data_crystal

_cell_length_a 53.72750
_cell_length_b 53.72740
_cell_length_c 53.72740
_cell_angle_alpha 109.47100
_cell_angle_beta  109.47100
_cell_angle_gamma 109.47100

_symmetry_space_group_name_	'P 1'
_symmetry_space_group_name_H-M	'P 1'

loop_
_symmetry_equiv_pos_as_xyz
  x,y,z

loop_
_atom_site_label
_atom_site_type_symbol
_atom_site_fract_x
_atom_site_fract_y
_atom_site_fract_z
_atom_site_charge
Zn	Zn	0.34507 0.65074 0.05398 1.21600
Zn	Zn	0.05398 0.90324 0.20891 1.21600
Zn	Zn	0.30567 0.70891 0.15493 1.21600
Zn	Zn	0.70891 0.05398 0.40324 1.21600
Zn	Zn	0.20891 0.40324 0.05398 1.21600
Zn	Zn	0.23896 0.42451 0.20860 1.20000
Zn	Zn	0.90324 0.70891 0.55398 1.21600
Zn	Zn	0.84507 0.79109 0.69433 1.21600
Zn	Zn	0.07549 0.81445 0.28409 1.20000
Zn	Zn	0.59676 0.44602 0.29109 1.21600
Zn	Zn	0.71591 0.68555 0.92451 1.20000
Zn	Zn	0.34926 0.90324 0.69433 1.21600
Zn	Zn	0.21591 0.29140 0.03036 1.20000
Zn	Zn	0.78409 0.07549 0.31445 1.20000
Zn	Zn	0.94602 0.09676 0.79109 1.21600
Zn	Zn	0.73896 0.20860 0.42451 1.20000
Zn	Zn	0.70860 0.23896 0.92451 1.20000
Zn	Zn	0.80567 0.15493 0.70891 1.21600
Zn	Zn	0.03036 0.79140 0.21591 1.20000
Zn	Zn	0.84926 0.15493 0.44602 1.21600
Zn	Zn	0.29140 0.53036 0.71591 1.20000
Zn	Zn	0.73896 0.53036 0.81445 1.20000
Zn	Zn	0.15074 0.30567 0.09676 1.21600
Zn	Zn	0.20891 0.80567 0.65493 1.21600
Zn	Zn	0.92451 0.73896 0.70860 1.20000
Zn	Zn	0.05398 0.15074 0.34507 1.21600
Zn	Zn	0.96964 0.76104 0.68555 1.20000
Zn	Zn	0.69433 0.29109 0.84507 1.21600
Zn	Zn	0.46964 0.78409 0.20860 1.20000
Zn	Zn	0.42451 0.70860 0.73896 1.20000
Zn	Zn	0.65074 0.09676 0.30567 1.21600
Zn	Zn	0.57549 0.28409 0.81445 1.20000
Zn	Zn	0.42451 0.71591 0.18555 1.20000
Zn	Zn	0.29109 0.34507 0.19433 1.21600
Zn	Zn	0.28409 0.96964 0.70860 1.20000
Zn	Zn	0.18555 0.96964 0.26104 1.20000
Zn	Zn	0.20860 0.92451 0.23896 1.20000
Zn	Zn	0.34926 0.44602 0.15493 1.21600
Zn	Zn	0.21591 0.92451 0.68555 1.20000
Zn	Zn	0.69433 0.40324 0.34926 1.21600
Zn	Zn	0.79140 0.71591 0.53036 1.20000
Zn	Zn	0.15493 0.94602 0.34926 1.21600
Zn	Zn	0.40324 0.84926 0.19433 1.21600
Zn	Zn	0.70860 0.46964 0.28409 1.20000
Zn	Zn	0.15074 0.84507 0.55398 1.21600
Zn	Zn	0.90324 0.19433 0.84926 1.21600
Zn	Zn	0.79109 0.19433 0.34507 1.21600
Zn	Zn	0.29140 0.76104 0.07549 1.20000
Zn	Zn	0.65074 0.55398 0.84507 1.21500
Zn	Zn	0.70891 0.65493 0.80567 1.21500
Zn	Zn	0.57549 0.29140 0.26104 1.19900
Zn	Zn	0.81445 0.03036 0.73896 1.19900
Zn	Zn	0.80567 0.65074 0.59676 1.21500
Zn	Zn	0.46964 0.68555 0.76104 1.19900
Zn	Zn	0.81445 0.78409 0.57549 1.19900
Zn	Zn	0.44602 0.79109 0.09676 1.21500
Zn	Zn	0.68555 0.42451 0.21591 1.19900
Zn	Zn	0.03036 0.23896 0.31445 1.19900
Zn	Zn	0.71591 0.03036 0.29140 1.19900
Zn	Zn	0.09676 0.80567 0.15074 1.21500
Zn	Zn	0.26104 0.46964 0.18555 1.19900
Zn	Zn	0.84926 0.69433 0.90324 1.21500
Zn	Zn	0.55398 0.20891 0.90324 1.21500
Zn	Zn	0.19433 0.34926 0.40324 1.21500
Zn	Zn	0.79140 0.07549 0.76104 1.19900
Zn	Zn	0.30567 0.59676 0.65074 1.21500
Zn	Zn	0.76104 0.18555 0.46964 1.19900
Zn	Zn	0.31445 0.57549 0.78409 1.19900
Zn	Zn	0.09676 0.29109 0.44602 1.21500
Zn	Zn	0.44602 0.65493 0.84926 1.21500
Zn	Zn	0.68555 0.26104 0.96964 1.19900
Zn	Zn	0.65493 0.34926 0.94602 1.21500
Zn	Zn	0.18555 0.21591 0.42451 1.19900
Zn	Zn	0.96964 0.20860 0.78409 1.19900
Zn	Zn	0.15493 0.20891 0.30567 1.21500
Zn	Zn	0.55398 0.34507 0.15074 1.21500
Zn	Zn	0.78409 0.70860 0.96964 1.19900
Zn	Zn	0.65493 0.30567 0.20891 1.21500
Zn	Zn	0.79109 0.59676 0.94602 1.21500
Zn	Zn	0.20860 0.28409 0.46964 1.19900
Zn	Zn	0.53036 0.31445 0.23896 1.19900
Zn	Zn	0.26104 0.79140 0.57549 1.19900
Zn	Zn	0.40324 0.55398 0.70891 1.21500
Zn	Zn	0.94602 0.84926 0.65493 1.21500
Zn	Zn	0.53036 0.21591 0.79140 1.19900
Zn	Zn	0.34507 0.69433 0.79109 1.21500
Zn	Zn	0.29109 0.94602 0.59676 1.21500
Zn	Zn	0.84507 0.05398 0.65074 1.21500
Zn	Zn	0.59676 0.15074 0.80567 1.21500
Zn	Zn	0.76104 0.57549 0.79140 1.19900
Zn	Zn	0.23896 0.81445 0.53036 1.19900
Zn	Zn	0.19433 0.84507 0.29109 1.21500
Zn	Zn	0.28409 0.31445 0.07549 1.19900
Zn	Zn	0.07549 0.26104 0.29140 1.19900
Zn	Zn	0.92451 0.18555 0.71591 1.19900
Zn	Zn	0.31445 0.73896 0.03036 1.19900
H 	H 	0.21840 0.28450 0.20130 0.06100
H 	H 	0.28750 0.63530 0.57720 0.05200
H 	H 	0.67910 0.48580 0.94030 0.07000
H 	H 	0.47550 0.67450 0.81480 -0.02000
H 	H 	0.71030 0.28750 0.15220 0.05200
H 	H 	0.73260 0.11620 0.44480 -0.02700
H 	H 	0.72010 0.43300 0.79290 0.05200
H 	H 	0.75910 0.60920 0.47230 0.04000
H 	H 	0.13170 0.06180 0.33130 0.07100
H 	H 	0.30670 0.82090 0.26120 0.07000
H 	H 	0.71550 0.29870 0.28160 0.06100
H 	H 	0.15220 0.36470 0.94190 0.05200
H 	H 	0.31020 0.64960 0.69300 0.16300
H 	H 	0.63690 0.35010 0.10920 0.04000
H 	H 	0.95660 0.80700 0.61720 0.16300
H 	H 	0.60510 0.71310 0.93860 0.06200
H 	H 	0.80670 0.54550 0.48580 0.07000
H 	H 	0.43860 0.83350 0.72550 0.06200
H 	H 	0.42720 0.64010 0.20710 0.05200
H 	H 	0.33930 0.81480 0.14030 -0.02000
H 	H 	0.44160 0.59360 0.77440 0.16400
H 	H 	0.71550 0.41680 0.93390 0.06100
H 	H 	0.72560 0.55840 0.90640 0.16400
H 	H 	0.07280 0.79290 0.35990 0.05200
H 	H 	0.06140 0.78690 0.39490 0.06200
H 	H 	0.44480 0.82860 0.21220 -0.02700
H 	H 	0.13530 0.78750 0.07720 0.05200
H 	H 	0.26740 0.38360 0.21220 -0.02700
H 	H 	0.78380 0.49680 0.93720 0.04500
H 	H 	0.80040 0.13170 0.56990 0.07100
H 	H 	0.55960 0.56280 0.84660 0.04500
H 	H 	0.71300 0.15340 0.71620 0.04500
H 	H 	0.05840 0.83280 0.15200 0.16400
H 	H 	0.43860 0.60510 0.21310 0.06200
H 	H 	0.71310 0.27450 0.10800 0.06200
H 	H 	0.56140 0.39490 0.78690 0.06200
H 	H 	0.80670 0.26120 0.82090 0.07000
H 	H 	0.42280 0.86470 0.71250 0.05200
H 	H 	0.89200 0.66650 0.10510 0.06200
H 	H 	0.04550 0.73880 0.55970 0.07000
H 	H 	0.81830 0.61710 0.47720 0.06400
H 	H 	0.61620 0.23260 0.94480 -0.02700
H 	H 	0.54340 0.16060 0.85040 0.16300
H 	H 	0.94190 0.07720 0.28970 0.05200
H 	H 	0.85970 0.68520 0.66070 -0.02000
H 	H 	0.67450 0.31480 0.97550 -0.02000
H 	H 	0.58320 0.01710 0.29870 0.06100
H 	H 	0.35990 0.29290 0.07280 0.05200
H 	H 	0.89080 0.74090 0.02770 0.04000
H 	H 	0.65200 0.59360 0.81920 0.16400
H 	H 	0.02280 0.18170 0.88290 0.06400
H 	H 	0.79870 0.58320 0.51710 0.06100
H 	H 	0.79290 0.93300 0.72010 0.05200
H 	H 	0.24090 0.85010 0.21320 0.04000
H 	H 	0.43820 0.36830 0.16870 0.07100
H 	H 	0.52770 0.63690 0.78680 0.04000
H 	H 	0.86470 0.65220 0.44190 0.05200
H 	H 	0.94190 0.86470 0.15220 0.05200
H 	H 	0.71290 0.07280 0.77990 0.05200
H 	H 	0.51420 0.95450 0.19330 0.07000
H 	H 	0.89080 0.14990 0.36310 0.04000
H 	H 	0.18170 0.38290 0.52280 0.06400
H 	H 	0.06610 0.08320 0.28450 0.06100
H 	H 	0.29880 0.61710 0.13990 0.06400
H 	H 	0.13170 0.06990 0.30040 0.07100
H 	H 	0.85010 0.71320 0.74090 0.04000
H 	H 	0.56180 0.93010 0.23050 0.07100
H 	H 	0.04550 0.30670 0.98580 0.07000
H 	H 	0.71250 0.36470 0.42280 0.05200
H 	H 	0.02770 0.24090 0.89080 0.04000
H 	H 	0.43390 0.71840 0.01710 0.06100
H 	H 	0.98290 0.20130 0.91680 0.06100
H 	H 	0.38290 0.36010 0.20120 0.06400
H 	H 	0.21550 0.93390 0.41680 0.06100
H 	H 	0.66720 0.22560 0.81920 0.16400
H 	H 	0.94480 0.21220 0.82860 -0.02700
H 	H 	0.73880 0.67910 0.69330 0.07000
H 	H 	0.57720 0.44190 0.78970 0.05200
H 	H 	0.11710 0.79880 0.63990 0.06400
H 	H 	0.21030 0.05810 0.42280 0.05200
H 	H 	0.38360 0.71220 0.76740 -0.02700
H 	H 	0.66060 0.61720 0.81020 0.16300
H 	H 	0.83130 0.13170 0.56180 0.07100
H 	H 	0.11720 0.16060 0.31020 0.16300
H 	H 	0.17450 0.97550 0.31480 -0.02000
H 	H 	0.69960 0.26950 0.33130 0.07100
H 	H 	0.48580 0.44030 0.17910 0.07000
H 	H 	0.34660 0.78700 0.78380 0.04500
H 	H 	0.77440 0.68080 0.83280 0.16400
H 	H 	0.22560 0.31920 0.16720 0.16400
H 	H 	0.64030 0.33930 0.31480 -0.02000
H 	H 	0.19300 0.31020 0.14960 0.16300
H 	H 	0.22010 0.42720 0.28710 0.05200
H 	H 	0.55520 0.17140 0.78780 -0.02700
H 	H 	0.54340 0.38280 0.19300 0.16300
H 	H 	0.26120 0.94030 0.45450 0.07000
H 	H 	0.56610 0.28450 0.08320 0.06100
H 	H 	0.31830 0.84110 0.20120 0.06400
H 	H 	0.92280 0.21030 0.55810 0.05200
H 	H 	0.06610 0.98290 0.28160 0.06100
H 	H 	0.27440 0.44160 0.09360 0.16400
H 	H 	0.74090 0.21320 0.85010 0.04000
H 	H 	0.44030 0.67910 0.98580 0.07000
H 	H 	0.86470 0.21250 0.92280 0.05200
H 	H 	0.61720 0.30700 0.95660 0.16300
H 	H 	0.82090 0.76120 0.80670 0.07000
H 	H 	0.51710 0.43390 0.21840 0.06100
H 	H 	0.52450 0.32550 0.18520 -0.02000
H 	H 	0.93390 0.91680 0.71550 0.06100
H 	H 	0.81480 0.64030 0.83930 -0.02000
H 	H 	0.69300 0.54340 0.88280 0.16300
H 	H 	0.56700 0.85990 0.28710 0.05200
H 	H 	0.14010 0.21290 0.93300 0.05200
H 	H 	0.09360 0.15200 0.31920 0.16400
H 	H 	0.93860 0.21310 0.60510 0.06200
H 	H 	0.10510 0.16650 0.89200 0.06200
H 	H 	0.40640 0.72560 0.05840 0.16400
H 	H 	0.78970 0.94190 0.57720 0.05200
H 	H 	0.33280 0.77440 0.18080 0.16400
H 	H 	0.63170 0.33130 0.06180 0.07100
H 	H 	0.05960 0.21300 0.99680 0.04500
H 	H 	0.38280 0.68980 0.83940 0.16300
H 	H 	0.18980 0.30700 0.35040 0.16300
H 	H 	0.64010 0.70710 0.92720 0.05200
H 	H 	0.54550 0.55970 0.73880 0.07000
H 	H 	0.30100 0.32550 0.14030 -0.02000
H 	H 	0.78450 0.71840 0.70130 0.06100
H 	H 	0.64990 0.39080 0.86310 0.04000
H 	H 	0.71290 0.64010 0.43300 0.05200
H 	H 	0.83930 0.69900 0.52450 -0.02000
H 	H 	0.26950 0.83130 0.19960 0.07100
H 	H 	0.28970 0.71250 0.84780 0.05200
H 	H 	0.21290 0.43300 0.64010 0.05200
H 	H 	0.95450 0.69330 0.01420 0.07000
H 	H 	0.16070 0.30100 0.47550 -0.02000
H 	H 	0.56280 0.34660 0.05960 0.04500
H 	H 	0.11620 0.17140 0.38360 -0.02700
H 	H 	0.68080 0.33280 0.27440 0.16400
H 	H 	0.81920 0.09360 0.65200 0.16400
H 	H 	0.83940 0.18980 0.38280 0.16300
H 	H 	0.31920 0.66720 0.72560 0.16400
H 	H 	0.70130 0.48290 0.41680 0.06100
H 	H 	0.72010 0.28710 0.42720 0.05200
H 	H 	0.78710 0.56700 0.35990 0.05200
H 	H 	0.93860 0.72550 0.83350 0.06200
H 	H 	0.94030 0.95450 0.76120 0.07000
H 	H 	0.31920 0.65200 0.09360 0.16400
H 	H 	0.98580 0.17910 0.44030 0.07000
H 	H 	0.06990 0.26950 0.93820 0.07100
H 	H 	0.22010 0.79290 0.43300 0.05200
H 	H 	0.68980 0.33940 0.88280 0.16300
H 	H 	0.56610 0.28160 0.98290 0.06100
H 	H 	0.61640 0.28780 0.23260 -0.02700
H 	H 	0.89490 0.06140 0.28690 0.06200
H 	H 	0.93820 0.76950 0.06990 0.07100
H 	H 	0.56990 0.63170 0.80040 0.07100
H 	H 	0.81830 0.20120 0.84110 0.06400
H 	H 	0.80700 0.68980 0.85040 0.16300
H 	H 	0.15220 0.78750 0.71030 0.05200
H 	H 	0.33280 0.55840 0.65200 0.16400
H 	H 	0.13530 0.34780 0.55810 0.05200
H 	H 	0.79870 0.21550 0.78160 0.06100
H 	H 	0.28680 0.52770 0.13690 0.04000
H 	H 	0.39200 0.28690 0.22550 0.06200
H 	H 	0.57280 0.21290 0.27990 0.05200
H 	H 	0.50320 0.56280 0.71620 0.04500
H 	H 	0.43820 0.06990 0.76950 0.07100
H 	H 	0.06140 0.27450 0.16650 0.06200
H 	H 	0.31480 0.47550 0.17450 -0.02000
H 	H 	0.13990 0.11710 0.29880 0.06400
H 	H 	0.28700 0.84660 0.28380 0.04500
H 	H 	0.90640 0.84800 0.68080 0.16400
H 	H 	0.18080 0.27440 0.33280 0.16400
H 	H 	0.93300 0.71290 0.14010 0.05200
H 	H 	0.57280 0.35990 0.79290 0.05200
H 	H 	0.20710 0.14010 0.42720 0.05200
H 	H 	0.51420 0.55970 0.82090 0.07000
H 	H 	0.84780 0.63530 0.05810 0.05200
H 	H 	0.65890 0.47720 0.86010 0.06400
H 	H 	0.16720 0.81920 0.22560 0.16400
H 	H 	0.68080 0.34800 0.90640 0.16400
H 	H 	0.85990 0.78710 0.06700 0.05200
H 	H 	0.82860 0.71220 0.94480 -0.02700
H 	H 	0.09360 0.94160 0.27440 0.16400
H 	H 	0.73050 0.56180 0.43010 0.07100
H 	H 	0.28160 0.48290 0.06610 0.06100
H 	H 	0.44030 0.76120 0.95450 0.07000
H 	H 	0.21030 0.15220 0.28750 0.05200
H 	H 	0.57720 0.13530 0.28750 0.05200
H 	H 	0.68520 0.16070 0.35970 -0.02000
H 	H 	0.33350 0.93860 0.22550 0.06200
H 	H 	0.17140 0.88360 0.61620 -0.02700
H 	H 	0.38280 0.69300 0.04340 0.16300
H 	H 	0.16060 0.35040 0.04340 0.16300
H 	H 	0.56700 0.70710 0.77990 0.05200
H 	H 	0.05520 0.78780 0.17140 -0.02700
H 	H 	0.13690 0.02770 0.28680 0.04000
H 	H 	0.06700 0.28710 0.85990 0.05200
H 	H 	0.77440 0.09360 0.44160 0.16400
H 	H 	0.48580 0.04550 0.80670 0.07000
H 	H 	0.26950 0.43820 0.56990 0.07100
H 	H 	0.32090 0.80670 0.76120 0.07000
H 	H 	0.21220 0.88360 0.26740 -0.02700
H 	H 	0.27440 0.83280 0.68080 0.16400
H 	H 	0.06700 0.77990 0.70710 0.05200
H 	H 	0.86830 0.93820 0.66870 0.07100
H 	H 	0.78970 0.84780 0.71250 0.05200
H 	H 	0.78450 0.06610 0.58320 0.06100
H 	H 	0.64960 0.45660 0.33940 0.16300
H 	H 	0.91680 0.70130 0.98290 0.06100
H 	H 	0.16060 0.81020 0.61720 0.16300
H 	H 	0.20120 0.86010 0.38290 0.06400
H 	H 	0.86310 0.89080 0.64990 0.04000
H 	H 	0.95450 0.26120 0.44030 0.07000
H 	H 	0.34800 0.94160 0.66720 0.16400
H 	H 	0.19900 0.85970 0.67450 -0.02000
H 	H 	0.28690 0.72550 0.89200 0.06200
H 	H 	0.08320 0.78450 0.56610 0.06100
H 	H 	0.82550 0.80100 0.64030 -0.02000
H 	H 	0.94160 0.77440 0.59360 0.16400
H 	H 	0.34110 0.52280 0.13990 0.06400
H 	H 	0.34780 0.05810 0.63530 0.05200
H 	H 	0.71620 0.65340 0.71300 0.04500
H 	H 	0.40640 0.68080 0.84800 0.16400
H 	H 	0.97550 0.81480 0.67450 -0.02000
H 	H 	0.06180 0.83130 0.63170 0.07100
H 	H 	0.25910 0.47230 0.60920 0.04000
H 	H 	0.15200 0.81920 0.59360 0.16400
H 	H 	0.85990 0.07280 0.29290 0.05200
H 	H 	0.21250 0.78970 0.34780 0.05200
H 	H 	0.78710 0.22010 0.92720 0.05200
H 	H 	0.79290 0.85990 0.57280 0.05200
H 	H 	0.35970 0.66070 0.68520 -0.02000
H 	H 	0.14990 0.28680 0.25910 0.04000
H 	H 	0.21300 0.71620 0.15340 0.04500
H 	H 	0.32860 0.38380 0.11640 -0.02700
H 	H 	0.19960 0.86830 0.43010 0.07100
H 	H 	0.30040 0.73050 0.66870 0.07100
H 	H 	0.06280 0.00320 0.21620 0.04500
H 	H 	0.78700 0.28380 0.84660 0.04500
H 	H 	0.15890 0.29880 0.18170 0.06400
H 	H 	0.07720 0.78970 0.44190 0.05200
H 	H 	0.98580 0.80670 0.04550 0.07000
H 	H 	0.55810 0.84780 0.13530 0.05200
H 	H 	0.04340 0.85040 0.16060 0.16300
H 	H 	0.78160 0.06610 0.48290 0.06100
H 	H 	0.84800 0.18080 0.40640 0.16400
H 	H 	0.80040 0.66870 0.73050 0.07100
H 	H 	0.58320 0.56610 0.78450 0.06100
H 	H 	0.76950 0.19960 0.83130 0.07100
H 	H 	0.59360 0.31920 0.15200 0.16400
H 	H 	0.63170 0.30040 0.06990 0.07100
H 	H 	0.27450 0.66650 0.56140 0.06200
H 	H 	0.48290 0.56610 0.78160 0.06100
H 	H 	0.84660 0.06280 0.55960 0.04500
H 	H 	0.55810 0.71030 0.92280 0.05200
H 	H 	0.44190 0.28970 0.07720 0.05200
H 	H 	0.69300 0.14960 0.31020 0.16300
H 	H 	0.34800 0.40640 0.18080 0.16400
H 	H 	0.64960 0.19300 0.81020 0.16300
H 	H 	0.05810 0.92280 0.71030 0.05200
H 	H 	0.14960 0.81020 0.19300 0.16300
H 	H 	0.19960 0.33130 0.26950 0.07100
H 	H 	0.65340 0.21300 0.21620 0.04500
H 	H 	0.93720 0.99680 0.78380 0.04500
H 	H 	0.14960 0.33940 0.45660 0.16300
H 	H 	0.05840 0.22560 0.40640 0.16400
H 	H 	0.59360 0.27440 0.94160 0.16400
H 	H 	0.93300 0.22010 0.29290 0.05200
H 	H 	0.85040 0.66060 0.54340 0.16300
H 	H 	0.18080 0.90640 0.34800 0.16400
H 	H 	0.29290 0.72010 0.93300 0.05200
H 	H 	0.88280 0.83940 0.68980 0.16300
H 	H 	0.14010 0.92720 0.70710 0.05200
H 	H 	0.63530 0.07720 0.78750 0.05200
H 	H 	0.28450 0.58320 0.06610 0.06100
H 	H 	0.36470 0.44190 0.65220 0.05200
H 	H 	0.19900 0.33930 0.02450 -0.02000
H 	H 	0.99680 0.71300 0.05960 0.04500
H 	H 	0.36830 0.66870 0.93820 0.07100
H 	H 	0.35040 0.80700 0.18980 0.16300
H 	H 	0.51710 0.08320 0.79870 0.06100
H 	H 	0.28450 0.70130 0.71840 0.06100
H 	H 	0.28970 0.57720 0.94190 0.05200
H 	H 	0.94040 0.15340 0.43720 0.04500
H 	H 	0.65890 0.18170 0.29880 0.06400
H 	H 	0.07280 0.27990 0.21290 0.05200
H 	H 	0.21310 0.10510 0.43860 0.06200
H 	H 	0.17910 0.23880 0.19330 0.07000
H 	H 	0.38290 0.02280 0.68170 0.06400
H 	H 	0.44480 0.61620 0.73260 -0.02700
H 	H 	0.13690 0.10920 0.35010 0.04000
H 	H 	0.02770 0.78680 0.63690 0.04000
H 	H 	0.71220 0.44480 0.32860 -0.02700
H 	H 	0.77450 0.21310 0.60800 0.06200
H 	H 	0.67140 0.05520 0.28780 -0.02700
H 	H 	0.99680 0.28380 0.43720 0.04500
H 	H 	0.45450 0.44030 0.26120 0.07000
H 	H 	0.71300 0.55960 0.49680 0.04500
H 	H 	0.70120 0.31830 0.34110 0.06400
H 	H 	0.20120 0.34110 0.31830 0.06400
H 	H 	0.31020 0.66060 0.11720 0.16300
H 	H 	0.76120 0.30670 0.32090 0.07000
H 	H 	0.18980 0.88280 0.33940 0.16300
H 	H 	0.70120 0.38290 0.86010 0.06400
H 	H 	0.64010 0.93300 0.21290 0.05200
H 	H 	0.23050 0.80040 0.16870 0.07100
H 	H 	0.71620 0.06280 0.50320 0.04500
H 	H 	0.77990 0.20710 0.56700 0.05200
H 	H 	0.78380 0.28700 0.34660 0.04500
H 	H 	0.27450 0.60800 0.21310 0.06200
H 	H 	0.94040 0.78700 0.00320 0.04500
H 	H 	0.30670 0.48580 0.54550 0.07000
H 	H 	0.88290 0.68170 0.02280 0.06400
H 	H 	0.76120 0.45450 0.94030 0.07000
H 	H 	0.25910 0.78680 0.14990 0.04000
H 	H 	0.29290 0.57280 0.85990 0.05200
H 	H 	0.08320 0.29870 0.01710 0.06100
H 	H 	0.14030 0.82550 0.30100 -0.02000
H 	H 	0.78750 0.57720 0.63530 0.05200
H 	H 	0.69900 0.02450 0.33930 -0.02000
H 	H 	0.10800 0.33350 0.89490 0.06200
H 	H 	0.22550 0.78690 0.39200 0.06200
H 	H 	0.11640 0.23260 0.28780 -0.02700
H 	H 	0.65220 0.94190 0.36470 0.05200
H 	H 	0.28680 0.75910 0.64990 0.04000
H 	H 	0.19330 0.73880 0.17910 0.07000
H 	H 	0.21620 0.71300 0.65340 0.04500
H 	H 	0.30700 0.85040 0.68980 0.16300
H 	H 	0.60800 0.89490 0.33350 0.06200
H 	H 	0.45660 0.83940 0.14960 0.16300
H 	H 	0.23880 0.69330 0.67910 0.07000
H 	H 	0.83930 0.14030 0.81480 -0.02000
H 	H 	0.16870 0.86830 0.43820 0.07100
H 	H 	0.05960 0.84660 0.56280 0.04500
H 	H 	0.28780 0.55520 0.67140 -0.02700
H 	H 	0.78700 0.50320 0.44040 0.04500
H 	H 	0.60800 0.71310 0.77450 0.06200
H 	H 	0.78680 0.13690 0.52770 0.04000
H 	H 	0.56140 0.16650 0.27450 0.06200
H 	H 	0.35970 0.69900 0.17450 -0.02000
H 	H 	0.67450 0.35970 0.19900 -0.02000
H 	H 	0.26120 0.32090 0.30670 0.07000
H 	H 	0.52770 0.89080 0.24090 0.04000
H 	H 	0.66870 0.23050 0.30040 0.07100
H 	H 	0.21620 0.50320 0.06280 0.04500
H 	H 	0.10800 0.77450 0.71310 0.06200
H 	H 	0.90640 0.05840 0.72560 0.16400
H 	H 	0.70710 0.27990 0.06700 0.05200
H 	H 	0.21320 0.35010 0.24090 0.04000
H 	H 	0.38380 0.76740 0.05520 -0.02700
H 	H 	0.77990 0.57280 0.71290 0.05200
H 	H 	0.10920 0.85010 0.63690 0.04000
H 	H 	0.34780 0.28970 0.21250 0.05200
H 	H 	0.43720 0.78380 0.99680 0.04500
H 	H 	0.30040 0.56990 0.13170 0.07100
H 	H 	0.47720 0.36010 0.15890 0.06400
H 	H 	0.21290 0.77990 0.07280 0.05200
H 	H 	0.29870 0.78160 0.21550 0.06100
H 	H 	0.43390 0.71550 0.91680 0.06100
H 	H 	0.95660 0.14960 0.83940 0.16300
H 	H 	0.32550 0.64030 0.80100 -0.02000
H 	H 	0.15340 0.93720 0.44040 0.04500
H 	H 	0.50320 0.94040 0.28700 0.04500
H 	H 	0.10920 0.25910 0.97230 0.04000
H 	H 	0.81020 0.11720 0.66060 0.16300
H 	H 	0.92720 0.72010 0.78710 0.05200
H 	H 	0.61640 0.32860 0.88380 -0.02700
H 	H 	0.15890 0.86010 0.47720 0.06400
H 	H 	0.68170 0.52280 0.38290 0.06400
H 	H 	0.02450 0.18520 0.32550 -0.02000
H 	H 	0.31480 0.83930 0.64030 -0.02000
H 	H 	0.34110 0.81830 0.70120 0.06400
H 	H 	0.28700 0.44040 0.50320 0.04500
H 	H 	0.76740 0.55520 0.88380 -0.02700
H 	H 	0.54550 0.98580 0.30670 0.07000
H 	H 	0.16720 0.34800 0.44160 0.16400
H 	H 	0.55520 0.38380 0.26740 -0.02700
H 	H 	0.94030 0.98580 0.67910 0.07000
H 	H 	0.05970 0.04550 0.23880 0.07000
H 	H 	0.82860 0.11640 0.38380 -0.02700
H 	H 	0.21550 0.28160 0.29870 0.06100
H 	H 	0.16650 0.77450 0.06140 0.06200
H 	H 	0.16870 0.30040 0.23050 0.07100
H 	H 	0.93820 0.16870 0.36830 0.07100
H 	H 	0.20130 0.41680 0.48290 0.06100
H 	H 	0.11640 0.88380 0.32860 -0.02700
H 	H 	0.68520 0.52450 0.82550 -0.02000
H 	H 	0.14990 0.86310 0.39080 0.04000
H 	H 	0.35990 0.06700 0.78710 0.05200
H 	H 	0.55970 0.32090 0.01420 0.07000
H 	H 	0.24090 0.39080 0.52770 0.04000
H 	H 	0.18520 0.82550 0.52450 -0.02000
H 	H 	0.44040 0.43720 0.15340 0.04500
H 	H 	0.44190 0.15220 0.86470 0.05200
H 	H 	0.15200 0.33280 0.05840 0.16400
H 	H 	0.65340 0.44040 0.93720 0.04500
H 	H 	0.69900 0.67450 0.85970 -0.02000
H 	H 	0.66070 0.47550 0.30100 -0.02000
H 	H 	0.83940 0.64960 0.95660 0.16300
H 	H 	0.88380 0.05520 0.76740 -0.02700
H 	H 	0.28710 0.35990 0.56700 0.05200
H 	H 	0.83350 0.60800 0.39490 0.06200
H 	H 	0.42720 0.78710 0.72010 0.05200
H 	H 	0.72550 0.39200 0.78690 0.06200
H 	H 	0.63530 0.55810 0.34780 0.05200
H 	H 	0.83350 0.22550 0.93860 0.06200
H 	H 	0.43300 0.14010 0.71290 0.05200
H 	H 	0.70130 0.21840 0.78450 0.06100
H 	H 	0.93720 0.94040 0.65340 0.04500
H 	H 	0.64990 0.25910 0.28680 0.04000
H 	H 	0.80100 0.14030 0.32550 -0.02000
H 	H 	0.80700 0.11720 0.45660 0.16300
H 	H 	0.20130 0.78450 0.21840 0.06100
H 	H 	0.63990 0.29880 0.11710 0.06400
H 	H 	0.65200 0.05840 0.33280 0.16400
H 	H 	0.61720 0.31020 0.16060 0.16300
H 	H 	0.79880 0.65890 0.68170 0.06400
H 	H 	0.93390 0.01710 0.71840 0.06100
H 	H 	0.32550 0.68520 0.02450 -0.02000
H 	H 	0.01420 0.82090 0.55970 0.07000
H 	H 	0.78690 0.89200 0.72550 0.06200
H 	H 	0.22560 0.90640 0.55840 0.16400
H 	H 	0.71840 0.51710 0.93390 0.06100
H 	H 	0.29880 0.68170 0.65890 0.06400
H 	H 	0.63990 0.34110 0.02280 0.06400
H 	H 	0.68980 0.35040 0.30700 0.16300
H 	H 	0.05520 0.26740 0.38380 -0.02700
H 	H 	0.21310 0.10800 0.27450 0.06200
H 	H 	0.78690 0.89490 0.56140 0.06200
H 	H 	0.05810 0.13530 0.84780 0.05200
H 	H 	0.97230 0.21320 0.36310 0.04000
H 	H 	0.41680 0.43390 0.21550 0.06100
H 	H 	0.07720 0.28750 0.13530 0.05200
H 	H 	0.11710 0.31830 0.97720 0.06400
H 	H 	0.75910 0.14990 0.78680 0.04000
H 	H 	0.94480 0.73260 0.61620 -0.02700
H 	H 	0.23050 0.43010 0.56180 0.07100
H 	H 	0.71310 0.43860 0.10510 0.06200
H 	H 	0.83280 0.18080 0.77440 0.16400
H 	H 	0.47230 0.10920 0.75910 0.04000
H 	H 	0.48290 0.91680 0.20130 0.06100
H 	H 	0.84110 0.13990 0.52280 0.06400
H 	H 	0.71030 0.42280 0.05810 0.05200
H 	H 	0.66650 0.06140 0.77450 0.06200
H 	H 	0.86310 0.97230 0.71320 0.04000
H 	H 	0.84660 0.78380 0.78700 0.04500
H 	H 	0.97720 0.81830 0.11710 0.06400
H 	H 	0.22550 0.43860 0.33350 0.06200
H 	H 	0.68170 0.15890 0.79880 0.06400
H 	H 	0.28750 0.65220 0.21030 0.05200
H 	H 	0.47550 0.80100 0.16070 -0.02000
H 	H 	0.33930 0.52450 0.69900 -0.02000
H 	H 	0.94160 0.16720 0.84800 0.16400
H 	H 	0.39080 0.02770 0.74090 0.04000
H 	H 	0.16070 0.85970 0.18520 -0.02000
H 	H 	0.98290 0.78160 0.56610 0.06100
H 	H 	0.21220 0.32860 0.44480 -0.02700
H 	H 	0.43010 0.06180 0.73050 0.07100
H 	H 	0.39490 0.28690 0.06140 0.06200
H 	H 	0.78780 0.11640 0.73260 -0.02700
H 	H 	0.89200 0.22550 0.28690 0.06200
H 	H 	0.31830 0.47720 0.61710 0.06400
H 	H 	0.00320 0.71620 0.56280 0.04500
H 	H 	0.71250 0.34780 0.78970 0.05200
H 	H 	0.33940 0.38280 0.18980 0.16300
H 	H 	0.42280 0.55810 0.21030 0.05200
H 	H 	0.69330 0.51420 0.45450 0.07000
H 	H 	0.85970 0.17450 0.69900 -0.02000
H 	H 	0.01710 0.21840 0.43390 0.06100
H 	H 	0.38360 0.67140 0.11620 -0.02700
H 	H 	0.73050 0.16870 0.80040 0.07100
H 	H 	0.23260 0.44480 0.11620 -0.02700
H 	H 	0.18170 0.79880 0.15890 0.06400
H 	H 	0.61620 0.38360 0.17140 -0.02700
H 	H 	0.27990 0.71290 0.57280 0.05200
H 	H 	0.56990 0.93820 0.26950 0.07100
H 	H 	0.76740 0.21220 0.38360 -0.02700
H 	H 	0.66650 0.60510 0.39200 0.06200
H 	H 	0.11620 0.94480 0.23260 -0.02700
H 	H 	0.63690 0.28680 0.02770 0.04000
H 	H 	0.36310 0.64990 0.89080 0.04000
H 	H 	0.60510 0.89200 0.16650 0.06200
H 	H 	0.21250 0.42280 0.36470 0.05200
H 	H 	0.17910 0.94030 0.48580 0.07000
H 	H 	0.33130 0.56180 0.13170 0.07100
H 	H 	0.32860 0.94480 0.71220 -0.02700
H 	H 	0.01710 0.79870 0.08320 0.06100
H 	H 	0.33350 0.39490 0.60800 0.06200
H 	H 	0.38380 0.61640 0.82860 -0.02700
H 	H 	0.83280 0.65200 0.55840 0.16400
H 	H 	0.84110 0.70120 0.81830 0.06400
H 	H 	0.93010 0.73050 0.06180 0.07100
H 	H 	0.82550 0.02450 0.68520 -0.02000
H 	H 	0.39490 0.10800 0.83350 0.06200
H 	H 	0.88360 0.11620 0.67140 -0.02700
H 	H 	0.52280 0.88290 0.18170 0.06400
H 	H 	0.16650 0.39200 0.60510 0.06200
H 	H 	0.23880 0.54550 0.05970 0.07000
H 	H 	0.64030 0.30100 0.82550 -0.02000
H 	H 	0.06990 0.80040 0.63170 0.07100
H 	H 	0.47720 0.11710 0.81830 0.06400
H 	H 	0.35040 0.54340 0.66060 0.16300
H 	H 	0.78680 0.64990 0.75910 0.04000
H 	H 	0.74090 0.52770 0.39080 0.04000
H 	H 	0.55970 0.23880 0.04550 0.07000
H 	H 	0.21300 0.49680 0.55960 0.04500
H 	H 	0.45450 0.01420 0.69330 0.07000
H 	H 	0.36830 0.69960 0.93010 0.07100
H 	H 	0.26740 0.88380 0.55520 -0.02700
H 	H 	0.56180 0.63170 0.83130 0.07100
H 	H 	0.55840 0.40640 0.22560 0.16400
H 	H 	0.02450 0.83930 0.19900 -0.02000
H 	H 	0.52280 0.63990 0.84110 0.06400
H 	H 	0.84800 0.66720 0.94160 0.16400
H 	H 	0.10510 0.93860 0.71310 0.06200
H 	H 	0.80100 0.66070 0.97550 -0.02000
H 	H 	0.23260 0.78780 0.61640 -0.02700
H 	H 	0.47230 0.36310 0.21320 0.04000
H 	H 	0.55960 0.99680 0.21300 0.04500
H 	H 	0.49680 0.43720 0.28380 0.04500
H 	H 	0.18520 0.35970 0.16070 -0.02000
H 	H 	0.88360 0.76740 0.71220 -0.02700
H 	H 	0.36010 0.65890 0.97720 0.06400
H 	H 	0.20710 0.06700 0.27990 0.05200
H 	H 	0.91680 0.21550 0.43390 0.06100
H 	H 	0.06280 0.05960 0.34660 0.04500
H 	H 	0.02280 0.84110 0.63990 0.06400
H 	H 	0.39080 0.36310 0.14990 0.04000
H 	H 	0.85040 0.18980 0.80700 0.16300
H 	H 	0.65220 0.71030 0.78750 0.05200
H 	H 	0.45660 0.61720 0.80700 0.16300
H 	H 	0.28380 0.93720 0.49680 0.04500
H 	H 	0.28380 0.34660 0.28700 0.04500
H 	H 	0.21840 0.93390 0.51710 0.06100
H 	H 	0.93010 0.19960 0.36830 0.07100
H 	H 	0.66060 0.04340 0.35040 0.16300
H 	H 	0.30700 0.45660 0.11720 0.16300
H 	H 	0.34660 0.55960 0.06280 0.04500
H 	H 	0.77450 0.56140 0.66650 0.06200
H 	H 	0.85010 0.13690 0.60920 0.04000
H 	H 	0.67140 0.61620 0.88360 -0.02700
H 	H 	0.27990 0.56700 0.20710 0.05200
H 	H 	0.66870 0.43820 0.86830 0.07100
H 	H 	0.15340 0.21620 0.21300 0.04500
H 	H 	0.88290 0.20120 0.36010 0.06400
H 	H 	0.52450 0.19900 0.83930 -0.02000
H 	H 	0.86010 0.88290 0.70120 0.06400
H 	H 	0.67910 0.19330 0.23880 0.07000
H 	H 	0.11720 0.95660 0.30700 0.16300
H 	H 	0.00320 0.28700 0.94040 0.04500
H 	H 	0.61710 0.97720 0.31830 0.06400
H 	H 	0.28160 0.79870 0.71550 0.06100
H 	H 	0.36310 0.71320 0.97230 0.04000
H 	H 	0.17450 0.19900 0.35970 -0.02000
H 	H 	0.61710 0.63990 0.79880 0.06400
H 	H 	0.97550 0.16070 0.80100 -0.02000
H 	H 	0.88380 0.82860 0.61640 -0.02700
H 	H 	0.69960 0.43010 0.86830 0.07100
H 	H 	0.21320 0.86310 0.47230 0.04000
H 	H 	0.13990 0.02280 0.34110 0.06400
H 	H 	0.06180 0.23050 0.93010 0.07100
H 	H 	0.43720 0.65340 0.94040 0.04500
H 	H 	0.49680 0.05960 0.71300 0.04500
H 	H 	0.71840 0.20130 0.28450 0.06100
H 	H 	0.41680 0.98290 0.70130 0.06100
H 	H 	0.05970 0.01420 0.32090 0.07000
H 	H 	0.81920 0.72560 0.66720 0.16400
H 	H 	0.44160 0.84800 0.16720 0.16400
H 	H 	0.44040 0.00320 0.78700 0.04500
H 	H 	0.82090 0.05970 0.51420 0.07000
H 	H 	0.81020 0.69300 0.64960 0.16300
H 	H 	0.76950 0.56990 0.43820 0.07100
H 	H 	0.72560 0.16720 0.31920 0.16400
H 	H 	0.36010 0.70120 0.88290 0.06400
H 	H 	0.60920 0.63690 0.85010 0.04000
H 	H 	0.71320 0.24090 0.35010 0.04000
H 	H 	0.73880 0.05970 0.54550 0.07000
H 	H 	0.70710 0.42720 0.14010 0.05200
H 	H 	0.66720 0.44160 0.34800 0.16400
H 	H 	0.17140 0.28780 0.05520 -0.02700
H 	H 	0.71220 0.26740 0.88360 -0.02700
H 	H 	0.28690 0.56140 0.89490 0.06200
H 	H 	0.19330 0.45450 0.51420 0.07000
H 	H 	0.88280 0.04340 0.69300 0.16300
H 	H 	0.19300 0.88280 0.54340 0.16300
H 	H 	0.92280 0.71250 0.86470 0.05200
H 	H 	0.35010 0.60920 0.13690 0.04000
H 	H 	0.43010 0.36830 0.19960 0.07100
H 	H 	0.33130 0.76950 0.69960 0.07100
H 	H 	0.86830 0.93010 0.69960 0.07100
H 	H 	0.83130 0.69960 0.76950 0.07100
H 	H 	0.73260 0.61640 0.78780 -0.02700
H 	H 	0.32090 0.51420 0.05970 0.07000
H 	H 	0.84780 0.21250 0.28970 0.05200
H 	H 	0.78160 0.71550 0.79870 0.06100
H 	H 	0.39200 0.10510 0.66650 0.06200
H 	H 	0.97230 0.75910 0.10920 0.04000
H 	H 	0.78780 0.67140 0.55520 -0.02700
H 	H 	0.92720 0.20710 0.64010 0.05200
H 	H 	0.56280 0.21620 0.00320 0.04500
H 	H 	0.28780 0.73260 0.11640 -0.02700
H 	H 	0.71320 0.47230 0.86310 0.04000
H 	H 	0.35010 0.74090 0.71320 0.04000
H 	H 	0.69330 0.17910 0.73880 0.07000
H 	H 	0.60920 0.97230 0.25910 0.04000
H 	H 	0.79880 0.13990 0.61710 0.06400
H 	H 	0.89490 0.83350 0.10800 0.06200
H 	H 	0.04340 0.19300 0.38280 0.16300
H 	H 	0.66070 0.18520 0.85970 -0.02000
H 	H 	0.33940 0.95660 0.64960 0.16300
H 	H 	0.14030 0.31480 0.33930 -0.02000
H 	H 	0.36470 0.92280 0.21250 0.05200
H 	H 	0.30100 0.97550 0.66070 -0.02000
H 	H 	0.01420 0.19330 0.95450 0.07000
H 	H 	0.78750 0.21030 0.65220 0.05200
H 	H 	0.86010 0.97720 0.65890 0.06400
H 	H 	0.55840 0.15200 0.83280 0.16400
H 	H 	0.72550 0.33350 0.43860 0.06200
H 	H 	0.28710 0.92720 0.22010 0.05200
H 	H 	0.43300 0.29290 0.22010 0.05200
H 	H 	0.81480 0.17450 0.47550 -0.02000
H 	H 	0.97720 0.15890 0.36010 0.06400
H 	H 	0.29870 0.51710 0.58320 0.06100
C 	C 	0.60300 0.34090 0.82810 0.37600
C 	C 	0.68884 0.14949 0.36895 0.08600
C 	C 	0.30010 0.71850 0.88960 -0.07800
C 	C 	0.51280 0.67190 0.77490 0.37600
C 	C 	0.74243 0.25425 0.81766 -0.07200
C 	C 	0.22425 0.43165 0.57620 -0.11300
C 	C 	0.43254 0.73721 0.14129 0.10200
C 	C 	0.87499 0.68744 0.61243 -0.04200
C 	C 	0.56948 0.56451 0.79165 -0.04300
C 	C 	0.75215 0.28591 0.31358 -0.09600
C 	C 	0.38012 0.84473 0.70697 -0.05400
C 	C 	0.31358 0.52767 0.06143 -0.09600
C 	C 	0.06254 0.00799 0.23439 0.01400
C 	C 	0.36895 0.64949 0.68884 0.08600
C 	C 	0.22217 0.79165 0.22714 -0.04300
C 	C 	0.17315 0.03539 0.38012 -0.05400
C 	C 	0.22462 0.93698 0.45886 0.03000
C 	C 	0.54114 0.56302 0.77538 0.03000
C 	C 	0.27360 0.82815 0.26561 0.01400
C 	C 	0.10828 0.27858 0.23630 -0.08500
C 	C 	0.68861 0.07253 0.29342 0.09300
C 	C 	0.22089 0.42747 0.11608 0.09300
C 	C 	0.23744 0.31245 0.12501 -0.04200
C 	C 	0.91840 0.19990 0.58950 -0.07800
C 	C 	0.41840 0.82890 0.71850 -0.07800
C 	C 	0.63023 0.50435 0.33288 0.33900
C 	C 	0.58160 0.41050 0.80010 -0.07800
C 	C 	0.72217 0.49503 0.43052 -0.04300
C 	C 	0.53539 0.67315 0.88012 -0.05400
C 	C 	0.49201 0.43746 0.26561 0.01400
C 	C 	0.78610 0.14917 0.54407 0.02500
C 	C 	0.24785 0.53376 0.06143 -0.09600
C 	C 	0.78120 0.59130 0.71530 -0.02200
C 	C 	0.06254 0.05455 0.32815 0.01400
C 	C 	0.14455 0.07620 0.35195 -0.11300
C 	C 	0.66461 0.39600 0.93663 0.35100
C 	C 	0.70584 0.38413 0.84519 -0.05500
C 	C 	0.86065 0.70584 0.82171 -0.05500
C 	C 	0.63776 0.67315 0.79303 -0.05400
C 	C 	0.28120 0.71530 0.59130 -0.02200
C 	C 	0.06302 0.02188 0.28764 0.03000
C 	C 	0.53935 0.31989 0.18884 0.08600
C 	C 	0.60481 0.31139 0.88392 0.09300
C 	C 	0.38757 0.57501 0.76256 -0.04200
C 	C 	0.13585 0.34850 0.93915 -0.00800
C 	C 	0.32815 0.55455 0.06254 0.01400
C 	C 	0.86307 0.71390 0.75797 0.02500
C 	C 	0.03539 0.15527 0.86224 -0.05400
C 	C 	0.50497 0.43549 0.22714 -0.04300
C 	C 	0.80467 0.06746 0.70875 0.10200
C 	C 	0.93915 0.84850 0.13585 -0.00800
C 	C 	0.80143 0.21230 0.87093 0.05100
C 	C 	0.29165 0.56948 0.06451 -0.04300
C 	C 	0.28752 0.41267 0.09585 0.12400
C 	C 	0.30143 0.43050 0.58913 0.05100
C 	C 	0.75425 0.24243 0.31766 -0.07200
C 	C 	0.09420 0.19640 0.91020 0.01900
C 	C 	0.40580 0.31600 0.10220 0.01900
C 	C 	0.57523 0.01182 0.25757 -0.07200
C 	C 	0.23424 0.45886 0.52188 0.03000
C 	C 	0.72425 0.57620 0.43165 -0.11300
C 	C 	0.54063 0.43663 0.27202 0.35100
C 	C 	0.10300 0.82810 0.34090 0.37600
C 	C 	0.81139 0.70658 0.92747 0.09300
C 	C 	0.75757 0.57523 0.51182 -0.07200
C 	C 	0.50799 0.56254 0.73439 0.01400
C 	C 	0.51280 0.84090 0.23790 0.37600
C 	C 	0.60400 0.56337 0.83539 0.35100
C 	C 	0.73424 0.52188 0.45886 0.03000
C 	C 	0.08733 0.21248 0.40415 0.12400
C 	C 	0.37485 0.58733 0.68318 0.12400
C 	C 	0.08160 0.80010 0.41050 -0.07800
C 	C 	0.80330 0.86415 0.71265 -0.00800
C 	C 	0.06746 0.85871 0.26279 0.10200
C 	C 	0.26561 0.93746 0.49201 0.01400
C 	C 	0.90870 0.18990 0.62400 -0.02200
C 	C 	0.56451 0.29165 0.06948 -0.04300
C 	C 	0.79165 0.72714 0.72217 -0.04300
C 	C 	0.15150 0.36415 0.56085 -0.00800
C 	C 	0.89700 0.17190 0.65910 0.37600
C 	C 	0.42380 0.35545 0.14805 -0.11300
C 	C 	0.11587 0.32171 0.96106 -0.05500
C 	C 	0.43052 0.99503 0.72217 -0.04300
C 	C 	0.67185 0.44545 0.93746 0.01400
C 	C 	0.40870 0.78470 0.71880 -0.02200
C 	C 	0.60510 0.95593 0.24203 0.02500
C 	C 	0.35545 0.70740 0.93165 -0.11300
C 	C 	0.78054 0.13105 0.31989 0.08600
C 	C 	0.34850 0.43915 0.63585 -0.00800
C 	C 	0.69670 0.28735 0.13585 -0.00800
C 	C 	0.40870 0.62400 0.18990 -0.02200
C 	C 	0.35871 0.79125 0.09592 0.10200
C 	C 	0.81358 0.75215 0.78591 -0.09600
C 	C 	0.92747 0.72089 0.61608 0.09300
C 	C 	0.57620 0.93165 0.22425 -0.11300
C 	C 	0.89172 0.17030 0.62802 -0.08500
C 	C 	0.96461 0.11988 0.32685 -0.05400
C 	C 	0.06835 0.27575 0.92380 -0.11300
C 	C 	0.06337 0.95937 0.22798 0.35100
C 	C 	0.01280 0.77490 0.67190 0.37600
C 	C 	0.95772 0.73630 0.12802 -0.08500
C 	C 	0.38392 0.60481 0.81139 0.09300
C 	C 	0.89700 0.72510 0.73790 0.37600
C 	C 	0.62515 0.21248 0.80833 0.12400
C 	C 	0.09130 0.28120 0.21530 -0.02200
C 	C 	0.91840 0.71850 0.82890 -0.07800
C 	C 	0.35195 0.77575 0.70740 -0.11300
C 	C 	0.15527 0.36224 0.53539 -0.05400
C 	C 	0.87499 0.18755 0.76256 -0.04200
C 	C 	0.71236 0.23424 0.27538 0.03000
C 	C 	0.28150 0.67110 0.58160 -0.07800
C 	C 	0.90415 0.08733 0.71248 0.12400
C 	C 	0.78752 0.69167 0.87485 0.12400
C 	C 	0.43410 0.12400 0.71530 -0.02200
C 	C 	0.46461 0.32685 0.11988 -0.05400
C 	C 	0.72462 0.45886 0.93698 0.03000
C 	C 	0.31256 0.88757 0.62501 -0.04200
C 	C 	0.51182 0.43659 0.25425 -0.07200
C 	C 	0.90870 0.71880 0.78470 -0.02200
C 	C 	0.17110 0.38960 0.58950 -0.07800
C 	C 	0.21409 0.46624 0.52767 -0.09600
C 	C 	0.87198 0.10828 0.32970 -0.08500
C 	C 	0.56143 0.31358 0.02767 -0.09600
C 	C 	0.61040 0.69990 0.78150 -0.07800
C 	C 	0.63935 0.46106 0.84519 -0.05500
C 	C 	0.13585 0.78735 0.69670 -0.00800
C 	C 	0.32171 0.86065 0.20584 -0.05500
C 	C 	0.82810 0.84090 0.60300 0.37600
C 	C 	0.39700 0.73790 0.72510 0.37600
C 	C 	0.93698 0.95886 0.72462 0.03000
C 	C 	0.08950 0.17110 0.88960 -0.07800
C 	C 	0.76576 0.22462 0.78764 0.03000
C 	C 	0.89600 0.16461 0.43663 0.35100
C 	C 	0.11608 0.18861 0.39519 0.09300
C 	C 	0.61587 0.96106 0.32171 -0.05500
C 	C 	0.32970 0.72142 0.95772 -0.08500
C 	C 	0.01182 0.25425 0.43659 -0.07200
C 	C 	0.31245 0.62501 0.73744 -0.04200
C 	C 	0.57501 0.26256 0.88757 -0.04200
C 	C 	0.06341 0.07523 0.31766 -0.07200
C 	C 	0.31766 0.74243 0.75425 -0.07200
C 	C 	0.38960 0.08950 0.67110 -0.07800
C 	C 	0.23744 0.92499 0.61243 -0.04200
C 	C 	0.81245 0.07501 0.68744 -0.04200
C 	C 	0.63023 0.12588 0.79735 0.33900
C 	C 	0.56085 0.86415 0.15150 -0.00800
C 	C 	0.25215 0.93857 0.46624 -0.09600
C 	C 	0.20265 0.82853 0.33288 0.33900
C 	C 	0.40408 0.76279 0.19533 0.10200
C 	C 	0.29735 0.63023 0.62588 0.33900
C 	C 	0.68990 0.40870 0.12400 -0.02200
C 	C 	0.81682 0.19167 0.40415 0.12400
C 	C 	0.81245 0.73744 0.62501 -0.04200
C 	C 	0.92380 0.14805 0.35545 -0.11300
C 	C 	0.17190 0.15910 0.39700 0.37600
C 	C 	0.30360 0.40580 0.58980 0.01900
C 	C 	0.29303 0.63776 0.17315 -0.05400
C 	C 	0.59585 0.30833 0.18318 0.12400
C 	C 	0.43052 0.43549 0.20835 -0.04300
C 	C 	0.76561 0.27360 0.32815 0.01400
C 	C 	0.71530 0.62400 0.43410 -0.02200
C 	C 	0.90580 0.10220 0.31600 0.01900
C 	C 	0.32810 0.72510 0.98720 0.37600
C 	C 	0.95937 0.23139 0.89600 0.35100
C 	C 	0.73721 0.64129 0.93254 0.10200
C 	C 	0.64949 0.46065 0.28054 0.08600
C 	C 	0.28620 0.69640 0.60220 0.01900
C 	C 	0.57253 0.38392 0.27911 0.09300
C 	C 	0.87412 0.17147 0.50435 0.33900
C 	C 	0.82810 0.98720 0.72510 0.37600
C 	C 	0.75215 0.46624 0.93857 -0.09600
C 	C 	0.31766 0.57523 0.06341 -0.07200
C 	C 	0.71880 0.28470 0.40870 -0.02200
C 	C 	0.30143 0.87093 0.21230 0.05100
C 	C 	0.11243 0.23744 0.42499 -0.04200
C 	C 	0.82853 0.83288 0.70265 0.33900
C 	C 	0.85545 0.93165 0.70740 -0.11300
C 	C 	0.36415 0.06085 0.65150 -0.00800
C 	C 	0.46106 0.11587 0.82171 -0.05500
C 	C 	0.93663 0.04063 0.77202 0.35100
C 	C 	0.00435 0.87412 0.67147 0.33900
C 	C 	0.59592 0.35871 0.29125 0.10200
C 	C 	0.32890 0.91840 0.21850 -0.07800
C 	C 	0.39780 0.80360 0.71380 0.01900
C 	C 	0.93165 0.72425 0.07620 -0.11300
C 	C 	0.92380 0.77575 0.06835 -0.11300
C 	C 	0.45937 0.89600 0.23139 0.35100
C 	C 	0.45772 0.32970 0.22142 -0.08500
C 	C 	0.84137 0.93050 0.62907 0.05100
C 	C 	0.40415 0.69167 0.81682 0.12400
C 	C 	0.21409 0.74785 0.18642 -0.09600
C 	C 	0.78470 0.21880 0.90870 -0.02200
C 	C 	0.42747 0.81139 0.20658 0.09300
C 	C 	0.79125 0.19533 0.43254 0.10200
C 	C 	0.43165 0.35545 0.20740 -0.11300
C 	C 	0.28770 0.69857 0.62907 0.05100
C 	C 	0.74575 0.06341 0.48818 -0.07200
C 	C 	0.16712 0.79735 0.67147 0.33900
C 	C 	0.03539 0.88012 0.67315 -0.05400
C 	C 	0.61243 0.42499 0.23744 -0.04200
C 	C 	0.28764 0.52188 0.06302 0.03000
C 	C 	0.64129 0.43254 0.23721 0.10200
C 	C 	0.68744 0.57501 0.81245 -0.04200
C 	C 	0.50799 0.94545 0.27360 0.01400
C 	C 	0.77783 0.56948 0.50497 -0.04300
C 	C 	0.34473 0.46461 0.63776 -0.05400
C 	C 	0.10400 0.83539 0.56337 0.35100
C 	C 	0.96106 0.13935 0.34519 -0.05500
C 	C 	0.15863 0.06950 0.37093 0.05100
C 	C 	0.63935 0.17829 0.29416 -0.05500
C 	C 	0.98818 0.74575 0.56341 -0.07200
C 	C 	0.84519 0.96106 0.63935 -0.05500
C 	C 	0.78764 0.06302 0.52188 0.03000
C 	C 	0.29165 0.72217 0.72714 -0.04300
C 	C 	0.22089 0.79342 0.60481 0.09300
C 	C 	0.10400 0.26861 0.04063 0.35100
C 	C 	0.70875 0.14129 0.40408 0.10200
C 	C 	0.42747 0.61608 0.72089 0.09300
C 	C 	0.77538 0.06302 0.54114 0.03000
C 	C 	0.10220 0.81600 0.40580 0.01900
C 	C 	0.35051 0.53935 0.71946 0.08600
C 	C 	0.27538 0.73424 0.71236 0.03000
C 	C 	0.82685 0.96461 0.61988 -0.05400
C 	C 	0.85195 0.70740 0.77575 -0.11300
C 	C 	0.37412 0.50435 0.17147 0.33900
C 	C 	0.84473 0.20697 0.88012 -0.05400
C 	C 	0.36065 0.53894 0.15481 -0.05500
C 	C 	0.12400 0.90870 0.68990 -0.02200
C 	C 	0.24243 0.42477 0.48818 -0.07200
C 	C 	0.41050 0.11040 0.82890 -0.07800
C 	C 	0.62802 0.95772 0.23630 -0.08500
C 	C 	0.96065 0.81116 0.68011 0.08600
C 	C 	0.16461 0.93663 0.39600 0.35100
C 	C 	0.71946 0.03935 0.35051 0.08600
C 	C 	0.19533 0.26279 0.40408 0.10200
C 	C 	0.06341 0.98818 0.24575 -0.07200
C 	C 	0.81600 0.91020 0.71380 0.01900
C 	C 	0.10300 0.27490 0.26210 0.37600
C 	C 	0.89600 0.73139 0.95937 0.35100
C 	C 	0.99201 0.26561 0.43746 0.01400
C 	C 	0.02767 0.21409 0.96624 -0.09600
C 	C 	0.20658 0.31139 0.42747 0.09300
C 	C 	0.73790 0.22510 0.89700 0.37600
C 	C 	0.32171 0.46106 0.61587 -0.05500
C 	C 	0.27538 0.54114 0.06302 0.03000
C 	C 	0.93410 0.21880 0.31010 -0.02200
C 	C 	0.63776 0.96461 0.34473 -0.05400
C 	C 	0.23721 0.93254 0.64129 0.10200
C 	C 	0.24203 0.45593 0.60510 0.02500
C 	C 	0.33288 0.00435 0.63023 0.33900
C 	C 	0.25797 0.86307 0.21390 0.02500
C 	C 	0.69857 0.56950 0.41087 0.05100
C 	C 	0.56337 0.22798 0.95937 0.35100
C 	C 	0.28610 0.74203 0.63693 0.02500
C 	C 	0.81139 0.10481 0.38392 0.09300
C 	C 	0.47233 0.43857 0.18642 -0.09600
C 	C 	0.69990 0.41840 0.08950 -0.07800
C 	C 	0.03376 0.74785 0.56143 -0.09600
C 	C 	0.79342 0.68861 0.57253 0.09300
C 	C 	0.53894 0.65481 0.86065 -0.05500
C 	C 	0.06948 0.27783 0.00497 -0.04300
C 	C 	0.21880 0.40870 0.28470 -0.02200
C 	C 	0.18884 0.81989 0.53935 0.08600
C 	C 	0.68011 0.36895 0.21946 0.08600
C 	C 	0.86895 0.18011 0.71946 0.08600
C 	C 	0.51182 0.07523 0.75757 -0.07200
C 	C 	0.73744 0.12501 0.31245 -0.04200
C 	C 	0.54407 0.89490 0.25797 0.02500
C 	C 	0.61608 0.39519 0.18861 0.09300
C 	C 	0.18400 0.08980 0.28620 0.01900
C 	C 	0.95593 0.21390 0.35083 0.02500
C 	C 	0.76210 0.65910 0.48720 0.37600
C 	C 	0.21380 0.39780 0.30360 0.01900
C 	C 	0.40408 0.64129 0.70875 0.10200
C 	C 	0.80330 0.93915 0.59065 -0.00800
C 	C 	0.87485 0.19167 0.78752 0.12400
C 	C 	0.70584 0.32171 0.36065 -0.05500
C 	C 	0.36415 0.30330 0.21265 -0.00800
C 	C 	0.15910 0.89700 0.67190 0.37600
C 	C 	0.56085 0.69670 0.90935 -0.00800
C 	C 	0.07253 0.27911 0.38392 0.09300
C 	C 	0.67185 0.22640 0.23439 0.01400
C 	C 	0.96624 0.71409 0.02767 -0.09600
C 	C 	0.17030 0.12802 0.39172 -0.08500
C 	C 	0.55455 0.56254 0.82815 0.01400
C 	C 	0.34519 0.70584 0.88413 -0.05500
C 	C 	0.78735 0.59065 0.65150 -0.00800
C 	C 	0.28735 0.63585 0.19670 -0.00800
C 	C 	0.78610 0.63693 0.74203 0.02500
C 	C 	0.67315 0.38012 0.03539 -0.05400
C 	C 	0.21248 0.90415 0.58733 0.12400
C 	C 	0.78770 0.15863 0.58913 0.05100
C 	C 	0.28054 0.31989 0.13105 0.08600
C 	C 	0.86307 0.14917 0.60510 0.02500
C 	C 	0.69533 0.29125 0.93254 0.10200
C 	C 	0.80143 0.58913 0.43050 0.05100
C 	C 	0.38757 0.81256 0.12501 -0.04200
C 	C 	0.92477 0.74243 0.98818 -0.07200
C 	C 	0.72217 0.22714 0.79165 -0.04300
C 	C 	0.77360 0.50799 0.44545 0.01400
C 	C 	0.56835 0.64455 0.79260 -0.11300
C 	C 	0.08733 0.87485 0.18318 0.12400
C 	C 	0.68234 0.42477 0.93659 -0.07200
C 	C 	0.18755 0.92499 0.31256 -0.04200
C 	C 	0.21248 0.30833 0.12515 0.12400
C 	C 	0.92499 0.81256 0.68755 -0.04200
C 	C 	0.78735 0.19670 0.63585 -0.00800
C 	C 	0.88757 0.76256 0.57501 -0.04200
C 	C 	0.74785 0.68642 0.71409 -0.09600
C 	C 	0.67829 0.53894 0.38413 -0.05500
C 	C 	0.27783 0.50497 0.56948 -0.04300
C 	C 	0.14917 0.10510 0.36307 0.02500
C 	C 	0.86224 0.20697 0.32685 -0.05400
C 	C 	0.48818 0.56341 0.74575 -0.07200
C 	C 	0.29260 0.72425 0.64805 -0.11300
C 	C 	0.85871 0.76279 0.56746 0.10200
C 	C 	0.42380 0.06835 0.77575 -0.11300
C 	C 	0.61587 0.65481 0.79416 -0.05500
C 	C 	0.22798 0.76861 0.66461 0.35100
C 	C 	0.72640 0.17185 0.73439 0.01400
C 	C 	0.17829 0.38413 0.53894 -0.05500
C 	C 	0.41050 0.30010 0.08160 -0.07800
C 	C 	0.22142 0.82970 0.45772 -0.08500
C 	C 	0.69640 0.10220 0.78620 0.01900
C 	C 	0.50497 0.06948 0.77783 -0.04300
C 	C 	0.22798 0.45937 0.06337 0.35100
C 	C 	0.22640 0.49201 0.55455 0.01400
C 	C 	0.26861 0.54063 0.60400 0.35100
C 	C 	0.14917 0.04407 0.28610 0.02500
C 	C 	0.70265 0.36977 0.37412 0.33900
C 	C 	0.19640 0.78620 0.10220 0.01900
C 	C 	0.96461 0.84473 0.13776 -0.05400
C 	C 	0.18318 0.80833 0.59585 0.12400
C 	C 	0.86224 0.65527 0.03539 -0.05400
C 	C 	0.12907 0.28770 0.19857 0.05100
C 	C 	0.71850 0.32890 0.41840 -0.07800
C 	C 	0.32685 0.70697 0.86224 -0.05400
C 	C 	0.82685 0.86224 0.70697 -0.05400
C 	C 	0.30833 0.62515 0.71248 0.12400
C 	C 	0.22640 0.73439 0.17185 0.01400
C 	C 	0.70265 0.33288 0.82853 0.33900
C 	C 	0.23790 0.34090 0.51280 0.37600
C 	C 	0.79165 0.06451 0.56948 -0.04300
C 	C 	0.37485 0.78752 0.19167 0.12400
C 	C 	0.04407 0.25797 0.89490 0.02500
C 	C 	0.37412 0.86977 0.70265 0.33900
C 	C 	0.41840 0.58950 0.19990 -0.07800
C 	C 	0.69533 0.40408 0.26279 0.10200
C 	C 	0.28120 0.56590 0.18990 -0.02200
C 	C 	0.64917 0.28610 0.04407 0.02500
C 	C 	0.86977 0.66712 0.49565 0.33900
C 	C 	0.70697 0.34473 0.38012 -0.05400
C 	C 	0.25215 0.31358 0.28591 -0.09600
C 	C 	0.11587 0.79416 0.65481 -0.05500
C 	C 	0.54407 0.64917 0.78610 0.02500
C 	C 	0.21530 0.78120 0.09130 -0.02200
C 	C 	0.09065 0.80330 0.43915 -0.00800
C 	C 	0.05455 0.22640 0.99201 0.01400
C 	C 	0.89780 0.71380 0.80360 0.01900
C 	C 	0.13693 0.28610 0.24203 0.02500
C 	C 	0.14949 0.86895 0.18884 0.08600
C 	C 	0.10481 0.22089 0.29342 0.09300
C 	C 	0.62400 0.93410 0.21530 -0.02200
C 	C 	0.50435 0.67147 0.87412 0.33900
C 	C 	0.80833 0.71248 0.62515 0.12400
C 	C 	0.56341 0.31766 0.07523 -0.07200
C 	C 	0.13935 0.84519 0.46106 -0.05500
C 	C 	0.14455 0.06835 0.29260 -0.11300
C 	C 	0.59130 0.21530 0.28120 -0.02200
C 	C 	0.17030 0.04228 0.27858 -0.08500
C 	C 	0.32890 0.41050 0.61040 -0.07800
C 	C 	0.31600 0.60220 0.90580 0.01900
C 	C 	0.31139 0.38392 0.10481 0.09300
C 	C 	0.25757 0.51182 0.57523 -0.07200
C 	C 	0.26210 0.77490 0.10300 0.37600
C 	C 	0.28470 0.37600 0.56590 -0.02200
C 	C 	0.82970 0.87198 0.60828 -0.08500
C 	C 	0.36977 0.87412 0.20265 0.33900
C 	C 	0.22142 0.39172 0.26370 -0.08500
C 	C 	0.74203 0.13693 0.78610 0.02500
C 	C 	0.43254 0.69533 0.79125 0.10200
C 	C 	0.65150 0.56085 0.36415 -0.00800
C 	C 	0.90415 0.81682 0.69167 0.12400
C 	C 	0.40935 0.56085 0.19670 -0.00800
C 	C 	0.43165 0.07620 0.72425 -0.11300
C 	C 	0.43050 0.34137 0.12907 0.05100
C 	C 	0.11040 0.78150 0.69990 -0.07800
C 	C 	0.92747 0.20658 0.81139 0.09300
C 	C 	0.30360 0.89780 0.21380 0.01900
C 	C 	0.93549 0.93052 0.70835 -0.04300
C 	C 	0.21946 0.86895 0.68011 0.08600
C 	C 	0.13776 0.34473 0.96461 -0.05400
C 	C 	0.04063 0.27202 0.43663 0.35100
C 	C 	0.45772 0.12802 0.73630 -0.08500
C 	C 	0.10510 0.24203 0.95593 0.02500
C 	C 	0.43746 0.67185 0.94545 0.01400
C 	C 	0.26370 0.37198 0.54228 -0.08500
C 	C 	0.02188 0.78764 0.56302 0.03000
C 	C 	0.39600 0.95937 0.73139 0.35100
C 	C 	0.08160 0.28150 0.17110 -0.07800
C 	C 	0.06302 0.04114 0.27538 0.03000
C 	C 	0.66712 0.67147 0.79735 0.33900
C 	C 	0.78770 0.62907 0.69857 0.05100
C 	C 	0.62515 0.41267 0.31682 0.12400
C 	C 	0.42499 0.68755 0.81256 -0.04200
C 	C 	0.81358 0.06143 0.52767 -0.09600
C 	C 	0.00497 0.77783 0.06948 -0.04300
C 	C 	0.68234 0.25757 0.24575 -0.07200
C 	C 	0.64805 0.42380 0.85545 -0.11300
C 	C 	0.45886 0.43698 0.22462 0.03000
C 	C 	0.81682 0.62515 0.91267 0.12400
C 	C 	0.20697 0.38012 0.34473 -0.05400
C 	C 	0.12501 0.31256 0.38757 -0.04200
C 	C 	0.85051 0.71946 0.53935 0.08600
C 	C 	0.97812 0.21236 0.43698 0.03000
C 	C 	0.84090 0.73790 0.01280 0.37600
C 	C 	0.71390 0.25797 0.36307 0.02500
C 	C 	0.75757 0.18234 0.74575 -0.07200
C 	C 	0.14129 0.23721 0.43254 0.10200
C 	C 	0.76256 0.07501 0.38757 -0.04200
C 	C 	0.38012 0.53539 0.17315 -0.05400
C 	C 	0.43549 0.72714 0.00497 -0.04300
C 	C 	0.29416 0.67829 0.63935 -0.05500
C 	C 	0.18318 0.37485 0.08733 0.12400
C 	C 	0.66712 0.99565 0.36977 0.33900
C 	C 	0.18861 0.89519 0.61608 0.09300
C 	C 	0.29342 0.72089 0.10481 0.09300
C 	C 	0.25425 0.31766 0.24243 -0.07200
C 	C 	0.22217 0.43052 0.49503 -0.04300
C 	C 	0.09420 0.89780 0.68400 0.01900
C 	C 	0.07620 0.85195 0.64455 -0.11300
C 	C 	0.82815 0.76561 0.77360 0.01400
C 	C 	0.35871 0.56746 0.76279 0.10200
C 	C 	0.71380 0.30360 0.39780 0.01900
C 	C 	0.40415 0.71248 0.08733 0.12400
C 	C 	0.08980 0.30360 0.90580 0.01900
C 	C 	0.88757 0.12501 0.81256 -0.04200
C 	C 	0.97233 0.78591 0.03376 -0.09600
C 	C 	0.18755 0.26256 0.37499 -0.04200
C 	C 	0.48818 0.92477 0.24243 -0.07200
C 	C 	0.53539 0.86224 0.15527 -0.05400
C 	C 	0.29260 0.56835 0.14455 -0.11300
C 	C 	0.52767 0.96624 0.21409 -0.09600
C 	C 	0.71530 0.09130 0.78120 -0.02200
C 	C 	0.26370 0.89172 0.22142 -0.08500
C 	C 	0.77202 0.54063 0.93663 0.35100
C 	C 	0.59592 0.23721 0.80467 0.10200
C 	C 	0.91020 0.21380 0.31600 0.01900
C 	C 	0.77858 0.60828 0.73630 -0.08500
C 	C 	0.62400 0.68990 0.90870 -0.02200
C 	C 	0.62802 0.67030 0.89172 -0.08500
C 	C 	0.86977 0.20265 0.87412 0.33900
C 	C 	0.08913 0.78770 0.65863 0.05100
C 	C 	0.35051 0.81116 0.13105 0.08600
C 	C 	0.70740 0.27575 0.35195 -0.11300
C 	C 	0.69670 0.40935 0.06085 -0.00800
C 	C 	0.49201 0.05455 0.72640 0.01400
C 	C 	0.23139 0.39600 0.45937 0.35100
C 	C 	0.09592 0.80467 0.23721 0.10200
C 	C 	0.78620 0.60220 0.69640 0.01900
C 	C 	0.19670 0.13585 0.28735 -0.00800
C 	C 	0.94545 0.77360 0.00799 0.01400
C 	C 	0.65527 0.53539 0.36224 -0.05400
C 	C 	0.87093 0.71230 0.80143 0.05100
C 	C 	0.93663 0.89600 0.66461 0.35100
C 	C 	0.00435 0.13023 0.83288 0.33900
C 	C 	0.07501 0.18744 0.31245 -0.04200
C 	C 	0.80010 0.91050 0.58160 -0.07800
C 	C 	0.63105 0.28054 0.81989 0.08600
C 	C 	0.14805 0.85545 0.42380 -0.11300
C 	C 	0.71409 0.52767 0.46624 -0.09600
C 	C 	0.72089 0.60481 0.79342 0.09300
C 	C 	0.93052 0.72217 0.99503 -0.04300
C 	C 	0.65910 0.98720 0.26210 0.37600
C 	C 	0.16461 0.22798 0.26861 0.35100
C 	C 	0.73139 0.27202 0.83539 0.35100
C 	C 	0.61243 0.18744 0.87499 -0.04200
C 	C 	0.37093 0.56950 0.15863 0.05100
C 	C 	0.06590 0.78120 0.68990 -0.02200
C 	C 	0.18400 0.09420 0.39780 0.01900
C 	C 	0.10828 0.82970 0.37198 -0.08500
C 	C 	0.43549 0.70835 0.93052 -0.04300
C 	C 	0.43659 0.68234 0.92477 -0.07200
C 	C 	0.67147 0.29735 0.16712 0.33900
C 	C 	0.32815 0.77360 0.76561 0.01400
C 	C 	0.88392 0.07253 0.77911 0.09300
C 	C 	0.25425 0.93659 0.51182 -0.07200
C 	C 	0.69640 0.59420 0.41020 0.01900
C 	C 	0.21236 0.27538 0.23424 0.03000
C 	C 	0.20697 0.82685 0.36224 -0.05400
C 	C 	0.73721 0.09592 0.30467 0.10200
C 	C 	0.83288 0.20265 0.32853 0.33900
C 	C 	0.04407 0.78610 0.64917 0.02500
C 	C 	0.60828 0.23630 0.27858 -0.08500
C 	C 	0.19533 0.93254 0.29125 0.10200
C 	C 	0.18990 0.06590 0.28120 -0.02200
C 	C 	0.47812 0.04114 0.76576 0.03000
C 	C 	0.58160 0.17110 0.28150 -0.07800
C 	C 	0.06085 0.90935 0.69670 -0.00800
C 	C 	0.86895 0.68884 0.64949 0.08600
C 	C 	0.21230 0.84137 0.41087 0.05100
C 	C 	0.15863 0.08913 0.28770 0.05100
C 	C 	0.27858 0.54228 0.17030 -0.08500
C 	C 	0.93915 0.09065 0.30330 -0.00800
C 	C 	0.13023 0.33288 0.50435 0.33900
C 	C 	0.47812 0.43698 0.21236 0.03000
C 	C 	0.28764 0.76576 0.72462 0.03000
C 	C 	0.28752 0.87485 0.69167 0.12400
C 	C 	0.27575 0.85195 0.20740 -0.11300
C 	C 	0.17110 0.78150 0.08160 -0.07800
C 	C 	0.93746 0.94545 0.67185 0.01400
C 	C 	0.78054 0.64949 0.96065 0.08600
C 	C 	0.27490 0.76210 0.60300 0.37600
C 	C 	0.40580 0.08980 0.80360 0.01900
C 	C 	0.81116 0.18011 0.46065 0.08600
C 	C 	0.87600 0.09130 0.31010 -0.02200
C 	C 	0.21236 0.93698 0.47812 0.03000
C 	C 	0.59065 0.15150 0.28735 -0.00800
C 	C 	0.78591 0.25215 0.81358 -0.09600
C 	C 	0.91020 0.69640 0.09420 0.01900
C 	C 	0.92499 0.11243 0.73744 -0.04200
C 	C 	0.78764 0.72462 0.76576 0.03000
C 	C 	0.18234 0.93659 0.42477 -0.07200
C 	C 	0.68400 0.28620 0.08980 0.01900
C 	C 	0.76279 0.06746 0.35871 0.10200
C 	C 	0.20584 0.36065 0.32171 -0.05500
C 	C 	0.29342 0.57253 0.68861 0.09300
C 	C 	0.09585 0.91267 0.28752 0.12400
C 	C 	0.45593 0.10510 0.74203 0.02500
C 	C 	0.64949 0.18884 0.86895 0.08600
C 	C 	0.37198 0.04228 0.76370 -0.08500
C 	C 	0.85051 0.13105 0.81116 0.08600
C 	C 	0.60220 0.19640 0.28620 0.01900
C 	C 	0.43698 0.72462 0.95886 0.03000
C 	C 	0.35195 0.57620 0.14455 -0.11300
C 	C 	0.36065 0.82171 0.70584 -0.05500
C 	C 	0.81766 0.75425 0.74243 -0.07200
C 	C 	0.87198 0.76370 0.04228 -0.08500
C 	C 	0.76279 0.69533 0.90408 0.10200
C 	C 	0.93254 0.79125 0.69533 0.10200
C 	C 	0.72142 0.26370 0.39172 -0.08500
C 	C 	0.27286 0.49503 0.06451 -0.04300
C 	C 	0.31600 0.71380 0.91020 0.01900
C 	C 	0.95886 0.73424 0.02188 0.03000
C 	C 	0.79416 0.63935 0.67829 -0.05500
C 	C 	0.06451 0.06948 0.29165 -0.04300
C 	C 	0.84850 0.63585 0.43915 -0.00800
C 	C 	0.71880 0.43410 0.81010 -0.02200
C 	C 	0.63105 0.35051 0.31116 0.08600
C 	C 	0.06590 0.28470 0.87600 -0.02200
C 	C 	0.24575 0.48818 0.06341 -0.07200
C 	C 	0.05455 0.82815 0.56254 0.01400
C 	C 	0.16712 0.36977 0.99565 0.33900
C 	C 	0.54228 0.67030 0.77858 -0.08500
C 	C 	0.91087 0.21230 0.34137 0.05100
C 	C 	0.09585 0.18318 0.30833 0.12400
C 	C 	0.58913 0.93050 0.30143 0.05100
C 	C 	0.19857 0.41087 0.56950 0.05100
C 	C 	0.21850 0.80010 0.38960 -0.07800
C 	C 	0.03935 0.18884 0.31989 0.08600
C 	C 	0.15150 0.78735 0.09065 -0.00800
C 	C 	0.73139 0.45937 0.39600 0.35100
C 	C 	0.89780 0.18400 0.59420 0.01900
C 	C 	0.78120 0.18990 0.56590 -0.02200
C 	C 	0.10510 0.86307 0.64917 0.02500
C 	C 	0.81116 0.63105 0.85051 0.08600
C 	C 	0.72798 0.66461 0.76861 0.35100
C 	C 	0.26561 0.32815 0.27360 0.01400
C 	C 	0.11608 0.92747 0.22089 0.09300
C 	C 	0.34473 0.88012 0.20697 -0.05400
C 	C 	0.31989 0.68884 0.03935 0.08600
C 	C 	0.98720 0.76210 0.15910 0.37600
C 	C 	0.62501 0.23744 0.81245 -0.04200
C 	C 	0.46065 0.68011 0.81116 0.08600
C 	C 	0.73744 0.61243 0.92499 -0.04200
C 	C 	0.39600 0.43663 0.16461 0.35100
C 	C 	0.43050 0.08913 0.80143 0.05100
C 	C 	0.06451 0.99503 0.27286 -0.04300
C 	C 	0.73424 0.21236 0.77538 0.03000
C 	C 	0.43659 0.75425 0.01182 -0.07200
C 	C 	0.60400 0.04063 0.26861 0.35100
C 	C 	0.02188 0.23424 0.95886 0.03000
C 	C 	0.12802 0.23630 0.95772 -0.08500
C 	C 	0.70740 0.43165 0.85545 -0.11300
C 	C 	0.32685 0.61988 0.96461 -0.05400
C 	C 	0.95593 0.74203 0.10510 0.02500
C 	C 	0.43857 0.75215 0.96624 -0.09600
C 	C 	0.56948 0.00497 0.27783 -0.04300
C 	C 	0.68755 0.37499 0.26256 -0.04200
C 	C 	0.93549 0.00497 0.72714 -0.04300
C 	C 	0.53376 0.97233 0.28591 -0.09600
C 	C 	0.20875 0.40408 0.14129 0.10200
C 	C 	0.76561 0.49201 0.93746 0.01400
C 	C 	0.65863 0.28770 0.08913 0.05100
C 	C 	0.38413 0.03894 0.67829 -0.05500
C 	C 	0.99565 0.12588 0.32853 0.33900
C 	C 	0.81010 0.87600 0.59130 -0.02200
C 	C 	0.17185 0.93746 0.44545 0.01400
C 	C 	0.57523 0.56341 0.81766 -0.07200
C 	C 	0.07501 0.88757 0.26256 -0.04200
C 	C 	0.84090 0.10300 0.32810 0.37600
C 	C 	0.13776 0.79303 0.67315 -0.05400
C 	C 	0.22510 0.82810 0.48720 0.37600
C 	C 	0.24243 0.81766 0.25425 -0.07200
C 	C 	0.93857 0.96624 0.75215 -0.09600
C 	C 	0.07523 0.81766 0.56341 -0.07200
C 	C 	0.74243 0.48818 0.42477 -0.07200
C 	C 	0.79735 0.62588 0.63023 0.33900
C 	C 	0.58980 0.90580 0.30360 0.01900
C 	C 	0.14129 0.90408 0.20875 0.10200
C 	C 	0.04228 0.77858 0.67030 -0.08500
C 	C 	0.18642 0.93857 0.47233 -0.09600
C 	C 	0.65863 0.37093 0.06950 0.05100
C 	C 	0.29125 0.43254 0.19533 0.10200
C 	C 	0.68861 0.61608 0.89519 0.09300
C 	C 	0.34090 0.32810 0.10300 0.37600
C 	C 	0.93698 0.97812 0.71236 0.03000
C 	C 	0.26256 0.38757 0.07501 -0.04200
C 	C 	0.12907 0.84137 0.43050 0.05100
C 	C 	0.27858 0.73630 0.60828 -0.08500
C 	C 	0.61988 0.46461 0.82685 -0.05400
C 	C 	0.79260 0.14455 0.56835 -0.11300
C 	C 	0.72089 0.11608 0.42747 0.09300
C 	C 	0.56950 0.65863 0.87093 0.05100
C 	C 	0.13105 0.31116 0.35051 0.08600
C 	C 	0.32970 0.60828 0.87198 -0.08500
C 	C 	0.24203 0.78610 0.13693 0.02500
C 	C 	0.68318 0.08733 0.37485 0.12400
C 	C 	0.28150 0.61040 0.19990 -0.07800
C 	C 	0.82815 0.06254 0.55455 0.01400
C 	C 	0.82970 0.95772 0.72142 -0.08500
C 	C 	0.79303 0.61988 0.65527 -0.05400
C 	C 	0.77490 0.17190 0.51280 0.37600
C 	C 	0.07253 0.79342 0.18861 0.09300
C 	C 	0.06835 0.79260 0.64455 -0.11300
C 	C 	0.49503 0.93052 0.22217 -0.04300
C 	C 	0.83539 0.06337 0.60400 0.35100
C 	C 	0.88413 0.67829 0.03894 -0.05500
C 	C 	0.02767 0.81358 0.56143 -0.09600
C 	C 	0.21390 0.36307 0.25797 0.02500
C 	C 	0.20740 0.35195 0.27575 -0.11300
C 	C 	0.63585 0.93915 0.34850 -0.00800
C 	C 	0.21946 0.35051 0.03935 0.08600
C 	C 	0.61988 0.15527 0.29303 -0.05400
C 	C 	0.85195 0.14455 0.57620 -0.11300
C 	C 	0.25757 0.74575 0.18234 -0.07200
C 	C 	0.18011 0.96065 0.31116 0.08600
C 	C 	0.21230 0.37093 0.30143 0.05100
C 	C 	0.23439 0.72640 0.67185 0.01400
C 	C 	0.18884 0.36895 0.14949 0.08600
C 	C 	0.28591 0.81358 0.25215 -0.09600
C 	C 	0.93050 0.80143 0.08913 0.05100
C 	C 	0.19670 0.06085 0.40935 -0.00800
C 	C 	0.43663 0.66461 0.89600 0.35100
C 	C 	0.50435 0.83288 0.13023 0.33900
C 	C 	0.78591 0.53376 0.47233 -0.09600
C 	C 	0.43663 0.77202 0.04063 0.35100
C 	C 	0.62588 0.13023 0.29735 0.33900
C 	C 	0.87093 0.15863 0.56950 0.05100
C 	C 	0.72798 0.06337 0.45937 0.35100
C 	C 	0.56835 0.92380 0.27575 -0.11300
C 	C 	0.13693 0.85083 0.39490 0.02500
C 	C 	0.56302 0.27538 0.04114 0.03000
C 	C 	0.79125 0.59592 0.85871 0.10200
C 	C 	0.60510 0.64917 0.86307 0.02500
C 	C 	0.37600 0.31010 0.09130 -0.02200
C 	C 	0.21265 0.40935 0.34850 -0.00800
C 	C 	0.08913 0.30143 0.93050 0.05100
C 	C 	0.69167 0.37485 0.28752 0.12400
C 	C 	0.28735 0.65150 0.59065 -0.00800
C 	C 	0.29735 0.66712 0.17147 0.33900
C 	C 	0.23630 0.45772 0.62802 -0.08500
C 	C 	0.21850 0.41840 0.32890 -0.07800
C 	C 	0.04114 0.26576 0.97812 0.03000
C 	C 	0.62501 0.38757 0.31256 -0.04200
C 	C 	0.17147 0.16712 0.29735 0.33900
C 	C 	0.59065 0.43915 0.80330 -0.00800
C 	C 	0.76210 0.10300 0.77490 0.37600
C 	C 	0.71850 0.38960 0.80010 -0.07800
C 	C 	0.73630 0.62802 0.45772 -0.08500
C 	C 	0.46624 0.02767 0.71409 -0.09600
C 	C 	0.43915 0.30330 0.09065 -0.00800
C 	C 	0.15481 0.03894 0.36065 -0.05500
C 	C 	0.07523 0.25757 0.01182 -0.07200
C 	C 	0.59420 0.91020 0.19640 0.01900
C 	C 	0.93857 0.97233 0.68642 -0.09600
C 	C 	0.20835 0.93549 0.43052 -0.04300
C 	C 	0.17829 0.79416 0.13935 -0.05500
C 	C 	0.90408 0.19533 0.76279 0.10200
C 	C 	0.18642 0.24785 0.21409 -0.09600
C 	C 	0.85083 0.95593 0.71390 0.02500
C 	C 	0.88392 0.81139 0.60481 0.09300
C 	C 	0.34137 0.62907 0.93050 0.05100
C 	C 	0.79735 0.17147 0.66712 0.33900
C 	C 	0.56590 0.87600 0.28470 -0.02200
C 	C 	0.56254 0.32815 0.05455 0.01400
C 	C 	0.83539 0.77202 0.73139 0.35100
C 	C 	0.26861 0.72798 0.16461 0.35100
C 	C 	0.64805 0.22425 0.29260 -0.11300
C 	C 	0.03935 0.85051 0.21946 0.08600
C 	C 	0.25797 0.39490 0.54407 0.02500
C 	C 	0.76576 0.54114 0.47812 0.03000
C 	C 	0.26256 0.87499 0.68755 -0.04200
C 	C 	0.31256 0.42499 0.18755 -0.04200
C 	C 	0.82890 0.61040 0.41050 -0.07800
C 	C 	0.77575 0.56835 0.42380 -0.11300
C 	C 	0.77286 0.06451 0.49503 -0.04300
C 	C 	0.46461 0.13776 0.84473 -0.05400
C 	C 	0.28610 0.54407 0.14917 0.02500
C 	C 	0.19167 0.90415 0.31682 0.12400
C 	C 	0.81010 0.93410 0.71880 -0.02200
C 	C 	0.30330 0.59065 0.93915 -0.00800
C 	C 	0.70658 0.42747 0.31139 0.09300
C 	C 	0.64455 0.29260 0.06835 -0.11300
C 	C 	0.01280 0.23790 0.84090 0.37600
C 	C 	0.19990 0.08950 0.41840 -0.07800
C 	C 	0.15481 0.11587 0.29416 -0.05500
C 	C 	0.64455 0.35195 0.07620 -0.11300
C 	C 	0.17147 0.00435 0.37412 0.33900
C 	C 	0.79303 0.17315 0.63776 -0.05400
C 	C 	0.23424 0.77538 0.21236 0.03000
C 	C 	0.21530 0.43410 0.62400 -0.02200
C 	C 	0.72142 0.45772 0.82970 -0.08500
C 	C 	0.77202 0.23139 0.33539 0.35100
C 	C 	0.07620 0.22425 0.93165 -0.11300
C 	C 	0.14805 0.29260 0.22425 -0.11300
C 	C 	0.39519 0.70658 0.77911 0.09300
C 	C 	0.49565 0.32853 0.12588 0.33900
C 	C 	0.63585 0.69670 0.78735 -0.00800
C 	C 	0.38960 0.30010 0.21850 -0.07800
C 	C 	0.77575 0.20740 0.85195 -0.11300
C 	C 	0.22462 0.28764 0.26576 0.03000
C 	C 	0.53376 0.56143 0.74785 -0.09600
C 	C 	0.74203 0.60510 0.45593 0.02500
C 	C 	0.89519 0.11608 0.68861 0.09300
C 	C 	0.36224 0.32685 0.20697 -0.05400
C 	C 	0.35545 0.64805 0.92380 -0.11300
C 	C 	0.68642 0.21409 0.24785 -0.09600
C 	C 	0.08980 0.78620 0.68400 0.01900
C 	C 	0.79342 0.10481 0.72089 0.09300
C 	C 	0.31358 0.78591 0.75215 -0.09600
C 	C 	0.93746 0.99201 0.76561 0.01400
C 	C 	0.96065 0.14949 0.78054 0.08600
C 	C 	0.68744 0.11243 0.37499 -0.04200
C 	C 	0.88960 0.67110 0.08950 -0.07800
C 	C 	0.70835 0.27783 0.27286 -0.04300
C 	C 	0.67190 0.39700 0.15910 0.37600
C 	C 	0.20584 0.84519 0.38413 -0.05500
C 	C 	0.12588 0.29735 0.13023 0.33900
C 	C 	0.86065 0.15481 0.53894 -0.05500
C 	C 	0.96624 0.25215 0.43857 -0.09600
C 	C 	0.26279 0.35871 0.06746 0.10200
C 	C 	0.01182 0.75757 0.07523 -0.07200
C 	C 	0.22510 0.39700 0.23790 0.37600
C 	C 	0.06948 0.79165 0.56451 -0.04300
C 	C 	0.19990 0.11040 0.28150 -0.07800
C 	C 	0.04114 0.77538 0.56302 0.03000
C 	C 	0.89172 0.72142 0.76370 -0.08500
C 	C 	0.37499 0.61243 0.68744 -0.04200
C 	C 	0.39490 0.04407 0.75797 0.02500
C 	C 	0.42477 0.43659 0.18234 -0.07200
C 	C 	0.42499 0.73744 0.11243 -0.04200
C 	C 	0.71380 0.41020 0.81600 0.01900
C 	C 	0.28054 0.96065 0.64949 0.08600
C 	C 	0.68642 0.47233 0.93857 -0.09600
C 	C 	0.54114 0.97812 0.26576 0.03000
C 	C 	0.70875 0.56746 0.80467 0.10200
C 	C 	0.18744 0.37499 0.11243 -0.04200
C 	C 	0.27286 0.77783 0.70835 -0.04300
C 	C 	0.06337 0.10400 0.33539 0.35100
C 	C 	0.63693 0.39490 0.85083 0.02500
C 	C 	0.30330 0.71265 0.86415 -0.00800
C 	C 	0.99201 0.72640 0.05455 0.01400
C 	C 	0.75425 0.51182 0.93659 -0.07200
C 	C 	0.41020 0.09420 0.69640 0.01900
C 	C 	0.65481 0.29416 0.11587 -0.05500
C 	C 	0.23439 0.50799 0.06254 0.01400
C 	C 	0.60220 0.40580 0.81600 0.01900
C 	C 	0.43410 0.31010 0.21880 -0.02200
C 	C 	0.30833 0.68318 0.09585 0.12400
C 	C 	0.68318 0.59585 0.80833 0.12400
C 	C 	0.68755 0.31256 0.92499 -0.04200
C 	C 	0.06143 0.02767 0.31358 -0.09600
C 	C 	0.20835 0.27286 0.27783 -0.04300
C 	C 	0.77911 0.57253 0.88392 0.09300
C 	C 	0.27911 0.39519 0.20658 0.09300
C 	C 	0.56143 0.24785 0.03376 -0.09600
C 	C 	0.94545 0.17185 0.43746 0.01400
C 	C 	0.78752 0.09585 0.41267 0.12400
C 	C 	0.27202 0.93663 0.54063 0.35100
C 	C 	0.41020 0.31600 0.21380 0.01900
C 	C 	0.87412 0.70265 0.86977 0.33900
C 	C 	0.96106 0.82171 0.11587 -0.05500
C 	C 	0.36224 0.03539 0.65527 -0.05400
C 	C 	0.23721 0.30467 0.09592 0.10200
C 	C 	0.27575 0.42380 0.56835 -0.11300
C 	C 	0.61040 0.91050 0.32890 -0.07800
C 	C 	0.58913 0.65863 0.78770 0.05100
C 	C 	0.33539 0.73139 0.77202 0.35100
C 	C 	0.19167 0.28752 0.37485 0.12400
C 	C 	0.59420 0.68400 0.89780 0.01900
C 	C 	0.87600 0.78470 0.06590 -0.02200
C 	C 	0.32853 0.70265 0.83288 0.33900
C 	C 	0.23139 0.83539 0.27202 0.35100
C 	C 	0.08950 0.91840 0.69990 -0.07800
C 	C 	0.10481 0.88392 0.31139 0.09300
C 	C 	0.57253 0.18861 0.79342 0.09300
C 	C 	0.26210 0.48720 0.65910 0.37600
C 	C 	0.32853 0.62588 0.99565 0.33900
C 	C 	0.73630 0.10828 0.77858 -0.08500
C 	C 	0.99503 0.77286 0.56451 -0.04300
C 	C 	0.60481 0.29342 0.22089 0.09300
C 	C 	0.85545 0.92380 0.64805 -0.11300
C 	C 	0.04228 0.26370 0.87198 -0.08500
C 	C 	0.31116 0.46065 0.18011 0.08600
C 	C 	0.27783 0.77286 0.20835 -0.04300
C 	C 	0.39172 0.62802 0.17030 -0.08500
C 	C 	0.80360 0.21380 0.89780 0.01900
C 	C 	0.93659 0.01182 0.75425 -0.07200
C 	C 	0.67190 0.27490 0.01280 0.37600
C 	C 	0.45593 0.35083 0.21390 0.02500
C 	C 	0.37600 0.06590 0.78470 -0.02200
C 	C 	0.54063 0.10400 0.76861 0.35100
C 	C 	0.75797 0.21390 0.86307 0.02500
C 	C 	0.67030 0.39172 0.12802 -0.08500
C 	C 	0.27360 0.44545 0.50799 0.01400
C 	C 	0.56746 0.26279 0.85871 0.10200
C 	C 	0.27911 0.88392 0.57253 0.09300
C 	C 	0.76256 0.68755 0.87499 -0.04200
C 	C 	0.29303 0.65527 0.61988 -0.05400
C 	C 	0.69990 0.28150 0.11040 -0.07800
C 	C 	0.76861 0.16461 0.72798 0.35100
C 	C 	0.58733 0.18318 0.87485 0.12400
C 	C 	0.58733 0.40415 0.21248 0.12400
C 	C 	0.09130 0.81010 0.37600 -0.02200
C 	C 	0.22714 0.93549 0.50497 -0.04300
C 	C 	0.72462 0.26576 0.28764 0.03000
C 	C 	0.13023 0.79735 0.12588 0.33900
C 	C 	0.36977 0.49565 0.66712 0.33900
C 	C 	0.82853 0.99565 0.62588 0.33900
C 	C 	0.17185 0.23439 0.22640 0.01400
C 	C 	0.72510 0.48720 0.82810 0.37600
C 	C 	0.71236 0.47812 0.93698 0.03000
C 	C 	0.85871 0.09592 0.79125 0.10200
C 	C 	0.31989 0.63105 0.78054 0.08600
C 	C 	0.67030 0.27858 0.04228 -0.08500
C 	C 	0.62907 0.43050 0.84137 0.05100
C 	C 	0.78150 0.19990 0.61040 -0.07800
C 	C 	0.91050 0.82890 0.11040 -0.07800
C 	C 	0.86415 0.21265 0.30330 -0.00800
C 	C 	0.12802 0.89172 0.67030 -0.08500
C 	C 	0.65527 0.11988 0.79303 -0.05400
C 	C 	0.89519 0.77911 0.70658 0.09300
C 	C 	0.37093 0.80143 0.71230 0.05100
C 	C 	0.23630 0.77858 0.10828 -0.08500
C 	C 	0.18744 0.81245 0.57501 -0.04200
C 	C 	0.00497 0.22714 0.43549 -0.04300
C 	C 	0.27490 0.51280 0.17190 0.37600
C 	C 	0.04063 0.76861 0.10400 0.35100
C 	C 	0.67110 0.08160 0.78150 -0.07800
C 	C 	0.84850 0.21265 0.90935 -0.00800
C 	C 	0.93052 0.20835 0.43549 -0.04300
C 	C 	0.22425 0.79260 0.14805 -0.11300
C 	C 	0.38413 0.34519 0.20584 -0.05500
C 	C 	0.82171 0.20584 0.86065 -0.05500
C 	C 	0.71409 0.18642 0.74785 -0.09600
C 	C 	0.48720 0.32810 0.22510 0.37600
C 	C 	0.56302 0.28764 0.02188 0.03000
C 	C 	0.54228 0.87198 0.26370 -0.08500
C 	C 	0.63693 0.24203 0.28610 0.02500
C 	C 	0.87485 0.68318 0.58733 0.12400
C 	C 	0.77286 0.70835 0.77783 -0.04300
C 	C 	0.27202 0.33539 0.23139 0.35100
C 	C 	0.37198 0.32970 0.10828 -0.08500
C 	C 	0.59585 0.28752 0.91267 0.12400
C 	C 	0.34137 0.71230 0.91087 0.05100
C 	C 	0.93050 0.12907 0.34137 0.05100
C 	C 	0.30467 0.59592 0.73721 0.10200
C 	C 	0.23790 0.89700 0.22510 0.37600
C 	C 	0.71946 0.68011 0.86895 0.08600
C 	C 	0.29125 0.85871 0.59592 0.10200
C 	C 	0.35083 0.63693 0.89490 0.02500
C 	C 	0.40935 0.84850 0.71265 -0.00800
C 	C 	0.65150 0.09065 0.78735 -0.00800
C 	C 	0.93254 0.14129 0.73721 0.10200
C 	C 	0.79260 0.64805 0.72425 -0.11300
C 	C 	0.46065 0.78054 0.14949 0.08600
C 	C 	0.22714 0.29165 0.22217 -0.04300
C 	C 	0.69857 0.12907 0.78770 0.05100
C 	C 	0.49503 0.56451 0.77286 -0.04300
C 	C 	0.81256 0.62501 0.88757 -0.04200
C 	C 	0.88012 0.70697 0.84473 -0.05400
C 	C 	0.68990 0.28120 0.06590 -0.02200
C 	C 	0.78620 0.18400 0.58980 0.01900
C 	C 	0.81766 0.06341 0.57523 -0.07200
C 	C 	0.81256 0.18755 0.42499 -0.04200
C 	C 	0.78150 0.58160 0.67110 -0.07800
C 	C 	0.28620 0.58980 0.18400 0.01900
C 	C 	0.90408 0.70875 0.64129 0.10200
C 	C 	0.68400 0.39780 0.09420 0.01900
C 	C 	0.88960 0.21850 0.30010 -0.07800
C 	C 	0.15910 0.26210 0.98720 0.37600
C 	C 	0.76861 0.60400 0.54063 0.35100
C 	C 	0.90580 0.80360 0.08980 0.01900
C 	C 	0.93659 0.92477 0.68234 -0.07200
C 	C 	0.71230 0.30143 0.37093 0.05100
C 	C 	0.64129 0.20875 0.90408 0.10200
C 	C 	0.33539 0.60400 0.06337 0.35100
C 	C 	0.58950 0.88960 0.17110 -0.07800
C 	C 	0.72714 0.22217 0.29165 -0.04300
C 	C 	0.68884 0.53935 0.81989 0.08600
C 	C 	0.67147 0.37412 0.00435 0.33900
C 	C 	0.03376 0.28591 0.97233 -0.09600
C 	C 	0.77858 0.17030 0.54228 -0.08500
C 	C 	0.93410 0.71530 0.12400 -0.02200
C 	C 	0.73439 0.67185 0.72640 0.01400
C 	C 	0.80010 0.88960 0.71850 -0.07800
C 	C 	0.82890 0.21850 0.91840 -0.07800
C 	C 	0.70697 0.36224 0.82685 -0.05400
C 	C 	0.11988 0.29303 0.15527 -0.05400
C 	C 	0.06950 0.19857 0.91087 0.05100
C 	C 	0.92477 0.18234 0.43659 -0.07200
C 	C 	0.56337 0.33539 0.10400 0.35100
C 	C 	0.95937 0.72798 0.56337 0.35100
C 	C 	0.28470 0.90870 0.21880 -0.02200
C 	C 	0.84519 0.88413 0.70584 -0.05500
C 	C 	0.24575 0.75757 0.68234 -0.07200
C 	C 	0.62907 0.19857 0.28770 0.05100
C 	C 	0.60828 0.37198 0.82970 -0.08500
C 	C 	0.72510 0.23790 0.39700 0.37600
C 	C 	0.31245 0.68744 0.07501 -0.04200
C 	C 	0.56254 0.23439 0.00799 0.01400
C 	C 	0.38392 0.77911 0.07253 0.09300
C 	C 	0.09065 0.28735 0.15150 -0.00800
C 	C 	0.74785 0.06143 0.53376 -0.09600
C 	C 	0.67315 0.29303 0.13776 -0.05400
C 	C 	0.49565 0.16712 0.86977 0.33900
C 	C 	0.58950 0.69990 0.91840 -0.07800
C 	C 	0.99503 0.22217 0.93052 -0.04300
C 	C 	0.89490 0.75797 0.04407 0.02500
C 	C 	0.19640 0.41020 0.59420 0.01900
C 	C 	0.24785 0.71409 0.68642 -0.09600
C 	C 	0.77538 0.71236 0.73424 0.03000
C 	C 	0.29416 0.61587 0.15481 -0.05500
C 	C 	0.81989 0.03935 0.68884 0.08600
C 	C 	0.12515 0.80833 0.21248 0.12400
C 	C 	0.12588 0.82853 0.49565 0.33900
C 	C 	0.13105 0.81989 0.28054 0.08600
C 	C 	0.48720 0.15910 0.76210 0.37600
C 	C 	0.44545 0.00799 0.77360 0.01400
C 	C 	0.09592 0.29125 0.35871 0.10200
C 	C 	0.70658 0.27911 0.89519 0.09300
C 	C 	0.28591 0.47233 0.53376 -0.09600
C 	C 	0.90935 0.71265 0.84850 -0.00800
C 	C 	0.32810 0.60300 0.84090 0.37600
C 	C 	0.82171 0.61587 0.46106 -0.05500
C 	C 	0.43857 0.68642 0.97233 -0.09600
C 	C 	0.80833 0.09585 0.68318 0.12400
C 	C 	0.76370 0.54228 0.37198 -0.08500
C 	C 	0.43915 0.13585 0.84850 -0.00800
C 	C 	0.73790 0.51280 0.34090 0.37600
C 	C 	0.88012 0.17315 0.53539 -0.05400
C 	C 	0.11243 0.87499 0.18744 -0.04200
C 	C 	0.31116 0.85051 0.63105 0.08600
C 	C 	0.81989 0.78054 0.63105 0.08600
C 	C 	0.77360 0.26561 0.82815 0.01400
C 	C 	0.77490 0.60300 0.76210 0.37600
C 	C 	0.76370 0.22142 0.89172 -0.08500
C 	C 	0.98818 0.24243 0.92477 -0.07200
C 	C 	0.67829 0.13935 0.79416 -0.05500
C 	C 	0.95772 0.22142 0.32970 -0.08500
C 	C 	0.13935 0.29416 0.17829 -0.05500
C 	C 	0.52188 0.95886 0.23424 0.03000
C 	C 	0.61608 0.22089 0.92747 0.09300
C 	C 	0.81600 0.90580 0.60220 0.01900
C 	C 	0.56451 0.27286 0.99503 -0.04300
C 	C 	0.39780 0.59420 0.18400 0.01900
C 	C 	0.77911 0.20658 0.39519 0.09300
C 	C 	0.03894 0.17829 0.88413 -0.05500
C 	C 	0.06143 0.03376 0.24785 -0.09600
C 	C 	0.79416 0.15481 0.61587 -0.05500
C 	C 	0.91267 0.78752 0.59585 0.12400
C 	C 	0.88413 0.20584 0.34519 -0.05500
C 	C 	0.19857 0.78770 0.12907 0.05100
C 	C 	0.80467 0.73721 0.59592 0.10200
C 	C 	0.62588 0.49565 0.82853 0.33900
C 	C 	0.20265 0.37412 0.36977 0.33900
C 	C 	0.39490 0.35083 0.13693 0.02500
C 	C 	0.56590 0.68990 0.78120 -0.02200
C 	C 	0.80360 0.58980 0.40580 0.01900
C 	C 	0.86415 0.65150 0.06085 -0.00800
C 	C 	0.34519 0.63935 0.96106 -0.05500
C 	C 	0.17315 0.13776 0.29303 -0.05400
C 	C 	0.93165 0.20740 0.35545 -0.11300
C 	C 	0.11988 0.82685 0.46461 -0.05400
C 	C 	0.21390 0.85083 0.45593 0.02500
C 	C 	0.97812 0.76576 0.04114 0.03000
C 	C 	0.68011 0.31116 0.96065 0.08600
C 	C 	0.70835 0.43052 0.93549 -0.04300
C 	C 	0.21380 0.81600 0.41020 0.01900
C 	C 	0.31682 0.91267 0.62515 0.12400
C 	C 	0.39519 0.68861 0.11608 0.09300
C 	C 	0.43746 0.76561 0.99201 0.01400
C 	C 	0.73439 0.06254 0.50799 0.01400
C 	C 	0.10220 0.28620 0.19640 0.01900
C 	C 	0.18861 0.29342 0.07253 0.09300
C 	C 	0.28770 0.58913 0.15863 0.05100
C 	C 	0.99565 0.86977 0.16712 0.33900
C 	C 	0.97233 0.18642 0.43857 -0.09600
C 	C 	0.20658 0.89519 0.27911 0.09300
C 	C 	0.12515 0.31682 0.41267 0.12400
C 	C 	0.26279 0.90408 0.69533 0.10200
C 	C 	0.77783 0.20835 0.77286 -0.04300
C 	C 	0.36307 0.60510 0.14917 0.02500
C 	C 	0.20740 0.85545 0.43165 -0.11300
C 	C 	0.58980 0.68400 0.78620 0.01900
C 	C 	0.64917 0.36307 0.10510 0.02500
C 	C 	0.71248 0.12515 0.30833 0.12400
C 	C 	0.20875 0.80467 0.56746 0.10200
C 	C 	0.00799 0.73439 0.56254 0.01400
C 	C 	0.06950 0.87093 0.65863 0.05100
C 	C 	0.91050 0.08160 0.30010 -0.07800
C 	C 	0.12501 0.81245 0.23744 -0.04200
C 	C 	0.89490 0.13693 0.35083 0.02500
C 	C 	0.60300 0.26210 0.27490 0.37600
C 	C 	0.37499 0.76256 0.18755 -0.04200
C 	C 	0.03894 0.86065 0.65481 -0.05500
C 	C 	0.43698 0.71236 0.97812 0.03000
C 	C 	0.91087 0.69857 0.06950 0.05100
C 	C 	0.57501 0.31245 0.18744 -0.04200
C 	C 	0.90935 0.19670 0.56085 -0.00800
C 	C 	0.36307 0.75797 0.71390 0.02500
C 	C 	0.45886 0.02188 0.73424 0.03000
C 	C 	0.75797 0.54407 0.39490 0.02500
C 	C 	0.45937 0.56337 0.72798 0.35100
C 	C 	0.46106 0.34519 0.13935 -0.05500
C 	C 	0.34090 0.01280 0.73790 0.37600
C 	C 	0.21880 0.81010 0.43410 -0.02200
C 	C 	0.26576 0.47812 0.54114 0.03000
C 	C 	0.18990 0.12400 0.40870 -0.02200
C 	C 	0.78470 0.56590 0.37600 -0.02200
C 	C 	0.39172 0.76370 0.72142 -0.08500
C 	C 	0.57620 0.64455 0.85195 -0.11300
C 	C 	0.59130 0.37600 0.81010 -0.02200
C 	C 	0.47233 0.03376 0.78591 -0.09600
C 	C 	0.44545 0.43746 0.17185 0.01400
C 	C 	0.41267 0.59585 0.78752 0.12400
C 	C 	0.52767 0.56143 0.81358 -0.09600
C 	C 	0.12400 0.21530 0.93410 -0.02200
C 	C 	0.41087 0.34137 0.21230 0.05100
C 	C 	0.39700 0.65910 0.17190 0.37600
C 	C 	0.36895 0.71946 0.18011 0.08600
C 	C 	0.21265 0.80330 0.36415 -0.00800
C 	C 	0.33288 0.32853 0.20265 0.33900
C 	C 	0.85083 0.89490 0.63693 0.02500
C 	C 	0.06746 0.20875 0.30467 0.10200
C 	C 	0.71248 0.58733 0.90415 0.12400
C 	C 	0.14949 0.28054 0.46065 0.08600
C 	C 	0.30467 0.70875 0.06746 0.10200
C 	C 	0.55455 0.99201 0.22640 0.01400
C 	C 	0.34850 0.90935 0.21265 -0.00800
C 	C 	0.71265 0.34850 0.40935 -0.00800
C 	C 	0.91267 0.12515 0.81682 0.12400
C 	C 	0.52188 0.56302 0.78764 0.03000
C 	C 	0.35083 0.71390 0.95593 0.02500
C 	C 	0.98720 0.22510 0.32810 0.37600
C 	C 	0.31010 0.59130 0.87600 -0.02200
C 	C 	0.00799 0.27360 0.94545 0.01400
C 	C 	0.71230 0.41087 0.84137 0.05100
C 	C 	0.41267 0.81682 0.12515 0.12400
C 	C 	0.95886 0.22462 0.43698 0.03000
C 	C 	0.11040 0.32890 0.91050 -0.07800
C 	C 	0.71265 0.36415 0.80330 -0.00800
C 	C 	0.72640 0.55455 0.49201 0.01400
C 	C 	0.72714 0.50497 0.93549 -0.04300
C 	C 	0.65481 0.36065 0.03894 -0.05500
C 	C 	0.31010 0.71880 0.93410 -0.02200
C 	C 	0.46624 0.43857 0.25215 -0.09600
C 	C 	0.31682 0.40415 0.19167 0.12400
C 	C 	0.53894 0.88413 0.17829 -0.05500
C 	C 	0.53935 0.21946 0.85051 0.08600
C 	C 	0.72425 0.14805 0.79260 -0.11300
C 	C 	0.18011 0.21946 0.36895 0.08600
C 	C 	0.15527 0.79303 0.11988 -0.05400
C 	C 	0.83288 0.63023 0.00435 0.33900
C 	C 	0.56341 0.24575 0.98818 -0.07200
C 	C 	0.66461 0.26861 0.22798 0.35100
C 	C 	0.65910 0.67190 0.89700 0.37600
C 	C 	0.84137 0.91087 0.71230 0.05100
C 	C 	0.84473 0.63776 0.46461 -0.05400
C 	C 	0.41087 0.06950 0.69857 0.05100
C 	C 	0.26576 0.78764 0.22462 0.03000
C 	C 	0.71390 0.45593 0.85083 0.02500
C 	C 	0.31139 0.92747 0.70658 0.09300
C 	C 	0.30010 0.58160 0.91050 -0.07800
C 	C 	0.67110 0.58950 0.38960 -0.07800
C 	C 	0.56746 0.30467 0.20875 0.10200
C 	C 	0.17190 0.01280 0.27490 0.37600
C 	C 	0.18234 0.24575 0.25757 -0.07200
C 	C 	0.69167 0.31682 0.90415 0.12400
C 	C 	0.56950 0.91087 0.19857 0.05100
C 	C 	0.42477 0.98818 0.74243 -0.07200
C 	C 	0.74575 0.68234 0.75757 -0.07200
C 	C 	0.06085 0.15150 0.86415 -0.00800
N 	N 	0.44466 0.76651 0.11875 -0.24400
N 	N 	0.88691 0.08911 0.68618 -0.27200
N 	N 	0.89693 0.05975 0.71010 -0.32700
N 	N 	0.38691 0.70073 0.79780 -0.27200
N 	N 	0.82185 0.76651 0.64776 -0.24400
N 	N 	0.23349 0.85224 0.67815 -0.24400
N 	N 	0.32185 0.67409 0.05534 -0.24400
N 	N 	0.30987 0.60115 0.76512 -0.30100
N 	N 	0.64414 0.22566 0.93132 -0.28500
N 	N 	0.80987 0.04475 0.70872 -0.30100
N 	N 	0.29128 0.83603 0.60115 -0.30100
N 	N 	0.90293 0.70220 0.58911 -0.27200
N 	N 	0.77434 0.56868 0.85586 -0.28500
N 	N 	0.18683 0.28990 0.34965 -0.32700
N 	N 	0.82591 0.64776 0.88125 -0.24400
N 	N 	0.44025 0.60307 0.78990 -0.32700
N 	N 	0.35224 0.73349 0.17815 -0.24400
N 	N 	0.41089 0.79780 0.09707 -0.27200
N 	N 	0.76512 0.66397 0.95525 -0.30100
N 	N 	0.21010 0.89693 0.55975 -0.32700
N 	N 	0.29434 0.56868 0.71282 -0.28500
N 	N 	0.31317 0.65035 0.71010 -0.32700
N 	N 	0.16282 0.81317 0.60307 -0.32700
N 	N 	0.68618 0.09707 0.29927 -0.27200
N 	N 	0.72566 0.14414 0.43132 -0.28500
N 	N 	0.23349 0.38125 0.05534 -0.24400
N 	N 	0.04475 0.83603 0.23488 -0.30100
N 	N 	0.76512 0.10115 0.30987 -0.30100
N 	N 	0.23488 0.89885 0.69013 -0.30100
N 	N 	0.29927 0.70220 0.11309 -0.27200
N 	N 	0.41089 0.61309 0.81382 -0.27200
N 	N 	0.26512 0.95525 0.66397 -0.30100
N 	N 	0.93132 0.20566 0.78718 -0.28500
N 	N 	0.30987 0.70872 0.04475 -0.30100
N 	N 	0.39885 0.66397 0.70872 -0.30100
N 	N 	0.81382 0.70073 0.90293 -0.27200
N 	N 	0.73349 0.05534 0.38125 -0.24400
N 	N 	0.84965 0.18683 0.78990 -0.32700
N 	N 	0.71282 0.06868 0.29434 -0.28500
N 	N 	0.88125 0.73349 0.55534 -0.24400
N 	N 	0.93132 0.72566 0.64414 -0.28500
N 	N 	0.05534 0.88125 0.23349 -0.24400
N 	N 	0.35586 0.77434 0.06868 -0.28500
N 	N 	0.33603 0.54475 0.73488 -0.30100
N 	N 	0.29927 0.59707 0.68618 -0.27200
N 	N 	0.89885 0.19013 0.73488 -0.30100
N 	N 	0.44025 0.83718 0.15035 -0.32700
N 	N 	0.26651 0.32185 0.14776 -0.24400
N 	N 	0.79780 0.20073 0.38691 -0.27200
N 	N 	0.94466 0.82591 0.67815 -0.24400
N 	N 	0.56868 0.35586 0.27434 -0.28500
N 	N 	0.41848 0.71282 0.14414 -0.28500
N 	N 	0.66397 0.45525 0.26512 -0.30100
N 	N 	0.14776 0.82185 0.26651 -0.24400
N 	N 	0.23488 0.33603 0.04475 -0.30100
N 	N 	0.79128 0.19013 0.45525 -0.30100
N 	N 	0.58152 0.29434 0.22566 -0.28500
N 	N 	0.18683 0.89693 0.33718 -0.32700
N 	N 	0.32591 0.44466 0.17815 -0.24400
N 	N 	0.16397 0.26512 0.45525 -0.30100
N 	N 	0.70220 0.08911 0.40293 -0.27200
N 	N 	0.90293 0.20073 0.81382 -0.27200
N 	N 	0.05534 0.17409 0.32185 -0.24400
N 	N 	0.33718 0.94025 0.65035 -0.32700
N 	N 	0.35586 0.58152 0.78718 -0.28500
N 	N 	0.70566 0.27434 0.91848 -0.28500
N 	N 	0.66282 0.05975 0.34965 -0.32700
N 	N 	0.55975 0.39693 0.21010 -0.32700
N 	N 	0.79927 0.68618 0.59707 -0.27200
N 	N 	0.95525 0.79128 0.69013 -0.30100
N 	N 	0.61309 0.29927 0.20220 -0.27200
N 	N 	0.61875 0.44466 0.26651 -0.24400
N 	N 	0.45525 0.76512 0.16397 -0.30100
N 	N 	0.41848 0.70566 0.77434 -0.28500
N 	N 	0.73349 0.67815 0.85224 -0.24400
N 	N 	0.08152 0.22566 0.29434 -0.28500
N 	N 	0.59707 0.41089 0.29780 -0.27200
N 	N 	0.82185 0.05534 0.67409 -0.24400
N 	N 	0.32591 0.88125 0.64776 -0.24400
N 	N 	0.85586 0.06868 0.77434 -0.28500
N 	N 	0.67409 0.11875 0.35224 -0.24400
N 	N 	0.10115 0.80987 0.26512 -0.30100
N 	N 	0.66397 0.20872 0.89885 -0.30100
N 	N 	0.70073 0.40293 0.31382 -0.27200
N 	N 	0.89693 0.83718 0.68683 -0.32700
N 	N 	0.88691 0.79780 0.70073 -0.27200
N 	N 	0.85224 0.67409 0.61875 -0.24400
N 	N 	0.26512 0.30987 0.10115 -0.30100
N 	N 	0.28718 0.35586 0.08152 -0.28500
N 	N 	0.20073 0.88691 0.29780 -0.27200
N 	N 	0.69013 0.29128 0.95525 -0.30100
N 	N 	0.45525 0.69013 0.79128 -0.30100
N 	N 	0.06868 0.27434 0.35586 -0.28500
N 	N 	0.18618 0.29927 0.09707 -0.27200
N 	N 	0.44466 0.67815 0.82591 -0.24400
N 	N 	0.17409 0.35224 0.11875 -0.24400
N 	N 	0.91089 0.81382 0.61309 -0.27200
N 	N 	0.38691 0.68618 0.08911 -0.27200
N 	N 	0.58152 0.28718 0.85586 -0.28500
N 	N 	0.16282 0.34965 0.05975 -0.32700
N 	N 	0.64776 0.26651 0.82185 -0.24400
N 	N 	0.59707 0.18618 0.79927 -0.27200
N 	N 	0.85586 0.78718 0.58152 -0.28500
N 	N 	0.10307 0.16282 0.31317 -0.32700
N 	N 	0.20566 0.91848 0.27434 -0.28500
N 	N 	0.39693 0.71010 0.05975 -0.32700
N 	N 	0.11309 0.20220 0.29927 -0.27200
N 	N 	0.71010 0.15035 0.31317 -0.32700
N 	N 	0.79780 0.59707 0.91089 -0.27200
N 	N 	0.79927 0.11309 0.70220 -0.27200
N 	N 	0.73488 0.04475 0.33603 -0.30100
N 	N 	0.38125 0.82591 0.14776 -0.24400
N 	N 	0.91848 0.77434 0.70566 -0.28500
N 	N 	0.60115 0.26512 0.80987 -0.30100
N 	N 	0.11875 0.26651 0.44466 -0.24400
N 	N 	0.43132 0.78718 0.20566 -0.28500
N 	N 	0.33603 0.79128 0.10115 -0.30100
N 	N 	0.55534 0.32185 0.17409 -0.24400
N 	N 	0.58911 0.20220 0.90293 -0.27200
N 	N 	0.31382 0.90293 0.70073 -0.27200
N 	N 	0.95525 0.16397 0.76512 -0.30100
N 	N 	0.65035 0.21010 0.81317 -0.32700
N 	N 	0.60115 0.33603 0.29128 -0.30100
N 	N 	0.40293 0.58911 0.70220 -0.27200
N 	N 	0.08911 0.90293 0.20220 -0.27200
N 	N 	0.83718 0.65035 0.94025 -0.32700
N 	N 	0.65035 0.44025 0.33718 -0.32700
N 	N 	0.39693 0.68683 0.83718 -0.32700
N 	N 	0.55975 0.16282 0.84965 -0.32700
N 	N 	0.84965 0.66282 0.55975 -0.32700
N 	N 	0.10115 0.29128 0.33603 -0.30100
N 	N 	0.78990 0.68683 0.84965 -0.32700
N 	N 	0.64414 0.41848 0.21282 -0.28500
N 	N 	0.15035 0.81317 0.21010 -0.32700
N 	N 	0.06868 0.79434 0.21282 -0.28500
N 	N 	0.61875 0.17409 0.85224 -0.24400
N 	N 	0.10307 0.94025 0.28990 -0.32700
N 	N 	0.94466 0.11875 0.76651 -0.24400
N 	N 	0.27434 0.85586 0.56868 -0.28500
N 	N 	0.71282 0.64414 0.91848 -0.28500
N 	N 	0.94025 0.15035 0.83718 -0.32700
N 	N 	0.70872 0.54475 0.80987 -0.30100
N 	N 	0.78990 0.10307 0.44025 -0.32700
N 	N 	0.81382 0.11309 0.41089 -0.27200
N 	N 	0.35224 0.61875 0.67409 -0.24400
N 	N 	0.34965 0.78990 0.18683 -0.32700
N 	N 	0.85224 0.17815 0.73349 -0.24400
N 	N 	0.79434 0.08152 0.72566 -0.28500
N 	N 	0.80987 0.76512 0.60115 -0.30100
N 	N 	0.04475 0.20872 0.30987 -0.30100
N 	N 	0.11875 0.85224 0.17409 -0.24400
N 	N 	0.20073 0.31382 0.40293 -0.27200
N 	N 	0.66282 0.60307 0.81317 -0.32700
N 	N 	0.17815 0.94466 0.32591 -0.24400
N 	N 	0.14776 0.32591 0.38125 -0.24400
N 	N 	0.76651 0.61875 0.94466 -0.24400
N 	N 	0.43132 0.64414 0.72566 -0.28500
N 	N 	0.83603 0.73488 0.54475 -0.30100
N 	N 	0.70566 0.43132 0.28718 -0.28500
N 	N 	0.29128 0.45525 0.19013 -0.30100
N 	N 	0.70073 0.29780 0.88691 -0.27200
N 	N 	0.70220 0.61309 0.79927 -0.27200
N 	N 	0.64776 0.38125 0.32591 -0.24400
N 	N 	0.20872 0.39885 0.16397 -0.30100
N 	N 	0.08911 0.18618 0.38691 -0.27200
N 	N 	0.32185 0.64776 0.76651 -0.24400
N 	N 	0.58911 0.38691 0.18618 -0.27200
N 	N 	0.67815 0.35224 0.23349 -0.24400
N 	N 	0.17409 0.82185 0.55534 -0.24400
N 	N 	0.68683 0.33718 0.89693 -0.32700
N 	N 	0.15035 0.33718 0.44025 -0.32700
N 	N 	0.39885 0.73488 0.19013 -0.30100
N 	N 	0.14414 0.93132 0.22566 -0.28500
N 	N 	0.19013 0.95525 0.29128 -0.30100
N 	N 	0.20872 0.80987 0.54475 -0.30100
N 	N 	0.05975 0.84965 0.16282 -0.32700
N 	N 	0.71010 0.55975 0.89693 -0.32700
N 	N 	0.82591 0.17815 0.44466 -0.24400
N 	N 	0.21282 0.91848 0.64414 -0.28500
N 	N 	0.78718 0.70566 0.93132 -0.28500
N 	N 	0.70872 0.16397 0.39885 -0.30100
N 	N 	0.69013 0.39885 0.23488 -0.30100
N 	N 	0.83603 0.10115 0.79128 -0.30100
N 	N 	0.72566 0.58152 0.79434 -0.28500
N 	N 	0.88125 0.14776 0.82591 -0.24400
N 	N 	0.79128 0.60115 0.83603 -0.30100
N 	N 	0.19013 0.23488 0.39885 -0.30100
N 	N 	0.31382 0.41089 0.11309 -0.27200
N 	N 	0.67409 0.55534 0.82185 -0.24400
N 	N 	0.26651 0.94466 0.61875 -0.24400
N 	N 	0.91848 0.14414 0.71282 -0.28500
N 	N 	0.28990 0.44025 0.10307 -0.32700
N 	N 	0.68683 0.34965 0.28990 -0.32700
N 	N 	0.21010 0.31317 0.15035 -0.32700
N 	N 	0.08152 0.85586 0.28718 -0.28500
N 	N 	0.38125 0.55534 0.73349 -0.24400
N 	N 	0.22566 0.79434 0.58152 -0.28500
N 	N 	0.20220 0.79927 0.61309 -0.27200
N 	N 	0.89885 0.70872 0.66397 -0.30100
N 	N 	0.31317 0.66282 0.10307 -0.32700
N 	N 	0.40293 0.81382 0.20073 -0.27200
N 	N 	0.68618 0.58911 0.88691 -0.27200
N 	N 	0.76651 0.14776 0.32185 -0.24400
N 	N 	0.91089 0.09707 0.79780 -0.27200
N 	N 	0.61309 0.31382 0.91089 -0.27200
N 	N 	0.55534 0.23349 0.88125 -0.24400
N 	N 	0.54475 0.23488 0.83603 -0.30100
N 	N 	0.14414 0.21282 0.41848 -0.28500
N 	N 	0.79434 0.71282 0.56868 -0.28500
N 	N 	0.83718 0.18683 0.39693 -0.32700
N 	N 	0.17815 0.23349 0.35224 -0.24400
N 	N 	0.29780 0.91089 0.59707 -0.27200
N 	N 	0.28718 0.93132 0.70566 -0.28500
N 	N 	0.60307 0.31317 0.16282 -0.32700
N 	N 	0.09707 0.29780 0.41089 -0.27200
N 	N 	0.67815 0.32591 0.94466 -0.24400
N 	N 	0.29780 0.38691 0.20073 -0.27200
N 	N 	0.20220 0.40293 0.08911 -0.27200
N 	N 	0.22566 0.43132 0.14414 -0.28500
N 	N 	0.29434 0.72566 0.08152 -0.28500
N 	N 	0.16397 0.89885 0.20872 -0.30100
N 	N 	0.21282 0.29434 0.06868 -0.28500
N 	N 	0.34965 0.55975 0.66282 -0.32700
N 	N 	0.27434 0.41848 0.20566 -0.28500
N 	N 	0.78718 0.08152 0.35586 -0.28500
N 	N 	0.94025 0.78990 0.60307 -0.32700
N 	N 	0.20566 0.28718 0.43132 -0.28500
N 	N 	0.73488 0.69013 0.89885 -0.30100
N 	N 	0.54475 0.30987 0.20872 -0.30100
N 	N 	0.18618 0.88691 0.58911 -0.27200
N 	N 	0.56868 0.21282 0.79434 -0.28500
N 	N 	0.28990 0.84965 0.68683 -0.32700
N 	N 	0.05975 0.21010 0.39693 -0.32700
N 	N 	0.60307 0.28990 0.94025 -0.32700
N 	N 	0.11309 0.91089 0.31382 -0.27200
N 	N 	0.77434 0.20566 0.41848 -0.28500
N 	N 	0.09707 0.79927 0.18618 -0.27200
N 	N 	0.81317 0.10307 0.66282 -0.32700
N 	N 	0.33718 0.39693 0.18683 -0.32700
N 	N 	0.81317 0.71010 0.65035 -0.32700
O 	O 	0.00888 0.76796 0.68958 -0.49400
O 	O 	0.81042 0.81930 0.57838 -0.49400
O 	O 	0.43426 0.67367 0.87723 -0.47500
O 	O 	0.30085 0.68895 0.19300 -0.32000
O 	O 	0.04767 0.75026 0.10813 -0.32500
O 	O 	0.23941 0.79644 0.67367 -0.47500
O 	O 	0.29741 0.35787 0.24974 -0.32500
O 	O 	0.92162 0.18958 0.68070 -0.49400
O 	O 	0.20356 0.82633 0.26059 -0.47500
O 	O 	0.50532 0.16006 0.78454 -0.35000
O 	O 	0.87723 0.70356 0.94297 -0.47500
O 	O 	0.34526 0.72078 0.00532 -0.35000
O 	O 	0.35787 0.60813 0.06046 -0.32500
O 	O 	0.93954 0.89187 0.64213 -0.32500
O 	O 	0.46502 0.75000 0.21502 -0.57200
O 	O 	0.17367 0.23941 0.29644 -0.47500
O 	O 	0.69915 0.38810 0.39215 -0.32000
O 	O 	0.20223 0.35167 0.37130 -0.47500
O 	O 	0.12870 0.33093 0.48037 -0.47500
O 	O 	0.49112 0.31042 0.23204 -0.49400
O 	O 	0.33994 0.34526 0.12448 -0.35000
O 	O 	0.73204 0.24092 0.42162 -0.49400
O 	O 	0.70356 0.26059 0.82633 -0.47500
O 	O 	0.81042 0.99112 0.73204 -0.49400
O 	O 	0.31042 0.73204 0.99112 -0.49400
O 	O 	0.96502 0.21502 0.75000 -0.57200
O 	O 	0.04767 0.29741 0.43954 -0.32500
O 	O 	0.89215 0.69915 0.88810 -0.32000
O 	O 	0.28498 0.53498 0.75000 -0.57200
O 	O 	0.00532 0.78454 0.16006 -0.35000
O 	O 	0.03498 0.25000 0.28498 -0.57200
O 	O 	0.07838 0.81042 0.31930 -0.49400
O 	O 	0.56574 0.23941 0.94297 -0.47500
O 	O 	0.79741 0.24974 0.35787 -0.32500
O 	O 	0.84526 0.83994 0.62448 -0.35000
O 	O 	0.88810 0.19915 0.89215 -0.32000
O 	O 	0.15474 0.16006 0.37552 -0.35000
O 	O 	0.68895 0.69300 0.80085 -0.32000
O 	O 	0.25000 0.28498 0.03498 -0.57200
O 	O 	0.93426 0.05703 0.76059 -0.47500
O 	O 	0.49595 0.18895 0.88810 -0.32000
O 	O 	0.06046 0.10813 0.35787 -0.32500
O 	O 	0.54767 0.43954 0.29741 -0.32500
O 	O 	0.74974 0.45233 0.39187 -0.32500
O 	O 	0.61190 0.10785 0.80085 -0.32000
O 	O 	0.99112 0.75908 0.18070 -0.49400
O 	O 	0.14833 0.29777 0.12870 -0.47500
O 	O 	0.00532 0.22078 0.34526 -0.35000
O 	O 	0.10813 0.25026 0.04767 -0.32500
O 	O 	0.31042 0.57838 0.81930 -0.49400
O 	O 	0.38810 0.49595 0.68895 -0.32000
O 	O 	0.29644 0.55703 0.62277 -0.47500
O 	O 	0.17367 0.93426 0.37723 -0.47500
O 	O 	0.99112 0.23204 0.31042 -0.49400
O 	O 	0.21502 0.25000 0.46502 -0.57200
O 	O 	0.11190 0.31105 0.50405 -0.32000
O 	O 	0.62448 0.28454 0.27922 -0.35000
O 	O 	0.12448 0.27922 0.28454 -0.35000
O 	O 	0.05703 0.79644 0.12277 -0.47500
O 	O 	0.56574 0.32633 0.12277 -0.47500
O 	O 	0.75908 0.68070 0.49112 -0.49400
O 	O 	0.93426 0.87723 0.67367 -0.47500
O 	O 	0.85056 0.01963 0.64833 -0.47500
O 	O 	0.53498 0.25000 0.78498 -0.57200
O 	O 	0.85787 0.06046 0.60813 -0.32500
O 	O 	0.79644 0.62277 0.55703 -0.47500
O 	O 	0.73941 0.67367 0.79644 -0.47500
O 	O 	0.75000 0.71502 0.96502 -0.57200
O 	O 	0.19915 0.39215 0.38810 -0.32000
O 	O 	0.37723 0.94297 0.70356 -0.47500
O 	O 	0.31105 0.00405 0.61190 -0.32000
O 	O 	0.65474 0.37552 0.16006 -0.35000
O 	O 	0.37552 0.66006 0.15474 -0.35000
O 	O 	0.43954 0.79741 0.04767 -0.32500
O 	O 	0.25000 0.96502 0.71502 -0.57200
O 	O 	0.88810 0.68895 0.49595 -0.32000
O 	O 	0.75026 0.14213 0.70259 -0.32500
O 	O 	0.77922 0.62448 0.78454 -0.35000
O 	O 	0.67367 0.37723 0.93426 -0.47500
O 	O 	0.30085 0.61190 0.60785 -0.32000
O 	O 	0.55703 0.43426 0.26059 -0.47500
O 	O 	0.87723 0.17367 0.43426 -0.47500
O 	O 	0.87130 0.20223 0.85167 -0.47500
O 	O 	0.19300 0.18895 0.30085 -0.32000
O 	O 	0.64213 0.39187 0.93954 -0.32500
O 	O 	0.64944 0.35167 0.98037 -0.47500
O 	O 	0.33093 0.35056 0.20223 -0.47500
O 	O 	0.64833 0.51963 0.85056 -0.47500
O 	O 	0.29777 0.62870 0.64833 -0.47500
O 	O 	0.70223 0.37130 0.35167 -0.47500
O 	O 	0.23204 0.42162 0.24092 -0.49400
O 	O 	0.28454 0.77922 0.12448 -0.35000
O 	O 	0.18895 0.38810 0.99595 -0.32000
O 	O 	0.60813 0.56046 0.85787 -0.32500
O 	O 	0.37130 0.51963 0.66907 -0.47500
O 	O 	0.19915 0.80700 0.31105 -0.32000
O 	O 	0.21502 0.96502 0.25000 -0.57200
O 	O 	0.68958 0.42162 0.18070 -0.49400
O 	O 	0.55703 0.12277 0.79644 -0.47500
O 	O 	0.93954 0.04767 0.79741 -0.32500
O 	O 	0.22078 0.37552 0.21546 -0.35000
O 	O 	0.05703 0.26059 0.43426 -0.47500
O 	O 	0.42162 0.74092 0.73204 -0.49400
O 	O 	0.66907 0.64944 0.79777 -0.47500
O 	O 	0.25000 0.78498 0.53498 -0.57200
O 	O 	0.99468 0.77922 0.65474 -0.35000
O 	O 	0.12277 0.29644 0.05703 -0.47500
O 	O 	0.26059 0.32633 0.20356 -0.47500
O 	O 	0.60785 0.11190 0.30085 -0.32000
O 	O 	0.19300 0.00405 0.39215 -0.32000
O 	O 	0.78498 0.75000 0.53498 -0.57200
O 	O 	0.76796 0.18958 0.50888 -0.49400
O 	O 	0.21546 0.87552 0.22078 -0.35000
O 	O 	0.78454 0.66006 0.50532 -0.35000
O 	O 	0.64213 0.25026 0.20259 -0.32500
O 	O 	0.75000 0.21502 0.46502 -0.57200
O 	O 	0.99468 0.21546 0.83994 -0.35000
O 	O 	0.56046 0.35787 0.10813 -0.32500
O 	O 	0.75908 0.07838 0.76796 -0.49400
O 	O 	0.42162 0.68070 0.18958 -0.49400
O 	O 	0.34526 0.62448 0.83994 -0.35000
O 	O 	0.29741 0.93954 0.54767 -0.32500
O 	O 	0.24092 0.92162 0.23204 -0.49400
O 	O 	0.31105 0.30700 0.19915 -0.32000
O 	O 	0.06574 0.12277 0.32633 -0.47500
O 	O 	0.76059 0.20356 0.32633 -0.47500
O 	O 	0.73941 0.06574 0.44297 -0.47500
O 	O 	0.38810 0.89215 0.19915 -0.32000
O 	O 	0.30700 0.69915 0.81105 -0.32000
O 	O 	0.71546 0.22078 0.87552 -0.35000
O 	O 	0.80700 0.81105 0.69915 -0.32000
O 	O 	0.20356 0.37723 0.44297 -0.47500
O 	O 	0.28454 0.50532 0.66006 -0.35000
O 	O 	0.83994 0.12448 0.34526 -0.35000
O 	O 	0.62870 0.48037 0.33093 -0.47500
O 	O 	0.10785 0.80700 0.49595 -0.32000
O 	O 	0.94297 0.73941 0.56574 -0.47500
O 	O 	0.00405 0.89215 0.69300 -0.32000
O 	O 	0.57838 0.31930 0.81042 -0.49400
O 	O 	0.44297 0.87723 0.20356 -0.47500
O 	O 	0.87552 0.72078 0.71546 -0.35000
O 	O 	0.75000 0.53498 0.78498 -0.57200
O 	O 	0.71502 0.46502 0.25000 -0.57200
O 	O 	0.51963 0.16907 0.87130 -0.47500
O 	O 	0.72078 0.50532 0.84526 -0.35000
O 	O 	0.50888 0.81930 0.24092 -0.49400
O 	O 	0.81105 0.61190 0.00405 -0.32000
O 	O 	0.26796 0.50888 0.18958 -0.49400
O 	O 	0.24092 0.31930 0.50888 -0.49400
O 	O 	0.16006 0.28454 0.00532 -0.35000
O 	O 	0.82633 0.06574 0.62277 -0.47500
O 	O 	0.98037 0.12870 0.83093 -0.47500
O 	O 	0.69300 0.39215 0.00405 -0.32000
O 	O 	0.39215 0.88810 0.69915 -0.32000
O 	O 	0.82633 0.76059 0.70356 -0.47500
O 	O 	0.26059 0.93426 0.55703 -0.47500
O 	O 	0.01963 0.87130 0.16907 -0.47500
O 	O 	0.01963 0.14833 0.35056 -0.47500
O 	O 	0.35056 0.64833 0.01963 -0.47500
O 	O 	0.49468 0.83994 0.21546 -0.35000
O 	O 	0.62870 0.14833 0.79777 -0.47500
O 	O 	0.43954 0.64213 0.89187 -0.32500
O 	O 	0.20223 0.85056 0.33093 -0.47500
O 	O 	0.70259 0.06046 0.45233 -0.32500
O 	O 	0.78498 0.03498 0.75000 -0.57200
O 	O 	0.80085 0.19300 0.68895 -0.32000
O 	O 	0.83994 0.71546 0.99468 -0.35000
O 	O 	0.16006 0.87552 0.65474 -0.35000
O 	O 	0.89215 0.19300 0.50405 -0.32000
O 	O 	0.70356 0.44297 0.37723 -0.47500
O 	O 	0.56046 0.20259 0.95233 -0.32500
O 	O 	0.62277 0.56574 0.82633 -0.47500
O 	O 	0.96502 0.75000 0.71502 -0.57200
O 	O 	0.76059 0.55703 0.93426 -0.47500
O 	O 	0.20259 0.45233 0.06046 -0.32500
O 	O 	0.21546 0.33994 0.49468 -0.35000
O 	O 	0.33093 0.98037 0.62870 -0.47500
O 	O 	0.22078 0.84526 0.50532 -0.35000
O 	O 	0.20259 0.75026 0.64213 -0.32500
O 	O 	0.49595 0.30700 0.10785 -0.32000
O 	O 	0.76796 0.57838 0.75908 -0.49400
O 	O 	0.15474 0.99468 0.27922 -0.35000
O 	O 	0.50532 0.34526 0.22078 -0.35000
O 	O 	0.71502 0.25000 0.96502 -0.57200
O 	O 	0.45233 0.89187 0.24974 -0.32500
O 	O 	0.29777 0.66907 0.14944 -0.47500
O 	O 	0.85167 0.70223 0.87130 -0.47500
O 	O 	0.80085 0.60785 0.61190 -0.32000
O 	O 	0.78454 0.12448 0.77922 -0.35000
O 	O 	0.37130 0.85167 0.20223 -0.47500
O 	O 	0.72078 0.21546 0.37552 -0.35000
O 	O 	0.84526 0.00532 0.72078 -0.35000
O 	O 	0.26796 0.75908 0.57838 -0.49400
O 	O 	0.79777 0.64833 0.62870 -0.47500
O 	O 	0.68070 0.99112 0.25908 -0.49400
O 	O 	0.24974 0.39187 0.45233 -0.32500
O 	O 	0.94297 0.20356 0.87723 -0.47500
O 	O 	0.43426 0.76059 0.05703 -0.47500
O 	O 	0.50405 0.69300 0.89215 -0.32000
O 	O 	0.99595 0.10785 0.30700 -0.32000
O 	O 	0.89187 0.14213 0.43954 -0.32500
O 	O 	0.14944 0.16907 0.29777 -0.47500
O 	O 	0.06046 0.95233 0.20259 -0.32500
O 	O 	0.18958 0.18070 0.42162 -0.49400
O 	O 	0.30700 0.60785 0.99595 -0.32000
O 	O 	0.39215 0.50405 0.19300 -0.32000
O 	O 	0.35167 0.87130 0.70223 -0.47500
O 	O 	0.14944 0.98037 0.35167 -0.47500
O 	O 	0.74092 0.50888 0.31930 -0.49400
O 	O 	0.65474 0.27922 0.99468 -0.35000
O 	O 	0.75026 0.60813 0.54767 -0.32500
O 	O 	0.71546 0.49468 0.33994 -0.35000
O 	O 	0.35056 0.70223 0.83093 -0.47500
O 	O 	0.37723 0.43426 0.17367 -0.47500
O 	O 	0.12448 0.84526 0.33994 -0.35000
O 	O 	0.83093 0.62870 0.98037 -0.47500
O 	O 	0.66907 0.01963 0.37130 -0.47500
O 	O 	0.25908 0.49112 0.68070 -0.49400
O 	O 	0.46502 0.71502 0.75000 -0.57200
O 	O 	0.39187 0.95233 0.74974 -0.32500
O 	O 	0.49112 0.18070 0.75908 -0.49400
O 	O 	0.87130 0.66907 0.51963 -0.47500
O 	O 	0.64944 0.29777 0.16907 -0.47500
O 	O 	0.69915 0.31105 0.80700 -0.32000
O 	O 	0.00405 0.11190 0.81105 -0.32000
O 	O 	0.79644 0.17367 0.73941 -0.47500
O 	O 	0.18070 0.25908 0.99112 -0.49400
O 	O 	0.25026 0.54767 0.60813 -0.32500
O 	O 	0.14213 0.20259 0.25026 -0.32500
O 	O 	0.68070 0.68958 0.92162 -0.49400
O 	O 	0.48037 0.64944 0.85167 -0.47500
O 	O 	0.33994 0.99468 0.71546 -0.35000
O 	O 	0.32633 0.70356 0.76059 -0.47500
O 	O 	0.10785 0.30085 0.11190 -0.32000
O 	O 	0.74092 0.23204 0.92162 -0.49400
O 	O 	0.12277 0.82633 0.56574 -0.47500
O 	O 	0.25026 0.70259 0.14213 -0.32500
O 	O 	0.64833 0.12870 0.29777 -0.47500
O 	O 	0.50405 0.81105 0.11190 -0.32000
O 	O 	0.27922 0.49468 0.15474 -0.35000
O 	O 	0.25908 0.76796 0.07838 -0.49400
O 	O 	0.83093 0.20223 0.35056 -0.47500
O 	O 	0.16907 0.37130 0.01963 -0.47500
O 	O 	0.27922 0.78454 0.62448 -0.35000
O 	O 	0.07838 0.26796 0.25908 -0.49400
O 	O 	0.80700 0.99595 0.60785 -0.32000
O 	O 	0.29644 0.73941 0.17367 -0.47500
O 	O 	0.44297 0.56574 0.73941 -0.47500
O 	O 	0.66006 0.00532 0.28454 -0.35000
O 	O 	0.68895 0.99595 0.38810 -0.32000
O 	O 	0.69300 0.30085 0.18895 -0.32000
O 	O 	0.95233 0.24974 0.89187 -0.32500
O 	O 	0.23204 0.81042 0.49112 -0.49400
O 	O 	0.62448 0.33994 0.84526 -0.35000
O 	O 	0.50888 0.68958 0.76796 -0.49400
O 	O 	0.74974 0.29741 0.85787 -0.32500
O 	O 	0.85056 0.83093 0.70223 -0.47500
O 	O 	0.28498 0.75000 0.03498 -0.57200
O 	O 	0.79777 0.14944 0.66907 -0.47500
O 	O 	0.75000 0.03498 0.28498 -0.57200
O 	O 	0.45233 0.56046 0.70259 -0.32500
O 	O 	0.77922 0.15474 0.49468 -0.35000
O 	O 	0.14833 0.85056 0.51963 -0.47500
O 	O 	0.79741 0.54767 0.93954 -0.32500
O 	O 	0.87552 0.15474 0.66006 -0.35000
O 	O 	0.14213 0.93954 0.39187 -0.32500
O 	O 	0.66006 0.65474 0.87552 -0.35000
O 	O 	0.18070 0.92162 0.68958 -0.49400
O 	O 	0.24974 0.85787 0.29741 -0.32500
O 	O 	0.70259 0.64213 0.75026 -0.32500
O 	O 	0.35167 0.48037 0.14944 -0.47500
O 	O 	0.10813 0.85787 0.56046 -0.32500
O 	O 	0.60785 0.49595 0.80700 -0.32000
O 	O 	0.99595 0.88810 0.18895 -0.32000
O 	O 	0.62277 0.05703 0.29644 -0.47500
O 	O 	0.67367 0.29644 0.23941 -0.47500
O 	O 	0.48037 0.83093 0.12870 -0.47500
O 	O 	0.31930 0.31042 0.07838 -0.49400
O 	O 	0.85787 0.79741 0.74974 -0.32500
O 	O 	0.23941 0.44297 0.06574 -0.47500
O 	O 	0.11190 0.80085 0.10785 -0.32000
O 	O 	0.32633 0.62277 0.06574 -0.47500
O 	O 	0.81930 0.74092 0.00888 -0.49400
O 	O 	0.81930 0.07838 0.31042 -0.49400
O 	O 	0.51963 0.35056 0.14833 -0.47500
O 	O 	0.35787 0.74974 0.79741 -0.32500
O 	O 	0.89187 0.74974 0.95233 -0.32500
O 	O 	0.31930 0.00888 0.74092 -0.49400
O 	O 	0.54767 0.10813 0.75026 -0.32500
O 	O 	0.18895 0.80085 0.69300 -0.32000
O 	O 	0.49468 0.65474 0.77922 -0.35000
O 	O 	0.39187 0.43954 0.14213 -0.32500
O 	O 	0.81105 0.19915 0.30700 -0.32000
O 	O 	0.57838 0.25908 0.26796 -0.49400
O 	O 	0.61190 0.50405 0.31105 -0.32000
O 	O 	0.06574 0.94297 0.23941 -0.47500
O 	O 	0.25000 0.46502 0.21502 -0.57200
O 	O 	0.68958 0.26796 0.00888 -0.49400
O 	O 	0.12870 0.79777 0.14833 -0.47500
O 	O 	0.60813 0.04767 0.25026 -0.32500
O 	O 	0.53498 0.28498 0.25000 -0.57200
O 	O 	0.37552 0.71546 0.72078 -0.35000
O 	O 	0.16907 0.79777 0.64944 -0.47500
O 	O 	0.18958 0.00888 0.26796 -0.49400
O 	O 	0.85167 0.14944 0.48037 -0.47500
O 	O 	0.00888 0.24092 0.81930 -0.49400
O 	O 	0.98037 0.85167 0.64944 -0.47500
O 	O 	0.70223 0.33093 0.85056 -0.47500
O 	O 	0.95233 0.70259 0.56046 -0.32500
O 	O 	0.92162 0.73204 0.74092 -0.49400
O 	O 	0.03498 0.78498 0.25000 -0.57200
O 	O 	0.73204 0.49112 0.81042 -0.49400
