data_crystal

_cell_length_a 32.62050
_cell_length_b 32.62050
_cell_length_c 32.62050
_cell_angle_alpha 90.00000
_cell_angle_beta  90.00000
_cell_angle_gamma 90.00000

_symmetry_space_group_name_	'P 1'
_symmetry_space_group_name_H-M	'P 1'

loop_
_symmetry_equiv_pos_as_xyz
  x,y,z

loop_
_atom_site_label
_atom_site_type_symbol
_atom_site_fract_x
_atom_site_fract_y
_atom_site_fract_z
_atom_site_charge
O 	O 	0.10460 0.05413 -0.00063 -0.63900
O 	O 	-0.10639 0.05439 0.00215 -0.64000
O 	O 	0.00057 0.10414 -0.05504 -0.64400
O 	O 	-0.00238 0.10435 0.05610 -0.64000
O 	O 	-0.00256 0.05450 0.10617 -0.64000
O 	O 	0.00057 0.05414 -0.10485 -0.64400
O 	O 	-0.05638 0.10429 0.00200 -0.64000
O 	O 	0.05467 0.10413 -0.00086 -0.64100
Zr	Zr	-0.00089 0.07087 0.00062 3.23700
O 	O 	-0.03817 0.03608 0.03791 -1.27700
O 	O 	0.03632 0.03580 -0.03643 -1.27600
C 	C 	0.09264 0.09212 -0.00150 0.48000
C 	C 	-0.09437 0.09237 0.00281 0.48000
C 	C 	0.00127 0.09225 -0.09310 0.50100
C 	C 	-0.00323 0.09246 0.09411 0.48000
H 	H 	-0.05541 0.05322 -0.05389 0.32200
O 	O 	-0.03793 0.03573 -0.03635 -1.50900
H 	H 	0.05354 0.05330 0.05528 0.32200
O 	O 	0.03605 0.03579 0.03779 -1.50900
O 	O 	-0.10642 -0.05665 -0.00070 -0.64100
O 	O 	0.10453 -0.05698 0.00240 -0.64400
O 	O 	-0.05638 -0.00296 -0.10469 -0.64100
O 	O 	-0.05672 0.00035 0.10631 -0.64400
O 	O 	0.05439 -0.00259 0.10635 -0.64100
O 	O 	0.05470 0.00002 -0.10463 -0.64100
O 	O 	-0.00240 -0.10687 -0.05462 -0.64400
O 	O 	0.00043 -0.10666 0.05652 -0.64000
O 	O 	-0.00233 -0.05706 -0.10463 -0.64400
O 	O 	0.00034 -0.05659 0.10638 -0.64000
O 	O 	-0.10635 -0.00277 -0.05474 -0.64100
O 	O 	0.10458 0.00002 -0.05460 -0.64100
O 	O 	0.10443 -0.00280 0.05646 -0.64100
O 	O 	-0.10655 0.00031 0.05635 -0.64400
O 	O 	-0.05652 -0.10668 -0.00062 -0.64100
O 	O 	0.05460 -0.10684 0.00243 -0.64500
Zr	Zr	-0.07307 -0.00117 0.00080 3.23800
Zr	Zr	0.07118 -0.00138 0.00088 3.23700
Zr	Zr	-0.00087 -0.00140 -0.07136 3.23700
Zr	Zr	-0.00110 -0.00112 0.07295 3.23700
Zr	Zr	-0.00095 -0.07342 0.00090 3.23700
O 	O 	0.03615 -0.03842 0.03811 -1.27600
O 	O 	-0.03810 -0.03846 -0.03631 -1.27600
C 	C 	-0.09448 -0.09464 -0.00144 0.48100
C 	C 	0.09269 -0.09506 0.00314 0.50100
C 	C 	-0.09435 -0.00366 -0.09271 0.48100
C 	C 	-0.09479 0.00104 0.09445 0.50000
C 	C 	0.09239 -0.00345 0.09442 0.48000
C 	C 	0.09266 0.00076 -0.09259 0.48100
C 	C 	-0.00309 -0.09512 -0.09272 0.50100
C 	C 	0.00112 -0.09460 0.09449 0.48000
H 	H 	0.05363 -0.05598 -0.05363 0.32200
O 	O 	0.03613 -0.03843 -0.03618 -1.51000
H 	H 	-0.05559 -0.05568 0.05539 0.32200
O 	O 	-0.03805 -0.03823 0.03788 -1.50900
O 	O 	0.60426 0.55488 -0.00076 -0.64100
O 	O 	0.39325 0.55471 0.00204 -0.63900
O 	O 	0.50021 0.60459 -0.05517 -0.64500
O 	O 	0.49714 0.60482 0.05593 -0.64200
O 	O 	0.49720 0.55501 0.10606 -0.64200
O 	O 	0.50038 0.55454 -0.10490 -0.64500
O 	O 	0.44313 0.60474 0.00185 -0.63900
O 	O 	0.55421 0.60476 -0.00101 -0.64100
Zr	Zr	0.49873 0.57138 0.00051 3.23700
O 	O 	0.46163 0.53648 0.03786 -1.27600
O 	O 	0.53607 0.53637 -0.03647 -1.27600
C 	C 	0.59220 0.59283 -0.00167 0.48100
C 	C 	0.40515 0.59273 0.00264 0.47800
C 	C 	0.50102 0.59265 -0.09321 0.50200
C 	C 	0.49637 0.59293 0.09394 0.48200
H 	H 	0.44429 0.55358 -0.05399 0.32200
O 	O 	0.46179 0.53614 -0.03643 -1.51000
H 	H 	0.55327 0.55400 0.05520 0.32200
O 	O 	0.53581 0.53642 0.03774 -1.50800
O 	O 	0.39349 0.44361 -0.00061 -0.64100
O 	O 	0.60447 0.44384 0.00251 -0.64100
O 	O 	0.44344 0.49738 -0.10473 -0.64000
O 	O 	0.44326 0.50084 0.10631 -0.63900
O 	O 	0.55439 0.49820 0.10643 -0.63900
O 	O 	0.55459 0.50052 -0.10463 -0.64500
O 	O 	0.49760 0.39362 -0.05446 -0.64000
O 	O 	0.50045 0.39387 0.05659 -0.64000
O 	O 	0.49760 0.44343 -0.10458 -0.64000
O 	O 	0.50038 0.44393 0.10644 -0.64100
O 	O 	0.39348 0.49746 -0.05476 -0.64100
O 	O 	0.60443 0.50067 -0.05466 -0.64500
O 	O 	0.60442 0.49813 0.05654 -0.63800
O 	O 	0.39334 0.50072 0.05631 -0.64000
O 	O 	0.44350 0.39370 -0.00047 -0.64000
O 	O 	0.55457 0.39382 0.00256 -0.64000
Zr	Zr	0.42674 0.49919 0.00078 3.23700
Zr	Zr	0.57105 0.49932 0.00089 3.23700
Zr	Zr	0.49897 0.49907 -0.07136 3.23700
Zr	Zr	0.49885 0.49940 0.07296 3.23700
Zr	Zr	0.49900 0.42711 0.00099 3.23700
O 	O 	0.53613 0.46217 0.03815 -1.27700
O 	O 	0.46181 0.46196 -0.03629 -1.27600
C 	C 	0.40551 0.40564 -0.00129 0.48000
C 	C 	0.59254 0.40584 0.00331 0.48000
C 	C 	0.40546 0.49660 -0.09273 0.48000
C 	C 	0.40527 0.50152 0.09432 0.47900
C 	C 	0.59242 0.49751 0.09454 0.47700
C 	C 	0.59265 0.50130 -0.09275 0.50200
C 	C 	0.49688 0.40547 -0.09249 0.47900
C 	C 	0.50117 0.40592 0.09455 0.48000
H 	H 	0.55357 0.44464 -0.05356 0.32200
O 	O 	0.53603 0.46216 -0.03611 -1.50900
H 	H 	0.44438 0.44476 0.05545 0.32200
O 	O 	0.46186 0.46225 0.03792 -1.50900
O 	O 	0.10365 0.55425 0.50000 -0.64000
O 	O 	-0.10734 0.55467 0.50306 -0.64500
O 	O 	-0.00032 0.60451 0.44620 -0.64000
O 	O 	-0.00317 0.60431 0.55731 -0.63900
O 	O 	-0.00321 0.55424 0.60717 -0.63900
O 	O 	-0.00043 0.55467 0.39611 -0.64000
O 	O 	-0.05733 0.60447 0.50320 -0.64600
O 	O 	0.05376 0.60430 0.50020 -0.64000
Zr	Zr	-0.00183 0.57104 0.50167 3.23700
O 	O 	-0.03906 0.53607 0.53879 -1.27600
O 	O 	0.03525 0.53609 0.46434 -1.27600
C 	C 	0.09173 0.59226 0.49935 0.47900
C 	C 	-0.09542 0.59271 0.50386 0.50300
C 	C 	0.00040 0.59262 0.40818 0.48000
C 	C 	-0.00388 0.59228 0.59529 0.47800
H 	H 	-0.05644 0.55367 0.44706 0.32200
O 	O 	-0.03895 0.53611 0.46451 -1.50900
H 	H 	0.05272 0.55321 0.55609 0.32200
O 	O 	0.03518 0.53577 0.53857 -1.50800
O 	O 	-0.10744 0.44357 0.49983 -0.64100
O 	O 	0.10355 0.44318 0.50269 -0.64000
O 	O 	-0.05764 0.49781 0.39595 -0.64400
O 	O 	-0.05747 0.50021 0.60700 -0.64000
O 	O 	0.05367 0.49707 0.60690 -0.64100
O 	O 	0.05351 0.50050 0.39588 -0.63900
O 	O 	-0.00354 0.39350 0.44571 -0.64000
O 	O 	-0.00059 0.39322 0.55683 -0.63900
O 	O 	-0.00360 0.44358 0.39585 -0.64000
O 	O 	-0.00055 0.44305 0.60693 -0.63900
O 	O 	-0.10752 0.49781 0.44588 -0.64300
O 	O 	0.10353 0.50032 0.44578 -0.64000
O 	O 	0.10359 0.49713 0.55688 -0.64100
O 	O 	-0.10745 0.50041 0.55705 -0.63900
O 	O 	-0.05754 0.39354 0.49975 -0.64200
O 	O 	0.05353 0.39328 0.50268 -0.64000
Zr	Zr	-0.07409 0.49906 0.50147 3.23700
Zr	Zr	0.07022 0.49876 0.50138 3.23700
Zr	Zr	-0.00202 0.49905 0.42930 3.23700
Zr	Zr	-0.00191 0.49872 0.57366 3.23700
Zr	Zr	-0.00198 0.42674 0.50133 3.23700
O 	O 	0.03524 0.46157 0.53857 -1.27600
O 	O 	-0.03919 0.46185 0.46423 -1.27600
C 	C 	-0.09549 0.40559 0.49898 0.48200
C 	C 	0.09155 0.40519 0.50339 0.47800
C 	C 	-0.09572 0.49716 0.40778 0.50000
C 	C 	-0.09547 0.50104 0.59505 0.47900
C 	C 	0.09164 0.49630 0.59487 0.48000
C 	C 	0.09153 0.50117 0.40780 0.47900
C 	C 	-0.00433 0.40556 0.40774 0.47900
C 	C 	0.00015 0.40507 0.59488 0.47700
H 	H 	0.05250 0.44438 0.44674 0.32200
O 	O 	0.03504 0.46187 0.46429 -1.50900
H 	H 	-0.05652 0.44433 0.55590 0.32200
O 	O 	-0.03900 0.46185 0.53843 -1.50800
O 	O 	0.60460 0.05403 0.49923 -0.64100
O 	O 	0.39362 0.05383 0.50245 -0.64000
O 	O 	0.50049 0.10406 0.44555 -0.64000
O 	O 	0.49770 0.10375 0.55660 -0.64000
O 	O 	0.49788 0.05367 0.60643 -0.64000
O 	O 	0.50060 0.05425 0.39544 -0.64000
O 	O 	0.44349 0.10387 0.50255 -0.63900
O 	O 	0.55454 0.10389 0.49948 -0.64200
Zr	Zr	0.49909 0.07053 0.50097 3.23700
O 	O 	0.46202 0.03546 0.53814 -1.27700
O 	O 	0.53635 0.03574 0.46366 -1.27700
C 	C 	0.59252 0.09198 0.49859 0.48200
C 	C 	0.40551 0.09185 0.50326 0.47800
C 	C 	0.50128 0.09220 0.40752 0.47900
C 	C 	0.49705 0.09168 0.59455 0.48000
H 	H 	0.44456 0.05303 0.44642 0.32200
O 	O 	0.46210 0.03551 0.46386 -1.51000
H 	H 	0.55376 0.05283 0.55535 0.32200
O 	O 	0.53626 0.03535 0.53784 -1.50800
O 	O 	0.39380 -0.05719 0.49933 -0.64100
O 	O 	0.60480 -0.05709 0.50201 -0.64000
O 	O 	0.44365 -0.00287 0.39536 -0.64000
O 	O 	0.44384 -0.00039 0.60634 -0.64100
O 	O 	0.55488 -0.00331 0.60614 -0.64100
O 	O 	0.55474 0.00010 0.39515 -0.63900
O 	O 	0.49770 -0.10692 0.44508 -0.64100
O 	O 	0.50082 -0.10728 0.55619 -0.63900
O 	O 	0.49763 -0.05681 0.39525 -0.64200
O 	O 	0.50082 -0.05742 0.60624 -0.63900
O 	O 	0.39374 -0.00309 0.44538 -0.64100
O 	O 	0.60477 -0.00002 0.44503 -0.63900
O 	O 	0.60480 -0.00310 0.55613 -0.64100
O 	O 	0.39382 -0.00030 0.55644 -0.64100
O 	O 	0.44376 -0.10716 0.49920 -0.64000
O 	O 	0.55488 -0.10710 0.50202 -0.64000
Zr	Zr	0.42710 -0.00165 0.50088 3.23800
Zr	Zr	0.57140 -0.00157 0.50064 3.23700
Zr	Zr	0.49921 -0.00139 0.42865 3.23700
Zr	Zr	0.49931 -0.00180 0.57293 3.23700
Zr	Zr	0.49930 -0.07377 0.50069 3.23700
O 	O 	0.53652 -0.03885 0.53785 -1.27600
O 	O 	0.46210 -0.03869 0.46360 -1.27500
C 	C 	0.40577 -0.09517 0.49851 0.48000
C 	C 	0.59286 -0.09509 0.50275 0.47900
C 	C 	0.40568 -0.00373 0.40739 0.48000
C 	C 	0.40585 0.00039 0.59440 0.48100
C 	C 	0.59284 -0.00398 0.59412 0.48100
C 	C 	0.59277 0.00079 0.40704 0.47700
C 	C 	0.49686 -0.09480 0.40715 0.48200
C 	C 	0.50156 -0.09540 0.59421 0.47800
H 	H 	0.55377 -0.05601 0.44606 0.32200
O 	O 	0.53627 -0.03856 0.46361 -1.50900
H 	H 	0.44478 -0.05632 0.55531 0.32200
O 	O 	0.46225 -0.03878 0.53782 -1.51000
C 	C 	0.18616 0.18586 -0.00413 0.03800
C 	C 	0.19692 0.14413 -0.00362 -0.07900
C 	C 	0.16666 0.11375 -0.00292 0.04600
C 	C 	0.12484 0.12434 -0.00275 -0.13700
C 	C 	0.11412 0.16612 -0.00354 0.04600
C 	C 	0.14439 0.19646 -0.00420 -0.08000
C 	C 	0.21834 0.21821 -0.00429 -0.00300
C 	C 	0.21360 0.25396 0.01932 -0.03700
C 	C 	0.24387 0.28432 0.01934 -0.03700
C 	C 	0.27965 0.27970 -0.00424 -0.00300
C 	C 	0.28439 0.24396 -0.02788 -0.03600
C 	C 	0.25411 0.21359 -0.02790 -0.03700
C 	C 	0.31193 0.31196 -0.00401 0.03800
C 	C 	0.35368 0.30128 -0.00349 -0.07900
C 	C 	0.38400 0.33160 -0.00275 0.04600
C 	C 	0.37333 0.37340 -0.00253 -0.13700
C 	C 	0.33153 0.38405 -0.00331 0.04600
C 	C 	0.30124 0.35371 -0.00402 -0.07900
H 	H 	0.22880 0.13493 -0.00306 0.04900
H 	H 	0.17613 0.08194 -0.00228 0.03600
H 	H 	0.08227 0.17550 -0.00363 0.03600
H 	H 	0.13506 0.22830 -0.00519 0.04900
H 	H 	0.18676 0.25818 0.03838 0.03700
H 	H 	0.23957 0.31114 0.03843 0.03700
H 	H 	0.31128 0.23974 -0.04687 0.03800
H 	H 	0.25842 0.18673 -0.04691 0.03800
H 	H 	0.36295 0.26942 -0.00296 0.04900
H 	H 	0.41582 0.32218 -0.00211 0.03600
H 	H 	0.32210 0.41587 -0.00337 0.03600
H 	H 	0.26939 0.36298 -0.00501 0.04900
C 	C 	0.18553 0.68577 0.49649 0.03800
C 	C 	0.19615 0.64400 0.49678 -0.07900
C 	C 	0.16579 0.61371 0.49758 0.04600
C 	C 	0.12400 0.62442 0.49808 -0.13700
C 	C 	0.11342 0.66624 0.49754 0.04600
C 	C 	0.14379 0.69650 0.49678 -0.07900
C 	C 	0.21785 0.71802 0.49617 -0.00300
C 	C 	0.21341 0.75376 0.51986 -0.03700
C 	C 	0.24382 0.78398 0.51976 -0.03700
C 	C 	0.27946 0.77925 0.49597 -0.00300
C 	C 	0.28391 0.74352 0.47226 -0.03700
C 	C 	0.25348 0.71328 0.47235 -0.03700
C 	C 	0.31187 0.81140 0.49604 0.03800
C 	C 	0.35360 0.80059 0.49626 -0.07900
C 	C 	0.38403 0.83082 0.49689 0.04600
C 	C 	0.37350 0.87266 0.49729 -0.13700
C 	C 	0.33173 0.88342 0.49678 0.04600
C 	C 	0.30134 0.85319 0.49619 -0.07900
H 	H 	0.22800 0.63468 0.49709 0.04900
H 	H 	0.17518 0.58188 0.49803 0.03600
H 	H 	0.08160 0.67572 0.49771 0.03600
H 	H 	0.13455 0.72837 0.49597 0.04900
H 	H 	0.18670 0.75806 0.53908 0.03800
H 	H 	0.23974 0.81079 0.53890 0.03800
H 	H 	0.31067 0.73920 0.45311 0.03800
H 	H 	0.25758 0.68643 0.45328 0.03800
H 	H 	0.36277 0.76870 0.49665 0.04900
H 	H 	0.41583 0.82131 0.49731 0.03600
H 	H 	0.32238 0.91527 0.49687 0.03600
H 	H 	0.26950 0.86257 0.49542 0.04900
C 	C 	0.81166 0.81212 -0.00445 0.03800
C 	C 	0.80112 0.85390 -0.00433 -0.08000
C 	C 	0.83152 0.88409 -0.00353 0.04700
C 	C 	0.87326 0.87327 -0.00278 -0.13800
C 	C 	0.88379 0.83144 -0.00315 0.04700
C 	C 	0.85336 0.80126 -0.00398 -0.08000
C 	C 	0.77928 0.78003 -0.00476 -0.00300
C 	C 	0.78380 0.74445 -0.02865 -0.03600
C 	C 	0.75342 0.71419 -0.02870 -0.03700
C 	C 	0.71781 0.71881 -0.00488 -0.00300
C 	C 	0.71326 0.75443 0.01895 -0.03700
C 	C 	0.74363 0.78467 0.01901 -0.03700
C 	C 	0.68562 0.68652 -0.00464 0.03800
C 	C 	0.64386 0.69716 -0.00454 -0.08000
C 	C 	0.61360 0.66682 -0.00378 0.04700
C 	C 	0.62434 0.62506 -0.00303 -0.13800
C 	C 	0.66615 0.61445 -0.00337 0.04700
C 	C 	0.69639 0.64480 -0.00417 -0.08000
H 	H 	0.76930 0.86329 -0.00528 0.04900
H 	H 	0.82220 0.91596 -0.00348 0.03600
H 	H 	0.91558 0.82190 -0.00255 0.03600
H 	H 	0.86249 0.76935 -0.00356 0.04900
H 	H 	0.81060 0.74024 -0.04778 0.03800
H 	H 	0.75756 0.68741 -0.04787 0.03800
H 	H 	0.68652 0.75861 0.03817 0.03700
H 	H 	0.73952 0.81139 0.03827 0.03700
H 	H 	0.63455 0.72900 -0.00548 0.04900
H 	H 	0.58175 0.67620 -0.00374 0.03600
H 	H 	0.67563 0.58264 -0.00277 0.03600
H 	H 	0.72828 0.63560 -0.00372 0.04900
C 	C 	0.81096 0.31212 0.49581 0.03800
C 	C 	0.80026 0.35385 0.49610 -0.08000
C 	C 	0.83055 0.38415 0.49695 0.04700
C 	C 	0.87233 0.37345 0.49758 -0.13800
C 	C 	0.88299 0.33165 0.49705 0.04700
C 	C 	0.85268 0.30138 0.49617 -0.08000
C 	C 	0.77873 0.27990 0.49549 -0.00300
C 	C 	0.78333 0.24443 0.47145 -0.03700
C 	C 	0.75314 0.21401 0.47145 -0.03600
C 	C 	0.71763 0.21835 0.49548 -0.00300
C 	C 	0.71300 0.25386 0.51946 -0.03700
C 	C 	0.74319 0.28427 0.51947 -0.03700
C 	C 	0.68560 0.18593 0.49572 0.03900
C 	C 	0.64382 0.19643 0.49594 -0.08000
C 	C 	0.61368 0.16600 0.49669 0.04700
C 	C 	0.62457 0.12426 0.49729 -0.13800
C 	C 	0.66641 0.11379 0.49682 0.04700
C 	C 	0.69654 0.14426 0.49603 -0.08000
H 	H 	0.76840 0.36313 0.49526 0.04900
H 	H 	0.82114 0.41599 0.49713 0.03600
H 	H 	0.91481 0.32221 0.49756 0.03600
H 	H 	0.86192 0.26950 0.49647 0.04900
H 	H 	0.81006 0.24044 0.45218 0.03800
H 	H 	0.75732 0.18731 0.45216 0.03800
H 	H 	0.68634 0.25781 0.53883 0.03800
H 	H 	0.73903 0.31090 0.53884 0.03800
H 	H 	0.63439 0.22824 0.49511 0.04900
H 	H 	0.58180 0.17527 0.49682 0.03600
H 	H 	0.67599 0.08200 0.49730 0.03600
H 	H 	0.72847 0.13518 0.49637 0.04900
C 	C 	0.81220 0.18625 0.00559 0.03800
C 	C 	0.85399 0.19681 0.00528 -0.07900
C 	C 	0.88423 0.16642 0.00453 0.04600
C 	C 	0.87347 0.12465 0.00404 -0.13700
C 	C 	0.83164 0.11411 0.00456 0.04600
C 	C 	0.80141 0.14452 0.00534 -0.07900
C 	C 	0.78003 0.21863 0.00591 -0.00300
C 	C 	0.74442 0.21407 0.02978 -0.03700
C 	C 	0.71412 0.24443 0.02988 -0.03700
C 	C 	0.71867 0.28011 0.00610 -0.00300
C 	C 	0.75431 0.28468 -0.01772 -0.03700
C 	C 	0.78460 0.25433 -0.01781 -0.03700
C 	C 	0.68634 0.31233 0.00595 0.03800
C 	C 	0.69694 0.35410 0.00569 -0.07900
C 	C 	0.66658 0.38438 0.00504 0.04600
C 	C 	0.62480 0.37366 0.00457 -0.13700
C 	C 	0.61422 0.33184 0.00506 0.04600
C 	C 	0.64460 0.30158 0.00575 -0.07900
H 	H 	0.86336 0.22864 0.00605 0.04900
H 	H 	0.91609 0.17577 0.00435 0.03600
H 	H 	0.82214 0.08230 0.00415 0.03600
H 	H 	0.76952 0.13534 0.00506 0.04900
H 	H 	0.74024 0.18726 0.04889 0.03800
H 	H 	0.68736 0.24024 0.04906 0.03800
H 	H 	0.75847 0.31144 -0.03691 0.03700
H 	H 	0.81131 0.25850 -0.03707 0.03700
H 	H 	0.72878 0.36343 0.00643 0.04900
H 	H 	0.67596 0.41622 0.00487 0.03600
H 	H 	0.58240 0.32236 0.00467 0.03600
H 	H 	0.63538 0.26970 0.00543 0.04900
C 	C 	0.81263 0.68519 0.50631 0.04400
C 	C 	0.85440 0.69570 0.50621 -0.08800
C 	C 	0.88467 0.66533 0.50562 0.06300
C 	C 	0.87404 0.62340 0.50503 -0.17000
C 	C 	0.83205 0.61302 0.50539 0.06300
C 	C 	0.80185 0.64348 0.50603 -0.08800
C 	C 	0.78044 0.71760 0.50639 -0.00500
C 	C 	0.74463 0.71305 0.52996 -0.03500
C 	C 	0.71431 0.74341 0.52980 -0.03700
C 	C 	0.71904 0.77909 0.50606 -0.00200
C 	C 	0.75488 0.78365 0.48254 -0.03700
C 	C 	0.78518 0.75330 0.48270 -0.03600
C 	C 	0.68668 0.81133 0.50566 0.03700
C 	C 	0.69728 0.85312 0.50541 -0.07900
C 	C 	0.66692 0.88341 0.50461 0.04600
C 	C 	0.62513 0.87271 0.50400 -0.13600
C 	C 	0.61455 0.83088 0.50444 0.04600
C 	C 	0.64494 0.80061 0.50528 -0.07900
H 	H 	0.86376 0.72754 0.50703 0.05100
H 	H 	0.91645 0.67495 0.50558 0.03200
H 	H 	0.82224 0.58130 0.50494 0.03200
H 	H 	0.76995 0.63432 0.50559 0.05100
H 	H 	0.74029 0.68624 0.54905 0.03800
H 	H 	0.68740 0.73921 0.54877 0.03800
H 	H 	0.75920 0.81041 0.46338 0.03800
H 	H 	0.81204 0.75748 0.46365 0.03700
H 	H 	0.72912 0.86245 0.50629 0.04900
H 	H 	0.67630 0.91525 0.50449 0.03600
H 	H 	0.58274 0.82141 0.50394 0.03600
H 	H 	0.63571 0.76873 0.50493 0.04900
C 	C 	0.18520 0.31132 0.50591 0.03700
C 	C 	0.19589 0.35308 0.50566 -0.07900
C 	C 	0.16560 0.38347 0.50498 0.04500
C 	C 	0.12377 0.37290 0.50455 -0.13600
C 	C 	0.11309 0.33110 0.50503 0.04500
C 	C 	0.14340 0.30073 0.50568 -0.07900
C 	C 	0.21747 0.27895 0.50615 -0.00300
C 	C 	0.21285 0.24312 0.48261 -0.03700
C 	C 	0.24322 0.21282 0.48261 -0.03700
C 	C 	0.27904 0.21754 0.50614 -0.00300
C 	C 	0.28365 0.25334 0.52973 -0.03700
C 	C 	0.25327 0.28365 0.52973 -0.03700
C 	C 	0.31148 0.18534 0.50592 0.03700
C 	C 	0.35323 0.19611 0.50566 -0.07900
C 	C 	0.38367 0.16588 0.50495 0.04500
C 	C 	0.37318 0.12402 0.50451 -0.13600
C 	C 	0.33139 0.11328 0.50503 0.04500
C 	C 	0.30098 0.14352 0.50570 -0.07900
H 	H 	0.22777 0.36232 0.50531 0.04900
H 	H 	0.17507 0.41528 0.50457 0.03600
H 	H 	0.08125 0.32171 0.50491 0.03600
H 	H 	0.13407 0.26889 0.50645 0.04900
H 	H 	0.18601 0.23880 0.46356 0.03700
H 	H 	0.23897 0.18598 0.46355 0.03700
H 	H 	0.31054 0.25768 0.54871 0.03800
H 	H 	0.25754 0.31054 0.54871 0.03800
H 	H 	0.36241 0.22800 0.50530 0.04900
H 	H 	0.41547 0.17540 0.50452 0.03600
H 	H 	0.32206 0.08142 0.50490 0.03600
H 	H 	0.26915 0.13413 0.50649 0.04900
C 	C 	0.18487 0.81251 0.00553 0.04400
C 	C 	0.19555 0.85426 0.00531 -0.08700
C 	C 	0.16529 0.88469 0.00468 0.06200
C 	C 	0.12329 0.87427 0.00426 -0.16900
C 	C 	0.11276 0.83231 0.00477 0.06200
C 	C 	0.14309 0.80196 0.00537 -0.08700
C 	C 	0.21716 0.78010 0.00566 -0.00500
C 	C 	0.21243 0.74424 -0.01782 -0.03600
C 	C 	0.24279 0.71391 -0.01790 -0.03700
C 	C 	0.27871 0.71861 0.00549 -0.00200
C 	C 	0.28343 0.75445 0.02901 -0.03700
C 	C 	0.25306 0.78479 0.02909 -0.03500
C 	C 	0.31114 0.68635 0.00519 0.03700
C 	C 	0.35290 0.69707 0.00489 -0.07900
C 	C 	0.38333 0.66680 0.00419 0.04500
C 	C 	0.37281 0.62495 0.00379 -0.13500
C 	C 	0.33101 0.61425 0.00431 0.04500
C 	C 	0.30061 0.64454 0.00497 -0.07900
H 	H 	0.22743 0.86349 0.00492 0.05100
H 	H 	0.17505 0.91642 0.00428 0.03200
H 	H 	0.08099 0.82264 0.00469 0.03300
H 	H 	0.13376 0.77012 0.00614 0.05100
H 	H 	0.18552 0.73992 -0.03676 0.03700
H 	H 	0.23843 0.68705 -0.03691 0.03700
H 	H 	0.31039 0.75880 0.04788 0.03800
H 	H 	0.25743 0.81169 0.04803 0.03800
H 	H 	0.36212 0.72895 0.00453 0.04900
H 	H 	0.41513 0.67630 0.00375 0.03600
H 	H 	0.32165 0.58240 0.00421 0.03600
H 	H 	0.26878 0.63516 0.00579 0.04900
C 	C 	-0.00628 0.18633 0.18759 0.03800
C 	C 	-0.00594 0.19691 0.14581 -0.07900
C 	C 	-0.00511 0.16654 0.11554 0.04600
C 	C 	-0.00455 0.12475 0.12627 -0.13600
C 	C 	-0.00510 0.11420 0.16810 0.04600
C 	C 	-0.00596 0.14460 0.19835 -0.07900
C 	C 	-0.00670 0.21869 0.21981 -0.00300
C 	C 	-0.03052 0.21401 0.25544 -0.03700
C 	C 	-0.03066 0.24431 0.28581 -0.03700
C 	C 	-0.00698 0.28005 0.28132 -0.00300
C 	C 	0.01678 0.28476 0.24566 -0.03700
C 	C 	0.01692 0.25447 0.21530 -0.03700
C 	C 	-0.00687 0.31221 0.31374 0.03800
C 	C 	-0.00670 0.35401 0.30323 -0.07900
C 	C 	-0.00609 0.38423 0.33365 0.04600
C 	C 	-0.00557 0.37343 0.37542 -0.13600
C 	C 	-0.00599 0.33159 0.38591 0.04600
C 	C 	-0.00664 0.30138 0.35546 -0.07900
H 	H 	-0.00676 0.22875 0.13645 0.04900
H 	H 	-0.00490 0.17590 0.08369 0.03600
H 	H 	-0.00464 0.08240 0.17760 0.03600
H 	H 	-0.00569 0.13539 0.23023 0.04900
H 	H 	-0.04956 0.18714 0.25959 0.03800
H 	H 	-0.04980 0.24000 0.31259 0.03800
H 	H 	0.03589 0.31158 0.24153 0.03700
H 	H 	0.03614 0.25875 0.18858 0.03700
H 	H 	-0.00747 0.36341 0.27141 0.04900
H 	H 	-0.00598 0.41609 0.32434 0.03600
H 	H 	-0.00556 0.32205 0.41771 0.03600
H 	H 	-0.00626 0.26948 0.36462 0.04900
C 	C 	0.49427 0.31140 0.81423 0.03800
C 	C 	0.49455 0.35312 0.80337 -0.07900
C 	C 	0.49526 0.38359 0.83355 0.04600
C 	C 	0.49568 0.37313 0.87541 -0.13600
C 	C 	0.49515 0.33137 0.88623 0.04600
C 	C 	0.49448 0.30092 0.85603 -0.07900
C 	C 	0.49403 0.27896 0.78209 -0.00300
C 	C 	0.51771 0.24324 0.78678 -0.03700
C 	C 	0.51772 0.21286 0.75651 -0.03700
C 	C 	0.49405 0.21741 0.72077 -0.00300
C 	C 	0.47030 0.25309 0.71611 -0.03700
C 	C 	0.47029 0.28348 0.74639 -0.03700
C 	C 	0.49433 0.18518 0.68842 0.03800
C 	C 	0.49461 0.19592 0.64668 -0.07900
C 	C 	0.49536 0.16567 0.61629 0.04600
C 	C 	0.49583 0.12384 0.62685 -0.13600
C 	C 	0.49531 0.11312 0.66863 0.04600
C 	C 	0.49460 0.14339 0.69900 -0.07900
H 	H 	0.49492 0.36225 0.77146 0.04900
H 	H 	0.49571 0.41537 0.82399 0.03600
H 	H 	0.49526 0.32207 0.91810 0.03600
H 	H 	0.49368 0.26911 0.86546 0.04900
H 	H 	0.53686 0.23908 0.81357 0.03700
H 	H 	0.53688 0.18609 0.76077 0.03700
H 	H 	0.45122 0.25727 0.68927 0.03800
H 	H 	0.45121 0.31030 0.74210 0.03800
H 	H 	0.49494 0.22781 0.63747 0.04900
H 	H 	0.49579 0.17517 0.58449 0.03600
H 	H 	0.49546 0.08127 0.67800 0.03600
H 	H 	0.49381 0.13405 0.73084 0.04900
C 	C 	-0.00579 0.81229 0.81527 0.04400
C 	C 	-0.00549 0.85402 0.80451 -0.08700
C 	C 	-0.00473 0.88450 0.83471 0.06200
C 	C 	-0.00426 0.87416 0.87672 -0.16900
C 	C 	-0.00483 0.83222 0.88734 0.06200
C 	C 	-0.00555 0.80182 0.85706 -0.08700
C 	C 	-0.00611 0.77983 0.78305 -0.00500
C 	C 	0.01731 0.74392 0.78777 -0.03600
C 	C 	0.01721 0.71353 0.75748 -0.03700
C 	C 	-0.00630 0.71822 0.72163 -0.00200
C 	C 	-0.02977 0.75409 0.71693 -0.03700
C 	C 	-0.02967 0.78449 0.74724 -0.03500
C 	C 	-0.00616 0.68593 0.68924 0.03700
C 	C 	-0.00596 0.69662 0.64748 -0.07900
C 	C 	-0.00537 0.66633 0.61708 0.04500
C 	C 	-0.00497 0.62449 0.62762 -0.13500
C 	C 	-0.00540 0.61381 0.66942 0.04500
C 	C 	-0.00596 0.64412 0.69980 -0.07900
H 	H 	-0.00514 0.86318 0.77261 0.05100
H 	H 	-0.00428 0.91622 0.82490 0.03300
H 	H 	-0.00472 0.82260 0.91912 0.03300
H 	H 	-0.00639 0.76999 0.86646 0.05100
H 	H 	0.03635 0.73961 0.81462 0.03700
H 	H 	0.03618 0.68664 0.76181 0.03700
H 	H 	-0.04874 0.75843 0.69004 0.03800
H 	H 	-0.04857 0.81143 0.74289 0.03800
H 	H 	-0.00558 0.72849 0.63823 0.04900
H 	H 	-0.00499 0.67582 0.58526 0.03600
H 	H 	-0.00530 0.58197 0.67880 0.03600
H 	H 	-0.00669 0.63477 0.73164 0.04900
C 	C 	0.49327 0.68667 0.18720 0.03800
C 	C 	0.49342 0.69728 0.14545 -0.08000
C 	C 	0.49423 0.66693 0.11522 0.04700
C 	C 	0.49497 0.62518 0.12601 -0.13800
C 	C 	0.49458 0.61459 0.16783 0.04700
C 	C 	0.49373 0.64497 0.19803 -0.08000
C 	C 	0.49301 0.71896 0.21934 -0.00300
C 	C 	0.46907 0.71439 0.25489 -0.03700
C 	C 	0.46916 0.74463 0.28527 -0.03700
C 	C 	0.49318 0.78012 0.28080 -0.00300
C 	C 	0.51704 0.78472 0.24521 -0.03700
C 	C 	0.51696 0.75450 0.21485 -0.03700
C 	C 	0.49356 0.81215 0.31320 0.03800
C 	C 	0.49373 0.85393 0.30270 -0.08000
C 	C 	0.49463 0.88407 0.33313 0.04700
C 	C 	0.49542 0.87317 0.37486 -0.13800
C 	C 	0.49501 0.83133 0.38534 0.04700
C 	C 	0.49408 0.80121 0.35487 -0.08000
H 	H 	0.49250 0.72912 0.13611 0.04900
H 	H 	0.49431 0.67627 0.08336 0.03600
H 	H 	0.49518 0.58280 0.17734 0.03600
H 	H 	0.49415 0.63580 0.22993 0.04900
H 	H 	0.44982 0.68767 0.25897 0.03800
H 	H 	0.44996 0.74048 0.31203 0.03800
H 	H 	0.53639 0.81138 0.24116 0.03700
H 	H 	0.53625 0.75861 0.18815 0.03700
H 	H 	0.49276 0.86336 0.27089 0.04900
H 	H 	0.49471 0.91595 0.32386 0.03600
H 	H 	0.49564 0.82175 0.41711 0.03600
H 	H 	0.49447 0.76928 0.36395 0.04900
C 	C 	0.00368 0.81213 0.18850 0.03800
C 	C 	0.00341 0.80127 0.14679 -0.07900
C 	C 	0.00273 0.83145 0.11633 0.04600
C 	C 	0.00232 0.87330 0.12681 -0.13700
C 	C 	0.00285 0.88412 0.16856 0.04600
C 	C 	0.00349 0.85393 0.19899 -0.07900
C 	C 	0.00386 0.78001 0.22093 -0.00300
C 	C 	-0.01991 0.78471 0.25659 -0.03700
C 	C 	-0.01996 0.75446 0.28698 -0.03700
C 	C 	0.00373 0.71874 0.28248 -0.00300
C 	C 	0.02756 0.71406 0.24686 -0.03600
C 	C 	0.02762 0.74433 0.21646 -0.03600
C 	C 	0.00338 0.68642 0.31470 0.03800
C 	C 	0.00302 0.64469 0.30395 -0.07900
C 	C 	0.00219 0.61431 0.33421 0.04600
C 	C 	0.00173 0.62489 0.37603 -0.13700
C 	C 	0.00233 0.66667 0.38676 0.04600
C 	C 	0.00312 0.69703 0.35648 -0.07900
H 	H 	0.00303 0.76936 0.13766 0.04900
H 	H 	0.00229 0.82189 0.08454 0.03600
H 	H 	0.00275 0.91599 0.17786 0.03600
H 	H 	0.00429 0.86335 0.23081 0.04900
H 	H 	-0.03908 0.81150 0.26070 0.03700
H 	H 	-0.03918 0.75872 0.31371 0.03700
H 	H 	0.04665 0.68723 0.24272 0.03800
H 	H 	0.04675 0.74004 0.18968 0.03800
H 	H 	0.00269 0.63547 0.27207 0.04900
H 	H 	0.00170 0.58250 0.32472 0.03600
H 	H 	0.00218 0.67604 0.41860 0.03600
H 	H 	0.00397 0.72887 0.36581 0.04900
C 	C 	0.50377 0.68460 0.81416 0.04400
C 	C 	0.50339 0.69538 0.85588 -0.08700
C 	C 	0.50261 0.66520 0.88637 0.06200
C 	C 	0.50220 0.62318 0.87605 -0.16900
C 	C 	0.50286 0.61254 0.83412 0.06200
C 	C 	0.50360 0.64280 0.80371 -0.08700
C 	C 	0.50410 0.71680 0.78169 -0.00500
C 	C 	0.48073 0.71205 0.74576 -0.03600
C 	C 	0.48080 0.74235 0.71538 -0.03700
C 	C 	0.50426 0.77823 0.72010 -0.00200
C 	C 	0.52769 0.78295 0.75599 -0.03700
C 	C 	0.52761 0.75264 0.78638 -0.03500
C 	C 	0.50408 0.81063 0.68783 0.03700
C 	C 	0.50378 0.85240 0.69854 -0.07900
C 	C 	0.50312 0.88281 0.66827 0.04500
C 	C 	0.50276 0.87228 0.62642 -0.13500
C 	C 	0.50331 0.83048 0.61573 0.04500
C 	C 	0.50393 0.80009 0.64602 -0.07900
H 	H 	0.50299 0.72728 0.86502 0.05100
H 	H 	0.50210 0.67503 0.91808 0.03300
H 	H 	0.50279 0.58075 0.82453 0.03300
H 	H 	0.50449 0.63339 0.77189 0.05100
H 	H 	0.46173 0.68518 0.74143 0.03700
H 	H 	0.46186 0.73800 0.68847 0.03800
H 	H 	0.54661 0.80987 0.76035 0.03800
H 	H 	0.54648 0.75702 0.81334 0.03800
H 	H 	0.50335 0.86162 0.73042 0.04900
H 	H 	0.50265 0.91461 0.67776 0.03600
H 	H 	0.50324 0.82111 0.58388 0.03600
H 	H 	0.50475 0.76825 0.63666 0.04900
C 	C 	0.50395 0.31244 0.18841 0.03800
C 	C 	0.50368 0.30168 0.14668 -0.07900
C 	C 	0.50292 0.33193 0.11628 0.04600
C 	C 	0.50243 0.37376 0.12684 -0.13600
C 	C 	0.50296 0.38449 0.16863 0.04600
C 	C 	0.50368 0.35422 0.19900 -0.07900
C 	C 	0.50422 0.28022 0.22076 -0.00300
C 	C 	0.48052 0.28477 0.25648 -0.03700
C 	C 	0.48052 0.25440 0.28676 -0.03700
C 	C 	0.50421 0.21869 0.28210 -0.00300
C 	C 	0.52798 0.21416 0.24641 -0.03700
C 	C 	0.52798 0.24454 0.21613 -0.03600
C 	C 	0.50395 0.18626 0.31423 0.03800
C 	C 	0.50367 0.14454 0.30338 -0.07900
C 	C 	0.50294 0.11408 0.33357 0.04600
C 	C 	0.50250 0.12455 0.37542 -0.13600
C 	C 	0.50302 0.16631 0.38624 0.04600
C 	C 	0.50372 0.19674 0.35604 -0.07900
H 	H 	0.50335 0.26980 0.13747 0.04900
H 	H 	0.50248 0.32244 0.08448 0.03600
H 	H 	0.50279 0.41634 0.17799 0.03600
H 	H 	0.50446 0.36357 0.23083 0.04900
H 	H 	0.46134 0.31153 0.26072 0.03800
H 	H 	0.46134 0.25856 0.31353 0.03800
H 	H 	0.54707 0.18735 0.24215 0.03800
H 	H 	0.54708 0.24036 0.18931 0.03800
H 	H 	0.50333 0.13541 0.27148 0.04900
H 	H 	0.50250 0.08229 0.32401 0.03600
H 	H 	0.50290 0.17560 0.41811 0.03600
H 	H 	0.50452 0.22856 0.36546 0.04900
C 	C 	0.00352 0.18444 0.81441 0.04400
C 	C 	0.00333 0.19511 0.85617 -0.08700
C 	C 	0.00275 0.16485 0.88660 0.06200
C 	C 	0.00234 0.12285 0.87620 -0.16900
C 	C 	0.00281 0.11231 0.83423 0.06200
C 	C 	0.00335 0.14265 0.80388 -0.08700
C 	C 	0.00360 0.21675 0.78201 -0.00500
C 	C 	-0.01988 0.21202 0.74615 -0.03600
C 	C 	-0.02004 0.24243 0.71585 -0.03700
C 	C 	0.00327 0.27840 0.72058 -0.00200
C 	C 	0.02681 0.28310 0.75641 -0.03700
C 	C 	0.02698 0.25269 0.78672 -0.03600
C 	C 	0.00289 0.31089 0.68837 0.03700
C 	C 	0.00260 0.35264 0.69915 -0.07900
C 	C 	0.00182 0.38312 0.66892 0.04500
C 	C 	0.00135 0.37268 0.62705 -0.13500
C 	C 	0.00186 0.33089 0.61629 0.04500
C 	C 	0.00260 0.30044 0.64653 -0.07800
H 	H 	0.00293 0.22699 0.86540 0.05100
H 	H 	0.00238 0.17461 0.91833 0.03300
H 	H 	0.00273 0.08054 0.82457 0.03300
H 	H 	0.00409 0.13332 0.77203 0.05100
H 	H 	-0.03878 0.18509 0.74180 0.03700
H 	H 	-0.03906 0.23807 0.68900 0.03800
H 	H 	0.04564 0.31008 0.76079 0.03800
H 	H 	0.04592 0.25707 0.81361 0.03800
H 	H 	0.00228 0.36182 0.73104 0.04900
H 	H 	0.00139 0.41491 0.67847 0.03600
H 	H 	0.00171 0.32158 0.58443 0.03600
H 	H 	0.00341 0.26863 0.63710 0.04900
C 	C 	0.18584 -0.00630 0.18819 0.03800
C 	C 	0.19660 -0.00600 0.14647 -0.07900
C 	C 	0.16636 -0.00521 0.11609 0.04600
C 	C 	0.12454 -0.00473 0.12668 -0.13700
C 	C 	0.11380 -0.00529 0.16845 0.04600
C 	C 	0.14407 -0.00604 0.19880 -0.07900
C 	C 	0.21803 -0.00659 0.22052 -0.00300
C 	C 	0.21351 0.01720 0.25618 -0.03700
C 	C 	0.24385 0.01717 0.28646 -0.03700
C 	C 	0.27948 -0.00665 0.28185 -0.00300
C 	C 	0.28399 -0.03049 0.24622 -0.03700
C 	C 	0.25363 -0.03046 0.21593 -0.03600
C 	C 	0.31184 -0.00644 0.31400 0.03800
C 	C 	0.35356 -0.00614 0.30320 -0.07900
C 	C 	0.38397 -0.00541 0.33342 0.04600
C 	C 	0.37342 -0.00499 0.37525 -0.13700
C 	C 	0.33165 -0.00557 0.38602 0.04600
C 	C 	0.30127 -0.00626 0.35578 -0.08000
H 	H 	0.22849 -0.00567 0.13726 0.04900
H 	H 	0.17584 -0.00475 0.08428 0.03600
H 	H 	0.08196 -0.00514 0.17782 0.03600
H 	H 	0.13474 -0.00686 0.23065 0.04900
H 	H 	0.18680 0.03645 0.26036 0.03800
H 	H 	0.23973 0.03640 0.31320 0.03700
H 	H 	0.31076 -0.04966 0.24202 0.03800
H 	H 	0.25777 -0.04961 0.18913 0.03800
H 	H 	0.36273 -0.00576 0.27130 0.04900
H 	H 	0.41577 -0.00494 0.32391 0.03600
H 	H 	0.32230 -0.00547 0.41787 0.03600
H 	H 	0.26944 -0.00708 0.36514 0.04900
C 	C 	0.31161 0.49356 0.81392 0.03800
C 	C 	0.30106 0.49367 0.85570 -0.08000
C 	C 	0.33145 0.49445 0.88591 0.04600
C 	C 	0.37321 0.49520 0.87512 -0.13700
C 	C 	0.38375 0.49484 0.83329 0.04600
C 	C 	0.35332 0.49401 0.80308 -0.08000
C 	C 	0.27921 0.49330 0.78180 -0.00300
C 	C 	0.28373 0.46952 0.74614 -0.03700
C 	C 	0.25330 0.46946 0.71591 -0.03700
C 	C 	0.21763 0.49320 0.72061 -0.00300
C 	C 	0.21311 0.51695 0.75629 -0.03700
C 	C 	0.24351 0.51700 0.78650 -0.03700
C 	C 	0.18535 0.49339 0.68837 0.03800
C 	C 	0.14361 0.49351 0.69910 -0.08000
C 	C 	0.11325 0.49425 0.66883 0.04600
C 	C 	0.12387 0.49494 0.62703 -0.13700
C 	C 	0.16567 0.49458 0.61633 0.04600
C 	C 	0.19600 0.49380 0.64662 -0.08000
H 	H 	0.26924 0.49272 0.86508 0.04900
H 	H 	0.32211 0.49450 0.91777 0.03600
H 	H 	0.41554 0.49544 0.82377 0.03600
H 	H 	0.36247 0.49444 0.77118 0.04900
H 	H 	0.31055 0.45044 0.74186 0.03800
H 	H 	0.25745 0.45035 0.68909 0.03800
H 	H 	0.18634 0.53611 0.76055 0.03700
H 	H 	0.23939 0.53620 0.81327 0.03700
H 	H 	0.13436 0.49261 0.73097 0.04900
H 	H 	0.08143 0.49431 0.67829 0.03600
H 	H 	0.17507 0.49514 0.58450 0.03600
H 	H 	0.22786 0.49423 0.63733 0.04900
C 	C 	0.81205 -0.00664 0.81375 0.03800
C 	C 	0.80138 -0.00651 0.85550 -0.08000
C 	C 	0.83168 -0.00573 0.88580 0.04700
C 	C 	0.87346 -0.00502 0.87511 -0.13800
C 	C 	0.88411 -0.00540 0.83331 0.04600
C 	C 	0.85378 -0.00621 0.80303 -0.08000
C 	C 	0.77977 -0.00690 0.78154 -0.00300
C 	C 	0.78440 -0.03074 0.74593 -0.03700
C 	C 	0.75411 -0.03076 0.71558 -0.03700
C 	C 	0.71847 -0.00694 0.72012 -0.00300
C 	C 	0.71384 0.01686 0.75575 -0.03700
C 	C 	0.74411 0.01688 0.78608 -0.03700
C 	C 	0.68631 -0.00676 0.68779 0.03800
C 	C 	0.64456 -0.00670 0.69842 -0.08000
C 	C 	0.61429 -0.00599 0.66809 0.04600
C 	C 	0.62502 -0.00527 0.62631 -0.13700
C 	C 	0.66683 -0.00559 0.61570 0.04700
C 	C 	0.69708 -0.00634 0.64607 -0.08000
H 	H 	0.76952 -0.00743 0.86479 0.04900
H 	H 	0.82227 -0.00566 0.91764 0.03600
H 	H 	0.91593 -0.00482 0.82386 0.03600
H 	H 	0.86301 -0.00580 0.77115 0.04900
H 	H 	0.81121 -0.04987 0.74179 0.03800
H 	H 	0.75832 -0.04990 0.68879 0.03800
H 	H 	0.68709 0.03607 0.75987 0.03700
H 	H 	0.73992 0.03611 0.81281 0.03700
H 	H 	0.63523 -0.00762 0.73026 0.04900
H 	H 	0.58245 -0.00597 0.67748 0.03600
H 	H 	0.67630 -0.00502 0.58389 0.03600
H 	H 	0.72897 -0.00588 0.63687 0.04900
C 	C 	0.68598 0.49524 0.18873 0.03700
C 	C 	0.69674 0.49546 0.14697 -0.07800
C 	C 	0.66651 0.49607 0.11648 0.04400
C 	C 	0.62463 0.49646 0.12692 -0.13400
C 	C 	0.61389 0.49603 0.16872 0.04500
C 	C 	0.64414 0.49545 0.19917 -0.07800
C 	C 	0.71820 0.49501 0.22125 -0.00200
C 	C 	0.71337 0.51831 0.25722 -0.03700
C 	C 	0.74363 0.51824 0.28767 -0.03500
C 	C 	0.77958 0.49487 0.28300 -0.00500
C 	C 	0.78439 0.47152 0.24705 -0.03500
C 	C 	0.75412 0.47159 0.21659 -0.03700
C 	C 	0.81193 0.49501 0.31539 0.04400
C 	C 	0.85371 0.49520 0.30481 -0.08700
C 	C 	0.88409 0.49577 0.33513 0.06200
C 	C 	0.87362 0.49617 0.37712 -0.16800
C 	C 	0.83163 0.49573 0.38756 0.06200
C 	C 	0.80133 0.49520 0.35716 -0.08700
H 	H 	0.72864 0.49583 0.13779 0.04900
H 	H 	0.67604 0.49645 0.08469 0.03600
H 	H 	0.58203 0.49612 0.17804 0.03600
H 	H 	0.63471 0.49469 0.23099 0.04900
H 	H 	0.68646 0.53724 0.26155 0.03800
H 	H 	0.73918 0.53713 0.31459 0.03700
H 	H 	0.81135 0.45265 0.24270 0.03800
H 	H 	0.75859 0.45277 0.18962 0.03800
H 	H 	0.86300 0.49559 0.27295 0.05100
H 	H 	0.91584 0.49613 0.32542 0.03300
H 	H 	0.82191 0.49581 0.41932 0.03300
H 	H 	0.76947 0.49445 0.36644 0.05100
C 	C 	0.18649 0.00338 0.81403 0.03800
C 	C 	0.14477 0.00307 0.80323 -0.07900
C 	C 	0.11436 0.00236 0.83345 0.04600
C 	C 	0.12492 0.00197 0.87528 -0.13700
C 	C 	0.16669 0.00254 0.88605 0.04600
C 	C 	0.19706 0.00321 0.85580 -0.08000
C 	C 	0.21884 0.00357 0.78187 -0.00300
C 	C 	0.25446 -0.02025 0.78648 -0.03700
C 	C 	0.28478 -0.02030 0.75618 -0.03700
C 	C 	0.28024 0.00347 0.72051 -0.00300
C 	C 	0.24464 0.02734 0.71592 -0.03600
C 	C 	0.21431 0.02739 0.74623 -0.03700
C 	C 	0.31242 0.00317 0.68818 0.03800
C 	C 	0.30164 0.00282 0.64646 -0.08000
C 	C 	0.33188 0.00205 0.61607 0.04600
C 	C 	0.37370 0.00163 0.62665 -0.13700
C 	C 	0.38445 0.00223 0.66843 0.04600
C 	C 	0.35419 0.00297 0.69878 -0.07900
H 	H 	0.13559 0.00267 0.77133 0.04900
H 	H 	0.08256 0.00189 0.82394 0.03600
H 	H 	0.17604 0.00246 0.91790 0.03600
H 	H 	0.22890 0.00403 0.86516 0.04900
H 	H 	0.25859 -0.03947 0.81323 0.03800
H 	H 	0.31150 -0.03955 0.76035 0.03800
H 	H 	0.24049 0.04648 0.68912 0.03800
H 	H 	0.18754 0.04656 0.74204 0.03800
H 	H 	0.26975 0.00246 0.63726 0.04900
H 	H 	0.32239 0.00156 0.58427 0.03600
H 	H 	0.41629 0.00213 0.67779 0.03600
H 	H 	0.36353 0.00382 0.73062 0.04900
C 	C 	0.31133 0.50406 0.18788 0.03700
C 	C 	0.30079 0.50389 0.14608 -0.07900
C 	C 	0.33118 0.50325 0.11581 0.04500
C 	C 	0.37297 0.50273 0.12652 -0.13600
C 	C 	0.38350 0.50313 0.16836 0.04500
C 	C 	0.35308 0.50380 0.19862 -0.07900
C 	C 	0.27892 0.50424 0.22011 -0.00300
C 	C 	0.28355 0.52780 0.25593 -0.03700
C 	C 	0.25319 0.52776 0.28625 -0.03700
C 	C 	0.21740 0.50417 0.28155 -0.00300
C 	C 	0.21276 0.48066 0.24570 -0.03700
C 	C 	0.24311 0.48070 0.21539 -0.03700
C 	C 	0.18514 0.50390 0.31392 0.03700
C 	C 	0.14335 0.50371 0.30334 -0.07900
C 	C 	0.11305 0.50300 0.33371 0.04500
C 	C 	0.12374 0.50242 0.37551 -0.13600
C 	C 	0.16557 0.50283 0.38607 0.04500
C 	C 	0.19585 0.50358 0.35568 -0.07900
H 	H 	0.26896 0.50468 0.13671 0.04900
H 	H 	0.32181 0.50316 0.08396 0.03600
H 	H 	0.41531 0.50269 0.17786 0.03600
H 	H 	0.36229 0.50341 0.23051 0.04900
H 	H 	0.31043 0.54679 0.26026 0.03800
H 	H 	0.25747 0.54672 0.31316 0.03800
H 	H 	0.18593 0.46161 0.24138 0.03700
H 	H 	0.23885 0.46166 0.18853 0.03700
H 	H 	0.13401 0.50455 0.27151 0.04900
H 	H 	0.08121 0.50290 0.32433 0.03600
H 	H 	0.17505 0.50235 0.41788 0.03600
H 	H 	0.22773 0.50320 0.36491 0.04900
C 	C 	0.81269 0.00350 0.18665 0.04300
C 	C 	0.80218 0.00329 0.14486 -0.08700
C 	C 	0.83254 0.00266 0.11452 0.06100
C 	C 	0.87451 0.00217 0.12506 -0.16900
C 	C 	0.88489 0.00262 0.16706 0.06200
C 	C 	0.85445 0.00329 0.19732 -0.08700
C 	C 	0.78026 0.00370 0.21895 -0.00500
C 	C 	0.78499 0.02708 0.25488 -0.03600
C 	C 	0.75463 0.02705 0.28526 -0.03700
C 	C 	0.71872 0.00363 0.28053 -0.00200
C 	C 	0.71397 -0.01970 0.24457 -0.03800
C 	C 	0.74432 -0.01967 0.21420 -0.03600
C 	C 	0.68644 0.00339 0.31298 0.03700
C 	C 	0.64461 0.00316 0.30247 -0.07800
C 	C 	0.61432 0.00250 0.33288 0.04400
C 	C 	0.62500 0.00200 0.37469 -0.13500
C 	C 	0.66686 0.00243 0.38519 0.04400
C 	C 	0.69714 0.00313 0.35475 -0.07800
H 	H 	0.77034 0.00406 0.13550 0.05100
H 	H 	0.82288 0.00255 0.08275 0.03300
H 	H 	0.91663 0.00223 0.17683 0.03300
H 	H 	0.86367 0.00293 0.22920 0.05000
H 	H 	0.81194 0.04594 0.25929 0.03700
H 	H 	0.75903 0.04588 0.31223 0.03800
H 	H 	0.68706 -0.03863 0.24018 0.03700
H 	H 	0.73994 -0.03858 0.18728 0.03700
H 	H 	0.63523 0.00395 0.27064 0.04800
H 	H 	0.58247 0.00237 0.32352 0.03600
H 	H 	0.67636 0.00201 0.41699 0.03600
H 	H 	0.72902 0.00277 0.36398 0.04800
C 	C 	0.68500 0.50383 0.81513 0.04400
C 	C 	0.64327 0.50354 0.80444 -0.08700
C 	C 	0.61286 0.50285 0.83469 0.06300
C 	C 	0.62330 0.50244 0.87667 -0.17000
C 	C 	0.66525 0.50302 0.88722 0.06300
C 	C 	0.69558 0.50367 0.85689 -0.08800
C 	C 	0.71735 0.50402 0.78287 -0.00500
C 	C 	0.75312 0.48040 0.78751 -0.03600
C 	C 	0.78343 0.48035 0.75715 -0.03700
C 	C 	0.77876 0.50393 0.72135 -0.00200
C 	C 	0.74301 0.52759 0.71673 -0.03700
C 	C 	0.71270 0.52763 0.74710 -0.03500
C 	C 	0.81098 0.50368 0.68895 0.03700
C 	C 	0.80023 0.50342 0.64720 -0.07900
C 	C 	0.83049 0.50271 0.61679 0.04500
C 	C 	0.87233 0.50225 0.62733 -0.13600
C 	C 	0.88304 0.50276 0.66912 0.04600
C 	C 	0.85277 0.50344 0.69950 -0.07900
H 	H 	0.63405 0.50315 0.77255 0.05100
H 	H 	0.58112 0.50241 0.82493 0.03300
H 	H 	0.67492 0.50295 0.91899 0.03300
H 	H 	0.72742 0.50449 0.86621 0.05100
H 	H 	0.75739 0.46133 0.81433 0.03700
H 	H 	0.81023 0.46125 0.76139 0.03800
H 	H 	0.73872 0.54659 0.68985 0.03800
H 	H 	0.68584 0.54667 0.74283 0.03800
H 	H 	0.76835 0.50308 0.63799 0.04900
H 	H 	0.82100 0.50228 0.58498 0.03600
H 	H 	0.91489 0.50262 0.67849 0.03600
H 	H 	0.86214 0.50423 0.73134 0.04900
