data_crystal

_cell_length_a 35.07650
_cell_length_b 35.07650
_cell_length_c 35.07650
_cell_angle_alpha 90.00000
_cell_angle_beta  90.00000
_cell_angle_gamma 90.00000

_symmetry_space_group_name_	'P 1'
_symmetry_space_group_name_H-M	'P 1'

loop_
_symmetry_equiv_pos_as_xyz
  x,y,z

loop_
_atom_site_label
_atom_site_type_symbol
_atom_site_fract_x
_atom_site_fract_y
_atom_site_fract_z
_atom_site_charge
C 	C 	0.29734 0.45348 0.90348 -0.16900
C 	C 	0.33057 0.46932 0.91997 0.12700
C 	C 	0.34767 0.45326 0.95289 -0.19800
C 	C 	0.32979 0.42124 0.96983 0.12500
C 	C 	0.29653 0.40476 0.95413 -0.16900
C 	C 	0.28052 0.42146 0.92115 0.11400
H 	H 	0.34413 0.49328 0.90600 0.05400
H 	H 	0.34278 0.40790 0.99447 0.05400
H 	H 	0.25575 0.40840 0.90816 0.05500
C 	C 	0.45387 0.84574 0.45415 -0.16500
C 	C 	0.47050 0.82848 0.42181 0.11100
C 	C 	0.45483 0.79528 0.40531 -0.16400
C 	C 	0.42236 0.77875 0.42247 0.10900
C 	C 	0.40504 0.79526 0.45484 -0.16400
C 	C 	0.42146 0.82848 0.47061 0.11100
H 	H 	0.49464 0.84211 0.40821 0.05700
H 	H 	0.40930 0.75405 0.40935 0.05700
H 	H 	0.40776 0.84213 0.49468 0.05700
C 	C 	0.95351 0.90251 0.79807 -0.20600
C 	C 	0.92149 0.92045 0.78130 0.13000
C 	C 	0.90502 0.95361 0.79716 -0.17600
C 	C 	0.92169 0.96943 0.83027 0.13000
C 	C 	0.95377 0.95253 0.84807 -0.20500
C 	C 	0.96967 0.91944 0.83107 0.14200
H 	H 	0.90816 0.90761 0.75658 0.05200
H 	H 	0.90847 0.99418 0.84316 0.05200
H 	H 	0.99376 0.90572 0.84468 0.05000
C 	C 	0.45355 0.90497 0.29714 -0.17600
C 	C 	0.42053 0.92169 0.28126 0.13000
C 	C 	0.40275 0.95378 0.29811 -0.20600
C 	C 	0.41969 0.96972 0.33117 0.14200
C 	C 	0.45262 0.95355 0.34819 -0.20500
C 	C 	0.46938 0.92144 0.33034 0.13000
H 	H 	0.40768 0.90850 0.25647 0.05300
H 	H 	0.40606 0.99385 0.34482 0.05000
H 	H 	0.49403 0.90805 0.34327 0.05200
C 	C 	0.79672 0.29576 0.34487 -0.16200
C 	C 	0.82982 0.27986 0.32831 0.11000
C 	C 	0.84748 0.29668 0.29625 -0.16000
C 	C 	0.83085 0.32971 0.28029 0.11100
C 	C 	0.79776 0.34637 0.29610 -0.16000
C 	C 	0.78084 0.32880 0.32815 0.10900
H 	H 	0.84294 0.25523 0.34151 0.05900
H 	H 	0.84472 0.34351 0.25640 0.06000
H 	H 	0.75617 0.34194 0.34125 0.05700
C 	C 	0.79637 0.84504 0.79621 -0.17000
C 	C 	0.82977 0.82873 0.78070 0.12800
C 	C 	0.84747 0.79658 0.79749 -0.19900
C 	C 	0.82999 0.78007 0.82998 0.13800
C 	C 	0.79663 0.79580 0.84656 -0.19700
C 	C 	0.77995 0.82798 0.82879 0.12600
H 	H 	0.84305 0.84238 0.75639 0.05600
H 	H 	0.84357 0.75592 0.84362 0.05500
H 	H 	0.75501 0.84108 0.84144 0.05700
C 	C 	0.95381 0.34611 0.45282 -0.16500
C 	C 	0.96989 0.32951 0.41983 0.11300
C 	C 	0.95419 0.29636 0.40318 -0.16500
C 	C 	0.92219 0.27935 0.42074 0.11100
C 	C 	0.90542 0.29521 0.45375 -0.16100
C 	C 	0.92187 0.32834 0.46966 0.11000
H 	H 	0.99369 0.34347 0.40600 0.05600
H 	H 	0.90914 0.25465 0.40760 0.05900
H 	H 	0.90861 0.34145 0.49426 0.05700
C 	C 	0.45216 0.45236 0.84663 -0.16800
C 	C 	0.41943 0.46862 0.82978 0.11600
C 	C 	0.40237 0.45242 0.79713 -0.16500
C 	C 	0.41922 0.41965 0.78086 0.11400
C 	C 	0.45200 0.40272 0.79698 -0.16800
C 	C 	0.46832 0.41966 0.82964 0.11500
H 	H 	0.40616 0.49308 0.84315 0.05800
H 	H 	0.40580 0.40629 0.75647 0.05500
H 	H 	0.49281 0.40635 0.84293 0.05500
C 	C 	0.79686 0.90590 0.95512 -0.16900
C 	C 	0.78018 0.92330 0.92289 0.11200
C 	C 	0.79672 0.95556 0.90546 -0.16800
C 	C 	0.83030 0.97106 0.92157 0.12400
C 	C 	0.84802 0.95438 0.95384 -0.19600
C 	C 	0.83041 0.92207 0.97054 0.12400
H 	H 	0.75519 0.91045 0.91010 0.05600
H 	H 	0.84372 0.99516 0.90768 0.05500
H 	H 	0.84388 0.90818 0.99461 0.05400
C 	C 	0.29660 0.84773 0.29604 -0.19400
C 	C 	0.27965 0.83012 0.32821 0.12400
C 	C 	0.29486 0.79650 0.34439 -0.16500
C 	C 	0.32711 0.77973 0.32710 0.11200
C 	C 	0.34467 0.79628 0.29489 -0.16500
C 	C 	0.32877 0.82992 0.27942 0.12400
H 	H 	0.25558 0.84367 0.34201 0.05800
H 	H 	0.33981 0.75471 0.33996 0.06000
H 	H 	0.34276 0.84333 0.25538 0.05800
C 	C 	0.79693 0.40436 0.45348 -0.16900
C 	C 	0.78086 0.42106 0.42055 0.11600
C 	C 	0.79753 0.45320 0.40299 -0.17100
C 	C 	0.83062 0.46917 0.41953 0.12900
C 	C 	0.84777 0.45314 0.45238 -0.19500
C 	C 	0.83008 0.42099 0.46926 0.12500
H 	H 	0.75617 0.40790 0.40749 0.05500
H 	H 	0.84405 0.49324 0.40561 0.05600
H 	H 	0.84314 0.40765 0.49387 0.05400
C 	C 	0.95381 0.84816 0.95362 -0.19700
C 	C 	0.92178 0.83031 0.97054 0.12700
C 	C 	0.90541 0.79701 0.95482 -0.17100
C 	C 	0.92219 0.78099 0.92198 0.11700
C 	C 	0.95411 0.79789 0.90433 -0.17300
C 	C 	0.96995 0.83106 0.92078 0.12800
H 	H 	0.90833 0.84335 0.99509 0.05700
H 	H 	0.90918 0.75619 0.90899 0.05500
H 	H 	0.99387 0.84464 0.90675 0.05300
C 	C 	0.29662 0.34664 0.79674 -0.16200
C 	C 	0.27975 0.32911 0.82885 0.10900
C 	C 	0.29563 0.29609 0.84560 -0.15800
C 	C 	0.32871 0.28013 0.82903 0.10800
C 	C 	0.34636 0.29688 0.79694 -0.15900
C 	C 	0.32972 0.32993 0.78093 0.11000
H 	H 	0.25510 0.34228 0.84196 0.05900
H 	H 	0.34182 0.25552 0.84225 0.06000
H 	H 	0.34357 0.34369 0.75702 0.05700
C 	C 	0.15423 0.54599 0.54481 -0.16300
C 	C 	0.17144 0.52942 0.57723 0.10800
C 	C 	0.20377 0.54593 0.59460 -0.16300
C 	C 	0.21946 0.57927 0.57825 0.10900
C 	C 	0.20299 0.59657 0.54581 -0.16400
C 	C 	0.17064 0.57930 0.52920 0.10900
H 	H 	0.15841 0.50462 0.59021 0.05700
H 	H 	0.24354 0.59290 0.59195 0.05600
H 	H 	0.15703 0.59291 0.50507 0.05700
C 	C 	0.59678 0.70319 0.04641 -0.16000
C 	C 	0.57915 0.67106 0.02969 0.10900
C 	C 	0.54606 0.65449 0.04567 -0.16200
C 	C 	0.53021 0.67127 0.07869 0.10900
C 	C 	0.54711 0.70338 0.09619 -0.16400
C 	C 	0.58015 0.71921 0.07945 0.11000
H 	H 	0.59228 0.65782 0.00509 0.05900
H 	H 	0.50556 0.65817 0.09186 0.05700
H 	H 	0.59397 0.74315 0.09319 0.05600
C 	C 	0.70375 0.20329 0.65357 -0.16600
C 	C 	0.71971 0.17030 0.67025 0.11300
C 	C 	0.70380 0.15364 0.70325 -0.16700
C 	C 	0.67175 0.17119 0.72012 0.11100
C 	C 	0.65505 0.20419 0.70420 -0.16500
C 	C 	0.67167 0.22012 0.67113 0.11100
H 	H 	0.74362 0.15648 0.65645 0.05600
H 	H 	0.65859 0.15802 0.74475 0.05600
H 	H 	0.65846 0.24470 0.65793 0.05600
C 	C 	0.09515 0.04412 0.20541 -0.16000
C 	C 	0.07799 0.07673 0.22162 0.10500
C 	C 	0.04532 0.09365 0.20525 -0.15800
C 	C 	0.02911 0.07657 0.17260 0.10500
C 	C 	0.04547 0.04394 0.15560 -0.15700
C 	C 	0.07824 0.02780 0.17265 0.10600
H 	H 	0.09140 0.09027 0.24590 0.05800
H 	H 	0.00481 0.09000 0.15909 0.06100
H 	H 	0.09183 0.00359 0.15916 0.06000
C 	C 	0.04684 0.15493 0.04598 -0.17300
C 	C 	0.08019 0.17126 0.03034 0.12900
C 	C 	0.09786 0.20354 0.04697 -0.20100
C 	C 	0.08043 0.22014 0.07944 0.13800
C 	C 	0.04721 0.20438 0.09622 -0.20200
C 	C 	0.03053 0.17207 0.07860 0.12600
H 	H 	0.09344 0.15757 0.00604 0.05600
H 	H 	0.09397 0.24440 0.09294 0.05200
H 	H 	0.00566 0.15896 0.09137 0.05300
C 	C 	0.15448 0.70539 0.70429 -0.16200
C 	C 	0.17086 0.72108 0.67101 0.10900
C 	C 	0.20323 0.70455 0.65369 -0.16400
C 	C 	0.21979 0.67212 0.67094 0.10900
C 	C 	0.20417 0.65568 0.70424 -0.15900
C 	C 	0.17178 0.67296 0.72079 0.10600
H 	H 	0.15720 0.74520 0.65741 0.05700
H 	H 	0.24389 0.65848 0.65729 0.05900
H 	H 	0.15878 0.65993 0.74558 0.05800
C 	C 	0.20489 0.15523 0.20527 -0.16900
C 	C 	0.17222 0.17223 0.22165 0.12300
C 	C 	0.15462 0.20458 0.20505 -0.19700
C 	C 	0.17147 0.22054 0.17201 0.12500
C 	C 	0.20396 0.20411 0.15483 -0.17100
C 	C 	0.22058 0.17178 0.17210 0.11500
H 	H 	0.15935 0.15896 0.24638 0.05500
H 	H 	0.15808 0.24473 0.15827 0.05400
H 	H 	0.24481 0.15828 0.15855 0.05600
C 	C 	0.65468 0.04571 0.54717 -0.16700
C 	C 	0.67148 0.07868 0.53130 0.11300
C 	C 	0.70348 0.09627 0.54825 -0.16600
C 	C 	0.71921 0.07967 0.58145 0.12500
C 	C 	0.70308 0.04672 0.59844 -0.19400
C 	C 	0.67103 0.02990 0.58049 0.12400
H 	H 	0.65852 0.09172 0.50650 0.05500
H 	H 	0.74319 0.09358 0.59505 0.05700
H 	H 	0.65762 0.00527 0.59341 0.05700
C 	C 	0.54495 0.54530 0.15488 -0.15800
C 	C 	0.57740 0.52888 0.17218 0.10700
C 	C 	0.59475 0.54558 0.20446 -0.16100
C 	C 	0.57835 0.57895 0.21998 0.10800
C 	C 	0.54589 0.59614 0.20340 -0.15900
C 	C 	0.52931 0.57868 0.17114 0.10800
H 	H 	0.59040 0.50404 0.15925 0.06000
H 	H 	0.59205 0.59270 0.24399 0.05800
H 	H 	0.50516 0.59222 0.15748 0.06000
C 	C 	0.65336 0.70349 0.20281 -0.16600
C 	C 	0.66997 0.71947 0.16977 0.11300
C 	C 	0.70296 0.70357 0.15303 -0.16600
C 	C 	0.71983 0.67147 0.17054 0.11100
C 	C 	0.70397 0.65476 0.20357 -0.16400
C 	C 	0.67095 0.67139 0.21956 0.11100
H 	H 	0.65616 0.74340 0.15600 0.05600
H 	H 	0.74445 0.65831 0.15734 0.05600
H 	H 	0.65782 0.65819 0.24419 0.05600
C 	C 	0.15573 0.04638 0.04544 -0.16700
C 	C 	0.17304 0.02984 0.07785 0.11000
C 	C 	0.20535 0.04644 0.09530 -0.16300
C 	C 	0.22080 0.08001 0.07911 0.12100
C 	C 	0.20416 0.09762 0.04676 -0.19600
C 	C 	0.17193 0.07991 0.03002 0.12200
H 	H 	0.16018 0.00489 0.09069 0.05800
H 	H 	0.24489 0.09347 0.09297 0.05500
H 	H 	0.15814 0.09328 0.00583 0.05500
C 	C 	0.59632 0.20369 0.54589 -0.16300
C 	C 	0.57894 0.17134 0.52938 0.10900
C 	C 	0.54564 0.15499 0.54512 -0.16000
C 	C 	0.52922 0.17228 0.57754 0.10800
C 	C 	0.54585 0.20461 0.59482 -0.16300
C 	C 	0.57914 0.22023 0.57836 0.10900
H 	H 	0.59249 0.15767 0.50524 0.05800
H 	H 	0.50444 0.15929 0.59059 0.06000
H 	H 	0.59284 0.24429 0.59202 0.05700
C 	C 	0.09350 0.54525 0.70518 -0.15900
C 	C 	0.07652 0.52900 0.67244 0.10500
C 	C 	0.04385 0.54526 0.65534 -0.16000
C 	C 	0.02757 0.57799 0.67233 0.10500
C 	C 	0.04376 0.59499 0.70508 -0.15700
C 	C 	0.07644 0.57795 0.72139 0.10400
H 	H 	0.09000 0.50470 0.65900 0.05800
H 	H 	0.00333 0.59149 0.65880 0.06000
H 	H 	0.08989 0.59140 0.74571 0.05900
C 	C 	0.65498 0.54563 0.04456 -0.16100
C 	C 	0.67232 0.52904 0.07691 0.10600
C 	C 	0.70478 0.54550 0.09417 -0.15800
C 	C 	0.72044 0.57882 0.07777 0.10700
C 	C 	0.70388 0.59619 0.04542 -0.16200
C 	C 	0.67139 0.57896 0.02893 0.10800
H 	H 	0.65931 0.50425 0.08992 0.06000
H 	H 	0.74460 0.59238 0.09139 0.05700
H 	H 	0.65770 0.59264 0.00487 0.05800
C 	C 	0.04471 0.70535 0.59485 -0.16000
C 	C 	0.02809 0.67293 0.57760 0.10500
C 	C 	0.04451 0.65560 0.54513 -0.15700
C 	C 	0.07787 0.67194 0.52946 0.10600
C 	C 	0.09527 0.70430 0.54597 -0.15900
C 	C 	0.07804 0.72090 0.57839 0.10600
H 	H 	0.00330 0.65997 0.59065 0.06000
H 	H 	0.09142 0.65828 0.50532 0.06000
H 	H 	0.09173 0.74500 0.59200 0.05700
C 	C 	0.54670 0.04470 0.65539 -0.16600
C 	C 	0.58022 0.02920 0.67162 0.12200
C 	C 	0.59786 0.04587 0.70398 -0.19500
C 	C 	0.58022 0.07821 0.72060 0.12200
C 	C 	0.54669 0.09441 0.70507 -0.16400
C 	C 	0.53013 0.07701 0.67276 0.11100
H 	H 	0.59363 0.00507 0.65779 0.05500
H 	H 	0.59361 0.09206 0.74473 0.05400
H 	H 	0.50519 0.08986 0.65990 0.05900
C 	C 	0.45284 0.34793 0.95305 -0.19500
C 	C 	0.42083 0.33000 0.96994 0.12500
C 	C 	0.40446 0.29669 0.95421 -0.16800
C 	C 	0.42123 0.28073 0.92128 0.11500
C 	C 	0.45323 0.29763 0.90364 -0.17000
C 	C 	0.46898 0.33087 0.92015 0.12600
H 	H 	0.40743 0.34297 0.99455 0.05700
H 	H 	0.40824 0.25592 0.90829 0.05600
H 	H 	0.49292 0.34447 0.90618 0.05400
C 	C 	0.95246 0.45192 0.34824 -0.20000
C 	C 	0.91982 0.46815 0.33083 0.12800
C 	C 	0.90316 0.45203 0.29788 -0.17300
C 	C 	0.92028 0.41938 0.28169 0.11800
C 	C 	0.95297 0.40243 0.29800 -0.17200
C 	C 	0.96890 0.41926 0.33101 0.12800
H 	H 	0.90624 0.49263 0.34386 0.05200
H 	H 	0.90718 0.40617 0.25705 0.05400
H 	H 	0.99337 0.40583 0.34422 0.05200
C 	C 	0.29823 0.95382 0.40227 -0.20600
C 	C 	0.28138 0.92179 0.42011 0.13000
C 	C 	0.29720 0.90522 0.45323 -0.17600
C 	C 	0.33036 0.92174 0.46908 0.12900
C 	C 	0.34823 0.95380 0.45225 -0.20200
C 	C 	0.33126 0.96986 0.41924 0.14300
H 	H 	0.25662 0.90856 0.40723 0.05100
H 	H 	0.34321 0.90843 0.49380 0.05200
H 	H 	0.34493 0.99395 0.40559 0.05300
O 	O 	0.14784 0.54964 0.74665 -0.64600
O 	O 	0.16189 0.54505 0.81444 -0.56800
O 	O 	0.24605 0.60177 0.70037 -0.63100
O 	O 	0.31033 0.59148 0.70379 -0.55700
O 	O 	0.19970 0.50383 0.64847 -0.64600
O 	O 	0.20474 0.43578 0.66233 -0.56900
O 	O 	0.34928 0.49529 0.80042 -0.63100
O 	O 	0.33922 0.56259 0.79205 -0.57800
O 	O 	0.25449 0.45012 0.85008 -0.64800
O 	O 	0.18393 0.45481 0.83676 -0.55500
O 	O 	0.29972 0.40018 0.75422 -0.64800
O 	O 	0.29468 0.41374 0.68408 -0.55500
O 	O 	0.34922 0.44976 0.75438 -0.65000
O 	O 	0.33586 0.45515 0.68410 -0.55500
O 	O 	0.25417 0.40019 0.80021 -0.64900
O 	O 	0.18391 0.41356 0.79574 -0.55400
O 	O 	0.30033 0.49584 0.84991 -0.64800
O 	O 	0.29426 0.56539 0.83723 -0.58200
O 	O 	0.14763 0.50368 0.70087 -0.64800
O 	O 	0.16143 0.43585 0.70572 -0.56800
O 	O 	0.24551 0.54976 0.64848 -0.65000
O 	O 	0.31400 0.54192 0.66228 -0.59600
O 	O 	0.20014 0.60182 0.74623 -0.64600
O 	O 	0.20536 0.58812 0.81431 -0.56900
Zr	Zr	0.20329 0.54659 0.77069 3.22500
O 	O 	0.23710 0.51264 0.80748 -1.49700
Zr	Zr	0.27013 0.54648 0.70351 3.22500
O 	O 	0.30703 0.51274 0.73753 -1.49300
Zr	Zr	0.20294 0.47948 0.70378 3.22500
O 	O 	0.23690 0.44265 0.73758 -1.49400
Zr	Zr	0.29524 0.52150 0.79562 3.22500
O 	O 	0.26154 0.55900 0.76178 -1.28200
Zr	Zr	0.22824 0.45452 0.79576 3.22400
O 	O 	0.19077 0.48838 0.76202 -1.28100
Zr	Zr	0.29499 0.45459 0.72852 3.22400
O 	O 	0.26103 0.48832 0.69119 -1.28400
O 	O 	0.21270 0.53688 0.71327 -1.54200
O 	O 	0.28595 0.46373 0.78634 -1.29000
C 	C 	0.13165 0.53140 0.71904 0.49200
C 	C 	0.21828 0.61780 0.71845 0.49100
C 	C 	0.21780 0.53164 0.63247 0.49400
C 	C 	0.36486 0.46711 0.78271 0.51000
C 	C 	0.28277 0.46772 0.86570 0.50800
C 	C 	0.28226 0.38447 0.78247 0.50700
H 	H 	0.23097 0.51863 0.83429 0.28500
H 	H 	0.23083 0.41582 0.73153 0.28600
H 	H 	0.19634 0.55313 0.69712 0.34100
H 	H 	0.33396 0.51880 0.73191 0.28900
H 	H 	0.32789 0.58555 0.78015 0.18500
H 	H 	0.33385 0.58181 0.71598 0.16900
H 	H 	0.18786 0.39654 0.77361 0.16600
H 	H 	0.14917 0.43764 0.73108 0.18600
H 	H 	0.27212 0.56112 0.85414 0.17400
H 	H 	0.23052 0.60072 0.81215 0.18500
H 	H 	0.27257 0.39673 0.68811 0.16700
H 	H 	0.22984 0.43788 0.64960 0.18700
H 	H 	0.14966 0.51965 0.81294 0.18600
H 	H 	0.18830 0.47660 0.85411 0.16600
H 	H 	0.30967 0.51778 0.64832 0.19800
H 	H 	0.35318 0.47695 0.68852 0.16800
O 	O 	0.24718 0.10158 0.20147 -0.64700
O 	O 	0.31528 0.08798 0.20641 -0.56900
O 	O 	0.20171 0.00384 0.14893 -0.62900
O 	O 	0.20619 -0.06082 0.15893 -0.55900
O 	O 	0.14922 0.04869 0.24717 -0.64600
O 	O 	0.16321 0.04385 0.31516 -0.56900
O 	O 	0.30169 -0.09996 0.25512 -0.63600
O 	O 	0.29459 -0.08921 0.18817 -0.57600
O 	O 	0.35111 -0.00424 0.30146 -0.65500
O 	O 	0.33723 0.06633 0.29594 -0.55700
O 	O 	0.25628 -0.05025 0.35059 -0.65500
O 	O 	0.18524 -0.04514 0.33670 -0.55700
O 	O 	0.25557 -0.10018 0.30046 -0.65400
O 	O 	0.18629 -0.08727 0.29656 -0.55000
O 	O 	0.30164 -0.00419 0.35078 -0.65600
O 	O 	0.29615 0.06588 0.33749 -0.55400
O 	O 	0.35136 -0.05019 0.25596 -0.65400
O 	O 	0.33923 -0.04407 0.18601 -0.58100
O 	O 	0.20111 0.10130 0.24715 -0.64800
O 	O 	0.20610 0.08765 0.31498 -0.56800
O 	O 	0.14967 0.00316 0.20098 -0.64900
O 	O 	0.16408 -0.06503 0.20809 -0.59500
O 	O 	0.24739 0.04991 0.14922 -0.64600
O 	O 	0.31535 0.04468 0.16294 -0.56900
Zr	Zr	0.27172 0.04639 0.20447 3.22500
O 	O 	0.30868 0.01276 0.23845 -1.49700
Zr	Zr	0.20503 -0.02084 0.20411 3.22500
O 	O 	0.23917 -0.05751 0.23805 -1.49200
Zr	Zr	0.20459 0.04605 0.27142 3.22500
O 	O 	0.23861 0.01239 0.30831 -1.49500
Zr	Zr	0.29727 -0.04547 0.22957 3.22400
O 	O 	0.26332 -0.01192 0.19194 -1.28200
Zr	Zr	0.29672 0.02157 0.29650 3.22400
O 	O 	0.26273 0.05877 0.26265 -1.28100
Zr	Zr	0.23006 -0.04573 0.29626 3.22400
O 	O 	0.19255 -0.01211 0.26233 -1.28300
O 	O 	0.21432 0.03656 0.21401 -1.54300
O 	O 	0.28782 -0.03629 0.28732 -1.29000
C 	C 	0.21924 0.11743 0.21948 0.49500
C 	C 	0.21965 0.03186 0.13309 0.49000
C 	C 	0.13334 0.03054 0.21934 0.49300
C 	C 	0.28376 -0.11599 0.28297 0.53000
C 	C 	0.36700 -0.03259 0.28422 0.53300
C 	C 	0.28442 -0.03261 0.36647 0.53500
H 	H 	0.33547 0.01908 0.23256 0.28500
H 	H 	0.23247 0.01835 0.33514 0.28600
H 	H 	0.19797 0.05278 0.19781 0.34100
H 	H 	0.23368 -0.08445 0.23189 0.28800
H 	H 	0.28246 -0.07796 0.16529 0.18400
H 	H 	0.21831 -0.08434 0.16870 0.16800
H 	H 	0.27406 0.06169 0.35449 0.16700
H 	H 	0.23134 0.10015 0.31320 0.18600
H 	H 	0.35629 -0.02215 0.19076 0.17400
H 	H 	0.31361 0.01937 0.15058 0.18400
H 	H 	0.19037 -0.02438 0.35507 0.16800
H 	H 	0.15081 0.01858 0.31315 0.18800
H 	H 	0.31328 0.10045 0.23165 0.18700
H 	H 	0.35521 0.06155 0.27476 0.16700
H 	H 	0.15027 -0.06122 0.23240 0.19600
H 	H 	0.18906 -0.10282 0.27320 0.16600
O 	O 	0.45038 0.85174 0.25413 -0.64600
O 	O 	0.45603 0.83848 0.18581 -0.57000
O 	O 	0.39827 0.75390 0.29898 -0.63100
O 	O 	0.40831 0.68948 0.29550 -0.55700
O 	O 	0.49678 0.79924 0.35154 -0.64800
O 	O 	0.56465 0.79436 0.33745 -0.56900
O 	O 	0.50417 0.65024 0.19919 -0.63000
O 	O 	0.43714 0.66105 0.20677 -0.57600
O 	O 	0.55027 0.74588 0.14976 -0.64900
O 	O 	0.54533 0.81636 0.16362 -0.55500
O 	O 	0.59970 0.69979 0.24506 -0.65000
O 	O 	0.58609 0.70452 0.31553 -0.55500
O 	O 	0.54960 0.64998 0.24532 -0.64800
O 	O 	0.54510 0.66324 0.31511 -0.55300
O 	O 	0.60001 0.74597 0.19970 -0.65200
O 	O 	0.58687 0.81579 0.20438 -0.55300
O 	O 	0.50471 0.69988 0.14966 -0.64800
O 	O 	0.43494 0.70610 0.16197 -0.58100
O 	O 	0.49618 0.85152 0.30008 -0.64800
O 	O 	0.56431 0.83804 0.29421 -0.57000
O 	O 	0.45046 0.75383 0.35121 -0.65000
O 	O 	0.45762 0.68538 0.33702 -0.59500
O 	O 	0.39855 0.79982 0.25315 -0.64800
O 	O 	0.41252 0.79525 0.18534 -0.56800
Zr	Zr	0.45384 0.79669 0.22917 3.22500
O 	O 	0.48764 0.76290 0.19227 -1.49800
Zr	Zr	0.45348 0.72947 0.29599 3.22500
O 	O 	0.48718 0.69265 0.26186 -1.49400
Zr	Zr	0.52078 0.79642 0.29620 3.22500
O 	O 	0.55751 0.76252 0.26230 -1.49500
Zr	Zr	0.47862 0.70470 0.20379 3.22400
O 	O 	0.44119 0.73841 0.23772 -1.28100
Zr	Zr	0.54570 0.77165 0.20419 3.22400
O 	O 	0.51200 0.80908 0.23808 -1.28400
Zr	Zr	0.54536 0.70440 0.27097 3.22400
O 	O 	0.51168 0.73827 0.30844 -1.28200
O 	O 	0.46337 0.78683 0.28655 -1.54300
O 	O 	0.53641 0.71381 0.21318 -1.28900
C 	C 	0.46826 0.86753 0.28221 0.49500
C 	C 	0.38243 0.78177 0.28085 0.49500
C 	C 	0.46886 0.78127 0.36740 0.49600
C 	C 	0.53201 0.63430 0.21714 0.50500
C 	C 	0.53279 0.71764 0.13400 0.50700
C 	C 	0.61556 0.71764 0.21712 0.50900
H 	H 	0.48171 0.76920 0.16549 0.28600
H 	H 	0.58434 0.76846 0.26843 0.28700
H 	H 	0.44706 0.80295 0.30288 0.34200
H 	H 	0.48097 0.66572 0.26739 0.28800
H 	H 	0.41430 0.67241 0.21887 0.18400
H 	H 	0.41783 0.66607 0.28298 0.16800
H 	H 	0.60313 0.81236 0.22716 0.16600
H 	H 	0.56185 0.85101 0.26927 0.18600
H 	H 	0.43965 0.72802 0.14489 0.17400
H 	H 	0.40015 0.76993 0.18689 0.18400
H 	H 	0.60368 0.72611 0.31116 0.16700
H 	H 	0.56270 0.76911 0.34991 0.18700
H 	H 	0.48109 0.85122 0.18824 0.18700
H 	H 	0.52367 0.81204 0.14611 0.16700
H 	H 	0.48181 0.68942 0.35099 0.19700
H 	H 	0.52243 0.64688 0.31151 0.16800
O 	O 	0.10068 0.70124 0.74626 -0.64800
O 	O 	0.08736 0.70585 0.81414 -0.56800
O 	O 	0.00216 0.64926 0.70093 -0.63000
O 	O 	-0.06213 0.65991 0.70431 -0.55700
O 	O 	0.04855 0.74747 0.64864 -0.64600
O 	O 	0.04340 0.81522 0.66234 -0.56800
O 	O 	-0.10037 0.75536 0.80176 -0.63600
O 	O 	-0.09013 0.68867 0.79396 -0.57400
O 	O 	-0.00376 0.80090 0.85067 -0.65100
O 	O 	0.06594 0.79642 0.83650 -0.55300
O 	O 	-0.05069 0.85100 0.75591 -0.65400
O 	O 	-0.04656 0.83761 0.68533 -0.55500
O 	O 	-0.10076 0.80086 0.75581 -0.65300
O 	O 	-0.08786 0.79675 0.68578 -0.55200
O 	O 	-0.00473 0.85077 0.80138 -0.65600
O 	O 	0.06576 0.83726 0.79484 -0.55600
O 	O 	-0.05018 0.75576 0.85077 -0.65000
O 	O 	-0.04435 0.68562 0.83793 -0.58200
O 	O 	0.10064 0.74734 0.70060 -0.64800
O 	O 	0.08678 0.81546 0.70579 -0.57000
O 	O 	0.00282 0.70147 0.64883 -0.64800
O 	O 	-0.06580 0.70946 0.66306 -0.59600
O 	O 	0.04832 0.64917 0.74652 -0.64700
O 	O 	0.04372 0.66302 0.81451 -0.56900
Zr	Zr	0.04553 0.70445 0.77079 3.22500
O 	O 	0.01222 0.73847 0.80785 -1.49800
Zr	Zr	-0.02173 0.70472 0.70405 3.22500
O 	O 	-0.05828 0.73846 0.73855 -1.49300
Zr	Zr	0.04542 0.77168 0.70394 3.22500
O 	O 	0.01177 0.80856 0.73800 -1.49500
Zr	Zr	-0.04604 0.72971 0.79655 3.22400
O 	O 	-0.01279 0.69217 0.76228 -1.28100
Zr	Zr	0.02119 0.79656 0.79599 3.22400
O 	O 	0.05822 0.76259 0.76199 -1.28200
Zr	Zr	-0.04646 0.79667 0.72969 3.22400
O 	O 	-0.01282 0.76297 0.69191 -1.28300
O 	O 	0.03572 0.71424 0.71344 -1.54300
O 	O 	-0.03676 0.78749 0.78734 -1.29000
C 	C 	0.11665 0.71948 0.71856 0.49400
C 	C 	0.02994 0.63314 0.71896 0.49000
C 	C 	0.03051 0.71961 0.63272 0.49200
C 	C 	-0.11643 0.78336 0.78413 0.53100
C 	C 	-0.03202 0.78357 0.86647 0.51100
C 	C 	-0.03305 0.86667 0.78417 0.53400
H 	H 	0.01863 0.73245 0.83459 0.28700
H 	H 	0.01777 0.83539 0.73193 0.28600
H 	H 	0.05190 0.69789 0.69720 0.34100
H 	H 	-0.08526 0.73239 0.73316 0.28800
H 	H 	-0.07925 0.66594 0.78123 0.18300
H 	H 	-0.08536 0.66949 0.71709 0.16800
H 	H 	0.06059 0.85527 0.77377 0.16800
H 	H 	0.09969 0.81322 0.73079 0.18800
H 	H 	-0.02284 0.69064 0.85544 0.17500
H 	H 	0.01851 0.65048 0.81261 0.18600
H 	H 	-0.02466 0.85489 0.68943 0.16600
H 	H 	0.01794 0.81354 0.65028 0.18600
H 	H 	0.09995 0.73104 0.81227 0.18600
H 	H 	0.06250 0.77391 0.85312 0.16600
H 	H 	-0.06141 0.73356 0.64904 0.19700
H 	H 	-0.10417 0.77402 0.68928 0.16800
O 	O 	0.00450 0.10116 0.04961 -0.64700
O 	O 	-0.06335 0.08791 0.04446 -0.56800
O 	O 	0.04990 0.00261 0.10126 -0.63100
O 	O 	0.04728 -0.06139 0.09058 -0.55500
O 	O 	0.10201 0.04969 0.00309 -0.64500
O 	O 	0.08825 0.04442 -0.06477 -0.56900
O 	O 	-0.05037 -0.10007 -0.00481 -0.63700
O 	O 	-0.04260 -0.08972 0.06198 -0.57500
O 	O 	-0.09989 -0.00424 -0.05046 -0.65200
O 	O 	-0.08648 0.06513 -0.04695 -0.55100
O 	O 	-0.00422 -0.05101 -0.10032 -0.65300
O 	O 	0.06560 -0.04638 -0.08733 -0.55300
O 	O 	-0.00446 -0.10022 -0.05037 -0.65500
O 	O 	0.06626 -0.08660 -0.04499 -0.55700
O 	O 	-0.04989 -0.00525 -0.10047 -0.65600
O 	O 	-0.04401 0.06584 -0.08678 -0.55800
O 	O 	-0.09981 -0.05030 -0.00506 -0.65300
O 	O 	-0.08687 -0.04423 0.06491 -0.58200
O 	O 	0.05005 0.10138 0.00342 -0.64700
O 	O 	0.04442 0.08765 -0.06486 -0.57100
O 	O 	0.10204 0.00401 0.04913 -0.64800
O 	O 	0.08806 -0.06499 0.04077 -0.59600
O 	O 	0.00408 0.04854 0.10135 -0.64700
O 	O 	-0.06407 0.04398 0.08714 -0.57000
Zr	Zr	-0.02011 0.04597 0.04598 3.22500
O 	O 	-0.05700 0.01242 0.01191 -1.49700
Zr	Zr	0.04699 -0.02101 0.04576 3.22500
O 	O 	0.01261 -0.05779 0.01218 -1.49200
Zr	Zr	0.04670 0.04621 -0.02117 3.22500
O 	O 	0.01292 0.01217 -0.05802 -1.49400
Zr	Zr	-0.04547 -0.04576 0.02084 3.22400
O 	O 	-0.01131 -0.01231 0.05829 -1.28000
Zr	Zr	-0.04520 0.02111 -0.04625 3.22400
O 	O 	-0.01149 0.05852 -0.01223 -1.28200
Zr	Zr	0.02163 -0.04597 -0.04598 3.22400
O 	O 	0.05917 -0.01195 -0.01244 -1.28300
O 	O 	0.03726 0.03639 0.03625 -1.54400
O 	O 	-0.03616 -0.03667 -0.03696 -1.29000
C 	C 	0.03225 0.11724 0.03149 0.49400
C 	C 	0.03170 0.03023 0.11740 0.49100
C 	C 	0.11800 0.03182 0.03102 0.49300
C 	C 	-0.03276 -0.11594 -0.03292 0.53100
C 	C 	-0.11576 -0.03248 -0.03300 0.52800
C 	C 	-0.03250 -0.03363 -0.11616 0.53200
H 	H 	-0.08378 0.01870 0.01788 0.28600
H 	H 	0.01900 0.01813 -0.08487 0.28500
H 	H 	0.05341 0.05256 0.05268 0.34200
H 	H 	0.01811 -0.08474 0.01830 0.28800
H 	H 	-0.02993 -0.07870 0.08468 0.18300
H 	H 	0.03423 -0.08456 0.08121 0.16700
H 	H 	-0.02332 0.06041 -0.10515 0.16900
H 	H 	0.01942 0.10051 -0.06239 0.18900
H 	H 	-0.10434 -0.02266 0.05998 0.17500
H 	H 	-0.06194 0.01890 0.09991 0.18600
H 	H 	0.06228 -0.02368 -0.10371 0.16500
H 	H 	0.10059 0.01910 -0.06298 0.18500
H 	H 	-0.06150 0.10035 0.01920 0.18400
H 	H 	-0.10184 0.06289 -0.02342 0.16400
H 	H 	0.10258 -0.06004 0.01707 0.20000
H 	H 	0.06137 -0.10434 -0.02363 0.17000
O 	O 	0.10035 0.54984 0.50294 -0.64700
O 	O 	0.08661 0.54511 0.43511 -0.56800
O 	O 	0.00231 0.60176 0.54897 -0.63000
O 	O 	-0.06213 0.59140 0.54517 -0.55700
O 	O 	0.04832 0.50368 0.60116 -0.64600
O 	O 	0.04362 0.43590 0.58733 -0.56800
O 	O 	-0.10067 0.49502 0.44837 -0.63600
O 	O 	-0.09075 0.56190 0.45588 -0.57600
O 	O 	-0.00526 0.44902 0.39963 -0.65500
O 	O 	0.06536 0.45518 0.41306 -0.55600
O 	O 	-0.05048 0.39991 0.49484 -0.64900
O 	O 	-0.04637 0.41379 0.56521 -0.55400
O 	O 	-0.10071 0.44956 0.49438 -0.65300
O 	O 	-0.08793 0.45453 0.56446 -0.55300
O 	O 	-0.00425 0.39983 0.44952 -0.65100
O 	O 	0.06554 0.41385 0.45427 -0.55400
O 	O 	-0.05134 0.49438 0.39937 -0.65400
O 	O 	-0.04480 0.56497 0.41180 -0.58500
O 	O 	0.10048 0.50405 0.54891 -0.64900
O 	O 	0.08695 0.43598 0.54403 -0.56900
O 	O 	0.00245 0.54954 0.60101 -0.64800
O 	O 	-0.06609 0.54193 0.58662 -0.59600
O 	O 	0.04822 0.60178 0.50312 -0.64600
O 	O 	0.04292 0.58806 0.43509 -0.56900
Zr	Zr	0.04508 0.54656 0.47873 3.22500
O 	O 	0.01168 0.51239 0.44179 -1.49700
Zr	Zr	-0.02192 0.54643 0.54571 3.22500
O 	O 	-0.05853 0.51252 0.51144 -1.49200
Zr	Zr	0.04535 0.47954 0.54581 3.22500
O 	O 	0.01170 0.44259 0.51195 -1.49400
Zr	Zr	-0.04653 0.52102 0.45333 3.22500
O 	O 	-0.01324 0.55875 0.48739 -1.28100
Zr	Zr	0.02084 0.45440 0.45384 3.22400
O 	O 	0.05791 0.48847 0.48768 -1.28200
Zr	Zr	-0.04651 0.45440 0.52055 3.22400
O 	O 	-0.01284 0.48826 0.55807 -1.28300
O 	O 	0.03551 0.53691 0.53618 -1.54200
O 	O 	-0.03704 0.46335 0.46282 -1.29000
C 	C 	0.11640 0.53179 0.53071 0.49500
C 	C 	0.03014 0.61777 0.53092 0.48900
C 	C 	0.03008 0.53136 0.61718 0.49200
C 	C 	-0.11644 0.46684 0.46597 0.53000
C 	C 	-0.03375 0.46607 0.38381 0.53200
C 	C 	-0.03244 0.38409 0.46699 0.50900
H 	H 	0.01791 0.51831 0.41498 0.28500
H 	H 	0.01782 0.41580 0.51813 0.28700
H 	H 	0.05172 0.55318 0.55246 0.34100
H 	H 	-0.08552 0.51855 0.51687 0.28700
H 	H 	-0.07986 0.58479 0.46831 0.18400
H 	H 	-0.08541 0.58180 0.53249 0.16800
H 	H 	0.06184 0.39714 0.47667 0.16700
H 	H 	0.09986 0.43828 0.51904 0.18700
H 	H 	-0.02414 0.55919 0.39351 0.17600
H 	H 	0.01764 0.60043 0.43707 0.18600
H 	H 	-0.02436 0.39663 0.56123 0.16700
H 	H 	0.01832 0.43767 0.59971 0.18600
H 	H 	0.09892 0.51976 0.43667 0.18600
H 	H 	0.06024 0.47617 0.39494 0.16700
H 	H 	-0.06193 0.51774 0.60054 0.19700
H 	H 	-0.10465 0.47689 0.56050 0.16700
O 	O 	0.60142 0.04910 0.50422 -0.64500
O 	O 	0.58803 0.04369 0.43596 -0.57000
O 	O 	0.50358 0.10120 0.54933 -0.63100
O 	O 	0.43933 0.09107 0.54702 -0.55500
O 	O 	0.54986 0.00257 0.60153 -0.64600
O 	O 	0.54398 -0.06525 0.58745 -0.57100
O 	O 	0.39995 -0.00436 0.44873 -0.63500
O 	O 	0.41042 0.06257 0.45731 -0.57700
O 	O 	0.49472 -0.05040 0.39978 -0.65500
O 	O 	0.56564 -0.04526 0.41346 -0.55600
O 	O 	0.44968 -0.10021 0.49574 -0.64900
O 	O 	0.45285 -0.08686 0.56503 -0.55100
O 	O 	0.39968 -0.05008 0.49447 -0.65300
O 	O 	0.41299 -0.04440 0.56544 -0.55700
O 	O 	0.49556 -0.10039 0.45006 -0.65100
O 	O 	0.56490 -0.08731 0.45362 -0.55100
O 	O 	0.44906 -0.00462 0.39985 -0.65400
O 	O 	0.45619 0.06556 0.41286 -0.58400
O 	O 	0.60131 0.00303 0.54991 -0.64700
O 	O 	0.58747 -0.06520 0.54368 -0.57200
O 	O 	0.50440 0.04884 0.60163 -0.64700
O 	O 	0.43534 0.04132 0.58762 -0.59600
O 	O 	0.54946 0.10104 0.50344 -0.64800
O 	O 	0.54482 0.08720 0.43564 -0.56800
Zr	Zr	0.54629 0.04578 0.47937 3.22500
O 	O 	0.51237 0.01219 0.44236 -1.49800
Zr	Zr	0.47934 0.04591 0.54653 3.22500
O 	O 	0.44226 0.01262 0.51213 -1.49300
Zr	Zr	0.54615 -0.02140 0.54618 3.22500
O 	O 	0.51198 -0.05780 0.51224 -1.49300
Zr	Zr	0.45425 0.02131 0.45406 3.22500
O 	O 	0.48806 0.05845 0.48824 -1.27900
Zr	Zr	0.52099 -0.04592 0.45410 3.22400
O 	O 	0.55861 -0.01245 0.48803 -1.28300
Zr	Zr	0.45384 -0.04560 0.52100 3.22400
O 	O 	0.48804 -0.01235 0.55864 -1.28300
O 	O 	0.53663 0.03605 0.53675 -1.54500
O 	O 	0.46321 -0.03652 0.46324 -1.29000
C 	C 	0.61726 0.03106 0.53217 0.49300
C 	C 	0.53137 0.11712 0.53114 0.49300
C 	C 	0.53212 0.03052 0.61759 0.49300
C 	C 	0.38404 -0.03261 0.46609 0.53100
C 	C 	0.46643 -0.03289 0.38403 0.53300
C 	C 	0.46756 -0.11611 0.46786 0.50900
H 	H 	0.51861 0.01819 0.41557 0.28600
H 	H 	0.51789 -0.08466 0.51831 0.28700
H 	H 	0.55282 0.05237 0.55298 0.34300
H 	H 	0.41534 0.01885 0.51765 0.28800
H 	H 	0.42166 0.08530 0.46971 0.18300
H 	H 	0.41613 0.08195 0.53385 0.16700
H 	H 	0.56245 -0.10270 0.47711 0.16500
H 	H 	0.60082 -0.06223 0.51899 0.18700
H 	H 	0.47701 0.05994 0.39471 0.17600
H 	H 	0.51955 0.09965 0.43731 0.18500
H 	H 	0.47630 -0.10234 0.56279 0.16500
H 	H 	0.51904 -0.06278 0.60043 0.18500
H 	H 	0.60057 0.01850 0.43812 0.18800
H 	H 	0.56073 -0.02414 0.39545 0.16800
H 	H 	0.43985 0.01736 0.60183 0.19900
H 	H 	0.39506 -0.02329 0.56020 0.17000
O 	O 	0.50347 0.60101 0.04920 -0.64500
O 	O 	0.43531 0.58746 0.04398 -0.57000
O 	O 	0.54895 0.50312 0.10113 -0.63100
O 	O 	0.54598 0.43882 0.09095 -0.55600
O 	O 	0.60105 0.54929 0.00266 -0.64600
O 	O 	0.58704 0.54401 -0.06512 -0.56900
O 	O 	0.44873 0.39960 -0.00508 -0.63500
O 	O 	0.45652 0.40993 0.06198 -0.57600
O 	O 	0.39941 0.49505 -0.05084 -0.65400
O 	O 	0.41282 0.56532 -0.04587 -0.55500
O 	O 	0.49487 0.44922 -0.10018 -0.65100
O 	O 	0.56509 0.45379 -0.08677 -0.55500
O 	O 	0.49461 0.39960 -0.05066 -0.65300
O 	O 	0.56493 0.41275 -0.04527 -0.55500
O 	O 	0.44921 0.49509 -0.10028 -0.65200
O 	O 	0.45420 0.56538 -0.08694 -0.55500
O 	O 	0.39929 0.44920 -0.00524 -0.65300
O 	O 	0.41205 0.45531 0.06483 -0.58200
O 	O 	0.54921 0.60105 0.00318 -0.64700
O 	O 	0.54341 0.58738 -0.06499 -0.57100
O 	O 	0.60107 0.50369 0.04879 -0.64800
O 	O 	0.58697 0.43485 0.04132 -0.59600
O 	O 	0.50304 0.54897 0.10107 -0.64700
O 	O 	0.43514 0.54404 0.08731 -0.56800
Zr	Zr	0.47882 0.54582 0.04584 3.22500
O 	O 	0.44191 0.51209 0.01199 -1.49800
Zr	Zr	0.54592 0.47889 0.04585 3.22500
O 	O 	0.51166 0.44198 0.01227 -1.49300
Zr	Zr	0.54570 0.54592 -0.02132 3.22500
O 	O 	0.51186 0.51193 -0.05800 -1.49400
Zr	Zr	0.45355 0.45390 0.02084 3.22400
O 	O 	0.48760 0.48754 0.05827 -1.28000
Zr	Zr	0.45376 0.52095 -0.04607 3.22400
O 	O 	0.48756 0.55838 -0.01232 -1.28300
Zr	Zr	0.52069 0.45381 -0.04588 3.22400
O 	O 	0.55818 0.48781 -0.01235 -1.28300
O 	O 	0.53622 0.53623 0.03611 -1.54400
O 	O 	0.46291 0.46315 -0.03686 -1.29000
C 	C 	0.53134 0.61695 0.03115 0.49200
C 	C 	0.53082 0.53092 0.11708 0.49200
C 	C 	0.61708 0.53135 0.03051 0.49300
C 	C 	0.46630 0.38381 -0.03329 0.53000
C 	C 	0.38355 0.46677 -0.03346 0.53100
C 	C 	0.46671 0.46683 -0.11586 0.51200
H 	H 	0.41511 0.51831 0.01796 0.28600
H 	H 	0.51794 0.51790 -0.08484 0.28700
H 	H 	0.55248 0.55242 0.05240 0.34300
H 	H 	0.51719 0.41504 0.01841 0.28800
H 	H 	0.46897 0.42104 0.08476 0.18300
H 	H 	0.53311 0.41553 0.08160 0.16700
H 	H 	0.47617 0.56118 -0.10409 0.16700
H 	H 	0.51846 0.60033 -0.06244 0.18800
H 	H 	0.39454 0.47683 0.05987 0.17500
H 	H 	0.43695 0.51875 0.09971 0.18500
H 	H 	0.56113 0.47585 -0.10387 0.16600
H 	H 	0.59959 0.51881 -0.06315 0.18600
H 	H 	0.43736 0.60004 0.01880 0.18600
H 	H 	0.39568 0.56123 -0.02386 0.16600
H 	H 	0.60107 0.43922 0.01726 0.19800
H 	H 	0.56049 0.39555 -0.02338 0.16800
O 	O 	0.80033 0.35084 0.49593 -0.64700
O 	O 	0.79519 0.33744 0.56385 -0.56800
O 	O 	0.85196 0.25273 0.45025 -0.63100
O 	O 	0.84169 0.18840 0.45364 -0.55800
O 	O 	0.75412 0.29916 0.39826 -0.64700
O 	O 	0.68624 0.29395 0.41181 -0.56900
O 	O 	0.74597 0.14982 0.55127 -0.63000
O 	O 	0.81276 0.15990 0.54294 -0.57600
O 	O 	0.70024 0.24547 0.59986 -0.65000
O 	O 	0.70477 0.31554 0.58618 -0.55300
O 	O 	0.65029 0.19959 0.50407 -0.64800
O 	O 	0.66370 0.20273 0.43472 -0.55100
O 	O 	0.70031 0.14957 0.50536 -0.64800
O 	O 	0.70606 0.16280 0.43434 -0.55700
O 	O 	0.65028 0.24547 0.54972 -0.65000
O 	O 	0.66394 0.31555 0.54483 -0.55400
O 	O 	0.74595 0.19961 0.60008 -0.65000
O 	O 	0.81594 0.20569 0.58713 -0.58300
O 	O 	0.75436 0.35093 0.45015 -0.64800
O 	O 	0.68599 0.33718 0.45556 -0.57100
O 	O 	0.80005 0.25335 0.39838 -0.64900
O 	O 	0.79195 0.18452 0.41245 -0.59600
O 	O 	0.85196 0.29872 0.49603 -0.64800
O 	O 	0.83817 0.29371 0.56421 -0.57000
Zr	Zr	0.79680 0.29569 0.52044 3.22500
O 	O 	0.76280 0.26219 0.55733 -1.49800
Zr	Zr	0.79669 0.22858 0.45346 3.22500
O 	O 	0.76308 0.19182 0.48782 -1.49400
Zr	Zr	0.72974 0.29579 0.45347 3.22500
O 	O 	0.69296 0.26187 0.48728 -1.49400
Zr	Zr	0.77176 0.20401 0.54584 3.22500
O 	O 	0.80924 0.23742 0.51172 -1.28100
Zr	Zr	0.70473 0.27105 0.54537 3.22400
O 	O 	0.73866 0.30835 0.51159 -1.28300
Zr	Zr	0.70493 0.20365 0.47877 3.22400
O 	O 	0.73849 0.23759 0.44118 -1.28200
O 	O 	0.78707 0.28597 0.46309 -1.54400
O 	O 	0.71396 0.21319 0.53651 -1.28900
C 	C 	0.78233 0.36681 0.46807 0.49500
C 	C 	0.86788 0.28064 0.46822 0.49300
C 	C 	0.78206 0.28120 0.38240 0.49300
C 	C 	0.71783 0.13401 0.53371 0.50700
C 	C 	0.71787 0.21739 0.61571 0.50900
C 	C 	0.63447 0.21744 0.53201 0.50800
H 	H 	0.76877 0.26852 0.58411 0.28600
H 	H 	0.66614 0.26787 0.48111 0.28700
H 	H 	0.80339 0.30219 0.44688 0.34300
H 	H 	0.76920 0.16486 0.48240 0.28800
H 	H 	0.83555 0.17089 0.53041 0.18300
H 	H 	0.83217 0.16504 0.46624 0.16800
H 	H 	0.64709 0.31159 0.52258 0.16700
H 	H 	0.68863 0.35036 0.48038 0.18700
H 	H 	0.81100 0.22726 0.60459 0.17500
H 	H 	0.85106 0.26871 0.56191 0.18600
H 	H 	0.64831 0.22625 0.43688 0.16500
H 	H 	0.68832 0.26878 0.39922 0.18400
H 	H 	0.76995 0.34994 0.56196 0.18500
H 	H 	0.72704 0.31182 0.60306 0.16600
H 	H 	0.76805 0.18914 0.39817 0.19900
H 	H 	0.72708 0.14477 0.43964 0.17000
O 	O 	0.85206 0.75446 -0.04898 -0.64800
O 	O 	0.83832 0.68628 -0.04439 -0.57000
O 	O 	0.75468 0.80015 -0.10178 -0.63500
O 	O 	0.69018 0.79707 -0.09195 -0.55700
O 	O 	0.80017 0.85203 -0.00288 -0.64700
O 	O 	0.79425 0.83791 0.06491 -0.57000
O 	O 	0.65047 0.69962 0.00401 -0.62900
O 	O 	0.66091 0.70808 -0.06311 -0.57700
O 	O 	0.74581 0.65013 0.04943 -0.64800
O 	O 	0.81585 0.66375 0.04556 -0.55300
O 	O 	0.69964 0.74589 0.09942 -0.65000
O 	O 	0.70440 0.81623 0.08575 -0.55500
O 	O 	0.65012 0.74575 0.04944 -0.64800
O 	O 	0.66317 0.81574 0.04458 -0.55400
O 	O 	0.74537 0.70007 0.09960 -0.65200
O 	O 	0.81566 0.70491 0.08655 -0.55400
O 	O 	0.70011 0.65018 0.00357 -0.64700
O 	O 	0.70611 0.66329 -0.06596 -0.58100
O 	O 	0.85182 0.80020 -0.00297 -0.64900
O 	O 	0.83775 0.79435 0.06496 -0.57000
O 	O 	0.75483 0.85214 -0.04926 -0.64900
O 	O 	0.68603 0.83818 -0.04240 -0.59600
O 	O 	0.80069 0.75451 -0.10140 -0.65200
O 	O 	0.79525 0.68651 -0.08804 -0.56800
Zr	Zr	0.79684 0.72995 -0.04631 3.22500
O 	O 	0.76290 0.69302 -0.01272 -1.49800
Zr	Zr	0.72999 0.79702 -0.04662 3.22500
O 	O 	0.69289 0.76278 -0.01322 -1.49300
Zr	Zr	0.79655 0.79666 0.02104 3.22500
O 	O 	0.76241 0.76273 0.05747 -1.49600
Zr	Zr	0.70476 0.70468 -0.02188 3.22400
O 	O 	0.73865 0.73873 -0.05911 -1.28100
Zr	Zr	0.77145 0.70466 0.04544 3.22400
O 	O 	0.80906 0.73854 0.01196 -1.28200
Zr	Zr	0.70440 0.77165 0.04505 3.22400
O 	O 	0.73852 0.80917 0.01168 -1.28300
O 	O 	0.78724 0.78731 -0.03648 -1.54400
O 	O 	0.71369 0.71385 0.03597 -1.28900
C 	C 	0.86788 0.78231 -0.03081 0.49700
C 	C 	0.78282 0.78233 -0.11762 0.51500
C 	C 	0.78242 0.86809 -0.03082 0.49600
C 	C 	0.63459 0.71740 0.03201 0.50600
C 	C 	0.71781 0.63433 0.03160 0.50500
C 	C 	0.71722 0.71775 0.11521 0.50900
H 	H 	0.76919 0.66625 -0.01876 0.28600
H 	H 	0.76826 0.76876 0.08435 0.28700
H 	H 	0.80358 0.80358 -0.05262 0.34200
H 	H 	0.66598 0.76835 -0.01948 0.28700
H 	H 	0.67220 0.72033 -0.08591 0.18400
H 	H 	0.66674 0.78445 -0.08265 0.16800
H 	H 	0.81147 0.72692 0.10365 0.16700
H 	H 	0.85062 0.76935 0.06254 0.18700
H 	H 	0.72843 0.64660 -0.06179 0.17400
H 	H 	0.77018 0.68865 -0.10084 0.18400
H 	H 	0.72614 0.81203 0.10320 0.16700
H 	H 	0.76921 0.85071 0.06254 0.18700
H 	H 	0.85091 0.68832 -0.01921 0.18600
H 	H 	0.81237 0.64712 0.02306 0.16600
H 	H 	0.69009 0.85206 -0.01816 0.19700
H 	H 	0.64664 0.81189 0.02207 0.16700
O 	O 	1.10246 0.19994 0.24619 -0.65200
O 	O 	1.08866 0.20489 0.31399 -0.56800
O 	O 	1.00405 0.14796 0.20049 -0.63200
O 	O 	0.93992 0.15873 0.20263 -0.55500
O 	O 	1.05129 0.24593 0.14819 -0.65100
O 	O 	1.04583 0.31389 0.16180 -0.56900
O 	O 	0.90106 0.25436 0.30003 -0.63000
O 	O 	0.91121 0.18738 0.29202 -0.57600
O 	O 	0.99675 0.29959 0.34978 -0.64900
O 	O 	1.06688 0.29515 0.33612 -0.55400
O 	O 	0.95051 0.34948 0.25463 -0.64900
O 	O 	0.95597 0.33638 0.18398 -0.55700
O 	O 	0.90101 0.29976 0.25386 -0.64700
O 	O 	0.91460 0.29519 0.18384 -0.55400
O 	O 	0.99617 0.34943 0.30050 -0.65000
O 	O 	1.06673 0.33632 0.29477 -0.55600
O 	O 	0.95047 0.25430 0.34948 -0.64800
O 	O 	0.95647 0.18435 0.33666 -0.58200
O 	O 	1.10273 0.24593 0.20053 -0.65300
O 	O 	1.08898 0.31406 0.20554 -0.57000
O 	O 	1.00553 0.20008 0.14801 -0.65400
O 	O 	0.93670 0.20823 0.16160 -0.59500
O 	O 	1.04989 0.14796 0.24640 -0.64800
O 	O 	1.04510 0.16202 0.31422 -0.56800
Zr	Zr	1.04711 0.20331 0.27038 3.22500
O 	O 	1.01339 0.23726 0.30713 -1.49800
Zr	Zr	0.98039 0.20347 0.20299 3.22500
O 	O 	0.94351 0.23717 0.23713 -1.49300
Zr	Zr	1.04755 0.27036 0.20342 3.22500
O 	O 	1.01359 0.30726 0.23719 -1.49400
Zr	Zr	0.95525 0.22842 0.29525 3.22500
O 	O 	0.98887 0.19096 0.26132 -1.28100
Zr	Zr	1.02240 0.29534 0.29532 3.22400
O 	O 	1.05980 0.26144 0.26162 -1.28200
Zr	Zr	0.95547 0.29535 0.22825 3.22400
O 	O 	0.98945 0.26166 0.19081 -1.28400
O 	O 	1.03776 0.21294 0.21292 -1.54200
O 	O 	0.96462 0.28616 0.28601 -1.29000
C 	C 	1.11867 0.21797 0.21845 0.51700
C 	C 	1.03161 0.13186 0.21883 0.49200
C 	C 	1.03351 0.21798 0.13206 0.51800
C 	C 	0.88532 0.28235 0.28216 0.50700
C 	C 	0.96839 0.28217 0.36535 0.50800
C 	C 	0.96785 0.36504 0.28307 0.51000
H 	H 	1.01955 0.23125 0.33393 0.28700
H 	H 	1.01963 0.33409 0.23117 0.28500
H 	H 	1.05403 0.19650 0.19687 0.34100
H 	H 	0.91658 0.23110 0.23150 0.28800
H 	H 	0.92231 0.16459 0.27960 0.18400
H 	H 	0.91666 0.16820 0.21545 0.16800
H 	H 	1.06191 0.35409 0.27341 0.16700
H 	H 	1.10144 0.31203 0.23078 0.18700
H 	H 	0.97797 0.18922 0.35422 0.17500
H 	H 	1.01986 0.14953 0.31227 0.18500
H 	H 	0.97754 0.35392 0.18863 0.16600
H 	H 	1.02054 0.31208 0.14941 0.18600
H 	H 	1.10124 0.23009 0.31212 0.18600
H 	H 	1.06306 0.27289 0.35299 0.16600
H 	H 	0.94137 0.23220 0.14744 0.19800
H 	H 	0.89797 0.27272 0.18751 0.16800
O 	O 	0.75435 0.95131 0.85176 -0.64600
O 	O 	0.68609 0.95592 0.83802 -0.57000
O 	O 	0.79979 0.89859 0.75374 -0.63100
O 	O 	0.79648 0.90865 0.68938 -0.55700
O 	O 	0.85176 0.99659 0.80001 -0.64700
O 	O 	0.83815 1.06475 0.79357 -0.57200
O 	O 	0.69919 1.00468 0.65009 -0.63400
O 	O 	0.70752 0.93749 0.66052 -0.57700
O 	O 	0.64995 1.05018 0.74540 -0.65300
O 	O 	0.66377 1.04554 0.81583 -0.55500
O 	O 	0.74595 1.09999 0.69975 -0.65000
O 	O 	0.81577 1.08635 0.70367 -0.55300
O 	O 	0.74502 1.05031 0.65000 -0.65300
O 	O 	0.81553 1.04461 0.66295 -0.55600
O 	O 	0.70008 1.10010 0.74543 -0.65100
O 	O 	0.70453 1.08698 0.81538 -0.55300
O 	O 	0.64984 1.00442 0.69970 -0.65200
O 	O 	0.66281 0.93469 0.70578 -0.58100
O 	O 	0.80005 0.99736 0.85153 -0.64800
O 	O 	0.79463 1.06518 0.83728 -0.57000
O 	O 	0.85166 0.95045 0.75443 -0.64900
O 	O 	0.83781 0.95835 0.68547 -0.59700
O 	O 	0.75416 0.89880 0.79987 -0.64700
O 	O 	0.68623 0.91231 0.79502 -0.56800
Zr	Zr	0.72970 0.95401 0.79648 3.22500
O 	O 	0.69271 0.98770 0.76260 -1.49700
Zr	Zr	0.79664 0.95380 0.72940 3.22500
O 	O 	0.76235 0.98730 0.69242 -1.49300
Zr	Zr	0.79661 1.02117 0.79617 3.22500
O 	O 	0.76259 1.05770 0.76219 -1.49400
Zr	Zr	0.70425 0.97872 0.70439 3.22400
O 	O 	0.73834 0.94141 0.73819 -1.27900
Zr	Zr	0.70446 1.04581 0.77124 3.22400
O 	O 	0.73844 1.01225 0.80873 -1.28100
Zr	Zr	0.77136 1.04548 0.70409 3.22400
O 	O 	0.80896 1.01202 0.73808 -1.28400
O 	O 	0.78701 0.96373 0.78674 -1.54500
O 	O 	0.71355 1.03650 0.71345 -1.29000
C 	C 	0.78215 0.96957 0.86765 0.49400
C 	C 	0.78189 0.88274 0.78174 0.49400
C 	C 	0.86761 0.96848 0.78230 0.49600
C 	C 	0.71666 1.03295 0.63427 0.52900
C 	C 	0.63400 1.03259 0.71728 0.52800
C 	C 	0.71785 1.11577 0.71738 0.51000
H 	H 	0.66593 0.98171 0.76888 0.28600
H 	H 	0.76867 1.08456 0.76810 0.28700
H 	H 	0.80312 0.94749 0.80312 0.34300
H 	H 	0.76784 0.98112 0.66548 0.28800
H 	H 	0.71987 0.91473 0.67176 0.18400
H 	H 	0.78407 0.91815 0.66591 0.16800
H 	H 	0.72702 1.10357 0.81170 0.16600
H 	H 	0.76959 1.06300 0.85012 0.18600
H 	H 	0.64584 0.93916 0.72783 0.17400
H 	H 	0.68796 0.89989 0.76974 0.18400
H 	H 	0.81265 1.10270 0.72642 0.16600
H 	H 	0.85124 1.06188 0.76874 0.18700
H 	H 	0.68809 0.98114 0.85052 0.18700
H 	H 	0.64638 1.02375 0.81161 0.16700
H 	H 	0.85202 0.98232 0.68998 0.19800
H 	H 	0.81083 1.02288 0.64562 0.16900
O 	O 	0.74641 0.60126 0.20000 -0.64700
O 	O 	0.81442 0.58775 0.20504 -0.56900
O 	O 	0.70081 0.50337 0.14798 -0.63100
O 	O 	0.70396 0.43900 0.15819 -0.55600
O 	O 	0.64865 0.54939 0.24638 -0.64600
O 	O 	0.66257 0.54422 0.31414 -0.56900
O 	O 	0.80112 0.39996 0.25379 -0.63000
O 	O 	0.79340 0.41041 0.18698 -0.57600
O 	O 	0.85014 0.49519 0.30017 -0.65000
O 	O 	0.83674 0.56579 0.29478 -0.55600
O 	O 	0.75507 0.44955 0.34944 -0.64900
O 	O 	0.68477 0.45394 0.33600 -0.55400
O 	O 	0.75524 0.39980 0.29948 -0.64700
O 	O 	0.68496 0.41293 0.29462 -0.55400
O 	O 	0.80046 0.49570 0.34961 -0.65100
O 	O 	0.79563 0.56571 0.33614 -0.55400
O 	O 	0.85019 0.44910 0.25472 -0.64900
O 	O 	0.83773 0.45623 0.18425 -0.58500
O 	O 	0.70059 0.60126 0.24594 -0.64800
O 	O 	0.70613 0.58757 0.31410 -0.57100
O 	O 	0.64870 0.50376 0.20028 -0.64900
O 	O 	0.66285 0.43503 0.20771 -0.59500
O 	O 	0.74666 0.54928 0.14804 -0.64700
O 	O 	0.81465 0.54423 0.16187 -0.56900
Zr	Zr	0.77092 0.54609 0.20328 3.22500
O 	O 	0.80786 0.51244 0.23719 -1.49700
Zr	Zr	0.70387 0.47910 0.20326 3.22500
O 	O 	0.73814 0.44228 0.23688 -1.49200
Zr	Zr	0.70399 0.54612 0.27042 3.22500
O 	O 	0.73784 0.51220 0.30715 -1.49500
Zr	Zr	0.79623 0.45429 0.22823 3.22400
O 	O 	0.76215 0.48783 0.19079 -1.28100
Zr	Zr	0.79593 0.52130 0.29526 3.22400
O 	O 	0.76211 0.55865 0.26145 -1.28300
Zr	Zr	0.72914 0.45406 0.29508 3.22400
O 	O 	0.69161 0.48798 0.26148 -1.28300
O 	O 	0.71351 0.53646 0.21299 -1.54300
O 	O 	0.78685 0.46350 0.28598 -1.29000
C 	C 	0.71855 0.61719 0.21804 0.49400
C 	C 	0.71891 0.53119 0.13201 0.49100
C 	C 	0.63265 0.53140 0.21854 0.49300
C 	C 	0.78347 0.38418 0.28188 0.50700
C 	C 	0.86576 0.46674 0.28294 0.51000
C 	C 	0.78306 0.46738 0.36523 0.51100
H 	H 	0.83466 0.51868 0.23125 0.28600
H 	H 	0.73175 0.51818 0.33399 0.28700
H 	H 	0.69725 0.55266 0.19671 0.34300
H 	H 	0.73263 0.41535 0.23071 0.28800
H 	H 	0.78106 0.42157 0.16417 0.18400
H 	H 	0.71690 0.41576 0.16756 0.16700
H 	H 	0.77330 0.56187 0.35292 0.16700
H 	H 	0.73105 0.60057 0.31159 0.18700
H 	H 	0.85608 0.47680 0.19017 0.17600
H 	H 	0.81277 0.51898 0.14940 0.18600
H 	H 	0.68869 0.47603 0.35307 0.16600
H 	H 	0.65018 0.51893 0.31229 0.18600
H 	H 	0.81261 0.60010 0.23035 0.18600
H 	H 	0.85450 0.56110 0.27339 0.16600
H 	H 	0.64882 0.43929 0.23182 0.19800
H 	H 	0.68912 0.39602 0.27245 0.16800
O 	O 	0.60158 0.20061 0.74664 -0.64700
O 	O 	0.58786 0.20583 0.81472 -0.57000
O 	O 	0.50418 0.14798 0.70109 -0.63000
O 	O 	0.43968 0.15783 0.70433 -0.55700
O 	O 	0.54961 0.24652 0.64866 -0.64700
O 	O 	0.54433 0.31422 0.66237 -0.56800
O 	O 	0.40007 0.25457 0.80085 -0.62900
O 	O 	0.41046 0.18741 0.79335 -0.57700
O 	O 	0.49569 0.30050 0.85008 -0.64800
O 	O 	0.56533 0.29643 0.83682 -0.55200
O 	O 	0.44908 0.34936 0.75434 -0.65000
O 	O 	0.45437 0.33548 0.68386 -0.55600
O 	O 	0.39975 0.29965 0.75438 -0.64800
O 	O 	0.41298 0.29426 0.68446 -0.55400
O 	O 	0.49494 0.34979 0.80003 -0.65300
O 	O 	0.56580 0.33645 0.79446 -0.55700
O 	O 	0.44967 0.25497 0.85027 -0.64700
O 	O 	0.45575 0.18493 0.83797 -0.58200
O 	O 	0.60146 0.24638 0.70064 -0.64900
O 	O 	0.58753 0.31448 0.70600 -0.57000
O 	O 	0.50417 0.20023 0.64883 -0.64900
O 	O 	0.43544 0.20709 0.66290 -0.59500
O 	O 	0.55005 0.14840 0.74696 -0.64700
O 	O 	0.54452 0.16235 0.81487 -0.56900
Zr	Zr	0.54636 0.20369 0.77108 3.22500
O 	O 	0.51254 0.23770 0.80775 -1.49700
Zr	Zr	0.47950 0.20314 0.70399 3.22500
O 	O 	0.44247 0.23684 0.73799 -1.49300
Zr	Zr	0.54625 0.27063 0.70392 3.22500
O 	O 	0.51213 0.30742 0.73750 -1.49500
Zr	Zr	0.45436 0.22862 0.79616 3.22400
O 	O 	0.48812 0.19104 0.76236 -1.28100
Zr	Zr	0.52123 0.29575 0.79562 3.22400
O 	O 	0.55875 0.26186 0.76209 -1.28300
Zr	Zr	0.45409 0.29501 0.72865 3.22400
O 	O 	0.48820 0.26132 0.69143 -1.28300
O 	O 	0.53679 0.21319 0.71363 -1.54300
O 	O 	0.46346 0.28631 0.78648 -1.29000
C 	C 	0.61747 0.21861 0.71872 0.49400
C 	C 	0.53211 0.13220 0.71921 0.49200
C 	C 	0.53170 0.21862 0.63273 0.49500
C 	C 	0.38420 0.28243 0.78285 0.50600
C 	C 	0.46745 0.28310 0.86588 0.50800
C 	C 	0.46660 0.36520 0.78248 0.51100
H 	H 	0.51878 0.23189 0.83458 0.28600
H 	H 	0.51802 0.33425 0.73130 0.28700
H 	H 	0.55308 0.19695 0.69741 0.34200
H 	H 	0.41556 0.23057 0.73247 0.28800
H 	H 	0.42165 0.16452 0.78117 0.18300
H 	H 	0.41631 0.16719 0.71702 0.16800
H 	H 	0.56064 0.35442 0.77336 0.16800
H 	H 	0.60047 0.31213 0.73097 0.18900
H 	H 	0.47757 0.18975 0.85515 0.17400
H 	H 	0.51935 0.14973 0.81289 0.18400
H 	H 	0.47568 0.35336 0.68844 0.16700
H 	H 	0.51906 0.31230 0.64995 0.18700
H 	H 	0.60048 0.23097 0.81251 0.18600
H 	H 	0.56236 0.27357 0.85305 0.16500
H 	H 	0.43950 0.23122 0.64884 0.19700
H 	H 	0.39633 0.27188 0.68852 0.16800
O 	O 	0.35088 0.75377 0.45035 -0.64700
O 	O 	0.33675 0.68601 0.45472 -0.56800
O 	O 	0.25281 0.80027 0.39818 -0.63100
O 	O 	0.18856 0.79754 0.40858 -0.55600
O 	O 	0.30000 0.85184 0.49602 -0.64700
O 	O 	0.29400 0.83848 0.56395 -0.56900
O 	O 	0.14920 0.70026 0.50406 -0.63100
O 	O 	0.15957 0.70814 0.43727 -0.57500
O 	O 	0.24496 0.65043 0.54962 -0.65000
O 	O 	0.31481 0.66381 0.54541 -0.55200
O 	O 	0.19935 0.74649 0.59979 -0.64900
O 	O 	0.20340 0.81617 0.58637 -0.55200
O 	O 	0.14920 0.74625 0.54962 -0.64800
O 	O 	0.16298 0.81658 0.54460 -0.55400
O 	O 	0.24494 0.70055 0.59974 -0.65200
O 	O 	0.31519 0.70526 0.58604 -0.55400
O 	O 	0.19895 0.65057 0.50408 -0.64800
O 	O 	0.20473 0.66359 0.43427 -0.58100
O 	O 	0.35117 0.79934 0.49654 -0.64900
O 	O 	0.33696 0.79452 0.56457 -0.57000
O 	O 	0.25419 0.85210 0.45010 -0.65000
O 	O 	0.18514 0.83865 0.45833 -0.59700
O 	O 	0.29866 0.75437 0.39813 -0.64700
O 	O 	0.29323 0.68629 0.41173 -0.56900
Zr	Zr	0.29543 0.72984 0.45331 3.22500
O 	O 	0.26167 0.69312 0.48726 -1.49800
Zr	Zr	0.22883 0.79726 0.45351 3.22500
O 	O 	0.19184 0.76309 0.48707 -1.49300
Zr	Zr	0.29586 0.79672 0.52055 3.22500
O 	O 	0.26177 0.76302 0.55726 -1.49600
Zr	Zr	0.20354 0.70496 0.47838 3.22400
O 	O 	0.23721 0.73893 0.44094 -1.28100
Zr	Zr	0.27059 0.70490 0.54535 3.22400
O 	O 	0.30806 0.73852 0.51149 -1.28200
Zr	Zr	0.20366 0.77199 0.54526 3.22400
O 	O 	0.23779 0.80943 0.51172 -1.28400
O 	O 	0.28616 0.78724 0.46313 -1.54400
O 	O 	0.21274 0.71414 0.53621 -1.28800
C 	C 	0.36707 0.78126 0.46872 0.49500
C 	C 	0.28058 0.78219 0.38217 0.49400
C 	C 	0.28223 0.86785 0.46803 0.49600
C 	C 	0.13340 0.71813 0.53201 0.50500
C 	C 	0.21684 0.63469 0.53196 0.50600
C 	C 	0.21703 0.71841 0.61557 0.50800
H 	H 	0.26785 0.66631 0.48124 0.28600
H 	H 	0.26782 0.76908 0.58409 0.28700
H 	H 	0.30262 0.80324 0.44684 0.34200
H 	H 	0.16493 0.76874 0.48093 0.28800
H 	H 	0.17064 0.72077 0.41458 0.18300
H 	H 	0.16516 0.78498 0.41807 0.16800
H 	H 	0.31093 0.72706 0.60340 0.16800
H 	H 	0.34978 0.76948 0.56228 0.18800
H 	H 	0.22661 0.64642 0.43876 0.17500
H 	H 	0.26815 0.68863 0.39901 0.18600
H 	H 	0.22648 0.81327 0.60229 0.16600
H 	H 	0.26898 0.85133 0.56162 0.18500
H 	H 	0.34922 0.68763 0.47999 0.18500
H 	H 	0.31132 0.64728 0.52285 0.16600
H 	H 	0.19000 0.85300 0.48214 0.19800
H 	H 	0.14584 0.81235 0.52261 0.16900
O 	O 	0.35108 0.25393 0.95090 -0.64600
O 	O 	0.33756 0.18578 0.95609 -0.57000
O 	O 	0.25312 0.29953 0.89910 -0.63000
O 	O 	0.18871 0.29601 0.90936 -0.55800
O 	O 	0.29958 0.35145 0.99691 -0.64700
O 	O 	0.29401 0.33784 1.06497 -0.57100
O 	O 	0.14976 0.19916 1.00541 -0.63600
O 	O 	0.16005 0.20692 0.93845 -0.57500
O 	O 	0.24547 0.14978 1.05099 -0.65300
O 	O 	0.31559 0.16342 1.04625 -0.55300
O 	O 	0.19992 0.24586 1.10083 -0.65000
O 	O 	0.20370 0.31560 1.08707 -0.55200
O 	O 	0.14972 0.24512 1.05090 -0.65400
O 	O 	0.16297 0.31545 1.04557 -0.55400
O 	O 	0.24573 0.20013 1.10090 -0.65200
O 	O 	0.31570 0.20467 1.08714 -0.55300
O 	O 	0.19958 0.14962 1.00542 -0.65300
O 	O 	0.20530 0.16244 0.93559 -0.58100
O 	O 	0.35115 0.29972 0.99688 -0.64800
O 	O 	0.33750 0.29420 1.06507 -0.57100
O 	O 	0.25384 0.35137 0.95091 -0.64800
O 	O 	0.18496 0.33747 0.95904 -0.59700
O 	O 	0.29907 0.25371 0.89913 -0.64600
O 	O 	0.29396 0.18562 0.91286 -0.57000
Zr	Zr	0.29590 0.22929 0.95433 3.22500
O 	O 	0.26226 0.19242 0.98833 -1.49800
Zr	Zr	0.22890 0.29632 0.95437 3.22500
O 	O 	0.19211 0.26208 0.98808 -1.49300
Zr	Zr	0.29604 0.29627 1.02139 3.22500
O 	O 	0.26216 0.26244 1.05817 -1.49500
Zr	Zr	0.20405 0.20397 0.97955 3.22400
O 	O 	0.23759 0.23800 0.94198 -1.28000
Zr	Zr	0.27117 0.20430 1.04640 3.22400
O 	O 	0.30851 0.23810 1.01249 -1.28200
Zr	Zr	0.20399 0.27117 1.04622 3.22400
O 	O 	0.23789 0.30868 1.01255 -1.28300
O 	O 	0.28624 0.28663 0.96405 -1.54600
O 	O 	0.21329 0.21333 1.03732 -1.28900
C 	C 	0.36702 0.28185 0.96888 0.49400
C 	C 	0.28104 0.28156 0.88318 0.49100
C 	C 	0.28174 0.36731 0.96890 0.49400
C 	C 	0.13389 0.21684 1.03350 0.53100
C 	C 	0.21731 0.13380 1.03350 0.52800
C 	C 	0.21775 0.21792 1.11669 0.51000
H 	H 	0.26852 0.16563 0.98237 0.28600
H 	H 	0.26821 0.26860 1.08498 0.28700
H 	H 	0.30248 0.30279 0.94772 0.34400
H 	H 	0.16515 0.26758 0.98198 0.28800
H 	H 	0.17110 0.21944 0.91569 0.18300
H 	H 	0.16527 0.28365 0.91899 0.16800
H 	H 	0.31198 0.22707 1.10383 0.16700
H 	H 	0.35055 0.26930 1.06253 0.18700
H 	H 	0.22730 0.14540 0.94008 0.17500
H 	H 	0.26880 0.18771 0.90024 0.18500
H 	H 	0.22658 0.31257 1.10326 0.16600
H 	H 	0.26901 0.35072 1.06257 0.18600
H 	H 	0.35019 0.18785 0.98125 0.18600
H 	H 	0.31175 0.14650 1.02403 0.16600
H 	H 	0.18959 0.35175 0.98294 0.19800
H 	H 	0.14583 0.31106 1.02362 0.16900
