data_crystal

_cell_length_a 26.85140
_cell_length_b 26.85140
_cell_length_c 26.85140
_cell_angle_alpha 90.00000
_cell_angle_beta  90.00000
_cell_angle_gamma 90.00000

_symmetry_space_group_name_	'P 1'
_symmetry_space_group_name_H-M	'P 1'

loop_
_symmetry_equiv_pos_as_xyz
  x,y,z

loop_
_atom_site_label
_atom_site_type_symbol
_atom_site_fract_x
_atom_site_fract_y
_atom_site_fract_z
_atom_site_charge
O 	O 	0.12872 0.06758 -0.00156 -0.62900
O 	O 	-0.12880 0.06833 0.00162 -0.62600
O 	O 	0.00141 0.12902 -0.06684 -0.60900
O 	O 	-0.00161 0.12753 0.06944 -0.62600
O 	O 	-0.00083 0.06621 0.12965 -0.62400
O 	O 	0.00156 0.06928 -0.12842 -0.63800
O 	O 	-0.06774 0.12851 0.00256 -0.61600
O 	O 	0.06793 0.12811 -0.00077 -0.61800
Zr	Zr	0.00003 0.08761 0.00078 3.23400
O 	O 	-0.04530 0.04446 0.04564 -1.27000
O 	O 	0.04532 0.04507 -0.04488 -1.27000
C 	C 	0.11429 0.11401 -0.00209 0.48900
C 	C 	-0.11421 0.11466 0.00287 0.48400
C 	C 	0.00202 0.11554 -0.11346 0.48100
C 	C 	-0.00157 0.11266 0.11570 0.49300
H 	H 	-0.06613 0.06664 -0.06588 0.31800
O 	O 	-0.04493 0.04513 -0.04485 -1.50200
H 	H 	0.06625 0.06506 0.06666 0.31900
O 	O 	0.04488 0.04393 0.04541 -1.50200
O 	O 	-0.12935 -0.06793 -0.00325 -0.61400
O 	O 	0.12832 -0.06906 0.00268 -0.61100
O 	O 	-0.06836 -0.00067 -0.12922 -0.63400
O 	O 	-0.06871 0.00057 0.12868 -0.63200
O 	O 	0.06823 -0.00303 0.12899 -0.62700
O 	O 	0.06857 0.00249 -0.12875 -0.63700
O 	O 	-0.00365 -0.12855 -0.06910 -0.62300
O 	O 	0.00060 -0.12978 0.06684 -0.61900
O 	O 	-0.00097 -0.06745 -0.12962 -0.63800
O 	O 	0.00079 -0.06992 0.12831 -0.63800
O 	O 	-0.12880 -0.00080 -0.06832 -0.61300
O 	O 	0.12906 -0.00066 -0.06765 -0.62300
O 	O 	0.12864 -0.00223 0.06809 -0.61400
O 	O 	-0.12900 0.00128 0.06759 -0.62000
O 	O 	-0.06888 -0.12902 -0.00169 -0.62300
O 	O 	0.06735 -0.12966 -0.00054 -0.63000
Zr	Zr	-0.08833 -0.00002 -0.00030 3.23500
Zr	Zr	0.08803 -0.00075 0.00012 3.23400
Zr	Zr	0.00002 0.00050 -0.08857 3.23400
Zr	Zr	-0.00019 -0.00134 0.08837 3.23400
Zr	Zr	-0.00063 -0.08858 -0.00080 3.23500
O 	O 	0.04489 -0.04635 0.04495 -1.26700
O 	O 	-0.04545 -0.04496 -0.04589 -1.26600
C 	C 	-0.11511 -0.11434 -0.00334 0.48600
C 	C 	0.11369 -0.11532 0.00184 0.49200
C 	C 	-0.11479 -0.00127 -0.11475 0.48100
C 	C 	-0.11507 0.00183 0.11405 0.48600
C 	C 	0.11466 -0.00324 0.11453 0.49100
C 	C 	0.11484 0.00117 -0.11400 0.48800
C 	C 	-0.00328 -0.11380 -0.11530 0.48800
C 	C 	0.00104 -0.11615 0.11339 0.48900
H 	H 	0.06572 -0.06645 -0.06662 0.31500
O 	O 	0.04458 -0.04510 -0.04535 -1.49800
H 	H 	-0.06691 -0.06680 0.06554 0.31500
O 	O 	-0.04544 -0.04554 0.04451 -1.50000
O 	O 	0.62826 0.56676 -0.00178 -0.63100
O 	O 	0.37085 0.56694 0.00160 -0.62700
O 	O 	0.50148 0.62852 -0.06706 -0.62000
O 	O 	0.49752 0.62706 0.06942 -0.63600
O 	O 	0.49932 0.56565 0.12956 -0.62500
O 	O 	0.50085 0.56867 -0.12857 -0.63800
O 	O 	0.43117 0.62800 0.00105 -0.63000
O 	O 	0.56806 0.62789 0.00063 -0.63000
Zr	Zr	0.49961 0.58735 0.00067 3.23400
O 	O 	0.45450 0.54390 0.04568 -1.26600
O 	O 	0.54479 0.54468 -0.04515 -1.26600
C 	C 	0.61443 0.61325 -0.00022 0.48500
C 	C 	0.38479 0.61340 0.00090 0.48400
C 	C 	0.50182 0.61495 -0.11367 0.48200
C 	C 	0.49808 0.61209 0.11564 0.49500
H 	H 	0.43340 0.56561 -0.06596 0.31300
O 	O 	0.45466 0.54436 -0.04471 -1.50000
H 	H 	0.56597 0.56428 0.06649 0.31500
O 	O 	0.54459 0.54336 0.04505 -1.49900
O 	O 	0.37070 0.43084 -0.00140 -0.62300
O 	O 	0.62825 0.43047 0.00023 -0.62100
O 	O 	0.43096 0.49843 -0.12903 -0.63700
O 	O 	0.43146 0.49991 0.12889 -0.63200
O 	O 	0.56830 0.49620 0.12857 -0.62800
O 	O 	0.56767 0.50204 -0.12923 -0.63800
O 	O 	0.49646 0.37087 -0.06897 -0.62200
O 	O 	0.50136 0.36977 0.06676 -0.62000
O 	O 	0.49809 0.43181 -0.12959 -0.63600
O 	O 	0.50115 0.42956 0.12824 -0.63700
O 	O 	0.37079 0.49736 -0.06788 -0.62200
O 	O 	0.62838 0.49951 -0.06836 -0.62000
O 	O 	0.62849 0.49650 0.06743 -0.62300
O 	O 	0.37104 0.50055 0.06798 -0.61700
O 	O 	0.43154 0.37014 -0.00146 -0.62400
O 	O 	0.56727 0.36994 -0.00061 -0.62800
Zr	Zr	0.41154 0.49899 0.00001 3.23500
Zr	Zr	0.58765 0.49870 -0.00043 3.23500
Zr	Zr	0.49942 0.49991 -0.08866 3.23400
Zr	Zr	0.49982 0.49812 0.08826 3.23400
Zr	Zr	0.49941 0.41092 -0.00082 3.23500
O 	O 	0.54494 0.45316 0.04475 -1.26900
O 	O 	0.45427 0.45425 -0.04580 -1.26800
C 	C 	0.38522 0.38450 -0.00136 0.48500
C 	C 	0.61365 0.38416 -0.00042 0.48600
C 	C 	0.38463 0.49707 -0.11437 0.48300
C 	C 	0.38506 0.50110 0.11440 0.49000
C 	C 	0.61464 0.49554 0.11392 0.48900
C 	C 	0.61400 0.50116 -0.11465 0.48800
C 	C 	0.49625 0.38542 -0.11521 0.48700
C 	C 	0.50187 0.38333 0.11331 0.49000
H 	H 	0.56523 0.43316 -0.06724 0.31500
O 	O 	0.54419 0.45438 -0.04574 -1.50200
H 	H 	0.43344 0.43244 0.06598 0.31400
O 	O 	0.45467 0.45371 0.04471 -1.50300
O 	O 	0.12857 0.56849 0.49790 -0.63400
O 	O 	-0.12876 0.56909 0.50139 -0.64000
O 	O 	0.00230 0.62902 0.43135 -0.62700
O 	O 	-0.00178 0.62901 0.56748 -0.62600
O 	O 	-0.00045 0.56884 0.62866 -0.63400
O 	O 	0.00124 0.56825 0.37052 -0.63900
O 	O 	-0.06774 0.62933 0.50106 -0.61600
O 	O 	0.06783 0.62900 0.49841 -0.62700
Zr	Zr	-0.00005 0.58840 0.49953 3.23500
O 	O 	-0.04538 0.54574 0.54496 -1.26900
O 	O 	0.04520 0.54552 0.45428 -1.27300
C 	C 	0.11421 0.61492 0.49751 0.48300
C 	C 	-0.11418 0.61543 0.50208 0.48300
C 	C 	0.00293 0.61451 0.38501 0.48600
C 	C 	-0.00083 0.61517 0.61396 0.48600
H 	H 	-0.06623 0.56693 0.43339 0.31400
O 	O 	-0.04513 0.54547 0.45459 -1.50300
H 	H 	0.06608 0.56650 0.56572 0.31100
O 	O 	0.04470 0.54519 0.54466 -1.50100
O 	O 	-0.12933 0.43278 0.49828 -0.61600
O 	O 	0.12826 0.43223 0.50230 -0.62300
O 	O 	-0.06862 0.49902 0.37079 -0.63600
O 	O 	-0.06879 0.50331 0.62854 -0.63700
O 	O 	0.06799 0.49882 0.62871 -0.63500
O 	O 	0.06813 0.50137 0.37089 -0.63000
O 	O 	-0.00329 0.37159 0.43094 -0.63600
O 	O 	0.00151 0.37136 0.56777 -0.63800
O 	O 	-0.00128 0.43258 0.37087 -0.64400
O 	O 	0.00111 0.43210 0.62869 -0.63900
O 	O 	-0.12930 0.49992 0.43173 -0.63200
O 	O 	0.12871 0.50060 0.43190 -0.63500
O 	O 	0.12860 0.49941 0.56773 -0.62900
O 	O 	-0.12912 0.50199 0.56756 -0.63500
O 	O 	-0.06924 0.37155 0.49850 -0.63500
O 	O 	0.06762 0.37137 0.50018 -0.64100
Zr	Zr	-0.08844 0.50065 0.49967 3.23500
Zr	Zr	0.08784 0.50024 0.49977 3.23500
Zr	Zr	-0.00025 0.50038 0.41139 3.23500
Zr	Zr	-0.00034 0.50041 0.58816 3.23400
Zr	Zr	-0.00073 0.41193 0.49954 3.23400
O 	O 	0.04461 0.45502 0.54489 -1.26700
O 	O 	-0.04576 0.45523 0.45430 -1.26900
C 	C 	-0.11558 0.38624 0.49793 0.48400
C 	C 	0.11397 0.38590 0.50212 0.48900
C 	C 	-0.11497 0.49951 0.38537 0.48100
C 	C 	-0.11516 0.50421 0.61394 0.48500
C 	C 	0.11431 0.49915 0.61410 0.48700
C 	C 	0.11445 0.50075 0.38553 0.48600
C 	C 	-0.00347 0.38621 0.38453 0.49300
C 	C 	0.00267 0.38576 0.61415 0.48700
H 	H 	0.06558 0.43382 0.43362 0.31300
O 	O 	0.04443 0.45526 0.45480 -1.49800
H 	H 	-0.06668 0.43438 0.56613 0.31500
O 	O 	-0.04539 0.45549 0.54476 -1.49600
O 	O 	0.62842 0.06807 0.49619 -0.63600
O 	O 	0.37083 0.06631 0.50189 -0.64800
O 	O 	0.50133 0.12831 0.43097 -0.64100
O 	O 	0.49682 0.12850 0.56660 -0.64300
O 	O 	0.49979 0.06885 0.62799 -0.63500
O 	O 	0.50138 0.06744 0.37032 -0.63900
O 	O 	0.43027 0.12780 0.49933 -0.62700
O 	O 	0.56743 0.12870 0.49781 -0.63900
Zr	Zr	0.49925 0.08776 0.49899 3.23400
O 	O 	0.45462 0.04467 0.54475 -1.26700
O 	O 	0.54484 0.04488 0.45390 -1.27300
C 	C 	0.61383 0.11437 0.49569 0.48000
C 	C 	0.38395 0.11284 0.50063 0.48600
C 	C 	0.50275 0.11378 0.38471 0.48900
C 	C 	0.49826 0.11513 0.61309 0.49200
H 	H 	0.43333 0.06526 0.43307 0.31200
O 	O 	0.45455 0.04407 0.45441 -1.50200
H 	H 	0.56610 0.06650 0.56480 0.31100
O 	O 	0.54480 0.04492 0.54392 -1.49700
O 	O 	0.37149 -0.06953 0.49900 -0.63500
O 	O 	0.62889 -0.06837 0.50080 -0.63300
O 	O 	0.43138 -0.00249 0.37062 -0.63800
O 	O 	0.43237 0.00218 0.62888 -0.63800
O 	O 	0.56895 -0.00053 0.62816 -0.63700
O 	O 	0.56789 0.00077 0.37034 -0.63000
O 	O 	0.49712 -0.12917 0.43103 -0.63100
O 	O 	0.50320 -0.12903 0.56789 -0.63600
O 	O 	0.49899 -0.06839 0.37074 -0.64400
O 	O 	0.50264 -0.06817 0.62867 -0.63700
O 	O 	0.37083 -0.00174 0.43177 -0.63600
O 	O 	0.62871 0.00002 0.43112 -0.63900
O 	O 	0.62922 -0.00064 0.56690 -0.63700
O 	O 	0.37166 0.00022 0.56821 -0.63400
O 	O 	0.43262 -0.12990 0.49958 -0.63800
O 	O 	0.56824 -0.12928 0.49951 -0.64400
Zr	Zr	0.41185 -0.00117 0.49982 3.23400
Zr	Zr	0.58813 -0.00021 0.49912 3.23500
Zr	Zr	0.49971 -0.00056 0.41114 3.23500
Zr	Zr	0.50044 0.00004 0.58793 3.23400
Zr	Zr	0.50026 -0.08872 0.49957 3.23400
O 	O 	0.54554 -0.04541 0.54473 -1.26800
O 	O 	0.45470 -0.04613 0.45428 -1.27000
C 	C 	0.38623 -0.11579 0.49956 0.48500
C 	C 	0.61450 -0.11474 0.50000 0.48000
C 	C 	0.38510 -0.00221 0.38533 0.48500
C 	C 	0.38593 0.00262 0.61456 0.48700
C 	C 	0.61522 -0.00029 0.61336 0.48600
C 	C 	0.61425 0.00027 0.38482 0.48300
C 	C 	0.49677 -0.11470 0.38457 0.48700
C 	C 	0.50436 -0.11456 0.61423 0.48100
H 	H 	0.56586 -0.06672 0.43305 0.31100
O 	O 	0.54482 -0.04536 0.45440 -1.50100
H 	H 	0.43462 -0.06668 0.56654 0.31200
O 	O 	0.45557 -0.04549 0.54493 -1.49900
C 	C 	0.15386 0.15419 -0.00363 -0.17600
C 	C 	0.20463 0.14163 0.00154 0.06500
C 	C 	0.24210 0.17831 0.00108 -0.08900
C 	C 	0.23045 0.22916 -0.00464 0.04900
C 	C 	0.17988 0.24189 -0.01028 -0.14200
C 	C 	0.14186 0.20533 -0.00995 0.22100
C 	C 	0.27057 0.26879 -0.00390 0.04900
C 	C 	0.31259 0.26413 0.02718 -0.13700
C 	C 	0.34942 0.30147 0.02976 0.23000
C 	C 	0.34578 0.34475 -0.00062 -0.18700
C 	C 	0.30366 0.34948 -0.03148 0.07300
C 	C 	0.26678 0.31225 -0.03315 -0.09000
O 	O 	0.09219 0.21986 -0.01603 -0.26100
O 	O 	0.38745 0.29498 0.06479 -0.28600
H 	H 	0.21565 0.10313 0.00626 0.03900
H 	H 	0.28048 0.16657 0.00480 0.05600
H 	H 	0.16954 0.28066 -0.01407 0.06800
H 	H 	0.31613 0.23209 0.05140 0.08100
H 	H 	0.29961 0.38190 -0.05515 0.03900
H 	H 	0.23555 0.31731 -0.05812 0.05400
H 	H 	0.08745 0.25704 -0.02054 0.14000
H 	H 	0.40663 0.32621 0.07329 0.16200
C 	C 	0.15391 0.65501 0.49672 -0.18400
C 	C 	0.20480 0.64193 0.49852 0.06800
C 	C 	0.24249 0.67836 0.49847 -0.08800
C 	C 	0.23094 0.72948 0.49642 0.05100
C 	C 	0.18029 0.74282 0.49438 -0.14100
C 	C 	0.14203 0.70654 0.49454 0.22300
C 	C 	0.27128 0.76880 0.49713 0.05100
C 	C 	0.31446 0.76277 0.52632 -0.13800
C 	C 	0.35147 0.79996 0.52902 0.23000
C 	C 	0.34684 0.84437 0.50042 -0.19100
C 	C 	0.30357 0.85033 0.47138 0.07500
C 	C 	0.26650 0.81333 0.46978 -0.09100
O 	O 	0.09226 0.72180 0.49259 -0.26700
O 	O 	0.39068 0.79207 0.56243 -0.28700
H 	H 	0.21577 0.60316 0.50011 0.04100
H 	H 	0.28093 0.66628 0.49950 0.06000
H 	H 	0.17014 0.78182 0.49359 0.07200
H 	H 	0.31877 0.72974 0.54905 0.08300
H 	H 	0.29868 0.88361 0.44910 0.03500
H 	H 	0.23429 0.81941 0.44632 0.05800
H 	H 	0.08764 0.75923 0.49104 0.15100
H 	H 	0.40974 0.82304 0.57208 0.16000
C 	C 	0.84524 0.84614 -0.00422 -0.16700
C 	C 	0.84990 0.80367 0.02603 0.06400
C 	C 	0.81281 0.76669 0.02694 -0.08600
C 	C 	0.76998 0.76986 -0.00351 0.04800
C 	C 	0.76583 0.81225 -0.03450 -0.14000
C 	C 	0.80255 0.85026 -0.03468 0.22200
C 	C 	0.73016 0.72942 -0.00276 0.05000
C 	C 	0.74165 0.68008 0.01122 -0.13800
C 	C 	0.70486 0.64279 0.01498 0.22900
C 	C 	0.65470 0.65282 0.00080 -0.18900
C 	C 	0.64333 0.70205 -0.01369 0.06900
C 	C 	0.68001 0.73960 -0.01486 -0.09000
O 	O 	0.79755 0.89150 -0.06610 -0.25800
O 	O 	0.71976 0.59713 0.03509 -0.28600
H 	H 	0.88199 0.79961 0.05015 0.03800
H 	H 	0.81770 0.73599 0.05251 0.05500
H 	H 	0.73440 0.81581 -0.05942 0.06700
H 	H 	0.77949 0.66994 0.02050 0.08100
H 	H 	0.60567 0.71180 -0.02434 0.03800
H 	H 	0.66851 0.77687 -0.02486 0.05400
H 	H 	0.76603 0.89112 -0.08687 0.14100
H 	H 	0.69295 0.57967 0.05492 0.17000
C 	C 	0.84402 0.34673 0.49742 -0.17200
C 	C 	0.85646 0.29606 0.49089 0.06500
C 	C 	0.81972 0.25858 0.49035 -0.08800
C 	C 	0.76887 0.27006 0.49648 0.05000
C 	C 	0.75622 0.32057 0.50306 -0.14100
C 	C 	0.79283 0.35861 0.50363 0.22200
C 	C 	0.72921 0.22983 0.49581 0.05300
C 	C 	0.73334 0.18795 0.46439 -0.13800
C 	C 	0.69606 0.15088 0.46245 0.23600
C 	C 	0.65341 0.15414 0.49377 -0.19900
C 	C 	0.64929 0.19612 0.52492 0.07700
C 	C 	0.68634 0.23321 0.52595 -0.09200
O 	O 	0.77832 0.40815 0.51072 -0.26500
O 	O 	0.70205 0.11288 0.42730 -0.28900
H 	H 	0.89496 0.28511 0.48607 0.03700
H 	H 	0.83143 0.22029 0.48579 0.05800
H 	H 	0.71745 0.33085 0.50709 0.07100
H 	H 	0.76496 0.18464 0.43960 0.08400
H 	H 	0.61760 0.19983 0.54953 0.01900
H 	H 	0.68171 0.26421 0.55128 0.05700
H 	H 	0.74111 0.41283 0.51500 0.14700
H 	H 	0.67088 0.09313 0.41995 0.17300
C 	C 	0.84621 0.15488 0.00385 -0.16900
C 	C 	0.79530 0.14198 0.00149 0.06300
C 	C 	0.75772 0.17854 0.00135 -0.08700
C 	C 	0.76937 0.22963 0.00371 0.04900
C 	C 	0.82008 0.24278 0.00649 -0.14200
C 	C 	0.85825 0.20634 0.00658 0.21900
C 	C 	0.72905 0.26904 0.00256 0.04900
C 	C 	0.68599 0.26291 -0.02682 -0.13700
C 	C 	0.64887 0.29999 -0.02971 0.23000
C 	C 	0.65322 0.34445 -0.00115 -0.18600
C 	C 	0.69642 0.35058 0.02798 0.07200
C 	C 	0.73361 0.31368 0.02981 -0.09000
O 	O 	0.90808 0.22132 0.00919 -0.26400
O 	O 	0.60979 0.29191 -0.06324 -0.28800
H 	H 	0.78421 0.10326 -0.00046 0.04400
H 	H 	0.71926 0.16655 -0.00012 0.05600
H 	H 	0.83036 0.28174 0.00760 0.06700
H 	H 	0.68184 0.22984 -0.04952 0.08000
H 	H 	0.70114 0.38389 0.05023 0.04200
H 	H 	0.76569 0.31990 0.05340 0.05500
H 	H 	0.91285 0.25872 0.01103 0.14000
H 	H 	0.59059 0.32280 -0.07292 0.16100
C 	C 	0.84631 0.65562 0.50334 -0.17600
C 	C 	0.79557 0.64305 0.49784 0.06400
C 	C 	0.75811 0.67969 0.49791 -0.08500
C 	C 	0.76971 0.73053 0.50359 0.05100
C 	C 	0.82024 0.74331 0.50958 -0.14100
C 	C 	0.85827 0.70676 0.50961 0.22400
C 	C 	0.72956 0.77008 0.50258 0.05300
C 	C 	0.68781 0.76544 0.47112 -0.13600
C 	C 	0.65084 0.80264 0.46848 0.23300
C 	C 	0.65409 0.84571 0.49918 -0.19300
C 	C 	0.69598 0.85046 0.53034 0.07700
C 	C 	0.73300 0.81339 0.53207 -0.08900
O 	O 	0.90791 0.72128 0.51602 -0.26000
O 	O 	0.61304 0.79618 0.43319 -0.28900
H 	H 	0.78456 0.60455 0.49315 0.04200
H 	H 	0.71976 0.66793 0.49395 0.06100
H 	H 	0.83053 0.78210 0.51337 0.07200
H 	H 	0.68458 0.73350 0.44672 0.08400
H 	H 	0.69973 0.88275 0.55424 0.03500
H 	H 	0.76402 0.81840 0.55730 0.05900
H 	H 	0.91262 0.75848 0.52041 0.14800
H 	H 	0.59366 0.82733 0.42482 0.15600
C 	C 	0.15386 0.34643 0.50323 -0.18600
C 	C 	0.14521 0.29966 0.48123 0.07100
C 	C 	0.18219 0.26258 0.48064 -0.08900
C 	C 	0.22921 0.27037 0.50281 0.05300
C 	C 	0.23779 0.31708 0.52528 -0.14200
C 	C 	0.20092 0.35488 0.52554 0.22800
C 	C 	0.26868 0.22990 0.50267 0.05100
C 	C 	0.25527 0.17928 0.50355 -0.13700
C 	C 	0.29083 0.14081 0.50081 0.23000
C 	C 	0.34299 0.15206 0.50018 -0.19200
C 	C 	0.35615 0.20306 0.50021 0.07000
C 	C 	0.31993 0.24105 0.50096 -0.08900
O 	O 	0.21042 0.40040 0.54904 -0.26600
O 	O 	0.27167 0.09246 0.49860 -0.28500
H 	H 	0.10985 0.29195 0.46340 0.02900
H 	H 	0.17391 0.22791 0.46187 0.05800
H 	H 	0.27298 0.32414 0.54362 0.07100
H 	H 	0.21639 0.16888 0.50574 0.08500
H 	H 	0.39495 0.21400 0.49941 0.04000
H 	H 	0.33238 0.27934 0.49958 0.05800
H 	H 	0.24488 0.40287 0.56426 0.14600
H 	H 	0.29058 0.06890 0.47638 0.17500
C 	C 	0.15314 0.84504 0.00281 -0.17500
C 	C 	0.15126 0.80514 -0.03100 0.06900
C 	C 	0.18857 0.76832 -0.03167 -0.08900
C 	C 	0.22873 0.76921 0.00236 0.05000
C 	C 	0.23002 0.80899 0.03679 -0.14200
C 	C 	0.19307 0.84672 0.03698 0.22500
C 	C 	0.26871 0.72903 0.00194 0.04900
C 	C 	0.25834 0.68050 -0.01527 -0.13900
C 	C 	0.29543 0.64346 -0.01836 0.22900
C 	C 	0.34454 0.65290 -0.00055 -0.18900
C 	C 	0.35480 0.70135 0.01698 0.07100
C 	C 	0.31791 0.73870 0.01776 -0.09100
O 	O 	0.19488 0.88510 0.07210 -0.26100
O 	O 	0.28208 0.59878 -0.04152 -0.28600
H 	H 	0.12127 0.80303 -0.05791 0.02800
H 	H 	0.18606 0.73957 -0.05975 0.05500
H 	H 	0.25930 0.81056 0.06440 0.06800
H 	H 	0.22120 0.67091 -0.02757 0.08100
H 	H 	0.39169 0.71057 0.03041 0.03200
H 	H 	0.32846 0.77546 0.03039 0.05300
H 	H 	0.22439 0.88290 0.09554 0.14300
H 	H 	0.31040 0.58179 -0.05958 0.16700
C 	C 	-0.00191 0.15192 0.15577 -0.18000
C 	C 	-0.02397 0.19859 0.14671 0.06900
C 	C 	-0.02501 0.23580 0.18354 -0.08900
C 	C 	-0.00329 0.22819 0.23079 0.05000
C 	C 	0.01907 0.18152 0.23984 -0.14300
C 	C 	0.01979 0.14361 0.20313 0.22400
C 	C 	-0.00359 0.26882 0.27004 0.05000
C 	C 	-0.00215 0.31942 0.25646 -0.14200
C 	C 	-0.00448 0.35790 0.29203 0.23000
C 	C 	-0.00532 0.34671 0.34406 -0.19400
C 	C 	-0.00616 0.29581 0.35743 0.06900
C 	C 	-0.00578 0.25777 0.32130 -0.09300
O 	O 	0.04331 0.09818 0.21305 -0.27800
O 	O 	-0.00619 0.40645 0.27346 -0.29200
H 	H 	-0.04129 0.20618 0.11108 0.04200
H 	H 	-0.04365 0.27047 0.17494 0.05500
H 	H 	0.03706 0.17462 0.27522 0.06800
H 	H 	0.00023 0.32974 0.21757 0.08100
H 	H 	-0.00722 0.28503 0.39627 0.03200
H 	H 	-0.00770 0.21952 0.33382 0.05500
H 	H 	0.05812 0.09585 0.24769 0.14000
H 	H 	-0.03120 0.42840 0.29098 0.16700
C 	C 	0.49483 0.34573 0.84529 -0.17700
C 	C 	0.51832 0.35371 0.79915 0.06700
C 	C 	0.51883 0.31666 0.76217 -0.08800
C 	C 	0.49506 0.27035 0.76947 0.05100
C 	C 	0.47102 0.26253 0.81552 -0.14100
C 	C 	0.47091 0.29943 0.85325 0.22600
C 	C 	0.49536 0.23071 0.72926 0.05100
C 	C 	0.49662 0.24379 0.67852 -0.14100
C 	C 	0.49979 0.20777 0.64056 0.23000
C 	C 	0.49851 0.15588 0.65227 -0.19400
C 	C 	0.49631 0.14300 0.70324 0.07100
C 	C 	0.49528 0.17952 0.74088 -0.09200
O 	O 	0.44599 0.29076 0.89818 -0.26100
O 	O 	0.50507 0.22572 0.59202 -0.28800
H 	H 	0.53742 0.38850 0.79195 0.03100
H 	H 	0.53882 0.32428 0.72804 0.05600
H 	H 	0.45143 0.22795 0.82214 0.07100
H 	H 	0.49605 0.28262 0.66772 0.08200
H 	H 	0.49562 0.10426 0.71439 0.03300
H 	H 	0.49506 0.16733 0.77928 0.05600
H 	H 	0.42969 0.25678 0.90033 0.14700
H 	H 	0.53058 0.20693 0.57175 0.16300
C 	C 	-0.00457 0.84679 0.84515 -0.17500
C 	C 	0.02661 0.85061 0.80331 0.06700
C 	C 	0.02739 0.81330 0.76660 -0.08900
C 	C 	-0.00411 0.77123 0.76947 0.05000
C 	C 	-0.03600 0.76794 0.81122 -0.14200
C 	C 	-0.03606 0.80483 0.84899 0.22500
C 	C 	-0.00348 0.73125 0.72936 0.05100
C 	C 	0.01122 0.74236 0.68019 -0.14000
C 	C 	0.01505 0.70535 0.64323 0.23200
C 	C 	0.00012 0.65545 0.65337 -0.19200
C 	C 	-0.01515 0.64447 0.70242 0.07200
C 	C 	-0.01634 0.68134 0.73973 -0.09100
O 	O 	-0.06823 0.80071 0.88977 -0.26300
O 	O 	0.03616 0.71960 0.59787 -0.28400
H 	H 	0.05157 0.88209 0.79962 0.03000
H 	H 	0.05367 0.81737 0.73638 0.05600
H 	H 	-0.06166 0.73707 0.81445 0.06900
H 	H 	0.02110 0.78004 0.66997 0.08200
H 	H 	-0.02638 0.60698 0.71219 0.03300
H 	H 	-0.02693 0.67021 0.77695 0.05500
H 	H 	-0.08967 0.76965 0.88922 0.14400
H 	H 	0.05632 0.69241 0.58141 0.17100
C 	C 	0.49781 0.65125 0.15575 -0.18500
C 	C 	0.47406 0.69722 0.14748 0.07200
C 	C 	0.47308 0.73433 0.18440 -0.09200
C 	C 	0.49664 0.72736 0.23087 0.05200
C 	C 	0.52068 0.68138 0.23909 -0.14400
C 	C 	0.52128 0.64353 0.20233 0.22600
C 	C 	0.49646 0.76795 0.27014 0.05000
C 	C 	0.49556 0.81856 0.25657 -0.14000
C 	C 	0.49315 0.85694 0.29222 0.23000
C 	C 	0.49476 0.84573 0.34423 -0.19000
C 	C 	0.49630 0.79486 0.35759 0.07000
C 	C 	0.49665 0.75685 0.32145 -0.08800
O 	O 	0.54642 0.59880 0.21136 -0.27900
O 	O 	0.48865 0.90536 0.27375 -0.29100
H 	H 	0.45536 0.70428 0.11244 0.03100
H 	H 	0.45308 0.76839 0.17648 0.05500
H 	H 	0.54009 0.67500 0.27383 0.07100
H 	H 	0.49605 0.82896 0.21763 0.08100
H 	H 	0.49723 0.78409 0.39644 0.04100
H 	H 	0.49660 0.71857 0.33402 0.05800
H 	H 	0.56243 0.59686 0.24549 0.14100
H 	H 	0.46425 0.92663 0.29288 0.17000
C 	C 	0.00124 0.84351 0.15275 -0.17800
C 	C 	0.00930 0.85587 0.20319 0.06700
C 	C 	0.00961 0.81923 0.24064 -0.09000
C 	C 	0.00170 0.76864 0.22931 0.05000
C 	C 	-0.00653 0.75605 0.17905 -0.14300
C 	C 	-0.00689 0.79260 0.14102 0.22200
C 	C 	0.00238 0.72917 0.26951 0.05100
C 	C 	0.03550 0.73238 0.31011 -0.14000
C 	C 	0.03747 0.69523 0.34719 0.23600
C 	C 	0.00451 0.65386 0.34528 -0.19600
C 	C 	-0.02826 0.65049 0.30449 0.07400
C 	C 	-0.02936 0.68741 0.26733 -0.09300
O 	O 	-0.01574 0.77836 0.09169 -0.27100
O 	O 	0.07437 0.69978 0.38365 -0.28900
H 	H 	0.01556 0.89422 0.21397 0.03600
H 	H 	0.01544 0.83082 0.27881 0.05700
H 	H 	-0.01202 0.71740 0.16898 0.06900
H 	H 	0.06157 0.76306 0.31230 0.08300
H 	H 	-0.05387 0.61944 0.30177 0.02400
H 	H 	-0.05587 0.68356 0.23721 0.05500
H 	H 	-0.02147 0.74132 0.08716 0.14100
H 	H 	0.08078 0.66843 0.40345 0.17900
C 	C 	0.50270 0.65547 0.84691 -0.17300
C 	C 	0.50397 0.64280 0.79588 0.06300
C 	C 	0.50442 0.67954 0.75843 -0.08900
C 	C 	0.50348 0.73064 0.77027 0.04900
C 	C 	0.50231 0.74358 0.82112 -0.14200
C 	C 	0.50198 0.70695 0.85916 0.22000
C 	C 	0.50414 0.77025 0.73001 0.05000
C 	C 	0.53198 0.76380 0.68597 -0.13800
C 	C 	0.53418 0.80093 0.64878 0.23400
C 	C 	0.50641 0.84582 0.65404 -0.19300
C 	C 	0.47885 0.85225 0.69826 0.07100
C 	C 	0.47778 0.81532 0.73549 -0.09200
O 	O 	0.50100 0.72178 0.90910 -0.27000
O 	O 	0.56627 0.79243 0.60863 -0.28900
H 	H 	0.50450 0.60409 0.78459 0.03500
H 	H 	0.50477 0.66768 0.71990 0.05700
H 	H 	0.50247 0.78251 0.83157 0.06800
H 	H 	0.55399 0.73039 0.68100 0.08300
H 	H 	0.45715 0.88582 0.70374 0.02400
H 	H 	0.45534 0.82183 0.76834 0.05400
H 	H 	0.50058 0.75920 0.91403 0.14000
H 	H 	0.57602 0.82332 0.58950 0.17600
C 	C 	0.50248 0.34292 0.15260 -0.18100
C 	C 	0.50199 0.35567 0.20360 0.06800
C 	C 	0.50209 0.31899 0.24100 -0.09000
C 	C 	0.50248 0.26796 0.22902 0.05100
C 	C 	0.50299 0.25490 0.17825 -0.14200
C 	C 	0.50315 0.29147 0.14026 0.22500
C 	C 	0.50293 0.22852 0.26916 0.05100
C 	C 	0.53057 0.23514 0.31324 -0.14100
C 	C 	0.53269 0.19806 0.35036 0.23500
C 	C 	0.50490 0.15324 0.34497 -0.19900
C 	C 	0.47754 0.14665 0.30069 0.07400
C 	C 	0.47664 0.18348 0.26345 -0.09300
O 	O 	0.50422 0.27665 0.09032 -0.26400
O 	O 	0.56474 0.20649 0.39054 -0.29200
H 	H 	0.50137 0.39438 0.21490 0.03400
H 	H 	0.50116 0.33077 0.27954 0.05700
H 	H 	0.50418 0.21596 0.16788 0.07000
H 	H 	0.55251 0.26860 0.31823 0.08400
H 	H 	0.45591 0.11304 0.29515 0.02700
H 	H 	0.45445 0.17697 0.23043 0.05700
H 	H 	0.50450 0.23923 0.08537 0.14700
H 	H 	0.57471 0.17549 0.40936 0.17300
C 	C 	0.00254 0.15607 0.84715 -0.16900
C 	C 	0.00598 0.14346 0.79622 0.06200
C 	C 	0.00613 0.18017 0.75875 -0.08800
C 	C 	0.00281 0.23121 0.77047 0.04800
C 	C 	-0.00056 0.24408 0.82125 -0.14000
C 	C 	-0.00077 0.20746 0.85931 0.21900
C 	C 	0.00320 0.27078 0.73014 0.05100
C 	C 	0.03204 0.26501 0.68664 -0.14000
C 	C 	0.03382 0.30202 0.64932 0.23400
C 	C 	0.00476 0.34614 0.65394 -0.19700
C 	C 	-0.02374 0.35197 0.69763 0.07200
C 	C 	-0.02453 0.31511 0.73495 -0.09400
O 	O 	-0.00443 0.22219 0.90915 -0.25700
O 	O 	0.06675 0.29425 0.60971 -0.29300
H 	H 	0.00848 0.10481 0.78501 0.03500
H 	H 	0.00814 0.16828 0.72029 0.05600
H 	H 	-0.00232 0.28297 0.83169 0.06700
H 	H 	0.05511 0.23224 0.68217 0.08300
H 	H 	-0.04637 0.38500 0.70262 0.02300
H 	H 	-0.04780 0.32110 0.76731 0.05400
H 	H 	-0.00669 0.25955 0.91405 0.14100
H 	H 	0.07548 0.32520 0.59021 0.17600
C 	C 	0.15492 -0.00393 0.15417 -0.17300
C 	C 	0.14216 -0.00029 0.20507 0.06400
C 	C 	0.17883 -0.00017 0.24261 -0.08900
C 	C 	0.22971 -0.00464 0.23088 0.04900
C 	C 	0.24278 -0.00860 0.18032 -0.14400
C 	C 	0.20635 -0.00765 0.14215 0.22100
C 	C 	0.26918 -0.00416 0.27095 0.05000
C 	C 	0.26757 0.03081 0.30997 -0.13900
C 	C 	0.30546 0.03333 0.34631 0.22900
C 	C 	0.34533 -0.00154 0.34587 -0.19800
C 	C 	0.34679 -0.03647 0.30678 0.07600
C 	C 	0.30964 -0.03753 0.26975 -0.09500
O 	O 	0.22136 -0.01001 0.09231 -0.26300
O 	O 	0.30346 0.07275 0.38027 -0.29300
H 	H 	0.10352 0.00285 0.21614 0.03900
H 	H 	0.16723 0.00283 0.28112 0.05600
H 	H 	0.28175 -0.01130 0.17028 0.06800
H 	H 	0.23777 0.05797 0.31111 0.08200
H 	H 	0.37650 -0.06363 0.30523 0.02200
H 	H 	0.31216 -0.06514 0.24048 0.05500
H 	H 	0.25872 -0.01264 0.08759 0.13900
H 	H 	0.33546 0.07879 0.39918 0.14600
C 	C 	0.34435 0.49581 0.84610 -0.17400
C 	C 	0.35690 0.50123 0.79535 0.06500
C 	C 	0.32026 0.50103 0.75785 -0.08900
C 	C 	0.26938 0.49537 0.76940 0.05000
C 	C 	0.25663 0.48952 0.81997 -0.14100
C 	C 	0.29319 0.48956 0.85804 0.22000
C 	C 	0.22981 0.49629 0.72916 0.05100
C 	C 	0.23473 0.52726 0.68705 -0.13800
C 	C 	0.19753 0.52990 0.65004 0.23100
C 	C 	0.15410 0.49972 0.65357 -0.19200
C 	C 	0.14913 0.46897 0.69577 0.07500
C 	C 	0.18622 0.46723 0.73281 -0.09200
O 	O 	0.27865 0.48326 0.90767 -0.26600
O 	O 	0.20437 0.56479 0.61193 -0.29100
H 	H 	0.39541 0.50589 0.78433 0.03500
H 	H 	0.33206 0.50487 0.71950 0.05700
H 	H 	0.21785 0.48576 0.83028 0.06900
H 	H 	0.26687 0.55135 0.68357 0.08200
H 	H 	0.11660 0.44544 0.69977 0.03200
H 	H 	0.18095 0.44233 0.76406 0.05600
H 	H 	0.24145 0.47894 0.91238 0.14500
H 	H 	0.17328 0.57342 0.59258 0.15600
C 	C 	0.84497 -0.00198 0.84563 -0.16300
C 	C 	0.85789 -0.00423 0.79471 0.06300
C 	C 	0.82132 -0.00457 0.75711 -0.08700
C 	C 	0.77021 -0.00298 0.76878 0.04900
C 	C 	0.75701 -0.00092 0.81949 -0.14200
C 	C 	0.79345 -0.00017 0.85764 0.22000
C 	C 	0.73084 -0.00248 0.72845 0.05000
C 	C 	0.73802 0.02436 0.68396 -0.13800
C 	C 	0.70082 0.02713 0.64694 0.22900
C 	C 	0.65522 0.00064 0.65276 -0.19500
C 	C 	0.64818 -0.02614 0.69735 0.07300
C 	C 	0.68514 -0.02756 0.73452 -0.09300
O 	O 	0.77840 0.00297 0.90743 -0.25900
O 	O 	0.70997 0.05867 0.60648 -0.28800
H 	H 	0.89663 -0.00575 0.78364 0.03900
H 	H 	0.83323 -0.00668 0.71865 0.05700
H 	H 	0.71806 0.00124 0.82964 0.06800
H 	H 	0.77203 0.04538 0.67863 0.08200
H 	H 	0.61402 -0.04676 0.70329 0.03100
H 	H 	0.67812 -0.04910 0.76786 0.05500
H 	H 	0.74097 0.00404 0.91217 0.14100
H 	H 	0.67921 0.06981 0.58789 0.16000
C 	C 	0.65490 0.49453 0.15349 -0.17900
C 	C 	0.64236 0.50065 0.20417 0.06600
C 	C 	0.67903 0.50105 0.24166 -0.08900
C 	C 	0.72987 0.49507 0.23017 0.05000
C 	C 	0.74260 0.48843 0.17970 -0.14300
C 	C 	0.70604 0.48807 0.14163 0.22100
C 	C 	0.76944 0.49631 0.27037 0.05000
C 	C 	0.76519 0.52844 0.31167 -0.13700
C 	C 	0.80247 0.53121 0.34863 0.23000
C 	C 	0.84523 0.50000 0.34587 -0.19000
C 	C 	0.84942 0.46801 0.30453 0.07500
C 	C 	0.81235 0.46620 0.26748 -0.09200
O 	O 	0.72056 0.48113 0.09208 -0.27100
O 	O 	0.79640 0.56708 0.38594 -0.29100
H 	H 	0.60386 0.50546 0.21513 0.03900
H 	H 	0.66729 0.50555 0.27996 0.05700
H 	H 	0.78138 0.48435 0.16948 0.06900
H 	H 	0.73350 0.55321 0.31454 0.08100
H 	H 	0.88119 0.44345 0.30128 0.02700
H 	H 	0.81703 0.44039 0.23689 0.05600
H 	H 	0.75775 0.47670 0.08741 0.14300
H 	H 	0.82751 0.57494 0.40558 0.15700
C 	C 	0.15471 0.00100 0.84678 -0.17800
C 	C 	0.15105 0.03259 0.80523 0.07000
C 	C 	0.18847 0.03365 0.76856 -0.08900
C 	C 	0.23050 0.00201 0.77113 0.05000
C 	C 	0.23362 -0.03022 0.81264 -0.14200
C 	C 	0.19667 -0.03056 0.85036 0.22300
C 	C 	0.27047 0.00257 0.73089 0.05000
C 	C 	0.25958 0.01810 0.68189 -0.14000
C 	C 	0.29654 0.02124 0.64477 0.23300
C 	C 	0.34604 0.00489 0.65443 -0.19400
C 	C 	0.35690 -0.01092 0.70334 0.07000
C 	C 	0.32017 -0.01149 0.74086 -0.09200
O 	O 	0.20064 -0.06323 0.89075 -0.27700
O 	O 	0.28276 0.04319 0.59970 -0.28400
H 	H 	0.11952 0.05751 0.80165 0.03300
H 	H 	0.18444 0.06018 0.73856 0.05700
H 	H 	0.26435 -0.05605 0.81568 0.06700
H 	H 	0.22214 0.02906 0.67191 0.08300
H 	H 	0.39413 -0.02323 0.71279 0.02700
H 	H 	0.33128 -0.02269 0.77790 0.05400
H 	H 	0.23168 -0.08470 0.89003 0.14400
H 	H 	0.31085 0.06175 0.58293 0.18200
C 	C 	0.34483 0.50250 0.15397 -0.17800
C 	C 	0.35740 0.49767 0.20477 0.06600
C 	C 	0.32072 0.49804 0.24225 -0.08900
C 	C 	0.26982 0.50332 0.23059 0.05100
C 	C 	0.25706 0.50855 0.17998 -0.14200
C 	C 	0.29363 0.50830 0.14194 0.22400
C 	C 	0.23019 0.50267 0.27075 0.05100
C 	C 	0.23501 0.47202 0.31308 -0.13700
C 	C 	0.19770 0.46961 0.34999 0.23000
C 	C 	0.15427 0.49976 0.34611 -0.19200
C 	C 	0.14938 0.53017 0.30366 0.07600
C 	C 	0.18657 0.53165 0.26673 -0.09100
O 	O 	0.27902 0.51389 0.09224 -0.26400
O 	O 	0.20446 0.43501 0.38839 -0.28700
H 	H 	0.39593 0.49335 0.21583 0.03500
H 	H 	0.33249 0.49464 0.28065 0.05800
H 	H 	0.21826 0.51197 0.16961 0.07000
H 	H 	0.26719 0.44801 0.31683 0.08200
H 	H 	0.11685 0.55365 0.29938 0.03300
H 	H 	0.18137 0.55631 0.23527 0.05700
H 	H 	0.24180 0.51796 0.08748 0.14500
H 	H 	0.17331 0.42645 0.40769 0.15900
C 	C 	0.84467 0.00326 0.15354 -0.17400
C 	C 	0.85701 -0.00326 0.20420 0.06600
C 	C 	0.82028 -0.00303 0.24161 -0.08800
C 	C 	0.76956 0.00379 0.23002 0.05100
C 	C 	0.75704 0.01082 0.17955 -0.14200
C 	C 	0.79368 0.01075 0.14159 0.22300
C 	C 	0.72986 0.00285 0.27009 0.05200
C 	C 	0.73401 -0.02908 0.31155 -0.13700
C 	C 	0.69669 -0.03165 0.34841 0.23200
C 	C 	0.65392 -0.00051 0.34533 -0.19400
C 	C 	0.64967 0.03117 0.30377 0.07600
C 	C 	0.68690 0.03289 0.26689 -0.09000
O 	O 	0.77941 0.01833 0.09205 -0.26600
O 	O 	0.70270 -0.06733 0.38593 -0.28700
H 	H 	0.89540 -0.00888 0.21519 0.03700
H 	H 	0.83189 -0.00779 0.27991 0.05900
H 	H 	0.71836 0.01552 0.16922 0.06900
H 	H 	0.76565 -0.05388 0.31463 0.08300
H 	H 	0.61765 0.05546 0.30020 0.03200
H 	H 	0.68225 0.05853 0.23614 0.05700
H 	H 	0.74233 0.02361 0.08734 0.14100
H 	H 	0.67150 -0.07531 0.40539 0.15700
C 	C 	0.65374 0.50133 0.84599 -0.17700
C 	C 	0.64890 0.53173 0.80366 0.07000
C 	C 	0.68616 0.53311 0.76683 -0.08900
C 	C 	0.72925 0.50305 0.77016 0.05100
C 	C 	0.73357 0.47197 0.81241 -0.14200
C 	C 	0.69673 0.47127 0.85020 0.22400
C 	C 	0.76916 0.50402 0.72994 0.05000
C 	C 	0.75764 0.51712 0.68039 -0.14000
C 	C 	0.79445 0.52038 0.64311 0.23400
C 	C 	0.84468 0.50667 0.65352 -0.18900
C 	C 	0.85610 0.49338 0.70306 0.06900
C 	C 	0.81938 0.49266 0.74051 -0.09100
O 	O 	0.70189 0.43968 0.89132 -0.27500
O 	O 	0.77949 0.53933 0.59701 -0.28900
H 	H 	0.61654 0.55547 0.79954 0.03300
H 	H 	0.68119 0.55864 0.73610 0.05700
H 	H 	0.76520 0.44731 0.81598 0.06900
H 	H 	0.71972 0.52593 0.67006 0.08200
H 	H 	0.89379 0.48314 0.71311 0.03000
H 	H 	0.83086 0.48345 0.77800 0.05500
H 	H 	0.73363 0.41926 0.89101 0.14500
H 	H 	0.80618 0.55907 0.57929 0.17500
