data_crystal

_cell_length_a 27.40600
_cell_length_b 27.40600
_cell_length_c 27.40600
_cell_angle_alpha 60.00000
_cell_angle_beta  60.00000
_cell_angle_gamma 60.00000

_symmetry_space_group_name_	'P 1'
_symmetry_space_group_name_H-M	'P 1'

loop_
_symmetry_equiv_pos_as_xyz
  x,y,z

loop_
_atom_site_label
_atom_site_type_symbol
_atom_site_fract_x
_atom_site_fract_y
_atom_site_fract_z
_atom_site_charge
Zr	Zr	0.56405 0.56405 0.43595 3.21400
Zr	Zr	0.56405 0.43595 0.56405 3.21400
Zr	Zr	0.56405 0.43595 0.43595 3.21400
Zr	Zr	0.43595 0.43595 0.56405 3.21400
Zr	Zr	0.43595 0.56405 0.56405 3.21400
Zr	Zr	0.43595 0.56405 0.43595 3.21400
Zn	Zn	-0.00000 0.50000 -0.00000 1.14100
Zn	Zn	0.50000 0.00000 -0.00000 1.14100
Zn	Zn	0.50000 -0.00000 0.50000 1.15700
Zn	Zn	-0.00000 -0.00000 0.50000 1.14100
Zn	Zn	-0.00000 0.50000 0.50000 1.15700
Zn	Zn	0.50000 0.50000 -0.00000 1.15700
H 	H 	0.10700 0.75700 0.56800 0.08100
H 	H 	0.56800 0.10700 0.56800 0.08100
H 	H 	0.81310 0.43230 0.56770 0.12200
H 	H 	0.43200 0.89300 0.24300 0.07500
H 	H 	0.43200 0.43200 0.24300 0.07800
H 	H 	0.56800 0.10700 0.75700 0.08100
H 	H 	0.75700 0.56800 0.10700 0.08100
H 	H 	0.42470 0.57530 0.27390 0.00000
H 	H 	0.10700 0.56800 0.75700 0.08100
H 	H 	0.42470 0.72610 0.27390 0.00000
H 	H 	0.18690 0.81310 0.43230 0.11600
H 	H 	0.56800 0.56800 0.10700 0.08100
H 	H 	0.27390 0.72610 0.57530 0.00200
H 	H 	0.56800 0.75700 0.10700 0.08200
H 	H 	0.43230 0.56770 0.18690 0.11400
H 	H 	0.89300 0.43200 0.43200 0.07700
H 	H 	0.75700 0.10700 0.56800 0.08200
H 	H 	0.81310 0.18690 0.56770 0.12000
H 	H 	0.18690 0.43230 0.56770 0.11400
H 	H 	0.57530 0.72610 0.42470 0.00300
H 	H 	0.81310 0.43230 0.18690 0.11700
H 	H 	0.56770 0.18690 0.43230 0.11400
H 	H 	0.56800 0.56800 0.75700 0.08000
H 	H 	0.75700 0.56800 0.56800 0.08000
H 	H 	0.18690 0.43230 0.81310 0.11700
H 	H 	0.43230 0.56770 0.81310 0.12300
H 	H 	0.56770 0.81310 0.43230 0.12300
H 	H 	0.43200 0.24300 0.89300 0.07600
H 	H 	0.89300 0.24300 0.43200 0.07600
H 	H 	0.57530 0.27390 0.72610 0.00300
H 	H 	0.24300 0.43200 0.43200 0.07900
H 	H 	0.24300 0.89300 0.43200 0.07600
H 	H 	0.43230 0.18690 0.56770 0.11400
H 	H 	0.43200 0.89300 0.43200 0.07700
H 	H 	0.27390 0.42470 0.57530 0.00100
H 	H 	0.57530 0.42470 0.27390 0.00100
H 	H 	0.43230 0.81310 0.18690 0.11700
H 	H 	0.72610 0.57530 0.42470 0.00300
H 	H 	0.42470 0.27390 0.72610 0.00100
H 	H 	0.72610 0.42470 0.57530 0.00300
H 	H 	0.27390 0.57530 0.72610 0.00300
H 	H 	0.81310 0.56770 0.43230 0.12300
H 	H 	0.72610 0.42470 0.27390 0.00100
H 	H 	0.42470 0.72610 0.57530 0.00300
H 	H 	0.81310 0.18690 0.43230 0.11700
H 	H 	0.89300 0.43200 0.24300 0.07600
H 	H 	0.18690 0.81310 0.56770 0.12000
H 	H 	0.56770 0.43230 0.81310 0.12300
H 	H 	0.72610 0.57530 0.27390 0.00300
H 	H 	0.27390 0.42470 0.72610 0.00100
H 	H 	0.43230 0.18690 0.81310 0.11700
H 	H 	0.72610 0.27390 0.42470 0.00100
H 	H 	0.18690 0.56770 0.43230 0.11400
H 	H 	0.42470 0.27390 0.57530 0.00100
H 	H 	0.27390 0.57530 0.42470 0.00100
H 	H 	0.56770 0.18690 0.81310 0.12000
H 	H 	0.57530 0.72610 0.27390 0.00300
H 	H 	0.43200 0.24300 0.43200 0.07900
H 	H 	0.27390 0.72610 0.42470 0.00100
H 	H 	0.42470 0.57530 0.72610 0.00300
H 	H 	0.43230 0.81310 0.56770 0.12300
H 	H 	0.56770 0.81310 0.18690 0.12000
H 	H 	0.72610 0.27390 0.57530 0.00300
H 	H 	0.56770 0.43230 0.18690 0.11400
H 	H 	0.57530 0.27390 0.42470 0.00100
H 	H 	0.24300 0.43200 0.89300 0.07600
H 	H 	0.43200 0.43200 0.89300 0.07700
H 	H 	0.18690 0.56770 0.81310 0.12000
H 	H 	0.81310 0.56770 0.18690 0.12000
H 	H 	0.10700 0.56800 0.56800 0.08200
H 	H 	0.56800 0.75700 0.56800 0.08000
H 	H 	0.57530 0.42470 0.72610 0.00300
C 	C 	0.50000 0.50000 0.33556 0.42800
C 	C 	0.13260 0.16000 0.39140 0.00300
C 	C 	0.91500 0.58500 0.91500 -0.10200
C 	C 	0.16440 0.27160 0.18040 -0.02000
C 	C 	0.14000 0.31400 0.13600 -0.01100
C 	C 	0.50000 0.12780 0.87220 -0.20800
C 	C 	0.38360 0.16440 0.27160 -0.01200
C 	C 	0.59000 0.86400 0.86000 0.00300
C 	C 	0.59000 0.86000 0.68600 -0.00800
C 	C 	0.68600 0.86400 0.86000 0.00100
C 	C 	0.86400 0.86000 0.68600 0.00100
C 	C 	0.84000 0.68400 0.86740 -0.00400
C 	C 	0.50000 0.66444 0.33556 0.42900
C 	C 	0.28280 0.50000 0.71720 -0.17800
C 	C 	0.31400 0.41000 0.13600 -0.00300
C 	C 	0.87220 0.50000 0.50000 -0.20800
C 	C 	0.25830 0.45470 0.54530 0.12400
C 	C 	0.41000 0.31400 0.14000 -0.00200
C 	C 	0.43420 0.43420 0.92460 -0.09200
C 	C 	0.86400 0.68600 0.59000 -0.00600
C 	C 	0.68600 0.59000 0.86400 -0.00600
C 	C 	0.41000 0.31400 0.13600 -0.00300
C 	C 	0.21580 0.17180 0.32420 -0.02700
C 	C 	0.79500 0.46100 0.53900 -0.26100
C 	C 	0.13260 0.31600 0.16000 -0.00100
C 	C 	0.86000 0.86400 0.59000 0.00300
C 	C 	0.84400 0.70960 0.65200 0.00100
C 	C 	0.53900 0.79500 0.20500 -0.25900
C 	C 	0.97710 0.56730 0.88830 0.10000
C 	C 	0.58500 0.91500 0.58500 -0.08700
C 	C 	0.86740 0.60860 0.84000 -0.00800
C 	C 	0.68600 0.86000 0.59000 -0.00800
C 	C 	0.60860 0.84000 0.68400 -0.00400
C 	C 	0.86740 0.68400 0.60860 0.01100
C 	C 	0.39140 0.16000 0.13260 0.00300
C 	C 	0.12500 0.37500 0.12500 -0.00200
C 	C 	0.50000 0.50000 0.18020 0.25400
C 	C 	0.60860 0.86740 0.68400 0.01100
C 	C 	0.46100 0.79500 0.20500 -0.25900
C 	C 	0.56730 0.97710 0.88830 0.10000
C 	C 	0.84400 0.65200 0.70960 0.00100
C 	C 	0.07340 0.53200 0.86260 0.12600
C 	C 	0.65200 0.70960 0.79440 -0.00400
C 	C 	0.78420 0.67580 0.71180 0.00300
C 	C 	0.20500 0.46100 0.79500 -0.25900
C 	C 	0.97710 0.88830 0.56730 0.10000
C 	C 	0.15600 0.29040 0.34800 0.01700
C 	C 	0.41000 0.13600 0.14000 -0.01400
C 	C 	0.79500 0.53900 0.20500 -0.25900
C 	C 	0.13260 0.39140 0.31600 -0.01700
C 	C 	0.43270 0.11170 0.02290 -0.04200
C 	C 	0.72840 0.83560 0.81960 0.01200
C 	C 	0.12780 0.50000 0.87220 -0.20800
C 	C 	0.56580 0.79300 0.56580 -0.11600
C 	C 	0.60860 0.68400 0.84000 -0.00400
C 	C 	0.02290 0.43270 0.11170 -0.04200
C 	C 	0.28280 0.50000 0.50000 -0.17800
C 	C 	0.33556 0.50000 0.66444 0.42900
C 	C 	0.16000 0.13260 0.39140 0.00300
C 	C 	0.32420 0.21580 0.17180 -0.02700
C 	C 	0.37500 0.37500 0.12500 0.01200
C 	C 	0.14000 0.41000 0.13600 -0.01400
C 	C 	0.27160 0.18040 0.16440 -0.02000
C 	C 	0.86000 0.59000 0.68600 -0.00800
C 	C 	0.28820 0.21580 0.17180 -0.02600
C 	C 	0.71180 0.67580 0.82820 -0.00300
C 	C 	0.66444 0.50000 0.33556 0.42900
C 	C 	0.70960 0.65200 0.84400 0.00100
C 	C 	0.27160 0.38360 0.18040 -0.00600
C 	C 	0.68400 0.60860 0.84000 -0.00400
C 	C 	0.11170 0.43270 0.02290 -0.04200
C 	C 	0.11170 0.43270 0.43270 0.01700
C 	C 	0.43420 0.43420 0.20700 -0.12300
C 	C 	0.07340 0.86260 0.53200 0.12600
C 	C 	0.92460 0.20700 0.43420 -0.09400
C 	C 	0.27160 0.18040 0.38360 -0.00600
C 	C 	0.28820 0.17180 0.21580 -0.02600
C 	C 	0.02290 0.43270 0.43270 -0.02800
C 	C 	0.83560 0.81960 0.72840 0.01200
C 	C 	0.18040 0.38360 0.27160 -0.00600
C 	C 	0.68400 0.84000 0.86740 -0.00400
C 	C 	0.84000 0.60860 0.68400 -0.00400
C 	C 	0.54530 0.45470 0.74170 0.13000
C 	C 	0.46800 0.13740 0.46800 0.12700
C 	C 	0.56580 0.07540 0.79300 -0.14300
C 	C 	0.59000 0.68600 0.86000 -0.00800
C 	C 	0.31600 0.39140 0.13260 -0.01700
C 	C 	0.81960 0.61640 0.83560 0.01100
C 	C 	0.86400 0.68600 0.86000 0.00100
C 	C 	0.59000 0.86000 0.86400 0.00300
C 	C 	0.74170 0.54530 0.45470 0.13000
C 	C 	0.46100 0.20500 0.53900 -0.25700
C 	C 	0.78420 0.71180 0.82820 0.01400
C 	C 	0.82820 0.67580 0.71180 -0.00300
C 	C 	0.50000 0.87220 0.12780 -0.20800
C 	C 	0.86260 0.07340 0.53200 0.12600
C 	C 	0.61640 0.83560 0.72840 0.00400
C 	C 	0.20500 0.79500 0.53900 -0.25900
C 	C 	0.92460 0.43420 0.43420 -0.09200
C 	C 	0.50000 0.50000 0.12780 -0.21000
C 	C 	0.59000 0.68600 0.86400 -0.00600
C 	C 	0.50000 0.71720 0.50000 -0.17900
C 	C 	0.56580 0.79300 0.07540 -0.14300
C 	C 	0.79500 0.46100 0.20500 -0.25900
C 	C 	0.43420 0.20700 0.92460 -0.09400
C 	C 	0.18020 0.50000 0.81980 0.25700
C 	C 	0.67580 0.78420 0.71180 0.00300
C 	C 	0.39140 0.31600 0.13260 -0.01700
C 	C 	0.12500 0.37500 0.37500 0.01200
C 	C 	0.07340 0.53200 0.53200 0.12300
C 	C 	0.54530 0.25830 0.45470 0.12400
C 	C 	0.56730 0.97710 0.56730 0.08800
C 	C 	0.79440 0.84400 0.65200 -0.02100
C 	C 	0.29040 0.20560 0.34800 0.02200
C 	C 	0.43270 0.11170 0.43270 0.01700
C 	C 	0.11170 0.02290 0.43270 -0.04200
C 	C 	0.13260 0.16000 0.31600 -0.00100
C 	C 	0.20560 0.34800 0.29040 0.02200
C 	C 	0.45470 0.25830 0.74170 0.12700
C 	C 	0.74170 0.45470 0.54530 0.13000
C 	C 	0.31600 0.16000 0.39140 -0.00200
C 	C 	0.50000 0.66444 0.50000 0.42900
C 	C 	0.56730 0.88830 0.97710 0.10000
C 	C 	0.58500 0.58500 0.91500 -0.08700
C 	C 	0.41500 0.41500 0.08500 -0.06500
C 	C 	0.71180 0.78420 0.82820 0.01400
C 	C 	0.81980 0.50000 0.50000 0.26100
C 	C 	0.50000 0.28280 0.50000 -0.17800
C 	C 	0.79300 0.56580 0.56580 -0.11600
C 	C 	0.86740 0.84000 0.60860 -0.00800
C 	C 	0.17180 0.21580 0.28820 -0.02600
C 	C 	0.08500 0.41500 0.41500 -0.06500
C 	C 	0.43270 0.02290 0.11170 -0.04200
C 	C 	0.50000 0.81980 0.18020 0.25700
C 	C 	0.16440 0.18040 0.27160 -0.02000
C 	C 	0.86260 0.53200 0.07340 0.12600
C 	C 	0.62500 0.62500 0.87500 0.02400
C 	C 	0.21580 0.32420 0.17180 -0.02700
C 	C 	0.53900 0.20500 0.79500 -0.25900
C 	C 	0.79300 0.07540 0.56580 -0.14300
C 	C 	0.02290 0.11170 0.43270 -0.04200
C 	C 	0.45470 0.54530 0.25830 0.12400
C 	C 	0.79500 0.20500 0.53900 -0.25900
C 	C 	0.50000 0.28280 0.71720 -0.17800
C 	C 	0.91500 0.58500 0.58500 -0.08700
C 	C 	0.54530 0.74170 0.45470 0.13000
C 	C 	0.21580 0.28820 0.32420 -0.01500
C 	C 	0.12780 0.87220 0.50000 -0.20800
C 	C 	0.82820 0.78420 0.67580 0.01400
C 	C 	0.50000 0.50000 0.71720 -0.17900
C 	C 	0.13260 0.39140 0.16000 0.00300
C 	C 	0.81960 0.61640 0.72840 -0.00200
C 	C 	0.61640 0.72840 0.81960 -0.00200
C 	C 	0.34800 0.15600 0.20560 0.03900
C 	C 	0.86400 0.59000 0.86000 0.00300
C 	C 	0.86000 0.68600 0.59000 -0.00800
C 	C 	0.28820 0.32420 0.21580 -0.01500
C 	C 	0.56580 0.56580 0.79300 -0.11600
C 	C 	0.84400 0.70960 0.79440 -0.02200
C 	C 	0.46800 0.13740 0.92660 0.13500
C 	C 	0.32420 0.28820 0.21580 -0.01500
C 	C 	0.45470 0.74170 0.54530 0.13000
C 	C 	0.92660 0.13740 0.46800 0.13500
C 	C 	0.86740 0.84000 0.68400 -0.00400
C 	C 	0.18040 0.38360 0.16440 -0.01900
C 	C 	0.60860 0.68400 0.86740 0.01100
C 	C 	0.65200 0.84400 0.79440 -0.02100
C 	C 	0.07540 0.56580 0.79300 -0.14300
C 	C 	0.59000 0.86400 0.68600 -0.00600
C 	C 	0.38360 0.16440 0.18040 -0.01900
C 	C 	0.81960 0.72840 0.83560 0.01200
C 	C 	0.50000 0.50000 0.87220 -0.20800
C 	C 	0.66444 0.33556 0.50000 0.42900
C 	C 	0.58500 0.91500 0.91500 -0.10200
C 	C 	0.46800 0.46800 0.92660 0.13800
C 	C 	0.83560 0.72840 0.81960 0.01200
C 	C 	0.46100 0.79500 0.53900 -0.26100
C 	C 	0.43270 0.43270 0.02290 -0.02800
C 	C 	0.66444 0.50000 0.50000 0.42900
C 	C 	0.78420 0.67580 0.82820 0.01400
C 	C 	0.20500 0.53900 0.46100 -0.25700
C 	C 	0.28820 0.21580 0.32420 -0.01500
C 	C 	0.67580 0.78420 0.82820 0.01400
C 	C 	0.15600 0.34800 0.20560 0.03900
C 	C 	0.38360 0.18040 0.16440 -0.01900
C 	C 	0.50000 0.50000 0.66444 0.42900
C 	C 	0.88830 0.56730 0.97710 0.10000
C 	C 	0.46800 0.92660 0.13740 0.13500
C 	C 	0.83560 0.81960 0.61640 0.01100
C 	C 	0.16440 0.27160 0.38360 -0.01200
C 	C 	0.20500 0.53900 0.79500 -0.25900
C 	C 	0.08500 0.08500 0.41500 -0.04800
C 	C 	0.84000 0.86740 0.60860 -0.00800
C 	C 	0.81980 0.18020 0.50000 0.25700
C 	C 	0.82820 0.71180 0.78420 0.01400
C 	C 	0.13740 0.46800 0.46800 0.12700
C 	C 	0.39140 0.16000 0.31600 -0.00200
C 	C 	0.37500 0.12500 0.12500 -0.00200
C 	C 	0.50000 0.50000 0.28280 -0.17800
C 	C 	0.87500 0.62500 0.87500 0.03700
C 	C 	0.45470 0.25830 0.54530 0.12400
C 	C 	0.46100 0.53900 0.79500 -0.26100
C 	C 	0.41000 0.13600 0.31400 -0.00300
C 	C 	0.20700 0.92460 0.43420 -0.09400
C 	C 	0.71180 0.78420 0.67580 0.00300
C 	C 	0.13740 0.92660 0.46800 0.13500
C 	C 	0.31600 0.39140 0.16000 -0.00200
C 	C 	0.86260 0.53200 0.53200 0.13300
C 	C 	0.56730 0.88830 0.56730 0.04300
C 	C 	0.53200 0.86260 0.07340 0.12600
C 	C 	0.31400 0.14000 0.41000 -0.00200
C 	C 	0.50000 0.33556 0.50000 0.42800
C 	C 	0.84000 0.68400 0.60860 -0.00400
C 	C 	0.20500 0.79500 0.46100 -0.25900
C 	C 	0.25830 0.45470 0.74170 0.12700
C 	C 	0.70960 0.84400 0.65200 0.00100
C 	C 	0.53200 0.53200 0.86260 0.13300
C 	C 	0.34800 0.20560 0.15600 0.03900
C 	C 	0.88830 0.56730 0.56730 0.04300
C 	C 	0.18040 0.27160 0.38360 -0.00600
C 	C 	0.84000 0.60860 0.86740 -0.00800
C 	C 	0.83560 0.61640 0.72840 0.00400
C 	C 	0.31600 0.13260 0.39140 -0.01700
C 	C 	0.17180 0.32420 0.21580 -0.02700
C 	C 	0.79440 0.65200 0.70960 -0.00400
C 	C 	0.53900 0.46100 0.20500 -0.25700
C 	C 	0.12780 0.50000 0.50000 -0.21000
C 	C 	0.71720 0.50000 0.50000 -0.17900
C 	C 	0.29040 0.15600 0.34800 0.01700
C 	C 	0.45470 0.54530 0.74170 0.13000
C 	C 	0.72840 0.81960 0.83560 0.01200
C 	C 	0.18040 0.27160 0.16440 -0.02000
C 	C 	0.81960 0.83560 0.61640 0.01100
C 	C 	0.92460 0.43420 0.20700 -0.09400
C 	C 	0.82820 0.67580 0.78420 0.01400
C 	C 	0.81960 0.83560 0.72840 0.01200
C 	C 	0.13600 0.14000 0.41000 -0.01400
C 	C 	0.34800 0.15600 0.29040 0.01700
C 	C 	0.68400 0.60860 0.86740 0.01100
C 	C 	0.16000 0.31600 0.39140 -0.00200
C 	C 	0.43270 0.43270 0.11170 0.01700
C 	C 	0.21580 0.28820 0.17180 -0.02600
C 	C 	0.15600 0.20560 0.29040 0.04100
C 	C 	0.68600 0.86400 0.59000 -0.00600
C 	C 	0.79500 0.20500 0.46100 -0.25900
C 	C 	0.39140 0.13260 0.16000 0.00300
C 	C 	0.25830 0.74170 0.45470 0.12700
C 	C 	0.79300 0.56580 0.07540 -0.14300
C 	C 	0.43420 0.20700 0.43420 -0.12300
C 	C 	0.17180 0.32420 0.28820 -0.00900
C 	C 	0.74170 0.25830 0.45470 0.12700
C 	C 	0.46800 0.46800 0.13740 0.12700
C 	C 	0.72840 0.83560 0.61640 0.00400
C 	C 	0.34800 0.29040 0.15600 0.01700
C 	C 	0.13600 0.41000 0.31400 -0.00300
C 	C 	0.60860 0.84000 0.86740 -0.00800
C 	C 	0.41500 0.08500 0.08500 -0.04800
C 	C 	0.31400 0.13600 0.41000 -0.00300
C 	C 	0.29040 0.15600 0.20560 0.04100
C 	C 	0.34800 0.20560 0.29040 0.02200
C 	C 	0.50000 0.50000 0.81980 0.26100
C 	C 	0.56730 0.56730 0.88830 0.04300
C 	C 	0.68400 0.86740 0.60860 0.01100
C 	C 	0.13600 0.31400 0.14000 -0.01100
C 	C 	0.18040 0.16440 0.27160 -0.02000
C 	C 	0.84400 0.79440 0.65200 -0.02100
C 	C 	0.16000 0.31600 0.13260 -0.00100
C 	C 	0.67580 0.71180 0.82820 -0.00300
C 	C 	0.79440 0.70960 0.84400 -0.02200
C 	C 	0.71180 0.82820 0.78420 0.01400
C 	C 	0.92660 0.46800 0.13740 0.13500
C 	C 	0.08500 0.41500 0.08500 -0.04800
C 	C 	0.16440 0.38360 0.18040 -0.01900
C 	C 	0.88830 0.97710 0.56730 0.10000
C 	C 	0.70960 0.84400 0.79440 -0.02200
C 	C 	0.68400 0.84000 0.60860 -0.00400
C 	C 	0.16000 0.13260 0.31600 -0.00100
C 	C 	0.07540 0.56580 0.56580 -0.14500
C 	C 	0.86000 0.68600 0.86400 0.00100
C 	C 	0.17180 0.28820 0.21580 -0.02600
C 	C 	0.70960 0.79440 0.65200 -0.00400
C 	C 	0.20560 0.15600 0.29040 0.04100
C 	C 	0.61640 0.81960 0.83560 0.01100
C 	C 	0.68600 0.59000 0.86000 -0.00800
C 	C 	0.65200 0.84400 0.70960 0.00100
C 	C 	0.81960 0.72840 0.61640 -0.00200
C 	C 	0.25830 0.54530 0.74170 0.12800
C 	C 	0.16440 0.38360 0.27160 -0.01200
C 	C 	0.54530 0.45470 0.25830 0.12400
C 	C 	0.31400 0.13600 0.14000 -0.01100
C 	C 	0.45470 0.74170 0.25830 0.12700
C 	C 	0.84400 0.79440 0.70960 -0.02200
C 	C 	0.79500 0.53900 0.46100 -0.26100
C 	C 	0.32420 0.28820 0.17180 -0.00900
C 	C 	0.67580 0.71180 0.78420 0.00300
C 	C 	0.56580 0.07540 0.56580 -0.14500
C 	C 	0.71720 0.28280 0.50000 -0.17800
C 	C 	0.62500 0.87500 0.62500 0.02400
C 	C 	0.67580 0.82820 0.71180 -0.00300
C 	C 	0.33556 0.50000 0.50000 0.42800
C 	C 	0.46800 0.92660 0.46800 0.13800
C 	C 	0.50000 0.71720 0.28280 -0.17800
C 	C 	0.20700 0.43420 0.43420 -0.12300
C 	C 	0.53200 0.07340 0.53200 0.12300
C 	C 	0.29040 0.20560 0.15600 0.04100
C 	C 	0.32420 0.21580 0.28820 -0.01500
C 	C 	0.15600 0.20560 0.34800 0.03900
C 	C 	0.71180 0.67580 0.78420 0.00300
C 	C 	0.15600 0.34800 0.29040 0.01700
C 	C 	0.28820 0.32420 0.17180 -0.00900
C 	C 	0.20560 0.15600 0.34800 0.03900
C 	C 	0.18040 0.16440 0.38360 -0.01900
C 	C 	0.18020 0.81980 0.50000 0.25700
C 	C 	0.43420 0.92460 0.20700 -0.09400
C 	C 	0.61640 0.72840 0.83560 0.00400
C 	C 	0.28820 0.17180 0.32420 -0.00900
C 	C 	0.87220 0.50000 0.12780 -0.20800
C 	C 	0.34800 0.29040 0.20560 0.02200
C 	C 	0.72840 0.61640 0.81960 -0.00200
C 	C 	0.53200 0.53200 0.07340 0.12300
C 	C 	0.18020 0.50000 0.50000 0.25400
C 	C 	0.84000 0.86740 0.68400 -0.00400
C 	C 	0.31600 0.13260 0.16000 -0.00100
C 	C 	0.74170 0.45470 0.25830 0.12700
C 	C 	0.46100 0.20500 0.79500 -0.25900
C 	C 	0.83560 0.72840 0.61640 0.00400
C 	C 	0.13600 0.31400 0.41000 -0.00300
C 	C 	0.78420 0.71180 0.67580 0.00300
C 	C 	0.78420 0.82820 0.71180 0.01400
C 	C 	0.39140 0.13260 0.31600 -0.01700
C 	C 	0.16000 0.39140 0.13260 0.00300
C 	C 	0.65200 0.79440 0.84400 -0.02100
C 	C 	0.68600 0.86000 0.86400 0.00100
C 	C 	0.82820 0.71180 0.67580 -0.00300
C 	C 	0.25830 0.74170 0.54530 0.12800
C 	C 	0.70960 0.79440 0.84400 -0.02200
C 	C 	0.16440 0.18040 0.38360 -0.01900
C 	C 	0.72840 0.81960 0.61640 -0.00200
C 	C 	0.60860 0.86740 0.84000 -0.00800
C 	C 	0.25830 0.54530 0.45470 0.12400
C 	C 	0.13600 0.41000 0.14000 -0.01400
C 	C 	0.79440 0.65200 0.84400 -0.02100
C 	C 	0.91500 0.91500 0.58500 -0.10200
C 	C 	0.70960 0.65200 0.79440 -0.00400
C 	C 	0.86740 0.60860 0.68400 0.01100
C 	C 	0.50000 0.18020 0.81980 0.25700
C 	C 	0.43420 0.92460 0.43420 -0.09200
C 	C 	0.61640 0.83560 0.81960 0.01100
C 	C 	0.53200 0.86260 0.53200 0.13300
C 	C 	0.53900 0.20500 0.46100 -0.25700
C 	C 	0.14000 0.41000 0.31400 -0.00200
C 	C 	0.38360 0.27160 0.18040 -0.00600
C 	C 	0.50000 0.87220 0.50000 -0.20800
C 	C 	0.53900 0.46100 0.79500 -0.26100
C 	C 	0.74170 0.25830 0.54530 0.12800
C 	C 	0.27160 0.38360 0.16440 -0.01200
C 	C 	0.56730 0.56730 0.97710 0.08800
C 	C 	0.17180 0.28820 0.32420 -0.00900
C 	C 	0.43270 0.02290 0.43270 -0.02800
C 	C 	0.13260 0.31600 0.39140 -0.01700
C 	C 	0.41000 0.14000 0.13600 -0.01400
C 	C 	0.31400 0.14000 0.13600 -0.01100
C 	C 	0.72840 0.61640 0.83560 0.00400
C 	C 	0.15600 0.29040 0.20560 0.04100
C 	C 	0.65200 0.79440 0.70960 -0.00400
C 	C 	0.92660 0.46800 0.46800 0.13800
C 	C 	0.78420 0.82820 0.67580 0.01400
C 	C 	0.14000 0.13600 0.31400 -0.01100
C 	C 	0.67580 0.82820 0.78420 0.01400
C 	C 	0.65200 0.70960 0.84400 0.00100
C 	C 	0.07540 0.79300 0.56580 -0.14300
C 	C 	0.46100 0.53900 0.20500 -0.25700
C 	C 	0.71180 0.82820 0.67580 -0.00300
C 	C 	0.14000 0.13600 0.41000 -0.01400
C 	C 	0.62500 0.87500 0.87500 0.03700
C 	C 	0.97710 0.56730 0.56730 0.08800
C 	C 	0.27160 0.16440 0.18040 -0.02000
C 	C 	0.86000 0.59000 0.86400 0.00300
C 	C 	0.79440 0.84400 0.70960 -0.02200
C 	C 	0.87500 0.87500 0.62500 0.03700
C 	C 	0.14000 0.31400 0.41000 -0.00200
C 	C 	0.54530 0.74170 0.25830 0.12800
C 	C 	0.50000 0.12780 0.50000 -0.21000
C 	C 	0.32420 0.17180 0.21580 -0.02700
C 	C 	0.61640 0.81960 0.72840 -0.00200
C 	C 	0.53900 0.79500 0.46100 -0.26100
C 	C 	0.20560 0.29040 0.34800 0.02200
C 	C 	0.38360 0.18040 0.27160 -0.00600
C 	C 	0.38360 0.27160 0.16440 -0.01200
C 	C 	0.86400 0.59000 0.68600 -0.00600
C 	C 	0.29040 0.34800 0.15600 0.01700
C 	C 	0.20700 0.43420 0.92460 -0.09400
C 	C 	0.86740 0.68400 0.84000 -0.00400
C 	C 	0.21580 0.17180 0.28820 -0.02600
C 	C 	0.29040 0.34800 0.20560 0.02200
C 	C 	0.13740 0.46800 0.92660 0.13500
C 	C 	0.20500 0.46100 0.53900 -0.25700
C 	C 	0.31400 0.41000 0.14000 -0.00200
C 	C 	0.41000 0.14000 0.31400 -0.00200
C 	C 	0.17180 0.21580 0.32420 -0.02700
C 	C 	0.54530 0.25830 0.74170 0.12800
C 	C 	0.50000 0.81980 0.50000 0.26100
C 	C 	0.32420 0.17180 0.28820 -0.00900
C 	C 	0.20560 0.34800 0.15600 0.03900
C 	C 	0.87220 0.12780 0.50000 -0.20800
C 	C 	0.16000 0.39140 0.31600 -0.00200
C 	C 	0.50000 0.18020 0.50000 0.25400
C 	C 	0.56580 0.56580 0.07540 -0.14500
C 	C 	0.37500 0.12500 0.37500 0.01200
C 	C 	0.74170 0.54530 0.25830 0.12800
C 	C 	0.83560 0.61640 0.81960 0.01100
C 	C 	0.27160 0.16440 0.38360 -0.01200
C 	C 	0.20560 0.29040 0.15600 0.04100
C 	C 	0.53200 0.07340 0.86260 0.12600
C 	C 	0.41500 0.08500 0.41500 -0.06500
C 	C 	0.28280 0.71720 0.50000 -0.17800
C 	C 	0.21580 0.32420 0.28820 -0.01500
C 	C 	0.86400 0.86000 0.59000 0.00300
C 	C 	0.81980 0.50000 0.18020 0.25700
C 	C 	0.50000 0.33556 0.66444 0.42900
C 	C 	0.12500 0.12500 0.37500 -0.00200
C 	C 	0.31600 0.16000 0.13260 -0.00100
C 	C 	0.79440 0.70960 0.65200 -0.00400
C 	C 	0.68400 0.86740 0.84000 -0.00400
C 	C 	0.71720 0.50000 0.28280 -0.17800
C 	C 	0.33556 0.66444 0.50000 0.42900
C 	C 	0.39140 0.31600 0.16000 -0.00200
C 	C 	0.87500 0.62500 0.62500 0.02400
C 	C 	0.82820 0.78420 0.71180 0.01400
C 	C 	0.84400 0.65200 0.79440 -0.02100
C 	C 	0.13600 0.14000 0.31400 -0.01100
C 	C 	0.86000 0.86400 0.68600 0.00100
N 	N 	0.46710 0.97750 0.46710 -0.25400
N 	N 	0.97750 0.46710 0.08830 -0.25700
N 	N 	0.97750 0.46710 0.46710 -0.25400
N 	N 	0.91170 0.53290 0.02250 -0.31500
N 	N 	0.53290 0.53290 0.02250 -0.32400
N 	N 	0.08830 0.46710 0.46710 -0.29500
N 	N 	0.53290 0.02250 0.91170 -0.31500
N 	N 	0.08830 0.97750 0.46710 -0.25700
N 	N 	0.53290 0.91170 0.53290 -0.28300
N 	N 	0.53290 0.02250 0.53290 -0.32400
N 	N 	0.97750 0.08830 0.46710 -0.25700
N 	N 	0.91170 0.53290 0.53290 -0.28300
N 	N 	0.46710 0.46710 0.08830 -0.29500
N 	N 	0.91170 0.02250 0.53290 -0.31500
N 	N 	0.53290 0.53290 0.91170 -0.28300
N 	N 	0.46710 0.97750 0.08830 -0.25700
N 	N 	0.02250 0.53290 0.53290 -0.32400
N 	N 	0.08830 0.46710 0.97750 -0.25700
N 	N 	0.46710 0.08830 0.46710 -0.29500
N 	N 	0.02250 0.53290 0.91170 -0.31500
N 	N 	0.46710 0.46710 0.97750 -0.25400
N 	N 	0.02250 0.91170 0.53290 -0.31500
N 	N 	0.46710 0.08830 0.97750 -0.25700
N 	N 	0.53290 0.91170 0.02250 -0.31500
O 	O 	0.53140 0.40580 0.53140 -1.24300
O 	O 	0.53140 0.53140 0.53140 -1.24300
O 	O 	0.35802 0.54364 0.45636 -0.60100
O 	O 	0.46860 0.46860 0.46860 -1.24300
O 	O 	0.45636 0.64198 0.35802 -0.60100
O 	O 	0.54364 0.64198 0.45636 -0.60000
O 	O 	0.64198 0.54364 0.35802 -0.60100
O 	O 	0.54364 0.35802 0.64198 -0.60100
O 	O 	0.40580 0.53140 0.53140 -1.24300
O 	O 	0.53140 0.53140 0.40580 -1.24300
O 	O 	0.35802 0.64198 0.45636 -0.60100
O 	O 	0.45636 0.64198 0.54364 -0.60000
O 	O 	0.35802 0.64198 0.54364 -0.60100
O 	O 	0.46860 0.46860 0.59420 -1.24300
O 	O 	0.46860 0.59420 0.46860 -1.24300
O 	O 	0.35802 0.45636 0.64198 -0.60100
O 	O 	0.64198 0.35802 0.45636 -0.60100
O 	O 	0.64198 0.45636 0.54364 -0.60000
O 	O 	0.45636 0.35802 0.54364 -0.60100
O 	O 	0.45636 0.54364 0.35802 -0.60100
O 	O 	0.59420 0.46860 0.46860 -1.24300
O 	O 	0.45636 0.35802 0.64198 -0.60100
O 	O 	0.54364 0.45636 0.35802 -0.60100
O 	O 	0.54364 0.45636 0.64198 -0.60000
O 	O 	0.35802 0.45636 0.54364 -0.60100
O 	O 	0.45636 0.54364 0.64198 -0.60000
O 	O 	0.64198 0.45636 0.35802 -0.60100
O 	O 	0.64198 0.54364 0.45636 -0.60000
O 	O 	0.54364 0.64198 0.35802 -0.60100
O 	O 	0.35802 0.54364 0.64198 -0.60100
O 	O 	0.64198 0.35802 0.54364 -0.60100
O 	O 	0.54364 0.35802 0.45636 -0.60100
