data_crystal

_cell_length_a 38.42240
_cell_length_b 38.42240
_cell_length_c 38.42240
_cell_angle_alpha 90.00000
_cell_angle_beta  90.00000
_cell_angle_gamma 90.00000

_symmetry_space_group_name_	'P 1'
_symmetry_space_group_name_H-M	'P 1'

loop_
_symmetry_equiv_pos_as_xyz
  x,y,z

loop_
_atom_site_label
_atom_site_type_symbol
_atom_site_fract_x
_atom_site_fract_y
_atom_site_fract_z
_atom_site_charge
C 	C 	0.23318 0.26544 0.48930 -2.57600
H 	H 	0.22880 0.28330 0.47240 -8.76700
C 	C 	0.20803 0.24031 0.49600 0.39200
C 	C 	0.24589 0.21361 0.53820 -8.38300
H 	H 	0.25030 0.19570 0.55500 3.26900
C 	C 	0.27104 0.23874 0.53150 18.87700
C 	C 	0.10446 0.14560 0.53100 0.48300
H 	H 	0.09830 0.16790 0.52140 -0.13100
C 	C 	0.07908 0.12020 0.53540 -0.48900
H 	H 	0.05540 0.12490 0.52890 0.18600
C 	C 	0.12220 0.08120 0.55870 -0.32000
H 	H 	0.12840 0.05900 0.56830 -0.00600
C 	C 	0.14758 0.10660 0.55430 -0.04900
H 	H 	0.17120 0.10200 0.56090 -0.00100
C 	C 	0.07819 0.03059 0.54910 0.11900
C 	C 	0.11092 0.01762 0.55090 0.02900
C 	C 	0.14143 0.04076 0.55880 -0.49700
H 	H 	0.14580 0.03830 0.58330 0.16100
H 	H 	0.13470 0.06450 0.55490 0.43300
C 	C 	0.17770 0.02980 0.54870 0.02400
H 	H 	0.19460 0.04600 0.55880 -0.01400
H 	H 	0.17990 0.03010 0.52330 0.01300
H 	H 	0.18220 0.00630 0.55730 0.00300
C 	C 	0.17384 0.24120 0.47670 2.96200
H 	H 	0.15950 0.22210 0.48420 -0.86300
H 	H 	0.16220 0.26270 0.48140 -0.72900
H 	H 	0.17820 0.23920 0.45220 -1.56700
C 	C 	0.30522 0.23790 0.55080 -7.67600
H 	H 	0.30540 0.21850 0.56650 2.22500
H 	H 	0.32400 0.23560 0.53450 2.77700
H 	H 	0.30800 0.25910 0.56380 1.50000
C 	C 	0.76682 0.73456 0.48930 -2.57700
H 	H 	0.77120 0.71670 0.47240 -8.77100
C 	C 	0.79197 0.75969 0.49600 0.39300
C 	C 	0.75411 0.78639 0.53820 -8.38600
H 	H 	0.74970 0.80430 0.55500 3.27200
C 	C 	0.72896 0.76126 0.53150 18.88700
C 	C 	0.89554 0.85440 0.53100 0.48100
H 	H 	0.90170 0.83210 0.52140 -0.12900
C 	C 	0.92092 0.87980 0.53540 -0.48600
H 	H 	0.94460 0.87510 0.52890 0.18600
C 	C 	0.87780 0.91880 0.55870 -0.31900
H 	H 	0.87160 0.94100 0.56830 -0.00500
C 	C 	0.85242 0.89340 0.55430 -0.04700
H 	H 	0.82880 0.89800 0.56090 -0.00000
C 	C 	0.92181 0.96941 0.54910 0.12000
C 	C 	0.88908 0.98238 0.55090 0.02500
C 	C 	0.85857 0.95924 0.55880 -0.49100
H 	H 	0.85420 0.96170 0.58330 0.16100
H 	H 	0.86530 0.93550 0.55490 0.43200
C 	C 	0.82230 0.97020 0.54870 0.02100
H 	H 	0.80540 0.95400 0.55880 -0.01200
H 	H 	0.82010 0.96990 0.52330 0.01500
H 	H 	0.81780 0.99370 0.55730 0.00400
C 	C 	0.82616 0.75880 0.47670 2.96400
H 	H 	0.84050 0.77790 0.48420 -0.86400
H 	H 	0.83780 0.73730 0.48140 -0.72900
H 	H 	0.82180 0.76080 0.45220 -1.56800
C 	C 	0.69478 0.76210 0.55080 -7.67900
H 	H 	0.69460 0.78150 0.56650 2.22500
H 	H 	0.67600 0.76440 0.53450 2.77800
H 	H 	0.69200 0.74090 0.56380 1.50100
C 	C 	0.76682 0.26544 0.51070 -2.57600
H 	H 	0.77120 0.28330 0.52760 -8.76800
C 	C 	0.79197 0.24031 0.50400 0.39300
C 	C 	0.75411 0.21361 0.46180 -8.38400
H 	H 	0.74970 0.19570 0.44500 3.27100
C 	C 	0.72896 0.23874 0.46850 18.88200
C 	C 	0.89554 0.14560 0.46900 0.48100
H 	H 	0.90170 0.16790 0.47860 -0.12900
C 	C 	0.92092 0.12020 0.46460 -0.48700
H 	H 	0.94460 0.12490 0.47110 0.18600
C 	C 	0.87780 0.08120 0.44130 -0.31900
H 	H 	0.87160 0.05900 0.43170 -0.00500
C 	C 	0.85242 0.10660 0.44570 -0.04800
H 	H 	0.82880 0.10200 0.43910 0.00000
C 	C 	0.92181 0.03059 0.45090 0.12000
C 	C 	0.88908 0.01762 0.44910 0.03000
C 	C 	0.85857 0.04076 0.44120 -0.49600
H 	H 	0.85420 0.03830 0.41670 0.16200
H 	H 	0.86530 0.06450 0.44510 0.43400
C 	C 	0.82230 0.02980 0.45130 0.02500
H 	H 	0.80540 0.04600 0.44120 -0.01300
H 	H 	0.82010 0.03010 0.47670 0.01400
H 	H 	0.81780 0.00630 0.44270 0.00300
C 	C 	0.82616 0.24120 0.52330 2.96300
H 	H 	0.84050 0.22210 0.51580 -0.86300
H 	H 	0.83780 0.26270 0.51860 -0.72900
H 	H 	0.82180 0.23920 0.54780 -1.56800
C 	C 	0.69478 0.23790 0.44920 -7.67800
H 	H 	0.69460 0.21850 0.43350 2.22500
H 	H 	0.67600 0.23560 0.46550 2.77800
H 	H 	0.69200 0.25910 0.43620 1.50100
C 	C 	0.23318 0.73456 0.51070 -2.57600
H 	H 	0.22880 0.71670 0.52760 -8.76800
C 	C 	0.20803 0.75969 0.50400 0.39300
C 	C 	0.24589 0.78639 0.46180 -8.38400
H 	H 	0.25030 0.80430 0.44500 3.27100
C 	C 	0.27104 0.76126 0.46850 18.88200
C 	C 	0.10446 0.85440 0.46900 0.48300
H 	H 	0.09830 0.83210 0.47860 -0.13000
C 	C 	0.07908 0.87980 0.46460 -0.48800
H 	H 	0.05540 0.87510 0.47110 0.18700
C 	C 	0.12220 0.91880 0.44130 -0.31900
H 	H 	0.12840 0.94100 0.43170 -0.00500
C 	C 	0.14758 0.89340 0.44570 -0.04700
H 	H 	0.17120 0.89800 0.43910 -0.00000
C 	C 	0.07819 0.96941 0.45090 0.12100
C 	C 	0.11092 0.98238 0.44910 0.02500
C 	C 	0.14143 0.95924 0.44120 -0.49100
H 	H 	0.14580 0.96170 0.41670 0.16100
H 	H 	0.13470 0.93550 0.44510 0.43200
C 	C 	0.17770 0.97020 0.45130 0.02100
H 	H 	0.19460 0.95400 0.44120 -0.01200
H 	H 	0.17990 0.96990 0.47670 0.01500
H 	H 	0.18220 0.99370 0.44270 0.00400
C 	C 	0.17384 0.75880 0.52330 2.96300
H 	H 	0.15950 0.77790 0.51580 -0.86300
H 	H 	0.16220 0.73730 0.51860 -0.72900
H 	H 	0.17820 0.76080 0.54780 -1.56700
C 	C 	0.30522 0.76210 0.44920 -7.67800
H 	H 	0.30540 0.78150 0.43350 2.22500
H 	H 	0.32400 0.76440 0.46550 2.77800
H 	H 	0.30800 0.74090 0.43620 1.50100
C 	C 	0.48930 0.23318 0.26544 -2.57500
H 	H 	0.47240 0.22880 0.28330 -8.76600
C 	C 	0.49600 0.20803 0.24031 0.39300
C 	C 	0.53820 0.24589 0.21361 -8.38200
H 	H 	0.55500 0.25030 0.19570 3.27000
C 	C 	0.53150 0.27104 0.23874 18.87800
C 	C 	0.53100 0.10446 0.14560 0.48400
H 	H 	0.52140 0.09830 0.16790 -0.13000
C 	C 	0.53540 0.07908 0.12020 -0.48800
H 	H 	0.52890 0.05540 0.12490 0.18700
C 	C 	0.55870 0.12220 0.08120 -0.31900
H 	H 	0.56830 0.12840 0.05900 -0.00500
C 	C 	0.55430 0.14758 0.10660 -0.04800
H 	H 	0.56090 0.17120 0.10200 0.00000
C 	C 	0.54910 0.07819 0.03059 0.12000
C 	C 	0.55090 0.11092 0.01762 0.03000
C 	C 	0.55880 0.14143 0.04076 -0.49600
H 	H 	0.58330 0.14580 0.03830 0.16200
H 	H 	0.55490 0.13470 0.06450 0.43400
C 	C 	0.54870 0.17770 0.02980 0.02500
H 	H 	0.55880 0.19460 0.04600 -0.01300
H 	H 	0.52330 0.17990 0.03010 0.01400
H 	H 	0.55730 0.18220 0.00630 0.00300
C 	C 	0.47670 0.17384 0.24120 2.96200
H 	H 	0.48420 0.15950 0.22210 -0.86300
H 	H 	0.48140 0.16220 0.26270 -0.72900
H 	H 	0.45220 0.17820 0.23920 -1.56700
C 	C 	0.55080 0.30522 0.23790 -7.67600
H 	H 	0.56650 0.30540 0.21850 2.22500
H 	H 	0.53450 0.32400 0.23560 2.77700
H 	H 	0.56380 0.30800 0.25910 1.50000
C 	C 	0.48930 0.76682 0.73456 -2.57700
H 	H 	0.47240 0.77120 0.71670 -8.77100
C 	C 	0.49600 0.79197 0.75969 0.39300
C 	C 	0.53820 0.75411 0.78639 -8.38600
H 	H 	0.55500 0.74970 0.80430 3.27200
C 	C 	0.53150 0.72896 0.76126 18.88700
C 	C 	0.53100 0.89554 0.85440 0.48100
H 	H 	0.52140 0.90170 0.83210 -0.12900
C 	C 	0.53540 0.92092 0.87980 -0.48600
H 	H 	0.52890 0.94460 0.87510 0.18600
C 	C 	0.55870 0.87780 0.91880 -0.31900
H 	H 	0.56830 0.87160 0.94100 -0.00500
C 	C 	0.55430 0.85242 0.89340 -0.04700
H 	H 	0.56090 0.82880 0.89800 -0.00000
C 	C 	0.54910 0.92181 0.96941 0.12000
C 	C 	0.55090 0.88908 0.98238 0.02500
C 	C 	0.55880 0.85857 0.95924 -0.49100
H 	H 	0.58330 0.85420 0.96170 0.16100
H 	H 	0.55490 0.86530 0.93550 0.43200
C 	C 	0.54870 0.82230 0.97020 0.02100
H 	H 	0.55880 0.80540 0.95400 -0.01200
H 	H 	0.52330 0.82010 0.96990 0.01500
H 	H 	0.55730 0.81780 0.99370 0.00400
C 	C 	0.47670 0.82616 0.75880 2.96400
H 	H 	0.48420 0.84050 0.77790 -0.86400
H 	H 	0.48140 0.83780 0.73730 -0.72900
H 	H 	0.45220 0.82180 0.76080 -1.56800
C 	C 	0.55080 0.69478 0.76210 -7.67900
H 	H 	0.56650 0.69460 0.78150 2.22500
H 	H 	0.53450 0.67600 0.76440 2.77800
H 	H 	0.56380 0.69200 0.74090 1.50100
C 	C 	0.51070 0.76682 0.26544 -2.57600
H 	H 	0.52760 0.77120 0.28330 -8.76800
C 	C 	0.50400 0.79197 0.24031 0.39300
C 	C 	0.46180 0.75411 0.21361 -8.38400
H 	H 	0.44500 0.74970 0.19570 3.27100
C 	C 	0.46850 0.72896 0.23874 18.88200
C 	C 	0.46900 0.89554 0.14560 0.48100
H 	H 	0.47860 0.90170 0.16790 -0.12900
C 	C 	0.46460 0.92092 0.12020 -0.48700
H 	H 	0.47110 0.94460 0.12490 0.18600
C 	C 	0.44130 0.87780 0.08120 -0.31900
H 	H 	0.43170 0.87160 0.05900 -0.00500
C 	C 	0.44570 0.85242 0.10660 -0.04800
H 	H 	0.43910 0.82880 0.10200 0.00000
C 	C 	0.45090 0.92181 0.03059 0.12000
C 	C 	0.44910 0.88908 0.01762 0.03000
C 	C 	0.44120 0.85857 0.04076 -0.49600
H 	H 	0.41670 0.85420 0.03830 0.16200
H 	H 	0.44510 0.86530 0.06450 0.43400
C 	C 	0.45130 0.82230 0.02980 0.02500
H 	H 	0.44120 0.80540 0.04600 -0.01300
H 	H 	0.47670 0.82010 0.03010 0.01400
H 	H 	0.44270 0.81780 0.00630 0.00300
C 	C 	0.52330 0.82616 0.24120 2.96300
H 	H 	0.51580 0.84050 0.22210 -0.86300
H 	H 	0.51860 0.83780 0.26270 -0.72900
H 	H 	0.54780 0.82180 0.23920 -1.56800
C 	C 	0.44920 0.69478 0.23790 -7.67800
H 	H 	0.43350 0.69460 0.21850 2.22500
H 	H 	0.46550 0.67600 0.23560 2.77800
H 	H 	0.43620 0.69200 0.25910 1.50100
C 	C 	0.51070 0.23318 0.73456 -2.57600
H 	H 	0.52760 0.22880 0.71670 -8.76800
C 	C 	0.50400 0.20803 0.75969 0.39300
C 	C 	0.46180 0.24589 0.78639 -8.38400
H 	H 	0.44500 0.25030 0.80430 3.27100
C 	C 	0.46850 0.27104 0.76126 18.88200
C 	C 	0.46900 0.10446 0.85440 0.48300
H 	H 	0.47860 0.09830 0.83210 -0.13000
C 	C 	0.46460 0.07908 0.87980 -0.48800
H 	H 	0.47110 0.05540 0.87510 0.18700
C 	C 	0.44130 0.12220 0.91880 -0.31900
H 	H 	0.43170 0.12840 0.94100 -0.00500
C 	C 	0.44570 0.14758 0.89340 -0.04700
H 	H 	0.43910 0.17120 0.89800 -0.00000
C 	C 	0.45090 0.07819 0.96941 0.12100
C 	C 	0.44910 0.11092 0.98238 0.02500
C 	C 	0.44120 0.14143 0.95924 -0.49100
H 	H 	0.41670 0.14580 0.96170 0.16100
H 	H 	0.44510 0.13470 0.93550 0.43200
C 	C 	0.45130 0.17770 0.97020 0.02100
H 	H 	0.44120 0.19460 0.95400 -0.01200
H 	H 	0.47670 0.17990 0.96990 0.01500
H 	H 	0.44270 0.18220 0.99370 0.00400
C 	C 	0.52330 0.17384 0.75880 2.96300
H 	H 	0.51580 0.15950 0.77790 -0.86300
H 	H 	0.51860 0.16220 0.73730 -0.72900
H 	H 	0.54780 0.17820 0.76080 -1.56700
C 	C 	0.44920 0.30522 0.76210 -7.67800
H 	H 	0.43350 0.30540 0.78150 2.22500
H 	H 	0.46550 0.32400 0.76440 2.77800
H 	H 	0.43620 0.30800 0.74090 1.50100
C 	C 	0.26544 0.48930 0.23318 -2.57500
H 	H 	0.28330 0.47240 0.22880 -8.76600
C 	C 	0.24031 0.49600 0.20803 0.39300
C 	C 	0.21361 0.53820 0.24589 -8.38200
H 	H 	0.19570 0.55500 0.25030 3.27000
C 	C 	0.23874 0.53150 0.27104 18.87800
C 	C 	0.14560 0.53100 0.10446 0.48400
H 	H 	0.16790 0.52140 0.09830 -0.13000
C 	C 	0.12020 0.53540 0.07908 -0.48800
H 	H 	0.12490 0.52890 0.05540 0.18700
C 	C 	0.08120 0.55870 0.12220 -0.31900
H 	H 	0.05900 0.56830 0.12840 -0.00500
C 	C 	0.10660 0.55430 0.14758 -0.04800
H 	H 	0.10200 0.56090 0.17120 0.00000
C 	C 	0.03059 0.54910 0.07819 0.12000
C 	C 	0.01762 0.55090 0.11092 0.03000
C 	C 	0.04076 0.55880 0.14143 -0.49600
H 	H 	0.03830 0.58330 0.14580 0.16200
H 	H 	0.06450 0.55490 0.13470 0.43400
C 	C 	0.02980 0.54870 0.17770 0.02500
H 	H 	0.04600 0.55880 0.19460 -0.01300
H 	H 	0.03010 0.52330 0.17990 0.01400
H 	H 	0.00630 0.55730 0.18220 0.00300
C 	C 	0.24120 0.47670 0.17384 2.96200
H 	H 	0.22210 0.48420 0.15950 -0.86300
H 	H 	0.26270 0.48140 0.16220 -0.72900
H 	H 	0.23920 0.45220 0.17820 -1.56700
C 	C 	0.23790 0.55080 0.30522 -7.67600
H 	H 	0.21850 0.56650 0.30540 2.22500
H 	H 	0.23560 0.53450 0.32400 2.77700
H 	H 	0.25910 0.56380 0.30800 1.50000
C 	C 	0.73456 0.48930 0.76682 -2.57700
H 	H 	0.71670 0.47240 0.77120 -8.77100
C 	C 	0.75969 0.49600 0.79197 0.39300
C 	C 	0.78639 0.53820 0.75411 -8.38600
H 	H 	0.80430 0.55500 0.74970 3.27200
C 	C 	0.76126 0.53150 0.72896 18.88700
C 	C 	0.85440 0.53100 0.89554 0.48100
H 	H 	0.83210 0.52140 0.90170 -0.12900
C 	C 	0.87980 0.53540 0.92092 -0.48600
H 	H 	0.87510 0.52890 0.94460 0.18600
C 	C 	0.91880 0.55870 0.87780 -0.31900
H 	H 	0.94100 0.56830 0.87160 -0.00500
C 	C 	0.89340 0.55430 0.85242 -0.04700
H 	H 	0.89800 0.56090 0.82880 -0.00000
C 	C 	0.96941 0.54910 0.92181 0.12000
C 	C 	0.98238 0.55090 0.88908 0.02500
C 	C 	0.95924 0.55880 0.85857 -0.49100
H 	H 	0.96170 0.58330 0.85420 0.16100
H 	H 	0.93550 0.55490 0.86530 0.43200
C 	C 	0.97020 0.54870 0.82230 0.02100
H 	H 	0.95400 0.55880 0.80540 -0.01200
H 	H 	0.96990 0.52330 0.82010 0.01500
H 	H 	0.99370 0.55730 0.81780 0.00400
C 	C 	0.75880 0.47670 0.82616 2.96400
H 	H 	0.77790 0.48420 0.84050 -0.86400
H 	H 	0.73730 0.48140 0.83780 -0.72900
H 	H 	0.76080 0.45220 0.82180 -1.56800
C 	C 	0.76210 0.55080 0.69478 -7.67900
H 	H 	0.78150 0.56650 0.69460 2.22500
H 	H 	0.76440 0.53450 0.67600 2.77800
H 	H 	0.74090 0.56380 0.69200 1.50100
C 	C 	0.26544 0.51070 0.76682 -2.57600
H 	H 	0.28330 0.52760 0.77120 -8.76800
C 	C 	0.24031 0.50400 0.79197 0.39300
C 	C 	0.21361 0.46180 0.75411 -8.38400
H 	H 	0.19570 0.44500 0.74970 3.27100
C 	C 	0.23874 0.46850 0.72896 18.88200
C 	C 	0.14560 0.46900 0.89554 0.48100
H 	H 	0.16790 0.47860 0.90170 -0.12900
C 	C 	0.12020 0.46460 0.92092 -0.48700
H 	H 	0.12490 0.47110 0.94460 0.18600
C 	C 	0.08120 0.44130 0.87780 -0.31900
H 	H 	0.05900 0.43170 0.87160 -0.00500
C 	C 	0.10660 0.44570 0.85242 -0.04800
H 	H 	0.10200 0.43910 0.82880 0.00000
C 	C 	0.03059 0.45090 0.92181 0.12000
C 	C 	0.01762 0.44910 0.88908 0.03000
C 	C 	0.04076 0.44120 0.85857 -0.49600
H 	H 	0.03830 0.41670 0.85420 0.16200
H 	H 	0.06450 0.44510 0.86530 0.43400
C 	C 	0.02980 0.45130 0.82230 0.02500
H 	H 	0.04600 0.44120 0.80540 -0.01300
H 	H 	0.03010 0.47670 0.82010 0.01400
H 	H 	0.00630 0.44270 0.81780 0.00300
C 	C 	0.24120 0.52330 0.82616 2.96300
H 	H 	0.22210 0.51580 0.84050 -0.86300
H 	H 	0.26270 0.51860 0.83780 -0.72900
H 	H 	0.23920 0.54780 0.82180 -1.56800
C 	C 	0.23790 0.44920 0.69478 -7.67800
H 	H 	0.21850 0.43350 0.69460 2.22500
H 	H 	0.23560 0.46550 0.67600 2.77800
H 	H 	0.25910 0.43620 0.69200 1.50100
C 	C 	0.73456 0.51070 0.23318 -2.57600
H 	H 	0.71670 0.52760 0.22880 -8.76800
C 	C 	0.75969 0.50400 0.20803 0.39300
C 	C 	0.78639 0.46180 0.24589 -8.38400
H 	H 	0.80430 0.44500 0.25030 3.27100
C 	C 	0.76126 0.46850 0.27104 18.88200
C 	C 	0.85440 0.46900 0.10446 0.48300
H 	H 	0.83210 0.47860 0.09830 -0.13000
C 	C 	0.87980 0.46460 0.07908 -0.48800
H 	H 	0.87510 0.47110 0.05540 0.18700
C 	C 	0.91880 0.44130 0.12220 -0.31900
H 	H 	0.94100 0.43170 0.12840 -0.00500
C 	C 	0.89340 0.44570 0.14758 -0.04700
H 	H 	0.89800 0.43910 0.17120 -0.00000
C 	C 	0.96941 0.45090 0.07819 0.12100
C 	C 	0.98238 0.44910 0.11092 0.02500
C 	C 	0.95924 0.44120 0.14143 -0.49100
H 	H 	0.96170 0.41670 0.14580 0.16100
H 	H 	0.93550 0.44510 0.13470 0.43200
C 	C 	0.97020 0.45130 0.17770 0.02100
H 	H 	0.95400 0.44120 0.19460 -0.01200
H 	H 	0.96990 0.47670 0.17990 0.01500
H 	H 	0.99370 0.44270 0.18220 0.00400
C 	C 	0.75880 0.52330 0.17384 2.96300
H 	H 	0.77790 0.51580 0.15950 -0.86300
H 	H 	0.73730 0.51860 0.16220 -0.72900
H 	H 	0.76080 0.54780 0.17820 -1.56700
C 	C 	0.76210 0.44920 0.30522 -7.67800
H 	H 	0.78150 0.43350 0.30540 2.22500
H 	H 	0.76440 0.46550 0.32400 2.77800
H 	H 	0.74090 0.43620 0.30800 1.50100
C 	C 	0.26544 0.23318 0.51070 -2.57600
H 	H 	0.28330 0.22880 0.52760 -8.76600
C 	C 	0.24031 0.20803 0.50400 0.39300
C 	C 	0.21361 0.24589 0.46180 -8.38200
H 	H 	0.19570 0.25030 0.44500 3.27000
C 	C 	0.23874 0.27104 0.46850 18.87800
C 	C 	0.14560 0.10446 0.46900 0.48300
H 	H 	0.16790 0.09830 0.47860 -0.13000
C 	C 	0.12020 0.07908 0.46460 -0.48800
H 	H 	0.12490 0.05540 0.47110 0.18700
C 	C 	0.08120 0.12220 0.44130 -0.31900
H 	H 	0.05900 0.12840 0.43170 -0.00500
C 	C 	0.10660 0.14758 0.44570 -0.04800
H 	H 	0.10200 0.17120 0.43910 0.00000
C 	C 	0.03059 0.07819 0.45090 0.12000
C 	C 	0.01762 0.11092 0.44910 0.03000
C 	C 	0.04076 0.14143 0.44120 -0.49600
H 	H 	0.03830 0.14580 0.41670 0.16200
H 	H 	0.06450 0.13470 0.44510 0.43400
C 	C 	0.02980 0.17770 0.45130 0.02500
H 	H 	0.04600 0.19460 0.44120 -0.01300
H 	H 	0.03010 0.17990 0.47670 0.01400
H 	H 	0.00630 0.18220 0.44270 0.00300
C 	C 	0.24120 0.17384 0.52330 2.96200
H 	H 	0.22210 0.15950 0.51580 -0.86300
H 	H 	0.26270 0.16220 0.51860 -0.72900
H 	H 	0.23920 0.17820 0.54780 -1.56700
C 	C 	0.23790 0.30522 0.44920 -7.67600
H 	H 	0.21850 0.30540 0.43350 2.22500
H 	H 	0.23560 0.32400 0.46550 2.77700
H 	H 	0.25910 0.30800 0.43620 1.50000
C 	C 	0.73456 0.76682 0.51070 -2.57700
H 	H 	0.71670 0.77120 0.52760 -8.77100
C 	C 	0.75969 0.79197 0.50400 0.39300
C 	C 	0.78639 0.75411 0.46180 -8.38600
H 	H 	0.80430 0.74970 0.44500 3.27200
C 	C 	0.76126 0.72896 0.46850 18.88700
C 	C 	0.85440 0.89554 0.46900 0.48100
H 	H 	0.83210 0.90170 0.47860 -0.12900
C 	C 	0.87980 0.92092 0.46460 -0.48600
H 	H 	0.87510 0.94460 0.47110 0.18600
C 	C 	0.91880 0.87780 0.44130 -0.31900
H 	H 	0.94100 0.87160 0.43170 -0.00500
C 	C 	0.89340 0.85242 0.44570 -0.04700
H 	H 	0.89800 0.82880 0.43910 -0.00000
C 	C 	0.96941 0.92181 0.45090 0.12000
C 	C 	0.98238 0.88908 0.44910 0.02500
C 	C 	0.95924 0.85857 0.44120 -0.49100
H 	H 	0.96170 0.85420 0.41670 0.16100
H 	H 	0.93550 0.86530 0.44510 0.43200
C 	C 	0.97020 0.82230 0.45130 0.02100
H 	H 	0.95400 0.80540 0.44120 -0.01200
H 	H 	0.96990 0.82010 0.47670 0.01500
H 	H 	0.99370 0.81780 0.44270 0.00400
C 	C 	0.75880 0.82616 0.52330 2.96400
H 	H 	0.77790 0.84050 0.51580 -0.86400
H 	H 	0.73730 0.83780 0.51860 -0.72900
H 	H 	0.76080 0.82180 0.54780 -1.56800
C 	C 	0.76210 0.69478 0.44920 -7.67900
H 	H 	0.78150 0.69460 0.43350 2.22600
H 	H 	0.76440 0.67600 0.46550 2.77800
H 	H 	0.74090 0.69200 0.43620 1.50100
C 	C 	0.26544 0.76682 0.48930 -2.57600
H 	H 	0.28330 0.77120 0.47240 -8.76800
C 	C 	0.24031 0.79197 0.49600 0.39300
C 	C 	0.21361 0.75411 0.53820 -8.38400
H 	H 	0.19570 0.74970 0.55500 3.27100
C 	C 	0.23874 0.72896 0.53150 18.88200
C 	C 	0.14560 0.89554 0.53100 0.48100
H 	H 	0.16790 0.90170 0.52140 -0.12900
C 	C 	0.12020 0.92092 0.53540 -0.48700
H 	H 	0.12490 0.94460 0.52890 0.18600
C 	C 	0.08120 0.87780 0.55870 -0.31900
H 	H 	0.05900 0.87160 0.56830 -0.00500
C 	C 	0.10660 0.85242 0.55430 -0.04900
H 	H 	0.10200 0.82880 0.56090 0.00000
C 	C 	0.03059 0.92181 0.54910 0.12000
C 	C 	0.01762 0.88908 0.55090 0.03000
C 	C 	0.04076 0.85857 0.55880 -0.49600
H 	H 	0.03830 0.85420 0.58330 0.16200
H 	H 	0.06450 0.86530 0.55490 0.43400
C 	C 	0.02980 0.82230 0.54870 0.02500
H 	H 	0.04600 0.80540 0.55880 -0.01300
H 	H 	0.03010 0.82010 0.52330 0.01400
H 	H 	0.00630 0.81780 0.55730 0.00300
C 	C 	0.24120 0.82616 0.47670 2.96300
H 	H 	0.22210 0.84050 0.48420 -0.86300
H 	H 	0.26270 0.83780 0.48140 -0.72900
H 	H 	0.23920 0.82180 0.45220 -1.56800
C 	C 	0.23790 0.69478 0.55080 -7.67800
H 	H 	0.21850 0.69460 0.56650 2.22500
H 	H 	0.23560 0.67600 0.53450 2.77800
H 	H 	0.25910 0.69200 0.56380 1.50100
C 	C 	0.73456 0.23318 0.48930 -2.57600
H 	H 	0.71670 0.22880 0.47240 -8.76800
C 	C 	0.75969 0.20803 0.49600 0.39300
C 	C 	0.78639 0.24589 0.53820 -8.38400
H 	H 	0.80430 0.25030 0.55500 3.27100
C 	C 	0.76126 0.27104 0.53150 18.88200
C 	C 	0.85440 0.10446 0.53100 0.48300
H 	H 	0.83210 0.09830 0.52140 -0.13000
C 	C 	0.87980 0.07908 0.53540 -0.48800
H 	H 	0.87510 0.05540 0.52890 0.18700
C 	C 	0.91880 0.12220 0.55870 -0.31900
H 	H 	0.94100 0.12840 0.56830 -0.00500
C 	C 	0.89340 0.14758 0.55430 -0.04700
H 	H 	0.89800 0.17120 0.56090 -0.00000
C 	C 	0.96941 0.07819 0.54910 0.12100
C 	C 	0.98238 0.11092 0.55090 0.02500
C 	C 	0.95924 0.14143 0.55880 -0.49100
H 	H 	0.96170 0.14580 0.58330 0.16100
H 	H 	0.93550 0.13470 0.55490 0.43200
C 	C 	0.97020 0.17770 0.54870 0.02100
H 	H 	0.95400 0.19460 0.55880 -0.01200
H 	H 	0.96990 0.17990 0.52330 0.01500
H 	H 	0.99370 0.18220 0.55730 0.00400
C 	C 	0.75880 0.17384 0.47670 2.96300
H 	H 	0.77790 0.15950 0.48420 -0.86300
H 	H 	0.73730 0.16220 0.48140 -0.72900
H 	H 	0.76080 0.17820 0.45220 -1.56700
C 	C 	0.76210 0.30522 0.55080 -7.67800
H 	H 	0.78150 0.30540 0.56650 2.22500
H 	H 	0.76440 0.32400 0.53450 2.77800
H 	H 	0.74090 0.30800 0.56380 1.50100
C 	C 	0.23318 0.48930 0.73456 -2.57600
H 	H 	0.22880 0.47240 0.71670 -8.76800
C 	C 	0.20803 0.49600 0.75969 0.39300
C 	C 	0.24589 0.53820 0.78639 -8.38400
H 	H 	0.25030 0.55500 0.80430 3.27100
C 	C 	0.27104 0.53150 0.76126 18.88200
C 	C 	0.10446 0.53100 0.85440 0.48300
H 	H 	0.09830 0.52140 0.83210 -0.13000
C 	C 	0.07908 0.53540 0.87980 -0.48800
H 	H 	0.05540 0.52890 0.87510 0.18700
C 	C 	0.12220 0.55870 0.91880 -0.31900
H 	H 	0.12840 0.56830 0.94100 -0.00500
C 	C 	0.14758 0.55430 0.89340 -0.04700
H 	H 	0.17120 0.56090 0.89800 -0.00000
C 	C 	0.07819 0.54910 0.96941 0.12100
C 	C 	0.11092 0.55090 0.98238 0.02500
C 	C 	0.14143 0.55880 0.95924 -0.49100
H 	H 	0.14580 0.58330 0.96170 0.16100
H 	H 	0.13470 0.55490 0.93550 0.43200
C 	C 	0.17770 0.54870 0.97020 0.02100
H 	H 	0.19460 0.55880 0.95400 -0.01200
H 	H 	0.17990 0.52330 0.96990 0.01500
H 	H 	0.18220 0.55730 0.99370 0.00400
C 	C 	0.17384 0.47670 0.75880 2.96300
H 	H 	0.15950 0.48420 0.77790 -0.86300
H 	H 	0.16220 0.48140 0.73730 -0.72900
H 	H 	0.17820 0.45220 0.76080 -1.56700
C 	C 	0.30522 0.55080 0.76210 -7.67800
H 	H 	0.30540 0.56650 0.78150 2.22500
H 	H 	0.32400 0.53450 0.76440 2.77800
H 	H 	0.30800 0.56380 0.74090 1.50100
C 	C 	0.76682 0.48930 0.26544 -2.57600
H 	H 	0.77120 0.47240 0.28330 -8.76800
C 	C 	0.79197 0.49600 0.24031 0.39300
C 	C 	0.75411 0.53820 0.21361 -8.38400
H 	H 	0.74970 0.55500 0.19570 3.27100
C 	C 	0.72896 0.53150 0.23874 18.88200
C 	C 	0.89554 0.53100 0.14560 0.48100
H 	H 	0.90170 0.52140 0.16790 -0.12900
C 	C 	0.92092 0.53540 0.12020 -0.48700
H 	H 	0.94460 0.52890 0.12490 0.18600
C 	C 	0.87780 0.55870 0.08120 -0.31900
H 	H 	0.87160 0.56830 0.05900 -0.00500
C 	C 	0.85242 0.55430 0.10660 -0.04900
H 	H 	0.82880 0.56090 0.10200 0.00000
C 	C 	0.92181 0.54910 0.03059 0.12000
C 	C 	0.88908 0.55090 0.01762 0.03000
C 	C 	0.85857 0.55880 0.04076 -0.49600
H 	H 	0.85420 0.58330 0.03830 0.16200
H 	H 	0.86530 0.55490 0.06450 0.43400
C 	C 	0.82230 0.54870 0.02980 0.02500
H 	H 	0.80540 0.55880 0.04600 -0.01300
H 	H 	0.82010 0.52330 0.03010 0.01400
H 	H 	0.81780 0.55730 0.00630 0.00300
C 	C 	0.82616 0.47670 0.24120 2.96300
H 	H 	0.84050 0.48420 0.22210 -0.86300
H 	H 	0.83780 0.48140 0.26270 -0.72900
H 	H 	0.82180 0.45220 0.23920 -1.56800
C 	C 	0.69478 0.55080 0.23790 -7.67800
H 	H 	0.69460 0.56650 0.21850 2.22500
H 	H 	0.67600 0.53450 0.23560 2.77800
H 	H 	0.69200 0.56380 0.25910 1.50100
C 	C 	0.76682 0.51070 0.73456 -2.57700
H 	H 	0.77120 0.52760 0.71670 -8.77100
C 	C 	0.79197 0.50400 0.75969 0.39300
C 	C 	0.75411 0.46180 0.78639 -8.38600
H 	H 	0.74970 0.44500 0.80430 3.27200
C 	C 	0.72896 0.46850 0.76126 18.88700
C 	C 	0.89554 0.46900 0.85440 0.48100
H 	H 	0.90170 0.47860 0.83210 -0.12900
C 	C 	0.92092 0.46460 0.87980 -0.48600
H 	H 	0.94460 0.47110 0.87510 0.18600
C 	C 	0.87780 0.44130 0.91880 -0.31900
H 	H 	0.87160 0.43170 0.94100 -0.00500
C 	C 	0.85242 0.44570 0.89340 -0.04700
H 	H 	0.82880 0.43910 0.89800 -0.00000
C 	C 	0.92181 0.45090 0.96941 0.12000
C 	C 	0.88908 0.44910 0.98238 0.02500
C 	C 	0.85857 0.44120 0.95924 -0.49100
H 	H 	0.85420 0.41670 0.96170 0.16100
H 	H 	0.86530 0.44510 0.93550 0.43200
C 	C 	0.82230 0.45130 0.97020 0.02100
H 	H 	0.80540 0.44120 0.95400 -0.01200
H 	H 	0.82010 0.47670 0.96990 0.01500
H 	H 	0.81780 0.44270 0.99370 0.00400
C 	C 	0.82616 0.52330 0.75880 2.96400
H 	H 	0.84050 0.51580 0.77790 -0.86400
H 	H 	0.83780 0.51860 0.73730 -0.72900
H 	H 	0.82180 0.54780 0.76080 -1.56800
C 	C 	0.69478 0.44920 0.76210 -7.67900
H 	H 	0.69460 0.43350 0.78150 2.22600
H 	H 	0.67600 0.46550 0.76440 2.77800
H 	H 	0.69200 0.43620 0.74090 1.50100
C 	C 	0.23318 0.51070 0.26544 -2.57600
H 	H 	0.22880 0.52760 0.28330 -8.76600
C 	C 	0.20803 0.50400 0.24031 0.39300
C 	C 	0.24589 0.46180 0.21361 -8.38200
H 	H 	0.25030 0.44500 0.19570 3.27000
C 	C 	0.27104 0.46850 0.23874 18.87800
C 	C 	0.10446 0.46900 0.14560 0.48300
H 	H 	0.09830 0.47860 0.16790 -0.13000
C 	C 	0.07908 0.46460 0.12020 -0.48800
H 	H 	0.05540 0.47110 0.12490 0.18700
C 	C 	0.12220 0.44130 0.08120 -0.31900
H 	H 	0.12840 0.43170 0.05900 -0.00500
C 	C 	0.14758 0.44570 0.10660 -0.04800
H 	H 	0.17120 0.43910 0.10200 0.00000
C 	C 	0.07819 0.45090 0.03059 0.12000
C 	C 	0.11092 0.44910 0.01762 0.03000
C 	C 	0.14143 0.44120 0.04076 -0.49600
H 	H 	0.14580 0.41670 0.03830 0.16200
H 	H 	0.13470 0.44510 0.06450 0.43400
C 	C 	0.17770 0.45130 0.02980 0.02500
H 	H 	0.19460 0.44120 0.04600 -0.01300
H 	H 	0.17990 0.47670 0.03010 0.01400
H 	H 	0.18220 0.44270 0.00630 0.00300
C 	C 	0.17384 0.52330 0.24120 2.96200
H 	H 	0.15950 0.51580 0.22210 -0.86300
H 	H 	0.16220 0.51860 0.26270 -0.72900
H 	H 	0.17820 0.54780 0.23920 -1.56700
C 	C 	0.30522 0.44920 0.23790 -7.67600
H 	H 	0.30540 0.43350 0.21850 2.22500
H 	H 	0.32400 0.46550 0.23560 2.77700
H 	H 	0.30800 0.43620 0.25910 1.50000
C 	C 	0.48930 0.26544 0.76682 -2.57600
H 	H 	0.47240 0.28330 0.77120 -8.76800
C 	C 	0.49600 0.24031 0.79197 0.39300
C 	C 	0.53820 0.21361 0.75411 -8.38400
H 	H 	0.55500 0.19570 0.74970 3.27100
C 	C 	0.53150 0.23874 0.72896 18.88200
C 	C 	0.53100 0.14560 0.89554 0.48100
H 	H 	0.52140 0.16790 0.90170 -0.12900
C 	C 	0.53540 0.12020 0.92092 -0.48700
H 	H 	0.52890 0.12490 0.94460 0.18600
C 	C 	0.55870 0.08120 0.87780 -0.31900
H 	H 	0.56830 0.05900 0.87160 -0.00500
C 	C 	0.55430 0.10660 0.85242 -0.04900
H 	H 	0.56090 0.10200 0.82880 0.00000
C 	C 	0.54910 0.03059 0.92181 0.12000
C 	C 	0.55090 0.01762 0.88908 0.03000
C 	C 	0.55880 0.04076 0.85857 -0.49600
H 	H 	0.58330 0.03830 0.85420 0.16200
H 	H 	0.55490 0.06450 0.86530 0.43400
C 	C 	0.54870 0.02980 0.82230 0.02500
H 	H 	0.55880 0.04600 0.80540 -0.01300
H 	H 	0.52330 0.03010 0.82010 0.01400
H 	H 	0.55730 0.00630 0.81780 0.00300
C 	C 	0.47670 0.24120 0.82616 2.96300
H 	H 	0.48420 0.22210 0.84050 -0.86300
H 	H 	0.48140 0.26270 0.83780 -0.72900
H 	H 	0.45220 0.23920 0.82180 -1.56800
C 	C 	0.55080 0.23790 0.69478 -7.67800
H 	H 	0.56650 0.21850 0.69460 2.22500
H 	H 	0.53450 0.23560 0.67600 2.77800
H 	H 	0.56380 0.25910 0.69200 1.50100
C 	C 	0.48930 0.73456 0.23318 -2.57600
H 	H 	0.47240 0.71670 0.22880 -8.76800
C 	C 	0.49600 0.75969 0.20803 0.39300
C 	C 	0.53820 0.78639 0.24589 -8.38400
H 	H 	0.55500 0.80430 0.25030 3.27100
C 	C 	0.53150 0.76126 0.27104 18.88200
C 	C 	0.53100 0.85440 0.10446 0.48300
H 	H 	0.52140 0.83210 0.09830 -0.13000
C 	C 	0.53540 0.87980 0.07908 -0.48800
H 	H 	0.52890 0.87510 0.05540 0.18700
C 	C 	0.55870 0.91880 0.12220 -0.31900
H 	H 	0.56830 0.94100 0.12840 -0.00500
C 	C 	0.55430 0.89340 0.14758 -0.04700
H 	H 	0.56090 0.89800 0.17120 -0.00000
C 	C 	0.54910 0.96941 0.07819 0.12100
C 	C 	0.55090 0.98238 0.11092 0.02500
C 	C 	0.55880 0.95924 0.14143 -0.49100
H 	H 	0.58330 0.96170 0.14580 0.16100
H 	H 	0.55490 0.93550 0.13470 0.43200
C 	C 	0.54870 0.97020 0.17770 0.02100
H 	H 	0.55880 0.95400 0.19460 -0.01200
H 	H 	0.52330 0.96990 0.17990 0.01500
H 	H 	0.55730 0.99370 0.18220 0.00400
C 	C 	0.47670 0.75880 0.17384 2.96300
H 	H 	0.48420 0.77790 0.15950 -0.86300
H 	H 	0.48140 0.73730 0.16220 -0.72900
H 	H 	0.45220 0.76080 0.17820 -1.56700
C 	C 	0.55080 0.76210 0.30522 -7.67800
H 	H 	0.56650 0.78150 0.30540 2.22500
H 	H 	0.53450 0.76440 0.32400 2.77800
H 	H 	0.56380 0.74090 0.30800 1.50100
C 	C 	0.51070 0.26544 0.23318 -2.57600
H 	H 	0.52760 0.28330 0.22880 -8.76600
C 	C 	0.50400 0.24031 0.20803 0.39300
C 	C 	0.46180 0.21361 0.24589 -8.38200
H 	H 	0.44500 0.19570 0.25030 3.27000
C 	C 	0.46850 0.23874 0.27104 18.87800
C 	C 	0.46900 0.14560 0.10446 0.48300
H 	H 	0.47860 0.16790 0.09830 -0.13000
C 	C 	0.46460 0.12020 0.07908 -0.48800
H 	H 	0.47110 0.12490 0.05540 0.18700
C 	C 	0.44130 0.08120 0.12220 -0.31900
H 	H 	0.43170 0.05900 0.12840 -0.00500
C 	C 	0.44570 0.10660 0.14758 -0.04800
H 	H 	0.43910 0.10200 0.17120 0.00000
C 	C 	0.45090 0.03059 0.07819 0.12000
C 	C 	0.44910 0.01762 0.11092 0.03000
C 	C 	0.44120 0.04076 0.14143 -0.49600
H 	H 	0.41670 0.03830 0.14580 0.16200
H 	H 	0.44510 0.06450 0.13470 0.43400
C 	C 	0.45130 0.02980 0.17770 0.02500
H 	H 	0.44120 0.04600 0.19460 -0.01300
H 	H 	0.47670 0.03010 0.17990 0.01400
H 	H 	0.44270 0.00630 0.18220 0.00300
C 	C 	0.52330 0.24120 0.17384 2.96200
H 	H 	0.51580 0.22210 0.15950 -0.86300
H 	H 	0.51860 0.26270 0.16220 -0.72900
H 	H 	0.54780 0.23920 0.17820 -1.56700
C 	C 	0.44920 0.23790 0.30522 -7.67600
H 	H 	0.43350 0.21850 0.30540 2.22500
H 	H 	0.46550 0.23560 0.32400 2.77700
H 	H 	0.43620 0.25910 0.30800 1.50000
C 	C 	0.51070 0.73456 0.76682 -2.57700
H 	H 	0.52760 0.71670 0.77120 -8.77100
C 	C 	0.50400 0.75969 0.79197 0.39300
C 	C 	0.46180 0.78639 0.75411 -8.38600
H 	H 	0.44500 0.80430 0.74970 3.27200
C 	C 	0.46850 0.76126 0.72896 18.88700
C 	C 	0.46900 0.85440 0.89554 0.48100
H 	H 	0.47860 0.83210 0.90170 -0.12900
C 	C 	0.46460 0.87980 0.92092 -0.48600
H 	H 	0.47110 0.87510 0.94460 0.18600
C 	C 	0.44130 0.91880 0.87780 -0.31900
H 	H 	0.43170 0.94100 0.87160 -0.00500
C 	C 	0.44570 0.89340 0.85242 -0.04700
H 	H 	0.43910 0.89800 0.82880 -0.00000
C 	C 	0.45090 0.96941 0.92181 0.12000
C 	C 	0.44910 0.98238 0.88908 0.02500
C 	C 	0.44120 0.95924 0.85857 -0.49100
H 	H 	0.41670 0.96170 0.85420 0.16100
H 	H 	0.44510 0.93550 0.86530 0.43200
C 	C 	0.45130 0.97020 0.82230 0.02100
H 	H 	0.44120 0.95400 0.80540 -0.01200
H 	H 	0.47670 0.96990 0.82010 0.01500
H 	H 	0.44270 0.99370 0.81780 0.00400
C 	C 	0.52330 0.75880 0.82616 2.96400
H 	H 	0.51580 0.77790 0.84050 -0.86400
H 	H 	0.51860 0.73730 0.83780 -0.72900
H 	H 	0.54780 0.76080 0.82180 -1.56800
C 	C 	0.44920 0.76210 0.69478 -7.67900
H 	H 	0.43350 0.78150 0.69460 2.22600
H 	H 	0.46550 0.76440 0.67600 2.77800
H 	H 	0.43620 0.74090 0.69200 1.50100
C 	C 	0.76682 0.73456 0.51070 -2.57700
H 	H 	0.77120 0.71670 0.52760 -8.77100
C 	C 	0.79197 0.75969 0.50400 0.39300
C 	C 	0.75411 0.78639 0.46180 -8.38600
H 	H 	0.74970 0.80430 0.44500 3.27200
C 	C 	0.72896 0.76126 0.46850 18.88700
C 	C 	0.89554 0.85440 0.46900 0.48100
H 	H 	0.90170 0.83210 0.47860 -0.12900
C 	C 	0.92092 0.87980 0.46460 -0.48600
H 	H 	0.94460 0.87510 0.47110 0.18600
C 	C 	0.87780 0.91880 0.44130 -0.31900
H 	H 	0.87160 0.94100 0.43170 -0.00500
C 	C 	0.85242 0.89340 0.44570 -0.04700
H 	H 	0.82880 0.89800 0.43910 -0.00000
C 	C 	0.92181 0.96941 0.45090 0.12000
C 	C 	0.88908 0.98238 0.44910 0.02500
C 	C 	0.85857 0.95924 0.44120 -0.49100
H 	H 	0.85420 0.96170 0.41670 0.16100
H 	H 	0.86530 0.93550 0.44510 0.43200
C 	C 	0.82230 0.97020 0.45130 0.02100
H 	H 	0.80540 0.95400 0.44120 -0.01200
H 	H 	0.82010 0.96990 0.47670 0.01500
H 	H 	0.81780 0.99370 0.44270 0.00400
C 	C 	0.82616 0.75880 0.52330 2.96400
H 	H 	0.84050 0.77790 0.51580 -0.86400
H 	H 	0.83780 0.73730 0.51860 -0.72900
H 	H 	0.82180 0.76080 0.54780 -1.56800
C 	C 	0.69478 0.76210 0.44920 -7.67900
H 	H 	0.69460 0.78150 0.43350 2.22600
H 	H 	0.67600 0.76440 0.46550 2.77800
H 	H 	0.69200 0.74090 0.43620 1.50100
C 	C 	0.23318 0.26544 0.51070 -2.57600
H 	H 	0.22880 0.28330 0.52760 -8.76600
C 	C 	0.20803 0.24031 0.50400 0.39300
C 	C 	0.24589 0.21361 0.46180 -8.38200
H 	H 	0.25030 0.19570 0.44500 3.27000
C 	C 	0.27104 0.23874 0.46850 18.87800
C 	C 	0.10446 0.14560 0.46900 0.48300
H 	H 	0.09830 0.16790 0.47860 -0.13000
C 	C 	0.07908 0.12020 0.46460 -0.48800
H 	H 	0.05540 0.12490 0.47110 0.18700
C 	C 	0.12220 0.08120 0.44130 -0.31900
H 	H 	0.12840 0.05900 0.43170 -0.00500
C 	C 	0.14758 0.10660 0.44570 -0.04800
H 	H 	0.17120 0.10200 0.43910 0.00000
C 	C 	0.07819 0.03059 0.45090 0.12000
C 	C 	0.11092 0.01762 0.44910 0.03000
C 	C 	0.14143 0.04076 0.44120 -0.49600
H 	H 	0.14580 0.03830 0.41670 0.16200
H 	H 	0.13470 0.06450 0.44510 0.43400
C 	C 	0.17770 0.02980 0.45130 0.02500
H 	H 	0.19460 0.04600 0.44120 -0.01300
H 	H 	0.17990 0.03010 0.47670 0.01400
H 	H 	0.18220 0.00630 0.44270 0.00300
C 	C 	0.17384 0.24120 0.52330 2.96200
H 	H 	0.15950 0.22210 0.51580 -0.86300
H 	H 	0.16220 0.26270 0.51860 -0.72900
H 	H 	0.17820 0.23920 0.54780 -1.56700
C 	C 	0.30522 0.23790 0.44920 -7.67600
H 	H 	0.30540 0.21850 0.43350 2.22500
H 	H 	0.32400 0.23560 0.46550 2.77700
H 	H 	0.30800 0.25910 0.43620 1.50000
C 	C 	0.23318 0.73456 0.48930 -2.57600
H 	H 	0.22880 0.71670 0.47240 -8.76800
C 	C 	0.20803 0.75969 0.49600 0.39300
C 	C 	0.24589 0.78639 0.53820 -8.38400
H 	H 	0.25030 0.80430 0.55500 3.27100
C 	C 	0.27104 0.76126 0.53150 18.88200
C 	C 	0.10446 0.85440 0.53100 0.48300
H 	H 	0.09830 0.83210 0.52140 -0.13000
C 	C 	0.07908 0.87980 0.53540 -0.48800
H 	H 	0.05540 0.87510 0.52890 0.18700
C 	C 	0.12220 0.91880 0.55870 -0.31900
H 	H 	0.12840 0.94100 0.56830 -0.00500
C 	C 	0.14758 0.89340 0.55430 -0.04700
H 	H 	0.17120 0.89800 0.56090 -0.00000
C 	C 	0.07819 0.96941 0.54910 0.12100
C 	C 	0.11092 0.98238 0.55090 0.02500
C 	C 	0.14143 0.95924 0.55880 -0.49100
H 	H 	0.14580 0.96170 0.58330 0.16100
H 	H 	0.13470 0.93550 0.55490 0.43200
C 	C 	0.17770 0.97020 0.54870 0.02100
H 	H 	0.19460 0.95400 0.55880 -0.01200
H 	H 	0.17990 0.96990 0.52330 0.01500
H 	H 	0.18220 0.99370 0.55730 0.00400
C 	C 	0.17384 0.75880 0.47670 2.96300
H 	H 	0.15950 0.77790 0.48420 -0.86300
H 	H 	0.16220 0.73730 0.48140 -0.72900
H 	H 	0.17820 0.76080 0.45220 -1.56700
C 	C 	0.30522 0.76210 0.55080 -7.67800
H 	H 	0.30540 0.78150 0.56650 2.22500
H 	H 	0.32400 0.76440 0.53450 2.77800
H 	H 	0.30800 0.74090 0.56380 1.50100
C 	C 	0.76682 0.26544 0.48930 -2.57600
H 	H 	0.77120 0.28330 0.47240 -8.76800
C 	C 	0.79197 0.24031 0.49600 0.39300
C 	C 	0.75411 0.21361 0.53820 -8.38400
H 	H 	0.74970 0.19570 0.55500 3.27100
C 	C 	0.72896 0.23874 0.53150 18.88200
C 	C 	0.89554 0.14560 0.53100 0.48100
H 	H 	0.90170 0.16790 0.52140 -0.12900
C 	C 	0.92092 0.12020 0.53540 -0.48700
H 	H 	0.94460 0.12490 0.52890 0.18600
C 	C 	0.87780 0.08120 0.55870 -0.31900
H 	H 	0.87160 0.05900 0.56830 -0.00500
C 	C 	0.85242 0.10660 0.55430 -0.04900
H 	H 	0.82880 0.10200 0.56090 0.00000
C 	C 	0.92181 0.03059 0.54910 0.12000
C 	C 	0.88908 0.01762 0.55090 0.03000
C 	C 	0.85857 0.04076 0.55880 -0.49600
H 	H 	0.85420 0.03830 0.58330 0.16200
H 	H 	0.86530 0.06450 0.55490 0.43400
C 	C 	0.82230 0.02980 0.54870 0.02500
H 	H 	0.80540 0.04600 0.55880 -0.01300
H 	H 	0.82010 0.03010 0.52330 0.01400
H 	H 	0.81780 0.00630 0.55730 0.00300
C 	C 	0.82616 0.24120 0.47670 2.96300
H 	H 	0.84050 0.22210 0.48420 -0.86300
H 	H 	0.83780 0.26270 0.48140 -0.72900
H 	H 	0.82180 0.23920 0.45220 -1.56800
C 	C 	0.69478 0.23790 0.55080 -7.67800
H 	H 	0.69460 0.21850 0.56650 2.22500
H 	H 	0.67600 0.23560 0.53450 2.77800
H 	H 	0.69200 0.25910 0.56380 1.50100
C 	C 	0.51070 0.76682 0.73456 -2.57700
H 	H 	0.52760 0.77120 0.71670 -8.77100
C 	C 	0.50400 0.79197 0.75969 0.39300
C 	C 	0.46180 0.75411 0.78639 -8.38600
H 	H 	0.44500 0.74970 0.80430 3.27200
C 	C 	0.46850 0.72896 0.76126 18.88700
C 	C 	0.46900 0.89554 0.85440 0.48100
H 	H 	0.47860 0.90170 0.83210 -0.12900
C 	C 	0.46460 0.92092 0.87980 -0.48600
H 	H 	0.47110 0.94460 0.87510 0.18600
C 	C 	0.44130 0.87780 0.91880 -0.31900
H 	H 	0.43170 0.87160 0.94100 -0.00500
C 	C 	0.44570 0.85242 0.89340 -0.04700
H 	H 	0.43910 0.82880 0.89800 -0.00000
C 	C 	0.45090 0.92181 0.96941 0.12000
C 	C 	0.44910 0.88908 0.98238 0.02500
C 	C 	0.44120 0.85857 0.95924 -0.49100
H 	H 	0.41670 0.85420 0.96170 0.16100
H 	H 	0.44510 0.86530 0.93550 0.43200
C 	C 	0.45130 0.82230 0.97020 0.02100
H 	H 	0.44120 0.80540 0.95400 -0.01200
H 	H 	0.47670 0.82010 0.96990 0.01500
H 	H 	0.44270 0.81780 0.99370 0.00400
C 	C 	0.52330 0.82616 0.75880 2.96400
H 	H 	0.51580 0.84050 0.77790 -0.86400
H 	H 	0.51860 0.83780 0.73730 -0.72900
H 	H 	0.54780 0.82180 0.76080 -1.56800
C 	C 	0.44920 0.69478 0.76210 -7.67900
H 	H 	0.43350 0.69460 0.78150 2.22600
H 	H 	0.46550 0.67600 0.76440 2.77800
H 	H 	0.43620 0.69200 0.74090 1.50100
C 	C 	0.51070 0.23318 0.26544 -2.57600
H 	H 	0.52760 0.22880 0.28330 -8.76600
C 	C 	0.50400 0.20803 0.24031 0.39300
C 	C 	0.46180 0.24589 0.21361 -8.38200
H 	H 	0.44500 0.25030 0.19570 3.27000
C 	C 	0.46850 0.27104 0.23874 18.87800
C 	C 	0.46900 0.10446 0.14560 0.48300
H 	H 	0.47860 0.09830 0.16790 -0.13000
C 	C 	0.46460 0.07908 0.12020 -0.48800
H 	H 	0.47110 0.05540 0.12490 0.18700
C 	C 	0.44130 0.12220 0.08120 -0.31900
H 	H 	0.43170 0.12840 0.05900 -0.00500
C 	C 	0.44570 0.14758 0.10660 -0.04800
H 	H 	0.43910 0.17120 0.10200 0.00000
C 	C 	0.45090 0.07819 0.03059 0.12000
C 	C 	0.44910 0.11092 0.01762 0.03000
C 	C 	0.44120 0.14143 0.04076 -0.49600
H 	H 	0.41670 0.14580 0.03830 0.16200
H 	H 	0.44510 0.13470 0.06450 0.43400
C 	C 	0.45130 0.17770 0.02980 0.02500
H 	H 	0.44120 0.19460 0.04600 -0.01300
H 	H 	0.47670 0.17990 0.03010 0.01400
H 	H 	0.44270 0.18220 0.00630 0.00300
C 	C 	0.52330 0.17384 0.24120 2.96200
H 	H 	0.51580 0.15950 0.22210 -0.86300
H 	H 	0.51860 0.16220 0.26270 -0.72900
H 	H 	0.54780 0.17820 0.23920 -1.56700
C 	C 	0.44920 0.30522 0.23790 -7.67600
H 	H 	0.43350 0.30540 0.21850 2.22500
H 	H 	0.46550 0.32400 0.23560 2.77700
H 	H 	0.43620 0.30800 0.25910 1.50000
C 	C 	0.48930 0.23318 0.73456 -2.57600
H 	H 	0.47240 0.22880 0.71670 -8.76800
C 	C 	0.49600 0.20803 0.75969 0.39300
C 	C 	0.53820 0.24589 0.78639 -8.38400
H 	H 	0.55500 0.25030 0.80430 3.27100
C 	C 	0.53150 0.27104 0.76126 18.88200
C 	C 	0.53100 0.10446 0.85440 0.48300
H 	H 	0.52140 0.09830 0.83210 -0.13000
C 	C 	0.53540 0.07908 0.87980 -0.48800
H 	H 	0.52890 0.05540 0.87510 0.18700
C 	C 	0.55870 0.12220 0.91880 -0.31900
H 	H 	0.56830 0.12840 0.94100 -0.00500
C 	C 	0.55430 0.14758 0.89340 -0.04700
H 	H 	0.56090 0.17120 0.89800 -0.00000
C 	C 	0.54910 0.07819 0.96941 0.12100
C 	C 	0.55090 0.11092 0.98238 0.02500
C 	C 	0.55880 0.14143 0.95924 -0.49100
H 	H 	0.58330 0.14580 0.96170 0.16100
H 	H 	0.55490 0.13470 0.93550 0.43200
C 	C 	0.54870 0.17770 0.97020 0.02100
H 	H 	0.55880 0.19460 0.95400 -0.01200
H 	H 	0.52330 0.17990 0.96990 0.01500
H 	H 	0.55730 0.18220 0.99370 0.00400
C 	C 	0.47670 0.17384 0.75880 2.96300
H 	H 	0.48420 0.15950 0.77790 -0.86300
H 	H 	0.48140 0.16220 0.73730 -0.72900
H 	H 	0.45220 0.17820 0.76080 -1.56700
C 	C 	0.55080 0.30522 0.76210 -7.67800
H 	H 	0.56650 0.30540 0.78150 2.22500
H 	H 	0.53450 0.32400 0.76440 2.77800
H 	H 	0.56380 0.30800 0.74090 1.50100
C 	C 	0.48930 0.76682 0.26544 -2.57600
H 	H 	0.47240 0.77120 0.28330 -8.76800
C 	C 	0.49600 0.79197 0.24031 0.39300
C 	C 	0.53820 0.75411 0.21361 -8.38400
H 	H 	0.55500 0.74970 0.19570 3.27100
C 	C 	0.53150 0.72896 0.23874 18.88200
C 	C 	0.53100 0.89554 0.14560 0.48100
H 	H 	0.52140 0.90170 0.16790 -0.12900
C 	C 	0.53540 0.92092 0.12020 -0.48700
H 	H 	0.52890 0.94460 0.12490 0.18600
C 	C 	0.55870 0.87780 0.08120 -0.31900
H 	H 	0.56830 0.87160 0.05900 -0.00500
C 	C 	0.55430 0.85242 0.10660 -0.04900
H 	H 	0.56090 0.82880 0.10200 0.00000
C 	C 	0.54910 0.92181 0.03059 0.12000
C 	C 	0.55090 0.88908 0.01762 0.03000
C 	C 	0.55880 0.85857 0.04076 -0.49600
H 	H 	0.58330 0.85420 0.03830 0.16200
H 	H 	0.55490 0.86530 0.06450 0.43400
C 	C 	0.54870 0.82230 0.02980 0.02500
H 	H 	0.55880 0.80540 0.04600 -0.01300
H 	H 	0.52330 0.82010 0.03010 0.01400
H 	H 	0.55730 0.81780 0.00630 0.00300
C 	C 	0.47670 0.82616 0.24120 2.96300
H 	H 	0.48420 0.84050 0.22210 -0.86300
H 	H 	0.48140 0.83780 0.26270 -0.72900
H 	H 	0.45220 0.82180 0.23920 -1.56800
C 	C 	0.55080 0.69478 0.23790 -7.67800
H 	H 	0.56650 0.69460 0.21850 2.22500
H 	H 	0.53450 0.67600 0.23560 2.77800
H 	H 	0.56380 0.69200 0.25910 1.50100
C 	C 	0.73456 0.51070 0.76682 -2.57700
H 	H 	0.71670 0.52760 0.77120 -8.77100
C 	C 	0.75969 0.50400 0.79197 0.39300
C 	C 	0.78639 0.46180 0.75411 -8.38600
H 	H 	0.80430 0.44500 0.74970 3.27200
C 	C 	0.76126 0.46850 0.72896 18.88700
C 	C 	0.85440 0.46900 0.89554 0.48100
H 	H 	0.83210 0.47860 0.90170 -0.12900
C 	C 	0.87980 0.46460 0.92092 -0.48600
H 	H 	0.87510 0.47110 0.94460 0.18600
C 	C 	0.91880 0.44130 0.87780 -0.31900
H 	H 	0.94100 0.43170 0.87160 -0.00500
C 	C 	0.89340 0.44570 0.85242 -0.04700
H 	H 	0.89800 0.43910 0.82880 -0.00000
C 	C 	0.96941 0.45090 0.92181 0.12000
C 	C 	0.98238 0.44910 0.88908 0.02500
C 	C 	0.95924 0.44120 0.85857 -0.49100
H 	H 	0.96170 0.41670 0.85420 0.16100
H 	H 	0.93550 0.44510 0.86530 0.43200
C 	C 	0.97020 0.45130 0.82230 0.02100
H 	H 	0.95400 0.44120 0.80540 -0.01200
H 	H 	0.96990 0.47670 0.82010 0.01500
H 	H 	0.99370 0.44270 0.81780 0.00400
C 	C 	0.75880 0.52330 0.82616 2.96400
H 	H 	0.77790 0.51580 0.84050 -0.86400
H 	H 	0.73730 0.51860 0.83780 -0.72900
H 	H 	0.76080 0.54780 0.82180 -1.56800
C 	C 	0.76210 0.44920 0.69478 -7.67900
H 	H 	0.78150 0.43350 0.69460 2.22600
H 	H 	0.76440 0.46550 0.67600 2.77800
H 	H 	0.74090 0.43620 0.69200 1.50100
C 	C 	0.26544 0.51070 0.23318 -2.57600
H 	H 	0.28330 0.52760 0.22880 -8.76600
C 	C 	0.24031 0.50400 0.20803 0.39300
C 	C 	0.21361 0.46180 0.24589 -8.38200
H 	H 	0.19570 0.44500 0.25030 3.27000
C 	C 	0.23874 0.46850 0.27104 18.87800
C 	C 	0.14560 0.46900 0.10446 0.48300
H 	H 	0.16790 0.47860 0.09830 -0.13000
C 	C 	0.12020 0.46460 0.07908 -0.48800
H 	H 	0.12490 0.47110 0.05540 0.18700
C 	C 	0.08120 0.44130 0.12220 -0.31900
H 	H 	0.05900 0.43170 0.12840 -0.00500
C 	C 	0.10660 0.44570 0.14758 -0.04800
H 	H 	0.10200 0.43910 0.17120 0.00000
C 	C 	0.03059 0.45090 0.07819 0.12000
C 	C 	0.01762 0.44910 0.11092 0.03000
C 	C 	0.04076 0.44120 0.14143 -0.49600
H 	H 	0.03830 0.41670 0.14580 0.16200
H 	H 	0.06450 0.44510 0.13470 0.43400
C 	C 	0.02980 0.45130 0.17770 0.02500
H 	H 	0.04600 0.44120 0.19460 -0.01300
H 	H 	0.03010 0.47670 0.17990 0.01400
H 	H 	0.00630 0.44270 0.18220 0.00300
C 	C 	0.24120 0.52330 0.17384 2.96200
H 	H 	0.22210 0.51580 0.15950 -0.86300
H 	H 	0.26270 0.51860 0.16220 -0.72900
H 	H 	0.23920 0.54780 0.17820 -1.56700
C 	C 	0.23790 0.44920 0.30522 -7.67600
H 	H 	0.21850 0.43350 0.30540 2.22500
H 	H 	0.23560 0.46550 0.32400 2.77700
H 	H 	0.25910 0.43620 0.30800 1.50000
C 	C 	0.73456 0.48930 0.23318 -2.57600
H 	H 	0.71670 0.47240 0.22880 -8.76800
C 	C 	0.75969 0.49600 0.20803 0.39300
C 	C 	0.78639 0.53820 0.24589 -8.38400
H 	H 	0.80430 0.55500 0.25030 3.27100
C 	C 	0.76126 0.53150 0.27104 18.88200
C 	C 	0.85440 0.53100 0.10446 0.48300
H 	H 	0.83210 0.52140 0.09830 -0.13000
C 	C 	0.87980 0.53540 0.07908 -0.48800
H 	H 	0.87510 0.52890 0.05540 0.18700
C 	C 	0.91880 0.55870 0.12220 -0.31900
H 	H 	0.94100 0.56830 0.12840 -0.00500
C 	C 	0.89340 0.55430 0.14758 -0.04700
H 	H 	0.89800 0.56090 0.17120 -0.00000
C 	C 	0.96941 0.54910 0.07819 0.12100
C 	C 	0.98238 0.55090 0.11092 0.02500
C 	C 	0.95924 0.55880 0.14143 -0.49100
H 	H 	0.96170 0.58330 0.14580 0.16100
H 	H 	0.93550 0.55490 0.13470 0.43200
C 	C 	0.97020 0.54870 0.17770 0.02100
H 	H 	0.95400 0.55880 0.19460 -0.01200
H 	H 	0.96990 0.52330 0.17990 0.01500
H 	H 	0.99370 0.55730 0.18220 0.00400
C 	C 	0.75880 0.47670 0.17384 2.96300
H 	H 	0.77790 0.48420 0.15950 -0.86300
H 	H 	0.73730 0.48140 0.16220 -0.72900
H 	H 	0.76080 0.45220 0.17820 -1.56700
C 	C 	0.76210 0.55080 0.30522 -7.67800
H 	H 	0.78150 0.56650 0.30540 2.22500
H 	H 	0.76440 0.53450 0.32400 2.77800
H 	H 	0.74090 0.56380 0.30800 1.50100
C 	C 	0.26544 0.48930 0.76682 -2.57600
H 	H 	0.28330 0.47240 0.77120 -8.76800
C 	C 	0.24031 0.49600 0.79197 0.39300
C 	C 	0.21361 0.53820 0.75411 -8.38400
H 	H 	0.19570 0.55500 0.74970 3.27100
C 	C 	0.23874 0.53150 0.72896 18.88200
C 	C 	0.14560 0.53100 0.89554 0.48100
H 	H 	0.16790 0.52140 0.90170 -0.12900
C 	C 	0.12020 0.53540 0.92092 -0.48700
H 	H 	0.12490 0.52890 0.94460 0.18600
C 	C 	0.08120 0.55870 0.87780 -0.31900
H 	H 	0.05900 0.56830 0.87160 -0.00500
C 	C 	0.10660 0.55430 0.85242 -0.04900
H 	H 	0.10200 0.56090 0.82880 0.00000
C 	C 	0.03059 0.54910 0.92181 0.12000
C 	C 	0.01762 0.55090 0.88908 0.03000
C 	C 	0.04076 0.55880 0.85857 -0.49600
H 	H 	0.03830 0.58330 0.85420 0.16200
H 	H 	0.06450 0.55490 0.86530 0.43400
C 	C 	0.02980 0.54870 0.82230 0.02500
H 	H 	0.04600 0.55880 0.80540 -0.01300
H 	H 	0.03010 0.52330 0.82010 0.01400
H 	H 	0.00630 0.55730 0.81780 0.00300
C 	C 	0.24120 0.47670 0.82616 2.96300
H 	H 	0.22210 0.48420 0.84050 -0.86300
H 	H 	0.26270 0.48140 0.83780 -0.72900
H 	H 	0.23920 0.45220 0.82180 -1.56800
C 	C 	0.23790 0.55080 0.69478 -7.67800
H 	H 	0.21850 0.56650 0.69460 2.22500
H 	H 	0.23560 0.53450 0.67600 2.77800
H 	H 	0.25910 0.56380 0.69200 1.50100
C 	C 	0.73456 0.76682 0.48930 -2.57700
H 	H 	0.71670 0.77120 0.47240 -8.77100
C 	C 	0.75969 0.79197 0.49600 0.39300
C 	C 	0.78639 0.75411 0.53820 -8.38600
H 	H 	0.80430 0.74970 0.55500 3.27200
C 	C 	0.76126 0.72896 0.53150 18.88700
C 	C 	0.85440 0.89554 0.53100 0.48100
H 	H 	0.83210 0.90170 0.52140 -0.12900
C 	C 	0.87980 0.92092 0.53540 -0.48600
H 	H 	0.87510 0.94460 0.52890 0.18600
C 	C 	0.91880 0.87780 0.55870 -0.31900
H 	H 	0.94100 0.87160 0.56830 -0.00500
C 	C 	0.89340 0.85242 0.55430 -0.04700
H 	H 	0.89800 0.82880 0.56090 -0.00000
C 	C 	0.96941 0.92181 0.54910 0.12000
C 	C 	0.98238 0.88908 0.55090 0.02500
C 	C 	0.95924 0.85857 0.55880 -0.49100
H 	H 	0.96170 0.85420 0.58330 0.16100
H 	H 	0.93550 0.86530 0.55490 0.43200
C 	C 	0.97020 0.82230 0.54870 0.02100
H 	H 	0.95400 0.80540 0.55880 -0.01200
H 	H 	0.96990 0.82010 0.52330 0.01500
H 	H 	0.99370 0.81780 0.55730 0.00400
C 	C 	0.75880 0.82616 0.47670 2.96400
H 	H 	0.77790 0.84050 0.48420 -0.86400
H 	H 	0.73730 0.83780 0.48140 -0.72900
H 	H 	0.76080 0.82180 0.45220 -1.56800
C 	C 	0.76210 0.69478 0.55080 -7.67900
H 	H 	0.78150 0.69460 0.56650 2.22500
H 	H 	0.76440 0.67600 0.53450 2.77800
H 	H 	0.74090 0.69200 0.56380 1.50100
C 	C 	0.26544 0.23318 0.48930 -2.57500
H 	H 	0.28330 0.22880 0.47240 -8.76600
C 	C 	0.24031 0.20803 0.49600 0.39300
C 	C 	0.21361 0.24589 0.53820 -8.38200
H 	H 	0.19570 0.25030 0.55500 3.27000
C 	C 	0.23874 0.27104 0.53150 18.87800
C 	C 	0.14560 0.10446 0.53100 0.48400
H 	H 	0.16790 0.09830 0.52140 -0.13000
C 	C 	0.12020 0.07908 0.53540 -0.48800
H 	H 	0.12490 0.05540 0.52890 0.18700
C 	C 	0.08120 0.12220 0.55870 -0.31900
H 	H 	0.05900 0.12840 0.56830 -0.00500
C 	C 	0.10660 0.14758 0.55430 -0.04800
H 	H 	0.10200 0.17120 0.56090 0.00000
C 	C 	0.03059 0.07819 0.54910 0.12000
C 	C 	0.01762 0.11092 0.55090 0.03000
C 	C 	0.04076 0.14143 0.55880 -0.49600
H 	H 	0.03830 0.14580 0.58330 0.16200
H 	H 	0.06450 0.13470 0.55490 0.43400
C 	C 	0.02980 0.17770 0.54870 0.02500
H 	H 	0.04600 0.19460 0.55880 -0.01300
H 	H 	0.03010 0.17990 0.52330 0.01400
H 	H 	0.00630 0.18220 0.55730 0.00300
C 	C 	0.24120 0.17384 0.47670 2.96200
H 	H 	0.22210 0.15950 0.48420 -0.86300
H 	H 	0.26270 0.16220 0.48140 -0.72900
H 	H 	0.23920 0.17820 0.45220 -1.56700
C 	C 	0.23790 0.30522 0.55080 -7.67600
H 	H 	0.21850 0.30540 0.56650 2.22500
H 	H 	0.23560 0.32400 0.53450 2.77700
H 	H 	0.25910 0.30800 0.56380 1.50000
C 	C 	0.73456 0.23318 0.51070 -2.57600
H 	H 	0.71670 0.22880 0.52760 -8.76800
C 	C 	0.75969 0.20803 0.50400 0.39300
C 	C 	0.78639 0.24589 0.46180 -8.38400
H 	H 	0.80430 0.25030 0.44500 3.27100
C 	C 	0.76126 0.27104 0.46850 18.88200
C 	C 	0.85440 0.10446 0.46900 0.48300
H 	H 	0.83210 0.09830 0.47860 -0.13000
C 	C 	0.87980 0.07908 0.46460 -0.48800
H 	H 	0.87510 0.05540 0.47110 0.18700
C 	C 	0.91880 0.12220 0.44130 -0.31900
H 	H 	0.94100 0.12840 0.43170 -0.00500
C 	C 	0.89340 0.14758 0.44570 -0.04700
H 	H 	0.89800 0.17120 0.43910 -0.00000
C 	C 	0.96941 0.07819 0.45090 0.12100
C 	C 	0.98238 0.11092 0.44910 0.02500
C 	C 	0.95924 0.14143 0.44120 -0.49100
H 	H 	0.96170 0.14580 0.41670 0.16100
H 	H 	0.93550 0.13470 0.44510 0.43200
C 	C 	0.97020 0.17770 0.45130 0.02100
H 	H 	0.95400 0.19460 0.44120 -0.01200
H 	H 	0.96990 0.17990 0.47670 0.01500
H 	H 	0.99370 0.18220 0.44270 0.00400
C 	C 	0.75880 0.17384 0.52330 2.96300
H 	H 	0.77790 0.15950 0.51580 -0.86300
H 	H 	0.73730 0.16220 0.51860 -0.72900
H 	H 	0.76080 0.17820 0.54780 -1.56700
C 	C 	0.76210 0.30522 0.44920 -7.67800
H 	H 	0.78150 0.30540 0.43350 2.22500
H 	H 	0.76440 0.32400 0.46550 2.77800
H 	H 	0.74090 0.30800 0.43620 1.50100
C 	C 	0.26544 0.76682 0.51070 -2.57600
H 	H 	0.28330 0.77120 0.52760 -8.76800
C 	C 	0.24031 0.79197 0.50400 0.39300
C 	C 	0.21361 0.75411 0.46180 -8.38400
H 	H 	0.19570 0.74970 0.44500 3.27100
C 	C 	0.23874 0.72896 0.46850 18.88200
C 	C 	0.14560 0.89554 0.46900 0.48100
H 	H 	0.16790 0.90170 0.47860 -0.12900
C 	C 	0.12020 0.92092 0.46460 -0.48700
H 	H 	0.12490 0.94460 0.47110 0.18600
C 	C 	0.08120 0.87780 0.44130 -0.31900
H 	H 	0.05900 0.87160 0.43170 -0.00500
C 	C 	0.10660 0.85242 0.44570 -0.04800
H 	H 	0.10200 0.82880 0.43910 0.00000
C 	C 	0.03059 0.92181 0.45090 0.12000
C 	C 	0.01762 0.88908 0.44910 0.03000
C 	C 	0.04076 0.85857 0.44120 -0.49600
H 	H 	0.03830 0.85420 0.41670 0.16200
H 	H 	0.06450 0.86530 0.44510 0.43400
C 	C 	0.02980 0.82230 0.45130 0.02500
H 	H 	0.04600 0.80540 0.44120 -0.01300
H 	H 	0.03010 0.82010 0.47670 0.01400
H 	H 	0.00630 0.81780 0.44270 0.00300
C 	C 	0.24120 0.82616 0.52330 2.96300
H 	H 	0.22210 0.84050 0.51580 -0.86300
H 	H 	0.26270 0.83780 0.51860 -0.72900
H 	H 	0.23920 0.82180 0.54780 -1.56800
C 	C 	0.23790 0.69478 0.44920 -7.67800
H 	H 	0.21850 0.69460 0.43350 2.22500
H 	H 	0.23560 0.67600 0.46550 2.77800
H 	H 	0.25910 0.69200 0.43620 1.50100
C 	C 	0.76682 0.51070 0.26544 -2.57600
H 	H 	0.77120 0.52760 0.28330 -8.76800
C 	C 	0.79197 0.50400 0.24031 0.39300
C 	C 	0.75411 0.46180 0.21361 -8.38400
H 	H 	0.74970 0.44500 0.19570 3.27100
C 	C 	0.72896 0.46850 0.23874 18.88200
C 	C 	0.89554 0.46900 0.14560 0.48100
H 	H 	0.90170 0.47860 0.16790 -0.12900
C 	C 	0.92092 0.46460 0.12020 -0.48700
H 	H 	0.94460 0.47110 0.12490 0.18600
C 	C 	0.87780 0.44130 0.08120 -0.31900
H 	H 	0.87160 0.43170 0.05900 -0.00500
C 	C 	0.85242 0.44570 0.10660 -0.04800
H 	H 	0.82880 0.43910 0.10200 0.00000
C 	C 	0.92181 0.45090 0.03059 0.12000
C 	C 	0.88908 0.44910 0.01762 0.03000
C 	C 	0.85857 0.44120 0.04076 -0.49600
H 	H 	0.85420 0.41670 0.03830 0.16200
H 	H 	0.86530 0.44510 0.06450 0.43400
C 	C 	0.82230 0.45130 0.02980 0.02500
H 	H 	0.80540 0.44120 0.04600 -0.01300
H 	H 	0.82010 0.47670 0.03010 0.01400
H 	H 	0.81780 0.44270 0.00630 0.00300
C 	C 	0.82616 0.52330 0.24120 2.96300
H 	H 	0.84050 0.51580 0.22210 -0.86300
H 	H 	0.83780 0.51860 0.26270 -0.72900
H 	H 	0.82180 0.54780 0.23920 -1.56800
C 	C 	0.69478 0.44920 0.23790 -7.67800
H 	H 	0.69460 0.43350 0.21850 2.22500
H 	H 	0.67600 0.46550 0.23560 2.77800
H 	H 	0.69200 0.43620 0.25910 1.50100
C 	C 	0.23318 0.51070 0.73456 -2.57600
H 	H 	0.22880 0.52760 0.71670 -8.76800
C 	C 	0.20803 0.50400 0.75969 0.39300
C 	C 	0.24589 0.46180 0.78639 -8.38400
H 	H 	0.25030 0.44500 0.80430 3.27100
C 	C 	0.27104 0.46850 0.76126 18.88200
C 	C 	0.10446 0.46900 0.85440 0.48300
H 	H 	0.09830 0.47860 0.83210 -0.13000
C 	C 	0.07908 0.46460 0.87980 -0.48800
H 	H 	0.05540 0.47110 0.87510 0.18700
C 	C 	0.12220 0.44130 0.91880 -0.31900
H 	H 	0.12840 0.43170 0.94100 -0.00500
C 	C 	0.14758 0.44570 0.89340 -0.04700
H 	H 	0.17120 0.43910 0.89800 -0.00000
C 	C 	0.07819 0.45090 0.96941 0.12100
C 	C 	0.11092 0.44910 0.98238 0.02500
C 	C 	0.14143 0.44120 0.95924 -0.49100
H 	H 	0.14580 0.41670 0.96170 0.16100
H 	H 	0.13470 0.44510 0.93550 0.43200
C 	C 	0.17770 0.45130 0.97020 0.02100
H 	H 	0.19460 0.44120 0.95400 -0.01200
H 	H 	0.17990 0.47670 0.96990 0.01500
H 	H 	0.18220 0.44270 0.99370 0.00400
C 	C 	0.17384 0.52330 0.75880 2.96300
H 	H 	0.15950 0.51580 0.77790 -0.86300
H 	H 	0.16220 0.51860 0.73730 -0.72900
H 	H 	0.17820 0.54780 0.76080 -1.56700
C 	C 	0.30522 0.44920 0.76210 -7.67800
H 	H 	0.30540 0.43350 0.78150 2.22500
H 	H 	0.32400 0.46550 0.76440 2.77800
H 	H 	0.30800 0.43620 0.74090 1.50100
C 	C 	0.23318 0.48930 0.26544 -2.57500
H 	H 	0.22880 0.47240 0.28330 -8.76600
C 	C 	0.20803 0.49600 0.24031 0.39300
C 	C 	0.24589 0.53820 0.21361 -8.38200
H 	H 	0.25030 0.55500 0.19570 3.27000
C 	C 	0.27104 0.53150 0.23874 18.87800
C 	C 	0.10446 0.53100 0.14560 0.48400
H 	H 	0.09830 0.52140 0.16790 -0.13000
C 	C 	0.07908 0.53540 0.12020 -0.48800
H 	H 	0.05540 0.52890 0.12490 0.18700
C 	C 	0.12220 0.55870 0.08120 -0.31900
H 	H 	0.12840 0.56830 0.05900 -0.00500
C 	C 	0.14758 0.55430 0.10660 -0.04800
H 	H 	0.17120 0.56090 0.10200 0.00000
C 	C 	0.07819 0.54910 0.03059 0.12000
C 	C 	0.11092 0.55090 0.01762 0.03000
C 	C 	0.14143 0.55880 0.04076 -0.49600
H 	H 	0.14580 0.58330 0.03830 0.16200
H 	H 	0.13470 0.55490 0.06450 0.43400
C 	C 	0.17770 0.54870 0.02980 0.02500
H 	H 	0.19460 0.55880 0.04600 -0.01300
H 	H 	0.17990 0.52330 0.03010 0.01400
H 	H 	0.18220 0.55730 0.00630 0.00300
C 	C 	0.17384 0.47670 0.24120 2.96200
H 	H 	0.15950 0.48420 0.22210 -0.86300
H 	H 	0.16220 0.48140 0.26270 -0.72900
H 	H 	0.17820 0.45220 0.23920 -1.56700
C 	C 	0.30522 0.55080 0.23790 -7.67600
H 	H 	0.30540 0.56650 0.21850 2.22500
H 	H 	0.32400 0.53450 0.23560 2.77700
H 	H 	0.30800 0.56380 0.25910 1.50000
C 	C 	0.76682 0.48930 0.73456 -2.57700
H 	H 	0.77120 0.47240 0.71670 -8.77100
C 	C 	0.79197 0.49600 0.75969 0.39300
C 	C 	0.75411 0.53820 0.78639 -8.38600
H 	H 	0.74970 0.55500 0.80430 3.27200
C 	C 	0.72896 0.53150 0.76126 18.88700
C 	C 	0.89554 0.53100 0.85440 0.48100
H 	H 	0.90170 0.52140 0.83210 -0.12900
C 	C 	0.92092 0.53540 0.87980 -0.48600
H 	H 	0.94460 0.52890 0.87510 0.18600
C 	C 	0.87780 0.55870 0.91880 -0.31900
H 	H 	0.87160 0.56830 0.94100 -0.00500
C 	C 	0.85242 0.55430 0.89340 -0.04700
H 	H 	0.82880 0.56090 0.89800 -0.00000
C 	C 	0.92181 0.54910 0.96941 0.12000
C 	C 	0.88908 0.55090 0.98238 0.02500
C 	C 	0.85857 0.55880 0.95924 -0.49100
H 	H 	0.85420 0.58330 0.96170 0.16100
H 	H 	0.86530 0.55490 0.93550 0.43200
C 	C 	0.82230 0.54870 0.97020 0.02100
H 	H 	0.80540 0.55880 0.95400 -0.01200
H 	H 	0.82010 0.52330 0.96990 0.01500
H 	H 	0.81780 0.55730 0.99370 0.00400
C 	C 	0.82616 0.47670 0.75880 2.96400
H 	H 	0.84050 0.48420 0.77790 -0.86400
H 	H 	0.83780 0.48140 0.73730 -0.72900
H 	H 	0.82180 0.45220 0.76080 -1.56800
C 	C 	0.69478 0.55080 0.76210 -7.67900
H 	H 	0.69460 0.56650 0.78150 2.22500
H 	H 	0.67600 0.53450 0.76440 2.77800
H 	H 	0.69200 0.56380 0.74090 1.50100
C 	C 	0.51070 0.73456 0.23318 -2.57600
H 	H 	0.52760 0.71670 0.22880 -8.76800
C 	C 	0.50400 0.75969 0.20803 0.39300
C 	C 	0.46180 0.78639 0.24589 -8.38400
H 	H 	0.44500 0.80430 0.25030 3.27100
C 	C 	0.46850 0.76126 0.27104 18.88200
C 	C 	0.46900 0.85440 0.10446 0.48300
H 	H 	0.47860 0.83210 0.09830 -0.13000
C 	C 	0.46460 0.87980 0.07908 -0.48800
H 	H 	0.47110 0.87510 0.05540 0.18700
C 	C 	0.44130 0.91880 0.12220 -0.31900
H 	H 	0.43170 0.94100 0.12840 -0.00500
C 	C 	0.44570 0.89340 0.14758 -0.04700
H 	H 	0.43910 0.89800 0.17120 -0.00000
C 	C 	0.45090 0.96941 0.07819 0.12100
C 	C 	0.44910 0.98238 0.11092 0.02500
C 	C 	0.44120 0.95924 0.14143 -0.49100
H 	H 	0.41670 0.96170 0.14580 0.16100
H 	H 	0.44510 0.93550 0.13470 0.43200
C 	C 	0.45130 0.97020 0.17770 0.02100
H 	H 	0.44120 0.95400 0.19460 -0.01200
H 	H 	0.47670 0.96990 0.17990 0.01500
H 	H 	0.44270 0.99370 0.18220 0.00400
C 	C 	0.52330 0.75880 0.17384 2.96300
H 	H 	0.51580 0.77790 0.15950 -0.86300
H 	H 	0.51860 0.73730 0.16220 -0.72900
H 	H 	0.54780 0.76080 0.17820 -1.56700
C 	C 	0.44920 0.76210 0.30522 -7.67800
H 	H 	0.43350 0.78150 0.30540 2.22500
H 	H 	0.46550 0.76440 0.32400 2.77800
H 	H 	0.43620 0.74090 0.30800 1.50100
C 	C 	0.51070 0.26544 0.76682 -2.57600
H 	H 	0.52760 0.28330 0.77120 -8.76800
C 	C 	0.50400 0.24031 0.79197 0.39300
C 	C 	0.46180 0.21361 0.75411 -8.38400
H 	H 	0.44500 0.19570 0.74970 3.27100
C 	C 	0.46850 0.23874 0.72896 18.88200
C 	C 	0.46900 0.14560 0.89554 0.48100
H 	H 	0.47860 0.16790 0.90170 -0.12900
C 	C 	0.46460 0.12020 0.92092 -0.48700
H 	H 	0.47110 0.12490 0.94460 0.18600
C 	C 	0.44130 0.08120 0.87780 -0.31900
H 	H 	0.43170 0.05900 0.87160 -0.00500
C 	C 	0.44570 0.10660 0.85242 -0.04800
H 	H 	0.43910 0.10200 0.82880 0.00000
C 	C 	0.45090 0.03059 0.92181 0.12000
C 	C 	0.44910 0.01762 0.88908 0.03000
C 	C 	0.44120 0.04076 0.85857 -0.49600
H 	H 	0.41670 0.03830 0.85420 0.16200
H 	H 	0.44510 0.06450 0.86530 0.43400
C 	C 	0.45130 0.02980 0.82230 0.02500
H 	H 	0.44120 0.04600 0.80540 -0.01300
H 	H 	0.47670 0.03010 0.82010 0.01400
H 	H 	0.44270 0.00630 0.81780 0.00300
C 	C 	0.52330 0.24120 0.82616 2.96300
H 	H 	0.51580 0.22210 0.84050 -0.86300
H 	H 	0.51860 0.26270 0.83780 -0.72900
H 	H 	0.54780 0.23920 0.82180 -1.56800
C 	C 	0.44920 0.23790 0.69478 -7.67800
H 	H 	0.43350 0.21850 0.69460 2.22500
H 	H 	0.46550 0.23560 0.67600 2.77800
H 	H 	0.43620 0.25910 0.69200 1.50100
C 	C 	0.48930 0.73456 0.76682 -2.57700
H 	H 	0.47240 0.71670 0.77120 -8.77100
C 	C 	0.49600 0.75969 0.79197 0.39300
C 	C 	0.53820 0.78639 0.75411 -8.38600
H 	H 	0.55500 0.80430 0.74970 3.27200
C 	C 	0.53150 0.76126 0.72896 18.88700
C 	C 	0.53100 0.85440 0.89554 0.48100
H 	H 	0.52140 0.83210 0.90170 -0.12900
C 	C 	0.53540 0.87980 0.92092 -0.48600
H 	H 	0.52890 0.87510 0.94460 0.18600
C 	C 	0.55870 0.91880 0.87780 -0.31900
H 	H 	0.56830 0.94100 0.87160 -0.00500
C 	C 	0.55430 0.89340 0.85242 -0.04700
H 	H 	0.56090 0.89800 0.82880 -0.00000
C 	C 	0.54910 0.96941 0.92181 0.12000
C 	C 	0.55090 0.98238 0.88908 0.02500
C 	C 	0.55880 0.95924 0.85857 -0.49100
H 	H 	0.58330 0.96170 0.85420 0.16100
H 	H 	0.55490 0.93550 0.86530 0.43200
C 	C 	0.54870 0.97020 0.82230 0.02100
H 	H 	0.55880 0.95400 0.80540 -0.01200
H 	H 	0.52330 0.96990 0.82010 0.01500
H 	H 	0.55730 0.99370 0.81780 0.00400
C 	C 	0.47670 0.75880 0.82616 2.96400
H 	H 	0.48420 0.77790 0.84050 -0.86400
H 	H 	0.48140 0.73730 0.83780 -0.72900
H 	H 	0.45220 0.76080 0.82180 -1.56800
C 	C 	0.55080 0.76210 0.69478 -7.67900
H 	H 	0.56650 0.78150 0.69460 2.22500
H 	H 	0.53450 0.76440 0.67600 2.77800
H 	H 	0.56380 0.74090 0.69200 1.50100
C 	C 	0.48930 0.26544 0.23318 -2.57500
H 	H 	0.47240 0.28330 0.22880 -8.76600
C 	C 	0.49600 0.24031 0.20803 0.39300
C 	C 	0.53820 0.21361 0.24589 -8.38200
H 	H 	0.55500 0.19570 0.25030 3.27000
C 	C 	0.53150 0.23874 0.27104 18.87800
C 	C 	0.53100 0.14560 0.10446 0.48400
H 	H 	0.52140 0.16790 0.09830 -0.13000
C 	C 	0.53540 0.12020 0.07908 -0.48800
H 	H 	0.52890 0.12490 0.05540 0.18700
C 	C 	0.55870 0.08120 0.12220 -0.31900
H 	H 	0.56830 0.05900 0.12840 -0.00500
C 	C 	0.55430 0.10660 0.14758 -0.04800
H 	H 	0.56090 0.10200 0.17120 0.00000
C 	C 	0.54910 0.03059 0.07819 0.12000
C 	C 	0.55090 0.01762 0.11092 0.03000
C 	C 	0.55880 0.04076 0.14143 -0.49600
H 	H 	0.58330 0.03830 0.14580 0.16200
H 	H 	0.55490 0.06450 0.13470 0.43400
C 	C 	0.54870 0.02980 0.17770 0.02500
H 	H 	0.55880 0.04600 0.19460 -0.01300
H 	H 	0.52330 0.03010 0.17990 0.01400
H 	H 	0.55730 0.00630 0.18220 0.00300
C 	C 	0.47670 0.24120 0.17384 2.96200
H 	H 	0.48420 0.22210 0.15950 -0.86300
H 	H 	0.48140 0.26270 0.16220 -0.72900
H 	H 	0.45220 0.23920 0.17820 -1.56700
C 	C 	0.55080 0.23790 0.30522 -7.67600
H 	H 	0.56650 0.21850 0.30540 2.22500
H 	H 	0.53450 0.23560 0.32400 2.77700
H 	H 	0.56380 0.25910 0.30800 1.50000
Zr	Zr	0.43556 0.50000 0.50000 3.21700
Zr	Zr	0.56444 0.50000 0.50000 3.21700
Zr	Zr	0.50000 0.43556 0.50000 3.21700
Zr	Zr	0.50000 0.56444 0.50000 3.21700
Zr	Zr	0.50000 0.50000 0.43556 3.21700
Zr	Zr	0.50000 0.50000 0.56444 3.21700
O 	O 	0.46842 0.46842 0.46842 -1.25500
O 	O 	0.53158 0.53158 0.46842 -1.25500
O 	O 	0.53158 0.46842 0.53158 -1.25500
O 	O 	0.46842 0.53158 0.53158 -1.25500
O 	O 	0.46842 0.46842 0.53158 -1.25500
O 	O 	0.53158 0.53158 0.53158 -1.25500
O 	O 	0.46842 0.53158 0.46842 -1.25500
O 	O 	0.53158 0.46842 0.46842 -1.25500
O 	O 	0.40712 0.44995 0.50000 -0.69900
C 	C 	0.35767 0.40212 0.50000 0.52400
H 	H 	0.35130 0.42600 0.50000 -0.17600
C 	C 	0.33206 0.37651 0.50000 -0.94000
H 	H 	0.30820 0.38280 0.50000 0.22000
O 	O 	0.59288 0.55005 0.50000 -0.69900
C 	C 	0.64233 0.59788 0.50000 0.52400
H 	H 	0.64870 0.57400 0.50000 -0.17600
C 	C 	0.66794 0.62349 0.50000 -0.94100
H 	H 	0.69180 0.61720 0.50000 0.22100
O 	O 	0.59288 0.44995 0.50000 -0.69900
C 	C 	0.64233 0.40212 0.50000 0.52400
H 	H 	0.64870 0.42600 0.50000 -0.17600
C 	C 	0.66794 0.37651 0.50000 -0.94100
H 	H 	0.69180 0.38280 0.50000 0.22000
O 	O 	0.40712 0.55005 0.50000 -0.69900
C 	C 	0.35767 0.59788 0.50000 0.52400
H 	H 	0.35130 0.57400 0.50000 -0.17600
C 	C 	0.33206 0.62349 0.50000 -0.94100
H 	H 	0.30820 0.61720 0.50000 0.22100
O 	O 	0.50000 0.40712 0.44995 -0.69900
C 	C 	0.50000 0.35767 0.40212 0.52400
H 	H 	0.50000 0.35130 0.42600 -0.17600
C 	C 	0.50000 0.33206 0.37651 -0.94000
H 	H 	0.50000 0.30820 0.38280 0.22000
O 	O 	0.50000 0.59288 0.55005 -0.69900
C 	C 	0.50000 0.64233 0.59788 0.52400
H 	H 	0.50000 0.64870 0.57400 -0.17600
C 	C 	0.50000 0.66794 0.62349 -0.94100
H 	H 	0.50000 0.69180 0.61720 0.22100
O 	O 	0.50000 0.59288 0.44995 -0.69900
C 	C 	0.50000 0.64233 0.40212 0.52400
H 	H 	0.50000 0.64870 0.42600 -0.17600
C 	C 	0.50000 0.66794 0.37651 -0.94100
H 	H 	0.50000 0.69180 0.38280 0.22000
O 	O 	0.50000 0.40712 0.55005 -0.69900
C 	C 	0.50000 0.35767 0.59788 0.52400
H 	H 	0.50000 0.35130 0.57400 -0.17600
C 	C 	0.50000 0.33206 0.62349 -0.94100
H 	H 	0.50000 0.30820 0.61720 0.22100
O 	O 	0.44995 0.50000 0.40712 -0.69900
C 	C 	0.40212 0.50000 0.35767 0.52400
H 	H 	0.42600 0.50000 0.35130 -0.17600
C 	C 	0.37651 0.50000 0.33206 -0.94000
H 	H 	0.38280 0.50000 0.30820 0.22000
O 	O 	0.55005 0.50000 0.59288 -0.69900
C 	C 	0.59788 0.50000 0.64233 0.52400
H 	H 	0.57400 0.50000 0.64870 -0.17600
C 	C 	0.62349 0.50000 0.66794 -0.94100
H 	H 	0.61720 0.50000 0.69180 0.22100
O 	O 	0.44995 0.50000 0.59288 -0.69900
C 	C 	0.40212 0.50000 0.64233 0.52400
H 	H 	0.42600 0.50000 0.64870 -0.17600
C 	C 	0.37651 0.50000 0.66794 -0.94100
H 	H 	0.38280 0.50000 0.69180 0.22000
O 	O 	0.55005 0.50000 0.40712 -0.69900
C 	C 	0.59788 0.50000 0.35767 0.52400
H 	H 	0.57400 0.50000 0.35130 -0.17600
C 	C 	0.62349 0.50000 0.33206 -0.94100
H 	H 	0.61720 0.50000 0.30820 0.22100
O 	O 	0.44995 0.40712 0.50000 -0.69900
C 	C 	0.40212 0.35767 0.50000 0.52400
H 	H 	0.42600 0.35130 0.50000 -0.17600
C 	C 	0.37651 0.33206 0.50000 -0.94000
H 	H 	0.38280 0.30820 0.50000 0.22000
O 	O 	0.55005 0.59288 0.50000 -0.69900
C 	C 	0.59788 0.64233 0.50000 0.52400
H 	H 	0.57400 0.64870 0.50000 -0.17600
C 	C 	0.62349 0.66794 0.50000 -0.94100
H 	H 	0.61720 0.69180 0.50000 0.22100
O 	O 	0.44995 0.59288 0.50000 -0.69900
C 	C 	0.40212 0.64233 0.50000 0.52400
H 	H 	0.42600 0.64870 0.50000 -0.17600
C 	C 	0.37651 0.66794 0.50000 -0.94100
H 	H 	0.38280 0.69180 0.50000 0.22000
O 	O 	0.55005 0.40712 0.50000 -0.69900
C 	C 	0.59788 0.35767 0.50000 0.52400
H 	H 	0.57400 0.35130 0.50000 -0.17600
C 	C 	0.62349 0.33206 0.50000 -0.94100
H 	H 	0.61720 0.30820 0.50000 0.22100
O 	O 	0.40712 0.50000 0.55005 -0.69900
C 	C 	0.35767 0.50000 0.59788 0.52400
H 	H 	0.35130 0.50000 0.57400 -0.17600
C 	C 	0.33206 0.50000 0.62349 -0.94100
H 	H 	0.30820 0.50000 0.61720 0.22100
O 	O 	0.59288 0.50000 0.44995 -0.69900
C 	C 	0.64233 0.50000 0.40212 0.52400
H 	H 	0.64870 0.50000 0.42600 -0.17600
C 	C 	0.66794 0.50000 0.37651 -0.94100
H 	H 	0.69180 0.50000 0.38280 0.22000
O 	O 	0.59288 0.50000 0.55005 -0.69900
C 	C 	0.64233 0.50000 0.59788 0.52400
H 	H 	0.64870 0.50000 0.57400 -0.17600
C 	C 	0.66794 0.50000 0.62349 -0.94100
H 	H 	0.69180 0.50000 0.61720 0.22100
O 	O 	0.40712 0.50000 0.44995 -0.69900
C 	C 	0.35767 0.50000 0.40212 0.52400
H 	H 	0.35130 0.50000 0.42600 -0.17600
C 	C 	0.33206 0.50000 0.37651 -0.94000
H 	H 	0.30820 0.50000 0.38280 0.22000
O 	O 	0.50000 0.44995 0.59288 -0.69900
C 	C 	0.50000 0.40212 0.64233 0.52400
H 	H 	0.50000 0.42600 0.64870 -0.17600
C 	C 	0.50000 0.37651 0.66794 -0.94100
H 	H 	0.50000 0.38280 0.69180 0.22000
O 	O 	0.50000 0.55005 0.40712 -0.69900
C 	C 	0.50000 0.59788 0.35767 0.52400
H 	H 	0.50000 0.57400 0.35130 -0.17600
C 	C 	0.50000 0.62349 0.33206 -0.94100
H 	H 	0.50000 0.61720 0.30820 0.22100
O 	O 	0.50000 0.44995 0.40712 -0.69900
C 	C 	0.50000 0.40212 0.35767 0.52400
H 	H 	0.50000 0.42600 0.35130 -0.17600
C 	C 	0.50000 0.37651 0.33206 -0.94000
H 	H 	0.50000 0.38280 0.30820 0.22000
O 	O 	0.50000 0.55005 0.59288 -0.69900
C 	C 	0.50000 0.59788 0.64233 0.52400
H 	H 	0.50000 0.57400 0.64870 -0.17600
C 	C 	0.50000 0.62349 0.66794 -0.94100
H 	H 	0.50000 0.61720 0.69180 0.22100
C 	C 	0.41996 0.41996 0.50000 0.63500
C 	C 	0.39260 0.39260 0.50000 -0.54700
C 	C 	0.34159 0.34159 0.50000 1.13500
C 	C 	0.31411 0.31411 0.50000 -2.51600
C 	C 	0.29170 0.29170 0.50000 3.20300
C 	C 	0.58004 0.58004 0.50000 0.63500
C 	C 	0.60740 0.60740 0.50000 -0.54700
C 	C 	0.65841 0.65841 0.50000 1.13600
C 	C 	0.68589 0.68589 0.50000 -2.51700
C 	C 	0.70830 0.70830 0.50000 3.20500
C 	C 	0.58004 0.41996 0.50000 0.63500
C 	C 	0.60740 0.39260 0.50000 -0.54700
C 	C 	0.65841 0.34159 0.50000 1.13500
C 	C 	0.68589 0.31411 0.50000 -2.51600
C 	C 	0.70830 0.29170 0.50000 3.20400
C 	C 	0.41996 0.58004 0.50000 0.63500
C 	C 	0.39260 0.60740 0.50000 -0.54700
C 	C 	0.34159 0.65841 0.50000 1.13500
C 	C 	0.31411 0.68589 0.50000 -2.51600
C 	C 	0.29170 0.70830 0.50000 3.20400
C 	C 	0.50000 0.41996 0.41996 0.63500
C 	C 	0.50000 0.39260 0.39260 -0.54700
C 	C 	0.50000 0.34159 0.34159 1.13500
C 	C 	0.50000 0.31411 0.31411 -2.51600
C 	C 	0.50000 0.29170 0.29170 3.20300
C 	C 	0.50000 0.58004 0.58004 0.63500
C 	C 	0.50000 0.60740 0.60740 -0.54700
C 	C 	0.50000 0.65841 0.65841 1.13600
C 	C 	0.50000 0.68589 0.68589 -2.51700
C 	C 	0.50000 0.70830 0.70830 3.20500
C 	C 	0.50000 0.58004 0.41996 0.63500
C 	C 	0.50000 0.60740 0.39260 -0.54700
C 	C 	0.50000 0.65841 0.34159 1.13500
C 	C 	0.50000 0.68589 0.31411 -2.51600
C 	C 	0.50000 0.70830 0.29170 3.20400
C 	C 	0.50000 0.41996 0.58004 0.63500
C 	C 	0.50000 0.39260 0.60740 -0.54700
C 	C 	0.50000 0.34159 0.65841 1.13500
C 	C 	0.50000 0.31411 0.68589 -2.51600
C 	C 	0.50000 0.29170 0.70830 3.20400
C 	C 	0.41996 0.50000 0.41996 0.63500
C 	C 	0.39260 0.50000 0.39260 -0.54700
C 	C 	0.34159 0.50000 0.34159 1.13500
C 	C 	0.31411 0.50000 0.31411 -2.51600
C 	C 	0.29170 0.50000 0.29170 3.20300
C 	C 	0.58004 0.50000 0.58004 0.63500
C 	C 	0.60740 0.50000 0.60740 -0.54700
C 	C 	0.65841 0.50000 0.65841 1.13600
C 	C 	0.68589 0.50000 0.68589 -2.51700
C 	C 	0.70830 0.50000 0.70830 3.20500
C 	C 	0.41996 0.50000 0.58004 0.63500
C 	C 	0.39260 0.50000 0.60740 -0.54700
C 	C 	0.34159 0.50000 0.65841 1.13500
C 	C 	0.31411 0.50000 0.68589 -2.51600
C 	C 	0.29170 0.50000 0.70830 3.20400
C 	C 	0.58004 0.50000 0.41996 0.63500
C 	C 	0.60740 0.50000 0.39260 -0.54700
C 	C 	0.65841 0.50000 0.34159 1.13500
C 	C 	0.68589 0.50000 0.31411 -2.51600
C 	C 	0.70830 0.50000 0.29170 3.20400
C 	C 	0.26469 0.26469 0.50709 -6.14000
C 	C 	0.21438 0.21438 0.52040 4.01600
C 	C 	0.18756 0.18756 0.52760 -1.60400
C 	C 	0.16608 0.16608 0.53560 1.05000
C 	C 	0.13871 0.13871 0.54040 -0.61100
C 	C 	0.08796 0.08796 0.54930 0.63500
C 	C 	0.06402 0.06402 0.55340 -0.33200
C 	C 	0.73531 0.73531 0.50709 -6.14300
C 	C 	0.78562 0.78562 0.52040 4.01900
C 	C 	0.81244 0.81244 0.52760 -1.60400
C 	C 	0.83392 0.83392 0.53560 1.05100
C 	C 	0.86129 0.86129 0.54040 -0.61100
C 	C 	0.91204 0.91204 0.54930 0.63300
C 	C 	0.93598 0.93598 0.55340 -0.33200
C 	C 	0.73531 0.26469 0.49291 -6.14100
C 	C 	0.78562 0.21438 0.47960 4.01700
C 	C 	0.81244 0.18756 0.47240 -1.60400
C 	C 	0.83392 0.16608 0.46440 1.05100
C 	C 	0.86129 0.13871 0.45960 -0.61100
C 	C 	0.91204 0.08796 0.45070 0.63400
C 	C 	0.93598 0.06402 0.44660 -0.33200
C 	C 	0.26469 0.73531 0.49291 -6.14100
C 	C 	0.21438 0.78562 0.47960 4.01700
C 	C 	0.18756 0.81244 0.47240 -1.60400
C 	C 	0.16608 0.83392 0.46440 1.05100
C 	C 	0.13871 0.86129 0.45960 -0.61100
C 	C 	0.08796 0.91204 0.45070 0.63400
C 	C 	0.06402 0.93598 0.44660 -0.33200
C 	C 	0.50709 0.26469 0.26469 -6.14000
C 	C 	0.52040 0.21438 0.21438 4.01600
C 	C 	0.52760 0.18756 0.18756 -1.60400
C 	C 	0.53560 0.16608 0.16608 1.05000
C 	C 	0.54040 0.13871 0.13871 -0.61100
C 	C 	0.54930 0.08796 0.08796 0.63500
C 	C 	0.55340 0.06402 0.06402 -0.33200
C 	C 	0.50709 0.73531 0.73531 -6.14300
C 	C 	0.52040 0.78562 0.78562 4.01900
C 	C 	0.52760 0.81244 0.81244 -1.60400
C 	C 	0.53560 0.83392 0.83392 1.05100
C 	C 	0.54040 0.86129 0.86129 -0.61100
C 	C 	0.54930 0.91204 0.91204 0.63300
C 	C 	0.55340 0.93598 0.93598 -0.33200
C 	C 	0.49291 0.73531 0.26469 -6.14100
C 	C 	0.47960 0.78562 0.21438 4.01700
C 	C 	0.47240 0.81244 0.18756 -1.60400
C 	C 	0.46440 0.83392 0.16608 1.05100
C 	C 	0.45960 0.86129 0.13871 -0.61100
C 	C 	0.45070 0.91204 0.08796 0.63400
C 	C 	0.44660 0.93598 0.06402 -0.33200
C 	C 	0.49291 0.26469 0.73531 -6.14100
C 	C 	0.47960 0.21438 0.78562 4.01700
C 	C 	0.47240 0.18756 0.81244 -1.60400
C 	C 	0.46440 0.16608 0.83392 1.05100
C 	C 	0.45960 0.13871 0.86129 -0.61100
C 	C 	0.45070 0.08796 0.91204 0.63400
C 	C 	0.44660 0.06402 0.93598 -0.33200
C 	C 	0.26469 0.50709 0.26469 -6.14000
C 	C 	0.21438 0.52040 0.21438 4.01600
C 	C 	0.18756 0.52760 0.18756 -1.60400
C 	C 	0.16608 0.53560 0.16608 1.05000
C 	C 	0.13871 0.54040 0.13871 -0.61100
C 	C 	0.08796 0.54930 0.08796 0.63500
C 	C 	0.06402 0.55340 0.06402 -0.33200
C 	C 	0.73531 0.50709 0.73531 -6.14300
C 	C 	0.78562 0.52040 0.78562 4.01900
C 	C 	0.81244 0.52760 0.81244 -1.60400
C 	C 	0.83392 0.53560 0.83392 1.05100
C 	C 	0.86129 0.54040 0.86129 -0.61100
C 	C 	0.91204 0.54930 0.91204 0.63300
C 	C 	0.93598 0.55340 0.93598 -0.33200
C 	C 	0.26469 0.49291 0.73531 -6.14100
C 	C 	0.21438 0.47960 0.78562 4.01700
C 	C 	0.18756 0.47240 0.81244 -1.60400
C 	C 	0.16608 0.46440 0.83392 1.05100
C 	C 	0.13871 0.45960 0.86129 -0.61100
C 	C 	0.08796 0.45070 0.91204 0.63400
C 	C 	0.06402 0.44660 0.93598 -0.33200
C 	C 	0.73531 0.49291 0.26469 -6.14100
C 	C 	0.78562 0.47960 0.21438 4.01700
C 	C 	0.81244 0.47240 0.18756 -1.60400
C 	C 	0.83392 0.46440 0.16608 1.05100
C 	C 	0.86129 0.45960 0.13871 -0.61100
C 	C 	0.91204 0.45070 0.08796 0.63400
C 	C 	0.93598 0.44660 0.06402 -0.33200
C 	C 	0.26469 0.26469 0.49291 -6.14000
C 	C 	0.21438 0.21438 0.47960 4.01600
C 	C 	0.18756 0.18756 0.47240 -1.60400
C 	C 	0.16608 0.16608 0.46440 1.05000
C 	C 	0.13871 0.13871 0.45960 -0.61100
C 	C 	0.08796 0.08796 0.45070 0.63500
C 	C 	0.06402 0.06402 0.44660 -0.33200
C 	C 	0.73531 0.73531 0.49291 -6.14300
C 	C 	0.78562 0.78562 0.47960 4.01900
C 	C 	0.81244 0.81244 0.47240 -1.60400
C 	C 	0.83392 0.83392 0.46440 1.05100
C 	C 	0.86129 0.86129 0.45960 -0.61100
C 	C 	0.91204 0.91204 0.45070 0.63300
C 	C 	0.93598 0.93598 0.44660 -0.33200
C 	C 	0.26469 0.73531 0.50709 -6.14100
C 	C 	0.21438 0.78562 0.52040 4.01700
C 	C 	0.18756 0.81244 0.52760 -1.60400
C 	C 	0.16608 0.83392 0.53560 1.05100
C 	C 	0.13871 0.86129 0.54040 -0.61100
C 	C 	0.08796 0.91204 0.54930 0.63400
C 	C 	0.06402 0.93598 0.55340 -0.33200
C 	C 	0.73531 0.26469 0.50709 -6.14100
C 	C 	0.78562 0.21438 0.52040 4.01700
C 	C 	0.81244 0.18756 0.52760 -1.60400
C 	C 	0.83392 0.16608 0.53560 1.05100
C 	C 	0.86129 0.13871 0.54040 -0.61100
C 	C 	0.91204 0.08796 0.54930 0.63400
C 	C 	0.93598 0.06402 0.55340 -0.33200
C 	C 	0.26469 0.50709 0.73531 -6.14100
C 	C 	0.21438 0.52040 0.78562 4.01700
C 	C 	0.18756 0.52760 0.81244 -1.60400
C 	C 	0.16608 0.53560 0.83392 1.05100
C 	C 	0.13871 0.54040 0.86129 -0.61100
C 	C 	0.08796 0.54930 0.91204 0.63400
C 	C 	0.06402 0.55340 0.93598 -0.33200
C 	C 	0.73531 0.50709 0.26469 -6.14100
C 	C 	0.78562 0.52040 0.21438 4.01700
C 	C 	0.81244 0.52760 0.18756 -1.60400
C 	C 	0.83392 0.53560 0.16608 1.05100
C 	C 	0.86129 0.54040 0.13871 -0.61100
C 	C 	0.91204 0.54930 0.08796 0.63400
C 	C 	0.93598 0.55340 0.06402 -0.33200
C 	C 	0.73531 0.49291 0.73531 -6.14300
C 	C 	0.78562 0.47960 0.78562 4.01900
C 	C 	0.81244 0.47240 0.81244 -1.60400
C 	C 	0.83392 0.46440 0.83392 1.05100
C 	C 	0.86129 0.45960 0.86129 -0.61100
C 	C 	0.91204 0.45070 0.91204 0.63300
C 	C 	0.93598 0.44660 0.93598 -0.33200
C 	C 	0.26469 0.49291 0.26469 -6.14000
C 	C 	0.21438 0.47960 0.21438 4.01600
C 	C 	0.18756 0.47240 0.18756 -1.60400
C 	C 	0.16608 0.46440 0.16608 1.05000
C 	C 	0.13871 0.45960 0.13871 -0.61100
C 	C 	0.08796 0.45070 0.08796 0.63500
C 	C 	0.06402 0.44660 0.06402 -0.33200
C 	C 	0.50709 0.26469 0.73531 -6.14100
C 	C 	0.52040 0.21438 0.78562 4.01700
C 	C 	0.52760 0.18756 0.81244 -1.60400
C 	C 	0.53560 0.16608 0.83392 1.05100
C 	C 	0.54040 0.13871 0.86129 -0.61100
C 	C 	0.54930 0.08796 0.91204 0.63400
C 	C 	0.55340 0.06402 0.93598 -0.33200
C 	C 	0.50709 0.73531 0.26469 -6.14100
C 	C 	0.52040 0.78562 0.21438 4.01700
C 	C 	0.52760 0.81244 0.18756 -1.60400
C 	C 	0.53560 0.83392 0.16608 1.05100
C 	C 	0.54040 0.86129 0.13871 -0.61100
C 	C 	0.54930 0.91204 0.08796 0.63400
C 	C 	0.55340 0.93598 0.06402 -0.33200
C 	C 	0.49291 0.26469 0.26469 -6.14000
C 	C 	0.47960 0.21438 0.21438 4.01600
C 	C 	0.47240 0.18756 0.18756 -1.60400
C 	C 	0.46440 0.16608 0.16608 1.05000
C 	C 	0.45960 0.13871 0.13871 -0.61100
C 	C 	0.45070 0.08796 0.08796 0.63500
C 	C 	0.44660 0.06402 0.06402 -0.33200
C 	C 	0.49291 0.73531 0.73531 -6.14300
C 	C 	0.47960 0.78562 0.78562 4.01900
C 	C 	0.47240 0.81244 0.81244 -1.60400
C 	C 	0.46440 0.83392 0.83392 1.05100
C 	C 	0.45960 0.86129 0.86129 -0.61100
C 	C 	0.45070 0.91204 0.91204 0.63300
C 	C 	0.44660 0.93598 0.93598 -0.33200
N 	N 	0.05737 0.00000 0.54100 -0.20600
H 	H 	0.03600 0.00000 0.53270 0.11400
N 	N 	0.94263 0.00000 0.54100 -0.20600
H 	H 	0.96400 0.00000 0.53270 0.11400
N 	N 	0.94263 0.00000 0.45900 -0.20600
H 	H 	0.96400 0.00000 0.46730 0.11400
N 	N 	0.05737 0.00000 0.45900 -0.20600
H 	H 	0.03600 0.00000 0.46730 0.11400
N 	N 	0.54100 0.05737 -0.00000 -0.20600
H 	H 	0.53270 0.03600 -0.00000 0.11400
N 	N 	0.54100 0.94263 -0.00000 -0.20600
H 	H 	0.53270 0.96400 -0.00000 0.11400
N 	N 	0.45900 0.94263 -0.00000 -0.20600
H 	H 	0.46730 0.96400 -0.00000 0.11400
N 	N 	0.45900 0.05737 -0.00000 -0.20600
H 	H 	0.46730 0.03600 -0.00000 0.11400
N 	N 	0.00000 0.54100 0.05737 -0.20600
H 	H 	0.00000 0.53270 0.03600 0.11400
N 	N 	-0.00000 0.54100 0.94263 -0.20600
H 	H 	0.00000 0.53270 0.96400 0.11400
N 	N 	0.00000 0.45900 0.94263 -0.20600
H 	H 	0.00000 0.46730 0.96400 0.11400
N 	N 	0.00000 0.45900 0.05737 -0.20600
H 	H 	0.00000 0.46730 0.03600 0.11400
N 	N 	0.00000 0.05737 0.45900 -0.20600
H 	H 	0.00000 0.03600 0.46730 0.11400
N 	N 	0.00000 0.94263 0.45900 -0.20600
H 	H 	0.00000 0.96400 0.46730 0.11400
N 	N 	0.00000 0.94263 0.54100 -0.20600
H 	H 	0.00000 0.96400 0.53270 0.11400
N 	N 	0.00000 0.05737 0.54100 -0.20600
H 	H 	0.00000 0.03600 0.53270 0.11400
N 	N 	0.05737 0.54100 -0.00000 -0.20600
H 	H 	0.03600 0.53270 -0.00000 0.11400
N 	N 	0.94263 0.54100 -0.00000 -0.20600
H 	H 	0.96400 0.53270 -0.00000 0.11400
N 	N 	0.94263 0.45900 -0.00000 -0.20600
H 	H 	0.96400 0.46730 -0.00000 0.11400
N 	N 	0.05737 0.45900 -0.00000 -0.20600
H 	H 	0.03600 0.46730 -0.00000 0.11400
N 	N 	0.54100 0.00000 0.94263 -0.20600
H 	H 	0.53270 0.00000 0.96400 0.11400
N 	N 	0.54100 0.00000 0.05737 -0.20600
H 	H 	0.53270 0.00000 0.03600 0.11400
N 	N 	0.45900 0.00000 0.05737 -0.20600
H 	H 	0.46730 0.00000 0.03600 0.11400
N 	N 	0.45900 0.00000 0.94263 -0.20600
H 	H 	0.46730 0.00000 0.96400 0.11400
