data_crystal

_cell_length_a 38.42650
_cell_length_b 38.42650
_cell_length_c 38.42650
_cell_angle_alpha 90.00000
_cell_angle_beta  90.00000
_cell_angle_gamma 90.00000

_symmetry_space_group_name_	'P 1'
_symmetry_space_group_name_H-M	'P 1'

loop_
_symmetry_equiv_pos_as_xyz
  x,y,z

loop_
_atom_site_label
_atom_site_type_symbol
_atom_site_fract_x
_atom_site_fract_y
_atom_site_fract_z
_atom_site_charge
C 	C 	0.26205 1.07435 0.02415 0.08600
C 	C 	0.26896 1.11006 0.01241 -0.06400
H 	H 	0.27377 1.13272 0.02840 0.05200
C 	C 	0.24077 0.92842 -0.02706 0.08500
C 	C 	0.23387 0.89270 -0.01535 -0.06500
H 	H 	0.22883 0.87011 -0.03137 0.05100
C 	C 	0.24759 0.97056 -0.07532 0.07500
C 	C 	0.24964 0.98128 -0.11170 -0.05500
H 	H 	0.24905 0.96533 -0.13487 0.05100
C 	C 	0.25511 1.03224 0.07244 0.07400
C 	C 	0.25296 1.02152 0.10881 -0.05500
H 	H 	0.25329 1.03752 0.13196 0.05100
C 	C 	0.26221 1.07434 -0.03246 0.07600
C 	C 	0.26897 1.11013 -0.02172 -0.05500
H 	H 	0.27370 1.13267 -0.03794 0.05100
C 	C 	0.24113 0.92829 0.02957 0.07400
C 	C 	0.23414 0.89255 0.01878 -0.05500
H 	H 	0.22941 0.86998 0.03496 0.05000
C 	C 	0.25324 1.02695 -0.07520 0.08800
C 	C 	0.25215 1.01528 -0.11158 -0.06400
H 	H 	0.25348 1.03105 -0.13482 0.05300
C 	C 	0.24998 0.97573 0.07235 0.08600
C 	C 	0.25080 0.98747 0.10871 -0.06300
H 	H 	0.24951 0.97170 0.13196 0.05200
Fe	Fe	0.25156 1.00135 -0.00143 1.10300
C 	C 	0.25873 1.06523 0.06143 -0.12100
C 	C 	0.24372 0.93763 -0.06435 -0.12100
C 	C 	0.25816 1.06390 -0.06552 -0.12300
C 	C 	0.24517 0.93870 0.06266 -0.12100
N 	N 	0.25909 1.05311 -0.00211 -0.27700
N 	N 	0.24405 0.94958 -0.00076 -0.27700
N 	N 	0.25042 1.00078 -0.05380 -0.27700
N 	N 	0.25268 1.00193 0.05095 -0.27600
C 	C 	0.76383 0.57119 0.52438 0.08600
C 	C 	0.76965 0.60735 0.51348 -0.06300
H 	H 	0.77426 0.62968 0.52998 0.05300
C 	C 	0.74622 0.42587 0.46960 0.08500
C 	C 	0.74040 0.38973 0.48054 -0.06300
H 	H 	0.73561 0.36741 0.46407 0.05000
C 	C 	0.75076 0.46952 0.42233 0.07400
C 	C 	0.75165 0.48131 0.38623 -0.05500
H 	H 	0.75094 0.46597 0.36265 0.05200
C 	C 	0.75905 0.52764 0.57167 0.07400
C 	C 	0.75783 0.51593 0.60777 -0.05500
H 	H 	0.75822 0.53131 0.63133 0.05000
C 	C 	0.76302 0.57268 0.46773 0.07500
C 	C 	0.76912 0.60832 0.47936 -0.05500
H 	H 	0.77315 0.63139 0.46372 0.05300
C 	C 	0.74733 0.42435 0.52631 0.07300
C 	C 	0.74110 0.38874 0.51467 -0.05500
H 	H 	0.73702 0.36568 0.53031 0.05000
C 	C 	0.75487 0.52612 0.42386 0.08600
C 	C 	0.75325 0.51537 0.38723 -0.06300
H 	H 	0.75355 0.53178 0.36440 0.05100
C 	C 	0.75517 0.47102 0.57019 0.08600
C 	C 	0.75642 0.48186 0.60681 -0.06300
H 	H 	0.75597 0.46548 0.62967 0.05200
Fe	Fe	0.75515 0.49853 0.49701 1.10300
C 	C 	0.76157 0.56104 0.56152 -0.11900
C 	C 	0.74782 0.43614 0.43242 -0.11900
C 	C 	0.75889 0.56304 0.43439 -0.12000
C 	C 	0.75095 0.43409 0.55970 -0.12000
N 	N 	0.76094 0.55057 0.49758 -0.27700
N 	N 	0.74941 0.44646 0.49642 -0.27600
N 	N 	0.75329 0.49928 0.44460 -0.27600
N 	N 	0.75696 0.49782 0.54941 -0.27600
C 	C 	0.74421 0.96801 1.07137 0.07400
C 	C 	0.74551 0.97924 1.10763 -0.05500
H 	H 	0.74553 0.96352 1.13097 0.05100
C 	C 	0.74966 1.02838 0.92284 0.07400
C 	C 	0.74856 1.01711 0.88658 -0.05500
H 	H 	0.74866 1.03282 0.86323 0.05000
C 	C 	0.75404 1.07142 0.97067 0.08600
C 	C 	0.75928 1.10752 0.98205 -0.06400
H 	H 	0.76343 1.13015 0.96584 0.05100
C 	C 	0.73988 0.92500 1.02352 0.08600
C 	C 	0.73485 0.88887 1.01213 -0.06300
H 	H 	0.73087 0.86620 1.02834 0.05300
C 	C 	0.74721 1.02470 1.07067 0.08600
C 	C 	0.74644 1.01334 1.10714 -0.06300
H 	H 	0.74685 1.02942 1.13022 0.05200
C 	C 	0.74677 0.97169 0.92355 0.08600
C 	C 	0.74768 0.98302 0.88708 -0.06300
H 	H 	0.74744 0.96695 0.86400 0.05300
C 	C 	0.75361 1.07211 1.02738 0.07300
C 	C 	0.75899 1.10801 1.01619 -0.05500
H 	H 	0.76281 1.13092 1.03210 0.05000
C 	C 	0.74037 0.92431 0.96683 0.07400
C 	C 	0.73522 0.88838 0.97800 -0.05500
H 	H 	0.73163 0.86544 0.96206 0.05100
Fe	Fe	0.74688 0.99821 0.99710 1.10300
C 	C 	0.74198 0.93472 1.06079 -0.12000
C 	C 	0.75219 1.06165 0.93339 -0.12000
C 	C 	0.75050 1.06185 1.06066 -0.12100
C 	C 	0.74377 0.93454 0.93357 -0.12000
N 	N 	0.74572 0.99816 1.04953 -0.27600
N 	N 	0.74803 0.99825 0.94469 -0.27600
N 	N 	0.75159 1.05039 0.99722 -0.27600
N 	N 	0.74217 0.94605 0.99698 -0.27600
C 	C 	0.24359 0.46663 0.57220 0.07400
C 	C 	0.24553 0.47680 0.60874 -0.05500
H 	H 	0.24564 0.46041 0.63161 0.05100
C 	C 	0.24654 0.53088 0.42538 0.07400
C 	C 	0.24447 0.52062 0.38886 -0.05400
H 	H 	0.24403 0.53696 0.36595 0.05200
C 	C 	0.25240 0.57258 0.47424 0.08600
C 	C 	0.25817 0.60832 0.48644 -0.06400
H 	H 	0.26210 0.63135 0.47073 0.05100
C 	C 	0.23812 0.42498 0.52330 0.08700
C 	C 	0.23279 0.38917 0.51106 -0.06300
H 	H 	0.22908 0.36608 0.52673 0.05300
C 	C 	0.24718 0.52327 0.57304 0.08600
C 	C 	0.24683 0.51089 0.60920 -0.06200
H 	H 	0.24772 0.52631 0.63271 0.05400
C 	C 	0.24342 0.47427 0.42462 0.08700
C 	C 	0.24345 0.48655 0.38845 -0.06400
H 	H 	0.24251 0.47109 0.36497 0.05300
C 	C 	0.25322 0.57178 0.53094 0.07300
C 	C 	0.25866 0.60791 0.52058 -0.05500
H 	H 	0.26300 0.63037 0.53701 0.04900
C 	C 	0.23762 0.42581 0.46669 0.07500
C 	C 	0.23258 0.38960 0.47694 -0.05500
H 	H 	0.22870 0.36710 0.46044 0.05100
Fe	Fe	0.24518 0.49880 0.49881 1.10300
C 	C 	0.24099 0.43370 0.56070 -0.12100
C 	C 	0.24960 0.56378 0.43679 -0.12000
C 	C 	0.25072 0.56064 0.56400 -0.11900
C 	C 	0.24056 0.43693 0.43372 -0.12200
N 	N 	0.24504 0.49735 0.55120 -0.27600
N 	N 	0.24528 0.50022 0.44643 -0.27600
N 	N 	0.25035 0.55089 0.50027 -0.27600
N 	N 	0.24001 0.44673 0.49734 -0.27700
C 	C 	1.07387 0.25523 0.02510 0.07500
C 	C 	1.10951 0.26052 0.01308 -0.05500
H 	H 	1.13256 0.26571 0.02839 0.05200
C 	C 	0.92535 0.25376 -0.03278 0.07600
C 	C 	0.88972 0.25965 -0.02104 -0.05500
H 	H 	0.86669 0.26434 -0.03656 0.05200
C 	C 	0.97196 0.24549 -0.07637 0.08700
C 	C 	0.98253 0.23823 -0.11238 -0.06500
H 	H 	0.96583 0.23366 -0.13457 0.05100
C 	C 	1.02723 0.24906 0.06908 0.08700
C 	C 	1.01662 0.24353 0.10539 -0.06400
H 	H 	1.03329 0.24009 0.12781 0.05200
C 	C 	1.07232 0.25216 -0.03144 0.08800
C 	C 	1.10853 0.25855 -0.02100 -0.06400
H 	H 	1.13086 0.26205 -0.03778 0.05400
C 	C 	0.92685 0.25290 0.02378 0.08800
C 	C 	0.89065 0.25897 0.01307 -0.06300
H 	H 	0.86833 0.26320 0.02968 0.05400
C 	C 	1.02850 0.24360 -0.07784 0.07500
C 	C 	1.01662 0.23695 -0.11330 -0.05600
H 	H 	1.03204 0.23135 -0.13619 0.04800
C 	C 	0.97067 0.24697 0.07058 0.07400
C 	C 	0.98252 0.24214 0.10633 -0.05600
H 	H 	0.96709 0.23758 0.12945 0.04900
Fe	Fe	0.99960 0.24994 -0.00373 1.10400
C 	C 	1.06408 0.25287 0.05853 -0.12200
C 	C 	0.93517 0.25004 -0.06605 -0.12300
C 	C 	1.06182 0.24720 -0.06816 -0.12300
C 	C 	0.93730 0.24952 0.06066 -0.12200
N 	N 	1.05181 0.25108 -0.00449 -0.27800
N 	N 	0.94739 0.25074 -0.00306 -0.27800
N 	N 	0.99885 0.24768 -0.05589 -0.27800
N 	N 	1.00034 0.25022 0.04850 -0.27700
C 	C 	0.57509 0.75758 0.52997 0.07500
C 	C 	0.61065 0.76268 0.51762 -0.05500
H 	H 	0.63402 0.76694 0.53275 0.05200
C 	C 	0.42582 0.76134 0.47453 0.07600
C 	C 	0.39046 0.76745 0.48695 -0.05600
H 	H 	0.36731 0.77299 0.47190 0.05200
C 	C 	0.47159 0.75358 0.42989 0.08800
C 	C 	0.48146 0.74748 0.39347 -0.06400
H 	H 	0.46435 0.74396 0.37140 0.05200
C 	C 	0.52897 0.75080 0.57448 0.08700
C 	C 	0.51879 0.74423 0.61074 -0.06400
H 	H 	0.53574 0.73960 0.63273 0.05200
C 	C 	0.57271 0.75660 0.47341 0.08800
C 	C 	0.60917 0.76197 0.48353 -0.06400
H 	H 	0.63131 0.76572 0.46656 0.05500
C 	C 	0.42806 0.75860 0.53098 0.08800
C 	C 	0.39185 0.76570 0.52100 -0.06300
H 	H 	0.36983 0.76977 0.53805 0.05300
C 	C 	0.52809 0.75085 0.42738 0.07500
C 	C 	0.51552 0.74570 0.39192 -0.05600
H 	H 	0.53045 0.74064 0.36858 0.04900
C 	C 	0.47235 0.75005 0.57688 0.07400
C 	C 	0.48467 0.74365 0.61222 -0.05600
H 	H 	0.46951 0.73863 0.63542 0.04900
Fe	Fe	0.50035 0.75502 0.50220 1.10400
C 	C 	0.56576 0.75402 0.56342 -0.12100
C 	C 	0.43502 0.75806 0.44104 -0.12300
C 	C 	0.56167 0.75307 0.43667 -0.12200
C 	C 	0.43885 0.75343 0.56756 -0.12100
N 	N 	0.55254 0.75498 0.50060 -0.27800
N 	N 	0.44821 0.75704 0.50380 -0.27800
N 	N 	0.49885 0.75469 0.44997 -0.27700
N 	N 	0.50179 0.75342 0.55442 -0.27700
C 	C 	0.02948 0.73704 -0.07391 0.07500
C 	C 	0.01694 0.73085 -0.10921 -0.05500
H 	H 	0.03189 0.72482 -0.13230 0.05000
C 	C 	-0.02671 0.74227 0.07528 0.07400
C 	C 	-0.01447 0.73709 0.11086 -0.05500
H 	H 	-0.02967 0.73292 0.13419 0.05000
C 	C 	-0.07080 0.74984 0.02900 0.08600
C 	C 	-0.10678 0.75754 0.01863 -0.06400
H 	H 	-0.12874 0.76276 0.03545 0.05200
C 	C 	0.07404 0.74451 -0.02807 0.08700
C 	C 	0.11045 0.75040 -0.01802 -0.06400
H 	H 	0.13264 0.75369 -0.03501 0.05200
C 	C 	-0.02696 0.74087 -0.07171 0.08700
C 	C 	-0.01708 0.73327 -0.10786 -0.06400
H 	H 	-0.03419 0.72934 -0.12986 0.05300
C 	C 	0.02992 0.74292 0.07300 0.08700
C 	C 	0.01965 0.73767 0.10945 -0.06400
H 	H 	0.03657 0.73391 0.13163 0.05400
C 	C 	-0.07277 0.75103 -0.02759 0.07400
C 	C 	-0.10800 0.75842 -0.01548 -0.05600
H 	H 	-0.13092 0.76422 -0.03076 0.05000
C 	C 	0.07624 0.74773 0.02845 0.07400
C 	C 	0.11181 0.75246 0.01604 -0.05600
H 	H 	0.13510 0.75749 0.03105 0.04900
Fe	Fe	0.00156 0.74436 0.00057 1.10400
C 	C 	0.06305 0.73999 -0.06475 -0.12200
C 	C 	-0.06015 0.74598 0.06584 -0.12000
C 	C 	-0.06341 0.74705 -0.06098 -0.12200
C 	C 	0.06671 0.74606 0.06200 -0.12200
N 	N 	0.00023 0.74202 -0.05157 -0.27800
N 	N 	0.00279 0.74471 0.05279 -0.27700
N 	N 	-0.05061 0.74694 0.00192 -0.27700
N 	N 	0.05380 0.74380 -0.00087 -0.27700
C 	C 	0.52597 0.23805 0.42067 0.07600
C 	C 	0.51273 0.23377 0.38535 -0.05500
H 	H 	0.52720 0.22876 0.36171 0.05300
C 	C 	0.47312 0.23739 0.57104 0.07500
C 	C 	0.48603 0.23082 0.60615 -0.05500
H 	H 	0.47126 0.22610 0.62965 0.05300
C 	C 	0.42806 0.24714 0.52608 0.08600
C 	C 	0.39185 0.25521 0.51685 -0.06400
H 	H 	0.37027 0.25966 0.53437 0.05000
C 	C 	0.57153 0.24290 0.46586 0.08700
C 	C 	0.60820 0.24820 0.47530 -0.06400
H 	H 	0.63003 0.25205 0.45797 0.05200
C 	C 	0.46964 0.24242 0.42413 0.08800
C 	C 	0.47877 0.23650 0.38747 -0.06300
H 	H 	0.46122 0.23384 0.36562 0.05400
C 	C 	0.52963 0.23747 0.56757 0.08800
C 	C 	0.52011 0.23101 0.60402 -0.06300
H 	H 	0.53747 0.22631 0.62568 0.05500
C 	C 	0.42480 0.25063 0.46963 0.07400
C 	C 	0.38986 0.25748 0.48283 -0.05600
H 	H 	0.36659 0.26385 0.46832 0.04900
C 	C 	0.57499 0.24386 0.52232 0.07500
C 	C 	0.61031 0.24894 0.50935 -0.05600
H 	H 	0.63395 0.25330 0.52402 0.05000
Fe	Fe	0.49970 0.24227 0.49591 1.10500
C 	C 	0.55971 0.23999 0.42935 -0.12200
C 	C 	0.43959 0.24193 0.56248 -0.12100
C 	C 	0.43344 0.24825 0.43588 -0.12200
C 	C 	0.56617 0.24094 0.55593 -0.12300
N 	N 	0.49722 0.24232 0.44377 -0.27800
N 	N 	0.50212 0.24028 0.54802 -0.27800
N 	N 	0.44761 0.24527 0.49845 -0.27700
N 	N 	0.55188 0.24122 0.49340 -0.27700
C 	C 	1.07450 0.02698 0.24545 0.07600
C 	C 	1.11009 0.01377 0.24579 -0.05500
H 	H 	1.13423 0.02821 0.24462 0.05200
C 	C 	0.92339 -0.02491 0.24336 0.07500
C 	C 	0.88821 -0.01203 0.23714 -0.05600
H 	H 	0.86458 -0.02679 0.23312 0.05100
C 	C 	0.96826 -0.07013 0.25321 0.08700
C 	C 	0.97724 -0.10659 0.26047 -0.06400
H 	H 	0.95958 -0.12812 0.26454 0.05400
C 	C 	1.02923 0.07291 0.24338 0.08700
C 	C 	1.02004 0.11001 0.24268 -0.06400
H 	H 	1.03753 0.13205 0.24209 0.05300
C 	C 	1.07063 -0.02940 0.24928 0.08700
C 	C 	1.10769 -0.02021 0.24742 -0.06400
H 	H 	1.12980 -0.03759 0.24729 0.05400
C 	C 	0.92705 0.03158 0.24203 0.08700
C 	C 	0.89045 0.02203 0.23657 -0.06400
H 	H 	0.86877 0.03935 0.23182 0.05300
C 	C 	1.02467 -0.07400 0.25598 0.07500
C 	C 	1.01125 -0.10898 0.26208 -0.05500
H 	H 	1.02565 -0.13256 0.26755 0.05000
C 	C 	0.97271 0.07695 0.24320 0.07400
C 	C 	0.98603 0.11251 0.24339 -0.05500
H 	H 	0.97168 0.13672 0.24387 0.04900
Fe	Fe	0.99880 0.00125 0.24701 1.10400
C 	C 	1.06575 0.06073 0.24433 -0.12400
C 	C 	0.93199 -0.05846 0.24763 -0.12200
C 	C 	1.05848 -0.06577 0.25347 -0.12100
C 	C 	0.93888 0.06823 0.24277 -0.12100
N 	N 	1.05104 -0.00173 0.24773 -0.27700
N 	N 	0.94659 0.00405 0.24521 -0.27700
N 	N 	0.99599 -0.05075 0.25159 -0.27700
N 	N 	1.00153 0.05339 0.24343 -0.27700
C 	C 	0.57822 0.52153 0.74679 0.07500
C 	C 	0.61317 0.50807 0.74050 -0.05600
H 	H 	0.63699 0.52243 0.73610 0.04900
C 	C 	0.42646 0.47174 0.74854 0.07700
C 	C 	0.39107 0.48549 0.74864 -0.05500
H 	H 	0.36672 0.47145 0.74702 0.05200
C 	C 	0.47100 0.42519 0.74697 0.08800
C 	C 	0.47967 0.38797 0.74664 -0.06400
H 	H 	0.46189 0.36617 0.74587 0.05300
C 	C 	0.53407 0.56736 0.75675 0.08800
C 	C 	0.52559 0.60391 0.76415 -0.06300
H 	H 	0.54354 0.62524 0.76801 0.05500
C 	C 	0.57374 0.46512 0.74627 0.08700
C 	C 	0.61045 0.47405 0.74049 -0.06400
H 	H 	0.63185 0.45635 0.73586 0.05100
C 	C 	0.43120 0.52794 0.75311 0.08800
C 	C 	0.39400 0.51938 0.75079 -0.06400
H 	H 	0.37217 0.53712 0.75067 0.05300
C 	C 	0.52741 0.42042 0.74775 0.07600
C 	C 	0.51362 0.38502 0.74795 -0.05500
H 	H 	0.52766 0.36064 0.74877 0.05200
C 	C 	0.47779 0.57184 0.76016 0.07700
C 	C 	0.49163 0.60667 0.76615 -0.05500
H 	H 	0.47752 0.63040 0.77172 0.05300
Fe	Fe	0.50251 0.49639 0.75088 1.10400
C 	C 	0.57012 0.55523 0.75078 -0.12200
C 	C 	0.43469 0.43791 0.74727 -0.12400
C 	C 	0.56131 0.42872 0.74738 -0.12200
C 	C 	0.44392 0.56399 0.75765 -0.12300
N 	N 	0.55463 0.49294 0.74919 -0.27700
N 	N 	0.45034 0.50002 0.75143 -0.27800
N 	N 	0.49896 0.44433 0.74741 -0.27700
N 	N 	0.50611 0.54830 0.75544 -0.27800
C 	C 	0.97565 1.07226 0.74682 0.07600
C 	C 	0.98836 1.10802 0.74666 -0.05600
H 	H 	0.97357 1.13195 0.74559 0.05000
C 	C 	1.02978 0.92181 0.74431 0.07500
C 	C 	1.01719 0.88644 0.73853 -0.05600
H 	H 	1.03214 0.86293 0.73451 0.05100
C 	C 	1.07456 0.96729 0.75310 0.08700
C 	C 	1.11102 0.97693 0.75943 -0.06400
H 	H 	1.13292 0.95968 0.76326 0.05100
C 	C 	0.93039 1.02641 0.74602 0.08800
C 	C 	0.89343 1.01668 0.74640 -0.06400
H 	H 	0.87114 1.03386 0.74648 0.05400
C 	C 	1.03210 1.06912 0.74955 0.08700
C 	C 	1.02239 1.10607 0.74768 -0.06400
H 	H 	1.03947 1.12841 0.74707 0.05200
C 	C 	0.97325 0.92485 0.74368 0.08700
C 	C 	0.98311 0.88831 0.73836 -0.06300
H 	H 	0.96596 0.86640 0.73404 0.05200
C 	C 	1.07757 1.02380 0.75522 0.07500
C 	C 	1.11290 1.01100 0.76061 -0.05600
H 	H 	1.13635 1.02585 0.76539 0.05000
C 	C 	0.92726 0.96989 0.74600 0.07500
C 	C 	0.89149 0.98264 0.74714 -0.05500
H 	H 	0.86755 0.96788 0.74826 0.05200
Fe	Fe	1.00258 0.99691 0.74806 1.10400
C 	C 	0.94202 1.06309 0.74636 -0.12300
C 	C 	1.06328 0.93073 0.74842 -0.12200
C 	C 	1.06867 1.05745 0.75291 -0.12300
C 	C 	0.93652 0.93624 0.74526 -0.12200
N 	N 	1.00471 1.04918 0.74869 -0.27700
N 	N 	1.00058 0.94471 0.74630 -0.27800
N 	N 	1.05472 0.99473 0.75157 -0.27700
N 	N 	0.95034 0.99902 0.74562 -0.27700
C 	C 	0.47045 0.57847 0.24378 0.07500
C 	C 	0.48343 0.61414 0.24404 -0.05400
H 	H 	0.46879 0.63818 0.24383 0.05200
C 	C 	0.52399 0.42766 0.23852 0.07500
C 	C 	0.51110 0.39243 0.23264 -0.05500
H 	H 	0.52585 0.36888 0.22808 0.05100
C 	C 	0.56909 0.47281 0.24701 0.08600
C 	C 	0.60567 0.48222 0.25295 -0.06400
H 	H 	0.62753 0.46485 0.25642 0.05200
C 	C 	0.42499 0.53280 0.24316 0.08700
C 	C 	0.38802 0.52313 0.24407 -0.06300
H 	H 	0.36576 0.54034 0.24462 0.05200
C 	C 	0.52701 0.57494 0.24523 0.08700
C 	C 	0.51748 0.61196 0.24427 -0.06300
H 	H 	0.53472 0.63418 0.24382 0.05500
C 	C 	0.46748 0.43101 0.23910 0.08700
C 	C 	0.47704 0.39448 0.23319 -0.06400
H 	H 	0.45970 0.37270 0.22901 0.05300
C 	C 	0.57237 0.52928 0.24955 0.07400
C 	C 	0.60771 0.51626 0.25440 -0.05500
H 	H 	0.63129 0.53093 0.25909 0.04900
C 	C 	0.42170 0.47623 0.24273 0.07500
C 	C 	0.38601 0.48908 0.24461 -0.05600
H 	H 	0.36205 0.47438 0.24603 0.05100
Fe	Fe	0.49714 0.50291 0.24350 1.10400
C 	C 	0.43671 0.56950 0.24390 -0.12100
C 	C 	0.55762 0.43631 0.24225 -0.12100
C 	C 	0.56360 0.56300 0.24777 -0.12100
C 	C 	0.43086 0.44255 0.24172 -0.12200
N 	N 	0.49947 0.55518 0.24461 -0.27700
N 	N 	0.49494 0.45072 0.24128 -0.27700
N 	N 	0.54934 0.50037 0.24597 -0.27700
N 	N 	0.44486 0.50532 0.24211 -0.27700
O 	O 	0.20040 0.25340 0.15735 -0.60100
O 	O 	0.23526 0.28447 0.14581 -0.53800
O 	O 	0.25335 0.16249 0.19716 -0.62400
O 	O 	0.29061 0.15733 0.23817 -0.56300
O 	O 	0.16034 0.19857 0.24612 -0.66600
O 	O 	0.15472 0.24845 0.28856 -0.59600
O 	O 	0.33957 0.25754 0.29630 -0.62400
O 	O 	0.34689 0.21659 0.25852 -0.60100
O 	O 	0.29479 0.34217 0.24486 -0.60200
O 	O 	0.25715 0.35736 0.22024 -0.51000
O 	O 	0.24859 0.30077 0.33617 -0.66500
O 	O 	0.20624 0.24528 0.33703 -0.58900
O 	O 	0.29659 0.25323 0.33736 -0.60900
O 	O 	0.25913 0.22572 0.35253 -0.52700
O 	O 	0.24441 0.34106 0.29289 -0.65400
O 	O 	0.20566 0.34046 0.23568 -0.56400
O 	O 	0.33837 0.30226 0.25173 -0.64200
O 	O 	0.34365 0.25665 0.20793 -0.57800
O 	O 	0.15783 0.24973 0.19894 -0.60600
O 	O 	0.14243 0.27613 0.24044 -0.52400
O 	O 	0.20405 0.15832 0.24274 -0.62400
O 	O 	0.24167 0.15140 0.28030 -0.55400
O 	O 	0.25022 0.20636 0.15721 -0.64400
O 	O 	0.28985 0.25462 0.15603 -0.57800
Zr	Zr	0.24521 0.25160 0.18885 3.20400
O 	O 	0.28184 0.28422 0.21216 -1.60900
Zr	Zr	0.24758 0.19151 0.24300 3.21200
O 	O 	0.28017 0.21791 0.27840 -1.58200
Zr	Zr	0.18818 0.24594 0.24469 3.20800
O 	O 	0.21357 0.28249 0.27779 -1.56300
Zr	Zr	0.30904 0.25597 0.25099 3.20800
O 	O 	0.28390 0.22177 0.21506 -1.27700
Zr	Zr	0.25019 0.30999 0.24744 3.20300
O 	O 	0.21285 0.28624 0.21574 -1.33900
Zr	Zr	0.25116 0.25488 0.30656 3.20900
O 	O 	0.21850 0.21787 0.28159 -1.31200
O 	O 	0.21286 0.21410 0.20945 -1.66700
O 	O 	0.28424 0.29067 0.28422 -1.36800
C 	C 	0.16811 0.25242 0.16695 0.44900
C 	C 	0.25369 0.17389 0.16560 0.47900
C 	C 	0.17163 0.16691 0.24513 0.47100
C 	C 	0.32894 0.25514 0.32814 0.45800
C 	C 	0.32728 0.33378 0.24790 0.46600
C 	C 	0.24558 0.33236 0.32538 0.49000
H 	H 	0.29509 0.30013 0.19679 0.37100
H 	H 	0.19747 0.29706 0.29165 0.34100
H 	H 	0.19864 0.19942 0.19364 0.40600
H 	H 	0.29433 0.20284 0.29373 0.32600
H 	H 	0.34368 0.19962 0.23941 0.19400
H 	H 	0.30223 0.15555 0.26107 0.16300
H 	H 	0.19358 0.34622 0.25768 0.17300
H 	H 	0.14954 0.30049 0.24495 0.17200
H 	H 	0.36771 0.25916 0.21694 0.20200
H 	H 	0.28344 0.25031 0.13139 0.21700
H 	H 	0.19704 0.26785 0.34534 0.18900
H 	H 	0.15569 0.22585 0.30091 0.22000
H 	H 	0.24402 0.30769 0.15273 0.13300
H 	H 	0.25482 0.35171 0.19512 0.13700
H 	H 	0.25128 0.16036 0.30240 0.14300
H 	H 	0.25461 0.20111 0.34631 0.15100
O 	O 	0.70235 0.66029 0.24663 -0.59400
O 	O 	0.73820 0.64834 0.21843 -0.53700
O 	O 	0.74880 0.70250 0.33986 -0.62200
O 	O 	0.78744 0.74341 0.34514 -0.56200
O 	O 	0.65883 0.74988 0.29897 -0.66300
O 	O 	0.65374 0.78966 0.24645 -0.59800
O 	O 	0.83920 0.80160 0.24549 -0.62300
O 	O 	0.84593 0.76567 0.28764 -0.59900
O 	O 	0.79945 0.74731 0.16084 -0.60100
O 	O 	0.76219 0.72143 0.14480 -0.51400
O 	O 	0.74486 0.83866 0.19854 -0.67100
O 	O 	0.70423 0.83740 0.25738 -0.58900
O 	O 	0.79532 0.84193 0.24697 -0.60400
O 	O 	0.75763 0.85843 0.27049 -0.52100
O 	O 	0.75011 0.79498 0.15883 -0.65000
O 	O 	0.71041 0.73827 0.15830 -0.56700
O 	O 	0.84099 0.75575 0.20254 -0.64300
O 	O 	0.84438 0.71305 0.25010 -0.57800
O 	O 	0.65904 0.70099 0.25145 -0.60900
O 	O 	0.64482 0.74009 0.22012 -0.52500
O 	O 	0.70088 0.74789 0.34097 -0.62700
O 	O 	0.73891 0.78642 0.34815 -0.56100
O 	O 	0.75258 0.66214 0.29640 -0.64300
O 	O 	0.79192 0.65997 0.24866 -0.57900
Zr	Zr	0.74691 0.69245 0.25023 3.20300
O 	O 	0.78445 0.71591 0.21873 -1.61000
Zr	Zr	0.74561 0.74774 0.30947 3.21200
O 	O 	0.77854 0.78333 0.28369 -1.58300
Zr	Zr	0.68855 0.74720 0.25270 3.20800
O 	O 	0.71478 0.78000 0.21636 -1.55900
Zr	Zr	0.80952 0.75583 0.24743 3.20800
O 	O 	0.78372 0.72006 0.28125 -1.27600
Zr	Zr	0.75333 0.75005 0.19098 3.20300
O 	O 	0.71550 0.71814 0.21387 -1.34000
Zr	Zr	0.75040 0.81015 0.24503 3.20800
O 	O 	0.71680 0.78524 0.28127 -1.30300
O 	O 	0.71269 0.71304 0.28608 -1.66900
O 	O 	0.78552 0.78792 0.21106 -1.37000
C 	C 	0.66986 0.66924 0.24836 0.44500
C 	C 	0.75223 0.67091 0.32897 0.47700
C 	C 	0.66880 0.74974 0.33109 0.47100
C 	C 	0.82790 0.83328 0.24626 0.45600
C 	C 	0.83151 0.75104 0.17062 0.46300
C 	C 	0.74636 0.82742 0.16697 0.48800
H 	H 	0.79870 0.70053 0.20372 0.37200
H 	H 	0.69892 0.79321 0.20095 0.34300
H 	H 	0.69830 0.69739 0.30074 0.40700
H 	H 	0.79171 0.79929 0.29901 0.32400
H 	H 	0.84246 0.74723 0.30529 0.19200
H 	H 	0.79898 0.76636 0.34684 0.16500
H 	H 	0.69911 0.76031 0.15126 0.17400
H 	H 	0.65320 0.74381 0.19604 0.17700
H 	H 	0.86843 0.72210 0.24779 0.20100
H 	H 	0.78584 0.63532 0.25342 0.21600
H 	H 	0.69520 0.84767 0.23554 0.18800
H 	H 	0.65178 0.80220 0.26888 0.22200
H 	H 	0.74782 0.65452 0.19532 0.13100
H 	H 	0.75989 0.69651 0.15122 0.13700
H 	H 	0.74376 0.80907 0.33696 0.15000
H 	H 	0.75431 0.85390 0.29571 0.14800
O 	O 	0.69899 0.33303 0.74893 -0.59800
O 	O 	0.73455 0.34760 0.77628 -0.53500
O 	O 	0.75118 0.29525 0.65501 -0.62300
O 	O 	0.79102 0.25615 0.64969 -0.56500
O 	O 	0.66166 0.24395 0.69389 -0.66200
O 	O 	0.65945 0.20028 0.74243 -0.59600
O 	O 	0.84479 0.20136 0.74746 -0.62200
O 	O 	0.84980 0.23878 0.70783 -0.59600
O 	O 	0.79957 0.24848 0.83424 -0.60200
O 	O 	0.76200 0.27515 0.84925 -0.51300
O 	O 	0.75649 0.15740 0.79503 -0.66000
O 	O 	0.71382 0.15320 0.74086 -0.58800
O 	O 	0.80382 0.15800 0.74894 -0.60500
O 	O 	0.76723 0.14205 0.71821 -0.53600
O 	O 	0.75072 0.20097 0.83475 -0.65300
O 	O 	0.71106 0.25639 0.83574 -0.56100
O 	O 	0.84253 0.24739 0.79305 -0.64600
O 	O 	0.84403 0.29021 0.74614 -0.57700
O 	O 	0.65836 0.28986 0.74280 -0.60700
O 	O 	0.64649 0.24774 0.77268 -0.52800
O 	O 	0.70453 0.24548 0.65264 -0.62200
O 	O 	0.74407 0.21202 0.64441 -0.55200
O 	O 	0.74710 0.33540 0.69864 -0.64400
O 	O 	0.78864 0.33865 0.74627 -0.58000
Zr	Zr	0.74533 0.30402 0.74440 3.20400
O 	O 	0.78373 0.28270 0.77635 -1.60900
Zr	Zr	0.74887 0.24936 0.68462 3.21100
O 	O 	0.78364 0.21581 0.71065 -1.58200
Zr	Zr	0.69087 0.24562 0.74030 3.20800
O 	O 	0.71851 0.21404 0.77661 -1.56300
Zr	Zr	0.81205 0.24517 0.74751 3.20800
O 	O 	0.78442 0.27945 0.71366 -1.27800
Zr	Zr	0.75438 0.24619 0.80305 3.20300
O 	O 	0.71501 0.27590 0.77992 -1.34100
Zr	Zr	0.75696 0.18667 0.74871 3.20900
O 	O 	0.72235 0.20975 0.71214 -1.31200
O 	O 	0.71326 0.28164 0.70768 -1.66700
O 	O 	0.78984 0.21112 0.78320 -1.37000
C 	C 	0.66718 0.32214 0.74688 0.44800
C 	C 	0.75011 0.32693 0.66612 0.47700
C 	C 	0.67227 0.24362 0.66200 0.46600
C 	C 	0.83568 0.16896 0.74803 0.45900
C 	C 	0.83195 0.24849 0.82496 0.47100
C 	C 	0.75338 0.16845 0.82655 0.48500
H 	H 	0.79670 0.29862 0.79196 0.37000
H 	H 	0.70329 0.19968 0.79161 0.33900
H 	H 	0.69794 0.29658 0.69320 0.40700
H 	H 	0.79825 0.20102 0.69548 0.32500
H 	H 	0.84513 0.25705 0.69030 0.19100
H 	H 	0.80381 0.23388 0.64791 0.16200
H 	H 	0.69872 0.23424 0.84024 0.17200
H 	H 	0.65489 0.24333 0.79662 0.17100
H 	H 	0.86863 0.28282 0.74867 0.20100
H 	H 	0.78145 0.36276 0.74048 0.21800
H 	H 	0.70432 0.14643 0.76382 0.18800
H 	H 	0.66163 0.18779 0.71998 0.22000
H 	H 	0.74412 0.34170 0.79948 0.13300
H 	H 	0.75903 0.29997 0.84279 0.13600
H 	H 	0.75584 0.19071 0.65267 0.14200
H 	H 	0.76052 0.14812 0.69410 0.15400
O 	O 	0.24972 0.69571 0.66454 -0.59500
O 	O 	0.22146 0.73081 0.65097 -0.53500
O 	O 	0.34226 0.74936 0.70438 -0.62500
O 	O 	0.34669 0.78796 0.74387 -0.56100
O 	O 	0.30586 0.65820 0.75568 -0.66600
O 	O 	0.25353 0.65233 0.79575 -0.59800
O 	O 	0.24439 0.83825 0.79980 -0.61800
O 	O 	0.28620 0.84550 0.76416 -0.59700
O 	O 	0.16179 0.79262 0.75057 -0.59800
O 	O 	0.14774 0.75444 0.72356 -0.51500
O 	O 	0.20262 0.74340 0.84144 -0.67400
O 	O 	0.26352 0.70557 0.84119 -0.58800
O 	O 	0.24838 0.79633 0.84203 -0.60100
O 	O 	0.27381 0.76046 0.86003 -0.52200
O 	O 	0.16249 0.74440 0.79784 -0.65300
O 	O 	0.16216 0.70392 0.74265 -0.56400
O 	O 	0.20216 0.83628 0.75243 -0.64900
O 	O 	0.25073 0.83910 0.71072 -0.57400
O 	O 	0.25742 0.65411 0.70649 -0.60400
O 	O 	0.22775 0.64005 0.74695 -0.52600
O 	O 	0.34594 0.70195 0.75136 -0.62900
O 	O 	0.35151 0.74114 0.78848 -0.55800
O 	O 	0.29891 0.74513 0.66393 -0.64600
O 	O 	0.25018 0.78526 0.66096 -0.57800
Zr	Zr	0.25299 0.74140 0.69486 3.20300
O 	O 	0.22010 0.77864 0.71693 -1.60900
Zr	Zr	0.31249 0.74510 0.74976 3.21200
O 	O 	0.28570 0.77849 0.78400 -1.58700
Zr	Zr	0.25824 0.68554 0.75183 3.20800
O 	O 	0.22118 0.71172 0.78393 -1.55800
Zr	Zr	0.24809 0.80665 0.75535 3.20800
O 	O 	0.28267 0.78067 0.72052 -1.27700
Zr	Zr	0.19399 0.74791 0.75267 3.20300
O 	O 	0.21810 0.70968 0.72214 -1.34300
Zr	Zr	0.24850 0.74990 0.81228 3.20800
O 	O 	0.28577 0.71665 0.78851 -1.30200
O 	O 	0.29040 0.70961 0.71658 -1.66600
O 	O 	0.21299 0.78258 0.78881 -1.37100
C 	C 	0.25280 0.66363 0.67443 0.44100
C 	C 	0.33128 0.74875 0.67269 0.48000
C 	C 	0.33749 0.66963 0.75489 0.47300
C 	C 	0.24586 0.82844 0.83198 0.45300
C 	C 	0.17048 0.82521 0.75082 0.46700
C 	C 	0.17100 0.74276 0.83033 0.49200
H 	H 	0.20435 0.79160 0.70115 0.37100
H 	H 	0.20662 0.69577 0.79795 0.34300
H 	H 	0.30540 0.69495 0.70149 0.40600
H 	H 	0.30051 0.79299 0.79928 0.32400
H 	H 	0.30480 0.84149 0.74681 0.18800
H 	H 	0.34818 0.80031 0.76641 0.16300
H 	H 	0.15776 0.69168 0.76488 0.17300
H 	H 	0.20327 0.64758 0.74982 0.17500
H 	H 	0.24688 0.86350 0.71820 0.20100
H 	H 	0.25633 0.77866 0.63677 0.21800
H 	H 	0.24229 0.69599 0.85220 0.18700
H 	H 	0.27604 0.65183 0.80827 0.22200
H 	H 	0.19807 0.73986 0.65692 0.13200
H 	H 	0.15443 0.75188 0.69876 0.13700
H 	H 	0.34041 0.74717 0.81089 0.14900
H 	H 	0.29914 0.75828 0.85546 0.14800
O 	O 	0.30145 0.24319 0.65897 -0.59800
O 	O 	0.26610 0.21458 0.64594 -0.53700
O 	O 	0.24669 0.33652 0.69584 -0.62500
O 	O 	0.20858 0.34201 0.73608 -0.56300
O 	O 	0.33893 0.30164 0.74781 -0.66700
O 	O 	0.34391 0.25250 0.79051 -0.59800
O 	O 	0.15907 0.24516 0.79448 -0.63000
O 	O 	0.15322 0.28432 0.75448 -0.60300
O 	O 	0.20491 0.15764 0.74666 -0.60000
O 	O 	0.24251 0.14254 0.72121 -0.51100
O 	O 	0.25001 0.20030 0.83695 -0.66300
O 	O 	0.29080 0.25562 0.83901 -0.58800
O 	O 	0.20116 0.24474 0.83673 -0.60400
O 	O 	0.23717 0.27704 0.85082 -0.53500
O 	O 	0.25514 0.15957 0.79419 -0.65500
O 	O 	0.29365 0.15857 0.73761 -0.56200
O 	O 	0.16126 0.19768 0.75250 -0.63900
O 	O 	0.15593 0.24043 0.70691 -0.58100
O 	O 	0.34283 0.25171 0.70101 -0.60900
O 	O 	0.35692 0.22370 0.74273 -0.52500
O 	O 	0.29523 0.34165 0.74242 -0.62300
O 	O 	0.25700 0.34936 0.77851 -0.55200
O 	O 	0.25148 0.29221 0.65654 -0.64600
O 	O 	0.21141 0.24345 0.65562 -0.58000
Zr	Zr	0.25562 0.24732 0.68895 3.20400
O 	O 	0.21851 0.21508 0.71207 -1.60800
Zr	Zr	0.25180 0.30828 0.74218 3.21100
O 	O 	0.21872 0.28229 0.77745 -1.58100
Zr	Zr	0.31134 0.25427 0.74594 3.20800
O 	O 	0.28549 0.21802 0.77895 -1.56300
Zr	Zr	0.19051 0.24396 0.74987 3.20800
O 	O 	0.21630 0.27746 0.71381 -1.28000
Zr	Zr	0.24950 0.18995 0.74832 3.20300
O 	O 	0.28751 0.21333 0.71716 -1.34200
Zr	Zr	0.24719 0.24572 0.80671 3.20900
O 	O 	0.28012 0.28261 0.78182 -1.31300
O 	O 	0.28727 0.28538 0.70962 -1.66600
O 	O 	0.21466 0.20976 0.78409 -1.36800
C 	C 	0.33347 0.24629 0.66907 0.44600
C 	C 	0.24723 0.32473 0.66444 0.47900
C 	C 	0.32758 0.33320 0.74597 0.47100
C 	C 	0.16900 0.24516 0.82662 0.46100
C 	C 	0.17243 0.16605 0.74989 0.46700
C 	C 	0.25352 0.16864 0.82654 0.49000
H 	H 	0.20553 0.19871 0.69694 0.37000
H 	H 	0.30147 0.20370 0.79318 0.34000
H 	H 	0.30178 0.29990 0.69393 0.40600
H 	H 	0.20417 0.29746 0.79231 0.32700
H 	H 	0.15608 0.29944 0.73382 0.19800
H 	H 	0.19650 0.34403 0.75872 0.16400
H 	H 	0.30646 0.15459 0.75960 0.17200
H 	H 	0.34956 0.19943 0.74727 0.17200
H 	H 	0.13181 0.23929 0.71603 0.20200
H 	H 	0.21782 0.24857 0.63113 0.21700
H 	H 	0.30154 0.23315 0.84554 0.18900
H 	H 	0.34179 0.27488 0.80311 0.22000
H 	H 	0.25739 0.19128 0.65275 0.13200
H 	H 	0.24490 0.14814 0.69610 0.13600
H 	H 	0.24562 0.34155 0.80021 0.14300
H 	H 	0.24299 0.30118 0.84398 0.15500
O 	O 	0.70445 0.74843 0.65942 -0.60100
O 	O 	0.73990 0.77870 0.64743 -0.53800
O 	O 	0.75642 0.65696 0.69954 -0.62200
O 	O 	0.79437 0.65205 0.74027 -0.56300
O 	O 	0.66404 0.69412 0.74641 -0.66400
O 	O 	0.65896 0.74250 0.79058 -0.59400
O 	O 	0.84385 0.75230 0.79820 -0.62400
O 	O 	0.85076 0.71086 0.76065 -0.60200
O 	O 	0.79966 0.83680 0.74642 -0.60000
O 	O 	0.76217 0.85203 0.72149 -0.51000
O 	O 	0.75287 0.79639 0.83787 -0.66300
O 	O 	0.71036 0.74081 0.83885 -0.58800
O 	O 	0.80086 0.74865 0.83932 -0.61000
O 	O 	0.76328 0.72154 0.85483 -0.52700
O 	O 	0.74895 0.83634 0.79428 -0.65400
O 	O 	0.71054 0.83569 0.73695 -0.56400
O 	O 	0.84294 0.79660 0.75353 -0.64200
O 	O 	0.84799 0.75103 0.70995 -0.57900
O 	O 	0.66206 0.74575 0.70121 -0.61000
O 	O 	0.64709 0.77208 0.74337 -0.52400
O 	O 	0.70766 0.65365 0.74732 -0.62400
O 	O 	0.74631 0.64615 0.78263 -0.55500
O 	O 	0.75385 0.70068 0.65937 -0.64300
O 	O 	0.79417 0.74855 0.65809 -0.57800
Zr	Zr	0.74942 0.74614 0.69080 3.20400
O 	O 	0.78624 0.77870 0.71392 -1.60800
Zr	Zr	0.75151 0.68639 0.74539 3.21100
O 	O 	0.78421 0.71287 0.78064 -1.58100
Zr	Zr	0.69244 0.74116 0.74669 3.20800
O 	O 	0.71798 0.77780 0.77956 -1.56200
Zr	Zr	0.81328 0.75055 0.75294 3.20800
O 	O 	0.78796 0.71628 0.71722 -1.27800
Zr	Zr	0.75478 0.80492 0.74903 3.20300
O 	O 	0.71729 0.78116 0.71750 -1.33800
Zr	Zr	0.75542 0.75024 0.80855 3.20900
O 	O 	0.72262 0.71323 0.78380 -1.31300
O 	O 	0.71689 0.70893 0.71165 -1.66700
O 	O 	0.78870 0.78566 0.78594 -1.36900
C 	C 	0.67220 0.74825 0.66921 0.45200
C 	C 	0.75685 0.66819 0.66787 0.47600
C 	C 	0.67519 0.66241 0.74757 0.46600
C 	C 	0.83321 0.75033 0.83007 0.45900
C 	C 	0.83209 0.82818 0.74961 0.46600
C 	C 	0.74994 0.82792 0.82686 0.48800
H 	H 	0.79960 0.79445 0.69847 0.37000
H 	H 	0.70188 0.79246 0.79332 0.34000
H 	H 	0.70250 0.69436 0.69590 0.40700
H 	H 	0.79826 0.69781 0.79609 0.32600
H 	H 	0.84781 0.69414 0.74128 0.19400
H 	H 	0.80653 0.65079 0.76292 0.16400
H 	H 	0.69836 0.84157 0.75887 0.17300
H 	H 	0.65457 0.79627 0.74813 0.17100
H 	H 	0.87206 0.75313 0.71902 0.20200
H 	H 	0.78783 0.74397 0.63348 0.21700
H 	H 	0.70129 0.76343 0.84720 0.18900
H 	H 	0.66008 0.71963 0.80242 0.22100
H 	H 	0.74871 0.80194 0.65423 0.13300
H 	H 	0.75989 0.84620 0.69641 0.13800
H 	H 	0.75402 0.65589 0.80515 0.14400
H 	H 	0.75886 0.69686 0.84883 0.15000
O 	O 	0.25031 0.66418 0.30113 -0.59600
O 	O 	0.22108 0.65133 0.26530 -0.53800
O 	O 	0.34102 0.70869 0.25269 -0.60700
O 	O 	0.35254 0.74809 0.22320 -0.52400
O 	O 	0.29700 0.75396 0.34453 -0.66700
O 	O 	0.24661 0.79589 0.34586 -0.60500
O 	O 	0.24763 0.80148 0.16015 -0.62500
O 	O 	0.28764 0.76583 0.15388 -0.59000
O 	O 	0.16149 0.74954 0.20158 -0.60200
O 	O 	0.14660 0.72151 0.23830 -0.51400
O 	O 	0.19747 0.84132 0.25178 -0.61000
O 	O 	0.23415 0.85740 0.27990 -0.52800
O 	O 	0.24392 0.84301 0.20272 -0.65700
O 	O 	0.28728 0.84592 0.25772 -0.59000
O 	O 	0.15884 0.79630 0.25031 -0.64700
O 	O 	0.15790 0.74015 0.28970 -0.56500
O 	O 	0.20359 0.75382 0.15976 -0.65000
O 	O 	0.25287 0.71215 0.15902 -0.57900
O 	O 	0.24916 0.70568 0.34390 -0.60700
O 	O 	0.21794 0.74619 0.35646 -0.53100
O 	O 	0.33934 0.75625 0.30285 -0.66300
O 	O 	0.34258 0.79740 0.25485 -0.59500
O 	O 	0.29902 0.66664 0.25295 -0.64600
O 	O 	0.25255 0.66226 0.21195 -0.57900
Zr	Zr	0.25220 0.69583 0.25613 3.20300
O 	O 	0.22026 0.71719 0.21767 -1.60900
Zr	Zr	0.30941 0.75321 0.25695 3.21100
O 	O 	0.28326 0.78612 0.22143 -1.57400
Zr	Zr	0.25190 0.75142 0.31355 3.21000
O 	O 	0.21620 0.78297 0.28570 -1.57100
Zr	Zr	0.24824 0.75672 0.19135 3.21000
O 	O 	0.28297 0.72347 0.21901 -1.28700
Zr	Zr	0.19165 0.75175 0.24757 3.20200
O 	O 	0.21444 0.72095 0.28640 -1.33900
Zr	Zr	0.24396 0.81291 0.24906 3.20800
O 	O 	0.27914 0.78982 0.28517 -1.31800
O 	O 	0.28696 0.71833 0.29044 -1.66500
O 	O 	0.21131 0.78890 0.21389 -1.36800
C 	C 	0.24916 0.67363 0.33352 0.44500
C 	C 	0.33113 0.67660 0.25140 0.47200
C 	C 	0.32909 0.75637 0.33485 0.47600
C 	C 	0.24586 0.83346 0.17043 0.47300
C 	C 	0.17155 0.75100 0.16946 0.47100
C 	C 	0.16623 0.82912 0.25184 0.46700
H 	H 	0.20556 0.70111 0.20387 0.37000
H 	H 	0.20035 0.79653 0.30081 0.34000
H 	H 	0.30184 0.70324 0.30522 0.40600
H 	H 	0.29856 0.80136 0.20740 0.34400
H 	H 	0.30615 0.74851 0.15841 0.17400
H 	H 	0.34582 0.75928 0.20102 0.15500
H 	H 	0.15163 0.76213 0.30156 0.17300
H 	H 	0.19425 0.75068 0.34741 0.17200
H 	H 	0.24931 0.71947 0.13454 0.20100
H 	H 	0.25775 0.63793 0.21885 0.21800
H 	H 	0.23891 0.85042 0.30425 0.16400
H 	H 	0.26805 0.81006 0.34383 0.20000
H 	H 	0.19803 0.65682 0.25518 0.13500
H 	H 	0.15380 0.69685 0.24083 0.13800
H 	H 	0.33903 0.81158 0.27608 0.22100
H 	H 	0.29513 0.85525 0.23504 0.18700
O 	O 	0.69810 0.24515 0.33329 -0.59600
O 	O 	0.73485 0.21932 0.34669 -0.53500
O 	O 	0.74201 0.34093 0.29321 -0.62200
O 	O 	0.78251 0.34753 0.25391 -0.56200
O 	O 	0.65520 0.29755 0.24502 -0.65900
O 	O 	0.65355 0.24766 0.20221 -0.59900
O 	O 	0.83899 0.25218 0.19655 -0.63000
O 	O 	0.84280 0.29293 0.23417 -0.60100
O 	O 	0.80013 0.16378 0.24819 -0.60200
O 	O 	0.76294 0.14681 0.27397 -0.51400
O 	O 	0.74749 0.20023 0.15616 -0.66900
O 	O 	0.70586 0.25681 0.15479 -0.58600
O 	O 	0.79675 0.24715 0.15474 -0.60000
O 	O 	0.75949 0.27443 0.13833 -0.52800
O 	O 	0.75246 0.16055 0.19988 -0.64900
O 	O 	0.71128 0.15831 0.25529 -0.56600
O 	O 	0.84065 0.20666 0.24052 -0.63700
O 	O 	0.84222 0.25235 0.28463 -0.58100
O 	O 	0.65589 0.24857 0.29133 -0.61200
O 	O 	0.64407 0.21779 0.25028 -0.52700
O 	O 	0.69619 0.34062 0.24401 -0.62500
O 	O 	0.73613 0.35018 0.20956 -0.56000
O 	O 	0.74609 0.29737 0.33345 -0.64400
O 	O 	0.78778 0.25118 0.33596 -0.58000
Zr	Zr	0.74336 0.25127 0.30265 3.20300
O 	O 	0.78254 0.22105 0.28022 -1.60900
Zr	Zr	0.74194 0.31074 0.24758 3.21100
O 	O 	0.77672 0.28612 0.21290 -1.58000
Zr	Zr	0.68665 0.25232 0.24615 3.20800
O 	O 	0.71494 0.21697 0.21397 -1.55900
Zr	Zr	0.80795 0.25080 0.24131 3.20800
O 	O 	0.78000 0.28359 0.27642 -1.27900
Zr	Zr	0.75331 0.19260 0.24499 3.20300
O 	O 	0.71385 0.21413 0.27581 -1.33900
Zr	Zr	0.75075 0.24665 0.18503 3.20800
O 	O 	0.71532 0.28176 0.20908 -1.30900
O 	O 	0.70867 0.28619 0.28121 -1.66700
O 	O 	0.78614 0.21387 0.20834 -1.37100
C 	C 	0.66587 0.24534 0.32332 0.44800
C 	C 	0.74479 0.32997 0.32487 0.47600
C 	C 	0.66433 0.32991 0.24343 0.46300
C 	C 	0.82892 0.24996 0.16455 0.45900
C 	C 	0.83191 0.17440 0.24453 0.46400
C 	C 	0.74964 0.16870 0.16735 0.48700
H 	H 	0.79680 0.20623 0.29579 0.37200
H 	H 	0.69991 0.20119 0.20025 0.34000
H 	H 	0.69316 0.30004 0.29655 0.40600
H 	H 	0.78994 0.30190 0.19743 0.32400
H 	H 	0.83890 0.30912 0.25382 0.19400
H 	H 	0.79550 0.34906 0.23173 0.16600
H 	H 	0.70074 0.15122 0.23289 0.17400
H 	H 	0.65351 0.19423 0.24589 0.17500
H 	H 	0.86644 0.25171 0.27576 0.20200
H 	H 	0.78112 0.25596 0.36045 0.21600
H 	H 	0.69622 0.23421 0.14705 0.18800
H 	H 	0.65283 0.27036 0.19003 0.22100
H 	H 	0.74552 0.19658 0.34087 0.13100
H 	H 	0.75975 0.15322 0.29879 0.13600
H 	H 	0.74043 0.33915 0.18672 0.15100
H 	H 	0.75554 0.29931 0.14385 0.14900
C 	C 	0.28459 0.09659 0.11308 -0.09900
C 	C 	0.25872 0.09428 0.08730 0.08200
C 	C 	0.23244 0.11972 0.08633 -0.10100
C 	C 	0.23173 0.14660 0.11092 0.05500
C 	C 	0.25667 0.14788 0.13755 -0.13800
C 	C 	0.28311 0.12270 0.13846 0.06200
H 	H 	0.30539 0.07759 0.11405 0.06000
H 	H 	0.21228 0.11855 0.06666 0.05200
H 	H 	0.21098 0.16563 0.10996 0.02200
H 	H 	0.30261 0.12329 0.15881 0.04500
C 	C 	0.73464 0.61446 0.58834 -0.10000
C 	C 	0.76137 0.58945 0.58826 0.08100
C 	C 	0.78756 0.59164 0.61377 -0.09800
C 	C 	0.78609 0.61724 0.63973 0.06100
C 	C 	0.75931 0.64209 0.63974 -0.13600
C 	C 	0.73394 0.64086 0.61350 0.05400
H 	H 	0.71421 0.61341 0.56895 0.05200
H 	H 	0.80871 0.57302 0.61399 0.06000
H 	H 	0.80597 0.61780 0.65971 0.04500
H 	H 	0.71294 0.65965 0.61318 0.02200
C 	C 	0.76902 0.88125 0.08754 -0.10200
C 	C 	0.74209 0.90605 0.08724 0.08200
C 	C 	0.71564 0.90358 0.11244 -0.10100
C 	C 	0.71705 0.87797 0.13836 0.06000
C 	C 	0.74405 0.85337 0.13868 -0.14700
C 	C 	0.76969 0.85481 0.11270 0.06400
H 	H 	0.78966 0.88253 0.06839 0.05500
H 	H 	0.69436 0.92206 0.11249 0.05800
H 	H 	0.69695 0.87724 0.15811 0.02200
H 	H 	0.79087 0.83620 0.11260 0.03600
C 	C 	0.26850 0.37971 0.58565 -0.10100
C 	C 	0.24141 0.40434 0.58623 0.08200
C 	C 	0.21507 0.40103 0.61138 -0.09900
C 	C 	0.21678 0.37477 0.63657 0.06200
C 	C 	0.24403 0.35045 0.63615 -0.13800
C 	C 	0.26953 0.35268 0.61011 0.05400
H 	H 	0.28903 0.38169 0.56644 0.05200
H 	H 	0.19370 0.41940 0.61206 0.06000
H 	H 	0.19688 0.37347 0.65649 0.04500
H 	H 	0.29094 0.33435 0.60958 0.02300
C 	C 	0.72683 0.11556 0.90562 -0.10100
C 	C 	0.75320 0.09017 0.90680 0.08200
C 	C 	0.78025 0.09178 0.88220 -0.10300
C 	C 	0.77999 0.11709 0.85601 0.06300
C 	C 	0.75357 0.14228 0.85474 -0.14600
C 	C 	0.72733 0.14174 0.88015 0.05900
H 	H 	0.70576 0.11495 0.92433 0.05800
H 	H 	0.80114 0.07287 0.88283 0.05400
H 	H 	0.80061 0.11721 0.83684 0.03300
H 	H 	0.70669 0.16094 0.87965 0.02300
C 	C 	0.27662 0.59503 0.38580 -0.09700
C 	C 	0.25012 0.59289 0.41095 0.07900
C 	C 	0.22369 0.61821 0.41095 -0.09500
C 	C 	0.22364 0.64496 0.38614 0.05600
C 	C 	0.24935 0.64610 0.36024 -0.11900
C 	C 	0.27581 0.62095 0.36024 0.05000
H 	H 	0.29751 0.57611 0.38555 0.05200
H 	H 	0.20305 0.61714 0.43012 0.05900
H 	H 	0.20311 0.66427 0.38664 0.04600
H 	H 	0.29611 0.62169 0.34073 0.02400
C 	C 	0.26955 0.88332 0.91006 -0.09600
C 	C 	0.24327 0.90875 0.90964 0.08100
C 	C 	0.21711 0.90678 0.88411 -0.09800
C 	C 	0.21817 0.88085 0.85854 0.05500
C 	C 	0.24454 0.85559 0.85900 -0.12000
C 	C 	0.26985 0.85662 0.88529 0.05400
H 	H 	0.28992 0.88428 0.92952 0.05700
H 	H 	0.19633 0.92582 0.88357 0.05400
H 	H 	0.19822 0.88024 0.83863 0.03800
H 	H 	0.29039 0.83733 0.88604 0.03500
C 	C 	0.77235 0.38225 0.40395 -0.09800
C 	C 	0.74632 0.40798 0.40544 0.08100
C 	C 	0.71920 0.40695 0.38086 -0.10000
C 	C 	0.71902 0.38181 0.35445 0.05600
C 	C 	0.74509 0.35625 0.35297 -0.13500
C 	C 	0.77141 0.35628 0.37830 0.05900
H 	H 	0.79346 0.38240 0.42262 0.05800
H 	H 	0.69857 0.42613 0.38172 0.05300
H 	H 	0.69826 0.38203 0.33536 0.02600
H 	H 	0.79174 0.33677 0.37765 0.03700
C 	C 	0.11701 0.22754 0.08716 -0.09900
C 	C 	0.09109 0.25332 0.08636 0.08200
C 	C 	0.09062 0.27890 0.11253 -0.09700
C 	C 	0.11536 0.27836 0.13928 0.05900
C 	C 	0.14157 0.25297 0.13948 -0.12200
C 	C 	0.14242 0.22777 0.11314 0.05300
H 	H 	0.11763 0.20733 0.06752 0.05300
H 	H 	0.07087 0.29900 0.11239 0.05900
H 	H 	0.11443 0.29803 0.15945 0.04400
H 	H 	0.16235 0.20786 0.11311 0.02300
C 	C 	0.61884 0.72666 0.58991 -0.09900
C 	C 	0.59328 0.75283 0.59070 0.08200
C 	C 	0.59395 0.77756 0.61762 -0.09700
C 	C 	0.61944 0.77583 0.64355 0.05900
C 	C 	0.64532 0.75013 0.64217 -0.12300
C 	C 	0.64505 0.72574 0.61508 0.05300
H 	H 	0.61859 0.70711 0.56961 0.05200
H 	H 	0.57454 0.79797 0.61868 0.06000
H 	H 	0.61934 0.79484 0.66437 0.04600
H 	H 	0.66467 0.70555 0.61387 0.02400
C 	C 	0.08992 0.76481 0.88104 -0.10500
C 	C 	0.09041 0.73968 0.90764 0.08500
C 	C 	0.11738 0.71496 0.90814 -0.10300
C 	C 	0.14382 0.71598 0.88306 0.06300
C 	C 	0.14291 0.74084 0.85631 -0.15100
C 	C 	0.11554 0.76491 0.85524 0.06700
H 	H 	0.06964 0.78437 0.88030 0.05500
H 	H 	0.11825 0.69530 0.92831 0.05900
H 	H 	0.16479 0.69718 0.88429 0.02200
H 	H 	0.11459 0.78447 0.83501 0.03300
C 	C 	0.61291 0.21502 0.40039 -0.09700
C 	C 	0.58657 0.24039 0.40144 0.08200
C 	C 	0.58654 0.26708 0.37645 -0.09900
C 	C 	0.61202 0.26809 0.35060 0.05300
C 	C 	0.63870 0.24323 0.35007 -0.12200
C 	C 	0.63920 0.21681 0.37524 0.05800
H 	H 	0.61340 0.19424 0.41942 0.05900
H 	H 	0.56676 0.28715 0.37704 0.05300
H 	H 	0.61143 0.28880 0.33150 0.02600
H 	H 	0.65960 0.19736 0.37509 0.04600
C 	C 	0.88453 0.72280 0.09246 -0.09800
C 	C 	0.91213 0.74682 0.09310 0.08000
C 	C 	0.91275 0.77232 0.11933 -0.10000
C 	C 	0.88683 0.77324 0.14484 0.05500
C 	C 	0.85897 0.74968 0.14380 -0.13000
C 	C 	0.85784 0.72462 0.11723 0.05400
H 	H 	0.88350 0.70290 0.07253 0.05800
H 	H 	0.93347 0.79141 0.12013 0.05300
H 	H 	0.88819 0.79277 0.16504 0.03500
H 	H 	0.83669 0.70602 0.11608 0.03800
C 	C 	0.41400 0.26752 0.61694 -0.09700
C 	C 	0.41268 0.24235 0.59042 0.08000
C 	C 	0.38523 0.21820 0.59021 -0.09600
C 	C 	0.35923 0.21964 0.61566 0.05400
C 	C 	0.36091 0.24449 0.64238 -0.12000
C 	C 	0.38868 0.26819 0.64304 0.05000
H 	H 	0.43470 0.28665 0.61738 0.05300
H 	H 	0.38374 0.19857 0.57004 0.05900
H 	H 	0.33803 0.20108 0.61475 0.05000
H 	H 	0.39026 0.28779 0.66325 0.03400
C 	C 	0.88193 0.22475 0.90581 -0.10100
C 	C 	0.90832 0.25008 0.90602 0.08400
C 	C 	0.90946 0.27487 0.87915 -0.10000
C 	C 	0.88493 0.27400 0.85227 0.05700
C 	C 	0.85824 0.24913 0.85262 -0.13300
C 	C 	0.85669 0.22471 0.87967 0.06300
H 	H 	0.88082 0.20514 0.92603 0.05600
H 	H 	0.92959 0.29460 0.87885 0.05800
H 	H 	0.88638 0.29308 0.83157 0.02900
H 	H 	0.83634 0.20519 0.88014 0.03900
C 	C 	0.40753 0.78342 0.38736 -0.10300
C 	C 	0.40750 0.75819 0.41383 0.08600
C 	C 	0.38138 0.73260 0.41411 -0.10400
C 	C 	0.35535 0.73264 0.38881 0.06200
C 	C 	0.35577 0.75746 0.36209 -0.14700
C 	C 	0.38216 0.78266 0.36127 0.06400
H 	H 	0.42743 0.80337 0.38673 0.06000
H 	H 	0.38113 0.71270 0.43407 0.05500
H 	H 	0.33533 0.71280 0.38957 0.02700
H 	H 	0.38280 0.80199 0.34076 0.03100
C 	C 	0.09702 0.10999 0.27333 -0.10100
C 	C 	0.09368 0.08751 0.24471 0.08600
C 	C 	0.11674 0.09086 0.21653 -0.10300
C 	C 	0.14295 0.11611 0.21717 0.06100
C 	C 	0.14563 0.13902 0.24544 -0.13800
C 	C 	0.12242 0.13600 0.27340 0.06500
H 	H 	0.07953 0.10771 0.29532 0.05900
H 	H 	0.11445 0.07386 0.19417 0.05400
H 	H 	0.16054 0.11839 0.19525 0.02300
H 	H 	0.12418 0.15360 0.29536 0.03100
C 	C 	0.62528 0.58199 0.77365 -0.10000
C 	C 	0.59809 0.58198 0.74918 0.08300
C 	C 	0.59687 0.60832 0.72387 -0.10100
C 	C 	0.62185 0.63473 0.72360 0.05700
C 	C 	0.64911 0.63450 0.74787 -0.13700
C 	C 	0.65100 0.60771 0.77257 0.06000
H 	H 	0.62649 0.56212 0.79360 0.06000
H 	H 	0.57615 0.60874 0.70475 0.05300
H 	H 	0.62015 0.65515 0.70423 0.02800
H 	H 	0.67182 0.60727 0.79158 0.04300
C 	C 	0.89332 0.09473 0.77599 -0.10100
C 	C 	0.91490 0.09071 0.74676 0.08400
C 	C 	0.91055 0.11303 0.71812 -0.09800
C 	C 	0.88523 0.13918 0.71887 0.05600
C 	C 	0.86331 0.14263 0.74783 -0.12400
C 	C 	0.86736 0.12020 0.77629 0.06000
H 	H 	0.89640 0.07787 0.79836 0.05300
H 	H 	0.92690 0.11025 0.69533 0.05800
H 	H 	0.88224 0.15624 0.69663 0.03200
H 	H 	0.85071 0.12270 0.79886 0.03200
C 	C 	0.38816 0.60020 0.27510 -0.10100
C 	C 	0.40960 0.59729 0.24561 0.08300
C 	C 	0.40504 0.62086 0.21798 -0.10000
C 	C 	0.37986 0.64715 0.22008 0.06400
C 	C 	0.35813 0.64952 0.24931 -0.13600
C 	C 	0.36228 0.62576 0.27668 0.05700
H 	H 	0.39132 0.58242 0.29674 0.05200
H 	H 	0.42121 0.61901 0.19496 0.06000
H 	H 	0.37693 0.66528 0.19869 0.04000
H 	H 	0.34584 0.62738 0.29951 0.01800
C 	C 	0.11722 0.90319 0.72349 -0.09900
C 	C 	0.09049 0.90303 0.74845 0.08300
C 	C 	0.09007 0.87667 0.77383 -0.10200
C 	C 	0.11556 0.85070 0.77390 0.06100
C 	C 	0.14261 0.85140 0.74946 -0.13200
C 	C 	0.14345 0.87794 0.72440 0.05500
H 	H 	0.11801 0.92319 0.70364 0.05800
H 	H 	0.06991 0.87621 0.79353 0.05400
H 	H 	0.11473 0.83063 0.79361 0.03400
H 	H 	0.16420 0.87886 0.70533 0.02900
C 	C 	0.58424 0.38180 0.26704 -0.10000
C 	C 	0.58470 0.40839 0.24189 0.08100
C 	C 	0.61139 0.40859 0.21687 -0.09800
C 	C 	0.63752 0.38319 0.21750 0.05800
C 	C 	0.63664 0.35642 0.24233 -0.13500
C 	C 	0.60960 0.35569 0.26683 0.05500
H 	H 	0.56414 0.38128 0.28681 0.05300
H 	H 	0.61223 0.42874 0.19718 0.05900
H 	H 	0.65821 0.38417 0.19838 0.04200
H 	H 	0.60867 0.33543 0.28639 0.02500
C 	C 	0.90537 0.88812 0.22127 -0.10000
C 	C 	0.90432 0.91445 0.24658 0.08200
C 	C 	0.87752 0.91419 0.27149 -0.09800
C 	C 	0.85207 0.88819 0.27087 0.05600
C 	C 	0.85379 0.86141 0.24614 -0.12400
C 	C 	0.88063 0.86148 0.22143 0.05700
H 	H 	0.92574 0.88790 0.20179 0.05300
H 	H 	0.87642 0.93410 0.29142 0.05900
H 	H 	0.83157 0.88845 0.29022 0.03500
H 	H 	0.88215 0.84117 0.20203 0.03400
C 	C 	0.38373 0.40869 0.71852 -0.10300
C 	C 	0.40634 0.41163 0.74711 0.08600
C 	C 	0.40206 0.38932 0.77571 -0.10200
C 	C 	0.37624 0.36376 0.77533 0.06500
C 	C 	0.35356 0.36106 0.74691 -0.13800
C 	C 	0.35711 0.38389 0.71867 0.06000
H 	H 	0.38674 0.42564 0.69620 0.05300
H 	H 	0.41917 0.39133 0.79803 0.06000
H 	H 	0.37383 0.34619 0.79724 0.03200
H 	H 	0.33995 0.38180 0.69640 0.02300
C 	C 	0.11599 0.22133 0.90581 -0.10100
C 	C 	0.08955 0.24655 0.90478 0.08300
C 	C 	0.08966 0.27140 0.87793 -0.09800
C 	C 	0.11523 0.27050 0.85211 0.05400
C 	C 	0.14186 0.24563 0.85351 -0.12600
C 	C 	0.14231 0.22127 0.88069 0.05900
H 	H 	0.11633 0.20189 0.92622 0.05300
H 	H 	0.06971 0.29128 0.87684 0.05800
H 	H 	0.11463 0.28963 0.83141 0.03700
H 	H 	0.16262 0.20183 0.88204 0.03400
C 	C 	0.59004 0.77732 0.38288 -0.10000
C 	C 	0.58919 0.75201 0.40930 0.08400
C 	C 	0.61498 0.72608 0.40986 -0.10300
C 	C 	0.64139 0.72580 0.38480 0.05900
C 	C 	0.64171 0.75070 0.35810 -0.13800
C 	C 	0.61568 0.77624 0.35709 0.06300
H 	H 	0.57065 0.79777 0.38214 0.06000
H 	H 	0.61479 0.70627 0.42991 0.05300
H 	H 	0.66116 0.70576 0.38581 0.02500
H 	H 	0.61561 0.79572 0.33671 0.03300
C 	C 	0.88202 0.72444 0.91112 -0.09800
C 	C 	0.90955 0.74851 0.91131 0.08200
C 	C 	0.91178 0.77323 0.88446 -0.10100
C 	C 	0.88729 0.77342 0.85756 0.05700
C 	C 	0.85950 0.74976 0.85782 -0.12600
C 	C 	0.85683 0.72551 0.88496 0.05600
H 	H 	0.88005 0.70488 0.93133 0.05900
H 	H 	0.93280 0.79202 0.88413 0.05300
H 	H 	0.88969 0.79237 0.83687 0.03500
H 	H 	0.83566 0.70690 0.88546 0.03800
C 	C 	0.37839 0.22685 0.40799 -0.09800
C 	C 	0.40584 0.25099 0.40881 0.08200
C 	C 	0.40760 0.27683 0.38298 -0.10100
C 	C 	0.38282 0.27795 0.35634 0.05700
C 	C 	0.35524 0.25405 0.35588 -0.12600
C 	C 	0.35294 0.22879 0.38212 0.05600
H 	H 	0.37676 0.20646 0.42739 0.05900
H 	H 	0.42854 0.29570 0.38315 0.05300
H 	H 	0.38491 0.29769 0.33636 0.03400
H 	H 	0.33192 0.21000 0.38205 0.03800
C 	C 	0.12007 0.72190 0.09118 -0.10000
C 	C 	0.09389 0.74744 0.08961 0.08400
C 	C 	0.09341 0.77399 0.11474 -0.10200
C 	C 	0.11839 0.77473 0.14118 0.06400
C 	C 	0.14480 0.74960 0.14224 -0.13400
C 	C 	0.14572 0.72337 0.11693 0.05700
H 	H 	0.12071 0.70100 0.07228 0.05800
H 	H 	0.07353 0.79396 0.11397 0.05400
H 	H 	0.11753 0.79526 0.16041 0.03200
H 	H 	0.16594 0.70373 0.11748 0.02700
C 	C 	0.62030 0.21635 0.58334 -0.10000
C 	C 	0.59387 0.24168 0.58298 0.08400
C 	C 	0.59363 0.26757 0.60874 -0.10200
C 	C 	0.61900 0.26779 0.63474 0.05900
C 	C 	0.64564 0.24286 0.63469 -0.13700
C 	C 	0.64642 0.21736 0.60865 0.06100
H 	H 	0.62075 0.19597 0.56387 0.06000
H 	H 	0.57358 0.28738 0.60887 0.05300
H 	H 	0.61819 0.28773 0.65460 0.02400
H 	H 	0.66677 0.19784 0.60839 0.04100
C 	C 	0.88326 0.22381 0.08707 -0.10000
C 	C 	0.90937 0.24941 0.08749 0.08200
C 	C 	0.90839 0.27547 0.11313 -0.09700
C 	C 	0.88230 0.27542 0.13840 0.05300
C 	C 	0.85601 0.25014 0.13763 -0.12500
C 	C 	0.85642 0.22451 0.11165 0.05700
H 	H 	0.88357 0.20349 0.06754 0.05400
H 	H 	0.92804 0.29568 0.11366 0.05800
H 	H 	0.88230 0.29542 0.15827 0.03900
H 	H 	0.83646 0.20461 0.11091 0.03900
C 	C 	0.41043 0.77680 0.62168 -0.10000
C 	C 	0.41106 0.75217 0.59465 0.08200
C 	C 	0.38453 0.72702 0.59293 -0.10200
C 	C 	0.35774 0.72670 0.61762 0.05500
C 	C 	0.35771 0.75081 0.64503 -0.13900
C 	C 	0.38437 0.77569 0.64703 0.06200
H 	H 	0.43034 0.79669 0.62327 0.06100
H 	H 	0.38450 0.70780 0.57232 0.05300
H 	H 	0.33762 0.70703 0.61591 0.02600
H 	H 	0.38480 0.79446 0.66805 0.04700
C 	C 	0.28320 0.09163 0.88040 -0.10300
C 	C 	0.25737 0.09058 0.90630 0.08600
C 	C 	0.23040 0.11522 0.90549 -0.10500
C 	C 	0.22952 0.14072 0.87963 0.06700
C 	C 	0.25489 0.14138 0.85341 -0.14900
C 	C 	0.28158 0.11646 0.85371 0.06200
H 	H 	0.30438 0.07304 0.88073 0.05900
H 	H 	0.21020 0.11485 0.92515 0.05400
H 	H 	0.20871 0.15968 0.87976 0.03300
H 	H 	0.30155 0.11676 0.83381 0.02200
C 	C 	0.73053 0.61532 0.40716 -0.10100
C 	C 	0.75744 0.59054 0.40683 0.08200
C 	C 	0.78281 0.59241 0.38049 -0.09900
C 	C 	0.78078 0.61806 0.35457 0.06000
C 	C 	0.75420 0.64311 0.35543 -0.13600
C 	C 	0.72928 0.64168 0.38208 0.05800
H 	H 	0.71065 0.61441 0.42713 0.05200
H 	H 	0.80399 0.57383 0.37989 0.06000
H 	H 	0.80036 0.61884 0.33430 0.03800
H 	H 	0.70848 0.66066 0.38312 0.02500
C 	C 	0.72317 0.11362 0.09011 -0.10100
C 	C 	0.75002 0.08878 0.08883 0.08300
C 	C 	0.77644 0.09009 0.11415 -0.10300
C 	C 	0.77565 0.11534 0.14051 0.06300
C 	C 	0.74918 0.14052 0.14121 -0.14700
C 	C 	0.72311 0.13961 0.11565 0.06000
H 	H 	0.70253 0.11316 0.07092 0.05800
H 	H 	0.79760 0.07149 0.11351 0.05500
H 	H 	0.79627 0.11588 0.15974 0.03500
H 	H 	0.70253 0.15887 0.11567 0.02200
C 	C 	0.27803 0.58688 0.61780 -0.09600
C 	C 	0.25117 0.58674 0.59292 0.07800
C 	C 	0.22464 0.61181 0.59552 -0.09400
C 	C 	0.22528 0.63685 0.62199 0.05300
C 	C 	0.25176 0.63655 0.64715 -0.11600
C 	C 	0.27796 0.61116 0.64507 0.04700
H 	H 	0.29895 0.56807 0.61616 0.05200
H 	H 	0.20365 0.61223 0.57671 0.05800
H 	H 	0.20487 0.65627 0.62306 0.04800
H 	H 	0.29887 0.61075 0.66397 0.02900
C 	C 	0.77269 0.88332 0.90489 -0.10200
C 	C 	0.74527 0.90753 0.90552 0.08300
C 	C 	0.71942 0.90557 0.87965 -0.10100
C 	C 	0.72138 0.88032 0.85332 0.06000
C 	C 	0.74845 0.85579 0.85326 -0.14600
C 	C 	0.77393 0.85736 0.87939 0.06400
H 	H 	0.79293 0.88432 0.92448 0.05500
H 	H 	0.69786 0.92371 0.87978 0.05800
H 	H 	0.70132 0.87936 0.83354 0.02100
H 	H 	0.79505 0.83868 0.87978 0.03700
C 	C 	0.26956 0.38690 0.40341 -0.10300
C 	C 	0.24184 0.41069 0.40504 0.08400
C 	C 	0.21546 0.40892 0.37973 -0.10200
C 	C 	0.21710 0.38413 0.35297 0.06100
C 	C 	0.24445 0.35995 0.35198 -0.14800
C 	C 	0.27053 0.36141 0.37748 0.06600
H 	H 	0.29019 0.38779 0.42260 0.05500
H 	H 	0.19368 0.42679 0.38067 0.05900
H 	H 	0.19660 0.38319 0.33365 0.02100
H 	H 	0.29185 0.34296 0.37712 0.03600
C 	C 	0.27164 0.88660 0.09189 -0.09800
C 	C 	0.24531 0.91199 0.09089 0.08200
C 	C 	0.21914 0.91138 0.11644 -0.10100
C 	C 	0.21978 0.88635 0.14296 0.05800
C 	C 	0.24581 0.86072 0.14348 -0.13500
C 	C 	0.27153 0.86084 0.11759 0.05500
H 	H 	0.29204 0.88655 0.07244 0.05800
H 	H 	0.19837 0.93043 0.11594 0.05400
H 	H 	0.19952 0.88645 0.16256 0.03700
H 	H 	0.29182 0.84127 0.11759 0.03700
C 	C 	0.77709 0.38131 0.58851 -0.09800
C 	C 	0.75086 0.40682 0.58756 0.08100
C 	C 	0.72461 0.40604 0.61306 -0.10000
C 	C 	0.72503 0.38075 0.63938 0.05300
C 	C 	0.75094 0.35498 0.63984 -0.13600
C 	C 	0.77676 0.35528 0.61402 0.06100
H 	H 	0.79760 0.38136 0.56917 0.05900
H 	H 	0.70391 0.42516 0.61267 0.05300
H 	H 	0.70460 0.38070 0.65880 0.02400
H 	H 	0.79689 0.33554 0.61384 0.04500
C 	C 	0.12114 0.08574 0.72621 -0.09900
C 	C 	0.09645 0.08450 0.75317 0.08300
C 	C 	0.09765 0.10975 0.77959 -0.10100
C 	C 	0.12215 0.13663 0.77823 0.05800
C 	C 	0.14668 0.13782 0.75122 -0.13100
C 	C 	0.14645 0.11187 0.72558 0.05800
H 	H 	0.12062 0.06656 0.70556 0.05800
H 	H 	0.07904 0.10908 0.80075 0.05400
H 	H 	0.12223 0.15629 0.79845 0.03700
H 	H 	0.16526 0.11241 0.70458 0.03400
C 	C 	0.59337 0.61416 0.27558 -0.09800
C 	C 	0.59160 0.58982 0.24839 0.08100
C 	C 	0.61640 0.59129 0.22150 -0.09600
C 	C 	0.64253 0.61664 0.22185 0.05700
C 	C 	0.64346 0.64159 0.24844 -0.12100
C 	C 	0.61869 0.64026 0.27524 0.05200
H 	H 	0.57474 0.61326 0.29671 0.05300
H 	H 	0.61547 0.57276 0.20028 0.05900
H 	H 	0.66146 0.61735 0.20098 0.04500
H 	H 	0.61926 0.65920 0.29613 0.02700
C 	C 	0.11053 0.90494 0.28064 -0.09900
C 	C 	0.08508 0.90588 0.25440 0.08200
C 	C 	0.08558 0.88018 0.22833 -0.10100
C 	C 	0.11119 0.85428 0.22834 0.05900
C 	C 	0.13743 0.85435 0.25368 -0.13400
C 	C 	0.13693 0.87984 0.27985 0.05700
H 	H 	0.11048 0.92426 0.30116 0.05900
H 	H 	0.06626 0.88040 0.20780 0.05300
H 	H 	0.11125 0.83495 0.20789 0.03300
H 	H 	0.15694 0.88023 0.29969 0.03500
C 	C 	0.61231 0.39864 0.77497 -0.09700
C 	C 	0.58796 0.40057 0.74775 0.08200
C 	C 	0.58976 0.37623 0.72051 -0.09900
C 	C 	0.61485 0.34993 0.72096 0.05200
C 	C 	0.63942 0.34840 0.74788 -0.12100
C 	C 	0.63823 0.37308 0.77472 0.05800
H 	H 	0.61150 0.41726 0.79611 0.05900
H 	H 	0.57164 0.37761 0.69895 0.05200
H 	H 	0.61578 0.33140 0.69978 0.02500
H 	H 	0.65717 0.37237 0.79560 0.04600
C 	C 	0.90952 0.12082 0.21644 -0.10000
C 	C 	0.91172 0.09607 0.24334 0.08100
C 	C 	0.88739 0.09743 0.27062 -0.09800
C 	C 	0.86123 0.12277 0.27086 0.05700
C 	C 	0.85966 0.14793 0.24445 -0.12900
C 	C 	0.88415 0.14697 0.21738 0.05500
H 	H 	0.92759 0.11996 0.19483 0.05400
H 	H 	0.88848 0.07859 0.29156 0.05800
H 	H 	0.84247 0.12305 0.29190 0.03400
H 	H 	0.88305 0.16590 0.19652 0.03700
C 	C 	0.39241 0.59392 0.78470 -0.10200
C 	C 	0.41777 0.59254 0.75840 0.08500
C 	C 	0.41732 0.61766 0.73182 -0.10200
C 	C 	0.39179 0.64353 0.73138 0.06000
C 	C 	0.36567 0.64393 0.75684 -0.13900
C 	C 	0.36610 0.61902 0.78351 0.06400
H 	H 	0.39246 0.57491 0.80551 0.06000
H 	H 	0.43657 0.61695 0.71124 0.05400
H 	H 	0.39170 0.66251 0.71053 0.02700
H 	H 	0.34617 0.61913 0.80345 0.03200
C 	C 	0.88419 0.90598 0.71985 -0.09900
C 	C 	0.90916 0.90878 0.74645 0.08300
C 	C 	0.90850 0.88482 0.77405 -0.10100
C 	C 	0.88358 0.85833 0.77485 0.05900
C 	C 	0.85828 0.85604 0.74867 -0.13200
C 	C 	0.85850 0.88022 0.72133 0.05900
H 	H 	0.88452 0.92388 0.69809 0.05900
H 	H 	0.92753 0.88647 0.79478 0.05300
H 	H 	0.88369 0.83995 0.79618 0.03300
H 	H 	0.83931 0.87864 0.70075 0.03300
C 	C 	0.40374 0.39092 0.27104 -0.10100
C 	C 	0.40352 0.41510 0.24361 0.08300
C 	C 	0.37793 0.41229 0.21762 -0.10000
C 	C 	0.35254 0.38629 0.21953 0.05900
C 	C 	0.35322 0.36186 0.24664 -0.13200
C 	C 	0.37912 0.36417 0.27223 0.05900
H 	H 	0.42330 0.39256 0.29128 0.05300
H 	H 	0.37761 0.43032 0.19596 0.05900
H 	H 	0.33288 0.38469 0.19939 0.03400
H 	H 	0.37995 0.34557 0.29337 0.03300
