data_crystal

_cell_length_a 37.12950
_cell_length_b 37.12950
_cell_length_c 30.05200
_cell_angle_alpha 90.00000
_cell_angle_beta  90.00000
_cell_angle_gamma 120.00000

_symmetry_space_group_name_	'P 1'
_symmetry_space_group_name_H-M	'P 1'

loop_
_symmetry_equiv_pos_as_xyz
  x,y,z

loop_
_atom_site_label
_atom_site_type_symbol
_atom_site_fract_x
_atom_site_fract_y
_atom_site_fract_z
_atom_site_charge
C 	C 	1.02103 0.97886 0.24928 -0.05700
C 	C 	0.97707 0.95748 0.24667 0.00400
C 	C 	0.95449 0.97875 0.24701 -0.04900
C 	C 	0.97671 1.02266 0.24824 0.00200
C 	C 	1.02082 1.04580 0.25020 -0.05700
C 	C 	1.04213 1.02292 0.25143 0.00500
H 	H 	0.95989 0.92384 0.24728 0.04700
H 	H 	0.95900 1.03852 0.24888 0.03900
H 	H 	1.07567 1.03947 0.25004 0.03700
C 	C 	1.04387 1.02348 0.74909 -0.05600
C 	C 	1.02127 1.04502 0.74753 0.00100
C 	C 	0.97730 1.02380 0.74906 -0.04500
C 	C 	0.95565 0.97992 0.75099 -0.00100
C 	C 	0.97694 0.95742 0.75133 -0.04800
C 	C 	1.02077 0.97942 0.75089 0.00200
H 	H 	1.03782 1.07865 0.74797 0.04500
H 	H 	0.92197 0.96298 0.75085 0.04400
H 	H 	1.03663 0.96165 0.75055 0.04300
C 	C 	0.30905 0.62384 0.25249 -0.04700
C 	C 	0.35279 0.64614 0.25381 -0.00100
C 	C 	0.37498 0.68989 0.25504 -0.04800
C 	C 	0.35264 0.71136 0.25517 0.00000
C 	C 	0.30878 0.68990 0.25357 -0.04500
C 	C 	0.28742 0.64603 0.25219 -0.00000
H 	H 	0.36966 0.62934 0.25382 0.04300
H 	H 	0.36958 0.74495 0.25762 0.04800
H 	H 	0.25385 0.62899 0.24965 0.04800
C 	C 	0.62045 0.31249 0.75370 -0.04600
C 	C 	0.64297 0.29119 0.75414 0.00100
C 	C 	0.68672 0.31281 0.75357 -0.04800
C 	C 	0.70815 0.35656 0.75284 -0.00200
C 	C 	0.68664 0.37888 0.75287 -0.04600
C 	C 	0.64274 0.35639 0.75321 -0.00000
H 	H 	0.62646 0.25757 0.75605 0.05000
H 	H 	0.74177 0.37321 0.75103 0.04100
H 	H 	0.62584 0.37312 0.75306 0.04600
C 	C 	0.38143 0.27174 0.03615 -0.05700
C 	C 	0.35382 0.27824 0.06297 0.00400
C 	C 	0.36439 0.29411 0.10662 -0.05000
C 	C 	0.40294 0.30260 0.12434 0.00000
C 	C 	0.43115 0.29616 0.09900 -0.04700
C 	C 	0.42023 0.28115 0.05504 0.00400
H 	H 	0.32439 0.27254 0.04955 0.04300
H 	H 	0.41106 0.31441 0.15799 0.04300
H 	H 	0.44186 0.27569 0.03618 0.04500
C 	C 	0.38867 1.11034 0.46810 -0.04700
C 	C 	0.36043 1.07549 0.44325 -0.00000
C 	C 	0.36953 1.06885 0.39966 -0.04600
C 	C 	0.40792 1.09809 0.38079 0.00400
C 	C 	0.43725 1.13452 0.40403 -0.05200
C 	C 	0.42705 1.13939 0.44848 0.00000
H 	H 	0.33139 1.05277 0.45845 0.04700
H 	H 	0.41463 1.09158 0.34778 0.04800
H 	H 	0.44750 1.16688 0.46743 0.03900
C 	C 	0.72760 1.10903 0.03924 -0.04700
C 	C 	0.71843 1.07345 0.06430 0.00100
C 	C 	0.70182 1.06774 0.10757 -0.04800
C 	C 	0.69355 1.09797 0.12546 0.00600
C 	C 	0.70214 1.13422 0.10130 -0.05500
C 	C 	0.71944 1.13908 0.05814 0.00400
H 	H 	0.72557 1.05073 0.05067 0.04600
H 	H 	0.68152 1.09344 0.15902 0.04700
H 	H 	0.72477 1.16533 0.03780 0.04200
C 	C 	0.27850 0.38575 0.53407 -0.04600
C 	C 	0.28690 0.42385 0.55336 -0.00100
C 	C 	0.30337 0.43511 0.59671 -0.04600
C 	C 	0.31176 0.40750 0.62087 0.00100
C 	C 	0.30321 0.36900 0.60261 -0.04600
C 	C 	0.28711 0.35885 0.55899 -0.00000
H 	H 	0.28102 0.44514 0.53433 0.03800
H 	H 	0.32313 0.41514 0.65470 0.04900
H 	H 	0.28037 0.32936 0.54469 0.04600
C 	C 	1.10882 0.72520 0.53582 -0.04700
C 	C 	1.13849 0.71657 0.55473 0.00300
C 	C 	1.13344 0.69959 0.59818 -0.05400
C 	C 	1.09701 0.69118 0.62211 0.00400
C 	C 	1.06745 0.70050 0.60422 -0.04700
C 	C 	1.07375 0.71724 0.56101 0.00100
H 	H 	1.16501 0.72228 0.53466 0.04300
H 	H 	1.09266 0.67999 0.65601 0.04400
H 	H 	1.05063 0.72328 0.54636 0.04900
C 	C 	1.10981 0.38719 0.96530 -0.05400
C 	C 	1.07416 0.35998 0.94020 0.00500
C 	C 	1.06844 0.36943 0.89634 -0.04800
C 	C 	1.09854 0.40714 0.87730 0.00600
C 	C 	1.13477 0.43589 0.90071 -0.05400
C 	C 	1.13944 0.42533 0.94492 0.00800
H 	H 	1.05161 0.32994 0.95343 0.04400
H 	H 	1.09201 0.41456 0.84459 0.05000
H 	H 	1.16652 0.44687 0.96355 0.04100
C 	C 	-0.11026 0.27615 0.46407 -0.04600
C 	C 	-0.13993 0.28460 0.44434 0.00000
C 	C 	-0.13568 0.29924 0.39989 -0.05300
C 	C 	-0.09967 0.30613 0.37616 0.00300
C 	C 	-0.06967 0.29815 0.39503 -0.04500
C 	C 	-0.07528 0.28330 0.43900 0.00100
H 	H 	-0.16702 0.27824 0.46363 0.03900
H 	H 	-0.09321 0.31984 0.34335 0.04900
H 	H 	-0.05291 0.27597 0.45325 0.05000
C 	C 	0.72490 0.61385 0.46501 -0.04500
C 	C 	0.71686 0.57573 0.44582 -0.00200
C 	C 	0.70246 0.56536 0.40149 -0.04400
C 	C 	0.69534 0.59373 0.37693 -0.00400
C 	C 	0.70277 0.63170 0.39539 -0.04600
C 	C 	0.71770 0.64140 0.43936 -0.00100
H 	H 	0.72322 0.55484 0.46499 0.04600
H 	H 	0.68288 0.58586 0.34352 0.04100
H 	H 	0.72362 0.67059 0.45383 0.04800
C 	C 	-0.10933 0.61560 0.03303 -0.05500
C 	C 	-0.13827 0.57671 0.05202 0.00500
C 	C 	-0.13364 0.56587 0.09584 -0.04500
C 	C 	-0.09867 0.59418 0.12082 0.00200
C 	C 	-0.06933 0.63318 0.10322 -0.04600
C 	C 	-0.07517 0.64343 0.05960 0.00500
H 	H 	-0.16555 0.55501 0.03347 0.04600
H 	H 	-0.09517 0.58650 0.15472 0.04900
H 	H 	-0.05143 0.67258 0.04566 0.04300
C 	C 	0.61716 -0.10847 0.53772 -0.05400
C 	C 	0.57899 -0.13820 0.55756 0.00400
C 	C 	0.56769 -0.13309 0.60085 -0.04900
C 	C 	0.59512 -0.09736 0.62509 0.00300
C 	C 	0.63307 -0.06687 0.60660 -0.04800
C 	C 	0.64352 -0.07246 0.56291 0.00400
H 	H 	0.55653 -0.16485 0.53876 0.04100
H 	H 	0.58694 -0.09326 0.65856 0.05000
H 	H 	0.67355 -0.04957 0.54997 0.04200
C 	C 	0.27775 -0.11050 0.96788 -0.04600
C 	C 	0.28695 -0.13964 0.94828 0.00200
C 	C 	0.30227 -0.13466 0.90394 -0.05200
C 	C 	0.30982 -0.09804 0.88081 0.00100
C 	C 	0.30083 -0.06870 0.89970 -0.04700
C 	C 	0.28481 -0.07543 0.94316 0.00000
H 	H 	0.27959 -0.16728 0.96711 0.04400
H 	H 	0.32326 -0.09149 0.84790 0.04200
H 	H 	0.27859 -0.05265 0.95837 0.04900
C 	C 	0.60872 0.71765 0.96995 -0.05200
C 	C 	0.57098 0.70944 0.94897 0.00400
C 	C 	0.56094 0.69376 0.90514 -0.04400
C 	C 	0.58930 0.68578 0.88194 0.00100
C 	C 	0.62713 0.69380 0.90129 -0.04500
C 	C 	0.63602 0.70898 0.94531 0.00400
H 	H 	0.54873 0.71475 0.96663 0.04700
H 	H 	0.58232 0.67400 0.84823 0.04700
H 	H 	0.66553 0.71573 0.95934 0.04600
Zn	Zn	0.71483 0.33761 0.22623 1.25500
Zn	Zn	0.66675 0.33261 0.30988 1.24600
Zn	Zn	0.66151 0.37613 0.22662 1.25500
Zn	Zn	0.62292 0.28397 0.22728 1.25600
O 	O 	0.66649 0.33262 0.24785 -1.02000
O 	O 	0.74581 0.33488 0.27008 -0.49100
O 	O 	0.67271 0.38168 0.33230 -0.47500
O 	O 	0.70412 0.41078 0.19075 -0.47800
O 	O 	0.71026 0.32705 0.33194 -0.47300
O 	O 	0.74678 0.38565 0.19575 -0.48500
O 	O 	0.66506 0.41015 0.27078 -0.49800
O 	O 	0.58805 0.29184 0.19197 -0.48400
O 	O 	0.61795 0.28930 0.33299 -0.47000
O 	O 	0.61300 0.35970 0.19666 -0.48100
O 	O 	0.58951 0.25330 0.27164 -0.48800
O 	O 	0.63898 0.25176 0.19726 -0.48100
O 	O 	0.70670 0.29480 0.19084 -0.49000
C 	C 	0.74130 0.32844 0.31177 0.51200
C 	C 	0.67180 0.41170 0.31242 0.51200
C 	C 	0.73899 0.41356 0.18218 0.51400
C 	C 	0.58509 0.32383 0.18340 0.51500
C 	C 	0.58807 0.25804 0.31336 0.50900
C 	C 	0.67461 0.25968 0.18328 0.52400
Zn	Zn	0.37642 0.66206 0.72759 1.25300
Zn	Zn	0.28445 0.62310 0.72664 1.25600
Zn	Zn	0.33224 0.66643 0.81034 1.24600
Zn	Zn	0.33729 0.71514 0.72707 1.25500
O 	O 	0.33259 0.66672 0.74827 -1.01900
O 	O 	0.36089 0.61435 0.69685 -0.50400
O 	O 	0.25348 0.58943 0.77045 -0.48700
O 	O 	0.38064 0.67101 0.83328 -0.47500
O 	O 	0.29302 0.58853 0.69138 -0.48100
O 	O 	0.40970 0.66441 0.77179 -0.50700
O 	O 	0.28847 0.61765 0.83245 -0.47100
O 	O 	0.33467 0.74594 0.77143 -0.48600
O 	O 	0.25222 0.63897 0.69629 -0.48200
O 	O 	0.32727 0.71015 0.83300 -0.47000
O 	O 	0.29435 0.70699 0.69154 -0.48200
O 	O 	0.38551 0.74729 0.69684 -0.48000
O 	O 	0.41129 0.70509 0.69291 -0.49700
C 	C 	0.32541 0.58618 0.68313 0.51800
C 	C 	0.25766 0.58781 0.81223 0.51400
C 	C 	0.41065 0.66992 0.81359 0.51800
C 	C 	0.32872 0.74139 0.81321 0.51000
C 	C 	0.25966 0.67464 0.68302 0.52400
C 	C 	0.41384 0.73978 0.68407 0.52400
Zn	Zn	0.16462 0.36778 0.29307 1.25900
Zn	Zn	0.18630 0.30171 0.27310 1.25000
Zn	Zn	0.11390 0.30253 0.22626 1.24600
Zn	Zn	0.20250 0.36834 0.20765 1.25900
O 	O 	0.16650 0.33448 0.24996 -1.02400
O 	O 	0.18872 0.36497 0.34300 -0.49900
O 	O 	0.14656 0.24693 0.27080 -0.48400
O 	O 	0.07417 0.30589 0.25937 -0.49300
O 	O 	0.20484 0.31595 0.33094 -0.47100
O 	O 	0.11278 0.35337 0.30921 -0.48200
O 	O 	0.09785 0.24732 0.22827 -0.49300
O 	O 	0.17612 0.36607 0.15751 -0.49500
O 	O 	0.22922 0.30474 0.24032 -0.48100
O 	O 	0.11055 0.31769 0.16821 -0.48000
O 	O 	0.24018 0.35388 0.19178 -0.48100
O 	O 	0.22979 0.42279 0.22259 -0.48600
O 	O 	0.19121 0.42216 0.27867 -0.49100
C 	C 	0.20439 0.34338 0.35632 0.52000
C 	C 	0.11221 0.22741 0.24961 0.50200
C 	C 	0.07728 0.32692 0.29421 0.52100
C 	C 	0.13905 0.34526 0.14339 0.51500
C 	C 	0.24824 0.32655 0.20633 0.51700
C 	C 	0.22014 0.44218 0.25068 0.51200
Zn	Zn	0.29954 0.15957 0.70353 1.25300
Zn	Zn	0.36520 0.14332 0.74022 1.25400
Zn	Zn	0.36438 0.22127 0.76542 1.25500
Zn	Zn	0.29800 0.13863 0.79976 1.25400
O 	O 	0.33178 0.16567 0.75224 -1.01700
O 	O 	0.31500 0.14165 0.65446 -0.50200
O 	O 	0.41960 0.18042 0.74929 -0.47700
O 	O 	0.35136 0.25467 0.73242 -0.48000
O 	O 	0.36381 0.13040 0.68193 -0.48100
O 	O 	0.30423 0.20805 0.68713 -0.50500
O 	O 	0.41897 0.23938 0.75770 -0.48200
O 	O 	0.31154 0.17119 0.84939 -0.49800
O 	O 	0.35163 0.09666 0.77324 -0.47500
O 	O 	0.36133 0.23163 0.82358 -0.48500
O 	O 	0.30243 0.09463 0.81640 -0.49600
O 	O 	0.24309 0.11684 0.78710 -0.49500
O 	O 	0.24417 0.12640 0.71410 -0.49600
C 	C 	0.34331 0.13216 0.64887 0.51700
C 	C 	0.43880 0.21981 0.75365 0.53200
C 	C 	0.32545 0.24537 0.70058 0.52300
C 	C 	0.33973 0.20887 0.85583 0.53100
C 	C 	0.32459 0.07921 0.80399 0.52000
C 	C 	0.22411 0.11198 0.75030 0.53800
Zn	Zn	0.13914 0.84166 0.20307 1.25200
Zn	Zn	0.14213 0.77941 0.26397 1.25400
Zn	Zn	0.22097 0.85749 0.23964 1.25300
Zn	Zn	0.15876 0.86194 0.29943 1.25300
O 	O 	0.16524 0.83515 0.25154 -1.02000
O 	O 	0.09469 0.79347 0.18674 -0.50300
O 	O 	0.17864 0.76126 0.25554 -0.48200
O 	O 	0.23240 0.87014 0.18138 -0.48400
O 	O 	0.09531 0.74639 0.23119 -0.47700
O 	O 	0.17245 0.85923 0.15389 -0.50300
O 	O 	0.23827 0.82050 0.24898 -0.48300
O 	O 	0.20722 0.90596 0.31619 -0.49800
O 	O 	0.12887 0.76864 0.32210 -0.48100
O 	O 	0.25419 0.90420 0.27252 -0.47800
O 	O 	0.14012 0.82896 0.34878 -0.49500
O 	O 	0.12554 0.88380 0.28730 -0.49400
O 	O 	0.11774 0.87545 0.21408 -0.49700
C 	C 	0.07841 0.75604 0.19992 0.52000
C 	C 	0.21813 0.78104 0.25239 0.52300
C 	C 	0.21016 0.86838 0.14830 0.51600
C 	C 	0.24474 0.92150 0.30354 0.51800
C 	C 	0.13040 0.79115 0.35479 0.52000
C 	C 	0.11188 0.88939 0.25053 0.53600
Zn	Zn	0.63026 0.83331 0.21057 1.25800
Zn	Zn	0.69629 0.81098 0.22856 1.25000
Zn	Zn	0.69703 0.88409 0.27565 1.25000
Zn	Zn	0.63116 0.79603 0.29569 1.25900
O 	O 	0.66433 0.83139 0.25264 -1.02400
O 	O 	0.63113 0.80793 0.16081 -0.49600
O 	O 	0.75140 0.85070 0.22929 -0.47700
O 	O 	0.69346 0.92377 0.24285 -0.48600
O 	O 	0.68020 0.79162 0.17102 -0.46700
O 	O 	0.64505 0.88513 0.19384 -0.49600
O 	O 	0.75187 0.89957 0.27231 -0.48400
O 	O 	0.63479 0.82306 0.34579 -0.49700
O 	O 	0.69356 0.76815 0.26164 -0.47400
O 	O 	0.68347 0.88831 0.33398 -0.46700
O 	O 	0.64547 0.75821 0.31118 -0.48300
O 	O 	0.57643 0.76883 0.28192 -0.48600
O 	O 	0.57632 0.80780 0.22667 -0.49400
C 	C 	0.65191 0.79164 0.14667 0.51700
C 	C 	0.77135 0.88515 0.25033 0.49800
C 	C 	0.67195 0.92063 0.20843 0.52100
C 	C 	0.65631 0.86023 0.35946 0.51000
C 	C 	0.67223 0.74958 0.29611 0.51600
C 	C 	0.55666 0.77881 0.25468 0.51800
Zn	Zn	0.79713 0.16771 0.70852 1.25900
Zn	Zn	0.81228 0.11626 0.77419 1.24900
Zn	Zn	0.88523 0.18996 0.72816 1.24900
Zn	Zn	0.83388 0.20383 0.79535 1.25900
O 	O 	0.83240 0.16921 0.75154 -1.02100
O 	O 	0.75877 0.11588 0.69306 -0.48300
O 	O 	0.85149 0.10061 0.77063 -0.48500
O 	O 	0.88908 0.20809 0.66992 -0.46600
O 	O 	0.76880 0.07695 0.74147 -0.48500
O 	O 	0.82362 0.19077 0.65810 -0.49100
O 	O 	0.90137 0.15091 0.73034 -0.47900
O 	O 	0.88571 0.24239 0.81048 -0.47800
O 	O 	0.79493 0.11158 0.83271 -0.47000
O 	O 	0.92462 0.23325 0.76122 -0.47600
O 	O 	0.81167 0.17671 0.84575 -0.49800
O 	O 	0.80506 0.22981 0.78261 -0.48900
O 	O 	0.77083 0.19590 0.72249 -0.48600
C 	C 	0.75006 0.08029 0.70751 0.51700
C 	C 	0.88629 0.11590 0.75028 0.50100
C 	C 	0.86077 0.20664 0.64441 0.51500
C 	C 	0.92130 0.25153 0.79563 0.51900
C 	C 	0.79642 0.13945 0.85890 0.51700
C 	C 	0.77802 0.22259 0.75275 0.51900
Zn	Zn	0.85876 0.70071 0.70289 1.25200
Zn	Zn	0.77648 0.63469 0.73812 1.25400
Zn	Zn	0.85480 0.63451 0.76321 1.25400
Zn	Zn	0.83864 0.70055 0.79912 1.25400
O 	O 	0.83215 0.66759 0.75087 -1.02100
O 	O 	0.82606 0.68587 0.65335 -0.49800
O 	O 	0.75874 0.58018 0.74633 -0.48100
O 	O 	0.90151 0.64804 0.73036 -0.48100
O 	O 	0.76554 0.63702 0.67983 -0.48200
O 	O 	0.90316 0.69679 0.68679 -0.50000
O 	O 	0.81789 0.57996 0.75492 -0.48200
O 	O 	0.85781 0.68643 0.84818 -0.49100
O 	O 	0.74323 0.64769 0.77155 -0.47800
O 	O 	0.86820 0.63681 0.82128 -0.48700
O 	O 	0.79002 0.69553 0.81618 -0.49200
O 	O 	0.87155 0.75571 0.78748 -0.48800
O 	O 	0.87995 0.75577 0.71444 -0.49200
C 	C 	0.78827 0.65782 0.64716 0.51800
C 	C 	0.77849 0.56056 0.75071 0.53000
C 	C 	0.91892 0.67505 0.69960 0.51800
C 	C 	0.86728 0.65815 0.85393 0.52500
C 	C 	0.75254 0.67373 0.80329 0.51300
C 	C 	0.88545 0.77536 0.75097 0.51600
C 	C 	0.08296 0.34797 0.03676 -0.26200
C 	C 	0.11632 0.37603 0.00920 0.18400
C 	C 	0.15679 0.39222 0.02663 -0.26700
C 	C 	0.16379 0.38169 0.06919 0.47600
C 	C 	0.13043 0.35437 0.09697 -0.35500
C 	C 	0.08982 0.33746 0.07984 0.47600
H 	H 	0.05104 0.33518 0.02618 0.14100
H 	H 	0.18397 0.41192 0.00687 0.14400
H 	H 	0.12211 0.43788 0.09113 0.05800
H 	H 	0.02318 0.25047 0.18482 0.13400
F 	F 	0.05646 0.31134 0.10492 -0.44500
F 	F 	0.20391 0.39828 0.08263 -0.43000
C 	C 	0.27069 0.35224 0.45811 -0.26200
C 	C 	0.25901 0.37332 0.48878 0.17900
C 	C 	0.22785 0.38214 0.47612 -0.26800
C 	C 	0.20961 0.37141 0.43390 0.47600
C 	C 	0.22197 0.35127 0.40253 -0.35500
C 	C 	0.25244 0.34129 0.41552 0.47700
H 	H 	0.29472 0.34504 0.46668 0.13800
H 	H 	0.21715 0.39718 0.49920 0.14200
H 	H 	0.26501 0.47663 0.45705 0.05600
H 	H 	0.30590 0.44247 0.40997 0.04700
F 	F 	0.26569 0.32226 0.38666 -0.43600
F 	F 	0.17945 0.38066 0.42408 -0.42800
C 	C 	0.32880 0.23033 0.97821 -0.27100
C 	C 	0.37066 0.25659 0.99143 0.18500
C 	C 	0.40155 0.26740 0.95848 -0.27100
C 	C 	0.39125 0.25300 0.91457 0.48100
C 	C 	0.34960 0.22619 0.90199 -0.36600
C 	C 	0.31850 0.21483 0.93450 0.48100
H 	H 	0.30371 0.21987 1.00205 0.13900
H 	H 	0.43400 0.28846 0.96584 0.14500
H 	H 	0.36830 0.16854 0.97012 0.06300
H 	H 	0.23665 0.09511 0.88314 0.12200
F 	F 	0.27798 0.18886 0.92402 -0.45400
F 	F 	0.42249 0.26444 0.88461 -0.43100
C 	C 	0.33710 0.10939 0.52389 -0.26500
C 	C 	0.37722 0.11627 0.51438 0.17700
C 	C 	0.40572 0.12767 0.54963 -0.26200
C 	C 	0.39444 0.13175 0.59323 0.47700
C 	C 	0.35422 0.12505 0.60281 -0.35600
C 	C 	0.32578 0.11398 0.56727 0.47700
H 	H 	0.31445 0.10086 0.49744 0.13900
H 	H 	0.43673 0.13294 0.54353 0.14500
H 	H 	0.40924 0.21022 0.50780 0.04700
H 	H 	0.33378 0.21161 0.59365 0.06600
F 	F 	0.28677 0.10719 0.57439 -0.45500
F 	F 	0.42350 0.14339 0.62579 -0.42400
C 	C 	0.77756 0.15523 0.98028 -0.26500
C 	C 	0.74641 0.11547 0.99359 0.17900
C 	C 	0.73348 0.08254 0.96287 -0.26100
C 	C 	0.75028 0.08955 0.91953 0.47700
C 	C 	0.78057 0.12986 0.90585 -0.35300
C 	C 	0.79441 0.16243 0.93737 0.47700
H 	H 	0.78917 0.18108 1.00332 0.14500
H 	H 	0.70943 0.05147 0.97194 0.14100
H 	H 	0.73007 0.12688 0.78715 0.02600
H 	H 	0.69648 0.14168 0.92881 0.05400
F 	F 	0.82459 0.20168 0.92694 -0.42300
F 	F 	0.73571 0.05719 0.89062 -0.43500
C 	C 	0.27699 0.87207 0.04941 -0.26100
C 	C 	0.26009 0.88351 0.01401 0.18000
C 	C 	0.22695 0.89061 0.02327 -0.26300
C 	C 	0.21096 0.88622 0.06659 0.47800
C 	C 	0.22817 0.87516 0.10228 -0.35600
C 	C 	0.26158 0.86821 0.09293 0.47500
H 	H 	0.30268 0.86667 0.04349 0.14000
H 	H 	0.21302 0.89922 -0.00331 0.13800
H 	H 	0.11752 0.79039 0.09272 0.06900
H 	H 	0.16292 0.77299 0.16049 0.01600
F 	F 	0.27888 0.85663 0.12567 -0.43600
F 	F 	0.17886 0.89324 0.07349 -0.45600
C 	C 	0.12539 0.72476 0.45441 -0.26400
C 	C 	0.11394 0.74202 0.48943 0.18100
C 	C 	0.10667 0.77494 0.47962 -0.26500
C 	C 	0.11137 0.79066 0.43611 0.47900
C 	C 	0.12283 0.77330 0.40089 -0.35600
C 	C 	0.12955 0.73987 0.41078 0.47700
H 	H 	0.13080 0.69914 0.46074 0.14400
H 	H 	0.09793 0.78902 0.50592 0.14000
H 	H 	0.20820 0.81834 0.45695 0.05700
H 	H 	0.22584 0.83279 0.34455 0.03300
F 	F 	0.14147 0.72240 0.37853 -0.42600
F 	F 	0.10444 0.82274 0.42857 -0.45100
C 	C 	0.91655 0.27018 0.54024 -0.25800
C 	C 	0.88325 0.25803 0.51014 0.17700
C 	C 	0.84340 0.22763 0.52411 -0.26300
C 	C 	0.83659 0.21054 0.56692 0.47400
C 	C 	0.86968 0.22326 0.59766 -0.34900
C 	C 	0.90996 0.25307 0.58340 0.47800
H 	H 	0.94771 0.29365 0.53071 0.14300
H 	H 	0.81721 0.21652 0.50160 0.14000
H 	H 	0.85254 0.31530 0.54935 0.05900
H 	H 	0.83553 0.11099 0.66404 0.01400
F 	F 	0.94283 0.26668 0.61150 -0.43000
F 	F 	0.79722 0.18106 0.57789 -0.42900
C 	C 	0.72359 0.59631 0.54653 -0.26200
C 	C 	0.74095 0.62531 0.51174 0.17900
C 	C 	0.77330 0.66565 0.52211 -0.26400
C 	C 	0.78833 0.67659 0.56587 0.47800
C 	C 	0.77085 0.64752 0.60085 -0.35600
C 	C 	0.73801 0.60719 0.59045 0.47600
H 	H 	0.69844 0.56512 0.53978 0.14300
H 	H 	0.78754 0.68870 0.49605 0.14000
H 	H 	0.81810 0.60890 0.54673 0.05900
H 	H 	0.78974 0.72347 0.71364 0.01000
F 	F 	0.72052 0.57760 0.62250 -0.42600
F 	F 	0.81987 0.71577 0.57387 -0.45400
C 	C 	0.90096 0.66840 0.97573 -0.26600
C 	C 	0.88567 0.62648 0.98857 0.18800
C 	C 	0.86520 0.59574 0.95557 -0.26600
C 	C 	0.86051 0.60626 0.91194 0.48200
C 	C 	0.87515 0.64797 0.89976 -0.36200
C 	C 	0.89523 0.67890 0.93234 0.48500
H 	H 	0.91577 0.69338 0.99966 0.14200
H 	H 	0.85393 0.56326 0.96265 0.14600
H 	H 	0.79868 0.62849 0.96607 0.06800
H 	H 	0.93361 0.72805 0.78554 0.02200
F 	F 	0.90961 0.71947 0.92223 -0.44700
F 	F 	0.84037 0.57518 0.88188 -0.43100
C 	C 	0.60323 0.75972 0.03087 -0.26700
C 	C 	0.61963 0.73550 0.01378 0.18500
C 	C 	0.64790 0.73069 0.04152 -0.26200
C 	C 	0.65884 0.74889 0.08415 0.47900
C 	C 	0.64202 0.77282 0.10079 -0.35200
C 	C 	0.61414 0.77803 0.07307 0.48100
H 	H 	0.58316 0.76663 0.01104 0.14400
H 	H 	0.66069 0.71144 0.03143 0.14300
H 	H 	0.70055 0.82729 0.01322 0.06800
H 	H 	0.72385 0.88854 0.15934 0.02400
F 	F 	0.59747 0.80157 0.08616 -0.44000
F 	F 	0.68533 0.74226 0.10929 -0.43100
C 	C 	0.65648 0.91774 0.46620 -0.25900
C 	C 	0.62854 0.88473 0.49412 0.18600
C 	C 	0.61211 0.84404 0.47721 -0.26500
C 	C 	0.62178 0.83650 0.43453 0.47300
C 	C 	0.64853 0.86949 0.40612 -0.35300
C 	C 	0.66614 0.91033 0.42291 0.47700
H 	H 	0.66969 0.94976 0.47660 0.14100
H 	H 	0.59265 0.81711 0.49743 0.14200
H 	H 	0.69248 0.81170 0.42125 0.09600
H 	H 	0.54681 0.80582 0.35461 0.08500
F 	F 	0.69199 0.94335 0.39727 -0.43300
F 	F 	0.60482 0.79620 0.42157 -0.43600
C 	C 	0.30001 0.55553 0.22514 -0.26500
C 	C 	0.28600 0.57735 0.25149 0.18400
C 	C 	0.25005 0.55441 0.27734 -0.26600
C 	C 	0.22875 0.51082 0.27721 0.47900
C 	C 	0.24280 0.48876 0.25083 -0.36000
C 	C 	0.27879 0.51193 0.22462 0.48000
H 	H 	0.32734 0.57229 0.20443 0.14100
H 	H 	0.23870 0.57029 0.29835 0.14300
H 	H 	0.24673 0.45477 0.36028 0.08000
H 	H 	0.19076 0.45316 0.15213 0.08000
F 	F 	0.29392 0.49264 0.19860 -0.43800
F 	F 	0.19425 0.49044 0.30294 -0.44000
C 	C 	0.24651 0.69704 0.27438 -0.26200
C 	C 	0.28541 0.71323 0.25322 0.18300
C 	C 	0.30180 0.75200 0.23175 -0.26500
C 	C 	0.28028 0.77409 0.23171 0.47800
C 	C 	0.24121 0.75768 0.25266 -0.35600
C 	C 	0.22455 0.71871 0.27390 0.48500
H 	H 	0.23318 0.66776 0.29207 0.14400
H 	H 	0.33116 0.76517 0.21424 0.13800
H 	H 	0.30810 0.77885 0.12456 0.08600
H 	H 	0.22943 0.76688 0.14351 0.08100
F 	F 	0.18744 0.70191 0.29533 -0.42100
F 	F 	0.29738 0.81113 0.21010 -0.43200
C 	C 	0.44416 0.74918 0.23008 -0.26800
C 	C 	0.42148 0.71312 0.25583 0.18200
C 	C 	0.44358 0.69908 0.28168 -0.26800
C 	C 	0.48719 0.72031 0.28167 0.48100
C 	C 	0.51009 0.75636 0.25546 -0.36000
C 	C 	0.48774 0.77053 0.22975 0.48400
H 	H 	0.42809 0.76057 0.20942 0.14200
H 	H 	0.42705 0.67167 0.30232 0.14100
H 	H 	0.42696 0.65773 0.18246 0.05900
H 	H 	0.56914 0.84779 0.13809 0.14900
F 	F 	0.50783 0.80517 0.20417 -0.44900
F 	F 	0.50676 0.70509 0.30711 -0.43900
C 	C 	0.55163 0.25071 0.73091 -0.26300
C 	C 	0.57378 0.28878 0.75376 0.18300
C 	C 	0.55089 0.30385 0.77660 -0.26400
C 	C 	0.50727 0.28172 0.77647 0.48900
C 	C 	0.48519 0.24344 0.75385 -0.35500
C 	C 	0.50803 0.22818 0.73115 0.48700
H 	H 	0.56801 0.23848 0.71210 0.14500
H 	H 	0.56670 0.33256 0.79530 0.14700
H 	H 	0.57476 0.34537 0.67706 0.06100
H 	H 	0.39620 0.22753 0.66164 0.02700
F 	F 	0.48828 0.19195 0.70805 -0.42000
F 	F 	0.48674 0.29741 0.79950 -0.42000
C 	C 	0.69670 0.25396 0.72714 -0.26800
C 	C 	0.71002 0.28964 0.75355 0.18300
C 	C 	0.74582 0.30307 0.77979 -0.26800
C 	C 	0.76777 0.28142 0.77981 0.48200
C 	C 	0.75455 0.24563 0.75315 -0.36000
C 	C 	0.71858 0.23226 0.72675 0.48400
H 	H 	0.66947 0.24307 0.70620 0.14500
H 	H 	0.75666 0.33025 0.80081 0.14400
H 	H 	0.77143 0.34471 0.68054 0.05600
H 	H 	0.73940 0.18973 0.85338 0.07200
F 	F 	0.70410 0.19791 0.70070 -0.43600
F 	F 	0.80224 0.29598 0.80566 -0.43700
C 	C 	0.69483 0.44804 0.72903 -0.26200
C 	C 	0.71009 0.42556 0.75235 0.18100
C 	C 	0.74820 0.44813 0.77503 -0.26400
C 	C 	0.77055 0.49172 0.77422 0.48800
C 	C 	0.75506 0.51416 0.75109 -0.35400
C 	C 	0.71677 0.49167 0.72859 0.48600
H 	H 	0.66612 0.43191 0.71036 0.14200
H 	H 	0.76062 0.43208 0.79413 0.14500
H 	H 	0.76518 0.42506 0.67518 0.05600
H 	H 	0.83000 0.60436 0.65918 0.03300
F 	F 	0.70090 0.51179 0.70511 -0.42100
F 	F 	0.80684 0.51189 0.79717 -0.42100
C 	C 	0.48608 0.27617 0.11279 -0.26200
C 	C 	0.47178 0.30449 0.11873 0.18200
C 	C 	0.49621 0.34034 0.14438 -0.26200
C 	C 	0.53360 0.34747 0.16405 0.47900
C 	C 	0.54743 0.31851 0.15903 -0.35200
C 	C 	0.52313 0.28284 0.13275 0.48300
H 	H 	0.46794 0.24811 0.09353 0.14200
H 	H 	0.48633 0.36299 0.14927 0.13800
H 	H 	0.50949 0.27323 0.25133 0.07700
H 	H 	0.58023 0.33683 0.28927 0.02100
F 	F 	0.53503 0.25410 0.12633 -0.43700
F 	F 	0.55536 0.38207 0.18933 -0.45000
C 	C 	0.47794 0.16837 0.33572 -0.26300
C 	C 	0.47499 0.16540 0.38263 0.18100
C 	C 	0.51063 0.19461 0.40673 -0.25800
C 	C 	0.54729 0.22450 0.38495 0.47500
C 	C 	0.54979 0.22642 0.33807 -0.34600
C 	C 	0.51417 0.19777 0.31401 0.47600
H 	H 	0.45159 0.14927 0.31469 0.14200
H 	H 	0.51123 0.19388 0.44265 0.14000
H 	H 	0.44387 0.22722 0.41099 0.04900
H 	H 	0.66315 0.24170 0.28896 0.03500
F 	F 	0.51346 0.19851 0.26885 -0.44100
F 	F 	0.58044 0.25108 0.41000 -0.43400
C 	C 	0.71751 0.20736 0.10752 -0.26900
C 	C 	0.69398 0.16500 0.12000 0.18700
C 	C 	0.66240 0.15449 0.15215 -0.26800
C 	C 	0.65497 0.18476 0.17116 0.48100
C 	C 	0.67950 0.22698 0.15950 -0.36200
C 	C 	0.71081 0.23782 0.12728 0.48700
H 	H 	0.74290 0.21784 0.08408 0.14400
H 	H 	0.64220 0.12252 0.16204 0.14300
H 	H 	0.62782 0.18085 0.06562 0.06900
H 	H 	0.72485 0.23231 0.25091 0.08200
F 	F 	0.73527 0.27810 0.11487 -0.44800
F 	F 	0.62461 0.17272 0.20231 -0.44500
C 	C 	0.28043 0.48756 0.61211 -0.26600
C 	C 	0.31010 0.47486 0.61730 0.18100
C 	C 	0.34575 0.50009 0.64284 -0.26600
C 	C 	0.35147 0.53679 0.66297 0.47600
C 	C 	0.32123 0.54907 0.65858 -0.36000
C 	C 	0.28569 0.52390 0.63253 0.48300
H 	H 	0.25245 0.46874 0.59297 0.14400
H 	H 	0.36939 0.49144 0.64718 0.13900
H 	H 	0.35759 0.55774 0.55545 0.05300
H 	H 	0.39128 0.63741 0.60531 0.08300
F 	F 	0.25577 0.53429 0.62669 -0.43800
F 	F 	0.38608 0.55946 0.68796 -0.46200
C 	C 	0.82977 0.30599 0.33229 -0.26400
C 	C 	0.83346 0.30640 0.37911 0.18300
C 	C 	0.80516 0.31375 0.40380 -0.25900
C 	C 	0.77542 0.32105 0.38261 0.47800
C 	C 	0.77280 0.32128 0.33580 -0.35000
C 	C 	0.80051 0.31336 0.31116 0.47800
H 	H 	0.84823 0.29809 0.31098 0.14200
H 	H 	0.80658 0.31551 0.43969 0.13800
H 	H 	0.77153 0.21380 0.41119 0.05800
H 	H 	0.75761 0.42114 0.28691 0.03300
F 	F 	0.79893 0.31146 0.26602 -0.44300
F 	F 	0.74974 0.32854 0.40815 -0.43600
C 	C 	0.70403 0.52510 0.33451 -0.26600
C 	C 	0.69556 0.52565 0.38003 0.17500
C 	C 	0.68019 0.48806 0.40398 -0.25900
C 	C 	0.67277 0.45101 0.38274 0.47600
C 	C 	0.68020 0.45052 0.33675 -0.35600
C 	C 	0.69634 0.48841 0.31317 0.47300
H 	H 	0.71714 0.55341 0.31507 0.13900
H 	H 	0.67303 0.48705 0.43903 0.13900
H 	H 	0.61045 0.50390 0.33761 0.05000
H 	H 	0.59688 0.42997 0.28199 0.08800
F 	F 	0.70570 0.49049 0.26922 -0.45100
F 	F 	0.65728 0.41551 0.40701 -0.43900
C 	C 	0.84477 0.50096 0.14183 -0.26100
C 	C 	0.83376 0.52566 0.11613 0.18200
C 	C 	0.79122 0.51212 0.11078 -0.26100
C 	C 	0.76055 0.47552 0.13126 0.48300
C 	C 	0.77153 0.45089 0.15748 -0.35500
C 	C 	0.81423 0.46400 0.16197 0.47300
H 	H 	0.87723 0.51031 0.14637 0.14200
H 	H 	0.78159 0.53052 0.09156 0.14400
H 	H 	0.78565 0.49910 0.24624 0.08500
H 	H 	0.77309 0.37346 0.10625 0.10800
F 	F 	0.82675 0.44192 0.18716 -0.44200
F 	F 	0.72004 0.46437 0.12536 -0.43500
C 	C 	0.20685 0.71582 0.60540 -0.26500
C 	C 	0.16442 0.69205 0.61761 0.18600
C 	C 	0.15409 0.66104 0.65042 -0.26400
C 	C 	0.18457 0.65433 0.67021 0.48300
C 	C 	0.22684 0.67910 0.65879 -0.35500
C 	C 	0.23751 0.70990 0.62601 0.48500
H 	H 	0.21722 0.74083 0.58150 0.14100
H 	H 	0.12211 0.64076 0.66024 0.14200
H 	H 	0.18206 0.62575 0.56561 0.07100
H 	H 	0.33344 0.66709 0.63626 0.01700
F 	F 	0.27782 0.73456 0.61380 -0.44300
F 	F 	0.17267 0.62439 0.70183 -0.44200
C 	C 	0.16930 0.47692 0.83304 -0.26600
C 	C 	0.16552 0.47389 0.87985 0.18600
C 	C 	0.19358 0.50973 0.90442 -0.26000
C 	C 	0.22326 0.54670 0.88312 0.47700
C 	C 	0.22610 0.54927 0.83632 -0.35000
C 	C 	0.19858 0.51346 0.81179 0.48000
H 	H 	0.15093 0.45039 0.81189 0.14500
H 	H 	0.19197 0.51033 0.94029 0.14100
H 	H 	0.25773 0.48344 0.86001 0.06400
H 	H 	0.33467 0.57772 0.78787 0.02900
F 	F 	0.20045 0.51287 0.76668 -0.43400
F 	F 	0.24872 0.58007 0.90854 -0.43400
C 	C 	0.50205 0.84553 0.64530 -0.26400
C 	C 	0.52733 0.83446 0.62077 0.18300
C 	C 	0.51386 0.79195 0.61550 -0.26800
C 	C 	0.47670 0.76132 0.63492 0.48600
C 	C 	0.45152 0.77234 0.66008 -0.35500
C 	C 	0.46456 0.81501 0.66450 0.48400
H 	H 	0.51127 0.87798 0.64955 0.14500
H 	H 	0.53265 0.78231 0.59701 0.14100
H 	H 	0.47061 0.81648 0.53880 0.05900
H 	H 	0.45195 0.65086 0.69086 0.12500
F 	F 	0.44188 0.82748 0.68870 -0.43800
F 	F 	0.46556 0.72081 0.62904 -0.45500
C 	C 	0.30880 0.83139 0.83560 -0.26400
C 	C 	0.30892 0.83437 0.88250 0.18100
C 	C 	0.31526 0.80511 0.90659 -0.25800
C 	C 	0.32188 0.77515 0.88478 0.47300
C 	C 	0.32232 0.77316 0.83790 -0.34700
C 	C 	0.31540 0.80185 0.81386 0.47600
H 	H 	0.30162 0.85060 0.81463 0.14000
H 	H 	0.31669 0.80590 0.94251 0.13800
H 	H 	0.40540 0.86513 0.85918 0.06900
H 	H 	0.24221 0.66485 0.78729 0.04200
F 	F 	0.31372 0.80099 0.76870 -0.43700
F 	F 	0.32843 0.74855 0.90982 -0.43600
C 	C 	0.48405 0.67313 0.90590 -0.25700
C 	C 	0.52188 0.68756 0.88264 0.18100
C 	C 	0.52245 0.69681 0.83720 -0.26300
C 	C 	0.48667 0.69121 0.81539 0.47700
C 	C 	0.44858 0.67627 0.83837 -0.35600
C 	C 	0.44792 0.66770 0.88419 0.48000
H 	H 	0.48213 0.66533 0.94085 0.14200
H 	H 	0.55103 0.70922 0.81831 0.14100
H 	H 	0.42102 0.75641 0.78828 0.03700
H 	H 	0.42876 0.59637 0.77532 0.09200
F 	F 	0.41219 0.65313 0.90787 -0.43600
F 	F 	0.48989 0.70154 0.77164 -0.45300
C 	C 	0.08201 0.97245 0.27207 -0.26600
C 	C 	0.04351 0.95669 0.24961 0.18500
C 	C 	0.02821 0.91810 0.22747 -0.26500
C 	C 	0.05066 0.89681 0.22702 0.48300
C 	C 	0.08852 0.91250 0.25015 -0.36200
C 	C 	0.10372 0.95041 0.27303 0.48300
H 	H 	0.09486 1.00116 0.29077 0.14200
H 	H 	-0.00043 0.90488 0.20861 0.14200
H 	H 	0.10969 0.98260 0.16941 0.06200
H 	H 	0.20742 0.93574 0.21641 0.02700
F 	F 	0.14013 0.96665 0.29576 -0.44000
F 	F 	0.03486 0.86029 0.20456 -0.43600
C 	C 	0.02576 0.11394 0.23273 -0.26200
C 	C 	0.04317 0.09067 0.25045 0.18000
C 	C 	0.08389 0.11382 0.26809 -0.26300
C 	C 	0.10599 0.15756 0.26791 0.47300
C 	C 	0.08845 0.18046 0.24988 -0.35400
C 	C 	0.04782 0.15772 0.23229 0.47200
H 	H 	-0.00455 0.09870 0.21719 0.13500
H 	H 	0.09878 0.09851 0.28386 0.14100
H 	H 	0.09252 0.08609 0.16875 0.05000
H 	H 	0.18895 0.22151 0.19790 0.08000
F 	F 	0.02899 0.17763 0.21437 -0.45500
F 	F 	0.14482 0.17729 0.28562 -0.44200
C 	C 	0.88486 0.91832 0.22226 -0.26000
C 	C 	0.90754 0.95495 0.24738 0.17500
C 	C 	0.88491 0.96833 0.27338 -0.26200
C 	C 	0.84119 0.94603 0.27436 0.46800
C 	C 	0.81830 0.90915 0.24924 -0.34900
C 	C 	0.84109 0.89575 0.22308 0.47000
H 	H 	0.90104 0.90723 0.20136 0.14000
H 	H 	0.90109 0.99592 0.29382 0.14000
H 	H 	0.89604 1.01149 0.17960 0.04600
H 	H 	0.81223 0.94325 0.15578 0.05200
F 	F 	0.82125 0.86087 0.19783 -0.43700
F 	F 	0.82151 0.96069 0.30044 -0.44200
C 	C 	0.11193 0.08432 0.72775 -0.26300
C 	C 	0.08850 0.04540 0.74920 0.18400
C 	C 	0.11107 0.02902 0.77087 -0.26500
C 	C 	0.15479 0.05080 0.77178 0.48500
C 	C 	0.17766 0.08908 0.74965 -0.36100
C 	C 	0.15569 0.10539 0.72724 0.48500
H 	H 	0.09663 0.09802 0.70951 0.14200
H 	H 	0.09513 0.00005 0.78908 0.14100
H 	H 	0.08303 -0.01251 0.67101 0.05700
H 	H 	0.24165 0.14563 0.61843 0.12400
F 	F 	0.17660 0.14229 0.70552 -0.43600
F 	F 	0.17478 0.03398 0.79383 -0.44100
C 	C 	0.91756 0.03362 0.77459 -0.26200
C 	C 	0.95399 0.04743 0.74918 0.17500
C 	C 	0.96793 0.08406 0.72408 -0.26100
C 	C 	0.94630 0.10621 0.72432 0.47100
C 	C 	0.90967 0.09235 0.74984 -0.35000
C 	C 	0.89572 0.05551 0.77499 0.46900
H 	H 	0.90613 0.00600 0.79498 0.13900
H 	H 	0.99546 0.09546 0.70356 0.14100
H 	H 	0.98534 0.11992 0.82440 0.06000
H 	H 	0.80820 0.03104 0.70352 0.07300
F 	F 	0.86104 0.04052 0.80056 -0.44200
F 	F 	0.96132 0.14110 0.69909 -0.43700
C 	C 	0.92115 0.88835 0.78196 -0.26400
C 	C 	0.95340 0.91078 0.75132 0.17700
C 	C 	0.96301 0.88830 0.72052 -0.26400
C 	C 	0.94076 0.84457 0.71996 0.47500
C 	C 	0.90870 0.82199 0.75101 -0.35900
C 	C 	0.89939 0.84459 0.78224 0.47300
H 	H 	0.91314 0.90480 0.80618 0.14200
H 	H 	0.98754 0.90470 0.69636 0.13900
H 	H 	0.87184 0.87427 0.69085 0.05700
H 	H 	0.95802 0.80827 0.82817 0.08400
F 	F 	0.86865 0.82441 0.81261 -0.43800
F 	F 	0.95137 0.82440 0.68962 -0.44000
C 	C 	0.31665 0.32369 0.11314 -0.26600
C 	C 	0.33549 0.30302 0.13301 0.17900
C 	C 	0.32640 0.29107 0.17790 -0.26400
C 	C 	0.29846 0.29880 0.20205 0.47800
C 	C 	0.27937 0.31941 0.18196 -0.35300
C 	C 	0.28921 0.33196 0.13708 0.47900
H 	H 	0.32339 0.33376 0.07881 0.14200
H 	H 	0.34038 0.27500 0.19413 0.14100
H 	H 	0.40574 0.38667 0.16921 0.05900
H 	H 	0.16337 0.27466 0.15843 0.02500
F 	F 	0.27147 0.35135 0.11560 -0.43200
F 	F 	0.29036 0.28624 0.24510 -0.43400
C 	C 	-0.03559 0.29369 0.32372 -0.26100
C 	C 	-0.03223 0.30565 0.36871 0.18400
C 	C 	0.00730 0.32498 0.38849 -0.26100
C 	C 	0.04257 0.33228 0.36424 0.48300
C 	C 	0.03936 0.32010 0.31913 -0.35500
C 	C 	-0.00040 0.30051 0.29926 0.48200
H 	H 	-0.06570 0.27843 0.30757 0.14200
H 	H 	0.01105 0.33489 0.42290 0.14700
H 	H 	0.10885 0.27372 0.34194 0.03200
H 	H 	0.02969 0.22257 0.30071 0.07900
F 	F 	-0.00536 0.28821 0.25609 -0.44500
F 	F 	0.07977 0.35056 0.38560 -0.42400
C 	C 	0.29571 1.01897 0.37633 -0.26600
C 	C 	0.33821 1.03172 0.37364 0.18000
C 	C 	0.35009 1.00866 0.34619 -0.26200
C 	C 	0.32023 0.97337 0.32283 0.47800
C 	C 	0.27744 0.96014 0.32634 -0.35400
C 	C 	0.26582 0.98393 0.35322 0.48000
H 	H 	0.28543 1.03646 0.39622 0.14300
H 	H 	0.38253 1.01736 0.34355 0.14300
H 	H 	0.29922 0.94535 0.42938 0.05900
H 	H 	0.14178 0.90697 0.38198 0.12900
F 	F 	0.22538 0.97373 0.35711 -0.43700
F 	F 	0.33332 0.95171 0.29776 -0.43700
C 	C 	0.70505 1.03349 0.17925 -0.26500
C 	C 	0.69345 1.03022 0.13417 0.18200
C 	C 	0.67420 0.99074 0.11428 -0.26800
C 	C 	0.66677 0.95542 0.13847 0.47900
C 	C 	0.67873 0.95854 0.18363 -0.36100
C 	C 	0.69810 0.99823 0.20366 0.47900
H 	H 	0.72030 1.06357 0.19544 0.14200
H 	H 	0.66465 0.98711 0.07974 0.14300
H 	H 	0.76714 1.00433 0.13068 0.04900
H 	H 	0.78037 0.97683 0.21490 0.07600
F 	F 	0.71015 1.00306 0.24691 -0.43800
F 	F 	0.64882 0.91829 0.11697 -0.44600
C 	C 	0.34368 0.35039 0.65717 -0.26400
C 	C 	0.30882 0.33816 0.62954 0.18200
C 	C 	0.27892 0.29570 0.62741 -0.26800
C 	C 	0.28401 0.26606 0.65096 0.48100
C 	C 	0.31951 0.27794 0.67775 -0.36000
C 	C 	0.34908 0.32073 0.68099 0.47900
H 	H 	0.36735 0.38288 0.65951 0.14100
H 	H 	0.25110 0.28523 0.60755 0.14700
H 	H 	0.35513 0.29747 0.57458 0.05100
H 	H 	0.35285 0.31637 0.92966 0.06800
F 	F 	0.38381 0.33396 0.70611 -0.44000
F 	F 	0.25367 0.22561 0.64758 -0.43700
C 	C 	0.27736 -0.01852 0.87631 -0.26500
C 	C 	0.30702 -0.03139 0.87381 0.17900
C 	C 	0.34216 -0.00834 0.84662 -0.26200
C 	C 	0.34787 0.02709 0.82335 0.47900
C 	C 	0.31842 0.04046 0.82669 -0.35200
C 	C 	0.28279 0.01664 0.85329 0.48100
H 	H 	0.24943 -0.03604 0.89595 0.14100
H 	H 	0.36580 -0.01719 0.84410 0.14200
H 	H 	0.26655 -0.08731 0.79087 0.05700
H 	H 	0.27299 0.06540 0.71703 0.02700
F 	F 	0.25259 0.02693 0.85696 -0.43800
F 	F 	0.38277 0.04873 0.79849 -0.43500
C 	C 	-0.01949 0.70650 0.12797 -0.26600
C 	C 	-0.03268 0.66388 0.13021 0.18100
C 	C 	-0.01005 0.65137 0.15750 -0.26200
C 	C 	0.02550 0.68080 0.18085 0.47800
C 	C 	0.03936 0.72373 0.17749 -0.35700
C 	C 	0.01579 0.73595 0.15106 0.47900
H 	H 	-0.03669 0.71725 0.10827 0.14400
H 	H 	-0.01920 0.61879 0.15985 0.14100
H 	H 	0.05373 0.70338 0.07417 0.05200
H 	H 	0.09533 0.85672 0.11872 0.12200
F 	F 	0.02651 0.77656 0.14750 -0.43700
F 	F 	0.04689 0.66720 0.20563 -0.43800
C 	C 	1.01751 0.72380 0.62882 -0.26700
C 	C 	1.03045 0.69417 0.63077 0.18000
C 	C 	1.00740 0.65869 0.65746 -0.26300
C 	C 	0.97165 0.65245 0.68050 0.47700
C 	C 	0.95806 0.68177 0.67742 -0.35700
C 	C 	0.98208 0.71788 0.65161 0.47800
H 	H 	1.03508 0.75203 0.60964 0.14200
H 	H 	1.01642 0.63516 0.65962 0.14200
H 	H 	1.05003 0.73162 0.73077 0.06100
H 	H 	0.90304 0.75980 0.61831 0.13400
F 	F 	0.97169 0.74803 0.64843 -0.43900
F 	F 	0.94986 0.61718 0.70475 -0.43900
C 	C 	0.99127 0.32002 0.88970 -0.26300
C 	C 	1.03085 0.33974 0.87003 0.18200
C 	C 	1.03419 0.33094 0.82511 -0.26200
C 	C 	0.99895 0.30274 0.80064 0.48100
C 	C 	0.95915 0.28293 0.82041 -0.35000
C 	C 	0.95593 0.29222 0.86541 0.47900
H 	H 	0.98757 0.32636 0.92406 0.14600
H 	H 	1.06433 0.34544 0.80905 0.14400
H 	H 	1.00639 0.24195 0.87566 0.06000
H 	H 	0.89181 0.16626 0.84128 0.03300
F 	F 	0.91868 0.27365 0.88667 -0.42200
F 	F 	1.00393 0.29512 0.75757 -0.42900
C 	C 	0.70648 0.67033 0.32430 -0.26100
C 	C 	0.69431 0.66105 0.36914 0.17800
C 	C 	0.67406 0.68028 0.38908 -0.26400
C 	C 	0.66636 0.70820 0.36527 0.47700
C 	C 	0.67908 0.71817 0.32043 -0.35000
C 	C 	0.69931 0.69872 0.30028 0.48000
H 	H 	0.72231 0.65613 0.30800 0.14200
H 	H 	0.66384 0.67348 0.42336 0.14200
H 	H 	0.61118 0.59163 0.33069 0.05600
H 	H 	0.72735 0.83521 0.33987 0.02500
F 	F 	0.71200 0.70688 0.25727 -0.43100
F 	F 	0.64722 0.72615 0.38684 -0.43800
C 	C 	0.68152 0.01032 0.61358 -0.26600
C 	C 	0.66216 -0.02929 0.63314 0.18200
C 	C 	0.67104 -0.03266 0.67800 -0.26400
C 	C 	0.69913 0.00262 0.70249 0.47900
C 	C 	0.71866 0.04245 0.68279 -0.35600
C 	C 	0.70914 0.04570 0.63790 0.47800
H 	H 	0.67509 0.01400 0.57924 0.14400
H 	H 	0.65680 -0.06285 0.69395 0.14300
H 	H 	0.75949 -0.00398 0.62453 0.04900
H 	H 	0.81255 0.11235 0.58063 0.09500
F 	F 	0.72739 0.08301 0.61676 -0.43100
F 	F 	0.70698 -0.00236 0.74547 -0.43500
C 	C 	0.64689 0.65450 0.84618 -0.25900
C 	C 	0.65863 0.68855 0.87495 0.18200
C 	C 	0.70113 0.71813 0.87839 -0.26200
C 	C 	0.73117 0.71357 0.85488 0.47700
C 	C 	0.71969 0.67903 0.82664 -0.35200
C 	C 	0.67690 0.64971 0.82232 0.47900
H 	H 	0.61443 0.63101 0.84281 0.14300
H 	H 	0.71134 0.74539 0.89912 0.14400
H 	H 	0.78895 0.77643 0.77064 0.09500
H 	H 	0.77214 0.60367 0.84240 0.04200
F 	F 	0.66395 0.61580 0.79589 -0.43600
F 	F 	0.77161 0.74353 0.85976 -0.43400
