data_crystal

_cell_length_a 25.99890
_cell_length_b 25.99890
_cell_length_c 42.65600
_cell_angle_alpha 90.00000
_cell_angle_beta  90.00000
_cell_angle_gamma 120.00000

_symmetry_space_group_name_	'P 1'
_symmetry_space_group_name_H-M	'P 1'

loop_
_symmetry_equiv_pos_as_xyz
  x,y,z

loop_
_atom_site_label
_atom_site_type_symbol
_atom_site_fract_x
_atom_site_fract_y
_atom_site_fract_z
_atom_site_charge
Y 	Y 	0.09300 0.00000 0.79200 6.92400
Y 	Y 	0.90700 -0.00000 0.29200 6.89900
Y 	Y 	0.15449 0.00000 0.75000 2.39000
Y 	Y 	0.91545 0.91545 0.29479 2.75900
Y 	Y 	-0.00000 0.84670 0.75000 2.35600
Y 	Y 	0.41114 0.00000 0.53318 2.39100
Y 	Y 	0.08455 0.08455 0.70521 2.74500
Y 	Y 	0.43904 0.87808 0.50000 2.40900
Y 	Y 	-0.00000 0.55487 0.94474 2.39700
Y 	Y 	-0.00000 0.90700 0.20800 6.89900
Y 	Y 	0.55487 0.55487 0.44474 2.40900
Y 	Y 	0.84551 0.00000 0.25000 2.38900
Y 	Y 	-0.00000 0.58886 0.03318 2.39000
Y 	Y 	0.44513 0.44513 0.55526 2.40900
Y 	Y 	0.41114 -0.00000 0.96682 2.39300
Y 	Y 	0.41114 0.41114 0.46682 2.40400
Y 	Y 	-0.00000 0.09300 0.79200 6.92300
Y 	Y 	0.58886 0.00000 0.46682 2.39100
Y 	Y 	-0.00000 0.08455 0.20521 2.73200
Y 	Y 	-0.00000 0.44513 0.05526 2.39600
Y 	Y 	0.12192 0.56096 0.50000 2.40900
Y 	Y 	0.90700 0.90700 0.79200 6.85200
Y 	Y 	-0.00000 0.44513 0.44474 2.39600
Y 	Y 	-0.00000 0.41114 0.96682 2.39300
Y 	Y 	-0.00000 0.08455 0.29479 2.73200
Y 	Y 	0.56096 0.43904 -0.00000 2.40700
Y 	Y 	0.58886 0.00000 0.03318 2.39000
Y 	Y 	0.41114 0.41114 0.03318 2.40300
Y 	Y 	0.55487 0.00000 0.94474 2.39700
Y 	Y 	-0.00000 0.58886 0.46682 2.39100
Y 	Y 	0.00000 0.91545 0.70521 2.73900
Y 	Y 	0.55487 0.55487 0.05526 2.40800
Y 	Y 	0.84670 0.00000 0.75000 2.35600
Y 	Y 	0.43904 0.56096 0.50000 2.40900
Y 	Y 	0.44513 0.44513 0.94474 2.40900
Y 	Y 	0.84670 0.84670 0.25000 2.37200
Y 	Y 	-0.00000 0.09300 0.70800 6.92300
Y 	Y 	-0.00000 0.84551 0.25000 2.38900
Y 	Y 	-0.00000 0.90700 0.29200 6.89900
Y 	Y 	0.91545 0.91545 0.20521 2.75900
Y 	Y 	0.90700 0.90700 0.70800 6.85200
Y 	Y 	0.90700 0.00000 0.20800 6.89900
Y 	Y 	0.12192 0.56096 -0.00000 2.40700
Y 	Y 	0.44513 0.00000 0.44474 2.39600
Y 	Y 	0.87808 0.43904 0.50000 2.40900
Y 	Y 	0.91545 0.00000 0.70521 2.73900
Y 	Y 	0.55487 0.00000 0.55526 2.39600
Y 	Y 	0.87808 0.43904 -0.00000 2.40600
Y 	Y 	0.84551 0.84551 0.75000 2.40400
Y 	Y 	0.56096 0.12192 0.50000 2.40900
Y 	Y 	0.00000 0.41114 0.53318 2.39100
Y 	Y 	-0.00000 0.91545 0.79479 2.73900
Y 	Y 	0.58886 0.58886 0.53318 2.40400
Y 	Y 	-0.00000 0.55487 0.55526 2.39600
Y 	Y 	0.58886 0.58886 0.96682 2.40600
Y 	Y 	0.43904 0.87808 -0.00000 2.40600
Y 	Y 	0.91545 0.00000 0.79479 2.73900
Y 	Y 	0.09300 0.09300 0.29200 6.89800
Y 	Y 	0.08455 0.00000 0.20521 2.73200
Y 	Y 	-0.00000 0.15449 0.75000 2.39000
Y 	Y 	0.00000 0.15330 0.25000 2.35600
Y 	Y 	0.08455 0.00000 0.29479 2.73200
Y 	Y 	0.09300 0.09300 0.20800 6.89800
Y 	Y 	0.15449 0.15449 0.25000 2.40600
Y 	Y 	0.15330 0.00000 0.25000 2.35600
Y 	Y 	0.15330 0.15330 0.75000 2.37300
Y 	Y 	0.56096 0.43904 0.50000 2.40900
Y 	Y 	0.43904 0.56096 -0.00000 2.40700
Y 	Y 	0.09300 0.00000 0.70800 6.92300
Y 	Y 	0.08455 0.08455 0.79479 2.74500
Y 	Y 	0.56096 0.12192 -0.00000 2.40700
Y 	Y 	0.44513 0.00000 0.05526 2.39600
H 	H 	0.91880 0.69430 0.18310 0.06100
H 	H 	0.74230 0.62080 0.85540 0.08700
H 	H 	0.30570 0.08120 0.68310 0.01500
H 	H 	0.63830 0.39120 0.54030 -0.17600
H 	H 	0.38940 0.71390 0.50930 0.05900
H 	H 	0.35430 0.61860 0.45160 0.25600
H 	H 	0.68200 0.33070 0.43180 0.09700
H 	H 	0.84680 0.84680 0.00490 -0.05000
H 	H 	0.61450 0.29160 0.44530 0.11800
H 	H 	0.61060 0.28610 0.49070 0.05800
H 	H 	0.87020 0.29130 0.39530 0.03600
H 	H 	0.24020 0.24020 0.49100 0.11000
H 	H 	0.32410 0.65700 0.47600 -0.18400
H 	H 	-0.00000 0.40820 0.72690 -0.05500
H 	H 	0.76700 0.08860 0.88210 -0.00200
H 	H 	0.17350 0.23450 0.35580 0.08300
H 	H 	0.79230 0.69140 0.60590 0.08500
H 	H 	0.25530 0.39320 0.65500 0.07500
H 	H 	0.67550 0.28610 0.50930 0.06000
H 	H 	0.72940 0.12710 0.09050 0.04000
H 	H 	0.73570 0.35430 0.54840 0.25700
H 	H 	0.12150 0.37920 0.85540 0.08900
H 	H 	0.25030 0.51500 0.46290 0.02200
H 	H 	0.67710 0.29160 0.94530 0.12400
H 	H 	0.49410 0.49410 0.21050 0.12200
H 	H 	0.94430 0.75210 0.84410 0.06600
H 	H 	0.33070 0.68200 0.06820 0.08600
H 	H 	0.94430 0.19220 0.34410 0.06300
H 	H 	0.26430 0.61860 0.95160 0.30600
H 	H 	0.27060 0.87290 0.59050 0.06500
H 	H 	0.42110 0.29130 0.60470 0.01100
H 	H 	0.75290 0.36170 0.54030 -0.17400
H 	H 	0.35430 0.73570 0.54840 0.25700
H 	H 	0.64870 0.33070 0.56820 0.09600
H 	H 	0.19260 0.00000 0.09680 -0.26800
H 	H 	0.63830 0.24710 0.04030 -0.11800
H 	H 	0.67840 0.91140 0.61790 0.02800
H 	H 	0.39120 0.63830 0.54030 -0.17600
H 	H 	0.12710 0.72940 0.09050 0.04000
H 	H 	0.62020 0.35110 0.49660 0.21700
H 	H 	0.36170 0.60880 0.04030 -0.11700
H 	H 	0.49410 -0.00000 0.78950 0.10500
H 	H 	0.34300 0.67590 0.52400 -0.18600
H 	H 	0.08860 0.76700 0.61790 -0.00200
H 	H 	0.89620 0.68110 0.69340 0.03000
H 	H 	0.24710 0.63830 0.04030 -0.11800
H 	H 	0.50590 0.50590 0.78950 0.12100
H 	H 	0.73090 0.35110 0.50340 0.21500
H 	H 	0.82650 0.76550 0.85580 0.09400
H 	H 	0.26430 0.61860 0.54840 0.25600
H 	H 	0.87290 0.60230 0.40950 0.06600
H 	H 	0.67550 0.38940 0.00930 0.05800
H 	H 	0.10090 0.30860 0.60590 0.07400
H 	H 	0.94430 0.75210 0.65590 0.06600
H 	H 	0.12935 0.12935 0.94220 0.18100
H 	H 	0.21510 0.89620 0.30660 0.02700
H 	H 	0.15320 0.00000 0.00490 -0.11700
H 	H 	0.12935 0.00000 0.44220 0.18900
H 	H 	0.86210 0.25530 0.34500 0.09100
H 	H 	0.08120 0.30570 0.81690 0.01500
H 	H 	0.05570 0.24790 0.34410 -0.00500
H 	H 	0.48615 0.00000 0.34300 -0.04300
H 	H 	0.26910 0.62020 0.99660 0.22000
H 	H 	0.13790 0.39320 0.34500 0.06800
H 	H 	0.00000 0.48615 0.15700 -0.04300
H 	H 	0.39320 0.25530 0.65500 0.07500
H 	H 	0.78490 0.68110 0.30660 0.01600
H 	H 	0.79230 0.69140 0.89410 0.08600
H 	H 	0.67590 0.34300 0.97600 -0.18700
H 	H 	0.30570 0.22450 0.18310 0.02300
H 	H 	0.72940 0.60230 0.90950 0.04700
H 	H 	0.05570 0.80780 0.65590 0.00100
H 	H 	0.12710 0.39770 0.90950 0.03800
H 	H 	0.39320 0.13790 0.34500 0.06800
H 	H 	-0.00000 0.19260 0.09680 -0.26800
H 	H 	0.62080 0.87850 0.35540 0.11100
H 	H 	0.34200 0.34200 0.31030 0.18200
H 	H 	0.76550 0.93900 0.35580 0.12200
H 	H 	0.75980 0.75980 0.99100 0.15700
H 	H 	0.23300 0.32160 0.88210 0.00100
H 	H 	-0.00000 0.87065 0.94220 0.20900
H 	H 	0.15320 0.15320 0.50490 -0.07500
H 	H 	0.60230 0.72940 0.90950 0.04700
H 	H 	0.67710 0.38550 0.44530 0.11800
H 	H 	0.17350 0.93900 0.85580 0.12000
H 	H 	0.19220 0.94430 0.15590 0.06300
H 	H 	0.25030 0.73530 0.53710 0.02600
H 	H 	-0.00000 0.34200 0.81030 0.15700
H 	H 	0.21510 0.31890 0.80660 0.00700
H 	H 	0.67590 0.33290 0.47600 -0.18600
H 	H 	0.64870 0.31800 0.06820 0.08600
H 	H 	0.61860 0.35430 0.45160 0.25600
H 	H 	0.38140 0.64570 0.54840 0.25500
H 	H 	0.24790 0.05570 0.34410 -0.00500
H 	H 	0.08120 0.30570 0.68310 0.01500
H 	H 	0.60880 0.36170 0.04030 -0.11700
H 	H 	0.23300 0.91140 0.38210 0.03000
H 	H 	0.39120 0.75290 0.45970 -0.17400
H 	H 	0.29130 0.42110 0.60470 0.01100
H 	H 	0.59180 0.00000 0.22690 -0.05500
H 	H 	0.75210 0.80780 0.34410 0.03100
H 	H 	0.75210 0.94430 0.84410 0.06600
H 	H 	0.62080 0.74230 0.64460 0.08700
H 	H 	0.34300 0.67590 0.97600 -0.18700
H 	H 	0.32290 0.70840 0.05470 0.11100
H 	H 	0.51385 0.00000 0.84300 -0.04300
H 	H 	0.59180 0.59180 0.77310 -0.04600
H 	H 	-0.00000 0.30890 0.41510 -4.36500
H 	H 	0.51385 0.51385 0.34300 -0.03600
H 	H 	0.35110 0.73090 0.99660 0.21800
H 	H 	0.21510 0.31890 0.69340 0.00700
H 	H 	0.13790 0.74470 0.84500 0.06700
H 	H 	0.69140 0.89910 0.10590 0.09800
H 	H 	0.32290 0.61450 0.55470 0.11800
H 	H 	0.91140 0.23300 0.38210 0.03000
H 	H 	-0.00000 0.24020 0.50900 0.10500
H 	H 	0.89910 0.69140 0.10590 0.09800
H 	H 	0.50590 0.50590 0.71050 0.12100
H 	H 	0.40820 0.00000 0.72690 -0.05500
H 	H 	0.73570 0.35430 0.95160 0.30600
H 	H 	0.29160 0.67710 0.94530 0.12400
H 	H 	0.64890 0.26910 0.00340 0.20900
H 	H 	0.30860 0.20770 0.39410 0.07800
H 	H 	0.39120 0.63830 0.95970 -0.23400
H 	H 	0.49410 0.00000 0.71050 0.10500
H 	H 	0.80780 0.75210 0.15590 0.03100
H 	H 	0.05570 0.80780 0.84410 0.00100
H 	H 	0.60230 0.72940 0.59050 0.04500
H 	H 	0.38940 0.67550 0.49070 0.06000
H 	H 	0.87065 0.87065 0.05780 0.25700
H 	H 	-0.00000 0.84680 0.99510 -0.05300
H 	H 	0.20770 0.30860 0.10590 0.07700
H 	H 	0.80780 0.05570 0.84410 0.00100
H 	H 	-0.00000 0.15320 0.00490 -0.11700
H 	H 	0.35130 0.66930 0.43180 0.09800
H 	H 	0.23450 0.06100 0.85580 0.05700
H 	H 	0.29160 0.61450 0.05470 0.11100
H 	H 	0.80740 0.80740 0.40320 -0.21700
H 	H 	0.80780 0.05570 0.65590 0.00100
H 	H 	0.26910 0.64890 0.49660 0.21200
H 	H 	0.19220 0.24790 0.65590 0.02100
H 	H 	-0.00000 0.40820 0.77310 -0.05500
H 	H 	0.00000 0.12935 0.44220 0.18900
H 	H 	0.38550 0.67710 0.05470 0.11100
H 	H 	0.69110 0.69110 0.08490 -4.29100
H 	H 	0.68110 0.89620 0.80660 0.03000
H 	H 	0.70870 0.57890 0.10470 0.01600
H 	H 	0.71390 0.32450 0.49070 0.05900
H 	H 	0.39770 0.27060 0.40950 0.04000
H 	H 	0.23450 0.17350 0.35580 0.08300
H 	H 	0.30570 0.08120 0.81690 0.01500
H 	H 	0.75290 0.36170 0.95970 -0.23200
H 	H 	0.75290 0.39120 0.45970 -0.17400
H 	H 	0.30890 0.00000 0.41510 -4.36500
H 	H 	0.40820 0.00000 0.77310 -0.05500
H 	H 	0.68200 0.35130 0.93180 0.10700
H 	H 	0.64570 0.38140 0.54840 0.25500
H 	H 	0.48615 0.48615 0.84300 -0.03600
H 	H 	0.68110 0.78490 0.19340 0.01600
H 	H 	0.10090 0.79230 0.39410 0.07800
H 	H 	0.08120 0.77550 0.18310 0.02000
H 	H 	0.26470 0.51500 0.96290 0.02500
H 	H 	0.27060 0.39770 0.09050 0.03900
H 	H 	0.25770 0.37920 0.35540 0.09300
H 	H 	0.66930 0.35130 0.43180 0.09800
H 	H 	0.89620 0.21510 0.30660 0.02700
H 	H 	0.60230 0.87290 0.09050 0.06500
H 	H 	0.00000 0.51385 0.65700 -0.04300
H 	H 	0.60230 0.87290 0.40950 0.06600
H 	H 	0.62020 0.26910 0.99660 0.22000
H 	H 	0.89620 0.21510 0.19340 0.02800
H 	H 	0.00000 0.12935 0.05780 0.19800
H 	H 	0.66930 0.35130 0.06820 0.08800
H 	H 	0.91880 0.22450 0.81690 0.05700
H 	H 	0.27060 0.39770 0.40950 0.04000
H 	H 	0.08120 0.77550 0.31690 0.02000
H 	H 	-0.00000 0.69110 0.91510 -4.36500
H 	H 	0.35110 0.73090 0.50340 0.21500
H 	H 	0.15320 0.15320 0.99510 -0.05400
H 	H 	0.10090 0.79230 0.10590 0.07700
H 	H 	0.68110 0.78490 0.30660 0.01600
H 	H 	0.48500 0.74970 0.53710 0.02700
H 	H 	0.00000 0.87065 0.55780 0.21800
H 	H 	0.74970 0.26470 0.03710 0.02300
H 	H 	0.75980 0.75980 0.50900 0.11900
H 	H 	0.30890 0.00000 0.08490 -4.36100
H 	H 	0.22450 0.91880 0.81690 0.05700
H 	H 	-0.00000 0.84680 0.50490 -0.07300
H 	H 	0.75290 0.39120 0.04030 -0.11700
H 	H 	0.23450 0.17350 0.14420 0.08300
H 	H 	0.39770 0.27060 0.09050 0.03900
H 	H 	0.10380 0.31890 0.19340 0.00000
H 	H 	0.71390 0.32450 0.00930 0.05700
H 	H 	0.74230 0.12150 0.14460 0.08700
H 	H 	0.70870 0.57890 0.39530 0.01600
H 	H 	0.20770 0.89910 0.60590 0.09800
H 	H 	0.69110 0.69110 0.41510 -4.29500
H 	H 	0.38550 0.67710 0.44530 0.11800
H 	H 	0.80740 0.80740 0.09680 -0.22600
H 	H 	0.29160 0.61450 0.44530 0.11800
H 	H 	0.77550 0.69430 0.68310 0.03300
H 	H 	0.35130 0.66930 0.06820 0.08800
H 	H 	0.20770 0.30860 0.39410 0.07800
H 	H 	-0.00000 0.24020 0.99100 0.14200
H 	H 	0.86210 0.60680 0.65500 0.08800
H 	H 	0.87065 0.87065 0.44220 0.24800
H 	H 	0.38940 0.67550 0.00930 0.05800
H 	H 	0.08860 0.76700 0.88210 -0.00200
H 	H 	0.68110 0.89620 0.69340 0.03000
H 	H 	0.17350 0.93900 0.64420 0.11900
H 	H 	0.80780 0.75210 0.34410 0.03100
H 	H 	0.29130 0.42110 0.89530 0.01200
H 	H 	0.93900 0.17350 0.85580 0.12000
H 	H 	0.87850 0.25770 0.85540 0.11400
H 	H 	0.19260 0.19260 0.59680 -0.23000
H 	H 	0.30860 0.20770 0.10590 0.07700
H 	H 	0.64890 0.26910 0.49660 0.21200
H 	H 	0.89910 0.69140 0.39410 0.10000
H 	H 	-0.00000 0.30890 0.08490 -4.36100
H 	H 	0.91140 0.23300 0.11790 0.03000
H 	H 	0.73530 0.25030 0.96290 0.02900
H 	H 	-0.00000 0.15320 0.49510 -0.09700
H 	H 	0.69140 0.89910 0.39410 0.10000
H 	H 	0.65700 0.33290 0.97600 -0.18400
H 	H 	0.35130 0.68200 0.56820 0.09700
H 	H 	0.51385 0.51385 0.15700 -0.03600
H 	H 	0.13790 0.74470 0.65500 0.06700
H 	H 	0.25770 0.87850 0.64460 0.11400
H 	H 	0.32290 0.70840 0.44530 0.11800
H 	H 	0.38550 0.70840 0.94530 0.12400
H 	H 	0.32410 0.66710 0.52400 -0.18200
H 	H 	0.75210 0.80780 0.15590 0.03100
H 	H 	0.59180 0.00000 0.27310 -0.05400
H 	H 	0.17350 0.23450 0.14420 0.08300
H 	H 	0.91140 0.67840 0.61790 0.02800
H 	H 	0.74470 0.13790 0.65500 0.06700
H 	H 	0.23300 0.91140 0.11790 0.03000
H 	H 	0.60880 0.36170 0.45970 -0.17500
H 	H 	0.24790 0.05570 0.15590 -0.00500
H 	H 	0.61860 0.35430 0.04840 0.20700
H 	H 	0.64870 0.31800 0.43180 0.09600
H 	H 	0.67590 0.33290 0.02400 -0.18600
H 	H 	0.19220 0.94430 0.34410 0.06300
H 	H 	0.23300 0.32160 0.61790 0.00100
H 	H 	0.67710 0.38550 0.05470 0.11100
H 	H 	0.74230 0.62080 0.64460 0.08700
H 	H 	0.48615 0.00000 0.15700 -0.04300
H 	H 	0.38140 0.73570 0.45160 0.25600
H 	H 	0.57890 0.87020 0.89530 0.03800
H 	H 	0.76550 0.93900 0.14420 0.12200
H 	H 	0.24790 0.19220 0.65590 0.02100
H 	H 	0.34200 0.34200 0.18970 0.18200
H 	H 	0.62080 0.87850 0.14460 0.11100
H 	H 	-0.00000 0.19260 0.40320 -0.25900
H 	H 	0.60880 0.24710 0.95970 -0.23200
H 	H 	0.66710 0.32410 0.52400 -0.18200
H 	H 	0.39320 0.13790 0.15500 0.06800
H 	H 	0.31800 0.66930 0.56820 0.09800
H 	H 	0.29130 0.87020 0.39530 0.03600
H 	H 	0.20770 0.89910 0.89410 0.09900
H 	H 	0.30570 0.22450 0.31690 0.02300
H 	H 	0.60680 0.86210 0.65500 0.08800
H 	H 	0.78490 0.68110 0.19340 0.01600
H 	H 	0.42110 0.29130 0.89530 0.01200
H 	H 	0.00000 0.48615 0.34300 -0.04300
H 	H 	0.13790 0.39320 0.15500 0.06800
H 	H 	0.25770 0.87850 0.85540 0.11400
H 	H 	0.12935 0.12935 0.55780 0.19000
H 	H 	0.78490 0.10380 0.69340 0.00600
H 	H 	0.32160 0.23300 0.61790 0.00100
H 	H 	0.05570 0.24790 0.15590 -0.00500
H 	H 	0.39320 0.25530 0.84500 0.07500
H 	H 	0.19220 0.24790 0.84410 0.02100
H 	H 	0.64570 0.38140 0.95160 0.30500
H 	H 	0.86210 0.25530 0.15500 0.09100
H 	H 	0.67590 0.34300 0.52400 -0.18600
H 	H 	0.12935 0.00000 0.05780 0.19800
H 	H 	0.06100 0.23450 0.64420 0.05600
H 	H 	0.15320 0.00000 0.49510 -0.09700
H 	H 	0.61860 0.26430 0.95160 0.30600
H 	H 	0.21510 0.89620 0.19340 0.02800
H 	H 	0.62080 0.74230 0.85540 0.08700
H 	H 	0.12710 0.39770 0.59050 0.03700
H 	H 	0.30890 0.30890 0.58490 -4.30300
H 	H 	0.67550 0.38940 0.49070 0.06000
H 	H 	0.87290 0.60230 0.09050 0.06500
H 	H 	-0.00000 0.80740 0.59680 -0.25300
H 	H 	0.94430 0.19220 0.15590 0.06300
H 	H 	0.29130 0.87020 0.10470 0.03600
H 	H 	0.91880 0.22450 0.68310 0.05700
H 	H 	0.12980 0.70870 0.60470 0.01400
H 	H 	0.24710 0.63830 0.45970 -0.17600
H 	H 	0.66930 0.31800 0.56820 0.09800
H 	H 	0.38940 0.71390 0.99070 0.06100
H 	H 	0.36170 0.60880 0.45970 -0.17500
H 	H 	0.62020 0.35110 0.00340 0.21400
H 	H 	0.12710 0.72940 0.40950 0.04100
H 	H 	0.26910 0.62020 0.50340 0.21700
H 	H 	0.35430 0.73570 0.95160 0.30600
H 	H 	0.39770 0.12710 0.90950 0.03800
H 	H 	0.89620 0.68110 0.80660 0.03000
H 	H 	0.39120 0.75290 0.04030 -0.11700
H 	H 	0.87020 0.57890 0.60470 0.03800
H 	H 	0.63830 0.24710 0.45970 -0.17600
H 	H 	0.19260 0.00000 0.40320 -0.25900
H 	H 	-0.00000 0.49410 0.78950 0.10500
H 	H 	0.84680 0.00000 0.99510 -0.05300
H 	H 	0.30860 0.10090 0.60590 0.07400
H 	H 	0.70840 0.38550 0.55470 0.11800
H 	H 	0.26910 0.64890 0.00340 0.20900
H 	H 	0.33070 0.68200 0.43180 0.09700
H 	H 	0.69430 0.77550 0.68310 0.03300
H 	H 	0.24790 0.19220 0.84410 0.02100
H 	H 	0.49410 0.49410 0.28950 0.12200
H 	H 	0.25030 0.51500 0.03710 0.01900
H 	H 	0.28610 0.67550 0.99070 0.06200
H 	H 	0.72940 0.12710 0.40950 0.04100
H 	H 	0.71390 0.38940 0.99070 0.06100
H 	H 	0.67550 0.28610 0.99070 0.06200
H 	H 	0.30890 0.30890 0.91510 -4.30700
H 	H 	0.31890 0.21510 0.69340 0.00700
H 	H 	0.34200 0.00000 0.81030 0.15700
H 	H 	0.32410 0.65700 0.02400 -0.18400
H 	H 	0.24020 0.24020 0.00900 0.07200
H 	H 	0.66710 0.32410 0.97600 -0.18200
H 	H 	0.87020 0.29130 0.10470 0.03600
H 	H 	0.61060 0.28610 0.00930 0.05600
H 	H 	0.61450 0.29160 0.05470 0.11100
H 	H 	0.84680 0.84680 0.49510 -0.02900
H 	H 	0.68200 0.33070 0.06820 0.08600
H 	H 	0.10380 0.31890 0.30660 0.00000
H 	H 	0.32450 0.61060 0.99070 0.06000
H 	H 	0.37920 0.12150 0.64460 0.08900
H 	H 	0.35430 0.61860 0.04840 0.20700
H 	H 	0.66930 0.31800 0.93180 0.10800
H 	H 	0.91880 0.69430 0.31690 0.06100
H 	H 	0.22450 0.30570 0.18310 0.02300
H 	H 	0.22450 0.91880 0.68310 0.05700
H 	H 	0.28610 0.61060 0.00930 0.05600
H 	H 	0.33290 0.67590 0.47600 -0.18600
H 	H 	0.51500 0.26470 0.53710 0.02200
H 	H 	0.31800 0.64870 0.43180 0.09600
H 	H 	0.87020 0.57890 0.89530 0.03800
H 	H 	0.48500 0.73530 0.03710 0.02400
H 	H 	0.26470 0.51500 0.53710 0.02200
H 	H 	0.87065 0.00000 0.55780 0.21800
H 	H 	-0.00000 0.75980 0.00900 0.07300
H 	H 	0.33290 0.65700 0.97600 -0.18400
H 	H 	0.89910 0.20770 0.89410 0.09900
H 	H 	0.74470 0.60680 0.15500 0.07300
H 	H 	0.32450 0.61060 0.50930 0.05800
H 	H 	0.32160 0.23300 0.88210 0.00100
H 	H 	0.24020 0.00000 0.99100 0.14200
H 	H 	0.69430 0.91880 0.31690 0.06100
H 	H 	0.38140 0.64570 0.95160 0.30500
H 	H 	-0.00000 0.65800 0.18970 0.15800
H 	H 	0.65800 0.65800 0.81030 0.18200
H 	H 	0.91140 0.67840 0.88210 0.02800
H 	H 	0.78490 0.10380 0.80660 0.00600
H 	H 	0.67840 0.91140 0.88210 0.02800
H 	H 	0.31890 0.10380 0.30660 0.00000
H 	H 	0.57890 0.70870 0.39530 0.01600
H 	H 	0.26470 0.74970 0.46290 0.02600
H 	H 	0.00000 0.49410 0.71050 0.10500
H 	H 	0.69140 0.79230 0.60590 0.08500
H 	H 	0.10090 0.30860 0.89410 0.07500
H 	H 	0.65700 0.32410 0.47600 -0.18400
H 	H 	0.24710 0.60880 0.95970 -0.23200
H 	H 	0.00000 0.34200 0.68970 0.15800
H 	H 	0.62020 0.26910 0.50340 0.21700
H 	H 	0.60680 0.74470 0.34500 0.07300
H 	H 	0.79230 0.10090 0.10590 0.07700
H 	H 	0.12150 0.74230 0.35540 0.08700
H 	H 	0.61060 0.32450 0.50930 0.05800
H 	H 	0.64890 0.37980 0.50340 0.21200
H 	H 	0.82650 0.76550 0.64420 0.09400
H 	H 	0.27060 0.87290 0.90950 0.06600
H 	H 	0.30860 0.10090 0.89410 0.07500
H 	H 	0.65800 0.65800 0.68970 0.18200
H 	H 	0.70840 0.32290 0.44530 0.11800
H 	H 	0.70870 0.12980 0.89530 0.01400
H 	H 	0.00000 0.50590 0.28950 0.10500
H 	H 	0.65800 0.00000 0.31030 0.15800
H 	H 	0.89910 0.20770 0.60590 0.09800
H 	H 	0.33290 0.65700 0.52400 -0.18400
H 	H 	0.10380 0.78490 0.69340 0.00600
H 	H 	0.37920 0.25770 0.35540 0.09300
H 	H 	0.73530 0.48500 0.03710 0.02400
H 	H 	0.70870 0.12980 0.60470 0.01400
H 	H 	0.75210 0.94430 0.65590 0.06600
H 	H 	0.68200 0.35130 0.56820 0.09700
H 	H 	0.84680 0.00000 0.50490 -0.07300
H 	H 	0.77550 0.08120 0.18310 0.02000
H 	H 	0.74230 0.12150 0.35540 0.08700
H 	H 	0.65700 0.33290 0.52400 -0.18400
H 	H 	0.48615 0.48615 0.65700 -0.03600
H 	H 	0.74970 0.26470 0.46290 0.02600
H 	H 	0.12980 0.42110 0.10470 0.01000
H 	H 	0.25530 0.86210 0.15500 0.09100
H 	H 	0.74470 0.13790 0.84500 0.06700
H 	H 	0.26430 0.64570 0.04840 0.20600
H 	H 	0.93900 0.76550 0.14420 0.12200
H 	H 	0.48500 0.74970 0.96290 0.03000
H 	H 	0.71390 0.38940 0.50930 0.05900
H 	H 	0.74970 0.48500 0.96290 0.03000
H 	H 	0.69430 0.77550 0.81690 0.03300
H 	H 	0.42110 0.12980 0.39530 0.01000
H 	H 	0.00000 0.69110 0.58490 -4.36100
H 	H 	0.51500 0.25030 0.03710 0.01900
H 	H 	0.38550 0.70840 0.55470 0.11800
H 	H 	0.60880 0.24710 0.54030 -0.17500
H 	H 	0.34300 0.66710 0.02400 -0.18200
H 	H 	0.32450 0.71390 0.00930 0.05700
H 	H 	0.32410 0.66710 0.97600 -0.18200
H 	H 	0.40820 0.40820 0.27310 -0.04700
H 	H 	0.69110 0.00000 0.58490 -4.36100
H 	H 	0.73570 0.38140 0.45160 0.25600
H 	H 	0.82650 0.06100 0.35580 0.06400
H 	H 	0.06100 0.82650 0.14420 0.06400
H 	H 	0.28610 0.67550 0.50930 0.06000
H 	H 	0.64570 0.26430 0.04840 0.20600
H 	H 	0.64890 0.37980 0.99660 0.21500
H 	H 	0.87850 0.62080 0.14460 0.11100
H 	H 	0.67840 0.76700 0.11790 -0.00200
H 	H 	0.70840 0.38550 0.94530 0.12400
H 	H 	0.75980 0.00000 0.00900 0.07300
H 	H 	0.51385 0.00000 0.65700 -0.04300
H 	H 	0.37980 0.73090 0.49660 0.21500
H 	H 	0.32160 0.08860 0.38210 0.00000
H 	H 	0.73090 0.37980 0.00340 0.21100
H 	H 	0.08860 0.32160 0.11790 0.00100
H 	H 	0.59180 0.59180 0.72690 -0.04700
H 	H 	0.73530 0.25030 0.53710 0.02600
H 	H 	0.39770 0.12710 0.59050 0.03700
H 	H 	0.00000 0.59180 0.22690 -0.05500
H 	H 	0.80740 0.00000 0.59680 -0.25300
H 	H 	0.50590 0.00000 0.28950 0.10500
H 	H 	0.35110 0.62020 0.00340 0.21400
H 	H 	0.66710 0.34300 0.02400 -0.18200
H 	H 	0.29160 0.67710 0.55470 0.11800
H 	H 	0.76550 0.82650 0.85580 0.09400
H 	H 	0.34200 0.00000 0.68970 0.15800
H 	H 	0.06100 0.23450 0.85580 0.05700
H 	H 	0.61860 0.26430 0.54840 0.25600
H 	H 	0.32160 0.08860 0.11790 0.00100
H 	H 	0.37980 0.64890 0.99660 0.21500
H 	H 	0.25530 0.39320 0.84500 0.07500
H 	H 	0.75980 0.00000 0.49100 0.11000
H 	H 	0.87850 0.25770 0.64460 0.11400
H 	H 	0.36170 0.75290 0.95970 -0.23200
H 	H 	0.66710 0.34300 0.47600 -0.18300
H 	H 	0.35110 0.62020 0.49660 0.21700
H 	H 	0.50590 0.00000 0.21050 0.10500
H 	H 	0.00000 0.59180 0.27310 -0.05400
H 	H 	0.79230 0.10090 0.39410 0.07800
H 	H 	0.24710 0.60880 0.54030 -0.17500
H 	H 	0.23450 0.06100 0.64420 0.05600
H 	H 	0.93900 0.17350 0.64420 0.11900
H 	H 	0.87065 -0.00000 0.94220 0.20900
H 	H 	0.67710 0.29160 0.55470 0.11800
H 	H 	0.08860 0.32160 0.38210 0.00000
H 	H 	0.72940 0.60230 0.59050 0.04500
H 	H 	0.73090 0.37980 0.49660 0.21500
H 	H 	0.37980 0.73090 0.00340 0.21100
H 	H 	0.25770 0.37920 0.14460 0.09300
H 	H 	0.86210 0.60680 0.84500 0.08800
H 	H 	0.67840 0.76700 0.38210 -0.00300
H 	H 	0.32290 0.61450 0.94530 0.12400
H 	H 	0.87850 0.62080 0.35540 0.11100
H 	H 	0.63830 0.39120 0.95970 -0.23400
H 	H 	0.64570 0.26430 0.45160 0.25500
H 	H 	0.76550 0.82650 0.64420 0.09400
H 	H 	0.57890 0.87020 0.60470 0.03800
H 	H 	0.61450 0.32290 0.55470 0.11800
H 	H 	0.61450 0.32290 0.94530 0.12400
H 	H 	0.06100 0.82650 0.35580 0.06400
H 	H 	0.87290 0.27060 0.90950 0.06600
H 	H 	0.69110 0.00000 0.91510 -4.36500
H 	H 	0.82650 0.06100 0.14420 0.06400
H 	H 	0.73570 0.38140 0.04840 0.20700
H 	H 	0.40820 0.40820 0.22690 -0.04700
H 	H 	0.61060 0.32450 0.99070 0.06000
H 	H 	0.32450 0.71390 0.49070 0.05900
H 	H 	0.34300 0.66710 0.47600 -0.18300
H 	H 	0.24020 0.00000 0.50900 0.10500
H 	H 	0.10380 0.78490 0.80660 0.00600
H 	H 	0.51500 0.25030 0.46290 0.02200
H 	H 	0.42110 0.12980 0.10470 0.01000
H 	H 	0.37980 0.64890 0.50340 0.21200
H 	H 	0.74970 0.48500 0.53710 0.02700
H 	H 	0.93900 0.76550 0.35580 0.12200
H 	H 	0.26430 0.64570 0.45160 0.25500
H 	H 	0.25530 0.86210 0.34500 0.09100
H 	H 	0.12980 0.42110 0.39530 0.01000
H 	H 	0.87290 0.27060 0.59050 0.06500
H 	H 	0.77550 0.08120 0.31690 0.02000
H 	H 	0.76700 0.67840 0.38210 -0.00300
H 	H 	0.73530 0.48500 0.46290 0.02700
H 	H 	0.37920 0.25770 0.14460 0.09300
H 	H 	0.73090 0.35110 0.99660 0.21800
H 	H 	0.65800 0.00000 0.18970 0.15800
H 	H 	0.37920 0.12150 0.85540 0.08900
H 	H 	0.00000 0.50590 0.21050 0.10500
H 	H 	0.70840 0.32290 0.05470 0.11100
H 	H 	0.38140 0.73570 0.04840 0.20700
H 	H 	0.69140 0.79230 0.89410 0.08600
H 	H 	0.77550 0.69430 0.81690 0.03300
H 	H 	-0.00000 0.80740 0.90320 -0.24400
H 	H 	0.12150 0.74230 0.14460 0.08700
H 	H 	0.76700 0.08860 0.61790 -0.00200
H 	H 	0.60680 0.74470 0.15500 0.07300
H 	H 	0.31890 0.21510 0.80660 0.00700
H 	H 	0.33070 0.64870 0.93180 0.10600
H 	H 	0.65700 0.32410 0.02400 -0.18400
H 	H 	0.31800 0.64870 0.06820 0.08600
H 	H 	0.76700 0.67840 0.11790 -0.00200
H 	H 	0.26470 0.74970 0.03710 0.02300
H 	H 	0.33070 0.64870 0.56820 0.09600
H 	H 	0.57890 0.70870 0.10470 0.01600
H 	H 	0.31890 0.10380 0.19340 0.00000
H 	H 	0.64870 0.33070 0.93180 0.10600
H 	H 	-0.00000 0.65800 0.31030 0.15800
H 	H 	0.31800 0.66930 0.93180 0.10800
H 	H 	0.69430 0.91880 0.18310 0.06100
H 	H 	0.60680 0.86210 0.84500 0.08800
H 	H 	0.74470 0.60680 0.34500 0.07300
H 	H 	-0.00000 0.75980 0.49100 0.11000
H 	H 	0.36170 0.75290 0.54030 -0.17400
H 	H 	0.12150 0.37920 0.64460 0.08900
H 	H 	-0.00000 0.51385 0.84300 -0.04300
H 	H 	0.80740 -0.00000 0.90320 -0.24400
H 	H 	0.48500 0.73530 0.46290 0.02700
H 	H 	0.12980 0.70870 0.89530 0.01400
H 	H 	0.33290 0.67590 0.02400 -0.18600
H 	H 	0.51500 0.26470 0.96290 0.02500
H 	H 	0.28610 0.61060 0.49070 0.05800
H 	H 	0.19260 0.19260 0.90320 -0.22100
H 	H 	0.25030 0.73530 0.96290 0.02900
H 	H 	0.35130 0.68200 0.93180 0.10700
H 	H 	0.22450 0.30570 0.31690 0.02300
C 	C 	-0.00000 0.34430 0.42070 3.67100
C 	C 	0.46900 0.14670 0.95696 0.46700
C 	C 	0.80260 0.59710 0.60231 -0.07100
C 	C 	0.41620 0.00000 0.79490 0.21000
C 	C 	0.64270 0.82420 0.62716 0.12800
C 	C 	0.16810 0.75140 0.08539 0.04200
C 	C 	0.21580 0.36090 0.65300 -0.13100
C 	C 	0.35100 0.85470 0.44016 0.44900
C 	C 	0.26720 0.62730 0.52140 0.09100
C 	C 	0.31060 0.18670 0.12370 -0.10300
C 	C 	0.63990 0.37270 0.52140 0.09600
C 	C 	0.85330 0.32230 0.95696 0.45500
C 	C 	0.59710 0.79450 0.10231 -0.07200
C 	C 	0.63910 0.78420 0.34700 -0.11600
C 	C 	0.68940 0.81330 0.87630 -0.09300
C 	C 	0.18380 0.47120 0.43068 -0.17000
C 	C 	0.35800 0.66600 0.94940 -0.33700
C 	C 	0.68150 0.88340 0.86910 -0.06200
C 	C 	0.80310 0.69130 0.66970 0.04800
C 	C 	0.43050 0.16520 0.40630 0.05500
C 	C 	0.00000 0.46725 0.69540 -0.27500
C 	C 	0.30870 0.11180 0.66970 0.06500
C 	C 	0.52100 0.00000 0.16360 0.20200
C 	C 	0.12390 0.81330 0.37630 -0.10600
C 	C 	0.61140 0.00000 0.15130 0.50200
C 	C 	0.36010 0.62730 0.02140 0.03900
C 	C 	0.19190 0.31680 0.67570 0.06700
C 	C 	0.32230 0.85330 0.95696 0.45500
C 	C 	0.87510 0.19190 0.32430 0.06300
C 	C 	0.61140 0.61140 0.65130 0.52100
C 	C 	0.81330 0.68940 0.87630 -0.09300
C 	C 	0.73130 0.86460 0.67260 -0.17600
C 	C 	0.31200 0.67200 0.49410 -0.19200
C 	C 	0.68940 0.87610 0.12370 -0.08800
C 	C 	0.00000 0.41620 0.70510 0.21100
C 	C 	0.81850 0.64270 0.12716 0.12400
C 	C 	0.16470 0.16470 0.55220 -0.48700
C 	C 	0.14530 0.49630 0.44016 0.45900
C 	C 	0.20550 0.80260 0.39769 -0.07800
C 	C 	0.20190 0.88340 0.36910 -0.06900
C 	C 	-0.00000 0.54450 0.39360 0.50000
C 	C 	0.35730 0.18150 0.62716 0.15000
C 	C 	0.56034 0.56034 0.64160 -0.32600
C 	C 	0.36000 0.67200 0.99410 -0.20600
C 	C 	-0.00000 0.25400 0.06710 -1.20500
C 	C 	0.41620 0.00000 0.70510 0.21100
C 	C 	0.19740 0.40290 0.39769 -0.09500
C 	C 	0.28740 0.47120 0.56932 -0.17000
C 	C 	0.17740 0.27460 0.84630 0.06000
C 	C 	0.69200 0.33400 0.94940 -0.33900
C 	C 	0.19190 0.87510 0.32430 0.06300
C 	C 	0.19690 0.30870 0.16970 0.07500
C 	C 	0.81620 0.28740 0.06932 -0.15000
C 	C 	0.53275 0.00000 0.19540 -0.27500
C 	C 	0.51410 0.76370 0.94676 0.08200
C 	C 	0.74600 0.74600 0.43290 -1.12200
C 	C 	0.67770 0.14670 0.04304 0.46800
C 	C 	0.24960 0.48590 0.55324 0.09400
C 	C 	0.64200 0.33400 0.44940 -0.30500
C 	C 	-0.00000 0.58380 0.20510 0.21100
C 	C 	0.41670 0.16810 0.58539 0.04700
C 	C 	0.09720 0.27460 0.15370 0.07900
C 	C 	0.82420 0.64270 0.62716 0.12800
C 	C 	0.11660 0.79810 0.63090 -0.08800
C 	C 	0.12390 0.31060 0.87630 -0.11700
C 	C 	-0.00000 0.26815 0.46430 0.24800
C 	C 	0.78420 0.14510 0.65300 -0.11300
C 	C 	0.56034 0.00000 0.14160 -0.32700
C 	C 	0.54180 0.80940 0.06095 -0.13400
C 	C 	0.73185 0.73185 0.03570 0.27300
C 	C 	0.35800 0.66600 0.55060 -0.30100
C 	C 	0.83530 0.83530 0.05220 -0.50700
C 	C 	0.85330 0.32230 0.54304 0.45600
C 	C 	0.16520 0.73470 0.90630 0.04600
C 	C 	0.16620 0.89960 0.64650 0.04600
C 	C 	0.43966 0.00000 0.85840 -0.32600
C 	C 	0.75040 0.51410 0.05324 0.08400
C 	C 	0.73340 0.83380 0.85350 0.05900
C 	C 	0.48590 0.24960 0.94676 0.09200
C 	C 	0.81850 0.17580 0.87284 0.13400
C 	C 	0.80810 0.68320 0.32430 0.04800
C 	C 	0.79450 0.19740 0.60231 -0.07700
C 	C 	0.73280 0.36010 0.52140 0.09200
C 	C 	0.26720 0.62730 0.97860 0.14100
C 	C 	0.24860 0.41670 0.08539 0.04700
C 	C 	0.64770 0.86410 0.35310 -0.09700
C 	C 	0.00000 0.79770 0.57540 0.67300
C 	C 	0.62730 0.36010 0.02140 0.03900
C 	C 	0.45820 0.19060 0.93905 -0.15300
C 	C 	0.45550 0.00000 0.60640 0.50100
C 	C 	0.90280 0.72540 0.84630 0.04500
C 	C 	0.09720 0.82260 0.65370 0.06500
C 	C 	0.62310 0.62310 0.68310 -0.38900
C 	C 	0.12490 0.31680 0.32430 0.05200
C 	C 	0.26530 0.83480 0.09370 0.04700
C 	C 	0.26815 0.00000 0.03570 0.29200
C 	C 	0.13590 0.35230 0.64690 -0.11200
C 	C 	0.73130 0.86460 0.82740 -0.17600
C 	C 	0.16620 0.89960 0.85350 0.04700
C 	C 	0.35230 0.21640 0.35310 -0.11900
C 	C 	0.27460 0.09720 0.34630 0.07800
C 	C 	0.00000 0.43966 0.85840 -0.32600
C 	C 	0.83480 0.56950 0.59370 0.04200
C 	C 	0.83530 0.00000 0.55220 -0.51400
C 	C 	0.34430 0.34430 0.92070 3.66300
C 	C 	0.36090 0.21580 0.65300 -0.13100
C 	C 	0.30870 0.19690 0.16970 0.07500
C 	C 	0.35100 0.49630 0.55984 0.45800
C 	C 	0.56950 0.83480 0.59370 0.04200
C 	C 	0.64770 0.78360 0.85310 -0.09900
C 	C 	0.82260 0.72540 0.15370 0.04300
C 	C 	0.36010 0.73280 0.52140 0.09200
C 	C 	-0.00000 0.56034 0.35840 -0.32700
C 	C 	0.54450 0.00000 0.39360 0.50000
C 	C 	0.85490 0.21580 0.15300 -0.12700
C 	C 	0.17580 0.35730 0.12716 0.15000
C 	C 	0.73280 0.36010 0.97860 0.14300
C 	C 	-0.00000 0.53275 0.19540 -0.27500
C 	C 	0.67200 0.31200 0.00590 -0.17800
C 	C 	0.88680 0.78020 0.69660 0.61500
C 	C 	0.68150 0.79810 0.13090 -0.06900
C 	C 	0.32640 0.32640 0.52720 1.11100
C 	C 	-0.00000 0.79770 0.92460 0.64800
C 	C 	0.86410 0.21640 0.64690 -0.10800
C 	C 	0.28740 0.47120 0.93068 -0.16800
C 	C 	0.58330 0.83190 0.08539 0.03200
C 	C 	0.26660 0.16620 0.35350 0.05900
C 	C 	-0.00000 0.65570 0.57930 3.66900
C 	C 	0.00000 0.16470 0.05220 -0.55300
C 	C 	0.35100 0.49630 0.94016 0.45700
C 	C 	0.83480 0.26530 0.09370 0.04700
C 	C 	0.73280 0.37270 0.47860 0.09200
C 	C 	0.80810 0.12490 0.67570 0.04300
C 	C 	0.85470 0.50370 0.94016 0.44600
C 	C 	0.78020 0.88680 0.80340 0.61400
C 	C 	0.65570 0.65570 0.07930 3.63300
C 	C 	0.53100 0.85330 0.45696 0.45600
C 	C 	0.33400 0.69200 0.94940 -0.33900
C 	C 	0.23630 0.48590 0.44676 0.09300
C 	C 	0.13590 0.78360 0.35310 -0.10500
C 	C 	0.66600 0.30800 0.05060 -0.26500
C 	C 	-0.00000 0.46725 0.80460 -0.27500
C 	C 	0.68320 0.87510 0.67570 0.05300
C 	C 	0.56950 0.83480 0.90630 0.04000
C 	C 	0.18670 0.31060 0.12370 -0.10300
C 	C 	0.26720 0.63990 0.47860 0.09600
C 	C 	0.47120 0.28740 0.93068 -0.16800
C 	C 	0.64000 0.32800 0.00590 -0.17700
C 	C 	0.88340 0.20190 0.36910 -0.06900
C 	C 	0.43050 0.26530 0.59370 0.05500
C 	C 	0.50370 0.85470 0.55984 0.44800
C 	C 	0.37690 0.00000 0.68310 -0.39200
C 	C 	0.00000 0.76940 0.51250 -0.31700
C 	C 	0.66600 0.35800 0.94940 -0.33700
C 	C 	0.32640 0.00000 0.02720 0.98500
C 	C 	0.32230 0.46900 0.04304 0.46700
C 	C 	0.50370 0.64900 0.44016 0.45500
C 	C 	0.16520 0.43050 0.09370 0.05600
C 	C 	0.25400 0.00000 0.43290 -1.18000
C 	C 	0.73240 0.54180 0.93905 -0.13900
C 	C 	-0.00000 0.52100 0.16360 0.20200
C 	C 	0.58330 0.75140 0.58539 0.03600
C 	C 	0.25400 0.25400 0.93290 -1.10500
C 	C 	0.16810 0.41670 0.91461 0.04600
C 	C 	0.21980 0.11320 0.19660 0.66400
C 	C 	0.19740 0.79450 0.60231 -0.07700
C 	C 	0.21580 0.85490 0.34700 -0.12800
C 	C 	0.31850 0.20190 0.86910 -0.08600
C 	C 	0.71260 0.52880 0.06932 -0.16100
C 	C 	0.23060 0.00000 0.01250 -0.39300
C 	C 	0.26530 0.43050 0.90630 0.05400
C 	C 	0.68150 0.88340 0.63090 -0.06300
C 	C 	0.81620 0.52880 0.56932 -0.14500
C 	C 	0.00000 0.38860 0.65130 0.50200
C 	C 	0.82115 0.82115 0.02080 0.35300
C 	C 	0.31200 0.64000 0.99410 -0.20600
C 	C 	0.45550 0.45550 0.39360 0.53900
C 	C 	0.79770 -0.00000 0.57540 0.67300
C 	C 	0.33400 0.64200 0.44940 -0.30500
C 	C 	0.30800 0.64200 0.94940 -0.34100
C 	C 	0.65570 -0.00000 0.92070 3.68300
C 	C 	0.89960 0.73340 0.35350 0.04700
C 	C 	0.35730 0.17580 0.37284 0.15000
C 	C 	0.54180 0.73240 0.56095 -0.14200
C 	C 	0.79450 0.59710 0.10231 -0.07200
C 	C 	0.12390 0.81330 0.12370 -0.10500
C 	C 	0.85470 0.35100 0.44016 0.44900
C 	C 	0.51410 0.75040 0.44676 0.08200
C 	C 	0.41670 0.16810 0.91461 0.04600
C 	C 	0.86460 0.13330 0.17260 -0.19700
C 	C 	0.32800 0.64000 0.49410 -0.19100
C 	C 	0.32800 0.68800 0.99410 -0.20500
C 	C 	0.86670 0.73130 0.32740 -0.16900
C 	C 	0.46725 0.46725 0.30460 -0.27500
C 	C 	0.78360 0.13590 0.35310 -0.10500
C 	C 	0.88820 0.69130 0.33030 0.05300
C 	C 	0.18380 0.71260 0.93068 -0.15900
C 	C 	0.64200 0.30800 0.94940 -0.34100
C 	C 	0.18150 0.35730 0.87284 0.14900
C 	C 	0.64270 0.81850 0.37284 0.12300
C 	C 	0.24860 0.83190 0.58539 0.03400
C 	C 	0.21980 0.10660 0.80340 0.66700
C 	C 	0.31060 0.12390 0.62370 -0.11600
C 	C 	0.11660 0.79810 0.86910 -0.08700
C 	C 	0.73340 0.89960 0.35350 0.04700
C 	C 	0.17740 0.90280 0.34630 0.05000
C 	C 	0.47900 0.00000 0.83640 0.20100
C 	C 	0.34430 0.34430 0.57930 3.65000
C 	C 	0.83380 0.73340 0.64650 0.05900
C 	C 	0.17740 0.90280 0.15370 0.05000
C 	C 	0.73340 0.89960 0.14650 0.04600
C 	C 	0.56950 0.73470 0.09370 0.04400
C 	C 	0.49630 0.35100 0.55984 0.45800
C 	C 	0.36010 0.73280 0.97860 0.14300
C 	C 	0.82420 0.64270 0.87284 0.12800
C 	C 	0.64270 0.81850 0.12716 0.12400
C 	C 	0.28740 0.81620 0.43068 -0.14800
C 	C 	0.61140 0.61140 0.84870 0.52100
C 	C 	-0.00000 0.38860 0.84870 0.50100
C 	C 	0.11180 0.30870 0.83030 0.06500
C 	C 	0.88820 0.69130 0.16970 0.05400
C 	C 	0.78360 0.13590 0.14690 -0.10500
C 	C 	0.32800 0.68800 0.50590 -0.19000
C 	C 	0.46725 0.46725 0.19540 -0.27600
C 	C 	0.19690 0.88820 0.66970 0.06700
C 	C 	0.72540 0.90280 0.84630 0.04500
C 	C 	0.32800 0.64000 0.00590 -0.17700
C 	C 	0.86460 0.13330 0.32740 -0.19600
C 	C 	0.64200 0.30800 0.55060 -0.30500
C 	C 	0.51410 0.75040 0.05324 0.08400
C 	C 	0.85470 0.35100 0.05984 0.45000
C 	C 	0.63910 0.85490 0.65300 -0.12100
C 	C 	0.58330 0.75140 0.91461 0.03500
C 	C 	0.79450 0.59710 0.39769 -0.07100
C 	C 	0.76370 0.51410 0.55324 0.08400
C 	C 	0.35730 0.17580 0.12716 0.15000
C 	C 	0.23060 0.23060 0.98750 -0.22000
C 	C 	0.75040 0.23630 0.94676 0.08300
C 	C 	0.45550 0.45550 0.10640 0.54100
C 	C 	0.82260 0.09720 0.65370 0.06500
C 	C 	0.37690 0.37690 0.31690 -0.39100
C 	C 	0.67200 0.36000 0.50590 -0.19200
C 	C 	0.81330 0.12390 0.12370 -0.10500
C 	C 	0.78360 0.64770 0.64690 -0.10000
C 	C 	-0.00000 0.37690 0.68310 -0.39200
C 	C 	0.26815 0.26815 0.96430 0.18300
C 	C 	0.82115 0.82115 0.47920 0.31000
C 	C 	0.38860 0.00000 0.84870 0.50100
C 	C 	0.31850 0.20190 0.63090 -0.08700
C 	C 	0.13330 0.26870 0.67260 -0.22200
C 	C 	0.23060 0.00000 0.48750 -0.32400
C 	C 	0.71260 0.52880 0.43068 -0.15900
C 	C 	0.21580 0.85490 0.15300 -0.12700
C 	C 	0.20230 0.20230 0.57540 0.64800
C 	C 	0.21980 0.11320 0.30340 0.66400
C 	C 	0.88820 0.19690 0.66970 0.06700
C 	C 	0.13590 0.35230 0.85310 -0.11200
C 	C 	0.43050 0.26530 0.90630 0.05400
C 	C 	0.73340 0.83380 0.64650 0.05900
C 	C 	0.00000 0.52100 0.33640 0.20100
C 	C 	0.25400 0.00000 0.06710 -1.20500
C 	C 	0.12490 0.80810 0.82430 0.04400
C 	C 	0.50370 0.64900 0.05984 0.45600
C 	C 	0.32230 0.46900 0.45696 0.46600
C 	C 	0.32640 -0.00000 0.47280 1.05900
C 	C 	0.69130 0.80310 0.83030 0.04800
C 	C 	0.59710 0.80260 0.89769 -0.07000
C 	C 	0.16520 0.43050 0.40630 0.05500
C 	C 	0.88340 0.20190 0.13090 -0.07000
C 	C 	0.64000 0.32800 0.49410 -0.19100
C 	C 	0.64270 0.82420 0.87284 0.12800
C 	C 	0.13330 0.26870 0.82740 -0.22200
C 	C 	0.26720 0.63990 0.02140 0.04500
C 	C 	0.65570 0.65570 0.42070 3.64700
C 	C 	0.63910 0.85490 0.84700 -0.12200
C 	C 	0.10040 0.26660 0.85350 0.07300
C 	C 	0.00000 0.53275 0.30460 -0.27500
C 	C 	0.11320 0.89340 0.69660 0.62100
C 	C 	0.18670 0.31060 0.37630 -0.10400
C 	C 	0.19690 0.88820 0.83030 0.06600
C 	C 	0.66600 0.30800 0.44940 -0.30100
C 	C 	0.62730 0.26720 0.52140 0.09100
C 	C 	0.71260 0.18380 0.93068 -0.15900
C 	C 	0.13590 0.78360 0.14690 -0.10500
C 	C 	0.36000 0.68800 0.49410 -0.19100
C 	C 	0.23630 0.48590 0.05324 0.09500
C 	C 	0.53275 0.53275 0.80460 -0.27400
C 	C 	0.14530 0.64900 0.55984 0.45700
C 	C 	0.53100 0.85330 0.04304 0.45700
C 	C 	0.09720 0.82260 0.84630 0.06400
C 	C 	0.26530 0.43050 0.59370 0.05500
C 	C 	0.40290 0.20550 0.60231 -0.09600
C 	C 	0.16810 0.41670 0.58539 0.04700
C 	C 	0.76940 0.00000 0.98750 -0.24800
C 	C 	0.73280 0.37270 0.02140 0.04200
C 	C 	0.83480 0.26530 0.40630 0.04500
C 	C 	0.20550 0.40290 0.60231 -0.09600
C 	C 	0.76940 0.76940 0.48750 -0.27700
C 	C 	0.00000 0.16470 0.44780 -0.52000
C 	C 	0.31680 0.12490 0.17570 0.05200
C 	C 	0.67360 0.00000 0.97280 1.13700
C 	C 	-0.00000 0.82115 0.97920 0.27100
C 	C 	0.26660 0.16620 0.14650 0.05800
C 	C 	0.58330 0.83190 0.41461 0.03100
C 	C 	0.76370 0.24960 0.44676 0.08600
C 	C 	0.68150 0.79810 0.36910 -0.06800
C 	C 	0.85470 0.50370 0.55984 0.44800
C 	C 	0.11320 0.89340 0.80340 0.62100
C 	C 	0.67200 0.31200 0.49410 -0.19200
C 	C 	0.87610 0.18670 0.62370 -0.08900
C 	C 	0.76370 0.24960 0.05324 0.08800
C 	C 	0.31680 0.19190 0.82430 0.06700
C 	C 	0.17580 0.35730 0.37284 0.15000
C 	C 	0.64000 0.31200 0.50590 -0.19200
C 	C 	0.85490 0.21580 0.34700 -0.12800
C 	C 	0.81330 0.12390 0.37630 -0.10600
C 	C 	0.54450 0.00000 0.10640 0.50300
C 	C 	0.24960 0.48590 0.94676 0.09200
C 	C 	-0.00000 0.56034 0.14160 -0.32700
C 	C 	0.51410 0.76370 0.55324 0.08400
C 	C 	0.82260 0.72540 0.34630 0.04300
C 	C 	0.82115 0.00000 0.97920 0.27100
C 	C 	0.73185 0.00000 0.53570 0.24800
C 	C 	0.30870 0.19690 0.33030 0.07500
C 	C 	-0.00000 0.83530 0.55220 -0.51400
C 	C 	0.45820 0.19060 0.56095 -0.15600
C 	C 	0.68800 0.32800 0.50590 -0.19000
C 	C 	0.52880 0.81620 0.56932 -0.14500
C 	C 	0.00000 0.45550 0.89360 0.49900
C 	C 	0.27460 0.09720 0.15370 0.07900
C 	C 	0.35230 0.21640 0.14690 -0.12000
C 	C 	0.17885 0.00000 0.02080 0.34900
C 	C 	0.21580 0.36090 0.84700 -0.13200
C 	C 	0.67200 0.36000 0.99410 -0.20600
C 	C 	-0.00000 0.47900 0.66360 0.20200
C 	C 	0.31200 0.64000 0.50590 -0.19200
C 	C 	0.58380 0.00000 0.29490 0.21100
C 	C 	0.26815 0.00000 0.46430 0.24800
C 	C 	0.26530 0.83480 0.40630 0.04500
C 	C 	0.12490 0.31680 0.17570 0.05200
C 	C 	0.23630 0.75040 0.55324 0.08400
C 	C 	0.62730 0.36010 0.47860 0.09000
C 	C 	0.64770 0.86410 0.14690 -0.09700
C 	C 	0.26760 0.80940 0.93905 -0.12900
C 	C 	0.24860 0.41670 0.41461 0.04600
C 	C 	0.69200 0.33400 0.55060 -0.30200
C 	C 	0.53100 0.67770 0.54304 0.46300
C 	C 	0.65570 0.00000 0.57930 3.66900
C 	C 	0.80810 0.68320 0.17570 0.04800
C 	C 	0.50370 0.85470 0.94016 0.44600
C 	C 	0.46725 0.00000 0.80460 -0.27500
C 	C 	-0.00000 0.74600 0.93290 -1.15300
C 	C 	0.75040 0.51410 0.44676 0.08200
C 	C 	-0.00000 0.25400 0.43290 -1.18000
C 	C 	0.83530 0.83530 0.44780 -0.47400
C 	C 	0.38860 0.38860 0.34870 0.52200
C 	C 	0.54180 0.80940 0.43905 -0.13100
C 	C 	0.56034 0.00000 0.35840 -0.32700
C 	C 	-0.00000 0.26815 0.03570 0.29200
C 	C 	-0.00000 0.83530 0.94780 -0.48100
C 	C 	0.89340 0.11320 0.80340 0.62100
C 	C 	0.21640 0.86410 0.64690 -0.10800
C 	C 	0.17885 0.17885 0.97920 0.25000
C 	C 	0.18670 0.87610 0.87630 -0.08900
C 	C 	0.09720 0.27460 0.34630 0.07800
C 	C 	0.27460 0.17740 0.65370 0.06100
C 	C 	-0.00000 0.58380 0.29490 0.21100
C 	C 	0.67770 0.14670 0.45696 0.46700
C 	C 	0.74600 0.74600 0.06710 -1.14700
C 	C 	0.53275 0.00000 0.30460 -0.27500
C 	C 	0.81620 0.28740 0.43068 -0.14800
C 	C 	0.75040 0.23630 0.55324 0.08400
C 	C 	0.19690 0.30870 0.33030 0.07500
C 	C 	0.19190 0.87510 0.17570 0.06300
C 	C 	0.19740 0.40290 0.10231 -0.09600
C 	C 	0.80940 0.26760 0.93905 -0.12900
C 	C 	0.46900 0.14670 0.54304 0.46800
C 	C 	0.37690 0.37690 0.18310 -0.39100
C 	C 	0.73470 0.16520 0.90630 0.04600
C 	C 	-0.00000 0.54450 0.10640 0.50300
C 	C 	0.20190 0.88340 0.13090 -0.07000
C 	C 	0.20550 0.80260 0.10231 -0.07900
C 	C 	0.52100 0.52100 0.83640 0.21900
C 	C 	0.14530 0.49630 0.05984 0.46000
C 	C 	0.68940 0.81330 0.62370 -0.09300
C 	C 	0.14510 0.78420 0.84700 -0.11300
C 	C 	0.81850 0.64270 0.37284 0.12300
C 	C 	0.68940 0.87610 0.37630 -0.08900
C 	C 	0.31200 0.67200 0.00590 -0.17800
C 	C 	0.16520 0.73470 0.59370 0.04700
C 	C 	0.85490 0.63910 0.65300 -0.12100
C 	C 	0.33400 0.64200 0.05060 -0.26800
C 	C 	0.87510 0.19190 0.17570 0.06300
C 	C 	0.18150 0.35730 0.62716 0.15000
C 	C 	0.64770 0.78360 0.64690 -0.10000
C 	C 	0.36010 0.62730 0.47860 0.09000
C 	C 	0.61140 0.00000 0.34870 0.50200
C 	C 	0.52100 0.00000 0.33640 0.20100
C 	C 	0.12390 0.31060 0.62370 -0.11600
C 	C 	0.87510 0.68320 0.67570 0.05300
C 	C 	0.43050 0.16520 0.09370 0.05600
C 	C 	0.88340 0.68150 0.63090 -0.06300
C 	C 	0.74600 0.00000 0.93290 -1.15300
C 	C 	0.18380 0.47120 0.06932 -0.17200
C 	C 	-0.00000 0.65570 0.92070 3.68300
C 	C 	0.63910 0.78420 0.15300 -0.11600
C 	C 	0.59710 0.79450 0.39769 -0.07100
C 	C 	-0.00000 0.41620 0.79490 0.21000
C 	C 	0.31060 0.18670 0.37630 -0.10400
C 	C 	0.64900 0.14530 0.55984 0.45700
C 	C 	0.35100 0.85470 0.05984 0.45000
C 	C 	0.27460 0.17740 0.84630 0.06000
C 	C 	0.16810 0.75140 0.41461 0.04100
C 	C 	-0.00000 0.34430 0.07930 3.65700
C 	C 	0.11180 0.80310 0.16970 0.05300
C 	C 	0.46725 0.00000 0.69540 -0.27500
C 	C 	-0.00000 0.20230 0.42460 0.66600
C 	C 	0.36090 0.21580 0.84700 -0.13200
C 	C 	0.19190 0.31680 0.82430 0.06700
C 	C 	0.00000 0.82115 0.52080 0.31400
C 	C 	-0.00000 0.61140 0.15130 0.50200
C 	C 	0.26870 0.13330 0.82740 -0.22200
C 	C 	0.26870 0.13540 0.17260 -0.22000
C 	C 	0.40290 0.19740 0.10231 -0.09600
C 	C 	0.73240 0.19060 0.06095 -0.14900
C 	C 	0.16470 0.00000 0.44780 -0.52000
C 	C 	0.79450 0.19740 0.89769 -0.07500
C 	C 	0.13330 0.86460 0.32740 -0.19600
C 	C 	0.26760 0.45820 0.43905 -0.15400
C 	C 	0.79810 0.68150 0.13090 -0.06900
C 	C 	0.48590 0.24960 0.55324 0.09400
C 	C 	0.86460 0.73130 0.82740 -0.17600
C 	C 	0.47900 0.47900 0.33640 0.22100
C 	C 	0.68800 0.36000 0.49410 -0.19100
C 	C 	0.17580 0.81850 0.87284 0.13400
C 	C 	0.78420 0.14510 0.84700 -0.11300
C 	C 	0.73130 0.86670 0.17260 -0.16900
C 	C 	0.24960 0.76370 0.05324 0.08800
C 	C 	0.87610 0.68940 0.12370 -0.08800
C 	C 	0.76370 0.51410 0.94676 0.08200
C 	C 	0.69130 0.88820 0.16970 0.05400
C 	C 	0.10660 0.88680 0.19660 0.63700
C 	C 	0.30800 0.66600 0.44940 -0.30100
C 	C 	0.75140 0.16810 0.08539 0.04200
C 	C 	0.11320 0.21980 0.19660 0.66400
C 	C 	0.00000 0.43966 0.64160 -0.32700
C 	C 	0.19740 0.79450 0.89769 -0.07500
C 	C 	0.88680 0.10660 0.30340 0.63700
C 	C 	0.78020 0.89340 0.19660 0.60200
C 	C 	0.47120 0.28740 0.56932 -0.17000
C 	C 	0.76940 0.00000 0.51250 -0.31700
C 	C 	0.23060 0.23060 0.51250 -0.29000
C 	C 	0.69200 0.35800 0.05060 -0.26600
C 	C 	0.80940 0.54180 0.43905 -0.13100
C 	C 	0.17740 0.27460 0.65370 0.06100
C 	C 	0.28740 0.81620 0.06932 -0.15000
C 	C 	0.41670 0.24860 0.41461 0.04600
C 	C 	0.14670 0.46900 0.95696 0.46700
C 	C 	0.10660 0.21980 0.69660 0.66700
C 	C 	0.46900 0.32230 0.45696 0.46600
C 	C 	0.86460 0.73130 0.67260 -0.17600
C 	C 	0.89340 0.78020 0.19660 0.60200
C 	C 	0.79810 0.11660 0.86910 -0.08700
C 	C 	0.32640 0.32640 0.97280 1.18500
C 	C 	0.90280 0.17740 0.15370 0.05000
C 	C 	0.83380 0.73340 0.85350 0.05900
C 	C 	0.18150 0.82420 0.37284 0.13900
C 	C 	0.62730 0.26720 0.97860 0.14100
C 	C 	0.80810 0.12490 0.82430 0.04400
C 	C 	0.13540 0.26870 0.17260 -0.22000
C 	C 	-0.00000 0.62310 0.31690 -0.39100
C 	C 	0.54450 0.54450 0.89360 0.53400
C 	C 	0.72540 0.82260 0.15370 0.04300
C 	C 	0.53275 0.53275 0.69540 -0.27400
C 	C 	0.10040 0.26660 0.64650 0.07200
C 	C 	0.45550 0.00000 0.89360 0.49900
C 	C 	0.31680 0.12490 0.32430 0.05200
C 	C 	0.76940 0.76940 0.01250 -0.34800
C 	C 	0.78420 0.63910 0.34700 -0.11600
C 	C 	0.72540 0.90280 0.65370 0.04500
C 	C 	0.36000 0.68800 0.00590 -0.17600
C 	C 	0.79810 0.11660 0.63090 -0.08800
C 	C 	0.83190 0.24860 0.58539 0.03400
C 	C 	0.78360 0.64770 0.85310 -0.09900
C 	C 	0.45820 0.26760 0.43905 -0.15400
C 	C 	0.86410 0.64770 0.35310 -0.09700
C 	C 	0.21640 0.35230 0.35310 -0.11900
C 	C 	0.52880 0.71260 0.06932 -0.16100
C 	C 	0.63990 0.26720 0.47860 0.09600
C 	C 	0.67360 0.67360 0.47280 1.12500
C 	C 	0.56950 0.73470 0.40630 0.04300
C 	C 	-0.00000 0.17885 0.47920 0.30600
C 	C 	0.78020 0.88680 0.69660 0.61500
C 	C 	0.13540 0.86670 0.67260 -0.18700
C 	C 	0.58380 0.58380 0.79490 0.22900
C 	C 	0.31060 0.12390 0.87630 -0.11700
C 	C 	0.81620 0.52880 0.93068 -0.14300
C 	C 	0.58380 0.00000 0.20510 0.21100
C 	C 	0.88820 0.19690 0.83030 0.06600
C 	C 	0.75140 0.58330 0.91461 0.03500
C 	C 	-0.00000 0.32640 0.47280 1.05900
C 	C 	0.64000 0.31200 0.99410 -0.20600
C 	C 	0.12490 0.80810 0.67570 0.04300
C 	C 	0.56034 0.56034 0.85840 -0.32500
C 	C 	0.79770 0.79770 0.07540 0.68700
C 	C 	0.41620 0.41620 0.20510 0.23100
C 	C 	0.26660 0.10040 0.64650 0.07200
C 	C 	0.47900 0.00000 0.66360 0.20200
C 	C 	0.18380 0.71260 0.56932 -0.16100
C 	C 	0.32230 0.85330 0.54304 0.45600
C 	C 	0.47120 0.18380 0.06932 -0.17200
C 	C 	0.10040 0.83380 0.14650 0.07100
C 	C 	0.19060 0.73240 0.06095 -0.14900
C 	C 	0.81850 0.17580 0.62716 0.13400
C 	C 	0.19060 0.45820 0.93905 -0.15300
C 	C 	0.26870 0.13330 0.67260 -0.22200
C 	C 	0.88340 0.68150 0.86910 -0.06200
C 	C 	0.14510 0.36090 0.34700 -0.12200
C 	C 	0.34430 0.00000 0.42070 3.67100
C 	C 	0.73470 0.16520 0.59370 0.04700
C 	C 	0.17885 -0.00000 0.47920 0.30600
C 	C 	0.73185 0.73185 0.46430 0.22800
C 	C 	0.64200 0.33400 0.05060 -0.26800
C 	C 	0.35800 0.69200 0.44940 -0.30200
C 	C 	0.80310 0.11180 0.16970 0.05300
C 	C 	0.16470 0.16470 0.94780 -0.45400
C 	C 	0.23630 0.75040 0.94676 0.08300
C 	C 	0.82260 0.09720 0.84630 0.06400
C 	C 	0.87610 0.18670 0.87630 -0.08900
C 	C 	-0.00000 0.73185 0.96430 0.20500
C 	C 	0.68320 0.80810 0.32430 0.04800
C 	C 	0.10660 0.21980 0.80340 0.66700
C 	C 	0.20230 0.00000 0.42460 0.66600
C 	C 	0.64900 0.50370 0.44016 0.45500
C 	C 	0.62310 0.00000 0.18310 -0.39200
C 	C 	0.88680 0.78020 0.80340 0.61400
C 	C 	0.26815 0.26815 0.53570 0.22800
C 	C 	0.54450 0.54450 0.60640 0.53700
C 	C 	0.49630 0.14530 0.44016 0.45900
C 	C 	0.83530 -0.00000 0.94780 -0.48100
C 	C 	0.16620 0.26660 0.14650 0.05800
C 	C 	0.82420 0.18150 0.37284 0.13900
C 	C 	0.85330 0.53100 0.04304 0.45700
C 	C 	0.37270 0.73280 0.02140 0.04200
C 	C 	0.43966 0.00000 0.64160 -0.32700
C 	C 	0.63990 0.37270 0.97860 0.14800
C 	C 	0.73470 0.56950 0.09370 0.04400
C 	C 	0.43966 0.43966 0.14160 -0.32900
C 	C 	0.83380 0.10040 0.35350 0.07200
C 	C 	0.31680 0.19190 0.67570 0.06700
C 	C 	0.11660 0.31850 0.13090 -0.10100
C 	C 	0.36090 0.14510 0.15300 -0.12100
C 	C 	0.14530 0.64900 0.94016 0.45600
C 	C 	0.35230 0.13590 0.64690 -0.11200
C 	C 	-0.00000 0.23060 0.48750 -0.32400
C 	C 	0.31850 0.11660 0.36910 -0.10000
C 	C 	0.48590 0.23630 0.44676 0.09300
C 	C 	0.83190 0.58330 0.41461 0.03100
C 	C 	0.14670 0.67770 0.04304 0.46800
C 	C 	0.68320 0.87510 0.82430 0.05400
C 	C 	0.36000 0.67200 0.50590 -0.19200
C 	C 	0.90280 0.72540 0.65370 0.04500
C 	C 	0.82115 0.00000 0.52080 0.31400
C 	C 	0.62310 0.62310 0.81690 -0.38900
C 	C 	0.80260 0.20550 0.39769 -0.07800
C 	C 	0.86670 0.13540 0.82740 -0.18700
C 	C 	0.37270 0.63990 0.97860 0.14800
C 	C 	0.80260 0.20550 0.10231 -0.07900
C 	C 	0.80940 0.26760 0.56095 -0.13300
C 	C 	0.14670 0.67770 0.45696 0.46700
C 	C 	0.69130 0.80310 0.66970 0.04800
C 	C 	0.83190 0.58330 0.08539 0.03200
C 	C 	0.48590 0.23630 0.05324 0.09500
C 	C 	0.31850 0.11660 0.13090 -0.10100
C 	C 	-0.00000 0.23060 0.01250 -0.39300
C 	C 	0.36090 0.14510 0.34700 -0.12200
C 	C 	0.11660 0.31850 0.36910 -0.10000
C 	C 	0.38860 0.38860 0.15130 0.52300
C 	C 	0.83380 0.10040 0.14650 0.07100
C 	C 	0.37690 0.00000 0.81690 -0.39200
C 	C 	0.73240 0.54180 0.56095 -0.14200
C 	C 	0.34430 0.00000 0.07930 3.65700
C 	C 	0.14510 0.36090 0.15300 -0.12100
C 	C 	0.43966 0.43966 0.35840 -0.32800
C 	C 	0.73470 0.56950 0.40630 0.04300
C 	C 	0.83480 0.56950 0.90630 0.04000
C 	C 	0.37270 0.73280 0.47860 0.09200
C 	C 	0.85330 0.53100 0.45696 0.45600
C 	C 	0.67770 0.53100 0.95696 0.46200
C 	C 	0.82420 0.18150 0.12716 0.13900
C 	C 	0.16620 0.26660 0.35350 0.05900
C 	C 	0.49630 0.14530 0.05984 0.46000
C 	C 	0.62310 0.00000 0.31690 -0.39100
C 	C 	0.64900 0.50370 0.05984 0.45600
C 	C 	0.20230 0.00000 0.07540 0.69200
C 	C 	0.35230 0.13590 0.85310 -0.11200
C 	C 	0.24860 0.83190 0.91461 0.03200
C 	C 	0.89960 0.16620 0.64650 0.04600
C 	C 	0.75140 0.58330 0.58539 0.03600
C 	C 	0.86410 0.21640 0.85310 -0.10800
C 	C 	0.68320 0.80810 0.17570 0.04800
C 	C 	0.19060 0.45820 0.56095 -0.15600
C 	C 	0.80310 0.11180 0.33030 0.05300
C 	C 	0.35800 0.69200 0.05060 -0.26600
C 	C 	0.20190 0.31850 0.63090 -0.08700
C 	C 	0.52100 0.52100 0.66360 0.22000
C 	C 	-0.00000 0.47900 0.83640 0.20100
C 	C 	0.80260 0.59710 0.89769 -0.07000
C 	C 	0.35730 0.18150 0.87284 0.14900
C 	C 	0.19060 0.73240 0.43905 -0.14600
C 	C 	0.10040 0.83380 0.35350 0.07200
C 	C 	0.47120 0.18380 0.43068 -0.17000
C 	C 	0.37270 0.63990 0.52140 0.09600
C 	C 	0.49630 0.35100 0.94016 0.45700
C 	C 	0.79810 0.68150 0.36910 -0.06800
C 	C 	0.41620 0.41620 0.29490 0.23100
C 	C 	0.79770 0.79770 0.42460 0.66100
C 	C 	-0.00000 0.32640 0.02720 0.98500
C 	C 	0.86670 0.13540 0.67260 -0.18700
C 	C 	0.83190 0.24860 0.91461 0.03200
C 	C 	0.87510 0.68320 0.82430 0.05400
C 	C 	0.30800 0.64200 0.55060 -0.30500
C 	C 	0.21980 0.10660 0.69660 0.66700
C 	C 	-0.00000 0.17885 0.02080 0.34900
C 	C 	0.89960 0.73340 0.14650 0.04600
C 	C 	0.17580 0.81850 0.62716 0.13400
C 	C 	0.67360 0.67360 0.02720 1.05100
C 	C 	0.38860 0.00000 0.65130 0.50200
C 	C 	0.52880 0.71260 0.43068 -0.15900
C 	C 	0.21640 0.35230 0.14690 -0.12000
C 	C 	0.86410 0.64770 0.14690 -0.09700
C 	C 	0.45820 0.26760 0.06095 -0.15700
C 	C 	0.40290 0.20550 0.89769 -0.09500
C 	C 	0.11180 0.30870 0.66970 0.06500
C 	C 	0.64900 0.14530 0.94016 0.45600
C 	C 	0.78420 0.63910 0.15300 -0.11600
C 	C 	-0.00000 0.76940 0.98750 -0.24800
C 	C 	0.59710 0.80260 0.60231 -0.07100
C 	C 	0.00000 0.45550 0.60640 0.50100
C 	C 	0.13540 0.86670 0.82740 -0.18700
C 	C 	0.73185 0.00000 0.96430 0.20500
C 	C 	0.14510 0.78420 0.65300 -0.11300
C 	C 	-0.00000 0.67360 0.52720 1.06500
C 	C 	0.89340 0.11320 0.69660 0.62100
C 	C 	0.72540 0.82260 0.34630 0.04300
C 	C 	0.58380 0.58380 0.70510 0.23000
C 	C 	0.13540 0.26870 0.32740 -0.22000
C 	C 	0.66600 0.35800 0.55060 -0.30100
C 	C 	-0.00000 0.37690 0.81690 -0.39200
C 	C 	0.18150 0.82420 0.12716 0.13900
C 	C 	0.90280 0.17740 0.34630 0.05000
C 	C 	0.17885 0.17885 0.52080 0.29300
C 	C 	0.71260 0.18380 0.56932 -0.16100
C 	C 	0.89340 0.78020 0.30340 0.60200
C 	C 	0.20230 0.20230 0.92460 0.62200
C 	C 	0.33400 0.69200 0.55060 -0.30200
C 	C 	0.85490 0.63910 0.84700 -0.12200
C 	C 	-0.00000 0.67360 0.97280 1.13700
C 	C 	0.46900 0.32230 0.04304 0.46700
C 	C 	0.41670 0.24860 0.08539 0.04700
C 	C 	0.20550 0.40290 0.89769 -0.09500
C 	C 	0.30870 0.11180 0.83030 0.06500
C 	C 	0.80940 0.54180 0.06095 -0.13400
C 	C 	0.20190 0.31850 0.86910 -0.08600
C 	C 	0.69200 0.35800 0.44940 -0.30200
C 	C 	0.78020 0.89340 0.30340 0.60200
C 	C 	0.80310 0.69130 0.83030 0.04800
C 	C 	0.88680 0.10660 0.19660 0.63700
C 	C 	0.67770 0.53100 0.54304 0.46300
C 	C 	0.81330 0.68940 0.62370 -0.09300
C 	C 	0.11320 0.21980 0.30340 0.66400
C 	C 	0.00000 0.73185 0.53570 0.24800
C 	C 	0.00000 0.74600 0.56710 -1.17700
C 	C 	0.75140 0.16810 0.41461 0.04100
C 	C 	0.30800 0.66600 0.05060 -0.26500
C 	C 	0.89960 0.16620 0.85350 0.04700
C 	C 	0.10660 0.88680 0.30340 0.63700
C 	C 	0.25400 0.25400 0.56710 -1.13000
C 	C 	0.69130 0.88820 0.33030 0.05300
C 	C 	0.74600 0.00000 0.56710 -1.17700
C 	C 	0.87610 0.68940 0.37630 -0.08900
C 	C 	0.24960 0.76370 0.44676 0.08600
C 	C 	0.73130 0.86670 0.32740 -0.16900
C 	C 	0.26760 0.80940 0.56095 -0.13300
C 	C 	0.54180 0.73240 0.93905 -0.13900
C 	C 	-0.00000 0.62310 0.18310 -0.39200
C 	C 	0.86670 0.73130 0.17260 -0.16900
C 	C 	0.68800 0.36000 0.00590 -0.17600
C 	C 	0.47900 0.47900 0.16360 0.22200
C 	C 	0.63990 0.26720 0.02140 0.04500
C 	C 	0.26660 0.10040 0.85350 0.07300
C 	C 	0.26760 0.45820 0.06095 -0.15700
C 	C 	0.13330 0.86460 0.17260 -0.19700
C 	C 	0.67360 0.00000 0.52720 1.06500
C 	C 	0.52880 0.81620 0.93068 -0.14300
C 	C 	0.16470 -0.00000 0.05220 -0.55300
C 	C 	0.21640 0.86410 0.85310 -0.10800
C 	C 	0.73240 0.19060 0.43905 -0.14600
C 	C 	0.53100 0.67770 0.95696 0.46200
C 	C 	0.40290 0.19740 0.39769 -0.09500
C 	C 	0.14670 0.46900 0.54304 0.46800
C 	C 	0.26870 0.13540 0.32740 -0.22000
C 	C 	0.79770 0.00000 0.92460 0.64800
C 	C 	0.00000 0.61140 0.34870 0.50200
C 	C 	0.68800 0.32800 0.99410 -0.20500
C 	C 	0.18670 0.87610 0.62370 -0.08900
C 	C 	-0.00000 0.20230 0.07540 0.69200
C 	C 	0.11180 0.80310 0.33030 0.05300
N 	N 	0.65920 0.33350 0.47780 0.27100
N 	N 	0.32570 0.66650 0.02220 0.26500
N 	N 	0.34080 0.66650 0.52220 0.26900
N 	N 	0.65920 0.32570 0.97780 0.27400
N 	N 	0.66650 0.34080 0.52220 0.26900
N 	N 	0.67430 0.33350 0.52220 0.27000
N 	N 	0.67430 0.33350 0.97780 0.27300
N 	N 	0.34080 0.66650 0.97780 0.27200
N 	N 	0.67430 0.34080 0.02220 0.26700
N 	N 	0.65920 0.33350 0.02220 0.26800
N 	N 	0.33350 0.67430 0.97780 0.27300
N 	N 	0.65920 0.32570 0.52220 0.27100
N 	N 	0.32570 0.66650 0.47780 0.26900
N 	N 	0.32570 0.65920 0.52220 0.27100
N 	N 	0.66650 0.34080 0.97780 0.27200
N 	N 	0.33350 0.65920 0.47780 0.27100
N 	N 	0.34080 0.67430 0.02220 0.26700
N 	N 	0.66650 0.32570 0.02220 0.26500
N 	N 	0.32570 0.65920 0.97780 0.27400
N 	N 	0.33350 0.67430 0.52220 0.27000
N 	N 	0.66650 0.32570 0.47780 0.26900
N 	N 	0.34080 0.67430 0.47780 0.27000
N 	N 	0.33350 0.65920 0.02220 0.26800
N 	N 	0.67430 0.34080 0.47780 0.27000
O 	O 	0.21890 0.15090 0.21530 -0.56300
O 	O 	0.62828 0.46239 0.45999 -0.51900
O 	O 	0.94475 0.40592 0.48998 -0.74800
O 	O 	0.47410 0.00000 0.10580 0.76800
O 	O 	0.09490 0.47390 0.07254 -0.54900
O 	O 	0.52590 0.52590 0.10580 0.85800
O 	O 	0.41830 0.41830 0.08750 0.30800
O 	O 	0.91840 0.00000 0.30010 -11.99500
O 	O 	0.94474 0.45645 0.95886 -0.76000
O 	O 	0.08160 0.08160 0.19990 -11.96800
O 	O 	0.62828 0.16589 0.95999 -0.51400
O 	O 	0.49610 0.00000 0.10100 -1.29900
O 	O 	0.05560 0.93710 0.75000 -0.75300
O 	O 	0.14580 0.93080 0.28800 -0.47800
O 	O 	0.38300 0.76300 0.00220 -0.24300
O 	O 	0.62100 0.52610 0.42746 -0.54500
O 	O 	-0.00000 0.62120 0.89900 -1.33600
O 	O 	0.62120 -0.00000 0.60100 -1.33300
O 	O 	0.02730 0.96840 0.65000 0.52500
O 	O 	0.94474 0.48829 0.04114 -0.76700
O 	O 	0.88070 0.05710 0.18990 0.11200
O 	O 	0.21500 0.14580 0.78800 -0.50400
O 	O 	0.51660 0.34958 0.47254 -0.50800
O 	O 	-0.00000 0.49610 0.10100 -1.29900
O 	O 	0.05890 0.02730 0.35000 0.40900
O 	O 	0.06920 0.21500 0.28800 -0.52100
O 	O 	0.48829 0.54355 0.95886 -0.81700
O 	O 	0.05525 0.59408 0.51002 -0.83000
O 	O 	0.62000 0.38300 0.99780 -0.30500
O 	O 	0.48829 0.94474 0.45886 -0.76400
O 	O 	0.92590 0.92590 0.34300 0.10200
O 	O 	0.94474 0.45645 0.54114 -0.76400
O 	O 	0.16589 0.62828 0.95999 -0.51400
O 	O 	0.59408 0.05525 0.51002 -0.83000
O 	O 	0.05890 0.03160 0.65000 0.35300
O 	O 	0.93200 0.15090 0.71530 -0.52100
O 	O 	-0.00000 0.33530 0.99770 -1.17200
O 	O 	0.88070 0.82360 0.68990 0.13800
O 	O 	0.16702 0.51660 0.52746 -0.50800
O 	O 	-0.00000 0.07410 0.34300 0.00000
O 	O 	0.23700 0.62000 0.00220 -0.24300
O 	O 	0.09490 0.62100 0.92746 -0.54600
O 	O 	0.12260 0.18180 0.80540 -0.22000
O 	O 	0.05525 0.46117 0.01002 -0.84100
O 	O 	0.59408 0.53883 0.01002 -0.81400
O 	O 	0.83298 0.48340 0.02746 -0.50800
O 	O 	0.83298 0.34958 0.97254 -0.49300
O 	O 	0.45645 0.51171 0.45886 -0.82100
O 	O 	0.09330 0.42920 0.54524 -0.56600
O 	O 	0.94080 0.12260 0.19460 -0.17400
O 	O 	0.33530 0.33530 0.49770 -1.35400
O 	O 	0.33530 -0.00000 0.50230 -1.28900
O 	O 	0.42920 0.09330 0.54524 -0.56600
O 	O 	0.05525 0.59408 0.98998 -0.82000
O 	O 	-0.00000 0.59940 0.41250 -0.72200
O 	O 	0.66410 0.57080 0.95476 -0.55200
O 	O 	0.07410 0.07410 0.65700 0.17400
O 	O 	0.97270 0.94110 0.85000 0.59800
O 	O 	0.90510 0.52610 0.92746 -0.49100
O 	O 	0.06290 0.11850 0.75000 -0.79700
O 	O 	0.00000 0.33530 0.50230 -1.28900
O 	O 	0.59408 0.05525 0.98998 -0.82000
O 	O 	-0.00000 0.40060 0.91250 -0.72200
O 	O 	0.34958 0.51660 0.02746 -0.51500
O 	O 	0.32820 0.32820 0.48320 0.67400
O 	O 	0.90670 0.33590 0.95476 -0.50300
O 	O 	0.09330 0.42920 0.95476 -0.56000
O 	O 	0.85420 0.06920 0.78800 -0.51400
O 	O 	0.90670 0.57080 0.04524 -0.51500
O 	O 	0.06800 0.84910 0.28470 -0.57600
O 	O 	0.05526 0.54355 0.04114 -0.85000
O 	O 	0.05710 0.88070 0.31010 0.11200
O 	O 	0.93200 0.78110 0.28470 -0.51800
O 	O 	0.85420 0.78500 0.21200 -0.49300
O 	O 	-0.00000 0.00000 0.78120 1.28800
O 	O 	0.08160 0.00000 0.69990 -12.07300
O 	O 	0.62120 0.62120 0.39900 -1.29100
O 	O 	0.57080 0.90670 0.04524 -0.51500
O 	O 	0.05890 0.03160 0.85000 0.35400
O 	O 	-0.00000 0.67180 0.48320 0.59400
O 	O 	0.81820 0.94080 0.80540 -0.17000
O 	O 	0.48340 0.65042 0.97254 -0.49800
O 	O 	0.90510 0.37900 0.42746 -0.49200
O 	O 	-0.00000 0.66470 0.00230 -1.41700
O 	O 	0.62000 0.23700 0.00220 -0.24300
O 	O 	-0.00000 0.50390 0.60100 -1.29600
O 	O 	0.37880 0.37880 0.60100 -1.29200
O 	O 	0.38000 0.76300 0.50220 -0.27400
O 	O 	0.18180 0.05920 0.30540 -0.23700
O 	O 	0.15090 0.21890 0.21530 -0.56300
O 	O 	0.81820 0.87740 0.30540 -0.20000
O 	O 	0.11930 0.17640 0.31010 0.12500
O 	O 	0.53883 0.59408 0.01002 -0.81400
O 	O 	0.85420 0.78500 0.28800 -0.49300
O 	O 	0.66410 0.57080 0.54524 -0.55800
O 	O 	-0.00000 0.91840 0.30010 -11.99500
O 	O 	0.09330 0.66410 0.04524 -0.56900
O 	O 	0.37880 0.37880 0.89900 -1.29500
O 	O 	0.83411 0.46239 0.54001 -0.51300
O 	O 	0.83411 0.37172 0.04001 -0.51700
O 	O 	0.18180 0.12260 0.69460 -0.22000
O 	O 	0.40060 -0.00000 0.91250 -0.72200
O 	O 	0.15090 0.93200 0.78470 -0.52100
O 	O 	0.05710 0.17640 0.68990 0.10100
O 	O 	0.62000 0.38300 0.50220 -0.27400
O 	O 	0.65042 0.48340 0.97254 -0.49800
O 	O 	0.59940 0.59940 0.91250 -0.74400
O 	O 	0.88070 0.82360 0.81010 0.13800
O 	O 	0.17640 0.05710 0.81010 0.10100
O 	O 	0.66470 0.66470 0.99770 -1.25800
O 	O 	-0.00000 0.00000 0.21880 1.28800
O 	O 	0.91840 0.91840 0.80010 -11.81600
O 	O 	0.94290 0.82360 0.31010 0.18100
O 	O 	0.78500 0.93080 0.71200 -0.47600
O 	O 	0.48340 0.83298 0.02746 -0.50800
O 	O 	-0.00000 0.47410 0.39420 0.76500
O 	O 	0.37900 0.90510 0.07254 -0.49300
O 	O 	0.37172 0.83411 0.45999 -0.51300
O 	O 	0.83298 0.34958 0.52746 -0.50100
O 	O 	0.97270 0.94110 0.65000 0.59800
O 	O 	0.37172 0.83411 0.04001 -0.51700
O 	O 	0.62100 0.09490 0.92746 -0.54600
O 	O 	0.76300 0.38300 0.49780 -0.27400
O 	O 	0.91840 0.91840 0.69990 -11.81600
O 	O 	0.37900 0.90510 0.42746 -0.49200
O 	O 	-0.00000 0.47410 0.10580 0.76800
O 	O 	0.48340 0.83298 0.47254 -0.50100
O 	O 	0.84910 0.78110 0.78470 -0.55200
O 	O 	0.34958 0.83298 0.52746 -0.50100
O 	O 	0.14580 0.93080 0.21200 -0.47800
O 	O 	0.84910 0.06800 0.28470 -0.57600
O 	O 	0.00000 0.66470 0.49770 -1.30000
O 	O 	0.94290 0.82360 0.18990 0.18100
O 	O 	0.00000 0.00000 0.28120 1.28800
O 	O 	0.78110 0.84910 0.78470 -0.55200
O 	O 	0.21890 0.06800 0.71530 -0.58300
O 	O 	0.49610 0.49610 0.60100 -1.35700
O 	O 	0.53761 0.37172 0.54001 -0.52000
O 	O 	0.87740 0.05920 0.69460 -0.22200
O 	O 	0.37900 0.47390 0.57254 -0.54700
O 	O 	0.76300 0.38000 0.50220 -0.27400
O 	O 	0.17640 0.11930 0.31010 0.12500
O 	O 	0.83411 0.37172 0.45999 -0.51300
O 	O 	0.06800 0.21890 0.71530 -0.58300
O 	O 	0.09330 0.66410 0.45476 -0.56400
O 	O 	-0.00000 0.91840 0.19990 -11.99500
O 	O 	0.53883 0.59408 0.48998 -0.80400
O 	O 	0.53761 0.37172 0.95999 -0.51500
O 	O 	0.11930 0.17640 0.18990 0.12400
O 	O 	0.57080 0.90670 0.45476 -0.50900
O 	O 	0.81820 0.87740 0.19460 -0.20000
O 	O 	0.15090 0.21890 0.28470 -0.56300
O 	O 	0.18180 0.05920 0.19460 -0.23700
O 	O 	0.47410 0.47410 0.89420 0.84900
O 	O 	0.94080 0.81820 0.80540 -0.17000
O 	O 	0.96840 0.02730 0.85000 0.52600
O 	O 	0.62000 0.23700 0.49780 -0.27400
O 	O 	0.53761 0.16589 0.45999 -0.52000
O 	O 	0.90510 0.37900 0.07254 -0.49300
O 	O 	0.64440 0.00000 0.94930 -1.83500
O 	O 	-0.00000 0.67180 0.01680 0.68100
O 	O 	0.06290 0.94440 0.25000 -0.74500
O 	O 	0.62120 0.62120 0.10100 -1.28800
O 	O 	0.92590 0.00000 0.65700 -0.03500
O 	O 	0.64440 0.00000 0.55070 -1.81100
O 	O 	-0.00000 0.41830 0.58750 0.25800
O 	O 	-0.00000 0.59940 0.08750 -0.72100
O 	O 	0.58170 0.58170 0.91250 0.31300
O 	O 	0.93200 0.78110 0.21530 -0.51800
O 	O 	0.46239 0.83411 0.95999 -0.50800
O 	O 	0.05710 0.88070 0.18990 0.11200
O 	O 	0.05526 0.54355 0.45886 -0.84600
O 	O 	0.61700 0.23700 0.99780 -0.30500
O 	O 	0.16702 0.51660 0.97254 -0.50000
O 	O 	0.05890 0.02730 0.15000 0.40900
O 	O 	0.06800 0.84910 0.21530 -0.57600
O 	O 	0.90670 0.57080 0.45476 -0.50900
O 	O 	0.52590 0.52590 0.39420 0.85500
O 	O 	0.58170 0.58170 0.58750 0.31100
O 	O 	-0.00000 0.64440 0.94930 -1.83500
O 	O 	0.34958 0.51660 0.47254 -0.50800
O 	O 	0.05560 0.11850 0.25000 -0.81000
O 	O 	0.05525 0.46117 0.48998 -0.83100
O 	O 	0.51171 0.05526 0.95886 -0.84200
O 	O 	0.11930 0.94290 0.68990 0.18000
O 	O 	0.40592 0.46117 0.51002 -0.80500
O 	O 	0.62828 0.16589 0.54001 -0.51900
O 	O 	0.33590 0.42920 0.45476 -0.56000
O 	O 	0.33530 0.33530 0.00230 -1.47300
O 	O 	0.94080 0.12260 0.30540 -0.17400
O 	O 	0.46239 0.83411 0.54001 -0.51300
O 	O 	0.06920 0.85420 0.71200 -0.51400
O 	O 	0.85420 0.06920 0.71200 -0.51400
O 	O 	0.50390 0.00000 0.89900 -1.29300
O 	O 	0.96840 0.94110 0.35000 0.52900
O 	O 	0.33590 0.90670 0.54524 -0.50900
O 	O 	0.45645 0.51171 0.04114 -0.82400
O 	O 	0.40060 -0.00000 0.58750 -0.72200
O 	O 	0.83298 0.48340 0.47254 -0.50100
O 	O 	0.59408 0.53883 0.48998 -0.80400
O 	O 	0.65042 0.48340 0.52746 -0.50700
O 	O 	0.23700 0.62000 0.49780 -0.27400
O 	O 	0.93080 0.78500 0.71200 -0.47600
O 	O 	-0.00000 0.07410 0.15700 0.00000
O 	O 	0.54355 0.48829 0.54114 -0.82100
O 	O 	0.46239 0.62828 0.45999 -0.51900
O 	O 	0.62100 0.09490 0.57254 -0.54700
O 	O 	0.53883 0.94475 0.98998 -0.73800
O 	O 	0.92590 0.92590 0.15700 0.10200
O 	O 	0.48829 0.94474 0.04114 -0.76700
O 	O 	-0.00000 0.62120 0.60100 -1.33300
O 	O 	0.42920 0.09330 0.95476 -0.56000
O 	O 	0.45645 0.94474 0.95886 -0.76000
O 	O 	0.67180 0.67180 0.51680 0.70000
O 	O 	-0.00000 0.40060 0.58750 -0.72200
O 	O 	0.52610 0.90510 0.57254 -0.49200
O 	O 	0.06920 0.21500 0.21200 -0.52100
O 	O 	-0.00000 0.49610 0.39900 -1.29600
O 	O 	0.03160 0.05890 0.85000 0.35400
O 	O 	0.51660 0.34958 0.02746 -0.51500
O 	O 	0.37172 0.53761 0.54001 -0.52000
O 	O 	0.51171 0.05526 0.54114 -0.84600
O 	O 	0.88070 0.05710 0.31010 0.11200
O 	O 	0.94474 0.48829 0.45886 -0.76400
O 	O 	0.46239 0.62828 0.04001 -0.52300
O 	O 	0.62100 0.52610 0.07254 -0.54600
O 	O 	0.38300 0.76300 0.49780 -0.27400
O 	O 	0.59940 0.59940 0.58750 -0.74300
O 	O 	0.14580 0.21500 0.71200 -0.50400
O 	O 	0.23700 0.61700 0.50220 -0.27500
O 	O 	0.00000 0.52590 0.60580 0.76600
O 	O 	0.49610 0.00000 0.39900 -1.29600
O 	O 	0.94110 0.97270 0.65000 0.59800
O 	O 	-0.00000 0.64440 0.55070 -1.81100
O 	O 	0.08160 0.08160 0.30010 -11.96800
O 	O 	-0.00000 0.32820 0.98320 0.49400
O 	O 	0.61700 0.23700 0.50220 -0.27500
O 	O 	0.91840 -0.00000 0.19990 -11.99500
O 	O 	0.41830 0.41830 0.41250 0.31000
O 	O 	0.66470 0.66470 0.50230 -1.37800
O 	O 	0.38000 0.76300 0.99780 -0.30500
O 	O 	0.81820 0.94080 0.69460 -0.17000
O 	O 	0.09490 0.47390 0.42746 -0.54800
O 	O 	0.52590 -0.00000 0.89420 0.76300
O 	O 	0.47410 0.00000 0.39420 0.76500
O 	O 	0.94475 0.40592 0.01002 -0.75800
O 	O 	0.62828 0.46239 0.04001 -0.52300
O 	O 	0.21890 0.15090 0.28470 -0.56300
O 	O 	0.92590 0.00000 0.84300 -0.03500
O 	O 	0.54355 0.48829 0.95886 -0.81700
O 	O 	0.05920 0.87740 0.69460 -0.22200
O 	O 	0.94080 0.81820 0.69460 -0.17000
O 	O 	0.12260 0.94080 0.19460 -0.17400
O 	O 	0.64440 0.64440 0.05070 -1.76800
O 	O 	0.17640 0.05710 0.68990 0.10100
O 	O 	0.97270 0.03160 0.35000 0.53800
O 	O 	0.41830 -0.00000 0.91250 0.26000
O 	O 	0.15090 0.93200 0.71530 -0.52100
O 	O 	0.05920 0.87740 0.80540 -0.22200
O 	O 	0.45645 0.94474 0.54114 -0.76400
O 	O 	0.32820 0.00000 0.51680 0.58200
O 	O 	-0.00000 0.37880 0.10100 -1.33000
O 	O 	0.00000 0.32820 0.51680 0.58200
O 	O 	0.66470 0.00000 0.49770 -1.30000
O 	O 	0.02730 0.96840 0.85000 0.52600
O 	O 	0.46117 0.40592 0.51002 -0.80500
O 	O 	-0.00000 0.58170 0.08750 0.25700
O 	O 	0.51171 0.45645 0.45886 -0.82100
O 	O 	0.62120 0.00000 0.89900 -1.33600
O 	O 	0.78110 0.93200 0.28470 -0.51800
O 	O 	0.88150 0.93710 0.25000 -0.71600
O 	O 	0.21500 0.06920 0.21200 -0.52100
O 	O 	0.87740 0.05920 0.80540 -0.22200
O 	O 	0.50390 0.50390 0.39900 -1.36100
O 	O 	0.87740 0.81820 0.30540 -0.20000
O 	O 	0.82360 0.88070 0.81010 0.13800
O 	O 	0.93200 0.15090 0.78470 -0.52100
O 	O 	0.05920 0.18180 0.30540 -0.23700
O 	O 	0.07410 0.07410 0.84300 0.17400
O 	O 	0.37880 0.00000 0.10100 -1.33000
O 	O 	0.47390 0.37900 0.57254 -0.54700
O 	O 	0.09490 0.62100 0.57254 -0.54700
O 	O 	0.05710 0.17640 0.81010 0.10100
O 	O 	0.02730 0.05890 0.35000 0.40900
O 	O 	0.84910 0.06800 0.21530 -0.57600
O 	O 	0.47390 0.09490 0.07254 -0.54900
O 	O 	0.94110 0.96840 0.15000 0.52900
O 	O 	0.14580 0.21500 0.78800 -0.50400
O 	O 	0.53883 0.94475 0.51002 -0.74900
O 	O 	0.16589 0.62828 0.54001 -0.51900
O 	O 	0.46117 0.05525 0.48998 -0.83100
O 	O 	0.35560 0.00000 0.05070 -1.78700
O 	O 	0.96840 0.94110 0.15000 0.52900
O 	O 	0.41830 -0.00000 0.58750 0.25800
O 	O 	0.49610 0.49610 0.89900 -1.35400
O 	O 	0.40592 0.94475 0.01002 -0.75800
O 	O 	0.93080 0.14580 0.28800 -0.47800
O 	O 	0.47410 0.47410 0.60580 0.85100
O 	O 	0.21500 0.14580 0.71200 -0.50400
O 	O 	0.17640 0.11930 0.18990 0.12400
O 	O 	0.59940 -0.00000 0.08750 -0.72100
O 	O 	0.90510 0.52610 0.57254 -0.49200
O 	O 	-0.00000 0.35560 0.05070 -1.78700
O 	O 	0.84910 0.78110 0.71530 -0.55200
O 	O 	0.58170 0.00000 0.41250 0.25900
O 	O 	0.93710 0.05560 0.75000 -0.75300
O 	O 	0.54355 0.05526 0.04114 -0.85000
O 	O 	0.03160 0.97270 0.15000 0.53800
O 	O 	0.50390 -0.00000 0.60100 -1.29600
O 	O 	0.33530 0.00000 0.99770 -1.17200
O 	O 	0.07410 0.00000 0.34300 0.00000
O 	O 	0.78110 0.84910 0.71530 -0.55200
O 	O 	0.06800 0.21890 0.78470 -0.58300
O 	O 	0.93080 0.78500 0.78800 -0.47600
O 	O 	0.94110 0.97270 0.85000 0.59800
O 	O 	0.32820 0.32820 0.01680 0.76300
O 	O 	0.33590 0.42920 0.04524 -0.56600
O 	O 	-0.00000 0.41830 0.91250 0.26000
O 	O 	0.40060 0.40060 0.08750 -0.74300
O 	O 	0.66410 0.09330 0.45476 -0.56400
O 	O 	0.76300 0.38300 0.00220 -0.24300
O 	O 	0.42920 0.33590 0.45476 -0.56000
O 	O 	0.16589 0.53761 0.45999 -0.52000
O 	O 	0.67180 0.00000 0.01680 0.68100
O 	O 	0.94475 0.53883 0.98998 -0.73800
O 	O 	0.48340 0.65042 0.52746 -0.50700
O 	O 	0.38300 0.62000 0.50220 -0.27400
O 	O 	0.40592 0.46117 0.98998 -0.79400
O 	O 	0.93710 0.88150 0.25000 -0.71600
O 	O 	0.00000 0.52590 0.89420 0.76300
O 	O 	0.52590 0.00000 0.60580 0.76600
O 	O 	0.06920 0.85420 0.78800 -0.51400
O 	O 	0.82360 0.94290 0.18990 0.18100
O 	O 	0.96840 0.02730 0.65000 0.52500
O 	O 	0.67180 0.67180 0.98320 0.61000
O 	O 	0.61700 0.38000 0.00220 -0.24400
O 	O 	-0.00000 0.92590 0.84300 -0.03500
O 	O 	0.57080 0.66410 0.54524 -0.55800
O 	O 	0.38000 0.61700 0.49780 -0.27500
O 	O 	0.52610 0.62100 0.42746 -0.54500
O 	O 	0.47390 0.37900 0.92746 -0.54600
O 	O 	0.16702 0.65042 0.47254 -0.50700
O 	O 	0.78500 0.85420 0.21200 -0.49300
O 	O 	0.51660 0.16702 0.52746 -0.50800
O 	O 	0.65042 0.16702 0.47254 -0.50700
O 	O 	0.65042 0.16702 0.02746 -0.51400
O 	O 	0.78500 0.85420 0.28800 -0.49300
O 	O 	-0.00000 0.08160 0.80010 -12.07300
O 	O 	0.16702 0.65042 0.02746 -0.51400
O 	O 	0.52610 0.90510 0.92746 -0.49100
O 	O 	0.94440 0.88150 0.75000 -0.72100
O 	O 	0.11850 0.05560 0.25000 -0.81000
O 	O 	0.52610 0.62100 0.07254 -0.54600
O 	O 	0.38000 0.61700 0.00220 -0.24400
O 	O 	0.46117 0.40592 0.98998 -0.79400
O 	O 	0.61700 0.38000 0.49780 -0.27500
O 	O 	0.82360 0.94290 0.31010 0.18100
O 	O 	0.21890 0.06800 0.78470 -0.58300
O 	O 	0.51660 0.16702 0.97254 -0.50000
O 	O 	0.05526 0.51171 0.54114 -0.84600
O 	O 	0.67180 0.00000 0.48320 0.59400
O 	O 	0.16589 0.53761 0.04001 -0.52400
O 	O 	-0.00000 0.50390 0.89900 -1.29300
O 	O 	0.66410 0.09330 0.04524 -0.56900
O 	O 	0.94440 0.06290 0.25000 -0.74500
O 	O 	-0.00000 0.35560 0.44930 -1.81000
O 	O 	0.40060 0.40060 0.41250 -0.74400
O 	O 	0.33590 0.90670 0.95476 -0.50300
O 	O 	-0.00000 0.08160 0.69990 -12.07300
O 	O 	0.18180 0.12260 0.80540 -0.22000
O 	O 	0.53761 0.16589 0.04001 -0.52400
O 	O 	0.82360 0.88070 0.68990 0.13800
O 	O 	0.76300 0.38000 0.99780 -0.30500
O 	O 	0.07410 0.00000 0.15700 0.00000
O 	O 	0.03160 0.97270 0.35000 0.53800
O 	O 	0.54355 0.05526 0.45886 -0.84600
O 	O 	0.37900 0.47390 0.92746 -0.54600
O 	O 	0.58170 -0.00000 0.08750 0.25700
O 	O 	0.59940 0.00000 0.41250 -0.72200
O 	O 	0.23700 0.61700 0.99780 -0.30500
O 	O 	0.93080 0.14580 0.21200 -0.47800
O 	O 	0.37172 0.53761 0.95999 -0.51500
O 	O 	0.40592 0.94475 0.48998 -0.74800
O 	O 	0.08160 0.00000 0.80010 -12.07300
O 	O 	0.12260 0.18180 0.69460 -0.22000
O 	O 	0.38300 0.62000 0.99780 -0.30500
O 	O 	0.03160 0.05890 0.65000 0.35300
O 	O 	0.94290 0.11930 0.68990 0.18000
O 	O 	0.35560 0.00000 0.44930 -1.81000
O 	O 	0.46117 0.05525 0.01002 -0.84100
O 	O 	0.94110 0.96840 0.35000 0.52900
O 	O 	0.51171 0.45645 0.04114 -0.82400
O 	O 	0.83411 0.46239 0.95999 -0.50800
O 	O 	0.47390 0.09490 0.42746 -0.54800
O 	O 	0.11850 0.06290 0.75000 -0.79700
O 	O 	0.02730 0.05890 0.15000 0.40900
O 	O 	0.05526 0.51171 0.95886 -0.84200
O 	O 	0.37880 0.00000 0.39900 -1.33300
O 	O 	0.88150 0.94440 0.75000 -0.72100
O 	O 	0.32820 0.00000 0.98320 0.49400
O 	O 	0.94290 0.11930 0.81010 0.18100
O 	O 	0.57080 0.66410 0.95476 -0.55200
O 	O 	0.05920 0.18180 0.19460 -0.23700
O 	O 	0.87740 0.81820 0.19460 -0.20000
O 	O 	0.50390 0.50390 0.10100 -1.36500
O 	O 	0.21500 0.06920 0.28800 -0.52100
O 	O 	0.94475 0.53883 0.51002 -0.74900
O 	O 	0.78110 0.93200 0.21530 -0.51800
O 	O 	0.35560 0.35560 0.55070 -1.79000
O 	O 	-0.00000 0.58170 0.41250 0.25900
O 	O 	0.00000 0.00000 0.71880 1.28800
O 	O 	0.11930 0.94290 0.81010 0.18100
O 	O 	0.66470 0.00000 0.00230 -1.41700
O 	O 	0.42920 0.33590 0.04524 -0.56600
O 	O 	-0.00000 0.37880 0.39900 -1.33300
O 	O 	0.48829 0.54355 0.54114 -0.82100
O 	O 	0.34958 0.83298 0.97254 -0.49300
O 	O 	0.97270 0.03160 0.15000 0.53800
O 	O 	0.78500 0.93080 0.78800 -0.47600
O 	O 	-0.00000 0.92590 0.65700 -0.03500
O 	O 	0.64440 0.64440 0.44930 -1.79200
O 	O 	0.12260 0.94080 0.30540 -0.17400
O 	O 	0.35560 0.35560 0.94930 -1.81300
O 	O 	0.90670 0.33590 0.54524 -0.50900
F 	F 	-0.00000 0.65080 0.36850 -0.51700
F 	F 	-0.00000 0.70980 0.91200 3.50000
F 	F 	0.29020 0.00000 0.41200 3.50700
F 	F 	0.29020 0.29020 0.58800 3.46300
F 	F 	0.34920 0.00000 0.63150 -0.51800
F 	F 	0.70980 0.00000 0.58800 3.50400
F 	F 	0.34920 0.34920 0.13150 -0.49200
F 	F 	0.65080 0.65080 0.86850 -0.48900
F 	F 	-0.00000 0.29020 0.41200 3.50700
F 	F 	-0.00000 0.29020 0.08800 3.51100
F 	F 	0.65080 0.65080 0.63150 -0.49000
F 	F 	0.70980 -0.00000 0.91200 3.50000
F 	F 	0.34920 0.34920 0.36850 -0.49100
F 	F 	-0.00000 0.70980 0.58800 3.50400
F 	F 	0.00000 0.34920 0.86850 -0.51700
F 	F 	0.29020 0.00000 0.08800 3.51100
F 	F 	-0.00000 0.65080 0.13150 -0.51800
F 	F 	-0.00000 0.34920 0.63150 -0.51800
F 	F 	0.34920 0.00000 0.86850 -0.51700
F 	F 	0.70980 0.70980 0.08800 3.46000
F 	F 	0.29020 0.29020 0.91200 3.45900
F 	F 	0.65080 0.00000 0.13150 -0.51800
F 	F 	0.65080 0.00000 0.36850 -0.51700
F 	F 	0.70980 0.70980 0.41200 3.45600
