data_crystal

_cell_length_a 29.95250
_cell_length_b 29.95250
_cell_length_c 29.95250
_cell_angle_alpha 90.00000
_cell_angle_beta  90.00000
_cell_angle_gamma 90.00000

_symmetry_space_group_name_	'P 1'
_symmetry_space_group_name_H-M	'P 1'

loop_
_symmetry_equiv_pos_as_xyz
  x,y,z

loop_
_atom_site_label
_atom_site_type_symbol
_atom_site_fract_x
_atom_site_fract_y
_atom_site_fract_z
_atom_site_charge
Zn	Zn	0.50000 0.05332 0.82264 1.21200
Zn	Zn	0.17736 0.50000 0.05332 1.21200
Zn	Zn	0.00000 0.25139 0.44672 1.21000
Zn	Zn	0.17736 0.50000 0.94668 1.21400
Zn	Zn	0.82264 0.50000 0.94668 1.21500
Zn	Zn	0.00000 0.25139 0.55328 1.21000
Zn	Zn	0.55328 0.00000 0.74861 1.21100
Zn	Zn	0.44672 0.00000 0.74861 1.21100
Zn	Zn	0.50000 0.05332 0.17736 1.21200
Zn	Zn	0.05332 0.17736 0.50000 1.21200
Zn	Zn	0.94668 0.17736 0.50000 1.21400
Zn	Zn	0.55328 -0.00000 0.25139 1.21000
Zn	Zn	0.00000 0.74861 0.44672 1.21100
Zn	Zn	0.94668 0.82264 0.50000 1.21500
Zn	Zn	0.50000 0.94668 0.82264 1.21500
Zn	Zn	0.25139 0.55328 -0.00000 1.21000
Zn	Zn	0.74861 0.44672 -0.00000 1.21100
Zn	Zn	0.05332 0.82264 0.50000 1.21200
Zn	Zn	0.74861 0.55328 -0.00000 1.21100
Zn	Zn	0.44672 -0.00000 0.25139 1.21000
Zn	Zn	0.25139 0.44672 -0.00000 1.21000
Zn	Zn	0.82264 0.50000 0.05332 1.21200
Zn	Zn	0.00000 0.74861 0.55328 1.21100
Zn	Zn	0.50000 0.94668 0.17736 1.21400
H 	H 	0.23890 0.11200 0.75440 0.32100
H 	H 	0.11200 0.75440 0.76110 0.32300
H 	H 	0.46710 0.56500 -0.00000 0.07100
H 	H 	0.65430 0.27380 0.17370 0.31800
H 	H 	0.17370 0.34570 0.27380 0.31800
H 	H 	0.80950 0.32370 0.68180 0.32400
H 	H 	0.79200 0.84070 0.34920 0.04300
H 	H 	0.33490 0.31220 0.13970 0.31300
H 	H 	0.90820 0.28740 0.73700 0.32300
H 	H 	0.60980 0.43470 -0.00000 -0.00400
H 	H 	0.77920 0.87790 0.29360 0.32600
H 	H 	0.20800 0.84070 0.34920 0.04300
H 	H 	0.50000 0.06620 0.03860 0.05500
H 	H 	0.26300 0.09180 0.71260 0.31500
H 	H 	0.79200 0.84070 0.65080 0.04300
H 	H 	0.06620 0.03860 0.50000 0.05500
H 	H 	0.71260 0.73700 0.90820 0.32400
H 	H 	0.73700 0.09180 0.28740 0.31500
H 	H 	0.40340 0.15330 0.83940 0.00700
H 	H 	0.65360 0.09760 0.73210 -0.01600
H 	H 	0.90240 0.26790 0.65360 -0.01400
H 	H 	0.68780 0.86030 0.66510 0.31900
H 	H 	0.15930 0.65080 0.79200 0.04200
H 	H 	0.66510 0.31220 0.13970 0.31300
H 	H 	0.31220 0.86030 0.33490 0.31800
H 	H 	0.26790 0.65360 0.09760 -0.01600
H 	H 	0.73700 0.90820 0.28740 0.32300
H 	H 	0.65080 0.20800 0.15930 0.04200
H 	H 	0.70640 0.22080 0.12210 0.31900
H 	H 	0.22080 0.87790 0.70640 0.32500
H 	H 	0.16060 0.59660 0.84670 0.00600
H 	H 	0.27380 0.17370 0.65430 0.31800
H 	H 	0.93380 0.96140 0.50000 0.02400
H 	H 	0.16060 0.59660 0.15330 0.00500
H 	H 	0.22080 0.12210 0.29360 0.31800
H 	H 	0.31820 0.19050 0.67630 0.32000
H 	H 	0.83940 0.40340 0.15330 0.00700
H 	H 	0.70640 0.77920 0.87790 0.32700
H 	H 	0.72620 0.17370 0.34570 0.31900
H 	H 	0.83940 0.40340 0.84670 0.00800
H 	H 	0.86030 0.33490 0.31220 0.31800
H 	H 	0.15330 0.83940 0.59660 0.00700
H 	H 	0.09180 0.28740 0.73700 0.31500
H 	H 	0.84070 0.65080 0.20800 0.04300
H 	H 	0.66510 0.31220 0.86030 0.31800
H 	H 	0.43500 0.00000 0.53290 0.07100
H 	H 	0.73700 0.09180 0.71260 0.31600
H 	H 	0.31820 0.19050 0.32370 0.31900
H 	H 	0.33490 0.31220 0.86030 0.31800
H 	H 	0.26300 0.09180 0.28740 0.31300
H 	H 	0.76110 0.88800 0.75440 0.32900
H 	H 	0.19050 0.32370 0.31820 0.31900
H 	H 	0.11200 0.24560 0.76110 0.32100
H 	H 	0.19050 0.67630 0.68180 0.32000
H 	H 	0.34570 0.72620 0.17370 0.31900
H 	H 	0.65430 0.72620 0.82630 0.32300
H 	H 	0.53290 0.43500 -0.00000 0.07100
H 	H 	0.20800 0.15930 0.34920 0.04300
H 	H 	0.11200 0.75440 0.23890 0.32100
H 	H 	0.68180 0.80950 0.67630 0.32400
H 	H 	0.88800 0.24560 0.76110 0.32800
H 	H 	0.65080 0.79200 0.84070 0.04300
H 	H 	0.32370 0.31820 0.19050 0.31900
H 	H 	0.79200 0.15930 0.34920 0.04200
H 	H 	0.96140 0.50000 0.06620 0.02500
H 	H 	0.90240 0.73210 0.65360 -0.01400
H 	H 	0.33490 0.68780 0.13970 0.31400
H 	H 	0.73700 0.90820 0.71260 0.32400
H 	H 	0.15330 0.83940 0.40340 0.00700
H 	H 	0.75440 0.23890 0.11200 0.32100
H 	H 	0.56530 0.00000 0.60980 -0.00400
H 	H 	0.09760 0.73210 0.65360 -0.01600
H 	H 	0.79200 0.15930 0.65080 0.04200
H 	H 	0.29360 0.22080 0.87790 0.32400
H 	H 	0.70640 0.77920 0.12210 0.32100
H 	H 	0.68180 0.80950 0.32370 0.32400
H 	H 	-0.00000 0.60980 0.43470 -0.00400
H 	H 	0.13970 0.66510 0.31220 0.31300
H 	H 	0.00000 0.53290 0.56500 0.07100
H 	H 	0.09760 0.73210 0.34640 -0.01600
H 	H 	0.68780 0.86030 0.33490 0.31800
H 	H 	0.34640 0.90240 0.73210 -0.01400
H 	H 	0.26790 0.65360 0.90240 -0.01400
H 	H 	0.65430 0.72620 0.17370 0.31900
H 	H 	0.34570 0.27380 0.82630 0.32200
H 	H 	0.71260 0.26300 0.09180 0.31500
H 	H 	0.28740 0.73700 0.90820 0.32300
H 	H 	0.43500 0.00000 0.46710 0.07100
H 	H 	0.24560 0.23890 0.88800 0.32600
H 	H 	0.68780 0.13970 0.33490 0.31400
H 	H 	0.66510 0.68780 0.13970 0.31400
H 	H 	0.70640 0.22080 0.87790 0.32500
H 	H 	0.31820 0.80950 0.32370 0.32300
H 	H 	0.50000 0.06620 0.96140 0.02500
H 	H 	-0.00000 0.46710 0.56500 0.07100
H 	H 	0.77920 0.87790 0.70640 0.32700
H 	H 	0.09180 0.28740 0.26300 0.31300
H 	H 	0.76110 0.88800 0.24560 0.32800
H 	H 	0.75440 0.23890 0.88800 0.32700
H 	H 	0.06620 0.96140 0.50000 0.02500
H 	H 	0.67630 0.31820 0.19050 0.32000
H 	H 	0.76110 0.11200 0.75440 0.32300
H 	H 	0.87790 0.29360 0.22080 0.32400
H 	H 	0.59660 0.84670 0.83940 0.00800
H 	H 	0.09180 0.71260 0.26300 0.31500
H 	H 	0.12210 0.70640 0.77920 0.32100
H 	H 	0.84070 0.34920 0.20800 0.04300
H 	H 	0.32370 0.68180 0.80950 0.32400
H 	H 	0.59660 0.15330 0.16060 0.00500
H 	H 	0.00000 0.39020 0.56530 -0.00400
H 	H 	0.11200 0.24560 0.23890 0.31900
H 	H 	0.84670 0.83940 0.59660 0.00800
H 	H 	0.23890 0.88800 0.24560 0.32600
H 	H 	0.86030 0.33490 0.68780 0.31800
H 	H 	0.80950 0.67630 0.31820 0.32300
H 	H 	0.00000 0.39020 0.43470 -0.00400
H 	H 	0.40340 0.84670 0.83940 0.00800
H 	H 	0.65430 0.27380 0.82630 0.32200
H 	H 	0.31220 0.13970 0.33490 0.31300
H 	H 	0.24560 0.23890 0.11200 0.31900
H 	H 	0.22080 0.12210 0.70640 0.31900
H 	H 	0.67630 0.68180 0.80950 0.32400
H 	H 	0.31820 0.80950 0.67630 0.32300
H 	H 	0.88800 0.24560 0.23890 0.32600
H 	H 	0.86030 0.66510 0.68780 0.31900
H 	H 	0.77920 0.12210 0.29360 0.32000
H 	H 	0.00000 0.60980 0.56530 -0.00400
H 	H 	0.72620 0.82630 0.65430 0.32300
H 	H 	0.83940 0.59660 0.84670 0.00800
H 	H 	0.34920 0.79200 0.84070 0.04300
H 	H 	0.17370 0.65430 0.72620 0.31900
H 	H 	0.09760 0.26790 0.34640 -0.01600
H 	H 	0.71260 0.26300 0.90820 0.32200
H 	H 	0.84070 0.65080 0.79200 0.04300
H 	H 	0.76110 0.11200 0.24560 0.32100
H 	H 	0.16060 0.40340 0.84670 0.00600
H 	H 	0.24560 0.76110 0.11200 0.32100
H 	H 	0.29360 0.77920 0.12210 0.32000
H 	H 	0.15330 0.16060 0.40340 0.00500
H 	H 	0.26300 0.90820 0.28740 0.32100
H 	H 	0.12210 0.29360 0.77920 0.32000
H 	H 	0.16060 0.40340 0.15330 0.00500
H 	H 	0.39020 0.43470 -0.00000 -0.00400
H 	H 	0.82630 0.65430 0.72620 0.32300
H 	H 	0.82630 0.34570 0.72620 0.32200
H 	H 	0.20800 0.84070 0.65080 0.04300
H 	H 	0.03860 0.50000 0.93380 0.05400
H 	H 	0.34920 0.20800 0.84070 0.04300
H 	H 	0.28740 0.26300 0.09180 0.31300
H 	H 	0.13970 0.33490 0.68780 0.31400
H 	H 	0.09760 0.26790 0.65360 -0.01600
H 	H 	0.90820 0.71260 0.26300 0.32200
H 	H 	0.90240 0.26790 0.34640 -0.01400
H 	H 	0.73210 0.65360 0.09760 -0.01600
H 	H 	0.75440 0.76110 0.11200 0.32300
H 	H 	0.29360 0.22080 0.12210 0.31800
H 	H 	0.12210 0.29360 0.22080 0.31800
H 	H 	0.27380 0.17370 0.34570 0.31800
H 	H 	0.15930 0.34920 0.20800 0.04300
H 	H 	0.84670 0.16060 0.59660 0.00600
H 	H 	0.28740 0.73700 0.09180 0.31500
H 	H 	0.15930 0.65080 0.20800 0.04200
H 	H 	0.34570 0.72620 0.82630 0.32200
H 	H 	0.34640 0.09760 0.26790 -0.01600
H 	H 	0.82630 0.65430 0.27380 0.32200
H 	H 	0.88800 0.75440 0.76110 0.32900
H 	H 	0.73210 0.34640 0.90240 -0.01400
H 	H 	0.53290 0.56500 -0.00000 0.07100
H 	H 	0.87790 0.70640 0.22080 0.32500
H 	H 	0.19050 0.32370 0.68180 0.32000
H 	H 	0.67630 0.68180 0.19050 0.32000
H 	H 	0.28740 0.26300 0.90820 0.32100
H 	H 	0.24560 0.76110 0.88800 0.32800
H 	H 	0.82630 0.34570 0.27380 0.32200
H 	H 	0.00000 0.53290 0.43500 0.07100
H 	H 	0.26790 0.34640 0.90240 -0.01400
H 	H 	0.84670 0.16060 0.40340 0.00600
H 	H 	0.65360 0.90240 0.73210 -0.01400
H 	H 	0.84070 0.34920 0.79200 0.04300
H 	H 	0.77920 0.12210 0.70640 0.32100
H 	H 	0.23890 0.88800 0.75440 0.32700
H 	H 	0.72620 0.82630 0.34570 0.32200
H 	H 	0.72620 0.17370 0.65430 0.31900
H 	H 	0.27380 0.82630 0.34570 0.32200
H 	H 	0.65360 0.90240 0.26790 -0.01400
H 	H 	0.23890 0.11200 0.24560 0.31900
H 	H 	0.60980 0.56530 -0.00000 -0.00400
H 	H 	0.03860 0.50000 0.06620 0.05500
H 	H 	0.15930 0.34920 0.79200 0.04200
H 	H 	0.32370 0.68180 0.19050 0.32000
H 	H 	0.33490 0.68780 0.86030 0.31800
H 	H 	0.68180 0.19050 0.67630 0.32000
H 	H 	0.43470 0.00000 0.60980 -0.00400
H 	H 	0.50000 0.93380 0.03860 0.05400
H 	H 	0.26790 0.34640 0.09760 -0.01600
H 	H 	0.86030 0.66510 0.31220 0.31800
H 	H 	0.34570 0.27380 0.17370 0.31800
H 	H 	0.68780 0.13970 0.66510 0.31400
H 	H 	0.59660 0.84670 0.16060 0.00600
H 	H 	0.56500 0.00000 0.53290 0.07100
H 	H 	0.73210 0.34640 0.09760 -0.01600
H 	H 	0.20800 0.15930 0.65080 0.04200
H 	H 	0.43470 0.00000 0.39020 -0.00400
H 	H 	0.22080 0.87790 0.29360 0.32400
H 	H 	0.87790 0.70640 0.77920 0.32700
H 	H 	0.59660 0.15330 0.83940 0.00700
H 	H 	0.90240 0.73210 0.34640 -0.01400
H 	H 	0.34640 0.90240 0.26790 -0.01400
H 	H 	0.90820 0.28740 0.26300 0.32100
H 	H 	0.65080 0.79200 0.15930 0.04200
H 	H 	0.65080 0.20800 0.84070 0.04300
H 	H 	0.73210 0.65360 0.90240 -0.01400
H 	H 	0.26300 0.90820 0.71260 0.32200
H 	H 	0.40340 0.84670 0.16060 0.00600
H 	H 	0.84670 0.83940 0.40340 0.00800
H 	H 	0.71260 0.73700 0.09180 0.31600
H 	H 	0.34920 0.20800 0.15930 0.04300
H 	H 	0.87790 0.29360 0.77920 0.32600
H 	H 	0.13970 0.33490 0.31220 0.31300
H 	H 	0.31220 0.13970 0.66510 0.31300
H 	H 	0.80950 0.32370 0.31820 0.32300
H 	H 	0.65360 0.09760 0.26790 -0.01600
H 	H 	0.13970 0.66510 0.68780 0.31400
H 	H 	0.40340 0.15330 0.16060 0.00500
H 	H 	0.15330 0.16060 0.59660 0.00500
H 	H 	0.46710 0.43500 -0.00000 0.07100
H 	H 	0.88800 0.75440 0.23890 0.32700
H 	H 	0.19050 0.67630 0.31820 0.32000
H 	H 	0.29360 0.77920 0.87790 0.32600
H 	H 	0.34640 0.09760 0.73210 -0.01600
H 	H 	0.68180 0.19050 0.32370 0.32000
H 	H 	0.17370 0.65430 0.27380 0.31800
H 	H 	0.56530 0.00000 0.39020 -0.00400
H 	H 	0.39020 0.56530 -0.00000 -0.00400
H 	H 	0.66510 0.68780 0.86030 0.31900
H 	H 	0.27380 0.82630 0.65430 0.32200
H 	H 	0.80950 0.67630 0.68180 0.32400
H 	H 	0.00000 0.46710 0.43500 0.07100
H 	H 	0.34920 0.79200 0.15930 0.04200
H 	H 	0.67630 0.31820 0.80950 0.32300
H 	H 	0.90820 0.71260 0.73700 0.32400
H 	H 	0.83940 0.59660 0.15330 0.00700
H 	H 	0.09180 0.71260 0.73700 0.31600
H 	H 	0.56500 0.00000 0.46710 0.07100
H 	H 	0.12210 0.70640 0.22080 0.31900
H 	H 	0.32370 0.31820 0.80950 0.32300
H 	H 	0.93380 0.03860 0.50000 0.05400
H 	H 	0.50000 0.93380 0.96140 0.02400
H 	H 	0.17370 0.34570 0.72620 0.31900
H 	H 	0.75440 0.76110 0.88800 0.32900
H 	H 	0.96140 0.50000 0.93380 0.02400
H 	H 	0.31220 0.86030 0.66510 0.31800
C 	C 	0.65279 0.88018 0.75372 0.11400
C 	C 	0.40536 0.53820 -0.00000 0.10000
C 	C 	0.27712 0.15846 0.72138 0.52900
C 	C 	0.15313 0.81796 0.61900 0.07300
C 	C 	0.61777 0.50000 -0.00000 -0.19900
C 	C 	0.88009 0.78574 0.61951 -0.18000
C 	C 	0.72393 0.24719 0.88273 -1.03200
C 	C 	0.27712 0.84154 0.27862 0.53500
C 	C 	0.88273 0.27607 0.24719 -1.02900
C 	C 	0.27712 0.84154 0.72138 0.53600
C 	C 	0.46201 -0.00000 0.54817 -0.16200
C 	C 	0.45183 0.53799 -0.00000 -0.16200
C 	C 	0.50000 0.96067 0.02314 -0.05700
C 	C 	0.72288 0.84154 0.27862 0.53700
C 	C 	0.84694 0.75410 0.31511 -0.21500
C 	C 	0.72138 0.27712 0.15846 0.52900
C 	C 	0.34721 0.11982 0.75372 0.11300
C 	C 	0.72358 0.21652 0.77772 0.10000
C 	C 	0.50000 0.00000 0.52491 0.06700
C 	C 	0.00000 0.04599 0.50000 -0.07600
C 	C 	0.97686 0.50000 0.96067 0.04600
C 	C 	0.00000 0.90396 0.50000 0.40900
C 	C 	0.41567 0.91545 0.78571 0.42800
C 	C 	0.81796 0.38100 0.84687 0.07300
C 	C 	0.84694 0.24590 0.68489 -0.21600
C 	C 	0.50000 -0.00000 0.33233 0.44800
C 	C 	0.97686 0.50000 0.03933 0.03600
C 	C 	0.65139 0.81391 0.81868 -0.14400
C 	C 	0.78348 0.77772 0.72358 0.10100
C 	C 	0.72138 0.72288 0.15846 0.53100
C 	C 	0.70281 0.16633 0.32511 -1.00700
C 	C 	0.15846 0.27862 0.27712 0.52800
C 	C 	0.68473 0.81351 0.21346 0.04800
C 	C 	0.79954 0.26041 0.74562 -0.22300
C 	C 	0.78571 0.58433 0.08455 0.42800
C 	C 	0.79954 0.73959 0.74562 -0.22400
C 	C 	0.27607 0.24719 0.88273 -1.02900
C 	C 	-0.00000 0.45183 0.53799 -0.16200
C 	C 	0.31511 0.15306 0.75410 -0.21400
C 	C 	0.00000 0.59464 0.46180 0.10000
C 	C 	0.21429 0.58433 0.91545 0.42800
C 	C 	0.72358 0.21652 0.22228 0.09800
C 	C 	0.81391 0.18132 0.65139 -0.14500
C 	C 	0.04599 0.50000 -0.00000 -0.07600
C 	C 	0.81351 0.78654 0.68473 0.04700
C 	C 	0.88273 0.72393 0.24719 -1.03200
C 	C 	0.88009 0.78574 0.38049 -0.18000
C 	C 	0.15846 0.72138 0.27712 0.52900
C 	C 	0.24628 0.34721 0.11982 0.11300
C 	C 	0.20046 0.73959 0.74562 -0.22200
C 	C 	0.40536 0.46180 -0.00000 0.10000
C 	C 	0.68489 0.84694 0.75410 -0.21600
C 	C 	0.78574 0.38049 0.88009 -0.18000
C 	C 	0.78348 0.77772 0.27642 0.10000
C 	C 	0.58433 0.91545 0.78571 0.42800
C 	C 	-0.00000 0.54817 0.53799 -0.16200
C 	C 	0.38100 0.15313 0.81796 0.07300
C 	C 	0.21426 0.38049 0.88009 -0.18100
C 	C 	0.78348 0.22228 0.72358 0.10000
C 	C 	0.15846 0.72138 0.72288 0.53100
C 	C 	0.59464 0.53820 -0.00000 0.10000
C 	C 	0.72358 0.78348 0.22228 0.10000
C 	C 	0.70281 0.83367 0.32511 -1.01800
C 	C 	0.81391 0.81868 0.34861 -0.14400
C 	C 	0.84687 0.81796 0.38100 0.07300
C 	C 	0.50000 -0.00000 0.38223 -0.19900
C 	C 	0.00000 0.33233 0.50000 0.44800
C 	C 	0.18204 0.38100 0.84687 0.07300
C 	C 	0.72288 0.15846 0.72138 0.53100
C 	C 	0.00000 0.45183 0.46201 -0.16200
C 	C 	0.81391 0.81868 0.65139 -0.14400
C 	C 	0.88009 0.21426 0.38049 -0.18100
C 	C 	0.21652 0.22228 0.27642 0.09800
C 	C 	0.22228 0.27642 0.21652 0.09800
C 	C 	0.27712 0.15846 0.27862 0.52800
C 	C 	0.46180 0.00000 0.40536 0.10000
C 	C 	0.70281 0.16633 0.67489 -1.00900
C 	C 	0.65139 0.18609 0.18132 -0.14600
C 	C 	0.24719 0.11727 0.27607 -1.01500
C 	C 	0.41567 0.08455 0.78571 0.42800
C 	C 	0.31511 0.15306 0.24590 -0.21400
C 	C 	0.00000 0.66767 0.50000 0.44800
C 	C 	0.21652 0.77772 0.72358 0.10000
C 	C 	0.29719 0.83367 0.67489 -1.01700
C 	C 	0.58433 0.91545 0.21429 0.42800
C 	C 	0.84694 0.24590 0.31511 -0.21500
C 	C 	0.83367 0.32511 0.70281 -1.01800
C 	C 	0.65279 0.11982 0.75372 0.11300
C 	C 	0.31511 0.84694 0.75410 -0.21500
C 	C 	0.75281 0.88273 0.27607 -1.03300
C 	C 	0.15306 0.75410 0.31511 -0.21400
C 	C 	0.00000 0.09604 0.50000 0.38300
C 	C 	0.18132 0.65139 0.18609 -0.14600
C 	C 	0.61900 0.84687 0.81796 0.07300
C 	C 	0.24590 0.68489 0.15306 -0.21500
C 	C 	0.81868 0.65139 0.81391 -0.14400
C 	C 	0.54817 0.46201 -0.00000 -0.16200
C 	C 	0.11727 0.72393 0.75281 -1.02100
C 	C 	0.18132 0.34861 0.81391 -0.14500
C 	C 	0.81796 0.61900 0.15313 0.07300
C 	C 	0.21652 0.77772 0.27642 0.09900
C 	C 	0.29719 0.16633 0.32511 -1.00500
C 	C 	0.78571 0.41567 0.91545 0.42800
C 	C 	0.50000 -0.00000 0.66767 0.44800
C 	C 	0.11991 0.21426 0.61951 -0.18400
C 	C 	0.26041 0.25438 0.20046 -0.22000
C 	C 	0.88018 0.75372 0.34721 0.11300
C 	C 	0.75410 0.68489 0.84694 -0.21600
C 	C 	0.31527 0.81351 0.78654 0.04700
C 	C 	0.78654 0.31527 0.18649 0.04700
C 	C 	0.15313 0.81796 0.38100 0.07300
C 	C 	0.24590 0.68489 0.84694 -0.21600
C 	C 	0.68473 0.81351 0.78654 0.04700
C 	C 	0.34861 0.81391 0.18132 -0.14500
C 	C 	0.11982 0.24628 0.65279 0.11300
C 	C 	0.26041 0.25438 0.79954 -0.22300
C 	C 	0.38049 0.88009 0.78574 -0.18000
C 	C 	0.15313 0.18204 0.61900 0.07300
C 	C 	0.53799 -0.00000 0.45183 -0.16200
C 	C 	0.09604 0.50000 -0.00000 0.38300
C 	C 	0.61951 0.88009 0.21426 -0.18100
C 	C 	0.78654 0.68473 0.81351 0.04700
C 	C 	0.50000 0.00000 0.04599 -0.07600
C 	C 	0.00000 0.40536 0.53820 0.10000
C 	C 	0.32511 0.29719 0.83367 -1.01600
C 	C 	0.75372 0.65279 0.11982 0.11300
C 	C 	0.29719 0.16633 0.67489 -1.00700
C 	C 	0.53820 0.00000 0.40536 0.10000
C 	C 	0.24590 0.31511 0.15306 -0.21400
C 	C 	0.24719 0.11727 0.72393 -1.01700
C 	C 	0.08455 0.78571 0.41567 0.42800
C 	C 	0.21426 0.61951 0.88009 -0.18100
C 	C 	0.72358 0.78348 0.77772 0.10100
C 	C 	0.16633 0.67489 0.29719 -1.00700
C 	C 	0.08455 0.21429 0.41567 0.42800
C 	C 	0.02314 0.50000 0.03933 -0.06700
C 	C 	0.73959 0.74562 0.79954 -0.22400
C 	C 	0.31527 0.18649 0.78654 0.04700
C 	C 	0.74562 0.20046 0.26041 -0.22100
C 	C 	0.27862 0.27712 0.15846 0.52800
C 	C 	0.11982 0.75372 0.65279 0.11300
C 	C 	0.21426 0.61951 0.11991 -0.18400
C 	C 	0.73959 0.25438 0.20046 -0.22100
C 	C 	0.03933 0.02314 0.50000 -0.06700
C 	C 	0.72393 0.75281 0.11727 -1.02100
C 	C 	0.68473 0.18649 0.21346 0.04700
C 	C 	-0.00000 0.61777 0.50000 -0.19900
C 	C 	0.81868 0.34861 0.81391 -0.14400
C 	C 	0.68489 0.15306 0.75410 -0.21400
C 	C 	0.78654 0.31527 0.81351 0.04700
C 	C 	0.96067 0.97686 0.50000 0.04600
C 	C 	0.11727 0.72393 0.24719 -1.01700
C 	C 	0.27607 0.75281 0.88273 -1.03300
C 	C 	0.75372 0.34721 0.88018 0.11300
C 	C 	0.34721 0.88018 0.24628 0.11300
C 	C 	0.18204 0.61900 0.15313 0.07300
C 	C 	0.02314 0.50000 0.96067 -0.05700
C 	C 	0.66767 0.50000 -0.00000 0.44800
C 	C 	0.79954 0.73959 0.25438 -0.22300
C 	C 	0.88018 0.24628 0.65279 0.11400
C 	C 	0.21429 0.41567 0.91545 0.42800
C 	C 	0.00000 0.52491 0.50000 0.06700
C 	C 	0.84694 0.75410 0.68489 -0.21600
C 	C 	0.67489 0.29719 0.83367 -1.01700
C 	C 	0.18649 0.78654 0.68473 0.04700
C 	C 	0.75372 0.65279 0.88018 0.11400
C 	C 	0.72393 0.24719 0.11727 -1.01700
C 	C 	0.27642 0.78348 0.22228 0.09900
C 	C 	0.65139 0.81391 0.18132 -0.14500
C 	C 	0.61951 0.11991 0.78574 -0.18300
C 	C 	0.38100 0.84687 0.81796 0.07300
C 	C 	0.53820 -0.00000 0.59464 0.10000
C 	C 	0.91545 0.21429 0.58433 0.42800
C 	C 	0.18204 0.61900 0.84687 0.07300
C 	C 	0.52491 0.50000 -0.00000 0.06700
C 	C 	0.84687 0.81796 0.61900 0.07300
C 	C 	0.18609 0.81868 0.34861 -0.14500
C 	C 	0.88273 0.27607 0.75281 -1.03300
C 	C 	0.11727 0.27607 0.24719 -1.01500
C 	C 	0.21652 0.22228 0.72358 0.09800
C 	C 	0.67489 0.70281 0.83367 -1.01900
C 	C 	0.26041 0.74562 0.20046 -0.22100
C 	C 	0.61900 0.84687 0.18204 0.07300
C 	C 	0.84687 0.18204 0.38100 0.07300
C 	C 	0.61900 0.15313 0.18204 0.07300
C 	C 	0.61900 0.15313 0.81796 0.07300
C 	C 	0.50000 0.96067 0.97686 0.04600
C 	C 	0.46180 -0.00000 0.59464 0.10000
C 	C 	0.78348 0.22228 0.27642 0.09900
C 	C 	0.21346 0.68473 0.18649 0.04700
C 	C 	0.88009 0.21426 0.61951 -0.18100
C 	C 	0.18609 0.18132 0.34861 -0.14600
C 	C 	0.50000 0.03933 0.97686 0.03600
C 	C 	0.75410 0.68489 0.15306 -0.21400
C 	C 	0.90396 0.50000 -0.00000 0.40900
C 	C 	0.24719 0.88273 0.72393 -1.03200
C 	C 	0.91545 0.78571 0.41567 0.42800
C 	C 	0.27862 0.27712 0.84154 0.53500
C 	C 	0.72288 0.84154 0.72138 0.53800
C 	C 	0.29719 0.83367 0.32511 -1.01600
C 	C 	0.31527 0.81351 0.21346 0.04800
C 	C 	0.32511 0.29719 0.16633 -1.00500
C 	C 	0.24719 0.88273 0.27607 -1.02900
C 	C 	0.18609 0.81868 0.65139 -0.14500
C 	C 	0.15306 0.75410 0.68489 -0.21400
C 	C 	0.21346 0.31527 0.81351 0.04800
C 	C 	0.34721 0.11982 0.24628 0.11300
C 	C 	0.75410 0.31511 0.15306 -0.21400
C 	C 	0.41567 0.91545 0.21429 0.42800
C 	C 	0.72393 0.75281 0.88273 -1.03600
C 	C 	0.27642 0.21652 0.77772 0.09900
C 	C 	0.65279 0.88018 0.24628 0.11400
C 	C 	0.00000 0.47509 0.50000 0.06700
C 	C 	0.00000 0.59464 0.53820 0.10000
C 	C 	0.38223 0.50000 -0.00000 -0.19900
C 	C 	0.26041 0.74562 0.79954 -0.22300
C 	C 	0.83367 0.32511 0.29719 -1.01600
C 	C 	0.11991 0.21426 0.38049 -0.18400
C 	C 	0.27607 0.24719 0.11727 -1.01500
C 	C 	0.18609 0.18132 0.65139 -0.14600
C 	C 	0.18649 0.78654 0.31527 0.04700
C 	C 	0.41567 0.08455 0.21429 0.42800
C 	C 	0.50000 0.00000 0.90396 0.40900
C 	C 	0.18649 0.21346 0.31527 0.04700
C 	C 	0.11991 0.78574 0.38049 -0.18300
C 	C 	0.38100 0.15313 0.18204 0.07300
C 	C 	0.22228 0.72358 0.78348 0.10000
C 	C 	0.74562 0.79954 0.73959 -0.22400
C 	C 	0.91545 0.21429 0.41567 0.42800
C 	C 	0.96067 0.02314 0.50000 -0.05700
C 	C 	0.67489 0.70281 0.16633 -1.00900
C 	C 	0.27607 0.75281 0.11727 -1.01900
C 	C 	0.34861 0.18609 0.18132 -0.14600
C 	C 	0.22228 0.27642 0.78348 0.09900
C 	C 	0.74562 0.20046 0.73959 -0.22200
C 	C 	0.67489 0.29719 0.16633 -1.00700
C 	C 	0.32511 0.70281 0.83367 -1.01800
C 	C 	0.83367 0.67489 0.29719 -1.01700
C 	C 	0.18204 0.38100 0.15313 0.07300
C 	C 	0.03933 0.97686 0.50000 0.03600
C 	C 	0.72138 0.72288 0.84154 0.53800
C 	C 	0.81796 0.38100 0.15313 0.07300
C 	C 	0.31511 0.84694 0.24590 -0.21500
C 	C 	0.08455 0.78571 0.58433 0.42800
C 	C 	0.81351 0.21346 0.68473 0.04800
C 	C 	0.65139 0.18609 0.81868 -0.14500
C 	C 	0.77772 0.72358 0.21652 0.10000
C 	C 	0.38100 0.84687 0.18204 0.07300
C 	C 	0.16633 0.67489 0.70281 -1.00900
C 	C 	0.47509 0.50000 -0.00000 0.06700
C 	C 	0.75281 0.11727 0.27607 -1.01900
C 	C 	0.15846 0.27862 0.72288 0.53000
C 	C 	0.25438 0.79954 0.26041 -0.22300
C 	C 	0.21346 0.31527 0.18649 0.04700
C 	C 	0.08455 0.21429 0.58433 0.42800
C 	C 	0.73959 0.25438 0.79954 -0.22300
C 	C 	0.75281 0.88273 0.72393 -1.03600
C 	C 	0.11982 0.24628 0.34721 0.11300
C 	C 	0.75410 0.31511 0.84694 -0.21500
C 	C 	0.31527 0.18649 0.21346 0.04700
C 	C 	0.50000 0.00000 0.09604 0.38300
C 	C 	0.11991 0.78574 0.61951 -0.18300
C 	C 	0.20046 0.26041 0.25438 -0.22000
C 	C 	0.11727 0.27607 0.75281 -1.01900
C 	C 	0.73959 0.74562 0.20046 -0.22200
C 	C 	0.81868 0.34861 0.18609 -0.14500
C 	C 	0.78571 0.41567 0.08455 0.42800
C 	C 	0.95401 0.50000 -0.00000 -0.14400
C 	C 	0.21426 0.38049 0.11991 -0.18400
C 	C 	0.75372 0.34721 0.11982 0.11300
C 	C 	0.27642 0.78348 0.77772 0.10000
C 	C 	0.84154 0.27862 0.72288 0.53700
C 	C 	0.27642 0.21652 0.22228 0.09800
C 	C 	0.16633 0.32511 0.70281 -1.00700
C 	C 	0.83367 0.67489 0.70281 -1.01900
C 	C 	0.65279 0.11982 0.24628 0.11300
C 	C 	0.00000 0.54817 0.46201 -0.16200
C 	C 	0.53799 -0.00000 0.54817 -0.16200
C 	C 	0.00000 0.38223 0.50000 -0.19900
C 	C 	0.34861 0.81391 0.81868 -0.14400
C 	C 	0.00000 0.95401 0.50000 -0.14400
C 	C 	0.61951 0.88009 0.78574 -0.18000
C 	C 	0.78574 0.38049 0.11991 -0.18300
C 	C 	0.81868 0.65139 0.18609 -0.14500
C 	C 	0.72288 0.15846 0.27862 0.53000
C 	C 	0.88018 0.75372 0.65279 0.11400
C 	C 	0.45183 0.46201 -0.00000 -0.16200
C 	C 	0.68489 0.84694 0.24590 -0.21600
C 	C 	0.27862 0.72288 0.15846 0.53000
C 	C 	0.81391 0.18132 0.34861 -0.14500
C 	C 	0.88273 0.72393 0.75281 -1.03600
C 	C 	0.34721 0.88018 0.75372 0.11300
C 	C 	0.78571 0.58433 0.91545 0.42800
C 	C 	0.78654 0.68473 0.18649 0.04700
C 	C 	0.32511 0.70281 0.16633 -1.00700
C 	C 	0.84154 0.72138 0.72288 0.53800
C 	C 	0.58433 0.08455 0.21429 0.42800
C 	C 	0.18649 0.21346 0.68473 0.04700
C 	C 	0.38049 0.88009 0.21426 -0.18100
C 	C 	0.21346 0.68473 0.81351 0.04800
C 	C 	0.21429 0.41567 0.08455 0.42800
C 	C 	0.58433 0.08455 0.78571 0.42800
C 	C 	0.15313 0.18204 0.38100 0.07300
C 	C 	0.24628 0.65279 0.11982 0.11300
C 	C 	0.15306 0.24590 0.68489 -0.21500
C 	C 	0.75281 0.11727 0.72393 -1.02100
C 	C 	0.25438 0.20046 0.73959 -0.22100
C 	C 	0.54817 0.53799 -0.00000 -0.16200
C 	C 	0.84154 0.27862 0.27712 0.53500
C 	C 	0.59464 0.46180 -0.00000 0.10000
C 	C 	0.50000 0.00000 0.47509 0.06700
C 	C 	0.20046 0.73959 0.25438 -0.22100
C 	C 	0.81796 0.61900 0.84687 0.07300
C 	C 	0.16633 0.32511 0.29719 -1.00500
C 	C 	0.81351 0.21346 0.31527 0.04800
C 	C 	0.20046 0.26041 0.74562 -0.22100
C 	C 	0.33233 0.50000 -0.00000 0.44800
C 	C 	0.18132 0.34861 0.18609 -0.14600
C 	C 	0.11982 0.75372 0.34721 0.11300
C 	C 	0.22228 0.72358 0.21652 0.09800
C 	C 	0.91545 0.78571 0.58433 0.42800
C 	C 	0.88018 0.24628 0.34721 0.11300
C 	C 	0.24628 0.65279 0.88018 0.11400
C 	C 	0.34861 0.18609 0.81868 -0.14500
C 	C 	0.77772 0.27642 0.78348 0.10000
C 	C 	0.50000 0.03933 0.02314 -0.06700
C 	C 	0.38049 0.11991 0.21426 -0.18400
C 	C 	0.25438 0.20046 0.26041 -0.22000
C 	C 	0.68473 0.18649 0.78654 0.04700
C 	C 	0.72138 0.27712 0.84154 0.53600
C 	C 	0.77772 0.27642 0.21652 0.09900
C 	C 	0.79954 0.26041 0.25438 -0.22300
C 	C 	0.61951 0.11991 0.21426 -0.18400
C 	C 	0.74562 0.79954 0.26041 -0.22300
C 	C 	0.21429 0.58433 0.08455 0.42800
C 	C 	0.50000 0.00000 0.61777 -0.19900
C 	C 	0.27862 0.72288 0.84154 0.53700
C 	C 	0.68489 0.15306 0.24590 -0.21500
C 	C 	0.24628 0.34721 0.88018 0.11300
C 	C 	0.24590 0.31511 0.84694 -0.21500
C 	C 	0.00000 0.40536 0.46180 0.10000
C 	C 	0.18132 0.65139 0.81391 -0.14500
C 	C 	0.38049 0.11991 0.78574 -0.18300
C 	C 	0.84687 0.18204 0.61900 0.07300
C 	C 	0.78574 0.61951 0.88009 -0.18000
C 	C 	0.50000 0.00000 0.95401 -0.14400
C 	C 	0.15306 0.24590 0.31511 -0.21400
C 	C 	0.84154 0.72138 0.27712 0.53600
C 	C 	0.70281 0.83367 0.67489 -1.01900
C 	C 	0.25438 0.79954 0.73959 -0.22300
C 	C 	0.46201 -0.00000 0.45183 -0.16200
C 	C 	0.77772 0.72358 0.78348 0.10100
C 	C 	0.81351 0.78654 0.31527 0.04700
C 	C 	0.78574 0.61951 0.11991 -0.18300
O 	O 	0.58914 0.94725 0.24117 -0.52500
O 	O 	0.96291 0.88507 0.50000 -0.51500
O 	O 	0.96291 0.11493 0.50000 -0.51000
O 	O 	0.21437 0.50000 -0.00000 -0.96500
O 	O 	0.53707 0.00000 0.31367 -0.54100
O 	O 	0.50000 0.03709 0.11493 -0.51900
O 	O 	0.55264 0.91087 0.18763 -0.52900
O 	O 	0.55264 0.91087 0.81237 -0.52800
O 	O 	0.41086 0.94725 0.75883 -0.52500
O 	O 	0.00000 0.78563 0.50000 -0.96500
O 	O 	0.41086 0.05275 0.75883 -0.53300
O 	O 	0.75883 0.58914 0.05275 -0.53200
O 	O 	0.75883 0.58914 0.94725 -0.52500
O 	O 	0.18763 0.44736 0.91087 -0.52900
O 	O 	0.91087 0.18763 0.55264 -0.52900
O 	O 	0.78563 0.50000 -0.00000 -0.96500
O 	O 	0.03709 0.11493 0.50000 -0.51900
O 	O 	0.08913 0.18763 0.55264 -0.53200
O 	O 	0.05275 0.24117 0.41086 -0.53300
O 	O 	0.00000 0.31367 0.53707 -0.54100
O 	O 	0.58914 0.05275 0.75883 -0.53200
O 	O 	0.75883 0.41086 0.94725 -0.52500
O 	O 	0.91087 0.81237 0.55264 -0.52800
O 	O 	0.41086 0.05275 0.24117 -0.53300
O 	O 	0.88507 0.50000 0.96291 -0.51500
O 	O 	0.55264 0.08913 0.18763 -0.53200
O 	O 	0.50000 0.00000 0.78563 -0.96500
O 	O 	0.88507 0.50000 0.03709 -0.52400
O 	O 	0.41086 0.94725 0.24117 -0.52500
O 	O 	0.31367 0.46293 -0.00000 -0.54100
O 	O 	0.31367 0.53707 -0.00000 -0.54100
O 	O 	0.68633 0.46293 -0.00000 -0.54100
O 	O 	0.75883 0.41086 0.05275 -0.53300
O 	O 	0.18763 0.55264 0.91087 -0.52900
O 	O 	0.18763 0.44736 0.08913 -0.53200
O 	O 	0.50000 0.96291 0.88507 -0.51500
O 	O 	-0.00000 0.68633 0.46293 -0.54100
O 	O 	0.03709 0.88507 0.50000 -0.52400
O 	O 	0.91087 0.18763 0.44736 -0.52900
O 	O 	0.46293 0.00000 0.68633 -0.54100
O 	O 	0.68633 0.53707 -0.00000 -0.54100
O 	O 	0.00000 0.31367 0.46293 -0.54100
O 	O 	0.05275 0.75883 0.41086 -0.53300
O 	O 	0.00000 0.21437 0.50000 -0.96500
O 	O 	0.50000 0.00000 0.21437 -0.96500
O 	O 	0.81237 0.55264 0.91087 -0.52800
O 	O 	0.55264 0.08913 0.81237 -0.53100
O 	O 	0.94725 0.24117 0.58914 -0.52500
O 	O 	0.05275 0.75883 0.58914 -0.53200
O 	O 	0.08913 0.18763 0.44736 -0.53200
O 	O 	0.91087 0.81237 0.44736 -0.52800
O 	O 	0.94725 0.75883 0.41086 -0.52500
O 	O 	0.11493 0.50000 0.96291 -0.51000
O 	O 	0.44736 0.08913 0.18763 -0.53200
O 	O 	0.50000 0.03709 0.88507 -0.52400
O 	O 	0.94725 0.24117 0.41086 -0.52500
O 	O 	0.81237 0.55264 0.08913 -0.53100
O 	O 	0.24117 0.41086 0.94725 -0.52500
O 	O 	0.58914 0.05275 0.24117 -0.53300
O 	O 	0.18763 0.55264 0.08913 -0.53200
O 	O 	0.44736 0.08913 0.81237 -0.53100
O 	O 	0.81237 0.44736 0.91087 -0.52800
O 	O 	0.00000 0.68633 0.53707 -0.54100
O 	O 	0.53707 0.00000 0.68633 -0.54100
O 	O 	0.50000 0.96291 0.11493 -0.51000
O 	O 	0.44736 0.91087 0.18763 -0.52900
O 	O 	0.08913 0.81237 0.55264 -0.53100
O 	O 	0.44736 0.91087 0.81237 -0.52800
O 	O 	0.46293 0.00000 0.31367 -0.54100
O 	O 	0.24117 0.41086 0.05275 -0.53300
O 	O 	0.81237 0.44736 0.08913 -0.53100
O 	O 	0.11493 0.50000 0.03709 -0.51900
O 	O 	0.05275 0.24117 0.58914 -0.53300
O 	O 	0.58914 0.94725 0.75883 -0.52500
O 	O 	0.08913 0.81237 0.44736 -0.53100
O 	O 	0.24117 0.58914 0.94725 -0.52500
O 	O 	0.24117 0.58914 0.05275 -0.53300
O 	O 	0.94725 0.75883 0.58914 -0.52500
