data_crystal

_cell_length_a 30.44710
_cell_length_b 30.44710
_cell_length_c 21.86230
_cell_angle_alpha 90.00000
_cell_angle_beta  90.00000
_cell_angle_gamma 90.00000

_symmetry_space_group_name_	'P 1'
_symmetry_space_group_name_H-M	'P 1'

loop_
_symmetry_equiv_pos_as_xyz
  x,y,z

loop_
_atom_site_label
_atom_site_type_symbol
_atom_site_fract_x
_atom_site_fract_y
_atom_site_fract_z
_atom_site_charge
Co	Co	0.31682 0.32781 0.60509 1.11800
S 	S 	0.26894 0.28368 0.67713 -0.18200
O 	O 	0.25871 0.33672 0.56450 -0.54900
O 	O 	0.27798 0.42730 0.43390 -0.47500
O 	O 	0.31290 0.38907 0.35920 -0.49000
O 	O 	0.28232 0.58638 0.43450 -0.49100
O 	O 	0.32042 0.62223 0.36020 -0.52000
O 	O 	0.32080 0.26870 0.56200 -0.28100
C 	C 	0.31090 0.23270 0.58940 0.21200
C 	C 	0.28510 0.23240 0.64330 0.43000
C 	C 	0.27540 0.19330 0.67330 1.89700
H 	H 	0.25830 0.19430 0.70960 -0.71400
C 	C 	0.29000 0.15260 0.65180 -1.91600
C 	C 	0.31370 0.15280 0.59750 0.72100
H 	H 	0.32320 0.12570 0.58060 -0.28000
C 	C 	0.32380 0.19180 0.56710 0.05100
C 	C 	0.28240 0.11110 0.68820 4.01900
C 	C 	0.26660 0.11650 0.75240 -3.61000
H 	H 	0.28750 0.13460 0.77540 0.96400
H 	H 	0.23780 0.13080 0.75230 0.99000
H 	H 	0.26410 0.08760 0.77180 1.02500
C 	C 	0.24760 0.08300 0.65860 -11.25600
H 	H 	0.25530 0.07770 0.61570 3.54600
H 	H 	0.24550 0.05490 0.68020 3.29100
H 	H 	0.21920 0.09810 0.66070 2.43900
C 	C 	0.32350 0.08240 0.69090 -5.29200
H 	H 	0.33490 0.07810 0.64940 1.38500
H 	H 	0.34580 0.09690 0.71600 1.47300
H 	H 	0.31610 0.05390 0.70880 1.38600
O 	O 	0.32400 0.26900 0.57000 -0.22300
C 	C 	0.30220 0.23200 0.58800 0.01500
C 	C 	0.27290 0.23200 0.63400 -0.73200
C 	C 	0.25240 0.19580 0.65160 -0.94100
H 	H 	0.23310 0.19740 0.68570 0.30300
C 	C 	0.25750 0.15530 0.62260 -0.81200
C 	C 	0.28870 0.15550 0.57750 0.22900
H 	H 	0.29590 0.12830 0.55870 -0.13600
C 	C 	0.30960 0.19130 0.55800 -0.36300
C 	C 	0.23420 0.11250 0.63460 5.25600
C 	C 	0.18930 0.12560 0.65800 -6.95400
H 	H 	0.17210 0.09920 0.66700 1.88600
H 	H 	0.19260 0.14300 0.69560 1.94100
H 	H 	0.17410 0.14320 0.62710 2.01100
C 	C 	0.21580 0.09390 0.57500 -4.82500
H 	H 	0.20070 0.06610 0.58340 1.29200
H 	H 	0.19490 0.11480 0.55720 1.30600
H 	H 	0.23990 0.08870 0.54610 1.22100
C 	C 	0.26730 0.07490 0.62900 -0.62700
H 	H 	0.25250 0.04690 0.63710 0.24300
H 	H 	0.28000 0.07460 0.58820 -1.01300
H 	H 	0.29080 0.07900 0.65950 1.41200
C 	C 	0.22080 0.32700 0.59030 0.19200
C 	C 	0.21810 0.30030 0.64240 -0.05000
C 	C 	0.17850 0.29040 0.66840 0.01200
H 	H 	0.17780 0.27260 0.70410 0.01000
C 	C 	0.13880 0.30580 0.64400 -0.16200
C 	C 	0.14080 0.33200 0.59300 0.02900
H 	H 	0.11440 0.34350 0.57620 -0.01100
C 	C 	0.18110 0.34200 0.56540 -0.09300
C 	C 	0.09510 0.29650 0.67490 0.37300
C 	C 	0.07170 0.33800 0.69340 -0.57400
H 	H 	0.04290 0.33050 0.71070 0.09900
H 	H 	0.06770 0.35680 0.65750 0.14400
H 	H 	0.08920 0.35360 0.72420 0.15600
C 	C 	0.06380 0.27530 0.62680 -0.49300
H 	H 	0.07550 0.24670 0.61420 0.11300
H 	H 	0.06160 0.29460 0.59100 0.12000
H 	H 	0.03460 0.27140 0.64480 0.03600
C 	C 	0.09810 0.26760 0.73060 -0.65000
H 	H 	0.11310 0.28360 0.76350 0.20000
H 	H 	0.11460 0.24100 0.72060 0.18000
H 	H 	0.06840 0.25960 0.74400 0.16300
N 	N 	0.38540 0.50750 0.07880 -0.29700
C 	C 	0.36190 0.47610 0.09940 0.07600
H 	H 	0.35590 0.45220 0.07280 -0.09100
C 	C 	0.34470 0.47450 0.15710 -0.24000
H 	H 	0.32640 0.45040 0.16790 0.04400
C 	C 	0.35250 0.50560 0.19900 0.05300
C 	C 	0.38230 0.53820 0.18090 -0.26100
H 	H 	0.39310 0.55940 0.20900 0.06500
C 	C 	0.39530 0.53800 0.12060 0.01100
H 	H 	0.41300 0.56190 0.10740 -0.05400
C 	C 	0.33480 0.50540 0.26300 -0.14100
C 	C 	0.32440 0.46630 0.29300 0.02700
H 	H 	0.32830 0.43920 0.27220 0.00300
C 	C 	0.30870 0.46610 0.35160 -0.15300
C 	C 	0.30090 0.50620 0.37990 0.04300
H 	H 	0.28790 0.50670 0.41940 0.02400
C 	C 	0.31160 0.54520 0.35180 -0.15900
C 	C 	0.32750 0.54470 0.29430 -0.00900
H 	H 	0.33400 0.57180 0.27470 -0.04400
C 	C 	0.29930 0.42340 0.38380 0.37100
C 	C 	0.30450 0.58850 0.38530 0.34700
Co	Co	0.68318 0.67219 0.60509 1.11700
S 	S 	0.73106 0.71632 0.67713 -0.18300
O 	O 	0.74129 0.66328 0.56450 -0.55000
O 	O 	0.72202 0.57270 0.43390 -0.47600
O 	O 	0.68710 0.61093 0.35920 -0.49000
O 	O 	0.71768 0.41362 0.43450 -0.49100
O 	O 	0.67958 0.37777 0.36020 -0.52000
O 	O 	0.67920 0.73130 0.56200 -0.28100
C 	C 	0.68910 0.76730 0.58940 0.21200
C 	C 	0.71490 0.76760 0.64330 0.43000
C 	C 	0.72460 0.80670 0.67330 1.89700
H 	H 	0.74170 0.80570 0.70960 -0.71400
C 	C 	0.71000 0.84740 0.65180 -1.91600
C 	C 	0.68630 0.84720 0.59750 0.72100
H 	H 	0.67680 0.87430 0.58060 -0.28000
C 	C 	0.67620 0.80820 0.56710 0.05100
C 	C 	0.71760 0.88890 0.68820 4.01900
C 	C 	0.73340 0.88350 0.75240 -3.61000
H 	H 	0.71250 0.86540 0.77540 0.96400
H 	H 	0.76220 0.86920 0.75230 0.99000
H 	H 	0.73590 0.91240 0.77180 1.02500
C 	C 	0.75240 0.91700 0.65860 -11.25600
H 	H 	0.74470 0.92230 0.61570 3.54600
H 	H 	0.75450 0.94510 0.68020 3.29100
H 	H 	0.78080 0.90190 0.66070 2.43900
C 	C 	0.67650 0.91760 0.69090 -5.29200
H 	H 	0.66510 0.92190 0.64940 1.38500
H 	H 	0.65420 0.90310 0.71600 1.47300
H 	H 	0.68390 0.94610 0.70880 1.38600
O 	O 	0.67600 0.73100 0.57000 -0.22300
C 	C 	0.69780 0.76800 0.58800 0.01500
C 	C 	0.72710 0.76800 0.63400 -0.73200
C 	C 	0.74760 0.80420 0.65160 -0.94100
H 	H 	0.76690 0.80260 0.68570 0.30300
C 	C 	0.74250 0.84470 0.62260 -0.81200
C 	C 	0.71130 0.84450 0.57750 0.22900
H 	H 	0.70410 0.87170 0.55870 -0.13600
C 	C 	0.69040 0.80870 0.55800 -0.36300
C 	C 	0.76580 0.88750 0.63460 5.25600
C 	C 	0.81070 0.87440 0.65800 -6.95400
H 	H 	0.82790 0.90080 0.66700 1.88600
H 	H 	0.80740 0.85700 0.69560 1.94100
H 	H 	0.82590 0.85680 0.62710 2.01100
C 	C 	0.78420 0.90610 0.57500 -4.82500
H 	H 	0.79930 0.93390 0.58340 1.29200
H 	H 	0.80510 0.88520 0.55720 1.30600
H 	H 	0.76010 0.91130 0.54610 1.22100
C 	C 	0.73270 0.92510 0.62900 -0.62700
H 	H 	0.74750 0.95310 0.63710 0.24300
H 	H 	0.72000 0.92540 0.58820 -1.01300
H 	H 	0.70920 0.92100 0.65950 1.41200
C 	C 	0.77920 0.67300 0.59030 0.19200
C 	C 	0.78190 0.69970 0.64240 -0.05000
C 	C 	0.82150 0.70960 0.66840 0.01200
H 	H 	0.82220 0.72740 0.70410 0.01000
C 	C 	0.86120 0.69420 0.64400 -0.16200
C 	C 	0.85920 0.66800 0.59300 0.02900
H 	H 	0.88560 0.65650 0.57620 -0.01100
C 	C 	0.81890 0.65800 0.56540 -0.09300
C 	C 	0.90490 0.70350 0.67490 0.37300
C 	C 	0.92830 0.66200 0.69340 -0.57400
H 	H 	0.95710 0.66950 0.71070 0.09900
H 	H 	0.93230 0.64320 0.65750 0.14400
H 	H 	0.91080 0.64640 0.72420 0.15600
C 	C 	0.93620 0.72470 0.62680 -0.49300
H 	H 	0.92450 0.75330 0.61420 0.11300
H 	H 	0.93840 0.70540 0.59100 0.12000
H 	H 	0.96540 0.72860 0.64480 0.03600
C 	C 	0.90190 0.73240 0.73060 -0.65000
H 	H 	0.88690 0.71640 0.76350 0.20000
H 	H 	0.88540 0.75900 0.72060 0.18000
H 	H 	0.93160 0.74040 0.74400 0.16300
N 	N 	0.61460 0.49250 0.07880 -0.29700
C 	C 	0.63810 0.52390 0.09940 0.07600
H 	H 	0.64410 0.54780 0.07280 -0.09100
C 	C 	0.65530 0.52550 0.15710 -0.24000
H 	H 	0.67360 0.54960 0.16790 0.04400
C 	C 	0.64750 0.49440 0.19900 0.05300
C 	C 	0.61770 0.46180 0.18090 -0.26100
H 	H 	0.60690 0.44060 0.20900 0.06500
C 	C 	0.60470 0.46200 0.12060 0.01100
H 	H 	0.58700 0.43810 0.10740 -0.05400
C 	C 	0.66520 0.49460 0.26300 -0.14100
C 	C 	0.67560 0.53370 0.29300 0.02700
H 	H 	0.67170 0.56080 0.27220 0.00300
C 	C 	0.69130 0.53390 0.35160 -0.15300
C 	C 	0.69910 0.49380 0.37990 0.04300
H 	H 	0.71210 0.49330 0.41940 0.02400
C 	C 	0.68840 0.45480 0.35180 -0.15900
C 	C 	0.67250 0.45530 0.29430 -0.00900
H 	H 	0.66600 0.42820 0.27470 -0.04400
C 	C 	0.70070 0.57660 0.38380 0.37100
C 	C 	0.69550 0.41150 0.38530 0.34700
Co	Co	0.67219 0.31682 0.60509 1.11700
S 	S 	0.71632 0.26894 0.67713 -0.18300
O 	O 	0.66328 0.25871 0.56450 -0.55000
O 	O 	0.57270 0.27798 0.43390 -0.47600
O 	O 	0.61093 0.31290 0.35920 -0.49000
O 	O 	0.41362 0.28232 0.43450 -0.49100
O 	O 	0.37777 0.32042 0.36020 -0.52000
O 	O 	0.73130 0.32080 0.56200 -0.28100
C 	C 	0.76730 0.31090 0.58940 0.21200
C 	C 	0.76760 0.28510 0.64330 0.43000
C 	C 	0.80670 0.27540 0.67330 1.89700
H 	H 	0.80570 0.25830 0.70960 -0.71400
C 	C 	0.84740 0.29000 0.65180 -1.91600
C 	C 	0.84720 0.31370 0.59750 0.72100
H 	H 	0.87430 0.32320 0.58060 -0.28000
C 	C 	0.80820 0.32380 0.56710 0.05100
C 	C 	0.88890 0.28240 0.68820 4.01900
C 	C 	0.88350 0.26660 0.75240 -3.61000
H 	H 	0.86540 0.28750 0.77540 0.96400
H 	H 	0.86920 0.23780 0.75230 0.99000
H 	H 	0.91240 0.26410 0.77180 1.02500
C 	C 	0.91700 0.24760 0.65860 -11.25600
H 	H 	0.92230 0.25530 0.61570 3.54600
H 	H 	0.94510 0.24550 0.68020 3.29100
H 	H 	0.90190 0.21920 0.66070 2.43900
C 	C 	0.91760 0.32350 0.69090 -5.29200
H 	H 	0.92190 0.33490 0.64940 1.38500
H 	H 	0.90310 0.34580 0.71600 1.47300
H 	H 	0.94610 0.31610 0.70880 1.38600
O 	O 	0.73100 0.32400 0.57000 -0.22300
C 	C 	0.76800 0.30220 0.58800 0.01500
C 	C 	0.76800 0.27290 0.63400 -0.73200
C 	C 	0.80420 0.25240 0.65160 -0.94100
H 	H 	0.80260 0.23310 0.68570 0.30300
C 	C 	0.84470 0.25750 0.62260 -0.81200
C 	C 	0.84450 0.28870 0.57750 0.22900
H 	H 	0.87170 0.29590 0.55870 -0.13600
C 	C 	0.80870 0.30960 0.55800 -0.36300
C 	C 	0.88750 0.23420 0.63460 5.25600
C 	C 	0.87440 0.18930 0.65800 -6.95400
H 	H 	0.90080 0.17210 0.66700 1.88600
H 	H 	0.85700 0.19260 0.69560 1.94100
H 	H 	0.85680 0.17410 0.62710 2.01100
C 	C 	0.90610 0.21580 0.57500 -4.82500
H 	H 	0.93390 0.20070 0.58340 1.29200
H 	H 	0.88520 0.19490 0.55720 1.30600
H 	H 	0.91130 0.23990 0.54610 1.22100
C 	C 	0.92510 0.26730 0.62900 -0.62700
H 	H 	0.95310 0.25250 0.63710 0.24300
H 	H 	0.92540 0.28000 0.58820 -1.01300
H 	H 	0.92100 0.29080 0.65950 1.41200
C 	C 	0.67300 0.22080 0.59030 0.19200
C 	C 	0.69970 0.21810 0.64240 -0.05000
C 	C 	0.70960 0.17850 0.66840 0.01200
H 	H 	0.72740 0.17780 0.70410 0.01000
C 	C 	0.69420 0.13880 0.64400 -0.16200
C 	C 	0.66800 0.14080 0.59300 0.02900
H 	H 	0.65650 0.11440 0.57620 -0.01100
C 	C 	0.65800 0.18110 0.56540 -0.09300
C 	C 	0.70350 0.09510 0.67490 0.37300
C 	C 	0.66200 0.07170 0.69340 -0.57400
H 	H 	0.66950 0.04290 0.71070 0.09900
H 	H 	0.64320 0.06770 0.65750 0.14400
H 	H 	0.64640 0.08920 0.72420 0.15600
C 	C 	0.72470 0.06380 0.62680 -0.49300
H 	H 	0.75330 0.07550 0.61420 0.11300
H 	H 	0.70540 0.06160 0.59100 0.12000
H 	H 	0.72860 0.03460 0.64480 0.03600
C 	C 	0.73240 0.09810 0.73060 -0.65000
H 	H 	0.71640 0.11310 0.76350 0.20000
H 	H 	0.75900 0.11460 0.72060 0.18000
H 	H 	0.74040 0.06840 0.74400 0.16300
N 	N 	0.49250 0.38540 0.07880 -0.29700
C 	C 	0.52390 0.36190 0.09940 0.07600
H 	H 	0.54780 0.35590 0.07280 -0.09100
C 	C 	0.52550 0.34470 0.15710 -0.24000
H 	H 	0.54960 0.32640 0.16790 0.04400
C 	C 	0.49440 0.35250 0.19900 0.05300
C 	C 	0.46180 0.38230 0.18090 -0.26100
H 	H 	0.44060 0.39310 0.20900 0.06500
C 	C 	0.46200 0.39530 0.12060 0.01100
H 	H 	0.43810 0.41300 0.10740 -0.05400
C 	C 	0.49460 0.33480 0.26300 -0.14100
C 	C 	0.53370 0.32440 0.29300 0.02700
H 	H 	0.56080 0.32830 0.27220 0.00300
C 	C 	0.53390 0.30870 0.35160 -0.15300
C 	C 	0.49380 0.30090 0.37990 0.04300
H 	H 	0.49330 0.28790 0.41940 0.02400
C 	C 	0.45480 0.31160 0.35180 -0.15900
C 	C 	0.45530 0.32750 0.29430 -0.00900
H 	H 	0.42820 0.33400 0.27470 -0.04400
C 	C 	0.57660 0.29930 0.38380 0.37100
C 	C 	0.41150 0.30450 0.38530 0.34700
Co	Co	0.32781 0.68318 0.60509 1.11700
S 	S 	0.28368 0.73106 0.67713 -0.18300
O 	O 	0.33672 0.74129 0.56450 -0.55000
O 	O 	0.42730 0.72202 0.43390 -0.47600
O 	O 	0.38907 0.68710 0.35920 -0.49000
O 	O 	0.58638 0.71768 0.43450 -0.49100
O 	O 	0.62223 0.67958 0.36020 -0.52000
O 	O 	0.26870 0.67920 0.56200 -0.28100
C 	C 	0.23270 0.68910 0.58940 0.21200
C 	C 	0.23240 0.71490 0.64330 0.43000
C 	C 	0.19330 0.72460 0.67330 1.89700
H 	H 	0.19430 0.74170 0.70960 -0.71400
C 	C 	0.15260 0.71000 0.65180 -1.91600
C 	C 	0.15280 0.68630 0.59750 0.72100
H 	H 	0.12570 0.67680 0.58060 -0.28000
C 	C 	0.19180 0.67620 0.56710 0.05100
C 	C 	0.11110 0.71760 0.68820 4.01900
C 	C 	0.11650 0.73340 0.75240 -3.61000
H 	H 	0.13460 0.71250 0.77540 0.96400
H 	H 	0.13080 0.76220 0.75230 0.99000
H 	H 	0.08760 0.73590 0.77180 1.02500
C 	C 	0.08300 0.75240 0.65860 -11.25600
H 	H 	0.07770 0.74470 0.61570 3.54600
H 	H 	0.05490 0.75450 0.68020 3.29100
H 	H 	0.09810 0.78080 0.66070 2.43900
C 	C 	0.08240 0.67650 0.69090 -5.29200
H 	H 	0.07810 0.66510 0.64940 1.38500
H 	H 	0.09690 0.65420 0.71600 1.47300
H 	H 	0.05390 0.68390 0.70880 1.38600
O 	O 	0.26900 0.67600 0.57000 -0.22300
C 	C 	0.23200 0.69780 0.58800 0.01500
C 	C 	0.23200 0.72710 0.63400 -0.73200
C 	C 	0.19580 0.74760 0.65160 -0.94100
H 	H 	0.19740 0.76690 0.68570 0.30300
C 	C 	0.15530 0.74250 0.62260 -0.81200
C 	C 	0.15550 0.71130 0.57750 0.22900
H 	H 	0.12830 0.70410 0.55870 -0.13600
C 	C 	0.19130 0.69040 0.55800 -0.36300
C 	C 	0.11250 0.76580 0.63460 5.25600
C 	C 	0.12560 0.81070 0.65800 -6.95400
H 	H 	0.09920 0.82790 0.66700 1.88600
H 	H 	0.14300 0.80740 0.69560 1.94100
H 	H 	0.14320 0.82590 0.62710 2.01100
C 	C 	0.09390 0.78420 0.57500 -4.82500
H 	H 	0.06610 0.79930 0.58340 1.29200
H 	H 	0.11480 0.80510 0.55720 1.30600
H 	H 	0.08870 0.76010 0.54610 1.22100
C 	C 	0.07490 0.73270 0.62900 -0.62700
H 	H 	0.04690 0.74750 0.63710 0.24300
H 	H 	0.07460 0.72000 0.58820 -1.01300
H 	H 	0.07900 0.70920 0.65950 1.41200
C 	C 	0.32700 0.77920 0.59030 0.19200
C 	C 	0.30030 0.78190 0.64240 -0.05000
C 	C 	0.29040 0.82150 0.66840 0.01200
H 	H 	0.27260 0.82220 0.70410 0.01000
C 	C 	0.30580 0.86120 0.64400 -0.16200
C 	C 	0.33200 0.85920 0.59300 0.02900
H 	H 	0.34350 0.88560 0.57620 -0.01100
C 	C 	0.34200 0.81890 0.56540 -0.09300
C 	C 	0.29650 0.90490 0.67490 0.37300
C 	C 	0.33800 0.92830 0.69340 -0.57400
H 	H 	0.33050 0.95710 0.71070 0.09900
H 	H 	0.35680 0.93230 0.65750 0.14400
H 	H 	0.35360 0.91080 0.72420 0.15600
C 	C 	0.27530 0.93620 0.62680 -0.49300
H 	H 	0.24670 0.92450 0.61420 0.11300
H 	H 	0.29460 0.93840 0.59100 0.12000
H 	H 	0.27140 0.96540 0.64480 0.03600
C 	C 	0.26760 0.90190 0.73060 -0.65000
H 	H 	0.28360 0.88690 0.76350 0.20000
H 	H 	0.24100 0.88540 0.72060 0.18000
H 	H 	0.25960 0.93160 0.74400 0.16300
N 	N 	0.50750 0.61460 0.07880 -0.29700
C 	C 	0.47610 0.63810 0.09940 0.07600
H 	H 	0.45220 0.64410 0.07280 -0.09100
C 	C 	0.47450 0.65530 0.15710 -0.24000
H 	H 	0.45040 0.67360 0.16790 0.04400
C 	C 	0.50560 0.64750 0.19900 0.05300
C 	C 	0.53820 0.61770 0.18090 -0.26100
H 	H 	0.55940 0.60690 0.20900 0.06500
C 	C 	0.53800 0.60470 0.12060 0.01100
H 	H 	0.56190 0.58700 0.10740 -0.05400
C 	C 	0.50540 0.66520 0.26300 -0.14100
C 	C 	0.46630 0.67560 0.29300 0.02700
H 	H 	0.43920 0.67170 0.27220 0.00300
C 	C 	0.46610 0.69130 0.35160 -0.15300
C 	C 	0.50620 0.69910 0.37990 0.04300
H 	H 	0.50670 0.71210 0.41940 0.02400
C 	C 	0.54520 0.68840 0.35180 -0.15900
C 	C 	0.54470 0.67250 0.29430 -0.00900
H 	H 	0.57180 0.66600 0.27470 -0.04400
C 	C 	0.42340 0.70070 0.38380 0.37100
C 	C 	0.58850 0.69550 0.38530 0.34700
Co	Co	0.68318 0.67219 0.39491 1.11800
S 	S 	0.73106 0.71632 0.32287 -0.18000
O 	O 	0.74129 0.66328 0.43550 -0.55000
O 	O 	0.72202 0.57270 0.56610 -0.47600
O 	O 	0.68710 0.61093 0.64080 -0.49100
O 	O 	0.71768 0.41362 0.56550 -0.49100
O 	O 	0.67958 0.37777 0.63980 -0.52200
O 	O 	0.67920 0.73130 0.43800 -0.28000
C 	C 	0.68910 0.76730 0.41060 0.21200
C 	C 	0.71490 0.76760 0.35670 0.42700
C 	C 	0.72460 0.80670 0.32670 1.89800
H 	H 	0.74170 0.80570 0.29040 -0.71100
C 	C 	0.71000 0.84740 0.34820 -1.91200
C 	C 	0.68630 0.84720 0.40250 0.71900
H 	H 	0.67680 0.87430 0.41940 -0.27900
C 	C 	0.67620 0.80820 0.43290 0.04800
C 	C 	0.71760 0.88890 0.31180 4.02300
C 	C 	0.73340 0.88350 0.24760 -3.61600
H 	H 	0.71250 0.86540 0.22460 0.96900
H 	H 	0.76220 0.86920 0.24770 0.99300
H 	H 	0.73590 0.91240 0.22820 1.02400
C 	C 	0.75240 0.91700 0.34140 -11.27100
H 	H 	0.74470 0.92230 0.38430 3.55000
H 	H 	0.75450 0.94510 0.31980 3.29500
H 	H 	0.78080 0.90190 0.33930 2.44100
C 	C 	0.67650 0.91760 0.30910 -5.29600
H 	H 	0.66510 0.92190 0.35060 1.38500
H 	H 	0.65420 0.90310 0.28400 1.47400
H 	H 	0.68390 0.94610 0.29120 1.38500
O 	O 	0.67600 0.73100 0.43000 -0.22300
C 	C 	0.69780 0.76800 0.41200 0.01700
C 	C 	0.72710 0.76800 0.36600 -0.72900
C 	C 	0.74760 0.80420 0.34840 -0.93900
H 	H 	0.76690 0.80260 0.31430 0.30200
C 	C 	0.74250 0.84470 0.37740 -0.81900
C 	C 	0.71130 0.84450 0.42250 0.23300
H 	H 	0.70410 0.87170 0.44130 -0.13800
C 	C 	0.69040 0.80870 0.44200 -0.35900
C 	C 	0.76580 0.88750 0.36540 5.26700
C 	C 	0.81070 0.87440 0.34200 -6.96500
H 	H 	0.82790 0.90080 0.33300 1.88900
H 	H 	0.80740 0.85700 0.30440 1.94400
H 	H 	0.82590 0.85680 0.37290 2.01400
C 	C 	0.78420 0.90610 0.42500 -4.83400
H 	H 	0.79930 0.93390 0.41660 1.29400
H 	H 	0.80510 0.88520 0.44280 1.30800
H 	H 	0.76010 0.91130 0.45390 1.22300
C 	C 	0.73270 0.92510 0.37100 -0.62800
H 	H 	0.74750 0.95310 0.36290 0.24400
H 	H 	0.72000 0.92540 0.41180 -1.01400
H 	H 	0.70920 0.92100 0.34050 1.41300
C 	C 	0.77920 0.67300 0.40970 0.19200
C 	C 	0.78190 0.69970 0.35760 -0.05000
C 	C 	0.82150 0.70960 0.33160 0.01100
H 	H 	0.82220 0.72740 0.29590 0.01100
C 	C 	0.86120 0.69420 0.35600 -0.16000
C 	C 	0.85920 0.66800 0.40700 0.02800
H 	H 	0.88560 0.65650 0.42380 -0.01000
C 	C 	0.81890 0.65800 0.43460 -0.09300
C 	C 	0.90490 0.70350 0.32510 0.36700
C 	C 	0.92830 0.66200 0.30660 -0.56400
H 	H 	0.95710 0.66950 0.28930 0.09300
H 	H 	0.93230 0.64320 0.34250 0.14100
H 	H 	0.91080 0.64640 0.27580 0.15000
C 	C 	0.93620 0.72470 0.37320 -0.48800
H 	H 	0.92450 0.75330 0.38580 0.11200
H 	H 	0.93840 0.70540 0.40900 0.11800
H 	H 	0.96540 0.72860 0.35520 0.03500
C 	C 	0.90190 0.73240 0.26940 -0.64300
H 	H 	0.88690 0.71640 0.23650 0.19700
H 	H 	0.88540 0.75900 0.27940 0.17800
H 	H 	0.93160 0.74040 0.25600 0.15900
N 	N 	0.61460 0.49250 0.92120 -0.26500
C 	C 	0.63810 0.52390 0.90060 0.07100
H 	H 	0.64410 0.54780 0.92720 -0.05600
C 	C 	0.65530 0.52550 0.84290 -0.23000
H 	H 	0.67360 0.54960 0.83210 0.04300
C 	C 	0.64750 0.49440 0.80100 0.04500
C 	C 	0.61770 0.46180 0.81910 -0.25900
H 	H 	0.60690 0.44060 0.79100 0.06300
C 	C 	0.60470 0.46200 0.87940 0.00900
H 	H 	0.58700 0.43810 0.89260 -0.03600
C 	C 	0.66520 0.49460 0.73700 -0.14100
C 	C 	0.67560 0.53370 0.70700 0.02500
H 	H 	0.67170 0.56080 0.72780 0.00300
C 	C 	0.69130 0.53390 0.64840 -0.15300
C 	C 	0.69910 0.49380 0.62010 0.04200
H 	H 	0.71210 0.49330 0.58060 0.02400
C 	C 	0.68840 0.45480 0.64820 -0.16000
C 	C 	0.67250 0.45530 0.70570 -0.01200
H 	H 	0.66600 0.42820 0.72530 -0.04700
C 	C 	0.70070 0.57660 0.61620 0.37100
C 	C 	0.69550 0.41150 0.61470 0.34600
Co	Co	0.31682 0.32781 0.39491 1.11800
S 	S 	0.26894 0.28368 0.32287 -0.18000
O 	O 	0.25871 0.33672 0.43550 -0.55000
O 	O 	0.27798 0.42730 0.56610 -0.47600
O 	O 	0.31290 0.38907 0.64080 -0.49100
O 	O 	0.28232 0.58638 0.56550 -0.49100
O 	O 	0.32042 0.62223 0.63980 -0.52200
O 	O 	0.32080 0.26870 0.43800 -0.28000
C 	C 	0.31090 0.23270 0.41060 0.21200
C 	C 	0.28510 0.23240 0.35670 0.42700
C 	C 	0.27540 0.19330 0.32670 1.89800
H 	H 	0.25830 0.19430 0.29040 -0.71100
C 	C 	0.29000 0.15260 0.34820 -1.91200
C 	C 	0.31370 0.15280 0.40250 0.71900
H 	H 	0.32320 0.12570 0.41940 -0.27900
C 	C 	0.32380 0.19180 0.43290 0.04800
C 	C 	0.28240 0.11110 0.31180 4.02300
C 	C 	0.26660 0.11650 0.24760 -3.61600
H 	H 	0.28750 0.13460 0.22460 0.96900
H 	H 	0.23780 0.13080 0.24770 0.99300
H 	H 	0.26410 0.08760 0.22820 1.02400
C 	C 	0.24760 0.08300 0.34140 -11.27100
H 	H 	0.25530 0.07770 0.38430 3.55000
H 	H 	0.24550 0.05490 0.31980 3.29500
H 	H 	0.21920 0.09810 0.33930 2.44100
C 	C 	0.32350 0.08240 0.30910 -5.29600
H 	H 	0.33490 0.07810 0.35060 1.38500
H 	H 	0.34580 0.09690 0.28400 1.47400
H 	H 	0.31610 0.05390 0.29120 1.38500
O 	O 	0.32400 0.26900 0.43000 -0.22300
C 	C 	0.30220 0.23200 0.41200 0.01700
C 	C 	0.27290 0.23200 0.36600 -0.72900
C 	C 	0.25240 0.19580 0.34840 -0.93900
H 	H 	0.23310 0.19740 0.31430 0.30200
C 	C 	0.25750 0.15530 0.37740 -0.81900
C 	C 	0.28870 0.15550 0.42250 0.23300
H 	H 	0.29590 0.12830 0.44130 -0.13800
C 	C 	0.30960 0.19130 0.44200 -0.35900
C 	C 	0.23420 0.11250 0.36540 5.26700
C 	C 	0.18930 0.12560 0.34200 -6.96500
H 	H 	0.17210 0.09920 0.33300 1.88900
H 	H 	0.19260 0.14300 0.30440 1.94400
H 	H 	0.17410 0.14320 0.37290 2.01400
C 	C 	0.21580 0.09390 0.42500 -4.83400
H 	H 	0.20070 0.06610 0.41660 1.29400
H 	H 	0.19490 0.11480 0.44280 1.30800
H 	H 	0.23990 0.08870 0.45390 1.22300
C 	C 	0.26730 0.07490 0.37100 -0.62800
H 	H 	0.25250 0.04690 0.36290 0.24400
H 	H 	0.28000 0.07460 0.41180 -1.01400
H 	H 	0.29080 0.07900 0.34050 1.41300
C 	C 	0.22080 0.32700 0.40970 0.19200
C 	C 	0.21810 0.30030 0.35760 -0.05000
C 	C 	0.17850 0.29040 0.33160 0.01100
H 	H 	0.17780 0.27260 0.29590 0.01100
C 	C 	0.13880 0.30580 0.35600 -0.16000
C 	C 	0.14080 0.33200 0.40700 0.02800
H 	H 	0.11440 0.34350 0.42380 -0.01000
C 	C 	0.18110 0.34200 0.43460 -0.09300
C 	C 	0.09510 0.29650 0.32510 0.36700
C 	C 	0.07170 0.33800 0.30660 -0.56400
H 	H 	0.04290 0.33050 0.28930 0.09300
H 	H 	0.06770 0.35680 0.34250 0.14100
H 	H 	0.08920 0.35360 0.27580 0.15000
C 	C 	0.06380 0.27530 0.37320 -0.48800
H 	H 	0.07550 0.24670 0.38580 0.11200
H 	H 	0.06160 0.29460 0.40900 0.11800
H 	H 	0.03460 0.27140 0.35520 0.03500
C 	C 	0.09810 0.26760 0.26940 -0.64300
H 	H 	0.11310 0.28360 0.23650 0.19700
H 	H 	0.11460 0.24100 0.27940 0.17800
H 	H 	0.06840 0.25960 0.25600 0.15900
N 	N 	0.38540 0.50750 0.92120 -0.26500
C 	C 	0.36190 0.47610 0.90060 0.07100
H 	H 	0.35590 0.45220 0.92720 -0.05600
C 	C 	0.34470 0.47450 0.84290 -0.23000
H 	H 	0.32640 0.45040 0.83210 0.04300
C 	C 	0.35250 0.50560 0.80100 0.04500
C 	C 	0.38230 0.53820 0.81910 -0.25900
H 	H 	0.39310 0.55940 0.79100 0.06300
C 	C 	0.39530 0.53800 0.87940 0.00900
H 	H 	0.41300 0.56190 0.89260 -0.03600
C 	C 	0.33480 0.50540 0.73700 -0.14100
C 	C 	0.32440 0.46630 0.70700 0.02500
H 	H 	0.32830 0.43920 0.72780 0.00300
C 	C 	0.30870 0.46610 0.64840 -0.15300
C 	C 	0.30090 0.50620 0.62010 0.04200
H 	H 	0.28790 0.50670 0.58060 0.02400
C 	C 	0.31160 0.54520 0.64820 -0.16000
C 	C 	0.32750 0.54470 0.70570 -0.01200
H 	H 	0.33400 0.57180 0.72530 -0.04700
C 	C 	0.29930 0.42340 0.61620 0.37100
C 	C 	0.30450 0.58850 0.61470 0.34600
Co	Co	0.32781 0.68318 0.39491 1.11800
S 	S 	0.28368 0.73106 0.32287 -0.18000
O 	O 	0.33672 0.74129 0.43550 -0.55000
O 	O 	0.42730 0.72202 0.56610 -0.47600
O 	O 	0.38907 0.68710 0.64080 -0.49100
O 	O 	0.58638 0.71768 0.56550 -0.49100
O 	O 	0.62223 0.67958 0.63980 -0.52200
O 	O 	0.26870 0.67920 0.43800 -0.28000
C 	C 	0.23270 0.68910 0.41060 0.21200
C 	C 	0.23240 0.71490 0.35670 0.42700
C 	C 	0.19330 0.72460 0.32670 1.89800
H 	H 	0.19430 0.74170 0.29040 -0.71100
C 	C 	0.15260 0.71000 0.34820 -1.91200
C 	C 	0.15280 0.68630 0.40250 0.71900
H 	H 	0.12570 0.67680 0.41940 -0.27900
C 	C 	0.19180 0.67620 0.43290 0.04800
C 	C 	0.11110 0.71760 0.31180 4.02300
C 	C 	0.11650 0.73340 0.24760 -3.61600
H 	H 	0.13460 0.71250 0.22460 0.96900
H 	H 	0.13080 0.76220 0.24770 0.99300
H 	H 	0.08760 0.73590 0.22820 1.02400
C 	C 	0.08300 0.75240 0.34140 -11.27100
H 	H 	0.07770 0.74470 0.38430 3.55000
H 	H 	0.05490 0.75450 0.31980 3.29500
H 	H 	0.09810 0.78080 0.33930 2.44100
C 	C 	0.08240 0.67650 0.30910 -5.29600
H 	H 	0.07810 0.66510 0.35060 1.38500
H 	H 	0.09690 0.65420 0.28400 1.47400
H 	H 	0.05390 0.68390 0.29120 1.38500
O 	O 	0.26900 0.67600 0.43000 -0.22300
C 	C 	0.23200 0.69780 0.41200 0.01700
C 	C 	0.23200 0.72710 0.36600 -0.72900
C 	C 	0.19580 0.74760 0.34840 -0.93900
H 	H 	0.19740 0.76690 0.31430 0.30200
C 	C 	0.15530 0.74250 0.37740 -0.81900
C 	C 	0.15550 0.71130 0.42250 0.23300
H 	H 	0.12830 0.70410 0.44130 -0.13800
C 	C 	0.19130 0.69040 0.44200 -0.35900
C 	C 	0.11250 0.76580 0.36540 5.26700
C 	C 	0.12560 0.81070 0.34200 -6.96500
H 	H 	0.09920 0.82790 0.33300 1.88900
H 	H 	0.14300 0.80740 0.30440 1.94400
H 	H 	0.14320 0.82590 0.37290 2.01400
C 	C 	0.09390 0.78420 0.42500 -4.83400
H 	H 	0.06610 0.79930 0.41660 1.29400
H 	H 	0.11480 0.80510 0.44280 1.30800
H 	H 	0.08870 0.76010 0.45390 1.22300
C 	C 	0.07490 0.73270 0.37100 -0.62800
H 	H 	0.04690 0.74750 0.36290 0.24400
H 	H 	0.07460 0.72000 0.41180 -1.01400
H 	H 	0.07900 0.70920 0.34050 1.41300
C 	C 	0.32700 0.77920 0.40970 0.19200
C 	C 	0.30030 0.78190 0.35760 -0.05000
C 	C 	0.29040 0.82150 0.33160 0.01100
H 	H 	0.27260 0.82220 0.29590 0.01100
C 	C 	0.30580 0.86120 0.35600 -0.16000
C 	C 	0.33200 0.85920 0.40700 0.02800
H 	H 	0.34350 0.88560 0.42380 -0.01000
C 	C 	0.34200 0.81890 0.43460 -0.09300
C 	C 	0.29650 0.90490 0.32510 0.36700
C 	C 	0.33800 0.92830 0.30660 -0.56400
H 	H 	0.33050 0.95710 0.28930 0.09300
H 	H 	0.35680 0.93230 0.34250 0.14100
H 	H 	0.35360 0.91080 0.27580 0.15000
C 	C 	0.27530 0.93620 0.37320 -0.48800
H 	H 	0.24670 0.92450 0.38580 0.11200
H 	H 	0.29460 0.93840 0.40900 0.11800
H 	H 	0.27140 0.96540 0.35520 0.03500
C 	C 	0.26760 0.90190 0.26940 -0.64300
H 	H 	0.28360 0.88690 0.23650 0.19700
H 	H 	0.24100 0.88540 0.27940 0.17800
H 	H 	0.25960 0.93160 0.25600 0.15900
N 	N 	0.50750 0.61460 0.92120 -0.26500
C 	C 	0.47610 0.63810 0.90060 0.07100
H 	H 	0.45220 0.64410 0.92720 -0.05600
C 	C 	0.47450 0.65530 0.84290 -0.23000
H 	H 	0.45040 0.67360 0.83210 0.04300
C 	C 	0.50560 0.64750 0.80100 0.04500
C 	C 	0.53820 0.61770 0.81910 -0.25900
H 	H 	0.55940 0.60690 0.79100 0.06300
C 	C 	0.53800 0.60470 0.87940 0.00900
H 	H 	0.56190 0.58700 0.89260 -0.03600
C 	C 	0.50540 0.66520 0.73700 -0.14100
C 	C 	0.46630 0.67560 0.70700 0.02500
H 	H 	0.43920 0.67170 0.72780 0.00300
C 	C 	0.46610 0.69130 0.64840 -0.15300
C 	C 	0.50620 0.69910 0.62010 0.04200
H 	H 	0.50670 0.71210 0.58060 0.02400
C 	C 	0.54520 0.68840 0.64820 -0.16000
C 	C 	0.54470 0.67250 0.70570 -0.01200
H 	H 	0.57180 0.66600 0.72530 -0.04700
C 	C 	0.42340 0.70070 0.61620 0.37100
C 	C 	0.58850 0.69550 0.61470 0.34600
Co	Co	0.67219 0.31682 0.39491 1.11800
S 	S 	0.71632 0.26894 0.32287 -0.18000
O 	O 	0.66328 0.25871 0.43550 -0.55000
O 	O 	0.57270 0.27798 0.56610 -0.47600
O 	O 	0.61093 0.31290 0.64080 -0.49100
O 	O 	0.41362 0.28232 0.56550 -0.49100
O 	O 	0.37777 0.32042 0.63980 -0.52200
O 	O 	0.73130 0.32080 0.43800 -0.28000
C 	C 	0.76730 0.31090 0.41060 0.21200
C 	C 	0.76760 0.28510 0.35670 0.42700
C 	C 	0.80670 0.27540 0.32670 1.89800
H 	H 	0.80570 0.25830 0.29040 -0.71100
C 	C 	0.84740 0.29000 0.34820 -1.91200
C 	C 	0.84720 0.31370 0.40250 0.71900
H 	H 	0.87430 0.32320 0.41940 -0.27900
C 	C 	0.80820 0.32380 0.43290 0.04800
C 	C 	0.88890 0.28240 0.31180 4.02300
C 	C 	0.88350 0.26660 0.24760 -3.61600
H 	H 	0.86540 0.28750 0.22460 0.96900
H 	H 	0.86920 0.23780 0.24770 0.99300
H 	H 	0.91240 0.26410 0.22820 1.02400
C 	C 	0.91700 0.24760 0.34140 -11.27100
H 	H 	0.92230 0.25530 0.38430 3.55000
H 	H 	0.94510 0.24550 0.31980 3.29500
H 	H 	0.90190 0.21920 0.33930 2.44100
C 	C 	0.91760 0.32350 0.30910 -5.29600
H 	H 	0.92190 0.33490 0.35060 1.38500
H 	H 	0.90310 0.34580 0.28400 1.47400
H 	H 	0.94610 0.31610 0.29120 1.38500
O 	O 	0.73100 0.32400 0.43000 -0.22300
C 	C 	0.76800 0.30220 0.41200 0.01700
C 	C 	0.76800 0.27290 0.36600 -0.72900
C 	C 	0.80420 0.25240 0.34840 -0.93900
H 	H 	0.80260 0.23310 0.31430 0.30200
C 	C 	0.84470 0.25750 0.37740 -0.81900
C 	C 	0.84450 0.28870 0.42250 0.23300
H 	H 	0.87170 0.29590 0.44130 -0.13800
C 	C 	0.80870 0.30960 0.44200 -0.35900
C 	C 	0.88750 0.23420 0.36540 5.26700
C 	C 	0.87440 0.18930 0.34200 -6.96500
H 	H 	0.90080 0.17210 0.33300 1.88900
H 	H 	0.85700 0.19260 0.30440 1.94400
H 	H 	0.85680 0.17410 0.37290 2.01400
C 	C 	0.90610 0.21580 0.42500 -4.83400
H 	H 	0.93390 0.20070 0.41660 1.29400
H 	H 	0.88520 0.19490 0.44280 1.30800
H 	H 	0.91130 0.23990 0.45390 1.22300
C 	C 	0.92510 0.26730 0.37100 -0.62800
H 	H 	0.95310 0.25250 0.36290 0.24400
H 	H 	0.92540 0.28000 0.41180 -1.01400
H 	H 	0.92100 0.29080 0.34050 1.41300
C 	C 	0.67300 0.22080 0.40970 0.19200
C 	C 	0.69970 0.21810 0.35760 -0.05000
C 	C 	0.70960 0.17850 0.33160 0.01100
H 	H 	0.72740 0.17780 0.29590 0.01100
C 	C 	0.69420 0.13880 0.35600 -0.16000
C 	C 	0.66800 0.14080 0.40700 0.02800
H 	H 	0.65650 0.11440 0.42380 -0.01000
C 	C 	0.65800 0.18110 0.43460 -0.09300
C 	C 	0.70350 0.09510 0.32510 0.36700
C 	C 	0.66200 0.07170 0.30660 -0.56400
H 	H 	0.66950 0.04290 0.28930 0.09300
H 	H 	0.64320 0.06770 0.34250 0.14100
H 	H 	0.64640 0.08920 0.27580 0.15000
C 	C 	0.72470 0.06380 0.37320 -0.48800
H 	H 	0.75330 0.07550 0.38580 0.11200
H 	H 	0.70540 0.06160 0.40900 0.11800
H 	H 	0.72860 0.03460 0.35520 0.03500
C 	C 	0.73240 0.09810 0.26940 -0.64300
H 	H 	0.71640 0.11310 0.23650 0.19700
H 	H 	0.75900 0.11460 0.27940 0.17800
H 	H 	0.74040 0.06840 0.25600 0.15900
N 	N 	0.49250 0.38540 0.92120 -0.26500
C 	C 	0.52390 0.36190 0.90060 0.07100
H 	H 	0.54780 0.35590 0.92720 -0.05600
C 	C 	0.52550 0.34470 0.84290 -0.23000
H 	H 	0.54960 0.32640 0.83210 0.04300
C 	C 	0.49440 0.35250 0.80100 0.04500
C 	C 	0.46180 0.38230 0.81910 -0.25900
H 	H 	0.44060 0.39310 0.79100 0.06300
C 	C 	0.46200 0.39530 0.87940 0.00900
H 	H 	0.43810 0.41300 0.89260 -0.03600
C 	C 	0.49460 0.33480 0.73700 -0.14100
C 	C 	0.53370 0.32440 0.70700 0.02500
H 	H 	0.56080 0.32830 0.72780 0.00300
C 	C 	0.53390 0.30870 0.64840 -0.15300
C 	C 	0.49380 0.30090 0.62010 0.04200
H 	H 	0.49330 0.28790 0.58060 0.02400
C 	C 	0.45480 0.31160 0.64820 -0.16000
C 	C 	0.45530 0.32750 0.70570 -0.01200
H 	H 	0.42820 0.33400 0.72530 -0.04700
C 	C 	0.57660 0.29930 0.61620 0.37100
C 	C 	0.41150 0.30450 0.61470 0.34600
Co	Co	0.36818 0.27322 0.50000 1.11500
Co	Co	0.26612 0.38275 0.50000 1.13000
S 	S 	0.35576 0.18951 0.50000 -0.15100
S 	S 	0.18232 0.37793 0.50000 -0.14900
Co	Co	0.63182 0.72678 0.50000 1.11500
Co	Co	0.73388 0.61725 0.50000 1.13000
S 	S 	0.64424 0.81049 0.50000 -0.15100
S 	S 	0.81768 0.62207 0.50000 -0.14900
Co	Co	0.72678 0.36818 0.50000 1.11500
Co	Co	0.61725 0.26612 0.50000 1.13000
S 	S 	0.81049 0.35576 0.50000 -0.15100
S 	S 	0.62207 0.18232 0.50000 -0.14900
Co	Co	0.27322 0.63182 0.50000 1.11500
Co	Co	0.38275 0.73388 0.50000 1.13000
S 	S 	0.18951 0.64424 0.50000 -0.15100
S 	S 	0.37793 0.81768 0.50000 -0.14900
Co	Co	0.42727 0.50503 -0.00000 1.04100
O 	O 	0.43190 0.44140 -0.00000 -0.78400
H 	H 	0.41330 0.41840 -0.00000 0.17300
Co	Co	0.57273 0.49497 -0.00000 1.04100
O 	O 	0.56810 0.55860 -0.00000 -0.78400
H 	H 	0.58670 0.58160 -0.00000 0.17300
Co	Co	0.49497 0.42727 -0.00000 1.04100
O 	O 	0.55860 0.43190 -0.00000 -0.78400
H 	H 	0.58160 0.41330 -0.00000 0.17300
Co	Co	0.50503 0.57273 -0.00000 1.04100
O 	O 	0.44140 0.56810 -0.00000 -0.78400
H 	H 	0.41840 0.58670 -0.00000 0.17300
Co	Co	0.18318 0.82781 0.89491 1.12300
S 	S 	0.23106 0.78368 0.82287 -0.18600
O 	O 	0.24129 0.83672 0.93550 -0.51000
O 	O 	0.22202 0.92730 0.06610 -0.49200
O 	O 	0.18710 0.88907 0.14080 -0.49500
O 	O 	0.21768 0.08638 0.06550 -0.50700
O 	O 	0.17958 0.12223 0.13980 -0.52400
O 	O 	0.17920 0.76870 0.93800 -0.27400
C 	C 	0.18910 0.73270 0.91060 0.21700
C 	C 	0.21490 0.73240 0.85670 0.45700
C 	C 	0.22460 0.69330 0.82670 1.96700
H 	H 	0.24170 0.69430 0.79040 -0.73900
C 	C 	0.21000 0.65260 0.84820 -1.97100
C 	C 	0.18630 0.65280 0.90250 0.74200
H 	H 	0.17680 0.62570 0.91940 -0.27700
C 	C 	0.17620 0.69180 0.93290 0.08600
C 	C 	0.21760 0.61110 0.81180 4.11100
C 	C 	0.23340 0.61650 0.74760 -3.68500
H 	H 	0.21250 0.63460 0.72460 0.98400
H 	H 	0.26220 0.63080 0.74770 1.01000
H 	H 	0.23590 0.58760 0.72820 1.04300
C 	C 	0.25240 0.58300 0.84140 -11.51500
H 	H 	0.24470 0.57770 0.88430 3.62600
H 	H 	0.25450 0.55490 0.81980 3.36600
H 	H 	0.28080 0.59810 0.83930 2.48900
C 	C 	0.17650 0.58240 0.80910 -5.41500
H 	H 	0.16510 0.57810 0.85060 1.42400
H 	H 	0.15420 0.59690 0.78400 1.51100
H 	H 	0.18390 0.55390 0.79120 1.41900
O 	O 	0.17600 0.76900 0.93000 -0.20000
C 	C 	0.19780 0.73200 0.91200 0.00600
C 	C 	0.22710 0.73200 0.86600 -0.75700
C 	C 	0.24760 0.69580 0.84840 -0.98800
H 	H 	0.26690 0.69740 0.81430 0.31900
C 	C 	0.24250 0.65530 0.87740 -0.81100
C 	C 	0.21130 0.65550 0.92250 0.21400
H 	H 	0.20410 0.62830 0.94130 -0.11800
C 	C 	0.19040 0.69130 0.94200 -0.33600
C 	C 	0.26580 0.61250 0.86540 5.39200
C 	C 	0.31070 0.62560 0.84200 -7.11600
H 	H 	0.32790 0.59920 0.83300 1.93100
H 	H 	0.30740 0.64300 0.80440 1.98600
H 	H 	0.32590 0.64320 0.87290 2.06400
C 	C 	0.28420 0.59390 0.92500 -4.98400
H 	H 	0.29930 0.56610 0.91660 1.34600
H 	H 	0.30510 0.61480 0.94280 1.37100
H 	H 	0.26010 0.58870 0.95390 1.28800
C 	C 	0.23270 0.57490 0.87100 -0.64300
H 	H 	0.24750 0.54690 0.86290 0.25300
H 	H 	0.22000 0.57460 0.91180 -1.02800
H 	H 	0.20920 0.57900 0.84050 1.44400
C 	C 	0.27920 0.82700 0.90970 0.16500
C 	C 	0.28190 0.80030 0.85760 -0.02900
C 	C 	0.32150 0.79040 0.83160 -0.00400
H 	H 	0.32220 0.77260 0.79590 0.01600
C 	C 	0.36120 0.80580 0.85600 -0.13800
C 	C 	0.35920 0.83200 0.90700 -0.00800
H 	H 	0.38560 0.84350 0.92380 0.02100
C 	C 	0.31890 0.84200 0.93460 -0.00300
C 	C 	0.40490 0.79650 0.82510 0.37000
C 	C 	0.42830 0.83800 0.80660 -0.57500
H 	H 	0.45710 0.83050 0.78930 0.09800
H 	H 	0.43230 0.85680 0.84250 0.15100
H 	H 	0.41080 0.85360 0.77580 0.15600
C 	C 	0.43620 0.77530 0.87320 -0.50700
H 	H 	0.42450 0.74670 0.88580 0.12600
H 	H 	0.43840 0.79460 0.90900 0.13700
H 	H 	0.46540 0.77140 0.85520 0.04200
C 	C 	0.40190 0.76760 0.76940 -0.64500
H 	H 	0.38690 0.78360 0.73650 0.19700
H 	H 	0.38540 0.74100 0.77940 0.17900
H 	H 	0.43160 0.75960 0.75600 0.15900
N 	N 	0.11460 0.00750 0.42120 -0.29100
C 	C 	0.13810 0.97610 0.40060 0.07500
H 	H 	0.14410 0.95220 0.42720 -0.07900
C 	C 	0.15530 0.97450 0.34290 -0.23900
H 	H 	0.17360 0.95040 0.33210 0.04400
C 	C 	0.14750 0.00560 0.30100 0.05200
C 	C 	0.11770 0.03820 0.31910 -0.26300
H 	H 	0.10690 0.05940 0.29100 0.06300
C 	C 	0.10470 0.03800 0.37940 0.01000
H 	H 	0.08700 0.06190 0.39260 -0.05300
C 	C 	0.16520 0.00540 0.23700 -0.14700
C 	C 	0.17560 0.96630 0.20700 0.03100
H 	H 	0.17170 0.93920 0.22780 0.00000
C 	C 	0.19130 0.96610 0.14840 -0.16300
C 	C 	0.19910 0.00620 0.12010 0.04800
H 	H 	0.21210 0.00670 0.08060 0.01000
C 	C 	0.18840 0.04520 0.14820 -0.17000
C 	C 	0.17250 0.04470 0.20570 -0.00600
H 	H 	0.16600 0.07180 0.22530 -0.04800
C 	C 	0.20070 0.92340 0.11620 0.37200
C 	C 	0.19550 0.08850 0.11470 0.34800
Co	Co	0.81682 0.17219 0.89491 1.12300
S 	S 	0.76894 0.21632 0.82287 -0.18600
O 	O 	0.75871 0.16328 0.93550 -0.51000
O 	O 	0.77798 0.07270 0.06610 -0.49200
O 	O 	0.81290 0.11093 0.14080 -0.49500
O 	O 	0.78232 0.91362 0.06550 -0.50700
O 	O 	0.82042 0.87777 0.13980 -0.52400
O 	O 	0.82080 0.23130 0.93800 -0.27400
C 	C 	0.81090 0.26730 0.91060 0.21700
C 	C 	0.78510 0.26760 0.85670 0.45700
C 	C 	0.77540 0.30670 0.82670 1.96700
H 	H 	0.75830 0.30570 0.79040 -0.73900
C 	C 	0.79000 0.34740 0.84820 -1.97100
C 	C 	0.81370 0.34720 0.90250 0.74200
H 	H 	0.82320 0.37430 0.91940 -0.27700
C 	C 	0.82380 0.30820 0.93290 0.08600
C 	C 	0.78240 0.38890 0.81180 4.11100
C 	C 	0.76660 0.38350 0.74760 -3.68500
H 	H 	0.78750 0.36540 0.72460 0.98400
H 	H 	0.73780 0.36920 0.74770 1.01000
H 	H 	0.76410 0.41240 0.72820 1.04300
C 	C 	0.74760 0.41700 0.84140 -11.51500
H 	H 	0.75530 0.42230 0.88430 3.62600
H 	H 	0.74550 0.44510 0.81980 3.36600
H 	H 	0.71920 0.40190 0.83930 2.48900
C 	C 	0.82350 0.41760 0.80910 -5.41500
H 	H 	0.83490 0.42190 0.85060 1.42400
H 	H 	0.84580 0.40310 0.78400 1.51100
H 	H 	0.81610 0.44610 0.79120 1.41900
O 	O 	0.82400 0.23100 0.93000 -0.20000
C 	C 	0.80220 0.26800 0.91200 0.00600
C 	C 	0.77290 0.26800 0.86600 -0.75700
C 	C 	0.75240 0.30420 0.84840 -0.98800
H 	H 	0.73310 0.30260 0.81430 0.31900
C 	C 	0.75750 0.34470 0.87740 -0.81100
C 	C 	0.78870 0.34450 0.92250 0.21400
H 	H 	0.79590 0.37170 0.94130 -0.11800
C 	C 	0.80960 0.30870 0.94200 -0.33600
C 	C 	0.73420 0.38750 0.86540 5.39200
C 	C 	0.68930 0.37440 0.84200 -7.11600
H 	H 	0.67210 0.40080 0.83300 1.93100
H 	H 	0.69260 0.35700 0.80440 1.98600
H 	H 	0.67410 0.35680 0.87290 2.06400
C 	C 	0.71580 0.40610 0.92500 -4.98400
H 	H 	0.70070 0.43390 0.91660 1.34600
H 	H 	0.69490 0.38520 0.94280 1.37100
H 	H 	0.73990 0.41130 0.95390 1.28800
C 	C 	0.76730 0.42510 0.87100 -0.64300
H 	H 	0.75250 0.45310 0.86290 0.25300
H 	H 	0.78000 0.42540 0.91180 -1.02800
H 	H 	0.79080 0.42100 0.84050 1.44400
C 	C 	0.72080 0.17300 0.90970 0.16500
C 	C 	0.71810 0.19970 0.85760 -0.02900
C 	C 	0.67850 0.20960 0.83160 -0.00400
H 	H 	0.67780 0.22740 0.79590 0.01600
C 	C 	0.63880 0.19420 0.85600 -0.13800
C 	C 	0.64080 0.16800 0.90700 -0.00800
H 	H 	0.61440 0.15650 0.92380 0.02100
C 	C 	0.68110 0.15800 0.93460 -0.00300
C 	C 	0.59510 0.20350 0.82510 0.37000
C 	C 	0.57170 0.16200 0.80660 -0.57500
H 	H 	0.54290 0.16950 0.78930 0.09800
H 	H 	0.56770 0.14320 0.84250 0.15100
H 	H 	0.58920 0.14640 0.77580 0.15600
C 	C 	0.56380 0.22470 0.87320 -0.50700
H 	H 	0.57550 0.25330 0.88580 0.12600
H 	H 	0.56160 0.20540 0.90900 0.13700
H 	H 	0.53460 0.22860 0.85520 0.04200
C 	C 	0.59810 0.23240 0.76940 -0.64500
H 	H 	0.61310 0.21640 0.73650 0.19700
H 	H 	0.61460 0.25900 0.77940 0.17900
H 	H 	0.56840 0.24040 0.75600 0.15900
N 	N 	0.88540 0.99250 0.42120 -0.29100
C 	C 	0.86190 0.02390 0.40060 0.07500
H 	H 	0.85590 0.04780 0.42720 -0.07900
C 	C 	0.84470 0.02550 0.34290 -0.23900
H 	H 	0.82640 0.04960 0.33210 0.04400
C 	C 	0.85250 0.99440 0.30100 0.05200
C 	C 	0.88230 0.96180 0.31910 -0.26300
H 	H 	0.89310 0.94060 0.29100 0.06300
C 	C 	0.89530 0.96200 0.37940 0.01000
H 	H 	0.91300 0.93810 0.39260 -0.05300
C 	C 	0.83480 0.99460 0.23700 -0.14700
C 	C 	0.82440 0.03370 0.20700 0.03100
H 	H 	0.82830 0.06080 0.22780 0.00000
C 	C 	0.80870 0.03390 0.14840 -0.16300
C 	C 	0.80090 0.99380 0.12010 0.04800
H 	H 	0.78790 0.99330 0.08060 0.01000
C 	C 	0.81160 0.95480 0.14820 -0.17000
C 	C 	0.82750 0.95530 0.20570 -0.00600
H 	H 	0.83400 0.92820 0.22530 -0.04800
C 	C 	0.79930 0.07660 0.11620 0.37200
C 	C 	0.80450 0.91150 0.11470 0.34800
Co	Co	0.82781 0.81682 0.89491 1.12300
S 	S 	0.78368 0.76894 0.82287 -0.18600
O 	O 	0.83672 0.75871 0.93550 -0.51000
O 	O 	0.92730 0.77798 0.06610 -0.49200
O 	O 	0.88907 0.81290 0.14080 -0.49500
O 	O 	0.08638 0.78232 0.06550 -0.50700
O 	O 	0.12223 0.82042 0.13980 -0.52400
O 	O 	0.76870 0.82080 0.93800 -0.27400
C 	C 	0.73270 0.81090 0.91060 0.21700
C 	C 	0.73240 0.78510 0.85670 0.45700
C 	C 	0.69330 0.77540 0.82670 1.96700
H 	H 	0.69430 0.75830 0.79040 -0.73900
C 	C 	0.65260 0.79000 0.84820 -1.97100
C 	C 	0.65280 0.81370 0.90250 0.74200
H 	H 	0.62570 0.82320 0.91940 -0.27700
C 	C 	0.69180 0.82380 0.93290 0.08600
C 	C 	0.61110 0.78240 0.81180 4.11100
C 	C 	0.61650 0.76660 0.74760 -3.68500
H 	H 	0.63460 0.78750 0.72460 0.98400
H 	H 	0.63080 0.73780 0.74770 1.01000
H 	H 	0.58760 0.76410 0.72820 1.04300
C 	C 	0.58300 0.74760 0.84140 -11.51500
H 	H 	0.57770 0.75530 0.88430 3.62600
H 	H 	0.55490 0.74550 0.81980 3.36600
H 	H 	0.59810 0.71920 0.83930 2.48900
C 	C 	0.58240 0.82350 0.80910 -5.41500
H 	H 	0.57810 0.83490 0.85060 1.42400
H 	H 	0.59690 0.84580 0.78400 1.51100
H 	H 	0.55390 0.81610 0.79120 1.41900
O 	O 	0.76900 0.82400 0.93000 -0.20000
C 	C 	0.73200 0.80220 0.91200 0.00600
C 	C 	0.73200 0.77290 0.86600 -0.75700
C 	C 	0.69580 0.75240 0.84840 -0.98800
H 	H 	0.69740 0.73310 0.81430 0.31900
C 	C 	0.65530 0.75750 0.87740 -0.81100
C 	C 	0.65550 0.78870 0.92250 0.21400
H 	H 	0.62830 0.79590 0.94130 -0.11800
C 	C 	0.69130 0.80960 0.94200 -0.33600
C 	C 	0.61250 0.73420 0.86540 5.39200
C 	C 	0.62560 0.68930 0.84200 -7.11600
H 	H 	0.59920 0.67210 0.83300 1.93100
H 	H 	0.64300 0.69260 0.80440 1.98600
H 	H 	0.64320 0.67410 0.87290 2.06400
C 	C 	0.59390 0.71580 0.92500 -4.98400
H 	H 	0.56610 0.70070 0.91660 1.34600
H 	H 	0.61480 0.69490 0.94280 1.37100
H 	H 	0.58870 0.73990 0.95390 1.28800
C 	C 	0.57490 0.76730 0.87100 -0.64300
H 	H 	0.54690 0.75250 0.86290 0.25300
H 	H 	0.57460 0.78000 0.91180 -1.02800
H 	H 	0.57900 0.79080 0.84050 1.44400
C 	C 	0.82700 0.72080 0.90970 0.16500
C 	C 	0.80030 0.71810 0.85760 -0.02900
C 	C 	0.79040 0.67850 0.83160 -0.00400
H 	H 	0.77260 0.67780 0.79590 0.01600
C 	C 	0.80580 0.63880 0.85600 -0.13800
C 	C 	0.83200 0.64080 0.90700 -0.00800
H 	H 	0.84350 0.61440 0.92380 0.02100
C 	C 	0.84200 0.68110 0.93460 -0.00300
C 	C 	0.79650 0.59510 0.82510 0.37000
C 	C 	0.83800 0.57170 0.80660 -0.57500
H 	H 	0.83050 0.54290 0.78930 0.09800
H 	H 	0.85680 0.56770 0.84250 0.15100
H 	H 	0.85360 0.58920 0.77580 0.15600
C 	C 	0.77530 0.56380 0.87320 -0.50700
H 	H 	0.74670 0.57550 0.88580 0.12600
H 	H 	0.79460 0.56160 0.90900 0.13700
H 	H 	0.77140 0.53460 0.85520 0.04200
C 	C 	0.76760 0.59810 0.76940 -0.64500
H 	H 	0.78360 0.61310 0.73650 0.19700
H 	H 	0.74100 0.61460 0.77940 0.17900
H 	H 	0.75960 0.56840 0.75600 0.15900
N 	N 	0.00750 0.88540 0.42120 -0.29100
C 	C 	0.97610 0.86190 0.40060 0.07500
H 	H 	0.95220 0.85590 0.42720 -0.07900
C 	C 	0.97450 0.84470 0.34290 -0.23900
H 	H 	0.95040 0.82640 0.33210 0.04400
C 	C 	0.00560 0.85250 0.30100 0.05200
C 	C 	0.03820 0.88230 0.31910 -0.26300
H 	H 	0.05940 0.89310 0.29100 0.06300
C 	C 	0.03800 0.89530 0.37940 0.01000
H 	H 	0.06190 0.91300 0.39260 -0.05300
C 	C 	0.00540 0.83480 0.23700 -0.14700
C 	C 	0.96630 0.82440 0.20700 0.03100
H 	H 	0.93920 0.82830 0.22780 0.00000
C 	C 	0.96610 0.80870 0.14840 -0.16300
C 	C 	0.00620 0.80090 0.12010 0.04800
H 	H 	0.00670 0.78790 0.08060 0.01000
C 	C 	0.04520 0.81160 0.14820 -0.17000
C 	C 	0.04470 0.82750 0.20570 -0.00600
H 	H 	0.07180 0.83400 0.22530 -0.04800
C 	C 	0.92340 0.79930 0.11620 0.37200
C 	C 	0.08850 0.80450 0.11470 0.34800
Co	Co	0.17219 0.18318 0.89491 1.12300
S 	S 	0.21632 0.23106 0.82287 -0.18600
O 	O 	0.16328 0.24129 0.93550 -0.51000
O 	O 	0.07270 0.22202 0.06610 -0.49200
O 	O 	0.11093 0.18710 0.14080 -0.49500
O 	O 	0.91362 0.21768 0.06550 -0.50700
O 	O 	0.87777 0.17958 0.13980 -0.52400
O 	O 	0.23130 0.17920 0.93800 -0.27400
C 	C 	0.26730 0.18910 0.91060 0.21700
C 	C 	0.26760 0.21490 0.85670 0.45700
C 	C 	0.30670 0.22460 0.82670 1.96700
H 	H 	0.30570 0.24170 0.79040 -0.73900
C 	C 	0.34740 0.21000 0.84820 -1.97100
C 	C 	0.34720 0.18630 0.90250 0.74200
H 	H 	0.37430 0.17680 0.91940 -0.27700
C 	C 	0.30820 0.17620 0.93290 0.08600
C 	C 	0.38890 0.21760 0.81180 4.11100
C 	C 	0.38350 0.23340 0.74760 -3.68500
H 	H 	0.36540 0.21250 0.72460 0.98400
H 	H 	0.36920 0.26220 0.74770 1.01000
H 	H 	0.41240 0.23590 0.72820 1.04300
C 	C 	0.41700 0.25240 0.84140 -11.51500
H 	H 	0.42230 0.24470 0.88430 3.62600
H 	H 	0.44510 0.25450 0.81980 3.36600
H 	H 	0.40190 0.28080 0.83930 2.48900
C 	C 	0.41760 0.17650 0.80910 -5.41500
H 	H 	0.42190 0.16510 0.85060 1.42400
H 	H 	0.40310 0.15420 0.78400 1.51100
H 	H 	0.44610 0.18390 0.79120 1.41900
O 	O 	0.23100 0.17600 0.93000 -0.20000
C 	C 	0.26800 0.19780 0.91200 0.00600
C 	C 	0.26800 0.22710 0.86600 -0.75700
C 	C 	0.30420 0.24760 0.84840 -0.98800
H 	H 	0.30260 0.26690 0.81430 0.31900
C 	C 	0.34470 0.24250 0.87740 -0.81100
C 	C 	0.34450 0.21130 0.92250 0.21400
H 	H 	0.37170 0.20410 0.94130 -0.11800
C 	C 	0.30870 0.19040 0.94200 -0.33600
C 	C 	0.38750 0.26580 0.86540 5.39200
C 	C 	0.37440 0.31070 0.84200 -7.11600
H 	H 	0.40080 0.32790 0.83300 1.93100
H 	H 	0.35700 0.30740 0.80440 1.98600
H 	H 	0.35680 0.32590 0.87290 2.06400
C 	C 	0.40610 0.28420 0.92500 -4.98400
H 	H 	0.43390 0.29930 0.91660 1.34600
H 	H 	0.38520 0.30510 0.94280 1.37100
H 	H 	0.41130 0.26010 0.95390 1.28800
C 	C 	0.42510 0.23270 0.87100 -0.64300
H 	H 	0.45310 0.24750 0.86290 0.25300
H 	H 	0.42540 0.22000 0.91180 -1.02800
H 	H 	0.42100 0.20920 0.84050 1.44400
C 	C 	0.17300 0.27920 0.90970 0.16500
C 	C 	0.19970 0.28190 0.85760 -0.02900
C 	C 	0.20960 0.32150 0.83160 -0.00400
H 	H 	0.22740 0.32220 0.79590 0.01600
C 	C 	0.19420 0.36120 0.85600 -0.13800
C 	C 	0.16800 0.35920 0.90700 -0.00800
H 	H 	0.15650 0.38560 0.92380 0.02100
C 	C 	0.15800 0.31890 0.93460 -0.00300
C 	C 	0.20350 0.40490 0.82510 0.37000
C 	C 	0.16200 0.42830 0.80660 -0.57500
H 	H 	0.16950 0.45710 0.78930 0.09800
H 	H 	0.14320 0.43230 0.84250 0.15100
H 	H 	0.14640 0.41080 0.77580 0.15600
C 	C 	0.22470 0.43620 0.87320 -0.50700
H 	H 	0.25330 0.42450 0.88580 0.12600
H 	H 	0.20540 0.43840 0.90900 0.13700
H 	H 	0.22860 0.46540 0.85520 0.04200
C 	C 	0.23240 0.40190 0.76940 -0.64500
H 	H 	0.21640 0.38690 0.73650 0.19700
H 	H 	0.25900 0.38540 0.77940 0.17900
H 	H 	0.24040 0.43160 0.75600 0.15900
N 	N 	0.99250 0.11460 0.42120 -0.29100
C 	C 	0.02390 0.13810 0.40060 0.07500
H 	H 	0.04780 0.14410 0.42720 -0.07900
C 	C 	0.02550 0.15530 0.34290 -0.23900
H 	H 	0.04960 0.17360 0.33210 0.04400
C 	C 	0.99440 0.14750 0.30100 0.05200
C 	C 	0.96180 0.11770 0.31910 -0.26300
H 	H 	0.94060 0.10690 0.29100 0.06300
C 	C 	0.96200 0.10470 0.37940 0.01000
H 	H 	0.93810 0.08700 0.39260 -0.05300
C 	C 	0.99460 0.16520 0.23700 -0.14700
C 	C 	0.03370 0.17560 0.20700 0.03100
H 	H 	0.06080 0.17170 0.22780 0.00000
C 	C 	0.03390 0.19130 0.14840 -0.16300
C 	C 	0.99380 0.19910 0.12010 0.04800
H 	H 	0.99330 0.21210 0.08060 0.01000
C 	C 	0.95480 0.18840 0.14820 -0.17000
C 	C 	0.95530 0.17250 0.20570 -0.00600
H 	H 	0.92820 0.16600 0.22530 -0.04800
C 	C 	0.07660 0.20070 0.11620 0.37200
C 	C 	0.91150 0.19550 0.11470 0.34800
Co	Co	0.81682 0.17219 0.10509 1.11400
S 	S 	0.76894 0.21632 0.17713 -0.18000
O 	O 	0.75871 0.16328 0.06450 -0.56200
O 	O 	0.77798 0.07270 0.93390 -0.43700
O 	O 	0.81290 0.11093 0.85920 -0.48200
O 	O 	0.78232 0.91362 0.93450 -0.45200
O 	O 	0.82042 0.87777 0.86020 -0.51300
O 	O 	0.82080 0.23130 0.06200 -0.27800
C 	C 	0.81090 0.26730 0.08940 0.19300
C 	C 	0.78510 0.26760 0.14330 0.37400
C 	C 	0.77540 0.30670 0.17330 1.75400
H 	H 	0.75830 0.30570 0.20960 -0.66100
C 	C 	0.79000 0.34740 0.15180 -1.82400
C 	C 	0.81370 0.34720 0.09750 0.71600
H 	H 	0.82320 0.37430 0.08060 -0.28200
C 	C 	0.82380 0.30820 0.06710 0.02300
C 	C 	0.78240 0.38890 0.18820 3.90500
C 	C 	0.76660 0.38350 0.25240 -3.51500
H 	H 	0.78750 0.36540 0.27540 0.93700
H 	H 	0.73780 0.36920 0.25230 0.96400
H 	H 	0.76410 0.41240 0.27180 0.99600
C 	C 	0.74760 0.41700 0.15860 -10.98900
H 	H 	0.75530 0.42230 0.11570 3.46100
H 	H 	0.74550 0.44510 0.18020 3.21300
H 	H 	0.71920 0.40190 0.16070 2.38200
C 	C 	0.82350 0.41760 0.19090 -5.15300
H 	H 	0.83490 0.42190 0.14940 1.34200
H 	H 	0.84580 0.40310 0.21600 1.43100
H 	H 	0.81610 0.44610 0.20880 1.34600
O 	O 	0.82400 0.23100 0.07000 -0.23400
C 	C 	0.80220 0.26800 0.08800 0.02700
C 	C 	0.77290 0.26800 0.13400 -0.67300
C 	C 	0.75240 0.30420 0.15160 -0.82800
H 	H 	0.73310 0.30260 0.18570 0.26200
C 	C 	0.75750 0.34470 0.12260 -0.83200
C 	C 	0.78870 0.34450 0.07750 0.19600
H 	H 	0.79590 0.37170 0.05870 -0.13500
C 	C 	0.80960 0.30870 0.05800 -0.32600
C 	C 	0.73420 0.38750 0.13460 5.13500
C 	C 	0.68930 0.37440 0.15800 -6.79700
H 	H 	0.67210 0.40080 0.16700 1.84300
H 	H 	0.69260 0.35700 0.19560 1.89700
H 	H 	0.67410 0.35680 0.12710 1.96100
C 	C 	0.71580 0.40610 0.07500 -4.68200
H 	H 	0.70070 0.43390 0.08340 1.24300
H 	H 	0.69490 0.38520 0.05720 1.24700
H 	H 	0.73990 0.41130 0.04610 1.16000
C 	C 	0.76730 0.42510 0.12900 -0.61100
H 	H 	0.75250 0.45310 0.13710 0.23400
H 	H 	0.78000 0.42540 0.08820 -0.99700
H 	H 	0.79080 0.42100 0.15950 1.38000
C 	C 	0.72080 0.17300 0.09030 0.18300
C 	C 	0.71810 0.19970 0.14240 -0.05200
C 	C 	0.67850 0.20960 0.16840 0.00500
H 	H 	0.67780 0.22740 0.20410 0.01200
C 	C 	0.63880 0.19420 0.14400 -0.15400
C 	C 	0.64080 0.16800 0.09300 0.01400
H 	H 	0.61440 0.15650 0.07620 -0.01600
C 	C 	0.68110 0.15800 0.06540 -0.08600
C 	C 	0.59510 0.20350 0.17490 0.35300
C 	C 	0.57170 0.16200 0.19340 -0.55000
H 	H 	0.54290 0.16950 0.21070 0.09000
H 	H 	0.56770 0.14320 0.15750 0.13300
H 	H 	0.58920 0.14640 0.22420 0.14700
C 	C 	0.56380 0.22470 0.12680 -0.46300
H 	H 	0.57550 0.25330 0.11420 0.09700
H 	H 	0.56160 0.20540 0.09100 0.09900
H 	H 	0.53460 0.22860 0.14480 0.02700
C 	C 	0.59810 0.23240 0.23060 -0.63200
H 	H 	0.61310 0.21640 0.26350 0.19400
H 	H 	0.61460 0.25900 0.22060 0.17400
H 	H 	0.56840 0.24040 0.24400 0.15700
N 	N 	0.88540 0.99250 0.57880 -0.29000
C 	C 	0.86190 0.02390 0.59940 0.07400
H 	H 	0.85590 0.04780 0.57280 -0.07900
C 	C 	0.84470 0.02550 0.65710 -0.23500
H 	H 	0.82640 0.04960 0.66790 0.04300
C 	C 	0.85250 0.99440 0.69900 0.04800
C 	C 	0.88230 0.96180 0.68090 -0.26000
H 	H 	0.89310 0.94060 0.70900 0.06500
C 	C 	0.89530 0.96200 0.62060 0.00900
H 	H 	0.91300 0.93810 0.60740 -0.05200
C 	C 	0.83480 0.99460 0.76300 -0.13300
C 	C 	0.82440 0.03370 0.79300 0.01900
H 	H 	0.82830 0.06080 0.77220 0.00600
C 	C 	0.80870 0.03390 0.85160 -0.13700
C 	C 	0.80090 0.99380 0.87990 0.03300
H 	H 	0.78790 0.99330 0.91940 0.04300
C 	C 	0.81160 0.95480 0.85180 -0.14400
C 	C 	0.82750 0.95530 0.79430 -0.01800
H 	H 	0.83400 0.92820 0.77470 -0.04200
C 	C 	0.79930 0.07660 0.88380 0.36400
C 	C 	0.80450 0.91150 0.88530 0.34000
Co	Co	0.18318 0.82781 0.10509 1.11400
S 	S 	0.23106 0.78368 0.17713 -0.18000
O 	O 	0.24129 0.83672 0.06450 -0.56200
O 	O 	0.22202 0.92730 0.93390 -0.43700
O 	O 	0.18710 0.88907 0.85920 -0.48200
O 	O 	0.21768 0.08638 0.93450 -0.45200
O 	O 	0.17958 0.12223 0.86020 -0.51300
O 	O 	0.17920 0.76870 0.06200 -0.27800
C 	C 	0.18910 0.73270 0.08940 0.19300
C 	C 	0.21490 0.73240 0.14330 0.37400
C 	C 	0.22460 0.69330 0.17330 1.75400
H 	H 	0.24170 0.69430 0.20960 -0.66100
C 	C 	0.21000 0.65260 0.15180 -1.82400
C 	C 	0.18630 0.65280 0.09750 0.71600
H 	H 	0.17680 0.62570 0.08060 -0.28200
C 	C 	0.17620 0.69180 0.06710 0.02300
C 	C 	0.21760 0.61110 0.18820 3.90500
C 	C 	0.23340 0.61650 0.25240 -3.51500
H 	H 	0.21250 0.63460 0.27540 0.93700
H 	H 	0.26220 0.63080 0.25230 0.96400
H 	H 	0.23590 0.58760 0.27180 0.99600
C 	C 	0.25240 0.58300 0.15860 -10.98900
H 	H 	0.24470 0.57770 0.11570 3.46100
H 	H 	0.25450 0.55490 0.18020 3.21300
H 	H 	0.28080 0.59810 0.16070 2.38200
C 	C 	0.17650 0.58240 0.19090 -5.15300
H 	H 	0.16510 0.57810 0.14940 1.34200
H 	H 	0.15420 0.59690 0.21600 1.43100
H 	H 	0.18390 0.55390 0.20880 1.34600
O 	O 	0.17600 0.76900 0.07000 -0.23400
C 	C 	0.19780 0.73200 0.08800 0.02700
C 	C 	0.22710 0.73200 0.13400 -0.67300
C 	C 	0.24760 0.69580 0.15160 -0.82800
H 	H 	0.26690 0.69740 0.18570 0.26200
C 	C 	0.24250 0.65530 0.12260 -0.83200
C 	C 	0.21130 0.65550 0.07750 0.19600
H 	H 	0.20410 0.62830 0.05870 -0.13500
C 	C 	0.19040 0.69130 0.05800 -0.32600
C 	C 	0.26580 0.61250 0.13460 5.13500
C 	C 	0.31070 0.62560 0.15800 -6.79700
H 	H 	0.32790 0.59920 0.16700 1.84300
H 	H 	0.30740 0.64300 0.19560 1.89700
H 	H 	0.32590 0.64320 0.12710 1.96100
C 	C 	0.28420 0.59390 0.07500 -4.68200
H 	H 	0.29930 0.56610 0.08340 1.24300
H 	H 	0.30510 0.61480 0.05720 1.24700
H 	H 	0.26010 0.58870 0.04610 1.16000
C 	C 	0.23270 0.57490 0.12900 -0.61100
H 	H 	0.24750 0.54690 0.13710 0.23400
H 	H 	0.22000 0.57460 0.08820 -0.99700
H 	H 	0.20920 0.57900 0.15950 1.38000
C 	C 	0.27920 0.82700 0.09030 0.18300
C 	C 	0.28190 0.80030 0.14240 -0.05200
C 	C 	0.32150 0.79040 0.16840 0.00500
H 	H 	0.32220 0.77260 0.20410 0.01200
C 	C 	0.36120 0.80580 0.14400 -0.15400
C 	C 	0.35920 0.83200 0.09300 0.01400
H 	H 	0.38560 0.84350 0.07620 -0.01600
C 	C 	0.31890 0.84200 0.06540 -0.08600
C 	C 	0.40490 0.79650 0.17490 0.35300
C 	C 	0.42830 0.83800 0.19340 -0.55000
H 	H 	0.45710 0.83050 0.21070 0.09000
H 	H 	0.43230 0.85680 0.15750 0.13300
H 	H 	0.41080 0.85360 0.22420 0.14700
C 	C 	0.43620 0.77530 0.12680 -0.46300
H 	H 	0.42450 0.74670 0.11420 0.09700
H 	H 	0.43840 0.79460 0.09100 0.09900
H 	H 	0.46540 0.77140 0.14480 0.02700
C 	C 	0.40190 0.76760 0.23060 -0.63200
H 	H 	0.38690 0.78360 0.26350 0.19400
H 	H 	0.38540 0.74100 0.22060 0.17400
H 	H 	0.43160 0.75960 0.24400 0.15700
N 	N 	0.11460 0.00750 0.57880 -0.29000
C 	C 	0.13810 0.97610 0.59940 0.07400
H 	H 	0.14410 0.95220 0.57280 -0.07900
C 	C 	0.15530 0.97450 0.65710 -0.23500
H 	H 	0.17360 0.95040 0.66790 0.04300
C 	C 	0.14750 0.00560 0.69900 0.04800
C 	C 	0.11770 0.03820 0.68090 -0.26000
H 	H 	0.10690 0.05940 0.70900 0.06500
C 	C 	0.10470 0.03800 0.62060 0.00900
H 	H 	0.08700 0.06190 0.60740 -0.05200
C 	C 	0.16520 0.00540 0.76300 -0.13300
C 	C 	0.17560 0.96630 0.79300 0.01900
H 	H 	0.17170 0.93920 0.77220 0.00600
C 	C 	0.19130 0.96610 0.85160 -0.13700
C 	C 	0.19910 0.00620 0.87990 0.03300
H 	H 	0.21210 0.00670 0.91940 0.04300
C 	C 	0.18840 0.04520 0.85180 -0.14400
C 	C 	0.17250 0.04470 0.79430 -0.01800
H 	H 	0.16600 0.07180 0.77470 -0.04200
C 	C 	0.20070 0.92340 0.88380 0.36400
C 	C 	0.19550 0.08850 0.88530 0.34000
Co	Co	0.17219 0.18318 0.10509 1.11400
S 	S 	0.21632 0.23106 0.17713 -0.18000
O 	O 	0.16328 0.24129 0.06450 -0.56200
O 	O 	0.07270 0.22202 0.93390 -0.43700
O 	O 	0.11093 0.18710 0.85920 -0.48200
O 	O 	0.91362 0.21768 0.93450 -0.45200
O 	O 	0.87777 0.17958 0.86020 -0.51300
O 	O 	0.23130 0.17920 0.06200 -0.27800
C 	C 	0.26730 0.18910 0.08940 0.19300
C 	C 	0.26760 0.21490 0.14330 0.37400
C 	C 	0.30670 0.22460 0.17330 1.75400
H 	H 	0.30570 0.24170 0.20960 -0.66100
C 	C 	0.34740 0.21000 0.15180 -1.82400
C 	C 	0.34720 0.18630 0.09750 0.71600
H 	H 	0.37430 0.17680 0.08060 -0.28200
C 	C 	0.30820 0.17620 0.06710 0.02300
C 	C 	0.38890 0.21760 0.18820 3.90500
C 	C 	0.38350 0.23340 0.25240 -3.51500
H 	H 	0.36540 0.21250 0.27540 0.93700
H 	H 	0.36920 0.26220 0.25230 0.96400
H 	H 	0.41240 0.23590 0.27180 0.99600
C 	C 	0.41700 0.25240 0.15860 -10.98900
H 	H 	0.42230 0.24470 0.11570 3.46100
H 	H 	0.44510 0.25450 0.18020 3.21300
H 	H 	0.40190 0.28080 0.16070 2.38200
C 	C 	0.41760 0.17650 0.19090 -5.15300
H 	H 	0.42190 0.16510 0.14940 1.34200
H 	H 	0.40310 0.15420 0.21600 1.43100
H 	H 	0.44610 0.18390 0.20880 1.34600
O 	O 	0.23100 0.17600 0.07000 -0.23400
C 	C 	0.26800 0.19780 0.08800 0.02700
C 	C 	0.26800 0.22710 0.13400 -0.67300
C 	C 	0.30420 0.24760 0.15160 -0.82800
H 	H 	0.30260 0.26690 0.18570 0.26200
C 	C 	0.34470 0.24250 0.12260 -0.83200
C 	C 	0.34450 0.21130 0.07750 0.19600
H 	H 	0.37170 0.20410 0.05870 -0.13500
C 	C 	0.30870 0.19040 0.05800 -0.32600
C 	C 	0.38750 0.26580 0.13460 5.13500
C 	C 	0.37440 0.31070 0.15800 -6.79700
H 	H 	0.40080 0.32790 0.16700 1.84300
H 	H 	0.35700 0.30740 0.19560 1.89700
H 	H 	0.35680 0.32590 0.12710 1.96100
C 	C 	0.40610 0.28420 0.07500 -4.68200
H 	H 	0.43390 0.29930 0.08340 1.24300
H 	H 	0.38520 0.30510 0.05720 1.24700
H 	H 	0.41130 0.26010 0.04610 1.16000
C 	C 	0.42510 0.23270 0.12900 -0.61100
H 	H 	0.45310 0.24750 0.13710 0.23400
H 	H 	0.42540 0.22000 0.08820 -0.99700
H 	H 	0.42100 0.20920 0.15950 1.38000
C 	C 	0.17300 0.27920 0.09030 0.18300
C 	C 	0.19970 0.28190 0.14240 -0.05200
C 	C 	0.20960 0.32150 0.16840 0.00500
H 	H 	0.22740 0.32220 0.20410 0.01200
C 	C 	0.19420 0.36120 0.14400 -0.15400
C 	C 	0.16800 0.35920 0.09300 0.01400
H 	H 	0.15650 0.38560 0.07620 -0.01600
C 	C 	0.15800 0.31890 0.06540 -0.08600
C 	C 	0.20350 0.40490 0.17490 0.35300
C 	C 	0.16200 0.42830 0.19340 -0.55000
H 	H 	0.16950 0.45710 0.21070 0.09000
H 	H 	0.14320 0.43230 0.15750 0.13300
H 	H 	0.14640 0.41080 0.22420 0.14700
C 	C 	0.22470 0.43620 0.12680 -0.46300
H 	H 	0.25330 0.42450 0.11420 0.09700
H 	H 	0.20540 0.43840 0.09100 0.09900
H 	H 	0.22860 0.46540 0.14480 0.02700
C 	C 	0.23240 0.40190 0.23060 -0.63200
H 	H 	0.21640 0.38690 0.26350 0.19400
H 	H 	0.25900 0.38540 0.22060 0.17400
H 	H 	0.24040 0.43160 0.24400 0.15700
N 	N 	0.99250 0.11460 0.57880 -0.29000
C 	C 	0.02390 0.13810 0.59940 0.07400
H 	H 	0.04780 0.14410 0.57280 -0.07900
C 	C 	0.02550 0.15530 0.65710 -0.23500
H 	H 	0.04960 0.17360 0.66790 0.04300
C 	C 	0.99440 0.14750 0.69900 0.04800
C 	C 	0.96180 0.11770 0.68090 -0.26000
H 	H 	0.94060 0.10690 0.70900 0.06500
C 	C 	0.96200 0.10470 0.62060 0.00900
H 	H 	0.93810 0.08700 0.60740 -0.05200
C 	C 	0.99460 0.16520 0.76300 -0.13300
C 	C 	0.03370 0.17560 0.79300 0.01900
H 	H 	0.06080 0.17170 0.77220 0.00600
C 	C 	0.03390 0.19130 0.85160 -0.13700
C 	C 	0.99380 0.19910 0.87990 0.03300
H 	H 	0.99330 0.21210 0.91940 0.04300
C 	C 	0.95480 0.18840 0.85180 -0.14400
C 	C 	0.95530 0.17250 0.79430 -0.01800
H 	H 	0.92820 0.16600 0.77470 -0.04200
C 	C 	0.07660 0.20070 0.88380 0.36400
C 	C 	0.91150 0.19550 0.88530 0.34000
Co	Co	0.82781 0.81682 0.10509 1.11400
S 	S 	0.78368 0.76894 0.17713 -0.18000
O 	O 	0.83672 0.75871 0.06450 -0.56200
O 	O 	0.92730 0.77798 0.93390 -0.43700
O 	O 	0.88907 0.81290 0.85920 -0.48200
O 	O 	0.08638 0.78232 0.93450 -0.45200
O 	O 	0.12223 0.82042 0.86020 -0.51300
O 	O 	0.76870 0.82080 0.06200 -0.27800
C 	C 	0.73270 0.81090 0.08940 0.19300
C 	C 	0.73240 0.78510 0.14330 0.37400
C 	C 	0.69330 0.77540 0.17330 1.75400
H 	H 	0.69430 0.75830 0.20960 -0.66100
C 	C 	0.65260 0.79000 0.15180 -1.82400
C 	C 	0.65280 0.81370 0.09750 0.71600
H 	H 	0.62570 0.82320 0.08060 -0.28200
C 	C 	0.69180 0.82380 0.06710 0.02300
C 	C 	0.61110 0.78240 0.18820 3.90500
C 	C 	0.61650 0.76660 0.25240 -3.51500
H 	H 	0.63460 0.78750 0.27540 0.93700
H 	H 	0.63080 0.73780 0.25230 0.96400
H 	H 	0.58760 0.76410 0.27180 0.99600
C 	C 	0.58300 0.74760 0.15860 -10.98900
H 	H 	0.57770 0.75530 0.11570 3.46100
H 	H 	0.55490 0.74550 0.18020 3.21300
H 	H 	0.59810 0.71920 0.16070 2.38200
C 	C 	0.58240 0.82350 0.19090 -5.15300
H 	H 	0.57810 0.83490 0.14940 1.34200
H 	H 	0.59690 0.84580 0.21600 1.43100
H 	H 	0.55390 0.81610 0.20880 1.34600
O 	O 	0.76900 0.82400 0.07000 -0.23400
C 	C 	0.73200 0.80220 0.08800 0.02700
C 	C 	0.73200 0.77290 0.13400 -0.67300
C 	C 	0.69580 0.75240 0.15160 -0.82800
H 	H 	0.69740 0.73310 0.18570 0.26200
C 	C 	0.65530 0.75750 0.12260 -0.83200
C 	C 	0.65550 0.78870 0.07750 0.19600
H 	H 	0.62830 0.79590 0.05870 -0.13500
C 	C 	0.69130 0.80960 0.05800 -0.32600
C 	C 	0.61250 0.73420 0.13460 5.13500
C 	C 	0.62560 0.68930 0.15800 -6.79700
H 	H 	0.59920 0.67210 0.16700 1.84300
H 	H 	0.64300 0.69260 0.19560 1.89700
H 	H 	0.64320 0.67410 0.12710 1.96100
C 	C 	0.59390 0.71580 0.07500 -4.68200
H 	H 	0.56610 0.70070 0.08340 1.24300
H 	H 	0.61480 0.69490 0.05720 1.24700
H 	H 	0.58870 0.73990 0.04610 1.16000
C 	C 	0.57490 0.76730 0.12900 -0.61100
H 	H 	0.54690 0.75250 0.13710 0.23400
H 	H 	0.57460 0.78000 0.08820 -0.99700
H 	H 	0.57900 0.79080 0.15950 1.38000
C 	C 	0.82700 0.72080 0.09030 0.18300
C 	C 	0.80030 0.71810 0.14240 -0.05200
C 	C 	0.79040 0.67850 0.16840 0.00500
H 	H 	0.77260 0.67780 0.20410 0.01200
C 	C 	0.80580 0.63880 0.14400 -0.15400
C 	C 	0.83200 0.64080 0.09300 0.01400
H 	H 	0.84350 0.61440 0.07620 -0.01600
C 	C 	0.84200 0.68110 0.06540 -0.08600
C 	C 	0.79650 0.59510 0.17490 0.35300
C 	C 	0.83800 0.57170 0.19340 -0.55000
H 	H 	0.83050 0.54290 0.21070 0.09000
H 	H 	0.85680 0.56770 0.15750 0.13300
H 	H 	0.85360 0.58920 0.22420 0.14700
C 	C 	0.77530 0.56380 0.12680 -0.46300
H 	H 	0.74670 0.57550 0.11420 0.09700
H 	H 	0.79460 0.56160 0.09100 0.09900
H 	H 	0.77140 0.53460 0.14480 0.02700
C 	C 	0.76760 0.59810 0.23060 -0.63200
H 	H 	0.78360 0.61310 0.26350 0.19400
H 	H 	0.74100 0.61460 0.22060 0.17400
H 	H 	0.75960 0.56840 0.24400 0.15700
N 	N 	0.00750 0.88540 0.57880 -0.29000
C 	C 	0.97610 0.86190 0.59940 0.07400
H 	H 	0.95220 0.85590 0.57280 -0.07900
C 	C 	0.97450 0.84470 0.65710 -0.23500
H 	H 	0.95040 0.82640 0.66790 0.04300
C 	C 	0.00560 0.85250 0.69900 0.04800
C 	C 	0.03820 0.88230 0.68090 -0.26000
H 	H 	0.05940 0.89310 0.70900 0.06500
C 	C 	0.03800 0.89530 0.62060 0.00900
H 	H 	0.06190 0.91300 0.60740 -0.05200
C 	C 	0.00540 0.83480 0.76300 -0.13300
C 	C 	0.96630 0.82440 0.79300 0.01900
H 	H 	0.93920 0.82830 0.77220 0.00600
C 	C 	0.96610 0.80870 0.85160 -0.13700
C 	C 	0.00620 0.80090 0.87990 0.03300
H 	H 	0.00670 0.78790 0.91940 0.04300
C 	C 	0.04520 0.81160 0.85180 -0.14400
C 	C 	0.04470 0.82750 0.79430 -0.01800
H 	H 	0.07180 0.83400 0.77470 -0.04200
C 	C 	0.92340 0.79930 0.88380 0.36400
C 	C 	0.08850 0.80450 0.88530 0.34000
Co	Co	0.13182 0.77322 -0.00000 1.08600
Co	Co	0.23388 0.88275 -0.00000 1.10100
S 	S 	0.14424 0.68951 -0.00000 -0.24100
S 	S 	0.31768 0.87793 -0.00000 -0.24800
Co	Co	0.86818 0.22678 -0.00000 1.08600
Co	Co	0.76612 0.11725 -0.00000 1.10100
S 	S 	0.85576 0.31049 -0.00000 -0.24100
S 	S 	0.68232 0.12207 -0.00000 -0.24800
Co	Co	0.77322 0.86818 -0.00000 1.08600
Co	Co	0.88275 0.76612 -0.00000 1.10100
S 	S 	0.68951 0.85576 -0.00000 -0.24100
S 	S 	0.87793 0.68232 -0.00000 -0.24800
Co	Co	0.22678 0.13182 -0.00000 1.08600
Co	Co	0.11725 0.23388 -0.00000 1.10100
S 	S 	0.31049 0.14424 -0.00000 -0.24100
S 	S 	0.12207 0.31768 -0.00000 -0.24800
Co	Co	0.07273 0.00503 0.50000 1.06000
O 	O 	0.06810 0.94140 0.50000 -0.76300
H 	H 	0.08670 0.91840 0.50000 0.19200
Co	Co	0.92727 0.99497 0.50000 1.06000
O 	O 	0.93190 0.05860 0.50000 -0.76300
H 	H 	0.91330 0.08160 0.50000 0.19200
Co	Co	0.00503 0.92727 0.50000 1.06000
O 	O 	0.94140 0.93190 0.50000 -0.76300
H 	H 	0.91840 0.91330 0.50000 0.19200
Co	Co	0.99497 0.07273 0.50000 1.06000
O 	O 	0.05860 0.06810 0.50000 -0.76300
H 	H 	0.08160 0.08670 0.50000 0.19200
