data_crystal

_cell_length_a 42.15890
_cell_length_b 42.15890
_cell_length_c 52.56820
_cell_angle_alpha 90.00000
_cell_angle_beta  90.00000
_cell_angle_gamma 120.00000

_symmetry_space_group_name_	'P 1'
_symmetry_space_group_name_H-M	'P 1'

loop_
_symmetry_equiv_pos_as_xyz
  x,y,z

loop_
_atom_site_label
_atom_site_type_symbol
_atom_site_fract_x
_atom_site_fract_y
_atom_site_fract_z
_atom_site_charge
Zn	Zn	0.62313 0.53808 0.58314 1.21300
Zn	Zn	0.65557 0.61069 0.54962 1.21300
Zn	Zn	0.70774 0.58182 0.57130 1.21200
Zn	Zn	0.67294 0.61543 0.60823 1.21900
Zn	Zn	0.71073 0.73619 0.21973 1.21900
S 	S 	0.54509 0.55091 0.50030 -0.00800
S 	S 	0.51839 0.48556 0.53058 -0.02800
H 	H 	0.51510 0.46760 0.54280 0.05200
H 	H 	0.56260 0.58150 0.49210 0.03900
C 	C 	0.69593 0.85563 0.19052 -0.04400
S 	S 	0.66430 0.78941 0.16068 -0.06400
H 	H 	0.65730 0.76550 0.15470 0.06700
H 	H 	0.70880 0.87360 0.20320 0.06600
C 	C 	0.63405 0.82082 0.12675 -0.03400
S 	S 	0.66617 0.88609 0.15697 -0.04200
H 	H 	0.67410 0.90990 0.16350 0.05900
H 	H 	0.62130 0.80320 0.11390 0.05400
O 	O 	0.66487 0.58647 0.57794 -0.96100
O 	O 	0.60729 0.57980 0.53475 -0.50100
O 	O 	0.58505 0.52742 0.55787 -0.50000
O 	O 	0.60205 0.53511 0.61672 -0.51200
O 	O 	0.63684 0.58984 0.63376 -0.54000
O 	O 	0.67069 0.65973 0.60116 -0.53200
O 	O 	0.65875 0.65640 0.56025 -0.53200
O 	O 	0.69213 0.62215 0.52283 -0.52200
O 	O 	0.72630 0.60087 0.53756 -0.53300
O 	O 	0.69491 0.53047 0.57154 -0.52900
O 	O 	0.63640 0.50049 0.58185 -0.52900
O 	O 	0.74620 0.60818 0.59753 -0.49400
O 	O 	0.72005 0.63028 0.62265 -0.51200
O 	O 	0.72310 0.81862 0.22056 -0.47300
O 	O 	0.69634 0.76523 0.19875 -0.49800
O 	O 	0.78995 0.73774 0.28015 -0.53600
O 	O 	0.74015 0.72346 0.30123 -0.55800
O 	O 	0.66786 0.69146 0.22881 -0.56200
C 	C 	0.58430 0.54700 0.53997 0.39100
C 	C 	0.55160 0.52790 0.52579 -0.09200
C 	C 	0.50579 0.51476 0.49182 0.00800
C 	C 	0.66590 0.50130 0.57598 0.47300
C 	C 	0.66660 0.46640 0.57496 -0.29600
C 	C 	0.63890 0.43730 0.58360 0.22400
H 	H 	0.61920 0.43830 0.59160 -0.03000
C 	C 	0.63820 0.40450 0.58110 -0.26800
H 	H 	0.61610 0.38230 0.58440 0.12000
C 	C 	0.66750 0.40280 0.57416 0.19700
C 	C 	0.69550 0.43250 0.56530 -0.26000
H 	H 	0.71590 0.43180 0.55820 0.11700
C 	C 	0.69510 0.46580 0.56650 0.20900
H 	H 	0.71580 0.48790 0.56090 -0.02400
C 	C 	0.66690 0.36600 0.57310 -0.06700
C 	C 	0.69870 0.36540 0.57210 0.00000
H 	H 	0.72120 0.38780 0.57070 0.02400
C 	C 	0.61190 0.55880 0.63459 0.43800
C 	C 	0.58860 0.54520 0.65799 -0.14600
C 	C 	0.59440 0.57000 0.67630 0.05900
H 	H 	0.61120 0.59510 0.67320 0.02700
C 	C 	0.57590 0.55910 0.70004 -0.11800
H 	H 	0.57990 0.57610 0.71330 0.07100
C 	C 	0.55120 0.52130 0.70250 0.06300
C 	C 	0.54380 0.49430 0.68350 -0.11500
H 	H 	0.52640 0.46920 0.68600 0.07000
C 	C 	0.56410 0.50730 0.66056 0.05200
H 	H 	0.56120 0.49080 0.64730 0.02800
C 	C 	0.71810 0.61590 0.52030 0.47600
C 	C 	0.73930 0.62790 0.49781 -0.23300
C 	C 	0.73690 0.64950 0.47970 0.14500
H 	H 	0.72070 0.65880 0.48210 -0.00500
C 	C 	0.75790 0.65820 0.45769 -0.19600
H 	H 	0.75430 0.67250 0.44530 0.09600
C 	C 	0.78220 0.64850 0.45247 0.13300
C 	C 	0.78080 0.62310 0.47020 -0.16700
H 	H 	0.79430 0.61110 0.46620 0.08600
C 	C 	0.76120 0.61340 0.49351 0.11900
H 	H 	0.76340 0.59760 0.50550 0.00400
C 	C 	0.80400 0.65970 0.43047 -0.05800
C 	C 	0.79360 0.67010 0.40846 0.02100
H 	H 	0.77150 0.67080 0.40760 0.01300
C 	C 	0.81620 0.67920 0.38824 -0.11600
C 	C 	0.84990 0.68020 0.38850 0.01100
H 	H 	0.86540 0.68780 0.37400 0.01900
C 	C 	0.86010 0.66940 0.41115 -0.05300
C 	C 	0.83910 0.66050 0.43248 -0.01700
H 	H 	0.84680 0.65500 0.44800 0.03400
C 	C 	0.89460 0.66890 0.41276 0.14700
C 	C 	0.91020 0.67000 0.43550 -0.18400
H 	H 	0.90020 0.67360 0.45070 0.09300
C 	C 	0.94200 0.66560 0.43660 0.12500
H 	H 	0.95020 0.66170 0.45250 0.00500
C 	C 	0.95980 0.66710 0.41551 -0.22400
C 	C 	0.94540 0.66850 0.39327 0.14600
H 	H 	0.95750 0.66920 0.37780 -0.00200
C 	C 	0.91230 0.66900 0.39270 -0.20700
H 	H 	0.90240 0.66950 0.37660 0.10000
C 	C 	0.66528 0.67170 0.58148 0.47700
C 	C 	0.80590 0.69200 0.36500 0.31600
C 	C 	0.82510 0.70640 0.34490 -0.37000
H 	H 	0.84940 0.71050 0.34500 0.15200
C 	C 	0.81370 0.71660 0.32259 0.33400
H 	H 	0.83010 0.72660 0.30860 -0.05600
C 	C 	0.78280 0.71280 0.32106 -0.39900
C 	C 	0.76120 0.69440 0.33990 0.31100
H 	H 	0.73560 0.68540 0.33820 -0.05500
C 	C 	0.77420 0.68730 0.36250 -0.37200
H 	H 	0.75810 0.67850 0.37680 0.15100
C 	C 	0.77090 0.72720 0.29914 0.55500
C 	C 	0.70390 0.79670 0.20259 0.36900
C 	C 	0.68830 0.81430 0.18424 -0.04600
C 	C 	0.67150 0.85240 0.16525 0.01900
C 	C 	0.65710 0.82170 0.15127 0.02000
C 	C 	0.64100 0.86200 0.13243 -0.09000
C 	C 	0.74650 0.62560 0.61710 0.40300
C 	C 	0.60730 0.62520 0.23022 0.46500
H 	H 	0.62030 0.63460 0.21480 -0.10400
C 	C 	0.57330 0.59120 0.22928 -0.48700
H 	H 	0.56270 0.58030 0.21340 0.19100
C 	C 	0.52960 0.50620 0.72689 -0.00800
C 	C 	0.49400 0.47760 0.72706 -0.01200
H 	H 	0.48180 0.46750 0.71140 0.02500
Zn	Zn	0.46192 0.08505 0.58314 1.21200
Zn	Zn	0.38931 0.04488 0.54962 1.21200
Zn	Zn	0.41818 0.12592 0.57130 1.21100
Zn	Zn	0.38457 0.05751 0.60823 1.21800
Zn	Zn	0.26381 0.97454 0.21973 1.21800
S 	S 	0.44909 0.99418 0.50030 -0.00900
S 	S 	0.51444 0.03283 0.53058 -0.02900
H 	H 	0.53240 0.04750 0.54280 0.05100
H 	H 	0.41850 0.98110 0.49210 0.03800
C 	C 	0.14437 0.84030 0.19052 -0.04500
S 	S 	0.21059 0.87489 0.16068 -0.06500
H 	H 	0.23450 0.89180 0.15470 0.06600
H 	H 	0.12640 0.83520 0.20320 0.06500
C 	C 	0.17918 0.81323 0.12675 -0.03500
S 	S 	0.11391 0.78008 0.15697 -0.04300
H 	H 	0.09010 0.76420 0.16350 0.05800
H 	H 	0.19680 0.81810 0.11390 0.05300
O 	O 	0.41353 0.07840 0.57794 -0.96200
O 	O 	0.42020 0.02749 0.53475 -0.50200
O 	O 	0.47258 0.05763 0.55787 -0.50100
O 	O 	0.46489 0.06694 0.61672 -0.51300
O 	O 	0.41016 0.04700 0.63376 -0.54100
O 	O 	0.34027 0.01096 0.60116 -0.53300
O 	O 	0.34360 0.00235 0.56025 -0.53300
O 	O 	0.37785 0.06998 0.52283 -0.52300
O 	O 	0.39913 0.12543 0.53756 -0.53400
O 	O 	0.46953 0.16444 0.57154 -0.53000
O 	O 	0.49951 0.13591 0.58185 -0.53000
O 	O 	0.39182 0.13802 0.59753 -0.49500
O 	O 	0.36972 0.08977 0.62265 -0.51300
O 	O 	0.18138 0.90448 0.22056 -0.47400
O 	O 	0.23477 0.93111 0.19875 -0.49900
O 	O 	0.26226 0.05221 0.28015 -0.53700
O 	O 	0.27654 0.01669 0.30123 -0.55900
O 	O 	0.30854 0.97640 0.22881 -0.56300
C 	C 	0.45300 0.03730 0.53997 0.39000
C 	C 	0.47210 0.02370 0.52579 -0.09300
C 	C 	0.48524 0.99103 0.49182 0.00700
C 	C 	0.49870 0.16460 0.57598 0.47200
C 	C 	0.53360 0.20020 0.57496 -0.29700
C 	C 	0.56270 0.20160 0.58360 0.22300
H 	H 	0.56170 0.18090 0.59160 -0.03100
C 	C 	0.59550 0.23370 0.58110 -0.26900
H 	H 	0.61770 0.23380 0.58440 0.11900
C 	C 	0.59720 0.26470 0.57416 0.19600
C 	C 	0.56750 0.26300 0.56530 -0.26100
H 	H 	0.56820 0.28410 0.55820 0.11600
C 	C 	0.53420 0.22930 0.56650 0.20800
H 	H 	0.51210 0.22790 0.56090 -0.02500
C 	C 	0.63400 0.30090 0.57310 -0.06800
C 	C 	0.63460 0.33330 0.57210 -0.00100
H 	H 	0.61220 0.33340 0.57070 0.02300
C 	C 	0.44120 0.05310 0.63459 0.43700
C 	C 	0.45480 0.04340 0.65799 -0.14700
C 	C 	0.43000 0.02440 0.67630 0.05800
H 	H 	0.40490 0.01610 0.67320 0.02600
C 	C 	0.44090 0.01680 0.70004 -0.11900
H 	H 	0.42390 0.00380 0.71330 0.07000
C 	C 	0.47870 0.02990 0.70250 0.06200
C 	C 	0.50570 0.04950 0.68350 -0.11600
H 	H 	0.53080 0.05720 0.68600 0.06900
C 	C 	0.49270 0.05680 0.66056 0.05100
H 	H 	0.50920 0.07040 0.64730 0.02700
C 	C 	0.38410 0.10220 0.52030 0.47500
C 	C 	0.37210 0.11140 0.49781 -0.23400
C 	C 	0.35050 0.08740 0.47970 0.14400
H 	H 	0.34120 0.06190 0.48210 -0.00600
C 	C 	0.34180 0.09970 0.45769 -0.19700
H 	H 	0.32750 0.08180 0.44530 0.09500
C 	C 	0.35150 0.13370 0.45247 0.13200
C 	C 	0.37690 0.15770 0.47020 -0.16800
H 	H 	0.38890 0.18320 0.46620 0.08500
C 	C 	0.38660 0.14780 0.49351 0.11800
H 	H 	0.40240 0.16580 0.50550 0.00300
C 	C 	0.34030 0.14430 0.43047 -0.05900
C 	C 	0.32990 0.12350 0.40846 0.02000
H 	H 	0.32920 0.10070 0.40760 0.01200
C 	C 	0.32080 0.13700 0.38824 -0.11700
C 	C 	0.31980 0.16970 0.38850 0.01000
H 	H 	0.31220 0.17760 0.37400 0.01800
C 	C 	0.33060 0.19070 0.41115 -0.05400
C 	C 	0.33950 0.17860 0.43248 -0.01800
H 	H 	0.34500 0.19180 0.44800 0.03300
C 	C 	0.33110 0.22570 0.41276 0.14600
C 	C 	0.33000 0.24020 0.43550 -0.18500
H 	H 	0.32640 0.22660 0.45070 0.09200
C 	C 	0.33440 0.27640 0.43660 0.12400
H 	H 	0.33830 0.28850 0.45250 0.00400
C 	C 	0.33290 0.29270 0.41551 -0.22500
C 	C 	0.33150 0.27690 0.39327 0.14500
H 	H 	0.33080 0.28830 0.37780 -0.00300
C 	C 	0.33100 0.24330 0.39270 -0.20800
H 	H 	0.33050 0.23290 0.37660 0.09900
C 	C 	0.32830 0.99358 0.58148 0.47600
C 	C 	0.30800 0.11390 0.36500 0.31500
C 	C 	0.29360 0.11870 0.34490 -0.37100
H 	H 	0.28950 0.13890 0.34500 0.15200
C 	C 	0.28340 0.09710 0.32259 0.33400
H 	H 	0.27340 0.10350 0.30860 -0.05600
C 	C 	0.28720 0.07000 0.32106 -0.39900
C 	C 	0.30560 0.06680 0.33990 0.31100
H 	H 	0.31460 0.05020 0.33820 -0.05500
C 	C 	0.31270 0.08690 0.36250 -0.37200
H 	H 	0.32150 0.07960 0.37680 0.15100
C 	C 	0.27280 0.04370 0.29914 0.55500
C 	C 	0.20330 0.90720 0.20259 0.36900
C 	C 	0.18570 0.87400 0.18424 -0.04600
C 	C 	0.14760 0.81910 0.16525 0.01900
C 	C 	0.17830 0.83540 0.15127 0.02000
C 	C 	0.13800 0.77900 0.13243 -0.09000
C 	C 	0.37440 0.12090 0.61710 0.40300
C 	C 	0.37480 0.98210 0.23022 0.46500
H 	H 	0.36540 0.98570 0.21480 -0.10400
C 	C 	0.40880 0.98210 0.22928 -0.48700
H 	H 	0.41970 0.98240 0.21340 0.19100
C 	C 	0.49380 0.02340 0.72689 -0.00800
C 	C 	0.52240 0.01640 0.72706 -0.01200
H 	H 	0.53250 0.01430 0.71140 0.02500
Zn	Zn	0.91495 0.37687 0.58314 1.21200
Zn	Zn	0.95512 0.34443 0.54962 1.21200
Zn	Zn	0.87408 0.29226 0.57130 1.21100
Zn	Zn	0.94249 0.32706 0.60823 1.21800
Zn	Zn	0.02546 0.28927 0.21973 1.21800
S 	S 	0.00582 0.45491 0.50030 -0.00900
S 	S 	0.96717 0.48161 0.53058 -0.02900
H 	H 	0.95250 0.48490 0.54280 0.05100
H 	H 	0.01890 0.43740 0.49210 0.03800
C 	C 	0.15970 0.30407 0.19052 -0.04500
S 	S 	0.12511 0.33570 0.16068 -0.06500
H 	H 	0.10820 0.34270 0.15470 0.06600
H 	H 	0.16480 0.29120 0.20320 0.06500
C 	C 	0.18677 0.36595 0.12675 -0.03500
S 	S 	0.21992 0.33383 0.15697 -0.04300
H 	H 	0.23580 0.32590 0.16350 0.05800
H 	H 	0.18190 0.37870 0.11390 0.05300
O 	O 	0.92160 0.33513 0.57794 -0.96200
O 	O 	0.97251 0.39271 0.53475 -0.50200
O 	O 	0.94237 0.41495 0.55787 -0.50100
O 	O 	0.93306 0.39795 0.61672 -0.51300
O 	O 	0.95300 0.36316 0.63376 -0.54100
O 	O 	0.98904 0.32931 0.60116 -0.53300
O 	O 	0.99765 0.34125 0.56025 -0.53300
O 	O 	0.93002 0.30787 0.52283 -0.52300
O 	O 	0.87457 0.27370 0.53756 -0.53400
O 	O 	0.83556 0.30509 0.57154 -0.53000
O 	O 	0.86409 0.36360 0.58185 -0.53000
O 	O 	0.86198 0.25380 0.59753 -0.49500
O 	O 	0.91023 0.27995 0.62265 -0.51300
O 	O 	0.09552 0.27690 0.22056 -0.47400
O 	O 	0.06889 0.30366 0.19875 -0.49900
O 	O 	0.94779 0.21005 0.28015 -0.53700
O 	O 	0.98331 0.25985 0.30123 -0.55900
O 	O 	0.02360 0.33214 0.22881 -0.56300
C 	C 	0.96270 0.41570 0.53997 0.39000
C 	C 	0.97630 0.44840 0.52579 -0.09300
C 	C 	0.00897 0.49421 0.49182 0.00700
C 	C 	0.83540 0.33410 0.57598 0.47200
C 	C 	0.79980 0.33340 0.57496 -0.29700
C 	C 	0.79840 0.36110 0.58360 0.22300
H 	H 	0.81910 0.38080 0.59160 -0.03100
C 	C 	0.76630 0.36180 0.58110 -0.26900
H 	H 	0.76620 0.38390 0.58440 0.11900
C 	C 	0.73530 0.33250 0.57416 0.19600
C 	C 	0.73700 0.30450 0.56530 -0.26100
H 	H 	0.71590 0.28410 0.55820 0.11600
C 	C 	0.77070 0.30490 0.56650 0.20800
H 	H 	0.77210 0.28420 0.56090 -0.02500
C 	C 	0.69910 0.33310 0.57310 -0.06800
C 	C 	0.66670 0.30130 0.57210 -0.00100
H 	H 	0.66660 0.27880 0.57070 0.02300
C 	C 	0.94690 0.38810 0.63459 0.43700
C 	C 	0.95660 0.41140 0.65799 -0.14700
C 	C 	0.97560 0.40560 0.67630 0.05800
H 	H 	0.98390 0.38880 0.67320 0.02600
C 	C 	0.98320 0.42410 0.70004 -0.11900
H 	H 	0.99620 0.42010 0.71330 0.07000
C 	C 	0.97010 0.44880 0.70250 0.06200
C 	C 	0.95050 0.45620 0.68350 -0.11600
H 	H 	0.94280 0.47360 0.68600 0.06900
C 	C 	0.94320 0.43590 0.66056 0.05100
H 	H 	0.92960 0.43880 0.64730 0.02700
C 	C 	0.89780 0.28190 0.52030 0.47500
C 	C 	0.88860 0.26070 0.49781 -0.23400
C 	C 	0.91260 0.26310 0.47970 0.14400
H 	H 	0.93810 0.27930 0.48210 -0.00600
C 	C 	0.90030 0.24210 0.45769 -0.19700
H 	H 	0.91820 0.24570 0.44530 0.09500
C 	C 	0.86630 0.21780 0.45247 0.13200
C 	C 	0.84230 0.21920 0.47020 -0.16800
H 	H 	0.81680 0.20570 0.46620 0.08500
C 	C 	0.85220 0.23880 0.49351 0.11800
H 	H 	0.83420 0.23660 0.50550 0.00300
C 	C 	0.85570 0.19600 0.43047 -0.05900
C 	C 	0.87650 0.20640 0.40846 0.02000
H 	H 	0.89930 0.22850 0.40760 0.01200
C 	C 	0.86300 0.18380 0.38824 -0.11700
C 	C 	0.83030 0.15010 0.38850 0.01000
H 	H 	0.82240 0.13460 0.37400 0.01800
C 	C 	0.80930 0.13990 0.41115 -0.05400
C 	C 	0.82140 0.16090 0.43248 -0.01800
H 	H 	0.80820 0.15320 0.44800 0.03300
C 	C 	0.77430 0.10540 0.41276 0.14600
C 	C 	0.75980 0.08980 0.43550 -0.18500
H 	H 	0.77340 0.09980 0.45070 0.09200
C 	C 	0.72360 0.05800 0.43660 0.12400
H 	H 	0.71150 0.04980 0.45250 0.00400
C 	C 	0.70730 0.04020 0.41551 -0.22500
C 	C 	0.72310 0.05460 0.39327 0.14500
H 	H 	0.71170 0.04250 0.37780 -0.00300
C 	C 	0.75670 0.08770 0.39270 -0.20800
H 	H 	0.76710 0.09760 0.37660 0.09900
C 	C 	0.00642 0.33472 0.58148 0.47600
C 	C 	0.88610 0.19410 0.36500 0.31500
C 	C 	0.88130 0.17490 0.34490 -0.37100
H 	H 	0.86110 0.15060 0.34500 0.15200
C 	C 	0.90290 0.18630 0.32259 0.33400
H 	H 	0.89650 0.16990 0.30860 -0.05600
C 	C 	0.93000 0.21720 0.32106 -0.39900
C 	C 	0.93320 0.23880 0.33990 0.31100
H 	H 	0.94980 0.26440 0.33820 -0.05500
C 	C 	0.91310 0.22580 0.36250 -0.37200
H 	H 	0.92040 0.24190 0.37680 0.15100
C 	C 	0.95630 0.22910 0.29914 0.55500
C 	C 	0.09280 0.29610 0.20259 0.36900
C 	C 	0.12600 0.31170 0.18424 -0.04600
C 	C 	0.18090 0.32850 0.16525 0.01900
C 	C 	0.16460 0.34290 0.15127 0.02000
C 	C 	0.22100 0.35900 0.13243 -0.09000
C 	C 	0.87910 0.25350 0.61710 0.40300
C 	C 	0.01790 0.39270 0.23022 0.46500
H 	H 	0.01430 0.37970 0.21480 -0.10400
C 	C 	0.01790 0.42670 0.22928 -0.48700
H 	H 	0.01760 0.43730 0.21340 0.19100
C 	C 	0.97660 0.47040 0.72689 -0.00800
C 	C 	0.98360 0.50600 0.72706 -0.01200
H 	H 	0.98570 0.51820 0.71140 0.02500
Zn	Zn	0.37687 0.46192 0.08314 1.21200
Zn	Zn	0.34443 0.38931 0.04962 1.21200
Zn	Zn	0.29226 0.41818 0.07130 1.21100
Zn	Zn	0.32706 0.38457 0.10823 1.21800
Zn	Zn	0.28927 0.26381 0.71973 1.21800
S 	S 	0.45491 0.44909 0.00030 -0.00900
S 	S 	0.48161 0.51444 0.03058 -0.02900
H 	H 	0.48490 0.53240 0.04280 0.05100
H 	H 	0.43740 0.41850 0.99210 0.03800
C 	C 	0.30407 0.14437 0.69052 -0.04500
S 	S 	0.33570 0.21059 0.66068 -0.06500
H 	H 	0.34270 0.23450 0.65470 0.06600
H 	H 	0.29120 0.12640 0.70320 0.06500
C 	C 	0.36595 0.17918 0.62675 -0.03500
S 	S 	0.33383 0.11391 0.65697 -0.04300
H 	H 	0.32590 0.09010 0.66350 0.05800
H 	H 	0.37870 0.19680 0.61390 0.05300
O 	O 	0.33513 0.41353 0.07794 -0.96200
O 	O 	0.39271 0.42020 0.03475 -0.50200
O 	O 	0.41495 0.47258 0.05787 -0.50100
O 	O 	0.39795 0.46489 0.11672 -0.51300
O 	O 	0.36316 0.41016 0.13376 -0.54100
O 	O 	0.32931 0.34027 0.10116 -0.53300
O 	O 	0.34125 0.34360 0.06025 -0.53300
O 	O 	0.30787 0.37785 0.02283 -0.52300
O 	O 	0.27370 0.39913 0.03756 -0.53400
O 	O 	0.30509 0.46953 0.07154 -0.53000
O 	O 	0.36360 0.49951 0.08185 -0.53000
O 	O 	0.25380 0.39182 0.09753 -0.49500
O 	O 	0.27995 0.36972 0.12265 -0.51300
O 	O 	0.27690 0.18138 0.72056 -0.47400
O 	O 	0.30366 0.23477 0.69875 -0.49900
O 	O 	0.21005 0.26226 0.78015 -0.53700
O 	O 	0.25985 0.27654 0.80123 -0.55900
O 	O 	0.33214 0.30854 0.72881 -0.56300
C 	C 	0.41570 0.45300 0.03997 0.39000
C 	C 	0.44840 0.47210 0.02579 -0.09300
C 	C 	0.49421 0.48524 0.99182 0.00700
C 	C 	0.33410 0.49870 0.07598 0.47200
C 	C 	0.33340 0.53360 0.07496 -0.29700
C 	C 	0.36110 0.56270 0.08360 0.22300
H 	H 	0.38080 0.56170 0.09160 -0.03100
C 	C 	0.36180 0.59550 0.08110 -0.26900
H 	H 	0.38390 0.61770 0.08440 0.11900
C 	C 	0.33250 0.59720 0.07416 0.19600
C 	C 	0.30450 0.56750 0.06530 -0.26100
H 	H 	0.28410 0.56820 0.05820 0.11600
C 	C 	0.30490 0.53420 0.06650 0.20800
H 	H 	0.28420 0.51210 0.06090 -0.02500
C 	C 	0.33310 0.63400 0.07310 -0.06800
C 	C 	0.30130 0.63460 0.07210 -0.00100
H 	H 	0.27880 0.61220 0.07070 0.02300
C 	C 	0.38810 0.44120 0.13459 0.43700
C 	C 	0.41140 0.45480 0.15799 -0.14700
C 	C 	0.40560 0.43000 0.17630 0.05800
H 	H 	0.38880 0.40490 0.17320 0.02600
C 	C 	0.42410 0.44090 0.20004 -0.11900
H 	H 	0.42010 0.42390 0.21330 0.07000
C 	C 	0.44880 0.47870 0.20250 0.06200
C 	C 	0.45620 0.50570 0.18350 -0.11600
H 	H 	0.47360 0.53080 0.18600 0.06900
C 	C 	0.43590 0.49270 0.16056 0.05100
H 	H 	0.43880 0.50920 0.14730 0.02700
C 	C 	0.28190 0.38410 0.02030 0.47500
C 	C 	0.26070 0.37210 0.99781 -0.23400
C 	C 	0.26310 0.35050 0.97970 0.14400
H 	H 	0.27930 0.34120 0.98210 -0.00600
C 	C 	0.24210 0.34180 0.95769 -0.19700
H 	H 	0.24570 0.32750 0.94530 0.09500
C 	C 	0.21780 0.35150 0.95247 0.13200
C 	C 	0.21920 0.37690 0.97020 -0.16800
H 	H 	0.20570 0.38890 0.96620 0.08500
C 	C 	0.23880 0.38660 0.99351 0.11800
H 	H 	0.23660 0.40240 0.00550 0.00300
C 	C 	0.19600 0.34030 0.93047 -0.05900
C 	C 	0.20640 0.32990 0.90846 0.02000
H 	H 	0.22850 0.32920 0.90760 0.01200
C 	C 	0.18380 0.32080 0.88824 -0.11700
C 	C 	0.15010 0.31980 0.88850 0.01000
H 	H 	0.13460 0.31220 0.87400 0.01800
C 	C 	0.13990 0.33060 0.91115 -0.05400
C 	C 	0.16090 0.33950 0.93248 -0.01800
H 	H 	0.15320 0.34500 0.94800 0.03300
C 	C 	0.10540 0.33110 0.91276 0.14600
C 	C 	0.08980 0.33000 0.93550 -0.18500
H 	H 	0.09980 0.32640 0.95070 0.09200
C 	C 	0.05800 0.33440 0.93660 0.12400
H 	H 	0.04980 0.33830 0.95250 0.00400
C 	C 	0.04020 0.33290 0.91551 -0.22500
C 	C 	0.05460 0.33150 0.89327 0.14500
H 	H 	0.04250 0.33080 0.87780 -0.00300
C 	C 	0.08770 0.33100 0.89270 -0.20800
H 	H 	0.09760 0.33050 0.87660 0.09900
C 	C 	0.33472 0.32830 0.08148 0.47600
C 	C 	0.19410 0.30800 0.86500 0.31500
C 	C 	0.17490 0.29360 0.84490 -0.37100
H 	H 	0.15060 0.28950 0.84500 0.15200
C 	C 	0.18630 0.28340 0.82259 0.33400
H 	H 	0.16990 0.27340 0.80860 -0.05600
C 	C 	0.21720 0.28720 0.82106 -0.39900
C 	C 	0.23880 0.30560 0.83990 0.31100
H 	H 	0.26440 0.31460 0.83820 -0.05500
C 	C 	0.22580 0.31270 0.86250 -0.37200
H 	H 	0.24190 0.32150 0.87680 0.15100
C 	C 	0.22910 0.27280 0.79914 0.55500
C 	C 	0.29610 0.20330 0.70259 0.36900
C 	C 	0.31170 0.18570 0.68424 -0.04600
C 	C 	0.32850 0.14760 0.66525 0.01900
C 	C 	0.34290 0.17830 0.65127 0.02000
C 	C 	0.35900 0.13800 0.63243 -0.09000
C 	C 	0.25350 0.37440 0.11710 0.40300
C 	C 	0.39270 0.37480 0.73022 0.46500
H 	H 	0.37970 0.36540 0.71480 -0.10400
C 	C 	0.42670 0.40880 0.72928 -0.48700
H 	H 	0.43730 0.41970 0.71340 0.19100
C 	C 	0.47040 0.49380 0.22689 -0.00800
C 	C 	0.50600 0.52240 0.22706 -0.01200
H 	H 	0.51820 0.53250 0.21140 0.02500
Zn	Zn	0.53808 0.91495 0.08314 1.21200
Zn	Zn	0.61069 0.95512 0.04962 1.21200
Zn	Zn	0.58182 0.87408 0.07130 1.21100
Zn	Zn	0.61543 0.94249 0.10823 1.21800
Zn	Zn	0.73619 0.02546 0.71973 1.21800
S 	S 	0.55091 0.00582 0.00030 -0.00900
S 	S 	0.48556 0.96717 0.03058 -0.02900
H 	H 	0.46760 0.95250 0.04280 0.05100
H 	H 	0.58150 0.01890 0.99210 0.03800
C 	C 	0.85563 0.15970 0.69052 -0.04500
S 	S 	0.78941 0.12511 0.66068 -0.06500
H 	H 	0.76550 0.10820 0.65470 0.06600
H 	H 	0.87360 0.16480 0.70320 0.06500
C 	C 	0.82082 0.18677 0.62675 -0.03500
S 	S 	0.88609 0.21992 0.65697 -0.04300
H 	H 	0.90990 0.23580 0.66350 0.05800
H 	H 	0.80320 0.18190 0.61390 0.05300
O 	O 	0.58647 0.92160 0.07794 -0.96200
O 	O 	0.57980 0.97251 0.03475 -0.50200
O 	O 	0.52742 0.94237 0.05787 -0.50100
O 	O 	0.53511 0.93306 0.11672 -0.51300
O 	O 	0.58984 0.95300 0.13376 -0.54100
O 	O 	0.65973 0.98904 0.10116 -0.53300
O 	O 	0.65640 0.99765 0.06025 -0.53300
O 	O 	0.62215 0.93002 0.02283 -0.52300
O 	O 	0.60087 0.87457 0.03756 -0.53400
O 	O 	0.53047 0.83556 0.07154 -0.53000
O 	O 	0.50049 0.86409 0.08185 -0.53000
O 	O 	0.60818 0.86198 0.09753 -0.49500
O 	O 	0.63028 0.91023 0.12265 -0.51300
O 	O 	0.81862 0.09552 0.72056 -0.47400
O 	O 	0.76523 0.06889 0.69875 -0.49900
O 	O 	0.73774 0.94779 0.78015 -0.53700
O 	O 	0.72346 0.98331 0.80123 -0.55900
O 	O 	0.69146 0.02360 0.72881 -0.56300
C 	C 	0.54700 0.96270 0.03997 0.39000
C 	C 	0.52790 0.97630 0.02579 -0.09300
C 	C 	0.51476 0.00897 0.99182 0.00700
C 	C 	0.50130 0.83540 0.07598 0.47200
C 	C 	0.46640 0.79980 0.07496 -0.29700
C 	C 	0.43730 0.79840 0.08360 0.22300
H 	H 	0.43830 0.81910 0.09160 -0.03100
C 	C 	0.40450 0.76630 0.08110 -0.26900
H 	H 	0.38230 0.76620 0.08440 0.11900
C 	C 	0.40280 0.73530 0.07416 0.19600
C 	C 	0.43250 0.73700 0.06530 -0.26100
H 	H 	0.43180 0.71590 0.05820 0.11600
C 	C 	0.46580 0.77070 0.06650 0.20800
H 	H 	0.48790 0.77210 0.06090 -0.02500
C 	C 	0.36600 0.69910 0.07310 -0.06800
C 	C 	0.36540 0.66670 0.07210 -0.00100
H 	H 	0.38780 0.66660 0.07070 0.02300
C 	C 	0.55880 0.94690 0.13459 0.43700
C 	C 	0.54520 0.95660 0.15799 -0.14700
C 	C 	0.57000 0.97560 0.17630 0.05800
H 	H 	0.59510 0.98390 0.17320 0.02600
C 	C 	0.55910 0.98320 0.20004 -0.11900
H 	H 	0.57610 0.99620 0.21330 0.07000
C 	C 	0.52130 0.97010 0.20250 0.06200
C 	C 	0.49430 0.95050 0.18350 -0.11600
H 	H 	0.46920 0.94280 0.18600 0.06900
C 	C 	0.50730 0.94320 0.16056 0.05100
H 	H 	0.49080 0.92960 0.14730 0.02700
C 	C 	0.61590 0.89780 0.02030 0.47500
C 	C 	0.62790 0.88860 0.99781 -0.23400
C 	C 	0.64950 0.91260 0.97970 0.14400
H 	H 	0.65880 0.93810 0.98210 -0.00600
C 	C 	0.65820 0.90030 0.95769 -0.19700
H 	H 	0.67250 0.91820 0.94530 0.09500
C 	C 	0.64850 0.86630 0.95247 0.13200
C 	C 	0.62310 0.84230 0.97020 -0.16800
H 	H 	0.61110 0.81680 0.96620 0.08500
C 	C 	0.61340 0.85220 0.99351 0.11800
H 	H 	0.59760 0.83420 0.00550 0.00300
C 	C 	0.65970 0.85570 0.93047 -0.05900
C 	C 	0.67010 0.87650 0.90846 0.02000
H 	H 	0.67080 0.89930 0.90760 0.01200
C 	C 	0.67920 0.86300 0.88824 -0.11700
C 	C 	0.68020 0.83030 0.88850 0.01000
H 	H 	0.68780 0.82240 0.87400 0.01800
C 	C 	0.66940 0.80930 0.91115 -0.05400
C 	C 	0.66050 0.82140 0.93248 -0.01800
H 	H 	0.65500 0.80820 0.94800 0.03300
C 	C 	0.66890 0.77430 0.91276 0.14600
C 	C 	0.67000 0.75980 0.93550 -0.18500
H 	H 	0.67360 0.77340 0.95070 0.09200
C 	C 	0.66560 0.72360 0.93660 0.12400
H 	H 	0.66170 0.71150 0.95250 0.00400
C 	C 	0.66710 0.70730 0.91551 -0.22500
C 	C 	0.66850 0.72310 0.89327 0.14500
H 	H 	0.66920 0.71170 0.87780 -0.00300
C 	C 	0.66900 0.75670 0.89270 -0.20800
H 	H 	0.66950 0.76710 0.87660 0.09900
C 	C 	0.67170 0.00642 0.08148 0.47600
C 	C 	0.69200 0.88610 0.86500 0.31500
C 	C 	0.70640 0.88130 0.84490 -0.37100
H 	H 	0.71050 0.86110 0.84500 0.15200
C 	C 	0.71660 0.90290 0.82259 0.33400
H 	H 	0.72660 0.89650 0.80860 -0.05600
C 	C 	0.71280 0.93000 0.82106 -0.39900
C 	C 	0.69440 0.93320 0.83990 0.31100
H 	H 	0.68540 0.94980 0.83820 -0.05500
C 	C 	0.68730 0.91310 0.86250 -0.37200
H 	H 	0.67850 0.92040 0.87680 0.15100
C 	C 	0.72720 0.95630 0.79914 0.55500
C 	C 	0.79670 0.09280 0.70259 0.36900
C 	C 	0.81430 0.12600 0.68424 -0.04600
C 	C 	0.85240 0.18090 0.66525 0.01900
C 	C 	0.82170 0.16460 0.65127 0.02000
C 	C 	0.86200 0.22100 0.63243 -0.09000
C 	C 	0.62560 0.87910 0.11710 0.40300
C 	C 	0.62520 0.01790 0.73022 0.46500
H 	H 	0.63460 0.01430 0.71480 -0.10400
C 	C 	0.59120 0.01790 0.72928 -0.48700
H 	H 	0.58030 0.01760 0.71340 0.19100
C 	C 	0.50620 0.97660 0.22689 -0.00800
C 	C 	0.47760 0.98360 0.22706 -0.01200
H 	H 	0.46750 0.98570 0.21140 0.02500
Zn	Zn	0.08505 0.62313 0.08314 1.21200
Zn	Zn	0.04488 0.65557 0.04962 1.21200
Zn	Zn	0.12592 0.70774 0.07130 1.21100
Zn	Zn	0.05751 0.67294 0.10823 1.21800
Zn	Zn	0.97454 0.71073 0.71973 1.21800
S 	S 	0.99418 0.54509 0.00030 -0.00900
S 	S 	0.03283 0.51839 0.03058 -0.02900
H 	H 	0.04750 0.51510 0.04280 0.05100
H 	H 	0.98110 0.56260 0.99210 0.03800
C 	C 	0.84030 0.69593 0.69052 -0.04500
S 	S 	0.87489 0.66430 0.66068 -0.06500
H 	H 	0.89180 0.65730 0.65470 0.06600
H 	H 	0.83520 0.70880 0.70320 0.06500
C 	C 	0.81323 0.63405 0.62675 -0.03500
S 	S 	0.78008 0.66617 0.65697 -0.04300
H 	H 	0.76420 0.67410 0.66350 0.05800
H 	H 	0.81810 0.62130 0.61390 0.05300
O 	O 	0.07840 0.66487 0.07794 -0.96200
O 	O 	0.02749 0.60729 0.03475 -0.50200
O 	O 	0.05763 0.58505 0.05787 -0.50100
O 	O 	0.06694 0.60205 0.11672 -0.51300
O 	O 	0.04700 0.63684 0.13376 -0.54100
O 	O 	0.01096 0.67069 0.10116 -0.53300
O 	O 	0.00235 0.65875 0.06025 -0.53300
O 	O 	0.06998 0.69213 0.02283 -0.52300
O 	O 	0.12543 0.72630 0.03756 -0.53400
O 	O 	0.16444 0.69491 0.07154 -0.53000
O 	O 	0.13591 0.63640 0.08185 -0.53000
O 	O 	0.13802 0.74620 0.09753 -0.49500
O 	O 	0.08977 0.72005 0.12265 -0.51300
O 	O 	0.90448 0.72310 0.72056 -0.47400
O 	O 	0.93111 0.69634 0.69875 -0.49900
O 	O 	0.05221 0.78995 0.78015 -0.53700
O 	O 	0.01669 0.74015 0.80123 -0.55900
O 	O 	0.97640 0.66786 0.72881 -0.56300
C 	C 	0.03730 0.58430 0.03997 0.39000
C 	C 	0.02370 0.55160 0.02579 -0.09300
C 	C 	0.99103 0.50579 0.99182 0.00700
C 	C 	0.16460 0.66590 0.07598 0.47200
C 	C 	0.20020 0.66660 0.07496 -0.29700
C 	C 	0.20160 0.63890 0.08360 0.22300
H 	H 	0.18090 0.61920 0.09160 -0.03100
C 	C 	0.23370 0.63820 0.08110 -0.26900
H 	H 	0.23380 0.61610 0.08440 0.11900
C 	C 	0.26470 0.66750 0.07416 0.19600
C 	C 	0.26300 0.69550 0.06530 -0.26100
H 	H 	0.28410 0.71590 0.05820 0.11600
C 	C 	0.22930 0.69510 0.06650 0.20800
H 	H 	0.22790 0.71580 0.06090 -0.02500
C 	C 	0.30090 0.66690 0.07310 -0.06800
C 	C 	0.33330 0.69870 0.07210 -0.00100
H 	H 	0.33340 0.72120 0.07070 0.02300
C 	C 	0.05310 0.61190 0.13459 0.43700
C 	C 	0.04340 0.58860 0.15799 -0.14700
C 	C 	0.02440 0.59440 0.17630 0.05800
H 	H 	0.01610 0.61120 0.17320 0.02600
C 	C 	0.01680 0.57590 0.20004 -0.11900
H 	H 	0.00380 0.57990 0.21330 0.07000
C 	C 	0.02990 0.55120 0.20250 0.06200
C 	C 	0.04950 0.54380 0.18350 -0.11600
H 	H 	0.05720 0.52640 0.18600 0.06900
C 	C 	0.05680 0.56410 0.16056 0.05100
H 	H 	0.07040 0.56120 0.14730 0.02700
C 	C 	0.10220 0.71810 0.02030 0.47500
C 	C 	0.11140 0.73930 0.99781 -0.23400
C 	C 	0.08740 0.73690 0.97970 0.14400
H 	H 	0.06190 0.72070 0.98210 -0.00600
C 	C 	0.09970 0.75790 0.95769 -0.19700
H 	H 	0.08180 0.75430 0.94530 0.09500
C 	C 	0.13370 0.78220 0.95247 0.13200
C 	C 	0.15770 0.78080 0.97020 -0.16800
H 	H 	0.18320 0.79430 0.96620 0.08500
C 	C 	0.14780 0.76120 0.99351 0.11800
H 	H 	0.16580 0.76340 0.00550 0.00300
C 	C 	0.14430 0.80400 0.93047 -0.05900
C 	C 	0.12350 0.79360 0.90846 0.02000
H 	H 	0.10070 0.77150 0.90760 0.01200
C 	C 	0.13700 0.81620 0.88824 -0.11700
C 	C 	0.16970 0.84990 0.88850 0.01000
H 	H 	0.17760 0.86540 0.87400 0.01800
C 	C 	0.19070 0.86010 0.91115 -0.05400
C 	C 	0.17860 0.83910 0.93248 -0.01800
H 	H 	0.19180 0.84680 0.94800 0.03300
C 	C 	0.22570 0.89460 0.91276 0.14600
C 	C 	0.24020 0.91020 0.93550 -0.18500
H 	H 	0.22660 0.90020 0.95070 0.09200
C 	C 	0.27640 0.94200 0.93660 0.12400
H 	H 	0.28850 0.95020 0.95250 0.00400
C 	C 	0.29270 0.95980 0.91551 -0.22500
C 	C 	0.27690 0.94540 0.89327 0.14500
H 	H 	0.28830 0.95750 0.87780 -0.00300
C 	C 	0.24330 0.91230 0.89270 -0.20800
H 	H 	0.23290 0.90240 0.87660 0.09900
C 	C 	0.99358 0.66528 0.08148 0.47600
C 	C 	0.11390 0.80590 0.86500 0.31500
C 	C 	0.11870 0.82510 0.84490 -0.37100
H 	H 	0.13890 0.84940 0.84500 0.15200
C 	C 	0.09710 0.81370 0.82259 0.33400
H 	H 	0.10350 0.83010 0.80860 -0.05600
C 	C 	0.07000 0.78280 0.82106 -0.39900
C 	C 	0.06680 0.76120 0.83990 0.31100
H 	H 	0.05020 0.73560 0.83820 -0.05500
C 	C 	0.08690 0.77420 0.86250 -0.37200
H 	H 	0.07960 0.75810 0.87680 0.15100
C 	C 	0.04370 0.77090 0.79914 0.55500
C 	C 	0.90720 0.70390 0.70259 0.36900
C 	C 	0.87400 0.68830 0.68424 -0.04600
C 	C 	0.81910 0.67150 0.66525 0.01900
C 	C 	0.83540 0.65710 0.65127 0.02000
C 	C 	0.77900 0.64100 0.63243 -0.09000
C 	C 	0.12090 0.74650 0.11710 0.40300
C 	C 	0.98210 0.60730 0.73022 0.46500
H 	H 	0.98570 0.62030 0.71480 -0.10400
C 	C 	0.98210 0.57330 0.72928 -0.48700
H 	H 	0.98240 0.56270 0.71340 0.19100
C 	C 	0.02340 0.52960 0.22689 -0.00800
C 	C 	0.01640 0.49400 0.22706 -0.01200
H 	H 	0.01430 0.48180 0.21140 0.02500
Zn	Zn	0.37687 0.46192 0.41686 1.21200
Zn	Zn	0.34443 0.38931 0.45038 1.21200
Zn	Zn	0.29226 0.41818 0.42870 1.21100
Zn	Zn	0.32706 0.38457 0.39177 1.21800
Zn	Zn	0.28927 0.26381 0.78027 1.21800
S 	S 	0.45491 0.44909 0.49970 -0.00900
S 	S 	0.48161 0.51444 0.46942 -0.02900
H 	H 	0.48490 0.53240 0.45720 0.05100
H 	H 	0.43740 0.41850 0.50790 0.03800
C 	C 	0.30407 0.14437 0.80948 -0.04500
S 	S 	0.33570 0.21059 0.83932 -0.06500
H 	H 	0.34270 0.23450 0.84530 0.06600
H 	H 	0.29120 0.12640 0.79680 0.06500
C 	C 	0.36595 0.17918 0.87325 -0.03500
S 	S 	0.33383 0.11391 0.84303 -0.04300
H 	H 	0.32590 0.09010 0.83650 0.05800
H 	H 	0.37870 0.19680 0.88610 0.05300
O 	O 	0.33513 0.41353 0.42206 -0.96200
O 	O 	0.39271 0.42020 0.46525 -0.50200
O 	O 	0.41495 0.47258 0.44213 -0.50100
O 	O 	0.39795 0.46489 0.38328 -0.51300
O 	O 	0.36316 0.41016 0.36624 -0.54100
O 	O 	0.32931 0.34027 0.39884 -0.53300
O 	O 	0.34125 0.34360 0.43975 -0.53300
O 	O 	0.30787 0.37785 0.47717 -0.52300
O 	O 	0.27370 0.39913 0.46244 -0.53400
O 	O 	0.30509 0.46953 0.42846 -0.53000
O 	O 	0.36360 0.49951 0.41815 -0.53000
O 	O 	0.25380 0.39182 0.40247 -0.49500
O 	O 	0.27995 0.36972 0.37735 -0.51300
O 	O 	0.27690 0.18138 0.77944 -0.47400
O 	O 	0.30366 0.23477 0.80125 -0.49900
O 	O 	0.21005 0.26226 0.71985 -0.53700
O 	O 	0.25985 0.27654 0.69877 -0.55900
O 	O 	0.33214 0.30854 0.77119 -0.56300
C 	C 	0.41570 0.45300 0.46003 0.39000
C 	C 	0.44840 0.47210 0.47421 -0.09300
C 	C 	0.49421 0.48524 0.50818 0.00700
C 	C 	0.33410 0.49870 0.42402 0.47200
C 	C 	0.33340 0.53360 0.42504 -0.29700
C 	C 	0.36110 0.56270 0.41640 0.22300
H 	H 	0.38080 0.56170 0.40840 -0.03100
C 	C 	0.36180 0.59550 0.41890 -0.26900
H 	H 	0.38390 0.61770 0.41560 0.11900
C 	C 	0.33250 0.59720 0.42584 0.19600
C 	C 	0.30450 0.56750 0.43470 -0.26100
H 	H 	0.28410 0.56820 0.44180 0.11600
C 	C 	0.30490 0.53420 0.43350 0.20800
H 	H 	0.28420 0.51210 0.43910 -0.02500
C 	C 	0.33310 0.63400 0.42690 -0.06800
C 	C 	0.30130 0.63460 0.42790 -0.00100
H 	H 	0.27880 0.61220 0.42930 0.02300
C 	C 	0.38810 0.44120 0.36541 0.43700
C 	C 	0.41140 0.45480 0.34201 -0.14700
C 	C 	0.40560 0.43000 0.32370 0.05800
H 	H 	0.38880 0.40490 0.32680 0.02600
C 	C 	0.42410 0.44090 0.29996 -0.11900
H 	H 	0.42010 0.42390 0.28670 0.07000
C 	C 	0.44880 0.47870 0.29750 0.06200
C 	C 	0.45620 0.50570 0.31650 -0.11600
H 	H 	0.47360 0.53080 0.31400 0.06900
C 	C 	0.43590 0.49270 0.33944 0.05100
H 	H 	0.43880 0.50920 0.35270 0.02700
C 	C 	0.28190 0.38410 0.47970 0.47500
C 	C 	0.26070 0.37210 0.50219 -0.23400
C 	C 	0.26310 0.35050 0.52030 0.14400
H 	H 	0.27930 0.34120 0.51790 -0.00600
C 	C 	0.24210 0.34180 0.54231 -0.19700
H 	H 	0.24570 0.32750 0.55470 0.09500
C 	C 	0.21780 0.35150 0.54753 0.13200
C 	C 	0.21920 0.37690 0.52980 -0.16800
H 	H 	0.20570 0.38890 0.53380 0.08500
C 	C 	0.23880 0.38660 0.50649 0.11800
H 	H 	0.23660 0.40240 0.49450 0.00300
C 	C 	0.19600 0.34030 0.56953 -0.05900
C 	C 	0.20640 0.32990 0.59154 0.02000
H 	H 	0.22850 0.32920 0.59240 0.01200
C 	C 	0.18380 0.32080 0.61176 -0.11700
C 	C 	0.15010 0.31980 0.61150 0.01000
H 	H 	0.13460 0.31220 0.62600 0.01800
C 	C 	0.13990 0.33060 0.58885 -0.05400
C 	C 	0.16090 0.33950 0.56752 -0.01800
H 	H 	0.15320 0.34500 0.55200 0.03300
C 	C 	0.10540 0.33110 0.58724 0.14600
C 	C 	0.08980 0.33000 0.56450 -0.18500
H 	H 	0.09980 0.32640 0.54930 0.09200
C 	C 	0.05800 0.33440 0.56340 0.12400
H 	H 	0.04980 0.33830 0.54750 0.00400
C 	C 	0.04020 0.33290 0.58449 -0.22500
C 	C 	0.05460 0.33150 0.60673 0.14500
H 	H 	0.04250 0.33080 0.62220 -0.00300
C 	C 	0.08770 0.33100 0.60730 -0.20800
H 	H 	0.09760 0.33050 0.62340 0.09900
C 	C 	0.33472 0.32830 0.41852 0.47600
C 	C 	0.19410 0.30800 0.63500 0.31500
C 	C 	0.17490 0.29360 0.65510 -0.37100
H 	H 	0.15060 0.28950 0.65500 0.15200
C 	C 	0.18630 0.28340 0.67741 0.33400
H 	H 	0.16990 0.27340 0.69140 -0.05600
C 	C 	0.21720 0.28720 0.67894 -0.39900
C 	C 	0.23880 0.30560 0.66010 0.31100
H 	H 	0.26440 0.31460 0.66180 -0.05500
C 	C 	0.22580 0.31270 0.63750 -0.37200
H 	H 	0.24190 0.32150 0.62320 0.15100
C 	C 	0.22910 0.27280 0.70086 0.55500
C 	C 	0.29610 0.20330 0.79741 0.36900
C 	C 	0.31170 0.18570 0.81576 -0.04600
C 	C 	0.32850 0.14760 0.83475 0.01900
C 	C 	0.34290 0.17830 0.84873 0.02000
C 	C 	0.35900 0.13800 0.86757 -0.09000
C 	C 	0.25350 0.37440 0.38290 0.40300
C 	C 	0.39270 0.37480 0.76978 0.46500
H 	H 	0.37970 0.36540 0.78520 -0.10400
C 	C 	0.42670 0.40880 0.77072 -0.48700
H 	H 	0.43730 0.41970 0.78660 0.19100
C 	C 	0.47040 0.49380 0.27311 -0.00800
C 	C 	0.50600 0.52240 0.27294 -0.01200
H 	H 	0.51820 0.53250 0.28860 0.02500
Zn	Zn	0.53808 0.91495 0.41686 1.21200
Zn	Zn	0.61069 0.95512 0.45038 1.21200
Zn	Zn	0.58182 0.87408 0.42870 1.21100
Zn	Zn	0.61543 0.94249 0.39177 1.21800
Zn	Zn	0.73619 0.02546 0.78027 1.21800
S 	S 	0.55091 0.00582 0.49970 -0.00900
S 	S 	0.48556 0.96717 0.46942 -0.02900
H 	H 	0.46760 0.95250 0.45720 0.05100
H 	H 	0.58150 0.01890 0.50790 0.03800
C 	C 	0.85563 0.15970 0.80948 -0.04500
S 	S 	0.78941 0.12511 0.83932 -0.06500
H 	H 	0.76550 0.10820 0.84530 0.06600
H 	H 	0.87360 0.16480 0.79680 0.06500
C 	C 	0.82082 0.18677 0.87325 -0.03500
S 	S 	0.88609 0.21992 0.84303 -0.04300
H 	H 	0.90990 0.23580 0.83650 0.05800
H 	H 	0.80320 0.18190 0.88610 0.05300
O 	O 	0.58647 0.92160 0.42206 -0.96200
O 	O 	0.57980 0.97251 0.46525 -0.50200
O 	O 	0.52742 0.94237 0.44213 -0.50100
O 	O 	0.53511 0.93306 0.38328 -0.51300
O 	O 	0.58984 0.95300 0.36624 -0.54100
O 	O 	0.65973 0.98904 0.39884 -0.53300
O 	O 	0.65640 0.99765 0.43975 -0.53300
O 	O 	0.62215 0.93002 0.47717 -0.52300
O 	O 	0.60087 0.87457 0.46244 -0.53400
O 	O 	0.53047 0.83556 0.42846 -0.53000
O 	O 	0.50049 0.86409 0.41815 -0.53000
O 	O 	0.60818 0.86198 0.40247 -0.49500
O 	O 	0.63028 0.91023 0.37735 -0.51300
O 	O 	0.81862 0.09552 0.77944 -0.47400
O 	O 	0.76523 0.06889 0.80125 -0.49900
O 	O 	0.73774 0.94779 0.71985 -0.53700
O 	O 	0.72346 0.98331 0.69877 -0.55900
O 	O 	0.69146 0.02360 0.77119 -0.56300
C 	C 	0.54700 0.96270 0.46003 0.39000
C 	C 	0.52790 0.97630 0.47421 -0.09300
C 	C 	0.51476 0.00897 0.50818 0.00700
C 	C 	0.50130 0.83540 0.42402 0.47200
C 	C 	0.46640 0.79980 0.42504 -0.29700
C 	C 	0.43730 0.79840 0.41640 0.22300
H 	H 	0.43830 0.81910 0.40840 -0.03100
C 	C 	0.40450 0.76630 0.41890 -0.26900
H 	H 	0.38230 0.76620 0.41560 0.11900
C 	C 	0.40280 0.73530 0.42584 0.19600
C 	C 	0.43250 0.73700 0.43470 -0.26100
H 	H 	0.43180 0.71590 0.44180 0.11600
C 	C 	0.46580 0.77070 0.43350 0.20800
H 	H 	0.48790 0.77210 0.43910 -0.02500
C 	C 	0.36600 0.69910 0.42690 -0.06800
C 	C 	0.36540 0.66670 0.42790 -0.00100
H 	H 	0.38780 0.66660 0.42930 0.02300
C 	C 	0.55880 0.94690 0.36541 0.43700
C 	C 	0.54520 0.95660 0.34201 -0.14700
C 	C 	0.57000 0.97560 0.32370 0.05800
H 	H 	0.59510 0.98390 0.32680 0.02600
C 	C 	0.55910 0.98320 0.29996 -0.11900
H 	H 	0.57610 0.99620 0.28670 0.07000
C 	C 	0.52130 0.97010 0.29750 0.06200
C 	C 	0.49430 0.95050 0.31650 -0.11600
H 	H 	0.46920 0.94280 0.31400 0.06900
C 	C 	0.50730 0.94320 0.33944 0.05100
H 	H 	0.49080 0.92960 0.35270 0.02700
C 	C 	0.61590 0.89780 0.47970 0.47500
C 	C 	0.62790 0.88860 0.50219 -0.23400
C 	C 	0.64950 0.91260 0.52030 0.14400
H 	H 	0.65880 0.93810 0.51790 -0.00600
C 	C 	0.65820 0.90030 0.54231 -0.19700
H 	H 	0.67250 0.91820 0.55470 0.09500
C 	C 	0.64850 0.86630 0.54753 0.13200
C 	C 	0.62310 0.84230 0.52980 -0.16800
H 	H 	0.61110 0.81680 0.53380 0.08500
C 	C 	0.61340 0.85220 0.50649 0.11800
H 	H 	0.59760 0.83420 0.49450 0.00300
C 	C 	0.65970 0.85570 0.56953 -0.05900
C 	C 	0.67010 0.87650 0.59154 0.02000
H 	H 	0.67080 0.89930 0.59240 0.01200
C 	C 	0.67920 0.86300 0.61176 -0.11700
C 	C 	0.68020 0.83030 0.61150 0.01000
H 	H 	0.68780 0.82240 0.62600 0.01800
C 	C 	0.66940 0.80930 0.58885 -0.05400
C 	C 	0.66050 0.82140 0.56752 -0.01800
H 	H 	0.65500 0.80820 0.55200 0.03300
C 	C 	0.66890 0.77430 0.58724 0.14600
C 	C 	0.67000 0.75980 0.56450 -0.18500
H 	H 	0.67360 0.77340 0.54930 0.09200
C 	C 	0.66560 0.72360 0.56340 0.12400
H 	H 	0.66170 0.71150 0.54750 0.00400
C 	C 	0.66710 0.70730 0.58449 -0.22500
C 	C 	0.66850 0.72310 0.60673 0.14500
H 	H 	0.66920 0.71170 0.62220 -0.00300
C 	C 	0.66900 0.75670 0.60730 -0.20800
H 	H 	0.66950 0.76710 0.62340 0.09900
C 	C 	0.67170 0.00642 0.41852 0.47600
C 	C 	0.69200 0.88610 0.63500 0.31500
C 	C 	0.70640 0.88130 0.65510 -0.37100
H 	H 	0.71050 0.86110 0.65500 0.15200
C 	C 	0.71660 0.90290 0.67741 0.33400
H 	H 	0.72660 0.89650 0.69140 -0.05600
C 	C 	0.71280 0.93000 0.67894 -0.39900
C 	C 	0.69440 0.93320 0.66010 0.31100
H 	H 	0.68540 0.94980 0.66180 -0.05500
C 	C 	0.68730 0.91310 0.63750 -0.37200
H 	H 	0.67850 0.92040 0.62320 0.15100
C 	C 	0.72720 0.95630 0.70086 0.55500
C 	C 	0.79670 0.09280 0.79741 0.36900
C 	C 	0.81430 0.12600 0.81576 -0.04600
C 	C 	0.85240 0.18090 0.83475 0.01900
C 	C 	0.82170 0.16460 0.84873 0.02000
C 	C 	0.86200 0.22100 0.86757 -0.09000
C 	C 	0.62560 0.87910 0.38290 0.40300
C 	C 	0.62520 0.01790 0.76978 0.46500
H 	H 	0.63460 0.01430 0.78520 -0.10400
C 	C 	0.59120 0.01790 0.77072 -0.48700
H 	H 	0.58030 0.01760 0.78660 0.19100
C 	C 	0.50620 0.97660 0.27311 -0.00800
C 	C 	0.47760 0.98360 0.27294 -0.01200
H 	H 	0.46750 0.98570 0.28860 0.02500
Zn	Zn	0.08505 0.62313 0.41686 1.21200
Zn	Zn	0.04488 0.65557 0.45038 1.21200
Zn	Zn	0.12592 0.70774 0.42870 1.21100
Zn	Zn	0.05751 0.67294 0.39177 1.21800
Zn	Zn	0.97454 0.71073 0.78027 1.21800
S 	S 	0.99418 0.54509 0.49970 -0.00900
S 	S 	0.03283 0.51839 0.46942 -0.02900
H 	H 	0.04750 0.51510 0.45720 0.05100
H 	H 	0.98110 0.56260 0.50790 0.03800
C 	C 	0.84030 0.69593 0.80948 -0.04500
S 	S 	0.87489 0.66430 0.83932 -0.06500
H 	H 	0.89180 0.65730 0.84530 0.06600
H 	H 	0.83520 0.70880 0.79680 0.06500
C 	C 	0.81323 0.63405 0.87325 -0.03500
S 	S 	0.78008 0.66617 0.84303 -0.04300
H 	H 	0.76420 0.67410 0.83650 0.05800
H 	H 	0.81810 0.62130 0.88610 0.05300
O 	O 	0.07840 0.66487 0.42206 -0.96200
O 	O 	0.02749 0.60729 0.46525 -0.50200
O 	O 	0.05763 0.58505 0.44213 -0.50100
O 	O 	0.06694 0.60205 0.38328 -0.51300
O 	O 	0.04700 0.63684 0.36624 -0.54100
O 	O 	0.01096 0.67069 0.39884 -0.53300
O 	O 	0.00235 0.65875 0.43975 -0.53300
O 	O 	0.06998 0.69213 0.47717 -0.52300
O 	O 	0.12543 0.72630 0.46244 -0.53400
O 	O 	0.16444 0.69491 0.42846 -0.53000
O 	O 	0.13591 0.63640 0.41815 -0.53000
O 	O 	0.13802 0.74620 0.40247 -0.49500
O 	O 	0.08977 0.72005 0.37735 -0.51300
O 	O 	0.90448 0.72310 0.77944 -0.47400
O 	O 	0.93111 0.69634 0.80125 -0.49900
O 	O 	0.05221 0.78995 0.71985 -0.53700
O 	O 	0.01669 0.74015 0.69877 -0.55900
O 	O 	0.97640 0.66786 0.77119 -0.56300
C 	C 	0.03730 0.58430 0.46003 0.39000
C 	C 	0.02370 0.55160 0.47421 -0.09300
C 	C 	0.99103 0.50579 0.50818 0.00700
C 	C 	0.16460 0.66590 0.42402 0.47200
C 	C 	0.20020 0.66660 0.42504 -0.29700
C 	C 	0.20160 0.63890 0.41640 0.22300
H 	H 	0.18090 0.61920 0.40840 -0.03100
C 	C 	0.23370 0.63820 0.41890 -0.26900
H 	H 	0.23380 0.61610 0.41560 0.11900
C 	C 	0.26470 0.66750 0.42584 0.19600
C 	C 	0.26300 0.69550 0.43470 -0.26100
H 	H 	0.28410 0.71590 0.44180 0.11600
C 	C 	0.22930 0.69510 0.43350 0.20800
H 	H 	0.22790 0.71580 0.43910 -0.02500
C 	C 	0.30090 0.66690 0.42690 -0.06800
C 	C 	0.33330 0.69870 0.42790 -0.00100
H 	H 	0.33340 0.72120 0.42930 0.02300
C 	C 	0.05310 0.61190 0.36541 0.43700
C 	C 	0.04340 0.58860 0.34201 -0.14700
C 	C 	0.02440 0.59440 0.32370 0.05800
H 	H 	0.01610 0.61120 0.32680 0.02600
C 	C 	0.01680 0.57590 0.29996 -0.11900
H 	H 	0.00380 0.57990 0.28670 0.07000
C 	C 	0.02990 0.55120 0.29750 0.06200
C 	C 	0.04950 0.54380 0.31650 -0.11600
H 	H 	0.05720 0.52640 0.31400 0.06900
C 	C 	0.05680 0.56410 0.33944 0.05100
H 	H 	0.07040 0.56120 0.35270 0.02700
C 	C 	0.10220 0.71810 0.47970 0.47500
C 	C 	0.11140 0.73930 0.50219 -0.23400
C 	C 	0.08740 0.73690 0.52030 0.14400
H 	H 	0.06190 0.72070 0.51790 -0.00600
C 	C 	0.09970 0.75790 0.54231 -0.19700
H 	H 	0.08180 0.75430 0.55470 0.09500
C 	C 	0.13370 0.78220 0.54753 0.13200
C 	C 	0.15770 0.78080 0.52980 -0.16800
H 	H 	0.18320 0.79430 0.53380 0.08500
C 	C 	0.14780 0.76120 0.50649 0.11800
H 	H 	0.16580 0.76340 0.49450 0.00300
C 	C 	0.14430 0.80400 0.56953 -0.05900
C 	C 	0.12350 0.79360 0.59154 0.02000
H 	H 	0.10070 0.77150 0.59240 0.01200
C 	C 	0.13700 0.81620 0.61176 -0.11700
C 	C 	0.16970 0.84990 0.61150 0.01000
H 	H 	0.17760 0.86540 0.62600 0.01800
C 	C 	0.19070 0.86010 0.58885 -0.05400
C 	C 	0.17860 0.83910 0.56752 -0.01800
H 	H 	0.19180 0.84680 0.55200 0.03300
C 	C 	0.22570 0.89460 0.58724 0.14600
C 	C 	0.24020 0.91020 0.56450 -0.18500
H 	H 	0.22660 0.90020 0.54930 0.09200
C 	C 	0.27640 0.94200 0.56340 0.12400
H 	H 	0.28850 0.95020 0.54750 0.00400
C 	C 	0.29270 0.95980 0.58449 -0.22500
C 	C 	0.27690 0.94540 0.60673 0.14500
H 	H 	0.28830 0.95750 0.62220 -0.00300
C 	C 	0.24330 0.91230 0.60730 -0.20800
H 	H 	0.23290 0.90240 0.62340 0.09900
C 	C 	0.99358 0.66528 0.41852 0.47600
C 	C 	0.11390 0.80590 0.63500 0.31500
C 	C 	0.11870 0.82510 0.65510 -0.37100
H 	H 	0.13890 0.84940 0.65500 0.15200
C 	C 	0.09710 0.81370 0.67741 0.33400
H 	H 	0.10350 0.83010 0.69140 -0.05600
C 	C 	0.07000 0.78280 0.67894 -0.39900
C 	C 	0.06680 0.76120 0.66010 0.31100
H 	H 	0.05020 0.73560 0.66180 -0.05500
C 	C 	0.08690 0.77420 0.63750 -0.37200
H 	H 	0.07960 0.75810 0.62320 0.15100
C 	C 	0.04370 0.77090 0.70086 0.55500
C 	C 	0.90720 0.70390 0.79741 0.36900
C 	C 	0.87400 0.68830 0.81576 -0.04600
C 	C 	0.81910 0.67150 0.83475 0.01900
C 	C 	0.83540 0.65710 0.84873 0.02000
C 	C 	0.77900 0.64100 0.86757 -0.09000
C 	C 	0.12090 0.74650 0.38290 0.40300
C 	C 	0.98210 0.60730 0.76978 0.46500
H 	H 	0.98570 0.62030 0.78520 -0.10400
C 	C 	0.98210 0.57330 0.77072 -0.48700
H 	H 	0.98240 0.56270 0.78660 0.19100
C 	C 	0.02340 0.52960 0.27311 -0.00800
C 	C 	0.01640 0.49400 0.27294 -0.01200
H 	H 	0.01430 0.48180 0.28860 0.02500
Zn	Zn	0.62313 0.53808 0.91686 1.21200
Zn	Zn	0.65557 0.61069 0.95038 1.21200
Zn	Zn	0.70774 0.58182 0.92870 1.21100
Zn	Zn	0.67294 0.61543 0.89177 1.21800
Zn	Zn	0.71073 0.73619 0.28027 1.21800
S 	S 	0.54509 0.55091 0.99970 -0.00900
S 	S 	0.51839 0.48556 0.96942 -0.02900
H 	H 	0.51510 0.46760 0.95720 0.05100
H 	H 	0.56260 0.58150 0.00790 0.03800
C 	C 	0.69593 0.85563 0.30948 -0.04500
S 	S 	0.66430 0.78941 0.33932 -0.06500
H 	H 	0.65730 0.76550 0.34530 0.06600
H 	H 	0.70880 0.87360 0.29680 0.06500
C 	C 	0.63405 0.82082 0.37325 -0.03500
S 	S 	0.66617 0.88609 0.34303 -0.04300
H 	H 	0.67410 0.90990 0.33650 0.05800
H 	H 	0.62130 0.80320 0.38610 0.05300
O 	O 	0.66487 0.58647 0.92206 -0.96200
O 	O 	0.60729 0.57980 0.96525 -0.50200
O 	O 	0.58505 0.52742 0.94213 -0.50100
O 	O 	0.60205 0.53511 0.88328 -0.51300
O 	O 	0.63684 0.58984 0.86624 -0.54100
O 	O 	0.67069 0.65973 0.89884 -0.53300
O 	O 	0.65875 0.65640 0.93975 -0.53300
O 	O 	0.69213 0.62215 0.97717 -0.52300
O 	O 	0.72630 0.60087 0.96244 -0.53400
O 	O 	0.69491 0.53047 0.92846 -0.53000
O 	O 	0.63640 0.50049 0.91815 -0.53000
O 	O 	0.74620 0.60818 0.90247 -0.49500
O 	O 	0.72005 0.63028 0.87735 -0.51300
O 	O 	0.72310 0.81862 0.27944 -0.47400
O 	O 	0.69634 0.76523 0.30125 -0.49900
O 	O 	0.78995 0.73774 0.21985 -0.53700
O 	O 	0.74015 0.72346 0.19877 -0.55900
O 	O 	0.66786 0.69146 0.27119 -0.56300
C 	C 	0.58430 0.54700 0.96003 0.39000
C 	C 	0.55160 0.52790 0.97421 -0.09300
C 	C 	0.50579 0.51476 0.00818 0.00700
C 	C 	0.66590 0.50130 0.92402 0.47200
C 	C 	0.66660 0.46640 0.92504 -0.29700
C 	C 	0.63890 0.43730 0.91640 0.22300
H 	H 	0.61920 0.43830 0.90840 -0.03100
C 	C 	0.63820 0.40450 0.91890 -0.26900
H 	H 	0.61610 0.38230 0.91560 0.11900
C 	C 	0.66750 0.40280 0.92584 0.19600
C 	C 	0.69550 0.43250 0.93470 -0.26100
H 	H 	0.71590 0.43180 0.94180 0.11600
C 	C 	0.69510 0.46580 0.93350 0.20800
H 	H 	0.71580 0.48790 0.93910 -0.02500
C 	C 	0.66690 0.36600 0.92690 -0.06800
C 	C 	0.69870 0.36540 0.92790 -0.00100
H 	H 	0.72120 0.38780 0.92930 0.02300
C 	C 	0.61190 0.55880 0.86541 0.43700
C 	C 	0.58860 0.54520 0.84201 -0.14700
C 	C 	0.59440 0.57000 0.82370 0.05800
H 	H 	0.61120 0.59510 0.82680 0.02600
C 	C 	0.57590 0.55910 0.79996 -0.11900
H 	H 	0.57990 0.57610 0.78670 0.07000
C 	C 	0.55120 0.52130 0.79750 0.06200
C 	C 	0.54380 0.49430 0.81650 -0.11600
H 	H 	0.52640 0.46920 0.81400 0.06900
C 	C 	0.56410 0.50730 0.83944 0.05100
H 	H 	0.56120 0.49080 0.85270 0.02700
C 	C 	0.71810 0.61590 0.97970 0.47500
C 	C 	0.73930 0.62790 0.00219 -0.23400
C 	C 	0.73690 0.64950 0.02030 0.14400
H 	H 	0.72070 0.65880 0.01790 -0.00600
C 	C 	0.75790 0.65820 0.04231 -0.19700
H 	H 	0.75430 0.67250 0.05470 0.09500
C 	C 	0.78220 0.64850 0.04753 0.13200
C 	C 	0.78080 0.62310 0.02980 -0.16800
H 	H 	0.79430 0.61110 0.03380 0.08500
C 	C 	0.76120 0.61340 0.00649 0.11800
H 	H 	0.76340 0.59760 0.99450 0.00300
C 	C 	0.80400 0.65970 0.06953 -0.05900
C 	C 	0.79360 0.67010 0.09154 0.02000
H 	H 	0.77150 0.67080 0.09240 0.01200
C 	C 	0.81620 0.67920 0.11176 -0.11700
C 	C 	0.84990 0.68020 0.11150 0.01000
H 	H 	0.86540 0.68780 0.12600 0.01800
C 	C 	0.86010 0.66940 0.08885 -0.05400
C 	C 	0.83910 0.66050 0.06752 -0.01800
H 	H 	0.84680 0.65500 0.05200 0.03300
C 	C 	0.89460 0.66890 0.08724 0.14600
C 	C 	0.91020 0.67000 0.06450 -0.18500
H 	H 	0.90020 0.67360 0.04930 0.09200
C 	C 	0.94200 0.66560 0.06340 0.12400
H 	H 	0.95020 0.66170 0.04750 0.00400
C 	C 	0.95980 0.66710 0.08449 -0.22500
C 	C 	0.94540 0.66850 0.10673 0.14500
H 	H 	0.95750 0.66920 0.12220 -0.00300
C 	C 	0.91230 0.66900 0.10730 -0.20800
H 	H 	0.90240 0.66950 0.12340 0.09900
C 	C 	0.66528 0.67170 0.91852 0.47600
C 	C 	0.80590 0.69200 0.13500 0.31500
C 	C 	0.82510 0.70640 0.15510 -0.37100
H 	H 	0.84940 0.71050 0.15500 0.15200
C 	C 	0.81370 0.71660 0.17741 0.33400
H 	H 	0.83010 0.72660 0.19140 -0.05600
C 	C 	0.78280 0.71280 0.17894 -0.39900
C 	C 	0.76120 0.69440 0.16010 0.31100
H 	H 	0.73560 0.68540 0.16180 -0.05500
C 	C 	0.77420 0.68730 0.13750 -0.37200
H 	H 	0.75810 0.67850 0.12320 0.15100
C 	C 	0.77090 0.72720 0.20086 0.55500
C 	C 	0.70390 0.79670 0.29741 0.36900
C 	C 	0.68830 0.81430 0.31576 -0.04600
C 	C 	0.67150 0.85240 0.33475 0.01900
C 	C 	0.65710 0.82170 0.34873 0.02000
C 	C 	0.64100 0.86200 0.36757 -0.09000
C 	C 	0.74650 0.62560 0.88290 0.40300
C 	C 	0.60730 0.62520 0.26978 0.46500
H 	H 	0.62030 0.63460 0.28520 -0.10400
C 	C 	0.57330 0.59120 0.27072 -0.48700
H 	H 	0.56270 0.58030 0.28660 0.19100
C 	C 	0.52960 0.50620 0.77311 -0.00800
C 	C 	0.49400 0.47760 0.77294 -0.01200
H 	H 	0.48180 0.46750 0.78860 0.02500
Zn	Zn	0.46192 0.08505 0.91686 1.21200
Zn	Zn	0.38931 0.04488 0.95038 1.21200
Zn	Zn	0.41818 0.12592 0.92870 1.21100
Zn	Zn	0.38457 0.05751 0.89177 1.21800
Zn	Zn	0.26381 0.97454 0.28027 1.21800
S 	S 	0.44909 0.99418 0.99970 -0.00900
S 	S 	0.51444 0.03283 0.96942 -0.02900
H 	H 	0.53240 0.04750 0.95720 0.05100
H 	H 	0.41850 0.98110 0.00790 0.03800
C 	C 	0.14437 0.84030 0.30948 -0.04500
S 	S 	0.21059 0.87489 0.33932 -0.06500
H 	H 	0.23450 0.89180 0.34530 0.06600
H 	H 	0.12640 0.83520 0.29680 0.06500
C 	C 	0.17918 0.81323 0.37325 -0.03500
S 	S 	0.11391 0.78008 0.34303 -0.04300
H 	H 	0.09010 0.76420 0.33650 0.05800
H 	H 	0.19680 0.81810 0.38610 0.05300
O 	O 	0.41353 0.07840 0.92206 -0.96200
O 	O 	0.42020 0.02749 0.96525 -0.50200
O 	O 	0.47258 0.05763 0.94213 -0.50100
O 	O 	0.46489 0.06694 0.88328 -0.51300
O 	O 	0.41016 0.04700 0.86624 -0.54100
O 	O 	0.34027 0.01096 0.89884 -0.53300
O 	O 	0.34360 0.00235 0.93975 -0.53300
O 	O 	0.37785 0.06998 0.97717 -0.52300
O 	O 	0.39913 0.12543 0.96244 -0.53400
O 	O 	0.46953 0.16444 0.92846 -0.53000
O 	O 	0.49951 0.13591 0.91815 -0.53000
O 	O 	0.39182 0.13802 0.90247 -0.49500
O 	O 	0.36972 0.08977 0.87735 -0.51300
O 	O 	0.18138 0.90448 0.27944 -0.47400
O 	O 	0.23477 0.93111 0.30125 -0.49900
O 	O 	0.26226 0.05221 0.21985 -0.53700
O 	O 	0.27654 0.01669 0.19877 -0.55900
O 	O 	0.30854 0.97640 0.27119 -0.56300
C 	C 	0.45300 0.03730 0.96003 0.39000
C 	C 	0.47210 0.02370 0.97421 -0.09300
C 	C 	0.48524 0.99103 0.00818 0.00700
C 	C 	0.49870 0.16460 0.92402 0.47200
C 	C 	0.53360 0.20020 0.92504 -0.29700
C 	C 	0.56270 0.20160 0.91640 0.22300
H 	H 	0.56170 0.18090 0.90840 -0.03100
C 	C 	0.59550 0.23370 0.91890 -0.26900
H 	H 	0.61770 0.23380 0.91560 0.11900
C 	C 	0.59720 0.26470 0.92584 0.19600
C 	C 	0.56750 0.26300 0.93470 -0.26100
H 	H 	0.56820 0.28410 0.94180 0.11600
C 	C 	0.53420 0.22930 0.93350 0.20800
H 	H 	0.51210 0.22790 0.93910 -0.02500
C 	C 	0.63400 0.30090 0.92690 -0.06800
C 	C 	0.63460 0.33330 0.92790 -0.00100
H 	H 	0.61220 0.33340 0.92930 0.02300
C 	C 	0.44120 0.05310 0.86541 0.43700
C 	C 	0.45480 0.04340 0.84201 -0.14700
C 	C 	0.43000 0.02440 0.82370 0.05800
H 	H 	0.40490 0.01610 0.82680 0.02600
C 	C 	0.44090 0.01680 0.79996 -0.11900
H 	H 	0.42390 0.00380 0.78670 0.07000
C 	C 	0.47870 0.02990 0.79750 0.06200
C 	C 	0.50570 0.04950 0.81650 -0.11600
H 	H 	0.53080 0.05720 0.81400 0.06900
C 	C 	0.49270 0.05680 0.83944 0.05100
H 	H 	0.50920 0.07040 0.85270 0.02700
C 	C 	0.38410 0.10220 0.97970 0.47500
C 	C 	0.37210 0.11140 0.00219 -0.23400
C 	C 	0.35050 0.08740 0.02030 0.14400
H 	H 	0.34120 0.06190 0.01790 -0.00600
C 	C 	0.34180 0.09970 0.04231 -0.19700
H 	H 	0.32750 0.08180 0.05470 0.09500
C 	C 	0.35150 0.13370 0.04753 0.13200
C 	C 	0.37690 0.15770 0.02980 -0.16800
H 	H 	0.38890 0.18320 0.03380 0.08500
C 	C 	0.38660 0.14780 0.00649 0.11800
H 	H 	0.40240 0.16580 0.99450 0.00300
C 	C 	0.34030 0.14430 0.06953 -0.05900
C 	C 	0.32990 0.12350 0.09154 0.02000
H 	H 	0.32920 0.10070 0.09240 0.01200
C 	C 	0.32080 0.13700 0.11176 -0.11700
C 	C 	0.31980 0.16970 0.11150 0.01000
H 	H 	0.31220 0.17760 0.12600 0.01800
C 	C 	0.33060 0.19070 0.08885 -0.05400
C 	C 	0.33950 0.17860 0.06752 -0.01800
H 	H 	0.34500 0.19180 0.05200 0.03300
C 	C 	0.33110 0.22570 0.08724 0.14600
C 	C 	0.33000 0.24020 0.06450 -0.18500
H 	H 	0.32640 0.22660 0.04930 0.09200
C 	C 	0.33440 0.27640 0.06340 0.12400
H 	H 	0.33830 0.28850 0.04750 0.00400
C 	C 	0.33290 0.29270 0.08449 -0.22500
C 	C 	0.33150 0.27690 0.10673 0.14500
H 	H 	0.33080 0.28830 0.12220 -0.00300
C 	C 	0.33100 0.24330 0.10730 -0.20800
H 	H 	0.33050 0.23290 0.12340 0.09900
C 	C 	0.32830 0.99358 0.91852 0.47600
C 	C 	0.30800 0.11390 0.13500 0.31500
C 	C 	0.29360 0.11870 0.15510 -0.37100
H 	H 	0.28950 0.13890 0.15500 0.15200
C 	C 	0.28340 0.09710 0.17741 0.33400
H 	H 	0.27340 0.10350 0.19140 -0.05600
C 	C 	0.28720 0.07000 0.17894 -0.39900
C 	C 	0.30560 0.06680 0.16010 0.31100
H 	H 	0.31460 0.05020 0.16180 -0.05500
C 	C 	0.31270 0.08690 0.13750 -0.37200
H 	H 	0.32150 0.07960 0.12320 0.15100
C 	C 	0.27280 0.04370 0.20086 0.55500
C 	C 	0.20330 0.90720 0.29741 0.36900
C 	C 	0.18570 0.87400 0.31576 -0.04600
C 	C 	0.14760 0.81910 0.33475 0.01900
C 	C 	0.17830 0.83540 0.34873 0.02000
C 	C 	0.13800 0.77900 0.36757 -0.09000
C 	C 	0.37440 0.12090 0.88290 0.40300
C 	C 	0.37480 0.98210 0.26978 0.46500
H 	H 	0.36540 0.98570 0.28520 -0.10400
C 	C 	0.40880 0.98210 0.27072 -0.48700
H 	H 	0.41970 0.98240 0.28660 0.19100
C 	C 	0.49380 0.02340 0.77311 -0.00800
C 	C 	0.52240 0.01640 0.77294 -0.01200
H 	H 	0.53250 0.01430 0.78860 0.02500
Zn	Zn	0.91495 0.37687 0.91686 1.21200
Zn	Zn	0.95512 0.34443 0.95038 1.21200
Zn	Zn	0.87408 0.29226 0.92870 1.21100
Zn	Zn	0.94249 0.32706 0.89177 1.21800
Zn	Zn	0.02546 0.28927 0.28027 1.21800
S 	S 	0.00582 0.45491 0.99970 -0.00900
S 	S 	0.96717 0.48161 0.96942 -0.02900
H 	H 	0.95250 0.48490 0.95720 0.05100
H 	H 	0.01890 0.43740 0.00790 0.03800
C 	C 	0.15970 0.30407 0.30948 -0.04500
S 	S 	0.12511 0.33570 0.33932 -0.06500
H 	H 	0.10820 0.34270 0.34530 0.06600
H 	H 	0.16480 0.29120 0.29680 0.06500
C 	C 	0.18677 0.36595 0.37325 -0.03500
S 	S 	0.21992 0.33383 0.34303 -0.04300
H 	H 	0.23580 0.32590 0.33650 0.05800
H 	H 	0.18190 0.37870 0.38610 0.05300
O 	O 	0.92160 0.33513 0.92206 -0.96200
O 	O 	0.97251 0.39271 0.96525 -0.50200
O 	O 	0.94237 0.41495 0.94213 -0.50100
O 	O 	0.93306 0.39795 0.88328 -0.51300
O 	O 	0.95300 0.36316 0.86624 -0.54100
O 	O 	0.98904 0.32931 0.89884 -0.53300
O 	O 	0.99765 0.34125 0.93975 -0.53300
O 	O 	0.93002 0.30787 0.97717 -0.52300
O 	O 	0.87457 0.27370 0.96244 -0.53400
O 	O 	0.83556 0.30509 0.92846 -0.53000
O 	O 	0.86409 0.36360 0.91815 -0.53000
O 	O 	0.86198 0.25380 0.90247 -0.49500
O 	O 	0.91023 0.27995 0.87735 -0.51300
O 	O 	0.09552 0.27690 0.27944 -0.47400
O 	O 	0.06889 0.30366 0.30125 -0.49900
O 	O 	0.94779 0.21005 0.21985 -0.53700
O 	O 	0.98331 0.25985 0.19877 -0.55900
O 	O 	0.02360 0.33214 0.27119 -0.56300
C 	C 	0.96270 0.41570 0.96003 0.39000
C 	C 	0.97630 0.44840 0.97421 -0.09300
C 	C 	0.00897 0.49421 0.00818 0.00700
C 	C 	0.83540 0.33410 0.92402 0.47200
C 	C 	0.79980 0.33340 0.92504 -0.29700
C 	C 	0.79840 0.36110 0.91640 0.22300
H 	H 	0.81910 0.38080 0.90840 -0.03100
C 	C 	0.76630 0.36180 0.91890 -0.26900
H 	H 	0.76620 0.38390 0.91560 0.11900
C 	C 	0.73530 0.33250 0.92584 0.19600
C 	C 	0.73700 0.30450 0.93470 -0.26100
H 	H 	0.71590 0.28410 0.94180 0.11600
C 	C 	0.77070 0.30490 0.93350 0.20800
H 	H 	0.77210 0.28420 0.93910 -0.02500
C 	C 	0.69910 0.33310 0.92690 -0.06800
C 	C 	0.66670 0.30130 0.92790 -0.00100
H 	H 	0.66660 0.27880 0.92930 0.02300
C 	C 	0.94690 0.38810 0.86541 0.43700
C 	C 	0.95660 0.41140 0.84201 -0.14700
C 	C 	0.97560 0.40560 0.82370 0.05800
H 	H 	0.98390 0.38880 0.82680 0.02600
C 	C 	0.98320 0.42410 0.79996 -0.11900
H 	H 	0.99620 0.42010 0.78670 0.07000
C 	C 	0.97010 0.44880 0.79750 0.06200
C 	C 	0.95050 0.45620 0.81650 -0.11600
H 	H 	0.94280 0.47360 0.81400 0.06900
C 	C 	0.94320 0.43590 0.83944 0.05100
H 	H 	0.92960 0.43880 0.85270 0.02700
C 	C 	0.89780 0.28190 0.97970 0.47500
C 	C 	0.88860 0.26070 0.00219 -0.23400
C 	C 	0.91260 0.26310 0.02030 0.14400
H 	H 	0.93810 0.27930 0.01790 -0.00600
C 	C 	0.90030 0.24210 0.04231 -0.19700
H 	H 	0.91820 0.24570 0.05470 0.09500
C 	C 	0.86630 0.21780 0.04753 0.13200
C 	C 	0.84230 0.21920 0.02980 -0.16800
H 	H 	0.81680 0.20570 0.03380 0.08500
C 	C 	0.85220 0.23880 0.00649 0.11800
H 	H 	0.83420 0.23660 0.99450 0.00300
C 	C 	0.85570 0.19600 0.06953 -0.05900
C 	C 	0.87650 0.20640 0.09154 0.02000
H 	H 	0.89930 0.22850 0.09240 0.01200
C 	C 	0.86300 0.18380 0.11176 -0.11700
C 	C 	0.83030 0.15010 0.11150 0.01000
H 	H 	0.82240 0.13460 0.12600 0.01800
C 	C 	0.80930 0.13990 0.08885 -0.05400
C 	C 	0.82140 0.16090 0.06752 -0.01800
H 	H 	0.80820 0.15320 0.05200 0.03300
C 	C 	0.77430 0.10540 0.08724 0.14600
C 	C 	0.75980 0.08980 0.06450 -0.18500
H 	H 	0.77340 0.09980 0.04930 0.09200
C 	C 	0.72360 0.05800 0.06340 0.12400
H 	H 	0.71150 0.04980 0.04750 0.00400
C 	C 	0.70730 0.04020 0.08449 -0.22500
C 	C 	0.72310 0.05460 0.10673 0.14500
H 	H 	0.71170 0.04250 0.12220 -0.00300
C 	C 	0.75670 0.08770 0.10730 -0.20800
H 	H 	0.76710 0.09760 0.12340 0.09900
C 	C 	0.00642 0.33472 0.91852 0.47600
C 	C 	0.88610 0.19410 0.13500 0.31500
C 	C 	0.88130 0.17490 0.15510 -0.37100
H 	H 	0.86110 0.15060 0.15500 0.15200
C 	C 	0.90290 0.18630 0.17741 0.33400
H 	H 	0.89650 0.16990 0.19140 -0.05600
C 	C 	0.93000 0.21720 0.17894 -0.39900
C 	C 	0.93320 0.23880 0.16010 0.31100
H 	H 	0.94980 0.26440 0.16180 -0.05500
C 	C 	0.91310 0.22580 0.13750 -0.37200
H 	H 	0.92040 0.24190 0.12320 0.15100
C 	C 	0.95630 0.22910 0.20086 0.55500
C 	C 	0.09280 0.29610 0.29741 0.36900
C 	C 	0.12600 0.31170 0.31576 -0.04600
C 	C 	0.18090 0.32850 0.33475 0.01900
C 	C 	0.16460 0.34290 0.34873 0.02000
C 	C 	0.22100 0.35900 0.36757 -0.09000
C 	C 	0.87910 0.25350 0.88290 0.40300
C 	C 	0.01790 0.39270 0.26978 0.46500
H 	H 	0.01430 0.37970 0.28520 -0.10400
C 	C 	0.01790 0.42670 0.27072 -0.48700
H 	H 	0.01760 0.43730 0.28660 0.19100
C 	C 	0.97660 0.47040 0.77311 -0.00800
C 	C 	0.98360 0.50600 0.77294 -0.01200
H 	H 	0.98570 0.51820 0.78860 0.02500
Zn	Zn	0.74631 0.81050 0.25000 1.23200
Zn	Zn	0.78396 0.76052 0.25000 1.23700
O 	O 	0.73828 0.76108 0.25000 -0.96100
O 	O 	0.82353 0.81100 0.25000 -0.94000
O 	O 	0.79839 0.84576 0.25000 -1.09200
C 	C 	0.65420 0.67730 0.25000 0.60000
C 	C 	0.62070 0.64310 0.25000 -0.57900
C 	C 	0.55770 0.57590 0.25000 0.39800
C 	C 	0.52410 0.53660 0.25000 -0.11100
C 	C 	0.86290 0.87470 0.25000 -5.97500
C 	C 	0.86330 0.90300 0.25000 5.95100
H 	H 	0.84120 0.90390 0.25000 -1.89900
C 	C 	0.89890 0.93610 0.25000 -5.30800
H 	H 	0.90020 0.95930 0.25000 1.79400
C 	C 	0.92910 0.93470 0.25000 5.60400
C 	C 	0.92570 0.90370 0.25000 -6.06500
H 	H 	0.94700 0.90140 0.25000 2.05900
C 	C 	0.89110 0.87200 0.25000 6.13600
H 	H 	0.88900 0.84850 0.25000 -1.94800
C 	C 	0.96580 0.96880 0.25000 -3.76400
C 	C 	0.99770 0.96550 0.25000 3.40400
H 	H 	0.99580 0.94210 0.25000 -1.32700
C 	C 	0.82500 0.84230 0.25000 2.48900
Zn	Zn	0.18950 0.93581 0.25000 1.23200
Zn	Zn	0.23948 0.02344 0.25000 1.23700
O 	O 	0.23892 0.97720 0.25000 -0.96100
O 	O 	0.18900 0.01253 0.25000 -0.94000
O 	O 	0.15424 0.95263 0.25000 -1.09200
C 	C 	0.32270 0.97690 0.25000 0.60000
C 	C 	0.35690 0.97760 0.25000 -0.57900
C 	C 	0.42410 0.98180 0.25000 0.39800
C 	C 	0.46340 0.98750 0.25000 -0.11000
C 	C 	0.12530 0.98820 0.25000 -5.97500
C 	C 	0.09700 0.96030 0.25000 5.95100
H 	H 	0.09610 0.93730 0.25000 -1.89900
C 	C 	0.06390 0.96280 0.25000 -5.30700
H 	H 	0.04070 0.94090 0.25000 1.79400
C 	C 	0.06530 0.99440 0.25000 5.60400
C 	C 	0.09630 0.02200 0.25000 -6.06500
H 	H 	0.09860 0.04560 0.25000 2.05900
C 	C 	0.12800 0.01910 0.25000 6.13600
H 	H 	0.15150 0.04050 0.25000 -1.94800
C 	C 	0.03120 0.99700 0.25000 -3.76400
C 	C 	0.03450 0.03220 0.25000 3.40400
H 	H 	0.05790 0.05370 0.25000 -1.32700
C 	C 	0.15770 0.98270 0.25000 2.48900
Zn	Zn	0.06419 0.25369 0.25000 1.23200
Zn	Zn	0.97656 0.21604 0.25000 1.23700
O 	O 	0.02280 0.26172 0.25000 -0.96100
O 	O 	0.98747 0.17647 0.25000 -0.94000
O 	O 	0.04737 0.20161 0.25000 -1.09200
C 	C 	0.02310 0.34580 0.25000 0.60000
C 	C 	0.02240 0.37930 0.25000 -0.57900
C 	C 	0.01820 0.44230 0.25000 0.39800
C 	C 	0.01250 0.47590 0.25000 -0.11000
C 	C 	0.01180 0.13710 0.25000 -5.97500
C 	C 	0.03970 0.13670 0.25000 5.95100
H 	H 	0.06270 0.15880 0.25000 -1.89900
C 	C 	0.03720 0.10110 0.25000 -5.30800
H 	H 	0.05910 0.09980 0.25000 1.79400
C 	C 	0.00560 0.07090 0.25000 5.60400
C 	C 	0.97800 0.07430 0.25000 -6.06500
H 	H 	0.95440 0.05300 0.25000 2.05900
C 	C 	0.98090 0.10890 0.25000 6.13600
H 	H 	0.95950 0.11100 0.25000 -1.94800
C 	C 	0.00300 0.03420 0.25000 -3.76400
C 	C 	0.96780 0.00230 0.25000 3.40400
H 	H 	0.94630 0.00420 0.25000 -1.32700
C 	C 	0.01730 0.17500 0.25000 2.48900
Zn	Zn	0.25369 0.18950 0.75000 1.23200
Zn	Zn	0.21604 0.23948 0.75000 1.23700
O 	O 	0.26172 0.23892 0.75000 -0.96100
O 	O 	0.17647 0.18900 0.75000 -0.94000
O 	O 	0.20161 0.15424 0.75000 -1.09200
C 	C 	0.34580 0.32270 0.75000 0.60000
C 	C 	0.37930 0.35690 0.75000 -0.57900
C 	C 	0.44230 0.42410 0.75000 0.39800
C 	C 	0.47590 0.46340 0.75000 -0.11100
C 	C 	0.13710 0.12530 0.75000 -5.97500
C 	C 	0.13670 0.09700 0.75000 5.95100
H 	H 	0.15880 0.09610 0.75000 -1.89900
C 	C 	0.10110 0.06390 0.75000 -5.30800
H 	H 	0.09980 0.04070 0.75000 1.79400
C 	C 	0.07090 0.06530 0.75000 5.60400
C 	C 	0.07430 0.09630 0.75000 -6.06500
H 	H 	0.05300 0.09860 0.75000 2.05900
C 	C 	0.10890 0.12800 0.75000 6.13600
H 	H 	0.11100 0.15150 0.75000 -1.94800
C 	C 	0.03420 0.03120 0.75000 -3.76400
C 	C 	0.00230 0.03450 0.75000 3.40400
H 	H 	0.00420 0.05790 0.75000 -1.32700
C 	C 	0.17500 0.15770 0.75000 2.48900
Zn	Zn	0.81050 0.06419 0.75000 1.23200
Zn	Zn	0.76052 0.97656 0.75000 1.23700
O 	O 	0.76108 0.02280 0.75000 -0.96100
O 	O 	0.81100 0.98747 0.75000 -0.94000
O 	O 	0.84576 0.04737 0.75000 -1.09200
C 	C 	0.67730 0.02310 0.75000 0.60000
C 	C 	0.64310 0.02240 0.75000 -0.57900
C 	C 	0.57590 0.01820 0.75000 0.39800
C 	C 	0.53660 0.01250 0.75000 -0.11000
C 	C 	0.87470 0.01180 0.75000 -5.97500
C 	C 	0.90300 0.03970 0.75000 5.95100
H 	H 	0.90390 0.06270 0.75000 -1.89900
C 	C 	0.93610 0.03720 0.75000 -5.30700
H 	H 	0.95930 0.05910 0.75000 1.79400
C 	C 	0.93470 0.00560 0.75000 5.60400
C 	C 	0.90370 0.97800 0.75000 -6.06500
H 	H 	0.90140 0.95440 0.75000 2.05900
C 	C 	0.87200 0.98090 0.75000 6.13600
H 	H 	0.84850 0.95950 0.75000 -1.94800
C 	C 	0.96880 0.00300 0.75000 -3.76400
C 	C 	0.96550 0.96780 0.75000 3.40400
H 	H 	0.94210 0.94630 0.75000 -1.32700
C 	C 	0.84230 0.01730 0.75000 2.48900
Zn	Zn	0.93581 0.74631 0.75000 1.23200
Zn	Zn	0.02344 0.78396 0.75000 1.23700
O 	O 	0.97720 0.73828 0.75000 -0.96100
O 	O 	0.01253 0.82353 0.75000 -0.94000
O 	O 	0.95263 0.79839 0.75000 -1.09200
C 	C 	0.97690 0.65420 0.75000 0.60000
C 	C 	0.97760 0.62070 0.75000 -0.57900
C 	C 	0.98180 0.55770 0.75000 0.39800
C 	C 	0.98750 0.52410 0.75000 -0.11000
C 	C 	0.98820 0.86290 0.75000 -5.97500
C 	C 	0.96030 0.86330 0.75000 5.95100
H 	H 	0.93730 0.84120 0.75000 -1.89900
C 	C 	0.96280 0.89890 0.75000 -5.30800
H 	H 	0.94090 0.90020 0.75000 1.79400
C 	C 	0.99440 0.92910 0.75000 5.60400
C 	C 	0.02200 0.92570 0.75000 -6.06500
H 	H 	0.04560 0.94700 0.75000 2.05900
C 	C 	0.01910 0.89110 0.75000 6.13600
H 	H 	0.04050 0.88900 0.75000 -1.94800
C 	C 	0.99700 0.96580 0.75000 -3.76400
C 	C 	0.03220 0.99770 0.75000 3.40400
H 	H 	0.05370 0.99580 0.75000 -1.32700
C 	C 	0.98270 0.82500 0.75000 2.48900
C 	C 	0.54670 0.52270 0.75000 -0.05800
H 	H 	0.56960 0.54480 0.75000 0.05000
C 	C 	0.47730 0.02400 0.75000 -0.05800
H 	H 	0.45520 0.02480 0.75000 0.05000
C 	C 	0.97600 0.45330 0.75000 -0.05800
H 	H 	0.97520 0.43040 0.75000 0.05000
C 	C 	0.45330 0.47730 0.25000 -0.05800
H 	H 	0.43040 0.45520 0.25000 0.05000
C 	C 	0.52270 0.97600 0.25000 -0.05800
H 	H 	0.54480 0.97520 0.25000 0.05000
C 	C 	0.02400 0.54670 0.25000 -0.05800
H 	H 	0.02480 0.56960 0.25000 0.05000
