data_crystal

_cell_length_a 17.35140
_cell_length_b 9.50750
_cell_length_c 9.80650
_cell_angle_alpha 90.00000
_cell_angle_beta  102.68200
_cell_angle_gamma 90.00000

_symmetry_space_group_name_	'P 1'
_symmetry_space_group_name_H-M	'P 1'

loop_
_symmetry_equiv_pos_as_xyz
  x,y,z

loop_
_atom_site_label
_atom_site_type_symbol
_atom_site_fract_x
_atom_site_fract_y
_atom_site_fract_z
_atom_site_charge
Zn	Zn	0.17892 0.07950 0.37523 1.24300
P 	P 	0.31043 0.32213 0.31876 0.56400
O 	O 	0.25060 0.20870 0.31930 -0.44200
O 	O 	0.31310 0.43810 0.42650 -0.45800
O 	O 	0.29700 0.38580 0.17180 -0.39900
O 	O 	0.07412 0.13510 0.26530 -0.39900
O 	O 	0.39360 0.24510 0.34990 -0.40000
H 	H 	0.42870 0.30310 0.35080 0.21300
O 	O 	0.99110 0.94570 0.12040 -0.34700
H 	H 	0.03070 0.89680 0.12830 0.17200
Zn	Zn	0.67892 0.57950 0.37523 1.24500
P 	P 	0.81043 0.82213 0.31876 0.56400
O 	O 	0.75060 0.70870 0.31930 -0.43700
O 	O 	0.81310 0.93810 0.42650 -0.45400
O 	O 	0.79700 0.88580 0.17180 -0.39200
O 	O 	0.57412 0.63510 0.26530 -0.39700
O 	O 	0.89360 0.74510 0.34990 -0.38800
H 	H 	0.92870 0.80310 0.35080 0.20700
O 	O 	0.49110 0.44570 0.12040 -0.43800
H 	H 	0.53070 0.39680 0.12830 0.23100
Zn	Zn	0.82108 0.07950 0.12477 1.24300
P 	P 	0.68957 0.32213 0.18124 0.56500
O 	O 	0.74940 0.20870 0.18070 -0.43900
O 	O 	0.68690 0.43810 0.07350 -0.45500
O 	O 	0.70300 0.38580 0.32820 -0.39500
O 	O 	0.92588 0.13510 0.23470 -0.37200
O 	O 	0.60640 0.24510 0.15010 -0.40100
H 	H 	0.57130 0.30310 0.14920 0.21300
O 	O 	0.00890 0.94570 0.37960 -0.48700
H 	H 	0.96930 0.89680 0.37170 0.27700
Zn	Zn	0.32108 0.57950 0.12477 1.24500
P 	P 	0.18957 0.82213 0.18124 0.56800
O 	O 	0.24940 0.70870 0.18070 -0.44000
O 	O 	0.18690 0.93810 0.07350 -0.45200
O 	O 	0.20300 0.88580 0.32820 -0.39700
O 	O 	0.42588 0.63510 0.23470 -0.39700
O 	O 	0.10640 0.74510 0.15010 -0.41400
H 	H 	0.07130 0.80310 0.14920 0.22500
O 	O 	0.50890 0.44570 0.37960 -0.43800
H 	H 	0.46930 0.39680 0.37170 0.23100
Zn	Zn	0.82108 0.92050 0.62477 1.24400
P 	P 	0.68957 0.67787 0.68124 0.56500
O 	O 	0.74940 0.79130 0.68070 -0.43900
O 	O 	0.68690 0.56190 0.57350 -0.45500
O 	O 	0.70300 0.61420 0.82820 -0.39600
O 	O 	0.92588 0.86490 0.73470 -0.37200
O 	O 	0.60640 0.75490 0.65010 -0.40000
H 	H 	0.57130 0.69690 0.64920 0.21300
O 	O 	0.00890 0.05430 0.87960 -0.48200
H 	H 	0.96930 0.10320 0.87170 0.27500
Zn	Zn	0.32108 0.42050 0.62477 1.24500
P 	P 	0.18957 0.17787 0.68124 0.56800
O 	O 	0.24940 0.29130 0.68070 -0.44000
O 	O 	0.18690 0.06190 0.57350 -0.45600
O 	O 	0.20300 0.11420 0.82820 -0.39500
O 	O 	0.42588 0.36490 0.73470 -0.39800
O 	O 	0.10640 0.25490 0.65010 -0.41400
H 	H 	0.07130 0.19690 0.64920 0.22400
O 	O 	0.50890 0.55430 0.87960 -0.43800
H 	H 	0.46930 0.60320 0.87170 0.23100
Zn	Zn	0.17892 0.92050 0.87523 1.24300
P 	P 	0.31043 0.67787 0.81876 0.56500
O 	O 	0.25060 0.79130 0.81930 -0.44200
O 	O 	0.31310 0.56190 0.92650 -0.45700
O 	O 	0.29700 0.61420 0.67180 -0.39800
O 	O 	0.07412 0.86490 0.76530 -0.39900
O 	O 	0.39360 0.75490 0.84990 -0.40100
H 	H 	0.42870 0.69690 0.85080 0.21300
O 	O 	0.99110 0.05430 0.62040 -0.35100
H 	H 	0.03070 0.10320 0.62830 0.17300
Zn	Zn	0.67892 0.42050 0.87523 1.24500
P 	P 	0.81043 0.17787 0.81876 0.56400
O 	O 	0.75060 0.29130 0.81930 -0.43700
O 	O 	0.81310 0.06190 0.92650 -0.45200
O 	O 	0.79700 0.11420 0.67180 -0.39500
O 	O 	0.57412 0.36490 0.76530 -0.39800
O 	O 	0.89360 0.25490 0.84990 -0.38800
H 	H 	0.92870 0.19690 0.85080 0.20700
O 	O 	0.49110 0.55430 0.62040 -0.43800
H 	H 	0.53070 0.60320 0.62830 0.23100
P 	P 	-0.00000 0.04456 0.25000 0.48700
P 	P 	0.50000 0.54456 0.25000 0.54700
P 	P 	0.00000 0.95544 0.75000 0.48600
P 	P 	0.50000 0.45544 0.75000 0.54700
