data_crystal

_cell_length_a 43.65200
_cell_length_b 43.65200
_cell_length_c 11.45120
_cell_angle_alpha 90.00000
_cell_angle_beta  90.00000
_cell_angle_gamma 120.00000

_symmetry_space_group_name_	'P 1'
_symmetry_space_group_name_H-M	'P 1'

loop_
_symmetry_equiv_pos_as_xyz
  x,y,z

loop_
_atom_site_label
_atom_site_type_symbol
_atom_site_fract_x
_atom_site_fract_y
_atom_site_fract_z
_atom_site_charge
Zn	Zn	0.88858 0.71612 0.17876 1.20500
Zn	Zn	0.71152 0.82460 0.59491 1.20200
N 	N 	0.88770 0.66630 0.19640 -0.22100
N 	N 	0.84200 0.68940 0.26960 -0.26000
N 	N 	0.65790 0.78060 0.57640 -0.21600
O 	O 	0.90520 0.71920 0.01640 -0.49400
O 	O 	0.87940 0.75570 0.15480 -0.45200
O 	O 	0.74960 0.87450 0.62660 -0.45700
O 	O 	0.71620 0.81190 0.75590 -0.43700
N 	N 	0.00690 0.61080 0.78640 -0.13600
C 	C 	0.02450 0.64750 0.77900 0.07500
H 	H 	0.04840 0.66010 0.75340 0.00000
C 	C 	0.00710 0.66570 0.80900 -0.15600
H 	H 	0.01910 0.69080 0.80390 0.08400
C 	C 	0.97210 0.64730 0.84640 0.12300
C 	C 	0.95450 0.61060 0.85380 -0.15300
H 	H 	0.93060 0.59790 0.87940 0.07400
C 	C 	0.97190 0.59230 0.82380 0.07600
H 	H 	0.95990 0.56730 0.82890 0.00200
C 	C 	0.96690 0.76120 0.87400 0.67700
C 	C 	0.95280 0.66660 0.88680 -0.12400
C 	C 	0.92370 0.64954 0.96040 0.09700
H 	H 	0.91460 0.62530 0.97960 -0.00600
C 	C 	0.90810 0.66790 0.00600 -0.21200
C 	C 	0.92150 0.70330 0.97790 0.35000
C 	C 	0.95060 0.72039 0.90430 -0.33100
C 	C 	0.96620 0.70200 0.85870 0.13700
H 	H 	0.98610 0.71370 0.80840 -0.02700
C 	C 	0.97990 0.78470 0.97800 -0.86800
H 	H 	0.99760 0.78120 0.01840 0.25700
H 	H 	0.99050 0.80940 0.95250 0.25500
H 	H 	0.96000 0.77900 0.03030 0.25300
C 	C 	0.93930 0.76630 0.81000 -0.92900
H 	H 	0.93080 0.75070 0.74140 0.28800
H 	H 	0.91930 0.76060 0.86190 0.29900
H 	H 	0.94980 0.79100 0.78410 0.26800
C 	C 	0.99880 0.77410 0.79300 -0.90700
H 	H 	0.99180 0.75950 0.72220 0.28600
H 	H 	0.00740 0.79880 0.77140 0.26600
H 	H 	0.01760 0.77220 0.83300 0.28100
C 	C 	0.87750 0.64970 0.08740 0.03700
H 	H 	0.85700 0.65120 0.05720 -0.02900
H 	H 	0.87040 0.62440 0.09470 0.01200
C 	C 	0.86530 0.64910 0.30390 -0.01600
H 	H 	0.87900 0.66340 0.37310 0.02500
C 	C 	0.85770 0.61240 0.32300 -0.09600
H 	H 	0.87990 0.61150 0.32070 0.04500
H 	H 	0.84170 0.59660 0.26130 0.03800
C 	C 	0.83910 0.59980 0.45000 -0.10200
H 	H 	0.83490 0.57590 0.46930 0.03800
H 	H 	0.85420 0.61650 0.51150 0.05600
C 	C 	0.80260 0.59960 0.43900 -0.05700
H 	H 	0.78820 0.58340 0.37540 0.02100
H 	H 	0.78910 0.59110 0.51280 0.02800
C 	C 	0.81010 0.63660 0.41300 -0.12800
H 	H 	0.82400 0.65240 0.47820 0.06200
H 	H 	0.78740 0.63660 0.40820 0.05500
C 	C 	0.83070 0.65110 0.29790 -0.00000
H 	H 	0.81590 0.63580 0.23220 0.02200
C 	C 	0.83000 0.73800 0.28310 -0.15600
C 	C 	0.80630 0.74610 0.33620 0.03000
H 	H 	0.78830 0.72930 0.38600 0.01700
C 	C 	0.80890 0.77870 0.31660 -0.08900
C 	C 	0.83520 0.80330 0.24390 0.06700
H 	H 	0.83700 0.82560 0.23050 -0.02000
C 	C 	0.85890 0.79520 0.19070 -0.25300
C 	C 	0.85640 0.76260 0.21030 0.25200
C 	C 	0.88900 0.82300 0.10980 0.50400
C 	C 	0.88610 0.80740 0.98400 -0.71300
H 	H 	0.86290 0.80070 0.95020 0.21500
H 	H 	0.90480 0.82530 0.93400 0.20700
H 	H 	0.88890 0.78650 0.98810 0.24000
C 	C 	0.92420 0.83290 0.15900 -0.81000
H 	H 	0.94280 0.85020 0.10790 0.22800
H 	H 	0.92650 0.84330 0.23690 0.24100
H 	H 	0.92660 0.81180 0.16540 0.25600
C 	C 	0.88540 0.85720 0.10100 -0.71000
H 	H 	0.86220 0.85090 0.06850 0.19600
H 	H 	0.88780 0.86740 0.17900 0.20800
H 	H 	0.90410 0.87460 0.05010 0.19300
C 	C 	0.78340 0.78820 0.38080 0.08000
C 	C 	0.75760 0.76450 0.45700 -0.13900
H 	H 	0.75520 0.74190 0.47010 0.07600
C 	C 	0.73540 0.77400 0.51390 0.04700
H 	H 	0.71780 0.75780 0.56600 -0.00700
N 	N 	0.73900 0.80700 0.49470 -0.25900
C 	C 	0.76470 0.83070 0.41860 0.04000
H 	H 	0.76720 0.85330 0.40540 -0.01500
C 	C 	0.78700 0.82130 0.36160 -0.14000
H 	H 	0.80460 0.83750 0.30960 0.05500
C 	C 	0.81690 0.93080 0.68730 0.48200
N 	N 	0.81140 0.06630 0.27970 -0.25600
C 	C 	0.83190 0.06490 0.37010 0.04700
H 	H 	0.85310 0.08570 0.39260 -0.01600
C 	C 	0.82150 0.03320 0.42760 -0.14600
H 	H 	0.83550 0.03220 0.48940 0.05800
C 	C 	0.79050 0.00280 0.39480 0.08600
C 	C 	0.77000 0.00420 0.30440 -0.13400
H 	H 	0.74890 0.98350 0.28190 0.06800
C 	C 	0.78050 0.03600 0.24690 0.04100
H 	H 	0.76640 0.03700 0.18510 -0.01000
C 	C 	0.80010 0.92030 0.80800 -0.76800
H 	H 	0.81670 0.91900 0.86240 0.22500
H 	H 	0.79430 0.93810 0.83580 0.22700
H 	H 	0.77840 0.89720 0.80380 0.25200
C 	C 	0.77990 0.96810 0.46190 -0.10300
C 	C 	0.74710 0.93890 0.43650 0.04600
H 	H 	0.73200 0.94080 0.38130 0.00900
C 	C 	0.73660 0.90680 0.49200 -0.18000
C 	C 	0.75880 0.90400 0.57280 0.29000
C 	C 	0.79160 0.93320 0.59820 -0.26700
C 	C 	0.80210 0.96530 0.54270 0.07800
H 	H 	0.82450 0.98530 0.56010 -0.02400
C 	C 	0.82940 0.90470 0.63900 -0.70500
H 	H 	0.83990 0.91260 0.56170 0.21400
H 	H 	0.84700 0.90470 0.69260 0.20100
H 	H 	0.80900 0.88070 0.63380 0.22200
C 	C 	0.85260 0.96720 0.70600 -0.68400
H 	H 	0.86480 0.97550 0.63100 0.20100
H 	H 	0.84710 0.98480 0.73730 0.19100
H 	H 	0.86780 0.96380 0.76100 0.19400
C 	C 	0.70440 0.87650 0.45190 0.08700
H 	H 	0.69100 0.88260 0.40150 0.00400
C 	C 	0.65930 0.81730 0.41830 0.01400
H 	H 	0.66650 0.80440 0.36260 0.01700
C 	C 	0.63600 0.82800 0.35030 -0.12300
H 	H 	0.62650 0.83900 0.40430 0.05400
H 	H 	0.65040 0.84580 0.29050 0.05500
C 	C 	0.60570 0.79630 0.29160 -0.07900
H 	H 	0.59130 0.80400 0.24720 0.03000
H 	H 	0.61520 0.78590 0.23560 0.04500
C 	C 	0.58310 0.76920 0.37800 -0.05800
H 	H 	0.56440 0.74810 0.33710 0.02100
H 	H 	0.57140 0.77870 0.42890 0.01800
C 	C 	0.60560 0.75870 0.45230 -0.12900
H 	H 	0.59050 0.74150 0.51260 0.04200
H 	H 	0.61530 0.74720 0.40210 0.06600
C 	C 	0.63520 0.79030 0.51020 0.00300
H 	H 	0.62550 0.80150 0.56350 0.01600
C 	C 	0.64250 0.76790 0.69610 -0.06100
H 	H 	0.61780 0.74840 0.68850 0.04200
H 	H 	0.64230 0.78750 0.73910 0.01700
C 	C 	0.66410 0.75460 0.76700 -0.09400
C 	C 	0.69960 0.77650 0.79350 0.21000
C 	C 	0.71725 0.76390 0.86190 -0.26700
C 	C 	0.69930 0.72940 0.90390 0.08300
H 	H 	0.71130 0.72080 0.95070 -0.00700
C 	C 	0.66370 0.70750 0.87740 -0.07500
C 	C 	0.64611 0.72010 0.80890 0.00800
H 	H 	0.62180 0.70520 0.79080 0.01400
C 	C 	0.75760 0.78870 0.89390 0.65700
C 	C 	0.82190 0.70070 0.30300 0.07000
H 	H 	0.80060 0.68490 0.34210 0.00900
C 	C 	0.76310 0.82010 0.96000 -0.93800
H 	H 	0.75400 0.83290 0.91400 0.30400
H 	H 	0.75050 0.81270 0.03430 0.28100
H 	H 	0.78840 0.83570 0.97400 0.27900
C 	C 	0.77800 0.79960 0.77800 -0.90000
H 	H 	0.77410 0.77840 0.73550 0.27800
H 	H 	0.76970 0.81270 0.73050 0.27600
H 	H 	0.80330 0.81470 0.79370 0.26200
C 	C 	0.77230 0.77000 0.96930 -0.85700
H 	H 	0.76910 0.74880 0.92860 0.27000
H 	H 	0.79760 0.78600 0.98370 0.25900
H 	H 	0.75960 0.76300 0.04390 0.25600
C 	C 	0.64370 0.66901 0.91780 0.10100
C 	C 	0.60750 0.64880 0.89880 -0.13700
H 	H 	0.59510 0.65920 0.86440 0.06100
C 	C 	0.58935 0.61330 0.93000 0.06600
H 	H 	0.56460 0.59940 0.91700 0.00500
N 	N 	0.60750 0.59800 0.98030 -0.13500
C 	C 	0.64370 0.61820 0.99930 0.09900
H 	H 	0.65610 0.60770 0.03370 -0.02300
C 	C 	0.66182 0.65370 0.96810 -0.15300
H 	H 	0.68660 0.66750 0.98110 0.08700
N 	N 	0.69070 0.84460 0.46900 -0.25800
Zn	Zn	0.28388 0.17246 0.17876 1.20400
Zn	Zn	0.17540 0.88692 0.59491 1.20100
N 	N 	0.33370 0.22140 0.19640 -0.22200
N 	N 	0.31060 0.15260 0.26960 -0.26100
N 	N 	0.21940 0.87730 0.57640 -0.21700
O 	O 	0.28080 0.18600 0.01640 -0.49600
O 	O 	0.24430 0.12370 0.15480 -0.45300
O 	O 	0.12550 0.87510 0.62660 -0.45700
O 	O 	0.18810 0.90430 0.75590 -0.43600
N 	N 	0.38920 0.39610 0.78640 -0.13300
C 	C 	0.35250 0.37700 0.77900 0.07100
H 	H 	0.33990 0.38830 0.75340 0.00100
C 	C 	0.33430 0.34140 0.80900 -0.14600
H 	H 	0.30920 0.32830 0.80390 0.08200
C 	C 	0.35270 0.32480 0.84640 0.11500
C 	C 	0.38940 0.34390 0.85380 -0.14700
H 	H 	0.40210 0.33270 0.87940 0.07200
C 	C 	0.40770 0.37960 0.82380 0.06900
H 	H 	0.43270 0.39260 0.82890 0.00400
C 	C 	0.23880 0.20570 0.87400 0.69000
C 	C 	0.33340 0.28620 0.88680 -0.12300
C 	C 	0.35046 0.27416 0.96040 0.09600
H 	H 	0.37470 0.28930 0.97960 -0.00600
C 	C 	0.33210 0.24020 0.00600 -0.21200
C 	C 	0.29670 0.21820 0.97790 0.35200
C 	C 	0.27961 0.23021 0.90430 -0.33600
C 	C 	0.29800 0.26420 0.85870 0.13800
H 	H 	0.28630 0.27240 0.80840 -0.02900
C 	C 	0.21530 0.19520 0.97800 -0.87800
H 	H 	0.21880 0.21640 0.01840 0.25900
H 	H 	0.19060 0.18110 0.95250 0.25600
H 	H 	0.22100 0.18100 0.03030 0.25500
C 	C 	0.23370 0.17300 0.81000 -0.93900
H 	H 	0.24930 0.18010 0.74140 0.29100
H 	H 	0.23940 0.15870 0.86190 0.30200
H 	H 	0.20900 0.15880 0.78410 0.27100
C 	C 	0.22590 0.22470 0.79300 -0.94300
H 	H 	0.24050 0.23230 0.72220 0.29500
H 	H 	0.20120 0.20860 0.77140 0.28000
H 	H 	0.22780 0.24540 0.83300 0.29400
C 	C 	0.35030 0.22780 0.08740 0.03700
H 	H 	0.34880 0.20580 0.05720 -0.02900
H 	H 	0.37560 0.24600 0.09470 0.01200
C 	C 	0.35090 0.21620 0.30390 -0.01600
H 	H 	0.33660 0.21560 0.37310 0.02500
C 	C 	0.38760 0.24530 0.32300 -0.09600
H 	H 	0.38850 0.26840 0.32070 0.04500
H 	H 	0.40340 0.24510 0.26130 0.03800
C 	C 	0.40020 0.23930 0.45000 -0.10200
H 	H 	0.42410 0.25900 0.46930 0.03800
H 	H 	0.38350 0.23770 0.51150 0.05600
C 	C 	0.40040 0.20300 0.43900 -0.05700
H 	H 	0.41660 0.20480 0.37540 0.02100
H 	H 	0.40890 0.19800 0.51280 0.02800
C 	C 	0.36340 0.17350 0.41300 -0.12800
H 	H 	0.34760 0.17160 0.47820 0.06200
H 	H 	0.36340 0.15080 0.40820 0.05500
C 	C 	0.34890 0.17960 0.29790 -0.00000
H 	H 	0.36420 0.18010 0.23220 0.02200
C 	C 	0.26200 0.09200 0.28310 -0.15500
C 	C 	0.25390 0.06020 0.33620 0.02900
H 	H 	0.27070 0.05900 0.38600 0.01800
C 	C 	0.22130 0.03020 0.31660 -0.08400
C 	C 	0.19670 0.03190 0.24390 0.06500
H 	H 	0.17440 0.01140 0.23050 -0.01800
C 	C 	0.20480 0.06370 0.19070 -0.25200
C 	C 	0.23740 0.09380 0.21030 0.25100
C 	C 	0.17700 0.06600 0.10980 0.50500
C 	C 	0.19260 0.07870 0.98400 -0.71400
H 	H 	0.19930 0.06220 0.95020 0.21500
H 	H 	0.17470 0.07950 0.93400 0.20700
H 	H 	0.21350 0.10240 0.98810 0.24000
C 	C 	0.16710 0.09130 0.15900 -0.81000
H 	H 	0.14980 0.09260 0.10790 0.22800
H 	H 	0.15670 0.08320 0.23690 0.24100
H 	H 	0.18820 0.11480 0.16540 0.25500
C 	C 	0.14280 0.02820 0.10100 -0.71200
H 	H 	0.14910 0.01130 0.06850 0.19800
H 	H 	0.13260 0.02040 0.17900 0.20900
H 	H 	0.12540 0.02950 0.05010 0.19400
C 	C 	0.21180 0.99520 0.38080 0.07800
C 	C 	0.23550 0.99310 0.45700 -0.14700
H 	H 	0.25810 0.01330 0.47010 0.08100
C 	C 	0.22600 0.96140 0.51390 0.05100
H 	H 	0.24220 0.96000 0.56600 -0.00900
N 	N 	0.19300 0.93200 0.49470 -0.25900
C 	C 	0.16930 0.93400 0.41860 0.04000
H 	H 	0.14670 0.91390 0.40540 -0.01500
C 	C 	0.17870 0.96570 0.36160 -0.14000
H 	H 	0.16250 0.96710 0.30960 0.05300
C 	C 	0.06920 0.88610 0.68730 0.48100
N 	N 	0.93370 0.74510 0.27970 -0.25600
C 	C 	0.93510 0.76700 0.37010 0.04700
H 	H 	0.91430 0.76740 0.39260 -0.01600
C 	C 	0.96680 0.78830 0.42760 -0.14600
H 	H 	0.96780 0.80330 0.48940 0.05800
C 	C 	0.99720 0.78770 0.39480 0.08600
C 	C 	0.99580 0.76580 0.30440 -0.13400
H 	H 	0.01650 0.76540 0.28190 0.06800
C 	C 	0.96400 0.74450 0.24690 0.04100
H 	H 	0.96300 0.72940 0.18510 -0.01000
C 	C 	0.07970 0.87980 0.80800 -0.76600
H 	H 	0.08100 0.89770 0.86240 0.22400
H 	H 	0.06190 0.85620 0.83580 0.22700
H 	H 	0.10280 0.88120 0.80380 0.25100
C 	C 	0.03190 0.81180 0.46190 -0.10200
C 	C 	0.06110 0.80820 0.43650 0.04600
H 	H 	0.05920 0.79120 0.38130 0.00900
C 	C 	0.09320 0.82980 0.49200 -0.18000
C 	C 	0.09600 0.85480 0.57280 0.28900
C 	C 	0.06680 0.85840 0.59820 -0.26700
C 	C 	0.03470 0.83680 0.54270 0.07700
H 	H 	0.01470 0.83920 0.56010 -0.02400
C 	C 	0.09530 0.92470 0.63900 -0.70200
H 	H 	0.08740 0.92730 0.56170 0.21300
H 	H 	0.09530 0.94230 0.69260 0.19900
H 	H 	0.11930 0.92830 0.63380 0.22100
C 	C 	0.03280 0.88540 0.70600 -0.68200
H 	H 	0.02450 0.88930 0.63100 0.20000
H 	H 	0.01520 0.86230 0.73730 0.19000
H 	H 	0.03620 0.90400 0.76100 0.19300
C 	C 	0.12350 0.82790 0.45190 0.08700
H 	H 	0.11740 0.80840 0.40150 0.00400
C 	C 	0.18270 0.84200 0.41830 0.01400
H 	H 	0.19560 0.86210 0.36260 0.01700
C 	C 	0.17200 0.80800 0.35030 -0.12300
H 	H 	0.16100 0.78750 0.40430 0.05400
H 	H 	0.15420 0.80460 0.29050 0.05500
C 	C 	0.20370 0.80940 0.29160 -0.07900
H 	H 	0.19600 0.78730 0.24720 0.03000
H 	H 	0.21410 0.82930 0.23560 0.04500
C 	C 	0.23080 0.81390 0.37800 -0.05800
H 	H 	0.25190 0.81630 0.33710 0.02100
H 	H 	0.22130 0.79270 0.42890 0.01800
C 	C 	0.24130 0.84690 0.45230 -0.12900
H 	H 	0.25850 0.84900 0.51260 0.04200
H 	H 	0.25280 0.86810 0.40210 0.06600
C 	C 	0.20970 0.84490 0.51020 0.00300
H 	H 	0.19850 0.82400 0.56350 0.01600
C 	C 	0.23210 0.87460 0.69610 -0.06200
H 	H 	0.25160 0.86940 0.68850 0.04200
H 	H 	0.21250 0.85480 0.73910 0.01700
C 	C 	0.24540 0.90950 0.76700 -0.09200
C 	C 	0.22350 0.92310 0.79350 0.20600
C 	C 	0.23610 0.95335 0.86190 -0.26000
C 	C 	0.27060 0.96990 0.90390 0.07700
H 	H 	0.27920 0.99050 0.95070 -0.00600
C 	C 	0.29250 0.95620 0.87740 -0.07000
C 	C 	0.27990 0.92601 0.80890 0.00500
H 	H 	0.29480 0.91660 0.79080 0.01500
C 	C 	0.21130 0.96890 0.89390 0.63800
C 	C 	0.29930 0.12120 0.30300 0.06900
H 	H 	0.31510 0.11570 0.34210 0.00900
C 	C 	0.17990 0.94300 0.96000 -0.92100
H 	H 	0.16710 0.92110 0.91400 0.29900
H 	H 	0.18730 0.93780 0.03430 0.27600
H 	H 	0.16430 0.95270 0.97400 0.27300
C 	C 	0.20040 0.97840 0.77800 -0.88300
H 	H 	0.22160 0.99570 0.73550 0.27100
H 	H 	0.18730 0.95700 0.73050 0.27100
H 	H 	0.18530 0.98860 0.79370 0.25600
C 	C 	0.23000 0.00230 0.96930 -0.82400
H 	H 	0.25120 0.02030 0.92860 0.26200
H 	H 	0.21400 0.01160 0.98370 0.25100
H 	H 	0.23700 0.99660 0.04390 0.24300
C 	C 	0.33099 0.97469 0.91780 0.09100
C 	C 	0.35120 0.95870 0.89880 -0.13100
H 	H 	0.34080 0.93590 0.86440 0.05900
C 	C 	0.38670 0.97605 0.93000 0.05900
H 	H 	0.40060 0.96520 0.91700 0.00700
N 	N 	0.40200 0.00950 0.98030 -0.13100
C 	C 	0.38180 0.02550 0.99930 0.09500
H 	H 	0.39230 0.04840 0.03370 -0.02100
C 	C 	0.34630 0.00812 0.96810 -0.14300
H 	H 	0.33250 0.01910 0.98110 0.08500
N 	N 	0.15540 0.84610 0.46900 -0.25800
Zn	Zn	0.82754 0.11142 0.17876 1.20400
Zn	Zn	0.11308 0.28848 0.59491 1.20100
N 	N 	0.77860 0.11230 0.19640 -0.22200
N 	N 	0.84740 0.15800 0.26960 -0.26100
N 	N 	0.12270 0.34210 0.57640 -0.21700
O 	O 	0.81400 0.09480 0.01640 -0.49500
O 	O 	0.87630 0.12060 0.15480 -0.45300
O 	O 	0.12490 0.25040 0.62660 -0.45600
O 	O 	0.09570 0.28380 0.75590 -0.43600
N 	N 	0.60390 0.99310 0.78640 -0.13600
C 	C 	0.62300 0.97550 0.77900 0.07500
H 	H 	0.61170 0.95160 0.75340 0.00000
C 	C 	0.65860 0.99290 0.80900 -0.15600
H 	H 	0.67170 0.98090 0.80390 0.08400
C 	C 	0.67520 0.02790 0.84640 0.12300
C 	C 	0.65610 0.04550 0.85380 -0.15300
H 	H 	0.66730 0.06940 0.87940 0.07400
C 	C 	0.62040 0.02810 0.82380 0.07600
H 	H 	0.60740 0.04010 0.82890 0.00200
C 	C 	0.79430 0.03310 0.87400 0.67700
C 	C 	0.71380 0.04720 0.88680 -0.12400
C 	C 	0.72584 0.07630 0.96040 0.09700
H 	H 	0.71070 0.08540 0.97960 -0.00600
C 	C 	0.75980 0.09190 0.00600 -0.21200
C 	C 	0.78180 0.07850 0.97790 0.35000
C 	C 	0.76979 0.04940 0.90430 -0.33100
C 	C 	0.73580 0.03380 0.85870 0.13700
H 	H 	0.72760 0.01390 0.80840 -0.02700
C 	C 	0.80480 0.02010 0.97800 -0.86800
H 	H 	0.78360 0.00240 0.01840 0.25700
H 	H 	0.81890 0.00950 0.95250 0.25500
H 	H 	0.81900 0.04000 0.03030 0.25300
C 	C 	0.82700 0.06070 0.81000 -0.92900
H 	H 	0.81990 0.06920 0.74140 0.28800
H 	H 	0.84130 0.08070 0.86190 0.29900
H 	H 	0.84120 0.05020 0.78410 0.26900
C 	C 	0.77530 0.00120 0.79300 -0.90700
H 	H 	0.76770 0.00820 0.72220 0.28600
H 	H 	0.79140 0.99260 0.77140 0.26600
H 	H 	0.75460 0.98240 0.83300 0.28100
C 	C 	0.77220 0.12250 0.08740 0.03700
H 	H 	0.79420 0.14300 0.05720 -0.02900
H 	H 	0.75400 0.12960 0.09470 0.01200
C 	C 	0.78380 0.13470 0.30390 -0.01600
H 	H 	0.78440 0.12100 0.37310 0.02500
C 	C 	0.75470 0.14230 0.32300 -0.09600
H 	H 	0.73160 0.12010 0.32070 0.04500
H 	H 	0.75490 0.15830 0.26130 0.03800
C 	C 	0.76070 0.16090 0.45000 -0.10200
H 	H 	0.74100 0.16510 0.46930 0.03800
H 	H 	0.76230 0.14580 0.51150 0.05600
C 	C 	0.79700 0.19740 0.43900 -0.05700
H 	H 	0.79520 0.21180 0.37540 0.02100
H 	H 	0.80200 0.21090 0.51280 0.02800
C 	C 	0.82650 0.18990 0.41300 -0.12800
H 	H 	0.82840 0.17600 0.47820 0.06200
H 	H 	0.84920 0.21260 0.40820 0.05500
C 	C 	0.82040 0.16930 0.29790 -0.00000
H 	H 	0.81990 0.18410 0.23220 0.02200
C 	C 	0.90800 0.17000 0.28310 -0.15500
C 	C 	0.93980 0.19370 0.33620 0.02900
H 	H 	0.94100 0.21170 0.38600 0.01800
C 	C 	0.96980 0.19110 0.31660 -0.08400
C 	C 	0.96810 0.16480 0.24390 0.06600
H 	H 	0.98860 0.16300 0.23050 -0.01800
C 	C 	0.93630 0.14110 0.19070 -0.25300
C 	C 	0.90620 0.14360 0.21030 0.25100
C 	C 	0.93400 0.11100 0.10980 0.50700
C 	C 	0.92130 0.11390 0.98400 -0.71600
H 	H 	0.93780 0.13710 0.95020 0.21600
H 	H 	0.92050 0.09520 0.93400 0.20800
H 	H 	0.89760 0.11110 0.98810 0.24100
C 	C 	0.90870 0.07580 0.15900 -0.81300
H 	H 	0.90740 0.05720 0.10790 0.23000
H 	H 	0.91680 0.07350 0.23690 0.24300
H 	H 	0.88520 0.07340 0.16540 0.25700
C 	C 	0.97180 0.11460 0.10100 -0.71400
H 	H 	0.98870 0.13780 0.06850 0.19900
H 	H 	0.97960 0.11220 0.17900 0.21000
H 	H 	0.97050 0.09590 0.05010 0.19500
C 	C 	0.00480 0.21660 0.38080 0.07800
C 	C 	0.00690 0.24240 0.45700 -0.14700
H 	H 	0.98670 0.24480 0.47010 0.08100
C 	C 	0.03860 0.26460 0.51390 0.05100
H 	H 	0.04000 0.28220 0.56600 -0.00900
N 	N 	0.06800 0.26100 0.49470 -0.25900
C 	C 	0.06600 0.23530 0.41860 0.04000
H 	H 	0.08610 0.23280 0.40540 -0.01500
C 	C 	0.03430 0.21300 0.36160 -0.14000
H 	H 	0.03290 0.19540 0.30960 0.05400
C 	C 	0.11390 0.18310 0.68730 0.48200
N 	N 	0.25490 0.18860 0.27970 -0.25700
C 	C 	0.23300 0.16810 0.37010 0.04600
H 	H 	0.23260 0.14690 0.39260 -0.01600
C 	C 	0.21170 0.17850 0.42760 -0.14500
H 	H 	0.19670 0.16450 0.48940 0.05700
C 	C 	0.21230 0.20950 0.39480 0.08400
C 	C 	0.23420 0.23000 0.30440 -0.14200
H 	H 	0.23460 0.25110 0.28190 0.07300
C 	C 	0.25550 0.21950 0.24690 0.04400
H 	H 	0.27060 0.23360 0.18510 -0.01200
C 	C 	0.12020 0.19990 0.80800 -0.76800
H 	H 	0.10230 0.18330 0.86240 0.22500
H 	H 	0.14380 0.20570 0.83580 0.22700
H 	H 	0.11880 0.22160 0.80380 0.25200
C 	C 	0.18820 0.22010 0.46190 -0.09800
C 	C 	0.19180 0.25290 0.43650 0.04400
H 	H 	0.20880 0.26800 0.38130 0.01000
C 	C 	0.17020 0.26340 0.49200 -0.17900
C 	C 	0.14520 0.24120 0.57280 0.28900
C 	C 	0.14160 0.20840 0.59820 -0.26600
C 	C 	0.16320 0.19790 0.54270 0.07500
H 	H 	0.16080 0.17550 0.56010 -0.02300
C 	C 	0.07530 0.17060 0.63900 -0.70400
H 	H 	0.07270 0.16010 0.56170 0.21400
H 	H 	0.05770 0.15300 0.69260 0.20000
H 	H 	0.07170 0.19100 0.63380 0.22100
C 	C 	0.11460 0.14740 0.70600 -0.68500
H 	H 	0.11070 0.13520 0.63100 0.20200
H 	H 	0.13770 0.15290 0.73730 0.19200
H 	H 	0.09600 0.13220 0.76100 0.19500
C 	C 	0.17210 0.29560 0.45190 0.08600
H 	H 	0.19160 0.30900 0.40150 0.00400
C 	C 	0.15800 0.34070 0.41830 0.01400
H 	H 	0.13790 0.33350 0.36260 0.01700
C 	C 	0.19200 0.36400 0.35030 -0.12300
H 	H 	0.21250 0.37350 0.40430 0.05400
H 	H 	0.19540 0.34960 0.29050 0.05500
C 	C 	0.19060 0.39430 0.29160 -0.07900
H 	H 	0.21270 0.40870 0.24720 0.03000
H 	H 	0.17070 0.38480 0.23560 0.04500
C 	C 	0.18610 0.41690 0.37800 -0.05800
H 	H 	0.18370 0.43560 0.33710 0.02100
H 	H 	0.20730 0.42860 0.42890 0.01800
C 	C 	0.15310 0.39440 0.45230 -0.12900
H 	H 	0.15100 0.40950 0.51260 0.04200
H 	H 	0.13190 0.38470 0.40210 0.06600
C 	C 	0.15510 0.36480 0.51020 0.00300
H 	H 	0.17600 0.37450 0.56350 0.01600
C 	C 	0.12540 0.35750 0.69610 -0.06200
H 	H 	0.13060 0.38220 0.68850 0.04200
H 	H 	0.14520 0.35770 0.73910 0.01700
C 	C 	0.09050 0.33590 0.76700 -0.09200
C 	C 	0.07690 0.30040 0.79350 0.20600
C 	C 	0.04665 0.28275 0.86190 -0.26000
C 	C 	0.03010 0.30070 0.90390 0.07700
H 	H 	0.00950 0.28870 0.95070 -0.00600
C 	C 	0.04380 0.33630 0.87740 -0.07000
C 	C 	0.07399 0.35389 0.80890 0.00500
H 	H 	0.08340 0.37820 0.79080 0.01500
C 	C 	0.03110 0.24240 0.89390 0.63800
C 	C 	0.87880 0.17810 0.30300 0.06900
H 	H 	0.88430 0.19940 0.34210 0.00900
C 	C 	0.05700 0.23690 0.96000 -0.92000
H 	H 	0.07890 0.24600 0.91400 0.29900
H 	H 	0.06220 0.24950 0.03430 0.27600
H 	H 	0.04730 0.21160 0.97400 0.27300
C 	C 	0.02160 0.22200 0.77800 -0.88300
H 	H 	0.00430 0.22590 0.73550 0.27100
H 	H 	0.04300 0.23030 0.73050 0.27100
H 	H 	0.01140 0.19670 0.79370 0.25600
C 	C 	0.99770 0.22770 0.96930 -0.82400
H 	H 	0.97970 0.23090 0.92860 0.26100
H 	H 	0.98840 0.20240 0.98370 0.25100
H 	H 	0.00340 0.24040 0.04390 0.24300
C 	C 	0.02531 0.35630 0.91780 0.09100
C 	C 	0.04130 0.39250 0.89880 -0.13100
H 	H 	0.06410 0.40490 0.86440 0.05900
C 	C 	0.02395 0.41065 0.93000 0.05900
H 	H 	0.03480 0.43540 0.91700 0.00700
N 	N 	0.99050 0.39250 0.98030 -0.13100
C 	C 	0.97450 0.35630 0.99930 0.09500
H 	H 	0.95160 0.34390 0.03370 -0.02100
C 	C 	0.99188 0.33818 0.96810 -0.14300
H 	H 	0.98090 0.31340 0.98110 0.08500
N 	N 	0.15390 0.30930 0.46900 -0.25800
Zn	Zn	0.55525 0.04945 0.51209 1.20400
Zn	Zn	0.37819 0.15793 0.92824 1.20400
N 	N 	0.55437 0.99963 0.52973 -0.21800
N 	N 	0.50867 0.02273 0.60293 -0.25800
N 	N 	0.32457 0.11393 0.90973 -0.20800
O 	O 	0.57187 0.05253 0.34973 -0.47000
O 	O 	0.54607 0.08903 0.48813 -0.45200
O 	O 	0.41627 0.20783 0.95993 -0.44400
O 	O 	0.38287 0.14523 0.08923 -0.44700
N 	N 	0.67357 0.94413 0.11973 -0.13600
C 	C 	0.69117 0.98083 0.11233 0.06900
H 	H 	0.71507 0.99343 0.08673 -0.00400
C 	C 	0.67377 0.99903 0.14233 -0.15400
H 	H 	0.68577 0.02413 0.13723 0.08200
C 	C 	0.63877 0.98063 0.17973 0.10600
C 	C 	0.62117 0.94393 0.18713 -0.14600
H 	H 	0.59727 0.93123 0.21273 0.06800
C 	C 	0.63857 0.92563 0.15713 0.06300
H 	H 	0.62657 0.90063 0.16223 0.00200
C 	C 	0.63357 0.09453 0.20733 0.73300
C 	C 	0.61947 0.99993 0.22013 -0.10800
C 	C 	0.59037 0.98287 0.29373 0.03800
H 	H 	0.58127 0.95863 0.31293 0.00700
C 	C 	0.57477 0.00123 0.33933 -0.13800
C 	C 	0.58817 0.03663 0.31123 0.29500
C 	C 	0.61727 0.05372 0.23763 -0.33100
C 	C 	0.63287 0.03533 0.19203 0.12700
H 	H 	0.65277 0.04703 0.14173 -0.02900
C 	C 	0.64657 0.11803 0.31133 -1.02800
H 	H 	0.66427 0.11453 0.35173 0.31500
H 	H 	0.65717 0.14273 0.28583 0.29300
H 	H 	0.62667 0.11233 0.36363 0.31000
C 	C 	0.60597 0.09963 0.14333 -0.96800
H 	H 	0.59747 0.08403 0.07473 0.29400
H 	H 	0.58597 0.09393 0.19523 0.30500
H 	H 	0.61647 0.12433 0.11743 0.27500
C 	C 	0.66547 0.10743 0.12633 -0.97200
H 	H 	0.65847 0.09283 0.05553 0.29800
H 	H 	0.67407 0.13213 0.10473 0.28500
H 	H 	0.68427 0.10553 0.16633 0.29900
C 	C 	0.54417 0.98303 0.42073 -0.00500
H 	H 	0.52367 0.98453 0.39053 -0.01400
H 	H 	0.53707 0.95773 0.42803 0.02700
C 	C 	0.53197 0.98243 0.63723 -0.01600
H 	H 	0.54567 0.99673 0.70643 0.02400
C 	C 	0.52437 0.94573 0.65633 -0.09600
H 	H 	0.54657 0.94483 0.65403 0.04500
H 	H 	0.50837 0.92993 0.59463 0.03800
C 	C 	0.50577 0.93313 0.78333 -0.10200
H 	H 	0.50157 0.90923 0.80263 0.04100
H 	H 	0.52087 0.94983 0.84483 0.05900
C 	C 	0.46927 0.93293 0.77233 -0.05800
H 	H 	0.45487 0.91673 0.70873 0.02100
H 	H 	0.45577 0.92443 0.84613 0.03100
C 	C 	0.47677 0.96993 0.74633 -0.12600
H 	H 	0.49067 0.98573 0.81153 0.06200
H 	H 	0.45407 0.96993 0.74153 0.05500
C 	C 	0.49737 0.98443 0.63123 -0.00400
H 	H 	0.48257 0.96913 0.56553 0.02300
C 	C 	0.49667 0.07133 0.61643 -0.15700
C 	C 	0.47297 0.07943 0.66953 0.03300
H 	H 	0.45497 0.06263 0.71933 0.01700
C 	C 	0.47557 0.11203 0.64993 -0.09000
C 	C 	0.50187 0.13663 0.57723 0.07300
H 	H 	0.50367 0.15893 0.56383 -0.02100
C 	C 	0.52557 0.12853 0.52403 -0.26100
C 	C 	0.52307 0.09593 0.54363 0.25700
C 	C 	0.55567 0.15633 0.44313 0.53600
C 	C 	0.55277 0.14073 0.31733 -0.75100
H 	H 	0.52957 0.13403 0.28353 0.21900
H 	H 	0.57147 0.15863 0.26733 0.21000
H 	H 	0.55557 0.11983 0.32143 0.24200
C 	C 	0.59087 0.16623 0.49233 -0.83800
H 	H 	0.60947 0.18353 0.44123 0.23900
H 	H 	0.59317 0.17663 0.57023 0.25000
H 	H 	0.59327 0.14513 0.49873 0.26500
C 	C 	0.55207 0.19053 0.43433 -0.73600
H 	H 	0.52887 0.18423 0.40183 0.20800
H 	H 	0.55447 0.20073 0.51233 0.21700
H 	H 	0.57077 0.20793 0.38343 0.20500
C 	C 	0.45007 0.12153 0.71413 0.08200
C 	C 	0.42427 0.09783 0.79033 -0.13900
H 	H 	0.42187 0.07523 0.80343 0.07700
C 	C 	0.40207 0.10733 0.84723 0.04900
H 	H 	0.38447 0.09113 0.89933 -0.00300
N 	N 	0.40567 0.14033 0.82803 -0.25700
C 	C 	0.43137 0.16403 0.75193 0.04200
H 	H 	0.43387 0.18663 0.73873 -0.01500
C 	C 	0.45367 0.15463 0.69493 -0.14100
H 	H 	0.47127 0.17083 0.64293 0.05600
C 	C 	0.48357 0.26413 0.02063 0.42500
N 	N 	0.47807 0.39963 0.61303 -0.25600
C 	C 	0.49857 0.39823 0.70343 0.04500
H 	H 	0.51977 0.41903 0.72593 -0.01400
C 	C 	0.48817 0.36653 0.76093 -0.14200
H 	H 	0.50217 0.36553 0.82273 0.05800
C 	C 	0.45717 0.33613 0.72813 0.08000
C 	C 	0.43667 0.33753 0.63773 -0.13900
H 	H 	0.41557 0.31683 0.61523 0.07200
C 	C 	0.44717 0.36933 0.58023 0.04100
H 	H 	0.43307 0.37033 0.51843 -0.00900
C 	C 	0.46677 0.25363 0.14133 -0.71400
H 	H 	0.48337 0.25233 0.19573 0.20500
H 	H 	0.46097 0.27143 0.16913 0.20800
H 	H 	0.44507 0.23053 0.13713 0.23000
C 	C 	0.44657 0.30143 0.79523 -0.08700
C 	C 	0.41377 0.27223 0.76983 0.03600
H 	H 	0.39867 0.27413 0.71463 0.01400
C 	C 	0.40327 0.24013 0.82533 -0.16800
C 	C 	0.42547 0.23733 0.90613 0.27600
C 	C 	0.45827 0.26653 0.93153 -0.23200
C 	C 	0.46877 0.29863 0.87603 0.05900
H 	H 	0.49117 0.31863 0.89343 -0.01300
C 	C 	0.49607 0.23803 0.97233 -0.60400
H 	H 	0.50657 0.24593 0.89503 0.18900
H 	H 	0.51367 0.23803 0.02593 0.16100
H 	H 	0.47567 0.21403 0.96713 0.19700
C 	C 	0.51927 0.30053 0.03933 -0.68700
H 	H 	0.53147 0.30883 0.96433 0.21200
H 	H 	0.51377 0.31813 0.07063 0.18700
H 	H 	0.53447 0.29713 0.09433 0.19100
C 	C 	0.37107 0.20983 0.78523 0.08400
H 	H 	0.35767 0.21593 0.73483 0.00500
C 	C 	0.32597 0.15063 0.75163 0.01500
H 	H 	0.33317 0.13773 0.69593 0.01700
C 	C 	0.30267 0.16133 0.68363 -0.12300
H 	H 	0.29317 0.17233 0.73763 0.05500
H 	H 	0.31707 0.17913 0.62383 0.05600
C 	C 	0.27237 0.12963 0.62493 -0.07900
H 	H 	0.25797 0.13733 0.58053 0.03200
H 	H 	0.28187 0.11923 0.56893 0.04700
C 	C 	0.24977 0.10253 0.71133 -0.05800
H 	H 	0.23107 0.08143 0.67043 0.02400
H 	H 	0.23807 0.11203 0.76223 0.02000
C 	C 	0.27227 0.09203 0.78563 -0.12900
H 	H 	0.25717 0.07483 0.84593 0.04700
H 	H 	0.28197 0.08053 0.73543 0.06800
C 	C 	0.30187 0.12363 0.84353 0.00300
H 	H 	0.29217 0.13483 0.89683 0.02200
C 	C 	0.30917 0.10123 0.02943 -0.07300
H 	H 	0.28447 0.08173 0.02183 0.04000
H 	H 	0.30897 0.12083 0.07243 0.01800
C 	C 	0.33077 0.08793 0.10033 -0.10100
C 	C 	0.36627 0.10983 0.12683 0.21700
C 	C 	0.38392 0.09723 0.19523 -0.29300
C 	C 	0.36597 0.06273 0.23723 0.09700
H 	H 	0.37797 0.05413 0.28403 -0.01700
C 	C 	0.33037 0.04083 0.21073 -0.08800
C 	C 	0.31278 0.05343 0.14223 0.01200
H 	H 	0.28847 0.03853 0.12413 0.01100
C 	C 	0.42427 0.12203 0.22723 0.71500
C 	C 	0.48857 0.03403 0.63633 0.07100
H 	H 	0.46727 0.01823 0.67543 0.01100
C 	C 	0.42977 0.15343 0.29333 -1.04200
H 	H 	0.42067 0.16623 0.24733 0.32900
H 	H 	0.41717 0.14603 0.36763 0.32300
H 	H 	0.45507 0.16903 0.30733 0.30200
C 	C 	0.44467 0.13293 0.11133 -0.94100
H 	H 	0.44077 0.11173 0.06883 0.28600
H 	H 	0.43637 0.14603 0.06383 0.28400
H 	H 	0.46997 0.14803 0.12703 0.27000
C 	C 	0.43897 0.10333 0.30263 -0.95200
H 	H 	0.43577 0.08213 0.26193 0.29300
H 	H 	0.46427 0.11933 0.31703 0.28000
H 	H 	0.42627 0.09633 0.37723 0.29500
C 	C 	0.31037 0.00234 0.25113 0.11000
C 	C 	0.27417 0.98213 0.23213 -0.15000
H 	H 	0.26177 0.99253 0.19773 0.06300
C 	C 	0.25602 0.94663 0.26333 0.06700
H 	H 	0.23127 0.93273 0.25033 0.00000
N 	N 	0.27417 0.93133 0.31363 -0.13800
C 	C 	0.31037 0.95153 0.33263 0.07200
H 	H 	0.32277 0.94103 0.36703 -0.00400
C 	C 	0.32849 0.98703 0.30143 -0.16100
H 	H 	0.35327 0.00083 0.31443 0.08600
N 	N 	0.35737 0.17793 0.80233 -0.25600
Zn	Zn	0.95055 0.50579 0.51209 1.20400
Zn	Zn	0.84207 0.22025 0.92824 1.20400
N 	N 	0.00037 0.55473 0.52973 -0.21800
N 	N 	0.97727 0.48593 0.60293 -0.25800
N 	N 	0.88607 0.21063 0.90973 -0.20800
O 	O 	0.94747 0.51933 0.34973 -0.47000
O 	O 	0.91097 0.45703 0.48813 -0.45200
O 	O 	0.79217 0.20843 0.95993 -0.44400
O 	O 	0.85477 0.23763 0.08923 -0.44700
N 	N 	0.05587 0.72943 0.11973 -0.13600
C 	C 	0.01917 0.71033 0.11233 0.06900
H 	H 	0.00657 0.72163 0.08673 -0.00400
C 	C 	0.00097 0.67473 0.14233 -0.15400
H 	H 	0.97587 0.66163 0.13723 0.08200
C 	C 	0.01937 0.65813 0.17973 0.10600
C 	C 	0.05607 0.67723 0.18713 -0.14600
H 	H 	0.06877 0.66603 0.21273 0.06800
C 	C 	0.07437 0.71293 0.15713 0.06300
H 	H 	0.09937 0.72593 0.16223 0.00200
C 	C 	0.90547 0.53903 0.20733 0.73300
C 	C 	0.00007 0.61953 0.22013 -0.10800
C 	C 	0.01713 0.60749 0.29373 0.03800
H 	H 	0.04137 0.62263 0.31293 0.00700
C 	C 	0.99877 0.57353 0.33933 -0.13800
C 	C 	0.96337 0.55153 0.31123 0.29500
C 	C 	0.94628 0.56354 0.23763 -0.33100
C 	C 	0.96467 0.59753 0.19203 0.12700
H 	H 	0.95297 0.60573 0.14173 -0.02900
C 	C 	0.88197 0.52853 0.31133 -1.02800
H 	H 	0.88547 0.54973 0.35173 0.31500
H 	H 	0.85727 0.51443 0.28583 0.29300
H 	H 	0.88767 0.51433 0.36363 0.31000
C 	C 	0.90037 0.50633 0.14333 -0.96800
H 	H 	0.91597 0.51343 0.07473 0.29400
H 	H 	0.90607 0.49203 0.19523 0.30500
H 	H 	0.87567 0.49213 0.11743 0.27500
C 	C 	0.89257 0.55803 0.12633 -0.97200
H 	H 	0.90717 0.56563 0.05553 0.29800
H 	H 	0.86787 0.54193 0.10473 0.28500
H 	H 	0.89447 0.57873 0.16633 0.29900
C 	C 	0.01697 0.56113 0.42073 -0.00500
H 	H 	0.01547 0.53913 0.39053 -0.01400
H 	H 	0.04227 0.57933 0.42803 0.02700
C 	C 	0.01757 0.54953 0.63723 -0.01600
H 	H 	0.00327 0.54893 0.70643 0.02400
C 	C 	0.05427 0.57863 0.65633 -0.09600
H 	H 	0.05517 0.60173 0.65403 0.04500
H 	H 	0.07007 0.57843 0.59463 0.03800
C 	C 	0.06687 0.57263 0.78333 -0.10200
H 	H 	0.09077 0.59233 0.80263 0.04100
H 	H 	0.05017 0.57103 0.84483 0.05900
C 	C 	0.06707 0.53633 0.77233 -0.05800
H 	H 	0.08327 0.53813 0.70873 0.02100
H 	H 	0.07557 0.53133 0.84613 0.03100
C 	C 	0.03007 0.50683 0.74633 -0.12600
H 	H 	0.01427 0.50493 0.81153 0.06200
H 	H 	0.03007 0.48413 0.74153 0.05500
C 	C 	0.01557 0.51293 0.63123 -0.00400
H 	H 	0.03087 0.51343 0.56553 0.02300
C 	C 	0.92867 0.42533 0.61643 -0.15700
C 	C 	0.92057 0.39353 0.66953 0.03300
H 	H 	0.93737 0.39233 0.71933 0.01700
C 	C 	0.88797 0.36353 0.64993 -0.09000
C 	C 	0.86337 0.36523 0.57723 0.07300
H 	H 	0.84107 0.34473 0.56383 -0.02100
C 	C 	0.87147 0.39703 0.52403 -0.26100
C 	C 	0.90407 0.42713 0.54363 0.25700
C 	C 	0.84367 0.39933 0.44313 0.53600
C 	C 	0.85927 0.41203 0.31733 -0.75100
H 	H 	0.86597 0.39553 0.28353 0.21900
H 	H 	0.84137 0.41283 0.26733 0.21000
H 	H 	0.88017 0.43573 0.32143 0.24200
C 	C 	0.83377 0.42463 0.49233 -0.83800
H 	H 	0.81647 0.42593 0.44123 0.23900
H 	H 	0.82337 0.41653 0.57023 0.25000
H 	H 	0.85487 0.44813 0.49873 0.26500
C 	C 	0.80947 0.36153 0.43433 -0.73600
H 	H 	0.81577 0.34463 0.40183 0.20800
H 	H 	0.79927 0.35373 0.51233 0.21700
H 	H 	0.79207 0.36283 0.38343 0.20500
C 	C 	0.87847 0.32853 0.71413 0.08200
C 	C 	0.90217 0.32643 0.79033 -0.13900
H 	H 	0.92477 0.34663 0.80343 0.07700
C 	C 	0.89267 0.29473 0.84723 0.04900
H 	H 	0.90887 0.29333 0.89933 -0.00300
N 	N 	0.85967 0.26533 0.82803 -0.25700
C 	C 	0.83597 0.26733 0.75193 0.04200
H 	H 	0.81337 0.24723 0.73873 -0.01500
C 	C 	0.84537 0.29903 0.69493 -0.14100
H 	H 	0.82917 0.30043 0.64293 0.05600
C 	C 	0.73587 0.21943 0.02063 0.42500
N 	N 	0.60037 0.07843 0.61303 -0.25600
C 	C 	0.60177 0.10033 0.70343 0.04500
H 	H 	0.58097 0.10073 0.72593 -0.01400
C 	C 	0.63347 0.12163 0.76093 -0.14200
H 	H 	0.63447 0.13663 0.82273 0.05800
C 	C 	0.66387 0.12103 0.72813 0.08000
C 	C 	0.66247 0.09913 0.63773 -0.13900
H 	H 	0.68317 0.09873 0.61523 0.07200
C 	C 	0.63067 0.07783 0.58023 0.04100
H 	H 	0.62967 0.06273 0.51843 -0.00900
C 	C 	0.74637 0.21313 0.14133 -0.71400
H 	H 	0.74767 0.23103 0.19573 0.20500
H 	H 	0.72857 0.18953 0.16913 0.20800
H 	H 	0.76947 0.21453 0.13713 0.23000
C 	C 	0.69857 0.14513 0.79523 -0.08700
C 	C 	0.72777 0.14153 0.76983 0.03600
H 	H 	0.72587 0.12453 0.71463 0.01400
C 	C 	0.75987 0.16313 0.82533 -0.16800
C 	C 	0.76267 0.18813 0.90613 0.27600
C 	C 	0.73347 0.19173 0.93153 -0.23200
C 	C 	0.70137 0.17013 0.87603 0.05900
H 	H 	0.68137 0.17253 0.89343 -0.01300
C 	C 	0.76197 0.25803 0.97233 -0.60400
H 	H 	0.75407 0.26063 0.89503 0.18900
H 	H 	0.76197 0.27563 0.02593 0.16100
H 	H 	0.78597 0.26163 0.96713 0.19700
C 	C 	0.69947 0.21873 0.03933 -0.68700
H 	H 	0.69117 0.22263 0.96433 0.21200
H 	H 	0.68187 0.19563 0.07063 0.18700
H 	H 	0.70287 0.23733 0.09433 0.19100
C 	C 	0.79017 0.16123 0.78523 0.08400
H 	H 	0.78407 0.14173 0.73483 0.00500
C 	C 	0.84937 0.17533 0.75163 0.01500
H 	H 	0.86227 0.19543 0.69593 0.01700
C 	C 	0.83867 0.14133 0.68363 -0.12300
H 	H 	0.82767 0.12083 0.73763 0.05500
H 	H 	0.82087 0.13793 0.62383 0.05600
C 	C 	0.87037 0.14273 0.62493 -0.07900
H 	H 	0.86267 0.12063 0.58053 0.03200
H 	H 	0.88077 0.16263 0.56893 0.04700
C 	C 	0.89747 0.14723 0.71133 -0.05800
H 	H 	0.91857 0.14963 0.67043 0.02400
H 	H 	0.88797 0.12603 0.76223 0.02100
C 	C 	0.90797 0.18023 0.78563 -0.12900
H 	H 	0.92517 0.18233 0.84593 0.04700
H 	H 	0.91947 0.20143 0.73543 0.06800
C 	C 	0.87637 0.17823 0.84353 0.00300
H 	H 	0.86517 0.15733 0.89683 0.02200
C 	C 	0.89877 0.20793 0.02943 -0.07300
H 	H 	0.91827 0.20273 0.02183 0.04000
H 	H 	0.87917 0.18813 0.07243 0.01800
C 	C 	0.91207 0.24283 0.10033 -0.10100
C 	C 	0.89017 0.25643 0.12683 0.21700
C 	C 	0.90277 0.28668 0.19523 -0.29300
C 	C 	0.93727 0.30323 0.23723 0.09700
H 	H 	0.94587 0.32383 0.28403 -0.01700
C 	C 	0.95917 0.28953 0.21073 -0.08800
C 	C 	0.94657 0.25934 0.14223 0.01200
H 	H 	0.96147 0.24993 0.12413 0.01100
C 	C 	0.87797 0.30223 0.22723 0.71500
C 	C 	0.96597 0.45453 0.63633 0.07100
H 	H 	0.98177 0.44903 0.67543 0.01100
C 	C 	0.84657 0.27633 0.29333 -1.04200
H 	H 	0.83377 0.25443 0.24733 0.32900
H 	H 	0.85397 0.27113 0.36763 0.32300
H 	H 	0.83097 0.28603 0.30733 0.30200
C 	C 	0.86707 0.31173 0.11133 -0.94100
H 	H 	0.88827 0.32903 0.06883 0.28600
H 	H 	0.85397 0.29033 0.06383 0.28400
H 	H 	0.85197 0.32193 0.12703 0.27000
C 	C 	0.89667 0.33563 0.30263 -0.95200
H 	H 	0.91787 0.35363 0.26193 0.29300
H 	H 	0.88067 0.34493 0.31703 0.28000
H 	H 	0.90367 0.32993 0.37723 0.29500
C 	C 	0.99766 0.30802 0.25113 0.11000
C 	C 	0.01787 0.29203 0.23213 -0.15000
H 	H 	0.00747 0.26923 0.19773 0.06300
C 	C 	0.05337 0.30938 0.26333 0.06700
H 	H 	0.06727 0.29853 0.25033 0.00000
N 	N 	0.06867 0.34283 0.31363 -0.13800
C 	C 	0.04847 0.35883 0.33263 0.07200
H 	H 	0.05897 0.38173 0.36703 -0.00400
C 	C 	0.01297 0.34145 0.30143 -0.16100
H 	H 	0.99917 0.35243 0.31443 0.08600
N 	N 	0.82207 0.17943 0.80233 -0.25600
Zn	Zn	0.49421 0.44475 0.51209 1.20300
Zn	Zn	0.77975 0.62181 0.92824 1.20400
N 	N 	0.44527 0.44563 0.52973 -0.21700
N 	N 	0.51407 0.49133 0.60293 -0.26100
N 	N 	0.78937 0.67543 0.90973 -0.20800
O 	O 	0.48067 0.42813 0.34973 -0.47100
O 	O 	0.54297 0.45393 0.48813 -0.45200
O 	O 	0.79157 0.58373 0.95993 -0.44400
O 	O 	0.76237 0.61713 0.08923 -0.44700
N 	N 	0.27057 0.32643 0.11973 -0.13500
C 	C 	0.28967 0.30883 0.11233 0.06400
H 	H 	0.27837 0.28493 0.08673 -0.00000
C 	C 	0.32527 0.32623 0.14233 -0.14200
H 	H 	0.33837 0.31423 0.13723 0.07600
C 	C 	0.34187 0.36123 0.17973 0.10100
C 	C 	0.32277 0.37883 0.18713 -0.14300
H 	H 	0.33397 0.40273 0.21273 0.06700
C 	C 	0.28707 0.36143 0.15713 0.06100
H 	H 	0.27407 0.37343 0.16223 0.00200
C 	C 	0.46097 0.36643 0.20733 0.73200
C 	C 	0.38047 0.38053 0.22013 -0.10400
C 	C 	0.39251 0.40963 0.29373 0.04500
H 	H 	0.37737 0.41873 0.31293 0.00500
C 	C 	0.42647 0.42523 0.33933 -0.14800
C 	C 	0.44847 0.41183 0.31123 0.29700
C 	C 	0.43646 0.38273 0.23763 -0.33100
C 	C 	0.40247 0.36713 0.19203 0.12100
H 	H 	0.39427 0.34723 0.14173 -0.02800
C 	C 	0.47147 0.35343 0.31133 -1.02800
H 	H 	0.45027 0.33573 0.35173 0.31500
H 	H 	0.48557 0.34283 0.28583 0.29300
H 	H 	0.48567 0.37333 0.36363 0.31000
C 	C 	0.49367 0.39403 0.14333 -0.96800
H 	H 	0.48657 0.40253 0.07473 0.29400
H 	H 	0.50797 0.41403 0.19523 0.30500
H 	H 	0.50787 0.38353 0.11743 0.27500
C 	C 	0.44197 0.33453 0.12633 -0.97200
H 	H 	0.43437 0.34153 0.05553 0.29800
H 	H 	0.45807 0.32593 0.10473 0.28500
H 	H 	0.42127 0.31573 0.16633 0.29900
C 	C 	0.43887 0.45583 0.42073 0.00400
H 	H 	0.46087 0.47633 0.39053 -0.01500
H 	H 	0.42067 0.46293 0.42803 0.02500
C 	C 	0.45047 0.46803 0.63723 -0.01700
H 	H 	0.45107 0.45433 0.70643 0.02600
C 	C 	0.42137 0.47563 0.65633 -0.09500
H 	H 	0.39827 0.45343 0.65403 0.04400
H 	H 	0.42157 0.49163 0.59463 0.03800
C 	C 	0.42737 0.49423 0.78333 -0.10400
H 	H 	0.40767 0.49843 0.80263 0.04100
H 	H 	0.42897 0.47913 0.84483 0.05900
C 	C 	0.46367 0.53073 0.77233 -0.05600
H 	H 	0.46187 0.54513 0.70873 0.02100
H 	H 	0.46867 0.54423 0.84613 0.03100
C 	C 	0.49317 0.52323 0.74633 -0.12900
H 	H 	0.49507 0.50933 0.81153 0.06400
H 	H 	0.51587 0.54593 0.74153 0.05600
C 	C 	0.48707 0.50263 0.63123 0.00100
H 	H 	0.48657 0.51743 0.56553 0.02300
C 	C 	0.57467 0.50333 0.61643 -0.15800
C 	C 	0.60647 0.52703 0.66953 0.03300
H 	H 	0.60767 0.54503 0.71933 0.01700
C 	C 	0.63647 0.52443 0.64993 -0.09100
C 	C 	0.63477 0.49813 0.57723 0.07300
H 	H 	0.65527 0.49633 0.56383 -0.02100
C 	C 	0.60297 0.47443 0.52403 -0.26100
C 	C 	0.57287 0.47693 0.54363 0.25700
C 	C 	0.60067 0.44433 0.44313 0.53600
C 	C 	0.58797 0.44723 0.31733 -0.75100
H 	H 	0.60447 0.47043 0.28353 0.21900
H 	H 	0.58717 0.42853 0.26733 0.21000
H 	H 	0.56427 0.44443 0.32143 0.24200
C 	C 	0.57537 0.40913 0.49233 -0.83800
H 	H 	0.57407 0.39053 0.44123 0.24000
H 	H 	0.58347 0.40683 0.57023 0.25000
H 	H 	0.55187 0.40673 0.49873 0.26500
C 	C 	0.63847 0.44793 0.43433 -0.73600
H 	H 	0.65537 0.47113 0.40183 0.20800
H 	H 	0.64627 0.44553 0.51233 0.21700
H 	H 	0.63717 0.42923 0.38343 0.20500
C 	C 	0.67147 0.54993 0.71413 0.08200
C 	C 	0.67357 0.57573 0.79033 -0.13800
H 	H 	0.65337 0.57813 0.80343 0.07700
C 	C 	0.70527 0.59793 0.84723 0.04900
H 	H 	0.70667 0.61553 0.89933 -0.00300
N 	N 	0.73467 0.59433 0.82803 -0.25700
C 	C 	0.73267 0.56863 0.75193 0.04200
H 	H 	0.75277 0.56613 0.73873 -0.01500
C 	C 	0.70097 0.54633 0.69493 -0.14100
H 	H 	0.69957 0.52873 0.64293 0.05600
C 	C 	0.78057 0.51643 0.02063 0.42500
N 	N 	0.92157 0.52193 0.61303 -0.25600
C 	C 	0.89967 0.50143 0.70343 0.04500
H 	H 	0.89927 0.48023 0.72593 -0.01400
C 	C 	0.87837 0.51183 0.76093 -0.14200
H 	H 	0.86337 0.49783 0.82273 0.05800
C 	C 	0.87897 0.54283 0.72813 0.08000
C 	C 	0.90087 0.56333 0.63773 -0.13900
H 	H 	0.90127 0.58443 0.61523 0.07200
C 	C 	0.92217 0.55283 0.58023 0.04100
H 	H 	0.93727 0.56693 0.51843 -0.00900
C 	C 	0.78687 0.53323 0.14133 -0.71400
H 	H 	0.76897 0.51663 0.19573 0.20500
H 	H 	0.81047 0.53903 0.16913 0.20800
H 	H 	0.78547 0.55493 0.13713 0.23000
C 	C 	0.85487 0.55343 0.79523 -0.08700
C 	C 	0.85847 0.58623 0.76983 0.03600
H 	H 	0.87547 0.60133 0.71463 0.01400
C 	C 	0.83687 0.59673 0.82533 -0.16800
C 	C 	0.81187 0.57453 0.90613 0.27600
C 	C 	0.80827 0.54173 0.93153 -0.23200
C 	C 	0.82987 0.53123 0.87603 0.05900
H 	H 	0.82747 0.50883 0.89343 -0.01300
C 	C 	0.74197 0.50393 0.97233 -0.60400
H 	H 	0.73937 0.49343 0.89503 0.18900
H 	H 	0.72437 0.48633 0.02593 0.16100
H 	H 	0.73837 0.52433 0.96713 0.19700
C 	C 	0.78127 0.48073 0.03933 -0.68700
H 	H 	0.77737 0.46853 0.96433 0.21200
H 	H 	0.80437 0.48623 0.07063 0.18700
H 	H 	0.76267 0.46553 0.09433 0.19100
C 	C 	0.83877 0.62893 0.78523 0.08400
H 	H 	0.85827 0.64233 0.73483 0.00500
C 	C 	0.82467 0.67403 0.75163 0.01500
H 	H 	0.80457 0.66683 0.69593 0.01700
C 	C 	0.85867 0.69733 0.68363 -0.12400
H 	H 	0.87917 0.70683 0.73763 0.05500
H 	H 	0.86207 0.68293 0.62383 0.05600
C 	C 	0.85727 0.72763 0.62493 -0.07900
H 	H 	0.87937 0.74203 0.58053 0.03200
H 	H 	0.83737 0.71813 0.56893 0.04700
C 	C 	0.85277 0.75023 0.71133 -0.05800
H 	H 	0.85037 0.76893 0.67043 0.02300
H 	H 	0.87397 0.76193 0.76223 0.02000
C 	C 	0.81977 0.72773 0.78563 -0.12800
H 	H 	0.81767 0.74283 0.84593 0.04600
H 	H 	0.79857 0.71803 0.73543 0.06700
C 	C 	0.82177 0.69813 0.84353 0.00300
H 	H 	0.84267 0.70783 0.89683 0.02200
C 	C 	0.79207 0.69083 0.02943 -0.07400
H 	H 	0.79727 0.71553 0.02183 0.04000
H 	H 	0.81187 0.69103 0.07243 0.01800
C 	C 	0.75717 0.66923 0.10033 -0.09900
C 	C 	0.74357 0.63373 0.12683 0.21500
C 	C 	0.71332 0.61608 0.19523 -0.29000
C 	C 	0.69677 0.63403 0.23723 0.09200
H 	H 	0.67617 0.62203 0.28403 -0.01600
C 	C 	0.71047 0.66963 0.21073 -0.08100
C 	C 	0.74066 0.68722 0.14223 0.00800
H 	H 	0.75007 0.71153 0.12413 0.01100
C 	C 	0.69777 0.57573 0.22723 0.71300
C 	C 	0.54547 0.51143 0.63633 0.07100
H 	H 	0.55097 0.53273 0.67543 0.00900
C 	C 	0.72367 0.57023 0.29333 -1.04100
H 	H 	0.74557 0.57933 0.24733 0.32900
H 	H 	0.72887 0.58283 0.36763 0.32300
H 	H 	0.71397 0.54493 0.30733 0.30200
C 	C 	0.68827 0.55533 0.11133 -0.94000
H 	H 	0.67097 0.55923 0.06883 0.28600
H 	H 	0.70967 0.56363 0.06383 0.28300
H 	H 	0.67807 0.53003 0.12703 0.27000
C 	C 	0.66437 0.56103 0.30263 -0.95100
H 	H 	0.64637 0.56423 0.26193 0.29300
H 	H 	0.65507 0.53573 0.31703 0.28000
H 	H 	0.67007 0.57373 0.37723 0.29400
C 	C 	0.69198 0.68963 0.25113 0.09100
C 	C 	0.70797 0.72583 0.23213 -0.13500
H 	H 	0.73077 0.73823 0.19773 0.05900
C 	C 	0.69062 0.74398 0.26333 0.06000
H 	H 	0.70147 0.76873 0.25033 0.00200
N 	N 	0.65717 0.72583 0.31363 -0.13500
C 	C 	0.64117 0.68963 0.33263 0.06200
H 	H 	0.61827 0.67723 0.36703 -0.00000
C 	C 	0.65855 0.67151 0.30143 -0.13800
H 	H 	0.64757 0.64673 0.31443 0.07600
N 	N 	0.82057 0.64263 0.80233 -0.25600
Zn	Zn	0.22191 0.38279 0.84543 1.20400
Zn	Zn	0.04485 0.49127 0.26158 1.20000
N 	N 	0.22103 0.33297 0.86307 -0.21700
N 	N 	0.17533 0.35607 0.93627 -0.26400
N 	N 	0.99123 0.44727 0.24307 -0.21200
O 	O 	0.23853 0.38587 0.68307 -0.47100
O 	O 	0.21273 0.42237 0.82147 -0.44800
O 	O 	0.08293 0.54117 0.29327 -0.45700
O 	O 	0.04953 0.47857 0.42257 -0.44100
N 	N 	0.34023 0.27747 0.45307 -0.13200
C 	C 	0.35783 0.31417 0.44567 0.06700
H 	H 	0.38173 0.32677 0.42007 0.00200
C 	C 	0.34043 0.33237 0.47567 -0.14100
H 	H 	0.35243 0.35747 0.47057 0.07900
C 	C 	0.30543 0.31397 0.51307 0.10300
C 	C 	0.28783 0.27727 0.52047 -0.14200
H 	H 	0.26393 0.26457 0.54607 0.06800
C 	C 	0.30523 0.25897 0.49047 0.06400
H 	H 	0.29323 0.23397 0.49557 0.00400
C 	C 	0.30023 0.42787 0.54067 0.74300
C 	C 	0.28613 0.33327 0.55347 -0.10300
C 	C 	0.25703 0.31621 0.62707 0.04500
H 	H 	0.24793 0.29197 0.64627 0.00500
C 	C 	0.24143 0.33457 0.67267 -0.14900
C 	C 	0.25483 0.36997 0.64457 0.29900
C 	C 	0.28393 0.38706 0.57097 -0.33400
C 	C 	0.29953 0.36867 0.52537 0.12300
H 	H 	0.31943 0.38037 0.47507 -0.02600
C 	C 	0.31323 0.45137 0.64467 -1.03900
H 	H 	0.33093 0.44787 0.68507 0.31900
H 	H 	0.32383 0.47607 0.61917 0.29700
H 	H 	0.29333 0.44567 0.69697 0.31300
C 	C 	0.27263 0.43297 0.47667 -0.98300
H 	H 	0.26413 0.41737 0.40807 0.30300
H 	H 	0.25263 0.42727 0.52857 0.31100
H 	H 	0.28313 0.45767 0.45077 0.28100
C 	C 	0.33213 0.44077 0.45967 -0.98700
H 	H 	0.32513 0.42617 0.38887 0.30700
H 	H 	0.34073 0.46547 0.43807 0.29200
H 	H 	0.35093 0.43887 0.49967 0.30400
C 	C 	0.21083 0.31637 0.75407 0.00400
H 	H 	0.19033 0.31787 0.72387 -0.01600
H 	H 	0.20373 0.29107 0.76137 0.02500
C 	C 	0.19863 0.31577 0.97057 -0.00400
H 	H 	0.21233 0.33007 0.03977 0.01000
C 	C 	0.19103 0.27907 0.98967 -0.07800
H 	H 	0.21323 0.27817 0.98737 0.04700
H 	H 	0.17503 0.26327 0.92797 0.03600
C 	C 	0.17243 0.26647 0.11667 -0.12900
H 	H 	0.16823 0.24257 0.13597 0.04300
H 	H 	0.18753 0.28317 0.17817 0.06200
C 	C 	0.13593 0.26627 0.10567 -0.03500
H 	H 	0.12153 0.25007 0.04207 0.00900
H 	H 	0.12243 0.25777 0.17947 0.02100
C 	C 	0.14343 0.30327 0.07967 -0.15900
H 	H 	0.15733 0.31907 0.14487 0.06900
H 	H 	0.12073 0.30327 0.07487 0.06200
C 	C 	0.16403 0.31777 0.96457 0.02100
H 	H 	0.14923 0.30247 0.89887 0.02000
C 	C 	0.16333 0.40467 0.94977 -0.12800
C 	C 	0.13963 0.41277 0.00287 -0.02800
H 	H 	0.12163 0.39597 0.05267 0.03200
C 	C 	0.14223 0.44537 0.98327 -0.04100
C 	C 	0.16853 0.46997 0.91057 0.04700
H 	H 	0.17033 0.49227 0.89717 -0.01200
C 	C 	0.19223 0.46187 0.85737 -0.24500
C 	C 	0.18973 0.42927 0.87697 0.24300
C 	C 	0.22233 0.48967 0.77647 0.53200
C 	C 	0.21943 0.47407 0.65067 -0.74800
H 	H 	0.19623 0.46737 0.61687 0.21800
H 	H 	0.23813 0.49197 0.60067 0.21000
H 	H 	0.22223 0.45317 0.65477 0.24200
C 	C 	0.25753 0.49957 0.82567 -0.83800
H 	H 	0.27613 0.51687 0.77457 0.24100
H 	H 	0.25983 0.50997 0.90357 0.25200
H 	H 	0.25993 0.47847 0.83207 0.26600
C 	C 	0.21873 0.52387 0.76767 -0.73500
H 	H 	0.19553 0.51757 0.73517 0.20800
H 	H 	0.22113 0.53407 0.84567 0.21700
H 	H 	0.23743 0.54127 0.71677 0.20500
C 	C 	0.11673 0.45487 0.04747 0.06100
C 	C 	0.09093 0.43117 0.12367 -0.13200
H 	H 	0.08853 0.40857 0.13677 0.06900
C 	C 	0.06873 0.44067 0.18057 0.04100
H 	H 	0.05113 0.42447 0.23267 -0.00700
N 	N 	0.07233 0.47367 0.16137 -0.26000
C 	C 	0.09803 0.49737 0.08527 0.04600
H 	H 	0.10053 0.51997 0.07207 -0.02100
C 	C 	0.12033 0.48797 0.02827 -0.16200
H 	H 	0.13793 0.50417 0.97627 0.07100
C 	C 	0.15023 0.59747 0.35397 0.47000
N 	N 	0.14473 0.73297 0.94637 -0.24400
C 	C 	0.16523 0.73157 0.03677 0.01900
H 	H 	0.18643 0.75237 0.05927 -0.01300
C 	C 	0.15483 0.69987 0.09427 -0.12500
H 	H 	0.16883 0.69887 0.15607 0.04800
C 	C 	0.12383 0.66947 0.06147 0.05300
C 	C 	0.10333 0.67087 0.97107 -0.10600
H 	H 	0.08223 0.65017 0.94857 0.06600
C 	C 	0.11383 0.70267 0.91357 0.03100
H 	H 	0.09973 0.70367 0.85177 -0.00500
C 	C 	0.13343 0.58697 0.47467 -0.75100
H 	H 	0.15003 0.58567 0.52907 0.21600
H 	H 	0.12763 0.60477 0.50247 0.21900
H 	H 	0.11173 0.56387 0.47047 0.24400
C 	C 	0.11323 0.63477 0.12857 -0.08900
C 	C 	0.08043 0.60557 0.10317 0.03800
H 	H 	0.06533 0.60747 0.04797 0.00800
C 	C 	0.06993 0.57347 0.15867 -0.17900
C 	C 	0.09213 0.57067 0.23947 0.28600
C 	C 	0.12493 0.59987 0.26487 -0.26100
C 	C 	0.13543 0.63197 0.20937 0.06700
H 	H 	0.15783 0.65197 0.22677 -0.02100
C 	C 	0.16273 0.57137 0.30567 -0.69200
H 	H 	0.17323 0.57927 0.22837 0.20900
H 	H 	0.18033 0.57137 0.35927 0.19400
H 	H 	0.14233 0.54737 0.30047 0.21600
C 	C 	0.18593 0.63387 0.37267 -0.67100
H 	H 	0.19813 0.64217 0.29767 0.19600
H 	H 	0.18043 0.65147 0.40397 0.18500
H 	H 	0.20113 0.63047 0.42767 0.18700
C 	C 	0.03773 0.54317 0.11857 0.08800
H 	H 	0.02433 0.54927 0.06817 -0.00300
C 	C 	0.99263 0.48397 0.08497 0.05500
H 	H 	0.99983 0.47107 0.02927 0.00200
C 	C 	0.96933 0.49467 0.01697 -0.22300
H 	H 	0.95983 0.50567 0.07097 0.08000
H 	H 	0.98373 0.51247 0.95717 0.09700
C 	C 	0.93903 0.46297 0.95827 0.02500
H 	H 	0.92463 0.47067 0.91387 0.00500
H 	H 	0.94853 0.45257 0.90227 0.02200
C 	C 	0.91643 0.43587 0.04467 -0.13600
H 	H 	0.89773 0.41477 0.00377 0.04000
H 	H 	0.90473 0.44537 0.09557 0.03900
C 	C 	0.93893 0.42537 0.11897 -0.08200
H 	H 	0.92383 0.40817 0.17927 0.02800
H 	H 	0.94863 0.41387 0.06877 0.05000
C 	C 	0.96853 0.45697 0.17687 -0.02600
H 	H 	0.95883 0.46817 0.23017 0.02500
C 	C 	0.97583 0.43457 0.36277 -0.06400
H 	H 	0.95113 0.41507 0.35517 0.04300
H 	H 	0.97563 0.45417 0.40577 0.01900
C 	C 	0.99743 0.42127 0.43367 -0.09000
C 	C 	0.03293 0.44317 0.46017 0.20900
C 	C 	0.05058 0.43057 0.52857 -0.28500
C 	C 	0.03263 0.39607 0.57057 0.08200
H 	H 	0.04463 0.38747 0.61737 -0.01200
C 	C 	0.99703 0.37417 0.54407 -0.06800
C 	C 	0.97944 0.38677 0.47557 0.00300
H 	H 	0.95513 0.37187 0.45747 0.01500
C 	C 	0.09093 0.45537 0.56057 0.71600
C 	C 	0.15523 0.36737 0.96967 0.09100
H 	H 	0.13393 0.35157 0.00877 -0.01000
C 	C 	0.09643 0.48677 0.62667 -1.04400
H 	H 	0.08733 0.49957 0.58067 0.33000
H 	H 	0.08383 0.47937 0.70097 0.32400
H 	H 	0.12173 0.50237 0.64067 0.30300
C 	C 	0.11133 0.46627 0.44467 -0.94700
H 	H 	0.10743 0.44507 0.40217 0.29100
H 	H 	0.10303 0.47937 0.39717 0.28900
H 	H 	0.13663 0.48137 0.46037 0.27300
C 	C 	0.10563 0.43667 0.63597 -0.95400
H 	H 	0.10243 0.41547 0.59527 0.29400
H 	H 	0.13093 0.45267 0.65037 0.28100
H 	H 	0.09293 0.42967 0.71057 0.29500
C 	C 	0.97703 0.33568 0.58447 0.08400
C 	C 	0.94083 0.31547 0.56547 -0.12800
H 	H 	0.92843 0.32587 0.53107 0.05600
C 	C 	0.92268 0.27997 0.59667 0.05800
H 	H 	0.89793 0.26607 0.58367 0.00300
N 	N 	0.94083 0.26467 0.64697 -0.13200
C 	C 	0.97703 0.28487 0.66597 0.05700
H 	H 	0.98943 0.27437 0.70037 0.00500
C 	C 	0.99515 0.32037 0.63477 -0.12300
H 	H 	0.01993 0.33417 0.64777 0.06900
N 	N 	0.02403 0.51127 0.13567 -0.26800
Zn	Zn	0.61721 0.83913 0.84543 1.20400
Zn	Zn	0.50873 0.55359 0.26158 1.20000
N 	N 	0.66703 0.88807 0.86307 -0.21700
N 	N 	0.64393 0.81927 0.93627 -0.26400
N 	N 	0.55273 0.54397 0.24307 -0.21400
O 	O 	0.61413 0.85267 0.68307 -0.47100
O 	O 	0.57763 0.79037 0.82147 -0.44800
O 	O 	0.45883 0.54177 0.29327 -0.45600
O 	O 	0.52143 0.57097 0.42257 -0.44200
N 	N 	0.72253 0.06277 0.45307 -0.12800
C 	C 	0.68583 0.04367 0.44567 0.05500
H 	H 	0.67323 0.05497 0.42007 0.00700
C 	C 	0.66763 0.00807 0.47567 -0.11500
H 	H 	0.64253 0.99497 0.47057 0.06700
C 	C 	0.68603 0.99147 0.51307 0.07900
C 	C 	0.72273 0.01057 0.52047 -0.11600
H 	H 	0.73543 0.99937 0.54607 0.05600
C 	C 	0.74103 0.04627 0.49047 0.05200
H 	H 	0.76603 0.05927 0.49557 0.00800
C 	C 	0.57213 0.87237 0.54067 0.74100
C 	C 	0.66673 0.95287 0.55347 -0.09300
C 	C 	0.68379 0.94083 0.62707 0.03900
H 	H 	0.70803 0.95597 0.64627 0.00700
C 	C 	0.66543 0.90687 0.67267 -0.14500
C 	C 	0.63003 0.88487 0.64457 0.29600
C 	C 	0.61294 0.89688 0.57097 -0.33000
C 	C 	0.63133 0.93087 0.52537 0.11700
H 	H 	0.61963 0.93907 0.47507 -0.02400
C 	C 	0.54863 0.86187 0.64467 -1.03800
H 	H 	0.55213 0.88307 0.68507 0.31800
H 	H 	0.52393 0.84777 0.61917 0.29700
H 	H 	0.55433 0.84767 0.69697 0.31300
C 	C 	0.56703 0.83967 0.47667 -0.98100
H 	H 	0.58263 0.84677 0.40807 0.30200
H 	H 	0.57273 0.82537 0.52857 0.31000
H 	H 	0.54233 0.82547 0.45077 0.28100
C 	C 	0.55923 0.89137 0.45967 -0.98500
H 	H 	0.57383 0.89897 0.38887 0.30600
H 	H 	0.53453 0.87527 0.43807 0.29100
H 	H 	0.56113 0.91207 0.49967 0.30300
C 	C 	0.68363 0.89447 0.75407 0.00300
H 	H 	0.68213 0.87247 0.72387 -0.01500
H 	H 	0.70893 0.91267 0.76137 0.02600
C 	C 	0.68423 0.88287 0.97057 -0.00400
H 	H 	0.66993 0.88227 0.03977 0.01000
C 	C 	0.72093 0.91197 0.98967 -0.07800
H 	H 	0.72183 0.93507 0.98737 0.04700
H 	H 	0.73673 0.91177 0.92797 0.03600
C 	C 	0.73353 0.90597 0.11667 -0.12900
H 	H 	0.75743 0.92567 0.13597 0.04300
H 	H 	0.71683 0.90437 0.17817 0.06200
C 	C 	0.73373 0.86967 0.10567 -0.03500
H 	H 	0.74993 0.87147 0.04207 0.00800
H 	H 	0.74223 0.86467 0.17947 0.02100
C 	C 	0.69673 0.84017 0.07967 -0.15900
H 	H 	0.68093 0.83827 0.14487 0.06900
H 	H 	0.69673 0.81747 0.07487 0.06200
C 	C 	0.68223 0.84627 0.96457 0.02100
H 	H 	0.69753 0.84677 0.89887 0.02000
C 	C 	0.59533 0.75867 0.94977 -0.12800
C 	C 	0.58723 0.72687 0.00287 -0.02900
H 	H 	0.60403 0.72567 0.05267 0.03200
C 	C 	0.55463 0.69687 0.98327 -0.04100
C 	C 	0.53003 0.69857 0.91057 0.04700
H 	H 	0.50773 0.67807 0.89717 -0.01200
C 	C 	0.53813 0.73037 0.85737 -0.24500
C 	C 	0.57073 0.76047 0.87697 0.24300
C 	C 	0.51033 0.73267 0.77647 0.53200
C 	C 	0.52593 0.74537 0.65067 -0.74800
H 	H 	0.53263 0.72887 0.61687 0.21800
H 	H 	0.50803 0.74617 0.60067 0.21000
H 	H 	0.54683 0.76907 0.65477 0.24200
C 	C 	0.50043 0.75797 0.82567 -0.83800
H 	H 	0.48313 0.75927 0.77457 0.24100
H 	H 	0.49003 0.74987 0.90357 0.25200
H 	H 	0.52153 0.78147 0.83207 0.26600
C 	C 	0.47613 0.69487 0.76767 -0.73500
H 	H 	0.48243 0.67797 0.73517 0.20800
H 	H 	0.46593 0.68707 0.84567 0.21700
H 	H 	0.45873 0.69617 0.71677 0.20500
C 	C 	0.54513 0.66187 0.04747 0.06100
C 	C 	0.56883 0.65977 0.12367 -0.13200
H 	H 	0.59143 0.67997 0.13677 0.07000
C 	C 	0.55933 0.62807 0.18057 0.04100
H 	H 	0.57553 0.62667 0.23267 -0.00700
N 	N 	0.52633 0.59867 0.16137 -0.26000
C 	C 	0.50263 0.60067 0.08527 0.04600
H 	H 	0.48003 0.58057 0.07207 -0.02100
C 	C 	0.51203 0.63237 0.02827 -0.16200
H 	H 	0.49583 0.63377 0.97627 0.07100
C 	C 	0.40253 0.55277 0.35397 0.47000
N 	N 	0.26703 0.41177 0.94637 -0.24300
C 	C 	0.26843 0.43367 0.03677 0.01900
H 	H 	0.24763 0.43407 0.05927 -0.01300
C 	C 	0.30013 0.45497 0.09427 -0.12500
H 	H 	0.30113 0.46997 0.15607 0.04800
C 	C 	0.33053 0.45437 0.06147 0.05200
C 	C 	0.32913 0.43247 0.97107 -0.10600
H 	H 	0.34983 0.43207 0.94857 0.06600
C 	C 	0.29733 0.41117 0.91357 0.03100
H 	H 	0.29633 0.39607 0.85177 -0.00500
C 	C 	0.41303 0.54647 0.47467 -0.75100
H 	H 	0.41433 0.56437 0.52907 0.21600
H 	H 	0.39523 0.52287 0.50247 0.21900
H 	H 	0.43613 0.54787 0.47047 0.24400
C 	C 	0.36523 0.47847 0.12857 -0.08900
C 	C 	0.39443 0.47487 0.10317 0.03800
H 	H 	0.39253 0.45787 0.04797 0.00800
C 	C 	0.42653 0.49647 0.15867 -0.17900
C 	C 	0.42933 0.52147 0.23947 0.28600
C 	C 	0.40013 0.52507 0.26487 -0.26100
C 	C 	0.36803 0.50347 0.20937 0.06700
H 	H 	0.34803 0.50587 0.22677 -0.02100
C 	C 	0.42863 0.59137 0.30567 -0.69100
H 	H 	0.42073 0.59397 0.22837 0.20800
H 	H 	0.42863 0.60897 0.35927 0.19400
H 	H 	0.45263 0.59497 0.30047 0.21600
C 	C 	0.36613 0.55207 0.37267 -0.67000
H 	H 	0.35783 0.55597 0.29767 0.19600
H 	H 	0.34853 0.52897 0.40397 0.18500
H 	H 	0.36953 0.57067 0.42767 0.18700
C 	C 	0.45683 0.49457 0.11857 0.08800
H 	H 	0.45073 0.47507 0.06817 -0.00100
C 	C 	0.51603 0.50867 0.08497 0.05100
H 	H 	0.52893 0.52877 0.02927 0.00200
C 	C 	0.50533 0.47467 0.01697 -0.22000
H 	H 	0.49433 0.45417 0.07097 0.07900
H 	H 	0.48753 0.47127 0.95717 0.09400
C 	C 	0.53703 0.47607 0.95827 0.02400
H 	H 	0.52933 0.45397 0.91387 0.00600
H 	H 	0.54743 0.49597 0.90227 0.02200
C 	C 	0.56413 0.48057 0.04467 -0.13500
H 	H 	0.58523 0.48297 0.00377 0.04000
H 	H 	0.55463 0.45937 0.09557 0.03900
C 	C 	0.57463 0.51357 0.11897 -0.08300
H 	H 	0.59183 0.51567 0.17927 0.02900
H 	H 	0.58613 0.53477 0.06877 0.05000
C 	C 	0.54303 0.51157 0.17687 -0.02400
H 	H 	0.53183 0.49067 0.23017 0.02400
C 	C 	0.56543 0.54127 0.36277 -0.06000
H 	H 	0.58493 0.53607 0.35517 0.04200
H 	H 	0.54583 0.52147 0.40577 0.01700
C 	C 	0.57873 0.57617 0.43367 -0.10000
C 	C 	0.55683 0.58977 0.46017 0.21800
C 	C 	0.56943 0.62002 0.52857 -0.29200
C 	C 	0.60393 0.63657 0.57057 0.09500
H 	H 	0.61253 0.65717 0.61737 -0.01600
C 	C 	0.62583 0.62287 0.54407 -0.08100
C 	C 	0.61323 0.59268 0.47557 0.01100
H 	H 	0.62813 0.58327 0.45747 0.01200
C 	C 	0.54463 0.63557 0.56057 0.72000
C 	C 	0.63263 0.78787 0.96967 0.09100
H 	H 	0.64843 0.78237 0.00877 -0.01000
C 	C 	0.51323 0.60967 0.62667 -1.04800
H 	H 	0.50043 0.58777 0.58067 0.33100
H 	H 	0.52063 0.60447 0.70097 0.32500
H 	H 	0.49763 0.61937 0.64067 0.30400
C 	C 	0.53373 0.64507 0.44467 -0.95100
H 	H 	0.55493 0.66237 0.40217 0.29200
H 	H 	0.52063 0.62367 0.39717 0.29000
H 	H 	0.51863 0.65527 0.46037 0.27400
C 	C 	0.56333 0.66897 0.63597 -0.95700
H 	H 	0.58453 0.68697 0.59527 0.29500
H 	H 	0.54733 0.67827 0.65037 0.28200
H 	H 	0.57033 0.66327 0.71057 0.29600
C 	C 	0.66432 0.64136 0.58447 0.09300
C 	C 	0.68453 0.62537 0.56547 -0.13400
H 	H 	0.67413 0.60257 0.53107 0.05800
C 	C 	0.72003 0.64272 0.59667 0.06100
H 	H 	0.73393 0.63187 0.58367 0.00200
N 	N 	0.73533 0.67617 0.64697 -0.13400
C 	C 	0.71513 0.69217 0.66597 0.06300
H 	H 	0.72563 0.71507 0.70037 0.00100
C 	C 	0.67963 0.67479 0.63477 -0.13700
H 	H 	0.66583 0.68577 0.64777 0.07700
N 	N 	0.48873 0.51277 0.13567 -0.26500
Zn	Zn	0.16087 0.77809 0.84543 1.20400
Zn	Zn	0.44641 0.95515 0.26158 1.20000
N 	N 	0.11193 0.77897 0.86307 -0.21700
N 	N 	0.18073 0.82467 0.93627 -0.26400
N 	N 	0.45603 0.00877 0.24307 -0.21200
O 	O 	0.14733 0.76147 0.68307 -0.47100
O 	O 	0.20963 0.78727 0.82147 -0.44800
O 	O 	0.45823 0.91707 0.29327 -0.45700
O 	O 	0.42903 0.95047 0.42257 -0.44100
N 	N 	0.93723 0.65977 0.45307 -0.12800
C 	C 	0.95633 0.64217 0.44567 0.05500
H 	H 	0.94503 0.61827 0.42007 0.00700
C 	C 	0.99193 0.65957 0.47567 -0.11500
H 	H 	0.00503 0.64757 0.47057 0.06700
C 	C 	0.00853 0.69457 0.51307 0.07900
C 	C 	0.98943 0.71217 0.52047 -0.11600
H 	H 	0.00063 0.73607 0.54607 0.05600
C 	C 	0.95373 0.69477 0.49047 0.05200
H 	H 	0.94073 0.70677 0.49557 0.00800
C 	C 	0.12763 0.69977 0.54067 0.74100
C 	C 	0.04713 0.71387 0.55347 -0.09300
C 	C 	0.05917 0.74297 0.62707 0.03900
H 	H 	0.04403 0.75207 0.64627 0.00700
C 	C 	0.09313 0.75857 0.67267 -0.14500
C 	C 	0.11513 0.74517 0.64457 0.29600
C 	C 	0.10312 0.71607 0.57097 -0.33000
C 	C 	0.06913 0.70047 0.52537 0.11700
H 	H 	0.06093 0.68057 0.47507 -0.02400
C 	C 	0.13813 0.68677 0.64467 -1.03800
H 	H 	0.11693 0.66907 0.68507 0.31800
H 	H 	0.15223 0.67617 0.61917 0.29700
H 	H 	0.15233 0.70667 0.69697 0.31300
C 	C 	0.16033 0.72737 0.47667 -0.98100
H 	H 	0.15323 0.73587 0.40807 0.30200
H 	H 	0.17463 0.74737 0.52857 0.31000
H 	H 	0.17453 0.71687 0.45077 0.28100
C 	C 	0.10863 0.66787 0.45967 -0.98500
H 	H 	0.10103 0.67487 0.38887 0.30600
H 	H 	0.12473 0.65927 0.43807 0.29100
H 	H 	0.08793 0.64907 0.49967 0.30300
C 	C 	0.10553 0.78917 0.75407 0.00300
H 	H 	0.12753 0.80967 0.72387 -0.01500
H 	H 	0.08733 0.79627 0.76137 0.02600
C 	C 	0.11713 0.80137 0.97057 -0.00400
H 	H 	0.11773 0.78767 0.03977 0.01000
C 	C 	0.08803 0.80897 0.98967 -0.07800
H 	H 	0.06493 0.78677 0.98737 0.04700
H 	H 	0.08823 0.82497 0.92797 0.03700
C 	C 	0.09403 0.82757 0.11667 -0.12800
H 	H 	0.07433 0.83177 0.13597 0.04300
H 	H 	0.09563 0.81247 0.17817 0.06200
C 	C 	0.13033 0.86407 0.10567 -0.03500
H 	H 	0.12853 0.87847 0.04207 0.00900
H 	H 	0.13533 0.87757 0.17947 0.02100
C 	C 	0.15983 0.85657 0.07967 -0.15900
H 	H 	0.16173 0.84267 0.14487 0.06900
H 	H 	0.18253 0.87927 0.07487 0.06200
C 	C 	0.15373 0.83597 0.96457 0.02100
H 	H 	0.15323 0.85077 0.89887 0.02000
C 	C 	0.24133 0.83667 0.94977 -0.12800
C 	C 	0.27313 0.86037 0.00287 -0.02800
H 	H 	0.27433 0.87837 0.05267 0.03200
C 	C 	0.30313 0.85777 0.98327 -0.04100
C 	C 	0.30143 0.83147 0.91057 0.04700
H 	H 	0.32193 0.82967 0.89717 -0.01200
C 	C 	0.26963 0.80777 0.85737 -0.24500
C 	C 	0.23953 0.81027 0.87697 0.24300
C 	C 	0.26733 0.77767 0.77647 0.53200
C 	C 	0.25463 0.78057 0.65067 -0.74900
H 	H 	0.27113 0.80377 0.61687 0.21800
H 	H 	0.25383 0.76187 0.60067 0.21000
H 	H 	0.23093 0.77777 0.65477 0.24200
C 	C 	0.24203 0.74247 0.82567 -0.83800
H 	H 	0.24073 0.72387 0.77457 0.24100
H 	H 	0.25013 0.74017 0.90357 0.25200
H 	H 	0.21853 0.74007 0.83207 0.26600
C 	C 	0.30513 0.78127 0.76767 -0.73500
H 	H 	0.32203 0.80447 0.73517 0.20800
H 	H 	0.31293 0.77887 0.84567 0.21700
H 	H 	0.30383 0.76257 0.71677 0.20500
C 	C 	0.33813 0.88327 0.04747 0.06100
C 	C 	0.34023 0.90907 0.12367 -0.13200
H 	H 	0.32003 0.91147 0.13677 0.06900
C 	C 	0.37193 0.93127 0.18057 0.04100
H 	H 	0.37333 0.94887 0.23267 -0.00700
N 	N 	0.40133 0.92767 0.16137 -0.26000
C 	C 	0.39933 0.90197 0.08527 0.04600
H 	H 	0.41943 0.89947 0.07207 -0.02100
C 	C 	0.36763 0.87967 0.02827 -0.16200
H 	H 	0.36623 0.86207 0.97627 0.07100
C 	C 	0.44723 0.84977 0.35397 0.47000
N 	N 	0.58823 0.85527 0.94637 -0.24300
C 	C 	0.56633 0.83477 0.03677 0.01900
H 	H 	0.56593 0.81357 0.05927 -0.01300
C 	C 	0.54503 0.84517 0.09427 -0.12500
H 	H 	0.53003 0.83117 0.15607 0.04800
C 	C 	0.54563 0.87617 0.06147 0.05300
C 	C 	0.56753 0.89667 0.97107 -0.10600
H 	H 	0.56793 0.91777 0.94857 0.06600
C 	C 	0.58883 0.88617 0.91357 0.03100
H 	H 	0.60393 0.90027 0.85177 -0.00500
C 	C 	0.45353 0.86657 0.47467 -0.75100
H 	H 	0.43563 0.84997 0.52907 0.21600
H 	H 	0.47713 0.87237 0.50247 0.21900
H 	H 	0.45213 0.88827 0.47047 0.24400
C 	C 	0.52153 0.88677 0.12857 -0.08900
C 	C 	0.52513 0.91957 0.10317 0.03800
H 	H 	0.54213 0.93467 0.04797 0.00800
C 	C 	0.50353 0.93007 0.15867 -0.17900
C 	C 	0.47853 0.90787 0.23947 0.28600
C 	C 	0.47493 0.87507 0.26487 -0.26100
C 	C 	0.49653 0.86457 0.20937 0.06700
H 	H 	0.49413 0.84217 0.22677 -0.02100
C 	C 	0.40863 0.83727 0.30567 -0.69200
H 	H 	0.40603 0.82677 0.22837 0.20900
H 	H 	0.39103 0.81967 0.35927 0.19400
H 	H 	0.40503 0.85767 0.30047 0.21600
C 	C 	0.44793 0.81407 0.37267 -0.67100
H 	H 	0.44403 0.80187 0.29767 0.19600
H 	H 	0.47103 0.81957 0.40397 0.18500
H 	H 	0.42933 0.79887 0.42767 0.18700
C 	C 	0.50543 0.96227 0.11857 0.08800
H 	H 	0.52493 0.97567 0.06817 -0.00300
C 	C 	0.49133 0.00737 0.08497 0.05500
H 	H 	0.47123 0.00017 0.02927 0.00200
C 	C 	0.52533 0.03067 0.01697 -0.22300
H 	H 	0.54583 0.04017 0.07097 0.08000
H 	H 	0.52873 0.01627 0.95717 0.09700
C 	C 	0.52393 0.06097 0.95827 0.02500
H 	H 	0.54603 0.07537 0.91387 0.00500
H 	H 	0.50403 0.05147 0.90227 0.02200
C 	C 	0.51943 0.08357 0.04467 -0.13600
H 	H 	0.51703 0.10227 0.00377 0.04000
H 	H 	0.54063 0.09527 0.09557 0.03900
C 	C 	0.48643 0.06107 0.11897 -0.08200
H 	H 	0.48433 0.07617 0.17927 0.02800
H 	H 	0.46523 0.05137 0.06877 0.05000
C 	C 	0.48843 0.03147 0.17687 -0.02600
H 	H 	0.50933 0.04117 0.23017 0.02500
C 	C 	0.45873 0.02417 0.36277 -0.06400
H 	H 	0.46393 0.04887 0.35517 0.04300
H 	H 	0.47853 0.02437 0.40577 0.01900
C 	C 	0.42383 0.00257 0.43367 -0.09000
C 	C 	0.41023 0.96707 0.46017 0.20900
C 	C 	0.37998 0.94942 0.52857 -0.28500
C 	C 	0.36343 0.96737 0.57057 0.08200
H 	H 	0.34283 0.95537 0.61737 -0.01200
C 	C 	0.37713 0.00297 0.54407 -0.06800
C 	C 	0.40732 0.02056 0.47557 0.00300
H 	H 	0.41673 0.04487 0.45747 0.01500
C 	C 	0.36443 0.90907 0.56057 0.71600
C 	C 	0.21213 0.84477 0.96967 0.09100
H 	H 	0.21763 0.86607 0.00877 -0.01000
C 	C 	0.39033 0.90357 0.62667 -1.04400
H 	H 	0.41223 0.91267 0.58067 0.33000
H 	H 	0.39553 0.91617 0.70097 0.32400
H 	H 	0.38063 0.87827 0.64067 0.30300
C 	C 	0.35493 0.88867 0.44467 -0.94700
H 	H 	0.33763 0.89257 0.40217 0.29100
H 	H 	0.37633 0.89697 0.39717 0.28900
H 	H 	0.34473 0.86337 0.46037 0.27300
C 	C 	0.33103 0.89437 0.63597 -0.95400
H 	H 	0.31303 0.89757 0.59527 0.29400
H 	H 	0.32173 0.86907 0.65037 0.28100
H 	H 	0.33673 0.90707 0.71057 0.29500
C 	C 	0.35864 0.02297 0.58447 0.08400
C 	C 	0.37463 0.05917 0.56547 -0.12800
H 	H 	0.39743 0.07157 0.53107 0.05600
C 	C 	0.35728 0.07732 0.59667 0.05800
H 	H 	0.36813 0.10207 0.58367 0.00300
N 	N 	0.32383 0.05917 0.64697 -0.13200
C 	C 	0.30783 0.02297 0.66597 0.05700
H 	H 	0.28493 0.01057 0.70037 0.00500
C 	C 	0.32521 0.00485 0.63477 -0.12300
H 	H 	0.31423 0.98007 0.64777 0.06900
N 	N 	0.48723 0.97597 0.13567 -0.26800
