data_crystal

_cell_length_a 27.04600
_cell_length_b 27.04600
_cell_length_c 37.53830
_cell_angle_alpha 90.00000
_cell_angle_beta  90.00000
_cell_angle_gamma 120.00000

_symmetry_space_group_name_	'P 1'
_symmetry_space_group_name_H-M	'P 1'

loop_
_symmetry_equiv_pos_as_xyz
  x,y,z

loop_
_atom_site_label
_atom_site_type_symbol
_atom_site_fract_x
_atom_site_fract_y
_atom_site_fract_z
_atom_site_charge
Zn	Zn	0.54366 0.49881 0.42967 1.18100
O 	O 	0.49990 0.21080 0.58360 -0.20500
O 	O 	0.49210 0.34810 0.54370 -0.20400
O 	O 	0.44470 0.20520 0.48190 -0.21200
N 	N 	0.66820 0.26110 0.71100 -0.21800
N 	N 	0.60610 0.26150 0.65490 -0.21600
N 	N 	0.54940 0.56840 0.45950 -0.22700
N 	N 	0.53190 0.46840 0.48440 -0.21700
N 	N 	0.45740 0.02880 0.37970 -0.24600
N 	N 	0.46580 0.10230 0.43200 -0.21400
C 	C 	0.71050 0.26760 0.73590 -0.00400
C 	C 	0.75270 0.25550 0.72470 0.02200
H 	H 	0.75180 0.24210 0.70120 0.02400
C 	C 	0.79590 0.26320 0.74800 -0.21700
H 	H 	0.82470 0.25530 0.74020 0.09500
C 	C 	0.79740 0.28270 0.78340 0.28800
C 	C 	0.75220 0.28940 0.79300 -0.23100
H 	H 	0.75020 0.30000 0.81680 0.09400
C 	C 	0.70980 0.28150 0.76960 0.02400
H 	H 	0.67920 0.28610 0.77780 0.01000
C 	C 	0.84320 0.29450 0.80790 -0.67000
H 	H 	0.84130 0.25860 0.81470 0.20500
H 	H 	0.83930 0.31330 0.82920 0.20800
H 	H 	0.87990 0.31960 0.79640 0.21300
C 	C 	0.63830 0.21410 0.69450 -0.03200
H 	H 	0.64100 0.18140 0.70050 0.04500
C 	C 	0.59930 0.21090 0.66580 0.03900
C 	C 	0.56340 0.16110 0.64940 -0.04000
H 	H 	0.56190 0.12670 0.65670 0.03700
C 	C 	0.52790 0.16060 0.62120 -0.11300
H 	H 	0.50100 0.12590 0.61010 0.07200
C 	C 	0.53400 0.21170 0.61060 0.14200
C 	C 	0.57370 0.26270 0.62820 -0.05400
H 	H 	0.57740 0.29810 0.62100 0.04000
C 	C 	0.51030 0.26560 0.56970 -0.10000
H 	H 	0.55030 0.28900 0.56160 0.06500
H 	H 	0.50280 0.28700 0.58830 0.07400
C 	C 	0.55530 0.62020 0.44410 0.02200
C 	C 	0.50730 0.62560 0.44040 -0.02500
H 	H 	0.47180 0.59710 0.45000 0.03500
C 	C 	0.51060 0.67290 0.42260 -0.17400
H 	H 	0.47730 0.67570 0.41950 0.06800
C 	C 	0.56320 0.71570 0.40950 0.21100
C 	C 	0.61010 0.70820 0.41300 -0.17800
H 	H 	0.64600 0.73690 0.40420 0.08300
C 	C 	0.60590 0.66030 0.42890 -0.01500
H 	H 	0.63810 0.65510 0.42940 0.03000
C 	C 	0.56820 0.76700 0.39080 -0.56500
H 	H 	0.59360 0.80150 0.40440 0.18000
H 	H 	0.53030 0.76330 0.38890 0.17400
H 	H 	0.58390 0.76970 0.36690 0.17600
C 	C 	0.54160 0.55950 0.49260 -0.03500
H 	H 	0.54270 0.58820 0.50770 0.04300
C 	C 	0.53080 0.50530 0.50770 0.03600
C 	C 	0.51820 0.49220 0.54310 -0.04200
H 	H 	0.51750 0.51930 0.55890 0.03400
C 	C 	0.50650 0.43870 0.55590 -0.10800
H 	H 	0.49920 0.42900 0.58040 0.06900
C 	C 	0.50600 0.40090 0.53100 0.14000
C 	C 	0.51930 0.41650 0.49530 -0.05500
H 	H 	0.51950 0.39000 0.47880 0.03700
C 	C 	0.48900 0.30690 0.51850 -0.09000
H 	H 	0.52690 0.32010 0.50760 0.06100
H 	H 	0.46150 0.30130 0.49940 0.07100
C 	C 	0.45770 0.99600 0.34980 0.05800
C 	C 	0.42870 0.93660 0.35300 0.09000
H 	H 	0.41070 0.91910 0.37480 0.00700
C 	C 	0.42630 0.90280 0.32420 -0.08600
H 	H 	0.40660 0.86240 0.32670 0.03900
C 	C 	0.45250 0.92740 0.29170 -0.10000
C 	C 	0.48160 0.98710 0.28890 -0.14000
H 	H 	0.49980 0.00460 0.26710 0.06100
C 	C 	0.48410 0.02110 0.31760 0.09200
H 	H 	0.50400 0.06150 0.31520 -0.01400
C 	C 	0.44860 0.89070 0.26030 0.22400
H 	H 	0.47600 0.87730 0.26350 -0.02400
H 	H 	0.45750 0.91320 0.23840 0.02500
H 	H 	0.40990 0.85780 0.25880 -0.33600
C 	C 	0.43260 0.05770 0.37580 -0.03800
H 	H 	0.41110 0.05280 0.35480 0.03800
C 	C 	0.43590 0.09840 0.40290 0.02900
C 	C 	0.40930 0.13020 0.39890 -0.03500
H 	H 	0.38800 0.12650 0.37790 0.03100
C 	C 	0.41380 0.16700 0.42520 -0.11800
H 	H 	0.39720 0.19050 0.42210 0.07100
C 	C 	0.44270 0.16990 0.45650 0.14600
C 	C 	0.47060 0.13710 0.45840 -0.05600
H 	H 	0.49290 0.14030 0.47870 0.03900
C 	C 	0.47590 0.21010 0.51410 -0.09000
H 	H 	0.51670 0.22480 0.50860 0.06200
H 	H 	0.46040 0.17220 0.52560 0.07100
C 	C 	0.46940 0.25100 0.53880 0.18600
C 	C 	0.40620 0.22390 0.55120 -0.52800
H 	H 	0.38110 0.21210 0.53030 0.19000
H 	H 	0.40130 0.25200 0.56490 0.18900
H 	H 	0.39640 0.19060 0.56610 0.18800
C 	C 	0.45000 0.98790 0.35350 0.07200
C 	C 	0.39500 0.94370 0.34560 -0.27100
H 	H 	0.36310 0.94100 0.35790 0.12100
C 	C 	0.38690 0.90350 0.31950 0.15300
H 	H 	0.34930 0.87360 0.31430 -0.03900
C 	C 	0.43320 0.90650 0.30080 -0.15900
C 	C 	0.48820 0.95100 0.30920 0.29100
H 	H 	0.52020 0.95380 0.29700 -0.07900
C 	C 	0.49660 0.99140 0.33520 -0.31800
H 	H 	0.53410 0.02130 0.34050 0.11700
C 	C 	0.42420 0.86390 0.27210 0.42100
H 	H 	0.43250 0.83510 0.28160 -0.10300
H 	H 	0.44970 0.88360 0.25200 -0.19400
H 	H 	0.38440 0.84530 0.26400 0.11500
O 	O 	0.57770 0.33030 0.36920 -0.22100
N 	N 	0.45170 0.45680 0.42220 -0.22400
N 	N 	0.52300 0.41770 0.40490 -0.21600
C 	C 	0.41460 0.47730 0.43220 0.03500
C 	C 	0.40300 0.47730 0.46720 -0.03100
H 	H 	0.41760 0.46160 0.48400 0.04000
C 	C 	0.37050 0.49970 0.47860 -0.15500
H 	H 	0.36540 0.50260 0.50340 0.07600
C 	C 	0.34440 0.51850 0.45390 0.18300
C 	C 	0.35500 0.51640 0.41920 -0.17000
H 	H 	0.33880 0.53030 0.40220 0.06500
C 	C 	0.38900 0.49460 0.40740 -0.02600
H 	H 	0.39440 0.49170 0.38260 0.02700
C 	C 	0.30960 0.54530 0.46850 -0.51900
H 	H 	0.33430 0.58690 0.47010 0.15200
H 	H 	0.29490 0.52990 0.49220 0.16500
H 	H 	0.27760 0.53630 0.45240 0.16000
C 	C 	0.43170 0.40880 0.40750 -0.03800
H 	H 	0.39160 0.38690 0.40370 0.04000
C 	C 	0.46750 0.38530 0.39580 0.02900
C 	C 	0.44820 0.33500 0.37780 -0.04000
H 	H 	0.40930 0.31380 0.37070 0.03300
C 	C 	0.48510 0.31480 0.36970 -0.11400
H 	H 	0.47180 0.27900 0.35820 0.06900
C 	C 	0.54280 0.34920 0.37920 0.15100
C 	C 	0.56070 0.40070 0.39720 -0.06700
H 	H 	0.59960 0.42360 0.40400 0.03900
C 	C 	0.63490 0.36310 0.37850 -0.05400
H 	H 	0.63890 0.36610 0.40470 0.04900
H 	H 	0.65110 0.40200 0.36850 0.05700
H 	H 	0.63630 0.34000 0.31370 0.16900
Zn	Zn	0.50119 0.04485 0.42967 1.17900
O 	O 	0.78920 0.28910 0.58360 -0.20600
O 	O 	0.65190 0.14400 0.54370 -0.20500
O 	O 	0.79480 0.23950 0.48190 -0.21300
N 	N 	0.73890 0.40710 0.71100 -0.21900
N 	N 	0.73850 0.34460 0.65490 -0.21800
N 	N 	0.43160 0.98100 0.45950 -0.22800
N 	N 	0.53160 0.06350 0.48440 -0.21900
N 	N 	0.97120 0.42860 0.37970 -0.24400
N 	N 	0.89770 0.36350 0.43200 -0.21400
C 	C 	0.73240 0.44290 0.73590 -0.00400
C 	C 	0.74450 0.49720 0.72470 0.02100
H 	H 	0.75790 0.50970 0.70120 0.02300
C 	C 	0.73680 0.53270 0.74800 -0.21700
H 	H 	0.74470 0.56940 0.74020 0.09400
C 	C 	0.71730 0.51470 0.78340 0.28600
C 	C 	0.71060 0.46280 0.79300 -0.23100
H 	H 	0.70000 0.45020 0.81680 0.09200
C 	C 	0.71850 0.42830 0.76960 0.02200
H 	H 	0.71390 0.39310 0.77780 0.00900
C 	C 	0.70550 0.54870 0.80790 -0.66900
H 	H 	0.74140 0.58270 0.81470 0.20300
H 	H 	0.68670 0.52600 0.82920 0.20600
H 	H 	0.68040 0.56030 0.79640 0.21100
C 	C 	0.78590 0.42420 0.69450 -0.03200
H 	H 	0.81860 0.45960 0.70050 0.04500
C 	C 	0.78910 0.38840 0.66580 0.03800
C 	C 	0.83890 0.40230 0.64940 -0.04100
H 	H 	0.87330 0.43520 0.65670 0.03800
C 	C 	0.83940 0.36730 0.62120 -0.11200
H 	H 	0.87410 0.37510 0.61010 0.07300
C 	C 	0.78830 0.32230 0.61060 0.14200
C 	C 	0.73730 0.31100 0.62820 -0.05400
H 	H 	0.70190 0.27930 0.62100 0.04000
C 	C 	0.73440 0.24470 0.56970 -0.10100
H 	H 	0.71100 0.26130 0.56160 0.06500
H 	H 	0.71300 0.21580 0.58830 0.07400
C 	C 	0.37980 0.93510 0.44410 0.02400
C 	C 	0.37440 0.88170 0.44040 -0.02500
H 	H 	0.40290 0.87470 0.45000 0.03500
C 	C 	0.32710 0.83770 0.42260 -0.17300
H 	H 	0.32430 0.80160 0.41950 0.06800
C 	C 	0.28430 0.84750 0.40950 0.21000
C 	C 	0.29180 0.90190 0.41300 -0.17800
H 	H 	0.26310 0.90910 0.40420 0.08300
C 	C 	0.33970 0.94560 0.42890 -0.01600
H 	H 	0.34490 0.98300 0.42940 0.03200
C 	C 	0.23300 0.80120 0.39080 -0.56400
H 	H 	0.19850 0.79210 0.40440 0.18000
H 	H 	0.23670 0.76700 0.38890 0.17400
H 	H 	0.23030 0.81420 0.36690 0.17600
C 	C 	0.44050 0.98210 0.49260 -0.02800
H 	H 	0.41180 0.95450 0.50770 0.04100
C 	C 	0.49470 0.02550 0.50770 0.03300
C 	C 	0.50780 0.02600 0.54310 -0.05500
H 	H 	0.48070 0.99820 0.55890 0.04200
C 	C 	0.56130 0.06780 0.55590 -0.10300
H 	H 	0.57100 0.07020 0.58040 0.06500
C 	C 	0.59910 0.10510 0.53100 0.13700
C 	C 	0.58350 0.10280 0.49530 -0.05400
H 	H 	0.61000 0.12950 0.47880 0.03700
C 	C 	0.69310 0.18210 0.51850 -0.09100
H 	H 	0.67990 0.20680 0.50760 0.06100
H 	H 	0.69870 0.16020 0.49940 0.07100
C 	C 	0.00400 0.46170 0.34980 0.06900
C 	C 	0.06340 0.49210 0.35300 -0.11500
H 	H 	0.08090 0.49160 0.37480 0.06100
C 	C 	0.09720 0.52350 0.32420 0.10200
H 	H 	0.13760 0.54420 0.32670 -0.01600
C 	C 	0.07260 0.52510 0.29170 -0.23000
C 	C 	0.01290 0.49450 0.28890 -0.14100
H 	H 	0.99540 0.49520 0.26710 0.07300
C 	C 	0.97890 0.46300 0.31760 0.12300
H 	H 	0.93850 0.44250 0.31520 -0.02500
C 	C 	0.10930 0.55790 0.26030 0.18500
H 	H 	0.12270 0.59870 0.26350 -0.02100
H 	H 	0.08680 0.54430 0.23840 0.02700
H 	H 	0.14220 0.55210 0.25880 -0.31500
C 	C 	0.94230 0.37490 0.37580 -0.03600
H 	H 	0.94720 0.35830 0.35480 0.03800
C 	C 	0.90160 0.33750 0.40290 0.03100
C 	C 	0.86980 0.27910 0.39890 -0.03500
H 	H 	0.87350 0.26150 0.37790 0.03200
C 	C 	0.83300 0.24680 0.42520 -0.11700
H 	H 	0.80950 0.20670 0.42210 0.07100
C 	C 	0.83010 0.27280 0.45650 0.14600
C 	C 	0.86290 0.33350 0.45840 -0.05400
H 	H 	0.85970 0.35260 0.47870 0.03900
C 	C 	0.78990 0.26580 0.51410 -0.09100
H 	H 	0.77520 0.29190 0.50860 0.06200
H 	H 	0.82780 0.28820 0.52560 0.07200
C 	C 	0.74900 0.21840 0.53880 0.18600
C 	C 	0.77610 0.18230 0.55120 -0.52800
H 	H 	0.78790 0.16900 0.53030 0.19000
H 	H 	0.74800 0.14930 0.56490 0.18900
H 	H 	0.80940 0.20580 0.56610 0.18900
C 	C 	0.01210 0.46210 0.35350 0.06700
C 	C 	0.05630 0.45130 0.34560 -0.04700
H 	H 	0.05900 0.42210 0.35790 0.04000
C 	C 	0.09650 0.48340 0.31950 -0.05100
H 	H 	0.12640 0.47570 0.31430 0.03200
C 	C 	0.09350 0.52670 0.30080 -0.07800
C 	C 	0.04900 0.53720 0.30920 0.33100
H 	H 	0.04620 0.56640 0.29700 -0.08800
C 	C 	0.00860 0.50520 0.33520 -0.35600
H 	H 	0.97870 0.51280 0.34050 0.13500
C 	C 	0.13610 0.56030 0.27210 0.40000
H 	H 	0.16490 0.59740 0.28160 -0.09700
H 	H 	0.11640 0.56610 0.25200 -0.15900
H 	H 	0.15470 0.53910 0.26400 0.10900
O 	O 	0.66970 0.24740 0.36920 -0.22100
N 	N 	0.54320 0.99490 0.42220 -0.21900
N 	N 	0.58230 0.10530 0.40490 -0.21700
C 	C 	0.52270 0.93730 0.43220 0.03600
C 	C 	0.52270 0.92570 0.46720 -0.03100
H 	H 	0.53840 0.95600 0.48400 0.04100
C 	C 	0.50030 0.87080 0.47860 -0.15400
H 	H 	0.49740 0.86280 0.50340 0.07600
C 	C 	0.48150 0.82590 0.45390 0.18200
C 	C 	0.48360 0.83860 0.41920 -0.17000
H 	H 	0.46970 0.80850 0.40220 0.06500
C 	C 	0.50540 0.89440 0.40740 -0.02600
H 	H 	0.50830 0.90270 0.38260 0.02700
C 	C 	0.45470 0.76430 0.46850 -0.51900
H 	H 	0.41310 0.74740 0.47010 0.15200
H 	H 	0.47010 0.76500 0.49220 0.16500
H 	H 	0.46370 0.74130 0.45240 0.16000
C 	C 	0.59120 0.02290 0.40750 -0.04600
H 	H 	0.61310 0.00470 0.40370 0.04100
C 	C 	0.61470 0.08220 0.39580 0.03100
C 	C 	0.66500 0.11320 0.37780 -0.04100
H 	H 	0.68620 0.09550 0.37070 0.03300
C 	C 	0.68520 0.17030 0.36970 -0.11400
H 	H 	0.72100 0.19280 0.35820 0.06900
C 	C 	0.65080 0.19360 0.37920 0.15000
C 	C 	0.59930 0.16000 0.39720 -0.06600
H 	H 	0.57640 0.17600 0.40400 0.03900
C 	C 	0.63690 0.27180 0.37850 -0.05400
H 	H 	0.63390 0.27280 0.40470 0.04900
H 	H 	0.59800 0.24910 0.36850 0.05700
H 	H 	0.66000 0.29630 0.31370 0.16900
Zn	Zn	0.95515 0.45634 0.42967 1.18200
O 	O 	0.71090 0.50010 0.58360 -0.20600
O 	O 	0.85600 0.50790 0.54370 -0.20600
O 	O 	0.76050 0.55530 0.48190 -0.21300
N 	N 	0.59290 0.33180 0.71100 -0.21900
N 	N 	0.65540 0.39390 0.65490 -0.21700
N 	N 	0.01900 0.45060 0.45950 -0.22800
N 	N 	0.93650 0.46810 0.48440 -0.21700
N 	N 	0.57140 0.54260 0.37970 -0.24500
N 	N 	0.63650 0.53420 0.43200 -0.21500
C 	C 	0.55710 0.28950 0.73590 -0.00400
C 	C 	0.50280 0.24730 0.72470 0.01900
H 	H 	0.49030 0.24820 0.70120 0.02300
C 	C 	0.46730 0.20410 0.74800 -0.21600
H 	H 	0.43060 0.17530 0.74020 0.09300
C 	C 	0.48530 0.20260 0.78340 0.28400
C 	C 	0.53720 0.24780 0.79300 -0.23000
H 	H 	0.54980 0.24980 0.81680 0.09200
C 	C 	0.57170 0.29020 0.76960 0.02100
H 	H 	0.60690 0.32080 0.77780 0.00900
C 	C 	0.45130 0.15680 0.80790 -0.66500
H 	H 	0.41730 0.15870 0.81470 0.20100
H 	H 	0.47400 0.16070 0.82920 0.20400
H 	H 	0.43970 0.12010 0.79640 0.20900
C 	C 	0.57580 0.36170 0.69450 -0.03200
H 	H 	0.54040 0.35900 0.70050 0.04500
C 	C 	0.61160 0.40070 0.66580 0.03800
C 	C 	0.59770 0.43660 0.64940 -0.04100
H 	H 	0.56480 0.43810 0.65670 0.03700
C 	C 	0.63270 0.47210 0.62120 -0.11200
H 	H 	0.62490 0.49900 0.61010 0.07200
C 	C 	0.67770 0.46600 0.61060 0.14200
C 	C 	0.68900 0.42630 0.62820 -0.05400
H 	H 	0.72070 0.42260 0.62100 0.04000
C 	C 	0.75530 0.48970 0.56970 -0.10100
H 	H 	0.73870 0.44970 0.56160 0.06500
H 	H 	0.78420 0.49720 0.58830 0.07400
C 	C 	0.06490 0.44470 0.44410 0.02000
C 	C 	0.11830 0.49270 0.44040 -0.02600
H 	H 	0.12530 0.52820 0.45000 0.03500
C 	C 	0.16230 0.48940 0.42260 -0.17400
H 	H 	0.19840 0.52270 0.41950 0.06900
C 	C 	0.15250 0.43680 0.40950 0.21000
C 	C 	0.09810 0.38990 0.41300 -0.17700
H 	H 	0.09090 0.35400 0.40420 0.08300
C 	C 	0.05440 0.39410 0.42890 -0.01500
H 	H 	0.01700 0.36190 0.42940 0.02800
C 	C 	0.19880 0.43180 0.39080 -0.56400
H 	H 	0.20790 0.40640 0.40440 0.18000
H 	H 	0.23300 0.46970 0.38890 0.17400
H 	H 	0.18580 0.41610 0.36690 0.17500
C 	C 	0.01790 0.45840 0.49260 -0.04100
H 	H 	0.04550 0.45730 0.50770 0.04400
C 	C 	0.97450 0.46920 0.50770 0.03900
C 	C 	0.97400 0.48180 0.54310 -0.02900
H 	H 	0.00180 0.48250 0.55890 0.02600
C 	C 	0.93220 0.49350 0.55590 -0.11400
H 	H 	0.92980 0.50080 0.58040 0.07200
C 	C 	0.89490 0.49400 0.53100 0.14300
C 	C 	0.89720 0.48070 0.49530 -0.05600
H 	H 	0.87050 0.48050 0.47880 0.03800
C 	C 	0.81790 0.51100 0.51850 -0.09100
H 	H 	0.79320 0.47310 0.50760 0.06100
H 	H 	0.83980 0.53850 0.49940 0.07200
C 	C 	0.53830 0.54230 0.34980 0.06400
C 	C 	0.50790 0.57130 0.35300 -0.01400
H 	H 	0.50840 0.58930 0.37480 0.03500
C 	C 	0.47650 0.57370 0.32420 0.01000
H 	H 	0.45580 0.59340 0.32670 0.01100
C 	C 	0.47490 0.54750 0.29170 -0.16600
C 	C 	0.50550 0.51840 0.28890 -0.14000
H 	H 	0.50480 0.50020 0.26710 0.06700
C 	C 	0.53700 0.51590 0.31760 0.10800
H 	H 	0.55750 0.49600 0.31520 -0.02000
C 	C 	0.44210 0.55140 0.26030 0.20400
H 	H 	0.40130 0.52400 0.26350 -0.02300
H 	H 	0.45570 0.54250 0.23840 0.02600
H 	H 	0.44790 0.59010 0.25880 -0.32500
C 	C 	0.62510 0.56740 0.37580 -0.03700
H 	H 	0.64170 0.58890 0.35480 0.03800
C 	C 	0.66250 0.56410 0.40290 0.03000
C 	C 	0.72090 0.59070 0.39890 -0.03500
H 	H 	0.73850 0.61200 0.37790 0.03200
C 	C 	0.75320 0.58620 0.42520 -0.11700
H 	H 	0.79330 0.60280 0.42210 0.07100
C 	C 	0.72720 0.55730 0.45650 0.14600
C 	C 	0.66650 0.52940 0.45840 -0.05500
H 	H 	0.64740 0.50710 0.47870 0.03900
C 	C 	0.73420 0.52410 0.51410 -0.09100
H 	H 	0.70810 0.48330 0.50860 0.06200
H 	H 	0.71180 0.53960 0.52560 0.07100
C 	C 	0.78160 0.53060 0.53880 0.18700
C 	C 	0.81770 0.59380 0.55120 -0.52900
H 	H 	0.83100 0.61890 0.53030 0.19100
H 	H 	0.85070 0.59870 0.56490 0.19000
H 	H 	0.79420 0.60360 0.56610 0.18900
C 	C 	0.53790 0.55000 0.35350 0.07000
C 	C 	0.54870 0.60500 0.34560 -0.15800
H 	H 	0.57790 0.63690 0.35790 0.08000
C 	C 	0.51660 0.61310 0.31950 0.05000
H 	H 	0.52430 0.65070 0.31430 -0.00300
C 	C 	0.47330 0.56680 0.30080 -0.11800
C 	C 	0.46280 0.51180 0.30920 0.31200
H 	H 	0.43360 0.47980 0.29700 -0.08400
C 	C 	0.49480 0.50340 0.33520 -0.33700
H 	H 	0.48720 0.46590 0.34050 0.12600
C 	C 	0.43970 0.57580 0.27210 0.41000
H 	H 	0.40260 0.56750 0.28160 -0.10000
H 	H 	0.43390 0.55030 0.25200 -0.17600
H 	H 	0.46090 0.61560 0.26400 0.11200
O 	O 	0.75260 0.42230 0.36920 -0.22100
N 	N 	0.00510 0.54830 0.42220 -0.22900
N 	N 	0.89470 0.47700 0.40490 -0.21600
C 	C 	0.06270 0.58540 0.43220 0.03500
C 	C 	0.07430 0.59700 0.46720 -0.03100
H 	H 	0.04400 0.58240 0.48400 0.03800
C 	C 	0.12920 0.62950 0.47860 -0.15500
H 	H 	0.13720 0.63460 0.50340 0.07600
C 	C 	0.17410 0.65560 0.45390 0.18300
C 	C 	0.16140 0.64500 0.41920 -0.17000
H 	H 	0.19150 0.66120 0.40220 0.06500
C 	C 	0.10560 0.61100 0.40740 -0.02600
H 	H 	0.09730 0.60560 0.38260 0.02700
C 	C 	0.23570 0.69040 0.46850 -0.51900
H 	H 	0.25260 0.66570 0.47010 0.15200
H 	H 	0.23500 0.70510 0.49220 0.16500
H 	H 	0.25870 0.72240 0.45240 0.16000
C 	C 	0.97710 0.56830 0.40750 -0.03000
H 	H 	0.99530 0.60840 0.40370 0.04000
C 	C 	0.91780 0.53250 0.39580 0.02700
C 	C 	0.88680 0.55180 0.37780 -0.03800
H 	H 	0.90450 0.59070 0.37070 0.03400
C 	C 	0.82970 0.51490 0.36970 -0.11500
H 	H 	0.80720 0.52820 0.35820 0.07000
C 	C 	0.80640 0.45720 0.37920 0.15100
C 	C 	0.84000 0.43930 0.39720 -0.06700
H 	H 	0.82400 0.40040 0.40400 0.03900
C 	C 	0.72820 0.36510 0.37850 -0.05400
H 	H 	0.72720 0.36110 0.40470 0.04900
H 	H 	0.75090 0.34890 0.36850 0.05700
H 	H 	0.70370 0.36370 0.31370 0.16900
Zn	Zn	0.66667 0.33333 0.68666 1.17900
C 	C 	0.66667 0.33333 0.36320 0.14800
C 	C 	0.66667 0.33333 0.32240 -0.48500
Zn	Zn	0.45634 0.50119 0.92967 1.18000
O 	O 	0.50010 0.78920 0.08360 -0.20600
O 	O 	0.50790 0.65190 0.04370 -0.20500
O 	O 	0.55530 0.79480 0.98190 -0.21200
N 	N 	0.33180 0.73890 0.21100 -0.21900
N 	N 	0.39390 0.73850 0.15490 -0.21800
N 	N 	0.45060 0.43160 0.95950 -0.22800
N 	N 	0.46810 0.53160 0.98440 -0.21800
N 	N 	0.54260 0.97120 0.87970 -0.24400
N 	N 	0.53420 0.89770 0.93200 -0.21400
C 	C 	0.28950 0.73240 0.23590 -0.00400
C 	C 	0.24730 0.74450 0.22470 0.02000
H 	H 	0.24820 0.75790 0.20120 0.02300
C 	C 	0.20410 0.73680 0.24800 -0.21600
H 	H 	0.17530 0.74470 0.24020 0.09300
C 	C 	0.20260 0.71730 0.28340 0.28400
C 	C 	0.24780 0.71060 0.29300 -0.23000
H 	H 	0.24980 0.70000 0.31680 0.09200
C 	C 	0.29020 0.71850 0.26960 0.02100
H 	H 	0.32080 0.71390 0.27780 0.00900
C 	C 	0.15680 0.70550 0.30790 -0.66600
H 	H 	0.15870 0.74140 0.31470 0.20200
H 	H 	0.16070 0.68670 0.32920 0.20400
H 	H 	0.12010 0.68040 0.29640 0.20900
C 	C 	0.36170 0.78590 0.19450 -0.03200
H 	H 	0.35900 0.81860 0.20050 0.04500
C 	C 	0.40070 0.78910 0.16580 0.03800
C 	C 	0.43660 0.83890 0.14940 -0.04100
H 	H 	0.43810 0.87330 0.15670 0.03800
C 	C 	0.47210 0.83940 0.12120 -0.11200
H 	H 	0.49900 0.87410 0.11010 0.07300
C 	C 	0.46600 0.78830 0.11060 0.14200
C 	C 	0.42630 0.73730 0.12820 -0.05400
H 	H 	0.42260 0.70190 0.12100 0.04000
C 	C 	0.48970 0.73440 0.06970 -0.10100
H 	H 	0.44970 0.71100 0.06160 0.06500
H 	H 	0.49720 0.71300 0.08830 0.07400
C 	C 	0.44470 0.37980 0.94410 0.02200
C 	C 	0.49270 0.37440 0.94040 -0.02600
H 	H 	0.52820 0.40290 0.95000 0.03500
C 	C 	0.48940 0.32710 0.92260 -0.17300
H 	H 	0.52270 0.32430 0.91950 0.06800
C 	C 	0.43680 0.28430 0.90950 0.21000
C 	C 	0.38990 0.29180 0.91300 -0.17800
H 	H 	0.35400 0.26310 0.90420 0.08300
C 	C 	0.39410 0.33970 0.92890 -0.01500
H 	H 	0.36190 0.34490 0.92940 0.03000
C 	C 	0.43180 0.23300 0.89080 -0.56400
H 	H 	0.40640 0.19850 0.90440 0.18000
H 	H 	0.46970 0.23670 0.88890 0.17300
H 	H 	0.41610 0.23030 0.86690 0.17500
C 	C 	0.45840 0.44050 0.99260 -0.03300
H 	H 	0.45730 0.41180 0.00770 0.04100
C 	C 	0.46920 0.49470 0.00770 0.03500
C 	C 	0.48180 0.50780 0.04310 -0.04100
H 	H 	0.48250 0.48070 0.05890 0.03400
C 	C 	0.49350 0.56130 0.05590 -0.10800
H 	H 	0.50080 0.57100 0.08040 0.06900
C 	C 	0.49400 0.59910 0.03100 0.13900
C 	C 	0.48070 0.58350 0.99530 -0.05400
H 	H 	0.48050 0.61000 0.97880 0.03700
C 	C 	0.51100 0.69310 0.01850 -0.09200
H 	H 	0.47310 0.67990 0.00760 0.06100
H 	H 	0.53850 0.69870 0.99940 0.07200
C 	C 	0.54230 0.00400 0.84980 0.06900
C 	C 	0.57130 0.06340 0.85300 -0.11500
H 	H 	0.58930 0.08090 0.87480 0.06100
C 	C 	0.57370 0.09720 0.82420 0.10200
H 	H 	0.59340 0.13760 0.82670 -0.01600
C 	C 	0.54750 0.07260 0.79170 -0.23000
C 	C 	0.51840 0.01290 0.78890 -0.14100
H 	H 	0.50020 0.99540 0.76710 0.07300
C 	C 	0.51590 0.97890 0.81760 0.12300
H 	H 	0.49600 0.93850 0.81520 -0.02500
C 	C 	0.55140 0.10930 0.76030 0.18500
H 	H 	0.52400 0.12270 0.76350 -0.02100
H 	H 	0.54250 0.08680 0.73840 0.02700
H 	H 	0.59010 0.14220 0.75880 -0.31500
C 	C 	0.56740 0.94230 0.87580 -0.03600
H 	H 	0.58890 0.94720 0.85480 0.03800
C 	C 	0.56410 0.90160 0.90290 0.03100
C 	C 	0.59070 0.86980 0.89890 -0.03500
H 	H 	0.61200 0.87350 0.87790 0.03200
C 	C 	0.58620 0.83300 0.92520 -0.11700
H 	H 	0.60280 0.80950 0.92210 0.07100
C 	C 	0.55730 0.83010 0.95650 0.14600
C 	C 	0.52940 0.86290 0.95840 -0.05400
H 	H 	0.50710 0.85970 0.97870 0.03900
C 	C 	0.52410 0.78990 0.01410 -0.09200
H 	H 	0.48330 0.77520 0.00860 0.06200
H 	H 	0.53960 0.82780 0.02560 0.07200
C 	C 	0.53060 0.74900 0.03880 0.18700
C 	C 	0.59380 0.77610 0.05120 -0.52900
H 	H 	0.61890 0.78790 0.03030 0.19100
H 	H 	0.59870 0.74800 0.06490 0.19000
H 	H 	0.60360 0.80940 0.06610 0.18900
C 	C 	0.55000 0.01210 0.85350 0.06800
C 	C 	0.60500 0.05630 0.84560 -0.04800
H 	H 	0.63690 0.05900 0.85790 0.04000
C 	C 	0.61310 0.09650 0.81950 -0.05000
H 	H 	0.65070 0.12640 0.81430 0.03200
C 	C 	0.56680 0.09350 0.80080 -0.07800
C 	C 	0.51180 0.04900 0.80920 0.33100
H 	H 	0.47980 0.04620 0.79700 -0.08800
C 	C 	0.50340 0.00860 0.83520 -0.35600
H 	H 	0.46590 0.97870 0.84050 0.13500
C 	C 	0.57580 0.13610 0.77210 0.40000
H 	H 	0.56750 0.16490 0.78160 -0.09700
H 	H 	0.55030 0.11640 0.75200 -0.15900
H 	H 	0.61560 0.15470 0.76400 0.10900
O 	O 	0.42230 0.66970 0.86920 -0.22100
N 	N 	0.54830 0.54320 0.92220 -0.22400
N 	N 	0.47700 0.58230 0.90490 -0.21600
C 	C 	0.58540 0.52270 0.93220 0.03600
C 	C 	0.59700 0.52270 0.96720 -0.03200
H 	H 	0.58240 0.53840 0.98400 0.04000
C 	C 	0.62950 0.50030 0.97860 -0.15300
H 	H 	0.63460 0.49740 0.00340 0.07500
C 	C 	0.65560 0.48150 0.95390 0.18200
C 	C 	0.64500 0.48360 0.91920 -0.16900
H 	H 	0.66120 0.46970 0.90220 0.06500
C 	C 	0.61100 0.50540 0.90740 -0.02700
H 	H 	0.60560 0.50830 0.88260 0.02700
C 	C 	0.69040 0.45470 0.96850 -0.51800
H 	H 	0.66570 0.41310 0.97010 0.15200
H 	H 	0.70510 0.47010 0.99220 0.16500
H 	H 	0.72240 0.46370 0.95240 0.16000
C 	C 	0.56830 0.59120 0.90750 -0.03800
H 	H 	0.60840 0.61310 0.90370 0.04000
C 	C 	0.53250 0.61470 0.89580 0.02900
C 	C 	0.55180 0.66500 0.87780 -0.04000
H 	H 	0.59070 0.68620 0.87070 0.03300
C 	C 	0.51490 0.68520 0.86970 -0.11400
H 	H 	0.52820 0.72100 0.85820 0.06900
C 	C 	0.45720 0.65080 0.87920 0.15100
C 	C 	0.43930 0.59930 0.89720 -0.06700
H 	H 	0.40040 0.57640 0.90400 0.03900
C 	C 	0.36510 0.63690 0.87850 -0.05400
H 	H 	0.36110 0.63390 0.90470 0.04900
H 	H 	0.34890 0.59800 0.86850 0.05700
H 	H 	0.36370 0.66000 0.81370 0.16900
Zn	Zn	0.49881 0.95515 0.92967 1.18200
O 	O 	0.21080 0.71090 0.08360 -0.20600
O 	O 	0.34810 0.85600 0.04370 -0.20500
O 	O 	0.20520 0.76050 0.98190 -0.21300
N 	N 	0.26110 0.59290 0.21100 -0.21900
N 	N 	0.26150 0.65540 0.15490 -0.21700
N 	N 	0.56840 0.01900 0.95950 -0.22900
N 	N 	0.46840 0.93650 0.98440 -0.21700
N 	N 	0.02880 0.57140 0.87970 -0.24700
N 	N 	0.10230 0.63650 0.93200 -0.21500
C 	C 	0.26760 0.55710 0.23590 -0.00400
C 	C 	0.25550 0.50280 0.22470 0.02000
H 	H 	0.24210 0.49030 0.20120 0.02300
C 	C 	0.26320 0.46730 0.24800 -0.21700
H 	H 	0.25530 0.43060 0.24020 0.09300
C 	C 	0.28270 0.48530 0.28340 0.28500
C 	C 	0.28940 0.53720 0.29300 -0.23100
H 	H 	0.30000 0.54980 0.31680 0.09200
C 	C 	0.28150 0.57170 0.26960 0.02200
H 	H 	0.28610 0.60690 0.27780 0.00900
C 	C 	0.29450 0.45130 0.30790 -0.66800
H 	H 	0.25860 0.41730 0.31470 0.20200
H 	H 	0.31330 0.47400 0.32920 0.20500
H 	H 	0.31960 0.43970 0.29640 0.21000
C 	C 	0.21410 0.57580 0.19450 -0.03300
H 	H 	0.18140 0.54040 0.20050 0.04400
C 	C 	0.21090 0.61160 0.16580 0.03800
C 	C 	0.16110 0.59770 0.14940 -0.04100
H 	H 	0.12670 0.56480 0.15670 0.03600
C 	C 	0.16060 0.63270 0.12120 -0.11300
H 	H 	0.12590 0.62490 0.11010 0.07200
C 	C 	0.21170 0.67770 0.11060 0.14200
C 	C 	0.26270 0.68900 0.12820 -0.05400
H 	H 	0.29810 0.72070 0.12100 0.04000
C 	C 	0.26560 0.75530 0.06970 -0.10100
H 	H 	0.28900 0.73870 0.06160 0.06500
H 	H 	0.28700 0.78420 0.08830 0.07400
C 	C 	0.62020 0.06490 0.94410 0.02100
C 	C 	0.62560 0.11830 0.94040 -0.02600
H 	H 	0.59710 0.12530 0.95000 0.03500
C 	C 	0.67290 0.16230 0.92260 -0.17400
H 	H 	0.67570 0.19840 0.91950 0.06900
C 	C 	0.71570 0.15250 0.90950 0.21100
C 	C 	0.70820 0.09810 0.91300 -0.17800
H 	H 	0.73690 0.09090 0.90420 0.08300
C 	C 	0.66030 0.05440 0.92890 -0.01500
H 	H 	0.65510 0.01700 0.92940 0.02800
C 	C 	0.76700 0.19880 0.89080 -0.56400
H 	H 	0.80150 0.20790 0.90440 0.18000
H 	H 	0.76330 0.23300 0.88890 0.17400
H 	H 	0.76970 0.18580 0.86690 0.17500
C 	C 	0.55950 0.01790 0.99260 -0.03900
H 	H 	0.58820 0.04550 0.00770 0.04200
C 	C 	0.50530 0.97450 0.00770 0.03700
C 	C 	0.49220 0.97400 0.04310 -0.02800
H 	H 	0.51930 0.00180 0.05890 0.02500
C 	C 	0.43870 0.93220 0.05590 -0.11400
H 	H 	0.42900 0.92980 0.08040 0.07200
C 	C 	0.40090 0.89490 0.03100 0.14200
C 	C 	0.41650 0.89720 0.99530 -0.05500
H 	H 	0.39000 0.87050 0.97880 0.03800
C 	C 	0.30690 0.81790 0.01850 -0.09200
H 	H 	0.32010 0.79320 0.00760 0.06100
H 	H 	0.30130 0.83980 0.99940 0.07200
C 	C 	0.99600 0.53830 0.84980 0.05700
C 	C 	0.93660 0.50790 0.85300 0.09100
H 	H 	0.91910 0.50840 0.87480 0.00700
C 	C 	0.90280 0.47650 0.82420 -0.08600
H 	H 	0.86240 0.45580 0.82670 0.03900
C 	C 	0.92740 0.47490 0.79170 -0.10000
C 	C 	0.98710 0.50550 0.78890 -0.14000
H 	H 	0.00460 0.50480 0.76710 0.06100
C 	C 	0.02110 0.53700 0.81760 0.09200
H 	H 	0.06150 0.55750 0.81520 -0.01400
C 	C 	0.89070 0.44210 0.76030 0.22400
H 	H 	0.87730 0.40130 0.76350 -0.02400
H 	H 	0.91320 0.45570 0.73840 0.02500
H 	H 	0.85780 0.44790 0.75880 -0.33600
C 	C 	0.05770 0.62510 0.87580 -0.03800
H 	H 	0.05280 0.64170 0.85480 0.03800
C 	C 	0.09840 0.66250 0.90290 0.02900
C 	C 	0.13020 0.72090 0.89890 -0.03500
H 	H 	0.12650 0.73850 0.87790 0.03100
C 	C 	0.16700 0.75320 0.92520 -0.11800
H 	H 	0.19050 0.79330 0.92210 0.07100
C 	C 	0.16990 0.72720 0.95650 0.14600
C 	C 	0.13710 0.66650 0.95840 -0.05600
H 	H 	0.14030 0.64740 0.97870 0.03900
C 	C 	0.21010 0.73420 0.01410 -0.09100
H 	H 	0.22480 0.70810 0.00860 0.06200
H 	H 	0.17220 0.71180 0.02560 0.07100
C 	C 	0.25100 0.78160 0.03880 0.18700
C 	C 	0.22390 0.81770 0.05120 -0.52900
H 	H 	0.21210 0.83100 0.03030 0.19100
H 	H 	0.25200 0.85070 0.06490 0.19000
H 	H 	0.19060 0.79420 0.06610 0.18900
C 	C 	0.98790 0.53790 0.85350 0.07200
C 	C 	0.94370 0.54870 0.84560 -0.27200
H 	H 	0.94100 0.57790 0.85790 0.12100
C 	C 	0.90350 0.51660 0.81950 0.15400
H 	H 	0.87360 0.52430 0.81430 -0.03900
C 	C 	0.90650 0.47330 0.80080 -0.15900
C 	C 	0.95100 0.46280 0.80920 0.29100
H 	H 	0.95380 0.43360 0.79700 -0.07900
C 	C 	0.99140 0.49480 0.83520 -0.31800
H 	H 	0.02130 0.48720 0.84050 0.11700
C 	C 	0.86390 0.43970 0.77210 0.42100
H 	H 	0.83510 0.40260 0.78160 -0.10300
H 	H 	0.88360 0.43390 0.75200 -0.19400
H 	H 	0.84530 0.46090 0.76400 0.11500
O 	O 	0.33030 0.75260 0.86920 -0.22100
N 	N 	0.45680 0.00510 0.92220 -0.22900
N 	N 	0.41770 0.89470 0.90490 -0.21600
C 	C 	0.47730 0.06270 0.93220 0.03500
C 	C 	0.47730 0.07430 0.96720 -0.03200
H 	H 	0.46160 0.04400 0.98400 0.03800
C 	C 	0.49970 0.12920 0.97860 -0.15300
H 	H 	0.50260 0.13720 0.00340 0.07500
C 	C 	0.51850 0.17410 0.95390 0.18200
C 	C 	0.51640 0.16140 0.91920 -0.17000
H 	H 	0.53030 0.19150 0.90220 0.06500
C 	C 	0.49460 0.10560 0.90740 -0.02700
H 	H 	0.49170 0.09730 0.88260 0.02700
C 	C 	0.54530 0.23570 0.96850 -0.51800
H 	H 	0.58690 0.25260 0.97010 0.15200
H 	H 	0.52990 0.23500 0.99220 0.16500
H 	H 	0.53630 0.25870 0.95240 0.16000
C 	C 	0.40880 0.97710 0.90750 -0.02900
H 	H 	0.38690 0.99530 0.90370 0.04000
C 	C 	0.38530 0.91780 0.89580 0.02700
C 	C 	0.33500 0.88680 0.87780 -0.03800
H 	H 	0.31380 0.90450 0.87070 0.03400
C 	C 	0.31480 0.82970 0.86970 -0.11500
H 	H 	0.27900 0.80720 0.85820 0.07000
C 	C 	0.34920 0.80640 0.87920 0.15100
C 	C 	0.40070 0.84000 0.89720 -0.06700
H 	H 	0.42360 0.82400 0.90400 0.03900
C 	C 	0.36310 0.72820 0.87850 -0.05400
H 	H 	0.36610 0.72720 0.90470 0.04900
H 	H 	0.40200 0.75090 0.86850 0.05700
H 	H 	0.34000 0.70370 0.81370 0.16900
Zn	Zn	0.04485 0.54366 0.92967 1.17900
O 	O 	0.28910 0.49990 0.08360 -0.20600
O 	O 	0.14400 0.49210 0.04370 -0.20500
O 	O 	0.23950 0.44470 0.98190 -0.21300
N 	N 	0.40710 0.66820 0.21100 -0.21900
N 	N 	0.34460 0.60610 0.15490 -0.21700
N 	N 	0.98100 0.54940 0.95950 -0.22800
N 	N 	0.06350 0.53190 0.98440 -0.21900
N 	N 	0.42860 0.45740 0.87970 -0.24500
N 	N 	0.36350 0.46580 0.93200 -0.21500
C 	C 	0.44290 0.71050 0.23590 -0.00500
C 	C 	0.49720 0.75270 0.22470 0.02100
H 	H 	0.50970 0.75180 0.20120 0.02300
C 	C 	0.53270 0.79590 0.24800 -0.21800
H 	H 	0.56940 0.82470 0.24020 0.09400
C 	C 	0.51470 0.79740 0.28340 0.28800
C 	C 	0.46280 0.75220 0.29300 -0.23200
H 	H 	0.45020 0.75020 0.31680 0.09200
C 	C 	0.42830 0.70980 0.26960 0.02300
H 	H 	0.39310 0.67920 0.27780 0.00900
C 	C 	0.54870 0.84320 0.30790 -0.67100
H 	H 	0.58270 0.84130 0.31470 0.20400
H 	H 	0.52600 0.83930 0.32920 0.20700
H 	H 	0.56030 0.87990 0.29640 0.21200
C 	C 	0.42420 0.63830 0.19450 -0.03200
H 	H 	0.45960 0.64100 0.20050 0.04500
C 	C 	0.38840 0.59930 0.16580 0.03800
C 	C 	0.40230 0.56340 0.14940 -0.04100
H 	H 	0.43520 0.56190 0.15670 0.03700
C 	C 	0.36730 0.52790 0.12120 -0.11300
H 	H 	0.37510 0.50100 0.11010 0.07200
C 	C 	0.32230 0.53400 0.11060 0.14200
C 	C 	0.31100 0.57370 0.12820 -0.05400
H 	H 	0.27930 0.57740 0.12100 0.04000
C 	C 	0.24470 0.51030 0.06970 -0.10000
H 	H 	0.26130 0.55030 0.06160 0.06500
H 	H 	0.21580 0.50280 0.08830 0.07400
C 	C 	0.93510 0.55530 0.94410 0.02400
C 	C 	0.88170 0.50730 0.94040 -0.02500
H 	H 	0.87470 0.47180 0.95000 0.03500
C 	C 	0.83770 0.51060 0.92260 -0.17300
H 	H 	0.80160 0.47730 0.91950 0.06800
C 	C 	0.84750 0.56320 0.90950 0.21000
C 	C 	0.90190 0.61010 0.91300 -0.17800
H 	H 	0.90910 0.64600 0.90420 0.08300
C 	C 	0.94560 0.60590 0.92890 -0.01600
H 	H 	0.98300 0.63810 0.92940 0.03200
C 	C 	0.80120 0.56820 0.89080 -0.56500
H 	H 	0.79210 0.59360 0.90440 0.18000
H 	H 	0.76700 0.53030 0.88890 0.17400
H 	H 	0.81420 0.58390 0.86690 0.17600
C 	C 	0.98210 0.54160 0.99260 -0.02600
H 	H 	0.95450 0.54270 0.00770 0.04000
C 	C 	0.02550 0.53080 0.00770 0.03200
C 	C 	0.02600 0.51820 0.04310 -0.05300
H 	H 	0.99820 0.51750 0.05890 0.04200
C 	C 	0.06780 0.50650 0.05590 -0.10300
H 	H 	0.07020 0.49920 0.08040 0.06500
C 	C 	0.10510 0.50600 0.03100 0.13700
C 	C 	0.10280 0.51930 0.99530 -0.05300
H 	H 	0.12950 0.51950 0.97880 0.03700
C 	C 	0.18210 0.48900 0.01850 -0.09200
H 	H 	0.20680 0.52690 0.00760 0.06100
H 	H 	0.16020 0.46150 0.99940 0.07200
C 	C 	0.46170 0.45770 0.84980 0.06400
C 	C 	0.49210 0.42870 0.85300 -0.01400
H 	H 	0.49160 0.41070 0.87480 0.03500
C 	C 	0.52350 0.42630 0.82420 0.01000
H 	H 	0.54420 0.40660 0.82670 0.01100
C 	C 	0.52510 0.45250 0.79170 -0.16600
C 	C 	0.49450 0.48160 0.78890 -0.14000
H 	H 	0.49520 0.49980 0.76710 0.06700
C 	C 	0.46300 0.48410 0.81760 0.10800
H 	H 	0.44250 0.50400 0.81520 -0.02000
C 	C 	0.55790 0.44860 0.76030 0.20400
H 	H 	0.59870 0.47600 0.76350 -0.02300
H 	H 	0.54430 0.45750 0.73840 0.02600
H 	H 	0.55210 0.40990 0.75880 -0.32500
C 	C 	0.37490 0.43260 0.87580 -0.03700
H 	H 	0.35830 0.41110 0.85480 0.03800
C 	C 	0.33750 0.43590 0.90290 0.03000
C 	C 	0.27910 0.40930 0.89890 -0.03500
H 	H 	0.26150 0.38800 0.87790 0.03100
C 	C 	0.24680 0.41380 0.92520 -0.11700
H 	H 	0.20670 0.39720 0.92210 0.07100
C 	C 	0.27280 0.44270 0.95650 0.14600
C 	C 	0.33350 0.47060 0.95840 -0.05500
H 	H 	0.35260 0.49290 0.97870 0.03900
C 	C 	0.26580 0.47590 0.01410 -0.09100
H 	H 	0.29190 0.51670 0.00860 0.06200
H 	H 	0.28820 0.46040 0.02560 0.07100
C 	C 	0.21840 0.46940 0.03880 0.18600
C 	C 	0.18230 0.40620 0.05120 -0.52700
H 	H 	0.16900 0.38110 0.03030 0.19000
H 	H 	0.14930 0.40130 0.06490 0.18900
H 	H 	0.20580 0.39640 0.06610 0.18800
C 	C 	0.46210 0.45000 0.85350 0.07000
C 	C 	0.45130 0.39500 0.84560 -0.15800
H 	H 	0.42210 0.36310 0.85790 0.08000
C 	C 	0.48340 0.38690 0.81950 0.05000
H 	H 	0.47570 0.34930 0.81430 -0.00300
C 	C 	0.52670 0.43320 0.80080 -0.11800
C 	C 	0.53720 0.48820 0.80920 0.31200
H 	H 	0.56640 0.52020 0.79700 -0.08400
C 	C 	0.50520 0.49660 0.83520 -0.33700
H 	H 	0.51280 0.53410 0.84050 0.12600
C 	C 	0.56030 0.42420 0.77210 0.41000
H 	H 	0.59740 0.43250 0.78160 -0.10000
H 	H 	0.56610 0.44970 0.75200 -0.17600
H 	H 	0.53910 0.38440 0.76400 0.11200
O 	O 	0.24740 0.57770 0.86920 -0.22100
N 	N 	0.99490 0.45170 0.92220 -0.21900
N 	N 	0.10530 0.52300 0.90490 -0.21700
C 	C 	0.93730 0.41460 0.93220 0.03700
C 	C 	0.92570 0.40300 0.96720 -0.03200
H 	H 	0.95600 0.41760 0.98400 0.04200
C 	C 	0.87080 0.37050 0.97860 -0.15200
H 	H 	0.86280 0.36540 0.00340 0.07500
C 	C 	0.82590 0.34440 0.95390 0.18100
C 	C 	0.83860 0.35500 0.91920 -0.16900
H 	H 	0.80850 0.33880 0.90220 0.06500
C 	C 	0.89440 0.38900 0.90740 -0.02700
H 	H 	0.90270 0.39440 0.88260 0.02800
C 	C 	0.76430 0.30960 0.96850 -0.51800
H 	H 	0.74740 0.33430 0.97010 0.15200
H 	H 	0.76500 0.29490 0.99220 0.16500
H 	H 	0.74130 0.27760 0.95240 0.16000
C 	C 	0.02290 0.43170 0.90750 -0.04600
H 	H 	0.00470 0.39160 0.90370 0.04100
C 	C 	0.08220 0.46750 0.89580 0.03100
C 	C 	0.11320 0.44820 0.87780 -0.04100
H 	H 	0.09550 0.40930 0.87070 0.03300
C 	C 	0.17030 0.48510 0.86970 -0.11400
H 	H 	0.19280 0.47180 0.85820 0.06900
C 	C 	0.19360 0.54280 0.87920 0.15000
C 	C 	0.16000 0.56070 0.89720 -0.06600
H 	H 	0.17600 0.59960 0.90400 0.03900
C 	C 	0.27180 0.63490 0.87850 -0.05400
H 	H 	0.27280 0.63890 0.90470 0.04900
H 	H 	0.24910 0.65110 0.86850 0.05700
H 	H 	0.29630 0.63630 0.81370 0.16900
Zn	Zn	0.33333 0.66667 0.18666 1.17900
C 	C 	0.33333 0.66667 0.86320 0.14800
C 	C 	0.33333 0.66667 0.82240 -0.48500
Zn	Zn	0.70881 0.88625 0.57646 1.18000
O 	O 	0.94750 0.82990 0.42370 -0.21100
O 	O 	0.80350 0.82470 0.46390 -0.20800
O 	O 	0.89860 0.77760 0.52600 -0.20500
N 	N 	0.07380 0.00140 0.29950 -0.22200
N 	N 	0.00830 0.93690 0.35410 -0.22000
N 	N 	0.64360 0.88960 0.54650 -0.22700
N 	N 	0.72650 0.87180 0.52230 -0.21700
N 	N 	0.08350 0.77880 0.62640 -0.23000
N 	N 	0.02280 0.79360 0.57470 -0.23000
C 	C 	0.11500 0.04460 0.27710 -0.00600
C 	C 	0.09740 0.06170 0.24800 0.01800
H 	H 	0.05780 0.04290 0.24260 -0.00200
C 	C 	0.13520 0.10560 0.22560 -0.22700
H 	H 	0.12110 0.11750 0.20610 0.10400
C 	C 	0.19480 0.13240 0.23210 0.29700
C 	C 	0.21090 0.11500 0.26270 -0.23900
H 	H 	0.25010 0.13390 0.26930 0.09800
C 	C 	0.17190 0.07120 0.28350 0.03800
H 	H 	0.18520 0.05900 0.30320 0.01500
C 	C 	0.23530 0.18110 0.21140 -0.69700
H 	H 	0.22720 0.17280 0.18600 0.22700
H 	H 	0.27410 0.18890 0.21660 0.21900
H 	H 	0.23210 0.21450 0.21770 0.21900
C 	C 	0.08700 0.96690 0.31560 -0.04100
H 	H 	0.11960 0.96500 0.30810 0.04400
C 	C 	0.05240 0.93160 0.34460 0.04000
C 	C 	0.06240 0.89100 0.36060 -0.03400
H 	H 	0.09310 0.88620 0.35280 0.03200
C 	C 	0.02720 0.85750 0.38810 -0.12600
H 	H 	0.03430 0.83060 0.39990 0.07500
C 	C 	0.98210 0.86420 0.39780 0.15500
C 	C 	0.97340 0.90630 0.38070 -0.05300
H 	H 	0.94330 0.91240 0.38800 0.04000
C 	C 	0.90400 0.84000 0.43720 -0.09000
H 	H 	0.87500 0.83180 0.41850 0.07000
H 	H 	0.92070 0.88040 0.44450 0.06300
C 	C 	0.59760 0.89440 0.56180 0.02400
C 	C 	0.54480 0.84710 0.56370 -0.02000
H 	H 	0.53840 0.81260 0.55310 0.03300
C 	C 	0.50010 0.84850 0.58090 -0.18000
H 	H 	0.46320 0.81550 0.58180 0.07300
C 	C 	0.51050 0.89990 0.59700 0.22300
C 	C 	0.56420 0.94740 0.59530 -0.17500
H 	H 	0.57110 0.98180 0.60650 0.08400
C 	C 	0.60920 0.94580 0.57710 -0.01800
H 	H 	0.64610 0.97870 0.57550 0.03300
C 	C 	0.46420 0.90510 0.61510 -0.58600
H 	H 	0.48060 0.94230 0.62700 0.18700
H 	H 	0.44550 0.87460 0.63280 0.18400
H 	H 	0.43610 0.90180 0.59740 0.18900
C 	C 	0.64450 0.87940 0.51290 -0.04300
H 	H 	0.61580 0.87820 0.49770 0.04700
C 	C 	0.68810 0.86970 0.49800 0.03700
C 	C 	0.68780 0.85490 0.46300 -0.03700
H 	H 	0.66050 0.85430 0.44690 0.02900
C 	C 	0.72830 0.84070 0.45140 -0.11600
H 	H 	0.72950 0.83110 0.42720 0.07000
C 	C 	0.76620 0.84090 0.47560 0.14700
C 	C 	0.76660 0.85890 0.51110 -0.05900
H 	H 	0.79510 0.86210 0.52730 0.04300
C 	C 	0.84160 0.82120 0.48930 -0.08900
H 	H 	0.81960 0.79340 0.50840 0.07200
H 	H 	0.86660 0.85890 0.50040 0.06200
C 	C 	0.11280 0.77340 0.65610 0.03800
C 	C 	0.10430 0.78660 0.69080 -0.02900
H 	H 	0.07780 0.79930 0.69510 0.03500
C 	C 	0.13460 0.78110 0.71910 -0.16300
H 	H 	0.12860 0.79010 0.74260 0.07200
C 	C 	0.17390 0.76230 0.71360 0.19000
C 	C 	0.18210 0.74950 0.67860 -0.15500
H 	H 	0.20860 0.73690 0.67430 0.06900
C 	C 	0.15190 0.75490 0.65020 -0.03600
H 	H 	0.15800 0.74590 0.62670 0.03100
C 	C 	0.20550 0.75510 0.74430 -0.54200
H 	H 	0.17800 0.72810 0.76150 0.17300
H 	H 	0.22940 0.79210 0.75590 0.17000
H 	H 	0.22980 0.74030 0.73550 0.16800
C 	C 	0.03030 0.75810 0.63190 -0.04500
H 	H 	0.01400 0.74090 0.65420 0.04200
C 	C 	0.99420 0.76100 0.60350 0.04600
C 	C 	0.93690 0.73740 0.60840 -0.05300
H 	H 	0.91940 0.71820 0.62990 0.04000
C 	C 	0.90550 0.74200 0.58190 -0.09600
H 	H 	0.86520 0.72430 0.58440 0.06300
C 	C 	0.93230 0.77320 0.55050 0.12400
C 	C 	0.99220 0.79740 0.54870 -0.02600
H 	H 	0.01130 0.81750 0.52770 0.02500
C 	C 	0.92300 0.80660 0.49340 -0.08900
H 	H 	0.94450 0.78990 0.48200 0.07200
H 	H 	0.95010 0.84730 0.49830 0.06400
C 	C 	0.87710 0.80150 0.46840 0.18100
C 	C 	0.84020 0.73830 0.45590 -0.51900
H 	H 	0.86380 0.72760 0.44170 0.18600
H 	H 	0.80820 0.73430 0.44150 0.18700
H 	H 	0.82550 0.71330 0.47680 0.18700
O 	O 	0.91270 0.91250 0.62690 -0.21300
N 	N 	0.65610 0.79180 0.58310 -0.21600
N 	N 	0.76780 0.86300 0.59850 -0.22000
C 	C 	0.59880 0.75430 0.57190 0.02900
C 	C 	0.58740 0.73990 0.53690 -0.01500
H 	H 	0.61840 0.75490 0.52060 0.03600
C 	C 	0.53410 0.70550 0.52410 -0.17500
H 	H 	0.52830 0.69610 0.49950 0.08600
C 	C 	0.48750 0.68360 0.54780 0.20000
C 	C 	0.49800 0.69670 0.58320 -0.17700
H 	H 	0.46730 0.68340 0.59960 0.07100
C 	C 	0.55490 0.73020 0.59500 -0.02300
H 	H 	0.56240 0.73570 0.61990 0.03100
C 	C 	0.42690 0.64680 0.53450 -0.54700
H 	H 	0.40000 0.63940 0.55400 0.16500
H 	H 	0.42180 0.61050 0.52560 0.17500
H 	H 	0.41950 0.66670 0.51520 0.16200
C 	C 	0.68450 0.77000 0.59540 -0.03600
H 	H 	0.66680 0.72990 0.59870 0.04000
C 	C 	0.74470 0.80690 0.60450 0.02600
C 	C 	0.77810 0.78510 0.61800 -0.03800
H 	H 	0.76110 0.74530 0.62220 0.03200
C 	C 	0.83410 0.81970 0.62500 -0.12200
H 	H 	0.85730 0.80490 0.63340 0.07400
C 	C 	0.85640 0.87800 0.61960 0.14600
C 	C 	0.82320 0.89800 0.60530 -0.06700
H 	H 	0.83990 0.93760 0.60010 0.04300
C 	C 	0.93800 0.97080 0.61810 -0.05800
H 	H 	0.91670 0.98770 0.62920 0.06200
H 	H 	0.93800 0.97560 0.59190 0.05500
H 	H 	0.96850 0.00480 0.68200 0.19900
Zn	Zn	0.11375 0.82256 0.57646 1.18000
O 	O 	0.17010 0.11760 0.42370 -0.21100
O 	O 	0.17530 0.97880 0.46390 -0.20300
O 	O 	0.22240 0.12100 0.52600 -0.20900
N 	N 	0.99860 0.07240 0.29950 -0.21100
N 	N 	0.06310 0.07140 0.35410 -0.22100
N 	N 	0.11040 0.75400 0.54650 -0.22800
N 	N 	0.12820 0.85470 0.52230 -0.21700
N 	N 	0.22120 0.30470 0.62640 -0.23200
N 	N 	0.20640 0.22920 0.57470 -0.21900
C 	C 	0.95540 0.07040 0.27710 -0.00200
C 	C 	0.93830 0.03570 0.24800 0.01600
H 	H 	0.95710 0.01490 0.24260 0.00100
C 	C 	0.89440 0.02960 0.22560 -0.22300
H 	H 	0.88250 0.00360 0.20610 0.10200
C 	C 	0.86760 0.06240 0.23210 0.29300
C 	C 	0.88500 0.09590 0.26270 -0.23500
H 	H 	0.86610 0.11620 0.26930 0.09700
C 	C 	0.92880 0.10070 0.28350 0.03600
H 	H 	0.94100 0.12620 0.30320 0.01800
C 	C 	0.81890 0.05420 0.21140 -0.69200
H 	H 	0.82720 0.05440 0.18600 0.22500
H 	H 	0.81110 0.08520 0.21660 0.21700
H 	H 	0.78550 0.01760 0.21770 0.21600
C 	C 	0.03310 0.12010 0.31560 -0.05800
H 	H 	0.03500 0.15460 0.30810 0.04600
C 	C 	0.06840 0.12080 0.34460 0.04500
C 	C 	0.10900 0.17140 0.36060 -0.04200
H 	H 	0.11380 0.20690 0.35280 0.03400
C 	C 	0.14250 0.16970 0.38810 -0.11500
H 	H 	0.16940 0.20370 0.39990 0.07300
C 	C 	0.13580 0.11790 0.39780 0.14600
C 	C 	0.09370 0.06710 0.38070 -0.05700
H 	H 	0.08760 0.03090 0.38800 0.03800
C 	C 	0.16000 0.06400 0.43720 -0.08700
H 	H 	0.16820 0.04320 0.41850 0.06700
H 	H 	0.11960 0.04030 0.44450 0.05900
C 	C 	0.10560 0.70320 0.56180 0.02400
C 	C 	0.15290 0.69770 0.56370 -0.02100
H 	H 	0.18740 0.72580 0.55310 0.03300
C 	C 	0.15150 0.65160 0.58090 -0.17800
H 	H 	0.18450 0.64770 0.58180 0.07300
C 	C 	0.10010 0.61060 0.59700 0.22000
C 	C 	0.05260 0.61680 0.59530 -0.17400
H 	H 	0.01820 0.58930 0.60650 0.08000
C 	C 	0.05420 0.66340 0.57710 -0.02000
H 	H 	0.02130 0.66740 0.57550 0.03000
C 	C 	0.09490 0.55910 0.61510 -0.58100
H 	H 	0.05770 0.53830 0.62700 0.18300
H 	H 	0.12540 0.57090 0.63280 0.18100
H 	H 	0.09820 0.53430 0.59740 0.18700
C 	C 	0.12060 0.76510 0.51290 -0.04300
H 	H 	0.12180 0.73760 0.49770 0.04700
C 	C 	0.13030 0.81840 0.49800 0.03600
C 	C 	0.14510 0.83290 0.46300 -0.03800
H 	H 	0.14570 0.80620 0.44690 0.02900
C 	C 	0.15930 0.88760 0.45140 -0.11600
H 	H 	0.16890 0.89840 0.42720 0.07000
C 	C 	0.15910 0.92530 0.47560 0.14600
C 	C 	0.14110 0.90770 0.51110 -0.05800
H 	H 	0.13790 0.93300 0.52730 0.04400
C 	C 	0.17880 0.02040 0.48930 -0.09400
H 	H 	0.20660 0.02620 0.50840 0.07100
H 	H 	0.14110 0.00770 0.50040 0.06000
C 	C 	0.22660 0.33940 0.65610 0.03900
C 	C 	0.21340 0.31770 0.69080 -0.03000
H 	H 	0.20070 0.27850 0.69510 0.03600
C 	C 	0.21890 0.35350 0.71910 -0.16300
H 	H 	0.20990 0.33850 0.74260 0.07200
C 	C 	0.23770 0.41160 0.71360 0.18900
C 	C 	0.25050 0.43260 0.67860 -0.15500
H 	H 	0.26310 0.47170 0.67430 0.06900
C 	C 	0.24510 0.39700 0.65020 -0.03600
H 	H 	0.25410 0.41210 0.62670 0.03100
C 	C 	0.24490 0.45040 0.74430 -0.54200
H 	H 	0.27190 0.44990 0.76150 0.17300
H 	H 	0.20790 0.43730 0.75590 0.17000
H 	H 	0.25970 0.48950 0.73550 0.16800
C 	C 	0.24190 0.27220 0.63190 -0.03400
H 	H 	0.25910 0.27310 0.65420 0.04000
C 	C 	0.23900 0.23320 0.60350 0.03000
C 	C 	0.26260 0.19950 0.60840 -0.04100
H 	H 	0.28180 0.20120 0.62990 0.03500
C 	C 	0.25800 0.16350 0.58190 -0.10600
H 	H 	0.27570 0.14090 0.58440 0.06500
C 	C 	0.22680 0.15910 0.55050 0.13400
C 	C 	0.20260 0.19480 0.54870 -0.04700
H 	H 	0.18250 0.19380 0.52770 0.03600
C 	C 	0.19340 0.11640 0.49340 -0.08500
H 	H 	0.21010 0.15460 0.48200 0.06900
H 	H 	0.15270 0.10280 0.49830 0.06000
C 	C 	0.19850 0.07560 0.46840 0.17800
C 	C 	0.26170 0.10190 0.45590 -0.51500
H 	H 	0.27240 0.13620 0.44170 0.18400
H 	H 	0.26570 0.07390 0.44150 0.18400
H 	H 	0.28670 0.11220 0.47680 0.18600
O 	O 	0.08750 0.00020 0.62690 -0.23100
N 	N 	0.20820 0.86430 0.58310 -0.21700
N 	N 	0.13700 0.90480 0.59850 -0.21500
C 	C 	0.24570 0.84450 0.57190 0.02900
C 	C 	0.26010 0.84750 0.53690 -0.01500
H 	H 	0.24510 0.86350 0.52060 0.03700
C 	C 	0.29450 0.82860 0.52410 -0.17400
H 	H 	0.30390 0.83220 0.49950 0.08600
C 	C 	0.31640 0.80390 0.54780 0.19900
C 	C 	0.30330 0.80130 0.58320 -0.17600
H 	H 	0.31660 0.78390 0.59960 0.07100
C 	C 	0.26980 0.82470 0.59500 -0.02400
H 	H 	0.26430 0.82670 0.61990 0.03200
C 	C 	0.35320 0.78010 0.53450 -0.54700
H 	H 	0.36060 0.76060 0.55400 0.16500
H 	H 	0.38950 0.81130 0.52560 0.17500
H 	H 	0.33330 0.75280 0.51520 0.16200
C 	C 	0.23000 0.91450 0.59540 -0.02700
H 	H 	0.27010 0.93690 0.59870 0.03800
C 	C 	0.19310 0.93780 0.60450 0.01000
C 	C 	0.21490 0.99300 0.61800 0.00800
H 	H 	0.25470 0.01580 0.62220 0.01200
C 	C 	0.18030 0.01440 0.62500 -0.17000
H 	H 	0.19510 0.05240 0.63340 0.08800
C 	C 	0.12200 0.97840 0.61960 0.17800
C 	C 	0.10200 0.92520 0.60530 -0.08300
H 	H 	0.06240 0.90230 0.60010 0.04600
C 	C 	0.02920 0.96720 0.61810 -0.04800
H 	H 	0.01230 0.92900 0.62920 0.05400
H 	H 	0.02440 0.96240 0.59190 0.04900
H 	H 	0.99520 0.96370 0.68200 0.20500
Zn	Zn	0.17744 0.29119 0.57646 1.18000
O 	O 	0.88240 0.05250 0.42370 -0.21000
O 	O 	0.02120 0.19650 0.46390 -0.21500
O 	O 	0.87900 0.10140 0.52600 -0.21200
N 	N 	0.92760 0.92620 0.29950 -0.21400
N 	N 	0.92860 0.99170 0.35410 -0.21400
N 	N 	0.24600 0.35640 0.54650 -0.22700
N 	N 	0.14530 0.27350 0.52230 -0.21700
N 	N 	0.69530 0.91650 0.62640 -0.23400
N 	N 	0.77080 0.97720 0.57470 -0.20900
C 	C 	0.92960 0.88500 0.27710 -0.00300
C 	C 	0.96430 0.90260 0.24800 0.01900
H 	H 	0.98510 0.94220 0.24260 0.00400
C 	C 	0.97040 0.86480 0.22560 -0.22500
H 	H 	0.99640 0.87890 0.20610 0.10600
C 	C 	0.93760 0.80520 0.23210 0.29900
C 	C 	0.90410 0.78910 0.26270 -0.23800
H 	H 	0.88380 0.74990 0.26930 0.09900
C 	C 	0.89930 0.82810 0.28350 0.03800
H 	H 	0.87380 0.81480 0.30320 0.01600
C 	C 	0.94580 0.76470 0.21140 -0.70100
H 	H 	0.94560 0.77280 0.18600 0.22900
H 	H 	0.91480 0.72590 0.21660 0.22000
H 	H 	0.98240 0.76790 0.21770 0.22200
C 	C 	0.87990 0.91300 0.31560 -0.04900
H 	H 	0.84540 0.88040 0.30810 0.04500
C 	C 	0.87920 0.94760 0.34460 0.04600
C 	C 	0.82860 0.93760 0.36060 -0.04400
H 	H 	0.79310 0.90690 0.35280 0.03600
C 	C 	0.83030 0.97280 0.38810 -0.10400
H 	H 	0.79630 0.96570 0.39990 0.07200
C 	C 	0.88210 0.01790 0.39780 0.14000
C 	C 	0.93290 0.02660 0.38070 -0.06000
H 	H 	0.96910 0.05670 0.38800 0.04200
C 	C 	0.93600 0.09600 0.43720 -0.08900
H 	H 	0.95680 0.12500 0.41850 0.07100
H 	H 	0.95970 0.07930 0.44450 0.06200
C 	C 	0.29680 0.40240 0.56180 0.02400
C 	C 	0.30230 0.45520 0.56370 -0.02100
H 	H 	0.27420 0.46160 0.55310 0.03300
C 	C 	0.34840 0.49990 0.58090 -0.17900
H 	H 	0.35230 0.53680 0.58180 0.07300
C 	C 	0.38940 0.48950 0.59700 0.22200
C 	C 	0.38320 0.43580 0.59530 -0.17500
H 	H 	0.41070 0.42890 0.60650 0.08200
C 	C 	0.33660 0.39080 0.57710 -0.01900
H 	H 	0.33260 0.35390 0.57550 0.03200
C 	C 	0.44090 0.53580 0.61510 -0.58400
H 	H 	0.46170 0.51940 0.62700 0.18500
H 	H 	0.42910 0.55450 0.63280 0.18300
H 	H 	0.46570 0.56390 0.59740 0.18800
C 	C 	0.23490 0.35550 0.51290 -0.04300
H 	H 	0.26240 0.38420 0.49770 0.04700
C 	C 	0.18160 0.31190 0.49800 0.03600
C 	C 	0.16710 0.31220 0.46300 -0.03700
H 	H 	0.19380 0.33950 0.44690 0.02900
C 	C 	0.11240 0.27170 0.45140 -0.11700
H 	H 	0.10160 0.27050 0.42720 0.07000
C 	C 	0.07470 0.23380 0.47560 0.14700
C 	C 	0.09230 0.23340 0.51110 -0.06000
H 	H 	0.06700 0.20490 0.52730 0.04100
C 	C 	0.97960 0.15840 0.48930 -0.08000
H 	H 	0.97380 0.18040 0.50840 0.07100
H 	H 	0.99230 0.13340 0.50040 0.06000
C 	C 	0.66060 0.88720 0.65610 0.03900
C 	C 	0.68230 0.89570 0.69080 -0.03000
H 	H 	0.72150 0.92220 0.69510 0.03700
C 	C 	0.64650 0.86540 0.71910 -0.16200
H 	H 	0.66150 0.87140 0.74260 0.07300
C 	C 	0.58840 0.82610 0.71360 0.19000
C 	C 	0.56740 0.81790 0.67860 -0.15500
H 	H 	0.52830 0.79140 0.67430 0.06900
C 	C 	0.60300 0.84810 0.65020 -0.03600
H 	H 	0.58790 0.84200 0.62670 0.03100
C 	C 	0.54960 0.79450 0.74430 -0.54300
H 	H 	0.55010 0.82200 0.76150 0.17400
H 	H 	0.56270 0.77060 0.75590 0.17000
H 	H 	0.51050 0.77020 0.73550 0.16800
C 	C 	0.72780 0.96970 0.63190 -0.02300
H 	H 	0.72690 0.98600 0.65420 0.03800
C 	C 	0.76680 0.00580 0.60350 0.01400
C 	C 	0.80050 0.06310 0.60840 -0.03000
H 	H 	0.79880 0.08060 0.62990 0.03000
C 	C 	0.83650 0.09450 0.58190 -0.11600
H 	H 	0.85910 0.13480 0.58440 0.07000
C 	C 	0.84090 0.06770 0.55050 0.14400
C 	C 	0.80520 0.00780 0.54870 -0.06800
H 	H 	0.80620 0.98870 0.52770 0.04700
C 	C 	0.88360 0.07700 0.49340 -0.08300
H 	H 	0.84540 0.05550 0.48200 0.06700
H 	H 	0.89720 0.04990 0.49830 0.05900
C 	C 	0.92440 0.12290 0.46840 0.17700
C 	C 	0.89810 0.15980 0.45590 -0.51600
H 	H 	0.86380 0.13620 0.44170 0.18400
H 	H 	0.92610 0.19180 0.44150 0.18700
H 	H 	0.88780 0.17450 0.47680 0.18700
O 	O 	0.99980 0.08730 0.62690 -0.19700
N 	N 	0.13570 0.34390 0.58310 -0.21400
N 	N 	0.09520 0.23220 0.59850 -0.22700
C 	C 	0.15550 0.40120 0.57190 0.02800
C 	C 	0.15250 0.41260 0.53690 -0.01400
H 	H 	0.13650 0.38160 0.52060 0.03600
C 	C 	0.17140 0.46590 0.52410 -0.17500
H 	H 	0.16780 0.47170 0.49950 0.08600
C 	C 	0.19610 0.51250 0.54780 0.20000
C 	C 	0.19870 0.50200 0.58320 -0.17700
H 	H 	0.21610 0.53270 0.59960 0.07200
C 	C 	0.17530 0.44510 0.59500 -0.02300
H 	H 	0.17330 0.43760 0.61990 0.03100
C 	C 	0.21990 0.57310 0.53450 -0.54800
H 	H 	0.23940 0.60000 0.55400 0.16500
H 	H 	0.18870 0.57820 0.52560 0.17500
H 	H 	0.24720 0.58050 0.51520 0.16200
C 	C 	0.08550 0.31550 0.59540 -0.04400
H 	H 	0.06310 0.33320 0.59870 0.04100
C 	C 	0.06220 0.25530 0.60450 0.04300
C 	C 	0.00700 0.22190 0.61800 -0.08400
H 	H 	0.98420 0.23890 0.62220 0.05200
C 	C 	0.98560 0.16590 0.62500 -0.07400
H 	H 	0.94760 0.14270 0.63340 0.05800
C 	C 	0.02160 0.14360 0.61960 0.11200
C 	C 	0.07480 0.17680 0.60530 -0.05000
H 	H 	0.09770 0.16010 0.60010 0.03600
C 	C 	0.03280 0.06200 0.61810 -0.07900
H 	H 	0.07100 0.08330 0.62920 0.06500
H 	H 	0.03760 0.06200 0.59190 0.05600
H 	H 	0.03630 0.03150 0.68200 0.19500
Zn	Zn	-0.00000 -0.00000 0.32341 1.17600
C 	C 	0.00000 -0.00000 0.63240 0.16100
C 	C 	0.00000 0.00000 0.67330 -0.56200
Zn	Zn	0.29119 0.11375 0.07646 1.18000
O 	O 	0.05250 0.17010 0.92370 -0.21100
O 	O 	0.19650 0.17530 0.96390 -0.21000
O 	O 	0.10140 0.22240 0.02600 -0.21300
N 	N 	0.92620 0.99860 0.79950 -0.21000
N 	N 	0.99170 0.06310 0.85410 -0.21600
N 	N 	0.35640 0.11040 0.04650 -0.22700
N 	N 	0.27350 0.12820 0.02230 -0.21700
N 	N 	0.91650 0.22120 0.12640 -0.23400
N 	N 	0.97720 0.20640 0.07470 -0.20800
C 	C 	0.88500 0.95540 0.77710 -0.00100
C 	C 	0.90260 0.93830 0.74800 0.01700
H 	H 	0.94220 0.95710 0.74260 0.00400
C 	C 	0.86480 0.89440 0.72560 -0.22400
H 	H 	0.87890 0.88250 0.70610 0.10400
C 	C 	0.80520 0.86760 0.73210 0.29600
C 	C 	0.78910 0.88500 0.76270 -0.23600
H 	H 	0.74990 0.86610 0.76930 0.09800
C 	C 	0.82810 0.92880 0.78350 0.03600
H 	H 	0.81480 0.94100 0.80320 0.01800
C 	C 	0.76470 0.81890 0.71140 -0.69700
H 	H 	0.77280 0.82720 0.68600 0.22700
H 	H 	0.72590 0.81110 0.71660 0.21900
H 	H 	0.76790 0.78550 0.71770 0.21900
C 	C 	0.91300 0.03310 0.81560 -0.05600
H 	H 	0.88040 0.03500 0.80810 0.04600
C 	C 	0.94760 0.06840 0.84460 0.04800
C 	C 	0.93760 0.10900 0.86060 -0.04600
H 	H 	0.90690 0.11380 0.85280 0.03600
C 	C 	0.97280 0.14250 0.88810 -0.10200
H 	H 	0.96570 0.16940 0.89990 0.07100
C 	C 	0.01790 0.13580 0.89780 0.13800
C 	C 	0.02660 0.09370 0.88070 -0.06100
H 	H 	0.05670 0.08760 0.88800 0.04000
C 	C 	0.09600 0.16000 0.93720 -0.08700
H 	H 	0.12500 0.16820 0.91850 0.06900
H 	H 	0.07930 0.11960 0.94450 0.05900
C 	C 	0.40240 0.10560 0.06180 0.02400
C 	C 	0.45520 0.15290 0.06370 -0.02100
H 	H 	0.46160 0.18740 0.05310 0.03300
C 	C 	0.49990 0.15150 0.08090 -0.17800
H 	H 	0.53680 0.18450 0.08180 0.07300
C 	C 	0.48950 0.10010 0.09700 0.22000
C 	C 	0.43580 0.05260 0.09530 -0.17400
H 	H 	0.42890 0.01820 0.10650 0.08000
C 	C 	0.39080 0.05420 0.07710 -0.02000
H 	H 	0.35390 0.02130 0.07550 0.03000
C 	C 	0.53580 0.09490 0.11510 -0.58100
H 	H 	0.51940 0.05770 0.12700 0.18300
H 	H 	0.55450 0.12540 0.13280 0.18200
H 	H 	0.56390 0.09820 0.09740 0.18700
C 	C 	0.35550 0.12060 0.01290 -0.04600
H 	H 	0.38420 0.12180 0.99770 0.04800
C 	C 	0.31190 0.13030 0.99800 0.03800
C 	C 	0.31220 0.14510 0.96300 -0.03800
H 	H 	0.33950 0.14570 0.94690 0.02900
C 	C 	0.27170 0.15930 0.95140 -0.11700
H 	H 	0.27050 0.16890 0.92720 0.07000
C 	C 	0.23380 0.15910 0.97560 0.14700
C 	C 	0.23340 0.14110 0.01110 -0.06000
H 	H 	0.20490 0.13790 0.02730 0.04300
C 	C 	0.15840 0.17880 0.98930 -0.08300
H 	H 	0.18040 0.20660 0.00840 0.07000
H 	H 	0.13340 0.14110 0.00040 0.05800
C 	C 	0.88720 0.22660 0.15610 0.03900
C 	C 	0.89570 0.21340 0.19080 -0.03000
H 	H 	0.92220 0.20070 0.19510 0.03700
C 	C 	0.86540 0.21890 0.21910 -0.16200
H 	H 	0.87140 0.20990 0.24260 0.07300
C 	C 	0.82610 0.23770 0.21360 0.18900
C 	C 	0.81790 0.25050 0.17860 -0.15400
H 	H 	0.79140 0.26310 0.17430 0.06900
C 	C 	0.84810 0.24510 0.15020 -0.03600
H 	H 	0.84200 0.25410 0.12670 0.03200
C 	C 	0.79450 0.24490 0.24430 -0.54200
H 	H 	0.82200 0.27190 0.26150 0.17400
H 	H 	0.77060 0.20790 0.25590 0.17000
H 	H 	0.77020 0.25970 0.23550 0.16800
C 	C 	0.96970 0.24190 0.13190 -0.02200
H 	H 	0.98600 0.25910 0.15420 0.03800
C 	C 	0.00580 0.23900 0.10350 0.01300
C 	C 	0.06310 0.26260 0.10840 -0.02900
H 	H 	0.08060 0.28180 0.12990 0.03000
C 	C 	0.09450 0.25800 0.08190 -0.11700
H 	H 	0.13480 0.27570 0.08440 0.06900
C 	C 	0.06770 0.22680 0.05050 0.14500
C 	C 	0.00780 0.20260 0.04870 -0.07000
H 	H 	0.98870 0.18250 0.02770 0.04800
C 	C 	0.07700 0.19340 0.99340 -0.08100
H 	H 	0.05550 0.21010 0.98200 0.06600
H 	H 	0.04990 0.15270 0.99830 0.05800
C 	C 	0.12290 0.19850 0.96840 0.17500
C 	C 	0.15980 0.26170 0.95590 -0.51300
H 	H 	0.13620 0.27240 0.94170 0.18300
H 	H 	0.19180 0.26570 0.94150 0.18500
H 	H 	0.17450 0.28670 0.97680 0.18600
O 	O 	0.08730 0.08750 0.12690 -0.21500
N 	N 	0.34390 0.20820 0.08310 -0.21600
N 	N 	0.23220 0.13700 0.09850 -0.22100
C 	C 	0.40120 0.24570 0.07190 0.02800
C 	C 	0.41260 0.26010 0.03690 -0.01400
H 	H 	0.38160 0.24510 0.02060 0.03600
C 	C 	0.46590 0.29450 0.02410 -0.17700
H 	H 	0.47170 0.30390 0.99950 0.08700
C 	C 	0.51250 0.31640 0.04780 0.20000
C 	C 	0.50200 0.30330 0.08320 -0.17700
H 	H 	0.53270 0.31660 0.09960 0.07200
C 	C 	0.44510 0.26980 0.09500 -0.02300
H 	H 	0.43760 0.26430 0.11990 0.03100
C 	C 	0.57310 0.35320 0.03450 -0.54800
H 	H 	0.60000 0.36060 0.05400 0.16500
H 	H 	0.57820 0.38950 0.02560 0.17500
H 	H 	0.58050 0.33330 0.01520 0.16200
C 	C 	0.31550 0.23000 0.09540 -0.03600
H 	H 	0.33320 0.27010 0.09870 0.04000
C 	C 	0.25530 0.19310 0.10450 0.02600
C 	C 	0.22190 0.21490 0.11800 -0.03800
H 	H 	0.23890 0.25470 0.12220 0.03200
C 	C 	0.16590 0.18030 0.12500 -0.12200
H 	H 	0.14270 0.19510 0.13340 0.07300
C 	C 	0.14360 0.12200 0.11960 0.14500
C 	C 	0.17680 0.10200 0.10530 -0.06600
H 	H 	0.16010 0.06240 0.10010 0.04000
C 	C 	0.06200 0.02920 0.11810 -0.06600
H 	H 	0.08330 0.01230 0.12920 0.05900
H 	H 	0.06200 0.02440 0.09190 0.05100
H 	H 	0.03150 0.99520 0.18200 0.20200
Zn	Zn	0.88625 0.17744 0.07646 1.18000
O 	O 	0.82990 0.88240 0.92370 -0.21100
O 	O 	0.82470 0.02120 0.96390 -0.21400
O 	O 	0.77760 0.87900 0.02600 -0.20900
N 	N 	0.00140 0.92760 0.79950 -0.21900
N 	N 	0.93690 0.92860 0.85410 -0.21600
N 	N 	0.88960 0.24600 0.04650 -0.22600
N 	N 	0.87180 0.14530 0.02230 -0.21700
N 	N 	0.77880 0.69530 0.12640 -0.23200
N 	N 	0.79360 0.77080 0.07470 -0.21900
C 	C 	0.04460 0.92960 0.77710 -0.00500
C 	C 	0.06170 0.96430 0.74800 0.01900
H 	H 	0.04290 0.98510 0.74260 0.00100
C 	C 	0.10560 0.97040 0.72560 -0.22700
H 	H 	0.11750 0.99640 0.70610 0.10600
C 	C 	0.13240 0.93760 0.73210 0.29900
C 	C 	0.11500 0.90410 0.76270 -0.23900
H 	H 	0.13390 0.88380 0.76930 0.09900
C 	C 	0.07120 0.89930 0.78350 0.03800
H 	H 	0.05900 0.87380 0.80320 0.01500
C 	C 	0.18110 0.94580 0.71140 -0.70200
H 	H 	0.17280 0.94560 0.68600 0.22900
H 	H 	0.18890 0.91480 0.71660 0.22000
H 	H 	0.21450 0.98240 0.71770 0.22200
C 	C 	0.96690 0.87990 0.81560 -0.04200
H 	H 	0.96500 0.84540 0.80810 0.04400
C 	C 	0.93160 0.87920 0.84460 0.04300
C 	C 	0.89100 0.82860 0.86060 -0.03800
H 	H 	0.88620 0.79310 0.85280 0.03400
C 	C 	0.85750 0.83030 0.88810 -0.11500
H 	H 	0.83060 0.79630 0.89990 0.07400
C 	C 	0.86420 0.88210 0.89780 0.14800
C 	C 	0.90630 0.93290 0.88070 -0.05600
H 	H 	0.91240 0.96910 0.88800 0.04200
C 	C 	0.84000 0.93600 0.93720 -0.08900
H 	H 	0.83180 0.95680 0.91850 0.07100
H 	H 	0.88040 0.95970 0.94450 0.06300
C 	C 	0.89440 0.29680 0.06180 0.02400
C 	C 	0.84710 0.30230 0.06370 -0.02000
H 	H 	0.81260 0.27420 0.05310 0.03300
C 	C 	0.84850 0.34840 0.08090 -0.18000
H 	H 	0.81550 0.35230 0.08180 0.07300
C 	C 	0.89990 0.38940 0.09700 0.22300
C 	C 	0.94740 0.38320 0.09530 -0.17500
H 	H 	0.98180 0.41070 0.10650 0.08400
C 	C 	0.94580 0.33660 0.07710 -0.01800
H 	H 	0.97870 0.33260 0.07550 0.03300
C 	C 	0.90510 0.44090 0.11510 -0.58600
H 	H 	0.94230 0.46170 0.12700 0.18700
H 	H 	0.87460 0.42910 0.13280 0.18400
H 	H 	0.90180 0.46570 0.09740 0.18900
C 	C 	0.87940 0.23490 0.01290 -0.04500
H 	H 	0.87820 0.26240 0.99770 0.04900
C 	C 	0.86970 0.18160 0.99800 0.03900
C 	C 	0.85490 0.16710 0.96300 -0.03800
H 	H 	0.85430 0.19380 0.94690 0.03000
C 	C 	0.84070 0.11240 0.95140 -0.11700
H 	H 	0.83110 0.10160 0.92720 0.07000
C 	C 	0.84090 0.07470 0.97560 0.14800
C 	C 	0.85890 0.09230 0.01110 -0.06100
H 	H 	0.86210 0.06700 0.02730 0.04200
C 	C 	0.82120 0.97960 0.98930 -0.08000
H 	H 	0.79340 0.97380 0.00840 0.07100
H 	H 	0.85890 0.99230 0.00040 0.06000
C 	C 	0.77340 0.66060 0.15610 0.03900
C 	C 	0.78660 0.68230 0.19080 -0.03000
H 	H 	0.79930 0.72150 0.19510 0.03600
C 	C 	0.78110 0.64650 0.21910 -0.16300
H 	H 	0.79010 0.66150 0.24260 0.07300
C 	C 	0.76230 0.58840 0.21360 0.19000
C 	C 	0.74950 0.56740 0.17860 -0.15500
H 	H 	0.73690 0.52830 0.17430 0.06900
C 	C 	0.75490 0.60300 0.15020 -0.03600
H 	H 	0.74590 0.58790 0.12670 0.03100
C 	C 	0.75510 0.54960 0.24430 -0.54300
H 	H 	0.72810 0.55010 0.26150 0.17400
H 	H 	0.79210 0.56270 0.25590 0.17100
H 	H 	0.74030 0.51050 0.23550 0.16900
C 	C 	0.75810 0.72780 0.13190 -0.03400
H 	H 	0.74090 0.72690 0.15420 0.04000
C 	C 	0.76100 0.76680 0.10350 0.03000
C 	C 	0.73740 0.80050 0.10840 -0.04100
H 	H 	0.71820 0.79880 0.12990 0.03600
C 	C 	0.74200 0.83650 0.08190 -0.10600
H 	H 	0.72430 0.85910 0.08440 0.06600
C 	C 	0.77320 0.84090 0.05050 0.13400
C 	C 	0.79740 0.80520 0.04870 -0.04700
H 	H 	0.81750 0.80620 0.02770 0.03600
C 	C 	0.80660 0.88360 0.99340 -0.08500
H 	H 	0.78990 0.84540 0.98200 0.06900
H 	H 	0.84730 0.89720 0.99830 0.06200
C 	C 	0.80150 0.92440 0.96840 0.17800
C 	C 	0.73830 0.89810 0.95590 -0.51700
H 	H 	0.72760 0.86380 0.94170 0.18500
H 	H 	0.73430 0.92610 0.94150 0.18700
H 	H 	0.71330 0.88780 0.97680 0.18700
O 	O 	0.91250 0.99980 0.12690 -0.19800
N 	N 	0.79180 0.13570 0.08310 -0.21400
N 	N 	0.86300 0.09520 0.09850 -0.22600
C 	C 	0.75430 0.15550 0.07190 0.02700
C 	C 	0.73990 0.15250 0.03690 -0.01300
H 	H 	0.75490 0.13650 0.02060 0.03500
C 	C 	0.70550 0.17140 0.02410 -0.17800
H 	H 	0.69610 0.16780 0.99950 0.08700
C 	C 	0.68360 0.19610 0.04780 0.20100
C 	C 	0.69670 0.19870 0.08320 -0.17800
H 	H 	0.68340 0.21610 0.09960 0.07200
C 	C 	0.73020 0.17530 0.09500 -0.02200
H 	H 	0.73570 0.17330 0.11990 0.03100
C 	C 	0.64680 0.21990 0.03450 -0.54800
H 	H 	0.63940 0.23940 0.05400 0.16500
H 	H 	0.61050 0.18870 0.02560 0.17500
H 	H 	0.66670 0.24720 0.01520 0.16200
C 	C 	0.77000 0.08550 0.09540 -0.04400
H 	H 	0.72990 0.06310 0.09870 0.04100
C 	C 	0.80690 0.06220 0.10450 0.04200
C 	C 	0.78510 0.00700 0.11800 -0.08000
H 	H 	0.74530 0.98420 0.12220 0.05000
C 	C 	0.81970 0.98560 0.12500 -0.07900
H 	H 	0.80490 0.94760 0.13340 0.06000
C 	C 	0.87800 0.02160 0.11960 0.11600
C 	C 	0.89800 0.07480 0.10530 -0.05200
H 	H 	0.93760 0.09770 0.10010 0.03800
C 	C 	0.97080 0.03280 0.11810 -0.07400
H 	H 	0.98770 0.07100 0.12920 0.06600
H 	H 	0.97560 0.03760 0.09190 0.05700
H 	H 	0.00480 0.03630 0.18200 0.19400
Zn	Zn	0.82256 0.70881 0.07646 1.18000
O 	O 	0.11760 0.94750 0.92370 -0.21200
O 	O 	0.97880 0.80350 0.96390 -0.20300
O 	O 	0.12100 0.89860 0.02600 -0.20500
N 	N 	0.07240 0.07380 0.79950 -0.21800
N 	N 	0.07140 0.00830 0.85410 -0.22300
N 	N 	0.75400 0.64360 0.04650 -0.22700
N 	N 	0.85470 0.72650 0.02230 -0.21700
N 	N 	0.30470 0.08350 0.12640 -0.23000
N 	N 	0.22920 0.02280 0.07470 -0.23100
C 	C 	0.07040 0.11500 0.77710 -0.00500
C 	C 	0.03570 0.09740 0.74800 0.01700
H 	H 	0.01490 0.05780 0.74260 -0.00200
C 	C 	0.02960 0.13520 0.72560 -0.22500
H 	H 	0.00360 0.12110 0.70610 0.10100
C 	C 	0.06240 0.19480 0.73210 0.29300
C 	C 	0.09590 0.21090 0.76270 -0.23700
H 	H 	0.11620 0.25010 0.76930 0.09700
C 	C 	0.10070 0.17190 0.78350 0.03600
H 	H 	0.12620 0.18520 0.80320 0.01600
C 	C 	0.05420 0.23530 0.71140 -0.69300
H 	H 	0.05440 0.22720 0.68600 0.22500
H 	H 	0.08520 0.27410 0.71660 0.21700
H 	H 	0.01760 0.23210 0.71770 0.21500
C 	C 	0.12010 0.08700 0.81560 -0.04900
H 	H 	0.15460 0.11960 0.80810 0.04400
C 	C 	0.12080 0.05240 0.84460 0.04100
C 	C 	0.17140 0.06240 0.86060 -0.03600
H 	H 	0.20690 0.09310 0.85280 0.03200
C 	C 	0.16970 0.02720 0.88810 -0.12700
H 	H 	0.20370 0.03430 0.89990 0.07500
C 	C 	0.11790 0.98210 0.89780 0.15500
C 	C 	0.06710 0.97340 0.88070 -0.05300
H 	H 	0.03090 0.94330 0.88800 0.03800
C 	C 	0.06400 0.90400 0.93720 -0.08800
H 	H 	0.04320 0.87500 0.91850 0.06800
H 	H 	0.04030 0.92070 0.94450 0.06100
C 	C 	0.70320 0.59760 0.06180 0.02400
C 	C 	0.69770 0.54480 0.06370 -0.02000
H 	H 	0.72580 0.53840 0.05310 0.03300
C 	C 	0.65160 0.50010 0.08090 -0.17900
H 	H 	0.64770 0.46320 0.08180 0.07300
C 	C 	0.61060 0.51050 0.09700 0.22200
C 	C 	0.61680 0.56420 0.09530 -0.17500
H 	H 	0.58930 0.57110 0.10650 0.08200
C 	C 	0.66340 0.60920 0.07710 -0.01900
H 	H 	0.66740 0.64610 0.07550 0.03100
C 	C 	0.55910 0.46420 0.11510 -0.58400
H 	H 	0.53830 0.48060 0.12700 0.18500
H 	H 	0.57090 0.44550 0.13280 0.18300
H 	H 	0.53430 0.43610 0.09740 0.18800
C 	C 	0.76510 0.64450 0.01290 -0.04600
H 	H 	0.73760 0.61580 0.99770 0.04800
C 	C 	0.81840 0.68810 0.99800 0.03900
C 	C 	0.83290 0.68780 0.96300 -0.03800
H 	H 	0.80620 0.66050 0.94690 0.03000
C 	C 	0.88760 0.72830 0.95140 -0.11500
H 	H 	0.89840 0.72950 0.92720 0.07000
C 	C 	0.92530 0.76620 0.97560 0.14700
C 	C 	0.90770 0.76660 0.01110 -0.05900
H 	H 	0.93300 0.79510 0.02730 0.04400
C 	C 	0.02040 0.84160 0.98930 -0.09300
H 	H 	0.02620 0.81960 0.00840 0.07100
H 	H 	0.00770 0.86660 0.00040 0.06000
C 	C 	0.33940 0.11280 0.15610 0.03800
C 	C 	0.31770 0.10430 0.19080 -0.03000
H 	H 	0.27850 0.07780 0.19510 0.03500
C 	C 	0.35350 0.13460 0.21910 -0.16300
H 	H 	0.33850 0.12860 0.24260 0.07200
C 	C 	0.41160 0.17390 0.21360 0.18900
C 	C 	0.43260 0.18210 0.17860 -0.15500
H 	H 	0.47170 0.20860 0.17430 0.06900
C 	C 	0.39700 0.15190 0.15020 -0.03600
H 	H 	0.41210 0.15800 0.12670 0.03100
C 	C 	0.45040 0.20550 0.24430 -0.54200
H 	H 	0.44990 0.17800 0.26150 0.17300
H 	H 	0.43730 0.22940 0.25590 0.17000
H 	H 	0.48950 0.22980 0.23550 0.16800
C 	C 	0.27220 0.03030 0.13190 -0.04600
H 	H 	0.27310 0.01400 0.15420 0.04200
C 	C 	0.23320 0.99420 0.10350 0.04800
C 	C 	0.19950 0.93690 0.10840 -0.05400
H 	H 	0.20120 0.91940 0.12990 0.04100
C 	C 	0.16350 0.90550 0.08190 -0.09500
H 	H 	0.14090 0.86520 0.08440 0.06200
C 	C 	0.15910 0.93230 0.05050 0.12300
C 	C 	0.19480 0.99220 0.04870 -0.02300
H 	H 	0.19380 0.01130 0.02770 0.02300
C 	C 	0.11640 0.92300 0.99340 -0.08800
H 	H 	0.15460 0.94450 0.98200 0.07200
H 	H 	0.10280 0.95010 0.99830 0.06300
C 	C 	0.07560 0.87710 0.96840 0.18000
C 	C 	0.10190 0.84020 0.95590 -0.51700
H 	H 	0.13620 0.86380 0.94170 0.18500
H 	H 	0.07390 0.80820 0.94150 0.18500
H 	H 	0.11220 0.82550 0.97680 0.18600
O 	O 	0.00020 0.91270 0.12690 -0.22700
N 	N 	0.86430 0.65610 0.08310 -0.21700
N 	N 	0.90480 0.76780 0.09850 -0.21500
C 	C 	0.84450 0.59880 0.07190 0.02900
C 	C 	0.84750 0.58740 0.03690 -0.01400
H 	H 	0.86350 0.61840 0.02060 0.03600
C 	C 	0.82860 0.53410 0.02410 -0.17600
H 	H 	0.83220 0.52830 0.99950 0.08700
C 	C 	0.80390 0.48750 0.04780 0.20000
C 	C 	0.80130 0.49800 0.08320 -0.17700
H 	H 	0.78390 0.46730 0.09960 0.07200
C 	C 	0.82470 0.55490 0.09500 -0.02300
H 	H 	0.82670 0.56240 0.11990 0.03200
C 	C 	0.78010 0.42690 0.03450 -0.54800
H 	H 	0.76060 0.40000 0.05400 0.16500
H 	H 	0.81130 0.42180 0.02560 0.17500
H 	H 	0.75280 0.41950 0.01520 0.16200
C 	C 	0.91450 0.68450 0.09540 -0.02800
H 	H 	0.93690 0.66680 0.09870 0.03800
C 	C 	0.93780 0.74470 0.10450 0.01200
C 	C 	0.99300 0.77810 0.11800 0.00300
H 	H 	0.01580 0.76110 0.12220 0.01500
C 	C 	0.01440 0.83410 0.12500 -0.16400
H 	H 	0.05240 0.85730 0.13340 0.08700
C 	C 	0.97840 0.85640 0.11960 0.17400
C 	C 	0.92520 0.82320 0.10530 -0.08100
H 	H 	0.90230 0.83990 0.10010 0.04700
C 	C 	0.96720 0.93800 0.11810 -0.04700
H 	H 	0.92900 0.91670 0.12920 0.05600
H 	H 	0.96240 0.93800 0.09190 0.05200
H 	H 	0.96370 0.96850 0.18200 0.20400
Zn	Zn	-0.00000 -0.00000 0.82341 1.17600
C 	C 	-0.00000 0.00000 0.13240 0.16200
C 	C 	-0.00000 0.00000 0.17330 -0.56300
