data_crystal

_cell_length_a 48.84200
_cell_length_b 48.84200
_cell_length_c 48.84200
_cell_angle_alpha 90.00000
_cell_angle_beta  90.00000
_cell_angle_gamma 90.00000

_symmetry_space_group_name_	'P 1'
_symmetry_space_group_name_H-M	'P 1'

loop_
_symmetry_equiv_pos_as_xyz
  x,y,z

loop_
_atom_site_label
_atom_site_type_symbol
_atom_site_fract_x
_atom_site_fract_y
_atom_site_fract_z
_atom_site_charge
O 	O 	0.67684 0.97224 0.47118 -0.63300
O 	O 	0.75233 0.07944 0.52383 -0.62700
O 	O 	0.71068 0.05160 0.55217 -0.61500
C 	C 	0.82986 0.35281 0.52502 0.08600
C 	C 	0.82452 0.37885 0.53518 -0.10700
H 	H 	0.81010 0.38910 0.52800 0.07100
C 	C 	0.84065 0.38957 0.55603 -0.02100
H 	H 	0.83710 0.40700 0.56280 0.04200
C 	C 	0.86212 0.37426 0.56672 -0.00400
C 	C 	0.86747 0.34822 0.55656 -0.02100
H 	H 	0.88180 0.33800 0.56370 0.04100
C 	C 	0.85134 0.33749 0.53571 -0.10600
H 	H 	0.85490 0.32010 0.52890 0.07100
C 	C 	0.90960 0.40935 0.62514 0.11900
C 	C 	0.92749 0.43013 0.61752 -0.16500
H 	H 	0.92970 0.43460 0.59910 0.09300
C 	C 	0.94211 0.44431 0.63740 0.09600
H 	H 	0.95410 0.45820 0.63230 0.01800
C 	C 	0.93885 0.43771 0.66489 -0.16500
C 	C 	0.92096 0.41692 0.67250 0.10100
H 	H 	0.91880 0.41250 0.69090 0.01600
C 	C 	0.90634 0.40274 0.65263 -0.16800
H 	H 	0.89440 0.38880 0.65770 0.09400
C 	C 	0.89320 0.39470 0.60470 -0.06200
C 	C 	0.76610 0.13467 0.52446 0.10300
H 	H 	0.76380 0.12570 0.54110 0.01500
C 	C 	0.88000 0.38390 0.58920 0.01500
C 	C 	0.77360 0.16214 0.52441 -0.17700
H 	H 	0.77770 0.17090 0.54080 0.09600
C 	C 	0.80620 0.29786 0.47650 -0.12200
H 	H 	0.80830 0.30690 0.45990 0.07400
C 	C 	0.79950 0.27020 0.47620 -0.00700
H 	H 	0.79760 0.26120 0.45960 0.03500
C 	C 	0.74360 0.36800 0.47730 0.16000
H 	H 	0.73410 0.36730 0.46080 -0.02500
C 	C 	0.77010 0.35960 0.47750 -0.25600
H 	H 	0.77850 0.35680 0.46060 0.11900
C 	C 	0.68520 0.04430 0.54660 0.48100
C 	C 	0.64440 0.41700 0.52210 -0.41000
H 	H 	0.65310 0.41580 0.53900 0.17900
C 	C 	0.61790 0.42700 0.52230 0.33100
H 	H 	0.60900 0.42800 0.53910 -0.05700
O 	O 	0.56820 0.45680 0.52090 -0.58200
O 	O 	0.32316 0.02776 0.47118 -0.63400
O 	O 	0.24767 0.92056 0.52383 -0.62800
O 	O 	0.28932 0.94840 0.55217 -0.61600
C 	C 	0.17014 0.64719 0.52502 0.08500
C 	C 	0.17548 0.62115 0.53518 -0.10800
H 	H 	0.18990 0.61090 0.52800 0.07000
C 	C 	0.15935 0.61043 0.55603 -0.02200
H 	H 	0.16290 0.59300 0.56280 0.04100
C 	C 	0.13788 0.62574 0.56672 -0.00500
C 	C 	0.13253 0.65178 0.55656 -0.02200
H 	H 	0.11820 0.66200 0.56370 0.04000
C 	C 	0.14866 0.66251 0.53571 -0.10700
H 	H 	0.14510 0.67990 0.52890 0.07000
C 	C 	0.09040 0.59065 0.62514 0.11800
C 	C 	0.07251 0.56987 0.61752 -0.16600
H 	H 	0.07030 0.56540 0.59910 0.09200
C 	C 	0.05789 0.55569 0.63740 0.09500
H 	H 	0.04590 0.54180 0.63230 0.01700
C 	C 	0.06115 0.56229 0.66489 -0.16600
C 	C 	0.07904 0.58308 0.67250 0.10000
H 	H 	0.08120 0.58750 0.69090 0.01500
C 	C 	0.09366 0.59726 0.65263 -0.16900
H 	H 	0.10560 0.61120 0.65770 0.09300
C 	C 	0.10680 0.60530 0.60470 -0.06300
C 	C 	0.23390 0.86533 0.52446 0.10200
H 	H 	0.23620 0.87430 0.54110 0.01400
C 	C 	0.12000 0.61610 0.58920 0.01400
C 	C 	0.22640 0.83786 0.52441 -0.17800
H 	H 	0.22230 0.82910 0.54080 0.09600
C 	C 	0.19380 0.70214 0.47650 -0.12200
H 	H 	0.19170 0.69310 0.45990 0.07400
C 	C 	0.20050 0.72980 0.47620 -0.00700
H 	H 	0.20240 0.73880 0.45960 0.03500
C 	C 	0.25640 0.63200 0.47730 0.16000
H 	H 	0.26590 0.63270 0.46080 -0.02500
C 	C 	0.22990 0.64040 0.47750 -0.25600
H 	H 	0.22150 0.64320 0.46060 0.11900
C 	C 	0.31480 0.95570 0.54660 0.48100
C 	C 	0.35560 0.58300 0.52210 -0.41000
H 	H 	0.34690 0.58420 0.53900 0.17900
C 	C 	0.38210 0.57300 0.52230 0.33100
H 	H 	0.39100 0.57200 0.53910 -0.05700
O 	O 	0.43180 0.54320 0.52090 -0.58200
O 	O 	0.32316 0.97224 0.52882 -0.63400
O 	O 	0.24767 0.07944 0.47617 -0.62800
O 	O 	0.28932 0.05160 0.44783 -0.61600
C 	C 	0.17014 0.35281 0.47498 0.08500
C 	C 	0.17548 0.37885 0.46482 -0.10800
H 	H 	0.18990 0.38910 0.47200 0.07000
C 	C 	0.15935 0.38957 0.44397 -0.02200
H 	H 	0.16290 0.40700 0.43720 0.04100
C 	C 	0.13788 0.37426 0.43328 -0.00500
C 	C 	0.13253 0.34822 0.44344 -0.02200
H 	H 	0.11820 0.33800 0.43630 0.04000
C 	C 	0.14866 0.33749 0.46429 -0.10700
H 	H 	0.14510 0.32010 0.47110 0.07000
C 	C 	0.09040 0.40935 0.37486 0.11800
C 	C 	0.07251 0.43013 0.38248 -0.16600
H 	H 	0.07030 0.43460 0.40090 0.09200
C 	C 	0.05789 0.44431 0.36260 0.09500
H 	H 	0.04590 0.45820 0.36770 0.01700
C 	C 	0.06115 0.43771 0.33511 -0.16600
C 	C 	0.07904 0.41692 0.32750 0.10000
H 	H 	0.08120 0.41250 0.30910 0.01500
C 	C 	0.09366 0.40274 0.34737 -0.16900
H 	H 	0.10560 0.38880 0.34230 0.09300
C 	C 	0.10680 0.39470 0.39530 -0.06300
C 	C 	0.23390 0.13467 0.47554 0.10200
H 	H 	0.23620 0.12570 0.45890 0.01400
C 	C 	0.12000 0.38390 0.41080 0.01400
C 	C 	0.22640 0.16214 0.47559 -0.17800
H 	H 	0.22230 0.17090 0.45920 0.09600
C 	C 	0.19380 0.29786 0.52350 -0.12200
H 	H 	0.19170 0.30690 0.54010 0.07400
C 	C 	0.20050 0.27020 0.52380 -0.00700
H 	H 	0.20240 0.26120 0.54040 0.03500
C 	C 	0.25640 0.36800 0.52270 0.16000
H 	H 	0.26590 0.36730 0.53920 -0.02500
C 	C 	0.22990 0.35960 0.52250 -0.25600
H 	H 	0.22150 0.35680 0.53940 0.11900
C 	C 	0.31480 0.04430 0.45340 0.48100
C 	C 	0.35560 0.41700 0.47790 -0.41000
H 	H 	0.34690 0.41580 0.46100 0.17900
C 	C 	0.38210 0.42700 0.47770 0.33100
H 	H 	0.39100 0.42800 0.46090 -0.05700
O 	O 	0.43180 0.45680 0.47910 -0.58200
O 	O 	0.67684 0.02776 0.52882 -0.63400
O 	O 	0.75233 0.92056 0.47617 -0.62800
O 	O 	0.71068 0.94840 0.44783 -0.61600
C 	C 	0.82986 0.64719 0.47498 0.08500
C 	C 	0.82452 0.62115 0.46482 -0.10800
H 	H 	0.81010 0.61090 0.47200 0.07000
C 	C 	0.84065 0.61043 0.44397 -0.02200
H 	H 	0.83710 0.59300 0.43720 0.04100
C 	C 	0.86212 0.62574 0.43328 -0.00500
C 	C 	0.86747 0.65178 0.44344 -0.02200
H 	H 	0.88180 0.66200 0.43630 0.04000
C 	C 	0.85134 0.66251 0.46429 -0.10700
H 	H 	0.85490 0.67990 0.47110 0.07000
C 	C 	0.90960 0.59065 0.37486 0.11800
C 	C 	0.92749 0.56987 0.38248 -0.16600
H 	H 	0.92970 0.56540 0.40090 0.09200
C 	C 	0.94211 0.55569 0.36260 0.09500
H 	H 	0.95410 0.54180 0.36770 0.01700
C 	C 	0.93885 0.56229 0.33511 -0.16600
C 	C 	0.92096 0.58308 0.32750 0.10000
H 	H 	0.91880 0.58750 0.30910 0.01500
C 	C 	0.90634 0.59726 0.34737 -0.16900
H 	H 	0.89440 0.61120 0.34230 0.09300
C 	C 	0.89320 0.60530 0.39530 -0.06300
C 	C 	0.76610 0.86533 0.47554 0.10200
H 	H 	0.76380 0.87430 0.45890 0.01400
C 	C 	0.88000 0.61610 0.41080 0.01400
C 	C 	0.77360 0.83786 0.47559 -0.17800
H 	H 	0.77770 0.82910 0.45920 0.09600
C 	C 	0.80620 0.70214 0.52350 -0.12200
H 	H 	0.80830 0.69310 0.54010 0.07400
C 	C 	0.79950 0.72980 0.52380 -0.00700
H 	H 	0.79760 0.73880 0.54040 0.03500
C 	C 	0.74360 0.63200 0.52270 0.16000
H 	H 	0.73410 0.63270 0.53920 -0.02500
C 	C 	0.77010 0.64040 0.52250 -0.25600
H 	H 	0.77850 0.64320 0.53940 0.11900
C 	C 	0.68520 0.95570 0.45340 0.48100
C 	C 	0.64440 0.58300 0.47790 -0.41000
H 	H 	0.65310 0.58420 0.46100 0.17900
C 	C 	0.61790 0.57300 0.47770 0.33100
H 	H 	0.60900 0.57200 0.46090 -0.05700
O 	O 	0.56820 0.54320 0.47910 -0.58200
O 	O 	0.47118 0.67684 0.97224 -0.63400
O 	O 	0.52383 0.75233 0.07944 -0.62800
O 	O 	0.55217 0.71068 0.05160 -0.61600
C 	C 	0.52502 0.82986 0.35281 0.08500
C 	C 	0.53518 0.82452 0.37885 -0.10800
H 	H 	0.52800 0.81010 0.38910 0.07000
C 	C 	0.55603 0.84065 0.38957 -0.02200
H 	H 	0.56280 0.83710 0.40700 0.04100
C 	C 	0.56672 0.86212 0.37426 -0.00500
C 	C 	0.55656 0.86747 0.34822 -0.02200
H 	H 	0.56370 0.88180 0.33800 0.04000
C 	C 	0.53571 0.85134 0.33749 -0.10700
H 	H 	0.52890 0.85490 0.32010 0.07000
C 	C 	0.62514 0.90960 0.40935 0.11800
C 	C 	0.61752 0.92749 0.43013 -0.16600
H 	H 	0.59910 0.92970 0.43460 0.09200
C 	C 	0.63740 0.94211 0.44431 0.09500
H 	H 	0.63230 0.95410 0.45820 0.01700
C 	C 	0.66489 0.93885 0.43771 -0.16600
C 	C 	0.67250 0.92096 0.41692 0.10000
H 	H 	0.69090 0.91880 0.41250 0.01500
C 	C 	0.65263 0.90634 0.40274 -0.16900
H 	H 	0.65770 0.89440 0.38880 0.09300
C 	C 	0.60470 0.89320 0.39470 -0.06300
C 	C 	0.52446 0.76610 0.13467 0.10200
H 	H 	0.54110 0.76380 0.12570 0.01400
C 	C 	0.58920 0.88000 0.38390 0.01400
C 	C 	0.52441 0.77360 0.16214 -0.17800
H 	H 	0.54080 0.77770 0.17090 0.09600
C 	C 	0.47650 0.80620 0.29786 -0.12200
H 	H 	0.45990 0.80830 0.30690 0.07400
C 	C 	0.47620 0.79950 0.27020 -0.00700
H 	H 	0.45960 0.79760 0.26120 0.03500
C 	C 	0.47730 0.74360 0.36800 0.16000
H 	H 	0.46080 0.73410 0.36730 -0.02500
C 	C 	0.47750 0.77010 0.35960 -0.25600
H 	H 	0.46060 0.77850 0.35680 0.11900
C 	C 	0.54660 0.68520 0.04430 0.48100
C 	C 	0.52210 0.64440 0.41700 -0.41000
H 	H 	0.53900 0.65310 0.41580 0.17900
C 	C 	0.52230 0.61790 0.42700 0.33100
H 	H 	0.53910 0.60900 0.42800 -0.05700
O 	O 	0.52090 0.56820 0.45680 -0.58200
O 	O 	0.47118 0.32316 0.02776 -0.63400
O 	O 	0.52383 0.24767 0.92056 -0.62800
O 	O 	0.55217 0.28932 0.94840 -0.61600
C 	C 	0.52502 0.17014 0.64719 0.08500
C 	C 	0.53518 0.17548 0.62115 -0.10800
H 	H 	0.52800 0.18990 0.61090 0.07000
C 	C 	0.55603 0.15935 0.61043 -0.02200
H 	H 	0.56280 0.16290 0.59300 0.04100
C 	C 	0.56672 0.13788 0.62574 -0.00500
C 	C 	0.55656 0.13253 0.65178 -0.02200
H 	H 	0.56370 0.11820 0.66200 0.04000
C 	C 	0.53571 0.14866 0.66251 -0.10700
H 	H 	0.52890 0.14510 0.67990 0.07000
C 	C 	0.62514 0.09040 0.59065 0.11800
C 	C 	0.61752 0.07251 0.56987 -0.16600
H 	H 	0.59910 0.07030 0.56540 0.09200
C 	C 	0.63740 0.05789 0.55569 0.09500
H 	H 	0.63230 0.04590 0.54180 0.01700
C 	C 	0.66489 0.06115 0.56229 -0.16600
C 	C 	0.67250 0.07904 0.58308 0.10000
H 	H 	0.69090 0.08120 0.58750 0.01500
C 	C 	0.65263 0.09366 0.59726 -0.16900
H 	H 	0.65770 0.10560 0.61120 0.09300
C 	C 	0.60470 0.10680 0.60530 -0.06300
C 	C 	0.52446 0.23390 0.86533 0.10200
H 	H 	0.54110 0.23620 0.87430 0.01400
C 	C 	0.58920 0.12000 0.61610 0.01400
C 	C 	0.52441 0.22640 0.83786 -0.17800
H 	H 	0.54080 0.22230 0.82910 0.09600
C 	C 	0.47650 0.19380 0.70214 -0.12200
H 	H 	0.45990 0.19170 0.69310 0.07400
C 	C 	0.47620 0.20050 0.72980 -0.00700
H 	H 	0.45960 0.20240 0.73880 0.03500
C 	C 	0.47730 0.25640 0.63200 0.16000
H 	H 	0.46080 0.26590 0.63270 -0.02500
C 	C 	0.47750 0.22990 0.64040 -0.25600
H 	H 	0.46060 0.22150 0.64320 0.11900
C 	C 	0.54660 0.31480 0.95570 0.48100
C 	C 	0.52210 0.35560 0.58300 -0.41000
H 	H 	0.53900 0.34690 0.58420 0.17900
C 	C 	0.52230 0.38210 0.57300 0.33100
H 	H 	0.53910 0.39100 0.57200 -0.05700
O 	O 	0.52090 0.43180 0.54320 -0.58200
O 	O 	0.52882 0.32316 0.97224 -0.63400
O 	O 	0.47617 0.24767 0.07944 -0.62800
O 	O 	0.44783 0.28932 0.05160 -0.61600
C 	C 	0.47498 0.17014 0.35281 0.08500
C 	C 	0.46482 0.17548 0.37885 -0.10800
H 	H 	0.47200 0.18990 0.38910 0.07000
C 	C 	0.44397 0.15935 0.38957 -0.02200
H 	H 	0.43720 0.16290 0.40700 0.04100
C 	C 	0.43328 0.13788 0.37426 -0.00500
C 	C 	0.44344 0.13253 0.34822 -0.02200
H 	H 	0.43630 0.11820 0.33800 0.04000
C 	C 	0.46429 0.14866 0.33749 -0.10700
H 	H 	0.47110 0.14510 0.32010 0.07000
C 	C 	0.37486 0.09040 0.40935 0.11800
C 	C 	0.38248 0.07251 0.43013 -0.16600
H 	H 	0.40090 0.07030 0.43460 0.09200
C 	C 	0.36260 0.05789 0.44431 0.09500
H 	H 	0.36770 0.04590 0.45820 0.01700
C 	C 	0.33511 0.06115 0.43771 -0.16600
C 	C 	0.32750 0.07904 0.41692 0.10000
H 	H 	0.30910 0.08120 0.41250 0.01500
C 	C 	0.34737 0.09366 0.40274 -0.16900
H 	H 	0.34230 0.10560 0.38880 0.09300
C 	C 	0.39530 0.10680 0.39470 -0.06300
C 	C 	0.47554 0.23390 0.13467 0.10200
H 	H 	0.45890 0.23620 0.12570 0.01400
C 	C 	0.41080 0.12000 0.38390 0.01400
C 	C 	0.47559 0.22640 0.16214 -0.17800
H 	H 	0.45920 0.22230 0.17090 0.09600
C 	C 	0.52350 0.19380 0.29786 -0.12200
H 	H 	0.54010 0.19170 0.30690 0.07400
C 	C 	0.52380 0.20050 0.27020 -0.00700
H 	H 	0.54040 0.20240 0.26120 0.03500
C 	C 	0.52270 0.25640 0.36800 0.16000
H 	H 	0.53920 0.26590 0.36730 -0.02500
C 	C 	0.52250 0.22990 0.35960 -0.25600
H 	H 	0.53940 0.22150 0.35680 0.11900
C 	C 	0.45340 0.31480 0.04430 0.48100
C 	C 	0.47790 0.35560 0.41700 -0.41000
H 	H 	0.46100 0.34690 0.41580 0.17900
C 	C 	0.47770 0.38210 0.42700 0.33100
H 	H 	0.46090 0.39100 0.42800 -0.05700
O 	O 	0.47910 0.43180 0.45680 -0.58200
O 	O 	0.52882 0.67684 0.02776 -0.63400
O 	O 	0.47617 0.75233 0.92056 -0.62800
O 	O 	0.44783 0.71068 0.94840 -0.61600
C 	C 	0.47498 0.82986 0.64719 0.08500
C 	C 	0.46482 0.82452 0.62115 -0.10800
H 	H 	0.47200 0.81010 0.61090 0.07000
C 	C 	0.44397 0.84065 0.61043 -0.02200
H 	H 	0.43720 0.83710 0.59300 0.04100
C 	C 	0.43328 0.86212 0.62574 -0.00500
C 	C 	0.44344 0.86747 0.65178 -0.02200
H 	H 	0.43630 0.88180 0.66200 0.04000
C 	C 	0.46429 0.85134 0.66251 -0.10700
H 	H 	0.47110 0.85490 0.67990 0.07000
C 	C 	0.37486 0.90960 0.59065 0.11800
C 	C 	0.38248 0.92749 0.56987 -0.16600
H 	H 	0.40090 0.92970 0.56540 0.09200
C 	C 	0.36260 0.94211 0.55569 0.09500
H 	H 	0.36770 0.95410 0.54180 0.01700
C 	C 	0.33511 0.93885 0.56229 -0.16600
C 	C 	0.32750 0.92096 0.58308 0.10000
H 	H 	0.30910 0.91880 0.58750 0.01500
C 	C 	0.34737 0.90634 0.59726 -0.16900
H 	H 	0.34230 0.89440 0.61120 0.09300
C 	C 	0.39530 0.89320 0.60530 -0.06300
C 	C 	0.47554 0.76610 0.86533 0.10200
H 	H 	0.45890 0.76380 0.87430 0.01400
C 	C 	0.41080 0.88000 0.61610 0.01400
C 	C 	0.47559 0.77360 0.83786 -0.17800
H 	H 	0.45920 0.77770 0.82910 0.09600
C 	C 	0.52350 0.80620 0.70214 -0.12200
H 	H 	0.54010 0.80830 0.69310 0.07400
C 	C 	0.52380 0.79950 0.72980 -0.00700
H 	H 	0.54040 0.79760 0.73880 0.03500
C 	C 	0.52270 0.74360 0.63200 0.16000
H 	H 	0.53920 0.73410 0.63270 -0.02500
C 	C 	0.52250 0.77010 0.64040 -0.25600
H 	H 	0.53940 0.77850 0.64320 0.11900
C 	C 	0.45340 0.68520 0.95570 0.48100
C 	C 	0.47790 0.64440 0.58300 -0.41000
H 	H 	0.46100 0.65310 0.58420 0.17900
C 	C 	0.47770 0.61790 0.57300 0.33100
H 	H 	0.46090 0.60900 0.57200 -0.05700
O 	O 	0.47910 0.56820 0.54320 -0.58200
O 	O 	0.97224 0.47118 0.67684 -0.63400
O 	O 	0.07944 0.52383 0.75233 -0.62800
O 	O 	0.05160 0.55217 0.71068 -0.61600
C 	C 	0.35281 0.52502 0.82986 0.08500
C 	C 	0.37885 0.53518 0.82452 -0.10800
H 	H 	0.38910 0.52800 0.81010 0.07000
C 	C 	0.38957 0.55603 0.84065 -0.02200
H 	H 	0.40700 0.56280 0.83710 0.04100
C 	C 	0.37426 0.56672 0.86212 -0.00500
C 	C 	0.34822 0.55656 0.86747 -0.02200
H 	H 	0.33800 0.56370 0.88180 0.04000
C 	C 	0.33749 0.53571 0.85134 -0.10700
H 	H 	0.32010 0.52890 0.85490 0.07000
C 	C 	0.40935 0.62514 0.90960 0.11800
C 	C 	0.43013 0.61752 0.92749 -0.16600
H 	H 	0.43460 0.59910 0.92970 0.09200
C 	C 	0.44431 0.63740 0.94211 0.09500
H 	H 	0.45820 0.63230 0.95410 0.01700
C 	C 	0.43771 0.66489 0.93885 -0.16600
C 	C 	0.41692 0.67250 0.92096 0.10000
H 	H 	0.41250 0.69090 0.91880 0.01500
C 	C 	0.40274 0.65263 0.90634 -0.16900
H 	H 	0.38880 0.65770 0.89440 0.09300
C 	C 	0.39470 0.60470 0.89320 -0.06300
C 	C 	0.13467 0.52446 0.76610 0.10200
H 	H 	0.12570 0.54110 0.76380 0.01400
C 	C 	0.38390 0.58920 0.88000 0.01400
C 	C 	0.16214 0.52441 0.77360 -0.17800
H 	H 	0.17090 0.54080 0.77770 0.09600
C 	C 	0.29786 0.47650 0.80620 -0.12200
H 	H 	0.30690 0.45990 0.80830 0.07400
C 	C 	0.27020 0.47620 0.79950 -0.00700
H 	H 	0.26120 0.45960 0.79760 0.03500
C 	C 	0.36800 0.47730 0.74360 0.16000
H 	H 	0.36730 0.46080 0.73410 -0.02500
C 	C 	0.35960 0.47750 0.77010 -0.25600
H 	H 	0.35680 0.46060 0.77850 0.11900
C 	C 	0.04430 0.54660 0.68520 0.48100
C 	C 	0.41700 0.52210 0.64440 -0.41000
H 	H 	0.41580 0.53900 0.65310 0.17900
C 	C 	0.42700 0.52230 0.61790 0.33100
H 	H 	0.42800 0.53910 0.60900 -0.05700
O 	O 	0.45680 0.52090 0.56820 -0.58200
O 	O 	0.02776 0.47118 0.32316 -0.63400
O 	O 	0.92056 0.52383 0.24767 -0.62800
O 	O 	0.94840 0.55217 0.28932 -0.61600
C 	C 	0.64719 0.52502 0.17014 0.08500
C 	C 	0.62115 0.53518 0.17548 -0.10800
H 	H 	0.61090 0.52800 0.18990 0.07000
C 	C 	0.61043 0.55603 0.15935 -0.02200
H 	H 	0.59300 0.56280 0.16290 0.04100
C 	C 	0.62574 0.56672 0.13788 -0.00500
C 	C 	0.65178 0.55656 0.13253 -0.02200
H 	H 	0.66200 0.56370 0.11820 0.04000
C 	C 	0.66251 0.53571 0.14866 -0.10700
H 	H 	0.67990 0.52890 0.14510 0.07000
C 	C 	0.59065 0.62514 0.09040 0.11800
C 	C 	0.56987 0.61752 0.07251 -0.16600
H 	H 	0.56540 0.59910 0.07030 0.09200
C 	C 	0.55569 0.63740 0.05789 0.09500
H 	H 	0.54180 0.63230 0.04590 0.01700
C 	C 	0.56229 0.66489 0.06115 -0.16600
C 	C 	0.58308 0.67250 0.07904 0.10000
H 	H 	0.58750 0.69090 0.08120 0.01500
C 	C 	0.59726 0.65263 0.09366 -0.16900
H 	H 	0.61120 0.65770 0.10560 0.09300
C 	C 	0.60530 0.60470 0.10680 -0.06300
C 	C 	0.86533 0.52446 0.23390 0.10200
H 	H 	0.87430 0.54110 0.23620 0.01400
C 	C 	0.61610 0.58920 0.12000 0.01400
C 	C 	0.83786 0.52441 0.22640 -0.17800
H 	H 	0.82910 0.54080 0.22230 0.09600
C 	C 	0.70214 0.47650 0.19380 -0.12200
H 	H 	0.69310 0.45990 0.19170 0.07400
C 	C 	0.72980 0.47620 0.20050 -0.00700
H 	H 	0.73880 0.45960 0.20240 0.03500
C 	C 	0.63200 0.47730 0.25640 0.16000
H 	H 	0.63270 0.46080 0.26590 -0.02500
C 	C 	0.64040 0.47750 0.22990 -0.25600
H 	H 	0.64320 0.46060 0.22150 0.11900
C 	C 	0.95570 0.54660 0.31480 0.48100
C 	C 	0.58300 0.52210 0.35560 -0.41000
H 	H 	0.58420 0.53900 0.34690 0.17900
C 	C 	0.57300 0.52230 0.38210 0.33100
H 	H 	0.57200 0.53910 0.39100 -0.05700
O 	O 	0.54320 0.52090 0.43180 -0.58200
O 	O 	0.97224 0.52882 0.32316 -0.63400
O 	O 	0.07944 0.47617 0.24767 -0.62800
O 	O 	0.05160 0.44783 0.28932 -0.61600
C 	C 	0.35281 0.47498 0.17014 0.08500
C 	C 	0.37885 0.46482 0.17548 -0.10800
H 	H 	0.38910 0.47200 0.18990 0.07000
C 	C 	0.38957 0.44397 0.15935 -0.02200
H 	H 	0.40700 0.43720 0.16290 0.04100
C 	C 	0.37426 0.43328 0.13788 -0.00500
C 	C 	0.34822 0.44344 0.13253 -0.02200
H 	H 	0.33800 0.43630 0.11820 0.04000
C 	C 	0.33749 0.46429 0.14866 -0.10700
H 	H 	0.32010 0.47110 0.14510 0.07000
C 	C 	0.40935 0.37486 0.09040 0.11800
C 	C 	0.43013 0.38248 0.07251 -0.16600
H 	H 	0.43460 0.40090 0.07030 0.09200
C 	C 	0.44431 0.36260 0.05789 0.09500
H 	H 	0.45820 0.36770 0.04590 0.01700
C 	C 	0.43771 0.33511 0.06115 -0.16600
C 	C 	0.41692 0.32750 0.07904 0.10000
H 	H 	0.41250 0.30910 0.08120 0.01500
C 	C 	0.40274 0.34737 0.09366 -0.16900
H 	H 	0.38880 0.34230 0.10560 0.09300
C 	C 	0.39470 0.39530 0.10680 -0.06300
C 	C 	0.13467 0.47554 0.23390 0.10200
H 	H 	0.12570 0.45890 0.23620 0.01400
C 	C 	0.38390 0.41080 0.12000 0.01400
C 	C 	0.16214 0.47559 0.22640 -0.17800
H 	H 	0.17090 0.45920 0.22230 0.09600
C 	C 	0.29786 0.52350 0.19380 -0.12200
H 	H 	0.30690 0.54010 0.19170 0.07400
C 	C 	0.27020 0.52380 0.20050 -0.00700
H 	H 	0.26120 0.54040 0.20240 0.03500
C 	C 	0.36800 0.52270 0.25640 0.16000
H 	H 	0.36730 0.53920 0.26590 -0.02500
C 	C 	0.35960 0.52250 0.22990 -0.25600
H 	H 	0.35680 0.53940 0.22150 0.11900
C 	C 	0.04430 0.45340 0.31480 0.48100
C 	C 	0.41700 0.47790 0.35560 -0.41000
H 	H 	0.41580 0.46100 0.34690 0.17900
C 	C 	0.42700 0.47770 0.38210 0.33100
H 	H 	0.42800 0.46090 0.39100 -0.05700
O 	O 	0.45680 0.47910 0.43180 -0.58200
O 	O 	0.02776 0.52882 0.67684 -0.63400
O 	O 	0.92056 0.47617 0.75233 -0.62800
O 	O 	0.94840 0.44783 0.71068 -0.61600
C 	C 	0.64719 0.47498 0.82986 0.08500
C 	C 	0.62115 0.46482 0.82452 -0.10800
H 	H 	0.61090 0.47200 0.81010 0.07000
C 	C 	0.61043 0.44397 0.84065 -0.02200
H 	H 	0.59300 0.43720 0.83710 0.04100
C 	C 	0.62574 0.43328 0.86212 -0.00500
C 	C 	0.65178 0.44344 0.86747 -0.02200
H 	H 	0.66200 0.43630 0.88180 0.04000
C 	C 	0.66251 0.46429 0.85134 -0.10700
H 	H 	0.67990 0.47110 0.85490 0.07000
C 	C 	0.59065 0.37486 0.90960 0.11800
C 	C 	0.56987 0.38248 0.92749 -0.16600
H 	H 	0.56540 0.40090 0.92970 0.09200
C 	C 	0.55569 0.36260 0.94211 0.09500
H 	H 	0.54180 0.36770 0.95410 0.01700
C 	C 	0.56229 0.33511 0.93885 -0.16600
C 	C 	0.58308 0.32750 0.92096 0.10000
H 	H 	0.58750 0.30910 0.91880 0.01500
C 	C 	0.59726 0.34737 0.90634 -0.16900
H 	H 	0.61120 0.34230 0.89440 0.09300
C 	C 	0.60530 0.39530 0.89320 -0.06300
C 	C 	0.86533 0.47554 0.76610 0.10200
H 	H 	0.87430 0.45890 0.76380 0.01400
C 	C 	0.61610 0.41080 0.88000 0.01400
C 	C 	0.83786 0.47559 0.77360 -0.17800
H 	H 	0.82910 0.45920 0.77770 0.09600
C 	C 	0.70214 0.52350 0.80620 -0.12200
H 	H 	0.69310 0.54010 0.80830 0.07400
C 	C 	0.72980 0.52380 0.79950 -0.00700
H 	H 	0.73880 0.54040 0.79760 0.03500
C 	C 	0.63200 0.52270 0.74360 0.16000
H 	H 	0.63270 0.53920 0.73410 -0.02500
C 	C 	0.64040 0.52250 0.77010 -0.25600
H 	H 	0.64320 0.53940 0.77850 0.11900
C 	C 	0.95570 0.45340 0.68520 0.48100
C 	C 	0.58300 0.47790 0.64440 -0.41000
H 	H 	0.58420 0.46100 0.65310 0.17900
C 	C 	0.57300 0.47770 0.61790 0.33100
H 	H 	0.57200 0.46090 0.60900 -0.05700
O 	O 	0.54320 0.47910 0.56820 -0.58200
O 	O 	0.47224 0.17684 0.02882 -0.63400
O 	O 	0.57944 0.25233 0.97617 -0.62800
O 	O 	0.55160 0.21068 0.94783 -0.61600
C 	C 	0.85281 0.32986 0.97498 0.08500
C 	C 	0.87885 0.32452 0.96482 -0.10800
H 	H 	0.88910 0.31010 0.97200 0.07000
C 	C 	0.88957 0.34065 0.94397 -0.02200
H 	H 	0.90700 0.33710 0.93720 0.04100
C 	C 	0.87426 0.36212 0.93328 -0.00500
C 	C 	0.84822 0.36747 0.94344 -0.02200
H 	H 	0.83800 0.38180 0.93630 0.04000
C 	C 	0.83749 0.35134 0.96429 -0.10700
H 	H 	0.82010 0.35490 0.97110 0.07000
C 	C 	0.90935 0.40960 0.87486 0.11800
C 	C 	0.93013 0.42749 0.88248 -0.16600
H 	H 	0.93460 0.42970 0.90090 0.09200
C 	C 	0.94431 0.44211 0.86260 0.09500
H 	H 	0.95820 0.45410 0.86770 0.01700
C 	C 	0.93771 0.43885 0.83511 -0.16600
C 	C 	0.91692 0.42096 0.82750 0.10000
H 	H 	0.91250 0.41880 0.80910 0.01500
C 	C 	0.90274 0.40634 0.84737 -0.16900
H 	H 	0.88880 0.39440 0.84230 0.09300
C 	C 	0.89470 0.39320 0.89530 -0.06300
C 	C 	0.63467 0.26610 0.97554 0.10200
H 	H 	0.62570 0.26380 0.95890 0.01400
C 	C 	0.88390 0.38000 0.91080 0.01400
C 	C 	0.66214 0.27360 0.97559 -0.17800
H 	H 	0.67090 0.27770 0.95920 0.09600
C 	C 	0.79786 0.30620 0.02350 -0.12200
H 	H 	0.80690 0.30830 0.04010 0.07400
C 	C 	0.77020 0.29950 0.02380 -0.00700
H 	H 	0.76120 0.29760 0.04040 0.03500
C 	C 	0.86800 0.24360 0.02270 0.16000
H 	H 	0.86730 0.23410 0.03920 -0.02500
C 	C 	0.85960 0.27010 0.02250 -0.25600
H 	H 	0.85680 0.27850 0.03940 0.11900
C 	C 	0.54430 0.18520 0.95340 0.48100
C 	C 	0.91700 0.14440 0.97790 -0.41000
H 	H 	0.91580 0.15310 0.96100 0.17900
C 	C 	0.92700 0.11790 0.97770 0.33100
H 	H 	0.92800 0.10900 0.96090 -0.05700
O 	O 	0.95680 0.06820 0.97910 -0.58200
O 	O 	0.52776 0.82316 0.02882 -0.63400
O 	O 	0.42056 0.74767 0.97617 -0.62800
O 	O 	0.44840 0.78932 0.94783 -0.61600
C 	C 	0.14719 0.67014 0.97498 0.08500
C 	C 	0.12115 0.67548 0.96482 -0.10800
H 	H 	0.11090 0.68990 0.97200 0.07000
C 	C 	0.11043 0.65935 0.94397 -0.02200
H 	H 	0.09300 0.66290 0.93720 0.04100
C 	C 	0.12574 0.63788 0.93328 -0.00500
C 	C 	0.15178 0.63253 0.94344 -0.02200
H 	H 	0.16200 0.61820 0.93630 0.04000
C 	C 	0.16251 0.64866 0.96429 -0.10700
H 	H 	0.17990 0.64510 0.97110 0.07000
C 	C 	0.09065 0.59040 0.87486 0.11800
C 	C 	0.06987 0.57251 0.88248 -0.16600
H 	H 	0.06540 0.57030 0.90090 0.09200
C 	C 	0.05569 0.55789 0.86260 0.09500
H 	H 	0.04180 0.54590 0.86770 0.01700
C 	C 	0.06229 0.56115 0.83511 -0.16600
C 	C 	0.08308 0.57904 0.82750 0.10000
H 	H 	0.08750 0.58120 0.80910 0.01500
C 	C 	0.09726 0.59366 0.84737 -0.16900
H 	H 	0.11120 0.60560 0.84230 0.09300
C 	C 	0.10530 0.60680 0.89530 -0.06300
C 	C 	0.36533 0.73390 0.97554 0.10200
H 	H 	0.37430 0.73620 0.95890 0.01400
C 	C 	0.11610 0.62000 0.91080 0.01400
C 	C 	0.33786 0.72640 0.97559 -0.17800
H 	H 	0.32910 0.72230 0.95920 0.09600
C 	C 	0.20214 0.69380 0.02350 -0.12200
H 	H 	0.19310 0.69170 0.04010 0.07400
C 	C 	0.22980 0.70050 0.02380 -0.00700
H 	H 	0.23880 0.70240 0.04040 0.03500
C 	C 	0.13200 0.75640 0.02270 0.16000
H 	H 	0.13270 0.76590 0.03920 -0.02500
C 	C 	0.14040 0.72990 0.02250 -0.25600
H 	H 	0.14320 0.72150 0.03940 0.11900
C 	C 	0.45570 0.81480 0.95340 0.48100
C 	C 	0.08300 0.85560 0.97790 -0.41000
H 	H 	0.08420 0.84690 0.96100 0.17900
C 	C 	0.07300 0.88210 0.97770 0.33100
H 	H 	0.07200 0.89100 0.96090 -0.05700
O 	O 	0.04320 0.93180 0.97910 -0.58200
O 	O 	0.47224 0.82316 0.97118 -0.63400
O 	O 	0.57944 0.74767 0.02383 -0.62800
O 	O 	0.55160 0.78932 0.05217 -0.61600
C 	C 	0.85281 0.67014 0.02502 0.08500
C 	C 	0.87885 0.67548 0.03518 -0.10800
H 	H 	0.88910 0.68990 0.02800 0.07000
C 	C 	0.88957 0.65935 0.05603 -0.02200
H 	H 	0.90700 0.66290 0.06280 0.04100
C 	C 	0.87426 0.63788 0.06672 -0.00500
C 	C 	0.84822 0.63253 0.05656 -0.02200
H 	H 	0.83800 0.61820 0.06370 0.04000
C 	C 	0.83749 0.64866 0.03571 -0.10700
H 	H 	0.82010 0.64510 0.02890 0.07000
C 	C 	0.90935 0.59040 0.12514 0.11800
C 	C 	0.93013 0.57251 0.11752 -0.16600
H 	H 	0.93460 0.57030 0.09910 0.09200
C 	C 	0.94431 0.55789 0.13740 0.09500
H 	H 	0.95820 0.54590 0.13230 0.01700
C 	C 	0.93771 0.56115 0.16489 -0.16600
C 	C 	0.91692 0.57904 0.17250 0.10000
H 	H 	0.91250 0.58120 0.19090 0.01500
C 	C 	0.90274 0.59366 0.15263 -0.16900
H 	H 	0.88880 0.60560 0.15770 0.09300
C 	C 	0.89470 0.60680 0.10470 -0.06300
C 	C 	0.63467 0.73390 0.02446 0.10300
H 	H 	0.62570 0.73620 0.04110 0.01400
C 	C 	0.88390 0.62000 0.08920 0.01400
C 	C 	0.66214 0.72640 0.02441 -0.17800
H 	H 	0.67090 0.72230 0.04080 0.09600
C 	C 	0.79786 0.69380 0.97650 -0.12200
H 	H 	0.80690 0.69170 0.95990 0.07400
C 	C 	0.77020 0.70050 0.97620 -0.00700
H 	H 	0.76120 0.70240 0.95960 0.03500
C 	C 	0.86800 0.75640 0.97730 0.16000
H 	H 	0.86730 0.76590 0.96080 -0.02500
C 	C 	0.85960 0.72990 0.97750 -0.25600
H 	H 	0.85680 0.72150 0.96060 0.11900
C 	C 	0.54430 0.81480 0.04660 0.48100
C 	C 	0.91700 0.85560 0.02210 -0.41000
H 	H 	0.91580 0.84690 0.03900 0.17900
C 	C 	0.92700 0.88210 0.02230 0.33100
H 	H 	0.92800 0.89100 0.03910 -0.05700
O 	O 	0.95680 0.93180 0.02090 -0.58200
O 	O 	0.52776 0.17684 0.97118 -0.63400
O 	O 	0.42056 0.25233 0.02383 -0.62800
O 	O 	0.44840 0.21068 0.05217 -0.61600
C 	C 	0.14719 0.32986 0.02502 0.08500
C 	C 	0.12115 0.32452 0.03518 -0.10800
H 	H 	0.11090 0.31010 0.02800 0.07000
C 	C 	0.11043 0.34065 0.05603 -0.02200
H 	H 	0.09300 0.33710 0.06280 0.04100
C 	C 	0.12574 0.36212 0.06672 -0.00500
C 	C 	0.15178 0.36747 0.05656 -0.02200
H 	H 	0.16200 0.38180 0.06370 0.04000
C 	C 	0.16251 0.35134 0.03571 -0.10700
H 	H 	0.17990 0.35490 0.02890 0.07000
C 	C 	0.09065 0.40960 0.12514 0.11800
C 	C 	0.06987 0.42749 0.11752 -0.16600
H 	H 	0.06540 0.42970 0.09910 0.09200
C 	C 	0.05569 0.44211 0.13740 0.09500
H 	H 	0.04180 0.45410 0.13230 0.01700
C 	C 	0.06229 0.43885 0.16489 -0.16600
C 	C 	0.08308 0.42096 0.17250 0.10000
H 	H 	0.08750 0.41880 0.19090 0.01500
C 	C 	0.09726 0.40634 0.15263 -0.16900
H 	H 	0.11120 0.39440 0.15770 0.09300
C 	C 	0.10530 0.39320 0.10470 -0.06300
C 	C 	0.36533 0.26610 0.02446 0.10300
H 	H 	0.37430 0.26380 0.04110 0.01400
C 	C 	0.11610 0.38000 0.08920 0.01400
C 	C 	0.33786 0.27360 0.02441 -0.17800
H 	H 	0.32910 0.27770 0.04080 0.09600
C 	C 	0.20214 0.30620 0.97650 -0.12200
H 	H 	0.19310 0.30830 0.95990 0.07400
C 	C 	0.22980 0.29950 0.97620 -0.00700
H 	H 	0.23880 0.29760 0.95960 0.03500
C 	C 	0.13200 0.24360 0.97730 0.16000
H 	H 	0.13270 0.23410 0.96080 -0.02500
C 	C 	0.14040 0.27010 0.97750 -0.25600
H 	H 	0.14320 0.27850 0.96060 0.11900
C 	C 	0.45570 0.18520 0.04660 0.48100
C 	C 	0.08300 0.14440 0.02210 -0.41000
H 	H 	0.08420 0.15310 0.03900 0.17900
C 	C 	0.07300 0.11790 0.02230 0.33100
H 	H 	0.07200 0.10900 0.03910 -0.05700
O 	O 	0.04320 0.06820 0.02090 -0.58200
O 	O 	0.17684 0.97118 0.52776 -0.63400
O 	O 	0.25233 0.02383 0.42056 -0.62800
O 	O 	0.21068 0.05217 0.44840 -0.61600
C 	C 	0.32986 0.02502 0.14719 0.08500
C 	C 	0.32452 0.03518 0.12115 -0.10800
H 	H 	0.31010 0.02800 0.11090 0.07000
C 	C 	0.34065 0.05603 0.11043 -0.02200
H 	H 	0.33710 0.06280 0.09300 0.04100
C 	C 	0.36212 0.06672 0.12574 -0.00500
C 	C 	0.36747 0.05656 0.15178 -0.02200
H 	H 	0.38180 0.06370 0.16200 0.04000
C 	C 	0.35134 0.03571 0.16251 -0.10700
H 	H 	0.35490 0.02890 0.17990 0.07000
C 	C 	0.40960 0.12514 0.09065 0.11800
C 	C 	0.42749 0.11752 0.06987 -0.16600
H 	H 	0.42970 0.09910 0.06540 0.09200
C 	C 	0.44211 0.13740 0.05569 0.09500
H 	H 	0.45410 0.13230 0.04180 0.01700
C 	C 	0.43885 0.16489 0.06229 -0.16600
C 	C 	0.42096 0.17250 0.08308 0.10000
H 	H 	0.41880 0.19090 0.08750 0.01500
C 	C 	0.40634 0.15263 0.09726 -0.16900
H 	H 	0.39440 0.15770 0.11120 0.09300
C 	C 	0.39320 0.10470 0.10530 -0.06300
C 	C 	0.26610 0.02446 0.36533 0.10300
H 	H 	0.26380 0.04110 0.37430 0.01400
C 	C 	0.38000 0.08920 0.11610 0.01400
C 	C 	0.27360 0.02441 0.33786 -0.17800
H 	H 	0.27770 0.04080 0.32910 0.09600
C 	C 	0.30620 0.97650 0.20214 -0.12200
H 	H 	0.30830 0.95990 0.19310 0.07400
C 	C 	0.29950 0.97620 0.22980 -0.00700
H 	H 	0.29760 0.95960 0.23880 0.03500
C 	C 	0.24360 0.97730 0.13200 0.16000
H 	H 	0.23410 0.96080 0.13270 -0.02500
C 	C 	0.27010 0.97750 0.14040 -0.25600
H 	H 	0.27850 0.96060 0.14320 0.11900
C 	C 	0.18520 0.04660 0.45570 0.48100
C 	C 	0.14440 0.02210 0.08300 -0.41000
H 	H 	0.15310 0.03900 0.08420 0.17900
C 	C 	0.11790 0.02230 0.07300 0.33100
H 	H 	0.10900 0.03910 0.07200 -0.05700
O 	O 	0.06820 0.02090 0.04320 -0.58200
O 	O 	0.82316 0.97118 0.47224 -0.63400
O 	O 	0.74767 0.02383 0.57944 -0.62800
O 	O 	0.78932 0.05217 0.55160 -0.61600
C 	C 	0.67014 0.02502 0.85281 0.08500
C 	C 	0.67548 0.03518 0.87885 -0.10800
H 	H 	0.68990 0.02800 0.88910 0.07000
C 	C 	0.65935 0.05603 0.88957 -0.02200
H 	H 	0.66290 0.06280 0.90700 0.04100
C 	C 	0.63788 0.06672 0.87426 -0.00500
C 	C 	0.63253 0.05656 0.84822 -0.02200
H 	H 	0.61820 0.06370 0.83800 0.04000
C 	C 	0.64866 0.03571 0.83749 -0.10700
H 	H 	0.64510 0.02890 0.82010 0.07000
C 	C 	0.59040 0.12514 0.90935 0.11800
C 	C 	0.57251 0.11752 0.93013 -0.16600
H 	H 	0.57030 0.09910 0.93460 0.09200
C 	C 	0.55789 0.13740 0.94431 0.09500
H 	H 	0.54590 0.13230 0.95820 0.01700
C 	C 	0.56115 0.16489 0.93771 -0.16600
C 	C 	0.57904 0.17250 0.91692 0.10000
H 	H 	0.58120 0.19090 0.91250 0.01500
C 	C 	0.59366 0.15263 0.90274 -0.16900
H 	H 	0.60560 0.15770 0.88880 0.09300
C 	C 	0.60680 0.10470 0.89470 -0.06300
C 	C 	0.73390 0.02446 0.63467 0.10300
H 	H 	0.73620 0.04110 0.62570 0.01400
C 	C 	0.62000 0.08920 0.88390 0.01400
C 	C 	0.72640 0.02441 0.66214 -0.17800
H 	H 	0.72230 0.04080 0.67090 0.09600
C 	C 	0.69380 0.97650 0.79786 -0.12200
H 	H 	0.69170 0.95990 0.80690 0.07400
C 	C 	0.70050 0.97620 0.77020 -0.00700
H 	H 	0.70240 0.95960 0.76120 0.03500
C 	C 	0.75640 0.97730 0.86800 0.16000
H 	H 	0.76590 0.96080 0.86730 -0.02500
C 	C 	0.72990 0.97750 0.85960 -0.25600
H 	H 	0.72150 0.96060 0.85680 0.11900
C 	C 	0.81480 0.04660 0.54430 0.48100
C 	C 	0.85560 0.02210 0.91700 -0.41000
H 	H 	0.84690 0.03900 0.91580 0.17900
C 	C 	0.88210 0.02230 0.92700 0.33100
H 	H 	0.89100 0.03910 0.92800 -0.05700
O 	O 	0.93180 0.02090 0.95680 -0.58200
O 	O 	0.82316 0.02882 0.52776 -0.63400
O 	O 	0.74767 0.97617 0.42056 -0.62800
O 	O 	0.78932 0.94783 0.44840 -0.61600
C 	C 	0.67014 0.97498 0.14719 0.08500
C 	C 	0.67548 0.96482 0.12115 -0.10800
H 	H 	0.68990 0.97200 0.11090 0.07000
C 	C 	0.65935 0.94397 0.11043 -0.02200
H 	H 	0.66290 0.93720 0.09300 0.04100
C 	C 	0.63788 0.93328 0.12574 -0.00500
C 	C 	0.63253 0.94344 0.15178 -0.02200
H 	H 	0.61820 0.93630 0.16200 0.04000
C 	C 	0.64866 0.96429 0.16251 -0.10700
H 	H 	0.64510 0.97110 0.17990 0.07000
C 	C 	0.59040 0.87486 0.09065 0.11800
C 	C 	0.57251 0.88248 0.06987 -0.16600
H 	H 	0.57030 0.90090 0.06540 0.09200
C 	C 	0.55789 0.86260 0.05569 0.09500
H 	H 	0.54590 0.86770 0.04180 0.01700
C 	C 	0.56115 0.83511 0.06229 -0.16600
C 	C 	0.57904 0.82750 0.08308 0.10000
H 	H 	0.58120 0.80910 0.08750 0.01500
C 	C 	0.59366 0.84737 0.09726 -0.16900
H 	H 	0.60560 0.84230 0.11120 0.09300
C 	C 	0.60680 0.89530 0.10530 -0.06300
C 	C 	0.73390 0.97554 0.36533 0.10200
H 	H 	0.73620 0.95890 0.37430 0.01400
C 	C 	0.62000 0.91080 0.11610 0.01400
C 	C 	0.72640 0.97559 0.33786 -0.17800
H 	H 	0.72230 0.95920 0.32910 0.09600
C 	C 	0.69380 0.02350 0.20214 -0.12200
H 	H 	0.69170 0.04010 0.19310 0.07400
C 	C 	0.70050 0.02380 0.22980 -0.00700
H 	H 	0.70240 0.04040 0.23880 0.03500
C 	C 	0.75640 0.02270 0.13200 0.16000
H 	H 	0.76590 0.03920 0.13270 -0.02500
C 	C 	0.72990 0.02250 0.14040 -0.25600
H 	H 	0.72150 0.03940 0.14320 0.11900
C 	C 	0.81480 0.95340 0.45570 0.48100
C 	C 	0.85560 0.97790 0.08300 -0.41000
H 	H 	0.84690 0.96100 0.08420 0.17900
C 	C 	0.88210 0.97770 0.07300 0.33100
H 	H 	0.89100 0.96090 0.07200 -0.05700
O 	O 	0.93180 0.97910 0.04320 -0.58200
O 	O 	0.17684 0.02882 0.47224 -0.63400
O 	O 	0.25233 0.97617 0.57944 -0.62800
O 	O 	0.21068 0.94783 0.55160 -0.61600
C 	C 	0.32986 0.97498 0.85281 0.08500
C 	C 	0.32452 0.96482 0.87885 -0.10800
H 	H 	0.31010 0.97200 0.88910 0.07000
C 	C 	0.34065 0.94397 0.88957 -0.02200
H 	H 	0.33710 0.93720 0.90700 0.04100
C 	C 	0.36212 0.93328 0.87426 -0.00500
C 	C 	0.36747 0.94344 0.84822 -0.02200
H 	H 	0.38180 0.93630 0.83800 0.04000
C 	C 	0.35134 0.96429 0.83749 -0.10700
H 	H 	0.35490 0.97110 0.82010 0.07000
C 	C 	0.40960 0.87486 0.90935 0.11800
C 	C 	0.42749 0.88248 0.93013 -0.16600
H 	H 	0.42970 0.90090 0.93460 0.09200
C 	C 	0.44211 0.86260 0.94431 0.09500
H 	H 	0.45410 0.86770 0.95820 0.01700
C 	C 	0.43885 0.83511 0.93771 -0.16600
C 	C 	0.42096 0.82750 0.91692 0.10000
H 	H 	0.41880 0.80910 0.91250 0.01500
C 	C 	0.40634 0.84737 0.90274 -0.16900
H 	H 	0.39440 0.84230 0.88880 0.09300
C 	C 	0.39320 0.89530 0.89470 -0.06300
C 	C 	0.26610 0.97554 0.63467 0.10200
H 	H 	0.26380 0.95890 0.62570 0.01400
C 	C 	0.38000 0.91080 0.88390 0.01400
C 	C 	0.27360 0.97559 0.66214 -0.17800
H 	H 	0.27770 0.95920 0.67090 0.09600
C 	C 	0.30620 0.02350 0.79786 -0.12200
H 	H 	0.30830 0.04010 0.80690 0.07400
C 	C 	0.29950 0.02380 0.77020 -0.00700
H 	H 	0.29760 0.04040 0.76120 0.03500
C 	C 	0.24360 0.02270 0.86800 0.16000
H 	H 	0.23410 0.03920 0.86730 -0.02500
C 	C 	0.27010 0.02250 0.85960 -0.25600
H 	H 	0.27850 0.03940 0.85680 0.11900
C 	C 	0.18520 0.95340 0.54430 0.48100
C 	C 	0.14440 0.97790 0.91700 -0.41000
H 	H 	0.15310 0.96100 0.91580 0.17900
C 	C 	0.11790 0.97770 0.92700 0.33100
H 	H 	0.10900 0.96090 0.92800 -0.05700
O 	O 	0.06820 0.97910 0.95680 -0.58200
O 	O 	0.97118 0.47224 0.82316 -0.63400
O 	O 	0.02383 0.57944 0.74767 -0.62800
O 	O 	0.05217 0.55160 0.78932 -0.61600
C 	C 	0.02502 0.85281 0.67014 0.08500
C 	C 	0.03518 0.87885 0.67548 -0.10800
H 	H 	0.02800 0.88910 0.68990 0.07000
C 	C 	0.05603 0.88957 0.65935 -0.02200
H 	H 	0.06280 0.90700 0.66290 0.04100
C 	C 	0.06672 0.87426 0.63788 -0.00500
C 	C 	0.05656 0.84822 0.63253 -0.02200
H 	H 	0.06370 0.83800 0.61820 0.04000
C 	C 	0.03571 0.83749 0.64866 -0.10700
H 	H 	0.02890 0.82010 0.64510 0.07000
C 	C 	0.12514 0.90935 0.59040 0.11800
C 	C 	0.11752 0.93013 0.57251 -0.16600
H 	H 	0.09910 0.93460 0.57030 0.09200
C 	C 	0.13740 0.94431 0.55789 0.09500
H 	H 	0.13230 0.95820 0.54590 0.01700
C 	C 	0.16489 0.93771 0.56115 -0.16600
C 	C 	0.17250 0.91692 0.57904 0.10000
H 	H 	0.19090 0.91250 0.58120 0.01500
C 	C 	0.15263 0.90274 0.59366 -0.16900
H 	H 	0.15770 0.88880 0.60560 0.09300
C 	C 	0.10470 0.89470 0.60680 -0.06300
C 	C 	0.02446 0.63467 0.73390 0.10300
H 	H 	0.04110 0.62570 0.73620 0.01400
C 	C 	0.08920 0.88390 0.62000 0.01400
C 	C 	0.02441 0.66214 0.72640 -0.17800
H 	H 	0.04080 0.67090 0.72230 0.09600
C 	C 	0.97650 0.79786 0.69380 -0.12200
H 	H 	0.95990 0.80690 0.69170 0.07400
C 	C 	0.97620 0.77020 0.70050 -0.00700
H 	H 	0.95960 0.76120 0.70240 0.03500
C 	C 	0.97730 0.86800 0.75640 0.16000
H 	H 	0.96080 0.86730 0.76590 -0.02500
C 	C 	0.97750 0.85960 0.72990 -0.25600
H 	H 	0.96060 0.85680 0.72150 0.11900
C 	C 	0.04660 0.54430 0.81480 0.48100
C 	C 	0.02210 0.91700 0.85560 -0.41000
H 	H 	0.03900 0.91580 0.84690 0.17900
C 	C 	0.02230 0.92700 0.88210 0.33100
H 	H 	0.03910 0.92800 0.89100 -0.05700
O 	O 	0.02090 0.95680 0.93180 -0.58200
O 	O 	0.97118 0.52776 0.17684 -0.63400
O 	O 	0.02383 0.42056 0.25233 -0.62800
O 	O 	0.05217 0.44840 0.21068 -0.61600
C 	C 	0.02502 0.14719 0.32986 0.08500
C 	C 	0.03518 0.12115 0.32452 -0.10800
H 	H 	0.02800 0.11090 0.31010 0.07000
C 	C 	0.05603 0.11043 0.34065 -0.02200
H 	H 	0.06280 0.09300 0.33710 0.04100
C 	C 	0.06672 0.12574 0.36212 -0.00500
C 	C 	0.05656 0.15178 0.36747 -0.02200
H 	H 	0.06370 0.16200 0.38180 0.04000
C 	C 	0.03571 0.16251 0.35134 -0.10700
H 	H 	0.02890 0.17990 0.35490 0.07000
C 	C 	0.12514 0.09065 0.40960 0.11800
C 	C 	0.11752 0.06987 0.42749 -0.16600
H 	H 	0.09910 0.06540 0.42970 0.09200
C 	C 	0.13740 0.05569 0.44211 0.09500
H 	H 	0.13230 0.04180 0.45410 0.01700
C 	C 	0.16489 0.06229 0.43885 -0.16600
C 	C 	0.17250 0.08308 0.42096 0.10000
H 	H 	0.19090 0.08750 0.41880 0.01500
C 	C 	0.15263 0.09726 0.40634 -0.16900
H 	H 	0.15770 0.11120 0.39440 0.09300
C 	C 	0.10470 0.10530 0.39320 -0.06300
C 	C 	0.02446 0.36533 0.26610 0.10300
H 	H 	0.04110 0.37430 0.26380 0.01400
C 	C 	0.08920 0.11610 0.38000 0.01400
C 	C 	0.02441 0.33786 0.27360 -0.17800
H 	H 	0.04080 0.32910 0.27770 0.09600
C 	C 	0.97650 0.20214 0.30620 -0.12200
H 	H 	0.95990 0.19310 0.30830 0.07400
C 	C 	0.97620 0.22980 0.29950 -0.00700
H 	H 	0.95960 0.23880 0.29760 0.03500
C 	C 	0.97730 0.13200 0.24360 0.16000
H 	H 	0.96080 0.13270 0.23410 -0.02500
C 	C 	0.97750 0.14040 0.27010 -0.25600
H 	H 	0.96060 0.14320 0.27850 0.11900
C 	C 	0.04660 0.45570 0.18520 0.48100
C 	C 	0.02210 0.08300 0.14440 -0.41000
H 	H 	0.03900 0.08420 0.15310 0.17900
C 	C 	0.02230 0.07300 0.11790 0.33100
H 	H 	0.03910 0.07200 0.10900 -0.05700
O 	O 	0.02090 0.04320 0.06820 -0.58200
O 	O 	0.02882 0.47224 0.17684 -0.63400
O 	O 	0.97617 0.57944 0.25233 -0.62800
O 	O 	0.94783 0.55160 0.21068 -0.61600
C 	C 	0.97498 0.85281 0.32986 0.08500
C 	C 	0.96482 0.87885 0.32452 -0.10800
H 	H 	0.97200 0.88910 0.31010 0.07000
C 	C 	0.94397 0.88957 0.34065 -0.02200
H 	H 	0.93720 0.90700 0.33710 0.04100
C 	C 	0.93328 0.87426 0.36212 -0.00500
C 	C 	0.94344 0.84822 0.36747 -0.02200
H 	H 	0.93630 0.83800 0.38180 0.04000
C 	C 	0.96429 0.83749 0.35134 -0.10700
H 	H 	0.97110 0.82010 0.35490 0.07000
C 	C 	0.87486 0.90935 0.40960 0.11800
C 	C 	0.88248 0.93013 0.42749 -0.16600
H 	H 	0.90090 0.93460 0.42970 0.09200
C 	C 	0.86260 0.94431 0.44211 0.09500
H 	H 	0.86770 0.95820 0.45410 0.01700
C 	C 	0.83511 0.93771 0.43885 -0.16600
C 	C 	0.82750 0.91692 0.42096 0.10000
H 	H 	0.80910 0.91250 0.41880 0.01500
C 	C 	0.84737 0.90274 0.40634 -0.16900
H 	H 	0.84230 0.88880 0.39440 0.09300
C 	C 	0.89530 0.89470 0.39320 -0.06300
C 	C 	0.97554 0.63467 0.26610 0.10200
H 	H 	0.95890 0.62570 0.26380 0.01400
C 	C 	0.91080 0.88390 0.38000 0.01400
C 	C 	0.97559 0.66214 0.27360 -0.17800
H 	H 	0.95920 0.67090 0.27770 0.09600
C 	C 	0.02350 0.79786 0.30620 -0.12200
H 	H 	0.04010 0.80690 0.30830 0.07400
C 	C 	0.02380 0.77020 0.29950 -0.00700
H 	H 	0.04040 0.76120 0.29760 0.03500
C 	C 	0.02270 0.86800 0.24360 0.16000
H 	H 	0.03920 0.86730 0.23410 -0.02500
C 	C 	0.02250 0.85960 0.27010 -0.25600
H 	H 	0.03940 0.85680 0.27850 0.11900
C 	C 	0.95340 0.54430 0.18520 0.48100
C 	C 	0.97790 0.91700 0.14440 -0.41000
H 	H 	0.96100 0.91580 0.15310 0.17900
C 	C 	0.97770 0.92700 0.11790 0.33100
H 	H 	0.96090 0.92800 0.10900 -0.05700
O 	O 	0.97910 0.95680 0.06820 -0.58200
O 	O 	0.02882 0.52776 0.82316 -0.63400
O 	O 	0.97617 0.42056 0.74767 -0.62800
O 	O 	0.94783 0.44840 0.78932 -0.61600
C 	C 	0.97498 0.14719 0.67014 0.08500
C 	C 	0.96482 0.12115 0.67548 -0.10800
H 	H 	0.97200 0.11090 0.68990 0.07000
C 	C 	0.94397 0.11043 0.65935 -0.02200
H 	H 	0.93720 0.09300 0.66290 0.04100
C 	C 	0.93328 0.12574 0.63788 -0.00500
C 	C 	0.94344 0.15178 0.63253 -0.02200
H 	H 	0.93630 0.16200 0.61820 0.04000
C 	C 	0.96429 0.16251 0.64866 -0.10700
H 	H 	0.97110 0.17990 0.64510 0.07000
C 	C 	0.87486 0.09065 0.59040 0.11800
C 	C 	0.88248 0.06987 0.57251 -0.16600
H 	H 	0.90090 0.06540 0.57030 0.09200
C 	C 	0.86260 0.05569 0.55789 0.09500
H 	H 	0.86770 0.04180 0.54590 0.01700
C 	C 	0.83511 0.06229 0.56115 -0.16600
C 	C 	0.82750 0.08308 0.57904 0.10000
H 	H 	0.80910 0.08750 0.58120 0.01500
C 	C 	0.84737 0.09726 0.59366 -0.16900
H 	H 	0.84230 0.11120 0.60560 0.09300
C 	C 	0.89530 0.10530 0.60680 -0.06300
C 	C 	0.97554 0.36533 0.73390 0.10200
H 	H 	0.95890 0.37430 0.73620 0.01400
C 	C 	0.91080 0.11610 0.62000 0.01400
C 	C 	0.97559 0.33786 0.72640 -0.17800
H 	H 	0.95920 0.32910 0.72230 0.09600
C 	C 	0.02350 0.20214 0.69380 -0.12200
H 	H 	0.04010 0.19310 0.69170 0.07400
C 	C 	0.02380 0.22980 0.70050 -0.00700
H 	H 	0.04040 0.23880 0.70240 0.03500
C 	C 	0.02270 0.13200 0.75640 0.16000
H 	H 	0.03920 0.13270 0.76590 -0.02500
C 	C 	0.02250 0.14040 0.72990 -0.25600
H 	H 	0.03940 0.14320 0.72150 0.11900
C 	C 	0.95340 0.45570 0.81480 0.48100
C 	C 	0.97790 0.08300 0.85560 -0.41000
H 	H 	0.96100 0.08420 0.84690 0.17900
C 	C 	0.97770 0.07300 0.88210 0.33100
H 	H 	0.96090 0.07200 0.89100 -0.05700
O 	O 	0.97910 0.04320 0.93180 -0.58200
O 	O 	0.32316 0.02776 0.52882 -0.63400
O 	O 	0.24767 0.92056 0.47617 -0.62800
O 	O 	0.28932 0.94840 0.44783 -0.61600
C 	C 	0.17014 0.64719 0.47498 0.08500
C 	C 	0.17548 0.62115 0.46482 -0.10800
H 	H 	0.18990 0.61090 0.47200 0.07000
C 	C 	0.15935 0.61043 0.44397 -0.02200
H 	H 	0.16290 0.59300 0.43720 0.04100
C 	C 	0.13788 0.62574 0.43328 -0.00500
C 	C 	0.13253 0.65178 0.44344 -0.02200
H 	H 	0.11820 0.66200 0.43630 0.04000
C 	C 	0.14866 0.66251 0.46429 -0.10700
H 	H 	0.14510 0.67990 0.47110 0.07000
C 	C 	0.09040 0.59065 0.37486 0.11800
C 	C 	0.07251 0.56987 0.38248 -0.16600
H 	H 	0.07030 0.56540 0.40090 0.09200
C 	C 	0.05789 0.55569 0.36260 0.09500
H 	H 	0.04590 0.54180 0.36770 0.01700
C 	C 	0.06115 0.56229 0.33511 -0.16600
C 	C 	0.07904 0.58308 0.32750 0.10000
H 	H 	0.08120 0.58750 0.30910 0.01500
C 	C 	0.09366 0.59726 0.34737 -0.16900
H 	H 	0.10560 0.61120 0.34230 0.09300
C 	C 	0.10680 0.60530 0.39530 -0.06300
C 	C 	0.23390 0.86533 0.47554 0.10200
H 	H 	0.23620 0.87430 0.45890 0.01400
C 	C 	0.12000 0.61610 0.41080 0.01400
C 	C 	0.22640 0.83786 0.47559 -0.17800
H 	H 	0.22230 0.82910 0.45920 0.09600
C 	C 	0.19380 0.70214 0.52350 -0.12200
H 	H 	0.19170 0.69310 0.54010 0.07400
C 	C 	0.20050 0.72980 0.52380 -0.00700
H 	H 	0.20240 0.73880 0.54040 0.03500
C 	C 	0.25640 0.63200 0.52270 0.16000
H 	H 	0.26590 0.63270 0.53920 -0.02500
C 	C 	0.22990 0.64040 0.52250 -0.25600
H 	H 	0.22150 0.64320 0.53940 0.11900
C 	C 	0.31480 0.95570 0.45340 0.48100
C 	C 	0.35560 0.58300 0.47790 -0.41000
H 	H 	0.34690 0.58420 0.46100 0.17900
C 	C 	0.38210 0.57300 0.47770 0.33100
H 	H 	0.39100 0.57200 0.46090 -0.05700
O 	O 	0.43180 0.54320 0.47910 -0.58200
O 	O 	0.67684 0.97224 0.52882 -0.63400
O 	O 	0.75233 0.07944 0.47617 -0.62800
O 	O 	0.71068 0.05160 0.44783 -0.61600
C 	C 	0.82986 0.35281 0.47498 0.08500
C 	C 	0.82452 0.37885 0.46482 -0.10800
H 	H 	0.81010 0.38910 0.47200 0.07000
C 	C 	0.84065 0.38957 0.44397 -0.02200
H 	H 	0.83710 0.40700 0.43720 0.04100
C 	C 	0.86212 0.37426 0.43328 -0.00500
C 	C 	0.86747 0.34822 0.44344 -0.02200
H 	H 	0.88180 0.33800 0.43630 0.04000
C 	C 	0.85134 0.33749 0.46429 -0.10700
H 	H 	0.85490 0.32010 0.47110 0.07000
C 	C 	0.90960 0.40935 0.37486 0.11800
C 	C 	0.92749 0.43013 0.38248 -0.16600
H 	H 	0.92970 0.43460 0.40090 0.09200
C 	C 	0.94211 0.44431 0.36260 0.09500
H 	H 	0.95410 0.45820 0.36770 0.01700
C 	C 	0.93885 0.43771 0.33511 -0.16600
C 	C 	0.92096 0.41692 0.32750 0.10000
H 	H 	0.91880 0.41250 0.30910 0.01500
C 	C 	0.90634 0.40274 0.34737 -0.16900
H 	H 	0.89440 0.38880 0.34230 0.09300
C 	C 	0.89320 0.39470 0.39530 -0.06300
C 	C 	0.76610 0.13467 0.47554 0.10200
H 	H 	0.76380 0.12570 0.45890 0.01400
C 	C 	0.88000 0.38390 0.41080 0.01400
C 	C 	0.77360 0.16214 0.47559 -0.17800
H 	H 	0.77770 0.17090 0.45920 0.09600
C 	C 	0.80620 0.29786 0.52350 -0.12200
H 	H 	0.80830 0.30690 0.54010 0.07400
C 	C 	0.79950 0.27020 0.52380 -0.00700
H 	H 	0.79760 0.26120 0.54040 0.03500
C 	C 	0.74360 0.36800 0.52270 0.16000
H 	H 	0.73410 0.36730 0.53920 -0.02500
C 	C 	0.77010 0.35960 0.52250 -0.25600
H 	H 	0.77850 0.35680 0.53940 0.11900
C 	C 	0.68520 0.04430 0.45340 0.48100
C 	C 	0.64440 0.41700 0.47790 -0.41000
H 	H 	0.65310 0.41580 0.46100 0.17900
C 	C 	0.61790 0.42700 0.47770 0.33100
H 	H 	0.60900 0.42800 0.46090 -0.05700
O 	O 	0.56820 0.45680 0.47910 -0.58200
O 	O 	0.67684 0.02776 0.47118 -0.63400
O 	O 	0.75233 0.92056 0.52383 -0.62800
O 	O 	0.71068 0.94840 0.55217 -0.61600
C 	C 	0.82986 0.64719 0.52502 0.08500
C 	C 	0.82452 0.62115 0.53518 -0.10800
H 	H 	0.81010 0.61090 0.52800 0.07000
C 	C 	0.84065 0.61043 0.55603 -0.02200
H 	H 	0.83710 0.59300 0.56280 0.04100
C 	C 	0.86212 0.62574 0.56672 -0.00500
C 	C 	0.86747 0.65178 0.55656 -0.02200
H 	H 	0.88180 0.66200 0.56370 0.04000
C 	C 	0.85134 0.66251 0.53571 -0.10700
H 	H 	0.85490 0.67990 0.52890 0.07000
C 	C 	0.90960 0.59065 0.62514 0.11800
C 	C 	0.92749 0.56987 0.61752 -0.16600
H 	H 	0.92970 0.56540 0.59910 0.09200
C 	C 	0.94211 0.55569 0.63740 0.09500
H 	H 	0.95410 0.54180 0.63230 0.01700
C 	C 	0.93885 0.56229 0.66489 -0.16600
C 	C 	0.92096 0.58308 0.67250 0.10000
H 	H 	0.91880 0.58750 0.69090 0.01500
C 	C 	0.90634 0.59726 0.65263 -0.16900
H 	H 	0.89440 0.61120 0.65770 0.09300
C 	C 	0.89320 0.60530 0.60470 -0.06300
C 	C 	0.76610 0.86533 0.52446 0.10200
H 	H 	0.76380 0.87430 0.54110 0.01400
C 	C 	0.88000 0.61610 0.58920 0.01400
C 	C 	0.77360 0.83786 0.52441 -0.17800
H 	H 	0.77770 0.82910 0.54080 0.09600
C 	C 	0.80620 0.70214 0.47650 -0.12200
H 	H 	0.80830 0.69310 0.45990 0.07400
C 	C 	0.79950 0.72980 0.47620 -0.00700
H 	H 	0.79760 0.73880 0.45960 0.03500
C 	C 	0.74360 0.63200 0.47730 0.16000
H 	H 	0.73410 0.63270 0.46080 -0.02500
C 	C 	0.77010 0.64040 0.47750 -0.25600
H 	H 	0.77850 0.64320 0.46060 0.11900
C 	C 	0.68520 0.95570 0.54660 0.48100
C 	C 	0.64440 0.58300 0.52210 -0.41000
H 	H 	0.65310 0.58420 0.53900 0.17900
C 	C 	0.61790 0.57300 0.52230 0.33100
H 	H 	0.60900 0.57200 0.53910 -0.05700
O 	O 	0.56820 0.54320 0.52090 -0.58200
O 	O 	0.32316 0.97224 0.47118 -0.63400
O 	O 	0.24767 0.07944 0.52383 -0.62800
O 	O 	0.28932 0.05160 0.55217 -0.61600
C 	C 	0.17014 0.35281 0.52502 0.08500
C 	C 	0.17548 0.37885 0.53518 -0.10800
H 	H 	0.18990 0.38910 0.52800 0.07000
C 	C 	0.15935 0.38957 0.55603 -0.02200
H 	H 	0.16290 0.40700 0.56280 0.04100
C 	C 	0.13788 0.37426 0.56672 -0.00500
C 	C 	0.13253 0.34822 0.55656 -0.02200
H 	H 	0.11820 0.33800 0.56370 0.04000
C 	C 	0.14866 0.33749 0.53571 -0.10700
H 	H 	0.14510 0.32010 0.52890 0.07000
C 	C 	0.09040 0.40935 0.62514 0.11800
C 	C 	0.07251 0.43013 0.61752 -0.16600
H 	H 	0.07030 0.43460 0.59910 0.09200
C 	C 	0.05789 0.44431 0.63740 0.09500
H 	H 	0.04590 0.45820 0.63230 0.01700
C 	C 	0.06115 0.43771 0.66489 -0.16600
C 	C 	0.07904 0.41692 0.67250 0.10000
H 	H 	0.08120 0.41250 0.69090 0.01500
C 	C 	0.09366 0.40274 0.65263 -0.16900
H 	H 	0.10560 0.38880 0.65770 0.09300
C 	C 	0.10680 0.39470 0.60470 -0.06300
C 	C 	0.23390 0.13467 0.52446 0.10200
H 	H 	0.23620 0.12570 0.54110 0.01400
C 	C 	0.12000 0.38390 0.58920 0.01400
C 	C 	0.22640 0.16214 0.52441 -0.17800
H 	H 	0.22230 0.17090 0.54080 0.09600
C 	C 	0.19380 0.29786 0.47650 -0.12200
H 	H 	0.19170 0.30690 0.45990 0.07400
C 	C 	0.20050 0.27020 0.47620 -0.00700
H 	H 	0.20240 0.26120 0.45960 0.03500
C 	C 	0.25640 0.36800 0.47730 0.16000
H 	H 	0.26590 0.36730 0.46080 -0.02500
C 	C 	0.22990 0.35960 0.47750 -0.25600
H 	H 	0.22150 0.35680 0.46060 0.11900
C 	C 	0.31480 0.04430 0.54660 0.48100
C 	C 	0.35560 0.41700 0.52210 -0.41000
H 	H 	0.34690 0.41580 0.53900 0.17900
C 	C 	0.38210 0.42700 0.52230 0.33100
H 	H 	0.39100 0.42800 0.53910 -0.05700
O 	O 	0.43180 0.45680 0.52090 -0.58200
O 	O 	0.52882 0.32316 0.02776 -0.63400
O 	O 	0.47617 0.24767 0.92056 -0.62800
O 	O 	0.44783 0.28932 0.94840 -0.61600
C 	C 	0.47498 0.17014 0.64719 0.08500
C 	C 	0.46482 0.17548 0.62115 -0.10800
H 	H 	0.47200 0.18990 0.61090 0.07000
C 	C 	0.44397 0.15935 0.61043 -0.02200
H 	H 	0.43720 0.16290 0.59300 0.04100
C 	C 	0.43328 0.13788 0.62574 -0.00500
C 	C 	0.44344 0.13253 0.65178 -0.02200
H 	H 	0.43630 0.11820 0.66200 0.04000
C 	C 	0.46429 0.14866 0.66251 -0.10700
H 	H 	0.47110 0.14510 0.67990 0.07000
C 	C 	0.37486 0.09040 0.59065 0.11800
C 	C 	0.38248 0.07251 0.56987 -0.16600
H 	H 	0.40090 0.07030 0.56540 0.09200
C 	C 	0.36260 0.05789 0.55569 0.09500
H 	H 	0.36770 0.04590 0.54180 0.01700
C 	C 	0.33511 0.06115 0.56229 -0.16600
C 	C 	0.32750 0.07904 0.58308 0.10000
H 	H 	0.30910 0.08120 0.58750 0.01500
C 	C 	0.34737 0.09366 0.59726 -0.16900
H 	H 	0.34230 0.10560 0.61120 0.09300
C 	C 	0.39530 0.10680 0.60530 -0.06300
C 	C 	0.47554 0.23390 0.86533 0.10200
H 	H 	0.45890 0.23620 0.87430 0.01400
C 	C 	0.41080 0.12000 0.61610 0.01400
C 	C 	0.47559 0.22640 0.83786 -0.17800
H 	H 	0.45920 0.22230 0.82910 0.09600
C 	C 	0.52350 0.19380 0.70214 -0.12200
H 	H 	0.54010 0.19170 0.69310 0.07400
C 	C 	0.52380 0.20050 0.72980 -0.00700
H 	H 	0.54040 0.20240 0.73880 0.03500
C 	C 	0.52270 0.25640 0.63200 0.16000
H 	H 	0.53920 0.26590 0.63270 -0.02500
C 	C 	0.52250 0.22990 0.64040 -0.25600
H 	H 	0.53940 0.22150 0.64320 0.11900
C 	C 	0.45340 0.31480 0.95570 0.48100
C 	C 	0.47790 0.35560 0.58300 -0.41000
H 	H 	0.46100 0.34690 0.58420 0.17900
C 	C 	0.47770 0.38210 0.57300 0.33100
H 	H 	0.46090 0.39100 0.57200 -0.05700
O 	O 	0.47910 0.43180 0.54320 -0.58200
O 	O 	0.52882 0.67684 0.97224 -0.63400
O 	O 	0.47617 0.75233 0.07944 -0.62800
O 	O 	0.44783 0.71068 0.05160 -0.61600
C 	C 	0.47498 0.82986 0.35281 0.08500
C 	C 	0.46482 0.82452 0.37885 -0.10800
H 	H 	0.47200 0.81010 0.38910 0.07000
C 	C 	0.44397 0.84065 0.38957 -0.02200
H 	H 	0.43720 0.83710 0.40700 0.04100
C 	C 	0.43328 0.86212 0.37426 -0.00500
C 	C 	0.44344 0.86747 0.34822 -0.02200
H 	H 	0.43630 0.88180 0.33800 0.04000
C 	C 	0.46429 0.85134 0.33749 -0.10700
H 	H 	0.47110 0.85490 0.32010 0.07000
C 	C 	0.37486 0.90960 0.40935 0.11800
C 	C 	0.38248 0.92749 0.43013 -0.16600
H 	H 	0.40090 0.92970 0.43460 0.09200
C 	C 	0.36260 0.94211 0.44431 0.09500
H 	H 	0.36770 0.95410 0.45820 0.01700
C 	C 	0.33511 0.93885 0.43771 -0.16600
C 	C 	0.32750 0.92096 0.41692 0.10000
H 	H 	0.30910 0.91880 0.41250 0.01500
C 	C 	0.34737 0.90634 0.40274 -0.16900
H 	H 	0.34230 0.89440 0.38880 0.09300
C 	C 	0.39530 0.89320 0.39470 -0.06300
C 	C 	0.47554 0.76610 0.13467 0.10200
H 	H 	0.45890 0.76380 0.12570 0.01400
C 	C 	0.41080 0.88000 0.38390 0.01400
C 	C 	0.47559 0.77360 0.16214 -0.17800
H 	H 	0.45920 0.77770 0.17090 0.09600
C 	C 	0.52350 0.80620 0.29786 -0.12200
H 	H 	0.54010 0.80830 0.30690 0.07400
C 	C 	0.52380 0.79950 0.27020 -0.00700
H 	H 	0.54040 0.79760 0.26120 0.03500
C 	C 	0.52270 0.74360 0.36800 0.16000
H 	H 	0.53920 0.73410 0.36730 -0.02500
C 	C 	0.52250 0.77010 0.35960 -0.25600
H 	H 	0.53940 0.77850 0.35680 0.11900
C 	C 	0.45340 0.68520 0.04430 0.48100
C 	C 	0.47790 0.64440 0.41700 -0.41000
H 	H 	0.46100 0.65310 0.41580 0.17900
C 	C 	0.47770 0.61790 0.42700 0.33100
H 	H 	0.46090 0.60900 0.42800 -0.05700
O 	O 	0.47910 0.56820 0.45680 -0.58200
O 	O 	0.47118 0.67684 0.02776 -0.63400
O 	O 	0.52383 0.75233 0.92056 -0.62800
O 	O 	0.55217 0.71068 0.94840 -0.61600
C 	C 	0.52502 0.82986 0.64719 0.08500
C 	C 	0.53518 0.82452 0.62115 -0.10800
H 	H 	0.52800 0.81010 0.61090 0.07000
C 	C 	0.55603 0.84065 0.61043 -0.02200
H 	H 	0.56280 0.83710 0.59300 0.04100
C 	C 	0.56672 0.86212 0.62574 -0.00500
C 	C 	0.55656 0.86747 0.65178 -0.02200
H 	H 	0.56370 0.88180 0.66200 0.04000
C 	C 	0.53571 0.85134 0.66251 -0.10700
H 	H 	0.52890 0.85490 0.67990 0.07000
C 	C 	0.62514 0.90960 0.59065 0.11800
C 	C 	0.61752 0.92749 0.56987 -0.16600
H 	H 	0.59910 0.92970 0.56540 0.09200
C 	C 	0.63740 0.94211 0.55569 0.09500
H 	H 	0.63230 0.95410 0.54180 0.01700
C 	C 	0.66489 0.93885 0.56229 -0.16600
C 	C 	0.67250 0.92096 0.58308 0.10000
H 	H 	0.69090 0.91880 0.58750 0.01500
C 	C 	0.65263 0.90634 0.59726 -0.16900
H 	H 	0.65770 0.89440 0.61120 0.09300
C 	C 	0.60470 0.89320 0.60530 -0.06300
C 	C 	0.52446 0.76610 0.86533 0.10200
H 	H 	0.54110 0.76380 0.87430 0.01400
C 	C 	0.58920 0.88000 0.61610 0.01400
C 	C 	0.52441 0.77360 0.83786 -0.17800
H 	H 	0.54080 0.77770 0.82910 0.09600
C 	C 	0.47650 0.80620 0.70214 -0.12200
H 	H 	0.45990 0.80830 0.69310 0.07400
C 	C 	0.47620 0.79950 0.72980 -0.00700
H 	H 	0.45960 0.79760 0.73880 0.03500
C 	C 	0.47730 0.74360 0.63200 0.16000
H 	H 	0.46080 0.73410 0.63270 -0.02500
C 	C 	0.47750 0.77010 0.64040 -0.25600
H 	H 	0.46060 0.77850 0.64320 0.11900
C 	C 	0.54660 0.68520 0.95570 0.48100
C 	C 	0.52210 0.64440 0.58300 -0.41000
H 	H 	0.53900 0.65310 0.58420 0.17900
C 	C 	0.52230 0.61790 0.57300 0.33100
H 	H 	0.53910 0.60900 0.57200 -0.05700
O 	O 	0.52090 0.56820 0.54320 -0.58200
O 	O 	0.47118 0.32316 0.97224 -0.63400
O 	O 	0.52383 0.24767 0.07944 -0.62800
O 	O 	0.55217 0.28932 0.05160 -0.61600
C 	C 	0.52502 0.17014 0.35281 0.08500
C 	C 	0.53518 0.17548 0.37885 -0.10800
H 	H 	0.52800 0.18990 0.38910 0.07000
C 	C 	0.55603 0.15935 0.38957 -0.02200
H 	H 	0.56280 0.16290 0.40700 0.04100
C 	C 	0.56672 0.13788 0.37426 -0.00500
C 	C 	0.55656 0.13253 0.34822 -0.02200
H 	H 	0.56370 0.11820 0.33800 0.04000
C 	C 	0.53571 0.14866 0.33749 -0.10700
H 	H 	0.52890 0.14510 0.32010 0.07000
C 	C 	0.62514 0.09040 0.40935 0.11800
C 	C 	0.61752 0.07251 0.43013 -0.16600
H 	H 	0.59910 0.07030 0.43460 0.09200
C 	C 	0.63740 0.05789 0.44431 0.09500
H 	H 	0.63230 0.04590 0.45820 0.01700
C 	C 	0.66489 0.06115 0.43771 -0.16600
C 	C 	0.67250 0.07904 0.41692 0.10000
H 	H 	0.69090 0.08120 0.41250 0.01500
C 	C 	0.65263 0.09366 0.40274 -0.16900
H 	H 	0.65770 0.10560 0.38880 0.09300
C 	C 	0.60470 0.10680 0.39470 -0.06300
C 	C 	0.52446 0.23390 0.13467 0.10200
H 	H 	0.54110 0.23620 0.12570 0.01400
C 	C 	0.58920 0.12000 0.38390 0.01400
C 	C 	0.52441 0.22640 0.16214 -0.17800
H 	H 	0.54080 0.22230 0.17090 0.09600
C 	C 	0.47650 0.19380 0.29786 -0.12200
H 	H 	0.45990 0.19170 0.30690 0.07400
C 	C 	0.47620 0.20050 0.27020 -0.00700
H 	H 	0.45960 0.20240 0.26120 0.03500
C 	C 	0.47730 0.25640 0.36800 0.16000
H 	H 	0.46080 0.26590 0.36730 -0.02500
C 	C 	0.47750 0.22990 0.35960 -0.25600
H 	H 	0.46060 0.22150 0.35680 0.11900
C 	C 	0.54660 0.31480 0.04430 0.48100
C 	C 	0.52210 0.35560 0.41700 -0.41000
H 	H 	0.53900 0.34690 0.41580 0.17900
C 	C 	0.52230 0.38210 0.42700 0.33100
H 	H 	0.53910 0.39100 0.42800 -0.05700
O 	O 	0.52090 0.43180 0.45680 -0.58200
O 	O 	0.02776 0.52882 0.32316 -0.63400
O 	O 	0.92056 0.47617 0.24767 -0.62800
O 	O 	0.94840 0.44783 0.28932 -0.61600
C 	C 	0.64719 0.47498 0.17014 0.08500
C 	C 	0.62115 0.46482 0.17548 -0.10800
H 	H 	0.61090 0.47200 0.18990 0.07000
C 	C 	0.61043 0.44397 0.15935 -0.02200
H 	H 	0.59300 0.43720 0.16290 0.04100
C 	C 	0.62574 0.43328 0.13788 -0.00500
C 	C 	0.65178 0.44344 0.13253 -0.02200
H 	H 	0.66200 0.43630 0.11820 0.04000
C 	C 	0.66251 0.46429 0.14866 -0.10700
H 	H 	0.67990 0.47110 0.14510 0.07000
C 	C 	0.59065 0.37486 0.09040 0.11800
C 	C 	0.56987 0.38248 0.07251 -0.16600
H 	H 	0.56540 0.40090 0.07030 0.09200
C 	C 	0.55569 0.36260 0.05789 0.09500
H 	H 	0.54180 0.36770 0.04590 0.01700
C 	C 	0.56229 0.33511 0.06115 -0.16600
C 	C 	0.58308 0.32750 0.07904 0.10000
H 	H 	0.58750 0.30910 0.08120 0.01500
C 	C 	0.59726 0.34737 0.09366 -0.16900
H 	H 	0.61120 0.34230 0.10560 0.09300
C 	C 	0.60530 0.39530 0.10680 -0.06300
C 	C 	0.86533 0.47554 0.23390 0.10200
H 	H 	0.87430 0.45890 0.23620 0.01400
C 	C 	0.61610 0.41080 0.12000 0.01400
C 	C 	0.83786 0.47559 0.22640 -0.17800
H 	H 	0.82910 0.45920 0.22230 0.09600
C 	C 	0.70214 0.52350 0.19380 -0.12200
H 	H 	0.69310 0.54010 0.19170 0.07400
C 	C 	0.72980 0.52380 0.20050 -0.00700
H 	H 	0.73880 0.54040 0.20240 0.03500
C 	C 	0.63200 0.52270 0.25640 0.16000
H 	H 	0.63270 0.53920 0.26590 -0.02500
C 	C 	0.64040 0.52250 0.22990 -0.25600
H 	H 	0.64320 0.53940 0.22150 0.11900
C 	C 	0.95570 0.45340 0.31480 0.48100
C 	C 	0.58300 0.47790 0.35560 -0.41000
H 	H 	0.58420 0.46100 0.34690 0.17900
C 	C 	0.57300 0.47770 0.38210 0.33100
H 	H 	0.57200 0.46090 0.39100 -0.05700
O 	O 	0.54320 0.47910 0.43180 -0.58200
O 	O 	0.97224 0.52882 0.67684 -0.63400
O 	O 	0.07944 0.47617 0.75233 -0.62800
O 	O 	0.05160 0.44783 0.71068 -0.61600
C 	C 	0.35281 0.47498 0.82986 0.08500
C 	C 	0.37885 0.46482 0.82452 -0.10800
H 	H 	0.38910 0.47200 0.81010 0.07000
C 	C 	0.38957 0.44397 0.84065 -0.02200
H 	H 	0.40700 0.43720 0.83710 0.04100
C 	C 	0.37426 0.43328 0.86212 -0.00500
C 	C 	0.34822 0.44344 0.86747 -0.02200
H 	H 	0.33800 0.43630 0.88180 0.04000
C 	C 	0.33749 0.46429 0.85134 -0.10700
H 	H 	0.32010 0.47110 0.85490 0.07000
C 	C 	0.40935 0.37486 0.90960 0.11800
C 	C 	0.43013 0.38248 0.92749 -0.16600
H 	H 	0.43460 0.40090 0.92970 0.09200
C 	C 	0.44431 0.36260 0.94211 0.09500
H 	H 	0.45820 0.36770 0.95410 0.01700
C 	C 	0.43771 0.33511 0.93885 -0.16600
C 	C 	0.41692 0.32750 0.92096 0.10000
H 	H 	0.41250 0.30910 0.91880 0.01500
C 	C 	0.40274 0.34737 0.90634 -0.16900
H 	H 	0.38880 0.34230 0.89440 0.09300
C 	C 	0.39470 0.39530 0.89320 -0.06300
C 	C 	0.13467 0.47554 0.76610 0.10200
H 	H 	0.12570 0.45890 0.76380 0.01400
C 	C 	0.38390 0.41080 0.88000 0.01400
C 	C 	0.16214 0.47559 0.77360 -0.17800
H 	H 	0.17090 0.45920 0.77770 0.09600
C 	C 	0.29786 0.52350 0.80620 -0.12200
H 	H 	0.30690 0.54010 0.80830 0.07400
C 	C 	0.27020 0.52380 0.79950 -0.00700
H 	H 	0.26120 0.54040 0.79760 0.03500
C 	C 	0.36800 0.52270 0.74360 0.16000
H 	H 	0.36730 0.53920 0.73410 -0.02500
C 	C 	0.35960 0.52250 0.77010 -0.25600
H 	H 	0.35680 0.53940 0.77850 0.11900
C 	C 	0.04430 0.45340 0.68520 0.48100
C 	C 	0.41700 0.47790 0.64440 -0.41000
H 	H 	0.41580 0.46100 0.65310 0.17900
C 	C 	0.42700 0.47770 0.61790 0.33100
H 	H 	0.42800 0.46090 0.60900 -0.05700
O 	O 	0.45680 0.47910 0.56820 -0.58200
O 	O 	0.02776 0.47118 0.67684 -0.63400
O 	O 	0.92056 0.52383 0.75233 -0.62800
O 	O 	0.94840 0.55217 0.71068 -0.61600
C 	C 	0.64719 0.52502 0.82986 0.08500
C 	C 	0.62115 0.53518 0.82452 -0.10800
H 	H 	0.61090 0.52800 0.81010 0.07000
C 	C 	0.61043 0.55603 0.84065 -0.02200
H 	H 	0.59300 0.56280 0.83710 0.04100
C 	C 	0.62574 0.56672 0.86212 -0.00500
C 	C 	0.65178 0.55656 0.86747 -0.02200
H 	H 	0.66200 0.56370 0.88180 0.04000
C 	C 	0.66251 0.53571 0.85134 -0.10700
H 	H 	0.67990 0.52890 0.85490 0.07000
C 	C 	0.59065 0.62514 0.90960 0.11800
C 	C 	0.56987 0.61752 0.92749 -0.16600
H 	H 	0.56540 0.59910 0.92970 0.09200
C 	C 	0.55569 0.63740 0.94211 0.09500
H 	H 	0.54180 0.63230 0.95410 0.01700
C 	C 	0.56229 0.66489 0.93885 -0.16600
C 	C 	0.58308 0.67250 0.92096 0.10000
H 	H 	0.58750 0.69090 0.91880 0.01500
C 	C 	0.59726 0.65263 0.90634 -0.16900
H 	H 	0.61120 0.65770 0.89440 0.09300
C 	C 	0.60530 0.60470 0.89320 -0.06300
C 	C 	0.86533 0.52446 0.76610 0.10200
H 	H 	0.87430 0.54110 0.76380 0.01400
C 	C 	0.61610 0.58920 0.88000 0.01400
C 	C 	0.83786 0.52441 0.77360 -0.17800
H 	H 	0.82910 0.54080 0.77770 0.09600
C 	C 	0.70214 0.47650 0.80620 -0.12200
H 	H 	0.69310 0.45990 0.80830 0.07400
C 	C 	0.72980 0.47620 0.79950 -0.00700
H 	H 	0.73880 0.45960 0.79760 0.03500
C 	C 	0.63200 0.47730 0.74360 0.16000
H 	H 	0.63270 0.46080 0.73410 -0.02500
C 	C 	0.64040 0.47750 0.77010 -0.25600
H 	H 	0.64320 0.46060 0.77850 0.11900
C 	C 	0.95570 0.54660 0.68520 0.48100
C 	C 	0.58300 0.52210 0.64440 -0.41000
H 	H 	0.58420 0.53900 0.65310 0.17900
C 	C 	0.57300 0.52230 0.61790 0.33100
H 	H 	0.57200 0.53910 0.60900 -0.05700
O 	O 	0.54320 0.52090 0.56820 -0.58200
O 	O 	0.97224 0.47118 0.32316 -0.63400
O 	O 	0.07944 0.52383 0.24767 -0.62800
O 	O 	0.05160 0.55217 0.28932 -0.61600
C 	C 	0.35281 0.52502 0.17014 0.08500
C 	C 	0.37885 0.53518 0.17548 -0.10800
H 	H 	0.38910 0.52800 0.18990 0.07000
C 	C 	0.38957 0.55603 0.15935 -0.02200
H 	H 	0.40700 0.56280 0.16290 0.04100
C 	C 	0.37426 0.56672 0.13788 -0.00500
C 	C 	0.34822 0.55656 0.13253 -0.02200
H 	H 	0.33800 0.56370 0.11820 0.04000
C 	C 	0.33749 0.53571 0.14866 -0.10700
H 	H 	0.32010 0.52890 0.14510 0.07000
C 	C 	0.40935 0.62514 0.09040 0.11800
C 	C 	0.43013 0.61752 0.07251 -0.16600
H 	H 	0.43460 0.59910 0.07030 0.09200
C 	C 	0.44431 0.63740 0.05789 0.09500
H 	H 	0.45820 0.63230 0.04590 0.01700
C 	C 	0.43771 0.66489 0.06115 -0.16600
C 	C 	0.41692 0.67250 0.07904 0.10000
H 	H 	0.41250 0.69090 0.08120 0.01500
C 	C 	0.40274 0.65263 0.09366 -0.16900
H 	H 	0.38880 0.65770 0.10560 0.09300
C 	C 	0.39470 0.60470 0.10680 -0.06300
C 	C 	0.13467 0.52446 0.23390 0.10200
H 	H 	0.12570 0.54110 0.23620 0.01400
C 	C 	0.38390 0.58920 0.12000 0.01400
C 	C 	0.16214 0.52441 0.22640 -0.17800
H 	H 	0.17090 0.54080 0.22230 0.09600
C 	C 	0.29786 0.47650 0.19380 -0.12200
H 	H 	0.30690 0.45990 0.19170 0.07400
C 	C 	0.27020 0.47620 0.20050 -0.00700
H 	H 	0.26120 0.45960 0.20240 0.03500
C 	C 	0.36800 0.47730 0.25640 0.16000
H 	H 	0.36730 0.46080 0.26590 -0.02500
C 	C 	0.35960 0.47750 0.22990 -0.25600
H 	H 	0.35680 0.46060 0.22150 0.11900
C 	C 	0.04430 0.54660 0.31480 0.48100
C 	C 	0.41700 0.52210 0.35560 -0.41000
H 	H 	0.41580 0.53900 0.34690 0.17900
C 	C 	0.42700 0.52230 0.38210 0.33100
H 	H 	0.42800 0.53910 0.39100 -0.05700
O 	O 	0.45680 0.52090 0.43180 -0.58200
O 	O 	0.52776 0.82316 0.97118 -0.63400
O 	O 	0.42056 0.74767 0.02383 -0.62800
O 	O 	0.44840 0.78932 0.05217 -0.61600
C 	C 	0.14719 0.67014 0.02502 0.08500
C 	C 	0.12115 0.67548 0.03518 -0.10800
H 	H 	0.11090 0.68990 0.02800 0.07000
C 	C 	0.11043 0.65935 0.05603 -0.02200
H 	H 	0.09300 0.66290 0.06280 0.04100
C 	C 	0.12574 0.63788 0.06672 -0.00500
C 	C 	0.15178 0.63253 0.05656 -0.02200
H 	H 	0.16200 0.61820 0.06370 0.04000
C 	C 	0.16251 0.64866 0.03571 -0.10700
H 	H 	0.17990 0.64510 0.02890 0.07000
C 	C 	0.09065 0.59040 0.12514 0.11800
C 	C 	0.06987 0.57251 0.11752 -0.16600
H 	H 	0.06540 0.57030 0.09910 0.09200
C 	C 	0.05569 0.55789 0.13740 0.09500
H 	H 	0.04180 0.54590 0.13230 0.01700
C 	C 	0.06229 0.56115 0.16489 -0.16600
C 	C 	0.08308 0.57904 0.17250 0.10000
H 	H 	0.08750 0.58120 0.19090 0.01500
C 	C 	0.09726 0.59366 0.15263 -0.16900
H 	H 	0.11120 0.60560 0.15770 0.09300
C 	C 	0.10530 0.60680 0.10470 -0.06300
C 	C 	0.36533 0.73390 0.02446 0.10300
H 	H 	0.37430 0.73620 0.04110 0.01400
C 	C 	0.11610 0.62000 0.08920 0.01400
C 	C 	0.33786 0.72640 0.02441 -0.17800
H 	H 	0.32910 0.72230 0.04080 0.09600
C 	C 	0.20214 0.69380 0.97650 -0.12200
H 	H 	0.19310 0.69170 0.95990 0.07400
C 	C 	0.22980 0.70050 0.97620 -0.00700
H 	H 	0.23880 0.70240 0.95960 0.03500
C 	C 	0.13200 0.75640 0.97730 0.16000
H 	H 	0.13270 0.76590 0.96080 -0.02500
C 	C 	0.14040 0.72990 0.97750 -0.25600
H 	H 	0.14320 0.72150 0.96060 0.11900
C 	C 	0.45570 0.81480 0.04660 0.48100
C 	C 	0.08300 0.85560 0.02210 -0.41000
H 	H 	0.08420 0.84690 0.03900 0.17900
C 	C 	0.07300 0.88210 0.02230 0.33100
H 	H 	0.07200 0.89100 0.03910 -0.05700
O 	O 	0.04320 0.93180 0.02090 -0.58200
O 	O 	0.47224 0.17684 0.97118 -0.63400
O 	O 	0.57944 0.25233 0.02383 -0.62800
O 	O 	0.55160 0.21068 0.05217 -0.61600
C 	C 	0.85281 0.32986 0.02502 0.08500
C 	C 	0.87885 0.32452 0.03518 -0.10800
H 	H 	0.88910 0.31010 0.02800 0.07000
C 	C 	0.88957 0.34065 0.05603 -0.02200
H 	H 	0.90700 0.33710 0.06280 0.04100
C 	C 	0.87426 0.36212 0.06672 -0.00500
C 	C 	0.84822 0.36747 0.05656 -0.02200
H 	H 	0.83800 0.38180 0.06370 0.04000
C 	C 	0.83749 0.35134 0.03571 -0.10700
H 	H 	0.82010 0.35490 0.02890 0.07000
C 	C 	0.90935 0.40960 0.12514 0.11800
C 	C 	0.93013 0.42749 0.11752 -0.16600
H 	H 	0.93460 0.42970 0.09910 0.09200
C 	C 	0.94431 0.44211 0.13740 0.09500
H 	H 	0.95820 0.45410 0.13230 0.01700
C 	C 	0.93771 0.43885 0.16489 -0.16600
C 	C 	0.91692 0.42096 0.17250 0.10000
H 	H 	0.91250 0.41880 0.19090 0.01500
C 	C 	0.90274 0.40634 0.15263 -0.16900
H 	H 	0.88880 0.39440 0.15770 0.09300
C 	C 	0.89470 0.39320 0.10470 -0.06300
C 	C 	0.63467 0.26610 0.02446 0.10300
H 	H 	0.62570 0.26380 0.04110 0.01400
C 	C 	0.88390 0.38000 0.08920 0.01400
C 	C 	0.66214 0.27360 0.02441 -0.17800
H 	H 	0.67090 0.27770 0.04080 0.09600
C 	C 	0.79786 0.30620 0.97650 -0.12200
H 	H 	0.80690 0.30830 0.95990 0.07400
C 	C 	0.77020 0.29950 0.97620 -0.00700
H 	H 	0.76120 0.29760 0.95960 0.03500
C 	C 	0.86800 0.24360 0.97730 0.16000
H 	H 	0.86730 0.23410 0.96080 -0.02500
C 	C 	0.85960 0.27010 0.97750 -0.25600
H 	H 	0.85680 0.27850 0.96060 0.11900
C 	C 	0.54430 0.18520 0.04660 0.48100
C 	C 	0.91700 0.14440 0.02210 -0.41000
H 	H 	0.91580 0.15310 0.03900 0.17900
C 	C 	0.92700 0.11790 0.02230 0.33100
H 	H 	0.92800 0.10900 0.03910 -0.05700
O 	O 	0.95680 0.06820 0.02090 -0.58200
O 	O 	0.52776 0.17684 0.02882 -0.63400
O 	O 	0.42056 0.25233 0.97617 -0.62800
O 	O 	0.44840 0.21068 0.94783 -0.61600
C 	C 	0.14719 0.32986 0.97498 0.08500
C 	C 	0.12115 0.32452 0.96482 -0.10800
H 	H 	0.11090 0.31010 0.97200 0.07000
C 	C 	0.11043 0.34065 0.94397 -0.02200
H 	H 	0.09300 0.33710 0.93720 0.04100
C 	C 	0.12574 0.36212 0.93328 -0.00500
C 	C 	0.15178 0.36747 0.94344 -0.02200
H 	H 	0.16200 0.38180 0.93630 0.04000
C 	C 	0.16251 0.35134 0.96429 -0.10700
H 	H 	0.17990 0.35490 0.97110 0.07000
C 	C 	0.09065 0.40960 0.87486 0.11800
C 	C 	0.06987 0.42749 0.88248 -0.16600
H 	H 	0.06540 0.42970 0.90090 0.09200
C 	C 	0.05569 0.44211 0.86260 0.09500
H 	H 	0.04180 0.45410 0.86770 0.01700
C 	C 	0.06229 0.43885 0.83511 -0.16600
C 	C 	0.08308 0.42096 0.82750 0.10000
H 	H 	0.08750 0.41880 0.80910 0.01500
C 	C 	0.09726 0.40634 0.84737 -0.16900
H 	H 	0.11120 0.39440 0.84230 0.09300
C 	C 	0.10530 0.39320 0.89530 -0.06300
C 	C 	0.36533 0.26610 0.97554 0.10200
H 	H 	0.37430 0.26380 0.95890 0.01400
C 	C 	0.11610 0.38000 0.91080 0.01400
C 	C 	0.33786 0.27360 0.97559 -0.17800
H 	H 	0.32910 0.27770 0.95920 0.09600
C 	C 	0.20214 0.30620 0.02350 -0.12200
H 	H 	0.19310 0.30830 0.04010 0.07400
C 	C 	0.22980 0.29950 0.02380 -0.00700
H 	H 	0.23880 0.29760 0.04040 0.03500
C 	C 	0.13200 0.24360 0.02270 0.16000
H 	H 	0.13270 0.23410 0.03920 -0.02500
C 	C 	0.14040 0.27010 0.02250 -0.25600
H 	H 	0.14320 0.27850 0.03940 0.11900
C 	C 	0.45570 0.18520 0.95340 0.48100
C 	C 	0.08300 0.14440 0.97790 -0.41000
H 	H 	0.08420 0.15310 0.96100 0.17900
C 	C 	0.07300 0.11790 0.97770 0.33100
H 	H 	0.07200 0.10900 0.96090 -0.05700
O 	O 	0.04320 0.06820 0.97910 -0.58200
O 	O 	0.47224 0.82316 0.02882 -0.63400
O 	O 	0.57944 0.74767 0.97617 -0.62800
O 	O 	0.55160 0.78932 0.94783 -0.61600
C 	C 	0.85281 0.67014 0.97498 0.08500
C 	C 	0.87885 0.67548 0.96482 -0.10800
H 	H 	0.88910 0.68990 0.97200 0.07000
C 	C 	0.88957 0.65935 0.94397 -0.02200
H 	H 	0.90700 0.66290 0.93720 0.04100
C 	C 	0.87426 0.63788 0.93328 -0.00500
C 	C 	0.84822 0.63253 0.94344 -0.02200
H 	H 	0.83800 0.61820 0.93630 0.04000
C 	C 	0.83749 0.64866 0.96429 -0.10700
H 	H 	0.82010 0.64510 0.97110 0.07000
C 	C 	0.90935 0.59040 0.87486 0.11800
C 	C 	0.93013 0.57251 0.88248 -0.16600
H 	H 	0.93460 0.57030 0.90090 0.09200
C 	C 	0.94431 0.55789 0.86260 0.09500
H 	H 	0.95820 0.54590 0.86770 0.01700
C 	C 	0.93771 0.56115 0.83511 -0.16600
C 	C 	0.91692 0.57904 0.82750 0.10000
H 	H 	0.91250 0.58120 0.80910 0.01500
C 	C 	0.90274 0.59366 0.84737 -0.16900
H 	H 	0.88880 0.60560 0.84230 0.09300
C 	C 	0.89470 0.60680 0.89530 -0.06300
C 	C 	0.63467 0.73390 0.97554 0.10200
H 	H 	0.62570 0.73620 0.95890 0.01400
C 	C 	0.88390 0.62000 0.91080 0.01400
C 	C 	0.66214 0.72640 0.97559 -0.17800
H 	H 	0.67090 0.72230 0.95920 0.09600
C 	C 	0.79786 0.69380 0.02350 -0.12200
H 	H 	0.80690 0.69170 0.04010 0.07400
C 	C 	0.77020 0.70050 0.02380 -0.00700
H 	H 	0.76120 0.70240 0.04040 0.03500
C 	C 	0.86800 0.75640 0.02270 0.16000
H 	H 	0.86730 0.76590 0.03920 -0.02500
C 	C 	0.85960 0.72990 0.02250 -0.25600
H 	H 	0.85680 0.72150 0.03940 0.11900
C 	C 	0.54430 0.81480 0.95340 0.48100
C 	C 	0.91700 0.85560 0.97790 -0.41000
H 	H 	0.91580 0.84690 0.96100 0.17900
C 	C 	0.92700 0.88210 0.97770 0.33100
H 	H 	0.92800 0.89100 0.96090 -0.05700
O 	O 	0.95680 0.93180 0.97910 -0.58200
O 	O 	0.82316 0.02882 0.47224 -0.63400
O 	O 	0.74767 0.97617 0.57944 -0.62800
O 	O 	0.78932 0.94783 0.55160 -0.61600
C 	C 	0.67014 0.97498 0.85281 0.08500
C 	C 	0.67548 0.96482 0.87885 -0.10800
H 	H 	0.68990 0.97200 0.88910 0.07000
C 	C 	0.65935 0.94397 0.88957 -0.02200
H 	H 	0.66290 0.93720 0.90700 0.04100
C 	C 	0.63788 0.93328 0.87426 -0.00500
C 	C 	0.63253 0.94344 0.84822 -0.02200
H 	H 	0.61820 0.93630 0.83800 0.04000
C 	C 	0.64866 0.96429 0.83749 -0.10700
H 	H 	0.64510 0.97110 0.82010 0.07000
C 	C 	0.59040 0.87486 0.90935 0.11800
C 	C 	0.57251 0.88248 0.93013 -0.16600
H 	H 	0.57030 0.90090 0.93460 0.09200
C 	C 	0.55789 0.86260 0.94431 0.09500
H 	H 	0.54590 0.86770 0.95820 0.01700
C 	C 	0.56115 0.83511 0.93771 -0.16600
C 	C 	0.57904 0.82750 0.91692 0.10000
H 	H 	0.58120 0.80910 0.91250 0.01500
C 	C 	0.59366 0.84737 0.90274 -0.16900
H 	H 	0.60560 0.84230 0.88880 0.09300
C 	C 	0.60680 0.89530 0.89470 -0.06300
C 	C 	0.73390 0.97554 0.63467 0.10200
H 	H 	0.73620 0.95890 0.62570 0.01400
C 	C 	0.62000 0.91080 0.88390 0.01400
C 	C 	0.72640 0.97559 0.66214 -0.17800
H 	H 	0.72230 0.95920 0.67090 0.09600
C 	C 	0.69380 0.02350 0.79786 -0.12200
H 	H 	0.69170 0.04010 0.80690 0.07400
C 	C 	0.70050 0.02380 0.77020 -0.00700
H 	H 	0.70240 0.04040 0.76120 0.03500
C 	C 	0.75640 0.02270 0.86800 0.16000
H 	H 	0.76590 0.03920 0.86730 -0.02500
C 	C 	0.72990 0.02250 0.85960 -0.25600
H 	H 	0.72150 0.03940 0.85680 0.11900
C 	C 	0.81480 0.95340 0.54430 0.48100
C 	C 	0.85560 0.97790 0.91700 -0.41000
H 	H 	0.84690 0.96100 0.91580 0.17900
C 	C 	0.88210 0.97770 0.92700 0.33100
H 	H 	0.89100 0.96090 0.92800 -0.05700
O 	O 	0.93180 0.97910 0.95680 -0.58200
O 	O 	0.17684 0.02882 0.52776 -0.63400
O 	O 	0.25233 0.97617 0.42056 -0.62800
O 	O 	0.21068 0.94783 0.44840 -0.61600
C 	C 	0.32986 0.97498 0.14719 0.08500
C 	C 	0.32452 0.96482 0.12115 -0.10800
H 	H 	0.31010 0.97200 0.11090 0.07000
C 	C 	0.34065 0.94397 0.11043 -0.02200
H 	H 	0.33710 0.93720 0.09300 0.04100
C 	C 	0.36212 0.93328 0.12574 -0.00500
C 	C 	0.36747 0.94344 0.15178 -0.02200
H 	H 	0.38180 0.93630 0.16200 0.04000
C 	C 	0.35134 0.96429 0.16251 -0.10700
H 	H 	0.35490 0.97110 0.17990 0.07000
C 	C 	0.40960 0.87486 0.09065 0.11800
C 	C 	0.42749 0.88248 0.06987 -0.16600
H 	H 	0.42970 0.90090 0.06540 0.09200
C 	C 	0.44211 0.86260 0.05569 0.09500
H 	H 	0.45410 0.86770 0.04180 0.01700
C 	C 	0.43885 0.83511 0.06229 -0.16600
C 	C 	0.42096 0.82750 0.08308 0.10000
H 	H 	0.41880 0.80910 0.08750 0.01500
C 	C 	0.40634 0.84737 0.09726 -0.16900
H 	H 	0.39440 0.84230 0.11120 0.09300
C 	C 	0.39320 0.89530 0.10530 -0.06300
C 	C 	0.26610 0.97554 0.36533 0.10200
H 	H 	0.26380 0.95890 0.37430 0.01400
C 	C 	0.38000 0.91080 0.11610 0.01400
C 	C 	0.27360 0.97559 0.33786 -0.17800
H 	H 	0.27770 0.95920 0.32910 0.09600
C 	C 	0.30620 0.02350 0.20214 -0.12200
H 	H 	0.30830 0.04010 0.19310 0.07400
C 	C 	0.29950 0.02380 0.22980 -0.00700
H 	H 	0.29760 0.04040 0.23880 0.03500
C 	C 	0.24360 0.02270 0.13200 0.16000
H 	H 	0.23410 0.03920 0.13270 -0.02500
C 	C 	0.27010 0.02250 0.14040 -0.25600
H 	H 	0.27850 0.03940 0.14320 0.11900
C 	C 	0.18520 0.95340 0.45570 0.48100
C 	C 	0.14440 0.97790 0.08300 -0.41000
H 	H 	0.15310 0.96100 0.08420 0.17900
C 	C 	0.11790 0.97770 0.07300 0.33100
H 	H 	0.10900 0.96090 0.07200 -0.05700
O 	O 	0.06820 0.97910 0.04320 -0.58200
O 	O 	0.17684 0.97118 0.47224 -0.63400
O 	O 	0.25233 0.02383 0.57944 -0.62800
O 	O 	0.21068 0.05217 0.55160 -0.61600
C 	C 	0.32986 0.02502 0.85281 0.08500
C 	C 	0.32452 0.03518 0.87885 -0.10800
H 	H 	0.31010 0.02800 0.88910 0.07000
C 	C 	0.34065 0.05603 0.88957 -0.02200
H 	H 	0.33710 0.06280 0.90700 0.04100
C 	C 	0.36212 0.06672 0.87426 -0.00500
C 	C 	0.36747 0.05656 0.84822 -0.02200
H 	H 	0.38180 0.06370 0.83800 0.04000
C 	C 	0.35134 0.03571 0.83749 -0.10700
H 	H 	0.35490 0.02890 0.82010 0.07000
C 	C 	0.40960 0.12514 0.90935 0.11800
C 	C 	0.42749 0.11752 0.93013 -0.16600
H 	H 	0.42970 0.09910 0.93460 0.09200
C 	C 	0.44211 0.13740 0.94431 0.09500
H 	H 	0.45410 0.13230 0.95820 0.01700
C 	C 	0.43885 0.16489 0.93771 -0.16600
C 	C 	0.42096 0.17250 0.91692 0.10000
H 	H 	0.41880 0.19090 0.91250 0.01500
C 	C 	0.40634 0.15263 0.90274 -0.16900
H 	H 	0.39440 0.15770 0.88880 0.09300
C 	C 	0.39320 0.10470 0.89470 -0.06300
C 	C 	0.26610 0.02446 0.63467 0.10300
H 	H 	0.26380 0.04110 0.62570 0.01400
C 	C 	0.38000 0.08920 0.88390 0.01400
C 	C 	0.27360 0.02441 0.66214 -0.17800
H 	H 	0.27770 0.04080 0.67090 0.09600
C 	C 	0.30620 0.97650 0.79786 -0.12200
H 	H 	0.30830 0.95990 0.80690 0.07400
C 	C 	0.29950 0.97620 0.77020 -0.00700
H 	H 	0.29760 0.95960 0.76120 0.03500
C 	C 	0.24360 0.97730 0.86800 0.16000
H 	H 	0.23410 0.96080 0.86730 -0.02500
C 	C 	0.27010 0.97750 0.85960 -0.25600
H 	H 	0.27850 0.96060 0.85680 0.11900
C 	C 	0.18520 0.04660 0.54430 0.48100
C 	C 	0.14440 0.02210 0.91700 -0.41000
H 	H 	0.15310 0.03900 0.91580 0.17900
C 	C 	0.11790 0.02230 0.92700 0.33100
H 	H 	0.10900 0.03910 0.92800 -0.05700
O 	O 	0.06820 0.02090 0.95680 -0.58200
O 	O 	0.82316 0.97118 0.52776 -0.63400
O 	O 	0.74767 0.02383 0.42056 -0.62800
O 	O 	0.78932 0.05217 0.44840 -0.61600
C 	C 	0.67014 0.02502 0.14719 0.08500
C 	C 	0.67548 0.03518 0.12115 -0.10800
H 	H 	0.68990 0.02800 0.11090 0.07000
C 	C 	0.65935 0.05603 0.11043 -0.02200
H 	H 	0.66290 0.06280 0.09300 0.04100
C 	C 	0.63788 0.06672 0.12574 -0.00500
C 	C 	0.63253 0.05656 0.15178 -0.02200
H 	H 	0.61820 0.06370 0.16200 0.04000
C 	C 	0.64866 0.03571 0.16251 -0.10700
H 	H 	0.64510 0.02890 0.17990 0.07000
C 	C 	0.59040 0.12514 0.09065 0.11800
C 	C 	0.57251 0.11752 0.06987 -0.16600
H 	H 	0.57030 0.09910 0.06540 0.09200
C 	C 	0.55789 0.13740 0.05569 0.09500
H 	H 	0.54590 0.13230 0.04180 0.01700
C 	C 	0.56115 0.16489 0.06229 -0.16600
C 	C 	0.57904 0.17250 0.08308 0.10000
H 	H 	0.58120 0.19090 0.08750 0.01500
C 	C 	0.59366 0.15263 0.09726 -0.16900
H 	H 	0.60560 0.15770 0.11120 0.09300
C 	C 	0.60680 0.10470 0.10530 -0.06300
C 	C 	0.73390 0.02446 0.36533 0.10300
H 	H 	0.73620 0.04110 0.37430 0.01400
C 	C 	0.62000 0.08920 0.11610 0.01400
C 	C 	0.72640 0.02441 0.33786 -0.17800
H 	H 	0.72230 0.04080 0.32910 0.09600
C 	C 	0.69380 0.97650 0.20214 -0.12200
H 	H 	0.69170 0.95990 0.19310 0.07400
C 	C 	0.70050 0.97620 0.22980 -0.00700
H 	H 	0.70240 0.95960 0.23880 0.03500
C 	C 	0.75640 0.97730 0.13200 0.16000
H 	H 	0.76590 0.96080 0.13270 -0.02500
C 	C 	0.72990 0.97750 0.14040 -0.25600
H 	H 	0.72150 0.96060 0.14320 0.11900
C 	C 	0.81480 0.04660 0.45570 0.48100
C 	C 	0.85560 0.02210 0.08300 -0.41000
H 	H 	0.84690 0.03900 0.08420 0.17900
C 	C 	0.88210 0.02230 0.07300 0.33100
H 	H 	0.89100 0.03910 0.07200 -0.05700
O 	O 	0.93180 0.02090 0.04320 -0.58200
O 	O 	0.02882 0.52776 0.17684 -0.63400
O 	O 	0.97617 0.42056 0.25233 -0.62800
O 	O 	0.94783 0.44840 0.21068 -0.61600
C 	C 	0.97498 0.14719 0.32986 0.08500
C 	C 	0.96482 0.12115 0.32452 -0.10800
H 	H 	0.97200 0.11090 0.31010 0.07000
C 	C 	0.94397 0.11043 0.34065 -0.02200
H 	H 	0.93720 0.09300 0.33710 0.04100
C 	C 	0.93328 0.12574 0.36212 -0.00500
C 	C 	0.94344 0.15178 0.36747 -0.02200
H 	H 	0.93630 0.16200 0.38180 0.04000
C 	C 	0.96429 0.16251 0.35134 -0.10700
H 	H 	0.97110 0.17990 0.35490 0.07000
C 	C 	0.87486 0.09065 0.40960 0.11800
C 	C 	0.88248 0.06987 0.42749 -0.16600
H 	H 	0.90090 0.06540 0.42970 0.09200
C 	C 	0.86260 0.05569 0.44211 0.09500
H 	H 	0.86770 0.04180 0.45410 0.01700
C 	C 	0.83511 0.06229 0.43885 -0.16600
C 	C 	0.82750 0.08308 0.42096 0.10000
H 	H 	0.80910 0.08750 0.41880 0.01500
C 	C 	0.84737 0.09726 0.40634 -0.16900
H 	H 	0.84230 0.11120 0.39440 0.09300
C 	C 	0.89530 0.10530 0.39320 -0.06300
C 	C 	0.97554 0.36533 0.26610 0.10200
H 	H 	0.95890 0.37430 0.26380 0.01400
C 	C 	0.91080 0.11610 0.38000 0.01400
C 	C 	0.97559 0.33786 0.27360 -0.17800
H 	H 	0.95920 0.32910 0.27770 0.09600
C 	C 	0.02350 0.20214 0.30620 -0.12200
H 	H 	0.04010 0.19310 0.30830 0.07400
C 	C 	0.02380 0.22980 0.29950 -0.00700
H 	H 	0.04040 0.23880 0.29760 0.03500
C 	C 	0.02270 0.13200 0.24360 0.16000
H 	H 	0.03920 0.13270 0.23410 -0.02500
C 	C 	0.02250 0.14040 0.27010 -0.25600
H 	H 	0.03940 0.14320 0.27850 0.11900
C 	C 	0.95340 0.45570 0.18520 0.48100
C 	C 	0.97790 0.08300 0.14440 -0.41000
H 	H 	0.96100 0.08420 0.15310 0.17900
C 	C 	0.97770 0.07300 0.11790 0.33100
H 	H 	0.96090 0.07200 0.10900 -0.05700
O 	O 	0.97910 0.04320 0.06820 -0.58200
O 	O 	0.02882 0.47224 0.82316 -0.63400
O 	O 	0.97617 0.57944 0.74767 -0.62800
O 	O 	0.94783 0.55160 0.78932 -0.61600
C 	C 	0.97498 0.85281 0.67014 0.08500
C 	C 	0.96482 0.87885 0.67548 -0.10800
H 	H 	0.97200 0.88910 0.68990 0.07000
C 	C 	0.94397 0.88957 0.65935 -0.02200
H 	H 	0.93720 0.90700 0.66290 0.04100
C 	C 	0.93328 0.87426 0.63788 -0.00500
C 	C 	0.94344 0.84822 0.63253 -0.02200
H 	H 	0.93630 0.83800 0.61820 0.04000
C 	C 	0.96429 0.83749 0.64866 -0.10700
H 	H 	0.97110 0.82010 0.64510 0.07000
C 	C 	0.87486 0.90935 0.59040 0.11800
C 	C 	0.88248 0.93013 0.57251 -0.16600
H 	H 	0.90090 0.93460 0.57030 0.09200
C 	C 	0.86260 0.94431 0.55789 0.09500
H 	H 	0.86770 0.95820 0.54590 0.01700
C 	C 	0.83511 0.93771 0.56115 -0.16600
C 	C 	0.82750 0.91692 0.57904 0.10000
H 	H 	0.80910 0.91250 0.58120 0.01500
C 	C 	0.84737 0.90274 0.59366 -0.16900
H 	H 	0.84230 0.88880 0.60560 0.09300
C 	C 	0.89530 0.89470 0.60680 -0.06300
C 	C 	0.97554 0.63467 0.73390 0.10200
H 	H 	0.95890 0.62570 0.73620 0.01400
C 	C 	0.91080 0.88390 0.62000 0.01400
C 	C 	0.97559 0.66214 0.72640 -0.17800
H 	H 	0.95920 0.67090 0.72230 0.09600
C 	C 	0.02350 0.79786 0.69380 -0.12200
H 	H 	0.04010 0.80690 0.69170 0.07400
C 	C 	0.02380 0.77020 0.70050 -0.00700
H 	H 	0.04040 0.76120 0.70240 0.03500
C 	C 	0.02270 0.86800 0.75640 0.16000
H 	H 	0.03920 0.86730 0.76590 -0.02500
C 	C 	0.02250 0.85960 0.72990 -0.25600
H 	H 	0.03940 0.85680 0.72150 0.11900
C 	C 	0.95340 0.54430 0.81480 0.48100
C 	C 	0.97790 0.91700 0.85560 -0.41000
H 	H 	0.96100 0.91580 0.84690 0.17900
C 	C 	0.97770 0.92700 0.88210 0.33100
H 	H 	0.96090 0.92800 0.89100 -0.05700
O 	O 	0.97910 0.95680 0.93180 -0.58200
O 	O 	0.97118 0.52776 0.82316 -0.63400
O 	O 	0.02383 0.42056 0.74767 -0.62800
O 	O 	0.05217 0.44840 0.78932 -0.61600
C 	C 	0.02502 0.14719 0.67014 0.08500
C 	C 	0.03518 0.12115 0.67548 -0.10800
H 	H 	0.02800 0.11090 0.68990 0.07000
C 	C 	0.05603 0.11043 0.65935 -0.02200
H 	H 	0.06280 0.09300 0.66290 0.04100
C 	C 	0.06672 0.12574 0.63788 -0.00500
C 	C 	0.05656 0.15178 0.63253 -0.02200
H 	H 	0.06370 0.16200 0.61820 0.04000
C 	C 	0.03571 0.16251 0.64866 -0.10700
H 	H 	0.02890 0.17990 0.64510 0.07000
C 	C 	0.12514 0.09065 0.59040 0.11800
C 	C 	0.11752 0.06987 0.57251 -0.16600
H 	H 	0.09910 0.06540 0.57030 0.09200
C 	C 	0.13740 0.05569 0.55789 0.09500
H 	H 	0.13230 0.04180 0.54590 0.01700
C 	C 	0.16489 0.06229 0.56115 -0.16600
C 	C 	0.17250 0.08308 0.57904 0.10000
H 	H 	0.19090 0.08750 0.58120 0.01500
C 	C 	0.15263 0.09726 0.59366 -0.16900
H 	H 	0.15770 0.11120 0.60560 0.09300
C 	C 	0.10470 0.10530 0.60680 -0.06300
C 	C 	0.02446 0.36533 0.73390 0.10300
H 	H 	0.04110 0.37430 0.73620 0.01400
C 	C 	0.08920 0.11610 0.62000 0.01400
C 	C 	0.02441 0.33786 0.72640 -0.17800
H 	H 	0.04080 0.32910 0.72230 0.09600
C 	C 	0.97650 0.20214 0.69380 -0.12200
H 	H 	0.95990 0.19310 0.69170 0.07400
C 	C 	0.97620 0.22980 0.70050 -0.00700
H 	H 	0.95960 0.23880 0.70240 0.03500
C 	C 	0.97730 0.13200 0.75640 0.16000
H 	H 	0.96080 0.13270 0.76590 -0.02500
C 	C 	0.97750 0.14040 0.72990 -0.25600
H 	H 	0.96060 0.14320 0.72150 0.11900
C 	C 	0.04660 0.45570 0.81480 0.48100
C 	C 	0.02210 0.08300 0.85560 -0.41000
H 	H 	0.03900 0.08420 0.84690 0.17900
C 	C 	0.02230 0.07300 0.88210 0.33100
H 	H 	0.03910 0.07200 0.89100 -0.05700
O 	O 	0.02090 0.04320 0.93180 -0.58200
O 	O 	0.97118 0.47224 0.17684 -0.63400
O 	O 	0.02383 0.57944 0.25233 -0.62800
O 	O 	0.05217 0.55160 0.21068 -0.61600
C 	C 	0.02502 0.85281 0.32986 0.08500
C 	C 	0.03518 0.87885 0.32452 -0.10800
H 	H 	0.02800 0.88910 0.31010 0.07000
C 	C 	0.05603 0.88957 0.34065 -0.02200
H 	H 	0.06280 0.90700 0.33710 0.04100
C 	C 	0.06672 0.87426 0.36212 -0.00500
C 	C 	0.05656 0.84822 0.36747 -0.02200
H 	H 	0.06370 0.83800 0.38180 0.04000
C 	C 	0.03571 0.83749 0.35134 -0.10700
H 	H 	0.02890 0.82010 0.35490 0.07000
C 	C 	0.12514 0.90935 0.40960 0.11800
C 	C 	0.11752 0.93013 0.42749 -0.16600
H 	H 	0.09910 0.93460 0.42970 0.09200
C 	C 	0.13740 0.94431 0.44211 0.09500
H 	H 	0.13230 0.95820 0.45410 0.01700
C 	C 	0.16489 0.93771 0.43885 -0.16600
C 	C 	0.17250 0.91692 0.42096 0.10000
H 	H 	0.19090 0.91250 0.41880 0.01500
C 	C 	0.15263 0.90274 0.40634 -0.16900
H 	H 	0.15770 0.88880 0.39440 0.09300
C 	C 	0.10470 0.89470 0.39320 -0.06300
C 	C 	0.02446 0.63467 0.26610 0.10300
H 	H 	0.04110 0.62570 0.26380 0.01400
C 	C 	0.08920 0.88390 0.38000 0.01400
C 	C 	0.02441 0.66214 0.27360 -0.17800
H 	H 	0.04080 0.67090 0.27770 0.09600
C 	C 	0.97650 0.79786 0.30620 -0.12200
H 	H 	0.95990 0.80690 0.30830 0.07400
C 	C 	0.97620 0.77020 0.29950 -0.00700
H 	H 	0.95960 0.76120 0.29760 0.03500
C 	C 	0.97730 0.86800 0.24360 0.16000
H 	H 	0.96080 0.86730 0.23410 -0.02500
C 	C 	0.97750 0.85960 0.27010 -0.25600
H 	H 	0.96060 0.85680 0.27850 0.11900
C 	C 	0.04660 0.54430 0.18520 0.48100
C 	C 	0.02210 0.91700 0.14440 -0.41000
H 	H 	0.03900 0.91580 0.15310 0.17900
C 	C 	0.02230 0.92700 0.11790 0.33100
H 	H 	0.03910 0.92800 0.10900 -0.05700
O 	O 	0.02090 0.95680 0.06820 -0.58200
Zr	Zr	0.75000 0.03573 0.53573 3.21500
Zr	Zr	0.25000 0.96427 0.53573 3.21500
Zr	Zr	0.25000 0.03573 0.46427 3.21500
Zr	Zr	0.75000 0.96427 0.46427 3.21500
Zr	Zr	0.53573 0.75000 0.03573 3.21500
Zr	Zr	0.53573 0.25000 0.96427 3.21500
Zr	Zr	0.46427 0.25000 0.03573 3.21500
Zr	Zr	0.46427 0.75000 0.96427 3.21500
Zr	Zr	0.03573 0.53573 0.75000 3.21500
Zr	Zr	0.96427 0.53573 0.25000 3.21500
Zr	Zr	0.03573 0.46427 0.25000 3.21500
Zr	Zr	0.96427 0.46427 0.75000 3.21500
Zr	Zr	0.25000 0.96427 0.46427 3.21500
Zr	Zr	0.75000 0.03573 0.46427 3.21500
Zr	Zr	0.75000 0.96427 0.53573 3.21500
Zr	Zr	0.25000 0.03573 0.53573 3.21500
Zr	Zr	0.46427 0.25000 0.96427 3.21500
Zr	Zr	0.46427 0.75000 0.03573 3.21500
Zr	Zr	0.53573 0.75000 0.96427 3.21500
Zr	Zr	0.53573 0.25000 0.03573 3.21500
Zr	Zr	0.96427 0.46427 0.25000 3.21500
Zr	Zr	0.03573 0.46427 0.75000 3.21500
Zr	Zr	0.96427 0.53573 0.75000 3.21500
Zr	Zr	0.03573 0.53573 0.25000 3.21500
Zr	Zr	0.69952 -0.00000 0.50000 3.21000
Zr	Zr	0.30048 -0.00000 0.50000 3.21000
Zr	Zr	0.50000 0.69952 -0.00000 3.21000
Zr	Zr	0.50000 0.30048 -0.00000 3.21000
Zr	Zr	0.00000 0.50000 0.69952 3.21000
Zr	Zr	0.00000 0.50000 0.30048 3.21000
Zr	Zr	0.50000 0.19952 -0.00000 3.21000
Zr	Zr	0.50000 0.80048 -0.00000 3.21000
Zr	Zr	0.19952 -0.00000 0.50000 3.21000
Zr	Zr	0.80048 -0.00000 0.50000 3.21000
Zr	Zr	-0.00000 0.50000 0.80048 3.21000
Zr	Zr	-0.00000 0.50000 0.19952 3.21000
Zr	Zr	0.52776 0.47224 0.47224 3.32600
Zr	Zr	0.47224 0.52776 0.47224 3.32600
Zr	Zr	0.47224 0.47224 0.52776 3.32600
Zr	Zr	0.52776 0.52776 0.52776 3.32600
Zr	Zr	0.97224 0.02776 0.02776 3.32600
Zr	Zr	0.02776 0.97224 0.02776 3.32600
Zr	Zr	0.97224 0.97224 0.97224 3.32600
Zr	Zr	0.02776 0.02776 0.97224 3.32600
Zr	Zr	0.47224 0.52776 0.52776 3.32600
Zr	Zr	0.52776 0.47224 0.52776 3.32600
Zr	Zr	0.52776 0.52776 0.47224 3.32600
Zr	Zr	0.47224 0.47224 0.47224 3.32600
Zr	Zr	0.02776 0.97224 0.97224 3.32600
Zr	Zr	0.97224 0.02776 0.97224 3.32600
Zr	Zr	0.02776 0.02776 0.02776 3.32600
Zr	Zr	0.97224 0.97224 0.02776 3.32600
O 	O 	0.72192 0.04046 0.50000 -1.04500
C 	C 	0.80960 0.31230 0.50000 0.10000
C 	C 	0.75494 0.09046 0.50000 0.48400
C 	C 	0.76210 0.12010 0.50000 -0.17100
C 	C 	0.81256 0.34345 0.50000 -0.15400
C 	C 	0.78420 0.20340 0.50000 -0.07900
C 	C 	0.77510 0.17670 0.50000 0.13500
C 	C 	0.79570 0.25580 0.50000 -0.01800
C 	C 	0.78970 0.22640 0.50000 0.02500
C 	C 	0.78520 0.35515 0.50000 0.20400
C 	C 	0.73000 0.37740 0.50000 -0.22600
C 	C 	0.70420 0.38980 0.50000 0.28000
C 	C 	0.65880 0.40880 0.50000 0.40100
C 	C 	0.68550 0.39860 0.50000 -0.34400
C 	C 	0.60380 0.43540 0.50000 -0.37900
C 	C 	0.57600 0.44630 0.50000 0.68900
O 	O 	0.52279 0.45688 0.50000 -1.70200
O 	O 	0.27808 0.95954 0.50000 -1.04500
C 	C 	0.19040 0.68770 0.50000 0.10000
C 	C 	0.24506 0.90954 0.50000 0.48400
C 	C 	0.23790 0.87990 0.50000 -0.17100
C 	C 	0.18744 0.65655 0.50000 -0.15400
C 	C 	0.21580 0.79660 0.50000 -0.07900
C 	C 	0.22490 0.82330 0.50000 0.13500
C 	C 	0.20430 0.74420 0.50000 -0.01800
C 	C 	0.21030 0.77360 0.50000 0.02500
C 	C 	0.21480 0.64485 0.50000 0.20400
C 	C 	0.27000 0.62260 0.50000 -0.22600
C 	C 	0.29580 0.61020 0.50000 0.28000
C 	C 	0.34120 0.59120 0.50000 0.40100
C 	C 	0.31450 0.60140 0.50000 -0.34400
C 	C 	0.39620 0.56460 0.50000 -0.37900
C 	C 	0.42400 0.55370 0.50000 0.68900
O 	O 	0.47721 0.54312 0.50000 -1.70200
O 	O 	0.27808 0.04046 0.50000 -1.04500
C 	C 	0.19040 0.31230 0.50000 0.10000
C 	C 	0.24506 0.09046 0.50000 0.48400
C 	C 	0.23790 0.12010 0.50000 -0.17100
C 	C 	0.18744 0.34345 0.50000 -0.15400
C 	C 	0.21580 0.20340 0.50000 -0.07900
C 	C 	0.22490 0.17670 0.50000 0.13500
C 	C 	0.20430 0.25580 0.50000 -0.01800
C 	C 	0.21030 0.22640 0.50000 0.02500
C 	C 	0.21480 0.35515 0.50000 0.20400
C 	C 	0.27000 0.37740 0.50000 -0.22600
C 	C 	0.29580 0.38980 0.50000 0.28000
C 	C 	0.34120 0.40880 0.50000 0.40100
C 	C 	0.31450 0.39860 0.50000 -0.34400
C 	C 	0.39620 0.43540 0.50000 -0.37900
C 	C 	0.42400 0.44630 0.50000 0.68900
O 	O 	0.47721 0.45688 0.50000 -1.70200
O 	O 	0.72192 0.95954 0.50000 -1.04500
C 	C 	0.80960 0.68770 0.50000 0.10000
C 	C 	0.75494 0.90954 0.50000 0.48400
C 	C 	0.76210 0.87990 0.50000 -0.17100
C 	C 	0.81256 0.65655 0.50000 -0.15400
C 	C 	0.78420 0.79660 0.50000 -0.07900
C 	C 	0.77510 0.82330 0.50000 0.13500
C 	C 	0.79570 0.74420 0.50000 -0.01800
C 	C 	0.78970 0.77360 0.50000 0.02500
C 	C 	0.78520 0.64485 0.50000 0.20400
C 	C 	0.73000 0.62260 0.50000 -0.22600
C 	C 	0.70420 0.61020 0.50000 0.28000
C 	C 	0.65880 0.59120 0.50000 0.40100
C 	C 	0.68550 0.60140 0.50000 -0.34400
C 	C 	0.60380 0.56460 0.50000 -0.37900
C 	C 	0.57600 0.55370 0.50000 0.68900
O 	O 	0.52279 0.54312 0.50000 -1.70200
O 	O 	0.50000 0.72192 0.04046 -1.04500
C 	C 	0.50000 0.80960 0.31230 0.10000
C 	C 	0.50000 0.75494 0.09046 0.48400
C 	C 	0.50000 0.76210 0.12010 -0.17100
C 	C 	0.50000 0.81256 0.34345 -0.15400
C 	C 	0.50000 0.78420 0.20340 -0.07900
C 	C 	0.50000 0.77510 0.17670 0.13500
C 	C 	0.50000 0.79570 0.25580 -0.01800
C 	C 	0.50000 0.78970 0.22640 0.02500
C 	C 	0.50000 0.78520 0.35515 0.20400
C 	C 	0.50000 0.73000 0.37740 -0.22600
C 	C 	0.50000 0.70420 0.38980 0.28000
C 	C 	0.50000 0.65880 0.40880 0.40100
C 	C 	0.50000 0.68550 0.39860 -0.34400
C 	C 	0.50000 0.60380 0.43540 -0.37900
C 	C 	0.50000 0.57600 0.44630 0.68900
O 	O 	0.50000 0.52279 0.45688 -1.70200
O 	O 	0.50000 0.27808 0.95954 -1.04500
C 	C 	0.50000 0.19040 0.68770 0.10000
C 	C 	0.50000 0.24506 0.90954 0.48400
C 	C 	0.50000 0.23790 0.87990 -0.17100
C 	C 	0.50000 0.18744 0.65655 -0.15400
C 	C 	0.50000 0.21580 0.79660 -0.07900
C 	C 	0.50000 0.22490 0.82330 0.13500
C 	C 	0.50000 0.20430 0.74420 -0.01800
C 	C 	0.50000 0.21030 0.77360 0.02500
C 	C 	0.50000 0.21480 0.64485 0.20400
C 	C 	0.50000 0.27000 0.62260 -0.22600
C 	C 	0.50000 0.29580 0.61020 0.28000
C 	C 	0.50000 0.34120 0.59120 0.40100
C 	C 	0.50000 0.31450 0.60140 -0.34400
C 	C 	0.50000 0.39620 0.56460 -0.37900
C 	C 	0.50000 0.42400 0.55370 0.68900
O 	O 	0.50000 0.47721 0.54312 -1.70200
O 	O 	0.50000 0.27808 0.04046 -1.04500
C 	C 	0.50000 0.19040 0.31230 0.10000
C 	C 	0.50000 0.24506 0.09046 0.48400
C 	C 	0.50000 0.23790 0.12010 -0.17100
C 	C 	0.50000 0.18744 0.34345 -0.15400
C 	C 	0.50000 0.21580 0.20340 -0.07900
C 	C 	0.50000 0.22490 0.17670 0.13500
C 	C 	0.50000 0.20430 0.25580 -0.01800
C 	C 	0.50000 0.21030 0.22640 0.02500
C 	C 	0.50000 0.21480 0.35515 0.20400
C 	C 	0.50000 0.27000 0.37740 -0.22600
C 	C 	0.50000 0.29580 0.38980 0.28000
C 	C 	0.50000 0.34120 0.40880 0.40100
C 	C 	0.50000 0.31450 0.39860 -0.34400
C 	C 	0.50000 0.39620 0.43540 -0.37900
C 	C 	0.50000 0.42400 0.44630 0.68900
O 	O 	0.50000 0.47721 0.45688 -1.70200
O 	O 	0.50000 0.72192 0.95954 -1.04500
C 	C 	0.50000 0.80960 0.68770 0.10000
C 	C 	0.50000 0.75494 0.90954 0.48400
C 	C 	0.50000 0.76210 0.87990 -0.17100
C 	C 	0.50000 0.81256 0.65655 -0.15400
C 	C 	0.50000 0.78420 0.79660 -0.07900
C 	C 	0.50000 0.77510 0.82330 0.13500
C 	C 	0.50000 0.79570 0.74420 -0.01800
C 	C 	0.50000 0.78970 0.77360 0.02500
C 	C 	0.50000 0.78520 0.64485 0.20400
C 	C 	0.50000 0.73000 0.62260 -0.22600
C 	C 	0.50000 0.70420 0.61020 0.28000
C 	C 	0.50000 0.65880 0.59120 0.40100
C 	C 	0.50000 0.68550 0.60140 -0.34400
C 	C 	0.50000 0.60380 0.56460 -0.37900
C 	C 	0.50000 0.57600 0.55370 0.68900
O 	O 	0.50000 0.52279 0.54312 -1.70200
O 	O 	0.04046 0.50000 0.72192 -1.04500
C 	C 	0.31230 0.50000 0.80960 0.10000
C 	C 	0.09046 0.50000 0.75494 0.48400
C 	C 	0.12010 0.50000 0.76210 -0.17100
C 	C 	0.34345 0.50000 0.81256 -0.15400
C 	C 	0.20340 0.50000 0.78420 -0.07900
C 	C 	0.17670 0.50000 0.77510 0.13500
C 	C 	0.25580 0.50000 0.79570 -0.01800
C 	C 	0.22640 0.50000 0.78970 0.02500
C 	C 	0.35515 0.50000 0.78520 0.20400
C 	C 	0.37740 0.50000 0.73000 -0.22600
C 	C 	0.38980 0.50000 0.70420 0.28000
C 	C 	0.40880 0.50000 0.65880 0.40100
C 	C 	0.39860 0.50000 0.68550 -0.34400
C 	C 	0.43540 0.50000 0.60380 -0.37900
C 	C 	0.44630 0.50000 0.57600 0.68900
O 	O 	0.45688 0.50000 0.52279 -1.70200
O 	O 	0.95954 0.50000 0.27808 -1.04500
C 	C 	0.68770 0.50000 0.19040 0.10000
C 	C 	0.90954 0.50000 0.24506 0.48400
C 	C 	0.87990 0.50000 0.23790 -0.17100
C 	C 	0.65655 0.50000 0.18744 -0.15400
C 	C 	0.79660 0.50000 0.21580 -0.07900
C 	C 	0.82330 0.50000 0.22490 0.13500
C 	C 	0.74420 0.50000 0.20430 -0.01800
C 	C 	0.77360 0.50000 0.21030 0.02500
C 	C 	0.64485 0.50000 0.21480 0.20400
C 	C 	0.62260 0.50000 0.27000 -0.22600
C 	C 	0.61020 0.50000 0.29580 0.28000
C 	C 	0.59120 0.50000 0.34120 0.40100
C 	C 	0.60140 0.50000 0.31450 -0.34400
C 	C 	0.56460 0.50000 0.39620 -0.37900
C 	C 	0.55370 0.50000 0.42400 0.68900
O 	O 	0.54312 0.50000 0.47721 -1.70200
O 	O 	0.04046 0.50000 0.27808 -1.04500
C 	C 	0.31230 0.50000 0.19040 0.10000
C 	C 	0.09046 0.50000 0.24506 0.48400
C 	C 	0.12010 0.50000 0.23790 -0.17100
C 	C 	0.34345 0.50000 0.18744 -0.15400
C 	C 	0.20340 0.50000 0.21580 -0.07900
C 	C 	0.17670 0.50000 0.22490 0.13500
C 	C 	0.25580 0.50000 0.20430 -0.01800
C 	C 	0.22640 0.50000 0.21030 0.02500
C 	C 	0.35515 0.50000 0.21480 0.20400
C 	C 	0.37740 0.50000 0.27000 -0.22600
C 	C 	0.38980 0.50000 0.29580 0.28000
C 	C 	0.40880 0.50000 0.34120 0.40100
C 	C 	0.39860 0.50000 0.31450 -0.34400
C 	C 	0.43540 0.50000 0.39620 -0.37900
C 	C 	0.44630 0.50000 0.42400 0.68900
O 	O 	0.45688 0.50000 0.47721 -1.70200
O 	O 	0.95954 0.50000 0.72192 -1.04500
C 	C 	0.68770 0.50000 0.80960 0.10000
C 	C 	0.90954 0.50000 0.75494 0.48400
C 	C 	0.87990 0.50000 0.76210 -0.17100
C 	C 	0.65655 0.50000 0.81256 -0.15400
C 	C 	0.79660 0.50000 0.78420 -0.07900
C 	C 	0.82330 0.50000 0.77510 0.13500
C 	C 	0.74420 0.50000 0.79570 -0.01800
C 	C 	0.77360 0.50000 0.78970 0.02500
C 	C 	0.64485 0.50000 0.78520 0.20400
C 	C 	0.62260 0.50000 0.73000 -0.22600
C 	C 	0.61020 0.50000 0.70420 0.28000
C 	C 	0.59120 0.50000 0.65880 0.40100
C 	C 	0.60140 0.50000 0.68550 -0.34400
C 	C 	0.56460 0.50000 0.60380 -0.37900
C 	C 	0.55370 0.50000 0.57600 0.68900
O 	O 	0.54312 0.50000 0.52279 -1.70200
O 	O 	0.54046 0.22192 -0.00000 -1.04500
C 	C 	0.81230 0.30960 -0.00000 0.10000
C 	C 	0.59046 0.25494 -0.00000 0.48400
C 	C 	0.62010 0.26210 -0.00000 -0.17100
C 	C 	0.84345 0.31256 -0.00000 -0.15400
C 	C 	0.70340 0.28420 -0.00000 -0.07900
C 	C 	0.67670 0.27510 -0.00000 0.13500
C 	C 	0.75580 0.29570 -0.00000 -0.01800
C 	C 	0.72640 0.28970 -0.00000 0.02500
C 	C 	0.85515 0.28520 -0.00000 0.20400
C 	C 	0.87740 0.23000 -0.00000 -0.22600
C 	C 	0.88980 0.20420 -0.00000 0.28000
C 	C 	0.90880 0.15880 -0.00000 0.40100
C 	C 	0.89860 0.18550 -0.00000 -0.34400
C 	C 	0.93540 0.10380 -0.00000 -0.37900
C 	C 	0.94630 0.07600 -0.00000 0.68900
O 	O 	0.95688 0.02279 -0.00000 -1.70200
O 	O 	0.45954 0.77808 -0.00000 -1.04500
C 	C 	0.18770 0.69040 -0.00000 0.10000
C 	C 	0.40954 0.74506 -0.00000 0.48400
C 	C 	0.37990 0.73790 -0.00000 -0.17100
C 	C 	0.15655 0.68744 -0.00000 -0.15400
C 	C 	0.29660 0.71580 -0.00000 -0.07900
C 	C 	0.32330 0.72490 -0.00000 0.13500
C 	C 	0.24420 0.70430 -0.00000 -0.01800
C 	C 	0.27360 0.71030 -0.00000 0.02500
C 	C 	0.14485 0.71480 -0.00000 0.20400
C 	C 	0.12260 0.77000 -0.00000 -0.22600
C 	C 	0.11020 0.79580 -0.00000 0.28000
C 	C 	0.09120 0.84120 -0.00000 0.40100
C 	C 	0.10140 0.81450 -0.00000 -0.34400
C 	C 	0.06460 0.89620 -0.00000 -0.37900
C 	C 	0.05370 0.92400 -0.00000 0.68900
O 	O 	0.04312 0.97721 -0.00000 -1.70200
O 	O 	0.54046 0.77808 -0.00000 -1.04500
C 	C 	0.81230 0.69040 -0.00000 0.10000
C 	C 	0.59046 0.74506 -0.00000 0.48400
C 	C 	0.62010 0.73790 -0.00000 -0.17100
C 	C 	0.84345 0.68744 -0.00000 -0.15400
C 	C 	0.70340 0.71580 -0.00000 -0.07900
C 	C 	0.67670 0.72490 -0.00000 0.13500
C 	C 	0.75580 0.70430 -0.00000 -0.01800
C 	C 	0.72640 0.71030 -0.00000 0.02500
C 	C 	0.85515 0.71480 -0.00000 0.20400
C 	C 	0.87740 0.77000 -0.00000 -0.22600
C 	C 	0.88980 0.79580 -0.00000 0.28000
C 	C 	0.90880 0.84120 -0.00000 0.40100
C 	C 	0.89860 0.81450 -0.00000 -0.34400
C 	C 	0.93540 0.89620 -0.00000 -0.37900
C 	C 	0.94630 0.92400 -0.00000 0.68900
O 	O 	0.95688 0.97721 -0.00000 -1.70200
O 	O 	0.45954 0.22192 -0.00000 -1.04500
C 	C 	0.18770 0.30960 -0.00000 0.10000
C 	C 	0.40954 0.25494 -0.00000 0.48400
C 	C 	0.37990 0.26210 -0.00000 -0.17100
C 	C 	0.15655 0.31256 -0.00000 -0.15400
C 	C 	0.29660 0.28420 -0.00000 -0.07900
C 	C 	0.32330 0.27510 -0.00000 0.13500
C 	C 	0.24420 0.29570 -0.00000 -0.01800
C 	C 	0.27360 0.28970 -0.00000 0.02500
C 	C 	0.14485 0.28520 -0.00000 0.20400
C 	C 	0.12260 0.23000 -0.00000 -0.22600
C 	C 	0.11020 0.20420 -0.00000 0.28000
C 	C 	0.09120 0.15880 -0.00000 0.40100
C 	C 	0.10140 0.18550 -0.00000 -0.34400
C 	C 	0.06460 0.10380 -0.00000 -0.37900
C 	C 	0.05370 0.07600 -0.00000 0.68900
O 	O 	0.04312 0.02279 -0.00000 -1.70200
O 	O 	0.22192 -0.00000 0.45954 -1.04500
C 	C 	0.30960 -0.00000 0.18770 0.10000
C 	C 	0.25494 -0.00000 0.40954 0.48400
C 	C 	0.26210 0.00000 0.37990 -0.17100
C 	C 	0.31256 -0.00000 0.15655 -0.15400
C 	C 	0.28420 -0.00000 0.29660 -0.07900
C 	C 	0.27510 0.00000 0.32330 0.13500
C 	C 	0.29570 0.00000 0.24420 -0.01800
C 	C 	0.28970 0.00000 0.27360 0.02500
C 	C 	0.28520 0.00000 0.14485 0.20400
C 	C 	0.23000 0.00000 0.12260 -0.22600
C 	C 	0.20420 -0.00000 0.11020 0.28000
C 	C 	0.15880 -0.00000 0.09120 0.40100
C 	C 	0.18550 0.00000 0.10140 -0.34400
C 	C 	0.10380 0.00000 0.06460 -0.37900
C 	C 	0.07600 0.00000 0.05370 0.68900
O 	O 	0.02279 0.00000 0.04312 -1.70200
O 	O 	0.77808 0.00000 0.54046 -1.04500
C 	C 	0.69040 0.00000 0.81230 0.10000
C 	C 	0.74506 0.00000 0.59046 0.48400
C 	C 	0.73790 0.00000 0.62010 -0.17100
C 	C 	0.68744 0.00000 0.84345 -0.15400
C 	C 	0.71580 0.00000 0.70340 -0.07900
C 	C 	0.72490 0.00000 0.67670 0.13500
C 	C 	0.70430 0.00000 0.75580 -0.01800
C 	C 	0.71030 0.00000 0.72640 0.02500
C 	C 	0.71480 -0.00000 0.85515 0.20400
C 	C 	0.77000 -0.00000 0.87740 -0.22600
C 	C 	0.79580 -0.00000 0.88980 0.28000
C 	C 	0.84120 -0.00000 0.90880 0.40100
C 	C 	0.81450 0.00000 0.89860 -0.34400
C 	C 	0.89620 -0.00000 0.93540 -0.37900
C 	C 	0.92400 0.00000 0.94630 0.68900
O 	O 	0.97721 -0.00000 0.95688 -1.70200
O 	O 	0.77808 -0.00000 0.45954 -1.04500
C 	C 	0.69040 -0.00000 0.18770 0.10000
C 	C 	0.74506 -0.00000 0.40954 0.48400
C 	C 	0.73790 0.00000 0.37990 -0.17100
C 	C 	0.68744 -0.00000 0.15655 -0.15400
C 	C 	0.71580 -0.00000 0.29660 -0.07900
C 	C 	0.72490 0.00000 0.32330 0.13500
C 	C 	0.70430 0.00000 0.24420 -0.01800
C 	C 	0.71030 0.00000 0.27360 0.02500
C 	C 	0.71480 0.00000 0.14485 0.20400
C 	C 	0.77000 0.00000 0.12260 -0.22600
C 	C 	0.79580 -0.00000 0.11020 0.28000
C 	C 	0.84120 -0.00000 0.09120 0.40100
C 	C 	0.81450 0.00000 0.10140 -0.34400
C 	C 	0.89620 0.00000 0.06460 -0.37900
C 	C 	0.92400 0.00000 0.05370 0.68900
O 	O 	0.97721 0.00000 0.04312 -1.70200
O 	O 	0.22192 0.00000 0.54046 -1.04500
C 	C 	0.30960 0.00000 0.81230 0.10000
C 	C 	0.25494 0.00000 0.59046 0.48400
C 	C 	0.26210 0.00000 0.62010 -0.17100
C 	C 	0.31256 0.00000 0.84345 -0.15400
C 	C 	0.28420 0.00000 0.70340 -0.07900
C 	C 	0.27510 0.00000 0.67670 0.13500
C 	C 	0.29570 0.00000 0.75580 -0.01800
C 	C 	0.28970 0.00000 0.72640 0.02500
C 	C 	0.28520 -0.00000 0.85515 0.20400
C 	C 	0.23000 -0.00000 0.87740 -0.22600
C 	C 	0.20420 -0.00000 0.88980 0.28000
C 	C 	0.15880 -0.00000 0.90880 0.40100
C 	C 	0.18550 0.00000 0.89860 -0.34400
C 	C 	0.10380 -0.00000 0.93540 -0.37900
C 	C 	0.07600 0.00000 0.94630 0.68900
O 	O 	0.02279 -0.00000 0.95688 -1.70200
O 	O 	-0.00000 0.54046 0.77808 -1.04500
C 	C 	0.00000 0.81230 0.69040 0.10000
C 	C 	0.00000 0.59046 0.74506 0.48400
C 	C 	-0.00000 0.62010 0.73790 -0.17100
C 	C 	-0.00000 0.84345 0.68744 -0.15400
C 	C 	0.00000 0.70340 0.71580 -0.07900
C 	C 	-0.00000 0.67670 0.72490 0.13500
C 	C 	0.00000 0.75580 0.70430 -0.01800
C 	C 	0.00000 0.72640 0.71030 0.02500
C 	C 	-0.00000 0.85515 0.71480 0.20400
C 	C 	-0.00000 0.87740 0.77000 -0.22600
C 	C 	-0.00000 0.88980 0.79580 0.28000
C 	C 	-0.00000 0.90880 0.84120 0.40100
C 	C 	0.00000 0.89860 0.81450 -0.34400
C 	C 	0.00000 0.93540 0.89620 -0.37900
C 	C 	-0.00000 0.94630 0.92400 0.68900
O 	O 	-0.00000 0.95688 0.97721 -1.70200
O 	O 	-0.00000 0.45954 0.22192 -1.04500
C 	C 	-0.00000 0.18770 0.30960 0.10000
C 	C 	-0.00000 0.40954 0.25494 0.48400
C 	C 	-0.00000 0.37990 0.26210 -0.17100
C 	C 	-0.00000 0.15655 0.31256 -0.15400
C 	C 	0.00000 0.29660 0.28420 -0.07900
C 	C 	0.00000 0.32330 0.27510 0.13500
C 	C 	-0.00000 0.24420 0.29570 -0.01800
C 	C 	0.00000 0.27360 0.28970 0.02500
C 	C 	0.00000 0.14485 0.28520 0.20400
C 	C 	-0.00000 0.12260 0.23000 -0.22600
C 	C 	0.00000 0.11020 0.20420 0.28000
C 	C 	-0.00000 0.09120 0.15880 0.40100
C 	C 	-0.00000 0.10140 0.18550 -0.34400
C 	C 	0.00000 0.06460 0.10380 -0.37900
C 	C 	-0.00000 0.05370 0.07600 0.68900
O 	O 	-0.00000 0.04312 0.02279 -1.70200
O 	O 	-0.00000 0.54046 0.22192 -1.04500
C 	C 	0.00000 0.81230 0.30960 0.10000
C 	C 	-0.00000 0.59046 0.25494 0.48400
C 	C 	-0.00000 0.62010 0.26210 -0.17100
C 	C 	0.00000 0.84345 0.31256 -0.15400
C 	C 	0.00000 0.70340 0.28420 -0.07900
C 	C 	-0.00000 0.67670 0.27510 0.13500
C 	C 	-0.00000 0.75580 0.29570 -0.01800
C 	C 	0.00000 0.72640 0.28970 0.02500
C 	C 	-0.00000 0.85515 0.28520 0.20400
C 	C 	-0.00000 0.87740 0.23000 -0.22600
C 	C 	-0.00000 0.88980 0.20420 0.28000
C 	C 	0.00000 0.90880 0.15880 0.40100
C 	C 	0.00000 0.89860 0.18550 -0.34400
C 	C 	-0.00000 0.93540 0.10380 -0.37900
C 	C 	-0.00000 0.94630 0.07600 0.68900
O 	O 	-0.00000 0.95688 0.02279 -1.70200
O 	O 	-0.00000 0.45954 0.77808 -1.04500
C 	C 	-0.00000 0.18770 0.69040 0.10000
C 	C 	-0.00000 0.40954 0.74506 0.48400
C 	C 	-0.00000 0.37990 0.73790 -0.17100
C 	C 	-0.00000 0.15655 0.68744 -0.15400
C 	C 	-0.00000 0.29660 0.71580 -0.07900
C 	C 	0.00000 0.32330 0.72490 0.13500
C 	C 	0.00000 0.24420 0.70430 -0.01800
C 	C 	-0.00000 0.27360 0.71030 0.02500
C 	C 	-0.00000 0.14485 0.71480 0.20400
C 	C 	-0.00000 0.12260 0.77000 -0.22600
C 	C 	-0.00000 0.11020 0.79580 0.28000
C 	C 	-0.00000 0.09120 0.84120 0.40100
C 	C 	0.00000 0.10140 0.81450 -0.34400
C 	C 	-0.00000 0.06460 0.89620 -0.37900
C 	C 	-0.00000 0.05370 0.92400 0.68900
O 	O 	0.00000 0.04312 0.97721 -1.70200
O 	O 	0.72830 0.00000 0.53103 -1.43500
O 	O 	0.27170 0.00000 0.53103 -1.43500
O 	O 	0.27170 0.00000 0.46897 -1.43500
O 	O 	0.72830 0.00000 0.46897 -1.43500
O 	O 	0.53103 0.72830 -0.00000 -1.43500
O 	O 	0.53103 0.27170 -0.00000 -1.43500
O 	O 	0.46897 0.27170 -0.00000 -1.43500
O 	O 	0.46897 0.72830 -0.00000 -1.43500
O 	O 	-0.00000 0.53103 0.72830 -1.43500
O 	O 	-0.00000 0.53103 0.27170 -1.43500
O 	O 	-0.00000 0.46897 0.27170 -1.43500
O 	O 	0.00000 0.46897 0.72830 -1.43500
O 	O 	0.50000 0.22830 0.96897 -1.43500
O 	O 	0.50000 0.77170 0.96897 -1.43500
O 	O 	0.50000 0.77170 0.03103 -1.43500
O 	O 	0.50000 0.22830 0.03103 -1.43500
O 	O 	0.22830 0.03103 0.50000 -1.43500
O 	O 	0.77170 0.03103 0.50000 -1.43500
O 	O 	0.77170 0.96897 0.50000 -1.43500
O 	O 	0.22830 0.96897 0.50000 -1.43500
O 	O 	0.03103 0.50000 0.77170 -1.43500
O 	O 	0.03103 0.50000 0.22830 -1.43500
O 	O 	0.96897 0.50000 0.22830 -1.43500
O 	O 	0.96897 0.50000 0.77170 -1.43500
