data_crystal

_cell_length_a 26.72130
_cell_length_b 26.72130
_cell_length_c 26.72130
_cell_angle_alpha 90.00000
_cell_angle_beta  90.00000
_cell_angle_gamma 90.00000

_symmetry_space_group_name_	'P 1'
_symmetry_space_group_name_H-M	'P 1'

loop_
_symmetry_equiv_pos_as_xyz
  x,y,z

loop_
_atom_site_label
_atom_site_type_symbol
_atom_site_fract_x
_atom_site_fract_y
_atom_site_fract_z
_atom_site_charge
C 	C 	0.20600 0.14450 0.01200 -0.13300
H 	H 	0.21190 0.10860 0.02160 0.06000
C 	C 	0.24220 0.18150 0.01280 -0.48600
C 	C 	0.20600 0.64450 0.51200 0.03400
H 	H 	0.21190 0.60860 0.52160 0.02000
C 	C 	0.24220 0.68150 0.51280 -0.12300
C 	C 	0.70600 0.14450 0.51200 0.03500
H 	H 	0.71190 0.10860 0.52160 0.02000
C 	C 	0.74220 0.18150 0.51280 -0.12300
C 	C 	0.70600 0.64450 0.01200 -0.11600
H 	H 	0.71190 0.60860 0.02160 0.05500
C 	C 	0.74220 0.68150 0.01280 -0.44800
C 	C 	0.79400 0.85550 0.01200 -0.11600
H 	H 	0.78810 0.89140 0.02160 0.05600
C 	C 	0.75780 0.81850 0.01280 -0.43700
C 	C 	0.79400 0.35550 0.51200 0.03400
H 	H 	0.78810 0.39140 0.52160 0.01900
C 	C 	0.75780 0.31850 0.51280 -0.12400
C 	C 	0.29400 0.85550 0.51200 0.03300
H 	H 	0.28810 0.89140 0.52160 0.02100
C 	C 	0.25780 0.81850 0.51280 -0.12300
C 	C 	0.29400 0.35550 0.01200 -0.13300
H 	H 	0.28810 0.39140 0.02160 0.05900
C 	C 	0.25780 0.31850 0.01280 -0.48100
C 	C 	0.79400 0.14450 0.98800 0.21700
H 	H 	0.78810 0.10860 0.97840 -0.02000
C 	C 	0.75780 0.18150 0.98720 0.23600
C 	C 	0.79400 0.64450 0.48800 0.03400
H 	H 	0.78810 0.60860 0.47840 0.01900
C 	C 	0.75780 0.68150 0.48720 -0.12200
C 	C 	0.29400 0.14450 0.48800 0.03700
H 	H 	0.28810 0.10860 0.47840 0.02000
C 	C 	0.25780 0.18150 0.48720 -0.12100
C 	C 	0.29400 0.64450 0.98800 0.21700
H 	H 	0.28810 0.60860 0.97840 -0.02000
C 	C 	0.25780 0.68150 0.98720 0.23800
C 	C 	0.20600 0.85550 0.98800 0.20700
H 	H 	0.21190 0.89140 0.97840 -0.01500
C 	C 	0.24220 0.81850 0.98720 0.22100
C 	C 	0.20600 0.35550 0.48800 0.03700
H 	H 	0.21190 0.39140 0.47840 0.02100
C 	C 	0.24220 0.31850 0.48720 -0.12000
C 	C 	0.70600 0.85550 0.48800 0.03400
H 	H 	0.71190 0.89140 0.47840 0.02200
C 	C 	0.74220 0.81850 0.48720 -0.12000
C 	C 	0.70600 0.35550 0.98800 0.20900
H 	H 	0.71190 0.39140 0.97840 -0.01700
C 	C 	0.74220 0.31850 0.98720 0.22300
C 	C 	0.01200 0.20600 0.14450 -0.13200
H 	H 	0.02160 0.21190 0.10860 0.06100
C 	C 	0.01280 0.24220 0.18150 -0.48500
C 	C 	0.01200 0.70600 0.64450 -0.11500
H 	H 	0.02160 0.71190 0.60860 0.05600
C 	C 	0.01280 0.74220 0.68150 -0.44700
C 	C 	0.51200 0.20600 0.64450 0.03500
H 	H 	0.52160 0.21190 0.60860 0.02100
C 	C 	0.51280 0.24220 0.68150 -0.12200
C 	C 	0.51200 0.70600 0.14450 0.03600
H 	H 	0.52160 0.71190 0.10860 0.02100
C 	C 	0.51280 0.74220 0.18150 -0.12200
C 	C 	0.01200 0.79400 0.85550 -0.11500
H 	H 	0.02160 0.78810 0.89140 0.05700
C 	C 	0.01280 0.75780 0.81850 -0.43600
C 	C 	0.01200 0.29400 0.35550 -0.13200
H 	H 	0.02160 0.28810 0.39140 0.06000
C 	C 	0.01280 0.25780 0.31850 -0.48000
C 	C 	0.51200 0.79400 0.35550 0.03500
H 	H 	0.52160 0.78810 0.39140 0.02000
C 	C 	0.51280 0.75780 0.31850 -0.12300
C 	C 	0.51200 0.29400 0.85550 0.03400
H 	H 	0.52160 0.28810 0.89140 0.02200
C 	C 	0.51280 0.25780 0.81850 -0.12200
C 	C 	0.98800 0.79400 0.14450 0.21800
H 	H 	0.97840 0.78810 0.10860 -0.01900
C 	C 	0.98720 0.75780 0.18150 0.23700
C 	C 	0.98800 0.29400 0.64450 0.21800
H 	H 	0.97840 0.28810 0.60860 -0.01900
C 	C 	0.98720 0.25780 0.68150 0.23900
C 	C 	0.48800 0.79400 0.64450 0.03500
H 	H 	0.47840 0.78810 0.60860 0.02000
C 	C 	0.48720 0.75780 0.68150 -0.12100
C 	C 	0.48800 0.29400 0.14450 0.03800
H 	H 	0.47840 0.28810 0.10860 0.02100
C 	C 	0.48720 0.25780 0.18150 -0.12000
C 	C 	0.98800 0.20600 0.85550 0.20700
H 	H 	0.97840 0.21190 0.89140 -0.01500
C 	C 	0.98720 0.24220 0.81850 0.22100
C 	C 	0.98800 0.70600 0.35550 0.20900
H 	H 	0.97840 0.71190 0.39140 -0.01700
C 	C 	0.98720 0.74220 0.31850 0.22300
C 	C 	0.48800 0.20600 0.35550 0.03700
H 	H 	0.47840 0.21190 0.39140 0.02100
C 	C 	0.48720 0.24220 0.31850 -0.12000
C 	C 	0.48800 0.70600 0.85550 0.03400
H 	H 	0.47840 0.71190 0.89140 0.02200
C 	C 	0.48720 0.74220 0.81850 -0.12000
C 	C 	0.14450 0.01200 0.20600 -0.13200
H 	H 	0.10860 0.02160 0.21190 0.06100
C 	C 	0.18150 0.01280 0.24220 -0.48500
C 	C 	0.14450 0.51200 0.70600 0.03600
H 	H 	0.10860 0.52160 0.71190 0.02100
C 	C 	0.18150 0.51280 0.74220 -0.12200
C 	C 	0.64450 0.01200 0.70600 -0.11500
H 	H 	0.60860 0.02160 0.71190 0.05600
C 	C 	0.68150 0.01280 0.74220 -0.44700
C 	C 	0.64450 0.51200 0.20600 0.03500
H 	H 	0.60860 0.52160 0.21190 0.02100
C 	C 	0.68150 0.51280 0.24220 -0.12200
C 	C 	0.85550 0.01200 0.79400 -0.11500
H 	H 	0.89140 0.02160 0.78810 0.05700
C 	C 	0.81850 0.01280 0.75780 -0.43600
C 	C 	0.85550 0.51200 0.29400 0.03400
H 	H 	0.89140 0.52160 0.28810 0.02200
C 	C 	0.81850 0.51280 0.25780 -0.12200
C 	C 	0.35550 0.01200 0.29400 -0.13200
H 	H 	0.39140 0.02160 0.28810 0.06000
C 	C 	0.31850 0.01280 0.25780 -0.48000
C 	C 	0.35550 0.51200 0.79400 0.03500
H 	H 	0.39140 0.52160 0.78810 0.02000
C 	C 	0.31850 0.51280 0.75780 -0.12300
C 	C 	0.14450 0.98800 0.79400 0.21800
H 	H 	0.10860 0.97840 0.78810 -0.01900
C 	C 	0.18150 0.98720 0.75780 0.23700
C 	C 	0.14450 0.48800 0.29400 0.03800
H 	H 	0.10860 0.47840 0.28810 0.02100
C 	C 	0.18150 0.48720 0.25780 -0.12000
C 	C 	0.64450 0.98800 0.29400 0.21800
H 	H 	0.60860 0.97840 0.28810 -0.01900
C 	C 	0.68150 0.98720 0.25780 0.23900
C 	C 	0.64450 0.48800 0.79400 0.03500
H 	H 	0.60860 0.47840 0.78810 0.02000
C 	C 	0.68150 0.48720 0.75780 -0.12100
C 	C 	0.85550 0.98800 0.20600 0.20700
H 	H 	0.89140 0.97840 0.21190 -0.01500
C 	C 	0.81850 0.98720 0.24220 0.22100
C 	C 	0.85550 0.48800 0.70600 0.03400
H 	H 	0.89140 0.47840 0.71190 0.02200
C 	C 	0.81850 0.48720 0.74220 -0.12000
C 	C 	0.35550 0.98800 0.70600 0.20900
H 	H 	0.39140 0.97840 0.71190 -0.01700
C 	C 	0.31850 0.98720 0.74220 0.22300
C 	C 	0.35550 0.48800 0.20600 0.03700
H 	H 	0.39140 0.47840 0.21190 0.02100
C 	C 	0.31850 0.48720 0.24220 -0.12000
C 	C 	0.14450 0.20600 0.98800 0.22600
H 	H 	0.10860 0.21190 0.97840 -0.02000
C 	C 	0.18150 0.24220 0.98720 0.25500
C 	C 	0.14450 0.70600 0.48800 0.03700
H 	H 	0.10860 0.71190 0.47840 0.02100
C 	C 	0.18150 0.74220 0.48720 -0.11900
C 	C 	0.64450 0.20600 0.48800 0.03700
H 	H 	0.60860 0.21190 0.47840 0.02100
C 	C 	0.68150 0.24220 0.48720 -0.12000
C 	C 	0.64450 0.70600 0.98800 0.20400
H 	H 	0.60860 0.71190 0.97840 -0.01600
C 	C 	0.68150 0.74220 0.98720 0.21400
C 	C 	0.85550 0.79400 0.98800 0.19900
H 	H 	0.89140 0.78810 0.97840 -0.01500
C 	C 	0.81850 0.75780 0.98720 0.20300
C 	C 	0.85550 0.29400 0.48800 0.03500
H 	H 	0.89140 0.28810 0.47840 0.02200
C 	C 	0.81850 0.25780 0.48720 -0.12100
C 	C 	0.35550 0.79400 0.48800 0.03600
H 	H 	0.39140 0.78810 0.47840 0.02000
C 	C 	0.31850 0.75780 0.48720 -0.12000
C 	C 	0.35550 0.29400 0.98800 0.22400
H 	H 	0.39140 0.28810 0.97840 -0.02000
C 	C 	0.31850 0.25780 0.98720 0.24800
C 	C 	0.14450 0.79400 0.01200 -0.12800
H 	H 	0.10860 0.78810 0.02160 0.05900
C 	C 	0.18150 0.75780 0.01280 -0.46900
C 	C 	0.14450 0.29400 0.51200 0.03600
H 	H 	0.10860 0.28810 0.52160 0.02100
C 	C 	0.18150 0.25780 0.51280 -0.12300
C 	C 	0.64450 0.79400 0.51200 0.03400
H 	H 	0.60860 0.78810 0.52160 0.02000
C 	C 	0.68150 0.75780 0.51280 -0.12300
C 	C 	0.64450 0.29400 0.01200 -0.12800
H 	H 	0.60860 0.28810 0.02160 0.05900
C 	C 	0.68150 0.25780 0.01280 -0.47200
C 	C 	0.85550 0.20600 0.01200 -0.12000
H 	H 	0.89140 0.21190 0.02160 0.05900
C 	C 	0.81850 0.24220 0.01280 -0.45200
C 	C 	0.85550 0.70600 0.51200 0.03400
H 	H 	0.89140 0.71190 0.52160 0.02200
C 	C 	0.81850 0.74220 0.51280 -0.12200
C 	C 	0.35550 0.20600 0.51200 0.03600
H 	H 	0.39140 0.21190 0.52160 0.02100
C 	C 	0.31850 0.24220 0.51280 -0.12200
C 	C 	0.35550 0.70600 0.01200 -0.11900
H 	H 	0.39140 0.71190 0.02160 0.05700
C 	C 	0.31850 0.74220 0.01280 -0.45500
C 	C 	0.20600 0.01200 0.85550 -0.12000
H 	H 	0.21190 0.02160 0.89140 0.05900
C 	C 	0.24220 0.01280 0.81850 -0.45200
C 	C 	0.20600 0.51200 0.35550 0.03600
H 	H 	0.21190 0.52160 0.39140 0.02100
C 	C 	0.24220 0.51280 0.31850 -0.12200
C 	C 	0.70600 0.01200 0.35550 -0.11900
H 	H 	0.71190 0.02160 0.39140 0.05700
C 	C 	0.74220 0.01280 0.31850 -0.45500
C 	C 	0.70600 0.51200 0.85550 0.03400
H 	H 	0.71190 0.52160 0.89140 0.02200
C 	C 	0.74220 0.51280 0.81850 -0.12200
C 	C 	0.79400 0.01200 0.14450 -0.12800
H 	H 	0.78810 0.02160 0.10860 0.05900
C 	C 	0.75780 0.01280 0.18150 -0.46900
C 	C 	0.79400 0.51200 0.64450 0.03400
H 	H 	0.78810 0.52160 0.60860 0.02000
C 	C 	0.75780 0.51280 0.68150 -0.12300
C 	C 	0.29400 0.01200 0.64450 -0.12800
H 	H 	0.28810 0.02160 0.60860 0.05900
C 	C 	0.25780 0.01280 0.68150 -0.47200
C 	C 	0.29400 0.51200 0.14450 0.03600
H 	H 	0.28810 0.52160 0.10860 0.02100
C 	C 	0.25780 0.51280 0.18150 -0.12300
C 	C 	0.79400 0.98800 0.85550 0.19900
H 	H 	0.78810 0.97840 0.89140 -0.01500
C 	C 	0.75780 0.98720 0.81850 0.20300
C 	C 	0.79400 0.48800 0.35550 0.03600
H 	H 	0.78810 0.47840 0.39140 0.02000
C 	C 	0.75780 0.48720 0.31850 -0.12000
C 	C 	0.29400 0.98800 0.35550 0.22400
H 	H 	0.28810 0.97840 0.39140 -0.02000
C 	C 	0.25780 0.98720 0.31850 0.24800
C 	C 	0.29400 0.48800 0.85550 0.03500
H 	H 	0.28810 0.47840 0.89140 0.02200
C 	C 	0.25780 0.48720 0.81850 -0.12100
C 	C 	0.20600 0.98800 0.14450 0.22600
H 	H 	0.21190 0.97840 0.10860 -0.02000
C 	C 	0.24220 0.98720 0.18150 0.25500
C 	C 	0.20600 0.48800 0.64450 0.03700
H 	H 	0.21190 0.47840 0.60860 0.02100
C 	C 	0.24220 0.48720 0.68150 -0.12000
C 	C 	0.70600 0.98800 0.64450 0.20400
H 	H 	0.71190 0.97840 0.60860 -0.01600
C 	C 	0.74220 0.98720 0.68150 0.21400
C 	C 	0.70600 0.48800 0.14450 0.03700
H 	H 	0.71190 0.47840 0.10860 0.02100
C 	C 	0.74220 0.48720 0.18150 -0.11900
C 	C 	0.01200 0.14450 0.79400 -0.12800
H 	H 	0.02160 0.10860 0.78810 0.05900
C 	C 	0.01280 0.18150 0.75780 -0.46900
C 	C 	0.01200 0.64450 0.29400 -0.12800
H 	H 	0.02160 0.60860 0.28810 0.05900
C 	C 	0.01280 0.68150 0.25780 -0.47200
C 	C 	0.51200 0.14450 0.29400 0.03600
H 	H 	0.52160 0.10860 0.28810 0.02100
C 	C 	0.51280 0.18150 0.25780 -0.12300
C 	C 	0.51200 0.64450 0.79400 0.03400
H 	H 	0.52160 0.60860 0.78810 0.02000
C 	C 	0.51280 0.68150 0.75780 -0.12300
C 	C 	0.01200 0.85550 0.20600 -0.12000
H 	H 	0.02160 0.89140 0.21190 0.05900
C 	C 	0.01280 0.81850 0.24220 -0.45200
C 	C 	0.01200 0.35550 0.70600 -0.11900
H 	H 	0.02160 0.39140 0.71190 0.05700
C 	C 	0.01280 0.31850 0.74220 -0.45500
C 	C 	0.51200 0.85550 0.70600 0.03400
H 	H 	0.52160 0.89140 0.71190 0.02200
C 	C 	0.51280 0.81850 0.74220 -0.12200
C 	C 	0.51200 0.35550 0.20600 0.03600
H 	H 	0.52160 0.39140 0.21190 0.02100
C 	C 	0.51280 0.31850 0.24220 -0.12200
C 	C 	0.98800 0.14450 0.20600 0.22600
H 	H 	0.97840 0.10860 0.21190 -0.02000
C 	C 	0.98720 0.18150 0.24220 0.25500
C 	C 	0.98800 0.64450 0.70600 0.20400
H 	H 	0.97840 0.60860 0.71190 -0.01600
C 	C 	0.98720 0.68150 0.74220 0.21400
C 	C 	0.48800 0.14450 0.70600 0.03700
H 	H 	0.47840 0.10860 0.71190 0.02100
C 	C 	0.48720 0.18150 0.74220 -0.11900
C 	C 	0.48800 0.64450 0.20600 0.03700
H 	H 	0.47840 0.60860 0.21190 0.02100
C 	C 	0.48720 0.68150 0.24220 -0.12000
C 	C 	0.98800 0.85550 0.79400 0.19900
H 	H 	0.97840 0.89140 0.78810 -0.01500
C 	C 	0.98720 0.81850 0.75780 0.20300
C 	C 	0.98800 0.35550 0.29400 0.22400
H 	H 	0.97840 0.39140 0.28810 -0.02000
C 	C 	0.98720 0.31850 0.25780 0.24800
C 	C 	0.48800 0.85550 0.29400 0.03500
H 	H 	0.47840 0.89140 0.28810 0.02200
C 	C 	0.48720 0.81850 0.25780 -0.12100
C 	C 	0.48800 0.35550 0.79400 0.03600
H 	H 	0.47840 0.39140 0.78810 0.02000
C 	C 	0.48720 0.31850 0.75780 -0.12000
C 	C 	0.79400 0.85550 0.98800 0.19900
H 	H 	0.78810 0.89140 0.97840 -0.01500
C 	C 	0.75780 0.81850 0.98720 0.20300
C 	C 	0.79400 0.35550 0.48800 0.03600
H 	H 	0.78810 0.39140 0.47840 0.02000
C 	C 	0.75780 0.31850 0.48720 -0.12000
C 	C 	0.29400 0.85550 0.48800 0.03500
H 	H 	0.28810 0.89140 0.47840 0.02200
C 	C 	0.25780 0.81850 0.48720 -0.12100
C 	C 	0.29400 0.35550 0.98800 0.22400
H 	H 	0.28810 0.39140 0.97840 -0.02000
C 	C 	0.25780 0.31850 0.98720 0.24800
C 	C 	0.20600 0.14450 0.98800 0.22600
H 	H 	0.21190 0.10860 0.97840 -0.02000
C 	C 	0.24220 0.18150 0.98720 0.25500
C 	C 	0.20600 0.64450 0.48800 0.03700
H 	H 	0.21190 0.60860 0.47840 0.02100
C 	C 	0.24220 0.68150 0.48720 -0.12000
C 	C 	0.70600 0.14450 0.48800 0.03700
H 	H 	0.71190 0.10860 0.47840 0.02100
C 	C 	0.74220 0.18150 0.48720 -0.11900
C 	C 	0.70600 0.64450 0.98800 0.20400
H 	H 	0.71190 0.60860 0.97840 -0.01600
C 	C 	0.74220 0.68150 0.98720 0.21400
C 	C 	0.20600 0.85550 0.01200 -0.12000
H 	H 	0.21190 0.89140 0.02160 0.05900
C 	C 	0.24220 0.81850 0.01280 -0.45200
C 	C 	0.20600 0.35550 0.51200 0.03600
H 	H 	0.21190 0.39140 0.52160 0.02100
C 	C 	0.24220 0.31850 0.51280 -0.12200
C 	C 	0.70600 0.85550 0.51200 0.03400
H 	H 	0.71190 0.89140 0.52160 0.02200
C 	C 	0.74220 0.81850 0.51280 -0.12200
C 	C 	0.70600 0.35550 0.01200 -0.11900
H 	H 	0.71190 0.39140 0.02160 0.05700
C 	C 	0.74220 0.31850 0.01280 -0.45500
C 	C 	0.79400 0.14450 0.01200 -0.12800
H 	H 	0.78810 0.10860 0.02160 0.05900
C 	C 	0.75780 0.18150 0.01280 -0.46900
C 	C 	0.79400 0.64450 0.51200 0.03400
H 	H 	0.78810 0.60860 0.52160 0.02000
C 	C 	0.75780 0.68150 0.51280 -0.12300
C 	C 	0.29400 0.14450 0.51200 0.03600
H 	H 	0.28810 0.10860 0.52160 0.02100
C 	C 	0.25780 0.18150 0.51280 -0.12300
C 	C 	0.29400 0.64450 0.01200 -0.12800
H 	H 	0.28810 0.60860 0.02160 0.05900
C 	C 	0.25780 0.68150 0.01280 -0.47200
C 	C 	0.98800 0.79400 0.85550 0.19900
H 	H 	0.97840 0.78810 0.89140 -0.01500
C 	C 	0.98720 0.75780 0.81850 0.20300
C 	C 	0.98800 0.29400 0.35550 0.22400
H 	H 	0.97840 0.28810 0.39140 -0.02000
C 	C 	0.98720 0.25780 0.31850 0.24800
C 	C 	0.48800 0.79400 0.35550 0.03600
H 	H 	0.47840 0.78810 0.39140 0.02000
C 	C 	0.48720 0.75780 0.31850 -0.12000
C 	C 	0.48800 0.29400 0.85550 0.03500
H 	H 	0.47840 0.28810 0.89140 0.02200
C 	C 	0.48720 0.25780 0.81850 -0.12100
C 	C 	0.98800 0.20600 0.14450 0.22600
H 	H 	0.97840 0.21190 0.10860 -0.02000
C 	C 	0.98720 0.24220 0.18150 0.25500
C 	C 	0.98800 0.70600 0.64450 0.20400
H 	H 	0.97840 0.71190 0.60860 -0.01600
C 	C 	0.98720 0.74220 0.68150 0.21400
C 	C 	0.48800 0.20600 0.64450 0.03700
H 	H 	0.47840 0.21190 0.60860 0.02100
C 	C 	0.48720 0.24220 0.68150 -0.12000
C 	C 	0.48800 0.70600 0.14450 0.03700
H 	H 	0.47840 0.71190 0.10860 0.02100
C 	C 	0.48720 0.74220 0.18150 -0.11900
C 	C 	0.01200 0.20600 0.85550 -0.12000
H 	H 	0.02160 0.21190 0.89140 0.05900
C 	C 	0.01280 0.24220 0.81850 -0.45200
C 	C 	0.01200 0.70600 0.35550 -0.11900
H 	H 	0.02160 0.71190 0.39140 0.05700
C 	C 	0.01280 0.74220 0.31850 -0.45500
C 	C 	0.51200 0.20600 0.35550 0.03600
H 	H 	0.52160 0.21190 0.39140 0.02100
C 	C 	0.51280 0.24220 0.31850 -0.12200
C 	C 	0.51200 0.70600 0.85550 0.03400
H 	H 	0.52160 0.71190 0.89140 0.02200
C 	C 	0.51280 0.74220 0.81850 -0.12200
C 	C 	0.01200 0.79400 0.14450 -0.12800
H 	H 	0.02160 0.78810 0.10860 0.05900
C 	C 	0.01280 0.75780 0.18150 -0.46900
C 	C 	0.01200 0.29400 0.64450 -0.12800
H 	H 	0.02160 0.28810 0.60860 0.05900
C 	C 	0.01280 0.25780 0.68150 -0.47200
C 	C 	0.51200 0.79400 0.64450 0.03400
H 	H 	0.52160 0.78810 0.60860 0.02000
C 	C 	0.51280 0.75780 0.68150 -0.12300
C 	C 	0.51200 0.29400 0.14450 0.03600
H 	H 	0.52160 0.28810 0.10860 0.02100
C 	C 	0.51280 0.25780 0.18150 -0.12300
C 	C 	0.85550 0.98800 0.79400 0.19900
H 	H 	0.89140 0.97840 0.78810 -0.01500
C 	C 	0.81850 0.98720 0.75780 0.20300
C 	C 	0.85550 0.48800 0.29400 0.03500
H 	H 	0.89140 0.47840 0.28810 0.02200
C 	C 	0.81850 0.48720 0.25780 -0.12100
C 	C 	0.35550 0.98800 0.29400 0.22400
H 	H 	0.39140 0.97840 0.28810 -0.02000
C 	C 	0.31850 0.98720 0.25780 0.24800
C 	C 	0.35550 0.48800 0.79400 0.03600
H 	H 	0.39140 0.47840 0.78810 0.02000
C 	C 	0.31850 0.48720 0.75780 -0.12000
C 	C 	0.14450 0.98800 0.20600 0.22600
H 	H 	0.10860 0.97840 0.21190 -0.02000
C 	C 	0.18150 0.98720 0.24220 0.25500
C 	C 	0.14450 0.48800 0.70600 0.03700
H 	H 	0.10860 0.47840 0.71190 0.02100
C 	C 	0.18150 0.48720 0.74220 -0.11900
C 	C 	0.64450 0.98800 0.70600 0.20400
H 	H 	0.60860 0.97840 0.71190 -0.01600
C 	C 	0.68150 0.98720 0.74220 0.21400
C 	C 	0.64450 0.48800 0.20600 0.03700
H 	H 	0.60860 0.47840 0.21190 0.02100
C 	C 	0.68150 0.48720 0.24220 -0.12000
C 	C 	0.85550 0.01200 0.20600 -0.12000
H 	H 	0.89140 0.02160 0.21190 0.05900
C 	C 	0.81850 0.01280 0.24220 -0.45200
C 	C 	0.85550 0.51200 0.70600 0.03400
H 	H 	0.89140 0.52160 0.71190 0.02200
C 	C 	0.81850 0.51280 0.74220 -0.12200
C 	C 	0.35550 0.01200 0.70600 -0.11900
H 	H 	0.39140 0.02160 0.71190 0.05700
C 	C 	0.31850 0.01280 0.74220 -0.45500
C 	C 	0.35550 0.51200 0.20600 0.03600
H 	H 	0.39140 0.52160 0.21190 0.02100
C 	C 	0.31850 0.51280 0.24220 -0.12200
C 	C 	0.14450 0.01200 0.79400 -0.12800
H 	H 	0.10860 0.02160 0.78810 0.05900
C 	C 	0.18150 0.01280 0.75780 -0.46900
C 	C 	0.14450 0.51200 0.29400 0.03600
H 	H 	0.10860 0.52160 0.28810 0.02100
C 	C 	0.18150 0.51280 0.25780 -0.12300
C 	C 	0.64450 0.01200 0.29400 -0.12800
H 	H 	0.60860 0.02160 0.28810 0.05900
C 	C 	0.68150 0.01280 0.25780 -0.47200
C 	C 	0.64450 0.51200 0.79400 0.03400
H 	H 	0.60860 0.52160 0.78810 0.02000
C 	C 	0.68150 0.51280 0.75780 -0.12300
C 	C 	0.85550 0.79400 0.01200 -0.11500
H 	H 	0.89140 0.78810 0.02160 0.05700
C 	C 	0.81850 0.75780 0.01280 -0.43600
C 	C 	0.85550 0.29400 0.51200 0.03400
H 	H 	0.89140 0.28810 0.52160 0.02200
C 	C 	0.81850 0.25780 0.51280 -0.12200
C 	C 	0.35550 0.79400 0.51200 0.03500
H 	H 	0.39140 0.78810 0.52160 0.02000
C 	C 	0.31850 0.75780 0.51280 -0.12300
C 	C 	0.35550 0.29400 0.01200 -0.13200
H 	H 	0.39140 0.28810 0.02160 0.06000
C 	C 	0.31850 0.25780 0.01280 -0.48000
C 	C 	0.14450 0.20600 0.01200 -0.13200
H 	H 	0.10860 0.21190 0.02160 0.06100
C 	C 	0.18150 0.24220 0.01280 -0.48500
C 	C 	0.14450 0.70600 0.51200 0.03600
H 	H 	0.10860 0.71190 0.52160 0.02100
C 	C 	0.18150 0.74220 0.51280 -0.12200
C 	C 	0.64450 0.20600 0.51200 0.03500
H 	H 	0.60860 0.21190 0.52160 0.02100
C 	C 	0.68150 0.24220 0.51280 -0.12200
C 	C 	0.64450 0.70600 0.01200 -0.11500
H 	H 	0.60860 0.71190 0.02160 0.05600
C 	C 	0.68150 0.74220 0.01280 -0.44700
C 	C 	0.85550 0.20600 0.98800 0.20700
H 	H 	0.89140 0.21190 0.97840 -0.01500
C 	C 	0.81850 0.24220 0.98720 0.22100
C 	C 	0.85550 0.70600 0.48800 0.03400
H 	H 	0.89140 0.71190 0.47840 0.02200
C 	C 	0.81850 0.74220 0.48720 -0.12000
C 	C 	0.35550 0.20600 0.48800 0.03700
H 	H 	0.39140 0.21190 0.47840 0.02100
C 	C 	0.31850 0.24220 0.48720 -0.12000
C 	C 	0.35550 0.70600 0.98800 0.20900
H 	H 	0.39140 0.71190 0.97840 -0.01700
C 	C 	0.31850 0.74220 0.98720 0.22300
C 	C 	0.14450 0.79400 0.98800 0.21800
H 	H 	0.10860 0.78810 0.97840 -0.01900
C 	C 	0.18150 0.75780 0.98720 0.23700
C 	C 	0.14450 0.29400 0.48800 0.03800
H 	H 	0.10860 0.28810 0.47840 0.02100
C 	C 	0.18150 0.25780 0.48720 -0.12000
C 	C 	0.64450 0.79400 0.48800 0.03500
H 	H 	0.60860 0.78810 0.47840 0.02000
C 	C 	0.68150 0.75780 0.48720 -0.12100
C 	C 	0.64450 0.29400 0.98800 0.21800
H 	H 	0.60860 0.28810 0.97840 -0.01900
C 	C 	0.68150 0.25780 0.98720 0.23900
C 	C 	0.79400 0.98800 0.14450 0.21800
H 	H 	0.78810 0.97840 0.10860 -0.01900
C 	C 	0.75780 0.98720 0.18150 0.23700
C 	C 	0.79400 0.48800 0.64450 0.03500
H 	H 	0.78810 0.47840 0.60860 0.02000
C 	C 	0.75780 0.48720 0.68150 -0.12100
C 	C 	0.29400 0.98800 0.64450 0.21800
H 	H 	0.28810 0.97840 0.60860 -0.01900
C 	C 	0.25780 0.98720 0.68150 0.23900
C 	C 	0.29400 0.48800 0.14450 0.03800
H 	H 	0.28810 0.47840 0.10860 0.02100
C 	C 	0.25780 0.48720 0.18150 -0.12000
C 	C 	0.20600 0.98800 0.85550 0.20700
H 	H 	0.21190 0.97840 0.89140 -0.01500
C 	C 	0.24220 0.98720 0.81850 0.22100
C 	C 	0.20600 0.48800 0.35550 0.03700
H 	H 	0.21190 0.47840 0.39140 0.02100
C 	C 	0.24220 0.48720 0.31850 -0.12000
C 	C 	0.70600 0.98800 0.35550 0.20900
H 	H 	0.71190 0.97840 0.39140 -0.01700
C 	C 	0.74220 0.98720 0.31850 0.22300
C 	C 	0.70600 0.48800 0.85550 0.03400
H 	H 	0.71190 0.47840 0.89140 0.02200
C 	C 	0.74220 0.48720 0.81850 -0.12000
C 	C 	0.20600 0.01200 0.14450 -0.13200
H 	H 	0.21190 0.02160 0.10860 0.06100
C 	C 	0.24220 0.01280 0.18150 -0.48500
C 	C 	0.20600 0.51200 0.64450 0.03500
H 	H 	0.21190 0.52160 0.60860 0.02100
C 	C 	0.24220 0.51280 0.68150 -0.12200
C 	C 	0.70600 0.01200 0.64450 -0.11500
H 	H 	0.71190 0.02160 0.60860 0.05600
C 	C 	0.74220 0.01280 0.68150 -0.44700
C 	C 	0.70600 0.51200 0.14450 0.03600
H 	H 	0.71190 0.52160 0.10860 0.02100
C 	C 	0.74220 0.51280 0.18150 -0.12200
C 	C 	0.79400 0.01200 0.85550 -0.11500
H 	H 	0.78810 0.02160 0.89140 0.05700
C 	C 	0.75780 0.01280 0.81850 -0.43600
C 	C 	0.79400 0.51200 0.35550 0.03500
H 	H 	0.78810 0.52160 0.39140 0.02000
C 	C 	0.75780 0.51280 0.31850 -0.12300
C 	C 	0.29400 0.01200 0.35550 -0.13200
H 	H 	0.28810 0.02160 0.39140 0.06000
C 	C 	0.25780 0.01280 0.31850 -0.48000
C 	C 	0.29400 0.51200 0.85550 0.03400
H 	H 	0.28810 0.52160 0.89140 0.02200
C 	C 	0.25780 0.51280 0.81850 -0.12200
C 	C 	0.98800 0.85550 0.20600 0.20700
H 	H 	0.97840 0.89140 0.21190 -0.01500
C 	C 	0.98720 0.81850 0.24220 0.22100
C 	C 	0.98800 0.35550 0.70600 0.20900
H 	H 	0.97840 0.39140 0.71190 -0.01700
C 	C 	0.98720 0.31850 0.74220 0.22300
C 	C 	0.48800 0.85550 0.70600 0.03400
H 	H 	0.47840 0.89140 0.71190 0.02200
C 	C 	0.48720 0.81850 0.74220 -0.12000
C 	C 	0.48800 0.35550 0.20600 0.03700
H 	H 	0.47840 0.39140 0.21190 0.02100
C 	C 	0.48720 0.31850 0.24220 -0.12000
C 	C 	0.98800 0.14450 0.79400 0.21800
H 	H 	0.97840 0.10860 0.78810 -0.01900
C 	C 	0.98720 0.18150 0.75780 0.23700
C 	C 	0.98800 0.64450 0.29400 0.21800
H 	H 	0.97840 0.60860 0.28810 -0.01900
C 	C 	0.98720 0.68150 0.25780 0.23900
C 	C 	0.48800 0.14450 0.29400 0.03800
H 	H 	0.47840 0.10860 0.28810 0.02100
C 	C 	0.48720 0.18150 0.25780 -0.12000
C 	C 	0.48800 0.64450 0.79400 0.03500
H 	H 	0.47840 0.60860 0.78810 0.02000
C 	C 	0.48720 0.68150 0.75780 -0.12100
C 	C 	0.01200 0.85550 0.79400 -0.11500
H 	H 	0.02160 0.89140 0.78810 0.05700
C 	C 	0.01280 0.81850 0.75780 -0.43600
C 	C 	0.01200 0.35550 0.29400 -0.13200
H 	H 	0.02160 0.39140 0.28810 0.06000
C 	C 	0.01280 0.31850 0.25780 -0.48000
C 	C 	0.51200 0.85550 0.29400 0.03400
H 	H 	0.52160 0.89140 0.28810 0.02200
C 	C 	0.51280 0.81850 0.25780 -0.12200
C 	C 	0.51200 0.35550 0.79400 0.03500
H 	H 	0.52160 0.39140 0.78810 0.02000
C 	C 	0.51280 0.31850 0.75780 -0.12300
C 	C 	0.01200 0.14450 0.20600 -0.13200
H 	H 	0.02160 0.10860 0.21190 0.06100
C 	C 	0.01280 0.18150 0.24220 -0.48500
C 	C 	0.01200 0.64450 0.70600 -0.11500
H 	H 	0.02160 0.60860 0.71190 0.05600
C 	C 	0.01280 0.68150 0.74220 -0.44700
C 	C 	0.51200 0.14450 0.70600 0.03600
H 	H 	0.52160 0.10860 0.71190 0.02100
C 	C 	0.51280 0.18150 0.74220 -0.12200
C 	C 	0.51200 0.64450 0.20600 0.03500
H 	H 	0.52160 0.60860 0.21190 0.02100
C 	C 	0.51280 0.68150 0.24220 -0.12200
Zr	Zr	0.09223 0.00000 -0.00000 3.25800
Zr	Zr	0.09223 0.50000 0.50000 3.26500
Zr	Zr	0.59223 0.00000 0.50000 3.25900
Zr	Zr	0.59223 0.50000 -0.00000 3.25900
Zr	Zr	0.90777 0.00000 -0.00000 3.25300
Zr	Zr	0.90777 0.50000 0.50000 3.25900
Zr	Zr	0.40777 0.00000 0.50000 3.25900
Zr	Zr	0.40777 0.50000 -0.00000 3.25900
Zr	Zr	0.00000 0.09223 -0.00000 3.25800
Zr	Zr	-0.00000 0.59223 0.50000 3.25900
Zr	Zr	0.50000 0.09223 0.50000 3.26500
Zr	Zr	0.50000 0.59223 -0.00000 3.25900
Zr	Zr	-0.00000 0.90777 -0.00000 3.25300
Zr	Zr	0.00000 0.40777 0.50000 3.25900
Zr	Zr	0.50000 0.90777 0.50000 3.25900
Zr	Zr	0.50000 0.40777 -0.00000 3.25900
Zr	Zr	0.00000 0.00000 0.09223 3.25800
Zr	Zr	-0.00000 0.50000 0.59223 3.25900
Zr	Zr	0.50000 -0.00000 0.59223 3.25900
Zr	Zr	0.50000 0.50000 0.09223 3.26500
Zr	Zr	0.00000 0.00000 0.90777 3.25300
Zr	Zr	0.00000 0.50000 0.40777 3.25900
Zr	Zr	0.50000 0.00000 0.40777 3.25900
Zr	Zr	0.50000 0.50000 0.90777 3.25900
O 	O 	0.13260 0.07250 -0.00000 -0.68500
O 	O 	0.13260 0.57250 0.50000 -0.66700
O 	O 	0.63260 0.07250 0.50000 -0.66900
O 	O 	0.63260 0.57250 -0.00000 -0.68200
O 	O 	0.86740 0.92750 -0.00000 -0.66900
O 	O 	0.86740 0.42750 0.50000 -0.66600
O 	O 	0.36740 0.92750 0.50000 -0.65600
O 	O 	0.36740 0.42750 -0.00000 -0.68200
O 	O 	0.86740 0.07250 -0.00000 -0.68300
O 	O 	0.86740 0.57250 0.50000 -0.66700
O 	O 	0.36740 0.07250 0.50000 -0.66900
O 	O 	0.36740 0.57250 -0.00000 -0.68200
O 	O 	0.13260 0.92750 -0.00000 -0.67000
O 	O 	0.13260 0.42750 0.50000 -0.66700
O 	O 	0.63260 0.92750 0.50000 -0.65600
O 	O 	0.63260 0.42750 -0.00000 -0.68200
O 	O 	-0.00000 0.13260 0.07250 -0.68500
O 	O 	0.00000 0.63260 0.57250 -0.68200
O 	O 	0.50000 0.13260 0.57250 -0.66700
O 	O 	0.50000 0.63260 0.07250 -0.66900
O 	O 	0.00000 0.86740 0.92750 -0.66900
O 	O 	0.00000 0.36740 0.42750 -0.68200
O 	O 	0.50000 0.86740 0.42750 -0.66600
O 	O 	0.50000 0.36740 0.92750 -0.65600
O 	O 	0.00000 0.86740 0.07250 -0.68300
O 	O 	0.00000 0.36740 0.57250 -0.68200
O 	O 	0.50000 0.86740 0.57250 -0.66700
O 	O 	0.50000 0.36740 0.07250 -0.66900
O 	O 	0.00000 0.13260 0.92750 -0.67000
O 	O 	0.00000 0.63260 0.42750 -0.68200
O 	O 	0.50000 0.13260 0.42750 -0.66700
O 	O 	0.50000 0.63260 0.92750 -0.65600
O 	O 	0.07250 0.00000 0.13260 -0.68500
O 	O 	0.07250 0.50000 0.63260 -0.66900
O 	O 	0.57250 0.00000 0.63260 -0.68200
O 	O 	0.57250 0.50000 0.13260 -0.66700
O 	O 	0.92750 0.00000 0.86740 -0.66900
O 	O 	0.92750 0.50000 0.36740 -0.65600
O 	O 	0.42750 -0.00000 0.36740 -0.68200
O 	O 	0.42750 0.50000 0.86740 -0.66600
O 	O 	0.07250 0.00000 0.86740 -0.68300
O 	O 	0.07250 0.50000 0.36740 -0.66900
O 	O 	0.57250 -0.00000 0.36740 -0.68200
O 	O 	0.57250 0.50000 0.86740 -0.66700
O 	O 	0.92750 0.00000 0.13260 -0.67000
O 	O 	0.92750 0.50000 0.63260 -0.65600
O 	O 	0.42750 0.00000 0.63260 -0.68200
O 	O 	0.42750 0.50000 0.13260 -0.66700
O 	O 	0.07250 0.13260 -0.00000 -0.68500
O 	O 	0.07250 0.63260 0.50000 -0.66900
O 	O 	0.57250 0.13260 0.50000 -0.66700
O 	O 	0.57250 0.63260 -0.00000 -0.68200
O 	O 	0.92750 0.86740 -0.00000 -0.66900
O 	O 	0.92750 0.36740 0.50000 -0.65600
O 	O 	0.42750 0.86740 0.50000 -0.66600
O 	O 	0.42750 0.36740 -0.00000 -0.68200
O 	O 	0.07250 0.86740 -0.00000 -0.68300
O 	O 	0.07250 0.36740 0.50000 -0.66900
O 	O 	0.57250 0.86740 0.50000 -0.66700
O 	O 	0.57250 0.36740 -0.00000 -0.68200
O 	O 	0.92750 0.13260 -0.00000 -0.67000
O 	O 	0.92750 0.63260 0.50000 -0.65600
O 	O 	0.42750 0.13260 0.50000 -0.66700
O 	O 	0.42750 0.63260 -0.00000 -0.68200
O 	O 	0.13260 0.00000 0.92750 -0.67000
O 	O 	0.13260 0.50000 0.42750 -0.66700
O 	O 	0.63260 0.00000 0.42750 -0.68200
O 	O 	0.63260 0.50000 0.92750 -0.65600
O 	O 	0.86740 -0.00000 0.07250 -0.68300
O 	O 	0.86740 0.50000 0.57250 -0.66700
O 	O 	0.36740 0.00000 0.57250 -0.68200
O 	O 	0.36740 0.50000 0.07250 -0.66900
O 	O 	0.86740 0.00000 0.92750 -0.66900
O 	O 	0.86740 0.50000 0.42750 -0.66600
O 	O 	0.36740 0.00000 0.42750 -0.68200
O 	O 	0.36740 0.50000 0.92750 -0.65600
O 	O 	0.13260 -0.00000 0.07250 -0.68500
O 	O 	0.13260 0.50000 0.57250 -0.66700
O 	O 	0.63260 0.00000 0.57250 -0.68200
O 	O 	0.63260 0.50000 0.07250 -0.66900
O 	O 	0.00000 0.07250 0.86740 -0.68300
O 	O 	0.00000 0.57250 0.36740 -0.68200
O 	O 	0.50000 0.07250 0.36740 -0.66900
O 	O 	0.50000 0.57250 0.86740 -0.66700
O 	O 	0.00000 0.92750 0.13260 -0.67000
O 	O 	0.00000 0.42750 0.63260 -0.68200
O 	O 	0.50000 0.92750 0.63260 -0.65600
O 	O 	0.50000 0.42750 0.13260 -0.66700
O 	O 	-0.00000 0.07250 0.13260 -0.68500
O 	O 	0.00000 0.57250 0.63260 -0.68200
O 	O 	0.50000 0.07250 0.63260 -0.66900
O 	O 	0.50000 0.57250 0.13260 -0.66700
O 	O 	0.00000 0.92750 0.86740 -0.66900
O 	O 	0.00000 0.42750 0.36740 -0.68200
O 	O 	0.50000 0.92750 0.36740 -0.65600
O 	O 	0.50000 0.42750 0.86740 -0.66600
C 	C 	0.11760 0.11760 -0.00000 0.53900
C 	C 	0.15650 0.15650 -0.00000 -0.22900
C 	C 	0.23050 0.23050 -0.00000 -0.03900
C 	C 	0.11760 0.61760 0.50000 0.52700
C 	C 	0.15650 0.65650 0.50000 -0.19100
C 	C 	0.23050 0.73050 0.50000 -0.01200
C 	C 	0.61760 0.11760 0.50000 0.52700
C 	C 	0.65650 0.15650 0.50000 -0.19100
C 	C 	0.73050 0.23050 0.50000 -0.01200
C 	C 	0.61760 0.61760 -0.00000 0.53200
C 	C 	0.65650 0.65650 -0.00000 -0.22800
C 	C 	0.73050 0.73050 -0.00000 -0.03700
C 	C 	0.88240 0.88240 -0.00000 0.52200
C 	C 	0.84350 0.84350 -0.00000 -0.22400
C 	C 	0.76950 0.76950 -0.00000 -0.03800
C 	C 	0.88240 0.38240 0.50000 0.51900
C 	C 	0.84350 0.34350 0.50000 -0.19200
C 	C 	0.76950 0.26950 0.50000 -0.01300
C 	C 	0.38240 0.88240 0.50000 0.51900
C 	C 	0.34350 0.84350 0.50000 -0.19200
C 	C 	0.26950 0.76950 0.50000 -0.01300
C 	C 	0.38240 0.38240 -0.00000 0.53300
C 	C 	0.34350 0.34350 -0.00000 -0.23100
C 	C 	0.26950 0.26950 -0.00000 -0.03800
C 	C 	0.88240 0.11760 -0.00000 0.53000
C 	C 	0.84350 0.15650 -0.00000 -0.22700
C 	C 	0.76950 0.23050 -0.00000 -0.03800
C 	C 	0.88240 0.61760 0.50000 0.51900
C 	C 	0.84350 0.65650 0.50000 -0.19200
C 	C 	0.76950 0.73050 0.50000 -0.01300
C 	C 	0.38240 0.11760 0.50000 0.52700
C 	C 	0.34350 0.15650 0.50000 -0.19100
C 	C 	0.26950 0.23050 0.50000 -0.01100
C 	C 	0.38240 0.61760 -0.00000 0.53200
C 	C 	0.34350 0.65650 -0.00000 -0.23000
C 	C 	0.26950 0.73050 -0.00000 -0.03800
C 	C 	0.11760 0.88240 -0.00000 0.53000
C 	C 	0.15650 0.84350 -0.00000 -0.22700
C 	C 	0.23050 0.76950 -0.00000 -0.03800
C 	C 	0.11760 0.38240 0.50000 0.52700
C 	C 	0.15650 0.34350 0.50000 -0.19100
C 	C 	0.23050 0.26950 0.50000 -0.01100
C 	C 	0.61760 0.88240 0.50000 0.51900
C 	C 	0.65650 0.84350 0.50000 -0.19200
C 	C 	0.73050 0.76950 0.50000 -0.01300
C 	C 	0.61760 0.38240 -0.00000 0.53200
C 	C 	0.65650 0.34350 -0.00000 -0.23000
C 	C 	0.73050 0.26950 -0.00000 -0.03800
C 	C 	0.00000 0.11760 0.11760 0.53900
C 	C 	0.00000 0.15650 0.15650 -0.22900
C 	C 	0.00000 0.23050 0.23050 -0.03900
C 	C 	0.00000 0.61760 0.61760 0.53200
C 	C 	-0.00000 0.65650 0.65650 -0.22800
C 	C 	0.00000 0.73050 0.73050 -0.03700
C 	C 	0.50000 0.11760 0.61760 0.52700
C 	C 	0.50000 0.15650 0.65650 -0.19100
C 	C 	0.50000 0.23050 0.73050 -0.01200
C 	C 	0.50000 0.61760 0.11760 0.52700
C 	C 	0.50000 0.65650 0.15650 -0.19100
C 	C 	0.50000 0.73050 0.23050 -0.01200
C 	C 	-0.00000 0.88240 0.88240 0.52200
C 	C 	0.00000 0.84350 0.84350 -0.22400
C 	C 	-0.00000 0.76950 0.76950 -0.03800
C 	C 	0.00000 0.38240 0.38240 0.53300
C 	C 	0.00000 0.34350 0.34350 -0.23100
C 	C 	0.00000 0.26950 0.26950 -0.03800
C 	C 	0.50000 0.88240 0.38240 0.51900
C 	C 	0.50000 0.84350 0.34350 -0.19200
C 	C 	0.50000 0.76950 0.26950 -0.01300
C 	C 	0.50000 0.38240 0.88240 0.51900
C 	C 	0.50000 0.34350 0.84350 -0.19200
C 	C 	0.50000 0.26950 0.76950 -0.01300
C 	C 	-0.00000 0.88240 0.11760 0.53000
C 	C 	-0.00000 0.84350 0.15650 -0.22700
C 	C 	-0.00000 0.76950 0.23050 -0.03800
C 	C 	0.00000 0.38240 0.61760 0.53200
C 	C 	-0.00000 0.34350 0.65650 -0.23000
C 	C 	0.00000 0.26950 0.73050 -0.03800
C 	C 	0.50000 0.88240 0.61760 0.51900
C 	C 	0.50000 0.84350 0.65650 -0.19200
C 	C 	0.50000 0.76950 0.73050 -0.01300
C 	C 	0.50000 0.38240 0.11760 0.52700
C 	C 	0.50000 0.34350 0.15650 -0.19100
C 	C 	0.50000 0.26950 0.23050 -0.01100
C 	C 	-0.00000 0.11760 0.88240 0.53000
C 	C 	-0.00000 0.15650 0.84350 -0.22700
C 	C 	-0.00000 0.23050 0.76950 -0.03800
C 	C 	0.00000 0.61760 0.38240 0.53200
C 	C 	-0.00000 0.65650 0.34350 -0.23000
C 	C 	0.00000 0.73050 0.26950 -0.03800
C 	C 	0.50000 0.11760 0.38240 0.52700
C 	C 	0.50000 0.15650 0.34350 -0.19100
C 	C 	0.50000 0.23050 0.26950 -0.01100
C 	C 	0.50000 0.61760 0.88240 0.51900
C 	C 	0.50000 0.65650 0.84350 -0.19200
C 	C 	0.50000 0.73050 0.76950 -0.01300
C 	C 	0.11760 0.00000 0.11760 0.53900
C 	C 	0.15650 0.00000 0.15650 -0.22900
C 	C 	0.23050 0.00000 0.23050 -0.03900
C 	C 	0.11760 0.50000 0.61760 0.52700
C 	C 	0.15650 0.50000 0.65650 -0.19100
C 	C 	0.23050 0.50000 0.73050 -0.01200
C 	C 	0.61760 0.00000 0.61760 0.53200
C 	C 	0.65650 -0.00000 0.65650 -0.22800
C 	C 	0.73050 0.00000 0.73050 -0.03700
C 	C 	0.61760 0.50000 0.11760 0.52700
C 	C 	0.65650 0.50000 0.15650 -0.19100
C 	C 	0.73050 0.50000 0.23050 -0.01200
C 	C 	0.88240 -0.00000 0.88240 0.52200
C 	C 	0.84350 0.00000 0.84350 -0.22400
C 	C 	0.76950 -0.00000 0.76950 -0.03800
C 	C 	0.88240 0.50000 0.38240 0.51900
C 	C 	0.84350 0.50000 0.34350 -0.19200
C 	C 	0.76950 0.50000 0.26950 -0.01300
C 	C 	0.38240 0.00000 0.38240 0.53300
C 	C 	0.34350 0.00000 0.34350 -0.23100
C 	C 	0.26950 0.00000 0.26950 -0.03800
C 	C 	0.38240 0.50000 0.88240 0.51900
C 	C 	0.34350 0.50000 0.84350 -0.19200
C 	C 	0.26950 0.50000 0.76950 -0.01300
C 	C 	0.11760 -0.00000 0.88240 0.53000
C 	C 	0.15650 0.00000 0.84350 -0.22700
C 	C 	0.23050 -0.00000 0.76950 -0.03800
C 	C 	0.11760 0.50000 0.38240 0.52700
C 	C 	0.15650 0.50000 0.34350 -0.19100
C 	C 	0.23050 0.50000 0.26950 -0.01100
C 	C 	0.61760 0.00000 0.38240 0.53200
C 	C 	0.65650 0.00000 0.34350 -0.23000
C 	C 	0.73050 0.00000 0.26950 -0.03800
C 	C 	0.61760 0.50000 0.88240 0.51900
C 	C 	0.65650 0.50000 0.84350 -0.19200
C 	C 	0.73050 0.50000 0.76950 -0.01300
C 	C 	0.88240 0.00000 0.11760 0.53000
C 	C 	0.84350 0.00000 0.15650 -0.22700
C 	C 	0.76950 0.00000 0.23050 -0.03800
C 	C 	0.88240 0.50000 0.61760 0.51900
C 	C 	0.84350 0.50000 0.65650 -0.19200
C 	C 	0.76950 0.50000 0.73050 -0.01300
C 	C 	0.38240 0.00000 0.61760 0.53200
C 	C 	0.34350 -0.00000 0.65650 -0.23000
C 	C 	0.26950 0.00000 0.73050 -0.03800
C 	C 	0.38240 0.50000 0.11760 0.52700
C 	C 	0.34350 0.50000 0.15650 -0.19100
C 	C 	0.26950 0.50000 0.23050 -0.01100
O 	O 	0.03840 0.03840 0.03840 -2.73500
O 	O 	0.05170 0.05170 0.05170 2.07200
H 	H 	0.07330 0.07330 0.07330 -0.64000
O 	O 	0.03840 0.53840 0.53840 -2.51700
O 	O 	0.05170 0.55170 0.55170 1.83200
H 	H 	0.07330 0.57330 0.57330 -0.57600
O 	O 	0.53840 0.03840 0.53840 -2.51700
O 	O 	0.55170 0.05170 0.55170 1.83200
H 	H 	0.57330 0.07330 0.57330 -0.57600
O 	O 	0.53840 0.53840 0.03840 -2.51700
O 	O 	0.55170 0.55170 0.05170 1.83200
H 	H 	0.57330 0.57330 0.07330 -0.57600
O 	O 	0.96160 0.96160 0.03840 -2.24500
O 	O 	0.94830 0.94830 0.05170 1.54400
H 	H 	0.92670 0.92670 0.07330 -0.48600
O 	O 	0.96160 0.46160 0.53840 -2.23600
O 	O 	0.94830 0.44830 0.55170 1.52700
H 	H 	0.92670 0.42670 0.57330 -0.48700
O 	O 	0.46160 0.96160 0.53840 -2.23600
O 	O 	0.44830 0.94830 0.55170 1.52700
H 	H 	0.42670 0.92670 0.57330 -0.48700
O 	O 	0.46160 0.46160 0.03840 -2.51400
O 	O 	0.44830 0.44830 0.05170 1.82900
H 	H 	0.42670 0.42670 0.07330 -0.57500
O 	O 	0.96160 0.03840 0.96160 -2.24500
O 	O 	0.94830 0.05170 0.94830 1.54400
H 	H 	0.92670 0.07330 0.92670 -0.48600
O 	O 	0.96160 0.53840 0.46160 -2.23600
O 	O 	0.94830 0.55170 0.44830 1.52700
H 	H 	0.92670 0.57330 0.42670 -0.48700
O 	O 	0.46160 0.03840 0.46160 -2.51400
O 	O 	0.44830 0.05170 0.44830 1.82900
H 	H 	0.42670 0.07330 0.42670 -0.57500
O 	O 	0.46160 0.53840 0.96160 -2.23600
O 	O 	0.44830 0.55170 0.94830 1.52700
H 	H 	0.42670 0.57330 0.92670 -0.48700
O 	O 	0.03840 0.96160 0.96160 -2.24500
O 	O 	0.05170 0.94830 0.94830 1.54400
H 	H 	0.07330 0.92670 0.92670 -0.48600
O 	O 	0.03840 0.46160 0.46160 -2.51400
O 	O 	0.05170 0.44830 0.44830 1.82900
H 	H 	0.07330 0.42670 0.42670 -0.57500
O 	O 	0.53840 0.96160 0.46160 -2.23600
O 	O 	0.55170 0.94830 0.44830 1.52700
H 	H 	0.57330 0.92670 0.42670 -0.48700
O 	O 	0.53840 0.46160 0.96160 -2.23600
O 	O 	0.55170 0.44830 0.94830 1.52700
H 	H 	0.57330 0.42670 0.92670 -0.48700
O 	O 	0.03840 0.03840 0.96160 -2.51400
O 	O 	0.05170 0.05170 0.94830 1.83500
H 	H 	0.07330 0.07330 0.92670 -0.57000
O 	O 	0.03840 0.53840 0.46160 -2.51500
O 	O 	0.05170 0.55170 0.44830 1.83100
H 	H 	0.07330 0.57330 0.42670 -0.57500
O 	O 	0.53840 0.03840 0.46160 -2.51500
O 	O 	0.55170 0.05170 0.44830 1.83100
H 	H 	0.57330 0.07330 0.42670 -0.57500
O 	O 	0.53840 0.53840 0.96160 -2.23700
O 	O 	0.55170 0.55170 0.94830 1.52800
H 	H 	0.57330 0.57330 0.92670 -0.48700
O 	O 	0.96160 0.96160 0.96160 -1.93000
O 	O 	0.94830 0.94830 0.94830 1.19800
H 	H 	0.92670 0.92670 0.92670 -0.38600
O 	O 	0.96160 0.46160 0.46160 -2.23500
O 	O 	0.94830 0.44830 0.44830 1.52700
H 	H 	0.92670 0.42670 0.42670 -0.48600
O 	O 	0.46160 0.96160 0.46160 -2.23500
O 	O 	0.44830 0.94830 0.44830 1.52700
H 	H 	0.42670 0.92670 0.42670 -0.48600
O 	O 	0.46160 0.46160 0.96160 -2.23500
O 	O 	0.44830 0.44830 0.94830 1.52700
H 	H 	0.42670 0.42670 0.92670 -0.48600
O 	O 	0.03840 0.96160 0.03840 -2.51400
O 	O 	0.05170 0.94830 0.05170 1.83500
H 	H 	0.07330 0.92670 0.07330 -0.57000
O 	O 	0.03840 0.46160 0.53840 -2.51500
O 	O 	0.05170 0.44830 0.55170 1.83100
H 	H 	0.07330 0.42670 0.57330 -0.57500
O 	O 	0.53840 0.96160 0.53840 -2.23700
O 	O 	0.55170 0.94830 0.55170 1.52800
H 	H 	0.57330 0.92670 0.57330 -0.48700
O 	O 	0.53840 0.46160 0.03840 -2.51500
O 	O 	0.55170 0.44830 0.05170 1.83100
H 	H 	0.57330 0.42670 0.07330 -0.57500
O 	O 	0.96160 0.03840 0.03840 -2.51400
O 	O 	0.94830 0.05170 0.05170 1.83500
H 	H 	0.92670 0.07330 0.07330 -0.57000
O 	O 	0.96160 0.53840 0.53840 -2.23700
O 	O 	0.94830 0.55170 0.55170 1.52800
H 	H 	0.92670 0.57330 0.57330 -0.48700
O 	O 	0.46160 0.03840 0.53840 -2.51500
O 	O 	0.44830 0.05170 0.55170 1.83100
H 	H 	0.42670 0.07330 0.57330 -0.57500
O 	O 	0.46160 0.53840 0.03840 -2.51500
O 	O 	0.44830 0.55170 0.05170 1.83100
H 	H 	0.42670 0.57330 0.07330 -0.57500
Re	Re	0.31210 0.18790 0.04440 0.76800
Cl	Cl	0.35600 0.14400 0.97000 -0.32200
Re	Re	0.31210 0.68790 0.54440 0.62600
Cl	Cl	0.35600 0.64400 0.47000 -0.39200
Re	Re	0.68790 0.81210 0.04440 0.74300
Cl	Cl	0.64400 0.85600 0.97000 -0.32700
Re	Re	0.68790 0.31210 0.54440 0.62600
Cl	Cl	0.64400 0.35600 0.47000 -0.39200
Re	Re	0.18790 0.31210 0.04440 0.76800
Cl	Cl	0.14400 0.35600 0.97000 -0.32200
Re	Re	0.68790 0.18790 0.95560 0.50000
Cl	Cl	0.64400 0.14400 0.03000 -0.46400
Re	Re	0.68790 0.68790 0.45560 0.62400
Cl	Cl	0.64400 0.64400 0.53000 -0.39200
Re	Re	0.18790 0.18790 0.45560 0.63300
Cl	Cl	0.14400 0.14400 0.53000 -0.39600
Re	Re	0.31210 0.81210 0.95560 0.50200
Cl	Cl	0.35600 0.85600 0.03000 -0.45600
Re	Re	0.31210 0.31210 0.45560 0.62900
Cl	Cl	0.35600 0.35600 0.53000 -0.39200
Re	Re	0.04440 0.31210 0.18790 0.76800
Cl	Cl	0.97000 0.35600 0.14400 -0.32200
Re	Re	0.54440 0.31210 0.68790 0.62600
Cl	Cl	0.47000 0.35600 0.64400 -0.39200
Re	Re	0.04440 0.68790 0.81210 0.74300
Cl	Cl	0.97000 0.64400 0.85600 -0.32700
Re	Re	0.04440 0.18790 0.31210 0.76800
Cl	Cl	0.97000 0.14400 0.35600 -0.32200
Re	Re	0.54440 0.68790 0.31210 0.62600
Cl	Cl	0.47000 0.64400 0.35600 -0.39200
Re	Re	0.95560 0.68790 0.18790 0.50000
Cl	Cl	0.03000 0.64400 0.14400 -0.46400
Re	Re	0.45560 0.68790 0.68790 0.62400
Cl	Cl	0.53000 0.64400 0.64400 -0.39200
Re	Re	0.45560 0.18790 0.18790 0.63300
Cl	Cl	0.53000 0.14400 0.14400 -0.39600
Re	Re	0.95560 0.31210 0.81210 0.50200
Cl	Cl	0.03000 0.35600 0.85600 -0.45600
Re	Re	0.45560 0.31210 0.31210 0.62900
Cl	Cl	0.53000 0.35600 0.35600 -0.39200
Re	Re	0.18790 0.04440 0.31210 0.76800
Cl	Cl	0.14400 0.97000 0.35600 -0.32200
Re	Re	0.18790 0.54440 0.81210 0.62600
Cl	Cl	0.14400 0.47000 0.85600 -0.39100
Re	Re	0.81210 0.04440 0.68790 0.74300
Cl	Cl	0.85600 0.97000 0.64400 -0.32700
Re	Re	0.81210 0.54440 0.18790 0.62600
Cl	Cl	0.85600 0.47000 0.14400 -0.39100
Re	Re	0.31210 0.04440 0.18790 0.76800
Cl	Cl	0.35600 0.97000 0.14400 -0.32200
Re	Re	0.18790 0.95560 0.68790 0.50000
Cl	Cl	0.14400 0.03000 0.64400 -0.46400
Re	Re	0.18790 0.45560 0.18790 0.63300
Cl	Cl	0.14400 0.53000 0.14400 -0.39600
Re	Re	0.81210 0.95560 0.31210 0.50200
Cl	Cl	0.85600 0.03000 0.35600 -0.45600
Re	Re	0.81210 0.45560 0.81210 0.62100
Cl	Cl	0.85600 0.53000 0.85600 -0.38800
Re	Re	0.31210 0.45560 0.31210 0.62900
Cl	Cl	0.35600 0.53000 0.35600 -0.39200
Re	Re	0.18790 0.31210 0.95560 0.49800
Cl	Cl	0.14400 0.35600 0.03000 -0.46600
Re	Re	0.18790 0.81210 0.45560 0.62700
Cl	Cl	0.14400 0.85600 0.53000 -0.39200
Re	Re	0.81210 0.68790 0.95560 0.50500
Cl	Cl	0.85600 0.64400 0.03000 -0.45400
Re	Re	0.81210 0.18790 0.45560 0.62700
Cl	Cl	0.85600 0.14400 0.53000 -0.39200
Re	Re	0.31210 0.18790 0.95560 0.49800
Cl	Cl	0.35600 0.14400 0.03000 -0.46600
Re	Re	0.18790 0.68790 0.04440 0.76000
Cl	Cl	0.14400 0.64400 0.97000 -0.32500
Re	Re	0.18790 0.18790 0.54440 0.63200
Cl	Cl	0.14400 0.14400 0.47000 -0.39500
Re	Re	0.81210 0.31210 0.04440 0.75100
Cl	Cl	0.85600 0.35600 0.97000 -0.32400
Re	Re	0.81210 0.81210 0.54440 0.62100
Cl	Cl	0.85600 0.85600 0.47000 -0.38800
Re	Re	0.31210 0.31210 0.54440 0.62900
Cl	Cl	0.35600 0.35600 0.47000 -0.39200
Re	Re	0.31210 0.04440 0.81210 0.75100
Cl	Cl	0.35600 0.97000 0.85600 -0.32400
Re	Re	0.31210 0.54440 0.31210 0.62900
Cl	Cl	0.35600 0.47000 0.35600 -0.39200
Re	Re	0.68790 0.04440 0.18790 0.76000
Cl	Cl	0.64400 0.97000 0.14400 -0.32500
Re	Re	0.68790 0.54440 0.68790 0.62300
Cl	Cl	0.64400 0.47000 0.64400 -0.39200
Re	Re	0.18790 0.54440 0.18790 0.63200
Cl	Cl	0.14400 0.47000 0.14400 -0.39500
Re	Re	0.68790 0.95560 0.81210 0.50500
Cl	Cl	0.64400 0.03000 0.85600 -0.45400
Re	Re	0.68790 0.45560 0.31210 0.62600
Cl	Cl	0.64400 0.53000 0.35600 -0.39200
Re	Re	0.18790 0.95560 0.31210 0.49800
Cl	Cl	0.14400 0.03000 0.35600 -0.46600
Re	Re	0.31210 0.95560 0.18790 0.49800
Cl	Cl	0.35600 0.03000 0.14400 -0.46600
Re	Re	0.31210 0.45560 0.68790 0.62600
Cl	Cl	0.35600 0.53000 0.64400 -0.39200
Re	Re	0.04440 0.18790 0.68790 0.76000
Cl	Cl	0.97000 0.14400 0.64400 -0.32500
Re	Re	0.54440 0.18790 0.18790 0.63200
Cl	Cl	0.47000 0.14400 0.14400 -0.39500
Re	Re	0.04440 0.81210 0.31210 0.75100
Cl	Cl	0.97000 0.85600 0.35600 -0.32400
Re	Re	0.54440 0.81210 0.81210 0.62100
Cl	Cl	0.47000 0.85600 0.85600 -0.38800
Re	Re	0.54440 0.31210 0.31210 0.62900
Cl	Cl	0.47000 0.35600 0.35600 -0.39200
Re	Re	0.95560 0.18790 0.31210 0.49800
Cl	Cl	0.03000 0.14400 0.35600 -0.46600
Re	Re	0.45560 0.18790 0.81210 0.62700
Cl	Cl	0.53000 0.14400 0.85600 -0.39200
Re	Re	0.95560 0.81210 0.68790 0.50500
Cl	Cl	0.03000 0.85600 0.64400 -0.45400
Re	Re	0.95560 0.31210 0.18790 0.49800
Cl	Cl	0.03000 0.35600 0.14400 -0.46600
Re	Re	0.45560 0.81210 0.18790 0.62700
Cl	Cl	0.53000 0.85600 0.14400 -0.39200
Re	Re	0.68790 0.81210 0.95560 0.50500
Cl	Cl	0.64400 0.85600 0.03000 -0.45400
Re	Re	0.68790 0.31210 0.45560 0.62600
Cl	Cl	0.64400 0.35600 0.53000 -0.39200
Re	Re	0.31210 0.68790 0.45560 0.62600
Cl	Cl	0.35600 0.64400 0.53000 -0.39200
Re	Re	0.31210 0.81210 0.04440 0.75100
Cl	Cl	0.35600 0.85600 0.97000 -0.32400
Re	Re	0.68790 0.18790 0.04440 0.76000
Cl	Cl	0.64400 0.14400 0.97000 -0.32500
Re	Re	0.68790 0.68790 0.54440 0.62300
Cl	Cl	0.64400 0.64400 0.47000 -0.39200
Re	Re	0.95560 0.68790 0.81210 0.50500
Cl	Cl	0.03000 0.64400 0.85600 -0.45400
Re	Re	0.45560 0.68790 0.31210 0.62600
Cl	Cl	0.53000 0.64400 0.35600 -0.39200
Re	Re	0.45560 0.31210 0.68790 0.62600
Cl	Cl	0.53000 0.35600 0.64400 -0.39200
Re	Re	0.04440 0.31210 0.81210 0.75100
Cl	Cl	0.97000 0.35600 0.85600 -0.32400
Re	Re	0.04440 0.68790 0.18790 0.76000
Cl	Cl	0.97000 0.64400 0.14400 -0.32500
Re	Re	0.54440 0.68790 0.68790 0.62300
Cl	Cl	0.47000 0.64400 0.64400 -0.39200
Re	Re	0.81210 0.95560 0.68790 0.50500
Cl	Cl	0.85600 0.03000 0.64400 -0.45400
Re	Re	0.81210 0.45560 0.18790 0.62700
Cl	Cl	0.85600 0.53000 0.14400 -0.39200
Re	Re	0.18790 0.45560 0.81210 0.62700
Cl	Cl	0.14400 0.53000 0.85600 -0.39200
Re	Re	0.81210 0.04440 0.31210 0.75100
Cl	Cl	0.85600 0.97000 0.35600 -0.32400
Re	Re	0.81210 0.54440 0.81210 0.62100
Cl	Cl	0.85600 0.47000 0.85600 -0.38800
Re	Re	0.18790 0.04440 0.68790 0.76000
Cl	Cl	0.14400 0.97000 0.64400 -0.32500
Re	Re	0.81210 0.68790 0.04440 0.74300
Cl	Cl	0.85600 0.64400 0.97000 -0.32700
Re	Re	0.81210 0.18790 0.54440 0.62600
Cl	Cl	0.85600 0.14400 0.47000 -0.39100
Re	Re	0.18790 0.81210 0.54440 0.62600
Cl	Cl	0.14400 0.85600 0.47000 -0.39100
Re	Re	0.81210 0.31210 0.95560 0.50200
Cl	Cl	0.85600 0.35600 0.03000 -0.45600
Re	Re	0.81210 0.81210 0.45560 0.62100
Cl	Cl	0.85600 0.85600 0.53000 -0.38800
Re	Re	0.18790 0.68790 0.95560 0.50000
Cl	Cl	0.14400 0.64400 0.03000 -0.46400
Re	Re	0.68790 0.95560 0.18790 0.50000
Cl	Cl	0.64400 0.03000 0.14400 -0.46400
Re	Re	0.68790 0.45560 0.68790 0.62400
Cl	Cl	0.64400 0.53000 0.64400 -0.39200
Re	Re	0.31210 0.95560 0.81210 0.50200
Cl	Cl	0.35600 0.03000 0.85600 -0.45600
Re	Re	0.31210 0.54440 0.68790 0.62600
Cl	Cl	0.35600 0.47000 0.64400 -0.39200
Re	Re	0.68790 0.04440 0.81210 0.74300
Cl	Cl	0.64400 0.97000 0.85600 -0.32700
Re	Re	0.68790 0.54440 0.31210 0.62600
Cl	Cl	0.64400 0.47000 0.35600 -0.39200
Re	Re	0.95560 0.81210 0.31210 0.50200
Cl	Cl	0.03000 0.85600 0.35600 -0.45600
Re	Re	0.45560 0.81210 0.81210 0.62100
Cl	Cl	0.53000 0.85600 0.85600 -0.38800
Re	Re	0.95560 0.18790 0.68790 0.50000
Cl	Cl	0.03000 0.14400 0.64400 -0.46400
Re	Re	0.04440 0.81210 0.68790 0.74300
Cl	Cl	0.97000 0.85600 0.64400 -0.32700
Re	Re	0.54440 0.81210 0.18790 0.62600
Cl	Cl	0.47000 0.85600 0.14400 -0.39100
Re	Re	0.54440 0.18790 0.81210 0.62600
Cl	Cl	0.47000 0.14400 0.85600 -0.39100
