data_crystal

_cell_length_a 14.76630
_cell_length_b 26.94400
_cell_length_c 24.18200
_cell_angle_alpha 90.00000
_cell_angle_beta  101.59300
_cell_angle_gamma 90.00000

_symmetry_space_group_name_	'P 1'
_symmetry_space_group_name_H-M	'P 1'

loop_
_symmetry_equiv_pos_as_xyz
  x,y,z

loop_
_atom_site_label
_atom_site_type_symbol
_atom_site_fract_x
_atom_site_fract_y
_atom_site_fract_z
_atom_site_charge
C 	C 	0.47400 0.73126 0.29367 0.37200
C 	C 	0.42340 0.68811 0.26788 -0.05900
C 	C 	0.37020 0.67989 0.21421 0.03400
C 	C 	0.33510 0.63091 0.21334 -0.06000
C 	C 	0.37000 0.61034 0.26684 0.05200
C 	C 	0.36440 0.56107 0.29224 0.05500
C 	C 	0.29620 0.52547 0.27297 -0.11600
H 	H 	0.24920 0.53170 0.24070 0.05600
C 	C 	0.29850 0.48106 0.30180 0.02500
H 	H 	0.25300 0.45640 0.28940 0.01300
C 	C 	0.36740 0.47249 0.34882 -0.11800
H 	H 	0.36940 0.44220 0.36920 0.06600
C 	C 	0.43380 0.50934 0.36578 0.05800
C 	C 	0.51050 0.50585 0.41491 0.05300
C 	C 	0.55510 0.46621 0.44678 -0.04700
C 	C 	0.62850 0.48693 0.48727 0.02900
C 	C 	0.62570 0.53820 0.47869 -0.04700
C 	C 	0.68500 0.57848 0.50470 0.35500
C 	C 	0.36150 0.71495 0.16515 -0.01700
H 	H 	0.34950 0.74890 0.17760 0.04300
H 	H 	0.30840 0.70490 0.13530 0.03300
C 	C 	0.44920 0.71502 0.14121 -0.36500
H 	H 	0.50150 0.72570 0.17050 0.13200
H 	H 	0.44180 0.73790 0.10910 0.13100
H 	H 	0.46090 0.68150 0.12860 0.12300
C 	C 	0.27570 0.60620 0.16308 0.05900
H 	H 	0.24710 0.63210 0.13610 0.00500
H 	H 	0.22520 0.58800 0.17570 0.00200
C 	C 	0.32790 0.57052 0.13300 -0.42600
H 	H 	0.37710 0.58840 0.11950 0.14000
H 	H 	0.28540 0.55580 0.10080 0.14000
H 	H 	0.35520 0.54420 0.15910 0.14200
C 	C 	0.53440 0.41182 0.43897 0.03100
H 	H 	0.46730 0.40650 0.43620 0.02100
H 	H 	0.56740 0.39370 0.47270 0.01800
C 	C 	0.56240 0.39009 0.38650 -0.39700
H 	H 	0.52810 0.40690 0.35280 0.13400
H 	H 	0.54810 0.35450 0.38410 0.13500
H 	H 	0.62890 0.39490 0.38900 0.12800
C 	C 	0.69610 0.45907 0.53166 -0.02300
H 	H 	0.66460 0.42990 0.54390 0.03500
H 	H 	0.71550 0.48090 0.56490 0.04900
C 	C 	0.78180 0.44166 0.51095 -0.35500
H 	H 	0.76300 0.42200 0.47640 0.12000
H 	H 	0.82010 0.42120 0.54010 0.12500
H 	H 	0.81740 0.47060 0.50300 0.13000
C 	C 	0.70450 0.83522 0.31911 0.36600
C 	C 	0.79440 0.85916 0.32360 -0.06100
C 	C 	0.81910 0.90651 0.30861 0.02700
C 	C 	0.91510 0.91123 0.32786 -0.06200
C 	C 	0.94690 0.86647 0.35458 0.05200
C 	C 	0.03690 0.85070 0.38676 0.05600
C 	C 	0.12150 0.86923 0.37780 -0.11300
H 	H 	0.12340 0.89270 0.34870 0.05600
C 	C 	0.20180 0.85270 0.41220 0.02100
H 	H 	0.25990 0.86450 0.40660 0.01900
C 	C 	0.19810 0.81906 0.45473 -0.11300
H 	H 	0.25290 0.80860 0.47970 0.06600
C 	C 	0.11170 0.80073 0.46027 0.05900
C 	C 	0.09790 0.76316 0.50177 0.05300
C 	C 	0.14930 0.74768 0.55416 -0.05700
C 	C 	0.09600 0.71145 0.57570 0.02200
C 	C 	0.01470 0.70527 0.53545 -0.06200
C 	C 	0.93040 0.67692 0.53583 0.37600
C 	C 	0.75500 0.94752 0.28208 -0.01800
H 	H 	0.70340 0.93300 0.25430 0.02500
H 	H 	0.78910 0.97050 0.26170 0.02000
C 	C 	0.71590 0.97654 0.32634 -0.35500
H 	H 	0.67960 0.95420 0.34540 0.12100
H 	H 	0.67620 0.00340 0.30790 0.11100
H 	H 	0.76690 0.99070 0.35420 0.11900
C 	C 	0.96970 0.95774 0.32275 0.05500
H 	H 	0.02660 0.95750 0.35240 -0.00000
H 	H 	0.93260 0.98700 0.32930 0.00100
C 	C 	0.99620 0.96289 0.26521 -0.42700
H 	H 	0.03790 0.93580 0.26000 0.14300
H 	H 	0.02730 0.99480 0.26320 0.14600
H 	H 	0.94030 0.96140 0.23550 0.14300
C 	C 	0.23850 0.76907 0.58600 0.04700
H 	H 	0.28030 0.77510 0.55940 0.01000
H 	H 	0.26870 0.74470 0.61440 0.00200
C 	C 	0.22420 0.81762 0.61573 -0.41700
H 	H 	0.19620 0.84230 0.58760 0.13900
H 	H 	0.28400 0.82990 0.63630 0.14200
H 	H 	0.18320 0.81180 0.64230 0.13600
C 	C 	0.12000 0.68637 0.63275 -0.00400
H 	H 	0.16390 0.70750 0.65890 0.01700
H 	H 	0.06320 0.68290 0.64830 0.03000
C 	C 	0.16250 0.63576 0.62930 -0.37000
H 	H 	0.11800 0.61410 0.60510 0.13300
H 	H 	0.17890 0.62130 0.66720 0.12500
H 	H 	0.21830 0.63900 0.61340 0.12000
C 	C 	0.49000 0.86071 0.39439 0.37500
C 	C 	0.45480 0.88710 0.43870 -0.05500
C 	C 	0.39620 0.92779 0.43789 0.02700
C 	C 	0.38560 0.93597 0.49418 -0.06100
C 	C 	0.43650 0.89913 0.52763 0.05200
C 	C 	0.45030 0.88534 0.58765 0.05600
C 	C 	0.41800 0.91382 0.62804 -0.12500
H 	H 	0.38430 0.94360 0.61760 0.05500
C 	C 	0.43610 0.89780 0.68355 0.02300
H 	H 	0.41520 0.91670 0.71170 0.00100
C 	C 	0.48460 0.85426 0.69789 -0.11900
H 	H 	0.49870 0.84330 0.73600 0.06200
C 	C 	0.51260 0.82651 0.65509 0.05900
C 	C 	0.56070 0.77900 0.66550 0.04800
C 	C 	0.56030 0.74183 0.70586 -0.05300
C 	C 	0.61690 0.70269 0.69321 0.02000
C 	C 	0.65000 0.71655 0.64526 -0.05000
C 	C 	0.70690 0.68983 0.61202 0.35700
C 	C 	0.35340 0.95834 0.38678 -0.01000
H 	H 	0.29280 0.97140 0.39170 0.01900
H 	H 	0.34270 0.93700 0.35280 0.03000
C 	C 	0.41610 0.00144 0.37858 -0.37400
H 	H 	0.42490 0.02310 0.41180 0.13500
H 	H 	0.38750 0.02040 0.34500 0.12400
H 	H 	0.47600 0.98860 0.37370 0.12700
C 	C 	0.32490 0.97549 0.51183 0.06200
H 	H 	0.31480 0.00200 0.48290 -0.00100
H 	H 	0.35760 0.99040 0.54770 -0.00300
C 	C 	0.23220 0.95627 0.51970 -0.43200
H 	H 	0.19750 0.94350 0.48360 0.14700
H 	H 	0.19740 0.98330 0.53280 0.13600
H 	H 	0.24150 0.92950 0.54770 0.14200
C 	C 	0.50110 0.73933 0.74994 0.05200
H 	H 	0.49910 0.77260 0.76710 0.00600
H 	H 	0.52990 0.71610 0.78010 0.01300
C 	C 	0.40330 0.72240 0.72601 -0.42800
H 	H 	0.37470 0.74500 0.69570 0.14500
H 	H 	0.36730 0.72260 0.75590 0.14900
H 	H 	0.40450 0.68870 0.71090 0.14400
C 	C 	0.63860 0.65532 0.72601 0.00500
H 	H 	0.63350 0.62710 0.69930 0.02900
H 	H 	0.59240 0.65030 0.75000 0.01700
C 	C 	0.73520 0.65541 0.76331 -0.39200
H 	H 	0.78140 0.65950 0.73970 0.14300
H 	H 	0.74580 0.62390 0.78380 0.13500
H 	H 	0.74040 0.68290 0.79030 0.14000
C 	C 	0.93850 0.58049 0.70036 0.61600
C 	C 	0.98580 0.54244 0.74120 -0.94300
H 	H 	0.94530 0.51350 0.74070 0.29900
H 	H 	0.99950 0.55660 0.77930 0.27600
H 	H 	0.04350 0.53220 0.73040 0.29100
N 	N 	0.42281 0.64537 0.29870 -0.17700
N 	N 	0.43144 0.55269 0.33779 -0.13200
N 	N 	0.55444 0.54843 0.43488 -0.18900
N 	N 	0.87259 0.83597 0.35198 -0.18600
N 	N 	0.03300 0.81648 0.42686 -0.13100
N 	N 	0.01712 0.73737 0.49182 -0.18300
N 	N 	0.47780 0.87065 0.49335 -0.19200
N 	N 	0.49606 0.84243 0.60099 -0.13300
N 	N 	0.61525 0.76281 0.62950 -0.17600
O 	O 	0.52027 0.72549 0.34367 -0.49800
O 	O 	0.46946 0.77106 0.26553 -0.50800
O 	O 	0.66119 0.62220 0.48743 -0.49700
O 	O 	0.75752 0.56801 0.54105 -0.48000
O 	O 	0.63427 0.85766 0.29171 -0.50000
O 	O 	0.70304 0.79395 0.34432 -0.51100
O 	O 	0.86359 0.68421 0.49469 -0.51600
O 	O 	0.92979 0.64794 0.57687 -0.49500
O 	O 	0.45765 0.87186 0.34314 -0.49700
O 	O 	0.54998 0.82800 0.41073 -0.51100
O 	O 	0.72357 0.71008 0.56847 -0.47400
O 	O 	0.73609 0.64732 0.63051 -0.47600
O 	O 	0.66060 0.74263 0.45907 -1.07700
O 	O 	0.89191 0.56451 0.65418 -0.52500
O 	O 	0.94363 0.62641 0.71199 -0.57100
Zn	Zn	0.50370 0.83991 0.28114 1.22600
Zn	Zn	0.61315 0.76909 0.38648 1.23300
Zn	Zn	0.72965 0.68432 0.48701 1.22500
Zn	Zn	0.82848 0.61224 0.59834 1.23200
H 	H 	0.44200 0.64230 0.33410 0.13100
H 	H 	0.53500 0.57640 0.42510 0.14000
H 	H 	0.87700 0.80660 0.36210 0.13000
H 	H 	0.97300 0.73780 0.46390 0.13200
H 	H 	0.51700 0.85030 0.50540 0.13800
H 	H 	0.62600 0.77990 0.60200 0.11800
H 	H 	0.66100 0.76090 0.48020 0.54500
C 	C 	0.97400 0.76874 0.79367 0.37400
C 	C 	0.92340 0.81189 0.76788 -0.05900
C 	C 	0.87020 0.82011 0.71421 0.03500
C 	C 	0.83510 0.86909 0.71334 -0.06100
C 	C 	0.87000 0.88966 0.76684 0.05300
C 	C 	0.86440 0.93893 0.79224 0.05500
C 	C 	0.79620 0.97453 0.77297 -0.11500
H 	H 	0.74920 0.96830 0.74070 0.05600
C 	C 	0.79850 0.01894 0.80180 0.02500
H 	H 	0.75300 0.04360 0.78940 0.01300
C 	C 	0.86740 0.02751 0.84882 -0.12000
H 	H 	0.86940 0.05780 0.86920 0.06700
C 	C 	0.93380 0.99066 0.86578 0.06100
C 	C 	0.01050 0.99415 0.91491 0.05000
C 	C 	0.05510 0.03379 0.94678 -0.04600
C 	C 	0.12850 0.01307 0.98727 0.02900
C 	C 	0.12570 0.96180 0.97869 -0.04800
C 	C 	0.18500 0.92152 0.00470 0.35500
C 	C 	0.86150 0.78505 0.66515 -0.02000
H 	H 	0.84950 0.75110 0.67760 0.04400
H 	H 	0.80840 0.79510 0.63530 0.03300
C 	C 	0.94920 0.78498 0.64121 -0.36000
H 	H 	0.00150 0.77430 0.67050 0.13000
H 	H 	0.94180 0.76210 0.60910 0.13000
H 	H 	0.96090 0.81850 0.62860 0.12200
C 	C 	0.77570 0.89380 0.66308 0.06000
H 	H 	0.74710 0.86790 0.63610 0.00500
H 	H 	0.72520 0.91200 0.67570 0.00200
C 	C 	0.82790 0.92948 0.63300 -0.42700
H 	H 	0.87710 0.91160 0.61950 0.14000
H 	H 	0.78540 0.94420 0.60080 0.14000
H 	H 	0.85520 0.95580 0.65910 0.14200
C 	C 	0.03440 0.08818 0.93897 0.03100
H 	H 	0.96730 0.09350 0.93620 0.02100
H 	H 	0.06740 0.10630 0.97270 0.01800
C 	C 	0.06240 0.10991 0.88650 -0.39800
H 	H 	0.02810 0.09310 0.85280 0.13400
H 	H 	0.04810 0.14550 0.88410 0.13500
H 	H 	0.12890 0.10510 0.88900 0.12800
C 	C 	0.19610 0.04093 0.03166 -0.02300
H 	H 	0.16460 0.07010 0.04390 0.03600
H 	H 	0.21550 0.01910 0.06490 0.05000
C 	C 	0.28180 0.05834 0.01095 -0.35300
H 	H 	0.26300 0.07800 0.97640 0.11900
H 	H 	0.32010 0.07880 0.04010 0.12400
H 	H 	0.31740 0.02940 0.00300 0.13000
C 	C 	0.20450 0.66478 0.81911 0.36600
C 	C 	0.29440 0.64084 0.82360 -0.06100
C 	C 	0.31910 0.59349 0.80861 0.02700
C 	C 	0.41510 0.58877 0.82786 -0.06200
C 	C 	0.44690 0.63353 0.85458 0.05100
C 	C 	0.53690 0.64930 0.88676 0.05700
C 	C 	0.62150 0.63077 0.87780 -0.11400
H 	H 	0.62340 0.60730 0.84870 0.05700
C 	C 	0.70180 0.64730 0.91220 0.02200
H 	H 	0.75990 0.63550 0.90660 0.01900
C 	C 	0.69810 0.68094 0.95473 -0.11300
H 	H 	0.75290 0.69140 0.97970 0.06700
C 	C 	0.61170 0.69927 0.96027 0.06000
C 	C 	0.59790 0.73684 0.00177 0.05200
C 	C 	0.64930 0.75232 0.05416 -0.05700
C 	C 	0.59600 0.78855 0.07570 0.02200
C 	C 	0.51470 0.79473 0.03545 -0.06100
C 	C 	0.43040 0.82308 0.03583 0.37500
C 	C 	0.25500 0.55248 0.78208 -0.01800
H 	H 	0.20340 0.56700 0.75430 0.02500
H 	H 	0.28910 0.52950 0.76170 0.02000
C 	C 	0.21590 0.52346 0.82634 -0.35600
H 	H 	0.17960 0.54580 0.84540 0.12100
H 	H 	0.17620 0.49660 0.80790 0.11100
H 	H 	0.26690 0.50930 0.85420 0.11900
C 	C 	0.46970 0.54226 0.82275 0.05500
H 	H 	0.52660 0.54250 0.85240 0.00000
H 	H 	0.43260 0.51300 0.82930 0.00100
C 	C 	0.49620 0.53711 0.76521 -0.43200
H 	H 	0.53790 0.56420 0.76000 0.14500
H 	H 	0.52730 0.50520 0.76320 0.14800
H 	H 	0.44030 0.53860 0.73550 0.14500
C 	C 	0.73850 0.73093 0.08600 0.04700
H 	H 	0.78030 0.72490 0.05940 0.01000
H 	H 	0.76870 0.75530 0.11440 0.00200
C 	C 	0.72420 0.68238 0.11573 -0.41700
H 	H 	0.69620 0.65770 0.08760 0.13900
H 	H 	0.78400 0.67010 0.13630 0.14200
H 	H 	0.68320 0.68820 0.14230 0.13600
C 	C 	0.62000 0.81363 0.13275 -0.00400
H 	H 	0.66390 0.79250 0.15890 0.01700
H 	H 	0.56320 0.81710 0.14830 0.03000
C 	C 	0.66250 0.86424 0.12930 -0.37000
H 	H 	0.61800 0.88590 0.10510 0.13300
H 	H 	0.67890 0.87870 0.16720 0.12500
H 	H 	0.71830 0.86100 0.11340 0.12000
C 	C 	0.99000 0.63929 0.89439 0.37600
C 	C 	0.95480 0.61290 0.93870 -0.05500
C 	C 	0.89620 0.57221 0.93789 0.02600
C 	C 	0.88560 0.56403 0.99418 -0.05900
C 	C 	0.93650 0.60087 0.02763 0.05000
C 	C 	0.95030 0.61466 0.08765 0.05600
C 	C 	0.91800 0.58618 0.12804 -0.12500
H 	H 	0.88430 0.55640 0.11760 0.05500
C 	C 	0.93610 0.60220 0.18355 0.02300
H 	H 	0.91520 0.58330 0.21170 0.00100
C 	C 	0.98460 0.64574 0.19789 -0.11900
H 	H 	0.99870 0.65670 0.23600 0.06200
C 	C 	0.01260 0.67349 0.15509 0.05900
C 	C 	0.06070 0.72100 0.16550 0.04800
C 	C 	0.06030 0.75817 0.20586 -0.05300
C 	C 	0.11690 0.79731 0.19321 0.02000
C 	C 	0.15000 0.78345 0.14526 -0.04900
C 	C 	0.20690 0.81017 0.11202 0.35700
C 	C 	0.85340 0.54166 0.88678 -0.00900
H 	H 	0.79280 0.52860 0.89170 0.01900
H 	H 	0.84270 0.56300 0.85280 0.03000
C 	C 	0.91610 0.49856 0.87858 -0.37700
H 	H 	0.92490 0.47690 0.91180 0.13500
H 	H 	0.88750 0.47960 0.84500 0.12500
H 	H 	0.97600 0.51140 0.87370 0.12800
C 	C 	0.82490 0.52451 0.01183 0.06100
H 	H 	0.81480 0.49800 0.98290 -0.00000
H 	H 	0.85760 0.50960 0.04770 -0.00300
C 	C 	0.73220 0.54373 0.01970 -0.43200
H 	H 	0.69750 0.55650 0.98360 0.14800
H 	H 	0.69740 0.51670 0.03280 0.13700
H 	H 	0.74150 0.57050 0.04770 0.14300
C 	C 	0.00110 0.76067 0.24994 0.05000
H 	H 	0.99910 0.72740 0.26710 0.00700
H 	H 	0.02990 0.78390 0.28010 0.01300
C 	C 	0.90330 0.77760 0.22601 -0.42600
H 	H 	0.87470 0.75500 0.19570 0.14500
H 	H 	0.86730 0.77740 0.25590 0.14800
H 	H 	0.90450 0.81130 0.21090 0.14300
C 	C 	0.13860 0.84468 0.22601 0.00500
H 	H 	0.13350 0.87290 0.19930 0.02900
H 	H 	0.09240 0.84970 0.25000 0.01700
C 	C 	0.23520 0.84459 0.26331 -0.39200
H 	H 	0.28140 0.84050 0.23970 0.14300
H 	H 	0.24580 0.87610 0.28380 0.13500
H 	H 	0.24040 0.81710 0.29030 0.14000
C 	C 	0.43850 0.91951 0.20036 0.61600
C 	C 	0.48580 0.95756 0.24120 -0.94500
H 	H 	0.44530 0.98650 0.24070 0.29900
H 	H 	0.49950 0.94340 0.27930 0.27600
H 	H 	0.54350 0.96780 0.23040 0.29200
N 	N 	0.92281 0.85463 0.79870 -0.17700
N 	N 	0.93144 0.94731 0.83779 -0.13200
N 	N 	0.05444 0.95157 0.93488 -0.18800
N 	N 	0.37259 0.66403 0.85198 -0.18600
N 	N 	0.53300 0.68352 0.92686 -0.13100
N 	N 	0.51712 0.76263 0.99182 -0.18200
N 	N 	0.97780 0.62935 0.99335 -0.19100
N 	N 	0.99606 0.65757 0.10099 -0.13300
N 	N 	0.11525 0.73719 0.12950 -0.17600
O 	O 	0.02027 0.77451 0.84367 -0.50000
O 	O 	0.96946 0.72894 0.76553 -0.50800
O 	O 	0.16119 0.87780 0.98743 -0.49700
O 	O 	0.25752 0.93199 0.04105 -0.48000
O 	O 	0.13427 0.64234 0.79171 -0.50100
O 	O 	0.20304 0.70605 0.84432 -0.51100
O 	O 	0.36359 0.81579 0.99469 -0.51600
O 	O 	0.42979 0.85206 0.07687 -0.49500
O 	O 	0.95765 0.62814 0.84314 -0.49700
O 	O 	0.04998 0.67200 0.91073 -0.51200
O 	O 	0.22357 0.78992 0.06847 -0.47400
O 	O 	0.23609 0.85268 0.13051 -0.47600
O 	O 	0.16060 0.75737 0.95907 -1.07800
O 	O 	0.39191 0.93549 0.15418 -0.52500
O 	O 	0.44363 0.87359 0.21199 -0.57100
Zn	Zn	0.00370 0.66009 0.78114 1.22500
Zn	Zn	0.11315 0.73091 0.88648 1.23300
Zn	Zn	0.22965 0.81568 0.98701 1.22500
Zn	Zn	0.32848 0.88776 0.09834 1.23200
H 	H 	0.94200 0.85770 0.83410 0.13100
H 	H 	0.03500 0.92360 0.92510 0.13900
H 	H 	0.37700 0.69340 0.86210 0.13000
H 	H 	0.47300 0.76220 0.96390 0.13100
H 	H 	0.01700 0.64970 0.00540 0.13700
H 	H 	0.12600 0.72010 0.10200 0.11800
H 	H 	0.16100 0.73910 0.98020 0.54500
C 	C 	0.02600 0.23126 0.20633 0.37400
C 	C 	0.07660 0.18811 0.23212 -0.05900
C 	C 	0.12980 0.17989 0.28579 0.03500
C 	C 	0.16490 0.13091 0.28666 -0.06100
C 	C 	0.13000 0.11034 0.23316 0.05300
C 	C 	0.13560 0.06107 0.20776 0.05500
C 	C 	0.20380 0.02547 0.22703 -0.11500
H 	H 	0.25080 0.03170 0.25930 0.05600
C 	C 	0.20150 0.98106 0.19820 0.02500
H 	H 	0.24700 0.95640 0.21060 0.01300
C 	C 	0.13260 0.97249 0.15118 -0.12000
H 	H 	0.13060 0.94220 0.13080 0.06700
C 	C 	0.06620 0.00934 0.13422 0.06100
C 	C 	0.98950 0.00585 0.08509 0.05000
C 	C 	0.94490 0.96621 0.05322 -0.04600
C 	C 	0.87150 0.98693 0.01273 0.02900
C 	C 	0.87430 0.03820 0.02131 -0.04800
C 	C 	0.81500 0.07848 0.99530 0.35500
C 	C 	0.13850 0.21495 0.33485 -0.02000
H 	H 	0.15050 0.24890 0.32240 0.04400
H 	H 	0.19160 0.20490 0.36470 0.03300
C 	C 	0.05080 0.21502 0.35879 -0.36000
H 	H 	0.99850 0.22570 0.32950 0.13000
H 	H 	0.05820 0.23790 0.39090 0.13000
H 	H 	0.03910 0.18150 0.37140 0.12200
C 	C 	0.22430 0.10620 0.33692 0.06000
H 	H 	0.25290 0.13210 0.36390 0.00500
H 	H 	0.27480 0.08800 0.32430 0.00200
C 	C 	0.17210 0.07052 0.36700 -0.42700
H 	H 	0.12290 0.08840 0.38050 0.14000
H 	H 	0.21460 0.05580 0.39920 0.14000
H 	H 	0.14480 0.04420 0.34090 0.14200
C 	C 	0.96560 0.91182 0.06103 0.03100
H 	H 	0.03270 0.90650 0.06380 0.02100
H 	H 	0.93260 0.89370 0.02730 0.01800
C 	C 	0.93760 0.89009 0.11350 -0.39800
H 	H 	0.97190 0.90690 0.14720 0.13400
H 	H 	0.95190 0.85450 0.11590 0.13500
H 	H 	0.87110 0.89490 0.11100 0.12800
C 	C 	0.80390 0.95907 0.96834 -0.02300
H 	H 	0.83540 0.92990 0.95610 0.03600
H 	H 	0.78450 0.98090 0.93510 0.05000
C 	C 	0.71820 0.94166 0.98905 -0.35300
H 	H 	0.73700 0.92200 0.02360 0.11900
H 	H 	0.67990 0.92120 0.95990 0.12400
H 	H 	0.68260 0.97060 0.99700 0.13000
C 	C 	0.79550 0.33522 0.18089 0.36600
C 	C 	0.70560 0.35916 0.17640 -0.06100
C 	C 	0.68090 0.40651 0.19139 0.02700
C 	C 	0.58490 0.41123 0.17214 -0.06200
C 	C 	0.55310 0.36647 0.14542 0.05100
C 	C 	0.46310 0.35070 0.11324 0.05700
C 	C 	0.37850 0.36923 0.12220 -0.11400
H 	H 	0.37660 0.39270 0.15130 0.05700
C 	C 	0.29820 0.35270 0.08780 0.02200
H 	H 	0.24010 0.36450 0.09340 0.01900
C 	C 	0.30190 0.31906 0.04527 -0.11300
H 	H 	0.24710 0.30860 0.02030 0.06700
C 	C 	0.38830 0.30073 0.03973 0.06000
C 	C 	0.40210 0.26316 0.99823 0.05200
C 	C 	0.35070 0.24768 0.94584 -0.05700
C 	C 	0.40400 0.21145 0.92430 0.02200
C 	C 	0.48530 0.20527 0.96455 -0.06100
C 	C 	0.56960 0.17692 0.96417 0.37500
C 	C 	0.74500 0.44752 0.21792 -0.01800
H 	H 	0.79660 0.43300 0.24570 0.02500
H 	H 	0.71090 0.47050 0.23830 0.02000
C 	C 	0.78410 0.47654 0.17366 -0.35600
H 	H 	0.82040 0.45420 0.15460 0.12100
H 	H 	0.82380 0.50340 0.19210 0.11100
H 	H 	0.73310 0.49070 0.14580 0.11900
C 	C 	0.53030 0.45774 0.17725 0.05500
H 	H 	0.47340 0.45750 0.14760 0.00000
H 	H 	0.56740 0.48700 0.17070 0.00100
C 	C 	0.50380 0.46289 0.23479 -0.43200
H 	H 	0.46210 0.43580 0.24000 0.14500
H 	H 	0.47270 0.49480 0.23680 0.14800
H 	H 	0.55970 0.46140 0.26450 0.14500
C 	C 	0.26150 0.26907 0.91400 0.04700
H 	H 	0.21970 0.27510 0.94060 0.01000
H 	H 	0.23130 0.24470 0.88560 0.00200
C 	C 	0.27580 0.31762 0.88427 -0.41700
H 	H 	0.30380 0.34230 0.91240 0.13900
H 	H 	0.21600 0.32990 0.86370 0.14200
H 	H 	0.31680 0.31180 0.85770 0.13600
C 	C 	0.38000 0.18637 0.86725 -0.00400
H 	H 	0.33610 0.20750 0.84110 0.01700
H 	H 	0.43680 0.18290 0.85170 0.03000
C 	C 	0.33750 0.13576 0.87070 -0.37000
H 	H 	0.38200 0.11410 0.89490 0.13300
H 	H 	0.32110 0.12130 0.83280 0.12500
H 	H 	0.28170 0.13900 0.88660 0.12000
C 	C 	0.01000 0.36071 0.10561 0.37600
C 	C 	0.04520 0.38710 0.06130 -0.05500
C 	C 	0.10380 0.42779 0.06211 0.02600
C 	C 	0.11440 0.43597 0.00582 -0.05900
C 	C 	0.06350 0.39913 0.97237 0.05000
C 	C 	0.04970 0.38534 0.91235 0.05600
C 	C 	0.08200 0.41382 0.87196 -0.12500
H 	H 	0.11570 0.44360 0.88240 0.05500
C 	C 	0.06390 0.39780 0.81645 0.02300
H 	H 	0.08480 0.41670 0.78830 0.00100
C 	C 	0.01540 0.35426 0.80211 -0.11900
H 	H 	0.00130 0.34330 0.76400 0.06200
C 	C 	0.98740 0.32651 0.84491 0.05900
C 	C 	0.93930 0.27900 0.83450 0.04800
C 	C 	0.93970 0.24183 0.79414 -0.05300
C 	C 	0.88310 0.20269 0.80679 0.02000
C 	C 	0.85000 0.21655 0.85474 -0.04900
C 	C 	0.79310 0.18983 0.88798 0.35700
C 	C 	0.14660 0.45834 0.11322 -0.00900
H 	H 	0.20720 0.47140 0.10830 0.01900
H 	H 	0.15730 0.43700 0.14720 0.03000
C 	C 	0.08390 0.50144 0.12142 -0.37700
H 	H 	0.07510 0.52310 0.08820 0.13500
H 	H 	0.11250 0.52040 0.15500 0.12500
H 	H 	0.02400 0.48860 0.12630 0.12800
C 	C 	0.17510 0.47549 0.98817 0.06100
H 	H 	0.18520 0.50200 0.01710 -0.00000
H 	H 	0.14240 0.49040 0.95230 -0.00300
C 	C 	0.26780 0.45627 0.98030 -0.43200
H 	H 	0.30250 0.44350 0.01640 0.14800
H 	H 	0.30260 0.48330 0.96720 0.13700
H 	H 	0.25850 0.42950 0.95230 0.14300
C 	C 	0.99890 0.23933 0.75006 0.05000
H 	H 	0.00090 0.27260 0.73290 0.00700
H 	H 	0.97010 0.21610 0.71990 0.01300
C 	C 	0.09670 0.22240 0.77399 -0.42600
H 	H 	0.12530 0.24500 0.80430 0.14500
H 	H 	0.13270 0.22260 0.74410 0.14800
H 	H 	0.09550 0.18870 0.78910 0.14300
C 	C 	0.86140 0.15532 0.77399 0.00500
H 	H 	0.86650 0.12710 0.80070 0.02900
H 	H 	0.90760 0.15030 0.75000 0.01700
C 	C 	0.76480 0.15541 0.73669 -0.39200
H 	H 	0.71860 0.15950 0.76030 0.14300
H 	H 	0.75420 0.12390 0.71620 0.13500
H 	H 	0.75960 0.18290 0.70970 0.14000
C 	C 	0.56150 0.08049 0.79964 0.61600
C 	C 	0.51420 0.04244 0.75880 -0.94500
H 	H 	0.55470 0.01350 0.75930 0.29900
H 	H 	0.50050 0.05660 0.72070 0.27600
H 	H 	0.45650 0.03220 0.76960 0.29200
N 	N 	0.07719 0.14537 0.20130 -0.17700
N 	N 	0.06856 0.05269 0.16221 -0.13200
N 	N 	0.94556 0.04843 0.06512 -0.18800
N 	N 	0.62741 0.33597 0.14802 -0.18600
N 	N 	0.46700 0.31648 0.07314 -0.13100
N 	N 	0.48288 0.23737 0.00818 -0.18200
N 	N 	0.02220 0.37065 0.00665 -0.19100
N 	N 	0.00394 0.34243 0.89901 -0.13300
N 	N 	0.88475 0.26281 0.87050 -0.17600
O 	O 	0.97973 0.22549 0.15633 -0.50000
O 	O 	0.03054 0.27106 0.23447 -0.50800
O 	O 	0.83881 0.12220 0.01257 -0.49700
O 	O 	0.74248 0.06801 0.95895 -0.48000
O 	O 	0.86573 0.35766 0.20829 -0.50100
O 	O 	0.79696 0.29395 0.15568 -0.51100
O 	O 	0.63641 0.18421 0.00531 -0.51600
O 	O 	0.57021 0.14794 0.92313 -0.49500
O 	O 	0.04235 0.37186 0.15686 -0.49700
O 	O 	0.95002 0.32800 0.08927 -0.51200
O 	O 	0.77643 0.21008 0.93153 -0.47400
O 	O 	0.76391 0.14732 0.86949 -0.47600
O 	O 	0.83940 0.24263 0.04093 -1.07800
O 	O 	0.60809 0.06451 0.84582 -0.52500
O 	O 	0.55637 0.12641 0.78801 -0.57100
Zn	Zn	0.99630 0.33991 0.21886 1.22500
Zn	Zn	0.88685 0.26909 0.11352 1.23300
Zn	Zn	0.77035 0.18432 0.01299 1.22500
Zn	Zn	0.67152 0.11224 0.90166 1.23200
H 	H 	0.05800 0.14230 0.16590 0.13100
H 	H 	0.96500 0.07640 0.07490 0.13900
H 	H 	0.62300 0.30660 0.13790 0.13000
H 	H 	0.52700 0.23780 0.03610 0.13100
H 	H 	0.98300 0.35030 0.99460 0.13700
H 	H 	0.87400 0.27990 0.89800 0.11800
H 	H 	0.83900 0.26090 0.01980 0.54500
C 	C 	0.52600 0.26874 0.70633 0.37300
C 	C 	0.57660 0.31189 0.73212 -0.05800
C 	C 	0.62980 0.32011 0.78579 0.03400
C 	C 	0.66490 0.36909 0.78666 -0.06000
C 	C 	0.63000 0.38966 0.73316 0.05200
C 	C 	0.63560 0.43893 0.70776 0.05500
C 	C 	0.70380 0.47453 0.72703 -0.11600
H 	H 	0.75080 0.46830 0.75930 0.05600
C 	C 	0.70150 0.51894 0.69820 0.02500
H 	H 	0.74700 0.54360 0.71060 0.01300
C 	C 	0.63260 0.52751 0.65118 -0.11800
H 	H 	0.63060 0.55780 0.63080 0.06600
C 	C 	0.56620 0.49066 0.63422 0.05800
C 	C 	0.48950 0.49415 0.58509 0.05300
C 	C 	0.44490 0.53379 0.55322 -0.04700
C 	C 	0.37150 0.51307 0.51273 0.02900
C 	C 	0.37430 0.46180 0.52131 -0.04700
C 	C 	0.31500 0.42152 0.49530 0.35500
C 	C 	0.63850 0.28505 0.83485 -0.01700
H 	H 	0.65050 0.25110 0.82240 0.04300
H 	H 	0.69160 0.29510 0.86470 0.03300
C 	C 	0.55080 0.28498 0.85879 -0.36500
H 	H 	0.49850 0.27430 0.82950 0.13200
H 	H 	0.55820 0.26210 0.89090 0.13100
H 	H 	0.53910 0.31850 0.87140 0.12300
C 	C 	0.72430 0.39380 0.83692 0.05900
H 	H 	0.75290 0.36790 0.86390 0.00500
H 	H 	0.77480 0.41200 0.82430 0.00200
C 	C 	0.67210 0.42948 0.86700 -0.42600
H 	H 	0.62290 0.41160 0.88050 0.14000
H 	H 	0.71460 0.44420 0.89920 0.14000
H 	H 	0.64480 0.45580 0.84090 0.14200
C 	C 	0.46560 0.58818 0.56103 0.03100
H 	H 	0.53270 0.59350 0.56380 0.02100
H 	H 	0.43260 0.60630 0.52730 0.01800
C 	C 	0.43760 0.60991 0.61350 -0.39700
H 	H 	0.47190 0.59310 0.64720 0.13400
H 	H 	0.45190 0.64550 0.61590 0.13500
H 	H 	0.37110 0.60510 0.61100 0.12800
C 	C 	0.30390 0.54093 0.46834 -0.02300
H 	H 	0.33540 0.57010 0.45610 0.03500
H 	H 	0.28450 0.51910 0.43510 0.04900
C 	C 	0.21820 0.55834 0.48905 -0.35500
H 	H 	0.23700 0.57800 0.52360 0.12000
H 	H 	0.17990 0.57880 0.45990 0.12500
H 	H 	0.18260 0.52940 0.49700 0.13000
C 	C 	0.29550 0.16478 0.68089 0.36600
C 	C 	0.20560 0.14084 0.67640 -0.06100
C 	C 	0.18090 0.09349 0.69139 0.02700
C 	C 	0.08490 0.08877 0.67214 -0.06200
C 	C 	0.05310 0.13353 0.64542 0.05200
C 	C 	0.96310 0.14930 0.61324 0.05600
C 	C 	0.87850 0.13077 0.62220 -0.11300
H 	H 	0.87660 0.10730 0.65130 0.05600
C 	C 	0.79820 0.14730 0.58780 0.02100
H 	H 	0.74010 0.13550 0.59340 0.01900
C 	C 	0.80190 0.18094 0.54527 -0.11300
H 	H 	0.74710 0.19140 0.52030 0.06600
C 	C 	0.88830 0.19927 0.53973 0.05900
C 	C 	0.90210 0.23684 0.49823 0.05300
C 	C 	0.85070 0.25232 0.44584 -0.05700
C 	C 	0.90400 0.28855 0.42430 0.02200
C 	C 	0.98530 0.29473 0.46455 -0.06200
C 	C 	0.06960 0.32308 0.46417 0.37600
C 	C 	0.24500 0.05248 0.71792 -0.01800
H 	H 	0.29660 0.06700 0.74570 0.02500
H 	H 	0.21090 0.02950 0.73830 0.02000
C 	C 	0.28410 0.02346 0.67366 -0.35500
H 	H 	0.32040 0.04580 0.65460 0.12100
H 	H 	0.32380 0.99660 0.69210 0.11100
H 	H 	0.23310 0.00930 0.64580 0.11900
C 	C 	0.03030 0.04226 0.67725 0.05500
H 	H 	0.97340 0.04250 0.64760 -0.00000
H 	H 	0.06740 0.01300 0.67070 0.00100
C 	C 	0.00380 0.03711 0.73479 -0.42700
H 	H 	0.96210 0.06420 0.74000 0.14300
H 	H 	0.97270 0.00520 0.73680 0.14600
H 	H 	0.05970 0.03860 0.76450 0.14300
C 	C 	0.76150 0.23093 0.41400 0.04700
H 	H 	0.71970 0.22490 0.44060 0.01000
H 	H 	0.73130 0.25530 0.38560 0.00200
C 	C 	0.77580 0.18238 0.38427 -0.41700
H 	H 	0.80380 0.15770 0.41240 0.13900
H 	H 	0.71600 0.17010 0.36370 0.14200
H 	H 	0.81680 0.18820 0.35770 0.13600
C 	C 	0.88000 0.31363 0.36725 -0.00400
H 	H 	0.83610 0.29250 0.34110 0.01700
H 	H 	0.93680 0.31710 0.35170 0.03000
C 	C 	0.83750 0.36424 0.37070 -0.37000
H 	H 	0.88200 0.38590 0.39490 0.13300
H 	H 	0.82110 0.37870 0.33280 0.12500
H 	H 	0.78170 0.36100 0.38660 0.12000
C 	C 	0.51000 0.13929 0.60561 0.37500
C 	C 	0.54520 0.11290 0.56130 -0.05500
C 	C 	0.60380 0.07221 0.56211 0.02700
C 	C 	0.61440 0.06403 0.50582 -0.06100
C 	C 	0.56350 0.10087 0.47237 0.05200
C 	C 	0.54970 0.11466 0.41235 0.05600
C 	C 	0.58200 0.08618 0.37196 -0.12500
H 	H 	0.61570 0.05640 0.38240 0.05500
C 	C 	0.56390 0.10220 0.31645 0.02300
H 	H 	0.58480 0.08330 0.28830 0.00100
C 	C 	0.51540 0.14574 0.30211 -0.11900
H 	H 	0.50130 0.15670 0.26400 0.06200
C 	C 	0.48740 0.17349 0.34491 0.05900
C 	C 	0.43930 0.22100 0.33450 0.04800
C 	C 	0.43970 0.25817 0.29414 -0.05300
C 	C 	0.38310 0.29731 0.30679 0.02000
C 	C 	0.35000 0.28345 0.35474 -0.05000
C 	C 	0.29310 0.31017 0.38798 0.35700
C 	C 	0.64660 0.04166 0.61322 -0.01000
H 	H 	0.70720 0.02860 0.60830 0.01900
H 	H 	0.65730 0.06300 0.64720 0.03000
C 	C 	0.58390 0.99856 0.62142 -0.37400
H 	H 	0.57510 0.97690 0.58820 0.13500
H 	H 	0.61250 0.97960 0.65500 0.12400
H 	H 	0.52400 0.01140 0.62630 0.12700
C 	C 	0.67510 0.02451 0.48817 0.06200
H 	H 	0.68520 0.99800 0.51710 -0.00100
H 	H 	0.64240 0.00960 0.45230 -0.00300
C 	C 	0.76780 0.04373 0.48030 -0.43200
H 	H 	0.80250 0.05650 0.51640 0.14700
H 	H 	0.80260 0.01670 0.46720 0.13600
H 	H 	0.75850 0.07050 0.45230 0.14200
C 	C 	0.49890 0.26067 0.25006 0.05200
H 	H 	0.50090 0.22740 0.23290 0.00600
H 	H 	0.47010 0.28390 0.21990 0.01300
C 	C 	0.59670 0.27760 0.27399 -0.42800
H 	H 	0.62530 0.25500 0.30430 0.14500
H 	H 	0.63270 0.27740 0.24410 0.14900
H 	H 	0.59550 0.31130 0.28910 0.14400
C 	C 	0.36140 0.34468 0.27399 0.00500
H 	H 	0.36650 0.37290 0.30070 0.02900
H 	H 	0.40760 0.34970 0.25000 0.01700
C 	C 	0.26480 0.34459 0.23669 -0.39200
H 	H 	0.21860 0.34050 0.26030 0.14300
H 	H 	0.25420 0.37610 0.21620 0.13500
H 	H 	0.25960 0.31710 0.20970 0.14000
C 	C 	0.06150 0.41951 0.29964 0.61600
C 	C 	0.01420 0.45756 0.25880 -0.94300
H 	H 	0.05470 0.48650 0.25930 0.29900
H 	H 	0.00050 0.44340 0.22070 0.27600
H 	H 	0.95650 0.46780 0.26960 0.29100
N 	N 	0.57719 0.35463 0.70130 -0.17700
N 	N 	0.56856 0.44731 0.66221 -0.13200
N 	N 	0.44556 0.45157 0.56512 -0.18900
N 	N 	0.12741 0.16403 0.64802 -0.18600
N 	N 	0.96700 0.18352 0.57314 -0.13100
N 	N 	0.98288 0.26263 0.50818 -0.18300
N 	N 	0.52220 0.12935 0.50665 -0.19200
N 	N 	0.50394 0.15757 0.39901 -0.13300
N 	N 	0.38475 0.23719 0.37050 -0.17600
O 	O 	0.47973 0.27451 0.65633 -0.49800
O 	O 	0.53054 0.22894 0.73447 -0.50800
O 	O 	0.33881 0.37780 0.51257 -0.49700
O 	O 	0.24248 0.43199 0.45895 -0.48000
O 	O 	0.36573 0.14234 0.70829 -0.50000
O 	O 	0.29696 0.20605 0.65568 -0.51100
O 	O 	0.13641 0.31579 0.50531 -0.51600
O 	O 	0.07021 0.35206 0.42313 -0.49500
O 	O 	0.54235 0.12814 0.65686 -0.49700
O 	O 	0.45002 0.17200 0.58927 -0.51100
O 	O 	0.27643 0.28992 0.43153 -0.47400
O 	O 	0.26391 0.35268 0.36949 -0.47600
O 	O 	0.33940 0.25737 0.54093 -1.07700
O 	O 	0.10809 0.43549 0.34582 -0.52500
O 	O 	0.05637 0.37359 0.28801 -0.57100
Zn	Zn	0.49630 0.16009 0.71886 1.22600
Zn	Zn	0.38685 0.23091 0.61352 1.23300
Zn	Zn	0.27035 0.31568 0.51299 1.22500
Zn	Zn	0.17152 0.38776 0.40166 1.23200
H 	H 	0.55800 0.35770 0.66590 0.13100
H 	H 	0.46500 0.42360 0.57490 0.14000
H 	H 	0.12300 0.19340 0.63790 0.13000
H 	H 	0.02700 0.26220 0.53610 0.13200
H 	H 	0.48300 0.14970 0.49460 0.13800
H 	H 	0.37400 0.22010 0.39800 0.11800
H 	H 	0.33900 0.23910 0.51980 0.54500
