data_crystal

_cell_length_a 17.78400
_cell_length_b 17.78400
_cell_length_c 53.14000
_cell_angle_alpha 90.00000
_cell_angle_beta  90.00000
_cell_angle_gamma 120.00000

_symmetry_space_group_name_	'P 1'
_symmetry_space_group_name_H-M	'P 1'

loop_
_symmetry_equiv_pos_as_xyz
  x,y,z

loop_
_atom_site_label
_atom_site_type_symbol
_atom_site_fract_x
_atom_site_fract_y
_atom_site_fract_z
_atom_site_charge
O 	O 	0.75650 0.43660 0.35470 -0.28100
C 	C 	0.75800 0.48730 0.36950 0.20800
O 	O 	0.91110 0.90150 0.36150 -0.28600
C 	C 	0.91200 0.85120 0.34360 0.22300
O 	O 	0.42317 0.76993 0.68803 -0.28900
C 	C 	0.42467 0.82063 0.70283 0.22400
O 	O 	0.57777 0.23483 0.69483 -0.31800
C 	C 	0.57867 0.18453 0.67693 0.21500
O 	O 	0.08983 0.10327 0.02137 -0.30100
C 	C 	0.09133 0.15397 0.03617 0.21200
O 	O 	0.24443 0.56817 0.02817 -0.32300
C 	C 	0.24533 0.51787 0.01027 0.23000
O 	O 	0.56340 0.31990 0.35470 -0.28500
C 	C 	0.51270 0.27070 0.36950 0.20500
O 	O 	0.09850 0.00960 0.36150 -0.36300
C 	C 	0.14880 0.06080 0.34360 0.23900
O 	O 	0.23007 0.65323 0.68803 -0.28300
C 	C 	0.17937 0.60403 0.70283 0.19700
O 	O 	0.76517 0.34293 0.69483 -0.32000
C 	C 	0.81547 0.39413 0.67693 0.24100
O 	O 	0.89673 0.98657 0.02137 -0.23500
C 	C 	0.84603 0.93737 0.03617 0.19600
O 	O 	0.43183 0.67627 0.02817 -0.31900
C 	C 	0.48213 0.72747 0.01027 0.23200
O 	O 	0.68010 0.24350 0.35470 -0.29500
C 	C 	0.72930 0.24200 0.36950 0.21900
O 	O 	0.99040 0.08890 0.36150 -0.28400
C 	C 	0.93920 0.08800 0.34360 0.21100
O 	O 	0.34677 0.57683 0.68803 -0.28900
C 	C 	0.39597 0.57533 0.70283 0.21200
O 	O 	0.65707 0.42223 0.69483 -0.31400
C 	C 	0.60587 0.42133 0.67693 0.22300
O 	O 	0.01343 0.91017 0.02137 -0.31200
C 	C 	0.06263 0.90867 0.03617 0.21600
O 	O 	0.32373 0.75557 0.02817 -0.31100
C 	C 	0.27253 0.75467 0.01027 0.21800
O 	O 	0.43660 0.75650 0.64530 -0.28200
C 	C 	0.48730 0.75800 0.63050 0.20700
O 	O 	0.90150 0.91110 0.63850 -0.28700
C 	C 	0.85120 0.91200 0.65640 0.22200
O 	O 	0.10327 0.08983 0.97863 -0.30100
C 	C 	0.15397 0.09133 0.96383 0.21200
O 	O 	0.56817 0.24443 0.97183 -0.32300
C 	C 	0.51787 0.24533 0.98973 0.23000
O 	O 	0.76993 0.42317 0.31197 -0.29000
C 	C 	0.82063 0.42467 0.29717 0.22300
O 	O 	0.23483 0.57777 0.30517 -0.31900
C 	C 	0.18453 0.57867 0.32307 0.21500
O 	O 	0.31990 0.56340 0.64530 -0.28500
C 	C 	0.27070 0.51270 0.63050 0.20500
O 	O 	0.00960 0.09850 0.63850 -0.36300
C 	C 	0.06080 0.14880 0.65640 0.23900
O 	O 	0.98657 0.89673 0.97863 -0.23500
C 	C 	0.93737 0.84603 0.96383 0.19600
O 	O 	0.67627 0.43183 0.97183 -0.31900
C 	C 	0.72747 0.48213 0.98973 0.23200
O 	O 	0.65323 0.23007 0.31197 -0.28300
C 	C 	0.60403 0.17937 0.29717 0.19700
O 	O 	0.34293 0.76517 0.30517 -0.32000
C 	C 	0.39413 0.81547 0.32307 0.24100
O 	O 	0.24350 0.68010 0.64530 -0.29500
C 	C 	0.24200 0.72930 0.63050 0.21900
O 	O 	0.08890 0.99040 0.63850 -0.28400
C 	C 	0.08800 0.93920 0.65640 0.21100
O 	O 	0.91017 0.01343 0.97863 -0.31100
C 	C 	0.90867 0.06263 0.96383 0.21600
O 	O 	0.75557 0.32373 0.97183 -0.31100
C 	C 	0.75467 0.27253 0.98973 0.21800
O 	O 	0.57683 0.34677 0.31197 -0.28900
C 	C 	0.57533 0.39597 0.29717 0.21200
O 	O 	0.42223 0.65707 0.30517 -0.31400
C 	C 	0.42133 0.60587 0.32307 0.22300
O 	O 	0.24350 0.56340 0.64530 -0.29300
C 	C 	0.24200 0.51270 0.63050 0.21300
O 	O 	0.08890 0.09850 0.63850 -0.34000
C 	C 	0.08800 0.14880 0.65640 0.22600
O 	O 	0.91017 0.89673 0.97863 -0.26500
C 	C 	0.90867 0.84603 0.96383 0.20400
O 	O 	0.75557 0.43183 0.97183 -0.31300
C 	C 	0.75467 0.48213 0.98973 0.22300
O 	O 	0.57683 0.23007 0.31197 -0.28500
C 	C 	0.57533 0.17937 0.29717 0.19900
O 	O 	0.42223 0.76517 0.30517 -0.31700
C 	C 	0.42133 0.81547 0.32307 0.23800
O 	O 	0.43660 0.68010 0.64530 -0.29000
C 	C 	0.48730 0.72930 0.63050 0.21500
O 	O 	0.90150 0.99040 0.63850 -0.26100
C 	C 	0.85120 0.93920 0.65640 0.21000
O 	O 	0.10327 0.01343 0.97863 -0.33200
C 	C 	0.15397 0.06263 0.96383 0.22100
O 	O 	0.56817 0.32373 0.97183 -0.31600
C 	C 	0.51787 0.27253 0.98973 0.22200
O 	O 	0.76993 0.34677 0.31197 -0.29200
C 	C 	0.82063 0.39597 0.29717 0.22400
O 	O 	0.23483 0.65707 0.30517 -0.31500
C 	C 	0.18453 0.60587 0.32307 0.21100
O 	O 	0.31990 0.75650 0.64530 -0.28000
C 	C 	0.27070 0.75800 0.63050 0.20200
O 	O 	0.00960 0.91110 0.63850 -0.33400
C 	C 	0.06080 0.91200 0.65640 0.23600
O 	O 	0.98657 0.08983 0.97863 -0.24900
C 	C 	0.93737 0.09133 0.96383 0.19900
O 	O 	0.67627 0.24443 0.97183 -0.32400
C 	C 	0.72747 0.24533 0.98973 0.23600
O 	O 	0.65323 0.42317 0.31197 -0.28600
C 	C 	0.60403 0.42467 0.29717 0.20800
O 	O 	0.34293 0.57777 0.30517 -0.32200
C 	C 	0.39413 0.57867 0.32307 0.23000
O 	O 	0.56340 0.24350 0.35470 -0.29300
C 	C 	0.51270 0.24200 0.36950 0.21300
O 	O 	0.09850 0.08890 0.36150 -0.34000
C 	C 	0.14880 0.08800 0.34360 0.22600
O 	O 	0.23007 0.57683 0.68803 -0.28500
C 	C 	0.17937 0.57533 0.70283 0.19900
O 	O 	0.76517 0.42223 0.69483 -0.31700
C 	C 	0.81547 0.42133 0.67693 0.23800
O 	O 	0.89673 0.91017 0.02137 -0.26500
C 	C 	0.84603 0.90867 0.03617 0.20400
O 	O 	0.43183 0.75557 0.02817 -0.31300
C 	C 	0.48213 0.75467 0.01027 0.22300
O 	O 	0.68010 0.43660 0.35470 -0.29000
C 	C 	0.72930 0.48730 0.36950 0.21500
O 	O 	0.99040 0.90150 0.36150 -0.26100
C 	C 	0.93920 0.85120 0.34360 0.21000
O 	O 	0.34677 0.76993 0.68803 -0.29200
C 	C 	0.39597 0.82063 0.70283 0.22400
O 	O 	0.65707 0.23483 0.69483 -0.31500
C 	C 	0.60587 0.18453 0.67693 0.21100
O 	O 	0.01343 0.10327 0.02137 -0.33200
C 	C 	0.06263 0.15397 0.03617 0.22000
O 	O 	0.32373 0.56817 0.02817 -0.31600
C 	C 	0.27253 0.51787 0.01027 0.22200
O 	O 	0.75650 0.31990 0.35470 -0.28000
C 	C 	0.75800 0.27070 0.36950 0.20200
O 	O 	0.91110 0.00960 0.36150 -0.33400
C 	C 	0.91200 0.06080 0.34360 0.23600
O 	O 	0.42317 0.65323 0.68803 -0.28600
C 	C 	0.42467 0.60403 0.70283 0.20800
O 	O 	0.57777 0.34293 0.69483 -0.32200
C 	C 	0.57867 0.39413 0.67693 0.23000
O 	O 	0.08983 0.98657 0.02137 -0.24900
C 	C 	0.09133 0.93737 0.03617 0.19900
O 	O 	0.24443 0.67627 0.02817 -0.32400
C 	C 	0.24533 0.72747 0.01027 0.23500
Zn	Zn	0.66667 0.33333 0.33333 1.31000
Zn	Zn	0.33333 0.66667 0.66667 1.31000
Zn	Zn	-0.00000 0.00000 -0.00000 1.27600
Zn	Zn	0.66667 0.33333 0.39947 1.23000
Zn	Zn	0.33333 0.66667 0.73280 1.23000
Zn	Zn	-0.00000 0.00000 0.06614 1.20100
Zn	Zn	0.33333 0.66667 0.60053 1.23000
Zn	Zn	0.00000 0.00000 0.93386 1.20100
Zn	Zn	0.66667 0.33333 0.26720 1.23000
Zn	Zn	0.00000 0.00000 0.31763 1.22600
N 	N 	-0.00000 0.00000 0.10490 -0.30400
C 	C 	0.00000 0.00000 0.15880 -0.23200
C 	C 	0.00000 0.00000 0.22810 -0.18600
N 	N 	-0.00000 0.00000 0.28100 -0.31800
Zn	Zn	-0.00000 0.00000 0.38364 1.17900
Zn	Zn	0.66667 0.33333 0.65096 1.25600
N 	N 	0.66667 0.33333 0.43823 -0.24800
C 	C 	0.66667 0.33333 0.49213 0.02200
C 	C 	0.66667 0.33333 0.56143 0.01900
N 	N 	0.66667 0.33333 0.61433 -0.25800
Zn	Zn	0.66667 0.33333 0.71697 1.21200
Zn	Zn	0.33333 0.66667 0.98430 1.25600
N 	N 	0.33333 0.66667 0.77157 -0.24800
C 	C 	0.33333 0.66667 0.82547 0.02300
C 	C 	0.33333 0.66667 0.89477 0.01900
N 	N 	0.33333 0.66667 0.94767 -0.25800
Zn	Zn	0.33333 0.66667 0.05031 1.21200
Zn	Zn	-0.00000 0.00000 0.68237 1.22600
N 	N 	-0.00000 0.00000 0.89510 -0.30400
C 	C 	0.00000 0.00000 0.84120 -0.23200
C 	C 	0.00000 0.00000 0.77190 -0.18600
N 	N 	-0.00000 0.00000 0.71900 -0.31800
Zn	Zn	-0.00000 0.00000 0.61636 1.17900
Zn	Zn	0.66667 0.33333 0.01570 1.25600
N 	N 	0.66667 0.33333 0.22843 -0.24800
C 	C 	0.66667 0.33333 0.17453 0.02300
C 	C 	0.66667 0.33333 0.10523 0.01900
N 	N 	0.66667 0.33333 0.05233 -0.25800
Zn	Zn	0.66667 0.33333 0.94969 1.21200
Zn	Zn	0.33333 0.66667 0.34904 1.25600
N 	N 	0.33333 0.66667 0.56177 -0.24800
C 	C 	0.33333 0.66667 0.50787 0.02200
C 	C 	0.33333 0.66667 0.43857 0.01900
N 	N 	0.33333 0.66667 0.38567 -0.25800
Zn	Zn	0.33333 0.66667 0.28303 1.21200
O 	O 	0.93965 0.87930 0.32390 -0.42900
O 	O 	0.72945 0.45890 0.39190 -0.41100
C 	C 	0.87835 0.75670 0.35060 -0.08800
C 	C 	0.86780 0.73560 0.37580 -0.06300
H 	H 	0.88960 0.77920 0.38790 0.07700
C 	C 	0.82470 0.64940 0.38310 0.16700
C 	C 	0.79225 0.58450 0.36620 -0.07500
C 	C 	0.80160 0.60320 0.34050 -0.09500
H 	H 	0.77945 0.55890 0.32860 0.12400
C 	C 	0.84460 0.68920 0.33330 0.17900
O 	O 	0.81155 0.62310 0.40820 -0.15800
O 	O 	0.85700 0.71400 0.30760 -0.15000
O 	O 	0.60632 0.21263 0.65723 -0.46900
O 	O 	0.39612 0.79223 0.72523 -0.41800
C 	C 	0.54502 0.09003 0.68393 -0.03200
C 	C 	0.53447 0.06893 0.70913 -0.20400
H 	H 	0.55627 0.11253 0.72123 0.10000
C 	C 	0.49137 0.98273 0.71643 0.28100
C 	C 	0.45892 0.91783 0.69953 -0.15300
C 	C 	0.46827 0.93653 0.67383 0.04200
H 	H 	0.44612 0.89223 0.66193 0.08400
C 	C 	0.51127 0.02253 0.66663 0.06100
O 	O 	0.47822 0.95643 0.74153 -0.17500
O 	O 	0.52367 0.04733 0.64093 -0.15800
O 	O 	0.27298 0.54597 0.99057 -0.47600
O 	O 	0.06278 0.12557 0.05857 -0.43800
C 	C 	0.21168 0.42337 0.01727 -0.10900
C 	C 	0.20113 0.40227 0.04247 -0.06300
H 	H 	0.22293 0.44587 0.05457 0.06000
C 	C 	0.15803 0.31607 0.04977 0.15800
C 	C 	0.12558 0.25117 0.03287 -0.08800
C 	C 	0.13493 0.26987 0.00717 -0.10200
H 	H 	0.11278 0.22557 0.99527 0.11500
C 	C 	0.17793 0.35587 0.99997 0.17600
O 	O 	0.14488 0.28977 0.07487 -0.18100
O 	O 	0.19033 0.38067 0.97427 -0.16800
O 	O 	0.12070 0.06035 0.32390 -0.50000
O 	O 	0.54110 0.27055 0.39190 -0.41800
C 	C 	0.24330 0.12165 0.35060 -0.12300
C 	C 	0.26440 0.13220 0.37580 -0.05300
H 	H 	0.22080 0.11040 0.38790 0.04900
C 	C 	0.35060 0.17530 0.38310 0.14800
C 	C 	0.41550 0.20775 0.36620 -0.07500
C 	C 	0.39680 0.19840 0.34050 -0.11100
H 	H 	0.44110 0.22055 0.32860 0.12400
C 	C 	0.31080 0.15540 0.33330 0.18300
O 	O 	0.37690 0.18845 0.40820 -0.17900
O 	O 	0.28600 0.14300 0.30760 -0.17200
O 	O 	0.78737 0.39368 0.65723 -0.47900
O 	O 	0.20777 0.60388 0.72523 -0.41200
C 	C 	0.90997 0.45498 0.68393 -0.17900
C 	C 	0.93107 0.46553 0.70913 0.08200
H 	H 	0.88747 0.44373 0.72123 0.02500
C 	C 	0.01727 0.50863 0.71643 0.04000
C 	C 	0.08217 0.54108 0.69953 -0.00000
C 	C 	0.06347 0.53173 0.67383 -0.24000
H 	H 	0.10777 0.55388 0.66193 0.16300
C 	C 	0.97747 0.48873 0.66663 0.29600
O 	O 	0.04357 0.52178 0.74153 -0.16300
O 	O 	0.95267 0.47633 0.64093 -0.16200
O 	O 	0.45403 0.72702 0.99057 -0.47100
O 	O 	0.87443 0.93722 0.05857 -0.37300
C 	C 	0.57663 0.78832 0.01727 -0.10900
C 	C 	0.59773 0.79887 0.04247 -0.04900
H 	H 	0.55413 0.77707 0.05457 0.06200
C 	C 	0.68393 0.84197 0.04977 0.15300
C 	C 	0.74883 0.87442 0.03287 -0.05700
C 	C 	0.73013 0.86507 0.00717 -0.11100
H 	H 	0.77443 0.88722 0.99527 0.13500
C 	C 	0.64413 0.82207 0.99997 0.19100
O 	O 	0.71023 0.85512 0.07487 -0.15800
O 	O 	0.61933 0.80967 0.97427 -0.15400
O 	O 	0.93965 0.06035 0.32390 -0.46100
O 	O 	0.72945 0.27055 0.39190 -0.41400
C 	C 	0.87835 0.12165 0.35060 -0.10400
C 	C 	0.86780 0.13220 0.37580 -0.05900
H 	H 	0.88960 0.11040 0.38790 0.06400
C 	C 	0.82470 0.17530 0.38310 0.15900
C 	C 	0.79225 0.20775 0.36620 -0.07500
C 	C 	0.80160 0.19840 0.34050 -0.10200
H 	H 	0.77945 0.22055 0.32860 0.12400
C 	C 	0.84460 0.15540 0.33330 0.18100
O 	O 	0.81155 0.18845 0.40820 -0.16800
O 	O 	0.85700 0.14300 0.30760 -0.16000
O 	O 	0.60632 0.39368 0.65723 -0.47400
O 	O 	0.39612 0.60388 0.72523 -0.41500
C 	C 	0.54502 0.45498 0.68393 -0.10800
C 	C 	0.53447 0.46553 0.70913 -0.05700
H 	H 	0.55627 0.44373 0.72123 0.06100
C 	C 	0.49137 0.50863 0.71643 0.15700
C 	C 	0.45892 0.54108 0.69953 -0.07500
C 	C 	0.46827 0.53173 0.67383 -0.10400
H 	H 	0.44612 0.55388 0.66193 0.12400
C 	C 	0.51127 0.48873 0.66663 0.18200
O 	O 	0.47822 0.52178 0.74153 -0.16900
O 	O 	0.52367 0.47633 0.64093 -0.16000
O 	O 	0.27298 0.72702 0.99057 -0.47400
O 	O 	0.06278 0.93722 0.05857 -0.40400
C 	C 	0.21168 0.78832 0.01727 -0.10900
C 	C 	0.20113 0.79887 0.04247 -0.05500
H 	H 	0.22293 0.77707 0.05457 0.06100
C 	C 	0.15803 0.84197 0.04977 0.15500
C 	C 	0.12558 0.87442 0.03287 -0.07100
C 	C 	0.13493 0.86507 0.00717 -0.10700
H 	H 	0.11278 0.88722 0.99527 0.12700
C 	C 	0.17793 0.82207 0.99997 0.18400
O 	O 	0.14488 0.85512 0.07487 -0.16800
O 	O 	0.19033 0.80967 0.97427 -0.16000
O 	O 	0.87930 0.93965 0.67610 -0.42900
O 	O 	0.45890 0.72945 0.60810 -0.41100
C 	C 	0.75670 0.87835 0.64940 -0.08800
C 	C 	0.73560 0.86780 0.62420 -0.06300
H 	H 	0.77920 0.88960 0.61210 0.07700
C 	C 	0.64940 0.82470 0.61690 0.16700
C 	C 	0.58450 0.79225 0.63380 -0.07500
C 	C 	0.60320 0.80160 0.65950 -0.09500
H 	H 	0.55890 0.77945 0.67140 0.12400
C 	C 	0.68920 0.84460 0.66670 0.17900
O 	O 	0.62310 0.81155 0.59180 -0.15800
O 	O 	0.71400 0.85700 0.69240 -0.15000
O 	O 	0.54597 0.27298 0.00943 -0.47700
O 	O 	0.12557 0.06278 0.94143 -0.43900
C 	C 	0.42337 0.21168 0.98273 -0.10700
C 	C 	0.40227 0.20113 0.95753 -0.06400
H 	H 	0.44587 0.22293 0.94543 0.06000
C 	C 	0.31607 0.15803 0.95023 0.15900
C 	C 	0.25117 0.12558 0.96713 -0.09000
C 	C 	0.26987 0.13493 0.99283 -0.09800
H 	H 	0.22557 0.11278 0.00473 0.11300
C 	C 	0.35587 0.17793 0.00003 0.17300
O 	O 	0.28977 0.14488 0.92513 -0.18100
O 	O 	0.38067 0.19033 0.02573 -0.16800
O 	O 	0.21263 0.60632 0.34277 -0.46900
O 	O 	0.79223 0.39612 0.27477 -0.41800
C 	C 	0.09003 0.54502 0.31607 -0.03200
C 	C 	0.06893 0.53447 0.29087 -0.20400
H 	H 	0.11253 0.55627 0.27877 0.10000
C 	C 	0.98273 0.49137 0.28357 0.28100
C 	C 	0.91783 0.45892 0.30047 -0.15300
C 	C 	0.93653 0.46827 0.32617 0.04200
H 	H 	0.89223 0.44612 0.33807 0.08400
C 	C 	0.02253 0.51127 0.33337 0.06100
O 	O 	0.95643 0.47822 0.25847 -0.17500
O 	O 	0.04733 0.52367 0.35907 -0.15800
O 	O 	0.06035 0.12070 0.67610 -0.50000
O 	O 	0.27055 0.54110 0.60810 -0.41800
C 	C 	0.12165 0.24330 0.64940 -0.12300
C 	C 	0.13220 0.26440 0.62420 -0.05300
H 	H 	0.11040 0.22080 0.61210 0.04900
C 	C 	0.17530 0.35060 0.61690 0.14800
C 	C 	0.20775 0.41550 0.63380 -0.07500
C 	C 	0.19840 0.39680 0.65950 -0.11100
H 	H 	0.22055 0.44110 0.67140 0.12400
C 	C 	0.15540 0.31080 0.66670 0.18300
O 	O 	0.18845 0.37690 0.59180 -0.17900
O 	O 	0.14300 0.28600 0.69240 -0.17200
O 	O 	0.72702 0.45403 0.00943 -0.47200
O 	O 	0.93722 0.87443 0.94143 -0.37400
C 	C 	0.78832 0.57663 0.98273 -0.10700
C 	C 	0.79887 0.59773 0.95753 -0.05000
H 	H 	0.77707 0.55413 0.94543 0.06200
C 	C 	0.84197 0.68393 0.95023 0.15400
C 	C 	0.87442 0.74883 0.96713 -0.05800
C 	C 	0.86507 0.73013 0.99283 -0.10700
H 	H 	0.88722 0.77443 0.00473 0.13400
C 	C 	0.82207 0.64413 0.00003 0.18800
O 	O 	0.85512 0.71023 0.92513 -0.15800
O 	O 	0.80967 0.61933 0.02573 -0.15300
O 	O 	0.39368 0.78737 0.34277 -0.47900
O 	O 	0.60388 0.20777 0.27477 -0.41200
C 	C 	0.45498 0.90997 0.31607 -0.17900
C 	C 	0.46553 0.93107 0.29087 0.08200
H 	H 	0.44373 0.88747 0.27877 0.02500
C 	C 	0.50863 0.01727 0.28357 0.04000
C 	C 	0.54108 0.08217 0.30047 -0.00000
C 	C 	0.53173 0.06347 0.32617 -0.24000
H 	H 	0.55388 0.10777 0.33807 0.16300
C 	C 	0.48873 0.97747 0.33337 0.29600
O 	O 	0.52178 0.04357 0.25847 -0.16300
O 	O 	0.47633 0.95267 0.35907 -0.16200
O 	O 	0.06035 0.93965 0.67610 -0.46100
O 	O 	0.27055 0.72945 0.60810 -0.41400
C 	C 	0.12165 0.87835 0.64940 -0.10400
C 	C 	0.13220 0.86780 0.62420 -0.05900
H 	H 	0.11040 0.88960 0.61210 0.06400
C 	C 	0.17530 0.82470 0.61690 0.15900
C 	C 	0.20775 0.79225 0.63380 -0.07500
C 	C 	0.19840 0.80160 0.65950 -0.10200
H 	H 	0.22055 0.77945 0.67140 0.12400
C 	C 	0.15540 0.84460 0.66670 0.18100
O 	O 	0.18845 0.81155 0.59180 -0.16800
O 	O 	0.14300 0.85700 0.69240 -0.16000
O 	O 	0.72702 0.27298 0.00943 -0.47400
O 	O 	0.93722 0.06278 0.94143 -0.40400
C 	C 	0.78832 0.21168 0.98273 -0.10700
C 	C 	0.79887 0.20113 0.95753 -0.05600
H 	H 	0.77707 0.22293 0.94543 0.06100
C 	C 	0.84197 0.15803 0.95023 0.15600
C 	C 	0.87442 0.12558 0.96713 -0.07200
C 	C 	0.86507 0.13493 0.99283 -0.10300
H 	H 	0.88722 0.11278 0.00473 0.12500
C 	C 	0.82207 0.17793 0.00003 0.18200
O 	O 	0.85512 0.14488 0.92513 -0.16900
O 	O 	0.80967 0.19033 0.02573 -0.16000
O 	O 	0.39368 0.60632 0.34277 -0.47400
O 	O 	0.60388 0.39612 0.27477 -0.41500
C 	C 	0.45498 0.54502 0.31607 -0.10800
C 	C 	0.46553 0.53447 0.29087 -0.05700
H 	H 	0.44373 0.55627 0.27877 0.06100
C 	C 	0.50863 0.49137 0.28357 0.15700
C 	C 	0.54108 0.45892 0.30047 -0.07500
C 	C 	0.53173 0.46827 0.32617 -0.10400
H 	H 	0.55388 0.44612 0.33807 0.12400
C 	C 	0.48873 0.51127 0.33337 0.18200
O 	O 	0.52178 0.47822 0.25847 -0.16900
O 	O 	0.47633 0.52367 0.35907 -0.16000
C 	C 	0.03640 0.96360 0.11910 0.01600
C 	C 	0.03660 0.96340 0.14460 0.04500
C 	C 	0.96350 0.03650 0.11910 0.04700
C 	C 	0.96380 0.03620 0.14470 0.03900
C 	C 	0.70307 0.29693 0.45243 0.02700
C 	C 	0.70327 0.29673 0.47793 0.00500
C 	C 	0.63017 0.36983 0.45243 0.02100
C 	C 	0.63047 0.36953 0.47803 -0.02000
C 	C 	0.36973 0.63027 0.78577 0.02700
C 	C 	0.36993 0.63007 0.81127 0.00400
C 	C 	0.29683 0.70317 0.78577 0.02100
C 	C 	0.29713 0.70287 0.81137 -0.02100
C 	C 	0.03640 0.07280 0.11910 -0.02200
C 	C 	0.03660 0.07320 0.14460 0.00100
C 	C 	0.96350 0.92700 0.11910 0.08800
C 	C 	0.96380 0.92760 0.14470 0.01300
C 	C 	0.70307 0.40613 0.45243 0.02800
C 	C 	0.70327 0.40653 0.47793 0.00900
C 	C 	0.63017 0.26033 0.45243 0.01600
C 	C 	0.63047 0.26093 0.47803 -0.02300
C 	C 	0.36973 0.73947 0.78577 0.03000
C 	C 	0.36993 0.73987 0.81127 0.00900
C 	C 	0.29683 0.59367 0.78577 0.01800
C 	C 	0.29713 0.59427 0.81137 -0.02200
C 	C 	0.92720 0.96360 0.11910 0.03200
C 	C 	0.92680 0.96340 0.14460 0.06400
C 	C 	0.07300 0.03650 0.11910 -0.01800
C 	C 	0.07240 0.03620 0.14470 0.03500
C 	C 	0.59387 0.29693 0.45243 0.02500
C 	C 	0.59347 0.29673 0.47793 0.00100
C 	C 	0.73967 0.36983 0.45243 0.02700
C 	C 	0.73907 0.36953 0.47803 -0.01800
C 	C 	0.26053 0.63027 0.78577 0.02400
C 	C 	0.26013 0.63007 0.81127 -0.00000
C 	C 	0.40633 0.70317 0.78577 0.02400
C 	C 	0.40573 0.70287 0.81137 -0.02000
C 	C 	0.96360 0.03640 0.88090 0.01600
C 	C 	0.96340 0.03660 0.85540 0.04500
C 	C 	0.03650 0.96350 0.88090 0.04700
C 	C 	0.03620 0.96380 0.85530 0.03900
C 	C 	0.63027 0.36973 0.21423 0.02700
C 	C 	0.63007 0.36993 0.18873 0.00400
C 	C 	0.70317 0.29683 0.21423 0.02100
C 	C 	0.70287 0.29713 0.18863 -0.02100
C 	C 	0.29693 0.70307 0.54757 0.02700
C 	C 	0.29673 0.70327 0.52207 0.00500
C 	C 	0.36983 0.63017 0.54757 0.02100
C 	C 	0.36953 0.63047 0.52197 -0.02000
C 	C 	0.07280 0.03640 0.88090 -0.02200
C 	C 	0.07320 0.03660 0.85540 0.00100
C 	C 	0.92700 0.96350 0.88090 0.08800
C 	C 	0.92760 0.96380 0.85530 0.01300
C 	C 	0.73947 0.36973 0.21423 0.03000
C 	C 	0.73987 0.36993 0.18873 0.00900
C 	C 	0.59367 0.29683 0.21423 0.01800
C 	C 	0.59427 0.29713 0.18863 -0.02200
C 	C 	0.40613 0.70307 0.54757 0.02800
C 	C 	0.40653 0.70327 0.52207 0.00900
C 	C 	0.26033 0.63017 0.54757 0.01600
C 	C 	0.26093 0.63047 0.52197 -0.02300
C 	C 	0.96360 0.92720 0.88090 0.03200
C 	C 	0.96340 0.92680 0.85540 0.06400
C 	C 	0.03650 0.07300 0.88090 -0.01800
C 	C 	0.03620 0.07240 0.85530 0.03500
C 	C 	0.63027 0.26053 0.21423 0.02400
C 	C 	0.63007 0.26013 0.18873 -0.00000
C 	C 	0.70317 0.40633 0.21423 0.02400
C 	C 	0.70287 0.40573 0.18863 -0.02000
C 	C 	0.29693 0.59387 0.54757 0.02500
C 	C 	0.29673 0.59347 0.52207 0.00100
C 	C 	0.36983 0.73967 0.54757 0.02700
C 	C 	0.36953 0.73907 0.52197 -0.01800
C 	C 	0.03800 0.01900 0.18280 -0.36200
C 	C 	0.97630 0.98815 0.20180 -0.19700
C 	C 	0.07560 0.03780 0.24150 0.01100
C 	C 	0.07410 0.03705 0.26730 0.01200
C 	C 	0.92600 0.96300 0.26750 0.04300
C 	C 	0.92440 0.96220 0.24190 0.04400
C 	C 	0.70467 0.35233 0.51613 0.01100
C 	C 	0.64297 0.32148 0.53513 -0.00100
C 	C 	0.74227 0.37113 0.57483 0.01100
C 	C 	0.74077 0.37038 0.60063 0.03300
C 	C 	0.59267 0.29633 0.60083 0.02300
C 	C 	0.59107 0.29553 0.57523 -0.02300
C 	C 	0.37133 0.68567 0.84947 0.00800
C 	C 	0.30963 0.65482 0.86847 0.00100
C 	C 	0.40893 0.70447 0.90817 0.00800
C 	C 	0.40743 0.70372 0.93397 0.03100
C 	C 	0.25933 0.62967 0.93417 0.02100
C 	C 	0.25773 0.62887 0.90857 -0.02400
C 	C 	0.98100 0.01900 0.18280 0.02400
C 	C 	0.01185 0.98815 0.20180 -0.03600
C 	C 	0.96220 0.03780 0.24150 0.05300
C 	C 	0.96295 0.03705 0.26730 0.05800
C 	C 	0.03700 0.96300 0.26750 0.02000
C 	C 	0.03780 0.96220 0.24190 0.01700
C 	C 	0.64767 0.35233 0.51613 -0.00100
C 	C 	0.67852 0.32148 0.53513 0.00000
C 	C 	0.62887 0.37113 0.57483 0.00600
C 	C 	0.62962 0.37038 0.60063 0.03000
C 	C 	0.70367 0.29633 0.60083 0.02700
C 	C 	0.70447 0.29553 0.57523 -0.02000
C 	C 	0.31433 0.68567 0.84947 -0.00100
C 	C 	0.34518 0.65482 0.86847 0.00000
C 	C 	0.29553 0.70447 0.90817 0.00600
C 	C 	0.29628 0.70372 0.93397 0.03000
C 	C 	0.37033 0.62967 0.93417 0.02600
C 	C 	0.37113 0.62887 0.90857 -0.02000
C 	C 	0.98100 0.96200 0.18280 0.43900
C 	C 	0.01185 0.02370 0.20180 0.25900
C 	C 	0.96220 0.92440 0.24150 0.07600
C 	C 	0.96295 0.92590 0.26730 0.07600
C 	C 	0.03700 0.07400 0.26750 -0.02400
C 	C 	0.03780 0.07560 0.24190 -0.03500
C 	C 	0.64767 0.29533 0.51613 -0.01200
C 	C 	0.67852 0.35703 0.53513 0.00100
C 	C 	0.62887 0.25773 0.57483 0.00100
C 	C 	0.62962 0.25923 0.60063 0.02600
C 	C 	0.70367 0.40733 0.60083 0.02900
C 	C 	0.70447 0.40893 0.57523 -0.01600
C 	C 	0.31433 0.62867 0.84947 -0.01100
C 	C 	0.34518 0.69037 0.86847 -0.00000
C 	C 	0.29553 0.59107 0.90817 0.00300
C 	C 	0.29628 0.59257 0.93397 0.02900
C 	C 	0.37033 0.74067 0.93417 0.03100
C 	C 	0.37113 0.74227 0.90857 -0.01500
C 	C 	0.01900 0.03800 0.81720 -0.36200
C 	C 	0.98815 0.97630 0.79820 -0.19700
C 	C 	0.03780 0.07560 0.75850 0.01100
C 	C 	0.03705 0.07410 0.73270 0.01200
C 	C 	0.96300 0.92600 0.73250 0.04300
C 	C 	0.96220 0.92440 0.75810 0.04400
C 	C 	0.68567 0.37133 0.15053 0.00800
C 	C 	0.65482 0.30963 0.13153 0.00100
C 	C 	0.70447 0.40893 0.09183 0.00800
C 	C 	0.70372 0.40743 0.06603 0.03100
C 	C 	0.62967 0.25933 0.06583 0.02100
C 	C 	0.62887 0.25773 0.09143 -0.02400
C 	C 	0.35233 0.70467 0.48387 0.01100
C 	C 	0.32148 0.64297 0.46487 -0.00100
C 	C 	0.37113 0.74227 0.42517 0.01100
C 	C 	0.37038 0.74077 0.39937 0.03300
C 	C 	0.29633 0.59267 0.39917 0.02300
C 	C 	0.29553 0.59107 0.42477 -0.02300
C 	C 	0.01900 0.98100 0.81720 0.02400
C 	C 	0.98815 0.01185 0.79820 -0.03600
C 	C 	0.03780 0.96220 0.75850 0.05400
C 	C 	0.03705 0.96295 0.73270 0.05800
C 	C 	0.96300 0.03700 0.73250 0.02000
C 	C 	0.96220 0.03780 0.75810 0.01700
C 	C 	0.68567 0.31433 0.15053 -0.00100
C 	C 	0.65482 0.34518 0.13153 0.00000
C 	C 	0.70447 0.29553 0.09183 0.00600
C 	C 	0.70372 0.29628 0.06603 0.03000
C 	C 	0.62967 0.37033 0.06583 0.02600
C 	C 	0.62887 0.37113 0.09143 -0.02000
C 	C 	0.35233 0.64767 0.48387 -0.00100
C 	C 	0.32148 0.67852 0.46487 0.00000
C 	C 	0.37113 0.62887 0.42517 0.00600
C 	C 	0.37038 0.62962 0.39937 0.03000
C 	C 	0.29633 0.70367 0.39917 0.02700
C 	C 	0.29553 0.70447 0.42477 -0.02000
C 	C 	0.96200 0.98100 0.81720 0.43900
C 	C 	0.02370 0.01185 0.79820 0.25900
C 	C 	0.92440 0.96220 0.75850 0.07600
C 	C 	0.92590 0.96295 0.73270 0.07600
C 	C 	0.07400 0.03700 0.73250 -0.02400
C 	C 	0.07560 0.03780 0.75810 -0.03500
C 	C 	0.62867 0.31433 0.15053 -0.01100
C 	C 	0.69037 0.34518 0.13153 -0.00000
C 	C 	0.59107 0.29553 0.09183 0.00300
C 	C 	0.59257 0.29628 0.06603 0.02900
C 	C 	0.74067 0.37033 0.06583 0.03100
C 	C 	0.74227 0.37113 0.09143 -0.01500
C 	C 	0.29533 0.64767 0.48387 -0.01200
C 	C 	0.35703 0.67852 0.46487 0.00100
C 	C 	0.25773 0.62887 0.42517 0.00100
C 	C 	0.25923 0.62962 0.39937 0.02600
C 	C 	0.40733 0.70367 0.39917 0.02900
C 	C 	0.40893 0.70447 0.42477 -0.01600
