data_crystal

_cell_length_a 41.61600
_cell_length_b 41.61600
_cell_length_c 41.61600
_cell_angle_alpha 90.00000
_cell_angle_beta  90.00000
_cell_angle_gamma 90.00000

_symmetry_space_group_name_	'P 1'
_symmetry_space_group_name_H-M	'P 1'

loop_
_symmetry_equiv_pos_as_xyz
  x,y,z

loop_
_atom_site_label
_atom_site_type_symbol
_atom_site_fract_x
_atom_site_fract_y
_atom_site_fract_z
_atom_site_charge
O 	O 	0.43862 0.29568 0.05976 -0.64800
O 	O 	0.47276 0.24779 0.09375 -0.62600
O 	O 	0.46512 0.33535 0.03228 -0.62500
C 	C 	0.47050 0.21820 0.18810 -0.03000
C 	C 	0.47130 0.22750 0.15683 0.08500
C 	C 	0.42467 0.34965 0.06841 -0.16900
C 	C 	0.40458 0.34059 0.09351 0.08400
C 	C 	0.38879 0.36389 0.11150 -0.02900
C 	C 	0.39310 0.39624 0.10439 0.02700
C 	C 	0.41320 0.40529 0.07930 -0.02900
C 	C 	0.42899 0.38200 0.06131 0.08400
C 	C 	0.44440 0.32490 0.05298 0.51300
C 	C 	0.47500 0.20020 0.25660 0.00800
C 	C 	0.41580 0.52690 0.36300 0.11700
C 	C 	0.34810 0.47710 0.24140 0.00100
O 	O 	0.44810 0.52440 0.41980 -0.59900
C 	C 	0.40190 0.52990 0.33060 -0.03100
C 	C 	0.47610 0.19590 0.28970 -0.00100
C 	C 	0.36190 0.47720 0.27290 0.00600
C 	C 	0.37517 0.41875 0.12602 -0.00800
C 	C 	0.35696 0.44326 0.11247 0.00400
C 	C 	0.34534 0.46800 0.13167 -0.00100
C 	C 	0.35193 0.46823 0.16442 0.00100
C 	C 	0.37013 0.44372 0.17796 -0.00000
C 	C 	0.38175 0.41898 0.15876 0.00500
O 	O 	0.56138 0.70432 0.05976 -0.64900
O 	O 	0.52724 0.75221 0.09375 -0.62700
O 	O 	0.53488 0.66465 0.03228 -0.62600
C 	C 	0.52950 0.78180 0.18810 -0.03100
C 	C 	0.52870 0.77250 0.15683 0.08400
C 	C 	0.57533 0.65035 0.06841 -0.17000
C 	C 	0.59542 0.65941 0.09351 0.08300
C 	C 	0.61121 0.63611 0.11150 -0.03000
C 	C 	0.60690 0.60376 0.10439 0.02600
C 	C 	0.58680 0.59471 0.07930 -0.03000
C 	C 	0.57101 0.61800 0.06131 0.08300
C 	C 	0.55560 0.67510 0.05298 0.51200
C 	C 	0.52500 0.79980 0.25660 0.00700
C 	C 	0.58420 0.47310 0.36300 0.11600
C 	C 	0.65190 0.52290 0.24140 -0.00000
O 	O 	0.55190 0.47560 0.41980 -0.60000
C 	C 	0.59810 0.47010 0.33060 -0.03200
C 	C 	0.52390 0.80410 0.28970 -0.00200
C 	C 	0.63810 0.52280 0.27290 0.00500
C 	C 	0.62483 0.58125 0.12602 -0.00800
C 	C 	0.64304 0.55674 0.11247 0.00400
C 	C 	0.65466 0.53200 0.13167 -0.00100
C 	C 	0.64807 0.53177 0.16442 0.00100
C 	C 	0.62987 0.55628 0.17796 -0.00000
C 	C 	0.61825 0.58102 0.15876 0.00500
O 	O 	0.56138 0.29568 0.94024 -0.64900
O 	O 	0.52724 0.24779 0.90625 -0.62700
O 	O 	0.53488 0.33535 0.96772 -0.62600
C 	C 	0.52950 0.21820 0.81190 -0.03100
C 	C 	0.52870 0.22750 0.84317 0.08400
C 	C 	0.57533 0.34965 0.93159 -0.17000
C 	C 	0.59542 0.34059 0.90649 0.08300
C 	C 	0.61121 0.36389 0.88850 -0.03000
C 	C 	0.60690 0.39624 0.89561 0.02600
C 	C 	0.58680 0.40529 0.92070 -0.03000
C 	C 	0.57101 0.38200 0.93869 0.08300
C 	C 	0.55560 0.32490 0.94702 0.51200
C 	C 	0.52500 0.20020 0.74340 0.00700
C 	C 	0.58420 0.52690 0.63700 0.11600
C 	C 	0.65190 0.47710 0.75860 -0.00000
O 	O 	0.55190 0.52440 0.58020 -0.60000
C 	C 	0.59810 0.52990 0.66940 -0.03200
C 	C 	0.52390 0.19590 0.71030 -0.00200
C 	C 	0.63810 0.47720 0.72710 0.00500
C 	C 	0.62483 0.41875 0.87398 -0.00800
C 	C 	0.64304 0.44326 0.88753 0.00400
C 	C 	0.65466 0.46800 0.86833 -0.00100
C 	C 	0.64807 0.46823 0.83558 0.00100
C 	C 	0.62987 0.44372 0.82204 -0.00000
C 	C 	0.61825 0.41898 0.84124 0.00500
O 	O 	0.43862 0.70432 0.94024 -0.64900
O 	O 	0.47276 0.75221 0.90625 -0.62700
O 	O 	0.46512 0.66465 0.96772 -0.62600
C 	C 	0.47050 0.78180 0.81190 -0.03100
C 	C 	0.47130 0.77250 0.84317 0.08400
C 	C 	0.42467 0.65035 0.93159 -0.17000
C 	C 	0.40458 0.65941 0.90649 0.08300
C 	C 	0.38879 0.63611 0.88850 -0.03000
C 	C 	0.39310 0.60376 0.89561 0.02600
C 	C 	0.41320 0.59471 0.92070 -0.03000
C 	C 	0.42899 0.61800 0.93869 0.08300
C 	C 	0.44440 0.67510 0.94702 0.51200
C 	C 	0.47500 0.79980 0.74340 0.00700
C 	C 	0.41580 0.47310 0.63700 0.11600
C 	C 	0.34810 0.52290 0.75860 -0.00000
O 	O 	0.44810 0.47560 0.58020 -0.60000
C 	C 	0.40190 0.47010 0.66940 -0.03200
C 	C 	0.47610 0.80410 0.71030 -0.00200
C 	C 	0.36190 0.52280 0.72710 0.00500
C 	C 	0.37517 0.58125 0.87398 -0.00800
C 	C 	0.35696 0.55674 0.88753 0.00400
C 	C 	0.34534 0.53200 0.86833 -0.00100
C 	C 	0.35193 0.53177 0.83558 0.00100
C 	C 	0.37013 0.55628 0.82204 -0.00000
C 	C 	0.38175 0.58102 0.84124 0.00500
O 	O 	0.05976 0.43862 0.29568 -0.64900
O 	O 	0.09375 0.47276 0.24779 -0.62700
O 	O 	0.03228 0.46512 0.33535 -0.62600
C 	C 	0.18810 0.47050 0.21820 -0.03100
C 	C 	0.15683 0.47130 0.22750 0.08400
C 	C 	0.06841 0.42467 0.34965 -0.17000
C 	C 	0.09351 0.40458 0.34059 0.08300
C 	C 	0.11150 0.38879 0.36389 -0.03000
C 	C 	0.10439 0.39310 0.39624 0.02600
C 	C 	0.07930 0.41320 0.40529 -0.03000
C 	C 	0.06131 0.42899 0.38200 0.08300
C 	C 	0.05298 0.44440 0.32490 0.51200
C 	C 	0.25660 0.47500 0.20020 0.00700
C 	C 	0.36300 0.41580 0.52690 0.11600
C 	C 	0.24140 0.34810 0.47710 -0.00000
O 	O 	0.41980 0.44810 0.52440 -0.60000
C 	C 	0.33060 0.40190 0.52990 -0.03200
C 	C 	0.28970 0.47610 0.19590 -0.00200
C 	C 	0.27290 0.36190 0.47720 0.00500
C 	C 	0.12602 0.37517 0.41875 -0.00800
C 	C 	0.11247 0.35696 0.44326 0.00400
C 	C 	0.13167 0.34534 0.46800 -0.00100
C 	C 	0.16442 0.35193 0.46823 0.00100
C 	C 	0.17796 0.37013 0.44372 -0.00000
C 	C 	0.15876 0.38175 0.41898 0.00500
O 	O 	0.05976 0.56138 0.70432 -0.64900
O 	O 	0.09375 0.52724 0.75221 -0.62700
O 	O 	0.03228 0.53488 0.66465 -0.62600
C 	C 	0.18810 0.52950 0.78180 -0.03100
C 	C 	0.15683 0.52870 0.77250 0.08400
C 	C 	0.06841 0.57533 0.65035 -0.17000
C 	C 	0.09351 0.59542 0.65941 0.08300
C 	C 	0.11150 0.61121 0.63611 -0.03000
C 	C 	0.10439 0.60690 0.60376 0.02600
C 	C 	0.07930 0.58680 0.59471 -0.03000
C 	C 	0.06131 0.57101 0.61800 0.08300
C 	C 	0.05298 0.55560 0.67510 0.51200
C 	C 	0.25660 0.52500 0.79980 0.00700
C 	C 	0.36300 0.58420 0.47310 0.11600
C 	C 	0.24140 0.65190 0.52290 -0.00000
O 	O 	0.41980 0.55190 0.47560 -0.60000
C 	C 	0.33060 0.59810 0.47010 -0.03200
C 	C 	0.28970 0.52390 0.80410 -0.00200
C 	C 	0.27290 0.63810 0.52280 0.00500
C 	C 	0.12602 0.62483 0.58125 -0.00800
C 	C 	0.11247 0.64304 0.55674 0.00400
C 	C 	0.13167 0.65466 0.53200 -0.00100
C 	C 	0.16442 0.64807 0.53177 0.00100
C 	C 	0.17796 0.62987 0.55628 -0.00000
C 	C 	0.15876 0.61825 0.58102 0.00500
O 	O 	0.94024 0.56138 0.29568 -0.64900
O 	O 	0.90625 0.52724 0.24779 -0.62700
O 	O 	0.96772 0.53488 0.33535 -0.62600
C 	C 	0.81190 0.52950 0.21820 -0.03100
C 	C 	0.84317 0.52870 0.22750 0.08400
C 	C 	0.93159 0.57533 0.34965 -0.17000
C 	C 	0.90649 0.59542 0.34059 0.08300
C 	C 	0.88850 0.61121 0.36389 -0.03000
C 	C 	0.89561 0.60690 0.39624 0.02600
C 	C 	0.92070 0.58680 0.40529 -0.03000
C 	C 	0.93869 0.57101 0.38200 0.08300
C 	C 	0.94702 0.55560 0.32490 0.51200
C 	C 	0.74340 0.52500 0.20020 0.00700
C 	C 	0.63700 0.58420 0.52690 0.11600
C 	C 	0.75860 0.65190 0.47710 -0.00000
O 	O 	0.58020 0.55190 0.52440 -0.60000
C 	C 	0.66940 0.59810 0.52990 -0.03200
C 	C 	0.71030 0.52390 0.19590 -0.00200
C 	C 	0.72710 0.63810 0.47720 0.00500
C 	C 	0.87398 0.62483 0.41875 -0.00800
C 	C 	0.88753 0.64304 0.44326 0.00400
C 	C 	0.86833 0.65466 0.46800 -0.00100
C 	C 	0.83558 0.64807 0.46823 0.00100
C 	C 	0.82204 0.62987 0.44372 -0.00000
C 	C 	0.84124 0.61825 0.41898 0.00500
O 	O 	0.94024 0.43862 0.70432 -0.64900
O 	O 	0.90625 0.47276 0.75221 -0.62700
O 	O 	0.96772 0.46512 0.66465 -0.62600
C 	C 	0.81190 0.47050 0.78180 -0.03100
C 	C 	0.84317 0.47130 0.77250 0.08400
C 	C 	0.93159 0.42467 0.65035 -0.17000
C 	C 	0.90649 0.40458 0.65941 0.08300
C 	C 	0.88850 0.38879 0.63611 -0.03000
C 	C 	0.89561 0.39310 0.60376 0.02600
C 	C 	0.92070 0.41320 0.59471 -0.03000
C 	C 	0.93869 0.42899 0.61800 0.08300
C 	C 	0.94702 0.44440 0.67510 0.51200
C 	C 	0.74340 0.47500 0.79980 0.00700
C 	C 	0.63700 0.41580 0.47310 0.11600
C 	C 	0.75860 0.34810 0.52290 -0.00000
O 	O 	0.58020 0.44810 0.47560 -0.60000
C 	C 	0.66940 0.40190 0.47010 -0.03200
C 	C 	0.71030 0.47610 0.80410 -0.00200
C 	C 	0.72710 0.36190 0.52280 0.00500
C 	C 	0.87398 0.37517 0.58125 -0.00800
C 	C 	0.88753 0.35696 0.55674 0.00400
C 	C 	0.86833 0.34534 0.53200 -0.00100
C 	C 	0.83558 0.35193 0.53177 0.00100
C 	C 	0.82204 0.37013 0.55628 -0.00000
C 	C 	0.84124 0.38175 0.58102 0.00500
O 	O 	0.29568 0.05976 0.43862 -0.64900
O 	O 	0.24779 0.09375 0.47276 -0.62700
O 	O 	0.33535 0.03228 0.46512 -0.62600
C 	C 	0.21820 0.18810 0.47050 -0.03100
C 	C 	0.22750 0.15683 0.47130 0.08400
C 	C 	0.34965 0.06841 0.42467 -0.17000
C 	C 	0.34059 0.09351 0.40458 0.08300
C 	C 	0.36389 0.11150 0.38879 -0.03000
C 	C 	0.39624 0.10439 0.39310 0.02600
C 	C 	0.40529 0.07930 0.41320 -0.03000
C 	C 	0.38200 0.06131 0.42899 0.08300
C 	C 	0.32490 0.05298 0.44440 0.51200
C 	C 	0.20020 0.25660 0.47500 0.00700
C 	C 	0.52690 0.36300 0.41580 0.11600
C 	C 	0.47710 0.24140 0.34810 -0.00000
O 	O 	0.52440 0.41980 0.44810 -0.60000
C 	C 	0.52990 0.33060 0.40190 -0.03200
C 	C 	0.19590 0.28970 0.47610 -0.00200
C 	C 	0.47720 0.27290 0.36190 0.00500
C 	C 	0.41875 0.12602 0.37517 -0.00800
C 	C 	0.44326 0.11247 0.35696 0.00400
C 	C 	0.46800 0.13167 0.34534 -0.00100
C 	C 	0.46823 0.16442 0.35193 0.00100
C 	C 	0.44372 0.17796 0.37013 -0.00000
C 	C 	0.41898 0.15876 0.38175 0.00500
O 	O 	0.70432 0.05976 0.56138 -0.64900
O 	O 	0.75221 0.09375 0.52724 -0.62700
O 	O 	0.66465 0.03228 0.53488 -0.62600
C 	C 	0.78180 0.18810 0.52950 -0.03100
C 	C 	0.77250 0.15683 0.52870 0.08400
C 	C 	0.65035 0.06841 0.57533 -0.17000
C 	C 	0.65941 0.09351 0.59542 0.08300
C 	C 	0.63611 0.11150 0.61121 -0.03000
C 	C 	0.60376 0.10439 0.60690 0.02600
C 	C 	0.59471 0.07930 0.58680 -0.03000
C 	C 	0.61800 0.06131 0.57101 0.08300
C 	C 	0.67510 0.05298 0.55560 0.51200
C 	C 	0.79980 0.25660 0.52500 0.00700
C 	C 	0.47310 0.36300 0.58420 0.11600
C 	C 	0.52290 0.24140 0.65190 -0.00000
O 	O 	0.47560 0.41980 0.55190 -0.60000
C 	C 	0.47010 0.33060 0.59810 -0.03200
C 	C 	0.80410 0.28970 0.52390 -0.00200
C 	C 	0.52280 0.27290 0.63810 0.00500
C 	C 	0.58125 0.12602 0.62483 -0.00800
C 	C 	0.55674 0.11247 0.64304 0.00400
C 	C 	0.53200 0.13167 0.65466 -0.00100
C 	C 	0.53177 0.16442 0.64807 0.00100
C 	C 	0.55628 0.17796 0.62987 -0.00000
C 	C 	0.58102 0.15876 0.61825 0.00500
O 	O 	0.29568 0.94024 0.56138 -0.64900
O 	O 	0.24779 0.90625 0.52724 -0.62700
O 	O 	0.33535 0.96772 0.53488 -0.62600
C 	C 	0.21820 0.81190 0.52950 -0.03100
C 	C 	0.22750 0.84317 0.52870 0.08400
C 	C 	0.34965 0.93159 0.57533 -0.17000
C 	C 	0.34059 0.90649 0.59542 0.08300
C 	C 	0.36389 0.88850 0.61121 -0.03000
C 	C 	0.39624 0.89561 0.60690 0.02600
C 	C 	0.40529 0.92070 0.58680 -0.03000
C 	C 	0.38200 0.93869 0.57101 0.08300
C 	C 	0.32490 0.94702 0.55560 0.51200
C 	C 	0.20020 0.74340 0.52500 0.00700
C 	C 	0.52690 0.63700 0.58420 0.11600
C 	C 	0.47710 0.75860 0.65190 -0.00000
O 	O 	0.52440 0.58020 0.55190 -0.60000
C 	C 	0.52990 0.66940 0.59810 -0.03200
C 	C 	0.19590 0.71030 0.52390 -0.00200
C 	C 	0.47720 0.72710 0.63810 0.00500
C 	C 	0.41875 0.87398 0.62483 -0.00800
C 	C 	0.44326 0.88753 0.64304 0.00400
C 	C 	0.46800 0.86833 0.65466 -0.00100
C 	C 	0.46823 0.83558 0.64807 0.00100
C 	C 	0.44372 0.82204 0.62987 -0.00000
C 	C 	0.41898 0.84124 0.61825 0.00500
O 	O 	0.70432 0.94024 0.43862 -0.64900
O 	O 	0.75221 0.90625 0.47276 -0.62700
O 	O 	0.66465 0.96772 0.46512 -0.62600
C 	C 	0.78180 0.81190 0.47050 -0.03100
C 	C 	0.77250 0.84317 0.47130 0.08400
C 	C 	0.65035 0.93159 0.42467 -0.17000
C 	C 	0.65941 0.90649 0.40458 0.08300
C 	C 	0.63611 0.88850 0.38879 -0.03000
C 	C 	0.60376 0.89561 0.39310 0.02600
C 	C 	0.59471 0.92070 0.41320 -0.03000
C 	C 	0.61800 0.93869 0.42899 0.08300
C 	C 	0.67510 0.94702 0.44440 0.51200
C 	C 	0.79980 0.74340 0.47500 0.00700
C 	C 	0.47310 0.63700 0.41580 0.11600
C 	C 	0.52290 0.75860 0.34810 -0.00000
O 	O 	0.47560 0.58020 0.44810 -0.60000
C 	C 	0.47010 0.66940 0.40190 -0.03200
C 	C 	0.80410 0.71030 0.47610 -0.00200
C 	C 	0.52280 0.72710 0.36190 0.00500
C 	C 	0.58125 0.87398 0.37517 -0.00800
C 	C 	0.55674 0.88753 0.35696 0.00400
C 	C 	0.53200 0.86833 0.34534 -0.00100
C 	C 	0.53177 0.83558 0.35193 0.00100
C 	C 	0.55628 0.82204 0.37013 -0.00000
C 	C 	0.58102 0.84124 0.38175 0.00500
O 	O 	0.79568 0.93862 0.44024 -0.64900
O 	O 	0.74779 0.97276 0.40625 -0.62700
O 	O 	0.83535 0.96512 0.46772 -0.62600
C 	C 	0.71820 0.97050 0.31190 -0.03100
C 	C 	0.72750 0.97130 0.34317 0.08400
C 	C 	0.84965 0.92467 0.43159 -0.17000
C 	C 	0.84059 0.90458 0.40649 0.08300
C 	C 	0.86389 0.88879 0.38850 -0.03000
C 	C 	0.89624 0.89310 0.39561 0.02600
C 	C 	0.90529 0.91320 0.42070 -0.03000
C 	C 	0.88200 0.92899 0.43869 0.08300
C 	C 	0.82490 0.94440 0.44702 0.51200
C 	C 	0.70020 0.97500 0.24340 0.00700
C 	C 	0.02690 0.91580 0.13700 0.11600
C 	C 	0.97710 0.84810 0.25860 -0.00000
O 	O 	0.02440 0.94810 0.08020 -0.60000
C 	C 	0.02990 0.90190 0.16940 -0.03200
C 	C 	0.69590 0.97610 0.21030 -0.00300
C 	C 	0.97720 0.86190 0.22710 0.00500
C 	C 	0.91875 0.87517 0.37398 -0.00800
C 	C 	0.94326 0.85696 0.38753 0.00400
C 	C 	0.96800 0.84534 0.36833 -0.00100
C 	C 	0.96823 0.85193 0.33558 0.00100
C 	C 	0.94372 0.87013 0.32204 -0.00000
C 	C 	0.91898 0.88175 0.34124 0.00500
O 	O 	0.20432 0.06138 0.44024 -0.64900
O 	O 	0.25221 0.02724 0.40625 -0.62700
O 	O 	0.16465 0.03488 0.46772 -0.62600
C 	C 	0.28180 0.02950 0.31190 -0.03100
C 	C 	0.27250 0.02870 0.34317 0.08400
C 	C 	0.15035 0.07533 0.43159 -0.17000
C 	C 	0.15941 0.09542 0.40649 0.08300
C 	C 	0.13611 0.11121 0.38850 -0.03000
C 	C 	0.10376 0.10690 0.39561 0.02600
C 	C 	0.09471 0.08680 0.42070 -0.03000
C 	C 	0.11800 0.07101 0.43869 0.08300
C 	C 	0.17510 0.05560 0.44702 0.51200
C 	C 	0.29980 0.02500 0.24340 0.00700
C 	C 	0.97310 0.08420 0.13700 0.11600
C 	C 	0.02290 0.15190 0.25860 -0.00000
O 	O 	0.97560 0.05190 0.08020 -0.60000
C 	C 	0.97010 0.09810 0.16940 -0.03200
C 	C 	0.30410 0.02390 0.21030 -0.00200
C 	C 	0.02280 0.13810 0.22710 0.00500
C 	C 	0.08125 0.12483 0.37398 -0.00800
C 	C 	0.05674 0.14304 0.38753 0.00400
C 	C 	0.03200 0.15466 0.36833 -0.00100
C 	C 	0.03177 0.14807 0.33558 0.00100
C 	C 	0.05628 0.12987 0.32204 -0.00000
C 	C 	0.08102 0.11825 0.34124 0.00500
O 	O 	0.79568 0.06138 0.55976 -0.64900
O 	O 	0.74779 0.02724 0.59375 -0.62700
O 	O 	0.83535 0.03488 0.53228 -0.62600
C 	C 	0.71820 0.02950 0.68810 -0.03100
C 	C 	0.72750 0.02870 0.65683 0.08400
C 	C 	0.84965 0.07533 0.56841 -0.17000
C 	C 	0.84059 0.09542 0.59351 0.08300
C 	C 	0.86389 0.11121 0.61150 -0.03000
C 	C 	0.89624 0.10690 0.60439 0.02600
C 	C 	0.90529 0.08680 0.57930 -0.03000
C 	C 	0.88200 0.07101 0.56131 0.08300
C 	C 	0.82490 0.05560 0.55298 0.51200
C 	C 	0.70020 0.02500 0.75660 0.00700
C 	C 	0.02690 0.08420 0.86300 0.11600
C 	C 	0.97710 0.15190 0.74140 -0.00000
O 	O 	0.02440 0.05190 0.91980 -0.60000
C 	C 	0.02990 0.09810 0.83060 -0.03200
C 	C 	0.69590 0.02390 0.78970 -0.00200
C 	C 	0.97720 0.13810 0.77290 0.00500
C 	C 	0.91875 0.12483 0.62602 -0.00800
C 	C 	0.94326 0.14304 0.61247 0.00400
C 	C 	0.96800 0.15466 0.63167 -0.00100
C 	C 	0.96823 0.14807 0.66442 0.00100
C 	C 	0.94372 0.12987 0.67796 -0.00000
C 	C 	0.91898 0.11825 0.65876 0.00500
O 	O 	0.20432 0.93862 0.55976 -0.64900
O 	O 	0.25221 0.97276 0.59375 -0.62700
O 	O 	0.16465 0.96512 0.53228 -0.62600
C 	C 	0.28180 0.97050 0.68810 -0.03100
C 	C 	0.27250 0.97130 0.65683 0.08400
C 	C 	0.15035 0.92467 0.56841 -0.17000
C 	C 	0.15941 0.90458 0.59351 0.08300
C 	C 	0.13611 0.88879 0.61150 -0.03000
C 	C 	0.10376 0.89310 0.60439 0.02600
C 	C 	0.09471 0.91320 0.57930 -0.03000
C 	C 	0.11800 0.92899 0.56131 0.08300
C 	C 	0.17510 0.94440 0.55298 0.51200
C 	C 	0.29980 0.97500 0.75660 0.00700
C 	C 	0.97310 0.91580 0.86300 0.11600
C 	C 	0.02290 0.84810 0.74140 -0.00000
O 	O 	0.97560 0.94810 0.91980 -0.60000
C 	C 	0.97010 0.90190 0.83060 -0.03200
C 	C 	0.30410 0.97610 0.78970 -0.00300
C 	C 	0.02280 0.86190 0.77290 0.00500
C 	C 	0.08125 0.87517 0.62602 -0.00800
C 	C 	0.05674 0.85696 0.61247 0.00400
C 	C 	0.03200 0.84534 0.63167 -0.00100
C 	C 	0.03177 0.85193 0.66442 0.00100
C 	C 	0.05628 0.87013 0.67796 -0.00000
C 	C 	0.08102 0.88175 0.65876 0.00500
O 	O 	0.93862 0.55976 0.20432 -0.64900
O 	O 	0.97276 0.59375 0.25221 -0.62700
O 	O 	0.96512 0.53228 0.16465 -0.62600
C 	C 	0.97050 0.68810 0.28180 -0.03100
C 	C 	0.97130 0.65683 0.27250 0.08400
C 	C 	0.92467 0.56841 0.15035 -0.17000
C 	C 	0.90458 0.59351 0.15941 0.08300
C 	C 	0.88879 0.61150 0.13611 -0.03000
C 	C 	0.89310 0.60439 0.10376 0.02600
C 	C 	0.91320 0.57930 0.09471 -0.03000
C 	C 	0.92899 0.56131 0.11800 0.08300
C 	C 	0.94440 0.55298 0.17510 0.51200
C 	C 	0.97500 0.75660 0.29980 0.00700
C 	C 	0.91580 0.86300 0.97310 0.11600
C 	C 	0.84810 0.74140 0.02290 -0.00000
O 	O 	0.94810 0.91980 0.97560 -0.60000
C 	C 	0.90190 0.83060 0.97010 -0.03200
C 	C 	0.97610 0.78970 0.30410 -0.00300
C 	C 	0.86190 0.77290 0.02280 0.00500
C 	C 	0.87517 0.62602 0.08125 -0.00800
C 	C 	0.85696 0.61247 0.05674 0.00400
C 	C 	0.84534 0.63167 0.03200 -0.00100
C 	C 	0.85193 0.66442 0.03177 0.00100
C 	C 	0.87013 0.67796 0.05628 -0.00000
C 	C 	0.88175 0.65876 0.08102 0.00500
O 	O 	0.06138 0.55976 0.79568 -0.64900
O 	O 	0.02724 0.59375 0.74779 -0.62700
O 	O 	0.03488 0.53228 0.83535 -0.62600
C 	C 	0.02950 0.68810 0.71820 -0.03100
C 	C 	0.02870 0.65683 0.72750 0.08400
C 	C 	0.07533 0.56841 0.84965 -0.17000
C 	C 	0.09542 0.59351 0.84059 0.08300
C 	C 	0.11121 0.61150 0.86389 -0.03000
C 	C 	0.10690 0.60439 0.89624 0.02600
C 	C 	0.08680 0.57930 0.90529 -0.03000
C 	C 	0.07101 0.56131 0.88200 0.08300
C 	C 	0.05560 0.55298 0.82490 0.51200
C 	C 	0.02500 0.75660 0.70020 0.00700
C 	C 	0.08420 0.86300 0.02690 0.11600
C 	C 	0.15190 0.74140 0.97710 -0.00000
O 	O 	0.05190 0.91980 0.02440 -0.60000
C 	C 	0.09810 0.83060 0.02990 -0.03200
C 	C 	0.02390 0.78970 0.69590 -0.00200
C 	C 	0.13810 0.77290 0.97720 0.00500
C 	C 	0.12483 0.62602 0.91875 -0.00800
C 	C 	0.14304 0.61247 0.94326 0.00400
C 	C 	0.15466 0.63167 0.96800 -0.00100
C 	C 	0.14807 0.66442 0.96823 0.00100
C 	C 	0.12987 0.67796 0.94372 -0.00000
C 	C 	0.11825 0.65876 0.91898 0.00500
O 	O 	0.06138 0.44024 0.20432 -0.64900
O 	O 	0.02724 0.40625 0.25221 -0.62700
O 	O 	0.03488 0.46772 0.16465 -0.62600
C 	C 	0.02950 0.31190 0.28180 -0.03100
C 	C 	0.02870 0.34317 0.27250 0.08400
C 	C 	0.07533 0.43159 0.15035 -0.17000
C 	C 	0.09542 0.40649 0.15941 0.08300
C 	C 	0.11121 0.38850 0.13611 -0.03000
C 	C 	0.10690 0.39561 0.10376 0.02600
C 	C 	0.08680 0.42070 0.09471 -0.03000
C 	C 	0.07101 0.43869 0.11800 0.08300
C 	C 	0.05560 0.44702 0.17510 0.51200
C 	C 	0.02500 0.24340 0.29980 0.00700
C 	C 	0.08420 0.13700 0.97310 0.11600
C 	C 	0.15190 0.25860 0.02290 -0.00000
O 	O 	0.05190 0.08020 0.97560 -0.60000
C 	C 	0.09810 0.16940 0.97010 -0.03200
C 	C 	0.02390 0.21030 0.30410 -0.00200
C 	C 	0.13810 0.22710 0.02280 0.00500
C 	C 	0.12483 0.37398 0.08125 -0.00800
C 	C 	0.14304 0.38753 0.05674 0.00400
C 	C 	0.15466 0.36833 0.03200 -0.00100
C 	C 	0.14807 0.33558 0.03177 0.00100
C 	C 	0.12987 0.32204 0.05628 -0.00000
C 	C 	0.11825 0.34124 0.08102 0.00500
O 	O 	0.93862 0.44024 0.79568 -0.64900
O 	O 	0.97276 0.40625 0.74779 -0.62700
O 	O 	0.96512 0.46772 0.83535 -0.62600
C 	C 	0.97050 0.31190 0.71820 -0.03100
C 	C 	0.97130 0.34317 0.72750 0.08400
C 	C 	0.92467 0.43159 0.84965 -0.17000
C 	C 	0.90458 0.40649 0.84059 0.08300
C 	C 	0.88879 0.38850 0.86389 -0.03000
C 	C 	0.89310 0.39561 0.89624 0.02600
C 	C 	0.91320 0.42070 0.90529 -0.03000
C 	C 	0.92899 0.43869 0.88200 0.08300
C 	C 	0.94440 0.44702 0.82490 0.51200
C 	C 	0.97500 0.24340 0.70020 0.00700
C 	C 	0.91580 0.13700 0.02690 0.11600
C 	C 	0.84810 0.25860 0.97710 -0.00000
O 	O 	0.94810 0.08020 0.02440 -0.60000
C 	C 	0.90190 0.16940 0.02990 -0.03200
C 	C 	0.97610 0.21030 0.69590 -0.00300
C 	C 	0.86190 0.22710 0.97720 0.00500
C 	C 	0.87517 0.37398 0.91875 -0.00800
C 	C 	0.85696 0.38753 0.94326 0.00400
C 	C 	0.84534 0.36833 0.96800 -0.00100
C 	C 	0.85193 0.33558 0.96823 0.00100
C 	C 	0.87013 0.32204 0.94372 -0.00000
C 	C 	0.88175 0.34124 0.91898 0.00500
O 	O 	0.55976 0.79568 0.06138 -0.64900
O 	O 	0.59375 0.74779 0.02724 -0.62700
O 	O 	0.53228 0.83535 0.03488 -0.62600
C 	C 	0.68810 0.71820 0.02950 -0.03100
C 	C 	0.65683 0.72750 0.02870 0.08400
C 	C 	0.56841 0.84965 0.07533 -0.17000
C 	C 	0.59351 0.84059 0.09542 0.08300
C 	C 	0.61150 0.86389 0.11121 -0.03000
C 	C 	0.60439 0.89624 0.10690 0.02600
C 	C 	0.57930 0.90529 0.08680 -0.03000
C 	C 	0.56131 0.88200 0.07101 0.08300
C 	C 	0.55298 0.82490 0.05560 0.51200
C 	C 	0.75660 0.70020 0.02500 0.00700
C 	C 	0.86300 0.02690 0.08420 0.11600
C 	C 	0.74140 0.97710 0.15190 -0.00000
O 	O 	0.91980 0.02440 0.05190 -0.60000
C 	C 	0.83060 0.02990 0.09810 -0.03200
C 	C 	0.78970 0.69590 0.02390 -0.00200
C 	C 	0.77290 0.97720 0.13810 0.00500
C 	C 	0.62602 0.91875 0.12483 -0.00800
C 	C 	0.61247 0.94326 0.14304 0.00400
C 	C 	0.63167 0.96800 0.15466 -0.00100
C 	C 	0.66442 0.96823 0.14807 0.00100
C 	C 	0.67796 0.94372 0.12987 -0.00000
C 	C 	0.65876 0.91898 0.11825 0.00500
O 	O 	0.55976 0.20432 0.93862 -0.64900
O 	O 	0.59375 0.25221 0.97276 -0.62700
O 	O 	0.53228 0.16465 0.96512 -0.62600
C 	C 	0.68810 0.28180 0.97050 -0.03100
C 	C 	0.65683 0.27250 0.97130 0.08400
C 	C 	0.56841 0.15035 0.92467 -0.17000
C 	C 	0.59351 0.15941 0.90458 0.08300
C 	C 	0.61150 0.13611 0.88879 -0.03000
C 	C 	0.60439 0.10376 0.89310 0.02600
C 	C 	0.57930 0.09471 0.91320 -0.03000
C 	C 	0.56131 0.11800 0.92899 0.08300
C 	C 	0.55298 0.17510 0.94440 0.51200
C 	C 	0.75660 0.29980 0.97500 0.00700
C 	C 	0.86300 0.97310 0.91580 0.11600
C 	C 	0.74140 0.02290 0.84810 -0.00000
O 	O 	0.91980 0.97560 0.94810 -0.60000
C 	C 	0.83060 0.97010 0.90190 -0.03200
C 	C 	0.78970 0.30410 0.97610 -0.00300
C 	C 	0.77290 0.02280 0.86190 0.00500
C 	C 	0.62602 0.08125 0.87517 -0.00800
C 	C 	0.61247 0.05674 0.85696 0.00400
C 	C 	0.63167 0.03200 0.84534 -0.00100
C 	C 	0.66442 0.03177 0.85193 0.00100
C 	C 	0.67796 0.05628 0.87013 -0.00000
C 	C 	0.65876 0.08102 0.88175 0.00500
O 	O 	0.44024 0.79568 0.93862 -0.64900
O 	O 	0.40625 0.74779 0.97276 -0.62700
O 	O 	0.46772 0.83535 0.96512 -0.62600
C 	C 	0.31190 0.71820 0.97050 -0.03100
C 	C 	0.34317 0.72750 0.97130 0.08400
C 	C 	0.43159 0.84965 0.92467 -0.17000
C 	C 	0.40649 0.84059 0.90458 0.08300
C 	C 	0.38850 0.86389 0.88879 -0.03000
C 	C 	0.39561 0.89624 0.89310 0.02600
C 	C 	0.42070 0.90529 0.91320 -0.03000
C 	C 	0.43869 0.88200 0.92899 0.08300
C 	C 	0.44702 0.82490 0.94440 0.51200
C 	C 	0.24340 0.70020 0.97500 0.00700
C 	C 	0.13700 0.02690 0.91580 0.11600
C 	C 	0.25860 0.97710 0.84810 -0.00000
O 	O 	0.08020 0.02440 0.94810 -0.60000
C 	C 	0.16940 0.02990 0.90190 -0.03200
C 	C 	0.21030 0.69590 0.97610 -0.00300
C 	C 	0.22710 0.97720 0.86190 0.00500
C 	C 	0.37398 0.91875 0.87517 -0.00800
C 	C 	0.38753 0.94326 0.85696 0.00400
C 	C 	0.36833 0.96800 0.84534 -0.00100
C 	C 	0.33558 0.96823 0.85193 0.00100
C 	C 	0.32204 0.94372 0.87013 -0.00000
C 	C 	0.34124 0.91898 0.88175 0.00500
O 	O 	0.44024 0.20432 0.06138 -0.64900
O 	O 	0.40625 0.25221 0.02724 -0.62700
O 	O 	0.46772 0.16465 0.03488 -0.62600
C 	C 	0.31190 0.28180 0.02950 -0.03100
C 	C 	0.34317 0.27250 0.02870 0.08400
C 	C 	0.43159 0.15035 0.07533 -0.17000
C 	C 	0.40649 0.15941 0.09542 0.08300
C 	C 	0.38850 0.13611 0.11121 -0.03000
C 	C 	0.39561 0.10376 0.10690 0.02600
C 	C 	0.42070 0.09471 0.08680 -0.03000
C 	C 	0.43869 0.11800 0.07101 0.08300
C 	C 	0.44702 0.17510 0.05560 0.51200
C 	C 	0.24340 0.29980 0.02500 0.00700
C 	C 	0.13700 0.97310 0.08420 0.11600
C 	C 	0.25860 0.02290 0.15190 -0.00000
O 	O 	0.08020 0.97560 0.05190 -0.60000
C 	C 	0.16940 0.97010 0.09810 -0.03200
C 	C 	0.21030 0.30410 0.02390 -0.00200
C 	C 	0.22710 0.02280 0.13810 0.00500
C 	C 	0.37398 0.08125 0.12483 -0.00800
C 	C 	0.38753 0.05674 0.14304 0.00400
C 	C 	0.36833 0.03200 0.15466 -0.00100
C 	C 	0.33558 0.03177 0.14807 0.00100
C 	C 	0.32204 0.05628 0.12987 -0.00000
C 	C 	0.34124 0.08102 0.11825 0.00500
O 	O 	0.56138 0.70432 0.94024 -0.64900
O 	O 	0.52724 0.75221 0.90625 -0.62700
O 	O 	0.53488 0.66465 0.96772 -0.62600
C 	C 	0.52950 0.78180 0.81190 -0.03100
C 	C 	0.52870 0.77250 0.84317 0.08400
C 	C 	0.57533 0.65035 0.93159 -0.17000
C 	C 	0.59542 0.65941 0.90649 0.08300
C 	C 	0.61121 0.63611 0.88850 -0.03000
C 	C 	0.60690 0.60376 0.89561 0.02600
C 	C 	0.58680 0.59471 0.92070 -0.03000
C 	C 	0.57101 0.61800 0.93869 0.08300
C 	C 	0.55560 0.67510 0.94702 0.51200
C 	C 	0.52500 0.79980 0.74340 0.00700
C 	C 	0.58420 0.47310 0.63700 0.11600
C 	C 	0.65190 0.52290 0.75860 -0.00000
O 	O 	0.55190 0.47560 0.58020 -0.60000
C 	C 	0.59810 0.47010 0.66940 -0.03200
C 	C 	0.52390 0.80410 0.71030 -0.00200
C 	C 	0.63810 0.52280 0.72710 0.00500
C 	C 	0.62483 0.58125 0.87398 -0.00800
C 	C 	0.64304 0.55674 0.88753 0.00400
C 	C 	0.65466 0.53200 0.86833 -0.00100
C 	C 	0.64807 0.53177 0.83558 0.00100
C 	C 	0.62987 0.55628 0.82204 -0.00000
C 	C 	0.61825 0.58102 0.84124 0.00500
O 	O 	0.43862 0.29568 0.94024 -0.64900
O 	O 	0.47276 0.24779 0.90625 -0.62700
O 	O 	0.46512 0.33535 0.96772 -0.62600
C 	C 	0.47050 0.21820 0.81190 -0.03100
C 	C 	0.47130 0.22750 0.84317 0.08400
C 	C 	0.42467 0.34965 0.93159 -0.17000
C 	C 	0.40458 0.34059 0.90649 0.08300
C 	C 	0.38879 0.36389 0.88850 -0.03000
C 	C 	0.39310 0.39624 0.89561 0.02600
C 	C 	0.41320 0.40529 0.92070 -0.03000
C 	C 	0.42899 0.38200 0.93869 0.08300
C 	C 	0.44440 0.32490 0.94702 0.51200
C 	C 	0.47500 0.20020 0.74340 0.00700
C 	C 	0.41580 0.52690 0.63700 0.11600
C 	C 	0.34810 0.47710 0.75860 -0.00000
O 	O 	0.44810 0.52440 0.58020 -0.60000
C 	C 	0.40190 0.52990 0.66940 -0.03200
C 	C 	0.47610 0.19590 0.71030 -0.00200
C 	C 	0.36190 0.47720 0.72710 0.00500
C 	C 	0.37517 0.41875 0.87398 -0.00800
C 	C 	0.35696 0.44326 0.88753 0.00400
C 	C 	0.34534 0.46800 0.86833 -0.00100
C 	C 	0.35193 0.46823 0.83558 0.00100
C 	C 	0.37013 0.44372 0.82204 -0.00000
C 	C 	0.38175 0.41898 0.84124 0.00500
O 	O 	0.43862 0.70432 0.05976 -0.64900
O 	O 	0.47276 0.75221 0.09375 -0.62700
O 	O 	0.46512 0.66465 0.03228 -0.62600
C 	C 	0.47050 0.78180 0.18810 -0.03100
C 	C 	0.47130 0.77250 0.15683 0.08400
C 	C 	0.42467 0.65035 0.06841 -0.17000
C 	C 	0.40458 0.65941 0.09351 0.08300
C 	C 	0.38879 0.63611 0.11150 -0.03000
C 	C 	0.39310 0.60376 0.10439 0.02600
C 	C 	0.41320 0.59471 0.07930 -0.03000
C 	C 	0.42899 0.61800 0.06131 0.08300
C 	C 	0.44440 0.67510 0.05298 0.51200
C 	C 	0.47500 0.79980 0.25660 0.00700
C 	C 	0.41580 0.47310 0.36300 0.11600
C 	C 	0.34810 0.52290 0.24140 -0.00000
O 	O 	0.44810 0.47560 0.41980 -0.60000
C 	C 	0.40190 0.47010 0.33060 -0.03200
C 	C 	0.47610 0.80410 0.28970 -0.00200
C 	C 	0.36190 0.52280 0.27290 0.00500
C 	C 	0.37517 0.58125 0.12602 -0.00800
C 	C 	0.35696 0.55674 0.11247 0.00400
C 	C 	0.34534 0.53200 0.13167 -0.00100
C 	C 	0.35193 0.53177 0.16442 0.00100
C 	C 	0.37013 0.55628 0.17796 -0.00000
C 	C 	0.38175 0.58102 0.15876 0.00500
O 	O 	0.56138 0.29568 0.05976 -0.64900
O 	O 	0.52724 0.24779 0.09375 -0.62700
O 	O 	0.53488 0.33535 0.03228 -0.62600
C 	C 	0.52950 0.21820 0.18810 -0.03100
C 	C 	0.52870 0.22750 0.15683 0.08400
C 	C 	0.57533 0.34965 0.06841 -0.17000
C 	C 	0.59542 0.34059 0.09351 0.08300
C 	C 	0.61121 0.36389 0.11150 -0.03000
C 	C 	0.60690 0.39624 0.10439 0.02600
C 	C 	0.58680 0.40529 0.07930 -0.03000
C 	C 	0.57101 0.38200 0.06131 0.08300
C 	C 	0.55560 0.32490 0.05298 0.51200
C 	C 	0.52500 0.20020 0.25660 0.00700
C 	C 	0.58420 0.52690 0.36300 0.11600
C 	C 	0.65190 0.47710 0.24140 -0.00000
O 	O 	0.55190 0.52440 0.41980 -0.60000
C 	C 	0.59810 0.52990 0.33060 -0.03200
C 	C 	0.52390 0.19590 0.28970 -0.00200
C 	C 	0.63810 0.47720 0.27290 0.00500
C 	C 	0.62483 0.41875 0.12602 -0.00800
C 	C 	0.64304 0.44326 0.11247 0.00400
C 	C 	0.65466 0.46800 0.13167 -0.00100
C 	C 	0.64807 0.46823 0.16442 0.00100
C 	C 	0.62987 0.44372 0.17796 -0.00000
C 	C 	0.61825 0.41898 0.15876 0.00500
O 	O 	0.94024 0.56138 0.70432 -0.64900
O 	O 	0.90625 0.52724 0.75221 -0.62700
O 	O 	0.96772 0.53488 0.66465 -0.62600
C 	C 	0.81190 0.52950 0.78180 -0.03100
C 	C 	0.84317 0.52870 0.77250 0.08400
C 	C 	0.93159 0.57533 0.65035 -0.17000
C 	C 	0.90649 0.59542 0.65941 0.08300
C 	C 	0.88850 0.61121 0.63611 -0.03000
C 	C 	0.89561 0.60690 0.60376 0.02600
C 	C 	0.92070 0.58680 0.59471 -0.03000
C 	C 	0.93869 0.57101 0.61800 0.08300
C 	C 	0.94702 0.55560 0.67510 0.51200
C 	C 	0.74340 0.52500 0.79980 0.00700
C 	C 	0.63700 0.58420 0.47310 0.11600
C 	C 	0.75860 0.65190 0.52290 -0.00000
O 	O 	0.58020 0.55190 0.47560 -0.60000
C 	C 	0.66940 0.59810 0.47010 -0.03200
C 	C 	0.71030 0.52390 0.80410 -0.00200
C 	C 	0.72710 0.63810 0.52280 0.00500
C 	C 	0.87398 0.62483 0.58125 -0.00800
C 	C 	0.88753 0.64304 0.55674 0.00400
C 	C 	0.86833 0.65466 0.53200 -0.00100
C 	C 	0.83558 0.64807 0.53177 0.00100
C 	C 	0.82204 0.62987 0.55628 -0.00000
C 	C 	0.84124 0.61825 0.58102 0.00500
O 	O 	0.94024 0.43862 0.29568 -0.64900
O 	O 	0.90625 0.47276 0.24779 -0.62700
O 	O 	0.96772 0.46512 0.33535 -0.62600
C 	C 	0.81190 0.47050 0.21820 -0.03100
C 	C 	0.84317 0.47130 0.22750 0.08400
C 	C 	0.93159 0.42467 0.34965 -0.17000
C 	C 	0.90649 0.40458 0.34059 0.08300
C 	C 	0.88850 0.38879 0.36389 -0.03000
C 	C 	0.89561 0.39310 0.39624 0.02600
C 	C 	0.92070 0.41320 0.40529 -0.03000
C 	C 	0.93869 0.42899 0.38200 0.08300
C 	C 	0.94702 0.44440 0.32490 0.51200
C 	C 	0.74340 0.47500 0.20020 0.00700
C 	C 	0.63700 0.41580 0.52690 0.11600
C 	C 	0.75860 0.34810 0.47710 -0.00000
O 	O 	0.58020 0.44810 0.52440 -0.60000
C 	C 	0.66940 0.40190 0.52990 -0.03200
C 	C 	0.71030 0.47610 0.19590 -0.00200
C 	C 	0.72710 0.36190 0.47720 0.00500
C 	C 	0.87398 0.37517 0.41875 -0.00800
C 	C 	0.88753 0.35696 0.44326 0.00400
C 	C 	0.86833 0.34534 0.46800 -0.00100
C 	C 	0.83558 0.35193 0.46823 0.00100
C 	C 	0.82204 0.37013 0.44372 -0.00000
C 	C 	0.84124 0.38175 0.41898 0.00500
O 	O 	0.05976 0.43862 0.70432 -0.64900
O 	O 	0.09375 0.47276 0.75221 -0.62700
O 	O 	0.03228 0.46512 0.66465 -0.62600
C 	C 	0.18810 0.47050 0.78180 -0.03100
C 	C 	0.15683 0.47130 0.77250 0.08400
C 	C 	0.06841 0.42467 0.65035 -0.17000
C 	C 	0.09351 0.40458 0.65941 0.08300
C 	C 	0.11150 0.38879 0.63611 -0.03000
C 	C 	0.10439 0.39310 0.60376 0.02600
C 	C 	0.07930 0.41320 0.59471 -0.03000
C 	C 	0.06131 0.42899 0.61800 0.08300
C 	C 	0.05298 0.44440 0.67510 0.51200
C 	C 	0.25660 0.47500 0.79980 0.00700
C 	C 	0.36300 0.41580 0.47310 0.11600
C 	C 	0.24140 0.34810 0.52290 -0.00000
O 	O 	0.41980 0.44810 0.47560 -0.60000
C 	C 	0.33060 0.40190 0.47010 -0.03200
C 	C 	0.28970 0.47610 0.80410 -0.00200
C 	C 	0.27290 0.36190 0.52280 0.00500
C 	C 	0.12602 0.37517 0.58125 -0.00800
C 	C 	0.11247 0.35696 0.55674 0.00400
C 	C 	0.13167 0.34534 0.53200 -0.00100
C 	C 	0.16442 0.35193 0.53177 0.00100
C 	C 	0.17796 0.37013 0.55628 -0.00000
C 	C 	0.15876 0.38175 0.58102 0.00500
O 	O 	0.05976 0.56138 0.29568 -0.64900
O 	O 	0.09375 0.52724 0.24779 -0.62700
O 	O 	0.03228 0.53488 0.33535 -0.62600
C 	C 	0.18810 0.52950 0.21820 -0.03100
C 	C 	0.15683 0.52870 0.22750 0.08400
C 	C 	0.06841 0.57533 0.34965 -0.17000
C 	C 	0.09351 0.59542 0.34059 0.08300
C 	C 	0.11150 0.61121 0.36389 -0.03000
C 	C 	0.10439 0.60690 0.39624 0.02600
C 	C 	0.07930 0.58680 0.40529 -0.03000
C 	C 	0.06131 0.57101 0.38200 0.08300
C 	C 	0.05298 0.55560 0.32490 0.51200
C 	C 	0.25660 0.52500 0.20020 0.00700
C 	C 	0.36300 0.58420 0.52690 0.11600
C 	C 	0.24140 0.65190 0.47710 -0.00000
O 	O 	0.41980 0.55190 0.52440 -0.60000
C 	C 	0.33060 0.59810 0.52990 -0.03200
C 	C 	0.28970 0.52390 0.19590 -0.00200
C 	C 	0.27290 0.63810 0.47720 0.00500
C 	C 	0.12602 0.62483 0.41875 -0.00800
C 	C 	0.11247 0.64304 0.44326 0.00400
C 	C 	0.13167 0.65466 0.46800 -0.00100
C 	C 	0.16442 0.64807 0.46823 0.00100
C 	C 	0.17796 0.62987 0.44372 -0.00000
C 	C 	0.15876 0.61825 0.41898 0.00500
O 	O 	0.70432 0.94024 0.56138 -0.64900
O 	O 	0.75221 0.90625 0.52724 -0.62700
O 	O 	0.66465 0.96772 0.53488 -0.62600
C 	C 	0.78180 0.81190 0.52950 -0.03100
C 	C 	0.77250 0.84317 0.52870 0.08400
C 	C 	0.65035 0.93159 0.57533 -0.17000
C 	C 	0.65941 0.90649 0.59542 0.08300
C 	C 	0.63611 0.88850 0.61121 -0.03000
C 	C 	0.60376 0.89561 0.60690 0.02600
C 	C 	0.59471 0.92070 0.58680 -0.03000
C 	C 	0.61800 0.93869 0.57101 0.08300
C 	C 	0.67510 0.94702 0.55560 0.51200
C 	C 	0.79980 0.74340 0.52500 0.00700
C 	C 	0.47310 0.63700 0.58420 0.11600
C 	C 	0.52290 0.75860 0.65190 -0.00000
O 	O 	0.47560 0.58020 0.55190 -0.60000
C 	C 	0.47010 0.66940 0.59810 -0.03200
C 	C 	0.80410 0.71030 0.52390 -0.00200
C 	C 	0.52280 0.72710 0.63810 0.00500
C 	C 	0.58125 0.87398 0.62483 -0.00800
C 	C 	0.55674 0.88753 0.64304 0.00400
C 	C 	0.53200 0.86833 0.65466 -0.00100
C 	C 	0.53177 0.83558 0.64807 0.00100
C 	C 	0.55628 0.82204 0.62987 -0.00000
C 	C 	0.58102 0.84124 0.61825 0.00500
O 	O 	0.29568 0.94024 0.43862 -0.64900
O 	O 	0.24779 0.90625 0.47276 -0.62700
O 	O 	0.33535 0.96772 0.46512 -0.62600
C 	C 	0.21820 0.81190 0.47050 -0.03100
C 	C 	0.22750 0.84317 0.47130 0.08400
C 	C 	0.34965 0.93159 0.42467 -0.17000
C 	C 	0.34059 0.90649 0.40458 0.08300
C 	C 	0.36389 0.88850 0.38879 -0.03000
C 	C 	0.39624 0.89561 0.39310 0.02600
C 	C 	0.40529 0.92070 0.41320 -0.03000
C 	C 	0.38200 0.93869 0.42899 0.08300
C 	C 	0.32490 0.94702 0.44440 0.51200
C 	C 	0.20020 0.74340 0.47500 0.00700
C 	C 	0.52690 0.63700 0.41580 0.11600
C 	C 	0.47710 0.75860 0.34810 -0.00000
O 	O 	0.52440 0.58020 0.44810 -0.60000
C 	C 	0.52990 0.66940 0.40190 -0.03200
C 	C 	0.19590 0.71030 0.47610 -0.00200
C 	C 	0.47720 0.72710 0.36190 0.00500
C 	C 	0.41875 0.87398 0.37517 -0.00800
C 	C 	0.44326 0.88753 0.35696 0.00400
C 	C 	0.46800 0.86833 0.34534 -0.00100
C 	C 	0.46823 0.83558 0.35193 0.00100
C 	C 	0.44372 0.82204 0.37013 -0.00000
C 	C 	0.41898 0.84124 0.38175 0.00500
O 	O 	0.70432 0.05976 0.43862 -0.64900
O 	O 	0.75221 0.09375 0.47276 -0.62700
O 	O 	0.66465 0.03228 0.46512 -0.62600
C 	C 	0.78180 0.18810 0.47050 -0.03100
C 	C 	0.77250 0.15683 0.47130 0.08400
C 	C 	0.65035 0.06841 0.42467 -0.17000
C 	C 	0.65941 0.09351 0.40458 0.08300
C 	C 	0.63611 0.11150 0.38879 -0.03000
C 	C 	0.60376 0.10439 0.39310 0.02600
C 	C 	0.59471 0.07930 0.41320 -0.03000
C 	C 	0.61800 0.06131 0.42899 0.08300
C 	C 	0.67510 0.05298 0.44440 0.51200
C 	C 	0.79980 0.25660 0.47500 0.00700
C 	C 	0.47310 0.36300 0.41580 0.11600
C 	C 	0.52290 0.24140 0.34810 -0.00000
O 	O 	0.47560 0.41980 0.44810 -0.60000
C 	C 	0.47010 0.33060 0.40190 -0.03200
C 	C 	0.80410 0.28970 0.47610 -0.00200
C 	C 	0.52280 0.27290 0.36190 0.00500
C 	C 	0.58125 0.12602 0.37517 -0.00800
C 	C 	0.55674 0.11247 0.35696 0.00400
C 	C 	0.53200 0.13167 0.34534 -0.00100
C 	C 	0.53177 0.16442 0.35193 0.00100
C 	C 	0.55628 0.17796 0.37013 -0.00000
C 	C 	0.58102 0.15876 0.38175 0.00500
O 	O 	0.29568 0.05976 0.56138 -0.64900
O 	O 	0.24779 0.09375 0.52724 -0.62700
O 	O 	0.33535 0.03228 0.53488 -0.62600
C 	C 	0.21820 0.18810 0.52950 -0.03100
C 	C 	0.22750 0.15683 0.52870 0.08400
C 	C 	0.34965 0.06841 0.57533 -0.17000
C 	C 	0.34059 0.09351 0.59542 0.08300
C 	C 	0.36389 0.11150 0.61121 -0.03000
C 	C 	0.39624 0.10439 0.60690 0.02600
C 	C 	0.40529 0.07930 0.58680 -0.03000
C 	C 	0.38200 0.06131 0.57101 0.08300
C 	C 	0.32490 0.05298 0.55560 0.51200
C 	C 	0.20020 0.25660 0.52500 0.00700
C 	C 	0.52690 0.36300 0.58420 0.11600
C 	C 	0.47710 0.24140 0.65190 -0.00000
O 	O 	0.52440 0.41980 0.55190 -0.60000
C 	C 	0.52990 0.33060 0.59810 -0.03200
C 	C 	0.19590 0.28970 0.52390 -0.00200
C 	C 	0.47720 0.27290 0.63810 0.00500
C 	C 	0.41875 0.12602 0.62483 -0.00800
C 	C 	0.44326 0.11247 0.64304 0.00400
C 	C 	0.46800 0.13167 0.65466 -0.00100
C 	C 	0.46823 0.16442 0.64807 0.00100
C 	C 	0.44372 0.17796 0.62987 -0.00000
C 	C 	0.41898 0.15876 0.61825 0.00500
O 	O 	0.20432 0.06138 0.55976 -0.64900
O 	O 	0.25221 0.02724 0.59375 -0.62700
O 	O 	0.16465 0.03488 0.53228 -0.62600
C 	C 	0.28180 0.02950 0.68810 -0.03100
C 	C 	0.27250 0.02870 0.65683 0.08400
C 	C 	0.15035 0.07533 0.56841 -0.17000
C 	C 	0.15941 0.09542 0.59351 0.08300
C 	C 	0.13611 0.11121 0.61150 -0.03000
C 	C 	0.10376 0.10690 0.60439 0.02600
C 	C 	0.09471 0.08680 0.57930 -0.03000
C 	C 	0.11800 0.07101 0.56131 0.08300
C 	C 	0.17510 0.05560 0.55298 0.51200
C 	C 	0.29980 0.02500 0.75660 0.00700
C 	C 	0.97310 0.08420 0.86300 0.11600
C 	C 	0.02290 0.15190 0.74140 -0.00000
O 	O 	0.97560 0.05190 0.91980 -0.60000
C 	C 	0.97010 0.09810 0.83060 -0.03200
C 	C 	0.30410 0.02390 0.78970 -0.00200
C 	C 	0.02280 0.13810 0.77290 0.00500
C 	C 	0.08125 0.12483 0.62602 -0.00800
C 	C 	0.05674 0.14304 0.61247 0.00400
C 	C 	0.03200 0.15466 0.63167 -0.00100
C 	C 	0.03177 0.14807 0.66442 0.00100
C 	C 	0.05628 0.12987 0.67796 -0.00000
C 	C 	0.08102 0.11825 0.65876 0.00500
O 	O 	0.79568 0.93862 0.55976 -0.64900
O 	O 	0.74779 0.97276 0.59375 -0.62700
O 	O 	0.83535 0.96512 0.53228 -0.62600
C 	C 	0.71820 0.97050 0.68810 -0.03100
C 	C 	0.72750 0.97130 0.65683 0.08400
C 	C 	0.84965 0.92467 0.56841 -0.17000
C 	C 	0.84059 0.90458 0.59351 0.08300
C 	C 	0.86389 0.88879 0.61150 -0.03000
C 	C 	0.89624 0.89310 0.60439 0.02600
C 	C 	0.90529 0.91320 0.57930 -0.03000
C 	C 	0.88200 0.92899 0.56131 0.08300
C 	C 	0.82490 0.94440 0.55298 0.51200
C 	C 	0.70020 0.97500 0.75660 0.00700
C 	C 	0.02690 0.91580 0.86300 0.11600
C 	C 	0.97710 0.84810 0.74140 -0.00000
O 	O 	0.02440 0.94810 0.91980 -0.60000
C 	C 	0.02990 0.90190 0.83060 -0.03200
C 	C 	0.69590 0.97610 0.78970 -0.00300
C 	C 	0.97720 0.86190 0.77290 0.00500
C 	C 	0.91875 0.87517 0.62602 -0.00800
C 	C 	0.94326 0.85696 0.61247 0.00400
C 	C 	0.96800 0.84534 0.63167 -0.00100
C 	C 	0.96823 0.85193 0.66442 0.00100
C 	C 	0.94372 0.87013 0.67796 -0.00000
C 	C 	0.91898 0.88175 0.65876 0.00500
O 	O 	0.20432 0.93862 0.44024 -0.64900
O 	O 	0.25221 0.97276 0.40625 -0.62700
O 	O 	0.16465 0.96512 0.46772 -0.62600
C 	C 	0.28180 0.97050 0.31190 -0.03100
C 	C 	0.27250 0.97130 0.34317 0.08400
C 	C 	0.15035 0.92467 0.43159 -0.17000
C 	C 	0.15941 0.90458 0.40649 0.08300
C 	C 	0.13611 0.88879 0.38850 -0.03000
C 	C 	0.10376 0.89310 0.39561 0.02600
C 	C 	0.09471 0.91320 0.42070 -0.03000
C 	C 	0.11800 0.92899 0.43869 0.08300
C 	C 	0.17510 0.94440 0.44702 0.51200
C 	C 	0.29980 0.97500 0.24340 0.00700
C 	C 	0.97310 0.91580 0.13700 0.11600
C 	C 	0.02290 0.84810 0.25860 -0.00000
O 	O 	0.97560 0.94810 0.08020 -0.60000
C 	C 	0.97010 0.90190 0.16940 -0.03200
C 	C 	0.30410 0.97610 0.21030 -0.00300
C 	C 	0.02280 0.86190 0.22710 0.00500
C 	C 	0.08125 0.87517 0.37398 -0.00800
C 	C 	0.05674 0.85696 0.38753 0.00400
C 	C 	0.03200 0.84534 0.36833 -0.00100
C 	C 	0.03177 0.85193 0.33558 0.00100
C 	C 	0.05628 0.87013 0.32204 -0.00000
C 	C 	0.08102 0.88175 0.34124 0.00500
O 	O 	0.79568 0.06138 0.44024 -0.64900
O 	O 	0.74779 0.02724 0.40625 -0.62700
O 	O 	0.83535 0.03488 0.46772 -0.62600
C 	C 	0.71820 0.02950 0.31190 -0.03100
C 	C 	0.72750 0.02870 0.34317 0.08400
C 	C 	0.84965 0.07533 0.43159 -0.17000
C 	C 	0.84059 0.09542 0.40649 0.08300
C 	C 	0.86389 0.11121 0.38850 -0.03000
C 	C 	0.89624 0.10690 0.39561 0.02600
C 	C 	0.90529 0.08680 0.42070 -0.03000
C 	C 	0.88200 0.07101 0.43869 0.08300
C 	C 	0.82490 0.05560 0.44702 0.51200
C 	C 	0.70020 0.02500 0.24340 0.00700
C 	C 	0.02690 0.08420 0.13700 0.11600
C 	C 	0.97710 0.15190 0.25860 -0.00000
O 	O 	0.02440 0.05190 0.08020 -0.60000
C 	C 	0.02990 0.09810 0.16940 -0.03200
C 	C 	0.69590 0.02390 0.21030 -0.00200
C 	C 	0.97720 0.13810 0.22710 0.00500
C 	C 	0.91875 0.12483 0.37398 -0.00800
C 	C 	0.94326 0.14304 0.38753 0.00400
C 	C 	0.96800 0.15466 0.36833 -0.00100
C 	C 	0.96823 0.14807 0.33558 0.00100
C 	C 	0.94372 0.12987 0.32204 -0.00000
C 	C 	0.91898 0.11825 0.34124 0.00500
O 	O 	0.06138 0.44024 0.79568 -0.64900
O 	O 	0.02724 0.40625 0.74779 -0.62700
O 	O 	0.03488 0.46772 0.83535 -0.62600
C 	C 	0.02950 0.31190 0.71820 -0.03100
C 	C 	0.02870 0.34317 0.72750 0.08400
C 	C 	0.07533 0.43159 0.84965 -0.17000
C 	C 	0.09542 0.40649 0.84059 0.08300
C 	C 	0.11121 0.38850 0.86389 -0.03000
C 	C 	0.10690 0.39561 0.89624 0.02600
C 	C 	0.08680 0.42070 0.90529 -0.03000
C 	C 	0.07101 0.43869 0.88200 0.08300
C 	C 	0.05560 0.44702 0.82490 0.51200
C 	C 	0.02500 0.24340 0.70020 0.00700
C 	C 	0.08420 0.13700 0.02690 0.11600
C 	C 	0.15190 0.25860 0.97710 -0.00000
O 	O 	0.05190 0.08020 0.02440 -0.60000
C 	C 	0.09810 0.16940 0.02990 -0.03200
C 	C 	0.02390 0.21030 0.69590 -0.00200
C 	C 	0.13810 0.22710 0.97720 0.00500
C 	C 	0.12483 0.37398 0.91875 -0.00800
C 	C 	0.14304 0.38753 0.94326 0.00400
C 	C 	0.15466 0.36833 0.96800 -0.00100
C 	C 	0.14807 0.33558 0.96823 0.00100
C 	C 	0.12987 0.32204 0.94372 -0.00000
C 	C 	0.11825 0.34124 0.91898 0.00500
O 	O 	0.93862 0.44024 0.20432 -0.64900
O 	O 	0.97276 0.40625 0.25221 -0.62700
O 	O 	0.96512 0.46772 0.16465 -0.62600
C 	C 	0.97050 0.31190 0.28180 -0.03100
C 	C 	0.97130 0.34317 0.27250 0.08400
C 	C 	0.92467 0.43159 0.15035 -0.17000
C 	C 	0.90458 0.40649 0.15941 0.08300
C 	C 	0.88879 0.38850 0.13611 -0.03000
C 	C 	0.89310 0.39561 0.10376 0.02600
C 	C 	0.91320 0.42070 0.09471 -0.03000
C 	C 	0.92899 0.43869 0.11800 0.08300
C 	C 	0.94440 0.44702 0.17510 0.51200
C 	C 	0.97500 0.24340 0.29980 0.00700
C 	C 	0.91580 0.13700 0.97310 0.11600
C 	C 	0.84810 0.25860 0.02290 -0.00000
O 	O 	0.94810 0.08020 0.97560 -0.60000
C 	C 	0.90190 0.16940 0.97010 -0.03200
C 	C 	0.97610 0.21030 0.30410 -0.00300
C 	C 	0.86190 0.22710 0.02280 0.00500
C 	C 	0.87517 0.37398 0.08125 -0.00800
C 	C 	0.85696 0.38753 0.05674 0.00400
C 	C 	0.84534 0.36833 0.03200 -0.00100
C 	C 	0.85193 0.33558 0.03177 0.00100
C 	C 	0.87013 0.32204 0.05628 -0.00000
C 	C 	0.88175 0.34124 0.08102 0.00500
O 	O 	0.93862 0.55976 0.79568 -0.64900
O 	O 	0.97276 0.59375 0.74779 -0.62700
O 	O 	0.96512 0.53228 0.83535 -0.62600
C 	C 	0.97050 0.68810 0.71820 -0.03100
C 	C 	0.97130 0.65683 0.72750 0.08400
C 	C 	0.92467 0.56841 0.84965 -0.17000
C 	C 	0.90458 0.59351 0.84059 0.08300
C 	C 	0.88879 0.61150 0.86389 -0.03000
C 	C 	0.89310 0.60439 0.89624 0.02600
C 	C 	0.91320 0.57930 0.90529 -0.03000
C 	C 	0.92899 0.56131 0.88200 0.08300
C 	C 	0.94440 0.55298 0.82490 0.51200
C 	C 	0.97500 0.75660 0.70020 0.00700
C 	C 	0.91580 0.86300 0.02690 0.11600
C 	C 	0.84810 0.74140 0.97710 -0.00000
O 	O 	0.94810 0.91980 0.02440 -0.60000
C 	C 	0.90190 0.83060 0.02990 -0.03200
C 	C 	0.97610 0.78970 0.69590 -0.00300
C 	C 	0.86190 0.77290 0.97720 0.00500
C 	C 	0.87517 0.62602 0.91875 -0.00800
C 	C 	0.85696 0.61247 0.94326 0.00400
C 	C 	0.84534 0.63167 0.96800 -0.00100
C 	C 	0.85193 0.66442 0.96823 0.00100
C 	C 	0.87013 0.67796 0.94372 -0.00000
C 	C 	0.88175 0.65876 0.91898 0.00500
O 	O 	0.06138 0.55976 0.20432 -0.64900
O 	O 	0.02724 0.59375 0.25221 -0.62700
O 	O 	0.03488 0.53228 0.16465 -0.62600
C 	C 	0.02950 0.68810 0.28180 -0.03100
C 	C 	0.02870 0.65683 0.27250 0.08400
C 	C 	0.07533 0.56841 0.15035 -0.17000
C 	C 	0.09542 0.59351 0.15941 0.08300
C 	C 	0.11121 0.61150 0.13611 -0.03000
C 	C 	0.10690 0.60439 0.10376 0.02600
C 	C 	0.08680 0.57930 0.09471 -0.03000
C 	C 	0.07101 0.56131 0.11800 0.08300
C 	C 	0.05560 0.55298 0.17510 0.51200
C 	C 	0.02500 0.75660 0.29980 0.00700
C 	C 	0.08420 0.86300 0.97310 0.11600
C 	C 	0.15190 0.74140 0.02290 -0.00000
O 	O 	0.05190 0.91980 0.97560 -0.60000
C 	C 	0.09810 0.83060 0.97010 -0.03200
C 	C 	0.02390 0.78970 0.30410 -0.00200
C 	C 	0.13810 0.77290 0.02280 0.00500
C 	C 	0.12483 0.62602 0.08125 -0.00800
C 	C 	0.14304 0.61247 0.05674 0.00400
C 	C 	0.15466 0.63167 0.03200 -0.00100
C 	C 	0.14807 0.66442 0.03177 0.00100
C 	C 	0.12987 0.67796 0.05628 -0.00000
C 	C 	0.11825 0.65876 0.08102 0.00500
O 	O 	0.44024 0.20432 0.93862 -0.64900
O 	O 	0.40625 0.25221 0.97276 -0.62700
O 	O 	0.46772 0.16465 0.96512 -0.62600
C 	C 	0.31190 0.28180 0.97050 -0.03100
C 	C 	0.34317 0.27250 0.97130 0.08400
C 	C 	0.43159 0.15035 0.92467 -0.17000
C 	C 	0.40649 0.15941 0.90458 0.08300
C 	C 	0.38850 0.13611 0.88879 -0.03000
C 	C 	0.39561 0.10376 0.89310 0.02600
C 	C 	0.42070 0.09471 0.91320 -0.03000
C 	C 	0.43869 0.11800 0.92899 0.08300
C 	C 	0.44702 0.17510 0.94440 0.51200
C 	C 	0.24340 0.29980 0.97500 0.00700
C 	C 	0.13700 0.97310 0.91580 0.11600
C 	C 	0.25860 0.02290 0.84810 -0.00000
O 	O 	0.08020 0.97560 0.94810 -0.60000
C 	C 	0.16940 0.97010 0.90190 -0.03200
C 	C 	0.21030 0.30410 0.97610 -0.00300
C 	C 	0.22710 0.02280 0.86190 0.00500
C 	C 	0.37398 0.08125 0.87517 -0.00800
C 	C 	0.38753 0.05674 0.85696 0.00400
C 	C 	0.36833 0.03200 0.84534 -0.00100
C 	C 	0.33558 0.03177 0.85193 0.00100
C 	C 	0.32204 0.05628 0.87013 -0.00000
C 	C 	0.34124 0.08102 0.88175 0.00500
O 	O 	0.44024 0.79568 0.06138 -0.64900
O 	O 	0.40625 0.74779 0.02724 -0.62700
O 	O 	0.46772 0.83535 0.03488 -0.62600
C 	C 	0.31190 0.71820 0.02950 -0.03100
C 	C 	0.34317 0.72750 0.02870 0.08400
C 	C 	0.43159 0.84965 0.07533 -0.17000
C 	C 	0.40649 0.84059 0.09542 0.08300
C 	C 	0.38850 0.86389 0.11121 -0.03000
C 	C 	0.39561 0.89624 0.10690 0.02600
C 	C 	0.42070 0.90529 0.08680 -0.03000
C 	C 	0.43869 0.88200 0.07101 0.08300
C 	C 	0.44702 0.82490 0.05560 0.51200
C 	C 	0.24340 0.70020 0.02500 0.00700
C 	C 	0.13700 0.02690 0.08420 0.11600
C 	C 	0.25860 0.97710 0.15190 -0.00000
O 	O 	0.08020 0.02440 0.05190 -0.60000
C 	C 	0.16940 0.02990 0.09810 -0.03200
C 	C 	0.21030 0.69590 0.02390 -0.00200
C 	C 	0.22710 0.97720 0.13810 0.00500
C 	C 	0.37398 0.91875 0.12483 -0.00800
C 	C 	0.38753 0.94326 0.14304 0.00400
C 	C 	0.36833 0.96800 0.15466 -0.00100
C 	C 	0.33558 0.96823 0.14807 0.00100
C 	C 	0.32204 0.94372 0.12987 -0.00000
C 	C 	0.34124 0.91898 0.11825 0.00500
O 	O 	0.55976 0.20432 0.06138 -0.64900
O 	O 	0.59375 0.25221 0.02724 -0.62700
O 	O 	0.53228 0.16465 0.03488 -0.62600
C 	C 	0.68810 0.28180 0.02950 -0.03100
C 	C 	0.65683 0.27250 0.02870 0.08400
C 	C 	0.56841 0.15035 0.07533 -0.17000
C 	C 	0.59351 0.15941 0.09542 0.08300
C 	C 	0.61150 0.13611 0.11121 -0.03000
C 	C 	0.60439 0.10376 0.10690 0.02600
C 	C 	0.57930 0.09471 0.08680 -0.03000
C 	C 	0.56131 0.11800 0.07101 0.08300
C 	C 	0.55298 0.17510 0.05560 0.51200
C 	C 	0.75660 0.29980 0.02500 0.00700
C 	C 	0.86300 0.97310 0.08420 0.11600
C 	C 	0.74140 0.02290 0.15190 -0.00000
O 	O 	0.91980 0.97560 0.05190 -0.60000
C 	C 	0.83060 0.97010 0.09810 -0.03200
C 	C 	0.78970 0.30410 0.02390 -0.00200
C 	C 	0.77290 0.02280 0.13810 0.00500
C 	C 	0.62602 0.08125 0.12483 -0.00800
C 	C 	0.61247 0.05674 0.14304 0.00400
C 	C 	0.63167 0.03200 0.15466 -0.00100
C 	C 	0.66442 0.03177 0.14807 0.00100
C 	C 	0.67796 0.05628 0.12987 -0.00000
C 	C 	0.65876 0.08102 0.11825 0.00500
O 	O 	0.55976 0.79568 0.93862 -0.64900
O 	O 	0.59375 0.74779 0.97276 -0.62700
O 	O 	0.53228 0.83535 0.96512 -0.62600
C 	C 	0.68810 0.71820 0.97050 -0.03100
C 	C 	0.65683 0.72750 0.97130 0.08400
C 	C 	0.56841 0.84965 0.92467 -0.17000
C 	C 	0.59351 0.84059 0.90458 0.08300
C 	C 	0.61150 0.86389 0.88879 -0.03000
C 	C 	0.60439 0.89624 0.89310 0.02600
C 	C 	0.57930 0.90529 0.91320 -0.03000
C 	C 	0.56131 0.88200 0.92899 0.08300
C 	C 	0.55298 0.82490 0.94440 0.51200
C 	C 	0.75660 0.70020 0.97500 0.00700
C 	C 	0.86300 0.02690 0.91580 0.11600
C 	C 	0.74140 0.97710 0.84810 -0.00000
O 	O 	0.91980 0.02440 0.94810 -0.60000
C 	C 	0.83060 0.02990 0.90190 -0.03200
C 	C 	0.78970 0.69590 0.97610 -0.00300
C 	C 	0.77290 0.97720 0.86190 0.00500
C 	C 	0.62602 0.91875 0.87517 -0.00800
C 	C 	0.61247 0.94326 0.85696 0.00400
C 	C 	0.63167 0.96800 0.84534 -0.00100
C 	C 	0.66442 0.96823 0.85193 0.00100
C 	C 	0.67796 0.94372 0.87013 -0.00000
C 	C 	0.65876 0.91898 0.88175 0.00500
Zr	Zr	0.45797 0.25000 0.04203 3.21700
Zr	Zr	0.54203 0.75000 0.04203 3.21700
Zr	Zr	0.54203 0.25000 0.95797 3.21700
Zr	Zr	0.45797 0.75000 0.95797 3.21700
Zr	Zr	0.04203 0.45797 0.25000 3.21700
Zr	Zr	0.04203 0.54203 0.75000 3.21700
Zr	Zr	0.95797 0.54203 0.25000 3.21700
Zr	Zr	0.95797 0.45797 0.75000 3.21700
Zr	Zr	0.25000 0.04203 0.45797 3.21700
Zr	Zr	0.75000 0.04203 0.54203 3.21700
Zr	Zr	0.25000 0.95797 0.54203 3.21700
Zr	Zr	0.75000 0.95797 0.45797 3.21700
Zr	Zr	0.54203 0.75000 0.95797 3.21700
Zr	Zr	0.45797 0.25000 0.95797 3.21700
Zr	Zr	0.45797 0.75000 0.04203 3.21700
Zr	Zr	0.54203 0.25000 0.04203 3.21700
Zr	Zr	0.95797 0.54203 0.75000 3.21700
Zr	Zr	0.95797 0.45797 0.25000 3.21700
Zr	Zr	0.04203 0.45797 0.75000 3.21700
Zr	Zr	0.04203 0.54203 0.25000 3.21700
Zr	Zr	0.75000 0.95797 0.54203 3.21700
Zr	Zr	0.25000 0.95797 0.45797 3.21700
Zr	Zr	0.75000 0.04203 0.45797 3.21700
Zr	Zr	0.25000 0.04203 0.54203 3.21700
Zr	Zr	0.50000 0.30968 -0.00000 3.21200
Zr	Zr	0.50000 0.69032 -0.00000 3.21200
Zr	Zr	0.00000 0.50000 0.30968 3.21200
Zr	Zr	0.00000 0.50000 0.69032 3.21200
Zr	Zr	0.30968 0.00000 0.50000 3.21200
Zr	Zr	0.69032 0.00000 0.50000 3.21200
Zr	Zr	0.80968 0.00000 0.50000 3.21200
Zr	Zr	0.19032 0.00000 0.50000 3.21200
Zr	Zr	0.00000 0.50000 0.19032 3.21200
Zr	Zr	0.00000 0.50000 0.80968 3.21200
Zr	Zr	0.50000 0.80968 -0.00000 3.21200
Zr	Zr	0.50000 0.19032 -0.00000 3.21200
O 	O 	0.50000 0.28309 0.95308 -1.03700
C 	C 	0.50000 0.23200 0.14040 -0.16600
C 	C 	0.50000 0.20490 0.23890 -0.01100
C 	C 	0.50000 0.24400 0.10660 0.51900
C 	C 	0.50000 0.21360 0.20520 0.02700
C 	C 	0.50000 0.18980 0.30560 0.00300
O 	O 	0.50000 0.71691 0.95308 -1.03700
C 	C 	0.50000 0.76800 0.14040 -0.16600
C 	C 	0.50000 0.79510 0.23890 -0.01100
C 	C 	0.50000 0.75600 0.10660 0.51900
C 	C 	0.50000 0.78640 0.20520 0.02700
C 	C 	0.50000 0.81020 0.30560 0.00300
O 	O 	0.50000 0.28309 0.04692 -1.03700
C 	C 	0.50000 0.23200 0.85960 -0.16600
C 	C 	0.50000 0.20490 0.76110 -0.01100
C 	C 	0.50000 0.24400 0.89340 0.51900
C 	C 	0.50000 0.21360 0.79480 0.02700
C 	C 	0.50000 0.18980 0.69440 0.00300
O 	O 	0.50000 0.71691 0.04692 -1.03700
C 	C 	0.50000 0.76800 0.85960 -0.16600
C 	C 	0.50000 0.79510 0.76110 -0.01100
C 	C 	0.50000 0.75600 0.89340 0.51900
C 	C 	0.50000 0.78640 0.79480 0.02700
C 	C 	0.50000 0.81020 0.69440 0.00300
O 	O 	0.95308 0.50000 0.28309 -1.03700
C 	C 	0.14040 0.50000 0.23200 -0.16600
C 	C 	0.23890 0.50000 0.20490 -0.01100
C 	C 	0.10660 0.50000 0.24400 0.51900
C 	C 	0.20520 0.50000 0.21360 0.02700
C 	C 	0.30560 0.50000 0.18980 0.00300
O 	O 	0.95308 0.50000 0.71691 -1.03700
C 	C 	0.14040 0.50000 0.76800 -0.16600
C 	C 	0.23890 0.50000 0.79510 -0.01100
C 	C 	0.10660 0.50000 0.75600 0.51900
C 	C 	0.20520 0.50000 0.78640 0.02700
C 	C 	0.30560 0.50000 0.81020 0.00300
O 	O 	0.04692 0.50000 0.28309 -1.03700
C 	C 	0.85960 0.50000 0.23200 -0.16600
C 	C 	0.76110 0.50000 0.20490 -0.01100
C 	C 	0.89340 0.50000 0.24400 0.51900
C 	C 	0.79480 0.50000 0.21360 0.02700
C 	C 	0.69440 0.50000 0.18980 0.00300
O 	O 	0.04692 0.50000 0.71691 -1.03700
C 	C 	0.85960 0.50000 0.76800 -0.16600
C 	C 	0.76110 0.50000 0.79510 -0.01100
C 	C 	0.89340 0.50000 0.75600 0.51900
C 	C 	0.79480 0.50000 0.78640 0.02700
C 	C 	0.69440 0.50000 0.81020 0.00300
O 	O 	0.28309 0.95308 0.50000 -1.03700
C 	C 	0.23200 0.14040 0.50000 -0.16600
C 	C 	0.20490 0.23890 0.50000 -0.01100
C 	C 	0.24400 0.10660 0.50000 0.51900
C 	C 	0.21360 0.20520 0.50000 0.02700
C 	C 	0.18980 0.30560 0.50000 0.00300
O 	O 	0.71691 0.95308 0.50000 -1.03700
C 	C 	0.76800 0.14040 0.50000 -0.16600
C 	C 	0.79510 0.23890 0.50000 -0.01100
C 	C 	0.75600 0.10660 0.50000 0.51900
C 	C 	0.78640 0.20520 0.50000 0.02700
C 	C 	0.81020 0.30560 0.50000 0.00300
O 	O 	0.28309 0.04692 0.50000 -1.03700
C 	C 	0.23200 0.85960 0.50000 -0.16600
C 	C 	0.20490 0.76110 0.50000 -0.01100
C 	C 	0.24400 0.89340 0.50000 0.51900
C 	C 	0.21360 0.79480 0.50000 0.02700
C 	C 	0.18980 0.69440 0.50000 0.00300
O 	O 	0.71691 0.04692 0.50000 -1.03700
C 	C 	0.76800 0.85960 0.50000 -0.16600
C 	C 	0.79510 0.76110 0.50000 -0.01100
C 	C 	0.75600 0.89340 0.50000 0.51900
C 	C 	0.78640 0.79480 0.50000 0.02700
C 	C 	0.81020 0.69440 0.50000 0.00300
O 	O 	0.78309 0.00000 0.54692 -1.03700
C 	C 	0.73200 0.00000 0.35960 -0.16600
C 	C 	0.70490 0.00000 0.26110 -0.01100
C 	C 	0.74400 0.00000 0.39340 0.51900
C 	C 	0.71360 0.00000 0.29480 0.02700
C 	C 	0.68980 0.00000 0.19440 0.00300
O 	O 	0.21691 0.00000 0.54692 -1.03700
C 	C 	0.26800 0.00000 0.35960 -0.16600
C 	C 	0.29510 0.00000 0.26110 -0.01100
C 	C 	0.25600 0.00000 0.39340 0.51900
C 	C 	0.28640 0.00000 0.29480 0.02700
C 	C 	0.31020 0.00000 0.19440 0.00300
O 	O 	0.78309 0.00000 0.45308 -1.03700
C 	C 	0.73200 0.00000 0.64040 -0.16600
C 	C 	0.70490 0.00000 0.73890 -0.01100
C 	C 	0.74400 0.00000 0.60660 0.51900
C 	C 	0.71360 0.00000 0.70520 0.02700
C 	C 	0.68980 0.00000 0.80560 0.00300
O 	O 	0.21691 0.00000 0.45308 -1.03700
C 	C 	0.26800 0.00000 0.64040 -0.16600
C 	C 	0.29510 0.00000 0.73890 -0.01100
C 	C 	0.25600 0.00000 0.60660 0.51900
C 	C 	0.28640 0.00000 0.70520 0.02700
C 	C 	0.31020 0.00000 0.80560 0.00300
O 	O 	0.00000 0.45308 0.21691 -1.03700
C 	C 	0.00000 0.64040 0.26800 -0.16600
C 	C 	0.00000 0.73890 0.29510 -0.01100
C 	C 	0.00000 0.60660 0.25600 0.51900
C 	C 	0.00000 0.70520 0.28640 0.02700
C 	C 	0.00000 0.80560 0.31020 0.00300
O 	O 	0.00000 0.45308 0.78309 -1.03700
C 	C 	0.00000 0.64040 0.73200 -0.16600
C 	C 	0.00000 0.73890 0.70490 -0.01100
C 	C 	0.00000 0.60660 0.74400 0.51900
C 	C 	0.00000 0.70520 0.71360 0.02700
C 	C 	0.00000 0.80560 0.68980 0.00300
O 	O 	0.00000 0.54692 0.21691 -1.03700
C 	C 	0.00000 0.35960 0.26800 -0.16600
C 	C 	0.00000 0.26110 0.29510 -0.01100
C 	C 	0.00000 0.39340 0.25600 0.51900
C 	C 	0.00000 0.29480 0.28640 0.02700
C 	C 	0.00000 0.19440 0.31020 0.00300
O 	O 	0.00000 0.54692 0.78309 -1.03700
C 	C 	0.00000 0.35960 0.73200 -0.16600
C 	C 	-0.00000 0.26110 0.70490 -0.01100
C 	C 	-0.00000 0.39340 0.74400 0.51900
C 	C 	0.00000 0.29480 0.71360 0.02700
C 	C 	0.00000 0.19440 0.68980 0.00300
O 	O 	0.45308 0.78309 -0.00000 -1.03700
C 	C 	0.64040 0.73200 -0.00000 -0.16600
C 	C 	0.73890 0.70490 -0.00000 -0.01100
C 	C 	0.60660 0.74400 -0.00000 0.51900
C 	C 	0.70520 0.71360 -0.00000 0.02700
C 	C 	0.80560 0.68980 -0.00000 0.00300
O 	O 	0.45308 0.21691 -0.00000 -1.03700
C 	C 	0.64040 0.26800 -0.00000 -0.16600
C 	C 	0.73890 0.29510 -0.00000 -0.01100
C 	C 	0.60660 0.25600 -0.00000 0.51900
C 	C 	0.70520 0.28640 -0.00000 0.02700
C 	C 	0.80560 0.31020 -0.00000 0.00300
O 	O 	0.54692 0.78309 -0.00000 -1.03700
C 	C 	0.35960 0.73200 -0.00000 -0.16600
C 	C 	0.26110 0.70490 -0.00000 -0.01100
C 	C 	0.39340 0.74400 -0.00000 0.51900
C 	C 	0.29480 0.71360 -0.00000 0.02700
C 	C 	0.19440 0.68980 -0.00000 0.00300
O 	O 	0.54692 0.21691 -0.00000 -1.03700
C 	C 	0.35960 0.26800 -0.00000 -0.16600
C 	C 	0.26110 0.29510 -0.00000 -0.01100
C 	C 	0.39340 0.25600 -0.00000 0.51900
C 	C 	0.29480 0.28640 -0.00000 0.02700
C 	C 	0.19440 0.31020 -0.00000 0.00300
O 	O 	0.46414 0.27510 -0.00000 -1.41400
O 	O 	0.53586 0.72490 -0.00000 -1.41400
O 	O 	0.53586 0.27510 -0.00000 -1.41400
O 	O 	0.46414 0.72490 -0.00000 -1.41400
O 	O 	0.00000 0.46414 0.27510 -1.41400
O 	O 	0.00000 0.53586 0.72490 -1.41400
O 	O 	0.00000 0.53586 0.27510 -1.41400
O 	O 	0.00000 0.46414 0.72490 -1.41400
O 	O 	0.27510 0.00000 0.46414 -1.41400
O 	O 	0.72490 0.00000 0.53586 -1.41400
O 	O 	0.27510 0.00000 0.53586 -1.41400
O 	O 	0.72490 0.00000 0.46414 -1.41400
O 	O 	0.77510 0.96414 0.50000 -1.41500
O 	O 	0.22490 0.03586 0.50000 -1.41400
O 	O 	0.77510 0.03586 0.50000 -1.41400
O 	O 	0.22490 0.96414 0.50000 -1.41500
O 	O 	0.96414 0.50000 0.22490 -1.41500
O 	O 	0.03586 0.50000 0.77510 -1.41400
O 	O 	0.03586 0.50000 0.22490 -1.41400
O 	O 	0.96414 0.50000 0.77510 -1.41500
O 	O 	0.50000 0.77510 0.03586 -1.41400
O 	O 	0.50000 0.22490 0.96414 -1.41500
O 	O 	0.50000 0.77510 0.96414 -1.41500
O 	O 	0.50000 0.22490 0.03586 -1.41400
C 	C 	0.34190 0.50000 0.18460 -0.00100
C 	C 	0.35710 0.50000 0.21870 0.00200
C 	C 	0.39660 0.50000 0.31400 0.02700
C 	C 	0.38280 0.50000 0.28080 -0.00700
C 	C 	0.42310 0.50000 0.37610 -0.20700
C 	C 	0.43710 0.50000 0.41130 0.68900
O 	O 	0.45001 0.50000 0.46812 -1.71300
C 	C 	0.65810 0.50000 0.18460 -0.00100
C 	C 	0.64290 0.50000 0.21870 0.00200
C 	C 	0.60340 0.50000 0.31400 0.02700
C 	C 	0.61720 0.50000 0.28080 -0.00700
C 	C 	0.57690 0.50000 0.37610 -0.20700
C 	C 	0.56290 0.50000 0.41130 0.68900
O 	O 	0.54999 0.50000 0.46812 -1.71300
C 	C 	0.65810 0.50000 0.81540 -0.00100
C 	C 	0.64290 0.50000 0.78130 0.00200
C 	C 	0.60340 0.50000 0.68600 0.02700
C 	C 	0.61720 0.50000 0.71920 -0.00700
C 	C 	0.57690 0.50000 0.62390 -0.20700
C 	C 	0.56290 0.50000 0.58870 0.68900
O 	O 	0.54999 0.50000 0.53188 -1.71300
C 	C 	0.34190 0.50000 0.81540 -0.00100
C 	C 	0.35710 0.50000 0.78130 0.00200
C 	C 	0.39660 0.50000 0.68600 0.02700
C 	C 	0.38280 0.50000 0.71920 -0.00700
C 	C 	0.42310 0.50000 0.62390 -0.20700
C 	C 	0.43710 0.50000 0.58870 0.68900
O 	O 	0.45001 0.50000 0.53188 -1.71300
C 	C 	0.18460 0.34190 0.50000 -0.00100
C 	C 	0.21870 0.35710 0.50000 0.00200
C 	C 	0.31400 0.39660 0.50000 0.02700
C 	C 	0.28080 0.38280 0.50000 -0.00700
C 	C 	0.37610 0.42310 0.50000 -0.20700
C 	C 	0.41130 0.43710 0.50000 0.68900
O 	O 	0.46812 0.45001 0.50000 -1.71300
C 	C 	0.18460 0.65810 0.50000 -0.00100
C 	C 	0.21870 0.64290 0.50000 0.00200
C 	C 	0.31400 0.60340 0.50000 0.02700
C 	C 	0.28080 0.61720 0.50000 -0.00700
C 	C 	0.37610 0.57690 0.50000 -0.20700
C 	C 	0.41130 0.56290 0.50000 0.68900
O 	O 	0.46812 0.54999 0.50000 -1.71300
C 	C 	0.81540 0.65810 0.50000 -0.00100
C 	C 	0.78130 0.64290 0.50000 0.00200
C 	C 	0.68600 0.60340 0.50000 0.02700
C 	C 	0.71920 0.61720 0.50000 -0.00700
C 	C 	0.62390 0.57690 0.50000 -0.20700
C 	C 	0.58870 0.56290 0.50000 0.68900
O 	O 	0.53188 0.54999 0.50000 -1.71300
C 	C 	0.81540 0.34190 0.50000 -0.00100
C 	C 	0.78130 0.35710 0.50000 0.00200
C 	C 	0.68600 0.39660 0.50000 0.02700
C 	C 	0.71920 0.38280 0.50000 -0.00700
C 	C 	0.62390 0.42310 0.50000 -0.20700
C 	C 	0.58870 0.43710 0.50000 0.68900
O 	O 	0.53188 0.45001 0.50000 -1.71300
C 	C 	0.50000 0.18460 0.34190 -0.00100
C 	C 	0.50000 0.21870 0.35710 0.00200
C 	C 	0.50000 0.31400 0.39660 0.02700
C 	C 	0.50000 0.28080 0.38280 -0.00700
C 	C 	0.50000 0.37610 0.42310 -0.20700
C 	C 	0.50000 0.41130 0.43710 0.68900
O 	O 	0.50000 0.46812 0.45001 -1.71300
C 	C 	0.50000 0.18460 0.65810 -0.00100
C 	C 	0.50000 0.21870 0.64290 0.00200
C 	C 	0.50000 0.31400 0.60340 0.02700
C 	C 	0.50000 0.28080 0.61720 -0.00700
C 	C 	0.50000 0.37610 0.57690 -0.20700
C 	C 	0.50000 0.41130 0.56290 0.68900
O 	O 	0.50000 0.46812 0.54999 -1.71300
C 	C 	0.50000 0.81540 0.65810 -0.00100
C 	C 	0.50000 0.78130 0.64290 0.00200
C 	C 	0.50000 0.68600 0.60340 0.02700
C 	C 	0.50000 0.71920 0.61720 -0.00700
C 	C 	0.50000 0.62390 0.57690 -0.20700
C 	C 	0.50000 0.58870 0.56290 0.68900
O 	O 	0.50000 0.53188 0.54999 -1.71300
C 	C 	0.50000 0.81540 0.34190 -0.00100
C 	C 	0.50000 0.78130 0.35710 0.00200
C 	C 	0.50000 0.68600 0.39660 0.02700
C 	C 	0.50000 0.71920 0.38280 -0.00700
C 	C 	0.50000 0.62390 0.42310 -0.20700
C 	C 	0.50000 0.58870 0.43710 0.68900
O 	O 	0.50000 0.53188 0.45001 -1.71300
C 	C 	0.00000 0.84190 0.31540 -0.00100
C 	C 	0.00000 0.85710 0.28130 0.00200
C 	C 	0.00000 0.89660 0.18600 0.02700
C 	C 	0.00000 0.88280 0.21920 -0.00700
C 	C 	0.00000 0.92310 0.12390 -0.20700
C 	C 	0.00000 0.93710 0.08870 0.68900
O 	O 	0.00000 0.95001 0.03188 -1.71300
C 	C 	-0.00000 0.15810 0.31540 -0.00100
C 	C 	0.00000 0.14290 0.28130 0.00200
C 	C 	0.00000 0.10340 0.18600 0.02700
C 	C 	0.00000 0.11720 0.21920 -0.00600
C 	C 	0.00000 0.07690 0.12390 -0.20700
C 	C 	0.00000 0.06290 0.08870 0.68900
O 	O 	0.00000 0.04999 0.03188 -1.71300
C 	C 	0.00000 0.15810 0.68460 -0.00100
C 	C 	0.00000 0.14290 0.71870 0.00200
C 	C 	0.00000 0.10340 0.81400 0.02700
C 	C 	0.00000 0.11720 0.78080 -0.00600
C 	C 	-0.00000 0.07690 0.87610 -0.20700
C 	C 	0.00000 0.06290 0.91130 0.68900
O 	O 	0.00000 0.04999 0.96812 -1.71300
C 	C 	0.00000 0.84190 0.68460 -0.00100
C 	C 	0.00000 0.85710 0.71870 0.00200
C 	C 	-0.00000 0.89660 0.81400 0.02700
C 	C 	0.00000 0.88280 0.78080 -0.00700
C 	C 	0.00000 0.92310 0.87610 -0.20700
C 	C 	0.00000 0.93710 0.91130 0.68900
O 	O 	0.00000 0.95001 0.96812 -1.71300
C 	C 	0.84190 0.68460 -0.00000 -0.00100
C 	C 	0.85710 0.71870 -0.00000 0.00200
C 	C 	0.89660 0.81400 -0.00000 0.02700
C 	C 	0.88280 0.78080 -0.00000 -0.00700
C 	C 	0.92310 0.87610 -0.00000 -0.20700
C 	C 	0.93710 0.91130 -0.00000 0.68900
O 	O 	0.95001 0.96812 -0.00000 -1.71300
C 	C 	0.15810 0.68460 -0.00000 -0.00100
C 	C 	0.14290 0.71870 -0.00000 0.00200
C 	C 	0.10340 0.81400 -0.00000 0.02700
C 	C 	0.11720 0.78080 -0.00000 -0.00600
C 	C 	0.07690 0.87610 -0.00000 -0.20700
C 	C 	0.06290 0.91130 -0.00000 0.68900
O 	O 	0.04999 0.96812 -0.00000 -1.71300
C 	C 	0.15810 0.31540 -0.00000 -0.00100
C 	C 	0.14290 0.28130 -0.00000 0.00200
C 	C 	0.10340 0.18600 -0.00000 0.02700
C 	C 	0.11720 0.21920 -0.00000 -0.00600
C 	C 	0.07690 0.12390 -0.00000 -0.20700
C 	C 	0.06290 0.08870 -0.00000 0.68900
O 	O 	0.04999 0.03188 -0.00000 -1.71300
C 	C 	0.84190 0.31540 -0.00000 -0.00100
C 	C 	0.85710 0.28130 -0.00000 0.00200
C 	C 	0.89660 0.18600 -0.00000 0.02700
C 	C 	0.88280 0.21920 -0.00000 -0.00700
C 	C 	0.92310 0.12390 -0.00000 -0.20700
C 	C 	0.93710 0.08870 -0.00000 0.68900
O 	O 	0.95001 0.03188 -0.00000 -1.71300
C 	C 	0.68460 0.00000 0.15810 -0.00100
C 	C 	0.71870 0.00000 0.14290 0.00200
C 	C 	0.81400 0.00000 0.10340 0.02700
C 	C 	0.78080 0.00000 0.11720 -0.00600
C 	C 	0.87610 0.00000 0.07690 -0.20700
C 	C 	0.91130 0.00000 0.06290 0.68900
O 	O 	0.96812 0.00000 0.04999 -1.71300
C 	C 	0.68460 0.00000 0.84190 -0.00100
C 	C 	0.71870 0.00000 0.85710 0.00200
C 	C 	0.81400 0.00000 0.89660 0.02700
C 	C 	0.78080 0.00000 0.88280 -0.00700
C 	C 	0.87610 0.00000 0.92310 -0.20700
C 	C 	0.91130 0.00000 0.93710 0.68900
O 	O 	0.96812 0.00000 0.95001 -1.71300
C 	C 	0.31540 0.00000 0.84190 -0.00100
C 	C 	0.28130 0.00000 0.85710 0.00200
C 	C 	0.18600 0.00000 0.89660 0.02700
C 	C 	0.21920 0.00000 0.88280 -0.00700
C 	C 	0.12390 0.00000 0.92310 -0.20700
C 	C 	0.08870 0.00000 0.93710 0.68900
O 	O 	0.03188 0.00000 0.95001 -1.71300
C 	C 	0.31540 0.00000 0.15810 -0.00100
C 	C 	0.28130 0.00000 0.14290 0.00200
C 	C 	0.18600 0.00000 0.10340 0.02700
C 	C 	0.21920 0.00000 0.11720 -0.00600
C 	C 	0.12390 0.00000 0.07690 -0.20700
C 	C 	0.08870 0.00000 0.06290 0.68900
O 	O 	0.03188 0.00000 0.04999 -1.71300
Zr	Zr	0.46634 0.53366 0.46634 3.33900
Zr	Zr	0.53366 0.46634 0.46634 3.33900
Zr	Zr	0.53366 0.53366 0.53366 3.33900
Zr	Zr	0.46634 0.46634 0.53366 3.33900
Zr	Zr	0.03366 0.96634 0.03366 3.33800
Zr	Zr	0.96634 0.03366 0.03366 3.33800
Zr	Zr	0.03366 0.03366 0.96634 3.33800
Zr	Zr	0.96634 0.96634 0.96634 3.33800
Zr	Zr	0.53366 0.46634 0.53366 3.33900
Zr	Zr	0.46634 0.53366 0.53366 3.33900
Zr	Zr	0.46634 0.46634 0.46634 3.33900
Zr	Zr	0.53366 0.53366 0.46634 3.33900
Zr	Zr	0.96634 0.03366 0.96634 3.33800
Zr	Zr	0.03366 0.96634 0.96634 3.33800
Zr	Zr	0.96634 0.96634 0.03366 3.33800
Zr	Zr	0.03366 0.03366 0.03366 3.33900
