data_crystal

_cell_length_a 37.72600
_cell_length_b 37.72600
_cell_length_c 37.72600
_cell_angle_alpha 90.00000
_cell_angle_beta  90.00000
_cell_angle_gamma 90.00000

_symmetry_space_group_name_	'P 1'
_symmetry_space_group_name_H-M	'P 1'

loop_
_symmetry_equiv_pos_as_xyz
  x,y,z

loop_
_atom_site_label
_atom_site_type_symbol
_atom_site_fract_x
_atom_site_fract_y
_atom_site_fract_z
_atom_site_charge
C 	C 	0.35731 0.19494 0.33185 -0.00100
C 	C 	0.38382 0.22484 0.33887 0.00000
C 	C 	0.43700 0.31480 0.38500 0.00800
C 	C 	0.41850 0.28400 0.36710 -0.00400
C 	C 	0.42840 0.26800 0.33780 0.00200
C 	C 	0.47290 0.31950 0.38130 -0.02000
C 	C 	0.48980 0.34220 0.40000 0.04900
C 	C 	0.41260 0.24020 0.32550 -0.00200
O 	O 	0.52410 0.39880 0.43320 -0.35800
C 	C 	0.49470 0.38860 0.43700 0.09300
C 	C 	0.47510 0.36810 0.42100 -0.08000
C 	C 	0.38650 0.25290 0.30720 -0.00100
C 	C 	0.42240 0.20950 0.34310 0.00000
C 	C 	0.35190 0.29710 0.26890 -0.00100
C 	C 	0.42440 0.18050 0.37280 -0.00100
C 	C 	0.35731 0.69494 0.83185 -0.00100
C 	C 	0.38382 0.72484 0.83887 0.00000
C 	C 	0.43700 0.81480 0.88500 0.00900
C 	C 	0.41850 0.78400 0.86710 -0.00500
C 	C 	0.42840 0.76800 0.83780 0.00300
C 	C 	0.47290 0.81950 0.88130 -0.01900
C 	C 	0.48980 0.84220 0.90000 0.05100
C 	C 	0.41260 0.74020 0.82550 -0.00200
O 	O 	0.52410 0.89880 0.93320 -0.35700
C 	C 	0.49470 0.88860 0.93700 0.09600
C 	C 	0.47510 0.86810 0.92100 -0.08200
C 	C 	0.38650 0.75290 0.80720 -0.00100
C 	C 	0.42240 0.70950 0.84310 0.00000
C 	C 	0.35190 0.79710 0.76890 -0.00100
C 	C 	0.42440 0.68050 0.87280 0.00100
C 	C 	0.85731 0.19494 0.83185 -0.00100
C 	C 	0.88382 0.22484 0.83887 -0.00100
C 	C 	0.93700 0.31480 0.88500 0.01000
C 	C 	0.91850 0.28400 0.86710 -0.00500
C 	C 	0.92840 0.26800 0.83780 0.00400
C 	C 	0.97290 0.31950 0.88130 -0.01900
C 	C 	0.98980 0.34220 0.90000 0.05900
C 	C 	0.91260 0.24020 0.82550 -0.00200
O 	O 	0.02410 0.39880 0.93320 -0.37000
C 	C 	0.99470 0.38860 0.93700 0.11600
C 	C 	0.97510 0.36810 0.92100 -0.09000
C 	C 	0.88650 0.25290 0.80720 0.00100
C 	C 	0.92240 0.20950 0.84310 0.00200
C 	C 	0.85190 0.29710 0.76890 -0.00000
C 	C 	0.92440 0.18050 0.87280 0.00300
C 	C 	0.85731 0.69494 0.33185 -0.00000
C 	C 	0.88382 0.72484 0.33887 0.00000
C 	C 	0.93700 0.81480 0.38500 0.01000
C 	C 	0.91850 0.78400 0.36710 -0.00400
C 	C 	0.92840 0.76800 0.33780 0.00400
C 	C 	0.97290 0.81950 0.38130 -0.01900
C 	C 	0.98980 0.84220 0.40000 0.05800
C 	C 	0.91260 0.74020 0.32550 -0.00200
O 	O 	0.02410 0.89880 0.43320 -0.37000
C 	C 	0.99470 0.88860 0.43700 0.11400
C 	C 	0.97510 0.86810 0.42100 -0.08800
C 	C 	0.88650 0.75290 0.30720 0.00100
C 	C 	0.92240 0.70950 0.34310 0.00100
C 	C 	0.85190 0.79710 0.26890 -0.00000
C 	C 	0.92440 0.68050 0.37280 0.00200
C 	C 	0.64269 0.80506 0.33185 -0.00000
C 	C 	0.61618 0.77516 0.33887 0.00100
C 	C 	0.56300 0.68520 0.38500 0.00900
C 	C 	0.58150 0.71600 0.36710 -0.00300
C 	C 	0.57160 0.73200 0.33780 0.00300
C 	C 	0.52710 0.68050 0.38130 -0.01800
C 	C 	0.51020 0.65780 0.40000 0.05000
C 	C 	0.58740 0.75980 0.32550 -0.00100
O 	O 	0.47590 0.60120 0.43320 -0.35700
C 	C 	0.50530 0.61140 0.43700 0.09400
C 	C 	0.52490 0.63190 0.42100 -0.07900
C 	C 	0.61350 0.74710 0.30720 0.00000
C 	C 	0.57760 0.79050 0.34310 0.00100
C 	C 	0.64810 0.70290 0.26890 -0.00000
C 	C 	0.57560 0.81950 0.37280 0.00100
C 	C 	0.64269 0.30506 0.83185 -0.00000
C 	C 	0.61618 0.27516 0.83887 0.00100
C 	C 	0.56300 0.18520 0.88500 0.01000
C 	C 	0.58150 0.21600 0.86710 -0.00400
C 	C 	0.57160 0.23200 0.83780 0.00300
C 	C 	0.52710 0.18050 0.88130 -0.01900
C 	C 	0.51020 0.15780 0.90000 0.05200
C 	C 	0.58740 0.25980 0.82550 -0.00100
O 	O 	0.47590 0.10120 0.93320 -0.35700
C 	C 	0.50530 0.11140 0.93700 0.09700
C 	C 	0.52490 0.13190 0.92100 -0.08000
C 	C 	0.61350 0.24710 0.80720 0.00000
C 	C 	0.57760 0.29050 0.84310 0.00100
C 	C 	0.64810 0.20290 0.76890 -0.00000
C 	C 	0.57560 0.31950 0.87280 0.00200
C 	C 	0.14269 0.80506 0.83185 -0.00000
C 	C 	0.11618 0.77516 0.83887 0.00100
C 	C 	0.06300 0.68520 0.88500 0.00800
C 	C 	0.08150 0.71600 0.86710 -0.00300
C 	C 	0.07160 0.73200 0.83780 0.00200
C 	C 	0.02710 0.68050 0.88130 -0.01700
C 	C 	0.01020 0.65780 0.90000 0.04500
C 	C 	0.08740 0.75980 0.82550 -0.00100
O 	O 	0.97590 0.60120 0.93320 -0.34300
C 	C 	0.00530 0.61140 0.93700 0.07900
C 	C 	0.02490 0.63190 0.92100 -0.07200
C 	C 	0.11350 0.74710 0.80720 0.00000
C 	C 	0.07760 0.79050 0.84310 0.00000
C 	C 	0.14810 0.70290 0.76890 -0.00000
C 	C 	0.07560 0.81950 0.87280 0.00100
C 	C 	0.14269 0.30506 0.33185 -0.00000
C 	C 	0.11618 0.27516 0.33887 0.00100
C 	C 	0.06300 0.18520 0.38500 0.00800
C 	C 	0.08150 0.21600 0.36710 -0.00300
C 	C 	0.07160 0.23200 0.33780 0.00100
C 	C 	0.02710 0.18050 0.38130 -0.01800
C 	C 	0.01020 0.15780 0.40000 0.04200
C 	C 	0.08740 0.25980 0.32550 -0.00100
O 	O 	0.97590 0.10120 0.43320 -0.34400
C 	C 	0.00530 0.11140 0.43700 0.07600
C 	C 	0.02490 0.13190 0.42100 -0.07000
C 	C 	0.11350 0.24710 0.30720 0.00000
C 	C 	0.07760 0.29050 0.34310 -0.00000
C 	C 	0.14810 0.20290 0.26890 0.00000
C 	C 	0.07560 0.31950 0.37280 -0.00100
C 	C 	0.64269 0.19494 0.66815 -0.00000
C 	C 	0.61618 0.22484 0.66113 0.00100
C 	C 	0.56300 0.31480 0.61500 0.00900
C 	C 	0.58150 0.28400 0.63290 -0.00300
C 	C 	0.57160 0.26800 0.66220 0.00300
C 	C 	0.52710 0.31950 0.61870 -0.01900
C 	C 	0.51020 0.34220 0.60000 0.05000
C 	C 	0.58740 0.24020 0.67450 -0.00100
O 	O 	0.47590 0.39880 0.56680 -0.35700
C 	C 	0.50530 0.38860 0.56300 0.09400
C 	C 	0.52490 0.36810 0.57900 -0.07900
C 	C 	0.61350 0.25290 0.69280 0.00000
C 	C 	0.57760 0.20950 0.65690 0.00100
C 	C 	0.64810 0.29710 0.73110 -0.00000
C 	C 	0.57560 0.18050 0.62720 -0.00000
C 	C 	0.64269 0.69494 0.16815 -0.00000
C 	C 	0.61618 0.72484 0.16113 0.00100
C 	C 	0.56300 0.81480 0.11500 0.00800
C 	C 	0.58150 0.78400 0.13290 -0.00300
C 	C 	0.57160 0.76800 0.16220 0.00300
C 	C 	0.52710 0.81950 0.11870 -0.01900
C 	C 	0.51020 0.84220 0.10000 0.04800
C 	C 	0.58740 0.74020 0.17450 -0.00100
O 	O 	0.47590 0.89880 0.06680 -0.35700
C 	C 	0.50530 0.88860 0.06300 0.09200
C 	C 	0.52490 0.86810 0.07900 -0.07800
C 	C 	0.61350 0.75290 0.19280 0.00000
C 	C 	0.57760 0.70950 0.15690 0.00000
C 	C 	0.64810 0.79710 0.23110 -0.00000
C 	C 	0.57560 0.68050 0.12720 -0.00100
C 	C 	0.14269 0.19494 0.16815 -0.00000
C 	C 	0.11618 0.22484 0.16113 0.00100
C 	C 	0.06300 0.31480 0.11500 0.00700
C 	C 	0.08150 0.28400 0.13290 -0.00300
C 	C 	0.07160 0.26800 0.16220 0.00100
C 	C 	0.02710 0.31950 0.11870 -0.01800
C 	C 	0.01020 0.34220 0.10000 0.04100
C 	C 	0.08740 0.24020 0.17450 -0.00100
O 	O 	0.97590 0.39880 0.06680 -0.34400
C 	C 	0.00530 0.38860 0.06300 0.07400
C 	C 	0.02490 0.36810 0.07900 -0.06900
C 	C 	0.11350 0.25290 0.19280 0.00000
C 	C 	0.07760 0.20950 0.15690 -0.00000
C 	C 	0.14810 0.29710 0.23110 0.00000
C 	C 	0.07560 0.18050 0.12720 -0.00300
C 	C 	0.14269 0.69494 0.66815 -0.00000
C 	C 	0.11618 0.72484 0.66113 0.00100
C 	C 	0.06300 0.81480 0.61500 0.00800
C 	C 	0.08150 0.78400 0.63290 -0.00300
C 	C 	0.07160 0.76800 0.66220 0.00200
C 	C 	0.02710 0.81950 0.61870 -0.01700
C 	C 	0.01020 0.84220 0.60000 0.04300
C 	C 	0.08740 0.74020 0.67450 -0.00100
O 	O 	0.97590 0.89880 0.56680 -0.34300
C 	C 	0.00530 0.88860 0.56300 0.07600
C 	C 	0.02490 0.86810 0.57900 -0.07000
C 	C 	0.11350 0.75290 0.69280 0.00000
C 	C 	0.07760 0.70950 0.65690 0.00000
C 	C 	0.14810 0.79710 0.73110 -0.00000
C 	C 	0.07560 0.68050 0.62720 -0.00100
C 	C 	0.35731 0.80506 0.66815 -0.00000
C 	C 	0.38382 0.77516 0.66113 0.00000
C 	C 	0.43700 0.68520 0.61500 0.00900
C 	C 	0.41850 0.71600 0.63290 -0.00300
C 	C 	0.42840 0.73200 0.66220 0.00300
C 	C 	0.47290 0.68050 0.61870 -0.01800
C 	C 	0.48980 0.65780 0.60000 0.05000
C 	C 	0.41260 0.75980 0.67450 -0.00100
O 	O 	0.52410 0.60120 0.56680 -0.35700
C 	C 	0.49470 0.61140 0.56300 0.09400
C 	C 	0.47510 0.63190 0.57900 -0.07900
C 	C 	0.38650 0.74710 0.69280 0.00000
C 	C 	0.42240 0.79050 0.65690 0.00100
C 	C 	0.35190 0.70290 0.73110 -0.00000
C 	C 	0.42440 0.81950 0.62720 0.00100
C 	C 	0.35731 0.30506 0.16815 -0.00000
C 	C 	0.38382 0.27516 0.16113 0.00100
C 	C 	0.43700 0.18520 0.11500 0.00800
C 	C 	0.41850 0.21600 0.13290 -0.00300
C 	C 	0.42840 0.23200 0.16220 0.00200
C 	C 	0.47290 0.18050 0.11870 -0.01900
C 	C 	0.48980 0.15780 0.10000 0.04800
C 	C 	0.41260 0.25980 0.17450 -0.00100
O 	O 	0.52410 0.10120 0.06680 -0.35700
C 	C 	0.49470 0.11140 0.06300 0.09200
C 	C 	0.47510 0.13190 0.07900 -0.07700
C 	C 	0.38650 0.24710 0.19280 0.00000
C 	C 	0.42240 0.29050 0.15690 0.00000
C 	C 	0.35190 0.20290 0.23110 -0.00000
C 	C 	0.42440 0.31950 0.12720 -0.00100
C 	C 	0.85731 0.80506 0.16815 -0.00000
C 	C 	0.88382 0.77516 0.16113 0.00000
C 	C 	0.93700 0.68520 0.11500 0.01000
C 	C 	0.91850 0.71600 0.13290 -0.00400
C 	C 	0.92840 0.73200 0.16220 0.00400
C 	C 	0.97290 0.68050 0.11870 -0.01900
C 	C 	0.98980 0.65780 0.10000 0.05600
C 	C 	0.91260 0.75980 0.17450 -0.00200
O 	O 	0.02410 0.60120 0.06680 -0.37000
C 	C 	0.99470 0.61140 0.06300 0.11200
C 	C 	0.97510 0.63190 0.07900 -0.08700
C 	C 	0.88650 0.74710 0.19280 0.00100
C 	C 	0.92240 0.79050 0.15690 0.00100
C 	C 	0.85190 0.70290 0.23110 -0.00000
C 	C 	0.92440 0.81950 0.12720 0.00200
C 	C 	0.85731 0.30506 0.66815 -0.00000
C 	C 	0.88382 0.27516 0.66113 0.00000
C 	C 	0.93700 0.18520 0.61500 0.01000
C 	C 	0.91850 0.21600 0.63290 -0.00400
C 	C 	0.92840 0.23200 0.66220 0.00400
C 	C 	0.97290 0.18050 0.61870 -0.01900
C 	C 	0.98980 0.15780 0.60000 0.05700
C 	C 	0.91260 0.25980 0.67450 -0.00200
O 	O 	0.02410 0.10120 0.56680 -0.37000
C 	C 	0.99470 0.11140 0.56300 0.11400
C 	C 	0.97510 0.13190 0.57900 -0.08800
C 	C 	0.88650 0.24710 0.69280 0.00100
C 	C 	0.92240 0.29050 0.65690 0.00100
C 	C 	0.85190 0.20290 0.73110 -0.00000
C 	C 	0.92440 0.31950 0.62720 0.00200
C 	C 	0.33185 0.35731 0.19494 -0.00000
C 	C 	0.33887 0.38382 0.22484 0.00100
C 	C 	0.38500 0.43700 0.31480 0.00900
C 	C 	0.36710 0.41850 0.28400 -0.00300
C 	C 	0.33780 0.42840 0.26800 0.00300
C 	C 	0.38130 0.47290 0.31950 -0.01900
C 	C 	0.40000 0.48980 0.34220 0.05000
C 	C 	0.32550 0.41260 0.24020 -0.00100
O 	O 	0.43320 0.52410 0.39880 -0.35700
C 	C 	0.43700 0.49470 0.38860 0.09400
C 	C 	0.42100 0.47510 0.36810 -0.07900
C 	C 	0.30720 0.38650 0.25290 0.00000
C 	C 	0.34310 0.42240 0.20950 0.00100
C 	C 	0.26890 0.35190 0.29710 -0.00000
C 	C 	0.37280 0.42440 0.18050 -0.00000
C 	C 	0.33185 0.85731 0.69494 -0.00000
C 	C 	0.33887 0.88382 0.72484 0.00000
C 	C 	0.38500 0.93700 0.81480 0.01000
C 	C 	0.36710 0.91850 0.78400 -0.00400
C 	C 	0.33780 0.92840 0.76800 0.00400
C 	C 	0.38130 0.97290 0.81950 -0.01900
C 	C 	0.40000 0.98980 0.84220 0.05800
C 	C 	0.32550 0.91260 0.74020 -0.00200
O 	O 	0.43320 0.02410 0.89880 -0.37000
C 	C 	0.43700 0.99470 0.88860 0.11400
C 	C 	0.42100 0.97510 0.86810 -0.08800
C 	C 	0.30720 0.88650 0.75290 0.00100
C 	C 	0.34310 0.92240 0.70950 0.00100
C 	C 	0.26890 0.85190 0.79710 -0.00000
C 	C 	0.37280 0.92440 0.68050 0.00200
C 	C 	0.83185 0.35731 0.69494 -0.00000
C 	C 	0.83887 0.38382 0.72484 0.00100
C 	C 	0.88500 0.43700 0.81480 0.01000
C 	C 	0.86710 0.41850 0.78400 -0.00400
C 	C 	0.83780 0.42840 0.76800 0.00400
C 	C 	0.88130 0.47290 0.81950 -0.01800
C 	C 	0.90000 0.48980 0.84220 0.05200
C 	C 	0.82550 0.41260 0.74020 -0.00100
O 	O 	0.93320 0.52410 0.89880 -0.35600
C 	C 	0.93700 0.49470 0.88860 0.09700
C 	C 	0.92100 0.47510 0.86810 -0.08100
C 	C 	0.80720 0.38650 0.75290 0.00000
C 	C 	0.84310 0.42240 0.70950 0.00100
C 	C 	0.76890 0.35190 0.79710 -0.00000
C 	C 	0.87280 0.42440 0.68050 0.00200
C 	C 	0.83185 0.85731 0.19494 -0.00000
C 	C 	0.83887 0.88382 0.22484 0.00000
C 	C 	0.88500 0.93700 0.31480 0.01100
C 	C 	0.86710 0.91850 0.28400 -0.00400
C 	C 	0.83780 0.92840 0.26800 0.00500
C 	C 	0.88130 0.97290 0.31950 -0.01900
C 	C 	0.90000 0.98980 0.34220 0.05900
C 	C 	0.82550 0.91260 0.24020 -0.00200
O 	O 	0.93320 0.02410 0.39880 -0.37000
C 	C 	0.93700 0.99470 0.38860 0.11600
C 	C 	0.92100 0.97510 0.36810 -0.09000
C 	C 	0.80720 0.88650 0.25290 0.00100
C 	C 	0.84310 0.92240 0.20950 0.00200
C 	C 	0.76890 0.85190 0.29710 -0.00000
C 	C 	0.87280 0.92440 0.18050 0.00300
C 	C 	0.33185 0.64269 0.80506 -0.00000
C 	C 	0.33887 0.61618 0.77516 0.00100
C 	C 	0.38500 0.56300 0.68520 0.00900
C 	C 	0.36710 0.58150 0.71600 -0.00300
C 	C 	0.33780 0.57160 0.73200 0.00300
C 	C 	0.38130 0.52710 0.68050 -0.01800
C 	C 	0.40000 0.51020 0.65780 0.05000
C 	C 	0.32550 0.58740 0.75980 -0.00100
O 	O 	0.43320 0.47590 0.60120 -0.35700
C 	C 	0.43700 0.50530 0.61140 0.09400
C 	C 	0.42100 0.52490 0.63190 -0.07900
C 	C 	0.30720 0.61350 0.74710 0.00000
C 	C 	0.34310 0.57760 0.79050 0.00100
C 	C 	0.26890 0.64810 0.70290 -0.00000
C 	C 	0.37280 0.57560 0.81950 0.00100
C 	C 	0.33185 0.14269 0.30506 -0.00000
C 	C 	0.33887 0.11618 0.27516 0.00100
C 	C 	0.38500 0.06300 0.18520 0.00800
C 	C 	0.36710 0.08150 0.21600 -0.00300
C 	C 	0.33780 0.07160 0.23200 0.00100
C 	C 	0.38130 0.02710 0.18050 -0.01800
C 	C 	0.40000 0.01020 0.15780 0.04200
C 	C 	0.32550 0.08740 0.25980 -0.00100
O 	O 	0.43320 0.97590 0.10120 -0.34400
C 	C 	0.43700 0.00530 0.11140 0.07600
C 	C 	0.42100 0.02490 0.13190 -0.07000
C 	C 	0.30720 0.11350 0.24710 0.00000
C 	C 	0.34310 0.07760 0.29050 -0.00000
C 	C 	0.26890 0.14810 0.20290 0.00000
C 	C 	0.37280 0.07560 0.31950 -0.00100
C 	C 	0.83185 0.64269 0.30506 -0.00000
C 	C 	0.83887 0.61618 0.27516 0.00100
C 	C 	0.88500 0.56300 0.18520 0.01000
C 	C 	0.86710 0.58150 0.21600 -0.00400
C 	C 	0.83780 0.57160 0.23200 0.00300
C 	C 	0.88130 0.52710 0.18050 -0.01900
C 	C 	0.90000 0.51020 0.15780 0.05200
C 	C 	0.82550 0.58740 0.25980 -0.00100
O 	O 	0.93320 0.47590 0.10120 -0.35700
C 	C 	0.93700 0.50530 0.11140 0.09700
C 	C 	0.92100 0.52490 0.13190 -0.08000
C 	C 	0.80720 0.61350 0.24710 0.00000
C 	C 	0.84310 0.57760 0.29050 0.00100
C 	C 	0.76890 0.64810 0.20290 -0.00000
C 	C 	0.87280 0.57560 0.31950 0.00200
C 	C 	0.83185 0.14269 0.80506 -0.00000
C 	C 	0.83887 0.11618 0.77516 0.00100
C 	C 	0.88500 0.06300 0.68520 0.00800
C 	C 	0.86710 0.08150 0.71600 -0.00300
C 	C 	0.83780 0.07160 0.73200 0.00200
C 	C 	0.88130 0.02710 0.68050 -0.01700
C 	C 	0.90000 0.01020 0.65780 0.04500
C 	C 	0.82550 0.08740 0.75980 -0.00100
O 	O 	0.93320 0.97590 0.60120 -0.34300
C 	C 	0.93700 0.00530 0.61140 0.07900
C 	C 	0.92100 0.02490 0.63190 -0.07200
C 	C 	0.80720 0.11350 0.74710 0.00000
C 	C 	0.84310 0.07760 0.79050 0.00000
C 	C 	0.76890 0.14810 0.70290 -0.00000
C 	C 	0.87280 0.07560 0.81950 0.00100
C 	C 	0.66815 0.64269 0.19494 -0.00000
C 	C 	0.66113 0.61618 0.22484 0.00100
C 	C 	0.61500 0.56300 0.31480 0.00900
C 	C 	0.63290 0.58150 0.28400 -0.00300
C 	C 	0.66220 0.57160 0.26800 0.00300
C 	C 	0.61870 0.52710 0.31950 -0.01900
C 	C 	0.60000 0.51020 0.34220 0.05000
C 	C 	0.67450 0.58740 0.24020 -0.00100
O 	O 	0.56680 0.47590 0.39880 -0.35700
C 	C 	0.56300 0.50530 0.38860 0.09400
C 	C 	0.57900 0.52490 0.36810 -0.07900
C 	C 	0.69280 0.61350 0.25290 0.00000
C 	C 	0.65690 0.57760 0.20950 0.00100
C 	C 	0.73110 0.64810 0.29710 -0.00000
C 	C 	0.62720 0.57560 0.18050 -0.00000
C 	C 	0.66815 0.14269 0.69494 -0.00000
C 	C 	0.66113 0.11618 0.72484 0.00100
C 	C 	0.61500 0.06300 0.81480 0.00800
C 	C 	0.63290 0.08150 0.78400 -0.00300
C 	C 	0.66220 0.07160 0.76800 0.00200
C 	C 	0.61870 0.02710 0.81950 -0.01700
C 	C 	0.60000 0.01020 0.84220 0.04300
C 	C 	0.67450 0.08740 0.74020 -0.00100
O 	O 	0.56680 0.97590 0.89880 -0.34300
C 	C 	0.56300 0.00530 0.88860 0.07600
C 	C 	0.57900 0.02490 0.86810 -0.07000
C 	C 	0.69280 0.11350 0.75290 0.00000
C 	C 	0.65690 0.07760 0.70950 0.00000
C 	C 	0.73110 0.14810 0.79710 -0.00000
C 	C 	0.62720 0.07560 0.68050 -0.00100
C 	C 	0.16815 0.64269 0.69494 -0.00000
C 	C 	0.16113 0.61618 0.72484 0.00100
C 	C 	0.11500 0.56300 0.81480 0.00800
C 	C 	0.13290 0.58150 0.78400 -0.00300
C 	C 	0.16220 0.57160 0.76800 0.00300
C 	C 	0.11870 0.52710 0.81950 -0.01900
C 	C 	0.10000 0.51020 0.84220 0.04800
C 	C 	0.17450 0.58740 0.74020 -0.00100
O 	O 	0.06680 0.47590 0.89880 -0.35700
C 	C 	0.06300 0.50530 0.88860 0.09200
C 	C 	0.07900 0.52490 0.86810 -0.07800
C 	C 	0.19280 0.61350 0.75290 0.00000
C 	C 	0.15690 0.57760 0.70950 0.00000
C 	C 	0.23110 0.64810 0.79710 -0.00000
C 	C 	0.12720 0.57560 0.68050 -0.00100
C 	C 	0.16815 0.14269 0.19494 -0.00000
C 	C 	0.16113 0.11618 0.22484 0.00100
C 	C 	0.11500 0.06300 0.31480 0.00700
C 	C 	0.13290 0.08150 0.28400 -0.00300
C 	C 	0.16220 0.07160 0.26800 0.00100
C 	C 	0.11870 0.02710 0.31950 -0.01800
C 	C 	0.10000 0.01020 0.34220 0.04100
C 	C 	0.17450 0.08740 0.24020 -0.00100
O 	O 	0.06680 0.97590 0.39880 -0.34400
C 	C 	0.06300 0.00530 0.38860 0.07400
C 	C 	0.07900 0.02490 0.36810 -0.06900
C 	C 	0.19280 0.11350 0.25290 0.00000
C 	C 	0.15690 0.07760 0.20950 -0.00000
C 	C 	0.23110 0.14810 0.29710 0.00000
C 	C 	0.12720 0.07560 0.18050 -0.00300
C 	C 	0.66815 0.35731 0.80506 -0.00000
C 	C 	0.66113 0.38382 0.77516 0.00000
C 	C 	0.61500 0.43700 0.68520 0.00900
C 	C 	0.63290 0.41850 0.71600 -0.00300
C 	C 	0.66220 0.42840 0.73200 0.00300
C 	C 	0.61870 0.47290 0.68050 -0.01800
C 	C 	0.60000 0.48980 0.65780 0.05000
C 	C 	0.67450 0.41260 0.75980 -0.00100
O 	O 	0.56680 0.52410 0.60120 -0.35700
C 	C 	0.56300 0.49470 0.61140 0.09400
C 	C 	0.57900 0.47510 0.63190 -0.07900
C 	C 	0.69280 0.38650 0.74710 0.00000
C 	C 	0.65690 0.42240 0.79050 0.00100
C 	C 	0.73110 0.35190 0.70290 -0.00000
C 	C 	0.62720 0.42440 0.81950 0.00100
C 	C 	0.66815 0.85731 0.30506 -0.00000
C 	C 	0.66113 0.88382 0.27516 0.00000
C 	C 	0.61500 0.93700 0.18520 0.01000
C 	C 	0.63290 0.91850 0.21600 -0.00400
C 	C 	0.66220 0.92840 0.23200 0.00400
C 	C 	0.61870 0.97290 0.18050 -0.01900
C 	C 	0.60000 0.98980 0.15780 0.05700
C 	C 	0.67450 0.91260 0.25980 -0.00200
O 	O 	0.56680 0.02410 0.10120 -0.37000
C 	C 	0.56300 0.99470 0.11140 0.11400
C 	C 	0.57900 0.97510 0.13190 -0.08800
C 	C 	0.69280 0.88650 0.24710 0.00100
C 	C 	0.65690 0.92240 0.29050 0.00100
C 	C 	0.73110 0.85190 0.20290 -0.00000
C 	C 	0.62720 0.92440 0.31950 0.00200
C 	C 	0.16815 0.35731 0.30506 -0.00000
C 	C 	0.16113 0.38382 0.27516 0.00100
C 	C 	0.11500 0.43700 0.18520 0.00800
C 	C 	0.13290 0.41850 0.21600 -0.00300
C 	C 	0.16220 0.42840 0.23200 0.00200
C 	C 	0.11870 0.47290 0.18050 -0.01900
C 	C 	0.10000 0.48980 0.15780 0.04800
C 	C 	0.17450 0.41260 0.25980 -0.00100
O 	O 	0.06680 0.52410 0.10120 -0.35700
C 	C 	0.06300 0.49470 0.11140 0.09200
C 	C 	0.07900 0.47510 0.13190 -0.07700
C 	C 	0.19280 0.38650 0.24710 0.00000
C 	C 	0.15690 0.42240 0.29050 0.00000
C 	C 	0.23110 0.35190 0.20290 -0.00000
C 	C 	0.12720 0.42440 0.31950 -0.00100
C 	C 	0.16815 0.85731 0.80506 -0.00000
C 	C 	0.16113 0.88382 0.77516 0.00000
C 	C 	0.11500 0.93700 0.68520 0.01000
C 	C 	0.13290 0.91850 0.71600 -0.00400
C 	C 	0.16220 0.92840 0.73200 0.00400
C 	C 	0.11870 0.97290 0.68050 -0.01900
C 	C 	0.10000 0.98980 0.65780 0.05600
C 	C 	0.17450 0.91260 0.75980 -0.00200
O 	O 	0.06680 0.02410 0.60120 -0.37000
C 	C 	0.06300 0.99470 0.61140 0.11200
C 	C 	0.07900 0.97510 0.63190 -0.08700
C 	C 	0.19280 0.88650 0.74710 0.00100
C 	C 	0.15690 0.92240 0.79050 0.00100
C 	C 	0.23110 0.85190 0.70290 -0.00000
C 	C 	0.12720 0.92440 0.81950 0.00200
C 	C 	0.19494 0.33185 0.35731 -0.00000
C 	C 	0.22484 0.33887 0.38382 0.00100
C 	C 	0.31480 0.38500 0.43700 0.00900
C 	C 	0.28400 0.36710 0.41850 -0.00300
C 	C 	0.26800 0.33780 0.42840 0.00300
C 	C 	0.31950 0.38130 0.47290 -0.01900
C 	C 	0.34220 0.40000 0.48980 0.05000
C 	C 	0.24020 0.32550 0.41260 -0.00100
O 	O 	0.39880 0.43320 0.52410 -0.35700
C 	C 	0.38860 0.43700 0.49470 0.09400
C 	C 	0.36810 0.42100 0.47510 -0.07900
C 	C 	0.25290 0.30720 0.38650 0.00000
C 	C 	0.20950 0.34310 0.42240 0.00100
C 	C 	0.29710 0.26890 0.35190 -0.00000
C 	C 	0.18050 0.37280 0.42440 -0.00000
C 	C 	0.19494 0.83185 0.85731 -0.00000
C 	C 	0.22484 0.83887 0.88382 0.00000
C 	C 	0.31480 0.88500 0.93700 0.01100
C 	C 	0.28400 0.86710 0.91850 -0.00400
C 	C 	0.26800 0.83780 0.92840 0.00500
C 	C 	0.31950 0.88130 0.97290 -0.01900
C 	C 	0.34220 0.90000 0.98980 0.05900
C 	C 	0.24020 0.82550 0.91260 -0.00200
O 	O 	0.39880 0.93320 0.02410 -0.37000
C 	C 	0.38860 0.93700 0.99470 0.11600
C 	C 	0.36810 0.92100 0.97510 -0.09000
C 	C 	0.25290 0.80720 0.88650 0.00100
C 	C 	0.20950 0.84310 0.92240 0.00200
C 	C 	0.29710 0.76890 0.85190 -0.00000
C 	C 	0.18050 0.87280 0.92440 0.00300
C 	C 	0.69494 0.33185 0.85731 -0.00000
C 	C 	0.72484 0.33887 0.88382 0.00000
C 	C 	0.81480 0.38500 0.93700 0.01000
C 	C 	0.78400 0.36710 0.91850 -0.00400
C 	C 	0.76800 0.33780 0.92840 0.00400
C 	C 	0.81950 0.38130 0.97290 -0.01900
C 	C 	0.84220 0.40000 0.98980 0.05800
C 	C 	0.74020 0.32550 0.91260 -0.00200
O 	O 	0.89880 0.43320 0.02410 -0.37000
C 	C 	0.88860 0.43700 0.99470 0.11400
C 	C 	0.86810 0.42100 0.97510 -0.08800
C 	C 	0.75290 0.30720 0.88650 0.00100
C 	C 	0.70950 0.34310 0.92240 0.00100
C 	C 	0.79710 0.26890 0.85190 -0.00000
C 	C 	0.68050 0.37280 0.92440 0.00200
C 	C 	0.69494 0.83185 0.35731 -0.00000
C 	C 	0.72484 0.83887 0.38382 0.00100
C 	C 	0.81480 0.88500 0.43700 0.01000
C 	C 	0.78400 0.86710 0.41850 -0.00400
C 	C 	0.76800 0.83780 0.42840 0.00400
C 	C 	0.81950 0.88130 0.47290 -0.01800
C 	C 	0.84220 0.90000 0.48980 0.05200
C 	C 	0.74020 0.82550 0.41260 -0.00100
O 	O 	0.89880 0.93320 0.52410 -0.35600
C 	C 	0.88860 0.93700 0.49470 0.09700
C 	C 	0.86810 0.92100 0.47510 -0.08100
C 	C 	0.75290 0.80720 0.38650 0.00000
C 	C 	0.70950 0.84310 0.42240 0.00100
C 	C 	0.79710 0.76890 0.35190 -0.00000
C 	C 	0.68050 0.87280 0.42440 0.00200
C 	C 	0.80506 0.33185 0.64269 -0.00000
C 	C 	0.77516 0.33887 0.61618 0.00100
C 	C 	0.68520 0.38500 0.56300 0.00900
C 	C 	0.71600 0.36710 0.58150 -0.00300
C 	C 	0.73200 0.33780 0.57160 0.00300
C 	C 	0.68050 0.38130 0.52710 -0.01800
C 	C 	0.65780 0.40000 0.51020 0.05000
C 	C 	0.75980 0.32550 0.58740 -0.00100
O 	O 	0.60120 0.43320 0.47590 -0.35700
C 	C 	0.61140 0.43700 0.50530 0.09400
C 	C 	0.63190 0.42100 0.52490 -0.07900
C 	C 	0.74710 0.30720 0.61350 0.00000
C 	C 	0.79050 0.34310 0.57760 0.00100
C 	C 	0.70290 0.26890 0.64810 -0.00000
C 	C 	0.81950 0.37280 0.57560 0.00100
C 	C 	0.80506 0.83185 0.14269 -0.00000
C 	C 	0.77516 0.83887 0.11618 0.00100
C 	C 	0.68520 0.88500 0.06300 0.00800
C 	C 	0.71600 0.86710 0.08150 -0.00300
C 	C 	0.73200 0.83780 0.07160 0.00200
C 	C 	0.68050 0.88130 0.02710 -0.01700
C 	C 	0.65780 0.90000 0.01020 0.04500
C 	C 	0.75980 0.82550 0.08740 -0.00100
O 	O 	0.60120 0.93320 0.97590 -0.34300
C 	C 	0.61140 0.93700 0.00530 0.07900
C 	C 	0.63190 0.92100 0.02490 -0.07200
C 	C 	0.74710 0.80720 0.11350 0.00000
C 	C 	0.79050 0.84310 0.07760 0.00000
C 	C 	0.70290 0.76890 0.14810 -0.00000
C 	C 	0.81950 0.87280 0.07560 0.00100
C 	C 	0.30506 0.33185 0.14269 -0.00000
C 	C 	0.27516 0.33887 0.11618 0.00100
C 	C 	0.18520 0.38500 0.06300 0.00800
C 	C 	0.21600 0.36710 0.08150 -0.00300
C 	C 	0.23200 0.33780 0.07160 0.00100
C 	C 	0.18050 0.38130 0.02710 -0.01800
C 	C 	0.15780 0.40000 0.01020 0.04200
C 	C 	0.25980 0.32550 0.08740 -0.00100
O 	O 	0.10120 0.43320 0.97590 -0.34400
C 	C 	0.11140 0.43700 0.00530 0.07600
C 	C 	0.13190 0.42100 0.02490 -0.07000
C 	C 	0.24710 0.30720 0.11350 0.00000
C 	C 	0.29050 0.34310 0.07760 -0.00000
C 	C 	0.20290 0.26890 0.14810 0.00000
C 	C 	0.31950 0.37280 0.07560 -0.00100
C 	C 	0.30506 0.83185 0.64269 -0.00000
C 	C 	0.27516 0.83887 0.61618 0.00100
C 	C 	0.18520 0.88500 0.56300 0.01000
C 	C 	0.21600 0.86710 0.58150 -0.00400
C 	C 	0.23200 0.83780 0.57160 0.00300
C 	C 	0.18050 0.88130 0.52710 -0.01900
C 	C 	0.15780 0.90000 0.51020 0.05200
C 	C 	0.25980 0.82550 0.58740 -0.00100
O 	O 	0.10120 0.93320 0.47590 -0.35700
C 	C 	0.11140 0.93700 0.50530 0.09700
C 	C 	0.13190 0.92100 0.52490 -0.08000
C 	C 	0.24710 0.80720 0.61350 0.00000
C 	C 	0.29050 0.84310 0.57760 0.00100
C 	C 	0.20290 0.76890 0.64810 -0.00000
C 	C 	0.31950 0.87280 0.57560 0.00200
C 	C 	0.19494 0.66815 0.64269 -0.00000
C 	C 	0.22484 0.66113 0.61618 0.00100
C 	C 	0.31480 0.61500 0.56300 0.00900
C 	C 	0.28400 0.63290 0.58150 -0.00300
C 	C 	0.26800 0.66220 0.57160 0.00300
C 	C 	0.31950 0.61870 0.52710 -0.01900
C 	C 	0.34220 0.60000 0.51020 0.05000
C 	C 	0.24020 0.67450 0.58740 -0.00100
O 	O 	0.39880 0.56680 0.47590 -0.35700
C 	C 	0.38860 0.56300 0.50530 0.09400
C 	C 	0.36810 0.57900 0.52490 -0.07900
C 	C 	0.25290 0.69280 0.61350 0.00000
C 	C 	0.20950 0.65690 0.57760 0.00100
C 	C 	0.29710 0.73110 0.64810 -0.00000
C 	C 	0.18050 0.62720 0.57560 -0.00000
C 	C 	0.19494 0.16815 0.14269 -0.00000
C 	C 	0.22484 0.16113 0.11618 0.00100
C 	C 	0.31480 0.11500 0.06300 0.00700
C 	C 	0.28400 0.13290 0.08150 -0.00300
C 	C 	0.26800 0.16220 0.07160 0.00100
C 	C 	0.31950 0.11870 0.02710 -0.01800
C 	C 	0.34220 0.10000 0.01020 0.04100
C 	C 	0.24020 0.17450 0.08740 -0.00100
O 	O 	0.39880 0.06680 0.97590 -0.34400
C 	C 	0.38860 0.06300 0.00530 0.07400
C 	C 	0.36810 0.07900 0.02490 -0.06900
C 	C 	0.25290 0.19280 0.11350 0.00000
C 	C 	0.20950 0.15690 0.07760 -0.00000
C 	C 	0.29710 0.23110 0.14810 0.00000
C 	C 	0.18050 0.12720 0.07560 -0.00300
C 	C 	0.69494 0.66815 0.14269 -0.00000
C 	C 	0.72484 0.66113 0.11618 0.00100
C 	C 	0.81480 0.61500 0.06300 0.00800
C 	C 	0.78400 0.63290 0.08150 -0.00300
C 	C 	0.76800 0.66220 0.07160 0.00200
C 	C 	0.81950 0.61870 0.02710 -0.01700
C 	C 	0.84220 0.60000 0.01020 0.04300
C 	C 	0.74020 0.67450 0.08740 -0.00100
O 	O 	0.89880 0.56680 0.97590 -0.34300
C 	C 	0.88860 0.56300 0.00530 0.07600
C 	C 	0.86810 0.57900 0.02490 -0.07000
C 	C 	0.75290 0.69280 0.11350 0.00000
C 	C 	0.70950 0.65690 0.07760 0.00000
C 	C 	0.79710 0.73110 0.14810 -0.00000
C 	C 	0.68050 0.62720 0.07560 -0.00100
C 	C 	0.69494 0.16815 0.64269 -0.00000
C 	C 	0.72484 0.16113 0.61618 0.00100
C 	C 	0.81480 0.11500 0.56300 0.00800
C 	C 	0.78400 0.13290 0.58150 -0.00300
C 	C 	0.76800 0.16220 0.57160 0.00300
C 	C 	0.81950 0.11870 0.52710 -0.01900
C 	C 	0.84220 0.10000 0.51020 0.04800
C 	C 	0.74020 0.17450 0.58740 -0.00100
O 	O 	0.89880 0.06680 0.47590 -0.35700
C 	C 	0.88860 0.06300 0.50530 0.09200
C 	C 	0.86810 0.07900 0.52490 -0.07800
C 	C 	0.75290 0.19280 0.61350 0.00000
C 	C 	0.70950 0.15690 0.57760 0.00000
C 	C 	0.79710 0.23110 0.64810 -0.00000
C 	C 	0.68050 0.12720 0.57560 -0.00100
C 	C 	0.80506 0.66815 0.35731 -0.00000
C 	C 	0.77516 0.66113 0.38382 0.00000
C 	C 	0.68520 0.61500 0.43700 0.00900
C 	C 	0.71600 0.63290 0.41850 -0.00300
C 	C 	0.73200 0.66220 0.42840 0.00300
C 	C 	0.68050 0.61870 0.47290 -0.01800
C 	C 	0.65780 0.60000 0.48980 0.05000
C 	C 	0.75980 0.67450 0.41260 -0.00100
O 	O 	0.60120 0.56680 0.52410 -0.35700
C 	C 	0.61140 0.56300 0.49470 0.09400
C 	C 	0.63190 0.57900 0.47510 -0.07900
C 	C 	0.74710 0.69280 0.38650 0.00000
C 	C 	0.79050 0.65690 0.42240 0.00100
C 	C 	0.70290 0.73110 0.35190 -0.00000
C 	C 	0.81950 0.62720 0.42440 0.00100
C 	C 	0.80506 0.16815 0.85731 -0.00000
C 	C 	0.77516 0.16113 0.88382 0.00000
C 	C 	0.68520 0.11500 0.93700 0.01000
C 	C 	0.71600 0.13290 0.91850 -0.00400
C 	C 	0.73200 0.16220 0.92840 0.00400
C 	C 	0.68050 0.11870 0.97290 -0.01900
C 	C 	0.65780 0.10000 0.98980 0.05600
C 	C 	0.75980 0.17450 0.91260 -0.00200
O 	O 	0.60120 0.06680 0.02410 -0.37000
C 	C 	0.61140 0.06300 0.99470 0.11200
C 	C 	0.63190 0.07900 0.97510 -0.08700
C 	C 	0.74710 0.19280 0.88650 0.00100
C 	C 	0.79050 0.15690 0.92240 0.00100
C 	C 	0.70290 0.23110 0.85190 -0.00000
C 	C 	0.81950 0.12720 0.92440 0.00200
C 	C 	0.30506 0.66815 0.85731 -0.00000
C 	C 	0.27516 0.66113 0.88382 0.00000
C 	C 	0.18520 0.61500 0.93700 0.01000
C 	C 	0.21600 0.63290 0.91850 -0.00400
C 	C 	0.23200 0.66220 0.92840 0.00400
C 	C 	0.18050 0.61870 0.97290 -0.01900
C 	C 	0.15780 0.60000 0.98980 0.05700
C 	C 	0.25980 0.67450 0.91260 -0.00200
O 	O 	0.10120 0.56680 0.02410 -0.37000
C 	C 	0.11140 0.56300 0.99470 0.11400
C 	C 	0.13190 0.57900 0.97510 -0.08800
C 	C 	0.24710 0.69280 0.88650 0.00100
C 	C 	0.29050 0.65690 0.92240 0.00100
C 	C 	0.20290 0.73110 0.85190 -0.00000
C 	C 	0.31950 0.62720 0.92440 0.00200
C 	C 	0.30506 0.16815 0.35731 -0.00000
C 	C 	0.27516 0.16113 0.38382 0.00100
C 	C 	0.18520 0.11500 0.43700 0.00800
C 	C 	0.21600 0.13290 0.41850 -0.00300
C 	C 	0.23200 0.16220 0.42840 0.00200
C 	C 	0.18050 0.11870 0.47290 -0.01900
C 	C 	0.15780 0.10000 0.48980 0.04800
C 	C 	0.25980 0.17450 0.41260 -0.00100
O 	O 	0.10120 0.06680 0.52410 -0.35700
C 	C 	0.11140 0.06300 0.49470 0.09200
C 	C 	0.13190 0.07900 0.47510 -0.07700
C 	C 	0.24710 0.19280 0.38650 0.00000
C 	C 	0.29050 0.15690 0.42240 0.00000
C 	C 	0.20290 0.23110 0.35190 -0.00000
C 	C 	0.31950 0.12720 0.42440 -0.00100
C 	C 	0.19494 0.35731 0.33185 -0.00000
C 	C 	0.22484 0.38382 0.33887 0.00100
C 	C 	0.31480 0.43700 0.38500 0.00900
C 	C 	0.28400 0.41850 0.36710 -0.00300
C 	C 	0.26800 0.42840 0.33780 0.00300
C 	C 	0.31950 0.47290 0.38130 -0.01900
C 	C 	0.34220 0.48980 0.40000 0.05000
C 	C 	0.24020 0.41260 0.32550 -0.00100
O 	O 	0.39880 0.52410 0.43320 -0.35700
C 	C 	0.38860 0.49470 0.43700 0.09400
C 	C 	0.36810 0.47510 0.42100 -0.07900
C 	C 	0.25290 0.38650 0.30720 0.00000
C 	C 	0.20950 0.42240 0.34310 0.00100
C 	C 	0.29710 0.35190 0.26890 -0.00000
C 	C 	0.18050 0.42440 0.37280 -0.00000
C 	C 	0.19494 0.85731 0.83185 -0.00000
C 	C 	0.22484 0.88382 0.83887 0.00000
C 	C 	0.31480 0.93700 0.88500 0.01100
C 	C 	0.28400 0.91850 0.86710 -0.00400
C 	C 	0.26800 0.92840 0.83780 0.00500
C 	C 	0.31950 0.97290 0.88130 -0.01900
C 	C 	0.34220 0.98980 0.90000 0.05900
C 	C 	0.24020 0.91260 0.82550 -0.00200
O 	O 	0.39880 0.02410 0.93320 -0.37000
C 	C 	0.38860 0.99470 0.93700 0.11600
C 	C 	0.36810 0.97510 0.92100 -0.09000
C 	C 	0.25290 0.88650 0.80720 0.00100
C 	C 	0.20950 0.92240 0.84310 0.00200
C 	C 	0.29710 0.85190 0.76890 -0.00000
C 	C 	0.18050 0.92440 0.87280 0.00300
C 	C 	0.69494 0.35731 0.83185 -0.00000
C 	C 	0.72484 0.38382 0.83887 0.00100
C 	C 	0.81480 0.43700 0.88500 0.01000
C 	C 	0.78400 0.41850 0.86710 -0.00400
C 	C 	0.76800 0.42840 0.83780 0.00400
C 	C 	0.81950 0.47290 0.88130 -0.01800
C 	C 	0.84220 0.48980 0.90000 0.05200
C 	C 	0.74020 0.41260 0.82550 -0.00100
O 	O 	0.89880 0.52410 0.93320 -0.35600
C 	C 	0.88860 0.49470 0.93700 0.09700
C 	C 	0.86810 0.47510 0.92100 -0.08100
C 	C 	0.75290 0.38650 0.80720 0.00000
C 	C 	0.70950 0.42240 0.84310 0.00100
C 	C 	0.79710 0.35190 0.76890 -0.00000
C 	C 	0.68050 0.42440 0.87280 0.00200
C 	C 	0.69494 0.85731 0.33185 -0.00000
C 	C 	0.72484 0.88382 0.33887 0.00000
C 	C 	0.81480 0.93700 0.38500 0.01000
C 	C 	0.78400 0.91850 0.36710 -0.00400
C 	C 	0.76800 0.92840 0.33780 0.00400
C 	C 	0.81950 0.97290 0.38130 -0.01900
C 	C 	0.84220 0.98980 0.40000 0.05800
C 	C 	0.74020 0.91260 0.32550 -0.00200
O 	O 	0.89880 0.02410 0.43320 -0.37000
C 	C 	0.88860 0.99470 0.43700 0.11400
C 	C 	0.86810 0.97510 0.42100 -0.08800
C 	C 	0.75290 0.88650 0.30720 0.00100
C 	C 	0.70950 0.92240 0.34310 0.00100
C 	C 	0.79710 0.85190 0.26890 -0.00000
C 	C 	0.68050 0.92440 0.37280 0.00200
C 	C 	0.80506 0.64269 0.33185 -0.00000
C 	C 	0.77516 0.61618 0.33887 0.00100
C 	C 	0.68520 0.56300 0.38500 0.00900
C 	C 	0.71600 0.58150 0.36710 -0.00300
C 	C 	0.73200 0.57160 0.33780 0.00300
C 	C 	0.68050 0.52710 0.38130 -0.01800
C 	C 	0.65780 0.51020 0.40000 0.05000
C 	C 	0.75980 0.58740 0.32550 -0.00100
O 	O 	0.60120 0.47590 0.43320 -0.35700
C 	C 	0.61140 0.50530 0.43700 0.09400
C 	C 	0.63190 0.52490 0.42100 -0.07900
C 	C 	0.74710 0.61350 0.30720 0.00000
C 	C 	0.79050 0.57760 0.34310 0.00100
C 	C 	0.70290 0.64810 0.26890 -0.00000
C 	C 	0.81950 0.57560 0.37280 0.00100
C 	C 	0.80506 0.14269 0.83185 -0.00000
C 	C 	0.77516 0.11618 0.83887 0.00100
C 	C 	0.68520 0.06300 0.88500 0.00800
C 	C 	0.71600 0.08150 0.86710 -0.00300
C 	C 	0.73200 0.07160 0.83780 0.00200
C 	C 	0.68050 0.02710 0.88130 -0.01700
C 	C 	0.65780 0.01020 0.90000 0.04500
C 	C 	0.75980 0.08740 0.82550 -0.00100
O 	O 	0.60120 0.97590 0.93320 -0.34300
C 	C 	0.61140 0.00530 0.93700 0.07900
C 	C 	0.63190 0.02490 0.92100 -0.07200
C 	C 	0.74710 0.11350 0.80720 0.00000
C 	C 	0.79050 0.07760 0.84310 0.00000
C 	C 	0.70290 0.14810 0.76890 -0.00000
C 	C 	0.81950 0.07560 0.87280 0.00100
C 	C 	0.30506 0.64269 0.83185 -0.00000
C 	C 	0.27516 0.61618 0.83887 0.00100
C 	C 	0.18520 0.56300 0.88500 0.01000
C 	C 	0.21600 0.58150 0.86710 -0.00400
C 	C 	0.23200 0.57160 0.83780 0.00300
C 	C 	0.18050 0.52710 0.88130 -0.01900
C 	C 	0.15780 0.51020 0.90000 0.05200
C 	C 	0.25980 0.58740 0.82550 -0.00100
O 	O 	0.10120 0.47590 0.93320 -0.35700
C 	C 	0.11140 0.50530 0.93700 0.09700
C 	C 	0.13190 0.52490 0.92100 -0.08000
C 	C 	0.24710 0.61350 0.80720 0.00000
C 	C 	0.29050 0.57760 0.84310 0.00100
C 	C 	0.20290 0.64810 0.76890 -0.00000
C 	C 	0.31950 0.57560 0.87280 0.00200
C 	C 	0.30506 0.14269 0.33185 -0.00000
C 	C 	0.27516 0.11618 0.33887 0.00100
C 	C 	0.18520 0.06300 0.38500 0.00800
C 	C 	0.21600 0.08150 0.36710 -0.00300
C 	C 	0.23200 0.07160 0.33780 0.00100
C 	C 	0.18050 0.02710 0.38130 -0.01800
C 	C 	0.15780 0.01020 0.40000 0.04200
C 	C 	0.25980 0.08740 0.32550 -0.00100
O 	O 	0.10120 0.97590 0.43320 -0.34400
C 	C 	0.11140 0.00530 0.43700 0.07600
C 	C 	0.13190 0.02490 0.42100 -0.07000
C 	C 	0.24710 0.11350 0.30720 0.00000
C 	C 	0.29050 0.07760 0.34310 -0.00000
C 	C 	0.20290 0.14810 0.26890 0.00000
C 	C 	0.31950 0.07560 0.37280 -0.00100
C 	C 	0.19494 0.64269 0.66815 -0.00000
C 	C 	0.22484 0.61618 0.66113 0.00100
C 	C 	0.31480 0.56300 0.61500 0.00900
C 	C 	0.28400 0.58150 0.63290 -0.00300
C 	C 	0.26800 0.57160 0.66220 0.00300
C 	C 	0.31950 0.52710 0.61870 -0.01900
C 	C 	0.34220 0.51020 0.60000 0.05000
C 	C 	0.24020 0.58740 0.67450 -0.00100
O 	O 	0.39880 0.47590 0.56680 -0.35700
C 	C 	0.38860 0.50530 0.56300 0.09400
C 	C 	0.36810 0.52490 0.57900 -0.07900
C 	C 	0.25290 0.61350 0.69280 0.00000
C 	C 	0.20950 0.57760 0.65690 0.00100
C 	C 	0.29710 0.64810 0.73110 -0.00000
C 	C 	0.18050 0.57560 0.62720 -0.00000
C 	C 	0.19494 0.14269 0.16815 -0.00000
C 	C 	0.22484 0.11618 0.16113 0.00100
C 	C 	0.31480 0.06300 0.11500 0.00700
C 	C 	0.28400 0.08150 0.13290 -0.00300
C 	C 	0.26800 0.07160 0.16220 0.00100
C 	C 	0.31950 0.02710 0.11870 -0.01800
C 	C 	0.34220 0.01020 0.10000 0.04100
C 	C 	0.24020 0.08740 0.17450 -0.00100
O 	O 	0.39880 0.97590 0.06680 -0.34400
C 	C 	0.38860 0.00530 0.06300 0.07400
C 	C 	0.36810 0.02490 0.07900 -0.06900
C 	C 	0.25290 0.11350 0.19280 0.00000
C 	C 	0.20950 0.07760 0.15690 -0.00000
C 	C 	0.29710 0.14810 0.23110 0.00000
C 	C 	0.18050 0.07560 0.12720 -0.00300
C 	C 	0.69494 0.64269 0.16815 -0.00000
C 	C 	0.72484 0.61618 0.16113 0.00100
C 	C 	0.81480 0.56300 0.11500 0.00800
C 	C 	0.78400 0.58150 0.13290 -0.00300
C 	C 	0.76800 0.57160 0.16220 0.00300
C 	C 	0.81950 0.52710 0.11870 -0.01900
C 	C 	0.84220 0.51020 0.10000 0.04800
C 	C 	0.74020 0.58740 0.17450 -0.00100
O 	O 	0.89880 0.47590 0.06680 -0.35700
C 	C 	0.88860 0.50530 0.06300 0.09200
C 	C 	0.86810 0.52490 0.07900 -0.07800
C 	C 	0.75290 0.61350 0.19280 0.00000
C 	C 	0.70950 0.57760 0.15690 0.00000
C 	C 	0.79710 0.64810 0.23110 -0.00000
C 	C 	0.68050 0.57560 0.12720 -0.00100
C 	C 	0.69494 0.14269 0.66815 -0.00000
C 	C 	0.72484 0.11618 0.66113 0.00100
C 	C 	0.81480 0.06300 0.61500 0.00800
C 	C 	0.78400 0.08150 0.63290 -0.00300
C 	C 	0.76800 0.07160 0.66220 0.00200
C 	C 	0.81950 0.02710 0.61870 -0.01700
C 	C 	0.84220 0.01020 0.60000 0.04300
C 	C 	0.74020 0.08740 0.67450 -0.00100
O 	O 	0.89880 0.97590 0.56680 -0.34300
C 	C 	0.88860 0.00530 0.56300 0.07600
C 	C 	0.86810 0.02490 0.57900 -0.07000
C 	C 	0.75290 0.11350 0.69280 0.00000
C 	C 	0.70950 0.07760 0.65690 0.00000
C 	C 	0.79710 0.14810 0.73110 -0.00000
C 	C 	0.68050 0.07560 0.62720 -0.00100
C 	C 	0.80506 0.35731 0.66815 -0.00000
C 	C 	0.77516 0.38382 0.66113 0.00000
C 	C 	0.68520 0.43700 0.61500 0.00900
C 	C 	0.71600 0.41850 0.63290 -0.00300
C 	C 	0.73200 0.42840 0.66220 0.00300
C 	C 	0.68050 0.47290 0.61870 -0.01800
C 	C 	0.65780 0.48980 0.60000 0.05000
C 	C 	0.75980 0.41260 0.67450 -0.00100
O 	O 	0.60120 0.52410 0.56680 -0.35700
C 	C 	0.61140 0.49470 0.56300 0.09400
C 	C 	0.63190 0.47510 0.57900 -0.07900
C 	C 	0.74710 0.38650 0.69280 0.00000
C 	C 	0.79050 0.42240 0.65690 0.00100
C 	C 	0.70290 0.35190 0.73110 -0.00000
C 	C 	0.81950 0.42440 0.62720 0.00100
C 	C 	0.80506 0.85731 0.16815 -0.00000
C 	C 	0.77516 0.88382 0.16113 0.00000
C 	C 	0.68520 0.93700 0.11500 0.01000
C 	C 	0.71600 0.91850 0.13290 -0.00400
C 	C 	0.73200 0.92840 0.16220 0.00400
C 	C 	0.68050 0.97290 0.11870 -0.01900
C 	C 	0.65780 0.98980 0.10000 0.05600
C 	C 	0.75980 0.91260 0.17450 -0.00200
O 	O 	0.60120 0.02410 0.06680 -0.37000
C 	C 	0.61140 0.99470 0.06300 0.11200
C 	C 	0.63190 0.97510 0.07900 -0.08700
C 	C 	0.74710 0.88650 0.19280 0.00100
C 	C 	0.79050 0.92240 0.15690 0.00100
C 	C 	0.70290 0.85190 0.23110 -0.00000
C 	C 	0.81950 0.92440 0.12720 0.00200
C 	C 	0.30506 0.35731 0.16815 -0.00000
C 	C 	0.27516 0.38382 0.16113 0.00100
C 	C 	0.18520 0.43700 0.11500 0.00800
C 	C 	0.21600 0.41850 0.13290 -0.00300
C 	C 	0.23200 0.42840 0.16220 0.00200
C 	C 	0.18050 0.47290 0.11870 -0.01900
C 	C 	0.15780 0.48980 0.10000 0.04800
C 	C 	0.25980 0.41260 0.17450 -0.00100
O 	O 	0.10120 0.52410 0.06680 -0.35700
C 	C 	0.11140 0.49470 0.06300 0.09200
C 	C 	0.13190 0.47510 0.07900 -0.07700
C 	C 	0.24710 0.38650 0.19280 0.00000
C 	C 	0.29050 0.42240 0.15690 0.00000
C 	C 	0.20290 0.35190 0.23110 -0.00000
C 	C 	0.31950 0.42440 0.12720 -0.00100
C 	C 	0.30506 0.85731 0.66815 -0.00000
C 	C 	0.27516 0.88382 0.66113 0.00000
C 	C 	0.18520 0.93700 0.61500 0.01000
C 	C 	0.21600 0.91850 0.63290 -0.00400
C 	C 	0.23200 0.92840 0.66220 0.00400
C 	C 	0.18050 0.97290 0.61870 -0.01900
C 	C 	0.15780 0.98980 0.60000 0.05700
C 	C 	0.25980 0.91260 0.67450 -0.00200
O 	O 	0.10120 0.02410 0.56680 -0.37000
C 	C 	0.11140 0.99470 0.56300 0.11400
C 	C 	0.13190 0.97510 0.57900 -0.08800
C 	C 	0.24710 0.88650 0.69280 0.00100
C 	C 	0.29050 0.92240 0.65690 0.00100
C 	C 	0.20290 0.85190 0.73110 -0.00000
C 	C 	0.31950 0.92440 0.62720 0.00200
C 	C 	0.35731 0.33185 0.19494 -0.00000
C 	C 	0.38382 0.33887 0.22484 0.00100
C 	C 	0.43700 0.38500 0.31480 0.00900
C 	C 	0.41850 0.36710 0.28400 -0.00300
C 	C 	0.42840 0.33780 0.26800 0.00300
C 	C 	0.47290 0.38130 0.31950 -0.01900
C 	C 	0.48980 0.40000 0.34220 0.05000
C 	C 	0.41260 0.32550 0.24020 -0.00100
O 	O 	0.52410 0.43320 0.39880 -0.35700
C 	C 	0.49470 0.43700 0.38860 0.09400
C 	C 	0.47510 0.42100 0.36810 -0.07900
C 	C 	0.38650 0.30720 0.25290 0.00000
C 	C 	0.42240 0.34310 0.20950 0.00100
C 	C 	0.35190 0.26890 0.29710 -0.00000
C 	C 	0.42440 0.37280 0.18050 -0.00000
C 	C 	0.35731 0.83185 0.69494 -0.00000
C 	C 	0.38382 0.83887 0.72484 0.00100
C 	C 	0.43700 0.88500 0.81480 0.01000
C 	C 	0.41850 0.86710 0.78400 -0.00400
C 	C 	0.42840 0.83780 0.76800 0.00400
C 	C 	0.47290 0.88130 0.81950 -0.01800
C 	C 	0.48980 0.90000 0.84220 0.05200
C 	C 	0.41260 0.82550 0.74020 -0.00100
O 	O 	0.52410 0.93320 0.89880 -0.35600
C 	C 	0.49470 0.93700 0.88860 0.09700
C 	C 	0.47510 0.92100 0.86810 -0.08100
C 	C 	0.38650 0.80720 0.75290 0.00000
C 	C 	0.42240 0.84310 0.70950 0.00100
C 	C 	0.35190 0.76890 0.79710 -0.00000
C 	C 	0.42440 0.87280 0.68050 0.00200
C 	C 	0.85731 0.33185 0.69494 -0.00000
C 	C 	0.88382 0.33887 0.72484 0.00000
C 	C 	0.93700 0.38500 0.81480 0.01000
C 	C 	0.91850 0.36710 0.78400 -0.00400
C 	C 	0.92840 0.33780 0.76800 0.00400
C 	C 	0.97290 0.38130 0.81950 -0.01900
C 	C 	0.98980 0.40000 0.84220 0.05800
C 	C 	0.91260 0.32550 0.74020 -0.00200
O 	O 	0.02410 0.43320 0.89880 -0.37000
C 	C 	0.99470 0.43700 0.88860 0.11400
C 	C 	0.97510 0.42100 0.86810 -0.08800
C 	C 	0.88650 0.30720 0.75290 0.00100
C 	C 	0.92240 0.34310 0.70950 0.00100
C 	C 	0.85190 0.26890 0.79710 -0.00000
C 	C 	0.92440 0.37280 0.68050 0.00200
C 	C 	0.85731 0.83185 0.19494 -0.00000
C 	C 	0.88382 0.83887 0.22484 0.00000
C 	C 	0.93700 0.88500 0.31480 0.01100
C 	C 	0.91850 0.86710 0.28400 -0.00400
C 	C 	0.92840 0.83780 0.26800 0.00500
C 	C 	0.97290 0.88130 0.31950 -0.01900
C 	C 	0.98980 0.90000 0.34220 0.05900
C 	C 	0.91260 0.82550 0.24020 -0.00200
O 	O 	0.02410 0.93320 0.39880 -0.37000
C 	C 	0.99470 0.93700 0.38860 0.11600
C 	C 	0.97510 0.92100 0.36810 -0.09000
C 	C 	0.88650 0.80720 0.25290 0.00100
C 	C 	0.92240 0.84310 0.20950 0.00200
C 	C 	0.85190 0.76890 0.29710 -0.00000
C 	C 	0.92440 0.87280 0.18050 0.00300
C 	C 	0.64269 0.33185 0.80506 -0.00000
C 	C 	0.61618 0.33887 0.77516 0.00100
C 	C 	0.56300 0.38500 0.68520 0.00900
C 	C 	0.58150 0.36710 0.71600 -0.00300
C 	C 	0.57160 0.33780 0.73200 0.00300
C 	C 	0.52710 0.38130 0.68050 -0.01800
C 	C 	0.51020 0.40000 0.65780 0.05000
C 	C 	0.58740 0.32550 0.75980 -0.00100
O 	O 	0.47590 0.43320 0.60120 -0.35700
C 	C 	0.50530 0.43700 0.61140 0.09400
C 	C 	0.52490 0.42100 0.63190 -0.07900
C 	C 	0.61350 0.30720 0.74710 0.00000
C 	C 	0.57760 0.34310 0.79050 0.00100
C 	C 	0.64810 0.26890 0.70290 -0.00000
C 	C 	0.57560 0.37280 0.81950 0.00100
C 	C 	0.64269 0.83185 0.30506 -0.00000
C 	C 	0.61618 0.83887 0.27516 0.00100
C 	C 	0.56300 0.88500 0.18520 0.01000
C 	C 	0.58150 0.86710 0.21600 -0.00400
C 	C 	0.57160 0.83780 0.23200 0.00300
C 	C 	0.52710 0.88130 0.18050 -0.01900
C 	C 	0.51020 0.90000 0.15780 0.05200
C 	C 	0.58740 0.82550 0.25980 -0.00100
O 	O 	0.47590 0.93320 0.10120 -0.35700
C 	C 	0.50530 0.93700 0.11140 0.09700
C 	C 	0.52490 0.92100 0.13190 -0.08000
C 	C 	0.61350 0.80720 0.24710 0.00000
C 	C 	0.57760 0.84310 0.29050 0.00100
C 	C 	0.64810 0.76890 0.20290 -0.00000
C 	C 	0.57560 0.87280 0.31950 0.00200
C 	C 	0.14269 0.33185 0.30506 -0.00000
C 	C 	0.11618 0.33887 0.27516 0.00100
C 	C 	0.06300 0.38500 0.18520 0.00800
C 	C 	0.08150 0.36710 0.21600 -0.00300
C 	C 	0.07160 0.33780 0.23200 0.00100
C 	C 	0.02710 0.38130 0.18050 -0.01800
C 	C 	0.01020 0.40000 0.15780 0.04200
C 	C 	0.08740 0.32550 0.25980 -0.00100
O 	O 	0.97590 0.43320 0.10120 -0.34400
C 	C 	0.00530 0.43700 0.11140 0.07600
C 	C 	0.02490 0.42100 0.13190 -0.07000
C 	C 	0.11350 0.30720 0.24710 0.00000
C 	C 	0.07760 0.34310 0.29050 -0.00000
C 	C 	0.14810 0.26890 0.20290 0.00000
C 	C 	0.07560 0.37280 0.31950 -0.00100
C 	C 	0.14269 0.83185 0.80506 -0.00000
C 	C 	0.11618 0.83887 0.77516 0.00100
C 	C 	0.06300 0.88500 0.68520 0.00800
C 	C 	0.08150 0.86710 0.71600 -0.00300
C 	C 	0.07160 0.83780 0.73200 0.00200
C 	C 	0.02710 0.88130 0.68050 -0.01700
C 	C 	0.01020 0.90000 0.65780 0.04500
C 	C 	0.08740 0.82550 0.75980 -0.00100
O 	O 	0.97590 0.93320 0.60120 -0.34300
C 	C 	0.00530 0.93700 0.61140 0.07900
C 	C 	0.02490 0.92100 0.63190 -0.07200
C 	C 	0.11350 0.80720 0.74710 0.00000
C 	C 	0.07760 0.84310 0.79050 0.00000
C 	C 	0.14810 0.76890 0.70290 -0.00000
C 	C 	0.07560 0.87280 0.81950 0.00100
C 	C 	0.64269 0.66815 0.19494 -0.00000
C 	C 	0.61618 0.66113 0.22484 0.00100
C 	C 	0.56300 0.61500 0.31480 0.00900
C 	C 	0.58150 0.63290 0.28400 -0.00300
C 	C 	0.57160 0.66220 0.26800 0.00300
C 	C 	0.52710 0.61870 0.31950 -0.01900
C 	C 	0.51020 0.60000 0.34220 0.05000
C 	C 	0.58740 0.67450 0.24020 -0.00100
O 	O 	0.47590 0.56680 0.39880 -0.35700
C 	C 	0.50530 0.56300 0.38860 0.09400
C 	C 	0.52490 0.57900 0.36810 -0.07900
C 	C 	0.61350 0.69280 0.25290 0.00000
C 	C 	0.57760 0.65690 0.20950 0.00100
C 	C 	0.64810 0.73110 0.29710 -0.00000
C 	C 	0.57560 0.62720 0.18050 -0.00000
C 	C 	0.64269 0.16815 0.69494 -0.00000
C 	C 	0.61618 0.16113 0.72484 0.00100
C 	C 	0.56300 0.11500 0.81480 0.00800
C 	C 	0.58150 0.13290 0.78400 -0.00300
C 	C 	0.57160 0.16220 0.76800 0.00300
C 	C 	0.52710 0.11870 0.81950 -0.01900
C 	C 	0.51020 0.10000 0.84220 0.04800
C 	C 	0.58740 0.17450 0.74020 -0.00100
O 	O 	0.47590 0.06680 0.89880 -0.35700
C 	C 	0.50530 0.06300 0.88860 0.09200
C 	C 	0.52490 0.07900 0.86810 -0.07800
C 	C 	0.61350 0.19280 0.75290 0.00000
C 	C 	0.57760 0.15690 0.70950 0.00000
C 	C 	0.64810 0.23110 0.79710 -0.00000
C 	C 	0.57560 0.12720 0.68050 -0.00100
C 	C 	0.14269 0.66815 0.69494 -0.00000
C 	C 	0.11618 0.66113 0.72484 0.00100
C 	C 	0.06300 0.61500 0.81480 0.00800
C 	C 	0.08150 0.63290 0.78400 -0.00300
C 	C 	0.07160 0.66220 0.76800 0.00200
C 	C 	0.02710 0.61870 0.81950 -0.01700
C 	C 	0.01020 0.60000 0.84220 0.04300
C 	C 	0.08740 0.67450 0.74020 -0.00100
O 	O 	0.97590 0.56680 0.89880 -0.34300
C 	C 	0.00530 0.56300 0.88860 0.07600
C 	C 	0.02490 0.57900 0.86810 -0.07000
C 	C 	0.11350 0.69280 0.75290 0.00000
C 	C 	0.07760 0.65690 0.70950 0.00000
C 	C 	0.14810 0.73110 0.79710 -0.00000
C 	C 	0.07560 0.62720 0.68050 -0.00100
C 	C 	0.14269 0.16815 0.19494 -0.00000
C 	C 	0.11618 0.16113 0.22484 0.00100
C 	C 	0.06300 0.11500 0.31480 0.00700
C 	C 	0.08150 0.13290 0.28400 -0.00300
C 	C 	0.07160 0.16220 0.26800 0.00100
C 	C 	0.02710 0.11870 0.31950 -0.01800
C 	C 	0.01020 0.10000 0.34220 0.04100
C 	C 	0.08740 0.17450 0.24020 -0.00100
O 	O 	0.97590 0.06680 0.39880 -0.34400
C 	C 	0.00530 0.06300 0.38860 0.07400
C 	C 	0.02490 0.07900 0.36810 -0.06900
C 	C 	0.11350 0.19280 0.25290 0.00000
C 	C 	0.07760 0.15690 0.20950 -0.00000
C 	C 	0.14810 0.23110 0.29710 0.00000
C 	C 	0.07560 0.12720 0.18050 -0.00300
C 	C 	0.35731 0.66815 0.80506 -0.00000
C 	C 	0.38382 0.66113 0.77516 0.00000
C 	C 	0.43700 0.61500 0.68520 0.00900
C 	C 	0.41850 0.63290 0.71600 -0.00300
C 	C 	0.42840 0.66220 0.73200 0.00300
C 	C 	0.47290 0.61870 0.68050 -0.01800
C 	C 	0.48980 0.60000 0.65780 0.05000
C 	C 	0.41260 0.67450 0.75980 -0.00100
O 	O 	0.52410 0.56680 0.60120 -0.35700
C 	C 	0.49470 0.56300 0.61140 0.09400
C 	C 	0.47510 0.57900 0.63190 -0.07900
C 	C 	0.38650 0.69280 0.74710 0.00000
C 	C 	0.42240 0.65690 0.79050 0.00100
C 	C 	0.35190 0.73110 0.70290 -0.00000
C 	C 	0.42440 0.62720 0.81950 0.00100
C 	C 	0.35731 0.16815 0.30506 -0.00000
C 	C 	0.38382 0.16113 0.27516 0.00100
C 	C 	0.43700 0.11500 0.18520 0.00800
C 	C 	0.41850 0.13290 0.21600 -0.00300
C 	C 	0.42840 0.16220 0.23200 0.00200
C 	C 	0.47290 0.11870 0.18050 -0.01900
C 	C 	0.48980 0.10000 0.15780 0.04800
C 	C 	0.41260 0.17450 0.25980 -0.00100
O 	O 	0.52410 0.06680 0.10120 -0.35700
C 	C 	0.49470 0.06300 0.11140 0.09200
C 	C 	0.47510 0.07900 0.13190 -0.07700
C 	C 	0.38650 0.19280 0.24710 0.00000
C 	C 	0.42240 0.15690 0.29050 0.00000
C 	C 	0.35190 0.23110 0.20290 -0.00000
C 	C 	0.42440 0.12720 0.31950 -0.00100
C 	C 	0.85731 0.66815 0.30506 -0.00000
C 	C 	0.88382 0.66113 0.27516 0.00000
C 	C 	0.93700 0.61500 0.18520 0.01000
C 	C 	0.91850 0.63290 0.21600 -0.00400
C 	C 	0.92840 0.66220 0.23200 0.00400
C 	C 	0.97290 0.61870 0.18050 -0.01900
C 	C 	0.98980 0.60000 0.15780 0.05700
C 	C 	0.91260 0.67450 0.25980 -0.00200
O 	O 	0.02410 0.56680 0.10120 -0.37000
C 	C 	0.99470 0.56300 0.11140 0.11400
C 	C 	0.97510 0.57900 0.13190 -0.08800
C 	C 	0.88650 0.69280 0.24710 0.00100
C 	C 	0.92240 0.65690 0.29050 0.00100
C 	C 	0.85190 0.73110 0.20290 -0.00000
C 	C 	0.92440 0.62720 0.31950 0.00200
C 	C 	0.85731 0.16815 0.80506 -0.00000
C 	C 	0.88382 0.16113 0.77516 0.00000
C 	C 	0.93700 0.11500 0.68520 0.01000
C 	C 	0.91850 0.13290 0.71600 -0.00400
C 	C 	0.92840 0.16220 0.73200 0.00400
C 	C 	0.97290 0.11870 0.68050 -0.01900
C 	C 	0.98980 0.10000 0.65780 0.05600
C 	C 	0.91260 0.17450 0.75980 -0.00200
O 	O 	0.02410 0.06680 0.60120 -0.37000
C 	C 	0.99470 0.06300 0.61140 0.11200
C 	C 	0.97510 0.07900 0.63190 -0.08700
C 	C 	0.88650 0.19280 0.74710 0.00100
C 	C 	0.92240 0.15690 0.79050 0.00100
C 	C 	0.85190 0.23110 0.70290 -0.00000
C 	C 	0.92440 0.12720 0.81950 0.00200
C 	C 	0.33185 0.19494 0.35731 -0.00000
C 	C 	0.33887 0.22484 0.38382 0.00100
C 	C 	0.38500 0.31480 0.43700 0.00900
C 	C 	0.36710 0.28400 0.41850 -0.00300
C 	C 	0.33780 0.26800 0.42840 0.00300
C 	C 	0.38130 0.31950 0.47290 -0.01900
C 	C 	0.40000 0.34220 0.48980 0.05000
C 	C 	0.32550 0.24020 0.41260 -0.00100
O 	O 	0.43320 0.39880 0.52410 -0.35700
C 	C 	0.43700 0.38860 0.49470 0.09400
C 	C 	0.42100 0.36810 0.47510 -0.07900
C 	C 	0.30720 0.25290 0.38650 0.00000
C 	C 	0.34310 0.20950 0.42240 0.00100
C 	C 	0.26890 0.29710 0.35190 -0.00000
C 	C 	0.37280 0.18050 0.42440 -0.00000
C 	C 	0.33185 0.69494 0.85731 -0.00000
C 	C 	0.33887 0.72484 0.88382 0.00000
C 	C 	0.38500 0.81480 0.93700 0.01000
C 	C 	0.36710 0.78400 0.91850 -0.00400
C 	C 	0.33780 0.76800 0.92840 0.00400
C 	C 	0.38130 0.81950 0.97290 -0.01900
C 	C 	0.40000 0.84220 0.98980 0.05800
C 	C 	0.32550 0.74020 0.91260 -0.00200
O 	O 	0.43320 0.89880 0.02410 -0.37000
C 	C 	0.43700 0.88860 0.99470 0.11400
C 	C 	0.42100 0.86810 0.97510 -0.08800
C 	C 	0.30720 0.75290 0.88650 0.00100
C 	C 	0.34310 0.70950 0.92240 0.00100
C 	C 	0.26890 0.79710 0.85190 -0.00000
C 	C 	0.37280 0.68050 0.92440 0.00200
C 	C 	0.83185 0.19494 0.85731 -0.00000
C 	C 	0.83887 0.22484 0.88382 0.00000
C 	C 	0.88500 0.31480 0.93700 0.01100
C 	C 	0.86710 0.28400 0.91850 -0.00400
C 	C 	0.83780 0.26800 0.92840 0.00500
C 	C 	0.88130 0.31950 0.97290 -0.01900
C 	C 	0.90000 0.34220 0.98980 0.05900
C 	C 	0.82550 0.24020 0.91260 -0.00200
O 	O 	0.93320 0.39880 0.02410 -0.37000
C 	C 	0.93700 0.38860 0.99470 0.11600
C 	C 	0.92100 0.36810 0.97510 -0.09000
C 	C 	0.80720 0.25290 0.88650 0.00100
C 	C 	0.84310 0.20950 0.92240 0.00200
C 	C 	0.76890 0.29710 0.85190 -0.00000
C 	C 	0.87280 0.18050 0.92440 0.00300
C 	C 	0.83185 0.69494 0.35731 -0.00000
C 	C 	0.83887 0.72484 0.38382 0.00100
C 	C 	0.88500 0.81480 0.43700 0.01000
C 	C 	0.86710 0.78400 0.41850 -0.00400
C 	C 	0.83780 0.76800 0.42840 0.00400
C 	C 	0.88130 0.81950 0.47290 -0.01800
C 	C 	0.90000 0.84220 0.48980 0.05200
C 	C 	0.82550 0.74020 0.41260 -0.00100
O 	O 	0.93320 0.89880 0.52410 -0.35600
C 	C 	0.93700 0.88860 0.49470 0.09700
C 	C 	0.92100 0.86810 0.47510 -0.08100
C 	C 	0.80720 0.75290 0.38650 0.00000
C 	C 	0.84310 0.70950 0.42240 0.00100
C 	C 	0.76890 0.79710 0.35190 -0.00000
C 	C 	0.87280 0.68050 0.42440 0.00200
C 	C 	0.33185 0.80506 0.64269 -0.00000
C 	C 	0.33887 0.77516 0.61618 0.00100
C 	C 	0.38500 0.68520 0.56300 0.00900
C 	C 	0.36710 0.71600 0.58150 -0.00300
C 	C 	0.33780 0.73200 0.57160 0.00300
C 	C 	0.38130 0.68050 0.52710 -0.01800
C 	C 	0.40000 0.65780 0.51020 0.05000
C 	C 	0.32550 0.75980 0.58740 -0.00100
O 	O 	0.43320 0.60120 0.47590 -0.35700
C 	C 	0.43700 0.61140 0.50530 0.09400
C 	C 	0.42100 0.63190 0.52490 -0.07900
C 	C 	0.30720 0.74710 0.61350 0.00000
C 	C 	0.34310 0.79050 0.57760 0.00100
C 	C 	0.26890 0.70290 0.64810 -0.00000
C 	C 	0.37280 0.81950 0.57560 0.00100
C 	C 	0.33185 0.30506 0.14269 -0.00000
C 	C 	0.33887 0.27516 0.11618 0.00100
C 	C 	0.38500 0.18520 0.06300 0.00800
C 	C 	0.36710 0.21600 0.08150 -0.00300
C 	C 	0.33780 0.23200 0.07160 0.00100
C 	C 	0.38130 0.18050 0.02710 -0.01800
C 	C 	0.40000 0.15780 0.01020 0.04200
C 	C 	0.32550 0.25980 0.08740 -0.00100
O 	O 	0.43320 0.10120 0.97590 -0.34400
C 	C 	0.43700 0.11140 0.00530 0.07600
C 	C 	0.42100 0.13190 0.02490 -0.07000
C 	C 	0.30720 0.24710 0.11350 0.00000
C 	C 	0.34310 0.29050 0.07760 -0.00000
C 	C 	0.26890 0.20290 0.14810 0.00000
C 	C 	0.37280 0.31950 0.07560 -0.00100
C 	C 	0.83185 0.80506 0.14269 -0.00000
C 	C 	0.83887 0.77516 0.11618 0.00100
C 	C 	0.88500 0.68520 0.06300 0.00800
C 	C 	0.86710 0.71600 0.08150 -0.00300
C 	C 	0.83780 0.73200 0.07160 0.00200
C 	C 	0.88130 0.68050 0.02710 -0.01700
C 	C 	0.90000 0.65780 0.01020 0.04500
C 	C 	0.82550 0.75980 0.08740 -0.00100
O 	O 	0.93320 0.60120 0.97590 -0.34300
C 	C 	0.93700 0.61140 0.00530 0.07900
C 	C 	0.92100 0.63190 0.02490 -0.07200
C 	C 	0.80720 0.74710 0.11350 0.00000
C 	C 	0.84310 0.79050 0.07760 0.00000
C 	C 	0.76890 0.70290 0.14810 -0.00000
C 	C 	0.87280 0.81950 0.07560 0.00100
C 	C 	0.83185 0.30506 0.64269 -0.00000
C 	C 	0.83887 0.27516 0.61618 0.00100
C 	C 	0.88500 0.18520 0.56300 0.01000
C 	C 	0.86710 0.21600 0.58150 -0.00400
C 	C 	0.83780 0.23200 0.57160 0.00300
C 	C 	0.88130 0.18050 0.52710 -0.01900
C 	C 	0.90000 0.15780 0.51020 0.05200
C 	C 	0.82550 0.25980 0.58740 -0.00100
O 	O 	0.93320 0.10120 0.47590 -0.35700
C 	C 	0.93700 0.11140 0.50530 0.09700
C 	C 	0.92100 0.13190 0.52490 -0.08000
C 	C 	0.80720 0.24710 0.61350 0.00000
C 	C 	0.84310 0.29050 0.57760 0.00100
C 	C 	0.76890 0.20290 0.64810 -0.00000
C 	C 	0.87280 0.31950 0.57560 0.00200
C 	C 	0.66815 0.19494 0.64269 -0.00000
C 	C 	0.66113 0.22484 0.61618 0.00100
C 	C 	0.61500 0.31480 0.56300 0.00900
C 	C 	0.63290 0.28400 0.58150 -0.00300
C 	C 	0.66220 0.26800 0.57160 0.00300
C 	C 	0.61870 0.31950 0.52710 -0.01900
C 	C 	0.60000 0.34220 0.51020 0.05000
C 	C 	0.67450 0.24020 0.58740 -0.00100
O 	O 	0.56680 0.39880 0.47590 -0.35700
C 	C 	0.56300 0.38860 0.50530 0.09400
C 	C 	0.57900 0.36810 0.52490 -0.07900
C 	C 	0.69280 0.25290 0.61350 0.00000
C 	C 	0.65690 0.20950 0.57760 0.00100
C 	C 	0.73110 0.29710 0.64810 -0.00000
C 	C 	0.62720 0.18050 0.57560 -0.00000
C 	C 	0.66815 0.69494 0.14269 -0.00000
C 	C 	0.66113 0.72484 0.11618 0.00100
C 	C 	0.61500 0.81480 0.06300 0.00800
C 	C 	0.63290 0.78400 0.08150 -0.00300
C 	C 	0.66220 0.76800 0.07160 0.00200
C 	C 	0.61870 0.81950 0.02710 -0.01700
C 	C 	0.60000 0.84220 0.01020 0.04300
C 	C 	0.67450 0.74020 0.08740 -0.00100
O 	O 	0.56680 0.89880 0.97590 -0.34300
C 	C 	0.56300 0.88860 0.00530 0.07600
C 	C 	0.57900 0.86810 0.02490 -0.07000
C 	C 	0.69280 0.75290 0.11350 0.00000
C 	C 	0.65690 0.70950 0.07760 0.00000
C 	C 	0.73110 0.79710 0.14810 -0.00000
C 	C 	0.62720 0.68050 0.07560 -0.00100
C 	C 	0.16815 0.19494 0.14269 -0.00000
C 	C 	0.16113 0.22484 0.11618 0.00100
C 	C 	0.11500 0.31480 0.06300 0.00700
C 	C 	0.13290 0.28400 0.08150 -0.00300
C 	C 	0.16220 0.26800 0.07160 0.00100
C 	C 	0.11870 0.31950 0.02710 -0.01800
C 	C 	0.10000 0.34220 0.01020 0.04100
C 	C 	0.17450 0.24020 0.08740 -0.00100
O 	O 	0.06680 0.39880 0.97590 -0.34400
C 	C 	0.06300 0.38860 0.00530 0.07400
C 	C 	0.07900 0.36810 0.02490 -0.06900
C 	C 	0.19280 0.25290 0.11350 0.00000
C 	C 	0.15690 0.20950 0.07760 -0.00000
C 	C 	0.23110 0.29710 0.14810 0.00000
C 	C 	0.12720 0.18050 0.07560 -0.00300
C 	C 	0.16815 0.69494 0.64269 -0.00000
C 	C 	0.16113 0.72484 0.61618 0.00100
C 	C 	0.11500 0.81480 0.56300 0.00800
C 	C 	0.13290 0.78400 0.58150 -0.00300
C 	C 	0.16220 0.76800 0.57160 0.00300
C 	C 	0.11870 0.81950 0.52710 -0.01900
C 	C 	0.10000 0.84220 0.51020 0.04800
C 	C 	0.17450 0.74020 0.58740 -0.00100
O 	O 	0.06680 0.89880 0.47590 -0.35700
C 	C 	0.06300 0.88860 0.50530 0.09200
C 	C 	0.07900 0.86810 0.52490 -0.07800
C 	C 	0.19280 0.75290 0.61350 0.00000
C 	C 	0.15690 0.70950 0.57760 0.00000
C 	C 	0.23110 0.79710 0.64810 -0.00000
C 	C 	0.12720 0.68050 0.57560 -0.00100
C 	C 	0.66815 0.80506 0.35731 -0.00000
C 	C 	0.66113 0.77516 0.38382 0.00000
C 	C 	0.61500 0.68520 0.43700 0.00900
C 	C 	0.63290 0.71600 0.41850 -0.00300
C 	C 	0.66220 0.73200 0.42840 0.00300
C 	C 	0.61870 0.68050 0.47290 -0.01800
C 	C 	0.60000 0.65780 0.48980 0.05000
C 	C 	0.67450 0.75980 0.41260 -0.00100
O 	O 	0.56680 0.60120 0.52410 -0.35700
C 	C 	0.56300 0.61140 0.49470 0.09400
C 	C 	0.57900 0.63190 0.47510 -0.07900
C 	C 	0.69280 0.74710 0.38650 0.00000
C 	C 	0.65690 0.79050 0.42240 0.00100
C 	C 	0.73110 0.70290 0.35190 -0.00000
C 	C 	0.62720 0.81950 0.42440 0.00100
C 	C 	0.66815 0.30506 0.85731 -0.00000
C 	C 	0.66113 0.27516 0.88382 0.00000
C 	C 	0.61500 0.18520 0.93700 0.01000
C 	C 	0.63290 0.21600 0.91850 -0.00400
C 	C 	0.66220 0.23200 0.92840 0.00400
C 	C 	0.61870 0.18050 0.97290 -0.01900
C 	C 	0.60000 0.15780 0.98980 0.05700
C 	C 	0.67450 0.25980 0.91260 -0.00200
O 	O 	0.56680 0.10120 0.02410 -0.37000
C 	C 	0.56300 0.11140 0.99470 0.11400
C 	C 	0.57900 0.13190 0.97510 -0.08800
C 	C 	0.69280 0.24710 0.88650 0.00100
C 	C 	0.65690 0.29050 0.92240 0.00100
C 	C 	0.73110 0.20290 0.85190 -0.00000
C 	C 	0.62720 0.31950 0.92440 0.00200
C 	C 	0.16815 0.80506 0.85731 -0.00000
C 	C 	0.16113 0.77516 0.88382 0.00000
C 	C 	0.11500 0.68520 0.93700 0.01000
C 	C 	0.13290 0.71600 0.91850 -0.00400
C 	C 	0.16220 0.73200 0.92840 0.00400
C 	C 	0.11870 0.68050 0.97290 -0.01900
C 	C 	0.10000 0.65780 0.98980 0.05600
C 	C 	0.17450 0.75980 0.91260 -0.00200
O 	O 	0.06680 0.60120 0.02410 -0.37000
C 	C 	0.06300 0.61140 0.99470 0.11200
C 	C 	0.07900 0.63190 0.97510 -0.08700
C 	C 	0.19280 0.74710 0.88650 0.00100
C 	C 	0.15690 0.79050 0.92240 0.00100
C 	C 	0.23110 0.70290 0.85190 -0.00000
C 	C 	0.12720 0.81950 0.92440 0.00200
C 	C 	0.16815 0.30506 0.35731 -0.00000
C 	C 	0.16113 0.27516 0.38382 0.00100
C 	C 	0.11500 0.18520 0.43700 0.00800
C 	C 	0.13290 0.21600 0.41850 -0.00300
C 	C 	0.16220 0.23200 0.42840 0.00200
C 	C 	0.11870 0.18050 0.47290 -0.01900
C 	C 	0.10000 0.15780 0.48980 0.04800
C 	C 	0.17450 0.25980 0.41260 -0.00100
O 	O 	0.06680 0.10120 0.52410 -0.35700
C 	C 	0.06300 0.11140 0.49470 0.09200
C 	C 	0.07900 0.13190 0.47510 -0.07700
C 	C 	0.19280 0.24710 0.38650 0.00000
C 	C 	0.15690 0.29050 0.42240 0.00000
C 	C 	0.23110 0.20290 0.35190 -0.00000
C 	C 	0.12720 0.31950 0.42440 -0.00100
Zn	Zn	0.55983 0.44017 0.44017 1.23700
O 	O 	0.53050 0.46950 0.46950 -1.06400
Zn	Zn	0.55983 0.94017 0.94017 1.23700
O 	O 	0.53050 0.96950 0.96950 -1.05400
Zn	Zn	0.05983 0.44017 0.94017 1.23700
O 	O 	0.03050 0.46950 0.96950 -1.06100
Zn	Zn	0.05983 0.94017 0.44017 1.23700
O 	O 	0.03050 0.96950 0.46950 -1.06100
Zn	Zn	0.44017 0.55983 0.44017 1.23700
O 	O 	0.46950 0.53050 0.46950 -1.06400
Zn	Zn	0.44017 0.05983 0.94017 1.23700
O 	O 	0.46950 0.03050 0.96950 -1.06100
Zn	Zn	0.94017 0.55983 0.94017 1.23700
O 	O 	0.96950 0.53050 0.96950 -1.05400
Zn	Zn	0.94017 0.05983 0.44017 1.23700
O 	O 	0.96950 0.03050 0.46950 -1.06100
Zn	Zn	0.44017 0.44017 0.55983 1.23700
O 	O 	0.46950 0.46950 0.53050 -1.06400
Zn	Zn	0.44017 0.94017 0.05983 1.23700
O 	O 	0.46950 0.96950 0.03050 -1.06100
Zn	Zn	0.94017 0.44017 0.05983 1.23700
O 	O 	0.96950 0.46950 0.03050 -1.06100
Zn	Zn	0.94017 0.94017 0.55983 1.23700
O 	O 	0.96950 0.96950 0.53050 -1.05400
Zn	Zn	0.55983 0.55983 0.55983 1.23700
O 	O 	0.53050 0.53050 0.53050 -1.06400
Zn	Zn	0.55983 0.05983 0.05983 1.23800
O 	O 	0.53050 0.03050 0.03050 -1.06900
Zn	Zn	0.05983 0.55983 0.05983 1.23800
O 	O 	0.03050 0.53050 0.03050 -1.06900
Zn	Zn	0.05983 0.05983 0.55983 1.23800
O 	O 	0.03050 0.03050 0.53050 -1.06900
Zn	Zn	0.55937 0.50000 0.50000 1.09500
Zn	Zn	0.55937 0.00000 -0.00000 1.08900
Zn	Zn	0.05937 0.50000 -0.00000 1.09200
Zn	Zn	0.05937 0.00000 0.50000 1.09200
Zn	Zn	0.44063 0.50000 0.50000 1.09500
Zn	Zn	0.44063 0.00000 -0.00000 1.08900
Zn	Zn	0.94063 0.50000 -0.00000 1.09300
Zn	Zn	0.94063 0.00000 0.50000 1.09300
Zn	Zn	0.50000 0.55937 0.50000 1.09500
Zn	Zn	0.50000 0.05937 -0.00000 1.09200
Zn	Zn	-0.00000 0.55937 -0.00000 1.08900
Zn	Zn	-0.00000 0.05937 0.50000 1.09200
Zn	Zn	0.50000 0.44063 0.50000 1.09500
Zn	Zn	0.50000 0.94063 -0.00000 1.09300
Zn	Zn	0.00000 0.44063 -0.00000 1.08900
Zn	Zn	0.00000 0.94063 0.50000 1.09300
Zn	Zn	0.50000 0.50000 0.55937 1.09500
Zn	Zn	0.50000 0.00000 0.05937 1.09200
Zn	Zn	-0.00000 0.50000 0.05937 1.09200
Zn	Zn	0.00000 0.00000 0.55937 1.08900
Zn	Zn	0.50000 0.50000 0.44063 1.09500
Zn	Zn	0.50000 0.00000 0.94063 1.09300
Zn	Zn	-0.00000 0.50000 0.94063 1.09300
Zn	Zn	0.00000 0.00000 0.44063 1.08900
C 	C 	0.38634 0.26970 0.38634 0.00200
C 	C 	0.37038 0.24130 0.37038 -0.00100
C 	C 	0.41420 0.33920 0.41420 -0.00500
C 	C 	0.43190 0.36220 0.43190 0.00000
C 	C 	0.38634 0.76970 0.88634 0.00200
C 	C 	0.37038 0.74130 0.87038 -0.00100
C 	C 	0.41420 0.83920 0.91420 -0.00600
C 	C 	0.43190 0.86220 0.93190 0.00300
C 	C 	0.88634 0.26970 0.88634 0.00300
C 	C 	0.87038 0.24130 0.87038 -0.00100
C 	C 	0.91420 0.33920 0.91420 -0.00700
C 	C 	0.93190 0.36220 0.93190 0.00600
C 	C 	0.88634 0.76970 0.38634 0.00200
C 	C 	0.87038 0.74130 0.37038 -0.00100
C 	C 	0.91420 0.83920 0.41420 -0.00600
C 	C 	0.93190 0.86220 0.43190 0.00300
C 	C 	0.61366 0.73030 0.38634 0.00200
C 	C 	0.62962 0.75870 0.37038 -0.00100
C 	C 	0.58580 0.66080 0.41420 -0.00500
C 	C 	0.56810 0.63780 0.43190 0.00000
C 	C 	0.61366 0.23030 0.88634 0.00200
C 	C 	0.62962 0.25870 0.87038 -0.00100
C 	C 	0.58580 0.16080 0.91420 -0.00600
C 	C 	0.56810 0.13780 0.93190 0.00300
C 	C 	0.11366 0.73030 0.88634 0.00200
C 	C 	0.12962 0.75870 0.87038 -0.00100
C 	C 	0.08580 0.66080 0.91420 -0.00500
C 	C 	0.06810 0.63780 0.93190 0.00100
C 	C 	0.11366 0.23030 0.38634 0.00200
C 	C 	0.12962 0.25870 0.37038 -0.00100
C 	C 	0.08580 0.16080 0.41420 -0.00400
C 	C 	0.06810 0.13780 0.43190 -0.00200
C 	C 	0.61366 0.26970 0.61366 0.00200
C 	C 	0.62962 0.24130 0.62962 -0.00100
C 	C 	0.58580 0.33920 0.58580 -0.00500
C 	C 	0.56810 0.36220 0.56810 0.00000
C 	C 	0.61366 0.76970 0.11366 0.00200
C 	C 	0.62962 0.74130 0.12962 -0.00100
C 	C 	0.58580 0.83920 0.08580 -0.00400
C 	C 	0.56810 0.86220 0.06810 -0.00200
C 	C 	0.11366 0.26970 0.11366 0.00100
C 	C 	0.12962 0.24130 0.12962 -0.00100
C 	C 	0.08580 0.33920 0.08580 -0.00300
C 	C 	0.06810 0.36220 0.06810 -0.00500
C 	C 	0.11366 0.76970 0.61366 0.00200
C 	C 	0.12962 0.74130 0.62962 -0.00100
C 	C 	0.08580 0.83920 0.58580 -0.00400
C 	C 	0.06810 0.86220 0.56810 -0.00200
C 	C 	0.38634 0.73030 0.61366 0.00200
C 	C 	0.37038 0.75870 0.62962 -0.00100
C 	C 	0.41420 0.66080 0.58580 -0.00500
C 	C 	0.43190 0.63780 0.56810 0.00000
C 	C 	0.38634 0.23030 0.11366 0.00200
C 	C 	0.37038 0.25870 0.12962 -0.00100
C 	C 	0.41420 0.16080 0.08580 -0.00400
C 	C 	0.43190 0.13780 0.06810 -0.00200
C 	C 	0.88634 0.73030 0.11366 0.00200
C 	C 	0.87038 0.75870 0.12962 -0.00100
C 	C 	0.91420 0.66080 0.08580 -0.00500
C 	C 	0.93190 0.63780 0.06810 0.00100
C 	C 	0.88634 0.23030 0.61366 0.00200
C 	C 	0.87038 0.25870 0.62962 -0.00100
C 	C 	0.91420 0.16080 0.58580 -0.00600
C 	C 	0.93190 0.13780 0.56810 0.00300
C 	C 	0.38634 0.38634 0.26970 0.00200
C 	C 	0.37038 0.37038 0.24130 -0.00100
C 	C 	0.41420 0.41420 0.33920 -0.00500
C 	C 	0.43190 0.43190 0.36220 0.00000
C 	C 	0.38634 0.88634 0.76970 0.00200
C 	C 	0.37038 0.87038 0.74130 -0.00100
C 	C 	0.41420 0.91420 0.83920 -0.00600
C 	C 	0.43190 0.93190 0.86220 0.00300
C 	C 	0.88634 0.38634 0.76970 0.00200
C 	C 	0.87038 0.37038 0.74130 -0.00100
C 	C 	0.91420 0.41420 0.83920 -0.00600
C 	C 	0.93190 0.43190 0.86220 0.00300
C 	C 	0.88634 0.88634 0.26970 0.00300
C 	C 	0.87038 0.87038 0.24130 -0.00100
C 	C 	0.91420 0.91420 0.33920 -0.00700
C 	C 	0.93190 0.93190 0.36220 0.00600
C 	C 	0.38634 0.61366 0.73030 0.00200
C 	C 	0.37038 0.62962 0.75870 -0.00100
C 	C 	0.41420 0.58580 0.66080 -0.00500
C 	C 	0.43190 0.56810 0.63780 0.00000
C 	C 	0.38634 0.11366 0.23030 0.00200
C 	C 	0.37038 0.12962 0.25870 -0.00100
C 	C 	0.41420 0.08580 0.16080 -0.00400
C 	C 	0.43190 0.06810 0.13780 -0.00200
C 	C 	0.88634 0.61366 0.23030 0.00200
C 	C 	0.87038 0.62962 0.25870 -0.00100
C 	C 	0.91420 0.58580 0.16080 -0.00600
C 	C 	0.93190 0.56810 0.13780 0.00300
C 	C 	0.88634 0.11366 0.73030 0.00200
C 	C 	0.87038 0.12962 0.75870 -0.00100
C 	C 	0.91420 0.08580 0.66080 -0.00500
C 	C 	0.93190 0.06810 0.63780 0.00100
C 	C 	0.61366 0.61366 0.26970 0.00200
C 	C 	0.62962 0.62962 0.24130 -0.00100
C 	C 	0.58580 0.58580 0.33920 -0.00500
C 	C 	0.56810 0.56810 0.36220 0.00000
C 	C 	0.61366 0.11366 0.76970 0.00200
C 	C 	0.62962 0.12962 0.74130 -0.00100
C 	C 	0.58580 0.08580 0.83920 -0.00400
C 	C 	0.56810 0.06810 0.86220 -0.00200
C 	C 	0.11366 0.61366 0.76970 0.00200
C 	C 	0.12962 0.62962 0.74130 -0.00100
C 	C 	0.08580 0.58580 0.83920 -0.00400
C 	C 	0.06810 0.56810 0.86220 -0.00200
C 	C 	0.11366 0.11366 0.26970 0.00100
C 	C 	0.12962 0.12962 0.24130 -0.00100
C 	C 	0.08580 0.08580 0.33920 -0.00300
C 	C 	0.06810 0.06810 0.36220 -0.00500
C 	C 	0.61366 0.38634 0.73030 0.00200
C 	C 	0.62962 0.37038 0.75870 -0.00100
C 	C 	0.58580 0.41420 0.66080 -0.00500
C 	C 	0.56810 0.43190 0.63780 0.00000
C 	C 	0.61366 0.88634 0.23030 0.00200
C 	C 	0.62962 0.87038 0.25870 -0.00100
C 	C 	0.58580 0.91420 0.16080 -0.00600
C 	C 	0.56810 0.93190 0.13780 0.00300
C 	C 	0.11366 0.38634 0.23030 0.00200
C 	C 	0.12962 0.37038 0.25870 -0.00100
C 	C 	0.08580 0.41420 0.16080 -0.00400
C 	C 	0.06810 0.43190 0.13780 -0.00200
C 	C 	0.11366 0.88634 0.73030 0.00200
C 	C 	0.12962 0.87038 0.75870 -0.00100
C 	C 	0.08580 0.91420 0.66080 -0.00500
C 	C 	0.06810 0.93190 0.63780 0.00100
C 	C 	0.26970 0.38634 0.38634 0.00200
C 	C 	0.24130 0.37038 0.37038 -0.00100
C 	C 	0.33920 0.41420 0.41420 -0.00500
C 	C 	0.36220 0.43190 0.43190 0.00000
C 	C 	0.26970 0.88634 0.88634 0.00300
C 	C 	0.24130 0.87038 0.87038 -0.00100
C 	C 	0.33920 0.91420 0.91420 -0.00700
C 	C 	0.36220 0.93190 0.93190 0.00600
C 	C 	0.76970 0.38634 0.88634 0.00200
C 	C 	0.74130 0.37038 0.87038 -0.00100
C 	C 	0.83920 0.41420 0.91420 -0.00600
C 	C 	0.86220 0.43190 0.93190 0.00300
C 	C 	0.76970 0.88634 0.38634 0.00200
C 	C 	0.74130 0.87038 0.37038 -0.00100
C 	C 	0.83920 0.91420 0.41420 -0.00600
C 	C 	0.86220 0.93190 0.43190 0.00300
C 	C 	0.73030 0.38634 0.61366 0.00200
C 	C 	0.75870 0.37038 0.62962 -0.00100
C 	C 	0.66080 0.41420 0.58580 -0.00500
C 	C 	0.63780 0.43190 0.56810 0.00000
C 	C 	0.73030 0.88634 0.11366 0.00200
C 	C 	0.75870 0.87038 0.12962 -0.00100
C 	C 	0.66080 0.91420 0.08580 -0.00500
C 	C 	0.63780 0.93190 0.06810 0.00100
C 	C 	0.23030 0.38634 0.11366 0.00200
C 	C 	0.25870 0.37038 0.12962 -0.00100
C 	C 	0.16080 0.41420 0.08580 -0.00400
C 	C 	0.13780 0.43190 0.06810 -0.00200
C 	C 	0.23030 0.88634 0.61366 0.00200
C 	C 	0.25870 0.87038 0.62962 -0.00100
C 	C 	0.16080 0.91420 0.58580 -0.00600
C 	C 	0.13780 0.93190 0.56810 0.00300
C 	C 	0.26970 0.61366 0.61366 0.00200
C 	C 	0.24130 0.62962 0.62962 -0.00100
C 	C 	0.33920 0.58580 0.58580 -0.00500
C 	C 	0.36220 0.56810 0.56810 0.00000
C 	C 	0.26970 0.11366 0.11366 0.00100
C 	C 	0.24130 0.12962 0.12962 -0.00100
C 	C 	0.33920 0.08580 0.08580 -0.00300
C 	C 	0.36220 0.06810 0.06810 -0.00500
C 	C 	0.76970 0.61366 0.11366 0.00200
C 	C 	0.74130 0.62962 0.12962 -0.00100
C 	C 	0.83920 0.58580 0.08580 -0.00400
C 	C 	0.86220 0.56810 0.06810 -0.00200
C 	C 	0.76970 0.11366 0.61366 0.00200
C 	C 	0.74130 0.12962 0.62962 -0.00100
C 	C 	0.83920 0.08580 0.58580 -0.00400
C 	C 	0.86220 0.06810 0.56810 -0.00200
C 	C 	0.73030 0.61366 0.38634 0.00200
C 	C 	0.75870 0.62962 0.37038 -0.00100
C 	C 	0.66080 0.58580 0.41420 -0.00500
C 	C 	0.63780 0.56810 0.43190 0.00000
C 	C 	0.73030 0.11366 0.88634 0.00200
C 	C 	0.75870 0.12962 0.87038 -0.00100
C 	C 	0.66080 0.08580 0.91420 -0.00500
C 	C 	0.63780 0.06810 0.93190 0.00100
C 	C 	0.23030 0.61366 0.88634 0.00200
C 	C 	0.25870 0.62962 0.87038 -0.00100
C 	C 	0.16080 0.58580 0.91420 -0.00600
C 	C 	0.13780 0.56810 0.93190 0.00300
C 	C 	0.23030 0.11366 0.38634 0.00200
C 	C 	0.25870 0.12962 0.37038 -0.00100
C 	C 	0.16080 0.08580 0.41420 -0.00400
C 	C 	0.13780 0.06810 0.43190 -0.00200
