data_crystal

_cell_length_a 33.22300
_cell_length_b 33.22300
_cell_length_c 33.22300
_cell_angle_alpha 90.00000
_cell_angle_beta  90.00000
_cell_angle_gamma 90.00000

_symmetry_space_group_name_	'P 1'
_symmetry_space_group_name_H-M	'P 1'

loop_
_symmetry_equiv_pos_as_xyz
  x,y,z

loop_
_atom_site_label
_atom_site_type_symbol
_atom_site_fract_x
_atom_site_fract_y
_atom_site_fract_z
_atom_site_charge
Zr	Zr	0.44691 0.44691 -0.00000 3.17000
Zr	Zr	0.55309 0.55309 -0.00000 3.17000
Zr	Zr	0.55309 0.44691 -0.00000 3.17000
Zr	Zr	0.44691 0.55309 -0.00000 3.17000
Zr	Zr	-0.00000 0.44691 0.44691 3.17000
Zr	Zr	-0.00000 0.55309 0.55309 3.17000
Zr	Zr	-0.00000 0.55309 0.44691 3.17000
Zr	Zr	-0.00000 0.44691 0.55309 3.17000
Zr	Zr	0.44691 0.00000 0.44691 3.17000
Zr	Zr	0.55309 -0.00000 0.55309 3.17000
Zr	Zr	0.44691 -0.00000 0.55309 3.17000
Zr	Zr	0.55309 0.00000 0.44691 3.17000
Zr	Zr	0.50000 0.50000 0.07378 3.21400
Zr	Zr	0.50000 0.50000 0.92622 3.21300
Zr	Zr	0.07378 0.50000 0.50000 3.21400
Zr	Zr	0.92622 0.50000 0.50000 3.21300
Zr	Zr	0.50000 0.07378 0.50000 3.21400
Zr	Zr	0.50000 0.92622 0.50000 3.21300
O 	O 	0.45988 0.45988 0.10820 -0.68600
O 	O 	0.42537 0.42537 0.06130 -0.77200
C 	C 	0.43521 0.43521 0.09761 0.56200
O 	O 	0.54012 0.54012 0.10820 -0.68600
O 	O 	0.57463 0.57463 0.06130 -0.77100
C 	C 	0.56479 0.56479 0.09761 0.56100
O 	O 	0.54012 0.45988 0.89180 -0.68400
O 	O 	0.57463 0.42537 0.93870 -0.75100
C 	C 	0.56479 0.43521 0.90239 0.55800
O 	O 	0.45988 0.54012 0.89180 -0.68400
O 	O 	0.42537 0.57463 0.93870 -0.75100
C 	C 	0.43521 0.56479 0.90239 0.55800
O 	O 	0.10820 0.45988 0.45988 -0.68700
O 	O 	0.06130 0.42537 0.42537 -0.77300
C 	C 	0.09761 0.43521 0.43521 0.56100
O 	O 	0.10820 0.54012 0.54012 -0.68600
O 	O 	0.06130 0.57463 0.57463 -0.77100
C 	C 	0.09761 0.56479 0.56479 0.56100
O 	O 	0.89180 0.54012 0.45988 -0.68400
O 	O 	0.93870 0.57463 0.42537 -0.75100
C 	C 	0.90239 0.56479 0.43521 0.55800
O 	O 	0.89180 0.45988 0.54012 -0.68400
O 	O 	0.93870 0.42537 0.57463 -0.75100
C 	C 	0.90239 0.43521 0.56479 0.55800
O 	O 	0.45988 0.10820 0.45988 -0.68700
O 	O 	0.42537 0.06130 0.42537 -0.77300
C 	C 	0.43521 0.09761 0.43521 0.56100
O 	O 	0.54012 0.10820 0.54012 -0.68600
O 	O 	0.57463 0.06130 0.57463 -0.77100
C 	C 	0.56479 0.09761 0.56479 0.56100
O 	O 	0.45988 0.89180 0.54012 -0.68400
O 	O 	0.42537 0.93870 0.57463 -0.75100
C 	C 	0.43521 0.90239 0.56479 0.55800
O 	O 	0.54012 0.89180 0.45988 -0.68400
O 	O 	0.57463 0.93870 0.42537 -0.75100
C 	C 	0.56479 0.90239 0.43521 0.55800
O 	O 	0.45988 0.45988 0.89180 -0.68500
O 	O 	0.42537 0.42537 0.93870 -0.75200
C 	C 	0.43521 0.43521 0.90239 0.55800
O 	O 	0.54012 0.54012 0.89180 -0.68400
O 	O 	0.57463 0.57463 0.93870 -0.75000
C 	C 	0.56479 0.56479 0.90239 0.55800
O 	O 	0.45988 0.54012 0.10820 -0.68700
O 	O 	0.42537 0.57463 0.06130 -0.77200
C 	C 	0.43521 0.56479 0.09761 0.56100
O 	O 	0.54012 0.45988 0.10820 -0.68700
O 	O 	0.57463 0.42537 0.06130 -0.77200
C 	C 	0.56479 0.43521 0.09761 0.56100
O 	O 	0.45988 0.10820 0.54012 -0.68700
O 	O 	0.42537 0.06130 0.57463 -0.77200
C 	C 	0.43521 0.09761 0.56479 0.56100
O 	O 	0.54012 0.10820 0.45988 -0.68700
O 	O 	0.57463 0.06130 0.42537 -0.77200
C 	C 	0.56479 0.09761 0.43521 0.56100
O 	O 	0.54012 0.89180 0.54012 -0.68400
O 	O 	0.57463 0.93870 0.57463 -0.75000
C 	C 	0.56479 0.90239 0.56479 0.55800
O 	O 	0.45988 0.89180 0.45988 -0.68500
O 	O 	0.42537 0.93870 0.42537 -0.75200
C 	C 	0.43521 0.90239 0.43521 0.55800
O 	O 	0.10820 0.45988 0.54012 -0.68700
O 	O 	0.06130 0.42537 0.57463 -0.77200
C 	C 	0.09761 0.43521 0.56479 0.56100
O 	O 	0.10820 0.54012 0.45988 -0.68700
O 	O 	0.06130 0.57463 0.42537 -0.77200
C 	C 	0.09761 0.56479 0.43521 0.56100
O 	O 	0.89180 0.45988 0.45988 -0.68500
O 	O 	0.93870 0.42537 0.42537 -0.75200
C 	C 	0.90239 0.43521 0.43521 0.55800
O 	O 	0.89180 0.54012 0.54012 -0.68400
O 	O 	0.93870 0.57463 0.57463 -0.75000
C 	C 	0.90239 0.56479 0.56479 0.55800
O 	O 	0.50000 0.44626 0.96335 -1.33200
O 	O 	0.50000 0.55374 0.96335 -1.33100
O 	O 	0.50000 0.44626 0.03665 -1.36100
O 	O 	0.50000 0.55374 0.03665 -1.36000
O 	O 	0.96335 0.50000 0.44626 -1.33200
O 	O 	0.96335 0.50000 0.55374 -1.33100
O 	O 	0.03665 0.50000 0.44626 -1.36100
O 	O 	0.03665 0.50000 0.55374 -1.36000
O 	O 	0.44626 0.96335 0.50000 -1.33200
O 	O 	0.55374 0.96335 0.50000 -1.33100
O 	O 	0.44626 0.03665 0.50000 -1.36100
O 	O 	0.55374 0.03665 0.50000 -1.36000
O 	O 	0.44626 0.50000 0.03665 -1.36100
O 	O 	0.55374 0.50000 0.03665 -1.36000
O 	O 	0.44626 0.50000 0.96335 -1.33200
O 	O 	0.55374 0.50000 0.96335 -1.33100
O 	O 	0.50000 0.96335 0.55374 -1.33100
O 	O 	0.50000 0.96335 0.44626 -1.33200
O 	O 	0.50000 0.03665 0.55374 -1.36000
O 	O 	0.50000 0.03665 0.44626 -1.36100
O 	O 	0.96335 0.44626 0.50000 -1.33200
O 	O 	0.96335 0.55374 0.50000 -1.33100
O 	O 	0.03665 0.44626 0.50000 -1.36100
O 	O 	0.03665 0.55374 0.50000 -1.36000
C 	C 	0.36546 0.63642 0.84546 -0.05000
C 	C 	0.33851 0.66809 0.85316 -0.01400
H 	H 	0.33311 0.67822 0.88369 0.01800
C 	C 	0.31842 0.68712 0.82139 -0.08200
H 	H 	0.29788 0.71162 0.82772 0.04300
C 	C 	0.32506 0.67478 0.78157 0.06100
C 	C 	0.35167 0.64302 0.77367 -0.10700
H 	H 	0.35665 0.63355 0.74284 0.05400
C 	C 	0.37191 0.62379 0.80532 0.06700
C 	C 	0.30467 0.69530 0.74759 -0.09000
C 	C 	0.15471 0.63585 0.63504 -0.05400
C 	C 	0.14698 0.66595 0.66373 -0.01400
H 	H 	0.11635 0.67454 0.67092 0.01000
C 	C 	0.17886 0.68528 0.68340 -0.08400
H 	H 	0.17248 0.70845 0.70542 0.03900
C 	C 	0.21878 0.67476 0.67465 0.06300
C 	C 	0.22671 0.64476 0.64610 -0.10900
H 	H 	0.25765 0.63674 0.63943 0.05300
C 	C 	0.19499 0.62527 0.62624 0.06900
C 	C 	0.25287 0.69518 0.69511 -0.09200
C 	C 	0.36505 0.84531 0.63589 -0.05000
C 	C 	0.33621 0.85305 0.66584 -0.01400
H 	H 	0.32881 0.88369 0.67421 0.01800
C 	C 	0.31664 0.82118 0.68525 -0.08200
H 	H 	0.29445 0.82756 0.70827 0.04200
C 	C 	0.32563 0.78125 0.67495 0.06200
C 	C 	0.35436 0.77330 0.64513 -0.10800
H 	H 	0.36122 0.74236 0.63730 0.05300
C 	C 	0.37414 0.80502 0.62558 0.06800
C 	C 	0.30495 0.74722 0.69514 -0.09100
C 	C 	0.32224 0.73007 0.73012 0.08000
C 	C 	0.36015 0.74883 0.74750 -0.19600
C 	C 	0.26967 0.67806 0.73030 0.07900
C 	C 	0.25000 0.64101 0.74842 -0.19500
C 	C 	0.27016 0.72991 0.67762 0.08000
C 	C 	0.25137 0.74741 0.63981 -0.19500
H 	H 	0.37130 0.73394 0.77513 0.06900
H 	H 	0.35427 0.78079 0.75530 0.06600
H 	H 	0.38474 0.74747 0.72491 0.06800
H 	H 	0.26611 0.77530 0.62904 0.06700
H 	H 	0.21935 0.75497 0.64565 0.06300
H 	H 	0.25295 0.72501 0.61507 0.06600
H 	H 	0.26378 0.63107 0.77709 0.06600
H 	H 	0.21784 0.64742 0.75489 0.06300
H 	H 	0.25192 0.61556 0.72685 0.06600
C 	C 	0.12296 0.61620 0.61502 0.03600
C 	C 	0.13093 0.58601 0.58622 -0.18800
C 	C 	0.17137 0.57600 0.57794 0.06500
C 	C 	0.20294 0.59537 0.59770 -0.10900
C 	C 	0.38612 0.61725 0.87709 0.03600
C 	C 	0.41325 0.58555 0.86916 -0.18200
C 	C 	0.41909 0.57340 0.82888 0.06400
C 	C 	0.39866 0.59225 0.79743 -0.10600
C 	C 	0.38491 0.87705 0.61609 0.03600
C 	C 	0.41388 0.86908 0.58608 -0.18200
C 	C 	0.42248 0.82862 0.57637 0.06400
C 	C 	0.40287 0.79706 0.59587 -0.10700
H 	H 	0.38113 0.62718 0.90776 0.00300
H 	H 	0.43949 0.54907 0.82151 0.02600
H 	H 	0.40385 0.58214 0.76685 0.05000
H 	H 	0.37777 0.90785 0.62412 0.00300
H 	H 	0.44450 0.82116 0.55352 0.02600
H 	H 	0.41019 0.76635 0.58766 0.05000
H 	H 	0.09217 0.62449 0.62189 -0.00600
H 	H 	0.17884 0.55300 0.55608 0.02500
H 	H 	0.23364 0.58692 0.59062 0.05000
C 	C 	0.63549 0.15449 0.63556 -0.05400
C 	C 	0.66477 0.14662 0.66504 -0.01500
H 	H 	0.67249 0.11595 0.67299 0.01000
C 	C 	0.68437 0.17841 0.68458 -0.08400
H 	H 	0.70687 0.17194 0.70726 0.04000
C 	C 	0.67494 0.21839 0.67487 0.06100
C 	C 	0.64578 0.22648 0.64550 -0.10800
H 	H 	0.63860 0.25746 0.63811 0.05400
C 	C 	0.62601 0.19482 0.62578 0.06800
C 	C 	0.69542 0.25231 0.69537 -0.09100
C 	C 	0.63549 0.36462 0.84526 -0.04900
C 	C 	0.66507 0.33540 0.85299 -0.01300
H 	H 	0.67315 0.32768 0.88363 0.01800
C 	C 	0.68450 0.31585 0.82111 -0.08200
H 	H 	0.70726 0.29340 0.82748 0.04200
C 	C 	0.67462 0.32527 0.78117 0.06300
C 	C 	0.64515 0.35436 0.77323 -0.10800
H 	H 	0.63762 0.36155 0.74229 0.05300
C 	C 	0.62554 0.37409 0.80498 0.06800
C 	C 	0.69508 0.30483 0.74710 -0.09100
C 	C 	0.84536 0.36422 0.63517 -0.04900
C 	C 	0.85315 0.33447 0.66419 -0.01400
H 	H 	0.88380 0.32630 0.67176 0.01800
C 	C 	0.82131 0.31499 0.68375 -0.08200
H 	H 	0.82772 0.29214 0.70610 0.04200
C 	C 	0.78135 0.32501 0.67455 0.06200
C 	C 	0.77335 0.35467 0.64566 -0.10700
H 	H 	0.74240 0.36233 0.63868 0.05300
C 	C 	0.80506 0.37430 0.62589 0.06800
C 	C 	0.74736 0.30475 0.69523 -0.09100
C 	C 	0.73040 0.26961 0.67806 0.07900
C 	C 	0.74971 0.25171 0.64069 -0.19500
C 	C 	0.67792 0.26974 0.73017 0.07900
C 	C 	0.64042 0.25200 0.74937 -0.19500
C 	C 	0.72992 0.32228 0.72995 0.08000
C 	C 	0.74744 0.36001 0.74887 -0.19700
H 	H 	0.73531 0.22357 0.63013 0.06600
H 	H 	0.78171 0.24446 0.64699 0.06300
H 	H 	0.74825 0.27376 0.61562 0.06700
H 	H 	0.77547 0.37065 0.73433 0.06900
H 	H 	0.75475 0.35411 0.78094 0.06600
H 	H 	0.72515 0.38484 0.74716 0.06800
H 	H 	0.62991 0.22380 0.73507 0.06600
H 	H 	0.64654 0.24493 0.78145 0.06300
H 	H 	0.61539 0.27408 0.74766 0.06600
C 	C 	0.61573 0.38452 0.87702 0.03600
C 	C 	0.58606 0.41385 0.86906 -0.18200
C 	C 	0.57666 0.42277 0.82860 0.06400
C 	C 	0.59614 0.40315 0.79703 -0.10700
C 	C 	0.61556 0.12282 0.61570 0.03600
C 	C 	0.58617 0.13089 0.58612 -0.18800
C 	C 	0.57724 0.17138 0.57689 0.06500
C 	C 	0.59690 0.20288 0.59647 -0.10900
C 	C 	0.87708 0.38406 0.61529 0.03600
C 	C 	0.86908 0.41390 0.58614 -0.18200
C 	C 	0.82861 0.42339 0.57738 0.06400
C 	C 	0.79706 0.40386 0.59701 -0.10700
H 	H 	0.62300 0.09200 0.62336 -0.00600
H 	H 	0.55490 0.17891 0.55437 0.02500
H 	H 	0.58929 0.23362 0.58863 0.05000
H 	H 	0.90789 0.37619 0.62257 0.00300
H 	H 	0.82112 0.44610 0.55522 0.02600
H 	H 	0.76634 0.41191 0.58955 0.05000
H 	H 	0.62352 0.37711 0.90782 0.00400
H 	H 	0.55408 0.44507 0.82114 0.02600
H 	H 	0.58818 0.41074 0.76632 0.05000
C 	C 	0.36453 0.15452 0.63555 -0.05500
C 	C 	0.33512 0.14666 0.66491 -0.01600
H 	H 	0.32724 0.11600 0.67271 0.00800
C 	C 	0.31559 0.17846 0.68449 -0.08500
H 	H 	0.29296 0.17200 0.70705 0.03700
C 	C 	0.32521 0.21844 0.67495 0.06100
C 	C 	0.35450 0.22651 0.64570 -0.10800
H 	H 	0.36181 0.25748 0.63842 0.05400
C 	C 	0.37422 0.19484 0.62596 0.06800
C 	C 	0.30470 0.25237 0.69540 -0.09100
C 	C 	0.15476 0.36459 0.63543 -0.05500
C 	C 	0.14705 0.33535 0.66499 -0.01500
H 	H 	0.11642 0.32763 0.67308 0.00700
C 	C 	0.17895 0.31582 0.68441 -0.08500
H 	H 	0.17259 0.29336 0.70717 0.03600
C 	C 	0.21887 0.32525 0.67453 0.06200
C 	C 	0.22680 0.35434 0.64505 -0.10900
H 	H 	0.25774 0.36152 0.63750 0.05300
C 	C 	0.19505 0.37407 0.62546 0.06900
C 	C 	0.25296 0.30486 0.69500 -0.09200
C 	C 	0.36472 0.36438 0.84533 -0.05000
C 	C 	0.33551 0.33481 0.85309 -0.01500
H 	H 	0.32775 0.32681 0.88374 0.01500
C 	C 	0.31600 0.31530 0.82124 -0.08200
H 	H 	0.29350 0.29260 0.82764 0.03900
C 	C 	0.32544 0.32512 0.78129 0.06100
C 	C 	0.35451 0.35460 0.77331 -0.10700
H 	H 	0.36168 0.36211 0.74236 0.05300
C 	C 	0.37424 0.37425 0.80502 0.06700
C 	C 	0.30481 0.30484 0.74728 -0.09100
C 	C 	0.32200 0.26971 0.73036 0.07800
C 	C 	0.35940 0.25185 0.74968 -0.19400
C 	C 	0.26991 0.26977 0.67787 0.07700
C 	C 	0.25075 0.25201 0.64036 -0.19300
C 	C 	0.27010 0.32236 0.72981 0.07800
C 	C 	0.25121 0.36015 0.74724 -0.19400
H 	H 	0.36997 0.22371 0.73531 0.06500
H 	H 	0.35312 0.24465 0.78170 0.06200
H 	H 	0.38445 0.27392 0.74818 0.06600
H 	H 	0.26576 0.37085 0.77525 0.06600
H 	H 	0.21913 0.35430 0.75456 0.06100
H 	H 	0.25295 0.38492 0.72489 0.06600
H 	H 	0.26506 0.22380 0.62988 0.06300
H 	H 	0.21866 0.24493 0.64646 0.05800
H 	H 	0.25247 0.27407 0.61533 0.06400
C 	C 	0.12300 0.38451 0.61570 0.03600
C 	C 	0.13094 0.41385 0.58605 -0.18800
C 	C 	0.17139 0.42278 0.57664 0.06500
C 	C 	0.20298 0.40315 0.59608 -0.10900
C 	C 	0.38439 0.12284 0.61565 0.03500
C 	C 	0.41389 0.13089 0.58617 -0.18800
C 	C 	0.42304 0.17138 0.57713 0.06500
C 	C 	0.40345 0.20289 0.59676 -0.10900
C 	C 	0.38456 0.38424 0.87706 0.03500
C 	C 	0.41389 0.41389 0.86908 -0.18300
C 	C 	0.42288 0.42319 0.82861 0.06400
C 	C 	0.40330 0.40363 0.79705 -0.10700
H 	H 	0.37682 0.09201 0.62317 -0.00700
H 	H 	0.44549 0.17890 0.55472 0.02500
H 	H 	0.41122 0.23363 0.58907 0.05000
H 	H 	0.37709 0.37653 0.90786 0.00200
H 	H 	0.44519 0.44575 0.82113 0.02600
H 	H 	0.41094 0.41152 0.76633 0.05000
H 	H 	0.09220 0.37710 0.62351 -0.00700
H 	H 	0.17884 0.44510 0.55407 0.02500
H 	H 	0.23369 0.41074 0.58810 0.05000
C 	C 	0.36437 0.84543 0.36468 -0.05000
C 	C 	0.33461 0.85326 0.33566 -0.01500
H 	H 	0.32638 0.88392 0.32820 0.01600
C 	C 	0.31517 0.82144 0.31603 -0.08200
H 	H 	0.29226 0.82788 0.29376 0.03900
C 	C 	0.32523 0.78149 0.32517 0.06100
C 	C 	0.35488 0.77344 0.35405 -0.10700
H 	H 	0.36253 0.74248 0.36101 0.05400
C 	C 	0.37451 0.80512 0.37385 0.06700
C 	C 	0.30477 0.74755 0.30472 -0.09000
C 	C 	0.15478 0.63577 0.36496 -0.05500
C 	C 	0.14709 0.66586 0.33626 -0.01500
H 	H 	0.11647 0.67446 0.32904 0.00700
C 	C 	0.17899 0.68518 0.31663 -0.08500
H 	H 	0.17264 0.70836 0.29460 0.03600
C 	C 	0.21890 0.67467 0.32544 0.06200
C 	C 	0.22680 0.64469 0.35401 -0.10900
H 	H 	0.25773 0.63669 0.36074 0.05300
C 	C 	0.19505 0.62518 0.37381 0.06900
C 	C 	0.25299 0.69508 0.30500 -0.09100
C 	C 	0.36519 0.63609 0.15466 -0.05500
C 	C 	0.33688 0.66653 0.14691 -0.01600
H 	H 	0.33001 0.67538 0.11628 0.00800
C 	C 	0.31715 0.68584 0.17875 -0.08500
H 	H 	0.29540 0.70926 0.17236 0.03600
C 	C 	0.32548 0.67498 0.21867 0.06200
C 	C 	0.35362 0.64460 0.22664 -0.10900
H 	H 	0.35994 0.63628 0.25757 0.05300
C 	C 	0.37356 0.62513 0.19494 0.06800
C 	C 	0.30481 0.69523 0.25268 -0.09100
C 	C 	0.32205 0.73029 0.26971 0.07800
C 	C 	0.35951 0.74812 0.25048 -0.19400
C 	C 	0.27002 0.73008 0.32226 0.07800
C 	C 	0.25102 0.74761 0.35997 -0.19400
C 	C 	0.27006 0.67772 0.27008 0.07700
C 	C 	0.25100 0.64015 0.25240 -0.19300
H 	H 	0.37025 0.77609 0.26507 0.06600
H 	H 	0.35322 0.75564 0.21854 0.06100
H 	H 	0.38445 0.72592 0.25176 0.06600
H 	H 	0.26521 0.62986 0.22406 0.06300
H 	H 	0.21883 0.64606 0.24554 0.05800
H 	H 	0.25303 0.61509 0.27441 0.06400
H 	H 	0.26561 0.77554 0.37080 0.06600
H 	H 	0.21901 0.75505 0.35397 0.06100
H 	H 	0.25255 0.72525 0.38476 0.06600
C 	C 	0.12301 0.61613 0.38494 0.03600
C 	C 	0.13094 0.58595 0.41376 -0.18800
C 	C 	0.17138 0.57590 0.42205 0.06500
C 	C 	0.20297 0.59526 0.40233 -0.10900
C 	C 	0.38413 0.87713 0.38465 0.03500
C 	C 	0.41397 0.86910 0.41378 -0.18300
C 	C 	0.42357 0.82863 0.42241 0.06400
C 	C 	0.40409 0.79710 0.40270 -0.10700
C 	C 	0.38527 0.61646 0.12295 0.03500
C 	C 	0.41372 0.58595 0.13092 -0.18800
C 	C 	0.42157 0.57556 0.17136 0.06500
C 	C 	0.40174 0.59489 0.20290 -0.10900
H 	H 	0.37619 0.90794 0.37746 0.00200
H 	H 	0.44632 0.82112 0.44452 0.02600
H 	H 	0.41221 0.76637 0.41006 0.05000
H 	H 	0.37870 0.62502 0.09216 -0.00700
H 	H 	0.44313 0.55228 0.17882 0.02500
H 	H 	0.40847 0.58614 0.23360 0.05000
H 	H 	0.09223 0.62441 0.37803 -0.00700
H 	H 	0.17881 0.55287 0.44389 0.02500
H 	H 	0.23366 0.58679 0.40943 0.05000
C 	C 	0.84548 0.63551 0.63550 -0.04900
C 	C 	0.85333 0.66483 0.66495 -0.01300
H 	H 	0.88399 0.67259 0.67287 0.02100
C 	C 	0.82152 0.68441 0.68448 -0.08100
H 	H 	0.82798 0.70693 0.70714 0.04600
C 	C 	0.78155 0.67492 0.67480 0.06200
C 	C 	0.77348 0.64574 0.64545 -0.10700
H 	H 	0.74251 0.63852 0.63808 0.05400
C 	C 	0.80515 0.62598 0.62575 0.06800
C 	C 	0.74762 0.69537 0.69530 -0.09000
C 	C 	0.63529 0.63554 0.84523 -0.04900
C 	C 	0.66431 0.66531 0.85294 -0.01200
H 	H 	0.67183 0.67361 0.88356 0.02000
C 	C 	0.68389 0.68468 0.82104 -0.08100
H 	H 	0.70617 0.70762 0.82739 0.04500
C 	C 	0.67471 0.67454 0.78112 0.06400
C 	C 	0.64583 0.64485 0.77320 -0.10800
H 	H 	0.63883 0.63713 0.74227 0.05300
C 	C 	0.62607 0.62530 0.80495 0.06800
C 	C 	0.69511 0.69499 0.74703 -0.09200
C 	C 	0.63562 0.84532 0.63527 -0.04900
C 	C 	0.66515 0.85308 0.66453 -0.01300
H 	H 	0.67312 0.88372 0.67233 0.02000
C 	C 	0.68467 0.82122 0.68402 -0.08100
H 	H 	0.70733 0.82761 0.70656 0.04500
C 	C 	0.67489 0.78127 0.67452 0.06300
C 	C 	0.64546 0.77330 0.64540 -0.10700
H 	H 	0.63799 0.74234 0.63819 0.05300
C 	C 	0.62580 0.80502 0.62569 0.06800
C 	C 	0.69515 0.74726 0.69516 -0.09100
C 	C 	0.73029 0.73033 0.67798 0.08100
C 	C 	0.74815 0.74963 0.64058 -0.19700
C 	C 	0.73021 0.67785 0.73009 0.08100
C 	C 	0.74796 0.64035 0.74927 -0.19700
C 	C 	0.67761 0.72979 0.72987 0.08200
C 	C 	0.63979 0.74720 0.74870 -0.19700
H 	H 	0.77632 0.73529 0.63005 0.07000
H 	H 	0.75531 0.78166 0.64683 0.06800
H 	H 	0.72610 0.74807 0.61551 0.06800
H 	H 	0.62900 0.77512 0.73406 0.07000
H 	H 	0.64563 0.75463 0.78075 0.06800
H 	H 	0.61506 0.72478 0.74704 0.06800
H 	H 	0.77620 0.62989 0.73500 0.07000
H 	H 	0.75498 0.64644 0.78137 0.06800
H 	H 	0.72592 0.61530 0.74750 0.06800
C 	C 	0.61534 0.61585 0.87700 0.03600
C 	C 	0.58620 0.58599 0.86906 -0.18100
C 	C 	0.57755 0.57630 0.82861 0.06400
C 	C 	0.59722 0.59570 0.79702 -0.10700
C 	C 	0.87716 0.61559 0.61566 0.03600
C 	C 	0.86911 0.58616 0.58611 -0.18100
C 	C 	0.82862 0.57717 0.57690 0.06400
C 	C 	0.79711 0.59683 0.59647 -0.10600
C 	C 	0.61575 0.87705 0.61546 0.03600
C 	C 	0.58613 0.86907 0.58609 -0.18100
C 	C 	0.57689 0.82861 0.57704 0.06400
C 	C 	0.59646 0.79705 0.59659 -0.10600
H 	H 	0.90798 0.62305 0.62330 0.00500
H 	H 	0.82110 0.55480 0.55442 0.02600
H 	H 	0.76637 0.58918 0.58865 0.05000
H 	H 	0.62341 0.90786 0.62298 0.00500
H 	H 	0.55436 0.82113 0.55469 0.02600
H 	H 	0.58862 0.76633 0.58890 0.05000
H 	H 	0.62254 0.62386 0.90779 0.00500
H 	H 	0.55543 0.55354 0.82117 0.02700
H 	H 	0.58984 0.58751 0.76632 0.05000
C 	C 	0.63552 0.84545 0.36455 -0.05000
C 	C 	0.66490 0.85329 0.33515 -0.01400
H 	H 	0.67271 0.88395 0.32727 0.01800
C 	C 	0.68445 0.82148 0.31562 -0.08200
H 	H 	0.70703 0.82792 0.29301 0.04300
C 	C 	0.67489 0.78151 0.32525 0.06100
C 	C 	0.64565 0.77345 0.35454 -0.10700
H 	H 	0.63837 0.74248 0.36187 0.05400
C 	C 	0.62591 0.80513 0.37424 0.06800
C 	C 	0.69533 0.74757 0.30476 -0.09000
C 	C 	0.63527 0.63555 0.15478 -0.05400
C 	C 	0.66448 0.66515 0.14708 -0.01400
H 	H 	0.67221 0.67324 0.11645 0.01000
C 	C 	0.68398 0.68459 0.17898 -0.08400
H 	H 	0.70644 0.70734 0.17263 0.03900
C 	C 	0.67454 0.67469 0.21891 0.06300
C 	C 	0.64545 0.64521 0.22682 -0.10900
H 	H 	0.63825 0.63767 0.25776 0.05300
C 	C 	0.62577 0.62559 0.19506 0.06900
C 	C 	0.69499 0.69509 0.25300 -0.09200
C 	C 	0.84533 0.63592 0.36503 -0.05000
C 	C 	0.85308 0.66606 0.33640 -0.01400
H 	H 	0.88372 0.67462 0.32922 0.01800
C 	C 	0.82123 0.68543 0.31675 -0.08200
H 	H 	0.82762 0.70861 0.29474 0.04200
C 	C 	0.78130 0.67492 0.32548 0.06200
C 	C 	0.77333 0.64486 0.35396 -0.10700
H 	H 	0.74239 0.63683 0.36058 0.05300
C 	C 	0.80504 0.62533 0.37381 0.06800
C 	C 	0.74729 0.69518 0.30483 -0.09100
C 	C 	0.73030 0.73027 0.32206 0.08000
C 	C 	0.74953 0.74806 0.35953 -0.19600
C 	C 	0.67779 0.73014 0.26998 0.07900
C 	C 	0.64020 0.74780 0.25089 -0.19500
C 	C 	0.72984 0.67766 0.27010 0.08000
C 	C 	0.74740 0.63997 0.25114 -0.19500
H 	H 	0.73501 0.77608 0.37025 0.06900
H 	H 	0.78150 0.75548 0.35329 0.06600
H 	H 	0.74815 0.72588 0.38449 0.06800
H 	H 	0.77555 0.62945 0.26555 0.06700
H 	H 	0.75452 0.64586 0.21903 0.06300
H 	H 	0.72519 0.61507 0.25300 0.06600
H 	H 	0.62959 0.77591 0.26531 0.06700
H 	H 	0.64624 0.75501 0.21883 0.06300
H 	H 	0.61526 0.72562 0.25257 0.06600
C 	C 	0.61542 0.61577 0.12301 0.03600
C 	C 	0.58612 0.58607 0.13094 -0.18800
C 	C 	0.57717 0.57666 0.17140 0.06500
C 	C 	0.59674 0.59617 0.20299 -0.10900
C 	C 	0.61562 0.87714 0.38439 0.03600
C 	C 	0.58614 0.86910 0.41389 -0.18200
C 	C 	0.57708 0.82862 0.42304 0.06400
C 	C 	0.59671 0.79710 0.40347 -0.10600
C 	C 	0.87705 0.61621 0.38501 0.03600
C 	C 	0.86908 0.58600 0.41378 -0.18200
C 	C 	0.82863 0.57599 0.42204 0.06400
C 	C 	0.79707 0.59540 0.40230 -0.10700
H 	H 	0.62315 0.90796 0.37679 0.00300
H 	H 	0.55466 0.82111 0.44548 0.02600
H 	H 	0.58900 0.76637 0.41124 0.05000
H 	H 	0.90785 0.62448 0.37813 0.00300
H 	H 	0.82116 0.55296 0.44386 0.02600
H 	H 	0.76637 0.58694 0.40936 0.05000
H 	H 	0.62285 0.62356 0.09222 -0.00600
H 	H 	0.55490 0.55405 0.17884 0.02500
H 	H 	0.58913 0.58819 0.23369 0.05000
C 	C 	0.36425 0.15455 0.36477 -0.05500
C 	C 	0.33443 0.14672 0.33583 -0.01700
H 	H 	0.32616 0.11606 0.32841 0.00500
C 	C 	0.31498 0.17853 0.31620 -0.08600
H 	H 	0.29202 0.17209 0.29397 0.03400
C 	C 	0.32509 0.21850 0.32526 0.06000
C 	C 	0.35482 0.22655 0.35407 -0.10800
H 	H 	0.36252 0.25751 0.36097 0.05300
C 	C 	0.37445 0.19487 0.37388 0.06800
C 	C 	0.30466 0.25243 0.30477 -0.09100
C 	C 	0.36450 0.36468 0.15479 -0.05500
C 	C 	0.33481 0.33557 0.14709 -0.01600
H 	H 	0.32659 0.32797 0.11646 0.00500
C 	C 	0.31542 0.31601 0.17899 -0.08500
H 	H 	0.29256 0.29366 0.17264 0.03300
C 	C 	0.32547 0.32530 0.21891 0.06200
C 	C 	0.35507 0.35428 0.22682 -0.10900
H 	H 	0.36272 0.36136 0.25776 0.05200
C 	C 	0.37463 0.37402 0.19506 0.06800
C 	C 	0.30502 0.30491 0.25300 -0.09100
C 	C 	0.15469 0.36415 0.36499 -0.05600
C 	C 	0.14694 0.33409 0.33627 -0.01700
H 	H 	0.11630 0.32560 0.32901 0.00500
C 	C 	0.17879 0.31470 0.31665 -0.08500
H 	H 	0.17241 0.29159 0.29457 0.03300
C 	C 	0.21873 0.32512 0.32549 0.06100
C 	C 	0.22669 0.35510 0.35405 -0.10900
H 	H 	0.25763 0.36306 0.36076 0.05300
C 	C 	0.19498 0.37464 0.37388 0.06800
C 	C 	0.25274 0.30487 0.30485 -0.09100
C 	C 	0.26972 0.26978 0.32210 0.07600
C 	C 	0.25054 0.25206 0.35963 -0.19200
C 	C 	0.32217 0.26983 0.26996 0.07600
C 	C 	0.35965 0.25204 0.25077 -0.19200
C 	C 	0.27019 0.32238 0.27013 0.07600
C 	C 	0.25270 0.36012 0.25122 -0.19200
H 	H 	0.26510 0.22411 0.37043 0.06300
H 	H 	0.21857 0.24460 0.35343 0.05700
H 	H 	0.25191 0.27431 0.38453 0.06400
H 	H 	0.22467 0.37079 0.26574 0.06200
H 	H 	0.24541 0.35425 0.21914 0.05700
H 	H 	0.27502 0.38494 0.25295 0.06400
H 	H 	0.37005 0.22376 0.26501 0.06200
H 	H 	0.35356 0.24507 0.21866 0.05700
H 	H 	0.38473 0.27405 0.25258 0.06400
C 	C 	0.38421 0.38460 0.12301 0.03500
C 	C 	0.41399 0.41383 0.13095 -0.18900
C 	C 	0.42356 0.42261 0.17139 0.06500
C 	C 	0.40414 0.40296 0.20299 -0.11000
C 	C 	0.38403 0.12286 0.38474 0.03500
C 	C 	0.41395 0.13090 0.41380 -0.18900
C 	C 	0.42360 0.17137 0.42236 0.06500
C 	C 	0.40410 0.20290 0.40265 -0.10900
C 	C 	0.12295 0.38387 0.38495 0.03500
C 	C 	0.13092 0.41399 0.41380 -0.18900
C 	C 	0.17138 0.42392 0.42216 0.06500
C 	C 	0.20294 0.40450 0.40246 -0.11000
H 	H 	0.37605 0.09205 0.37761 -0.00900
H 	H 	0.44640 0.17888 0.44441 0.02500
H 	H 	0.41227 0.23362 0.40996 0.05000
H 	H 	0.09216 0.37567 0.37797 -0.00900
H 	H 	0.17884 0.44688 0.44406 0.02500
H 	H 	0.23364 0.41287 0.40960 0.05000
H 	H 	0.37629 0.37731 0.09222 -0.00900
H 	H 	0.44624 0.44481 0.17884 0.02500
H 	H 	0.41225 0.41044 0.23369 0.05000
C 	C 	0.84550 0.36465 0.36432 -0.05000
C 	C 	0.85335 0.33573 0.33448 -0.01500
H 	H 	0.88402 0.32838 0.32618 0.01600
C 	C 	0.82156 0.31605 0.31504 -0.08200
H 	H 	0.82803 0.29386 0.29205 0.03900
C 	C 	0.78159 0.32504 0.32518 0.06000
C 	C 	0.77351 0.35382 0.35494 -0.10700
H 	H 	0.74254 0.36067 0.36266 0.05300
C 	C 	0.80517 0.37368 0.37456 0.06700
C 	C 	0.74767 0.30459 0.30467 -0.09000
C 	C 	0.63567 0.36482 0.15475 -0.05500
C 	C 	0.66545 0.33580 0.14703 -0.01500
H 	H 	0.67372 0.32826 0.11640 0.00700
C 	C 	0.68486 0.31624 0.17892 -0.08500
H 	H 	0.70777 0.29394 0.17255 0.03600
C 	C 	0.67476 0.32544 0.21885 0.06200
C 	C 	0.64509 0.35433 0.22678 -0.10900
H 	H 	0.63739 0.36134 0.25772 0.05300
C 	C 	0.62549 0.37407 0.19503 0.06900
C 	C 	0.69517 0.30496 0.25292 -0.09100
C 	C 	0.63574 0.15463 0.36478 -0.05500
C 	C 	0.66546 0.14684 0.33573 -0.01600
H 	H 	0.67360 0.11619 0.32814 0.00700
C 	C 	0.68495 0.17868 0.31616 -0.08500
H 	H 	0.70778 0.17226 0.29380 0.03600
C 	C 	0.67497 0.21863 0.32539 0.06200
C 	C 	0.64532 0.22664 0.35430 -0.10900
H 	H 	0.63767 0.25759 0.36129 0.05300
C 	C 	0.62569 0.19494 0.37408 0.06800
C 	C 	0.69525 0.25263 0.30473 -0.09100
C 	C 	0.73039 0.26957 0.32192 0.07800
C 	C 	0.74834 0.25019 0.35923 -0.19400
C 	C 	0.73022 0.32215 0.26991 0.07800
C 	C 	0.74785 0.35978 0.25086 -0.19400
C 	C 	0.67774 0.27009 0.27001 0.07700
C 	C 	0.64007 0.25253 0.25102 -0.19300
H 	H 	0.77653 0.26451 0.36973 0.06600
H 	H 	0.75551 0.21818 0.35288 0.06100
H 	H 	0.72634 0.25166 0.38435 0.06600
H 	H 	0.62955 0.22437 0.26541 0.06300
H 	H 	0.64598 0.24543 0.21891 0.05800
H 	H 	0.61515 0.27472 0.25288 0.06400
H 	H 	0.77587 0.37048 0.26536 0.06600
H 	H 	0.75516 0.35374 0.21882 0.06100
H 	H 	0.72560 0.38467 0.25245 0.06600
C 	C 	0.61592 0.38472 0.12299 0.03600
C 	C 	0.58604 0.41384 0.13094 -0.18800
C 	C 	0.57641 0.42253 0.17139 0.06500
C 	C 	0.59588 0.40290 0.20297 -0.10900
C 	C 	0.87717 0.38470 0.38405 0.03500
C 	C 	0.86911 0.41374 0.41398 -0.18200
C 	C 	0.82863 0.42222 0.42367 0.06400
C 	C 	0.79712 0.40244 0.40422 -0.10700
C 	C 	0.61592 0.12291 0.38468 0.03500
C 	C 	0.58610 0.13092 0.41385 -0.18800
C 	C 	0.57663 0.17139 0.42263 0.06500
C 	C 	0.59616 0.20293 0.40299 -0.10900
H 	H 	0.90799 0.37763 0.37603 0.00200
H 	H 	0.82111 0.44426 0.44648 0.02600
H 	H 	0.76639 0.40968 0.41242 0.05000
H 	H 	0.62377 0.09210 0.37739 -0.00700
H 	H 	0.55395 0.17888 0.44482 0.02500
H 	H 	0.58813 0.23366 0.41046 0.05000
H 	H 	0.62389 0.37749 0.09219 -0.00700
H 	H 	0.55365 0.44465 0.17885 0.02500
H 	H 	0.58773 0.41032 0.23368 0.05000
