data_crystal

_cell_length_a 43.65740
_cell_length_b 43.65740
_cell_length_c 11.52130
_cell_angle_alpha 90.00000
_cell_angle_beta  90.00000
_cell_angle_gamma 120.00000

_symmetry_space_group_name_	'P 1'
_symmetry_space_group_name_H-M	'P 1'

loop_
_symmetry_equiv_pos_as_xyz
  x,y,z

loop_
_atom_site_label
_atom_site_type_symbol
_atom_site_fract_x
_atom_site_fract_y
_atom_site_fract_z
_atom_site_charge
Zn	Zn	0.88860 0.71629 0.17686 1.20300
Zn	Zn	0.71234 0.82537 0.59468 1.20600
N 	N 	0.88820 0.66690 0.20250 -0.21300
N 	N 	0.84230 0.68910 0.27190 -0.25600
N 	N 	0.65940 0.78220 0.58220 -0.22100
O 	O 	0.90430 0.71990 0.01400 -0.46100
O 	O 	0.87900 0.75570 0.15620 -0.46000
O 	O 	0.74980 0.87540 0.62870 -0.46800
O 	O 	0.71750 0.81100 0.74900 -0.44900
N 	N 	0.00620 0.61050 0.78050 -0.13600
C 	C 	0.02350 0.64710 0.77330 0.07300
H 	H 	0.04710 0.65980 0.74510 0.00300
C 	C 	0.00640 0.66530 0.80740 -0.15300
H 	H 	0.01830 0.69030 0.80250 0.08400
C 	C 	0.97190 0.64670 0.84870 0.11500
C 	C 	0.95450 0.61000 0.85590 -0.14800
H 	H 	0.93090 0.59730 0.88410 0.07300
C 	C 	0.97160 0.59190 0.82180 0.07600
H 	H 	0.95980 0.56680 0.82670 0.00400
C 	C 	0.96670 0.75990 0.87060 0.48800
C 	C 	0.95370 0.66690 0.88980 -0.09500
C 	C 	0.92440 0.64990 0.96210 0.06000
H 	H 	0.91550 0.62580 0.98270 0.00700
C 	C 	0.90820 0.66810 0.00430 -0.16300
C 	C 	0.92130 0.70330 0.97420 0.27600
C 	C 	0.95060 0.72030 0.90190 -0.25600
C 	C 	0.96680 0.70210 0.85970 0.09100
H 	H 	0.98680 0.71380 0.81030 -0.00800
C 	C 	0.98210 0.78430 0.97900 -0.60100
H 	H 	0.96340 0.77730 0.03760 0.17800
H 	H 	0.00160 0.78200 0.01150 0.17400
H 	H 	0.99080 0.80900 0.95620 0.17800
C 	C 	0.93950 0.76620 0.80430 -0.75400
H 	H 	0.91800 0.75770 0.85120 0.25100
H 	H 	0.94960 0.79160 0.78930 0.21900
H 	H 	0.93360 0.75340 0.73040 0.23800
C 	C 	0.99870 0.77420 0.78920 -0.71600
H 	H 	0.00740 0.79930 0.77350 0.20900
H 	H 	0.01750 0.77150 0.82590 0.22300
H 	H 	0.99170 0.76090 0.71610 0.23000
C 	C 	0.87790 0.64810 0.08940 -0.01700
H 	H 	0.85610 0.64710 0.06000 -0.00800
H 	H 	0.87310 0.62350 0.09880 0.02800
C 	C 	0.86330 0.64860 0.30320 -0.02100
H 	H 	0.87620 0.66220 0.37390 0.02900
C 	C 	0.85620 0.61130 0.32290 -0.09500
H 	H 	0.87860 0.61080 0.32430 0.04700
H 	H 	0.84090 0.59530 0.26080 0.03700
C 	C 	0.83720 0.60000 0.44260 -0.09400
H 	H 	0.83320 0.57620 0.46300 0.03600
H 	H 	0.85260 0.61680 0.50300 0.05400
C 	C 	0.80330 0.59920 0.44140 -0.04800
H 	H 	0.79200 0.59220 0.51880 0.02600
H 	H 	0.78720 0.58160 0.38390 0.01900
C 	C 	0.80960 0.63590 0.40960 -0.13800
H 	H 	0.82200 0.65220 0.47480 0.06500
H 	H 	0.78640 0.63450 0.40040 0.06000
C 	C 	0.83160 0.65190 0.29620 0.01200
H 	H 	0.81700 0.63730 0.22930 0.01600
C 	C 	0.82910 0.73760 0.27990 -0.17300
C 	C 	0.80620 0.74660 0.33410 0.04100
H 	H 	0.78800 0.73000 0.38330 0.01400
C 	C 	0.81000 0.77980 0.31630 -0.09700
C 	C 	0.83670 0.80400 0.24430 0.08200
H 	H 	0.83930 0.82670 0.23210 -0.02500
C 	C 	0.85960 0.79510 0.19000 -0.27800
C 	C 	0.85580 0.76190 0.20780 0.28000
C 	C 	0.88840 0.82240 0.11240 0.51000
C 	C 	0.88480 0.80870 0.98070 -0.70200
H 	H 	0.86150 0.80260 0.95040 0.21200
H 	H 	0.90320 0.82740 0.93290 0.20500
H 	H 	0.88750 0.78770 0.97890 0.23600
C 	C 	0.92420 0.83210 0.16300 -0.80200
H 	H 	0.94290 0.84970 0.11280 0.22500
H 	H 	0.92640 0.84190 0.24060 0.24400
H 	H 	0.92650 0.81090 0.16680 0.25700
C 	C 	0.88570 0.85630 0.10250 -0.73700
H 	H 	0.86260 0.85030 0.07010 0.20500
H 	H 	0.88820 0.86680 0.17960 0.21500
H 	H 	0.90440 0.87330 0.05150 0.20100
C 	C 	0.78370 0.78860 0.38140 0.08200
C 	C 	0.75820 0.76540 0.45840 -0.14000
H 	H 	0.75580 0.74280 0.47280 0.07600
C 	C 	0.73610 0.77500 0.51440 0.04700
H 	H 	0.71860 0.75910 0.56710 -0.00600
N 	N 	0.73950 0.80800 0.49340 -0.25800
C 	C 	0.76510 0.83120 0.41630 0.04100
H 	H 	0.76750 0.85380 0.40190 -0.01600
C 	C 	0.78720 0.82160 0.36030 -0.14200
H 	H 	0.80470 0.83750 0.30760 0.05500
C 	C 	0.81850 0.93200 0.68520 0.67600
N 	N 	0.81170 0.06610 0.27680 -0.25500
C 	C 	0.83230 0.06540 0.36760 0.04800
H 	H 	0.85330 0.08630 0.38930 -0.01600
C 	C 	0.82210 0.03390 0.42670 -0.15100
H 	H 	0.83620 0.03350 0.48870 0.06100
C 	C 	0.79140 0.00330 0.39490 0.09600
C 	C 	0.77080 0.00400 0.30410 -0.13400
H 	H 	0.74980 0.98300 0.28240 0.06800
C 	C 	0.78090 0.03540 0.24510 0.04500
H 	H 	0.76690 0.03590 0.18300 -0.00800
C 	C 	0.79980 0.91940 0.80250 -0.93400
H 	H 	0.79340 0.93650 0.83180 0.28000
H 	H 	0.77840 0.89630 0.79300 0.30400
H 	H 	0.81570 0.91730 0.85790 0.26900
C 	C 	0.77960 0.96870 0.46180 -0.12000
C 	C 	0.74690 0.93920 0.43810 0.05600
H 	H 	0.73140 0.94070 0.38380 0.00700
C 	C 	0.73700 0.90730 0.49380 -0.18200
C 	C 	0.75970 0.90500 0.57320 0.30700
C 	C 	0.79240 0.93460 0.59690 -0.32700
C 	C 	0.80230 0.96640 0.54120 0.11400
H 	H 	0.82460 0.98660 0.55740 -0.04000
C 	C 	0.82780 0.90520 0.64360 -0.94500
H 	H 	0.80620 0.88240 0.63300 0.29400
H 	H 	0.84050 0.91300 0.56960 0.27700
H 	H 	0.84300 0.90270 0.70110 0.26800
C 	C 	0.85300 0.96710 0.70070 -0.90000
H 	H 	0.84770 0.98520 0.72790 0.25600
H 	H 	0.86800 0.96410 0.75770 0.25200
H 	H 	0.86540 0.97450 0.62620 0.26000
C 	C 	0.70290 0.87730 0.45040 0.08200
H 	H 	0.68810 0.88280 0.40520 0.00300
C 	C 	0.65950 0.81710 0.41430 0.00500
H 	H 	0.66660 0.80350 0.36190 0.02100
C 	C 	0.63780 0.82800 0.34230 -0.11600
H 	H 	0.62900 0.84040 0.39250 0.05600
H 	H 	0.65300 0.84480 0.28170 0.05300
C 	C 	0.60770 0.79780 0.28700 -0.08100
H 	H 	0.61660 0.78770 0.22790 0.04500
H 	H 	0.59310 0.80600 0.24690 0.03200
C 	C 	0.58380 0.76790 0.37880 -0.06000
H 	H 	0.57050 0.77620 0.42630 0.02100
H 	H 	0.56640 0.74640 0.33650 0.02300
C 	C 	0.60420 0.75880 0.45420 -0.11600
H 	H 	0.61300 0.74540 0.40920 0.06100
H 	H 	0.58870 0.74310 0.51640 0.03800
C 	C 	0.63620 0.79130 0.51030 -0.00800
H 	H 	0.62710 0.80360 0.56110 0.02100
C 	C 	0.64340 0.76670 0.69810 -0.04200
H 	H 	0.64070 0.78460 0.74300 0.01500
H 	H 	0.61950 0.74610 0.68580 0.03600
C 	C 	0.66460 0.75550 0.76630 -0.10300
C 	C 	0.70030 0.77710 0.79140 0.22600
C 	C 	0.71784 0.76450 0.85950 -0.24800
C 	C 	0.69970 0.73010 0.90230 0.07000
H 	H 	0.71170 0.72150 0.94880 -0.00100
C 	C 	0.66400 0.70844 0.87710 -0.06700
C 	C 	0.64648 0.72110 0.80910 0.00700
H 	H 	0.62210 0.70630 0.79190 0.01400
C 	C 	0.75820 0.78780 0.89100 0.55800
C 	C 	0.82300 0.70370 0.29620 0.06300
H 	H 	0.80090 0.68800 0.33120 0.01400
C 	C 	0.76540 0.82210 0.95320 -0.76300
H 	H 	0.75640 0.83450 0.90570 0.25400
H 	H 	0.75350 0.81620 0.02870 0.22900
H 	H 	0.79090 0.83730 0.96470 0.22400
C 	C 	0.78090 0.80220 0.78100 -0.80500
H 	H 	0.77190 0.81440 0.73290 0.25100
H 	H 	0.80550 0.81870 0.80270 0.23100
H 	H 	0.77990 0.78250 0.73680 0.24900
C 	C 	0.77230 0.76880 0.96560 -0.80400
H 	H 	0.75780 0.75960 0.03580 0.24200
H 	H 	0.77130 0.74910 0.92160 0.25500
H 	H 	0.79690 0.78530 0.98740 0.24600
C 	C 	0.64400 0.66840 0.91780 0.09300
C 	C 	0.60750 0.64870 0.90350 -0.13200
H 	H 	0.59510 0.65950 0.87160 0.06200
C 	C 	0.58920 0.61330 0.93590 0.06400
H 	H 	0.56430 0.59990 0.92620 0.00900
N 	N 	0.60740 0.59760 0.98260 -0.13300
C 	C 	0.64390 0.61740 0.99690 0.09400
H 	H 	0.65630 0.60660 0.02880 -0.01900
C 	C 	0.66210 0.65280 0.96450 -0.14700
H 	H 	0.68710 0.66620 0.97420 0.08500
N 	N 	0.69250 0.84520 0.46980 -0.25700
Zn	Zn	0.28371 0.17231 0.17686 1.20200
Zn	Zn	0.17463 0.88697 0.59468 1.20500
N 	N 	0.33310 0.22130 0.20250 -0.21500
N 	N 	0.31090 0.15320 0.27190 -0.25700
N 	N 	0.21780 0.87720 0.58220 -0.22100
O 	O 	0.28010 0.18440 0.01400 -0.46400
O 	O 	0.24430 0.12330 0.15620 -0.46000
O 	O 	0.12460 0.87440 0.62870 -0.46700
O 	O 	0.18900 0.90650 0.74900 -0.44800
N 	N 	0.38950 0.39570 0.78050 -0.13100
C 	C 	0.35290 0.37640 0.77330 0.06800
H 	H 	0.34020 0.38730 0.74510 0.00500
C 	C 	0.33470 0.34110 0.80740 -0.14100
H 	H 	0.30970 0.32800 0.80250 0.08100
C 	C 	0.35330 0.32520 0.84870 0.10400
C 	C 	0.39000 0.34450 0.85590 -0.14100
H 	H 	0.40270 0.33360 0.88410 0.07100
C 	C 	0.40810 0.37970 0.82180 0.06700
H 	H 	0.43320 0.39300 0.82670 0.00600
C 	C 	0.24010 0.20680 0.87060 0.51100
C 	C 	0.33310 0.28680 0.88980 -0.09400
C 	C 	0.35010 0.27450 0.96210 0.06100
H 	H 	0.37420 0.28970 0.98270 0.00700
C 	C 	0.33190 0.24010 0.00430 -0.16500
C 	C 	0.29670 0.21800 0.97420 0.28000
C 	C 	0.27970 0.23030 0.90190 -0.26500
C 	C 	0.29790 0.26470 0.85970 0.09400
H 	H 	0.28620 0.27300 0.81030 -0.01100
C 	C 	0.21570 0.19780 0.97900 -0.63500
H 	H 	0.22270 0.18610 0.03760 0.18600
H 	H 	0.21800 0.21960 0.01150 0.18700
H 	H 	0.19100 0.18180 0.95620 0.18500
C 	C 	0.23380 0.17330 0.80430 -0.77200
H 	H 	0.24230 0.16030 0.85120 0.25600
H 	H 	0.20840 0.15800 0.78930 0.22300
H 	H 	0.24660 0.18020 0.73040 0.24300
C 	C 	0.22580 0.22450 0.78920 -0.76900
H 	H 	0.20070 0.20810 0.77350 0.22800
H 	H 	0.22850 0.24600 0.82590 0.24200
H 	H 	0.23910 0.23080 0.71610 0.24400
C 	C 	0.35190 0.22980 0.08940 -0.01700
H 	H 	0.35290 0.20900 0.06000 -0.00900
H 	H 	0.37650 0.24960 0.09880 0.02700
C 	C 	0.35140 0.21470 0.30320 -0.02100
H 	H 	0.33780 0.21400 0.37390 0.02900
C 	C 	0.38870 0.24490 0.32290 -0.09500
H 	H 	0.38920 0.26780 0.32430 0.04700
H 	H 	0.40470 0.24560 0.26080 0.03700
C 	C 	0.40000 0.23720 0.44260 -0.09400
H 	H 	0.42380 0.25700 0.46300 0.03600
H 	H 	0.38320 0.23580 0.50300 0.05300
C 	C 	0.40080 0.20410 0.44140 -0.04800
H 	H 	0.40780 0.19980 0.51880 0.02600
H 	H 	0.41840 0.20560 0.38390 0.01900
C 	C 	0.36410 0.17370 0.40960 -0.13800
H 	H 	0.34780 0.16980 0.47480 0.06500
H 	H 	0.36550 0.15190 0.40040 0.06000
C 	C 	0.34810 0.17970 0.29620 0.01200
H 	H 	0.36270 0.17970 0.22930 0.01600
C 	C 	0.26240 0.09150 0.27990 -0.17100
C 	C 	0.25340 0.05960 0.33410 0.03800
H 	H 	0.27000 0.05800 0.38330 0.01500
C 	C 	0.22020 0.03020 0.31630 -0.09100
C 	C 	0.19600 0.03270 0.24430 0.08000
H 	H 	0.17330 0.01260 0.23210 -0.02300
C 	C 	0.20490 0.06450 0.19000 -0.27700
C 	C 	0.23810 0.09390 0.20780 0.27900
C 	C 	0.17760 0.06600 0.11240 0.51000
C 	C 	0.19130 0.07610 0.98070 -0.70300
H 	H 	0.19740 0.05890 0.95040 0.21400
H 	H 	0.17260 0.07580 0.93290 0.20500
H 	H 	0.21230 0.09980 0.97890 0.23600
C 	C 	0.16790 0.09210 0.16300 -0.80100
H 	H 	0.15030 0.09320 0.11280 0.22400
H 	H 	0.15810 0.08450 0.24060 0.24400
H 	H 	0.18910 0.11560 0.16680 0.25600
C 	C 	0.14370 0.02940 0.10250 -0.73900
H 	H 	0.14970 0.01230 0.07010 0.20700
H 	H 	0.13320 0.02140 0.17960 0.21600
H 	H 	0.12670 0.03110 0.05150 0.20200
C 	C 	0.21140 0.99510 0.38140 0.08000
C 	C 	0.23460 0.99280 0.45840 -0.15000
H 	H 	0.25720 0.01300 0.47280 0.08300
C 	C 	0.22500 0.96110 0.51440 0.05200
H 	H 	0.24090 0.95950 0.56710 -0.00900
N 	N 	0.19200 0.93150 0.49340 -0.25900
C 	C 	0.16880 0.93390 0.41630 0.04100
H 	H 	0.14620 0.91370 0.40190 -0.01600
C 	C 	0.17840 0.96560 0.36030 -0.14100
H 	H 	0.16250 0.96720 0.30760 0.05300
C 	C 	0.06800 0.88650 0.68520 0.67400
N 	N 	0.93390 0.74560 0.27680 -0.25500
C 	C 	0.93460 0.76690 0.36760 0.04800
H 	H 	0.91370 0.76700 0.38930 -0.01600
C 	C 	0.96610 0.78820 0.42670 -0.15100
H 	H 	0.96650 0.80270 0.48870 0.06100
C 	C 	0.99670 0.78810 0.39490 0.09500
C 	C 	0.99600 0.76680 0.30410 -0.13400
H 	H 	0.01700 0.76680 0.28240 0.06800
C 	C 	0.96460 0.74550 0.24510 0.04400
H 	H 	0.96410 0.73100 0.18300 -0.00800
C 	C 	0.08060 0.88040 0.80250 -0.93200
H 	H 	0.06350 0.85690 0.83180 0.27900
H 	H 	0.10370 0.88210 0.79300 0.30300
H 	H 	0.08270 0.89840 0.85790 0.26800
C 	C 	0.03130 0.81090 0.46180 -0.12000
C 	C 	0.06080 0.80770 0.43810 0.05500
H 	H 	0.05930 0.79070 0.38380 0.00700
C 	C 	0.09270 0.82970 0.49380 -0.18200
C 	C 	0.09500 0.85470 0.57320 0.30600
C 	C 	0.06540 0.85780 0.59690 -0.32600
C 	C 	0.03360 0.83590 0.54120 0.11400
H 	H 	0.01340 0.83800 0.55740 -0.04000
C 	C 	0.09480 0.92260 0.64360 -0.94100
H 	H 	0.11760 0.92380 0.63300 0.29300
H 	H 	0.08700 0.92750 0.56960 0.27500
H 	H 	0.09730 0.94030 0.70110 0.26600
C 	C 	0.03290 0.88590 0.70070 -0.89600
H 	H 	0.01480 0.86250 0.72790 0.25500
H 	H 	0.03590 0.90390 0.75770 0.25000
H 	H 	0.02550 0.89090 0.62620 0.25800
C 	C 	0.12270 0.82560 0.45040 0.08100
H 	H 	0.11720 0.80530 0.40520 0.00300
C 	C 	0.18290 0.84240 0.41430 0.00500
H 	H 	0.19650 0.86310 0.36190 0.02100
C 	C 	0.17200 0.80980 0.34230 -0.11600
H 	H 	0.15960 0.78860 0.39250 0.05600
H 	H 	0.15520 0.80820 0.28170 0.05300
C 	C 	0.20220 0.80990 0.28700 -0.08100
H 	H 	0.21230 0.82890 0.22790 0.04500
H 	H 	0.19400 0.78710 0.24690 0.03200
C 	C 	0.23210 0.81590 0.37880 -0.06000
H 	H 	0.22380 0.79430 0.42630 0.02100
H 	H 	0.25360 0.82000 0.33650 0.02300
C 	C 	0.24120 0.84540 0.45420 -0.11700
H 	H 	0.25460 0.86760 0.40920 0.06100
H 	H 	0.25690 0.84560 0.51640 0.03800
C 	C 	0.20870 0.84490 0.51030 -0.00800
H 	H 	0.19640 0.82350 0.56110 0.02100
C 	C 	0.23330 0.87670 0.69810 -0.04300
H 	H 	0.21540 0.85610 0.74300 0.01600
H 	H 	0.25390 0.87340 0.68580 0.03700
C 	C 	0.24450 0.90910 0.76630 -0.09900
C 	C 	0.22290 0.92320 0.79140 0.22200
C 	C 	0.23550 0.95334 0.85950 -0.24000
C 	C 	0.26990 0.96960 0.90230 0.06300
H 	H 	0.27850 0.99020 0.94880 -0.00000
C 	C 	0.29156 0.95556 0.87710 -0.06200
C 	C 	0.27890 0.92538 0.80910 0.00300
H 	H 	0.29370 0.91580 0.79190 0.01600
C 	C 	0.21220 0.97040 0.89100 0.53400
C 	C 	0.29630 0.11930 0.29620 0.06300
H 	H 	0.31200 0.11290 0.33120 0.01400
C 	C 	0.17790 0.94330 0.95320 -0.74400
H 	H 	0.16550 0.92190 0.90570 0.24900
H 	H 	0.18380 0.93730 0.02870 0.22300
H 	H 	0.16270 0.95360 0.96470 0.21800
C 	C 	0.19780 0.97870 0.78100 -0.78400
H 	H 	0.18560 0.95750 0.73290 0.24500
H 	H 	0.18130 0.98680 0.80270 0.22400
H 	H 	0.21750 0.99740 0.73680 0.24000
C 	C 	0.23120 0.00350 0.96560 -0.76000
H 	H 	0.24040 0.99820 0.03580 0.22500
H 	H 	0.25090 0.02220 0.92160 0.24400
H 	H 	0.21470 0.01160 0.98740 0.23500
C 	C 	0.33160 0.97560 0.91780 0.08000
C 	C 	0.35130 0.95880 0.90350 -0.12400
H 	H 	0.34050 0.93560 0.87160 0.06000
C 	C 	0.38670 0.97590 0.93590 0.05400
H 	H 	0.40010 0.96440 0.92620 0.01100
N 	N 	0.40240 0.00980 0.98260 -0.12800
C 	C 	0.38260 0.02650 0.99690 0.08900
H 	H 	0.39340 0.04970 0.02880 -0.01700
C 	C 	0.34720 0.00930 0.96450 -0.13400
H 	H 	0.33380 0.02090 0.97420 0.08200
N 	N 	0.15480 0.84730 0.46980 -0.25700
Zn	Zn	0.82769 0.11140 0.17686 1.20200
Zn	Zn	0.11303 0.28766 0.59468 1.20500
N 	N 	0.77870 0.11180 0.20250 -0.21400
N 	N 	0.84680 0.15770 0.27190 -0.25700
N 	N 	0.12280 0.34060 0.58220 -0.22100
O 	O 	0.81560 0.09570 0.01400 -0.46200
O 	O 	0.87670 0.12100 0.15620 -0.46000
O 	O 	0.12560 0.25020 0.62870 -0.46700
O 	O 	0.09350 0.28250 0.74900 -0.44800
N 	N 	0.60430 0.99380 0.78050 -0.13600
C 	C 	0.62360 0.97650 0.77330 0.07300
H 	H 	0.61270 0.95290 0.74510 0.00300
C 	C 	0.65890 0.99360 0.80740 -0.15300
H 	H 	0.67200 0.98170 0.80250 0.08400
C 	C 	0.67480 0.02810 0.84870 0.11500
C 	C 	0.65550 0.04550 0.85590 -0.14800
H 	H 	0.66640 0.06910 0.88410 0.07300
C 	C 	0.62030 0.02840 0.82180 0.07600
H 	H 	0.60700 0.04020 0.82670 0.00400
C 	C 	0.79320 0.03330 0.87060 0.48800
C 	C 	0.71320 0.04630 0.88980 -0.09500
C 	C 	0.72550 0.07560 0.96210 0.06000
H 	H 	0.71030 0.08450 0.98270 0.00700
C 	C 	0.75990 0.09180 0.00430 -0.16300
C 	C 	0.78200 0.07870 0.97420 0.27600
C 	C 	0.76970 0.04940 0.90190 -0.25600
C 	C 	0.73530 0.03320 0.85970 0.09100
H 	H 	0.72700 0.01320 0.81030 -0.00800
C 	C 	0.80220 0.01790 0.97900 -0.60100
H 	H 	0.81390 0.03660 0.03760 0.17800
H 	H 	0.78040 0.99840 0.01150 0.17400
H 	H 	0.81820 0.00920 0.95620 0.17800
C 	C 	0.82670 0.06050 0.80430 -0.75400
H 	H 	0.83970 0.08200 0.85120 0.25100
H 	H 	0.84200 0.05040 0.78930 0.21900
H 	H 	0.81980 0.06640 0.73040 0.23900
C 	C 	0.77550 0.00130 0.78920 -0.71600
H 	H 	0.79190 0.99260 0.77350 0.20900
H 	H 	0.75400 0.98250 0.82590 0.22300
H 	H 	0.76920 0.00830 0.71610 0.23000
C 	C 	0.77020 0.12210 0.08940 -0.01700
H 	H 	0.79100 0.14390 0.06000 -0.00800
H 	H 	0.75040 0.12690 0.09880 0.02800
C 	C 	0.78530 0.13670 0.30320 -0.02100
H 	H 	0.78600 0.12380 0.37390 0.02900
C 	C 	0.75510 0.14380 0.32290 -0.09500
H 	H 	0.73220 0.12140 0.32430 0.04700
H 	H 	0.75440 0.15910 0.26080 0.03700
C 	C 	0.76280 0.16280 0.44260 -0.09400
H 	H 	0.74300 0.16680 0.46300 0.03600
H 	H 	0.76420 0.14740 0.50300 0.05400
C 	C 	0.79590 0.19670 0.44140 -0.04800
H 	H 	0.80020 0.20800 0.51880 0.02600
H 	H 	0.79440 0.21280 0.38390 0.01900
C 	C 	0.82630 0.19040 0.40960 -0.13800
H 	H 	0.83020 0.17800 0.47480 0.06500
H 	H 	0.84810 0.21360 0.40040 0.06000
C 	C 	0.82030 0.16840 0.29620 0.01200
H 	H 	0.82030 0.18300 0.22930 0.01600
C 	C 	0.90850 0.17090 0.27990 -0.17200
C 	C 	0.94040 0.19380 0.33410 0.03900
H 	H 	0.94200 0.21200 0.38330 0.01500
C 	C 	0.96980 0.19000 0.31630 -0.09100
C 	C 	0.96730 0.16330 0.24430 0.08000
H 	H 	0.98740 0.16070 0.23210 -0.02300
C 	C 	0.93550 0.14040 0.19000 -0.27800
C 	C 	0.90610 0.14420 0.20780 0.28000
C 	C 	0.93400 0.11160 0.11240 0.51300
C 	C 	0.92390 0.11520 0.98070 -0.70600
H 	H 	0.94110 0.13850 0.95040 0.21500
H 	H 	0.92420 0.09680 0.93290 0.20700
H 	H 	0.90020 0.11250 0.97890 0.23700
C 	C 	0.90790 0.07580 0.16300 -0.80600
H 	H 	0.90680 0.05710 0.11280 0.22700
H 	H 	0.91550 0.07360 0.24060 0.24600
H 	H 	0.88440 0.07350 0.16680 0.25800
C 	C 	0.97060 0.11430 0.10250 -0.74300
H 	H 	0.98770 0.13740 0.07010 0.20900
H 	H 	0.97860 0.11180 0.17960 0.21800
H 	H 	0.96890 0.09560 0.05150 0.20400
C 	C 	0.00490 0.21630 0.38140 0.08000
C 	C 	0.00720 0.24180 0.45840 -0.15000
H 	H 	0.98700 0.24420 0.47280 0.08300
C 	C 	0.03890 0.26390 0.51440 0.05200
H 	H 	0.04050 0.28140 0.56710 -0.00900
N 	N 	0.06850 0.26050 0.49340 -0.25900
C 	C 	0.06610 0.23490 0.41630 0.04100
H 	H 	0.08630 0.23250 0.40190 -0.01600
C 	C 	0.03440 0.21280 0.36030 -0.14100
H 	H 	0.03280 0.19530 0.30760 0.05300
C 	C 	0.11350 0.18150 0.68520 0.67600
N 	N 	0.25440 0.18830 0.27680 -0.25600
C 	C 	0.23310 0.16770 0.36760 0.04800
H 	H 	0.23300 0.14670 0.38930 -0.01600
C 	C 	0.21180 0.17790 0.42670 -0.15000
H 	H 	0.19730 0.16380 0.48870 0.05900
C 	C 	0.21190 0.20860 0.39490 0.09200
C 	C 	0.23320 0.22920 0.30410 -0.14500
H 	H 	0.23320 0.25020 0.28240 0.07500
C 	C 	0.25450 0.21910 0.24510 0.04800
H 	H 	0.26900 0.23310 0.18300 -0.01100
C 	C 	0.11960 0.20020 0.80250 -0.93400
H 	H 	0.14310 0.20660 0.83180 0.27900
H 	H 	0.11790 0.22160 0.79300 0.30400
H 	H 	0.10160 0.18430 0.85790 0.26900
C 	C 	0.18910 0.22040 0.46180 -0.11400
C 	C 	0.19230 0.25310 0.43810 0.05300
H 	H 	0.20930 0.26860 0.38380 0.00800
C 	C 	0.17030 0.26300 0.49380 -0.18000
C 	C 	0.14530 0.24030 0.57320 0.30600
C 	C 	0.14220 0.20760 0.59690 -0.32600
C 	C 	0.16410 0.19770 0.54120 0.11100
H 	H 	0.16200 0.17540 0.55740 -0.03700
C 	C 	0.07740 0.17220 0.64360 -0.94400
H 	H 	0.07620 0.19380 0.63300 0.29400
H 	H 	0.07250 0.15950 0.56960 0.27700
H 	H 	0.05970 0.15700 0.70110 0.26700
C 	C 	0.11410 0.14700 0.70070 -0.90100
H 	H 	0.13750 0.15230 0.72790 0.25700
H 	H 	0.09610 0.13200 0.75770 0.25300
H 	H 	0.10910 0.13460 0.62620 0.26100
C 	C 	0.17440 0.29710 0.45040 0.08100
H 	H 	0.19470 0.31190 0.40520 0.00400
C 	C 	0.15760 0.34050 0.41430 0.00500
H 	H 	0.13690 0.33340 0.36190 0.02100
C 	C 	0.19020 0.36220 0.34230 -0.11600
H 	H 	0.21140 0.37100 0.39250 0.05600
H 	H 	0.19180 0.34700 0.28170 0.05300
C 	C 	0.19010 0.39230 0.28700 -0.08100
H 	H 	0.17110 0.38340 0.22790 0.04500
H 	H 	0.21290 0.40690 0.24690 0.03200
C 	C 	0.18410 0.41620 0.37880 -0.06000
H 	H 	0.20570 0.42950 0.42630 0.02100
H 	H 	0.18000 0.43360 0.33650 0.02300
C 	C 	0.15460 0.39580 0.45420 -0.11700
H 	H 	0.13240 0.38700 0.40920 0.06100
H 	H 	0.15440 0.41130 0.51640 0.03800
C 	C 	0.15510 0.36380 0.51030 -0.00800
H 	H 	0.17650 0.37290 0.56110 0.02100
C 	C 	0.12330 0.35660 0.69810 -0.04300
H 	H 	0.14390 0.35930 0.74300 0.01600
H 	H 	0.12660 0.38050 0.68580 0.03700
C 	C 	0.09090 0.33540 0.76630 -0.10000
C 	C 	0.07680 0.29970 0.79140 0.22200
C 	C 	0.04666 0.28216 0.85950 -0.24000
C 	C 	0.03040 0.30030 0.90230 0.06300
H 	H 	0.00980 0.28830 0.94880 -0.00000
C 	C 	0.04444 0.33600 0.87710 -0.06200
C 	C 	0.07462 0.35352 0.80910 0.00300
H 	H 	0.08420 0.37790 0.79190 0.01600
C 	C 	0.02960 0.24180 0.89100 0.53400
C 	C 	0.88070 0.17700 0.29620 0.06300
H 	H 	0.88710 0.19910 0.33120 0.01400
C 	C 	0.05670 0.23460 0.95320 -0.74400
H 	H 	0.07810 0.24360 0.90570 0.24900
H 	H 	0.06270 0.24650 0.02870 0.22300
H 	H 	0.04640 0.20910 0.96470 0.21800
C 	C 	0.02130 0.21910 0.78100 -0.78400
H 	H 	0.04250 0.22810 0.73290 0.24500
H 	H 	0.01320 0.19450 0.80270 0.22400
H 	H 	0.00260 0.22010 0.73680 0.24000
C 	C 	0.99650 0.22770 0.96560 -0.76000
H 	H 	0.00180 0.24220 0.03580 0.22500
H 	H 	0.97780 0.22870 0.92160 0.24400
H 	H 	0.98840 0.20310 0.98740 0.23500
C 	C 	0.02440 0.35600 0.91780 0.08000
C 	C 	0.04120 0.39250 0.90350 -0.12400
H 	H 	0.06440 0.40490 0.87160 0.06000
C 	C 	0.02410 0.41080 0.93590 0.05400
H 	H 	0.03560 0.43570 0.92620 0.01100
N 	N 	0.99020 0.39260 0.98260 -0.12800
C 	C 	0.97350 0.35610 0.99690 0.08900
H 	H 	0.95030 0.34370 0.02880 -0.01700
C 	C 	0.99070 0.33790 0.96450 -0.13400
H 	H 	0.97910 0.31290 0.97420 0.08200
N 	N 	0.15270 0.30750 0.46980 -0.25700
Zn	Zn	0.55527 0.04962 0.51019 1.20200
Zn	Zn	0.37901 0.15870 0.92801 1.20800
N 	N 	0.55487 0.00023 0.53583 -0.20400
N 	N 	0.50897 0.02243 0.60523 -0.25400
N 	N 	0.32607 0.11553 0.91553 -0.21300
O 	O 	0.57097 0.05323 0.34733 -0.43900
O 	O 	0.54567 0.08903 0.48953 -0.46000
O 	O 	0.41647 0.20873 0.96203 -0.45400
O 	O 	0.38417 0.14433 0.08233 -0.45800
N 	N 	0.67287 0.94383 0.11383 -0.13300
C 	C 	0.69017 0.98043 0.10663 0.06400
H 	H 	0.71377 0.99313 0.07843 0.00000
C 	C 	0.67307 0.99863 0.14073 -0.14400
H 	H 	0.68497 0.02363 0.13583 0.08000
C 	C 	0.63857 0.98003 0.18203 0.08100
C 	C 	0.62117 0.94333 0.18923 -0.13200
H 	H 	0.59757 0.93063 0.21743 0.06300
C 	C 	0.63827 0.92523 0.15513 0.05800
H 	H 	0.62647 0.90013 0.16003 0.00500
C 	C 	0.63337 0.09323 0.20393 0.52800
C 	C 	0.62037 0.00023 0.22313 -0.05100
C 	C 	0.59107 0.98323 0.29543 -0.01900
H 	H 	0.58217 0.95913 0.31603 0.02600
C 	C 	0.57487 0.00143 0.33763 -0.08100
C 	C 	0.58797 0.03663 0.30753 0.21700
C 	C 	0.61727 0.05363 0.23523 -0.24600
C 	C 	0.63347 0.03543 0.19303 0.06100
H 	H 	0.65347 0.04713 0.14363 -0.00400
C 	C 	0.64877 0.11763 0.31233 -0.74800
H 	H 	0.63007 0.11063 0.37093 0.22900
H 	H 	0.66827 0.11533 0.34483 0.23200
H 	H 	0.65747 0.14233 0.28953 0.21200
C 	C 	0.60617 0.09953 0.13763 -0.78000
H 	H 	0.58467 0.09103 0.18453 0.25300
H 	H 	0.61627 0.12493 0.12263 0.22200
H 	H 	0.60027 0.08673 0.06373 0.24100
C 	C 	0.66537 0.10753 0.12253 -0.77600
H 	H 	0.67407 0.13263 0.10683 0.22800
H 	H 	0.68417 0.10483 0.15923 0.24000
H 	H 	0.65837 0.09423 0.04943 0.24000
C 	C 	0.54457 0.98143 0.42273 -0.06500
H 	H 	0.52277 0.98043 0.39333 0.00700
H 	H 	0.53977 0.95683 0.43213 0.04400
C 	C 	0.52997 0.98193 0.63653 -0.02400
H 	H 	0.54287 0.99553 0.70723 0.02800
C 	C 	0.52287 0.94463 0.65623 -0.09300
H 	H 	0.54527 0.94413 0.65763 0.04600
H 	H 	0.50757 0.92863 0.59413 0.03600
C 	C 	0.50387 0.93333 0.77593 -0.09500
H 	H 	0.49987 0.90953 0.79633 0.03800
H 	H 	0.51927 0.95013 0.83633 0.05500
C 	C 	0.46997 0.93253 0.77473 -0.05000
H 	H 	0.45867 0.92553 0.85213 0.03000
H 	H 	0.45387 0.91493 0.71723 0.02000
C 	C 	0.47627 0.96923 0.74293 -0.13500
H 	H 	0.48867 0.98553 0.80813 0.06300
H 	H 	0.45307 0.96783 0.73373 0.05900
C 	C 	0.49827 0.98523 0.62953 0.00700
H 	H 	0.48367 0.97063 0.56263 0.01700
C 	C 	0.49577 0.07093 0.61323 -0.17400
C 	C 	0.47287 0.07993 0.66743 0.04300
H 	H 	0.45467 0.06333 0.71663 0.01400
C 	C 	0.47667 0.11313 0.64963 -0.09800
C 	C 	0.50337 0.13733 0.57763 0.08800
H 	H 	0.50597 0.16003 0.56543 -0.02600
C 	C 	0.52627 0.12843 0.52333 -0.28600
C 	C 	0.52247 0.09523 0.54113 0.28500
C 	C 	0.55507 0.15573 0.44573 0.53800
C 	C 	0.55147 0.14203 0.31403 -0.73500
H 	H 	0.52817 0.13593 0.28373 0.21600
H 	H 	0.56987 0.16073 0.26623 0.20700
H 	H 	0.55417 0.12103 0.31223 0.23800
C 	C 	0.59087 0.16543 0.49633 -0.82600
H 	H 	0.60957 0.18303 0.44613 0.23500
H 	H 	0.59307 0.17523 0.57393 0.25200
H 	H 	0.59317 0.14423 0.50013 0.26500
C 	C 	0.55237 0.18963 0.43583 -0.76300
H 	H 	0.52927 0.18363 0.40343 0.21700
H 	H 	0.55487 0.20013 0.51293 0.22400
H 	H 	0.57107 0.20663 0.38483 0.21300
C 	C 	0.45037 0.12193 0.71473 0.08400
C 	C 	0.42487 0.09873 0.79173 -0.13900
H 	H 	0.42247 0.07613 0.80613 0.07700
C 	C 	0.40277 0.10833 0.84773 0.04900
H 	H 	0.38527 0.09243 0.90043 -0.00200
N 	N 	0.40617 0.14133 0.82673 -0.25700
C 	C 	0.43177 0.16453 0.74963 0.04300
H 	H 	0.43417 0.18713 0.73523 -0.01600
C 	C 	0.45387 0.15493 0.69363 -0.14200
H 	H 	0.47137 0.17083 0.64093 0.05700
C 	C 	0.48517 0.26533 0.01853 0.60100
N 	N 	0.47837 0.39943 0.61013 -0.25500
C 	C 	0.49897 0.39873 0.70093 0.04700
H 	H 	0.51997 0.41963 0.72263 -0.01400
C 	C 	0.48877 0.36723 0.76003 -0.14600
H 	H 	0.50287 0.36683 0.82203 0.06000
C 	C 	0.45807 0.33663 0.72823 0.08800
C 	C 	0.43747 0.33733 0.63743 -0.14100
H 	H 	0.41647 0.31633 0.61573 0.07400
C 	C 	0.44757 0.36873 0.57843 0.04500
H 	H 	0.43357 0.36923 0.51633 -0.00900
C 	C 	0.46647 0.25273 0.13583 -0.86800
H 	H 	0.46007 0.26983 0.16513 0.25700
H 	H 	0.44507 0.22963 0.12633 0.27800
H 	H 	0.48237 0.25063 0.19123 0.24700
C 	C 	0.44627 0.30203 0.79513 -0.10100
C 	C 	0.41357 0.27253 0.77143 0.04300
H 	H 	0.39807 0.27403 0.71713 0.01200
C 	C 	0.40367 0.24063 0.82713 -0.16800
C 	C 	0.42637 0.23833 0.90653 0.29000
C 	C 	0.45907 0.26793 0.93023 -0.28600
C 	C 	0.46897 0.29973 0.87453 0.09100
H 	H 	0.49127 0.31993 0.89073 -0.02600
C 	C 	0.49447 0.23853 0.97693 -0.81700
H 	H 	0.47287 0.21573 0.96633 0.26200
H 	H 	0.50717 0.24633 0.90293 0.24400
H 	H 	0.50967 0.23603 0.03443 0.22100
C 	C 	0.51967 0.30043 0.03403 -0.88400
H 	H 	0.51437 0.31853 0.06123 0.24700
H 	H 	0.53467 0.29743 0.09103 0.24400
H 	H 	0.53207 0.30783 0.95953 0.26600
C 	C 	0.36957 0.21063 0.78373 0.07900
H 	H 	0.35477 0.21613 0.73853 0.00500
C 	C 	0.32617 0.15043 0.74763 0.00600
H 	H 	0.33327 0.13683 0.69523 0.02200
C 	C 	0.30447 0.16133 0.67563 -0.11600
H 	H 	0.29567 0.17373 0.72583 0.05600
H 	H 	0.31967 0.17813 0.61503 0.05400
C 	C 	0.27437 0.13113 0.62033 -0.08200
H 	H 	0.28327 0.12103 0.56123 0.04800
H 	H 	0.25977 0.13933 0.58023 0.03400
C 	C 	0.25047 0.10123 0.71213 -0.05900
H 	H 	0.23717 0.10953 0.75963 0.02200
H 	H 	0.23307 0.07973 0.66983 0.02500
C 	C 	0.27087 0.09213 0.78753 -0.11700
H 	H 	0.27967 0.07873 0.74253 0.06300
H 	H 	0.25537 0.07643 0.84973 0.04300
C 	C 	0.30287 0.12463 0.84363 -0.00800
H 	H 	0.29377 0.13693 0.89443 0.02600
C 	C 	0.31007 0.10003 0.03143 -0.05300
H 	H 	0.30737 0.11793 0.07633 0.01600
H 	H 	0.28617 0.07943 0.01913 0.03400
C 	C 	0.33127 0.08883 0.09963 -0.10700
C 	C 	0.36697 0.11043 0.12473 0.23200
C 	C 	0.38451 0.09783 0.19283 -0.26900
C 	C 	0.36637 0.06343 0.23563 0.08100
H 	H 	0.37837 0.05483 0.28213 -0.01000
C 	C 	0.33067 0.04177 0.21043 -0.07700
C 	C 	0.31315 0.05443 0.14243 0.00900
H 	H 	0.28877 0.03963 0.12523 0.01300
C 	C 	0.42487 0.12113 0.22433 0.60200
C 	C 	0.48967 0.03703 0.62953 0.06500
H 	H 	0.46757 0.02133 0.66453 0.01600
C 	C 	0.43207 0.15543 0.28653 -0.84700
H 	H 	0.42307 0.16783 0.23903 0.27500
H 	H 	0.42017 0.14953 0.36203 0.26400
H 	H 	0.45757 0.17063 0.29803 0.24300
C 	C 	0.44757 0.13553 0.11433 -0.83400
H 	H 	0.43857 0.14773 0.06623 0.25600
H 	H 	0.47217 0.15203 0.13603 0.23700
H 	H 	0.44657 0.11583 0.07013 0.25400
C 	C 	0.43897 0.10213 0.29893 -0.88900
H 	H 	0.42447 0.09293 0.36913 0.27800
H 	H 	0.43797 0.08243 0.25493 0.27600
H 	H 	0.46357 0.11863 0.32073 0.26400
C 	C 	0.31067 0.00173 0.25113 0.10100
C 	C 	0.27417 0.98203 0.23683 -0.14600
H 	H 	0.26177 0.99283 0.20493 0.06300
C 	C 	0.25587 0.94663 0.26923 0.06400
H 	H 	0.23097 0.93323 0.25953 0.00400
N 	N 	0.27407 0.93093 0.31593 -0.13500
C 	C 	0.31057 0.95073 0.33023 0.06400
H 	H 	0.32297 0.93993 0.36213 0.00200
C 	C 	0.32877 0.98613 0.29783 -0.14700
H 	H 	0.35377 0.99953 0.30753 0.07600
N 	N 	0.35917 0.17853 0.80313 -0.25500
Zn	Zn	0.95038 0.50564 0.51019 1.20200
Zn	Zn	0.84130 0.22030 0.92801 1.20800
N 	N 	0.99977 0.55463 0.53583 -0.20400
N 	N 	0.97757 0.48653 0.60523 -0.25400
N 	N 	0.88447 0.21053 0.91553 -0.21300
O 	O 	0.94677 0.51773 0.34733 -0.43900
O 	O 	0.91097 0.45663 0.48953 -0.46000
O 	O 	0.79127 0.20773 0.96203 -0.45400
O 	O 	0.85567 0.23983 0.08233 -0.45800
N 	N 	0.05617 0.72903 0.11383 -0.13300
C 	C 	0.01957 0.70973 0.10663 0.06400
H 	H 	0.00687 0.72063 0.07843 0.00000
C 	C 	0.00137 0.67443 0.14073 -0.14400
H 	H 	0.97637 0.66133 0.13583 0.08000
C 	C 	0.01997 0.65853 0.18203 0.08100
C 	C 	0.05667 0.67783 0.18923 -0.13200
H 	H 	0.06937 0.66693 0.21743 0.06300
C 	C 	0.07477 0.71303 0.15513 0.05800
H 	H 	0.09987 0.72633 0.16003 0.00500
C 	C 	0.90677 0.54013 0.20393 0.52800
C 	C 	0.99977 0.62013 0.22313 -0.05100
C 	C 	0.01677 0.60783 0.29543 -0.01900
H 	H 	0.04087 0.62303 0.31603 0.02600
C 	C 	0.99857 0.57343 0.33763 -0.08100
C 	C 	0.96337 0.55133 0.30753 0.21700
C 	C 	0.94637 0.56363 0.23523 -0.24600
C 	C 	0.96457 0.59803 0.19303 0.06100
H 	H 	0.95287 0.60633 0.14363 -0.00400
C 	C 	0.88237 0.53113 0.31233 -0.74800
H 	H 	0.88937 0.51943 0.37093 0.22900
H 	H 	0.88467 0.55293 0.34483 0.23200
H 	H 	0.85767 0.51513 0.28953 0.21200
C 	C 	0.90047 0.50663 0.13763 -0.78000
H 	H 	0.90897 0.49363 0.18453 0.25300
H 	H 	0.87507 0.49133 0.12263 0.22200
H 	H 	0.91327 0.51353 0.06373 0.24100
C 	C 	0.89247 0.55783 0.12253 -0.77600
H 	H 	0.86737 0.54143 0.10683 0.22800
H 	H 	0.89517 0.57933 0.15923 0.24000
H 	H 	0.90577 0.56413 0.04943 0.24000
C 	C 	0.01857 0.56313 0.42273 -0.06500
H 	H 	0.01957 0.54233 0.39333 0.00700
H 	H 	0.04317 0.58293 0.43213 0.04400
C 	C 	0.01807 0.54803 0.63653 -0.02400
H 	H 	0.00447 0.54733 0.70723 0.02800
C 	C 	0.05537 0.57823 0.65623 -0.09300
H 	H 	0.05587 0.60113 0.65763 0.04600
H 	H 	0.07137 0.57893 0.59413 0.03600
C 	C 	0.06667 0.57053 0.77593 -0.09500
H 	H 	0.09047 0.59033 0.79633 0.03800
H 	H 	0.04987 0.56913 0.83633 0.05500
C 	C 	0.06747 0.53743 0.77473 -0.05000
H 	H 	0.07447 0.53313 0.85213 0.03000
H 	H 	0.08507 0.53893 0.71723 0.02000
C 	C 	0.03077 0.50703 0.74293 -0.13500
H 	H 	0.01447 0.50313 0.80813 0.06300
H 	H 	0.03217 0.48523 0.73373 0.05900
C 	C 	0.01477 0.51303 0.62953 0.00700
H 	H 	0.02937 0.51303 0.56263 0.01700
C 	C 	0.92907 0.42483 0.61323 -0.17400
C 	C 	0.92007 0.39293 0.66743 0.04300
H 	H 	0.93667 0.39133 0.71663 0.01400
C 	C 	0.88687 0.36353 0.64963 -0.09800
C 	C 	0.86267 0.36603 0.57763 0.08800
H 	H 	0.83997 0.34593 0.56543 -0.02600
C 	C 	0.87157 0.39783 0.52333 -0.28600
C 	C 	0.90477 0.42723 0.54113 0.28500
C 	C 	0.84427 0.39933 0.44573 0.53800
C 	C 	0.85797 0.40943 0.31403 -0.73500
H 	H 	0.86407 0.39223 0.28373 0.21600
H 	H 	0.83927 0.40913 0.26623 0.20700
H 	H 	0.87897 0.43313 0.31223 0.23800
C 	C 	0.83457 0.42543 0.49633 -0.82600
H 	H 	0.81697 0.42653 0.44613 0.23500
H 	H 	0.82477 0.41783 0.57393 0.25200
H 	H 	0.85577 0.44893 0.50013 0.26500
C 	C 	0.81037 0.36273 0.43583 -0.76300
H 	H 	0.81637 0.34563 0.40343 0.21700
H 	H 	0.79987 0.35473 0.51293 0.22400
H 	H 	0.79337 0.36443 0.38483 0.21300
C 	C 	0.87807 0.32843 0.71473 0.08400
C 	C 	0.90127 0.32613 0.79173 -0.13900
H 	H 	0.92387 0.34633 0.80613 0.07700
C 	C 	0.89167 0.29443 0.84773 0.04900
H 	H 	0.90757 0.29283 0.90043 -0.00200
N 	N 	0.85867 0.26483 0.82673 -0.25700
C 	C 	0.83547 0.26723 0.74963 0.04300
H 	H 	0.81287 0.24703 0.73523 -0.01600
C 	C 	0.84507 0.29893 0.69363 -0.14200
H 	H 	0.82917 0.30053 0.64093 0.05700
C 	C 	0.73467 0.21983 0.01853 0.60100
N 	N 	0.60057 0.07893 0.61013 -0.25500
C 	C 	0.60127 0.10023 0.70093 0.04700
H 	H 	0.58037 0.10033 0.72263 -0.01400
C 	C 	0.63277 0.12153 0.76003 -0.14600
H 	H 	0.63317 0.13603 0.82203 0.06000
C 	C 	0.66337 0.12143 0.72823 0.08800
C 	C 	0.66267 0.10013 0.63743 -0.14100
H 	H 	0.68367 0.10013 0.61573 0.07400
C 	C 	0.63127 0.07883 0.57843 0.04500
H 	H 	0.63077 0.06433 0.51633 -0.00800
C 	C 	0.74727 0.21373 0.13583 -0.86800
H 	H 	0.73017 0.19023 0.16513 0.25700
H 	H 	0.77037 0.21543 0.12633 0.27800
H 	H 	0.74937 0.23173 0.19123 0.24700
C 	C 	0.69797 0.14423 0.79513 -0.10100
C 	C 	0.72747 0.14103 0.77143 0.04300
H 	H 	0.72597 0.12403 0.71713 0.01200
C 	C 	0.75937 0.16303 0.82713 -0.16900
C 	C 	0.76167 0.18803 0.90653 0.29000
C 	C 	0.73207 0.19113 0.93023 -0.28600
C 	C 	0.70027 0.16923 0.87453 0.09100
H 	H 	0.68007 0.17133 0.89073 -0.02600
C 	C 	0.76147 0.25593 0.97693 -0.81700
H 	H 	0.78427 0.25713 0.96633 0.26200
H 	H 	0.75367 0.26083 0.90293 0.24500
H 	H 	0.76397 0.27363 0.03443 0.22100
C 	C 	0.69957 0.21923 0.03403 -0.88400
H 	H 	0.68147 0.19583 0.06123 0.24700
H 	H 	0.70257 0.23723 0.09103 0.24400
H 	H 	0.69217 0.22423 0.95953 0.26600
C 	C 	0.78937 0.15893 0.78373 0.07900
H 	H 	0.78387 0.13863 0.73853 0.00500
C 	C 	0.84957 0.17573 0.74763 0.00600
H 	H 	0.86317 0.19643 0.69523 0.02200
C 	C 	0.83867 0.14313 0.67563 -0.11600
H 	H 	0.82627 0.12193 0.72583 0.05700
H 	H 	0.82187 0.14153 0.61503 0.05400
C 	C 	0.86887 0.14323 0.62033 -0.08200
H 	H 	0.87897 0.16223 0.56123 0.04800
H 	H 	0.86067 0.12043 0.58023 0.03400
C 	C 	0.89877 0.14923 0.71213 -0.06000
H 	H 	0.89047 0.12763 0.75963 0.02300
H 	H 	0.92027 0.15333 0.66983 0.02500
C 	C 	0.90787 0.17873 0.78753 -0.11700
H 	H 	0.92127 0.20093 0.74253 0.06300
H 	H 	0.92357 0.17893 0.84973 0.04300
C 	C 	0.87537 0.17823 0.84363 -0.00800
H 	H 	0.86307 0.15683 0.89443 0.02600
C 	C 	0.89997 0.21003 0.03143 -0.05300
H 	H 	0.88207 0.18943 0.07633 0.01600
H 	H 	0.92057 0.20673 0.01913 0.03400
C 	C 	0.91117 0.24243 0.09963 -0.10700
C 	C 	0.88957 0.25653 0.12473 0.23200
C 	C 	0.90217 0.28667 0.19283 -0.26900
C 	C 	0.93657 0.30293 0.23563 0.08100
H 	H 	0.94517 0.32353 0.28213 -0.01000
C 	C 	0.95823 0.28889 0.21043 -0.07700
C 	C 	0.94557 0.25871 0.14243 0.00900
H 	H 	0.96037 0.24913 0.12523 0.01300
C 	C 	0.87887 0.30373 0.22433 0.60200
C 	C 	0.96297 0.45263 0.62953 0.06500
H 	H 	0.97867 0.44623 0.66453 0.01600
C 	C 	0.84457 0.27663 0.28653 -0.84700
H 	H 	0.83217 0.25523 0.23903 0.27500
H 	H 	0.85047 0.27063 0.36203 0.26400
H 	H 	0.82937 0.28693 0.29803 0.24300
C 	C 	0.86447 0.31203 0.11433 -0.83400
H 	H 	0.85227 0.29083 0.06623 0.25600
H 	H 	0.84797 0.32013 0.13603 0.23700
H 	H 	0.88417 0.33073 0.07013 0.25400
C 	C 	0.89787 0.33683 0.29893 -0.88900
H 	H 	0.90707 0.33153 0.36913 0.27700
H 	H 	0.91757 0.35553 0.25493 0.27600
H 	H 	0.88137 0.34493 0.32073 0.26400
C 	C 	0.99827 0.30893 0.25113 0.10100
C 	C 	0.01797 0.29213 0.23683 -0.14600
H 	H 	0.00717 0.26893 0.20493 0.06300
C 	C 	0.05337 0.30923 0.26923 0.06400
H 	H 	0.06677 0.29773 0.25953 0.00400
N 	N 	0.06907 0.34313 0.31593 -0.13500
C 	C 	0.04927 0.35983 0.33023 0.06400
H 	H 	0.06007 0.38303 0.36213 0.00200
C 	C 	0.01387 0.34263 0.29783 -0.14700
H 	H 	0.00047 0.35423 0.30753 0.07600
N 	N 	0.82147 0.18063 0.80313 -0.25500
Zn	Zn	0.49436 0.44473 0.51019 1.20200
Zn	Zn	0.77970 0.62099 0.92801 1.20800
N 	N 	0.44537 0.44513 0.53583 -0.21100
N 	N 	0.51347 0.49103 0.60523 -0.25700
N 	N 	0.78947 0.67393 0.91553 -0.21300
O 	O 	0.48227 0.42903 0.34733 -0.44200
O 	O 	0.54337 0.45433 0.48953 -0.46000
O 	O 	0.79227 0.58353 0.96203 -0.45400
O 	O 	0.76017 0.61583 0.08233 -0.45800
N 	N 	0.27097 0.32713 0.11383 -0.13300
C 	C 	0.29027 0.30983 0.10663 0.06100
H 	H 	0.27937 0.28623 0.07843 0.00300
C 	C 	0.32557 0.32693 0.14073 -0.13700
H 	H 	0.33867 0.31503 0.13583 0.07500
C 	C 	0.34147 0.36143 0.18203 0.09100
C 	C 	0.32217 0.37883 0.18923 -0.13700
H 	H 	0.33307 0.40243 0.21743 0.06500
C 	C 	0.28697 0.36173 0.15513 0.06000
H 	H 	0.27367 0.37353 0.16003 0.00400
C 	C 	0.45987 0.36663 0.20393 0.53300
C 	C 	0.37987 0.37963 0.22313 -0.07500
C 	C 	0.39217 0.40893 0.29543 0.01100
H 	H 	0.37697 0.41783 0.31603 0.01700
C 	C 	0.42657 0.42513 0.33763 -0.10600
C 	C 	0.44867 0.41203 0.30753 0.22800
C 	C 	0.43637 0.38273 0.23523 -0.25600
C 	C 	0.40197 0.36653 0.19303 0.07500
H 	H 	0.39367 0.34653 0.14363 -0.00900
C 	C 	0.46887 0.35123 0.31233 -0.75200
H 	H 	0.48057 0.36993 0.37093 0.23000
H 	H 	0.44707 0.33173 0.34483 0.23300
H 	H 	0.48487 0.34253 0.28953 0.21300
C 	C 	0.49337 0.39383 0.13763 -0.78400
H 	H 	0.50637 0.41533 0.18453 0.25500
H 	H 	0.50867 0.38373 0.12263 0.22300
H 	H 	0.48647 0.39973 0.06373 0.24200
C 	C 	0.44217 0.33463 0.12253 -0.78000
H 	H 	0.45857 0.32593 0.10683 0.22900
H 	H 	0.42067 0.31583 0.15923 0.24200
H 	H 	0.43587 0.34163 0.04943 0.24100
C 	C 	0.43687 0.45543 0.42273 -0.04400
H 	H 	0.45767 0.47723 0.39333 0.00300
H 	H 	0.41707 0.46023 0.43213 0.03800
C 	C 	0.45197 0.47003 0.63653 -0.02200
H 	H 	0.45267 0.45713 0.70723 0.03000
C 	C 	0.42177 0.47713 0.65623 -0.09300
H 	H 	0.39887 0.45473 0.65763 0.04600
H 	H 	0.42107 0.49243 0.59413 0.03600
C 	C 	0.42947 0.49613 0.77593 -0.09600
H 	H 	0.40967 0.50013 0.79633 0.03800
H 	H 	0.43087 0.48073 0.83633 0.05600
C 	C 	0.46257 0.53003 0.77473 -0.04700
H 	H 	0.46687 0.54133 0.85213 0.03000
H 	H 	0.46107 0.54613 0.71723 0.01900
C 	C 	0.49297 0.52373 0.74293 -0.13900
H 	H 	0.49687 0.51133 0.80813 0.06700
H 	H 	0.51477 0.54693 0.73373 0.06100
C 	C 	0.48697 0.50173 0.62953 0.01300
H 	H 	0.48697 0.51633 0.56263 0.01700
C 	C 	0.57517 0.50423 0.61323 -0.17500
C 	C 	0.60707 0.52713 0.66743 0.04400
H 	H 	0.60867 0.54533 0.71663 0.01400
C 	C 	0.63647 0.52333 0.64963 -0.09900
C 	C 	0.63397 0.49663 0.57763 0.08800
H 	H 	0.65407 0.49403 0.56543 -0.02600
C 	C 	0.60217 0.47373 0.52333 -0.28600
C 	C 	0.57277 0.47753 0.54113 0.28600
C 	C 	0.60067 0.44493 0.44573 0.53800
C 	C 	0.59057 0.44853 0.31403 -0.73500
H 	H 	0.60777 0.47183 0.28373 0.21600
H 	H 	0.59087 0.43013 0.26623 0.20700
H 	H 	0.56687 0.44583 0.31223 0.23800
C 	C 	0.57457 0.40913 0.49633 -0.82600
H 	H 	0.57347 0.39043 0.44613 0.23500
H 	H 	0.58217 0.40693 0.57393 0.25200
H 	H 	0.55107 0.40683 0.50013 0.26500
C 	C 	0.63727 0.44763 0.43583 -0.76300
H 	H 	0.65437 0.47073 0.40343 0.21700
H 	H 	0.64527 0.44513 0.51293 0.22400
H 	H 	0.63557 0.42893 0.38483 0.21300
C 	C 	0.67157 0.54963 0.71473 0.08400
C 	C 	0.67387 0.57513 0.79173 -0.13900
H 	H 	0.65367 0.57753 0.80613 0.07700
C 	C 	0.70557 0.59723 0.84773 0.04900
H 	H 	0.70717 0.61473 0.90043 -0.00200
N 	N 	0.73517 0.59383 0.82673 -0.25700
C 	C 	0.73277 0.56823 0.74963 0.04300
H 	H 	0.75297 0.56583 0.73523 -0.01600
C 	C 	0.70107 0.54613 0.69363 -0.14200
H 	H 	0.69947 0.52863 0.64093 0.05700
C 	C 	0.78017 0.51483 0.01853 0.60100
N 	N 	0.92107 0.52163 0.61013 -0.25500
C 	C 	0.89977 0.50103 0.70093 0.04700
H 	H 	0.89967 0.48003 0.72263 -0.01400
C 	C 	0.87847 0.51123 0.76003 -0.14600
H 	H 	0.86397 0.49713 0.82203 0.06000
C 	C 	0.87857 0.54193 0.72823 0.08800
C 	C 	0.89987 0.56253 0.63743 -0.14100
H 	H 	0.89987 0.58353 0.61573 0.07400
C 	C 	0.92117 0.55243 0.57843 0.04500
H 	H 	0.93567 0.56643 0.51633 -0.00800
C 	C 	0.78627 0.53353 0.13583 -0.86800
H 	H 	0.80977 0.53993 0.16513 0.25700
H 	H 	0.78457 0.55493 0.12633 0.27800
H 	H 	0.76827 0.51763 0.19123 0.24700
C 	C 	0.85577 0.55373 0.79513 -0.10100
C 	C 	0.85897 0.58643 0.77143 0.04300
H 	H 	0.87597 0.60193 0.71713 0.01200
C 	C 	0.83697 0.59633 0.82713 -0.16900
C 	C 	0.81197 0.57363 0.90653 0.29000
C 	C 	0.80887 0.54093 0.93023 -0.28600
C 	C 	0.83077 0.53103 0.87453 0.09100
H 	H 	0.82867 0.50873 0.89073 -0.02600
C 	C 	0.74407 0.50553 0.97693 -0.81700
H 	H 	0.74287 0.52713 0.96633 0.26200
H 	H 	0.73917 0.49283 0.90293 0.24500
H 	H 	0.72637 0.49033 0.03443 0.22100
C 	C 	0.78077 0.48033 0.03403 -0.88400
H 	H 	0.80417 0.48563 0.06123 0.24700
H 	H 	0.76277 0.46533 0.09103 0.24400
H 	H 	0.77577 0.46793 0.95953 0.26600
C 	C 	0.84107 0.63043 0.78373 0.07900
H 	H 	0.86137 0.64523 0.73853 0.00500
C 	C 	0.82427 0.67383 0.74763 0.00600
H 	H 	0.80357 0.66673 0.69523 0.02200
C 	C 	0.85687 0.69553 0.67563 -0.11600
H 	H 	0.87807 0.70433 0.72583 0.05700
H 	H 	0.85847 0.68033 0.61503 0.05400
C 	C 	0.85677 0.72563 0.62033 -0.08200
H 	H 	0.83777 0.71673 0.56123 0.04800
H 	H 	0.87957 0.74023 0.58023 0.03400
C 	C 	0.85077 0.74953 0.71213 -0.06000
H 	H 	0.87237 0.76283 0.75963 0.02200
H 	H 	0.84667 0.76693 0.66983 0.02400
C 	C 	0.82127 0.72913 0.78753 -0.11700
H 	H 	0.79907 0.72033 0.74253 0.06200
H 	H 	0.82107 0.74463 0.84973 0.04200
C 	C 	0.82177 0.69713 0.84363 -0.00800
H 	H 	0.84317 0.70623 0.89443 0.02600
C 	C 	0.78997 0.68993 0.03143 -0.05400
H 	H 	0.81057 0.69263 0.07633 0.01600
H 	H 	0.79327 0.71383 0.01913 0.03400
C 	C 	0.75757 0.66873 0.09963 -0.10600
C 	C 	0.74347 0.63303 0.12473 0.23100
C 	C 	0.71333 0.61549 0.19283 -0.26800
C 	C 	0.69707 0.63363 0.23563 0.07800
H 	H 	0.67647 0.62163 0.28213 -0.00900
C 	C 	0.71111 0.66933 0.21043 -0.07200
C 	C 	0.74129 0.68685 0.14243 0.00600
H 	H 	0.75087 0.71123 0.12523 0.01200
C 	C 	0.69627 0.57513 0.22433 0.60200
C 	C 	0.54737 0.51033 0.62953 0.06600
H 	H 	0.55377 0.53243 0.66453 0.01400
C 	C 	0.72337 0.56793 0.28653 -0.84600
H 	H 	0.74477 0.57693 0.23903 0.27500
H 	H 	0.72937 0.57983 0.36203 0.26400
H 	H 	0.71307 0.54243 0.29803 0.24300
C 	C 	0.68797 0.55243 0.11433 -0.83300
H 	H 	0.70917 0.56143 0.06623 0.25600
H 	H 	0.67987 0.52783 0.13603 0.23700
H 	H 	0.66927 0.55343 0.07013 0.25300
C 	C 	0.66317 0.56103 0.29893 -0.88800
H 	H 	0.66847 0.57553 0.36913 0.27700
H 	H 	0.64447 0.56203 0.25493 0.27500
H 	H 	0.65507 0.53643 0.32073 0.26400
C 	C 	0.69107 0.68933 0.25113 0.08300
C 	C 	0.70787 0.72583 0.23683 -0.13000
H 	H 	0.73107 0.73823 0.20493 0.06000
C 	C 	0.69077 0.74413 0.26923 0.05700
H 	H 	0.70227 0.76903 0.25953 0.00600
N 	N 	0.65687 0.72593 0.31593 -0.13300
C 	C 	0.64017 0.68943 0.33023 0.05700
H 	H 	0.61697 0.67703 0.36213 0.00400
C 	C 	0.65737 0.67123 0.29783 -0.13100
H 	H 	0.64577 0.64623 0.30753 0.07400
N 	N 	0.81937 0.64083 0.80313 -0.25500
Zn	Zn	0.22193 0.38296 0.84353 1.20300
Zn	Zn	0.04567 0.49204 0.26135 1.20300
N 	N 	0.22153 0.33357 0.86917 -0.21000
N 	N 	0.17563 0.35577 0.93857 -0.25300
N 	N 	0.99273 0.44887 0.24887 -0.21700
O 	O 	0.23763 0.38657 0.68067 -0.44200
O 	O 	0.21233 0.42237 0.82287 -0.45300
O 	O 	0.08313 0.54207 0.29537 -0.46700
O 	O 	0.05083 0.47767 0.41567 -0.45200
N 	N 	0.33953 0.27717 0.44717 -0.13100
C 	C 	0.35683 0.31377 0.43997 0.06400
H 	H 	0.38043 0.32647 0.41177 0.00600
C 	C 	0.33973 0.33197 0.47407 -0.13600
H 	H 	0.35163 0.35697 0.46917 0.07700
C 	C 	0.30523 0.31337 0.51537 0.09300
C 	C 	0.28783 0.27667 0.52257 -0.13600
H 	H 	0.26423 0.26397 0.55077 0.06600
C 	C 	0.30493 0.25857 0.48847 0.06200
H 	H 	0.29313 0.23347 0.49337 0.00500
C 	C 	0.30003 0.42657 0.53727 0.54100
C 	C 	0.28703 0.33357 0.55647 -0.07400
C 	C 	0.25773 0.31657 0.62877 0.01200
H 	H 	0.24883 0.29247 0.64937 0.01700
C 	C 	0.24153 0.33477 0.67097 -0.10600
C 	C 	0.25463 0.36997 0.64087 0.23000
C 	C 	0.28393 0.38697 0.56857 -0.25700
C 	C 	0.30013 0.36877 0.52637 0.07700
H 	H 	0.32013 0.38047 0.47697 -0.00700
C 	C 	0.31543 0.45097 0.64567 -0.75900
H 	H 	0.29673 0.44397 0.70427 0.23300
H 	H 	0.33493 0.44867 0.67817 0.23600
H 	H 	0.32413 0.47567 0.62287 0.21600
C 	C 	0.27283 0.43287 0.47097 -0.79500
H 	H 	0.25133 0.42437 0.51787 0.26000
H 	H 	0.28293 0.45827 0.45597 0.22800
H 	H 	0.26693 0.42007 0.39707 0.25000
C 	C 	0.33203 0.44087 0.45587 -0.79200
H 	H 	0.34073 0.46597 0.44017 0.23400
H 	H 	0.35083 0.43817 0.49257 0.24600
H 	H 	0.32503 0.42757 0.38277 0.25000
C 	C 	0.21123 0.31477 0.75607 -0.04400
H 	H 	0.18943 0.31377 0.72667 0.00300
H 	H 	0.20643 0.29017 0.76547 0.03900
C 	C 	0.19663 0.31527 0.96987 -0.01200
H 	H 	0.20953 0.32887 0.04057 0.01600
C 	C 	0.18953 0.27797 0.98957 -0.07000
H 	H 	0.21193 0.27747 0.99097 0.04700
H 	H 	0.17423 0.26197 0.92747 0.03200
C 	C 	0.17053 0.26667 0.10927 -0.13100
H 	H 	0.16653 0.24287 0.12967 0.04300
H 	H 	0.18593 0.28347 0.16967 0.06300
C 	C 	0.13663 0.26587 0.10807 -0.01900
H 	H 	0.12533 0.25887 0.18547 0.01700
H 	H 	0.12053 0.24827 0.05057 0.00500
C 	C 	0.14293 0.30257 0.07627 -0.16900
H 	H 	0.15533 0.31887 0.14147 0.07200
H 	H 	0.11973 0.30117 0.06707 0.06500
C 	C 	0.16493 0.31857 0.96287 0.02900
H 	H 	0.15033 0.30397 0.89597 0.01400
C 	C 	0.16243 0.40427 0.94657 -0.13000
C 	C 	0.13953 0.41327 0.00077 -0.02600
H 	H 	0.12133 0.39667 0.04997 0.03000
C 	C 	0.14333 0.44647 0.98297 -0.04700
C 	C 	0.17003 0.47067 0.91097 0.05900
H 	H 	0.17263 0.49337 0.89877 -0.01600
C 	C 	0.19293 0.46177 0.85667 -0.26600
C 	C 	0.18913 0.42857 0.87447 0.26500
C 	C 	0.22173 0.48907 0.77907 0.53100
C 	C 	0.21813 0.47537 0.64737 -0.73100
H 	H 	0.19483 0.46927 0.61707 0.21500
H 	H 	0.23653 0.49407 0.59957 0.20700
H 	H 	0.22083 0.45437 0.64557 0.23700
C 	C 	0.25753 0.49877 0.82967 -0.82400
H 	H 	0.27623 0.51637 0.77947 0.23500
H 	H 	0.25973 0.50857 0.90727 0.25300
H 	H 	0.25983 0.47757 0.83347 0.26500
C 	C 	0.21903 0.52297 0.76917 -0.75800
H 	H 	0.19593 0.51697 0.73677 0.21600
H 	H 	0.22153 0.53347 0.84627 0.22300
H 	H 	0.23773 0.53997 0.71817 0.21300
C 	C 	0.11703 0.45527 0.04807 0.06200
C 	C 	0.09153 0.43207 0.12507 -0.13200
H 	H 	0.08913 0.40947 0.13947 0.06900
C 	C 	0.06943 0.44167 0.18107 0.04100
H 	H 	0.05193 0.42577 0.23377 -0.00600
N 	N 	0.07283 0.47467 0.16007 -0.26000
C 	C 	0.09843 0.49787 0.08297 0.04700
H 	H 	0.10083 0.52047 0.06857 -0.02200
C 	C 	0.12053 0.48827 0.02697 -0.16200
H 	H 	0.13803 0.50417 0.97427 0.07100
C 	C 	0.15183 0.59867 0.35187 0.66300
N 	N 	0.14503 0.73277 0.94347 -0.24300
C 	C 	0.16563 0.73207 0.03427 0.02100
H 	H 	0.18663 0.75297 0.05597 -0.01300
C 	C 	0.15543 0.70057 0.09337 -0.13000
H 	H 	0.16953 0.70017 0.15537 0.05000
C 	C 	0.12473 0.66997 0.06157 0.06200
C 	C 	0.10413 0.67067 0.97077 -0.11000
H 	H 	0.08313 0.64967 0.94907 0.06800
C 	C 	0.11423 0.70207 0.91177 0.03500
H 	H 	0.10023 0.70257 0.84967 -0.00400
C 	C 	0.13313 0.58607 0.46917 -0.91700
H 	H 	0.12673 0.60317 0.49847 0.27200
H 	H 	0.11173 0.56297 0.45967 0.29600
H 	H 	0.14903 0.58397 0.52457 0.26100
C 	C 	0.11293 0.63537 0.12847 -0.10500
C 	C 	0.08023 0.60587 0.10477 0.04600
H 	H 	0.06473 0.60737 0.05047 0.00600
C 	C 	0.07033 0.57397 0.16047 -0.18000
C 	C 	0.09303 0.57167 0.23987 0.30200
C 	C 	0.12573 0.60127 0.26357 -0.32000
C 	C 	0.13563 0.63307 0.20787 0.10300
H 	H 	0.15793 0.65327 0.22407 -0.03500
C 	C 	0.16113 0.57187 0.31027 -0.92900
H 	H 	0.13953 0.54907 0.29967 0.28900
H 	H 	0.17383 0.57967 0.23627 0.27100
H 	H 	0.17633 0.56937 0.36777 0.26100
C 	C 	0.18633 0.63377 0.36737 -0.88500
H 	H 	0.18103 0.65187 0.39457 0.25000
H 	H 	0.20133 0.63077 0.42437 0.24500
H 	H 	0.19873 0.64117 0.29287 0.25500
C 	C 	0.03623 0.54397 0.11707 0.08100
H 	H 	0.02143 0.54947 0.07187 -0.00300
C 	C 	0.99283 0.48377 0.08097 0.04900
H 	H 	0.99993 0.47017 0.02857 0.00700
C 	C 	0.97113 0.49467 0.00897 -0.22100
H 	H 	0.96233 0.50707 0.05917 0.08300
H 	H 	0.98633 0.51147 0.94837 0.09700
C 	C 	0.94103 0.46447 0.95367 0.01800
H 	H 	0.94993 0.45437 0.89457 0.02400
H 	H 	0.92643 0.47267 0.91357 0.00900
C 	C 	0.91713 0.43457 0.04547 -0.13000
H 	H 	0.90383 0.44287 0.09297 0.03900
H 	H 	0.89973 0.41307 0.00317 0.03900
C 	C 	0.93753 0.42547 0.12087 -0.06900
H 	H 	0.94633 0.41207 0.07587 0.04500
H 	H 	0.92203 0.40977 0.18307 0.02400
C 	C 	0.96953 0.45797 0.17697 -0.03600
H 	H 	0.96043 0.47027 0.22777 0.02900
C 	C 	0.97673 0.43337 0.36477 -0.04600
H 	H 	0.97403 0.45127 0.40967 0.01700
H 	H 	0.95283 0.41277 0.35247 0.03800
C 	C 	0.99793 0.42217 0.43297 -0.09400
C 	C 	0.03363 0.44377 0.45807 0.22200
C 	C 	0.05117 0.43117 0.52617 -0.26000
C 	C 	0.03303 0.39677 0.56897 0.06300
H 	H 	0.04503 0.38817 0.61547 -0.00500
C 	C 	0.99733 0.37511 0.54377 -0.05500
C 	C 	0.97981 0.38777 0.47577 -0.00100
H 	H 	0.95543 0.37297 0.45857 0.01700
C 	C 	0.09153 0.45447 0.55767 0.60100
C 	C 	0.15633 0.37037 0.96287 0.04700
H 	H 	0.13423 0.35467 0.99787 0.02500
C 	C 	0.09873 0.48877 0.61987 -0.84700
H 	H 	0.08973 0.50117 0.57237 0.27500
H 	H 	0.08683 0.48287 0.69537 0.26500
H 	H 	0.12423 0.50397 0.63137 0.24300
C 	C 	0.11423 0.46887 0.44767 -0.83800
H 	H 	0.10523 0.48107 0.39957 0.26100
H 	H 	0.13883 0.48537 0.46937 0.23900
H 	H 	0.11323 0.44917 0.40347 0.25800
C 	C 	0.10563 0.43547 0.63227 -0.88800
H 	H 	0.09113 0.42627 0.70247 0.27800
H 	H 	0.10463 0.41577 0.58827 0.27500
H 	H 	0.13023 0.45197 0.65407 0.26400
C 	C 	0.97733 0.33507 0.58447 0.07500
C 	C 	0.94083 0.31537 0.57017 -0.12200
H 	H 	0.92843 0.32617 0.53827 0.05700
C 	C 	0.92253 0.27997 0.60257 0.05500
H 	H 	0.89763 0.26657 0.59287 0.00700
N 	N 	0.94073 0.26427 0.64927 -0.13000
C 	C 	0.97723 0.28407 0.66357 0.05100
H 	H 	0.98963 0.27327 0.69547 0.01000
C 	C 	0.99543 0.31947 0.63117 -0.11300
H 	H 	0.02043 0.33287 0.64087 0.06500
N 	N 	0.02583 0.51187 0.13647 -0.26600
Zn	Zn	0.61704 0.83898 0.84353 1.20300
Zn	Zn	0.50796 0.55364 0.26135 1.20400
N 	N 	0.66643 0.88797 0.86917 -0.21000
N 	N 	0.64423 0.81987 0.93857 -0.25300
N 	N 	0.55113 0.54387 0.24887 -0.22000
O 	O 	0.61343 0.85107 0.68067 -0.44100
O 	O 	0.57763 0.78997 0.82287 -0.45300
O 	O 	0.45793 0.54107 0.29537 -0.46700
O 	O 	0.52233 0.57317 0.41567 -0.45300
N 	N 	0.72283 0.06237 0.44717 -0.12700
C 	C 	0.68623 0.04307 0.43997 0.05000
H 	H 	0.67353 0.05397 0.41177 0.01100
C 	C 	0.66803 0.00777 0.47407 -0.10400
H 	H 	0.64303 0.99467 0.46917 0.06300
C 	C 	0.68663 0.99187 0.51537 0.06700
C 	C 	0.72333 0.01117 0.52257 -0.11600
H 	H 	0.73603 0.00027 0.55077 0.06200
C 	C 	0.74143 0.04637 0.48847 0.05300
H 	H 	0.76653 0.05967 0.49337 0.00900
C 	C 	0.57343 0.87347 0.53727 0.53900
C 	C 	0.66643 0.95347 0.55647 -0.06400
C 	C 	0.68343 0.94117 0.62877 0.00600
H 	H 	0.70753 0.95637 0.64937 0.01800
C 	C 	0.66523 0.90677 0.67097 -0.10300
C 	C 	0.63003 0.88467 0.64087 0.22700
C 	C 	0.61303 0.89697 0.56857 -0.25400
C 	C 	0.63123 0.93137 0.52637 0.07000
H 	H 	0.61953 0.93967 0.47697 -0.00500
C 	C 	0.54903 0.86447 0.64567 -0.75700
H 	H 	0.55603 0.85277 0.70427 0.23200
H 	H 	0.55133 0.88627 0.67817 0.23500
H 	H 	0.52433 0.84847 0.62287 0.21500
C 	C 	0.56713 0.83997 0.47097 -0.79400
H 	H 	0.57563 0.82697 0.51787 0.25900
H 	H 	0.54173 0.82467 0.45597 0.22800
H 	H 	0.57993 0.84687 0.39707 0.24900
C 	C 	0.55913 0.89117 0.45587 -0.79000
H 	H 	0.53403 0.87477 0.44017 0.23400
H 	H 	0.56183 0.91267 0.49257 0.24500
H 	H 	0.57243 0.89747 0.38277 0.24900
C 	C 	0.68523 0.89647 0.75607 -0.04600
H 	H 	0.68623 0.87567 0.72667 0.00400
H 	H 	0.70983 0.91627 0.76547 0.03900
C 	C 	0.68473 0.88137 0.96987 -0.01200
H 	H 	0.67113 0.88067 0.04057 0.01600
C 	C 	0.72203 0.91157 0.98957 -0.07000
H 	H 	0.72253 0.93447 0.99097 0.04700
H 	H 	0.73803 0.91227 0.92747 0.03300
C 	C 	0.73333 0.90387 0.10927 -0.13000
H 	H 	0.75713 0.92367 0.12967 0.04300
H 	H 	0.71653 0.90247 0.16967 0.06200
C 	C 	0.73413 0.87077 0.10807 -0.01900
H 	H 	0.74113 0.86647 0.18547 0.01700
H 	H 	0.75173 0.87227 0.05057 0.00500
C 	C 	0.69743 0.84037 0.07627 -0.16900
H 	H 	0.68113 0.83647 0.14147 0.07100
H 	H 	0.69883 0.81857 0.06707 0.06400
C 	C 	0.68143 0.84637 0.96287 0.02900
H 	H 	0.69603 0.84637 0.89597 0.01400
C 	C 	0.59573 0.75817 0.94657 -0.13000
C 	C 	0.58673 0.72627 0.00077 -0.02600
H 	H 	0.60333 0.72467 0.04997 0.03000
C 	C 	0.55353 0.69687 0.98297 -0.04700
C 	C 	0.52933 0.69937 0.91097 0.05900
H 	H 	0.50663 0.67927 0.89877 -0.01600
C 	C 	0.53823 0.73117 0.85667 -0.26600
C 	C 	0.57143 0.76057 0.87447 0.26500
C 	C 	0.51093 0.73267 0.77907 0.53100
C 	C 	0.52463 0.74277 0.64737 -0.73100
H 	H 	0.53073 0.72557 0.61707 0.21500
H 	H 	0.50593 0.74247 0.59957 0.20700
H 	H 	0.54563 0.76647 0.64557 0.23700
C 	C 	0.50123 0.75877 0.82967 -0.82400
H 	H 	0.48363 0.75987 0.77947 0.23500
H 	H 	0.49143 0.75117 0.90727 0.25300
H 	H 	0.52243 0.78227 0.83347 0.26500
C 	C 	0.47703 0.69607 0.76917 -0.75800
H 	H 	0.48303 0.67897 0.73677 0.21600
H 	H 	0.46653 0.68807 0.84627 0.22300
H 	H 	0.46003 0.69777 0.71817 0.21300
C 	C 	0.54473 0.66177 0.04807 0.06200
C 	C 	0.56793 0.65947 0.12507 -0.13200
H 	H 	0.59053 0.67967 0.13947 0.06900
C 	C 	0.55833 0.62777 0.18107 0.04100
H 	H 	0.57423 0.62617 0.23377 -0.00500
N 	N 	0.52533 0.59817 0.16007 -0.26000
C 	C 	0.50213 0.60057 0.08297 0.04800
H 	H 	0.47953 0.58037 0.06857 -0.02200
C 	C 	0.51173 0.63227 0.02697 -0.16300
H 	H 	0.49583 0.63387 0.97427 0.07100
C 	C 	0.40133 0.55317 0.35187 0.66200
N 	N 	0.26723 0.41227 0.94347 -0.24300
C 	C 	0.26793 0.43357 0.03427 0.02100
H 	H 	0.24703 0.43367 0.05597 -0.01300
C 	C 	0.29943 0.45487 0.09337 -0.13000
H 	H 	0.29983 0.46937 0.15537 0.05000
C 	C 	0.33003 0.45477 0.06157 0.06100
C 	C 	0.32933 0.43347 0.97077 -0.11000
H 	H 	0.35033 0.43347 0.94907 0.06800
C 	C 	0.29793 0.41217 0.91177 0.03500
H 	H 	0.29743 0.39767 0.84967 -0.00400
C 	C 	0.41393 0.54707 0.46917 -0.91700
H 	H 	0.39683 0.52357 0.49847 0.27200
H 	H 	0.43703 0.54877 0.45967 0.29600
H 	H 	0.41603 0.56507 0.52457 0.26100
C 	C 	0.36463 0.47757 0.12847 -0.10400
C 	C 	0.39413 0.47437 0.10477 0.04600
H 	H 	0.39263 0.45737 0.05047 0.00600
C 	C 	0.42603 0.49637 0.16047 -0.17900
C 	C 	0.42833 0.52137 0.23987 0.30200
C 	C 	0.39873 0.52447 0.26357 -0.31900
C 	C 	0.36693 0.50257 0.20787 0.10200
H 	H 	0.34673 0.50467 0.22407 -0.03500
C 	C 	0.42813 0.58927 0.31027 -0.92900
H 	H 	0.45093 0.59047 0.29967 0.28800
H 	H 	0.42033 0.59417 0.23627 0.27100
H 	H 	0.43063 0.60697 0.36777 0.26100
C 	C 	0.36623 0.55257 0.36737 -0.88500
H 	H 	0.34813 0.52917 0.39457 0.25000
H 	H 	0.36923 0.57057 0.42437 0.24500
H 	H 	0.35883 0.55757 0.29287 0.25400
C 	C 	0.45603 0.49227 0.11707 0.08100
H 	H 	0.45053 0.47197 0.07187 -0.00100
C 	C 	0.51623 0.50907 0.08097 0.04300
H 	H 	0.52983 0.52977 0.02857 0.00600
C 	C 	0.50533 0.47647 0.00897 -0.21800
H 	H 	0.49293 0.45527 0.05917 0.08100
H 	H 	0.48853 0.47487 0.94837 0.09300
C 	C 	0.53553 0.47657 0.95367 0.01600
H 	H 	0.54563 0.49557 0.89457 0.02400
H 	H 	0.52733 0.45377 0.91357 0.00900
C 	C 	0.56543 0.48257 0.04547 -0.12800
H 	H 	0.55713 0.46097 0.09297 0.03900
H 	H 	0.58693 0.48667 0.00317 0.03900
C 	C 	0.57453 0.51207 0.12087 -0.07000
H 	H 	0.58793 0.53427 0.07587 0.04500
H 	H 	0.59023 0.51227 0.18307 0.02500
C 	C 	0.54203 0.51157 0.17697 -0.03400
H 	H 	0.52973 0.49017 0.22777 0.02800
C 	C 	0.56663 0.54337 0.36477 -0.04000
H 	H 	0.54873 0.52277 0.40967 0.01500
H 	H 	0.58723 0.54007 0.35247 0.03600
C 	C 	0.57783 0.57577 0.43297 -0.10800
C 	C 	0.55623 0.58987 0.45807 0.23400
C 	C 	0.56883 0.62001 0.52617 -0.27000
C 	C 	0.60323 0.63627 0.56897 0.08000
H 	H 	0.61183 0.65687 0.61547 -0.01000
C 	C 	0.62489 0.62223 0.54377 -0.07200
C 	C 	0.61223 0.59205 0.47577 0.01000
H 	H 	0.62703 0.58247 0.45857 0.01300
C 	C 	0.54553 0.63707 0.55767 0.60600
C 	C 	0.62963 0.78597 0.96287 0.04700
H 	H 	0.64533 0.77957 0.99787 0.02500
C 	C 	0.51123 0.60997 0.61987 -0.85100
H 	H 	0.49883 0.58857 0.57237 0.27600
H 	H 	0.51713 0.60397 0.69537 0.26600
H 	H 	0.49603 0.62027 0.63137 0.24400
C 	C 	0.53113 0.64537 0.44767 -0.84200
H 	H 	0.51893 0.62417 0.39957 0.26200
H 	H 	0.51463 0.65347 0.46937 0.24000
H 	H 	0.55083 0.66407 0.40347 0.25900
C 	C 	0.56453 0.67017 0.63227 -0.89200
H 	H 	0.57373 0.66487 0.70247 0.27900
H 	H 	0.58423 0.68887 0.58827 0.27700
H 	H 	0.54803 0.67827 0.65407 0.26500
C 	C 	0.66493 0.64227 0.58447 0.08500
C 	C 	0.68463 0.62547 0.57017 -0.12900
H 	H 	0.67383 0.60227 0.53827 0.05900
C 	C 	0.72003 0.64257 0.60257 0.05800
H 	H 	0.73343 0.63107 0.59287 0.00600
N 	N 	0.73573 0.67647 0.64927 -0.13200
C 	C 	0.71593 0.69317 0.66357 0.05900
H 	H 	0.72673 0.71637 0.69547 0.00400
C 	C 	0.68053 0.67597 0.63117 -0.13100
H 	H 	0.66713 0.68757 0.64087 0.07400
N 	N 	0.48813 0.51397 0.13647 -0.26300
Zn	Zn	0.16102 0.77807 0.84353 1.20300
Zn	Zn	0.44636 0.95433 0.26135 1.20300
N 	N 	0.11203 0.77847 0.86917 -0.21000
N 	N 	0.18013 0.82437 0.93857 -0.25300
N 	N 	0.45613 0.00727 0.24887 -0.21700
O 	O 	0.14893 0.76237 0.68067 -0.44100
O 	O 	0.21003 0.78767 0.82287 -0.45300
O 	O 	0.45893 0.91687 0.29537 -0.46700
O 	O 	0.42683 0.94917 0.41567 -0.45200
N 	N 	0.93763 0.66047 0.44717 -0.12700
C 	C 	0.95693 0.64317 0.43997 0.05000
H 	H 	0.94603 0.61957 0.41177 0.01100
C 	C 	0.99223 0.66027 0.47407 -0.10400
H 	H 	0.00533 0.64837 0.46917 0.06300
C 	C 	0.00813 0.69477 0.51537 0.06700
C 	C 	0.98883 0.71217 0.52257 -0.11600
H 	H 	0.99973 0.73577 0.55077 0.06200
C 	C 	0.95363 0.69507 0.48847 0.05300
H 	H 	0.94033 0.70687 0.49337 0.00900
C 	C 	0.12653 0.69997 0.53727 0.53900
C 	C 	0.04653 0.71297 0.55647 -0.06400
C 	C 	0.05883 0.74227 0.62877 0.00600
H 	H 	0.04363 0.75117 0.64937 0.01800
C 	C 	0.09323 0.75847 0.67097 -0.10300
C 	C 	0.11533 0.74537 0.64087 0.22700
C 	C 	0.10303 0.71607 0.56857 -0.25400
C 	C 	0.06863 0.69987 0.52637 0.07000
H 	H 	0.06033 0.67987 0.47697 -0.00500
C 	C 	0.13553 0.68457 0.64567 -0.75700
H 	H 	0.14723 0.70327 0.70427 0.23200
H 	H 	0.11373 0.66507 0.67817 0.23500
H 	H 	0.15153 0.67587 0.62287 0.21500
C 	C 	0.16003 0.72717 0.47097 -0.79400
H 	H 	0.17303 0.74867 0.51787 0.25900
H 	H 	0.17533 0.71707 0.45597 0.22800
H 	H 	0.15313 0.73307 0.39707 0.24900
C 	C 	0.10883 0.66797 0.45587 -0.79000
H 	H 	0.12523 0.65927 0.44017 0.23400
H 	H 	0.08733 0.64917 0.49257 0.24500
H 	H 	0.10253 0.67497 0.38277 0.24900
C 	C 	0.10353 0.78877 0.75607 -0.04600
H 	H 	0.12433 0.81057 0.72667 0.00400
H 	H 	0.08373 0.79357 0.76547 0.03900
C 	C 	0.11863 0.80337 0.96987 -0.01200
H 	H 	0.11933 0.79047 0.04057 0.01600
C 	C 	0.08843 0.81047 0.98957 -0.07000
H 	H 	0.06553 0.78807 0.99097 0.04700
H 	H 	0.08773 0.82577 0.92747 0.03300
C 	C 	0.09613 0.82947 0.10927 -0.13000
H 	H 	0.07633 0.83347 0.12967 0.04300
H 	H 	0.09753 0.81407 0.16967 0.06200
C 	C 	0.12923 0.86337 0.10807 -0.01900
H 	H 	0.13353 0.87467 0.18547 0.01700
H 	H 	0.12773 0.87947 0.05057 0.00500
C 	C 	0.15963 0.85707 0.07627 -0.16900
H 	H 	0.16353 0.84467 0.14147 0.07100
H 	H 	0.18143 0.88027 0.06707 0.06400
C 	C 	0.15363 0.83507 0.96287 0.02900
H 	H 	0.15363 0.84967 0.89597 0.01400
C 	C 	0.24183 0.83757 0.94657 -0.13000
C 	C 	0.27373 0.86047 0.00077 -0.02500
H 	H 	0.27533 0.87867 0.04997 0.03000
C 	C 	0.30313 0.85667 0.98297 -0.04700
C 	C 	0.30063 0.82997 0.91097 0.05900
H 	H 	0.32073 0.82737 0.89877 -0.01600
C 	C 	0.26883 0.80707 0.85667 -0.26600
C 	C 	0.23943 0.81087 0.87447 0.26500
C 	C 	0.26733 0.77827 0.77907 0.53100
C 	C 	0.25723 0.78187 0.64737 -0.73100
H 	H 	0.27443 0.80517 0.61707 0.21500
H 	H 	0.25753 0.76347 0.59957 0.20700
H 	H 	0.23353 0.77917 0.64557 0.23700
C 	C 	0.24123 0.74247 0.82967 -0.82400
H 	H 	0.24013 0.72377 0.77947 0.23600
H 	H 	0.24883 0.74027 0.90727 0.25300
H 	H 	0.21773 0.74017 0.83347 0.26600
C 	C 	0.30393 0.78097 0.76917 -0.75900
H 	H 	0.32103 0.80407 0.73677 0.21600
H 	H 	0.31193 0.77847 0.84627 0.22300
H 	H 	0.30223 0.76227 0.71817 0.21300
C 	C 	0.33823 0.88297 0.04807 0.06300
C 	C 	0.34053 0.90847 0.12507 -0.13200
H 	H 	0.32033 0.91087 0.13947 0.06900
C 	C 	0.37223 0.93057 0.18107 0.04100
H 	H 	0.37383 0.94807 0.23377 -0.00600
N 	N 	0.40183 0.92717 0.16007 -0.26000
C 	C 	0.39943 0.90157 0.08297 0.04700
H 	H 	0.41963 0.89917 0.06857 -0.02200
C 	C 	0.36773 0.87947 0.02697 -0.16200
H 	H 	0.36613 0.86197 0.97427 0.07100
C 	C 	0.44683 0.84817 0.35187 0.66300
N 	N 	0.58773 0.85497 0.94347 -0.24300
C 	C 	0.56643 0.83437 0.03427 0.02100
H 	H 	0.56633 0.81337 0.05597 -0.01300
C 	C 	0.54513 0.84457 0.09337 -0.13000
H 	H 	0.53063 0.83047 0.15537 0.05000
C 	C 	0.54523 0.87527 0.06157 0.06200
C 	C 	0.56653 0.89587 0.97077 -0.11000
H 	H 	0.56653 0.91687 0.94907 0.06800
C 	C 	0.58783 0.88577 0.91177 0.03500
H 	H 	0.60233 0.89977 0.84967 -0.00400
C 	C 	0.45293 0.86687 0.46917 -0.91700
H 	H 	0.47643 0.87327 0.49847 0.27200
H 	H 	0.45123 0.88827 0.45967 0.29600
H 	H 	0.43493 0.85097 0.52457 0.26100
C 	C 	0.52243 0.88707 0.12847 -0.10500
C 	C 	0.52563 0.91977 0.10477 0.04600
H 	H 	0.54263 0.93527 0.05047 0.00600
C 	C 	0.50363 0.92967 0.16047 -0.18000
C 	C 	0.47863 0.90697 0.23987 0.30200
C 	C 	0.47553 0.87427 0.26357 -0.32000
C 	C 	0.49743 0.86437 0.20787 0.10300
H 	H 	0.49533 0.84207 0.22407 -0.03500
C 	C 	0.41073 0.83887 0.31027 -0.92900
H 	H 	0.40953 0.86047 0.29967 0.28900
H 	H 	0.40583 0.82617 0.23627 0.27100
H 	H 	0.39303 0.82367 0.36777 0.26100
C 	C 	0.44743 0.81367 0.36737 -0.88500
H 	H 	0.47083 0.81897 0.39457 0.25000
H 	H 	0.42943 0.79867 0.42437 0.24500
H 	H 	0.44243 0.80127 0.29287 0.25500
C 	C 	0.50773 0.96377 0.11707 0.08100
H 	H 	0.52803 0.97857 0.07187 -0.00300
C 	C 	0.49093 0.00717 0.08097 0.04900
H 	H 	0.47023 0.00007 0.02857 0.00700
C 	C 	0.52353 0.02887 0.00897 -0.22100
H 	H 	0.54473 0.03767 0.05917 0.08300
H 	H 	0.52513 0.01367 0.94837 0.09700
C 	C 	0.52343 0.05897 0.95367 0.01800
H 	H 	0.50443 0.05007 0.89457 0.02400
H 	H 	0.54623 0.07357 0.91357 0.00900
C 	C 	0.51743 0.08287 0.04547 -0.13000
H 	H 	0.53903 0.09617 0.09297 0.03900
H 	H 	0.51333 0.10027 0.00317 0.03900
C 	C 	0.48793 0.06247 0.12087 -0.06900
H 	H 	0.46573 0.05367 0.07587 0.04500
H 	H 	0.48773 0.07797 0.18307 0.02400
C 	C 	0.48843 0.03047 0.17697 -0.03600
H 	H 	0.50983 0.03957 0.22777 0.02900
C 	C 	0.45663 0.02327 0.36477 -0.04600
H 	H 	0.47723 0.02597 0.40967 0.01700
H 	H 	0.45993 0.04717 0.35247 0.03800
C 	C 	0.42423 0.00207 0.43297 -0.09400
C 	C 	0.41013 0.96637 0.45807 0.22200
C 	C 	0.37999 0.94883 0.52617 -0.26000
C 	C 	0.36373 0.96697 0.56897 0.06300
H 	H 	0.34313 0.95497 0.61547 -0.00500
C 	C 	0.37777 0.00267 0.54377 -0.05500
C 	C 	0.40795 0.02019 0.47577 -0.00100
H 	H 	0.41753 0.04457 0.45857 0.01700
C 	C 	0.36293 0.90847 0.55767 0.60100
C 	C 	0.21403 0.84367 0.96287 0.04700
H 	H 	0.22043 0.86577 0.99787 0.02500
C 	C 	0.39003 0.90127 0.61987 -0.84700
H 	H 	0.41143 0.91027 0.57237 0.27500
H 	H 	0.39603 0.91317 0.69537 0.26500
H 	H 	0.37973 0.87577 0.63137 0.24300
C 	C 	0.35463 0.88577 0.44767 -0.83800
H 	H 	0.37583 0.89477 0.39957 0.26100
H 	H 	0.34653 0.86117 0.46937 0.23900
H 	H 	0.33593 0.88677 0.40347 0.25800
C 	C 	0.32983 0.89437 0.63227 -0.88800
H 	H 	0.33513 0.90887 0.70247 0.27800
H 	H 	0.31113 0.89537 0.58827 0.27500
H 	H 	0.32173 0.86977 0.65407 0.26400
C 	C 	0.35773 0.02267 0.58447 0.07500
C 	C 	0.37453 0.05917 0.57017 -0.12200
H 	H 	0.39773 0.07157 0.53827 0.05700
C 	C 	0.35743 0.07747 0.60257 0.05500
H 	H 	0.36893 0.10237 0.59287 0.00700
N 	N 	0.32353 0.05927 0.64927 -0.13000
C 	C 	0.30683 0.02277 0.66357 0.05100
H 	H 	0.28363 0.01037 0.69547 0.01000
C 	C 	0.32403 0.00457 0.63117 -0.11300
H 	H 	0.31243 0.97957 0.64087 0.06500
N 	N 	0.48603 0.97417 0.13647 -0.26600
