data_crystal

_cell_length_a 49.36500
_cell_length_b 49.36500
_cell_length_c 49.36500
_cell_angle_alpha 90.00000
_cell_angle_beta  90.00000
_cell_angle_gamma 90.00000

_symmetry_space_group_name_	'P 1'
_symmetry_space_group_name_H-M	'P 1'

loop_
_symmetry_equiv_pos_as_xyz
  x,y,z

loop_
_atom_site_label
_atom_site_type_symbol
_atom_site_fract_x
_atom_site_fract_y
_atom_site_fract_z
_atom_site_charge
O 	O 	0.25187 0.42023 0.97577 -0.58400
O 	O 	0.21111 0.44804 0.94731 -0.60800
O 	O 	0.17675 0.52756 0.02887 -0.58900
O 	O 	0.98020 0.92970 0.04000 -0.52000
C 	C 	0.26600 0.36520 0.02590 0.07700
H 	H 	0.26560 0.37460 0.04230 0.04400
C 	C 	0.27070 0.33770 0.02500 -0.14900
H 	H 	0.27220 0.32770 0.04090 0.13400
C 	C 	0.29520 0.23080 0.02190 0.11300
C 	C 	0.18690 0.54600 0.04620 0.44700
C 	C 	0.16540 0.55950 0.06220 -0.15600
C 	C 	0.17235 0.57820 0.08210 0.12500
H 	H 	0.19040 0.58080 0.08670 0.02800
C 	C 	0.15230 0.59290 0.09530 -0.18000
H 	H 	0.15690 0.60530 0.10860 0.14200
C 	C 	0.12520 0.58890 0.08850 0.18000
C 	C 	0.11826 0.57020 0.06860 -0.17900
H 	H 	0.10020 0.56760 0.06410 0.13400
C 	C 	0.13840 0.55550 0.05550 0.12400
H 	H 	0.13370 0.54310 0.04210 0.02500
C 	C 	0.10430 0.60520 0.10160 -0.05200
C 	C 	0.08760 0.61900 0.11180 0.17000
C 	C 	0.06660 0.63700 0.12280 -0.02100
C 	C 	0.05680 0.63170 0.14860 0.13800
C 	C 	0.03640 0.64780 0.15960 0.65700
C 	C 	0.02595 0.66930 0.14460 -0.84400
C 	C 	0.03580 0.67460 0.11880 0.68600
C 	C 	0.05610 0.65840 0.10790 0.13500
C 	C 	0.02130 0.73320 0.14270 0.64700
C 	C 	0.02130 0.75960 0.13510 0.05000
C 	C 	0.97640 0.86210 0.08630 -0.17500
H 	H 	0.96110 0.85610 0.09540 0.14100
C 	C 	0.97680 0.88660 0.07260 0.11900
H 	H 	0.96020 0.89480 0.06880 0.03000
C 	C 	0.02280 0.69750 0.20400 0.57700
F 	F 	0.02770 0.64340 0.18260 -0.44900
F 	F 	0.06580 0.61170 0.16330 -0.33300
F 	F 	0.06750 0.66100 0.08410 -0.33800
F 	F 	0.02580 0.69100 0.10400 -0.47300
F 	F 	0.04590 0.72030 0.14280 -0.40400
F 	F 	0.04510 0.77370 0.13100 -0.31600
F 	F 	0.04610 0.69230 0.19150 -0.40200
F 	F 	0.29370 0.24540 0.04530 -0.32900
O 	O 	0.74813 0.57977 0.97577 -0.58400
O 	O 	0.78889 0.55196 0.94731 -0.60800
O 	O 	0.82325 0.47244 0.02887 -0.58900
O 	O 	0.01980 0.07030 0.04000 -0.52000
C 	C 	0.73400 0.63480 0.02590 0.07700
H 	H 	0.73440 0.62540 0.04230 0.04400
C 	C 	0.72930 0.66230 0.02500 -0.14900
H 	H 	0.72780 0.67230 0.04090 0.13400
C 	C 	0.70480 0.76920 0.02190 0.11300
C 	C 	0.81310 0.45400 0.04620 0.44700
C 	C 	0.83460 0.44050 0.06220 -0.15600
C 	C 	0.82765 0.42180 0.08210 0.12500
H 	H 	0.80960 0.41920 0.08670 0.02800
C 	C 	0.84770 0.40710 0.09530 -0.18000
H 	H 	0.84310 0.39470 0.10860 0.14200
C 	C 	0.87480 0.41110 0.08850 0.18000
C 	C 	0.88174 0.42980 0.06860 -0.17900
H 	H 	0.89980 0.43240 0.06410 0.13400
C 	C 	0.86160 0.44450 0.05550 0.12400
H 	H 	0.86630 0.45690 0.04210 0.02500
C 	C 	0.89570 0.39480 0.10160 -0.05200
C 	C 	0.91240 0.38100 0.11180 0.17000
C 	C 	0.93340 0.36300 0.12280 -0.02100
C 	C 	0.94320 0.36830 0.14860 0.13800
C 	C 	0.96360 0.35220 0.15960 0.65700
C 	C 	0.97405 0.33070 0.14460 -0.84300
C 	C 	0.96420 0.32540 0.11880 0.68600
C 	C 	0.94390 0.34160 0.10790 0.13500
C 	C 	0.97870 0.26680 0.14270 0.64800
C 	C 	0.97870 0.24040 0.13510 0.05000
C 	C 	0.02360 0.13790 0.08630 -0.17600
H 	H 	0.03890 0.14390 0.09540 0.14100
C 	C 	0.02320 0.11340 0.07260 0.11900
H 	H 	0.03980 0.10520 0.06880 0.03000
C 	C 	0.97720 0.30250 0.20400 0.57700
F 	F 	0.97230 0.35660 0.18260 -0.44900
F 	F 	0.93420 0.38830 0.16330 -0.33300
F 	F 	0.93250 0.33900 0.08410 -0.33800
F 	F 	0.97420 0.30900 0.10400 -0.47300
F 	F 	0.95410 0.27970 0.14280 -0.40400
F 	F 	0.95490 0.22630 0.13100 -0.31600
F 	F 	0.95390 0.30770 0.19150 -0.40200
F 	F 	0.70630 0.75460 0.04530 -0.32900
O 	O 	0.74813 0.42023 0.02423 -0.58400
O 	O 	0.78889 0.44804 0.05269 -0.60800
O 	O 	0.82325 0.52756 0.97113 -0.58800
O 	O 	0.01980 0.92970 0.96000 -0.52000
C 	C 	0.73400 0.36520 0.97410 0.07800
H 	H 	0.73440 0.37460 0.95770 0.04400
C 	C 	0.72930 0.33770 0.97500 -0.14800
H 	H 	0.72780 0.32770 0.95910 0.13400
C 	C 	0.70480 0.23080 0.97810 0.11300
C 	C 	0.81310 0.54600 0.95380 0.44700
C 	C 	0.83460 0.55950 0.93780 -0.15600
C 	C 	0.82765 0.57820 0.91790 0.12500
H 	H 	0.80960 0.58080 0.91330 0.02800
C 	C 	0.84770 0.59290 0.90470 -0.18000
H 	H 	0.84310 0.60530 0.89140 0.14200
C 	C 	0.87480 0.58890 0.91150 0.18000
C 	C 	0.88174 0.57020 0.93140 -0.17900
H 	H 	0.89980 0.56760 0.93590 0.13400
C 	C 	0.86160 0.55550 0.94450 0.12400
H 	H 	0.86630 0.54310 0.95790 0.02500
C 	C 	0.89570 0.60520 0.89840 -0.05200
C 	C 	0.91240 0.61900 0.88820 0.17000
C 	C 	0.93340 0.63700 0.87720 -0.02100
C 	C 	0.94320 0.63170 0.85140 0.13700
C 	C 	0.96360 0.64780 0.84040 0.65600
C 	C 	0.97405 0.66930 0.85540 -0.84400
C 	C 	0.96420 0.67460 0.88120 0.68500
C 	C 	0.94390 0.65840 0.89210 0.13400
C 	C 	0.97870 0.73320 0.85730 0.64700
C 	C 	0.97870 0.75960 0.86490 0.04900
C 	C 	0.02360 0.86210 0.91370 -0.17700
H 	H 	0.03890 0.85610 0.90460 0.14000
C 	C 	0.02320 0.88660 0.92740 0.11700
H 	H 	0.03980 0.89480 0.93120 0.02900
C 	C 	0.97720 0.69750 0.79600 0.57600
F 	F 	0.97230 0.64340 0.81740 -0.45000
F 	F 	0.93420 0.61170 0.83670 -0.33400
F 	F 	0.93250 0.66100 0.91590 -0.33900
F 	F 	0.97420 0.69100 0.89600 -0.47400
F 	F 	0.95410 0.72030 0.85720 -0.40500
F 	F 	0.95490 0.77370 0.86900 -0.31700
F 	F 	0.95390 0.69230 0.80850 -0.40300
F 	F 	0.70630 0.24540 0.95470 -0.33000
O 	O 	0.25187 0.57977 0.02423 -0.58500
O 	O 	0.21111 0.55196 0.05269 -0.60900
O 	O 	0.17675 0.47244 0.97113 -0.58900
O 	O 	0.98020 0.07030 0.96000 -0.52100
C 	C 	0.26600 0.63480 0.97410 0.07700
H 	H 	0.26560 0.62540 0.95770 0.04300
C 	C 	0.27070 0.66230 0.97500 -0.14900
H 	H 	0.27220 0.67230 0.95910 0.13300
C 	C 	0.29520 0.76920 0.97810 0.11200
C 	C 	0.18690 0.45400 0.95380 0.44600
C 	C 	0.16540 0.44050 0.93780 -0.15700
C 	C 	0.17235 0.42180 0.91790 0.12400
H 	H 	0.19040 0.41920 0.91330 0.02700
C 	C 	0.15230 0.40710 0.90470 -0.18100
H 	H 	0.15690 0.39470 0.89140 0.14100
C 	C 	0.12520 0.41110 0.91150 0.17900
C 	C 	0.11826 0.42980 0.93140 -0.18000
H 	H 	0.10020 0.43240 0.93590 0.13300
C 	C 	0.13840 0.44450 0.94450 0.12300
H 	H 	0.13370 0.45690 0.95790 0.02400
C 	C 	0.10430 0.39480 0.89840 -0.05300
C 	C 	0.08760 0.38100 0.88820 0.16900
C 	C 	0.06660 0.36300 0.87720 -0.02200
C 	C 	0.05680 0.36830 0.85140 0.13700
C 	C 	0.03640 0.35220 0.84040 0.65600
C 	C 	0.02595 0.33070 0.85540 -0.84500
C 	C 	0.03580 0.32540 0.88120 0.68500
C 	C 	0.05610 0.34160 0.89210 0.13400
C 	C 	0.02130 0.26680 0.85730 0.64600
C 	C 	0.02130 0.24040 0.86490 0.04900
C 	C 	0.97640 0.13790 0.91370 -0.17600
H 	H 	0.96110 0.14390 0.90460 0.14000
C 	C 	0.97680 0.11340 0.92740 0.11800
H 	H 	0.96020 0.10520 0.93120 0.02900
C 	C 	0.02280 0.30250 0.79600 0.57500
F 	F 	0.02770 0.35660 0.81740 -0.45000
F 	F 	0.06580 0.38830 0.83670 -0.33400
F 	F 	0.06750 0.33900 0.91590 -0.33900
F 	F 	0.02580 0.30900 0.89600 -0.47400
F 	F 	0.04590 0.27970 0.85720 -0.40500
F 	F 	0.04510 0.22630 0.86900 -0.31700
F 	F 	0.04610 0.30770 0.80850 -0.40300
F 	F 	0.29370 0.75460 0.95470 -0.33000
O 	O 	0.97577 0.25187 0.42023 -0.58500
O 	O 	0.94731 0.21111 0.44804 -0.60900
O 	O 	0.02887 0.17675 0.52756 -0.59000
O 	O 	0.04000 0.98020 0.92970 -0.52100
C 	C 	0.02590 0.26600 0.36520 0.07600
H 	H 	0.04230 0.26560 0.37460 0.04300
C 	C 	0.02500 0.27070 0.33770 -0.15000
H 	H 	0.04090 0.27220 0.32770 0.13300
C 	C 	0.02190 0.29520 0.23080 0.11200
C 	C 	0.04620 0.18690 0.54600 0.44600
C 	C 	0.06220 0.16540 0.55950 -0.15700
C 	C 	0.08210 0.17235 0.57820 0.12400
H 	H 	0.08670 0.19040 0.58080 0.02700
C 	C 	0.09530 0.15230 0.59290 -0.18100
H 	H 	0.10860 0.15690 0.60530 0.14100
C 	C 	0.08850 0.12520 0.58890 0.17900
C 	C 	0.06860 0.11826 0.57020 -0.18000
H 	H 	0.06410 0.10020 0.56760 0.13300
C 	C 	0.05550 0.13840 0.55550 0.12300
H 	H 	0.04210 0.13370 0.54310 0.02400
C 	C 	0.10160 0.10430 0.60520 -0.05300
C 	C 	0.11180 0.08760 0.61900 0.16900
C 	C 	0.12280 0.06660 0.63700 -0.02200
C 	C 	0.14860 0.05680 0.63170 0.13700
C 	C 	0.15960 0.03640 0.64780 0.65600
C 	C 	0.14460 0.02595 0.66930 -0.84500
C 	C 	0.11880 0.03580 0.67460 0.68500
C 	C 	0.10790 0.05610 0.65840 0.13400
C 	C 	0.14270 0.02130 0.73320 0.64600
C 	C 	0.13510 0.02130 0.75960 0.04900
C 	C 	0.08630 0.97640 0.86210 -0.17600
H 	H 	0.09540 0.96110 0.85610 0.14000
C 	C 	0.07260 0.97680 0.88660 0.11800
H 	H 	0.06880 0.96020 0.89480 0.02900
C 	C 	0.20400 0.02280 0.69750 0.57600
F 	F 	0.18260 0.02770 0.64340 -0.45000
F 	F 	0.16330 0.06580 0.61170 -0.33400
F 	F 	0.08410 0.06750 0.66100 -0.33900
F 	F 	0.10400 0.02580 0.69100 -0.47400
F 	F 	0.14280 0.04590 0.72030 -0.40500
F 	F 	0.13100 0.04510 0.77370 -0.31700
F 	F 	0.19150 0.04610 0.69230 -0.40300
F 	F 	0.04530 0.29370 0.24540 -0.33000
O 	O 	0.97577 0.74813 0.57977 -0.58500
O 	O 	0.94731 0.78889 0.55196 -0.60900
O 	O 	0.02887 0.82325 0.47244 -0.59000
O 	O 	0.04000 0.01980 0.07030 -0.52100
C 	C 	0.02590 0.73400 0.63480 0.07600
H 	H 	0.04230 0.73440 0.62540 0.04300
C 	C 	0.02500 0.72930 0.66230 -0.15000
H 	H 	0.04090 0.72780 0.67230 0.13300
C 	C 	0.02190 0.70480 0.76920 0.11200
C 	C 	0.04620 0.81310 0.45400 0.44600
C 	C 	0.06220 0.83460 0.44050 -0.15700
C 	C 	0.08210 0.82765 0.42180 0.12400
H 	H 	0.08670 0.80960 0.41920 0.02700
C 	C 	0.09530 0.84770 0.40710 -0.18100
H 	H 	0.10860 0.84310 0.39470 0.14100
C 	C 	0.08850 0.87480 0.41110 0.17900
C 	C 	0.06860 0.88174 0.42980 -0.18000
H 	H 	0.06410 0.89980 0.43240 0.13300
C 	C 	0.05550 0.86160 0.44450 0.12300
H 	H 	0.04210 0.86630 0.45690 0.02400
C 	C 	0.10160 0.89570 0.39480 -0.05300
C 	C 	0.11180 0.91240 0.38100 0.16900
C 	C 	0.12280 0.93340 0.36300 -0.02200
C 	C 	0.14860 0.94320 0.36830 0.13700
C 	C 	0.15960 0.96360 0.35220 0.65600
C 	C 	0.14460 0.97405 0.33070 -0.84400
C 	C 	0.11880 0.96420 0.32540 0.68500
C 	C 	0.10790 0.94390 0.34160 0.13400
C 	C 	0.14270 0.97870 0.26680 0.64700
C 	C 	0.13510 0.97870 0.24040 0.04900
C 	C 	0.08630 0.02360 0.13790 -0.17700
H 	H 	0.09540 0.03890 0.14390 0.14000
C 	C 	0.07260 0.02320 0.11340 0.11800
H 	H 	0.06880 0.03980 0.10520 0.02900
C 	C 	0.20400 0.97720 0.30250 0.57600
F 	F 	0.18260 0.97230 0.35660 -0.45000
F 	F 	0.16330 0.93420 0.38830 -0.33400
F 	F 	0.08410 0.93250 0.33900 -0.33900
F 	F 	0.10400 0.97420 0.30900 -0.47400
F 	F 	0.14280 0.95410 0.27970 -0.40500
F 	F 	0.13100 0.95490 0.22630 -0.31700
F 	F 	0.19150 0.95390 0.30770 -0.40300
F 	F 	0.04530 0.70630 0.75460 -0.33000
O 	O 	0.02423 0.74813 0.42023 -0.58500
O 	O 	0.05269 0.78889 0.44804 -0.60900
O 	O 	0.97113 0.82325 0.52756 -0.58900
O 	O 	0.96000 0.01980 0.92970 -0.52100
C 	C 	0.97410 0.73400 0.36520 0.07700
H 	H 	0.95770 0.73440 0.37460 0.04300
C 	C 	0.97500 0.72930 0.33770 -0.14900
H 	H 	0.95910 0.72780 0.32770 0.13300
C 	C 	0.97810 0.70480 0.23080 0.11200
C 	C 	0.95380 0.81310 0.54600 0.44600
C 	C 	0.93780 0.83460 0.55950 -0.15700
C 	C 	0.91790 0.82765 0.57820 0.12400
H 	H 	0.91330 0.80960 0.58080 0.02700
C 	C 	0.90470 0.84770 0.59290 -0.18100
H 	H 	0.89140 0.84310 0.60530 0.14100
C 	C 	0.91150 0.87480 0.58890 0.17900
C 	C 	0.93140 0.88174 0.57020 -0.18000
H 	H 	0.93590 0.89980 0.56760 0.13300
C 	C 	0.94450 0.86160 0.55550 0.12300
H 	H 	0.95790 0.86630 0.54310 0.02400
C 	C 	0.89840 0.89570 0.60520 -0.05300
C 	C 	0.88820 0.91240 0.61900 0.16900
C 	C 	0.87720 0.93340 0.63700 -0.02200
C 	C 	0.85140 0.94320 0.63170 0.13700
C 	C 	0.84040 0.96360 0.64780 0.65600
C 	C 	0.85540 0.97405 0.66930 -0.84400
C 	C 	0.88120 0.96420 0.67460 0.68500
C 	C 	0.89210 0.94390 0.65840 0.13400
C 	C 	0.85730 0.97870 0.73320 0.64700
C 	C 	0.86490 0.97870 0.75960 0.04900
C 	C 	0.91370 0.02360 0.86210 -0.17700
H 	H 	0.90460 0.03890 0.85610 0.14000
C 	C 	0.92740 0.02320 0.88660 0.11700
H 	H 	0.93120 0.03980 0.89480 0.02900
C 	C 	0.79600 0.97720 0.69750 0.57600
F 	F 	0.81740 0.97230 0.64340 -0.45000
F 	F 	0.83670 0.93420 0.61170 -0.33400
F 	F 	0.91590 0.93250 0.66100 -0.33900
F 	F 	0.89600 0.97420 0.69100 -0.47400
F 	F 	0.85720 0.95410 0.72030 -0.40500
F 	F 	0.86900 0.95490 0.77370 -0.31700
F 	F 	0.80850 0.95390 0.69230 -0.40300
F 	F 	0.95470 0.70630 0.24540 -0.33000
O 	O 	0.02423 0.25187 0.57977 -0.58500
O 	O 	0.05269 0.21111 0.55196 -0.60900
O 	O 	0.97113 0.17675 0.47244 -0.58900
O 	O 	0.96000 0.98020 0.07030 -0.52100
C 	C 	0.97410 0.26600 0.63480 0.07700
H 	H 	0.95770 0.26560 0.62540 0.04300
C 	C 	0.97500 0.27070 0.66230 -0.14900
H 	H 	0.95910 0.27220 0.67230 0.13300
C 	C 	0.97810 0.29520 0.76920 0.11200
C 	C 	0.95380 0.18690 0.45400 0.44600
C 	C 	0.93780 0.16540 0.44050 -0.15700
C 	C 	0.91790 0.17235 0.42180 0.12400
H 	H 	0.91330 0.19040 0.41920 0.02700
C 	C 	0.90470 0.15230 0.40710 -0.18100
H 	H 	0.89140 0.15690 0.39470 0.14100
C 	C 	0.91150 0.12520 0.41110 0.17900
C 	C 	0.93140 0.11826 0.42980 -0.18000
H 	H 	0.93590 0.10020 0.43240 0.13300
C 	C 	0.94450 0.13840 0.44450 0.12300
H 	H 	0.95790 0.13370 0.45690 0.02400
C 	C 	0.89840 0.10430 0.39480 -0.05300
C 	C 	0.88820 0.08760 0.38100 0.16900
C 	C 	0.87720 0.06660 0.36300 -0.02200
C 	C 	0.85140 0.05680 0.36830 0.13700
C 	C 	0.84040 0.03640 0.35220 0.65600
C 	C 	0.85540 0.02595 0.33070 -0.84500
C 	C 	0.88120 0.03580 0.32540 0.68500
C 	C 	0.89210 0.05610 0.34160 0.13400
C 	C 	0.85730 0.02130 0.26680 0.64600
C 	C 	0.86490 0.02130 0.24040 0.04900
C 	C 	0.91370 0.97640 0.13790 -0.17600
H 	H 	0.90460 0.96110 0.14390 0.14000
C 	C 	0.92740 0.97680 0.11340 0.11800
H 	H 	0.93120 0.96020 0.10520 0.02900
C 	C 	0.79600 0.02280 0.30250 0.57500
F 	F 	0.81740 0.02770 0.35660 -0.45000
F 	F 	0.83670 0.06580 0.38830 -0.33400
F 	F 	0.91590 0.06750 0.33900 -0.33900
F 	F 	0.89600 0.02580 0.30900 -0.47400
F 	F 	0.85720 0.04590 0.27970 -0.40500
F 	F 	0.86900 0.04510 0.22630 -0.31700
F 	F 	0.80850 0.04610 0.30770 -0.40300
F 	F 	0.95470 0.29370 0.75460 -0.33000
O 	O 	0.42023 0.97577 0.25187 -0.58500
O 	O 	0.44804 0.94731 0.21111 -0.60900
O 	O 	0.52756 0.02887 0.17675 -0.59000
O 	O 	0.92970 0.04000 0.98020 -0.52100
C 	C 	0.36520 0.02590 0.26600 0.07600
H 	H 	0.37460 0.04230 0.26560 0.04300
C 	C 	0.33770 0.02500 0.27070 -0.15000
H 	H 	0.32770 0.04090 0.27220 0.13300
C 	C 	0.23080 0.02190 0.29520 0.11200
C 	C 	0.54600 0.04620 0.18690 0.44600
C 	C 	0.55950 0.06220 0.16540 -0.15700
C 	C 	0.57820 0.08210 0.17235 0.12400
H 	H 	0.58080 0.08670 0.19040 0.02700
C 	C 	0.59290 0.09530 0.15230 -0.18100
H 	H 	0.60530 0.10860 0.15690 0.14100
C 	C 	0.58890 0.08850 0.12520 0.17900
C 	C 	0.57020 0.06860 0.11826 -0.18000
H 	H 	0.56760 0.06410 0.10020 0.13300
C 	C 	0.55550 0.05550 0.13840 0.12300
H 	H 	0.54310 0.04210 0.13370 0.02400
C 	C 	0.60520 0.10160 0.10430 -0.05300
C 	C 	0.61900 0.11180 0.08760 0.16900
C 	C 	0.63700 0.12280 0.06660 -0.02200
C 	C 	0.63170 0.14860 0.05680 0.13700
C 	C 	0.64780 0.15960 0.03640 0.65600
C 	C 	0.66930 0.14460 0.02595 -0.84500
C 	C 	0.67460 0.11880 0.03580 0.68500
C 	C 	0.65840 0.10790 0.05610 0.13400
C 	C 	0.73320 0.14270 0.02130 0.64600
C 	C 	0.75960 0.13510 0.02130 0.04900
C 	C 	0.86210 0.08630 0.97640 -0.17600
H 	H 	0.85610 0.09540 0.96110 0.14000
C 	C 	0.88660 0.07260 0.97680 0.11800
H 	H 	0.89480 0.06880 0.96020 0.02900
C 	C 	0.69750 0.20400 0.02280 0.57600
F 	F 	0.64340 0.18260 0.02770 -0.45000
F 	F 	0.61170 0.16330 0.06580 -0.33400
F 	F 	0.66100 0.08410 0.06750 -0.33900
F 	F 	0.69100 0.10400 0.02580 -0.47400
F 	F 	0.72030 0.14280 0.04590 -0.40500
F 	F 	0.77370 0.13100 0.04510 -0.31700
F 	F 	0.69230 0.19150 0.04610 -0.40300
F 	F 	0.24540 0.04530 0.29370 -0.33000
O 	O 	0.57977 0.97577 0.74813 -0.58500
O 	O 	0.55196 0.94731 0.78889 -0.60900
O 	O 	0.47244 0.02887 0.82325 -0.59000
O 	O 	0.07030 0.04000 0.01980 -0.52100
C 	C 	0.63480 0.02590 0.73400 0.07600
H 	H 	0.62540 0.04230 0.73440 0.04300
C 	C 	0.66230 0.02500 0.72930 -0.15000
H 	H 	0.67230 0.04090 0.72780 0.13300
C 	C 	0.76920 0.02190 0.70480 0.11200
C 	C 	0.45400 0.04620 0.81310 0.44600
C 	C 	0.44050 0.06220 0.83460 -0.15700
C 	C 	0.42180 0.08210 0.82765 0.12400
H 	H 	0.41920 0.08670 0.80960 0.02700
C 	C 	0.40710 0.09530 0.84770 -0.18100
H 	H 	0.39470 0.10860 0.84310 0.14100
C 	C 	0.41110 0.08850 0.87480 0.17900
C 	C 	0.42980 0.06860 0.88174 -0.18000
H 	H 	0.43240 0.06410 0.89980 0.13300
C 	C 	0.44450 0.05550 0.86160 0.12300
H 	H 	0.45690 0.04210 0.86630 0.02400
C 	C 	0.39480 0.10160 0.89570 -0.05300
C 	C 	0.38100 0.11180 0.91240 0.16900
C 	C 	0.36300 0.12280 0.93340 -0.02200
C 	C 	0.36830 0.14860 0.94320 0.13700
C 	C 	0.35220 0.15960 0.96360 0.65600
C 	C 	0.33070 0.14460 0.97405 -0.84400
C 	C 	0.32540 0.11880 0.96420 0.68500
C 	C 	0.34160 0.10790 0.94390 0.13400
C 	C 	0.26680 0.14270 0.97870 0.64700
C 	C 	0.24040 0.13510 0.97870 0.04900
C 	C 	0.13790 0.08630 0.02360 -0.17700
H 	H 	0.14390 0.09540 0.03890 0.14000
C 	C 	0.11340 0.07260 0.02320 0.11800
H 	H 	0.10520 0.06880 0.03980 0.02900
C 	C 	0.30250 0.20400 0.97720 0.57600
F 	F 	0.35660 0.18260 0.97230 -0.45000
F 	F 	0.38830 0.16330 0.93420 -0.33400
F 	F 	0.33900 0.08410 0.93250 -0.33900
F 	F 	0.30900 0.10400 0.97420 -0.47400
F 	F 	0.27970 0.14280 0.95410 -0.40500
F 	F 	0.22630 0.13100 0.95490 -0.31700
F 	F 	0.30770 0.19150 0.95390 -0.40300
F 	F 	0.75460 0.04530 0.70630 -0.33000
O 	O 	0.42023 0.02423 0.74813 -0.58500
O 	O 	0.44804 0.05269 0.78889 -0.60900
O 	O 	0.52756 0.97113 0.82325 -0.58900
O 	O 	0.92970 0.96000 0.01980 -0.52100
C 	C 	0.36520 0.97410 0.73400 0.07700
H 	H 	0.37460 0.95770 0.73440 0.04300
C 	C 	0.33770 0.97500 0.72930 -0.14900
H 	H 	0.32770 0.95910 0.72780 0.13300
C 	C 	0.23080 0.97810 0.70480 0.11200
C 	C 	0.54600 0.95380 0.81310 0.44600
C 	C 	0.55950 0.93780 0.83460 -0.15700
C 	C 	0.57820 0.91790 0.82765 0.12400
H 	H 	0.58080 0.91330 0.80960 0.02700
C 	C 	0.59290 0.90470 0.84770 -0.18100
H 	H 	0.60530 0.89140 0.84310 0.14100
C 	C 	0.58890 0.91150 0.87480 0.17900
C 	C 	0.57020 0.93140 0.88174 -0.18000
H 	H 	0.56760 0.93590 0.89980 0.13300
C 	C 	0.55550 0.94450 0.86160 0.12300
H 	H 	0.54310 0.95790 0.86630 0.02400
C 	C 	0.60520 0.89840 0.89570 -0.05300
C 	C 	0.61900 0.88820 0.91240 0.16900
C 	C 	0.63700 0.87720 0.93340 -0.02200
C 	C 	0.63170 0.85140 0.94320 0.13700
C 	C 	0.64780 0.84040 0.96360 0.65600
C 	C 	0.66930 0.85540 0.97405 -0.84400
C 	C 	0.67460 0.88120 0.96420 0.68500
C 	C 	0.65840 0.89210 0.94390 0.13400
C 	C 	0.73320 0.85730 0.97870 0.64700
C 	C 	0.75960 0.86490 0.97870 0.04900
C 	C 	0.86210 0.91370 0.02360 -0.17700
H 	H 	0.85610 0.90460 0.03890 0.14000
C 	C 	0.88660 0.92740 0.02320 0.11700
H 	H 	0.89480 0.93120 0.03980 0.02900
C 	C 	0.69750 0.79600 0.97720 0.57600
F 	F 	0.64340 0.81740 0.97230 -0.45000
F 	F 	0.61170 0.83670 0.93420 -0.33400
F 	F 	0.66100 0.91590 0.93250 -0.33900
F 	F 	0.69100 0.89600 0.97420 -0.47400
F 	F 	0.72030 0.85720 0.95410 -0.40500
F 	F 	0.77370 0.86900 0.95490 -0.31700
F 	F 	0.69230 0.80850 0.95390 -0.40300
F 	F 	0.24540 0.95470 0.70630 -0.33000
O 	O 	0.57977 0.02423 0.25187 -0.58500
O 	O 	0.55196 0.05269 0.21111 -0.60900
O 	O 	0.47244 0.97113 0.17675 -0.58900
O 	O 	0.07030 0.96000 0.98020 -0.52100
C 	C 	0.63480 0.97410 0.26600 0.07700
H 	H 	0.62540 0.95770 0.26560 0.04300
C 	C 	0.66230 0.97500 0.27070 -0.14900
H 	H 	0.67230 0.95910 0.27220 0.13300
C 	C 	0.76920 0.97810 0.29520 0.11200
C 	C 	0.45400 0.95380 0.18690 0.44600
C 	C 	0.44050 0.93780 0.16540 -0.15700
C 	C 	0.42180 0.91790 0.17235 0.12400
H 	H 	0.41920 0.91330 0.19040 0.02700
C 	C 	0.40710 0.90470 0.15230 -0.18100
H 	H 	0.39470 0.89140 0.15690 0.14100
C 	C 	0.41110 0.91150 0.12520 0.17900
C 	C 	0.42980 0.93140 0.11826 -0.18000
H 	H 	0.43240 0.93590 0.10020 0.13300
C 	C 	0.44450 0.94450 0.13840 0.12300
H 	H 	0.45690 0.95790 0.13370 0.02400
C 	C 	0.39480 0.89840 0.10430 -0.05300
C 	C 	0.38100 0.88820 0.08760 0.16900
C 	C 	0.36300 0.87720 0.06660 -0.02200
C 	C 	0.36830 0.85140 0.05680 0.13700
C 	C 	0.35220 0.84040 0.03640 0.65600
C 	C 	0.33070 0.85540 0.02595 -0.84500
C 	C 	0.32540 0.88120 0.03580 0.68500
C 	C 	0.34160 0.89210 0.05610 0.13400
C 	C 	0.26680 0.85730 0.02130 0.64600
C 	C 	0.24040 0.86490 0.02130 0.04900
C 	C 	0.13790 0.91370 0.97640 -0.17600
H 	H 	0.14390 0.90460 0.96110 0.14000
C 	C 	0.11340 0.92740 0.97680 0.11800
H 	H 	0.10520 0.93120 0.96020 0.02900
C 	C 	0.30250 0.79600 0.02280 0.57500
F 	F 	0.35660 0.81740 0.02770 -0.45000
F 	F 	0.38830 0.83670 0.06580 -0.33400
F 	F 	0.33900 0.91590 0.06750 -0.33900
F 	F 	0.30900 0.89600 0.02580 -0.47400
F 	F 	0.27970 0.85720 0.04590 -0.40500
F 	F 	0.22630 0.86900 0.04510 -0.31700
F 	F 	0.30770 0.80850 0.04610 -0.40300
F 	F 	0.75460 0.95470 0.29370 -0.33000
O 	O 	0.92023 0.75187 0.52423 -0.58500
O 	O 	0.94804 0.71111 0.55269 -0.60900
O 	O 	0.02756 0.67675 0.47113 -0.59000
O 	O 	0.42970 0.48020 0.46000 -0.52100
C 	C 	0.86520 0.76600 0.47410 0.07600
H 	H 	0.87460 0.76560 0.45770 0.04300
C 	C 	0.83770 0.77070 0.47500 -0.15000
H 	H 	0.82770 0.77220 0.45910 0.13300
C 	C 	0.73080 0.79520 0.47810 0.11200
C 	C 	0.04600 0.68690 0.45380 0.44600
C 	C 	0.05950 0.66540 0.43780 -0.15700
C 	C 	0.07820 0.67235 0.41790 0.12400
H 	H 	0.08080 0.69040 0.41330 0.02700
C 	C 	0.09290 0.65230 0.40470 -0.18100
H 	H 	0.10530 0.65690 0.39140 0.14100
C 	C 	0.08890 0.62520 0.41150 0.17900
C 	C 	0.07020 0.61826 0.43140 -0.18000
H 	H 	0.06760 0.60020 0.43590 0.13300
C 	C 	0.05550 0.63840 0.44450 0.12300
H 	H 	0.04310 0.63370 0.45790 0.02400
C 	C 	0.10520 0.60430 0.39840 -0.05300
C 	C 	0.11900 0.58760 0.38820 0.16900
C 	C 	0.13700 0.56660 0.37720 -0.02200
C 	C 	0.13170 0.55680 0.35140 0.13700
C 	C 	0.14780 0.53640 0.34040 0.65600
C 	C 	0.16930 0.52595 0.35540 -0.84500
C 	C 	0.17460 0.53580 0.38120 0.68500
C 	C 	0.15840 0.55610 0.39210 0.13400
C 	C 	0.23320 0.52130 0.35730 0.64600
C 	C 	0.25960 0.52130 0.36490 0.04900
C 	C 	0.36210 0.47640 0.41370 -0.17700
H 	H 	0.35610 0.46110 0.40460 0.14000
C 	C 	0.38660 0.47680 0.42740 0.11800
H 	H 	0.39480 0.46020 0.43120 0.02900
C 	C 	0.19750 0.52280 0.29600 0.57600
F 	F 	0.14340 0.52770 0.31740 -0.45000
F 	F 	0.11170 0.56580 0.33670 -0.33400
F 	F 	0.16100 0.56750 0.41590 -0.33900
F 	F 	0.19100 0.52580 0.39600 -0.47400
F 	F 	0.22030 0.54590 0.35720 -0.40500
F 	F 	0.27370 0.54510 0.36900 -0.31700
F 	F 	0.19230 0.54610 0.30850 -0.40300
F 	F 	0.74540 0.79370 0.45470 -0.33000
O 	O 	0.07977 0.24813 0.52423 -0.58500
O 	O 	0.05196 0.28889 0.55269 -0.60900
O 	O 	0.97244 0.32325 0.47113 -0.58900
O 	O 	0.57030 0.51980 0.46000 -0.52100
C 	C 	0.13480 0.23400 0.47410 0.07600
H 	H 	0.12540 0.23440 0.45770 0.04300
C 	C 	0.16230 0.22930 0.47500 -0.15000
H 	H 	0.17230 0.22780 0.45910 0.13300
C 	C 	0.26920 0.20480 0.47810 0.11200
C 	C 	0.95400 0.31310 0.45380 0.44600
C 	C 	0.94050 0.33460 0.43780 -0.15700
C 	C 	0.92180 0.32765 0.41790 0.12400
H 	H 	0.91920 0.30960 0.41330 0.02700
C 	C 	0.90710 0.34770 0.40470 -0.18100
H 	H 	0.89470 0.34310 0.39140 0.14100
C 	C 	0.91110 0.37480 0.41150 0.17900
C 	C 	0.92980 0.38174 0.43140 -0.18000
H 	H 	0.93240 0.39980 0.43590 0.13300
C 	C 	0.94450 0.36160 0.44450 0.12300
H 	H 	0.95690 0.36630 0.45790 0.02400
C 	C 	0.89480 0.39570 0.39840 -0.05300
C 	C 	0.88100 0.41240 0.38820 0.16900
C 	C 	0.86300 0.43340 0.37720 -0.02200
C 	C 	0.86830 0.44320 0.35140 0.13700
C 	C 	0.85220 0.46360 0.34040 0.65600
C 	C 	0.83070 0.47405 0.35540 -0.84500
C 	C 	0.82540 0.46420 0.38120 0.68500
C 	C 	0.84160 0.44390 0.39210 0.13400
C 	C 	0.76680 0.47870 0.35730 0.64600
C 	C 	0.74040 0.47870 0.36490 0.04900
C 	C 	0.63790 0.52360 0.41370 -0.17700
H 	H 	0.64390 0.53890 0.40460 0.14000
C 	C 	0.61340 0.52320 0.42740 0.11800
H 	H 	0.60520 0.53980 0.43120 0.02900
C 	C 	0.80250 0.47720 0.29600 0.57600
F 	F 	0.85660 0.47230 0.31740 -0.45000
F 	F 	0.88830 0.43420 0.33670 -0.33400
F 	F 	0.83900 0.43250 0.41590 -0.33900
F 	F 	0.80900 0.47420 0.39600 -0.47400
F 	F 	0.77970 0.45410 0.35720 -0.40500
F 	F 	0.72630 0.45490 0.36900 -0.31700
F 	F 	0.80770 0.45390 0.30850 -0.40300
F 	F 	0.25460 0.20630 0.45470 -0.33000
O 	O 	0.92023 0.24813 0.47577 -0.58500
O 	O 	0.94804 0.28889 0.44731 -0.60900
O 	O 	0.02756 0.32325 0.52887 -0.59000
O 	O 	0.42970 0.51980 0.54000 -0.52100
C 	C 	0.86520 0.23400 0.52590 0.07600
H 	H 	0.87460 0.23440 0.54230 0.04300
C 	C 	0.83770 0.22930 0.52500 -0.15000
H 	H 	0.82770 0.22780 0.54090 0.13300
C 	C 	0.73080 0.20480 0.52190 0.11200
C 	C 	0.04600 0.31310 0.54620 0.44600
C 	C 	0.05950 0.33460 0.56220 -0.15700
C 	C 	0.07820 0.32765 0.58210 0.12400
H 	H 	0.08080 0.30960 0.58670 0.02700
C 	C 	0.09290 0.34770 0.59530 -0.18100
H 	H 	0.10530 0.34310 0.60860 0.14100
C 	C 	0.08890 0.37480 0.58850 0.17900
C 	C 	0.07020 0.38174 0.56860 -0.18000
H 	H 	0.06760 0.39980 0.56410 0.13300
C 	C 	0.05550 0.36160 0.55550 0.12300
H 	H 	0.04310 0.36630 0.54210 0.02400
C 	C 	0.10520 0.39570 0.60160 -0.05300
C 	C 	0.11900 0.41240 0.61180 0.16900
C 	C 	0.13700 0.43340 0.62280 -0.02200
C 	C 	0.13170 0.44320 0.64860 0.13700
C 	C 	0.14780 0.46360 0.65960 0.65600
C 	C 	0.16930 0.47405 0.64460 -0.84500
C 	C 	0.17460 0.46420 0.61880 0.68500
C 	C 	0.15840 0.44390 0.60790 0.13400
C 	C 	0.23320 0.47870 0.64270 0.64600
C 	C 	0.25960 0.47870 0.63510 0.04900
C 	C 	0.36210 0.52360 0.58630 -0.17700
H 	H 	0.35610 0.53890 0.59540 0.14000
C 	C 	0.38660 0.52320 0.57260 0.11800
H 	H 	0.39480 0.53980 0.56880 0.02900
C 	C 	0.19750 0.47720 0.70400 0.57600
F 	F 	0.14340 0.47230 0.68260 -0.45000
F 	F 	0.11170 0.43420 0.66330 -0.33400
F 	F 	0.16100 0.43250 0.58410 -0.33900
F 	F 	0.19100 0.47420 0.60400 -0.47400
F 	F 	0.22030 0.45410 0.64280 -0.40500
F 	F 	0.27370 0.45490 0.63100 -0.31700
F 	F 	0.19230 0.45390 0.69150 -0.40300
F 	F 	0.74540 0.20630 0.54530 -0.33000
O 	O 	0.07977 0.75187 0.47577 -0.58500
O 	O 	0.05196 0.71111 0.44731 -0.60900
O 	O 	0.97244 0.67675 0.52887 -0.58900
O 	O 	0.57030 0.48020 0.54000 -0.52100
C 	C 	0.13480 0.76600 0.52590 0.07600
H 	H 	0.12540 0.76560 0.54230 0.04300
C 	C 	0.16230 0.77070 0.52500 -0.15000
H 	H 	0.17230 0.77220 0.54090 0.13300
C 	C 	0.26920 0.79520 0.52190 0.11200
C 	C 	0.95400 0.68690 0.54620 0.44600
C 	C 	0.94050 0.66540 0.56220 -0.15700
C 	C 	0.92180 0.67235 0.58210 0.12400
H 	H 	0.91920 0.69040 0.58670 0.02700
C 	C 	0.90710 0.65230 0.59530 -0.18100
H 	H 	0.89470 0.65690 0.60860 0.14100
C 	C 	0.91110 0.62520 0.58850 0.17900
C 	C 	0.92980 0.61826 0.56860 -0.18000
H 	H 	0.93240 0.60020 0.56410 0.13300
C 	C 	0.94450 0.63840 0.55550 0.12300
H 	H 	0.95690 0.63370 0.54210 0.02400
C 	C 	0.89480 0.60430 0.60160 -0.05300
C 	C 	0.88100 0.58760 0.61180 0.16900
C 	C 	0.86300 0.56660 0.62280 -0.02200
C 	C 	0.86830 0.55680 0.64860 0.13700
C 	C 	0.85220 0.53640 0.65960 0.65600
C 	C 	0.83070 0.52595 0.64460 -0.84500
C 	C 	0.82540 0.53580 0.61880 0.68500
C 	C 	0.84160 0.55610 0.60790 0.13400
C 	C 	0.76680 0.52130 0.64270 0.64600
C 	C 	0.74040 0.52130 0.63510 0.04900
C 	C 	0.63790 0.47640 0.58630 -0.17700
H 	H 	0.64390 0.46110 0.59540 0.14000
C 	C 	0.61340 0.47680 0.57260 0.11800
H 	H 	0.60520 0.46020 0.56880 0.02900
C 	C 	0.80250 0.52280 0.70400 0.57600
F 	F 	0.85660 0.52770 0.68260 -0.45000
F 	F 	0.88830 0.56580 0.66330 -0.33400
F 	F 	0.83900 0.56750 0.58410 -0.33900
F 	F 	0.80900 0.52580 0.60400 -0.47400
F 	F 	0.77970 0.54590 0.64280 -0.40500
F 	F 	0.72630 0.54510 0.63100 -0.31700
F 	F 	0.80770 0.54610 0.69150 -0.40300
F 	F 	0.25460 0.79370 0.54530 -0.33000
O 	O 	0.75187 0.47577 0.07977 -0.58500
O 	O 	0.71111 0.44731 0.05196 -0.60900
O 	O 	0.67675 0.52887 0.97244 -0.58900
O 	O 	0.48020 0.54000 0.57030 -0.52100
C 	C 	0.76600 0.52590 0.13480 0.07600
H 	H 	0.76560 0.54230 0.12540 0.04300
C 	C 	0.77070 0.52500 0.16230 -0.15000
H 	H 	0.77220 0.54090 0.17230 0.13300
C 	C 	0.79520 0.52190 0.26920 0.11200
C 	C 	0.68690 0.54620 0.95400 0.44600
C 	C 	0.66540 0.56220 0.94050 -0.15700
C 	C 	0.67235 0.58210 0.92180 0.12400
H 	H 	0.69040 0.58670 0.91920 0.02700
C 	C 	0.65230 0.59530 0.90710 -0.18100
H 	H 	0.65690 0.60860 0.89470 0.14100
C 	C 	0.62520 0.58850 0.91110 0.17900
C 	C 	0.61826 0.56860 0.92980 -0.18000
H 	H 	0.60020 0.56410 0.93240 0.13300
C 	C 	0.63840 0.55550 0.94450 0.12300
H 	H 	0.63370 0.54210 0.95690 0.02400
C 	C 	0.60430 0.60160 0.89480 -0.05300
C 	C 	0.58760 0.61180 0.88100 0.16900
C 	C 	0.56660 0.62280 0.86300 -0.02200
C 	C 	0.55680 0.64860 0.86830 0.13700
C 	C 	0.53640 0.65960 0.85220 0.65600
C 	C 	0.52595 0.64460 0.83070 -0.84500
C 	C 	0.53580 0.61880 0.82540 0.68500
C 	C 	0.55610 0.60790 0.84160 0.13400
C 	C 	0.52130 0.64270 0.76680 0.64600
C 	C 	0.52130 0.63510 0.74040 0.04900
C 	C 	0.47640 0.58630 0.63790 -0.17700
H 	H 	0.46110 0.59540 0.64390 0.14000
C 	C 	0.47680 0.57260 0.61340 0.11800
H 	H 	0.46020 0.56880 0.60520 0.02900
C 	C 	0.52280 0.70400 0.80250 0.57600
F 	F 	0.52770 0.68260 0.85660 -0.45000
F 	F 	0.56580 0.66330 0.88830 -0.33400
F 	F 	0.56750 0.58410 0.83900 -0.33900
F 	F 	0.52580 0.60400 0.80900 -0.47400
F 	F 	0.54590 0.64280 0.77970 -0.40500
F 	F 	0.54510 0.63100 0.72630 -0.31700
F 	F 	0.54610 0.69150 0.80770 -0.40300
F 	F 	0.79370 0.54530 0.25460 -0.33000
O 	O 	0.24813 0.47577 0.92023 -0.58500
O 	O 	0.28889 0.44731 0.94804 -0.60900
O 	O 	0.32325 0.52887 0.02756 -0.59000
O 	O 	0.51980 0.54000 0.42970 -0.52100
C 	C 	0.23400 0.52590 0.86520 0.07600
H 	H 	0.23440 0.54230 0.87460 0.04300
C 	C 	0.22930 0.52500 0.83770 -0.15000
H 	H 	0.22780 0.54090 0.82770 0.13300
C 	C 	0.20480 0.52190 0.73080 0.11200
C 	C 	0.31310 0.54620 0.04600 0.44600
C 	C 	0.33460 0.56220 0.05950 -0.15700
C 	C 	0.32765 0.58210 0.07820 0.12400
H 	H 	0.30960 0.58670 0.08080 0.02700
C 	C 	0.34770 0.59530 0.09290 -0.18100
H 	H 	0.34310 0.60860 0.10530 0.14100
C 	C 	0.37480 0.58850 0.08890 0.17900
C 	C 	0.38174 0.56860 0.07020 -0.18000
H 	H 	0.39980 0.56410 0.06760 0.13300
C 	C 	0.36160 0.55550 0.05550 0.12300
H 	H 	0.36630 0.54210 0.04310 0.02400
C 	C 	0.39570 0.60160 0.10520 -0.05300
C 	C 	0.41240 0.61180 0.11900 0.16900
C 	C 	0.43340 0.62280 0.13700 -0.02200
C 	C 	0.44320 0.64860 0.13170 0.13700
C 	C 	0.46360 0.65960 0.14780 0.65600
C 	C 	0.47405 0.64460 0.16930 -0.84500
C 	C 	0.46420 0.61880 0.17460 0.68500
C 	C 	0.44390 0.60790 0.15840 0.13400
C 	C 	0.47870 0.64270 0.23320 0.64600
C 	C 	0.47870 0.63510 0.25960 0.04900
C 	C 	0.52360 0.58630 0.36210 -0.17700
H 	H 	0.53890 0.59540 0.35610 0.14000
C 	C 	0.52320 0.57260 0.38660 0.11800
H 	H 	0.53980 0.56880 0.39480 0.02900
C 	C 	0.47720 0.70400 0.19750 0.57600
F 	F 	0.47230 0.68260 0.14340 -0.45000
F 	F 	0.43420 0.66330 0.11170 -0.33400
F 	F 	0.43250 0.58410 0.16100 -0.33900
F 	F 	0.47420 0.60400 0.19100 -0.47400
F 	F 	0.45410 0.64280 0.22030 -0.40500
F 	F 	0.45490 0.63100 0.27370 -0.31700
F 	F 	0.45390 0.69150 0.19230 -0.40300
F 	F 	0.20630 0.54530 0.74540 -0.33000
O 	O 	0.24813 0.52423 0.07977 -0.58500
O 	O 	0.28889 0.55269 0.05196 -0.60900
O 	O 	0.32325 0.47113 0.97244 -0.58900
O 	O 	0.51980 0.46000 0.57030 -0.52100
C 	C 	0.23400 0.47410 0.13480 0.07600
H 	H 	0.23440 0.45770 0.12540 0.04300
C 	C 	0.22930 0.47500 0.16230 -0.15000
H 	H 	0.22780 0.45910 0.17230 0.13300
C 	C 	0.20480 0.47810 0.26920 0.11200
C 	C 	0.31310 0.45380 0.95400 0.44600
C 	C 	0.33460 0.43780 0.94050 -0.15700
C 	C 	0.32765 0.41790 0.92180 0.12400
H 	H 	0.30960 0.41330 0.91920 0.02700
C 	C 	0.34770 0.40470 0.90710 -0.18100
H 	H 	0.34310 0.39140 0.89470 0.14100
C 	C 	0.37480 0.41150 0.91110 0.17900
C 	C 	0.38174 0.43140 0.92980 -0.18000
H 	H 	0.39980 0.43590 0.93240 0.13300
C 	C 	0.36160 0.44450 0.94450 0.12300
H 	H 	0.36630 0.45790 0.95690 0.02400
C 	C 	0.39570 0.39840 0.89480 -0.05300
C 	C 	0.41240 0.38820 0.88100 0.16900
C 	C 	0.43340 0.37720 0.86300 -0.02200
C 	C 	0.44320 0.35140 0.86830 0.13700
C 	C 	0.46360 0.34040 0.85220 0.65600
C 	C 	0.47405 0.35540 0.83070 -0.84500
C 	C 	0.46420 0.38120 0.82540 0.68500
C 	C 	0.44390 0.39210 0.84160 0.13400
C 	C 	0.47870 0.35730 0.76680 0.64600
C 	C 	0.47870 0.36490 0.74040 0.04900
C 	C 	0.52360 0.41370 0.63790 -0.17700
H 	H 	0.53890 0.40460 0.64390 0.14000
C 	C 	0.52320 0.42740 0.61340 0.11800
H 	H 	0.53980 0.43120 0.60520 0.02900
C 	C 	0.47720 0.29600 0.80250 0.57600
F 	F 	0.47230 0.31740 0.85660 -0.45000
F 	F 	0.43420 0.33670 0.88830 -0.33400
F 	F 	0.43250 0.41590 0.83900 -0.33900
F 	F 	0.47420 0.39600 0.80900 -0.47400
F 	F 	0.45410 0.35720 0.77970 -0.40500
F 	F 	0.45490 0.36900 0.72630 -0.31700
F 	F 	0.45390 0.30850 0.80770 -0.40300
F 	F 	0.20630 0.45470 0.25460 -0.33000
O 	O 	0.75187 0.52423 0.92023 -0.58500
O 	O 	0.71111 0.55269 0.94804 -0.60900
O 	O 	0.67675 0.47113 0.02756 -0.59000
O 	O 	0.48020 0.46000 0.42970 -0.52100
C 	C 	0.76600 0.47410 0.86520 0.07600
H 	H 	0.76560 0.45770 0.87460 0.04300
C 	C 	0.77070 0.47500 0.83770 -0.15000
H 	H 	0.77220 0.45910 0.82770 0.13300
C 	C 	0.79520 0.47810 0.73080 0.11200
C 	C 	0.68690 0.45380 0.04600 0.44600
C 	C 	0.66540 0.43780 0.05950 -0.15700
C 	C 	0.67235 0.41790 0.07820 0.12400
H 	H 	0.69040 0.41330 0.08080 0.02700
C 	C 	0.65230 0.40470 0.09290 -0.18100
H 	H 	0.65690 0.39140 0.10530 0.14100
C 	C 	0.62520 0.41150 0.08890 0.17900
C 	C 	0.61826 0.43140 0.07020 -0.18000
H 	H 	0.60020 0.43590 0.06760 0.13300
C 	C 	0.63840 0.44450 0.05550 0.12300
H 	H 	0.63370 0.45790 0.04310 0.02400
C 	C 	0.60430 0.39840 0.10520 -0.05300
C 	C 	0.58760 0.38820 0.11900 0.16900
C 	C 	0.56660 0.37720 0.13700 -0.02200
C 	C 	0.55680 0.35140 0.13170 0.13700
C 	C 	0.53640 0.34040 0.14780 0.65600
C 	C 	0.52595 0.35540 0.16930 -0.84500
C 	C 	0.53580 0.38120 0.17460 0.68500
C 	C 	0.55610 0.39210 0.15840 0.13400
C 	C 	0.52130 0.35730 0.23320 0.64600
C 	C 	0.52130 0.36490 0.25960 0.04900
C 	C 	0.47640 0.41370 0.36210 -0.17700
H 	H 	0.46110 0.40460 0.35610 0.14000
C 	C 	0.47680 0.42740 0.38660 0.11800
H 	H 	0.46020 0.43120 0.39480 0.02900
C 	C 	0.52280 0.29600 0.19750 0.57600
F 	F 	0.52770 0.31740 0.14340 -0.45000
F 	F 	0.56580 0.33670 0.11170 -0.33400
F 	F 	0.56750 0.41590 0.16100 -0.33900
F 	F 	0.52580 0.39600 0.19100 -0.47400
F 	F 	0.54590 0.35720 0.22030 -0.40500
F 	F 	0.54510 0.36900 0.27370 -0.31700
F 	F 	0.54610 0.30850 0.19230 -0.40300
F 	F 	0.79370 0.45470 0.74540 -0.33000
O 	O 	0.47577 0.92023 0.24813 -0.58500
O 	O 	0.44731 0.94804 0.28889 -0.60900
O 	O 	0.52887 0.02756 0.32325 -0.59000
O 	O 	0.54000 0.42970 0.51980 -0.52100
C 	C 	0.52590 0.86520 0.23400 0.07600
H 	H 	0.54230 0.87460 0.23440 0.04300
C 	C 	0.52500 0.83770 0.22930 -0.15000
H 	H 	0.54090 0.82770 0.22780 0.13300
C 	C 	0.52190 0.73080 0.20480 0.11200
C 	C 	0.54620 0.04600 0.31310 0.44600
C 	C 	0.56220 0.05950 0.33460 -0.15700
C 	C 	0.58210 0.07820 0.32765 0.12400
H 	H 	0.58670 0.08080 0.30960 0.02700
C 	C 	0.59530 0.09290 0.34770 -0.18100
H 	H 	0.60860 0.10530 0.34310 0.14100
C 	C 	0.58850 0.08890 0.37480 0.17900
C 	C 	0.56860 0.07020 0.38174 -0.18000
H 	H 	0.56410 0.06760 0.39980 0.13300
C 	C 	0.55550 0.05550 0.36160 0.12300
H 	H 	0.54210 0.04310 0.36630 0.02400
C 	C 	0.60160 0.10520 0.39570 -0.05300
C 	C 	0.61180 0.11900 0.41240 0.16900
C 	C 	0.62280 0.13700 0.43340 -0.02200
C 	C 	0.64860 0.13170 0.44320 0.13700
C 	C 	0.65960 0.14780 0.46360 0.65600
C 	C 	0.64460 0.16930 0.47405 -0.84500
C 	C 	0.61880 0.17460 0.46420 0.68500
C 	C 	0.60790 0.15840 0.44390 0.13400
C 	C 	0.64270 0.23320 0.47870 0.64600
C 	C 	0.63510 0.25960 0.47870 0.04900
C 	C 	0.58630 0.36210 0.52360 -0.17700
H 	H 	0.59540 0.35610 0.53890 0.14000
C 	C 	0.57260 0.38660 0.52320 0.11800
H 	H 	0.56880 0.39480 0.53980 0.02900
C 	C 	0.70400 0.19750 0.47720 0.57600
F 	F 	0.68260 0.14340 0.47230 -0.45000
F 	F 	0.66330 0.11170 0.43420 -0.33400
F 	F 	0.58410 0.16100 0.43250 -0.33900
F 	F 	0.60400 0.19100 0.47420 -0.47400
F 	F 	0.64280 0.22030 0.45410 -0.40500
F 	F 	0.63100 0.27370 0.45490 -0.31700
F 	F 	0.69150 0.19230 0.45390 -0.40300
F 	F 	0.54530 0.74540 0.20630 -0.33000
O 	O 	0.47577 0.07977 0.75187 -0.58500
O 	O 	0.44731 0.05196 0.71111 -0.60900
O 	O 	0.52887 0.97244 0.67675 -0.58900
O 	O 	0.54000 0.57030 0.48020 -0.52100
C 	C 	0.52590 0.13480 0.76600 0.07600
H 	H 	0.54230 0.12540 0.76560 0.04300
C 	C 	0.52500 0.16230 0.77070 -0.15000
H 	H 	0.54090 0.17230 0.77220 0.13300
C 	C 	0.52190 0.26920 0.79520 0.11200
C 	C 	0.54620 0.95400 0.68690 0.44600
C 	C 	0.56220 0.94050 0.66540 -0.15700
C 	C 	0.58210 0.92180 0.67235 0.12400
H 	H 	0.58670 0.91920 0.69040 0.02700
C 	C 	0.59530 0.90710 0.65230 -0.18100
H 	H 	0.60860 0.89470 0.65690 0.14100
C 	C 	0.58850 0.91110 0.62520 0.17900
C 	C 	0.56860 0.92980 0.61826 -0.18000
H 	H 	0.56410 0.93240 0.60020 0.13300
C 	C 	0.55550 0.94450 0.63840 0.12300
H 	H 	0.54210 0.95690 0.63370 0.02400
C 	C 	0.60160 0.89480 0.60430 -0.05300
C 	C 	0.61180 0.88100 0.58760 0.16900
C 	C 	0.62280 0.86300 0.56660 -0.02200
C 	C 	0.64860 0.86830 0.55680 0.13700
C 	C 	0.65960 0.85220 0.53640 0.65600
C 	C 	0.64460 0.83070 0.52595 -0.84500
C 	C 	0.61880 0.82540 0.53580 0.68500
C 	C 	0.60790 0.84160 0.55610 0.13400
C 	C 	0.64270 0.76680 0.52130 0.64600
C 	C 	0.63510 0.74040 0.52130 0.04900
C 	C 	0.58630 0.63790 0.47640 -0.17700
H 	H 	0.59540 0.64390 0.46110 0.14000
C 	C 	0.57260 0.61340 0.47680 0.11800
H 	H 	0.56880 0.60520 0.46020 0.02900
C 	C 	0.70400 0.80250 0.52280 0.57600
F 	F 	0.68260 0.85660 0.52770 -0.45000
F 	F 	0.66330 0.88830 0.56580 -0.33400
F 	F 	0.58410 0.83900 0.56750 -0.33900
F 	F 	0.60400 0.80900 0.52580 -0.47400
F 	F 	0.64280 0.77970 0.54590 -0.40500
F 	F 	0.63100 0.72630 0.54510 -0.31700
F 	F 	0.69150 0.80770 0.54610 -0.40300
F 	F 	0.54530 0.25460 0.79370 -0.33000
O 	O 	0.52423 0.92023 0.75187 -0.58500
O 	O 	0.55269 0.94804 0.71111 -0.60900
O 	O 	0.47113 0.02756 0.67675 -0.59000
O 	O 	0.46000 0.42970 0.48020 -0.52100
C 	C 	0.47410 0.86520 0.76600 0.07600
H 	H 	0.45770 0.87460 0.76560 0.04300
C 	C 	0.47500 0.83770 0.77070 -0.15000
H 	H 	0.45910 0.82770 0.77220 0.13300
C 	C 	0.47810 0.73080 0.79520 0.11200
C 	C 	0.45380 0.04600 0.68690 0.44600
C 	C 	0.43780 0.05950 0.66540 -0.15700
C 	C 	0.41790 0.07820 0.67235 0.12400
H 	H 	0.41330 0.08080 0.69040 0.02700
C 	C 	0.40470 0.09290 0.65230 -0.18100
H 	H 	0.39140 0.10530 0.65690 0.14100
C 	C 	0.41150 0.08890 0.62520 0.17900
C 	C 	0.43140 0.07020 0.61826 -0.18000
H 	H 	0.43590 0.06760 0.60020 0.13300
C 	C 	0.44450 0.05550 0.63840 0.12300
H 	H 	0.45790 0.04310 0.63370 0.02400
C 	C 	0.39840 0.10520 0.60430 -0.05300
C 	C 	0.38820 0.11900 0.58760 0.16900
C 	C 	0.37720 0.13700 0.56660 -0.02200
C 	C 	0.35140 0.13170 0.55680 0.13700
C 	C 	0.34040 0.14780 0.53640 0.65600
C 	C 	0.35540 0.16930 0.52595 -0.84500
C 	C 	0.38120 0.17460 0.53580 0.68500
C 	C 	0.39210 0.15840 0.55610 0.13400
C 	C 	0.35730 0.23320 0.52130 0.64600
C 	C 	0.36490 0.25960 0.52130 0.04900
C 	C 	0.41370 0.36210 0.47640 -0.17700
H 	H 	0.40460 0.35610 0.46110 0.14000
C 	C 	0.42740 0.38660 0.47680 0.11800
H 	H 	0.43120 0.39480 0.46020 0.02900
C 	C 	0.29600 0.19750 0.52280 0.57600
F 	F 	0.31740 0.14340 0.52770 -0.45000
F 	F 	0.33670 0.11170 0.56580 -0.33400
F 	F 	0.41590 0.16100 0.56750 -0.33900
F 	F 	0.39600 0.19100 0.52580 -0.47400
F 	F 	0.35720 0.22030 0.54590 -0.40500
F 	F 	0.36900 0.27370 0.54510 -0.31700
F 	F 	0.30850 0.19230 0.54610 -0.40300
F 	F 	0.45470 0.74540 0.79370 -0.33000
O 	O 	0.52423 0.07977 0.24813 -0.58500
O 	O 	0.55269 0.05196 0.28889 -0.60900
O 	O 	0.47113 0.97244 0.32325 -0.58900
O 	O 	0.46000 0.57030 0.51980 -0.52100
C 	C 	0.47410 0.13480 0.23400 0.07600
H 	H 	0.45770 0.12540 0.23440 0.04300
C 	C 	0.47500 0.16230 0.22930 -0.15000
H 	H 	0.45910 0.17230 0.22780 0.13300
C 	C 	0.47810 0.26920 0.20480 0.11200
C 	C 	0.45380 0.95400 0.31310 0.44600
C 	C 	0.43780 0.94050 0.33460 -0.15700
C 	C 	0.41790 0.92180 0.32765 0.12400
H 	H 	0.41330 0.91920 0.30960 0.02700
C 	C 	0.40470 0.90710 0.34770 -0.18100
H 	H 	0.39140 0.89470 0.34310 0.14100
C 	C 	0.41150 0.91110 0.37480 0.17900
C 	C 	0.43140 0.92980 0.38174 -0.18000
H 	H 	0.43590 0.93240 0.39980 0.13300
C 	C 	0.44450 0.94450 0.36160 0.12300
H 	H 	0.45790 0.95690 0.36630 0.02400
C 	C 	0.39840 0.89480 0.39570 -0.05300
C 	C 	0.38820 0.88100 0.41240 0.16900
C 	C 	0.37720 0.86300 0.43340 -0.02200
C 	C 	0.35140 0.86830 0.44320 0.13700
C 	C 	0.34040 0.85220 0.46360 0.65600
C 	C 	0.35540 0.83070 0.47405 -0.84500
C 	C 	0.38120 0.82540 0.46420 0.68500
C 	C 	0.39210 0.84160 0.44390 0.13400
C 	C 	0.35730 0.76680 0.47870 0.64600
C 	C 	0.36490 0.74040 0.47870 0.04900
C 	C 	0.41370 0.63790 0.52360 -0.17700
H 	H 	0.40460 0.64390 0.53890 0.14000
C 	C 	0.42740 0.61340 0.52320 0.11800
H 	H 	0.43120 0.60520 0.53980 0.02900
C 	C 	0.29600 0.80250 0.47720 0.57600
F 	F 	0.31740 0.85660 0.47230 -0.45000
F 	F 	0.33670 0.88830 0.43420 -0.33400
F 	F 	0.41590 0.83900 0.43250 -0.33900
F 	F 	0.39600 0.80900 0.47420 -0.47400
F 	F 	0.35720 0.77970 0.45410 -0.40500
F 	F 	0.36900 0.72630 0.45490 -0.31700
F 	F 	0.30850 0.80770 0.45390 -0.40300
F 	F 	0.45470 0.25460 0.20630 -0.33000
O 	O 	0.74813 0.57977 0.02423 -0.58500
O 	O 	0.78889 0.55196 0.05269 -0.60900
O 	O 	0.82325 0.47244 0.97113 -0.58900
O 	O 	0.01980 0.07030 0.96000 -0.52100
C 	C 	0.73400 0.63480 0.97410 0.07700
H 	H 	0.73440 0.62540 0.95770 0.04300
C 	C 	0.72930 0.66230 0.97500 -0.14900
H 	H 	0.72780 0.67230 0.95910 0.13300
C 	C 	0.70480 0.76920 0.97810 0.11200
C 	C 	0.81310 0.45400 0.95380 0.44600
C 	C 	0.83460 0.44050 0.93780 -0.15700
C 	C 	0.82765 0.42180 0.91790 0.12400
H 	H 	0.80960 0.41920 0.91330 0.02700
C 	C 	0.84770 0.40710 0.90470 -0.18100
H 	H 	0.84310 0.39470 0.89140 0.14100
C 	C 	0.87480 0.41110 0.91150 0.17900
C 	C 	0.88174 0.42980 0.93140 -0.18000
H 	H 	0.89980 0.43240 0.93590 0.13300
C 	C 	0.86160 0.44450 0.94450 0.12300
H 	H 	0.86630 0.45690 0.95790 0.02400
C 	C 	0.89570 0.39480 0.89840 -0.05300
C 	C 	0.91240 0.38100 0.88820 0.16900
C 	C 	0.93340 0.36300 0.87720 -0.02200
C 	C 	0.94320 0.36830 0.85140 0.13700
C 	C 	0.96360 0.35220 0.84040 0.65600
C 	C 	0.97405 0.33070 0.85540 -0.84400
C 	C 	0.96420 0.32540 0.88120 0.68500
C 	C 	0.94390 0.34160 0.89210 0.13400
C 	C 	0.97870 0.26680 0.85730 0.64700
C 	C 	0.97870 0.24040 0.86490 0.04900
C 	C 	0.02360 0.13790 0.91370 -0.17700
H 	H 	0.03890 0.14390 0.90460 0.14000
C 	C 	0.02320 0.11340 0.92740 0.11700
H 	H 	0.03980 0.10520 0.93120 0.02900
C 	C 	0.97720 0.30250 0.79600 0.57600
F 	F 	0.97230 0.35660 0.81740 -0.45000
F 	F 	0.93420 0.38830 0.83670 -0.33400
F 	F 	0.93250 0.33900 0.91590 -0.33900
F 	F 	0.97420 0.30900 0.89600 -0.47400
F 	F 	0.95410 0.27970 0.85720 -0.40500
F 	F 	0.95490 0.22630 0.86900 -0.31700
F 	F 	0.95390 0.30770 0.80850 -0.40300
F 	F 	0.70630 0.75460 0.95470 -0.33000
O 	O 	0.25187 0.42023 0.02423 -0.58500
O 	O 	0.21111 0.44804 0.05269 -0.60900
O 	O 	0.17675 0.52756 0.97113 -0.58900
O 	O 	0.98020 0.92970 0.96000 -0.52100
C 	C 	0.26600 0.36520 0.97410 0.07700
H 	H 	0.26560 0.37460 0.95770 0.04300
C 	C 	0.27070 0.33770 0.97500 -0.14900
H 	H 	0.27220 0.32770 0.95910 0.13300
C 	C 	0.29520 0.23080 0.97810 0.11200
C 	C 	0.18690 0.54600 0.95380 0.44600
C 	C 	0.16540 0.55950 0.93780 -0.15700
C 	C 	0.17235 0.57820 0.91790 0.12400
H 	H 	0.19040 0.58080 0.91330 0.02700
C 	C 	0.15230 0.59290 0.90470 -0.18100
H 	H 	0.15690 0.60530 0.89140 0.14100
C 	C 	0.12520 0.58890 0.91150 0.17900
C 	C 	0.11826 0.57020 0.93140 -0.18000
H 	H 	0.10020 0.56760 0.93590 0.13300
C 	C 	0.13840 0.55550 0.94450 0.12300
H 	H 	0.13370 0.54310 0.95790 0.02400
C 	C 	0.10430 0.60520 0.89840 -0.05300
C 	C 	0.08760 0.61900 0.88820 0.16900
C 	C 	0.06660 0.63700 0.87720 -0.02200
C 	C 	0.05680 0.63170 0.85140 0.13700
C 	C 	0.03640 0.64780 0.84040 0.65600
C 	C 	0.02595 0.66930 0.85540 -0.84500
C 	C 	0.03580 0.67460 0.88120 0.68500
C 	C 	0.05610 0.65840 0.89210 0.13400
C 	C 	0.02130 0.73320 0.85730 0.64600
C 	C 	0.02130 0.75960 0.86490 0.04900
C 	C 	0.97640 0.86210 0.91370 -0.17600
H 	H 	0.96110 0.85610 0.90460 0.14000
C 	C 	0.97680 0.88660 0.92740 0.11800
H 	H 	0.96020 0.89480 0.93120 0.02900
C 	C 	0.02280 0.69750 0.79600 0.57500
F 	F 	0.02770 0.64340 0.81740 -0.45000
F 	F 	0.06580 0.61170 0.83670 -0.33400
F 	F 	0.06750 0.66100 0.91590 -0.33900
F 	F 	0.02580 0.69100 0.89600 -0.47400
F 	F 	0.04590 0.72030 0.85720 -0.40500
F 	F 	0.04510 0.77370 0.86900 -0.31700
F 	F 	0.04610 0.69230 0.80850 -0.40300
F 	F 	0.29370 0.24540 0.95470 -0.33000
O 	O 	0.25187 0.57977 0.97577 -0.58500
O 	O 	0.21111 0.55196 0.94731 -0.60900
O 	O 	0.17675 0.47244 0.02887 -0.59000
O 	O 	0.98020 0.07030 0.04000 -0.52100
C 	C 	0.26600 0.63480 0.02590 0.07600
H 	H 	0.26560 0.62540 0.04230 0.04300
C 	C 	0.27070 0.66230 0.02500 -0.15000
H 	H 	0.27220 0.67230 0.04090 0.13300
C 	C 	0.29520 0.76920 0.02190 0.11200
C 	C 	0.18690 0.45400 0.04620 0.44600
C 	C 	0.16540 0.44050 0.06220 -0.15700
C 	C 	0.17235 0.42180 0.08210 0.12400
H 	H 	0.19040 0.41920 0.08670 0.02700
C 	C 	0.15230 0.40710 0.09530 -0.18100
H 	H 	0.15690 0.39470 0.10860 0.14100
C 	C 	0.12520 0.41110 0.08850 0.17900
C 	C 	0.11826 0.42980 0.06860 -0.18000
H 	H 	0.10020 0.43240 0.06410 0.13300
C 	C 	0.13840 0.44450 0.05550 0.12300
H 	H 	0.13370 0.45690 0.04210 0.02400
C 	C 	0.10430 0.39480 0.10160 -0.05300
C 	C 	0.08760 0.38100 0.11180 0.16900
C 	C 	0.06660 0.36300 0.12280 -0.02200
C 	C 	0.05680 0.36830 0.14860 0.13700
C 	C 	0.03640 0.35220 0.15960 0.65600
C 	C 	0.02595 0.33070 0.14460 -0.84500
C 	C 	0.03580 0.32540 0.11880 0.68500
C 	C 	0.05610 0.34160 0.10790 0.13400
C 	C 	0.02130 0.26680 0.14270 0.64600
C 	C 	0.02130 0.24040 0.13510 0.04900
C 	C 	0.97640 0.13790 0.08630 -0.17600
H 	H 	0.96110 0.14390 0.09540 0.14000
C 	C 	0.97680 0.11340 0.07260 0.11800
H 	H 	0.96020 0.10520 0.06880 0.02900
C 	C 	0.02280 0.30250 0.20400 0.57600
F 	F 	0.02770 0.35660 0.18260 -0.45000
F 	F 	0.06580 0.38830 0.16330 -0.33400
F 	F 	0.06750 0.33900 0.08410 -0.33900
F 	F 	0.02580 0.30900 0.10400 -0.47400
F 	F 	0.04590 0.27970 0.14280 -0.40500
F 	F 	0.04510 0.22630 0.13100 -0.31700
F 	F 	0.04610 0.30770 0.19150 -0.40300
F 	F 	0.29370 0.75460 0.04530 -0.33000
O 	O 	0.74813 0.42023 0.97577 -0.58500
O 	O 	0.78889 0.44804 0.94731 -0.60900
O 	O 	0.82325 0.52756 0.02887 -0.59000
O 	O 	0.01980 0.92970 0.04000 -0.52100
C 	C 	0.73400 0.36520 0.02590 0.07600
H 	H 	0.73440 0.37460 0.04230 0.04300
C 	C 	0.72930 0.33770 0.02500 -0.15000
H 	H 	0.72780 0.32770 0.04090 0.13300
C 	C 	0.70480 0.23080 0.02190 0.11200
C 	C 	0.81310 0.54600 0.04620 0.44600
C 	C 	0.83460 0.55950 0.06220 -0.15700
C 	C 	0.82765 0.57820 0.08210 0.12400
H 	H 	0.80960 0.58080 0.08670 0.02700
C 	C 	0.84770 0.59290 0.09530 -0.18100
H 	H 	0.84310 0.60530 0.10860 0.14100
C 	C 	0.87480 0.58890 0.08850 0.17900
C 	C 	0.88174 0.57020 0.06860 -0.18000
H 	H 	0.89980 0.56760 0.06410 0.13300
C 	C 	0.86160 0.55550 0.05550 0.12300
H 	H 	0.86630 0.54310 0.04210 0.02400
C 	C 	0.89570 0.60520 0.10160 -0.05300
C 	C 	0.91240 0.61900 0.11180 0.16900
C 	C 	0.93340 0.63700 0.12280 -0.02200
C 	C 	0.94320 0.63170 0.14860 0.13700
C 	C 	0.96360 0.64780 0.15960 0.65600
C 	C 	0.97405 0.66930 0.14460 -0.84400
C 	C 	0.96420 0.67460 0.11880 0.68500
C 	C 	0.94390 0.65840 0.10790 0.13400
C 	C 	0.97870 0.73320 0.14270 0.64700
C 	C 	0.97870 0.75960 0.13510 0.04900
C 	C 	0.02360 0.86210 0.08630 -0.17700
H 	H 	0.03890 0.85610 0.09540 0.14000
C 	C 	0.02320 0.88660 0.07260 0.11800
H 	H 	0.03980 0.89480 0.06880 0.02900
C 	C 	0.97720 0.69750 0.20400 0.57600
F 	F 	0.97230 0.64340 0.18260 -0.45000
F 	F 	0.93420 0.61170 0.16330 -0.33400
F 	F 	0.93250 0.66100 0.08410 -0.33900
F 	F 	0.97420 0.69100 0.10400 -0.47400
F 	F 	0.95410 0.72030 0.14280 -0.40500
F 	F 	0.95490 0.77370 0.13100 -0.31700
F 	F 	0.95390 0.69230 0.19150 -0.40300
F 	F 	0.70630 0.24540 0.04530 -0.33000
O 	O 	0.02423 0.74813 0.57977 -0.58500
O 	O 	0.05269 0.78889 0.55196 -0.60900
O 	O 	0.97113 0.82325 0.47244 -0.58900
O 	O 	0.96000 0.01980 0.07030 -0.52100
C 	C 	0.97410 0.73400 0.63480 0.07700
H 	H 	0.95770 0.73440 0.62540 0.04300
C 	C 	0.97500 0.72930 0.66230 -0.14900
H 	H 	0.95910 0.72780 0.67230 0.13300
C 	C 	0.97810 0.70480 0.76920 0.11200
C 	C 	0.95380 0.81310 0.45400 0.44600
C 	C 	0.93780 0.83460 0.44050 -0.15700
C 	C 	0.91790 0.82765 0.42180 0.12400
H 	H 	0.91330 0.80960 0.41920 0.02700
C 	C 	0.90470 0.84770 0.40710 -0.18100
H 	H 	0.89140 0.84310 0.39470 0.14100
C 	C 	0.91150 0.87480 0.41110 0.17900
C 	C 	0.93140 0.88174 0.42980 -0.18000
H 	H 	0.93590 0.89980 0.43240 0.13300
C 	C 	0.94450 0.86160 0.44450 0.12300
H 	H 	0.95790 0.86630 0.45690 0.02400
C 	C 	0.89840 0.89570 0.39480 -0.05300
C 	C 	0.88820 0.91240 0.38100 0.16900
C 	C 	0.87720 0.93340 0.36300 -0.02200
C 	C 	0.85140 0.94320 0.36830 0.13700
C 	C 	0.84040 0.96360 0.35220 0.65600
C 	C 	0.85540 0.97405 0.33070 -0.84400
C 	C 	0.88120 0.96420 0.32540 0.68500
C 	C 	0.89210 0.94390 0.34160 0.13400
C 	C 	0.85730 0.97870 0.26680 0.64700
C 	C 	0.86490 0.97870 0.24040 0.04900
C 	C 	0.91370 0.02360 0.13790 -0.17700
H 	H 	0.90460 0.03890 0.14390 0.14000
C 	C 	0.92740 0.02320 0.11340 0.11700
H 	H 	0.93120 0.03980 0.10520 0.02900
C 	C 	0.79600 0.97720 0.30250 0.57600
F 	F 	0.81740 0.97230 0.35660 -0.45000
F 	F 	0.83670 0.93420 0.38830 -0.33400
F 	F 	0.91590 0.93250 0.33900 -0.33900
F 	F 	0.89600 0.97420 0.30900 -0.47400
F 	F 	0.85720 0.95410 0.27970 -0.40500
F 	F 	0.86900 0.95490 0.22630 -0.31700
F 	F 	0.80850 0.95390 0.30770 -0.40300
F 	F 	0.95470 0.70630 0.75460 -0.33000
O 	O 	0.02423 0.25187 0.42023 -0.58500
O 	O 	0.05269 0.21111 0.44804 -0.60900
O 	O 	0.97113 0.17675 0.52756 -0.58900
O 	O 	0.96000 0.98020 0.92970 -0.52100
C 	C 	0.97410 0.26600 0.36520 0.07700
H 	H 	0.95770 0.26560 0.37460 0.04300
C 	C 	0.97500 0.27070 0.33770 -0.14900
H 	H 	0.95910 0.27220 0.32770 0.13300
C 	C 	0.97810 0.29520 0.23080 0.11200
C 	C 	0.95380 0.18690 0.54600 0.44600
C 	C 	0.93780 0.16540 0.55950 -0.15700
C 	C 	0.91790 0.17235 0.57820 0.12400
H 	H 	0.91330 0.19040 0.58080 0.02700
C 	C 	0.90470 0.15230 0.59290 -0.18100
H 	H 	0.89140 0.15690 0.60530 0.14100
C 	C 	0.91150 0.12520 0.58890 0.17900
C 	C 	0.93140 0.11826 0.57020 -0.18000
H 	H 	0.93590 0.10020 0.56760 0.13300
C 	C 	0.94450 0.13840 0.55550 0.12300
H 	H 	0.95790 0.13370 0.54310 0.02400
C 	C 	0.89840 0.10430 0.60520 -0.05300
C 	C 	0.88820 0.08760 0.61900 0.16900
C 	C 	0.87720 0.06660 0.63700 -0.02200
C 	C 	0.85140 0.05680 0.63170 0.13700
C 	C 	0.84040 0.03640 0.64780 0.65600
C 	C 	0.85540 0.02595 0.66930 -0.84500
C 	C 	0.88120 0.03580 0.67460 0.68500
C 	C 	0.89210 0.05610 0.65840 0.13400
C 	C 	0.85730 0.02130 0.73320 0.64600
C 	C 	0.86490 0.02130 0.75960 0.04900
C 	C 	0.91370 0.97640 0.86210 -0.17600
H 	H 	0.90460 0.96110 0.85610 0.14000
C 	C 	0.92740 0.97680 0.88660 0.11800
H 	H 	0.93120 0.96020 0.89480 0.02900
C 	C 	0.79600 0.02280 0.69750 0.57500
F 	F 	0.81740 0.02770 0.64340 -0.45000
F 	F 	0.83670 0.06580 0.61170 -0.33400
F 	F 	0.91590 0.06750 0.66100 -0.33900
F 	F 	0.89600 0.02580 0.69100 -0.47400
F 	F 	0.85720 0.04590 0.72030 -0.40500
F 	F 	0.86900 0.04510 0.77370 -0.31700
F 	F 	0.80850 0.04610 0.69230 -0.40300
F 	F 	0.95470 0.29370 0.24540 -0.33000
O 	O 	0.97577 0.25187 0.57977 -0.58500
O 	O 	0.94731 0.21111 0.55196 -0.60900
O 	O 	0.02887 0.17675 0.47244 -0.59000
O 	O 	0.04000 0.98020 0.07030 -0.52100
C 	C 	0.02590 0.26600 0.63480 0.07600
H 	H 	0.04230 0.26560 0.62540 0.04300
C 	C 	0.02500 0.27070 0.66230 -0.15000
H 	H 	0.04090 0.27220 0.67230 0.13300
C 	C 	0.02190 0.29520 0.76920 0.11200
C 	C 	0.04620 0.18690 0.45400 0.44600
C 	C 	0.06220 0.16540 0.44050 -0.15700
C 	C 	0.08210 0.17235 0.42180 0.12400
H 	H 	0.08670 0.19040 0.41920 0.02700
C 	C 	0.09530 0.15230 0.40710 -0.18100
H 	H 	0.10860 0.15690 0.39470 0.14100
C 	C 	0.08850 0.12520 0.41110 0.17900
C 	C 	0.06860 0.11826 0.42980 -0.18000
H 	H 	0.06410 0.10020 0.43240 0.13300
C 	C 	0.05550 0.13840 0.44450 0.12300
H 	H 	0.04210 0.13370 0.45690 0.02400
C 	C 	0.10160 0.10430 0.39480 -0.05300
C 	C 	0.11180 0.08760 0.38100 0.16900
C 	C 	0.12280 0.06660 0.36300 -0.02200
C 	C 	0.14860 0.05680 0.36830 0.13700
C 	C 	0.15960 0.03640 0.35220 0.65600
C 	C 	0.14460 0.02595 0.33070 -0.84500
C 	C 	0.11880 0.03580 0.32540 0.68500
C 	C 	0.10790 0.05610 0.34160 0.13400
C 	C 	0.14270 0.02130 0.26680 0.64600
C 	C 	0.13510 0.02130 0.24040 0.04900
C 	C 	0.08630 0.97640 0.13790 -0.17600
H 	H 	0.09540 0.96110 0.14390 0.14000
C 	C 	0.07260 0.97680 0.11340 0.11800
H 	H 	0.06880 0.96020 0.10520 0.02900
C 	C 	0.20400 0.02280 0.30250 0.57600
F 	F 	0.18260 0.02770 0.35660 -0.45000
F 	F 	0.16330 0.06580 0.38830 -0.33400
F 	F 	0.08410 0.06750 0.33900 -0.33900
F 	F 	0.10400 0.02580 0.30900 -0.47400
F 	F 	0.14280 0.04590 0.27970 -0.40500
F 	F 	0.13100 0.04510 0.22630 -0.31700
F 	F 	0.19150 0.04610 0.30770 -0.40300
F 	F 	0.04530 0.29370 0.75460 -0.33000
O 	O 	0.97577 0.74813 0.42023 -0.58500
O 	O 	0.94731 0.78889 0.44804 -0.60900
O 	O 	0.02887 0.82325 0.52756 -0.59000
O 	O 	0.04000 0.01980 0.92970 -0.52100
C 	C 	0.02590 0.73400 0.36520 0.07600
H 	H 	0.04230 0.73440 0.37460 0.04300
C 	C 	0.02500 0.72930 0.33770 -0.15000
H 	H 	0.04090 0.72780 0.32770 0.13300
C 	C 	0.02190 0.70480 0.23080 0.11200
C 	C 	0.04620 0.81310 0.54600 0.44600
C 	C 	0.06220 0.83460 0.55950 -0.15700
C 	C 	0.08210 0.82765 0.57820 0.12400
H 	H 	0.08670 0.80960 0.58080 0.02700
C 	C 	0.09530 0.84770 0.59290 -0.18100
H 	H 	0.10860 0.84310 0.60530 0.14100
C 	C 	0.08850 0.87480 0.58890 0.17900
C 	C 	0.06860 0.88174 0.57020 -0.18000
H 	H 	0.06410 0.89980 0.56760 0.13300
C 	C 	0.05550 0.86160 0.55550 0.12300
H 	H 	0.04210 0.86630 0.54310 0.02400
C 	C 	0.10160 0.89570 0.60520 -0.05300
C 	C 	0.11180 0.91240 0.61900 0.16900
C 	C 	0.12280 0.93340 0.63700 -0.02200
C 	C 	0.14860 0.94320 0.63170 0.13700
C 	C 	0.15960 0.96360 0.64780 0.65600
C 	C 	0.14460 0.97405 0.66930 -0.84400
C 	C 	0.11880 0.96420 0.67460 0.68500
C 	C 	0.10790 0.94390 0.65840 0.13400
C 	C 	0.14270 0.97870 0.73320 0.64700
C 	C 	0.13510 0.97870 0.75960 0.04900
C 	C 	0.08630 0.02360 0.86210 -0.17700
H 	H 	0.09540 0.03890 0.85610 0.14000
C 	C 	0.07260 0.02320 0.88660 0.11800
H 	H 	0.06880 0.03980 0.89480 0.02900
C 	C 	0.20400 0.97720 0.69750 0.57600
F 	F 	0.18260 0.97230 0.64340 -0.45000
F 	F 	0.16330 0.93420 0.61170 -0.33400
F 	F 	0.08410 0.93250 0.66100 -0.33900
F 	F 	0.10400 0.97420 0.69100 -0.47400
F 	F 	0.14280 0.95410 0.72030 -0.40500
F 	F 	0.13100 0.95490 0.77370 -0.31700
F 	F 	0.19150 0.95390 0.69230 -0.40300
F 	F 	0.04530 0.70630 0.24540 -0.33000
O 	O 	0.57977 0.02423 0.74813 -0.58500
O 	O 	0.55196 0.05269 0.78889 -0.60900
O 	O 	0.47244 0.97113 0.82325 -0.58900
O 	O 	0.07030 0.96000 0.01980 -0.52100
C 	C 	0.63480 0.97410 0.73400 0.07700
H 	H 	0.62540 0.95770 0.73440 0.04300
C 	C 	0.66230 0.97500 0.72930 -0.14900
H 	H 	0.67230 0.95910 0.72780 0.13300
C 	C 	0.76920 0.97810 0.70480 0.11200
C 	C 	0.45400 0.95380 0.81310 0.44600
C 	C 	0.44050 0.93780 0.83460 -0.15700
C 	C 	0.42180 0.91790 0.82765 0.12400
H 	H 	0.41920 0.91330 0.80960 0.02700
C 	C 	0.40710 0.90470 0.84770 -0.18100
H 	H 	0.39470 0.89140 0.84310 0.14100
C 	C 	0.41110 0.91150 0.87480 0.17900
C 	C 	0.42980 0.93140 0.88174 -0.18000
H 	H 	0.43240 0.93590 0.89980 0.13300
C 	C 	0.44450 0.94450 0.86160 0.12300
H 	H 	0.45690 0.95790 0.86630 0.02400
C 	C 	0.39480 0.89840 0.89570 -0.05300
C 	C 	0.38100 0.88820 0.91240 0.16900
C 	C 	0.36300 0.87720 0.93340 -0.02200
C 	C 	0.36830 0.85140 0.94320 0.13700
C 	C 	0.35220 0.84040 0.96360 0.65600
C 	C 	0.33070 0.85540 0.97405 -0.84400
C 	C 	0.32540 0.88120 0.96420 0.68500
C 	C 	0.34160 0.89210 0.94390 0.13400
C 	C 	0.26680 0.85730 0.97870 0.64700
C 	C 	0.24040 0.86490 0.97870 0.04900
C 	C 	0.13790 0.91370 0.02360 -0.17700
H 	H 	0.14390 0.90460 0.03890 0.14000
C 	C 	0.11340 0.92740 0.02320 0.11700
H 	H 	0.10520 0.93120 0.03980 0.02900
C 	C 	0.30250 0.79600 0.97720 0.57600
F 	F 	0.35660 0.81740 0.97230 -0.45000
F 	F 	0.38830 0.83670 0.93420 -0.33400
F 	F 	0.33900 0.91590 0.93250 -0.33900
F 	F 	0.30900 0.89600 0.97420 -0.47400
F 	F 	0.27970 0.85720 0.95410 -0.40500
F 	F 	0.22630 0.86900 0.95490 -0.31700
F 	F 	0.30770 0.80850 0.95390 -0.40300
F 	F 	0.75460 0.95470 0.70630 -0.33000
O 	O 	0.42023 0.02423 0.25187 -0.58500
O 	O 	0.44804 0.05269 0.21111 -0.60900
O 	O 	0.52756 0.97113 0.17675 -0.58900
O 	O 	0.92970 0.96000 0.98020 -0.52100
C 	C 	0.36520 0.97410 0.26600 0.07700
H 	H 	0.37460 0.95770 0.26560 0.04300
C 	C 	0.33770 0.97500 0.27070 -0.14900
H 	H 	0.32770 0.95910 0.27220 0.13300
C 	C 	0.23080 0.97810 0.29520 0.11200
C 	C 	0.54600 0.95380 0.18690 0.44600
C 	C 	0.55950 0.93780 0.16540 -0.15700
C 	C 	0.57820 0.91790 0.17235 0.12400
H 	H 	0.58080 0.91330 0.19040 0.02700
C 	C 	0.59290 0.90470 0.15230 -0.18100
H 	H 	0.60530 0.89140 0.15690 0.14100
C 	C 	0.58890 0.91150 0.12520 0.17900
C 	C 	0.57020 0.93140 0.11826 -0.18000
H 	H 	0.56760 0.93590 0.10020 0.13300
C 	C 	0.55550 0.94450 0.13840 0.12300
H 	H 	0.54310 0.95790 0.13370 0.02400
C 	C 	0.60520 0.89840 0.10430 -0.05300
C 	C 	0.61900 0.88820 0.08760 0.16900
C 	C 	0.63700 0.87720 0.06660 -0.02200
C 	C 	0.63170 0.85140 0.05680 0.13700
C 	C 	0.64780 0.84040 0.03640 0.65600
C 	C 	0.66930 0.85540 0.02595 -0.84500
C 	C 	0.67460 0.88120 0.03580 0.68500
C 	C 	0.65840 0.89210 0.05610 0.13400
C 	C 	0.73320 0.85730 0.02130 0.64600
C 	C 	0.75960 0.86490 0.02130 0.04900
C 	C 	0.86210 0.91370 0.97640 -0.17600
H 	H 	0.85610 0.90460 0.96110 0.14000
C 	C 	0.88660 0.92740 0.97680 0.11800
H 	H 	0.89480 0.93120 0.96020 0.02900
C 	C 	0.69750 0.79600 0.02280 0.57500
F 	F 	0.64340 0.81740 0.02770 -0.45000
F 	F 	0.61170 0.83670 0.06580 -0.33400
F 	F 	0.66100 0.91590 0.06750 -0.33900
F 	F 	0.69100 0.89600 0.02580 -0.47400
F 	F 	0.72030 0.85720 0.04590 -0.40500
F 	F 	0.77370 0.86900 0.04510 -0.31700
F 	F 	0.69230 0.80850 0.04610 -0.40300
F 	F 	0.24540 0.95470 0.29370 -0.33000
O 	O 	0.57977 0.97577 0.25187 -0.58500
O 	O 	0.55196 0.94731 0.21111 -0.60900
O 	O 	0.47244 0.02887 0.17675 -0.59000
O 	O 	0.07030 0.04000 0.98020 -0.52100
C 	C 	0.63480 0.02590 0.26600 0.07600
H 	H 	0.62540 0.04230 0.26560 0.04300
C 	C 	0.66230 0.02500 0.27070 -0.15000
H 	H 	0.67230 0.04090 0.27220 0.13300
C 	C 	0.76920 0.02190 0.29520 0.11200
C 	C 	0.45400 0.04620 0.18690 0.44600
C 	C 	0.44050 0.06220 0.16540 -0.15700
C 	C 	0.42180 0.08210 0.17235 0.12400
H 	H 	0.41920 0.08670 0.19040 0.02700
C 	C 	0.40710 0.09530 0.15230 -0.18100
H 	H 	0.39470 0.10860 0.15690 0.14100
C 	C 	0.41110 0.08850 0.12520 0.17900
C 	C 	0.42980 0.06860 0.11826 -0.18000
H 	H 	0.43240 0.06410 0.10020 0.13300
C 	C 	0.44450 0.05550 0.13840 0.12300
H 	H 	0.45690 0.04210 0.13370 0.02400
C 	C 	0.39480 0.10160 0.10430 -0.05300
C 	C 	0.38100 0.11180 0.08760 0.16900
C 	C 	0.36300 0.12280 0.06660 -0.02200
C 	C 	0.36830 0.14860 0.05680 0.13700
C 	C 	0.35220 0.15960 0.03640 0.65600
C 	C 	0.33070 0.14460 0.02595 -0.84500
C 	C 	0.32540 0.11880 0.03580 0.68500
C 	C 	0.34160 0.10790 0.05610 0.13400
C 	C 	0.26680 0.14270 0.02130 0.64600
C 	C 	0.24040 0.13510 0.02130 0.04900
C 	C 	0.13790 0.08630 0.97640 -0.17600
H 	H 	0.14390 0.09540 0.96110 0.14000
C 	C 	0.11340 0.07260 0.97680 0.11800
H 	H 	0.10520 0.06880 0.96020 0.02900
C 	C 	0.30250 0.20400 0.02280 0.57600
F 	F 	0.35660 0.18260 0.02770 -0.45000
F 	F 	0.38830 0.16330 0.06580 -0.33400
F 	F 	0.33900 0.08410 0.06750 -0.33900
F 	F 	0.30900 0.10400 0.02580 -0.47400
F 	F 	0.27970 0.14280 0.04590 -0.40500
F 	F 	0.22630 0.13100 0.04510 -0.31700
F 	F 	0.30770 0.19150 0.04610 -0.40300
F 	F 	0.75460 0.04530 0.29370 -0.33000
O 	O 	0.42023 0.97577 0.74813 -0.58500
O 	O 	0.44804 0.94731 0.78889 -0.60900
O 	O 	0.52756 0.02887 0.82325 -0.59000
O 	O 	0.92970 0.04000 0.01980 -0.52100
C 	C 	0.36520 0.02590 0.73400 0.07600
H 	H 	0.37460 0.04230 0.73440 0.04300
C 	C 	0.33770 0.02500 0.72930 -0.15000
H 	H 	0.32770 0.04090 0.72780 0.13300
C 	C 	0.23080 0.02190 0.70480 0.11200
C 	C 	0.54600 0.04620 0.81310 0.44600
C 	C 	0.55950 0.06220 0.83460 -0.15700
C 	C 	0.57820 0.08210 0.82765 0.12400
H 	H 	0.58080 0.08670 0.80960 0.02700
C 	C 	0.59290 0.09530 0.84770 -0.18100
H 	H 	0.60530 0.10860 0.84310 0.14100
C 	C 	0.58890 0.08850 0.87480 0.17900
C 	C 	0.57020 0.06860 0.88174 -0.18000
H 	H 	0.56760 0.06410 0.89980 0.13300
C 	C 	0.55550 0.05550 0.86160 0.12300
H 	H 	0.54310 0.04210 0.86630 0.02400
C 	C 	0.60520 0.10160 0.89570 -0.05300
C 	C 	0.61900 0.11180 0.91240 0.16900
C 	C 	0.63700 0.12280 0.93340 -0.02200
C 	C 	0.63170 0.14860 0.94320 0.13700
C 	C 	0.64780 0.15960 0.96360 0.65600
C 	C 	0.66930 0.14460 0.97405 -0.84400
C 	C 	0.67460 0.11880 0.96420 0.68500
C 	C 	0.65840 0.10790 0.94390 0.13400
C 	C 	0.73320 0.14270 0.97870 0.64700
C 	C 	0.75960 0.13510 0.97870 0.04900
C 	C 	0.86210 0.08630 0.02360 -0.17700
H 	H 	0.85610 0.09540 0.03890 0.14000
C 	C 	0.88660 0.07260 0.02320 0.11800
H 	H 	0.89480 0.06880 0.03980 0.02900
C 	C 	0.69750 0.20400 0.97720 0.57600
F 	F 	0.64340 0.18260 0.97230 -0.45000
F 	F 	0.61170 0.16330 0.93420 -0.33400
F 	F 	0.66100 0.08410 0.93250 -0.33900
F 	F 	0.69100 0.10400 0.97420 -0.47400
F 	F 	0.72030 0.14280 0.95410 -0.40500
F 	F 	0.77370 0.13100 0.95490 -0.31700
F 	F 	0.69230 0.19150 0.95390 -0.40300
F 	F 	0.24540 0.04530 0.70630 -0.33000
O 	O 	0.07977 0.24813 0.47577 -0.58500
O 	O 	0.05196 0.28889 0.44731 -0.60900
O 	O 	0.97244 0.32325 0.52887 -0.58900
O 	O 	0.57030 0.51980 0.54000 -0.52100
C 	C 	0.13480 0.23400 0.52590 0.07600
H 	H 	0.12540 0.23440 0.54230 0.04300
C 	C 	0.16230 0.22930 0.52500 -0.15000
H 	H 	0.17230 0.22780 0.54090 0.13300
C 	C 	0.26920 0.20480 0.52190 0.11200
C 	C 	0.95400 0.31310 0.54620 0.44600
C 	C 	0.94050 0.33460 0.56220 -0.15700
C 	C 	0.92180 0.32765 0.58210 0.12400
H 	H 	0.91920 0.30960 0.58670 0.02700
C 	C 	0.90710 0.34770 0.59530 -0.18100
H 	H 	0.89470 0.34310 0.60860 0.14100
C 	C 	0.91110 0.37480 0.58850 0.17900
C 	C 	0.92980 0.38174 0.56860 -0.18000
H 	H 	0.93240 0.39980 0.56410 0.13300
C 	C 	0.94450 0.36160 0.55550 0.12300
H 	H 	0.95690 0.36630 0.54210 0.02400
C 	C 	0.89480 0.39570 0.60160 -0.05300
C 	C 	0.88100 0.41240 0.61180 0.16900
C 	C 	0.86300 0.43340 0.62280 -0.02200
C 	C 	0.86830 0.44320 0.64860 0.13700
C 	C 	0.85220 0.46360 0.65960 0.65600
C 	C 	0.83070 0.47405 0.64460 -0.84500
C 	C 	0.82540 0.46420 0.61880 0.68500
C 	C 	0.84160 0.44390 0.60790 0.13400
C 	C 	0.76680 0.47870 0.64270 0.64600
C 	C 	0.74040 0.47870 0.63510 0.04900
C 	C 	0.63790 0.52360 0.58630 -0.17700
H 	H 	0.64390 0.53890 0.59540 0.14000
C 	C 	0.61340 0.52320 0.57260 0.11800
H 	H 	0.60520 0.53980 0.56880 0.02900
C 	C 	0.80250 0.47720 0.70400 0.57600
F 	F 	0.85660 0.47230 0.68260 -0.45000
F 	F 	0.88830 0.43420 0.66330 -0.33400
F 	F 	0.83900 0.43250 0.58410 -0.33900
F 	F 	0.80900 0.47420 0.60400 -0.47400
F 	F 	0.77970 0.45410 0.64280 -0.40500
F 	F 	0.72630 0.45490 0.63100 -0.31700
F 	F 	0.80770 0.45390 0.69150 -0.40300
F 	F 	0.25460 0.20630 0.54530 -0.33000
O 	O 	0.92023 0.75187 0.47577 -0.58500
O 	O 	0.94804 0.71111 0.44731 -0.60900
O 	O 	0.02756 0.67675 0.52887 -0.59000
O 	O 	0.42970 0.48020 0.54000 -0.52100
C 	C 	0.86520 0.76600 0.52590 0.07600
H 	H 	0.87460 0.76560 0.54230 0.04300
C 	C 	0.83770 0.77070 0.52500 -0.15000
H 	H 	0.82770 0.77220 0.54090 0.13300
C 	C 	0.73080 0.79520 0.52190 0.11200
C 	C 	0.04600 0.68690 0.54620 0.44600
C 	C 	0.05950 0.66540 0.56220 -0.15700
C 	C 	0.07820 0.67235 0.58210 0.12400
H 	H 	0.08080 0.69040 0.58670 0.02700
C 	C 	0.09290 0.65230 0.59530 -0.18100
H 	H 	0.10530 0.65690 0.60860 0.14100
C 	C 	0.08890 0.62520 0.58850 0.17900
C 	C 	0.07020 0.61826 0.56860 -0.18000
H 	H 	0.06760 0.60020 0.56410 0.13300
C 	C 	0.05550 0.63840 0.55550 0.12300
H 	H 	0.04310 0.63370 0.54210 0.02400
C 	C 	0.10520 0.60430 0.60160 -0.05300
C 	C 	0.11900 0.58760 0.61180 0.16900
C 	C 	0.13700 0.56660 0.62280 -0.02200
C 	C 	0.13170 0.55680 0.64860 0.13700
C 	C 	0.14780 0.53640 0.65960 0.65600
C 	C 	0.16930 0.52595 0.64460 -0.84500
C 	C 	0.17460 0.53580 0.61880 0.68500
C 	C 	0.15840 0.55610 0.60790 0.13400
C 	C 	0.23320 0.52130 0.64270 0.64600
C 	C 	0.25960 0.52130 0.63510 0.04900
C 	C 	0.36210 0.47640 0.58630 -0.17700
H 	H 	0.35610 0.46110 0.59540 0.14000
C 	C 	0.38660 0.47680 0.57260 0.11800
H 	H 	0.39480 0.46020 0.56880 0.02900
C 	C 	0.19750 0.52280 0.70400 0.57600
F 	F 	0.14340 0.52770 0.68260 -0.45000
F 	F 	0.11170 0.56580 0.66330 -0.33400
F 	F 	0.16100 0.56750 0.58410 -0.33900
F 	F 	0.19100 0.52580 0.60400 -0.47400
F 	F 	0.22030 0.54590 0.64280 -0.40500
F 	F 	0.27370 0.54510 0.63100 -0.31700
F 	F 	0.19230 0.54610 0.69150 -0.40300
F 	F 	0.74540 0.79370 0.54530 -0.33000
O 	O 	0.07977 0.75187 0.52423 -0.58500
O 	O 	0.05196 0.71111 0.55269 -0.60900
O 	O 	0.97244 0.67675 0.47113 -0.58900
O 	O 	0.57030 0.48020 0.46000 -0.52100
C 	C 	0.13480 0.76600 0.47410 0.07600
H 	H 	0.12540 0.76560 0.45770 0.04300
C 	C 	0.16230 0.77070 0.47500 -0.15000
H 	H 	0.17230 0.77220 0.45910 0.13300
C 	C 	0.26920 0.79520 0.47810 0.11200
C 	C 	0.95400 0.68690 0.45380 0.44600
C 	C 	0.94050 0.66540 0.43780 -0.15700
C 	C 	0.92180 0.67235 0.41790 0.12400
H 	H 	0.91920 0.69040 0.41330 0.02700
C 	C 	0.90710 0.65230 0.40470 -0.18100
H 	H 	0.89470 0.65690 0.39140 0.14100
C 	C 	0.91110 0.62520 0.41150 0.17900
C 	C 	0.92980 0.61826 0.43140 -0.18000
H 	H 	0.93240 0.60020 0.43590 0.13300
C 	C 	0.94450 0.63840 0.44450 0.12300
H 	H 	0.95690 0.63370 0.45790 0.02400
C 	C 	0.89480 0.60430 0.39840 -0.05300
C 	C 	0.88100 0.58760 0.38820 0.16900
C 	C 	0.86300 0.56660 0.37720 -0.02200
C 	C 	0.86830 0.55680 0.35140 0.13700
C 	C 	0.85220 0.53640 0.34040 0.65600
C 	C 	0.83070 0.52595 0.35540 -0.84500
C 	C 	0.82540 0.53580 0.38120 0.68500
C 	C 	0.84160 0.55610 0.39210 0.13400
C 	C 	0.76680 0.52130 0.35730 0.64600
C 	C 	0.74040 0.52130 0.36490 0.04900
C 	C 	0.63790 0.47640 0.41370 -0.17700
H 	H 	0.64390 0.46110 0.40460 0.14000
C 	C 	0.61340 0.47680 0.42740 0.11800
H 	H 	0.60520 0.46020 0.43120 0.02900
C 	C 	0.80250 0.52280 0.29600 0.57600
F 	F 	0.85660 0.52770 0.31740 -0.45000
F 	F 	0.88830 0.56580 0.33670 -0.33400
F 	F 	0.83900 0.56750 0.41590 -0.33900
F 	F 	0.80900 0.52580 0.39600 -0.47400
F 	F 	0.77970 0.54590 0.35720 -0.40500
F 	F 	0.72630 0.54510 0.36900 -0.31700
F 	F 	0.80770 0.54610 0.30850 -0.40300
F 	F 	0.25460 0.79370 0.45470 -0.33000
O 	O 	0.92023 0.24813 0.52423 -0.58500
O 	O 	0.94804 0.28889 0.55269 -0.60900
O 	O 	0.02756 0.32325 0.47113 -0.59000
O 	O 	0.42970 0.51980 0.46000 -0.52100
C 	C 	0.86520 0.23400 0.47410 0.07600
H 	H 	0.87460 0.23440 0.45770 0.04300
C 	C 	0.83770 0.22930 0.47500 -0.15000
H 	H 	0.82770 0.22780 0.45910 0.13300
C 	C 	0.73080 0.20480 0.47810 0.11200
C 	C 	0.04600 0.31310 0.45380 0.44600
C 	C 	0.05950 0.33460 0.43780 -0.15700
C 	C 	0.07820 0.32765 0.41790 0.12400
H 	H 	0.08080 0.30960 0.41330 0.02700
C 	C 	0.09290 0.34770 0.40470 -0.18100
H 	H 	0.10530 0.34310 0.39140 0.14100
C 	C 	0.08890 0.37480 0.41150 0.17900
C 	C 	0.07020 0.38174 0.43140 -0.18000
H 	H 	0.06760 0.39980 0.43590 0.13300
C 	C 	0.05550 0.36160 0.44450 0.12300
H 	H 	0.04310 0.36630 0.45790 0.02400
C 	C 	0.10520 0.39570 0.39840 -0.05300
C 	C 	0.11900 0.41240 0.38820 0.16900
C 	C 	0.13700 0.43340 0.37720 -0.02200
C 	C 	0.13170 0.44320 0.35140 0.13700
C 	C 	0.14780 0.46360 0.34040 0.65600
C 	C 	0.16930 0.47405 0.35540 -0.84500
C 	C 	0.17460 0.46420 0.38120 0.68500
C 	C 	0.15840 0.44390 0.39210 0.13400
C 	C 	0.23320 0.47870 0.35730 0.64600
C 	C 	0.25960 0.47870 0.36490 0.04900
C 	C 	0.36210 0.52360 0.41370 -0.17700
H 	H 	0.35610 0.53890 0.40460 0.14000
C 	C 	0.38660 0.52320 0.42740 0.11800
H 	H 	0.39480 0.53980 0.43120 0.02900
C 	C 	0.19750 0.47720 0.29600 0.57600
F 	F 	0.14340 0.47230 0.31740 -0.45000
F 	F 	0.11170 0.43420 0.33670 -0.33400
F 	F 	0.16100 0.43250 0.41590 -0.33900
F 	F 	0.19100 0.47420 0.39600 -0.47400
F 	F 	0.22030 0.45410 0.35720 -0.40500
F 	F 	0.27370 0.45490 0.36900 -0.31700
F 	F 	0.19230 0.45390 0.30850 -0.40300
F 	F 	0.74540 0.20630 0.45470 -0.33000
O 	O 	0.24813 0.52423 0.92023 -0.58500
O 	O 	0.28889 0.55269 0.94804 -0.60900
O 	O 	0.32325 0.47113 0.02756 -0.59000
O 	O 	0.51980 0.46000 0.42970 -0.52100
C 	C 	0.23400 0.47410 0.86520 0.07600
H 	H 	0.23440 0.45770 0.87460 0.04300
C 	C 	0.22930 0.47500 0.83770 -0.15000
H 	H 	0.22780 0.45910 0.82770 0.13300
C 	C 	0.20480 0.47810 0.73080 0.11200
C 	C 	0.31310 0.45380 0.04600 0.44600
C 	C 	0.33460 0.43780 0.05950 -0.15700
C 	C 	0.32765 0.41790 0.07820 0.12400
H 	H 	0.30960 0.41330 0.08080 0.02700
C 	C 	0.34770 0.40470 0.09290 -0.18100
H 	H 	0.34310 0.39140 0.10530 0.14100
C 	C 	0.37480 0.41150 0.08890 0.17900
C 	C 	0.38174 0.43140 0.07020 -0.18000
H 	H 	0.39980 0.43590 0.06760 0.13300
C 	C 	0.36160 0.44450 0.05550 0.12300
H 	H 	0.36630 0.45790 0.04310 0.02400
C 	C 	0.39570 0.39840 0.10520 -0.05300
C 	C 	0.41240 0.38820 0.11900 0.16900
C 	C 	0.43340 0.37720 0.13700 -0.02200
C 	C 	0.44320 0.35140 0.13170 0.13700
C 	C 	0.46360 0.34040 0.14780 0.65600
C 	C 	0.47405 0.35540 0.16930 -0.84500
C 	C 	0.46420 0.38120 0.17460 0.68500
C 	C 	0.44390 0.39210 0.15840 0.13400
C 	C 	0.47870 0.35730 0.23320 0.64600
C 	C 	0.47870 0.36490 0.25960 0.04900
C 	C 	0.52360 0.41370 0.36210 -0.17700
H 	H 	0.53890 0.40460 0.35610 0.14000
C 	C 	0.52320 0.42740 0.38660 0.11800
H 	H 	0.53980 0.43120 0.39480 0.02900
C 	C 	0.47720 0.29600 0.19750 0.57600
F 	F 	0.47230 0.31740 0.14340 -0.45000
F 	F 	0.43420 0.33670 0.11170 -0.33400
F 	F 	0.43250 0.41590 0.16100 -0.33900
F 	F 	0.47420 0.39600 0.19100 -0.47400
F 	F 	0.45410 0.35720 0.22030 -0.40500
F 	F 	0.45490 0.36900 0.27370 -0.31700
F 	F 	0.45390 0.30850 0.19230 -0.40300
F 	F 	0.20630 0.45470 0.74540 -0.33000
O 	O 	0.75187 0.52423 0.07977 -0.58500
O 	O 	0.71111 0.55269 0.05196 -0.60900
O 	O 	0.67675 0.47113 0.97244 -0.58900
O 	O 	0.48020 0.46000 0.57030 -0.52100
C 	C 	0.76600 0.47410 0.13480 0.07600
H 	H 	0.76560 0.45770 0.12540 0.04300
C 	C 	0.77070 0.47500 0.16230 -0.15000
H 	H 	0.77220 0.45910 0.17230 0.13300
C 	C 	0.79520 0.47810 0.26920 0.11200
C 	C 	0.68690 0.45380 0.95400 0.44600
C 	C 	0.66540 0.43780 0.94050 -0.15700
C 	C 	0.67235 0.41790 0.92180 0.12400
H 	H 	0.69040 0.41330 0.91920 0.02700
C 	C 	0.65230 0.40470 0.90710 -0.18100
H 	H 	0.65690 0.39140 0.89470 0.14100
C 	C 	0.62520 0.41150 0.91110 0.17900
C 	C 	0.61826 0.43140 0.92980 -0.18000
H 	H 	0.60020 0.43590 0.93240 0.13300
C 	C 	0.63840 0.44450 0.94450 0.12300
H 	H 	0.63370 0.45790 0.95690 0.02400
C 	C 	0.60430 0.39840 0.89480 -0.05300
C 	C 	0.58760 0.38820 0.88100 0.16900
C 	C 	0.56660 0.37720 0.86300 -0.02200
C 	C 	0.55680 0.35140 0.86830 0.13700
C 	C 	0.53640 0.34040 0.85220 0.65600
C 	C 	0.52595 0.35540 0.83070 -0.84500
C 	C 	0.53580 0.38120 0.82540 0.68500
C 	C 	0.55610 0.39210 0.84160 0.13400
C 	C 	0.52130 0.35730 0.76680 0.64600
C 	C 	0.52130 0.36490 0.74040 0.04900
C 	C 	0.47640 0.41370 0.63790 -0.17700
H 	H 	0.46110 0.40460 0.64390 0.14000
C 	C 	0.47680 0.42740 0.61340 0.11800
H 	H 	0.46020 0.43120 0.60520 0.02900
C 	C 	0.52280 0.29600 0.80250 0.57600
F 	F 	0.52770 0.31740 0.85660 -0.45000
F 	F 	0.56580 0.33670 0.88830 -0.33400
F 	F 	0.56750 0.41590 0.83900 -0.33900
F 	F 	0.52580 0.39600 0.80900 -0.47400
F 	F 	0.54590 0.35720 0.77970 -0.40500
F 	F 	0.54510 0.36900 0.72630 -0.31700
F 	F 	0.54610 0.30850 0.80770 -0.40300
F 	F 	0.79370 0.45470 0.25460 -0.33000
O 	O 	0.75187 0.47577 0.92023 -0.58500
O 	O 	0.71111 0.44731 0.94804 -0.60900
O 	O 	0.67675 0.52887 0.02756 -0.59000
O 	O 	0.48020 0.54000 0.42970 -0.52100
C 	C 	0.76600 0.52590 0.86520 0.07600
H 	H 	0.76560 0.54230 0.87460 0.04300
C 	C 	0.77070 0.52500 0.83770 -0.15000
H 	H 	0.77220 0.54090 0.82770 0.13300
C 	C 	0.79520 0.52190 0.73080 0.11200
C 	C 	0.68690 0.54620 0.04600 0.44600
C 	C 	0.66540 0.56220 0.05950 -0.15700
C 	C 	0.67235 0.58210 0.07820 0.12400
H 	H 	0.69040 0.58670 0.08080 0.02700
C 	C 	0.65230 0.59530 0.09290 -0.18100
H 	H 	0.65690 0.60860 0.10530 0.14100
C 	C 	0.62520 0.58850 0.08890 0.17900
C 	C 	0.61826 0.56860 0.07020 -0.18000
H 	H 	0.60020 0.56410 0.06760 0.13300
C 	C 	0.63840 0.55550 0.05550 0.12300
H 	H 	0.63370 0.54210 0.04310 0.02400
C 	C 	0.60430 0.60160 0.10520 -0.05300
C 	C 	0.58760 0.61180 0.11900 0.16900
C 	C 	0.56660 0.62280 0.13700 -0.02200
C 	C 	0.55680 0.64860 0.13170 0.13700
C 	C 	0.53640 0.65960 0.14780 0.65600
C 	C 	0.52595 0.64460 0.16930 -0.84500
C 	C 	0.53580 0.61880 0.17460 0.68500
C 	C 	0.55610 0.60790 0.15840 0.13400
C 	C 	0.52130 0.64270 0.23320 0.64600
C 	C 	0.52130 0.63510 0.25960 0.04900
C 	C 	0.47640 0.58630 0.36210 -0.17700
H 	H 	0.46110 0.59540 0.35610 0.14000
C 	C 	0.47680 0.57260 0.38660 0.11800
H 	H 	0.46020 0.56880 0.39480 0.02900
C 	C 	0.52280 0.70400 0.19750 0.57600
F 	F 	0.52770 0.68260 0.14340 -0.45000
F 	F 	0.56580 0.66330 0.11170 -0.33400
F 	F 	0.56750 0.58410 0.16100 -0.33900
F 	F 	0.52580 0.60400 0.19100 -0.47400
F 	F 	0.54590 0.64280 0.22030 -0.40500
F 	F 	0.54510 0.63100 0.27370 -0.31700
F 	F 	0.54610 0.69150 0.19230 -0.40300
F 	F 	0.79370 0.54530 0.74540 -0.33000
O 	O 	0.24813 0.47577 0.07977 -0.58500
O 	O 	0.28889 0.44731 0.05196 -0.60900
O 	O 	0.32325 0.52887 0.97244 -0.58900
O 	O 	0.51980 0.54000 0.57030 -0.52100
C 	C 	0.23400 0.52590 0.13480 0.07600
H 	H 	0.23440 0.54230 0.12540 0.04300
C 	C 	0.22930 0.52500 0.16230 -0.15000
H 	H 	0.22780 0.54090 0.17230 0.13300
C 	C 	0.20480 0.52190 0.26920 0.11200
C 	C 	0.31310 0.54620 0.95400 0.44600
C 	C 	0.33460 0.56220 0.94050 -0.15700
C 	C 	0.32765 0.58210 0.92180 0.12400
H 	H 	0.30960 0.58670 0.91920 0.02700
C 	C 	0.34770 0.59530 0.90710 -0.18100
H 	H 	0.34310 0.60860 0.89470 0.14100
C 	C 	0.37480 0.58850 0.91110 0.17900
C 	C 	0.38174 0.56860 0.92980 -0.18000
H 	H 	0.39980 0.56410 0.93240 0.13300
C 	C 	0.36160 0.55550 0.94450 0.12300
H 	H 	0.36630 0.54210 0.95690 0.02400
C 	C 	0.39570 0.60160 0.89480 -0.05300
C 	C 	0.41240 0.61180 0.88100 0.16900
C 	C 	0.43340 0.62280 0.86300 -0.02200
C 	C 	0.44320 0.64860 0.86830 0.13700
C 	C 	0.46360 0.65960 0.85220 0.65600
C 	C 	0.47405 0.64460 0.83070 -0.84500
C 	C 	0.46420 0.61880 0.82540 0.68500
C 	C 	0.44390 0.60790 0.84160 0.13400
C 	C 	0.47870 0.64270 0.76680 0.64600
C 	C 	0.47870 0.63510 0.74040 0.04900
C 	C 	0.52360 0.58630 0.63790 -0.17700
H 	H 	0.53890 0.59540 0.64390 0.14000
C 	C 	0.52320 0.57260 0.61340 0.11800
H 	H 	0.53980 0.56880 0.60520 0.02900
C 	C 	0.47720 0.70400 0.80250 0.57600
F 	F 	0.47230 0.68260 0.85660 -0.45000
F 	F 	0.43420 0.66330 0.88830 -0.33400
F 	F 	0.43250 0.58410 0.83900 -0.33900
F 	F 	0.47420 0.60400 0.80900 -0.47400
F 	F 	0.45410 0.64280 0.77970 -0.40500
F 	F 	0.45490 0.63100 0.72630 -0.31700
F 	F 	0.45390 0.69150 0.80770 -0.40300
F 	F 	0.20630 0.54530 0.25460 -0.33000
O 	O 	0.52423 0.07977 0.75187 -0.58500
O 	O 	0.55269 0.05196 0.71111 -0.60900
O 	O 	0.47113 0.97244 0.67675 -0.58900
O 	O 	0.46000 0.57030 0.48020 -0.52100
C 	C 	0.47410 0.13480 0.76600 0.07600
H 	H 	0.45770 0.12540 0.76560 0.04300
C 	C 	0.47500 0.16230 0.77070 -0.15000
H 	H 	0.45910 0.17230 0.77220 0.13300
C 	C 	0.47810 0.26920 0.79520 0.11200
C 	C 	0.45380 0.95400 0.68690 0.44600
C 	C 	0.43780 0.94050 0.66540 -0.15700
C 	C 	0.41790 0.92180 0.67235 0.12400
H 	H 	0.41330 0.91920 0.69040 0.02700
C 	C 	0.40470 0.90710 0.65230 -0.18100
H 	H 	0.39140 0.89470 0.65690 0.14100
C 	C 	0.41150 0.91110 0.62520 0.17900
C 	C 	0.43140 0.92980 0.61826 -0.18000
H 	H 	0.43590 0.93240 0.60020 0.13300
C 	C 	0.44450 0.94450 0.63840 0.12300
H 	H 	0.45790 0.95690 0.63370 0.02400
C 	C 	0.39840 0.89480 0.60430 -0.05300
C 	C 	0.38820 0.88100 0.58760 0.16900
C 	C 	0.37720 0.86300 0.56660 -0.02200
C 	C 	0.35140 0.86830 0.55680 0.13700
C 	C 	0.34040 0.85220 0.53640 0.65600
C 	C 	0.35540 0.83070 0.52595 -0.84500
C 	C 	0.38120 0.82540 0.53580 0.68500
C 	C 	0.39210 0.84160 0.55610 0.13400
C 	C 	0.35730 0.76680 0.52130 0.64600
C 	C 	0.36490 0.74040 0.52130 0.04900
C 	C 	0.41370 0.63790 0.47640 -0.17700
H 	H 	0.40460 0.64390 0.46110 0.14000
C 	C 	0.42740 0.61340 0.47680 0.11800
H 	H 	0.43120 0.60520 0.46020 0.02900
C 	C 	0.29600 0.80250 0.52280 0.57600
F 	F 	0.31740 0.85660 0.52770 -0.45000
F 	F 	0.33670 0.88830 0.56580 -0.33400
F 	F 	0.41590 0.83900 0.56750 -0.33900
F 	F 	0.39600 0.80900 0.52580 -0.47400
F 	F 	0.35720 0.77970 0.54590 -0.40500
F 	F 	0.36900 0.72630 0.54510 -0.31700
F 	F 	0.30850 0.80770 0.54610 -0.40300
F 	F 	0.45470 0.25460 0.79370 -0.33000
O 	O 	0.52423 0.92023 0.24813 -0.58500
O 	O 	0.55269 0.94804 0.28889 -0.60900
O 	O 	0.47113 0.02756 0.32325 -0.59000
O 	O 	0.46000 0.42970 0.51980 -0.52100
C 	C 	0.47410 0.86520 0.23400 0.07600
H 	H 	0.45770 0.87460 0.23440 0.04300
C 	C 	0.47500 0.83770 0.22930 -0.15000
H 	H 	0.45910 0.82770 0.22780 0.13300
C 	C 	0.47810 0.73080 0.20480 0.11200
C 	C 	0.45380 0.04600 0.31310 0.44600
C 	C 	0.43780 0.05950 0.33460 -0.15700
C 	C 	0.41790 0.07820 0.32765 0.12400
H 	H 	0.41330 0.08080 0.30960 0.02700
C 	C 	0.40470 0.09290 0.34770 -0.18100
H 	H 	0.39140 0.10530 0.34310 0.14100
C 	C 	0.41150 0.08890 0.37480 0.17900
C 	C 	0.43140 0.07020 0.38174 -0.18000
H 	H 	0.43590 0.06760 0.39980 0.13300
C 	C 	0.44450 0.05550 0.36160 0.12300
H 	H 	0.45790 0.04310 0.36630 0.02400
C 	C 	0.39840 0.10520 0.39570 -0.05300
C 	C 	0.38820 0.11900 0.41240 0.16900
C 	C 	0.37720 0.13700 0.43340 -0.02200
C 	C 	0.35140 0.13170 0.44320 0.13700
C 	C 	0.34040 0.14780 0.46360 0.65600
C 	C 	0.35540 0.16930 0.47405 -0.84500
C 	C 	0.38120 0.17460 0.46420 0.68500
C 	C 	0.39210 0.15840 0.44390 0.13400
C 	C 	0.35730 0.23320 0.47870 0.64600
C 	C 	0.36490 0.25960 0.47870 0.04900
C 	C 	0.41370 0.36210 0.52360 -0.17700
H 	H 	0.40460 0.35610 0.53890 0.14000
C 	C 	0.42740 0.38660 0.52320 0.11800
H 	H 	0.43120 0.39480 0.53980 0.02900
C 	C 	0.29600 0.19750 0.47720 0.57600
F 	F 	0.31740 0.14340 0.47230 -0.45000
F 	F 	0.33670 0.11170 0.43420 -0.33400
F 	F 	0.41590 0.16100 0.43250 -0.33900
F 	F 	0.39600 0.19100 0.47420 -0.47400
F 	F 	0.35720 0.22030 0.45410 -0.40500
F 	F 	0.36900 0.27370 0.45490 -0.31700
F 	F 	0.30850 0.19230 0.45390 -0.40300
F 	F 	0.45470 0.74540 0.20630 -0.33000
O 	O 	0.47577 0.07977 0.24813 -0.58500
O 	O 	0.44731 0.05196 0.28889 -0.60900
O 	O 	0.52887 0.97244 0.32325 -0.58900
O 	O 	0.54000 0.57030 0.51980 -0.52100
C 	C 	0.52590 0.13480 0.23400 0.07600
H 	H 	0.54230 0.12540 0.23440 0.04300
C 	C 	0.52500 0.16230 0.22930 -0.15000
H 	H 	0.54090 0.17230 0.22780 0.13300
C 	C 	0.52190 0.26920 0.20480 0.11200
C 	C 	0.54620 0.95400 0.31310 0.44600
C 	C 	0.56220 0.94050 0.33460 -0.15700
C 	C 	0.58210 0.92180 0.32765 0.12400
H 	H 	0.58670 0.91920 0.30960 0.02700
C 	C 	0.59530 0.90710 0.34770 -0.18100
H 	H 	0.60860 0.89470 0.34310 0.14100
C 	C 	0.58850 0.91110 0.37480 0.17900
C 	C 	0.56860 0.92980 0.38174 -0.18000
H 	H 	0.56410 0.93240 0.39980 0.13300
C 	C 	0.55550 0.94450 0.36160 0.12300
H 	H 	0.54210 0.95690 0.36630 0.02400
C 	C 	0.60160 0.89480 0.39570 -0.05300
C 	C 	0.61180 0.88100 0.41240 0.16900
C 	C 	0.62280 0.86300 0.43340 -0.02200
C 	C 	0.64860 0.86830 0.44320 0.13700
C 	C 	0.65960 0.85220 0.46360 0.65600
C 	C 	0.64460 0.83070 0.47405 -0.84500
C 	C 	0.61880 0.82540 0.46420 0.68500
C 	C 	0.60790 0.84160 0.44390 0.13400
C 	C 	0.64270 0.76680 0.47870 0.64600
C 	C 	0.63510 0.74040 0.47870 0.04900
C 	C 	0.58630 0.63790 0.52360 -0.17700
H 	H 	0.59540 0.64390 0.53890 0.14000
C 	C 	0.57260 0.61340 0.52320 0.11800
H 	H 	0.56880 0.60520 0.53980 0.02900
C 	C 	0.70400 0.80250 0.47720 0.57600
F 	F 	0.68260 0.85660 0.47230 -0.45000
F 	F 	0.66330 0.88830 0.43420 -0.33400
F 	F 	0.58410 0.83900 0.43250 -0.33900
F 	F 	0.60400 0.80900 0.47420 -0.47400
F 	F 	0.64280 0.77970 0.45410 -0.40500
F 	F 	0.63100 0.72630 0.45490 -0.31700
F 	F 	0.69150 0.80770 0.45390 -0.40300
F 	F 	0.54530 0.25460 0.20630 -0.33000
O 	O 	0.47577 0.92023 0.75187 -0.58500
O 	O 	0.44731 0.94804 0.71111 -0.60900
O 	O 	0.52887 0.02756 0.67675 -0.59000
O 	O 	0.54000 0.42970 0.48020 -0.52100
C 	C 	0.52590 0.86520 0.76600 0.07600
H 	H 	0.54230 0.87460 0.76560 0.04300
C 	C 	0.52500 0.83770 0.77070 -0.15000
H 	H 	0.54090 0.82770 0.77220 0.13300
C 	C 	0.52190 0.73080 0.79520 0.11200
C 	C 	0.54620 0.04600 0.68690 0.44600
C 	C 	0.56220 0.05950 0.66540 -0.15700
C 	C 	0.58210 0.07820 0.67235 0.12400
H 	H 	0.58670 0.08080 0.69040 0.02700
C 	C 	0.59530 0.09290 0.65230 -0.18100
H 	H 	0.60860 0.10530 0.65690 0.14100
C 	C 	0.58850 0.08890 0.62520 0.17900
C 	C 	0.56860 0.07020 0.61826 -0.18000
H 	H 	0.56410 0.06760 0.60020 0.13300
C 	C 	0.55550 0.05550 0.63840 0.12300
H 	H 	0.54210 0.04310 0.63370 0.02400
C 	C 	0.60160 0.10520 0.60430 -0.05300
C 	C 	0.61180 0.11900 0.58760 0.16900
C 	C 	0.62280 0.13700 0.56660 -0.02200
C 	C 	0.64860 0.13170 0.55680 0.13700
C 	C 	0.65960 0.14780 0.53640 0.65600
C 	C 	0.64460 0.16930 0.52595 -0.84500
C 	C 	0.61880 0.17460 0.53580 0.68500
C 	C 	0.60790 0.15840 0.55610 0.13400
C 	C 	0.64270 0.23320 0.52130 0.64600
C 	C 	0.63510 0.25960 0.52130 0.04900
C 	C 	0.58630 0.36210 0.47640 -0.17700
H 	H 	0.59540 0.35610 0.46110 0.14000
C 	C 	0.57260 0.38660 0.47680 0.11800
H 	H 	0.56880 0.39480 0.46020 0.02900
C 	C 	0.70400 0.19750 0.52280 0.57600
F 	F 	0.68260 0.14340 0.52770 -0.45000
F 	F 	0.66330 0.11170 0.56580 -0.33400
F 	F 	0.58410 0.16100 0.56750 -0.33900
F 	F 	0.60400 0.19100 0.52580 -0.47400
F 	F 	0.64280 0.22030 0.54590 -0.40500
F 	F 	0.63100 0.27370 0.54510 -0.31700
F 	F 	0.69150 0.19230 0.54610 -0.40300
F 	F 	0.54530 0.74540 0.79370 -0.33000
Zr	Zr	0.25000 0.46440 0.96440 3.20600
Zr	Zr	0.75000 0.53560 0.96440 3.20600
Zr	Zr	0.75000 0.46440 0.03560 3.20600
Zr	Zr	0.25000 0.53560 0.03560 3.20600
Zr	Zr	0.96440 0.25000 0.46440 3.20600
Zr	Zr	0.96440 0.75000 0.53560 3.20600
Zr	Zr	0.03560 0.75000 0.46440 3.20600
Zr	Zr	0.03560 0.25000 0.53560 3.20600
Zr	Zr	0.46440 0.96440 0.25000 3.20600
Zr	Zr	0.53560 0.96440 0.75000 3.20600
Zr	Zr	0.46440 0.03560 0.75000 3.20600
Zr	Zr	0.53560 0.03560 0.25000 3.20600
Zr	Zr	0.75000 0.53560 0.03560 3.20600
Zr	Zr	0.25000 0.46440 0.03560 3.20600
Zr	Zr	0.25000 0.53560 0.96440 3.20600
Zr	Zr	0.75000 0.46440 0.96440 3.20600
Zr	Zr	0.03560 0.75000 0.53560 3.20600
Zr	Zr	0.03560 0.25000 0.46440 3.20600
Zr	Zr	0.96440 0.25000 0.53560 3.20600
Zr	Zr	0.96440 0.75000 0.46440 3.20600
Zr	Zr	0.53560 0.03560 0.75000 3.20600
Zr	Zr	0.46440 0.03560 0.25000 3.20600
Zr	Zr	0.53560 0.96440 0.25000 3.20600
Zr	Zr	0.46440 0.96440 0.75000 3.20600
Zr	Zr	0.19962 0.50000 -0.00000 3.20200
Zr	Zr	0.80038 0.50000 -0.00000 3.20200
Zr	Zr	-0.00000 0.19962 0.50000 3.20200
Zr	Zr	-0.00000 0.80038 0.50000 3.20200
Zr	Zr	0.50000 -0.00000 0.19962 3.20200
Zr	Zr	0.50000 -0.00000 0.80038 3.20200
Zr	Zr	-0.00000 0.69962 0.50000 3.20200
Zr	Zr	-0.00000 0.30038 0.50000 3.20200
Zr	Zr	0.69962 0.50000 -0.00000 3.20200
Zr	Zr	0.30038 0.50000 -0.00000 3.20200
Zr	Zr	0.50000 -0.00000 0.30038 3.20200
Zr	Zr	0.50000 -0.00000 0.69962 3.20200
Zr	Zr	0.97299 0.97299 0.02701 3.27800
Zr	Zr	0.02701 0.02701 0.02701 3.27800
Zr	Zr	0.02701 0.97299 0.97299 3.27800
Zr	Zr	0.97299 0.02701 0.97299 3.27800
Zr	Zr	0.47299 0.47299 0.47299 3.27800
Zr	Zr	0.52701 0.52701 0.47299 3.27800
Zr	Zr	0.47299 0.52701 0.52701 3.27800
Zr	Zr	0.52701 0.47299 0.52701 3.27800
Zr	Zr	0.02701 0.02701 0.97299 3.27800
Zr	Zr	0.97299 0.97299 0.97299 3.27800
Zr	Zr	0.97299 0.02701 0.02701 3.27800
Zr	Zr	0.02701 0.97299 0.02701 3.27800
Zr	Zr	0.52701 0.52701 0.52701 3.27800
Zr	Zr	0.47299 0.47299 0.52701 3.27800
Zr	Zr	0.52701 0.47299 0.47299 3.27800
Zr	Zr	0.47299 0.52701 0.47299 3.27800
O 	O 	0.22216 0.46032 -0.00000 -1.09100
O 	O 	0.27268 0.46781 -0.00000 -1.40900
O 	O 	0.01780 0.95660 -0.00000 -1.63300
C 	C 	0.25290 0.40930 -0.00000 0.41200
C 	C 	0.26170 0.37890 -0.00000 -0.09400
C 	C 	0.27320 0.32490 -0.00000 0.15600
C 	C 	0.27830 0.29630 -0.00000 -0.04000
C 	C 	0.28560 0.27320 -0.00000 0.16000
C 	C 	0.29370 0.24810 -0.00000 0.00400
O 	O 	0.77784 0.53968 -0.00000 -1.09100
O 	O 	0.72732 0.53219 -0.00000 -1.40900
O 	O 	0.98220 0.04340 -0.00000 -1.63300
C 	C 	0.74710 0.59070 -0.00000 0.41200
C 	C 	0.73830 0.62110 -0.00000 -0.09400
C 	C 	0.72680 0.67510 -0.00000 0.15600
C 	C 	0.72170 0.70370 -0.00000 -0.04000
C 	C 	0.71440 0.72680 -0.00000 0.16000
C 	C 	0.70630 0.75190 -0.00000 0.00400
O 	O 	0.77784 0.46032 -0.00000 -1.09100
O 	O 	0.72732 0.46781 -0.00000 -1.40900
O 	O 	0.98220 0.95660 -0.00000 -1.63200
C 	C 	0.74710 0.40930 -0.00000 0.41200
C 	C 	0.73830 0.37890 -0.00000 -0.09400
C 	C 	0.72680 0.32490 -0.00000 0.15600
C 	C 	0.72170 0.29630 -0.00000 -0.04000
C 	C 	0.71440 0.27320 -0.00000 0.16000
C 	C 	0.70630 0.24810 -0.00000 0.00400
O 	O 	0.22216 0.53968 -0.00000 -1.09100
O 	O 	0.27268 0.53219 -0.00000 -1.40900
O 	O 	0.01780 0.04340 -0.00000 -1.63300
C 	C 	0.25290 0.59070 -0.00000 0.41200
C 	C 	0.26170 0.62110 -0.00000 -0.09400
C 	C 	0.27320 0.67510 -0.00000 0.15600
C 	C 	0.27830 0.70370 -0.00000 -0.04000
C 	C 	0.28560 0.72680 -0.00000 0.16000
C 	C 	0.29370 0.75190 -0.00000 0.00400
O 	O 	-0.00000 0.22216 0.46032 -1.09100
O 	O 	-0.00000 0.27268 0.46781 -1.40900
O 	O 	-0.00000 0.01780 0.95660 -1.63300
C 	C 	-0.00000 0.25290 0.40930 0.41200
C 	C 	-0.00000 0.26170 0.37890 -0.09400
C 	C 	-0.00000 0.27320 0.32490 0.15600
C 	C 	-0.00000 0.27830 0.29630 -0.04000
C 	C 	-0.00000 0.28560 0.27320 0.16000
C 	C 	-0.00000 0.29370 0.24810 0.00400
O 	O 	0.00000 0.77784 0.53968 -1.09100
O 	O 	-0.00000 0.72732 0.53219 -1.40900
O 	O 	-0.00000 0.98220 0.04340 -1.63300
C 	C 	-0.00000 0.74710 0.59070 0.41200
C 	C 	-0.00000 0.73830 0.62110 -0.09400
C 	C 	-0.00000 0.72680 0.67510 0.15600
C 	C 	-0.00000 0.72170 0.70370 -0.04000
C 	C 	0.00000 0.71440 0.72680 0.16000
C 	C 	-0.00000 0.70630 0.75190 0.00400
O 	O 	0.00000 0.77784 0.46032 -1.09100
O 	O 	-0.00000 0.72732 0.46781 -1.40900
O 	O 	0.00000 0.98220 0.95660 -1.63200
C 	C 	-0.00000 0.74710 0.40930 0.41200
C 	C 	-0.00000 0.73830 0.37890 -0.09400
C 	C 	-0.00000 0.72680 0.32490 0.15600
C 	C 	-0.00000 0.72170 0.29630 -0.04000
C 	C 	-0.00000 0.71440 0.27320 0.16000
C 	C 	-0.00000 0.70630 0.24810 0.00400
O 	O 	-0.00000 0.22216 0.53968 -1.09100
O 	O 	-0.00000 0.27268 0.53219 -1.40900
O 	O 	-0.00000 0.01780 0.04340 -1.63300
C 	C 	-0.00000 0.25290 0.59070 0.41200
C 	C 	-0.00000 0.26170 0.62110 -0.09400
C 	C 	-0.00000 0.27320 0.67510 0.15600
C 	C 	-0.00000 0.27830 0.70370 -0.04000
C 	C 	0.00000 0.28560 0.72680 0.16000
C 	C 	-0.00000 0.29370 0.75190 0.00400
O 	O 	0.46032 0.00000 0.22216 -1.09100
O 	O 	0.46781 0.00000 0.27268 -1.40900
O 	O 	0.95660 -0.00000 0.01780 -1.63300
C 	C 	0.40930 -0.00000 0.25290 0.41200
C 	C 	0.37890 0.00000 0.26170 -0.09400
C 	C 	0.32490 0.00000 0.27320 0.15600
C 	C 	0.29630 -0.00000 0.27830 -0.04000
C 	C 	0.27320 -0.00000 0.28560 0.16000
C 	C 	0.24810 -0.00000 0.29370 0.00400
O 	O 	0.53968 -0.00000 0.77784 -1.09100
O 	O 	0.53219 -0.00000 0.72732 -1.40900
O 	O 	0.04340 0.00000 0.98220 -1.63300
C 	C 	0.59070 -0.00000 0.74710 0.41200
C 	C 	0.62110 -0.00000 0.73830 -0.09400
C 	C 	0.67510 0.00000 0.72680 0.15600
C 	C 	0.70370 -0.00000 0.72170 -0.04000
C 	C 	0.72680 -0.00000 0.71440 0.16000
C 	C 	0.75190 0.00000 0.70630 0.00400
O 	O 	0.46032 -0.00000 0.77784 -1.09100
O 	O 	0.46781 -0.00000 0.72732 -1.40900
O 	O 	0.95660 0.00000 0.98220 -1.63200
C 	C 	0.40930 -0.00000 0.74710 0.41200
C 	C 	0.37890 -0.00000 0.73830 -0.09400
C 	C 	0.32490 0.00000 0.72680 0.15600
C 	C 	0.29630 -0.00000 0.72170 -0.04000
C 	C 	0.27320 -0.00000 0.71440 0.16000
C 	C 	0.24810 0.00000 0.70630 0.00400
O 	O 	0.53968 0.00000 0.22216 -1.09100
O 	O 	0.53219 0.00000 0.27268 -1.40900
O 	O 	0.04340 -0.00000 0.01780 -1.63300
C 	C 	0.59070 -0.00000 0.25290 0.41200
C 	C 	0.62110 0.00000 0.26170 -0.09400
C 	C 	0.67510 0.00000 0.27320 0.15600
C 	C 	0.70370 -0.00000 0.27830 -0.04000
C 	C 	0.72680 -0.00000 0.28560 0.16000
C 	C 	0.75190 -0.00000 0.29370 0.00400
O 	O 	0.96032 0.72216 0.50000 -1.09100
O 	O 	0.96781 0.77268 0.50000 -1.40900
O 	O 	0.45660 0.51780 0.50000 -1.63300
C 	C 	0.90930 0.75290 0.50000 0.41200
C 	C 	0.87890 0.76170 0.50000 -0.09400
C 	C 	0.82490 0.77320 0.50000 0.15600
C 	C 	0.79630 0.77830 0.50000 -0.04000
C 	C 	0.77320 0.78560 0.50000 0.16000
C 	C 	0.74810 0.79370 0.50000 0.00400
O 	O 	0.03968 0.27784 0.50000 -1.09100
O 	O 	0.03219 0.22732 0.50000 -1.40900
O 	O 	0.54340 0.48220 0.50000 -1.63300
C 	C 	0.09070 0.24710 0.50000 0.41200
C 	C 	0.12110 0.23830 0.50000 -0.09400
C 	C 	0.17510 0.22680 0.50000 0.15600
C 	C 	0.20370 0.22170 0.50000 -0.04000
C 	C 	0.22680 0.21440 0.50000 0.16000
C 	C 	0.25190 0.20630 0.50000 0.00400
O 	O 	0.96032 0.27784 0.50000 -1.09100
O 	O 	0.96781 0.22732 0.50000 -1.40900
O 	O 	0.45660 0.48220 0.50000 -1.63300
C 	C 	0.90930 0.24710 0.50000 0.41200
C 	C 	0.87890 0.23830 0.50000 -0.09400
C 	C 	0.82490 0.22680 0.50000 0.15600
C 	C 	0.79630 0.22170 0.50000 -0.04000
C 	C 	0.77320 0.21440 0.50000 0.16000
C 	C 	0.74810 0.20630 0.50000 0.00400
O 	O 	0.03968 0.72216 0.50000 -1.09100
O 	O 	0.03219 0.77268 0.50000 -1.40900
O 	O 	0.54340 0.51780 0.50000 -1.63300
C 	C 	0.09070 0.75290 0.50000 0.41200
C 	C 	0.12110 0.76170 0.50000 -0.09400
C 	C 	0.17510 0.77320 0.50000 0.15600
C 	C 	0.20370 0.77830 0.50000 -0.04000
C 	C 	0.22680 0.78560 0.50000 0.16000
C 	C 	0.25190 0.79370 0.50000 0.00400
O 	O 	0.72216 0.50000 0.03968 -1.09100
O 	O 	0.77268 0.50000 0.03219 -1.40900
O 	O 	0.51780 0.50000 0.54340 -1.63300
C 	C 	0.75290 0.50000 0.09070 0.41200
C 	C 	0.76170 0.50000 0.12110 -0.09400
C 	C 	0.77320 0.50000 0.17510 0.15600
C 	C 	0.77830 0.50000 0.20370 -0.04000
C 	C 	0.78560 0.50000 0.22680 0.16000
C 	C 	0.79370 0.50000 0.25190 0.00400
O 	O 	0.27784 0.50000 0.96032 -1.09100
O 	O 	0.22732 0.50000 0.96781 -1.40900
O 	O 	0.48220 0.50000 0.45660 -1.63300
C 	C 	0.24710 0.50000 0.90930 0.41200
C 	C 	0.23830 0.50000 0.87890 -0.09400
C 	C 	0.22680 0.50000 0.82490 0.15600
C 	C 	0.22170 0.50000 0.79630 -0.04000
C 	C 	0.21440 0.50000 0.77320 0.16000
C 	C 	0.20630 0.50000 0.74810 0.00400
O 	O 	0.27784 0.50000 0.03968 -1.09100
O 	O 	0.22732 0.50000 0.03219 -1.40900
O 	O 	0.48220 0.50000 0.54340 -1.63300
C 	C 	0.24710 0.50000 0.09070 0.41200
C 	C 	0.23830 0.50000 0.12110 -0.09400
C 	C 	0.22680 0.50000 0.17510 0.15600
C 	C 	0.22170 0.50000 0.20370 -0.04000
C 	C 	0.21440 0.50000 0.22680 0.16000
C 	C 	0.20630 0.50000 0.25190 0.00400
O 	O 	0.72216 0.50000 0.96032 -1.09100
O 	O 	0.77268 0.50000 0.96781 -1.40900
O 	O 	0.51780 0.50000 0.45660 -1.63300
C 	C 	0.75290 0.50000 0.90930 0.41200
C 	C 	0.76170 0.50000 0.87890 -0.09400
C 	C 	0.77320 0.50000 0.82490 0.15600
C 	C 	0.77830 0.50000 0.79630 -0.04000
C 	C 	0.78560 0.50000 0.77320 0.16000
C 	C 	0.79370 0.50000 0.74810 0.00400
O 	O 	0.50000 0.96032 0.27784 -1.09100
O 	O 	0.50000 0.96781 0.22732 -1.40900
O 	O 	0.50000 0.45660 0.48220 -1.63300
C 	C 	0.50000 0.90930 0.24710 0.41200
C 	C 	0.50000 0.87890 0.23830 -0.09400
C 	C 	0.50000 0.82490 0.22680 0.15600
C 	C 	0.50000 0.79630 0.22170 -0.04000
C 	C 	0.50000 0.77320 0.21440 0.16000
C 	C 	0.50000 0.74810 0.20630 0.00400
O 	O 	0.50000 0.03968 0.72216 -1.09100
O 	O 	0.50000 0.03219 0.77268 -1.40900
O 	O 	0.50000 0.54340 0.51780 -1.63300
C 	C 	0.50000 0.09070 0.75290 0.41200
C 	C 	0.50000 0.12110 0.76170 -0.09400
C 	C 	0.50000 0.17510 0.77320 0.15600
C 	C 	0.50000 0.20370 0.77830 -0.04000
C 	C 	0.50000 0.22680 0.78560 0.16000
C 	C 	0.50000 0.25190 0.79370 0.00400
O 	O 	0.50000 0.96032 0.72216 -1.09100
O 	O 	0.50000 0.96781 0.77268 -1.40900
O 	O 	0.50000 0.45660 0.51780 -1.63300
C 	C 	0.50000 0.90930 0.75290 0.41200
C 	C 	0.50000 0.87890 0.76170 -0.09400
C 	C 	0.50000 0.82490 0.77320 0.15600
C 	C 	0.50000 0.79630 0.77830 -0.04000
C 	C 	0.50000 0.77320 0.78560 0.16000
C 	C 	0.50000 0.74810 0.79370 0.00400
O 	O 	0.50000 0.03968 0.27784 -1.09100
O 	O 	0.50000 0.03219 0.22732 -1.40900
O 	O 	0.50000 0.54340 0.48220 -1.63300
C 	C 	0.50000 0.09070 0.24710 0.41200
C 	C 	0.50000 0.12110 0.23830 -0.09400
C 	C 	0.50000 0.17510 0.22680 0.15600
C 	C 	0.50000 0.20370 0.22170 -0.04000
C 	C 	0.50000 0.22680 0.21440 0.16000
C 	C 	0.50000 0.25190 0.20630 0.00400
C 	C 	-0.00000 0.71620 0.14760 -1.00600
C 	C 	-0.00000 0.77570 0.12910 0.07100
C 	C 	-0.00000 0.80190 0.11510 0.13400
C 	C 	0.00000 0.82090 0.10000 -0.02700
C 	C 	-0.00000 0.84710 0.08570 0.17200
C 	C 	-0.00000 0.89950 0.06430 -0.12800
C 	C 	-0.00000 0.92740 0.05320 0.47300
C 	C 	-0.00000 0.69320 0.18860 -0.76500
B 	B 	-0.00000 0.68730 0.15570 2.05500
C 	C 	-0.00000 0.28380 0.14760 -1.00600
C 	C 	-0.00000 0.22430 0.12910 0.07100
C 	C 	-0.00000 0.19810 0.11510 0.13400
C 	C 	-0.00000 0.17910 0.10000 -0.02700
C 	C 	0.00000 0.15290 0.08570 0.17200
C 	C 	-0.00000 0.10050 0.06430 -0.12800
C 	C 	-0.00000 0.07260 0.05320 0.47300
C 	C 	-0.00000 0.30680 0.18860 -0.76500
B 	B 	-0.00000 0.31270 0.15570 2.05500
C 	C 	-0.00000 0.71620 0.85240 -1.00600
C 	C 	-0.00000 0.77570 0.87090 0.07100
C 	C 	-0.00000 0.80190 0.88490 0.13400
C 	C 	0.00000 0.82090 0.90000 -0.02700
C 	C 	-0.00000 0.84710 0.91430 0.17200
C 	C 	-0.00000 0.89950 0.93570 -0.12800
C 	C 	-0.00000 0.92740 0.94680 0.47300
C 	C 	-0.00000 0.69320 0.81140 -0.76500
B 	B 	0.00000 0.68730 0.84430 2.05500
C 	C 	-0.00000 0.28380 0.85240 -1.00600
C 	C 	0.00000 0.22430 0.87090 0.07100
C 	C 	-0.00000 0.19810 0.88490 0.13400
C 	C 	-0.00000 0.17910 0.90000 -0.02700
C 	C 	-0.00000 0.15290 0.91430 0.17200
C 	C 	-0.00000 0.10050 0.93570 -0.12800
C 	C 	-0.00000 0.07260 0.94680 0.47300
C 	C 	-0.00000 0.30680 0.81140 -0.76500
B 	B 	-0.00000 0.31270 0.84430 2.05500
C 	C 	0.14760 -0.00000 0.71620 -1.00600
C 	C 	0.12910 -0.00000 0.77570 0.07100
C 	C 	0.11510 -0.00000 0.80190 0.13400
C 	C 	0.10000 0.00000 0.82090 -0.02700
C 	C 	0.08570 -0.00000 0.84710 0.17200
C 	C 	0.06430 -0.00000 0.89950 -0.12800
C 	C 	0.05320 -0.00000 0.92740 0.47300
C 	C 	0.18860 -0.00000 0.69320 -0.76500
B 	B 	0.15570 -0.00000 0.68730 2.05500
C 	C 	0.14760 -0.00000 0.28380 -1.00600
C 	C 	0.12910 0.00000 0.22430 0.07100
C 	C 	0.11510 -0.00000 0.19810 0.13400
C 	C 	0.10000 -0.00000 0.17910 -0.02700
C 	C 	0.08570 0.00000 0.15290 0.17200
C 	C 	0.06430 -0.00000 0.10050 -0.12800
C 	C 	0.05320 -0.00000 0.07260 0.47300
C 	C 	0.18860 0.00000 0.30680 -0.76500
B 	B 	0.15570 -0.00000 0.31270 2.05500
C 	C 	0.85240 -0.00000 0.71620 -1.00600
C 	C 	0.87090 -0.00000 0.77570 0.07100
C 	C 	0.88490 -0.00000 0.80190 0.13400
C 	C 	0.90000 0.00000 0.82090 -0.02700
C 	C 	0.91430 -0.00000 0.84710 0.17200
C 	C 	0.93570 -0.00000 0.89950 -0.12800
C 	C 	0.94680 -0.00000 0.92740 0.47300
C 	C 	0.81140 -0.00000 0.69320 -0.76500
B 	B 	0.84430 -0.00000 0.68730 2.05500
C 	C 	0.85240 -0.00000 0.28380 -1.00600
C 	C 	0.87090 0.00000 0.22430 0.07100
C 	C 	0.88490 -0.00000 0.19810 0.13400
C 	C 	0.90000 -0.00000 0.17910 -0.02700
C 	C 	0.91430 0.00000 0.15290 0.17200
C 	C 	0.93570 -0.00000 0.10050 -0.12800
C 	C 	0.94680 -0.00000 0.07260 0.47300
C 	C 	0.81140 0.00000 0.30680 -0.76500
B 	B 	0.84430 -0.00000 0.31270 2.05500
C 	C 	0.71620 0.14760 -0.00000 -1.00600
C 	C 	0.77570 0.12910 -0.00000 0.07100
C 	C 	0.80190 0.11510 -0.00000 0.13400
C 	C 	0.82090 0.10000 -0.00000 -0.02700
C 	C 	0.84710 0.08570 -0.00000 0.17200
C 	C 	0.89950 0.06430 -0.00000 -0.12800
C 	C 	0.92740 0.05320 -0.00000 0.47300
C 	C 	0.69320 0.18860 -0.00000 -0.76500
B 	B 	0.68730 0.15570 -0.00000 2.05500
C 	C 	0.28380 0.14760 -0.00000 -1.00600
C 	C 	0.22430 0.12910 -0.00000 0.07100
C 	C 	0.19810 0.11510 -0.00000 0.13400
C 	C 	0.17910 0.10000 -0.00000 -0.02700
C 	C 	0.15290 0.08570 -0.00000 0.17200
C 	C 	0.10050 0.06430 -0.00000 -0.12800
C 	C 	0.07260 0.05320 -0.00000 0.47300
C 	C 	0.30680 0.18860 -0.00000 -0.76500
B 	B 	0.31270 0.15570 -0.00000 2.05500
C 	C 	0.71620 0.85240 -0.00000 -1.00600
C 	C 	0.77570 0.87090 -0.00000 0.07100
C 	C 	0.80190 0.88490 -0.00000 0.13400
C 	C 	0.82090 0.90000 -0.00000 -0.02700
C 	C 	0.84710 0.91430 -0.00000 0.17200
C 	C 	0.89950 0.93570 -0.00000 -0.12800
C 	C 	0.92740 0.94680 -0.00000 0.47300
C 	C 	0.69320 0.81140 -0.00000 -0.76500
B 	B 	0.68730 0.84430 -0.00000 2.05500
C 	C 	0.28380 0.85240 -0.00000 -1.00600
C 	C 	0.22430 0.87090 -0.00000 0.07100
C 	C 	0.19810 0.88490 -0.00000 0.13400
C 	C 	0.17910 0.90000 -0.00000 -0.02700
C 	C 	0.15290 0.91430 -0.00000 0.17200
C 	C 	0.10050 0.93570 -0.00000 -0.12800
C 	C 	0.07260 0.94680 -0.00000 0.47300
C 	C 	0.30680 0.81140 -0.00000 -0.76500
B 	B 	0.31270 0.84430 -0.00000 2.05500
C 	C 	0.21620 0.50000 0.35240 -1.00600
C 	C 	0.27570 0.50000 0.37090 0.07100
C 	C 	0.30190 0.50000 0.38490 0.13400
C 	C 	0.32090 0.50000 0.40000 -0.02700
C 	C 	0.34710 0.50000 0.41430 0.17200
C 	C 	0.39950 0.50000 0.43570 -0.12800
C 	C 	0.42740 0.50000 0.44680 0.47300
C 	C 	0.19320 0.50000 0.31140 -0.76500
B 	B 	0.18730 0.50000 0.34430 2.05500
C 	C 	0.78380 0.50000 0.35240 -1.00600
C 	C 	0.72430 0.50000 0.37090 0.07100
C 	C 	0.69810 0.50000 0.38490 0.13400
C 	C 	0.67910 0.50000 0.40000 -0.02700
C 	C 	0.65290 0.50000 0.41430 0.17200
C 	C 	0.60050 0.50000 0.43570 -0.12800
C 	C 	0.57260 0.50000 0.44680 0.47300
C 	C 	0.80680 0.50000 0.31140 -0.76500
B 	B 	0.81270 0.50000 0.34430 2.05500
C 	C 	0.21620 0.50000 0.64760 -1.00600
C 	C 	0.27570 0.50000 0.62910 0.07100
C 	C 	0.30190 0.50000 0.61510 0.13400
C 	C 	0.32090 0.50000 0.60000 -0.02700
C 	C 	0.34710 0.50000 0.58570 0.17200
C 	C 	0.39950 0.50000 0.56430 -0.12800
C 	C 	0.42740 0.50000 0.55320 0.47300
C 	C 	0.19320 0.50000 0.68860 -0.76500
B 	B 	0.18730 0.50000 0.65570 2.05500
C 	C 	0.78380 0.50000 0.64760 -1.00600
C 	C 	0.72430 0.50000 0.62910 0.07100
C 	C 	0.69810 0.50000 0.61510 0.13400
C 	C 	0.67910 0.50000 0.60000 -0.02700
C 	C 	0.65290 0.50000 0.58570 0.17200
C 	C 	0.60050 0.50000 0.56430 -0.12800
C 	C 	0.57260 0.50000 0.55320 0.47300
C 	C 	0.80680 0.50000 0.68860 -0.76500
B 	B 	0.81270 0.50000 0.65570 2.05500
C 	C 	0.50000 0.64760 0.78380 -1.00600
C 	C 	0.50000 0.62910 0.72430 0.07100
C 	C 	0.50000 0.61510 0.69810 0.13400
C 	C 	0.50000 0.60000 0.67910 -0.02700
C 	C 	0.50000 0.58570 0.65290 0.17200
C 	C 	0.50000 0.56430 0.60050 -0.12800
C 	C 	0.50000 0.55320 0.57260 0.47300
C 	C 	0.50000 0.68860 0.80680 -0.76500
B 	B 	0.50000 0.65570 0.81270 2.05500
C 	C 	0.50000 0.64760 0.21620 -1.00600
C 	C 	0.50000 0.62910 0.27570 0.07100
C 	C 	0.50000 0.61510 0.30190 0.13400
C 	C 	0.50000 0.60000 0.32090 -0.02700
C 	C 	0.50000 0.58570 0.34710 0.17200
C 	C 	0.50000 0.56430 0.39950 -0.12800
C 	C 	0.50000 0.55320 0.42740 0.47300
C 	C 	0.50000 0.68860 0.19320 -0.76500
B 	B 	0.50000 0.65570 0.18730 2.05500
C 	C 	0.50000 0.35240 0.78380 -1.00600
C 	C 	0.50000 0.37090 0.72430 0.07100
C 	C 	0.50000 0.38490 0.69810 0.13400
C 	C 	0.50000 0.40000 0.67910 -0.02700
C 	C 	0.50000 0.41430 0.65290 0.17200
C 	C 	0.50000 0.43570 0.60050 -0.12800
C 	C 	0.50000 0.44680 0.57260 0.47300
C 	C 	0.50000 0.31140 0.80680 -0.76500
B 	B 	0.50000 0.34430 0.81270 2.05500
C 	C 	0.50000 0.35240 0.21620 -1.00600
C 	C 	0.50000 0.37090 0.27570 0.07100
C 	C 	0.50000 0.38490 0.30190 0.13400
C 	C 	0.50000 0.40000 0.32090 -0.02700
C 	C 	0.50000 0.41430 0.34710 0.17200
C 	C 	0.50000 0.43570 0.39950 -0.12800
C 	C 	0.50000 0.44680 0.42740 0.47300
C 	C 	0.50000 0.31140 0.19320 -0.76500
B 	B 	0.50000 0.34430 0.18730 2.05500
C 	C 	0.64760 0.21620 0.50000 -1.00600
C 	C 	0.62910 0.27570 0.50000 0.07100
C 	C 	0.61510 0.30190 0.50000 0.13400
C 	C 	0.60000 0.32090 0.50000 -0.02700
C 	C 	0.58570 0.34710 0.50000 0.17200
C 	C 	0.56430 0.39950 0.50000 -0.12800
C 	C 	0.55320 0.42740 0.50000 0.47300
C 	C 	0.68860 0.19320 0.50000 -0.76500
B 	B 	0.65570 0.18730 0.50000 2.05500
C 	C 	0.64760 0.78380 0.50000 -1.00600
C 	C 	0.62910 0.72430 0.50000 0.07100
C 	C 	0.61510 0.69810 0.50000 0.13400
C 	C 	0.60000 0.67910 0.50000 -0.02700
C 	C 	0.58570 0.65290 0.50000 0.17200
C 	C 	0.56430 0.60050 0.50000 -0.12800
C 	C 	0.55320 0.57260 0.50000 0.47300
C 	C 	0.68860 0.80680 0.50000 -0.76500
B 	B 	0.65570 0.81270 0.50000 2.05500
C 	C 	0.35240 0.21620 0.50000 -1.00600
C 	C 	0.37090 0.27570 0.50000 0.07100
C 	C 	0.38490 0.30190 0.50000 0.13400
C 	C 	0.40000 0.32090 0.50000 -0.02700
C 	C 	0.41430 0.34710 0.50000 0.17200
C 	C 	0.43570 0.39950 0.50000 -0.12800
C 	C 	0.44680 0.42740 0.50000 0.47300
C 	C 	0.31140 0.19320 0.50000 -0.76500
B 	B 	0.34430 0.18730 0.50000 2.05500
C 	C 	0.35240 0.78380 0.50000 -1.00600
C 	C 	0.37090 0.72430 0.50000 0.07100
C 	C 	0.38490 0.69810 0.50000 0.13400
C 	C 	0.40000 0.67910 0.50000 -0.02700
C 	C 	0.41430 0.65290 0.50000 0.17200
C 	C 	0.43570 0.60050 0.50000 -0.12800
C 	C 	0.44680 0.57260 0.50000 0.47300
C 	C 	0.31140 0.80680 0.50000 -0.76500
B 	B 	0.34430 0.81270 0.50000 2.05500
