data_crystal

_cell_length_a 27.37300
_cell_length_b 27.37300
_cell_length_c 18.58270
_cell_angle_alpha 90.00000
_cell_angle_beta  90.00000
_cell_angle_gamma 90.00000

_symmetry_space_group_name_	'P 1'
_symmetry_space_group_name_H-M	'P 1'

loop_
_symmetry_equiv_pos_as_xyz
  x,y,z

loop_
_atom_site_label
_atom_site_type_symbol
_atom_site_fract_x
_atom_site_fract_y
_atom_site_fract_z
_atom_site_charge
Zn	Zn	0.26412 0.10989 0.42238 1.15100
Zn	Zn	0.26369 0.10911 0.74412 1.15000
N 	N 	0.31930 0.12810 0.80470 -0.29400
C 	C 	0.32550 0.17050 0.83580 0.07700
H 	H 	0.30090 0.19500 0.83660 -0.04700
N 	N 	0.37040 0.17690 0.86710 -0.29000
C 	C 	0.39640 0.13570 0.84980 -0.00700
H 	H 	0.42950 0.12910 0.86190 -0.00700
C 	C 	0.36590 0.10620 0.81220 -0.02000
H 	H 	0.37460 0.07510 0.79340 -0.00300
N 	N 	0.28020 0.12510 0.63340 -0.49300
C 	C 	0.26050 0.10150 0.57190 0.13700
H 	H 	0.23730 0.07560 0.57220 -0.10700
N 	N 	0.28150 0.12330 0.50980 0.27000
C 	C 	0.31420 0.16040 0.53300 0.03500
H 	H 	0.33320 0.18090 0.50280 -0.01500
C 	C 	0.31340 0.16150 0.60940 -0.09300
H 	H 	0.33180 0.18280 0.63920 0.03500
N 	N 	0.28170 0.12110 0.65180 0.20000
C 	C 	0.25750 0.10780 0.58710 0.02400
H 	H 	0.22870 0.08850 0.58360 -0.01200
N 	N 	0.28390 0.12820 0.52860 -0.59600
C 	C 	0.32440 0.15420 0.55720 0.09700
H 	H 	0.34830 0.17140 0.53010 -0.02900
C 	C 	0.32310 0.14980 0.63330 0.04900
H 	H 	0.34580 0.16370 0.66610 -0.04000
N 	N 	0.20507 0.14923 0.77920 -0.26700
C 	C 	0.18460 0.14650 0.84490 -0.00500
H 	H 	0.19280 0.12480 0.88290 -0.00200
N 	N 	0.23670 0.04090 0.76360 -0.90400
C 	C 	0.26810 0.00240 0.74120 -0.06800
H 	H 	0.30160 0.00560 0.72890 -0.00600
N 	N 	0.24050 0.95850 0.74050 0.63900
C 	C 	0.19210 0.96980 0.76240 0.01500
H 	H 	0.16590 0.94720 0.76670 -0.03200
C 	C 	0.18980 0.02070 0.77670 0.06000
H 	H 	0.16170 0.03810 0.79230 0.00200
N 	N 	0.25690 0.03910 0.39890 -0.18500
C 	C 	0.25970 0.99510 0.43920 0.00900
H 	H 	0.25920 0.99240 0.49010 -0.02600
N 	N 	0.26350 0.95560 0.38980 -0.08600
C 	C 	0.26300 0.97530 0.31910 -0.00600
H 	H 	0.26500 0.95710 0.27560 -0.02700
C 	C 	0.25890 0.02680 0.32470 -0.02600
H 	H 	0.25770 0.04920 0.28570 0.03200
N 	N 	0.20510 0.14290 0.39010 0.31700
C 	C 	0.19210 0.18430 0.43190 0.11200
H 	H 	0.20420 0.19210 0.47840 -0.04800
N 	N 	0.15770 0.21210 0.39200 -0.62500
C 	C 	0.14950 0.18790 0.32550 -0.07500
H 	H 	0.12810 0.19850 0.28830 0.01700
C 	C 	0.17880 0.14510 0.32430 0.01300
H 	H 	0.18050 0.12210 0.28620 -0.00900
Zn	Zn	0.76412 0.60989 0.92238 1.14100
Zn	Zn	0.76369 0.60911 0.24412 1.15100
N 	N 	0.81930 0.62810 0.30470 -0.29300
C 	C 	0.82550 0.67050 0.33580 0.08300
H 	H 	0.80090 0.69500 0.33660 -0.04400
N 	N 	0.87040 0.67690 0.36710 -0.28500
C 	C 	0.89640 0.63570 0.34980 -0.00200
H 	H 	0.92950 0.62910 0.36190 -0.00100
C 	C 	0.86590 0.60620 0.31220 -0.01600
H 	H 	0.87460 0.57510 0.29340 0.00100
N 	N 	0.78020 0.62510 0.13340 -0.49100
C 	C 	0.76050 0.60150 0.07190 0.14100
H 	H 	0.73730 0.57560 0.07220 -0.08200
N 	N 	0.78150 0.62330 0.00980 0.24100
C 	C 	0.81420 0.66040 0.03300 0.03800
H 	H 	0.83320 0.68090 0.00280 0.00300
C 	C 	0.81340 0.66150 0.10940 -0.09400
H 	H 	0.83180 0.68280 0.13920 0.03700
N 	N 	0.78170 0.62110 0.15180 0.19800
C 	C 	0.75750 0.60780 0.08710 0.02200
H 	H 	0.72870 0.58850 0.08360 -0.02400
N 	N 	0.78390 0.62820 0.02860 -0.54700
C 	C 	0.82440 0.65420 0.05720 0.09300
H 	H 	0.84830 0.67140 0.03010 -0.02400
C 	C 	0.82310 0.64980 0.13330 0.05500
H 	H 	0.84580 0.66370 0.16610 -0.04000
N 	N 	0.70507 0.64923 0.27920 -0.26600
C 	C 	0.68460 0.64650 0.34490 -0.00200
H 	H 	0.69280 0.62480 0.38290 0.00600
N 	N 	0.73670 0.54090 0.26360 -0.90200
C 	C 	0.76810 0.50240 0.24120 -0.06700
H 	H 	0.80160 0.50560 0.22890 -0.00500
N 	N 	0.74050 0.45850 0.24050 0.63800
C 	C 	0.69210 0.46980 0.26240 0.01600
H 	H 	0.66590 0.44720 0.26670 -0.03000
C 	C 	0.68980 0.52070 0.27670 0.06100
H 	H 	0.66170 0.53810 0.29230 0.00600
N 	N 	0.75690 0.53910 0.89890 -0.18700
C 	C 	0.75970 0.49510 0.93920 0.00400
H 	H 	0.75920 0.49240 0.99010 -0.03700
N 	N 	0.76350 0.45560 0.88980 -0.09100
C 	C 	0.76300 0.47530 0.81910 -0.00800
H 	H 	0.76500 0.45710 0.77560 -0.02800
C 	C 	0.75890 0.52680 0.82470 -0.02700
H 	H 	0.75770 0.54920 0.78570 0.02800
N 	N 	0.70510 0.64290 0.89010 0.34100
C 	C 	0.69210 0.68430 0.93190 0.11500
H 	H 	0.70420 0.69210 0.97840 -0.06100
N 	N 	0.65770 0.71210 0.89200 -0.65700
C 	C 	0.64950 0.68790 0.82550 -0.07800
H 	H 	0.62810 0.69850 0.78830 0.02200
C 	C 	0.67880 0.64510 0.82430 0.01100
H 	H 	0.68050 0.62210 0.78620 -0.01900
Zn	Zn	0.73588 0.89011 0.42238 1.15000
Zn	Zn	0.73631 0.89089 0.74412 1.14900
N 	N 	0.68070 0.87190 0.80470 -0.29500
C 	C 	0.67450 0.82950 0.83580 0.07600
H 	H 	0.69910 0.80500 0.83660 -0.04800
N 	N 	0.62960 0.82310 0.86710 -0.29100
C 	C 	0.60360 0.86430 0.84980 -0.00800
H 	H 	0.57050 0.87090 0.86190 -0.00800
C 	C 	0.63410 0.89380 0.81220 -0.02100
H 	H 	0.62540 0.92490 0.79340 -0.00400
N 	N 	0.71980 0.87490 0.63340 -0.49400
C 	C 	0.73950 0.89850 0.57190 0.13600
H 	H 	0.76270 0.92440 0.57220 -0.10800
N 	N 	0.71850 0.87670 0.50980 0.26900
C 	C 	0.68580 0.83960 0.53300 0.03400
H 	H 	0.66680 0.81910 0.50280 -0.01600
C 	C 	0.68660 0.83850 0.60940 -0.09400
H 	H 	0.66820 0.81720 0.63920 0.03400
N 	N 	0.71830 0.87890 0.65180 0.19900
C 	C 	0.74250 0.89220 0.58710 0.02300
H 	H 	0.77130 0.91150 0.58360 -0.01300
N 	N 	0.71610 0.87180 0.52860 -0.59700
C 	C 	0.67560 0.84580 0.55720 0.09600
H 	H 	0.65170 0.82860 0.53010 -0.03000
C 	C 	0.67690 0.85020 0.63330 0.04800
H 	H 	0.65420 0.83630 0.66610 -0.04100
N 	N 	0.79493 0.85077 0.77920 -0.26800
C 	C 	0.81540 0.85350 0.84490 -0.00600
H 	H 	0.80720 0.87520 0.88290 -0.00300
N 	N 	0.76330 0.95910 0.76360 -0.90500
C 	C 	0.73190 0.99760 0.74120 -0.06900
H 	H 	0.69840 0.99440 0.72890 -0.00700
N 	N 	0.75950 0.04150 0.74050 0.63800
C 	C 	0.80790 0.03020 0.76240 0.01400
H 	H 	0.83410 0.05280 0.76670 -0.03300
C 	C 	0.81020 0.97930 0.77670 0.05900
H 	H 	0.83830 0.96190 0.79230 0.00200
N 	N 	0.74310 0.96090 0.39890 -0.18500
C 	C 	0.74030 0.00490 0.43920 0.00900
H 	H 	0.74080 0.00760 0.49010 -0.02600
N 	N 	0.73650 0.04440 0.38980 -0.08600
C 	C 	0.73700 0.02470 0.31910 -0.00600
H 	H 	0.73500 0.04290 0.27560 -0.02700
C 	C 	0.74110 0.97320 0.32470 -0.02600
H 	H 	0.74230 0.95080 0.28570 0.03200
N 	N 	0.79490 0.85710 0.39010 0.31700
C 	C 	0.80790 0.81570 0.43190 0.11200
H 	H 	0.79580 0.80790 0.47840 -0.04800
N 	N 	0.84230 0.78790 0.39200 -0.62500
C 	C 	0.85050 0.81210 0.32550 -0.07500
H 	H 	0.87190 0.80150 0.28830 0.01700
C 	C 	0.82120 0.85490 0.32430 0.01300
H 	H 	0.81950 0.87790 0.28620 -0.00900
Zn	Zn	0.23588 0.39011 0.92238 1.14100
Zn	Zn	0.23631 0.39089 0.24412 1.15100
N 	N 	0.18070 0.37190 0.30470 -0.29300
C 	C 	0.17450 0.32950 0.33580 0.08300
H 	H 	0.19910 0.30500 0.33660 -0.04400
N 	N 	0.12960 0.32310 0.36710 -0.28500
C 	C 	0.10360 0.36430 0.34980 -0.00200
H 	H 	0.07050 0.37090 0.36190 -0.00100
C 	C 	0.13410 0.39380 0.31220 -0.01600
H 	H 	0.12540 0.42490 0.29340 0.00100
N 	N 	0.21980 0.37490 0.13340 -0.49100
C 	C 	0.23950 0.39850 0.07190 0.14100
H 	H 	0.26270 0.42440 0.07220 -0.08200
N 	N 	0.21850 0.37670 0.00980 0.24100
C 	C 	0.18580 0.33960 0.03300 0.03800
H 	H 	0.16680 0.31910 0.00280 0.00300
C 	C 	0.18660 0.33850 0.10940 -0.09400
H 	H 	0.16820 0.31720 0.13920 0.03700
N 	N 	0.21830 0.37890 0.15180 0.19800
C 	C 	0.24250 0.39220 0.08710 0.02200
H 	H 	0.27130 0.41150 0.08360 -0.02400
N 	N 	0.21610 0.37180 0.02860 -0.54700
C 	C 	0.17560 0.34580 0.05720 0.09300
H 	H 	0.15170 0.32860 0.03010 -0.02400
C 	C 	0.17690 0.35020 0.13330 0.05500
H 	H 	0.15420 0.33630 0.16610 -0.04000
N 	N 	0.29493 0.35077 0.27920 -0.26600
C 	C 	0.31540 0.35350 0.34490 -0.00200
H 	H 	0.30720 0.37520 0.38290 0.00600
N 	N 	0.26330 0.45910 0.26360 -0.90200
C 	C 	0.23190 0.49760 0.24120 -0.06700
H 	H 	0.19840 0.49440 0.22890 -0.00500
N 	N 	0.25950 0.54150 0.24050 0.63800
C 	C 	0.30790 0.53020 0.26240 0.01600
H 	H 	0.33410 0.55280 0.26670 -0.03000
C 	C 	0.31020 0.47930 0.27670 0.06100
H 	H 	0.33830 0.46190 0.29230 0.00600
N 	N 	0.24310 0.46090 0.89890 -0.18700
C 	C 	0.24030 0.50490 0.93920 0.00400
H 	H 	0.24080 0.50760 0.99010 -0.03700
N 	N 	0.23650 0.54440 0.88980 -0.09100
C 	C 	0.23700 0.52470 0.81910 -0.00800
H 	H 	0.23500 0.54290 0.77560 -0.02800
C 	C 	0.24110 0.47320 0.82470 -0.02700
H 	H 	0.24230 0.45080 0.78570 0.02800
N 	N 	0.29490 0.35710 0.89010 0.34100
C 	C 	0.30790 0.31570 0.93190 0.11500
H 	H 	0.29580 0.30790 0.97840 -0.06100
N 	N 	0.34230 0.28790 0.89200 -0.65700
C 	C 	0.35050 0.31210 0.82550 -0.07800
H 	H 	0.37190 0.30150 0.78830 0.02200
C 	C 	0.32120 0.35490 0.82430 0.01100
H 	H 	0.31950 0.37790 0.78620 -0.01900
Zn	Zn	0.89011 0.26412 0.42238 1.15000
Zn	Zn	0.89089 0.26369 0.74412 1.14900
N 	N 	0.87190 0.31930 0.80470 -0.29500
C 	C 	0.82950 0.32550 0.83580 0.07600
H 	H 	0.80500 0.30090 0.83660 -0.04800
N 	N 	0.82310 0.37040 0.86710 -0.29100
C 	C 	0.86430 0.39640 0.84980 -0.00800
H 	H 	0.87090 0.42950 0.86190 -0.00800
C 	C 	0.89380 0.36590 0.81220 -0.02100
H 	H 	0.92490 0.37460 0.79340 -0.00400
N 	N 	0.87490 0.28020 0.63340 -0.49400
C 	C 	0.89850 0.26050 0.57190 0.13600
H 	H 	0.92440 0.23730 0.57220 -0.10800
N 	N 	0.87670 0.28150 0.50980 0.26900
C 	C 	0.83960 0.31420 0.53300 0.03400
H 	H 	0.81910 0.33320 0.50280 -0.01600
C 	C 	0.83850 0.31340 0.60940 -0.09400
H 	H 	0.81720 0.33180 0.63920 0.03400
N 	N 	0.87890 0.28170 0.65180 0.19900
C 	C 	0.89220 0.25750 0.58710 0.02300
H 	H 	0.91150 0.22870 0.58360 -0.01300
N 	N 	0.87180 0.28390 0.52860 -0.59700
C 	C 	0.84580 0.32440 0.55720 0.09600
H 	H 	0.82860 0.34830 0.53010 -0.03000
C 	C 	0.85020 0.32310 0.63330 0.04800
H 	H 	0.83630 0.34580 0.66610 -0.04100
N 	N 	0.85077 0.20507 0.77920 -0.26800
C 	C 	0.85350 0.18460 0.84490 -0.00600
H 	H 	0.87520 0.19280 0.88290 -0.00300
N 	N 	0.95910 0.23670 0.76360 -0.90500
C 	C 	0.99760 0.26810 0.74120 -0.06900
H 	H 	0.99440 0.30160 0.72890 -0.00700
N 	N 	0.04150 0.24050 0.74050 0.63800
C 	C 	0.03020 0.19210 0.76240 0.01400
H 	H 	0.05280 0.16590 0.76670 -0.03300
C 	C 	0.97930 0.18980 0.77670 0.05900
H 	H 	0.96190 0.16170 0.79230 0.00200
N 	N 	0.96090 0.25690 0.39890 -0.18500
C 	C 	0.00490 0.25970 0.43920 0.00900
H 	H 	0.00760 0.25920 0.49010 -0.02600
N 	N 	0.04440 0.26350 0.38980 -0.08600
C 	C 	0.02470 0.26300 0.31910 -0.00600
H 	H 	0.04290 0.26500 0.27560 -0.02700
C 	C 	0.97320 0.25890 0.32470 -0.02600
H 	H 	0.95080 0.25770 0.28570 0.03200
N 	N 	0.85710 0.20510 0.39010 0.31700
C 	C 	0.81570 0.19210 0.43190 0.11200
H 	H 	0.80790 0.20420 0.47840 -0.04800
N 	N 	0.78790 0.15770 0.39200 -0.62500
C 	C 	0.81210 0.14950 0.32550 -0.07500
H 	H 	0.80150 0.12810 0.28830 0.01700
C 	C 	0.85490 0.17880 0.32430 0.01300
H 	H 	0.87790 0.18050 0.28620 -0.00900
Zn	Zn	0.39011 0.76412 0.92238 1.14100
Zn	Zn	0.39089 0.76369 0.24412 1.15100
N 	N 	0.37190 0.81930 0.30470 -0.29300
C 	C 	0.32950 0.82550 0.33580 0.08300
H 	H 	0.30500 0.80090 0.33660 -0.04400
N 	N 	0.32310 0.87040 0.36710 -0.28500
C 	C 	0.36430 0.89640 0.34980 -0.00200
H 	H 	0.37090 0.92950 0.36190 -0.00100
C 	C 	0.39380 0.86590 0.31220 -0.01600
H 	H 	0.42490 0.87460 0.29340 0.00100
N 	N 	0.37490 0.78020 0.13340 -0.49100
C 	C 	0.39850 0.76050 0.07190 0.14100
H 	H 	0.42440 0.73730 0.07220 -0.08200
N 	N 	0.37670 0.78150 0.00980 0.24100
C 	C 	0.33960 0.81420 0.03300 0.03800
H 	H 	0.31910 0.83320 0.00280 0.00300
C 	C 	0.33850 0.81340 0.10940 -0.09400
H 	H 	0.31720 0.83180 0.13920 0.03700
N 	N 	0.37890 0.78170 0.15180 0.19800
C 	C 	0.39220 0.75750 0.08710 0.02200
H 	H 	0.41150 0.72870 0.08360 -0.02400
N 	N 	0.37180 0.78390 0.02860 -0.54700
C 	C 	0.34580 0.82440 0.05720 0.09300
H 	H 	0.32860 0.84830 0.03010 -0.02400
C 	C 	0.35020 0.82310 0.13330 0.05500
H 	H 	0.33630 0.84580 0.16610 -0.04000
N 	N 	0.35077 0.70507 0.27920 -0.26600
C 	C 	0.35350 0.68460 0.34490 -0.00200
H 	H 	0.37520 0.69280 0.38290 0.00600
N 	N 	0.45910 0.73670 0.26360 -0.90200
C 	C 	0.49760 0.76810 0.24120 -0.06700
H 	H 	0.49440 0.80160 0.22890 -0.00500
N 	N 	0.54150 0.74050 0.24050 0.63800
C 	C 	0.53020 0.69210 0.26240 0.01600
H 	H 	0.55280 0.66590 0.26670 -0.03000
C 	C 	0.47930 0.68980 0.27670 0.06100
H 	H 	0.46190 0.66170 0.29230 0.00600
N 	N 	0.46090 0.75690 0.89890 -0.18700
C 	C 	0.50490 0.75970 0.93920 0.00400
H 	H 	0.50760 0.75920 0.99010 -0.03700
N 	N 	0.54440 0.76350 0.88980 -0.09100
C 	C 	0.52470 0.76300 0.81910 -0.00800
H 	H 	0.54290 0.76500 0.77560 -0.02800
C 	C 	0.47320 0.75890 0.82470 -0.02700
H 	H 	0.45080 0.75770 0.78570 0.02800
N 	N 	0.35710 0.70510 0.89010 0.34100
C 	C 	0.31570 0.69210 0.93190 0.11500
H 	H 	0.30790 0.70420 0.97840 -0.06100
N 	N 	0.28790 0.65770 0.89200 -0.65700
C 	C 	0.31210 0.64950 0.82550 -0.07800
H 	H 	0.30150 0.62810 0.78830 0.02200
C 	C 	0.35490 0.67880 0.82430 0.01100
H 	H 	0.37790 0.68050 0.78620 -0.01900
Zn	Zn	0.10989 0.73588 0.42238 1.15000
Zn	Zn	0.10911 0.73631 0.74412 1.14900
N 	N 	0.12810 0.68070 0.80470 -0.29500
C 	C 	0.17050 0.67450 0.83580 0.07600
H 	H 	0.19500 0.69910 0.83660 -0.04800
N 	N 	0.17690 0.62960 0.86710 -0.29100
C 	C 	0.13570 0.60360 0.84980 -0.00800
H 	H 	0.12910 0.57050 0.86190 -0.00800
C 	C 	0.10620 0.63410 0.81220 -0.02100
H 	H 	0.07510 0.62540 0.79340 -0.00400
N 	N 	0.12510 0.71980 0.63340 -0.49400
C 	C 	0.10150 0.73950 0.57190 0.13600
H 	H 	0.07560 0.76270 0.57220 -0.10800
N 	N 	0.12330 0.71850 0.50980 0.26900
C 	C 	0.16040 0.68580 0.53300 0.03400
H 	H 	0.18090 0.66680 0.50280 -0.01600
C 	C 	0.16150 0.68660 0.60940 -0.09400
H 	H 	0.18280 0.66820 0.63920 0.03400
N 	N 	0.12110 0.71830 0.65180 0.19900
C 	C 	0.10780 0.74250 0.58710 0.02300
H 	H 	0.08850 0.77130 0.58360 -0.01300
N 	N 	0.12820 0.71610 0.52860 -0.59700
C 	C 	0.15420 0.67560 0.55720 0.09600
H 	H 	0.17140 0.65170 0.53010 -0.03000
C 	C 	0.14980 0.67690 0.63330 0.04800
H 	H 	0.16370 0.65420 0.66610 -0.04100
N 	N 	0.14923 0.79493 0.77920 -0.26800
C 	C 	0.14650 0.81540 0.84490 -0.00600
H 	H 	0.12480 0.80720 0.88290 -0.00300
N 	N 	0.04090 0.76330 0.76360 -0.90500
C 	C 	0.00240 0.73190 0.74120 -0.06900
H 	H 	0.00560 0.69840 0.72890 -0.00700
N 	N 	0.95850 0.75950 0.74050 0.63800
C 	C 	0.96980 0.80790 0.76240 0.01400
H 	H 	0.94720 0.83410 0.76670 -0.03300
C 	C 	0.02070 0.81020 0.77670 0.05900
H 	H 	0.03810 0.83830 0.79230 0.00200
N 	N 	0.03910 0.74310 0.39890 -0.18500
C 	C 	0.99510 0.74030 0.43920 0.00900
H 	H 	0.99240 0.74080 0.49010 -0.02600
N 	N 	0.95560 0.73650 0.38980 -0.08600
C 	C 	0.97530 0.73700 0.31910 -0.00600
H 	H 	0.95710 0.73500 0.27560 -0.02700
C 	C 	0.02680 0.74110 0.32470 -0.02600
H 	H 	0.04920 0.74230 0.28570 0.03200
N 	N 	0.14290 0.79490 0.39010 0.31700
C 	C 	0.18430 0.80790 0.43190 0.11200
H 	H 	0.19210 0.79580 0.47840 -0.04800
N 	N 	0.21210 0.84230 0.39200 -0.62500
C 	C 	0.18790 0.85050 0.32550 -0.07500
H 	H 	0.19850 0.87190 0.28830 0.01700
C 	C 	0.14510 0.82120 0.32430 0.01300
H 	H 	0.12210 0.81950 0.28620 -0.00900
Zn	Zn	0.60989 0.23588 0.92238 1.14100
Zn	Zn	0.60911 0.23631 0.24412 1.15100
N 	N 	0.62810 0.18070 0.30470 -0.29300
C 	C 	0.67050 0.17450 0.33580 0.08300
H 	H 	0.69500 0.19910 0.33660 -0.04400
N 	N 	0.67690 0.12960 0.36710 -0.28500
C 	C 	0.63570 0.10360 0.34980 -0.00200
H 	H 	0.62910 0.07050 0.36190 -0.00100
C 	C 	0.60620 0.13410 0.31220 -0.01600
H 	H 	0.57510 0.12540 0.29340 0.00100
N 	N 	0.62510 0.21980 0.13340 -0.49100
C 	C 	0.60150 0.23950 0.07190 0.14100
H 	H 	0.57560 0.26270 0.07220 -0.08200
N 	N 	0.62330 0.21850 0.00980 0.24100
C 	C 	0.66040 0.18580 0.03300 0.03800
H 	H 	0.68090 0.16680 0.00280 0.00300
C 	C 	0.66150 0.18660 0.10940 -0.09400
H 	H 	0.68280 0.16820 0.13920 0.03700
N 	N 	0.62110 0.21830 0.15180 0.19800
C 	C 	0.60780 0.24250 0.08710 0.02200
H 	H 	0.58850 0.27130 0.08360 -0.02400
N 	N 	0.62820 0.21610 0.02860 -0.54700
C 	C 	0.65420 0.17560 0.05720 0.09300
H 	H 	0.67140 0.15170 0.03010 -0.02400
C 	C 	0.64980 0.17690 0.13330 0.05500
H 	H 	0.66370 0.15420 0.16610 -0.04000
N 	N 	0.64923 0.29493 0.27920 -0.26600
C 	C 	0.64650 0.31540 0.34490 -0.00200
H 	H 	0.62480 0.30720 0.38290 0.00600
N 	N 	0.54090 0.26330 0.26360 -0.90200
C 	C 	0.50240 0.23190 0.24120 -0.06700
H 	H 	0.50560 0.19840 0.22890 -0.00500
N 	N 	0.45850 0.25950 0.24050 0.63800
C 	C 	0.46980 0.30790 0.26240 0.01600
H 	H 	0.44720 0.33410 0.26670 -0.03000
C 	C 	0.52070 0.31020 0.27670 0.06100
H 	H 	0.53810 0.33830 0.29230 0.00600
N 	N 	0.53910 0.24310 0.89890 -0.18700
C 	C 	0.49510 0.24030 0.93920 0.00400
H 	H 	0.49240 0.24080 0.99010 -0.03700
N 	N 	0.45560 0.23650 0.88980 -0.09100
C 	C 	0.47530 0.23700 0.81910 -0.00800
H 	H 	0.45710 0.23500 0.77560 -0.02800
C 	C 	0.52680 0.24110 0.82470 -0.02700
H 	H 	0.54920 0.24230 0.78570 0.02800
N 	N 	0.64290 0.29490 0.89010 0.34100
C 	C 	0.68430 0.30790 0.93190 0.11500
H 	H 	0.69210 0.29580 0.97840 -0.06100
N 	N 	0.71210 0.34230 0.89200 -0.65700
C 	C 	0.68790 0.35050 0.82550 -0.07800
H 	H 	0.69850 0.37190 0.78830 0.02200
C 	C 	0.64510 0.32120 0.82430 0.01100
H 	H 	0.62210 0.31950 0.78620 -0.01900
Zn	Zn	0.26412 0.89011 0.42238 1.15000
Zn	Zn	0.26369 0.89089 0.74412 1.14900
N 	N 	0.31930 0.87190 0.80470 -0.29500
C 	C 	0.32550 0.82950 0.83580 0.07600
H 	H 	0.30090 0.80500 0.83660 -0.04800
N 	N 	0.37040 0.82310 0.86710 -0.29100
C 	C 	0.39640 0.86430 0.84980 -0.00800
H 	H 	0.42950 0.87090 0.86190 -0.00800
C 	C 	0.36590 0.89380 0.81220 -0.02100
H 	H 	0.37460 0.92490 0.79340 -0.00400
N 	N 	0.28020 0.87490 0.63340 -0.49400
C 	C 	0.26050 0.89850 0.57190 0.13600
H 	H 	0.23730 0.92440 0.57220 -0.10800
N 	N 	0.28150 0.87670 0.50980 0.26900
C 	C 	0.31420 0.83960 0.53300 0.03400
H 	H 	0.33320 0.81910 0.50280 -0.01600
C 	C 	0.31340 0.83850 0.60940 -0.09400
H 	H 	0.33180 0.81720 0.63920 0.03400
N 	N 	0.28170 0.87890 0.65180 0.19900
C 	C 	0.25750 0.89220 0.58710 0.02300
H 	H 	0.22870 0.91150 0.58360 -0.01300
N 	N 	0.28390 0.87180 0.52860 -0.59700
C 	C 	0.32440 0.84580 0.55720 0.09600
H 	H 	0.34830 0.82860 0.53010 -0.03000
C 	C 	0.32310 0.85020 0.63330 0.04800
H 	H 	0.34580 0.83630 0.66610 -0.04100
N 	N 	0.20507 0.85077 0.77920 -0.26800
C 	C 	0.18460 0.85350 0.84490 -0.00600
H 	H 	0.19280 0.87520 0.88290 -0.00300
N 	N 	0.23670 0.95910 0.76360 -0.90500
C 	C 	0.26810 0.99760 0.74120 -0.06900
H 	H 	0.30160 0.99440 0.72890 -0.00700
N 	N 	0.24050 0.04150 0.74050 0.63800
C 	C 	0.19210 0.03020 0.76240 0.01400
H 	H 	0.16590 0.05280 0.76670 -0.03300
C 	C 	0.18980 0.97930 0.77670 0.05900
H 	H 	0.16170 0.96190 0.79230 0.00200
N 	N 	0.25690 0.96090 0.39890 -0.18500
C 	C 	0.25970 0.00490 0.43920 0.00900
H 	H 	0.25920 0.00760 0.49010 -0.02600
N 	N 	0.26350 0.04440 0.38980 -0.08600
C 	C 	0.26300 0.02470 0.31910 -0.00600
H 	H 	0.26500 0.04290 0.27560 -0.02700
C 	C 	0.25890 0.97320 0.32470 -0.02600
H 	H 	0.25770 0.95080 0.28570 0.03200
N 	N 	0.20510 0.85710 0.39010 0.31700
C 	C 	0.19210 0.81570 0.43190 0.11200
H 	H 	0.20420 0.80790 0.47840 -0.04800
N 	N 	0.15770 0.78790 0.39200 -0.62500
C 	C 	0.14950 0.81210 0.32550 -0.07500
H 	H 	0.12810 0.80150 0.28830 0.01700
C 	C 	0.17880 0.85490 0.32430 0.01300
H 	H 	0.18050 0.87790 0.28620 -0.00900
Zn	Zn	0.76412 0.39011 0.92238 1.14100
Zn	Zn	0.76369 0.39089 0.24412 1.15100
N 	N 	0.81930 0.37190 0.30470 -0.29300
C 	C 	0.82550 0.32950 0.33580 0.08300
H 	H 	0.80090 0.30500 0.33660 -0.04400
N 	N 	0.87040 0.32310 0.36710 -0.28500
C 	C 	0.89640 0.36430 0.34980 -0.00200
H 	H 	0.92950 0.37090 0.36190 -0.00100
C 	C 	0.86590 0.39380 0.31220 -0.01600
H 	H 	0.87460 0.42490 0.29340 0.00100
N 	N 	0.78020 0.37490 0.13340 -0.49100
C 	C 	0.76050 0.39850 0.07190 0.14100
H 	H 	0.73730 0.42440 0.07220 -0.08200
N 	N 	0.78150 0.37670 0.00980 0.24100
C 	C 	0.81420 0.33960 0.03300 0.03800
H 	H 	0.83320 0.31910 0.00280 0.00300
C 	C 	0.81340 0.33850 0.10940 -0.09400
H 	H 	0.83180 0.31720 0.13920 0.03700
N 	N 	0.78170 0.37890 0.15180 0.19800
C 	C 	0.75750 0.39220 0.08710 0.02200
H 	H 	0.72870 0.41150 0.08360 -0.02400
N 	N 	0.78390 0.37180 0.02860 -0.54700
C 	C 	0.82440 0.34580 0.05720 0.09300
H 	H 	0.84830 0.32860 0.03010 -0.02400
C 	C 	0.82310 0.35020 0.13330 0.05500
H 	H 	0.84580 0.33630 0.16610 -0.04000
N 	N 	0.70507 0.35077 0.27920 -0.26600
C 	C 	0.68460 0.35350 0.34490 -0.00200
H 	H 	0.69280 0.37520 0.38290 0.00600
N 	N 	0.73670 0.45910 0.26360 -0.90200
C 	C 	0.76810 0.49760 0.24120 -0.06700
H 	H 	0.80160 0.49440 0.22890 -0.00500
N 	N 	0.74050 0.54150 0.24050 0.63800
C 	C 	0.69210 0.53020 0.26240 0.01600
H 	H 	0.66590 0.55280 0.26670 -0.03000
C 	C 	0.68980 0.47930 0.27670 0.06100
H 	H 	0.66170 0.46190 0.29230 0.00600
N 	N 	0.75690 0.46090 0.89890 -0.18700
C 	C 	0.75970 0.50490 0.93920 0.00400
H 	H 	0.75920 0.50760 0.99010 -0.03700
N 	N 	0.76350 0.54440 0.88980 -0.09100
C 	C 	0.76300 0.52470 0.81910 -0.00800
H 	H 	0.76500 0.54290 0.77560 -0.02800
C 	C 	0.75890 0.47320 0.82470 -0.02700
H 	H 	0.75770 0.45080 0.78570 0.02800
N 	N 	0.70510 0.35710 0.89010 0.34100
C 	C 	0.69210 0.31570 0.93190 0.11500
H 	H 	0.70420 0.30790 0.97840 -0.06100
N 	N 	0.65770 0.28790 0.89200 -0.65700
C 	C 	0.64950 0.31210 0.82550 -0.07800
H 	H 	0.62810 0.30150 0.78830 0.02200
C 	C 	0.67880 0.35490 0.82430 0.01100
H 	H 	0.68050 0.37790 0.78620 -0.01900
Zn	Zn	0.73588 0.10989 0.42238 1.15000
Zn	Zn	0.73631 0.10911 0.74412 1.14900
N 	N 	0.68070 0.12810 0.80470 -0.29500
C 	C 	0.67450 0.17050 0.83580 0.07600
H 	H 	0.69910 0.19500 0.83660 -0.04800
N 	N 	0.62960 0.17690 0.86710 -0.29100
C 	C 	0.60360 0.13570 0.84980 -0.00800
H 	H 	0.57050 0.12910 0.86190 -0.00800
C 	C 	0.63410 0.10620 0.81220 -0.02100
H 	H 	0.62540 0.07510 0.79340 -0.00400
N 	N 	0.71980 0.12510 0.63340 -0.49400
C 	C 	0.73950 0.10150 0.57190 0.13600
H 	H 	0.76270 0.07560 0.57220 -0.10800
N 	N 	0.71850 0.12330 0.50980 0.26900
C 	C 	0.68580 0.16040 0.53300 0.03400
H 	H 	0.66680 0.18090 0.50280 -0.01600
C 	C 	0.68660 0.16150 0.60940 -0.09400
H 	H 	0.66820 0.18280 0.63920 0.03400
N 	N 	0.71830 0.12110 0.65180 0.19900
C 	C 	0.74250 0.10780 0.58710 0.02300
H 	H 	0.77130 0.08850 0.58360 -0.01300
N 	N 	0.71610 0.12820 0.52860 -0.59700
C 	C 	0.67560 0.15420 0.55720 0.09600
H 	H 	0.65170 0.17140 0.53010 -0.03000
C 	C 	0.67690 0.14980 0.63330 0.04800
H 	H 	0.65420 0.16370 0.66610 -0.04100
N 	N 	0.79493 0.14923 0.77920 -0.26800
C 	C 	0.81540 0.14650 0.84490 -0.00600
H 	H 	0.80720 0.12480 0.88290 -0.00300
N 	N 	0.76330 0.04090 0.76360 -0.90500
C 	C 	0.73190 0.00240 0.74120 -0.06900
H 	H 	0.69840 0.00560 0.72890 -0.00700
N 	N 	0.75950 0.95850 0.74050 0.63800
C 	C 	0.80790 0.96980 0.76240 0.01400
H 	H 	0.83410 0.94720 0.76670 -0.03300
C 	C 	0.81020 0.02070 0.77670 0.05900
H 	H 	0.83830 0.03810 0.79230 0.00200
N 	N 	0.74310 0.03910 0.39890 -0.18500
C 	C 	0.74030 0.99510 0.43920 0.00900
H 	H 	0.74080 0.99240 0.49010 -0.02600
N 	N 	0.73650 0.95560 0.38980 -0.08600
C 	C 	0.73700 0.97530 0.31910 -0.00600
H 	H 	0.73500 0.95710 0.27560 -0.02700
C 	C 	0.74110 0.02680 0.32470 -0.02600
H 	H 	0.74230 0.04920 0.28570 0.03200
N 	N 	0.79490 0.14290 0.39010 0.31700
C 	C 	0.80790 0.18430 0.43190 0.11200
H 	H 	0.79580 0.19210 0.47840 -0.04800
N 	N 	0.84230 0.21210 0.39200 -0.62500
C 	C 	0.85050 0.18790 0.32550 -0.07500
H 	H 	0.87190 0.19850 0.28830 0.01700
C 	C 	0.82120 0.14510 0.32430 0.01300
H 	H 	0.81950 0.12210 0.28620 -0.00900
Zn	Zn	0.23588 0.60989 0.92238 1.14100
Zn	Zn	0.23631 0.60911 0.24412 1.15100
N 	N 	0.18070 0.62810 0.30470 -0.29300
C 	C 	0.17450 0.67050 0.33580 0.08300
H 	H 	0.19910 0.69500 0.33660 -0.04400
N 	N 	0.12960 0.67690 0.36710 -0.28500
C 	C 	0.10360 0.63570 0.34980 -0.00200
H 	H 	0.07050 0.62910 0.36190 -0.00100
C 	C 	0.13410 0.60620 0.31220 -0.01600
H 	H 	0.12540 0.57510 0.29340 0.00100
N 	N 	0.21980 0.62510 0.13340 -0.49100
C 	C 	0.23950 0.60150 0.07190 0.14100
H 	H 	0.26270 0.57560 0.07220 -0.08200
N 	N 	0.21850 0.62330 0.00980 0.24100
C 	C 	0.18580 0.66040 0.03300 0.03800
H 	H 	0.16680 0.68090 0.00280 0.00300
C 	C 	0.18660 0.66150 0.10940 -0.09400
H 	H 	0.16820 0.68280 0.13920 0.03700
N 	N 	0.21830 0.62110 0.15180 0.19800
C 	C 	0.24250 0.60780 0.08710 0.02200
H 	H 	0.27130 0.58850 0.08360 -0.02400
N 	N 	0.21610 0.62820 0.02860 -0.54700
C 	C 	0.17560 0.65420 0.05720 0.09300
H 	H 	0.15170 0.67140 0.03010 -0.02400
C 	C 	0.17690 0.64980 0.13330 0.05500
H 	H 	0.15420 0.66370 0.16610 -0.04000
N 	N 	0.29493 0.64923 0.27920 -0.26600
C 	C 	0.31540 0.64650 0.34490 -0.00200
H 	H 	0.30720 0.62480 0.38290 0.00600
N 	N 	0.26330 0.54090 0.26360 -0.90200
C 	C 	0.23190 0.50240 0.24120 -0.06700
H 	H 	0.19840 0.50560 0.22890 -0.00500
N 	N 	0.25950 0.45850 0.24050 0.63800
C 	C 	0.30790 0.46980 0.26240 0.01600
H 	H 	0.33410 0.44720 0.26670 -0.03000
C 	C 	0.31020 0.52070 0.27670 0.06100
H 	H 	0.33830 0.53810 0.29230 0.00600
N 	N 	0.24310 0.53910 0.89890 -0.18700
C 	C 	0.24030 0.49510 0.93920 0.00400
H 	H 	0.24080 0.49240 0.99010 -0.03700
N 	N 	0.23650 0.45560 0.88980 -0.09100
C 	C 	0.23700 0.47530 0.81910 -0.00800
H 	H 	0.23500 0.45710 0.77560 -0.02800
C 	C 	0.24110 0.52680 0.82470 -0.02700
H 	H 	0.24230 0.54920 0.78570 0.02800
N 	N 	0.29490 0.64290 0.89010 0.34100
C 	C 	0.30790 0.68430 0.93190 0.11500
H 	H 	0.29580 0.69210 0.97840 -0.06100
N 	N 	0.34230 0.71210 0.89200 -0.65700
C 	C 	0.35050 0.68790 0.82550 -0.07800
H 	H 	0.37190 0.69850 0.78830 0.02200
C 	C 	0.32120 0.64510 0.82430 0.01100
H 	H 	0.31950 0.62210 0.78620 -0.01900
Zn	Zn	0.89011 0.73588 0.42238 1.15000
Zn	Zn	0.89089 0.73631 0.74412 1.14900
N 	N 	0.87190 0.68070 0.80470 -0.29500
C 	C 	0.82950 0.67450 0.83580 0.07600
H 	H 	0.80500 0.69910 0.83660 -0.04800
N 	N 	0.82310 0.62960 0.86710 -0.29100
C 	C 	0.86430 0.60360 0.84980 -0.00800
H 	H 	0.87090 0.57050 0.86190 -0.00800
C 	C 	0.89380 0.63410 0.81220 -0.02100
H 	H 	0.92490 0.62540 0.79340 -0.00400
N 	N 	0.87490 0.71980 0.63340 -0.49400
C 	C 	0.89850 0.73950 0.57190 0.13600
H 	H 	0.92440 0.76270 0.57220 -0.10800
N 	N 	0.87670 0.71850 0.50980 0.26900
C 	C 	0.83960 0.68580 0.53300 0.03400
H 	H 	0.81910 0.66680 0.50280 -0.01600
C 	C 	0.83850 0.68660 0.60940 -0.09400
H 	H 	0.81720 0.66820 0.63920 0.03400
N 	N 	0.87890 0.71830 0.65180 0.19900
C 	C 	0.89220 0.74250 0.58710 0.02300
H 	H 	0.91150 0.77130 0.58360 -0.01300
N 	N 	0.87180 0.71610 0.52860 -0.59700
C 	C 	0.84580 0.67560 0.55720 0.09600
H 	H 	0.82860 0.65170 0.53010 -0.03000
C 	C 	0.85020 0.67690 0.63330 0.04800
H 	H 	0.83630 0.65420 0.66610 -0.04100
N 	N 	0.85077 0.79493 0.77920 -0.26800
C 	C 	0.85350 0.81540 0.84490 -0.00600
H 	H 	0.87520 0.80720 0.88290 -0.00300
N 	N 	0.95910 0.76330 0.76360 -0.90500
C 	C 	0.99760 0.73190 0.74120 -0.06900
H 	H 	0.99440 0.69840 0.72890 -0.00700
N 	N 	0.04150 0.75950 0.74050 0.63800
C 	C 	0.03020 0.80790 0.76240 0.01400
H 	H 	0.05280 0.83410 0.76670 -0.03300
C 	C 	0.97930 0.81020 0.77670 0.05900
H 	H 	0.96190 0.83830 0.79230 0.00200
N 	N 	0.96090 0.74310 0.39890 -0.18500
C 	C 	0.00490 0.74030 0.43920 0.00900
H 	H 	0.00760 0.74080 0.49010 -0.02600
N 	N 	0.04440 0.73650 0.38980 -0.08600
C 	C 	0.02470 0.73700 0.31910 -0.00600
H 	H 	0.04290 0.73500 0.27560 -0.02700
C 	C 	0.97320 0.74110 0.32470 -0.02600
H 	H 	0.95080 0.74230 0.28570 0.03200
N 	N 	0.85710 0.79490 0.39010 0.31700
C 	C 	0.81570 0.80790 0.43190 0.11200
H 	H 	0.80790 0.79580 0.47840 -0.04800
N 	N 	0.78790 0.84230 0.39200 -0.62500
C 	C 	0.81210 0.85050 0.32550 -0.07500
H 	H 	0.80150 0.87190 0.28830 0.01700
C 	C 	0.85490 0.82120 0.32430 0.01300
H 	H 	0.87790 0.81950 0.28620 -0.00900
Zn	Zn	0.39011 0.23588 0.92238 1.14100
Zn	Zn	0.39089 0.23631 0.24412 1.15100
N 	N 	0.37190 0.18070 0.30470 -0.29300
C 	C 	0.32950 0.17450 0.33580 0.08300
H 	H 	0.30500 0.19910 0.33660 -0.04400
N 	N 	0.32310 0.12960 0.36710 -0.28500
C 	C 	0.36430 0.10360 0.34980 -0.00200
H 	H 	0.37090 0.07050 0.36190 -0.00100
C 	C 	0.39380 0.13410 0.31220 -0.01600
H 	H 	0.42490 0.12540 0.29340 0.00100
N 	N 	0.37490 0.21980 0.13340 -0.49100
C 	C 	0.39850 0.23950 0.07190 0.14100
H 	H 	0.42440 0.26270 0.07220 -0.08200
N 	N 	0.37670 0.21850 0.00980 0.24100
C 	C 	0.33960 0.18580 0.03300 0.03800
H 	H 	0.31910 0.16680 0.00280 0.00300
C 	C 	0.33850 0.18660 0.10940 -0.09400
H 	H 	0.31720 0.16820 0.13920 0.03700
N 	N 	0.37890 0.21830 0.15180 0.19800
C 	C 	0.39220 0.24250 0.08710 0.02200
H 	H 	0.41150 0.27130 0.08360 -0.02400
N 	N 	0.37180 0.21610 0.02860 -0.54700
C 	C 	0.34580 0.17560 0.05720 0.09300
H 	H 	0.32860 0.15170 0.03010 -0.02400
C 	C 	0.35020 0.17690 0.13330 0.05500
H 	H 	0.33630 0.15420 0.16610 -0.04000
N 	N 	0.35077 0.29493 0.27920 -0.26600
C 	C 	0.35350 0.31540 0.34490 -0.00200
H 	H 	0.37520 0.30720 0.38290 0.00600
N 	N 	0.45910 0.26330 0.26360 -0.90200
C 	C 	0.49760 0.23190 0.24120 -0.06700
H 	H 	0.49440 0.19840 0.22890 -0.00500
N 	N 	0.54150 0.25950 0.24050 0.63800
C 	C 	0.53020 0.30790 0.26240 0.01600
H 	H 	0.55280 0.33410 0.26670 -0.03000
C 	C 	0.47930 0.31020 0.27670 0.06100
H 	H 	0.46190 0.33830 0.29230 0.00600
N 	N 	0.46090 0.24310 0.89890 -0.18700
C 	C 	0.50490 0.24030 0.93920 0.00400
H 	H 	0.50760 0.24080 0.99010 -0.03700
N 	N 	0.54440 0.23650 0.88980 -0.09100
C 	C 	0.52470 0.23700 0.81910 -0.00800
H 	H 	0.54290 0.23500 0.77560 -0.02800
C 	C 	0.47320 0.24110 0.82470 -0.02700
H 	H 	0.45080 0.24230 0.78570 0.02800
N 	N 	0.35710 0.29490 0.89010 0.34100
C 	C 	0.31570 0.30790 0.93190 0.11500
H 	H 	0.30790 0.29580 0.97840 -0.06100
N 	N 	0.28790 0.34230 0.89200 -0.65700
C 	C 	0.31210 0.35050 0.82550 -0.07800
H 	H 	0.30150 0.37190 0.78830 0.02200
C 	C 	0.35490 0.32120 0.82430 0.01100
H 	H 	0.37790 0.31950 0.78620 -0.01900
Zn	Zn	0.10989 0.26412 0.42238 1.15000
Zn	Zn	0.10911 0.26369 0.74412 1.14900
N 	N 	0.12810 0.31930 0.80470 -0.29500
C 	C 	0.17050 0.32550 0.83580 0.07600
H 	H 	0.19500 0.30090 0.83660 -0.04800
N 	N 	0.17690 0.37040 0.86710 -0.29100
C 	C 	0.13570 0.39640 0.84980 -0.00800
H 	H 	0.12910 0.42950 0.86190 -0.00800
C 	C 	0.10620 0.36590 0.81220 -0.02100
H 	H 	0.07510 0.37460 0.79340 -0.00400
N 	N 	0.12510 0.28020 0.63340 -0.49400
C 	C 	0.10150 0.26050 0.57190 0.13600
H 	H 	0.07560 0.23730 0.57220 -0.10800
N 	N 	0.12330 0.28150 0.50980 0.26900
C 	C 	0.16040 0.31420 0.53300 0.03400
H 	H 	0.18090 0.33320 0.50280 -0.01600
C 	C 	0.16150 0.31340 0.60940 -0.09400
H 	H 	0.18280 0.33180 0.63920 0.03400
N 	N 	0.12110 0.28170 0.65180 0.19900
C 	C 	0.10780 0.25750 0.58710 0.02300
H 	H 	0.08850 0.22870 0.58360 -0.01300
N 	N 	0.12820 0.28390 0.52860 -0.59700
C 	C 	0.15420 0.32440 0.55720 0.09600
H 	H 	0.17140 0.34830 0.53010 -0.03000
C 	C 	0.14980 0.32310 0.63330 0.04800
H 	H 	0.16370 0.34580 0.66610 -0.04100
N 	N 	0.14923 0.20507 0.77920 -0.26800
C 	C 	0.14650 0.18460 0.84490 -0.00600
H 	H 	0.12480 0.19280 0.88290 -0.00300
N 	N 	0.04090 0.23670 0.76360 -0.90500
C 	C 	0.00240 0.26810 0.74120 -0.06900
H 	H 	0.00560 0.30160 0.72890 -0.00700
N 	N 	0.95850 0.24050 0.74050 0.63800
C 	C 	0.96980 0.19210 0.76240 0.01400
H 	H 	0.94720 0.16590 0.76670 -0.03300
C 	C 	0.02070 0.18980 0.77670 0.05900
H 	H 	0.03810 0.16170 0.79230 0.00200
N 	N 	0.03910 0.25690 0.39890 -0.18500
C 	C 	0.99510 0.25970 0.43920 0.00900
H 	H 	0.99240 0.25920 0.49010 -0.02600
N 	N 	0.95560 0.26350 0.38980 -0.08600
C 	C 	0.97530 0.26300 0.31910 -0.00600
H 	H 	0.95710 0.26500 0.27560 -0.02700
C 	C 	0.02680 0.25890 0.32470 -0.02600
H 	H 	0.04920 0.25770 0.28570 0.03200
N 	N 	0.14290 0.20510 0.39010 0.31700
C 	C 	0.18430 0.19210 0.43190 0.11200
H 	H 	0.19210 0.20420 0.47840 -0.04800
N 	N 	0.21210 0.15770 0.39200 -0.62500
C 	C 	0.18790 0.14950 0.32550 -0.07500
H 	H 	0.19850 0.12810 0.28830 0.01700
C 	C 	0.14510 0.17880 0.32430 0.01300
H 	H 	0.12210 0.18050 0.28620 -0.00900
Zn	Zn	0.60989 0.76412 0.92238 1.14100
Zn	Zn	0.60911 0.76369 0.24412 1.15100
N 	N 	0.62810 0.81930 0.30470 -0.29300
C 	C 	0.67050 0.82550 0.33580 0.08300
H 	H 	0.69500 0.80090 0.33660 -0.04400
N 	N 	0.67690 0.87040 0.36710 -0.28500
C 	C 	0.63570 0.89640 0.34980 -0.00200
H 	H 	0.62910 0.92950 0.36190 -0.00100
C 	C 	0.60620 0.86590 0.31220 -0.01600
H 	H 	0.57510 0.87460 0.29340 0.00100
N 	N 	0.62510 0.78020 0.13340 -0.49100
C 	C 	0.60150 0.76050 0.07190 0.14100
H 	H 	0.57560 0.73730 0.07220 -0.08200
N 	N 	0.62330 0.78150 0.00980 0.24100
C 	C 	0.66040 0.81420 0.03300 0.03800
H 	H 	0.68090 0.83320 0.00280 0.00300
C 	C 	0.66150 0.81340 0.10940 -0.09400
H 	H 	0.68280 0.83180 0.13920 0.03700
N 	N 	0.62110 0.78170 0.15180 0.19800
C 	C 	0.60780 0.75750 0.08710 0.02200
H 	H 	0.58850 0.72870 0.08360 -0.02400
N 	N 	0.62820 0.78390 0.02860 -0.54700
C 	C 	0.65420 0.82440 0.05720 0.09300
H 	H 	0.67140 0.84830 0.03010 -0.02400
C 	C 	0.64980 0.82310 0.13330 0.05500
H 	H 	0.66370 0.84580 0.16610 -0.04000
N 	N 	0.64923 0.70507 0.27920 -0.26600
C 	C 	0.64650 0.68460 0.34490 -0.00200
H 	H 	0.62480 0.69280 0.38290 0.00600
N 	N 	0.54090 0.73670 0.26360 -0.90200
C 	C 	0.50240 0.76810 0.24120 -0.06700
H 	H 	0.50560 0.80160 0.22890 -0.00500
N 	N 	0.45850 0.74050 0.24050 0.63800
C 	C 	0.46980 0.69210 0.26240 0.01600
H 	H 	0.44720 0.66590 0.26670 -0.03000
C 	C 	0.52070 0.68980 0.27670 0.06100
H 	H 	0.53810 0.66170 0.29230 0.00600
N 	N 	0.53910 0.75690 0.89890 -0.18700
C 	C 	0.49510 0.75970 0.93920 0.00400
H 	H 	0.49240 0.75920 0.99010 -0.03700
N 	N 	0.45560 0.76350 0.88980 -0.09100
C 	C 	0.47530 0.76300 0.81910 -0.00800
H 	H 	0.45710 0.76500 0.77560 -0.02800
C 	C 	0.52680 0.75890 0.82470 -0.02700
H 	H 	0.54920 0.75770 0.78570 0.02800
N 	N 	0.64290 0.70510 0.89010 0.34100
C 	C 	0.68430 0.69210 0.93190 0.11500
H 	H 	0.69210 0.70420 0.97840 -0.06100
N 	N 	0.71210 0.65770 0.89200 -0.65700
C 	C 	0.68790 0.64950 0.82550 -0.07800
H 	H 	0.69850 0.62810 0.78830 0.02200
C 	C 	0.64510 0.67880 0.82430 0.01100
H 	H 	0.62210 0.68050 0.78620 -0.01900
C 	C 	0.18770 0.18770 0.74110 0.03900
H 	H 	0.19990 0.19990 0.69680 -0.04600
C 	C 	0.68770 0.68770 0.24110 0.04200
H 	H 	0.69990 0.69990 0.19680 -0.04200
C 	C 	0.81230 0.81230 0.74110 0.03900
H 	H 	0.80010 0.80010 0.69680 -0.04600
C 	C 	0.31230 0.31230 0.24110 0.04200
H 	H 	0.30010 0.30010 0.19680 -0.04200
C 	C 	0.81230 0.18770 0.74110 0.03900
H 	H 	0.80010 0.19990 0.69680 -0.04600
C 	C 	0.31230 0.68770 0.24110 0.04200
H 	H 	0.30010 0.69990 0.19680 -0.04200
C 	C 	0.18770 0.81230 0.74110 0.03900
H 	H 	0.19990 0.80010 0.69680 -0.04600
C 	C 	0.68770 0.31230 0.24110 0.04200
H 	H 	0.69990 0.30010 0.19680 -0.04200
