data_crystal

_cell_length_a 25.61600
_cell_length_b 28.15700
_cell_length_c 40.54900
_cell_angle_alpha 90.00000
_cell_angle_beta  90.00000
_cell_angle_gamma 90.00000

_symmetry_space_group_name_	'P 1'
_symmetry_space_group_name_H-M	'P 1'

loop_
_symmetry_equiv_pos_as_xyz
  x,y,z

loop_
_atom_site_label
_atom_site_type_symbol
_atom_site_fract_x
_atom_site_fract_y
_atom_site_fract_z
_atom_site_charge
C 	C 	0.80090 0.06550 0.27895 0.34600
C 	C 	0.82710 0.10690 0.29557 -0.07600
C 	C 	0.86630 0.13070 0.27953 0.01700
H 	H 	0.87730 0.12090 0.25880 0.05500
C 	C 	0.88920 0.16920 0.29460 -0.06700
C 	C 	0.93050 0.19960 0.27690 0.36400
C 	C 	0.81150 0.12070 0.32705 -0.03000
H 	H 	0.78500 0.10400 0.33760 0.04900
C 	C 	0.87380 0.18270 0.32601 -0.03300
H 	H 	0.89020 0.20850 0.33600 0.05900
C 	C 	0.83460 0.15890 0.34295 0.00900
C 	C 	0.81770 0.17420 0.37636 -0.01200
C 	C 	0.76650 0.17010 0.38673 -0.02200
H 	H 	0.74250 0.15530 0.37290 0.03400
C 	C 	0.85160 0.19630 0.39759 -0.02400
H 	H 	0.88640 0.19950 0.39140 0.03500
C 	C 	0.74960 0.18710 0.41673 -0.11600
H 	H 	0.71480 0.18370 0.42280 0.06500
C 	C 	0.83550 0.21420 0.42843 -0.13000
H 	H 	0.85940 0.22910 0.44230 0.06000
C 	C 	0.78430 0.20940 0.43792 0.08500
C 	C 	0.76700 0.23030 0.47023 -0.14600
H 	H 	0.82260 0.15450 0.52230 0.28300
H 	H 	0.84880 0.17110 0.48930 0.27600
H 	H 	0.79870 0.13920 0.48840 0.27100
O 	O 	0.81920 0.05000 0.25239 -0.40800
O 	O 	0.74007 0.95120 0.20712 -0.38200
O 	O 	0.05421 0.26430 0.20857 -0.42800
O 	O 	0.94584 0.18500 0.24947 -0.38800
C 	C 	0.80090 0.56550 0.77895 0.34400
C 	C 	0.82710 0.60690 0.79557 -0.07100
C 	C 	0.86630 0.63070 0.77953 0.01400
H 	H 	0.87730 0.62090 0.75880 0.05700
C 	C 	0.88920 0.66920 0.79460 -0.06500
C 	C 	0.93050 0.69960 0.77690 0.36200
C 	C 	0.81150 0.62070 0.82705 -0.03200
H 	H 	0.78500 0.60400 0.83760 0.05400
C 	C 	0.87380 0.68270 0.82601 -0.03400
H 	H 	0.89020 0.70850 0.83600 0.06100
C 	C 	0.83460 0.65890 0.84295 0.01200
C 	C 	0.81770 0.67420 0.87636 -0.01000
C 	C 	0.76650 0.67010 0.88673 -0.02100
H 	H 	0.74250 0.65530 0.87290 0.03600
C 	C 	0.85160 0.69630 0.89759 -0.02300
H 	H 	0.88640 0.69950 0.89140 0.03700
C 	C 	0.74960 0.68710 0.91673 -0.11400
H 	H 	0.71480 0.68370 0.92280 0.06600
C 	C 	0.83550 0.71420 0.92843 -0.12700
H 	H 	0.85940 0.72910 0.94230 0.06100
C 	C 	0.78430 0.70940 0.93792 0.08500
C 	C 	0.76700 0.73030 0.97023 -0.14600
H 	H 	0.82260 0.65450 0.02230 0.25600
H 	H 	0.84880 0.67110 0.98930 0.24100
H 	H 	0.79870 0.63920 0.98840 0.23900
O 	O 	0.81920 0.55000 0.75239 -0.39800
O 	O 	0.74007 0.45120 0.70712 -0.40200
O 	O 	0.05421 0.76430 0.70857 -0.42700
O 	O 	0.94584 0.68500 0.74947 -0.38600
C 	C 	0.30090 0.06550 0.77895 0.34700
C 	C 	0.32710 0.10690 0.79557 -0.08400
C 	C 	0.36630 0.13070 0.77953 0.02200
H 	H 	0.37730 0.12090 0.75880 0.04700
C 	C 	0.38920 0.16920 0.79460 -0.08000
C 	C 	0.43050 0.19960 0.77690 0.36800
C 	C 	0.31150 0.12070 0.82705 -0.02600
H 	H 	0.28500 0.10400 0.83760 0.04500
C 	C 	0.37380 0.18270 0.82601 -0.02700
H 	H 	0.39020 0.20850 0.83600 0.05300
C 	C 	0.33460 0.15890 0.84295 0.00100
C 	C 	0.31770 0.17420 0.87636 -0.00800
C 	C 	0.26650 0.17010 0.88673 -0.02700
H 	H 	0.24250 0.15530 0.87290 0.03400
C 	C 	0.35160 0.19630 0.89759 -0.03000
H 	H 	0.38640 0.19950 0.89140 0.03100
C 	C 	0.24960 0.18710 0.91673 -0.10900
H 	H 	0.21480 0.18370 0.92280 0.06000
C 	C 	0.33550 0.21420 0.92843 -0.12300
H 	H 	0.35940 0.22910 0.94230 0.05300
C 	C 	0.28430 0.20940 0.93792 0.07700
C 	C 	0.26700 0.23030 0.97023 -0.13800
H 	H 	0.32260 0.15450 0.02230 0.23300
H 	H 	0.34880 0.17110 0.98930 0.21700
H 	H 	0.29870 0.13920 0.98840 0.21500
O 	O 	0.31920 0.05000 0.75239 -0.41300
O 	O 	0.24007 0.95120 0.70712 -0.38600
O 	O 	0.55421 0.26430 0.70857 -0.41700
O 	O 	0.44584 0.18500 0.74947 -0.41100
C 	C 	0.30090 0.56550 0.27895 0.34600
C 	C 	0.32710 0.60690 0.29557 -0.07700
C 	C 	0.36630 0.63070 0.27953 0.01800
H 	H 	0.37730 0.62090 0.25880 0.05100
C 	C 	0.38920 0.66920 0.29460 -0.07500
C 	C 	0.43050 0.69960 0.27690 0.36700
C 	C 	0.31150 0.62070 0.32705 -0.02900
H 	H 	0.28500 0.60400 0.33760 0.05000
C 	C 	0.37380 0.68270 0.32601 -0.03000
H 	H 	0.39020 0.70850 0.33600 0.05500
C 	C 	0.33460 0.65890 0.34295 0.00600
C 	C 	0.31770 0.67420 0.37636 -0.01100
C 	C 	0.26650 0.67010 0.38673 -0.02200
H 	H 	0.24250 0.65530 0.37290 0.03500
C 	C 	0.35160 0.69630 0.39759 -0.02400
H 	H 	0.38640 0.69950 0.39140 0.03100
C 	C 	0.24960 0.68710 0.41673 -0.11400
H 	H 	0.21480 0.68370 0.42280 0.06400
C 	C 	0.33550 0.71420 0.42843 -0.13000
H 	H 	0.35940 0.72910 0.44230 0.05600
C 	C 	0.28430 0.70940 0.43792 0.08400
C 	C 	0.26700 0.73030 0.47023 -0.14500
H 	H 	0.32260 0.65450 0.52230 0.28100
H 	H 	0.34880 0.67110 0.48930 0.27300
H 	H 	0.29870 0.63920 0.48840 0.27000
O 	O 	0.31920 0.55000 0.25239 -0.40300
O 	O 	0.24007 0.45120 0.20712 -0.40400
O 	O 	0.55421 0.76430 0.20857 -0.41500
O 	O 	0.44584 0.68500 0.24947 -0.40800
C 	C 	0.19910 0.93450 0.27895 0.34200
C 	C 	0.17290 0.89310 0.29557 -0.07300
C 	C 	0.13370 0.86930 0.27953 0.01700
H 	H 	0.12270 0.87910 0.25880 0.05100
C 	C 	0.11080 0.83080 0.29460 -0.07800
C 	C 	0.06950 0.80040 0.27690 0.36700
C 	C 	0.18850 0.87930 0.32705 -0.03200
H 	H 	0.21500 0.89600 0.33760 0.05500
C 	C 	0.12620 0.81730 0.32601 -0.03000
H 	H 	0.10980 0.79150 0.33600 0.05100
C 	C 	0.16540 0.84110 0.34295 0.00800
C 	C 	0.18230 0.82580 0.37636 -0.01300
C 	C 	0.23350 0.82990 0.38673 -0.01900
H 	H 	0.25750 0.84470 0.37290 0.03800
C 	C 	0.14840 0.80370 0.39759 -0.02300
H 	H 	0.11360 0.80050 0.39140 0.02400
C 	C 	0.25040 0.81290 0.41673 -0.11600
H 	H 	0.28520 0.81630 0.42280 0.07000
C 	C 	0.16450 0.78580 0.42843 -0.13400
H 	H 	0.14060 0.77090 0.44230 0.05200
C 	C 	0.21570 0.79060 0.43792 0.08700
C 	C 	0.23300 0.76970 0.47023 -0.15100
H 	H 	0.17740 0.84550 0.52230 0.28500
H 	H 	0.15120 0.82890 0.48930 0.27500
H 	H 	0.20130 0.86080 0.48840 0.27700
O 	O 	0.18080 0.95000 0.25239 -0.38800
O 	O 	0.25993 0.04880 0.20712 -0.41400
O 	O 	0.94579 0.73570 0.20857 -0.39300
O 	O 	0.05416 0.81500 0.24947 -0.41700
C 	C 	0.19910 0.43450 0.77895 0.34600
C 	C 	0.17290 0.39310 0.79557 -0.08200
C 	C 	0.13370 0.36930 0.77953 0.02200
H 	H 	0.12270 0.37910 0.75880 0.04600
C 	C 	0.11080 0.33080 0.79460 -0.08400
C 	C 	0.06950 0.30040 0.77690 0.36900
C 	C 	0.18850 0.37930 0.82705 -0.02700
H 	H 	0.21500 0.39600 0.83760 0.05000
C 	C 	0.12620 0.31730 0.82601 -0.02600
H 	H 	0.10980 0.29150 0.83600 0.04800
C 	C 	0.16540 0.34110 0.84295 0.00100
C 	C 	0.18230 0.32580 0.87636 -0.00900
C 	C 	0.23350 0.32990 0.88673 -0.02500
H 	H 	0.25750 0.34470 0.87290 0.03700
C 	C 	0.14840 0.30370 0.89759 -0.02900
H 	H 	0.11360 0.30050 0.89140 0.02500
C 	C 	0.25040 0.31290 0.91673 -0.11100
H 	H 	0.28520 0.31630 0.92280 0.06500
C 	C 	0.16450 0.28580 0.92843 -0.12600
H 	H 	0.14060 0.27090 0.94230 0.04800
C 	C 	0.21570 0.29060 0.93792 0.08000
C 	C 	0.23300 0.26970 0.97023 -0.14300
H 	H 	0.17740 0.34550 0.02230 0.23700
H 	H 	0.15120 0.32890 0.98930 0.21900
H 	H 	0.20130 0.36080 0.98840 0.22000
O 	O 	0.18080 0.45000 0.75239 -0.40700
O 	O 	0.25993 0.54880 0.70712 -0.40500
O 	O 	0.94579 0.23570 0.70857 -0.39500
O 	O 	0.05416 0.31500 0.74947 -0.42000
C 	C 	0.69910 0.93450 0.77895 0.34100
C 	C 	0.67290 0.89310 0.79557 -0.06800
C 	C 	0.63370 0.86930 0.77953 0.01400
H 	H 	0.62270 0.87910 0.75880 0.05600
C 	C 	0.61080 0.83080 0.79460 -0.07000
C 	C 	0.56950 0.80040 0.77690 0.36600
C 	C 	0.68850 0.87930 0.82705 -0.03400
H 	H 	0.71500 0.89600 0.83760 0.05900
C 	C 	0.62620 0.81730 0.82601 -0.03300
H 	H 	0.60980 0.79150 0.83600 0.05600
C 	C 	0.66540 0.84110 0.84295 0.01200
C 	C 	0.68230 0.82580 0.87636 -0.01100
C 	C 	0.73350 0.82990 0.88673 -0.01800
H 	H 	0.75750 0.84470 0.87290 0.04000
C 	C 	0.64840 0.80370 0.89759 -0.02200
H 	H 	0.61360 0.80050 0.89140 0.03100
C 	C 	0.75040 0.81290 0.91673 -0.11500
H 	H 	0.78520 0.81630 0.92280 0.07200
C 	C 	0.66450 0.78580 0.92843 -0.13000
H 	H 	0.64060 0.77090 0.94230 0.05600
C 	C 	0.71570 0.79060 0.93792 0.08800
C 	C 	0.73300 0.76970 0.97023 -0.15100
H 	H 	0.67740 0.84550 0.02230 0.26000
H 	H 	0.65120 0.82890 0.98930 0.24300
H 	H 	0.70130 0.86080 0.98840 0.24500
O 	O 	0.68080 0.95000 0.75239 -0.38400
O 	O 	0.75993 0.04880 0.70712 -0.41200
O 	O 	0.44579 0.73570 0.70857 -0.41600
O 	O 	0.55416 0.81500 0.74947 -0.40500
C 	C 	0.69910 0.43450 0.27895 0.34500
C 	C 	0.67290 0.39310 0.29557 -0.07600
C 	C 	0.63370 0.36930 0.27953 0.01800
H 	H 	0.62270 0.37910 0.25880 0.05200
C 	C 	0.61080 0.33080 0.29460 -0.07500
C 	C 	0.56950 0.30040 0.27690 0.36700
C 	C 	0.68850 0.37930 0.32705 -0.03100
H 	H 	0.71500 0.39600 0.33760 0.05300
C 	C 	0.62620 0.31730 0.32601 -0.03100
H 	H 	0.60980 0.29150 0.33600 0.05400
C 	C 	0.66540 0.34110 0.34295 0.00800
C 	C 	0.68230 0.32580 0.37636 -0.01300
C 	C 	0.73350 0.32990 0.38673 -0.01900
H 	H 	0.75750 0.34470 0.37290 0.03800
C 	C 	0.64840 0.30370 0.39759 -0.02300
H 	H 	0.61360 0.30050 0.39140 0.02900
C 	C 	0.75040 0.31290 0.41673 -0.11700
H 	H 	0.78520 0.31630 0.42280 0.07100
C 	C 	0.66450 0.28580 0.42843 -0.13300
H 	H 	0.64060 0.27090 0.44230 0.05500
C 	C 	0.71570 0.29060 0.43792 0.08800
C 	C 	0.73300 0.26970 0.47023 -0.15100
H 	H 	0.67740 0.34550 0.52230 0.28600
H 	H 	0.65120 0.32890 0.48930 0.27700
H 	H 	0.70130 0.36080 0.48840 0.27600
O 	O 	0.68080 0.45000 0.25239 -0.40200
O 	O 	0.75993 0.54880 0.20712 -0.40200
O 	O 	0.44579 0.23570 0.20857 -0.41700
O 	O 	0.55416 0.31500 0.24947 -0.40800
C 	C 	0.19910 0.06550 0.72105 0.34700
C 	C 	0.17290 0.10690 0.70443 -0.08800
C 	C 	0.13370 0.13070 0.72047 0.02400
H 	H 	0.12270 0.12090 0.74120 0.04200
C 	C 	0.11080 0.16920 0.70540 -0.08700
C 	C 	0.06950 0.19960 0.72310 0.36900
C 	C 	0.18850 0.12070 0.67295 -0.02500
H 	H 	0.21500 0.10400 0.66240 0.04500
C 	C 	0.12620 0.18270 0.67399 -0.02500
H 	H 	0.10980 0.20850 0.66400 0.04800
C 	C 	0.16540 0.15890 0.65705 -0.00300
C 	C 	0.18230 0.17420 0.62364 -0.00900
C 	C 	0.23350 0.17010 0.61327 -0.02800
H 	H 	0.25750 0.15530 0.62710 0.03600
C 	C 	0.14840 0.19630 0.60241 -0.03100
H 	H 	0.11360 0.19950 0.60860 0.02500
C 	C 	0.25040 0.18710 0.58327 -0.10900
H 	H 	0.28520 0.18370 0.57720 0.06300
C 	C 	0.16450 0.21420 0.57157 -0.12500
H 	H 	0.14060 0.22910 0.55770 0.04800
C 	C 	0.21570 0.20940 0.56208 0.07500
C 	C 	0.23300 0.23030 0.52977 -0.13000
H 	H 	0.17740 0.15450 0.47770 0.26000
H 	H 	0.15120 0.17110 0.51070 0.25100
H 	H 	0.20130 0.13920 0.51160 0.25000
O 	O 	0.18080 0.05000 0.74761 -0.41600
O 	O 	0.25993 0.95120 0.79288 -0.38600
O 	O 	0.94579 0.26430 0.79143 -0.39600
O 	O 	0.05416 0.18500 0.75053 -0.42200
C 	C 	0.19910 0.56550 0.22105 0.34600
C 	C 	0.17290 0.60690 0.20443 -0.08200
C 	C 	0.13370 0.63070 0.22047 0.02100
H 	H 	0.12270 0.62090 0.24120 0.04600
C 	C 	0.11080 0.66920 0.20540 -0.08300
C 	C 	0.06950 0.69960 0.22310 0.36800
C 	C 	0.18850 0.62070 0.17295 -0.02700
H 	H 	0.21500 0.60400 0.16240 0.05000
C 	C 	0.12620 0.68270 0.17399 -0.02700
H 	H 	0.10980 0.70850 0.16400 0.05000
C 	C 	0.16540 0.65890 0.15705 0.00200
C 	C 	0.18230 0.67420 0.12364 -0.00700
C 	C 	0.23350 0.67010 0.11327 -0.02700
H 	H 	0.25750 0.65530 0.12710 0.03900
C 	C 	0.14840 0.69630 0.10241 -0.03000
H 	H 	0.11360 0.69950 0.10860 0.02800
C 	C 	0.25040 0.68710 0.08327 -0.10500
H 	H 	0.28520 0.68370 0.07720 0.06500
C 	C 	0.16450 0.71420 0.07157 -0.12000
H 	H 	0.14060 0.72910 0.05770 0.05200
C 	C 	0.21570 0.70940 0.06208 0.07400
C 	C 	0.23300 0.73030 0.02977 -0.12000
H 	H 	0.17740 0.65450 0.97770 0.24200
H 	H 	0.15120 0.67110 0.01070 0.24100
H 	H 	0.20130 0.63920 0.01160 0.24000
O 	O 	0.18080 0.55000 0.24761 -0.40700
O 	O 	0.25993 0.45120 0.29288 -0.40500
O 	O 	0.94579 0.76430 0.29143 -0.39400
O 	O 	0.05416 0.68500 0.25053 -0.42000
C 	C 	0.69910 0.06550 0.22105 0.34600
C 	C 	0.67290 0.10690 0.20443 -0.08200
C 	C 	0.63370 0.13070 0.22047 0.02100
H 	H 	0.62270 0.12090 0.24120 0.04800
C 	C 	0.61080 0.16920 0.20540 -0.07900
C 	C 	0.56950 0.19960 0.22310 0.36800
C 	C 	0.68850 0.12070 0.17295 -0.02700
H 	H 	0.71500 0.10400 0.16240 0.04900
C 	C 	0.62620 0.18270 0.17399 -0.02800
H 	H 	0.60980 0.20850 0.16400 0.05300
C 	C 	0.66540 0.15890 0.15705 0.00300
C 	C 	0.68230 0.17420 0.12364 -0.00700
C 	C 	0.73350 0.17010 0.11327 -0.02700
H 	H 	0.75750 0.15530 0.12710 0.03900
C 	C 	0.64840 0.19630 0.10241 -0.03000
H 	H 	0.61360 0.19950 0.10860 0.03200
C 	C 	0.75040 0.18710 0.08327 -0.10600
H 	H 	0.78520 0.18370 0.07720 0.06600
C 	C 	0.66450 0.21420 0.07157 -0.12000
H 	H 	0.64060 0.22910 0.05770 0.05500
C 	C 	0.71570 0.20940 0.06208 0.07500
C 	C 	0.73300 0.23030 0.02977 -0.12100
H 	H 	0.67740 0.15450 0.97770 0.24300
H 	H 	0.65120 0.17110 0.01070 0.24400
H 	H 	0.70130 0.13920 0.01160 0.24100
O 	O 	0.68080 0.05000 0.24761 -0.41200
O 	O 	0.75993 0.95120 0.29288 -0.38300
O 	O 	0.44579 0.26430 0.29143 -0.41700
O 	O 	0.55416 0.18500 0.25053 -0.41000
C 	C 	0.69910 0.56550 0.72105 0.34500
C 	C 	0.67290 0.60690 0.70443 -0.07600
C 	C 	0.63370 0.63070 0.72047 0.01800
H 	H 	0.62270 0.62090 0.74120 0.05100
C 	C 	0.61080 0.66920 0.70540 -0.07400
C 	C 	0.56950 0.69960 0.72310 0.36700
C 	C 	0.68850 0.62070 0.67295 -0.03000
H 	H 	0.71500 0.60400 0.66240 0.05300
C 	C 	0.62620 0.68270 0.67399 -0.03100
H 	H 	0.60980 0.70850 0.66400 0.05500
C 	C 	0.66540 0.65890 0.65705 0.00800
C 	C 	0.68230 0.67420 0.62364 -0.01000
C 	C 	0.73350 0.67010 0.61327 -0.02200
H 	H 	0.75750 0.65530 0.62710 0.03900
C 	C 	0.64840 0.69630 0.60241 -0.02500
H 	H 	0.61360 0.69950 0.60860 0.03100
C 	C 	0.75040 0.68710 0.58327 -0.11300
H 	H 	0.78520 0.68370 0.57720 0.06900
C 	C 	0.66450 0.71420 0.57157 -0.12900
H 	H 	0.64060 0.72910 0.55770 0.05600
C 	C 	0.71570 0.70940 0.56208 0.08200
C 	C 	0.73300 0.73030 0.52977 -0.13800
H 	H 	0.67740 0.65450 0.47770 0.28300
H 	H 	0.65120 0.67110 0.51070 0.27400
H 	H 	0.70130 0.63920 0.51160 0.27300
O 	O 	0.68080 0.55000 0.74761 -0.40300
O 	O 	0.75993 0.45120 0.79288 -0.40200
O 	O 	0.44579 0.76430 0.79143 -0.41600
O 	O 	0.55416 0.68500 0.75053 -0.40800
C 	C 	0.80090 0.93450 0.72105 0.34000
C 	C 	0.82710 0.89310 0.70443 -0.06200
C 	C 	0.86630 0.86930 0.72047 0.00900
H 	H 	0.87730 0.87910 0.74120 0.06200
C 	C 	0.88920 0.83080 0.70540 -0.06000
C 	C 	0.93050 0.80040 0.72310 0.36100
C 	C 	0.81150 0.87930 0.67295 -0.03700
H 	H 	0.78500 0.89600 0.66240 0.05900
C 	C 	0.87380 0.81730 0.67399 -0.03800
H 	H 	0.89020 0.79150 0.66400 0.06200
C 	C 	0.83460 0.84110 0.65705 0.01900
C 	C 	0.81770 0.82580 0.62364 -0.01600
C 	C 	0.76650 0.82990 0.61327 -0.01200
H 	H 	0.74250 0.84470 0.62710 0.03600
C 	C 	0.85160 0.80370 0.60241 -0.01500
H 	H 	0.88640 0.80050 0.60860 0.03500
C 	C 	0.74960 0.81290 0.58327 -0.12300
H 	H 	0.71480 0.81630 0.57720 0.07300
C 	C 	0.83550 0.78580 0.57157 -0.13900
H 	H 	0.85940 0.77090 0.55770 0.06300
C 	C 	0.78430 0.79060 0.56208 0.09700
C 	C 	0.76700 0.76970 0.52977 -0.16700
H 	H 	0.82260 0.84550 0.47770 0.30800
H 	H 	0.84880 0.82890 0.51070 0.30000
H 	H 	0.79870 0.86080 0.51160 0.29800
O 	O 	0.81920 0.95000 0.74761 -0.38000
O 	O 	0.74007 0.04880 0.79288 -0.41200
O 	O 	0.05421 0.73570 0.79143 -0.42700
O 	O 	0.94584 0.81500 0.75053 -0.38300
C 	C 	0.80090 0.43450 0.22105 0.34400
C 	C 	0.82710 0.39310 0.20443 -0.07000
C 	C 	0.86630 0.36930 0.22047 0.01400
H 	H 	0.87730 0.37910 0.24120 0.05700
C 	C 	0.88920 0.33080 0.20540 -0.06500
C 	C 	0.93050 0.30040 0.22310 0.36300
C 	C 	0.81150 0.37930 0.17295 -0.03300
H 	H 	0.78500 0.39600 0.16240 0.05400
C 	C 	0.87380 0.31730 0.17399 -0.03400
H 	H 	0.89020 0.29150 0.16400 0.06000
C 	C 	0.83460 0.34110 0.15705 0.01300
C 	C 	0.81770 0.32580 0.12364 -0.01200
C 	C 	0.76650 0.32990 0.11327 -0.01800
H 	H 	0.74250 0.34470 0.12710 0.03600
C 	C 	0.85160 0.30370 0.10241 -0.02000
H 	H 	0.88640 0.30050 0.10860 0.03600
C 	C 	0.74960 0.31290 0.08327 -0.11600
H 	H 	0.71480 0.31630 0.07720 0.06900
C 	C 	0.83550 0.28580 0.07157 -0.13000
H 	H 	0.85940 0.27090 0.05770 0.06200
C 	C 	0.78430 0.29060 0.06208 0.08900
C 	C 	0.76700 0.26970 0.02977 -0.14900
H 	H 	0.82260 0.34550 0.97770 0.26800
H 	H 	0.84880 0.32890 0.01070 0.26900
H 	H 	0.79870 0.36080 0.01160 0.26500
O 	O 	0.81920 0.45000 0.24761 -0.39800
O 	O 	0.74007 0.54880 0.29288 -0.40200
O 	O 	0.05421 0.23570 0.29143 -0.42800
O 	O 	0.94584 0.31500 0.25053 -0.38600
C 	C 	0.30090 0.93450 0.22105 0.34200
C 	C 	0.32710 0.89310 0.20443 -0.06900
C 	C 	0.36630 0.86930 0.22047 0.01500
H 	H 	0.37730 0.87910 0.24120 0.05600
C 	C 	0.38920 0.83080 0.20540 -0.07000
C 	C 	0.43050 0.80040 0.22310 0.36600
C 	C 	0.31150 0.87930 0.17295 -0.03300
H 	H 	0.28500 0.89600 0.16240 0.05700
C 	C 	0.37380 0.81730 0.17399 -0.03300
H 	H 	0.39020 0.79150 0.16400 0.05600
C 	C 	0.33460 0.84110 0.15705 0.01200
C 	C 	0.31770 0.82580 0.12364 -0.01200
C 	C 	0.26650 0.82990 0.11327 -0.01800
H 	H 	0.24250 0.84470 0.12710 0.03700
C 	C 	0.35160 0.80370 0.10241 -0.02100
H 	H 	0.38640 0.80050 0.10860 0.03200
C 	C 	0.24960 0.81290 0.08327 -0.11500
H 	H 	0.21480 0.81630 0.07720 0.06900
C 	C 	0.33550 0.78580 0.07157 -0.13100
H 	H 	0.35940 0.77090 0.05770 0.05900
C 	C 	0.28430 0.79060 0.06208 0.08900
C 	C 	0.26700 0.76970 0.02977 -0.14900
H 	H 	0.32260 0.84550 0.97770 0.26700
H 	H 	0.34880 0.82890 0.01070 0.26700
H 	H 	0.29870 0.86080 0.01160 0.26500
O 	O 	0.31920 0.95000 0.24761 -0.38400
O 	O 	0.24007 0.04880 0.29288 -0.41400
O 	O 	0.55421 0.73570 0.29143 -0.41500
O 	O 	0.44584 0.81500 0.25053 -0.40500
C 	C 	0.30090 0.43450 0.72105 0.34600
C 	C 	0.32710 0.39310 0.70443 -0.07800
C 	C 	0.36630 0.36930 0.72047 0.01900
H 	H 	0.37730 0.37910 0.74120 0.05100
C 	C 	0.38920 0.33080 0.70540 -0.07600
C 	C 	0.43050 0.30040 0.72310 0.36800
C 	C 	0.31150 0.37930 0.67295 -0.03000
H 	H 	0.28500 0.39600 0.66240 0.05000
C 	C 	0.37380 0.31730 0.67399 -0.03000
H 	H 	0.39020 0.29150 0.66400 0.05400
C 	C 	0.33460 0.34110 0.65705 0.00700
C 	C 	0.31770 0.32580 0.62364 -0.01300
C 	C 	0.26650 0.32990 0.61327 -0.02000
H 	H 	0.24250 0.34470 0.62710 0.03400
C 	C 	0.35160 0.30370 0.60241 -0.02300
H 	H 	0.38640 0.30050 0.60860 0.02900
C 	C 	0.24960 0.31290 0.58327 -0.11800
H 	H 	0.21480 0.31630 0.57720 0.06600
C 	C 	0.33550 0.28580 0.57157 -0.13400
H 	H 	0.35940 0.27090 0.55770 0.05500
C 	C 	0.28430 0.29060 0.56208 0.08900
C 	C 	0.26700 0.26970 0.52977 -0.15800
H 	H 	0.32260 0.34550 0.47770 0.28400
H 	H 	0.34880 0.32890 0.51070 0.27600
H 	H 	0.29870 0.36080 0.51160 0.27300
O 	O 	0.31920 0.45000 0.74761 -0.40300
O 	O 	0.24007 0.54880 0.79288 -0.40400
O 	O 	0.55421 0.23570 0.79143 -0.41700
O 	O 	0.44584 0.31500 0.75053 -0.40800
C 	C 	0.19910 0.93450 0.72105 0.34200
C 	C 	0.17290 0.89310 0.70443 -0.07300
C 	C 	0.13370 0.86930 0.72047 0.01700
H 	H 	0.12270 0.87910 0.74120 0.05100
C 	C 	0.11080 0.83080 0.70540 -0.07800
C 	C 	0.06950 0.80040 0.72310 0.36700
C 	C 	0.18850 0.87930 0.67295 -0.03200
H 	H 	0.21500 0.89600 0.66240 0.05500
C 	C 	0.12620 0.81730 0.67399 -0.03000
H 	H 	0.10980 0.79150 0.66400 0.05100
C 	C 	0.16540 0.84110 0.65705 0.00800
C 	C 	0.18230 0.82580 0.62364 -0.01300
C 	C 	0.23350 0.82990 0.61327 -0.01900
H 	H 	0.25750 0.84470 0.62710 0.03800
C 	C 	0.14840 0.80370 0.60241 -0.02300
H 	H 	0.11360 0.80050 0.60860 0.02500
C 	C 	0.25040 0.81290 0.58327 -0.11600
H 	H 	0.28520 0.81630 0.57720 0.07000
C 	C 	0.16450 0.78580 0.57157 -0.13400
H 	H 	0.14060 0.77090 0.55770 0.05200
C 	C 	0.21570 0.79060 0.56208 0.08700
C 	C 	0.23300 0.76970 0.52977 -0.15100
H 	H 	0.17740 0.84550 0.47770 0.28500
H 	H 	0.15120 0.82890 0.51070 0.27500
H 	H 	0.20130 0.86080 0.51160 0.27700
O 	O 	0.18080 0.95000 0.74761 -0.38800
O 	O 	0.25993 0.04880 0.79288 -0.41500
O 	O 	0.94579 0.73570 0.79143 -0.39400
O 	O 	0.05416 0.81500 0.75053 -0.41700
C 	C 	0.19910 0.43450 0.22105 0.34600
C 	C 	0.17290 0.39310 0.20443 -0.08200
C 	C 	0.13370 0.36930 0.22047 0.02200
H 	H 	0.12270 0.37910 0.24120 0.04600
C 	C 	0.11080 0.33080 0.20540 -0.08300
C 	C 	0.06950 0.30040 0.22310 0.36900
C 	C 	0.18850 0.37930 0.17295 -0.02700
H 	H 	0.21500 0.39600 0.16240 0.05000
C 	C 	0.12620 0.31730 0.17399 -0.02700
H 	H 	0.10980 0.29150 0.16400 0.04900
C 	C 	0.16540 0.34110 0.15705 0.00200
C 	C 	0.18230 0.32580 0.12364 -0.00900
C 	C 	0.23350 0.32990 0.11327 -0.02400
H 	H 	0.25750 0.34470 0.12710 0.03800
C 	C 	0.14840 0.30370 0.10241 -0.02800
H 	H 	0.11360 0.30050 0.10860 0.02600
C 	C 	0.25040 0.31290 0.08327 -0.10900
H 	H 	0.28520 0.31630 0.07720 0.06700
C 	C 	0.16450 0.28580 0.07157 -0.12500
H 	H 	0.14060 0.27090 0.05770 0.05100
C 	C 	0.21570 0.29060 0.06208 0.08000
C 	C 	0.23300 0.26970 0.02977 -0.13300
H 	H 	0.17740 0.34550 0.97770 0.24500
H 	H 	0.15120 0.32890 0.01070 0.24400
H 	H 	0.20130 0.36080 0.01160 0.24400
O 	O 	0.18080 0.45000 0.24761 -0.40700
O 	O 	0.25993 0.54880 0.29288 -0.40500
O 	O 	0.94579 0.23570 0.29143 -0.39500
O 	O 	0.05416 0.31500 0.25053 -0.42000
C 	C 	0.69910 0.93450 0.22105 0.34100
C 	C 	0.67290 0.89310 0.20443 -0.06700
C 	C 	0.63370 0.86930 0.22047 0.01400
H 	H 	0.62270 0.87910 0.24120 0.05600
C 	C 	0.61080 0.83080 0.20540 -0.07000
C 	C 	0.56950 0.80040 0.22310 0.36600
C 	C 	0.68850 0.87930 0.17295 -0.03400
H 	H 	0.71500 0.89600 0.16240 0.05900
C 	C 	0.62620 0.81730 0.17399 -0.03300
H 	H 	0.60980 0.79150 0.16400 0.05600
C 	C 	0.66540 0.84110 0.15705 0.01300
C 	C 	0.68230 0.82580 0.12364 -0.01100
C 	C 	0.73350 0.82990 0.11327 -0.01800
H 	H 	0.75750 0.84470 0.12710 0.04100
C 	C 	0.64840 0.80370 0.10241 -0.02100
H 	H 	0.61360 0.80050 0.10860 0.03200
C 	C 	0.75040 0.81290 0.08327 -0.11400
H 	H 	0.78520 0.81630 0.07720 0.07400
C 	C 	0.66450 0.78580 0.07157 -0.12900
H 	H 	0.64060 0.77090 0.05770 0.05800
C 	C 	0.71570 0.79060 0.06208 0.08700
C 	C 	0.73300 0.76970 0.02977 -0.14200
H 	H 	0.67740 0.84550 0.97770 0.26800
H 	H 	0.65120 0.82890 0.01070 0.26800
H 	H 	0.70130 0.86080 0.01160 0.26800
O 	O 	0.68080 0.95000 0.24761 -0.38400
O 	O 	0.75993 0.04880 0.29288 -0.41200
O 	O 	0.44579 0.73570 0.29143 -0.41600
O 	O 	0.55416 0.81500 0.25053 -0.40500
C 	C 	0.69910 0.43450 0.72105 0.34500
C 	C 	0.67290 0.39310 0.70443 -0.07600
C 	C 	0.63370 0.36930 0.72047 0.01800
H 	H 	0.62270 0.37910 0.74120 0.05100
C 	C 	0.61080 0.33080 0.70540 -0.07500
C 	C 	0.56950 0.30040 0.72310 0.36800
C 	C 	0.68850 0.37930 0.67295 -0.03100
H 	H 	0.71500 0.39600 0.66240 0.05300
C 	C 	0.62620 0.31730 0.67399 -0.03000
H 	H 	0.60980 0.29150 0.66400 0.05400
C 	C 	0.66540 0.34110 0.65705 0.00800
C 	C 	0.68230 0.32580 0.62364 -0.01200
C 	C 	0.73350 0.32990 0.61327 -0.01900
H 	H 	0.75750 0.34470 0.62710 0.03800
C 	C 	0.64840 0.30370 0.60241 -0.02300
H 	H 	0.61360 0.30050 0.60860 0.02900
C 	C 	0.75040 0.31290 0.58327 -0.11700
H 	H 	0.78520 0.31630 0.57720 0.07100
C 	C 	0.66450 0.28580 0.57157 -0.13300
H 	H 	0.64060 0.27090 0.55770 0.05500
C 	C 	0.71570 0.29060 0.56208 0.08800
C 	C 	0.73300 0.26970 0.52977 -0.15100
H 	H 	0.67740 0.34550 0.47770 0.28600
H 	H 	0.65120 0.32890 0.51070 0.27700
H 	H 	0.70130 0.36080 0.51160 0.27600
O 	O 	0.68080 0.45000 0.74761 -0.40300
O 	O 	0.75993 0.54880 0.79288 -0.40200
O 	O 	0.44579 0.23570 0.79143 -0.41700
O 	O 	0.55416 0.31500 0.75053 -0.40800
C 	C 	0.80090 0.06550 0.72105 0.34500
C 	C 	0.82710 0.10690 0.70443 -0.07700
C 	C 	0.86630 0.13070 0.72047 0.01600
H 	H 	0.87730 0.12090 0.74120 0.05300
C 	C 	0.88920 0.16920 0.70540 -0.06900
C 	C 	0.93050 0.19960 0.72310 0.36300
C 	C 	0.81150 0.12070 0.67295 -0.03000
H 	H 	0.78500 0.10400 0.66240 0.04900
C 	C 	0.87380 0.18270 0.67399 -0.03200
H 	H 	0.89020 0.20850 0.66400 0.05900
C 	C 	0.83460 0.15890 0.65705 0.00900
C 	C 	0.81770 0.17420 0.62364 -0.01200
C 	C 	0.76650 0.17010 0.61327 -0.02200
H 	H 	0.74250 0.15530 0.62710 0.03400
C 	C 	0.85160 0.19630 0.60241 -0.02400
H 	H 	0.88640 0.19950 0.60860 0.03500
C 	C 	0.74960 0.18710 0.58327 -0.11600
H 	H 	0.71480 0.18370 0.57720 0.06500
C 	C 	0.83550 0.21420 0.57157 -0.13000
H 	H 	0.85940 0.22910 0.55770 0.06000
C 	C 	0.78430 0.20940 0.56208 0.08500
C 	C 	0.76700 0.23030 0.52977 -0.14600
H 	H 	0.82260 0.15450 0.47770 0.28300
H 	H 	0.84880 0.17110 0.51070 0.27600
H 	H 	0.79870 0.13920 0.51160 0.27100
O 	O 	0.81920 0.05000 0.74761 -0.40800
O 	O 	0.74007 0.95120 0.79288 -0.38300
O 	O 	0.05421 0.26430 0.79143 -0.42900
O 	O 	0.94584 0.18500 0.75053 -0.38800
C 	C 	0.80090 0.56550 0.22105 0.34400
C 	C 	0.82710 0.60690 0.20443 -0.07000
C 	C 	0.86630 0.63070 0.22047 0.01300
H 	H 	0.87730 0.62090 0.24120 0.05700
C 	C 	0.88920 0.66920 0.20540 -0.06400
C 	C 	0.93050 0.69960 0.22310 0.36200
C 	C 	0.81150 0.62070 0.17295 -0.03300
H 	H 	0.78500 0.60400 0.16240 0.05400
C 	C 	0.87380 0.68270 0.17399 -0.03400
H 	H 	0.89020 0.70850 0.16400 0.06200
C 	C 	0.83460 0.65890 0.15705 0.01300
C 	C 	0.81770 0.67420 0.12364 -0.01000
C 	C 	0.76650 0.67010 0.11327 -0.02100
H 	H 	0.74250 0.65530 0.12710 0.03700
C 	C 	0.85160 0.69630 0.10241 -0.02200
H 	H 	0.88640 0.69950 0.10860 0.03900
C 	C 	0.74960 0.68710 0.08327 -0.11200
H 	H 	0.71480 0.68370 0.07720 0.06800
C 	C 	0.83550 0.71420 0.07157 -0.12600
H 	H 	0.85940 0.72910 0.05770 0.06300
C 	C 	0.78430 0.70940 0.06208 0.08400
C 	C 	0.76700 0.73030 0.02977 -0.13600
H 	H 	0.82260 0.65450 0.97770 0.26500
H 	H 	0.84880 0.67110 0.01070 0.26700
H 	H 	0.79870 0.63920 0.01160 0.26200
O 	O 	0.81920 0.55000 0.24761 -0.39800
O 	O 	0.74007 0.45120 0.29288 -0.40200
O 	O 	0.05421 0.76430 0.29143 -0.42700
O 	O 	0.94584 0.68500 0.25053 -0.38600
C 	C 	0.30090 0.06550 0.22105 0.34700
C 	C 	0.32710 0.10690 0.20443 -0.08400
C 	C 	0.36630 0.13070 0.22047 0.02200
H 	H 	0.37730 0.12090 0.24120 0.04700
C 	C 	0.38920 0.16920 0.20540 -0.07900
C 	C 	0.43050 0.19960 0.22310 0.36800
C 	C 	0.31150 0.12070 0.17295 -0.02600
H 	H 	0.28500 0.10400 0.16240 0.04600
C 	C 	0.37380 0.18270 0.17399 -0.02700
H 	H 	0.39020 0.20850 0.16400 0.05300
C 	C 	0.33460 0.15890 0.15705 0.00200
C 	C 	0.31770 0.17420 0.12364 -0.00700
C 	C 	0.26650 0.17010 0.11327 -0.02700
H 	H 	0.24250 0.15530 0.12710 0.03500
C 	C 	0.35160 0.19630 0.10241 -0.02900
H 	H 	0.38640 0.19950 0.10860 0.03200
C 	C 	0.24960 0.18710 0.08327 -0.10800
H 	H 	0.21480 0.18370 0.07720 0.06100
C 	C 	0.33550 0.21420 0.07157 -0.12200
H 	H 	0.35940 0.22910 0.05770 0.05600
C 	C 	0.28430 0.20940 0.06208 0.07600
C 	C 	0.26700 0.23030 0.02977 -0.12800
H 	H 	0.32260 0.15450 0.97770 0.24200
H 	H 	0.34880 0.17110 0.01070 0.24300
H 	H 	0.29870 0.13920 0.01160 0.23800
O 	O 	0.31920 0.05000 0.24761 -0.41300
O 	O 	0.24007 0.95120 0.29288 -0.38600
O 	O 	0.55421 0.26430 0.29143 -0.41700
O 	O 	0.44584 0.18500 0.25053 -0.41100
C 	C 	0.30090 0.56550 0.72105 0.34600
C 	C 	0.32710 0.60690 0.70443 -0.07800
C 	C 	0.36630 0.63070 0.72047 0.01900
H 	H 	0.37730 0.62090 0.74120 0.05100
C 	C 	0.38920 0.66920 0.70540 -0.07500
C 	C 	0.43050 0.69960 0.72310 0.36700
C 	C 	0.31150 0.62070 0.67295 -0.02900
H 	H 	0.28500 0.60400 0.66240 0.05000
C 	C 	0.37380 0.68270 0.67399 -0.03000
H 	H 	0.39020 0.70850 0.66400 0.05500
C 	C 	0.33460 0.65890 0.65705 0.00600
C 	C 	0.31770 0.67420 0.62364 -0.01100
C 	C 	0.26650 0.67010 0.61327 -0.02200
H 	H 	0.24250 0.65530 0.62710 0.03500
C 	C 	0.35160 0.69630 0.60241 -0.02400
H 	H 	0.38640 0.69950 0.60860 0.03100
C 	C 	0.24960 0.68710 0.58327 -0.11400
H 	H 	0.21480 0.68370 0.57720 0.06400
C 	C 	0.33550 0.71420 0.57157 -0.13000
H 	H 	0.35940 0.72910 0.55770 0.05600
C 	C 	0.28430 0.70940 0.56208 0.08400
C 	C 	0.26700 0.73030 0.52977 -0.14500
H 	H 	0.32260 0.65450 0.47770 0.28100
H 	H 	0.34880 0.67110 0.51070 0.27300
H 	H 	0.29870 0.63920 0.51160 0.27000
O 	O 	0.31920 0.55000 0.74761 -0.40300
O 	O 	0.24007 0.45120 0.79288 -0.40400
O 	O 	0.55421 0.76430 0.79143 -0.41600
O 	O 	0.44584 0.68500 0.75053 -0.40800
C 	C 	0.80090 0.93450 0.27895 0.34000
C 	C 	0.82710 0.89310 0.29557 -0.06200
C 	C 	0.86630 0.86930 0.27953 0.00900
H 	H 	0.87730 0.87910 0.25880 0.06200
C 	C 	0.88920 0.83080 0.29460 -0.06000
C 	C 	0.93050 0.80040 0.27690 0.36100
C 	C 	0.81150 0.87930 0.32705 -0.03700
H 	H 	0.78500 0.89600 0.33760 0.05900
C 	C 	0.87380 0.81730 0.32601 -0.03800
H 	H 	0.89020 0.79150 0.33600 0.06200
C 	C 	0.83460 0.84110 0.34295 0.01900
C 	C 	0.81770 0.82580 0.37636 -0.01600
C 	C 	0.76650 0.82990 0.38673 -0.01200
H 	H 	0.74250 0.84470 0.37290 0.03600
C 	C 	0.85160 0.80370 0.39759 -0.01500
H 	H 	0.88640 0.80050 0.39140 0.03500
C 	C 	0.74960 0.81290 0.41673 -0.12300
H 	H 	0.71480 0.81630 0.42280 0.07300
C 	C 	0.83550 0.78580 0.42843 -0.13900
H 	H 	0.85940 0.77090 0.44230 0.06300
C 	C 	0.78430 0.79060 0.43792 0.09700
C 	C 	0.76700 0.76970 0.47023 -0.16700
H 	H 	0.82260 0.84550 0.52230 0.30800
H 	H 	0.84880 0.82890 0.48930 0.30000
H 	H 	0.79870 0.86080 0.48840 0.29800
O 	O 	0.81920 0.95000 0.25239 -0.38000
O 	O 	0.74007 0.04880 0.20712 -0.41100
O 	O 	0.05421 0.73570 0.20857 -0.42600
O 	O 	0.94584 0.81500 0.24947 -0.38300
C 	C 	0.80090 0.43450 0.77895 0.34400
C 	C 	0.82710 0.39310 0.79557 -0.07100
C 	C 	0.86630 0.36930 0.77953 0.01400
H 	H 	0.87730 0.37910 0.75880 0.05700
C 	C 	0.88920 0.33080 0.79460 -0.06500
C 	C 	0.93050 0.30040 0.77690 0.36300
C 	C 	0.81150 0.37930 0.82705 -0.03300
H 	H 	0.78500 0.39600 0.83760 0.05400
C 	C 	0.87380 0.31730 0.82601 -0.03400
H 	H 	0.89020 0.29150 0.83600 0.06000
C 	C 	0.83460 0.34110 0.84295 0.01300
C 	C 	0.81770 0.32580 0.87636 -0.01200
C 	C 	0.76650 0.32990 0.88673 -0.01800
H 	H 	0.74250 0.34470 0.87290 0.03500
C 	C 	0.85160 0.30370 0.89759 -0.02100
H 	H 	0.88640 0.30050 0.89140 0.03500
C 	C 	0.74960 0.31290 0.91673 -0.11800
H 	H 	0.71480 0.31630 0.92280 0.06800
C 	C 	0.83550 0.28580 0.92843 -0.13100
H 	H 	0.85940 0.27090 0.94230 0.06000
C 	C 	0.78430 0.29060 0.93792 0.09000
C 	C 	0.76700 0.26970 0.97023 -0.15900
H 	H 	0.82260 0.34550 0.02230 0.25900
H 	H 	0.84880 0.32890 0.98930 0.24400
H 	H 	0.79870 0.36080 0.98840 0.24200
O 	O 	0.81920 0.45000 0.75239 -0.39800
O 	O 	0.74007 0.54880 0.70712 -0.40200
O 	O 	0.05421 0.23570 0.70857 -0.42800
O 	O 	0.94584 0.31500 0.74947 -0.38600
C 	C 	0.30090 0.93450 0.77895 0.34200
C 	C 	0.32710 0.89310 0.79557 -0.06900
C 	C 	0.36630 0.86930 0.77953 0.01500
H 	H 	0.37730 0.87910 0.75880 0.05600
C 	C 	0.38920 0.83080 0.79460 -0.07100
C 	C 	0.43050 0.80040 0.77690 0.36600
C 	C 	0.31150 0.87930 0.82705 -0.03300
H 	H 	0.28500 0.89600 0.83760 0.05600
C 	C 	0.37380 0.81730 0.82601 -0.03200
H 	H 	0.39020 0.79150 0.83600 0.05600
C 	C 	0.33460 0.84110 0.84295 0.01100
C 	C 	0.31770 0.82580 0.87636 -0.01200
C 	C 	0.26650 0.82990 0.88673 -0.01800
H 	H 	0.24250 0.84470 0.87290 0.03600
C 	C 	0.35160 0.80370 0.89759 -0.02100
H 	H 	0.38640 0.80050 0.89140 0.03100
C 	C 	0.24960 0.81290 0.91673 -0.11700
H 	H 	0.21480 0.81630 0.92280 0.06700
C 	C 	0.33550 0.78580 0.92843 -0.13200
H 	H 	0.35940 0.77090 0.94230 0.05600
C 	C 	0.28430 0.79060 0.93792 0.09000
C 	C 	0.26700 0.76970 0.97023 -0.15900
H 	H 	0.32260 0.84550 0.02230 0.25800
H 	H 	0.34880 0.82890 0.98930 0.24200
H 	H 	0.29870 0.86080 0.98840 0.24200
O 	O 	0.31920 0.95000 0.75239 -0.38400
O 	O 	0.24007 0.04880 0.70712 -0.41400
O 	O 	0.55421 0.73570 0.70857 -0.41500
O 	O 	0.44584 0.81500 0.74947 -0.40500
C 	C 	0.30090 0.43450 0.27895 0.34600
C 	C 	0.32710 0.39310 0.29557 -0.07700
C 	C 	0.36630 0.36930 0.27953 0.01900
H 	H 	0.37730 0.37910 0.25880 0.05100
C 	C 	0.38920 0.33080 0.29460 -0.07600
C 	C 	0.43050 0.30040 0.27690 0.36800
C 	C 	0.31150 0.37930 0.32705 -0.03000
H 	H 	0.28500 0.39600 0.33760 0.05000
C 	C 	0.37380 0.31730 0.32601 -0.03000
H 	H 	0.39020 0.29150 0.33600 0.05400
C 	C 	0.33460 0.34110 0.34295 0.00700
C 	C 	0.31770 0.32580 0.37636 -0.01300
C 	C 	0.26650 0.32990 0.38673 -0.02000
H 	H 	0.24250 0.34470 0.37290 0.03400
C 	C 	0.35160 0.30370 0.39759 -0.02300
H 	H 	0.38640 0.30050 0.39140 0.02900
C 	C 	0.24960 0.31290 0.41673 -0.11800
H 	H 	0.21480 0.31630 0.42280 0.06600
C 	C 	0.33550 0.28580 0.42843 -0.13400
H 	H 	0.35940 0.27090 0.44230 0.05500
C 	C 	0.28430 0.29060 0.43792 0.08900
C 	C 	0.26700 0.26970 0.47023 -0.15800
H 	H 	0.32260 0.34550 0.52230 0.28400
H 	H 	0.34880 0.32890 0.48930 0.27600
H 	H 	0.29870 0.36080 0.48840 0.27300
O 	O 	0.31920 0.45000 0.25239 -0.40300
O 	O 	0.24007 0.54880 0.20712 -0.40400
O 	O 	0.55421 0.23570 0.20857 -0.41700
O 	O 	0.44584 0.31500 0.24947 -0.40800
C 	C 	0.19910 0.06550 0.27895 0.34700
C 	C 	0.17290 0.10690 0.29557 -0.08800
C 	C 	0.13370 0.13070 0.27953 0.02400
H 	H 	0.12270 0.12090 0.25880 0.04300
C 	C 	0.11080 0.16920 0.29460 -0.08700
C 	C 	0.06950 0.19960 0.27690 0.36900
C 	C 	0.18850 0.12070 0.32705 -0.02500
H 	H 	0.21500 0.10400 0.33760 0.04500
C 	C 	0.12620 0.18270 0.32601 -0.02500
H 	H 	0.10980 0.20850 0.33600 0.04800
C 	C 	0.16540 0.15890 0.34295 -0.00300
C 	C 	0.18230 0.17420 0.37636 -0.00900
C 	C 	0.23350 0.17010 0.38673 -0.02800
H 	H 	0.25750 0.15530 0.37290 0.03600
C 	C 	0.14840 0.19630 0.39759 -0.03100
H 	H 	0.11360 0.19950 0.39140 0.02500
C 	C 	0.25040 0.18710 0.41673 -0.10900
H 	H 	0.28520 0.18370 0.42280 0.06300
C 	C 	0.16450 0.21420 0.42843 -0.12500
H 	H 	0.14060 0.22910 0.44230 0.04800
C 	C 	0.21570 0.20940 0.43792 0.07500
C 	C 	0.23300 0.23030 0.47023 -0.13000
H 	H 	0.17740 0.15450 0.52230 0.26000
H 	H 	0.15120 0.17110 0.48930 0.25100
H 	H 	0.20130 0.13920 0.48840 0.25000
O 	O 	0.18080 0.05000 0.25239 -0.41600
O 	O 	0.25993 0.95120 0.20712 -0.38500
O 	O 	0.94579 0.26430 0.20857 -0.39500
O 	O 	0.05416 0.18500 0.24947 -0.42200
C 	C 	0.19910 0.56550 0.77895 0.34600
C 	C 	0.17290 0.60690 0.79557 -0.08200
C 	C 	0.13370 0.63070 0.77953 0.02200
H 	H 	0.12270 0.62090 0.75880 0.04600
C 	C 	0.11080 0.66920 0.79460 -0.08300
C 	C 	0.06950 0.69960 0.77690 0.36800
C 	C 	0.18850 0.62070 0.82705 -0.02700
H 	H 	0.21500 0.60400 0.83760 0.05000
C 	C 	0.12620 0.68270 0.82601 -0.02700
H 	H 	0.10980 0.70850 0.83600 0.04900
C 	C 	0.16540 0.65890 0.84295 0.00100
C 	C 	0.18230 0.67420 0.87636 -0.00700
C 	C 	0.23350 0.67010 0.88673 -0.02700
H 	H 	0.25750 0.65530 0.87290 0.03800
C 	C 	0.14840 0.69630 0.89759 -0.03100
H 	H 	0.11360 0.69950 0.89140 0.02700
C 	C 	0.25040 0.68710 0.91673 -0.10700
H 	H 	0.28520 0.68370 0.92280 0.06400
C 	C 	0.16450 0.71420 0.92843 -0.12200
H 	H 	0.14060 0.72910 0.94230 0.04900
C 	C 	0.21570 0.70940 0.93792 0.07500
C 	C 	0.23300 0.73030 0.97023 -0.13000
H 	H 	0.17740 0.65450 0.02230 0.23300
H 	H 	0.15120 0.67110 0.98930 0.21600
H 	H 	0.20130 0.63920 0.98840 0.21700
O 	O 	0.18080 0.55000 0.75239 -0.40700
O 	O 	0.25993 0.45120 0.70712 -0.40500
O 	O 	0.94579 0.76430 0.70857 -0.39400
O 	O 	0.05416 0.68500 0.74947 -0.42000
C 	C 	0.69910 0.06550 0.77895 0.34600
C 	C 	0.67290 0.10690 0.79557 -0.08300
C 	C 	0.63370 0.13070 0.77953 0.02100
H 	H 	0.62270 0.12090 0.75880 0.04700
C 	C 	0.61080 0.16920 0.79460 -0.07900
C 	C 	0.56950 0.19960 0.77690 0.36800
C 	C 	0.68850 0.12070 0.82705 -0.02700
H 	H 	0.71500 0.10400 0.83760 0.04800
C 	C 	0.62620 0.18270 0.82601 -0.02800
H 	H 	0.60980 0.20850 0.83600 0.05300
C 	C 	0.66540 0.15890 0.84295 0.00200
C 	C 	0.68230 0.17420 0.87636 -0.00700
C 	C 	0.73350 0.17010 0.88673 -0.02700
H 	H 	0.75750 0.15530 0.87290 0.03800
C 	C 	0.64840 0.19630 0.89759 -0.03000
H 	H 	0.61360 0.19950 0.89140 0.03100
C 	C 	0.75040 0.18710 0.91673 -0.10800
H 	H 	0.78520 0.18370 0.92280 0.06500
C 	C 	0.66450 0.21420 0.92843 -0.12100
H 	H 	0.64060 0.22910 0.94230 0.05200
C 	C 	0.71570 0.20940 0.93792 0.07600
C 	C 	0.73300 0.23030 0.97023 -0.13000
H 	H 	0.67740 0.15450 0.02230 0.23500
H 	H 	0.65120 0.17110 0.98930 0.21900
H 	H 	0.70130 0.13920 0.98840 0.21800
O 	O 	0.68080 0.05000 0.75239 -0.41200
O 	O 	0.75993 0.95120 0.70712 -0.38300
O 	O 	0.44579 0.26430 0.70857 -0.41700
O 	O 	0.55416 0.18500 0.74947 -0.41100
C 	C 	0.69910 0.56550 0.27895 0.34500
C 	C 	0.67290 0.60690 0.29557 -0.07600
C 	C 	0.63370 0.63070 0.27953 0.01700
H 	H 	0.62270 0.62090 0.25880 0.05200
C 	C 	0.61080 0.66920 0.29460 -0.07400
C 	C 	0.56950 0.69960 0.27690 0.36700
C 	C 	0.68850 0.62070 0.32705 -0.03100
H 	H 	0.71500 0.60400 0.33760 0.05300
C 	C 	0.62620 0.68270 0.32601 -0.03100
H 	H 	0.60980 0.70850 0.33600 0.05500
C 	C 	0.66540 0.65890 0.34295 0.00800
C 	C 	0.68230 0.67420 0.37636 -0.01000
C 	C 	0.73350 0.67010 0.38673 -0.02200
H 	H 	0.75750 0.65530 0.37290 0.03900
C 	C 	0.64840 0.69630 0.39759 -0.02500
H 	H 	0.61360 0.69950 0.39140 0.03100
C 	C 	0.75040 0.68710 0.41673 -0.11300
H 	H 	0.78520 0.68370 0.42280 0.06900
C 	C 	0.66450 0.71420 0.42843 -0.12900
H 	H 	0.64060 0.72910 0.44230 0.05600
C 	C 	0.71570 0.70940 0.43792 0.08200
C 	C 	0.73300 0.73030 0.47023 -0.13800
H 	H 	0.67740 0.65450 0.52230 0.28300
H 	H 	0.65120 0.67110 0.48930 0.27400
H 	H 	0.70130 0.63920 0.48840 0.27300
O 	O 	0.68080 0.55000 0.25239 -0.40200
O 	O 	0.75993 0.45120 0.20712 -0.40200
O 	O 	0.44579 0.76430 0.20857 -0.41500
O 	O 	0.55416 0.68500 0.24947 -0.40800
Cu	Cu	-0.00000 0.21917 0.22422 0.88100
Cu	Cu	-0.00000 0.71917 0.72422 0.88100
Cu	Cu	0.50000 0.21917 0.72422 0.90100
Cu	Cu	0.50000 0.71917 0.22422 0.90200
Cu	Cu	-0.00000 0.78083 0.22422 0.88200
Cu	Cu	-0.00000 0.28083 0.72422 0.88100
Cu	Cu	0.50000 0.78083 0.72422 0.90200
Cu	Cu	0.50000 0.28083 0.22422 0.90200
Cu	Cu	0.00000 0.21917 0.77578 0.88100
Cu	Cu	0.00000 0.71917 0.27578 0.88100
Cu	Cu	0.50000 0.21917 0.27578 0.90100
Cu	Cu	0.50000 0.71917 0.77578 0.90100
Cu	Cu	-0.00000 0.78083 0.77578 0.88200
Cu	Cu	-0.00000 0.28083 0.27578 0.88100
Cu	Cu	0.50000 0.78083 0.27578 0.90200
Cu	Cu	0.50000 0.28083 0.77578 0.90200
Cu	Cu	0.78524 -0.00000 0.22595 0.88700
Cu	Cu	0.78524 0.50000 0.72595 0.90400
Cu	Cu	0.28524 -0.00000 0.72595 0.88500
Cu	Cu	0.28524 0.50000 0.22595 0.90300
Cu	Cu	0.21476 -0.00000 0.22595 0.88400
Cu	Cu	0.21476 0.50000 0.72595 0.90100
Cu	Cu	0.71476 -0.00000 0.72595 0.88500
Cu	Cu	0.71476 0.50000 0.22595 0.90300
Cu	Cu	0.21476 0.00000 0.77405 0.88400
Cu	Cu	0.21476 0.50000 0.27405 0.90100
Cu	Cu	0.71476 0.00000 0.27405 0.88500
Cu	Cu	0.71476 0.50000 0.77405 0.90200
Cu	Cu	0.78524 0.00000 0.77405 0.88700
Cu	Cu	0.78524 0.50000 0.27405 0.90400
Cu	Cu	0.28524 0.00000 0.27405 0.88500
Cu	Cu	0.28524 0.50000 0.77405 0.90200
C 	C 	0.78160 0.20930 0.50000 0.39300
C 	C 	0.81620 0.16430 0.50000 -1.61000
C 	C 	0.78160 0.70930 -0.00000 0.37500
C 	C 	0.81620 0.66430 -0.00000 -1.47200
C 	C 	0.28160 0.20930 -0.00000 0.34100
C 	C 	0.31620 0.16430 -0.00000 -1.35500
C 	C 	0.28160 0.70930 0.50000 0.38900
C 	C 	0.31620 0.66430 0.50000 -1.60100
C 	C 	0.21840 0.79070 0.50000 0.39900
C 	C 	0.18380 0.83570 0.50000 -1.62400
C 	C 	0.21840 0.29070 -0.00000 0.34900
C 	C 	0.18380 0.33570 -0.00000 -1.37300
C 	C 	0.71840 0.79070 -0.00000 0.38300
C 	C 	0.68380 0.83570 -0.00000 -1.49300
C 	C 	0.71840 0.29070 0.50000 0.40000
C 	C 	0.68380 0.33570 0.50000 -1.62700
C 	C 	0.21840 0.20930 0.50000 0.35500
C 	C 	0.18380 0.16430 0.50000 -1.49200
C 	C 	0.21840 0.70930 -0.00000 0.33700
C 	C 	0.18380 0.66430 -0.00000 -1.35300
C 	C 	0.71840 0.20930 -0.00000 0.34000
C 	C 	0.68380 0.16430 -0.00000 -1.36100
C 	C 	0.71840 0.70930 0.50000 0.38800
C 	C 	0.68380 0.66430 0.50000 -1.60800
C 	C 	0.78160 0.79070 0.50000 0.43600
C 	C 	0.81620 0.83570 0.50000 -1.74200
C 	C 	0.78160 0.29070 -0.00000 0.38700
C 	C 	0.81620 0.33570 -0.00000 -1.49200
C 	C 	0.28160 0.79070 -0.00000 0.38500
C 	C 	0.31620 0.83570 -0.00000 -1.48700
C 	C 	0.28160 0.29070 0.50000 0.40100
C 	C 	0.31620 0.33570 0.50000 -1.62000
