data_crystal

_cell_length_a 41.51600
_cell_length_b 41.51600
_cell_length_c 41.51600
_cell_angle_alpha 90.00000
_cell_angle_beta  90.00000
_cell_angle_gamma 90.00000

_symmetry_space_group_name_	'P 1'
_symmetry_space_group_name_H-M	'P 1'

loop_
_symmetry_equiv_pos_as_xyz
  x,y,z

loop_
_atom_site_label
_atom_site_type_symbol
_atom_site_fract_x
_atom_site_fract_y
_atom_site_fract_z
_atom_site_charge
O 	O 	0.94010 0.56119 0.70420 -0.37500
O 	O 	0.97260 0.59318 0.74780 -0.36800
O 	O 	0.03170 0.46570 0.66480 -0.39000
C 	C 	0.93090 0.57390 0.65020 -0.10500
C 	C 	0.91900 0.58450 0.59480 -0.01700
C 	C 	0.93860 0.56930 0.61750 0.05600
C 	C 	0.90600 0.59700 0.66030 0.05400
C 	C 	0.88590 0.61000 0.63590 -0.01600
C 	C 	0.89340 0.60570 0.60300 0.01500
C 	C 	0.94900 0.55410 0.67510 0.38500
C 	C 	0.02960 0.65720 0.72980 0.06300
C 	C 	0.87190 0.61970 0.58060 -0.00600
C 	C 	0.84030 0.60900 0.57720 0.00400
C 	C 	0.82050 0.62290 0.55400 -0.00100
C 	C 	0.83220 0.64730 0.53430 0.00000
C 	C 	0.86380 0.65790 0.53780 -0.00100
C 	C 	0.88360 0.64410 0.56090 0.00300
C 	C 	0.02870 0.68980 0.72120 -0.02200
O 	O 	0.97570 0.94080 0.92200 -0.27100
C 	C 	0.97720 0.86990 0.77180 0.00300
C 	C 	0.97500 0.85180 0.73970 -0.00100
C 	C 	0.97370 0.90360 0.82990 -0.01400
C 	C 	0.97520 0.75670 0.70520 0.00600
C 	C 	0.97470 0.79020 0.69660 -0.00200
C 	C 	0.97300 0.91350 0.86220 0.04500
O 	O 	0.05990 0.43881 0.70420 -0.37400
O 	O 	0.02740 0.40682 0.74780 -0.36700
O 	O 	0.96830 0.53430 0.66480 -0.39000
C 	C 	0.06910 0.42610 0.65020 -0.10400
C 	C 	0.08100 0.41550 0.59480 -0.01600
C 	C 	0.06140 0.43070 0.61750 0.05700
C 	C 	0.09400 0.40300 0.66030 0.05500
C 	C 	0.11410 0.39000 0.63590 -0.01500
C 	C 	0.10660 0.39430 0.60300 0.01600
C 	C 	0.05100 0.44590 0.67510 0.38600
C 	C 	0.97040 0.34280 0.72980 0.06300
C 	C 	0.12810 0.38030 0.58060 -0.00500
C 	C 	0.15970 0.39100 0.57720 0.00500
C 	C 	0.17950 0.37710 0.55400 0.00000
C 	C 	0.16780 0.35270 0.53430 0.00100
C 	C 	0.13620 0.34210 0.53780 -0.00000
C 	C 	0.11640 0.35590 0.56090 0.00400
C 	C 	0.97130 0.31020 0.72120 -0.02200
O 	O 	0.02430 0.05920 0.92200 -0.26900
C 	C 	0.02280 0.13010 0.77180 0.00400
C 	C 	0.02500 0.14820 0.73970 0.00100
C 	C 	0.02630 0.09640 0.82990 -0.01300
C 	C 	0.02480 0.24330 0.70520 0.00700
C 	C 	0.02530 0.20980 0.69660 -0.00100
C 	C 	0.02700 0.08650 0.86220 0.04600
O 	O 	0.05990 0.56119 0.29580 -0.37400
O 	O 	0.02740 0.59318 0.25220 -0.36700
O 	O 	0.96830 0.46570 0.33520 -0.39000
C 	C 	0.06910 0.57390 0.34980 -0.10400
C 	C 	0.08100 0.58450 0.40520 -0.01600
C 	C 	0.06140 0.56930 0.38250 0.05700
C 	C 	0.09400 0.59700 0.33970 0.05500
C 	C 	0.11410 0.61000 0.36410 -0.01500
C 	C 	0.10660 0.60570 0.39700 0.01600
C 	C 	0.05100 0.55410 0.32490 0.38600
C 	C 	0.97040 0.65720 0.27020 0.06300
C 	C 	0.12810 0.61970 0.41940 -0.00500
C 	C 	0.15970 0.60900 0.42280 0.00500
C 	C 	0.17950 0.62290 0.44600 0.00000
C 	C 	0.16780 0.64730 0.46570 0.00100
C 	C 	0.13620 0.65790 0.46220 -0.00000
C 	C 	0.11640 0.64410 0.43910 0.00400
C 	C 	0.97130 0.68980 0.27880 -0.02200
O 	O 	0.02430 0.94080 0.07800 -0.26900
C 	C 	0.02280 0.86990 0.22820 0.00400
C 	C 	0.02500 0.85180 0.26030 0.00100
C 	C 	0.02630 0.90360 0.17010 -0.01300
C 	C 	0.02480 0.75670 0.29480 0.00700
C 	C 	0.02530 0.79020 0.30340 -0.00100
C 	C 	0.02700 0.91350 0.13780 0.04600
O 	O 	0.94010 0.43881 0.29580 -0.37400
O 	O 	0.97260 0.40682 0.25220 -0.36700
O 	O 	0.03170 0.53430 0.33520 -0.38900
C 	C 	0.93090 0.42610 0.34980 -0.10400
C 	C 	0.91900 0.41550 0.40520 -0.01600
C 	C 	0.93860 0.43070 0.38250 0.05700
C 	C 	0.90600 0.40300 0.33970 0.05500
C 	C 	0.88590 0.39000 0.36410 -0.01500
C 	C 	0.89340 0.39430 0.39700 0.01600
C 	C 	0.94900 0.44590 0.32490 0.38600
C 	C 	0.02960 0.34280 0.27020 0.06400
C 	C 	0.87190 0.38030 0.41940 -0.00500
C 	C 	0.84030 0.39100 0.42280 0.00500
C 	C 	0.82050 0.37710 0.44600 0.00000
C 	C 	0.83220 0.35270 0.46570 0.00100
C 	C 	0.86380 0.34210 0.46220 -0.00000
C 	C 	0.88360 0.35590 0.43910 0.00400
C 	C 	0.02870 0.31020 0.27880 -0.02100
O 	O 	0.97570 0.05920 0.07800 -0.27000
C 	C 	0.97720 0.13010 0.22820 0.00400
C 	C 	0.97500 0.14820 0.26030 0.00000
C 	C 	0.97370 0.09640 0.17010 -0.01300
C 	C 	0.97520 0.24330 0.29480 0.00600
C 	C 	0.97470 0.20980 0.30340 -0.00200
C 	C 	0.97300 0.08650 0.13780 0.04500
O 	O 	0.70420 0.94010 0.56119 -0.37400
O 	O 	0.74780 0.97260 0.59318 -0.36700
O 	O 	0.66480 0.03170 0.46570 -0.38900
C 	C 	0.65020 0.93090 0.57390 -0.10400
C 	C 	0.59480 0.91900 0.58450 -0.01600
C 	C 	0.61750 0.93860 0.56930 0.05700
C 	C 	0.66030 0.90600 0.59700 0.05500
C 	C 	0.63590 0.88590 0.61000 -0.01500
C 	C 	0.60300 0.89340 0.60570 0.01600
C 	C 	0.67510 0.94900 0.55410 0.38600
C 	C 	0.72980 0.02960 0.65720 0.06400
C 	C 	0.58060 0.87190 0.61970 -0.00500
C 	C 	0.57720 0.84030 0.60900 0.00500
C 	C 	0.55400 0.82050 0.62290 0.00000
C 	C 	0.53430 0.83220 0.64730 0.00100
C 	C 	0.53780 0.86380 0.65790 -0.00000
C 	C 	0.56090 0.88360 0.64410 0.00400
C 	C 	0.72120 0.02870 0.68980 -0.02100
O 	O 	0.92200 0.97570 0.94080 -0.27000
C 	C 	0.77180 0.97720 0.86990 0.00400
C 	C 	0.73970 0.97500 0.85180 0.00000
C 	C 	0.82990 0.97370 0.90360 -0.01300
C 	C 	0.70520 0.97520 0.75670 0.00600
C 	C 	0.69660 0.97470 0.79020 -0.00200
C 	C 	0.86220 0.97300 0.91350 0.04500
O 	O 	0.70420 0.05990 0.43881 -0.37400
O 	O 	0.74780 0.02740 0.40682 -0.36700
O 	O 	0.66480 0.96830 0.53430 -0.39000
C 	C 	0.65020 0.06910 0.42610 -0.10400
C 	C 	0.59480 0.08100 0.41550 -0.01600
C 	C 	0.61750 0.06140 0.43070 0.05700
C 	C 	0.66030 0.09400 0.40300 0.05500
C 	C 	0.63590 0.11410 0.39000 -0.01500
C 	C 	0.60300 0.10660 0.39430 0.01600
C 	C 	0.67510 0.05100 0.44590 0.38600
C 	C 	0.72980 0.97040 0.34280 0.06300
C 	C 	0.58060 0.12810 0.38030 -0.00500
C 	C 	0.57720 0.15970 0.39100 0.00500
C 	C 	0.55400 0.17950 0.37710 0.00000
C 	C 	0.53430 0.16780 0.35270 0.00100
C 	C 	0.53780 0.13620 0.34210 -0.00000
C 	C 	0.56090 0.11640 0.35590 0.00400
C 	C 	0.72120 0.97130 0.31020 -0.02200
O 	O 	0.92200 0.02430 0.05920 -0.26900
C 	C 	0.77180 0.02280 0.13010 0.00400
C 	C 	0.73970 0.02500 0.14820 0.00100
C 	C 	0.82990 0.02630 0.09640 -0.01300
C 	C 	0.70520 0.02480 0.24330 0.00700
C 	C 	0.69660 0.02530 0.20980 -0.00100
C 	C 	0.86220 0.02700 0.08650 0.04600
O 	O 	0.29580 0.05990 0.56119 -0.37400
O 	O 	0.25220 0.02740 0.59318 -0.36700
O 	O 	0.33520 0.96830 0.46570 -0.39000
C 	C 	0.34980 0.06910 0.57390 -0.10400
C 	C 	0.40520 0.08100 0.58450 -0.01600
C 	C 	0.38250 0.06140 0.56930 0.05700
C 	C 	0.33970 0.09400 0.59700 0.05500
C 	C 	0.36410 0.11410 0.61000 -0.01500
C 	C 	0.39700 0.10660 0.60570 0.01600
C 	C 	0.32490 0.05100 0.55410 0.38600
C 	C 	0.27020 0.97040 0.65720 0.06300
C 	C 	0.41940 0.12810 0.61970 -0.00500
C 	C 	0.42280 0.15970 0.60900 0.00500
C 	C 	0.44600 0.17950 0.62290 0.00000
C 	C 	0.46570 0.16780 0.64730 0.00100
C 	C 	0.46220 0.13620 0.65790 -0.00000
C 	C 	0.43910 0.11640 0.64410 0.00400
C 	C 	0.27880 0.97130 0.68980 -0.02200
O 	O 	0.07800 0.02430 0.94080 -0.26900
C 	C 	0.22820 0.02280 0.86990 0.00400
C 	C 	0.26030 0.02500 0.85180 0.00100
C 	C 	0.17010 0.02630 0.90360 -0.01300
C 	C 	0.29480 0.02480 0.75670 0.00700
C 	C 	0.30340 0.02530 0.79020 -0.00100
C 	C 	0.13780 0.02700 0.91350 0.04600
O 	O 	0.29580 0.94010 0.43881 -0.37400
O 	O 	0.25220 0.97260 0.40682 -0.36700
O 	O 	0.33520 0.03170 0.53430 -0.38900
C 	C 	0.34980 0.93090 0.42610 -0.10400
C 	C 	0.40520 0.91900 0.41550 -0.01600
C 	C 	0.38250 0.93860 0.43070 0.05700
C 	C 	0.33970 0.90600 0.40300 0.05500
C 	C 	0.36410 0.88590 0.39000 -0.01500
C 	C 	0.39700 0.89340 0.39430 0.01600
C 	C 	0.32490 0.94900 0.44590 0.38600
C 	C 	0.27020 0.02960 0.34280 0.06400
C 	C 	0.41940 0.87190 0.38030 -0.00500
C 	C 	0.42280 0.84030 0.39100 0.00500
C 	C 	0.44600 0.82050 0.37710 0.00000
C 	C 	0.46570 0.83220 0.35270 0.00100
C 	C 	0.46220 0.86380 0.34210 -0.00000
C 	C 	0.43910 0.88360 0.35590 0.00400
C 	C 	0.27880 0.02870 0.31020 -0.02100
O 	O 	0.07800 0.97570 0.05920 -0.27000
C 	C 	0.22820 0.97720 0.13010 0.00400
C 	C 	0.26030 0.97500 0.14820 0.00000
C 	C 	0.17010 0.97370 0.09640 -0.01300
C 	C 	0.29480 0.97520 0.24330 0.00600
C 	C 	0.30340 0.97470 0.20980 -0.00200
C 	C 	0.13780 0.97300 0.08650 0.04500
O 	O 	0.56119 0.70420 0.94010 -0.37400
O 	O 	0.59318 0.74780 0.97260 -0.36700
O 	O 	0.46570 0.66480 0.03170 -0.38900
C 	C 	0.57390 0.65020 0.93090 -0.10400
C 	C 	0.58450 0.59480 0.91900 -0.01600
C 	C 	0.56930 0.61750 0.93860 0.05700
C 	C 	0.59700 0.66030 0.90600 0.05500
C 	C 	0.61000 0.63590 0.88590 -0.01500
C 	C 	0.60570 0.60300 0.89340 0.01600
C 	C 	0.55410 0.67510 0.94900 0.38600
C 	C 	0.65720 0.72980 0.02960 0.06400
C 	C 	0.61970 0.58060 0.87190 -0.00500
C 	C 	0.60900 0.57720 0.84030 0.00500
C 	C 	0.62290 0.55400 0.82050 0.00000
C 	C 	0.64730 0.53430 0.83220 0.00100
C 	C 	0.65790 0.53780 0.86380 -0.00000
C 	C 	0.64410 0.56090 0.88360 0.00400
C 	C 	0.68980 0.72120 0.02870 -0.02100
O 	O 	0.94080 0.92200 0.97570 -0.27000
C 	C 	0.86990 0.77180 0.97720 0.00400
C 	C 	0.85180 0.73970 0.97500 0.00000
C 	C 	0.90360 0.82990 0.97370 -0.01300
C 	C 	0.75670 0.70520 0.97520 0.00600
C 	C 	0.79020 0.69660 0.97470 -0.00200
C 	C 	0.91350 0.86220 0.97300 0.04500
O 	O 	0.43881 0.70420 0.05990 -0.37400
O 	O 	0.40682 0.74780 0.02740 -0.36700
O 	O 	0.53430 0.66480 0.96830 -0.39000
C 	C 	0.42610 0.65020 0.06910 -0.10400
C 	C 	0.41550 0.59480 0.08100 -0.01600
C 	C 	0.43070 0.61750 0.06140 0.05700
C 	C 	0.40300 0.66030 0.09400 0.05500
C 	C 	0.39000 0.63590 0.11410 -0.01500
C 	C 	0.39430 0.60300 0.10660 0.01600
C 	C 	0.44590 0.67510 0.05100 0.38600
C 	C 	0.34280 0.72980 0.97040 0.06300
C 	C 	0.38030 0.58060 0.12810 -0.00500
C 	C 	0.39100 0.57720 0.15970 0.00500
C 	C 	0.37710 0.55400 0.17950 0.00000
C 	C 	0.35270 0.53430 0.16780 0.00100
C 	C 	0.34210 0.53780 0.13620 -0.00000
C 	C 	0.35590 0.56090 0.11640 0.00400
C 	C 	0.31020 0.72120 0.97130 -0.02200
O 	O 	0.05920 0.92200 0.02430 -0.26900
C 	C 	0.13010 0.77180 0.02280 0.00400
C 	C 	0.14820 0.73970 0.02500 0.00100
C 	C 	0.09640 0.82990 0.02630 -0.01300
C 	C 	0.24330 0.70520 0.02480 0.00700
C 	C 	0.20980 0.69660 0.02530 -0.00100
C 	C 	0.08650 0.86220 0.02700 0.04600
O 	O 	0.56119 0.29580 0.05990 -0.37400
O 	O 	0.59318 0.25220 0.02740 -0.36700
O 	O 	0.46570 0.33520 0.96830 -0.39000
C 	C 	0.57390 0.34980 0.06910 -0.10400
C 	C 	0.58450 0.40520 0.08100 -0.01600
C 	C 	0.56930 0.38250 0.06140 0.05700
C 	C 	0.59700 0.33970 0.09400 0.05500
C 	C 	0.61000 0.36410 0.11410 -0.01500
C 	C 	0.60570 0.39700 0.10660 0.01600
C 	C 	0.55410 0.32490 0.05100 0.38600
C 	C 	0.65720 0.27020 0.97040 0.06300
C 	C 	0.61970 0.41940 0.12810 -0.00500
C 	C 	0.60900 0.42280 0.15970 0.00500
C 	C 	0.62290 0.44600 0.17950 0.00000
C 	C 	0.64730 0.46570 0.16780 0.00100
C 	C 	0.65790 0.46220 0.13620 -0.00000
C 	C 	0.64410 0.43910 0.11640 0.00400
C 	C 	0.68980 0.27880 0.97130 -0.02200
O 	O 	0.94080 0.07800 0.02430 -0.26900
C 	C 	0.86990 0.22820 0.02280 0.00400
C 	C 	0.85180 0.26030 0.02500 0.00100
C 	C 	0.90360 0.17010 0.02630 -0.01300
C 	C 	0.75670 0.29480 0.02480 0.00700
C 	C 	0.79020 0.30340 0.02530 -0.00100
C 	C 	0.91350 0.13780 0.02700 0.04600
O 	O 	0.43881 0.29580 0.94010 -0.37400
O 	O 	0.40682 0.25220 0.97260 -0.36700
O 	O 	0.53430 0.33520 0.03170 -0.38900
C 	C 	0.42610 0.34980 0.93090 -0.10400
C 	C 	0.41550 0.40520 0.91900 -0.01600
C 	C 	0.43070 0.38250 0.93860 0.05700
C 	C 	0.40300 0.33970 0.90600 0.05500
C 	C 	0.39000 0.36410 0.88590 -0.01500
C 	C 	0.39430 0.39700 0.89340 0.01600
C 	C 	0.44590 0.32490 0.94900 0.38600
C 	C 	0.34280 0.27020 0.02960 0.06400
C 	C 	0.38030 0.41940 0.87190 -0.00500
C 	C 	0.39100 0.42280 0.84030 0.00500
C 	C 	0.37710 0.44600 0.82050 0.00000
C 	C 	0.35270 0.46570 0.83220 0.00100
C 	C 	0.34210 0.46220 0.86380 -0.00000
C 	C 	0.35590 0.43910 0.88360 0.00400
C 	C 	0.31020 0.27880 0.02870 -0.02100
O 	O 	0.05920 0.07800 0.97570 -0.27000
C 	C 	0.13010 0.22820 0.97720 0.00400
C 	C 	0.14820 0.26030 0.97500 0.00000
C 	C 	0.09640 0.17010 0.97370 -0.01300
C 	C 	0.24330 0.29480 0.97520 0.00600
C 	C 	0.20980 0.30340 0.97470 -0.00200
C 	C 	0.08650 0.13780 0.97300 0.04500
O 	O 	0.06119 0.44010 0.79580 -0.37400
O 	O 	0.09318 0.47260 0.75220 -0.36700
O 	O 	0.96570 0.53170 0.83520 -0.39000
C 	C 	0.07390 0.43090 0.84980 -0.10400
C 	C 	0.08450 0.41900 0.90520 -0.01600
C 	C 	0.06930 0.43860 0.88250 0.05700
C 	C 	0.09700 0.40600 0.83970 0.05500
C 	C 	0.11000 0.38590 0.86410 -0.01500
C 	C 	0.10570 0.39340 0.89700 0.01600
C 	C 	0.05410 0.44900 0.82490 0.38600
C 	C 	0.15720 0.52960 0.77020 0.06400
C 	C 	0.11970 0.37190 0.91940 -0.00500
C 	C 	0.10900 0.34030 0.92280 0.00500
C 	C 	0.12290 0.32050 0.94600 0.00000
C 	C 	0.14730 0.33220 0.96570 0.00100
C 	C 	0.15790 0.36380 0.96220 -0.00000
C 	C 	0.14410 0.38360 0.93910 0.00400
C 	C 	0.18980 0.52870 0.77880 -0.02100
O 	O 	0.44080 0.47570 0.57800 -0.26900
C 	C 	0.36990 0.47720 0.72820 0.00400
C 	C 	0.35180 0.47500 0.76030 0.00100
C 	C 	0.40360 0.47370 0.67010 -0.01300
C 	C 	0.25670 0.47520 0.79480 0.00700
C 	C 	0.29020 0.47470 0.80340 -0.00100
C 	C 	0.41350 0.47300 0.63780 0.04600
O 	O 	0.93881 0.55990 0.79580 -0.37400
O 	O 	0.90682 0.52740 0.75220 -0.36700
O 	O 	0.03430 0.46830 0.83520 -0.38900
C 	C 	0.92610 0.56910 0.84980 -0.10400
C 	C 	0.91550 0.58100 0.90520 -0.01700
C 	C 	0.93070 0.56140 0.88250 0.05700
C 	C 	0.90300 0.59400 0.83970 0.05500
C 	C 	0.89000 0.61410 0.86410 -0.01500
C 	C 	0.89430 0.60660 0.89700 0.01600
C 	C 	0.94590 0.55100 0.82490 0.38600
C 	C 	0.84280 0.47040 0.77020 0.06400
C 	C 	0.88030 0.62810 0.91940 -0.00500
C 	C 	0.89100 0.65970 0.92280 0.00500
C 	C 	0.87710 0.67950 0.94600 0.00000
C 	C 	0.85270 0.66780 0.96570 0.00100
C 	C 	0.84210 0.63620 0.96220 -0.00000
C 	C 	0.85590 0.61640 0.93910 0.00400
C 	C 	0.81020 0.47130 0.77880 -0.02100
O 	O 	0.55920 0.52430 0.57800 -0.26900
C 	C 	0.63010 0.52280 0.72820 0.00400
C 	C 	0.64820 0.52500 0.76030 0.00100
C 	C 	0.59640 0.52630 0.67010 -0.01300
C 	C 	0.74330 0.52480 0.79480 0.00700
C 	C 	0.70980 0.52530 0.80340 -0.00100
C 	C 	0.58650 0.52700 0.63780 0.04600
O 	O 	0.06119 0.55990 0.20420 -0.37400
O 	O 	0.09318 0.52740 0.24780 -0.36700
O 	O 	0.96570 0.46830 0.16480 -0.39000
C 	C 	0.07390 0.56910 0.15020 -0.10400
C 	C 	0.08450 0.58100 0.09480 -0.01600
C 	C 	0.06930 0.56140 0.11750 0.05700
C 	C 	0.09700 0.59400 0.16030 0.05500
C 	C 	0.11000 0.61410 0.13590 -0.01500
C 	C 	0.10570 0.60660 0.10300 0.01600
C 	C 	0.05410 0.55100 0.17510 0.38600
C 	C 	0.15720 0.47040 0.22980 0.06400
C 	C 	0.11970 0.62810 0.08060 -0.00500
C 	C 	0.10900 0.65970 0.07720 0.00500
C 	C 	0.12290 0.67950 0.05400 0.00000
C 	C 	0.14730 0.66780 0.03430 0.00100
C 	C 	0.15790 0.63620 0.03780 0.00000
C 	C 	0.14410 0.61640 0.06090 0.00400
C 	C 	0.18980 0.47130 0.22120 -0.02100
O 	O 	0.44080 0.52430 0.42200 -0.26900
C 	C 	0.36990 0.52280 0.27180 0.00400
C 	C 	0.35180 0.52500 0.23970 0.00100
C 	C 	0.40360 0.52630 0.32990 -0.01300
C 	C 	0.25670 0.52480 0.20520 0.00700
C 	C 	0.29020 0.52530 0.19660 -0.00100
C 	C 	0.41350 0.52700 0.36220 0.04600
O 	O 	0.93881 0.44010 0.20420 -0.37400
O 	O 	0.90682 0.47260 0.24780 -0.36700
O 	O 	0.03430 0.53170 0.16480 -0.38900
C 	C 	0.92610 0.43090 0.15020 -0.10400
C 	C 	0.91550 0.41900 0.09480 -0.01600
C 	C 	0.93070 0.43860 0.11750 0.05700
C 	C 	0.90300 0.40600 0.16030 0.05500
C 	C 	0.89000 0.38590 0.13590 -0.01500
C 	C 	0.89430 0.39340 0.10300 0.01600
C 	C 	0.94590 0.44900 0.17510 0.38600
C 	C 	0.84280 0.52960 0.22980 0.06400
C 	C 	0.88030 0.37190 0.08060 -0.00500
C 	C 	0.89100 0.34030 0.07720 0.00500
C 	C 	0.87710 0.32050 0.05400 0.00000
C 	C 	0.85270 0.33220 0.03430 0.00100
C 	C 	0.84210 0.36380 0.03780 0.00000
C 	C 	0.85590 0.38360 0.06090 0.00400
C 	C 	0.81020 0.52870 0.22120 -0.02100
O 	O 	0.55920 0.47570 0.42200 -0.26900
C 	C 	0.63010 0.47720 0.27180 0.00400
C 	C 	0.64820 0.47500 0.23970 0.00100
C 	C 	0.59640 0.47370 0.32990 -0.01300
C 	C 	0.74330 0.47520 0.20520 0.00700
C 	C 	0.70980 0.47470 0.19660 -0.00100
C 	C 	0.58650 0.47300 0.36220 0.04600
O 	O 	0.44010 0.20420 0.93881 -0.37400
O 	O 	0.47260 0.24780 0.90682 -0.36700
O 	O 	0.53170 0.16480 0.03430 -0.38900
C 	C 	0.43090 0.15020 0.92610 -0.10400
C 	C 	0.41900 0.09480 0.91550 -0.01600
C 	C 	0.43860 0.11750 0.93070 0.05700
C 	C 	0.40600 0.16030 0.90300 0.05500
C 	C 	0.38590 0.13590 0.89000 -0.01500
C 	C 	0.39340 0.10300 0.89430 0.01600
C 	C 	0.44900 0.17510 0.94590 0.38600
C 	C 	0.52960 0.22980 0.84280 0.06400
C 	C 	0.37190 0.08060 0.88030 -0.00500
C 	C 	0.34030 0.07720 0.89100 0.00500
C 	C 	0.32050 0.05400 0.87710 0.00000
C 	C 	0.33220 0.03430 0.85270 0.00100
C 	C 	0.36380 0.03780 0.84210 0.00000
C 	C 	0.38360 0.06090 0.85590 0.00400
C 	C 	0.52870 0.22120 0.81020 -0.02100
O 	O 	0.47570 0.42200 0.55920 -0.26900
C 	C 	0.47720 0.27180 0.63010 0.00400
C 	C 	0.47500 0.23970 0.64820 0.00100
C 	C 	0.47370 0.32990 0.59640 -0.01300
C 	C 	0.47520 0.20520 0.74330 0.00700
C 	C 	0.47470 0.19660 0.70980 -0.00100
C 	C 	0.47300 0.36220 0.58650 0.04600
O 	O 	0.55990 0.20420 0.06119 -0.37400
O 	O 	0.52740 0.24780 0.09318 -0.36700
O 	O 	0.46830 0.16480 0.96570 -0.39000
C 	C 	0.56910 0.15020 0.07390 -0.10400
C 	C 	0.58100 0.09480 0.08450 -0.01600
C 	C 	0.56140 0.11750 0.06930 0.05700
C 	C 	0.59400 0.16030 0.09700 0.05500
C 	C 	0.61410 0.13590 0.11000 -0.01500
C 	C 	0.60660 0.10300 0.10570 0.01600
C 	C 	0.55100 0.17510 0.05410 0.38600
C 	C 	0.47040 0.22980 0.15720 0.06400
C 	C 	0.62810 0.08060 0.11970 -0.00500
C 	C 	0.65970 0.07720 0.10900 0.00500
C 	C 	0.67950 0.05400 0.12290 0.00000
C 	C 	0.66780 0.03430 0.14730 0.00100
C 	C 	0.63620 0.03780 0.15790 0.00000
C 	C 	0.61640 0.06090 0.14410 0.00400
C 	C 	0.47130 0.22120 0.18980 -0.02100
O 	O 	0.52430 0.42200 0.44080 -0.26900
C 	C 	0.52280 0.27180 0.36990 0.00400
C 	C 	0.52500 0.23970 0.35180 0.00100
C 	C 	0.52630 0.32990 0.40360 -0.01300
C 	C 	0.52480 0.20520 0.25670 0.00700
C 	C 	0.52530 0.19660 0.29020 -0.00100
C 	C 	0.52700 0.36220 0.41350 0.04600
O 	O 	0.55990 0.79580 0.93881 -0.37400
O 	O 	0.52740 0.75220 0.90682 -0.36700
O 	O 	0.46830 0.83520 0.03430 -0.38900
C 	C 	0.56910 0.84980 0.92610 -0.10400
C 	C 	0.58100 0.90520 0.91550 -0.01700
C 	C 	0.56140 0.88250 0.93070 0.05700
C 	C 	0.59400 0.83970 0.90300 0.05500
C 	C 	0.61410 0.86410 0.89000 -0.01500
C 	C 	0.60660 0.89700 0.89430 0.01600
C 	C 	0.55100 0.82490 0.94590 0.38600
C 	C 	0.47040 0.77020 0.84280 0.06400
C 	C 	0.62810 0.91940 0.88030 -0.00500
C 	C 	0.65970 0.92280 0.89100 0.00500
C 	C 	0.67950 0.94600 0.87710 0.00000
C 	C 	0.66780 0.96570 0.85270 0.00100
C 	C 	0.63620 0.96220 0.84210 -0.00000
C 	C 	0.61640 0.93910 0.85590 0.00400
C 	C 	0.47130 0.77880 0.81020 -0.02100
O 	O 	0.52430 0.57800 0.55920 -0.26900
C 	C 	0.52280 0.72820 0.63010 0.00400
C 	C 	0.52500 0.76030 0.64820 0.00100
C 	C 	0.52630 0.67010 0.59640 -0.01300
C 	C 	0.52480 0.79480 0.74330 0.00700
C 	C 	0.52530 0.80340 0.70980 -0.00100
C 	C 	0.52700 0.63780 0.58650 0.04600
O 	O 	0.44010 0.79580 0.06119 -0.37400
O 	O 	0.47260 0.75220 0.09318 -0.36700
O 	O 	0.53170 0.83520 0.96570 -0.39000
C 	C 	0.43090 0.84980 0.07390 -0.10400
C 	C 	0.41900 0.90520 0.08450 -0.01600
C 	C 	0.43860 0.88250 0.06930 0.05700
C 	C 	0.40600 0.83970 0.09700 0.05500
C 	C 	0.38590 0.86410 0.11000 -0.01500
C 	C 	0.39340 0.89700 0.10570 0.01600
C 	C 	0.44900 0.82490 0.05410 0.38600
C 	C 	0.52960 0.77020 0.15720 0.06400
C 	C 	0.37190 0.91940 0.11970 -0.00500
C 	C 	0.34030 0.92280 0.10900 0.00500
C 	C 	0.32050 0.94600 0.12290 0.00000
C 	C 	0.33220 0.96570 0.14730 0.00100
C 	C 	0.36380 0.96220 0.15790 -0.00000
C 	C 	0.38360 0.93910 0.14410 0.00400
C 	C 	0.52870 0.77880 0.18980 -0.02100
O 	O 	0.47570 0.57800 0.44080 -0.26900
C 	C 	0.47720 0.72820 0.36990 0.00400
C 	C 	0.47500 0.76030 0.35180 0.00100
C 	C 	0.47370 0.67010 0.40360 -0.01300
C 	C 	0.47520 0.79480 0.25670 0.00700
C 	C 	0.47470 0.80340 0.29020 -0.00100
C 	C 	0.47300 0.63780 0.41350 0.04600
O 	O 	0.20420 0.06119 0.55990 -0.37400
O 	O 	0.24780 0.09318 0.52740 -0.36700
O 	O 	0.16480 0.96570 0.46830 -0.39000
C 	C 	0.15020 0.07390 0.56910 -0.10400
C 	C 	0.09480 0.08450 0.58100 -0.01600
C 	C 	0.11750 0.06930 0.56140 0.05700
C 	C 	0.16030 0.09700 0.59400 0.05500
C 	C 	0.13590 0.11000 0.61410 -0.01500
C 	C 	0.10300 0.10570 0.60660 0.01600
C 	C 	0.17510 0.05410 0.55100 0.38600
C 	C 	0.22980 0.15720 0.47040 0.06400
C 	C 	0.08060 0.11970 0.62810 -0.00500
C 	C 	0.07720 0.10900 0.65970 0.00500
C 	C 	0.05400 0.12290 0.67950 0.00000
C 	C 	0.03430 0.14730 0.66780 0.00100
C 	C 	0.03780 0.15790 0.63620 0.00000
C 	C 	0.06090 0.14410 0.61640 0.00400
C 	C 	0.22120 0.18980 0.47130 -0.02100
O 	O 	0.42200 0.44080 0.52430 -0.26900
C 	C 	0.27180 0.36990 0.52280 0.00400
C 	C 	0.23970 0.35180 0.52500 0.00100
C 	C 	0.32990 0.40360 0.52630 -0.01300
C 	C 	0.20520 0.25670 0.52480 0.00700
C 	C 	0.19660 0.29020 0.52530 -0.00100
C 	C 	0.36220 0.41350 0.52700 0.04600
O 	O 	0.20420 0.93881 0.44010 -0.37400
O 	O 	0.24780 0.90682 0.47260 -0.36700
O 	O 	0.16480 0.03430 0.53170 -0.38900
C 	C 	0.15020 0.92610 0.43090 -0.10400
C 	C 	0.09480 0.91550 0.41900 -0.01600
C 	C 	0.11750 0.93070 0.43860 0.05700
C 	C 	0.16030 0.90300 0.40600 0.05500
C 	C 	0.13590 0.89000 0.38590 -0.01500
C 	C 	0.10300 0.89430 0.39340 0.01600
C 	C 	0.17510 0.94590 0.44900 0.38600
C 	C 	0.22980 0.84280 0.52960 0.06400
C 	C 	0.08060 0.88030 0.37190 -0.00500
C 	C 	0.07720 0.89100 0.34030 0.00500
C 	C 	0.05400 0.87710 0.32050 0.00000
C 	C 	0.03430 0.85270 0.33220 0.00100
C 	C 	0.03780 0.84210 0.36380 0.00000
C 	C 	0.06090 0.85590 0.38360 0.00400
C 	C 	0.22120 0.81020 0.52870 -0.02100
O 	O 	0.42200 0.55920 0.47570 -0.26900
C 	C 	0.27180 0.63010 0.47720 0.00400
C 	C 	0.23970 0.64820 0.47500 0.00100
C 	C 	0.32990 0.59640 0.47370 -0.01300
C 	C 	0.20520 0.74330 0.47520 0.00700
C 	C 	0.19660 0.70980 0.47470 -0.00100
C 	C 	0.36220 0.58650 0.47300 0.04600
O 	O 	0.79580 0.06119 0.44010 -0.37400
O 	O 	0.75220 0.09318 0.47260 -0.36700
O 	O 	0.83520 0.96570 0.53170 -0.39000
C 	C 	0.84980 0.07390 0.43090 -0.10400
C 	C 	0.90520 0.08450 0.41900 -0.01600
C 	C 	0.88250 0.06930 0.43860 0.05700
C 	C 	0.83970 0.09700 0.40600 0.05500
C 	C 	0.86410 0.11000 0.38590 -0.01500
C 	C 	0.89700 0.10570 0.39340 0.01600
C 	C 	0.82490 0.05410 0.44900 0.38600
C 	C 	0.77020 0.15720 0.52960 0.06400
C 	C 	0.91940 0.11970 0.37190 -0.00500
C 	C 	0.92280 0.10900 0.34030 0.00500
C 	C 	0.94600 0.12290 0.32050 0.00000
C 	C 	0.96570 0.14730 0.33220 0.00100
C 	C 	0.96220 0.15790 0.36380 -0.00000
C 	C 	0.93910 0.14410 0.38360 0.00400
C 	C 	0.77880 0.18980 0.52870 -0.02100
O 	O 	0.57800 0.44080 0.47570 -0.26900
C 	C 	0.72820 0.36990 0.47720 0.00400
C 	C 	0.76030 0.35180 0.47500 0.00100
C 	C 	0.67010 0.40360 0.47370 -0.01300
C 	C 	0.79480 0.25670 0.47520 0.00700
C 	C 	0.80340 0.29020 0.47470 -0.00100
C 	C 	0.63780 0.41350 0.47300 0.04600
O 	O 	0.79580 0.93881 0.55990 -0.37400
O 	O 	0.75220 0.90682 0.52740 -0.36700
O 	O 	0.83520 0.03430 0.46830 -0.38900
C 	C 	0.84980 0.92610 0.56910 -0.10400
C 	C 	0.90520 0.91550 0.58100 -0.01700
C 	C 	0.88250 0.93070 0.56140 0.05700
C 	C 	0.83970 0.90300 0.59400 0.05500
C 	C 	0.86410 0.89000 0.61410 -0.01500
C 	C 	0.89700 0.89430 0.60660 0.01600
C 	C 	0.82490 0.94590 0.55100 0.38600
C 	C 	0.77020 0.84280 0.47040 0.06400
C 	C 	0.91940 0.88030 0.62810 -0.00500
C 	C 	0.92280 0.89100 0.65970 0.00500
C 	C 	0.94600 0.87710 0.67950 0.00000
C 	C 	0.96570 0.85270 0.66780 0.00100
C 	C 	0.96220 0.84210 0.63620 -0.00000
C 	C 	0.93910 0.85590 0.61640 0.00400
C 	C 	0.77880 0.81020 0.47130 -0.02100
O 	O 	0.57800 0.55920 0.52430 -0.26900
C 	C 	0.72820 0.63010 0.52280 0.00400
C 	C 	0.76030 0.64820 0.52500 0.00100
C 	C 	0.67010 0.59640 0.52630 -0.01300
C 	C 	0.79480 0.74330 0.52480 0.00700
C 	C 	0.80340 0.70980 0.52530 -0.00100
C 	C 	0.63780 0.58650 0.52700 0.04600
O 	O 	0.05990 0.43881 0.29580 -0.37400
O 	O 	0.02740 0.40682 0.25220 -0.36700
O 	O 	0.96830 0.53430 0.33520 -0.39000
C 	C 	0.06910 0.42610 0.34980 -0.10400
C 	C 	0.08100 0.41550 0.40520 -0.01600
C 	C 	0.06140 0.43070 0.38250 0.05700
C 	C 	0.09400 0.40300 0.33970 0.05500
C 	C 	0.11410 0.39000 0.36410 -0.01500
C 	C 	0.10660 0.39430 0.39700 0.01600
C 	C 	0.05100 0.44590 0.32490 0.38600
C 	C 	0.97040 0.34280 0.27020 0.06300
C 	C 	0.12810 0.38030 0.41940 -0.00500
C 	C 	0.15970 0.39100 0.42280 0.00500
C 	C 	0.17950 0.37710 0.44600 0.00000
C 	C 	0.16780 0.35270 0.46570 0.00100
C 	C 	0.13620 0.34210 0.46220 -0.00000
C 	C 	0.11640 0.35590 0.43910 0.00400
C 	C 	0.97130 0.31020 0.27880 -0.02200
O 	O 	0.02430 0.05920 0.07800 -0.26900
C 	C 	0.02280 0.13010 0.22820 0.00500
C 	C 	0.02500 0.14820 0.26030 0.00100
C 	C 	0.02630 0.09640 0.17010 -0.01300
C 	C 	0.02480 0.24330 0.29480 0.00700
C 	C 	0.02530 0.20980 0.30340 -0.00100
C 	C 	0.02700 0.08650 0.13780 0.04600
O 	O 	0.94010 0.56119 0.29580 -0.37400
O 	O 	0.97260 0.59318 0.25220 -0.36700
O 	O 	0.03170 0.46570 0.33520 -0.38900
C 	C 	0.93090 0.57390 0.34980 -0.10400
C 	C 	0.91900 0.58450 0.40520 -0.01600
C 	C 	0.93860 0.56930 0.38250 0.05700
C 	C 	0.90600 0.59700 0.33970 0.05500
C 	C 	0.88590 0.61000 0.36410 -0.01500
C 	C 	0.89340 0.60570 0.39700 0.01600
C 	C 	0.94900 0.55410 0.32490 0.38600
C 	C 	0.02960 0.65720 0.27020 0.06400
C 	C 	0.87190 0.61970 0.41940 -0.00500
C 	C 	0.84030 0.60900 0.42280 0.00500
C 	C 	0.82050 0.62290 0.44600 0.00000
C 	C 	0.83220 0.64730 0.46570 0.00100
C 	C 	0.86380 0.65790 0.46220 -0.00000
C 	C 	0.88360 0.64410 0.43910 0.00400
C 	C 	0.02870 0.68980 0.27880 -0.02100
O 	O 	0.97570 0.94080 0.07800 -0.27000
C 	C 	0.97720 0.86990 0.22820 0.00400
C 	C 	0.97500 0.85180 0.26030 0.00000
C 	C 	0.97370 0.90360 0.17010 -0.01300
C 	C 	0.97520 0.75670 0.29480 0.00600
C 	C 	0.97470 0.79020 0.30340 -0.00200
C 	C 	0.97300 0.91350 0.13780 0.04500
O 	O 	0.94010 0.43881 0.70420 -0.37400
O 	O 	0.97260 0.40682 0.74780 -0.36700
O 	O 	0.03170 0.53430 0.66480 -0.38900
C 	C 	0.93090 0.42610 0.65020 -0.10400
C 	C 	0.91900 0.41550 0.59480 -0.01600
C 	C 	0.93860 0.43070 0.61750 0.05700
C 	C 	0.90600 0.40300 0.66030 0.05500
C 	C 	0.88590 0.39000 0.63590 -0.01500
C 	C 	0.89340 0.39430 0.60300 0.01600
C 	C 	0.94900 0.44590 0.67510 0.38600
C 	C 	0.02960 0.34280 0.72980 0.06400
C 	C 	0.87190 0.38030 0.58060 -0.00500
C 	C 	0.84030 0.39100 0.57720 0.00500
C 	C 	0.82050 0.37710 0.55400 0.00000
C 	C 	0.83220 0.35270 0.53430 0.00100
C 	C 	0.86380 0.34210 0.53780 -0.00000
C 	C 	0.88360 0.35590 0.56090 0.00400
C 	C 	0.02870 0.31020 0.72120 -0.02100
O 	O 	0.97570 0.05920 0.92200 -0.27000
C 	C 	0.97720 0.13010 0.77180 0.00400
C 	C 	0.97500 0.14820 0.73970 0.00000
C 	C 	0.97370 0.09640 0.82990 -0.01300
C 	C 	0.97520 0.24330 0.70520 0.00600
C 	C 	0.97470 0.20980 0.69660 -0.00200
C 	C 	0.97300 0.08650 0.86220 0.04500
O 	O 	0.05990 0.56119 0.70420 -0.37400
O 	O 	0.02740 0.59318 0.74780 -0.36700
O 	O 	0.96830 0.46570 0.66480 -0.39000
C 	C 	0.06910 0.57390 0.65020 -0.10400
C 	C 	0.08100 0.58450 0.59480 -0.01600
C 	C 	0.06140 0.56930 0.61750 0.05700
C 	C 	0.09400 0.59700 0.66030 0.05500
C 	C 	0.11410 0.61000 0.63590 -0.01500
C 	C 	0.10660 0.60570 0.60300 0.01600
C 	C 	0.05100 0.55410 0.67510 0.38600
C 	C 	0.97040 0.65720 0.72980 0.06300
C 	C 	0.12810 0.61970 0.58060 -0.00500
C 	C 	0.15970 0.60900 0.57720 0.00500
C 	C 	0.17950 0.62290 0.55400 0.00000
C 	C 	0.16780 0.64730 0.53430 0.00100
C 	C 	0.13620 0.65790 0.53780 -0.00000
C 	C 	0.11640 0.64410 0.56090 0.00400
C 	C 	0.97130 0.68980 0.72120 -0.02200
O 	O 	0.02430 0.94080 0.92200 -0.26900
C 	C 	0.02280 0.86990 0.77180 0.00400
C 	C 	0.02500 0.85180 0.73970 0.00100
C 	C 	0.02630 0.90360 0.82990 -0.01300
C 	C 	0.02480 0.75670 0.70520 0.00700
C 	C 	0.02530 0.79020 0.69660 -0.00100
C 	C 	0.02700 0.91350 0.86220 0.04600
O 	O 	0.29580 0.05990 0.43881 -0.37400
O 	O 	0.25220 0.02740 0.40682 -0.36700
O 	O 	0.33520 0.96830 0.53430 -0.39000
C 	C 	0.34980 0.06910 0.42610 -0.10400
C 	C 	0.40520 0.08100 0.41550 -0.01600
C 	C 	0.38250 0.06140 0.43070 0.05700
C 	C 	0.33970 0.09400 0.40300 0.05500
C 	C 	0.36410 0.11410 0.39000 -0.01500
C 	C 	0.39700 0.10660 0.39430 0.01600
C 	C 	0.32490 0.05100 0.44590 0.38600
C 	C 	0.27020 0.97040 0.34280 0.06300
C 	C 	0.41940 0.12810 0.38030 -0.00500
C 	C 	0.42280 0.15970 0.39100 0.00500
C 	C 	0.44600 0.17950 0.37710 0.00000
C 	C 	0.46570 0.16780 0.35270 0.00100
C 	C 	0.46220 0.13620 0.34210 -0.00000
C 	C 	0.43910 0.11640 0.35590 0.00400
C 	C 	0.27880 0.97130 0.31020 -0.02200
O 	O 	0.07800 0.02430 0.05920 -0.26900
C 	C 	0.22820 0.02280 0.13010 0.00500
C 	C 	0.26030 0.02500 0.14820 0.00100
C 	C 	0.17010 0.02630 0.09640 -0.01300
C 	C 	0.29480 0.02480 0.24330 0.00700
C 	C 	0.30340 0.02530 0.20980 -0.00100
C 	C 	0.13780 0.02700 0.08650 0.04600
O 	O 	0.29580 0.94010 0.56119 -0.37400
O 	O 	0.25220 0.97260 0.59318 -0.36700
O 	O 	0.33520 0.03170 0.46570 -0.38900
C 	C 	0.34980 0.93090 0.57390 -0.10400
C 	C 	0.40520 0.91900 0.58450 -0.01600
C 	C 	0.38250 0.93860 0.56930 0.05700
C 	C 	0.33970 0.90600 0.59700 0.05500
C 	C 	0.36410 0.88590 0.61000 -0.01500
C 	C 	0.39700 0.89340 0.60570 0.01600
C 	C 	0.32490 0.94900 0.55410 0.38600
C 	C 	0.27020 0.02960 0.65720 0.06400
C 	C 	0.41940 0.87190 0.61970 -0.00500
C 	C 	0.42280 0.84030 0.60900 0.00500
C 	C 	0.44600 0.82050 0.62290 0.00000
C 	C 	0.46570 0.83220 0.64730 0.00100
C 	C 	0.46220 0.86380 0.65790 -0.00000
C 	C 	0.43910 0.88360 0.64410 0.00400
C 	C 	0.27880 0.02870 0.68980 -0.02100
O 	O 	0.07800 0.97570 0.94080 -0.27000
C 	C 	0.22820 0.97720 0.86990 0.00400
C 	C 	0.26030 0.97500 0.85180 0.00000
C 	C 	0.17010 0.97370 0.90360 -0.01300
C 	C 	0.29480 0.97520 0.75670 0.00600
C 	C 	0.30340 0.97470 0.79020 -0.00200
C 	C 	0.13780 0.97300 0.91350 0.04500
O 	O 	0.70420 0.94010 0.43881 -0.37400
O 	O 	0.74780 0.97260 0.40682 -0.36700
O 	O 	0.66480 0.03170 0.53430 -0.38900
C 	C 	0.65020 0.93090 0.42610 -0.10400
C 	C 	0.59480 0.91900 0.41550 -0.01600
C 	C 	0.61750 0.93860 0.43070 0.05700
C 	C 	0.66030 0.90600 0.40300 0.05500
C 	C 	0.63590 0.88590 0.39000 -0.01500
C 	C 	0.60300 0.89340 0.39430 0.01600
C 	C 	0.67510 0.94900 0.44590 0.38600
C 	C 	0.72980 0.02960 0.34280 0.06400
C 	C 	0.58060 0.87190 0.38030 -0.00500
C 	C 	0.57720 0.84030 0.39100 0.00500
C 	C 	0.55400 0.82050 0.37710 0.00000
C 	C 	0.53430 0.83220 0.35270 0.00100
C 	C 	0.53780 0.86380 0.34210 -0.00000
C 	C 	0.56090 0.88360 0.35590 0.00400
C 	C 	0.72120 0.02870 0.31020 -0.02100
O 	O 	0.92200 0.97570 0.05920 -0.27000
C 	C 	0.77180 0.97720 0.13010 0.00400
C 	C 	0.73970 0.97500 0.14820 0.00000
C 	C 	0.82990 0.97370 0.09640 -0.01300
C 	C 	0.70520 0.97520 0.24330 0.00600
C 	C 	0.69660 0.97470 0.20980 -0.00200
C 	C 	0.86220 0.97300 0.08650 0.04500
O 	O 	0.70420 0.05990 0.56119 -0.37400
O 	O 	0.74780 0.02740 0.59318 -0.36700
O 	O 	0.66480 0.96830 0.46570 -0.39000
C 	C 	0.65020 0.06910 0.57390 -0.10400
C 	C 	0.59480 0.08100 0.58450 -0.01600
C 	C 	0.61750 0.06140 0.56930 0.05700
C 	C 	0.66030 0.09400 0.59700 0.05500
C 	C 	0.63590 0.11410 0.61000 -0.01500
C 	C 	0.60300 0.10660 0.60570 0.01600
C 	C 	0.67510 0.05100 0.55410 0.38600
C 	C 	0.72980 0.97040 0.65720 0.06300
C 	C 	0.58060 0.12810 0.61970 -0.00500
C 	C 	0.57720 0.15970 0.60900 0.00500
C 	C 	0.55400 0.17950 0.62290 0.00000
C 	C 	0.53430 0.16780 0.64730 0.00100
C 	C 	0.53780 0.13620 0.65790 -0.00000
C 	C 	0.56090 0.11640 0.64410 0.00400
C 	C 	0.72120 0.97130 0.68980 -0.02200
O 	O 	0.92200 0.02430 0.94080 -0.26900
C 	C 	0.77180 0.02280 0.86990 0.00400
C 	C 	0.73970 0.02500 0.85180 0.00100
C 	C 	0.82990 0.02630 0.90360 -0.01300
C 	C 	0.70520 0.02480 0.75670 0.00700
C 	C 	0.69660 0.02530 0.79020 -0.00100
C 	C 	0.86220 0.02700 0.91350 0.04600
O 	O 	0.43881 0.29580 0.05990 -0.37400
O 	O 	0.40682 0.25220 0.02740 -0.36700
O 	O 	0.53430 0.33520 0.96830 -0.39000
C 	C 	0.42610 0.34980 0.06910 -0.10400
C 	C 	0.41550 0.40520 0.08100 -0.01600
C 	C 	0.43070 0.38250 0.06140 0.05700
C 	C 	0.40300 0.33970 0.09400 0.05500
C 	C 	0.39000 0.36410 0.11410 -0.01500
C 	C 	0.39430 0.39700 0.10660 0.01600
C 	C 	0.44590 0.32490 0.05100 0.38600
C 	C 	0.34280 0.27020 0.97040 0.06300
C 	C 	0.38030 0.41940 0.12810 -0.00500
C 	C 	0.39100 0.42280 0.15970 0.00500
C 	C 	0.37710 0.44600 0.17950 0.00000
C 	C 	0.35270 0.46570 0.16780 0.00100
C 	C 	0.34210 0.46220 0.13620 -0.00000
C 	C 	0.35590 0.43910 0.11640 0.00400
C 	C 	0.31020 0.27880 0.97130 -0.02200
O 	O 	0.05920 0.07800 0.02430 -0.26900
C 	C 	0.13010 0.22820 0.02280 0.00500
C 	C 	0.14820 0.26030 0.02500 0.00100
C 	C 	0.09640 0.17010 0.02630 -0.01300
C 	C 	0.24330 0.29480 0.02480 0.00700
C 	C 	0.20980 0.30340 0.02530 -0.00100
C 	C 	0.08650 0.13780 0.02700 0.04600
O 	O 	0.56119 0.29580 0.94010 -0.37400
O 	O 	0.59318 0.25220 0.97260 -0.36700
O 	O 	0.46570 0.33520 0.03170 -0.38900
C 	C 	0.57390 0.34980 0.93090 -0.10400
C 	C 	0.58450 0.40520 0.91900 -0.01600
C 	C 	0.56930 0.38250 0.93860 0.05700
C 	C 	0.59700 0.33970 0.90600 0.05500
C 	C 	0.61000 0.36410 0.88590 -0.01500
C 	C 	0.60570 0.39700 0.89340 0.01600
C 	C 	0.55410 0.32490 0.94900 0.38600
C 	C 	0.65720 0.27020 0.02960 0.06400
C 	C 	0.61970 0.41940 0.87190 -0.00500
C 	C 	0.60900 0.42280 0.84030 0.00500
C 	C 	0.62290 0.44600 0.82050 0.00000
C 	C 	0.64730 0.46570 0.83220 0.00100
C 	C 	0.65790 0.46220 0.86380 -0.00000
C 	C 	0.64410 0.43910 0.88360 0.00400
C 	C 	0.68980 0.27880 0.02870 -0.02100
O 	O 	0.94080 0.07800 0.97570 -0.27000
C 	C 	0.86990 0.22820 0.97720 0.00400
C 	C 	0.85180 0.26030 0.97500 0.00000
C 	C 	0.90360 0.17010 0.97370 -0.01300
C 	C 	0.75670 0.29480 0.97520 0.00600
C 	C 	0.79020 0.30340 0.97470 -0.00200
C 	C 	0.91350 0.13780 0.97300 0.04500
O 	O 	0.43881 0.70420 0.94010 -0.37400
O 	O 	0.40682 0.74780 0.97260 -0.36700
O 	O 	0.53430 0.66480 0.03170 -0.38900
C 	C 	0.42610 0.65020 0.93090 -0.10400
C 	C 	0.41550 0.59480 0.91900 -0.01600
C 	C 	0.43070 0.61750 0.93860 0.05700
C 	C 	0.40300 0.66030 0.90600 0.05500
C 	C 	0.39000 0.63590 0.88590 -0.01500
C 	C 	0.39430 0.60300 0.89340 0.01600
C 	C 	0.44590 0.67510 0.94900 0.38600
C 	C 	0.34280 0.72980 0.02960 0.06400
C 	C 	0.38030 0.58060 0.87190 -0.00500
C 	C 	0.39100 0.57720 0.84030 0.00500
C 	C 	0.37710 0.55400 0.82050 0.00000
C 	C 	0.35270 0.53430 0.83220 0.00100
C 	C 	0.34210 0.53780 0.86380 -0.00000
C 	C 	0.35590 0.56090 0.88360 0.00400
C 	C 	0.31020 0.72120 0.02870 -0.02100
O 	O 	0.05920 0.92200 0.97570 -0.27000
C 	C 	0.13010 0.77180 0.97720 0.00400
C 	C 	0.14820 0.73970 0.97500 0.00000
C 	C 	0.09640 0.82990 0.97370 -0.01300
C 	C 	0.24330 0.70520 0.97520 0.00600
C 	C 	0.20980 0.69660 0.97470 -0.00200
C 	C 	0.08650 0.86220 0.97300 0.04500
O 	O 	0.56119 0.70420 0.05990 -0.37400
O 	O 	0.59318 0.74780 0.02740 -0.36700
O 	O 	0.46570 0.66480 0.96830 -0.39000
C 	C 	0.57390 0.65020 0.06910 -0.10400
C 	C 	0.58450 0.59480 0.08100 -0.01600
C 	C 	0.56930 0.61750 0.06140 0.05700
C 	C 	0.59700 0.66030 0.09400 0.05500
C 	C 	0.61000 0.63590 0.11410 -0.01500
C 	C 	0.60570 0.60300 0.10660 0.01600
C 	C 	0.55410 0.67510 0.05100 0.38600
C 	C 	0.65720 0.72980 0.97040 0.06300
C 	C 	0.61970 0.58060 0.12810 -0.00500
C 	C 	0.60900 0.57720 0.15970 0.00500
C 	C 	0.62290 0.55400 0.17950 0.00000
C 	C 	0.64730 0.53430 0.16780 0.00100
C 	C 	0.65790 0.53780 0.13620 -0.00000
C 	C 	0.64410 0.56090 0.11640 0.00400
C 	C 	0.68980 0.72120 0.97130 -0.02200
O 	O 	0.94080 0.92200 0.02430 -0.26900
C 	C 	0.86990 0.77180 0.02280 0.00400
C 	C 	0.85180 0.73970 0.02500 0.00100
C 	C 	0.90360 0.82990 0.02630 -0.01300
C 	C 	0.75670 0.70520 0.02480 0.00700
C 	C 	0.79020 0.69660 0.02530 -0.00100
C 	C 	0.91350 0.86220 0.02700 0.04600
O 	O 	0.93881 0.55990 0.20420 -0.37400
O 	O 	0.90682 0.52740 0.24780 -0.36700
O 	O 	0.03430 0.46830 0.16480 -0.38900
C 	C 	0.92610 0.56910 0.15020 -0.10400
C 	C 	0.91550 0.58100 0.09480 -0.01600
C 	C 	0.93070 0.56140 0.11750 0.05700
C 	C 	0.90300 0.59400 0.16030 0.05500
C 	C 	0.89000 0.61410 0.13590 -0.01500
C 	C 	0.89430 0.60660 0.10300 0.01600
C 	C 	0.94590 0.55100 0.17510 0.38600
C 	C 	0.84280 0.47040 0.22980 0.06400
C 	C 	0.88030 0.62810 0.08060 -0.00500
C 	C 	0.89100 0.65970 0.07720 0.00500
C 	C 	0.87710 0.67950 0.05400 0.00000
C 	C 	0.85270 0.66780 0.03430 0.00100
C 	C 	0.84210 0.63620 0.03780 0.00000
C 	C 	0.85590 0.61640 0.06090 0.00400
C 	C 	0.81020 0.47130 0.22120 -0.02100
O 	O 	0.55920 0.52430 0.42200 -0.26900
C 	C 	0.63010 0.52280 0.27180 0.00400
C 	C 	0.64820 0.52500 0.23970 0.00100
C 	C 	0.59640 0.52630 0.32990 -0.01300
C 	C 	0.74330 0.52480 0.20520 0.00700
C 	C 	0.70980 0.52530 0.19660 -0.00100
C 	C 	0.58650 0.52700 0.36220 0.04600
O 	O 	0.06119 0.44010 0.20420 -0.37400
O 	O 	0.09318 0.47260 0.24780 -0.36700
O 	O 	0.96570 0.53170 0.16480 -0.39000
C 	C 	0.07390 0.43090 0.15020 -0.10400
C 	C 	0.08450 0.41900 0.09480 -0.01600
C 	C 	0.06930 0.43860 0.11750 0.05700
C 	C 	0.09700 0.40600 0.16030 0.05500
C 	C 	0.11000 0.38590 0.13590 -0.01500
C 	C 	0.10570 0.39340 0.10300 0.01600
C 	C 	0.05410 0.44900 0.17510 0.38600
C 	C 	0.15720 0.52960 0.22980 0.06400
C 	C 	0.11970 0.37190 0.08060 -0.00500
C 	C 	0.10900 0.34030 0.07720 0.00500
C 	C 	0.12290 0.32050 0.05400 0.00000
C 	C 	0.14730 0.33220 0.03430 0.00100
C 	C 	0.15790 0.36380 0.03780 0.00000
C 	C 	0.14410 0.38360 0.06090 0.00400
C 	C 	0.18980 0.52870 0.22120 -0.02100
O 	O 	0.44080 0.47570 0.42200 -0.26900
C 	C 	0.36990 0.47720 0.27180 0.00400
C 	C 	0.35180 0.47500 0.23970 0.00100
C 	C 	0.40360 0.47370 0.32990 -0.01300
C 	C 	0.25670 0.47520 0.20520 0.00700
C 	C 	0.29020 0.47470 0.19660 -0.00100
C 	C 	0.41350 0.47300 0.36220 0.04600
O 	O 	0.93881 0.44010 0.79580 -0.37400
O 	O 	0.90682 0.47260 0.75220 -0.36700
O 	O 	0.03430 0.53170 0.83520 -0.38900
C 	C 	0.92610 0.43090 0.84980 -0.10400
C 	C 	0.91550 0.41900 0.90520 -0.01700
C 	C 	0.93070 0.43860 0.88250 0.05700
C 	C 	0.90300 0.40600 0.83970 0.05500
C 	C 	0.89000 0.38590 0.86410 -0.01500
C 	C 	0.89430 0.39340 0.89700 0.01600
C 	C 	0.94590 0.44900 0.82490 0.38600
C 	C 	0.84280 0.52960 0.77020 0.06400
C 	C 	0.88030 0.37190 0.91940 -0.00500
C 	C 	0.89100 0.34030 0.92280 0.00500
C 	C 	0.87710 0.32050 0.94600 0.00000
C 	C 	0.85270 0.33220 0.96570 0.00100
C 	C 	0.84210 0.36380 0.96220 -0.00000
C 	C 	0.85590 0.38360 0.93910 0.00400
C 	C 	0.81020 0.52870 0.77880 -0.02100
O 	O 	0.55920 0.47570 0.57800 -0.26900
C 	C 	0.63010 0.47720 0.72820 0.00400
C 	C 	0.64820 0.47500 0.76030 0.00100
C 	C 	0.59640 0.47370 0.67010 -0.01300
C 	C 	0.74330 0.47520 0.79480 0.00700
C 	C 	0.70980 0.47470 0.80340 -0.00100
C 	C 	0.58650 0.47300 0.63780 0.04600
O 	O 	0.06119 0.55990 0.79580 -0.37400
O 	O 	0.09318 0.52740 0.75220 -0.36700
O 	O 	0.96570 0.46830 0.83520 -0.39000
C 	C 	0.07390 0.56910 0.84980 -0.10400
C 	C 	0.08450 0.58100 0.90520 -0.01600
C 	C 	0.06930 0.56140 0.88250 0.05700
C 	C 	0.09700 0.59400 0.83970 0.05500
C 	C 	0.11000 0.61410 0.86410 -0.01500
C 	C 	0.10570 0.60660 0.89700 0.01600
C 	C 	0.05410 0.55100 0.82490 0.38600
C 	C 	0.15720 0.47040 0.77020 0.06400
C 	C 	0.11970 0.62810 0.91940 -0.00500
C 	C 	0.10900 0.65970 0.92280 0.00500
C 	C 	0.12290 0.67950 0.94600 0.00000
C 	C 	0.14730 0.66780 0.96570 0.00100
C 	C 	0.15790 0.63620 0.96220 -0.00000
C 	C 	0.14410 0.61640 0.93910 0.00400
C 	C 	0.18980 0.47130 0.77880 -0.02100
O 	O 	0.44080 0.52430 0.57800 -0.26900
C 	C 	0.36990 0.52280 0.72820 0.00400
C 	C 	0.35180 0.52500 0.76030 0.00100
C 	C 	0.40360 0.52630 0.67010 -0.01300
C 	C 	0.25670 0.52480 0.79480 0.00700
C 	C 	0.29020 0.52530 0.80340 -0.00100
C 	C 	0.41350 0.52700 0.63780 0.04600
O 	O 	0.55990 0.79580 0.06119 -0.37400
O 	O 	0.52740 0.75220 0.09318 -0.36700
O 	O 	0.46830 0.83520 0.96570 -0.39000
C 	C 	0.56910 0.84980 0.07390 -0.10400
C 	C 	0.58100 0.90520 0.08450 -0.01600
C 	C 	0.56140 0.88250 0.06930 0.05700
C 	C 	0.59400 0.83970 0.09700 0.05500
C 	C 	0.61410 0.86410 0.11000 -0.01500
C 	C 	0.60660 0.89700 0.10570 0.01600
C 	C 	0.55100 0.82490 0.05410 0.38600
C 	C 	0.47040 0.77020 0.15720 0.06400
C 	C 	0.62810 0.91940 0.11970 -0.00500
C 	C 	0.65970 0.92280 0.10900 0.00500
C 	C 	0.67950 0.94600 0.12290 0.00000
C 	C 	0.66780 0.96570 0.14730 0.00100
C 	C 	0.63620 0.96220 0.15790 -0.00000
C 	C 	0.61640 0.93910 0.14410 0.00400
C 	C 	0.47130 0.77880 0.18980 -0.02100
O 	O 	0.52430 0.57800 0.44080 -0.26900
C 	C 	0.52280 0.72820 0.36990 0.00400
C 	C 	0.52500 0.76030 0.35180 0.00100
C 	C 	0.52630 0.67010 0.40360 -0.01300
C 	C 	0.52480 0.79480 0.25670 0.00700
C 	C 	0.52530 0.80340 0.29020 -0.00100
C 	C 	0.52700 0.63780 0.41350 0.04600
O 	O 	0.44010 0.79580 0.93881 -0.37400
O 	O 	0.47260 0.75220 0.90682 -0.36700
O 	O 	0.53170 0.83520 0.03430 -0.38900
C 	C 	0.43090 0.84980 0.92610 -0.10400
C 	C 	0.41900 0.90520 0.91550 -0.01700
C 	C 	0.43860 0.88250 0.93070 0.05700
C 	C 	0.40600 0.83970 0.90300 0.05500
C 	C 	0.38590 0.86410 0.89000 -0.01500
C 	C 	0.39340 0.89700 0.89430 0.01600
C 	C 	0.44900 0.82490 0.94590 0.38600
C 	C 	0.52960 0.77020 0.84280 0.06400
C 	C 	0.37190 0.91940 0.88030 -0.00500
C 	C 	0.34030 0.92280 0.89100 0.00500
C 	C 	0.32050 0.94600 0.87710 0.00000
C 	C 	0.33220 0.96570 0.85270 0.00100
C 	C 	0.36380 0.96220 0.84210 -0.00000
C 	C 	0.38360 0.93910 0.85590 0.00400
C 	C 	0.52870 0.77880 0.81020 -0.02100
O 	O 	0.47570 0.57800 0.55920 -0.26900
C 	C 	0.47720 0.72820 0.63010 0.00400
C 	C 	0.47500 0.76030 0.64820 0.00100
C 	C 	0.47370 0.67010 0.59640 -0.01300
C 	C 	0.47520 0.79480 0.74330 0.00700
C 	C 	0.47470 0.80340 0.70980 -0.00100
C 	C 	0.47300 0.63780 0.58650 0.04600
O 	O 	0.44010 0.20420 0.06119 -0.37400
O 	O 	0.47260 0.24780 0.09318 -0.36700
O 	O 	0.53170 0.16480 0.96570 -0.39000
C 	C 	0.43090 0.15020 0.07390 -0.10400
C 	C 	0.41900 0.09480 0.08450 -0.01600
C 	C 	0.43860 0.11750 0.06930 0.05700
C 	C 	0.40600 0.16030 0.09700 0.05500
C 	C 	0.38590 0.13590 0.11000 -0.01500
C 	C 	0.39340 0.10300 0.10570 0.01600
C 	C 	0.44900 0.17510 0.05410 0.38600
C 	C 	0.52960 0.22980 0.15720 0.06400
C 	C 	0.37190 0.08060 0.11970 -0.00500
C 	C 	0.34030 0.07720 0.10900 0.00500
C 	C 	0.32050 0.05400 0.12290 0.00000
C 	C 	0.33220 0.03430 0.14730 0.00100
C 	C 	0.36380 0.03780 0.15790 0.00000
C 	C 	0.38360 0.06090 0.14410 0.00400
C 	C 	0.52870 0.22120 0.18980 -0.02100
O 	O 	0.47570 0.42200 0.44080 -0.26900
C 	C 	0.47720 0.27180 0.36990 0.00400
C 	C 	0.47500 0.23970 0.35180 0.00100
C 	C 	0.47370 0.32990 0.40360 -0.01300
C 	C 	0.47520 0.20520 0.25670 0.00700
C 	C 	0.47470 0.19660 0.29020 -0.00100
C 	C 	0.47300 0.36220 0.41350 0.04600
O 	O 	0.55990 0.20420 0.93881 -0.37400
O 	O 	0.52740 0.24780 0.90682 -0.36700
O 	O 	0.46830 0.16480 0.03430 -0.38900
C 	C 	0.56910 0.15020 0.92610 -0.10400
C 	C 	0.58100 0.09480 0.91550 -0.01600
C 	C 	0.56140 0.11750 0.93070 0.05700
C 	C 	0.59400 0.16030 0.90300 0.05500
C 	C 	0.61410 0.13590 0.89000 -0.01500
C 	C 	0.60660 0.10300 0.89430 0.01600
C 	C 	0.55100 0.17510 0.94590 0.38600
C 	C 	0.47040 0.22980 0.84280 0.06400
C 	C 	0.62810 0.08060 0.88030 -0.00500
C 	C 	0.65970 0.07720 0.89100 0.00500
C 	C 	0.67950 0.05400 0.87710 0.00000
C 	C 	0.66780 0.03430 0.85270 0.00100
C 	C 	0.63620 0.03780 0.84210 0.00000
C 	C 	0.61640 0.06090 0.85590 0.00400
C 	C 	0.47130 0.22120 0.81020 -0.02100
O 	O 	0.52430 0.42200 0.55920 -0.26900
C 	C 	0.52280 0.27180 0.63010 0.00400
C 	C 	0.52500 0.23970 0.64820 0.00100
C 	C 	0.52630 0.32990 0.59640 -0.01300
C 	C 	0.52480 0.20520 0.74330 0.00700
C 	C 	0.52530 0.19660 0.70980 -0.00100
C 	C 	0.52700 0.36220 0.58650 0.04600
O 	O 	0.79580 0.93881 0.44010 -0.37400
O 	O 	0.75220 0.90682 0.47260 -0.36700
O 	O 	0.83520 0.03430 0.53170 -0.38900
C 	C 	0.84980 0.92610 0.43090 -0.10400
C 	C 	0.90520 0.91550 0.41900 -0.01700
C 	C 	0.88250 0.93070 0.43860 0.05700
C 	C 	0.83970 0.90300 0.40600 0.05500
C 	C 	0.86410 0.89000 0.38590 -0.01500
C 	C 	0.89700 0.89430 0.39340 0.01600
C 	C 	0.82490 0.94590 0.44900 0.38600
C 	C 	0.77020 0.84280 0.52960 0.06400
C 	C 	0.91940 0.88030 0.37190 -0.00500
C 	C 	0.92280 0.89100 0.34030 0.00500
C 	C 	0.94600 0.87710 0.32050 0.00000
C 	C 	0.96570 0.85270 0.33220 0.00100
C 	C 	0.96220 0.84210 0.36380 -0.00000
C 	C 	0.93910 0.85590 0.38360 0.00400
C 	C 	0.77880 0.81020 0.52870 -0.02100
O 	O 	0.57800 0.55920 0.47570 -0.26900
C 	C 	0.72820 0.63010 0.47720 0.00400
C 	C 	0.76030 0.64820 0.47500 0.00100
C 	C 	0.67010 0.59640 0.47370 -0.01300
C 	C 	0.79480 0.74330 0.47520 0.00700
C 	C 	0.80340 0.70980 0.47470 -0.00100
C 	C 	0.63780 0.58650 0.47300 0.04600
O 	O 	0.79580 0.06119 0.55990 -0.37400
O 	O 	0.75220 0.09318 0.52740 -0.36700
O 	O 	0.83520 0.96570 0.46830 -0.39000
C 	C 	0.84980 0.07390 0.56910 -0.10400
C 	C 	0.90520 0.08450 0.58100 -0.01600
C 	C 	0.88250 0.06930 0.56140 0.05700
C 	C 	0.83970 0.09700 0.59400 0.05500
C 	C 	0.86410 0.11000 0.61410 -0.01500
C 	C 	0.89700 0.10570 0.60660 0.01600
C 	C 	0.82490 0.05410 0.55100 0.38600
C 	C 	0.77020 0.15720 0.47040 0.06400
C 	C 	0.91940 0.11970 0.62810 -0.00500
C 	C 	0.92280 0.10900 0.65970 0.00500
C 	C 	0.94600 0.12290 0.67950 0.00000
C 	C 	0.96570 0.14730 0.66780 0.00100
C 	C 	0.96220 0.15790 0.63620 -0.00000
C 	C 	0.93910 0.14410 0.61640 0.00400
C 	C 	0.77880 0.18980 0.47130 -0.02100
O 	O 	0.57800 0.44080 0.52430 -0.26900
C 	C 	0.72820 0.36990 0.52280 0.00400
C 	C 	0.76030 0.35180 0.52500 0.00100
C 	C 	0.67010 0.40360 0.52630 -0.01300
C 	C 	0.79480 0.25670 0.52480 0.00700
C 	C 	0.80340 0.29020 0.52530 -0.00100
C 	C 	0.63780 0.41350 0.52700 0.04600
O 	O 	0.20420 0.93881 0.55990 -0.37400
O 	O 	0.24780 0.90682 0.52740 -0.36700
O 	O 	0.16480 0.03430 0.46830 -0.38900
C 	C 	0.15020 0.92610 0.56910 -0.10400
C 	C 	0.09480 0.91550 0.58100 -0.01600
C 	C 	0.11750 0.93070 0.56140 0.05700
C 	C 	0.16030 0.90300 0.59400 0.05500
C 	C 	0.13590 0.89000 0.61410 -0.01500
C 	C 	0.10300 0.89430 0.60660 0.01600
C 	C 	0.17510 0.94590 0.55100 0.38600
C 	C 	0.22980 0.84280 0.47040 0.06400
C 	C 	0.08060 0.88030 0.62810 -0.00500
C 	C 	0.07720 0.89100 0.65970 0.00500
C 	C 	0.05400 0.87710 0.67950 0.00000
C 	C 	0.03430 0.85270 0.66780 0.00100
C 	C 	0.03780 0.84210 0.63620 0.00000
C 	C 	0.06090 0.85590 0.61640 0.00400
C 	C 	0.22120 0.81020 0.47130 -0.02100
O 	O 	0.42200 0.55920 0.52430 -0.26900
C 	C 	0.27180 0.63010 0.52280 0.00400
C 	C 	0.23970 0.64820 0.52500 0.00100
C 	C 	0.32990 0.59640 0.52630 -0.01300
C 	C 	0.20520 0.74330 0.52480 0.00700
C 	C 	0.19660 0.70980 0.52530 -0.00100
C 	C 	0.36220 0.58650 0.52700 0.04600
O 	O 	0.20420 0.06119 0.44010 -0.37400
O 	O 	0.24780 0.09318 0.47260 -0.36700
O 	O 	0.16480 0.96570 0.53170 -0.39000
C 	C 	0.15020 0.07390 0.43090 -0.10400
C 	C 	0.09480 0.08450 0.41900 -0.01600
C 	C 	0.11750 0.06930 0.43860 0.05700
C 	C 	0.16030 0.09700 0.40600 0.05500
C 	C 	0.13590 0.11000 0.38590 -0.01500
C 	C 	0.10300 0.10570 0.39340 0.01600
C 	C 	0.17510 0.05410 0.44900 0.38600
C 	C 	0.22980 0.15720 0.52960 0.06400
C 	C 	0.08060 0.11970 0.37190 -0.00500
C 	C 	0.07720 0.10900 0.34030 0.00500
C 	C 	0.05400 0.12290 0.32050 0.00000
C 	C 	0.03430 0.14730 0.33220 0.00100
C 	C 	0.03780 0.15790 0.36380 0.00000
C 	C 	0.06090 0.14410 0.38360 0.00400
C 	C 	0.22120 0.18980 0.52870 -0.02100
O 	O 	0.42200 0.44080 0.47570 -0.26900
C 	C 	0.27180 0.36990 0.47720 0.00400
C 	C 	0.23970 0.35180 0.47500 0.00100
C 	C 	0.32990 0.40360 0.47370 -0.01300
C 	C 	0.20520 0.25670 0.47520 0.00700
C 	C 	0.19660 0.29020 0.47470 -0.00100
C 	C 	0.36220 0.41350 0.47300 0.04600
Hf	Hf	0.95805 0.54195 0.75000 1.49400
Hf	Hf	0.04195 0.45805 0.75000 1.49400
Hf	Hf	0.04195 0.54195 0.25000 1.49400
Hf	Hf	0.95805 0.45805 0.25000 1.49400
Hf	Hf	0.75000 0.95805 0.54195 1.49400
Hf	Hf	0.75000 0.04195 0.45805 1.49400
Hf	Hf	0.25000 0.04195 0.54195 1.49400
Hf	Hf	0.25000 0.95805 0.45805 1.49400
Hf	Hf	0.54195 0.75000 0.95805 1.49400
Hf	Hf	0.45805 0.75000 0.04195 1.49400
Hf	Hf	0.54195 0.25000 0.04195 1.49400
Hf	Hf	0.45805 0.25000 0.95805 1.49400
Hf	Hf	0.04195 0.45805 0.25000 1.49400
Hf	Hf	0.95805 0.54195 0.25000 1.49400
Hf	Hf	0.95805 0.45805 0.75000 1.49400
Hf	Hf	0.04195 0.54195 0.75000 1.49400
Hf	Hf	0.25000 0.04195 0.45805 1.49400
Hf	Hf	0.25000 0.95805 0.54195 1.49400
Hf	Hf	0.75000 0.95805 0.45805 1.49400
Hf	Hf	0.75000 0.04195 0.54195 1.49400
Hf	Hf	0.45805 0.25000 0.04195 1.49400
Hf	Hf	0.54195 0.25000 0.95805 1.49400
Hf	Hf	0.45805 0.75000 0.95805 1.49400
Hf	Hf	0.54195 0.75000 0.04195 1.49400
Hf	Hf	-0.00000 0.50000 0.69042 1.50900
Hf	Hf	0.00000 0.50000 0.30958 1.50900
Hf	Hf	0.69042 0.00000 0.50000 1.50900
Hf	Hf	0.30958 0.00000 0.50000 1.50900
Hf	Hf	0.50000 0.69042 -0.00000 1.50900
Hf	Hf	0.50000 0.30958 -0.00000 1.50900
Hf	Hf	0.00000 0.50000 0.80958 1.50900
Hf	Hf	-0.00000 0.50000 0.19042 1.50900
Hf	Hf	0.50000 0.19042 -0.00000 1.50900
Hf	Hf	0.50000 0.80958 -0.00000 1.50900
Hf	Hf	0.19042 0.00000 0.50000 1.50900
Hf	Hf	0.80958 0.00000 0.50000 1.50900
O 	O 	0.95320 0.50000 0.71720 -0.47200
O 	O 	0.04680 0.50000 0.71720 -0.47100
O 	O 	0.04680 0.50000 0.28280 -0.47100
O 	O 	0.95320 0.50000 0.28280 -0.47200
O 	O 	0.71720 0.95320 0.50000 -0.47200
O 	O 	0.71720 0.04680 0.50000 -0.47100
O 	O 	0.28280 0.04680 0.50000 -0.47100
O 	O 	0.28280 0.95320 0.50000 -0.47200
O 	O 	0.50000 0.71720 0.95320 -0.47200
O 	O 	0.50000 0.71720 0.04680 -0.47100
O 	O 	0.50000 0.28280 0.04680 -0.47100
O 	O 	0.50000 0.28280 0.95320 -0.47200
O 	O 	0.00000 0.45320 0.78280 -0.47100
O 	O 	0.00000 0.54680 0.78280 -0.47100
O 	O 	0.00000 0.54680 0.21720 -0.47100
O 	O 	0.00000 0.45320 0.21720 -0.47100
O 	O 	0.45320 0.21720 -0.00000 -0.47100
O 	O 	0.54680 0.21720 -0.00000 -0.47100
O 	O 	0.54680 0.78280 -0.00000 -0.47100
O 	O 	0.45320 0.78280 -0.00000 -0.47100
O 	O 	0.21720 0.00000 0.54680 -0.47100
O 	O 	0.21720 0.00000 0.45320 -0.47100
O 	O 	0.78280 0.00000 0.45320 -0.47100
O 	O 	0.78280 0.00000 0.54680 -0.47100
O 	O 	-0.00000 0.53540 0.72380 -0.63800
C 	C 	-0.00000 0.60730 0.74410 0.37300
C 	C 	-0.00000 0.70620 0.71660 0.02200
C 	C 	0.00000 0.64060 0.73490 -0.12600
C 	C 	-0.00000 0.73930 0.70740 -0.00900
O 	O 	0.00000 0.95030 0.96820 -1.19400
C 	C 	0.00000 0.80650 0.69080 0.00300
C 	C 	0.00000 0.85910 0.71800 0.00100
C 	C 	0.00000 0.84300 0.68650 -0.00000
C 	C 	0.00000 0.90640 0.81100 0.01400
C 	C 	0.00000 0.89050 0.78020 -0.00400
C 	C 	-0.00000 0.92740 0.87640 -0.05000
C 	C 	-0.00000 0.95200 0.90200 0.24300
O 	O 	-0.00000 0.46460 0.72380 -0.63800
C 	C 	-0.00000 0.39270 0.74410 0.37300
C 	C 	-0.00000 0.29380 0.71660 0.02200
C 	C 	0.00000 0.35940 0.73490 -0.12600
C 	C 	-0.00000 0.26070 0.70740 -0.00900
O 	O 	-0.00000 0.04970 0.96820 -1.19500
C 	C 	-0.00000 0.19350 0.69080 0.00300
C 	C 	0.00000 0.14090 0.71800 0.00100
C 	C 	-0.00000 0.15700 0.68650 -0.00000
C 	C 	-0.00000 0.09360 0.81100 0.01400
C 	C 	-0.00000 0.10950 0.78020 -0.00400
C 	C 	-0.00000 0.07260 0.87640 -0.05000
C 	C 	0.00000 0.04800 0.90200 0.24300
O 	O 	-0.00000 0.53540 0.27620 -0.63800
C 	C 	-0.00000 0.60730 0.25590 0.37300
C 	C 	-0.00000 0.70620 0.28340 0.02200
C 	C 	0.00000 0.64060 0.26510 -0.12600
C 	C 	0.00000 0.73930 0.29260 -0.00900
O 	O 	-0.00000 0.95030 0.03180 -1.19400
C 	C 	0.00000 0.80650 0.30920 0.00300
C 	C 	0.00000 0.85910 0.28200 0.00100
C 	C 	-0.00000 0.84300 0.31350 -0.00000
C 	C 	-0.00000 0.90640 0.18900 0.01400
C 	C 	0.00000 0.89050 0.21980 -0.00400
C 	C 	0.00000 0.92740 0.12360 -0.05000
C 	C 	0.00000 0.95200 0.09800 0.24300
O 	O 	-0.00000 0.46460 0.27620 -0.63800
C 	C 	0.00000 0.39270 0.25590 0.37300
C 	C 	-0.00000 0.29380 0.28340 0.02200
C 	C 	-0.00000 0.35940 0.26510 -0.12600
C 	C 	-0.00000 0.26070 0.29260 -0.00900
O 	O 	0.00000 0.04970 0.03180 -1.19400
C 	C 	0.00000 0.19350 0.30920 0.00300
C 	C 	-0.00000 0.14090 0.28200 0.00100
C 	C 	0.00000 0.15700 0.31350 -0.00000
C 	C 	0.00000 0.09360 0.18900 0.01400
C 	C 	0.00000 0.10950 0.21980 -0.00400
C 	C 	0.00000 0.07260 0.12360 -0.05000
C 	C 	-0.00000 0.04800 0.09800 0.24300
O 	O 	0.72380 0.00000 0.53540 -0.63800
C 	C 	0.74410 -0.00000 0.60730 0.37300
C 	C 	0.71660 0.00000 0.70620 0.02200
C 	C 	0.73490 -0.00000 0.64060 -0.12600
C 	C 	0.70740 0.00000 0.73930 -0.00900
O 	O 	0.96820 0.00000 0.95030 -1.19400
C 	C 	0.69080 -0.00000 0.80650 0.00300
C 	C 	0.71800 0.00000 0.85910 0.00100
C 	C 	0.68650 0.00000 0.84300 -0.00000
C 	C 	0.81100 0.00000 0.90640 0.01400
C 	C 	0.78020 0.00000 0.89050 -0.00400
C 	C 	0.87640 -0.00000 0.92740 -0.05000
C 	C 	0.90200 -0.00000 0.95200 0.24300
O 	O 	0.72380 -0.00000 0.46460 -0.63800
C 	C 	0.74410 0.00000 0.39270 0.37300
C 	C 	0.71660 -0.00000 0.29380 0.02200
C 	C 	0.73490 0.00000 0.35940 -0.12600
C 	C 	0.70740 0.00000 0.26070 -0.00900
O 	O 	0.96820 -0.00000 0.04970 -1.19500
C 	C 	0.69080 -0.00000 0.19350 0.00300
C 	C 	0.71800 0.00000 0.14090 0.00100
C 	C 	0.68650 0.00000 0.15700 -0.00000
C 	C 	0.81100 -0.00000 0.09360 0.01400
C 	C 	0.78020 0.00000 0.10950 -0.00400
C 	C 	0.87640 -0.00000 0.07260 -0.05000
C 	C 	0.90200 0.00000 0.04800 0.24300
O 	O 	0.27620 0.00000 0.53540 -0.63800
C 	C 	0.25590 -0.00000 0.60730 0.37300
C 	C 	0.28340 0.00000 0.70620 0.02200
C 	C 	0.26510 -0.00000 0.64060 -0.12600
C 	C 	0.29260 0.00000 0.73930 -0.00900
O 	O 	0.03180 0.00000 0.95030 -1.19400
C 	C 	0.30920 -0.00000 0.80650 0.00300
C 	C 	0.28200 0.00000 0.85910 0.00100
C 	C 	0.31350 0.00000 0.84300 -0.00000
C 	C 	0.18900 0.00000 0.90640 0.01400
C 	C 	0.21980 0.00000 0.89050 -0.00400
C 	C 	0.12360 -0.00000 0.92740 -0.05000
C 	C 	0.09800 -0.00000 0.95200 0.24300
O 	O 	0.27620 -0.00000 0.46460 -0.63800
C 	C 	0.25590 0.00000 0.39270 0.37300
C 	C 	0.28340 -0.00000 0.29380 0.02200
C 	C 	0.26510 0.00000 0.35940 -0.12600
C 	C 	0.29260 0.00000 0.26070 -0.00900
O 	O 	0.03180 -0.00000 0.04970 -1.19400
C 	C 	0.30920 -0.00000 0.19350 0.00300
C 	C 	0.28200 0.00000 0.14090 0.00100
C 	C 	0.31350 0.00000 0.15700 -0.00000
C 	C 	0.18900 -0.00000 0.09360 0.01400
C 	C 	0.21980 0.00000 0.10950 -0.00400
C 	C 	0.12360 -0.00000 0.07260 -0.05000
C 	C 	0.09800 0.00000 0.04800 0.24300
O 	O 	0.53540 0.72380 -0.00000 -0.63800
C 	C 	0.60730 0.74410 -0.00000 0.37300
C 	C 	0.70620 0.71660 -0.00000 0.02200
C 	C 	0.64060 0.73490 -0.00000 -0.12600
C 	C 	0.73930 0.70740 -0.00000 -0.00900
O 	O 	0.95030 0.96820 -0.00000 -1.19400
C 	C 	0.80650 0.69080 -0.00000 0.00300
C 	C 	0.85910 0.71800 -0.00000 0.00100
C 	C 	0.84300 0.68650 -0.00000 -0.00000
C 	C 	0.90640 0.81100 -0.00000 0.01400
C 	C 	0.89050 0.78020 -0.00000 -0.00400
C 	C 	0.92740 0.87640 -0.00000 -0.05000
C 	C 	0.95200 0.90200 -0.00000 0.24300
O 	O 	0.46460 0.72380 -0.00000 -0.63800
C 	C 	0.39270 0.74410 -0.00000 0.37300
C 	C 	0.29380 0.71660 -0.00000 0.02200
C 	C 	0.35940 0.73490 -0.00000 -0.12600
C 	C 	0.26070 0.70740 -0.00000 -0.00900
O 	O 	0.04970 0.96820 -0.00000 -1.19500
C 	C 	0.19350 0.69080 -0.00000 0.00300
C 	C 	0.14090 0.71800 -0.00000 0.00100
C 	C 	0.15700 0.68650 -0.00000 -0.00000
C 	C 	0.09360 0.81100 -0.00000 0.01400
C 	C 	0.10950 0.78020 -0.00000 -0.00400
C 	C 	0.07260 0.87640 -0.00000 -0.05000
C 	C 	0.04800 0.90200 -0.00000 0.24300
O 	O 	0.53540 0.27620 -0.00000 -0.63800
C 	C 	0.60730 0.25590 -0.00000 0.37300
C 	C 	0.70620 0.28340 -0.00000 0.02200
C 	C 	0.64060 0.26510 -0.00000 -0.12600
C 	C 	0.73930 0.29260 -0.00000 -0.00900
O 	O 	0.95030 0.03180 -0.00000 -1.19400
C 	C 	0.80650 0.30920 -0.00000 0.00300
C 	C 	0.85910 0.28200 -0.00000 0.00100
C 	C 	0.84300 0.31350 -0.00000 -0.00000
C 	C 	0.90640 0.18900 -0.00000 0.01400
C 	C 	0.89050 0.21980 -0.00000 -0.00400
C 	C 	0.92740 0.12360 -0.00000 -0.05000
C 	C 	0.95200 0.09800 -0.00000 0.24300
O 	O 	0.46460 0.27620 -0.00000 -0.63800
C 	C 	0.39270 0.25590 -0.00000 0.37300
C 	C 	0.29380 0.28340 -0.00000 0.02200
C 	C 	0.35940 0.26510 -0.00000 -0.12600
C 	C 	0.26070 0.29260 -0.00000 -0.00900
O 	O 	0.04970 0.03180 -0.00000 -1.19400
C 	C 	0.19350 0.30920 -0.00000 0.00300
C 	C 	0.14090 0.28200 -0.00000 0.00100
C 	C 	0.15700 0.31350 -0.00000 -0.00000
C 	C 	0.09360 0.18900 -0.00000 0.01400
C 	C 	0.10950 0.21980 -0.00000 -0.00400
C 	C 	0.07260 0.12360 -0.00000 -0.05000
C 	C 	0.04800 0.09800 -0.00000 0.24300
O 	O 	0.03540 0.50000 0.77620 -0.63800
C 	C 	0.10730 0.50000 0.75590 0.37200
C 	C 	0.20620 0.50000 0.78340 0.02200
C 	C 	0.14060 0.50000 0.76510 -0.12700
C 	C 	0.23930 0.50000 0.79260 -0.01000
O 	O 	0.45030 0.50000 0.53180 -1.19500
C 	C 	0.30650 0.50000 0.80920 0.00200
C 	C 	0.35910 0.50000 0.78200 0.00100
C 	C 	0.34300 0.50000 0.81350 -0.00000
C 	C 	0.40640 0.50000 0.68900 0.01400
C 	C 	0.39050 0.50000 0.71980 -0.00400
C 	C 	0.42740 0.50000 0.62360 -0.05100
C 	C 	0.45200 0.50000 0.59800 0.24200
O 	O 	0.96460 0.50000 0.77620 -0.63900
C 	C 	0.89270 0.50000 0.75590 0.37200
C 	C 	0.79380 0.50000 0.78340 0.02200
C 	C 	0.85940 0.50000 0.76510 -0.12700
C 	C 	0.76070 0.50000 0.79260 -0.01000
O 	O 	0.54970 0.50000 0.53180 -1.19500
C 	C 	0.69350 0.50000 0.80920 0.00200
C 	C 	0.64090 0.50000 0.78200 0.00100
C 	C 	0.65700 0.50000 0.81350 -0.00000
C 	C 	0.59360 0.50000 0.68900 0.01400
C 	C 	0.60950 0.50000 0.71980 -0.00400
C 	C 	0.57260 0.50000 0.62360 -0.05100
C 	C 	0.54800 0.50000 0.59800 0.24200
O 	O 	0.03540 0.50000 0.22380 -0.63800
C 	C 	0.10730 0.50000 0.24410 0.37200
C 	C 	0.20620 0.50000 0.21660 0.02200
C 	C 	0.14060 0.50000 0.23490 -0.12700
C 	C 	0.23930 0.50000 0.20740 -0.01000
O 	O 	0.45030 0.50000 0.46820 -1.19500
C 	C 	0.30650 0.50000 0.19080 0.00200
C 	C 	0.35910 0.50000 0.21800 0.00100
C 	C 	0.34300 0.50000 0.18650 -0.00000
C 	C 	0.40640 0.50000 0.31100 0.01400
C 	C 	0.39050 0.50000 0.28020 -0.00400
C 	C 	0.42740 0.50000 0.37640 -0.05100
C 	C 	0.45200 0.50000 0.40200 0.24200
O 	O 	0.96460 0.50000 0.22380 -0.63900
C 	C 	0.89270 0.50000 0.24410 0.37200
C 	C 	0.79380 0.50000 0.21660 0.02200
C 	C 	0.85940 0.50000 0.23490 -0.12700
C 	C 	0.76070 0.50000 0.20740 -0.01000
O 	O 	0.54970 0.50000 0.46820 -1.19500
C 	C 	0.69350 0.50000 0.19080 0.00200
C 	C 	0.64090 0.50000 0.21800 0.00100
C 	C 	0.65700 0.50000 0.18650 -0.00000
C 	C 	0.59360 0.50000 0.31100 0.01400
C 	C 	0.60950 0.50000 0.28020 -0.00400
C 	C 	0.57260 0.50000 0.37640 -0.05100
C 	C 	0.54800 0.50000 0.40200 0.24200
O 	O 	0.50000 0.22380 0.96460 -0.63900
C 	C 	0.50000 0.24410 0.89270 0.37200
C 	C 	0.50000 0.21660 0.79380 0.02200
C 	C 	0.50000 0.23490 0.85940 -0.12700
C 	C 	0.50000 0.20740 0.76070 -0.01000
O 	O 	0.50000 0.46820 0.54970 -1.19500
C 	C 	0.50000 0.19080 0.69350 0.00200
C 	C 	0.50000 0.21800 0.64090 0.00100
C 	C 	0.50000 0.18650 0.65700 -0.00000
C 	C 	0.50000 0.31100 0.59360 0.01400
C 	C 	0.50000 0.28020 0.60950 -0.00400
C 	C 	0.50000 0.37640 0.57260 -0.05100
C 	C 	0.50000 0.40200 0.54800 0.24200
O 	O 	0.50000 0.22380 0.03540 -0.63800
C 	C 	0.50000 0.24410 0.10730 0.37200
C 	C 	0.50000 0.21660 0.20620 0.02200
C 	C 	0.50000 0.23490 0.14060 -0.12700
C 	C 	0.50000 0.20740 0.23930 -0.01000
O 	O 	0.50000 0.46820 0.45030 -1.19500
C 	C 	0.50000 0.19080 0.30650 0.00200
C 	C 	0.50000 0.21800 0.35910 0.00100
C 	C 	0.50000 0.18650 0.34300 -0.00000
C 	C 	0.50000 0.31100 0.40640 0.01400
C 	C 	0.50000 0.28020 0.39050 -0.00400
C 	C 	0.50000 0.37640 0.42740 -0.05100
C 	C 	0.50000 0.40200 0.45200 0.24200
O 	O 	0.50000 0.77620 0.96460 -0.63900
C 	C 	0.50000 0.75590 0.89270 0.37200
C 	C 	0.50000 0.78340 0.79380 0.02200
C 	C 	0.50000 0.76510 0.85940 -0.12700
C 	C 	0.50000 0.79260 0.76070 -0.01000
O 	O 	0.50000 0.53180 0.54970 -1.19500
C 	C 	0.50000 0.80920 0.69350 0.00200
C 	C 	0.50000 0.78200 0.64090 0.00100
C 	C 	0.50000 0.81350 0.65700 -0.00000
C 	C 	0.50000 0.68900 0.59360 0.01400
C 	C 	0.50000 0.71980 0.60950 -0.00400
C 	C 	0.50000 0.62360 0.57260 -0.05100
C 	C 	0.50000 0.59800 0.54800 0.24200
O 	O 	0.50000 0.77620 0.03540 -0.63800
C 	C 	0.50000 0.75590 0.10730 0.37200
C 	C 	0.50000 0.78340 0.20620 0.02200
C 	C 	0.50000 0.76510 0.14060 -0.12700
C 	C 	0.50000 0.79260 0.23930 -0.01000
O 	O 	0.50000 0.53180 0.45030 -1.19500
C 	C 	0.50000 0.80920 0.30650 0.00200
C 	C 	0.50000 0.78200 0.35910 0.00100
C 	C 	0.50000 0.81350 0.34300 -0.00000
C 	C 	0.50000 0.68900 0.40640 0.01400
C 	C 	0.50000 0.71980 0.39050 -0.00400
C 	C 	0.50000 0.62360 0.42740 -0.05100
C 	C 	0.50000 0.59800 0.45200 0.24200
O 	O 	0.22380 0.03540 0.50000 -0.63800
C 	C 	0.24410 0.10730 0.50000 0.37200
C 	C 	0.21660 0.20620 0.50000 0.02200
C 	C 	0.23490 0.14060 0.50000 -0.12700
C 	C 	0.20740 0.23930 0.50000 -0.01000
O 	O 	0.46820 0.45030 0.50000 -1.19500
C 	C 	0.19080 0.30650 0.50000 0.00200
C 	C 	0.21800 0.35910 0.50000 0.00100
C 	C 	0.18650 0.34300 0.50000 -0.00000
C 	C 	0.31100 0.40640 0.50000 0.01400
C 	C 	0.28020 0.39050 0.50000 -0.00400
C 	C 	0.37640 0.42740 0.50000 -0.05100
C 	C 	0.40200 0.45200 0.50000 0.24200
O 	O 	0.22380 0.96460 0.50000 -0.63900
C 	C 	0.24410 0.89270 0.50000 0.37200
C 	C 	0.21660 0.79380 0.50000 0.02200
C 	C 	0.23490 0.85940 0.50000 -0.12700
C 	C 	0.20740 0.76070 0.50000 -0.01000
O 	O 	0.46820 0.54970 0.50000 -1.19500
C 	C 	0.19080 0.69350 0.50000 0.00200
C 	C 	0.21800 0.64090 0.50000 0.00100
C 	C 	0.18650 0.65700 0.50000 -0.00000
C 	C 	0.31100 0.59360 0.50000 0.01400
C 	C 	0.28020 0.60950 0.50000 -0.00400
C 	C 	0.37640 0.57260 0.50000 -0.05100
C 	C 	0.40200 0.54800 0.50000 0.24200
O 	O 	0.77620 0.03540 0.50000 -0.63800
C 	C 	0.75590 0.10730 0.50000 0.37200
C 	C 	0.78340 0.20620 0.50000 0.02200
C 	C 	0.76510 0.14060 0.50000 -0.12700
C 	C 	0.79260 0.23930 0.50000 -0.01000
O 	O 	0.53180 0.45030 0.50000 -1.19500
C 	C 	0.80920 0.30650 0.50000 0.00200
C 	C 	0.78200 0.35910 0.50000 0.00100
C 	C 	0.81350 0.34300 0.50000 -0.00000
C 	C 	0.68900 0.40640 0.50000 0.01400
C 	C 	0.71980 0.39050 0.50000 -0.00400
C 	C 	0.62360 0.42740 0.50000 -0.05100
C 	C 	0.59800 0.45200 0.50000 0.24200
O 	O 	0.77620 0.96460 0.50000 -0.63900
C 	C 	0.75590 0.89270 0.50000 0.37200
C 	C 	0.78340 0.79380 0.50000 0.02200
C 	C 	0.76510 0.85940 0.50000 -0.12700
C 	C 	0.79260 0.76070 0.50000 -0.01000
O 	O 	0.53180 0.54970 0.50000 -1.19500
C 	C 	0.80920 0.69350 0.50000 0.00200
C 	C 	0.78200 0.64090 0.50000 0.00100
C 	C 	0.81350 0.65700 0.50000 -0.00000
C 	C 	0.68900 0.59360 0.50000 0.01400
C 	C 	0.71980 0.60950 0.50000 -0.00400
C 	C 	0.62360 0.57260 0.50000 -0.05100
C 	C 	0.59800 0.54800 0.50000 0.24200
Hf	Hf	0.96708 0.96708 0.96708 2.17900
Hf	Hf	0.03292 0.03292 0.96708 2.18000
Hf	Hf	0.03292 0.96708 0.03292 2.18000
Hf	Hf	0.96708 0.03292 0.03292 2.18000
Hf	Hf	0.46708 0.46708 0.53292 2.18000
Hf	Hf	0.53292 0.53292 0.53292 2.18000
Hf	Hf	0.46708 0.53292 0.46708 2.18000
Hf	Hf	0.53292 0.46708 0.46708 2.18000
Hf	Hf	0.03292 0.03292 0.03292 2.18000
Hf	Hf	0.96708 0.96708 0.03292 2.17900
Hf	Hf	0.96708 0.03292 0.96708 2.17900
Hf	Hf	0.03292 0.96708 0.96708 2.17900
Hf	Hf	0.53292 0.53292 0.46708 2.18000
Hf	Hf	0.46708 0.46708 0.46708 2.18000
Hf	Hf	0.53292 0.46708 0.53292 2.18000
Hf	Hf	0.46708 0.53292 0.53292 2.18000
