data_crystal

_cell_length_a 90.53800
_cell_length_b 27.80900
_cell_length_c 48.34300
_cell_angle_alpha 90.00000
_cell_angle_beta  119.12900
_cell_angle_gamma 90.00000

_symmetry_space_group_name_	'P 1'
_symmetry_space_group_name_H-M	'P 1'

loop_
_symmetry_equiv_pos_as_xyz
  x,y,z

loop_
_atom_site_label
_atom_site_type_symbol
_atom_site_fract_x
_atom_site_fract_y
_atom_site_fract_z
_atom_site_charge
Cd	Cd	0.29328 0.33569 0.49773 1.19000
Cd	Cd	0.39255 0.99205 0.55405 1.19000
Cd	Cd	0.34598 0.95161 0.23361 1.19100
Cd	Cd	0.25255 0.31195 0.18579 1.19100
Cd	Cd	0.35577 0.62132 0.39758 1.19000
Cd	Cd	0.45398 0.36350 0.62451 1.19300
Cd	Cd	0.46622 0.13702 0.39949 1.19100
Cd	Cd	0.37444 0.37889 0.17284 1.19000
O 	O 	0.27486 0.43700 0.38560 -0.21000
O 	O 	0.26108 0.41540 0.29140 -0.21700
O 	O 	0.29826 0.50250 0.35600 -0.21000
N 	N 	0.28414 0.39570 0.51960 -0.21600
N 	N 	0.28068 0.39590 0.45970 -0.21000
N 	N 	0.23099 0.26050 0.18420 -0.20400
N 	N 	0.24657 0.33630 0.22520 -0.21100
N 	N 	0.37452 0.55620 0.41250 -0.20900
N 	N 	0.33960 0.54960 0.38480 -0.20600
C 	C 	0.28460 0.39340 0.54920 0.02200
C 	C 	0.27050 0.40260 0.55210 -0.00800
H 	H 	0.26000 0.40970 0.53390 0.02700
C 	C 	0.27160 0.40170 0.58170 -0.18100
H 	H 	0.26220 0.41200 0.58380 0.07300
C 	C 	0.28590 0.38640 0.60810 0.21300
C 	C 	0.29980 0.37730 0.60500 -0.18200
H 	H 	0.31010 0.36990 0.62340 0.08200
C 	C 	0.29920 0.37860 0.57510 -0.01900
H 	H 	0.30870 0.36950 0.57310 0.01500
C 	C 	0.28590 0.37590 0.63900 -0.56100
H 	H 	0.28370 0.34170 0.64000 0.17400
H 	H 	0.27720 0.39520 0.64010 0.17300
H 	H 	0.29700 0.38420 0.65680 0.17100
C 	C 	0.27690 0.43130 0.50140 -0.03800
H 	H 	0.27280 0.45700 0.50860 0.04100
C 	C 	0.27490 0.43340 0.46950 0.03000
C 	C 	0.26810 0.47310 0.45100 -0.03000
H 	H 	0.26400 0.49900 0.45830 0.03200
C 	C 	0.26730 0.47550 0.42170 -0.12700
H 	H 	0.26260 0.50280 0.40840 0.06800
C 	C 	0.27330 0.43770 0.41240 0.15300
C 	C 	0.27990 0.39900 0.43140 -0.06200
H 	H 	0.28400 0.37300 0.42440 0.04300
C 	C 	0.26890 0.47880 0.36540 -0.07200
H 	H 	0.27590 0.50720 0.37650 0.05500
H 	H 	0.25700 0.48560 0.35920 0.04700
C 	C 	0.22263 0.22250 0.16190 0.01400
C 	C 	0.21834 0.22950 0.13100 -0.00100
H 	H 	0.22000 0.26040 0.12460 0.01100
C 	C 	0.21170 0.19400 0.10890 -0.18900
H 	H 	0.20890 0.20020 0.08760 0.08600
C 	C 	0.20910 0.14850 0.11780 0.23200
C 	C 	0.21260 0.14130 0.14790 -0.19800
H 	H 	0.21010 0.11090 0.15370 0.09200
C 	C 	0.21990 0.17820 0.17130 0.00500
H 	H 	0.22280 0.17230 0.19280 0.02800
C 	C 	0.20170 0.10680 0.09410 -0.58400
H 	H 	0.19980 0.11730 0.07330 0.19200
H 	H 	0.20960 0.07970 0.10150 0.19500
H 	H 	0.19090 0.09660 0.09250 0.19600
C 	C 	0.22952 0.26430 0.20910 -0.03700
H 	H 	0.22280 0.24150 0.21260 0.04400
C 	C 	0.23786 0.30290 0.23240 0.03000
C 	C 	0.23588 0.30690 0.25820 -0.04100
H 	H 	0.22880 0.28460 0.26110 0.03100
C 	C 	0.24390 0.34280 0.28080 -0.12000
H 	H 	0.24320 0.34410 0.29980 0.06700
C 	C 	0.25290 0.37660 0.27380 0.14100
C 	C 	0.25378 0.37220 0.24570 -0.05700
H 	H 	0.25980 0.39600 0.24100 0.03700
C 	C 	0.26020 0.42150 0.32020 -0.07100
H 	H 	0.26500 0.39310 0.33410 0.06300
H 	H 	0.24830 0.42570 0.31540 0.05200
C 	C 	0.39262 0.55890 0.42570 0.00300
C 	C 	0.40190 0.53080 0.41670 0.01500
H 	H 	0.39640 0.50680 0.40100 0.02300
C 	C 	0.41910 0.53660 0.42990 -0.20200
H 	H 	0.42540 0.51590 0.42390 0.08400
C 	C 	0.42720 0.57220 0.45190 0.23400
C 	C 	0.41840 0.60100 0.46060 -0.20900
H 	H 	0.42390 0.62550 0.47590 0.09200
C 	C 	0.40100 0.59460 0.44690 0.01200
H 	H 	0.39470 0.61600 0.45260 -0.00100
C 	C 	0.44640 0.57840 0.46710 -0.56300
H 	H 	0.44900 0.60170 0.45480 0.17300
H 	H 	0.45160 0.54740 0.46730 0.17000
H 	H 	0.45090 0.59010 0.48880 0.17600
C 	C 	0.36737 0.51580 0.40500 -0.03300
H 	H 	0.37430 0.48800 0.40940 0.04200
C 	C 	0.34906 0.50940 0.38990 0.03300
C 	C 	0.34172 0.46470 0.38350 -0.03300
H 	H 	0.34860 0.43690 0.38730 0.03700
C 	C 	0.32431 0.45960 0.37140 -0.12000
H 	H 	0.31910 0.42880 0.36670 0.07100
C 	C 	0.31512 0.50020 0.36650 0.14200
C 	C 	0.32352 0.54450 0.37320 -0.04300
H 	H 	0.31690 0.57280 0.36880 0.02600
C 	C 	0.28896 0.45750 0.34590 -0.08100
H 	H 	0.29380 0.43380 0.36340 0.07000
H 	H 	0.28980 0.44410 0.32770 0.06900
C 	C 	0.27064 0.46690 0.33640 0.15900
C 	C 	0.26320 0.50940 0.31240 -0.48300
H 	H 	0.26300 0.50070 0.29260 0.16900
H 	H 	0.27020 0.53800 0.32150 0.17000
H 	H 	0.25160 0.51600 0.30820 0.15200
O 	O 	0.40226 0.92390 0.45500 -0.21500
O 	O 	0.39232 0.91280 0.36050 -0.21000
O 	O 	0.42349 0.99350 0.40780 -0.20800
N 	N 	0.37220 0.93370 0.54670 -0.21100
N 	N 	0.38952 0.94020 0.51320 -0.20600
N 	N 	0.36131 0.91010 0.21350 -0.21100
N 	N 	0.36991 0.91710 0.27660 -0.21000
N 	N 	0.44775 0.19910 0.39580 -0.21000
N 	N 	0.44256 0.10250 0.40240 -0.20500
C 	C 	0.36331 0.93440 0.56380 0.00500
C 	C 	0.34619 0.92800 0.55010 0.01300
H 	H 	0.33980 0.92160 0.52810 0.02200
C 	C 	0.33800 0.93080 0.56810 -0.22200
H 	H 	0.32630 0.92350 0.55870 0.08800
C 	C 	0.34680 0.94400 0.59920 0.25600
C 	C 	0.36400 0.94890 0.61340 -0.20700
H 	H 	0.37050 0.95400 0.63560 0.09400
C 	C 	0.37240 0.94630 0.59490 -0.01000
H 	H 	0.38420 0.95290 0.60420 0.00000
C 	C 	0.33830 0.95300 0.61890 -0.63300
H 	H 	0.32600 0.95050 0.60550 0.20300
H 	H 	0.34110 0.98530 0.62810 0.20800
H 	H 	0.34210 0.92910 0.63590 0.20900
C 	C 	0.36812 0.90620 0.52250 -0.04100
H 	H 	0.35950 0.88280 0.51720 0.03800
C 	C 	0.37623 0.90970 0.50300 0.03100
C 	C 	0.37086 0.88170 0.47650 -0.03400
H 	H 	0.36170 0.85980 0.47030 0.03100
C 	C 	0.37902 0.88630 0.45910 -0.12900
H 	H 	0.37540 0.86810 0.44030 0.07400
C 	C 	0.39233 0.91700 0.46900 0.14400
C 	C 	0.39749 0.94270 0.49620 -0.06100
H 	H 	0.40710 0.96310 0.50320 0.04300
C 	C 	0.39812 0.90310 0.42480 -0.07400
H 	H 	0.38670 0.91340 0.40840 0.06200
H 	H 	0.39830 0.86760 0.42610 0.05400
C 	C 	0.35639 0.91160 0.18070 0.01200
C 	C 	0.33998 0.90480 0.15840 -0.01900
H 	H 	0.33200 0.89690 0.16500 0.01400
C 	C 	0.33460 0.90900 0.12660 -0.17800
H 	H 	0.32310 0.90380 0.11150 0.07800
C 	C 	0.34610 0.92080 0.11660 0.19600
C 	C 	0.36250 0.92710 0.13860 -0.17900
H 	H 	0.37040 0.93500 0.13170 0.09000
C 	C 	0.36839 0.92250 0.17160 -0.01200
H 	H 	0.38000 0.92660 0.18680 0.03000
C 	C 	0.34130 0.92640 0.08110 -0.53800
H 	H 	0.33180 0.90500 0.06810 0.17300
H 	H 	0.35110 0.91800 0.07850 0.17800
H 	H 	0.33800 0.95980 0.07440 0.17500
C 	C 	0.37530 0.89250 0.23500 -0.04400
H 	H 	0.38260 0.87770 0.22870 0.04100
C 	C 	0.38052 0.89420 0.26880 0.03800
C 	C 	0.39590 0.87810 0.29110 -0.04000
H 	H 	0.40350 0.86480 0.28480 0.03500
C 	C 	0.40070 0.88100 0.32320 -0.11600
H 	H 	0.41120 0.86840 0.33900 0.06400
C 	C 	0.38952 0.90320 0.33130 0.14900
C 	C 	0.37421 0.92060 0.30710 -0.05600
H 	H 	0.36660 0.93560 0.31250 0.03700
C 	C 	0.40875 0.89830 0.38580 -0.07200
H 	H 	0.41770 0.90870 0.38100 0.06000
H 	H 	0.40920 0.86280 0.38790 0.04800
C 	C 	0.45240 0.24890 0.39700 0.00700
C 	C 	0.45350 0.27820 0.42060 0.01000
H 	H 	0.45120 0.26560 0.43640 0.02700
C 	C 	0.45780 0.32530 0.42170 -0.19000
H 	H 	0.45770 0.34570 0.43730 0.08300
C 	C 	0.46240 0.34370 0.40080 0.21400
C 	C 	0.46150 0.31550 0.37780 -0.18900
H 	H 	0.46500 0.32760 0.36340 0.08300
C 	C 	0.45560 0.26810 0.37460 -0.00400
H 	H 	0.45390 0.24940 0.35680 0.01400
C 	C 	0.46860 0.39660 0.40510 -0.53700
H 	H 	0.46560 0.41040 0.38440 0.16200
H 	H 	0.48090 0.39750 0.41860 0.16500
H 	H 	0.46320 0.41530 0.41490 0.16300
C 	C 	0.43600 0.18750 0.40130 -0.03000
H 	H 	0.42960 0.21190 0.40450 0.04000
C 	C 	0.43200 0.13610 0.40280 0.03400
C 	C 	0.41950 0.12480 0.40980 -0.03900
H 	H 	0.41360 0.14950 0.41390 0.03800
C 	C 	0.41538 0.07630 0.41070 -0.11600
H 	H 	0.40610 0.06760 0.41370 0.06800
C 	C 	0.42511 0.04220 0.40720 0.13400
C 	C 	0.43862 0.05780 0.40250 -0.04300
H 	H 	0.44520 0.03410 0.39940 0.03200
C 	C 	0.41016 0.97630 0.41390 -0.07400
H 	H 	0.39890 0.98560 0.39630 0.06800
H 	H 	0.41150 0.99040 0.43370 0.06400
C 	C 	0.41165 0.92130 0.41670 0.15400
C 	C 	0.42979 0.90680 0.44280 -0.47400
H 	H 	0.43020 0.87200 0.44630 0.15400
H 	H 	0.43250 0.92360 0.46260 0.16800
H 	H 	0.43800 0.91570 0.43600 0.16100
O 	O 	0.31176 0.09560 0.14240 -0.21600
O 	O 	0.28521 0.21990 0.12880 -0.20700
O 	O 	0.32564 0.23430 0.14330 -0.20300
N 	N 	0.32250 0.90140 0.21590 -0.21600
N 	N 	0.32360 0.98800 0.18790 -0.20000
N 	N 	0.23544 0.35920 0.14260 -0.22000
N 	N 	0.25842 0.29200 0.14590 -0.21600
N 	N 	0.38533 0.37040 0.22890 -0.20400
N 	N 	0.35951 0.31720 0.18170 -0.20900
C 	C 	0.32280 0.85260 0.22440 0.01400
C 	C 	0.33580 0.83530 0.25260 -0.01600
H 	H 	0.34390 0.85710 0.26720 0.00300
C 	C 	0.33710 0.78640 0.25990 -0.19000
H 	H 	0.34620 0.77500 0.27920 0.08800
C 	C 	0.32530 0.75470 0.23910 0.22100
C 	C 	0.31160 0.77250 0.21230 -0.19000
H 	H 	0.30320 0.75100 0.19800 0.07500
C 	C 	0.30990 0.82270 0.20570 -0.01000
H 	H 	0.29990 0.83520 0.18850 0.02500
C 	C 	0.32550 0.70180 0.24680 -0.57700
H 	H 	0.32770 0.68270 0.23210 0.18000
H 	H 	0.31460 0.69270 0.24480 0.18100
H 	H 	0.33450 0.69590 0.26860 0.19100
C 	C 	0.30910 0.92290 0.19610 -0.04300
H 	H 	0.29860 0.90740 0.18990 0.04200
C 	C 	0.30873 0.96940 0.18220 0.03100
C 	C 	0.29400 0.99510 0.16630 -0.03200
H 	H 	0.28360 0.98290 0.16400 0.03300
C 	C 	0.29460 0.03880 0.15390 -0.12200
H 	H 	0.28470 0.05810 0.14360 0.06700
C 	C 	0.30941 0.05460 0.15620 0.14200
C 	C 	0.32369 0.03030 0.17500 -0.06100
H 	H 	0.33420 0.04380 0.17930 0.04400
C 	C 	0.29756 0.12700 0.12580 -0.07900
H 	H 	0.29220 0.13410 0.13890 0.06400
H 	H 	0.28910 0.11180 0.10580 0.05000
C 	C 	0.22316 0.39480 0.14120 0.00800
C 	C 	0.21270 0.38350 0.15300 -0.01200
H 	H 	0.21380 0.35310 0.16270 0.01200
C 	C 	0.20060 0.41540 0.15120 -0.18700
H 	H 	0.19300 0.40620 0.15840 0.08000
C 	C 	0.19970 0.46110 0.13880 0.21100
C 	C 	0.21110 0.47330 0.12990 -0.19500
H 	H 	0.21130 0.50560 0.12360 0.07700
C 	C 	0.22310 0.44010 0.12950 -0.01300
H 	H 	0.23060 0.44870 0.12170 0.02000
C 	C 	0.18700 0.49930 0.13750 -0.56200
H 	H 	0.17570 0.49210 0.11990 0.18100
H 	H 	0.19060 0.53120 0.13450 0.17800
H 	H 	0.18660 0.49880 0.15740 0.18200
C 	C 	0.23763 0.35410 0.11850 -0.03900
H 	H 	0.23130 0.37330 0.10020 0.03600
C 	C 	0.24984 0.31880 0.11880 0.02800
C 	C 	0.25218 0.31200 0.09330 -0.03700
H 	H 	0.24580 0.33040 0.07460 0.03300
C 	C 	0.26382 0.27840 0.09390 -0.11500
H 	H 	0.26560 0.27370 0.07630 0.06400
C 	C 	0.27279 0.25200 0.12200 0.14100
C 	C 	0.26965 0.26060 0.14730 -0.04600
H 	H 	0.27600 0.24300 0.16640 0.03700
C 	C 	0.28992 0.21010 0.10480 -0.07700
H 	H 	0.29370 0.23990 0.09900 0.06400
H 	H 	0.28020 0.19690 0.08560 0.04700
C 	C 	0.40070 0.39230 0.25200 0.02600
C 	C 	0.41550 0.36720 0.27050 -0.02000
H 	H 	0.41580 0.33340 0.26820 0.03600
C 	C 	0.42990 0.39200 0.29280 -0.15900
H 	H 	0.44010 0.37470 0.30520 0.07500
C 	C 	0.42950 0.44120 0.29670 0.18500
C 	C 	0.41510 0.46530 0.27860 -0.16800
H 	H 	0.41460 0.49890 0.28140 0.07400
C 	C 	0.40110 0.44090 0.25550 -0.01700
H 	H 	0.39130 0.45900 0.24160 0.02100
C 	C 	0.44540 0.46910 0.32080 -0.50200
H 	H 	0.45130 0.45070 0.34050 0.15300
H 	H 	0.44210 0.50050 0.32510 0.15500
H 	H 	0.45310 0.47370 0.31190 0.15100
C 	C 	0.38031 0.33260 0.23600 -0.03300
H 	H 	0.38600 0.32180 0.25740 0.04300
C 	C 	0.36588 0.30450 0.21250 0.03700
C 	C 	0.35930 0.26840 0.22200 -0.03800
H 	H 	0.36420 0.26050 0.24380 0.03900
C 	C 	0.34550 0.24290 0.19960 -0.11500
H 	H 	0.34080 0.21710 0.20570 0.06900
C 	C 	0.33887 0.25580 0.16870 0.13800
C 	C 	0.34685 0.29270 0.16080 -0.03800
H 	H 	0.34270 0.29980 0.13900 0.03600
C 	C 	0.31900 0.19120 0.14970 -0.07600
H 	H 	0.31510 0.19810 0.16520 0.07100
H 	H 	0.32790 0.16630 0.15880 0.06700
C 	C 	0.30432 0.17330 0.11880 0.16400
C 	C 	0.31059 0.16500 0.09450 -0.49500
H 	H 	0.30120 0.15280 0.07470 0.15800
H 	H 	0.31980 0.14140 0.10300 0.17200
H 	H 	0.31470 0.19540 0.09050 0.17600
O 	O 	0.34859 0.25040 0.60050 -0.21300
O 	O 	0.38569 0.15320 0.61660 -0.21000
O 	O 	0.39745 0.27060 0.62180 -0.21000
N 	N 	0.27373 0.27580 0.49340 -0.20800
N 	N 	0.30726 0.28260 0.54070 -0.20400
N 	N 	0.41576 0.96140 0.59960 -0.21500
N 	N 	0.39795 0.04310 0.59660 -0.20900
N 	N 	0.44167 0.36000 0.56830 -0.20700
N 	N 	0.42674 0.32710 0.60320 -0.20400
C 	C 	0.25668 0.27230 0.46950 0.01300
C 	C 	0.24900 0.22880 0.45640 0.01900
H 	H 	0.25510 0.19960 0.46420 0.02400
C 	C 	0.23240 0.22780 0.43210 -0.21700
H 	H 	0.22690 0.19780 0.42460 0.10100
C 	C 	0.22390 0.26940 0.41870 0.25000
C 	C 	0.23140 0.31270 0.43210 -0.19600
H 	H 	0.22530 0.34180 0.42380 0.08600
C 	C 	0.24799 0.31420 0.45810 -0.01000
H 	H 	0.25300 0.34410 0.46740 0.00700
C 	C 	0.20640 0.26940 0.38990 -0.62100
H 	H 	0.20190 0.30220 0.38580 0.20000
H 	H 	0.19900 0.24830 0.39380 0.20600
H 	H 	0.20710 0.25770 0.37150 0.19400
C 	C 	0.28079 0.24120 0.51340 -0.03800
H 	H 	0.27400 0.21440 0.51240 0.04800
C 	C 	0.29848 0.24120 0.53730 0.03200
C 	C 	0.30620 0.20110 0.55540 -0.03400
H 	H 	0.29970 0.17330 0.55350 0.03100
C 	C 	0.32320 0.20110 0.57630 -0.13400
H 	H 	0.32880 0.17310 0.58800 0.06900
C 	C 	0.33186 0.24280 0.57950 0.14900
C 	C 	0.32370 0.28230 0.56210 -0.06400
H 	H 	0.33000 0.31100 0.56520 0.04500
C 	C 	0.35924 0.20880 0.61450 -0.08100
H 	H 	0.35740 0.18500 0.59790 0.06500
H 	H 	0.35650 0.19340 0.62990 0.05900
C 	C 	0.42530 0.91960 0.59960 0.01300
C 	C 	0.41740 0.88090 0.58100 -0.01900
H 	H 	0.40540 0.88120 0.56840 0.01100
C 	C 	0.42620 0.84120 0.57980 -0.16900
H 	H 	0.42040 0.81510 0.56620 0.06800
C 	C 	0.44370 0.83940 0.59840 0.19800
C 	C 	0.45140 0.87690 0.61760 -0.17800
H 	H 	0.46340 0.87590 0.63040 0.08100
C 	C 	0.44270 0.91810 0.61980 -0.00900
H 	H 	0.44850 0.94330 0.63430 0.02800
C 	C 	0.45470 0.79910 0.59560 -0.53800
H 	H 	0.44740 0.77620 0.57920 0.16600
H 	H 	0.46090 0.78230 0.61600 0.17100
H 	H 	0.46280 0.81320 0.59000 0.17800
C 	C 	0.42000 0.98430 0.62560 -0.03700
H 	H 	0.42890 0.97240 0.64510 0.03500
C 	C 	0.41122 0.02880 0.62510 0.02800
C 	C 	0.41530 0.05410 0.65230 -0.03500
H 	H 	0.42410 0.04260 0.67190 0.03300
C 	C 	0.40689 0.09610 0.65170 -0.11800
H 	H 	0.40940 0.11310 0.67060 0.06600
C 	C 	0.39452 0.11230 0.62210 0.14500
C 	C 	0.39004 0.08390 0.59530 -0.05600
H 	H 	0.38110 0.09420 0.57550 0.03400
C 	C 	0.38962 0.18350 0.64380 -0.07700
H 	H 	0.40150 0.19470 0.65380 0.06500
H 	H 	0.38790 0.16560 0.65980 0.05000
C 	C 	0.44850 0.37940 0.54930 0.02100
C 	C 	0.43910 0.40140 0.52070 -0.00800
H 	H 	0.42720 0.40400 0.51250 0.03200
C 	C 	0.44620 0.41980 0.50340 -0.16600
H 	H 	0.43940 0.43480 0.48350 0.07700
C 	C 	0.46370 0.41610 0.51580 0.19300
C 	C 	0.47320 0.39330 0.54360 -0.17400
H 	H 	0.48500 0.38880 0.55140 0.07900
C 	C 	0.46550 0.37660 0.56080 -0.01300
H 	H 	0.47240 0.36290 0.58120 0.00900
C 	C 	0.47140 0.43680 0.49610 -0.51500
H 	H 	0.46250 0.45180 0.47680 0.15500
H 	H 	0.48000 0.46100 0.50860 0.15500
H 	H 	0.47670 0.41090 0.49030 0.16000
C 	C 	0.42650 0.34810 0.55450 -0.02600
H 	H 	0.42020 0.35120 0.53210 0.03900
C 	C 	0.41776 0.32970 0.57130 0.03400
C 	C 	0.40139 0.31500 0.55480 -0.03400
H 	H 	0.39530 0.31750 0.53240 0.03700
C 	C 	0.39367 0.29650 0.57110 -0.11800
H 	H 	0.38210 0.28710 0.56010 0.07000
C 	C 	0.40279 0.29180 0.60300 0.13900
C 	C 	0.41983 0.30740 0.61810 -0.04000
H 	H 	0.42650 0.30320 0.64030 0.03300
C 	C 	0.38012 0.25350 0.60640 -0.07600
H 	H 	0.37800 0.23210 0.58850 0.07000
H 	H 	0.37220 0.28100 0.59810 0.06600
C 	C 	0.37750 0.22610 0.63110 0.16100
C 	C 	0.38090 0.25970 0.65970 -0.48200
H 	H 	0.37330 0.28750 0.65200 0.16900
H 	H 	0.39270 0.27090 0.66990 0.16200
H 	H 	0.37900 0.24180 0.67510 0.15900
O 	O 	0.47878 0.12930 0.52510 -0.21000
O 	O 	0.47303 0.18940 0.59660 -0.21000
O 	O 	0.44670 0.09360 0.55860 -0.20300
N 	N 	0.48830 0.19240 0.41110 -0.21100
N 	N 	0.47914 0.15640 0.45360 -0.20500
N 	N 	0.46098 0.34370 0.67630 -0.21300
N 	N 	0.46659 0.28900 0.63500 -0.21400
N 	N 	0.37174 0.03760 0.50940 -0.20100
N 	N 	0.40637 0.04730 0.53810 -0.21000
C 	C 	0.49340 0.20660 0.38890 0.02500
C 	C 	0.49810 0.25270 0.38720 -0.01400
H 	H 	0.49810 0.27600 0.40160 0.02900
C 	C 	0.50290 0.26650 0.36510 -0.17900
H 	H 	0.50570 0.29900 0.36390 0.07600
C 	C 	0.50350 0.23270 0.34500 0.19800
C 	C 	0.49920 0.18620 0.34780 -0.16700
H 	H 	0.49850 0.16320 0.33270 0.07700
C 	C 	0.49560 0.17010 0.37240 -0.04200
H 	H 	0.49480 0.13720 0.37660 0.02100
C 	C 	0.50860 0.24770 0.32050 -0.54600
H 	H 	0.50130 0.23150 0.30040 0.17100
H 	H 	0.52040 0.23860 0.32790 0.16700
H 	H 	0.50740 0.28260 0.31740 0.17000
C 	C 	0.49450 0.21070 0.43910 -0.04200
H 	H 	0.50200 0.23700 0.44440 0.03900
C 	C 	0.49040 0.19290 0.46280 0.03700
C 	C 	0.49840 0.20960 0.49310 -0.03400
H 	H 	0.50680 0.23400 0.49900 0.03000
C 	C 	0.49450 0.19150 0.51490 -0.12300
H 	H 	0.49910 0.20490 0.53560 0.06700
C 	C 	0.48364 0.15360 0.50610 0.14400
C 	C 	0.47540 0.13950 0.47530 -0.05900
H 	H 	0.46660 0.11660 0.46890 0.03900
C 	C 	0.48410 0.14750 0.55670 -0.09300
H 	H 	0.48150 0.18230 0.55600 0.06900
H 	H 	0.49650 0.14290 0.57040 0.05600
C 	C 	0.45640 0.37270 0.69590 0.01200
C 	C 	0.45820 0.42100 0.69590 -0.01500
H 	H 	0.46230 0.43550 0.68320 0.01500
C 	C 	0.45390 0.44910 0.71450 -0.17400
H 	H 	0.45540 0.48300 0.71480 0.08200
C 	C 	0.44750 0.42900 0.73290 0.21500
C 	C 	0.44660 0.38140 0.73430 -0.19000
H 	H 	0.44250 0.36750 0.74730 0.07900
C 	C 	0.45170 0.35110 0.71640 -0.00900
H 	H 	0.45180 0.31710 0.71860 0.02700
C 	C 	0.44240 0.46170 0.75270 -0.55000
H 	H 	0.45250 0.47590 0.77030 0.17400
H 	H 	0.43640 0.44250 0.76110 0.17000
H 	H 	0.43490 0.48740 0.73920 0.18300
C 	C 	0.46790 0.30210 0.68500 -0.04300
H 	H 	0.47150 0.29200 0.70610 0.04300
C 	C 	0.47050 0.26970 0.66400 0.03400
C 	C 	0.47770 0.22550 0.67340 -0.03500
H 	H 	0.48170 0.21510 0.69460 0.03500
C 	C 	0.47940 0.19550 0.65160 -0.12400
H 	H 	0.48440 0.16460 0.65770 0.06800
C 	C 	0.47350 0.21220 0.62130 0.15400
C 	C 	0.46730 0.25950 0.61380 -0.05600
H 	H 	0.46350 0.27100 0.59290 0.04100
C 	C 	0.47800 0.13970 0.60110 -0.08300
H 	H 	0.47160 0.12180 0.60950 0.06700
H 	H 	0.49020 0.13690 0.61650 0.05000
C 	C 	0.35400 0.02710 0.49430 0.00300
C 	C 	0.34568 0.00530 0.46540 0.01500
H 	H 	0.35130 0.00020 0.45340 0.02200
C 	C 	0.32936 0.99080 0.45380 -0.20200
H 	H 	0.32390 0.97460 0.43400 0.08900
C 	C 	0.32051 0.99890 0.47020 0.23900
C 	C 	0.32868 0.02000 0.49880 -0.20900
H 	H 	0.32300 0.02590 0.51060 0.08700
C 	C 	0.34564 0.03330 0.51130 0.00700
H 	H 	0.35150 0.04690 0.53190 0.00600
C 	C 	0.30212 0.98330 0.45590 -0.59000
H 	H 	0.29930 0.96210 0.43780 0.19000
H 	H 	0.29480 0.01170 0.44880 0.17800
H 	H 	0.30050 0.96600 0.47180 0.18600
C 	C 	0.37804 0.06020 0.49580 -0.02600
H 	H 	0.37070 0.07260 0.47530 0.03900
C 	C 	0.39628 0.06880 0.50970 0.03100
C 	C 	0.40266 0.10020 0.49640 -0.03200
H 	H 	0.39540 0.11510 0.47670 0.03600
C 	C 	0.41990 0.11020 0.51180 -0.12200
H 	H 	0.42450 0.13280 0.50330 0.07100
C 	C 	0.42990 0.08700 0.53930 0.14400
C 	C 	0.42237 0.05640 0.55170 -0.04300
H 	H 	0.42950 0.04140 0.57140 0.03500
C 	C 	0.45558 0.12200 0.54590 -0.09600
H 	H 	0.45180 0.15590 0.54320 0.07600
H 	H 	0.45320 0.10920 0.52510 0.07200
C 	C 	0.47437 0.11900 0.56920 0.18700
C 	C 	0.48070 0.06660 0.57610 -0.52900
H 	H 	0.47860 0.05090 0.55630 0.19200
H 	H 	0.47460 0.04920 0.58510 0.18500
H 	H 	0.49280 0.06620 0.59110 0.17500
O 	O 	0.40519 0.19810 0.19130 -0.21000
O 	O 	0.43080 0.11310 0.26800 -0.20700
O 	O 	0.39072 0.07820 0.22180 -0.20400
N 	N 	0.39872 0.42220 0.18240 -0.21300
N 	N 	0.39563 0.32200 0.18080 -0.20400
N 	N 	0.48234 0.06870 0.40840 -0.21800
N 	N 	0.45777 0.10250 0.35050 -0.21700
N 	N 	0.33743 0.00880 0.25900 -0.20800
N 	N 	0.36071 0.02310 0.23900 -0.20900
C 	C 	0.39980 0.47240 0.17850 0.00300
C 	C 	0.41156 0.49250 0.17160 0.01100
H 	H 	0.41950 0.47280 0.16930 0.02500
C 	C 	0.41160 0.54230 0.16820 -0.20500
H 	H 	0.41940 0.55600 0.16260 0.10000
C 	C 	0.40100 0.57210 0.17240 0.23700
C 	C 	0.38930 0.55250 0.17990 -0.19600
H 	H 	0.38190 0.57250 0.18340 0.08600
C 	C 	0.38870 0.50180 0.18210 -0.00800
H 	H 	0.38040 0.48780 0.18620 -0.00100
C 	C 	0.40090 0.62610 0.16780 -0.58800
H 	H 	0.39460 0.63360 0.14510 0.19700
H 	H 	0.41260 0.63760 0.17660 0.19200
H 	H 	0.39550 0.64200 0.17870 0.18200
C 	C 	0.41153 0.39490 0.19200 -0.04300
H 	H 	0.42220 0.40960 0.19920 0.04100
C 	C 	0.41097 0.34240 0.19290 0.03300
C 	C 	0.42524 0.31540 0.20520 -0.03600
H 	H 	0.43590 0.33080 0.21330 0.03200
C 	C 	0.42451 0.26600 0.20620 -0.12200
H 	H 	0.43440 0.24670 0.21540 0.06600
C 	C 	0.40855 0.24640 0.19290 0.14500
C 	C 	0.39475 0.27480 0.18100 -0.05500
H 	H 	0.38390 0.26010 0.17240 0.04500
C 	C 	0.41896 0.16820 0.21260 -0.07600
H 	H 	0.42460 0.18230 0.23410 0.06400
H 	H 	0.42740 0.16510 0.20530 0.05200
C 	C 	0.49560 0.05110 0.43870 0.00800
C 	C 	0.50830 0.08070 0.45870 -0.00600
H 	H 	0.50820 0.11330 0.45290 0.01900
C 	C 	0.52130 0.06470 0.48740 -0.18700
H 	H 	0.53030 0.08590 0.50030 0.08100
C 	C 	0.52140 0.01830 0.49720 0.22400
C 	C 	0.50830 0.98960 0.47860 -0.19500
H 	H 	0.50760 0.95880 0.48640 0.09900
C 	C 	0.49530 0.00330 0.44760 -0.01000
H 	H 	0.48700 0.98110 0.43390 0.02400
C 	C 	0.53510 0.99980 0.53000 -0.57500
H 	H 	0.54480 0.98770 0.52830 0.19200
H 	H 	0.53040 0.97380 0.53700 0.18800
H 	H 	0.53880 0.02620 0.54530 0.18700
C 	C 	0.47850 0.04350 0.38360 -0.04100
H 	H 	0.48400 0.01370 0.38580 0.03700
C 	C 	0.46570 0.05930 0.35220 0.02700
C 	C 	0.46250 0.03300 0.32600 -0.03800
H 	H 	0.46860 0.00410 0.32850 0.03400
C 	C 	0.45050 0.04720 0.29570 -0.11400
H 	H 	0.44790 0.02870 0.27730 0.06400
C 	C 	0.44250 0.09130 0.29440 0.14100
C 	C 	0.44650 0.11750 0.32190 -0.04600
H 	H 	0.44080 0.14720 0.32000 0.03400
C 	C 	0.42576 0.08840 0.23830 -0.07700
H 	H 	0.42180 0.05540 0.23890 0.06400
H 	H 	0.43530 0.08640 0.23390 0.04800
C 	C 	0.32302 0.00240 0.26340 0.01100
C 	C 	0.30970 0.03310 0.25120 0.00200
H 	H 	0.31030 0.06170 0.24110 0.03100
C 	C 	0.29530 0.02350 0.25330 -0.18600
H 	H 	0.28590 0.04490 0.24390 0.08300
C 	C 	0.29440 0.98280 0.26900 0.21900
C 	C 	0.30720 0.95200 0.27920 -0.19600
H 	H 	0.30640 0.92230 0.28820 0.07800
C 	C 	0.32170 0.96170 0.27720 -0.00500
H 	H 	0.33080 0.93940 0.28570 0.00500
C 	C 	0.27870 0.97140 0.27260 -0.57200
H 	H 	0.26850 0.98270 0.25380 0.18200
H 	H 	0.27980 0.98760 0.29150 0.18100
H 	H 	0.27800 0.93660 0.27480 0.18900
C 	C 	0.34330 0.05050 0.26050 -0.03000
H 	H 	0.34010 0.07560 0.26990 0.04100
C 	C 	0.35490 0.06110 0.24830 0.03500
C 	C 	0.36090 0.10670 0.24940 -0.03400
H 	H 	0.35690 0.13250 0.25690 0.03700
C 	C 	0.37270 0.11520 0.23970 -0.12000
H 	H 	0.37650 0.14690 0.23920 0.07100
C 	C 	0.37868 0.07670 0.23080 0.14200
C 	C 	0.37236 0.03120 0.23150 -0.04400
H 	H 	0.37700 0.00440 0.22620 0.03700
C 	C 	0.39725 0.12540 0.22050 -0.08500
H 	H 	0.40150 0.14200 0.24110 0.07300
H 	H 	0.38820 0.14530 0.20390 0.07100
C 	C 	0.41135 0.11830 0.21280 0.16600
C 	C 	0.40600 0.09240 0.18050 -0.50000
H 	H 	0.39820 0.11300 0.16310 0.18200
H 	H 	0.40040 0.06190 0.17990 0.17600
H 	H 	0.41610 0.08610 0.17840 0.16500
O 	O 	0.33251 0.49960 0.19480 -0.20800
O 	O 	0.33323 0.56270 0.27240 -0.21500
O 	O 	0.30199 0.45800 0.21460 -0.20600
N 	N 	0.35663 0.37480 0.11760 -0.21300
N 	N 	0.35210 0.43080 0.16000 -0.21500
N 	N 	0.37455 0.67960 0.39710 -0.21100
N 	N 	0.35378 0.61900 0.34730 -0.20700
N 	N 	0.27241 0.25940 0.22560 -0.20700
N 	N 	0.27950 0.35160 0.21240 -0.20400
C 	C 	0.35971 0.34600 0.09660 0.00500
C 	C 	0.34699 0.32160 0.07140 0.01000
H 	H 	0.33570 0.32400 0.06760 0.02200
C 	C 	0.35058 0.29350 0.05160 -0.20700
H 	H 	0.34170 0.27740 0.03410 0.09100
C 	C 	0.36675 0.28900 0.05700 0.24100
C 	C 	0.37958 0.31240 0.08250 -0.19100
H 	H 	0.39090 0.30890 0.08680 0.08700
C 	C 	0.37595 0.34170 0.10270 -0.01100
H 	H 	0.38480 0.35790 0.12020 0.00400
C 	C 	0.37080 0.25760 0.03600 -0.58600
H 	H 	0.36580 0.22570 0.03400 0.18800
H 	H 	0.38310 0.25450 0.04530 0.18500
H 	H 	0.36620 0.27230 0.01490 0.18800
C 	C 	0.34322 0.39990 0.10790 -0.04700
H 	H 	0.33510 0.39930 0.08600 0.04200
C 	C 	0.33990 0.42920 0.12910 0.03300
C 	C 	0.32472 0.45240 0.11820 -0.03500
H 	H 	0.31640 0.45020 0.09650 0.03600
C 	C 	0.32160 0.47910 0.13890 -0.11900
H 	H 	0.31160 0.49780 0.13170 0.07000
C 	C 	0.33349 0.47740 0.17030 0.14500
C 	C 	0.34860 0.45560 0.17960 -0.05500
H 	H 	0.35710 0.45820 0.20110 0.03800
C 	C 	0.31723 0.52370 0.18840 -0.07700
H 	H 	0.30730 0.50430 0.17400 0.06200
H 	H 	0.31650 0.55530 0.17840 0.04200
C 	C 	0.38504 0.71170 0.42310 0.01500
C 	C 	0.40080 0.72610 0.42940 -0.00300
H 	H 	0.40580 0.71250 0.41780 0.02600
C 	C 	0.40970 0.76000 0.45240 -0.17800
H 	H 	0.41980 0.77380 0.45410 0.07600
C 	C 	0.40380 0.77390 0.47310 0.21400
C 	C 	0.38850 0.75920 0.46730 -0.18400
H 	H 	0.38440 0.76920 0.48110 0.08000
C 	C 	0.37810 0.72890 0.44080 -0.02000
H 	H 	0.36680 0.72110 0.43570 0.01100
C 	C 	0.41480 0.80700 0.50150 -0.57200
H 	H 	0.41710 0.83700 0.49380 0.19300
H 	H 	0.42540 0.79070 0.51570 0.17800
H 	H 	0.40870 0.81410 0.51310 0.18500
C 	C 	0.37610 0.67800 0.37230 -0.03400
H 	H 	0.38460 0.69730 0.37160 0.03900
C 	C 	0.36540 0.64780 0.34460 0.02400
C 	C 	0.36780 0.64500 0.31890 -0.03300
H 	H 	0.37710 0.66120 0.31920 0.03100
C 	C 	0.35690 0.61890 0.29220 -0.13300
H 	H 	0.35750 0.62040 0.27320 0.06600
C 	C 	0.34499 0.59070 0.29470 0.14700
C 	C 	0.34366 0.59310 0.32230 -0.05400
H 	H 	0.33500 0.57500 0.32320 0.04200
C 	C 	0.33346 0.55830 0.24250 -0.08400
H 	H 	0.34380 0.54100 0.24580 0.06600
H 	H 	0.33330 0.59050 0.23370 0.04600
C 	C 	0.26830 0.21550 0.23600 0.02800
C 	C 	0.26930 0.21290 0.26500 -0.01600
H 	H 	0.27320 0.23970 0.27890 0.03500
C 	C 	0.26470 0.17140 0.27400 -0.16200
H 	H 	0.26570 0.16950 0.29450 0.07400
C 	C 	0.25860 0.13210 0.25380 0.18800
C 	C 	0.25830 0.13440 0.22590 -0.16800
H 	H 	0.25490 0.10710 0.21240 0.07300
C 	C 	0.26310 0.17650 0.21650 -0.02100
H 	H 	0.26260 0.17790 0.19650 0.02600
C 	C 	0.25370 0.08500 0.26480 -0.52000
H 	H 	0.24320 0.08990 0.26540 0.16500
H 	H 	0.26280 0.07640 0.28610 0.16000
H 	H 	0.25220 0.05900 0.25000 0.15900
C 	C 	0.28633 0.27850 0.24390 -0.02900
H 	H 	0.29410 0.26160 0.26240 0.04000
C 	C 	0.29106 0.32650 0.23770 0.03300
C 	C 	0.30680 0.34460 0.25560 -0.03500
H 	H 	0.31480 0.32600 0.27290 0.03800
C 	C 	0.31160 0.38950 0.24990 -0.11400
H 	H 	0.32250 0.40270 0.26330 0.06900
C 	C 	0.29970 0.41360 0.22370 0.13900
C 	C 	0.28381 0.39290 0.20610 -0.04200
H 	H 	0.27560 0.41010 0.18820 0.03000
C 	C 	0.31836 0.48070 0.23470 -0.08500
H 	H 	0.32760 0.46100 0.23530 0.07200
H 	H 	0.32030 0.48430 0.25660 0.07000
C 	C 	0.31778 0.53030 0.22020 0.17000
C 	C 	0.30184 0.55770 0.21480 -0.49400
H 	H 	0.30240 0.59080 0.20850 0.15200
H 	H 	0.30120 0.55780 0.23450 0.17600
H 	H 	0.29180 0.54180 0.19810 0.16800
O 	O 	0.36407 0.55800 0.51510 -0.20100
O 	O 	0.40067 0.48930 0.59230 -0.21000
O 	O 	0.35013 0.45850 0.53830 -0.20400
N 	N 	0.33557 0.68030 0.39160 -0.20900
N 	N 	0.35290 0.62200 0.44390 -0.20800
N 	N 	0.47389 0.42310 0.63330 -0.21500
N 	N 	0.44086 0.43690 0.61800 -0.21100
N 	N 	0.30387 0.28140 0.47370 -0.20700
N 	N 	0.32036 0.36330 0.50670 -0.20400
C 	C 	0.32868 0.71430 0.36660 0.01400
C 	C 	0.32950 0.76220 0.37290 0.01000
H 	H 	0.33460 0.77270 0.39430 0.02400
C 	C 	0.32300 0.79620 0.34890 -0.20000
H 	H 	0.32340 0.82940 0.35390 0.09000
C 	C 	0.31600 0.78180 0.31760 0.24900
C 	C 	0.31500 0.73330 0.31150 -0.19600
H 	H 	0.30950 0.72250 0.29020 0.08400
C 	C 	0.32200 0.69880 0.33670 -0.00700
H 	H 	0.32190 0.66550 0.33220 0.01100
C 	C 	0.30900 0.81990 0.29240 -0.62100
H 	H 	0.30410 0.80470 0.27150 0.20200
H 	H 	0.31800 0.84180 0.29500 0.20200
H 	H 	0.30020 0.83800 0.29420 0.19800
C 	C 	0.33340 0.68510 0.41580 -0.04700
H 	H 	0.32600 0.70950 0.41540 0.04600
C 	C 	0.34174 0.65480 0.44370 0.03100
C 	C 	0.33729 0.65660 0.46690 -0.04600
H 	H 	0.32940 0.67990 0.46590 0.03200
C 	C 	0.34436 0.62440 0.49210 -0.12200
H 	H 	0.34120 0.62410 0.50810 0.07100
C 	C 	0.35617 0.59310 0.49250 0.14200
C 	C 	0.35990 0.59240 0.46840 -0.05700
H 	H 	0.36790 0.56950 0.46920 0.04300
C 	C 	0.36095 0.55750 0.54200 -0.09700
H 	H 	0.34890 0.55080 0.53480 0.07200
H 	H 	0.36390 0.58890 0.55300 0.06200
C 	C 	0.49150 0.41450 0.64300 0.01700
C 	C 	0.50020 0.38140 0.66580 -0.01900
H 	H 	0.49480 0.36570 0.67580 0.01600
C 	C 	0.51670 0.36990 0.67480 -0.16800
H 	H 	0.52200 0.34380 0.68890 0.08000
C 	C 	0.52550 0.39610 0.66340 0.19600
C 	C 	0.51720 0.43090 0.64210 -0.17700
H 	H 	0.52340 0.44970 0.63480 0.07100
C 	C 	0.49960 0.44120 0.62980 -0.01400
H 	H 	0.49390 0.46460 0.61370 0.02600
C 	C 	0.54380 0.38260 0.67200 -0.52800
H 	H 	0.54520 0.38560 0.65320 0.16300
H 	H 	0.54600 0.34930 0.67970 0.16600
H 	H 	0.55170 0.40420 0.68860 0.15900
C 	C 	0.46753 0.46520 0.62550 -0.03700
H 	H 	0.47440 0.49060 0.62500 0.03800
C 	C 	0.45002 0.47600 0.61730 0.02900
C 	C 	0.44303 0.52070 0.60710 -0.03600
H 	H 	0.44980 0.54640 0.60670 0.03200
C 	C 	0.42607 0.52830 0.59740 -0.12000
H 	H 	0.42080 0.55820 0.58880 0.06600
C 	C 	0.41704 0.48990 0.60080 0.14600
C 	C 	0.42480 0.44440 0.61030 -0.05300
H 	H 	0.41830 0.41820 0.61130 0.04000
C 	C 	0.39038 0.52940 0.57390 -0.09000
H 	H 	0.39170 0.53450 0.55500 0.07000
H 	H 	0.39390 0.55920 0.58680 0.05800
C 	C 	0.29630 0.23580 0.45900 0.02000
C 	C 	0.30400 0.19290 0.47150 -0.00600
H 	H 	0.31480 0.19270 0.48980 0.03100
C 	C 	0.29640 0.15020 0.45810 -0.17100
H 	H 	0.30200 0.12080 0.46710 0.07800
C 	C 	0.28050 0.14940 0.43150 0.19700
C 	C 	0.27300 0.19120 0.41940 -0.17600
H 	H 	0.26220 0.19130 0.40080 0.07900
C 	C 	0.28050 0.23520 0.43350 -0.01200
H 	H 	0.27450 0.26450 0.42530 0.01800
C 	C 	0.27190 0.10050 0.41690 -0.52100
H 	H 	0.26740 0.10140 0.39390 0.16000
H 	H 	0.26270 0.09470 0.42150 0.16500
H 	H 	0.28030 0.07450 0.42600 0.15600
C 	C 	0.31934 0.28700 0.48180 -0.03300
H 	H 	0.32520 0.26200 0.47790 0.04200
C 	C 	0.32833 0.33120 0.49730 0.03800
C 	C 	0.34385 0.33880 0.50230 -0.04000
H 	H 	0.34900 0.31610 0.49500 0.03900
C 	C 	0.35280 0.38030 0.51840 -0.11700
H 	H 	0.36430 0.38450 0.52400 0.07000
C 	C 	0.34433 0.41430 0.52560 0.14100
C 	C 	0.32786 0.40360 0.51950 -0.04300
H 	H 	0.32200 0.42670 0.52500 0.03500
C 	C 	0.36737 0.46900 0.54710 -0.08000
H 	H 	0.36880 0.47000 0.52800 0.07200
H 	H 	0.37490 0.44370 0.56140 0.06800
C 	C 	0.37207 0.51780 0.56390 0.17900
C 	C 	0.36950 0.51650 0.59350 -0.51700
H 	H 	0.35770 0.50810 0.58690 0.18300
H 	H 	0.37200 0.54810 0.60360 0.16700
H 	H 	0.37700 0.49240 0.60850 0.18900
Cd	Cd	0.79328 0.83569 0.49773 1.18900
Cd	Cd	0.89255 0.49205 0.55405 1.18900
Cd	Cd	0.84598 0.45161 0.23361 1.19000
Cd	Cd	0.75255 0.81195 0.18579 1.19000
Cd	Cd	0.85577 0.12132 0.39758 1.18900
Cd	Cd	0.95398 0.86350 0.62451 1.19200
Cd	Cd	0.96622 0.63702 0.39949 1.19000
Cd	Cd	0.87444 0.87889 0.17284 1.18900
O 	O 	0.77486 0.93700 0.38560 -0.21100
O 	O 	0.76108 0.91540 0.29140 -0.21800
O 	O 	0.79826 0.00250 0.35600 -0.21100
N 	N 	0.78414 0.89570 0.51960 -0.21700
N 	N 	0.78068 0.89590 0.45970 -0.21100
N 	N 	0.73099 0.76050 0.18420 -0.20500
N 	N 	0.74657 0.83630 0.22520 -0.21200
N 	N 	0.87452 0.05620 0.41250 -0.21000
N 	N 	0.83960 0.04960 0.38480 -0.20700
C 	C 	0.78460 0.89340 0.54920 0.02100
C 	C 	0.77050 0.90260 0.55210 -0.00900
H 	H 	0.76000 0.90970 0.53390 0.02600
C 	C 	0.77160 0.90170 0.58170 -0.18200
H 	H 	0.76220 0.91200 0.58380 0.07200
C 	C 	0.78590 0.88640 0.60810 0.21200
C 	C 	0.79980 0.87730 0.60500 -0.18300
H 	H 	0.81010 0.86990 0.62340 0.08100
C 	C 	0.79920 0.87860 0.57510 -0.02000
H 	H 	0.80870 0.86950 0.57310 0.01400
C 	C 	0.78590 0.87590 0.63900 -0.56200
H 	H 	0.78370 0.84170 0.64000 0.17300
H 	H 	0.77720 0.89520 0.64010 0.17200
H 	H 	0.79700 0.88420 0.65680 0.17000
C 	C 	0.77690 0.93130 0.50140 -0.03900
H 	H 	0.77280 0.95700 0.50860 0.04000
C 	C 	0.77490 0.93340 0.46950 0.02900
C 	C 	0.76810 0.97310 0.45100 -0.03100
H 	H 	0.76400 0.99900 0.45830 0.03100
C 	C 	0.76730 0.97550 0.42170 -0.12800
H 	H 	0.76260 0.00280 0.40840 0.06700
C 	C 	0.77330 0.93770 0.41240 0.15200
C 	C 	0.77990 0.89900 0.43140 -0.06300
H 	H 	0.78400 0.87300 0.42440 0.04200
C 	C 	0.76890 0.97880 0.36540 -0.07300
H 	H 	0.77590 0.00720 0.37650 0.05400
H 	H 	0.75700 0.98560 0.35920 0.04600
C 	C 	0.72263 0.72250 0.16190 0.01300
C 	C 	0.71834 0.72950 0.13100 -0.00100
H 	H 	0.72000 0.76040 0.12460 0.01000
C 	C 	0.71170 0.69400 0.10890 -0.19000
H 	H 	0.70890 0.70020 0.08760 0.08500
C 	C 	0.70910 0.64850 0.11780 0.23100
C 	C 	0.71260 0.64130 0.14790 -0.19900
H 	H 	0.71010 0.61090 0.15370 0.09100
C 	C 	0.71990 0.67820 0.17130 0.00400
H 	H 	0.72280 0.67230 0.19280 0.02700
C 	C 	0.70170 0.60680 0.09410 -0.58500
H 	H 	0.69980 0.61730 0.07330 0.19100
H 	H 	0.70960 0.57970 0.10150 0.19400
H 	H 	0.69090 0.59660 0.09250 0.19500
C 	C 	0.72952 0.76430 0.20910 -0.03800
H 	H 	0.72280 0.74150 0.21260 0.04300
C 	C 	0.73786 0.80290 0.23240 0.02900
C 	C 	0.73588 0.80690 0.25820 -0.04200
H 	H 	0.72880 0.78460 0.26110 0.03000
C 	C 	0.74390 0.84280 0.28080 -0.12100
H 	H 	0.74320 0.84410 0.29980 0.06600
C 	C 	0.75290 0.87660 0.27380 0.14000
C 	C 	0.75378 0.87220 0.24570 -0.05800
H 	H 	0.75980 0.89600 0.24100 0.03600
C 	C 	0.76020 0.92150 0.32020 -0.07200
H 	H 	0.76500 0.89310 0.33410 0.06200
H 	H 	0.74830 0.92570 0.31540 0.05100
C 	C 	0.89262 0.05890 0.42570 0.00200
C 	C 	0.90190 0.03080 0.41670 0.01500
H 	H 	0.89640 0.00680 0.40100 0.02300
C 	C 	0.91910 0.03660 0.42990 -0.20200
H 	H 	0.92540 0.01590 0.42390 0.08400
C 	C 	0.92720 0.07220 0.45190 0.23400
C 	C 	0.91840 0.10100 0.46060 -0.20900
H 	H 	0.92390 0.12550 0.47590 0.09200
C 	C 	0.90100 0.09460 0.44690 0.01200
H 	H 	0.89470 0.11600 0.45260 -0.00100
C 	C 	0.94640 0.07840 0.46710 -0.56300
H 	H 	0.94900 0.10170 0.45480 0.17300
H 	H 	0.95160 0.04740 0.46730 0.17000
H 	H 	0.95090 0.09010 0.48880 0.17600
C 	C 	0.86737 0.01580 0.40500 -0.03300
H 	H 	0.87430 0.98800 0.40940 0.04200
C 	C 	0.84906 0.00940 0.38990 0.03300
C 	C 	0.84172 0.96470 0.38350 -0.03300
H 	H 	0.84860 0.93690 0.38730 0.03700
C 	C 	0.82431 0.95960 0.37140 -0.12000
H 	H 	0.81910 0.92880 0.36670 0.07100
C 	C 	0.81512 0.00020 0.36650 0.14200
C 	C 	0.82352 0.04450 0.37320 -0.04300
H 	H 	0.81690 0.07280 0.36880 0.02600
C 	C 	0.78896 0.95750 0.34590 -0.08100
H 	H 	0.79380 0.93380 0.36340 0.07000
H 	H 	0.78980 0.94410 0.32770 0.06900
C 	C 	0.77064 0.96690 0.33640 0.15900
C 	C 	0.76320 0.00940 0.31240 -0.48300
H 	H 	0.76300 0.00070 0.29260 0.16900
H 	H 	0.77020 0.03800 0.32150 0.17000
H 	H 	0.75160 0.01600 0.30820 0.15200
O 	O 	0.90226 0.42390 0.45500 -0.21500
O 	O 	0.89232 0.41280 0.36050 -0.21000
O 	O 	0.92349 0.49350 0.40780 -0.20800
N 	N 	0.87220 0.43370 0.54670 -0.21100
N 	N 	0.88952 0.44020 0.51320 -0.20600
N 	N 	0.86131 0.41010 0.21350 -0.21100
N 	N 	0.86991 0.41710 0.27660 -0.21000
N 	N 	0.94775 0.69910 0.39580 -0.21000
N 	N 	0.94256 0.60250 0.40240 -0.20500
C 	C 	0.86331 0.43440 0.56380 0.00500
C 	C 	0.84619 0.42800 0.55010 0.01300
H 	H 	0.83980 0.42160 0.52810 0.02200
C 	C 	0.83800 0.43080 0.56810 -0.22200
H 	H 	0.82630 0.42350 0.55870 0.08800
C 	C 	0.84680 0.44400 0.59920 0.25600
C 	C 	0.86400 0.44890 0.61340 -0.20700
H 	H 	0.87050 0.45400 0.63560 0.09400
C 	C 	0.87240 0.44630 0.59490 -0.01000
H 	H 	0.88420 0.45290 0.60420 0.00000
C 	C 	0.83830 0.45300 0.61890 -0.63300
H 	H 	0.82600 0.45050 0.60550 0.20300
H 	H 	0.84110 0.48530 0.62810 0.20800
H 	H 	0.84210 0.42910 0.63590 0.20900
C 	C 	0.86812 0.40620 0.52250 -0.04100
H 	H 	0.85950 0.38280 0.51720 0.03800
C 	C 	0.87623 0.40970 0.50300 0.03100
C 	C 	0.87086 0.38170 0.47650 -0.03400
H 	H 	0.86170 0.35980 0.47030 0.03100
C 	C 	0.87902 0.38630 0.45910 -0.12900
H 	H 	0.87540 0.36810 0.44030 0.07400
C 	C 	0.89233 0.41700 0.46900 0.14400
C 	C 	0.89749 0.44270 0.49620 -0.06100
H 	H 	0.90710 0.46310 0.50320 0.04300
C 	C 	0.89812 0.40310 0.42480 -0.07400
H 	H 	0.88670 0.41340 0.40840 0.06200
H 	H 	0.89830 0.36760 0.42610 0.05400
C 	C 	0.85639 0.41160 0.18070 0.01200
C 	C 	0.83998 0.40480 0.15840 -0.01900
H 	H 	0.83200 0.39690 0.16500 0.01400
C 	C 	0.83460 0.40900 0.12660 -0.17800
H 	H 	0.82310 0.40380 0.11150 0.07800
C 	C 	0.84610 0.42080 0.11660 0.19600
C 	C 	0.86250 0.42710 0.13860 -0.17900
H 	H 	0.87040 0.43500 0.13170 0.09000
C 	C 	0.86839 0.42250 0.17160 -0.01200
H 	H 	0.88000 0.42660 0.18680 0.03000
C 	C 	0.84130 0.42640 0.08110 -0.53800
H 	H 	0.83180 0.40500 0.06810 0.17300
H 	H 	0.85110 0.41800 0.07850 0.17800
H 	H 	0.83800 0.45980 0.07440 0.17500
C 	C 	0.87530 0.39250 0.23500 -0.04400
H 	H 	0.88260 0.37770 0.22870 0.04100
C 	C 	0.88052 0.39420 0.26880 0.03800
C 	C 	0.89590 0.37810 0.29110 -0.04000
H 	H 	0.90350 0.36480 0.28480 0.03500
C 	C 	0.90070 0.38100 0.32320 -0.11600
H 	H 	0.91120 0.36840 0.33900 0.06400
C 	C 	0.88952 0.40320 0.33130 0.14900
C 	C 	0.87421 0.42060 0.30710 -0.05600
H 	H 	0.86660 0.43560 0.31250 0.03700
C 	C 	0.90875 0.39830 0.38580 -0.07200
H 	H 	0.91770 0.40870 0.38100 0.06000
H 	H 	0.90920 0.36280 0.38790 0.04800
C 	C 	0.95240 0.74890 0.39700 0.00700
C 	C 	0.95350 0.77820 0.42060 0.01000
H 	H 	0.95120 0.76560 0.43640 0.02700
C 	C 	0.95780 0.82530 0.42170 -0.19000
H 	H 	0.95770 0.84570 0.43730 0.08300
C 	C 	0.96240 0.84370 0.40080 0.21400
C 	C 	0.96150 0.81550 0.37780 -0.18900
H 	H 	0.96500 0.82760 0.36340 0.08300
C 	C 	0.95560 0.76810 0.37460 -0.00400
H 	H 	0.95390 0.74940 0.35680 0.01400
C 	C 	0.96860 0.89660 0.40510 -0.53700
H 	H 	0.96560 0.91040 0.38440 0.16200
H 	H 	0.98090 0.89750 0.41860 0.16500
H 	H 	0.96320 0.91530 0.41490 0.16300
C 	C 	0.93600 0.68750 0.40130 -0.03000
H 	H 	0.92960 0.71190 0.40450 0.04000
C 	C 	0.93200 0.63610 0.40280 0.03400
C 	C 	0.91950 0.62480 0.40980 -0.03900
H 	H 	0.91360 0.64950 0.41390 0.03800
C 	C 	0.91538 0.57630 0.41070 -0.11600
H 	H 	0.90610 0.56760 0.41370 0.06800
C 	C 	0.92511 0.54220 0.40720 0.13400
C 	C 	0.93862 0.55780 0.40250 -0.04300
H 	H 	0.94520 0.53410 0.39940 0.03200
C 	C 	0.91016 0.47630 0.41390 -0.07400
H 	H 	0.89890 0.48560 0.39630 0.06800
H 	H 	0.91150 0.49040 0.43370 0.06400
C 	C 	0.91165 0.42130 0.41670 0.15400
C 	C 	0.92979 0.40680 0.44280 -0.47400
H 	H 	0.93020 0.37200 0.44630 0.15400
H 	H 	0.93250 0.42360 0.46260 0.16800
H 	H 	0.93800 0.41570 0.43600 0.16100
O 	O 	0.81176 0.59560 0.14240 -0.21600
O 	O 	0.78521 0.71990 0.12880 -0.20700
O 	O 	0.82564 0.73430 0.14330 -0.20300
N 	N 	0.82250 0.40140 0.21590 -0.21600
N 	N 	0.82360 0.48800 0.18790 -0.20000
N 	N 	0.73544 0.85920 0.14260 -0.22000
N 	N 	0.75842 0.79200 0.14590 -0.21600
N 	N 	0.88533 0.87040 0.22890 -0.20400
N 	N 	0.85951 0.81720 0.18170 -0.20900
C 	C 	0.82280 0.35260 0.22440 0.01400
C 	C 	0.83580 0.33530 0.25260 -0.01600
H 	H 	0.84390 0.35710 0.26720 0.00300
C 	C 	0.83710 0.28640 0.25990 -0.19000
H 	H 	0.84620 0.27500 0.27920 0.08800
C 	C 	0.82530 0.25470 0.23910 0.22100
C 	C 	0.81160 0.27250 0.21230 -0.19000
H 	H 	0.80320 0.25100 0.19800 0.07500
C 	C 	0.80990 0.32270 0.20570 -0.01000
H 	H 	0.79990 0.33520 0.18850 0.02500
C 	C 	0.82550 0.20180 0.24680 -0.57700
H 	H 	0.82770 0.18270 0.23210 0.18000
H 	H 	0.81460 0.19270 0.24480 0.18100
H 	H 	0.83450 0.19590 0.26860 0.19100
C 	C 	0.80910 0.42290 0.19610 -0.04300
H 	H 	0.79860 0.40740 0.18990 0.04200
C 	C 	0.80873 0.46940 0.18220 0.03100
C 	C 	0.79400 0.49510 0.16630 -0.03200
H 	H 	0.78360 0.48290 0.16400 0.03300
C 	C 	0.79460 0.53880 0.15390 -0.12200
H 	H 	0.78470 0.55810 0.14360 0.06700
C 	C 	0.80941 0.55460 0.15620 0.14200
C 	C 	0.82369 0.53030 0.17500 -0.06100
H 	H 	0.83420 0.54380 0.17930 0.04400
C 	C 	0.79756 0.62700 0.12580 -0.07900
H 	H 	0.79220 0.63410 0.13890 0.06400
H 	H 	0.78910 0.61180 0.10580 0.05000
C 	C 	0.72316 0.89480 0.14120 0.00800
C 	C 	0.71270 0.88350 0.15300 -0.01200
H 	H 	0.71380 0.85310 0.16270 0.01200
C 	C 	0.70060 0.91540 0.15120 -0.18700
H 	H 	0.69300 0.90620 0.15840 0.08000
C 	C 	0.69970 0.96110 0.13880 0.21100
C 	C 	0.71110 0.97330 0.12990 -0.19500
H 	H 	0.71130 0.00560 0.12360 0.07700
C 	C 	0.72310 0.94010 0.12950 -0.01300
H 	H 	0.73060 0.94870 0.12170 0.02000
C 	C 	0.68700 0.99930 0.13750 -0.56200
H 	H 	0.67570 0.99210 0.11990 0.18100
H 	H 	0.69060 0.03120 0.13450 0.17800
H 	H 	0.68660 0.99880 0.15740 0.18200
C 	C 	0.73763 0.85410 0.11850 -0.03900
H 	H 	0.73130 0.87330 0.10020 0.03600
C 	C 	0.74984 0.81880 0.11880 0.02800
C 	C 	0.75218 0.81200 0.09330 -0.03700
H 	H 	0.74580 0.83040 0.07460 0.03300
C 	C 	0.76382 0.77840 0.09390 -0.11500
H 	H 	0.76560 0.77370 0.07630 0.06400
C 	C 	0.77279 0.75200 0.12200 0.14100
C 	C 	0.76965 0.76060 0.14730 -0.04600
H 	H 	0.77600 0.74300 0.16640 0.03700
C 	C 	0.78992 0.71010 0.10480 -0.07700
H 	H 	0.79370 0.73990 0.09900 0.06400
H 	H 	0.78020 0.69690 0.08560 0.04700
C 	C 	0.90070 0.89230 0.25200 0.02600
C 	C 	0.91550 0.86720 0.27050 -0.02000
H 	H 	0.91580 0.83340 0.26820 0.03600
C 	C 	0.92990 0.89200 0.29280 -0.15900
H 	H 	0.94010 0.87470 0.30520 0.07500
C 	C 	0.92950 0.94120 0.29670 0.18500
C 	C 	0.91510 0.96530 0.27860 -0.16800
H 	H 	0.91460 0.99890 0.28140 0.07400
C 	C 	0.90110 0.94090 0.25550 -0.01700
H 	H 	0.89130 0.95900 0.24160 0.02100
C 	C 	0.94540 0.96910 0.32080 -0.50200
H 	H 	0.95130 0.95070 0.34050 0.15300
H 	H 	0.94210 0.00050 0.32510 0.15500
H 	H 	0.95310 0.97370 0.31190 0.15100
C 	C 	0.88031 0.83260 0.23600 -0.03300
H 	H 	0.88600 0.82180 0.25740 0.04300
C 	C 	0.86588 0.80450 0.21250 0.03700
C 	C 	0.85930 0.76840 0.22200 -0.03800
H 	H 	0.86420 0.76050 0.24380 0.03900
C 	C 	0.84550 0.74290 0.19960 -0.11500
H 	H 	0.84080 0.71710 0.20570 0.06900
C 	C 	0.83887 0.75580 0.16870 0.13800
C 	C 	0.84685 0.79270 0.16080 -0.03800
H 	H 	0.84270 0.79980 0.13900 0.03600
C 	C 	0.81900 0.69120 0.14970 -0.07600
H 	H 	0.81510 0.69810 0.16520 0.07100
H 	H 	0.82790 0.66630 0.15880 0.06700
C 	C 	0.80432 0.67330 0.11880 0.16400
C 	C 	0.81059 0.66500 0.09450 -0.49500
H 	H 	0.80120 0.65280 0.07470 0.15800
H 	H 	0.81980 0.64140 0.10300 0.17200
H 	H 	0.81470 0.69540 0.09050 0.17600
O 	O 	0.84859 0.75040 0.60050 -0.21300
O 	O 	0.88569 0.65320 0.61660 -0.21000
O 	O 	0.89745 0.77060 0.62180 -0.21000
N 	N 	0.77373 0.77580 0.49340 -0.20800
N 	N 	0.80726 0.78260 0.54070 -0.20400
N 	N 	0.91576 0.46140 0.59960 -0.21500
N 	N 	0.89795 0.54310 0.59660 -0.20900
N 	N 	0.94167 0.86000 0.56830 -0.20700
N 	N 	0.92674 0.82710 0.60320 -0.20400
C 	C 	0.75668 0.77230 0.46950 0.01300
C 	C 	0.74900 0.72880 0.45640 0.01900
H 	H 	0.75510 0.69960 0.46420 0.02400
C 	C 	0.73240 0.72780 0.43210 -0.21700
H 	H 	0.72690 0.69780 0.42460 0.10100
C 	C 	0.72390 0.76940 0.41870 0.25000
C 	C 	0.73140 0.81270 0.43210 -0.19600
H 	H 	0.72530 0.84180 0.42380 0.08600
C 	C 	0.74799 0.81420 0.45810 -0.01000
H 	H 	0.75300 0.84410 0.46740 0.00700
C 	C 	0.70640 0.76940 0.38990 -0.62100
H 	H 	0.70190 0.80220 0.38580 0.20000
H 	H 	0.69900 0.74830 0.39380 0.20600
H 	H 	0.70710 0.75770 0.37150 0.19400
C 	C 	0.78079 0.74120 0.51340 -0.03800
H 	H 	0.77400 0.71440 0.51240 0.04800
C 	C 	0.79848 0.74120 0.53730 0.03200
C 	C 	0.80620 0.70110 0.55540 -0.03400
H 	H 	0.79970 0.67330 0.55350 0.03100
C 	C 	0.82320 0.70110 0.57630 -0.13400
H 	H 	0.82880 0.67310 0.58800 0.06900
C 	C 	0.83186 0.74280 0.57950 0.14900
C 	C 	0.82370 0.78230 0.56210 -0.06400
H 	H 	0.83000 0.81100 0.56520 0.04500
C 	C 	0.85924 0.70880 0.61450 -0.08100
H 	H 	0.85740 0.68500 0.59790 0.06500
H 	H 	0.85650 0.69340 0.62990 0.05900
C 	C 	0.92530 0.41960 0.59960 0.01300
C 	C 	0.91740 0.38090 0.58100 -0.01900
H 	H 	0.90540 0.38120 0.56840 0.01100
C 	C 	0.92620 0.34120 0.57980 -0.16900
H 	H 	0.92040 0.31510 0.56620 0.06800
C 	C 	0.94370 0.33940 0.59840 0.19800
C 	C 	0.95140 0.37690 0.61760 -0.17800
H 	H 	0.96340 0.37590 0.63040 0.08100
C 	C 	0.94270 0.41810 0.61980 -0.00900
H 	H 	0.94850 0.44330 0.63430 0.02800
C 	C 	0.95470 0.29910 0.59560 -0.53800
H 	H 	0.94740 0.27620 0.57920 0.16600
H 	H 	0.96090 0.28230 0.61600 0.17100
H 	H 	0.96280 0.31320 0.59000 0.17800
C 	C 	0.92000 0.48430 0.62560 -0.03700
H 	H 	0.92890 0.47240 0.64510 0.03500
C 	C 	0.91122 0.52880 0.62510 0.02800
C 	C 	0.91530 0.55410 0.65230 -0.03500
H 	H 	0.92410 0.54260 0.67190 0.03300
C 	C 	0.90689 0.59610 0.65170 -0.11800
H 	H 	0.90940 0.61310 0.67060 0.06600
C 	C 	0.89452 0.61230 0.62210 0.14500
C 	C 	0.89004 0.58390 0.59530 -0.05600
H 	H 	0.88110 0.59420 0.57550 0.03400
C 	C 	0.88962 0.68350 0.64380 -0.07700
H 	H 	0.90150 0.69470 0.65380 0.06500
H 	H 	0.88790 0.66560 0.65980 0.05000
C 	C 	0.94850 0.87940 0.54930 0.02100
C 	C 	0.93910 0.90140 0.52070 -0.00800
H 	H 	0.92720 0.90400 0.51250 0.03200
C 	C 	0.94620 0.91980 0.50340 -0.16600
H 	H 	0.93940 0.93480 0.48350 0.07700
C 	C 	0.96370 0.91610 0.51580 0.19300
C 	C 	0.97320 0.89330 0.54360 -0.17400
H 	H 	0.98500 0.88880 0.55140 0.07900
C 	C 	0.96550 0.87660 0.56080 -0.01300
H 	H 	0.97240 0.86290 0.58120 0.00900
C 	C 	0.97140 0.93680 0.49610 -0.51500
H 	H 	0.96250 0.95180 0.47680 0.15500
H 	H 	0.98000 0.96100 0.50860 0.15500
H 	H 	0.97670 0.91090 0.49030 0.16000
C 	C 	0.92650 0.84810 0.55450 -0.02600
H 	H 	0.92020 0.85120 0.53210 0.03900
C 	C 	0.91776 0.82970 0.57130 0.03400
C 	C 	0.90139 0.81500 0.55480 -0.03400
H 	H 	0.89530 0.81750 0.53240 0.03700
C 	C 	0.89367 0.79650 0.57110 -0.11800
H 	H 	0.88210 0.78710 0.56010 0.07000
C 	C 	0.90279 0.79180 0.60300 0.13900
C 	C 	0.91983 0.80740 0.61810 -0.04000
H 	H 	0.92650 0.80320 0.64030 0.03300
C 	C 	0.88012 0.75350 0.60640 -0.07600
H 	H 	0.87800 0.73210 0.58850 0.07000
H 	H 	0.87220 0.78100 0.59810 0.06600
C 	C 	0.87750 0.72610 0.63110 0.16100
C 	C 	0.88090 0.75970 0.65970 -0.48200
H 	H 	0.87330 0.78750 0.65200 0.16900
H 	H 	0.89270 0.77090 0.66990 0.16200
H 	H 	0.87900 0.74180 0.67510 0.15900
O 	O 	0.97878 0.62930 0.52510 -0.21000
O 	O 	0.97303 0.68940 0.59660 -0.21000
O 	O 	0.94670 0.59360 0.55860 -0.20300
N 	N 	0.98830 0.69240 0.41110 -0.21100
N 	N 	0.97914 0.65640 0.45360 -0.20500
N 	N 	0.96098 0.84370 0.67630 -0.21300
N 	N 	0.96659 0.78900 0.63500 -0.21400
N 	N 	0.87174 0.53760 0.50940 -0.20100
N 	N 	0.90637 0.54730 0.53810 -0.21000
C 	C 	0.99340 0.70660 0.38890 0.02500
C 	C 	0.99810 0.75270 0.38720 -0.01400
H 	H 	0.99810 0.77600 0.40160 0.02900
C 	C 	0.00290 0.76650 0.36510 -0.17900
H 	H 	0.00570 0.79900 0.36390 0.07600
C 	C 	0.00350 0.73270 0.34500 0.19800
C 	C 	0.99920 0.68620 0.34780 -0.16700
H 	H 	0.99850 0.66320 0.33270 0.07700
C 	C 	0.99560 0.67010 0.37240 -0.04200
H 	H 	0.99480 0.63720 0.37660 0.02100
C 	C 	0.00860 0.74770 0.32050 -0.54600
H 	H 	0.00130 0.73150 0.30040 0.17100
H 	H 	0.02040 0.73860 0.32790 0.16700
H 	H 	0.00740 0.78260 0.31740 0.17000
C 	C 	0.99450 0.71070 0.43910 -0.04200
H 	H 	0.00200 0.73700 0.44440 0.03900
C 	C 	0.99040 0.69290 0.46280 0.03700
C 	C 	0.99840 0.70960 0.49310 -0.03400
H 	H 	0.00680 0.73400 0.49900 0.03000
C 	C 	0.99450 0.69150 0.51490 -0.12300
H 	H 	0.99910 0.70490 0.53560 0.06700
C 	C 	0.98364 0.65360 0.50610 0.14400
C 	C 	0.97540 0.63950 0.47530 -0.05900
H 	H 	0.96660 0.61660 0.46890 0.03900
C 	C 	0.98410 0.64750 0.55670 -0.09300
H 	H 	0.98150 0.68230 0.55600 0.06900
H 	H 	0.99650 0.64290 0.57040 0.05600
C 	C 	0.95640 0.87270 0.69590 0.01200
C 	C 	0.95820 0.92100 0.69590 -0.01500
H 	H 	0.96230 0.93550 0.68320 0.01500
C 	C 	0.95390 0.94910 0.71450 -0.17400
H 	H 	0.95540 0.98300 0.71480 0.08200
C 	C 	0.94750 0.92900 0.73290 0.21500
C 	C 	0.94660 0.88140 0.73430 -0.19000
H 	H 	0.94250 0.86750 0.74730 0.07900
C 	C 	0.95170 0.85110 0.71640 -0.00900
H 	H 	0.95180 0.81710 0.71860 0.02700
C 	C 	0.94240 0.96170 0.75270 -0.55000
H 	H 	0.95250 0.97590 0.77030 0.17400
H 	H 	0.93640 0.94250 0.76110 0.17000
H 	H 	0.93490 0.98740 0.73920 0.18300
C 	C 	0.96790 0.80210 0.68500 -0.04300
H 	H 	0.97150 0.79200 0.70610 0.04300
C 	C 	0.97050 0.76970 0.66400 0.03400
C 	C 	0.97770 0.72550 0.67340 -0.03500
H 	H 	0.98170 0.71510 0.69460 0.03500
C 	C 	0.97940 0.69550 0.65160 -0.12400
H 	H 	0.98440 0.66460 0.65770 0.06800
C 	C 	0.97350 0.71220 0.62130 0.15400
C 	C 	0.96730 0.75950 0.61380 -0.05600
H 	H 	0.96350 0.77100 0.59290 0.04100
C 	C 	0.97800 0.63970 0.60110 -0.08300
H 	H 	0.97160 0.62180 0.60950 0.06700
H 	H 	0.99020 0.63690 0.61650 0.05000
C 	C 	0.85400 0.52710 0.49430 0.00300
C 	C 	0.84568 0.50530 0.46540 0.01500
H 	H 	0.85130 0.50020 0.45340 0.02200
C 	C 	0.82936 0.49080 0.45380 -0.20200
H 	H 	0.82390 0.47460 0.43400 0.08900
C 	C 	0.82051 0.49890 0.47020 0.23900
C 	C 	0.82868 0.52000 0.49880 -0.20900
H 	H 	0.82300 0.52590 0.51060 0.08700
C 	C 	0.84564 0.53330 0.51130 0.00700
H 	H 	0.85150 0.54690 0.53190 0.00600
C 	C 	0.80212 0.48330 0.45590 -0.59000
H 	H 	0.79930 0.46210 0.43780 0.19000
H 	H 	0.79480 0.51170 0.44880 0.17800
H 	H 	0.80050 0.46600 0.47180 0.18600
C 	C 	0.87804 0.56020 0.49580 -0.02600
H 	H 	0.87070 0.57260 0.47530 0.03900
C 	C 	0.89628 0.56880 0.50970 0.03100
C 	C 	0.90266 0.60020 0.49640 -0.03200
H 	H 	0.89540 0.61510 0.47670 0.03600
C 	C 	0.91990 0.61020 0.51180 -0.12200
H 	H 	0.92450 0.63280 0.50330 0.07100
C 	C 	0.92990 0.58700 0.53930 0.14400
C 	C 	0.92237 0.55640 0.55170 -0.04300
H 	H 	0.92950 0.54140 0.57140 0.03500
C 	C 	0.95558 0.62200 0.54590 -0.09600
H 	H 	0.95180 0.65590 0.54320 0.07600
H 	H 	0.95320 0.60920 0.52510 0.07200
C 	C 	0.97437 0.61900 0.56920 0.18700
C 	C 	0.98070 0.56660 0.57610 -0.52900
H 	H 	0.97860 0.55090 0.55630 0.19200
H 	H 	0.97460 0.54920 0.58510 0.18500
H 	H 	0.99280 0.56620 0.59110 0.17500
O 	O 	0.90519 0.69810 0.19130 -0.21000
O 	O 	0.93080 0.61310 0.26800 -0.20700
O 	O 	0.89072 0.57820 0.22180 -0.20400
N 	N 	0.89872 0.92220 0.18240 -0.21300
N 	N 	0.89563 0.82200 0.18080 -0.20400
N 	N 	0.98234 0.56870 0.40840 -0.21800
N 	N 	0.95777 0.60250 0.35050 -0.21700
N 	N 	0.83743 0.50880 0.25900 -0.20800
N 	N 	0.86071 0.52310 0.23900 -0.20900
C 	C 	0.89980 0.97240 0.17850 0.00300
C 	C 	0.91156 0.99250 0.17160 0.01100
H 	H 	0.91950 0.97280 0.16930 0.02500
C 	C 	0.91160 0.04230 0.16820 -0.20600
H 	H 	0.91940 0.05600 0.16260 0.10000
C 	C 	0.90100 0.07210 0.17240 0.23700
C 	C 	0.88930 0.05250 0.17990 -0.19600
H 	H 	0.88190 0.07250 0.18340 0.08600
C 	C 	0.88870 0.00180 0.18210 -0.00800
H 	H 	0.88040 0.98780 0.18620 -0.00100
C 	C 	0.90090 0.12610 0.16780 -0.58800
H 	H 	0.89460 0.13360 0.14510 0.19700
H 	H 	0.91260 0.13760 0.17660 0.19200
H 	H 	0.89550 0.14200 0.17870 0.18200
C 	C 	0.91153 0.89490 0.19200 -0.04300
H 	H 	0.92220 0.90960 0.19920 0.04100
C 	C 	0.91097 0.84240 0.19290 0.03300
C 	C 	0.92524 0.81540 0.20520 -0.03600
H 	H 	0.93590 0.83080 0.21330 0.03200
C 	C 	0.92451 0.76600 0.20620 -0.12200
H 	H 	0.93440 0.74670 0.21540 0.06600
C 	C 	0.90855 0.74640 0.19290 0.14500
C 	C 	0.89475 0.77480 0.18100 -0.05500
H 	H 	0.88390 0.76010 0.17240 0.04500
C 	C 	0.91896 0.66820 0.21260 -0.07600
H 	H 	0.92460 0.68230 0.23410 0.06400
H 	H 	0.92740 0.66510 0.20530 0.05200
C 	C 	0.99560 0.55110 0.43870 0.00800
C 	C 	0.00830 0.58070 0.45870 -0.00600
H 	H 	0.00820 0.61330 0.45290 0.01900
C 	C 	0.02130 0.56470 0.48740 -0.18700
H 	H 	0.03030 0.58590 0.50030 0.08100
C 	C 	0.02140 0.51830 0.49720 0.22400
C 	C 	0.00830 0.48960 0.47860 -0.19500
H 	H 	0.00760 0.45880 0.48640 0.09900
C 	C 	0.99530 0.50330 0.44760 -0.01000
H 	H 	0.98700 0.48110 0.43390 0.02400
C 	C 	0.03510 0.49980 0.53000 -0.57500
H 	H 	0.04480 0.48770 0.52830 0.19200
H 	H 	0.03040 0.47380 0.53700 0.18800
H 	H 	0.03880 0.52620 0.54530 0.18700
C 	C 	0.97850 0.54350 0.38360 -0.04100
H 	H 	0.98400 0.51370 0.38580 0.03700
C 	C 	0.96570 0.55930 0.35220 0.02700
C 	C 	0.96250 0.53300 0.32600 -0.03800
H 	H 	0.96860 0.50410 0.32850 0.03400
C 	C 	0.95050 0.54720 0.29570 -0.11400
H 	H 	0.94790 0.52870 0.27730 0.06400
C 	C 	0.94250 0.59130 0.29440 0.14100
C 	C 	0.94650 0.61750 0.32190 -0.04600
H 	H 	0.94080 0.64720 0.32000 0.03400
C 	C 	0.92576 0.58840 0.23830 -0.07700
H 	H 	0.92180 0.55540 0.23890 0.06400
H 	H 	0.93530 0.58640 0.23390 0.04800
C 	C 	0.82302 0.50240 0.26340 0.01100
C 	C 	0.80970 0.53310 0.25120 0.00200
H 	H 	0.81030 0.56170 0.24110 0.03100
C 	C 	0.79530 0.52350 0.25330 -0.18600
H 	H 	0.78590 0.54490 0.24390 0.08300
C 	C 	0.79440 0.48280 0.26900 0.21900
C 	C 	0.80720 0.45200 0.27920 -0.19600
H 	H 	0.80640 0.42230 0.28820 0.07800
C 	C 	0.82170 0.46170 0.27720 -0.00500
H 	H 	0.83080 0.43940 0.28570 0.00500
C 	C 	0.77870 0.47140 0.27260 -0.57200
H 	H 	0.76850 0.48270 0.25380 0.18200
H 	H 	0.77980 0.48760 0.29150 0.18100
H 	H 	0.77800 0.43660 0.27480 0.18900
C 	C 	0.84330 0.55050 0.26050 -0.03000
H 	H 	0.84010 0.57560 0.26990 0.04100
C 	C 	0.85490 0.56110 0.24830 0.03500
C 	C 	0.86090 0.60670 0.24940 -0.03400
H 	H 	0.85690 0.63250 0.25690 0.03700
C 	C 	0.87270 0.61520 0.23970 -0.12000
H 	H 	0.87650 0.64690 0.23920 0.07100
C 	C 	0.87868 0.57670 0.23080 0.14200
C 	C 	0.87236 0.53120 0.23150 -0.04400
H 	H 	0.87700 0.50440 0.22620 0.03700
C 	C 	0.89725 0.62540 0.22050 -0.08500
H 	H 	0.90150 0.64200 0.24110 0.07300
H 	H 	0.88820 0.64530 0.20390 0.07100
C 	C 	0.91135 0.61830 0.21280 0.16600
C 	C 	0.90600 0.59240 0.18050 -0.50000
H 	H 	0.89820 0.61300 0.16310 0.18200
H 	H 	0.90040 0.56190 0.17990 0.17600
H 	H 	0.91610 0.58610 0.17840 0.16500
O 	O 	0.83251 0.99960 0.19480 -0.20800
O 	O 	0.83323 0.06270 0.27240 -0.21500
O 	O 	0.80199 0.95800 0.21460 -0.20600
N 	N 	0.85663 0.87480 0.11760 -0.21300
N 	N 	0.85210 0.93080 0.16000 -0.21500
N 	N 	0.87455 0.17960 0.39710 -0.21100
N 	N 	0.85378 0.11900 0.34730 -0.20700
N 	N 	0.77241 0.75940 0.22560 -0.20700
N 	N 	0.77950 0.85160 0.21240 -0.20400
C 	C 	0.85971 0.84600 0.09660 0.00500
C 	C 	0.84699 0.82160 0.07140 0.01000
H 	H 	0.83570 0.82400 0.06760 0.02200
C 	C 	0.85058 0.79350 0.05160 -0.20700
H 	H 	0.84170 0.77740 0.03410 0.09100
C 	C 	0.86675 0.78900 0.05700 0.24100
C 	C 	0.87958 0.81240 0.08250 -0.19100
H 	H 	0.89090 0.80890 0.08680 0.08700
C 	C 	0.87595 0.84170 0.10270 -0.01100
H 	H 	0.88480 0.85790 0.12020 0.00400
C 	C 	0.87080 0.75760 0.03600 -0.58600
H 	H 	0.86580 0.72570 0.03400 0.18800
H 	H 	0.88310 0.75450 0.04530 0.18500
H 	H 	0.86620 0.77230 0.01490 0.18800
C 	C 	0.84322 0.89990 0.10790 -0.04700
H 	H 	0.83510 0.89930 0.08600 0.04200
C 	C 	0.83990 0.92920 0.12910 0.03300
C 	C 	0.82472 0.95240 0.11820 -0.03500
H 	H 	0.81640 0.95020 0.09650 0.03600
C 	C 	0.82160 0.97910 0.13890 -0.11900
H 	H 	0.81160 0.99780 0.13170 0.07000
C 	C 	0.83349 0.97740 0.17030 0.14500
C 	C 	0.84860 0.95560 0.17960 -0.05500
H 	H 	0.85710 0.95820 0.20110 0.03800
C 	C 	0.81723 0.02370 0.18840 -0.07700
H 	H 	0.80730 0.00430 0.17400 0.06200
H 	H 	0.81650 0.05530 0.17840 0.04200
C 	C 	0.88504 0.21170 0.42310 0.01500
C 	C 	0.90080 0.22610 0.42940 -0.00300
H 	H 	0.90580 0.21250 0.41780 0.02600
C 	C 	0.90970 0.26000 0.45240 -0.17800
H 	H 	0.91980 0.27380 0.45410 0.07600
C 	C 	0.90380 0.27390 0.47310 0.21400
C 	C 	0.88850 0.25920 0.46730 -0.18400
H 	H 	0.88440 0.26920 0.48110 0.08000
C 	C 	0.87810 0.22890 0.44080 -0.02000
H 	H 	0.86680 0.22110 0.43570 0.01100
C 	C 	0.91480 0.30700 0.50150 -0.57200
H 	H 	0.91710 0.33700 0.49380 0.19300
H 	H 	0.92540 0.29070 0.51570 0.17800
H 	H 	0.90870 0.31410 0.51310 0.18500
C 	C 	0.87610 0.17800 0.37230 -0.03400
H 	H 	0.88460 0.19730 0.37160 0.03900
C 	C 	0.86540 0.14780 0.34460 0.02400
C 	C 	0.86780 0.14500 0.31890 -0.03300
H 	H 	0.87710 0.16120 0.31920 0.03100
C 	C 	0.85690 0.11890 0.29220 -0.13300
H 	H 	0.85750 0.12040 0.27320 0.06600
C 	C 	0.84499 0.09070 0.29470 0.14700
C 	C 	0.84366 0.09310 0.32230 -0.05400
H 	H 	0.83500 0.07500 0.32320 0.04200
C 	C 	0.83346 0.05830 0.24250 -0.08400
H 	H 	0.84380 0.04100 0.24580 0.06600
H 	H 	0.83330 0.09050 0.23370 0.04600
C 	C 	0.76830 0.71550 0.23600 0.02800
C 	C 	0.76930 0.71290 0.26500 -0.01600
H 	H 	0.77320 0.73970 0.27890 0.03500
C 	C 	0.76470 0.67140 0.27400 -0.16200
H 	H 	0.76570 0.66950 0.29450 0.07400
C 	C 	0.75860 0.63210 0.25380 0.18800
C 	C 	0.75830 0.63440 0.22590 -0.16800
H 	H 	0.75490 0.60710 0.21240 0.07300
C 	C 	0.76310 0.67650 0.21650 -0.02100
H 	H 	0.76260 0.67790 0.19650 0.02600
C 	C 	0.75370 0.58500 0.26480 -0.52000
H 	H 	0.74320 0.58990 0.26540 0.16500
H 	H 	0.76280 0.57640 0.28610 0.16000
H 	H 	0.75220 0.55900 0.25000 0.15900
C 	C 	0.78633 0.77850 0.24390 -0.02900
H 	H 	0.79410 0.76160 0.26240 0.04000
C 	C 	0.79106 0.82650 0.23770 0.03300
C 	C 	0.80680 0.84460 0.25560 -0.03500
H 	H 	0.81480 0.82600 0.27290 0.03800
C 	C 	0.81160 0.88950 0.24990 -0.11400
H 	H 	0.82250 0.90270 0.26330 0.06900
C 	C 	0.79970 0.91360 0.22370 0.13900
C 	C 	0.78381 0.89290 0.20610 -0.04200
H 	H 	0.77560 0.91010 0.18820 0.03000
C 	C 	0.81836 0.98070 0.23470 -0.08500
H 	H 	0.82760 0.96100 0.23530 0.07200
H 	H 	0.82030 0.98430 0.25660 0.07000
C 	C 	0.81778 0.03030 0.22020 0.17000
C 	C 	0.80184 0.05770 0.21480 -0.49400
H 	H 	0.80240 0.09080 0.20850 0.15200
H 	H 	0.80120 0.05780 0.23450 0.17600
H 	H 	0.79180 0.04180 0.19810 0.16800
O 	O 	0.86407 0.05800 0.51510 -0.20100
O 	O 	0.90067 0.98930 0.59230 -0.21000
O 	O 	0.85013 0.95850 0.53830 -0.20400
N 	N 	0.83557 0.18030 0.39160 -0.20900
N 	N 	0.85290 0.12200 0.44390 -0.20800
N 	N 	0.97389 0.92310 0.63330 -0.21500
N 	N 	0.94086 0.93690 0.61800 -0.21100
N 	N 	0.80387 0.78140 0.47370 -0.20700
N 	N 	0.82036 0.86330 0.50670 -0.20400
C 	C 	0.82868 0.21430 0.36660 0.01400
C 	C 	0.82950 0.26220 0.37290 0.01000
H 	H 	0.83460 0.27270 0.39430 0.02400
C 	C 	0.82300 0.29620 0.34890 -0.20000
H 	H 	0.82340 0.32940 0.35390 0.09000
C 	C 	0.81600 0.28180 0.31760 0.24900
C 	C 	0.81500 0.23330 0.31150 -0.19600
H 	H 	0.80950 0.22250 0.29020 0.08400
C 	C 	0.82200 0.19880 0.33670 -0.00700
H 	H 	0.82190 0.16550 0.33220 0.01100
C 	C 	0.80900 0.31990 0.29240 -0.62100
H 	H 	0.80410 0.30470 0.27150 0.20200
H 	H 	0.81800 0.34180 0.29500 0.20200
H 	H 	0.80020 0.33800 0.29420 0.19800
C 	C 	0.83340 0.18510 0.41580 -0.04700
H 	H 	0.82600 0.20950 0.41540 0.04600
C 	C 	0.84174 0.15480 0.44370 0.03100
C 	C 	0.83729 0.15660 0.46690 -0.04600
H 	H 	0.82940 0.17990 0.46590 0.03200
C 	C 	0.84436 0.12440 0.49210 -0.12200
H 	H 	0.84120 0.12410 0.50810 0.07100
C 	C 	0.85617 0.09310 0.49250 0.14200
C 	C 	0.85990 0.09240 0.46840 -0.05700
H 	H 	0.86790 0.06950 0.46920 0.04300
C 	C 	0.86095 0.05750 0.54200 -0.09700
H 	H 	0.84890 0.05080 0.53480 0.07200
H 	H 	0.86390 0.08890 0.55300 0.06200
C 	C 	0.99150 0.91450 0.64300 0.01700
C 	C 	0.00020 0.88140 0.66580 -0.01900
H 	H 	0.99480 0.86570 0.67580 0.01600
C 	C 	0.01670 0.86990 0.67480 -0.16800
H 	H 	0.02200 0.84380 0.68890 0.08000
C 	C 	0.02550 0.89610 0.66340 0.19600
C 	C 	0.01720 0.93090 0.64210 -0.17700
H 	H 	0.02340 0.94970 0.63480 0.07100
C 	C 	0.99960 0.94120 0.62980 -0.01400
H 	H 	0.99390 0.96460 0.61370 0.02600
C 	C 	0.04380 0.88260 0.67200 -0.52800
H 	H 	0.04520 0.88560 0.65320 0.16300
H 	H 	0.04600 0.84930 0.67970 0.16600
H 	H 	0.05170 0.90420 0.68860 0.15900
C 	C 	0.96753 0.96520 0.62550 -0.03700
H 	H 	0.97440 0.99060 0.62500 0.03800
C 	C 	0.95002 0.97600 0.61730 0.02900
C 	C 	0.94303 0.02070 0.60710 -0.03600
H 	H 	0.94980 0.04640 0.60670 0.03200
C 	C 	0.92607 0.02830 0.59740 -0.12000
H 	H 	0.92080 0.05820 0.58880 0.06600
C 	C 	0.91704 0.98990 0.60080 0.14600
C 	C 	0.92480 0.94440 0.61030 -0.05300
H 	H 	0.91830 0.91820 0.61130 0.04000
C 	C 	0.89038 0.02940 0.57390 -0.09000
H 	H 	0.89170 0.03450 0.55500 0.07000
H 	H 	0.89390 0.05920 0.58680 0.05800
C 	C 	0.79630 0.73580 0.45900 0.02000
C 	C 	0.80400 0.69290 0.47150 -0.00600
H 	H 	0.81480 0.69270 0.48980 0.03100
C 	C 	0.79640 0.65020 0.45810 -0.17100
H 	H 	0.80200 0.62080 0.46710 0.07800
C 	C 	0.78050 0.64940 0.43150 0.19700
C 	C 	0.77300 0.69120 0.41940 -0.17600
H 	H 	0.76220 0.69130 0.40080 0.07900
C 	C 	0.78050 0.73520 0.43350 -0.01200
H 	H 	0.77450 0.76450 0.42530 0.01800
C 	C 	0.77190 0.60050 0.41690 -0.52100
H 	H 	0.76740 0.60140 0.39390 0.16000
H 	H 	0.76270 0.59470 0.42150 0.16500
H 	H 	0.78030 0.57450 0.42600 0.15600
C 	C 	0.81934 0.78700 0.48180 -0.03300
H 	H 	0.82520 0.76200 0.47790 0.04200
C 	C 	0.82833 0.83120 0.49730 0.03800
C 	C 	0.84385 0.83880 0.50230 -0.04000
H 	H 	0.84900 0.81610 0.49500 0.03900
C 	C 	0.85280 0.88030 0.51840 -0.11700
H 	H 	0.86430 0.88450 0.52400 0.07000
C 	C 	0.84433 0.91430 0.52560 0.14100
C 	C 	0.82786 0.90360 0.51950 -0.04300
H 	H 	0.82200 0.92670 0.52500 0.03500
C 	C 	0.86737 0.96900 0.54710 -0.08000
H 	H 	0.86880 0.97000 0.52800 0.07200
H 	H 	0.87490 0.94370 0.56140 0.06800
C 	C 	0.87207 0.01780 0.56390 0.17900
C 	C 	0.86950 0.01650 0.59350 -0.51600
H 	H 	0.85770 0.00810 0.58690 0.18300
H 	H 	0.87200 0.04810 0.60360 0.16700
H 	H 	0.87700 0.99240 0.60850 0.18900
Cd	Cd	0.70672 0.33569 0.00227 1.18900
Cd	Cd	0.60745 0.99205 0.94595 1.18900
Cd	Cd	0.65402 0.95161 0.26639 1.19000
Cd	Cd	0.74745 0.31195 0.31421 1.19000
Cd	Cd	0.64423 0.62132 0.10242 1.18900
Cd	Cd	0.54602 0.36350 0.87549 1.19200
Cd	Cd	0.53378 0.13702 0.10051 1.19000
Cd	Cd	0.62556 0.37889 0.32716 1.18900
O 	O 	0.72514 0.43700 0.11440 -0.21100
O 	O 	0.73892 0.41540 0.20860 -0.21800
O 	O 	0.70174 0.50250 0.14400 -0.21100
N 	N 	0.71586 0.39570 0.98040 -0.21700
N 	N 	0.71932 0.39590 0.04030 -0.21100
N 	N 	0.76901 0.26050 0.31580 -0.20500
N 	N 	0.75343 0.33630 0.27480 -0.21200
N 	N 	0.62548 0.55620 0.08750 -0.21000
N 	N 	0.66040 0.54960 0.11520 -0.20700
C 	C 	0.71540 0.39340 0.95080 0.02100
C 	C 	0.72950 0.40260 0.94790 -0.00900
H 	H 	0.74000 0.40970 0.96610 0.02600
C 	C 	0.72840 0.40170 0.91830 -0.18200
H 	H 	0.73780 0.41200 0.91620 0.07200
C 	C 	0.71410 0.38640 0.89190 0.21200
C 	C 	0.70020 0.37730 0.89500 -0.18300
H 	H 	0.68990 0.36990 0.87660 0.08100
C 	C 	0.70080 0.37860 0.92490 -0.02000
H 	H 	0.69130 0.36950 0.92690 0.01400
C 	C 	0.71410 0.37590 0.86100 -0.56200
H 	H 	0.71630 0.34170 0.86000 0.17300
H 	H 	0.72280 0.39520 0.85990 0.17200
H 	H 	0.70300 0.38420 0.84320 0.17000
C 	C 	0.72310 0.43130 0.99860 -0.03900
H 	H 	0.72720 0.45700 0.99140 0.04000
C 	C 	0.72510 0.43340 0.03050 0.02900
C 	C 	0.73190 0.47310 0.04900 -0.03100
H 	H 	0.73600 0.49900 0.04170 0.03100
C 	C 	0.73270 0.47550 0.07830 -0.12800
H 	H 	0.73740 0.50280 0.09160 0.06700
C 	C 	0.72670 0.43770 0.08760 0.15200
C 	C 	0.72010 0.39900 0.06860 -0.06300
H 	H 	0.71600 0.37300 0.07560 0.04200
C 	C 	0.73110 0.47880 0.13460 -0.07300
H 	H 	0.72410 0.50720 0.12350 0.05400
H 	H 	0.74300 0.48560 0.14080 0.04600
C 	C 	0.77737 0.22250 0.33810 0.01300
C 	C 	0.78166 0.22950 0.36900 -0.00200
H 	H 	0.78000 0.26040 0.37540 0.01000
C 	C 	0.78830 0.19400 0.39110 -0.19000
H 	H 	0.79110 0.20020 0.41240 0.08500
C 	C 	0.79090 0.14850 0.38220 0.23100
C 	C 	0.78740 0.14130 0.35210 -0.19900
H 	H 	0.78990 0.11090 0.34630 0.09100
C 	C 	0.78010 0.17820 0.32870 0.00400
H 	H 	0.77720 0.17230 0.30720 0.02700
C 	C 	0.79830 0.10680 0.40590 -0.58500
H 	H 	0.80020 0.11730 0.42670 0.19100
H 	H 	0.79040 0.07970 0.39850 0.19400
H 	H 	0.80910 0.09660 0.40750 0.19500
C 	C 	0.77048 0.26430 0.29090 -0.03800
H 	H 	0.77720 0.24150 0.28740 0.04300
C 	C 	0.76214 0.30290 0.26760 0.02900
C 	C 	0.76412 0.30690 0.24180 -0.04200
H 	H 	0.77120 0.28460 0.23890 0.03000
C 	C 	0.75610 0.34280 0.21920 -0.12100
H 	H 	0.75680 0.34410 0.20020 0.06600
C 	C 	0.74710 0.37660 0.22620 0.14000
C 	C 	0.74622 0.37220 0.25430 -0.05800
H 	H 	0.74020 0.39600 0.25900 0.03600
C 	C 	0.73980 0.42150 0.17980 -0.07200
H 	H 	0.73500 0.39310 0.16590 0.06200
H 	H 	0.75170 0.42570 0.18460 0.05100
C 	C 	0.60738 0.55890 0.07430 0.00200
C 	C 	0.59810 0.53080 0.08330 0.01500
H 	H 	0.60360 0.50680 0.09900 0.02300
C 	C 	0.58090 0.53660 0.07010 -0.20200
H 	H 	0.57460 0.51590 0.07610 0.08400
C 	C 	0.57280 0.57220 0.04810 0.23400
C 	C 	0.58160 0.60100 0.03940 -0.20900
H 	H 	0.57610 0.62550 0.02410 0.09200
C 	C 	0.59900 0.59460 0.05310 0.01200
H 	H 	0.60530 0.61600 0.04740 -0.00100
C 	C 	0.55360 0.57840 0.03290 -0.56300
H 	H 	0.55100 0.60170 0.04520 0.17300
H 	H 	0.54840 0.54740 0.03270 0.17000
H 	H 	0.54910 0.59010 0.01120 0.17600
C 	C 	0.63263 0.51580 0.09500 -0.03300
H 	H 	0.62570 0.48800 0.09060 0.04200
C 	C 	0.65094 0.50940 0.11010 0.03300
C 	C 	0.65828 0.46470 0.11650 -0.03300
H 	H 	0.65140 0.43690 0.11270 0.03700
C 	C 	0.67569 0.45960 0.12860 -0.12000
H 	H 	0.68090 0.42880 0.13330 0.07100
C 	C 	0.68488 0.50020 0.13350 0.14200
C 	C 	0.67648 0.54450 0.12680 -0.04300
H 	H 	0.68310 0.57280 0.13120 0.02600
C 	C 	0.71104 0.45750 0.15410 -0.08100
H 	H 	0.70620 0.43380 0.13660 0.07000
H 	H 	0.71020 0.44410 0.17230 0.06900
C 	C 	0.72936 0.46690 0.16360 0.15900
C 	C 	0.73680 0.50940 0.18760 -0.48300
H 	H 	0.73700 0.50070 0.20740 0.16900
H 	H 	0.72980 0.53800 0.17850 0.17000
H 	H 	0.74840 0.51600 0.19180 0.15200
O 	O 	0.59774 0.92390 0.04500 -0.21500
O 	O 	0.60768 0.91280 0.13950 -0.21000
O 	O 	0.57651 0.99350 0.09220 -0.20800
N 	N 	0.62780 0.93370 0.95330 -0.21100
N 	N 	0.61048 0.94020 0.98680 -0.20600
N 	N 	0.63869 0.91010 0.28650 -0.21100
N 	N 	0.63009 0.91710 0.22340 -0.21000
N 	N 	0.55225 0.19910 0.10420 -0.21000
N 	N 	0.55744 0.10250 0.09760 -0.20500
C 	C 	0.63669 0.93440 0.93620 0.00500
C 	C 	0.65381 0.92800 0.94990 0.01300
H 	H 	0.66020 0.92160 0.97190 0.02200
C 	C 	0.66200 0.93080 0.93190 -0.22200
H 	H 	0.67370 0.92350 0.94130 0.08800
C 	C 	0.65320 0.94400 0.90080 0.25600
C 	C 	0.63600 0.94890 0.88660 -0.20700
H 	H 	0.62950 0.95400 0.86440 0.09400
C 	C 	0.62760 0.94630 0.90510 -0.01000
H 	H 	0.61580 0.95290 0.89580 0.00000
C 	C 	0.66170 0.95300 0.88110 -0.63300
H 	H 	0.67400 0.95050 0.89450 0.20300
H 	H 	0.65890 0.98530 0.87190 0.20800
H 	H 	0.65790 0.92910 0.86410 0.20900
C 	C 	0.63188 0.90620 0.97750 -0.04100
H 	H 	0.64050 0.88280 0.98280 0.03800
C 	C 	0.62377 0.90970 0.99700 0.03100
C 	C 	0.62914 0.88170 0.02350 -0.03400
H 	H 	0.63830 0.85980 0.02970 0.03100
C 	C 	0.62098 0.88630 0.04090 -0.12900
H 	H 	0.62460 0.86810 0.05970 0.07400
C 	C 	0.60767 0.91700 0.03100 0.14300
C 	C 	0.60251 0.94270 0.00380 -0.06100
H 	H 	0.59290 0.96310 0.99680 0.04300
C 	C 	0.60188 0.90310 0.07520 -0.07400
H 	H 	0.61330 0.91340 0.09160 0.06200
H 	H 	0.60170 0.86760 0.07390 0.05400
C 	C 	0.64361 0.91160 0.31930 0.01200
C 	C 	0.66002 0.90480 0.34160 -0.01900
H 	H 	0.66800 0.89690 0.33500 0.01400
C 	C 	0.66540 0.90900 0.37340 -0.17800
H 	H 	0.67690 0.90380 0.38850 0.07800
C 	C 	0.65390 0.92080 0.38340 0.19600
C 	C 	0.63750 0.92710 0.36140 -0.17900
H 	H 	0.62960 0.93500 0.36830 0.09000
C 	C 	0.63161 0.92250 0.32840 -0.01200
H 	H 	0.62000 0.92660 0.31320 0.03000
C 	C 	0.65870 0.92640 0.41890 -0.53800
H 	H 	0.66820 0.90500 0.43190 0.17300
H 	H 	0.64890 0.91800 0.42150 0.17800
H 	H 	0.66200 0.95980 0.42560 0.17500
C 	C 	0.62470 0.89250 0.26500 -0.04400
H 	H 	0.61740 0.87770 0.27130 0.04100
C 	C 	0.61948 0.89420 0.23120 0.03800
C 	C 	0.60410 0.87810 0.20890 -0.04000
H 	H 	0.59650 0.86480 0.21520 0.03500
C 	C 	0.59930 0.88100 0.17680 -0.11600
H 	H 	0.58880 0.86840 0.16100 0.06400
C 	C 	0.61048 0.90320 0.16870 0.14900
C 	C 	0.62579 0.92060 0.19290 -0.05600
H 	H 	0.63340 0.93560 0.18750 0.03700
C 	C 	0.59125 0.89830 0.11420 -0.07200
H 	H 	0.58230 0.90870 0.11900 0.06000
H 	H 	0.59080 0.86280 0.11210 0.04800
C 	C 	0.54760 0.24890 0.10300 0.00700
C 	C 	0.54650 0.27820 0.07940 0.01000
H 	H 	0.54880 0.26560 0.06360 0.02700
C 	C 	0.54220 0.32530 0.07830 -0.19000
H 	H 	0.54230 0.34570 0.06270 0.08300
C 	C 	0.53760 0.34370 0.09920 0.21400
C 	C 	0.53850 0.31550 0.12220 -0.18900
H 	H 	0.53500 0.32760 0.13660 0.08300
C 	C 	0.54440 0.26810 0.12540 -0.00400
H 	H 	0.54610 0.24940 0.14320 0.01400
C 	C 	0.53140 0.39660 0.09490 -0.53700
H 	H 	0.53440 0.41040 0.11560 0.16200
H 	H 	0.51910 0.39750 0.08140 0.16500
H 	H 	0.53680 0.41530 0.08510 0.16300
C 	C 	0.56400 0.18750 0.09870 -0.03000
H 	H 	0.57040 0.21190 0.09550 0.04000
C 	C 	0.56800 0.13610 0.09720 0.03400
C 	C 	0.58050 0.12480 0.09020 -0.03900
H 	H 	0.58640 0.14950 0.08610 0.03800
C 	C 	0.58462 0.07630 0.08930 -0.11600
H 	H 	0.59390 0.06760 0.08630 0.06800
C 	C 	0.57489 0.04220 0.09280 0.13400
C 	C 	0.56138 0.05780 0.09750 -0.04300
H 	H 	0.55480 0.03410 0.10060 0.03200
C 	C 	0.58984 0.97630 0.08610 -0.07400
H 	H 	0.60110 0.98560 0.10370 0.06800
H 	H 	0.58850 0.99040 0.06630 0.06400
C 	C 	0.58835 0.92130 0.08330 0.15400
C 	C 	0.57021 0.90680 0.05720 -0.47400
H 	H 	0.56980 0.87200 0.05370 0.15400
H 	H 	0.56750 0.92360 0.03740 0.16800
H 	H 	0.56200 0.91570 0.06400 0.16100
O 	O 	0.68824 0.09560 0.35760 -0.21600
O 	O 	0.71479 0.21990 0.37120 -0.20700
O 	O 	0.67436 0.23430 0.35670 -0.20300
N 	N 	0.67750 0.90140 0.28410 -0.21600
N 	N 	0.67640 0.98800 0.31210 -0.20000
N 	N 	0.76456 0.35920 0.35740 -0.22000
N 	N 	0.74158 0.29200 0.35410 -0.21600
N 	N 	0.61467 0.37040 0.27110 -0.20400
N 	N 	0.64049 0.31720 0.31830 -0.20900
C 	C 	0.67720 0.85260 0.27560 0.01400
C 	C 	0.66420 0.83530 0.24740 -0.01600
H 	H 	0.65610 0.85710 0.23280 0.00300
C 	C 	0.66290 0.78640 0.24010 -0.19000
H 	H 	0.65380 0.77500 0.22080 0.08800
C 	C 	0.67470 0.75470 0.26090 0.22100
C 	C 	0.68840 0.77250 0.28770 -0.19000
H 	H 	0.69680 0.75100 0.30200 0.07500
C 	C 	0.69010 0.82270 0.29430 -0.01000
H 	H 	0.70010 0.83520 0.31150 0.02500
C 	C 	0.67450 0.70180 0.25320 -0.57700
H 	H 	0.67230 0.68270 0.26790 0.18000
H 	H 	0.68540 0.69270 0.25520 0.18100
H 	H 	0.66550 0.69590 0.23140 0.19100
C 	C 	0.69090 0.92290 0.30390 -0.04300
H 	H 	0.70140 0.90740 0.31010 0.04200
C 	C 	0.69127 0.96940 0.31780 0.03100
C 	C 	0.70600 0.99510 0.33370 -0.03200
H 	H 	0.71640 0.98290 0.33600 0.03300
C 	C 	0.70540 0.03880 0.34610 -0.12200
H 	H 	0.71530 0.05810 0.35640 0.06700
C 	C 	0.69059 0.05460 0.34380 0.14200
C 	C 	0.67631 0.03030 0.32500 -0.06100
H 	H 	0.66580 0.04380 0.32070 0.04400
C 	C 	0.70244 0.12700 0.37420 -0.07900
H 	H 	0.70780 0.13410 0.36110 0.06400
H 	H 	0.71090 0.11180 0.39420 0.05000
C 	C 	0.77684 0.39480 0.35880 0.00800
C 	C 	0.78730 0.38350 0.34700 -0.01200
H 	H 	0.78620 0.35310 0.33730 0.01200
C 	C 	0.79940 0.41540 0.34880 -0.18700
H 	H 	0.80700 0.40620 0.34160 0.08000
C 	C 	0.80030 0.46110 0.36120 0.21100
C 	C 	0.78890 0.47330 0.37010 -0.19500
H 	H 	0.78870 0.50560 0.37640 0.07700
C 	C 	0.77690 0.44010 0.37050 -0.01300
H 	H 	0.76940 0.44870 0.37830 0.02000
C 	C 	0.81300 0.49930 0.36250 -0.56200
H 	H 	0.82430 0.49210 0.38010 0.18100
H 	H 	0.80940 0.53120 0.36550 0.17800
H 	H 	0.81340 0.49880 0.34260 0.18200
C 	C 	0.76237 0.35410 0.38150 -0.03900
H 	H 	0.76870 0.37330 0.39980 0.03600
C 	C 	0.75016 0.31880 0.38120 0.02800
C 	C 	0.74782 0.31200 0.40670 -0.03700
H 	H 	0.75420 0.33040 0.42540 0.03300
C 	C 	0.73618 0.27840 0.40610 -0.11500
H 	H 	0.73440 0.27370 0.42370 0.06400
C 	C 	0.72721 0.25200 0.37800 0.14100
C 	C 	0.73035 0.26060 0.35270 -0.04600
H 	H 	0.72400 0.24300 0.33360 0.03700
C 	C 	0.71008 0.21010 0.39520 -0.07700
H 	H 	0.70630 0.23990 0.40100 0.06400
H 	H 	0.71980 0.19690 0.41440 0.04700
C 	C 	0.59930 0.39230 0.24800 0.02600
C 	C 	0.58450 0.36720 0.22950 -0.02000
H 	H 	0.58420 0.33340 0.23180 0.03600
C 	C 	0.57010 0.39200 0.20720 -0.15900
H 	H 	0.55990 0.37470 0.19480 0.07500
C 	C 	0.57050 0.44120 0.20330 0.18500
C 	C 	0.58490 0.46530 0.22140 -0.16800
H 	H 	0.58540 0.49890 0.21860 0.07400
C 	C 	0.59890 0.44090 0.24450 -0.01700
H 	H 	0.60870 0.45900 0.25840 0.02100
C 	C 	0.55460 0.46910 0.17920 -0.50200
H 	H 	0.54870 0.45070 0.15950 0.15300
H 	H 	0.55790 0.50050 0.17490 0.15500
H 	H 	0.54690 0.47370 0.18810 0.15100
C 	C 	0.61969 0.33260 0.26400 -0.03300
H 	H 	0.61400 0.32180 0.24260 0.04300
C 	C 	0.63412 0.30450 0.28750 0.03700
C 	C 	0.64070 0.26840 0.27800 -0.03800
H 	H 	0.63580 0.26050 0.25620 0.03900
C 	C 	0.65450 0.24290 0.30040 -0.11500
H 	H 	0.65920 0.21710 0.29430 0.06900
C 	C 	0.66113 0.25580 0.33130 0.13800
C 	C 	0.65315 0.29270 0.33920 -0.03800
H 	H 	0.65730 0.29980 0.36100 0.03600
C 	C 	0.68100 0.19120 0.35030 -0.07600
H 	H 	0.68490 0.19810 0.33480 0.07100
H 	H 	0.67210 0.16630 0.34120 0.06700
C 	C 	0.69568 0.17330 0.38120 0.16400
C 	C 	0.68941 0.16500 0.40550 -0.49500
H 	H 	0.69880 0.15280 0.42530 0.15800
H 	H 	0.68020 0.14140 0.39700 0.17200
H 	H 	0.68530 0.19540 0.40950 0.17600
O 	O 	0.65141 0.25040 0.89950 -0.21300
O 	O 	0.61431 0.15320 0.88340 -0.21000
O 	O 	0.60255 0.27060 0.87820 -0.21000
N 	N 	0.72627 0.27580 0.00660 -0.20800
N 	N 	0.69274 0.28260 0.95930 -0.20400
N 	N 	0.58424 0.96140 0.90040 -0.21500
N 	N 	0.60205 0.04310 0.90340 -0.20900
N 	N 	0.55833 0.36000 0.93170 -0.20700
N 	N 	0.57326 0.32710 0.89680 -0.20400
C 	C 	0.74332 0.27230 0.03050 0.01300
C 	C 	0.75100 0.22880 0.04360 0.01900
H 	H 	0.74490 0.19960 0.03580 0.02400
C 	C 	0.76760 0.22780 0.06790 -0.21700
H 	H 	0.77310 0.19780 0.07540 0.10100
C 	C 	0.77610 0.26940 0.08130 0.25000
C 	C 	0.76860 0.31270 0.06790 -0.19600
H 	H 	0.77470 0.34180 0.07620 0.08600
C 	C 	0.75201 0.31420 0.04190 -0.01000
H 	H 	0.74700 0.34410 0.03260 0.00700
C 	C 	0.79360 0.26940 0.11010 -0.62100
H 	H 	0.79810 0.30220 0.11420 0.20000
H 	H 	0.80100 0.24830 0.10620 0.20600
H 	H 	0.79290 0.25770 0.12850 0.19400
C 	C 	0.71921 0.24120 0.98660 -0.03800
H 	H 	0.72600 0.21440 0.98760 0.04800
C 	C 	0.70152 0.24120 0.96270 0.03200
C 	C 	0.69380 0.20110 0.94460 -0.03400
H 	H 	0.70030 0.17330 0.94650 0.03100
C 	C 	0.67680 0.20110 0.92370 -0.13400
H 	H 	0.67120 0.17310 0.91200 0.06900
C 	C 	0.66814 0.24280 0.92050 0.14900
C 	C 	0.67630 0.28230 0.93790 -0.06400
H 	H 	0.67000 0.31100 0.93480 0.04500
C 	C 	0.64076 0.20880 0.88550 -0.08100
H 	H 	0.64260 0.18500 0.90210 0.06500
H 	H 	0.64350 0.19340 0.87010 0.05900
C 	C 	0.57470 0.91960 0.90040 0.01300
C 	C 	0.58260 0.88090 0.91900 -0.01900
H 	H 	0.59460 0.88120 0.93160 0.01100
C 	C 	0.57380 0.84120 0.92020 -0.16900
H 	H 	0.57960 0.81510 0.93380 0.06800
C 	C 	0.55630 0.83940 0.90160 0.19800
C 	C 	0.54860 0.87690 0.88240 -0.17800
H 	H 	0.53660 0.87590 0.86960 0.08100
C 	C 	0.55730 0.91810 0.88020 -0.00900
H 	H 	0.55150 0.94330 0.86570 0.02800
C 	C 	0.54530 0.79910 0.90440 -0.53800
H 	H 	0.55260 0.77620 0.92080 0.16600
H 	H 	0.53910 0.78230 0.88400 0.17100
H 	H 	0.53720 0.81320 0.91000 0.17800
C 	C 	0.58000 0.98430 0.87440 -0.03700
H 	H 	0.57110 0.97240 0.85490 0.03500
C 	C 	0.58878 0.02880 0.87490 0.02800
C 	C 	0.58470 0.05410 0.84770 -0.03500
H 	H 	0.57590 0.04260 0.82810 0.03300
C 	C 	0.59311 0.09610 0.84830 -0.11800
H 	H 	0.59060 0.11310 0.82940 0.06600
C 	C 	0.60548 0.11230 0.87790 0.14500
C 	C 	0.60996 0.08390 0.90470 -0.05600
H 	H 	0.61890 0.09420 0.92450 0.03400
C 	C 	0.61038 0.18350 0.85620 -0.07700
H 	H 	0.59850 0.19470 0.84620 0.06500
H 	H 	0.61210 0.16560 0.84020 0.05000
C 	C 	0.55150 0.37940 0.95070 0.02100
C 	C 	0.56090 0.40140 0.97930 -0.00800
H 	H 	0.57280 0.40400 0.98750 0.03200
C 	C 	0.55380 0.41980 0.99660 -0.16600
H 	H 	0.56060 0.43480 0.01650 0.07700
C 	C 	0.53630 0.41610 0.98420 0.19300
C 	C 	0.52680 0.39330 0.95640 -0.17400
H 	H 	0.51500 0.38880 0.94860 0.07900
C 	C 	0.53450 0.37660 0.93920 -0.01300
H 	H 	0.52760 0.36290 0.91880 0.00900
C 	C 	0.52860 0.43680 0.00390 -0.51500
H 	H 	0.53750 0.45180 0.02320 0.15500
H 	H 	0.52000 0.46100 0.99140 0.15500
H 	H 	0.52330 0.41090 0.00970 0.16000
C 	C 	0.57350 0.34810 0.94550 -0.02600
H 	H 	0.57980 0.35120 0.96790 0.03900
C 	C 	0.58224 0.32970 0.92870 0.03400
C 	C 	0.59861 0.31500 0.94520 -0.03400
H 	H 	0.60470 0.31750 0.96760 0.03700
C 	C 	0.60633 0.29650 0.92890 -0.11800
H 	H 	0.61790 0.28710 0.93990 0.07000
C 	C 	0.59721 0.29180 0.89700 0.13900
C 	C 	0.58017 0.30740 0.88190 -0.04000
H 	H 	0.57350 0.30320 0.85970 0.03300
C 	C 	0.61988 0.25350 0.89360 -0.07600
H 	H 	0.62200 0.23210 0.91150 0.07000
H 	H 	0.62780 0.28100 0.90190 0.06600
C 	C 	0.62250 0.22610 0.86890 0.16100
C 	C 	0.61910 0.25970 0.84030 -0.48200
H 	H 	0.62670 0.28750 0.84800 0.16900
H 	H 	0.60730 0.27090 0.83010 0.16200
H 	H 	0.62100 0.24180 0.82490 0.15900
O 	O 	0.52122 0.12930 0.97490 -0.21000
O 	O 	0.52697 0.18940 0.90340 -0.21000
O 	O 	0.55330 0.09360 0.94140 -0.20300
N 	N 	0.51170 0.19240 0.08890 -0.21100
N 	N 	0.52086 0.15640 0.04640 -0.20500
N 	N 	0.53902 0.34370 0.82370 -0.21300
N 	N 	0.53341 0.28900 0.86500 -0.21400
N 	N 	0.62826 0.03760 0.99060 -0.20000
N 	N 	0.59363 0.04730 0.96190 -0.21000
C 	C 	0.50660 0.20660 0.11110 0.02500
C 	C 	0.50190 0.25270 0.11280 -0.01400
H 	H 	0.50190 0.27600 0.09840 0.02900
C 	C 	0.49710 0.26650 0.13490 -0.17900
H 	H 	0.49430 0.29900 0.13610 0.07600
C 	C 	0.49650 0.23270 0.15500 0.19800
C 	C 	0.50080 0.18620 0.15220 -0.16700
H 	H 	0.50150 0.16320 0.16730 0.07700
C 	C 	0.50440 0.17010 0.12760 -0.04200
H 	H 	0.50520 0.13720 0.12340 0.02100
C 	C 	0.49140 0.24770 0.17950 -0.54600
H 	H 	0.49870 0.23150 0.19960 0.17100
H 	H 	0.47960 0.23860 0.17210 0.16700
H 	H 	0.49260 0.28260 0.18260 0.17000
C 	C 	0.50550 0.21070 0.06090 -0.04200
H 	H 	0.49800 0.23700 0.05560 0.03900
C 	C 	0.50960 0.19290 0.03720 0.03700
C 	C 	0.50160 0.20960 0.00690 -0.03400
H 	H 	0.49320 0.23400 0.00100 0.03000
C 	C 	0.50550 0.19150 0.98510 -0.12300
H 	H 	0.50090 0.20490 0.96440 0.06700
C 	C 	0.51636 0.15360 0.99390 0.14400
C 	C 	0.52460 0.13950 0.02470 -0.05900
H 	H 	0.53340 0.11660 0.03110 0.03900
C 	C 	0.51590 0.14750 0.94330 -0.09300
H 	H 	0.51850 0.18230 0.94400 0.06900
H 	H 	0.50350 0.14290 0.92960 0.05600
C 	C 	0.54360 0.37270 0.80410 0.01200
C 	C 	0.54180 0.42100 0.80410 -0.01500
H 	H 	0.53770 0.43550 0.81680 0.01500
C 	C 	0.54610 0.44910 0.78550 -0.17400
H 	H 	0.54460 0.48300 0.78520 0.08200
C 	C 	0.55250 0.42900 0.76710 0.21500
C 	C 	0.55340 0.38140 0.76570 -0.19000
H 	H 	0.55750 0.36750 0.75270 0.07900
C 	C 	0.54830 0.35110 0.78360 -0.00900
H 	H 	0.54820 0.31710 0.78140 0.02700
C 	C 	0.55760 0.46170 0.74730 -0.55000
H 	H 	0.54750 0.47590 0.72970 0.17400
H 	H 	0.56360 0.44250 0.73890 0.17000
H 	H 	0.56510 0.48740 0.76080 0.18300
C 	C 	0.53210 0.30210 0.81500 -0.04300
H 	H 	0.52850 0.29200 0.79390 0.04300
C 	C 	0.52950 0.26970 0.83600 0.03400
C 	C 	0.52230 0.22550 0.82660 -0.03500
H 	H 	0.51830 0.21510 0.80540 0.03500
C 	C 	0.52060 0.19550 0.84840 -0.12400
H 	H 	0.51560 0.16460 0.84230 0.06800
C 	C 	0.52650 0.21220 0.87870 0.15400
C 	C 	0.53270 0.25950 0.88620 -0.05600
H 	H 	0.53650 0.27100 0.90710 0.04100
C 	C 	0.52200 0.13970 0.89890 -0.08300
H 	H 	0.52840 0.12180 0.89050 0.06700
H 	H 	0.50980 0.13690 0.88350 0.05000
C 	C 	0.64600 0.02710 0.00570 0.00300
C 	C 	0.65432 0.00530 0.03460 0.01500
H 	H 	0.64870 0.00020 0.04660 0.02100
C 	C 	0.67064 0.99080 0.04620 -0.20300
H 	H 	0.67610 0.97460 0.06600 0.08900
C 	C 	0.67949 0.99890 0.02980 0.23900
C 	C 	0.67132 0.02000 0.00120 -0.21000
H 	H 	0.67700 0.02590 0.98940 0.08700
C 	C 	0.65436 0.03330 0.98870 0.00700
H 	H 	0.64850 0.04690 0.96810 0.00600
C 	C 	0.69788 0.98330 0.04410 -0.59000
H 	H 	0.70070 0.96210 0.06220 0.19000
H 	H 	0.70520 0.01170 0.05120 0.17800
H 	H 	0.69950 0.96600 0.02820 0.18600
C 	C 	0.62196 0.06020 0.00420 -0.02600
H 	H 	0.62930 0.07260 0.02470 0.03900
C 	C 	0.60372 0.06880 0.99030 0.03100
C 	C 	0.59734 0.10020 0.00360 -0.03200
H 	H 	0.60460 0.11510 0.02330 0.03600
C 	C 	0.58010 0.11020 0.98820 -0.12200
H 	H 	0.57550 0.13280 0.99670 0.07100
C 	C 	0.57010 0.08700 0.96070 0.14400
C 	C 	0.57763 0.05640 0.94830 -0.04200
H 	H 	0.57050 0.04140 0.92860 0.03500
C 	C 	0.54442 0.12200 0.95410 -0.09600
H 	H 	0.54820 0.15590 0.95680 0.07600
H 	H 	0.54680 0.10920 0.97490 0.07300
C 	C 	0.52563 0.11900 0.93080 0.18700
C 	C 	0.51930 0.06660 0.92390 -0.52900
H 	H 	0.52140 0.05090 0.94370 0.19200
H 	H 	0.52540 0.04920 0.91490 0.18500
H 	H 	0.50720 0.06620 0.90890 0.17500
O 	O 	0.59481 0.19810 0.30870 -0.21000
O 	O 	0.56920 0.11310 0.23200 -0.20700
O 	O 	0.60928 0.07820 0.27820 -0.20400
N 	N 	0.60128 0.42220 0.31760 -0.21300
N 	N 	0.60437 0.32200 0.31920 -0.20400
N 	N 	0.51766 0.06870 0.09160 -0.21800
N 	N 	0.54223 0.10250 0.14950 -0.21700
N 	N 	0.66257 0.00880 0.24100 -0.20800
N 	N 	0.63929 0.02310 0.26100 -0.20900
C 	C 	0.60020 0.47240 0.32150 0.00300
C 	C 	0.58844 0.49250 0.32840 0.01100
H 	H 	0.58050 0.47280 0.33070 0.02500
C 	C 	0.58840 0.54230 0.33180 -0.20500
H 	H 	0.58060 0.55600 0.33740 0.10000
C 	C 	0.59900 0.57210 0.32760 0.23700
C 	C 	0.61070 0.55250 0.32010 -0.19600
H 	H 	0.61810 0.57250 0.31660 0.08600
C 	C 	0.61130 0.50180 0.31790 -0.00800
H 	H 	0.61960 0.48780 0.31380 -0.00100
C 	C 	0.59910 0.62610 0.33220 -0.58800
H 	H 	0.60540 0.63360 0.35490 0.19700
H 	H 	0.58740 0.63760 0.32340 0.19200
H 	H 	0.60450 0.64200 0.32130 0.18200
C 	C 	0.58847 0.39490 0.30800 -0.04300
H 	H 	0.57780 0.40960 0.30080 0.04100
C 	C 	0.58903 0.34240 0.30710 0.03300
C 	C 	0.57476 0.31540 0.29480 -0.03600
H 	H 	0.56410 0.33080 0.28670 0.03200
C 	C 	0.57549 0.26600 0.29380 -0.12200
H 	H 	0.56560 0.24670 0.28460 0.06600
C 	C 	0.59145 0.24640 0.30710 0.14500
C 	C 	0.60525 0.27480 0.31900 -0.05500
H 	H 	0.61610 0.26010 0.32760 0.04500
C 	C 	0.58104 0.16820 0.28740 -0.07600
H 	H 	0.57540 0.18230 0.26590 0.06400
H 	H 	0.57260 0.16510 0.29470 0.05200
C 	C 	0.50440 0.05110 0.06130 0.00800
C 	C 	0.49170 0.08070 0.04130 -0.00600
H 	H 	0.49180 0.11330 0.04710 0.01900
C 	C 	0.47870 0.06470 0.01260 -0.18700
H 	H 	0.46970 0.08590 0.99970 0.08100
C 	C 	0.47860 0.01830 0.00280 0.22400
C 	C 	0.49170 0.98960 0.02140 -0.19500
H 	H 	0.49240 0.95880 0.01360 0.09900
C 	C 	0.50470 0.00330 0.05240 -0.01000
H 	H 	0.51300 0.98110 0.06610 0.02400
C 	C 	0.46490 0.99980 0.97000 -0.57500
H 	H 	0.45520 0.98770 0.97170 0.19200
H 	H 	0.46960 0.97380 0.96300 0.18800
H 	H 	0.46120 0.02620 0.95470 0.18700
C 	C 	0.52150 0.04350 0.11640 -0.04100
H 	H 	0.51600 0.01370 0.11420 0.03700
C 	C 	0.53430 0.05930 0.14780 0.02700
C 	C 	0.53750 0.03300 0.17400 -0.03800
H 	H 	0.53140 0.00410 0.17150 0.03400
C 	C 	0.54950 0.04720 0.20430 -0.11400
H 	H 	0.55210 0.02870 0.22270 0.06400
C 	C 	0.55750 0.09130 0.20560 0.14100
C 	C 	0.55350 0.11750 0.17810 -0.04600
H 	H 	0.55920 0.14720 0.18000 0.03400
C 	C 	0.57424 0.08840 0.26170 -0.07700
H 	H 	0.57820 0.05540 0.26110 0.06400
H 	H 	0.56470 0.08640 0.26610 0.04800
C 	C 	0.67698 0.00240 0.23660 0.01100
C 	C 	0.69030 0.03310 0.24880 0.00200
H 	H 	0.68970 0.06170 0.25890 0.03100
C 	C 	0.70470 0.02350 0.24670 -0.18600
H 	H 	0.71410 0.04490 0.25610 0.08300
C 	C 	0.70560 0.98280 0.23100 0.21900
C 	C 	0.69280 0.95200 0.22080 -0.19600
H 	H 	0.69360 0.92230 0.21180 0.07800
C 	C 	0.67830 0.96170 0.22280 -0.00500
H 	H 	0.66920 0.93940 0.21430 0.00500
C 	C 	0.72130 0.97140 0.22740 -0.57200
H 	H 	0.73150 0.98270 0.24620 0.18200
H 	H 	0.72020 0.98760 0.20850 0.18100
H 	H 	0.72200 0.93660 0.22520 0.18900
C 	C 	0.65670 0.05050 0.23950 -0.03000
H 	H 	0.65990 0.07560 0.23010 0.04100
C 	C 	0.64510 0.06110 0.25170 0.03500
C 	C 	0.63910 0.10670 0.25060 -0.03400
H 	H 	0.64310 0.13250 0.24310 0.03700
C 	C 	0.62730 0.11520 0.26030 -0.12000
H 	H 	0.62350 0.14690 0.26080 0.07100
C 	C 	0.62132 0.07670 0.26920 0.14200
C 	C 	0.62764 0.03120 0.26850 -0.04400
H 	H 	0.62300 0.00440 0.27380 0.03700
C 	C 	0.60275 0.12540 0.27950 -0.08500
H 	H 	0.59850 0.14200 0.25890 0.07300
H 	H 	0.61180 0.14530 0.29610 0.07100
C 	C 	0.58865 0.11830 0.28720 0.16600
C 	C 	0.59400 0.09240 0.31950 -0.50000
H 	H 	0.60180 0.11300 0.33690 0.18200
H 	H 	0.59960 0.06190 0.32010 0.17600
H 	H 	0.58390 0.08610 0.32160 0.16500
O 	O 	0.66749 0.49960 0.30520 -0.20800
O 	O 	0.66677 0.56270 0.22760 -0.21500
O 	O 	0.69801 0.45800 0.28540 -0.20600
N 	N 	0.64337 0.37480 0.38240 -0.21300
N 	N 	0.64790 0.43080 0.34000 -0.21500
N 	N 	0.62545 0.67960 0.10290 -0.21100
N 	N 	0.64622 0.61900 0.15270 -0.20700
N 	N 	0.72759 0.25940 0.27440 -0.20700
N 	N 	0.72050 0.35160 0.28760 -0.20400
C 	C 	0.64029 0.34600 0.40340 0.00500
C 	C 	0.65301 0.32160 0.42860 0.01000
H 	H 	0.66430 0.32400 0.43240 0.02200
C 	C 	0.64942 0.29350 0.44840 -0.20700
H 	H 	0.65830 0.27740 0.46590 0.09100
C 	C 	0.63325 0.28900 0.44300 0.24100
C 	C 	0.62042 0.31240 0.41750 -0.19100
H 	H 	0.60910 0.30890 0.41320 0.08700
C 	C 	0.62405 0.34170 0.39730 -0.01100
H 	H 	0.61520 0.35790 0.37980 0.00400
C 	C 	0.62920 0.25760 0.46400 -0.58600
H 	H 	0.63420 0.22570 0.46600 0.18800
H 	H 	0.61690 0.25450 0.45470 0.18500
H 	H 	0.63380 0.27230 0.48510 0.18800
C 	C 	0.65678 0.39990 0.39210 -0.04700
H 	H 	0.66490 0.39930 0.41400 0.04200
C 	C 	0.66010 0.42920 0.37090 0.03300
C 	C 	0.67528 0.45240 0.38180 -0.03500
H 	H 	0.68360 0.45020 0.40350 0.03600
C 	C 	0.67840 0.47910 0.36110 -0.11900
H 	H 	0.68840 0.49780 0.36830 0.07000
C 	C 	0.66651 0.47740 0.32970 0.14500
C 	C 	0.65140 0.45560 0.32040 -0.05500
H 	H 	0.64290 0.45820 0.29890 0.03800
C 	C 	0.68277 0.52370 0.31160 -0.07700
H 	H 	0.69270 0.50430 0.32600 0.06200
H 	H 	0.68350 0.55530 0.32160 0.04200
C 	C 	0.61496 0.71170 0.07690 0.01500
C 	C 	0.59920 0.72610 0.07060 -0.00300
H 	H 	0.59420 0.71250 0.08220 0.02600
C 	C 	0.59030 0.76000 0.04760 -0.17800
H 	H 	0.58020 0.77380 0.04590 0.07600
C 	C 	0.59620 0.77390 0.02690 0.21400
C 	C 	0.61150 0.75920 0.03270 -0.18400
H 	H 	0.61560 0.76920 0.01890 0.08000
C 	C 	0.62190 0.72890 0.05920 -0.02000
H 	H 	0.63320 0.72110 0.06430 0.01100
C 	C 	0.58520 0.80700 0.99850 -0.57200
H 	H 	0.58290 0.83700 0.00620 0.19300
H 	H 	0.57460 0.79070 0.98430 0.17800
H 	H 	0.59130 0.81410 0.98690 0.18500
C 	C 	0.62390 0.67800 0.12770 -0.03400
H 	H 	0.61540 0.69730 0.12840 0.03900
C 	C 	0.63460 0.64780 0.15540 0.02400
C 	C 	0.63220 0.64500 0.18110 -0.03300
H 	H 	0.62290 0.66120 0.18080 0.03100
C 	C 	0.64310 0.61890 0.20780 -0.13300
H 	H 	0.64250 0.62040 0.22680 0.06600
C 	C 	0.65501 0.59070 0.20530 0.14700
C 	C 	0.65634 0.59310 0.17770 -0.05400
H 	H 	0.66500 0.57500 0.17680 0.04200
C 	C 	0.66654 0.55830 0.25750 -0.08400
H 	H 	0.65620 0.54100 0.25420 0.06600
H 	H 	0.66670 0.59050 0.26630 0.04600
C 	C 	0.73170 0.21550 0.26400 0.02800
C 	C 	0.73070 0.21290 0.23500 -0.01600
H 	H 	0.72680 0.23970 0.22110 0.03500
C 	C 	0.73530 0.17140 0.22600 -0.16200
H 	H 	0.73430 0.16950 0.20550 0.07400
C 	C 	0.74140 0.13210 0.24620 0.18800
C 	C 	0.74170 0.13440 0.27410 -0.16800
H 	H 	0.74510 0.10710 0.28760 0.07300
C 	C 	0.73690 0.17650 0.28350 -0.02100
H 	H 	0.73740 0.17790 0.30350 0.02600
C 	C 	0.74630 0.08500 0.23520 -0.52000
H 	H 	0.75680 0.08990 0.23460 0.16500
H 	H 	0.73720 0.07640 0.21390 0.16000
H 	H 	0.74780 0.05900 0.25000 0.15900
C 	C 	0.71367 0.27850 0.25610 -0.02900
H 	H 	0.70590 0.26160 0.23760 0.04000
C 	C 	0.70894 0.32650 0.26230 0.03300
C 	C 	0.69320 0.34460 0.24440 -0.03500
H 	H 	0.68520 0.32600 0.22710 0.03800
C 	C 	0.68840 0.38950 0.25010 -0.11400
H 	H 	0.67750 0.40270 0.23670 0.06900
C 	C 	0.70030 0.41360 0.27630 0.13900
C 	C 	0.71619 0.39290 0.29390 -0.04200
H 	H 	0.72440 0.41010 0.31180 0.03000
C 	C 	0.68164 0.48070 0.26530 -0.08500
H 	H 	0.67240 0.46100 0.26470 0.07200
H 	H 	0.67970 0.48430 0.24340 0.07000
C 	C 	0.68222 0.53030 0.27980 0.17000
C 	C 	0.69816 0.55770 0.28520 -0.49400
H 	H 	0.69760 0.59080 0.29150 0.15200
H 	H 	0.69880 0.55780 0.26550 0.17600
H 	H 	0.70820 0.54180 0.30190 0.16800
O 	O 	0.63593 0.55800 0.98490 -0.20100
O 	O 	0.59933 0.48930 0.90770 -0.21000
O 	O 	0.64987 0.45850 0.96170 -0.20400
N 	N 	0.66443 0.68030 0.10840 -0.20900
N 	N 	0.64710 0.62200 0.05610 -0.20800
N 	N 	0.52611 0.42310 0.86670 -0.21500
N 	N 	0.55914 0.43690 0.88200 -0.21100
N 	N 	0.69613 0.28140 0.02630 -0.20700
N 	N 	0.67964 0.36330 0.99330 -0.20400
C 	C 	0.67132 0.71430 0.13340 0.01400
C 	C 	0.67050 0.76220 0.12710 0.01000
H 	H 	0.66540 0.77270 0.10570 0.02400
C 	C 	0.67700 0.79620 0.15110 -0.20000
H 	H 	0.67660 0.82940 0.14610 0.09000
C 	C 	0.68400 0.78180 0.18240 0.24900
C 	C 	0.68500 0.73330 0.18850 -0.19600
H 	H 	0.69050 0.72250 0.20980 0.08400
C 	C 	0.67800 0.69880 0.16330 -0.00700
H 	H 	0.67810 0.66550 0.16780 0.01100
C 	C 	0.69100 0.81990 0.20760 -0.62100
H 	H 	0.69590 0.80470 0.22850 0.20200
H 	H 	0.68200 0.84180 0.20500 0.20200
H 	H 	0.69980 0.83800 0.20580 0.19800
C 	C 	0.66660 0.68510 0.08420 -0.04700
H 	H 	0.67400 0.70950 0.08460 0.04600
C 	C 	0.65826 0.65480 0.05630 0.03100
C 	C 	0.66271 0.65660 0.03310 -0.04600
H 	H 	0.67060 0.67990 0.03410 0.03200
C 	C 	0.65564 0.62440 0.00790 -0.12200
H 	H 	0.65880 0.62410 0.99190 0.07100
C 	C 	0.64383 0.59310 0.00750 0.14200
C 	C 	0.64010 0.59240 0.03160 -0.05700
H 	H 	0.63210 0.56950 0.03080 0.04300
C 	C 	0.63905 0.55750 0.95800 -0.09700
H 	H 	0.65110 0.55080 0.96520 0.07200
H 	H 	0.63610 0.58890 0.94700 0.06200
C 	C 	0.50850 0.41450 0.85700 0.01700
C 	C 	0.49980 0.38140 0.83420 -0.01900
H 	H 	0.50520 0.36570 0.82420 0.01600
C 	C 	0.48330 0.36990 0.82520 -0.16800
H 	H 	0.47800 0.34380 0.81110 0.08000
C 	C 	0.47450 0.39610 0.83660 0.19600
C 	C 	0.48280 0.43090 0.85790 -0.17700
H 	H 	0.47660 0.44970 0.86520 0.07100
C 	C 	0.50040 0.44120 0.87020 -0.01400
H 	H 	0.50610 0.46460 0.88630 0.02600
C 	C 	0.45620 0.38260 0.82800 -0.52800
H 	H 	0.45480 0.38560 0.84680 0.16300
H 	H 	0.45400 0.34930 0.82030 0.16600
H 	H 	0.44830 0.40420 0.81140 0.15900
C 	C 	0.53247 0.46520 0.87450 -0.03700
H 	H 	0.52560 0.49060 0.87500 0.03800
C 	C 	0.54998 0.47600 0.88270 0.02900
C 	C 	0.55697 0.52070 0.89290 -0.03600
H 	H 	0.55020 0.54640 0.89330 0.03200
C 	C 	0.57393 0.52830 0.90260 -0.12000
H 	H 	0.57920 0.55820 0.91120 0.06600
C 	C 	0.58296 0.48990 0.89920 0.14600
C 	C 	0.57520 0.44440 0.88970 -0.05300
H 	H 	0.58170 0.41820 0.88870 0.04000
C 	C 	0.60962 0.52940 0.92610 -0.09000
H 	H 	0.60830 0.53450 0.94500 0.07000
H 	H 	0.60610 0.55920 0.91320 0.05800
C 	C 	0.70370 0.23580 0.04100 0.02000
C 	C 	0.69600 0.19290 0.02850 -0.00600
H 	H 	0.68520 0.19270 0.01020 0.03100
C 	C 	0.70360 0.15020 0.04190 -0.17100
H 	H 	0.69800 0.12080 0.03290 0.07800
C 	C 	0.71950 0.14940 0.06850 0.19700
C 	C 	0.72700 0.19120 0.08060 -0.17600
H 	H 	0.73780 0.19130 0.09920 0.07900
C 	C 	0.71950 0.23520 0.06650 -0.01200
H 	H 	0.72550 0.26450 0.07470 0.01800
C 	C 	0.72810 0.10050 0.08310 -0.52100
H 	H 	0.73260 0.10140 0.10610 0.16000
H 	H 	0.73730 0.09470 0.07850 0.16500
H 	H 	0.71970 0.07450 0.07400 0.15600
C 	C 	0.68066 0.28700 0.01820 -0.03300
H 	H 	0.67480 0.26200 0.02210 0.04200
C 	C 	0.67167 0.33120 0.00270 0.03800
C 	C 	0.65615 0.33880 0.99770 -0.04000
H 	H 	0.65100 0.31610 0.00500 0.03900
C 	C 	0.64720 0.38030 0.98160 -0.11700
H 	H 	0.63570 0.38450 0.97600 0.07000
C 	C 	0.65567 0.41430 0.97440 0.14100
C 	C 	0.67214 0.40360 0.98050 -0.04300
H 	H 	0.67800 0.42670 0.97500 0.03500
C 	C 	0.63263 0.46900 0.95290 -0.08000
H 	H 	0.63120 0.47000 0.97200 0.07200
H 	H 	0.62510 0.44370 0.93860 0.06800
C 	C 	0.62793 0.51780 0.93610 0.17900
C 	C 	0.63050 0.51650 0.90650 -0.51700
H 	H 	0.64230 0.50810 0.91310 0.18300
H 	H 	0.62800 0.54810 0.89640 0.16700
H 	H 	0.62300 0.49240 0.89150 0.18900
Cd	Cd	0.20672 0.83569 0.00227 1.18900
Cd	Cd	0.10745 0.49205 0.94595 1.18900
Cd	Cd	0.15402 0.45161 0.26639 1.19000
Cd	Cd	0.24745 0.81195 0.31421 1.19000
Cd	Cd	0.14423 0.12132 0.10242 1.18900
Cd	Cd	0.04602 0.86350 0.87549 1.19200
Cd	Cd	0.03378 0.63702 0.10051 1.19000
Cd	Cd	0.12556 0.87889 0.32716 1.18900
O 	O 	0.22514 0.93700 0.11440 -0.21100
O 	O 	0.23892 0.91540 0.20860 -0.21800
O 	O 	0.20174 0.00250 0.14400 -0.21100
N 	N 	0.21586 0.89570 0.98040 -0.21700
N 	N 	0.21932 0.89590 0.04030 -0.21100
N 	N 	0.26901 0.76050 0.31580 -0.20500
N 	N 	0.25343 0.83630 0.27480 -0.21200
N 	N 	0.12548 0.05620 0.08750 -0.21000
N 	N 	0.16040 0.04960 0.11520 -0.20700
C 	C 	0.21540 0.89340 0.95080 0.02100
C 	C 	0.22950 0.90260 0.94790 -0.00900
H 	H 	0.24000 0.90970 0.96610 0.02600
C 	C 	0.22840 0.90170 0.91830 -0.18200
H 	H 	0.23780 0.91200 0.91620 0.07200
C 	C 	0.21410 0.88640 0.89190 0.21200
C 	C 	0.20020 0.87730 0.89500 -0.18300
H 	H 	0.18990 0.86990 0.87660 0.08100
C 	C 	0.20080 0.87860 0.92490 -0.02000
H 	H 	0.19130 0.86950 0.92690 0.01400
C 	C 	0.21410 0.87590 0.86100 -0.56200
H 	H 	0.21630 0.84170 0.86000 0.17300
H 	H 	0.22280 0.89520 0.85990 0.17200
H 	H 	0.20300 0.88420 0.84320 0.17000
C 	C 	0.22310 0.93130 0.99860 -0.03900
H 	H 	0.22720 0.95700 0.99140 0.04000
C 	C 	0.22510 0.93340 0.03050 0.02900
C 	C 	0.23190 0.97310 0.04900 -0.03100
H 	H 	0.23600 0.99900 0.04170 0.03100
C 	C 	0.23270 0.97550 0.07830 -0.12800
H 	H 	0.23740 0.00280 0.09160 0.06700
C 	C 	0.22670 0.93770 0.08760 0.15200
C 	C 	0.22010 0.89900 0.06860 -0.06300
H 	H 	0.21600 0.87300 0.07560 0.04200
C 	C 	0.23110 0.97880 0.13460 -0.07300
H 	H 	0.22410 0.00720 0.12350 0.05400
H 	H 	0.24300 0.98560 0.14080 0.04600
C 	C 	0.27737 0.72250 0.33810 0.01300
C 	C 	0.28166 0.72950 0.36900 -0.00200
H 	H 	0.28000 0.76040 0.37540 0.01000
C 	C 	0.28830 0.69400 0.39110 -0.19000
H 	H 	0.29110 0.70020 0.41240 0.08500
C 	C 	0.29090 0.64850 0.38220 0.23100
C 	C 	0.28740 0.64130 0.35210 -0.19900
H 	H 	0.28990 0.61090 0.34630 0.09100
C 	C 	0.28010 0.67820 0.32870 0.00400
H 	H 	0.27720 0.67230 0.30720 0.02700
C 	C 	0.29830 0.60680 0.40590 -0.58500
H 	H 	0.30020 0.61730 0.42670 0.19100
H 	H 	0.29040 0.57970 0.39850 0.19400
H 	H 	0.30910 0.59660 0.40750 0.19500
C 	C 	0.27048 0.76430 0.29090 -0.03800
H 	H 	0.27720 0.74150 0.28740 0.04300
C 	C 	0.26214 0.80290 0.26760 0.02900
C 	C 	0.26412 0.80690 0.24180 -0.04200
H 	H 	0.27120 0.78460 0.23890 0.03000
C 	C 	0.25610 0.84280 0.21920 -0.12100
H 	H 	0.25680 0.84410 0.20020 0.06600
C 	C 	0.24710 0.87660 0.22620 0.14000
C 	C 	0.24622 0.87220 0.25430 -0.05800
H 	H 	0.24020 0.89600 0.25900 0.03600
C 	C 	0.23980 0.92150 0.17980 -0.07200
H 	H 	0.23500 0.89310 0.16590 0.06200
H 	H 	0.25170 0.92570 0.18460 0.05100
C 	C 	0.10738 0.05890 0.07430 0.00200
C 	C 	0.09810 0.03080 0.08330 0.01500
H 	H 	0.10360 0.00680 0.09900 0.02300
C 	C 	0.08090 0.03660 0.07010 -0.20200
H 	H 	0.07460 0.01590 0.07610 0.08400
C 	C 	0.07280 0.07220 0.04810 0.23400
C 	C 	0.08160 0.10100 0.03940 -0.20900
H 	H 	0.07610 0.12550 0.02410 0.09200
C 	C 	0.09900 0.09460 0.05310 0.01200
H 	H 	0.10530 0.11600 0.04740 -0.00100
C 	C 	0.05360 0.07840 0.03290 -0.56300
H 	H 	0.05100 0.10170 0.04520 0.17300
H 	H 	0.04840 0.04740 0.03270 0.17000
H 	H 	0.04910 0.09010 0.01120 0.17600
C 	C 	0.13263 0.01580 0.09500 -0.03300
H 	H 	0.12570 0.98800 0.09060 0.04200
C 	C 	0.15094 0.00940 0.11010 0.03300
C 	C 	0.15828 0.96470 0.11650 -0.03300
H 	H 	0.15140 0.93690 0.11270 0.03700
C 	C 	0.17569 0.95960 0.12860 -0.12000
H 	H 	0.18090 0.92880 0.13330 0.07100
C 	C 	0.18488 0.00020 0.13350 0.14200
C 	C 	0.17648 0.04450 0.12680 -0.04300
H 	H 	0.18310 0.07280 0.13120 0.02600
C 	C 	0.21104 0.95750 0.15410 -0.08100
H 	H 	0.20620 0.93380 0.13660 0.07000
H 	H 	0.21020 0.94410 0.17230 0.06900
C 	C 	0.22936 0.96690 0.16360 0.15900
C 	C 	0.23680 0.00940 0.18760 -0.48300
H 	H 	0.23700 0.00070 0.20740 0.16900
H 	H 	0.22980 0.03800 0.17850 0.17000
H 	H 	0.24840 0.01600 0.19180 0.15200
O 	O 	0.09774 0.42390 0.04500 -0.21500
O 	O 	0.10768 0.41280 0.13950 -0.21000
O 	O 	0.07651 0.49350 0.09220 -0.20800
N 	N 	0.12780 0.43370 0.95330 -0.21100
N 	N 	0.11048 0.44020 0.98680 -0.20600
N 	N 	0.13869 0.41010 0.28650 -0.21100
N 	N 	0.13009 0.41710 0.22340 -0.21000
N 	N 	0.05225 0.69910 0.10420 -0.21000
N 	N 	0.05744 0.60250 0.09760 -0.20500
C 	C 	0.13669 0.43440 0.93620 0.00500
C 	C 	0.15381 0.42800 0.94990 0.01300
H 	H 	0.16020 0.42160 0.97190 0.02200
C 	C 	0.16200 0.43080 0.93190 -0.22200
H 	H 	0.17370 0.42350 0.94130 0.08800
C 	C 	0.15320 0.44400 0.90080 0.25600
C 	C 	0.13600 0.44890 0.88660 -0.20700
H 	H 	0.12950 0.45400 0.86440 0.09400
C 	C 	0.12760 0.44630 0.90510 -0.01000
H 	H 	0.11580 0.45290 0.89580 0.00000
C 	C 	0.16170 0.45300 0.88110 -0.63300
H 	H 	0.17400 0.45050 0.89450 0.20300
H 	H 	0.15890 0.48530 0.87190 0.20800
H 	H 	0.15790 0.42910 0.86410 0.20900
C 	C 	0.13188 0.40620 0.97750 -0.04100
H 	H 	0.14050 0.38280 0.98280 0.03800
C 	C 	0.12377 0.40970 0.99700 0.03100
C 	C 	0.12914 0.38170 0.02350 -0.03400
H 	H 	0.13830 0.35980 0.02970 0.03100
C 	C 	0.12098 0.38630 0.04090 -0.12900
H 	H 	0.12460 0.36810 0.05970 0.07400
C 	C 	0.10767 0.41700 0.03100 0.14400
C 	C 	0.10251 0.44270 0.00380 -0.06100
H 	H 	0.09290 0.46310 0.99680 0.04300
C 	C 	0.10188 0.40310 0.07520 -0.07400
H 	H 	0.11330 0.41340 0.09160 0.06200
H 	H 	0.10170 0.36760 0.07390 0.05400
C 	C 	0.14361 0.41160 0.31930 0.01200
C 	C 	0.16002 0.40480 0.34160 -0.01900
H 	H 	0.16800 0.39690 0.33500 0.01400
C 	C 	0.16540 0.40900 0.37340 -0.17800
H 	H 	0.17690 0.40380 0.38850 0.07800
C 	C 	0.15390 0.42080 0.38340 0.19600
C 	C 	0.13750 0.42710 0.36140 -0.17900
H 	H 	0.12960 0.43500 0.36830 0.09000
C 	C 	0.13161 0.42250 0.32840 -0.01200
H 	H 	0.12000 0.42660 0.31320 0.03000
C 	C 	0.15870 0.42640 0.41890 -0.53800
H 	H 	0.16820 0.40500 0.43190 0.17300
H 	H 	0.14890 0.41800 0.42150 0.17800
H 	H 	0.16200 0.45980 0.42560 0.17500
C 	C 	0.12470 0.39250 0.26500 -0.04400
H 	H 	0.11740 0.37770 0.27130 0.04100
C 	C 	0.11948 0.39420 0.23120 0.03800
C 	C 	0.10410 0.37810 0.20890 -0.04000
H 	H 	0.09650 0.36480 0.21520 0.03500
C 	C 	0.09930 0.38100 0.17680 -0.11600
H 	H 	0.08880 0.36840 0.16100 0.06400
C 	C 	0.11048 0.40320 0.16870 0.14900
C 	C 	0.12579 0.42060 0.19290 -0.05600
H 	H 	0.13340 0.43560 0.18750 0.03700
C 	C 	0.09125 0.39830 0.11420 -0.07200
H 	H 	0.08230 0.40870 0.11900 0.06000
H 	H 	0.09080 0.36280 0.11210 0.04800
C 	C 	0.04760 0.74890 0.10300 0.00700
C 	C 	0.04650 0.77820 0.07940 0.01000
H 	H 	0.04880 0.76560 0.06360 0.02700
C 	C 	0.04220 0.82530 0.07830 -0.19000
H 	H 	0.04230 0.84570 0.06270 0.08300
C 	C 	0.03760 0.84370 0.09920 0.21400
C 	C 	0.03850 0.81550 0.12220 -0.18900
H 	H 	0.03500 0.82760 0.13660 0.08300
C 	C 	0.04440 0.76810 0.12540 -0.00400
H 	H 	0.04610 0.74940 0.14320 0.01400
C 	C 	0.03140 0.89660 0.09490 -0.53700
H 	H 	0.03440 0.91040 0.11560 0.16200
H 	H 	0.01910 0.89750 0.08140 0.16500
H 	H 	0.03680 0.91530 0.08510 0.16300
C 	C 	0.06400 0.68750 0.09870 -0.03000
H 	H 	0.07040 0.71190 0.09550 0.04000
C 	C 	0.06800 0.63610 0.09720 0.03400
C 	C 	0.08050 0.62480 0.09020 -0.03900
H 	H 	0.08640 0.64950 0.08610 0.03800
C 	C 	0.08462 0.57630 0.08930 -0.11600
H 	H 	0.09390 0.56760 0.08630 0.06800
C 	C 	0.07489 0.54220 0.09280 0.13400
C 	C 	0.06138 0.55780 0.09750 -0.04300
H 	H 	0.05480 0.53410 0.10060 0.03200
C 	C 	0.08984 0.47630 0.08610 -0.07400
H 	H 	0.10110 0.48560 0.10370 0.06800
H 	H 	0.08850 0.49040 0.06630 0.06400
C 	C 	0.08835 0.42130 0.08330 0.15400
C 	C 	0.07021 0.40680 0.05720 -0.47400
H 	H 	0.06980 0.37200 0.05370 0.15400
H 	H 	0.06750 0.42360 0.03740 0.16800
H 	H 	0.06200 0.41570 0.06400 0.16100
O 	O 	0.18824 0.59560 0.35760 -0.21600
O 	O 	0.21479 0.71990 0.37120 -0.20700
O 	O 	0.17436 0.73430 0.35670 -0.20300
N 	N 	0.17750 0.40140 0.28410 -0.21600
N 	N 	0.17640 0.48800 0.31210 -0.20000
N 	N 	0.26456 0.85920 0.35740 -0.22000
N 	N 	0.24158 0.79200 0.35410 -0.21600
N 	N 	0.11467 0.87040 0.27110 -0.20400
N 	N 	0.14049 0.81720 0.31830 -0.20900
C 	C 	0.17720 0.35260 0.27560 0.01400
C 	C 	0.16420 0.33530 0.24740 -0.01600
H 	H 	0.15610 0.35710 0.23280 0.00300
C 	C 	0.16290 0.28640 0.24010 -0.19000
H 	H 	0.15380 0.27500 0.22080 0.08800
C 	C 	0.17470 0.25470 0.26090 0.22100
C 	C 	0.18840 0.27250 0.28770 -0.19000
H 	H 	0.19680 0.25100 0.30200 0.07500
C 	C 	0.19010 0.32270 0.29430 -0.01000
H 	H 	0.20010 0.33520 0.31150 0.02500
C 	C 	0.17450 0.20180 0.25320 -0.57700
H 	H 	0.17230 0.18270 0.26790 0.18000
H 	H 	0.18540 0.19270 0.25520 0.18100
H 	H 	0.16550 0.19590 0.23140 0.19100
C 	C 	0.19090 0.42290 0.30390 -0.04300
H 	H 	0.20140 0.40740 0.31010 0.04200
C 	C 	0.19127 0.46940 0.31780 0.03100
C 	C 	0.20600 0.49510 0.33370 -0.03200
H 	H 	0.21640 0.48290 0.33600 0.03300
C 	C 	0.20540 0.53880 0.34610 -0.12200
H 	H 	0.21530 0.55810 0.35640 0.06700
C 	C 	0.19059 0.55460 0.34380 0.14200
C 	C 	0.17631 0.53030 0.32500 -0.06100
H 	H 	0.16580 0.54380 0.32070 0.04400
C 	C 	0.20244 0.62700 0.37420 -0.07900
H 	H 	0.20780 0.63410 0.36110 0.06400
H 	H 	0.21090 0.61180 0.39420 0.05000
C 	C 	0.27684 0.89480 0.35880 0.00800
C 	C 	0.28730 0.88350 0.34700 -0.01200
H 	H 	0.28620 0.85310 0.33730 0.01200
C 	C 	0.29940 0.91540 0.34880 -0.18700
H 	H 	0.30700 0.90620 0.34160 0.08000
C 	C 	0.30030 0.96110 0.36120 0.21100
C 	C 	0.28890 0.97330 0.37010 -0.19500
H 	H 	0.28870 0.00560 0.37640 0.07700
C 	C 	0.27690 0.94010 0.37050 -0.01300
H 	H 	0.26940 0.94870 0.37830 0.02000
C 	C 	0.31300 0.99930 0.36250 -0.56200
H 	H 	0.32430 0.99210 0.38010 0.18100
H 	H 	0.30940 0.03120 0.36550 0.17800
H 	H 	0.31340 0.99880 0.34260 0.18200
C 	C 	0.26237 0.85410 0.38150 -0.03900
H 	H 	0.26870 0.87330 0.39980 0.03600
C 	C 	0.25016 0.81880 0.38120 0.02800
C 	C 	0.24782 0.81200 0.40670 -0.03700
H 	H 	0.25420 0.83040 0.42540 0.03300
C 	C 	0.23618 0.77840 0.40610 -0.11500
H 	H 	0.23440 0.77370 0.42370 0.06400
C 	C 	0.22721 0.75200 0.37800 0.14100
C 	C 	0.23035 0.76060 0.35270 -0.04600
H 	H 	0.22400 0.74300 0.33360 0.03700
C 	C 	0.21008 0.71010 0.39520 -0.07700
H 	H 	0.20630 0.73990 0.40100 0.06400
H 	H 	0.21980 0.69690 0.41440 0.04700
C 	C 	0.09930 0.89230 0.24800 0.02600
C 	C 	0.08450 0.86720 0.22950 -0.02000
H 	H 	0.08420 0.83340 0.23180 0.03600
C 	C 	0.07010 0.89200 0.20720 -0.15900
H 	H 	0.05990 0.87470 0.19480 0.07500
C 	C 	0.07050 0.94120 0.20330 0.18500
C 	C 	0.08490 0.96530 0.22140 -0.16800
H 	H 	0.08540 0.99890 0.21860 0.07400
C 	C 	0.09890 0.94090 0.24450 -0.01700
H 	H 	0.10870 0.95900 0.25840 0.02100
C 	C 	0.05460 0.96910 0.17920 -0.50200
H 	H 	0.04870 0.95070 0.15950 0.15300
H 	H 	0.05790 0.00050 0.17490 0.15500
H 	H 	0.04690 0.97370 0.18810 0.15100
C 	C 	0.11969 0.83260 0.26400 -0.03300
H 	H 	0.11400 0.82180 0.24260 0.04300
C 	C 	0.13412 0.80450 0.28750 0.03700
C 	C 	0.14070 0.76840 0.27800 -0.03800
H 	H 	0.13580 0.76050 0.25620 0.03900
C 	C 	0.15450 0.74290 0.30040 -0.11500
H 	H 	0.15920 0.71710 0.29430 0.06900
C 	C 	0.16113 0.75580 0.33130 0.13800
C 	C 	0.15315 0.79270 0.33920 -0.03800
H 	H 	0.15730 0.79980 0.36100 0.03600
C 	C 	0.18100 0.69120 0.35030 -0.07600
H 	H 	0.18490 0.69810 0.33480 0.07100
H 	H 	0.17210 0.66630 0.34120 0.06700
C 	C 	0.19568 0.67330 0.38120 0.16400
C 	C 	0.18941 0.66500 0.40550 -0.49500
H 	H 	0.19880 0.65280 0.42530 0.15800
H 	H 	0.18020 0.64140 0.39700 0.17200
H 	H 	0.18530 0.69540 0.40950 0.17600
O 	O 	0.15141 0.75040 0.89950 -0.21300
O 	O 	0.11431 0.65320 0.88340 -0.21000
O 	O 	0.10255 0.77060 0.87820 -0.21000
N 	N 	0.22627 0.77580 0.00660 -0.20800
N 	N 	0.19274 0.78260 0.95930 -0.20400
N 	N 	0.08424 0.46140 0.90040 -0.21500
N 	N 	0.10205 0.54310 0.90340 -0.20900
N 	N 	0.05833 0.86000 0.93170 -0.20700
N 	N 	0.07326 0.82710 0.89680 -0.20400
C 	C 	0.24332 0.77230 0.03050 0.01300
C 	C 	0.25100 0.72880 0.04360 0.01900
H 	H 	0.24490 0.69960 0.03580 0.02400
C 	C 	0.26760 0.72780 0.06790 -0.21700
H 	H 	0.27310 0.69780 0.07540 0.10100
C 	C 	0.27610 0.76940 0.08130 0.25000
C 	C 	0.26860 0.81270 0.06790 -0.19600
H 	H 	0.27470 0.84180 0.07620 0.08600
C 	C 	0.25201 0.81420 0.04190 -0.01000
H 	H 	0.24700 0.84410 0.03260 0.00700
C 	C 	0.29360 0.76940 0.11010 -0.62100
H 	H 	0.29810 0.80220 0.11420 0.20000
H 	H 	0.30100 0.74830 0.10620 0.20600
H 	H 	0.29290 0.75770 0.12850 0.19400
C 	C 	0.21921 0.74120 0.98660 -0.03800
H 	H 	0.22600 0.71440 0.98760 0.04800
C 	C 	0.20152 0.74120 0.96270 0.03200
C 	C 	0.19380 0.70110 0.94460 -0.03400
H 	H 	0.20030 0.67330 0.94650 0.03100
C 	C 	0.17680 0.70110 0.92370 -0.13400
H 	H 	0.17120 0.67310 0.91200 0.06900
C 	C 	0.16814 0.74280 0.92050 0.14900
C 	C 	0.17630 0.78230 0.93790 -0.06400
H 	H 	0.17000 0.81100 0.93480 0.04500
C 	C 	0.14076 0.70880 0.88550 -0.08100
H 	H 	0.14260 0.68500 0.90210 0.06500
H 	H 	0.14350 0.69340 0.87010 0.05900
C 	C 	0.07470 0.41960 0.90040 0.01300
C 	C 	0.08260 0.38090 0.91900 -0.01900
H 	H 	0.09460 0.38120 0.93160 0.01100
C 	C 	0.07380 0.34120 0.92020 -0.16900
H 	H 	0.07960 0.31510 0.93380 0.06800
C 	C 	0.05630 0.33940 0.90160 0.19800
C 	C 	0.04860 0.37690 0.88240 -0.17800
H 	H 	0.03660 0.37590 0.86960 0.08100
C 	C 	0.05730 0.41810 0.88020 -0.00900
H 	H 	0.05150 0.44330 0.86570 0.02800
C 	C 	0.04530 0.29910 0.90440 -0.53800
H 	H 	0.05260 0.27620 0.92080 0.16600
H 	H 	0.03910 0.28230 0.88400 0.17100
H 	H 	0.03720 0.31320 0.91000 0.17800
C 	C 	0.08000 0.48430 0.87440 -0.03700
H 	H 	0.07110 0.47240 0.85490 0.03500
C 	C 	0.08878 0.52880 0.87490 0.02800
C 	C 	0.08470 0.55410 0.84770 -0.03500
H 	H 	0.07590 0.54260 0.82810 0.03300
C 	C 	0.09311 0.59610 0.84830 -0.11800
H 	H 	0.09060 0.61310 0.82940 0.06600
C 	C 	0.10548 0.61230 0.87790 0.14500
C 	C 	0.10996 0.58390 0.90470 -0.05600
H 	H 	0.11890 0.59420 0.92450 0.03400
C 	C 	0.11038 0.68350 0.85620 -0.07700
H 	H 	0.09850 0.69470 0.84620 0.06500
H 	H 	0.11210 0.66560 0.84020 0.05000
C 	C 	0.05150 0.87940 0.95070 0.02100
C 	C 	0.06090 0.90140 0.97930 -0.00800
H 	H 	0.07280 0.90400 0.98750 0.03200
C 	C 	0.05380 0.91980 0.99660 -0.16600
H 	H 	0.06060 0.93480 0.01650 0.07700
C 	C 	0.03630 0.91610 0.98420 0.19300
C 	C 	0.02680 0.89330 0.95640 -0.17400
H 	H 	0.01500 0.88880 0.94860 0.07900
C 	C 	0.03450 0.87660 0.93920 -0.01300
H 	H 	0.02760 0.86290 0.91880 0.00900
C 	C 	0.02860 0.93680 0.00390 -0.51500
H 	H 	0.03750 0.95180 0.02320 0.15500
H 	H 	0.02000 0.96100 0.99140 0.15500
H 	H 	0.02330 0.91090 0.00970 0.16000
C 	C 	0.07350 0.84810 0.94550 -0.02600
H 	H 	0.07980 0.85120 0.96790 0.03900
C 	C 	0.08224 0.82970 0.92870 0.03400
C 	C 	0.09861 0.81500 0.94520 -0.03400
H 	H 	0.10470 0.81750 0.96760 0.03700
C 	C 	0.10633 0.79650 0.92890 -0.11800
H 	H 	0.11790 0.78710 0.93990 0.07000
C 	C 	0.09721 0.79180 0.89700 0.13900
C 	C 	0.08017 0.80740 0.88190 -0.04000
H 	H 	0.07350 0.80320 0.85970 0.03300
C 	C 	0.11988 0.75350 0.89360 -0.07600
H 	H 	0.12200 0.73210 0.91150 0.07000
H 	H 	0.12780 0.78100 0.90190 0.06600
C 	C 	0.12250 0.72610 0.86890 0.16100
C 	C 	0.11910 0.75970 0.84030 -0.48200
H 	H 	0.12670 0.78750 0.84800 0.16900
H 	H 	0.10730 0.77090 0.83010 0.16200
H 	H 	0.12100 0.74180 0.82490 0.15900
O 	O 	0.02122 0.62930 0.97490 -0.21000
O 	O 	0.02697 0.68940 0.90340 -0.21000
O 	O 	0.05330 0.59360 0.94140 -0.20300
N 	N 	0.01170 0.69240 0.08890 -0.21100
N 	N 	0.02086 0.65640 0.04640 -0.20500
N 	N 	0.03902 0.84370 0.82370 -0.21300
N 	N 	0.03341 0.78900 0.86500 -0.21400
N 	N 	0.12826 0.53760 0.99060 -0.20100
N 	N 	0.09363 0.54730 0.96190 -0.21000
C 	C 	0.00660 0.70660 0.11110 0.02500
C 	C 	0.00190 0.75270 0.11280 -0.01400
H 	H 	0.00190 0.77600 0.09840 0.02900
C 	C 	0.99710 0.76650 0.13490 -0.17900
H 	H 	0.99430 0.79900 0.13610 0.07600
C 	C 	0.99650 0.73270 0.15500 0.19800
C 	C 	0.00080 0.68620 0.15220 -0.16700
H 	H 	0.00150 0.66320 0.16730 0.07700
C 	C 	0.00440 0.67010 0.12760 -0.04200
H 	H 	0.00520 0.63720 0.12340 0.02100
C 	C 	0.99140 0.74770 0.17950 -0.54600
H 	H 	0.99870 0.73150 0.19960 0.17100
H 	H 	0.97960 0.73860 0.17210 0.16700
H 	H 	0.99260 0.78260 0.18260 0.17000
C 	C 	0.00550 0.71070 0.06090 -0.04200
H 	H 	0.99800 0.73700 0.05560 0.03900
C 	C 	0.00960 0.69290 0.03720 0.03700
C 	C 	0.00160 0.70960 0.00690 -0.03400
H 	H 	0.99320 0.73400 0.00100 0.03000
C 	C 	0.00550 0.69150 0.98510 -0.12300
H 	H 	0.00090 0.70490 0.96440 0.06700
C 	C 	0.01636 0.65360 0.99390 0.14400
C 	C 	0.02460 0.63950 0.02470 -0.05900
H 	H 	0.03340 0.61660 0.03110 0.03900
C 	C 	0.01590 0.64750 0.94330 -0.09300
H 	H 	0.01850 0.68230 0.94400 0.06900
H 	H 	0.00350 0.64290 0.92960 0.05600
C 	C 	0.04360 0.87270 0.80410 0.01200
C 	C 	0.04180 0.92100 0.80410 -0.01500
H 	H 	0.03770 0.93550 0.81680 0.01500
C 	C 	0.04610 0.94910 0.78550 -0.17400
H 	H 	0.04460 0.98300 0.78520 0.08200
C 	C 	0.05250 0.92900 0.76710 0.21500
C 	C 	0.05340 0.88140 0.76570 -0.19000
H 	H 	0.05750 0.86750 0.75270 0.07900
C 	C 	0.04830 0.85110 0.78360 -0.00900
H 	H 	0.04820 0.81710 0.78140 0.02700
C 	C 	0.05760 0.96170 0.74730 -0.55000
H 	H 	0.04750 0.97590 0.72970 0.17400
H 	H 	0.06360 0.94250 0.73890 0.17000
H 	H 	0.06510 0.98740 0.76080 0.18300
C 	C 	0.03210 0.80210 0.81500 -0.04300
H 	H 	0.02850 0.79200 0.79390 0.04300
C 	C 	0.02950 0.76970 0.83600 0.03400
C 	C 	0.02230 0.72550 0.82660 -0.03500
H 	H 	0.01830 0.71510 0.80540 0.03500
C 	C 	0.02060 0.69550 0.84840 -0.12400
H 	H 	0.01560 0.66460 0.84230 0.06800
C 	C 	0.02650 0.71220 0.87870 0.15400
C 	C 	0.03270 0.75950 0.88620 -0.05600
H 	H 	0.03650 0.77100 0.90710 0.04100
C 	C 	0.02200 0.63970 0.89890 -0.08300
H 	H 	0.02840 0.62180 0.89050 0.06700
H 	H 	0.00980 0.63690 0.88350 0.05000
C 	C 	0.14600 0.52710 0.00570 0.00300
C 	C 	0.15432 0.50530 0.03460 0.01500
H 	H 	0.14870 0.50020 0.04660 0.02200
C 	C 	0.17064 0.49080 0.04620 -0.20200
H 	H 	0.17610 0.47460 0.06600 0.08900
C 	C 	0.17949 0.49890 0.02980 0.23900
C 	C 	0.17132 0.52000 0.00120 -0.20900
H 	H 	0.17700 0.52590 0.98940 0.08700
C 	C 	0.15436 0.53330 0.98870 0.00700
H 	H 	0.14850 0.54690 0.96810 0.00600
C 	C 	0.19788 0.48330 0.04410 -0.59000
H 	H 	0.20070 0.46210 0.06220 0.19000
H 	H 	0.20520 0.51170 0.05120 0.17800
H 	H 	0.19950 0.46600 0.02820 0.18600
C 	C 	0.12196 0.56020 0.00420 -0.02600
H 	H 	0.12930 0.57260 0.02470 0.03900
C 	C 	0.10372 0.56880 0.99030 0.03100
C 	C 	0.09734 0.60020 0.00360 -0.03200
H 	H 	0.10460 0.61510 0.02330 0.03600
C 	C 	0.08010 0.61020 0.98820 -0.12200
H 	H 	0.07550 0.63280 0.99670 0.07100
C 	C 	0.07010 0.58700 0.96070 0.14400
C 	C 	0.07763 0.55640 0.94830 -0.04300
H 	H 	0.07050 0.54140 0.92860 0.03500
C 	C 	0.04442 0.62200 0.95410 -0.09600
H 	H 	0.04820 0.65590 0.95680 0.07600
H 	H 	0.04680 0.60920 0.97490 0.07200
C 	C 	0.02563 0.61900 0.93080 0.18700
C 	C 	0.01930 0.56660 0.92390 -0.52900
H 	H 	0.02140 0.55090 0.94370 0.19200
H 	H 	0.02540 0.54920 0.91490 0.18500
H 	H 	0.00720 0.56620 0.90890 0.17500
O 	O 	0.09481 0.69810 0.30870 -0.21000
O 	O 	0.06920 0.61310 0.23200 -0.20700
O 	O 	0.10928 0.57820 0.27820 -0.20400
N 	N 	0.10128 0.92220 0.31760 -0.21300
N 	N 	0.10437 0.82200 0.31920 -0.20400
N 	N 	0.01766 0.56870 0.09160 -0.21800
N 	N 	0.04223 0.60250 0.14950 -0.21700
N 	N 	0.16257 0.50880 0.24100 -0.20800
N 	N 	0.13929 0.52310 0.26100 -0.20900
C 	C 	0.10020 0.97240 0.32150 0.00300
C 	C 	0.08844 0.99250 0.32840 0.01100
H 	H 	0.08050 0.97280 0.33070 0.02500
C 	C 	0.08840 0.04230 0.33180 -0.20600
H 	H 	0.08060 0.05600 0.33740 0.10000
C 	C 	0.09900 0.07210 0.32760 0.23700
C 	C 	0.11070 0.05250 0.32010 -0.19600
H 	H 	0.11810 0.07250 0.31660 0.08600
C 	C 	0.11130 0.00180 0.31790 -0.00800
H 	H 	0.11960 0.98780 0.31380 -0.00100
C 	C 	0.09910 0.12610 0.33220 -0.58800
H 	H 	0.10540 0.13360 0.35490 0.19700
H 	H 	0.08740 0.13760 0.32340 0.19200
H 	H 	0.10450 0.14200 0.32130 0.18200
C 	C 	0.08847 0.89490 0.30800 -0.04300
H 	H 	0.07780 0.90960 0.30080 0.04100
C 	C 	0.08903 0.84240 0.30710 0.03300
C 	C 	0.07476 0.81540 0.29480 -0.03600
H 	H 	0.06410 0.83080 0.28670 0.03200
C 	C 	0.07549 0.76600 0.29380 -0.12200
H 	H 	0.06560 0.74670 0.28460 0.06600
C 	C 	0.09145 0.74640 0.30710 0.14500
C 	C 	0.10525 0.77480 0.31900 -0.05500
H 	H 	0.11610 0.76010 0.32760 0.04500
C 	C 	0.08104 0.66820 0.28740 -0.07600
H 	H 	0.07540 0.68230 0.26590 0.06400
H 	H 	0.07260 0.66510 0.29470 0.05200
C 	C 	0.00440 0.55110 0.06130 0.00800
C 	C 	0.99170 0.58070 0.04130 -0.00600
H 	H 	0.99180 0.61330 0.04710 0.01900
C 	C 	0.97870 0.56470 0.01260 -0.18700
H 	H 	0.96970 0.58590 0.99970 0.08100
C 	C 	0.97860 0.51830 0.00280 0.22400
C 	C 	0.99170 0.48960 0.02140 -0.19500
H 	H 	0.99240 0.45880 0.01360 0.09900
C 	C 	0.00470 0.50330 0.05240 -0.01000
H 	H 	0.01300 0.48110 0.06610 0.02400
C 	C 	0.96490 0.49980 0.97000 -0.57500
H 	H 	0.95520 0.48770 0.97170 0.19200
H 	H 	0.96960 0.47380 0.96300 0.18800
H 	H 	0.96120 0.52620 0.95470 0.18700
C 	C 	0.02150 0.54350 0.11640 -0.04100
H 	H 	0.01600 0.51370 0.11420 0.03700
C 	C 	0.03430 0.55930 0.14780 0.02700
C 	C 	0.03750 0.53300 0.17400 -0.03800
H 	H 	0.03140 0.50410 0.17150 0.03400
C 	C 	0.04950 0.54720 0.20430 -0.11400
H 	H 	0.05210 0.52870 0.22270 0.06400
C 	C 	0.05750 0.59130 0.20560 0.14100
C 	C 	0.05350 0.61750 0.17810 -0.04600
H 	H 	0.05920 0.64720 0.18000 0.03400
C 	C 	0.07424 0.58840 0.26170 -0.07700
H 	H 	0.07820 0.55540 0.26110 0.06400
H 	H 	0.06470 0.58640 0.26610 0.04800
C 	C 	0.17698 0.50240 0.23660 0.01100
C 	C 	0.19030 0.53310 0.24880 0.00200
H 	H 	0.18970 0.56170 0.25890 0.03100
C 	C 	0.20470 0.52350 0.24670 -0.18600
H 	H 	0.21410 0.54490 0.25610 0.08300
C 	C 	0.20560 0.48280 0.23100 0.21900
C 	C 	0.19280 0.45200 0.22080 -0.19600
H 	H 	0.19360 0.42230 0.21180 0.07800
C 	C 	0.17830 0.46170 0.22280 -0.00500
H 	H 	0.16920 0.43940 0.21430 0.00500
C 	C 	0.22130 0.47140 0.22740 -0.57200
H 	H 	0.23150 0.48270 0.24620 0.18200
H 	H 	0.22020 0.48760 0.20850 0.18100
H 	H 	0.22200 0.43660 0.22520 0.18900
C 	C 	0.15670 0.55050 0.23950 -0.03000
H 	H 	0.15990 0.57560 0.23010 0.04100
C 	C 	0.14510 0.56110 0.25170 0.03500
C 	C 	0.13910 0.60670 0.25060 -0.03400
H 	H 	0.14310 0.63250 0.24310 0.03700
C 	C 	0.12730 0.61520 0.26030 -0.12000
H 	H 	0.12350 0.64690 0.26080 0.07100
C 	C 	0.12132 0.57670 0.26920 0.14200
C 	C 	0.12764 0.53120 0.26850 -0.04400
H 	H 	0.12300 0.50440 0.27380 0.03700
C 	C 	0.10275 0.62540 0.27950 -0.08500
H 	H 	0.09850 0.64200 0.25890 0.07300
H 	H 	0.11180 0.64530 0.29610 0.07100
C 	C 	0.08865 0.61830 0.28720 0.16600
C 	C 	0.09400 0.59240 0.31950 -0.50000
H 	H 	0.10180 0.61300 0.33690 0.18200
H 	H 	0.09960 0.56190 0.32010 0.17600
H 	H 	0.08390 0.58610 0.32160 0.16500
O 	O 	0.16749 0.99960 0.30520 -0.20800
O 	O 	0.16677 0.06270 0.22760 -0.21500
O 	O 	0.19801 0.95800 0.28540 -0.20600
N 	N 	0.14337 0.87480 0.38240 -0.21300
N 	N 	0.14790 0.93080 0.34000 -0.21500
N 	N 	0.12545 0.17960 0.10290 -0.21100
N 	N 	0.14622 0.11900 0.15270 -0.20700
N 	N 	0.22759 0.75940 0.27440 -0.20700
N 	N 	0.22050 0.85160 0.28760 -0.20400
C 	C 	0.14029 0.84600 0.40340 0.00500
C 	C 	0.15301 0.82160 0.42860 0.01000
H 	H 	0.16430 0.82400 0.43240 0.02200
C 	C 	0.14942 0.79350 0.44840 -0.20700
H 	H 	0.15830 0.77740 0.46590 0.09100
C 	C 	0.13325 0.78900 0.44300 0.24100
C 	C 	0.12042 0.81240 0.41750 -0.19100
H 	H 	0.10910 0.80890 0.41320 0.08700
C 	C 	0.12405 0.84170 0.39730 -0.01100
H 	H 	0.11520 0.85790 0.37980 0.00400
C 	C 	0.12920 0.75760 0.46400 -0.58600
H 	H 	0.13420 0.72570 0.46600 0.18800
H 	H 	0.11690 0.75450 0.45470 0.18500
H 	H 	0.13380 0.77230 0.48510 0.18800
C 	C 	0.15678 0.89990 0.39210 -0.04700
H 	H 	0.16490 0.89930 0.41400 0.04200
C 	C 	0.16010 0.92920 0.37090 0.03300
C 	C 	0.17528 0.95240 0.38180 -0.03500
H 	H 	0.18360 0.95020 0.40350 0.03600
C 	C 	0.17840 0.97910 0.36110 -0.11900
H 	H 	0.18840 0.99780 0.36830 0.07000
C 	C 	0.16651 0.97740 0.32970 0.14500
C 	C 	0.15140 0.95560 0.32040 -0.05500
H 	H 	0.14290 0.95820 0.29890 0.03800
C 	C 	0.18277 0.02370 0.31160 -0.07700
H 	H 	0.19270 0.00430 0.32600 0.06200
H 	H 	0.18350 0.05530 0.32160 0.04200
C 	C 	0.11496 0.21170 0.07690 0.01500
C 	C 	0.09920 0.22610 0.07060 -0.00300
H 	H 	0.09420 0.21250 0.08220 0.02600
C 	C 	0.09030 0.26000 0.04760 -0.17800
H 	H 	0.08020 0.27380 0.04590 0.07600
C 	C 	0.09620 0.27390 0.02690 0.21400
C 	C 	0.11150 0.25920 0.03270 -0.18400
H 	H 	0.11560 0.26920 0.01890 0.08000
C 	C 	0.12190 0.22890 0.05920 -0.02000
H 	H 	0.13320 0.22110 0.06430 0.01100
C 	C 	0.08520 0.30700 0.99850 -0.57200
H 	H 	0.08290 0.33700 0.00620 0.19300
H 	H 	0.07460 0.29070 0.98430 0.17800
H 	H 	0.09130 0.31410 0.98690 0.18500
C 	C 	0.12390 0.17800 0.12770 -0.03400
H 	H 	0.11540 0.19730 0.12840 0.03900
C 	C 	0.13460 0.14780 0.15540 0.02400
C 	C 	0.13220 0.14500 0.18110 -0.03300
H 	H 	0.12290 0.16120 0.18080 0.03100
C 	C 	0.14310 0.11890 0.20780 -0.13300
H 	H 	0.14250 0.12040 0.22680 0.06600
C 	C 	0.15501 0.09070 0.20530 0.14700
C 	C 	0.15634 0.09310 0.17770 -0.05400
H 	H 	0.16500 0.07500 0.17680 0.04200
C 	C 	0.16654 0.05830 0.25750 -0.08400
H 	H 	0.15620 0.04100 0.25420 0.06600
H 	H 	0.16670 0.09050 0.26630 0.04600
C 	C 	0.23170 0.71550 0.26400 0.02800
C 	C 	0.23070 0.71290 0.23500 -0.01600
H 	H 	0.22680 0.73970 0.22110 0.03500
C 	C 	0.23530 0.67140 0.22600 -0.16200
H 	H 	0.23430 0.66950 0.20550 0.07400
C 	C 	0.24140 0.63210 0.24620 0.18800
C 	C 	0.24170 0.63440 0.27410 -0.16800
H 	H 	0.24510 0.60710 0.28760 0.07300
C 	C 	0.23690 0.67650 0.28350 -0.02100
H 	H 	0.23740 0.67790 0.30350 0.02600
C 	C 	0.24630 0.58500 0.23520 -0.52000
H 	H 	0.25680 0.58990 0.23460 0.16500
H 	H 	0.23720 0.57640 0.21390 0.16000
H 	H 	0.24780 0.55900 0.25000 0.15900
C 	C 	0.21367 0.77850 0.25610 -0.02900
H 	H 	0.20590 0.76160 0.23760 0.04000
C 	C 	0.20894 0.82650 0.26230 0.03300
C 	C 	0.19320 0.84460 0.24440 -0.03500
H 	H 	0.18520 0.82600 0.22710 0.03800
C 	C 	0.18840 0.88950 0.25010 -0.11400
H 	H 	0.17750 0.90270 0.23670 0.06900
C 	C 	0.20030 0.91360 0.27630 0.13900
C 	C 	0.21619 0.89290 0.29390 -0.04200
H 	H 	0.22440 0.91010 0.31180 0.03000
C 	C 	0.18164 0.98070 0.26530 -0.08500
H 	H 	0.17240 0.96100 0.26470 0.07200
H 	H 	0.17970 0.98430 0.24340 0.07000
C 	C 	0.18222 0.03030 0.27980 0.17000
C 	C 	0.19816 0.05770 0.28520 -0.49400
H 	H 	0.19760 0.09080 0.29150 0.15200
H 	H 	0.19880 0.05780 0.26550 0.17600
H 	H 	0.20820 0.04180 0.30190 0.16800
O 	O 	0.13593 0.05800 0.98490 -0.20100
O 	O 	0.09933 0.98930 0.90770 -0.21000
O 	O 	0.14987 0.95850 0.96170 -0.20400
N 	N 	0.16443 0.18030 0.10840 -0.20900
N 	N 	0.14710 0.12200 0.05610 -0.20800
N 	N 	0.02611 0.92310 0.86670 -0.21500
N 	N 	0.05914 0.93690 0.88200 -0.21100
N 	N 	0.19613 0.78140 0.02630 -0.20700
N 	N 	0.17964 0.86330 0.99330 -0.20400
C 	C 	0.17132 0.21430 0.13340 0.01400
C 	C 	0.17050 0.26220 0.12710 0.01000
H 	H 	0.16540 0.27270 0.10570 0.02400
C 	C 	0.17700 0.29620 0.15110 -0.20000
H 	H 	0.17660 0.32940 0.14610 0.09000
C 	C 	0.18400 0.28180 0.18240 0.24900
C 	C 	0.18500 0.23330 0.18850 -0.19600
H 	H 	0.19050 0.22250 0.20980 0.08400
C 	C 	0.17800 0.19880 0.16330 -0.00700
H 	H 	0.17810 0.16550 0.16780 0.01100
C 	C 	0.19100 0.31990 0.20760 -0.62100
H 	H 	0.19590 0.30470 0.22850 0.20200
H 	H 	0.18200 0.34180 0.20500 0.20200
H 	H 	0.19980 0.33800 0.20580 0.19800
C 	C 	0.16660 0.18510 0.08420 -0.04700
H 	H 	0.17400 0.20950 0.08460 0.04600
C 	C 	0.15826 0.15480 0.05630 0.03100
C 	C 	0.16271 0.15660 0.03310 -0.04600
H 	H 	0.17060 0.17990 0.03410 0.03200
C 	C 	0.15564 0.12440 0.00790 -0.12200
H 	H 	0.15880 0.12410 0.99190 0.07100
C 	C 	0.14383 0.09310 0.00750 0.14200
C 	C 	0.14010 0.09240 0.03160 -0.05700
H 	H 	0.13210 0.06950 0.03080 0.04300
C 	C 	0.13905 0.05750 0.95800 -0.09700
H 	H 	0.15110 0.05080 0.96520 0.07200
H 	H 	0.13610 0.08890 0.94700 0.06200
C 	C 	0.00850 0.91450 0.85700 0.01700
C 	C 	0.99980 0.88140 0.83420 -0.01900
H 	H 	0.00520 0.86570 0.82420 0.01600
C 	C 	0.98330 0.86990 0.82520 -0.16800
H 	H 	0.97800 0.84380 0.81110 0.08000
C 	C 	0.97450 0.89610 0.83660 0.19600
C 	C 	0.98280 0.93090 0.85790 -0.17700
H 	H 	0.97660 0.94970 0.86520 0.07100
C 	C 	0.00040 0.94120 0.87020 -0.01400
H 	H 	0.00610 0.96460 0.88630 0.02600
C 	C 	0.95620 0.88260 0.82800 -0.52800
H 	H 	0.95480 0.88560 0.84680 0.16300
H 	H 	0.95400 0.84930 0.82030 0.16600
H 	H 	0.94830 0.90420 0.81140 0.15900
C 	C 	0.03247 0.96520 0.87450 -0.03700
H 	H 	0.02560 0.99060 0.87500 0.03800
C 	C 	0.04998 0.97600 0.88270 0.02900
C 	C 	0.05697 0.02070 0.89290 -0.03600
H 	H 	0.05020 0.04640 0.89330 0.03200
C 	C 	0.07393 0.02830 0.90260 -0.12000
H 	H 	0.07920 0.05820 0.91120 0.06600
C 	C 	0.08296 0.98990 0.89920 0.14600
C 	C 	0.07520 0.94440 0.88970 -0.05300
H 	H 	0.08170 0.91820 0.88870 0.04000
C 	C 	0.10962 0.02940 0.92610 -0.09000
H 	H 	0.10830 0.03450 0.94500 0.07000
H 	H 	0.10610 0.05920 0.91320 0.05800
C 	C 	0.20370 0.73580 0.04100 0.02000
C 	C 	0.19600 0.69290 0.02850 -0.00600
H 	H 	0.18520 0.69270 0.01020 0.03100
C 	C 	0.20360 0.65020 0.04190 -0.17100
H 	H 	0.19800 0.62080 0.03290 0.07800
C 	C 	0.21950 0.64940 0.06850 0.19700
C 	C 	0.22700 0.69120 0.08060 -0.17600
H 	H 	0.23780 0.69130 0.09920 0.07900
C 	C 	0.21950 0.73520 0.06650 -0.01200
H 	H 	0.22550 0.76450 0.07470 0.01800
C 	C 	0.22810 0.60050 0.08310 -0.52100
H 	H 	0.23260 0.60140 0.10610 0.16000
H 	H 	0.23730 0.59470 0.07850 0.16500
H 	H 	0.21970 0.57450 0.07400 0.15600
C 	C 	0.18066 0.78700 0.01820 -0.03300
H 	H 	0.17480 0.76200 0.02210 0.04200
C 	C 	0.17167 0.83120 0.00270 0.03800
C 	C 	0.15615 0.83880 0.99770 -0.04000
H 	H 	0.15100 0.81610 0.00500 0.03900
C 	C 	0.14720 0.88030 0.98160 -0.11700
H 	H 	0.13570 0.88450 0.97600 0.07000
C 	C 	0.15567 0.91430 0.97440 0.14100
C 	C 	0.17214 0.90360 0.98050 -0.04300
H 	H 	0.17800 0.92670 0.97500 0.03500
C 	C 	0.13263 0.96900 0.95290 -0.08000
H 	H 	0.13120 0.97000 0.97200 0.07200
H 	H 	0.12510 0.94370 0.93860 0.06800
C 	C 	0.12793 0.01780 0.93610 0.17900
C 	C 	0.13050 0.01650 0.90650 -0.51600
H 	H 	0.14230 0.00810 0.91310 0.18300
H 	H 	0.12800 0.04810 0.89640 0.16700
H 	H 	0.12300 0.99240 0.89150 0.18900
Cd	Cd	0.70672 0.66431 0.50227 1.18900
Cd	Cd	0.60745 0.00795 0.44595 1.18900
Cd	Cd	0.65402 0.04839 0.76639 1.19000
Cd	Cd	0.74745 0.68805 0.81421 1.19000
Cd	Cd	0.64423 0.37868 0.60242 1.18900
Cd	Cd	0.54602 0.63650 0.37549 1.19200
Cd	Cd	0.53378 0.86298 0.60051 1.19000
Cd	Cd	0.62556 0.62111 0.82716 1.18900
O 	O 	0.72514 0.56300 0.61440 -0.21100
O 	O 	0.73892 0.58460 0.70860 -0.21800
O 	O 	0.70174 0.49750 0.64400 -0.21100
N 	N 	0.71586 0.60430 0.48040 -0.21700
N 	N 	0.71932 0.60410 0.54030 -0.21100
N 	N 	0.76901 0.73950 0.81580 -0.20500
N 	N 	0.75343 0.66370 0.77480 -0.21200
N 	N 	0.62548 0.44380 0.58750 -0.21000
N 	N 	0.66040 0.45040 0.61520 -0.20700
C 	C 	0.71540 0.60660 0.45080 0.02100
C 	C 	0.72950 0.59740 0.44790 -0.00900
H 	H 	0.74000 0.59030 0.46610 0.02600
C 	C 	0.72840 0.59830 0.41830 -0.18200
H 	H 	0.73780 0.58800 0.41620 0.07200
C 	C 	0.71410 0.61360 0.39190 0.21200
C 	C 	0.70020 0.62270 0.39500 -0.18300
H 	H 	0.68990 0.63010 0.37660 0.08100
C 	C 	0.70080 0.62140 0.42490 -0.02000
H 	H 	0.69130 0.63050 0.42690 0.01400
C 	C 	0.71410 0.62410 0.36100 -0.56200
H 	H 	0.71630 0.65830 0.36000 0.17300
H 	H 	0.72280 0.60480 0.35990 0.17200
H 	H 	0.70300 0.61580 0.34320 0.17000
C 	C 	0.72310 0.56870 0.49860 -0.03900
H 	H 	0.72720 0.54300 0.49140 0.04000
C 	C 	0.72510 0.56660 0.53050 0.02900
C 	C 	0.73190 0.52690 0.54900 -0.03100
H 	H 	0.73600 0.50100 0.54170 0.03100
C 	C 	0.73270 0.52450 0.57830 -0.12800
H 	H 	0.73740 0.49720 0.59160 0.06700
C 	C 	0.72670 0.56230 0.58760 0.15200
C 	C 	0.72010 0.60100 0.56860 -0.06300
H 	H 	0.71600 0.62700 0.57560 0.04200
C 	C 	0.73110 0.52120 0.63460 -0.07300
H 	H 	0.72410 0.49280 0.62350 0.05400
H 	H 	0.74300 0.51440 0.64080 0.04600
C 	C 	0.77737 0.77750 0.83810 0.01300
C 	C 	0.78166 0.77050 0.86900 -0.00200
H 	H 	0.78000 0.73960 0.87540 0.01000
C 	C 	0.78830 0.80600 0.89110 -0.19000
H 	H 	0.79110 0.79980 0.91240 0.08500
C 	C 	0.79090 0.85150 0.88220 0.23100
C 	C 	0.78740 0.85870 0.85210 -0.19900
H 	H 	0.78990 0.88910 0.84630 0.09100
C 	C 	0.78010 0.82180 0.82870 0.00400
H 	H 	0.77720 0.82770 0.80720 0.02700
C 	C 	0.79830 0.89320 0.90590 -0.58500
H 	H 	0.80020 0.88270 0.92670 0.19100
H 	H 	0.79040 0.92030 0.89850 0.19400
H 	H 	0.80910 0.90340 0.90750 0.19500
C 	C 	0.77048 0.73570 0.79090 -0.03800
H 	H 	0.77720 0.75850 0.78740 0.04300
C 	C 	0.76214 0.69710 0.76760 0.02900
C 	C 	0.76412 0.69310 0.74180 -0.04200
H 	H 	0.77120 0.71540 0.73890 0.03000
C 	C 	0.75610 0.65720 0.71920 -0.12100
H 	H 	0.75680 0.65590 0.70020 0.06600
C 	C 	0.74710 0.62340 0.72620 0.14000
C 	C 	0.74622 0.62780 0.75430 -0.05800
H 	H 	0.74020 0.60400 0.75900 0.03600
C 	C 	0.73980 0.57850 0.67980 -0.07200
H 	H 	0.73500 0.60690 0.66590 0.06200
H 	H 	0.75170 0.57430 0.68460 0.05100
C 	C 	0.60738 0.44110 0.57430 0.00200
C 	C 	0.59810 0.46920 0.58330 0.01500
H 	H 	0.60360 0.49320 0.59900 0.02300
C 	C 	0.58090 0.46340 0.57010 -0.20200
H 	H 	0.57460 0.48410 0.57610 0.08400
C 	C 	0.57280 0.42780 0.54810 0.23400
C 	C 	0.58160 0.39900 0.53940 -0.20900
H 	H 	0.57610 0.37450 0.52410 0.09200
C 	C 	0.59900 0.40540 0.55310 0.01200
H 	H 	0.60530 0.38400 0.54740 -0.00100
C 	C 	0.55360 0.42160 0.53290 -0.56300
H 	H 	0.55100 0.39830 0.54520 0.17300
H 	H 	0.54840 0.45260 0.53270 0.17000
H 	H 	0.54910 0.40990 0.51120 0.17600
C 	C 	0.63263 0.48420 0.59500 -0.03300
H 	H 	0.62570 0.51200 0.59060 0.04200
C 	C 	0.65094 0.49060 0.61010 0.03300
C 	C 	0.65828 0.53530 0.61650 -0.03300
H 	H 	0.65140 0.56310 0.61270 0.03700
C 	C 	0.67569 0.54040 0.62860 -0.12000
H 	H 	0.68090 0.57120 0.63330 0.07100
C 	C 	0.68488 0.49980 0.63350 0.14200
C 	C 	0.67648 0.45550 0.62680 -0.04300
H 	H 	0.68310 0.42720 0.63120 0.02600
C 	C 	0.71104 0.54250 0.65410 -0.08100
H 	H 	0.70620 0.56620 0.63660 0.07000
H 	H 	0.71020 0.55590 0.67230 0.06900
C 	C 	0.72936 0.53310 0.66360 0.15900
C 	C 	0.73680 0.49060 0.68760 -0.48300
H 	H 	0.73700 0.49930 0.70740 0.16900
H 	H 	0.72980 0.46200 0.67850 0.17000
H 	H 	0.74840 0.48400 0.69180 0.15200
O 	O 	0.59774 0.07610 0.54500 -0.21500
O 	O 	0.60768 0.08720 0.63950 -0.21000
O 	O 	0.57651 0.00650 0.59220 -0.20800
N 	N 	0.62780 0.06630 0.45330 -0.21100
N 	N 	0.61048 0.05980 0.48680 -0.20600
N 	N 	0.63869 0.08990 0.78650 -0.21100
N 	N 	0.63009 0.08290 0.72340 -0.21000
N 	N 	0.55225 0.80090 0.60420 -0.21000
N 	N 	0.55744 0.89750 0.59760 -0.20500
C 	C 	0.63669 0.06560 0.43620 0.00500
C 	C 	0.65381 0.07200 0.44990 0.01300
H 	H 	0.66020 0.07840 0.47190 0.02200
C 	C 	0.66200 0.06920 0.43190 -0.22200
H 	H 	0.67370 0.07650 0.44130 0.08800
C 	C 	0.65320 0.05600 0.40080 0.25600
C 	C 	0.63600 0.05110 0.38660 -0.20700
H 	H 	0.62950 0.04600 0.36440 0.09400
C 	C 	0.62760 0.05370 0.40510 -0.01000
H 	H 	0.61580 0.04710 0.39580 0.00000
C 	C 	0.66170 0.04700 0.38110 -0.63300
H 	H 	0.67400 0.04950 0.39450 0.20300
H 	H 	0.65890 0.01470 0.37190 0.20800
H 	H 	0.65790 0.07090 0.36410 0.20900
C 	C 	0.63188 0.09380 0.47750 -0.04100
H 	H 	0.64050 0.11720 0.48280 0.03800
C 	C 	0.62377 0.09030 0.49700 0.03100
C 	C 	0.62914 0.11830 0.52350 -0.03400
H 	H 	0.63830 0.14020 0.52970 0.03100
C 	C 	0.62098 0.11370 0.54090 -0.12900
H 	H 	0.62460 0.13190 0.55970 0.07400
C 	C 	0.60767 0.08300 0.53100 0.14400
C 	C 	0.60251 0.05730 0.50380 -0.06100
H 	H 	0.59290 0.03690 0.49680 0.04300
C 	C 	0.60188 0.09690 0.57520 -0.07400
H 	H 	0.61330 0.08660 0.59160 0.06200
H 	H 	0.60170 0.13240 0.57390 0.05400
C 	C 	0.64361 0.08840 0.81930 0.01200
C 	C 	0.66002 0.09520 0.84160 -0.01900
H 	H 	0.66800 0.10310 0.83500 0.01400
C 	C 	0.66540 0.09100 0.87340 -0.17800
H 	H 	0.67690 0.09620 0.88850 0.07800
C 	C 	0.65390 0.07920 0.88340 0.19600
C 	C 	0.63750 0.07290 0.86140 -0.17900
H 	H 	0.62960 0.06500 0.86830 0.09000
C 	C 	0.63161 0.07750 0.82840 -0.01200
H 	H 	0.62000 0.07340 0.81320 0.03000
C 	C 	0.65870 0.07360 0.91890 -0.53800
H 	H 	0.66820 0.09500 0.93190 0.17300
H 	H 	0.64890 0.08200 0.92150 0.17800
H 	H 	0.66200 0.04020 0.92560 0.17500
C 	C 	0.62470 0.10750 0.76500 -0.04400
H 	H 	0.61740 0.12230 0.77130 0.04100
C 	C 	0.61948 0.10580 0.73120 0.03800
C 	C 	0.60410 0.12190 0.70890 -0.04000
H 	H 	0.59650 0.13520 0.71520 0.03500
C 	C 	0.59930 0.11900 0.67680 -0.11600
H 	H 	0.58880 0.13160 0.66100 0.06400
C 	C 	0.61048 0.09680 0.66870 0.14900
C 	C 	0.62579 0.07940 0.69290 -0.05600
H 	H 	0.63340 0.06440 0.68750 0.03700
C 	C 	0.59125 0.10170 0.61420 -0.07200
H 	H 	0.58230 0.09130 0.61900 0.06000
H 	H 	0.59080 0.13720 0.61210 0.04800
C 	C 	0.54760 0.75110 0.60300 0.00700
C 	C 	0.54650 0.72180 0.57940 0.01000
H 	H 	0.54880 0.73440 0.56360 0.02700
C 	C 	0.54220 0.67470 0.57830 -0.19000
H 	H 	0.54230 0.65430 0.56270 0.08300
C 	C 	0.53760 0.65630 0.59920 0.21400
C 	C 	0.53850 0.68450 0.62220 -0.18900
H 	H 	0.53500 0.67240 0.63660 0.08300
C 	C 	0.54440 0.73190 0.62540 -0.00400
H 	H 	0.54610 0.75060 0.64320 0.01400
C 	C 	0.53140 0.60340 0.59490 -0.53700
H 	H 	0.53440 0.58960 0.61560 0.16200
H 	H 	0.51910 0.60250 0.58140 0.16500
H 	H 	0.53680 0.58470 0.58510 0.16300
C 	C 	0.56400 0.81250 0.59870 -0.03000
H 	H 	0.57040 0.78810 0.59550 0.04000
C 	C 	0.56800 0.86390 0.59720 0.03400
C 	C 	0.58050 0.87520 0.59020 -0.03900
H 	H 	0.58640 0.85050 0.58610 0.03800
C 	C 	0.58462 0.92370 0.58930 -0.11600
H 	H 	0.59390 0.93240 0.58630 0.06800
C 	C 	0.57489 0.95780 0.59280 0.13400
C 	C 	0.56138 0.94220 0.59750 -0.04300
H 	H 	0.55480 0.96590 0.60060 0.03200
C 	C 	0.58984 0.02370 0.58610 -0.07400
H 	H 	0.60110 0.01440 0.60370 0.06800
H 	H 	0.58850 0.00960 0.56630 0.06400
C 	C 	0.58835 0.07870 0.58330 0.15400
C 	C 	0.57021 0.09320 0.55720 -0.47400
H 	H 	0.56980 0.12800 0.55370 0.15400
H 	H 	0.56750 0.07640 0.53740 0.16800
H 	H 	0.56200 0.08430 0.56400 0.16100
O 	O 	0.68824 0.90440 0.85760 -0.21600
O 	O 	0.71479 0.78010 0.87120 -0.20700
O 	O 	0.67436 0.76570 0.85670 -0.20300
N 	N 	0.67750 0.09860 0.78410 -0.21600
N 	N 	0.67640 0.01200 0.81210 -0.20000
N 	N 	0.76456 0.64080 0.85740 -0.22000
N 	N 	0.74158 0.70800 0.85410 -0.21600
N 	N 	0.61467 0.62960 0.77110 -0.20400
N 	N 	0.64049 0.68280 0.81830 -0.20900
C 	C 	0.67720 0.14740 0.77560 0.01400
C 	C 	0.66420 0.16470 0.74740 -0.01600
H 	H 	0.65610 0.14290 0.73280 0.00300
C 	C 	0.66290 0.21360 0.74010 -0.19000
H 	H 	0.65380 0.22500 0.72080 0.08800
C 	C 	0.67470 0.24530 0.76090 0.22100
C 	C 	0.68840 0.22750 0.78770 -0.19000
H 	H 	0.69680 0.24900 0.80200 0.07500
C 	C 	0.69010 0.17730 0.79430 -0.01000
H 	H 	0.70010 0.16480 0.81150 0.02500
C 	C 	0.67450 0.29820 0.75320 -0.57700
H 	H 	0.67230 0.31730 0.76790 0.18000
H 	H 	0.68540 0.30730 0.75520 0.18100
H 	H 	0.66550 0.30410 0.73140 0.19100
C 	C 	0.69090 0.07710 0.80390 -0.04300
H 	H 	0.70140 0.09260 0.81010 0.04200
C 	C 	0.69127 0.03060 0.81780 0.03100
C 	C 	0.70600 0.00490 0.83370 -0.03200
H 	H 	0.71640 0.01710 0.83600 0.03300
C 	C 	0.70540 0.96120 0.84610 -0.12200
H 	H 	0.71530 0.94190 0.85640 0.06700
C 	C 	0.69059 0.94540 0.84380 0.14200
C 	C 	0.67631 0.96970 0.82500 -0.06100
H 	H 	0.66580 0.95620 0.82070 0.04400
C 	C 	0.70244 0.87300 0.87420 -0.07900
H 	H 	0.70780 0.86590 0.86110 0.06400
H 	H 	0.71090 0.88820 0.89420 0.05000
C 	C 	0.77684 0.60520 0.85880 0.00800
C 	C 	0.78730 0.61650 0.84700 -0.01200
H 	H 	0.78620 0.64690 0.83730 0.01200
C 	C 	0.79940 0.58460 0.84880 -0.18700
H 	H 	0.80700 0.59380 0.84160 0.08000
C 	C 	0.80030 0.53890 0.86120 0.21100
C 	C 	0.78890 0.52670 0.87010 -0.19500
H 	H 	0.78870 0.49440 0.87640 0.07700
C 	C 	0.77690 0.55990 0.87050 -0.01300
H 	H 	0.76940 0.55130 0.87830 0.02000
C 	C 	0.81300 0.50070 0.86250 -0.56200
H 	H 	0.82430 0.50790 0.88010 0.18100
H 	H 	0.80940 0.46880 0.86550 0.17800
H 	H 	0.81340 0.50120 0.84260 0.18200
C 	C 	0.76237 0.64590 0.88150 -0.03900
H 	H 	0.76870 0.62670 0.89980 0.03600
C 	C 	0.75016 0.68120 0.88120 0.02800
C 	C 	0.74782 0.68800 0.90670 -0.03700
H 	H 	0.75420 0.66960 0.92540 0.03300
C 	C 	0.73618 0.72160 0.90610 -0.11500
H 	H 	0.73440 0.72630 0.92370 0.06400
C 	C 	0.72721 0.74800 0.87800 0.14100
C 	C 	0.73035 0.73940 0.85270 -0.04600
H 	H 	0.72400 0.75700 0.83360 0.03700
C 	C 	0.71008 0.78990 0.89520 -0.07700
H 	H 	0.70630 0.76010 0.90100 0.06400
H 	H 	0.71980 0.80310 0.91440 0.04700
C 	C 	0.59930 0.60770 0.74800 0.02600
C 	C 	0.58450 0.63280 0.72950 -0.02000
H 	H 	0.58420 0.66660 0.73180 0.03600
C 	C 	0.57010 0.60800 0.70720 -0.15900
H 	H 	0.55990 0.62530 0.69480 0.07500
C 	C 	0.57050 0.55880 0.70330 0.18500
C 	C 	0.58490 0.53470 0.72140 -0.16800
H 	H 	0.58540 0.50110 0.71860 0.07400
C 	C 	0.59890 0.55910 0.74450 -0.01700
H 	H 	0.60870 0.54100 0.75840 0.02100
C 	C 	0.55460 0.53090 0.67920 -0.50200
H 	H 	0.54870 0.54930 0.65950 0.15300
H 	H 	0.55790 0.49950 0.67490 0.15500
H 	H 	0.54690 0.52630 0.68810 0.15100
C 	C 	0.61969 0.66740 0.76400 -0.03300
H 	H 	0.61400 0.67820 0.74260 0.04300
C 	C 	0.63412 0.69550 0.78750 0.03700
C 	C 	0.64070 0.73160 0.77800 -0.03800
H 	H 	0.63580 0.73950 0.75620 0.03900
C 	C 	0.65450 0.75710 0.80040 -0.11500
H 	H 	0.65920 0.78290 0.79430 0.06900
C 	C 	0.66113 0.74420 0.83130 0.13800
C 	C 	0.65315 0.70730 0.83920 -0.03800
H 	H 	0.65730 0.70020 0.86100 0.03600
C 	C 	0.68100 0.80880 0.85030 -0.07600
H 	H 	0.68490 0.80190 0.83480 0.07100
H 	H 	0.67210 0.83370 0.84120 0.06700
C 	C 	0.69568 0.82670 0.88120 0.16400
C 	C 	0.68941 0.83500 0.90550 -0.49500
H 	H 	0.69880 0.84720 0.92530 0.15800
H 	H 	0.68020 0.85860 0.89700 0.17200
H 	H 	0.68530 0.80460 0.90950 0.17600
O 	O 	0.65141 0.74960 0.39950 -0.21300
O 	O 	0.61431 0.84680 0.38340 -0.21000
O 	O 	0.60255 0.72940 0.37820 -0.21000
N 	N 	0.72627 0.72420 0.50660 -0.20800
N 	N 	0.69274 0.71740 0.45930 -0.20400
N 	N 	0.58424 0.03860 0.40040 -0.21500
N 	N 	0.60205 0.95690 0.40340 -0.20900
N 	N 	0.55833 0.64000 0.43170 -0.20700
N 	N 	0.57326 0.67290 0.39680 -0.20400
C 	C 	0.74332 0.72770 0.53050 0.01300
C 	C 	0.75100 0.77120 0.54360 0.01900
H 	H 	0.74490 0.80040 0.53580 0.02400
C 	C 	0.76760 0.77220 0.56790 -0.21700
H 	H 	0.77310 0.80220 0.57540 0.10100
C 	C 	0.77610 0.73060 0.58130 0.25000
C 	C 	0.76860 0.68730 0.56790 -0.19600
H 	H 	0.77470 0.65820 0.57620 0.08600
C 	C 	0.75201 0.68580 0.54190 -0.01000
H 	H 	0.74700 0.65590 0.53260 0.00700
C 	C 	0.79360 0.73060 0.61010 -0.62100
H 	H 	0.79810 0.69780 0.61420 0.20000
H 	H 	0.80100 0.75170 0.60620 0.20600
H 	H 	0.79290 0.74230 0.62850 0.19400
C 	C 	0.71921 0.75880 0.48660 -0.03800
H 	H 	0.72600 0.78560 0.48760 0.04800
C 	C 	0.70152 0.75880 0.46270 0.03200
C 	C 	0.69380 0.79890 0.44460 -0.03400
H 	H 	0.70030 0.82670 0.44650 0.03100
C 	C 	0.67680 0.79890 0.42370 -0.13400
H 	H 	0.67120 0.82690 0.41200 0.06900
C 	C 	0.66814 0.75720 0.42050 0.14900
C 	C 	0.67630 0.71770 0.43790 -0.06400
H 	H 	0.67000 0.68900 0.43480 0.04500
C 	C 	0.64076 0.79120 0.38550 -0.08100
H 	H 	0.64260 0.81500 0.40210 0.06500
H 	H 	0.64350 0.80660 0.37010 0.05900
C 	C 	0.57470 0.08040 0.40040 0.01300
C 	C 	0.58260 0.11910 0.41900 -0.01900
H 	H 	0.59460 0.11880 0.43160 0.01100
C 	C 	0.57380 0.15880 0.42020 -0.16900
H 	H 	0.57960 0.18490 0.43380 0.06800
C 	C 	0.55630 0.16060 0.40160 0.19800
C 	C 	0.54860 0.12310 0.38240 -0.17800
H 	H 	0.53660 0.12410 0.36960 0.08100
C 	C 	0.55730 0.08190 0.38020 -0.00900
H 	H 	0.55150 0.05670 0.36570 0.02800
C 	C 	0.54530 0.20090 0.40440 -0.53800
H 	H 	0.55260 0.22380 0.42080 0.16600
H 	H 	0.53910 0.21770 0.38400 0.17100
H 	H 	0.53720 0.18680 0.41000 0.17800
C 	C 	0.58000 0.01570 0.37440 -0.03700
H 	H 	0.57110 0.02760 0.35490 0.03500
C 	C 	0.58878 0.97120 0.37490 0.02800
C 	C 	0.58470 0.94590 0.34770 -0.03500
H 	H 	0.57590 0.95740 0.32810 0.03300
C 	C 	0.59311 0.90390 0.34830 -0.11800
H 	H 	0.59060 0.88690 0.32940 0.06600
C 	C 	0.60548 0.88770 0.37790 0.14500
C 	C 	0.60996 0.91610 0.40470 -0.05600
H 	H 	0.61890 0.90580 0.42450 0.03400
C 	C 	0.61038 0.81650 0.35620 -0.07700
H 	H 	0.59850 0.80530 0.34620 0.06500
H 	H 	0.61210 0.83440 0.34020 0.05000
C 	C 	0.55150 0.62060 0.45070 0.02100
C 	C 	0.56090 0.59860 0.47930 -0.00800
H 	H 	0.57280 0.59600 0.48750 0.03200
C 	C 	0.55380 0.58020 0.49660 -0.16600
H 	H 	0.56060 0.56520 0.51650 0.07700
C 	C 	0.53630 0.58390 0.48420 0.19300
C 	C 	0.52680 0.60670 0.45640 -0.17400
H 	H 	0.51500 0.61120 0.44860 0.07900
C 	C 	0.53450 0.62340 0.43920 -0.01300
H 	H 	0.52760 0.63710 0.41880 0.00900
C 	C 	0.52860 0.56320 0.50390 -0.51500
H 	H 	0.53750 0.54820 0.52320 0.15500
H 	H 	0.52000 0.53900 0.49140 0.15500
H 	H 	0.52330 0.58910 0.50970 0.16000
C 	C 	0.57350 0.65190 0.44550 -0.02600
H 	H 	0.57980 0.64880 0.46790 0.03900
C 	C 	0.58224 0.67030 0.42870 0.03400
C 	C 	0.59861 0.68500 0.44520 -0.03400
H 	H 	0.60470 0.68250 0.46760 0.03700
C 	C 	0.60633 0.70350 0.42890 -0.11800
H 	H 	0.61790 0.71290 0.43990 0.07000
C 	C 	0.59721 0.70820 0.39700 0.13900
C 	C 	0.58017 0.69260 0.38190 -0.04000
H 	H 	0.57350 0.69680 0.35970 0.03300
C 	C 	0.61988 0.74650 0.39360 -0.07600
H 	H 	0.62200 0.76790 0.41150 0.07000
H 	H 	0.62780 0.71900 0.40190 0.06600
C 	C 	0.62250 0.77390 0.36890 0.16100
C 	C 	0.61910 0.74030 0.34030 -0.48200
H 	H 	0.62670 0.71250 0.34800 0.16900
H 	H 	0.60730 0.72910 0.33010 0.16200
H 	H 	0.62100 0.75820 0.32490 0.15900
O 	O 	0.52122 0.87070 0.47490 -0.21000
O 	O 	0.52697 0.81060 0.40340 -0.21000
O 	O 	0.55330 0.90640 0.44140 -0.20300
N 	N 	0.51170 0.80760 0.58890 -0.21100
N 	N 	0.52086 0.84360 0.54640 -0.20500
N 	N 	0.53902 0.65630 0.32370 -0.21300
N 	N 	0.53341 0.71100 0.36500 -0.21400
N 	N 	0.62826 0.96240 0.49060 -0.20100
N 	N 	0.59363 0.95270 0.46190 -0.21000
C 	C 	0.50660 0.79340 0.61110 0.02500
C 	C 	0.50190 0.74730 0.61280 -0.01400
H 	H 	0.50190 0.72400 0.59840 0.02900
C 	C 	0.49710 0.73350 0.63490 -0.17900
H 	H 	0.49430 0.70100 0.63610 0.07600
C 	C 	0.49650 0.76730 0.65500 0.19800
C 	C 	0.50080 0.81380 0.65220 -0.16700
H 	H 	0.50150 0.83680 0.66730 0.07700
C 	C 	0.50440 0.82990 0.62760 -0.04200
H 	H 	0.50520 0.86280 0.62340 0.02100
C 	C 	0.49140 0.75230 0.67950 -0.54600
H 	H 	0.49870 0.76850 0.69960 0.17100
H 	H 	0.47960 0.76140 0.67210 0.16700
H 	H 	0.49260 0.71740 0.68260 0.17000
C 	C 	0.50550 0.78930 0.56090 -0.04200
H 	H 	0.49800 0.76300 0.55560 0.03900
C 	C 	0.50960 0.80710 0.53720 0.03700
C 	C 	0.50160 0.79040 0.50690 -0.03400
H 	H 	0.49320 0.76600 0.50100 0.03000
C 	C 	0.50550 0.80850 0.48510 -0.12300
H 	H 	0.50090 0.79510 0.46440 0.06700
C 	C 	0.51636 0.84640 0.49390 0.14400
C 	C 	0.52460 0.86050 0.52470 -0.05900
H 	H 	0.53340 0.88340 0.53110 0.03900
C 	C 	0.51590 0.85250 0.44330 -0.09300
H 	H 	0.51850 0.81770 0.44400 0.06900
H 	H 	0.50350 0.85710 0.42960 0.05600
C 	C 	0.54360 0.62730 0.30410 0.01200
C 	C 	0.54180 0.57900 0.30410 -0.01500
H 	H 	0.53770 0.56450 0.31680 0.01500
C 	C 	0.54610 0.55090 0.28550 -0.17400
H 	H 	0.54460 0.51700 0.28520 0.08200
C 	C 	0.55250 0.57100 0.26710 0.21500
C 	C 	0.55340 0.61860 0.26570 -0.19000
H 	H 	0.55750 0.63250 0.25270 0.07900
C 	C 	0.54830 0.64890 0.28360 -0.00900
H 	H 	0.54820 0.68290 0.28140 0.02700
C 	C 	0.55760 0.53830 0.24730 -0.55000
H 	H 	0.54750 0.52410 0.22970 0.17400
H 	H 	0.56360 0.55750 0.23890 0.17000
H 	H 	0.56510 0.51260 0.26080 0.18300
C 	C 	0.53210 0.69790 0.31500 -0.04300
H 	H 	0.52850 0.70800 0.29390 0.04300
C 	C 	0.52950 0.73030 0.33600 0.03400
C 	C 	0.52230 0.77450 0.32660 -0.03500
H 	H 	0.51830 0.78490 0.30540 0.03500
C 	C 	0.52060 0.80450 0.34840 -0.12400
H 	H 	0.51560 0.83540 0.34230 0.06800
C 	C 	0.52650 0.78780 0.37870 0.15400
C 	C 	0.53270 0.74050 0.38620 -0.05600
H 	H 	0.53650 0.72900 0.40710 0.04100
C 	C 	0.52200 0.86030 0.39890 -0.08300
H 	H 	0.52840 0.87820 0.39050 0.06700
H 	H 	0.50980 0.86310 0.38350 0.05000
C 	C 	0.64600 0.97290 0.50570 0.00300
C 	C 	0.65432 0.99470 0.53460 0.01500
H 	H 	0.64870 0.99980 0.54660 0.02200
C 	C 	0.67064 0.00920 0.54620 -0.20200
H 	H 	0.67610 0.02540 0.56600 0.08900
C 	C 	0.67949 0.00110 0.52980 0.23900
C 	C 	0.67132 0.98000 0.50120 -0.20900
H 	H 	0.67700 0.97410 0.48940 0.08700
C 	C 	0.65436 0.96670 0.48870 0.00700
H 	H 	0.64850 0.95310 0.46810 0.00600
C 	C 	0.69788 0.01670 0.54410 -0.59000
H 	H 	0.70070 0.03790 0.56220 0.19000
H 	H 	0.70520 0.98830 0.55120 0.17800
H 	H 	0.69950 0.03400 0.52820 0.18600
C 	C 	0.62196 0.93980 0.50420 -0.02600
H 	H 	0.62930 0.92740 0.52470 0.03900
C 	C 	0.60372 0.93120 0.49030 0.03100
C 	C 	0.59734 0.89980 0.50360 -0.03200
H 	H 	0.60460 0.88490 0.52330 0.03600
C 	C 	0.58010 0.88980 0.48820 -0.12200
H 	H 	0.57550 0.86720 0.49670 0.07100
C 	C 	0.57010 0.91300 0.46070 0.14400
C 	C 	0.57763 0.94360 0.44830 -0.04300
H 	H 	0.57050 0.95860 0.42860 0.03500
C 	C 	0.54442 0.87800 0.45410 -0.09600
H 	H 	0.54820 0.84410 0.45680 0.07600
H 	H 	0.54680 0.89080 0.47490 0.07200
C 	C 	0.52563 0.88100 0.43080 0.18700
C 	C 	0.51930 0.93340 0.42390 -0.52900
H 	H 	0.52140 0.94910 0.44370 0.19200
H 	H 	0.52540 0.95080 0.41490 0.18500
H 	H 	0.50720 0.93380 0.40890 0.17500
O 	O 	0.59481 0.80190 0.80870 -0.21000
O 	O 	0.56920 0.88690 0.73200 -0.20700
O 	O 	0.60928 0.92180 0.77820 -0.20400
N 	N 	0.60128 0.57780 0.81760 -0.21300
N 	N 	0.60437 0.67800 0.81920 -0.20400
N 	N 	0.51766 0.93130 0.59160 -0.21800
N 	N 	0.54223 0.89750 0.64950 -0.21700
N 	N 	0.66257 0.99120 0.74100 -0.20800
N 	N 	0.63929 0.97690 0.76100 -0.20900
C 	C 	0.60020 0.52760 0.82150 0.00300
C 	C 	0.58844 0.50750 0.82840 0.01100
H 	H 	0.58050 0.52720 0.83070 0.02500
C 	C 	0.58840 0.45770 0.83180 -0.20500
H 	H 	0.58060 0.44400 0.83740 0.10000
C 	C 	0.59900 0.42790 0.82760 0.23700
C 	C 	0.61070 0.44750 0.82010 -0.19600
H 	H 	0.61810 0.42750 0.81660 0.08600
C 	C 	0.61130 0.49820 0.81790 -0.00800
H 	H 	0.61960 0.51220 0.81380 -0.00100
C 	C 	0.59910 0.37390 0.83220 -0.58800
H 	H 	0.60540 0.36640 0.85490 0.19700
H 	H 	0.58740 0.36240 0.82340 0.19200
H 	H 	0.60450 0.35800 0.82130 0.18200
C 	C 	0.58847 0.60510 0.80800 -0.04300
H 	H 	0.57780 0.59040 0.80080 0.04100
C 	C 	0.58903 0.65760 0.80710 0.03300
C 	C 	0.57476 0.68460 0.79480 -0.03600
H 	H 	0.56410 0.66920 0.78670 0.03200
C 	C 	0.57549 0.73400 0.79380 -0.12200
H 	H 	0.56560 0.75330 0.78460 0.06600
C 	C 	0.59145 0.75360 0.80710 0.14500
C 	C 	0.60525 0.72520 0.81900 -0.05500
H 	H 	0.61610 0.73990 0.82760 0.04500
C 	C 	0.58104 0.83180 0.78740 -0.07600
H 	H 	0.57540 0.81770 0.76590 0.06400
H 	H 	0.57260 0.83490 0.79470 0.05200
C 	C 	0.50440 0.94890 0.56130 0.00800
C 	C 	0.49170 0.91930 0.54130 -0.00600
H 	H 	0.49180 0.88670 0.54710 0.01900
C 	C 	0.47870 0.93530 0.51260 -0.18700
H 	H 	0.46970 0.91410 0.49970 0.08100
C 	C 	0.47860 0.98170 0.50280 0.22400
C 	C 	0.49170 0.01040 0.52140 -0.19500
H 	H 	0.49240 0.04120 0.51360 0.09900
C 	C 	0.50470 0.99670 0.55240 -0.01000
H 	H 	0.51300 0.01890 0.56610 0.02400
C 	C 	0.46490 0.00020 0.47000 -0.57500
H 	H 	0.45520 0.01230 0.47170 0.19200
H 	H 	0.46960 0.02620 0.46300 0.18800
H 	H 	0.46120 0.97380 0.45470 0.18700
C 	C 	0.52150 0.95650 0.61640 -0.04100
H 	H 	0.51600 0.98630 0.61420 0.03700
C 	C 	0.53430 0.94070 0.64780 0.02700
C 	C 	0.53750 0.96700 0.67400 -0.03800
H 	H 	0.53140 0.99590 0.67150 0.03400
C 	C 	0.54950 0.95280 0.70430 -0.11400
H 	H 	0.55210 0.97130 0.72270 0.06400
C 	C 	0.55750 0.90870 0.70560 0.14100
C 	C 	0.55350 0.88250 0.67810 -0.04600
H 	H 	0.55920 0.85280 0.68000 0.03400
C 	C 	0.57424 0.91160 0.76170 -0.07700
H 	H 	0.57820 0.94460 0.76110 0.06400
H 	H 	0.56470 0.91360 0.76610 0.04800
C 	C 	0.67698 0.99760 0.73660 0.01100
C 	C 	0.69030 0.96690 0.74880 0.00200
H 	H 	0.68970 0.93830 0.75890 0.03100
C 	C 	0.70470 0.97650 0.74670 -0.18600
H 	H 	0.71410 0.95510 0.75610 0.08300
C 	C 	0.70560 0.01720 0.73100 0.21900
C 	C 	0.69280 0.04800 0.72080 -0.19600
H 	H 	0.69360 0.07770 0.71180 0.07800
C 	C 	0.67830 0.03830 0.72280 -0.00500
H 	H 	0.66920 0.06060 0.71430 0.00500
C 	C 	0.72130 0.02860 0.72740 -0.57200
H 	H 	0.73150 0.01730 0.74620 0.18200
H 	H 	0.72020 0.01240 0.70850 0.18100
H 	H 	0.72200 0.06340 0.72520 0.18900
C 	C 	0.65670 0.94950 0.73950 -0.03000
H 	H 	0.65990 0.92440 0.73010 0.04100
C 	C 	0.64510 0.93890 0.75170 0.03500
C 	C 	0.63910 0.89330 0.75060 -0.03400
H 	H 	0.64310 0.86750 0.74310 0.03700
C 	C 	0.62730 0.88480 0.76030 -0.12000
H 	H 	0.62350 0.85310 0.76080 0.07100
C 	C 	0.62132 0.92330 0.76920 0.14200
C 	C 	0.62764 0.96880 0.76850 -0.04400
H 	H 	0.62300 0.99560 0.77380 0.03700
C 	C 	0.60275 0.87460 0.77950 -0.08500
H 	H 	0.59850 0.85800 0.75890 0.07300
H 	H 	0.61180 0.85470 0.79610 0.07100
C 	C 	0.58865 0.88170 0.78720 0.16600
C 	C 	0.59400 0.90760 0.81950 -0.50000
H 	H 	0.60180 0.88700 0.83690 0.18200
H 	H 	0.59960 0.93810 0.82010 0.17600
H 	H 	0.58390 0.91390 0.82160 0.16500
O 	O 	0.66749 0.50040 0.80520 -0.20800
O 	O 	0.66677 0.43730 0.72760 -0.21500
O 	O 	0.69801 0.54200 0.78540 -0.20600
N 	N 	0.64337 0.62520 0.88240 -0.21300
N 	N 	0.64790 0.56920 0.84000 -0.21500
N 	N 	0.62545 0.32040 0.60290 -0.21100
N 	N 	0.64622 0.38100 0.65270 -0.20700
N 	N 	0.72759 0.74060 0.77440 -0.20700
N 	N 	0.72050 0.64840 0.78760 -0.20400
C 	C 	0.64029 0.65400 0.90340 0.00500
C 	C 	0.65301 0.67840 0.92860 0.01000
H 	H 	0.66430 0.67600 0.93240 0.02200
C 	C 	0.64942 0.70650 0.94840 -0.20700
H 	H 	0.65830 0.72260 0.96590 0.09100
C 	C 	0.63325 0.71100 0.94300 0.24100
C 	C 	0.62042 0.68760 0.91750 -0.19100
H 	H 	0.60910 0.69110 0.91320 0.08700
C 	C 	0.62405 0.65830 0.89730 -0.01100
H 	H 	0.61520 0.64210 0.87980 0.00400
C 	C 	0.62920 0.74240 0.96400 -0.58600
H 	H 	0.63420 0.77430 0.96600 0.18800
H 	H 	0.61690 0.74550 0.95470 0.18500
H 	H 	0.63380 0.72770 0.98510 0.18800
C 	C 	0.65678 0.60010 0.89210 -0.04700
H 	H 	0.66490 0.60070 0.91400 0.04200
C 	C 	0.66010 0.57080 0.87090 0.03300
C 	C 	0.67528 0.54760 0.88180 -0.03500
H 	H 	0.68360 0.54980 0.90350 0.03600
C 	C 	0.67840 0.52090 0.86110 -0.11900
H 	H 	0.68840 0.50220 0.86830 0.07000
C 	C 	0.66651 0.52260 0.82970 0.14500
C 	C 	0.65140 0.54440 0.82040 -0.05500
H 	H 	0.64290 0.54180 0.79890 0.03800
C 	C 	0.68277 0.47630 0.81160 -0.07700
H 	H 	0.69270 0.49570 0.82600 0.06200
H 	H 	0.68350 0.44470 0.82160 0.04200
C 	C 	0.61496 0.28830 0.57690 0.01500
C 	C 	0.59920 0.27390 0.57060 -0.00300
H 	H 	0.59420 0.28750 0.58220 0.02600
C 	C 	0.59030 0.24000 0.54760 -0.17800
H 	H 	0.58020 0.22620 0.54590 0.07600
C 	C 	0.59620 0.22610 0.52690 0.21400
C 	C 	0.61150 0.24080 0.53270 -0.18400
H 	H 	0.61560 0.23080 0.51890 0.08000
C 	C 	0.62190 0.27110 0.55920 -0.02000
H 	H 	0.63320 0.27890 0.56430 0.01100
C 	C 	0.58520 0.19300 0.49850 -0.57200
H 	H 	0.58290 0.16300 0.50620 0.19300
H 	H 	0.57460 0.20930 0.48430 0.17800
H 	H 	0.59130 0.18590 0.48690 0.18500
C 	C 	0.62390 0.32200 0.62770 -0.03400
H 	H 	0.61540 0.30270 0.62840 0.03900
C 	C 	0.63460 0.35220 0.65540 0.02400
C 	C 	0.63220 0.35500 0.68110 -0.03300
H 	H 	0.62290 0.33880 0.68080 0.03100
C 	C 	0.64310 0.38110 0.70780 -0.13300
H 	H 	0.64250 0.37960 0.72680 0.06600
C 	C 	0.65501 0.40930 0.70530 0.14700
C 	C 	0.65634 0.40690 0.67770 -0.05400
H 	H 	0.66500 0.42500 0.67680 0.04200
C 	C 	0.66654 0.44170 0.75750 -0.08400
H 	H 	0.65620 0.45900 0.75420 0.06600
H 	H 	0.66670 0.40950 0.76630 0.04600
C 	C 	0.73170 0.78450 0.76400 0.02800
C 	C 	0.73070 0.78710 0.73500 -0.01600
H 	H 	0.72680 0.76030 0.72110 0.03500
C 	C 	0.73530 0.82860 0.72600 -0.16200
H 	H 	0.73430 0.83050 0.70550 0.07400
C 	C 	0.74140 0.86790 0.74620 0.18800
C 	C 	0.74170 0.86560 0.77410 -0.16800
H 	H 	0.74510 0.89290 0.78760 0.07300
C 	C 	0.73690 0.82350 0.78350 -0.02100
H 	H 	0.73740 0.82210 0.80350 0.02600
C 	C 	0.74630 0.91500 0.73520 -0.52000
H 	H 	0.75680 0.91010 0.73460 0.16500
H 	H 	0.73720 0.92360 0.71390 0.16000
H 	H 	0.74780 0.94100 0.75000 0.15900
C 	C 	0.71367 0.72150 0.75610 -0.02900
H 	H 	0.70590 0.73840 0.73760 0.04000
C 	C 	0.70894 0.67350 0.76230 0.03300
C 	C 	0.69320 0.65540 0.74440 -0.03500
H 	H 	0.68520 0.67400 0.72710 0.03800
C 	C 	0.68840 0.61050 0.75010 -0.11400
H 	H 	0.67750 0.59730 0.73670 0.06900
C 	C 	0.70030 0.58640 0.77630 0.13900
C 	C 	0.71619 0.60710 0.79390 -0.04200
H 	H 	0.72440 0.58990 0.81180 0.03000
C 	C 	0.68164 0.51930 0.76530 -0.08500
H 	H 	0.67240 0.53900 0.76470 0.07200
H 	H 	0.67970 0.51570 0.74340 0.07000
C 	C 	0.68222 0.46970 0.77980 0.17000
C 	C 	0.69816 0.44230 0.78520 -0.49400
H 	H 	0.69760 0.40920 0.79150 0.15200
H 	H 	0.69880 0.44220 0.76550 0.17600
H 	H 	0.70820 0.45820 0.80190 0.16800
O 	O 	0.63593 0.44200 0.48490 -0.20100
O 	O 	0.59933 0.51070 0.40770 -0.21000
O 	O 	0.64987 0.54150 0.46170 -0.20400
N 	N 	0.66443 0.31970 0.60840 -0.20900
N 	N 	0.64710 0.37800 0.55610 -0.20800
N 	N 	0.52611 0.57690 0.36670 -0.21500
N 	N 	0.55914 0.56310 0.38200 -0.21100
N 	N 	0.69613 0.71860 0.52630 -0.20700
N 	N 	0.67964 0.63670 0.49330 -0.20400
C 	C 	0.67132 0.28570 0.63340 0.01400
C 	C 	0.67050 0.23780 0.62710 0.01000
H 	H 	0.66540 0.22730 0.60570 0.02400
C 	C 	0.67700 0.20380 0.65110 -0.20000
H 	H 	0.67660 0.17060 0.64610 0.09000
C 	C 	0.68400 0.21820 0.68240 0.24900
C 	C 	0.68500 0.26670 0.68850 -0.19600
H 	H 	0.69050 0.27750 0.70980 0.08400
C 	C 	0.67800 0.30120 0.66330 -0.00700
H 	H 	0.67810 0.33450 0.66780 0.01100
C 	C 	0.69100 0.18010 0.70760 -0.62100
H 	H 	0.69590 0.19530 0.72850 0.20200
H 	H 	0.68200 0.15820 0.70500 0.20200
H 	H 	0.69980 0.16200 0.70580 0.19800
C 	C 	0.66660 0.31490 0.58420 -0.04700
H 	H 	0.67400 0.29050 0.58460 0.04600
C 	C 	0.65826 0.34520 0.55630 0.03100
C 	C 	0.66271 0.34340 0.53310 -0.04600
H 	H 	0.67060 0.32010 0.53410 0.03200
C 	C 	0.65564 0.37560 0.50790 -0.12200
H 	H 	0.65880 0.37590 0.49190 0.07100
C 	C 	0.64383 0.40690 0.50750 0.14200
C 	C 	0.64010 0.40760 0.53160 -0.05700
H 	H 	0.63210 0.43050 0.53080 0.04300
C 	C 	0.63905 0.44250 0.45800 -0.09700
H 	H 	0.65110 0.44920 0.46520 0.07200
H 	H 	0.63610 0.41110 0.44700 0.06200
C 	C 	0.50850 0.58550 0.35700 0.01700
C 	C 	0.49980 0.61860 0.33420 -0.01900
H 	H 	0.50520 0.63430 0.32420 0.01600
C 	C 	0.48330 0.63010 0.32520 -0.16800
H 	H 	0.47800 0.65620 0.31110 0.08000
C 	C 	0.47450 0.60390 0.33660 0.19600
C 	C 	0.48280 0.56910 0.35790 -0.17700
H 	H 	0.47660 0.55030 0.36520 0.07100
C 	C 	0.50040 0.55880 0.37020 -0.01400
H 	H 	0.50610 0.53540 0.38630 0.02600
C 	C 	0.45620 0.61740 0.32800 -0.52800
H 	H 	0.45480 0.61440 0.34680 0.16300
H 	H 	0.45400 0.65070 0.32030 0.16600
H 	H 	0.44830 0.59580 0.31140 0.15900
C 	C 	0.53247 0.53480 0.37450 -0.03700
H 	H 	0.52560 0.50940 0.37500 0.03800
C 	C 	0.54998 0.52400 0.38270 0.02900
C 	C 	0.55697 0.47930 0.39290 -0.03600
H 	H 	0.55020 0.45360 0.39330 0.03200
C 	C 	0.57393 0.47170 0.40260 -0.12000
H 	H 	0.57920 0.44180 0.41120 0.06600
C 	C 	0.58296 0.51010 0.39920 0.14600
C 	C 	0.57520 0.55560 0.38970 -0.05300
H 	H 	0.58170 0.58180 0.38870 0.04000
C 	C 	0.60962 0.47060 0.42610 -0.09000
H 	H 	0.60830 0.46550 0.44500 0.07000
H 	H 	0.60610 0.44080 0.41320 0.05800
C 	C 	0.70370 0.76420 0.54100 0.02000
C 	C 	0.69600 0.80710 0.52850 -0.00600
H 	H 	0.68520 0.80730 0.51020 0.03100
C 	C 	0.70360 0.84980 0.54190 -0.17100
H 	H 	0.69800 0.87920 0.53290 0.07800
C 	C 	0.71950 0.85060 0.56850 0.19700
C 	C 	0.72700 0.80880 0.58060 -0.17600
H 	H 	0.73780 0.80870 0.59920 0.07900
C 	C 	0.71950 0.76480 0.56650 -0.01200
H 	H 	0.72550 0.73550 0.57470 0.01800
C 	C 	0.72810 0.89950 0.58310 -0.52100
H 	H 	0.73260 0.89860 0.60610 0.16000
H 	H 	0.73730 0.90530 0.57850 0.16500
H 	H 	0.71970 0.92550 0.57400 0.15600
C 	C 	0.68066 0.71300 0.51820 -0.03300
H 	H 	0.67480 0.73800 0.52210 0.04200
C 	C 	0.67167 0.66880 0.50270 0.03800
C 	C 	0.65615 0.66120 0.49770 -0.04000
H 	H 	0.65100 0.68390 0.50500 0.03900
C 	C 	0.64720 0.61970 0.48160 -0.11700
H 	H 	0.63570 0.61550 0.47600 0.07000
C 	C 	0.65567 0.58570 0.47440 0.14100
C 	C 	0.67214 0.59640 0.48050 -0.04300
H 	H 	0.67800 0.57330 0.47500 0.03500
C 	C 	0.63263 0.53100 0.45290 -0.08000
H 	H 	0.63120 0.53000 0.47200 0.07200
H 	H 	0.62510 0.55630 0.43860 0.06800
C 	C 	0.62793 0.48220 0.43610 0.17900
C 	C 	0.63050 0.48350 0.40650 -0.51700
H 	H 	0.64230 0.49190 0.41310 0.18300
H 	H 	0.62800 0.45190 0.39640 0.16700
H 	H 	0.62300 0.50760 0.39150 0.18900
Cd	Cd	0.20672 0.16431 0.50227 1.18900
Cd	Cd	0.10745 0.50795 0.44595 1.18900
Cd	Cd	0.15402 0.54839 0.76639 1.19000
Cd	Cd	0.24745 0.18805 0.81421 1.19000
Cd	Cd	0.14423 0.87868 0.60242 1.18900
Cd	Cd	0.04602 0.13650 0.37549 1.19200
Cd	Cd	0.03378 0.36298 0.60051 1.19000
Cd	Cd	0.12556 0.12111 0.82716 1.18900
O 	O 	0.22514 0.06300 0.61440 -0.21100
O 	O 	0.23892 0.08460 0.70860 -0.21800
O 	O 	0.20174 0.99750 0.64400 -0.21100
N 	N 	0.21586 0.10430 0.48040 -0.21700
N 	N 	0.21932 0.10410 0.54030 -0.21100
N 	N 	0.26901 0.23950 0.81580 -0.20500
N 	N 	0.25343 0.16370 0.77480 -0.21200
N 	N 	0.12548 0.94380 0.58750 -0.21000
N 	N 	0.16040 0.95040 0.61520 -0.20700
C 	C 	0.21540 0.10660 0.45080 0.02100
C 	C 	0.22950 0.09740 0.44790 -0.00900
H 	H 	0.24000 0.09030 0.46610 0.02600
C 	C 	0.22840 0.09830 0.41830 -0.18200
H 	H 	0.23780 0.08800 0.41620 0.07200
C 	C 	0.21410 0.11360 0.39190 0.21200
C 	C 	0.20020 0.12270 0.39500 -0.18300
H 	H 	0.18990 0.13010 0.37660 0.08100
C 	C 	0.20080 0.12140 0.42490 -0.02000
H 	H 	0.19130 0.13050 0.42690 0.01400
C 	C 	0.21410 0.12410 0.36100 -0.56200
H 	H 	0.21630 0.15830 0.36000 0.17300
H 	H 	0.22280 0.10480 0.35990 0.17200
H 	H 	0.20300 0.11580 0.34320 0.17000
C 	C 	0.22310 0.06870 0.49860 -0.03900
H 	H 	0.22720 0.04300 0.49140 0.04000
C 	C 	0.22510 0.06660 0.53050 0.02900
C 	C 	0.23190 0.02690 0.54900 -0.03100
H 	H 	0.23600 0.00100 0.54170 0.03100
C 	C 	0.23270 0.02450 0.57830 -0.12800
H 	H 	0.23740 0.99720 0.59160 0.06700
C 	C 	0.22670 0.06230 0.58760 0.15200
C 	C 	0.22010 0.10100 0.56860 -0.06300
H 	H 	0.21600 0.12700 0.57560 0.04200
C 	C 	0.23110 0.02120 0.63460 -0.07300
H 	H 	0.22410 0.99280 0.62350 0.05400
H 	H 	0.24300 0.01440 0.64080 0.04600
C 	C 	0.27737 0.27750 0.83810 0.01300
C 	C 	0.28166 0.27050 0.86900 -0.00100
H 	H 	0.28000 0.23960 0.87540 0.01000
C 	C 	0.28830 0.30600 0.89110 -0.19000
H 	H 	0.29110 0.29980 0.91240 0.08500
C 	C 	0.29090 0.35150 0.88220 0.23100
C 	C 	0.28740 0.35870 0.85210 -0.19900
H 	H 	0.28990 0.38910 0.84630 0.09100
C 	C 	0.28010 0.32180 0.82870 0.00400
H 	H 	0.27720 0.32770 0.80720 0.02700
C 	C 	0.29830 0.39320 0.90590 -0.58500
H 	H 	0.30020 0.38270 0.92670 0.19100
H 	H 	0.29040 0.42030 0.89850 0.19400
H 	H 	0.30910 0.40340 0.90750 0.19500
C 	C 	0.27048 0.23570 0.79090 -0.03800
H 	H 	0.27720 0.25850 0.78740 0.04300
C 	C 	0.26214 0.19710 0.76760 0.02900
C 	C 	0.26412 0.19310 0.74180 -0.04200
H 	H 	0.27120 0.21540 0.73890 0.03000
C 	C 	0.25610 0.15720 0.71920 -0.12100
H 	H 	0.25680 0.15590 0.70020 0.06600
C 	C 	0.24710 0.12340 0.72620 0.14000
C 	C 	0.24622 0.12780 0.75430 -0.05800
H 	H 	0.24020 0.10400 0.75900 0.03600
C 	C 	0.23980 0.07850 0.67980 -0.07200
H 	H 	0.23500 0.10690 0.66590 0.06200
H 	H 	0.25170 0.07430 0.68460 0.05100
C 	C 	0.10738 0.94110 0.57430 0.00200
C 	C 	0.09810 0.96920 0.58330 0.01500
H 	H 	0.10360 0.99320 0.59900 0.02300
C 	C 	0.08090 0.96340 0.57010 -0.20200
H 	H 	0.07460 0.98410 0.57610 0.08400
C 	C 	0.07280 0.92780 0.54810 0.23400
C 	C 	0.08160 0.89900 0.53940 -0.20900
H 	H 	0.07610 0.87450 0.52410 0.09200
C 	C 	0.09900 0.90540 0.55310 0.01200
H 	H 	0.10530 0.88400 0.54740 -0.00100
C 	C 	0.05360 0.92160 0.53290 -0.56300
H 	H 	0.05100 0.89830 0.54520 0.17300
H 	H 	0.04840 0.95260 0.53270 0.17000
H 	H 	0.04910 0.90990 0.51120 0.17600
C 	C 	0.13263 0.98420 0.59500 -0.03300
H 	H 	0.12570 0.01200 0.59060 0.04200
C 	C 	0.15094 0.99060 0.61010 0.03300
C 	C 	0.15828 0.03530 0.61650 -0.03300
H 	H 	0.15140 0.06310 0.61270 0.03700
C 	C 	0.17569 0.04040 0.62860 -0.12000
H 	H 	0.18090 0.07120 0.63330 0.07100
C 	C 	0.18488 0.99980 0.63350 0.14200
C 	C 	0.17648 0.95550 0.62680 -0.04300
H 	H 	0.18310 0.92720 0.63120 0.02600
C 	C 	0.21104 0.04250 0.65410 -0.08100
H 	H 	0.20620 0.06620 0.63660 0.07000
H 	H 	0.21020 0.05590 0.67230 0.06900
C 	C 	0.22936 0.03310 0.66360 0.15900
C 	C 	0.23680 0.99060 0.68760 -0.48300
H 	H 	0.23700 0.99930 0.70740 0.16900
H 	H 	0.22980 0.96200 0.67850 0.17000
H 	H 	0.24840 0.98400 0.69180 0.15200
O 	O 	0.09774 0.57610 0.54500 -0.21500
O 	O 	0.10768 0.58720 0.63950 -0.21000
O 	O 	0.07651 0.50650 0.59220 -0.20800
N 	N 	0.12780 0.56630 0.45330 -0.21100
N 	N 	0.11048 0.55980 0.48680 -0.20600
N 	N 	0.13869 0.58990 0.78650 -0.21100
N 	N 	0.13009 0.58290 0.72340 -0.21000
N 	N 	0.05225 0.30090 0.60420 -0.21000
N 	N 	0.05744 0.39750 0.59760 -0.20500
C 	C 	0.13669 0.56560 0.43620 0.00500
C 	C 	0.15381 0.57200 0.44990 0.01300
H 	H 	0.16020 0.57840 0.47190 0.02200
C 	C 	0.16200 0.56920 0.43190 -0.22200
H 	H 	0.17370 0.57650 0.44130 0.08800
C 	C 	0.15320 0.55600 0.40080 0.25600
C 	C 	0.13600 0.55110 0.38660 -0.20700
H 	H 	0.12950 0.54600 0.36440 0.09400
C 	C 	0.12760 0.55370 0.40510 -0.01000
H 	H 	0.11580 0.54710 0.39580 0.00000
C 	C 	0.16170 0.54700 0.38110 -0.63300
H 	H 	0.17400 0.54950 0.39450 0.20300
H 	H 	0.15890 0.51470 0.37190 0.20800
H 	H 	0.15790 0.57090 0.36410 0.20900
C 	C 	0.13188 0.59380 0.47750 -0.04100
H 	H 	0.14050 0.61720 0.48280 0.03800
C 	C 	0.12377 0.59030 0.49700 0.03100
C 	C 	0.12914 0.61830 0.52350 -0.03400
H 	H 	0.13830 0.64020 0.52970 0.03100
C 	C 	0.12098 0.61370 0.54090 -0.12900
H 	H 	0.12460 0.63190 0.55970 0.07400
C 	C 	0.10767 0.58300 0.53100 0.14400
C 	C 	0.10251 0.55730 0.50380 -0.06100
H 	H 	0.09290 0.53690 0.49680 0.04300
C 	C 	0.10188 0.59690 0.57520 -0.07400
H 	H 	0.11330 0.58660 0.59160 0.06200
H 	H 	0.10170 0.63240 0.57390 0.05400
C 	C 	0.14361 0.58840 0.81930 0.01200
C 	C 	0.16002 0.59520 0.84160 -0.01900
H 	H 	0.16800 0.60310 0.83500 0.01400
C 	C 	0.16540 0.59100 0.87340 -0.17800
H 	H 	0.17690 0.59620 0.88850 0.07800
C 	C 	0.15390 0.57920 0.88340 0.19600
C 	C 	0.13750 0.57290 0.86140 -0.17900
H 	H 	0.12960 0.56500 0.86830 0.09000
C 	C 	0.13161 0.57750 0.82840 -0.01200
H 	H 	0.12000 0.57340 0.81320 0.03000
C 	C 	0.15870 0.57360 0.91890 -0.53800
H 	H 	0.16820 0.59500 0.93190 0.17300
H 	H 	0.14890 0.58200 0.92150 0.17800
H 	H 	0.16200 0.54020 0.92560 0.17500
C 	C 	0.12470 0.60750 0.76500 -0.04400
H 	H 	0.11740 0.62230 0.77130 0.04100
C 	C 	0.11948 0.60580 0.73120 0.03800
C 	C 	0.10410 0.62190 0.70890 -0.04000
H 	H 	0.09650 0.63520 0.71520 0.03500
C 	C 	0.09930 0.61900 0.67680 -0.11600
H 	H 	0.08880 0.63160 0.66100 0.06400
C 	C 	0.11048 0.59680 0.66870 0.14900
C 	C 	0.12579 0.57940 0.69290 -0.05600
H 	H 	0.13340 0.56440 0.68750 0.03700
C 	C 	0.09125 0.60170 0.61420 -0.07200
H 	H 	0.08230 0.59130 0.61900 0.06000
H 	H 	0.09080 0.63720 0.61210 0.04800
C 	C 	0.04760 0.25110 0.60300 0.00700
C 	C 	0.04650 0.22180 0.57940 0.01000
H 	H 	0.04880 0.23440 0.56360 0.02700
C 	C 	0.04220 0.17470 0.57830 -0.19000
H 	H 	0.04230 0.15430 0.56270 0.08300
C 	C 	0.03760 0.15630 0.59920 0.21400
C 	C 	0.03850 0.18450 0.62220 -0.18900
H 	H 	0.03500 0.17240 0.63660 0.08300
C 	C 	0.04440 0.23190 0.62540 -0.00400
H 	H 	0.04610 0.25060 0.64320 0.01400
C 	C 	0.03140 0.10340 0.59490 -0.53700
H 	H 	0.03440 0.08960 0.61560 0.16200
H 	H 	0.01910 0.10250 0.58140 0.16500
H 	H 	0.03680 0.08470 0.58510 0.16300
C 	C 	0.06400 0.31250 0.59870 -0.03000
H 	H 	0.07040 0.28810 0.59550 0.04000
C 	C 	0.06800 0.36390 0.59720 0.03400
C 	C 	0.08050 0.37520 0.59020 -0.03900
H 	H 	0.08640 0.35050 0.58610 0.03800
C 	C 	0.08462 0.42370 0.58930 -0.11600
H 	H 	0.09390 0.43240 0.58630 0.06800
C 	C 	0.07489 0.45780 0.59280 0.13400
C 	C 	0.06138 0.44220 0.59750 -0.04300
H 	H 	0.05480 0.46590 0.60060 0.03200
C 	C 	0.08984 0.52370 0.58610 -0.07400
H 	H 	0.10110 0.51440 0.60370 0.06800
H 	H 	0.08850 0.50960 0.56630 0.06400
C 	C 	0.08835 0.57870 0.58330 0.15400
C 	C 	0.07021 0.59320 0.55720 -0.47400
H 	H 	0.06980 0.62800 0.55370 0.15400
H 	H 	0.06750 0.57640 0.53740 0.16800
H 	H 	0.06200 0.58430 0.56400 0.16100
O 	O 	0.18824 0.40440 0.85760 -0.21600
O 	O 	0.21479 0.28010 0.87120 -0.20700
O 	O 	0.17436 0.26570 0.85670 -0.20300
N 	N 	0.17750 0.59860 0.78410 -0.21600
N 	N 	0.17640 0.51200 0.81210 -0.20000
N 	N 	0.26456 0.14080 0.85740 -0.22000
N 	N 	0.24158 0.20800 0.85410 -0.21600
N 	N 	0.11467 0.12960 0.77110 -0.20400
N 	N 	0.14049 0.18280 0.81830 -0.20900
C 	C 	0.17720 0.64740 0.77560 0.01400
C 	C 	0.16420 0.66470 0.74740 -0.01600
H 	H 	0.15610 0.64290 0.73280 0.00300
C 	C 	0.16290 0.71360 0.74010 -0.19000
H 	H 	0.15380 0.72500 0.72080 0.08800
C 	C 	0.17470 0.74530 0.76090 0.22100
C 	C 	0.18840 0.72750 0.78770 -0.19000
H 	H 	0.19680 0.74900 0.80200 0.07500
C 	C 	0.19010 0.67730 0.79430 -0.01000
H 	H 	0.20010 0.66480 0.81150 0.02500
C 	C 	0.17450 0.79820 0.75320 -0.57700
H 	H 	0.17230 0.81730 0.76790 0.18000
H 	H 	0.18540 0.80730 0.75520 0.18100
H 	H 	0.16550 0.80410 0.73140 0.19100
C 	C 	0.19090 0.57710 0.80390 -0.04300
H 	H 	0.20140 0.59260 0.81010 0.04200
C 	C 	0.19127 0.53060 0.81780 0.03100
C 	C 	0.20600 0.50490 0.83370 -0.03200
H 	H 	0.21640 0.51710 0.83600 0.03300
C 	C 	0.20540 0.46120 0.84610 -0.12200
H 	H 	0.21530 0.44190 0.85640 0.06700
C 	C 	0.19059 0.44540 0.84380 0.14200
C 	C 	0.17631 0.46970 0.82500 -0.06100
H 	H 	0.16580 0.45620 0.82070 0.04400
C 	C 	0.20244 0.37300 0.87420 -0.07900
H 	H 	0.20780 0.36590 0.86110 0.06400
H 	H 	0.21090 0.38820 0.89420 0.05000
C 	C 	0.27684 0.10520 0.85880 0.00800
C 	C 	0.28730 0.11650 0.84700 -0.01200
H 	H 	0.28620 0.14690 0.83730 0.01200
C 	C 	0.29940 0.08460 0.84880 -0.18700
H 	H 	0.30700 0.09380 0.84160 0.08000
C 	C 	0.30030 0.03890 0.86120 0.21100
C 	C 	0.28890 0.02670 0.87010 -0.19500
H 	H 	0.28870 0.99440 0.87640 0.07700
C 	C 	0.27690 0.05990 0.87050 -0.01300
H 	H 	0.26940 0.05130 0.87830 0.02000
C 	C 	0.31300 0.00070 0.86250 -0.56200
H 	H 	0.32430 0.00790 0.88010 0.18100
H 	H 	0.30940 0.96880 0.86550 0.17800
H 	H 	0.31340 0.00120 0.84260 0.18200
C 	C 	0.26237 0.14590 0.88150 -0.03900
H 	H 	0.26870 0.12670 0.89980 0.03600
C 	C 	0.25016 0.18120 0.88120 0.02800
C 	C 	0.24782 0.18800 0.90670 -0.03700
H 	H 	0.25420 0.16960 0.92540 0.03300
C 	C 	0.23618 0.22160 0.90610 -0.11500
H 	H 	0.23440 0.22630 0.92370 0.06400
C 	C 	0.22721 0.24800 0.87800 0.14100
C 	C 	0.23035 0.23940 0.85270 -0.04600
H 	H 	0.22400 0.25700 0.83360 0.03700
C 	C 	0.21008 0.28990 0.89520 -0.07700
H 	H 	0.20630 0.26010 0.90100 0.06400
H 	H 	0.21980 0.30310 0.91440 0.04700
C 	C 	0.09930 0.10770 0.74800 0.02600
C 	C 	0.08450 0.13280 0.72950 -0.02000
H 	H 	0.08420 0.16660 0.73180 0.03600
C 	C 	0.07010 0.10800 0.70720 -0.15900
H 	H 	0.05990 0.12530 0.69480 0.07500
C 	C 	0.07050 0.05880 0.70330 0.18500
C 	C 	0.08490 0.03470 0.72140 -0.16800
H 	H 	0.08540 0.00110 0.71860 0.07400
C 	C 	0.09890 0.05910 0.74450 -0.01700
H 	H 	0.10870 0.04100 0.75840 0.02100
C 	C 	0.05460 0.03090 0.67920 -0.50200
H 	H 	0.04870 0.04930 0.65950 0.15300
H 	H 	0.05790 0.99950 0.67490 0.15500
H 	H 	0.04690 0.02630 0.68810 0.15100
C 	C 	0.11969 0.16740 0.76400 -0.03300
H 	H 	0.11400 0.17820 0.74260 0.04300
C 	C 	0.13412 0.19550 0.78750 0.03700
C 	C 	0.14070 0.23160 0.77800 -0.03800
H 	H 	0.13580 0.23950 0.75620 0.03900
C 	C 	0.15450 0.25710 0.80040 -0.11500
H 	H 	0.15920 0.28290 0.79430 0.06900
C 	C 	0.16113 0.24420 0.83130 0.13800
C 	C 	0.15315 0.20730 0.83920 -0.03800
H 	H 	0.15730 0.20020 0.86100 0.03600
C 	C 	0.18100 0.30880 0.85030 -0.07600
H 	H 	0.18490 0.30190 0.83480 0.07100
H 	H 	0.17210 0.33370 0.84120 0.06700
C 	C 	0.19568 0.32670 0.88120 0.16400
C 	C 	0.18941 0.33500 0.90550 -0.49500
H 	H 	0.19880 0.34720 0.92530 0.15800
H 	H 	0.18020 0.35860 0.89700 0.17200
H 	H 	0.18530 0.30460 0.90950 0.17600
O 	O 	0.15141 0.24960 0.39950 -0.21300
O 	O 	0.11431 0.34680 0.38340 -0.21000
O 	O 	0.10255 0.22940 0.37820 -0.21000
N 	N 	0.22627 0.22420 0.50660 -0.20800
N 	N 	0.19274 0.21740 0.45930 -0.20400
N 	N 	0.08424 0.53860 0.40040 -0.21500
N 	N 	0.10205 0.45690 0.40340 -0.20900
N 	N 	0.05833 0.14000 0.43170 -0.20700
N 	N 	0.07326 0.17290 0.39680 -0.20400
C 	C 	0.24332 0.22770 0.53050 0.01300
C 	C 	0.25100 0.27120 0.54360 0.01900
H 	H 	0.24490 0.30040 0.53580 0.02400
C 	C 	0.26760 0.27220 0.56790 -0.21700
H 	H 	0.27310 0.30220 0.57540 0.10100
C 	C 	0.27610 0.23060 0.58130 0.25000
C 	C 	0.26860 0.18730 0.56790 -0.19600
H 	H 	0.27470 0.15820 0.57620 0.08600
C 	C 	0.25201 0.18580 0.54190 -0.01000
H 	H 	0.24700 0.15590 0.53260 0.00700
C 	C 	0.29360 0.23060 0.61010 -0.62100
H 	H 	0.29810 0.19780 0.61420 0.20000
H 	H 	0.30100 0.25170 0.60620 0.20600
H 	H 	0.29290 0.24230 0.62850 0.19400
C 	C 	0.21921 0.25880 0.48660 -0.03800
H 	H 	0.22600 0.28560 0.48760 0.04800
C 	C 	0.20152 0.25880 0.46270 0.03200
C 	C 	0.19380 0.29890 0.44460 -0.03400
H 	H 	0.20030 0.32670 0.44650 0.03100
C 	C 	0.17680 0.29890 0.42370 -0.13400
H 	H 	0.17120 0.32690 0.41200 0.06900
C 	C 	0.16814 0.25720 0.42050 0.14900
C 	C 	0.17630 0.21770 0.43790 -0.06400
H 	H 	0.17000 0.18900 0.43480 0.04500
C 	C 	0.14076 0.29120 0.38550 -0.08100
H 	H 	0.14260 0.31500 0.40210 0.06500
H 	H 	0.14350 0.30660 0.37010 0.05900
C 	C 	0.07470 0.58040 0.40040 0.01300
C 	C 	0.08260 0.61910 0.41900 -0.01900
H 	H 	0.09460 0.61880 0.43160 0.01100
C 	C 	0.07380 0.65880 0.42020 -0.16900
H 	H 	0.07960 0.68490 0.43380 0.06800
C 	C 	0.05630 0.66060 0.40160 0.19800
C 	C 	0.04860 0.62310 0.38240 -0.17800
H 	H 	0.03660 0.62410 0.36960 0.08100
C 	C 	0.05730 0.58190 0.38020 -0.00900
H 	H 	0.05150 0.55670 0.36570 0.02800
C 	C 	0.04530 0.70090 0.40440 -0.53800
H 	H 	0.05260 0.72380 0.42080 0.16600
H 	H 	0.03910 0.71770 0.38400 0.17100
H 	H 	0.03720 0.68680 0.41000 0.17800
C 	C 	0.08000 0.51570 0.37440 -0.03700
H 	H 	0.07110 0.52760 0.35490 0.03500
C 	C 	0.08878 0.47120 0.37490 0.02800
C 	C 	0.08470 0.44590 0.34770 -0.03500
H 	H 	0.07590 0.45740 0.32810 0.03300
C 	C 	0.09311 0.40390 0.34830 -0.11800
H 	H 	0.09060 0.38690 0.32940 0.06600
C 	C 	0.10548 0.38770 0.37790 0.14500
C 	C 	0.10996 0.41610 0.40470 -0.05600
H 	H 	0.11890 0.40580 0.42450 0.03400
C 	C 	0.11038 0.31650 0.35620 -0.07700
H 	H 	0.09850 0.30530 0.34620 0.06500
H 	H 	0.11210 0.33440 0.34020 0.05000
C 	C 	0.05150 0.12060 0.45070 0.02100
C 	C 	0.06090 0.09860 0.47930 -0.00800
H 	H 	0.07280 0.09600 0.48750 0.03200
C 	C 	0.05380 0.08020 0.49660 -0.16600
H 	H 	0.06060 0.06520 0.51650 0.07700
C 	C 	0.03630 0.08390 0.48420 0.19300
C 	C 	0.02680 0.10670 0.45640 -0.17400
H 	H 	0.01500 0.11120 0.44860 0.07900
C 	C 	0.03450 0.12340 0.43920 -0.01300
H 	H 	0.02760 0.13710 0.41880 0.00900
C 	C 	0.02860 0.06320 0.50390 -0.51500
H 	H 	0.03750 0.04820 0.52320 0.15500
H 	H 	0.02000 0.03900 0.49140 0.15500
H 	H 	0.02330 0.08910 0.50970 0.16000
C 	C 	0.07350 0.15190 0.44550 -0.02600
H 	H 	0.07980 0.14880 0.46790 0.03900
C 	C 	0.08224 0.17030 0.42870 0.03400
C 	C 	0.09861 0.18500 0.44520 -0.03400
H 	H 	0.10470 0.18250 0.46760 0.03700
C 	C 	0.10633 0.20350 0.42890 -0.11800
H 	H 	0.11790 0.21290 0.43990 0.07000
C 	C 	0.09721 0.20820 0.39700 0.13900
C 	C 	0.08017 0.19260 0.38190 -0.04000
H 	H 	0.07350 0.19680 0.35970 0.03300
C 	C 	0.11988 0.24650 0.39360 -0.07600
H 	H 	0.12200 0.26790 0.41150 0.07000
H 	H 	0.12780 0.21900 0.40190 0.06600
C 	C 	0.12250 0.27390 0.36890 0.16100
C 	C 	0.11910 0.24030 0.34030 -0.48200
H 	H 	0.12670 0.21250 0.34800 0.16900
H 	H 	0.10730 0.22910 0.33010 0.16200
H 	H 	0.12100 0.25820 0.32490 0.15900
O 	O 	0.02122 0.37070 0.47490 -0.21000
O 	O 	0.02697 0.31060 0.40340 -0.21000
O 	O 	0.05330 0.40640 0.44140 -0.20300
N 	N 	0.01170 0.30760 0.58890 -0.21100
N 	N 	0.02086 0.34360 0.54640 -0.20500
N 	N 	0.03902 0.15630 0.32370 -0.21300
N 	N 	0.03341 0.21100 0.36500 -0.21400
N 	N 	0.12826 0.46240 0.49060 -0.20100
N 	N 	0.09363 0.45270 0.46190 -0.21000
C 	C 	0.00660 0.29340 0.61110 0.02500
C 	C 	0.00190 0.24730 0.61280 -0.01400
H 	H 	0.00190 0.22400 0.59840 0.02900
C 	C 	0.99710 0.23350 0.63490 -0.17900
H 	H 	0.99430 0.20100 0.63610 0.07600
C 	C 	0.99650 0.26730 0.65500 0.19800
C 	C 	0.00080 0.31380 0.65220 -0.16700
H 	H 	0.00150 0.33680 0.66730 0.07700
C 	C 	0.00440 0.32990 0.62760 -0.04200
H 	H 	0.00520 0.36280 0.62340 0.02100
C 	C 	0.99140 0.25230 0.67950 -0.54600
H 	H 	0.99870 0.26850 0.69960 0.17100
H 	H 	0.97960 0.26140 0.67210 0.16700
H 	H 	0.99260 0.21740 0.68260 0.17000
C 	C 	0.00550 0.28930 0.56090 -0.04200
H 	H 	0.99800 0.26300 0.55560 0.03900
C 	C 	0.00960 0.30710 0.53720 0.03700
C 	C 	0.00160 0.29040 0.50690 -0.03400
H 	H 	0.99320 0.26600 0.50100 0.03000
C 	C 	0.00550 0.30850 0.48510 -0.12300
H 	H 	0.00090 0.29510 0.46440 0.06700
C 	C 	0.01636 0.34640 0.49390 0.14400
C 	C 	0.02460 0.36050 0.52470 -0.05900
H 	H 	0.03340 0.38340 0.53110 0.03900
C 	C 	0.01590 0.35250 0.44330 -0.09300
H 	H 	0.01850 0.31770 0.44400 0.06900
H 	H 	0.00350 0.35710 0.42960 0.05600
C 	C 	0.04360 0.12730 0.30410 0.01200
C 	C 	0.04180 0.07900 0.30410 -0.01500
H 	H 	0.03770 0.06450 0.31680 0.01500
C 	C 	0.04610 0.05090 0.28550 -0.17400
H 	H 	0.04460 0.01700 0.28520 0.08200
C 	C 	0.05250 0.07100 0.26710 0.21500
C 	C 	0.05340 0.11860 0.26570 -0.19000
H 	H 	0.05750 0.13250 0.25270 0.07900
C 	C 	0.04830 0.14890 0.28360 -0.00900
H 	H 	0.04820 0.18290 0.28140 0.02700
C 	C 	0.05760 0.03830 0.24730 -0.55000
H 	H 	0.04750 0.02410 0.22970 0.17400
H 	H 	0.06360 0.05750 0.23890 0.17000
H 	H 	0.06510 0.01260 0.26080 0.18300
C 	C 	0.03210 0.19790 0.31500 -0.04300
H 	H 	0.02850 0.20800 0.29390 0.04300
C 	C 	0.02950 0.23030 0.33600 0.03400
C 	C 	0.02230 0.27450 0.32660 -0.03500
H 	H 	0.01830 0.28490 0.30540 0.03500
C 	C 	0.02060 0.30450 0.34840 -0.12400
H 	H 	0.01560 0.33540 0.34230 0.06800
C 	C 	0.02650 0.28780 0.37870 0.15400
C 	C 	0.03270 0.24050 0.38620 -0.05600
H 	H 	0.03650 0.22900 0.40710 0.04100
C 	C 	0.02200 0.36030 0.39890 -0.08300
H 	H 	0.02840 0.37820 0.39050 0.06700
H 	H 	0.00980 0.36310 0.38350 0.05000
C 	C 	0.14600 0.47290 0.50570 0.00300
C 	C 	0.15432 0.49470 0.53460 0.01500
H 	H 	0.14870 0.49980 0.54660 0.02200
C 	C 	0.17064 0.50920 0.54620 -0.20200
H 	H 	0.17610 0.52540 0.56600 0.08900
C 	C 	0.17949 0.50110 0.52980 0.23900
C 	C 	0.17132 0.48000 0.50120 -0.20900
H 	H 	0.17700 0.47410 0.48940 0.08700
C 	C 	0.15436 0.46670 0.48870 0.00700
H 	H 	0.14850 0.45310 0.46810 0.00600
C 	C 	0.19788 0.51670 0.54410 -0.59000
H 	H 	0.20070 0.53790 0.56220 0.19000
H 	H 	0.20520 0.48830 0.55120 0.17800
H 	H 	0.19950 0.53400 0.52820 0.18600
C 	C 	0.12196 0.43980 0.50420 -0.02600
H 	H 	0.12930 0.42740 0.52470 0.03900
C 	C 	0.10372 0.43120 0.49030 0.03100
C 	C 	0.09734 0.39980 0.50360 -0.03200
H 	H 	0.10460 0.38490 0.52330 0.03600
C 	C 	0.08010 0.38980 0.48820 -0.12200
H 	H 	0.07550 0.36720 0.49670 0.07100
C 	C 	0.07010 0.41300 0.46070 0.14400
C 	C 	0.07763 0.44360 0.44830 -0.04300
H 	H 	0.07050 0.45860 0.42860 0.03500
C 	C 	0.04442 0.37800 0.45410 -0.09600
H 	H 	0.04820 0.34410 0.45680 0.07600
H 	H 	0.04680 0.39080 0.47490 0.07200
C 	C 	0.02563 0.38100 0.43080 0.18700
C 	C 	0.01930 0.43340 0.42390 -0.52900
H 	H 	0.02140 0.44910 0.44370 0.19200
H 	H 	0.02540 0.45080 0.41490 0.18500
H 	H 	0.00720 0.43380 0.40890 0.17500
O 	O 	0.09481 0.30190 0.80870 -0.21000
O 	O 	0.06920 0.38690 0.73200 -0.20700
O 	O 	0.10928 0.42180 0.77820 -0.20400
N 	N 	0.10128 0.07780 0.81760 -0.21300
N 	N 	0.10437 0.17800 0.81920 -0.20400
N 	N 	0.01766 0.43130 0.59160 -0.21800
N 	N 	0.04223 0.39750 0.64950 -0.21700
N 	N 	0.16257 0.49120 0.74100 -0.20800
N 	N 	0.13929 0.47690 0.76100 -0.20900
C 	C 	0.10020 0.02760 0.82150 0.00300
C 	C 	0.08844 0.00750 0.82840 0.01100
H 	H 	0.08050 0.02720 0.83070 0.02500
C 	C 	0.08840 0.95770 0.83180 -0.20600
H 	H 	0.08060 0.94400 0.83740 0.10000
C 	C 	0.09900 0.92790 0.82760 0.23700
C 	C 	0.11070 0.94750 0.82010 -0.19600
H 	H 	0.11810 0.92750 0.81660 0.08600
C 	C 	0.11130 0.99820 0.81790 -0.00800
H 	H 	0.11960 0.01220 0.81380 -0.00100
C 	C 	0.09910 0.87390 0.83220 -0.58800
H 	H 	0.10540 0.86640 0.85490 0.19700
H 	H 	0.08740 0.86240 0.82340 0.19200
H 	H 	0.10450 0.85800 0.82130 0.18200
C 	C 	0.08847 0.10510 0.80800 -0.04300
H 	H 	0.07780 0.09040 0.80080 0.04100
C 	C 	0.08903 0.15760 0.80710 0.03300
C 	C 	0.07476 0.18460 0.79480 -0.03600
H 	H 	0.06410 0.16920 0.78670 0.03200
C 	C 	0.07549 0.23400 0.79380 -0.12200
H 	H 	0.06560 0.25330 0.78460 0.06600
C 	C 	0.09145 0.25360 0.80710 0.14500
C 	C 	0.10525 0.22520 0.81900 -0.05500
H 	H 	0.11610 0.23990 0.82760 0.04500
C 	C 	0.08104 0.33180 0.78740 -0.07600
H 	H 	0.07540 0.31770 0.76590 0.06400
H 	H 	0.07260 0.33490 0.79470 0.05200
C 	C 	0.00440 0.44890 0.56130 0.00800
C 	C 	0.99170 0.41930 0.54130 -0.00600
H 	H 	0.99180 0.38670 0.54710 0.01900
C 	C 	0.97870 0.43530 0.51260 -0.18700
H 	H 	0.96970 0.41410 0.49970 0.08100
C 	C 	0.97860 0.48170 0.50280 0.22400
C 	C 	0.99170 0.51040 0.52140 -0.19500
H 	H 	0.99240 0.54120 0.51360 0.09900
C 	C 	0.00470 0.49670 0.55240 -0.01000
H 	H 	0.01300 0.51890 0.56610 0.02400
C 	C 	0.96490 0.50020 0.47000 -0.57500
H 	H 	0.95520 0.51230 0.47170 0.19200
H 	H 	0.96960 0.52620 0.46300 0.18800
H 	H 	0.96120 0.47380 0.45470 0.18700
C 	C 	0.02150 0.45650 0.61640 -0.04100
H 	H 	0.01600 0.48630 0.61420 0.03700
C 	C 	0.03430 0.44070 0.64780 0.02700
C 	C 	0.03750 0.46700 0.67400 -0.03800
H 	H 	0.03140 0.49590 0.67150 0.03400
C 	C 	0.04950 0.45280 0.70430 -0.11400
H 	H 	0.05210 0.47130 0.72270 0.06400
C 	C 	0.05750 0.40870 0.70560 0.14100
C 	C 	0.05350 0.38250 0.67810 -0.04600
H 	H 	0.05920 0.35280 0.68000 0.03400
C 	C 	0.07424 0.41160 0.76170 -0.07700
H 	H 	0.07820 0.44460 0.76110 0.06400
H 	H 	0.06470 0.41360 0.76610 0.04800
C 	C 	0.17698 0.49760 0.73660 0.01100
C 	C 	0.19030 0.46690 0.74880 0.00200
H 	H 	0.18970 0.43830 0.75890 0.03100
C 	C 	0.20470 0.47650 0.74670 -0.18600
H 	H 	0.21410 0.45510 0.75610 0.08300
C 	C 	0.20560 0.51720 0.73100 0.21900
C 	C 	0.19280 0.54800 0.72080 -0.19600
H 	H 	0.19360 0.57770 0.71180 0.07800
C 	C 	0.17830 0.53830 0.72280 -0.00500
H 	H 	0.16920 0.56060 0.71430 0.00500
C 	C 	0.22130 0.52860 0.72740 -0.57200
H 	H 	0.23150 0.51730 0.74620 0.18200
H 	H 	0.22020 0.51240 0.70850 0.18100
H 	H 	0.22200 0.56340 0.72520 0.18900
C 	C 	0.15670 0.44950 0.73950 -0.03000
H 	H 	0.15990 0.42440 0.73010 0.04100
C 	C 	0.14510 0.43890 0.75170 0.03500
C 	C 	0.13910 0.39330 0.75060 -0.03400
H 	H 	0.14310 0.36750 0.74310 0.03700
C 	C 	0.12730 0.38480 0.76030 -0.12000
H 	H 	0.12350 0.35310 0.76080 0.07100
C 	C 	0.12132 0.42330 0.76920 0.14200
C 	C 	0.12764 0.46880 0.76850 -0.04400
H 	H 	0.12300 0.49560 0.77380 0.03700
C 	C 	0.10275 0.37460 0.77950 -0.08500
H 	H 	0.09850 0.35800 0.75890 0.07300
H 	H 	0.11180 0.35470 0.79610 0.07100
C 	C 	0.08865 0.38170 0.78720 0.16600
C 	C 	0.09400 0.40760 0.81950 -0.50000
H 	H 	0.10180 0.38700 0.83690 0.18200
H 	H 	0.09960 0.43810 0.82010 0.17600
H 	H 	0.08390 0.41390 0.82160 0.16500
O 	O 	0.16749 0.00040 0.80520 -0.20800
O 	O 	0.16677 0.93730 0.72760 -0.21500
O 	O 	0.19801 0.04200 0.78540 -0.20600
N 	N 	0.14337 0.12520 0.88240 -0.21300
N 	N 	0.14790 0.06920 0.84000 -0.21500
N 	N 	0.12545 0.82040 0.60290 -0.21100
N 	N 	0.14622 0.88100 0.65270 -0.20700
N 	N 	0.22759 0.24060 0.77440 -0.20700
N 	N 	0.22050 0.14840 0.78760 -0.20400
C 	C 	0.14029 0.15400 0.90340 0.00500
C 	C 	0.15301 0.17840 0.92860 0.01000
H 	H 	0.16430 0.17600 0.93240 0.02200
C 	C 	0.14942 0.20650 0.94840 -0.20700
H 	H 	0.15830 0.22260 0.96590 0.09100
C 	C 	0.13325 0.21100 0.94300 0.24100
C 	C 	0.12042 0.18760 0.91750 -0.19100
H 	H 	0.10910 0.19110 0.91320 0.08700
C 	C 	0.12405 0.15830 0.89730 -0.01100
H 	H 	0.11520 0.14210 0.87980 0.00400
C 	C 	0.12920 0.24240 0.96400 -0.58600
H 	H 	0.13420 0.27430 0.96600 0.18800
H 	H 	0.11690 0.24550 0.95470 0.18500
H 	H 	0.13380 0.22770 0.98510 0.18800
C 	C 	0.15678 0.10010 0.89210 -0.04700
H 	H 	0.16490 0.10070 0.91400 0.04200
C 	C 	0.16010 0.07080 0.87090 0.03300
C 	C 	0.17528 0.04760 0.88180 -0.03500
H 	H 	0.18360 0.04980 0.90350 0.03600
C 	C 	0.17840 0.02090 0.86110 -0.11900
H 	H 	0.18840 0.00220 0.86830 0.07000
C 	C 	0.16651 0.02260 0.82970 0.14500
C 	C 	0.15140 0.04440 0.82040 -0.05500
H 	H 	0.14290 0.04180 0.79890 0.03800
C 	C 	0.18277 0.97630 0.81160 -0.07700
H 	H 	0.19270 0.99570 0.82600 0.06200
H 	H 	0.18350 0.94470 0.82160 0.04200
C 	C 	0.11496 0.78830 0.57690 0.01500
C 	C 	0.09920 0.77390 0.57060 -0.00300
H 	H 	0.09420 0.78750 0.58220 0.02600
C 	C 	0.09030 0.74000 0.54760 -0.17800
H 	H 	0.08020 0.72620 0.54590 0.07600
C 	C 	0.09620 0.72610 0.52690 0.21400
C 	C 	0.11150 0.74080 0.53270 -0.18400
H 	H 	0.11560 0.73080 0.51890 0.08000
C 	C 	0.12190 0.77110 0.55920 -0.02000
H 	H 	0.13320 0.77890 0.56430 0.01100
C 	C 	0.08520 0.69300 0.49850 -0.57200
H 	H 	0.08290 0.66300 0.50620 0.19300
H 	H 	0.07460 0.70930 0.48430 0.17800
H 	H 	0.09130 0.68590 0.48690 0.18500
C 	C 	0.12390 0.82200 0.62770 -0.03400
H 	H 	0.11540 0.80270 0.62840 0.03900
C 	C 	0.13460 0.85220 0.65540 0.02400
C 	C 	0.13220 0.85500 0.68110 -0.03300
H 	H 	0.12290 0.83880 0.68080 0.03100
C 	C 	0.14310 0.88110 0.70780 -0.13300
H 	H 	0.14250 0.87960 0.72680 0.06600
C 	C 	0.15501 0.90930 0.70530 0.14700
C 	C 	0.15634 0.90690 0.67770 -0.05400
H 	H 	0.16500 0.92500 0.67680 0.04200
C 	C 	0.16654 0.94170 0.75750 -0.08400
H 	H 	0.15620 0.95900 0.75420 0.06600
H 	H 	0.16670 0.90950 0.76630 0.04600
C 	C 	0.23170 0.28450 0.76400 0.02800
C 	C 	0.23070 0.28710 0.73500 -0.01600
H 	H 	0.22680 0.26030 0.72110 0.03500
C 	C 	0.23530 0.32860 0.72600 -0.16200
H 	H 	0.23430 0.33050 0.70550 0.07400
C 	C 	0.24140 0.36790 0.74620 0.18800
C 	C 	0.24170 0.36560 0.77410 -0.16800
H 	H 	0.24510 0.39290 0.78760 0.07300
C 	C 	0.23690 0.32350 0.78350 -0.02100
H 	H 	0.23740 0.32210 0.80350 0.02600
C 	C 	0.24630 0.41500 0.73520 -0.52000
H 	H 	0.25680 0.41010 0.73460 0.16500
H 	H 	0.23720 0.42360 0.71390 0.16000
H 	H 	0.24780 0.44100 0.75000 0.15900
C 	C 	0.21367 0.22150 0.75610 -0.02900
H 	H 	0.20590 0.23840 0.73760 0.04000
C 	C 	0.20894 0.17350 0.76230 0.03300
C 	C 	0.19320 0.15540 0.74440 -0.03500
H 	H 	0.18520 0.17400 0.72710 0.03800
C 	C 	0.18840 0.11050 0.75010 -0.11400
H 	H 	0.17750 0.09730 0.73670 0.06900
C 	C 	0.20030 0.08640 0.77630 0.13900
C 	C 	0.21619 0.10710 0.79390 -0.04200
H 	H 	0.22440 0.08990 0.81180 0.03000
C 	C 	0.18164 0.01930 0.76530 -0.08500
H 	H 	0.17240 0.03900 0.76470 0.07200
H 	H 	0.17970 0.01570 0.74340 0.07000
C 	C 	0.18222 0.96970 0.77980 0.17000
C 	C 	0.19816 0.94230 0.78520 -0.49400
H 	H 	0.19760 0.90920 0.79150 0.15200
H 	H 	0.19880 0.94220 0.76550 0.17600
H 	H 	0.20820 0.95820 0.80190 0.16800
O 	O 	0.13593 0.94200 0.48490 -0.20100
O 	O 	0.09933 0.01070 0.40770 -0.21000
O 	O 	0.14987 0.04150 0.46170 -0.20400
N 	N 	0.16443 0.81970 0.60840 -0.20900
N 	N 	0.14710 0.87800 0.55610 -0.20800
N 	N 	0.02611 0.07690 0.36670 -0.21500
N 	N 	0.05914 0.06310 0.38200 -0.21100
N 	N 	0.19613 0.21860 0.52630 -0.20700
N 	N 	0.17964 0.13670 0.49330 -0.20400
C 	C 	0.17132 0.78570 0.63340 0.01400
C 	C 	0.17050 0.73780 0.62710 0.01000
H 	H 	0.16540 0.72730 0.60570 0.02400
C 	C 	0.17700 0.70380 0.65110 -0.20000
H 	H 	0.17660 0.67060 0.64610 0.09000
C 	C 	0.18400 0.71820 0.68240 0.24900
C 	C 	0.18500 0.76670 0.68850 -0.19600
H 	H 	0.19050 0.77750 0.70980 0.08400
C 	C 	0.17800 0.80120 0.66330 -0.00700
H 	H 	0.17810 0.83450 0.66780 0.01100
C 	C 	0.19100 0.68010 0.70760 -0.62100
H 	H 	0.19590 0.69530 0.72850 0.20200
H 	H 	0.18200 0.65820 0.70500 0.20200
H 	H 	0.19980 0.66200 0.70580 0.19800
C 	C 	0.16660 0.81490 0.58420 -0.04700
H 	H 	0.17400 0.79050 0.58460 0.04600
C 	C 	0.15826 0.84520 0.55630 0.03100
C 	C 	0.16271 0.84340 0.53310 -0.04600
H 	H 	0.17060 0.82010 0.53410 0.03200
C 	C 	0.15564 0.87560 0.50790 -0.12200
H 	H 	0.15880 0.87590 0.49190 0.07100
C 	C 	0.14383 0.90690 0.50750 0.14200
C 	C 	0.14010 0.90760 0.53160 -0.05700
H 	H 	0.13210 0.93050 0.53080 0.04300
C 	C 	0.13905 0.94250 0.45800 -0.09700
H 	H 	0.15110 0.94920 0.46520 0.07200
H 	H 	0.13610 0.91110 0.44700 0.06200
C 	C 	0.00850 0.08550 0.35700 0.01700
C 	C 	0.99980 0.11860 0.33420 -0.01900
H 	H 	0.00520 0.13430 0.32420 0.01600
C 	C 	0.98330 0.13010 0.32520 -0.16800
H 	H 	0.97800 0.15620 0.31110 0.08000
C 	C 	0.97450 0.10390 0.33660 0.19600
C 	C 	0.98280 0.06910 0.35790 -0.17700
H 	H 	0.97660 0.05030 0.36520 0.07100
C 	C 	0.00040 0.05880 0.37020 -0.01400
H 	H 	0.00610 0.03540 0.38630 0.02600
C 	C 	0.95620 0.11740 0.32800 -0.52800
H 	H 	0.95480 0.11440 0.34680 0.16300
H 	H 	0.95400 0.15070 0.32030 0.16600
H 	H 	0.94830 0.09580 0.31140 0.15900
C 	C 	0.03247 0.03480 0.37450 -0.03700
H 	H 	0.02560 0.00940 0.37500 0.03800
C 	C 	0.04998 0.02400 0.38270 0.02900
C 	C 	0.05697 0.97930 0.39290 -0.03600
H 	H 	0.05020 0.95360 0.39330 0.03200
C 	C 	0.07393 0.97170 0.40260 -0.12000
H 	H 	0.07920 0.94180 0.41120 0.06600
C 	C 	0.08296 0.01010 0.39920 0.14600
C 	C 	0.07520 0.05560 0.38970 -0.05300
H 	H 	0.08170 0.08180 0.38870 0.04000
C 	C 	0.10962 0.97060 0.42610 -0.09000
H 	H 	0.10830 0.96550 0.44500 0.07000
H 	H 	0.10610 0.94080 0.41320 0.05800
C 	C 	0.20370 0.26420 0.54100 0.02000
C 	C 	0.19600 0.30710 0.52850 -0.00600
H 	H 	0.18520 0.30730 0.51020 0.03100
C 	C 	0.20360 0.34980 0.54190 -0.17100
H 	H 	0.19800 0.37920 0.53290 0.07800
C 	C 	0.21950 0.35060 0.56850 0.19700
C 	C 	0.22700 0.30880 0.58060 -0.17600
H 	H 	0.23780 0.30870 0.59920 0.07900
C 	C 	0.21950 0.26480 0.56650 -0.01200
H 	H 	0.22550 0.23550 0.57470 0.01800
C 	C 	0.22810 0.39950 0.58310 -0.52100
H 	H 	0.23260 0.39860 0.60610 0.16000
H 	H 	0.23730 0.40530 0.57850 0.16500
H 	H 	0.21970 0.42550 0.57400 0.15600
C 	C 	0.18066 0.21300 0.51820 -0.03300
H 	H 	0.17480 0.23800 0.52210 0.04200
C 	C 	0.17167 0.16880 0.50270 0.03800
C 	C 	0.15615 0.16120 0.49770 -0.04000
H 	H 	0.15100 0.18390 0.50500 0.03900
C 	C 	0.14720 0.11970 0.48160 -0.11700
H 	H 	0.13570 0.11550 0.47600 0.07000
C 	C 	0.15567 0.08570 0.47440 0.14100
C 	C 	0.17214 0.09640 0.48050 -0.04300
H 	H 	0.17800 0.07330 0.47500 0.03500
C 	C 	0.13263 0.03100 0.45290 -0.08000
H 	H 	0.13120 0.03000 0.47200 0.07200
H 	H 	0.12510 0.05630 0.43860 0.06800
C 	C 	0.12793 0.98220 0.43610 0.17900
C 	C 	0.13050 0.98350 0.40650 -0.51600
H 	H 	0.14230 0.99190 0.41310 0.18300
H 	H 	0.12800 0.95190 0.39640 0.16700
H 	H 	0.12300 0.00760 0.39150 0.18900
Cd	Cd	0.29328 0.66431 0.99773 1.18900
Cd	Cd	0.39255 0.00795 0.05405 1.18900
Cd	Cd	0.34598 0.04839 0.73361 1.19000
Cd	Cd	0.25255 0.68805 0.68579 1.19000
Cd	Cd	0.35577 0.37868 0.89758 1.18900
Cd	Cd	0.45398 0.63650 0.12451 1.19200
Cd	Cd	0.46622 0.86298 0.89949 1.19000
Cd	Cd	0.37444 0.62111 0.67284 1.18900
O 	O 	0.27486 0.56300 0.88560 -0.21100
O 	O 	0.26108 0.58460 0.79140 -0.21800
O 	O 	0.29826 0.49750 0.85600 -0.21100
N 	N 	0.28414 0.60430 0.01960 -0.21700
N 	N 	0.28068 0.60410 0.95970 -0.21100
N 	N 	0.23099 0.73950 0.68420 -0.20500
N 	N 	0.24657 0.66370 0.72520 -0.21200
N 	N 	0.37452 0.44380 0.91250 -0.21000
N 	N 	0.33960 0.45040 0.88480 -0.20700
C 	C 	0.28460 0.60660 0.04920 0.02100
C 	C 	0.27050 0.59740 0.05210 -0.00900
H 	H 	0.26000 0.59030 0.03390 0.02600
C 	C 	0.27160 0.59830 0.08170 -0.18200
H 	H 	0.26220 0.58800 0.08380 0.07200
C 	C 	0.28590 0.61360 0.10810 0.21200
C 	C 	0.29980 0.62270 0.10500 -0.18300
H 	H 	0.31010 0.63010 0.12340 0.08100
C 	C 	0.29920 0.62140 0.07510 -0.02000
H 	H 	0.30870 0.63050 0.07310 0.01400
C 	C 	0.28590 0.62410 0.13900 -0.56200
H 	H 	0.28370 0.65830 0.14000 0.17300
H 	H 	0.27720 0.60480 0.14010 0.17200
H 	H 	0.29700 0.61580 0.15680 0.17000
C 	C 	0.27690 0.56870 0.00140 -0.03900
H 	H 	0.27280 0.54300 0.00860 0.04000
C 	C 	0.27490 0.56660 0.96950 0.02900
C 	C 	0.26810 0.52690 0.95100 -0.03100
H 	H 	0.26400 0.50100 0.95830 0.03100
C 	C 	0.26730 0.52450 0.92170 -0.12800
H 	H 	0.26260 0.49720 0.90840 0.06700
C 	C 	0.27330 0.56230 0.91240 0.15200
C 	C 	0.27990 0.60100 0.93140 -0.06300
H 	H 	0.28400 0.62700 0.92440 0.04200
C 	C 	0.26890 0.52120 0.86540 -0.07300
H 	H 	0.27590 0.49280 0.87650 0.05400
H 	H 	0.25700 0.51440 0.85920 0.04600
C 	C 	0.22263 0.77750 0.66190 0.01300
C 	C 	0.21834 0.77050 0.63100 -0.00200
H 	H 	0.22000 0.73960 0.62460 0.01000
C 	C 	0.21170 0.80600 0.60890 -0.19000
H 	H 	0.20890 0.79980 0.58760 0.08500
C 	C 	0.20910 0.85150 0.61780 0.23100
C 	C 	0.21260 0.85870 0.64790 -0.19900
H 	H 	0.21010 0.88910 0.65370 0.09100
C 	C 	0.21990 0.82180 0.67130 0.00400
H 	H 	0.22280 0.82770 0.69280 0.02700
C 	C 	0.20170 0.89320 0.59410 -0.58500
H 	H 	0.19980 0.88270 0.57330 0.19100
H 	H 	0.20960 0.92030 0.60150 0.19400
H 	H 	0.19090 0.90340 0.59250 0.19500
C 	C 	0.22952 0.73570 0.70910 -0.03800
H 	H 	0.22280 0.75850 0.71260 0.04300
C 	C 	0.23786 0.69710 0.73240 0.02900
C 	C 	0.23588 0.69310 0.75820 -0.04200
H 	H 	0.22880 0.71540 0.76110 0.03000
C 	C 	0.24390 0.65720 0.78080 -0.12100
H 	H 	0.24320 0.65590 0.79980 0.06600
C 	C 	0.25290 0.62340 0.77380 0.14000
C 	C 	0.25378 0.62780 0.74570 -0.05800
H 	H 	0.25980 0.60400 0.74100 0.03600
C 	C 	0.26020 0.57850 0.82020 -0.07200
H 	H 	0.26500 0.60690 0.83410 0.06200
H 	H 	0.24830 0.57430 0.81540 0.05100
C 	C 	0.39262 0.44110 0.92570 0.00200
C 	C 	0.40190 0.46920 0.91670 0.01500
H 	H 	0.39640 0.49320 0.90100 0.02300
C 	C 	0.41910 0.46340 0.92990 -0.20200
H 	H 	0.42540 0.48410 0.92390 0.08400
C 	C 	0.42720 0.42780 0.95190 0.23400
C 	C 	0.41840 0.39900 0.96060 -0.20900
H 	H 	0.42390 0.37450 0.97590 0.09200
C 	C 	0.40100 0.40540 0.94690 0.01200
H 	H 	0.39470 0.38400 0.95260 -0.00100
C 	C 	0.44640 0.42160 0.96710 -0.56300
H 	H 	0.44900 0.39830 0.95480 0.17300
H 	H 	0.45160 0.45260 0.96730 0.17000
H 	H 	0.45090 0.40990 0.98880 0.17600
C 	C 	0.36737 0.48420 0.90500 -0.03300
H 	H 	0.37430 0.51200 0.90940 0.04200
C 	C 	0.34906 0.49060 0.88990 0.03300
C 	C 	0.34172 0.53530 0.88350 -0.03300
H 	H 	0.34860 0.56310 0.88730 0.03700
C 	C 	0.32431 0.54040 0.87140 -0.12000
H 	H 	0.31910 0.57120 0.86670 0.07100
C 	C 	0.31512 0.49980 0.86650 0.14200
C 	C 	0.32352 0.45550 0.87320 -0.04300
H 	H 	0.31690 0.42720 0.86880 0.02600
C 	C 	0.28896 0.54250 0.84590 -0.08100
H 	H 	0.29380 0.56620 0.86340 0.07000
H 	H 	0.28980 0.55590 0.82770 0.06900
C 	C 	0.27064 0.53310 0.83640 0.15900
C 	C 	0.26320 0.49060 0.81240 -0.48300
H 	H 	0.26300 0.49930 0.79260 0.16900
H 	H 	0.27020 0.46200 0.82150 0.17000
H 	H 	0.25160 0.48400 0.80820 0.15200
O 	O 	0.40226 0.07610 0.95500 -0.21500
O 	O 	0.39232 0.08720 0.86050 -0.21000
O 	O 	0.42349 0.00650 0.90780 -0.20800
N 	N 	0.37220 0.06630 0.04670 -0.21100
N 	N 	0.38952 0.05980 0.01320 -0.20600
N 	N 	0.36131 0.08990 0.71350 -0.21100
N 	N 	0.36991 0.08290 0.77660 -0.21000
N 	N 	0.44775 0.80090 0.89580 -0.21000
N 	N 	0.44256 0.89750 0.90240 -0.20500
C 	C 	0.36331 0.06560 0.06380 0.00500
C 	C 	0.34619 0.07200 0.05010 0.01300
H 	H 	0.33980 0.07840 0.02810 0.02200
C 	C 	0.33800 0.06920 0.06810 -0.22200
H 	H 	0.32630 0.07650 0.05870 0.08800
C 	C 	0.34680 0.05600 0.09920 0.25600
C 	C 	0.36400 0.05110 0.11340 -0.20700
H 	H 	0.37050 0.04600 0.13560 0.09400
C 	C 	0.37240 0.05370 0.09490 -0.01000
H 	H 	0.38420 0.04710 0.10420 0.00000
C 	C 	0.33830 0.04700 0.11890 -0.63300
H 	H 	0.32600 0.04950 0.10550 0.20300
H 	H 	0.34110 0.01470 0.12810 0.20800
H 	H 	0.34210 0.07090 0.13590 0.20900
C 	C 	0.36812 0.09380 0.02250 -0.04100
H 	H 	0.35950 0.11720 0.01720 0.03800
C 	C 	0.37623 0.09030 0.00300 0.03100
C 	C 	0.37086 0.11830 0.97650 -0.03400
H 	H 	0.36170 0.14020 0.97030 0.03100
C 	C 	0.37902 0.11370 0.95910 -0.12900
H 	H 	0.37540 0.13190 0.94030 0.07400
C 	C 	0.39233 0.08300 0.96900 0.14300
C 	C 	0.39749 0.05730 0.99620 -0.06100
H 	H 	0.40710 0.03690 0.00320 0.04300
C 	C 	0.39812 0.09690 0.92480 -0.07400
H 	H 	0.38670 0.08660 0.90840 0.06200
H 	H 	0.39830 0.13240 0.92610 0.05400
C 	C 	0.35639 0.08840 0.68070 0.01200
C 	C 	0.33998 0.09520 0.65840 -0.01900
H 	H 	0.33200 0.10310 0.66500 0.01400
C 	C 	0.33460 0.09100 0.62660 -0.17800
H 	H 	0.32310 0.09620 0.61150 0.07800
C 	C 	0.34610 0.07920 0.61660 0.19600
C 	C 	0.36250 0.07290 0.63860 -0.17900
H 	H 	0.37040 0.06500 0.63170 0.09000
C 	C 	0.36839 0.07750 0.67160 -0.01200
H 	H 	0.38000 0.07340 0.68680 0.03000
C 	C 	0.34130 0.07360 0.58110 -0.53800
H 	H 	0.33180 0.09500 0.56810 0.17300
H 	H 	0.35110 0.08200 0.57850 0.17800
H 	H 	0.33800 0.04020 0.57440 0.17500
C 	C 	0.37530 0.10750 0.73500 -0.04400
H 	H 	0.38260 0.12230 0.72870 0.04100
C 	C 	0.38052 0.10580 0.76880 0.03800
C 	C 	0.39590 0.12190 0.79110 -0.04000
H 	H 	0.40350 0.13520 0.78480 0.03500
C 	C 	0.40070 0.11900 0.82320 -0.11600
H 	H 	0.41120 0.13160 0.83900 0.06400
C 	C 	0.38952 0.09680 0.83130 0.14900
C 	C 	0.37421 0.07940 0.80710 -0.05600
H 	H 	0.36660 0.06440 0.81250 0.03700
C 	C 	0.40875 0.10170 0.88580 -0.07200
H 	H 	0.41770 0.09130 0.88100 0.06000
H 	H 	0.40920 0.13720 0.88790 0.04800
C 	C 	0.45240 0.75110 0.89700 0.00700
C 	C 	0.45350 0.72180 0.92060 0.01000
H 	H 	0.45120 0.73440 0.93640 0.02700
C 	C 	0.45780 0.67470 0.92170 -0.19000
H 	H 	0.45770 0.65430 0.93730 0.08300
C 	C 	0.46240 0.65630 0.90080 0.21400
C 	C 	0.46150 0.68450 0.87780 -0.18900
H 	H 	0.46500 0.67240 0.86340 0.08300
C 	C 	0.45560 0.73190 0.87460 -0.00400
H 	H 	0.45390 0.75060 0.85680 0.01400
C 	C 	0.46860 0.60340 0.90510 -0.53700
H 	H 	0.46560 0.58960 0.88440 0.16200
H 	H 	0.48090 0.60250 0.91860 0.16500
H 	H 	0.46320 0.58470 0.91490 0.16300
C 	C 	0.43600 0.81250 0.90130 -0.03000
H 	H 	0.42960 0.78810 0.90450 0.04000
C 	C 	0.43200 0.86390 0.90280 0.03400
C 	C 	0.41950 0.87520 0.90980 -0.03900
H 	H 	0.41360 0.85050 0.91390 0.03800
C 	C 	0.41538 0.92370 0.91070 -0.11600
H 	H 	0.40610 0.93240 0.91370 0.06800
C 	C 	0.42511 0.95780 0.90720 0.13400
C 	C 	0.43862 0.94220 0.90250 -0.04300
H 	H 	0.44520 0.96590 0.89940 0.03200
C 	C 	0.41016 0.02370 0.91390 -0.07400
H 	H 	0.39890 0.01440 0.89630 0.06800
H 	H 	0.41150 0.00960 0.93370 0.06400
C 	C 	0.41165 0.07870 0.91670 0.15400
C 	C 	0.42979 0.09320 0.94280 -0.47400
H 	H 	0.43020 0.12800 0.94630 0.15400
H 	H 	0.43250 0.07640 0.96260 0.16800
H 	H 	0.43800 0.08430 0.93600 0.16100
O 	O 	0.31176 0.90440 0.64240 -0.21600
O 	O 	0.28521 0.78010 0.62880 -0.20700
O 	O 	0.32564 0.76570 0.64330 -0.20300
N 	N 	0.32250 0.09860 0.71590 -0.21600
N 	N 	0.32360 0.01200 0.68790 -0.20000
N 	N 	0.23544 0.64080 0.64260 -0.22000
N 	N 	0.25842 0.70800 0.64590 -0.21600
N 	N 	0.38533 0.62960 0.72890 -0.20400
N 	N 	0.35951 0.68280 0.68170 -0.20900
C 	C 	0.32280 0.14740 0.72440 0.01400
C 	C 	0.33580 0.16470 0.75260 -0.01600
H 	H 	0.34390 0.14290 0.76720 0.00300
C 	C 	0.33710 0.21360 0.75990 -0.19000
H 	H 	0.34620 0.22500 0.77920 0.08800
C 	C 	0.32530 0.24530 0.73910 0.22100
C 	C 	0.31160 0.22750 0.71230 -0.19000
H 	H 	0.30320 0.24900 0.69800 0.07500
C 	C 	0.30990 0.17730 0.70570 -0.01000
H 	H 	0.29990 0.16480 0.68850 0.02500
C 	C 	0.32550 0.29820 0.74680 -0.57700
H 	H 	0.32770 0.31730 0.73210 0.18000
H 	H 	0.31460 0.30730 0.74480 0.18100
H 	H 	0.33450 0.30410 0.76860 0.19100
C 	C 	0.30910 0.07710 0.69610 -0.04300
H 	H 	0.29860 0.09260 0.68990 0.04200
C 	C 	0.30873 0.03060 0.68220 0.03100
C 	C 	0.29400 0.00490 0.66630 -0.03200
H 	H 	0.28360 0.01710 0.66400 0.03300
C 	C 	0.29460 0.96120 0.65390 -0.12200
H 	H 	0.28470 0.94190 0.64360 0.06700
C 	C 	0.30941 0.94540 0.65620 0.14200
C 	C 	0.32369 0.96970 0.67500 -0.06100
H 	H 	0.33420 0.95620 0.67930 0.04400
C 	C 	0.29756 0.87300 0.62580 -0.07900
H 	H 	0.29220 0.86590 0.63890 0.06400
H 	H 	0.28910 0.88820 0.60580 0.05000
C 	C 	0.22316 0.60520 0.64120 0.00800
C 	C 	0.21270 0.61650 0.65300 -0.01200
H 	H 	0.21380 0.64690 0.66270 0.01200
C 	C 	0.20060 0.58460 0.65120 -0.18700
H 	H 	0.19300 0.59380 0.65840 0.08000
C 	C 	0.19970 0.53890 0.63880 0.21100
C 	C 	0.21110 0.52670 0.62990 -0.19500
H 	H 	0.21130 0.49440 0.62360 0.07700
C 	C 	0.22310 0.55990 0.62950 -0.01300
H 	H 	0.23060 0.55130 0.62170 0.02000
C 	C 	0.18700 0.50070 0.63750 -0.56200
H 	H 	0.17570 0.50790 0.61990 0.18100
H 	H 	0.19060 0.46880 0.63450 0.17800
H 	H 	0.18660 0.50120 0.65740 0.18200
C 	C 	0.23763 0.64590 0.61850 -0.03900
H 	H 	0.23130 0.62670 0.60020 0.03600
C 	C 	0.24984 0.68120 0.61880 0.02800
C 	C 	0.25218 0.68800 0.59330 -0.03700
H 	H 	0.24580 0.66960 0.57460 0.03300
C 	C 	0.26382 0.72160 0.59390 -0.11500
H 	H 	0.26560 0.72630 0.57630 0.06400
C 	C 	0.27279 0.74800 0.62200 0.14100
C 	C 	0.26965 0.73940 0.64730 -0.04600
H 	H 	0.27600 0.75700 0.66640 0.03700
C 	C 	0.28992 0.78990 0.60480 -0.07700
H 	H 	0.29370 0.76010 0.59900 0.06400
H 	H 	0.28020 0.80310 0.58560 0.04700
C 	C 	0.40070 0.60770 0.75200 0.02600
C 	C 	0.41550 0.63280 0.77050 -0.02000
H 	H 	0.41580 0.66660 0.76820 0.03600
C 	C 	0.42990 0.60800 0.79280 -0.15900
H 	H 	0.44010 0.62530 0.80520 0.07500
C 	C 	0.42950 0.55880 0.79670 0.18500
C 	C 	0.41510 0.53470 0.77860 -0.16800
H 	H 	0.41460 0.50110 0.78140 0.07400
C 	C 	0.40110 0.55910 0.75550 -0.01700
H 	H 	0.39130 0.54100 0.74160 0.02100
C 	C 	0.44540 0.53090 0.82080 -0.50200
H 	H 	0.45130 0.54930 0.84050 0.15300
H 	H 	0.44210 0.49950 0.82510 0.15500
H 	H 	0.45310 0.52630 0.81190 0.15100
C 	C 	0.38031 0.66740 0.73600 -0.03300
H 	H 	0.38600 0.67820 0.75740 0.04300
C 	C 	0.36588 0.69550 0.71250 0.03700
C 	C 	0.35930 0.73160 0.72200 -0.03800
H 	H 	0.36420 0.73950 0.74380 0.03900
C 	C 	0.34550 0.75710 0.69960 -0.11500
H 	H 	0.34080 0.78290 0.70570 0.06900
C 	C 	0.33887 0.74420 0.66870 0.13800
C 	C 	0.34685 0.70730 0.66080 -0.03800
H 	H 	0.34270 0.70020 0.63900 0.03600
C 	C 	0.31900 0.80880 0.64970 -0.07600
H 	H 	0.31510 0.80190 0.66520 0.07100
H 	H 	0.32790 0.83370 0.65880 0.06700
C 	C 	0.30432 0.82670 0.61880 0.16400
C 	C 	0.31059 0.83500 0.59450 -0.49500
H 	H 	0.30120 0.84720 0.57470 0.15800
H 	H 	0.31980 0.85860 0.60300 0.17200
H 	H 	0.31470 0.80460 0.59050 0.17600
O 	O 	0.34859 0.74960 0.10050 -0.21300
O 	O 	0.38569 0.84680 0.11660 -0.21000
O 	O 	0.39745 0.72940 0.12180 -0.21000
N 	N 	0.27373 0.72420 0.99340 -0.20800
N 	N 	0.30726 0.71740 0.04070 -0.20400
N 	N 	0.41576 0.03860 0.09960 -0.21500
N 	N 	0.39795 0.95690 0.09660 -0.20900
N 	N 	0.44167 0.64000 0.06830 -0.20700
N 	N 	0.42674 0.67290 0.10320 -0.20400
C 	C 	0.25668 0.72770 0.96950 0.01300
C 	C 	0.24900 0.77120 0.95640 0.01900
H 	H 	0.25510 0.80040 0.96420 0.02400
C 	C 	0.23240 0.77220 0.93210 -0.21700
H 	H 	0.22690 0.80220 0.92460 0.10100
C 	C 	0.22390 0.73060 0.91870 0.25000
C 	C 	0.23140 0.68730 0.93210 -0.19600
H 	H 	0.22530 0.65820 0.92380 0.08600
C 	C 	0.24799 0.68580 0.95810 -0.01000
H 	H 	0.25300 0.65590 0.96740 0.00700
C 	C 	0.20640 0.73060 0.88990 -0.62100
H 	H 	0.20190 0.69780 0.88580 0.20000
H 	H 	0.19900 0.75170 0.89380 0.20600
H 	H 	0.20710 0.74230 0.87150 0.19400
C 	C 	0.28079 0.75880 0.01340 -0.03800
H 	H 	0.27400 0.78560 0.01240 0.04800
C 	C 	0.29848 0.75880 0.03730 0.03200
C 	C 	0.30620 0.79890 0.05540 -0.03400
H 	H 	0.29970 0.82670 0.05350 0.03100
C 	C 	0.32320 0.79890 0.07630 -0.13400
H 	H 	0.32880 0.82690 0.08800 0.06900
C 	C 	0.33186 0.75720 0.07950 0.14900
C 	C 	0.32370 0.71770 0.06210 -0.06400
H 	H 	0.33000 0.68900 0.06520 0.04500
C 	C 	0.35924 0.79120 0.11450 -0.08100
H 	H 	0.35740 0.81500 0.09790 0.06500
H 	H 	0.35650 0.80660 0.12990 0.05900
C 	C 	0.42530 0.08040 0.09960 0.01300
C 	C 	0.41740 0.11910 0.08100 -0.01900
H 	H 	0.40540 0.11880 0.06840 0.01100
C 	C 	0.42620 0.15880 0.07980 -0.16900
H 	H 	0.42040 0.18490 0.06620 0.06800
C 	C 	0.44370 0.16060 0.09840 0.19800
C 	C 	0.45140 0.12310 0.11760 -0.17800
H 	H 	0.46340 0.12410 0.13040 0.08100
C 	C 	0.44270 0.08190 0.11980 -0.00900
H 	H 	0.44850 0.05670 0.13430 0.02800
C 	C 	0.45470 0.20090 0.09560 -0.53800
H 	H 	0.44740 0.22380 0.07920 0.16600
H 	H 	0.46090 0.21770 0.11600 0.17100
H 	H 	0.46280 0.18680 0.09000 0.17800
C 	C 	0.42000 0.01570 0.12560 -0.03700
H 	H 	0.42890 0.02760 0.14510 0.03500
C 	C 	0.41122 0.97120 0.12510 0.02800
C 	C 	0.41530 0.94590 0.15230 -0.03500
H 	H 	0.42410 0.95740 0.17190 0.03300
C 	C 	0.40689 0.90390 0.15170 -0.11800
H 	H 	0.40940 0.88690 0.17060 0.06600
C 	C 	0.39452 0.88770 0.12210 0.14500
C 	C 	0.39004 0.91610 0.09530 -0.05600
H 	H 	0.38110 0.90580 0.07550 0.03400
C 	C 	0.38962 0.81650 0.14380 -0.07700
H 	H 	0.40150 0.80530 0.15380 0.06500
H 	H 	0.38790 0.83440 0.15980 0.05000
C 	C 	0.44850 0.62060 0.04930 0.02100
C 	C 	0.43910 0.59860 0.02070 -0.00800
H 	H 	0.42720 0.59600 0.01250 0.03200
C 	C 	0.44620 0.58020 0.00340 -0.16600
H 	H 	0.43940 0.56520 0.98350 0.07700
C 	C 	0.46370 0.58390 0.01580 0.19300
C 	C 	0.47320 0.60670 0.04360 -0.17400
H 	H 	0.48500 0.61120 0.05140 0.07900
C 	C 	0.46550 0.62340 0.06080 -0.01300
H 	H 	0.47240 0.63710 0.08120 0.00900
C 	C 	0.47140 0.56320 0.99610 -0.51500
H 	H 	0.46250 0.54820 0.97680 0.15500
H 	H 	0.48000 0.53900 0.00860 0.15500
H 	H 	0.47670 0.58910 0.99030 0.16000
C 	C 	0.42650 0.65190 0.05450 -0.02600
H 	H 	0.42020 0.64880 0.03210 0.03900
C 	C 	0.41776 0.67030 0.07130 0.03400
C 	C 	0.40139 0.68500 0.05480 -0.03400
H 	H 	0.39530 0.68250 0.03240 0.03700
C 	C 	0.39367 0.70350 0.07110 -0.11800
H 	H 	0.38210 0.71290 0.06010 0.07000
C 	C 	0.40279 0.70820 0.10300 0.13900
C 	C 	0.41983 0.69260 0.11810 -0.04000
H 	H 	0.42650 0.69680 0.14030 0.03300
C 	C 	0.38012 0.74650 0.10640 -0.07600
H 	H 	0.37800 0.76790 0.08850 0.07000
H 	H 	0.37220 0.71900 0.09810 0.06600
C 	C 	0.37750 0.77390 0.13110 0.16100
C 	C 	0.38090 0.74030 0.15970 -0.48200
H 	H 	0.37330 0.71250 0.15200 0.16900
H 	H 	0.39270 0.72910 0.16990 0.16200
H 	H 	0.37900 0.75820 0.17510 0.15900
O 	O 	0.47878 0.87070 0.02510 -0.21000
O 	O 	0.47303 0.81060 0.09660 -0.21000
O 	O 	0.44670 0.90640 0.05860 -0.20300
N 	N 	0.48830 0.80760 0.91110 -0.21100
N 	N 	0.47914 0.84360 0.95360 -0.20500
N 	N 	0.46098 0.65630 0.17630 -0.21300
N 	N 	0.46659 0.71100 0.13500 -0.21400
N 	N 	0.37174 0.96240 0.00940 -0.20000
N 	N 	0.40637 0.95270 0.03810 -0.21000
C 	C 	0.49340 0.79340 0.88890 0.02500
C 	C 	0.49810 0.74730 0.88720 -0.01400
H 	H 	0.49810 0.72400 0.90160 0.02900
C 	C 	0.50290 0.73350 0.86510 -0.17900
H 	H 	0.50570 0.70100 0.86390 0.07600
C 	C 	0.50350 0.76730 0.84500 0.19800
C 	C 	0.49920 0.81380 0.84780 -0.16700
H 	H 	0.49850 0.83680 0.83270 0.07700
C 	C 	0.49560 0.82990 0.87240 -0.04200
H 	H 	0.49480 0.86280 0.87660 0.02100
C 	C 	0.50860 0.75230 0.82050 -0.54600
H 	H 	0.50130 0.76850 0.80040 0.17100
H 	H 	0.52040 0.76140 0.82790 0.16700
H 	H 	0.50740 0.71740 0.81740 0.17000
C 	C 	0.49450 0.78930 0.93910 -0.04200
H 	H 	0.50200 0.76300 0.94440 0.03900
C 	C 	0.49040 0.80710 0.96280 0.03700
C 	C 	0.49840 0.79040 0.99310 -0.03400
H 	H 	0.50680 0.76600 0.99900 0.03000
C 	C 	0.49450 0.80850 0.01490 -0.12300
H 	H 	0.49910 0.79510 0.03560 0.06700
C 	C 	0.48364 0.84640 0.00610 0.14400
C 	C 	0.47540 0.86050 0.97530 -0.05900
H 	H 	0.46660 0.88340 0.96890 0.03900
C 	C 	0.48410 0.85250 0.05670 -0.09300
H 	H 	0.48150 0.81770 0.05600 0.06900
H 	H 	0.49650 0.85710 0.07040 0.05600
C 	C 	0.45640 0.62730 0.19590 0.01200
C 	C 	0.45820 0.57900 0.19590 -0.01500
H 	H 	0.46230 0.56450 0.18320 0.01500
C 	C 	0.45390 0.55090 0.21450 -0.17400
H 	H 	0.45540 0.51700 0.21480 0.08200
C 	C 	0.44750 0.57100 0.23290 0.21500
C 	C 	0.44660 0.61860 0.23430 -0.19000
H 	H 	0.44250 0.63250 0.24730 0.07900
C 	C 	0.45170 0.64890 0.21640 -0.00900
H 	H 	0.45180 0.68290 0.21860 0.02700
C 	C 	0.44240 0.53830 0.25270 -0.55000
H 	H 	0.45250 0.52410 0.27030 0.17400
H 	H 	0.43640 0.55750 0.26110 0.17000
H 	H 	0.43490 0.51260 0.23920 0.18300
C 	C 	0.46790 0.69790 0.18500 -0.04300
H 	H 	0.47150 0.70800 0.20610 0.04300
C 	C 	0.47050 0.73030 0.16400 0.03400
C 	C 	0.47770 0.77450 0.17340 -0.03500
H 	H 	0.48170 0.78490 0.19460 0.03500
C 	C 	0.47940 0.80450 0.15160 -0.12400
H 	H 	0.48440 0.83540 0.15770 0.06800
C 	C 	0.47350 0.78780 0.12130 0.15400
C 	C 	0.46730 0.74050 0.11380 -0.05600
H 	H 	0.46350 0.72900 0.09290 0.04100
C 	C 	0.47800 0.86030 0.10110 -0.08300
H 	H 	0.47160 0.87820 0.10950 0.06700
H 	H 	0.49020 0.86310 0.11650 0.05000
C 	C 	0.35400 0.97290 0.99430 0.00300
C 	C 	0.34568 0.99470 0.96540 0.01500
H 	H 	0.35130 0.99980 0.95340 0.02100
C 	C 	0.32936 0.00920 0.95380 -0.20300
H 	H 	0.32390 0.02540 0.93400 0.08900
C 	C 	0.32051 0.00110 0.97020 0.23900
C 	C 	0.32868 0.98000 0.99880 -0.21000
H 	H 	0.32300 0.97410 0.01060 0.08700
C 	C 	0.34564 0.96670 0.01130 0.00700
H 	H 	0.35150 0.95310 0.03190 0.00600
C 	C 	0.30212 0.01670 0.95590 -0.59000
H 	H 	0.29930 0.03790 0.93780 0.19000
H 	H 	0.29480 0.98830 0.94880 0.17800
H 	H 	0.30050 0.03400 0.97180 0.18600
C 	C 	0.37804 0.93980 0.99580 -0.02600
H 	H 	0.37070 0.92740 0.97530 0.03900
C 	C 	0.39628 0.93120 0.00970 0.03100
C 	C 	0.40266 0.89980 0.99640 -0.03200
H 	H 	0.39540 0.88490 0.97670 0.03600
C 	C 	0.41990 0.88980 0.01180 -0.12200
H 	H 	0.42450 0.86720 0.00330 0.07100
C 	C 	0.42990 0.91300 0.03930 0.14400
C 	C 	0.42237 0.94360 0.05170 -0.04200
H 	H 	0.42950 0.95860 0.07140 0.03500
C 	C 	0.45558 0.87800 0.04590 -0.09600
H 	H 	0.45180 0.84410 0.04320 0.07600
H 	H 	0.45320 0.89080 0.02510 0.07300
C 	C 	0.47437 0.88100 0.06920 0.18700
C 	C 	0.48070 0.93340 0.07610 -0.52900
H 	H 	0.47860 0.94910 0.05630 0.19200
H 	H 	0.47460 0.95080 0.08510 0.18500
H 	H 	0.49280 0.93380 0.09110 0.17500
O 	O 	0.40519 0.80190 0.69130 -0.21000
O 	O 	0.43080 0.88690 0.76800 -0.20700
O 	O 	0.39072 0.92180 0.72180 -0.20400
N 	N 	0.39872 0.57780 0.68240 -0.21300
N 	N 	0.39563 0.67800 0.68080 -0.20400
N 	N 	0.48234 0.93130 0.90840 -0.21800
N 	N 	0.45777 0.89750 0.85050 -0.21700
N 	N 	0.33743 0.99120 0.75900 -0.20800
N 	N 	0.36071 0.97690 0.73900 -0.20900
C 	C 	0.39980 0.52760 0.67850 0.00300
C 	C 	0.41156 0.50750 0.67160 0.01100
H 	H 	0.41950 0.52720 0.66930 0.02500
C 	C 	0.41160 0.45770 0.66820 -0.20500
H 	H 	0.41940 0.44400 0.66260 0.10000
C 	C 	0.40100 0.42790 0.67240 0.23700
C 	C 	0.38930 0.44750 0.67990 -0.19600
H 	H 	0.38190 0.42750 0.68340 0.08600
C 	C 	0.38870 0.49820 0.68210 -0.00800
H 	H 	0.38040 0.51220 0.68620 -0.00100
C 	C 	0.40090 0.37390 0.66780 -0.58800
H 	H 	0.39460 0.36640 0.64510 0.19700
H 	H 	0.41260 0.36240 0.67660 0.19200
H 	H 	0.39550 0.35800 0.67870 0.18200
C 	C 	0.41153 0.60510 0.69200 -0.04300
H 	H 	0.42220 0.59040 0.69920 0.04100
C 	C 	0.41097 0.65760 0.69290 0.03300
C 	C 	0.42524 0.68460 0.70520 -0.03600
H 	H 	0.43590 0.66920 0.71330 0.03200
C 	C 	0.42451 0.73400 0.70620 -0.12200
H 	H 	0.43440 0.75330 0.71540 0.06600
C 	C 	0.40855 0.75360 0.69290 0.14500
C 	C 	0.39475 0.72520 0.68100 -0.05500
H 	H 	0.38390 0.73990 0.67240 0.04500
C 	C 	0.41896 0.83180 0.71260 -0.07600
H 	H 	0.42460 0.81770 0.73410 0.06400
H 	H 	0.42740 0.83490 0.70530 0.05200
C 	C 	0.49560 0.94890 0.93870 0.00800
C 	C 	0.50830 0.91930 0.95870 -0.00600
H 	H 	0.50820 0.88670 0.95290 0.01900
C 	C 	0.52130 0.93530 0.98740 -0.18700
H 	H 	0.53030 0.91410 0.00030 0.08100
C 	C 	0.52140 0.98170 0.99720 0.22400
C 	C 	0.50830 0.01040 0.97860 -0.19500
H 	H 	0.50760 0.04120 0.98640 0.09900
C 	C 	0.49530 0.99670 0.94760 -0.01000
H 	H 	0.48700 0.01890 0.93390 0.02400
C 	C 	0.53510 0.00020 0.03000 -0.57500
H 	H 	0.54480 0.01230 0.02830 0.19200
H 	H 	0.53040 0.02620 0.03700 0.18800
H 	H 	0.53880 0.97380 0.04530 0.18700
C 	C 	0.47850 0.95650 0.88360 -0.04100
H 	H 	0.48400 0.98630 0.88580 0.03700
C 	C 	0.46570 0.94070 0.85220 0.02700
C 	C 	0.46250 0.96700 0.82600 -0.03800
H 	H 	0.46860 0.99590 0.82850 0.03400
C 	C 	0.45050 0.95280 0.79570 -0.11400
H 	H 	0.44790 0.97130 0.77730 0.06400
C 	C 	0.44250 0.90870 0.79440 0.14100
C 	C 	0.44650 0.88250 0.82190 -0.04600
H 	H 	0.44080 0.85280 0.82000 0.03400
C 	C 	0.42576 0.91160 0.73830 -0.07700
H 	H 	0.42180 0.94460 0.73890 0.06400
H 	H 	0.43530 0.91360 0.73390 0.04800
C 	C 	0.32302 0.99760 0.76340 0.01100
C 	C 	0.30970 0.96690 0.75120 0.00200
H 	H 	0.31030 0.93830 0.74110 0.03100
C 	C 	0.29530 0.97650 0.75330 -0.18600
H 	H 	0.28590 0.95510 0.74390 0.08300
C 	C 	0.29440 0.01720 0.76900 0.21900
C 	C 	0.30720 0.04800 0.77920 -0.19600
H 	H 	0.30640 0.07770 0.78820 0.07800
C 	C 	0.32170 0.03830 0.77720 -0.00500
H 	H 	0.33080 0.06060 0.78570 0.00500
C 	C 	0.27870 0.02860 0.77260 -0.57200
H 	H 	0.26850 0.01730 0.75380 0.18200
H 	H 	0.27980 0.01240 0.79150 0.18100
H 	H 	0.27800 0.06340 0.77480 0.18900
C 	C 	0.34330 0.94950 0.76050 -0.03000
H 	H 	0.34010 0.92440 0.76990 0.04100
C 	C 	0.35490 0.93890 0.74830 0.03500
C 	C 	0.36090 0.89330 0.74940 -0.03400
H 	H 	0.35690 0.86750 0.75690 0.03700
C 	C 	0.37270 0.88480 0.73970 -0.12000
H 	H 	0.37650 0.85310 0.73920 0.07100
C 	C 	0.37868 0.92330 0.73080 0.14200
C 	C 	0.37236 0.96880 0.73150 -0.04400
H 	H 	0.37700 0.99560 0.72620 0.03700
C 	C 	0.39725 0.87460 0.72050 -0.08500
H 	H 	0.40150 0.85800 0.74110 0.07300
H 	H 	0.38820 0.85470 0.70390 0.07100
C 	C 	0.41135 0.88170 0.71280 0.16600
C 	C 	0.40600 0.90760 0.68050 -0.50000
H 	H 	0.39820 0.88700 0.66310 0.18200
H 	H 	0.40040 0.93810 0.67990 0.17600
H 	H 	0.41610 0.91390 0.67840 0.16500
O 	O 	0.33251 0.50040 0.69480 -0.20800
O 	O 	0.33323 0.43730 0.77240 -0.21500
O 	O 	0.30199 0.54200 0.71460 -0.20600
N 	N 	0.35663 0.62520 0.61760 -0.21300
N 	N 	0.35210 0.56920 0.66000 -0.21500
N 	N 	0.37455 0.32040 0.89710 -0.21100
N 	N 	0.35378 0.38100 0.84730 -0.20700
N 	N 	0.27241 0.74060 0.72560 -0.20700
N 	N 	0.27950 0.64840 0.71240 -0.20400
C 	C 	0.35971 0.65400 0.59660 0.00500
C 	C 	0.34699 0.67840 0.57140 0.01000
H 	H 	0.33570 0.67600 0.56760 0.02200
C 	C 	0.35058 0.70650 0.55160 -0.20700
H 	H 	0.34170 0.72260 0.53410 0.09100
C 	C 	0.36675 0.71100 0.55700 0.24100
C 	C 	0.37958 0.68760 0.58250 -0.19100
H 	H 	0.39090 0.69110 0.58680 0.08700
C 	C 	0.37595 0.65830 0.60270 -0.01100
H 	H 	0.38480 0.64210 0.62020 0.00400
C 	C 	0.37080 0.74240 0.53600 -0.58600
H 	H 	0.36580 0.77430 0.53400 0.18800
H 	H 	0.38310 0.74550 0.54530 0.18500
H 	H 	0.36620 0.72770 0.51490 0.18800
C 	C 	0.34322 0.60010 0.60790 -0.04700
H 	H 	0.33510 0.60070 0.58600 0.04200
C 	C 	0.33990 0.57080 0.62910 0.03300
C 	C 	0.32472 0.54760 0.61820 -0.03500
H 	H 	0.31640 0.54980 0.59650 0.03600
C 	C 	0.32160 0.52090 0.63890 -0.11900
H 	H 	0.31160 0.50220 0.63170 0.07000
C 	C 	0.33349 0.52260 0.67030 0.14500
C 	C 	0.34860 0.54440 0.67960 -0.05500
H 	H 	0.35710 0.54180 0.70110 0.03800
C 	C 	0.31723 0.47630 0.68840 -0.07700
H 	H 	0.30730 0.49570 0.67400 0.06200
H 	H 	0.31650 0.44470 0.67840 0.04200
C 	C 	0.38504 0.28830 0.92310 0.01500
C 	C 	0.40080 0.27390 0.92940 -0.00300
H 	H 	0.40580 0.28750 0.91780 0.02600
C 	C 	0.40970 0.24000 0.95240 -0.17800
H 	H 	0.41980 0.22620 0.95410 0.07600
C 	C 	0.40380 0.22610 0.97310 0.21400
C 	C 	0.38850 0.24080 0.96730 -0.18400
H 	H 	0.38440 0.23080 0.98110 0.08000
C 	C 	0.37810 0.27110 0.94080 -0.02000
H 	H 	0.36680 0.27890 0.93570 0.01100
C 	C 	0.41480 0.19300 0.00150 -0.57200
H 	H 	0.41710 0.16300 0.99380 0.19300
H 	H 	0.42540 0.20930 0.01570 0.17800
H 	H 	0.40870 0.18590 0.01310 0.18500
C 	C 	0.37610 0.32200 0.87230 -0.03400
H 	H 	0.38460 0.30270 0.87160 0.03900
C 	C 	0.36540 0.35220 0.84460 0.02400
C 	C 	0.36780 0.35500 0.81890 -0.03300
H 	H 	0.37710 0.33880 0.81920 0.03100
C 	C 	0.35690 0.38110 0.79220 -0.13300
H 	H 	0.35750 0.37960 0.77320 0.06600
C 	C 	0.34499 0.40930 0.79470 0.14700
C 	C 	0.34366 0.40690 0.82230 -0.05400
H 	H 	0.33500 0.42500 0.82320 0.04200
C 	C 	0.33346 0.44170 0.74250 -0.08400
H 	H 	0.34380 0.45900 0.74580 0.06600
H 	H 	0.33330 0.40950 0.73370 0.04600
C 	C 	0.26830 0.78450 0.73600 0.02800
C 	C 	0.26930 0.78710 0.76500 -0.01600
H 	H 	0.27320 0.76030 0.77890 0.03500
C 	C 	0.26470 0.82860 0.77400 -0.16200
H 	H 	0.26570 0.83050 0.79450 0.07400
C 	C 	0.25860 0.86790 0.75380 0.18800
C 	C 	0.25830 0.86560 0.72590 -0.16800
H 	H 	0.25490 0.89290 0.71240 0.07300
C 	C 	0.26310 0.82350 0.71650 -0.02100
H 	H 	0.26260 0.82210 0.69650 0.02600
C 	C 	0.25370 0.91500 0.76480 -0.52000
H 	H 	0.24320 0.91010 0.76540 0.16500
H 	H 	0.26280 0.92360 0.78610 0.16000
H 	H 	0.25220 0.94100 0.75000 0.15900
C 	C 	0.28633 0.72150 0.74390 -0.02900
H 	H 	0.29410 0.73840 0.76240 0.04000
C 	C 	0.29106 0.67350 0.73770 0.03300
C 	C 	0.30680 0.65540 0.75560 -0.03500
H 	H 	0.31480 0.67400 0.77290 0.03800
C 	C 	0.31160 0.61050 0.74990 -0.11400
H 	H 	0.32250 0.59730 0.76330 0.06900
C 	C 	0.29970 0.58640 0.72370 0.13900
C 	C 	0.28381 0.60710 0.70610 -0.04200
H 	H 	0.27560 0.58990 0.68820 0.03000
C 	C 	0.31836 0.51930 0.73470 -0.08500
H 	H 	0.32760 0.53900 0.73530 0.07200
H 	H 	0.32030 0.51570 0.75660 0.07000
C 	C 	0.31778 0.46970 0.72020 0.17000
C 	C 	0.30184 0.44230 0.71480 -0.49400
H 	H 	0.30240 0.40920 0.70850 0.15200
H 	H 	0.30120 0.44220 0.73450 0.17600
H 	H 	0.29180 0.45820 0.69810 0.16800
O 	O 	0.36407 0.44200 0.01510 -0.20100
O 	O 	0.40067 0.51070 0.09230 -0.21000
O 	O 	0.35013 0.54150 0.03830 -0.20400
N 	N 	0.33557 0.31970 0.89160 -0.20900
N 	N 	0.35290 0.37800 0.94390 -0.20800
N 	N 	0.47389 0.57690 0.13330 -0.21500
N 	N 	0.44086 0.56310 0.11800 -0.21100
N 	N 	0.30387 0.71860 0.97370 -0.20700
N 	N 	0.32036 0.63670 0.00670 -0.20400
C 	C 	0.32868 0.28570 0.86660 0.01400
C 	C 	0.32950 0.23780 0.87290 0.01000
H 	H 	0.33460 0.22730 0.89430 0.02400
C 	C 	0.32300 0.20380 0.84890 -0.20000
H 	H 	0.32340 0.17060 0.85390 0.09000
C 	C 	0.31600 0.21820 0.81760 0.24900
C 	C 	0.31500 0.26670 0.81150 -0.19600
H 	H 	0.30950 0.27750 0.79020 0.08400
C 	C 	0.32200 0.30120 0.83670 -0.00700
H 	H 	0.32190 0.33450 0.83220 0.01100
C 	C 	0.30900 0.18010 0.79240 -0.62100
H 	H 	0.30410 0.19530 0.77150 0.20200
H 	H 	0.31800 0.15820 0.79500 0.20200
H 	H 	0.30020 0.16200 0.79420 0.19800
C 	C 	0.33340 0.31490 0.91580 -0.04700
H 	H 	0.32600 0.29050 0.91540 0.04600
C 	C 	0.34174 0.34520 0.94370 0.03100
C 	C 	0.33729 0.34340 0.96690 -0.04600
H 	H 	0.32940 0.32010 0.96590 0.03200
C 	C 	0.34436 0.37560 0.99210 -0.12200
H 	H 	0.34120 0.37590 0.00810 0.07100
C 	C 	0.35617 0.40690 0.99250 0.14200
C 	C 	0.35990 0.40760 0.96840 -0.05700
H 	H 	0.36790 0.43050 0.96920 0.04300
C 	C 	0.36095 0.44250 0.04200 -0.09700
H 	H 	0.34890 0.44920 0.03480 0.07200
H 	H 	0.36390 0.41110 0.05300 0.06200
C 	C 	0.49150 0.58550 0.14300 0.01700
C 	C 	0.50020 0.61860 0.16580 -0.01900
H 	H 	0.49480 0.63430 0.17580 0.01600
C 	C 	0.51670 0.63010 0.17480 -0.16800
H 	H 	0.52200 0.65620 0.18890 0.08000
C 	C 	0.52550 0.60390 0.16340 0.19600
C 	C 	0.51720 0.56910 0.14210 -0.17700
H 	H 	0.52340 0.55030 0.13480 0.07100
C 	C 	0.49960 0.55880 0.12980 -0.01400
H 	H 	0.49390 0.53540 0.11370 0.02600
C 	C 	0.54380 0.61740 0.17200 -0.52800
H 	H 	0.54520 0.61440 0.15320 0.16300
H 	H 	0.54600 0.65070 0.17970 0.16600
H 	H 	0.55170 0.59580 0.18860 0.15900
C 	C 	0.46753 0.53480 0.12550 -0.03700
H 	H 	0.47440 0.50940 0.12500 0.03800
C 	C 	0.45002 0.52400 0.11730 0.02900
C 	C 	0.44303 0.47930 0.10710 -0.03600
H 	H 	0.44980 0.45360 0.10670 0.03200
C 	C 	0.42607 0.47170 0.09740 -0.12000
H 	H 	0.42080 0.44180 0.08880 0.06600
C 	C 	0.41704 0.51010 0.10080 0.14600
C 	C 	0.42480 0.55560 0.11030 -0.05300
H 	H 	0.41830 0.58180 0.11130 0.04000
C 	C 	0.39038 0.47060 0.07390 -0.09000
H 	H 	0.39170 0.46550 0.05500 0.07000
H 	H 	0.39390 0.44080 0.08680 0.05800
C 	C 	0.29630 0.76420 0.95900 0.02000
C 	C 	0.30400 0.80710 0.97150 -0.00600
H 	H 	0.31480 0.80730 0.98980 0.03100
C 	C 	0.29640 0.84980 0.95810 -0.17100
H 	H 	0.30200 0.87920 0.96710 0.07800
C 	C 	0.28050 0.85060 0.93150 0.19700
C 	C 	0.27300 0.80880 0.91940 -0.17600
H 	H 	0.26220 0.80870 0.90080 0.07900
C 	C 	0.28050 0.76480 0.93350 -0.01200
H 	H 	0.27450 0.73550 0.92530 0.01800
C 	C 	0.27190 0.89950 0.91690 -0.52100
H 	H 	0.26740 0.89860 0.89390 0.16000
H 	H 	0.26270 0.90530 0.92150 0.16500
H 	H 	0.28030 0.92550 0.92600 0.15600
C 	C 	0.31934 0.71300 0.98180 -0.03300
H 	H 	0.32520 0.73800 0.97790 0.04200
C 	C 	0.32833 0.66880 0.99730 0.03800
C 	C 	0.34385 0.66120 0.00230 -0.04000
H 	H 	0.34900 0.68390 0.99500 0.03900
C 	C 	0.35280 0.61970 0.01840 -0.11700
H 	H 	0.36430 0.61550 0.02400 0.07000
C 	C 	0.34433 0.58570 0.02560 0.14100
C 	C 	0.32786 0.59640 0.01950 -0.04300
H 	H 	0.32200 0.57330 0.02500 0.03500
C 	C 	0.36737 0.53100 0.04710 -0.08000
H 	H 	0.36880 0.53000 0.02800 0.07200
H 	H 	0.37490 0.55630 0.06140 0.06800
C 	C 	0.37207 0.48220 0.06390 0.17900
C 	C 	0.36950 0.48350 0.09350 -0.51700
H 	H 	0.35770 0.49190 0.08690 0.18300
H 	H 	0.37200 0.45190 0.10360 0.16700
H 	H 	0.37700 0.50760 0.10850 0.18900
Cd	Cd	0.79328 0.16431 0.99773 1.18900
Cd	Cd	0.89255 0.50795 0.05405 1.18900
Cd	Cd	0.84598 0.54839 0.73361 1.19000
Cd	Cd	0.75255 0.18805 0.68579 1.19000
Cd	Cd	0.85577 0.87868 0.89758 1.18900
Cd	Cd	0.95398 0.13650 0.12451 1.19200
Cd	Cd	0.96622 0.36298 0.89949 1.19000
Cd	Cd	0.87444 0.12111 0.67284 1.18900
O 	O 	0.77486 0.06300 0.88560 -0.21100
O 	O 	0.76108 0.08460 0.79140 -0.21800
O 	O 	0.79826 0.99750 0.85600 -0.21100
N 	N 	0.78414 0.10430 0.01960 -0.21700
N 	N 	0.78068 0.10410 0.95970 -0.21100
N 	N 	0.73099 0.23950 0.68420 -0.20500
N 	N 	0.74657 0.16370 0.72520 -0.21200
N 	N 	0.87452 0.94380 0.91250 -0.21000
N 	N 	0.83960 0.95040 0.88480 -0.20700
C 	C 	0.78460 0.10660 0.04920 0.02100
C 	C 	0.77050 0.09740 0.05210 -0.00900
H 	H 	0.76000 0.09030 0.03390 0.02600
C 	C 	0.77160 0.09830 0.08170 -0.18200
H 	H 	0.76220 0.08800 0.08380 0.07200
C 	C 	0.78590 0.11360 0.10810 0.21200
C 	C 	0.79980 0.12270 0.10500 -0.18300
H 	H 	0.81010 0.13010 0.12340 0.08100
C 	C 	0.79920 0.12140 0.07510 -0.02000
H 	H 	0.80870 0.13050 0.07310 0.01400
C 	C 	0.78590 0.12410 0.13900 -0.56200
H 	H 	0.78370 0.15830 0.14000 0.17300
H 	H 	0.77720 0.10480 0.14010 0.17200
H 	H 	0.79700 0.11580 0.15680 0.17000
C 	C 	0.77690 0.06870 0.00140 -0.03900
H 	H 	0.77280 0.04300 0.00860 0.04000
C 	C 	0.77490 0.06660 0.96950 0.02900
C 	C 	0.76810 0.02690 0.95100 -0.03100
H 	H 	0.76400 0.00100 0.95830 0.03100
C 	C 	0.76730 0.02450 0.92170 -0.12800
H 	H 	0.76260 0.99720 0.90840 0.06700
C 	C 	0.77330 0.06230 0.91240 0.15200
C 	C 	0.77990 0.10100 0.93140 -0.06300
H 	H 	0.78400 0.12700 0.92440 0.04200
C 	C 	0.76890 0.02120 0.86540 -0.07300
H 	H 	0.77590 0.99280 0.87650 0.05400
H 	H 	0.75700 0.01440 0.85920 0.04600
C 	C 	0.72263 0.27750 0.66190 0.01300
C 	C 	0.71834 0.27050 0.63100 -0.00200
H 	H 	0.72000 0.23960 0.62460 0.01000
C 	C 	0.71170 0.30600 0.60890 -0.19000
H 	H 	0.70890 0.29980 0.58760 0.08500
C 	C 	0.70910 0.35150 0.61780 0.23100
C 	C 	0.71260 0.35870 0.64790 -0.19900
H 	H 	0.71010 0.38910 0.65370 0.09100
C 	C 	0.71990 0.32180 0.67130 0.00400
H 	H 	0.72280 0.32770 0.69280 0.02700
C 	C 	0.70170 0.39320 0.59410 -0.58500
H 	H 	0.69980 0.38270 0.57330 0.19100
H 	H 	0.70960 0.42030 0.60150 0.19400
H 	H 	0.69090 0.40340 0.59250 0.19500
C 	C 	0.72952 0.23570 0.70910 -0.03800
H 	H 	0.72280 0.25850 0.71260 0.04300
C 	C 	0.73786 0.19710 0.73240 0.02900
C 	C 	0.73588 0.19310 0.75820 -0.04200
H 	H 	0.72880 0.21540 0.76110 0.03000
C 	C 	0.74390 0.15720 0.78080 -0.12100
H 	H 	0.74320 0.15590 0.79980 0.06600
C 	C 	0.75290 0.12340 0.77380 0.14000
C 	C 	0.75378 0.12780 0.74570 -0.05800
H 	H 	0.75980 0.10400 0.74100 0.03600
C 	C 	0.76020 0.07850 0.82020 -0.07200
H 	H 	0.76500 0.10690 0.83410 0.06200
H 	H 	0.74830 0.07430 0.81540 0.05100
C 	C 	0.89262 0.94110 0.92570 0.00200
C 	C 	0.90190 0.96920 0.91670 0.01500
H 	H 	0.89640 0.99320 0.90100 0.02300
C 	C 	0.91910 0.96340 0.92990 -0.20200
H 	H 	0.92540 0.98410 0.92390 0.08400
C 	C 	0.92720 0.92780 0.95190 0.23400
C 	C 	0.91840 0.89900 0.96060 -0.20900
H 	H 	0.92390 0.87450 0.97590 0.09200
C 	C 	0.90100 0.90540 0.94690 0.01200
H 	H 	0.89470 0.88400 0.95260 -0.00100
C 	C 	0.94640 0.92160 0.96710 -0.56300
H 	H 	0.94900 0.89830 0.95480 0.17300
H 	H 	0.95160 0.95260 0.96730 0.17000
H 	H 	0.95090 0.90990 0.98880 0.17600
C 	C 	0.86737 0.98420 0.90500 -0.03300
H 	H 	0.87430 0.01200 0.90940 0.04200
C 	C 	0.84906 0.99060 0.88990 0.03300
C 	C 	0.84172 0.03530 0.88350 -0.03300
H 	H 	0.84860 0.06310 0.88730 0.03700
C 	C 	0.82431 0.04040 0.87140 -0.12000
H 	H 	0.81910 0.07120 0.86670 0.07100
C 	C 	0.81512 0.99980 0.86650 0.14200
C 	C 	0.82352 0.95550 0.87320 -0.04300
H 	H 	0.81690 0.92720 0.86880 0.02600
C 	C 	0.78896 0.04250 0.84590 -0.08100
H 	H 	0.79380 0.06620 0.86340 0.07000
H 	H 	0.78980 0.05590 0.82770 0.06900
C 	C 	0.77064 0.03310 0.83640 0.15900
C 	C 	0.76320 0.99060 0.81240 -0.48300
H 	H 	0.76300 0.99930 0.79260 0.16900
H 	H 	0.77020 0.96200 0.82150 0.17000
H 	H 	0.75160 0.98400 0.80820 0.15200
O 	O 	0.90226 0.57610 0.95500 -0.21500
O 	O 	0.89232 0.58720 0.86050 -0.21000
O 	O 	0.92349 0.50650 0.90780 -0.20800
N 	N 	0.87220 0.56630 0.04670 -0.21100
N 	N 	0.88952 0.55980 0.01320 -0.20600
N 	N 	0.86131 0.58990 0.71350 -0.21100
N 	N 	0.86991 0.58290 0.77660 -0.21000
N 	N 	0.94775 0.30090 0.89580 -0.21000
N 	N 	0.94256 0.39750 0.90240 -0.20500
C 	C 	0.86331 0.56560 0.06380 0.00500
C 	C 	0.84619 0.57200 0.05010 0.01300
H 	H 	0.83980 0.57840 0.02810 0.02200
C 	C 	0.83800 0.56920 0.06810 -0.22200
H 	H 	0.82630 0.57650 0.05870 0.08800
C 	C 	0.84680 0.55600 0.09920 0.25600
C 	C 	0.86400 0.55110 0.11340 -0.20700
H 	H 	0.87050 0.54600 0.13560 0.09400
C 	C 	0.87240 0.55370 0.09490 -0.01000
H 	H 	0.88420 0.54710 0.10420 0.00000
C 	C 	0.83830 0.54700 0.11890 -0.63300
H 	H 	0.82600 0.54950 0.10550 0.20300
H 	H 	0.84110 0.51470 0.12810 0.20800
H 	H 	0.84210 0.57090 0.13590 0.20900
C 	C 	0.86812 0.59380 0.02250 -0.04100
H 	H 	0.85950 0.61720 0.01720 0.03800
C 	C 	0.87623 0.59030 0.00300 0.03100
C 	C 	0.87086 0.61830 0.97650 -0.03400
H 	H 	0.86170 0.64020 0.97030 0.03100
C 	C 	0.87902 0.61370 0.95910 -0.12900
H 	H 	0.87540 0.63190 0.94030 0.07400
C 	C 	0.89233 0.58300 0.96900 0.14400
C 	C 	0.89749 0.55730 0.99620 -0.06100
H 	H 	0.90710 0.53690 0.00320 0.04300
C 	C 	0.89812 0.59690 0.92480 -0.07400
H 	H 	0.88670 0.58660 0.90840 0.06200
H 	H 	0.89830 0.63240 0.92610 0.05400
C 	C 	0.85639 0.58840 0.68070 0.01200
C 	C 	0.83998 0.59520 0.65840 -0.01900
H 	H 	0.83200 0.60310 0.66500 0.01400
C 	C 	0.83460 0.59100 0.62660 -0.17800
H 	H 	0.82310 0.59620 0.61150 0.07800
C 	C 	0.84610 0.57920 0.61660 0.19600
C 	C 	0.86250 0.57290 0.63860 -0.17900
H 	H 	0.87040 0.56500 0.63170 0.09000
C 	C 	0.86839 0.57750 0.67160 -0.01200
H 	H 	0.88000 0.57340 0.68680 0.03000
C 	C 	0.84130 0.57360 0.58110 -0.53800
H 	H 	0.83180 0.59500 0.56810 0.17300
H 	H 	0.85110 0.58200 0.57850 0.17800
H 	H 	0.83800 0.54020 0.57440 0.17500
C 	C 	0.87530 0.60750 0.73500 -0.04400
H 	H 	0.88260 0.62230 0.72870 0.04100
C 	C 	0.88052 0.60580 0.76880 0.03800
C 	C 	0.89590 0.62190 0.79110 -0.04000
H 	H 	0.90350 0.63520 0.78480 0.03500
C 	C 	0.90070 0.61900 0.82320 -0.11600
H 	H 	0.91120 0.63160 0.83900 0.06400
C 	C 	0.88952 0.59680 0.83130 0.14900
C 	C 	0.87421 0.57940 0.80710 -0.05600
H 	H 	0.86660 0.56440 0.81250 0.03700
C 	C 	0.90875 0.60170 0.88580 -0.07200
H 	H 	0.91770 0.59130 0.88100 0.06000
H 	H 	0.90920 0.63720 0.88790 0.04800
C 	C 	0.95240 0.25110 0.89700 0.00700
C 	C 	0.95350 0.22180 0.92060 0.01000
H 	H 	0.95120 0.23440 0.93640 0.02700
C 	C 	0.95780 0.17470 0.92170 -0.19000
H 	H 	0.95770 0.15430 0.93730 0.08300
C 	C 	0.96240 0.15630 0.90080 0.21400
C 	C 	0.96150 0.18450 0.87780 -0.18900
H 	H 	0.96500 0.17240 0.86340 0.08300
C 	C 	0.95560 0.23190 0.87460 -0.00400
H 	H 	0.95390 0.25060 0.85680 0.01400
C 	C 	0.96860 0.10340 0.90510 -0.53700
H 	H 	0.96560 0.08960 0.88440 0.16200
H 	H 	0.98090 0.10250 0.91860 0.16500
H 	H 	0.96320 0.08470 0.91490 0.16300
C 	C 	0.93600 0.31250 0.90130 -0.03000
H 	H 	0.92960 0.28810 0.90450 0.04000
C 	C 	0.93200 0.36390 0.90280 0.03400
C 	C 	0.91950 0.37520 0.90980 -0.03900
H 	H 	0.91360 0.35050 0.91390 0.03800
C 	C 	0.91538 0.42370 0.91070 -0.11600
H 	H 	0.90610 0.43240 0.91370 0.06800
C 	C 	0.92511 0.45780 0.90720 0.13400
C 	C 	0.93862 0.44220 0.90250 -0.04300
H 	H 	0.94520 0.46590 0.89940 0.03200
C 	C 	0.91016 0.52370 0.91390 -0.07400
H 	H 	0.89890 0.51440 0.89630 0.06800
H 	H 	0.91150 0.50960 0.93370 0.06400
C 	C 	0.91165 0.57870 0.91670 0.15400
C 	C 	0.92979 0.59320 0.94280 -0.47400
H 	H 	0.93020 0.62800 0.94630 0.15400
H 	H 	0.93250 0.57640 0.96260 0.16800
H 	H 	0.93800 0.58430 0.93600 0.16100
O 	O 	0.81176 0.40440 0.64240 -0.21600
O 	O 	0.78521 0.28010 0.62880 -0.20700
O 	O 	0.82564 0.26570 0.64330 -0.20300
N 	N 	0.82250 0.59860 0.71590 -0.21600
N 	N 	0.82360 0.51200 0.68790 -0.20000
N 	N 	0.73544 0.14080 0.64260 -0.22000
N 	N 	0.75842 0.20800 0.64590 -0.21600
N 	N 	0.88533 0.12960 0.72890 -0.20400
N 	N 	0.85951 0.18280 0.68170 -0.20900
C 	C 	0.82280 0.64740 0.72440 0.01400
C 	C 	0.83580 0.66470 0.75260 -0.01600
H 	H 	0.84390 0.64290 0.76720 0.00300
C 	C 	0.83710 0.71360 0.75990 -0.19000
H 	H 	0.84620 0.72500 0.77920 0.08800
C 	C 	0.82530 0.74530 0.73910 0.22100
C 	C 	0.81160 0.72750 0.71230 -0.19000
H 	H 	0.80320 0.74900 0.69800 0.07500
C 	C 	0.80990 0.67730 0.70570 -0.01000
H 	H 	0.79990 0.66480 0.68850 0.02500
C 	C 	0.82550 0.79820 0.74680 -0.57700
H 	H 	0.82770 0.81730 0.73210 0.18000
H 	H 	0.81460 0.80730 0.74480 0.18100
H 	H 	0.83450 0.80410 0.76860 0.19100
C 	C 	0.80910 0.57710 0.69610 -0.04300
H 	H 	0.79860 0.59260 0.68990 0.04200
C 	C 	0.80873 0.53060 0.68220 0.03100
C 	C 	0.79400 0.50490 0.66630 -0.03200
H 	H 	0.78360 0.51710 0.66400 0.03300
C 	C 	0.79460 0.46120 0.65390 -0.12200
H 	H 	0.78470 0.44190 0.64360 0.06700
C 	C 	0.80941 0.44540 0.65620 0.14200
C 	C 	0.82369 0.46970 0.67500 -0.06100
H 	H 	0.83420 0.45620 0.67930 0.04400
C 	C 	0.79756 0.37300 0.62580 -0.07900
H 	H 	0.79220 0.36590 0.63890 0.06400
H 	H 	0.78910 0.38820 0.60580 0.05000
C 	C 	0.72316 0.10520 0.64120 0.00800
C 	C 	0.71270 0.11650 0.65300 -0.01200
H 	H 	0.71380 0.14690 0.66270 0.01200
C 	C 	0.70060 0.08460 0.65120 -0.18700
H 	H 	0.69300 0.09380 0.65840 0.08000
C 	C 	0.69970 0.03890 0.63880 0.21100
C 	C 	0.71110 0.02670 0.62990 -0.19500
H 	H 	0.71130 0.99440 0.62360 0.07700
C 	C 	0.72310 0.05990 0.62950 -0.01300
H 	H 	0.73060 0.05130 0.62170 0.02000
C 	C 	0.68700 0.00070 0.63750 -0.56200
H 	H 	0.67570 0.00790 0.61990 0.18100
H 	H 	0.69060 0.96880 0.63450 0.17800
H 	H 	0.68660 0.00120 0.65740 0.18200
C 	C 	0.73763 0.14590 0.61850 -0.03900
H 	H 	0.73130 0.12670 0.60020 0.03600
C 	C 	0.74984 0.18120 0.61880 0.02800
C 	C 	0.75218 0.18800 0.59330 -0.03700
H 	H 	0.74580 0.16960 0.57460 0.03300
C 	C 	0.76382 0.22160 0.59390 -0.11500
H 	H 	0.76560 0.22630 0.57630 0.06400
C 	C 	0.77279 0.24800 0.62200 0.14100
C 	C 	0.76965 0.23940 0.64730 -0.04600
H 	H 	0.77600 0.25700 0.66640 0.03700
C 	C 	0.78992 0.28990 0.60480 -0.07700
H 	H 	0.79370 0.26010 0.59900 0.06400
H 	H 	0.78020 0.30310 0.58560 0.04700
C 	C 	0.90070 0.10770 0.75200 0.02600
C 	C 	0.91550 0.13280 0.77050 -0.02000
H 	H 	0.91580 0.16660 0.76820 0.03600
C 	C 	0.92990 0.10800 0.79280 -0.15900
H 	H 	0.94010 0.12530 0.80520 0.07500
C 	C 	0.92950 0.05880 0.79670 0.18500
C 	C 	0.91510 0.03470 0.77860 -0.16800
H 	H 	0.91460 0.00110 0.78140 0.07400
C 	C 	0.90110 0.05910 0.75550 -0.01700
H 	H 	0.89130 0.04100 0.74160 0.02100
C 	C 	0.94540 0.03090 0.82080 -0.50200
H 	H 	0.95130 0.04930 0.84050 0.15300
H 	H 	0.94210 0.99950 0.82510 0.15500
H 	H 	0.95310 0.02630 0.81190 0.15100
C 	C 	0.88031 0.16740 0.73600 -0.03300
H 	H 	0.88600 0.17820 0.75740 0.04300
C 	C 	0.86588 0.19550 0.71250 0.03700
C 	C 	0.85930 0.23160 0.72200 -0.03800
H 	H 	0.86420 0.23950 0.74380 0.03900
C 	C 	0.84550 0.25710 0.69960 -0.11500
H 	H 	0.84080 0.28290 0.70570 0.06900
C 	C 	0.83887 0.24420 0.66870 0.13800
C 	C 	0.84685 0.20730 0.66080 -0.03800
H 	H 	0.84270 0.20020 0.63900 0.03600
C 	C 	0.81900 0.30880 0.64970 -0.07600
H 	H 	0.81510 0.30190 0.66520 0.07100
H 	H 	0.82790 0.33370 0.65880 0.06700
C 	C 	0.80432 0.32670 0.61880 0.16400
C 	C 	0.81059 0.33500 0.59450 -0.49500
H 	H 	0.80120 0.34720 0.57470 0.15800
H 	H 	0.81980 0.35860 0.60300 0.17200
H 	H 	0.81470 0.30460 0.59050 0.17600
O 	O 	0.84859 0.24960 0.10050 -0.21300
O 	O 	0.88569 0.34680 0.11660 -0.21000
O 	O 	0.89745 0.22940 0.12180 -0.21000
N 	N 	0.77373 0.22420 0.99340 -0.20800
N 	N 	0.80726 0.21740 0.04070 -0.20400
N 	N 	0.91576 0.53860 0.09960 -0.21500
N 	N 	0.89795 0.45690 0.09660 -0.20900
N 	N 	0.94167 0.14000 0.06830 -0.20700
N 	N 	0.92674 0.17290 0.10320 -0.20400
C 	C 	0.75668 0.22770 0.96950 0.01300
C 	C 	0.74900 0.27120 0.95640 0.01900
H 	H 	0.75510 0.30040 0.96420 0.02400
C 	C 	0.73240 0.27220 0.93210 -0.21700
H 	H 	0.72690 0.30220 0.92460 0.10100
C 	C 	0.72390 0.23060 0.91870 0.25000
C 	C 	0.73140 0.18730 0.93210 -0.19600
H 	H 	0.72530 0.15820 0.92380 0.08600
C 	C 	0.74799 0.18580 0.95810 -0.01000
H 	H 	0.75300 0.15590 0.96740 0.00700
C 	C 	0.70640 0.23060 0.88990 -0.62100
H 	H 	0.70190 0.19780 0.88580 0.20000
H 	H 	0.69900 0.25170 0.89380 0.20600
H 	H 	0.70710 0.24230 0.87150 0.19400
C 	C 	0.78079 0.25880 0.01340 -0.03800
H 	H 	0.77400 0.28560 0.01240 0.04800
C 	C 	0.79848 0.25880 0.03730 0.03200
C 	C 	0.80620 0.29890 0.05540 -0.03400
H 	H 	0.79970 0.32670 0.05350 0.03100
C 	C 	0.82320 0.29890 0.07630 -0.13400
H 	H 	0.82880 0.32690 0.08800 0.06900
C 	C 	0.83186 0.25720 0.07950 0.14900
C 	C 	0.82370 0.21770 0.06210 -0.06400
H 	H 	0.83000 0.18900 0.06520 0.04500
C 	C 	0.85924 0.29120 0.11450 -0.08100
H 	H 	0.85740 0.31500 0.09790 0.06500
H 	H 	0.85650 0.30660 0.12990 0.05900
C 	C 	0.92530 0.58040 0.09960 0.01300
C 	C 	0.91740 0.61910 0.08100 -0.01900
H 	H 	0.90540 0.61880 0.06840 0.01100
C 	C 	0.92620 0.65880 0.07980 -0.16900
H 	H 	0.92040 0.68490 0.06620 0.06800
C 	C 	0.94370 0.66060 0.09840 0.19800
C 	C 	0.95140 0.62310 0.11760 -0.17800
H 	H 	0.96340 0.62410 0.13040 0.08100
C 	C 	0.94270 0.58190 0.11980 -0.00900
H 	H 	0.94850 0.55670 0.13430 0.02800
C 	C 	0.95470 0.70090 0.09560 -0.53800
H 	H 	0.94740 0.72380 0.07920 0.16600
H 	H 	0.96090 0.71770 0.11600 0.17100
H 	H 	0.96280 0.68680 0.09000 0.17800
C 	C 	0.92000 0.51570 0.12560 -0.03700
H 	H 	0.92890 0.52760 0.14510 0.03500
C 	C 	0.91122 0.47120 0.12510 0.02800
C 	C 	0.91530 0.44590 0.15230 -0.03500
H 	H 	0.92410 0.45740 0.17190 0.03300
C 	C 	0.90689 0.40390 0.15170 -0.11800
H 	H 	0.90940 0.38690 0.17060 0.06600
C 	C 	0.89452 0.38770 0.12210 0.14500
C 	C 	0.89004 0.41610 0.09530 -0.05600
H 	H 	0.88110 0.40580 0.07550 0.03400
C 	C 	0.88962 0.31650 0.14380 -0.07700
H 	H 	0.90150 0.30530 0.15380 0.06500
H 	H 	0.88790 0.33440 0.15980 0.05000
C 	C 	0.94850 0.12060 0.04930 0.02100
C 	C 	0.93910 0.09860 0.02070 -0.00800
H 	H 	0.92720 0.09600 0.01250 0.03200
C 	C 	0.94620 0.08020 0.00340 -0.16600
H 	H 	0.93940 0.06520 0.98350 0.07700
C 	C 	0.96370 0.08390 0.01580 0.19300
C 	C 	0.97320 0.10670 0.04360 -0.17400
H 	H 	0.98500 0.11120 0.05140 0.07900
C 	C 	0.96550 0.12340 0.06080 -0.01300
H 	H 	0.97240 0.13710 0.08120 0.00900
C 	C 	0.97140 0.06320 0.99610 -0.51500
H 	H 	0.96250 0.04820 0.97680 0.15500
H 	H 	0.98000 0.03900 0.00860 0.15500
H 	H 	0.97670 0.08910 0.99030 0.16000
C 	C 	0.92650 0.15190 0.05450 -0.02600
H 	H 	0.92020 0.14880 0.03210 0.03900
C 	C 	0.91776 0.17030 0.07130 0.03400
C 	C 	0.90139 0.18500 0.05480 -0.03400
H 	H 	0.89530 0.18250 0.03240 0.03700
C 	C 	0.89367 0.20350 0.07110 -0.11800
H 	H 	0.88210 0.21290 0.06010 0.07000
C 	C 	0.90279 0.20820 0.10300 0.13900
C 	C 	0.91983 0.19260 0.11810 -0.04000
H 	H 	0.92650 0.19680 0.14030 0.03300
C 	C 	0.88012 0.24650 0.10640 -0.07600
H 	H 	0.87800 0.26790 0.08850 0.07000
H 	H 	0.87220 0.21900 0.09810 0.06600
C 	C 	0.87750 0.27390 0.13110 0.16100
C 	C 	0.88090 0.24030 0.15970 -0.48200
H 	H 	0.87330 0.21250 0.15200 0.16900
H 	H 	0.89270 0.22910 0.16990 0.16200
H 	H 	0.87900 0.25820 0.17510 0.15900
O 	O 	0.97878 0.37070 0.02510 -0.21000
O 	O 	0.97303 0.31060 0.09660 -0.21000
O 	O 	0.94670 0.40640 0.05860 -0.20300
N 	N 	0.98830 0.30760 0.91110 -0.21100
N 	N 	0.97914 0.34360 0.95360 -0.20500
N 	N 	0.96098 0.15630 0.17630 -0.21300
N 	N 	0.96659 0.21100 0.13500 -0.21400
N 	N 	0.87174 0.46240 0.00940 -0.20100
N 	N 	0.90637 0.45270 0.03810 -0.21000
C 	C 	0.99340 0.29340 0.88890 0.02500
C 	C 	0.99810 0.24730 0.88720 -0.01400
H 	H 	0.99810 0.22400 0.90160 0.02900
C 	C 	0.00290 0.23350 0.86510 -0.17900
H 	H 	0.00570 0.20100 0.86390 0.07600
C 	C 	0.00350 0.26730 0.84500 0.19800
C 	C 	0.99920 0.31380 0.84780 -0.16700
H 	H 	0.99850 0.33680 0.83270 0.07700
C 	C 	0.99560 0.32990 0.87240 -0.04200
H 	H 	0.99480 0.36280 0.87660 0.02100
C 	C 	0.00860 0.25230 0.82050 -0.54600
H 	H 	0.00130 0.26850 0.80040 0.17100
H 	H 	0.02040 0.26140 0.82790 0.16700
H 	H 	0.00740 0.21740 0.81740 0.17000
C 	C 	0.99450 0.28930 0.93910 -0.04200
H 	H 	0.00200 0.26300 0.94440 0.03900
C 	C 	0.99040 0.30710 0.96280 0.03700
C 	C 	0.99840 0.29040 0.99310 -0.03400
H 	H 	0.00680 0.26600 0.99900 0.03000
C 	C 	0.99450 0.30850 0.01490 -0.12300
H 	H 	0.99910 0.29510 0.03560 0.06700
C 	C 	0.98364 0.34640 0.00610 0.14400
C 	C 	0.97540 0.36050 0.97530 -0.05900
H 	H 	0.96660 0.38340 0.96890 0.03900
C 	C 	0.98410 0.35250 0.05670 -0.09300
H 	H 	0.98150 0.31770 0.05600 0.06900
H 	H 	0.99650 0.35710 0.07040 0.05600
C 	C 	0.95640 0.12730 0.19590 0.01200
C 	C 	0.95820 0.07900 0.19590 -0.01500
H 	H 	0.96230 0.06450 0.18320 0.01500
C 	C 	0.95390 0.05090 0.21450 -0.17400
H 	H 	0.95540 0.01700 0.21480 0.08200
C 	C 	0.94750 0.07100 0.23290 0.21500
C 	C 	0.94660 0.11860 0.23430 -0.19000
H 	H 	0.94250 0.13250 0.24730 0.07900
C 	C 	0.95170 0.14890 0.21640 -0.00900
H 	H 	0.95180 0.18290 0.21860 0.02700
C 	C 	0.94240 0.03830 0.25270 -0.55000
H 	H 	0.95250 0.02410 0.27030 0.17400
H 	H 	0.93640 0.05750 0.26110 0.17000
H 	H 	0.93490 0.01260 0.23920 0.18300
C 	C 	0.96790 0.19790 0.18500 -0.04300
H 	H 	0.97150 0.20800 0.20610 0.04300
C 	C 	0.97050 0.23030 0.16400 0.03400
C 	C 	0.97770 0.27450 0.17340 -0.03500
H 	H 	0.98170 0.28490 0.19460 0.03500
C 	C 	0.97940 0.30450 0.15160 -0.12400
H 	H 	0.98440 0.33540 0.15770 0.06800
C 	C 	0.97350 0.28780 0.12130 0.15400
C 	C 	0.96730 0.24050 0.11380 -0.05600
H 	H 	0.96350 0.22900 0.09290 0.04100
C 	C 	0.97800 0.36030 0.10110 -0.08300
H 	H 	0.97160 0.37820 0.10950 0.06700
H 	H 	0.99020 0.36310 0.11650 0.05000
C 	C 	0.85400 0.47290 0.99430 0.00300
C 	C 	0.84568 0.49470 0.96540 0.01500
H 	H 	0.85130 0.49980 0.95340 0.02200
C 	C 	0.82936 0.50920 0.95380 -0.20200
H 	H 	0.82390 0.52540 0.93400 0.08900
C 	C 	0.82051 0.50110 0.97020 0.23900
C 	C 	0.82868 0.48000 0.99880 -0.20900
H 	H 	0.82300 0.47410 0.01060 0.08700
C 	C 	0.84564 0.46670 0.01130 0.00700
H 	H 	0.85150 0.45310 0.03190 0.00600
C 	C 	0.80212 0.51670 0.95590 -0.59000
H 	H 	0.79930 0.53790 0.93780 0.19000
H 	H 	0.79480 0.48830 0.94880 0.17800
H 	H 	0.80050 0.53400 0.97180 0.18600
C 	C 	0.87804 0.43980 0.99580 -0.02600
H 	H 	0.87070 0.42740 0.97530 0.03900
C 	C 	0.89628 0.43120 0.00970 0.03100
C 	C 	0.90266 0.39980 0.99640 -0.03200
H 	H 	0.89540 0.38490 0.97670 0.03600
C 	C 	0.91990 0.38980 0.01180 -0.12200
H 	H 	0.92450 0.36720 0.00330 0.07100
C 	C 	0.92990 0.41300 0.03930 0.14400
C 	C 	0.92237 0.44360 0.05170 -0.04300
H 	H 	0.92950 0.45860 0.07140 0.03500
C 	C 	0.95558 0.37800 0.04590 -0.09600
H 	H 	0.95180 0.34410 0.04320 0.07600
H 	H 	0.95320 0.39080 0.02510 0.07200
C 	C 	0.97437 0.38100 0.06920 0.18700
C 	C 	0.98070 0.43340 0.07610 -0.52900
H 	H 	0.97860 0.44910 0.05630 0.19200
H 	H 	0.97460 0.45080 0.08510 0.18500
H 	H 	0.99280 0.43380 0.09110 0.17500
O 	O 	0.90519 0.30190 0.69130 -0.21000
O 	O 	0.93080 0.38690 0.76800 -0.20700
O 	O 	0.89072 0.42180 0.72180 -0.20400
N 	N 	0.89872 0.07780 0.68240 -0.21300
N 	N 	0.89563 0.17800 0.68080 -0.20400
N 	N 	0.98234 0.43130 0.90840 -0.21800
N 	N 	0.95777 0.39750 0.85050 -0.21700
N 	N 	0.83743 0.49120 0.75900 -0.20800
N 	N 	0.86071 0.47690 0.73900 -0.20900
C 	C 	0.89980 0.02760 0.67850 0.00300
C 	C 	0.91156 0.00750 0.67160 0.01100
H 	H 	0.91950 0.02720 0.66930 0.02500
C 	C 	0.91160 0.95770 0.66820 -0.20600
H 	H 	0.91940 0.94400 0.66260 0.10000
C 	C 	0.90100 0.92790 0.67240 0.23700
C 	C 	0.88930 0.94750 0.67990 -0.19600
H 	H 	0.88190 0.92750 0.68340 0.08600
C 	C 	0.88870 0.99820 0.68210 -0.00800
H 	H 	0.88040 0.01220 0.68620 -0.00100
C 	C 	0.90090 0.87390 0.66780 -0.58800
H 	H 	0.89460 0.86640 0.64510 0.19700
H 	H 	0.91260 0.86240 0.67660 0.19200
H 	H 	0.89550 0.85800 0.67870 0.18200
C 	C 	0.91153 0.10510 0.69200 -0.04300
H 	H 	0.92220 0.09040 0.69920 0.04100
C 	C 	0.91097 0.15760 0.69290 0.03300
C 	C 	0.92524 0.18460 0.70520 -0.03600
H 	H 	0.93590 0.16920 0.71330 0.03200
C 	C 	0.92451 0.23400 0.70620 -0.12200
H 	H 	0.93440 0.25330 0.71540 0.06600
C 	C 	0.90855 0.25360 0.69290 0.14500
C 	C 	0.89475 0.22520 0.68100 -0.05500
H 	H 	0.88390 0.23990 0.67240 0.04500
C 	C 	0.91896 0.33180 0.71260 -0.07600
H 	H 	0.92460 0.31770 0.73410 0.06400
H 	H 	0.92740 0.33490 0.70530 0.05200
C 	C 	0.99560 0.44890 0.93870 0.00800
C 	C 	0.00830 0.41930 0.95870 -0.00600
H 	H 	0.00820 0.38670 0.95290 0.01900
C 	C 	0.02130 0.43530 0.98740 -0.18700
H 	H 	0.03030 0.41410 0.00030 0.08100
C 	C 	0.02140 0.48170 0.99720 0.22400
C 	C 	0.00830 0.51040 0.97860 -0.19500
H 	H 	0.00760 0.54120 0.98640 0.09900
C 	C 	0.99530 0.49670 0.94760 -0.01000
H 	H 	0.98700 0.51890 0.93390 0.02400
C 	C 	0.03510 0.50020 0.03000 -0.57500
H 	H 	0.04480 0.51230 0.02830 0.19200
H 	H 	0.03040 0.52620 0.03700 0.18800
H 	H 	0.03880 0.47380 0.04530 0.18700
C 	C 	0.97850 0.45650 0.88360 -0.04100
H 	H 	0.98400 0.48630 0.88580 0.03700
C 	C 	0.96570 0.44070 0.85220 0.02700
C 	C 	0.96250 0.46700 0.82600 -0.03800
H 	H 	0.96860 0.49590 0.82850 0.03400
C 	C 	0.95050 0.45280 0.79570 -0.11400
H 	H 	0.94790 0.47130 0.77730 0.06400
C 	C 	0.94250 0.40870 0.79440 0.14100
C 	C 	0.94650 0.38250 0.82190 -0.04600
H 	H 	0.94080 0.35280 0.82000 0.03400
C 	C 	0.92576 0.41160 0.73830 -0.07700
H 	H 	0.92180 0.44460 0.73890 0.06400
H 	H 	0.93530 0.41360 0.73390 0.04800
C 	C 	0.82302 0.49760 0.76340 0.01100
C 	C 	0.80970 0.46690 0.75120 0.00200
H 	H 	0.81030 0.43830 0.74110 0.03100
C 	C 	0.79530 0.47650 0.75330 -0.18600
H 	H 	0.78590 0.45510 0.74390 0.08300
C 	C 	0.79440 0.51720 0.76900 0.21900
C 	C 	0.80720 0.54800 0.77920 -0.19600
H 	H 	0.80640 0.57770 0.78820 0.07800
C 	C 	0.82170 0.53830 0.77720 -0.00500
H 	H 	0.83080 0.56060 0.78570 0.00500
C 	C 	0.77870 0.52860 0.77260 -0.57200
H 	H 	0.76850 0.51730 0.75380 0.18200
H 	H 	0.77980 0.51240 0.79150 0.18100
H 	H 	0.77800 0.56340 0.77480 0.18900
C 	C 	0.84330 0.44950 0.76050 -0.03000
H 	H 	0.84010 0.42440 0.76990 0.04100
C 	C 	0.85490 0.43890 0.74830 0.03500
C 	C 	0.86090 0.39330 0.74940 -0.03400
H 	H 	0.85690 0.36750 0.75690 0.03700
C 	C 	0.87270 0.38480 0.73970 -0.12000
H 	H 	0.87650 0.35310 0.73920 0.07100
C 	C 	0.87868 0.42330 0.73080 0.14200
C 	C 	0.87236 0.46880 0.73150 -0.04400
H 	H 	0.87700 0.49560 0.72620 0.03700
C 	C 	0.89725 0.37460 0.72050 -0.08500
H 	H 	0.90150 0.35800 0.74110 0.07300
H 	H 	0.88820 0.35470 0.70390 0.07100
C 	C 	0.91135 0.38170 0.71280 0.16600
C 	C 	0.90600 0.40760 0.68050 -0.50000
H 	H 	0.89820 0.38700 0.66310 0.18200
H 	H 	0.90040 0.43810 0.67990 0.17600
H 	H 	0.91610 0.41390 0.67840 0.16500
O 	O 	0.83251 0.00040 0.69480 -0.20800
O 	O 	0.83323 0.93730 0.77240 -0.21500
O 	O 	0.80199 0.04200 0.71460 -0.20600
N 	N 	0.85663 0.12520 0.61760 -0.21300
N 	N 	0.85210 0.06920 0.66000 -0.21500
N 	N 	0.87455 0.82040 0.89710 -0.21100
N 	N 	0.85378 0.88100 0.84730 -0.20700
N 	N 	0.77241 0.24060 0.72560 -0.20700
N 	N 	0.77950 0.14840 0.71240 -0.20400
C 	C 	0.85971 0.15400 0.59660 0.00500
C 	C 	0.84699 0.17840 0.57140 0.01000
H 	H 	0.83570 0.17600 0.56760 0.02200
C 	C 	0.85058 0.20650 0.55160 -0.20700
H 	H 	0.84170 0.22260 0.53410 0.09100
C 	C 	0.86675 0.21100 0.55700 0.24100
C 	C 	0.87958 0.18760 0.58250 -0.19100
H 	H 	0.89090 0.19110 0.58680 0.08700
C 	C 	0.87595 0.15830 0.60270 -0.01100
H 	H 	0.88480 0.14210 0.62020 0.00400
C 	C 	0.87080 0.24240 0.53600 -0.58600
H 	H 	0.86580 0.27430 0.53400 0.18800
H 	H 	0.88310 0.24550 0.54530 0.18500
H 	H 	0.86620 0.22770 0.51490 0.18800
C 	C 	0.84322 0.10010 0.60790 -0.04700
H 	H 	0.83510 0.10070 0.58600 0.04200
C 	C 	0.83990 0.07080 0.62910 0.03300
C 	C 	0.82472 0.04760 0.61820 -0.03500
H 	H 	0.81640 0.04980 0.59650 0.03600
C 	C 	0.82160 0.02090 0.63890 -0.11900
H 	H 	0.81160 0.00220 0.63170 0.07000
C 	C 	0.83349 0.02260 0.67030 0.14500
C 	C 	0.84860 0.04440 0.67960 -0.05500
H 	H 	0.85710 0.04180 0.70110 0.03800
C 	C 	0.81723 0.97630 0.68840 -0.07700
H 	H 	0.80730 0.99570 0.67400 0.06200
H 	H 	0.81650 0.94470 0.67840 0.04200
C 	C 	0.88504 0.78830 0.92310 0.01500
C 	C 	0.90080 0.77390 0.92940 -0.00300
H 	H 	0.90580 0.78750 0.91780 0.02600
C 	C 	0.90970 0.74000 0.95240 -0.17800
H 	H 	0.91980 0.72620 0.95410 0.07600
C 	C 	0.90380 0.72610 0.97310 0.21400
C 	C 	0.88850 0.74080 0.96730 -0.18400
H 	H 	0.88440 0.73080 0.98110 0.08000
C 	C 	0.87810 0.77110 0.94080 -0.02000
H 	H 	0.86680 0.77890 0.93570 0.01100
C 	C 	0.91480 0.69300 0.00150 -0.57200
H 	H 	0.91710 0.66300 0.99380 0.19300
H 	H 	0.92540 0.70930 0.01570 0.17800
H 	H 	0.90870 0.68590 0.01310 0.18500
C 	C 	0.87610 0.82200 0.87230 -0.03400
H 	H 	0.88460 0.80270 0.87160 0.03900
C 	C 	0.86540 0.85220 0.84460 0.02400
C 	C 	0.86780 0.85500 0.81890 -0.03300
H 	H 	0.87710 0.83880 0.81920 0.03100
C 	C 	0.85690 0.88110 0.79220 -0.13300
H 	H 	0.85750 0.87960 0.77320 0.06600
C 	C 	0.84499 0.90930 0.79470 0.14700
C 	C 	0.84366 0.90690 0.82230 -0.05400
H 	H 	0.83500 0.92500 0.82320 0.04200
C 	C 	0.83346 0.94170 0.74250 -0.08400
H 	H 	0.84380 0.95900 0.74580 0.06600
H 	H 	0.83330 0.90950 0.73370 0.04600
C 	C 	0.76830 0.28450 0.73600 0.02800
C 	C 	0.76930 0.28710 0.76500 -0.01600
H 	H 	0.77320 0.26030 0.77890 0.03500
C 	C 	0.76470 0.32860 0.77400 -0.16200
H 	H 	0.76570 0.33050 0.79450 0.07400
C 	C 	0.75860 0.36790 0.75380 0.18800
C 	C 	0.75830 0.36560 0.72590 -0.16800
H 	H 	0.75490 0.39290 0.71240 0.07300
C 	C 	0.76310 0.32350 0.71650 -0.02100
H 	H 	0.76260 0.32210 0.69650 0.02600
C 	C 	0.75370 0.41500 0.76480 -0.52000
H 	H 	0.74320 0.41010 0.76540 0.16500
H 	H 	0.76280 0.42360 0.78610 0.16000
H 	H 	0.75220 0.44100 0.75000 0.15900
C 	C 	0.78633 0.22150 0.74390 -0.02900
H 	H 	0.79410 0.23840 0.76240 0.04000
C 	C 	0.79106 0.17350 0.73770 0.03300
C 	C 	0.80680 0.15540 0.75560 -0.03500
H 	H 	0.81480 0.17400 0.77290 0.03800
C 	C 	0.81160 0.11050 0.74990 -0.11400
H 	H 	0.82250 0.09730 0.76330 0.06900
C 	C 	0.79970 0.08640 0.72370 0.13900
C 	C 	0.78381 0.10710 0.70610 -0.04200
H 	H 	0.77560 0.08990 0.68820 0.03000
C 	C 	0.81836 0.01930 0.73470 -0.08500
H 	H 	0.82760 0.03900 0.73530 0.07200
H 	H 	0.82030 0.01570 0.75660 0.07000
C 	C 	0.81778 0.96970 0.72020 0.17000
C 	C 	0.80184 0.94230 0.71480 -0.49400
H 	H 	0.80240 0.90920 0.70850 0.15200
H 	H 	0.80120 0.94220 0.73450 0.17600
H 	H 	0.79180 0.95820 0.69810 0.16800
O 	O 	0.86407 0.94200 0.01510 -0.20100
O 	O 	0.90067 0.01070 0.09230 -0.21000
O 	O 	0.85013 0.04150 0.03830 -0.20400
N 	N 	0.83557 0.81970 0.89160 -0.20900
N 	N 	0.85290 0.87800 0.94390 -0.20800
N 	N 	0.97389 0.07690 0.13330 -0.21500
N 	N 	0.94086 0.06310 0.11800 -0.21100
N 	N 	0.80387 0.21860 0.97370 -0.20700
N 	N 	0.82036 0.13670 0.00670 -0.20400
C 	C 	0.82868 0.78570 0.86660 0.01400
C 	C 	0.82950 0.73780 0.87290 0.01000
H 	H 	0.83460 0.72730 0.89430 0.02400
C 	C 	0.82300 0.70380 0.84890 -0.20000
H 	H 	0.82340 0.67060 0.85390 0.09000
C 	C 	0.81600 0.71820 0.81760 0.24900
C 	C 	0.81500 0.76670 0.81150 -0.19600
H 	H 	0.80950 0.77750 0.79020 0.08400
C 	C 	0.82200 0.80120 0.83670 -0.00700
H 	H 	0.82190 0.83450 0.83220 0.01100
C 	C 	0.80900 0.68010 0.79240 -0.62100
H 	H 	0.80410 0.69530 0.77150 0.20200
H 	H 	0.81800 0.65820 0.79500 0.20200
H 	H 	0.80020 0.66200 0.79420 0.19800
C 	C 	0.83340 0.81490 0.91580 -0.04700
H 	H 	0.82600 0.79050 0.91540 0.04600
C 	C 	0.84174 0.84520 0.94370 0.03100
C 	C 	0.83729 0.84340 0.96690 -0.04600
H 	H 	0.82940 0.82010 0.96590 0.03200
C 	C 	0.84436 0.87560 0.99210 -0.12200
H 	H 	0.84120 0.87590 0.00810 0.07100
C 	C 	0.85617 0.90690 0.99250 0.14200
C 	C 	0.85990 0.90760 0.96840 -0.05700
H 	H 	0.86790 0.93050 0.96920 0.04300
C 	C 	0.86095 0.94250 0.04200 -0.09700
H 	H 	0.84890 0.94920 0.03480 0.07200
H 	H 	0.86390 0.91110 0.05300 0.06200
C 	C 	0.99150 0.08550 0.14300 0.01700
C 	C 	0.00020 0.11860 0.16580 -0.01900
H 	H 	0.99480 0.13430 0.17580 0.01600
C 	C 	0.01670 0.13010 0.17480 -0.16800
H 	H 	0.02200 0.15620 0.18890 0.08000
C 	C 	0.02550 0.10390 0.16340 0.19600
C 	C 	0.01720 0.06910 0.14210 -0.17700
H 	H 	0.02340 0.05030 0.13480 0.07100
C 	C 	0.99960 0.05880 0.12980 -0.01400
H 	H 	0.99390 0.03540 0.11370 0.02600
C 	C 	0.04380 0.11740 0.17200 -0.52800
H 	H 	0.04520 0.11440 0.15320 0.16300
H 	H 	0.04600 0.15070 0.17970 0.16600
H 	H 	0.05170 0.09580 0.18860 0.15900
C 	C 	0.96753 0.03480 0.12550 -0.03700
H 	H 	0.97440 0.00940 0.12500 0.03800
C 	C 	0.95002 0.02400 0.11730 0.02900
C 	C 	0.94303 0.97930 0.10710 -0.03600
H 	H 	0.94980 0.95360 0.10670 0.03200
C 	C 	0.92607 0.97170 0.09740 -0.12000
H 	H 	0.92080 0.94180 0.08880 0.06600
C 	C 	0.91704 0.01010 0.10080 0.14600
C 	C 	0.92480 0.05560 0.11030 -0.05300
H 	H 	0.91830 0.08180 0.11130 0.04000
C 	C 	0.89038 0.97060 0.07390 -0.09000
H 	H 	0.89170 0.96550 0.05500 0.07000
H 	H 	0.89390 0.94080 0.08680 0.05800
C 	C 	0.79630 0.26420 0.95900 0.02000
C 	C 	0.80400 0.30710 0.97150 -0.00600
H 	H 	0.81480 0.30730 0.98980 0.03100
C 	C 	0.79640 0.34980 0.95810 -0.17100
H 	H 	0.80200 0.37920 0.96710 0.07800
C 	C 	0.78050 0.35060 0.93150 0.19700
C 	C 	0.77300 0.30880 0.91940 -0.17600
H 	H 	0.76220 0.30870 0.90080 0.07900
C 	C 	0.78050 0.26480 0.93350 -0.01200
H 	H 	0.77450 0.23550 0.92530 0.01800
C 	C 	0.77190 0.39950 0.91690 -0.52100
H 	H 	0.76740 0.39860 0.89390 0.16000
H 	H 	0.76270 0.40530 0.92150 0.16500
H 	H 	0.78030 0.42550 0.92600 0.15600
C 	C 	0.81934 0.21300 0.98180 -0.03300
H 	H 	0.82520 0.23800 0.97790 0.04200
C 	C 	0.82833 0.16880 0.99730 0.03800
C 	C 	0.84385 0.16120 0.00230 -0.04000
H 	H 	0.84900 0.18390 0.99500 0.03900
C 	C 	0.85280 0.11970 0.01840 -0.11700
H 	H 	0.86430 0.11550 0.02400 0.07000
C 	C 	0.84433 0.08570 0.02560 0.14100
C 	C 	0.82786 0.09640 0.01950 -0.04300
H 	H 	0.82200 0.07330 0.02500 0.03500
C 	C 	0.86737 0.03100 0.04710 -0.08000
H 	H 	0.86880 0.03000 0.02800 0.07200
H 	H 	0.87490 0.05630 0.06140 0.06800
C 	C 	0.87207 0.98220 0.06390 0.17900
C 	C 	0.86950 0.98350 0.09350 -0.51600
H 	H 	0.85770 0.99190 0.08690 0.18300
H 	H 	0.87200 0.95190 0.10360 0.16700
H 	H 	0.87700 0.00760 0.10850 0.18900
