data_crystal

_cell_length_a 41.51200
_cell_length_b 41.51200
_cell_length_c 41.51200
_cell_angle_alpha 90.00000
_cell_angle_beta  90.00000
_cell_angle_gamma 90.00000

_symmetry_space_group_name_	'P 1'
_symmetry_space_group_name_H-M	'P 1'

loop_
_symmetry_equiv_pos_as_xyz
  x,y,z

loop_
_atom_site_label
_atom_site_type_symbol
_atom_site_fract_x
_atom_site_fract_y
_atom_site_fract_z
_atom_site_charge
O 	O 	0.43873 0.29619 0.06014 -0.64600
O 	O 	0.47277 0.24800 0.09341 -0.64000
O 	O 	0.46837 0.16440 0.96592 -0.64000
C 	C 	0.47170 0.22000 0.18886 -0.19200
H 	H 	0.45170 0.21630 0.19940 0.09900
C 	C 	0.47140 0.22940 0.15711 0.14300
H 	H 	0.45150 0.23180 0.14610 0.00100
C 	C 	0.37300 0.07846 0.88030 -0.02800
C 	C 	0.38287 0.06120 0.85340 -0.01800
H 	H 	0.40330 0.06540 0.84390 0.03900
C 	C 	0.36290 0.03770 0.84026 -0.08200
H 	H 	0.36970 0.02590 0.82190 0.06100
C 	C 	0.33300 0.03150 0.85410 0.05800
C 	C 	0.32314 0.04880 0.88100 -0.08400
H 	H 	0.30270 0.04450 0.89040 0.06600
C 	C 	0.34310 0.07230 0.89410 -0.01700
H 	H 	0.33630 0.08410 0.91250 0.04200
C 	C 	0.39438 0.10334 0.89406 0.08800
C 	C 	0.38794 0.13581 0.88901 -0.14200
H 	H 	0.37120 0.14210 0.87470 0.08200
C 	C 	0.40593 0.15912 0.90494 0.08600
H 	H 	0.40150 0.18130 0.90150 0.02300
C 	C 	0.43037 0.14997 0.92591 -0.16400
C 	C 	0.43682 0.11751 0.93096 0.08500
H 	H 	0.45350 0.11130 0.94530 0.02100
C 	C 	0.41883 0.09419 0.91504 -0.14200
H 	H 	0.42320 0.07200 0.91850 0.08200
C 	C 	0.44801 0.17500 0.94470 0.49900
O 	O 	0.07870 0.02540 0.94490 -0.58300
C 	C 	0.26160 0.02430 0.85940 -0.02100
C 	C 	0.13440 0.97170 0.91170 0.08300
H 	H 	0.12120 0.95320 0.90930 0.03400
C 	C 	0.22930 0.02470 0.87460 0.01400
C 	C 	0.17130 0.97350 0.89990 -0.15100
H 	H 	0.18160 0.95510 0.89110 0.09000
C 	C 	0.47540 0.20390 0.25740 0.02800
C 	C 	0.47450 0.19150 0.28820 -0.03200
O 	O 	0.56127 0.70381 0.06014 -0.64600
O 	O 	0.52723 0.75200 0.09341 -0.64000
O 	O 	0.53163 0.83560 0.96592 -0.64000
C 	C 	0.52830 0.78000 0.18886 -0.19200
H 	H 	0.54830 0.78370 0.19940 0.09900
C 	C 	0.52860 0.77060 0.15711 0.14300
H 	H 	0.54850 0.76820 0.14610 0.00100
C 	C 	0.62700 0.92154 0.88030 -0.02800
C 	C 	0.61713 0.93880 0.85340 -0.01800
H 	H 	0.59670 0.93460 0.84390 0.03900
C 	C 	0.63710 0.96230 0.84026 -0.08200
H 	H 	0.63030 0.97410 0.82190 0.06000
C 	C 	0.66700 0.96850 0.85410 0.05700
C 	C 	0.67686 0.95120 0.88100 -0.08500
H 	H 	0.69730 0.95550 0.89040 0.06500
C 	C 	0.65690 0.92770 0.89410 -0.01800
H 	H 	0.66370 0.91590 0.91250 0.04100
C 	C 	0.60562 0.89666 0.89406 0.08700
C 	C 	0.61206 0.86419 0.88901 -0.14300
H 	H 	0.62880 0.85790 0.87470 0.08100
C 	C 	0.59407 0.84088 0.90494 0.08500
H 	H 	0.59850 0.81870 0.90150 0.02200
C 	C 	0.56963 0.85003 0.92591 -0.16500
C 	C 	0.56318 0.88249 0.93096 0.08400
H 	H 	0.54650 0.88870 0.94530 0.02000
C 	C 	0.58117 0.90581 0.91504 -0.14300
H 	H 	0.57680 0.92800 0.91850 0.08100
C 	C 	0.55199 0.82500 0.94470 0.49800
O 	O 	0.92130 0.97460 0.94490 -0.58400
C 	C 	0.73840 0.97570 0.85940 -0.02200
C 	C 	0.86560 0.02830 0.91170 0.08200
H 	H 	0.87880 0.04680 0.90930 0.03300
C 	C 	0.77070 0.97530 0.87460 0.01300
C 	C 	0.82870 0.02650 0.89990 -0.15200
H 	H 	0.81840 0.04490 0.89110 0.08900
C 	C 	0.52460 0.79610 0.25740 0.02700
C 	C 	0.52550 0.80850 0.28820 -0.03300
O 	O 	0.56127 0.29619 0.93986 -0.64700
O 	O 	0.52723 0.24800 0.90659 -0.64100
O 	O 	0.53163 0.16440 0.03408 -0.64000
C 	C 	0.52830 0.22000 0.81114 -0.19300
H 	H 	0.54830 0.21630 0.80060 0.09800
C 	C 	0.52860 0.22940 0.84289 0.14200
H 	H 	0.54850 0.23180 0.85390 0.00000
C 	C 	0.62700 0.07846 0.11970 -0.02900
C 	C 	0.61713 0.06120 0.14660 -0.01900
H 	H 	0.59670 0.06540 0.15610 0.03800
C 	C 	0.63710 0.03770 0.15974 -0.08300
H 	H 	0.63030 0.02590 0.17810 0.06000
C 	C 	0.66700 0.03150 0.14590 0.05700
C 	C 	0.67686 0.04880 0.11900 -0.08500
H 	H 	0.69730 0.04450 0.10960 0.06500
C 	C 	0.65690 0.07230 0.10590 -0.01800
H 	H 	0.66370 0.08410 0.08750 0.04100
C 	C 	0.60562 0.10334 0.10594 0.08700
C 	C 	0.61206 0.13581 0.11099 -0.14300
H 	H 	0.62880 0.14210 0.12530 0.08100
C 	C 	0.59407 0.15912 0.09506 0.08500
H 	H 	0.59850 0.18130 0.09850 0.02200
C 	C 	0.56963 0.14997 0.07409 -0.16500
C 	C 	0.56318 0.11751 0.06904 0.08400
H 	H 	0.54650 0.11130 0.05470 0.02000
C 	C 	0.58117 0.09419 0.08496 -0.14300
H 	H 	0.57680 0.07200 0.08150 0.08100
C 	C 	0.55199 0.17500 0.05530 0.49800
O 	O 	0.92130 0.02540 0.05510 -0.58400
C 	C 	0.73840 0.02430 0.14060 -0.02200
C 	C 	0.86560 0.97170 0.08830 0.08200
H 	H 	0.87880 0.95320 0.09070 0.03300
C 	C 	0.77070 0.02470 0.12540 0.01300
C 	C 	0.82870 0.97350 0.10010 -0.15200
H 	H 	0.81840 0.95510 0.10890 0.08900
C 	C 	0.52460 0.20390 0.74260 0.02700
C 	C 	0.52550 0.19150 0.71180 -0.03300
O 	O 	0.43873 0.70381 0.93986 -0.64700
O 	O 	0.47277 0.75200 0.90659 -0.64100
O 	O 	0.46837 0.83560 0.03408 -0.64000
C 	C 	0.47170 0.78000 0.81114 -0.19300
H 	H 	0.45170 0.78370 0.80060 0.09800
C 	C 	0.47140 0.77060 0.84289 0.14200
H 	H 	0.45150 0.76820 0.85390 0.00000
C 	C 	0.37300 0.92154 0.11970 -0.02900
C 	C 	0.38287 0.93880 0.14660 -0.01900
H 	H 	0.40330 0.93460 0.15610 0.03800
C 	C 	0.36290 0.96230 0.15974 -0.08300
H 	H 	0.36970 0.97410 0.17810 0.06000
C 	C 	0.33300 0.96850 0.14590 0.05700
C 	C 	0.32314 0.95120 0.11900 -0.08500
H 	H 	0.30270 0.95550 0.10960 0.06500
C 	C 	0.34310 0.92770 0.10590 -0.01800
H 	H 	0.33630 0.91590 0.08750 0.04100
C 	C 	0.39438 0.89666 0.10594 0.08700
C 	C 	0.38794 0.86419 0.11099 -0.14300
H 	H 	0.37120 0.85790 0.12530 0.08100
C 	C 	0.40593 0.84088 0.09506 0.08500
H 	H 	0.40150 0.81870 0.09850 0.02200
C 	C 	0.43037 0.85003 0.07409 -0.16500
C 	C 	0.43682 0.88249 0.06904 0.08400
H 	H 	0.45350 0.88870 0.05470 0.02000
C 	C 	0.41883 0.90581 0.08496 -0.14300
H 	H 	0.42320 0.92800 0.08150 0.08100
C 	C 	0.44801 0.82500 0.05530 0.49800
O 	O 	0.07870 0.97460 0.05510 -0.58400
C 	C 	0.26160 0.97570 0.14060 -0.02200
C 	C 	0.13440 0.02830 0.08830 0.08200
H 	H 	0.12120 0.04680 0.09070 0.03300
C 	C 	0.22930 0.97530 0.12540 0.01300
C 	C 	0.17130 0.02650 0.10010 -0.15200
H 	H 	0.18160 0.04490 0.10890 0.08900
C 	C 	0.47540 0.79610 0.74260 0.02700
C 	C 	0.47450 0.80850 0.71180 -0.03300
O 	O 	0.06014 0.43873 0.29619 -0.64700
O 	O 	0.09341 0.47277 0.24800 -0.64100
O 	O 	0.96592 0.46837 0.16440 -0.64100
C 	C 	0.18886 0.47170 0.22000 -0.19300
H 	H 	0.19940 0.45170 0.21630 0.09800
C 	C 	0.15711 0.47140 0.22940 0.14200
H 	H 	0.14610 0.45150 0.23180 0.00000
C 	C 	0.88030 0.37300 0.07846 -0.02900
C 	C 	0.85340 0.38287 0.06120 -0.01900
H 	H 	0.84390 0.40330 0.06540 0.03800
C 	C 	0.84026 0.36290 0.03770 -0.08300
H 	H 	0.82190 0.36970 0.02590 0.06000
C 	C 	0.85410 0.33300 0.03150 0.05700
C 	C 	0.88100 0.32314 0.04880 -0.08500
H 	H 	0.89040 0.30270 0.04450 0.06500
C 	C 	0.89410 0.34310 0.07230 -0.01800
H 	H 	0.91250 0.33630 0.08410 0.04100
C 	C 	0.89406 0.39438 0.10334 0.08700
C 	C 	0.88901 0.38794 0.13581 -0.14300
H 	H 	0.87470 0.37120 0.14210 0.08100
C 	C 	0.90494 0.40593 0.15912 0.08500
H 	H 	0.90150 0.40150 0.18130 0.02200
C 	C 	0.92591 0.43037 0.14997 -0.16500
C 	C 	0.93096 0.43682 0.11751 0.08400
H 	H 	0.94530 0.45350 0.11130 0.02000
C 	C 	0.91504 0.41883 0.09419 -0.14300
H 	H 	0.91850 0.42320 0.07200 0.08100
C 	C 	0.94470 0.44801 0.17500 0.49800
O 	O 	0.94490 0.07870 0.02540 -0.58400
C 	C 	0.85940 0.26160 0.02430 -0.02200
C 	C 	0.91170 0.13440 0.97170 0.08200
H 	H 	0.90930 0.12120 0.95320 0.03300
C 	C 	0.87460 0.22930 0.02470 0.01300
C 	C 	0.89990 0.17130 0.97350 -0.15200
H 	H 	0.89110 0.18160 0.95510 0.08900
C 	C 	0.25740 0.47540 0.20390 0.02700
C 	C 	0.28820 0.47450 0.19150 -0.03300
O 	O 	0.06014 0.56127 0.70381 -0.64700
O 	O 	0.09341 0.52723 0.75200 -0.64100
O 	O 	0.96592 0.53163 0.83560 -0.64100
C 	C 	0.18886 0.52830 0.78000 -0.19300
H 	H 	0.19940 0.54830 0.78370 0.09800
C 	C 	0.15711 0.52860 0.77060 0.14200
H 	H 	0.14610 0.54850 0.76820 0.00000
C 	C 	0.88030 0.62700 0.92154 -0.02900
C 	C 	0.85340 0.61713 0.93880 -0.01900
H 	H 	0.84390 0.59670 0.93460 0.03800
C 	C 	0.84026 0.63710 0.96230 -0.08300
H 	H 	0.82190 0.63030 0.97410 0.06000
C 	C 	0.85410 0.66700 0.96850 0.05700
C 	C 	0.88100 0.67686 0.95120 -0.08500
H 	H 	0.89040 0.69730 0.95550 0.06500
C 	C 	0.89410 0.65690 0.92770 -0.01800
H 	H 	0.91250 0.66370 0.91590 0.04100
C 	C 	0.89406 0.60562 0.89666 0.08700
C 	C 	0.88901 0.61206 0.86419 -0.14300
H 	H 	0.87470 0.62880 0.85790 0.08100
C 	C 	0.90494 0.59407 0.84088 0.08500
H 	H 	0.90150 0.59850 0.81870 0.02200
C 	C 	0.92591 0.56963 0.85003 -0.16500
C 	C 	0.93096 0.56318 0.88249 0.08400
H 	H 	0.94530 0.54650 0.88870 0.02000
C 	C 	0.91504 0.58117 0.90581 -0.14300
H 	H 	0.91850 0.57680 0.92800 0.08100
C 	C 	0.94470 0.55199 0.82500 0.49800
O 	O 	0.94490 0.92130 0.97460 -0.58400
C 	C 	0.85940 0.73840 0.97570 -0.02200
C 	C 	0.91170 0.86560 0.02830 0.08200
H 	H 	0.90930 0.87880 0.04680 0.03300
C 	C 	0.87460 0.77070 0.97530 0.01300
C 	C 	0.89990 0.82870 0.02650 -0.15200
H 	H 	0.89110 0.81840 0.04490 0.08900
C 	C 	0.25740 0.52460 0.79610 0.02700
C 	C 	0.28820 0.52550 0.80850 -0.03300
O 	O 	0.93986 0.56127 0.29619 -0.64700
O 	O 	0.90659 0.52723 0.24800 -0.64100
O 	O 	0.03408 0.53163 0.16440 -0.64000
C 	C 	0.81114 0.52830 0.22000 -0.19300
H 	H 	0.80060 0.54830 0.21630 0.09800
C 	C 	0.84289 0.52860 0.22940 0.14200
H 	H 	0.85390 0.54850 0.23180 0.00000
C 	C 	0.11970 0.62700 0.07846 -0.02900
C 	C 	0.14660 0.61713 0.06120 -0.01900
H 	H 	0.15610 0.59670 0.06540 0.03800
C 	C 	0.15974 0.63710 0.03770 -0.08300
H 	H 	0.17810 0.63030 0.02590 0.06000
C 	C 	0.14590 0.66700 0.03150 0.05700
C 	C 	0.11900 0.67686 0.04880 -0.08500
H 	H 	0.10960 0.69730 0.04450 0.06500
C 	C 	0.10590 0.65690 0.07230 -0.01800
H 	H 	0.08750 0.66370 0.08410 0.04100
C 	C 	0.10594 0.60562 0.10334 0.08700
C 	C 	0.11099 0.61206 0.13581 -0.14300
H 	H 	0.12530 0.62880 0.14210 0.08100
C 	C 	0.09506 0.59407 0.15912 0.08500
H 	H 	0.09850 0.59850 0.18130 0.02200
C 	C 	0.07409 0.56963 0.14997 -0.16500
C 	C 	0.06904 0.56318 0.11751 0.08400
H 	H 	0.05470 0.54650 0.11130 0.02000
C 	C 	0.08496 0.58117 0.09419 -0.14300
H 	H 	0.08150 0.57680 0.07200 0.08100
C 	C 	0.05530 0.55199 0.17500 0.49800
O 	O 	0.05510 0.92130 0.02540 -0.58400
C 	C 	0.14060 0.73840 0.02430 -0.02200
C 	C 	0.08830 0.86560 0.97170 0.08200
H 	H 	0.09070 0.87880 0.95320 0.03300
C 	C 	0.12540 0.77070 0.02470 0.01300
C 	C 	0.10010 0.82870 0.97350 -0.15200
H 	H 	0.10890 0.81840 0.95510 0.08900
C 	C 	0.74260 0.52460 0.20390 0.02700
C 	C 	0.71180 0.52550 0.19150 -0.03300
O 	O 	0.93986 0.43873 0.70381 -0.64700
O 	O 	0.90659 0.47277 0.75200 -0.64100
O 	O 	0.03408 0.46837 0.83560 -0.64000
C 	C 	0.81114 0.47170 0.78000 -0.19300
H 	H 	0.80060 0.45170 0.78370 0.09800
C 	C 	0.84289 0.47140 0.77060 0.14200
H 	H 	0.85390 0.45150 0.76820 0.00000
C 	C 	0.11970 0.37300 0.92154 -0.02900
C 	C 	0.14660 0.38287 0.93880 -0.01900
H 	H 	0.15610 0.40330 0.93460 0.03800
C 	C 	0.15974 0.36290 0.96230 -0.08300
H 	H 	0.17810 0.36970 0.97410 0.06000
C 	C 	0.14590 0.33300 0.96850 0.05700
C 	C 	0.11900 0.32314 0.95120 -0.08500
H 	H 	0.10960 0.30270 0.95550 0.06500
C 	C 	0.10590 0.34310 0.92770 -0.01800
H 	H 	0.08750 0.33630 0.91590 0.04100
C 	C 	0.10594 0.39438 0.89666 0.08700
C 	C 	0.11099 0.38794 0.86419 -0.14300
H 	H 	0.12530 0.37120 0.85790 0.08100
C 	C 	0.09506 0.40593 0.84088 0.08500
H 	H 	0.09850 0.40150 0.81870 0.02200
C 	C 	0.07409 0.43037 0.85003 -0.16500
C 	C 	0.06904 0.43682 0.88249 0.08400
H 	H 	0.05470 0.45350 0.88870 0.02000
C 	C 	0.08496 0.41883 0.90581 -0.14300
H 	H 	0.08150 0.42320 0.92800 0.08100
C 	C 	0.05530 0.44801 0.82500 0.49800
O 	O 	0.05510 0.07870 0.97460 -0.58400
C 	C 	0.14060 0.26160 0.97570 -0.02200
C 	C 	0.08830 0.13440 0.02830 0.08200
H 	H 	0.09070 0.12120 0.04680 0.03300
C 	C 	0.12540 0.22930 0.97530 0.01300
C 	C 	0.10010 0.17130 0.02650 -0.15200
H 	H 	0.10890 0.18160 0.04490 0.08900
C 	C 	0.74260 0.47540 0.79610 0.02700
C 	C 	0.71180 0.47450 0.80850 -0.03300
O 	O 	0.29619 0.06014 0.43873 -0.64700
O 	O 	0.24800 0.09341 0.47277 -0.64100
O 	O 	0.16440 0.96592 0.46837 -0.64100
C 	C 	0.22000 0.18886 0.47170 -0.19300
H 	H 	0.21630 0.19940 0.45170 0.09800
C 	C 	0.22940 0.15711 0.47140 0.14200
H 	H 	0.23180 0.14610 0.45150 0.00000
C 	C 	0.07846 0.88030 0.37300 -0.02900
C 	C 	0.06120 0.85340 0.38287 -0.01900
H 	H 	0.06540 0.84390 0.40330 0.03800
C 	C 	0.03770 0.84026 0.36290 -0.08300
H 	H 	0.02590 0.82190 0.36970 0.06000
C 	C 	0.03150 0.85410 0.33300 0.05700
C 	C 	0.04880 0.88100 0.32314 -0.08500
H 	H 	0.04450 0.89040 0.30270 0.06500
C 	C 	0.07230 0.89410 0.34310 -0.01800
H 	H 	0.08410 0.91250 0.33630 0.04100
C 	C 	0.10334 0.89406 0.39438 0.08700
C 	C 	0.13581 0.88901 0.38794 -0.14300
H 	H 	0.14210 0.87470 0.37120 0.08100
C 	C 	0.15912 0.90494 0.40593 0.08500
H 	H 	0.18130 0.90150 0.40150 0.02200
C 	C 	0.14997 0.92591 0.43037 -0.16500
C 	C 	0.11751 0.93096 0.43682 0.08400
H 	H 	0.11130 0.94530 0.45350 0.02000
C 	C 	0.09419 0.91504 0.41883 -0.14300
H 	H 	0.07200 0.91850 0.42320 0.08100
C 	C 	0.17500 0.94470 0.44801 0.49800
O 	O 	0.02540 0.94490 0.07870 -0.58400
C 	C 	0.02430 0.85940 0.26160 -0.02200
C 	C 	0.97170 0.91170 0.13440 0.08200
H 	H 	0.95320 0.90930 0.12120 0.03300
C 	C 	0.02470 0.87460 0.22930 0.01300
C 	C 	0.97350 0.89990 0.17130 -0.15200
H 	H 	0.95510 0.89110 0.18160 0.08900
C 	C 	0.20390 0.25740 0.47540 0.02700
C 	C 	0.19150 0.28820 0.47450 -0.03300
O 	O 	0.70381 0.06014 0.56127 -0.64700
O 	O 	0.75200 0.09341 0.52723 -0.64100
O 	O 	0.83560 0.96592 0.53163 -0.64100
C 	C 	0.78000 0.18886 0.52830 -0.19300
H 	H 	0.78370 0.19940 0.54830 0.09800
C 	C 	0.77060 0.15711 0.52860 0.14200
H 	H 	0.76820 0.14610 0.54850 0.00000
C 	C 	0.92154 0.88030 0.62700 -0.02900
C 	C 	0.93880 0.85340 0.61713 -0.01900
H 	H 	0.93460 0.84390 0.59670 0.03800
C 	C 	0.96230 0.84026 0.63710 -0.08300
H 	H 	0.97410 0.82190 0.63030 0.06000
C 	C 	0.96850 0.85410 0.66700 0.05700
C 	C 	0.95120 0.88100 0.67686 -0.08500
H 	H 	0.95550 0.89040 0.69730 0.06500
C 	C 	0.92770 0.89410 0.65690 -0.01800
H 	H 	0.91590 0.91250 0.66370 0.04100
C 	C 	0.89666 0.89406 0.60562 0.08700
C 	C 	0.86419 0.88901 0.61206 -0.14300
H 	H 	0.85790 0.87470 0.62880 0.08100
C 	C 	0.84088 0.90494 0.59407 0.08500
H 	H 	0.81870 0.90150 0.59850 0.02200
C 	C 	0.85003 0.92591 0.56963 -0.16500
C 	C 	0.88249 0.93096 0.56318 0.08400
H 	H 	0.88870 0.94530 0.54650 0.02000
C 	C 	0.90581 0.91504 0.58117 -0.14300
H 	H 	0.92800 0.91850 0.57680 0.08100
C 	C 	0.82500 0.94470 0.55199 0.49800
O 	O 	0.97460 0.94490 0.92130 -0.58400
C 	C 	0.97570 0.85940 0.73840 -0.02200
C 	C 	0.02830 0.91170 0.86560 0.08200
H 	H 	0.04680 0.90930 0.87880 0.03300
C 	C 	0.97530 0.87460 0.77070 0.01300
C 	C 	0.02650 0.89990 0.82870 -0.15200
H 	H 	0.04490 0.89110 0.81840 0.08900
C 	C 	0.79610 0.25740 0.52460 0.02700
C 	C 	0.80850 0.28820 0.52550 -0.03300
O 	O 	0.29619 0.93986 0.56127 -0.64700
O 	O 	0.24800 0.90659 0.52723 -0.64100
O 	O 	0.16440 0.03408 0.53163 -0.64000
C 	C 	0.22000 0.81114 0.52830 -0.19300
H 	H 	0.21630 0.80060 0.54830 0.09800
C 	C 	0.22940 0.84289 0.52860 0.14200
H 	H 	0.23180 0.85390 0.54850 0.00000
C 	C 	0.07846 0.11970 0.62700 -0.02900
C 	C 	0.06120 0.14660 0.61713 -0.01900
H 	H 	0.06540 0.15610 0.59670 0.03800
C 	C 	0.03770 0.15974 0.63710 -0.08300
H 	H 	0.02590 0.17810 0.63030 0.06000
C 	C 	0.03150 0.14590 0.66700 0.05700
C 	C 	0.04880 0.11900 0.67686 -0.08500
H 	H 	0.04450 0.10960 0.69730 0.06500
C 	C 	0.07230 0.10590 0.65690 -0.01800
H 	H 	0.08410 0.08750 0.66370 0.04100
C 	C 	0.10334 0.10594 0.60562 0.08700
C 	C 	0.13581 0.11099 0.61206 -0.14300
H 	H 	0.14210 0.12530 0.62880 0.08100
C 	C 	0.15912 0.09506 0.59407 0.08500
H 	H 	0.18130 0.09850 0.59850 0.02200
C 	C 	0.14997 0.07409 0.56963 -0.16500
C 	C 	0.11751 0.06904 0.56318 0.08400
H 	H 	0.11130 0.05470 0.54650 0.02000
C 	C 	0.09419 0.08496 0.58117 -0.14300
H 	H 	0.07200 0.08150 0.57680 0.08100
C 	C 	0.17500 0.05530 0.55199 0.49800
O 	O 	0.02540 0.05510 0.92130 -0.58400
C 	C 	0.02430 0.14060 0.73840 -0.02200
C 	C 	0.97170 0.08830 0.86560 0.08200
H 	H 	0.95320 0.09070 0.87880 0.03300
C 	C 	0.02470 0.12540 0.77070 0.01300
C 	C 	0.97350 0.10010 0.82870 -0.15200
H 	H 	0.95510 0.10890 0.81840 0.08900
C 	C 	0.20390 0.74260 0.52460 0.02700
C 	C 	0.19150 0.71180 0.52550 -0.03300
O 	O 	0.70381 0.93986 0.43873 -0.64700
O 	O 	0.75200 0.90659 0.47277 -0.64100
O 	O 	0.83560 0.03408 0.46837 -0.64000
C 	C 	0.78000 0.81114 0.47170 -0.19300
H 	H 	0.78370 0.80060 0.45170 0.09800
C 	C 	0.77060 0.84289 0.47140 0.14200
H 	H 	0.76820 0.85390 0.45150 0.00000
C 	C 	0.92154 0.11970 0.37300 -0.02900
C 	C 	0.93880 0.14660 0.38287 -0.01900
H 	H 	0.93460 0.15610 0.40330 0.03800
C 	C 	0.96230 0.15974 0.36290 -0.08300
H 	H 	0.97410 0.17810 0.36970 0.06000
C 	C 	0.96850 0.14590 0.33300 0.05700
C 	C 	0.95120 0.11900 0.32314 -0.08500
H 	H 	0.95550 0.10960 0.30270 0.06500
C 	C 	0.92770 0.10590 0.34310 -0.01800
H 	H 	0.91590 0.08750 0.33630 0.04100
C 	C 	0.89666 0.10594 0.39438 0.08700
C 	C 	0.86419 0.11099 0.38794 -0.14300
H 	H 	0.85790 0.12530 0.37120 0.08100
C 	C 	0.84088 0.09506 0.40593 0.08500
H 	H 	0.81870 0.09850 0.40150 0.02200
C 	C 	0.85003 0.07409 0.43037 -0.16500
C 	C 	0.88249 0.06904 0.43682 0.08400
H 	H 	0.88870 0.05470 0.45350 0.02000
C 	C 	0.90581 0.08496 0.41883 -0.14300
H 	H 	0.92800 0.08150 0.42320 0.08100
C 	C 	0.82500 0.05530 0.44801 0.49800
O 	O 	0.97460 0.05510 0.07870 -0.58400
C 	C 	0.97570 0.14060 0.26160 -0.02200
C 	C 	0.02830 0.08830 0.13440 0.08200
H 	H 	0.04680 0.09070 0.12120 0.03300
C 	C 	0.97530 0.12540 0.22930 0.01300
C 	C 	0.02650 0.10010 0.17130 -0.15200
H 	H 	0.04490 0.10890 0.18160 0.08900
C 	C 	0.79610 0.74260 0.47540 0.02700
C 	C 	0.80850 0.71180 0.47450 -0.03300
O 	O 	0.79619 0.93873 0.43986 -0.64700
O 	O 	0.74800 0.97277 0.40659 -0.64100
O 	O 	0.66440 0.96837 0.53408 -0.64100
C 	C 	0.72000 0.97170 0.31114 -0.19300
H 	H 	0.71630 0.95170 0.30060 0.09800
C 	C 	0.72940 0.97140 0.34289 0.14200
H 	H 	0.73180 0.95150 0.35390 0.00000
C 	C 	0.57846 0.87300 0.61970 -0.02900
C 	C 	0.56120 0.88287 0.64660 -0.01900
H 	H 	0.56540 0.90330 0.65610 0.03800
C 	C 	0.53770 0.86290 0.65974 -0.08300
H 	H 	0.52590 0.86970 0.67810 0.06000
C 	C 	0.53150 0.83300 0.64590 0.05700
C 	C 	0.54880 0.82314 0.61900 -0.08500
H 	H 	0.54450 0.80270 0.60960 0.06500
C 	C 	0.57230 0.84310 0.60590 -0.01800
H 	H 	0.58410 0.83630 0.58750 0.04100
C 	C 	0.60334 0.89438 0.60594 0.08700
C 	C 	0.63581 0.88794 0.61099 -0.14300
H 	H 	0.64210 0.87120 0.62530 0.08100
C 	C 	0.65912 0.90593 0.59506 0.08500
H 	H 	0.68130 0.90150 0.59850 0.02200
C 	C 	0.64997 0.93037 0.57409 -0.16500
C 	C 	0.61751 0.93682 0.56904 0.08400
H 	H 	0.61130 0.95350 0.55470 0.02000
C 	C 	0.59419 0.91883 0.58496 -0.14300
H 	H 	0.57200 0.92320 0.58150 0.08100
C 	C 	0.67500 0.94801 0.55530 0.49800
O 	O 	0.52540 0.57870 0.55510 -0.58400
C 	C 	0.52430 0.76160 0.64060 -0.02200
C 	C 	0.47170 0.63440 0.58830 0.08200
H 	H 	0.45320 0.62120 0.59070 0.03300
C 	C 	0.52470 0.72930 0.62540 0.01300
C 	C 	0.47350 0.67130 0.60010 -0.15200
H 	H 	0.45510 0.68160 0.60890 0.08900
C 	C 	0.70390 0.97540 0.24260 0.02700
C 	C 	0.69150 0.97450 0.21180 -0.03300
O 	O 	0.20381 0.06127 0.43986 -0.64700
O 	O 	0.25200 0.02723 0.40659 -0.64100
O 	O 	0.33560 0.03163 0.53408 -0.64000
C 	C 	0.28000 0.02830 0.31114 -0.19300
H 	H 	0.28370 0.04830 0.30060 0.09800
C 	C 	0.27060 0.02860 0.34289 0.14200
H 	H 	0.26820 0.04850 0.35390 0.00000
C 	C 	0.42154 0.12700 0.61970 -0.02900
C 	C 	0.43880 0.11713 0.64660 -0.01900
H 	H 	0.43460 0.09670 0.65610 0.03800
C 	C 	0.46230 0.13710 0.65974 -0.08300
H 	H 	0.47410 0.13030 0.67810 0.06000
C 	C 	0.46850 0.16700 0.64590 0.05700
C 	C 	0.45120 0.17686 0.61900 -0.08500
H 	H 	0.45550 0.19730 0.60960 0.06500
C 	C 	0.42770 0.15690 0.60590 -0.01800
H 	H 	0.41590 0.16370 0.58750 0.04100
C 	C 	0.39666 0.10562 0.60594 0.08700
C 	C 	0.36419 0.11206 0.61099 -0.14300
H 	H 	0.35790 0.12880 0.62530 0.08100
C 	C 	0.34088 0.09407 0.59506 0.08500
H 	H 	0.31870 0.09850 0.59850 0.02200
C 	C 	0.35003 0.06963 0.57409 -0.16500
C 	C 	0.38249 0.06318 0.56904 0.08400
H 	H 	0.38870 0.04650 0.55470 0.02000
C 	C 	0.40581 0.08117 0.58496 -0.14300
H 	H 	0.42800 0.07680 0.58150 0.08100
C 	C 	0.32500 0.05199 0.55530 0.49800
O 	O 	0.47460 0.42130 0.55510 -0.58400
C 	C 	0.47570 0.23840 0.64060 -0.02200
C 	C 	0.52830 0.36560 0.58830 0.08200
H 	H 	0.54680 0.37880 0.59070 0.03300
C 	C 	0.47530 0.27070 0.62540 0.01300
C 	C 	0.52650 0.32870 0.60010 -0.15200
H 	H 	0.54490 0.31840 0.60890 0.08900
C 	C 	0.29610 0.02460 0.24260 0.02700
C 	C 	0.30850 0.02550 0.21180 -0.03300
O 	O 	0.79619 0.06127 0.56014 -0.64700
O 	O 	0.74800 0.02723 0.59341 -0.64100
O 	O 	0.66440 0.03163 0.46592 -0.64000
C 	C 	0.72000 0.02830 0.68886 -0.19300
H 	H 	0.71630 0.04830 0.69940 0.09800
C 	C 	0.72940 0.02860 0.65711 0.14200
H 	H 	0.73180 0.04850 0.64610 0.00000
C 	C 	0.57846 0.12700 0.38030 -0.02900
C 	C 	0.56120 0.11713 0.35340 -0.01900
H 	H 	0.56540 0.09670 0.34390 0.03800
C 	C 	0.53770 0.13710 0.34026 -0.08300
H 	H 	0.52590 0.13030 0.32190 0.06000
C 	C 	0.53150 0.16700 0.35410 0.05700
C 	C 	0.54880 0.17686 0.38100 -0.08500
H 	H 	0.54450 0.19730 0.39040 0.06500
C 	C 	0.57230 0.15690 0.39410 -0.01800
H 	H 	0.58410 0.16370 0.41250 0.04100
C 	C 	0.60334 0.10562 0.39406 0.08700
C 	C 	0.63581 0.11206 0.38901 -0.14300
H 	H 	0.64210 0.12880 0.37470 0.08100
C 	C 	0.65912 0.09407 0.40494 0.08500
H 	H 	0.68130 0.09850 0.40150 0.02200
C 	C 	0.64997 0.06963 0.42591 -0.16500
C 	C 	0.61751 0.06318 0.43096 0.08400
H 	H 	0.61130 0.04650 0.44530 0.02000
C 	C 	0.59419 0.08117 0.41504 -0.14300
H 	H 	0.57200 0.07680 0.41850 0.08100
C 	C 	0.67500 0.05199 0.44470 0.49800
O 	O 	0.52540 0.42130 0.44490 -0.58400
C 	C 	0.52430 0.23840 0.35940 -0.02200
C 	C 	0.47170 0.36560 0.41170 0.08200
H 	H 	0.45320 0.37880 0.40930 0.03300
C 	C 	0.52470 0.27070 0.37460 0.01300
C 	C 	0.47350 0.32870 0.39990 -0.15200
H 	H 	0.45510 0.31840 0.39110 0.08900
C 	C 	0.70390 0.02460 0.75740 0.02700
C 	C 	0.69150 0.02550 0.78820 -0.03300
O 	O 	0.20381 0.93873 0.56014 -0.64700
O 	O 	0.25200 0.97277 0.59341 -0.64100
O 	O 	0.33560 0.96837 0.46592 -0.64100
C 	C 	0.28000 0.97170 0.68886 -0.19300
H 	H 	0.28370 0.95170 0.69940 0.09800
C 	C 	0.27060 0.97140 0.65711 0.14200
H 	H 	0.26820 0.95150 0.64610 0.00000
C 	C 	0.42154 0.87300 0.38030 -0.02900
C 	C 	0.43880 0.88287 0.35340 -0.01900
H 	H 	0.43460 0.90330 0.34390 0.03800
C 	C 	0.46230 0.86290 0.34026 -0.08300
H 	H 	0.47410 0.86970 0.32190 0.06000
C 	C 	0.46850 0.83300 0.35410 0.05700
C 	C 	0.45120 0.82314 0.38100 -0.08500
H 	H 	0.45550 0.80270 0.39040 0.06500
C 	C 	0.42770 0.84310 0.39410 -0.01800
H 	H 	0.41590 0.83630 0.41250 0.04100
C 	C 	0.39666 0.89438 0.39406 0.08700
C 	C 	0.36419 0.88794 0.38901 -0.14300
H 	H 	0.35790 0.87120 0.37470 0.08100
C 	C 	0.34088 0.90593 0.40494 0.08500
H 	H 	0.31870 0.90150 0.40150 0.02200
C 	C 	0.35003 0.93037 0.42591 -0.16500
C 	C 	0.38249 0.93682 0.43096 0.08400
H 	H 	0.38870 0.95350 0.44530 0.02000
C 	C 	0.40581 0.91883 0.41504 -0.14300
H 	H 	0.42800 0.92320 0.41850 0.08100
C 	C 	0.32500 0.94801 0.44470 0.49800
O 	O 	0.47460 0.57870 0.44490 -0.58400
C 	C 	0.47570 0.76160 0.35940 -0.02200
C 	C 	0.52830 0.63440 0.41170 0.08200
H 	H 	0.54680 0.62120 0.40930 0.03300
C 	C 	0.47530 0.72930 0.37460 0.01300
C 	C 	0.52650 0.67130 0.39990 -0.15200
H 	H 	0.54490 0.68160 0.39110 0.08900
C 	C 	0.29610 0.97540 0.75740 0.02700
C 	C 	0.30850 0.97450 0.78820 -0.03300
O 	O 	0.93873 0.56014 0.20381 -0.64700
O 	O 	0.97277 0.59341 0.25200 -0.64100
O 	O 	0.96837 0.46592 0.33560 -0.64100
C 	C 	0.97170 0.68886 0.28000 -0.19300
H 	H 	0.95170 0.69940 0.28370 0.09800
C 	C 	0.97140 0.65711 0.27060 0.14200
H 	H 	0.95150 0.64610 0.26820 0.00000
C 	C 	0.87300 0.38030 0.42154 -0.02900
C 	C 	0.88287 0.35340 0.43880 -0.01900
H 	H 	0.90330 0.34390 0.43460 0.03800
C 	C 	0.86290 0.34026 0.46230 -0.08300
H 	H 	0.86970 0.32190 0.47410 0.06000
C 	C 	0.83300 0.35410 0.46850 0.05700
C 	C 	0.82314 0.38100 0.45120 -0.08500
H 	H 	0.80270 0.39040 0.45550 0.06500
C 	C 	0.84310 0.39410 0.42770 -0.01800
H 	H 	0.83630 0.41250 0.41590 0.04100
C 	C 	0.89438 0.39406 0.39666 0.08700
C 	C 	0.88794 0.38901 0.36419 -0.14300
H 	H 	0.87120 0.37470 0.35790 0.08100
C 	C 	0.90593 0.40494 0.34088 0.08500
H 	H 	0.90150 0.40150 0.31870 0.02200
C 	C 	0.93037 0.42591 0.35003 -0.16500
C 	C 	0.93682 0.43096 0.38249 0.08400
H 	H 	0.95350 0.44530 0.38870 0.02000
C 	C 	0.91883 0.41504 0.40581 -0.14300
H 	H 	0.92320 0.41850 0.42800 0.08100
C 	C 	0.94801 0.44470 0.32500 0.49800
O 	O 	0.57870 0.44490 0.47460 -0.58400
C 	C 	0.76160 0.35940 0.47570 -0.02200
C 	C 	0.63440 0.41170 0.52830 0.08200
H 	H 	0.62120 0.40930 0.54680 0.03300
C 	C 	0.72930 0.37460 0.47530 0.01300
C 	C 	0.67130 0.39990 0.52650 -0.15200
H 	H 	0.68160 0.39110 0.54490 0.08900
C 	C 	0.97540 0.75740 0.29610 0.02700
C 	C 	0.97450 0.78820 0.30850 -0.03300
O 	O 	0.06127 0.56014 0.79619 -0.64700
O 	O 	0.02723 0.59341 0.74800 -0.64100
O 	O 	0.03163 0.46592 0.66440 -0.64000
C 	C 	0.02830 0.68886 0.72000 -0.19300
H 	H 	0.04830 0.69940 0.71630 0.09800
C 	C 	0.02860 0.65711 0.72940 0.14200
H 	H 	0.04850 0.64610 0.73180 0.00000
C 	C 	0.12700 0.38030 0.57846 -0.02900
C 	C 	0.11713 0.35340 0.56120 -0.01900
H 	H 	0.09670 0.34390 0.56540 0.03800
C 	C 	0.13710 0.34026 0.53770 -0.08300
H 	H 	0.13030 0.32190 0.52590 0.06000
C 	C 	0.16700 0.35410 0.53150 0.05700
C 	C 	0.17686 0.38100 0.54880 -0.08500
H 	H 	0.19730 0.39040 0.54450 0.06500
C 	C 	0.15690 0.39410 0.57230 -0.01800
H 	H 	0.16370 0.41250 0.58410 0.04100
C 	C 	0.10562 0.39406 0.60334 0.08700
C 	C 	0.11206 0.38901 0.63581 -0.14300
H 	H 	0.12880 0.37470 0.64210 0.08100
C 	C 	0.09407 0.40494 0.65912 0.08500
H 	H 	0.09850 0.40150 0.68130 0.02200
C 	C 	0.06963 0.42591 0.64997 -0.16500
C 	C 	0.06318 0.43096 0.61751 0.08400
H 	H 	0.04650 0.44530 0.61130 0.02000
C 	C 	0.08117 0.41504 0.59419 -0.14300
H 	H 	0.07680 0.41850 0.57200 0.08100
C 	C 	0.05199 0.44470 0.67500 0.49800
O 	O 	0.42130 0.44490 0.52540 -0.58400
C 	C 	0.23840 0.35940 0.52430 -0.02200
C 	C 	0.36560 0.41170 0.47170 0.08200
H 	H 	0.37880 0.40930 0.45320 0.03300
C 	C 	0.27070 0.37460 0.52470 0.01300
C 	C 	0.32870 0.39990 0.47350 -0.15200
H 	H 	0.31840 0.39110 0.45510 0.08900
C 	C 	0.02460 0.75740 0.70390 0.02700
C 	C 	0.02550 0.78820 0.69150 -0.03300
O 	O 	0.06127 0.43986 0.20381 -0.64700
O 	O 	0.02723 0.40659 0.25200 -0.64100
O 	O 	0.03163 0.53408 0.33560 -0.64000
C 	C 	0.02830 0.31114 0.28000 -0.19300
H 	H 	0.04830 0.30060 0.28370 0.09800
C 	C 	0.02860 0.34289 0.27060 0.14200
H 	H 	0.04850 0.35390 0.26820 0.00000
C 	C 	0.12700 0.61970 0.42154 -0.02900
C 	C 	0.11713 0.64660 0.43880 -0.01900
H 	H 	0.09670 0.65610 0.43460 0.03800
C 	C 	0.13710 0.65974 0.46230 -0.08300
H 	H 	0.13030 0.67810 0.47410 0.06000
C 	C 	0.16700 0.64590 0.46850 0.05700
C 	C 	0.17686 0.61900 0.45120 -0.08500
H 	H 	0.19730 0.60960 0.45550 0.06500
C 	C 	0.15690 0.60590 0.42770 -0.01800
H 	H 	0.16370 0.58750 0.41590 0.04100
C 	C 	0.10562 0.60594 0.39666 0.08700
C 	C 	0.11206 0.61099 0.36419 -0.14300
H 	H 	0.12880 0.62530 0.35790 0.08100
C 	C 	0.09407 0.59506 0.34088 0.08500
H 	H 	0.09850 0.59850 0.31870 0.02200
C 	C 	0.06963 0.57409 0.35003 -0.16500
C 	C 	0.06318 0.56904 0.38249 0.08400
H 	H 	0.04650 0.55470 0.38870 0.02000
C 	C 	0.08117 0.58496 0.40581 -0.14300
H 	H 	0.07680 0.58150 0.42800 0.08100
C 	C 	0.05199 0.55530 0.32500 0.49800
O 	O 	0.42130 0.55510 0.47460 -0.58400
C 	C 	0.23840 0.64060 0.47570 -0.02200
C 	C 	0.36560 0.58830 0.52830 0.08200
H 	H 	0.37880 0.59070 0.54680 0.03300
C 	C 	0.27070 0.62540 0.47530 0.01300
C 	C 	0.32870 0.60010 0.52650 -0.15200
H 	H 	0.31840 0.60890 0.54490 0.08900
C 	C 	0.02460 0.24260 0.29610 0.02700
C 	C 	0.02550 0.21180 0.30850 -0.03300
O 	O 	0.93873 0.43986 0.79619 -0.64700
O 	O 	0.97277 0.40659 0.74800 -0.64100
O 	O 	0.96837 0.53408 0.66440 -0.64100
C 	C 	0.97170 0.31114 0.72000 -0.19300
H 	H 	0.95170 0.30060 0.71630 0.09800
C 	C 	0.97140 0.34289 0.72940 0.14200
H 	H 	0.95150 0.35390 0.73180 0.00000
C 	C 	0.87300 0.61970 0.57846 -0.02900
C 	C 	0.88287 0.64660 0.56120 -0.01900
H 	H 	0.90330 0.65610 0.56540 0.03800
C 	C 	0.86290 0.65974 0.53770 -0.08300
H 	H 	0.86970 0.67810 0.52590 0.06000
C 	C 	0.83300 0.64590 0.53150 0.05700
C 	C 	0.82314 0.61900 0.54880 -0.08500
H 	H 	0.80270 0.60960 0.54450 0.06500
C 	C 	0.84310 0.60590 0.57230 -0.01800
H 	H 	0.83630 0.58750 0.58410 0.04100
C 	C 	0.89438 0.60594 0.60334 0.08700
C 	C 	0.88794 0.61099 0.63581 -0.14300
H 	H 	0.87120 0.62530 0.64210 0.08100
C 	C 	0.90593 0.59506 0.65912 0.08500
H 	H 	0.90150 0.59850 0.68130 0.02200
C 	C 	0.93037 0.57409 0.64997 -0.16500
C 	C 	0.93682 0.56904 0.61751 0.08400
H 	H 	0.95350 0.55470 0.61130 0.02000
C 	C 	0.91883 0.58496 0.59419 -0.14300
H 	H 	0.92320 0.58150 0.57200 0.08100
C 	C 	0.94801 0.55530 0.67500 0.49800
O 	O 	0.57870 0.55510 0.52540 -0.58400
C 	C 	0.76160 0.64060 0.52430 -0.02200
C 	C 	0.63440 0.58830 0.47170 0.08200
H 	H 	0.62120 0.59070 0.45320 0.03300
C 	C 	0.72930 0.62540 0.52470 0.01300
C 	C 	0.67130 0.60010 0.47350 -0.15200
H 	H 	0.68160 0.60890 0.45510 0.08900
C 	C 	0.97540 0.24260 0.70390 0.02700
C 	C 	0.97450 0.21180 0.69150 -0.03300
O 	O 	0.56014 0.79619 0.06127 -0.64700
O 	O 	0.59341 0.74800 0.02723 -0.64100
O 	O 	0.46592 0.66440 0.03163 -0.64000
C 	C 	0.68886 0.72000 0.02830 -0.19300
H 	H 	0.69940 0.71630 0.04830 0.09800
C 	C 	0.65711 0.72940 0.02860 0.14200
H 	H 	0.64610 0.73180 0.04850 0.00000
C 	C 	0.38030 0.57846 0.12700 -0.02900
C 	C 	0.35340 0.56120 0.11713 -0.01900
H 	H 	0.34390 0.56540 0.09670 0.03800
C 	C 	0.34026 0.53770 0.13710 -0.08300
H 	H 	0.32190 0.52590 0.13030 0.06000
C 	C 	0.35410 0.53150 0.16700 0.05700
C 	C 	0.38100 0.54880 0.17686 -0.08500
H 	H 	0.39040 0.54450 0.19730 0.06500
C 	C 	0.39410 0.57230 0.15690 -0.01800
H 	H 	0.41250 0.58410 0.16370 0.04100
C 	C 	0.39406 0.60334 0.10562 0.08700
C 	C 	0.38901 0.63581 0.11206 -0.14300
H 	H 	0.37470 0.64210 0.12880 0.08100
C 	C 	0.40494 0.65912 0.09407 0.08500
H 	H 	0.40150 0.68130 0.09850 0.02200
C 	C 	0.42591 0.64997 0.06963 -0.16500
C 	C 	0.43096 0.61751 0.06318 0.08400
H 	H 	0.44530 0.61130 0.04650 0.02000
C 	C 	0.41504 0.59419 0.08117 -0.14300
H 	H 	0.41850 0.57200 0.07680 0.08100
C 	C 	0.44470 0.67500 0.05199 0.49800
O 	O 	0.44490 0.52540 0.42130 -0.58400
C 	C 	0.35940 0.52430 0.23840 -0.02200
C 	C 	0.41170 0.47170 0.36560 0.08200
H 	H 	0.40930 0.45320 0.37880 0.03300
C 	C 	0.37460 0.52470 0.27070 0.01300
C 	C 	0.39990 0.47350 0.32870 -0.15200
H 	H 	0.39110 0.45510 0.31840 0.08900
C 	C 	0.75740 0.70390 0.02460 0.02700
C 	C 	0.78820 0.69150 0.02550 -0.03300
O 	O 	0.56014 0.20381 0.93873 -0.64700
O 	O 	0.59341 0.25200 0.97277 -0.64100
O 	O 	0.46592 0.33560 0.96837 -0.64100
C 	C 	0.68886 0.28000 0.97170 -0.19300
H 	H 	0.69940 0.28370 0.95170 0.09800
C 	C 	0.65711 0.27060 0.97140 0.14200
H 	H 	0.64610 0.26820 0.95150 0.00000
C 	C 	0.38030 0.42154 0.87300 -0.02900
C 	C 	0.35340 0.43880 0.88287 -0.01900
H 	H 	0.34390 0.43460 0.90330 0.03800
C 	C 	0.34026 0.46230 0.86290 -0.08300
H 	H 	0.32190 0.47410 0.86970 0.06000
C 	C 	0.35410 0.46850 0.83300 0.05700
C 	C 	0.38100 0.45120 0.82314 -0.08500
H 	H 	0.39040 0.45550 0.80270 0.06500
C 	C 	0.39410 0.42770 0.84310 -0.01800
H 	H 	0.41250 0.41590 0.83630 0.04100
C 	C 	0.39406 0.39666 0.89438 0.08700
C 	C 	0.38901 0.36419 0.88794 -0.14300
H 	H 	0.37470 0.35790 0.87120 0.08100
C 	C 	0.40494 0.34088 0.90593 0.08500
H 	H 	0.40150 0.31870 0.90150 0.02200
C 	C 	0.42591 0.35003 0.93037 -0.16500
C 	C 	0.43096 0.38249 0.93682 0.08400
H 	H 	0.44530 0.38870 0.95350 0.02000
C 	C 	0.41504 0.40581 0.91883 -0.14300
H 	H 	0.41850 0.42800 0.92320 0.08100
C 	C 	0.44470 0.32500 0.94801 0.49800
O 	O 	0.44490 0.47460 0.57870 -0.58400
C 	C 	0.35940 0.47570 0.76160 -0.02200
C 	C 	0.41170 0.52830 0.63440 0.08200
H 	H 	0.40930 0.54680 0.62120 0.03300
C 	C 	0.37460 0.47530 0.72930 0.01300
C 	C 	0.39990 0.52650 0.67130 -0.15200
H 	H 	0.39110 0.54490 0.68160 0.08900
C 	C 	0.75740 0.29610 0.97540 0.02700
C 	C 	0.78820 0.30850 0.97450 -0.03300
O 	O 	0.43986 0.79619 0.93873 -0.64700
O 	O 	0.40659 0.74800 0.97277 -0.64100
O 	O 	0.53408 0.66440 0.96837 -0.64100
C 	C 	0.31114 0.72000 0.97170 -0.19300
H 	H 	0.30060 0.71630 0.95170 0.09800
C 	C 	0.34289 0.72940 0.97140 0.14200
H 	H 	0.35390 0.73180 0.95150 0.00000
C 	C 	0.61970 0.57846 0.87300 -0.02900
C 	C 	0.64660 0.56120 0.88287 -0.01900
H 	H 	0.65610 0.56540 0.90330 0.03800
C 	C 	0.65974 0.53770 0.86290 -0.08300
H 	H 	0.67810 0.52590 0.86970 0.06000
C 	C 	0.64590 0.53150 0.83300 0.05700
C 	C 	0.61900 0.54880 0.82314 -0.08500
H 	H 	0.60960 0.54450 0.80270 0.06500
C 	C 	0.60590 0.57230 0.84310 -0.01800
H 	H 	0.58750 0.58410 0.83630 0.04100
C 	C 	0.60594 0.60334 0.89438 0.08700
C 	C 	0.61099 0.63581 0.88794 -0.14300
H 	H 	0.62530 0.64210 0.87120 0.08100
C 	C 	0.59506 0.65912 0.90593 0.08500
H 	H 	0.59850 0.68130 0.90150 0.02200
C 	C 	0.57409 0.64997 0.93037 -0.16500
C 	C 	0.56904 0.61751 0.93682 0.08400
H 	H 	0.55470 0.61130 0.95350 0.02000
C 	C 	0.58496 0.59419 0.91883 -0.14300
H 	H 	0.58150 0.57200 0.92320 0.08100
C 	C 	0.55530 0.67500 0.94801 0.49800
O 	O 	0.55510 0.52540 0.57870 -0.58400
C 	C 	0.64060 0.52430 0.76160 -0.02200
C 	C 	0.58830 0.47170 0.63440 0.08200
H 	H 	0.59070 0.45320 0.62120 0.03300
C 	C 	0.62540 0.52470 0.72930 0.01300
C 	C 	0.60010 0.47350 0.67130 -0.15200
H 	H 	0.60890 0.45510 0.68160 0.08900
C 	C 	0.24260 0.70390 0.97540 0.02700
C 	C 	0.21180 0.69150 0.97450 -0.03300
O 	O 	0.43986 0.20381 0.06127 -0.64700
O 	O 	0.40659 0.25200 0.02723 -0.64100
O 	O 	0.53408 0.33560 0.03163 -0.64000
C 	C 	0.31114 0.28000 0.02830 -0.19300
H 	H 	0.30060 0.28370 0.04830 0.09800
C 	C 	0.34289 0.27060 0.02860 0.14200
H 	H 	0.35390 0.26820 0.04850 0.00000
C 	C 	0.61970 0.42154 0.12700 -0.02900
C 	C 	0.64660 0.43880 0.11713 -0.01900
H 	H 	0.65610 0.43460 0.09670 0.03800
C 	C 	0.65974 0.46230 0.13710 -0.08300
H 	H 	0.67810 0.47410 0.13030 0.06000
C 	C 	0.64590 0.46850 0.16700 0.05700
C 	C 	0.61900 0.45120 0.17686 -0.08500
H 	H 	0.60960 0.45550 0.19730 0.06500
C 	C 	0.60590 0.42770 0.15690 -0.01800
H 	H 	0.58750 0.41590 0.16370 0.04100
C 	C 	0.60594 0.39666 0.10562 0.08700
C 	C 	0.61099 0.36419 0.11206 -0.14300
H 	H 	0.62530 0.35790 0.12880 0.08100
C 	C 	0.59506 0.34088 0.09407 0.08500
H 	H 	0.59850 0.31870 0.09850 0.02200
C 	C 	0.57409 0.35003 0.06963 -0.16500
C 	C 	0.56904 0.38249 0.06318 0.08400
H 	H 	0.55470 0.38870 0.04650 0.02000
C 	C 	0.58496 0.40581 0.08117 -0.14300
H 	H 	0.58150 0.42800 0.07680 0.08100
C 	C 	0.55530 0.32500 0.05199 0.49800
O 	O 	0.55510 0.47460 0.42130 -0.58400
C 	C 	0.64060 0.47570 0.23840 -0.02200
C 	C 	0.58830 0.52830 0.36560 0.08200
H 	H 	0.59070 0.54680 0.37880 0.03300
C 	C 	0.62540 0.47530 0.27070 0.01300
C 	C 	0.60010 0.52650 0.32870 -0.15200
H 	H 	0.60890 0.54490 0.31840 0.08900
C 	C 	0.24260 0.29610 0.02460 0.02700
C 	C 	0.21180 0.30850 0.02550 -0.03300
O 	O 	0.56127 0.70381 0.93986 -0.64700
O 	O 	0.52723 0.75200 0.90659 -0.64100
O 	O 	0.53163 0.83560 0.03408 -0.64000
C 	C 	0.52830 0.78000 0.81114 -0.19300
H 	H 	0.54830 0.78370 0.80060 0.09800
C 	C 	0.52860 0.77060 0.84289 0.14200
H 	H 	0.54850 0.76820 0.85390 0.00000
C 	C 	0.62700 0.92154 0.11970 -0.02900
C 	C 	0.61713 0.93880 0.14660 -0.01900
H 	H 	0.59670 0.93460 0.15610 0.03800
C 	C 	0.63710 0.96230 0.15974 -0.08300
H 	H 	0.63030 0.97410 0.17810 0.06000
C 	C 	0.66700 0.96850 0.14590 0.05700
C 	C 	0.67686 0.95120 0.11900 -0.08500
H 	H 	0.69730 0.95550 0.10960 0.06500
C 	C 	0.65690 0.92770 0.10590 -0.01800
H 	H 	0.66370 0.91590 0.08750 0.04100
C 	C 	0.60562 0.89666 0.10594 0.08700
C 	C 	0.61206 0.86419 0.11099 -0.14300
H 	H 	0.62880 0.85790 0.12530 0.08100
C 	C 	0.59407 0.84088 0.09506 0.08500
H 	H 	0.59850 0.81870 0.09850 0.02200
C 	C 	0.56963 0.85003 0.07409 -0.16500
C 	C 	0.56318 0.88249 0.06904 0.08400
H 	H 	0.54650 0.88870 0.05470 0.02000
C 	C 	0.58117 0.90581 0.08496 -0.14300
H 	H 	0.57680 0.92800 0.08150 0.08100
C 	C 	0.55199 0.82500 0.05530 0.49800
O 	O 	0.92130 0.97460 0.05510 -0.58400
C 	C 	0.73840 0.97570 0.14060 -0.02200
C 	C 	0.86560 0.02830 0.08830 0.08200
H 	H 	0.87880 0.04680 0.09070 0.03300
C 	C 	0.77070 0.97530 0.12540 0.01300
C 	C 	0.82870 0.02650 0.10010 -0.15200
H 	H 	0.81840 0.04490 0.10890 0.08900
C 	C 	0.52460 0.79610 0.74260 0.02700
C 	C 	0.52550 0.80850 0.71180 -0.03300
O 	O 	0.43873 0.29619 0.93986 -0.64700
O 	O 	0.47277 0.24800 0.90659 -0.64100
O 	O 	0.46837 0.16440 0.03408 -0.64000
C 	C 	0.47170 0.22000 0.81114 -0.19300
H 	H 	0.45170 0.21630 0.80060 0.09800
C 	C 	0.47140 0.22940 0.84289 0.14200
H 	H 	0.45150 0.23180 0.85390 0.00000
C 	C 	0.37300 0.07846 0.11970 -0.02900
C 	C 	0.38287 0.06120 0.14660 -0.01900
H 	H 	0.40330 0.06540 0.15610 0.03800
C 	C 	0.36290 0.03770 0.15974 -0.08300
H 	H 	0.36970 0.02590 0.17810 0.06000
C 	C 	0.33300 0.03150 0.14590 0.05700
C 	C 	0.32314 0.04880 0.11900 -0.08500
H 	H 	0.30270 0.04450 0.10960 0.06500
C 	C 	0.34310 0.07230 0.10590 -0.01800
H 	H 	0.33630 0.08410 0.08750 0.04100
C 	C 	0.39438 0.10334 0.10594 0.08700
C 	C 	0.38794 0.13581 0.11099 -0.14300
H 	H 	0.37120 0.14210 0.12530 0.08100
C 	C 	0.40593 0.15912 0.09506 0.08500
H 	H 	0.40150 0.18130 0.09850 0.02200
C 	C 	0.43037 0.14997 0.07409 -0.16500
C 	C 	0.43682 0.11751 0.06904 0.08400
H 	H 	0.45350 0.11130 0.05470 0.02000
C 	C 	0.41883 0.09419 0.08496 -0.14300
H 	H 	0.42320 0.07200 0.08150 0.08100
C 	C 	0.44801 0.17500 0.05530 0.49800
O 	O 	0.07870 0.02540 0.05510 -0.58400
C 	C 	0.26160 0.02430 0.14060 -0.02200
C 	C 	0.13440 0.97170 0.08830 0.08200
H 	H 	0.12120 0.95320 0.09070 0.03300
C 	C 	0.22930 0.02470 0.12540 0.01300
C 	C 	0.17130 0.97350 0.10010 -0.15200
H 	H 	0.18160 0.95510 0.10890 0.08900
C 	C 	0.47540 0.20390 0.74260 0.02700
C 	C 	0.47450 0.19150 0.71180 -0.03300
O 	O 	0.43873 0.70381 0.06014 -0.64700
O 	O 	0.47277 0.75200 0.09341 -0.64100
O 	O 	0.46837 0.83560 0.96592 -0.64100
C 	C 	0.47170 0.78000 0.18886 -0.19300
H 	H 	0.45170 0.78370 0.19940 0.09800
C 	C 	0.47140 0.77060 0.15711 0.14200
H 	H 	0.45150 0.76820 0.14610 0.00000
C 	C 	0.37300 0.92154 0.88030 -0.02900
C 	C 	0.38287 0.93880 0.85340 -0.01900
H 	H 	0.40330 0.93460 0.84390 0.03800
C 	C 	0.36290 0.96230 0.84026 -0.08300
H 	H 	0.36970 0.97410 0.82190 0.06000
C 	C 	0.33300 0.96850 0.85410 0.05700
C 	C 	0.32314 0.95120 0.88100 -0.08500
H 	H 	0.30270 0.95550 0.89040 0.06500
C 	C 	0.34310 0.92770 0.89410 -0.01800
H 	H 	0.33630 0.91590 0.91250 0.04100
C 	C 	0.39438 0.89666 0.89406 0.08700
C 	C 	0.38794 0.86419 0.88901 -0.14300
H 	H 	0.37120 0.85790 0.87470 0.08100
C 	C 	0.40593 0.84088 0.90494 0.08500
H 	H 	0.40150 0.81870 0.90150 0.02200
C 	C 	0.43037 0.85003 0.92591 -0.16500
C 	C 	0.43682 0.88249 0.93096 0.08400
H 	H 	0.45350 0.88870 0.94530 0.02000
C 	C 	0.41883 0.90581 0.91504 -0.14300
H 	H 	0.42320 0.92800 0.91850 0.08100
C 	C 	0.44801 0.82500 0.94470 0.49800
O 	O 	0.07870 0.97460 0.94490 -0.58400
C 	C 	0.26160 0.97570 0.85940 -0.02200
C 	C 	0.13440 0.02830 0.91170 0.08200
H 	H 	0.12120 0.04680 0.90930 0.03300
C 	C 	0.22930 0.97530 0.87460 0.01300
C 	C 	0.17130 0.02650 0.89990 -0.15200
H 	H 	0.18160 0.04490 0.89110 0.08900
C 	C 	0.47540 0.79610 0.25740 0.02700
C 	C 	0.47450 0.80850 0.28820 -0.03300
O 	O 	0.56127 0.29619 0.06014 -0.64700
O 	O 	0.52723 0.24800 0.09341 -0.64100
O 	O 	0.53163 0.16440 0.96592 -0.64100
C 	C 	0.52830 0.22000 0.18886 -0.19300
H 	H 	0.54830 0.21630 0.19940 0.09800
C 	C 	0.52860 0.22940 0.15711 0.14200
H 	H 	0.54850 0.23180 0.14610 0.00000
C 	C 	0.62700 0.07846 0.88030 -0.02900
C 	C 	0.61713 0.06120 0.85340 -0.01900
H 	H 	0.59670 0.06540 0.84390 0.03800
C 	C 	0.63710 0.03770 0.84026 -0.08300
H 	H 	0.63030 0.02590 0.82190 0.06000
C 	C 	0.66700 0.03150 0.85410 0.05700
C 	C 	0.67686 0.04880 0.88100 -0.08500
H 	H 	0.69730 0.04450 0.89040 0.06500
C 	C 	0.65690 0.07230 0.89410 -0.01800
H 	H 	0.66370 0.08410 0.91250 0.04100
C 	C 	0.60562 0.10334 0.89406 0.08700
C 	C 	0.61206 0.13581 0.88901 -0.14300
H 	H 	0.62880 0.14210 0.87470 0.08100
C 	C 	0.59407 0.15912 0.90494 0.08500
H 	H 	0.59850 0.18130 0.90150 0.02200
C 	C 	0.56963 0.14997 0.92591 -0.16500
C 	C 	0.56318 0.11751 0.93096 0.08400
H 	H 	0.54650 0.11130 0.94530 0.02000
C 	C 	0.58117 0.09419 0.91504 -0.14300
H 	H 	0.57680 0.07200 0.91850 0.08100
C 	C 	0.55199 0.17500 0.94470 0.49800
O 	O 	0.92130 0.02540 0.94490 -0.58400
C 	C 	0.73840 0.02430 0.85940 -0.02200
C 	C 	0.86560 0.97170 0.91170 0.08200
H 	H 	0.87880 0.95320 0.90930 0.03300
C 	C 	0.77070 0.02470 0.87460 0.01300
C 	C 	0.82870 0.97350 0.89990 -0.15200
H 	H 	0.81840 0.95510 0.89110 0.08900
C 	C 	0.52460 0.20390 0.25740 0.02700
C 	C 	0.52550 0.19150 0.28820 -0.03300
O 	O 	0.93986 0.56127 0.70381 -0.64700
O 	O 	0.90659 0.52723 0.75200 -0.64100
O 	O 	0.03408 0.53163 0.83560 -0.64000
C 	C 	0.81114 0.52830 0.78000 -0.19300
H 	H 	0.80060 0.54830 0.78370 0.09800
C 	C 	0.84289 0.52860 0.77060 0.14200
H 	H 	0.85390 0.54850 0.76820 0.00000
C 	C 	0.11970 0.62700 0.92154 -0.02900
C 	C 	0.14660 0.61713 0.93880 -0.01900
H 	H 	0.15610 0.59670 0.93460 0.03800
C 	C 	0.15974 0.63710 0.96230 -0.08300
H 	H 	0.17810 0.63030 0.97410 0.06000
C 	C 	0.14590 0.66700 0.96850 0.05700
C 	C 	0.11900 0.67686 0.95120 -0.08500
H 	H 	0.10960 0.69730 0.95550 0.06500
C 	C 	0.10590 0.65690 0.92770 -0.01800
H 	H 	0.08750 0.66370 0.91590 0.04100
C 	C 	0.10594 0.60562 0.89666 0.08700
C 	C 	0.11099 0.61206 0.86419 -0.14300
H 	H 	0.12530 0.62880 0.85790 0.08100
C 	C 	0.09506 0.59407 0.84088 0.08500
H 	H 	0.09850 0.59850 0.81870 0.02200
C 	C 	0.07409 0.56963 0.85003 -0.16500
C 	C 	0.06904 0.56318 0.88249 0.08400
H 	H 	0.05470 0.54650 0.88870 0.02000
C 	C 	0.08496 0.58117 0.90581 -0.14300
H 	H 	0.08150 0.57680 0.92800 0.08100
C 	C 	0.05530 0.55199 0.82500 0.49800
O 	O 	0.05510 0.92130 0.97460 -0.58400
C 	C 	0.14060 0.73840 0.97570 -0.02200
C 	C 	0.08830 0.86560 0.02830 0.08200
H 	H 	0.09070 0.87880 0.04680 0.03300
C 	C 	0.12540 0.77070 0.97530 0.01300
C 	C 	0.10010 0.82870 0.02650 -0.15200
H 	H 	0.10890 0.81840 0.04490 0.08900
C 	C 	0.74260 0.52460 0.79610 0.02700
C 	C 	0.71180 0.52550 0.80850 -0.03300
O 	O 	0.93986 0.43873 0.29619 -0.64700
O 	O 	0.90659 0.47277 0.24800 -0.64100
O 	O 	0.03408 0.46837 0.16440 -0.64000
C 	C 	0.81114 0.47170 0.22000 -0.19300
H 	H 	0.80060 0.45170 0.21630 0.09800
C 	C 	0.84289 0.47140 0.22940 0.14200
H 	H 	0.85390 0.45150 0.23180 0.00000
C 	C 	0.11970 0.37300 0.07846 -0.02900
C 	C 	0.14660 0.38287 0.06120 -0.01900
H 	H 	0.15610 0.40330 0.06540 0.03800
C 	C 	0.15974 0.36290 0.03770 -0.08300
H 	H 	0.17810 0.36970 0.02590 0.06000
C 	C 	0.14590 0.33300 0.03150 0.05700
C 	C 	0.11900 0.32314 0.04880 -0.08500
H 	H 	0.10960 0.30270 0.04450 0.06500
C 	C 	0.10590 0.34310 0.07230 -0.01800
H 	H 	0.08750 0.33630 0.08410 0.04100
C 	C 	0.10594 0.39438 0.10334 0.08700
C 	C 	0.11099 0.38794 0.13581 -0.14300
H 	H 	0.12530 0.37120 0.14210 0.08100
C 	C 	0.09506 0.40593 0.15912 0.08500
H 	H 	0.09850 0.40150 0.18130 0.02200
C 	C 	0.07409 0.43037 0.14997 -0.16500
C 	C 	0.06904 0.43682 0.11751 0.08400
H 	H 	0.05470 0.45350 0.11130 0.02000
C 	C 	0.08496 0.41883 0.09419 -0.14300
H 	H 	0.08150 0.42320 0.07200 0.08100
C 	C 	0.05530 0.44801 0.17500 0.49800
O 	O 	0.05510 0.07870 0.02540 -0.58400
C 	C 	0.14060 0.26160 0.02430 -0.02200
C 	C 	0.08830 0.13440 0.97170 0.08200
H 	H 	0.09070 0.12120 0.95320 0.03300
C 	C 	0.12540 0.22930 0.02470 0.01300
C 	C 	0.10010 0.17130 0.97350 -0.15200
H 	H 	0.10890 0.18160 0.95510 0.08900
C 	C 	0.74260 0.47540 0.20390 0.02700
C 	C 	0.71180 0.47450 0.19150 -0.03300
O 	O 	0.06014 0.43873 0.70381 -0.64700
O 	O 	0.09341 0.47277 0.75200 -0.64100
O 	O 	0.96592 0.46837 0.83560 -0.64100
C 	C 	0.18886 0.47170 0.78000 -0.19300
H 	H 	0.19940 0.45170 0.78370 0.09800
C 	C 	0.15711 0.47140 0.77060 0.14200
H 	H 	0.14610 0.45150 0.76820 0.00000
C 	C 	0.88030 0.37300 0.92154 -0.02900
C 	C 	0.85340 0.38287 0.93880 -0.01900
H 	H 	0.84390 0.40330 0.93460 0.03800
C 	C 	0.84026 0.36290 0.96230 -0.08300
H 	H 	0.82190 0.36970 0.97410 0.06000
C 	C 	0.85410 0.33300 0.96850 0.05700
C 	C 	0.88100 0.32314 0.95120 -0.08500
H 	H 	0.89040 0.30270 0.95550 0.06500
C 	C 	0.89410 0.34310 0.92770 -0.01800
H 	H 	0.91250 0.33630 0.91590 0.04100
C 	C 	0.89406 0.39438 0.89666 0.08700
C 	C 	0.88901 0.38794 0.86419 -0.14300
H 	H 	0.87470 0.37120 0.85790 0.08100
C 	C 	0.90494 0.40593 0.84088 0.08500
H 	H 	0.90150 0.40150 0.81870 0.02200
C 	C 	0.92591 0.43037 0.85003 -0.16500
C 	C 	0.93096 0.43682 0.88249 0.08400
H 	H 	0.94530 0.45350 0.88870 0.02000
C 	C 	0.91504 0.41883 0.90581 -0.14300
H 	H 	0.91850 0.42320 0.92800 0.08100
C 	C 	0.94470 0.44801 0.82500 0.49800
O 	O 	0.94490 0.07870 0.97460 -0.58400
C 	C 	0.85940 0.26160 0.97570 -0.02200
C 	C 	0.91170 0.13440 0.02830 0.08200
H 	H 	0.90930 0.12120 0.04680 0.03300
C 	C 	0.87460 0.22930 0.97530 0.01300
C 	C 	0.89990 0.17130 0.02650 -0.15200
H 	H 	0.89110 0.18160 0.04490 0.08900
C 	C 	0.25740 0.47540 0.79610 0.02700
C 	C 	0.28820 0.47450 0.80850 -0.03300
O 	O 	0.06014 0.56127 0.29619 -0.64700
O 	O 	0.09341 0.52723 0.24800 -0.64100
O 	O 	0.96592 0.53163 0.16440 -0.64100
C 	C 	0.18886 0.52830 0.22000 -0.19300
H 	H 	0.19940 0.54830 0.21630 0.09800
C 	C 	0.15711 0.52860 0.22940 0.14200
H 	H 	0.14610 0.54850 0.23180 0.00000
C 	C 	0.88030 0.62700 0.07846 -0.02900
C 	C 	0.85340 0.61713 0.06120 -0.01900
H 	H 	0.84390 0.59670 0.06540 0.03800
C 	C 	0.84026 0.63710 0.03770 -0.08300
H 	H 	0.82190 0.63030 0.02590 0.06000
C 	C 	0.85410 0.66700 0.03150 0.05700
C 	C 	0.88100 0.67686 0.04880 -0.08500
H 	H 	0.89040 0.69730 0.04450 0.06500
C 	C 	0.89410 0.65690 0.07230 -0.01800
H 	H 	0.91250 0.66370 0.08410 0.04100
C 	C 	0.89406 0.60562 0.10334 0.08700
C 	C 	0.88901 0.61206 0.13581 -0.14300
H 	H 	0.87470 0.62880 0.14210 0.08100
C 	C 	0.90494 0.59407 0.15912 0.08500
H 	H 	0.90150 0.59850 0.18130 0.02200
C 	C 	0.92591 0.56963 0.14997 -0.16500
C 	C 	0.93096 0.56318 0.11751 0.08400
H 	H 	0.94530 0.54650 0.11130 0.02000
C 	C 	0.91504 0.58117 0.09419 -0.14300
H 	H 	0.91850 0.57680 0.07200 0.08100
C 	C 	0.94470 0.55199 0.17500 0.49800
O 	O 	0.94490 0.92130 0.02540 -0.58400
C 	C 	0.85940 0.73840 0.02430 -0.02200
C 	C 	0.91170 0.86560 0.97170 0.08200
H 	H 	0.90930 0.87880 0.95320 0.03300
C 	C 	0.87460 0.77070 0.02470 0.01300
C 	C 	0.89990 0.82870 0.97350 -0.15200
H 	H 	0.89110 0.81840 0.95510 0.08900
C 	C 	0.25740 0.52460 0.20390 0.02700
C 	C 	0.28820 0.52550 0.19150 -0.03300
O 	O 	0.70381 0.93986 0.56127 -0.64700
O 	O 	0.75200 0.90659 0.52723 -0.64100
O 	O 	0.83560 0.03408 0.53163 -0.64000
C 	C 	0.78000 0.81114 0.52830 -0.19300
H 	H 	0.78370 0.80060 0.54830 0.09800
C 	C 	0.77060 0.84289 0.52860 0.14200
H 	H 	0.76820 0.85390 0.54850 0.00000
C 	C 	0.92154 0.11970 0.62700 -0.02900
C 	C 	0.93880 0.14660 0.61713 -0.01900
H 	H 	0.93460 0.15610 0.59670 0.03800
C 	C 	0.96230 0.15974 0.63710 -0.08300
H 	H 	0.97410 0.17810 0.63030 0.06000
C 	C 	0.96850 0.14590 0.66700 0.05700
C 	C 	0.95120 0.11900 0.67686 -0.08500
H 	H 	0.95550 0.10960 0.69730 0.06500
C 	C 	0.92770 0.10590 0.65690 -0.01800
H 	H 	0.91590 0.08750 0.66370 0.04100
C 	C 	0.89666 0.10594 0.60562 0.08700
C 	C 	0.86419 0.11099 0.61206 -0.14300
H 	H 	0.85790 0.12530 0.62880 0.08100
C 	C 	0.84088 0.09506 0.59407 0.08500
H 	H 	0.81870 0.09850 0.59850 0.02200
C 	C 	0.85003 0.07409 0.56963 -0.16500
C 	C 	0.88249 0.06904 0.56318 0.08400
H 	H 	0.88870 0.05470 0.54650 0.02000
C 	C 	0.90581 0.08496 0.58117 -0.14300
H 	H 	0.92800 0.08150 0.57680 0.08100
C 	C 	0.82500 0.05530 0.55199 0.49800
O 	O 	0.97460 0.05510 0.92130 -0.58400
C 	C 	0.97570 0.14060 0.73840 -0.02200
C 	C 	0.02830 0.08830 0.86560 0.08200
H 	H 	0.04680 0.09070 0.87880 0.03300
C 	C 	0.97530 0.12540 0.77070 0.01300
C 	C 	0.02650 0.10010 0.82870 -0.15200
H 	H 	0.04490 0.10890 0.81840 0.08900
C 	C 	0.79610 0.74260 0.52460 0.02700
C 	C 	0.80850 0.71180 0.52550 -0.03300
O 	O 	0.29619 0.93986 0.43873 -0.64700
O 	O 	0.24800 0.90659 0.47277 -0.64100
O 	O 	0.16440 0.03408 0.46837 -0.64000
C 	C 	0.22000 0.81114 0.47170 -0.19300
H 	H 	0.21630 0.80060 0.45170 0.09800
C 	C 	0.22940 0.84289 0.47140 0.14200
H 	H 	0.23180 0.85390 0.45150 0.00000
C 	C 	0.07846 0.11970 0.37300 -0.02900
C 	C 	0.06120 0.14660 0.38287 -0.01900
H 	H 	0.06540 0.15610 0.40330 0.03800
C 	C 	0.03770 0.15974 0.36290 -0.08300
H 	H 	0.02590 0.17810 0.36970 0.06000
C 	C 	0.03150 0.14590 0.33300 0.05700
C 	C 	0.04880 0.11900 0.32314 -0.08500
H 	H 	0.04450 0.10960 0.30270 0.06500
C 	C 	0.07230 0.10590 0.34310 -0.01800
H 	H 	0.08410 0.08750 0.33630 0.04100
C 	C 	0.10334 0.10594 0.39438 0.08700
C 	C 	0.13581 0.11099 0.38794 -0.14300
H 	H 	0.14210 0.12530 0.37120 0.08100
C 	C 	0.15912 0.09506 0.40593 0.08500
H 	H 	0.18130 0.09850 0.40150 0.02200
C 	C 	0.14997 0.07409 0.43037 -0.16500
C 	C 	0.11751 0.06904 0.43682 0.08400
H 	H 	0.11130 0.05470 0.45350 0.02000
C 	C 	0.09419 0.08496 0.41883 -0.14300
H 	H 	0.07200 0.08150 0.42320 0.08100
C 	C 	0.17500 0.05530 0.44801 0.49800
O 	O 	0.02540 0.05510 0.07870 -0.58400
C 	C 	0.02430 0.14060 0.26160 -0.02200
C 	C 	0.97170 0.08830 0.13440 0.08200
H 	H 	0.95320 0.09070 0.12120 0.03300
C 	C 	0.02470 0.12540 0.22930 0.01300
C 	C 	0.97350 0.10010 0.17130 -0.15200
H 	H 	0.95510 0.10890 0.18160 0.08900
C 	C 	0.20390 0.74260 0.47540 0.02700
C 	C 	0.19150 0.71180 0.47450 -0.03300
O 	O 	0.70381 0.06014 0.43873 -0.64700
O 	O 	0.75200 0.09341 0.47277 -0.64100
O 	O 	0.83560 0.96592 0.46837 -0.64100
C 	C 	0.78000 0.18886 0.47170 -0.19300
H 	H 	0.78370 0.19940 0.45170 0.09800
C 	C 	0.77060 0.15711 0.47140 0.14200
H 	H 	0.76820 0.14610 0.45150 0.00000
C 	C 	0.92154 0.88030 0.37300 -0.02900
C 	C 	0.93880 0.85340 0.38287 -0.01900
H 	H 	0.93460 0.84390 0.40330 0.03800
C 	C 	0.96230 0.84026 0.36290 -0.08300
H 	H 	0.97410 0.82190 0.36970 0.06000
C 	C 	0.96850 0.85410 0.33300 0.05700
C 	C 	0.95120 0.88100 0.32314 -0.08500
H 	H 	0.95550 0.89040 0.30270 0.06500
C 	C 	0.92770 0.89410 0.34310 -0.01800
H 	H 	0.91590 0.91250 0.33630 0.04100
C 	C 	0.89666 0.89406 0.39438 0.08700
C 	C 	0.86419 0.88901 0.38794 -0.14300
H 	H 	0.85790 0.87470 0.37120 0.08100
C 	C 	0.84088 0.90494 0.40593 0.08500
H 	H 	0.81870 0.90150 0.40150 0.02200
C 	C 	0.85003 0.92591 0.43037 -0.16500
C 	C 	0.88249 0.93096 0.43682 0.08400
H 	H 	0.88870 0.94530 0.45350 0.02000
C 	C 	0.90581 0.91504 0.41883 -0.14300
H 	H 	0.92800 0.91850 0.42320 0.08100
C 	C 	0.82500 0.94470 0.44801 0.49800
O 	O 	0.97460 0.94490 0.07870 -0.58400
C 	C 	0.97570 0.85940 0.26160 -0.02200
C 	C 	0.02830 0.91170 0.13440 0.08200
H 	H 	0.04680 0.90930 0.12120 0.03300
C 	C 	0.97530 0.87460 0.22930 0.01300
C 	C 	0.02650 0.89990 0.17130 -0.15200
H 	H 	0.04490 0.89110 0.18160 0.08900
C 	C 	0.79610 0.25740 0.47540 0.02700
C 	C 	0.80850 0.28820 0.47450 -0.03300
O 	O 	0.29619 0.06014 0.56127 -0.64700
O 	O 	0.24800 0.09341 0.52723 -0.64100
O 	O 	0.16440 0.96592 0.53163 -0.64100
C 	C 	0.22000 0.18886 0.52830 -0.19300
H 	H 	0.21630 0.19940 0.54830 0.09800
C 	C 	0.22940 0.15711 0.52860 0.14200
H 	H 	0.23180 0.14610 0.54850 0.00000
C 	C 	0.07846 0.88030 0.62700 -0.02900
C 	C 	0.06120 0.85340 0.61713 -0.01900
H 	H 	0.06540 0.84390 0.59670 0.03800
C 	C 	0.03770 0.84026 0.63710 -0.08300
H 	H 	0.02590 0.82190 0.63030 0.06000
C 	C 	0.03150 0.85410 0.66700 0.05700
C 	C 	0.04880 0.88100 0.67686 -0.08500
H 	H 	0.04450 0.89040 0.69730 0.06500
C 	C 	0.07230 0.89410 0.65690 -0.01800
H 	H 	0.08410 0.91250 0.66370 0.04100
C 	C 	0.10334 0.89406 0.60562 0.08700
C 	C 	0.13581 0.88901 0.61206 -0.14300
H 	H 	0.14210 0.87470 0.62880 0.08100
C 	C 	0.15912 0.90494 0.59407 0.08500
H 	H 	0.18130 0.90150 0.59850 0.02200
C 	C 	0.14997 0.92591 0.56963 -0.16500
C 	C 	0.11751 0.93096 0.56318 0.08400
H 	H 	0.11130 0.94530 0.54650 0.02000
C 	C 	0.09419 0.91504 0.58117 -0.14300
H 	H 	0.07200 0.91850 0.57680 0.08100
C 	C 	0.17500 0.94470 0.55199 0.49800
O 	O 	0.02540 0.94490 0.92130 -0.58400
C 	C 	0.02430 0.85940 0.73840 -0.02200
C 	C 	0.97170 0.91170 0.86560 0.08200
H 	H 	0.95320 0.90930 0.87880 0.03300
C 	C 	0.02470 0.87460 0.77070 0.01300
C 	C 	0.97350 0.89990 0.82870 -0.15200
H 	H 	0.95510 0.89110 0.81840 0.08900
C 	C 	0.20390 0.25740 0.52460 0.02700
C 	C 	0.19150 0.28820 0.52550 -0.03300
O 	O 	0.20381 0.06127 0.56014 -0.64700
O 	O 	0.25200 0.02723 0.59341 -0.64100
O 	O 	0.33560 0.03163 0.46592 -0.64000
C 	C 	0.28000 0.02830 0.68886 -0.19300
H 	H 	0.28370 0.04830 0.69940 0.09800
C 	C 	0.27060 0.02860 0.65711 0.14200
H 	H 	0.26820 0.04850 0.64610 0.00000
C 	C 	0.42154 0.12700 0.38030 -0.02900
C 	C 	0.43880 0.11713 0.35340 -0.01900
H 	H 	0.43460 0.09670 0.34390 0.03800
C 	C 	0.46230 0.13710 0.34026 -0.08300
H 	H 	0.47410 0.13030 0.32190 0.06000
C 	C 	0.46850 0.16700 0.35410 0.05700
C 	C 	0.45120 0.17686 0.38100 -0.08500
H 	H 	0.45550 0.19730 0.39040 0.06500
C 	C 	0.42770 0.15690 0.39410 -0.01800
H 	H 	0.41590 0.16370 0.41250 0.04100
C 	C 	0.39666 0.10562 0.39406 0.08700
C 	C 	0.36419 0.11206 0.38901 -0.14300
H 	H 	0.35790 0.12880 0.37470 0.08100
C 	C 	0.34088 0.09407 0.40494 0.08500
H 	H 	0.31870 0.09850 0.40150 0.02200
C 	C 	0.35003 0.06963 0.42591 -0.16500
C 	C 	0.38249 0.06318 0.43096 0.08400
H 	H 	0.38870 0.04650 0.44530 0.02000
C 	C 	0.40581 0.08117 0.41504 -0.14300
H 	H 	0.42800 0.07680 0.41850 0.08100
C 	C 	0.32500 0.05199 0.44470 0.49800
O 	O 	0.47460 0.42130 0.44490 -0.58400
C 	C 	0.47570 0.23840 0.35940 -0.02200
C 	C 	0.52830 0.36560 0.41170 0.08200
H 	H 	0.54680 0.37880 0.40930 0.03300
C 	C 	0.47530 0.27070 0.37460 0.01300
C 	C 	0.52650 0.32870 0.39990 -0.15200
H 	H 	0.54490 0.31840 0.39110 0.08900
C 	C 	0.29610 0.02460 0.75740 0.02700
C 	C 	0.30850 0.02550 0.78820 -0.03300
O 	O 	0.79619 0.93873 0.56014 -0.64700
O 	O 	0.74800 0.97277 0.59341 -0.64100
O 	O 	0.66440 0.96837 0.46592 -0.64100
C 	C 	0.72000 0.97170 0.68886 -0.19300
H 	H 	0.71630 0.95170 0.69940 0.09800
C 	C 	0.72940 0.97140 0.65711 0.14200
H 	H 	0.73180 0.95150 0.64610 0.00000
C 	C 	0.57846 0.87300 0.38030 -0.02900
C 	C 	0.56120 0.88287 0.35340 -0.01900
H 	H 	0.56540 0.90330 0.34390 0.03800
C 	C 	0.53770 0.86290 0.34026 -0.08300
H 	H 	0.52590 0.86970 0.32190 0.06000
C 	C 	0.53150 0.83300 0.35410 0.05700
C 	C 	0.54880 0.82314 0.38100 -0.08500
H 	H 	0.54450 0.80270 0.39040 0.06500
C 	C 	0.57230 0.84310 0.39410 -0.01800
H 	H 	0.58410 0.83630 0.41250 0.04100
C 	C 	0.60334 0.89438 0.39406 0.08700
C 	C 	0.63581 0.88794 0.38901 -0.14300
H 	H 	0.64210 0.87120 0.37470 0.08100
C 	C 	0.65912 0.90593 0.40494 0.08500
H 	H 	0.68130 0.90150 0.40150 0.02200
C 	C 	0.64997 0.93037 0.42591 -0.16500
C 	C 	0.61751 0.93682 0.43096 0.08400
H 	H 	0.61130 0.95350 0.44530 0.02000
C 	C 	0.59419 0.91883 0.41504 -0.14300
H 	H 	0.57200 0.92320 0.41850 0.08100
C 	C 	0.67500 0.94801 0.44470 0.49800
O 	O 	0.52540 0.57870 0.44490 -0.58400
C 	C 	0.52430 0.76160 0.35940 -0.02200
C 	C 	0.47170 0.63440 0.41170 0.08200
H 	H 	0.45320 0.62120 0.40930 0.03300
C 	C 	0.52470 0.72930 0.37460 0.01300
C 	C 	0.47350 0.67130 0.39990 -0.15200
H 	H 	0.45510 0.68160 0.39110 0.08900
C 	C 	0.70390 0.97540 0.75740 0.02700
C 	C 	0.69150 0.97450 0.78820 -0.03300
O 	O 	0.20381 0.93873 0.43986 -0.64700
O 	O 	0.25200 0.97277 0.40659 -0.64100
O 	O 	0.33560 0.96837 0.53408 -0.64100
C 	C 	0.28000 0.97170 0.31114 -0.19300
H 	H 	0.28370 0.95170 0.30060 0.09800
C 	C 	0.27060 0.97140 0.34289 0.14200
H 	H 	0.26820 0.95150 0.35390 0.00000
C 	C 	0.42154 0.87300 0.61970 -0.02900
C 	C 	0.43880 0.88287 0.64660 -0.01900
H 	H 	0.43460 0.90330 0.65610 0.03800
C 	C 	0.46230 0.86290 0.65974 -0.08300
H 	H 	0.47410 0.86970 0.67810 0.06000
C 	C 	0.46850 0.83300 0.64590 0.05700
C 	C 	0.45120 0.82314 0.61900 -0.08500
H 	H 	0.45550 0.80270 0.60960 0.06500
C 	C 	0.42770 0.84310 0.60590 -0.01800
H 	H 	0.41590 0.83630 0.58750 0.04100
C 	C 	0.39666 0.89438 0.60594 0.08700
C 	C 	0.36419 0.88794 0.61099 -0.14300
H 	H 	0.35790 0.87120 0.62530 0.08100
C 	C 	0.34088 0.90593 0.59506 0.08500
H 	H 	0.31870 0.90150 0.59850 0.02200
C 	C 	0.35003 0.93037 0.57409 -0.16500
C 	C 	0.38249 0.93682 0.56904 0.08400
H 	H 	0.38870 0.95350 0.55470 0.02000
C 	C 	0.40581 0.91883 0.58496 -0.14300
H 	H 	0.42800 0.92320 0.58150 0.08100
C 	C 	0.32500 0.94801 0.55530 0.49800
O 	O 	0.47460 0.57870 0.55510 -0.58400
C 	C 	0.47570 0.76160 0.64060 -0.02200
C 	C 	0.52830 0.63440 0.58830 0.08200
H 	H 	0.54680 0.62120 0.59070 0.03300
C 	C 	0.47530 0.72930 0.62540 0.01300
C 	C 	0.52650 0.67130 0.60010 -0.15200
H 	H 	0.54490 0.68160 0.60890 0.08900
C 	C 	0.29610 0.97540 0.24260 0.02700
C 	C 	0.30850 0.97450 0.21180 -0.03300
O 	O 	0.79619 0.06127 0.43986 -0.64700
O 	O 	0.74800 0.02723 0.40659 -0.64100
O 	O 	0.66440 0.03163 0.53408 -0.64000
C 	C 	0.72000 0.02830 0.31114 -0.19300
H 	H 	0.71630 0.04830 0.30060 0.09800
C 	C 	0.72940 0.02860 0.34289 0.14200
H 	H 	0.73180 0.04850 0.35390 0.00000
C 	C 	0.57846 0.12700 0.61970 -0.02900
C 	C 	0.56120 0.11713 0.64660 -0.01900
H 	H 	0.56540 0.09670 0.65610 0.03800
C 	C 	0.53770 0.13710 0.65974 -0.08300
H 	H 	0.52590 0.13030 0.67810 0.06000
C 	C 	0.53150 0.16700 0.64590 0.05700
C 	C 	0.54880 0.17686 0.61900 -0.08500
H 	H 	0.54450 0.19730 0.60960 0.06500
C 	C 	0.57230 0.15690 0.60590 -0.01800
H 	H 	0.58410 0.16370 0.58750 0.04100
C 	C 	0.60334 0.10562 0.60594 0.08700
C 	C 	0.63581 0.11206 0.61099 -0.14300
H 	H 	0.64210 0.12880 0.62530 0.08100
C 	C 	0.65912 0.09407 0.59506 0.08500
H 	H 	0.68130 0.09850 0.59850 0.02200
C 	C 	0.64997 0.06963 0.57409 -0.16500
C 	C 	0.61751 0.06318 0.56904 0.08400
H 	H 	0.61130 0.04650 0.55470 0.02000
C 	C 	0.59419 0.08117 0.58496 -0.14300
H 	H 	0.57200 0.07680 0.58150 0.08100
C 	C 	0.67500 0.05199 0.55530 0.49800
O 	O 	0.52540 0.42130 0.55510 -0.58400
C 	C 	0.52430 0.23840 0.64060 -0.02200
C 	C 	0.47170 0.36560 0.58830 0.08200
H 	H 	0.45320 0.37880 0.59070 0.03300
C 	C 	0.52470 0.27070 0.62540 0.01300
C 	C 	0.47350 0.32870 0.60010 -0.15200
H 	H 	0.45510 0.31840 0.60890 0.08900
C 	C 	0.70390 0.02460 0.24260 0.02700
C 	C 	0.69150 0.02550 0.21180 -0.03300
O 	O 	0.06127 0.43986 0.79619 -0.64700
O 	O 	0.02723 0.40659 0.74800 -0.64100
O 	O 	0.03163 0.53408 0.66440 -0.64000
C 	C 	0.02830 0.31114 0.72000 -0.19300
H 	H 	0.04830 0.30060 0.71630 0.09800
C 	C 	0.02860 0.34289 0.72940 0.14200
H 	H 	0.04850 0.35390 0.73180 0.00000
C 	C 	0.12700 0.61970 0.57846 -0.02900
C 	C 	0.11713 0.64660 0.56120 -0.01900
H 	H 	0.09670 0.65610 0.56540 0.03800
C 	C 	0.13710 0.65974 0.53770 -0.08300
H 	H 	0.13030 0.67810 0.52590 0.06000
C 	C 	0.16700 0.64590 0.53150 0.05700
C 	C 	0.17686 0.61900 0.54880 -0.08500
H 	H 	0.19730 0.60960 0.54450 0.06500
C 	C 	0.15690 0.60590 0.57230 -0.01800
H 	H 	0.16370 0.58750 0.58410 0.04100
C 	C 	0.10562 0.60594 0.60334 0.08700
C 	C 	0.11206 0.61099 0.63581 -0.14300
H 	H 	0.12880 0.62530 0.64210 0.08100
C 	C 	0.09407 0.59506 0.65912 0.08500
H 	H 	0.09850 0.59850 0.68130 0.02200
C 	C 	0.06963 0.57409 0.64997 -0.16500
C 	C 	0.06318 0.56904 0.61751 0.08400
H 	H 	0.04650 0.55470 0.61130 0.02000
C 	C 	0.08117 0.58496 0.59419 -0.14300
H 	H 	0.07680 0.58150 0.57200 0.08100
C 	C 	0.05199 0.55530 0.67500 0.49800
O 	O 	0.42130 0.55510 0.52540 -0.58400
C 	C 	0.23840 0.64060 0.52430 -0.02200
C 	C 	0.36560 0.58830 0.47170 0.08200
H 	H 	0.37880 0.59070 0.45320 0.03300
C 	C 	0.27070 0.62540 0.52470 0.01300
C 	C 	0.32870 0.60010 0.47350 -0.15200
H 	H 	0.31840 0.60890 0.45510 0.08900
C 	C 	0.02460 0.24260 0.70390 0.02700
C 	C 	0.02550 0.21180 0.69150 -0.03300
O 	O 	0.93873 0.43986 0.20381 -0.64700
O 	O 	0.97277 0.40659 0.25200 -0.64100
O 	O 	0.96837 0.53408 0.33560 -0.64100
C 	C 	0.97170 0.31114 0.28000 -0.19300
H 	H 	0.95170 0.30060 0.28370 0.09800
C 	C 	0.97140 0.34289 0.27060 0.14200
H 	H 	0.95150 0.35390 0.26820 0.00000
C 	C 	0.87300 0.61970 0.42154 -0.02900
C 	C 	0.88287 0.64660 0.43880 -0.01900
H 	H 	0.90330 0.65610 0.43460 0.03800
C 	C 	0.86290 0.65974 0.46230 -0.08300
H 	H 	0.86970 0.67810 0.47410 0.06000
C 	C 	0.83300 0.64590 0.46850 0.05700
C 	C 	0.82314 0.61900 0.45120 -0.08500
H 	H 	0.80270 0.60960 0.45550 0.06500
C 	C 	0.84310 0.60590 0.42770 -0.01800
H 	H 	0.83630 0.58750 0.41590 0.04100
C 	C 	0.89438 0.60594 0.39666 0.08700
C 	C 	0.88794 0.61099 0.36419 -0.14300
H 	H 	0.87120 0.62530 0.35790 0.08100
C 	C 	0.90593 0.59506 0.34088 0.08500
H 	H 	0.90150 0.59850 0.31870 0.02200
C 	C 	0.93037 0.57409 0.35003 -0.16500
C 	C 	0.93682 0.56904 0.38249 0.08400
H 	H 	0.95350 0.55470 0.38870 0.02000
C 	C 	0.91883 0.58496 0.40581 -0.14300
H 	H 	0.92320 0.58150 0.42800 0.08100
C 	C 	0.94801 0.55530 0.32500 0.49800
O 	O 	0.57870 0.55510 0.47460 -0.58400
C 	C 	0.76160 0.64060 0.47570 -0.02200
C 	C 	0.63440 0.58830 0.52830 0.08200
H 	H 	0.62120 0.59070 0.54680 0.03300
C 	C 	0.72930 0.62540 0.47530 0.01300
C 	C 	0.67130 0.60010 0.52650 -0.15200
H 	H 	0.68160 0.60890 0.54490 0.08900
C 	C 	0.97540 0.24260 0.29610 0.02700
C 	C 	0.97450 0.21180 0.30850 -0.03300
O 	O 	0.93873 0.56014 0.79619 -0.64700
O 	O 	0.97277 0.59341 0.74800 -0.64100
O 	O 	0.96837 0.46592 0.66440 -0.64100
C 	C 	0.97170 0.68886 0.72000 -0.19300
H 	H 	0.95170 0.69940 0.71630 0.09800
C 	C 	0.97140 0.65711 0.72940 0.14200
H 	H 	0.95150 0.64610 0.73180 0.00000
C 	C 	0.87300 0.38030 0.57846 -0.02900
C 	C 	0.88287 0.35340 0.56120 -0.01900
H 	H 	0.90330 0.34390 0.56540 0.03800
C 	C 	0.86290 0.34026 0.53770 -0.08300
H 	H 	0.86970 0.32190 0.52590 0.06000
C 	C 	0.83300 0.35410 0.53150 0.05700
C 	C 	0.82314 0.38100 0.54880 -0.08500
H 	H 	0.80270 0.39040 0.54450 0.06500
C 	C 	0.84310 0.39410 0.57230 -0.01800
H 	H 	0.83630 0.41250 0.58410 0.04100
C 	C 	0.89438 0.39406 0.60334 0.08700
C 	C 	0.88794 0.38901 0.63581 -0.14300
H 	H 	0.87120 0.37470 0.64210 0.08100
C 	C 	0.90593 0.40494 0.65912 0.08500
H 	H 	0.90150 0.40150 0.68130 0.02200
C 	C 	0.93037 0.42591 0.64997 -0.16500
C 	C 	0.93682 0.43096 0.61751 0.08400
H 	H 	0.95350 0.44530 0.61130 0.02000
C 	C 	0.91883 0.41504 0.59419 -0.14300
H 	H 	0.92320 0.41850 0.57200 0.08100
C 	C 	0.94801 0.44470 0.67500 0.49800
O 	O 	0.57870 0.44490 0.52540 -0.58400
C 	C 	0.76160 0.35940 0.52430 -0.02200
C 	C 	0.63440 0.41170 0.47170 0.08200
H 	H 	0.62120 0.40930 0.45320 0.03300
C 	C 	0.72930 0.37460 0.52470 0.01300
C 	C 	0.67130 0.39990 0.47350 -0.15200
H 	H 	0.68160 0.39110 0.45510 0.08900
C 	C 	0.97540 0.75740 0.70390 0.02700
C 	C 	0.97450 0.78820 0.69150 -0.03300
O 	O 	0.06127 0.56014 0.20381 -0.64700
O 	O 	0.02723 0.59341 0.25200 -0.64100
O 	O 	0.03163 0.46592 0.33560 -0.64000
C 	C 	0.02830 0.68886 0.28000 -0.19300
H 	H 	0.04830 0.69940 0.28370 0.09800
C 	C 	0.02860 0.65711 0.27060 0.14200
H 	H 	0.04850 0.64610 0.26820 0.00000
C 	C 	0.12700 0.38030 0.42154 -0.02900
C 	C 	0.11713 0.35340 0.43880 -0.01900
H 	H 	0.09670 0.34390 0.43460 0.03800
C 	C 	0.13710 0.34026 0.46230 -0.08300
H 	H 	0.13030 0.32190 0.47410 0.06000
C 	C 	0.16700 0.35410 0.46850 0.05700
C 	C 	0.17686 0.38100 0.45120 -0.08500
H 	H 	0.19730 0.39040 0.45550 0.06500
C 	C 	0.15690 0.39410 0.42770 -0.01800
H 	H 	0.16370 0.41250 0.41590 0.04100
C 	C 	0.10562 0.39406 0.39666 0.08700
C 	C 	0.11206 0.38901 0.36419 -0.14300
H 	H 	0.12880 0.37470 0.35790 0.08100
C 	C 	0.09407 0.40494 0.34088 0.08500
H 	H 	0.09850 0.40150 0.31870 0.02200
C 	C 	0.06963 0.42591 0.35003 -0.16500
C 	C 	0.06318 0.43096 0.38249 0.08400
H 	H 	0.04650 0.44530 0.38870 0.02000
C 	C 	0.08117 0.41504 0.40581 -0.14300
H 	H 	0.07680 0.41850 0.42800 0.08100
C 	C 	0.05199 0.44470 0.32500 0.49800
O 	O 	0.42130 0.44490 0.47460 -0.58400
C 	C 	0.23840 0.35940 0.47570 -0.02200
C 	C 	0.36560 0.41170 0.52830 0.08200
H 	H 	0.37880 0.40930 0.54680 0.03300
C 	C 	0.27070 0.37460 0.47530 0.01300
C 	C 	0.32870 0.39990 0.52650 -0.15200
H 	H 	0.31840 0.39110 0.54490 0.08900
C 	C 	0.02460 0.75740 0.29610 0.02700
C 	C 	0.02550 0.78820 0.30850 -0.03300
O 	O 	0.43986 0.20381 0.93873 -0.64700
O 	O 	0.40659 0.25200 0.97277 -0.64100
O 	O 	0.53408 0.33560 0.96837 -0.64100
C 	C 	0.31114 0.28000 0.97170 -0.19300
H 	H 	0.30060 0.28370 0.95170 0.09800
C 	C 	0.34289 0.27060 0.97140 0.14200
H 	H 	0.35390 0.26820 0.95150 0.00000
C 	C 	0.61970 0.42154 0.87300 -0.02900
C 	C 	0.64660 0.43880 0.88287 -0.01900
H 	H 	0.65610 0.43460 0.90330 0.03800
C 	C 	0.65974 0.46230 0.86290 -0.08300
H 	H 	0.67810 0.47410 0.86970 0.06000
C 	C 	0.64590 0.46850 0.83300 0.05700
C 	C 	0.61900 0.45120 0.82314 -0.08500
H 	H 	0.60960 0.45550 0.80270 0.06500
C 	C 	0.60590 0.42770 0.84310 -0.01800
H 	H 	0.58750 0.41590 0.83630 0.04100
C 	C 	0.60594 0.39666 0.89438 0.08700
C 	C 	0.61099 0.36419 0.88794 -0.14300
H 	H 	0.62530 0.35790 0.87120 0.08100
C 	C 	0.59506 0.34088 0.90593 0.08500
H 	H 	0.59850 0.31870 0.90150 0.02200
C 	C 	0.57409 0.35003 0.93037 -0.16500
C 	C 	0.56904 0.38249 0.93682 0.08400
H 	H 	0.55470 0.38870 0.95350 0.02000
C 	C 	0.58496 0.40581 0.91883 -0.14300
H 	H 	0.58150 0.42800 0.92320 0.08100
C 	C 	0.55530 0.32500 0.94801 0.49800
O 	O 	0.55510 0.47460 0.57870 -0.58400
C 	C 	0.64060 0.47570 0.76160 -0.02200
C 	C 	0.58830 0.52830 0.63440 0.08200
H 	H 	0.59070 0.54680 0.62120 0.03300
C 	C 	0.62540 0.47530 0.72930 0.01300
C 	C 	0.60010 0.52650 0.67130 -0.15200
H 	H 	0.60890 0.54490 0.68160 0.08900
C 	C 	0.24260 0.29610 0.97540 0.02700
C 	C 	0.21180 0.30850 0.97450 -0.03300
O 	O 	0.43986 0.79619 0.06127 -0.64700
O 	O 	0.40659 0.74800 0.02723 -0.64100
O 	O 	0.53408 0.66440 0.03163 -0.64000
C 	C 	0.31114 0.72000 0.02830 -0.19300
H 	H 	0.30060 0.71630 0.04830 0.09800
C 	C 	0.34289 0.72940 0.02860 0.14200
H 	H 	0.35390 0.73180 0.04850 0.00000
C 	C 	0.61970 0.57846 0.12700 -0.02900
C 	C 	0.64660 0.56120 0.11713 -0.01900
H 	H 	0.65610 0.56540 0.09670 0.03800
C 	C 	0.65974 0.53770 0.13710 -0.08300
H 	H 	0.67810 0.52590 0.13030 0.06000
C 	C 	0.64590 0.53150 0.16700 0.05700
C 	C 	0.61900 0.54880 0.17686 -0.08500
H 	H 	0.60960 0.54450 0.19730 0.06500
C 	C 	0.60590 0.57230 0.15690 -0.01800
H 	H 	0.58750 0.58410 0.16370 0.04100
C 	C 	0.60594 0.60334 0.10562 0.08700
C 	C 	0.61099 0.63581 0.11206 -0.14300
H 	H 	0.62530 0.64210 0.12880 0.08100
C 	C 	0.59506 0.65912 0.09407 0.08500
H 	H 	0.59850 0.68130 0.09850 0.02200
C 	C 	0.57409 0.64997 0.06963 -0.16500
C 	C 	0.56904 0.61751 0.06318 0.08400
H 	H 	0.55470 0.61130 0.04650 0.02000
C 	C 	0.58496 0.59419 0.08117 -0.14300
H 	H 	0.58150 0.57200 0.07680 0.08100
C 	C 	0.55530 0.67500 0.05199 0.49800
O 	O 	0.55510 0.52540 0.42130 -0.58400
C 	C 	0.64060 0.52430 0.23840 -0.02200
C 	C 	0.58830 0.47170 0.36560 0.08200
H 	H 	0.59070 0.45320 0.37880 0.03300
C 	C 	0.62540 0.52470 0.27070 0.01300
C 	C 	0.60010 0.47350 0.32870 -0.15200
H 	H 	0.60890 0.45510 0.31840 0.08900
C 	C 	0.24260 0.70390 0.02460 0.02700
C 	C 	0.21180 0.69150 0.02550 -0.03300
O 	O 	0.56014 0.20381 0.06127 -0.64700
O 	O 	0.59341 0.25200 0.02723 -0.64100
O 	O 	0.46592 0.33560 0.03163 -0.64000
C 	C 	0.68886 0.28000 0.02830 -0.19300
H 	H 	0.69940 0.28370 0.04830 0.09800
C 	C 	0.65711 0.27060 0.02860 0.14200
H 	H 	0.64610 0.26820 0.04850 0.00000
C 	C 	0.38030 0.42154 0.12700 -0.02900
C 	C 	0.35340 0.43880 0.11713 -0.01900
H 	H 	0.34390 0.43460 0.09670 0.03800
C 	C 	0.34026 0.46230 0.13710 -0.08300
H 	H 	0.32190 0.47410 0.13030 0.06000
C 	C 	0.35410 0.46850 0.16700 0.05700
C 	C 	0.38100 0.45120 0.17686 -0.08500
H 	H 	0.39040 0.45550 0.19730 0.06500
C 	C 	0.39410 0.42770 0.15690 -0.01800
H 	H 	0.41250 0.41590 0.16370 0.04100
C 	C 	0.39406 0.39666 0.10562 0.08700
C 	C 	0.38901 0.36419 0.11206 -0.14300
H 	H 	0.37470 0.35790 0.12880 0.08100
C 	C 	0.40494 0.34088 0.09407 0.08500
H 	H 	0.40150 0.31870 0.09850 0.02200
C 	C 	0.42591 0.35003 0.06963 -0.16500
C 	C 	0.43096 0.38249 0.06318 0.08400
H 	H 	0.44530 0.38870 0.04650 0.02000
C 	C 	0.41504 0.40581 0.08117 -0.14300
H 	H 	0.41850 0.42800 0.07680 0.08100
C 	C 	0.44470 0.32500 0.05199 0.49800
O 	O 	0.44490 0.47460 0.42130 -0.58400
C 	C 	0.35940 0.47570 0.23840 -0.02200
C 	C 	0.41170 0.52830 0.36560 0.08200
H 	H 	0.40930 0.54680 0.37880 0.03300
C 	C 	0.37460 0.47530 0.27070 0.01300
C 	C 	0.39990 0.52650 0.32870 -0.15200
H 	H 	0.39110 0.54490 0.31840 0.08900
C 	C 	0.75740 0.29610 0.02460 0.02700
C 	C 	0.78820 0.30850 0.02550 -0.03300
O 	O 	0.56014 0.79619 0.93873 -0.64700
O 	O 	0.59341 0.74800 0.97277 -0.64100
O 	O 	0.46592 0.66440 0.96837 -0.64100
C 	C 	0.68886 0.72000 0.97170 -0.19300
H 	H 	0.69940 0.71630 0.95170 0.09800
C 	C 	0.65711 0.72940 0.97140 0.14200
H 	H 	0.64610 0.73180 0.95150 0.00000
C 	C 	0.38030 0.57846 0.87300 -0.02900
C 	C 	0.35340 0.56120 0.88287 -0.01900
H 	H 	0.34390 0.56540 0.90330 0.03800
C 	C 	0.34026 0.53770 0.86290 -0.08300
H 	H 	0.32190 0.52590 0.86970 0.06000
C 	C 	0.35410 0.53150 0.83300 0.05700
C 	C 	0.38100 0.54880 0.82314 -0.08500
H 	H 	0.39040 0.54450 0.80270 0.06500
C 	C 	0.39410 0.57230 0.84310 -0.01800
H 	H 	0.41250 0.58410 0.83630 0.04100
C 	C 	0.39406 0.60334 0.89438 0.08700
C 	C 	0.38901 0.63581 0.88794 -0.14300
H 	H 	0.37470 0.64210 0.87120 0.08100
C 	C 	0.40494 0.65912 0.90593 0.08500
H 	H 	0.40150 0.68130 0.90150 0.02200
C 	C 	0.42591 0.64997 0.93037 -0.16500
C 	C 	0.43096 0.61751 0.93682 0.08400
H 	H 	0.44530 0.61130 0.95350 0.02000
C 	C 	0.41504 0.59419 0.91883 -0.14300
H 	H 	0.41850 0.57200 0.92320 0.08100
C 	C 	0.44470 0.67500 0.94801 0.49800
O 	O 	0.44490 0.52540 0.57870 -0.58400
C 	C 	0.35940 0.52430 0.76160 -0.02200
C 	C 	0.41170 0.47170 0.63440 0.08200
H 	H 	0.40930 0.45320 0.62120 0.03300
C 	C 	0.37460 0.52470 0.72930 0.01300
C 	C 	0.39990 0.47350 0.67130 -0.15200
H 	H 	0.39110 0.45510 0.68160 0.08900
C 	C 	0.75740 0.70390 0.97540 0.02700
C 	C 	0.78820 0.69150 0.97450 -0.03300
Zr	Zr	0.45785 0.25000 0.04215 3.21700
Zr	Zr	0.54215 0.75000 0.04215 3.21700
Zr	Zr	0.54215 0.25000 0.95785 3.21700
Zr	Zr	0.45785 0.75000 0.95785 3.21700
Zr	Zr	0.04215 0.45785 0.25000 3.21700
Zr	Zr	0.04215 0.54215 0.75000 3.21700
Zr	Zr	0.95785 0.54215 0.25000 3.21700
Zr	Zr	0.95785 0.45785 0.75000 3.21700
Zr	Zr	0.25000 0.04215 0.45785 3.21700
Zr	Zr	0.75000 0.04215 0.54215 3.21700
Zr	Zr	0.25000 0.95785 0.54215 3.21700
Zr	Zr	0.75000 0.95785 0.45785 3.21700
Zr	Zr	0.54215 0.75000 0.95785 3.21700
Zr	Zr	0.45785 0.25000 0.95785 3.21700
Zr	Zr	0.45785 0.75000 0.04215 3.21700
Zr	Zr	0.54215 0.25000 0.04215 3.21700
Zr	Zr	0.95785 0.54215 0.75000 3.21700
Zr	Zr	0.95785 0.45785 0.25000 3.21700
Zr	Zr	0.04215 0.45785 0.75000 3.21700
Zr	Zr	0.04215 0.54215 0.25000 3.21700
Zr	Zr	0.75000 0.95785 0.54215 3.21700
Zr	Zr	0.25000 0.95785 0.45785 3.21700
Zr	Zr	0.75000 0.04215 0.45785 3.21700
Zr	Zr	0.25000 0.04215 0.54215 3.21700
Zr	Zr	0.50000 0.19011 -0.00000 3.21700
Zr	Zr	0.50000 0.80989 -0.00000 3.21700
Zr	Zr	-0.00000 0.50000 0.19011 3.21700
Zr	Zr	-0.00000 0.50000 0.80989 3.21700
Zr	Zr	0.19011 0.00000 0.50000 3.21700
Zr	Zr	0.80989 0.00000 0.50000 3.21700
Zr	Zr	0.69011 0.00000 0.50000 3.21700
Zr	Zr	0.30989 0.00000 0.50000 3.21700
Zr	Zr	0.00000 0.50000 0.30989 3.21700
Zr	Zr	-0.00000 0.50000 0.69011 3.21700
Zr	Zr	0.50000 0.69011 -0.00000 3.21700
Zr	Zr	0.50000 0.30989 -0.00000 3.21700
Zr	Zr	0.03314 0.03314 0.96686 3.33300
Zr	Zr	0.96686 0.96686 0.96686 3.33300
Zr	Zr	0.96686 0.03314 0.03314 3.33300
Zr	Zr	0.03314 0.96686 0.03314 3.33300
Zr	Zr	0.53314 0.53314 0.53314 3.33300
Zr	Zr	0.46686 0.46686 0.53314 3.33300
Zr	Zr	0.53314 0.46686 0.46686 3.33300
Zr	Zr	0.46686 0.53314 0.46686 3.33300
Zr	Zr	0.96686 0.96686 0.03314 3.33300
Zr	Zr	0.03314 0.03314 0.03314 3.33300
Zr	Zr	0.03314 0.96686 0.96686 3.33300
Zr	Zr	0.96686 0.03314 0.96686 3.33300
Zr	Zr	0.46686 0.46686 0.46686 3.33300
Zr	Zr	0.53314 0.53314 0.46686 3.33300
Zr	Zr	0.46686 0.53314 0.53314 3.33300
Zr	Zr	0.53314 0.46686 0.53314 3.33300
O 	O 	0.50000 0.28329 0.04803 -1.00500
O 	O 	0.50000 0.22480 0.03495 -1.42600
C 	C 	0.50000 0.23530 0.14130 -0.23100
C 	C 	0.50000 0.24410 0.10760 0.53000
C 	C 	0.50000 0.21570 0.20610 0.14600
C 	C 	0.50000 0.20730 0.23890 -0.08500
O 	O 	0.50000 0.71671 0.04803 -1.00500
O 	O 	0.50000 0.77520 0.03495 -1.42600
C 	C 	0.50000 0.76470 0.14130 -0.23100
C 	C 	0.50000 0.75590 0.10760 0.53000
C 	C 	0.50000 0.78430 0.20610 0.14600
C 	C 	0.50000 0.79270 0.23890 -0.08500
O 	O 	0.50000 0.28329 0.95197 -1.00500
O 	O 	0.50000 0.22480 0.96505 -1.42600
C 	C 	0.50000 0.23530 0.85870 -0.23100
C 	C 	0.50000 0.24410 0.89240 0.53000
C 	C 	0.50000 0.21570 0.79390 0.14600
C 	C 	0.50000 0.20730 0.76110 -0.08500
O 	O 	0.50000 0.71671 0.95197 -1.00500
O 	O 	0.50000 0.77520 0.96505 -1.42600
C 	C 	0.50000 0.76470 0.85870 -0.23100
C 	C 	0.50000 0.75590 0.89240 0.53000
C 	C 	0.50000 0.78430 0.79390 0.14600
C 	C 	0.50000 0.79270 0.76110 -0.08500
O 	O 	0.04803 0.50000 0.28329 -1.00500
O 	O 	0.03495 0.50000 0.22480 -1.42600
C 	C 	0.14130 0.50000 0.23530 -0.23100
C 	C 	0.10760 0.50000 0.24410 0.53000
C 	C 	0.20610 0.50000 0.21570 0.14600
C 	C 	0.23890 0.50000 0.20730 -0.08500
O 	O 	0.04803 0.50000 0.71671 -1.00500
O 	O 	0.03495 0.50000 0.77520 -1.42600
C 	C 	0.14130 0.50000 0.76470 -0.23100
C 	C 	0.10760 0.50000 0.75590 0.53000
C 	C 	0.20610 0.50000 0.78430 0.14600
C 	C 	0.23890 0.50000 0.79270 -0.08500
O 	O 	0.95197 0.50000 0.28329 -1.00500
O 	O 	0.96505 0.50000 0.22480 -1.42600
C 	C 	0.85870 0.50000 0.23530 -0.23100
C 	C 	0.89240 0.50000 0.24410 0.53000
C 	C 	0.79390 0.50000 0.21570 0.14600
C 	C 	0.76110 0.50000 0.20730 -0.08500
O 	O 	0.95197 0.50000 0.71671 -1.00500
O 	O 	0.96505 0.50000 0.77520 -1.42600
C 	C 	0.85870 0.50000 0.76470 -0.23100
C 	C 	0.89240 0.50000 0.75590 0.53000
C 	C 	0.79390 0.50000 0.78430 0.14600
C 	C 	0.76110 0.50000 0.79270 -0.08500
O 	O 	0.28329 0.04803 0.50000 -1.00500
O 	O 	0.22480 0.03495 0.50000 -1.42600
C 	C 	0.23530 0.14130 0.50000 -0.23100
C 	C 	0.24410 0.10760 0.50000 0.53000
C 	C 	0.21570 0.20610 0.50000 0.14600
C 	C 	0.20730 0.23890 0.50000 -0.08500
O 	O 	0.71671 0.04803 0.50000 -1.00500
O 	O 	0.77520 0.03495 0.50000 -1.42600
C 	C 	0.76470 0.14130 0.50000 -0.23100
C 	C 	0.75590 0.10760 0.50000 0.53000
C 	C 	0.78430 0.20610 0.50000 0.14600
C 	C 	0.79270 0.23890 0.50000 -0.08500
O 	O 	0.28329 0.95197 0.50000 -1.00500
O 	O 	0.22480 0.96505 0.50000 -1.42600
C 	C 	0.23530 0.85870 0.50000 -0.23100
C 	C 	0.24410 0.89240 0.50000 0.53000
C 	C 	0.21570 0.79390 0.50000 0.14600
C 	C 	0.20730 0.76110 0.50000 -0.08500
O 	O 	0.71671 0.95197 0.50000 -1.00500
O 	O 	0.77520 0.96505 0.50000 -1.42600
C 	C 	0.76470 0.85870 0.50000 -0.23100
C 	C 	0.75590 0.89240 0.50000 0.53000
C 	C 	0.78430 0.79390 0.50000 0.14600
C 	C 	0.79270 0.76110 0.50000 -0.08500
O 	O 	0.78329 -0.00000 0.45197 -1.00400
O 	O 	0.72480 0.00000 0.46505 -1.42600
C 	C 	0.73530 -0.00000 0.35870 -0.23100
C 	C 	0.74410 -0.00000 0.39240 0.53000
C 	C 	0.71570 0.00000 0.29390 0.14600
C 	C 	0.70730 -0.00000 0.26110 -0.08500
O 	O 	0.21671 -0.00000 0.45197 -1.00400
O 	O 	0.27520 0.00000 0.46505 -1.42600
C 	C 	0.26470 -0.00000 0.35870 -0.23100
C 	C 	0.25590 -0.00000 0.39240 0.53000
C 	C 	0.28430 0.00000 0.29390 0.14600
C 	C 	0.29270 -0.00000 0.26110 -0.08500
O 	O 	0.78329 -0.00000 0.54803 -1.00400
O 	O 	0.72480 0.00000 0.53495 -1.42600
C 	C 	0.73530 -0.00000 0.64130 -0.23100
C 	C 	0.74410 -0.00000 0.60760 0.53000
C 	C 	0.71570 -0.00000 0.70610 0.14600
C 	C 	0.70730 -0.00000 0.73890 -0.08500
O 	O 	0.21671 -0.00000 0.54803 -1.00400
O 	O 	0.27520 0.00000 0.53495 -1.42600
C 	C 	0.26470 -0.00000 0.64130 -0.23100
C 	C 	0.25590 -0.00000 0.60760 0.53000
C 	C 	0.28430 -0.00000 0.70610 0.14600
C 	C 	0.29270 -0.00000 0.73890 -0.08500
O 	O 	-0.00000 0.54803 0.21671 -1.00400
O 	O 	0.00000 0.53495 0.27520 -1.42600
C 	C 	-0.00000 0.64130 0.26470 -0.23100
C 	C 	-0.00000 0.60760 0.25590 0.53000
C 	C 	-0.00000 0.70610 0.28430 0.14600
C 	C 	0.00000 0.73890 0.29270 -0.08500
O 	O 	-0.00000 0.54803 0.78329 -1.00400
O 	O 	-0.00000 0.53495 0.72480 -1.42600
C 	C 	-0.00000 0.64130 0.73530 -0.23100
C 	C 	0.00000 0.60760 0.74410 0.53000
C 	C 	-0.00000 0.70610 0.71570 0.14600
C 	C 	-0.00000 0.73890 0.70730 -0.08500
O 	O 	0.00000 0.45197 0.21671 -1.00400
O 	O 	-0.00000 0.46505 0.27520 -1.42600
C 	C 	-0.00000 0.35870 0.26470 -0.23100
C 	C 	-0.00000 0.39240 0.25590 0.53000
C 	C 	-0.00000 0.29390 0.28430 0.14600
C 	C 	0.00000 0.26110 0.29270 -0.08500
O 	O 	-0.00000 0.45197 0.78329 -1.00400
O 	O 	0.00000 0.46505 0.72480 -1.42600
C 	C 	-0.00000 0.35870 0.73530 -0.23100
C 	C 	-0.00000 0.39240 0.74410 0.53000
C 	C 	0.00000 0.29390 0.71570 0.14600
C 	C 	-0.00000 0.26110 0.70730 -0.08500
O 	O 	0.54803 0.78329 -0.00000 -1.00400
O 	O 	0.53495 0.72480 -0.00000 -1.42600
C 	C 	0.64130 0.73530 -0.00000 -0.23100
C 	C 	0.60760 0.74410 -0.00000 0.53000
C 	C 	0.70610 0.71570 -0.00000 0.14600
C 	C 	0.73890 0.70730 -0.00000 -0.08500
O 	O 	0.54803 0.21671 -0.00000 -1.00400
O 	O 	0.53495 0.27520 -0.00000 -1.42600
C 	C 	0.64130 0.26470 -0.00000 -0.23100
C 	C 	0.60760 0.25590 -0.00000 0.53000
C 	C 	0.70610 0.28430 -0.00000 0.14600
C 	C 	0.73890 0.29270 -0.00000 -0.08500
O 	O 	0.45197 0.78329 -0.00000 -1.00400
O 	O 	0.46505 0.72480 -0.00000 -1.42600
C 	C 	0.35870 0.73530 -0.00000 -0.23100
C 	C 	0.39240 0.74410 -0.00000 0.53000
C 	C 	0.29390 0.71570 -0.00000 0.14600
C 	C 	0.26110 0.70730 -0.00000 -0.08500
O 	O 	0.45197 0.21671 -0.00000 -1.00400
O 	O 	0.46505 0.27520 -0.00000 -1.42600
C 	C 	0.35870 0.26470 -0.00000 -0.23100
C 	C 	0.39240 0.25590 -0.00000 0.53000
C 	C 	0.29390 0.28430 -0.00000 0.14600
C 	C 	0.26110 0.29270 -0.00000 -0.08500
O 	O 	0.02820 0.00000 0.94950 -1.70700
C 	C 	0.30940 -0.00000 0.80580 0.02900
C 	C 	0.28320 -0.00000 0.85770 0.01500
C 	C 	0.31520 0.00000 0.84180 -0.05000
C 	C 	0.21850 0.00000 0.88540 -0.06200
C 	C 	0.18640 -0.00000 0.90280 0.13500
C 	C 	0.09140 0.00000 0.93990 0.63100
C 	C 	0.12430 0.00000 0.92550 -0.18100
O 	O 	0.97180 0.00000 0.94950 -1.70700
C 	C 	0.69060 -0.00000 0.80580 0.02900
C 	C 	0.71680 -0.00000 0.85770 0.01500
C 	C 	0.68480 0.00000 0.84180 -0.05000
C 	C 	0.78150 0.00000 0.88540 -0.06200
C 	C 	0.81360 -0.00000 0.90280 0.13500
C 	C 	0.90860 0.00000 0.93990 0.63100
C 	C 	0.87570 0.00000 0.92550 -0.18100
O 	O 	0.97180 0.00000 0.05050 -1.70700
C 	C 	0.69060 -0.00000 0.19420 0.02900
C 	C 	0.71680 -0.00000 0.14230 0.01500
C 	C 	0.68480 0.00000 0.15820 -0.05000
C 	C 	0.78150 -0.00000 0.11460 -0.06200
C 	C 	0.81360 -0.00000 0.09720 0.13500
C 	C 	0.90860 0.00000 0.06010 0.63100
C 	C 	0.87570 -0.00000 0.07450 -0.18100
O 	O 	0.02820 0.00000 0.05050 -1.70700
C 	C 	0.30940 -0.00000 0.19420 0.02900
C 	C 	0.28320 -0.00000 0.14230 0.01500
C 	C 	0.31520 0.00000 0.15820 -0.05000
C 	C 	0.21850 -0.00000 0.11460 -0.06200
C 	C 	0.18640 -0.00000 0.09720 0.13500
C 	C 	0.09140 0.00000 0.06010 0.63100
C 	C 	0.12430 -0.00000 0.07450 -0.18100
O 	O 	0.94950 0.02820 -0.00000 -1.70700
C 	C 	0.80580 0.30940 -0.00000 0.02900
C 	C 	0.85770 0.28320 -0.00000 0.01500
C 	C 	0.84180 0.31520 -0.00000 -0.05000
C 	C 	0.88540 0.21850 -0.00000 -0.06200
C 	C 	0.90280 0.18640 -0.00000 0.13500
C 	C 	0.93990 0.09140 -0.00000 0.63100
C 	C 	0.92550 0.12430 -0.00000 -0.18100
O 	O 	0.94950 0.97180 -0.00000 -1.70700
C 	C 	0.80580 0.69060 -0.00000 0.02900
C 	C 	0.85770 0.71680 -0.00000 0.01500
C 	C 	0.84180 0.68480 -0.00000 -0.05000
C 	C 	0.88540 0.78150 -0.00000 -0.06200
C 	C 	0.90280 0.81360 -0.00000 0.13500
C 	C 	0.93990 0.90860 -0.00000 0.63100
C 	C 	0.92550 0.87570 -0.00000 -0.18100
O 	O 	0.05050 0.97180 -0.00000 -1.70700
C 	C 	0.19420 0.69060 -0.00000 0.02900
C 	C 	0.14230 0.71680 -0.00000 0.01500
C 	C 	0.15820 0.68480 -0.00000 -0.05000
C 	C 	0.11460 0.78150 -0.00000 -0.06200
C 	C 	0.09720 0.81360 -0.00000 0.13500
C 	C 	0.06010 0.90860 -0.00000 0.63100
C 	C 	0.07450 0.87570 -0.00000 -0.18100
O 	O 	0.05050 0.02820 -0.00000 -1.70700
C 	C 	0.19420 0.30940 -0.00000 0.02900
C 	C 	0.14230 0.28320 -0.00000 0.01500
C 	C 	0.15820 0.31520 -0.00000 -0.05000
C 	C 	0.11460 0.21850 -0.00000 -0.06200
C 	C 	0.09720 0.18640 -0.00000 0.13500
C 	C 	0.06010 0.09140 -0.00000 0.63100
C 	C 	0.07450 0.12430 -0.00000 -0.18100
O 	O 	-0.00000 0.94950 0.02820 -1.70700
C 	C 	-0.00000 0.80580 0.30940 0.02900
C 	C 	-0.00000 0.85770 0.28320 0.01500
C 	C 	0.00000 0.84180 0.31520 -0.05000
C 	C 	-0.00000 0.88540 0.21850 -0.06200
C 	C 	-0.00000 0.90280 0.18640 0.13500
C 	C 	-0.00000 0.93990 0.09140 0.63100
C 	C 	-0.00000 0.92550 0.12430 -0.18100
O 	O 	-0.00000 0.94950 0.97180 -1.70700
C 	C 	-0.00000 0.80580 0.69060 0.02900
C 	C 	-0.00000 0.85770 0.71680 0.01500
C 	C 	0.00000 0.84180 0.68480 -0.05000
C 	C 	-0.00000 0.88540 0.78150 -0.06200
C 	C 	-0.00000 0.90280 0.81360 0.13500
C 	C 	-0.00000 0.93990 0.90860 0.63100
C 	C 	0.00000 0.92550 0.87570 -0.18100
O 	O 	0.00000 0.05050 0.97180 -1.70700
C 	C 	-0.00000 0.19420 0.69060 0.02900
C 	C 	-0.00000 0.14230 0.71680 0.01500
C 	C 	-0.00000 0.15820 0.68480 -0.05000
C 	C 	-0.00000 0.11460 0.78150 -0.06200
C 	C 	-0.00000 0.09720 0.81360 0.13500
C 	C 	-0.00000 0.06010 0.90860 0.63100
C 	C 	0.00000 0.07450 0.87570 -0.18100
O 	O 	0.00000 0.05050 0.02820 -1.70700
C 	C 	0.00000 0.19420 0.30940 0.02900
C 	C 	-0.00000 0.14230 0.28320 0.01500
C 	C 	-0.00000 0.15820 0.31520 -0.05000
C 	C 	-0.00000 0.11460 0.21850 -0.06200
C 	C 	0.00000 0.09720 0.18640 0.13500
C 	C 	0.00000 0.06010 0.09140 0.63100
C 	C 	0.00000 0.07450 0.12430 -0.18100
O 	O 	0.50000 0.52820 0.55050 -1.70700
C 	C 	0.50000 0.80940 0.69420 0.02900
C 	C 	0.50000 0.78320 0.64230 0.01500
C 	C 	0.50000 0.81520 0.65820 -0.05000
C 	C 	0.50000 0.71850 0.61460 -0.06200
C 	C 	0.50000 0.68640 0.59720 0.13500
C 	C 	0.50000 0.59140 0.56010 0.63100
C 	C 	0.50000 0.62430 0.57450 -0.18100
O 	O 	0.50000 0.47180 0.55050 -1.70700
C 	C 	0.50000 0.19060 0.69420 0.02900
C 	C 	0.50000 0.21680 0.64230 0.01500
C 	C 	0.50000 0.18480 0.65820 -0.05000
C 	C 	0.50000 0.28150 0.61460 -0.06200
C 	C 	0.50000 0.31360 0.59720 0.13500
C 	C 	0.50000 0.40860 0.56010 0.63100
C 	C 	0.50000 0.37570 0.57450 -0.18100
O 	O 	0.50000 0.47180 0.44950 -1.70700
C 	C 	0.50000 0.19060 0.30580 0.02900
C 	C 	0.50000 0.21680 0.35770 0.01500
C 	C 	0.50000 0.18480 0.34180 -0.05000
C 	C 	0.50000 0.28150 0.38540 -0.06200
C 	C 	0.50000 0.31360 0.40280 0.13500
C 	C 	0.50000 0.40860 0.43990 0.63100
C 	C 	0.50000 0.37570 0.42550 -0.18100
O 	O 	0.50000 0.52820 0.44950 -1.70700
C 	C 	0.50000 0.80940 0.30580 0.02900
C 	C 	0.50000 0.78320 0.35770 0.01500
C 	C 	0.50000 0.81520 0.34180 -0.05000
C 	C 	0.50000 0.71850 0.38540 -0.06200
C 	C 	0.50000 0.68640 0.40280 0.13500
C 	C 	0.50000 0.59140 0.43990 0.63100
C 	C 	0.50000 0.62430 0.42550 -0.18100
O 	O 	0.52820 0.44950 0.50000 -1.70700
C 	C 	0.80940 0.30580 0.50000 0.02900
C 	C 	0.78320 0.35770 0.50000 0.01500
C 	C 	0.81520 0.34180 0.50000 -0.05000
C 	C 	0.71850 0.38540 0.50000 -0.06200
C 	C 	0.68640 0.40280 0.50000 0.13500
C 	C 	0.59140 0.43990 0.50000 0.63100
C 	C 	0.62430 0.42550 0.50000 -0.18100
O 	O 	0.47180 0.44950 0.50000 -1.70700
C 	C 	0.19060 0.30580 0.50000 0.02900
C 	C 	0.21680 0.35770 0.50000 0.01500
C 	C 	0.18480 0.34180 0.50000 -0.05000
C 	C 	0.28150 0.38540 0.50000 -0.06200
C 	C 	0.31360 0.40280 0.50000 0.13500
C 	C 	0.40860 0.43990 0.50000 0.63100
C 	C 	0.37570 0.42550 0.50000 -0.18100
O 	O 	0.47180 0.55050 0.50000 -1.70700
C 	C 	0.19060 0.69420 0.50000 0.02900
C 	C 	0.21680 0.64230 0.50000 0.01500
C 	C 	0.18480 0.65820 0.50000 -0.05000
C 	C 	0.28150 0.61460 0.50000 -0.06200
C 	C 	0.31360 0.59720 0.50000 0.13500
C 	C 	0.40860 0.56010 0.50000 0.63100
C 	C 	0.37570 0.57450 0.50000 -0.18100
O 	O 	0.52820 0.55050 0.50000 -1.70700
C 	C 	0.80940 0.69420 0.50000 0.02900
C 	C 	0.78320 0.64230 0.50000 0.01500
C 	C 	0.81520 0.65820 0.50000 -0.05000
C 	C 	0.71850 0.61460 0.50000 -0.06200
C 	C 	0.68640 0.59720 0.50000 0.13500
C 	C 	0.59140 0.56010 0.50000 0.63100
C 	C 	0.62430 0.57450 0.50000 -0.18100
O 	O 	0.44950 0.50000 0.47180 -1.70700
C 	C 	0.30580 0.50000 0.19060 0.02900
C 	C 	0.35770 0.50000 0.21680 0.01500
C 	C 	0.34180 0.50000 0.18480 -0.05000
C 	C 	0.38540 0.50000 0.28150 -0.06200
C 	C 	0.40280 0.50000 0.31360 0.13500
C 	C 	0.43990 0.50000 0.40860 0.63100
C 	C 	0.42550 0.50000 0.37570 -0.18100
O 	O 	0.44950 0.50000 0.52820 -1.70700
C 	C 	0.30580 0.50000 0.80940 0.02900
C 	C 	0.35770 0.50000 0.78320 0.01500
C 	C 	0.34180 0.50000 0.81520 -0.05000
C 	C 	0.38540 0.50000 0.71850 -0.06200
C 	C 	0.40280 0.50000 0.68640 0.13500
C 	C 	0.43990 0.50000 0.59140 0.63100
C 	C 	0.42550 0.50000 0.62430 -0.18100
O 	O 	0.55050 0.50000 0.52820 -1.70700
C 	C 	0.69420 0.50000 0.80940 0.02900
C 	C 	0.64230 0.50000 0.78320 0.01500
C 	C 	0.65820 0.50000 0.81520 -0.05000
C 	C 	0.61460 0.50000 0.71850 -0.06200
C 	C 	0.59720 0.50000 0.68640 0.13500
C 	C 	0.56010 0.50000 0.59140 0.63100
C 	C 	0.57450 0.50000 0.62430 -0.18100
O 	O 	0.55050 0.50000 0.47180 -1.70700
C 	C 	0.69420 0.50000 0.19060 0.02900
C 	C 	0.64230 0.50000 0.21680 0.01500
C 	C 	0.65820 0.50000 0.18480 -0.05000
C 	C 	0.61460 0.50000 0.28150 -0.06200
C 	C 	0.59720 0.50000 0.31360 0.13500
C 	C 	0.56010 0.50000 0.40860 0.63100
C 	C 	0.57450 0.50000 0.37570 -0.18100
