data_crystal

_cell_length_a 46.40300
_cell_length_b 11.12500
_cell_length_c 24.14400
_cell_angle_alpha 90.00000
_cell_angle_beta  98.48000
_cell_angle_gamma 90.00000

_symmetry_space_group_name_	'P 1'
_symmetry_space_group_name_H-M	'P 1'

loop_
_symmetry_equiv_pos_as_xyz
  x,y,z

loop_
_atom_site_label
_atom_site_type_symbol
_atom_site_fract_x
_atom_site_fract_y
_atom_site_fract_z
_atom_site_charge
Cd	Cd	0.98699 0.66034 0.43905 1.20300
Cd	Cd	0.28189 0.86594 0.42035 1.22900
O 	O 	0.12927 0.52780 0.26580 -0.35300
O 	O 	0.89923 0.20760 0.11070 -0.25400
O 	O 	0.00358 0.45600 0.33530 -0.30900
C 	C 	0.07761 0.76490 0.57510 0.07700
O 	O 	0.87033 0.92960 0.09950 -0.27600
O 	O 	0.01787 0.83020 0.46300 -0.37500
O 	O 	0.84644 0.10920 0.23390 -0.26800
O 	O 	0.02673 0.66480 0.51210 -0.41000
O 	O 	0.91433 0.00780 0.25830 -0.25700
C 	C 	0.06177 0.82560 0.52980 -0.13200
O 	O 	0.23715 0.85470 0.36150 -0.39100
C 	C 	0.15400 0.58450 0.29580 0.37700
N 	N 	0.95895 0.78200 0.37620 -0.27900
C 	C 	0.20362 0.69300 0.34870 -0.26900
C 	C 	0.90917 0.31620 0.03180 -0.29800
H 	H 	0.88970 0.33890 0.02450 0.14900
C 	C 	0.19510 0.58440 0.36450 0.24200
H 	H 	0.20670 0.54500 0.39370 -0.03800
C 	C 	0.10384 0.52830 0.29040 0.37100
C 	C 	0.05162 0.52280 0.33030 -0.24600
C 	C 	0.10143 0.58870 0.33790 -0.38300
H 	H 	0.11720 0.63010 0.35710 0.17100
C 	C 	0.05542 0.46140 0.28230 0.22800
H 	H 	0.04010 0.41670 0.26350 -0.02500
N 	N 	0.80274 0.28330 0.34650 -0.26200
C 	C 	0.93983 0.73820 0.33390 0.16400
H 	H 	0.93720 0.65540 0.33230 -0.05000
C 	C 	0.06948 0.93760 0.51220 0.08800
N 	N 	0.95653 0.32250 0.00620 -0.28100
O 	O 	0.24676 0.69650 0.41580 -0.39000
C 	C 	0.07508 0.58760 0.35710 0.23500
H 	H 	0.07290 0.63150 0.38900 -0.03400
C 	C 	0.86898 0.16500 0.20920 0.03600
H 	H 	0.88340 0.19920 0.23800 0.03800
H 	H 	0.86100 0.22910 0.18430 0.03400
C 	C 	0.94711 0.97830 0.33880 -0.28900
H 	H 	0.94990 0.06090 0.34190 0.14900
C 	C 	0.85146 0.87130 0.06250 0.34500
O 	O 	0.02108 0.60780 0.38880 -0.44000
C 	C 	0.92818 0.93020 0.29560 0.30900
C 	C 	0.16170 0.69280 0.27690 -0.37300
H 	H 	0.15080 0.73000 0.24630 0.16900
C 	C 	0.92399 0.80560 0.29310 -0.29800
H 	H 	0.91100 0.77030 0.26480 0.14000
C 	C 	0.90927 0.11830 0.15210 0.01700
H 	H 	0.92290 0.15410 0.18180 0.04300
H 	H 	0.91920 0.05430 0.13520 0.04400
C 	C 	0.91892 0.24550 0.07870 0.30200
C 	C 	0.88307 0.06750 0.17600 0.00400
C 	C 	0.94817 0.21800 0.08930 -0.28700
H 	H 	0.95580 0.17260 0.12030 0.14200
C 	C 	0.16960 0.52830 0.33910 -0.38400
H 	H 	0.16370 0.45470 0.35180 0.17700
C 	C 	0.08114 0.46500 0.26200 -0.36000
H 	H 	0.08330 0.42490 0.22900 0.16600
C 	C 	0.86151 0.77870 0.03440 -0.33400
H 	H 	0.88100 0.75690 0.04180 0.16200
C 	C 	0.83274 0.16960 0.26920 0.33900
C 	C 	0.85893 0.02390 0.12950 0.03200
H 	H 	0.84230 0.99520 0.14580 0.03800
H 	H 	0.85250 0.08970 0.10430 0.04100
C 	C 	0.82180 0.34020 0.32200 0.18300
H 	H 	0.82550 0.42020 0.33170 -0.02300
C 	C 	0.96585 0.26000 0.05230 0.15700
H 	H 	0.98570 0.24350 0.06020 -0.03100
C 	C 	0.18670 0.74570 0.30540 0.24000
H 	H 	0.19190 0.82150 0.29410 -0.03300
C 	C 	0.96194 0.90040 0.37770 0.16000
H 	H 	0.97490 0.93340 0.40680 -0.02500
C 	C 	0.89397 0.96320 0.21290 0.02500
H 	H 	0.87780 0.92430 0.22700 0.04400
H 	H 	0.90330 0.90460 0.19160 0.03900
C 	C 	0.03319 0.77090 0.49910 0.33700
N 	N 	0.81447 0.74000 0.98380 -0.27600
C 	C 	0.84298 0.71710 0.99510 0.18900
H 	H 	0.85060 0.65620 0.97520 -0.02800
C 	C 	0.92757 0.35150 0.99750 0.16400
H 	H 	0.92040 0.39770 0.96640 -0.05000
C 	C 	0.02284 0.52740 0.35320 0.41000
C 	C 	0.81220 0.10920 0.29390 -0.29900
H 	H 	0.80810 0.02890 0.28550 0.16000
C 	C 	0.83716 0.29000 0.28180 -0.31400
H 	H 	0.84990 0.33610 0.26420 0.15700
C 	C 	0.82212 0.89810 0.05110 -0.33100
H 	H 	0.81420 0.96030 0.06970 0.15100
C 	C 	0.79780 0.16970 0.33120 0.17900
H 	H 	0.78370 0.12800 0.34690 -0.03500
C 	C 	0.80503 0.83100 0.01180 0.18400
H 	H 	0.78540 0.85050 0.00410 -0.05700
C 	C 	0.23061 0.75090 0.37730 0.36800
C 	C 	0.09090 0.00300 0.54710 -0.08100
H 	H 	0.09490 0.08320 0.53980 0.04500
C 	C 	0.10540 0.94400 0.59200 0.12100
C 	C 	0.09880 0.83240 0.60890 -0.07800
H 	H 	0.10820 0.80100 0.64240 0.07200
C 	C 	0.19290 0.37620 0.55830 -0.10400
C 	C 	0.17560 0.27990 0.57420 -0.34800
C 	C 	0.15800 0.30060 0.61480 0.25700
H 	H 	0.15720 0.37650 0.63070 -0.08000
C 	C 	0.14140 0.20730 0.63140 -0.34400
H 	H 	0.12920 0.22030 0.65810 0.14500
C 	C 	0.14320 0.09530 0.60810 0.19100
C 	C 	0.16020 0.07430 0.56700 0.04700
H 	H 	0.16090 0.99840 0.55100 0.05400
C 	C 	0.17640 0.16850 0.54970 0.08200
H 	H 	0.18780 0.15630 0.52160 0.01200
O 	O 	0.12800 0.99980 0.62740 -0.18600
O 	O 	0.19440 0.47790 0.58860 -0.52700
O 	O 	0.20770 0.36610 0.51320 -0.12900
C 	C 	0.09910 0.97200 0.53510 -0.09700
H 	H 	0.10720 0.03970 0.52060 0.06800
C 	C 	0.11500 0.90900 0.57700 0.08600
C 	C 	0.10610 0.80200 0.59280 -0.10100
H 	H 	0.11900 0.75200 0.61540 0.06600
C 	C 	0.18650 0.40020 0.59020 0.72100
C 	C 	0.17540 0.28360 0.59420 0.03900
C 	C 	0.14760 0.26860 0.60640 -0.11500
H 	H 	0.13650 0.33510 0.61350 0.04600
C 	C 	0.13610 0.15460 0.60800 0.14000
H 	H 	0.11720 0.14390 0.61570 0.00600
C 	C 	0.15280 0.05620 0.59800 -0.10800
C 	C 	0.18050 0.07040 0.58400 -0.18800
H 	H 	0.19100 0.00390 0.57490 0.09500
C 	C 	0.19220 0.18360 0.58380 0.10300
H 	H 	0.21120 0.19390 0.57680 0.01600
O 	O 	0.14230 0.94050 0.60390 -0.11900
O 	O 	0.21540 0.42400 0.59560 -0.19600
O 	O 	0.16970 0.49940 0.57820 -0.19400
Cd	Cd	0.48699 0.16034 0.43905 1.20400
Cd	Cd	0.78189 0.36594 0.42035 1.23000
O 	O 	0.62927 0.02780 0.26580 -0.35200
O 	O 	0.39923 0.70760 0.11070 -0.25300
O 	O 	0.50358 0.95600 0.33530 -0.30800
C 	C 	0.57761 0.26490 0.57510 0.07800
O 	O 	0.37033 0.42960 0.09950 -0.27400
O 	O 	0.51787 0.33020 0.46300 -0.37400
O 	O 	0.34644 0.60920 0.23390 -0.26700
O 	O 	0.52673 0.16480 0.51210 -0.40900
O 	O 	0.41433 0.50780 0.25830 -0.25600
C 	C 	0.56177 0.32560 0.52980 -0.13100
O 	O 	0.73715 0.35470 0.36150 -0.39000
C 	C 	0.65400 0.08450 0.29580 0.37800
N 	N 	0.45895 0.28200 0.37620 -0.27800
C 	C 	0.70362 0.19300 0.34870 -0.26800
C 	C 	0.40917 0.81620 0.03180 -0.29900
H 	H 	0.38970 0.83890 0.02450 0.15000
C 	C 	0.69510 0.08440 0.36450 0.24300
H 	H 	0.70670 0.04500 0.39370 -0.03700
C 	C 	0.60384 0.02830 0.29040 0.37200
C 	C 	0.55162 0.02280 0.33030 -0.24500
C 	C 	0.60143 0.08870 0.33790 -0.38200
H 	H 	0.61720 0.13010 0.35710 0.17200
C 	C 	0.55542 0.96140 0.28230 0.22900
H 	H 	0.54010 0.91670 0.26350 -0.02400
N 	N 	0.30274 0.78330 0.34650 -0.26200
C 	C 	0.43983 0.23820 0.33390 0.16400
H 	H 	0.43720 0.15540 0.33230 -0.05000
C 	C 	0.56948 0.43760 0.51220 0.08800
N 	N 	0.45653 0.82250 0.00620 -0.28200
O 	O 	0.74676 0.19650 0.41580 -0.39000
C 	C 	0.57508 0.08760 0.35710 0.23500
H 	H 	0.57290 0.13150 0.38900 -0.03400
C 	C 	0.36898 0.66500 0.20920 0.03600
H 	H 	0.38340 0.69920 0.23800 0.03800
H 	H 	0.36100 0.72910 0.18430 0.03400
C 	C 	0.44711 0.47830 0.33880 -0.28900
H 	H 	0.44990 0.56090 0.34190 0.14800
C 	C 	0.35146 0.37130 0.06250 0.34500
O 	O 	0.52108 0.10780 0.38880 -0.44000
C 	C 	0.42818 0.43020 0.29560 0.30900
C 	C 	0.66170 0.19280 0.27690 -0.37300
H 	H 	0.65080 0.23000 0.24630 0.16900
C 	C 	0.42399 0.30560 0.29310 -0.29800
H 	H 	0.41100 0.27030 0.26480 0.14000
C 	C 	0.40927 0.61830 0.15210 0.01800
H 	H 	0.42290 0.65410 0.18180 0.04300
H 	H 	0.41920 0.55430 0.13520 0.04400
C 	C 	0.41892 0.74550 0.07870 0.30300
C 	C 	0.38307 0.56750 0.17600 0.00400
C 	C 	0.44817 0.71800 0.08930 -0.28800
H 	H 	0.45580 0.67260 0.12030 0.14200
C 	C 	0.66960 0.02830 0.33910 -0.38400
H 	H 	0.66370 0.95470 0.35180 0.17700
C 	C 	0.58114 0.96500 0.26200 -0.36100
H 	H 	0.58330 0.92490 0.22900 0.16600
C 	C 	0.36151 0.27870 0.03440 -0.33300
H 	H 	0.38100 0.25690 0.04180 0.16200
C 	C 	0.33274 0.66960 0.26920 0.33900
C 	C 	0.35893 0.52390 0.12950 0.03100
H 	H 	0.34230 0.49520 0.14580 0.03900
H 	H 	0.35250 0.58970 0.10430 0.04100
C 	C 	0.32180 0.84020 0.32200 0.18300
H 	H 	0.32550 0.92020 0.33170 -0.02300
C 	C 	0.46585 0.76000 0.05230 0.15700
H 	H 	0.48570 0.74350 0.06020 -0.03100
C 	C 	0.68670 0.24570 0.30540 0.24000
H 	H 	0.69190 0.32150 0.29410 -0.03300
C 	C 	0.46194 0.40040 0.37770 0.16000
H 	H 	0.47490 0.43340 0.40680 -0.02500
C 	C 	0.39397 0.46320 0.21290 0.02600
H 	H 	0.37780 0.42430 0.22700 0.04300
H 	H 	0.40330 0.40460 0.19160 0.03900
C 	C 	0.53319 0.27090 0.49910 0.33700
N 	N 	0.31447 0.24000 0.98380 -0.27600
C 	C 	0.34298 0.21710 0.99510 0.18800
H 	H 	0.35060 0.15620 0.97520 -0.02800
C 	C 	0.42757 0.85150 0.99750 0.16600
H 	H 	0.42040 0.89770 0.96640 -0.05000
C 	C 	0.52284 0.02740 0.35320 0.41000
C 	C 	0.31220 0.60920 0.29390 -0.29900
H 	H 	0.30810 0.52890 0.28550 0.16000
C 	C 	0.33716 0.79000 0.28180 -0.31400
H 	H 	0.34990 0.83610 0.26420 0.15700
C 	C 	0.32212 0.39810 0.05110 -0.33100
H 	H 	0.31420 0.46030 0.06970 0.15100
C 	C 	0.29780 0.66970 0.33120 0.17900
H 	H 	0.28370 0.62800 0.34690 -0.03500
C 	C 	0.30503 0.33100 0.01180 0.18400
H 	H 	0.28540 0.35050 0.00410 -0.05700
C 	C 	0.73061 0.25090 0.37730 0.36800
C 	C 	0.59090 0.50300 0.54710 -0.08100
H 	H 	0.59490 0.58320 0.53980 0.04500
C 	C 	0.60540 0.44400 0.59200 0.12100
C 	C 	0.59880 0.33240 0.60890 -0.07800
H 	H 	0.60820 0.30100 0.64240 0.07200
C 	C 	0.69290 0.87620 0.55830 -0.10400
C 	C 	0.67560 0.77990 0.57420 -0.34900
C 	C 	0.65800 0.80060 0.61480 0.25700
H 	H 	0.65720 0.87650 0.63070 -0.08000
C 	C 	0.64140 0.70730 0.63140 -0.34400
H 	H 	0.62920 0.72030 0.65810 0.14600
C 	C 	0.64320 0.59530 0.60810 0.19200
C 	C 	0.66020 0.57430 0.56700 0.04800
H 	H 	0.66090 0.49840 0.55100 0.05400
C 	C 	0.67640 0.66850 0.54970 0.08100
H 	H 	0.68780 0.65630 0.52160 0.01200
O 	O 	0.62800 0.49980 0.62740 -0.18600
O 	O 	0.69440 0.97790 0.58860 -0.52700
O 	O 	0.70770 0.86610 0.51320 -0.12900
C 	C 	0.59910 0.47200 0.53510 -0.09700
H 	H 	0.60720 0.53970 0.52060 0.06800
C 	C 	0.61500 0.40900 0.57700 0.08600
C 	C 	0.60610 0.30200 0.59280 -0.10100
H 	H 	0.61900 0.25200 0.61540 0.06600
C 	C 	0.68650 0.90020 0.59020 0.72100
C 	C 	0.67540 0.78360 0.59420 0.03900
C 	C 	0.64760 0.76860 0.60640 -0.11500
H 	H 	0.63650 0.83510 0.61350 0.04600
C 	C 	0.63610 0.65460 0.60800 0.14000
H 	H 	0.61720 0.64390 0.61570 0.00600
C 	C 	0.65280 0.55620 0.59800 -0.10800
C 	C 	0.68050 0.57040 0.58400 -0.18800
H 	H 	0.69100 0.50390 0.57490 0.09500
C 	C 	0.69220 0.68360 0.58380 0.10300
H 	H 	0.71120 0.69390 0.57680 0.01600
O 	O 	0.64230 0.44050 0.60390 -0.11900
O 	O 	0.71540 0.92400 0.59560 -0.19600
O 	O 	0.66970 0.99940 0.57820 -0.19400
Cd	Cd	0.01301 0.66034 0.06095 1.20400
Cd	Cd	0.71811 0.86594 0.07965 1.23000
O 	O 	0.87073 0.52780 0.23420 -0.35200
O 	O 	0.10077 0.20760 0.38930 -0.25300
O 	O 	0.99642 0.45600 0.16470 -0.30800
C 	C 	0.92239 0.76490 0.92490 0.07800
O 	O 	0.12967 0.92960 0.40050 -0.27500
O 	O 	0.98213 0.83020 0.03700 -0.37400
O 	O 	0.15356 0.10920 0.26610 -0.26700
O 	O 	0.97327 0.66480 0.98790 -0.40900
O 	O 	0.08567 0.00780 0.24170 -0.25600
C 	C 	0.93823 0.82560 0.97020 -0.13100
O 	O 	0.76285 0.85470 0.13850 -0.39000
C 	C 	0.84600 0.58450 0.20420 0.37800
N 	N 	0.04105 0.78200 0.12380 -0.27800
C 	C 	0.79638 0.69300 0.15130 -0.26800
C 	C 	0.09083 0.31620 0.46820 -0.29800
H 	H 	0.11030 0.33890 0.47550 0.15000
C 	C 	0.80490 0.58440 0.13550 0.24300
H 	H 	0.79330 0.54500 0.10630 -0.03700
C 	C 	0.89616 0.52830 0.20960 0.37200
C 	C 	0.94838 0.52280 0.16970 -0.24500
C 	C 	0.89857 0.58870 0.16210 -0.38200
H 	H 	0.88280 0.63010 0.14290 0.17200
C 	C 	0.94458 0.46140 0.21770 0.22900
H 	H 	0.95990 0.41670 0.23650 -0.02400
N 	N 	0.19726 0.28330 0.15350 -0.26200
C 	C 	0.06017 0.73820 0.16610 0.16400
H 	H 	0.06280 0.65540 0.16770 -0.05000
C 	C 	0.93052 0.93760 0.98780 0.08900
N 	N 	0.04347 0.32250 0.49380 -0.28100
O 	O 	0.75324 0.69650 0.08420 -0.39000
C 	C 	0.92492 0.58760 0.14290 0.23500
H 	H 	0.92710 0.63150 0.11100 -0.03400
C 	C 	0.13102 0.16500 0.29080 0.03600
H 	H 	0.11660 0.19920 0.26200 0.03800
H 	H 	0.13900 0.22910 0.31570 0.03400
C 	C 	0.05289 0.97830 0.16120 -0.29000
H 	H 	0.05010 0.06090 0.15810 0.14900
C 	C 	0.14854 0.87130 0.43750 0.34500
O 	O 	0.97892 0.60780 0.11120 -0.44000
C 	C 	0.07182 0.93020 0.20440 0.30900
C 	C 	0.83830 0.69280 0.22310 -0.37300
H 	H 	0.84920 0.73000 0.25370 0.16900
C 	C 	0.07601 0.80560 0.20690 -0.29800
H 	H 	0.08900 0.77030 0.23520 0.14000
C 	C 	0.09073 0.11830 0.34790 0.01700
H 	H 	0.07710 0.15410 0.31820 0.04300
H 	H 	0.08080 0.05430 0.36480 0.04400
C 	C 	0.08108 0.24550 0.42130 0.30200
C 	C 	0.11693 0.06750 0.32400 0.00400
C 	C 	0.05183 0.21800 0.41070 -0.28700
H 	H 	0.04420 0.17260 0.37970 0.14200
C 	C 	0.83040 0.52830 0.16090 -0.38400
H 	H 	0.83630 0.45470 0.14820 0.17700
C 	C 	0.91886 0.46500 0.23800 -0.36000
H 	H 	0.91670 0.42490 0.27100 0.16600
C 	C 	0.13849 0.77870 0.46560 -0.33400
H 	H 	0.11900 0.75690 0.45820 0.16200
C 	C 	0.16726 0.16960 0.23080 0.33900
C 	C 	0.14107 0.02390 0.37050 0.03200
H 	H 	0.15770 0.99520 0.35420 0.03800
H 	H 	0.14750 0.08970 0.39570 0.04100
C 	C 	0.17820 0.34020 0.17800 0.18300
H 	H 	0.17450 0.42020 0.16830 -0.02300
C 	C 	0.03415 0.26000 0.44770 0.15700
H 	H 	0.01430 0.24350 0.43980 -0.03100
C 	C 	0.81330 0.74570 0.19460 0.24000
H 	H 	0.80810 0.82150 0.20590 -0.03300
C 	C 	0.03806 0.90040 0.12230 0.16000
H 	H 	0.02510 0.93340 0.09320 -0.02500
C 	C 	0.10603 0.96320 0.28710 0.02500
H 	H 	0.12220 0.92430 0.27300 0.04400
H 	H 	0.09670 0.90460 0.30840 0.03900
C 	C 	0.96681 0.77090 0.00090 0.33700
N 	N 	0.18553 0.74000 0.51620 -0.27600
C 	C 	0.15702 0.71710 0.50490 0.18800
H 	H 	0.14940 0.65620 0.52480 -0.02800
C 	C 	0.07243 0.35150 0.50250 0.16500
H 	H 	0.07960 0.39770 0.53360 -0.05000
C 	C 	0.97716 0.52740 0.14680 0.41000
C 	C 	0.18780 0.10920 0.20610 -0.29900
H 	H 	0.19190 0.02890 0.21450 0.16000
C 	C 	0.16284 0.29000 0.21820 -0.31400
H 	H 	0.15010 0.33610 0.23580 0.15700
C 	C 	0.17788 0.89810 0.44890 -0.33100
H 	H 	0.18580 0.96030 0.43030 0.15100
C 	C 	0.20220 0.16970 0.16880 0.17900
H 	H 	0.21630 0.12800 0.15310 -0.03500
C 	C 	0.19497 0.83100 0.48820 0.18400
H 	H 	0.21460 0.85050 0.49590 -0.05700
C 	C 	0.76939 0.75090 0.12270 0.36800
C 	C 	0.90910 0.00300 0.95290 -0.08000
H 	H 	0.90510 0.08320 0.96020 0.04400
C 	C 	0.89460 0.94400 0.90800 0.12000
C 	C 	0.90120 0.83240 0.89110 -0.08000
H 	H 	0.89180 0.80100 0.85760 0.07200
C 	C 	0.80710 0.37620 0.94170 -0.10400
C 	C 	0.82440 0.27990 0.92580 -0.34900
C 	C 	0.84200 0.30060 0.88520 0.25600
H 	H 	0.84280 0.37650 0.86930 -0.08000
C 	C 	0.85860 0.20730 0.86860 -0.34300
H 	H 	0.87080 0.22030 0.84190 0.14500
C 	C 	0.85680 0.09530 0.89190 0.19100
C 	C 	0.83980 0.07430 0.93300 0.04800
H 	H 	0.83910 0.99840 0.94900 0.05400
C 	C 	0.82360 0.16850 0.95030 0.08100
H 	H 	0.81220 0.15630 0.97840 0.01200
O 	O 	0.87200 0.99980 0.87260 -0.18500
O 	O 	0.80560 0.47790 0.91140 -0.52800
O 	O 	0.79230 0.36610 0.98680 -0.12900
C 	C 	0.90090 0.97200 0.96490 -0.09800
H 	H 	0.89280 0.03970 0.97940 0.06900
C 	C 	0.88500 0.90900 0.92300 0.08800
C 	C 	0.89390 0.80200 0.90720 -0.10000
H 	H 	0.88100 0.75200 0.88460 0.06600
C 	C 	0.81350 0.40020 0.90980 0.72100
C 	C 	0.82460 0.28360 0.90580 0.03900
C 	C 	0.85240 0.26860 0.89360 -0.11500
H 	H 	0.86350 0.33510 0.88650 0.04600
C 	C 	0.86390 0.15460 0.89200 0.14000
H 	H 	0.88280 0.14390 0.88430 0.00600
C 	C 	0.84720 0.05620 0.90200 -0.10800
C 	C 	0.81950 0.07040 0.91600 -0.18900
H 	H 	0.80900 0.00390 0.92510 0.09600
C 	C 	0.80780 0.18360 0.91620 0.10400
H 	H 	0.78880 0.19390 0.92320 0.01600
O 	O 	0.85770 0.94050 0.89610 -0.11900
O 	O 	0.78460 0.42400 0.90440 -0.19600
O 	O 	0.83030 0.49940 0.92180 -0.19400
Cd	Cd	0.51301 0.16034 0.06095 1.20400
Cd	Cd	0.21811 0.36594 0.07965 1.23000
O 	O 	0.37073 0.02780 0.23420 -0.35200
O 	O 	0.60077 0.70760 0.38930 -0.25300
O 	O 	0.49642 0.95600 0.16470 -0.30900
C 	C 	0.42239 0.26490 0.92490 0.07800
O 	O 	0.62967 0.42960 0.40050 -0.27400
O 	O 	0.48213 0.33020 0.03700 -0.37400
O 	O 	0.65356 0.60920 0.26610 -0.26700
O 	O 	0.47327 0.16480 0.98790 -0.41000
O 	O 	0.58567 0.50780 0.24170 -0.25600
C 	C 	0.43823 0.32560 0.97020 -0.13200
O 	O 	0.26285 0.35470 0.13850 -0.39000
C 	C 	0.34600 0.08450 0.20420 0.37700
N 	N 	0.54105 0.28200 0.12380 -0.27800
C 	C 	0.29638 0.19300 0.15130 -0.26800
C 	C 	0.59083 0.81620 0.46820 -0.29800
H 	H 	0.61030 0.83890 0.47550 0.15000
C 	C 	0.30490 0.08440 0.13550 0.24200
H 	H 	0.29330 0.04500 0.10630 -0.03700
C 	C 	0.39616 0.02830 0.20960 0.37200
C 	C 	0.44838 0.02280 0.16970 -0.24500
C 	C 	0.39857 0.08870 0.16210 -0.38200
H 	H 	0.38280 0.13010 0.14290 0.17200
C 	C 	0.44458 0.96140 0.21770 0.22900
H 	H 	0.45990 0.91670 0.23650 -0.02400
N 	N 	0.69726 0.78330 0.15350 -0.26200
C 	C 	0.56017 0.23820 0.16610 0.16400
H 	H 	0.56280 0.15540 0.16770 -0.05000
C 	C 	0.43052 0.43760 0.98780 0.08900
N 	N 	0.54347 0.82250 0.49380 -0.28100
O 	O 	0.25324 0.19650 0.08420 -0.39000
C 	C 	0.42492 0.08760 0.14290 0.23500
H 	H 	0.42710 0.13150 0.11100 -0.03400
C 	C 	0.63102 0.66500 0.29080 0.03600
H 	H 	0.61660 0.69920 0.26200 0.03800
H 	H 	0.63900 0.72910 0.31570 0.03400
C 	C 	0.55289 0.47830 0.16120 -0.28900
H 	H 	0.55010 0.56090 0.15810 0.14800
C 	C 	0.64854 0.37130 0.43750 0.34500
O 	O 	0.47892 0.10780 0.11120 -0.44000
C 	C 	0.57182 0.43020 0.20440 0.30900
C 	C 	0.33830 0.19280 0.22310 -0.37200
H 	H 	0.34920 0.23000 0.25370 0.16900
C 	C 	0.57601 0.30560 0.20690 -0.29800
H 	H 	0.58900 0.27030 0.23520 0.14000
C 	C 	0.59073 0.61830 0.34790 0.01800
H 	H 	0.57710 0.65410 0.31820 0.04300
H 	H 	0.58080 0.55430 0.36480 0.04400
C 	C 	0.58108 0.74550 0.42130 0.30200
C 	C 	0.61693 0.56750 0.32400 0.00400
C 	C 	0.55183 0.71800 0.41070 -0.28700
H 	H 	0.54420 0.67260 0.37970 0.14200
C 	C 	0.33040 0.02830 0.16090 -0.38300
H 	H 	0.33630 0.95470 0.14820 0.17600
C 	C 	0.41886 0.96500 0.23800 -0.36100
H 	H 	0.41670 0.92490 0.27100 0.16600
C 	C 	0.63849 0.27870 0.46560 -0.33400
H 	H 	0.61900 0.25690 0.45820 0.16200
C 	C 	0.66726 0.66960 0.23080 0.33900
C 	C 	0.64107 0.52390 0.37050 0.03000
H 	H 	0.65770 0.49520 0.35420 0.03900
H 	H 	0.64750 0.58970 0.39570 0.04100
C 	C 	0.67820 0.84020 0.17800 0.18300
H 	H 	0.67450 0.92020 0.16830 -0.02300
C 	C 	0.53415 0.76000 0.44770 0.15700
H 	H 	0.51430 0.74350 0.43980 -0.03100
C 	C 	0.31330 0.24570 0.19460 0.24000
H 	H 	0.30810 0.32150 0.20590 -0.03200
C 	C 	0.53806 0.40040 0.12230 0.16000
H 	H 	0.52510 0.43340 0.09320 -0.02500
C 	C 	0.60603 0.46320 0.28710 0.02600
H 	H 	0.62220 0.42430 0.27300 0.04300
H 	H 	0.59670 0.40460 0.30840 0.03900
C 	C 	0.46681 0.27090 0.00090 0.33800
N 	N 	0.68553 0.24000 0.51620 -0.27600
C 	C 	0.65702 0.21710 0.50490 0.18800
H 	H 	0.64940 0.15620 0.52480 -0.02800
C 	C 	0.57243 0.85150 0.50250 0.16500
H 	H 	0.57960 0.89770 0.53360 -0.05000
C 	C 	0.47716 0.02740 0.14680 0.41000
C 	C 	0.68780 0.60920 0.20610 -0.29900
H 	H 	0.69190 0.52890 0.21450 0.16000
C 	C 	0.66284 0.79000 0.21820 -0.31400
H 	H 	0.65010 0.83610 0.23580 0.15700
C 	C 	0.67788 0.39810 0.44890 -0.33100
H 	H 	0.68580 0.46030 0.43030 0.15100
C 	C 	0.70220 0.66970 0.16880 0.17900
H 	H 	0.71630 0.62800 0.15310 -0.03500
C 	C 	0.69497 0.33100 0.48820 0.18400
H 	H 	0.71460 0.35050 0.49590 -0.05700
C 	C 	0.26939 0.25090 0.12270 0.36800
C 	C 	0.40910 0.50300 0.95290 -0.08100
H 	H 	0.40510 0.58320 0.96020 0.04500
C 	C 	0.39460 0.44400 0.90800 0.12100
C 	C 	0.40120 0.33240 0.89110 -0.07800
H 	H 	0.39180 0.30100 0.85760 0.07200
C 	C 	0.30710 0.87620 0.94170 -0.10400
C 	C 	0.32440 0.77990 0.92580 -0.34800
C 	C 	0.34200 0.80060 0.88520 0.25700
H 	H 	0.34280 0.87650 0.86930 -0.08000
C 	C 	0.35860 0.70730 0.86860 -0.34400
H 	H 	0.37080 0.72030 0.84190 0.14500
C 	C 	0.35680 0.59530 0.89190 0.19100
C 	C 	0.33980 0.57430 0.93300 0.04800
H 	H 	0.33910 0.49840 0.94900 0.05400
C 	C 	0.32360 0.66850 0.95030 0.08100
H 	H 	0.31220 0.65630 0.97840 0.01200
O 	O 	0.37200 0.49980 0.87260 -0.18600
O 	O 	0.30560 0.97790 0.91140 -0.52700
O 	O 	0.29230 0.86610 0.98680 -0.12800
C 	C 	0.40090 0.47200 0.96490 -0.09700
H 	H 	0.39280 0.53970 0.97940 0.06800
C 	C 	0.38500 0.40900 0.92300 0.08600
C 	C 	0.39390 0.30200 0.90720 -0.10100
H 	H 	0.38100 0.25200 0.88460 0.06600
C 	C 	0.31350 0.90020 0.90980 0.72100
C 	C 	0.32460 0.78360 0.90580 0.03900
C 	C 	0.35240 0.76860 0.89360 -0.11500
H 	H 	0.36350 0.83510 0.88650 0.04600
C 	C 	0.36390 0.65460 0.89200 0.14000
H 	H 	0.38280 0.64390 0.88430 0.00600
C 	C 	0.34720 0.55620 0.90200 -0.10800
C 	C 	0.31950 0.57040 0.91600 -0.18800
H 	H 	0.30900 0.50390 0.92510 0.09500
C 	C 	0.30780 0.68360 0.91620 0.10300
H 	H 	0.28880 0.69390 0.92320 0.01600
O 	O 	0.35770 0.44050 0.89610 -0.11900
O 	O 	0.28460 0.92400 0.90440 -0.19600
O 	O 	0.33030 0.99940 0.92180 -0.19400
Cd	Cd	0.01301 0.33966 0.56095 1.20400
Cd	Cd	0.71811 0.13406 0.57965 1.23000
O 	O 	0.87073 0.47220 0.73420 -0.35200
O 	O 	0.10077 0.79240 0.88930 -0.25300
O 	O 	0.99642 0.54400 0.66470 -0.30800
C 	C 	0.92239 0.23510 0.42490 0.07800
O 	O 	0.12967 0.07040 0.90050 -0.27500
O 	O 	0.98213 0.16980 0.53700 -0.37400
O 	O 	0.15356 0.89080 0.76610 -0.26700
O 	O 	0.97327 0.33520 0.48790 -0.40900
O 	O 	0.08567 0.99220 0.74170 -0.25600
C 	C 	0.93823 0.17440 0.47020 -0.13100
O 	O 	0.76285 0.14530 0.63850 -0.39000
C 	C 	0.84600 0.41550 0.70420 0.37800
N 	N 	0.04105 0.21800 0.62380 -0.27800
C 	C 	0.79638 0.30700 0.65130 -0.26800
C 	C 	0.09083 0.68380 0.96820 -0.29700
H 	H 	0.11030 0.66110 0.97550 0.15000
C 	C 	0.80490 0.41560 0.63550 0.24300
H 	H 	0.79330 0.45500 0.60630 -0.03700
C 	C 	0.89616 0.47170 0.70960 0.37200
C 	C 	0.94838 0.47720 0.66970 -0.24500
C 	C 	0.89857 0.41130 0.66210 -0.38200
H 	H 	0.88280 0.36990 0.64290 0.17200
C 	C 	0.94458 0.53860 0.71770 0.22900
H 	H 	0.95990 0.58330 0.73650 -0.02400
N 	N 	0.19726 0.71670 0.65350 -0.26200
C 	C 	0.06017 0.26180 0.66610 0.16400
H 	H 	0.06280 0.34460 0.66770 -0.05000
C 	C 	0.93052 0.06240 0.48780 0.08800
N 	N 	0.04347 0.67750 0.99380 -0.28100
O 	O 	0.75324 0.30350 0.58420 -0.39000
C 	C 	0.92492 0.41240 0.64290 0.23500
H 	H 	0.92710 0.36850 0.61100 -0.03400
C 	C 	0.13102 0.83500 0.79080 0.03600
H 	H 	0.11660 0.80080 0.76200 0.03800
H 	H 	0.13900 0.77090 0.81570 0.03400
C 	C 	0.05289 0.02170 0.66120 -0.28900
H 	H 	0.05010 0.93910 0.65810 0.14900
C 	C 	0.14854 0.12870 0.93750 0.34500
O 	O 	0.97892 0.39220 0.61120 -0.44000
C 	C 	0.07182 0.06980 0.70440 0.30900
C 	C 	0.83830 0.30720 0.72310 -0.37300
H 	H 	0.84920 0.27000 0.75370 0.16900
C 	C 	0.07601 0.19440 0.70690 -0.29800
H 	H 	0.08900 0.22970 0.73520 0.14000
C 	C 	0.09073 0.88170 0.84790 0.01700
H 	H 	0.07710 0.84590 0.81820 0.04300
H 	H 	0.08080 0.94570 0.86480 0.04400
C 	C 	0.08108 0.75450 0.92130 0.30200
C 	C 	0.11693 0.93250 0.82400 0.00400
C 	C 	0.05183 0.78200 0.91070 -0.28700
H 	H 	0.04420 0.82740 0.87970 0.14200
C 	C 	0.83040 0.47170 0.66090 -0.38400
H 	H 	0.83630 0.54530 0.64820 0.17700
C 	C 	0.91886 0.53500 0.73800 -0.36000
H 	H 	0.91670 0.57510 0.77100 0.16600
C 	C 	0.13849 0.22130 0.96560 -0.33400
H 	H 	0.11900 0.24310 0.95820 0.16200
C 	C 	0.16726 0.83040 0.73080 0.33900
C 	C 	0.14107 0.97610 0.87050 0.03200
H 	H 	0.15770 0.00480 0.85420 0.03800
H 	H 	0.14750 0.91030 0.89570 0.04100
C 	C 	0.17820 0.65980 0.67800 0.18300
H 	H 	0.17450 0.57980 0.66830 -0.02300
C 	C 	0.03415 0.74000 0.94770 0.15700
H 	H 	0.01430 0.75650 0.93980 -0.03100
C 	C 	0.81330 0.25430 0.69460 0.24000
H 	H 	0.80810 0.17850 0.70590 -0.03300
C 	C 	0.03806 0.09960 0.62230 0.16000
H 	H 	0.02510 0.06660 0.59320 -0.02500
C 	C 	0.10603 0.03680 0.78710 0.02500
H 	H 	0.12220 0.07570 0.77300 0.04400
H 	H 	0.09670 0.09540 0.80840 0.03900
C 	C 	0.96681 0.22910 0.50090 0.33700
N 	N 	0.18553 0.26000 0.01620 -0.27600
C 	C 	0.15702 0.28290 0.00490 0.18900
H 	H 	0.14940 0.34380 0.02480 -0.02800
C 	C 	0.07243 0.64850 0.00250 0.16400
H 	H 	0.07960 0.60230 0.03360 -0.05000
C 	C 	0.97716 0.47260 0.64680 0.41000
C 	C 	0.18780 0.89080 0.70610 -0.29900
H 	H 	0.19190 0.97110 0.71450 0.16000
C 	C 	0.16284 0.71000 0.71820 -0.31400
H 	H 	0.15010 0.66390 0.73580 0.15700
C 	C 	0.17788 0.10190 0.94890 -0.33100
H 	H 	0.18580 0.03970 0.93030 0.15100
C 	C 	0.20220 0.83030 0.66880 0.17900
H 	H 	0.21630 0.87200 0.65310 -0.03500
C 	C 	0.19497 0.16900 0.98820 0.18400
H 	H 	0.21460 0.14950 0.99590 -0.05700
C 	C 	0.76939 0.24910 0.62270 0.36800
C 	C 	0.90910 0.99700 0.45290 -0.08100
H 	H 	0.90510 0.91680 0.46020 0.04500
C 	C 	0.89460 0.05600 0.40800 0.12100
C 	C 	0.90120 0.16760 0.39110 -0.07800
H 	H 	0.89180 0.19900 0.35760 0.07200
C 	C 	0.80710 0.62380 0.44170 -0.10400
C 	C 	0.82440 0.72010 0.42580 -0.34800
C 	C 	0.84200 0.69940 0.38520 0.25700
H 	H 	0.84280 0.62350 0.36930 -0.08000
C 	C 	0.85860 0.79270 0.36860 -0.34400
H 	H 	0.87080 0.77970 0.34190 0.14500
C 	C 	0.85680 0.90470 0.39190 0.19100
C 	C 	0.83980 0.92570 0.43300 0.04700
H 	H 	0.83910 0.00160 0.44900 0.05400
C 	C 	0.82360 0.83150 0.45030 0.08200
H 	H 	0.81220 0.84370 0.47840 0.01200
O 	O 	0.87200 0.00020 0.37260 -0.18600
O 	O 	0.80560 0.52210 0.41140 -0.52700
O 	O 	0.79230 0.63390 0.48680 -0.12900
C 	C 	0.90090 0.02800 0.46490 -0.09700
H 	H 	0.89280 0.96030 0.47940 0.06800
C 	C 	0.88500 0.09100 0.42300 0.08600
C 	C 	0.89390 0.19800 0.40720 -0.10100
H 	H 	0.88100 0.24800 0.38460 0.06600
C 	C 	0.81350 0.59980 0.40980 0.72100
C 	C 	0.82460 0.71640 0.40580 0.03900
C 	C 	0.85240 0.73140 0.39360 -0.11500
H 	H 	0.86350 0.66490 0.38650 0.04600
C 	C 	0.86390 0.84540 0.39200 0.14000
H 	H 	0.88280 0.85610 0.38430 0.00600
C 	C 	0.84720 0.94380 0.40200 -0.10800
C 	C 	0.81950 0.92960 0.41600 -0.18800
H 	H 	0.80900 0.99610 0.42510 0.09500
C 	C 	0.80780 0.81640 0.41620 0.10300
H 	H 	0.78880 0.80610 0.42320 0.01600
O 	O 	0.85770 0.05950 0.39610 -0.11900
O 	O 	0.78460 0.57600 0.40440 -0.19600
O 	O 	0.83030 0.50060 0.42180 -0.19400
Cd	Cd	0.51301 0.83966 0.56095 1.20400
Cd	Cd	0.21811 0.63406 0.57965 1.23000
O 	O 	0.37073 0.97220 0.73420 -0.35200
O 	O 	0.60077 0.29240 0.88930 -0.25300
O 	O 	0.49642 0.04400 0.66470 -0.30800
C 	C 	0.42239 0.73510 0.42490 0.07800
O 	O 	0.62967 0.57040 0.90050 -0.27400
O 	O 	0.48213 0.66980 0.53700 -0.37400
O 	O 	0.65356 0.39080 0.76610 -0.26700
O 	O 	0.47327 0.83520 0.48790 -0.40900
O 	O 	0.58567 0.49220 0.74170 -0.25600
C 	C 	0.43823 0.67440 0.47020 -0.13100
O 	O 	0.26285 0.64530 0.63850 -0.39000
C 	C 	0.34600 0.91550 0.70420 0.37800
N 	N 	0.54105 0.71800 0.62380 -0.27800
C 	C 	0.29638 0.80700 0.65130 -0.26800
C 	C 	0.59083 0.18380 0.96820 -0.29900
H 	H 	0.61030 0.16110 0.97550 0.15000
C 	C 	0.30490 0.91560 0.63550 0.24300
H 	H 	0.29330 0.95500 0.60630 -0.03700
C 	C 	0.39616 0.97170 0.70960 0.37200
C 	C 	0.44838 0.97720 0.66970 -0.24500
C 	C 	0.39857 0.91130 0.66210 -0.38200
H 	H 	0.38280 0.86990 0.64290 0.17200
C 	C 	0.44458 0.03860 0.71770 0.22900
H 	H 	0.45990 0.08330 0.73650 -0.02400
N 	N 	0.69726 0.21670 0.65350 -0.26200
C 	C 	0.56017 0.76180 0.66610 0.16400
H 	H 	0.56280 0.84460 0.66770 -0.05000
C 	C 	0.43052 0.56240 0.48780 0.08800
N 	N 	0.54347 0.17750 0.99380 -0.28200
O 	O 	0.25324 0.80350 0.58420 -0.39000
C 	C 	0.42492 0.91240 0.64290 0.23500
H 	H 	0.42710 0.86850 0.61100 -0.03400
C 	C 	0.63102 0.33500 0.79080 0.03600
H 	H 	0.61660 0.30080 0.76200 0.03800
H 	H 	0.63900 0.27090 0.81570 0.03400
C 	C 	0.55289 0.52170 0.66120 -0.28900
H 	H 	0.55010 0.43910 0.65810 0.14800
C 	C 	0.64854 0.62870 0.93750 0.34500
O 	O 	0.47892 0.89220 0.61120 -0.44000
C 	C 	0.57182 0.56980 0.70440 0.30900
C 	C 	0.33830 0.80720 0.72310 -0.37300
H 	H 	0.34920 0.77000 0.75370 0.16900
C 	C 	0.57601 0.69440 0.70690 -0.29800
H 	H 	0.58900 0.72970 0.73520 0.14000
C 	C 	0.59073 0.38170 0.84790 0.01800
H 	H 	0.57710 0.34590 0.81820 0.04300
H 	H 	0.58080 0.44570 0.86480 0.04400
C 	C 	0.58108 0.25450 0.92130 0.30300
C 	C 	0.61693 0.43250 0.82400 0.00400
C 	C 	0.55183 0.28200 0.91070 -0.28800
H 	H 	0.54420 0.32740 0.87970 0.14200
C 	C 	0.33040 0.97170 0.66090 -0.38400
H 	H 	0.33630 0.04530 0.64820 0.17700
C 	C 	0.41886 0.03500 0.73800 -0.36100
H 	H 	0.41670 0.07510 0.77100 0.16600
C 	C 	0.63849 0.72130 0.96560 -0.33300
H 	H 	0.61900 0.74310 0.95820 0.16200
C 	C 	0.66726 0.33040 0.73080 0.33900
C 	C 	0.64107 0.47610 0.87050 0.03100
H 	H 	0.65770 0.50480 0.85420 0.03900
H 	H 	0.64750 0.41030 0.89570 0.04100
C 	C 	0.67820 0.15980 0.67800 0.18300
H 	H 	0.67450 0.07980 0.66830 -0.02300
C 	C 	0.53415 0.24000 0.94770 0.15700
H 	H 	0.51430 0.25650 0.93980 -0.03100
C 	C 	0.31330 0.75430 0.69460 0.24000
H 	H 	0.30810 0.67850 0.70590 -0.03300
C 	C 	0.53806 0.59960 0.62230 0.16000
H 	H 	0.52510 0.56660 0.59320 -0.02500
C 	C 	0.60603 0.53680 0.78710 0.02600
H 	H 	0.62220 0.57570 0.77300 0.04300
H 	H 	0.59670 0.59540 0.80840 0.03900
C 	C 	0.46681 0.72910 0.50090 0.33700
N 	N 	0.68553 0.76000 0.01620 -0.27600
C 	C 	0.65702 0.78290 0.00490 0.18800
H 	H 	0.64940 0.84380 0.02480 -0.02800
C 	C 	0.57243 0.14850 0.00250 0.16600
H 	H 	0.57960 0.10230 0.03360 -0.05000
C 	C 	0.47716 0.97260 0.64680 0.41000
C 	C 	0.68780 0.39080 0.70610 -0.29900
H 	H 	0.69190 0.47110 0.71450 0.16000
C 	C 	0.66284 0.21000 0.71820 -0.31400
H 	H 	0.65010 0.16390 0.73580 0.15700
C 	C 	0.67788 0.60190 0.94890 -0.33100
H 	H 	0.68580 0.53970 0.93030 0.15100
C 	C 	0.70220 0.33030 0.66880 0.17900
H 	H 	0.71630 0.37200 0.65310 -0.03500
C 	C 	0.69497 0.66900 0.98820 0.18400
H 	H 	0.71460 0.64950 0.99590 -0.05700
C 	C 	0.26939 0.74910 0.62270 0.36800
C 	C 	0.40910 0.49700 0.45290 -0.08100
H 	H 	0.40510 0.41680 0.46020 0.04500
C 	C 	0.39460 0.55600 0.40800 0.12100
C 	C 	0.40120 0.66760 0.39110 -0.07800
H 	H 	0.39180 0.69900 0.35760 0.07200
C 	C 	0.30710 0.12380 0.44170 -0.10400
C 	C 	0.32440 0.22010 0.42580 -0.34900
C 	C 	0.34200 0.19940 0.38520 0.25700
H 	H 	0.34280 0.12350 0.36930 -0.08000
C 	C 	0.35860 0.29270 0.36860 -0.34400
H 	H 	0.37080 0.27970 0.34190 0.14600
C 	C 	0.35680 0.40470 0.39190 0.19200
C 	C 	0.33980 0.42570 0.43300 0.04800
H 	H 	0.33910 0.50160 0.44900 0.05400
C 	C 	0.32360 0.33150 0.45030 0.08100
H 	H 	0.31220 0.34370 0.47840 0.01200
O 	O 	0.37200 0.50020 0.37260 -0.18600
O 	O 	0.30560 0.02210 0.41140 -0.52700
O 	O 	0.29230 0.13390 0.48680 -0.12900
C 	C 	0.40090 0.52800 0.46490 -0.09700
H 	H 	0.39280 0.46030 0.47940 0.06800
C 	C 	0.38500 0.59100 0.42300 0.08600
C 	C 	0.39390 0.69800 0.40720 -0.10100
H 	H 	0.38100 0.74800 0.38460 0.06600
C 	C 	0.31350 0.09980 0.40980 0.72100
C 	C 	0.32460 0.21640 0.40580 0.03900
C 	C 	0.35240 0.23140 0.39360 -0.11500
H 	H 	0.36350 0.16490 0.38650 0.04600
C 	C 	0.36390 0.34540 0.39200 0.14000
H 	H 	0.38280 0.35610 0.38430 0.00600
C 	C 	0.34720 0.44380 0.40200 -0.10800
C 	C 	0.31950 0.42960 0.41600 -0.18800
H 	H 	0.30900 0.49610 0.42510 0.09500
C 	C 	0.30780 0.31640 0.41620 0.10300
H 	H 	0.28880 0.30610 0.42320 0.01600
O 	O 	0.35770 0.55950 0.39610 -0.11900
O 	O 	0.28460 0.07600 0.40440 -0.19600
O 	O 	0.33030 0.00060 0.42180 -0.19400
Cd	Cd	0.98699 0.33966 0.93905 1.20400
Cd	Cd	0.28189 0.13406 0.92035 1.23000
O 	O 	0.12927 0.47220 0.76580 -0.35200
O 	O 	0.89923 0.79240 0.61070 -0.25300
O 	O 	0.00358 0.54400 0.83530 -0.30800
C 	C 	0.07761 0.23510 0.07510 0.07800
O 	O 	0.87033 0.07040 0.59950 -0.27500
O 	O 	0.01787 0.16980 0.96300 -0.37400
O 	O 	0.84644 0.89080 0.73390 -0.26700
O 	O 	0.02673 0.33520 0.01210 -0.40900
O 	O 	0.91433 0.99220 0.75830 -0.25600
C 	C 	0.06177 0.17440 0.02980 -0.13100
O 	O 	0.23715 0.14530 0.86150 -0.39000
C 	C 	0.15400 0.41550 0.79580 0.37800
N 	N 	0.95895 0.21800 0.87620 -0.27800
C 	C 	0.20362 0.30700 0.84870 -0.26800
C 	C 	0.90917 0.68380 0.53180 -0.29800
H 	H 	0.88970 0.66110 0.52450 0.15000
C 	C 	0.19510 0.41560 0.86450 0.24300
H 	H 	0.20670 0.45500 0.89370 -0.03700
C 	C 	0.10384 0.47170 0.79040 0.37200
C 	C 	0.05162 0.47720 0.83030 -0.24500
C 	C 	0.10143 0.41130 0.83790 -0.38200
H 	H 	0.11720 0.36990 0.85710 0.17200
C 	C 	0.05542 0.53860 0.78230 0.22900
H 	H 	0.04010 0.58330 0.76350 -0.02400
N 	N 	0.80274 0.71670 0.84650 -0.26200
C 	C 	0.93983 0.26180 0.83390 0.16400
H 	H 	0.93720 0.34460 0.83230 -0.05000
C 	C 	0.06948 0.06240 0.01220 0.08900
N 	N 	0.95653 0.67750 0.50620 -0.28100
O 	O 	0.24676 0.30350 0.91580 -0.39000
C 	C 	0.07508 0.41240 0.85710 0.23500
H 	H 	0.07290 0.36850 0.88900 -0.03400
C 	C 	0.86898 0.83500 0.70920 0.03600
H 	H 	0.88340 0.80080 0.73800 0.03800
H 	H 	0.86100 0.77090 0.68430 0.03400
C 	C 	0.94711 0.02170 0.83880 -0.29000
H 	H 	0.94990 0.93910 0.84190 0.14900
C 	C 	0.85146 0.12870 0.56250 0.34500
O 	O 	0.02108 0.39220 0.88880 -0.44000
C 	C 	0.92818 0.06980 0.79560 0.30900
C 	C 	0.16170 0.30720 0.77690 -0.37300
H 	H 	0.15080 0.27000 0.74630 0.16900
C 	C 	0.92399 0.19440 0.79310 -0.29800
H 	H 	0.91100 0.22970 0.76480 0.14000
C 	C 	0.90927 0.88170 0.65210 0.01700
H 	H 	0.92290 0.84590 0.68180 0.04300
H 	H 	0.91920 0.94570 0.63520 0.04400
C 	C 	0.91892 0.75450 0.57870 0.30200
C 	C 	0.88307 0.93250 0.67600 0.00400
C 	C 	0.94817 0.78200 0.58930 -0.28700
H 	H 	0.95580 0.82740 0.62030 0.14200
C 	C 	0.16960 0.47170 0.83910 -0.38400
H 	H 	0.16370 0.54530 0.85180 0.17700
C 	C 	0.08114 0.53500 0.76200 -0.36000
H 	H 	0.08330 0.57510 0.72900 0.16600
C 	C 	0.86151 0.22130 0.53440 -0.33400
H 	H 	0.88100 0.24310 0.54180 0.16200
C 	C 	0.83274 0.83040 0.76920 0.33900
C 	C 	0.85893 0.97610 0.62950 0.03200
H 	H 	0.84230 0.00480 0.64580 0.03800
H 	H 	0.85250 0.91030 0.60430 0.04100
C 	C 	0.82180 0.65980 0.82200 0.18300
H 	H 	0.82550 0.57980 0.83170 -0.02300
C 	C 	0.96585 0.74000 0.55230 0.15700
H 	H 	0.98570 0.75650 0.56020 -0.03100
C 	C 	0.18670 0.25430 0.80540 0.24000
H 	H 	0.19190 0.17850 0.79410 -0.03300
C 	C 	0.96194 0.09960 0.87770 0.16000
H 	H 	0.97490 0.06660 0.90680 -0.02500
C 	C 	0.89397 0.03680 0.71290 0.02500
H 	H 	0.87780 0.07570 0.72700 0.04400
H 	H 	0.90330 0.09540 0.69160 0.03900
C 	C 	0.03319 0.22910 0.99910 0.33700
N 	N 	0.81447 0.26000 0.48380 -0.27600
C 	C 	0.84298 0.28290 0.49510 0.18800
H 	H 	0.85060 0.34380 0.47520 -0.02800
C 	C 	0.92757 0.64850 0.49750 0.16500
H 	H 	0.92040 0.60230 0.46640 -0.05000
C 	C 	0.02284 0.47260 0.85320 0.41000
C 	C 	0.81220 0.89080 0.79390 -0.29900
H 	H 	0.80810 0.97110 0.78550 0.16000
C 	C 	0.83716 0.71000 0.78180 -0.31400
H 	H 	0.84990 0.66390 0.76420 0.15700
C 	C 	0.82212 0.10190 0.55110 -0.33100
H 	H 	0.81420 0.03970 0.56970 0.15100
C 	C 	0.79780 0.83030 0.83120 0.17900
H 	H 	0.78370 0.87200 0.84690 -0.03500
C 	C 	0.80503 0.16900 0.51180 0.18400
H 	H 	0.78540 0.14950 0.50410 -0.05700
C 	C 	0.23061 0.24910 0.87730 0.36800
C 	C 	0.09090 0.99700 0.04710 -0.08000
H 	H 	0.09490 0.91680 0.03980 0.04400
C 	C 	0.10540 0.05600 0.09200 0.12000
C 	C 	0.09880 0.16760 0.10890 -0.08000
H 	H 	0.10820 0.19900 0.14240 0.07200
C 	C 	0.19290 0.62380 0.05830 -0.10400
C 	C 	0.17560 0.72010 0.07420 -0.34900
C 	C 	0.15800 0.69940 0.11480 0.25600
H 	H 	0.15720 0.62350 0.13070 -0.08000
C 	C 	0.14140 0.79270 0.13140 -0.34300
H 	H 	0.12920 0.77970 0.15810 0.14500
C 	C 	0.14320 0.90470 0.10810 0.19100
C 	C 	0.16020 0.92570 0.06700 0.04800
H 	H 	0.16090 0.00160 0.05100 0.05400
C 	C 	0.17640 0.83150 0.04970 0.08100
H 	H 	0.18780 0.84370 0.02160 0.01200
O 	O 	0.12800 0.00020 0.12740 -0.18500
O 	O 	0.19440 0.52210 0.08860 -0.52800
O 	O 	0.20770 0.63390 0.01320 -0.12900
C 	C 	0.09910 0.02800 0.03510 -0.09800
H 	H 	0.10720 0.96030 0.02060 0.06900
C 	C 	0.11500 0.09100 0.07700 0.08800
C 	C 	0.10610 0.19800 0.09280 -0.10000
H 	H 	0.11900 0.24800 0.11540 0.06600
C 	C 	0.18650 0.59980 0.09020 0.72100
C 	C 	0.17540 0.71640 0.09420 0.03900
C 	C 	0.14760 0.73140 0.10640 -0.11500
H 	H 	0.13650 0.66490 0.11350 0.04600
C 	C 	0.13610 0.84540 0.10800 0.14000
H 	H 	0.11720 0.85610 0.11570 0.00600
C 	C 	0.15280 0.94380 0.09800 -0.10800
C 	C 	0.18050 0.92960 0.08400 -0.18900
H 	H 	0.19100 0.99610 0.07490 0.09600
C 	C 	0.19220 0.81640 0.08380 0.10400
H 	H 	0.21120 0.80610 0.07680 0.01600
O 	O 	0.14230 0.05950 0.10390 -0.11900
O 	O 	0.21540 0.57600 0.09560 -0.19600
O 	O 	0.16970 0.50060 0.07820 -0.19400
Cd	Cd	0.48699 0.83966 0.93905 1.20400
Cd	Cd	0.78189 0.63406 0.92035 1.23000
O 	O 	0.62927 0.97220 0.76580 -0.35200
O 	O 	0.39923 0.29240 0.61070 -0.25300
O 	O 	0.50358 0.04400 0.83530 -0.30900
C 	C 	0.57761 0.73510 0.07510 0.07800
O 	O 	0.37033 0.57040 0.59950 -0.27400
O 	O 	0.51787 0.66980 0.96300 -0.37400
O 	O 	0.34644 0.39080 0.73390 -0.26700
O 	O 	0.52673 0.83520 0.01210 -0.41000
O 	O 	0.41433 0.49220 0.75830 -0.25600
C 	C 	0.56177 0.67440 0.02980 -0.13200
O 	O 	0.73715 0.64530 0.86150 -0.39000
C 	C 	0.65400 0.91550 0.79580 0.37700
N 	N 	0.45895 0.71800 0.87620 -0.27800
C 	C 	0.70362 0.80700 0.84870 -0.26800
C 	C 	0.40917 0.18380 0.53180 -0.29800
H 	H 	0.38970 0.16110 0.52450 0.15000
C 	C 	0.69510 0.91560 0.86450 0.24200
H 	H 	0.70670 0.95500 0.89370 -0.03700
C 	C 	0.60384 0.97170 0.79040 0.37200
C 	C 	0.55162 0.97720 0.83030 -0.24500
C 	C 	0.60143 0.91130 0.83790 -0.38200
H 	H 	0.61720 0.86990 0.85710 0.17200
C 	C 	0.55542 0.03860 0.78230 0.22900
H 	H 	0.54010 0.08330 0.76350 -0.02400
N 	N 	0.30274 0.21670 0.84650 -0.26200
C 	C 	0.43983 0.76180 0.83390 0.16400
H 	H 	0.43720 0.84460 0.83230 -0.05000
C 	C 	0.56948 0.56240 0.01220 0.08900
N 	N 	0.45653 0.17750 0.50620 -0.28100
O 	O 	0.74676 0.80350 0.91580 -0.39000
C 	C 	0.57508 0.91240 0.85710 0.23500
H 	H 	0.57290 0.86850 0.88900 -0.03400
C 	C 	0.36898 0.33500 0.70920 0.03600
H 	H 	0.38340 0.30080 0.73800 0.03800
H 	H 	0.36100 0.27090 0.68430 0.03400
C 	C 	0.44711 0.52170 0.83880 -0.28900
H 	H 	0.44990 0.43910 0.84190 0.14800
C 	C 	0.35146 0.62870 0.56250 0.34500
O 	O 	0.52108 0.89220 0.88880 -0.44000
C 	C 	0.42818 0.56980 0.79560 0.30900
C 	C 	0.66170 0.80720 0.77690 -0.37200
H 	H 	0.65080 0.77000 0.74630 0.16900
C 	C 	0.42399 0.69440 0.79310 -0.29800
H 	H 	0.41100 0.72970 0.76480 0.14000
C 	C 	0.40927 0.38170 0.65210 0.01800
H 	H 	0.42290 0.34590 0.68180 0.04300
H 	H 	0.41920 0.44570 0.63520 0.04400
C 	C 	0.41892 0.25450 0.57870 0.30200
C 	C 	0.38307 0.43250 0.67600 0.00400
C 	C 	0.44817 0.28200 0.58930 -0.28700
H 	H 	0.45580 0.32740 0.62030 0.14200
C 	C 	0.66960 0.97170 0.83910 -0.38300
H 	H 	0.66370 0.04530 0.85180 0.17600
C 	C 	0.58114 0.03500 0.76200 -0.36100
H 	H 	0.58330 0.07510 0.72900 0.16600
C 	C 	0.36151 0.72130 0.53440 -0.33400
H 	H 	0.38100 0.74310 0.54180 0.16200
C 	C 	0.33274 0.33040 0.76920 0.33900
C 	C 	0.35893 0.47610 0.62950 0.03000
H 	H 	0.34230 0.50480 0.64580 0.03900
H 	H 	0.35250 0.41030 0.60430 0.04100
C 	C 	0.32180 0.15980 0.82200 0.18300
H 	H 	0.32550 0.07980 0.83170 -0.02300
C 	C 	0.46585 0.24000 0.55230 0.15700
H 	H 	0.48570 0.25650 0.56020 -0.03100
C 	C 	0.68670 0.75430 0.80540 0.24000
H 	H 	0.69190 0.67850 0.79410 -0.03200
C 	C 	0.46194 0.59960 0.87770 0.16000
H 	H 	0.47490 0.56660 0.90680 -0.02500
C 	C 	0.39397 0.53680 0.71290 0.02600
H 	H 	0.37780 0.57570 0.72700 0.04300
H 	H 	0.40330 0.59540 0.69160 0.03900
C 	C 	0.53319 0.72910 0.99910 0.33800
N 	N 	0.31447 0.76000 0.48380 -0.27600
C 	C 	0.34298 0.78290 0.49510 0.18800
H 	H 	0.35060 0.84380 0.47520 -0.02800
C 	C 	0.42757 0.14850 0.49750 0.16500
H 	H 	0.42040 0.10230 0.46640 -0.05000
C 	C 	0.52284 0.97260 0.85320 0.41000
C 	C 	0.31220 0.39080 0.79390 -0.29900
H 	H 	0.30810 0.47110 0.78550 0.16000
C 	C 	0.33716 0.21000 0.78180 -0.31400
H 	H 	0.34990 0.16390 0.76420 0.15700
C 	C 	0.32212 0.60190 0.55110 -0.33100
H 	H 	0.31420 0.53970 0.56970 0.15100
C 	C 	0.29780 0.33030 0.83120 0.17900
H 	H 	0.28370 0.37200 0.84690 -0.03500
C 	C 	0.30503 0.66900 0.51180 0.18400
H 	H 	0.28540 0.64950 0.50410 -0.05700
C 	C 	0.73061 0.74910 0.87730 0.36800
C 	C 	0.59090 0.49700 0.04710 -0.08100
H 	H 	0.59490 0.41680 0.03980 0.04500
C 	C 	0.60540 0.55600 0.09200 0.12100
C 	C 	0.59880 0.66760 0.10890 -0.07800
H 	H 	0.60820 0.69900 0.14240 0.07200
C 	C 	0.69290 0.12380 0.05830 -0.10400
C 	C 	0.67560 0.22010 0.07420 -0.34800
C 	C 	0.65800 0.19940 0.11480 0.25700
H 	H 	0.65720 0.12350 0.13070 -0.08000
C 	C 	0.64140 0.29270 0.13140 -0.34400
H 	H 	0.62920 0.27970 0.15810 0.14500
C 	C 	0.64320 0.40470 0.10810 0.19100
C 	C 	0.66020 0.42570 0.06700 0.04800
H 	H 	0.66090 0.50160 0.05100 0.05400
C 	C 	0.67640 0.33150 0.04970 0.08100
H 	H 	0.68780 0.34370 0.02160 0.01200
O 	O 	0.62800 0.50020 0.12740 -0.18600
O 	O 	0.69440 0.02210 0.08860 -0.52700
O 	O 	0.70770 0.13390 0.01320 -0.12800
C 	C 	0.59910 0.52800 0.03510 -0.09700
H 	H 	0.60720 0.46030 0.02060 0.06800
C 	C 	0.61500 0.59100 0.07700 0.08600
C 	C 	0.60610 0.69800 0.09280 -0.10100
H 	H 	0.61900 0.74800 0.11540 0.06600
C 	C 	0.68650 0.09980 0.09020 0.72100
C 	C 	0.67540 0.21640 0.09420 0.03900
C 	C 	0.64760 0.23140 0.10640 -0.11500
H 	H 	0.63650 0.16490 0.11350 0.04600
C 	C 	0.63610 0.34540 0.10800 0.14000
H 	H 	0.61720 0.35610 0.11570 0.00600
C 	C 	0.65280 0.44380 0.09800 -0.10800
C 	C 	0.68050 0.42960 0.08400 -0.18800
H 	H 	0.69100 0.49610 0.07490 0.09500
C 	C 	0.69220 0.31640 0.08380 0.10300
H 	H 	0.71120 0.30610 0.07680 0.01600
O 	O 	0.64230 0.55950 0.10390 -0.11900
O 	O 	0.71540 0.07600 0.09560 -0.19600
O 	O 	0.66970 0.00060 0.07820 -0.19400
