data_crystal

_cell_length_a 47.02000
_cell_length_b 10.77000
_cell_length_c 23.78000
_cell_angle_alpha 90.00000
_cell_angle_beta  94.87000
_cell_angle_gamma 90.00000

_symmetry_space_group_name_	'P 1'
_symmetry_space_group_name_H-M	'P 1'

loop_
_symmetry_equiv_pos_as_xyz
  x,y,z

loop_
_atom_site_label
_atom_site_type_symbol
_atom_site_fract_x
_atom_site_fract_y
_atom_site_fract_z
_atom_site_charge
Co	Co	0.78453 0.34792 0.42515 1.13700
Co	Co	0.49162 0.16544 0.43025 1.13400
O 	O 	0.75190 0.20210 0.41890 -0.39600
O 	O 	0.98184 0.18490 0.54310 -0.39000
O 	O 	0.52262 0.12740 0.37690 -0.40700
O 	O 	0.91870 0.00040 0.75720 -0.24400
O 	O 	0.51211 0.94390 0.33600 -0.28200
O 	O 	0.90361 0.79450 0.60810 -0.23200
O 	O 	0.87741 0.99720 0.37730 -0.31500
O 	O 	0.74668 0.36640 0.36450 -0.38000
O 	O 	0.85324 0.90940 0.74240 -0.24700
N 	N 	0.80606 0.73310 0.85830 -0.25900
O 	O 	0.87379 0.08560 0.59980 -0.24300
O 	O 	0.80834 0.50580 0.41820 -0.43300
O 	O 	0.63826 0.05690 0.26060 -0.31000
N 	N 	0.96259 0.68890 0.49510 -0.26800
O 	O 	0.97147 0.36010 0.50020 -0.38900
C 	C 	0.66182 0.10680 0.29250 0.28900
C 	C 	0.86233 0.23280 0.52930 -0.26000
H 	H 	0.88120 0.25950 0.53250 0.13500
O 	O 	0.79940 0.60960 0.49620 -0.29500
C 	C 	0.82497 0.10410 0.55680 -0.27000
H 	H 	0.81830 0.04040 0.57850 0.13000
C 	C 	0.91191 0.00200 0.45930 -0.30000
H 	H 	0.90720 0.92160 0.46930 0.14600
C 	C 	0.67610 0.04370 0.33620 -0.26900
H 	H 	0.66950 0.96650 0.34680 0.13700
N 	N 	0.96597 0.22850 0.87110 -0.27700
C 	C 	0.88743 0.94250 0.67630 0.03400
C 	C 	0.52855 0.03220 0.34730 0.35100
N 	N 	0.81458 0.25840 0.48430 -0.26600
C 	C 	0.89752 0.05900 0.41330 0.31600
C 	C 	0.67210 0.22170 0.27690 -0.26800
H 	H 	0.66250 0.26550 0.24740 0.13700
C 	C 	0.90351 0.17940 0.39910 -0.29600
H 	H 	0.89350 0.21750 0.36840 0.14900
C 	C 	0.91490 0.68280 0.52730 -0.24700
H 	H 	0.89620 0.65370 0.52200 0.13000
C 	C 	0.82350 0.66780 0.82630 0.16300
H 	H 	0.82480 0.58240 0.83180 -0.01400
C 	C 	0.89941 0.05240 0.71270 0.00100
H 	H 	0.90950 0.10970 0.69000 0.04600
H 	H 	0.88400 0.09680 0.72860 0.05200
C 	C 	0.85338 0.13590 0.56330 0.27300
C 	C 	0.93361 0.07990 0.79310 0.30600
C 	C 	0.70090 0.09490 0.36520 0.13800
H 	H 	0.71030 0.05200 0.39520 0.00100
C 	C 	0.55843 0.03540 0.32570 -0.16700
C 	C 	0.93520 0.65380 0.48980 0.13500
H 	H 	0.92920 0.60610 0.45840 -0.03500
C 	C 	0.59100 0.97700 0.25770 -0.26100
H 	H 	0.59470 0.93400 0.22520 0.12800
C 	C 	0.93259 0.20740 0.78830 -0.29500
H 	H 	0.92140 0.24620 0.75940 0.14400
C 	C 	0.96548 0.24740 0.50870 0.35400
C 	C 	0.73765 0.26290 0.37980 0.32100
C 	C 	0.84237 0.28770 0.49070 0.14200
H 	H 	0.84880 0.34950 0.46760 -0.02400
C 	C 	0.86339 0.98500 0.63340 -0.01200
H 	H 	0.85710 0.91630 0.60900 0.05400
H 	H 	0.84730 0.01330 0.65280 0.05200
C 	C 	0.86280 0.89700 0.39860 0.33900
C 	C 	0.94906 0.27550 0.82870 0.16600
H 	H 	0.94820 0.36160 0.82580 -0.04400
C 	C 	0.83010 0.81650 0.46050 0.18500
H 	H 	0.81920 0.82830 0.49090 -0.01800
C 	C 	0.83925 0.71910 0.78680 -0.29800
H 	H 	0.85070 0.66980 0.76590 0.14900
C 	C 	0.84640 0.91310 0.44200 -0.33000
H 	H 	0.84590 0.99010 0.45960 0.15700
C 	C 	0.93354 0.06590 0.49040 0.16600
H 	H 	0.94330 0.02750 0.52140 -0.00700
C 	C 	0.92419 0.75860 0.57380 0.25900
C 	C 	0.56397 0.96870 0.27790 0.13100
H 	H 	0.54990 0.91910 0.25950 0.00300
C 	C 	0.60688 0.11210 0.33450 -0.27700
H 	H 	0.62120 0.15760 0.35430 0.13900
C 	C 	0.57997 0.10610 0.35270 0.14700
H 	H 	0.57610 0.15150 0.38440 -0.00300
C 	C 	0.83010 0.70060 0.43330 -0.21200
C 	C 	0.92478 0.24310 0.43140 0.16400
H 	H 	0.92830 0.32570 0.42290 -0.02200
C 	C 	0.94099 0.18680 0.47610 -0.20100
C 	C 	0.80460 0.85410 0.84800 0.16200
H 	H 	0.79260 0.90160 0.86860 -0.02600
C 	C 	0.87441 0.84570 0.71220 0.00100
H 	H 	0.86550 0.78050 0.68870 0.04300
H 	H 	0.88890 0.80890 0.73850 0.05100
C 	C 	0.80598 0.16630 0.51780 0.13600
H 	H 	0.78680 0.14360 0.51480 -0.03700
C 	C 	0.61212 0.04790 0.28520 0.27600
C 	C 	0.91320 0.88980 0.64890 -0.01500
H 	H 	0.92280 0.95580 0.63020 0.05400
H 	H 	0.92670 0.85430 0.67770 0.05400
C 	C 	0.95100 0.02800 0.83570 -0.28200
H 	H 	0.95240 0.94210 0.83900 0.14700
C 	C 	0.86360 0.78460 0.37230 -0.32900
H 	H 	0.87520 0.77350 0.34290 0.15900
C 	C 	0.95297 0.79190 0.58170 -0.25800
H 	H 	0.95990 0.83740 0.61310 0.13300
C 	C 	0.81960 0.91380 0.80880 -0.27600
H 	H 	0.81740 0.99870 0.80290 0.14600
C 	C 	0.71110 0.20760 0.34910 -0.17000
C 	C 	0.84731 0.68780 0.38930 0.19000
H 	H 	0.84790 0.61190 0.37080 -0.01800
C 	C 	0.83794 0.84560 0.77850 0.30700
C 	C 	0.69636 0.27140 0.30470 0.14400
H 	H 	0.70300 0.34830 0.29380 -0.00100
C 	C 	0.81090 0.59850 0.45100 0.37600
C 	C 	0.97050 0.75560 0.54190 0.14500
H 	H 	0.98960 0.77880 0.54750 -0.02000
C 	C 	0.96640 0.10430 0.87400 0.15700
H 	H 	0.97770 0.06730 0.90340 -0.02200
Co	Co	0.28453 0.84792 0.42515 1.13600
Co	Co	0.99162 0.66544 0.43025 1.13300
O 	O 	0.25190 0.70210 0.41890 -0.39700
O 	O 	0.48184 0.68490 0.54310 -0.39100
O 	O 	0.02262 0.62740 0.37690 -0.40800
O 	O 	0.41870 0.50040 0.75720 -0.24500
O 	O 	0.01211 0.44390 0.33600 -0.28200
O 	O 	0.40361 0.29450 0.60810 -0.23200
O 	O 	0.37741 0.49720 0.37730 -0.31500
O 	O 	0.24668 0.86640 0.36450 -0.38000
O 	O 	0.35324 0.40940 0.74240 -0.24700
N 	N 	0.30606 0.23310 0.85830 -0.25900
O 	O 	0.37379 0.58560 0.59980 -0.24300
O 	O 	0.30834 0.00580 0.41820 -0.43300
O 	O 	0.13826 0.55690 0.26060 -0.31000
N 	N 	0.46259 0.18890 0.49510 -0.26800
O 	O 	0.47147 0.86010 0.50020 -0.38900
C 	C 	0.16182 0.60680 0.29250 0.28900
C 	C 	0.36233 0.73280 0.52930 -0.26000
H 	H 	0.38120 0.75950 0.53250 0.13500
O 	O 	0.29940 0.10960 0.49620 -0.29500
C 	C 	0.32497 0.60410 0.55680 -0.27000
H 	H 	0.31830 0.54040 0.57850 0.13000
C 	C 	0.41191 0.50200 0.45930 -0.29900
H 	H 	0.40720 0.42160 0.46930 0.14600
C 	C 	0.17610 0.54370 0.33620 -0.26900
H 	H 	0.16950 0.46650 0.34680 0.13700
N 	N 	0.46597 0.72850 0.87110 -0.27700
C 	C 	0.38743 0.44250 0.67630 0.03400
C 	C 	0.02855 0.53220 0.34730 0.35100
N 	N 	0.31458 0.75840 0.48430 -0.26600
C 	C 	0.39752 0.55900 0.41330 0.31600
C 	C 	0.17210 0.72170 0.27690 -0.26800
H 	H 	0.16250 0.76550 0.24740 0.13700
C 	C 	0.40351 0.67940 0.39910 -0.29600
H 	H 	0.39350 0.71750 0.36840 0.14900
C 	C 	0.41490 0.18280 0.52730 -0.24700
H 	H 	0.39620 0.15370 0.52200 0.13000
C 	C 	0.32350 0.16780 0.82630 0.16400
H 	H 	0.32480 0.08240 0.83180 -0.01400
C 	C 	0.39941 0.55240 0.71270 0.00100
H 	H 	0.40950 0.60970 0.69000 0.04600
H 	H 	0.38400 0.59680 0.72860 0.05200
C 	C 	0.35338 0.63590 0.56330 0.27300
C 	C 	0.43361 0.57990 0.79310 0.30700
C 	C 	0.20090 0.59490 0.36520 0.13800
H 	H 	0.21030 0.55200 0.39520 0.00100
C 	C 	0.05843 0.53540 0.32570 -0.16700
C 	C 	0.43520 0.15380 0.48980 0.13500
H 	H 	0.42920 0.10610 0.45840 -0.03500
C 	C 	0.09100 0.47700 0.25770 -0.26200
H 	H 	0.09470 0.43400 0.22520 0.12800
C 	C 	0.43259 0.70740 0.78830 -0.29500
H 	H 	0.42140 0.74620 0.75940 0.14400
C 	C 	0.46548 0.74740 0.50870 0.35400
C 	C 	0.23765 0.76290 0.37980 0.32100
C 	C 	0.34237 0.78770 0.49070 0.14300
H 	H 	0.34880 0.84950 0.46760 -0.02400
C 	C 	0.36339 0.48500 0.63340 -0.01200
H 	H 	0.35710 0.41630 0.60900 0.05400
H 	H 	0.34730 0.51330 0.65280 0.05100
C 	C 	0.36280 0.39700 0.39860 0.33900
C 	C 	0.44906 0.77550 0.82870 0.16600
H 	H 	0.44820 0.86160 0.82580 -0.04400
C 	C 	0.33010 0.31650 0.46050 0.18500
H 	H 	0.31920 0.32830 0.49090 -0.01800
C 	C 	0.33925 0.21910 0.78680 -0.29800
H 	H 	0.35070 0.16980 0.76590 0.14900
C 	C 	0.34640 0.41310 0.44200 -0.33000
H 	H 	0.34590 0.49010 0.45960 0.15700
C 	C 	0.43354 0.56590 0.49040 0.16600
H 	H 	0.44330 0.52750 0.52140 -0.00700
C 	C 	0.42419 0.25860 0.57380 0.25900
C 	C 	0.06397 0.46870 0.27790 0.13100
H 	H 	0.04990 0.41910 0.25950 0.00300
C 	C 	0.10688 0.61210 0.33450 -0.27700
H 	H 	0.12120 0.65760 0.35430 0.13900
C 	C 	0.07997 0.60610 0.35270 0.14700
H 	H 	0.07610 0.65150 0.38440 -0.00300
C 	C 	0.33010 0.20060 0.43330 -0.21200
C 	C 	0.42478 0.74310 0.43140 0.16400
H 	H 	0.42830 0.82570 0.42290 -0.02200
C 	C 	0.44099 0.68680 0.47610 -0.20000
C 	C 	0.30460 0.35410 0.84800 0.16200
H 	H 	0.29260 0.40160 0.86860 -0.02600
C 	C 	0.37441 0.34570 0.71220 0.00100
H 	H 	0.36550 0.28050 0.68870 0.04300
H 	H 	0.38890 0.30890 0.73850 0.05100
C 	C 	0.30598 0.66630 0.51780 0.13700
H 	H 	0.28680 0.64360 0.51480 -0.03700
C 	C 	0.11212 0.54790 0.28520 0.27600
C 	C 	0.41320 0.38980 0.64890 -0.01500
H 	H 	0.42280 0.45580 0.63020 0.05400
H 	H 	0.42670 0.35430 0.67770 0.05400
C 	C 	0.45100 0.52800 0.83570 -0.28200
H 	H 	0.45240 0.44210 0.83900 0.14800
C 	C 	0.36360 0.28460 0.37230 -0.32900
H 	H 	0.37520 0.27350 0.34290 0.15900
C 	C 	0.45297 0.29190 0.58170 -0.25800
H 	H 	0.45990 0.33740 0.61310 0.13300
C 	C 	0.31960 0.41380 0.80880 -0.27600
H 	H 	0.31740 0.49870 0.80290 0.14600
C 	C 	0.21110 0.70760 0.34910 -0.17000
C 	C 	0.34731 0.18780 0.38930 0.19000
H 	H 	0.34790 0.11190 0.37080 -0.01800
C 	C 	0.33794 0.34560 0.77850 0.30700
C 	C 	0.19636 0.77140 0.30470 0.14300
H 	H 	0.20300 0.84830 0.29380 -0.00100
C 	C 	0.31090 0.09850 0.45100 0.37600
C 	C 	0.47050 0.25560 0.54190 0.14500
H 	H 	0.48960 0.27880 0.54750 -0.02000
C 	C 	0.46640 0.60430 0.87400 0.15700
H 	H 	0.47770 0.56730 0.90340 -0.02200
Co	Co	0.21547 0.34792 0.07485 1.13600
Co	Co	0.50838 0.16544 0.06975 1.13300
O 	O 	0.24810 0.20210 0.08110 -0.39700
O 	O 	0.01816 0.18490 0.95690 -0.39100
O 	O 	0.47738 0.12740 0.12310 -0.40800
O 	O 	0.08130 0.00040 0.74280 -0.24500
O 	O 	0.48789 0.94390 0.16400 -0.28200
O 	O 	0.09639 0.79450 0.89190 -0.23200
O 	O 	0.12259 0.99720 0.12270 -0.31500
O 	O 	0.25332 0.36640 0.13550 -0.38000
O 	O 	0.14676 0.90940 0.75760 -0.24700
N 	N 	0.19394 0.73310 0.64170 -0.25900
O 	O 	0.12621 0.08560 0.90020 -0.24300
O 	O 	0.19166 0.50580 0.08180 -0.43300
O 	O 	0.36174 0.05690 0.23940 -0.31000
N 	N 	0.03741 0.68890 0.00490 -0.26900
O 	O 	0.02853 0.36010 0.99980 -0.38900
C 	C 	0.33818 0.10680 0.20750 0.28900
C 	C 	0.13767 0.23280 0.97070 -0.26000
H 	H 	0.11880 0.25950 0.96750 0.13500
O 	O 	0.20060 0.60960 0.00380 -0.29500
C 	C 	0.17503 0.10410 0.94320 -0.27000
H 	H 	0.18170 0.04040 0.92150 0.13000
C 	C 	0.08809 0.00200 0.04070 -0.30000
H 	H 	0.09280 0.92160 0.03070 0.14600
C 	C 	0.32390 0.04370 0.16380 -0.26900
H 	H 	0.33050 0.96650 0.15320 0.13700
N 	N 	0.03403 0.22850 0.62890 -0.27700
C 	C 	0.11257 0.94250 0.82370 0.03400
C 	C 	0.47145 0.03220 0.15270 0.35100
N 	N 	0.18542 0.25840 0.01570 -0.26600
C 	C 	0.10248 0.05900 0.08670 0.31600
C 	C 	0.32790 0.22170 0.22310 -0.26800
H 	H 	0.33750 0.26550 0.25260 0.13700
C 	C 	0.09649 0.17940 0.10090 -0.29600
H 	H 	0.10650 0.21750 0.13160 0.14900
C 	C 	0.08510 0.68280 0.97270 -0.24700
H 	H 	0.10380 0.65370 0.97800 0.13000
C 	C 	0.17650 0.66780 0.67370 0.16300
H 	H 	0.17520 0.58240 0.66820 -0.01400
C 	C 	0.10059 0.05240 0.78730 0.00100
H 	H 	0.09050 0.10970 0.81000 0.04600
H 	H 	0.11600 0.09680 0.77140 0.05200
C 	C 	0.14662 0.13590 0.93670 0.27300
C 	C 	0.06639 0.07990 0.70690 0.30600
C 	C 	0.29910 0.09490 0.13480 0.13800
H 	H 	0.28970 0.05200 0.10480 0.00100
C 	C 	0.44157 0.03540 0.17430 -0.16700
C 	C 	0.06480 0.65380 0.01020 0.13500
H 	H 	0.07080 0.60610 0.04160 -0.03500
C 	C 	0.40900 0.97700 0.24230 -0.26100
H 	H 	0.40530 0.93400 0.27480 0.12800
C 	C 	0.06741 0.20740 0.71170 -0.29500
H 	H 	0.07860 0.24620 0.74060 0.14400
C 	C 	0.03452 0.24740 0.99130 0.35400
C 	C 	0.26235 0.26290 0.12020 0.32100
C 	C 	0.15763 0.28770 0.00930 0.14200
H 	H 	0.15120 0.34950 0.03240 -0.02400
C 	C 	0.13661 0.98500 0.86660 -0.01200
H 	H 	0.14290 0.91630 0.89100 0.05400
H 	H 	0.15270 0.01330 0.84720 0.05200
C 	C 	0.13720 0.89700 0.10140 0.33900
C 	C 	0.05094 0.27550 0.67130 0.16600
H 	H 	0.05180 0.36160 0.67420 -0.04400
C 	C 	0.16990 0.81650 0.03950 0.18500
H 	H 	0.18080 0.82830 0.00910 -0.01800
C 	C 	0.16075 0.71910 0.71320 -0.29800
H 	H 	0.14930 0.66980 0.73410 0.14900
C 	C 	0.15360 0.91310 0.05800 -0.33000
H 	H 	0.15410 0.99010 0.04040 0.15700
C 	C 	0.06646 0.06590 0.00960 0.16600
H 	H 	0.05670 0.02750 0.97860 -0.00700
C 	C 	0.07581 0.75860 0.92620 0.25900
C 	C 	0.43603 0.96870 0.22210 0.13100
H 	H 	0.45010 0.91910 0.24050 0.00300
C 	C 	0.39312 0.11210 0.16550 -0.27700
H 	H 	0.37880 0.15760 0.14570 0.13900
C 	C 	0.42003 0.10610 0.14730 0.14700
H 	H 	0.42390 0.15150 0.11560 -0.00300
C 	C 	0.16990 0.70060 0.06670 -0.21200
C 	C 	0.07522 0.24310 0.06860 0.16400
H 	H 	0.07170 0.32570 0.07710 -0.02200
C 	C 	0.05901 0.18680 0.02390 -0.20100
C 	C 	0.19540 0.85410 0.65200 0.16200
H 	H 	0.20740 0.90160 0.63140 -0.02600
C 	C 	0.12559 0.84570 0.78780 0.00100
H 	H 	0.13450 0.78050 0.81130 0.04300
H 	H 	0.11110 0.80890 0.76150 0.05100
C 	C 	0.19402 0.16630 0.98220 0.13600
H 	H 	0.21320 0.14360 0.98520 -0.03700
C 	C 	0.38788 0.04790 0.21480 0.27600
C 	C 	0.08680 0.88980 0.85110 -0.01500
H 	H 	0.07720 0.95580 0.86980 0.05400
H 	H 	0.07330 0.85430 0.82230 0.05400
C 	C 	0.04900 0.02800 0.66430 -0.28200
H 	H 	0.04760 0.94210 0.66100 0.14700
C 	C 	0.13640 0.78460 0.12770 -0.32900
H 	H 	0.12480 0.77350 0.15710 0.15900
C 	C 	0.04703 0.79190 0.91830 -0.25800
H 	H 	0.04010 0.83740 0.88690 0.13300
C 	C 	0.18040 0.91380 0.69120 -0.27600
H 	H 	0.18260 0.99870 0.69710 0.14600
C 	C 	0.28890 0.20760 0.15090 -0.17000
C 	C 	0.15269 0.68780 0.11070 0.19000
H 	H 	0.15210 0.61190 0.12920 -0.01800
C 	C 	0.16206 0.84560 0.72150 0.30700
C 	C 	0.30364 0.27140 0.19530 0.14400
H 	H 	0.29700 0.34830 0.20620 -0.00100
C 	C 	0.18910 0.59850 0.04900 0.37600
C 	C 	0.02950 0.75560 0.95810 0.14500
H 	H 	0.01040 0.77880 0.95250 -0.02000
C 	C 	0.03360 0.10430 0.62600 0.15700
H 	H 	0.02230 0.06730 0.59660 -0.02200
Co	Co	0.71547 0.84792 0.07485 1.13600
Co	Co	0.00838 0.66544 0.06975 1.13300
O 	O 	0.74810 0.70210 0.08110 -0.39700
O 	O 	0.51816 0.68490 0.95690 -0.39100
O 	O 	0.97738 0.62740 0.12310 -0.40800
O 	O 	0.58130 0.50040 0.74280 -0.24500
O 	O 	0.98789 0.44390 0.16400 -0.28200
O 	O 	0.59639 0.29450 0.89190 -0.23200
O 	O 	0.62259 0.49720 0.12270 -0.31500
O 	O 	0.75332 0.86640 0.13550 -0.38000
O 	O 	0.64676 0.40940 0.75760 -0.24700
N 	N 	0.69394 0.23310 0.64170 -0.25900
O 	O 	0.62621 0.58560 0.90020 -0.24300
O 	O 	0.69166 0.00580 0.08180 -0.43300
O 	O 	0.86174 0.55690 0.23940 -0.31000
N 	N 	0.53741 0.18890 0.00490 -0.26800
O 	O 	0.52853 0.86010 0.99980 -0.38900
C 	C 	0.83818 0.60680 0.20750 0.28900
C 	C 	0.63767 0.73280 0.97070 -0.26000
H 	H 	0.61880 0.75950 0.96750 0.13500
O 	O 	0.70060 0.10960 0.00380 -0.29500
C 	C 	0.67503 0.60410 0.94320 -0.27000
H 	H 	0.68170 0.54040 0.92150 0.13000
C 	C 	0.58809 0.50200 0.04070 -0.29900
H 	H 	0.59280 0.42160 0.03070 0.14600
C 	C 	0.82390 0.54370 0.16380 -0.26900
H 	H 	0.83050 0.46650 0.15320 0.13700
N 	N 	0.53403 0.72850 0.62890 -0.27700
C 	C 	0.61257 0.44250 0.82370 0.03400
C 	C 	0.97145 0.53220 0.15270 0.35100
N 	N 	0.68542 0.75840 0.01570 -0.26600
C 	C 	0.60248 0.55900 0.08670 0.31600
C 	C 	0.82790 0.72170 0.22310 -0.26800
H 	H 	0.83750 0.76550 0.25260 0.13700
C 	C 	0.59649 0.67940 0.10090 -0.29600
H 	H 	0.60650 0.71750 0.13160 0.14900
C 	C 	0.58510 0.18280 0.97270 -0.24700
H 	H 	0.60380 0.15370 0.97800 0.13000
C 	C 	0.67650 0.16780 0.67370 0.16400
H 	H 	0.67520 0.08240 0.66820 -0.01400
C 	C 	0.60059 0.55240 0.78730 0.00100
H 	H 	0.59050 0.60970 0.81000 0.04600
H 	H 	0.61600 0.59680 0.77140 0.05200
C 	C 	0.64662 0.63590 0.93670 0.27300
C 	C 	0.56639 0.57990 0.70690 0.30700
C 	C 	0.79910 0.59490 0.13480 0.13800
H 	H 	0.78970 0.55200 0.10480 0.00100
C 	C 	0.94157 0.53540 0.17430 -0.16700
C 	C 	0.56480 0.15380 0.01020 0.13500
H 	H 	0.57080 0.10610 0.04160 -0.03500
C 	C 	0.90900 0.47700 0.24230 -0.26200
H 	H 	0.90530 0.43400 0.27480 0.12800
C 	C 	0.56741 0.70740 0.71170 -0.29500
H 	H 	0.57860 0.74620 0.74060 0.14400
C 	C 	0.53452 0.74740 0.99130 0.35400
C 	C 	0.76235 0.76290 0.12020 0.32100
C 	C 	0.65763 0.78770 0.00930 0.14200
H 	H 	0.65120 0.84950 0.03240 -0.02400
C 	C 	0.63661 0.48500 0.86660 -0.01200
H 	H 	0.64290 0.41630 0.89100 0.05400
H 	H 	0.65270 0.51330 0.84720 0.05100
C 	C 	0.63720 0.39700 0.10140 0.33900
C 	C 	0.55094 0.77550 0.67130 0.16600
H 	H 	0.55180 0.86160 0.67420 -0.04400
C 	C 	0.66990 0.31650 0.03950 0.18500
H 	H 	0.68080 0.32830 0.00910 -0.01800
C 	C 	0.66075 0.21910 0.71320 -0.29800
H 	H 	0.64930 0.16980 0.73410 0.14900
C 	C 	0.65360 0.41310 0.05800 -0.33000
H 	H 	0.65410 0.49010 0.04040 0.15700
C 	C 	0.56646 0.56590 0.00960 0.16600
H 	H 	0.55670 0.52750 0.97860 -0.00700
C 	C 	0.57581 0.25860 0.92620 0.25900
C 	C 	0.93603 0.46870 0.22210 0.13100
H 	H 	0.95010 0.41910 0.24050 0.00300
C 	C 	0.89312 0.61210 0.16550 -0.27700
H 	H 	0.87880 0.65760 0.14570 0.13900
C 	C 	0.92003 0.60610 0.14730 0.14700
H 	H 	0.92390 0.65150 0.11560 -0.00300
C 	C 	0.66990 0.20060 0.06670 -0.21200
C 	C 	0.57522 0.74310 0.06860 0.16400
H 	H 	0.57170 0.82570 0.07710 -0.02200
C 	C 	0.55901 0.68680 0.02390 -0.20100
C 	C 	0.69540 0.35410 0.65200 0.16200
H 	H 	0.70740 0.40160 0.63140 -0.02600
C 	C 	0.62559 0.34570 0.78780 0.00100
H 	H 	0.63450 0.28050 0.81130 0.04300
H 	H 	0.61110 0.30890 0.76150 0.05100
C 	C 	0.69402 0.66630 0.98220 0.13700
H 	H 	0.71320 0.64360 0.98520 -0.03700
C 	C 	0.88788 0.54790 0.21480 0.27600
C 	C 	0.58680 0.38980 0.85110 -0.01500
H 	H 	0.57720 0.45580 0.86980 0.05400
H 	H 	0.57330 0.35430 0.82230 0.05400
C 	C 	0.54900 0.52800 0.66430 -0.28200
H 	H 	0.54760 0.44210 0.66100 0.14800
C 	C 	0.63640 0.28460 0.12770 -0.32900
H 	H 	0.62480 0.27350 0.15710 0.15900
C 	C 	0.54703 0.29190 0.91830 -0.25800
H 	H 	0.54010 0.33740 0.88690 0.13300
C 	C 	0.68040 0.41380 0.69120 -0.27600
H 	H 	0.68260 0.49870 0.69710 0.14600
C 	C 	0.78890 0.70760 0.15090 -0.17000
C 	C 	0.65269 0.18780 0.11070 0.19000
H 	H 	0.65210 0.11190 0.12920 -0.01800
C 	C 	0.66206 0.34560 0.72150 0.30700
C 	C 	0.80364 0.77140 0.19530 0.14300
H 	H 	0.79700 0.84830 0.20620 -0.00100
C 	C 	0.68910 0.09850 0.04900 0.37600
C 	C 	0.52950 0.25560 0.95810 0.14500
H 	H 	0.51040 0.27880 0.95250 -0.02000
C 	C 	0.53360 0.60430 0.62600 0.15700
H 	H 	0.52230 0.56730 0.59660 -0.02200
Co	Co	0.21547 0.65208 0.57485 1.13600
Co	Co	0.50838 0.83456 0.56975 1.13300
O 	O 	0.24810 0.79790 0.58110 -0.39700
O 	O 	0.01816 0.81510 0.45690 -0.39100
O 	O 	0.47738 0.87260 0.62310 -0.40800
O 	O 	0.08130 0.99960 0.24280 -0.24500
O 	O 	0.48789 0.05610 0.66400 -0.28200
O 	O 	0.09639 0.20550 0.39190 -0.23200
O 	O 	0.12259 0.00280 0.62270 -0.31500
O 	O 	0.25332 0.63360 0.63550 -0.38000
O 	O 	0.14676 0.09060 0.25760 -0.24700
N 	N 	0.19394 0.26690 0.14170 -0.25900
O 	O 	0.12621 0.91440 0.40020 -0.24300
O 	O 	0.19166 0.49420 0.58180 -0.43300
O 	O 	0.36174 0.94310 0.73940 -0.31000
N 	N 	0.03741 0.31110 0.50490 -0.26800
O 	O 	0.02853 0.63990 0.49980 -0.38900
C 	C 	0.33818 0.89320 0.70750 0.28900
C 	C 	0.13767 0.76720 0.47070 -0.26000
H 	H 	0.11880 0.74050 0.46750 0.13500
O 	O 	0.20060 0.39040 0.50380 -0.29500
C 	C 	0.17503 0.89590 0.44320 -0.27000
H 	H 	0.18170 0.95960 0.42150 0.13000
C 	C 	0.08809 0.99800 0.54070 -0.30000
H 	H 	0.09280 0.07840 0.53070 0.14600
C 	C 	0.32390 0.95630 0.66380 -0.26900
H 	H 	0.33050 0.03350 0.65320 0.13700
N 	N 	0.03403 0.77150 0.12890 -0.27700
C 	C 	0.11257 0.05750 0.32370 0.03400
C 	C 	0.47145 0.96780 0.65270 0.35100
N 	N 	0.18542 0.74160 0.51570 -0.26600
C 	C 	0.10248 0.94100 0.58670 0.31600
C 	C 	0.32790 0.77830 0.72310 -0.26800
H 	H 	0.33750 0.73450 0.75260 0.13700
C 	C 	0.09649 0.82060 0.60090 -0.29600
H 	H 	0.10650 0.78250 0.63160 0.14900
C 	C 	0.08510 0.31720 0.47270 -0.24700
H 	H 	0.10380 0.34630 0.47800 0.13000
C 	C 	0.17650 0.33220 0.17370 0.16300
H 	H 	0.17520 0.41760 0.16820 -0.01400
C 	C 	0.10059 0.94760 0.28730 0.00100
H 	H 	0.09050 0.89030 0.31000 0.04600
H 	H 	0.11600 0.90320 0.27140 0.05200
C 	C 	0.14662 0.86410 0.43670 0.27300
C 	C 	0.06639 0.92010 0.20690 0.30600
C 	C 	0.29910 0.90510 0.63480 0.13800
H 	H 	0.28970 0.94800 0.60480 0.00100
C 	C 	0.44157 0.96460 0.67430 -0.16700
C 	C 	0.06480 0.34620 0.51020 0.13500
H 	H 	0.07080 0.39390 0.54160 -0.03500
C 	C 	0.40900 0.02300 0.74230 -0.26100
H 	H 	0.40530 0.06600 0.77480 0.12800
C 	C 	0.06741 0.79260 0.21170 -0.29500
H 	H 	0.07860 0.75380 0.24060 0.14400
C 	C 	0.03452 0.75260 0.49130 0.35400
C 	C 	0.26235 0.73710 0.62020 0.32100
C 	C 	0.15763 0.71230 0.50930 0.14200
H 	H 	0.15120 0.65050 0.53240 -0.02400
C 	C 	0.13661 0.01500 0.36660 -0.01200
H 	H 	0.14290 0.08370 0.39100 0.05400
H 	H 	0.15270 0.98670 0.34720 0.05200
C 	C 	0.13720 0.10300 0.60140 0.33900
C 	C 	0.05094 0.72450 0.17130 0.16600
H 	H 	0.05180 0.63840 0.17420 -0.04400
C 	C 	0.16990 0.18350 0.53950 0.18500
H 	H 	0.18080 0.17170 0.50910 -0.01800
C 	C 	0.16075 0.28090 0.21320 -0.29800
H 	H 	0.14930 0.33020 0.23410 0.14900
C 	C 	0.15360 0.08690 0.55800 -0.33000
H 	H 	0.15410 0.00990 0.54040 0.15700
C 	C 	0.06646 0.93410 0.50960 0.16600
H 	H 	0.05670 0.97250 0.47860 -0.00700
C 	C 	0.07581 0.24140 0.42620 0.25900
C 	C 	0.43603 0.03130 0.72210 0.13100
H 	H 	0.45010 0.08090 0.74050 0.00300
C 	C 	0.39312 0.88790 0.66550 -0.27700
H 	H 	0.37880 0.84240 0.64570 0.13900
C 	C 	0.42003 0.89390 0.64730 0.14700
H 	H 	0.42390 0.84850 0.61560 -0.00300
C 	C 	0.16990 0.29940 0.56670 -0.21200
C 	C 	0.07522 0.75690 0.56860 0.16400
H 	H 	0.07170 0.67430 0.57710 -0.02200
C 	C 	0.05901 0.81320 0.52390 -0.20100
C 	C 	0.19540 0.14590 0.15200 0.16200
H 	H 	0.20740 0.09840 0.13140 -0.02600
C 	C 	0.12559 0.15430 0.28780 0.00100
H 	H 	0.13450 0.21950 0.31130 0.04300
H 	H 	0.11110 0.19110 0.26150 0.05100
C 	C 	0.19402 0.83370 0.48220 0.13600
H 	H 	0.21320 0.85640 0.48520 -0.03700
C 	C 	0.38788 0.95210 0.71480 0.27600
C 	C 	0.08680 0.11020 0.35110 -0.01500
H 	H 	0.07720 0.04420 0.36980 0.05400
H 	H 	0.07330 0.14570 0.32230 0.05400
C 	C 	0.04900 0.97200 0.16430 -0.28200
H 	H 	0.04760 0.05790 0.16100 0.14700
C 	C 	0.13640 0.21540 0.62770 -0.32900
H 	H 	0.12480 0.22650 0.65710 0.15900
C 	C 	0.04703 0.20810 0.41830 -0.25800
H 	H 	0.04010 0.16260 0.38690 0.13300
C 	C 	0.18040 0.08620 0.19120 -0.27600
H 	H 	0.18260 0.00130 0.19710 0.14600
C 	C 	0.28890 0.79240 0.65090 -0.17000
C 	C 	0.15269 0.31220 0.61070 0.19000
H 	H 	0.15210 0.38810 0.62920 -0.01800
C 	C 	0.16206 0.15440 0.22150 0.30700
C 	C 	0.30364 0.72860 0.69530 0.14400
H 	H 	0.29700 0.65170 0.70620 -0.00100
C 	C 	0.18910 0.40150 0.54900 0.37600
C 	C 	0.02950 0.24440 0.45810 0.14500
H 	H 	0.01040 0.22120 0.45250 -0.02000
C 	C 	0.03360 0.89570 0.12600 0.15700
H 	H 	0.02230 0.93270 0.09660 -0.02200
Co	Co	0.71547 0.15208 0.57485 1.13600
Co	Co	0.00838 0.33456 0.56975 1.13300
O 	O 	0.74810 0.29790 0.58110 -0.39700
O 	O 	0.51816 0.31510 0.45690 -0.39100
O 	O 	0.97738 0.37260 0.62310 -0.40800
O 	O 	0.58130 0.49960 0.24280 -0.24500
O 	O 	0.98789 0.55610 0.66400 -0.28200
O 	O 	0.59639 0.70550 0.39190 -0.23200
O 	O 	0.62259 0.50280 0.62270 -0.31500
O 	O 	0.75332 0.13360 0.63550 -0.38000
O 	O 	0.64676 0.59060 0.25760 -0.24700
N 	N 	0.69394 0.76690 0.14170 -0.25900
O 	O 	0.62621 0.41440 0.40020 -0.24300
O 	O 	0.69166 0.99420 0.58180 -0.43300
O 	O 	0.86174 0.44310 0.73940 -0.31000
N 	N 	0.53741 0.81110 0.50490 -0.26800
O 	O 	0.52853 0.13990 0.49980 -0.38900
C 	C 	0.83818 0.39320 0.70750 0.28900
C 	C 	0.63767 0.26720 0.47070 -0.26000
H 	H 	0.61880 0.24050 0.46750 0.13500
O 	O 	0.70060 0.89040 0.50380 -0.29500
C 	C 	0.67503 0.39590 0.44320 -0.27000
H 	H 	0.68170 0.45960 0.42150 0.13000
C 	C 	0.58809 0.49800 0.54070 -0.29900
H 	H 	0.59280 0.57840 0.53070 0.14600
C 	C 	0.82390 0.45630 0.66380 -0.26900
H 	H 	0.83050 0.53350 0.65320 0.13700
N 	N 	0.53403 0.27150 0.12890 -0.27700
C 	C 	0.61257 0.55750 0.32370 0.03400
C 	C 	0.97145 0.46780 0.65270 0.35100
N 	N 	0.68542 0.24160 0.51570 -0.26600
C 	C 	0.60248 0.44100 0.58670 0.31600
C 	C 	0.82790 0.27830 0.72310 -0.26800
H 	H 	0.83750 0.23450 0.75260 0.13700
C 	C 	0.59649 0.32060 0.60090 -0.29600
H 	H 	0.60650 0.28250 0.63160 0.14900
C 	C 	0.58510 0.81720 0.47270 -0.24700
H 	H 	0.60380 0.84630 0.47800 0.13000
C 	C 	0.67650 0.83220 0.17370 0.16400
H 	H 	0.67520 0.91760 0.16820 -0.01400
C 	C 	0.60059 0.44760 0.28730 0.00100
H 	H 	0.59050 0.39030 0.31000 0.04600
H 	H 	0.61600 0.40320 0.27140 0.05200
C 	C 	0.64662 0.36410 0.43670 0.27300
C 	C 	0.56639 0.42010 0.20690 0.30700
C 	C 	0.79910 0.40510 0.63480 0.13800
H 	H 	0.78970 0.44800 0.60480 0.00100
C 	C 	0.94157 0.46460 0.67430 -0.16700
C 	C 	0.56480 0.84620 0.51020 0.13500
H 	H 	0.57080 0.89390 0.54160 -0.03500
C 	C 	0.90900 0.52300 0.74230 -0.26200
H 	H 	0.90530 0.56600 0.77480 0.12800
C 	C 	0.56741 0.29260 0.21170 -0.29500
H 	H 	0.57860 0.25380 0.24060 0.14400
C 	C 	0.53452 0.25260 0.49130 0.35400
C 	C 	0.76235 0.23710 0.62020 0.32100
C 	C 	0.65763 0.21230 0.50930 0.14300
H 	H 	0.65120 0.15050 0.53240 -0.02400
C 	C 	0.63661 0.51500 0.36660 -0.01200
H 	H 	0.64290 0.58370 0.39100 0.05400
H 	H 	0.65270 0.48670 0.34720 0.05100
C 	C 	0.63720 0.60300 0.60140 0.33900
C 	C 	0.55094 0.22450 0.17130 0.16600
H 	H 	0.55180 0.13840 0.17420 -0.04400
C 	C 	0.66990 0.68350 0.53950 0.18500
H 	H 	0.68080 0.67170 0.50910 -0.01800
C 	C 	0.66075 0.78090 0.21320 -0.29800
H 	H 	0.64930 0.83020 0.23410 0.14900
C 	C 	0.65360 0.58690 0.55800 -0.33000
H 	H 	0.65410 0.50990 0.54040 0.15700
C 	C 	0.56646 0.43410 0.50960 0.16600
H 	H 	0.55670 0.47250 0.47860 -0.00700
C 	C 	0.57581 0.74140 0.42620 0.25900
C 	C 	0.93603 0.53130 0.72210 0.13100
H 	H 	0.95010 0.58090 0.74050 0.00300
C 	C 	0.89312 0.38790 0.66550 -0.27700
H 	H 	0.87880 0.34240 0.64570 0.13900
C 	C 	0.92003 0.39390 0.64730 0.14700
H 	H 	0.92390 0.34850 0.61560 -0.00300
C 	C 	0.66990 0.79940 0.56670 -0.21200
C 	C 	0.57522 0.25690 0.56860 0.16400
H 	H 	0.57170 0.17430 0.57710 -0.02200
C 	C 	0.55901 0.31320 0.52390 -0.20000
C 	C 	0.69540 0.64590 0.15200 0.16200
H 	H 	0.70740 0.59840 0.13140 -0.02600
C 	C 	0.62559 0.65430 0.28780 0.00100
H 	H 	0.63450 0.71950 0.31130 0.04300
H 	H 	0.61110 0.69110 0.26150 0.05100
C 	C 	0.69402 0.33370 0.48220 0.13700
H 	H 	0.71320 0.35640 0.48520 -0.03700
C 	C 	0.88788 0.45210 0.71480 0.27600
C 	C 	0.58680 0.61020 0.35110 -0.01500
H 	H 	0.57720 0.54420 0.36980 0.05400
H 	H 	0.57330 0.64570 0.32230 0.05400
C 	C 	0.54900 0.47200 0.16430 -0.28200
H 	H 	0.54760 0.55790 0.16100 0.14800
C 	C 	0.63640 0.71540 0.62770 -0.32900
H 	H 	0.62480 0.72650 0.65710 0.15900
C 	C 	0.54703 0.70810 0.41830 -0.25800
H 	H 	0.54010 0.66260 0.38690 0.13300
C 	C 	0.68040 0.58620 0.19120 -0.27600
H 	H 	0.68260 0.50130 0.19710 0.14600
C 	C 	0.78890 0.29240 0.65090 -0.17000
C 	C 	0.65269 0.81220 0.61070 0.19000
H 	H 	0.65210 0.88810 0.62920 -0.01800
C 	C 	0.66206 0.65440 0.22150 0.30700
C 	C 	0.80364 0.22860 0.69530 0.14300
H 	H 	0.79700 0.15170 0.70620 -0.00100
C 	C 	0.68910 0.90150 0.54900 0.37600
C 	C 	0.52950 0.74440 0.45810 0.14500
H 	H 	0.51040 0.72120 0.45250 -0.02000
C 	C 	0.53360 0.39570 0.12600 0.15700
H 	H 	0.52230 0.43270 0.09660 -0.02200
Co	Co	0.78453 0.65208 0.92515 1.13600
Co	Co	0.49162 0.83456 0.93025 1.13300
O 	O 	0.75190 0.79790 0.91890 -0.39700
O 	O 	0.98184 0.81510 0.04310 -0.39100
O 	O 	0.52262 0.87260 0.87690 -0.40800
O 	O 	0.91870 0.99960 0.25720 -0.24500
O 	O 	0.51211 0.05610 0.83600 -0.28200
O 	O 	0.90361 0.20550 0.10810 -0.23200
O 	O 	0.87741 0.00280 0.87730 -0.31500
O 	O 	0.74668 0.63360 0.86450 -0.38000
O 	O 	0.85324 0.09060 0.24240 -0.24700
N 	N 	0.80606 0.26690 0.35830 -0.25900
O 	O 	0.87379 0.91440 0.09980 -0.24300
O 	O 	0.80834 0.49420 0.91820 -0.43300
O 	O 	0.63826 0.94310 0.76060 -0.31000
N 	N 	0.96259 0.31110 0.99510 -0.26900
O 	O 	0.97147 0.63990 0.00020 -0.38900
C 	C 	0.66182 0.89320 0.79250 0.28900
C 	C 	0.86233 0.76720 0.02930 -0.26000
H 	H 	0.88120 0.74050 0.03250 0.13500
O 	O 	0.79940 0.39040 0.99620 -0.29500
C 	C 	0.82497 0.89590 0.05680 -0.27000
H 	H 	0.81830 0.95960 0.07850 0.13000
C 	C 	0.91191 0.99800 0.95930 -0.30000
H 	H 	0.90720 0.07840 0.96930 0.14600
C 	C 	0.67610 0.95630 0.83620 -0.26900
H 	H 	0.66950 0.03350 0.84680 0.13700
N 	N 	0.96597 0.77150 0.37110 -0.27700
C 	C 	0.88743 0.05750 0.17630 0.03400
C 	C 	0.52855 0.96780 0.84730 0.35100
N 	N 	0.81458 0.74160 0.98430 -0.26600
C 	C 	0.89752 0.94100 0.91330 0.31600
C 	C 	0.67210 0.77830 0.77690 -0.26800
H 	H 	0.66250 0.73450 0.74740 0.13700
C 	C 	0.90351 0.82060 0.89910 -0.29600
H 	H 	0.89350 0.78250 0.86840 0.14900
C 	C 	0.91490 0.31720 0.02730 -0.24700
H 	H 	0.89620 0.34630 0.02200 0.13000
C 	C 	0.82350 0.33220 0.32630 0.16300
H 	H 	0.82480 0.41760 0.33180 -0.01400
C 	C 	0.89941 0.94760 0.21270 0.00100
H 	H 	0.90950 0.89030 0.19000 0.04600
H 	H 	0.88400 0.90320 0.22860 0.05200
C 	C 	0.85338 0.86410 0.06330 0.27300
C 	C 	0.93361 0.92010 0.29310 0.30600
C 	C 	0.70090 0.90510 0.86520 0.13800
H 	H 	0.71030 0.94800 0.89520 0.00100
C 	C 	0.55843 0.96460 0.82570 -0.16700
C 	C 	0.93520 0.34620 0.98980 0.13500
H 	H 	0.92920 0.39390 0.95840 -0.03500
C 	C 	0.59100 0.02300 0.75770 -0.26100
H 	H 	0.59470 0.06600 0.72520 0.12800
C 	C 	0.93259 0.79260 0.28830 -0.29500
H 	H 	0.92140 0.75380 0.25940 0.14400
C 	C 	0.96548 0.75260 0.00870 0.35400
C 	C 	0.73765 0.73710 0.87980 0.32100
C 	C 	0.84237 0.71230 0.99070 0.14200
H 	H 	0.84880 0.65050 0.96760 -0.02400
C 	C 	0.86339 0.01500 0.13340 -0.01200
H 	H 	0.85710 0.08370 0.10900 0.05400
H 	H 	0.84730 0.98670 0.15280 0.05200
C 	C 	0.86280 0.10300 0.89860 0.33900
C 	C 	0.94906 0.72450 0.32870 0.16600
H 	H 	0.94820 0.63840 0.32580 -0.04400
C 	C 	0.83010 0.18350 0.96050 0.18500
H 	H 	0.81920 0.17170 0.99090 -0.01800
C 	C 	0.83925 0.28090 0.28680 -0.29800
H 	H 	0.85070 0.33020 0.26590 0.14900
C 	C 	0.84640 0.08690 0.94200 -0.33000
H 	H 	0.84590 0.00990 0.95960 0.15700
C 	C 	0.93354 0.93410 0.99040 0.16600
H 	H 	0.94330 0.97250 0.02140 -0.00700
C 	C 	0.92419 0.24140 0.07380 0.25900
C 	C 	0.56397 0.03130 0.77790 0.13100
H 	H 	0.54990 0.08090 0.75950 0.00300
C 	C 	0.60688 0.88790 0.83450 -0.27700
H 	H 	0.62120 0.84240 0.85430 0.13900
C 	C 	0.57997 0.89390 0.85270 0.14700
H 	H 	0.57610 0.84850 0.88440 -0.00300
C 	C 	0.83010 0.29940 0.93330 -0.21200
C 	C 	0.92478 0.75690 0.93140 0.16400
H 	H 	0.92830 0.67430 0.92290 -0.02200
C 	C 	0.94099 0.81320 0.97610 -0.20100
C 	C 	0.80460 0.14590 0.34800 0.16200
H 	H 	0.79260 0.09840 0.36860 -0.02600
C 	C 	0.87441 0.15430 0.21220 0.00100
H 	H 	0.86550 0.21950 0.18870 0.04300
H 	H 	0.88890 0.19110 0.23850 0.05100
C 	C 	0.80598 0.83370 0.01780 0.13600
H 	H 	0.78680 0.85640 0.01480 -0.03700
C 	C 	0.61212 0.95210 0.78520 0.27600
C 	C 	0.91320 0.11020 0.14890 -0.01500
H 	H 	0.92280 0.04420 0.13020 0.05400
H 	H 	0.92670 0.14570 0.17770 0.05400
C 	C 	0.95100 0.97200 0.33570 -0.28200
H 	H 	0.95240 0.05790 0.33900 0.14700
C 	C 	0.86360 0.21540 0.87230 -0.32900
H 	H 	0.87520 0.22650 0.84290 0.15900
C 	C 	0.95297 0.20810 0.08170 -0.25800
H 	H 	0.95990 0.16260 0.11310 0.13300
C 	C 	0.81960 0.08620 0.30880 -0.27600
H 	H 	0.81740 0.00130 0.30290 0.14600
C 	C 	0.71110 0.79240 0.84910 -0.17000
C 	C 	0.84731 0.31220 0.88930 0.19000
H 	H 	0.84790 0.38810 0.87080 -0.01800
C 	C 	0.83794 0.15440 0.27850 0.30700
C 	C 	0.69636 0.72860 0.80470 0.14400
H 	H 	0.70300 0.65170 0.79380 -0.00100
C 	C 	0.81090 0.40150 0.95100 0.37600
C 	C 	0.97050 0.24440 0.04190 0.14500
H 	H 	0.98960 0.22120 0.04750 -0.02000
C 	C 	0.96640 0.89570 0.37400 0.15700
H 	H 	0.97770 0.93270 0.40340 -0.02200
Co	Co	0.28453 0.15208 0.92515 1.13600
Co	Co	0.99162 0.33456 0.93025 1.13300
O 	O 	0.25190 0.29790 0.91890 -0.39700
O 	O 	0.48184 0.31510 0.04310 -0.39100
O 	O 	0.02262 0.37260 0.87690 -0.40800
O 	O 	0.41870 0.49960 0.25720 -0.24500
O 	O 	0.01211 0.55610 0.83600 -0.28200
O 	O 	0.40361 0.70550 0.10810 -0.23200
O 	O 	0.37741 0.50280 0.87730 -0.31500
O 	O 	0.24668 0.13360 0.86450 -0.38000
O 	O 	0.35324 0.59060 0.24240 -0.24700
N 	N 	0.30606 0.76690 0.35830 -0.25900
O 	O 	0.37379 0.41440 0.09980 -0.24300
O 	O 	0.30834 0.99420 0.91820 -0.43300
O 	O 	0.13826 0.44310 0.76060 -0.31000
N 	N 	0.46259 0.81110 0.99510 -0.26800
O 	O 	0.47147 0.13990 0.00020 -0.38900
C 	C 	0.16182 0.39320 0.79250 0.28900
C 	C 	0.36233 0.26720 0.02930 -0.26000
H 	H 	0.38120 0.24050 0.03250 0.13500
O 	O 	0.29940 0.89040 0.99620 -0.29500
C 	C 	0.32497 0.39590 0.05680 -0.27000
H 	H 	0.31830 0.45960 0.07850 0.13000
C 	C 	0.41191 0.49800 0.95930 -0.29900
H 	H 	0.40720 0.57840 0.96930 0.14600
C 	C 	0.17610 0.45630 0.83620 -0.26900
H 	H 	0.16950 0.53350 0.84680 0.13700
N 	N 	0.46597 0.27150 0.37110 -0.27700
C 	C 	0.38743 0.55750 0.17630 0.03400
C 	C 	0.02855 0.46780 0.84730 0.35100
N 	N 	0.31458 0.24160 0.98430 -0.26600
C 	C 	0.39752 0.44100 0.91330 0.31600
C 	C 	0.17210 0.27830 0.77690 -0.26800
H 	H 	0.16250 0.23450 0.74740 0.13700
C 	C 	0.40351 0.32060 0.89910 -0.29600
H 	H 	0.39350 0.28250 0.86840 0.14900
C 	C 	0.41490 0.81720 0.02730 -0.24700
H 	H 	0.39620 0.84630 0.02200 0.13000
C 	C 	0.32350 0.83220 0.32630 0.16400
H 	H 	0.32480 0.91760 0.33180 -0.01400
C 	C 	0.39941 0.44760 0.21270 0.00100
H 	H 	0.40950 0.39030 0.19000 0.04600
H 	H 	0.38400 0.40320 0.22860 0.05200
C 	C 	0.35338 0.36410 0.06330 0.27300
C 	C 	0.43361 0.42010 0.29310 0.30700
C 	C 	0.20090 0.40510 0.86520 0.13800
H 	H 	0.21030 0.44800 0.89520 0.00100
C 	C 	0.05843 0.46460 0.82570 -0.16700
C 	C 	0.43520 0.84620 0.98980 0.13500
H 	H 	0.42920 0.89390 0.95840 -0.03500
C 	C 	0.09100 0.52300 0.75770 -0.26200
H 	H 	0.09470 0.56600 0.72520 0.12800
C 	C 	0.43259 0.29260 0.28830 -0.29500
H 	H 	0.42140 0.25380 0.25940 0.14400
C 	C 	0.46548 0.25260 0.00870 0.35400
C 	C 	0.23765 0.23710 0.87980 0.32100
C 	C 	0.34237 0.21230 0.99070 0.14200
H 	H 	0.34880 0.15050 0.96760 -0.02400
C 	C 	0.36339 0.51500 0.13340 -0.01200
H 	H 	0.35710 0.58370 0.10900 0.05400
H 	H 	0.34730 0.48670 0.15280 0.05100
C 	C 	0.36280 0.60300 0.89860 0.33900
C 	C 	0.44906 0.22450 0.32870 0.16600
H 	H 	0.44820 0.13840 0.32580 -0.04400
C 	C 	0.33010 0.68350 0.96050 0.18500
H 	H 	0.31920 0.67170 0.99090 -0.01800
C 	C 	0.33925 0.78090 0.28680 -0.29800
H 	H 	0.35070 0.83020 0.26590 0.14900
C 	C 	0.34640 0.58690 0.94200 -0.33000
H 	H 	0.34590 0.50990 0.95960 0.15700
C 	C 	0.43354 0.43410 0.99040 0.16600
H 	H 	0.44330 0.47250 0.02140 -0.00700
C 	C 	0.42419 0.74140 0.07380 0.25900
C 	C 	0.06397 0.53130 0.77790 0.13100
H 	H 	0.04990 0.58090 0.75950 0.00300
C 	C 	0.10688 0.38790 0.83450 -0.27700
H 	H 	0.12120 0.34240 0.85430 0.13900
C 	C 	0.07997 0.39390 0.85270 0.14700
H 	H 	0.07610 0.34850 0.88440 -0.00300
C 	C 	0.33010 0.79940 0.93330 -0.21200
C 	C 	0.42478 0.25690 0.93140 0.16400
H 	H 	0.42830 0.17430 0.92290 -0.02200
C 	C 	0.44099 0.31320 0.97610 -0.20100
C 	C 	0.30460 0.64590 0.34800 0.16200
H 	H 	0.29260 0.59840 0.36860 -0.02600
C 	C 	0.37441 0.65430 0.21220 0.00100
H 	H 	0.36550 0.71950 0.18870 0.04300
H 	H 	0.38890 0.69110 0.23850 0.05100
C 	C 	0.30598 0.33370 0.01780 0.13700
H 	H 	0.28680 0.35640 0.01480 -0.03700
C 	C 	0.11212 0.45210 0.78520 0.27600
C 	C 	0.41320 0.61020 0.14890 -0.01500
H 	H 	0.42280 0.54420 0.13020 0.05400
H 	H 	0.42670 0.64570 0.17770 0.05400
C 	C 	0.45100 0.47200 0.33570 -0.28200
H 	H 	0.45240 0.55790 0.33900 0.14800
C 	C 	0.36360 0.71540 0.87230 -0.32900
H 	H 	0.37520 0.72650 0.84290 0.15900
C 	C 	0.45297 0.70810 0.08170 -0.25800
H 	H 	0.45990 0.66260 0.11310 0.13300
C 	C 	0.31960 0.58620 0.30880 -0.27600
H 	H 	0.31740 0.50130 0.30290 0.14600
C 	C 	0.21110 0.29240 0.84910 -0.17000
C 	C 	0.34731 0.81220 0.88930 0.19000
H 	H 	0.34790 0.88810 0.87080 -0.01800
C 	C 	0.33794 0.65440 0.27850 0.30700
C 	C 	0.19636 0.22860 0.80470 0.14300
H 	H 	0.20300 0.15170 0.79380 -0.00100
C 	C 	0.31090 0.90150 0.95100 0.37600
C 	C 	0.47050 0.74440 0.04190 0.14500
H 	H 	0.48960 0.72120 0.04750 -0.02000
C 	C 	0.46640 0.39570 0.37400 0.15700
H 	H 	0.47770 0.43270 0.40340 -0.02200
