data_crystal

_cell_length_a 13.60130
_cell_length_b 13.60130
_cell_length_c 8.14040
_cell_angle_alpha 90.00000
_cell_angle_beta  90.00000
_cell_angle_gamma 120.00000

_symmetry_space_group_name_	'P 1'
_symmetry_space_group_name_H-M	'P 1'

loop_
_symmetry_equiv_pos_as_xyz
  x,y,z

loop_
_atom_site_label
_atom_site_type_symbol
_atom_site_fract_x
_atom_site_fract_y
_atom_site_fract_z
_atom_site_charge
Mn	Mn	0.29616 0.33503 0.54316 1.25900
O 	O 	0.22730 0.18090 0.40430 -0.41700
C 	C 	0.52950 0.32080 0.55560 -0.27800
C 	C 	0.35490 0.55640 0.77620 -0.26600
O 	O 	0.24500 0.05850 0.24640 -0.41700
C 	C 	0.26700 0.15890 0.27990 0.34300
N 	N 	0.34590 0.20980 0.00270 -0.33000
H 	H 	0.41030 0.25750 0.94910 0.09800
H 	H 	0.28640 0.20110 0.94270 0.14100
C 	C 	0.34460 0.25490 0.16510 -0.14700
H 	H 	0.42160 0.28680 0.20930 0.04000
N 	N 	0.36440 0.42650 0.30550 -0.33800
H 	H 	0.34790 0.48270 0.29780 0.08400
H 	H 	0.44050 0.45850 0.30600 0.09000
C 	C 	0.31890 0.35280 0.15950 -0.02500
H 	H 	0.35230 0.39760 0.06120 0.01900
H 	H 	0.23740 0.32190 0.15390 0.02600
N 	N 	0.44850 0.31870 0.60430 -0.18200
N 	N 	0.36670 0.49550 0.69110 -0.18800
Mn	Mn	0.66497 0.96113 0.54316 1.26000
O 	O 	0.81910 0.04640 0.40430 -0.41600
C 	C 	0.67920 0.20870 0.55560 -0.27800
C 	C 	0.44360 0.79850 0.77620 -0.26700
O 	O 	0.94150 0.18650 0.24640 -0.41700
C 	C 	0.84110 0.10810 0.27990 0.34300
N 	N 	0.79020 0.13610 0.00270 -0.33500
H 	H 	0.74250 0.15280 0.94910 0.10100
H 	H 	0.79890 0.08530 0.94270 0.14400
C 	C 	0.74510 0.08970 0.16510 -0.14800
H 	H 	0.71320 0.13480 0.20930 0.04000
N 	N 	0.57350 0.93790 0.30550 -0.33900
H 	H 	0.51730 0.86520 0.29780 0.08400
H 	H 	0.54150 0.98200 0.30600 0.09000
C 	C 	0.64720 0.96610 0.15950 -0.02400
H 	H 	0.60240 0.95470 0.06120 0.01900
H 	H 	0.67810 0.91550 0.15390 0.02600
N 	N 	0.68130 0.12980 0.60430 -0.18200
N 	N 	0.50450 0.87120 0.69110 -0.18800
Mn	Mn	0.03887 0.70384 0.54316 1.25900
O 	O 	0.95360 0.77270 0.40430 -0.41600
C 	C 	0.79130 0.47050 0.55560 -0.27800
C 	C 	0.20150 0.64510 0.77620 -0.26700
O 	O 	0.81350 0.75500 0.24640 -0.41700
C 	C 	0.89190 0.73300 0.27990 0.34300
N 	N 	0.86390 0.65410 0.00270 -0.33100
H 	H 	0.84720 0.58970 0.94910 0.09900
H 	H 	0.91470 0.71360 0.94270 0.14100
C 	C 	0.91030 0.65540 0.16510 -0.14800
H 	H 	0.86520 0.57840 0.20930 0.04000
N 	N 	0.06210 0.63560 0.30550 -0.33900
H 	H 	0.13480 0.65210 0.29780 0.08400
H 	H 	0.01800 0.55950 0.30600 0.09000
C 	C 	0.03390 0.68110 0.15950 -0.02400
H 	H 	0.04530 0.64770 0.06120 0.01900
H 	H 	0.08450 0.76260 0.15390 0.02600
N 	N 	0.87020 0.55150 0.60430 -0.18200
N 	N 	0.12880 0.63330 0.69110 -0.18800
Mn	Mn	0.70384 0.66497 0.04316 1.25700
O 	O 	0.77270 0.81910 0.90430 -0.41100
C 	C 	0.47050 0.67920 0.05560 -0.28400
C 	C 	0.64510 0.44360 0.27620 -0.27100
O 	O 	0.75500 0.94150 0.74640 -0.41500
C 	C 	0.73300 0.84110 0.77990 0.34400
N 	N 	0.65410 0.79020 0.50270 -0.31300
H 	H 	0.58970 0.74250 0.44910 0.08600
H 	H 	0.71360 0.79890 0.44270 0.12900
C 	C 	0.65540 0.74510 0.66510 -0.14800
H 	H 	0.57840 0.71320 0.70930 0.04200
N 	N 	0.63560 0.57350 0.80550 -0.33700
H 	H 	0.65210 0.51730 0.79780 0.08600
H 	H 	0.55950 0.54150 0.80600 0.09200
C 	C 	0.68110 0.64720 0.65950 -0.02400
H 	H 	0.64770 0.60240 0.56120 0.02200
H 	H 	0.76260 0.67810 0.65390 0.02800
N 	N 	0.55150 0.68130 0.10430 -0.18300
N 	N 	0.63330 0.50450 0.19110 -0.18900
Mn	Mn	0.33503 0.03887 0.04316 1.25700
O 	O 	0.18090 0.95360 0.90430 -0.41400
C 	C 	0.32080 0.79130 0.05560 -0.28300
C 	C 	0.55640 0.20150 0.27620 -0.27100
O 	O 	0.05850 0.81350 0.74640 -0.41600
C 	C 	0.15890 0.89190 0.77990 0.34500
N 	N 	0.20980 0.86390 0.50270 -0.31300
H 	H 	0.25750 0.84720 0.44910 0.08600
H 	H 	0.20110 0.91470 0.44270 0.12900
C 	C 	0.25490 0.91030 0.66510 -0.15000
H 	H 	0.28680 0.86520 0.70930 0.04300
N 	N 	0.42650 0.06210 0.80550 -0.33800
H 	H 	0.48270 0.13480 0.79780 0.08600
H 	H 	0.45850 0.01800 0.80600 0.09200
C 	C 	0.35280 0.03390 0.65950 -0.02200
H 	H 	0.39760 0.04530 0.56120 0.02100
H 	H 	0.32190 0.08450 0.65390 0.02700
N 	N 	0.31870 0.87020 0.10430 -0.18300
N 	N 	0.49550 0.12880 0.19110 -0.18900
Mn	Mn	0.96113 0.29616 0.04316 1.25600
O 	O 	0.04640 0.22730 0.90430 -0.41200
C 	C 	0.20870 0.52950 0.05560 -0.28300
C 	C 	0.79850 0.35490 0.27620 -0.27100
O 	O 	0.18650 0.24500 0.74640 -0.41500
C 	C 	0.10810 0.26700 0.77990 0.34400
N 	N 	0.13610 0.34590 0.50270 -0.31300
H 	H 	0.15280 0.41030 0.44910 0.08600
H 	H 	0.08530 0.28640 0.44270 0.12900
C 	C 	0.08970 0.34460 0.66510 -0.14900
H 	H 	0.13480 0.42160 0.70930 0.04200
N 	N 	0.93790 0.36440 0.80550 -0.33700
H 	H 	0.86520 0.34790 0.79780 0.08600
H 	H 	0.98200 0.44050 0.80600 0.09300
C 	C 	0.96610 0.31890 0.65950 -0.02200
H 	H 	0.95470 0.35230 0.56120 0.02100
H 	H 	0.91550 0.23740 0.65390 0.02800
N 	N 	0.12980 0.44850 0.10430 -0.18300
N 	N 	0.87120 0.36670 0.19110 -0.18900
Cr	Cr	0.33333 0.66667 0.92642 1.46900
Cr	Cr	0.66667 0.33333 0.42642 1.46600
