data_crystal

_cell_length_a 13.60930
_cell_length_b 13.60930
_cell_length_c 8.16090
_cell_angle_alpha 90.00000
_cell_angle_beta  90.00000
_cell_angle_gamma 120.00000

_symmetry_space_group_name_	'P 1'
_symmetry_space_group_name_H-M	'P 1'

loop_
_symmetry_equiv_pos_as_xyz
  x,y,z

loop_
_atom_site_label
_atom_site_type_symbol
_atom_site_fract_x
_atom_site_fract_y
_atom_site_fract_z
_atom_site_charge
Mn	Mn	0.29578 0.33471 0.54340 1.25800
O 	O 	0.22790 0.18060 0.40480 -0.41900
C 	C 	0.52970 0.32070 0.55520 -0.27700
C 	C 	0.35440 0.55580 0.77630 -0.26600
O 	O 	0.24470 0.05850 0.24670 -0.41800
C 	C 	0.26660 0.15870 0.28000 0.34600
N 	N 	0.34590 0.21010 0.00360 -0.33100
H 	H 	0.41040 0.25770 0.95030 0.09800
H 	H 	0.28660 0.20160 0.94370 0.14100
C 	C 	0.34470 0.25540 0.16580 -0.14800
H 	H 	0.42160 0.28720 0.21010 0.04100
N 	N 	0.36360 0.42590 0.30660 -0.33900
H 	H 	0.34700 0.48200 0.29900 0.08400
H 	H 	0.43970 0.45810 0.30710 0.08900
C 	C 	0.31860 0.35280 0.16120 -0.02200
H 	H 	0.35180 0.39790 0.06330 0.01800
H 	H 	0.23710 0.32160 0.15580 0.02500
N 	N 	0.44870 0.31890 0.60370 -0.18200
N 	N 	0.36650 0.49570 0.69160 -0.18600
Mn	Mn	0.66529 0.96107 0.54340 1.25900
O 	O 	0.81940 0.04730 0.40480 -0.41800
C 	C 	0.67930 0.20900 0.55520 -0.27800
C 	C 	0.44420 0.79860 0.77630 -0.26600
O 	O 	0.94150 0.18620 0.24670 -0.41800
C 	C 	0.84130 0.10790 0.28000 0.34600
N 	N 	0.78990 0.13580 0.00360 -0.33500
H 	H 	0.74230 0.15270 0.95030 0.10100
H 	H 	0.79840 0.08500 0.94370 0.14400
C 	C 	0.74460 0.08930 0.16580 -0.15000
H 	H 	0.71280 0.13440 0.21010 0.04100
N 	N 	0.57410 0.93770 0.30660 -0.33900
H 	H 	0.51800 0.86500 0.29900 0.08400
H 	H 	0.54190 0.98160 0.30710 0.08900
C 	C 	0.64720 0.96580 0.16120 -0.02100
H 	H 	0.60210 0.95390 0.06330 0.01800
H 	H 	0.67840 0.91550 0.15580 0.02400
N 	N 	0.68110 0.12980 0.60370 -0.18200
N 	N 	0.50430 0.87080 0.69160 -0.18700
Mn	Mn	0.03893 0.70422 0.54340 1.25900
O 	O 	0.95270 0.77210 0.40480 -0.41800
C 	C 	0.79100 0.47030 0.55520 -0.27800
C 	C 	0.20140 0.64560 0.77630 -0.26600
O 	O 	0.81380 0.75530 0.24670 -0.41800
C 	C 	0.89210 0.73340 0.28000 0.34600
N 	N 	0.86420 0.65410 0.00360 -0.33200
H 	H 	0.84730 0.58960 0.95030 0.09900
H 	H 	0.91500 0.71340 0.94370 0.14100
C 	C 	0.91070 0.65530 0.16580 -0.14900
H 	H 	0.86560 0.57840 0.21010 0.04100
N 	N 	0.06230 0.63640 0.30660 -0.33900
H 	H 	0.13500 0.65300 0.29900 0.08400
H 	H 	0.01840 0.56030 0.30710 0.08900
C 	C 	0.03420 0.68140 0.16120 -0.02100
H 	H 	0.04610 0.64820 0.06330 0.01900
H 	H 	0.08450 0.76290 0.15580 0.02500
N 	N 	0.87020 0.55130 0.60370 -0.18200
N 	N 	0.12920 0.63350 0.69160 -0.18700
Mn	Mn	0.70422 0.66529 0.04340 1.25600
O 	O 	0.77210 0.81940 0.90480 -0.41300
C 	C 	0.47030 0.67930 0.05520 -0.28300
C 	C 	0.64560 0.44420 0.27630 -0.27100
O 	O 	0.75530 0.94150 0.74670 -0.41600
C 	C 	0.73340 0.84130 0.78000 0.34700
N 	N 	0.65410 0.78990 0.50360 -0.31300
H 	H 	0.58960 0.74230 0.45030 0.08600
H 	H 	0.71340 0.79840 0.44370 0.12900
C 	C 	0.65530 0.74460 0.66580 -0.14900
H 	H 	0.57840 0.71280 0.71010 0.04300
N 	N 	0.63640 0.57410 0.80660 -0.33800
H 	H 	0.65300 0.51800 0.79900 0.08500
H 	H 	0.56030 0.54190 0.80710 0.09200
C 	C 	0.68140 0.64720 0.66120 -0.02200
H 	H 	0.64820 0.60210 0.56330 0.02100
H 	H 	0.76290 0.67840 0.65580 0.02700
N 	N 	0.55130 0.68110 0.10370 -0.18300
N 	N 	0.63350 0.50430 0.19160 -0.18700
Mn	Mn	0.33471 0.03893 0.04340 1.25600
O 	O 	0.18060 0.95270 0.90480 -0.41600
C 	C 	0.32070 0.79100 0.05520 -0.28300
C 	C 	0.55580 0.20140 0.27630 -0.27100
O 	O 	0.05850 0.81380 0.74670 -0.41700
C 	C 	0.15870 0.89210 0.78000 0.34700
N 	N 	0.21010 0.86420 0.50360 -0.31300
H 	H 	0.25770 0.84730 0.45030 0.08600
H 	H 	0.20160 0.91500 0.44370 0.12900
C 	C 	0.25540 0.91070 0.66580 -0.15100
H 	H 	0.28720 0.86560 0.71010 0.04300
N 	N 	0.42590 0.06230 0.80660 -0.33800
H 	H 	0.48200 0.13500 0.79900 0.08600
H 	H 	0.45810 0.01840 0.80710 0.09200
C 	C 	0.35280 0.03420 0.66120 -0.01900
H 	H 	0.39790 0.04610 0.56330 0.02000
H 	H 	0.32160 0.08450 0.65580 0.02600
N 	N 	0.31890 0.87020 0.10370 -0.18200
N 	N 	0.49570 0.12920 0.19160 -0.18800
Mn	Mn	0.96107 0.29578 0.04340 1.25500
O 	O 	0.04730 0.22790 0.90480 -0.41300
C 	C 	0.20900 0.52970 0.05520 -0.28300
C 	C 	0.79860 0.35440 0.27630 -0.27100
O 	O 	0.18620 0.24470 0.74670 -0.41500
C 	C 	0.10790 0.26660 0.78000 0.34700
N 	N 	0.13580 0.34590 0.50360 -0.31300
H 	H 	0.15270 0.41040 0.45030 0.08600
H 	H 	0.08500 0.28660 0.44370 0.12900
C 	C 	0.08930 0.34470 0.66580 -0.15100
H 	H 	0.13440 0.42160 0.71010 0.04300
N 	N 	0.93770 0.36360 0.80660 -0.33800
H 	H 	0.86500 0.34700 0.79900 0.08600
H 	H 	0.98160 0.43970 0.80710 0.09200
C 	C 	0.96580 0.31860 0.66120 -0.01900
H 	H 	0.95390 0.35180 0.56330 0.02100
H 	H 	0.91550 0.23710 0.65580 0.02600
N 	N 	0.12980 0.44870 0.10370 -0.18300
N 	N 	0.87080 0.36650 0.19160 -0.18800
Cr	Cr	0.33333 0.66667 0.92566 1.46900
Cr	Cr	0.66667 0.33333 0.42566 1.46500
