data_crystal

_cell_length_a 10.09800
_cell_length_b 12.15600
_cell_length_c 17.11900
_cell_angle_alpha 90.00000
_cell_angle_beta  96.32000
_cell_angle_gamma 90.00000

_symmetry_space_group_name_	'P 1'
_symmetry_space_group_name_H-M	'P 1'

loop_
_symmetry_equiv_pos_as_xyz
  x,y,z

loop_
_atom_site_label
_atom_site_type_symbol
_atom_site_fract_x
_atom_site_fract_y
_atom_site_fract_z
_atom_site_charge
Mn	Mn	0.73110 0.77455 0.21230 1.25400
C 	C 	0.65260 0.03730 0.19286 0.16800
C 	C 	0.82260 0.51310 0.25089 0.17400
C 	C 	0.96250 0.36960 0.27910 0.17700
C 	C 	0.75860 0.83860 0.40331 0.18200
N 	N 	0.67360 0.94640 0.18471 -0.28600
N 	N 	0.79150 0.60190 0.23928 -0.28700
C 	C 	0.55000 0.18580 0.23658 0.16500
N 	N 	0.63730 0.14330 0.19520 -0.18500
N 	N 	0.84340 0.40910 0.26420 -0.18900
N 	N 	0.75710 0.81610 0.33947 -0.29100
N 	N 	0.76700 0.87570 0.47431 -0.19300
N 	N 	0.05920 0.32410 0.29390 -0.28800
N 	N 	0.47860 0.23110 0.27260 -0.28000
C 	C 	0.73180 0.81660 0.53167 0.17300
N 	N 	0.70530 0.77470 0.58670 -0.28700
Mn	Mn	0.26890 0.27455 0.28770 1.25300
C 	C 	0.34740 0.53730 0.30714 0.16800
C 	C 	0.17740 0.01310 0.24911 0.17300
C 	C 	0.03750 0.86960 0.22090 0.17700
C 	C 	0.24140 0.33860 0.09669 0.18100
N 	N 	0.32640 0.44640 0.31529 -0.28700
N 	N 	0.20850 0.10190 0.26072 -0.28800
C 	C 	0.45000 0.68580 0.26342 0.16400
N 	N 	0.36270 0.64330 0.30480 -0.18600
N 	N 	0.15660 0.90910 0.23580 -0.19000
N 	N 	0.24290 0.31610 0.16053 -0.29100
N 	N 	0.23300 0.37570 0.02569 -0.19300
N 	N 	0.94080 0.82410 0.20610 -0.28900
N 	N 	0.52140 0.73110 0.22740 -0.28000
C 	C 	0.26820 0.31660 0.96833 0.17300
N 	N 	0.29470 0.27470 0.91330 -0.28700
Mn	Mn	0.26890 0.22545 0.78770 1.25300
C 	C 	0.34740 0.96270 0.80714 0.16700
C 	C 	0.17740 0.48690 0.74911 0.17300
C 	C 	0.03750 0.63040 0.72090 0.17600
C 	C 	0.24140 0.16140 0.59669 0.18100
N 	N 	0.32640 0.05360 0.81529 -0.28700
N 	N 	0.20850 0.39810 0.76072 -0.28800
C 	C 	0.45000 0.81420 0.76342 0.16400
N 	N 	0.36270 0.85670 0.80480 -0.18600
N 	N 	0.15660 0.59090 0.73580 -0.19000
N 	N 	0.24290 0.18390 0.66053 -0.29100
N 	N 	0.23300 0.12430 0.52569 -0.19300
N 	N 	0.94080 0.67590 0.70610 -0.28800
N 	N 	0.52140 0.76890 0.72740 -0.28000
C 	C 	0.26820 0.18340 0.46833 0.17300
N 	N 	0.29470 0.22530 0.41330 -0.28700
Mn	Mn	0.73110 0.72545 0.71230 1.25300
C 	C 	0.65260 0.46270 0.69286 0.16800
C 	C 	0.82260 0.98690 0.75089 0.17300
C 	C 	0.96250 0.13040 0.77910 0.17700
C 	C 	0.75860 0.66140 0.90331 0.18100
N 	N 	0.67360 0.55360 0.68471 -0.28700
N 	N 	0.79150 0.89810 0.73928 -0.28800
C 	C 	0.55000 0.31420 0.73658 0.16400
N 	N 	0.63730 0.35670 0.69520 -0.18600
N 	N 	0.84340 0.09090 0.76420 -0.19000
N 	N 	0.75710 0.68390 0.83947 -0.29100
N 	N 	0.76700 0.62430 0.97431 -0.19300
N 	N 	0.05920 0.17590 0.79390 -0.28900
N 	N 	0.47860 0.26890 0.77260 -0.28000
C 	C 	0.73180 0.68340 0.03167 0.17300
N 	N 	0.70530 0.72530 0.08670 -0.28700
