data_crystal

_cell_length_a 21.49340
_cell_length_b 21.49340
_cell_length_c 21.49340
_cell_angle_alpha 90.00000
_cell_angle_beta  90.00000
_cell_angle_gamma 90.00000

_symmetry_space_group_name_	'P 1'
_symmetry_space_group_name_H-M	'P 1'

loop_
_symmetry_equiv_pos_as_xyz
  x,y,z

loop_
_atom_site_label
_atom_site_type_symbol
_atom_site_fract_x
_atom_site_fract_y
_atom_site_fract_z
_atom_site_charge
Al	Al	0.26072 0.19852 0.31923 2.39000
C 	C 	0.45670 0.21435 0.33007 -0.18100
C 	C 	0.51089 0.21889 0.29435 0.12200
H 	H 	0.50890 0.23010 0.25160 0.00800
C 	C 	0.56837 0.20653 0.32299 -0.19000
C 	C 	0.57052 0.19520 0.38539 0.02900
H 	H 	0.60960 0.18870 0.40500 0.04300
C 	C 	0.51682 0.19300 0.42029 0.03000
C 	C 	0.45909 0.20230 0.39172 0.02800
H 	H 	0.42190 0.20030 0.41550 0.04900
C 	C 	0.39346 0.22341 0.30089 0.56900
C 	C 	0.62813 0.20719 0.28809 0.58400
N 	N 	0.52400 0.19120 0.48586 -0.07800
O 	O 	0.34830 0.19978 0.33058 -0.73700
O 	O 	0.38945 0.25297 0.25128 -0.73600
O 	O 	0.67323 0.18120 0.31413 -0.74600
O 	O 	0.62961 0.23320 0.23604 -0.73400
Al	Al	0.73928 0.80148 0.31923 2.39100
C 	C 	0.54330 0.78565 0.33007 -0.18000
C 	C 	0.48911 0.78111 0.29435 0.12300
H 	H 	0.49110 0.76990 0.25160 0.00900
C 	C 	0.43163 0.79347 0.32299 -0.19000
C 	C 	0.42948 0.80480 0.38539 0.02900
H 	H 	0.39040 0.81130 0.40500 0.04300
C 	C 	0.48318 0.80700 0.42029 0.03000
C 	C 	0.54091 0.79770 0.39172 0.02800
H 	H 	0.57810 0.79970 0.41550 0.04900
C 	C 	0.60654 0.77659 0.30089 0.56900
C 	C 	0.37187 0.79281 0.28809 0.58400
N 	N 	0.47600 0.80880 0.48586 -0.07800
O 	O 	0.65170 0.80022 0.33058 -0.73700
O 	O 	0.61055 0.74703 0.25128 -0.73600
O 	O 	0.32677 0.81880 0.31413 -0.74600
O 	O 	0.37039 0.76680 0.23604 -0.73400
Al	Al	0.73928 0.19852 0.68077 2.39100
C 	C 	0.54330 0.21435 0.66993 -0.18000
C 	C 	0.48911 0.21889 0.70565 0.12300
H 	H 	0.49110 0.23010 0.74840 0.00900
C 	C 	0.43163 0.20653 0.67701 -0.19000
C 	C 	0.42948 0.19520 0.61461 0.02900
H 	H 	0.39040 0.18870 0.59500 0.04300
C 	C 	0.48318 0.19300 0.57971 0.03000
C 	C 	0.54091 0.20230 0.60828 0.02800
H 	H 	0.57810 0.20030 0.58450 0.04900
C 	C 	0.60654 0.22341 0.69911 0.56900
C 	C 	0.37187 0.20719 0.71191 0.58400
N 	N 	0.47600 0.19120 0.51414 -0.07800
O 	O 	0.65170 0.19978 0.66942 -0.73700
O 	O 	0.61055 0.25297 0.74872 -0.73600
O 	O 	0.32677 0.18120 0.68587 -0.74600
O 	O 	0.37039 0.23320 0.76396 -0.73400
Al	Al	0.26072 0.80148 0.68077 2.39100
C 	C 	0.45670 0.78565 0.66993 -0.18000
C 	C 	0.51089 0.78111 0.70565 0.12300
H 	H 	0.50890 0.76990 0.74840 0.00900
C 	C 	0.56837 0.79347 0.67701 -0.19000
C 	C 	0.57052 0.80480 0.61461 0.02900
H 	H 	0.60960 0.81130 0.59500 0.04300
C 	C 	0.51682 0.80700 0.57971 0.03000
C 	C 	0.45909 0.79770 0.60828 0.02800
H 	H 	0.42190 0.79970 0.58450 0.04900
C 	C 	0.39346 0.77659 0.69911 0.56900
C 	C 	0.62813 0.79281 0.71191 0.58400
N 	N 	0.52400 0.80880 0.51414 -0.07800
O 	O 	0.34830 0.80022 0.66942 -0.73700
O 	O 	0.38945 0.74703 0.74872 -0.73600
O 	O 	0.67323 0.81880 0.68587 -0.74600
O 	O 	0.62961 0.76680 0.76396 -0.73400
Al	Al	0.31923 0.26072 0.19852 2.39100
C 	C 	0.33007 0.45670 0.21435 -0.18000
C 	C 	0.29435 0.51089 0.21889 0.12300
H 	H 	0.25160 0.50890 0.23010 0.00900
C 	C 	0.32299 0.56837 0.20653 -0.19000
C 	C 	0.38539 0.57052 0.19520 0.02900
H 	H 	0.40500 0.60960 0.18870 0.04300
C 	C 	0.42029 0.51682 0.19300 0.03000
C 	C 	0.39172 0.45909 0.20230 0.02800
H 	H 	0.41550 0.42190 0.20030 0.04900
C 	C 	0.30089 0.39346 0.22341 0.56900
C 	C 	0.28809 0.62813 0.20719 0.58400
N 	N 	0.48586 0.52400 0.19120 -0.07800
O 	O 	0.33058 0.34830 0.19978 -0.73700
O 	O 	0.25128 0.38945 0.25297 -0.73600
O 	O 	0.31413 0.67323 0.18120 -0.74600
O 	O 	0.23604 0.62961 0.23320 -0.73400
Al	Al	0.31923 0.73928 0.80148 2.39100
C 	C 	0.33007 0.54330 0.78565 -0.18000
C 	C 	0.29435 0.48911 0.78111 0.12300
H 	H 	0.25160 0.49110 0.76990 0.00900
C 	C 	0.32299 0.43163 0.79347 -0.19000
C 	C 	0.38539 0.42948 0.80480 0.02900
H 	H 	0.40500 0.39040 0.81130 0.04300
C 	C 	0.42029 0.48318 0.80700 0.03000
C 	C 	0.39172 0.54091 0.79770 0.02800
H 	H 	0.41550 0.57810 0.79970 0.04900
C 	C 	0.30089 0.60654 0.77659 0.56900
C 	C 	0.28809 0.37187 0.79281 0.58400
N 	N 	0.48586 0.47600 0.80880 -0.07800
O 	O 	0.33058 0.65170 0.80022 -0.73700
O 	O 	0.25128 0.61055 0.74703 -0.73600
O 	O 	0.31413 0.32677 0.81880 -0.74600
O 	O 	0.23604 0.37039 0.76680 -0.73400
Al	Al	0.68077 0.73928 0.19852 2.39100
C 	C 	0.66993 0.54330 0.21435 -0.18000
C 	C 	0.70565 0.48911 0.21889 0.12300
H 	H 	0.74840 0.49110 0.23010 0.00900
C 	C 	0.67701 0.43163 0.20653 -0.19000
C 	C 	0.61461 0.42948 0.19520 0.02900
H 	H 	0.59500 0.39040 0.18870 0.04300
C 	C 	0.57971 0.48318 0.19300 0.03000
C 	C 	0.60828 0.54091 0.20230 0.02800
H 	H 	0.58450 0.57810 0.20030 0.04900
C 	C 	0.69911 0.60654 0.22341 0.56900
C 	C 	0.71191 0.37187 0.20719 0.58400
N 	N 	0.51414 0.47600 0.19120 -0.07800
O 	O 	0.66942 0.65170 0.19978 -0.73700
O 	O 	0.74872 0.61055 0.25297 -0.73600
O 	O 	0.68587 0.32677 0.18120 -0.74600
O 	O 	0.76396 0.37039 0.23320 -0.73400
Al	Al	0.68077 0.26072 0.80148 2.39100
C 	C 	0.66993 0.45670 0.78565 -0.18000
C 	C 	0.70565 0.51089 0.78111 0.12300
H 	H 	0.74840 0.50890 0.76990 0.00900
C 	C 	0.67701 0.56837 0.79347 -0.19000
C 	C 	0.61461 0.57052 0.80480 0.02900
H 	H 	0.59500 0.60960 0.81130 0.04300
C 	C 	0.57971 0.51682 0.80700 0.03000
C 	C 	0.60828 0.45909 0.79770 0.02800
H 	H 	0.58450 0.42190 0.79970 0.04900
C 	C 	0.69911 0.39346 0.77659 0.56900
C 	C 	0.71191 0.62813 0.79281 0.58400
N 	N 	0.51414 0.52400 0.80880 -0.07800
O 	O 	0.66942 0.34830 0.80022 -0.73700
O 	O 	0.74872 0.38945 0.74703 -0.73600
O 	O 	0.68587 0.67323 0.81880 -0.74600
O 	O 	0.76396 0.62961 0.76680 -0.73400
Al	Al	0.19852 0.31923 0.26072 2.39100
C 	C 	0.21435 0.33007 0.45670 -0.18000
C 	C 	0.21889 0.29435 0.51089 0.12300
H 	H 	0.23010 0.25160 0.50890 0.00900
C 	C 	0.20653 0.32299 0.56837 -0.19000
C 	C 	0.19520 0.38539 0.57052 0.02900
H 	H 	0.18870 0.40500 0.60960 0.04300
C 	C 	0.19300 0.42029 0.51682 0.03000
C 	C 	0.20230 0.39172 0.45909 0.02800
H 	H 	0.20030 0.41550 0.42190 0.04900
C 	C 	0.22341 0.30089 0.39346 0.56900
C 	C 	0.20719 0.28809 0.62813 0.58400
N 	N 	0.19120 0.48586 0.52400 -0.07800
O 	O 	0.19978 0.33058 0.34830 -0.73700
O 	O 	0.25297 0.25128 0.38945 -0.73600
O 	O 	0.18120 0.31413 0.67323 -0.74600
O 	O 	0.23320 0.23604 0.62961 -0.73400
Al	Al	0.80148 0.31923 0.73928 2.39100
C 	C 	0.78565 0.33007 0.54330 -0.18000
C 	C 	0.78111 0.29435 0.48911 0.12300
H 	H 	0.76990 0.25160 0.49110 0.00900
C 	C 	0.79347 0.32299 0.43163 -0.19000
C 	C 	0.80480 0.38539 0.42948 0.02900
H 	H 	0.81130 0.40500 0.39040 0.04300
C 	C 	0.80700 0.42029 0.48318 0.03000
C 	C 	0.79770 0.39172 0.54091 0.02800
H 	H 	0.79970 0.41550 0.57810 0.04900
C 	C 	0.77659 0.30089 0.60654 0.56900
C 	C 	0.79281 0.28809 0.37187 0.58400
N 	N 	0.80880 0.48586 0.47600 -0.07800
O 	O 	0.80022 0.33058 0.65170 -0.73700
O 	O 	0.74703 0.25128 0.61055 -0.73600
O 	O 	0.81880 0.31413 0.32677 -0.74600
O 	O 	0.76680 0.23604 0.37039 -0.73400
Al	Al	0.19852 0.68077 0.73928 2.39100
C 	C 	0.21435 0.66993 0.54330 -0.18000
C 	C 	0.21889 0.70565 0.48911 0.12300
H 	H 	0.23010 0.74840 0.49110 0.00900
C 	C 	0.20653 0.67701 0.43163 -0.19000
C 	C 	0.19520 0.61461 0.42948 0.02900
H 	H 	0.18870 0.59500 0.39040 0.04300
C 	C 	0.19300 0.57971 0.48318 0.03000
C 	C 	0.20230 0.60828 0.54091 0.02800
H 	H 	0.20030 0.58450 0.57810 0.04900
C 	C 	0.22341 0.69911 0.60654 0.56900
C 	C 	0.20719 0.71191 0.37187 0.58400
N 	N 	0.19120 0.51414 0.47600 -0.07800
O 	O 	0.19978 0.66942 0.65170 -0.73700
O 	O 	0.25297 0.74872 0.61055 -0.73600
O 	O 	0.18120 0.68587 0.32677 -0.74600
O 	O 	0.23320 0.76396 0.37039 -0.73400
Al	Al	0.80148 0.68077 0.26072 2.39100
C 	C 	0.78565 0.66993 0.45670 -0.18000
C 	C 	0.78111 0.70565 0.51089 0.12300
H 	H 	0.76990 0.74840 0.50890 0.00900
C 	C 	0.79347 0.67701 0.56837 -0.19000
C 	C 	0.80480 0.61461 0.57052 0.02900
H 	H 	0.81130 0.59500 0.60960 0.04300
C 	C 	0.80700 0.57971 0.51682 0.03000
C 	C 	0.79770 0.60828 0.45909 0.02800
H 	H 	0.79970 0.58450 0.42190 0.04900
C 	C 	0.77659 0.69911 0.39346 0.56900
C 	C 	0.79281 0.71191 0.62813 0.58400
N 	N 	0.80880 0.51414 0.52400 -0.07800
O 	O 	0.80022 0.66942 0.34830 -0.73700
O 	O 	0.74703 0.74872 0.38945 -0.73600
O 	O 	0.81880 0.68587 0.67323 -0.74600
O 	O 	0.76680 0.76396 0.62961 -0.73400
Al	Al	0.69852 0.76072 0.81923 2.39100
C 	C 	0.71435 0.95670 0.83007 -0.18000
C 	C 	0.71889 0.01089 0.79435 0.12300
H 	H 	0.73010 0.00890 0.75160 0.00900
C 	C 	0.70653 0.06837 0.82299 -0.19000
C 	C 	0.69520 0.07052 0.88539 0.02900
H 	H 	0.68870 0.10960 0.90500 0.04300
C 	C 	0.69300 0.01682 0.92029 0.03000
C 	C 	0.70230 0.95909 0.89172 0.02800
H 	H 	0.70030 0.92190 0.91550 0.04900
C 	C 	0.72341 0.89346 0.80089 0.56900
C 	C 	0.70719 0.12813 0.78809 0.58400
N 	N 	0.69120 0.02400 0.98586 -0.07800
O 	O 	0.69978 0.84830 0.83058 -0.73700
O 	O 	0.75297 0.88945 0.75128 -0.73600
O 	O 	0.68120 0.17323 0.81413 -0.74600
O 	O 	0.73320 0.12961 0.73604 -0.73500
Al	Al	0.30148 0.23928 0.81923 2.39100
C 	C 	0.28565 0.04330 0.83007 -0.18000
C 	C 	0.28111 0.98911 0.79435 0.12300
H 	H 	0.26990 0.99110 0.75160 0.00900
C 	C 	0.29347 0.93163 0.82299 -0.19000
C 	C 	0.30480 0.92948 0.88539 0.02900
H 	H 	0.31130 0.89040 0.90500 0.04300
C 	C 	0.30700 0.98318 0.92029 0.03000
C 	C 	0.29770 0.04091 0.89172 0.02800
H 	H 	0.29970 0.07810 0.91550 0.04900
C 	C 	0.27659 0.10654 0.80089 0.56900
C 	C 	0.29281 0.87187 0.78809 0.58400
N 	N 	0.30880 0.97600 0.98586 -0.07800
O 	O 	0.30022 0.15170 0.83058 -0.73700
O 	O 	0.24703 0.11055 0.75128 -0.73600
O 	O 	0.31880 0.82677 0.81413 -0.74600
O 	O 	0.26680 0.87039 0.73604 -0.73500
Al	Al	0.69852 0.23928 0.18077 2.39100
C 	C 	0.71435 0.04330 0.16993 -0.18000
C 	C 	0.71889 0.98911 0.20565 0.12300
H 	H 	0.73010 0.99110 0.24840 0.00900
C 	C 	0.70653 0.93163 0.17701 -0.19000
C 	C 	0.69520 0.92948 0.11461 0.02900
H 	H 	0.68870 0.89040 0.09500 0.04300
C 	C 	0.69300 0.98318 0.07971 0.03000
C 	C 	0.70230 0.04091 0.10828 0.02800
H 	H 	0.70030 0.07810 0.08450 0.04900
C 	C 	0.72341 0.10654 0.19911 0.56900
C 	C 	0.70719 0.87187 0.21191 0.58400
N 	N 	0.69120 0.97600 0.01414 -0.07800
O 	O 	0.69978 0.15170 0.16942 -0.73700
O 	O 	0.75297 0.11055 0.24872 -0.73600
O 	O 	0.68120 0.82677 0.18587 -0.74600
O 	O 	0.73320 0.87039 0.26396 -0.73500
Al	Al	0.30148 0.76072 0.18077 2.39100
C 	C 	0.28565 0.95670 0.16993 -0.18000
C 	C 	0.28111 0.01089 0.20565 0.12300
H 	H 	0.26990 0.00890 0.24840 0.00900
C 	C 	0.29347 0.06837 0.17701 -0.19000
C 	C 	0.30480 0.07052 0.11461 0.02900
H 	H 	0.31130 0.10960 0.09500 0.04300
C 	C 	0.30700 0.01682 0.07971 0.03000
C 	C 	0.29770 0.95909 0.10828 0.02800
H 	H 	0.29970 0.92190 0.08450 0.04900
C 	C 	0.27659 0.89346 0.19911 0.56900
C 	C 	0.29281 0.12813 0.21191 0.58400
N 	N 	0.30880 0.02400 0.01414 -0.07800
O 	O 	0.30022 0.84830 0.16942 -0.73700
O 	O 	0.24703 0.88945 0.24872 -0.73600
O 	O 	0.31880 0.17323 0.18587 -0.74600
O 	O 	0.26680 0.12961 0.26396 -0.73500
Al	Al	0.76072 0.81923 0.69852 2.39100
C 	C 	0.95670 0.83007 0.71435 -0.18000
C 	C 	0.01089 0.79435 0.71889 0.12300
H 	H 	0.00890 0.75160 0.73010 0.00900
C 	C 	0.06837 0.82299 0.70653 -0.19000
C 	C 	0.07052 0.88539 0.69520 0.02900
H 	H 	0.10960 0.90500 0.68870 0.04300
C 	C 	0.01682 0.92029 0.69300 0.03000
C 	C 	0.95909 0.89172 0.70230 0.02800
H 	H 	0.92190 0.91550 0.70030 0.04900
C 	C 	0.89346 0.80089 0.72341 0.56900
C 	C 	0.12813 0.78809 0.70719 0.58400
N 	N 	0.02400 0.98586 0.69120 -0.07800
O 	O 	0.84830 0.83058 0.69978 -0.73700
O 	O 	0.88945 0.75128 0.75297 -0.73600
O 	O 	0.17323 0.81413 0.68120 -0.74600
O 	O 	0.12961 0.73604 0.73320 -0.73500
Al	Al	0.23928 0.81923 0.30148 2.39100
C 	C 	0.04330 0.83007 0.28565 -0.18000
C 	C 	0.98911 0.79435 0.28111 0.12300
H 	H 	0.99110 0.75160 0.26990 0.00900
C 	C 	0.93163 0.82299 0.29347 -0.19000
C 	C 	0.92948 0.88539 0.30480 0.02900
H 	H 	0.89040 0.90500 0.31130 0.04300
C 	C 	0.98318 0.92029 0.30700 0.03000
C 	C 	0.04091 0.89172 0.29770 0.02800
H 	H 	0.07810 0.91550 0.29970 0.04900
C 	C 	0.10654 0.80089 0.27659 0.56900
C 	C 	0.87187 0.78809 0.29281 0.58400
N 	N 	0.97600 0.98586 0.30880 -0.07800
O 	O 	0.15170 0.83058 0.30022 -0.73700
O 	O 	0.11055 0.75128 0.24703 -0.73600
O 	O 	0.82677 0.81413 0.31880 -0.74600
O 	O 	0.87039 0.73604 0.26680 -0.73500
Al	Al	0.23928 0.18077 0.69852 2.39100
C 	C 	0.04330 0.16993 0.71435 -0.18000
C 	C 	0.98911 0.20565 0.71889 0.12300
H 	H 	0.99110 0.24840 0.73010 0.00900
C 	C 	0.93163 0.17701 0.70653 -0.19000
C 	C 	0.92948 0.11461 0.69520 0.02900
H 	H 	0.89040 0.09500 0.68870 0.04300
C 	C 	0.98318 0.07971 0.69300 0.03000
C 	C 	0.04091 0.10828 0.70230 0.02800
H 	H 	0.07810 0.08450 0.70030 0.04900
C 	C 	0.10654 0.19911 0.72341 0.56900
C 	C 	0.87187 0.21191 0.70719 0.58400
N 	N 	0.97600 0.01414 0.69120 -0.07800
O 	O 	0.15170 0.16942 0.69978 -0.73700
O 	O 	0.11055 0.24872 0.75297 -0.73600
O 	O 	0.82677 0.18587 0.68120 -0.74600
O 	O 	0.87039 0.26396 0.73320 -0.73500
Al	Al	0.76072 0.18077 0.30148 2.39100
C 	C 	0.95670 0.16993 0.28565 -0.18000
C 	C 	0.01089 0.20565 0.28111 0.12300
H 	H 	0.00890 0.24840 0.26990 0.00900
C 	C 	0.06837 0.17701 0.29347 -0.19000
C 	C 	0.07052 0.11461 0.30480 0.02900
H 	H 	0.10960 0.09500 0.31130 0.04300
C 	C 	0.01682 0.07971 0.30700 0.03000
C 	C 	0.95909 0.10828 0.29770 0.02800
H 	H 	0.92190 0.08450 0.29970 0.04900
C 	C 	0.89346 0.19911 0.27659 0.56900
C 	C 	0.12813 0.21191 0.29281 0.58400
N 	N 	0.02400 0.01414 0.30880 -0.07800
O 	O 	0.84830 0.16942 0.30022 -0.73700
O 	O 	0.88945 0.24872 0.24703 -0.73600
O 	O 	0.17323 0.18587 0.31880 -0.74600
O 	O 	0.12961 0.26396 0.26680 -0.73500
Al	Al	0.81923 0.69852 0.76072 2.39100
C 	C 	0.83007 0.71435 0.95670 -0.18000
C 	C 	0.79435 0.71889 0.01089 0.12300
H 	H 	0.75160 0.73010 0.00890 0.00900
C 	C 	0.82299 0.70653 0.06837 -0.19000
C 	C 	0.88539 0.69520 0.07052 0.02900
H 	H 	0.90500 0.68870 0.10960 0.04300
C 	C 	0.92029 0.69300 0.01682 0.03000
C 	C 	0.89172 0.70230 0.95909 0.02800
H 	H 	0.91550 0.70030 0.92190 0.04900
C 	C 	0.80089 0.72341 0.89346 0.56900
C 	C 	0.78809 0.70719 0.12813 0.58400
N 	N 	0.98586 0.69120 0.02400 -0.07800
O 	O 	0.83058 0.69978 0.84830 -0.73700
O 	O 	0.75128 0.75297 0.88945 -0.73600
O 	O 	0.81413 0.68120 0.17323 -0.74600
O 	O 	0.73604 0.73320 0.12961 -0.73500
Al	Al	0.81923 0.30148 0.23928 2.39100
C 	C 	0.83007 0.28565 0.04330 -0.18000
C 	C 	0.79435 0.28111 0.98911 0.12300
H 	H 	0.75160 0.26990 0.99110 0.00900
C 	C 	0.82299 0.29347 0.93163 -0.19000
C 	C 	0.88539 0.30480 0.92948 0.02900
H 	H 	0.90500 0.31130 0.89040 0.04300
C 	C 	0.92029 0.30700 0.98318 0.03000
C 	C 	0.89172 0.29770 0.04091 0.02800
H 	H 	0.91550 0.29970 0.07810 0.04900
C 	C 	0.80089 0.27659 0.10654 0.56900
C 	C 	0.78809 0.29281 0.87187 0.58400
N 	N 	0.98586 0.30880 0.97600 -0.07800
O 	O 	0.83058 0.30022 0.15170 -0.73700
O 	O 	0.75128 0.24703 0.11055 -0.73600
O 	O 	0.81413 0.31880 0.82677 -0.74600
O 	O 	0.73604 0.26680 0.87039 -0.73500
Al	Al	0.18077 0.69852 0.23928 2.39100
C 	C 	0.16993 0.71435 0.04330 -0.18000
C 	C 	0.20565 0.71889 0.98911 0.12300
H 	H 	0.24840 0.73010 0.99110 0.00900
C 	C 	0.17701 0.70653 0.93163 -0.19000
C 	C 	0.11461 0.69520 0.92948 0.02900
H 	H 	0.09500 0.68870 0.89040 0.04300
C 	C 	0.07971 0.69300 0.98318 0.03000
C 	C 	0.10828 0.70230 0.04091 0.02800
H 	H 	0.08450 0.70030 0.07810 0.04900
C 	C 	0.19911 0.72341 0.10654 0.56900
C 	C 	0.21191 0.70719 0.87187 0.58400
N 	N 	0.01414 0.69120 0.97600 -0.07800
O 	O 	0.16942 0.69978 0.15170 -0.73700
O 	O 	0.24872 0.75297 0.11055 -0.73600
O 	O 	0.18587 0.68120 0.82677 -0.74600
O 	O 	0.26396 0.73320 0.87039 -0.73500
Al	Al	0.18077 0.30148 0.76072 2.39100
C 	C 	0.16993 0.28565 0.95670 -0.18000
C 	C 	0.20565 0.28111 0.01089 0.12300
H 	H 	0.24840 0.26990 0.00890 0.00900
C 	C 	0.17701 0.29347 0.06837 -0.19000
C 	C 	0.11461 0.30480 0.07052 0.02900
H 	H 	0.09500 0.31130 0.10960 0.04300
C 	C 	0.07971 0.30700 0.01682 0.03000
C 	C 	0.10828 0.29770 0.95909 0.02800
H 	H 	0.08450 0.29970 0.92190 0.04900
C 	C 	0.19911 0.27659 0.89346 0.56900
C 	C 	0.21191 0.29281 0.12813 0.58400
N 	N 	0.01414 0.30880 0.02400 -0.07800
O 	O 	0.16942 0.30022 0.84830 -0.73700
O 	O 	0.24872 0.24703 0.88945 -0.73600
O 	O 	0.18587 0.31880 0.17323 -0.74600
O 	O 	0.26396 0.26680 0.12961 -0.73500
O 	O 	0.25938 0.25938 0.25938 -1.36000
O 	O 	0.74062 0.74062 0.25938 -1.36000
O 	O 	0.74062 0.25938 0.74062 -1.36000
O 	O 	0.25938 0.74062 0.74062 -1.36000
O 	O 	0.75938 0.75938 0.75938 -1.36000
O 	O 	0.24062 0.24062 0.75938 -1.36000
O 	O 	0.75938 0.24062 0.24062 -1.36000
O 	O 	0.24062 0.75938 0.24062 -1.36000
