data_crystal

_cell_length_a 36.45140
_cell_length_b 36.45140
_cell_length_c 36.45140
_cell_angle_alpha 90.00000
_cell_angle_beta  90.00000
_cell_angle_gamma 90.00000

_symmetry_space_group_name_	'P 1'
_symmetry_space_group_name_H-M	'P 1'

loop_
_symmetry_equiv_pos_as_xyz
  x,y,z

loop_
_atom_site_label
_atom_site_type_symbol
_atom_site_fract_x
_atom_site_fract_y
_atom_site_fract_z
_atom_site_charge
O 	O 	0.79959 0.25634 0.39018 -0.59600
O 	O 	0.79959 0.75634 0.89018 -0.59600
O 	O 	0.29959 0.25634 0.89018 -0.59600
O 	O 	0.29959 0.75634 0.39018 -0.59600
O 	O 	0.95041 0.99366 0.89018 -0.59600
O 	O 	0.95041 0.49366 0.39018 -0.59600
O 	O 	0.45041 0.99366 0.39018 -0.59600
O 	O 	0.45041 0.49366 0.89018 -0.59600
O 	O 	0.45041 0.75634 0.35982 -0.59600
O 	O 	0.45041 0.25634 0.85982 -0.59600
O 	O 	0.95041 0.75634 0.85982 -0.59600
O 	O 	0.95041 0.25634 0.35982 -0.59600
O 	O 	0.29959 0.49366 0.85982 -0.59600
O 	O 	0.29959 0.99366 0.35982 -0.59600
O 	O 	0.79959 0.49366 0.35982 -0.59600
O 	O 	0.79959 0.99366 0.85982 -0.59600
O 	O 	0.39018 0.79959 0.25634 -0.59600
O 	O 	0.39018 0.29959 0.75634 -0.59600
O 	O 	0.89018 0.79959 0.75634 -0.59600
O 	O 	0.89018 0.29959 0.25634 -0.59600
O 	O 	0.89018 0.95041 0.99366 -0.59600
O 	O 	0.89018 0.45041 0.49366 -0.59600
O 	O 	0.39018 0.95041 0.49366 -0.59600
O 	O 	0.39018 0.45041 0.99366 -0.59600
O 	O 	0.35982 0.45041 0.75634 -0.59600
O 	O 	0.35982 0.95041 0.25634 -0.59600
O 	O 	0.85982 0.45041 0.25634 -0.59600
O 	O 	0.85982 0.95041 0.75634 -0.59600
O 	O 	0.85982 0.29959 0.49366 -0.59600
O 	O 	0.85982 0.79959 0.99366 -0.59600
O 	O 	0.35982 0.29959 0.99366 -0.59600
O 	O 	0.35982 0.79959 0.49366 -0.59600
O 	O 	0.25634 0.39018 0.79959 -0.59500
O 	O 	0.25634 0.89018 0.29959 -0.59500
O 	O 	0.75634 0.39018 0.29959 -0.59500
O 	O 	0.75634 0.89018 0.79959 -0.59500
O 	O 	0.99366 0.89018 0.95041 -0.59500
O 	O 	0.99366 0.39018 0.45041 -0.59500
O 	O 	0.49366 0.89018 0.45041 -0.59500
O 	O 	0.49366 0.39018 0.95041 -0.59500
O 	O 	0.75634 0.35982 0.45041 -0.59500
O 	O 	0.75634 0.85982 0.95041 -0.59500
O 	O 	0.25634 0.35982 0.95041 -0.59500
O 	O 	0.25634 0.85982 0.45041 -0.59500
O 	O 	0.49366 0.85982 0.29959 -0.59500
O 	O 	0.49366 0.35982 0.79959 -0.59500
O 	O 	0.99366 0.85982 0.79959 -0.59500
O 	O 	0.99366 0.35982 0.29959 -0.59500
O 	O 	0.00634 0.04959 0.10982 -0.59500
O 	O 	0.00634 0.54959 0.60982 -0.59500
O 	O 	0.50634 0.04959 0.60982 -0.59500
O 	O 	0.50634 0.54959 0.10982 -0.59500
O 	O 	0.74366 0.20041 0.60982 -0.59500
O 	O 	0.74366 0.70041 0.10982 -0.59500
O 	O 	0.24366 0.20041 0.10982 -0.59500
O 	O 	0.24366 0.70041 0.60982 -0.59500
O 	O 	0.50634 0.70041 0.14018 -0.59500
O 	O 	0.50634 0.20041 0.64018 -0.59500
O 	O 	0.00634 0.70041 0.64018 -0.59500
O 	O 	0.00634 0.20041 0.14018 -0.59500
O 	O 	0.24366 0.54959 0.64018 -0.59500
O 	O 	0.24366 0.04959 0.14018 -0.59500
O 	O 	0.74366 0.54959 0.14018 -0.59500
O 	O 	0.74366 0.04959 0.64018 -0.59500
O 	O 	0.54959 0.64018 0.24366 -0.59500
O 	O 	0.54959 0.14018 0.74366 -0.59500
O 	O 	0.04959 0.64018 0.74366 -0.59500
O 	O 	0.04959 0.14018 0.24366 -0.59500
O 	O 	0.70041 0.14018 0.50634 -0.59500
O 	O 	0.70041 0.64018 0.00634 -0.59500
O 	O 	0.20041 0.14018 0.00634 -0.59500
O 	O 	0.20041 0.64018 0.50634 -0.59500
O 	O 	0.20041 0.60982 0.74366 -0.59500
O 	O 	0.20041 0.10982 0.24366 -0.59500
O 	O 	0.70041 0.60982 0.24366 -0.59500
O 	O 	0.70041 0.10982 0.74366 -0.59500
O 	O 	0.04959 0.10982 0.00634 -0.59500
O 	O 	0.04959 0.60982 0.50634 -0.59500
O 	O 	0.54959 0.10982 0.50634 -0.59500
O 	O 	0.54959 0.60982 0.00634 -0.59500
O 	O 	0.14018 0.50634 0.70041 -0.59500
O 	O 	0.14018 0.00634 0.20041 -0.59500
O 	O 	0.64018 0.50634 0.20041 -0.59500
O 	O 	0.64018 0.00634 0.70041 -0.59500
O 	O 	0.64018 0.24366 0.54959 -0.59500
O 	O 	0.64018 0.74366 0.04959 -0.59500
O 	O 	0.14018 0.24366 0.04959 -0.59500
O 	O 	0.14018 0.74366 0.54959 -0.59500
O 	O 	0.10982 0.00634 0.04959 -0.59500
O 	O 	0.10982 0.50634 0.54959 -0.59500
O 	O 	0.60982 0.00634 0.54959 -0.59500
O 	O 	0.60982 0.50634 0.04959 -0.59500
O 	O 	0.60982 0.74366 0.20041 -0.59500
O 	O 	0.60982 0.24366 0.70041 -0.59500
O 	O 	0.10982 0.74366 0.70041 -0.59500
O 	O 	0.10982 0.24366 0.20041 -0.59500
O 	O 	0.20041 0.74366 0.60982 -0.59500
O 	O 	0.20041 0.24366 0.10982 -0.59500
O 	O 	0.70041 0.74366 0.10982 -0.59500
O 	O 	0.70041 0.24366 0.60982 -0.59500
O 	O 	0.04959 0.00634 0.10982 -0.59500
O 	O 	0.04959 0.50634 0.60982 -0.59500
O 	O 	0.54959 0.00634 0.60982 -0.59500
O 	O 	0.54959 0.50634 0.10982 -0.59500
O 	O 	0.54959 0.24366 0.64018 -0.59500
O 	O 	0.54959 0.74366 0.14018 -0.59500
O 	O 	0.04959 0.24366 0.14018 -0.59500
O 	O 	0.04959 0.74366 0.64018 -0.59500
O 	O 	0.70041 0.50634 0.14018 -0.59500
O 	O 	0.70041 0.00634 0.64018 -0.59500
O 	O 	0.20041 0.50634 0.64018 -0.59500
O 	O 	0.20041 0.00634 0.14018 -0.59500
O 	O 	0.60982 0.20041 0.74366 -0.59500
O 	O 	0.60982 0.70041 0.24366 -0.59500
O 	O 	0.10982 0.20041 0.24366 -0.59500
O 	O 	0.10982 0.70041 0.74366 -0.59500
O 	O 	0.10982 0.04959 0.00634 -0.59500
O 	O 	0.10982 0.54959 0.50634 -0.59500
O 	O 	0.60982 0.04959 0.50634 -0.59500
O 	O 	0.60982 0.54959 0.00634 -0.59500
O 	O 	0.64018 0.54959 0.24366 -0.59500
O 	O 	0.64018 0.04959 0.74366 -0.59500
O 	O 	0.14018 0.54959 0.74366 -0.59500
O 	O 	0.14018 0.04959 0.24366 -0.59500
O 	O 	0.14018 0.70041 0.50634 -0.59500
O 	O 	0.14018 0.20041 0.00634 -0.59500
O 	O 	0.64018 0.70041 0.00634 -0.59500
O 	O 	0.64018 0.20041 0.50634 -0.59500
O 	O 	0.74366 0.60982 0.20041 -0.59500
O 	O 	0.74366 0.10982 0.70041 -0.59500
O 	O 	0.24366 0.60982 0.70041 -0.59500
O 	O 	0.24366 0.10982 0.20041 -0.59500
O 	O 	0.00634 0.10982 0.04959 -0.59500
O 	O 	0.00634 0.60982 0.54959 -0.59500
O 	O 	0.50634 0.10982 0.54959 -0.59500
O 	O 	0.50634 0.60982 0.04959 -0.59500
O 	O 	0.24366 0.64018 0.54959 -0.59500
O 	O 	0.24366 0.14018 0.04959 -0.59500
O 	O 	0.74366 0.64018 0.04959 -0.59500
O 	O 	0.74366 0.14018 0.54959 -0.59500
O 	O 	0.50634 0.14018 0.70041 -0.59500
O 	O 	0.50634 0.64018 0.20041 -0.59500
O 	O 	0.00634 0.14018 0.20041 -0.59500
O 	O 	0.00634 0.64018 0.70041 -0.59500
O 	O 	0.99366 0.95041 0.89018 -0.59500
O 	O 	0.99366 0.45041 0.39018 -0.59500
O 	O 	0.49366 0.95041 0.39018 -0.59500
O 	O 	0.49366 0.45041 0.89018 -0.59500
O 	O 	0.25634 0.79959 0.39018 -0.59500
O 	O 	0.25634 0.29959 0.89018 -0.59500
O 	O 	0.75634 0.79959 0.89018 -0.59500
O 	O 	0.75634 0.29959 0.39018 -0.59500
O 	O 	0.49366 0.29959 0.85982 -0.59500
O 	O 	0.49366 0.79959 0.35982 -0.59500
O 	O 	0.99366 0.29959 0.35982 -0.59500
O 	O 	0.99366 0.79959 0.85982 -0.59500
O 	O 	0.75634 0.45041 0.35982 -0.59500
O 	O 	0.75634 0.95041 0.85982 -0.59500
O 	O 	0.25634 0.45041 0.85982 -0.59500
O 	O 	0.25634 0.95041 0.35982 -0.59500
O 	O 	0.45041 0.35982 0.75634 -0.59500
O 	O 	0.45041 0.85982 0.25634 -0.59500
O 	O 	0.95041 0.35982 0.25634 -0.59500
O 	O 	0.95041 0.85982 0.75634 -0.59500
O 	O 	0.29959 0.85982 0.49366 -0.59500
O 	O 	0.29959 0.35982 0.99366 -0.59500
O 	O 	0.79959 0.85982 0.99366 -0.59500
O 	O 	0.79959 0.35982 0.49366 -0.59500
O 	O 	0.79959 0.39018 0.25634 -0.59500
O 	O 	0.79959 0.89018 0.75634 -0.59500
O 	O 	0.29959 0.39018 0.75634 -0.59500
O 	O 	0.29959 0.89018 0.25634 -0.59500
O 	O 	0.95041 0.89018 0.99366 -0.59500
O 	O 	0.95041 0.39018 0.49366 -0.59500
O 	O 	0.45041 0.89018 0.49366 -0.59500
O 	O 	0.45041 0.39018 0.99366 -0.59500
O 	O 	0.85982 0.49366 0.29959 -0.59500
O 	O 	0.85982 0.99366 0.79959 -0.59500
O 	O 	0.35982 0.49366 0.79959 -0.59500
O 	O 	0.35982 0.99366 0.29959 -0.59500
O 	O 	0.35982 0.75634 0.45041 -0.59500
O 	O 	0.35982 0.25634 0.95041 -0.59500
O 	O 	0.85982 0.75634 0.95041 -0.59500
O 	O 	0.85982 0.25634 0.45041 -0.59500
O 	O 	0.89018 0.99366 0.95041 -0.59500
O 	O 	0.89018 0.49366 0.45041 -0.59500
O 	O 	0.39018 0.99366 0.45041 -0.59500
O 	O 	0.39018 0.49366 0.95041 -0.59500
O 	O 	0.39018 0.25634 0.79959 -0.59500
O 	O 	0.39018 0.75634 0.29959 -0.59500
O 	O 	0.89018 0.25634 0.29959 -0.59500
O 	O 	0.89018 0.75634 0.79959 -0.59500
Ce	Ce	0.79970 0.22670 0.45030 2.02700
O 	O 	0.76430 0.18090 0.48570 -0.92800
Ce	Ce	0.79970 0.72670 0.95030 2.02700
O 	O 	0.76430 0.68090 0.98570 -0.92800
Ce	Ce	0.95030 0.02330 0.95030 2.02700
O 	O 	0.98570 0.06910 0.98570 -0.92800
Ce	Ce	0.95030 0.52330 0.45030 2.02700
O 	O 	0.98570 0.56910 0.48570 -0.92800
Ce	Ce	0.45030 0.02330 0.45030 2.02700
O 	O 	0.48570 0.06910 0.48570 -0.92800
Ce	Ce	0.45030 0.52330 0.95030 2.02700
O 	O 	0.48570 0.56910 0.98570 -0.92800
Ce	Ce	0.45030 0.72670 0.29970 2.02700
O 	O 	0.48570 0.68090 0.26430 -0.92800
Ce	Ce	0.95030 0.72670 0.79970 2.02700
O 	O 	0.98570 0.68090 0.76430 -0.92800
Ce	Ce	0.29970 0.52330 0.79970 2.02700
O 	O 	0.26430 0.56910 0.76430 -0.92800
Ce	Ce	0.29970 0.02330 0.29970 2.02700
O 	O 	0.26430 0.06910 0.26430 -0.92800
Ce	Ce	0.45030 0.79970 0.22670 2.02700
O 	O 	0.48570 0.76430 0.18090 -0.92800
Ce	Ce	0.95030 0.79970 0.72670 2.02700
O 	O 	0.98570 0.76430 0.68090 -0.92800
Ce	Ce	0.95030 0.95030 0.02330 2.02700
O 	O 	0.98570 0.98570 0.06910 -0.92800
Ce	Ce	0.95030 0.45030 0.52330 2.02700
O 	O 	0.98570 0.48570 0.56910 -0.92800
Ce	Ce	0.45030 0.95030 0.52330 2.02700
O 	O 	0.48570 0.98570 0.56910 -0.92800
Ce	Ce	0.45030 0.45030 0.02330 2.02700
O 	O 	0.48570 0.48570 0.06910 -0.92800
Ce	Ce	0.29970 0.45030 0.72670 2.02700
O 	O 	0.26430 0.48570 0.68090 -0.92800
Ce	Ce	0.29970 0.95030 0.22670 2.02700
O 	O 	0.26430 0.98570 0.18090 -0.92800
Ce	Ce	0.79970 0.29970 0.52330 2.02700
O 	O 	0.76430 0.26430 0.56910 -0.92800
Ce	Ce	0.79970 0.79970 0.02330 2.02700
O 	O 	0.76430 0.76430 0.06910 -0.92800
Ce	Ce	0.22670 0.45030 0.79970 2.02700
O 	O 	0.18090 0.48570 0.76430 -0.92800
Ce	Ce	0.22670 0.95030 0.29970 2.02700
O 	O 	0.18090 0.98570 0.26430 -0.92800
Ce	Ce	0.02330 0.95030 0.95030 2.02700
O 	O 	0.06910 0.98570 0.98570 -0.92800
Ce	Ce	0.02330 0.45030 0.45030 2.02700
O 	O 	0.06910 0.48570 0.48570 -0.92800
Ce	Ce	0.52330 0.95030 0.45030 2.02700
O 	O 	0.56910 0.98570 0.48570 -0.92800
Ce	Ce	0.52330 0.45030 0.95030 2.02700
O 	O 	0.56910 0.48570 0.98570 -0.92800
Ce	Ce	0.72670 0.29970 0.45030 2.02700
O 	O 	0.68090 0.26430 0.48570 -0.92800
Ce	Ce	0.72670 0.79970 0.95030 2.02700
O 	O 	0.68090 0.76430 0.98570 -0.92800
Ce	Ce	0.52330 0.79970 0.29970 2.02700
O 	O 	0.56910 0.76430 0.26430 -0.92800
Ce	Ce	0.02330 0.79970 0.79970 2.02700
O 	O 	0.06910 0.76430 0.76430 -0.92800
Ce	Ce	0.97670 0.04970 0.04970 2.02700
O 	O 	0.93090 0.01430 0.01430 -0.92800
Ce	Ce	0.97670 0.54970 0.54970 2.02700
O 	O 	0.93090 0.51430 0.51430 -0.92800
Ce	Ce	0.47670 0.04970 0.54970 2.02700
O 	O 	0.43090 0.01430 0.51430 -0.92800
Ce	Ce	0.47670 0.54970 0.04970 2.02700
O 	O 	0.43090 0.51430 0.01430 -0.92800
Ce	Ce	0.77330 0.20030 0.54970 2.02700
O 	O 	0.81910 0.23570 0.51430 -0.92800
Ce	Ce	0.77330 0.70030 0.04970 2.02700
O 	O 	0.81910 0.73570 0.01430 -0.92800
Ce	Ce	0.47670 0.70030 0.20030 2.02700
O 	O 	0.43090 0.73570 0.23570 -0.92800
Ce	Ce	0.97670 0.70030 0.70030 2.02700
O 	O 	0.93090 0.73570 0.73570 -0.92800
Ce	Ce	0.27330 0.54970 0.70030 2.02700
O 	O 	0.31910 0.51430 0.73570 -0.92800
Ce	Ce	0.27330 0.04970 0.20030 2.02700
O 	O 	0.31910 0.01430 0.23570 -0.92800
Ce	Ce	0.54970 0.70030 0.27330 2.02700
O 	O 	0.51430 0.73570 0.31910 -0.92800
Ce	Ce	0.04970 0.70030 0.77330 2.02700
O 	O 	0.01430 0.73570 0.81910 -0.92800
Ce	Ce	0.70030 0.20030 0.47670 2.02700
O 	O 	0.73570 0.23570 0.43090 -0.92800
Ce	Ce	0.70030 0.70030 0.97670 2.02700
O 	O 	0.73570 0.73570 0.93090 -0.92800
Ce	Ce	0.20030 0.54970 0.77330 2.02700
O 	O 	0.23570 0.51430 0.81910 -0.92800
Ce	Ce	0.20030 0.04970 0.27330 2.02700
O 	O 	0.23570 0.01430 0.31910 -0.92800
Ce	Ce	0.04970 0.04970 0.97670 2.02700
O 	O 	0.01430 0.01430 0.93090 -0.92800
Ce	Ce	0.04970 0.54970 0.47670 2.02700
O 	O 	0.01430 0.51430 0.43090 -0.92800
Ce	Ce	0.54970 0.04970 0.47670 2.02700
O 	O 	0.51430 0.01430 0.43090 -0.92800
Ce	Ce	0.54970 0.54970 0.97670 2.02700
O 	O 	0.51430 0.51430 0.93090 -0.92800
Ce	Ce	0.20030 0.47670 0.70030 2.02700
O 	O 	0.23570 0.43090 0.73570 -0.92800
Ce	Ce	0.20030 0.97670 0.20030 2.02700
O 	O 	0.23570 0.93090 0.23570 -0.92800
Ce	Ce	0.70030 0.27330 0.54970 2.02700
O 	O 	0.73570 0.31910 0.51430 -0.92800
Ce	Ce	0.70030 0.77330 0.04970 2.02700
O 	O 	0.73570 0.81910 0.01430 -0.92800
Ce	Ce	0.04970 0.97670 0.04970 2.02700
O 	O 	0.01430 0.93090 0.01430 -0.92800
Ce	Ce	0.04970 0.47670 0.54970 2.02700
O 	O 	0.01430 0.43090 0.51430 -0.92800
Ce	Ce	0.54970 0.97670 0.54970 2.02700
O 	O 	0.51430 0.93090 0.51430 -0.92800
Ce	Ce	0.54970 0.47670 0.04970 2.02700
O 	O 	0.51430 0.43090 0.01430 -0.92800
Ce	Ce	0.54970 0.77330 0.20030 2.02700
O 	O 	0.51430 0.81910 0.23570 -0.92800
Ce	Ce	0.04970 0.77330 0.70030 2.02700
O 	O 	0.01430 0.81910 0.73570 -0.92800
Ce	Ce	0.20030 0.77330 0.54970 2.02700
O 	O 	0.23570 0.81910 0.51430 -0.92800
Ce	Ce	0.20030 0.27330 0.04970 2.02700
O 	O 	0.23570 0.31910 0.01430 -0.92800
Ce	Ce	0.54970 0.27330 0.70030 2.02700
O 	O 	0.51430 0.31910 0.73570 -0.92800
Ce	Ce	0.04970 0.27330 0.20030 2.02700
O 	O 	0.01430 0.31910 0.23570 -0.92800
Ce	Ce	0.70030 0.47670 0.20030 2.02700
O 	O 	0.73570 0.43090 0.23570 -0.92800
Ce	Ce	0.70030 0.97670 0.70030 2.02700
O 	O 	0.73570 0.93090 0.73570 -0.92800
Ce	Ce	0.54970 0.20030 0.77330 2.02700
O 	O 	0.51430 0.23570 0.81910 -0.92800
Ce	Ce	0.04970 0.20030 0.27330 2.02700
O 	O 	0.01430 0.23570 0.31910 -0.92800
Ce	Ce	0.70030 0.54970 0.27330 2.02700
O 	O 	0.73570 0.51430 0.31910 -0.92800
Ce	Ce	0.70030 0.04970 0.77330 2.02700
O 	O 	0.73570 0.01430 0.81910 -0.92800
Ce	Ce	0.20030 0.70030 0.47670 2.02700
O 	O 	0.23570 0.73570 0.43090 -0.92800
Ce	Ce	0.20030 0.20030 0.97670 2.02700
O 	O 	0.23570 0.23570 0.93090 -0.92800
Ce	Ce	0.77330 0.54970 0.20030 2.02700
O 	O 	0.81910 0.51430 0.23570 -0.92800
Ce	Ce	0.77330 0.04970 0.70030 2.02700
O 	O 	0.81910 0.01430 0.73570 -0.92800
Ce	Ce	0.27330 0.70030 0.54970 2.02700
O 	O 	0.31910 0.73570 0.51430 -0.92800
Ce	Ce	0.27330 0.20030 0.04970 2.02700
O 	O 	0.31910 0.23570 0.01430 -0.92800
Ce	Ce	0.47670 0.20030 0.70030 2.02700
O 	O 	0.43090 0.23570 0.73570 -0.92800
Ce	Ce	0.97670 0.20030 0.20030 2.02700
O 	O 	0.93090 0.23570 0.23570 -0.92800
Ce	Ce	0.22670 0.79970 0.45030 2.02700
O 	O 	0.18090 0.76430 0.48570 -0.92800
Ce	Ce	0.22670 0.29970 0.95030 2.02700
O 	O 	0.18090 0.26430 0.98570 -0.92800
Ce	Ce	0.52330 0.29970 0.79970 2.02700
O 	O 	0.56910 0.26430 0.76430 -0.92800
Ce	Ce	0.02330 0.29970 0.29970 2.02700
O 	O 	0.06910 0.26430 0.26430 -0.92800
Ce	Ce	0.72670 0.45030 0.29970 2.02700
O 	O 	0.68090 0.48570 0.26430 -0.92800
Ce	Ce	0.72670 0.95030 0.79970 2.02700
O 	O 	0.68090 0.98570 0.76430 -0.92800
Ce	Ce	0.45030 0.29970 0.72670 2.02700
O 	O 	0.48570 0.26430 0.68090 -0.92800
Ce	Ce	0.95030 0.29970 0.22670 2.02700
O 	O 	0.98570 0.26430 0.18090 -0.92800
Ce	Ce	0.29970 0.79970 0.52330 2.02700
O 	O 	0.26430 0.76430 0.56910 -0.92800
Ce	Ce	0.29970 0.29970 0.02330 2.02700
O 	O 	0.26430 0.26430 0.06910 -0.92800
Ce	Ce	0.79970 0.45030 0.22670 2.02700
O 	O 	0.76430 0.48570 0.18090 -0.92800
Ce	Ce	0.79970 0.95030 0.72670 2.02700
O 	O 	0.76430 0.98570 0.68090 -0.92800
Ce	Ce	0.79970 0.52330 0.29970 2.02700
O 	O 	0.76430 0.56910 0.26430 -0.92800
Ce	Ce	0.79970 0.02330 0.79970 2.02700
O 	O 	0.76430 0.06910 0.76430 -0.92800
Ce	Ce	0.29970 0.72670 0.45030 2.02700
O 	O 	0.26430 0.68090 0.48570 -0.92800
Ce	Ce	0.29970 0.22670 0.95030 2.02700
O 	O 	0.26430 0.18090 0.98570 -0.92800
Ce	Ce	0.45030 0.22670 0.79970 2.02700
O 	O 	0.48570 0.18090 0.76430 -0.92800
Ce	Ce	0.95030 0.22670 0.29970 2.02700
O 	O 	0.98570 0.18090 0.26430 -0.92800
O 	O 	0.78865 0.28865 0.46135 -0.86600
O 	O 	0.78865 0.78865 0.96135 -0.86600
O 	O 	0.96135 0.96135 0.96135 -0.86600
O 	O 	0.96135 0.46135 0.46135 -0.86600
O 	O 	0.46135 0.96135 0.46135 -0.86600
O 	O 	0.46135 0.46135 0.96135 -0.86600
O 	O 	0.46135 0.78865 0.28865 -0.86600
O 	O 	0.96135 0.78865 0.78865 -0.86600
O 	O 	0.28865 0.46135 0.78865 -0.86600
O 	O 	0.28865 0.96135 0.28865 -0.86600
O 	O 	0.96135 0.28865 0.28865 -0.86600
O 	O 	0.78865 0.96135 0.78865 -0.86600
O 	O 	0.28865 0.28865 0.96135 -0.86600
O 	O 	0.03865 0.03865 0.03865 -0.86600
O 	O 	0.03865 0.53865 0.53865 -0.86600
O 	O 	0.53865 0.03865 0.53865 -0.86600
O 	O 	0.53865 0.53865 0.03865 -0.86600
O 	O 	0.71135 0.21135 0.53865 -0.86600
O 	O 	0.71135 0.71135 0.03865 -0.86600
O 	O 	0.53865 0.71135 0.21135 -0.86600
O 	O 	0.03865 0.71135 0.71135 -0.86600
O 	O 	0.21135 0.53865 0.71135 -0.86600
O 	O 	0.21135 0.03865 0.21135 -0.86600
O 	O 	0.21135 0.71135 0.53865 -0.86600
O 	O 	0.21135 0.21135 0.03865 -0.86600
O 	O 	0.53865 0.21135 0.71135 -0.86600
O 	O 	0.03865 0.21135 0.21135 -0.86600
O 	O 	0.71135 0.53865 0.21135 -0.86600
O 	O 	0.71135 0.03865 0.71135 -0.86600
O 	O 	0.28865 0.78865 0.46135 -0.86600
O 	O 	0.46135 0.28865 0.78865 -0.86600
O 	O 	0.78865 0.46135 0.28865 -0.86600
C 	C 	0.78307 0.28307 0.37678 0.50100
C 	C 	0.80313 0.30313 0.34938 -0.26100
C 	C 	0.78307 0.78307 0.87678 0.50100
C 	C 	0.80313 0.80313 0.84938 -0.26100
C 	C 	0.96693 0.96693 0.87678 0.50100
C 	C 	0.94687 0.94687 0.84938 -0.26100
C 	C 	0.96693 0.46693 0.37678 0.50100
C 	C 	0.94687 0.44687 0.34938 -0.26100
C 	C 	0.46693 0.96693 0.37678 0.50100
C 	C 	0.44687 0.94687 0.34938 -0.26100
C 	C 	0.46693 0.46693 0.87678 0.50100
C 	C 	0.44687 0.44687 0.84938 -0.26100
C 	C 	0.46693 0.78307 0.37322 0.50100
C 	C 	0.44687 0.80313 0.40062 -0.26100
C 	C 	0.96693 0.78307 0.87322 0.50100
C 	C 	0.94687 0.80313 0.90062 -0.26100
C 	C 	0.28307 0.46693 0.87322 0.50100
C 	C 	0.30313 0.44687 0.90062 -0.26100
C 	C 	0.28307 0.96693 0.37322 0.50100
C 	C 	0.30313 0.94687 0.40062 -0.26100
C 	C 	0.37678 0.78307 0.28307 0.50100
C 	C 	0.34938 0.80313 0.30313 -0.26100
C 	C 	0.87678 0.78307 0.78307 0.50100
C 	C 	0.84938 0.80313 0.80313 -0.26100
C 	C 	0.87678 0.96693 0.96693 0.50100
C 	C 	0.84938 0.94687 0.94687 -0.26100
C 	C 	0.87678 0.46693 0.46693 0.50100
C 	C 	0.84938 0.44687 0.44687 -0.26100
C 	C 	0.37678 0.96693 0.46693 0.50100
C 	C 	0.34938 0.94687 0.44687 -0.26100
C 	C 	0.37678 0.46693 0.96693 0.50100
C 	C 	0.34938 0.44687 0.94687 -0.26100
C 	C 	0.37322 0.46693 0.78307 0.50100
C 	C 	0.40062 0.44687 0.80313 -0.26100
C 	C 	0.37322 0.96693 0.28307 0.50100
C 	C 	0.40062 0.94687 0.30313 -0.26100
C 	C 	0.87322 0.28307 0.46693 0.50100
C 	C 	0.90062 0.30313 0.44687 -0.26100
C 	C 	0.87322 0.78307 0.96693 0.50100
C 	C 	0.90062 0.80313 0.94687 -0.26100
C 	C 	0.28307 0.37678 0.78307 0.50100
C 	C 	0.30313 0.34938 0.80313 -0.26100
C 	C 	0.28307 0.87678 0.28307 0.50100
C 	C 	0.30313 0.84938 0.30313 -0.26100
C 	C 	0.78307 0.87678 0.78307 0.50100
C 	C 	0.80313 0.84938 0.80313 -0.26100
C 	C 	0.96693 0.87678 0.96693 0.50100
C 	C 	0.94687 0.84938 0.94687 -0.26100
C 	C 	0.96693 0.37678 0.46693 0.50100
C 	C 	0.94687 0.34938 0.44687 -0.26100
C 	C 	0.46693 0.87678 0.46693 0.50100
C 	C 	0.44687 0.84938 0.44687 -0.26100
C 	C 	0.46693 0.37678 0.96693 0.50100
C 	C 	0.44687 0.34938 0.94687 -0.26100
C 	C 	0.78307 0.37322 0.46693 0.50100
C 	C 	0.80313 0.40062 0.44687 -0.26100
C 	C 	0.78307 0.87322 0.96693 0.50100
C 	C 	0.80313 0.90062 0.94687 -0.26100
C 	C 	0.46693 0.87322 0.28307 0.50100
C 	C 	0.44687 0.90062 0.30313 -0.26100
C 	C 	0.96693 0.87322 0.78307 0.50100
C 	C 	0.94687 0.90062 0.80313 -0.26100
C 	C 	0.03307 0.03307 0.12322 0.50100
C 	C 	0.05313 0.05313 0.15062 -0.26100
C 	C 	0.03307 0.53307 0.62322 0.50100
C 	C 	0.05313 0.55313 0.65062 -0.26100
C 	C 	0.53307 0.03307 0.62322 0.50100
C 	C 	0.55313 0.05313 0.65062 -0.26100
C 	C 	0.53307 0.53307 0.12322 0.50100
C 	C 	0.55313 0.55313 0.15062 -0.26100
C 	C 	0.71693 0.21693 0.62322 0.50100
C 	C 	0.69687 0.19687 0.65062 -0.26100
C 	C 	0.71693 0.71693 0.12322 0.50100
C 	C 	0.69687 0.69687 0.15062 -0.26100
C 	C 	0.53307 0.71693 0.12678 0.50100
C 	C 	0.55313 0.69687 0.09938 -0.26100
C 	C 	0.03307 0.71693 0.62678 0.50100
C 	C 	0.05313 0.69687 0.59938 -0.26100
C 	C 	0.21693 0.53307 0.62678 0.50100
C 	C 	0.19687 0.55313 0.59938 -0.26100
C 	C 	0.21693 0.03307 0.12678 0.50100
C 	C 	0.19687 0.05313 0.09938 -0.26100
C 	C 	0.53307 0.62678 0.21693 0.50100
C 	C 	0.55313 0.59938 0.19687 -0.26100
C 	C 	0.03307 0.62678 0.71693 0.50100
C 	C 	0.05313 0.59938 0.69687 -0.26100
C 	C 	0.71693 0.12678 0.53307 0.50100
C 	C 	0.69687 0.09938 0.55313 -0.26100
C 	C 	0.71693 0.62678 0.03307 0.50100
C 	C 	0.69687 0.59938 0.05313 -0.26100
C 	C 	0.21693 0.62322 0.71693 0.50100
C 	C 	0.19687 0.65062 0.69687 -0.26100
C 	C 	0.21693 0.12322 0.21693 0.50100
C 	C 	0.19687 0.15062 0.19687 -0.26100
C 	C 	0.71693 0.12322 0.71693 0.50100
C 	C 	0.69687 0.15062 0.69687 -0.26100
C 	C 	0.03307 0.12322 0.03307 0.50100
C 	C 	0.05313 0.15062 0.05313 -0.26100
C 	C 	0.03307 0.62322 0.53307 0.50100
C 	C 	0.05313 0.65062 0.55313 -0.26100
C 	C 	0.53307 0.12322 0.53307 0.50100
C 	C 	0.55313 0.15062 0.55313 -0.26100
C 	C 	0.53307 0.62322 0.03307 0.50100
C 	C 	0.55313 0.65062 0.05313 -0.26100
C 	C 	0.12678 0.53307 0.71693 0.50100
C 	C 	0.09938 0.55313 0.69687 -0.26100
C 	C 	0.12678 0.03307 0.21693 0.50100
C 	C 	0.09938 0.05313 0.19687 -0.26100
C 	C 	0.62678 0.21693 0.53307 0.50100
C 	C 	0.59938 0.19687 0.55313 -0.26100
C 	C 	0.62678 0.71693 0.03307 0.50100
C 	C 	0.59938 0.69687 0.05313 -0.26100
C 	C 	0.12322 0.03307 0.03307 0.50100
C 	C 	0.15062 0.05313 0.05313 -0.26100
C 	C 	0.12322 0.53307 0.53307 0.50100
C 	C 	0.15062 0.55313 0.55313 -0.26100
C 	C 	0.62322 0.03307 0.53307 0.50100
C 	C 	0.65062 0.05313 0.55313 -0.26100
C 	C 	0.62322 0.53307 0.03307 0.50100
C 	C 	0.65062 0.55313 0.05313 -0.26100
C 	C 	0.62322 0.71693 0.21693 0.50100
C 	C 	0.65062 0.69687 0.19687 -0.26100
C 	C 	0.12322 0.71693 0.71693 0.50100
C 	C 	0.15062 0.69687 0.69687 -0.26100
C 	C 	0.21693 0.71693 0.62322 0.50100
C 	C 	0.19687 0.69687 0.65062 -0.26100
C 	C 	0.21693 0.21693 0.12322 0.50100
C 	C 	0.19687 0.19687 0.15062 -0.26100
C 	C 	0.53307 0.21693 0.62678 0.50100
C 	C 	0.55313 0.19687 0.59938 -0.26100
C 	C 	0.03307 0.21693 0.12678 0.50100
C 	C 	0.05313 0.19687 0.09938 -0.26100
C 	C 	0.71693 0.53307 0.12678 0.50100
C 	C 	0.69687 0.55313 0.09938 -0.26100
C 	C 	0.71693 0.03307 0.62678 0.50100
C 	C 	0.69687 0.05313 0.59938 -0.26100
C 	C 	0.62322 0.21693 0.71693 0.50100
C 	C 	0.65062 0.19687 0.69687 -0.26100
C 	C 	0.12322 0.21693 0.21693 0.50100
C 	C 	0.15062 0.19687 0.19687 -0.26100
C 	C 	0.62678 0.53307 0.21693 0.50100
C 	C 	0.59938 0.55313 0.19687 -0.26100
C 	C 	0.62678 0.03307 0.71693 0.50100
C 	C 	0.59938 0.05313 0.69687 -0.26100
C 	C 	0.12678 0.71693 0.53307 0.50100
C 	C 	0.09938 0.69687 0.55313 -0.26100
C 	C 	0.12678 0.21693 0.03307 0.50100
C 	C 	0.09938 0.19687 0.05313 -0.26100
C 	C 	0.71693 0.62322 0.21693 0.50100
C 	C 	0.69687 0.65062 0.19687 -0.26100
C 	C 	0.21693 0.62678 0.53307 0.50100
C 	C 	0.19687 0.59938 0.55313 -0.26100
C 	C 	0.21693 0.12678 0.03307 0.50100
C 	C 	0.19687 0.09938 0.05313 -0.26100
C 	C 	0.53307 0.12678 0.71693 0.50100
C 	C 	0.55313 0.09938 0.69687 -0.26100
C 	C 	0.03307 0.12678 0.21693 0.50100
C 	C 	0.05313 0.09938 0.19687 -0.26100
C 	C 	0.28307 0.78307 0.37678 0.50100
C 	C 	0.30313 0.80313 0.34938 -0.26100
C 	C 	0.28307 0.28307 0.87678 0.50100
C 	C 	0.30313 0.30313 0.84938 -0.26100
C 	C 	0.46693 0.28307 0.87322 0.50100
C 	C 	0.44687 0.30313 0.90062 -0.26100
C 	C 	0.96693 0.28307 0.37322 0.50100
C 	C 	0.94687 0.30313 0.40062 -0.26100
C 	C 	0.78307 0.46693 0.37322 0.50100
C 	C 	0.80313 0.44687 0.40062 -0.26100
C 	C 	0.78307 0.96693 0.87322 0.50100
C 	C 	0.80313 0.94687 0.90062 -0.26100
C 	C 	0.46693 0.37322 0.78307 0.50100
C 	C 	0.44687 0.40062 0.80313 -0.26100
C 	C 	0.96693 0.37322 0.28307 0.50100
C 	C 	0.94687 0.40062 0.30313 -0.26100
C 	C 	0.28307 0.87322 0.46693 0.50100
C 	C 	0.30313 0.90062 0.44687 -0.26100
C 	C 	0.28307 0.37322 0.96693 0.50100
C 	C 	0.30313 0.40062 0.94687 -0.26100
C 	C 	0.78307 0.37678 0.28307 0.50100
C 	C 	0.80313 0.34938 0.30313 -0.26100
C 	C 	0.87322 0.46693 0.28307 0.50100
C 	C 	0.90062 0.44687 0.30313 -0.26100
C 	C 	0.87322 0.96693 0.78307 0.50100
C 	C 	0.90062 0.94687 0.80313 -0.26100
C 	C 	0.37322 0.78307 0.46693 0.50100
C 	C 	0.40062 0.80313 0.44687 -0.26100
C 	C 	0.37322 0.28307 0.96693 0.50100
C 	C 	0.40062 0.30313 0.94687 -0.26100
C 	C 	0.37678 0.28307 0.78307 0.50100
C 	C 	0.34938 0.30313 0.80313 -0.26100
C 	C 	0.87678 0.28307 0.28307 0.50100
C 	C 	0.84938 0.30313 0.30313 -0.26100
C 	C 	0.78782 0.33345 0.33345 0.14000
C 	C 	0.78782 0.83345 0.83345 0.14000
C 	C 	0.28782 0.33345 0.83345 0.14000
C 	C 	0.28782 0.83345 0.33345 0.14000
C 	C 	0.96218 0.91655 0.83345 0.14000
C 	C 	0.96218 0.41655 0.33345 0.14000
C 	C 	0.46218 0.83345 0.41655 0.14000
C 	C 	0.46218 0.33345 0.91655 0.14000
C 	C 	0.96218 0.33345 0.41655 0.14000
C 	C 	0.28782 0.41655 0.91655 0.14000
C 	C 	0.78782 0.41655 0.41655 0.14000
C 	C 	0.33345 0.78782 0.33345 0.14000
C 	C 	0.33345 0.28782 0.83345 0.14000
C 	C 	0.83345 0.78782 0.83345 0.14000
C 	C 	0.83345 0.28782 0.33345 0.14000
C 	C 	0.83345 0.96218 0.91655 0.14000
C 	C 	0.33345 0.96218 0.41655 0.14000
C 	C 	0.41655 0.46218 0.83345 0.14000
C 	C 	0.41655 0.96218 0.33345 0.14000
C 	C 	0.91655 0.28782 0.41655 0.14000
C 	C 	0.91655 0.78782 0.91655 0.14000
C 	C 	0.41655 0.78782 0.41655 0.14000
C 	C 	0.33345 0.33345 0.78782 0.14000
C 	C 	0.33345 0.83345 0.28782 0.14000
C 	C 	0.83345 0.33345 0.28782 0.14000
C 	C 	0.83345 0.83345 0.78782 0.14000
C 	C 	0.91655 0.83345 0.96218 0.14000
C 	C 	0.91655 0.33345 0.46218 0.14000
C 	C 	0.41655 0.33345 0.96218 0.14000
C 	C 	0.83345 0.41655 0.46218 0.14000
C 	C 	0.33345 0.41655 0.96218 0.14000
C 	C 	0.41655 0.91655 0.28782 0.14000
C 	C 	0.41655 0.41655 0.78782 0.14000
C 	C 	0.08345 0.03782 0.16655 0.14000
C 	C 	0.08345 0.53782 0.66655 0.14000
C 	C 	0.66655 0.21218 0.66655 0.14000
C 	C 	0.66655 0.71218 0.16655 0.14000
C 	C 	0.16655 0.21218 0.16655 0.14000
C 	C 	0.16655 0.71218 0.66655 0.14000
C 	C 	0.58345 0.71218 0.08345 0.14000
C 	C 	0.58345 0.21218 0.58345 0.14000
C 	C 	0.08345 0.21218 0.08345 0.14000
C 	C 	0.16655 0.53782 0.58345 0.14000
C 	C 	0.66655 0.53782 0.08345 0.14000
C 	C 	0.53782 0.58345 0.16655 0.14000
C 	C 	0.53782 0.08345 0.66655 0.14000
C 	C 	0.71218 0.08345 0.58345 0.14000
C 	C 	0.21218 0.08345 0.08345 0.14000
C 	C 	0.21218 0.66655 0.66655 0.14000
C 	C 	0.21218 0.16655 0.16655 0.14000
C 	C 	0.71218 0.66655 0.16655 0.14000
C 	C 	0.71218 0.16655 0.66655 0.14000
C 	C 	0.03782 0.16655 0.08345 0.14000
C 	C 	0.03782 0.66655 0.58345 0.14000
C 	C 	0.53782 0.66655 0.08345 0.14000
C 	C 	0.08345 0.58345 0.71218 0.14000
C 	C 	0.08345 0.08345 0.21218 0.14000
C 	C 	0.58345 0.16655 0.53782 0.14000
C 	C 	0.58345 0.66655 0.03782 0.14000
C 	C 	0.08345 0.66655 0.53782 0.14000
C 	C 	0.16655 0.08345 0.03782 0.14000
C 	C 	0.66655 0.08345 0.53782 0.14000
C 	C 	0.66655 0.66655 0.21218 0.14000
C 	C 	0.66655 0.16655 0.71218 0.14000
C 	C 	0.16655 0.66655 0.71218 0.14000
C 	C 	0.16655 0.16655 0.21218 0.14000
C 	C 	0.03782 0.08345 0.16655 0.14000
C 	C 	0.03782 0.58345 0.66655 0.14000
C 	C 	0.53782 0.16655 0.58345 0.14000
C 	C 	0.71218 0.58345 0.08345 0.14000
C 	C 	0.21218 0.58345 0.58345 0.14000
C 	C 	0.16655 0.03782 0.08345 0.14000
C 	C 	0.66655 0.03782 0.58345 0.14000
C 	C 	0.58345 0.53782 0.16655 0.14000
C 	C 	0.58345 0.03782 0.66655 0.14000
C 	C 	0.08345 0.71218 0.58345 0.14000
C 	C 	0.08345 0.16655 0.03782 0.14000
C 	C 	0.16655 0.58345 0.53782 0.14000
C 	C 	0.66655 0.58345 0.03782 0.14000
C 	C 	0.58345 0.08345 0.71218 0.14000
C 	C 	0.58345 0.58345 0.21218 0.14000
C 	C 	0.91655 0.96218 0.83345 0.14000
C 	C 	0.91655 0.46218 0.33345 0.14000
C 	C 	0.41655 0.28782 0.91655 0.14000
C 	C 	0.83345 0.46218 0.41655 0.14000
C 	C 	0.33345 0.46218 0.91655 0.14000
C 	C 	0.46218 0.41655 0.83345 0.14000
C 	C 	0.46218 0.91655 0.33345 0.14000
C 	C 	0.28782 0.91655 0.41655 0.14000
C 	C 	0.78782 0.91655 0.91655 0.14000
C 	C 	0.96218 0.83345 0.91655 0.14000
C 	C 	0.91655 0.41655 0.28782 0.14000
C 	C 	0.91655 0.91655 0.78782 0.14000
C 	C 	0.41655 0.83345 0.46218 0.14000
C 	C 	0.83345 0.91655 0.96218 0.14000
C 	C 	0.33345 0.91655 0.46218 0.14000
