data_crystal

_cell_length_a 39.91940
_cell_length_b 39.91940
_cell_length_c 39.91940
_cell_angle_alpha 90.00000
_cell_angle_beta  90.00000
_cell_angle_gamma 90.00000

_symmetry_space_group_name_	'P 1'
_symmetry_space_group_name_H-M	'P 1'

loop_
_symmetry_equiv_pos_as_xyz
  x,y,z

loop_
_atom_site_label
_atom_site_type_symbol
_atom_site_fract_x
_atom_site_fract_y
_atom_site_fract_z
_atom_site_charge
C 	C 	0.22980 0.15453 0.06010 0.38700
C 	C 	0.21940 0.12590 0.08414 -0.04800
N 	N 	0.18951 0.10880 0.08382 -0.05100
O 	O 	0.20920 0.15773 0.03671 -0.49600
O 	O 	0.25719 0.16882 0.06869 -0.58500
C 	C 	0.22980 0.65453 0.56010 0.38700
C 	C 	0.21940 0.62590 0.58414 -0.04700
N 	N 	0.18951 0.60880 0.58382 -0.05100
O 	O 	0.20920 0.65773 0.53671 -0.49500
O 	O 	0.25719 0.66882 0.56869 -0.58500
C 	C 	0.72980 0.15453 0.56010 0.38700
C 	C 	0.71940 0.12590 0.58414 -0.04700
N 	N 	0.68951 0.10880 0.58382 -0.05100
O 	O 	0.70920 0.15773 0.53671 -0.49500
O 	O 	0.75719 0.16882 0.56869 -0.58500
C 	C 	0.72980 0.65453 0.06010 0.38700
C 	C 	0.71940 0.62590 0.08414 -0.04800
N 	N 	0.68951 0.60880 0.08382 -0.05100
O 	O 	0.70920 0.65773 0.03671 -0.49600
O 	O 	0.75719 0.66882 0.06869 -0.58500
C 	C 	0.77020 0.84547 0.06010 0.38700
C 	C 	0.78060 0.87410 0.08414 -0.04700
N 	N 	0.81049 0.89120 0.08382 -0.05100
O 	O 	0.79080 0.84227 0.03671 -0.49600
O 	O 	0.74281 0.83118 0.06869 -0.58500
C 	C 	0.77020 0.34547 0.56010 0.38700
C 	C 	0.78060 0.37410 0.58414 -0.04700
N 	N 	0.81049 0.39120 0.58382 -0.05100
O 	O 	0.79080 0.34227 0.53671 -0.49500
O 	O 	0.74281 0.33118 0.56869 -0.58500
C 	C 	0.27020 0.84547 0.56010 0.38700
C 	C 	0.28060 0.87410 0.58414 -0.04700
N 	N 	0.31049 0.89120 0.58382 -0.05000
O 	O 	0.29080 0.84227 0.53671 -0.49500
O 	O 	0.24281 0.83118 0.56869 -0.58500
C 	C 	0.27020 0.34547 0.06010 0.38700
C 	C 	0.28060 0.37410 0.08414 -0.04800
N 	N 	0.31049 0.39120 0.08382 -0.05100
O 	O 	0.29080 0.34227 0.03671 -0.49600
O 	O 	0.24281 0.33118 0.06869 -0.58500
C 	C 	0.77020 0.15453 0.93990 0.38700
C 	C 	0.78060 0.12590 0.91586 -0.04700
N 	N 	0.81049 0.10880 0.91618 -0.05000
O 	O 	0.79080 0.15773 0.96329 -0.49400
O 	O 	0.74281 0.16882 0.93131 -0.58400
C 	C 	0.77020 0.65453 0.43990 0.38700
C 	C 	0.78060 0.62590 0.41586 -0.04700
N 	N 	0.81049 0.60880 0.41618 -0.05100
O 	O 	0.79080 0.65773 0.46329 -0.49500
O 	O 	0.74281 0.66882 0.43131 -0.58500
C 	C 	0.27020 0.15453 0.43990 0.38700
C 	C 	0.28060 0.12590 0.41586 -0.04700
N 	N 	0.31049 0.10880 0.41618 -0.05100
O 	O 	0.29080 0.15773 0.46329 -0.49500
O 	O 	0.24281 0.16882 0.43131 -0.58500
C 	C 	0.27020 0.65453 0.93990 0.38700
C 	C 	0.28060 0.62590 0.91586 -0.04700
N 	N 	0.31049 0.60880 0.91618 -0.05000
O 	O 	0.29080 0.65773 0.96329 -0.49400
O 	O 	0.24281 0.66882 0.93131 -0.58400
C 	C 	0.22980 0.84547 0.93990 0.38700
C 	C 	0.21940 0.87410 0.91586 -0.04700
N 	N 	0.18951 0.89120 0.91618 -0.05000
O 	O 	0.20920 0.84227 0.96329 -0.49400
O 	O 	0.25719 0.83118 0.93131 -0.58400
C 	C 	0.22980 0.34547 0.43990 0.38700
C 	C 	0.21940 0.37410 0.41586 -0.04700
N 	N 	0.18951 0.39120 0.41618 -0.05100
O 	O 	0.20920 0.34227 0.46329 -0.49500
O 	O 	0.25719 0.33118 0.43131 -0.58500
C 	C 	0.72980 0.84547 0.43990 0.38700
C 	C 	0.71940 0.87410 0.41586 -0.04700
N 	N 	0.68951 0.89120 0.41618 -0.05000
O 	O 	0.70920 0.84227 0.46329 -0.49500
O 	O 	0.75719 0.83118 0.43131 -0.58400
C 	C 	0.72980 0.34547 0.93990 0.38700
C 	C 	0.71940 0.37410 0.91586 -0.04700
N 	N 	0.68951 0.39120 0.91618 -0.05000
O 	O 	0.70920 0.34227 0.96329 -0.49400
O 	O 	0.75719 0.33118 0.93131 -0.58400
C 	C 	0.06010 0.22980 0.15453 0.38700
C 	C 	0.08414 0.21940 0.12590 -0.04800
N 	N 	0.08382 0.18951 0.10880 -0.05100
O 	O 	0.03671 0.20920 0.15773 -0.49600
O 	O 	0.06869 0.25719 0.16882 -0.58500
C 	C 	0.06010 0.72980 0.65453 0.38700
C 	C 	0.08414 0.71940 0.62590 -0.04800
N 	N 	0.08382 0.68951 0.60880 -0.05100
O 	O 	0.03671 0.70920 0.65773 -0.49600
O 	O 	0.06869 0.75719 0.66882 -0.58500
C 	C 	0.56010 0.22980 0.65453 0.38700
C 	C 	0.58414 0.21940 0.62590 -0.04700
N 	N 	0.58382 0.18951 0.60880 -0.05100
O 	O 	0.53671 0.20920 0.65773 -0.49500
O 	O 	0.56869 0.25719 0.66882 -0.58500
C 	C 	0.56010 0.72980 0.15453 0.38700
C 	C 	0.58414 0.71940 0.12590 -0.04700
N 	N 	0.58382 0.68951 0.10880 -0.05100
O 	O 	0.53671 0.70920 0.15773 -0.49500
O 	O 	0.56869 0.75719 0.16882 -0.58500
C 	C 	0.06010 0.77020 0.84547 0.38700
C 	C 	0.08414 0.78060 0.87410 -0.04700
N 	N 	0.08382 0.81049 0.89120 -0.05100
O 	O 	0.03671 0.79080 0.84227 -0.49600
O 	O 	0.06869 0.74281 0.83118 -0.58500
C 	C 	0.06010 0.27020 0.34547 0.38700
C 	C 	0.08414 0.28060 0.37410 -0.04800
N 	N 	0.08382 0.31049 0.39120 -0.05100
O 	O 	0.03671 0.29080 0.34227 -0.49500
O 	O 	0.06869 0.24281 0.33118 -0.58400
C 	C 	0.56010 0.77020 0.34547 0.38800
C 	C 	0.58414 0.78060 0.37410 -0.04600
N 	N 	0.58382 0.81049 0.39120 -0.05000
O 	O 	0.53671 0.79080 0.34227 -0.49400
O 	O 	0.56869 0.74281 0.33118 -0.58400
C 	C 	0.56010 0.27020 0.84547 0.38800
C 	C 	0.58414 0.28060 0.87410 -0.04600
N 	N 	0.58382 0.31049 0.89120 -0.04900
O 	O 	0.53671 0.29080 0.84227 -0.49400
O 	O 	0.56869 0.24281 0.83118 -0.58400
C 	C 	0.93990 0.77020 0.15453 0.38800
C 	C 	0.91586 0.78060 0.12590 -0.04600
N 	N 	0.91618 0.81049 0.10880 -0.04900
O 	O 	0.96329 0.79080 0.15773 -0.49300
O 	O 	0.93131 0.74281 0.16882 -0.58300
C 	C 	0.93990 0.27020 0.65453 0.38800
C 	C 	0.91586 0.28060 0.62590 -0.04600
N 	N 	0.91618 0.31049 0.60880 -0.04900
O 	O 	0.96329 0.29080 0.65773 -0.49300
O 	O 	0.93131 0.24281 0.66882 -0.58300
C 	C 	0.43990 0.77020 0.65453 0.38800
C 	C 	0.41586 0.78060 0.62590 -0.04600
N 	N 	0.41618 0.81049 0.60880 -0.05000
O 	O 	0.46329 0.79080 0.65773 -0.49400
O 	O 	0.43131 0.74281 0.66882 -0.58400
C 	C 	0.43990 0.27020 0.15453 0.38800
C 	C 	0.41586 0.28060 0.12590 -0.04600
N 	N 	0.41618 0.31049 0.10880 -0.05000
O 	O 	0.46329 0.29080 0.15773 -0.49400
O 	O 	0.43131 0.24281 0.16882 -0.58400
C 	C 	0.93990 0.22980 0.84547 0.38800
C 	C 	0.91586 0.21940 0.87410 -0.04600
N 	N 	0.91618 0.18951 0.89120 -0.04900
O 	O 	0.96329 0.20920 0.84227 -0.49300
O 	O 	0.93131 0.25719 0.83118 -0.58300
C 	C 	0.93990 0.72980 0.34547 0.38800
C 	C 	0.91586 0.71940 0.37410 -0.04600
N 	N 	0.91618 0.68951 0.39120 -0.04900
O 	O 	0.96329 0.70920 0.34227 -0.49300
O 	O 	0.93131 0.75719 0.33118 -0.58300
C 	C 	0.43990 0.22980 0.34547 0.38800
C 	C 	0.41586 0.21940 0.37410 -0.04600
N 	N 	0.41618 0.18951 0.39120 -0.05000
O 	O 	0.46329 0.20920 0.34227 -0.49400
O 	O 	0.43131 0.25719 0.33118 -0.58400
C 	C 	0.43990 0.72980 0.84547 0.38800
C 	C 	0.41586 0.71940 0.87410 -0.04600
N 	N 	0.41618 0.68951 0.89120 -0.04900
O 	O 	0.46329 0.70920 0.84227 -0.49400
O 	O 	0.43131 0.75719 0.83118 -0.58300
C 	C 	0.15453 0.06010 0.22980 0.38800
C 	C 	0.12590 0.08414 0.21940 -0.04700
N 	N 	0.10880 0.08382 0.18951 -0.05000
O 	O 	0.15773 0.03671 0.20920 -0.49500
O 	O 	0.16882 0.06869 0.25719 -0.58400
C 	C 	0.15453 0.56010 0.72980 0.38800
C 	C 	0.12590 0.58414 0.71940 -0.04600
N 	N 	0.10880 0.58382 0.68951 -0.05000
O 	O 	0.15773 0.53671 0.70920 -0.49400
O 	O 	0.16882 0.56869 0.75719 -0.58400
C 	C 	0.65453 0.06010 0.72980 0.38800
C 	C 	0.62590 0.08414 0.71940 -0.04700
N 	N 	0.60880 0.08382 0.68951 -0.05000
O 	O 	0.65773 0.03671 0.70920 -0.49500
O 	O 	0.66882 0.06869 0.75719 -0.58400
C 	C 	0.65453 0.56010 0.22980 0.38800
C 	C 	0.62590 0.58414 0.21940 -0.04600
N 	N 	0.60880 0.58382 0.18951 -0.05000
O 	O 	0.65773 0.53671 0.20920 -0.49400
O 	O 	0.66882 0.56869 0.25719 -0.58400
C 	C 	0.84547 0.06010 0.77020 0.38800
C 	C 	0.87410 0.08414 0.78060 -0.04600
N 	N 	0.89120 0.08382 0.81049 -0.05000
O 	O 	0.84227 0.03671 0.79080 -0.49500
O 	O 	0.83118 0.06869 0.74281 -0.58400
C 	C 	0.84547 0.56010 0.27020 0.38800
C 	C 	0.87410 0.58414 0.28060 -0.04600
N 	N 	0.89120 0.58382 0.31049 -0.04900
O 	O 	0.84227 0.53671 0.29080 -0.49400
O 	O 	0.83118 0.56869 0.24281 -0.58400
C 	C 	0.34547 0.06010 0.27020 0.38800
C 	C 	0.37410 0.08414 0.28060 -0.04700
N 	N 	0.39120 0.08382 0.31049 -0.05000
O 	O 	0.34227 0.03671 0.29080 -0.49500
O 	O 	0.33118 0.06869 0.24281 -0.58400
C 	C 	0.34547 0.56010 0.77020 0.38800
C 	C 	0.37410 0.58414 0.78060 -0.04600
N 	N 	0.39120 0.58382 0.81049 -0.05000
O 	O 	0.34227 0.53671 0.79080 -0.49400
O 	O 	0.33118 0.56869 0.74281 -0.58400
C 	C 	0.15453 0.93990 0.77020 0.38800
C 	C 	0.12590 0.91586 0.78060 -0.04600
N 	N 	0.10880 0.91618 0.81049 -0.04900
O 	O 	0.15773 0.96329 0.79080 -0.49300
O 	O 	0.16882 0.93131 0.74281 -0.58300
C 	C 	0.15453 0.43990 0.27020 0.38800
C 	C 	0.12590 0.41586 0.28060 -0.04600
N 	N 	0.10880 0.41618 0.31049 -0.05000
O 	O 	0.15773 0.46329 0.29080 -0.49400
O 	O 	0.16882 0.43131 0.24281 -0.58400
C 	C 	0.65453 0.93990 0.27020 0.38800
C 	C 	0.62590 0.91586 0.28060 -0.04600
N 	N 	0.60880 0.91618 0.31049 -0.04900
O 	O 	0.65773 0.96329 0.29080 -0.49300
O 	O 	0.66882 0.93131 0.24281 -0.58300
C 	C 	0.65453 0.43990 0.77020 0.38800
C 	C 	0.62590 0.41586 0.78060 -0.04600
N 	N 	0.60880 0.41618 0.81049 -0.05000
O 	O 	0.65773 0.46329 0.79080 -0.49400
O 	O 	0.66882 0.43131 0.74281 -0.58400
C 	C 	0.84547 0.93990 0.22980 0.38800
C 	C 	0.87410 0.91586 0.21940 -0.04600
N 	N 	0.89120 0.91618 0.18951 -0.04900
O 	O 	0.84227 0.96329 0.20920 -0.49300
O 	O 	0.83118 0.93131 0.25719 -0.58300
C 	C 	0.84547 0.43990 0.72980 0.38800
C 	C 	0.87410 0.41586 0.71940 -0.04600
N 	N 	0.89120 0.41618 0.68951 -0.04900
O 	O 	0.84227 0.46329 0.70920 -0.49400
O 	O 	0.83118 0.43131 0.75719 -0.58300
C 	C 	0.34547 0.93990 0.72980 0.38800
C 	C 	0.37410 0.91586 0.71940 -0.04600
N 	N 	0.39120 0.91618 0.68951 -0.04900
O 	O 	0.34227 0.96329 0.70920 -0.49300
O 	O 	0.33118 0.93131 0.75719 -0.58300
C 	C 	0.34547 0.43990 0.22980 0.38800
C 	C 	0.37410 0.41586 0.21940 -0.04600
N 	N 	0.39120 0.41618 0.18951 -0.05000
O 	O 	0.34227 0.46329 0.20920 -0.49400
O 	O 	0.33118 0.43131 0.25719 -0.58400
C 	C 	0.15453 0.22980 0.93990 0.38800
C 	C 	0.12590 0.21940 0.91586 -0.04600
N 	N 	0.10880 0.18951 0.91618 -0.05000
O 	O 	0.15773 0.20920 0.96329 -0.49300
O 	O 	0.16882 0.25719 0.93131 -0.58300
C 	C 	0.15453 0.72980 0.43990 0.38800
C 	C 	0.12590 0.71940 0.41586 -0.04600
N 	N 	0.10880 0.68951 0.41618 -0.05000
O 	O 	0.15773 0.70920 0.46329 -0.49400
O 	O 	0.16882 0.75719 0.43131 -0.58400
C 	C 	0.65453 0.22980 0.43990 0.38800
C 	C 	0.62590 0.21940 0.41586 -0.04600
N 	N 	0.60880 0.18951 0.41618 -0.05000
O 	O 	0.65773 0.20920 0.46329 -0.49400
O 	O 	0.66882 0.25719 0.43131 -0.58400
C 	C 	0.65453 0.72980 0.93990 0.38800
C 	C 	0.62590 0.71940 0.91586 -0.04600
N 	N 	0.60880 0.68951 0.91618 -0.04900
O 	O 	0.65773 0.70920 0.96329 -0.49300
O 	O 	0.66882 0.75719 0.93131 -0.58300
C 	C 	0.84547 0.77020 0.93990 0.38800
C 	C 	0.87410 0.78060 0.91586 -0.04600
N 	N 	0.89120 0.81049 0.91618 -0.04900
O 	O 	0.84227 0.79080 0.96329 -0.49300
O 	O 	0.83118 0.74281 0.93131 -0.58300
C 	C 	0.84547 0.27020 0.43990 0.38800
C 	C 	0.87410 0.28060 0.41586 -0.04600
N 	N 	0.89120 0.31049 0.41618 -0.04900
O 	O 	0.84227 0.29080 0.46329 -0.49400
O 	O 	0.83118 0.24281 0.43131 -0.58400
C 	C 	0.34547 0.77020 0.43990 0.38800
C 	C 	0.37410 0.78060 0.41586 -0.04600
N 	N 	0.39120 0.81049 0.41618 -0.05000
O 	O 	0.34227 0.79080 0.46329 -0.49400
O 	O 	0.33118 0.74281 0.43131 -0.58400
C 	C 	0.34547 0.27020 0.93990 0.38800
C 	C 	0.37410 0.28060 0.91586 -0.04600
N 	N 	0.39120 0.31049 0.91618 -0.04900
O 	O 	0.34227 0.29080 0.96329 -0.49300
O 	O 	0.33118 0.24281 0.93131 -0.58300
C 	C 	0.15453 0.77020 0.06010 0.38800
C 	C 	0.12590 0.78060 0.08414 -0.04700
N 	N 	0.10880 0.81049 0.08382 -0.05000
O 	O 	0.15773 0.79080 0.03671 -0.49500
O 	O 	0.16882 0.74281 0.06869 -0.58400
C 	C 	0.15453 0.27020 0.56010 0.38800
C 	C 	0.12590 0.28060 0.58414 -0.04600
N 	N 	0.10880 0.31049 0.58382 -0.05000
O 	O 	0.15773 0.29080 0.53671 -0.49400
O 	O 	0.16882 0.24281 0.56869 -0.58400
C 	C 	0.65453 0.77020 0.56010 0.38800
C 	C 	0.62590 0.78060 0.58414 -0.04600
N 	N 	0.60880 0.81049 0.58382 -0.05000
O 	O 	0.65773 0.79080 0.53671 -0.49400
O 	O 	0.66882 0.74281 0.56869 -0.58400
C 	C 	0.65453 0.27020 0.06010 0.38800
C 	C 	0.62590 0.28060 0.08414 -0.04700
N 	N 	0.60880 0.31049 0.08382 -0.05000
O 	O 	0.65773 0.29080 0.03671 -0.49500
O 	O 	0.66882 0.24281 0.06869 -0.58400
C 	C 	0.84547 0.22980 0.06010 0.38800
C 	C 	0.87410 0.21940 0.08414 -0.04600
N 	N 	0.89120 0.18951 0.08382 -0.05000
O 	O 	0.84227 0.20920 0.03671 -0.49500
O 	O 	0.83118 0.25719 0.06869 -0.58400
C 	C 	0.84547 0.72980 0.56010 0.38800
C 	C 	0.87410 0.71940 0.58414 -0.04600
N 	N 	0.89120 0.68951 0.58382 -0.04900
O 	O 	0.84227 0.70920 0.53671 -0.49400
O 	O 	0.83118 0.75719 0.56869 -0.58300
C 	C 	0.34547 0.22980 0.56010 0.38800
C 	C 	0.37410 0.21940 0.58414 -0.04600
N 	N 	0.39120 0.18951 0.58382 -0.05000
O 	O 	0.34227 0.20920 0.53671 -0.49400
O 	O 	0.33118 0.25719 0.56869 -0.58400
C 	C 	0.34547 0.72980 0.06010 0.38800
C 	C 	0.37410 0.71940 0.08414 -0.04700
N 	N 	0.39120 0.68951 0.08382 -0.05000
O 	O 	0.34227 0.70920 0.03671 -0.49500
O 	O 	0.33118 0.75719 0.06869 -0.58400
C 	C 	0.22980 0.06010 0.84547 0.38800
C 	C 	0.21940 0.08414 0.87410 -0.04600
N 	N 	0.18951 0.08382 0.89120 -0.05000
O 	O 	0.20920 0.03671 0.84227 -0.49500
O 	O 	0.25719 0.06869 0.83118 -0.58400
C 	C 	0.22980 0.56010 0.34547 0.38800
C 	C 	0.21940 0.58414 0.37410 -0.04600
N 	N 	0.18951 0.58382 0.39120 -0.05000
O 	O 	0.20920 0.53671 0.34227 -0.49400
O 	O 	0.25719 0.56869 0.33118 -0.58400
C 	C 	0.72980 0.06010 0.34547 0.38800
C 	C 	0.71940 0.08414 0.37410 -0.04700
N 	N 	0.68951 0.08382 0.39120 -0.05000
O 	O 	0.70920 0.03671 0.34227 -0.49500
O 	O 	0.75719 0.06869 0.33118 -0.58400
C 	C 	0.72980 0.56010 0.84547 0.38800
C 	C 	0.71940 0.58414 0.87410 -0.04600
N 	N 	0.68951 0.58382 0.89120 -0.04900
O 	O 	0.70920 0.53671 0.84227 -0.49400
O 	O 	0.75719 0.56869 0.83118 -0.58300
C 	C 	0.77020 0.06010 0.15453 0.38800
C 	C 	0.78060 0.08414 0.12590 -0.04700
N 	N 	0.81049 0.08382 0.10880 -0.05000
O 	O 	0.79080 0.03671 0.15773 -0.49500
O 	O 	0.74281 0.06869 0.16882 -0.58400
C 	C 	0.77020 0.56010 0.65453 0.38800
C 	C 	0.78060 0.58414 0.62590 -0.04600
N 	N 	0.81049 0.58382 0.60880 -0.05000
O 	O 	0.79080 0.53671 0.65773 -0.49400
O 	O 	0.74281 0.56869 0.66882 -0.58400
C 	C 	0.27020 0.06010 0.65453 0.38800
C 	C 	0.28060 0.08414 0.62590 -0.04700
N 	N 	0.31049 0.08382 0.60880 -0.05000
O 	O 	0.29080 0.03671 0.65773 -0.49500
O 	O 	0.24281 0.06869 0.66882 -0.58400
C 	C 	0.27020 0.56010 0.15453 0.38800
C 	C 	0.28060 0.58414 0.12590 -0.04600
N 	N 	0.31049 0.58382 0.10880 -0.05000
O 	O 	0.29080 0.53671 0.15773 -0.49400
O 	O 	0.24281 0.56869 0.16882 -0.58400
C 	C 	0.77020 0.93990 0.84547 0.38800
C 	C 	0.78060 0.91586 0.87410 -0.04600
N 	N 	0.81049 0.91618 0.89120 -0.04900
O 	O 	0.79080 0.96329 0.84227 -0.49300
O 	O 	0.74281 0.93131 0.83118 -0.58300
C 	C 	0.77020 0.43990 0.34547 0.38800
C 	C 	0.78060 0.41586 0.37410 -0.04600
N 	N 	0.81049 0.41618 0.39120 -0.05000
O 	O 	0.79080 0.46329 0.34227 -0.49400
O 	O 	0.74281 0.43131 0.33118 -0.58400
C 	C 	0.27020 0.93990 0.34547 0.38800
C 	C 	0.28060 0.91586 0.37410 -0.04600
N 	N 	0.31049 0.91618 0.39120 -0.04900
O 	O 	0.29080 0.96329 0.34227 -0.49300
O 	O 	0.24281 0.93131 0.33118 -0.58300
C 	C 	0.27020 0.43990 0.84547 0.38800
C 	C 	0.28060 0.41586 0.87410 -0.04600
N 	N 	0.31049 0.41618 0.89120 -0.04900
O 	O 	0.29080 0.46329 0.84227 -0.49400
O 	O 	0.24281 0.43131 0.83118 -0.58400
C 	C 	0.22980 0.93990 0.15453 0.38800
C 	C 	0.21940 0.91586 0.12590 -0.04600
N 	N 	0.18951 0.91618 0.10880 -0.05000
O 	O 	0.20920 0.96329 0.15773 -0.49300
O 	O 	0.25719 0.93131 0.16882 -0.58300
C 	C 	0.22980 0.43990 0.65453 0.38800
C 	C 	0.21940 0.41586 0.62590 -0.04600
N 	N 	0.18951 0.41618 0.60880 -0.05000
O 	O 	0.20920 0.46329 0.65773 -0.49400
O 	O 	0.25719 0.43131 0.66882 -0.58400
C 	C 	0.72980 0.93990 0.65453 0.38800
C 	C 	0.71940 0.91586 0.62590 -0.04600
N 	N 	0.68951 0.91618 0.60880 -0.04900
O 	O 	0.70920 0.96329 0.65773 -0.49300
O 	O 	0.75719 0.93131 0.66882 -0.58300
C 	C 	0.72980 0.43990 0.15453 0.38800
C 	C 	0.71940 0.41586 0.12590 -0.04600
N 	N 	0.68951 0.41618 0.10880 -0.05000
O 	O 	0.70920 0.46329 0.15773 -0.49400
O 	O 	0.75719 0.43131 0.16882 -0.58400
C 	C 	0.06010 0.15453 0.77020 0.38800
C 	C 	0.08414 0.12590 0.78060 -0.04700
N 	N 	0.08382 0.10880 0.81049 -0.05000
O 	O 	0.03671 0.15773 0.79080 -0.49500
O 	O 	0.06869 0.16882 0.74281 -0.58400
C 	C 	0.06010 0.65453 0.27020 0.38800
C 	C 	0.08414 0.62590 0.28060 -0.04700
N 	N 	0.08382 0.60880 0.31049 -0.05000
O 	O 	0.03671 0.65773 0.29080 -0.49500
O 	O 	0.06869 0.66882 0.24281 -0.58400
C 	C 	0.56010 0.15453 0.27020 0.38800
C 	C 	0.58414 0.12590 0.28060 -0.04600
N 	N 	0.58382 0.10880 0.31049 -0.05000
O 	O 	0.53671 0.15773 0.29080 -0.49400
O 	O 	0.56869 0.16882 0.24281 -0.58400
C 	C 	0.56010 0.65453 0.77020 0.38800
C 	C 	0.58414 0.62590 0.78060 -0.04600
N 	N 	0.58382 0.60880 0.81049 -0.05000
O 	O 	0.53671 0.65773 0.79080 -0.49400
O 	O 	0.56869 0.66882 0.74281 -0.58400
C 	C 	0.06010 0.84547 0.22980 0.38800
C 	C 	0.08414 0.87410 0.21940 -0.04600
N 	N 	0.08382 0.89120 0.18951 -0.05000
O 	O 	0.03671 0.84227 0.20920 -0.49500
O 	O 	0.06869 0.83118 0.25719 -0.58400
C 	C 	0.06010 0.34547 0.72980 0.38800
C 	C 	0.08414 0.37410 0.71940 -0.04700
N 	N 	0.08382 0.39120 0.68951 -0.05000
O 	O 	0.03671 0.34227 0.70920 -0.49500
O 	O 	0.06869 0.33118 0.75719 -0.58400
C 	C 	0.56010 0.84547 0.72980 0.38800
C 	C 	0.58414 0.87410 0.71940 -0.04600
N 	N 	0.58382 0.89120 0.68951 -0.04900
O 	O 	0.53671 0.84227 0.70920 -0.49400
O 	O 	0.56869 0.83118 0.75719 -0.58300
C 	C 	0.56010 0.34547 0.22980 0.38800
C 	C 	0.58414 0.37410 0.21940 -0.04600
N 	N 	0.58382 0.39120 0.18951 -0.05000
O 	O 	0.53671 0.34227 0.20920 -0.49400
O 	O 	0.56869 0.33118 0.25719 -0.58400
C 	C 	0.93990 0.15453 0.22980 0.38800
C 	C 	0.91586 0.12590 0.21940 -0.04600
N 	N 	0.91618 0.10880 0.18951 -0.05000
O 	O 	0.96329 0.15773 0.20920 -0.49300
O 	O 	0.93131 0.16882 0.25719 -0.58300
C 	C 	0.93990 0.65453 0.72980 0.38800
C 	C 	0.91586 0.62590 0.71940 -0.04600
N 	N 	0.91618 0.60880 0.68951 -0.04900
O 	O 	0.96329 0.65773 0.70920 -0.49300
O 	O 	0.93131 0.66882 0.75719 -0.58300
C 	C 	0.43990 0.15453 0.72980 0.38800
C 	C 	0.41586 0.12590 0.71940 -0.04600
N 	N 	0.41618 0.10880 0.68951 -0.05000
O 	O 	0.46329 0.15773 0.70920 -0.49400
O 	O 	0.43131 0.16882 0.75719 -0.58400
C 	C 	0.43990 0.65453 0.22980 0.38800
C 	C 	0.41586 0.62590 0.21940 -0.04600
N 	N 	0.41618 0.60880 0.18951 -0.05000
O 	O 	0.46329 0.65773 0.20920 -0.49400
O 	O 	0.43131 0.66882 0.25719 -0.58400
C 	C 	0.93990 0.84547 0.77020 0.38800
C 	C 	0.91586 0.87410 0.78060 -0.04600
N 	N 	0.91618 0.89120 0.81049 -0.04900
O 	O 	0.96329 0.84227 0.79080 -0.49300
O 	O 	0.93131 0.83118 0.74281 -0.58300
C 	C 	0.93990 0.34547 0.27020 0.38800
C 	C 	0.91586 0.37410 0.28060 -0.04600
N 	N 	0.91618 0.39120 0.31049 -0.04900
O 	O 	0.96329 0.34227 0.29080 -0.49300
O 	O 	0.93131 0.33118 0.24281 -0.58300
C 	C 	0.43990 0.84547 0.27020 0.38800
C 	C 	0.41586 0.87410 0.28060 -0.04600
N 	N 	0.41618 0.89120 0.31049 -0.04900
O 	O 	0.46329 0.84227 0.29080 -0.49400
O 	O 	0.43131 0.83118 0.24281 -0.58400
C 	C 	0.43990 0.34547 0.77020 0.38800
C 	C 	0.41586 0.37410 0.78060 -0.04600
N 	N 	0.41618 0.39120 0.81049 -0.05000
O 	O 	0.46329 0.34227 0.79080 -0.49400
O 	O 	0.43131 0.33118 0.74281 -0.58400
C 	C 	0.77020 0.84547 0.93990 0.38800
C 	C 	0.78060 0.87410 0.91586 -0.04600
N 	N 	0.81049 0.89120 0.91618 -0.04900
O 	O 	0.79080 0.84227 0.96329 -0.49300
O 	O 	0.74281 0.83118 0.93131 -0.58300
C 	C 	0.77020 0.34547 0.43990 0.38800
C 	C 	0.78060 0.37410 0.41586 -0.04600
N 	N 	0.81049 0.39120 0.41618 -0.05000
O 	O 	0.79080 0.34227 0.46329 -0.49400
O 	O 	0.74281 0.33118 0.43131 -0.58400
C 	C 	0.27020 0.84547 0.43990 0.38800
C 	C 	0.28060 0.87410 0.41586 -0.04600
N 	N 	0.31049 0.89120 0.41618 -0.04900
O 	O 	0.29080 0.84227 0.46329 -0.49400
O 	O 	0.24281 0.83118 0.43131 -0.58400
C 	C 	0.27020 0.34547 0.93990 0.38800
C 	C 	0.28060 0.37410 0.91586 -0.04600
N 	N 	0.31049 0.39120 0.91618 -0.04900
O 	O 	0.29080 0.34227 0.96329 -0.49300
O 	O 	0.24281 0.33118 0.93131 -0.58300
C 	C 	0.22980 0.15453 0.93990 0.38800
C 	C 	0.21940 0.12590 0.91586 -0.04600
N 	N 	0.18951 0.10880 0.91618 -0.05000
O 	O 	0.20920 0.15773 0.96329 -0.49300
O 	O 	0.25719 0.16882 0.93131 -0.58300
C 	C 	0.22980 0.65453 0.43990 0.38800
C 	C 	0.21940 0.62590 0.41586 -0.04600
N 	N 	0.18951 0.60880 0.41618 -0.05000
O 	O 	0.20920 0.65773 0.46329 -0.49400
O 	O 	0.25719 0.66882 0.43131 -0.58400
C 	C 	0.72980 0.15453 0.43990 0.38800
C 	C 	0.71940 0.12590 0.41586 -0.04600
N 	N 	0.68951 0.10880 0.41618 -0.05000
O 	O 	0.70920 0.15773 0.46329 -0.49400
O 	O 	0.75719 0.16882 0.43131 -0.58400
C 	C 	0.72980 0.65453 0.93990 0.38800
C 	C 	0.71940 0.62590 0.91586 -0.04600
N 	N 	0.68951 0.60880 0.91618 -0.04900
O 	O 	0.70920 0.65773 0.96329 -0.49300
O 	O 	0.75719 0.66882 0.93131 -0.58300
C 	C 	0.22980 0.84547 0.06010 0.38800
C 	C 	0.21940 0.87410 0.08414 -0.04600
N 	N 	0.18951 0.89120 0.08382 -0.05000
O 	O 	0.20920 0.84227 0.03671 -0.49500
O 	O 	0.25719 0.83118 0.06869 -0.58400
C 	C 	0.22980 0.34547 0.56010 0.38800
C 	C 	0.21940 0.37410 0.58414 -0.04600
N 	N 	0.18951 0.39120 0.58382 -0.05000
O 	O 	0.20920 0.34227 0.53671 -0.49400
O 	O 	0.25719 0.33118 0.56869 -0.58400
C 	C 	0.72980 0.84547 0.56010 0.38800
C 	C 	0.71940 0.87410 0.58414 -0.04600
N 	N 	0.68951 0.89120 0.58382 -0.04900
O 	O 	0.70920 0.84227 0.53671 -0.49400
O 	O 	0.75719 0.83118 0.56869 -0.58300
C 	C 	0.72980 0.34547 0.06010 0.38800
C 	C 	0.71940 0.37410 0.08414 -0.04700
N 	N 	0.68951 0.39120 0.08382 -0.05000
O 	O 	0.70920 0.34227 0.03671 -0.49500
O 	O 	0.75719 0.33118 0.06869 -0.58400
C 	C 	0.77020 0.15453 0.06010 0.38800
C 	C 	0.78060 0.12590 0.08414 -0.04700
N 	N 	0.81049 0.10880 0.08382 -0.05000
O 	O 	0.79080 0.15773 0.03671 -0.49500
O 	O 	0.74281 0.16882 0.06869 -0.58400
C 	C 	0.77020 0.65453 0.56010 0.38800
C 	C 	0.78060 0.62590 0.58414 -0.04600
N 	N 	0.81049 0.60880 0.58382 -0.05000
O 	O 	0.79080 0.65773 0.53671 -0.49400
O 	O 	0.74281 0.66882 0.56869 -0.58400
C 	C 	0.27020 0.15453 0.56010 0.38800
C 	C 	0.28060 0.12590 0.58414 -0.04600
N 	N 	0.31049 0.10880 0.58382 -0.05000
O 	O 	0.29080 0.15773 0.53671 -0.49400
O 	O 	0.24281 0.16882 0.56869 -0.58400
C 	C 	0.27020 0.65453 0.06010 0.38800
C 	C 	0.28060 0.62590 0.08414 -0.04700
N 	N 	0.31049 0.60880 0.08382 -0.05000
O 	O 	0.29080 0.65773 0.03671 -0.49500
O 	O 	0.24281 0.66882 0.06869 -0.58400
C 	C 	0.93990 0.77020 0.84547 0.38800
C 	C 	0.91586 0.78060 0.87410 -0.04600
N 	N 	0.91618 0.81049 0.89120 -0.04900
O 	O 	0.96329 0.79080 0.84227 -0.49300
O 	O 	0.93131 0.74281 0.83118 -0.58300
C 	C 	0.93990 0.27020 0.34547 0.38800
C 	C 	0.91586 0.28060 0.37410 -0.04600
N 	N 	0.91618 0.31049 0.39120 -0.04900
O 	O 	0.96329 0.29080 0.34227 -0.49300
O 	O 	0.93131 0.24281 0.33118 -0.58300
C 	C 	0.43990 0.77020 0.34547 0.38800
C 	C 	0.41586 0.78060 0.37410 -0.04600
N 	N 	0.41618 0.81049 0.39120 -0.05000
O 	O 	0.46329 0.79080 0.34227 -0.49400
O 	O 	0.43131 0.74281 0.33118 -0.58400
C 	C 	0.43990 0.27020 0.84547 0.38800
C 	C 	0.41586 0.28060 0.87410 -0.04600
N 	N 	0.41618 0.31049 0.89120 -0.04900
O 	O 	0.46329 0.29080 0.84227 -0.49400
O 	O 	0.43131 0.24281 0.83118 -0.58400
C 	C 	0.93990 0.22980 0.15453 0.38800
C 	C 	0.91586 0.21940 0.12590 -0.04600
N 	N 	0.91618 0.18951 0.10880 -0.05000
O 	O 	0.96329 0.20920 0.15773 -0.49300
O 	O 	0.93131 0.25719 0.16882 -0.58300
C 	C 	0.93990 0.72980 0.65453 0.38800
C 	C 	0.91586 0.71940 0.62590 -0.04600
N 	N 	0.91618 0.68951 0.60880 -0.04900
O 	O 	0.96329 0.70920 0.65773 -0.49300
O 	O 	0.93131 0.75719 0.66882 -0.58300
C 	C 	0.43990 0.22980 0.65453 0.38800
C 	C 	0.41586 0.21940 0.62590 -0.04600
N 	N 	0.41618 0.18951 0.60880 -0.05000
O 	O 	0.46329 0.20920 0.65773 -0.49400
O 	O 	0.43131 0.25719 0.66882 -0.58400
C 	C 	0.43990 0.72980 0.15453 0.38800
C 	C 	0.41586 0.71940 0.12590 -0.04600
N 	N 	0.41618 0.68951 0.10880 -0.05000
O 	O 	0.46329 0.70920 0.15773 -0.49400
O 	O 	0.43131 0.75719 0.16882 -0.58400
C 	C 	0.06010 0.22980 0.84547 0.38800
C 	C 	0.08414 0.21940 0.87410 -0.04600
N 	N 	0.08382 0.18951 0.89120 -0.05000
O 	O 	0.03671 0.20920 0.84227 -0.49500
O 	O 	0.06869 0.25719 0.83118 -0.58400
C 	C 	0.06010 0.72980 0.34547 0.38800
C 	C 	0.08414 0.71940 0.37410 -0.04700
N 	N 	0.08382 0.68951 0.39120 -0.05000
O 	O 	0.03671 0.70920 0.34227 -0.49500
O 	O 	0.06869 0.75719 0.33118 -0.58400
C 	C 	0.56010 0.22980 0.34547 0.38800
C 	C 	0.58414 0.21940 0.37410 -0.04600
N 	N 	0.58382 0.18951 0.39120 -0.05000
O 	O 	0.53671 0.20920 0.34227 -0.49400
O 	O 	0.56869 0.25719 0.33118 -0.58400
C 	C 	0.56010 0.72980 0.84547 0.38800
C 	C 	0.58414 0.71940 0.87410 -0.04600
N 	N 	0.58382 0.68951 0.89120 -0.04900
O 	O 	0.53671 0.70920 0.84227 -0.49400
O 	O 	0.56869 0.75719 0.83118 -0.58300
C 	C 	0.06010 0.77020 0.15453 0.38800
C 	C 	0.08414 0.78060 0.12590 -0.04700
N 	N 	0.08382 0.81049 0.10880 -0.05000
O 	O 	0.03671 0.79080 0.15773 -0.49500
O 	O 	0.06869 0.74281 0.16882 -0.58400
C 	C 	0.06010 0.27020 0.65453 0.38800
C 	C 	0.08414 0.28060 0.62590 -0.04700
N 	N 	0.08382 0.31049 0.60880 -0.05000
O 	O 	0.03671 0.29080 0.65773 -0.49500
O 	O 	0.06869 0.24281 0.66882 -0.58400
C 	C 	0.56010 0.77020 0.65453 0.38800
C 	C 	0.58414 0.78060 0.62590 -0.04600
N 	N 	0.58382 0.81049 0.60880 -0.05000
O 	O 	0.53671 0.79080 0.65773 -0.49400
O 	O 	0.56869 0.74281 0.66882 -0.58400
C 	C 	0.56010 0.27020 0.15453 0.38800
C 	C 	0.58414 0.28060 0.12590 -0.04600
N 	N 	0.58382 0.31049 0.10880 -0.05000
O 	O 	0.53671 0.29080 0.15773 -0.49400
O 	O 	0.56869 0.24281 0.16882 -0.58400
C 	C 	0.84547 0.93990 0.77020 0.38800
C 	C 	0.87410 0.91586 0.78060 -0.04600
N 	N 	0.89120 0.91618 0.81049 -0.04900
O 	O 	0.84227 0.96329 0.79080 -0.49300
O 	O 	0.83118 0.93131 0.74281 -0.58300
C 	C 	0.84547 0.43990 0.27020 0.38800
C 	C 	0.87410 0.41586 0.28060 -0.04600
N 	N 	0.89120 0.41618 0.31049 -0.04900
O 	O 	0.84227 0.46329 0.29080 -0.49400
O 	O 	0.83118 0.43131 0.24281 -0.58400
C 	C 	0.34547 0.93990 0.27020 0.38800
C 	C 	0.37410 0.91586 0.28060 -0.04600
N 	N 	0.39120 0.91618 0.31049 -0.04900
O 	O 	0.34227 0.96329 0.29080 -0.49300
O 	O 	0.33118 0.93131 0.24281 -0.58300
C 	C 	0.34547 0.43990 0.77020 0.38800
C 	C 	0.37410 0.41586 0.78060 -0.04600
N 	N 	0.39120 0.41618 0.81049 -0.05000
O 	O 	0.34227 0.46329 0.79080 -0.49400
O 	O 	0.33118 0.43131 0.74281 -0.58400
C 	C 	0.15453 0.93990 0.22980 0.38800
C 	C 	0.12590 0.91586 0.21940 -0.04600
N 	N 	0.10880 0.91618 0.18951 -0.05000
O 	O 	0.15773 0.96329 0.20920 -0.49300
O 	O 	0.16882 0.93131 0.25719 -0.58300
C 	C 	0.15453 0.43990 0.72980 0.38800
C 	C 	0.12590 0.41586 0.71940 -0.04600
N 	N 	0.10880 0.41618 0.68951 -0.05000
O 	O 	0.15773 0.46329 0.70920 -0.49400
O 	O 	0.16882 0.43131 0.75719 -0.58400
C 	C 	0.65453 0.93990 0.72980 0.38800
C 	C 	0.62590 0.91586 0.71940 -0.04600
N 	N 	0.60880 0.91618 0.68951 -0.04900
O 	O 	0.65773 0.96329 0.70920 -0.49300
O 	O 	0.66882 0.93131 0.75719 -0.58300
C 	C 	0.65453 0.43990 0.22980 0.38800
C 	C 	0.62590 0.41586 0.21940 -0.04600
N 	N 	0.60880 0.41618 0.18951 -0.05000
O 	O 	0.65773 0.46329 0.20920 -0.49400
O 	O 	0.66882 0.43131 0.25719 -0.58400
C 	C 	0.84547 0.06010 0.22980 0.38800
C 	C 	0.87410 0.08414 0.21940 -0.04600
N 	N 	0.89120 0.08382 0.18951 -0.05000
O 	O 	0.84227 0.03671 0.20920 -0.49500
O 	O 	0.83118 0.06869 0.25719 -0.58400
C 	C 	0.84547 0.56010 0.72980 0.38800
C 	C 	0.87410 0.58414 0.71940 -0.04600
N 	N 	0.89120 0.58382 0.68951 -0.04900
O 	O 	0.84227 0.53671 0.70920 -0.49400
O 	O 	0.83118 0.56869 0.75719 -0.58300
C 	C 	0.34547 0.06010 0.72980 0.38800
C 	C 	0.37410 0.08414 0.71940 -0.04700
N 	N 	0.39120 0.08382 0.68951 -0.05000
O 	O 	0.34227 0.03671 0.70920 -0.49500
O 	O 	0.33118 0.06869 0.75719 -0.58400
C 	C 	0.34547 0.56010 0.22980 0.38800
C 	C 	0.37410 0.58414 0.21940 -0.04600
N 	N 	0.39120 0.58382 0.18951 -0.05000
O 	O 	0.34227 0.53671 0.20920 -0.49400
O 	O 	0.33118 0.56869 0.25719 -0.58400
C 	C 	0.15453 0.06010 0.77020 0.38800
C 	C 	0.12590 0.08414 0.78060 -0.04700
N 	N 	0.10880 0.08382 0.81049 -0.05000
O 	O 	0.15773 0.03671 0.79080 -0.49500
O 	O 	0.16882 0.06869 0.74281 -0.58400
C 	C 	0.15453 0.56010 0.27020 0.38800
C 	C 	0.12590 0.58414 0.28060 -0.04600
N 	N 	0.10880 0.58382 0.31049 -0.05000
O 	O 	0.15773 0.53671 0.29080 -0.49400
O 	O 	0.16882 0.56869 0.24281 -0.58400
C 	C 	0.65453 0.06010 0.27020 0.38800
C 	C 	0.62590 0.08414 0.28060 -0.04700
N 	N 	0.60880 0.08382 0.31049 -0.05000
O 	O 	0.65773 0.03671 0.29080 -0.49500
O 	O 	0.66882 0.06869 0.24281 -0.58400
C 	C 	0.65453 0.56010 0.77020 0.38800
C 	C 	0.62590 0.58414 0.78060 -0.04600
N 	N 	0.60880 0.58382 0.81049 -0.05000
O 	O 	0.65773 0.53671 0.79080 -0.49400
O 	O 	0.66882 0.56869 0.74281 -0.58400
C 	C 	0.84547 0.77020 0.06010 0.38800
C 	C 	0.87410 0.78060 0.08414 -0.04600
N 	N 	0.89120 0.81049 0.08382 -0.05000
O 	O 	0.84227 0.79080 0.03671 -0.49500
O 	O 	0.83118 0.74281 0.06869 -0.58400
C 	C 	0.84547 0.27020 0.56010 0.38800
C 	C 	0.87410 0.28060 0.58414 -0.04600
N 	N 	0.89120 0.31049 0.58382 -0.04900
O 	O 	0.84227 0.29080 0.53671 -0.49400
O 	O 	0.83118 0.24281 0.56869 -0.58400
C 	C 	0.34547 0.77020 0.56010 0.38800
C 	C 	0.37410 0.78060 0.58414 -0.04600
N 	N 	0.39120 0.81049 0.58382 -0.05000
O 	O 	0.34227 0.79080 0.53671 -0.49400
O 	O 	0.33118 0.74281 0.56869 -0.58400
C 	C 	0.34547 0.27020 0.06010 0.38800
C 	C 	0.37410 0.28060 0.08414 -0.04700
N 	N 	0.39120 0.31049 0.08382 -0.05000
O 	O 	0.34227 0.29080 0.03671 -0.49500
O 	O 	0.33118 0.24281 0.06869 -0.58400
C 	C 	0.15453 0.22980 0.06010 0.38800
C 	C 	0.12590 0.21940 0.08414 -0.04700
N 	N 	0.10880 0.18951 0.08382 -0.05000
O 	O 	0.15773 0.20920 0.03671 -0.49500
O 	O 	0.16882 0.25719 0.06869 -0.58400
C 	C 	0.15453 0.72980 0.56010 0.38800
C 	C 	0.12590 0.71940 0.58414 -0.04600
N 	N 	0.10880 0.68951 0.58382 -0.05000
O 	O 	0.15773 0.70920 0.53671 -0.49400
O 	O 	0.16882 0.75719 0.56869 -0.58400
C 	C 	0.65453 0.22980 0.56010 0.38800
C 	C 	0.62590 0.21940 0.58414 -0.04600
N 	N 	0.60880 0.18951 0.58382 -0.05000
O 	O 	0.65773 0.20920 0.53671 -0.49400
O 	O 	0.66882 0.25719 0.56869 -0.58400
C 	C 	0.65453 0.72980 0.06010 0.38800
C 	C 	0.62590 0.71940 0.08414 -0.04700
N 	N 	0.60880 0.68951 0.08382 -0.05000
O 	O 	0.65773 0.70920 0.03671 -0.49500
O 	O 	0.66882 0.75719 0.06869 -0.58400
C 	C 	0.84547 0.22980 0.93990 0.38800
C 	C 	0.87410 0.21940 0.91586 -0.04600
N 	N 	0.89120 0.18951 0.91618 -0.04900
O 	O 	0.84227 0.20920 0.96329 -0.49300
O 	O 	0.83118 0.25719 0.93131 -0.58300
C 	C 	0.84547 0.72980 0.43990 0.38800
C 	C 	0.87410 0.71940 0.41586 -0.04600
N 	N 	0.89120 0.68951 0.41618 -0.04900
O 	O 	0.84227 0.70920 0.46329 -0.49400
O 	O 	0.83118 0.75719 0.43131 -0.58300
C 	C 	0.34547 0.22980 0.43990 0.38800
C 	C 	0.37410 0.21940 0.41586 -0.04600
N 	N 	0.39120 0.18951 0.41618 -0.05000
O 	O 	0.34227 0.20920 0.46329 -0.49400
O 	O 	0.33118 0.25719 0.43131 -0.58400
C 	C 	0.34547 0.72980 0.93990 0.38800
C 	C 	0.37410 0.71940 0.91586 -0.04600
N 	N 	0.39120 0.68951 0.91618 -0.04900
O 	O 	0.34227 0.70920 0.96329 -0.49300
O 	O 	0.33118 0.75719 0.93131 -0.58300
C 	C 	0.15453 0.77020 0.93990 0.38800
C 	C 	0.12590 0.78060 0.91586 -0.04600
N 	N 	0.10880 0.81049 0.91618 -0.04900
O 	O 	0.15773 0.79080 0.96329 -0.49300
O 	O 	0.16882 0.74281 0.93131 -0.58300
C 	C 	0.15453 0.27020 0.43990 0.38800
C 	C 	0.12590 0.28060 0.41586 -0.04600
N 	N 	0.10880 0.31049 0.41618 -0.05000
O 	O 	0.15773 0.29080 0.46329 -0.49400
O 	O 	0.16882 0.24281 0.43131 -0.58400
C 	C 	0.65453 0.77020 0.43990 0.38800
C 	C 	0.62590 0.78060 0.41586 -0.04600
N 	N 	0.60880 0.81049 0.41618 -0.05000
O 	O 	0.65773 0.79080 0.46329 -0.49400
O 	O 	0.66882 0.74281 0.43131 -0.58400
C 	C 	0.65453 0.27020 0.93990 0.38800
C 	C 	0.62590 0.28060 0.91586 -0.04600
N 	N 	0.60880 0.31049 0.91618 -0.04900
O 	O 	0.65773 0.29080 0.96329 -0.49300
O 	O 	0.66882 0.24281 0.93131 -0.58300
C 	C 	0.77020 0.93990 0.15453 0.38800
C 	C 	0.78060 0.91586 0.12590 -0.04600
N 	N 	0.81049 0.91618 0.10880 -0.04900
O 	O 	0.79080 0.96329 0.15773 -0.49300
O 	O 	0.74281 0.93131 0.16882 -0.58300
C 	C 	0.77020 0.43990 0.65453 0.38800
C 	C 	0.78060 0.41586 0.62590 -0.04600
N 	N 	0.81049 0.41618 0.60880 -0.05000
O 	O 	0.79080 0.46329 0.65773 -0.49400
O 	O 	0.74281 0.43131 0.66882 -0.58400
C 	C 	0.27020 0.93990 0.65453 0.38800
C 	C 	0.28060 0.91586 0.62590 -0.04600
N 	N 	0.31049 0.91618 0.60880 -0.04900
O 	O 	0.29080 0.96329 0.65773 -0.49300
O 	O 	0.24281 0.93131 0.66882 -0.58300
C 	C 	0.27020 0.43990 0.15453 0.38800
C 	C 	0.28060 0.41586 0.12590 -0.04600
N 	N 	0.31049 0.41618 0.10880 -0.05000
O 	O 	0.29080 0.46329 0.15773 -0.49400
O 	O 	0.24281 0.43131 0.16882 -0.58400
C 	C 	0.22980 0.93990 0.84547 0.38800
C 	C 	0.21940 0.91586 0.87410 -0.04600
N 	N 	0.18951 0.91618 0.89120 -0.04900
O 	O 	0.20920 0.96329 0.84227 -0.49300
O 	O 	0.25719 0.93131 0.83118 -0.58300
C 	C 	0.22980 0.43990 0.34547 0.38800
C 	C 	0.21940 0.41586 0.37410 -0.04600
N 	N 	0.18951 0.41618 0.39120 -0.05000
O 	O 	0.20920 0.46329 0.34227 -0.49400
O 	O 	0.25719 0.43131 0.33118 -0.58400
C 	C 	0.72980 0.93990 0.34547 0.38800
C 	C 	0.71940 0.91586 0.37410 -0.04600
N 	N 	0.68951 0.91618 0.39120 -0.04900
O 	O 	0.70920 0.96329 0.34227 -0.49300
O 	O 	0.75719 0.93131 0.33118 -0.58300
C 	C 	0.72980 0.43990 0.84547 0.38800
C 	C 	0.71940 0.41586 0.87410 -0.04600
N 	N 	0.68951 0.41618 0.89120 -0.04900
O 	O 	0.70920 0.46329 0.84227 -0.49400
O 	O 	0.75719 0.43131 0.83118 -0.58300
C 	C 	0.22980 0.06010 0.15453 0.38800
C 	C 	0.21940 0.08414 0.12590 -0.04700
N 	N 	0.18951 0.08382 0.10880 -0.05000
O 	O 	0.20920 0.03671 0.15773 -0.49500
O 	O 	0.25719 0.06869 0.16882 -0.58400
C 	C 	0.22980 0.56010 0.65453 0.38800
C 	C 	0.21940 0.58414 0.62590 -0.04600
N 	N 	0.18951 0.58382 0.60880 -0.05000
O 	O 	0.20920 0.53671 0.65773 -0.49400
O 	O 	0.25719 0.56869 0.66882 -0.58400
C 	C 	0.72980 0.06010 0.65453 0.38800
C 	C 	0.71940 0.08414 0.62590 -0.04700
N 	N 	0.68951 0.08382 0.60880 -0.05000
O 	O 	0.70920 0.03671 0.65773 -0.49500
O 	O 	0.75719 0.06869 0.66882 -0.58400
C 	C 	0.72980 0.56010 0.15453 0.38800
C 	C 	0.71940 0.58414 0.12590 -0.04600
N 	N 	0.68951 0.58382 0.10880 -0.05000
O 	O 	0.70920 0.53671 0.15773 -0.49400
O 	O 	0.75719 0.56869 0.16882 -0.58400
C 	C 	0.77020 0.06010 0.84547 0.38800
C 	C 	0.78060 0.08414 0.87410 -0.04600
N 	N 	0.81049 0.08382 0.89120 -0.05000
O 	O 	0.79080 0.03671 0.84227 -0.49500
O 	O 	0.74281 0.06869 0.83118 -0.58400
C 	C 	0.77020 0.56010 0.34547 0.38800
C 	C 	0.78060 0.58414 0.37410 -0.04600
N 	N 	0.81049 0.58382 0.39120 -0.05000
O 	O 	0.79080 0.53671 0.34227 -0.49400
O 	O 	0.74281 0.56869 0.33118 -0.58400
C 	C 	0.27020 0.06010 0.34547 0.38800
C 	C 	0.28060 0.08414 0.37410 -0.04700
N 	N 	0.31049 0.08382 0.39120 -0.05000
O 	O 	0.29080 0.03671 0.34227 -0.49500
O 	O 	0.24281 0.06869 0.33118 -0.58400
C 	C 	0.27020 0.56010 0.84547 0.38800
C 	C 	0.28060 0.58414 0.87410 -0.04600
N 	N 	0.31049 0.58382 0.89120 -0.04900
O 	O 	0.29080 0.53671 0.84227 -0.49400
O 	O 	0.24281 0.56869 0.83118 -0.58400
C 	C 	0.93990 0.84547 0.22980 0.38800
C 	C 	0.91586 0.87410 0.21940 -0.04600
N 	N 	0.91618 0.89120 0.18951 -0.04900
O 	O 	0.96329 0.84227 0.20920 -0.49300
O 	O 	0.93131 0.83118 0.25719 -0.58300
C 	C 	0.93990 0.34547 0.72980 0.38800
C 	C 	0.91586 0.37410 0.71940 -0.04600
N 	N 	0.91618 0.39120 0.68951 -0.04900
O 	O 	0.96329 0.34227 0.70920 -0.49300
O 	O 	0.93131 0.33118 0.75719 -0.58300
C 	C 	0.43990 0.84547 0.72980 0.38800
C 	C 	0.41586 0.87410 0.71940 -0.04600
N 	N 	0.41618 0.89120 0.68951 -0.04900
O 	O 	0.46329 0.84227 0.70920 -0.49400
O 	O 	0.43131 0.83118 0.75719 -0.58300
C 	C 	0.43990 0.34547 0.22980 0.38800
C 	C 	0.41586 0.37410 0.21940 -0.04600
N 	N 	0.41618 0.39120 0.18951 -0.05000
O 	O 	0.46329 0.34227 0.20920 -0.49400
O 	O 	0.43131 0.33118 0.25719 -0.58400
C 	C 	0.93990 0.15453 0.77020 0.38800
C 	C 	0.91586 0.12590 0.78060 -0.04600
N 	N 	0.91618 0.10880 0.81049 -0.04900
O 	O 	0.96329 0.15773 0.79080 -0.49300
O 	O 	0.93131 0.16882 0.74281 -0.58300
C 	C 	0.93990 0.65453 0.27020 0.38800
C 	C 	0.91586 0.62590 0.28060 -0.04600
N 	N 	0.91618 0.60880 0.31049 -0.04900
O 	O 	0.96329 0.65773 0.29080 -0.49300
O 	O 	0.93131 0.66882 0.24281 -0.58300
C 	C 	0.43990 0.15453 0.27020 0.38800
C 	C 	0.41586 0.12590 0.28060 -0.04600
N 	N 	0.41618 0.10880 0.31049 -0.05000
O 	O 	0.46329 0.15773 0.29080 -0.49400
O 	O 	0.43131 0.16882 0.24281 -0.58400
C 	C 	0.43990 0.65453 0.77020 0.38800
C 	C 	0.41586 0.62590 0.78060 -0.04600
N 	N 	0.41618 0.60880 0.81049 -0.05000
O 	O 	0.46329 0.65773 0.79080 -0.49400
O 	O 	0.43131 0.66882 0.74281 -0.58400
C 	C 	0.06010 0.84547 0.77020 0.38800
C 	C 	0.08414 0.87410 0.78060 -0.04600
N 	N 	0.08382 0.89120 0.81049 -0.05000
O 	O 	0.03671 0.84227 0.79080 -0.49500
O 	O 	0.06869 0.83118 0.74281 -0.58400
C 	C 	0.06010 0.34547 0.27020 0.38800
C 	C 	0.08414 0.37410 0.28060 -0.04700
N 	N 	0.08382 0.39120 0.31049 -0.05000
O 	O 	0.03671 0.34227 0.29080 -0.49500
O 	O 	0.06869 0.33118 0.24281 -0.58400
C 	C 	0.56010 0.84547 0.27020 0.38800
C 	C 	0.58414 0.87410 0.28060 -0.04600
N 	N 	0.58382 0.89120 0.31049 -0.04900
O 	O 	0.53671 0.84227 0.29080 -0.49400
O 	O 	0.56869 0.83118 0.24281 -0.58400
C 	C 	0.56010 0.34547 0.77020 0.38800
C 	C 	0.58414 0.37410 0.78060 -0.04600
N 	N 	0.58382 0.39120 0.81049 -0.05000
O 	O 	0.53671 0.34227 0.79080 -0.49400
O 	O 	0.56869 0.33118 0.74281 -0.58400
C 	C 	0.06010 0.15453 0.22980 0.38800
C 	C 	0.08414 0.12590 0.21940 -0.04700
N 	N 	0.08382 0.10880 0.18951 -0.05000
O 	O 	0.03671 0.15773 0.20920 -0.49500
O 	O 	0.06869 0.16882 0.25719 -0.58400
C 	C 	0.06010 0.65453 0.72980 0.38800
C 	C 	0.08414 0.62590 0.71940 -0.04700
N 	N 	0.08382 0.60880 0.68951 -0.05000
O 	O 	0.03671 0.65773 0.70920 -0.49500
O 	O 	0.06869 0.66882 0.75719 -0.58400
C 	C 	0.56010 0.15453 0.72980 0.38800
C 	C 	0.58414 0.12590 0.71940 -0.04600
N 	N 	0.58382 0.10880 0.68951 -0.05000
O 	O 	0.53671 0.15773 0.70920 -0.49400
O 	O 	0.56869 0.16882 0.75719 -0.58400
C 	C 	0.56010 0.65453 0.22980 0.38800
C 	C 	0.58414 0.62590 0.21940 -0.04600
N 	N 	0.58382 0.60880 0.18951 -0.05000
O 	O 	0.53671 0.65773 0.20920 -0.49400
O 	O 	0.56869 0.66882 0.25719 -0.58400
Ce	Ce	0.21648 0.28352 0.04783 2.12100
Ce	Ce	0.21648 0.78352 0.54783 2.12200
Ce	Ce	0.78352 0.71648 0.04783 2.12200
Ce	Ce	0.78352 0.21648 0.54783 2.12200
Ce	Ce	0.28352 0.21648 0.04783 2.12100
Ce	Ce	0.78352 0.28352 0.95217 2.12200
Ce	Ce	0.78352 0.78352 0.45217 2.12200
Ce	Ce	0.28352 0.28352 0.45217 2.12200
Ce	Ce	0.21648 0.71648 0.95217 2.12200
Ce	Ce	0.21648 0.21648 0.45217 2.12200
Ce	Ce	0.04783 0.21648 0.28352 2.12100
Ce	Ce	0.54783 0.21648 0.78352 2.12200
Ce	Ce	0.04783 0.78352 0.71648 2.12200
Ce	Ce	0.04783 0.28352 0.21648 2.12100
Ce	Ce	0.54783 0.78352 0.21648 2.12200
Ce	Ce	0.95217 0.78352 0.28352 2.12200
Ce	Ce	0.45217 0.78352 0.78352 2.12200
Ce	Ce	0.45217 0.28352 0.28352 2.12200
Ce	Ce	0.95217 0.21648 0.71648 2.12200
Ce	Ce	0.45217 0.21648 0.21648 2.12200
Ce	Ce	0.28352 0.04783 0.21648 2.12100
Ce	Ce	0.28352 0.54783 0.71648 2.12200
Ce	Ce	0.71648 0.04783 0.78352 2.12200
Ce	Ce	0.71648 0.54783 0.28352 2.12200
Ce	Ce	0.21648 0.04783 0.28352 2.12100
Ce	Ce	0.28352 0.95217 0.78352 2.12200
Ce	Ce	0.28352 0.45217 0.28352 2.12200
Ce	Ce	0.71648 0.95217 0.21648 2.12200
Ce	Ce	0.71648 0.45217 0.71648 2.12200
Ce	Ce	0.21648 0.45217 0.21648 2.12200
Ce	Ce	0.28352 0.21648 0.95217 2.12200
Ce	Ce	0.28352 0.71648 0.45217 2.12200
Ce	Ce	0.71648 0.78352 0.95217 2.12200
Ce	Ce	0.71648 0.28352 0.45217 2.12200
Ce	Ce	0.21648 0.28352 0.95217 2.12200
Ce	Ce	0.28352 0.78352 0.04783 2.12200
Ce	Ce	0.28352 0.28352 0.54783 2.12200
Ce	Ce	0.71648 0.21648 0.04783 2.12100
Ce	Ce	0.71648 0.71648 0.54783 2.12200
Ce	Ce	0.21648 0.21648 0.54783 2.12200
Ce	Ce	0.21648 0.04783 0.71648 2.12100
Ce	Ce	0.21648 0.54783 0.21648 2.12200
Ce	Ce	0.78352 0.04783 0.28352 2.12200
Ce	Ce	0.78352 0.54783 0.78352 2.12200
Ce	Ce	0.28352 0.54783 0.28352 2.12200
Ce	Ce	0.78352 0.95217 0.71648 2.12200
Ce	Ce	0.78352 0.45217 0.21648 2.12200
Ce	Ce	0.28352 0.95217 0.21648 2.12200
Ce	Ce	0.21648 0.95217 0.28352 2.12200
Ce	Ce	0.21648 0.45217 0.78352 2.12200
Ce	Ce	0.04783 0.28352 0.78352 2.12200
Ce	Ce	0.54783 0.28352 0.28352 2.12200
Ce	Ce	0.04783 0.71648 0.21648 2.12100
Ce	Ce	0.54783 0.71648 0.71648 2.12200
Ce	Ce	0.54783 0.21648 0.21648 2.12200
Ce	Ce	0.95217 0.28352 0.21648 2.12200
Ce	Ce	0.45217 0.28352 0.71648 2.12200
Ce	Ce	0.95217 0.71648 0.78352 2.12200
Ce	Ce	0.95217 0.21648 0.28352 2.12200
Ce	Ce	0.45217 0.71648 0.28352 2.12200
Ce	Ce	0.78352 0.71648 0.95217 2.12200
Ce	Ce	0.78352 0.21648 0.45217 2.12200
Ce	Ce	0.21648 0.78352 0.45217 2.12200
Ce	Ce	0.21648 0.71648 0.04783 2.12100
Ce	Ce	0.78352 0.28352 0.04783 2.12200
Ce	Ce	0.78352 0.78352 0.54783 2.12200
Ce	Ce	0.95217 0.78352 0.71648 2.12200
Ce	Ce	0.45217 0.78352 0.21648 2.12200
Ce	Ce	0.45217 0.21648 0.78352 2.12200
Ce	Ce	0.04783 0.21648 0.71648 2.12100
Ce	Ce	0.04783 0.78352 0.28352 2.12200
Ce	Ce	0.54783 0.78352 0.78352 2.12200
Ce	Ce	0.71648 0.95217 0.78352 2.12200
Ce	Ce	0.71648 0.45217 0.28352 2.12200
Ce	Ce	0.28352 0.45217 0.71648 2.12200
Ce	Ce	0.71648 0.04783 0.21648 2.12100
Ce	Ce	0.71648 0.54783 0.71648 2.12200
Ce	Ce	0.28352 0.04783 0.78352 2.12200
Ce	Ce	0.71648 0.78352 0.04783 2.12200
Ce	Ce	0.71648 0.28352 0.54783 2.12200
Ce	Ce	0.28352 0.71648 0.54783 2.12200
Ce	Ce	0.71648 0.21648 0.95217 2.12200
Ce	Ce	0.71648 0.71648 0.45217 2.12200
Ce	Ce	0.28352 0.78352 0.95217 2.12200
Ce	Ce	0.78352 0.95217 0.28352 2.12200
Ce	Ce	0.78352 0.45217 0.78352 2.12200
Ce	Ce	0.21648 0.95217 0.71648 2.12200
Ce	Ce	0.21648 0.54783 0.78352 2.12200
Ce	Ce	0.78352 0.04783 0.71648 2.12200
Ce	Ce	0.78352 0.54783 0.21648 2.12200
Ce	Ce	0.95217 0.71648 0.21648 2.12200
Ce	Ce	0.45217 0.71648 0.71648 2.12200
Ce	Ce	0.95217 0.28352 0.78352 2.12200
Ce	Ce	0.04783 0.71648 0.78352 2.12200
Ce	Ce	0.54783 0.71648 0.28352 2.12200
Ce	Ce	0.54783 0.28352 0.71648 2.12200
Ce	Ce	0.20151 0.20151 -0.00000 2.21700
Ce	Ce	0.20151 0.70151 0.50000 2.21800
Ce	Ce	0.70151 0.20151 0.50000 2.21800
Ce	Ce	0.70151 0.70151 -0.00000 2.21700
Ce	Ce	0.79849 0.79849 -0.00000 2.21700
Ce	Ce	0.79849 0.29849 0.50000 2.21800
Ce	Ce	0.29849 0.79849 0.50000 2.21800
Ce	Ce	0.29849 0.29849 -0.00000 2.21700
Ce	Ce	0.79849 0.20151 -0.00000 2.21700
Ce	Ce	0.79849 0.70151 0.50000 2.21800
Ce	Ce	0.29849 0.20151 0.50000 2.21800
Ce	Ce	0.29849 0.70151 -0.00000 2.21700
Ce	Ce	0.20151 0.79849 -0.00000 2.21700
Ce	Ce	0.20151 0.29849 0.50000 2.21800
Ce	Ce	0.70151 0.79849 0.50000 2.21800
Ce	Ce	0.70151 0.29849 -0.00000 2.21700
Ce	Ce	0.00000 0.20151 0.20151 2.21700
Ce	Ce	0.00000 0.70151 0.70151 2.21700
Ce	Ce	0.50000 0.20151 0.70151 2.21800
Ce	Ce	0.50000 0.70151 0.20151 2.21800
Ce	Ce	-0.00000 0.79849 0.79849 2.21700
Ce	Ce	-0.00000 0.29849 0.29849 2.21700
Ce	Ce	0.50000 0.79849 0.29849 2.21800
Ce	Ce	0.50000 0.29849 0.79849 2.21800
Ce	Ce	-0.00000 0.79849 0.20151 2.21700
Ce	Ce	0.00000 0.29849 0.70151 2.21700
Ce	Ce	0.50000 0.79849 0.70151 2.21800
Ce	Ce	0.50000 0.29849 0.20151 2.21800
Ce	Ce	-0.00000 0.20151 0.79849 2.21700
Ce	Ce	0.00000 0.70151 0.29849 2.21700
Ce	Ce	0.50000 0.20151 0.29849 2.21800
Ce	Ce	0.50000 0.70151 0.79849 2.21800
Ce	Ce	0.20151 0.00000 0.20151 2.21700
Ce	Ce	0.20151 0.50000 0.70151 2.21800
Ce	Ce	0.70151 0.00000 0.70151 2.21700
Ce	Ce	0.70151 0.50000 0.20151 2.21800
Ce	Ce	0.79849 0.00000 0.79849 2.21700
Ce	Ce	0.79849 0.50000 0.29849 2.21800
Ce	Ce	0.29849 -0.00000 0.29849 2.21700
Ce	Ce	0.29849 0.50000 0.79849 2.21800
Ce	Ce	0.20151 0.00000 0.79849 2.21700
Ce	Ce	0.20151 0.50000 0.29849 2.21800
Ce	Ce	0.70151 -0.00000 0.29849 2.21700
Ce	Ce	0.70151 0.50000 0.79849 2.21800
Ce	Ce	0.79849 0.00000 0.20151 2.21700
Ce	Ce	0.79849 0.50000 0.70151 2.21800
Ce	Ce	0.29849 0.00000 0.70151 2.21700
Ce	Ce	0.29849 0.50000 0.20151 2.21800
O 	O 	0.22650 0.22650 0.04860 -0.79600
O 	O 	0.22650 0.72650 0.54860 -0.79600
O 	O 	0.72650 0.22650 0.54860 -0.79600
O 	O 	0.72650 0.72650 0.04860 -0.79600
O 	O 	0.77350 0.77350 0.04860 -0.79600
O 	O 	0.77350 0.27350 0.54860 -0.79600
O 	O 	0.27350 0.77350 0.54860 -0.79600
O 	O 	0.27350 0.27350 0.04860 -0.79600
O 	O 	0.77350 0.22650 0.95140 -0.79500
O 	O 	0.77350 0.72650 0.45140 -0.79600
O 	O 	0.27350 0.22650 0.45140 -0.79600
O 	O 	0.27350 0.72650 0.95140 -0.79500
O 	O 	0.22650 0.77350 0.95140 -0.79500
O 	O 	0.22650 0.27350 0.45140 -0.79600
O 	O 	0.72650 0.77350 0.45140 -0.79600
O 	O 	0.72650 0.27350 0.95140 -0.79500
O 	O 	0.04860 0.22650 0.22650 -0.79600
O 	O 	0.04860 0.72650 0.72650 -0.79600
O 	O 	0.54860 0.22650 0.72650 -0.79600
O 	O 	0.54860 0.72650 0.22650 -0.79600
O 	O 	0.04860 0.77350 0.77350 -0.79600
O 	O 	0.04860 0.27350 0.27350 -0.79600
O 	O 	0.54860 0.77350 0.27350 -0.79600
O 	O 	0.54860 0.27350 0.77350 -0.79600
O 	O 	0.95140 0.77350 0.22650 -0.79500
O 	O 	0.95140 0.27350 0.72650 -0.79500
O 	O 	0.45140 0.77350 0.72650 -0.79600
O 	O 	0.45140 0.27350 0.22650 -0.79600
O 	O 	0.95140 0.22650 0.77350 -0.79500
O 	O 	0.95140 0.72650 0.27350 -0.79500
O 	O 	0.45140 0.22650 0.27350 -0.79600
O 	O 	0.45140 0.72650 0.77350 -0.79600
O 	O 	0.22650 0.04860 0.22650 -0.79600
O 	O 	0.22650 0.54860 0.72650 -0.79600
O 	O 	0.72650 0.04860 0.72650 -0.79600
O 	O 	0.72650 0.54860 0.22650 -0.79600
O 	O 	0.77350 0.04860 0.77350 -0.79600
O 	O 	0.77350 0.54860 0.27350 -0.79600
O 	O 	0.27350 0.04860 0.27350 -0.79600
O 	O 	0.27350 0.54860 0.77350 -0.79600
O 	O 	0.22650 0.95140 0.77350 -0.79500
O 	O 	0.22650 0.45140 0.27350 -0.79600
O 	O 	0.72650 0.95140 0.27350 -0.79500
O 	O 	0.72650 0.45140 0.77350 -0.79600
O 	O 	0.77350 0.95140 0.22650 -0.79500
O 	O 	0.77350 0.45140 0.72650 -0.79600
O 	O 	0.27350 0.95140 0.72650 -0.79500
O 	O 	0.27350 0.45140 0.22650 -0.79600
O 	O 	0.22650 0.22650 0.95140 -0.79500
O 	O 	0.22650 0.72650 0.45140 -0.79600
O 	O 	0.72650 0.22650 0.45140 -0.79600
O 	O 	0.72650 0.72650 0.95140 -0.79500
O 	O 	0.77350 0.77350 0.95140 -0.79500
O 	O 	0.77350 0.27350 0.45140 -0.79600
O 	O 	0.27350 0.77350 0.45140 -0.79600
O 	O 	0.27350 0.27350 0.95140 -0.79500
O 	O 	0.22650 0.77350 0.04860 -0.79600
O 	O 	0.22650 0.27350 0.54860 -0.79600
O 	O 	0.72650 0.77350 0.54860 -0.79600
O 	O 	0.72650 0.27350 0.04860 -0.79600
O 	O 	0.77350 0.22650 0.04860 -0.79600
O 	O 	0.77350 0.72650 0.54860 -0.79600
O 	O 	0.27350 0.22650 0.54860 -0.79600
O 	O 	0.27350 0.72650 0.04860 -0.79600
O 	O 	0.22650 0.04860 0.77350 -0.79600
O 	O 	0.22650 0.54860 0.27350 -0.79600
O 	O 	0.72650 0.04860 0.27350 -0.79600
O 	O 	0.72650 0.54860 0.77350 -0.79600
O 	O 	0.77350 0.04860 0.22650 -0.79600
O 	O 	0.77350 0.54860 0.72650 -0.79600
O 	O 	0.27350 0.04860 0.72650 -0.79600
O 	O 	0.27350 0.54860 0.22650 -0.79600
O 	O 	0.77350 0.95140 0.77350 -0.79500
O 	O 	0.77350 0.45140 0.27350 -0.79600
O 	O 	0.27350 0.95140 0.27350 -0.79500
O 	O 	0.27350 0.45140 0.77350 -0.79600
O 	O 	0.22650 0.95140 0.22650 -0.79500
O 	O 	0.22650 0.45140 0.72650 -0.79600
O 	O 	0.72650 0.95140 0.72650 -0.79500
O 	O 	0.72650 0.45140 0.22650 -0.79600
O 	O 	0.04860 0.22650 0.77350 -0.79600
O 	O 	0.04860 0.72650 0.27350 -0.79600
O 	O 	0.54860 0.22650 0.27350 -0.79600
O 	O 	0.54860 0.72650 0.77350 -0.79600
O 	O 	0.04860 0.77350 0.22650 -0.79600
O 	O 	0.04860 0.27350 0.72650 -0.79600
O 	O 	0.54860 0.77350 0.72650 -0.79600
O 	O 	0.54860 0.27350 0.22650 -0.79600
O 	O 	0.95140 0.22650 0.22650 -0.79500
O 	O 	0.95140 0.72650 0.72650 -0.79500
O 	O 	0.45140 0.22650 0.72650 -0.79600
O 	O 	0.45140 0.72650 0.22650 -0.79600
O 	O 	0.95140 0.77350 0.77350 -0.79500
O 	O 	0.95140 0.27350 0.27350 -0.79500
O 	O 	0.45140 0.77350 0.27350 -0.79600
O 	O 	0.45140 0.27350 0.77350 -0.79600
O 	O 	0.24190 0.30200 -0.00000 -0.87400
O 	O 	0.24190 0.80200 0.50000 -0.87300
O 	O 	0.74190 0.30200 0.50000 -0.87300
O 	O 	0.74190 0.80200 -0.00000 -0.87400
O 	O 	0.75810 0.69800 -0.00000 -0.87400
O 	O 	0.75810 0.19800 0.50000 -0.87300
O 	O 	0.25810 0.69800 0.50000 -0.87300
O 	O 	0.25810 0.19800 -0.00000 -0.87400
O 	O 	0.75810 0.30200 -0.00000 -0.87400
O 	O 	0.75810 0.80200 0.50000 -0.87300
O 	O 	0.25810 0.30200 0.50000 -0.87300
O 	O 	0.25810 0.80200 -0.00000 -0.87400
O 	O 	0.24190 0.69800 -0.00000 -0.87400
O 	O 	0.24190 0.19800 0.50000 -0.87300
O 	O 	0.74190 0.69800 0.50000 -0.87300
O 	O 	0.74190 0.19800 -0.00000 -0.87400
O 	O 	-0.00000 0.24190 0.30200 -0.87400
O 	O 	-0.00000 0.74190 0.80200 -0.87400
O 	O 	0.50000 0.24190 0.80200 -0.87300
O 	O 	0.50000 0.74190 0.30200 -0.87300
O 	O 	-0.00000 0.75810 0.69800 -0.87400
O 	O 	0.00000 0.25810 0.19800 -0.87400
O 	O 	0.50000 0.75810 0.19800 -0.87300
O 	O 	0.50000 0.25810 0.69800 -0.87300
O 	O 	-0.00000 0.75810 0.30200 -0.87400
O 	O 	-0.00000 0.25810 0.80200 -0.87400
O 	O 	0.50000 0.75810 0.80200 -0.87300
O 	O 	0.50000 0.25810 0.30200 -0.87300
O 	O 	0.00000 0.24190 0.69800 -0.87400
O 	O 	0.00000 0.74190 0.19800 -0.87400
O 	O 	0.50000 0.24190 0.19800 -0.87300
O 	O 	0.50000 0.74190 0.69800 -0.87300
O 	O 	0.30200 0.00000 0.24190 -0.87400
O 	O 	0.30200 0.50000 0.74190 -0.87300
O 	O 	0.80200 0.00000 0.74190 -0.87400
O 	O 	0.80200 0.50000 0.24190 -0.87300
O 	O 	0.69800 -0.00000 0.75810 -0.87400
O 	O 	0.69800 0.50000 0.25810 -0.87300
O 	O 	0.19800 0.00000 0.25810 -0.87400
O 	O 	0.19800 0.50000 0.75810 -0.87300
O 	O 	0.30200 -0.00000 0.75810 -0.87400
O 	O 	0.30200 0.50000 0.25810 -0.87300
O 	O 	0.80200 0.00000 0.25810 -0.87400
O 	O 	0.80200 0.50000 0.75810 -0.87300
O 	O 	0.69800 0.00000 0.24190 -0.87400
O 	O 	0.69800 0.50000 0.74190 -0.87300
O 	O 	0.19800 0.00000 0.74190 -0.87400
O 	O 	0.19800 0.50000 0.24190 -0.87300
O 	O 	0.30200 0.24190 -0.00000 -0.87400
O 	O 	0.30200 0.74190 0.50000 -0.87300
O 	O 	0.80200 0.24190 0.50000 -0.87300
O 	O 	0.80200 0.74190 -0.00000 -0.87400
O 	O 	0.69800 0.75810 -0.00000 -0.87400
O 	O 	0.69800 0.25810 0.50000 -0.87300
O 	O 	0.19800 0.75810 0.50000 -0.87300
O 	O 	0.19800 0.25810 -0.00000 -0.87400
O 	O 	0.30200 0.75810 -0.00000 -0.87400
O 	O 	0.30200 0.25810 0.50000 -0.87300
O 	O 	0.80200 0.75810 0.50000 -0.87300
O 	O 	0.80200 0.25810 -0.00000 -0.87400
O 	O 	0.69800 0.24190 -0.00000 -0.87400
O 	O 	0.69800 0.74190 0.50000 -0.87300
O 	O 	0.19800 0.24190 0.50000 -0.87300
O 	O 	0.19800 0.74190 -0.00000 -0.87400
O 	O 	0.24190 0.00000 0.69800 -0.87400
O 	O 	0.24190 0.50000 0.19800 -0.87300
O 	O 	0.74190 0.00000 0.19800 -0.87400
O 	O 	0.74190 0.50000 0.69800 -0.87300
O 	O 	0.75810 0.00000 0.30200 -0.87400
O 	O 	0.75810 0.50000 0.80200 -0.87300
O 	O 	0.25810 0.00000 0.80200 -0.87400
O 	O 	0.25810 0.50000 0.30200 -0.87300
O 	O 	0.75810 0.00000 0.69800 -0.87400
O 	O 	0.75810 0.50000 0.19800 -0.87300
O 	O 	0.25810 0.00000 0.19800 -0.87400
O 	O 	0.25810 0.50000 0.69800 -0.87300
O 	O 	0.24190 0.00000 0.30200 -0.87400
O 	O 	0.24190 0.50000 0.80200 -0.87300
O 	O 	0.74190 0.00000 0.80200 -0.87400
O 	O 	0.74190 0.50000 0.30200 -0.87300
O 	O 	-0.00000 0.30200 0.75810 -0.87400
O 	O 	-0.00000 0.80200 0.25810 -0.87400
O 	O 	0.50000 0.30200 0.25810 -0.87300
O 	O 	0.50000 0.80200 0.75810 -0.87300
O 	O 	0.00000 0.69800 0.24190 -0.87400
O 	O 	0.00000 0.19800 0.74190 -0.87400
O 	O 	0.50000 0.69800 0.74190 -0.87300
O 	O 	0.50000 0.19800 0.24190 -0.87300
O 	O 	-0.00000 0.30200 0.24190 -0.87400
O 	O 	0.00000 0.80200 0.74190 -0.87400
O 	O 	0.50000 0.30200 0.74190 -0.87300
O 	O 	0.50000 0.80200 0.24190 -0.87300
O 	O 	-0.00000 0.69800 0.75810 -0.87400
O 	O 	0.00000 0.19800 0.25810 -0.87400
O 	O 	0.50000 0.69800 0.25810 -0.87300
O 	O 	0.50000 0.19800 0.75810 -0.87300
C 	C 	0.23690 0.10910 0.10910 0.01000
C 	C 	0.23690 0.60910 0.60910 0.01100
C 	C 	0.73690 0.10910 0.60910 0.01100
C 	C 	0.73690 0.60910 0.10910 0.01100
C 	C 	0.76310 0.89090 0.10910 0.01100
C 	C 	0.76310 0.39090 0.60910 0.01100
C 	C 	0.26310 0.89090 0.60910 0.01100
C 	C 	0.26310 0.39090 0.10910 0.01000
C 	C 	0.76310 0.10910 0.89090 0.01100
C 	C 	0.76310 0.60910 0.39090 0.01100
C 	C 	0.26310 0.10910 0.39090 0.01000
C 	C 	0.26310 0.60910 0.89090 0.01100
C 	C 	0.23690 0.89090 0.89090 0.01100
C 	C 	0.23690 0.39090 0.39090 0.01100
C 	C 	0.73690 0.89090 0.39090 0.01100
C 	C 	0.73690 0.39090 0.89090 0.01100
C 	C 	0.10910 0.23690 0.10910 0.01000
C 	C 	0.10910 0.73690 0.60910 0.01100
C 	C 	0.60910 0.23690 0.60910 0.01100
C 	C 	0.60910 0.73690 0.10910 0.01100
C 	C 	0.10910 0.76310 0.89090 0.01100
C 	C 	0.10910 0.26310 0.39090 0.01000
C 	C 	0.60910 0.76310 0.39090 0.01100
C 	C 	0.60910 0.26310 0.89090 0.01100
C 	C 	0.89090 0.76310 0.10910 0.01100
C 	C 	0.89090 0.26310 0.60910 0.01100
C 	C 	0.39090 0.76310 0.60910 0.01100
C 	C 	0.39090 0.26310 0.10910 0.01000
C 	C 	0.89090 0.23690 0.89090 0.01100
C 	C 	0.89090 0.73690 0.39090 0.01100
C 	C 	0.39090 0.23690 0.39090 0.01100
C 	C 	0.39090 0.73690 0.89090 0.01100
C 	C 	0.10910 0.10910 0.23690 0.01000
C 	C 	0.10910 0.60910 0.73690 0.01100
C 	C 	0.60910 0.10910 0.73690 0.01100
C 	C 	0.60910 0.60910 0.23690 0.01100
C 	C 	0.89090 0.10910 0.76310 0.01100
C 	C 	0.89090 0.60910 0.26310 0.01100
C 	C 	0.39090 0.10910 0.26310 0.01000
C 	C 	0.39090 0.60910 0.76310 0.01100
C 	C 	0.10910 0.89090 0.76310 0.01100
C 	C 	0.10910 0.39090 0.26310 0.01000
C 	C 	0.60910 0.89090 0.26310 0.01100
C 	C 	0.60910 0.39090 0.76310 0.01100
C 	C 	0.89090 0.89090 0.23690 0.01100
C 	C 	0.89090 0.39090 0.73690 0.01100
C 	C 	0.39090 0.89090 0.73690 0.01100
C 	C 	0.39090 0.39090 0.23690 0.01100
C 	C 	0.10910 0.23690 0.89090 0.01100
C 	C 	0.10910 0.73690 0.39090 0.01100
C 	C 	0.60910 0.23690 0.39090 0.01100
C 	C 	0.60910 0.73690 0.89090 0.01100
C 	C 	0.89090 0.76310 0.89090 0.01100
C 	C 	0.89090 0.26310 0.39090 0.01100
C 	C 	0.39090 0.76310 0.39090 0.01100
C 	C 	0.39090 0.26310 0.89090 0.01100
C 	C 	0.10910 0.76310 0.10910 0.01000
C 	C 	0.10910 0.26310 0.60910 0.01000
C 	C 	0.60910 0.76310 0.60910 0.01100
C 	C 	0.60910 0.26310 0.10910 0.01000
C 	C 	0.89090 0.23690 0.10910 0.01100
C 	C 	0.89090 0.73690 0.60910 0.01100
C 	C 	0.39090 0.23690 0.60910 0.01100
C 	C 	0.39090 0.73690 0.10910 0.01100
C 	C 	0.23690 0.10910 0.89090 0.01100
C 	C 	0.23690 0.60910 0.39090 0.01100
C 	C 	0.73690 0.10910 0.39090 0.01100
C 	C 	0.73690 0.60910 0.89090 0.01100
C 	C 	0.76310 0.10910 0.10910 0.01000
C 	C 	0.76310 0.60910 0.60910 0.01100
C 	C 	0.26310 0.10910 0.60910 0.01000
C 	C 	0.26310 0.60910 0.10910 0.01000
C 	C 	0.76310 0.89090 0.89090 0.01100
C 	C 	0.76310 0.39090 0.39090 0.01100
C 	C 	0.26310 0.89090 0.39090 0.01100
C 	C 	0.26310 0.39090 0.89090 0.01100
C 	C 	0.23690 0.89090 0.10910 0.01100
C 	C 	0.23690 0.39090 0.60910 0.01100
C 	C 	0.73690 0.89090 0.60910 0.01100
C 	C 	0.73690 0.39090 0.10910 0.01100
C 	C 	0.10910 0.10910 0.76310 0.01000
C 	C 	0.10910 0.60910 0.26310 0.01000
C 	C 	0.60910 0.10910 0.26310 0.01000
C 	C 	0.60910 0.60910 0.76310 0.01100
C 	C 	0.10910 0.89090 0.23690 0.01100
C 	C 	0.10910 0.39090 0.73690 0.01100
C 	C 	0.60910 0.89090 0.73690 0.01100
C 	C 	0.60910 0.39090 0.23690 0.01100
C 	C 	0.89090 0.10910 0.23690 0.01100
C 	C 	0.89090 0.60910 0.73690 0.01100
C 	C 	0.39090 0.10910 0.73690 0.01100
C 	C 	0.39090 0.60910 0.23690 0.01100
C 	C 	0.89090 0.89090 0.76310 0.01100
C 	C 	0.89090 0.39090 0.26310 0.01100
C 	C 	0.39090 0.89090 0.26310 0.01100
C 	C 	0.39090 0.39090 0.76310 0.01100
