data_crystal

_cell_length_a 45.92220
_cell_length_b 15.07630
_cell_length_c 34.62150
_cell_angle_alpha 90.00000
_cell_angle_beta  117.31000
_cell_angle_gamma 90.00000

_symmetry_space_group_name_	'P 1'
_symmetry_space_group_name_H-M	'P 1'

loop_
_symmetry_equiv_pos_as_xyz
  x,y,z

loop_
_atom_site_label
_atom_site_type_symbol
_atom_site_fract_x
_atom_site_fract_y
_atom_site_fract_z
_atom_site_charge
Zn	Zn	0.20720 0.61749 0.00819 1.22600
Zn	Zn	0.72020 0.78598 0.35055 1.21800
Zn	Zn	0.28583 0.19708 0.39469 1.22300
Zn	Zn	0.26878 0.75012 0.05050 1.22100
O 	O 	0.21990 0.73367 0.99892 -0.74400
C 	C 	0.38530 0.04010 0.25848 0.07100
C 	C 	0.36780 0.97440 0.26757 -0.13000
H 	H 	0.34480 0.98020 0.25650 0.07700
C 	C 	0.38349 0.90120 0.29242 0.07300
C 	C 	0.41744 0.89380 0.30817 -0.12900
H 	H 	0.42840 0.84310 0.32480 0.07300
O 	O 	0.68438 0.76485 0.39886 -0.48200
O 	O 	0.67912 0.83985 0.34059 -0.47800
C 	C 	0.36812 0.11610 0.23004 -0.00900
C 	C 	0.38294 0.19940 0.23702 -0.04100
H 	H 	0.40410 0.20800 0.26080 0.04000
C 	C 	0.36701 0.27030 0.20943 -0.05100
H 	H 	0.37750 0.32640 0.21460 0.04400
C 	C 	0.33604 0.26000 0.17446 0.00200
C 	C 	0.32115 0.17630 0.16691 -0.05200
H 	H 	0.30010 0.16770 0.14310 0.05200
C 	C 	0.33714 0.10610 0.19418 -0.04000
H 	H 	0.32690 0.04960 0.18850 0.04800
C 	C 	0.31818 0.33740 0.14731 0.05800
C 	C 	0.33439 0.40480 0.13735 -0.11300
H 	H 	0.35730 0.40050 0.14680 0.06800
C 	C 	0.31721 0.47830 0.11369 0.04700
H 	H 	0.32850 0.52450 0.10740 0.03100
C 	C 	0.28360 0.48490 0.09907 -0.12300
C 	C 	0.26730 0.41790 0.10892 0.04500
H 	H 	0.24440 0.42230 0.09940 0.03200
C 	C 	0.28453 0.34460 0.13260 -0.10900
H 	H 	0.27320 0.29870 0.13890 0.07000
C 	C 	0.26486 0.56330 0.07382 0.36800
O 	O 	0.27890 0.61585 0.05956 -0.47600
O 	O 	0.23546 0.57245 0.06738 -0.52800
C 	C 	0.36503 0.82870 0.30136 -0.00500
C 	C 	0.33324 0.80650 0.27075 -0.04500
H 	H 	0.32230 0.84140 0.24530 0.03700
C 	C 	0.31740 0.73280 0.27748 -0.05000
H 	H 	0.29580 0.71840 0.25620 0.04300
C 	C 	0.33248 0.68100 0.31418 -0.00200
C 	C 	0.36395 0.70610 0.34563 -0.04800
H 	H 	0.37460 0.67280 0.37180 0.04300
C 	C 	0.37970 0.77880 0.33899 -0.04400
H 	H 	0.40100 0.79460 0.36080 0.04300
C 	C 	0.31684 0.59980 0.32109 0.06000
C 	C 	0.28302 0.59070 0.30179 -0.11600
H 	H 	0.26950 0.63680 0.28380 0.06500
C 	C 	0.26866 0.51480 0.30851 0.04400
H 	H 	0.24550 0.50990 0.29560 0.02400
C 	C 	0.28838 0.44590 0.33433 -0.12800
C 	C 	0.32199 0.45460 0.35275 0.05000
H 	H 	0.33560 0.40770 0.37000 0.02700
C 	C 	0.33613 0.53000 0.34651 -0.11700
H 	H 	0.35930 0.53480 0.35960 0.06700
C 	C 	0.27362 0.36380 0.34260 0.38500
O 	O 	0.24272 0.36281 0.32727 -0.49300
O 	O 	0.29320 0.30471 0.36543 -0.47100
C 	C 	0.47161 0.94540 0.31516 -0.00900
C 	C 	0.48936 0.88280 0.34427 -0.04100
H 	H 	0.47930 0.84950 0.35820 0.04300
C 	C 	0.52173 0.86540 0.35463 -0.04900
H 	H 	0.53310 0.82000 0.37500 0.04600
C 	C 	0.53779 0.91230 0.33610 -0.00400
C 	C 	0.52150 0.98140 0.31177 -0.04800
H 	H 	0.53250 0.02040 0.30130 0.04300
C 	C 	0.48875 0.99840 0.30105 -0.04400
H 	H 	0.47820 0.04830 0.28350 0.03800
C 	C 	0.57213 0.88970 0.34491 0.07000
C 	C 	0.59394 0.85060 0.38316 -0.13100
H 	H 	0.58730 0.83900 0.40490 0.07700
C 	C 	0.62508 0.82800 0.39080 0.06600
H 	H 	0.63960 0.80100 0.41760 0.01000
C 	C 	0.63555 0.84430 0.35962 -0.14200
C 	C 	0.61427 0.88650 0.32171 0.06200
H 	H 	0.62130 0.90070 0.30060 0.02800
C 	C 	0.58279 0.90830 0.31414 -0.12500
H 	H 	0.56830 0.93640 0.28760 0.07500
C 	C 	0.66898 0.81510 0.36750 0.39100
C 	C 	0.43553 0.95840 0.30014 0.06900
C 	C 	0.41923 0.03150 0.27583 -0.13500
H 	H 	0.43140 0.07690 0.27080 0.07100
O 	O 	0.75515 0.76289 0.40990 -0.75100
C 	C 	0.36407 0.93140 0.86010 0.07600
C 	C 	0.34406 0.98400 0.87095 -0.13400
H 	H 	0.32120 0.97220 0.85810 0.08000
C 	C 	0.35686 0.05340 0.90015 0.07400
C 	C 	0.39044 0.06890 0.91977 -0.13000
H 	H 	0.39950 0.11410 0.94110 0.07500
C 	C 	0.41109 0.01880 0.90857 0.07300
C 	C 	0.39722 0.95060 0.87846 -0.13100
H 	H 	0.41090 0.91640 0.87030 0.07500
C 	C 	0.35003 0.85420 0.83018 -0.00600
C 	C 	0.36772 0.77540 0.83800 -0.04300
H 	H 	0.38910 0.77170 0.86190 0.04100
C 	C 	0.35462 0.70290 0.81155 -0.04200
H 	H 	0.36710 0.64980 0.81740 0.04200
C 	C 	0.32327 0.70570 0.77619 -0.00400
C 	C 	0.30629 0.78550 0.76804 -0.04000
H 	H 	0.28530 0.79000 0.74370 0.04000
C 	C 	0.31931 0.85790 0.79459 -0.04700
H 	H 	0.30700 0.91140 0.78840 0.04600
C 	C 	0.30872 0.62590 0.74904 0.07000
C 	C 	0.32845 0.56160 0.74371 -0.12200
H 	H 	0.35150 0.57000 0.75700 0.07000
C 	C 	0.31528 0.48670 0.71969 0.06300
H 	H 	0.32920 0.44360 0.71670 0.02500
C 	C 	0.28150 0.47320 0.69949 -0.14000
C 	C 	0.26160 0.53630 0.70431 0.06300
H 	H 	0.23850 0.52770 0.69070 0.01900
C 	C 	0.27490 0.61190 0.72878 -0.12300
H 	H 	0.26090 0.65470 0.73180 0.07100
C 	C 	0.26741 0.39220 0.67265 0.40700
O 	O 	0.28752 0.33450 0.67289 -0.50400
O 	O 	0.23690 0.38601 0.65294 -0.49600
C 	C 	0.33484 0.11420 0.90868 -0.00300
C 	C 	0.31204 0.16340 0.87383 -0.05100
H 	H 	0.30940 0.15330 0.84530 0.05000
C 	C 	0.29340 0.22670 0.88093 -0.03900
H 	H 	0.27820 0.26060 0.85710 0.04000
C 	C 	0.29629 0.24210 0.92217 -0.01700
C 	C 	0.31805 0.18920 0.95616 -0.03800
H 	H 	0.31970 0.19600 0.98440 0.04500
C 	C 	0.33724 0.12710 0.94935 -0.05200
H 	H 	0.35230 0.09280 0.97310 0.05100
C 	C 	0.27737 0.31470 0.92929 0.08100
C 	C 	0.26470 0.30670 0.95900 -0.14200
H 	H 	0.26700 0.25230 0.97400 0.07900
C 	C 	0.24877 0.37750 0.96657 0.08100
H 	H 	0.24010 0.37130 0.98660 0.01400
C 	C 	0.24545 0.45700 0.94524 -0.16600
C 	C 	0.25729 0.46460 0.91509 0.08700
H 	H 	0.25460 0.51860 0.89970 -0.00600
C 	C 	0.27293 0.39380 0.90731 -0.15100
H 	H 	0.28080 0.39980 0.88640 0.08400
C 	C 	0.23099 0.53560 0.95619 0.41700
O 	O 	0.21380 0.52156 0.97551 -0.48100
O 	O 	0.23744 0.60997 0.94663 -0.49900
C 	C 	0.44662 0.03940 0.92746 -0.00900
C 	C 	0.45901 0.12290 0.94184 -0.04500
H 	H 	0.44440 0.16960 0.93970 0.04000
C 	C 	0.49228 0.14040 0.95930 -0.04900
H 	H 	0.50010 0.19860 0.96930 0.04200
C 	C 	0.51431 0.07520 0.96257 -0.00500
C 	C 	0.50207 0.99030 0.94884 -0.04500
H 	H 	0.51680 0.94390 0.95120 0.04400
C 	C 	0.46901 0.97200 0.93179 -0.04200
H 	H 	0.46140 0.91330 0.92300 0.04100
C 	C 	0.55005 0.09300 0.98058 0.06900
C 	C 	0.56650 0.15090 0.01446 -0.12800
H 	H 	0.55460 0.18280 0.02630 0.06900
C 	C 	0.60020 0.16390 0.03171 0.06700
H 	H 	0.61120 0.20270 0.05570 0.01900
C 	C 	0.61748 0.11990 0.01373 -0.15200
C 	C 	0.60134 0.06100 0.97981 0.06200
H 	H 	0.61320 0.03060 0.96750 0.02100
C 	C 	0.56799 0.04600 0.96356 -0.12900
H 	H 	0.55730 0.00390 0.94100 0.07300
C 	C 	0.65317 0.13450 0.02963 0.42800
O 	O 	0.66934 0.16852 0.06643 -0.51000
O 	O 	0.66411 0.10976 0.00390 -0.50700
H 	H 	0.25515 0.67078 0.90990 0.12600
H 	H 	0.21990 0.20000 0.49892 0.13200
Zn	Zn	0.70720 0.11749 0.00819 1.22500
Zn	Zn	0.22020 0.28598 0.35055 1.21700
Zn	Zn	0.78583 0.69708 0.39469 1.22200
Zn	Zn	0.76878 0.25012 0.05050 1.22000
O 	O 	0.71990 0.23367 0.99892 -0.74400
C 	C 	0.88530 0.54010 0.25848 0.07100
C 	C 	0.86780 0.47440 0.26757 -0.13000
H 	H 	0.84480 0.48020 0.25650 0.07700
C 	C 	0.88349 0.40120 0.29242 0.07300
C 	C 	0.91744 0.39380 0.30817 -0.12900
H 	H 	0.92840 0.34310 0.32480 0.07300
O 	O 	0.18438 0.26485 0.39886 -0.48200
O 	O 	0.17912 0.33985 0.34059 -0.47800
C 	C 	0.86812 0.61610 0.23004 -0.00900
C 	C 	0.88294 0.69940 0.23702 -0.04100
H 	H 	0.90410 0.70800 0.26080 0.04000
C 	C 	0.86701 0.77030 0.20943 -0.05100
H 	H 	0.87750 0.82640 0.21460 0.04400
C 	C 	0.83604 0.76000 0.17446 0.00200
C 	C 	0.82115 0.67630 0.16691 -0.05200
H 	H 	0.80010 0.66770 0.14310 0.05200
C 	C 	0.83714 0.60610 0.19418 -0.04000
H 	H 	0.82690 0.54960 0.18850 0.04800
C 	C 	0.81818 0.83740 0.14731 0.05800
C 	C 	0.83439 0.90480 0.13735 -0.11300
H 	H 	0.85730 0.90050 0.14680 0.06800
C 	C 	0.81721 0.97830 0.11369 0.04700
H 	H 	0.82850 0.02450 0.10740 0.03100
C 	C 	0.78360 0.98490 0.09907 -0.12300
C 	C 	0.76730 0.91790 0.10892 0.04500
H 	H 	0.74440 0.92230 0.09940 0.03200
C 	C 	0.78453 0.84460 0.13260 -0.10900
H 	H 	0.77320 0.79870 0.13890 0.07000
C 	C 	0.76486 0.06330 0.07382 0.36700
O 	O 	0.77890 0.11585 0.05956 -0.47600
O 	O 	0.73546 0.07245 0.06738 -0.52800
C 	C 	0.86503 0.32870 0.30136 -0.00500
C 	C 	0.83324 0.30650 0.27075 -0.04500
H 	H 	0.82230 0.34140 0.24530 0.03700
C 	C 	0.81740 0.23280 0.27748 -0.05000
H 	H 	0.79580 0.21840 0.25620 0.04300
C 	C 	0.83248 0.18100 0.31418 -0.00200
C 	C 	0.86395 0.20610 0.34563 -0.04800
H 	H 	0.87460 0.17280 0.37180 0.04300
C 	C 	0.87970 0.27880 0.33899 -0.04400
H 	H 	0.90100 0.29460 0.36080 0.04300
C 	C 	0.81684 0.09980 0.32109 0.06000
C 	C 	0.78302 0.09070 0.30179 -0.11600
H 	H 	0.76950 0.13680 0.28380 0.06500
C 	C 	0.76866 0.01480 0.30851 0.04400
H 	H 	0.74550 0.00990 0.29560 0.02400
C 	C 	0.78838 0.94590 0.33433 -0.12800
C 	C 	0.82199 0.95460 0.35275 0.05000
H 	H 	0.83560 0.90770 0.37000 0.02700
C 	C 	0.83613 0.03000 0.34651 -0.11700
H 	H 	0.85930 0.03480 0.35960 0.06700
C 	C 	0.77362 0.86380 0.34260 0.38500
O 	O 	0.74272 0.86281 0.32727 -0.49300
O 	O 	0.79320 0.80471 0.36543 -0.47100
C 	C 	0.97161 0.44540 0.31516 -0.00900
C 	C 	0.98936 0.38280 0.34427 -0.04100
H 	H 	0.97930 0.34950 0.35820 0.04300
C 	C 	0.02173 0.36540 0.35463 -0.04900
H 	H 	0.03310 0.32000 0.37500 0.04600
C 	C 	0.03779 0.41230 0.33610 -0.00400
C 	C 	0.02150 0.48140 0.31177 -0.04900
H 	H 	0.03250 0.52040 0.30130 0.04300
C 	C 	0.98875 0.49840 0.30105 -0.04400
H 	H 	0.97820 0.54830 0.28350 0.03800
C 	C 	0.07213 0.38970 0.34491 0.07000
C 	C 	0.09394 0.35060 0.38316 -0.13100
H 	H 	0.08730 0.33900 0.40490 0.07700
C 	C 	0.12508 0.32800 0.39080 0.06600
H 	H 	0.13960 0.30100 0.41760 0.01000
C 	C 	0.13555 0.34430 0.35962 -0.14200
C 	C 	0.11427 0.38650 0.32171 0.06200
H 	H 	0.12130 0.40070 0.30060 0.02800
C 	C 	0.08279 0.40830 0.31414 -0.12500
H 	H 	0.06830 0.43640 0.28760 0.07500
C 	C 	0.16898 0.31510 0.36750 0.39100
C 	C 	0.93553 0.45840 0.30014 0.06900
C 	C 	0.91923 0.53150 0.27583 -0.13500
H 	H 	0.93140 0.57690 0.27080 0.07100
O 	O 	0.25515 0.26289 0.40990 -0.75100
C 	C 	0.86407 0.43140 0.86010 0.07500
C 	C 	0.84406 0.48400 0.87095 -0.13400
H 	H 	0.82120 0.47220 0.85810 0.08000
C 	C 	0.85686 0.55340 0.90015 0.07400
C 	C 	0.89044 0.56890 0.91977 -0.12900
H 	H 	0.89950 0.61410 0.94110 0.07400
C 	C 	0.91109 0.51880 0.90857 0.07200
C 	C 	0.89722 0.45060 0.87846 -0.13000
H 	H 	0.91090 0.41640 0.87030 0.07500
C 	C 	0.85003 0.35420 0.83018 -0.00600
C 	C 	0.86772 0.27540 0.83800 -0.04300
H 	H 	0.88910 0.27170 0.86190 0.04100
C 	C 	0.85462 0.20290 0.81155 -0.04200
H 	H 	0.86710 0.14980 0.81740 0.04200
C 	C 	0.82327 0.20570 0.77619 -0.00400
C 	C 	0.80629 0.28550 0.76804 -0.04000
H 	H 	0.78530 0.29000 0.74370 0.04000
C 	C 	0.81931 0.35790 0.79459 -0.04700
H 	H 	0.80700 0.41140 0.78840 0.04600
C 	C 	0.80872 0.12590 0.74904 0.06900
C 	C 	0.82845 0.06160 0.74371 -0.12200
H 	H 	0.85150 0.07000 0.75700 0.07000
C 	C 	0.81528 0.98670 0.71969 0.06300
H 	H 	0.82920 0.94360 0.71670 0.02500
C 	C 	0.78150 0.97320 0.69949 -0.14000
C 	C 	0.76160 0.03630 0.70431 0.06300
H 	H 	0.73850 0.02770 0.69070 0.01900
C 	C 	0.77490 0.11190 0.72878 -0.12300
H 	H 	0.76090 0.15470 0.73180 0.07100
C 	C 	0.76741 0.89220 0.67265 0.40700
O 	O 	0.78752 0.83450 0.67289 -0.50400
O 	O 	0.73690 0.88601 0.65294 -0.49600
C 	C 	0.83484 0.61420 0.90868 -0.00200
C 	C 	0.81204 0.66340 0.87383 -0.05100
H 	H 	0.80940 0.65330 0.84530 0.05100
C 	C 	0.79340 0.72670 0.88093 -0.03900
H 	H 	0.77820 0.76060 0.85710 0.04000
C 	C 	0.79629 0.74210 0.92217 -0.01700
C 	C 	0.81805 0.68920 0.95616 -0.03800
H 	H 	0.81970 0.69600 0.98440 0.04500
C 	C 	0.83724 0.62710 0.94935 -0.05300
H 	H 	0.85230 0.59280 0.97310 0.05100
C 	C 	0.77737 0.81470 0.92929 0.08100
C 	C 	0.76470 0.80670 0.95900 -0.14200
H 	H 	0.76700 0.75230 0.97400 0.07900
C 	C 	0.74877 0.87750 0.96657 0.08100
H 	H 	0.74010 0.87130 0.98660 0.01400
C 	C 	0.74545 0.95700 0.94524 -0.16600
C 	C 	0.75729 0.96460 0.91509 0.08700
H 	H 	0.75460 0.01860 0.89970 -0.00600
C 	C 	0.77293 0.89380 0.90731 -0.15100
H 	H 	0.78080 0.89980 0.88640 0.08400
C 	C 	0.73099 0.03560 0.95619 0.41700
O 	O 	0.71380 0.02156 0.97551 -0.48100
O 	O 	0.73744 0.10997 0.94663 -0.49900
C 	C 	0.94662 0.53940 0.92746 -0.00900
C 	C 	0.95901 0.62290 0.94184 -0.04500
H 	H 	0.94440 0.66960 0.93970 0.04000
C 	C 	0.99228 0.64040 0.95930 -0.04900
H 	H 	0.00010 0.69860 0.96930 0.04200
C 	C 	0.01431 0.57520 0.96257 -0.00500
C 	C 	0.00207 0.49030 0.94884 -0.04400
H 	H 	0.01680 0.44390 0.95120 0.04400
C 	C 	0.96901 0.47200 0.93179 -0.04200
H 	H 	0.96140 0.41330 0.92300 0.04100
C 	C 	0.05005 0.59300 0.98058 0.06800
C 	C 	0.06650 0.65090 0.01446 -0.12800
H 	H 	0.05460 0.68280 0.02630 0.06900
C 	C 	0.10020 0.66390 0.03171 0.06600
H 	H 	0.11120 0.70270 0.05570 0.01900
C 	C 	0.11748 0.61990 0.01373 -0.15100
C 	C 	0.10134 0.56100 0.97981 0.06200
H 	H 	0.11320 0.53060 0.96750 0.02100
C 	C 	0.06799 0.54600 0.96356 -0.12900
H 	H 	0.05730 0.50390 0.94100 0.07300
C 	C 	0.15317 0.63450 0.02963 0.42800
O 	O 	0.16934 0.66852 0.06643 -0.51000
O 	O 	0.16411 0.60976 0.00390 -0.50700
H 	H 	0.75515 0.17078 0.90990 0.12600
H 	H 	0.71990 0.70000 0.49892 0.13200
Zn	Zn	0.79280 0.61749 0.49181 1.22500
Zn	Zn	0.27980 0.78598 0.14945 1.21700
Zn	Zn	0.71417 0.19708 0.10531 1.22200
Zn	Zn	0.73122 0.75012 0.44950 1.22000
O 	O 	0.78010 0.73367 0.50108 -0.74400
C 	C 	0.61470 0.04010 0.24152 0.07100
C 	C 	0.63220 0.97440 0.23243 -0.13000
H 	H 	0.65520 0.98020 0.24350 0.07700
C 	C 	0.61651 0.90120 0.20758 0.07300
C 	C 	0.58256 0.89380 0.19183 -0.12900
H 	H 	0.57160 0.84310 0.17520 0.07300
O 	O 	0.31562 0.76485 0.10114 -0.48200
O 	O 	0.32088 0.83985 0.15941 -0.47800
C 	C 	0.63188 0.11610 0.26996 -0.00900
C 	C 	0.61706 0.19940 0.26298 -0.04100
H 	H 	0.59590 0.20800 0.23920 0.04000
C 	C 	0.63299 0.27030 0.29057 -0.05100
H 	H 	0.62250 0.32640 0.28540 0.04400
C 	C 	0.66396 0.26000 0.32554 0.00200
C 	C 	0.67885 0.17630 0.33309 -0.05200
H 	H 	0.69990 0.16770 0.35690 0.05200
C 	C 	0.66286 0.10610 0.30582 -0.04000
H 	H 	0.67310 0.04960 0.31150 0.04800
C 	C 	0.68182 0.33740 0.35269 0.05800
C 	C 	0.66561 0.40480 0.36265 -0.11300
H 	H 	0.64270 0.40050 0.35320 0.06800
C 	C 	0.68279 0.47830 0.38631 0.04700
H 	H 	0.67150 0.52450 0.39260 0.03100
C 	C 	0.71640 0.48490 0.40093 -0.12300
C 	C 	0.73270 0.41790 0.39108 0.04500
H 	H 	0.75560 0.42230 0.40060 0.03200
C 	C 	0.71547 0.34460 0.36740 -0.10900
H 	H 	0.72680 0.29870 0.36110 0.07000
C 	C 	0.73514 0.56330 0.42618 0.36800
O 	O 	0.72110 0.61585 0.44044 -0.47600
O 	O 	0.76454 0.57245 0.43262 -0.52800
C 	C 	0.63497 0.82870 0.19864 -0.00500
C 	C 	0.66676 0.80650 0.22925 -0.04500
H 	H 	0.67770 0.84140 0.25470 0.03700
C 	C 	0.68260 0.73280 0.22252 -0.05000
H 	H 	0.70420 0.71840 0.24380 0.04300
C 	C 	0.66752 0.68100 0.18582 -0.00200
C 	C 	0.63605 0.70610 0.15437 -0.04800
H 	H 	0.62540 0.67280 0.12820 0.04300
C 	C 	0.62030 0.77880 0.16101 -0.04400
H 	H 	0.59900 0.79460 0.13920 0.04300
C 	C 	0.68316 0.59980 0.17891 0.06000
C 	C 	0.71698 0.59070 0.19821 -0.11600
H 	H 	0.73050 0.63680 0.21620 0.06500
C 	C 	0.73134 0.51480 0.19149 0.04400
H 	H 	0.75450 0.50990 0.20440 0.02400
C 	C 	0.71162 0.44590 0.16567 -0.12800
C 	C 	0.67801 0.45460 0.14725 0.05000
H 	H 	0.66440 0.40770 0.13000 0.02800
C 	C 	0.66387 0.53000 0.15349 -0.11700
H 	H 	0.64070 0.53480 0.14040 0.06700
C 	C 	0.72638 0.36380 0.15740 0.38500
O 	O 	0.75728 0.36281 0.17273 -0.49300
O 	O 	0.70680 0.30471 0.13457 -0.47100
C 	C 	0.52839 0.94540 0.18484 -0.00900
C 	C 	0.51064 0.88280 0.15573 -0.04100
H 	H 	0.52070 0.84950 0.14180 0.04300
C 	C 	0.47827 0.86540 0.14537 -0.04900
H 	H 	0.46690 0.82000 0.12500 0.04600
C 	C 	0.46221 0.91230 0.16390 -0.00400
C 	C 	0.47850 0.98140 0.18823 -0.04800
H 	H 	0.46750 0.02040 0.19870 0.04300
C 	C 	0.51125 0.99840 0.19895 -0.04400
H 	H 	0.52180 0.04830 0.21650 0.03800
C 	C 	0.42787 0.88970 0.15509 0.07000
C 	C 	0.40606 0.85060 0.11684 -0.13100
H 	H 	0.41270 0.83900 0.09510 0.07700
C 	C 	0.37492 0.82800 0.10920 0.06600
H 	H 	0.36040 0.80100 0.08240 0.01000
C 	C 	0.36445 0.84430 0.14038 -0.14200
C 	C 	0.38573 0.88650 0.17829 0.06200
H 	H 	0.37870 0.90070 0.19940 0.02800
C 	C 	0.41721 0.90830 0.18586 -0.12500
H 	H 	0.43170 0.93640 0.21240 0.07500
C 	C 	0.33102 0.81510 0.13250 0.39100
C 	C 	0.56447 0.95840 0.19986 0.07000
C 	C 	0.58077 0.03150 0.22417 -0.13500
H 	H 	0.56860 0.07690 0.22920 0.07100
O 	O 	0.24485 0.76289 0.09010 -0.75100
C 	C 	0.63593 0.93140 0.63990 0.07500
C 	C 	0.65594 0.98400 0.62905 -0.13400
H 	H 	0.67880 0.97220 0.64190 0.08000
C 	C 	0.64314 0.05340 0.59985 0.07400
C 	C 	0.60956 0.06890 0.58023 -0.13000
H 	H 	0.60050 0.11410 0.55890 0.07500
C 	C 	0.58891 0.01880 0.59143 0.07200
C 	C 	0.60278 0.95060 0.62154 -0.13000
H 	H 	0.58910 0.91640 0.62970 0.07500
C 	C 	0.64997 0.85420 0.66982 -0.00600
C 	C 	0.63228 0.77540 0.66200 -0.04300
H 	H 	0.61090 0.77170 0.63810 0.04100
C 	C 	0.64538 0.70290 0.68845 -0.04200
H 	H 	0.63290 0.64980 0.68260 0.04200
C 	C 	0.67673 0.70570 0.72381 -0.00400
C 	C 	0.69371 0.78550 0.73196 -0.04000
H 	H 	0.71470 0.79000 0.75630 0.04000
C 	C 	0.68069 0.85790 0.70541 -0.04700
H 	H 	0.69300 0.91140 0.71160 0.04600
C 	C 	0.69128 0.62590 0.75096 0.07000
C 	C 	0.67155 0.56160 0.75629 -0.12200
H 	H 	0.64850 0.57000 0.74300 0.07000
C 	C 	0.68472 0.48670 0.78031 0.06300
H 	H 	0.67080 0.44360 0.78330 0.02500
C 	C 	0.71850 0.47320 0.80051 -0.14000
C 	C 	0.73840 0.53630 0.79569 0.06300
H 	H 	0.76150 0.52770 0.80930 0.01900
C 	C 	0.72510 0.61190 0.77122 -0.12300
H 	H 	0.73910 0.65470 0.76820 0.07100
C 	C 	0.73259 0.39220 0.82735 0.40700
O 	O 	0.71248 0.33450 0.82711 -0.50400
O 	O 	0.76310 0.38601 0.84706 -0.49600
C 	C 	0.66516 0.11420 0.59132 -0.00300
C 	C 	0.68796 0.16340 0.62617 -0.05100
H 	H 	0.69060 0.15330 0.65470 0.05100
C 	C 	0.70660 0.22670 0.61907 -0.03900
H 	H 	0.72180 0.26060 0.64290 0.04000
C 	C 	0.70371 0.24210 0.57783 -0.01700
C 	C 	0.68195 0.18920 0.54384 -0.03800
H 	H 	0.68030 0.19600 0.51560 0.04500
C 	C 	0.66276 0.12710 0.55065 -0.05300
H 	H 	0.64770 0.09280 0.52690 0.05100
C 	C 	0.72263 0.31470 0.57071 0.08100
C 	C 	0.73530 0.30670 0.54100 -0.14200
H 	H 	0.73300 0.25230 0.52600 0.07900
C 	C 	0.75123 0.37750 0.53343 0.08100
H 	H 	0.75990 0.37130 0.51340 0.01400
C 	C 	0.75455 0.45700 0.55476 -0.16600
C 	C 	0.74271 0.46460 0.58491 0.08700
H 	H 	0.74540 0.51860 0.60030 -0.00600
C 	C 	0.72707 0.39380 0.59269 -0.15100
H 	H 	0.71920 0.39980 0.61360 0.08400
C 	C 	0.76901 0.53560 0.54381 0.41700
O 	O 	0.78620 0.52156 0.52449 -0.48100
O 	O 	0.76256 0.60997 0.55337 -0.49900
C 	C 	0.55338 0.03940 0.57254 -0.00900
C 	C 	0.54099 0.12290 0.55816 -0.04500
H 	H 	0.55560 0.16960 0.56030 0.04000
C 	C 	0.50772 0.14040 0.54070 -0.04900
H 	H 	0.49990 0.19860 0.53070 0.04200
C 	C 	0.48569 0.07520 0.53743 -0.00500
C 	C 	0.49793 0.99030 0.55116 -0.04500
H 	H 	0.48320 0.94390 0.54880 0.04400
C 	C 	0.53099 0.97200 0.56821 -0.04200
H 	H 	0.53860 0.91330 0.57700 0.04100
C 	C 	0.44995 0.09300 0.51942 0.06800
C 	C 	0.43350 0.15090 0.48554 -0.12800
H 	H 	0.44540 0.18280 0.47370 0.06900
C 	C 	0.39980 0.16390 0.46829 0.06600
H 	H 	0.38880 0.20270 0.44430 0.01900
C 	C 	0.38252 0.11990 0.48627 -0.15100
C 	C 	0.39866 0.06100 0.52019 0.06200
H 	H 	0.38680 0.03060 0.53250 0.02100
C 	C 	0.43201 0.04600 0.53644 -0.12900
H 	H 	0.44270 0.00390 0.55900 0.07300
C 	C 	0.34683 0.13450 0.47037 0.42800
O 	O 	0.33066 0.16852 0.43357 -0.51000
O 	O 	0.33589 0.10976 0.49610 -0.50700
H 	H 	0.74485 0.67078 0.59010 0.12600
H 	H 	0.78010 0.20000 0.00108 0.13200
Zn	Zn	0.29280 0.11749 0.49181 1.22500
Zn	Zn	0.77980 0.28598 0.14945 1.21700
Zn	Zn	0.21417 0.69708 0.10531 1.22200
Zn	Zn	0.23122 0.25012 0.44950 1.22000
O 	O 	0.28010 0.23367 0.50108 -0.74400
C 	C 	0.11470 0.54010 0.24152 0.07100
C 	C 	0.13220 0.47440 0.23243 -0.13000
H 	H 	0.15520 0.48020 0.24350 0.07700
C 	C 	0.11651 0.40120 0.20758 0.07300
C 	C 	0.08256 0.39380 0.19183 -0.12900
H 	H 	0.07160 0.34310 0.17520 0.07300
O 	O 	0.81562 0.26485 0.10114 -0.48200
O 	O 	0.82088 0.33985 0.15941 -0.47800
C 	C 	0.13188 0.61610 0.26996 -0.00900
C 	C 	0.11706 0.69940 0.26298 -0.04100
H 	H 	0.09590 0.70800 0.23920 0.04000
C 	C 	0.13299 0.77030 0.29057 -0.05100
H 	H 	0.12250 0.82640 0.28540 0.04400
C 	C 	0.16396 0.76000 0.32554 0.00200
C 	C 	0.17885 0.67630 0.33309 -0.05200
H 	H 	0.19990 0.66770 0.35690 0.05200
C 	C 	0.16286 0.60610 0.30582 -0.04000
H 	H 	0.17310 0.54960 0.31150 0.04800
C 	C 	0.18182 0.83740 0.35269 0.05800
C 	C 	0.16561 0.90480 0.36265 -0.11300
H 	H 	0.14270 0.90050 0.35320 0.06800
C 	C 	0.18279 0.97830 0.38631 0.04700
H 	H 	0.17150 0.02450 0.39260 0.03100
C 	C 	0.21640 0.98490 0.40093 -0.12300
C 	C 	0.23270 0.91790 0.39108 0.04500
H 	H 	0.25560 0.92230 0.40060 0.03200
C 	C 	0.21547 0.84460 0.36740 -0.10900
H 	H 	0.22680 0.79870 0.36110 0.07000
C 	C 	0.23514 0.06330 0.42618 0.36800
O 	O 	0.22110 0.11585 0.44044 -0.47600
O 	O 	0.26454 0.07245 0.43262 -0.52800
C 	C 	0.13497 0.32870 0.19864 -0.00500
C 	C 	0.16676 0.30650 0.22925 -0.04500
H 	H 	0.17770 0.34140 0.25470 0.03700
C 	C 	0.18260 0.23280 0.22252 -0.05000
H 	H 	0.20420 0.21840 0.24380 0.04300
C 	C 	0.16752 0.18100 0.18582 -0.00200
C 	C 	0.13605 0.20610 0.15437 -0.04800
H 	H 	0.12540 0.17280 0.12820 0.04300
C 	C 	0.12030 0.27880 0.16101 -0.04400
H 	H 	0.09900 0.29460 0.13920 0.04300
C 	C 	0.18316 0.09980 0.17891 0.06000
C 	C 	0.21698 0.09070 0.19821 -0.11600
H 	H 	0.23050 0.13680 0.21620 0.06500
C 	C 	0.23134 0.01480 0.19149 0.04400
H 	H 	0.25450 0.00990 0.20440 0.02400
C 	C 	0.21162 0.94590 0.16567 -0.12800
C 	C 	0.17801 0.95460 0.14725 0.05000
H 	H 	0.16440 0.90770 0.13000 0.02700
C 	C 	0.16387 0.03000 0.15349 -0.11800
H 	H 	0.14070 0.03480 0.14040 0.06700
C 	C 	0.22638 0.86380 0.15740 0.38500
O 	O 	0.25728 0.86281 0.17273 -0.49300
O 	O 	0.20680 0.80471 0.13457 -0.47100
C 	C 	0.02839 0.44540 0.18484 -0.00900
C 	C 	0.01064 0.38280 0.15573 -0.04100
H 	H 	0.02070 0.34950 0.14180 0.04300
C 	C 	0.97827 0.36540 0.14537 -0.04900
H 	H 	0.96690 0.32000 0.12500 0.04600
C 	C 	0.96221 0.41230 0.16390 -0.00400
C 	C 	0.97850 0.48140 0.18823 -0.04900
H 	H 	0.96750 0.52040 0.19870 0.04300
C 	C 	0.01125 0.49840 0.19895 -0.04400
H 	H 	0.02180 0.54830 0.21650 0.03800
C 	C 	0.92787 0.38970 0.15509 0.07000
C 	C 	0.90606 0.35060 0.11684 -0.13100
H 	H 	0.91270 0.33900 0.09510 0.07700
C 	C 	0.87492 0.32800 0.10920 0.06600
H 	H 	0.86040 0.30100 0.08240 0.01000
C 	C 	0.86445 0.34430 0.14038 -0.14200
C 	C 	0.88573 0.38650 0.17829 0.06200
H 	H 	0.87870 0.40070 0.19940 0.02800
C 	C 	0.91721 0.40830 0.18586 -0.12500
H 	H 	0.93170 0.43640 0.21240 0.07500
C 	C 	0.83102 0.31510 0.13250 0.39100
C 	C 	0.06447 0.45840 0.19986 0.06900
C 	C 	0.08077 0.53150 0.22417 -0.13500
H 	H 	0.06860 0.57690 0.22920 0.07100
O 	O 	0.74485 0.26289 0.09010 -0.75100
C 	C 	0.13593 0.43140 0.63990 0.07500
C 	C 	0.15594 0.48400 0.62905 -0.13400
H 	H 	0.17880 0.47220 0.64190 0.08000
C 	C 	0.14314 0.55340 0.59985 0.07400
C 	C 	0.10956 0.56890 0.58023 -0.12900
H 	H 	0.10050 0.61410 0.55890 0.07400
C 	C 	0.08891 0.51880 0.59143 0.07200
C 	C 	0.10278 0.45060 0.62154 -0.13000
H 	H 	0.08910 0.41640 0.62970 0.07500
C 	C 	0.14997 0.35420 0.66982 -0.00600
C 	C 	0.13228 0.27540 0.66200 -0.04300
H 	H 	0.11090 0.27170 0.63810 0.04100
C 	C 	0.14538 0.20290 0.68845 -0.04200
H 	H 	0.13290 0.14980 0.68260 0.04200
C 	C 	0.17673 0.20570 0.72381 -0.00400
C 	C 	0.19371 0.28550 0.73196 -0.04000
H 	H 	0.21470 0.29000 0.75630 0.04000
C 	C 	0.18069 0.35790 0.70541 -0.04700
H 	H 	0.19300 0.41140 0.71160 0.04600
C 	C 	0.19128 0.12590 0.75096 0.06900
C 	C 	0.17155 0.06160 0.75629 -0.12200
H 	H 	0.14850 0.07000 0.74300 0.07000
C 	C 	0.18472 0.98670 0.78031 0.06300
H 	H 	0.17080 0.94360 0.78330 0.02500
C 	C 	0.21850 0.97320 0.80051 -0.14000
C 	C 	0.23840 0.03630 0.79569 0.06300
H 	H 	0.26150 0.02770 0.80930 0.01900
C 	C 	0.22510 0.11190 0.77122 -0.12300
H 	H 	0.23910 0.15470 0.76820 0.07100
C 	C 	0.23259 0.89220 0.82735 0.40700
O 	O 	0.21248 0.83450 0.82711 -0.50400
O 	O 	0.26310 0.88601 0.84706 -0.49600
C 	C 	0.16516 0.61420 0.59132 -0.00200
C 	C 	0.18796 0.66340 0.62617 -0.05100
H 	H 	0.19060 0.65330 0.65470 0.05100
C 	C 	0.20660 0.72670 0.61907 -0.03900
H 	H 	0.22180 0.76060 0.64290 0.04000
C 	C 	0.20371 0.74210 0.57783 -0.01700
C 	C 	0.18195 0.68920 0.54384 -0.03800
H 	H 	0.18030 0.69600 0.51560 0.04500
C 	C 	0.16276 0.62710 0.55065 -0.05300
H 	H 	0.14770 0.59280 0.52690 0.05100
C 	C 	0.22263 0.81470 0.57071 0.08100
C 	C 	0.23530 0.80670 0.54100 -0.14200
H 	H 	0.23300 0.75230 0.52600 0.07900
C 	C 	0.25123 0.87750 0.53343 0.08100
H 	H 	0.25990 0.87130 0.51340 0.01400
C 	C 	0.25455 0.95700 0.55476 -0.16600
C 	C 	0.24271 0.96460 0.58491 0.08700
H 	H 	0.24540 0.01860 0.60030 -0.00600
C 	C 	0.22707 0.89380 0.59269 -0.15100
H 	H 	0.21920 0.89980 0.61360 0.08400
C 	C 	0.26901 0.03560 0.54381 0.41700
O 	O 	0.28620 0.02156 0.52449 -0.48100
O 	O 	0.26256 0.10997 0.55337 -0.49900
C 	C 	0.05338 0.53940 0.57254 -0.00900
C 	C 	0.04099 0.62290 0.55816 -0.04500
H 	H 	0.05560 0.66960 0.56030 0.04000
C 	C 	0.00772 0.64040 0.54070 -0.04900
H 	H 	0.99990 0.69860 0.53070 0.04200
C 	C 	0.98569 0.57520 0.53743 -0.00500
C 	C 	0.99793 0.49030 0.55116 -0.04400
H 	H 	0.98320 0.44390 0.54880 0.04400
C 	C 	0.03099 0.47200 0.56821 -0.04200
H 	H 	0.03860 0.41330 0.57700 0.04100
C 	C 	0.94995 0.59300 0.51942 0.06800
C 	C 	0.93350 0.65090 0.48554 -0.12800
H 	H 	0.94540 0.68280 0.47370 0.06900
C 	C 	0.89980 0.66390 0.46829 0.06600
H 	H 	0.88880 0.70270 0.44430 0.01900
C 	C 	0.88252 0.61990 0.48627 -0.15100
C 	C 	0.89866 0.56100 0.52019 0.06200
H 	H 	0.88680 0.53060 0.53250 0.02100
C 	C 	0.93201 0.54600 0.53644 -0.12900
H 	H 	0.94270 0.50390 0.55900 0.07300
C 	C 	0.84683 0.63450 0.47037 0.42800
O 	O 	0.83066 0.66852 0.43357 -0.51000
O 	O 	0.83589 0.60976 0.49610 -0.50700
H 	H 	0.24485 0.17078 0.59010 0.12600
H 	H 	0.28010 0.70000 0.00108 0.13200
Zn	Zn	0.79280 0.38251 0.99181 1.22500
Zn	Zn	0.27980 0.21402 0.64945 1.21700
Zn	Zn	0.71417 0.80292 0.60531 1.22200
Zn	Zn	0.73122 0.24988 0.94950 1.22000
O 	O 	0.78010 0.26633 0.00108 -0.74400
C 	C 	0.61470 0.95990 0.74152 0.07100
C 	C 	0.63220 0.02560 0.73243 -0.13000
H 	H 	0.65520 0.01980 0.74350 0.07700
C 	C 	0.61651 0.09880 0.70758 0.07300
C 	C 	0.58256 0.10620 0.69183 -0.12900
H 	H 	0.57160 0.15690 0.67520 0.07300
O 	O 	0.31562 0.23515 0.60114 -0.48200
O 	O 	0.32088 0.16015 0.65941 -0.47800
C 	C 	0.63188 0.88390 0.76996 -0.00900
C 	C 	0.61706 0.80060 0.76298 -0.04100
H 	H 	0.59590 0.79200 0.73920 0.04000
C 	C 	0.63299 0.72970 0.79057 -0.05100
H 	H 	0.62250 0.67360 0.78540 0.04400
C 	C 	0.66396 0.74000 0.82554 0.00200
C 	C 	0.67885 0.82370 0.83309 -0.05200
H 	H 	0.69990 0.83230 0.85690 0.05200
C 	C 	0.66286 0.89390 0.80582 -0.04000
H 	H 	0.67310 0.95040 0.81150 0.04800
C 	C 	0.68182 0.66260 0.85269 0.05800
C 	C 	0.66561 0.59520 0.86265 -0.11300
H 	H 	0.64270 0.59950 0.85320 0.06800
C 	C 	0.68279 0.52170 0.88631 0.04700
H 	H 	0.67150 0.47550 0.89260 0.03100
C 	C 	0.71640 0.51510 0.90093 -0.12300
C 	C 	0.73270 0.58210 0.89108 0.04500
H 	H 	0.75560 0.57770 0.90060 0.03200
C 	C 	0.71547 0.65540 0.86740 -0.10900
H 	H 	0.72680 0.70130 0.86110 0.07000
C 	C 	0.73514 0.43670 0.92618 0.36800
O 	O 	0.72110 0.38415 0.94044 -0.47600
O 	O 	0.76454 0.42755 0.93262 -0.52800
C 	C 	0.63497 0.17130 0.69864 -0.00500
C 	C 	0.66676 0.19350 0.72925 -0.04500
H 	H 	0.67770 0.15860 0.75470 0.03700
C 	C 	0.68260 0.26720 0.72252 -0.05000
H 	H 	0.70420 0.28160 0.74380 0.04300
C 	C 	0.66752 0.31900 0.68582 -0.00200
C 	C 	0.63605 0.29390 0.65437 -0.04800
H 	H 	0.62540 0.32720 0.62820 0.04300
C 	C 	0.62030 0.22120 0.66101 -0.04400
H 	H 	0.59900 0.20540 0.63920 0.04300
C 	C 	0.68316 0.40020 0.67891 0.06000
C 	C 	0.71698 0.40930 0.69821 -0.11600
H 	H 	0.73050 0.36320 0.71620 0.06500
C 	C 	0.73134 0.48520 0.69149 0.04400
H 	H 	0.75450 0.49010 0.70440 0.02400
C 	C 	0.71162 0.55410 0.66567 -0.12800
C 	C 	0.67801 0.54540 0.64725 0.05000
H 	H 	0.66440 0.59230 0.63000 0.02700
C 	C 	0.66387 0.47000 0.65349 -0.11700
H 	H 	0.64070 0.46520 0.64040 0.06700
C 	C 	0.72638 0.63620 0.65740 0.38500
O 	O 	0.75728 0.63719 0.67273 -0.49300
O 	O 	0.70680 0.69529 0.63457 -0.47100
C 	C 	0.52839 0.05460 0.68484 -0.00900
C 	C 	0.51064 0.11720 0.65573 -0.04100
H 	H 	0.52070 0.15050 0.64180 0.04300
C 	C 	0.47827 0.13460 0.64537 -0.04900
H 	H 	0.46690 0.18000 0.62500 0.04600
C 	C 	0.46221 0.08770 0.66390 -0.00400
C 	C 	0.47850 0.01860 0.68823 -0.04800
H 	H 	0.46750 0.97960 0.69870 0.04300
C 	C 	0.51125 0.00160 0.69895 -0.04400
H 	H 	0.52180 0.95170 0.71650 0.03800
C 	C 	0.42787 0.11030 0.65509 0.07000
C 	C 	0.40606 0.14940 0.61684 -0.13100
H 	H 	0.41270 0.16100 0.59510 0.07700
C 	C 	0.37492 0.17200 0.60920 0.06600
H 	H 	0.36040 0.19900 0.58240 0.01000
C 	C 	0.36445 0.15570 0.64038 -0.14200
C 	C 	0.38573 0.11350 0.67829 0.06200
H 	H 	0.37870 0.09930 0.69940 0.02800
C 	C 	0.41721 0.09170 0.68586 -0.12500
H 	H 	0.43170 0.06360 0.71240 0.07500
C 	C 	0.33102 0.18490 0.63250 0.39100
C 	C 	0.56447 0.04160 0.69986 0.06900
C 	C 	0.58077 0.96850 0.72417 -0.13500
H 	H 	0.56860 0.92310 0.72920 0.07100
O 	O 	0.24485 0.23711 0.59010 -0.75100
C 	C 	0.63593 0.06860 0.13990 0.07600
C 	C 	0.65594 0.01600 0.12905 -0.13400
H 	H 	0.67880 0.02780 0.14190 0.08000
C 	C 	0.64314 0.94660 0.09985 0.07400
C 	C 	0.60956 0.93110 0.08023 -0.13000
H 	H 	0.60050 0.88590 0.05890 0.07500
C 	C 	0.58891 0.98120 0.09143 0.07300
C 	C 	0.60278 0.04940 0.12154 -0.13100
H 	H 	0.58910 0.08360 0.12970 0.07500
C 	C 	0.64997 0.14580 0.16982 -0.00600
C 	C 	0.63228 0.22460 0.16200 -0.04300
H 	H 	0.61090 0.22830 0.13810 0.04100
C 	C 	0.64538 0.29710 0.18845 -0.04200
H 	H 	0.63290 0.35020 0.18260 0.04200
C 	C 	0.67673 0.29430 0.22381 -0.00400
C 	C 	0.69371 0.21450 0.23196 -0.04000
H 	H 	0.71470 0.21000 0.25630 0.04000
C 	C 	0.68069 0.14210 0.20541 -0.04700
H 	H 	0.69300 0.08860 0.21160 0.04600
C 	C 	0.69128 0.37410 0.25096 0.07000
C 	C 	0.67155 0.43840 0.25629 -0.12200
H 	H 	0.64850 0.43000 0.24300 0.07000
C 	C 	0.68472 0.51330 0.28031 0.06300
H 	H 	0.67080 0.55640 0.28330 0.02500
C 	C 	0.71850 0.52680 0.30051 -0.14000
C 	C 	0.73840 0.46370 0.29569 0.06300
H 	H 	0.76150 0.47230 0.30930 0.01900
C 	C 	0.72510 0.38810 0.27122 -0.12300
H 	H 	0.73910 0.34530 0.26820 0.07100
C 	C 	0.73259 0.60780 0.32735 0.40700
O 	O 	0.71248 0.66550 0.32711 -0.50400
O 	O 	0.76310 0.61399 0.34706 -0.49600
C 	C 	0.66516 0.88580 0.09132 -0.00300
C 	C 	0.68796 0.83660 0.12617 -0.05100
H 	H 	0.69060 0.84670 0.15470 0.05000
C 	C 	0.70660 0.77330 0.11907 -0.03900
H 	H 	0.72180 0.73940 0.14290 0.04000
C 	C 	0.70371 0.75790 0.07783 -0.01700
C 	C 	0.68195 0.81080 0.04384 -0.03800
H 	H 	0.68030 0.80400 0.01560 0.04500
C 	C 	0.66276 0.87290 0.05065 -0.05200
H 	H 	0.64770 0.90720 0.02690 0.05100
C 	C 	0.72263 0.68530 0.07071 0.08100
C 	C 	0.73530 0.69330 0.04100 -0.14200
H 	H 	0.73300 0.74770 0.02600 0.07900
C 	C 	0.75123 0.62250 0.03343 0.08100
H 	H 	0.75990 0.62870 0.01340 0.01400
C 	C 	0.75455 0.54300 0.05476 -0.16600
C 	C 	0.74271 0.53540 0.08491 0.08700
H 	H 	0.74540 0.48140 0.10030 -0.00600
C 	C 	0.72707 0.60620 0.09269 -0.15100
H 	H 	0.71920 0.60020 0.11360 0.08400
C 	C 	0.76901 0.46440 0.04381 0.41700
O 	O 	0.78620 0.47844 0.02449 -0.48100
O 	O 	0.76256 0.39003 0.05337 -0.49900
C 	C 	0.55338 0.96060 0.07254 -0.00900
C 	C 	0.54099 0.87710 0.05816 -0.04500
H 	H 	0.55560 0.83040 0.06030 0.04000
C 	C 	0.50772 0.85960 0.04070 -0.04900
H 	H 	0.49990 0.80140 0.03070 0.04200
C 	C 	0.48569 0.92480 0.03743 -0.00500
C 	C 	0.49793 0.00970 0.05116 -0.04500
H 	H 	0.48320 0.05610 0.04880 0.04400
C 	C 	0.53099 0.02800 0.06821 -0.04200
H 	H 	0.53860 0.08670 0.07700 0.04100
C 	C 	0.44995 0.90700 0.01942 0.06900
C 	C 	0.43350 0.84910 0.98554 -0.12800
H 	H 	0.44540 0.81720 0.97370 0.06900
C 	C 	0.39980 0.83610 0.96829 0.06700
H 	H 	0.38880 0.79730 0.94430 0.01900
C 	C 	0.38252 0.88010 0.98627 -0.15200
C 	C 	0.39866 0.93900 0.02019 0.06200
H 	H 	0.38680 0.96940 0.03250 0.02100
C 	C 	0.43201 0.95400 0.03644 -0.12900
H 	H 	0.44270 0.99610 0.05900 0.07300
C 	C 	0.34683 0.86550 0.97037 0.42800
O 	O 	0.33066 0.83148 0.93357 -0.51000
O 	O 	0.33589 0.89024 0.99610 -0.50700
H 	H 	0.74485 0.32922 0.09010 0.12600
H 	H 	0.78010 0.80000 0.50108 0.13200
Zn	Zn	0.29280 0.88251 0.99181 1.22500
Zn	Zn	0.77980 0.71402 0.64945 1.21700
Zn	Zn	0.21417 0.30292 0.60531 1.22200
Zn	Zn	0.23122 0.74988 0.94950 1.22000
O 	O 	0.28010 0.76633 0.00108 -0.74400
C 	C 	0.11470 0.45990 0.74152 0.07100
C 	C 	0.13220 0.52560 0.73243 -0.13000
H 	H 	0.15520 0.51980 0.74350 0.07700
C 	C 	0.11651 0.59880 0.70758 0.07300
C 	C 	0.08256 0.60620 0.69183 -0.12900
H 	H 	0.07160 0.65690 0.67520 0.07300
O 	O 	0.81562 0.73515 0.60114 -0.48200
O 	O 	0.82088 0.66015 0.65941 -0.47800
C 	C 	0.13188 0.38390 0.76996 -0.00900
C 	C 	0.11706 0.30060 0.76298 -0.04100
H 	H 	0.09590 0.29200 0.73920 0.04000
C 	C 	0.13299 0.22970 0.79057 -0.05100
H 	H 	0.12250 0.17360 0.78540 0.04400
C 	C 	0.16396 0.24000 0.82554 0.00200
C 	C 	0.17885 0.32370 0.83309 -0.05200
H 	H 	0.19990 0.33230 0.85690 0.05200
C 	C 	0.16286 0.39390 0.80582 -0.04000
H 	H 	0.17310 0.45040 0.81150 0.04800
C 	C 	0.18182 0.16260 0.85269 0.05800
C 	C 	0.16561 0.09520 0.86265 -0.11300
H 	H 	0.14270 0.09950 0.85320 0.06800
C 	C 	0.18279 0.02170 0.88631 0.04700
H 	H 	0.17150 0.97550 0.89260 0.03100
C 	C 	0.21640 0.01510 0.90093 -0.12300
C 	C 	0.23270 0.08210 0.89108 0.04500
H 	H 	0.25560 0.07770 0.90060 0.03200
C 	C 	0.21547 0.15540 0.86740 -0.10900
H 	H 	0.22680 0.20130 0.86110 0.07000
C 	C 	0.23514 0.93670 0.92618 0.36700
O 	O 	0.22110 0.88415 0.94044 -0.47600
O 	O 	0.26454 0.92755 0.93262 -0.52800
C 	C 	0.13497 0.67130 0.69864 -0.00500
C 	C 	0.16676 0.69350 0.72925 -0.04500
H 	H 	0.17770 0.65860 0.75470 0.03700
C 	C 	0.18260 0.76720 0.72252 -0.05000
H 	H 	0.20420 0.78160 0.74380 0.04300
C 	C 	0.16752 0.81900 0.68582 -0.00200
C 	C 	0.13605 0.79390 0.65437 -0.04800
H 	H 	0.12540 0.82720 0.62820 0.04300
C 	C 	0.12030 0.72120 0.66101 -0.04400
H 	H 	0.09900 0.70540 0.63920 0.04300
C 	C 	0.18316 0.90020 0.67891 0.06000
C 	C 	0.21698 0.90930 0.69821 -0.11600
H 	H 	0.23050 0.86320 0.71620 0.06500
C 	C 	0.23134 0.98520 0.69149 0.04400
H 	H 	0.25450 0.99010 0.70440 0.02400
C 	C 	0.21162 0.05410 0.66567 -0.12800
C 	C 	0.17801 0.04540 0.64725 0.05000
H 	H 	0.16440 0.09230 0.63000 0.02700
C 	C 	0.16387 0.97000 0.65349 -0.11700
H 	H 	0.14070 0.96520 0.64040 0.06700
C 	C 	0.22638 0.13620 0.65740 0.38500
O 	O 	0.25728 0.13719 0.67273 -0.49300
O 	O 	0.20680 0.19529 0.63457 -0.47100
C 	C 	0.02839 0.55460 0.68484 -0.00900
C 	C 	0.01064 0.61720 0.65573 -0.04100
H 	H 	0.02070 0.65050 0.64180 0.04300
C 	C 	0.97827 0.63460 0.64537 -0.04900
H 	H 	0.96690 0.68000 0.62500 0.04600
C 	C 	0.96221 0.58770 0.66390 -0.00400
C 	C 	0.97850 0.51860 0.68823 -0.04900
H 	H 	0.96750 0.47960 0.69870 0.04300
C 	C 	0.01125 0.50160 0.69895 -0.04400
H 	H 	0.02180 0.45170 0.71650 0.03800
C 	C 	0.92787 0.61030 0.65509 0.07000
C 	C 	0.90606 0.64940 0.61684 -0.13100
H 	H 	0.91270 0.66100 0.59510 0.07700
C 	C 	0.87492 0.67200 0.60920 0.06600
H 	H 	0.86040 0.69900 0.58240 0.01000
C 	C 	0.86445 0.65570 0.64038 -0.14200
C 	C 	0.88573 0.61350 0.67829 0.06200
H 	H 	0.87870 0.59930 0.69940 0.02800
C 	C 	0.91721 0.59170 0.68586 -0.12500
H 	H 	0.93170 0.56360 0.71240 0.07500
C 	C 	0.83102 0.68490 0.63250 0.39100
C 	C 	0.06447 0.54160 0.69986 0.06900
C 	C 	0.08077 0.46850 0.72417 -0.13500
H 	H 	0.06860 0.42310 0.72920 0.07100
O 	O 	0.74485 0.73711 0.59010 -0.75100
C 	C 	0.13593 0.56860 0.13990 0.07500
C 	C 	0.15594 0.51600 0.12905 -0.13400
H 	H 	0.17880 0.52780 0.14190 0.08000
C 	C 	0.14314 0.44660 0.09985 0.07400
C 	C 	0.10956 0.43110 0.08023 -0.12900
H 	H 	0.10050 0.38590 0.05890 0.07400
C 	C 	0.08891 0.48120 0.09143 0.07200
C 	C 	0.10278 0.54940 0.12154 -0.13000
H 	H 	0.08910 0.58360 0.12970 0.07500
C 	C 	0.14997 0.64580 0.16982 -0.00600
C 	C 	0.13228 0.72460 0.16200 -0.04300
H 	H 	0.11090 0.72830 0.13810 0.04100
C 	C 	0.14538 0.79710 0.18845 -0.04200
H 	H 	0.13290 0.85020 0.18260 0.04200
C 	C 	0.17673 0.79430 0.22381 -0.00400
C 	C 	0.19371 0.71450 0.23196 -0.04000
H 	H 	0.21470 0.71000 0.25630 0.04000
C 	C 	0.18069 0.64210 0.20541 -0.04700
H 	H 	0.19300 0.58860 0.21160 0.04600
C 	C 	0.19128 0.87410 0.25096 0.06900
C 	C 	0.17155 0.93840 0.25629 -0.12200
H 	H 	0.14850 0.93000 0.24300 0.07000
C 	C 	0.18472 0.01330 0.28031 0.06300
H 	H 	0.17080 0.05640 0.28330 0.02500
C 	C 	0.21850 0.02680 0.30051 -0.14000
C 	C 	0.23840 0.96370 0.29569 0.06300
H 	H 	0.26150 0.97230 0.30930 0.01900
C 	C 	0.22510 0.88810 0.27122 -0.12300
H 	H 	0.23910 0.84530 0.26820 0.07100
C 	C 	0.23259 0.10780 0.32735 0.40700
O 	O 	0.21248 0.16550 0.32711 -0.50400
O 	O 	0.26310 0.11399 0.34706 -0.49600
C 	C 	0.16516 0.38580 0.09132 -0.00200
C 	C 	0.18796 0.33660 0.12617 -0.05100
H 	H 	0.19060 0.34670 0.15470 0.05100
C 	C 	0.20660 0.27330 0.11907 -0.03900
H 	H 	0.22180 0.23940 0.14290 0.04000
C 	C 	0.20371 0.25790 0.07783 -0.01700
C 	C 	0.18195 0.31080 0.04384 -0.03800
H 	H 	0.18030 0.30400 0.01560 0.04500
C 	C 	0.16276 0.37290 0.05065 -0.05300
H 	H 	0.14770 0.40720 0.02690 0.05100
C 	C 	0.22263 0.18530 0.07071 0.08100
C 	C 	0.23530 0.19330 0.04100 -0.14200
H 	H 	0.23300 0.24770 0.02600 0.07900
C 	C 	0.25123 0.12250 0.03343 0.08100
H 	H 	0.25990 0.12870 0.01340 0.01400
C 	C 	0.25455 0.04300 0.05476 -0.16600
C 	C 	0.24271 0.03540 0.08491 0.08700
H 	H 	0.24540 0.98140 0.10030 -0.00600
C 	C 	0.22707 0.10620 0.09269 -0.15100
H 	H 	0.21920 0.10020 0.11360 0.08400
C 	C 	0.26901 0.96440 0.04381 0.41700
O 	O 	0.28620 0.97844 0.02449 -0.48100
O 	O 	0.26256 0.89003 0.05337 -0.49900
C 	C 	0.05338 0.46060 0.07254 -0.00900
C 	C 	0.04099 0.37710 0.05816 -0.04500
H 	H 	0.05560 0.33040 0.06030 0.04000
C 	C 	0.00772 0.35960 0.04070 -0.04900
H 	H 	0.99990 0.30140 0.03070 0.04200
C 	C 	0.98569 0.42480 0.03743 -0.00500
C 	C 	0.99793 0.50970 0.05116 -0.04400
H 	H 	0.98320 0.55610 0.04880 0.04400
C 	C 	0.03099 0.52800 0.06821 -0.04200
H 	H 	0.03860 0.58670 0.07700 0.04100
C 	C 	0.94995 0.40700 0.01942 0.06800
C 	C 	0.93350 0.34910 0.98554 -0.12800
H 	H 	0.94540 0.31720 0.97370 0.06900
C 	C 	0.89980 0.33610 0.96829 0.06600
H 	H 	0.88880 0.29730 0.94430 0.01900
C 	C 	0.88252 0.38010 0.98627 -0.15100
C 	C 	0.89866 0.43900 0.02019 0.06200
H 	H 	0.88680 0.46940 0.03250 0.02100
C 	C 	0.93201 0.45400 0.03644 -0.12900
H 	H 	0.94270 0.49610 0.05900 0.07300
C 	C 	0.84683 0.36550 0.97037 0.42800
O 	O 	0.83066 0.33148 0.93357 -0.51000
O 	O 	0.83589 0.39024 0.99610 -0.50700
H 	H 	0.24485 0.82922 0.09010 0.12600
H 	H 	0.28010 0.30000 0.50108 0.13200
Zn	Zn	0.20720 0.38251 0.50819 1.22500
Zn	Zn	0.72020 0.21402 0.85055 1.21700
Zn	Zn	0.28583 0.80292 0.89469 1.22200
Zn	Zn	0.26878 0.24988 0.55050 1.22000
O 	O 	0.21990 0.26633 0.49892 -0.74400
C 	C 	0.38530 0.95990 0.75848 0.07100
C 	C 	0.36780 0.02560 0.76757 -0.13000
H 	H 	0.34480 0.01980 0.75650 0.07700
C 	C 	0.38349 0.09880 0.79242 0.07300
C 	C 	0.41744 0.10620 0.80817 -0.12900
H 	H 	0.42840 0.15690 0.82480 0.07300
O 	O 	0.68438 0.23515 0.89886 -0.48200
O 	O 	0.67912 0.16015 0.84059 -0.47800
C 	C 	0.36812 0.88390 0.73004 -0.00900
C 	C 	0.38294 0.80060 0.73702 -0.04100
H 	H 	0.40410 0.79200 0.76080 0.04000
C 	C 	0.36701 0.72970 0.70943 -0.05100
H 	H 	0.37750 0.67360 0.71460 0.04400
C 	C 	0.33604 0.74000 0.67446 0.00200
C 	C 	0.32115 0.82370 0.66691 -0.05200
H 	H 	0.30010 0.83230 0.64310 0.05200
C 	C 	0.33714 0.89390 0.69418 -0.04000
H 	H 	0.32690 0.95040 0.68850 0.04800
C 	C 	0.31818 0.66260 0.64731 0.05800
C 	C 	0.33439 0.59520 0.63735 -0.11300
H 	H 	0.35730 0.59950 0.64680 0.06800
C 	C 	0.31721 0.52170 0.61369 0.04700
H 	H 	0.32850 0.47550 0.60740 0.03100
C 	C 	0.28360 0.51510 0.59907 -0.12300
C 	C 	0.26730 0.58210 0.60892 0.04500
H 	H 	0.24440 0.57770 0.59940 0.03200
C 	C 	0.28453 0.65540 0.63260 -0.10900
H 	H 	0.27320 0.70130 0.63890 0.07000
C 	C 	0.26486 0.43670 0.57382 0.36800
O 	O 	0.27890 0.38415 0.55956 -0.47600
O 	O 	0.23546 0.42755 0.56738 -0.52800
C 	C 	0.36503 0.17130 0.80136 -0.00500
C 	C 	0.33324 0.19350 0.77075 -0.04500
H 	H 	0.32230 0.15860 0.74530 0.03700
C 	C 	0.31740 0.26720 0.77748 -0.05000
H 	H 	0.29580 0.28160 0.75620 0.04300
C 	C 	0.33248 0.31900 0.81418 -0.00200
C 	C 	0.36395 0.29390 0.84563 -0.04800
H 	H 	0.37460 0.32720 0.87180 0.04300
C 	C 	0.37970 0.22120 0.83899 -0.04400
H 	H 	0.40100 0.20540 0.86080 0.04300
C 	C 	0.31684 0.40020 0.82109 0.06000
C 	C 	0.28302 0.40930 0.80179 -0.11600
H 	H 	0.26950 0.36320 0.78380 0.06500
C 	C 	0.26866 0.48520 0.80851 0.04400
H 	H 	0.24550 0.49010 0.79560 0.02400
C 	C 	0.28838 0.55410 0.83433 -0.12800
C 	C 	0.32199 0.54540 0.85275 0.05000
H 	H 	0.33560 0.59230 0.87000 0.02800
C 	C 	0.33613 0.47000 0.84651 -0.11700
H 	H 	0.35930 0.46520 0.85960 0.06700
C 	C 	0.27362 0.63620 0.84260 0.38500
O 	O 	0.24272 0.63719 0.82727 -0.49300
O 	O 	0.29320 0.69529 0.86543 -0.47100
C 	C 	0.47161 0.05460 0.81516 -0.00900
C 	C 	0.48936 0.11720 0.84427 -0.04100
H 	H 	0.47930 0.15050 0.85820 0.04300
C 	C 	0.52173 0.13460 0.85463 -0.04900
H 	H 	0.53310 0.18000 0.87500 0.04600
C 	C 	0.53779 0.08770 0.83610 -0.00400
C 	C 	0.52150 0.01860 0.81177 -0.04800
H 	H 	0.53250 0.97960 0.80130 0.04300
C 	C 	0.48875 0.00160 0.80105 -0.04400
H 	H 	0.47820 0.95170 0.78350 0.03800
C 	C 	0.57213 0.11030 0.84491 0.07000
C 	C 	0.59394 0.14940 0.88316 -0.13100
H 	H 	0.58730 0.16100 0.90490 0.07700
C 	C 	0.62508 0.17200 0.89080 0.06600
H 	H 	0.63960 0.19900 0.91760 0.01000
C 	C 	0.63555 0.15570 0.85962 -0.14200
C 	C 	0.61427 0.11350 0.82171 0.06200
H 	H 	0.62130 0.09930 0.80060 0.02800
C 	C 	0.58279 0.09170 0.81414 -0.12500
H 	H 	0.56830 0.06360 0.78760 0.07500
C 	C 	0.66898 0.18490 0.86750 0.39100
C 	C 	0.43553 0.04160 0.80014 0.07000
C 	C 	0.41923 0.96850 0.77583 -0.13500
H 	H 	0.43140 0.92310 0.77080 0.07100
O 	O 	0.75515 0.23711 0.90990 -0.75100
C 	C 	0.36407 0.06860 0.36010 0.07500
C 	C 	0.34406 0.01600 0.37095 -0.13400
H 	H 	0.32120 0.02780 0.35810 0.08000
C 	C 	0.35686 0.94660 0.40015 0.07400
C 	C 	0.39044 0.93110 0.41977 -0.13000
H 	H 	0.39950 0.88590 0.44110 0.07500
C 	C 	0.41109 0.98120 0.40857 0.07200
C 	C 	0.39722 0.04940 0.37846 -0.13000
H 	H 	0.41090 0.08360 0.37030 0.07500
C 	C 	0.35003 0.14580 0.33018 -0.00600
C 	C 	0.36772 0.22460 0.33800 -0.04300
H 	H 	0.38910 0.22830 0.36190 0.04100
C 	C 	0.35462 0.29710 0.31155 -0.04200
H 	H 	0.36710 0.35020 0.31740 0.04200
C 	C 	0.32327 0.29430 0.27619 -0.00400
C 	C 	0.30629 0.21450 0.26804 -0.04000
H 	H 	0.28530 0.21000 0.24370 0.04000
C 	C 	0.31931 0.14210 0.29459 -0.04700
H 	H 	0.30700 0.08860 0.28840 0.04600
C 	C 	0.30872 0.37410 0.24904 0.07000
C 	C 	0.32845 0.43840 0.24371 -0.12200
H 	H 	0.35150 0.43000 0.25700 0.07000
C 	C 	0.31528 0.51330 0.21969 0.06300
H 	H 	0.32920 0.55640 0.21670 0.02500
C 	C 	0.28150 0.52680 0.19949 -0.14000
C 	C 	0.26160 0.46370 0.20431 0.06300
H 	H 	0.23850 0.47230 0.19070 0.01900
C 	C 	0.27490 0.38810 0.22878 -0.12300
H 	H 	0.26090 0.34530 0.23180 0.07100
C 	C 	0.26741 0.60780 0.17265 0.40700
O 	O 	0.28752 0.66550 0.17289 -0.50400
O 	O 	0.23690 0.61399 0.15294 -0.49600
C 	C 	0.33484 0.88580 0.40868 -0.00300
C 	C 	0.31204 0.83660 0.37383 -0.05100
H 	H 	0.30940 0.84670 0.34530 0.05100
C 	C 	0.29340 0.77330 0.38093 -0.03900
H 	H 	0.27820 0.73940 0.35710 0.04000
C 	C 	0.29629 0.75790 0.42217 -0.01700
C 	C 	0.31805 0.81080 0.45616 -0.03800
H 	H 	0.31970 0.80400 0.48440 0.04500
C 	C 	0.33724 0.87290 0.44935 -0.05300
H 	H 	0.35230 0.90720 0.47310 0.05100
C 	C 	0.27737 0.68530 0.42929 0.08100
C 	C 	0.26470 0.69330 0.45900 -0.14200
H 	H 	0.26700 0.74770 0.47400 0.07900
C 	C 	0.24877 0.62250 0.46657 0.08100
H 	H 	0.24010 0.62870 0.48660 0.01400
C 	C 	0.24545 0.54300 0.44524 -0.16600
C 	C 	0.25729 0.53540 0.41509 0.08700
H 	H 	0.25460 0.48140 0.39970 -0.00600
C 	C 	0.27293 0.60620 0.40731 -0.15100
H 	H 	0.28080 0.60020 0.38640 0.08400
C 	C 	0.23099 0.46440 0.45619 0.41700
O 	O 	0.21380 0.47844 0.47551 -0.48100
O 	O 	0.23744 0.39003 0.44663 -0.49900
C 	C 	0.44662 0.96060 0.42746 -0.00900
C 	C 	0.45901 0.87710 0.44184 -0.04500
H 	H 	0.44440 0.83040 0.43970 0.04000
C 	C 	0.49228 0.85960 0.45930 -0.04900
H 	H 	0.50010 0.80140 0.46930 0.04200
C 	C 	0.51431 0.92480 0.46257 -0.00500
C 	C 	0.50207 0.00970 0.44884 -0.04500
H 	H 	0.51680 0.05610 0.45120 0.04400
C 	C 	0.46901 0.02800 0.43179 -0.04200
H 	H 	0.46140 0.08670 0.42300 0.04100
C 	C 	0.55005 0.90700 0.48058 0.06800
C 	C 	0.56650 0.84910 0.51446 -0.12800
H 	H 	0.55460 0.81720 0.52630 0.06900
C 	C 	0.60020 0.83610 0.53171 0.06600
H 	H 	0.61120 0.79730 0.55570 0.01900
C 	C 	0.61748 0.88010 0.51373 -0.15100
C 	C 	0.60134 0.93900 0.47981 0.06200
H 	H 	0.61320 0.96940 0.46750 0.02100
C 	C 	0.56799 0.95400 0.46356 -0.12900
H 	H 	0.55730 0.99610 0.44100 0.07300
C 	C 	0.65317 0.86550 0.52963 0.42800
O 	O 	0.66934 0.83148 0.56643 -0.51000
O 	O 	0.66411 0.89024 0.50390 -0.50700
H 	H 	0.25515 0.32922 0.40990 0.12600
H 	H 	0.21990 0.80000 0.99892 0.13200
Zn	Zn	0.70720 0.88251 0.50819 1.22500
Zn	Zn	0.22020 0.71402 0.85055 1.21700
Zn	Zn	0.78583 0.30292 0.89469 1.22200
Zn	Zn	0.76878 0.74988 0.55050 1.22000
O 	O 	0.71990 0.76633 0.49892 -0.74400
C 	C 	0.88530 0.45990 0.75848 0.07100
C 	C 	0.86780 0.52560 0.76757 -0.13000
H 	H 	0.84480 0.51980 0.75650 0.07700
C 	C 	0.88349 0.59880 0.79242 0.07300
C 	C 	0.91744 0.60620 0.80817 -0.12900
H 	H 	0.92840 0.65690 0.82480 0.07300
O 	O 	0.18438 0.73515 0.89886 -0.48200
O 	O 	0.17912 0.66015 0.84059 -0.47800
C 	C 	0.86812 0.38390 0.73004 -0.00900
C 	C 	0.88294 0.30060 0.73702 -0.04100
H 	H 	0.90410 0.29200 0.76080 0.04000
C 	C 	0.86701 0.22970 0.70943 -0.05100
H 	H 	0.87750 0.17360 0.71460 0.04400
C 	C 	0.83604 0.24000 0.67446 0.00200
C 	C 	0.82115 0.32370 0.66691 -0.05200
H 	H 	0.80010 0.33230 0.64310 0.05200
C 	C 	0.83714 0.39390 0.69418 -0.04000
H 	H 	0.82690 0.45040 0.68850 0.04800
C 	C 	0.81818 0.16260 0.64731 0.05800
C 	C 	0.83439 0.09520 0.63735 -0.11300
H 	H 	0.85730 0.09950 0.64680 0.06800
C 	C 	0.81721 0.02170 0.61369 0.04700
H 	H 	0.82850 0.97550 0.60740 0.03100
C 	C 	0.78360 0.01510 0.59907 -0.12300
C 	C 	0.76730 0.08210 0.60892 0.04500
H 	H 	0.74440 0.07770 0.59940 0.03200
C 	C 	0.78453 0.15540 0.63260 -0.10900
H 	H 	0.77320 0.20130 0.63890 0.07000
C 	C 	0.76486 0.93670 0.57382 0.36800
O 	O 	0.77890 0.88415 0.55956 -0.47600
O 	O 	0.73546 0.92755 0.56738 -0.52800
C 	C 	0.86503 0.67130 0.80136 -0.00500
C 	C 	0.83324 0.69350 0.77075 -0.04500
H 	H 	0.82230 0.65860 0.74530 0.03700
C 	C 	0.81740 0.76720 0.77748 -0.05000
H 	H 	0.79580 0.78160 0.75620 0.04300
C 	C 	0.83248 0.81900 0.81418 -0.00200
C 	C 	0.86395 0.79390 0.84563 -0.04800
H 	H 	0.87460 0.82720 0.87180 0.04300
C 	C 	0.87970 0.72120 0.83899 -0.04400
H 	H 	0.90100 0.70540 0.86080 0.04300
C 	C 	0.81684 0.90020 0.82109 0.06000
C 	C 	0.78302 0.90930 0.80179 -0.11600
H 	H 	0.76950 0.86320 0.78380 0.06500
C 	C 	0.76866 0.98520 0.80851 0.04400
H 	H 	0.74550 0.99010 0.79560 0.02400
C 	C 	0.78838 0.05410 0.83433 -0.12800
C 	C 	0.82199 0.04540 0.85275 0.05000
H 	H 	0.83560 0.09230 0.87000 0.02700
C 	C 	0.83613 0.97000 0.84651 -0.11800
H 	H 	0.85930 0.96520 0.85960 0.06700
C 	C 	0.77362 0.13620 0.84260 0.38500
O 	O 	0.74272 0.13719 0.82727 -0.49300
O 	O 	0.79320 0.19529 0.86543 -0.47100
C 	C 	0.97161 0.55460 0.81516 -0.00900
C 	C 	0.98936 0.61720 0.84427 -0.04100
H 	H 	0.97930 0.65050 0.85820 0.04300
C 	C 	0.02173 0.63460 0.85463 -0.04900
H 	H 	0.03310 0.68000 0.87500 0.04600
C 	C 	0.03779 0.58770 0.83610 -0.00400
C 	C 	0.02150 0.51860 0.81177 -0.04900
H 	H 	0.03250 0.47960 0.80130 0.04300
C 	C 	0.98875 0.50160 0.80105 -0.04400
H 	H 	0.97820 0.45170 0.78350 0.03800
C 	C 	0.07213 0.61030 0.84491 0.07000
C 	C 	0.09394 0.64940 0.88316 -0.13100
H 	H 	0.08730 0.66100 0.90490 0.07700
C 	C 	0.12508 0.67200 0.89080 0.06600
H 	H 	0.13960 0.69900 0.91760 0.01000
C 	C 	0.13555 0.65570 0.85962 -0.14200
C 	C 	0.11427 0.61350 0.82171 0.06200
H 	H 	0.12130 0.59930 0.80060 0.02800
C 	C 	0.08279 0.59170 0.81414 -0.12500
H 	H 	0.06830 0.56360 0.78760 0.07500
C 	C 	0.16898 0.68490 0.86750 0.39100
C 	C 	0.93553 0.54160 0.80014 0.06900
C 	C 	0.91923 0.46850 0.77583 -0.13500
H 	H 	0.93140 0.42310 0.77080 0.07100
O 	O 	0.25515 0.73711 0.90990 -0.75100
C 	C 	0.86407 0.56860 0.36010 0.07500
C 	C 	0.84406 0.51600 0.37095 -0.13400
H 	H 	0.82120 0.52780 0.35810 0.08000
C 	C 	0.85686 0.44660 0.40015 0.07400
C 	C 	0.89044 0.43110 0.41977 -0.12900
H 	H 	0.89950 0.38590 0.44110 0.07400
C 	C 	0.91109 0.48120 0.40857 0.07200
C 	C 	0.89722 0.54940 0.37846 -0.13000
H 	H 	0.91090 0.58360 0.37030 0.07500
C 	C 	0.85003 0.64580 0.33018 -0.00600
C 	C 	0.86772 0.72460 0.33800 -0.04300
H 	H 	0.88910 0.72830 0.36190 0.04100
C 	C 	0.85462 0.79710 0.31155 -0.04200
H 	H 	0.86710 0.85020 0.31740 0.04200
C 	C 	0.82327 0.79430 0.27619 -0.00400
C 	C 	0.80629 0.71450 0.26804 -0.04000
H 	H 	0.78530 0.71000 0.24370 0.04000
C 	C 	0.81931 0.64210 0.29459 -0.04700
H 	H 	0.80700 0.58860 0.28840 0.04600
C 	C 	0.80872 0.87410 0.24904 0.06900
C 	C 	0.82845 0.93840 0.24371 -0.12200
H 	H 	0.85150 0.93000 0.25700 0.07000
C 	C 	0.81528 0.01330 0.21969 0.06300
H 	H 	0.82920 0.05640 0.21670 0.02500
C 	C 	0.78150 0.02680 0.19949 -0.14000
C 	C 	0.76160 0.96370 0.20431 0.06300
H 	H 	0.73850 0.97230 0.19070 0.01900
C 	C 	0.77490 0.88810 0.22878 -0.12300
H 	H 	0.76090 0.84530 0.23180 0.07100
C 	C 	0.76741 0.10780 0.17265 0.40700
O 	O 	0.78752 0.16550 0.17289 -0.50400
O 	O 	0.73690 0.11399 0.15294 -0.49600
C 	C 	0.83484 0.38580 0.40868 -0.00200
C 	C 	0.81204 0.33660 0.37383 -0.05100
H 	H 	0.80940 0.34670 0.34530 0.05100
C 	C 	0.79340 0.27330 0.38093 -0.03900
H 	H 	0.77820 0.23940 0.35710 0.04000
C 	C 	0.79629 0.25790 0.42217 -0.01700
C 	C 	0.81805 0.31080 0.45616 -0.03800
H 	H 	0.81970 0.30400 0.48440 0.04500
C 	C 	0.83724 0.37290 0.44935 -0.05300
H 	H 	0.85230 0.40720 0.47310 0.05100
C 	C 	0.77737 0.18530 0.42929 0.08100
C 	C 	0.76470 0.19330 0.45900 -0.14200
H 	H 	0.76700 0.24770 0.47400 0.07900
C 	C 	0.74877 0.12250 0.46657 0.08100
H 	H 	0.74010 0.12870 0.48660 0.01400
C 	C 	0.74545 0.04300 0.44524 -0.16600
C 	C 	0.75729 0.03540 0.41509 0.08700
H 	H 	0.75460 0.98140 0.39970 -0.00600
C 	C 	0.77293 0.10620 0.40731 -0.15100
H 	H 	0.78080 0.10020 0.38640 0.08400
C 	C 	0.73099 0.96440 0.45619 0.41700
O 	O 	0.71380 0.97844 0.47551 -0.48100
O 	O 	0.73744 0.89003 0.44663 -0.49900
C 	C 	0.94662 0.46060 0.42746 -0.00900
C 	C 	0.95901 0.37710 0.44184 -0.04500
H 	H 	0.94440 0.33040 0.43970 0.04000
C 	C 	0.99228 0.35960 0.45930 -0.04900
H 	H 	0.00010 0.30140 0.46930 0.04200
C 	C 	0.01431 0.42480 0.46257 -0.00500
C 	C 	0.00207 0.50970 0.44884 -0.04400
H 	H 	0.01680 0.55610 0.45120 0.04400
C 	C 	0.96901 0.52800 0.43179 -0.04200
H 	H 	0.96140 0.58670 0.42300 0.04100
C 	C 	0.05005 0.40700 0.48058 0.06800
C 	C 	0.06650 0.34910 0.51446 -0.12800
H 	H 	0.05460 0.31720 0.52630 0.06900
C 	C 	0.10020 0.33610 0.53171 0.06600
H 	H 	0.11120 0.29730 0.55570 0.01900
C 	C 	0.11748 0.38010 0.51373 -0.15100
C 	C 	0.10134 0.43900 0.47981 0.06200
H 	H 	0.11320 0.46940 0.46750 0.02100
C 	C 	0.06799 0.45400 0.46356 -0.12900
H 	H 	0.05730 0.49610 0.44100 0.07300
C 	C 	0.15317 0.36550 0.52963 0.42800
O 	O 	0.16934 0.33148 0.56643 -0.51000
O 	O 	0.16411 0.39024 0.50390 -0.50700
H 	H 	0.75515 0.82922 0.40990 0.12600
H 	H 	0.71990 0.30000 0.99892 0.13200
