data_crystal

_cell_length_a 7.29700
_cell_length_b 7.29700
_cell_length_c 8.17900
_cell_angle_alpha 90.00000
_cell_angle_beta  90.00000
_cell_angle_gamma 120.00000

_symmetry_space_group_name_	'P 1'
_symmetry_space_group_name_H-M	'P 1'

loop_
_symmetry_equiv_pos_as_xyz
  x,y,z

loop_
_atom_site_label
_atom_site_type_symbol
_atom_site_fract_x
_atom_site_fract_y
_atom_site_fract_z
_atom_site_charge
O 	O 	0.89071 0.30745 0.89455 -0.24000
O 	O 	0.69255 0.58326 0.89455 -0.25900
O 	O 	0.41674 0.10929 0.89455 -0.27000
O 	O 	0.10929 0.69255 0.39455 -0.34600
O 	O 	0.30745 0.41674 0.39455 -0.37600
O 	O 	0.58326 0.89071 0.39455 -0.29400
O 	O 	0.30745 0.89071 0.10545 -0.28600
O 	O 	0.58326 0.69255 0.10545 -0.32700
O 	O 	0.10929 0.41674 0.10545 -0.34700
O 	O 	0.69255 0.10929 0.60545 -0.34100
O 	O 	0.41674 0.30745 0.60545 -0.37000
O 	O 	0.89071 0.58326 0.60545 -0.30500
Co	Co	0.66667 0.33333 0.75000 1.20200
Co	Co	0.33333 0.66667 0.25000 1.19900
C 	C 	-0.00000 0.43930 -0.00000 0.19900
H 	H 	-0.00000 0.58700 -0.00000 -0.03200
C 	C 	0.56070 0.56070 -0.00000 0.25300
H 	H 	0.41300 0.41300 -0.00000 -0.04200
C 	C 	0.43930 0.00000 -0.00000 0.16800
H 	H 	0.58700 0.00000 -0.00000 -0.03200
C 	C 	0.00000 0.56070 0.50000 0.30700
H 	H 	0.00000 0.41300 0.50000 -0.04100
C 	C 	0.43930 0.43930 0.50000 0.37000
H 	H 	0.58700 0.58700 0.50000 -0.03200
C 	C 	0.56070 0.00000 0.50000 0.28100
H 	H 	0.41300 0.00000 0.50000 -0.03900
