data_crystal

_cell_length_a 7.28610
_cell_length_b 7.28610
_cell_length_c 8.02070
_cell_angle_alpha 90.00000
_cell_angle_beta  90.00000
_cell_angle_gamma 120.00000

_symmetry_space_group_name_	'P 1'
_symmetry_space_group_name_H-M	'P 1'

loop_
_symmetry_equiv_pos_as_xyz
  x,y,z

loop_
_atom_site_label
_atom_site_type_symbol
_atom_site_fract_x
_atom_site_fract_y
_atom_site_fract_z
_atom_site_charge
O 	O 	0.88860 0.30960 0.89411 -0.22900
O 	O 	0.69040 0.57900 0.89411 -0.25200
O 	O 	0.42100 0.11140 0.89411 -0.26100
O 	O 	0.11140 0.69040 0.39411 -0.34500
O 	O 	0.30960 0.42100 0.39411 -0.37900
O 	O 	0.57900 0.88860 0.39411 -0.28900
O 	O 	0.30960 0.88860 0.10589 -0.27800
O 	O 	0.57900 0.69040 0.10589 -0.32500
O 	O 	0.11140 0.42100 0.10589 -0.34300
O 	O 	0.69040 0.11140 0.60589 -0.33900
O 	O 	0.42100 0.30960 0.60589 -0.37300
O 	O 	0.88860 0.57900 0.60589 -0.30100
Ni	Ni	0.66667 0.33333 0.75000 1.14400
Ni	Ni	0.33333 0.66667 0.25000 1.14100
C 	C 	-0.00000 0.44260 -0.00000 0.21700
H 	H 	-0.00000 0.57700 -0.00000 -0.04400
C 	C 	0.55740 0.55740 -0.00000 0.28300
H 	H 	0.42300 0.42300 -0.00000 -0.06000
C 	C 	0.44260 0.00000 -0.00000 0.18100
H 	H 	0.57700 0.00000 -0.00000 -0.04200
C 	C 	0.00000 0.55740 0.50000 0.34500
H 	H 	-0.00000 0.42300 0.50000 -0.06300
C 	C 	0.44260 0.44260 0.50000 0.41900
H 	H 	0.57700 0.57700 0.50000 -0.06100
C 	C 	0.55740 0.00000 0.50000 0.31400
H 	H 	0.42300 0.00000 0.50000 -0.06000
