data_crystal

_cell_length_a 36.93600
_cell_length_b 7.00810
_cell_length_c 6.21270
_cell_angle_alpha 90.00000
_cell_angle_beta  97.24600
_cell_angle_gamma 90.00000

_symmetry_space_group_name_	'P 1'
_symmetry_space_group_name_H-M	'P 1'

loop_
_symmetry_equiv_pos_as_xyz
  x,y,z

loop_
_atom_site_label
_atom_site_type_symbol
_atom_site_fract_x
_atom_site_fract_y
_atom_site_fract_z
_atom_site_charge
Sm	Sm	0.21990 0.68939 0.52263 2.10200
O 	O 	0.15337 0.74530 0.48990 -0.43300
O 	O 	0.18038 0.66890 0.80970 -0.43100
O 	O 	0.27283 0.53030 0.34840 -0.61400
O 	O 	0.27910 0.83830 0.41010 -0.58100
O 	O 	0.26661 0.66580 0.83780 -0.48700
O 	O 	0.29610 0.39100 0.77490 -0.52800
N 	N 	0.04657 0.68500 0.90400 -0.24700
C 	C 	0.15174 0.70000 0.68340 0.32300
C 	C 	0.11495 0.69500 0.76650 -0.05700
C 	C 	0.11081 0.64190 0.97330 0.02200
H 	H 	0.13110 0.60880 0.07040 0.01900
C 	C 	0.07650 0.63800 0.03770 -0.03900
H 	H 	0.07410 0.60130 0.17900 -0.00300
C 	C 	0.05080 0.75690 0.70700 0.01600
H 	H 	0.03050 0.80340 0.61910 -0.03800
C 	C 	0.08490 0.76320 0.63100 -0.05900
H 	H 	0.08740 0.81170 0.49440 0.05200
C 	C 	0.35990 0.59470 0.94740 0.04200
H 	H 	0.36130 0.54380 0.81040 0.02200
C 	C 	0.39151 0.65700 0.07120 -0.07700
H 	H 	0.41380 0.65040 0.01700 0.03800
C 	C 	0.38947 0.72880 0.27500 -0.03300
H 	H 	0.41070 0.76790 0.36060 0.03600
C 	C 	0.35636 0.74360 0.35390 0.00600
H 	H 	0.35540 0.79390 0.49170 0.01700
C 	C 	0.32464 0.68500 0.23150 -0.09200
C 	C 	0.32635 0.60620 0.02270 -0.11100
C 	C 	0.28983 0.67600 0.33260 0.44900
C 	C 	0.29324 0.54690 0.87030 0.45000
Sm	Sm	0.71990 0.18939 0.52263 2.02900
O 	O 	0.65337 0.24530 0.48990 -0.44100
O 	O 	0.68038 0.16890 0.80970 -0.44200
O 	O 	0.77283 0.03030 0.34840 -0.64300
O 	O 	0.77910 0.33830 0.41010 -0.60900
O 	O 	0.76661 0.16580 0.83780 -0.48400
O 	O 	0.79610 0.89100 0.77490 -0.48400
N 	N 	0.54657 0.18500 0.90400 -0.24800
C 	C 	0.65174 0.20000 0.68340 0.31600
C 	C 	0.61495 0.19500 0.76650 -0.07300
C 	C 	0.61081 0.14190 0.97330 0.01900
H 	H 	0.63110 0.10880 0.07040 0.00900
C 	C 	0.57650 0.13800 0.03770 -0.05000
H 	H 	0.57410 0.10130 0.17900 -0.00700
C 	C 	0.55080 0.25690 0.70700 0.00500
H 	H 	0.53050 0.30340 0.61910 -0.03900
C 	C 	0.58490 0.26320 0.63100 -0.06000
H 	H 	0.58740 0.31170 0.49440 0.04300
C 	C 	0.85990 0.09470 0.94740 0.01700
H 	H 	0.86130 0.04380 0.81040 0.01600
C 	C 	0.89151 0.15700 0.07120 -0.07100
H 	H 	0.91380 0.15040 0.01700 0.01900
C 	C 	0.88947 0.22880 0.27500 -0.06000
H 	H 	0.91070 0.26790 0.36060 0.02700
C 	C 	0.85636 0.24360 0.35390 0.01400
H 	H 	0.85540 0.29390 0.49170 -0.00100
C 	C 	0.82464 0.18500 0.23150 -0.12200
C 	C 	0.82635 0.10620 0.02270 -0.09900
C 	C 	0.78983 0.17600 0.33260 0.46500
C 	C 	0.79324 0.04690 0.87030 0.39200
Sm	Sm	0.78010 0.68939 0.47737 2.10200
O 	O 	0.84663 0.74530 0.51010 -0.42200
O 	O 	0.81962 0.66890 0.19030 -0.43100
O 	O 	0.72717 0.53030 0.65160 -0.61900
O 	O 	0.72090 0.83830 0.58990 -0.58600
O 	O 	0.73339 0.66580 0.16220 -0.48100
O 	O 	0.70390 0.39100 0.22510 -0.51900
N 	N 	0.95343 0.68500 0.09600 -0.29100
C 	C 	0.84826 0.70000 0.31660 0.29300
C 	C 	0.88505 0.69500 0.23350 0.02000
C 	C 	0.88919 0.64190 0.02670 -0.15400
H 	H 	0.86890 0.60880 0.92960 0.09800
C 	C 	0.92350 0.63800 0.96230 0.11000
H 	H 	0.92590 0.60130 0.82100 -0.04700
C 	C 	0.94920 0.75690 0.29300 0.04800
H 	H 	0.96950 0.80340 0.38090 -0.04700
C 	C 	0.91510 0.76320 0.36900 -0.11300
H 	H 	0.91260 0.81170 0.50560 0.07400
C 	C 	0.64010 0.59470 0.05260 -0.13200
H 	H 	0.63870 0.54380 0.18960 0.07800
C 	C 	0.60849 0.65700 0.92880 0.07900
H 	H 	0.58620 0.65040 0.98300 -0.00700
C 	C 	0.61053 0.72880 0.72500 -0.14600
H 	H 	0.58930 0.76790 0.63940 0.07600
C 	C 	0.64364 0.74360 0.64610 0.09600
H 	H 	0.64460 0.79390 0.50830 -0.01600
C 	C 	0.67536 0.68500 0.76850 -0.16100
C 	C 	0.67365 0.60620 0.97730 0.01100
C 	C 	0.71017 0.67600 0.66740 0.47600
C 	C 	0.70676 0.54690 0.12970 0.39300
Sm	Sm	0.28010 0.18939 0.47737 2.02900
O 	O 	0.34663 0.24530 0.51010 -0.43200
O 	O 	0.31962 0.16890 0.19030 -0.44200
O 	O 	0.22717 0.03030 0.65160 -0.64800
O 	O 	0.22090 0.33830 0.58990 -0.61400
O 	O 	0.23339 0.16580 0.16220 -0.47900
O 	O 	0.20390 0.89100 0.22510 -0.47600
N 	N 	0.45343 0.18500 0.09600 -0.29400
C 	C 	0.34826 0.20000 0.31660 0.28700
C 	C 	0.38505 0.19500 0.23350 0.00300
C 	C 	0.38919 0.14190 0.02670 -0.15300
H 	H 	0.36890 0.10880 0.92960 0.08600
C 	C 	0.42350 0.13800 0.96230 0.09500
H 	H 	0.42590 0.10130 0.82100 -0.05200
C 	C 	0.44920 0.25690 0.29300 0.03700
H 	H 	0.46950 0.30340 0.38090 -0.05100
C 	C 	0.41510 0.26320 0.36900 -0.11400
H 	H 	0.41260 0.31170 0.50560 0.06500
C 	C 	0.14010 0.09470 0.05260 -0.15200
H 	H 	0.13870 0.04380 0.18960 0.06900
C 	C 	0.10849 0.15700 0.92880 0.08000
H 	H 	0.08620 0.15040 0.98300 -0.02500
C 	C 	0.11053 0.22880 0.72500 -0.16900
H 	H 	0.08930 0.26790 0.63940 0.06400
C 	C 	0.14364 0.24360 0.64610 0.10200
H 	H 	0.14460 0.29390 0.50830 -0.03300
C 	C 	0.17536 0.18500 0.76850 -0.18900
C 	C 	0.17365 0.10620 0.97730 0.01900
C 	C 	0.21017 0.17600 0.66740 0.49100
C 	C 	0.20676 0.04690 0.12970 0.33800
Cu	Cu	-0.00000 0.69160 -0.00000 0.78800
Cu	Cu	0.50000 0.19160 -0.00000 0.78600
