data_crystal

_cell_length_a 12.58980
_cell_length_b 14.93390
_cell_length_c 19.73900
_cell_angle_alpha 111.35000
_cell_angle_beta  101.66100
_cell_angle_gamma 93.97700

_symmetry_space_group_name_	'P 1'
_symmetry_space_group_name_H-M	'P 1'

loop_
_symmetry_equiv_pos_as_xyz
  x,y,z

loop_
_atom_site_label
_atom_site_type_symbol
_atom_site_fract_x
_atom_site_fract_y
_atom_site_fract_z
_atom_site_charge
Na	Na	0.89430 0.41030 0.42140 0.58500
Na	Na	0.02190 0.02680 0.42640 0.58500
Na	Na	0.62130 0.10840 0.38720 0.57300
Na	Na	0.83050 0.42550 0.13640 0.58000
Na	Na	0.35690 0.46180 0.95280 0.57300
Na	Na	0.05710 0.14530 0.75820 0.55400
Na	Na	0.10570 0.58970 0.57860 0.58400
Na	Na	0.97810 0.97320 0.57360 0.59000
Na	Na	0.37870 0.89160 0.61280 0.57600
Na	Na	0.16950 0.57450 0.86360 0.58000
Na	Na	0.64310 0.53820 0.04720 0.57400
Na	Na	0.94290 0.85470 0.24180 0.56000
Na	Na	0.50000 0.00000 0.50000 0.57600
Fe	Fe	0.34663 0.35335 0.48166 1.26600
Fe	Fe	0.79497 0.31641 0.56353 1.24900
Fe	Fe	0.65337 0.64665 0.51834 1.26600
Fe	Fe	0.20503 0.68359 0.43647 1.25000
Sb	Sb	0.40051 0.49158 0.35593 0.57800
Sb	Sb	0.59949 0.50842 0.64407 0.57800
W 	W 	0.60529 0.37471 0.41946 1.26300
W 	W 	0.45745 0.22825 0.24635 0.96700
W 	W 	0.64618 0.41071 0.26783 1.28800
W 	W 	0.59635 0.66472 0.34157 1.01500
W 	W 	0.45035 0.52270 0.17065 1.26900
W 	W 	0.33286 0.68093 0.29261 0.98300
W 	W 	0.12020 0.47793 0.26567 1.22900
W 	W 	0.23922 0.31884 0.14597 0.98500
W 	W 	0.19416 0.28243 0.29355 1.00200
W 	W 	0.39471 0.62529 0.58054 1.26300
W 	W 	0.54255 0.77175 0.75365 0.97900
W 	W 	0.35382 0.58929 0.73217 1.28800
W 	W 	0.40365 0.33528 0.65843 1.01100
W 	W 	0.54965 0.47730 0.82935 1.26900
W 	W 	0.66714 0.31907 0.70739 0.97400
W 	W 	0.87980 0.52207 0.73433 1.23000
W 	W 	0.76078 0.68116 0.85403 0.99100
W 	W 	0.80584 0.71757 0.70645 1.00800
C 	C 	0.15370 0.23430 0.47750 0.19600
C 	C 	0.23050 0.16380 0.44240 0.21600
C 	C 	0.91780 0.18140 0.60260 0.24500
C 	C 	0.85220 0.12570 0.52070 0.22400
C 	C 	0.84630 0.76570 0.52250 0.19900
C 	C 	0.76950 0.83620 0.55760 0.21400
C 	C 	0.08220 0.81860 0.39740 0.24700
C 	C 	0.14780 0.87430 0.47930 0.22600
O 	O 	0.70010 0.33300 0.47670 -0.54300
O 	O 	0.48090 0.35910 0.44740 -0.52600
O 	O 	0.63890 0.50420 0.46630 -0.52500
O 	O 	0.70440 0.38400 0.35220 -0.51600
O 	O 	0.55260 0.23980 0.33540 -0.49000
O 	O 	0.50230 0.39640 0.32210 -0.42200
O 	O 	0.32900 0.22950 0.28360 -0.45100
O 	O 	0.57720 0.27580 0.21500 -0.45000
O 	O 	0.36890 0.27280 0.17270 -0.43700
O 	O 	0.75670 0.40210 0.22840 -0.44900
O 	O 	0.66390 0.54620 0.32290 -0.45800
O 	O 	0.53710 0.43420 0.19340 -0.47000
O 	O 	0.42820 0.34310 0.57360 -0.48000
O 	O 	0.48410 0.74540 0.33080 -0.42100
O 	O 	0.57470 0.62220 0.23210 -0.43900
O 	O 	0.43350 0.56170 0.29170 -0.41200
O 	O 	0.46700 0.51320 0.08340 -0.49700
O 	O 	0.32280 0.42920 0.14140 -0.47300
O 	O 	0.36380 0.62630 0.19190 -0.44300
O 	O 	0.67670 0.30360 0.61210 -0.47600
O 	O 	0.20830 0.57930 0.25270 -0.46000
O 	O 	0.98950 0.50470 0.24370 -0.42600
O 	O 	0.83310 0.45200 0.63210 -0.49000
O 	O 	0.12280 0.39630 0.16290 -0.45700
O 	O 	0.08120 0.36090 0.28230 -0.44400
O 	O 	0.27410 0.40770 0.27260 -0.40600
O 	O 	0.16860 0.23650 0.18360 -0.45300
O 	O 	0.25950 0.35970 0.38940 -0.47900
O 	O 	0.31840 0.20410 0.43700 -0.35900
O 	O 	0.19680 0.32460 0.50420 -0.33600
O 	O 	0.90180 0.26910 0.63110 -0.38300
O 	O 	0.78110 0.17230 0.49660 -0.41400
O 	O 	0.92920 0.33780 0.51820 -0.29300
O 	O 	0.86860 0.04370 0.48520 -0.34000
O 	O 	0.20070 0.07540 0.42140 -0.30500
O 	O 	0.06160 0.20250 0.47820 -0.26900
O 	O 	0.97790 0.13880 0.63330 -0.38900
O 	O 	0.91180 0.54190 0.54020 -0.23900
O 	O 	0.62420 0.95560 0.41660 -0.25600
O 	O 	0.66670 0.37710 0.03830 -0.30600
O 	O 	0.75890 0.57910 0.16940 -0.29400
O 	O 	0.52590 0.15230 0.48590 -0.26800
O 	O 	0.96510 0.02820 0.30350 -0.33000
O 	O 	0.29990 0.66700 0.52330 -0.54200
O 	O 	0.51910 0.64090 0.55260 -0.52600
O 	O 	0.36110 0.49580 0.53370 -0.52600
O 	O 	0.29560 0.61600 0.64780 -0.51500
O 	O 	0.44740 0.76020 0.66460 -0.48700
O 	O 	0.49770 0.60360 0.67790 -0.42300
O 	O 	0.67100 0.77050 0.71640 -0.44900
O 	O 	0.42280 0.72420 0.78500 -0.44600
O 	O 	0.63110 0.72720 0.82730 -0.43500
O 	O 	0.24330 0.59790 0.77160 -0.44700
O 	O 	0.33610 0.45380 0.67710 -0.45800
O 	O 	0.46290 0.56580 0.80660 -0.46900
O 	O 	0.57180 0.65690 0.42640 -0.48100
O 	O 	0.51590 0.25460 0.66920 -0.42600
O 	O 	0.42530 0.37780 0.76790 -0.44200
O 	O 	0.56650 0.43830 0.70830 -0.41100
O 	O 	0.53300 0.48680 0.91660 -0.50000
O 	O 	0.67720 0.57080 0.85860 -0.47300
O 	O 	0.63620 0.37370 0.80810 -0.44700
O 	O 	0.32330 0.69640 0.38790 -0.47500
O 	O 	0.79170 0.42070 0.74730 -0.46100
O 	O 	0.01050 0.49530 0.75630 -0.42700
O 	O 	0.16690 0.54800 0.36790 -0.49000
O 	O 	0.87720 0.60370 0.83710 -0.45700
O 	O 	0.91880 0.63910 0.71770 -0.44300
O 	O 	0.72590 0.59230 0.72740 -0.40700
O 	O 	0.83140 0.76350 0.81640 -0.44700
O 	O 	0.74050 0.64030 0.61060 -0.48000
O 	O 	0.68160 0.79590 0.56300 -0.35400
O 	O 	0.80320 0.67540 0.49580 -0.33600
O 	O 	0.09820 0.73090 0.36890 -0.38000
O 	O 	0.21890 0.82770 0.50340 -0.40700
O 	O 	0.07080 0.66220 0.48180 -0.29200
O 	O 	0.13140 0.95630 0.51480 -0.31200
O 	O 	0.79930 0.92460 0.57860 -0.28500
O 	O 	0.93840 0.79750 0.52180 -0.26600
O 	O 	0.02210 0.86120 0.36670 -0.37000
O 	O 	0.08820 0.45810 0.45980 -0.24000
O 	O 	0.37580 0.04440 0.58340 -0.28800
O 	O 	0.33330 0.62290 0.96170 -0.30300
O 	O 	0.24110 0.42090 0.83060 -0.29900
O 	O 	0.47410 0.84770 0.51410 -0.25500
O 	O 	0.03490 0.97180 0.69650 -0.30700
