data_crystal

_cell_length_a 15.19020
_cell_length_b 17.50960
_cell_length_c 17.50960
_cell_angle_alpha 90.00000
_cell_angle_beta  90.00000
_cell_angle_gamma 90.00000

_symmetry_space_group_name_	'P 1'
_symmetry_space_group_name_H-M	'P 1'

loop_
_symmetry_equiv_pos_as_xyz
  x,y,z

loop_
_atom_site_label
_atom_site_type_symbol
_atom_site_fract_x
_atom_site_fract_y
_atom_site_fract_z
_atom_site_charge
Co	Co	0.96782 0.13965 0.10233 1.18000
Co	Co	0.03218 0.10233 0.86035 1.18000
Co	Co	0.25000 0.14943 0.85057 1.17700
Co	Co	0.53218 0.89767 0.86035 1.18000
Co	Co	0.75000 0.85057 0.85057 1.17700
Co	Co	0.03218 0.89767 0.13965 1.18000
Co	Co	0.96782 0.86035 0.89767 1.18000
Co	Co	0.46782 0.13965 0.89767 1.18000
Co	Co	0.53218 0.10233 0.13965 1.18000
Co	Co	0.46782 0.86035 0.10233 1.18000
Co	Co	0.25000 0.85057 0.14943 1.17700
Co	Co	0.75000 0.14943 0.14943 1.17700
H 	H 	0.95500 0.66370 0.13030 0.02400
H 	H 	0.28140 0.76780 0.91980 0.19100
H 	H 	0.77370 0.10930 0.98310 -0.01700
H 	H 	0.90590 0.96420 0.25450 -0.01000
H 	H 	0.65830 0.01300 0.73480 0.17700
H 	H 	0.28350 0.86100 0.38960 0.02700
H 	H 	0.62930 0.61610 0.04240 0.07100
H 	H 	0.15830 0.98700 0.73480 0.17700
H 	H 	0.71860 0.91980 0.23220 0.19100
H 	H 	0.45500 0.66370 0.86970 0.02400
H 	H 	0.28140 0.23220 0.08020 0.19100
H 	H 	0.07800 0.11740 0.46480 0.06000
H 	H 	0.88290 0.71420 0.83900 -0.01700
H 	H 	0.75910 0.00320 0.24430 0.16900
H 	H 	0.24090 0.75570 0.00320 0.16900
H 	H 	0.77370 0.89070 0.01690 -0.01700
H 	H 	0.11710 0.16100 0.71420 -0.01700
H 	H 	0.71650 0.38960 0.13900 0.02700
H 	H 	0.62930 0.38390 0.95760 0.07100
H 	H 	0.74090 0.24430 0.00320 0.16900
H 	H 	0.72630 0.98310 0.10930 -0.01700
H 	H 	0.12930 0.38390 0.04240 0.07100
H 	H 	0.90590 0.03580 0.74550 -0.01000
H 	H 	0.34170 0.73480 0.98700 0.17700
H 	H 	0.87070 0.95760 0.38390 0.07100
H 	H 	0.92200 0.46480 0.88260 0.06000
H 	H 	0.91370 0.58340 0.82740 0.07300
H 	H 	0.21650 0.38960 0.86100 0.02700
H 	H 	0.88290 0.28580 0.16100 -0.01700
H 	H 	0.32210 0.11630 0.48210 0.05800
H 	H 	0.45500 0.33630 0.13030 0.02400
H 	H 	0.92200 0.53520 0.11740 0.06000
H 	H 	0.12930 0.61610 0.95760 0.07100
H 	H 	0.21860 0.91980 0.76780 0.19100
H 	H 	0.22630 0.98310 0.89070 -0.01700
H 	H 	0.72630 0.01690 0.89070 -0.01700
H 	H 	0.09410 0.25450 0.03580 -0.01000
H 	H 	0.37070 0.04240 0.38390 0.07100
H 	H 	0.61710 0.83900 0.71420 -0.01700
H 	H 	0.78140 0.23220 0.91980 0.19100
H 	H 	0.59410 0.25450 0.96420 -0.01000
H 	H 	0.32210 0.88370 0.51790 0.05800
H 	H 	0.40590 0.96420 0.74550 -0.01000
H 	H 	0.38290 0.28580 0.83900 -0.01700
H 	H 	0.28350 0.13900 0.61040 0.02700
H 	H 	0.61710 0.16100 0.28580 -0.01700
H 	H 	0.04500 0.86970 0.66370 0.02400
H 	H 	0.91370 0.41660 0.17260 0.07300
H 	H 	0.08630 0.17260 0.58340 0.07300
H 	H 	0.34170 0.26520 0.01300 0.17700
H 	H 	0.22630 0.01690 0.10930 -0.01700
H 	H 	0.67790 0.48210 0.88370 0.05800
H 	H 	0.84170 0.73480 0.01300 0.17700
H 	H 	0.84170 0.26520 0.98700 0.17700
H 	H 	0.42200 0.46480 0.11740 0.06000
H 	H 	0.38290 0.71420 0.16100 -0.01700
H 	H 	0.54500 0.13030 0.66370 0.02400
H 	H 	0.65830 0.98700 0.26520 0.17700
H 	H 	0.07800 0.88260 0.53520 0.06000
H 	H 	0.27370 0.89070 0.98310 -0.01700
H 	H 	0.54500 0.86970 0.33630 0.02400
H 	H 	0.21860 0.08020 0.23220 0.19100
H 	H 	0.67790 0.51790 0.11630 0.05800
H 	H 	0.41370 0.58340 0.17260 0.07300
H 	H 	0.24090 0.24430 0.99680 0.16900
H 	H 	0.74090 0.75570 0.99680 0.16900
H 	H 	0.82210 0.88370 0.48210 0.05800
H 	H 	0.40590 0.03580 0.25450 -0.01000
H 	H 	0.15830 0.01300 0.26520 0.17700
H 	H 	0.78350 0.13900 0.38960 0.02700
H 	H 	0.42200 0.53520 0.88260 0.06000
H 	H 	0.87070 0.04240 0.61610 0.07100
H 	H 	0.57800 0.88260 0.46480 0.06000
H 	H 	0.78350 0.86100 0.61040 0.02700
H 	H 	0.08630 0.82740 0.41660 0.07300
H 	H 	0.71650 0.61040 0.86100 0.02700
H 	H 	0.25910 0.00320 0.75570 0.16900
H 	H 	0.57800 0.11740 0.53520 0.06000
H 	H 	0.11710 0.83900 0.28580 -0.01700
H 	H 	0.17790 0.48210 0.11630 0.05800
H 	H 	0.25910 0.99680 0.24430 0.16900
H 	H 	0.78140 0.76780 0.08020 0.19100
H 	H 	0.04500 0.13030 0.33630 0.02400
H 	H 	0.95500 0.33630 0.86970 0.02400
H 	H 	0.71860 0.08020 0.76780 0.19100
H 	H 	0.17790 0.51790 0.88370 0.05800
H 	H 	0.59410 0.74550 0.03580 -0.01000
H 	H 	0.21650 0.61040 0.13900 0.02700
H 	H 	0.37070 0.95760 0.61610 0.07100
H 	H 	0.41370 0.41660 0.82740 0.07300
H 	H 	0.58630 0.82740 0.58340 0.07300
H 	H 	0.75910 0.99680 0.75570 0.16900
H 	H 	0.09410 0.74550 0.96420 -0.01000
H 	H 	0.27370 0.10930 0.01690 -0.01700
H 	H 	0.82210 0.11630 0.51790 0.05800
H 	H 	0.58630 0.17260 0.41660 0.07300
C 	C 	0.63290 0.48050 0.12070 -0.09700
C 	C 	0.09610 0.04960 0.12780 0.23800
C 	C 	0.57860 0.36520 0.93200 -0.12900
C 	C 	0.41160 0.13230 0.65230 -0.12400
C 	C 	0.58840 0.65230 0.86770 -0.12400
C 	C 	0.08840 0.34770 0.86770 -0.12400
C 	C 	0.11580 0.26570 0.85790 0.39800
C 	C 	0.55700 0.71240 0.06440 0.07200
C 	C 	0.04800 0.85580 0.38450 -0.13000
C 	C 	0.42140 0.06800 0.36520 -0.12900
C 	C 	0.41160 0.86770 0.34770 -0.12400
C 	C 	0.50150 0.62740 0.87210 0.04300
C 	C 	0.45290 0.11590 0.49710 0.03500
C 	C 	0.48180 0.44910 0.12000 -0.10400
C 	C 	0.15670 0.40380 0.86810 0.02800
C 	C 	0.47420 0.10890 0.41430 0.06000
C 	C 	0.93440 0.69460 0.86270 0.07400
C 	C 	0.04710 0.50290 0.88410 0.03500
C 	C 	0.13290 0.51950 0.12070 -0.09700
C 	C 	0.94300 0.93560 0.28760 0.07200
C 	C 	0.06560 0.86270 0.30540 0.07400
C 	C 	0.40390 0.12780 0.04960 0.23800
C 	C 	0.98180 0.44910 0.88000 -0.10400
C 	C 	0.02580 0.58570 0.89110 0.06000
C 	C 	0.49850 0.12790 0.62740 0.04300
C 	C 	0.45290 0.88410 0.50290 0.03500
C 	C 	0.67820 0.00290 0.85440 0.14500
C 	C 	0.61580 0.73430 0.85790 0.39800
C 	C 	0.50150 0.37260 0.12790 0.04300
C 	C 	0.29380 0.22990 0.02540 -0.52600
C 	C 	0.98180 0.55090 0.12000 -0.10400
C 	C 	0.84330 0.86810 0.59620 0.02800
C 	C 	0.44300 0.93560 0.71240 0.07200
C 	C 	0.61580 0.26570 0.14210 0.39800
C 	C 	0.00150 0.62740 0.12790 0.04300
C 	C 	0.86710 0.12070 0.48050 -0.09700
C 	C 	0.34330 0.13190 0.59620 0.02800
C 	C 	0.94300 0.06440 0.71240 0.07200
C 	C 	0.01820 0.12000 0.44910 -0.10400
C 	C 	0.48180 0.55090 0.88000 -0.10400
C 	C 	0.07860 0.63480 0.93200 -0.13000
C 	C 	0.13290 0.48050 0.87930 -0.09700
C 	C 	0.04800 0.14420 0.61550 -0.13000
C 	C 	0.88420 0.85790 0.73430 0.39800
C 	C 	0.99850 0.87210 0.62740 0.04300
C 	C 	0.45200 0.61550 0.14420 -0.13000
C 	C 	0.11580 0.73430 0.14210 0.39800
C 	C 	0.90390 0.12780 0.95040 0.23800
C 	C 	0.56560 0.86270 0.69460 0.07400
C 	C 	0.52580 0.58570 0.10890 0.06000
C 	C 	0.51820 0.12000 0.55090 -0.10400
C 	C 	0.04710 0.49710 0.11590 0.03500
C 	C 	0.52580 0.41430 0.89110 0.06000
C 	C 	0.54800 0.85580 0.61550 -0.13000
C 	C 	0.43440 0.69460 0.13730 0.07400
C 	C 	0.55700 0.28760 0.93560 0.07200
C 	C 	0.43440 0.30540 0.86270 0.07400
C 	C 	0.95200 0.61550 0.85580 -0.13000
C 	C 	0.97420 0.89110 0.41430 0.06000
C 	C 	0.32180 0.14560 0.00290 0.14500
C 	C 	0.20620 0.97460 0.77010 -0.52600
C 	C 	0.17820 0.99710 0.85440 0.14500
C 	C 	0.92140 0.06800 0.63480 -0.13000
C 	C 	0.20620 0.02540 0.22990 -0.52600
C 	C 	0.95200 0.38450 0.14420 -0.13000
C 	C 	0.54800 0.14420 0.38450 -0.13000
C 	C 	0.95290 0.11590 0.50290 0.03500
C 	C 	0.38420 0.85790 0.26570 0.39800
C 	C 	0.54710 0.50290 0.11590 0.03500
C 	C 	0.82180 0.14560 0.99710 0.14500
C 	C 	0.65670 0.59620 0.86810 0.02800
C 	C 	0.36710 0.87930 0.48050 -0.09700
C 	C 	0.59610 0.04960 0.87220 0.23800
C 	C 	0.93440 0.30540 0.13730 0.07400
C 	C 	0.86710 0.87930 0.51950 -0.09700
C 	C 	0.36710 0.12070 0.51950 -0.09700
C 	C 	0.05700 0.28760 0.06440 0.07200
C 	C 	0.95290 0.88410 0.49710 0.03500
C 	C 	0.05700 0.71240 0.93560 0.07200
C 	C 	0.32180 0.85440 0.99710 0.14500
C 	C 	0.79380 0.77010 0.02540 -0.52600
C 	C 	0.08840 0.65230 0.13230 -0.12400
C 	C 	0.56560 0.13730 0.30540 0.07400
C 	C 	0.44300 0.06440 0.28760 0.07200
C 	C 	0.91160 0.86770 0.65230 -0.12400
C 	C 	0.51820 0.88000 0.44910 -0.10400
C 	C 	0.40390 0.87220 0.95040 0.23800
C 	C 	0.63290 0.51950 0.87930 -0.09700
C 	C 	0.92140 0.93200 0.36520 -0.13000
C 	C 	0.57860 0.63480 0.06800 -0.12900
C 	C 	0.09610 0.95040 0.87220 0.23800
C 	C 	0.58840 0.34770 0.13230 -0.12400
C 	C 	0.82180 0.85440 0.00290 0.14500
C 	C 	0.06560 0.13730 0.69460 0.07400
C 	C 	0.02580 0.41430 0.10890 0.06000
C 	C 	0.00150 0.37260 0.87210 0.04300
C 	C 	0.70620 0.02540 0.77010 -0.52600
C 	C 	0.29380 0.77010 0.97460 -0.52600
C 	C 	0.70620 0.97460 0.22990 -0.52600
C 	C 	0.99850 0.12790 0.37260 0.04300
C 	C 	0.59610 0.95040 0.12780 0.23800
C 	C 	0.17820 0.00290 0.14560 0.14500
C 	C 	0.15670 0.59620 0.13190 0.02800
C 	C 	0.90390 0.87220 0.04960 0.23800
C 	C 	0.79380 0.22990 0.97460 -0.52600
C 	C 	0.34330 0.86810 0.40380 0.02800
C 	C 	0.97420 0.10890 0.58570 0.06000
C 	C 	0.84330 0.13190 0.40380 0.02800
C 	C 	0.49850 0.87210 0.37260 0.04300
C 	C 	0.01820 0.88000 0.55090 -0.10400
C 	C 	0.67820 0.99710 0.14560 0.14500
C 	C 	0.65670 0.40380 0.13190 0.02800
C 	C 	0.07860 0.36520 0.06800 -0.13000
C 	C 	0.42140 0.93200 0.63480 -0.12900
C 	C 	0.38420 0.14210 0.73430 0.39800
C 	C 	0.45200 0.38450 0.85580 -0.13000
C 	C 	0.88420 0.14210 0.26570 0.39800
C 	C 	0.47420 0.89110 0.58570 0.06000
C 	C 	0.91160 0.13230 0.34770 -0.12400
C 	C 	0.54710 0.49710 0.88410 0.03500
N 	N 	0.01400 0.90040 0.25730 -0.24000
N 	N 	0.48600 0.74270 0.09960 -0.24000
N 	N 	0.01400 0.09960 0.74270 -0.24000
N 	N 	0.51400 0.90040 0.74270 -0.24000
N 	N 	0.48600 0.25730 0.90040 -0.24000
N 	N 	0.98600 0.74270 0.90040 -0.24000
N 	N 	0.98600 0.25730 0.09960 -0.24000
N 	N 	0.51400 0.09960 0.25730 -0.24000
O 	O 	0.84100 0.13860 0.07490 -0.55300
O 	O 	0.39790 0.88080 0.87950 -0.37200
O 	O 	0.69330 0.74980 0.85150 -0.48900
O 	O 	0.97710 0.87770 0.01670 -0.45900
O 	O 	0.02290 0.98330 0.87770 -0.45900
O 	O 	0.05080 0.21870 0.85960 -0.44400
O 	O 	0.94920 0.14040 0.21870 -0.44400
O 	O 	0.89790 0.88080 0.12050 -0.37200
O 	O 	0.34100 0.13860 0.92510 -0.55300
O 	O 	0.89790 0.11920 0.87950 -0.37200
O 	O 	0.80670 0.85150 0.74980 -0.48900
O 	O 	0.65900 0.07490 0.13860 -0.55300
O 	O 	0.84100 0.86140 0.92510 -0.55300
O 	O 	0.60210 0.87950 0.11920 -0.37200
O 	O 	0.47710 0.87770 0.98330 -0.45900
O 	O 	0.55080 0.78130 0.85960 -0.44400
O 	O 	0.52290 0.01670 0.87770 -0.45900
O 	O 	0.65900 0.92510 0.86140 -0.55300
O 	O 	0.52290 0.98330 0.12230 -0.45900
O 	O 	0.10210 0.87950 0.88080 -0.37200
O 	O 	0.94920 0.85960 0.78130 -0.44400
O 	O 	0.10210 0.12050 0.11920 -0.37200
O 	O 	0.97710 0.12230 0.98330 -0.45900
O 	O 	0.02290 0.01670 0.12230 -0.45900
O 	O 	0.44920 0.14040 0.78130 -0.44400
O 	O 	0.44920 0.85960 0.21870 -0.44400
O 	O 	0.55080 0.21870 0.14040 -0.44400
O 	O 	0.60210 0.12050 0.88080 -0.37200
O 	O 	0.19330 0.74980 0.14850 -0.48900
O 	O 	0.30670 0.14850 0.74980 -0.48900
O 	O 	0.80670 0.14850 0.25020 -0.48900
O 	O 	0.39790 0.11920 0.12050 -0.37200
O 	O 	0.69330 0.25020 0.14850 -0.48900
O 	O 	0.05080 0.78130 0.14040 -0.44400
O 	O 	0.19330 0.25020 0.85150 -0.48900
O 	O 	0.34100 0.86140 0.07490 -0.55300
O 	O 	0.47710 0.12230 0.01670 -0.45900
O 	O 	0.15900 0.07490 0.86140 -0.55300
O 	O 	0.30670 0.85150 0.25020 -0.48900
O 	O 	0.15900 0.92510 0.13860 -0.55300
