data_crystal

_cell_length_a 15.08830
_cell_length_b 17.53100
_cell_length_c 17.53100
_cell_angle_alpha 90.00000
_cell_angle_beta  90.00000
_cell_angle_gamma 90.00000

_symmetry_space_group_name_	'P 1'
_symmetry_space_group_name_H-M	'P 1'

loop_
_symmetry_equiv_pos_as_xyz
  x,y,z

loop_
_atom_site_label
_atom_site_type_symbol
_atom_site_fract_x
_atom_site_fract_y
_atom_site_fract_z
_atom_site_charge
Co	Co	0.52995 0.59950 0.64081 1.17800
Co	Co	0.97005 0.64081 0.59950 1.17800
Co	Co	0.47005 0.35919 0.59950 1.17800
Co	Co	0.75000 0.64879 0.64879 1.17500
Co	Co	0.25000 0.64879 0.35121 1.17500
Co	Co	0.52995 0.40050 0.35919 1.17800
Co	Co	0.02995 0.40050 0.64081 1.17800
Co	Co	0.47005 0.64081 0.40050 1.17800
Co	Co	0.02995 0.59950 0.35919 1.17800
Co	Co	0.97005 0.35919 0.40050 1.17800
Co	Co	0.75000 0.35121 0.35121 1.17500
Co	Co	0.25000 0.35121 0.64879 1.17500
H 	H 	0.59300 0.33550 0.08370 0.07700
H 	H 	0.58290 0.39050 0.96050 0.05600
H 	H 	0.67700 0.98310 0.37710 0.05600
H 	H 	0.95350 0.16710 0.62840 0.02700
H 	H 	0.84240 0.23840 0.51590 0.18800
H 	H 	0.25890 0.49740 0.74200 0.18000
H 	H 	0.22030 0.41870 0.27220 0.20200
H 	H 	0.71460 0.88590 0.63680 0.02900
H 	H 	0.34240 0.23840 0.48410 0.18800
H 	H 	0.41710 0.96050 0.60950 0.05600
H 	H 	0.74110 0.25800 0.49740 0.18000
H 	H 	0.28540 0.36320 0.88590 0.02900
H 	H 	0.72030 0.58130 0.27220 0.20200
H 	H 	0.78540 0.36320 0.11410 0.02900
H 	H 	0.15760 0.51590 0.76160 0.18800
H 	H 	0.90700 0.91630 0.66450 0.07700
H 	H 	0.15760 0.48410 0.23840 0.18800
H 	H 	0.17700 0.98310 0.62290 0.05600
H 	H 	0.59300 0.66450 0.91630 0.07700
H 	H 	0.71460 0.11410 0.36320 0.02900
H 	H 	0.04650 0.37160 0.16710 0.02700
H 	H 	0.77970 0.27220 0.58130 0.20200
H 	H 	0.77060 0.60980 0.48420 -0.02900
H 	H 	0.40170 0.53830 0.75690 -0.01500
H 	H 	0.90170 0.53830 0.24310 -0.01500
H 	H 	0.62220 0.34890 0.21120 -0.02000
H 	H 	0.65760 0.48410 0.76160 0.18800
H 	H 	0.40170 0.46170 0.24310 -0.01500
H 	H 	0.82300 0.37710 0.98310 0.05600
H 	H 	0.59830 0.75690 0.46170 -0.01500
H 	H 	0.84240 0.76160 0.48410 0.18800
H 	H 	0.27060 0.60980 0.51580 -0.02900
H 	H 	0.09830 0.75690 0.53830 -0.01500
H 	H 	0.17700 0.01690 0.37710 0.05600
H 	H 	0.54650 0.37160 0.83290 0.02700
H 	H 	0.13160 0.11470 0.45570 0.07400
H 	H 	0.87780 0.78880 0.65110 -0.02000
H 	H 	0.82300 0.62290 0.01690 0.05600
H 	H 	0.27060 0.39020 0.48420 -0.02900
H 	H 	0.36840 0.45570 0.11470 0.07400
H 	H 	0.45350 0.83290 0.62840 0.02700
H 	H 	0.91710 0.96050 0.39050 0.05600
H 	H 	0.63160 0.88530 0.45570 0.07400
H 	H 	0.32300 0.37710 0.01690 0.05600
H 	H 	0.21460 0.88590 0.36320 0.02900
H 	H 	0.32300 0.62290 0.98310 0.05600
H 	H 	0.09300 0.66450 0.08370 0.07700
H 	H 	0.72030 0.41870 0.72780 0.20200
H 	H 	0.72940 0.51580 0.39020 -0.02900
H 	H 	0.04650 0.62840 0.83290 0.02700
H 	H 	0.27970 0.27220 0.41870 0.20200
H 	H 	0.13160 0.88530 0.54430 0.07400
H 	H 	0.08290 0.39050 0.03950 0.05600
H 	H 	0.22030 0.58130 0.72780 0.20200
H 	H 	0.95350 0.83290 0.37160 0.02700
H 	H 	0.75890 0.49740 0.25800 0.18000
H 	H 	0.54650 0.62840 0.16710 0.02700
H 	H 	0.75890 0.50260 0.74200 0.18000
H 	H 	0.37780 0.78880 0.34890 -0.02000
H 	H 	0.21460 0.11410 0.63680 0.02900
H 	H 	0.58290 0.60950 0.03950 0.05600
H 	H 	0.08290 0.60950 0.96050 0.05600
H 	H 	0.62220 0.65110 0.78880 -0.02000
H 	H 	0.40700 0.08370 0.66450 0.07700
H 	H 	0.27970 0.72780 0.58130 0.20200
H 	H 	0.59830 0.24310 0.53830 -0.01500
H 	H 	0.90170 0.46170 0.75690 -0.01500
H 	H 	0.87780 0.21120 0.34890 -0.02000
H 	H 	0.28540 0.63680 0.11410 0.02900
H 	H 	0.78540 0.63680 0.88590 0.02900
H 	H 	0.37780 0.21120 0.65110 -0.02000
H 	H 	0.74110 0.74200 0.50260 0.18000
H 	H 	0.90700 0.08370 0.33550 0.07700
H 	H 	0.25890 0.50260 0.25800 0.18000
H 	H 	0.40700 0.91630 0.33550 0.07700
H 	H 	0.09300 0.33550 0.91630 0.07700
H 	H 	0.34240 0.76160 0.51590 0.18800
H 	H 	0.45350 0.16710 0.37160 0.02700
H 	H 	0.67700 0.01690 0.62290 0.05600
H 	H 	0.24110 0.74200 0.49740 0.18000
H 	H 	0.86840 0.54430 0.11470 0.07400
H 	H 	0.41710 0.03950 0.39050 0.05600
H 	H 	0.12220 0.65110 0.21120 -0.02000
H 	H 	0.24110 0.25800 0.50260 0.18000
H 	H 	0.36840 0.54430 0.88530 0.07400
H 	H 	0.09830 0.24310 0.46170 -0.01500
H 	H 	0.65760 0.51590 0.23840 0.18800
H 	H 	0.77970 0.72780 0.41870 0.20200
H 	H 	0.12220 0.34890 0.78880 -0.02000
H 	H 	0.91710 0.03950 0.60950 0.05600
H 	H 	0.77060 0.39020 0.51580 -0.02900
H 	H 	0.22940 0.48420 0.39020 -0.02900
H 	H 	0.72940 0.48420 0.60980 -0.02900
H 	H 	0.22940 0.51580 0.60980 -0.02900
H 	H 	0.86840 0.45570 0.88530 0.07400
H 	H 	0.63160 0.11470 0.54430 0.07400
C 	C 	0.06870 0.36960 0.80840 0.08400
C 	C 	0.02260 0.61560 0.94610 -0.09200
C 	C 	0.99930 0.13000 0.62620 0.03200
C 	C 	0.79340 0.72650 0.47330 -0.56700
C 	C 	0.13160 0.02070 0.62280 -0.08800
C 	C 	0.29340 0.72650 0.52670 -0.56700
C 	C 	0.95610 0.61378 0.00141 0.02200
C 	C 	0.79340 0.27350 0.52670 -0.56700
C 	C 	0.94760 0.11510 0.36240 -0.14200
C 	C 	0.82020 0.35420 0.50389 0.18000
C 	C 	0.63160 0.02070 0.37720 -0.08800
C 	C 	0.43130 0.80840 0.36960 0.08400
C 	C 	0.00070 0.62620 0.87000 0.03200
C 	C 	0.97740 0.94610 0.38440 -0.09200
C 	C 	0.05240 0.63760 0.11510 -0.14200
C 	C 	0.09771 0.55159 0.62415 0.22100
C 	C 	0.92090 0.56790 0.13322 -0.13900
C 	C 	0.05240 0.36240 0.88490 -0.14200
C 	C 	0.70660 0.47330 0.72650 -0.56700
C 	C 	0.42090 0.43210 0.13322 -0.13900
C 	C 	0.09771 0.44841 0.37585 0.22100
C 	C 	0.45610 0.38622 0.00141 0.02200
C 	C 	0.58690 0.15294 0.36640 -0.11500
C 	C 	0.65440 0.90099 0.63200 0.02300
C 	C 	0.89020 0.35661 0.23523 0.36900
C 	C 	0.95610 0.38622 0.99859 0.02200
C 	C 	0.89020 0.64339 0.76477 0.36900
C 	C 	0.34560 0.36800 0.90099 0.02300
C 	C 	0.97740 0.05390 0.61560 -0.09200
C 	C 	0.59771 0.55159 0.37585 0.22100
C 	C 	0.57910 0.86678 0.43210 -0.13900
C 	C 	0.02260 0.38440 0.05390 -0.09200
C 	C 	0.91310 0.63360 0.84706 -0.11500
C 	C 	0.52260 0.61560 0.05390 -0.09200
C 	C 	0.47740 0.05390 0.38440 -0.09200
C 	C 	0.36840 0.37720 0.97930 -0.08800
C 	C 	0.40229 0.37585 0.44841 0.22100
C 	C 	0.06870 0.63040 0.19160 0.08400
C 	C 	0.41310 0.36640 0.84706 -0.11500
C 	C 	0.32020 0.35420 0.49611 0.18000
C 	C 	0.70660 0.52670 0.27350 -0.56700
C 	C 	0.63160 0.97930 0.62280 -0.08800
C 	C 	0.00070 0.37380 0.13000 0.03200
C 	C 	0.52310 0.08342 0.60557 0.07000
C 	C 	0.45610 0.61378 0.99859 0.02200
C 	C 	0.20660 0.47330 0.27350 -0.56700
C 	C 	0.44760 0.11510 0.63760 -0.14200
C 	C 	0.97690 0.39443 0.91658 0.07000
C 	C 	0.99930 0.87000 0.37380 0.03200
C 	C 	0.44130 0.56447 0.78994 0.08300
C 	C 	0.55870 0.78994 0.43553 0.08300
C 	C 	0.13160 0.97930 0.37720 -0.08800
C 	C 	0.20660 0.52670 0.72650 -0.56700
C 	C 	0.07910 0.86678 0.56790 -0.13900
C 	C 	0.92090 0.43210 0.86678 -0.13900
C 	C 	0.04390 0.99859 0.61378 0.02200
C 	C 	0.54390 0.99859 0.38622 0.02200
C 	C 	0.55240 0.63760 0.88490 -0.14200
C 	C 	0.57910 0.13322 0.56790 -0.13900
C 	C 	0.04390 0.00141 0.38622 0.02200
C 	C 	0.59771 0.44841 0.62415 0.22100
C 	C 	0.49930 0.87000 0.62620 0.03100
C 	C 	0.47740 0.94610 0.61560 -0.09200
C 	C 	0.15440 0.90099 0.36800 0.02300
C 	C 	0.05870 0.78994 0.56447 0.08300
C 	C 	0.39020 0.64339 0.23523 0.36900
C 	C 	0.55240 0.36240 0.11510 -0.14200
C 	C 	0.94130 0.43553 0.78994 0.08300
C 	C 	0.41310 0.63360 0.15294 -0.11500
C 	C 	0.56870 0.63040 0.80840 0.08400
C 	C 	0.54390 0.00141 0.61378 0.02200
C 	C 	0.90229 0.62415 0.44841 0.22100
C 	C 	0.29340 0.27350 0.47330 -0.56700
C 	C 	0.86840 0.37720 0.02070 -0.08800
C 	C 	0.07910 0.13322 0.43210 -0.13900
C 	C 	0.47690 0.39443 0.08342 0.07000
C 	C 	0.93130 0.80840 0.63040 0.08400
C 	C 	0.86840 0.62280 0.97930 -0.08800
C 	C 	0.15440 0.09901 0.63200 0.02300
C 	C 	0.02310 0.08342 0.39443 0.07000
C 	C 	0.17980 0.49611 0.35420 0.18000
C 	C 	0.90229 0.37585 0.55159 0.22100
C 	C 	0.40229 0.62415 0.55159 0.22100
C 	C 	0.39020 0.35661 0.76477 0.36900
C 	C 	0.10980 0.76477 0.35661 0.36900
C 	C 	0.44130 0.43553 0.21006 0.08300
C 	C 	0.50070 0.37380 0.87000 0.03100
C 	C 	0.05870 0.21006 0.43553 0.08300
C 	C 	0.60980 0.76477 0.64339 0.36900
C 	C 	0.08690 0.15294 0.63360 -0.11500
C 	C 	0.52260 0.38440 0.94610 -0.09200
C 	C 	0.94130 0.56447 0.21006 0.08300
C 	C 	0.43130 0.19160 0.63040 0.08400
C 	C 	0.94760 0.88490 0.63760 -0.14200
C 	C 	0.58690 0.84706 0.63360 -0.11500
C 	C 	0.82020 0.64580 0.49611 0.18000
C 	C 	0.47690 0.60557 0.91658 0.07000
C 	C 	0.44760 0.88490 0.36240 -0.14200
C 	C 	0.32020 0.64580 0.50389 0.18000
C 	C 	0.67980 0.49611 0.64580 0.18000
C 	C 	0.08690 0.84706 0.36640 -0.11500
C 	C 	0.52310 0.91658 0.39443 0.07000
C 	C 	0.60980 0.23523 0.35661 0.36900
C 	C 	0.10980 0.23523 0.64339 0.36900
C 	C 	0.56870 0.36960 0.19160 0.08400
C 	C 	0.02310 0.91658 0.60557 0.07000
C 	C 	0.65440 0.09901 0.36800 0.02300
C 	C 	0.42090 0.56790 0.86678 -0.13900
C 	C 	0.36840 0.62280 0.02070 -0.08800
C 	C 	0.84560 0.36800 0.09901 0.02300
C 	C 	0.91310 0.36640 0.15294 -0.11500
C 	C 	0.34560 0.63200 0.09901 0.02300
C 	C 	0.17980 0.50389 0.64580 0.18000
C 	C 	0.67980 0.50389 0.35420 0.18000
C 	C 	0.93130 0.19160 0.36960 0.08400
C 	C 	0.49930 0.13000 0.37380 0.03100
C 	C 	0.97690 0.60557 0.08342 0.07000
C 	C 	0.50070 0.62620 0.13000 0.03100
C 	C 	0.55870 0.21006 0.56447 0.08300
C 	C 	0.84560 0.63200 0.90099 0.02300
N 	N 	0.51358 0.40399 0.24015 -0.24100
N 	N 	0.48642 0.24015 0.59601 -0.24100
N 	N 	0.48642 0.75985 0.40399 -0.24100
N 	N 	0.01358 0.59601 0.24015 -0.24100
N 	N 	0.98642 0.24015 0.40399 -0.24100
N 	N 	0.98642 0.75985 0.59601 -0.24100
N 	N 	0.51358 0.59601 0.75985 -0.24100
N 	N 	0.01358 0.40399 0.75985 -0.24100
O 	O 	0.02308 0.51929 0.62240 -0.45900
O 	O 	0.80828 0.64939 0.74900 -0.46500
O 	O 	0.65839 0.42580 0.35946 -0.56000
O 	O 	0.65839 0.57420 0.64054 -0.56000
O 	O 	0.39423 0.38737 0.37791 -0.37000
O 	O 	0.84161 0.35946 0.42580 -0.56000
O 	O 	0.10577 0.37791 0.38737 -0.37000
O 	O 	0.80828 0.35061 0.25100 -0.46500
O 	O 	0.15839 0.57420 0.35946 -0.56000
O 	O 	0.19172 0.74900 0.35061 -0.46500
O 	O 	0.84161 0.64054 0.57420 -0.56000
O 	O 	0.30828 0.35061 0.74900 -0.46500
O 	O 	0.52308 0.51929 0.37760 -0.45900
O 	O 	0.52308 0.48071 0.62240 -0.45900
O 	O 	0.34161 0.64054 0.42580 -0.56000
O 	O 	0.47692 0.62240 0.51929 -0.45900
O 	O 	0.54659 0.28276 0.35630 -0.43600
O 	O 	0.97692 0.37760 0.51929 -0.45900
O 	O 	0.15839 0.42580 0.64054 -0.56000
O 	O 	0.89423 0.38737 0.62209 -0.37000
O 	O 	0.54659 0.71724 0.64370 -0.43600
O 	O 	0.69172 0.25100 0.35061 -0.46500
O 	O 	0.47692 0.37760 0.48071 -0.45900
O 	O 	0.10577 0.62209 0.61263 -0.37000
O 	O 	0.97692 0.62240 0.48071 -0.45900
O 	O 	0.89423 0.61263 0.37791 -0.37000
O 	O 	0.19172 0.25100 0.64939 -0.46500
O 	O 	0.04659 0.71724 0.35630 -0.43600
O 	O 	0.04659 0.28276 0.64370 -0.43600
O 	O 	0.60577 0.37791 0.61263 -0.37000
O 	O 	0.95341 0.35630 0.28276 -0.43600
O 	O 	0.45341 0.64370 0.28276 -0.43600
O 	O 	0.95341 0.64370 0.71724 -0.43600
O 	O 	0.34161 0.35946 0.57420 -0.56000
O 	O 	0.02308 0.48071 0.37760 -0.45900
O 	O 	0.30828 0.64939 0.25100 -0.46500
O 	O 	0.45341 0.35630 0.71724 -0.43600
O 	O 	0.69172 0.74900 0.64939 -0.46500
O 	O 	0.60577 0.62209 0.38737 -0.37000
O 	O 	0.39423 0.61263 0.62209 -0.37000
