data_crystal

_cell_length_a 6.60310
_cell_length_b 18.05990
_cell_length_c 10.85790
_cell_angle_alpha 90.00000
_cell_angle_beta  90.37360
_cell_angle_gamma 90.00000

_symmetry_space_group_name_	'P 1'
_symmetry_space_group_name_H-M	'P 1'

loop_
_symmetry_equiv_pos_as_xyz
  x,y,z

loop_
_atom_site_label
_atom_site_type_symbol
_atom_site_fract_x
_atom_site_fract_y
_atom_site_fract_z
_atom_site_charge
Al	Al	0.23660 0.23460 0.24400 2.40000
O 	O 	0.98910 0.23210 0.15980 -0.82500
O 	O 	0.83540 0.66110 0.63590 -0.62200
O 	O 	0.32350 0.15840 0.13350 -0.60500
O 	O 	0.16180 0.30790 0.35480 -0.76800
O 	O 	0.68120 0.80480 0.88030 -0.64800
Al	Al	0.25460 0.73650 0.75510 2.39800
O 	O 	0.50750 0.73050 0.68300 -0.84500
O 	O 	0.36510 0.80220 0.87300 -0.69200
O 	O 	0.85020 0.29990 0.36570 -0.72400
O 	O 	0.67540 0.14450 0.16620 -0.57500
O 	O 	0.15940 0.65010 0.65700 -0.55800
C 	C 	0.81605 0.51082 0.53472 0.04500
C 	C 	0.83051 0.43997 0.45969 0.05000
C 	C 	0.20423 0.43876 0.47907 0.05400
C 	C 	0.19948 0.51212 0.55077 0.05400
C 	C 	0.00581 0.55652 0.53137 -0.11300
C 	C 	0.01323 0.39260 0.49139 -0.16700
C 	C 	0.99297 0.62640 0.60648 0.49000
C 	C 	0.01834 0.32484 0.41053 0.66200
C 	C 	0.32210 0.95536 0.94692 0.04000
C 	C 	0.31436 0.02639 0.02474 0.05100
C 	C 	0.68266 0.01781 0.06629 0.06400
C 	C 	0.70091 0.94921 0.98600 0.04200
C 	C 	0.50607 0.90697 0.97362 -0.13500
C 	C 	0.51198 0.06935 0.02833 -0.08800
C 	C 	0.52285 0.83936 0.89322 0.56900
C 	C 	0.50168 0.13451 0.11469 0.44700
Al	Al	0.76340 0.73460 0.75600 2.39900
O 	O 	0.01090 0.73210 0.84020 -0.82600
O 	O 	0.16460 0.16110 0.36410 -0.62100
O 	O 	0.67650 0.65840 0.86650 -0.60500
O 	O 	0.83820 0.80790 0.64520 -0.76800
O 	O 	0.31880 0.30480 0.11970 -0.64800
Al	Al	0.74540 0.23650 0.24490 2.39800
O 	O 	0.49250 0.23050 0.31700 -0.84400
O 	O 	0.63490 0.30220 0.12700 -0.69200
O 	O 	0.14980 0.79990 0.63430 -0.72300
O 	O 	0.32460 0.64450 0.83380 -0.57500
O 	O 	0.84060 0.15010 0.34300 -0.55700
C 	C 	0.18395 0.01082 0.46528 0.04300
C 	C 	0.16949 0.93997 0.54031 0.05200
C 	C 	0.79577 0.93876 0.52093 0.05200
C 	C 	0.80052 0.01212 0.44923 0.05600
C 	C 	0.99419 0.05652 0.46863 -0.11100
C 	C 	0.98677 0.89260 0.50861 -0.16900
C 	C 	0.00703 0.12640 0.39352 0.48800
C 	C 	0.98166 0.82484 0.58947 0.66100
C 	C 	0.67790 0.45536 0.05308 0.04000
C 	C 	0.68564 0.52639 0.97526 0.05100
C 	C 	0.31734 0.51781 0.93371 0.06200
C 	C 	0.29909 0.44921 0.01400 0.04300
C 	C 	0.49393 0.40697 0.02638 -0.13500
C 	C 	0.48802 0.56935 0.97167 -0.08800
C 	C 	0.47715 0.33936 0.10678 0.56900
C 	C 	0.49832 0.63451 0.88531 0.44700
