data_crystal

_cell_length_a 21.13730
_cell_length_b 21.13730
_cell_length_c 21.13730
_cell_angle_alpha 90.00000
_cell_angle_beta  90.00000
_cell_angle_gamma 90.00000

_symmetry_space_group_name_	'P 1'
_symmetry_space_group_name_H-M	'P 1'

loop_
_symmetry_equiv_pos_as_xyz
  x,y,z

loop_
_atom_site_label
_atom_site_type_symbol
_atom_site_fract_x
_atom_site_fract_y
_atom_site_fract_z
_atom_site_charge
N 	N 	0.13138 0.30890 0.26276 -0.20700
C 	C 	0.08220 0.34540 0.27350 0.09700
H 	H 	0.06980 0.37950 0.24860 0.00200
H 	H 	0.99210 0.39630 0.34380 0.12700
N 	N 	0.63138 0.80890 0.76276 -0.20700
C 	C 	0.58220 0.84540 0.77350 0.09700
H 	H 	0.56980 0.87950 0.74860 0.00200
H 	H 	0.49210 0.89630 0.84380 0.12700
N 	N 	0.86862 0.69110 0.26276 -0.20800
C 	C 	0.91780 0.65460 0.27350 0.09600
H 	H 	0.93020 0.62050 0.24860 0.00100
H 	H 	0.00790 0.60370 0.34380 0.12600
N 	N 	0.36862 0.19110 0.76276 -0.20800
C 	C 	0.41780 0.15460 0.77350 0.09600
H 	H 	0.43020 0.12050 0.74860 0.00100
H 	H 	0.50790 0.10370 0.84380 0.12600
N 	N 	0.86862 0.30890 0.73724 -0.20800
C 	C 	0.91780 0.34540 0.72650 0.09600
H 	H 	0.93020 0.37950 0.75140 0.00100
H 	H 	0.00790 0.39630 0.65620 0.12600
N 	N 	0.36862 0.80890 0.23724 -0.20800
C 	C 	0.41780 0.84540 0.22650 0.09600
H 	H 	0.43020 0.87950 0.25140 0.00100
H 	H 	0.50790 0.89630 0.15620 0.12600
N 	N 	0.13138 0.69110 0.73724 -0.20800
C 	C 	0.08220 0.65460 0.72650 0.09600
H 	H 	0.06980 0.62050 0.75140 0.00100
H 	H 	0.99210 0.60370 0.65620 0.12600
N 	N 	0.63138 0.19110 0.23724 -0.20800
C 	C 	0.58220 0.15460 0.22650 0.09600
H 	H 	0.56980 0.12050 0.25140 0.00100
H 	H 	0.49210 0.10370 0.15620 0.12600
N 	N 	0.26276 0.13138 0.30890 -0.20800
C 	C 	0.27350 0.08220 0.34540 0.09600
H 	H 	0.24860 0.06980 0.37950 0.00100
H 	H 	0.34380 0.99210 0.39630 0.12600
N 	N 	0.76276 0.63138 0.80890 -0.20800
C 	C 	0.77350 0.58220 0.84540 0.09600
H 	H 	0.74860 0.56980 0.87950 0.00100
H 	H 	0.84380 0.49210 0.89630 0.12600
N 	N 	0.26276 0.86862 0.69110 -0.20800
C 	C 	0.27350 0.91780 0.65460 0.09600
H 	H 	0.24860 0.93020 0.62050 0.00100
H 	H 	0.34380 0.00790 0.60370 0.12600
N 	N 	0.76276 0.36862 0.19110 -0.20800
C 	C 	0.77350 0.41780 0.15460 0.09600
H 	H 	0.74860 0.43020 0.12050 0.00100
H 	H 	0.84380 0.50790 0.10370 0.12600
N 	N 	0.73724 0.86862 0.30890 -0.20800
C 	C 	0.72650 0.91780 0.34540 0.09600
H 	H 	0.75140 0.93020 0.37950 0.00100
H 	H 	0.65620 0.00790 0.39630 0.12600
N 	N 	0.23724 0.36862 0.80890 -0.20800
C 	C 	0.22650 0.41780 0.84540 0.09600
H 	H 	0.25140 0.43020 0.87950 0.00100
H 	H 	0.15620 0.50790 0.89630 0.12600
N 	N 	0.73724 0.13138 0.69110 -0.20800
C 	C 	0.72650 0.08220 0.65460 0.09600
H 	H 	0.75140 0.06980 0.62050 0.00100
H 	H 	0.65620 0.99210 0.60370 0.12600
N 	N 	0.23724 0.63138 0.19110 -0.20800
C 	C 	0.22650 0.58220 0.15460 0.09600
H 	H 	0.25140 0.56980 0.12050 0.00100
H 	H 	0.15620 0.49210 0.10370 0.12600
N 	N 	0.30890 0.26276 0.13138 -0.20800
C 	C 	0.34540 0.27350 0.08220 0.09600
H 	H 	0.37950 0.24860 0.06980 0.00100
H 	H 	0.39630 0.34380 0.99210 0.12600
N 	N 	0.80890 0.76276 0.63138 -0.20800
C 	C 	0.84540 0.77350 0.58220 0.09600
H 	H 	0.87950 0.74860 0.56980 0.00100
H 	H 	0.89630 0.84380 0.49210 0.12600
N 	N 	0.69110 0.26276 0.86862 -0.20800
C 	C 	0.65460 0.27350 0.91780 0.09600
H 	H 	0.62050 0.24860 0.93020 0.00100
H 	H 	0.60370 0.34380 0.00790 0.12600
N 	N 	0.19110 0.76276 0.36862 -0.20800
C 	C 	0.15460 0.77350 0.41780 0.09600
H 	H 	0.12050 0.74860 0.43020 0.00100
H 	H 	0.10370 0.84380 0.50790 0.12600
N 	N 	0.30890 0.73724 0.86862 -0.20800
C 	C 	0.34540 0.72650 0.91780 0.09600
H 	H 	0.37950 0.75140 0.93020 0.00100
H 	H 	0.39630 0.65620 0.00790 0.12600
N 	N 	0.80890 0.23724 0.36862 -0.20800
C 	C 	0.84540 0.22650 0.41780 0.09600
H 	H 	0.87950 0.25140 0.43020 0.00100
H 	H 	0.89630 0.15620 0.50790 0.12600
N 	N 	0.69110 0.73724 0.13138 -0.20800
C 	C 	0.65460 0.72650 0.08220 0.09600
H 	H 	0.62050 0.75140 0.06980 0.00100
H 	H 	0.60370 0.65620 0.99210 0.12600
N 	N 	0.19110 0.23724 0.63138 -0.20800
C 	C 	0.15460 0.22650 0.58220 0.09600
H 	H 	0.12050 0.25140 0.56980 0.00100
H 	H 	0.10370 0.15620 0.49210 0.12600
N 	N 	0.30890 0.13138 0.26276 -0.20800
C 	C 	0.34540 0.08220 0.27350 0.09600
H 	H 	0.37950 0.06980 0.24860 0.00100
H 	H 	0.39630 0.99210 0.34380 0.12600
N 	N 	0.80890 0.63138 0.76276 -0.20800
C 	C 	0.84540 0.58220 0.77350 0.09600
H 	H 	0.87950 0.56980 0.74860 0.00100
H 	H 	0.89630 0.49210 0.84380 0.12600
N 	N 	0.69110 0.86862 0.26276 -0.20800
C 	C 	0.65460 0.91780 0.27350 0.09600
H 	H 	0.62050 0.93020 0.24860 0.00100
H 	H 	0.60370 0.00790 0.34380 0.12600
N 	N 	0.19110 0.36862 0.76276 -0.20800
C 	C 	0.15460 0.41780 0.77350 0.09600
H 	H 	0.12050 0.43020 0.74860 0.00100
H 	H 	0.10370 0.50790 0.84380 0.12600
N 	N 	0.30890 0.86862 0.73724 -0.20800
C 	C 	0.34540 0.91780 0.72650 0.09600
H 	H 	0.37950 0.93020 0.75140 0.00100
H 	H 	0.39630 0.00790 0.65620 0.12600
N 	N 	0.80890 0.36862 0.23724 -0.20800
C 	C 	0.84540 0.41780 0.22650 0.09600
H 	H 	0.87950 0.43020 0.25140 0.00100
H 	H 	0.89630 0.50790 0.15620 0.12600
N 	N 	0.69110 0.13138 0.73724 -0.20800
C 	C 	0.65460 0.08220 0.72650 0.09600
H 	H 	0.62050 0.06980 0.75140 0.00100
H 	H 	0.60370 0.99210 0.65620 0.12600
N 	N 	0.19110 0.63138 0.23724 -0.20800
C 	C 	0.15460 0.58220 0.22650 0.09600
H 	H 	0.12050 0.56980 0.25140 0.00100
H 	H 	0.10370 0.49210 0.15620 0.12600
N 	N 	0.13138 0.26276 0.30890 -0.20800
C 	C 	0.08220 0.27350 0.34540 0.09600
H 	H 	0.06980 0.24860 0.37950 0.00100
H 	H 	0.99210 0.34380 0.39630 0.12600
N 	N 	0.63138 0.76276 0.80890 -0.20800
C 	C 	0.58220 0.77350 0.84540 0.09600
H 	H 	0.56980 0.74860 0.87950 0.00100
H 	H 	0.49210 0.84380 0.89630 0.12600
N 	N 	0.86862 0.26276 0.69110 -0.20800
C 	C 	0.91780 0.27350 0.65460 0.09600
H 	H 	0.93020 0.24860 0.62050 0.00100
H 	H 	0.00790 0.34380 0.60370 0.12600
N 	N 	0.36862 0.76276 0.19110 -0.20800
C 	C 	0.41780 0.77350 0.15460 0.09600
H 	H 	0.43020 0.74860 0.12050 0.00100
H 	H 	0.50790 0.84380 0.10370 0.12600
N 	N 	0.86862 0.73724 0.30890 -0.20800
C 	C 	0.91780 0.72650 0.34540 0.09600
H 	H 	0.93020 0.75140 0.37950 0.00100
H 	H 	0.00790 0.65620 0.39630 0.12600
N 	N 	0.36862 0.23724 0.80890 -0.20800
C 	C 	0.41780 0.22650 0.84540 0.09600
H 	H 	0.43020 0.25140 0.87950 0.00100
H 	H 	0.50790 0.15620 0.89630 0.12600
N 	N 	0.13138 0.73724 0.69110 -0.20800
C 	C 	0.08220 0.72650 0.65460 0.09600
H 	H 	0.06980 0.75140 0.62050 0.00100
H 	H 	0.99210 0.65620 0.60370 0.12600
N 	N 	0.63138 0.23724 0.19110 -0.20800
C 	C 	0.58220 0.22650 0.15460 0.09600
H 	H 	0.56980 0.25140 0.12050 0.00100
H 	H 	0.49210 0.15620 0.10370 0.12600
N 	N 	0.26276 0.30890 0.13138 -0.20800
C 	C 	0.27350 0.34540 0.08220 0.09600
H 	H 	0.24860 0.37950 0.06980 0.00100
H 	H 	0.34380 0.39630 0.99210 0.12600
N 	N 	0.76276 0.80890 0.63138 -0.20800
C 	C 	0.77350 0.84540 0.58220 0.09600
H 	H 	0.74860 0.87950 0.56980 0.00100
H 	H 	0.84380 0.89630 0.49210 0.12600
N 	N 	0.26276 0.69110 0.86862 -0.20800
C 	C 	0.27350 0.65460 0.91780 0.09600
H 	H 	0.24860 0.62050 0.93020 0.00100
H 	H 	0.34380 0.60370 0.00790 0.12600
N 	N 	0.76276 0.19110 0.36862 -0.20800
C 	C 	0.77350 0.15460 0.41780 0.09600
H 	H 	0.74860 0.12050 0.43020 0.00100
H 	H 	0.84380 0.10370 0.50790 0.12600
N 	N 	0.73724 0.30890 0.86862 -0.20800
C 	C 	0.72650 0.34540 0.91780 0.09600
H 	H 	0.75140 0.37950 0.93020 0.00100
H 	H 	0.65620 0.39630 0.00790 0.12600
N 	N 	0.23724 0.80890 0.36862 -0.20800
C 	C 	0.22650 0.84540 0.41780 0.09600
H 	H 	0.25140 0.87950 0.43020 0.00100
H 	H 	0.15620 0.89630 0.50790 0.12600
N 	N 	0.73724 0.69110 0.13138 -0.20800
C 	C 	0.72650 0.65460 0.08220 0.09600
H 	H 	0.75140 0.62050 0.06980 0.00100
H 	H 	0.65620 0.60370 0.99210 0.12600
N 	N 	0.23724 0.19110 0.63138 -0.20800
C 	C 	0.22650 0.15460 0.58220 0.09600
H 	H 	0.25140 0.12050 0.56980 0.00100
H 	H 	0.15620 0.10370 0.49210 0.12600
Cu	Cu	0.19330 0.30688 0.19330 0.87700
Cu	Cu	0.69330 0.80688 0.69330 0.87700
Cu	Cu	0.80670 0.69312 0.19330 0.87700
Cu	Cu	0.30670 0.19312 0.69330 0.87700
Cu	Cu	0.80670 0.30688 0.80670 0.87700
Cu	Cu	0.30670 0.80688 0.30670 0.87700
Cu	Cu	0.19330 0.69312 0.80670 0.87700
Cu	Cu	0.69330 0.19312 0.30670 0.87700
Cu	Cu	0.19330 0.19330 0.30688 0.87700
Cu	Cu	0.69330 0.69330 0.80688 0.87700
Cu	Cu	0.19330 0.80670 0.69312 0.87700
Cu	Cu	0.69330 0.30670 0.19312 0.87700
Cu	Cu	0.80670 0.80670 0.30688 0.87700
Cu	Cu	0.30670 0.30670 0.80688 0.87700
Cu	Cu	0.80670 0.19330 0.69312 0.87700
Cu	Cu	0.30670 0.69330 0.19312 0.87700
Cu	Cu	0.30688 0.19330 0.19330 0.87700
Cu	Cu	0.80688 0.69330 0.69330 0.87700
Cu	Cu	0.69312 0.19330 0.80670 0.87700
Cu	Cu	0.19312 0.69330 0.30670 0.87700
Cu	Cu	0.30688 0.80670 0.80670 0.87700
Cu	Cu	0.80688 0.30670 0.30670 0.87700
Cu	Cu	0.69312 0.80670 0.19330 0.87700
Cu	Cu	0.19312 0.30670 0.69330 0.87700
N 	N 	0.05300 0.32554 0.32554 -0.09900
O 	O 	0.94040 0.28035 0.28035 -0.31400
O 	O 	0.88420 0.34333 0.34333 -0.42400
C 	C 	0.99320 0.35150 0.35150 -0.28700
C 	C 	0.93560 0.32170 0.32170 0.38600
N 	N 	0.55300 0.82554 0.82554 -0.09900
O 	O 	0.44040 0.78035 0.78035 -0.31400
O 	O 	0.38420 0.84333 0.84333 -0.42400
C 	C 	0.49320 0.85150 0.85150 -0.28700
C 	C 	0.43560 0.82170 0.82170 0.38600
N 	N 	0.94700 0.67446 0.32554 -0.09900
O 	O 	0.05960 0.71965 0.28035 -0.31400
O 	O 	0.11580 0.65667 0.34333 -0.42400
C 	C 	0.00680 0.64850 0.35150 -0.28700
C 	C 	0.06440 0.67830 0.32170 0.38600
N 	N 	0.44700 0.17446 0.82554 -0.09900
O 	O 	0.55960 0.21965 0.78035 -0.31400
O 	O 	0.61580 0.15667 0.84333 -0.42400
C 	C 	0.50680 0.14850 0.85150 -0.28700
C 	C 	0.56440 0.17830 0.82170 0.38600
N 	N 	0.94700 0.32554 0.67446 -0.09900
O 	O 	0.05960 0.28035 0.71965 -0.31400
O 	O 	0.11580 0.34333 0.65667 -0.42400
C 	C 	0.00680 0.35150 0.64850 -0.28700
C 	C 	0.06440 0.32170 0.67830 0.38600
N 	N 	0.44700 0.82554 0.17446 -0.09900
O 	O 	0.55960 0.78035 0.21965 -0.31400
O 	O 	0.61580 0.84333 0.15667 -0.42400
C 	C 	0.50680 0.85150 0.14850 -0.28700
C 	C 	0.56440 0.82170 0.17830 0.38600
N 	N 	0.05300 0.67446 0.67446 -0.09900
O 	O 	0.94040 0.71965 0.71965 -0.31400
O 	O 	0.88420 0.65667 0.65667 -0.42400
C 	C 	0.99320 0.64850 0.64850 -0.28700
C 	C 	0.93560 0.67830 0.67830 0.38600
N 	N 	0.55300 0.17446 0.17446 -0.09900
O 	O 	0.44040 0.21965 0.21965 -0.31400
O 	O 	0.38420 0.15667 0.15667 -0.42400
C 	C 	0.49320 0.14850 0.14850 -0.28700
C 	C 	0.43560 0.17830 0.17830 0.38600
N 	N 	0.32554 0.05300 0.32554 -0.09900
O 	O 	0.28035 0.94040 0.28035 -0.31400
O 	O 	0.34333 0.88420 0.34333 -0.42400
C 	C 	0.35150 0.99320 0.35150 -0.28700
C 	C 	0.32170 0.93560 0.32170 0.38600
N 	N 	0.82554 0.55300 0.82554 -0.09900
O 	O 	0.78035 0.44040 0.78035 -0.31400
O 	O 	0.84333 0.38420 0.84333 -0.42400
C 	C 	0.85150 0.49320 0.85150 -0.28700
C 	C 	0.82170 0.43560 0.82170 0.38600
N 	N 	0.32554 0.94700 0.67446 -0.09900
O 	O 	0.28035 0.05960 0.71965 -0.31400
O 	O 	0.34333 0.11580 0.65667 -0.42400
C 	C 	0.35150 0.00680 0.64850 -0.28700
C 	C 	0.32170 0.06440 0.67830 0.38600
N 	N 	0.82554 0.44700 0.17446 -0.09900
O 	O 	0.78035 0.55960 0.21965 -0.31400
O 	O 	0.84333 0.61580 0.15667 -0.42400
C 	C 	0.85150 0.50680 0.14850 -0.28700
C 	C 	0.82170 0.56440 0.17830 0.38600
N 	N 	0.67446 0.94700 0.32554 -0.09900
O 	O 	0.71965 0.05960 0.28035 -0.31400
O 	O 	0.65667 0.11580 0.34333 -0.42400
C 	C 	0.64850 0.00680 0.35150 -0.28700
C 	C 	0.67830 0.06440 0.32170 0.38600
N 	N 	0.17446 0.44700 0.82554 -0.09900
O 	O 	0.21965 0.55960 0.78035 -0.31400
O 	O 	0.15667 0.61580 0.84333 -0.42400
C 	C 	0.14850 0.50680 0.85150 -0.28700
C 	C 	0.17830 0.56440 0.82170 0.38600
N 	N 	0.67446 0.05300 0.67446 -0.09900
O 	O 	0.71965 0.94040 0.71965 -0.31400
O 	O 	0.65667 0.88420 0.65667 -0.42400
C 	C 	0.64850 0.99320 0.64850 -0.28700
C 	C 	0.67830 0.93560 0.67830 0.38600
N 	N 	0.17446 0.55300 0.17446 -0.09900
O 	O 	0.21965 0.44040 0.21965 -0.31400
O 	O 	0.15667 0.38420 0.15667 -0.42400
C 	C 	0.14850 0.49320 0.14850 -0.28700
C 	C 	0.17830 0.43560 0.17830 0.38600
N 	N 	0.32554 0.32554 0.05300 -0.09900
O 	O 	0.28035 0.28035 0.94040 -0.31400
O 	O 	0.34333 0.34333 0.88420 -0.42400
C 	C 	0.35150 0.35150 0.99320 -0.28700
C 	C 	0.32170 0.32170 0.93560 0.38600
N 	N 	0.82554 0.82554 0.55300 -0.09900
O 	O 	0.78035 0.78035 0.44040 -0.31400
O 	O 	0.84333 0.84333 0.38420 -0.42400
C 	C 	0.85150 0.85150 0.49320 -0.28700
C 	C 	0.82170 0.82170 0.43560 0.38600
N 	N 	0.67446 0.32554 0.94700 -0.09900
O 	O 	0.71965 0.28035 0.05960 -0.31400
O 	O 	0.65667 0.34333 0.11580 -0.42400
C 	C 	0.64850 0.35150 0.00680 -0.28700
C 	C 	0.67830 0.32170 0.06440 0.38600
N 	N 	0.17446 0.82554 0.44700 -0.09900
O 	O 	0.21965 0.78035 0.55960 -0.31400
O 	O 	0.15667 0.84333 0.61580 -0.42400
C 	C 	0.14850 0.85150 0.50680 -0.28700
C 	C 	0.17830 0.82170 0.56440 0.38600
N 	N 	0.32554 0.67446 0.94700 -0.09900
O 	O 	0.28035 0.71965 0.05960 -0.31400
O 	O 	0.34333 0.65667 0.11580 -0.42400
C 	C 	0.35150 0.64850 0.00680 -0.28700
C 	C 	0.32170 0.67830 0.06440 0.38600
N 	N 	0.82554 0.17446 0.44700 -0.09900
O 	O 	0.78035 0.21965 0.55960 -0.31400
O 	O 	0.84333 0.15667 0.61580 -0.42400
C 	C 	0.85150 0.14850 0.50680 -0.28700
C 	C 	0.82170 0.17830 0.56440 0.38600
N 	N 	0.67446 0.67446 0.05300 -0.09900
O 	O 	0.71965 0.71965 0.94040 -0.31400
O 	O 	0.65667 0.65667 0.88420 -0.42400
C 	C 	0.64850 0.64850 0.99320 -0.28700
C 	C 	0.67830 0.67830 0.93560 0.38600
N 	N 	0.17446 0.17446 0.55300 -0.09900
O 	O 	0.21965 0.21965 0.44040 -0.31400
O 	O 	0.15667 0.15667 0.38420 -0.42400
C 	C 	0.14850 0.14850 0.49320 -0.28700
C 	C 	0.17830 0.17830 0.43560 0.38600
O 	O 	0.24320 0.24320 0.24320 -0.71700
H 	H 	0.26700 0.26700 0.26700 0.20900
O 	O 	0.74320 0.74320 0.74320 -0.71700
H 	H 	0.76700 0.76700 0.76700 0.20900
O 	O 	0.75680 0.75680 0.24320 -0.71700
H 	H 	0.73300 0.73300 0.26700 0.20900
O 	O 	0.25680 0.25680 0.74320 -0.71700
H 	H 	0.23300 0.23300 0.76700 0.20900
O 	O 	0.75680 0.24320 0.75680 -0.71700
H 	H 	0.73300 0.26700 0.73300 0.20900
O 	O 	0.25680 0.74320 0.25680 -0.71700
H 	H 	0.23300 0.76700 0.23300 0.20900
O 	O 	0.24320 0.75680 0.75680 -0.71700
H 	H 	0.26700 0.73300 0.73300 0.20900
O 	O 	0.74320 0.25680 0.25680 -0.71700
H 	H 	0.76700 0.23300 0.23300 0.20900
