data_crystal

_cell_length_a 8.50460
_cell_length_b 13.33740
_cell_length_c 14.15840
_cell_angle_alpha 61.90020
_cell_angle_beta  85.71900
_cell_angle_gamma 80.88100

_symmetry_space_group_name_	'P 1'
_symmetry_space_group_name_H-M	'P 1'

loop_
_symmetry_equiv_pos_as_xyz
  x,y,z

loop_
_atom_site_label
_atom_site_type_symbol
_atom_site_fract_x
_atom_site_fract_y
_atom_site_fract_z
_atom_site_charge
Co	Co	0.20098 0.29714 0.19284 1.15800
Co	Co	0.70098 0.48998 0.80716 1.15500
H 	H 	0.48150 0.00400 0.83860 0.05600
H 	H 	0.32800 0.47450 0.98080 -0.00300
H 	H 	0.57250 0.18060 0.77500 0.04200
H 	H 	0.40440 0.81500 0.11420 0.04000
H 	H 	0.07780 0.50810 0.51220 0.08900
H 	H 	0.79990 0.90630 0.52720 0.06400
H 	H 	0.57780 0.02030 0.48780 0.09000
H 	H 	0.05190 0.41220 0.86780 -0.01400
H 	H 	0.07250 0.95560 0.22500 0.04900
H 	H 	0.25900 0.67340 0.17460 0.08800
H 	H 	0.90840 0.55960 0.09300 0.09500
H 	H 	0.19750 0.94610 0.41460 0.09000
H 	H 	0.98150 0.84260 0.16140 0.04200
H 	H 	0.68040 0.38300 0.25060 0.03000
H 	H 	0.42900 0.83110 0.91280 0.07000
H 	H 	0.01110 0.09520 0.86200 0.05700
H 	H 	0.82800 0.45530 0.01920 -0.00300
H 	H 	0.11000 0.20640 0.92640 0.04800
H 	H 	0.55190 0.28000 0.13220 -0.01100
H 	H 	0.40840 0.65260 0.90700 0.09700
H 	H 	0.92900 0.74390 0.08720 0.07100
H 	H 	0.79540 0.17850 0.20540 0.10300
H 	H 	0.29540 0.38390 0.79460 0.10900
H 	H 	0.46270 0.40500 0.64220 0.08500
H 	H 	0.93730 0.32470 0.50300 0.02700
H 	H 	0.44680 0.41520 0.33440 0.07400
H 	H 	0.69750 0.36070 0.58540 0.08800
H 	H 	0.61000 0.13280 0.07360 0.04800
H 	H 	0.68590 0.73860 0.75660 -0.01100
H 	H 	0.51110 0.95720 0.13800 0.03800
H 	H 	0.33490 0.12840 0.40560 0.00100
H 	H 	0.75900 0.84800 0.82540 0.08400
H 	H 	0.96270 0.04720 0.35780 0.06900
H 	H 	0.94680 0.74960 0.66560 0.07000
H 	H 	0.18590 0.49520 0.24340 -0.00900
H 	H 	0.18040 0.63360 0.74940 0.03000
H 	H 	0.29990 0.43350 0.47280 0.05000
H 	H 	0.83490 0.53400 0.59440 -0.00100
H 	H 	0.43730 0.82770 0.49700 0.02300
H 	H 	0.90440 0.92920 0.88580 0.03600
C 	C 	0.68550 0.37710 0.31920 0.04800
C 	C 	0.54510 0.39740 0.36900 -0.13100
C 	C 	0.50680 0.02870 0.88720 -0.06400
C 	C 	0.09690 0.09140 0.08340 -0.05300
C 	C 	0.33040 0.71670 0.63220 -0.11600
C 	C 	0.20360 0.41390 0.75160 -0.18600
C 	C 	0.27730 0.63300 0.13460 -0.17000
C 	C 	0.49080 0.96040 0.99620 0.01300
C 	C 	0.39140 0.41720 0.51360 -0.04900
C 	C 	0.05000 0.85900 0.53260 0.11100
C 	C 	0.73300 0.70190 0.82500 0.08200
C 	C 	0.83890 0.34280 0.46840 0.04400
C 	C 	0.52560 0.00140 0.06400 -0.03700
C 	C 	0.64760 0.28950 0.87380 0.28900
C 	C 	0.92970 0.89080 0.95900 -0.02700
C 	C 	0.14760 0.16330 0.12620 0.28300
C 	C 	0.19420 0.88230 0.48240 -0.14900
C 	C 	0.23300 0.52690 0.17500 0.08500
C 	C 	0.69420 0.36470 0.51760 -0.13300
C 	C 	0.99080 0.95660 0.00380 0.01100
C 	C 	0.90710 0.78200 0.01340 -0.11800
C 	C 	0.81680 0.53570 0.97880 0.08600
C 	C 	0.87180 0.02010 0.39840 -0.06200
C 	C 	0.55000 0.39160 0.46740 0.08800
C 	C 	0.89140 0.93080 0.48640 -0.10400
C 	C 	0.71340 0.08590 0.35440 0.11900
C 	C 	0.55620 0.22670 0.20540 0.10100
C 	C 	0.42970 0.84980 0.04100 -0.02500
C 	C 	0.92870 0.50310 0.63560 0.07800
C 	C 	0.57510 0.07270 0.41440 -0.15400
C 	C 	0.00680 0.91590 0.11280 -0.05200
C 	C 	0.18550 0.69630 0.68080 0.05200
C 	C 	0.06090 0.98440 0.15080 -0.02900
C 	C 	0.83040 0.34890 0.36780 -0.11000
C 	C 	0.05620 0.43210 0.79460 0.11400
C 	C 	0.70360 0.16550 0.24840 -0.17100
C 	C 	0.31680 0.51450 0.02120 0.09000
C 	C 	0.21340 0.44030 0.64560 0.13800
C 	C 	0.59690 0.17480 0.91660 -0.07400
C 	C 	0.86520 0.59790 0.02360 -0.17100
C 	C 	0.47540 0.63620 0.68960 0.32000
C 	C 	0.40710 0.79540 0.98660 -0.11900
C 	C 	0.77730 0.76760 0.86540 -0.16900
C 	C 	0.33890 0.81120 0.53160 0.05200
C 	C 	0.42870 0.13870 0.36440 0.08400
C 	C 	0.37180 0.41850 0.60160 -0.11300
C 	C 	0.08260 0.13380 0.97420 -0.00700
C 	C 	0.36520 0.62150 0.97640 -0.17300
C 	C 	0.07510 0.48710 0.58560 -0.15800
C 	C 	0.35050 0.68310 0.03300 0.13100
C 	C 	0.56090 0.13520 0.84920 0.00100
C 	C 	0.04510 0.76640 0.63100 -0.13200
C 	C 	0.58260 0.10800 0.02580 -0.00700
C 	C 	0.02560 0.06540 0.93600 -0.05000
C 	C 	0.85050 0.71610 0.96700 0.12700
C 	C 	0.97540 0.32580 0.31040 0.31100
N 	N 	0.92100 0.47550 0.73980 -0.26000
N 	N 	0.25420 0.46440 0.12060 -0.25200
N 	N 	0.75420 0.58500 0.87940 -0.25200
N 	N 	0.42100 0.21530 0.26020 -0.25400
O 	O 	0.60870 0.65200 0.64520 -0.35900
O 	O 	0.65360 0.35239 0.77362 -0.37200
O 	O 	0.46300 0.55830 0.78360 -0.40700
O 	O 	0.15360 0.12601 0.22638 -0.36400
O 	O 	0.10870 0.29720 0.35480 -0.35000
O 	O 	0.96300 0.34190 0.21640 -0.40700
O 	O 	0.67810 0.33079 0.93502 -0.39300
O 	O 	0.17810 0.26581 0.06498 -0.38900
