data_crystal

_cell_length_a 10.22300
_cell_length_b 10.22300
_cell_length_c 14.49300
_cell_angle_alpha 90.00000
_cell_angle_beta  90.00000
_cell_angle_gamma 90.00000

_symmetry_space_group_name_	'P 1'
_symmetry_space_group_name_H-M	'P 1'

loop_
_symmetry_equiv_pos_as_xyz
  x,y,z

loop_
_atom_site_label
_atom_site_type_symbol
_atom_site_fract_x
_atom_site_fract_y
_atom_site_fract_z
_atom_site_charge
Y 	Y 	0.65023 0.65023 0.87500 2.39900
Y 	Y 	0.34977 0.34977 0.37500 2.39700
Y 	Y 	0.34977 0.65023 0.12500 2.39700
Y 	Y 	0.65023 0.34977 0.62500 2.39800
H 	H 	0.94160 0.57570 0.12140 -0.02100
H 	H 	0.05840 0.42430 0.62140 -0.01700
H 	H 	0.42430 0.94160 0.37140 -0.01800
H 	H 	0.57570 0.05840 0.87140 -0.02200
H 	H 	0.05840 0.57570 0.87860 -0.01200
H 	H 	0.94160 0.42430 0.37860 -0.01700
H 	H 	0.57570 0.94160 0.62860 -0.01700
H 	H 	0.42430 0.05840 0.12860 -0.01800
H 	H 	0.60320 0.50000 0.25000 -0.05200
H 	H 	0.39680 0.50000 0.75000 -0.05100
H 	H 	0.50000 0.60320 0.50000 -0.05200
H 	H 	0.50000 0.39680 -0.00000 -0.04800
C 	C 	0.75500 0.54900 0.17140 -0.28300
C 	C 	0.89400 0.54700 0.17210 0.17400
C 	C 	0.67400 0.58900 0.09300 0.56000
C 	C 	0.24500 0.45100 0.67140 -0.27700
C 	C 	0.10600 0.45300 0.67210 0.17200
C 	C 	0.32600 0.41100 0.59300 0.55700
C 	C 	0.45100 0.75500 0.42140 -0.28000
C 	C 	0.45300 0.89400 0.42210 0.17400
C 	C 	0.41100 0.67400 0.34300 0.55800
C 	C 	0.54900 0.24500 0.92140 -0.25300
C 	C 	0.54700 0.10600 0.92210 0.19500
C 	C 	0.58900 0.32600 0.84300 0.55100
C 	C 	0.24500 0.54900 0.82860 -0.27400
C 	C 	0.10600 0.54700 0.82790 0.17100
C 	C 	0.32600 0.58900 0.90700 0.55700
C 	C 	0.75500 0.45100 0.32860 -0.28000
C 	C 	0.89400 0.45300 0.32790 0.17400
C 	C 	0.67400 0.41100 0.40700 0.55800
C 	C 	0.54900 0.75500 0.57860 -0.27900
C 	C 	0.54700 0.89400 0.57790 0.17400
C 	C 	0.58900 0.67400 0.65700 0.55800
C 	C 	0.45100 0.24500 0.07860 -0.27300
C 	C 	0.45300 0.10600 0.07790 0.17300
C 	C 	0.41100 0.32600 0.15700 0.55400
C 	C 	0.69400 0.50000 0.25000 0.20800
C 	C 	0.95700 0.50000 0.25000 -0.22300
C 	C 	0.11400 0.50000 0.25000 0.50900
C 	C 	0.30600 0.50000 0.75000 0.20600
C 	C 	0.04300 0.50000 0.75000 -0.21900
C 	C 	0.88600 0.50000 0.75000 0.51000
C 	C 	0.50000 0.69400 0.50000 0.20700
C 	C 	0.50000 0.95700 0.50000 -0.22200
C 	C 	0.50000 0.11400 0.50000 0.51100
C 	C 	0.50000 0.30600 -0.00000 0.17100
C 	C 	0.50000 0.04300 -0.00000 -0.24200
C 	C 	0.50000 0.88600 -0.00000 0.48200
O 	O 	0.73900 0.59480 0.01440 -0.59300
O 	O 	0.56100 0.61600 0.10200 -0.67000
O 	O 	0.16460 0.42210 0.30750 -0.61300
O 	O 	0.26100 0.40520 0.51440 -0.58000
O 	O 	0.43900 0.38400 0.60200 -0.66300
O 	O 	0.83540 0.57790 0.80750 -0.60800
O 	O 	0.40520 0.73900 0.26440 -0.58100
O 	O 	0.38400 0.56100 0.35200 -0.66400
O 	O 	0.57790 0.16460 0.55750 -0.61200
O 	O 	0.59480 0.26100 0.76440 -0.57700
O 	O 	0.61600 0.43900 0.85200 -0.65600
O 	O 	0.42210 0.83540 0.05750 -0.61200
O 	O 	0.26100 0.59480 0.98560 -0.56400
O 	O 	0.43900 0.61600 0.89800 -0.65600
O 	O 	0.83540 0.42210 0.69250 -0.61100
O 	O 	0.73900 0.40520 0.48560 -0.58000
O 	O 	0.56100 0.38400 0.39800 -0.66400
O 	O 	0.16460 0.57790 0.19250 -0.61700
O 	O 	0.59480 0.73900 0.73560 -0.57800
O 	O 	0.61600 0.56100 0.64800 -0.66300
O 	O 	0.42210 0.16460 0.44250 -0.61200
O 	O 	0.40520 0.26100 0.23560 -0.58000
O 	O 	0.38400 0.43900 0.14800 -0.66600
O 	O 	0.57790 0.83540 0.94250 -0.58500
