data_crystal

_cell_length_a 30.92200
_cell_length_b 30.92200
_cell_length_c 30.92200
_cell_angle_alpha 90.00000
_cell_angle_beta  90.00000
_cell_angle_gamma 90.00000

_symmetry_space_group_name_	'P 1'
_symmetry_space_group_name_H-M	'P 1'

loop_
_symmetry_equiv_pos_as_xyz
  x,y,z

loop_
_atom_site_label
_atom_site_type_symbol
_atom_site_fract_x
_atom_site_fract_y
_atom_site_fract_z
_atom_site_charge
N 	N 	0.33930 0.27460 0.22540 -0.18500
C 	C 	0.38200 0.26621 0.23379 0.10300
C 	C 	0.42070 0.28090 0.21910 -0.16400
C 	C 	0.46140 0.26610 0.23390 0.13000
H 	H 	0.42045 0.30217 0.19783 0.13200
O 	O 	0.30330 0.35660 0.14340 -0.27000
N 	N 	0.83930 0.27460 0.72540 -0.18500
C 	C 	0.88200 0.26621 0.73380 0.10200
C 	C 	0.92070 0.28090 0.71910 -0.16200
C 	C 	0.96140 0.26610 0.73390 0.12300
H 	H 	0.92045 0.30217 0.69783 0.12900
O 	O 	0.80330 0.35660 0.64340 -0.27100
N 	N 	0.66070 0.72540 0.22540 -0.18500
C 	C 	0.61800 0.73380 0.23379 0.10300
C 	C 	0.57930 0.71910 0.21910 -0.16400
C 	C 	0.53860 0.73390 0.23390 0.13000
H 	H 	0.57955 0.69783 0.19783 0.13200
O 	O 	0.69670 0.64340 0.14340 -0.27000
N 	N 	0.16070 0.72540 0.72540 -0.18500
C 	C 	0.11800 0.73380 0.73380 0.10300
C 	C 	0.07930 0.71910 0.71910 -0.16400
C 	C 	0.03860 0.73390 0.73390 0.12900
H 	H 	0.07955 0.69783 0.69783 0.13100
O 	O 	0.19670 0.64340 0.64340 -0.27200
N 	N 	0.16070 0.22540 0.22540 -0.18600
C 	C 	0.11800 0.23379 0.23379 0.10300
C 	C 	0.07930 0.21910 0.21910 -0.16400
C 	C 	0.03860 0.23390 0.23390 0.12900
H 	H 	0.07955 0.19783 0.19783 0.13200
O 	O 	0.19670 0.14340 0.14340 -0.27100
N 	N 	0.66070 0.27460 0.77460 -0.18600
C 	C 	0.61800 0.26621 0.76621 0.10200
C 	C 	0.57930 0.28090 0.78090 -0.16500
C 	C 	0.53860 0.26610 0.76610 0.12800
H 	H 	0.57955 0.30217 0.80217 0.13000
O 	O 	0.69670 0.35660 0.85660 -0.27300
N 	N 	0.16070 0.27460 0.27460 -0.18600
C 	C 	0.11800 0.26621 0.26621 0.10300
C 	C 	0.07930 0.28090 0.28090 -0.16400
C 	C 	0.03860 0.26610 0.26610 0.12900
H 	H 	0.07955 0.30217 0.30217 0.13100
O 	O 	0.19670 0.35660 0.35660 -0.27200
N 	N 	0.33930 0.72540 0.77460 -0.18600
C 	C 	0.38200 0.73380 0.76621 0.10200
C 	C 	0.42070 0.71910 0.78090 -0.16500
C 	C 	0.46140 0.73390 0.76610 0.12800
H 	H 	0.42045 0.69783 0.80217 0.13000
O 	O 	0.30330 0.64340 0.85660 -0.27200
N 	N 	0.33930 0.22540 0.27460 -0.18600
C 	C 	0.38200 0.23379 0.26621 0.10200
C 	C 	0.42070 0.21910 0.28090 -0.16500
C 	C 	0.46140 0.23390 0.26610 0.12900
H 	H 	0.42045 0.19783 0.30217 0.13100
O 	O 	0.30330 0.14340 0.35660 -0.27100
N 	N 	0.83930 0.72540 0.27460 -0.18600
C 	C 	0.88200 0.73380 0.26621 0.10100
C 	C 	0.92070 0.71910 0.28090 -0.16300
C 	C 	0.96140 0.73390 0.26610 0.12200
H 	H 	0.92045 0.69783 0.30217 0.12800
O 	O 	0.80330 0.64340 0.35660 -0.27200
N 	N 	0.22540 0.33930 0.27460 -0.18600
C 	C 	0.23379 0.38200 0.26621 0.10200
C 	C 	0.21910 0.42070 0.28090 -0.16500
C 	C 	0.23390 0.46140 0.26610 0.12900
H 	H 	0.19783 0.42045 0.30217 0.13100
O 	O 	0.14340 0.30330 0.35660 -0.27100
N 	N 	0.22540 0.83930 0.77460 -0.18600
C 	C 	0.23379 0.88200 0.76621 0.10100
C 	C 	0.21910 0.92070 0.78090 -0.16300
C 	C 	0.23390 0.96140 0.76610 0.12200
H 	H 	0.19783 0.92045 0.80217 0.12800
O 	O 	0.14340 0.80330 0.85660 -0.27200
N 	N 	0.22540 0.66070 0.72540 -0.18600
C 	C 	0.23379 0.61800 0.73380 0.10200
C 	C 	0.21910 0.57930 0.71910 -0.16500
C 	C 	0.23390 0.53860 0.73390 0.12900
H 	H 	0.19783 0.57955 0.69783 0.13100
O 	O 	0.14340 0.69670 0.64340 -0.27100
N 	N 	0.22540 0.16070 0.22540 -0.18600
C 	C 	0.23379 0.11800 0.23379 0.10300
C 	C 	0.21910 0.07930 0.21910 -0.16400
C 	C 	0.23390 0.03860 0.23390 0.12900
H 	H 	0.19783 0.07955 0.19783 0.13200
O 	O 	0.14340 0.19670 0.14340 -0.27100
N 	N 	0.77460 0.66070 0.27460 -0.18600
C 	C 	0.76621 0.61800 0.26621 0.10200
C 	C 	0.78090 0.57930 0.28090 -0.16500
C 	C 	0.76610 0.53860 0.26610 0.12800
H 	H 	0.80217 0.57955 0.30217 0.13000
O 	O 	0.85660 0.69670 0.35660 -0.27300
N 	N 	0.77460 0.16070 0.77460 -0.18600
C 	C 	0.76621 0.11800 0.76621 0.10200
C 	C 	0.78090 0.07930 0.78090 -0.16400
C 	C 	0.76610 0.03860 0.76610 0.12800
H 	H 	0.80217 0.07955 0.80217 0.13000
O 	O 	0.85660 0.19670 0.85660 -0.27300
N 	N 	0.27460 0.16070 0.27460 -0.18600
C 	C 	0.26621 0.11800 0.26621 0.10300
C 	C 	0.28090 0.07930 0.28090 -0.16400
C 	C 	0.26610 0.03860 0.26610 0.12900
H 	H 	0.30217 0.07955 0.30217 0.13100
O 	O 	0.35660 0.19670 0.35660 -0.27200
N 	N 	0.77460 0.33930 0.72540 -0.18600
C 	C 	0.76621 0.38200 0.73380 0.10200
C 	C 	0.78090 0.42070 0.71910 -0.16500
C 	C 	0.76610 0.46140 0.73390 0.12800
H 	H 	0.80217 0.42045 0.69783 0.13000
O 	O 	0.85660 0.30330 0.64340 -0.27200
N 	N 	0.77460 0.83930 0.22540 -0.18600
C 	C 	0.76621 0.88200 0.23379 0.10100
C 	C 	0.78090 0.92070 0.21910 -0.16300
C 	C 	0.76610 0.96140 0.23390 0.12200
H 	H 	0.80217 0.92045 0.19783 0.12800
O 	O 	0.85660 0.80330 0.14340 -0.27200
N 	N 	0.27460 0.33930 0.22540 -0.18600
C 	C 	0.26621 0.38200 0.23379 0.10200
C 	C 	0.28090 0.42070 0.21910 -0.16500
C 	C 	0.26610 0.46140 0.23390 0.12900
H 	H 	0.30217 0.42045 0.19783 0.13100
O 	O 	0.35660 0.30330 0.14340 -0.27100
N 	N 	0.27460 0.22540 0.33930 -0.18600
C 	C 	0.26621 0.23379 0.38200 0.10200
C 	C 	0.28090 0.21910 0.42070 -0.16500
C 	C 	0.26610 0.23390 0.46140 0.12900
H 	H 	0.30217 0.19783 0.42045 0.13100
O 	O 	0.35660 0.14340 0.30330 -0.27100
N 	N 	0.27460 0.72540 0.83930 -0.18600
C 	C 	0.26621 0.73380 0.88200 0.10100
C 	C 	0.28090 0.71910 0.92070 -0.16300
C 	C 	0.26610 0.73390 0.96140 0.12200
H 	H 	0.30217 0.69783 0.92045 0.12800
O 	O 	0.35660 0.64340 0.80330 -0.27200
N 	N 	0.72540 0.22540 0.66070 -0.18600
C 	C 	0.73380 0.23379 0.61800 0.10200
C 	C 	0.71910 0.21910 0.57930 -0.16500
C 	C 	0.73390 0.23390 0.53860 0.12900
H 	H 	0.69783 0.19783 0.57955 0.13100
O 	O 	0.64340 0.14340 0.69670 -0.27100
N 	N 	0.72540 0.72540 0.16070 -0.18600
C 	C 	0.73380 0.73380 0.11800 0.10200
C 	C 	0.71910 0.71910 0.07930 -0.16400
C 	C 	0.73390 0.73390 0.03860 0.12900
H 	H 	0.69783 0.69783 0.07955 0.13100
O 	O 	0.64340 0.64340 0.19670 -0.27200
N 	N 	0.22540 0.22540 0.16070 -0.18600
C 	C 	0.23379 0.23379 0.11800 0.10300
C 	C 	0.21910 0.21910 0.07930 -0.16400
C 	C 	0.23390 0.23390 0.03860 0.12900
H 	H 	0.19783 0.19783 0.07955 0.13200
O 	O 	0.14340 0.14340 0.19670 -0.27100
N 	N 	0.27460 0.77460 0.66070 -0.18600
C 	C 	0.26621 0.76621 0.61800 0.10200
C 	C 	0.28090 0.78090 0.57930 -0.16500
C 	C 	0.26610 0.76610 0.53860 0.12800
H 	H 	0.30217 0.80217 0.57955 0.13000
O 	O 	0.35660 0.85660 0.69670 -0.27300
N 	N 	0.27460 0.27460 0.16070 -0.18600
C 	C 	0.26621 0.26621 0.11800 0.10300
C 	C 	0.28090 0.28090 0.07930 -0.16400
C 	C 	0.26610 0.26610 0.03860 0.12900
H 	H 	0.30217 0.30217 0.07955 0.13100
O 	O 	0.35660 0.35660 0.19670 -0.27200
N 	N 	0.72540 0.77460 0.33930 -0.18600
C 	C 	0.73380 0.76621 0.38200 0.10200
C 	C 	0.71910 0.78090 0.42070 -0.16500
C 	C 	0.73390 0.76610 0.46140 0.12800
H 	H 	0.69783 0.80217 0.42045 0.13000
O 	O 	0.64340 0.85660 0.30330 -0.27200
N 	N 	0.72540 0.27460 0.83930 -0.18600
C 	C 	0.73380 0.26621 0.88200 0.10100
C 	C 	0.71910 0.28090 0.92070 -0.16300
C 	C 	0.73390 0.26610 0.96140 0.12200
H 	H 	0.69783 0.30217 0.92045 0.12800
O 	O 	0.64340 0.35660 0.80330 -0.27200
N 	N 	0.22540 0.27460 0.33930 -0.18600
C 	C 	0.23379 0.26621 0.38200 0.10200
C 	C 	0.21910 0.28090 0.42070 -0.16500
C 	C 	0.23390 0.26610 0.46140 0.12900
H 	H 	0.19783 0.30217 0.42045 0.13100
O 	O 	0.14340 0.35660 0.30330 -0.27100
N 	N 	0.27460 0.33930 0.77460 -0.18600
C 	C 	0.26621 0.38200 0.76621 0.10200
C 	C 	0.28090 0.42070 0.78090 -0.16500
C 	C 	0.26610 0.46140 0.76610 0.12800
H 	H 	0.30217 0.42045 0.80217 0.13000
O 	O 	0.35660 0.30330 0.85660 -0.27200
N 	N 	0.27460 0.83930 0.27460 -0.18600
C 	C 	0.26621 0.88200 0.26621 0.10100
C 	C 	0.28090 0.92070 0.28090 -0.16200
C 	C 	0.26610 0.96140 0.26610 0.12200
H 	H 	0.30217 0.92045 0.30217 0.12900
O 	O 	0.35660 0.80330 0.35660 -0.27200
N 	N 	0.72540 0.66070 0.77460 -0.18600
C 	C 	0.73380 0.61800 0.76621 0.10200
C 	C 	0.71910 0.57930 0.78090 -0.16500
C 	C 	0.73390 0.53860 0.76610 0.12800
H 	H 	0.69783 0.57955 0.80217 0.13000
O 	O 	0.64340 0.69670 0.85660 -0.27300
N 	N 	0.72540 0.16070 0.27460 -0.18600
C 	C 	0.73380 0.11800 0.26621 0.10200
C 	C 	0.71910 0.07930 0.28090 -0.16400
C 	C 	0.73390 0.03860 0.26610 0.12900
H 	H 	0.69783 0.07955 0.30217 0.13100
O 	O 	0.64340 0.19670 0.35660 -0.27200
N 	N 	0.22540 0.66070 0.27460 -0.18600
C 	C 	0.23379 0.61800 0.26621 0.10200
C 	C 	0.21910 0.57930 0.28090 -0.16500
C 	C 	0.23390 0.53860 0.26610 0.12900
H 	H 	0.19783 0.57955 0.30217 0.13100
O 	O 	0.14340 0.69670 0.35660 -0.27100
N 	N 	0.27460 0.66070 0.22540 -0.18600
C 	C 	0.26621 0.61800 0.23379 0.10200
C 	C 	0.28090 0.57930 0.21910 -0.16500
C 	C 	0.26610 0.53860 0.23390 0.12900
H 	H 	0.30217 0.57955 0.19783 0.13100
O 	O 	0.35660 0.69670 0.14340 -0.27100
N 	N 	0.27460 0.16070 0.72540 -0.18600
C 	C 	0.26621 0.11800 0.73380 0.10200
C 	C 	0.28090 0.07930 0.71910 -0.16400
C 	C 	0.26610 0.03860 0.73390 0.12900
H 	H 	0.30217 0.07955 0.69783 0.13100
O 	O 	0.35660 0.19670 0.64340 -0.27200
N 	N 	0.72540 0.33930 0.22540 -0.18600
C 	C 	0.73380 0.38200 0.23379 0.10200
C 	C 	0.71910 0.42070 0.21910 -0.16500
C 	C 	0.73390 0.46140 0.23390 0.12900
H 	H 	0.69783 0.42045 0.19783 0.13100
O 	O 	0.64340 0.30330 0.14340 -0.27100
N 	N 	0.72540 0.83930 0.72540 -0.18600
C 	C 	0.73380 0.88200 0.73380 0.10100
C 	C 	0.71910 0.92070 0.71910 -0.16300
C 	C 	0.73390 0.96140 0.73390 0.12200
H 	H 	0.69783 0.92045 0.69783 0.12800
O 	O 	0.64340 0.80330 0.64340 -0.27200
N 	N 	0.22540 0.83930 0.22540 -0.18600
C 	C 	0.23379 0.88200 0.23379 0.10100
C 	C 	0.21910 0.92070 0.21910 -0.16300
C 	C 	0.23390 0.96140 0.23390 0.12200
H 	H 	0.19783 0.92045 0.19783 0.12900
O 	O 	0.14340 0.80330 0.14340 -0.27100
N 	N 	0.33930 0.22540 0.72540 -0.18600
C 	C 	0.38200 0.23379 0.73380 0.10200
C 	C 	0.42070 0.21910 0.71910 -0.16500
C 	C 	0.46140 0.23390 0.73390 0.12900
H 	H 	0.42045 0.19783 0.69783 0.13100
O 	O 	0.30330 0.14340 0.64340 -0.27100
N 	N 	0.83930 0.22540 0.22540 -0.18600
C 	C 	0.88200 0.23379 0.23379 0.10100
C 	C 	0.92070 0.21910 0.21910 -0.16300
C 	C 	0.96140 0.23390 0.23390 0.12200
H 	H 	0.92045 0.19783 0.19783 0.12900
O 	O 	0.80330 0.14340 0.14340 -0.27100
N 	N 	0.66070 0.22540 0.27460 -0.18600
C 	C 	0.61800 0.23379 0.26621 0.10200
C 	C 	0.57930 0.21910 0.28090 -0.16500
C 	C 	0.53860 0.23390 0.26610 0.12900
H 	H 	0.57955 0.19783 0.30217 0.13100
O 	O 	0.69670 0.14340 0.35660 -0.27100
N 	N 	0.16070 0.22540 0.77460 -0.18600
C 	C 	0.11800 0.23379 0.76621 0.10200
C 	C 	0.07930 0.21910 0.78090 -0.16400
C 	C 	0.03860 0.23390 0.76610 0.12900
H 	H 	0.07955 0.19783 0.80217 0.13100
O 	O 	0.19670 0.14340 0.85660 -0.27200
N 	N 	0.66070 0.77460 0.72540 -0.18600
C 	C 	0.61800 0.76621 0.73380 0.10200
C 	C 	0.57930 0.78090 0.71910 -0.16500
C 	C 	0.53860 0.76610 0.73390 0.12800
H 	H 	0.57955 0.80217 0.69783 0.13000
O 	O 	0.69670 0.85660 0.64340 -0.27300
N 	N 	0.66070 0.27460 0.22540 -0.18600
C 	C 	0.61800 0.26621 0.23379 0.10200
C 	C 	0.57930 0.28090 0.21910 -0.16500
C 	C 	0.53860 0.26610 0.23390 0.12900
H 	H 	0.57955 0.30217 0.19783 0.13100
O 	O 	0.69670 0.35660 0.14340 -0.27100
N 	N 	0.16070 0.77460 0.22540 -0.18600
C 	C 	0.11800 0.76621 0.23379 0.10200
C 	C 	0.07930 0.78090 0.21910 -0.16400
C 	C 	0.03860 0.76610 0.23390 0.12900
H 	H 	0.07955 0.80217 0.19783 0.13100
O 	O 	0.19670 0.85660 0.14340 -0.27200
N 	N 	0.33930 0.77460 0.27460 -0.18600
C 	C 	0.38200 0.76621 0.26621 0.10200
C 	C 	0.42070 0.78090 0.28090 -0.16500
C 	C 	0.46140 0.76610 0.26610 0.12800
H 	H 	0.42045 0.80217 0.30217 0.13000
O 	O 	0.30330 0.85660 0.35660 -0.27200
N 	N 	0.83930 0.77460 0.77460 -0.18600
C 	C 	0.88200 0.76621 0.76621 0.10100
C 	C 	0.92070 0.78090 0.78090 -0.16300
C 	C 	0.96140 0.76610 0.76610 0.12200
H 	H 	0.92045 0.80217 0.80217 0.12800
O 	O 	0.80330 0.85660 0.85660 -0.27300
N 	N 	0.83930 0.27460 0.27460 -0.18600
C 	C 	0.88200 0.26621 0.26621 0.10100
C 	C 	0.92070 0.28090 0.28090 -0.16200
C 	C 	0.96140 0.26610 0.26610 0.12200
H 	H 	0.92045 0.30217 0.30217 0.12900
O 	O 	0.80330 0.35660 0.35660 -0.27200
N 	N 	0.22540 0.27460 0.66070 -0.18600
C 	C 	0.23379 0.26621 0.61800 0.10200
C 	C 	0.21910 0.28090 0.57930 -0.16500
C 	C 	0.23390 0.26610 0.53860 0.12900
H 	H 	0.19783 0.30217 0.57955 0.13100
O 	O 	0.14340 0.35660 0.69670 -0.27100
N 	N 	0.22540 0.77460 0.16070 -0.18600
C 	C 	0.23379 0.76621 0.11800 0.10200
C 	C 	0.21910 0.78090 0.07930 -0.16400
C 	C 	0.23390 0.76610 0.03860 0.12900
H 	H 	0.19783 0.80217 0.07955 0.13100
O 	O 	0.14340 0.85660 0.19670 -0.27200
N 	N 	0.22540 0.72540 0.33930 -0.18600
C 	C 	0.23379 0.73380 0.38200 0.10200
C 	C 	0.21910 0.71910 0.42070 -0.16500
C 	C 	0.23390 0.73390 0.46140 0.12900
H 	H 	0.19783 0.69783 0.42045 0.13100
O 	O 	0.14340 0.64340 0.30330 -0.27100
N 	N 	0.22540 0.22540 0.83930 -0.18600
C 	C 	0.23379 0.23379 0.88200 0.10100
C 	C 	0.21910 0.21910 0.92070 -0.16300
C 	C 	0.23390 0.23390 0.96140 0.12200
H 	H 	0.19783 0.19783 0.92045 0.12900
O 	O 	0.14340 0.14340 0.80330 -0.27100
N 	N 	0.77460 0.27460 0.33930 -0.18600
C 	C 	0.76621 0.26621 0.38200 0.10200
C 	C 	0.78090 0.28090 0.42070 -0.16500
C 	C 	0.76610 0.26610 0.46140 0.12800
H 	H 	0.80217 0.30217 0.42045 0.13000
O 	O 	0.85660 0.35660 0.30330 -0.27200
N 	N 	0.77460 0.77460 0.83930 -0.18600
C 	C 	0.76621 0.76621 0.88200 0.10100
C 	C 	0.78090 0.78090 0.92070 -0.16300
C 	C 	0.76610 0.76610 0.96140 0.12200
H 	H 	0.80217 0.80217 0.92045 0.12800
O 	O 	0.85660 0.85660 0.80330 -0.27300
N 	N 	0.27460 0.27460 0.83930 -0.18600
C 	C 	0.26621 0.26621 0.88200 0.10100
C 	C 	0.28090 0.28090 0.92070 -0.16200
C 	C 	0.26610 0.26610 0.96140 0.12200
H 	H 	0.30217 0.30217 0.92045 0.12900
O 	O 	0.35660 0.35660 0.80330 -0.27200
N 	N 	0.77460 0.72540 0.66070 -0.18600
C 	C 	0.76621 0.73380 0.61800 0.10200
C 	C 	0.78090 0.71910 0.57930 -0.16500
C 	C 	0.76610 0.73390 0.53860 0.12800
H 	H 	0.80217 0.69783 0.57955 0.13000
O 	O 	0.85660 0.64340 0.69670 -0.27300
N 	N 	0.77460 0.22540 0.16070 -0.18600
C 	C 	0.76621 0.23379 0.11800 0.10200
C 	C 	0.78090 0.21910 0.07930 -0.16400
C 	C 	0.76610 0.23390 0.03860 0.12900
H 	H 	0.80217 0.19783 0.07955 0.13100
O 	O 	0.85660 0.14340 0.19670 -0.27200
N 	N 	0.27460 0.22540 0.66070 -0.18600
C 	C 	0.26621 0.23379 0.61800 0.10200
C 	C 	0.28090 0.21910 0.57930 -0.16500
C 	C 	0.26610 0.23390 0.53860 0.12900
H 	H 	0.30217 0.19783 0.57955 0.13100
O 	O 	0.35660 0.14340 0.69670 -0.27100
N 	N 	0.66070 0.72540 0.77460 -0.18600
C 	C 	0.61800 0.73380 0.76621 0.10200
C 	C 	0.57930 0.71910 0.78090 -0.16500
C 	C 	0.53860 0.73390 0.76610 0.12800
H 	H 	0.57955 0.69783 0.80217 0.13000
O 	O 	0.69670 0.64340 0.85660 -0.27300
N 	N 	0.16070 0.72540 0.27460 -0.18600
C 	C 	0.11800 0.73380 0.26621 0.10200
C 	C 	0.07930 0.71910 0.28090 -0.16400
C 	C 	0.03860 0.73390 0.26610 0.12900
H 	H 	0.07955 0.69783 0.30217 0.13100
O 	O 	0.19670 0.64340 0.35660 -0.27200
N 	N 	0.33930 0.27460 0.77460 -0.18600
C 	C 	0.38200 0.26621 0.76621 0.10200
C 	C 	0.42070 0.28090 0.78090 -0.16500
C 	C 	0.46140 0.26610 0.76610 0.12800
H 	H 	0.42045 0.30217 0.80217 0.13000
O 	O 	0.30330 0.35660 0.85660 -0.27200
N 	N 	0.33930 0.72540 0.22540 -0.18600
C 	C 	0.38200 0.73380 0.23379 0.10200
C 	C 	0.42070 0.71910 0.21910 -0.16500
C 	C 	0.46140 0.73390 0.23390 0.12900
H 	H 	0.42045 0.69783 0.19783 0.13100
O 	O 	0.30330 0.64340 0.14340 -0.27100
N 	N 	0.83930 0.72540 0.72540 -0.18600
C 	C 	0.88200 0.73380 0.73380 0.10100
C 	C 	0.92070 0.71910 0.71910 -0.16300
C 	C 	0.96140 0.73390 0.73390 0.12200
H 	H 	0.92045 0.69783 0.69783 0.12800
O 	O 	0.80330 0.64340 0.64340 -0.27200
N 	N 	0.16070 0.27460 0.72540 -0.18600
C 	C 	0.11800 0.26621 0.73380 0.10200
C 	C 	0.07930 0.28090 0.71910 -0.16400
C 	C 	0.03860 0.26610 0.73390 0.12900
H 	H 	0.07955 0.30217 0.69783 0.13100
O 	O 	0.19670 0.35660 0.64340 -0.27200
N 	N 	0.77460 0.66070 0.72540 -0.18600
C 	C 	0.76621 0.61800 0.73380 0.10200
C 	C 	0.78090 0.57930 0.71910 -0.16500
C 	C 	0.76610 0.53860 0.73390 0.12800
H 	H 	0.80217 0.57955 0.69783 0.13000
O 	O 	0.85660 0.69670 0.64340 -0.27300
N 	N 	0.77460 0.16070 0.22540 -0.18600
C 	C 	0.76621 0.11800 0.23379 0.10200
C 	C 	0.78090 0.07930 0.21910 -0.16400
C 	C 	0.76610 0.03860 0.23390 0.12900
H 	H 	0.80217 0.07955 0.19783 0.13100
O 	O 	0.85660 0.19670 0.14340 -0.27200
N 	N 	0.77460 0.33930 0.27460 -0.18600
C 	C 	0.76621 0.38200 0.26621 0.10200
C 	C 	0.78090 0.42070 0.28090 -0.16500
C 	C 	0.76610 0.46140 0.26610 0.12800
H 	H 	0.80217 0.42045 0.30217 0.13000
O 	O 	0.85660 0.30330 0.35660 -0.27200
N 	N 	0.77460 0.83930 0.77460 -0.18600
C 	C 	0.76621 0.88200 0.76621 0.10100
C 	C 	0.78090 0.92070 0.78090 -0.16300
C 	C 	0.76610 0.96140 0.76610 0.12200
H 	H 	0.80217 0.92045 0.80217 0.12800
O 	O 	0.85660 0.80330 0.85660 -0.27300
N 	N 	0.22540 0.33930 0.72540 -0.18600
C 	C 	0.23379 0.38200 0.73380 0.10200
C 	C 	0.21910 0.42070 0.71910 -0.16500
C 	C 	0.23390 0.46140 0.73390 0.12900
H 	H 	0.19783 0.42045 0.69783 0.13100
O 	O 	0.14340 0.30330 0.64340 -0.27100
N 	N 	0.22540 0.16070 0.77460 -0.18600
C 	C 	0.23379 0.11800 0.76621 0.10200
C 	C 	0.21910 0.07930 0.78090 -0.16400
C 	C 	0.23390 0.03860 0.76610 0.12900
H 	H 	0.19783 0.07955 0.80217 0.13100
O 	O 	0.14340 0.19670 0.85660 -0.27200
N 	N 	0.72540 0.77460 0.66070 -0.18600
C 	C 	0.73380 0.76621 0.61800 0.10200
C 	C 	0.71910 0.78090 0.57930 -0.16500
C 	C 	0.73390 0.76610 0.53860 0.12800
H 	H 	0.69783 0.80217 0.57955 0.13000
O 	O 	0.64340 0.85660 0.69670 -0.27300
N 	N 	0.72540 0.27460 0.16070 -0.18600
C 	C 	0.73380 0.26621 0.11800 0.10200
C 	C 	0.71910 0.28090 0.07930 -0.16400
C 	C 	0.73390 0.26610 0.03860 0.12900
H 	H 	0.69783 0.30217 0.07955 0.13100
O 	O 	0.64340 0.35660 0.19670 -0.27200
N 	N 	0.27460 0.77460 0.33930 -0.18600
C 	C 	0.26621 0.76621 0.38200 0.10200
C 	C 	0.28090 0.78090 0.42070 -0.16500
C 	C 	0.26610 0.76610 0.46140 0.12800
H 	H 	0.30217 0.80217 0.42045 0.13000
O 	O 	0.35660 0.85660 0.30330 -0.27200
N 	N 	0.72540 0.22540 0.33930 -0.18600
C 	C 	0.73380 0.23379 0.38200 0.10200
C 	C 	0.71910 0.21910 0.42070 -0.16500
C 	C 	0.73390 0.23390 0.46140 0.12900
H 	H 	0.69783 0.19783 0.42045 0.13100
O 	O 	0.64340 0.14340 0.30330 -0.27100
N 	N 	0.72540 0.72540 0.83930 -0.18600
C 	C 	0.73380 0.73380 0.88200 0.10100
C 	C 	0.71910 0.71910 0.92070 -0.16300
C 	C 	0.73390 0.73390 0.96140 0.12200
H 	H 	0.69783 0.69783 0.92045 0.12800
O 	O 	0.64340 0.64340 0.80330 -0.27200
N 	N 	0.27460 0.72540 0.16070 -0.18600
C 	C 	0.26621 0.73380 0.11800 0.10200
C 	C 	0.28090 0.71910 0.07930 -0.16400
C 	C 	0.26610 0.73390 0.03860 0.12900
H 	H 	0.30217 0.69783 0.07955 0.13100
O 	O 	0.35660 0.64340 0.19670 -0.27200
N 	N 	0.72540 0.66070 0.22540 -0.18600
C 	C 	0.73380 0.61800 0.23379 0.10200
C 	C 	0.71910 0.57930 0.21910 -0.16500
C 	C 	0.73390 0.53860 0.23390 0.12900
H 	H 	0.69783 0.57955 0.19783 0.13100
O 	O 	0.64340 0.69670 0.14340 -0.27100
N 	N 	0.72540 0.16070 0.72540 -0.18600
C 	C 	0.73380 0.11800 0.73380 0.10200
C 	C 	0.71910 0.07930 0.71910 -0.16400
C 	C 	0.73390 0.03860 0.73390 0.12900
H 	H 	0.69783 0.07955 0.69783 0.13100
O 	O 	0.64340 0.19670 0.64340 -0.27200
N 	N 	0.27460 0.83930 0.72540 -0.18600
C 	C 	0.26621 0.88200 0.73380 0.10100
C 	C 	0.28090 0.92070 0.71910 -0.16300
C 	C 	0.26610 0.96140 0.73390 0.12200
H 	H 	0.30217 0.92045 0.69783 0.12800
O 	O 	0.35660 0.80330 0.64340 -0.27200
N 	N 	0.72540 0.33930 0.77460 -0.18600
C 	C 	0.73380 0.38200 0.76621 0.10200
C 	C 	0.71910 0.42070 0.78090 -0.16500
C 	C 	0.73390 0.46140 0.76610 0.12800
H 	H 	0.69783 0.42045 0.80217 0.13000
O 	O 	0.64340 0.30330 0.85660 -0.27200
N 	N 	0.72540 0.83930 0.27460 -0.18600
C 	C 	0.73380 0.88200 0.26621 0.10100
C 	C 	0.71910 0.92070 0.28090 -0.16300
C 	C 	0.73390 0.96140 0.26610 0.12200
H 	H 	0.69783 0.92045 0.30217 0.12800
O 	O 	0.64340 0.80330 0.35660 -0.27200
N 	N 	0.27460 0.66070 0.77460 -0.18600
C 	C 	0.26621 0.61800 0.76621 0.10200
C 	C 	0.28090 0.57930 0.78090 -0.16500
C 	C 	0.26610 0.53860 0.76610 0.12800
H 	H 	0.30217 0.57955 0.80217 0.13000
O 	O 	0.35660 0.69670 0.85660 -0.27300
N 	N 	0.66070 0.77460 0.27460 -0.18600
C 	C 	0.61800 0.76621 0.26621 0.10200
C 	C 	0.57930 0.78090 0.28090 -0.16500
C 	C 	0.53860 0.76610 0.26610 0.12800
H 	H 	0.57955 0.80217 0.30217 0.13000
O 	O 	0.69670 0.85660 0.35660 -0.27300
N 	N 	0.16070 0.77460 0.77460 -0.18600
C 	C 	0.11800 0.76621 0.76621 0.10200
C 	C 	0.07930 0.78090 0.78090 -0.16400
C 	C 	0.03860 0.76610 0.76610 0.12800
H 	H 	0.07955 0.80217 0.80217 0.13000
O 	O 	0.19670 0.85660 0.85660 -0.27300
N 	N 	0.33930 0.77460 0.72540 -0.18600
C 	C 	0.38200 0.76621 0.73380 0.10200
C 	C 	0.42070 0.78090 0.71910 -0.16500
C 	C 	0.46140 0.76610 0.73390 0.12800
H 	H 	0.42045 0.80217 0.69783 0.13000
O 	O 	0.30330 0.85660 0.64340 -0.27200
N 	N 	0.83930 0.77460 0.22540 -0.18600
C 	C 	0.88200 0.76621 0.23379 0.10100
C 	C 	0.92070 0.78090 0.21910 -0.16300
C 	C 	0.96140 0.76610 0.23390 0.12200
H 	H 	0.92045 0.80217 0.19783 0.12800
O 	O 	0.80330 0.85660 0.14340 -0.27200
N 	N 	0.83930 0.22540 0.77460 -0.18600
C 	C 	0.88200 0.23379 0.76621 0.10100
C 	C 	0.92070 0.21910 0.78090 -0.16300
C 	C 	0.96140 0.23390 0.76610 0.12200
H 	H 	0.92045 0.19783 0.80217 0.12800
O 	O 	0.80330 0.14340 0.85660 -0.27200
N 	N 	0.66070 0.22540 0.72540 -0.18600
C 	C 	0.61800 0.23379 0.73380 0.10200
C 	C 	0.57930 0.21910 0.71910 -0.16500
C 	C 	0.53860 0.23390 0.73390 0.12900
H 	H 	0.57955 0.19783 0.69783 0.13100
O 	O 	0.69670 0.14340 0.64340 -0.27100
N 	N 	0.77460 0.72540 0.33930 -0.18600
C 	C 	0.76621 0.73380 0.38200 0.10200
C 	C 	0.78090 0.71910 0.42070 -0.16500
C 	C 	0.76610 0.73390 0.46140 0.12800
H 	H 	0.80217 0.69783 0.42045 0.13000
O 	O 	0.85660 0.64340 0.30330 -0.27200
N 	N 	0.77460 0.22540 0.83930 -0.18600
C 	C 	0.76621 0.23379 0.88200 0.10100
C 	C 	0.78090 0.21910 0.92070 -0.16300
C 	C 	0.76610 0.23390 0.96140 0.12200
H 	H 	0.80217 0.19783 0.92045 0.12800
O 	O 	0.85660 0.14340 0.80330 -0.27200
N 	N 	0.77460 0.27460 0.66070 -0.18600
C 	C 	0.76621 0.26621 0.61800 0.10200
C 	C 	0.78090 0.28090 0.57930 -0.16500
C 	C 	0.76610 0.26610 0.53860 0.12800
H 	H 	0.80217 0.30217 0.57955 0.13000
O 	O 	0.85660 0.35660 0.69670 -0.27300
N 	N 	0.77460 0.77460 0.16070 -0.18600
C 	C 	0.76621 0.76621 0.11800 0.10200
C 	C 	0.78090 0.78090 0.07930 -0.16400
C 	C 	0.76610 0.76610 0.03860 0.12800
H 	H 	0.80217 0.80217 0.07955 0.13000
O 	O 	0.85660 0.85660 0.19670 -0.27300
N 	N 	0.22540 0.72540 0.66070 -0.18600
C 	C 	0.23379 0.73380 0.61800 0.10200
C 	C 	0.21910 0.71910 0.57930 -0.16500
C 	C 	0.23390 0.73390 0.53860 0.12900
H 	H 	0.19783 0.69783 0.57955 0.13100
O 	O 	0.14340 0.64340 0.69670 -0.27100
N 	N 	0.22540 0.77460 0.83930 -0.18600
C 	C 	0.23379 0.76621 0.88200 0.10100
C 	C 	0.21910 0.78090 0.92070 -0.16300
C 	C 	0.23390 0.76610 0.96140 0.12200
H 	H 	0.19783 0.80217 0.92045 0.12800
O 	O 	0.14340 0.85660 0.80330 -0.27200
N 	N 	0.31410 0.25000 0.25000 -0.20000
N 	N 	0.81410 0.25000 0.75000 -0.20000
N 	N 	0.68590 0.75000 0.25000 -0.20000
N 	N 	0.18590 0.75000 0.75000 -0.20000
N 	N 	0.18590 0.25000 0.25000 -0.20000
N 	N 	0.68590 0.25000 0.75000 -0.20000
N 	N 	0.31410 0.75000 0.75000 -0.20000
N 	N 	0.81410 0.75000 0.25000 -0.20000
N 	N 	0.25000 0.31410 0.25000 -0.20000
N 	N 	0.25000 0.81410 0.75000 -0.20000
N 	N 	0.25000 0.68590 0.75000 -0.20000
N 	N 	0.25000 0.18590 0.25000 -0.20000
N 	N 	0.75000 0.68590 0.25000 -0.20000
N 	N 	0.75000 0.18590 0.75000 -0.20000
N 	N 	0.75000 0.31410 0.75000 -0.20000
N 	N 	0.75000 0.81410 0.25000 -0.20000
N 	N 	0.25000 0.25000 0.31410 -0.20000
N 	N 	0.25000 0.75000 0.81410 -0.20000
N 	N 	0.75000 0.25000 0.68590 -0.20000
N 	N 	0.75000 0.75000 0.18590 -0.20000
N 	N 	0.25000 0.25000 0.18590 -0.20000
N 	N 	0.25000 0.75000 0.68590 -0.20000
N 	N 	0.75000 0.75000 0.31410 -0.20000
N 	N 	0.75000 0.25000 0.81410 -0.20000
N 	N 	0.25000 0.31410 0.75000 -0.20000
N 	N 	0.25000 0.81410 0.25000 -0.20000
N 	N 	0.75000 0.68590 0.75000 -0.20000
N 	N 	0.75000 0.18590 0.25000 -0.20000
N 	N 	0.25000 0.68590 0.25000 -0.20000
N 	N 	0.25000 0.18590 0.75000 -0.20000
N 	N 	0.75000 0.31410 0.25000 -0.20000
N 	N 	0.75000 0.81410 0.75000 -0.20000
N 	N 	0.31410 0.25000 0.75000 -0.20000
N 	N 	0.81410 0.25000 0.25000 -0.20000
N 	N 	0.68590 0.25000 0.25000 -0.20000
N 	N 	0.18590 0.25000 0.75000 -0.20000
N 	N 	0.68590 0.75000 0.75000 -0.20000
N 	N 	0.18590 0.75000 0.25000 -0.20000
N 	N 	0.31410 0.75000 0.25000 -0.20000
N 	N 	0.81410 0.75000 0.75000 -0.20000
N 	N 	0.25000 0.25000 0.68590 -0.20000
N 	N 	0.25000 0.75000 0.18590 -0.20000
N 	N 	0.25000 0.75000 0.31410 -0.20000
N 	N 	0.25000 0.25000 0.81410 -0.20000
N 	N 	0.75000 0.25000 0.31410 -0.20000
N 	N 	0.75000 0.75000 0.81410 -0.20000
N 	N 	0.75000 0.75000 0.68590 -0.20000
N 	N 	0.75000 0.25000 0.18590 -0.20000
O 	O 	0.50000 0.28198 0.21802 -0.20600
O 	O 	-0.00000 0.28198 0.71802 -0.20000
O 	O 	0.50000 0.71802 0.21802 -0.20600
O 	O 	0.00000 0.71802 0.71802 -0.20000
O 	O 	0.50000 0.28198 0.78198 -0.20700
O 	O 	-0.00000 0.28198 0.28198 -0.20000
O 	O 	0.50000 0.71802 0.78198 -0.20700
O 	O 	0.00000 0.71802 0.28198 -0.20000
O 	O 	0.21802 0.50000 0.28198 -0.20600
O 	O 	0.21802 0.00000 0.78198 -0.20000
O 	O 	0.21802 0.50000 0.71802 -0.20600
O 	O 	0.21802 0.00000 0.21802 -0.19900
O 	O 	0.78198 0.50000 0.28198 -0.20700
O 	O 	0.78198 0.00000 0.78198 -0.20100
O 	O 	0.78198 0.50000 0.71802 -0.20700
O 	O 	0.78198 0.00000 0.21802 -0.20000
O 	O 	0.28198 0.21802 0.50000 -0.20600
O 	O 	0.28198 0.71802 -0.00000 -0.20000
O 	O 	0.71802 0.21802 0.50000 -0.20600
O 	O 	0.71802 0.71802 -0.00000 -0.20000
O 	O 	0.28198 0.78198 0.50000 -0.20700
O 	O 	0.28198 0.28198 -0.00000 -0.20000
O 	O 	0.71802 0.78198 0.50000 -0.20700
O 	O 	0.71802 0.28198 -0.00000 -0.20000
O 	O 	0.28198 0.50000 0.78198 -0.20700
O 	O 	0.28198 -0.00000 0.28198 -0.20000
O 	O 	0.71802 0.50000 0.78198 -0.20700
O 	O 	0.71802 -0.00000 0.28198 -0.20000
O 	O 	0.28198 0.50000 0.21802 -0.20600
O 	O 	0.28198 0.00000 0.71802 -0.20000
O 	O 	0.71802 0.50000 0.21802 -0.20600
O 	O 	0.71802 0.00000 0.71802 -0.20000
O 	O 	0.50000 0.21802 0.71802 -0.20600
O 	O 	0.00000 0.21802 0.21802 -0.19900
O 	O 	0.50000 0.21802 0.28198 -0.20600
O 	O 	0.00000 0.21802 0.78198 -0.20000
O 	O 	0.50000 0.78198 0.71802 -0.20700
O 	O 	0.00000 0.78198 0.21802 -0.20000
O 	O 	0.50000 0.78198 0.28198 -0.20700
O 	O 	0.00000 0.78198 0.78198 -0.20100
O 	O 	0.21802 0.28198 0.50000 -0.20600
O 	O 	0.21802 0.78198 -0.00000 -0.20000
O 	O 	0.21802 0.71802 0.50000 -0.20600
O 	O 	0.21802 0.21802 -0.00000 -0.19900
O 	O 	0.78198 0.28198 0.50000 -0.20700
O 	O 	0.78198 0.78198 -0.00000 -0.20100
O 	O 	0.78198 0.71802 0.50000 -0.20700
O 	O 	0.78198 0.21802 -0.00000 -0.20000
Zn	Zn	0.25000 0.25000 0.25000 1.19600
Zn	Zn	0.75000 0.75000 0.25000 1.19600
Zn	Zn	0.75000 0.25000 0.75000 1.19600
Zn	Zn	0.25000 0.75000 0.75000 1.19600
Zn	Zn	0.25000 0.25000 0.75000 1.19600
Zn	Zn	0.75000 0.75000 0.75000 1.19600
Zn	Zn	0.75000 0.25000 0.25000 1.19600
Zn	Zn	0.25000 0.75000 0.25000 1.19600
Cu	Cu	0.31460 0.31460 0.18540 0.94600
C 	C 	0.35660 0.35660 0.14340 0.11100
H 	H 	0.37491 0.37491 0.12509 0.03900
Cu	Cu	0.68540 0.68540 0.18540 0.94600
C 	C 	0.64340 0.64340 0.14340 0.11100
H 	H 	0.62509 0.62509 0.12509 0.03900
Cu	Cu	0.18540 0.18540 0.18540 0.94600
C 	C 	0.14340 0.14340 0.14340 0.11100
H 	H 	0.12509 0.12509 0.12509 0.04100
Cu	Cu	0.68540 0.31460 0.81460 0.94600
C 	C 	0.64340 0.35660 0.85660 0.11100
H 	H 	0.62509 0.37491 0.87491 0.03700
Cu	Cu	0.18540 0.31460 0.31460 0.94600
C 	C 	0.14340 0.35660 0.35660 0.11100
H 	H 	0.12509 0.37491 0.37491 0.03900
Cu	Cu	0.31460 0.68540 0.81460 0.94600
C 	C 	0.35660 0.64340 0.85660 0.11100
H 	H 	0.37491 0.62509 0.87491 0.03700
Cu	Cu	0.31460 0.18540 0.31460 0.94600
C 	C 	0.35660 0.14340 0.35660 0.11100
H 	H 	0.37491 0.12509 0.37491 0.03900
Cu	Cu	0.18540 0.81460 0.81460 0.94600
C 	C 	0.14340 0.85660 0.85660 0.11100
H 	H 	0.12509 0.87491 0.87491 0.03700
Cu	Cu	0.18540 0.68540 0.68540 0.94600
C 	C 	0.14340 0.64340 0.64340 0.11100
H 	H 	0.12509 0.62509 0.62509 0.03900
Cu	Cu	0.81460 0.68540 0.31460 0.94600
C 	C 	0.85660 0.64340 0.35660 0.11100
H 	H 	0.87491 0.62509 0.37491 0.03700
Cu	Cu	0.81460 0.18540 0.81460 0.94600
C 	C 	0.85660 0.14340 0.85660 0.11100
H 	H 	0.87491 0.12509 0.87491 0.03700
Cu	Cu	0.81460 0.31460 0.68540 0.94600
C 	C 	0.85660 0.35660 0.64340 0.11100
H 	H 	0.87491 0.37491 0.62509 0.03700
Cu	Cu	0.81460 0.81460 0.18540 0.94600
C 	C 	0.85660 0.85660 0.14340 0.11100
H 	H 	0.87491 0.87491 0.12509 0.03700
Cu	Cu	0.68540 0.18540 0.68540 0.94600
C 	C 	0.64340 0.14340 0.64340 0.11100
H 	H 	0.62509 0.12509 0.62509 0.03900
Cu	Cu	0.31460 0.81460 0.68540 0.94600
C 	C 	0.35660 0.85660 0.64340 0.11100
H 	H 	0.37491 0.87491 0.62509 0.03700
Cu	Cu	0.68540 0.81460 0.31460 0.94600
C 	C 	0.64340 0.85660 0.35660 0.11100
H 	H 	0.62509 0.87491 0.37491 0.03700
Cu	Cu	0.31460 0.31460 0.81460 0.94600
C 	C 	0.35660 0.35660 0.85660 0.11100
H 	H 	0.37491 0.37491 0.87491 0.03700
Cu	Cu	0.68540 0.68540 0.81460 0.94600
C 	C 	0.64340 0.64340 0.85660 0.11100
H 	H 	0.62509 0.62509 0.87491 0.03700
Cu	Cu	0.68540 0.18540 0.31460 0.94600
C 	C 	0.64340 0.14340 0.35660 0.11100
H 	H 	0.62509 0.12509 0.37491 0.03900
Cu	Cu	0.18540 0.68540 0.31460 0.94600
C 	C 	0.14340 0.64340 0.35660 0.11100
H 	H 	0.12509 0.62509 0.37491 0.03900
Cu	Cu	0.31460 0.68540 0.18540 0.94600
C 	C 	0.35660 0.64340 0.14340 0.11100
H 	H 	0.37491 0.62509 0.12509 0.03900
Cu	Cu	0.68540 0.31460 0.18540 0.94600
C 	C 	0.64340 0.35660 0.14340 0.11100
H 	H 	0.62509 0.37491 0.12509 0.03900
Cu	Cu	0.18540 0.81460 0.18540 0.94600
C 	C 	0.14340 0.85660 0.14340 0.11100
H 	H 	0.12509 0.87491 0.12509 0.03900
Cu	Cu	0.31460 0.18540 0.68540 0.94600
C 	C 	0.35660 0.14340 0.64340 0.11100
H 	H 	0.37491 0.12509 0.62509 0.03900
Cu	Cu	0.18540 0.18540 0.81460 0.94600
C 	C 	0.14340 0.14340 0.85660 0.11100
H 	H 	0.12509 0.12509 0.87491 0.03900
Cu	Cu	0.68540 0.81460 0.68540 0.94600
C 	C 	0.64340 0.85660 0.64340 0.11100
H 	H 	0.62509 0.87491 0.62509 0.03700
Cu	Cu	0.18540 0.31460 0.68540 0.94600
C 	C 	0.14340 0.35660 0.64340 0.11100
H 	H 	0.12509 0.37491 0.62509 0.03900
Cu	Cu	0.31460 0.81460 0.31460 0.94600
C 	C 	0.35660 0.85660 0.35660 0.11100
H 	H 	0.37491 0.87491 0.37491 0.03700
Cu	Cu	0.81460 0.31460 0.31460 0.94600
C 	C 	0.85660 0.35660 0.35660 0.11100
H 	H 	0.87491 0.37491 0.37491 0.03700
Cu	Cu	0.81460 0.81460 0.81460 0.94600
C 	C 	0.85660 0.85660 0.85660 0.11100
H 	H 	0.87491 0.87491 0.87491 0.03500
Cu	Cu	0.81460 0.68540 0.68540 0.94600
C 	C 	0.85660 0.64340 0.64340 0.11100
H 	H 	0.87491 0.62509 0.62509 0.03700
Cu	Cu	0.81460 0.18540 0.18540 0.94600
C 	C 	0.85660 0.14340 0.14340 0.11100
H 	H 	0.87491 0.12509 0.12509 0.03900
