data_crystal

_cell_length_a 13.98700
_cell_length_b 26.97100
_cell_length_c 7.59500
_cell_angle_alpha 90.00000
_cell_angle_beta  90.00000
_cell_angle_gamma 91.74000

_symmetry_space_group_name_	'P 1'
_symmetry_space_group_name_H-M	'P 1'

loop_
_symmetry_equiv_pos_as_xyz
  x,y,z

loop_
_atom_site_label
_atom_site_type_symbol
_atom_site_fract_x
_atom_site_fract_y
_atom_site_fract_z
_atom_site_charge
Cd	Cd	0.27557 0.13524 0.87910 1.17900
N 	N 	0.25490 0.07990 0.09580 -0.20400
N 	N 	0.25000 0.92170 0.65360 -0.18800
N 	N 	0.17390 0.80040 0.08920 -0.15600
N 	N 	0.87580 0.83230 0.13120 -0.18000
N 	N 	0.31820 0.19300 0.65210 -0.20500
N 	N 	0.44250 0.12560 0.83630 -0.23000
C 	C 	0.25210 0.04920 0.19920 -0.27700
C 	C 	0.25000 0.04880 0.54610 -0.28000
C 	C 	0.10840 0.78120 0.15150 -0.25600
C 	C 	0.92430 0.80140 0.17530 -0.18600
C 	C 	0.42010 0.18990 0.62200 -0.06500
C 	C 	0.47600 0.15920 0.69900 0.02100
C 	C 	0.58160 0.15830 0.65600 -0.07500
Cd	Cd	0.27557 0.63524 0.37910 1.18200
N 	N 	0.25490 0.57990 0.59580 -0.20300
N 	N 	0.25000 0.42170 0.15360 -0.18600
N 	N 	0.17390 0.30040 0.58920 -0.15600
N 	N 	0.87580 0.33230 0.63120 -0.18200
N 	N 	0.31820 0.69300 0.15210 -0.20400
N 	N 	0.44250 0.62560 0.33630 -0.22500
C 	C 	0.25210 0.54920 0.69920 -0.25800
C 	C 	0.25000 0.54880 0.04610 -0.25800
C 	C 	0.10840 0.28120 0.65150 -0.25900
C 	C 	0.92430 0.30140 0.67530 -0.18400
C 	C 	0.42010 0.68990 0.12200 -0.06400
C 	C 	0.47600 0.65920 0.19900 0.02300
C 	C 	0.58160 0.65830 0.15600 -0.07300
Cd	Cd	0.22443 0.86476 0.87910 1.18300
N 	N 	0.24510 0.92010 0.09580 -0.20400
N 	N 	0.25000 0.07830 0.65360 -0.18800
N 	N 	0.32610 0.19960 0.08920 -0.15800
N 	N 	0.62420 0.16770 0.13120 -0.18200
N 	N 	0.18180 0.80700 0.65210 -0.20700
N 	N 	0.05750 0.87440 0.83630 -0.23200
C 	C 	0.24790 0.95080 0.19920 -0.22300
C 	C 	0.25000 0.95120 0.54610 -0.22500
C 	C 	0.39160 0.21880 0.15150 -0.23600
C 	C 	0.57570 0.19860 0.17530 -0.23400
C 	C 	0.07990 0.81010 0.62200 -0.06500
C 	C 	0.02400 0.84080 0.69900 -0.05100
C 	C 	0.91840 0.84170 0.65600 0.00200
Cd	Cd	0.22443 0.36476 0.37910 1.18200
N 	N 	0.24510 0.42010 0.59580 -0.20300
N 	N 	0.25000 0.57830 0.15360 -0.18700
N 	N 	0.32610 0.69960 0.58920 -0.15800
N 	N 	0.62420 0.66770 0.63120 -0.18000
N 	N 	0.18180 0.30700 0.15210 -0.20700
N 	N 	0.05750 0.37440 0.33630 -0.23600
C 	C 	0.24790 0.45080 0.69920 -0.25800
C 	C 	0.25000 0.45120 0.04610 -0.25800
C 	C 	0.39160 0.71880 0.65150 -0.23600
C 	C 	0.57570 0.69860 0.67530 -0.23400
C 	C 	0.07990 0.31010 0.12200 -0.06400
C 	C 	0.02400 0.34080 0.19900 -0.04800
C 	C 	0.91840 0.34170 0.15600 -0.00600
Cd	Cd	0.72443 0.86476 0.12090 1.18700
N 	N 	0.74510 0.92010 0.90420 -0.19900
N 	N 	0.75000 0.07830 0.34640 -0.18400
N 	N 	0.82610 0.19960 0.91080 -0.16300
N 	N 	0.12420 0.16770 0.86880 -0.18600
N 	N 	0.68180 0.80700 0.34790 -0.20300
N 	N 	0.55750 0.87440 0.16370 -0.22000
C 	C 	0.74790 0.95080 0.80080 -0.20800
C 	C 	0.75000 0.95120 0.45390 -0.21100
C 	C 	0.89160 0.21880 0.84850 -0.19400
C 	C 	0.07570 0.19860 0.82470 -0.26600
C 	C 	0.57990 0.81010 0.37800 -0.06300
C 	C 	0.52400 0.84080 0.30100 0.02400
C 	C 	0.41840 0.84170 0.34400 -0.07000
Cd	Cd	0.72443 0.36476 0.62090 1.18500
N 	N 	0.74510 0.42010 0.40420 -0.19800
N 	N 	0.75000 0.57830 0.84640 -0.18300
N 	N 	0.82610 0.69960 0.41080 -0.16300
N 	N 	0.12420 0.66770 0.36880 -0.18400
N 	N 	0.68180 0.30700 0.84790 -0.20300
N 	N 	0.55750 0.37440 0.66370 -0.22500
C 	C 	0.74790 0.45080 0.30080 -0.24300
C 	C 	0.75000 0.45120 0.95390 -0.24400
C 	C 	0.89160 0.71880 0.34850 -0.19600
C 	C 	0.07570 0.69860 0.32470 -0.26400
C 	C 	0.57990 0.31010 0.87800 -0.06400
C 	C 	0.52400 0.34080 0.80100 0.02300
C 	C 	0.41840 0.34170 0.84400 -0.07400
Cd	Cd	0.77557 0.13524 0.12090 1.18300
N 	N 	0.75490 0.07990 0.90420 -0.19800
N 	N 	0.75000 0.92170 0.34640 -0.18300
N 	N 	0.67390 0.80040 0.91080 -0.15600
N 	N 	0.37580 0.83230 0.86880 -0.17900
N 	N 	0.81820 0.19300 0.34790 -0.20100
N 	N 	0.94250 0.12560 0.16370 -0.21900
C 	C 	0.75210 0.04920 0.80080 -0.26200
C 	C 	0.75000 0.04880 0.45390 -0.26600
C 	C 	0.60840 0.78120 0.84850 -0.23500
C 	C 	0.42430 0.80140 0.82470 -0.23300
C 	C 	0.92010 0.18990 0.37800 -0.06000
C 	C 	0.97600 0.15920 0.30100 0.09300
C 	C 	0.08160 0.15830 0.34400 -0.14200
Cd	Cd	0.77557 0.63524 0.62090 1.18500
N 	N 	0.75490 0.57990 0.40420 -0.19800
N 	N 	0.75000 0.42170 0.84640 -0.18200
N 	N 	0.67390 0.30040 0.41080 -0.15700
N 	N 	0.37580 0.33230 0.36880 -0.18100
N 	N 	0.81820 0.69300 0.84790 -0.20000
N 	N 	0.94250 0.62560 0.66370 -0.21400
C 	C 	0.75210 0.54920 0.30080 -0.24200
C 	C 	0.75000 0.54880 0.95390 -0.24400
C 	C 	0.60840 0.28120 0.34850 -0.23500
C 	C 	0.42430 0.30140 0.32470 -0.23400
C 	C 	0.92010 0.68990 0.87800 -0.05900
C 	C 	0.97600 0.65920 0.80100 0.09800
C 	C 	0.08160 0.65830 0.84400 -0.14400
Ni	Ni	0.25000 0.00000 0.37220 1.02200
Ni	Ni	0.25000 0.50000 0.87220 1.04500
Ni	Ni	0.75000 -0.00000 0.62780 1.02600
Ni	Ni	0.75000 0.50000 0.12780 1.04900
Ni	Ni	-0.00000 0.75000 0.25000 1.02800
Ni	Ni	0.50000 0.25000 0.25000 1.06000
Ni	Ni	0.00000 0.25000 0.75000 1.02600
Ni	Ni	0.50000 0.75000 0.75000 1.06000
