data_crystal

_cell_length_a 14.06100
_cell_length_b 27.19200
_cell_length_c 7.59000
_cell_angle_alpha 90.00000
_cell_angle_beta  90.00000
_cell_angle_gamma 90.00000

_symmetry_space_group_name_	'P 1'
_symmetry_space_group_name_H-M	'P 1'

loop_
_symmetry_equiv_pos_as_xyz
  x,y,z

loop_
_atom_site_label
_atom_site_type_symbol
_atom_site_fract_x
_atom_site_fract_y
_atom_site_fract_z
_atom_site_charge
Cd	Cd	0.21473 0.11592 0.12140 1.17200
N 	N 	0.24000 0.17200 0.89300 -0.16800
N 	N 	0.24700 0.17250 0.32800 -0.21100
N 	N 	0.16000 0.05670 0.33800 -0.16500
N 	N 	0.36100 0.07700 0.11700 -0.18700
N 	N 	0.17200 0.05700 0.89900 -0.19500
N 	N 	0.05100 0.12720 0.07500 -0.26600
C 	C 	0.24300 0.20180 0.78600 -0.20800
C 	C 	0.25200 0.20130 0.43500 -0.19800
C 	C 	0.10100 0.03560 0.40300 -0.27700
C 	C 	0.41400 0.04860 0.07200 -0.26800
C 	C 	0.07300 0.05800 0.87800 -0.06400
C 	C 	0.01600 0.09200 0.93900 -0.01300
C 	C 	0.91000 0.09260 0.90900 0.01300
Cd	Cd	0.28527 0.88408 0.62140 1.18900
N 	N 	0.26000 0.82800 0.39300 -0.18400
N 	N 	0.25300 0.82750 0.82800 -0.20500
N 	N 	0.34000 0.94330 0.83800 -0.16000
N 	N 	0.13900 0.92300 0.61700 -0.18100
N 	N 	0.32800 0.94300 0.39900 -0.19900
N 	N 	0.44900 0.87280 0.57500 -0.21600
C 	C 	0.25700 0.79820 0.28600 -0.23300
C 	C 	0.24800 0.79870 0.93500 -0.15600
C 	C 	0.39900 0.96440 0.90300 -0.16100
C 	C 	0.08600 0.95140 0.57200 -0.21900
C 	C 	0.42700 0.94200 0.37800 -0.04300
C 	C 	0.48400 0.90800 0.43900 0.01200
C 	C 	0.59000 0.90740 0.40900 -0.06100
Cd	Cd	0.78527 0.61592 0.87860 1.20000
N 	N 	0.76000 0.67200 0.10700 -0.19600
N 	N 	0.75300 0.67250 0.67200 -0.19300
N 	N 	0.84000 0.55670 0.66200 -0.16100
N 	N 	0.63900 0.57700 0.88300 -0.17700
N 	N 	0.82800 0.55700 0.10100 -0.21600
N 	N 	0.94900 0.62720 0.92500 -0.17900
C 	C 	0.75700 0.70180 0.21400 -0.21700
C 	C 	0.74800 0.70130 0.56500 -0.18500
C 	C 	0.89900 0.53560 0.59700 -0.18400
C 	C 	0.58600 0.54860 0.92800 -0.18400
C 	C 	0.92700 0.55800 0.12200 -0.05400
C 	C 	0.98400 0.59200 0.06100 0.05800
C 	C 	0.09000 0.59260 0.09100 -0.15900
Cd	Cd	0.71473 0.38408 0.37860 1.18600
N 	N 	0.74000 0.32800 0.60700 -0.18100
N 	N 	0.74700 0.32750 0.17200 -0.19700
N 	N 	0.66000 0.44330 0.16200 -0.16200
N 	N 	0.86100 0.42300 0.38300 -0.18500
N 	N 	0.67200 0.44300 0.60100 -0.19900
N 	N 	0.55100 0.37280 0.42500 -0.22200
C 	C 	0.74300 0.29820 0.71400 -0.19200
C 	C 	0.75200 0.29870 0.06500 -0.22500
C 	C 	0.60100 0.46440 0.09700 -0.25300
C 	C 	0.91400 0.45140 0.42800 -0.18000
C 	C 	0.57300 0.44200 0.62200 -0.04200
C 	C 	0.51600 0.40800 0.56100 0.01600
C 	C 	0.41000 0.40740 0.59100 -0.05800
Cd	Cd	0.78527 0.88408 0.87860 1.20100
N 	N 	0.76000 0.82800 0.10700 -0.19600
N 	N 	0.75300 0.82750 0.67200 -0.19200
N 	N 	0.84000 0.94330 0.66200 -0.16100
N 	N 	0.63900 0.92300 0.88300 -0.17900
N 	N 	0.82800 0.94300 0.10100 -0.20900
N 	N 	0.94900 0.87280 0.92500 -0.17800
C 	C 	0.75700 0.79820 0.21400 -0.21600
C 	C 	0.74800 0.79870 0.56500 -0.18400
C 	C 	0.89900 0.96440 0.59700 -0.15400
C 	C 	0.58600 0.95140 0.92800 -0.15600
C 	C 	0.92700 0.94200 0.12200 -0.03700
C 	C 	0.98400 0.90800 0.06100 0.05400
C 	C 	0.09000 0.90740 0.09100 -0.14700
Cd	Cd	0.71473 0.11592 0.37860 1.18500
N 	N 	0.74000 0.17200 0.60700 -0.18100
N 	N 	0.74700 0.17250 0.17200 -0.19800
N 	N 	0.66000 0.05670 0.16200 -0.16500
N 	N 	0.86100 0.07700 0.38300 -0.18600
N 	N 	0.67200 0.05700 0.60100 -0.20600
N 	N 	0.55100 0.12720 0.42500 -0.22300
C 	C 	0.74300 0.20180 0.71400 -0.19200
C 	C 	0.75200 0.20130 0.06500 -0.22500
C 	C 	0.60100 0.03560 0.09700 -0.27300
C 	C 	0.91400 0.04860 0.42800 -0.19700
C 	C 	0.57300 0.05800 0.62200 -0.05700
C 	C 	0.51600 0.09200 0.56100 0.01900
C 	C 	0.41000 0.09260 0.59100 -0.06800
Cd	Cd	0.21473 0.38408 0.12140 1.17200
N 	N 	0.24000 0.32800 0.89300 -0.16800
N 	N 	0.24700 0.32750 0.32800 -0.21000
N 	N 	0.16000 0.44330 0.33800 -0.16300
N 	N 	0.36100 0.42300 0.11700 -0.18700
N 	N 	0.17200 0.44300 0.89900 -0.18800
N 	N 	0.05100 0.37280 0.07500 -0.26500
C 	C 	0.24300 0.29820 0.78600 -0.20700
C 	C 	0.25200 0.29870 0.43500 -0.19800
C 	C 	0.10100 0.46440 0.40300 -0.25800
C 	C 	0.41400 0.45140 0.07200 -0.25000
C 	C 	0.07300 0.44200 0.87800 -0.04900
C 	C 	0.01600 0.40800 0.93900 -0.01700
C 	C 	0.91000 0.40740 0.90900 0.02300
Cd	Cd	0.28527 0.61592 0.62140 1.18700
N 	N 	0.26000 0.67200 0.39300 -0.18500
N 	N 	0.25300 0.67250 0.82800 -0.20500
N 	N 	0.34000 0.55670 0.83800 -0.15900
N 	N 	0.13900 0.57700 0.61700 -0.17800
N 	N 	0.32800 0.55700 0.39900 -0.20600
N 	N 	0.44900 0.62720 0.57500 -0.21700
C 	C 	0.25700 0.70180 0.28600 -0.23300
C 	C 	0.24800 0.70130 0.93500 -0.15600
C 	C 	0.39900 0.53560 0.90300 -0.19100
C 	C 	0.08600 0.54860 0.57200 -0.24900
C 	C 	0.42700 0.55800 0.37800 -0.06100
C 	C 	0.48400 0.59200 0.43900 0.01600
C 	C 	0.59000 0.59260 0.40900 -0.07200
Ni	Ni	0.25010 0.25000 0.61040 1.08700
C 	C 	0.13000 0.25000 0.56000 -0.32700
Ni	Ni	0.24990 0.75000 0.11040 1.06500
C 	C 	0.37000 0.75000 0.06000 -0.34600
Ni	Ni	0.74990 0.75000 0.38960 1.08400
C 	C 	0.87000 0.75000 0.44000 -0.28600
Ni	Ni	0.75010 0.25000 0.88960 1.10600
C 	C 	0.63000 0.25000 0.94000 -0.26800
Ni	Ni	0.00000 0.00000 0.50000 1.00400
Ni	Ni	0.50000 0.00000 -0.00000 1.01200
Ni	Ni	0.00000 0.50000 0.50000 1.02400
Ni	Ni	0.50000 0.50000 -0.00000 1.03300
