data_crystal

_cell_length_a 14.15700
_cell_length_b 26.69900
_cell_length_c 7.58600
_cell_angle_alpha 90.00000
_cell_angle_beta  90.00000
_cell_angle_gamma 90.00000

_symmetry_space_group_name_	'P 1'
_symmetry_space_group_name_H-M	'P 1'

loop_
_symmetry_equiv_pos_as_xyz
  x,y,z

loop_
_atom_site_label
_atom_site_type_symbol
_atom_site_fract_x
_atom_site_fract_y
_atom_site_fract_z
_atom_site_charge
Cd	Cd	0.21894 0.11414 0.13075 1.16700
N 	N 	0.24900 0.17140 0.90500 -0.16700
N 	N 	0.24210 0.17070 0.34520 -0.20700
N 	N 	0.16700 0.05150 0.33800 -0.17000
N 	N 	0.36960 0.08000 0.12600 -0.18500
N 	N 	0.17650 0.05700 0.90100 -0.19900
N 	N 	0.05630 0.12950 0.08000 -0.27300
C 	C 	0.24900 0.20140 0.79800 -0.25200
C 	C 	0.24650 0.20080 0.45130 -0.25900
C 	C 	0.10430 0.03160 0.40100 -0.29000
C 	C 	0.42010 0.05020 0.08070 -0.27800
C 	C 	0.07530 0.06040 0.87700 -0.07400
C 	C 	0.02550 0.09860 0.93600 -0.01700
C 	C 	0.92040 0.10050 0.98960 0.02600
Cd	Cd	0.28106 0.88586 0.63075 1.18600
N 	N 	0.25100 0.82860 0.40500 -0.18200
N 	N 	0.25790 0.82930 0.84520 -0.19800
N 	N 	0.33300 0.94850 0.83800 -0.16200
N 	N 	0.13040 0.92000 0.62600 -0.17700
N 	N 	0.32350 0.94300 0.40100 -0.20200
N 	N 	0.44370 0.87050 0.58000 -0.22000
C 	C 	0.25100 0.79860 0.29800 -0.27900
C 	C 	0.25350 0.79920 0.95130 -0.21700
C 	C 	0.39570 0.96840 0.90100 -0.17000
C 	C 	0.07990 0.94980 0.58070 -0.22800
C 	C 	0.42470 0.93960 0.37700 -0.05100
C 	C 	0.47450 0.90140 0.43600 0.00400
C 	C 	0.57960 0.89950 0.48960 -0.05400
Cd	Cd	0.78106 0.61414 0.86925 1.19700
N 	N 	0.75100 0.67140 0.09500 -0.19500
N 	N 	0.75790 0.67070 0.65480 -0.19000
N 	N 	0.83300 0.55150 0.66200 -0.16300
N 	N 	0.63040 0.58000 0.87400 -0.17600
N 	N 	0.82350 0.55700 0.09900 -0.21900
N 	N 	0.94370 0.62950 0.92000 -0.17800
C 	C 	0.75100 0.70140 0.20200 -0.25900
C 	C 	0.75350 0.70080 0.54870 -0.24000
C 	C 	0.89570 0.53160 0.59900 -0.19300
C 	C 	0.57990 0.55020 0.91930 -0.19700
C 	C 	0.92470 0.56040 0.12300 -0.06300
C 	C 	0.97450 0.59860 0.06400 0.05400
C 	C 	0.07960 0.60050 0.01040 -0.16700
Cd	Cd	0.71894 0.38586 0.36925 1.18300
N 	N 	0.74900 0.32860 0.59500 -0.17900
N 	N 	0.74210 0.32930 0.15480 -0.19600
N 	N 	0.66700 0.44850 0.16200 -0.16600
N 	N 	0.86960 0.42000 0.37400 -0.18600
N 	N 	0.67650 0.44300 0.59900 -0.20200
N 	N 	0.55630 0.37050 0.42000 -0.22500
C 	C 	0.74900 0.29860 0.70200 -0.23200
C 	C 	0.74650 0.29920 0.04870 -0.27900
C 	C 	0.60430 0.46840 0.09900 -0.26200
C 	C 	0.92010 0.44980 0.41930 -0.19100
C 	C 	0.57530 0.43960 0.62300 -0.05100
C 	C 	0.52550 0.40140 0.56400 0.01600
C 	C 	0.42040 0.39950 0.51040 -0.06000
Cd	Cd	0.78106 0.88586 0.86925 1.19800
N 	N 	0.75100 0.82860 0.09500 -0.19500
N 	N 	0.75790 0.82930 0.65480 -0.18900
N 	N 	0.83300 0.94850 0.66200 -0.16300
N 	N 	0.63040 0.92000 0.87400 -0.17900
N 	N 	0.82350 0.94300 0.09900 -0.21100
N 	N 	0.94370 0.87050 0.92000 -0.17800
C 	C 	0.75100 0.79860 0.20200 -0.25800
C 	C 	0.75350 0.79920 0.54870 -0.24000
C 	C 	0.89570 0.96840 0.59900 -0.16100
C 	C 	0.57990 0.94980 0.91930 -0.16700
C 	C 	0.92470 0.93960 0.12300 -0.04500
C 	C 	0.97450 0.90140 0.06400 0.05000
C 	C 	0.07960 0.89950 0.01040 -0.15500
Cd	Cd	0.71894 0.11414 0.36925 1.18200
N 	N 	0.74900 0.17140 0.59500 -0.17900
N 	N 	0.74210 0.17070 0.15480 -0.19600
N 	N 	0.66700 0.05150 0.16200 -0.16900
N 	N 	0.86960 0.08000 0.37400 -0.18600
N 	N 	0.67650 0.05700 0.59900 -0.21000
N 	N 	0.55630 0.12950 0.42000 -0.22600
C 	C 	0.74900 0.20140 0.70200 -0.23300
C 	C 	0.74650 0.20080 0.04870 -0.27900
C 	C 	0.60430 0.03160 0.09900 -0.28300
C 	C 	0.92010 0.05020 0.41930 -0.20900
C 	C 	0.57530 0.06040 0.62300 -0.06800
C 	C 	0.52550 0.09860 0.56400 0.02000
C 	C 	0.42040 0.10050 0.51040 -0.07000
Cd	Cd	0.21894 0.38586 0.13075 1.17000
N 	N 	0.24900 0.32860 0.90500 -0.16500
N 	N 	0.24210 0.32930 0.34520 -0.20500
N 	N 	0.16700 0.44850 0.33800 -0.16700
N 	N 	0.36960 0.42000 0.12600 -0.18500
N 	N 	0.17650 0.44300 0.90100 -0.19100
N 	N 	0.05630 0.37050 0.08000 -0.27200
C 	C 	0.24900 0.29860 0.79800 -0.25100
C 	C 	0.24650 0.29920 0.45130 -0.25900
C 	C 	0.10430 0.46840 0.40100 -0.26900
C 	C 	0.42010 0.44980 0.08070 -0.25900
C 	C 	0.07530 0.43960 0.87700 -0.05800
C 	C 	0.02550 0.40140 0.93600 -0.02100
C 	C 	0.92040 0.39950 0.98960 0.03500
Cd	Cd	0.28106 0.61414 0.63075 1.18400
N 	N 	0.25100 0.67140 0.40500 -0.18300
N 	N 	0.25790 0.67070 0.84520 -0.19900
N 	N 	0.33300 0.55150 0.83800 -0.16200
N 	N 	0.13040 0.58000 0.62600 -0.17400
N 	N 	0.32350 0.55700 0.40100 -0.21000
N 	N 	0.44370 0.62950 0.58000 -0.22100
C 	C 	0.25100 0.70140 0.29800 -0.27900
C 	C 	0.25350 0.70080 0.95130 -0.21700
C 	C 	0.39570 0.53160 0.90100 -0.20300
C 	C 	0.07990 0.55020 0.58070 -0.25900
C 	C 	0.42470 0.56040 0.37700 -0.07000
C 	C 	0.47450 0.59860 0.43600 0.00800
C 	C 	0.57960 0.60050 0.48960 -0.06500
Ni	Ni	0.24890 0.25000 0.62410 1.05200
Ni	Ni	0.25110 0.75000 0.12410 1.02700
Ni	Ni	0.75110 0.75000 0.37590 1.05300
Ni	Ni	0.74890 0.25000 0.87590 1.07600
Ni	Ni	0.00000 0.00000 0.50000 1.00600
Ni	Ni	0.50000 0.00000 -0.00000 1.01500
Ni	Ni	0.00000 0.50000 0.50000 1.02800
Ni	Ni	0.50000 0.50000 -0.00000 1.03600
