data_crystal

_cell_length_a 60.67410
_cell_length_b 60.67410
_cell_length_c 5.12770
_cell_angle_alpha 90.00000
_cell_angle_beta  90.00000
_cell_angle_gamma 120.00000

_symmetry_space_group_name_	'P 1'
_symmetry_space_group_name_H-M	'P 1'

loop_
_symmetry_equiv_pos_as_xyz
  x,y,z

loop_
_atom_site_label
_atom_site_type_symbol
_atom_site_fract_x
_atom_site_fract_y
_atom_site_fract_z
_atom_site_charge
C 	C 	0.10610 0.58660 0.54200 0.02400
C 	C 	0.09030 0.57480 0.75100 -0.01400
C 	C 	0.07610 0.58470 0.86100 0.02000
C 	C 	0.08340 0.60950 0.80700 0.00000
C 	C 	0.10260 0.62280 0.61500 0.02700
C 	C 	0.11480 0.61120 0.49200 -0.03800
P 	P 	0.02345 0.54672 0.02830 0.54300
O 	O 	0.01780 0.52780 0.78800 -0.65900
O 	O 	0.01160 0.52940 0.24800 -0.72400
C 	C 	0.13390 0.62570 0.26100 0.13800
N 	N 	0.14950 0.61760 0.13100 -0.12600
O 	O 	0.00930 0.56190 0.96900 -0.18900
C 	C 	0.05870 0.57150 0.10000 -0.05400
N 	N 	0.14350 0.64990 0.26000 -0.14900
C 	C 	0.15540 0.66260 0.05400 0.17200
N 	N 	0.16860 0.65500 0.90300 -0.14200
C 	C 	0.16380 0.63060 0.92800 0.12200
C 	C 	0.16130 0.68800 0.07200 -0.03600
C 	C 	0.14790 0.69250 0.25500 0.04000
C 	C 	0.15190 0.71670 0.30700 0.01100
C 	C 	0.16680 0.73590 0.14800 0.05500
C 	C 	0.17770 0.73110 0.93200 -0.01900
C 	C 	0.17670 0.70670 0.90500 0.01900
C 	C 	0.18030 0.61980 0.77500 -0.01500
C 	C 	0.18720 0.62420 0.50800 0.03900
C 	C 	0.17980 0.59870 0.87400 0.01000
C 	C 	0.19710 0.59050 0.77200 0.01200
C 	C 	0.20530 0.59500 0.51800 0.02700
C 	C 	0.20410 0.61480 0.39000 0.04500
C 	C 	0.21270 0.57820 0.38600 -0.04100
P 	P 	0.24285 0.58427 0.46100 0.43900
C 	C 	0.16820 0.76150 0.19300 -0.01700
P 	P 	0.15332 0.76875 0.93700 0.40400
O 	O 	0.15630 0.75570 0.70600 -0.20900
O 	O 	0.16520 0.79957 0.89100 -0.67300
O 	O 	0.12290 0.75590 0.99600 -0.16900
O 	O 	0.25360 0.58110 0.21700 -0.16000
O 	O 	0.25860 0.60910 0.57500 -0.15800
O 	O 	0.24370 0.56720 0.65600 -0.19300
C 	C 	0.77277 0.91993 0.87533 -0.00300
C 	C 	0.75697 0.90813 0.08433 0.01600
C 	C 	0.74277 0.91803 0.19433 0.01500
C 	C 	0.75007 0.94283 0.14033 0.02000
C 	C 	0.76927 0.95613 0.94833 0.01100
C 	C 	0.78147 0.94453 0.82533 -0.02500
P 	P 	0.69012 0.88005 0.36163 0.54500
O 	O 	0.68447 0.86113 0.12133 -0.64200
O 	O 	0.67827 0.86273 0.58133 -0.72600
C 	C 	0.80057 0.95903 0.59433 0.13300
N 	N 	0.81617 0.95093 0.46433 -0.13400
O 	O 	0.67597 0.89523 0.30233 -0.18300
C 	C 	0.72537 0.90483 0.43333 -0.05700
N 	N 	0.81017 0.98323 0.59333 -0.14700
C 	C 	0.82207 0.99593 0.38733 0.16200
N 	N 	0.83527 0.98833 0.23633 -0.13500
C 	C 	0.83047 0.96393 0.26133 0.13600
C 	C 	0.82797 0.02133 0.40533 -0.05700
C 	C 	0.81457 0.02583 0.58833 0.04000
C 	C 	0.81857 0.05003 0.64033 0.02000
C 	C 	0.83347 0.06923 0.48133 0.02900
C 	C 	0.84437 0.06443 0.26533 0.00200
C 	C 	0.84337 0.04003 0.23833 0.03400
C 	C 	0.84697 0.95313 0.10833 -0.00900
C 	C 	0.85387 0.95753 0.84133 0.03100
C 	C 	0.84647 0.93203 0.20733 0.01700
C 	C 	0.86377 0.92383 0.10533 0.02300
C 	C 	0.87197 0.92833 0.85133 0.02200
C 	C 	0.87077 0.94813 0.72333 0.04200
C 	C 	0.87937 0.91153 0.71933 -0.04500
P 	P 	0.90952 0.91760 0.79433 0.43900
C 	C 	0.83487 0.09483 0.52633 -0.02800
P 	P 	0.81999 0.10208 0.27033 0.42000
O 	O 	0.82297 0.08903 0.03933 -0.22000
O 	O 	0.83187 0.13290 0.22433 -0.67100
O 	O 	0.78957 0.08923 0.32933 -0.16200
O 	O 	0.92027 0.91443 0.55033 -0.17000
O 	O 	0.92527 0.94243 0.90833 -0.15600
O 	O 	0.91037 0.90053 0.98933 -0.19000
C 	C 	0.43943 0.25327 0.20867 0.01800
C 	C 	0.42363 0.24147 0.41767 -0.00900
C 	C 	0.40943 0.25137 0.52767 0.02000
C 	C 	0.41673 0.27617 0.47367 0.00500
C 	C 	0.43593 0.28947 0.28167 0.02400
C 	C 	0.44813 0.27787 0.15867 -0.05700
P 	P 	0.35678 0.21339 0.69497 0.54400
O 	O 	0.35113 0.19447 0.45467 -0.66200
O 	O 	0.34493 0.19607 0.91467 -0.70400
C 	C 	0.46723 0.29237 0.92767 0.15900
N 	N 	0.48283 0.28427 0.79767 -0.13200
O 	O 	0.34263 0.22857 0.63567 -0.18700
C 	C 	0.39203 0.23817 0.76667 -0.04400
N 	N 	0.47683 0.31657 0.92667 -0.14600
C 	C 	0.48873 0.32927 0.72067 0.16200
N 	N 	0.50193 0.32167 0.56967 -0.13600
C 	C 	0.49713 0.29727 0.59467 0.13600
C 	C 	0.49463 0.35467 0.73867 -0.05700
C 	C 	0.48123 0.35917 0.92167 0.04500
C 	C 	0.48523 0.38337 0.97367 0.01900
C 	C 	0.50013 0.40257 0.81467 0.02900
C 	C 	0.51103 0.39777 0.59867 0.00400
C 	C 	0.51003 0.37337 0.57167 0.03300
C 	C 	0.51363 0.28647 0.44167 -0.01400
C 	C 	0.52053 0.29087 0.17467 0.02800
C 	C 	0.51313 0.26537 0.54067 0.02500
C 	C 	0.53043 0.25717 0.43867 0.02100
C 	C 	0.53863 0.26167 0.18467 0.02900
C 	C 	0.53743 0.28147 0.05667 0.02800
C 	C 	0.54603 0.24487 0.05267 -0.05400
P 	P 	0.57618 0.25094 0.12767 0.42300
C 	C 	0.50153 0.42817 0.85967 -0.03000
P 	P 	0.48665 0.43542 0.60367 0.42100
O 	O 	0.48963 0.42237 0.37267 -0.21400
O 	O 	0.49853 0.46624 0.55767 -0.66200
O 	O 	0.45623 0.42257 0.66267 -0.15900
O 	O 	0.58693 0.24777 0.88367 -0.15100
O 	O 	0.59193 0.27577 0.24167 -0.15700
O 	O 	0.57703 0.23387 0.32267 -0.18900
C 	C 	0.41340 0.51950 0.54200 0.02500
C 	C 	0.42520 0.51550 0.75100 -0.01300
C 	C 	0.41530 0.49140 0.86100 0.02100
C 	C 	0.39050 0.47390 0.80700 0.00100
C 	C 	0.37720 0.47980 0.61500 0.02800
C 	C 	0.38880 0.50360 0.49200 -0.03700
P 	P 	0.45328 0.47673 0.02830 0.54400
O 	O 	0.47220 0.49000 0.78800 -0.65800
O 	O 	0.47060 0.48220 0.24800 -0.72300
C 	C 	0.37430 0.50820 0.26100 0.13900
N 	N 	0.38240 0.53190 0.13100 -0.12500
O 	O 	0.43810 0.44740 0.96900 -0.18800
C 	C 	0.42850 0.48720 0.10000 -0.05300
N 	N 	0.35010 0.49360 0.26000 -0.14900
C 	C 	0.33740 0.49280 0.05400 0.17200
N 	N 	0.34500 0.51360 0.90300 -0.14200
C 	C 	0.36940 0.53320 0.92800 0.12200
C 	C 	0.31200 0.47330 0.07200 -0.03600
C 	C 	0.30750 0.45540 0.25500 0.04000
C 	C 	0.28330 0.43520 0.30700 0.01200
C 	C 	0.26410 0.43090 0.14800 0.05500
C 	C 	0.26890 0.44660 0.93200 -0.01900
C 	C 	0.29330 0.47000 0.90500 0.01900
C 	C 	0.38020 0.56050 0.77500 -0.01500
C 	C 	0.37580 0.56300 0.50800 0.03900
C 	C 	0.40130 0.58110 0.87400 0.01000
C 	C 	0.40950 0.60660 0.77200 0.01200
C 	C 	0.40500 0.61030 0.51800 0.02700
C 	C 	0.38520 0.58930 0.39000 0.04500
C 	C 	0.42180 0.63450 0.38600 -0.04100
P 	P 	0.41573 0.65858 0.46100 0.43900
C 	C 	0.23850 0.40670 0.19300 -0.01700
P 	P 	0.23125 0.38457 0.93700 0.40300
O 	O 	0.24430 0.40060 0.70600 -0.20900
O 	O 	0.20043 0.36563 0.89100 -0.67300
O 	O 	0.24410 0.36700 0.99600 -0.16900
O 	O 	0.41890 0.67250 0.21700 -0.16000
O 	O 	0.39090 0.64950 0.57500 -0.15800
O 	O 	0.43280 0.67650 0.65600 -0.19300
C 	C 	0.08007 0.85283 0.87533 -0.00300
C 	C 	0.09187 0.84883 0.08433 0.01600
C 	C 	0.08197 0.82473 0.19433 0.01500
C 	C 	0.05717 0.80723 0.14033 0.02000
C 	C 	0.04387 0.81313 0.94833 0.01100
C 	C 	0.05547 0.83693 0.82533 -0.02500
P 	P 	0.11995 0.81006 0.36163 0.54500
O 	O 	0.13887 0.82333 0.12133 -0.64200
O 	O 	0.13727 0.81553 0.58133 -0.72600
C 	C 	0.04097 0.84153 0.59433 0.13300
N 	N 	0.04907 0.86523 0.46433 -0.13400
O 	O 	0.10477 0.78073 0.30233 -0.18300
C 	C 	0.09517 0.82053 0.43333 -0.05700
N 	N 	0.01677 0.82693 0.59333 -0.14700
C 	C 	0.00407 0.82613 0.38733 0.16100
N 	N 	0.01167 0.84693 0.23633 -0.13500
C 	C 	0.03607 0.86653 0.26133 0.13600
C 	C 	0.97867 0.80663 0.40533 -0.05600
C 	C 	0.97417 0.78873 0.58833 0.04000
C 	C 	0.94997 0.76853 0.64033 0.02000
C 	C 	0.93077 0.76423 0.48133 0.02900
C 	C 	0.93557 0.77993 0.26533 0.00200
C 	C 	0.95997 0.80333 0.23833 0.03300
C 	C 	0.04687 0.89383 0.10833 -0.00900
C 	C 	0.04247 0.89633 0.84133 0.03100
C 	C 	0.06797 0.91443 0.20733 0.01700
C 	C 	0.07617 0.93993 0.10533 0.02300
C 	C 	0.07167 0.94363 0.85133 0.02200
C 	C 	0.05187 0.92263 0.72333 0.04200
C 	C 	0.08847 0.96783 0.71933 -0.04500
P 	P 	0.08240 0.99191 0.79433 0.44000
C 	C 	0.90517 0.74003 0.52633 -0.02800
P 	P 	0.89792 0.71790 0.27033 0.42100
O 	O 	0.91097 0.73393 0.03933 -0.22000
O 	O 	0.86710 0.69896 0.22433 -0.67200
O 	O 	0.91077 0.70033 0.32933 -0.16200
O 	O 	0.08557 0.00583 0.55033 -0.17100
O 	O 	0.05757 0.98283 0.90833 -0.15600
O 	O 	0.09947 0.00983 0.98933 -0.19100
C 	C 	0.74673 0.18617 0.20867 0.01800
C 	C 	0.75853 0.18217 0.41767 -0.00900
C 	C 	0.74863 0.15807 0.52767 0.02000
C 	C 	0.72383 0.14057 0.47367 0.00500
C 	C 	0.71053 0.14647 0.28167 0.02400
C 	C 	0.72213 0.17027 0.15867 -0.05700
P 	P 	0.78661 0.14340 0.69497 0.54500
O 	O 	0.80553 0.15667 0.45467 -0.66200
O 	O 	0.80393 0.14887 0.91467 -0.70400
C 	C 	0.70763 0.17487 0.92767 0.15900
N 	N 	0.71573 0.19857 0.79767 -0.13200
O 	O 	0.77143 0.11407 0.63567 -0.18700
C 	C 	0.76183 0.15387 0.76667 -0.04400
N 	N 	0.68343 0.16027 0.92667 -0.14600
C 	C 	0.67073 0.15947 0.72067 0.16200
N 	N 	0.67833 0.18027 0.56967 -0.13600
C 	C 	0.70273 0.19987 0.59467 0.13600
C 	C 	0.64533 0.13997 0.73867 -0.05700
C 	C 	0.64083 0.12207 0.92167 0.04500
C 	C 	0.61663 0.10187 0.97367 0.01900
C 	C 	0.59743 0.09757 0.81467 0.02900
C 	C 	0.60223 0.11327 0.59867 0.00400
C 	C 	0.62663 0.13667 0.57167 0.03300
C 	C 	0.71353 0.22717 0.44167 -0.01400
C 	C 	0.70913 0.22967 0.17467 0.02800
C 	C 	0.73463 0.24777 0.54067 0.02500
C 	C 	0.74283 0.27327 0.43867 0.02100
C 	C 	0.73833 0.27697 0.18467 0.02900
C 	C 	0.71853 0.25597 0.05667 0.02800
C 	C 	0.75513 0.30117 0.05267 -0.05400
P 	P 	0.74906 0.32525 0.12767 0.42300
C 	C 	0.57183 0.07337 0.85967 -0.03000
P 	P 	0.56458 0.05124 0.60367 0.42100
O 	O 	0.57763 0.06727 0.37267 -0.21400
O 	O 	0.53376 0.03230 0.55767 -0.66200
O 	O 	0.57743 0.03367 0.66267 -0.15900
O 	O 	0.75223 0.33917 0.88367 -0.15100
O 	O 	0.72423 0.31617 0.24167 -0.15700
O 	O 	0.76613 0.34317 0.32267 -0.18900
C 	C 	0.48050 0.89390 0.54200 0.02500
C 	C 	0.48450 0.90970 0.75100 -0.01300
C 	C 	0.50860 0.92390 0.86100 0.02100
C 	C 	0.52610 0.91660 0.80700 0.00100
C 	C 	0.52020 0.89740 0.61500 0.02800
C 	C 	0.49640 0.88520 0.49200 -0.03700
P 	P 	0.52327 0.97655 0.02830 0.54400
O 	O 	0.51000 0.98220 0.78800 -0.65800
O 	O 	0.51780 0.98840 0.24800 -0.72300
C 	C 	0.49180 0.86610 0.26100 0.13900
N 	N 	0.46810 0.85050 0.13100 -0.12500
O 	O 	0.55260 0.99070 0.96900 -0.18800
C 	C 	0.51280 0.94130 0.10000 -0.05300
N 	N 	0.50640 0.85650 0.26000 -0.14900
C 	C 	0.50720 0.84460 0.05400 0.17200
N 	N 	0.48640 0.83140 0.90300 -0.14200
C 	C 	0.46680 0.83620 0.92800 0.12200
C 	C 	0.52670 0.83870 0.07200 -0.03600
C 	C 	0.54460 0.85210 0.25500 0.04000
C 	C 	0.56480 0.84810 0.30700 0.01200
C 	C 	0.56910 0.83320 0.14800 0.05500
C 	C 	0.55340 0.82230 0.93200 -0.01900
C 	C 	0.53000 0.82330 0.90500 0.01900
C 	C 	0.43950 0.81970 0.77500 -0.01500
C 	C 	0.43700 0.81280 0.50800 0.03900
C 	C 	0.41890 0.82020 0.87400 0.01000
C 	C 	0.39340 0.80290 0.77200 0.01200
C 	C 	0.38970 0.79470 0.51800 0.02700
C 	C 	0.41070 0.79590 0.39000 0.04500
C 	C 	0.36550 0.78730 0.38600 -0.04100
P 	P 	0.34142 0.75715 0.46100 0.43900
C 	C 	0.59330 0.83180 0.19300 -0.01700
P 	P 	0.61543 0.84668 0.93700 0.40300
O 	O 	0.59940 0.84370 0.70600 -0.20900
O 	O 	0.63437 0.83480 0.89100 -0.67300
O 	O 	0.63300 0.87710 0.99600 -0.16900
O 	O 	0.32750 0.74640 0.21700 -0.16000
O 	O 	0.35050 0.74140 0.57500 -0.15800
O 	O 	0.32350 0.75630 0.65600 -0.19300
C 	C 	0.14717 0.22723 0.87533 -0.00300
C 	C 	0.15117 0.24303 0.08433 0.01600
C 	C 	0.17527 0.25723 0.19433 0.01500
C 	C 	0.19277 0.24993 0.14033 0.02000
C 	C 	0.18687 0.23073 0.94833 0.01100
C 	C 	0.16307 0.21853 0.82533 -0.02500
P 	P 	0.18994 0.30988 0.36163 0.54500
O 	O 	0.17667 0.31553 0.12133 -0.64200
O 	O 	0.18447 0.32173 0.58133 -0.72600
C 	C 	0.15847 0.19943 0.59433 0.13300
N 	N 	0.13477 0.18383 0.46433 -0.13400
O 	O 	0.21927 0.32403 0.30233 -0.18300
C 	C 	0.17947 0.27463 0.43333 -0.05700
N 	N 	0.17307 0.18983 0.59333 -0.14700
C 	C 	0.17387 0.17793 0.38733 0.16100
N 	N 	0.15307 0.16473 0.23633 -0.13500
C 	C 	0.13347 0.16953 0.26133 0.13600
C 	C 	0.19337 0.17203 0.40533 -0.05700
C 	C 	0.21127 0.18543 0.58833 0.04000
C 	C 	0.23147 0.18143 0.64033 0.02000
C 	C 	0.23577 0.16653 0.48133 0.02900
C 	C 	0.22007 0.15563 0.26533 0.00200
C 	C 	0.19667 0.15663 0.23833 0.03400
C 	C 	0.10617 0.15303 0.10833 -0.00900
C 	C 	0.10367 0.14613 0.84133 0.03100
C 	C 	0.08557 0.15353 0.20733 0.01700
C 	C 	0.06007 0.13623 0.10533 0.02300
C 	C 	0.05637 0.12803 0.85133 0.02200
C 	C 	0.07737 0.12923 0.72333 0.04200
C 	C 	0.03217 0.12063 0.71933 -0.04500
P 	P 	0.00809 0.09048 0.79433 0.43800
C 	C 	0.25997 0.16513 0.52633 -0.02800
P 	P 	0.28210 0.18001 0.27033 0.42100
O 	O 	0.26607 0.17703 0.03933 -0.22000
O 	O 	0.30104 0.16813 0.22433 -0.67200
O 	O 	0.29967 0.21043 0.32933 -0.16200
O 	O 	0.99417 0.07973 0.55033 -0.17000
O 	O 	0.01717 0.07473 0.90833 -0.15600
O 	O 	0.99017 0.08963 0.98933 -0.19000
C 	C 	0.81383 0.56057 0.20867 0.01800
C 	C 	0.81783 0.57637 0.41767 -0.00900
C 	C 	0.84193 0.59057 0.52767 0.02000
C 	C 	0.85943 0.58327 0.47367 0.00500
C 	C 	0.85353 0.56407 0.28167 0.02500
C 	C 	0.82973 0.55187 0.15867 -0.05700
P 	P 	0.85660 0.64322 0.69497 0.54500
O 	O 	0.84333 0.64887 0.45467 -0.66200
O 	O 	0.85113 0.65507 0.91467 -0.70400
C 	C 	0.82513 0.53277 0.92767 0.16000
N 	N 	0.80143 0.51717 0.79767 -0.13200
O 	O 	0.88593 0.65737 0.63567 -0.18700
C 	C 	0.84613 0.60797 0.76667 -0.04400
N 	N 	0.83973 0.52317 0.92667 -0.14600
C 	C 	0.84053 0.51127 0.72067 0.16200
N 	N 	0.81973 0.49807 0.56967 -0.13600
C 	C 	0.80013 0.50287 0.59467 0.13600
C 	C 	0.86003 0.50537 0.73867 -0.05700
C 	C 	0.87793 0.51877 0.92167 0.04500
C 	C 	0.89813 0.51477 0.97367 0.01900
C 	C 	0.90243 0.49987 0.81467 0.02900
C 	C 	0.88673 0.48897 0.59867 0.00400
C 	C 	0.86333 0.48997 0.57167 0.03300
C 	C 	0.77283 0.48637 0.44167 -0.01400
C 	C 	0.77033 0.47947 0.17467 0.02800
C 	C 	0.75223 0.48687 0.54067 0.02500
C 	C 	0.72673 0.46957 0.43867 0.02100
C 	C 	0.72303 0.46137 0.18467 0.02900
C 	C 	0.74403 0.46257 0.05667 0.02800
C 	C 	0.69883 0.45397 0.05267 -0.05400
P 	P 	0.67475 0.42382 0.12767 0.42300
C 	C 	0.92663 0.49847 0.85967 -0.03000
P 	P 	0.94876 0.51335 0.60367 0.42100
O 	O 	0.93273 0.51037 0.37267 -0.21300
O 	O 	0.96770 0.50147 0.55767 -0.66200
O 	O 	0.96633 0.54377 0.66267 -0.15900
O 	O 	0.66083 0.41307 0.88367 -0.15100
O 	O 	0.68383 0.40807 0.24167 -0.15700
O 	O 	0.65683 0.42297 0.32267 -0.18900
C 	C 	0.89390 0.41340 0.45800 0.02500
C 	C 	0.90970 0.42520 0.24900 -0.01300
C 	C 	0.92390 0.41530 0.13900 0.02100
C 	C 	0.91660 0.39050 0.19300 0.00100
C 	C 	0.89740 0.37720 0.38500 0.02800
C 	C 	0.88520 0.38880 0.50800 -0.03700
P 	P 	0.97655 0.45328 0.97170 0.54400
O 	O 	0.98220 0.47220 0.21200 -0.65800
O 	O 	0.98840 0.47060 0.75200 -0.72300
C 	C 	0.86610 0.37430 0.73900 0.13900
N 	N 	0.85050 0.38240 0.86900 -0.12500
O 	O 	0.99070 0.43810 0.03100 -0.18800
C 	C 	0.94130 0.42850 0.90000 -0.05300
N 	N 	0.85650 0.35010 0.74000 -0.14900
C 	C 	0.84460 0.33740 0.94600 0.17200
N 	N 	0.83140 0.34500 0.09700 -0.14200
C 	C 	0.83620 0.36940 0.07200 0.12200
C 	C 	0.83870 0.31200 0.92800 -0.03600
C 	C 	0.85210 0.30750 0.74500 0.04000
C 	C 	0.84810 0.28330 0.69300 0.01200
C 	C 	0.83320 0.26410 0.85200 0.05500
C 	C 	0.82230 0.26890 0.06800 -0.01900
C 	C 	0.82330 0.29330 0.09500 0.01900
C 	C 	0.81970 0.38020 0.22500 -0.01500
C 	C 	0.81280 0.37580 0.49200 0.03900
C 	C 	0.82020 0.40130 0.12600 0.01000
C 	C 	0.80290 0.40950 0.22800 0.01200
C 	C 	0.79470 0.40500 0.48200 0.02700
C 	C 	0.79590 0.38520 0.61000 0.04500
C 	C 	0.78730 0.42180 0.61400 -0.04100
P 	P 	0.75715 0.41573 0.53900 0.43900
C 	C 	0.83180 0.23850 0.80700 -0.01700
P 	P 	0.84668 0.23125 0.06300 0.40400
O 	O 	0.84370 0.24430 0.29400 -0.20900
O 	O 	0.83480 0.20043 0.10900 -0.67300
O 	O 	0.87710 0.24410 0.00400 -0.16900
O 	O 	0.74640 0.41890 0.78300 -0.16000
O 	O 	0.74140 0.39090 0.42500 -0.15800
O 	O 	0.75630 0.43280 0.34400 -0.19300
C 	C 	0.56057 0.74673 0.79133 0.01800
C 	C 	0.57637 0.75853 0.58233 -0.00900
C 	C 	0.59057 0.74863 0.47233 0.02000
C 	C 	0.58327 0.72383 0.52633 0.00500
C 	C 	0.56407 0.71053 0.71833 0.02400
C 	C 	0.55187 0.72213 0.84133 -0.05700
P 	P 	0.64322 0.78661 0.30503 0.54400
O 	O 	0.64887 0.80553 0.54533 -0.66200
O 	O 	0.65507 0.80393 0.08533 -0.70400
C 	C 	0.53277 0.70763 0.07233 0.15900
N 	N 	0.51717 0.71573 0.20233 -0.13200
O 	O 	0.65737 0.77143 0.36433 -0.18700
C 	C 	0.60797 0.76183 0.23333 -0.04400
N 	N 	0.52317 0.68343 0.07333 -0.14600
C 	C 	0.51127 0.67073 0.27933 0.16200
N 	N 	0.49807 0.67833 0.43033 -0.13600
C 	C 	0.50287 0.70273 0.40533 0.13600
C 	C 	0.50537 0.64533 0.26133 -0.05700
C 	C 	0.51877 0.64083 0.07833 0.04500
C 	C 	0.51477 0.61663 0.02633 0.01900
C 	C 	0.49987 0.59743 0.18533 0.02900
C 	C 	0.48897 0.60223 0.40133 0.00400
C 	C 	0.48997 0.62663 0.42833 0.03300
C 	C 	0.48637 0.71353 0.55833 -0.01400
C 	C 	0.47947 0.70913 0.82533 0.02800
C 	C 	0.48687 0.73463 0.45933 0.02500
C 	C 	0.46957 0.74283 0.56133 0.02100
C 	C 	0.46137 0.73833 0.81533 0.02900
C 	C 	0.46257 0.71853 0.94333 0.02800
C 	C 	0.45397 0.75513 0.94733 -0.05400
P 	P 	0.42382 0.74906 0.87233 0.42300
C 	C 	0.49847 0.57183 0.14033 -0.03000
P 	P 	0.51335 0.56458 0.39633 0.42100
O 	O 	0.51037 0.57763 0.62733 -0.21400
O 	O 	0.50147 0.53376 0.44233 -0.66200
O 	O 	0.54377 0.57743 0.33733 -0.15900
O 	O 	0.41307 0.75223 0.11633 -0.15100
O 	O 	0.40807 0.72423 0.75833 -0.15700
O 	O 	0.42297 0.76613 0.67733 -0.18900
C 	C 	0.22723 0.08007 0.12467 -0.00300
C 	C 	0.24303 0.09187 0.91567 0.01600
C 	C 	0.25723 0.08197 0.80567 0.01500
C 	C 	0.24993 0.05717 0.85967 0.02000
C 	C 	0.23073 0.04387 0.05167 0.01100
C 	C 	0.21853 0.05547 0.17467 -0.02500
P 	P 	0.30988 0.11995 0.63837 0.54500
O 	O 	0.31553 0.13887 0.87867 -0.64200
O 	O 	0.32173 0.13727 0.41867 -0.72600
C 	C 	0.19943 0.04097 0.40567 0.13300
N 	N 	0.18383 0.04907 0.53567 -0.13400
O 	O 	0.32403 0.10477 0.69767 -0.18300
C 	C 	0.27463 0.09517 0.56667 -0.05700
N 	N 	0.18983 0.01677 0.40667 -0.14700
C 	C 	0.17793 0.00407 0.61267 0.16100
N 	N 	0.16473 0.01167 0.76367 -0.13500
C 	C 	0.16953 0.03607 0.73867 0.13600
C 	C 	0.17203 0.97867 0.59467 -0.05600
C 	C 	0.18543 0.97417 0.41167 0.04000
C 	C 	0.18143 0.94997 0.35967 0.02000
C 	C 	0.16653 0.93077 0.51867 0.02900
C 	C 	0.15563 0.93557 0.73467 0.00200
C 	C 	0.15663 0.95997 0.76167 0.03300
C 	C 	0.15303 0.04687 0.89167 -0.00900
C 	C 	0.14613 0.04247 0.15867 0.03100
C 	C 	0.15353 0.06797 0.79267 0.01700
C 	C 	0.13623 0.07617 0.89467 0.02300
C 	C 	0.12803 0.07167 0.14867 0.02200
C 	C 	0.12923 0.05187 0.27667 0.04200
C 	C 	0.12063 0.08847 0.28067 -0.04500
P 	P 	0.09048 0.08240 0.20567 0.43900
C 	C 	0.16513 0.90517 0.47367 -0.02800
P 	P 	0.18001 0.89792 0.72967 0.42000
O 	O 	0.17703 0.91097 0.96067 -0.22000
O 	O 	0.16813 0.86710 0.77567 -0.67100
O 	O 	0.21043 0.91077 0.67067 -0.16200
O 	O 	0.07973 0.08557 0.44967 -0.17000
O 	O 	0.07473 0.05757 0.09167 -0.15600
O 	O 	0.08963 0.09947 0.01067 -0.19000
C 	C 	0.58660 0.48050 0.45800 0.02500
C 	C 	0.57480 0.48450 0.24900 -0.01300
C 	C 	0.58470 0.50860 0.13900 0.02100
C 	C 	0.60950 0.52610 0.19300 0.00100
C 	C 	0.62280 0.52020 0.38500 0.02800
C 	C 	0.61120 0.49640 0.50800 -0.03700
P 	P 	0.54672 0.52327 0.97170 0.54400
O 	O 	0.52780 0.51000 0.21200 -0.65800
O 	O 	0.52940 0.51780 0.75200 -0.72300
C 	C 	0.62570 0.49180 0.73900 0.13900
N 	N 	0.61760 0.46810 0.86900 -0.12500
O 	O 	0.56190 0.55260 0.03100 -0.18800
C 	C 	0.57150 0.51280 0.90000 -0.05300
N 	N 	0.64990 0.50640 0.74000 -0.14900
C 	C 	0.66260 0.50720 0.94600 0.17200
N 	N 	0.65500 0.48640 0.09700 -0.14200
C 	C 	0.63060 0.46680 0.07200 0.12200
C 	C 	0.68800 0.52670 0.92800 -0.03600
C 	C 	0.69250 0.54460 0.74500 0.04000
C 	C 	0.71670 0.56480 0.69300 0.01100
C 	C 	0.73590 0.56910 0.85200 0.05500
C 	C 	0.73110 0.55340 0.06800 -0.01900
C 	C 	0.70670 0.53000 0.09500 0.01900
C 	C 	0.61980 0.43950 0.22500 -0.01500
C 	C 	0.62420 0.43700 0.49200 0.03900
C 	C 	0.59870 0.41890 0.12600 0.01000
C 	C 	0.59050 0.39340 0.22800 0.01200
C 	C 	0.59500 0.38970 0.48200 0.02700
C 	C 	0.61480 0.41070 0.61000 0.04500
C 	C 	0.57820 0.36550 0.61400 -0.04100
P 	P 	0.58427 0.34142 0.53900 0.43900
C 	C 	0.76150 0.59330 0.80700 -0.01700
P 	P 	0.76875 0.61543 0.06300 0.40300
O 	O 	0.75570 0.59940 0.29400 -0.20900
O 	O 	0.79957 0.63437 0.10900 -0.67300
O 	O 	0.75590 0.63300 0.00400 -0.16900
O 	O 	0.58110 0.32750 0.78300 -0.16000
O 	O 	0.60910 0.35050 0.42500 -0.15800
O 	O 	0.56720 0.32350 0.34400 -0.19300
C 	C 	0.25327 0.81383 0.79133 0.01800
C 	C 	0.24147 0.81783 0.58233 -0.00900
C 	C 	0.25137 0.84193 0.47233 0.02000
C 	C 	0.27617 0.85943 0.52633 0.00500
C 	C 	0.28947 0.85353 0.71833 0.02500
C 	C 	0.27787 0.82973 0.84133 -0.05700
P 	P 	0.21339 0.85660 0.30503 0.54500
O 	O 	0.19447 0.84333 0.54533 -0.66200
O 	O 	0.19607 0.85113 0.08533 -0.70400
C 	C 	0.29237 0.82513 0.07233 0.16000
N 	N 	0.28427 0.80143 0.20233 -0.13200
O 	O 	0.22857 0.88593 0.36433 -0.18700
C 	C 	0.23817 0.84613 0.23333 -0.04400
N 	N 	0.31657 0.83973 0.07333 -0.14600
C 	C 	0.32927 0.84053 0.27933 0.16200
N 	N 	0.32167 0.81973 0.43033 -0.13600
C 	C 	0.29727 0.80013 0.40533 0.13600
C 	C 	0.35467 0.86003 0.26133 -0.05700
C 	C 	0.35917 0.87793 0.07833 0.04500
C 	C 	0.38337 0.89813 0.02633 0.01900
C 	C 	0.40257 0.90243 0.18533 0.02900
C 	C 	0.39777 0.88673 0.40133 0.00400
C 	C 	0.37337 0.86333 0.42833 0.03300
C 	C 	0.28647 0.77283 0.55833 -0.01400
C 	C 	0.29087 0.77033 0.82533 0.02800
C 	C 	0.26537 0.75223 0.45933 0.02500
C 	C 	0.25717 0.72673 0.56133 0.02100
C 	C 	0.26167 0.72303 0.81533 0.02900
C 	C 	0.28147 0.74403 0.94333 0.02800
C 	C 	0.24487 0.69883 0.94733 -0.05400
P 	P 	0.25094 0.67475 0.87233 0.42300
C 	C 	0.42817 0.92663 0.14033 -0.03000
P 	P 	0.43542 0.94876 0.39633 0.42100
O 	O 	0.42237 0.93273 0.62733 -0.21300
O 	O 	0.46624 0.96770 0.44233 -0.66200
O 	O 	0.42257 0.96633 0.33733 -0.15900
O 	O 	0.24777 0.66083 0.11633 -0.15100
O 	O 	0.27577 0.68383 0.75833 -0.15700
O 	O 	0.23387 0.65683 0.67733 -0.18900
C 	C 	0.91993 0.14717 0.12467 -0.00300
C 	C 	0.90813 0.15117 0.91567 0.01600
C 	C 	0.91803 0.17527 0.80567 0.01500
C 	C 	0.94283 0.19277 0.85967 0.02000
C 	C 	0.95613 0.18687 0.05167 0.01100
C 	C 	0.94453 0.16307 0.17467 -0.02500
P 	P 	0.88005 0.18994 0.63837 0.54500
O 	O 	0.86113 0.17667 0.87867 -0.64200
O 	O 	0.86273 0.18447 0.41867 -0.72600
C 	C 	0.95903 0.15847 0.40567 0.13300
N 	N 	0.95093 0.13477 0.53567 -0.13400
O 	O 	0.89523 0.21927 0.69767 -0.18300
C 	C 	0.90483 0.17947 0.56667 -0.05700
N 	N 	0.98323 0.17307 0.40667 -0.14700
C 	C 	0.99593 0.17387 0.61267 0.16200
N 	N 	0.98833 0.15307 0.76367 -0.13500
C 	C 	0.96393 0.13347 0.73867 0.13600
C 	C 	0.02133 0.19337 0.59467 -0.05700
C 	C 	0.02583 0.21127 0.41167 0.04000
C 	C 	0.05003 0.23147 0.35967 0.02000
C 	C 	0.06923 0.23577 0.51867 0.02900
C 	C 	0.06443 0.22007 0.73467 0.00200
C 	C 	0.04003 0.19667 0.76167 0.03400
C 	C 	0.95313 0.10617 0.89167 -0.00900
C 	C 	0.95753 0.10367 0.15867 0.03100
C 	C 	0.93203 0.08557 0.79267 0.01700
C 	C 	0.92383 0.06007 0.89467 0.02300
C 	C 	0.92833 0.05637 0.14867 0.02200
C 	C 	0.94813 0.07737 0.27667 0.04200
C 	C 	0.91153 0.03217 0.28067 -0.04500
P 	P 	0.91760 0.00809 0.20567 0.43800
C 	C 	0.09483 0.25997 0.47367 -0.02800
P 	P 	0.10208 0.28210 0.72967 0.42100
O 	O 	0.08903 0.26607 0.96067 -0.22000
O 	O 	0.13290 0.30104 0.77567 -0.67200
O 	O 	0.08923 0.29967 0.67067 -0.16200
O 	O 	0.91443 0.99417 0.44967 -0.17000
O 	O 	0.94243 0.01717 0.09167 -0.15600
O 	O 	0.90053 0.99017 0.01067 -0.19000
C 	C 	0.51950 0.10610 0.45800 0.02500
C 	C 	0.51550 0.09030 0.24900 -0.01300
C 	C 	0.49140 0.07610 0.13900 0.02100
C 	C 	0.47390 0.08340 0.19300 0.00100
C 	C 	0.47980 0.10260 0.38500 0.02800
C 	C 	0.50360 0.11480 0.50800 -0.03700
P 	P 	0.47673 0.02345 0.97170 0.54400
O 	O 	0.49000 0.01780 0.21200 -0.65800
O 	O 	0.48220 0.01160 0.75200 -0.72300
C 	C 	0.50820 0.13390 0.73900 0.13900
N 	N 	0.53190 0.14950 0.86900 -0.12500
O 	O 	0.44740 0.00930 0.03100 -0.18800
C 	C 	0.48720 0.05870 0.90000 -0.05300
N 	N 	0.49360 0.14350 0.74000 -0.14900
C 	C 	0.49280 0.15540 0.94600 0.17200
N 	N 	0.51360 0.16860 0.09700 -0.14200
C 	C 	0.53320 0.16380 0.07200 0.12200
C 	C 	0.47330 0.16130 0.92800 -0.03600
C 	C 	0.45540 0.14790 0.74500 0.04000
C 	C 	0.43520 0.15190 0.69300 0.01100
C 	C 	0.43090 0.16680 0.85200 0.05500
C 	C 	0.44660 0.17770 0.06800 -0.01900
C 	C 	0.47000 0.17670 0.09500 0.01900
C 	C 	0.56050 0.18030 0.22500 -0.01500
C 	C 	0.56300 0.18720 0.49200 0.03900
C 	C 	0.58110 0.17980 0.12600 0.01000
C 	C 	0.60660 0.19710 0.22800 0.01200
C 	C 	0.61030 0.20530 0.48200 0.02700
C 	C 	0.58930 0.20410 0.61000 0.04500
C 	C 	0.63450 0.21270 0.61400 -0.04100
P 	P 	0.65858 0.24285 0.53900 0.43900
C 	C 	0.40670 0.16820 0.80700 -0.01700
P 	P 	0.38457 0.15332 0.06300 0.40300
O 	O 	0.40060 0.15630 0.29400 -0.20900
O 	O 	0.36563 0.16520 0.10900 -0.67300
O 	O 	0.36700 0.12290 0.00400 -0.16900
O 	O 	0.67250 0.25360 0.78300 -0.16000
O 	O 	0.64950 0.25860 0.42500 -0.15800
O 	O 	0.67650 0.24370 0.34400 -0.19300
C 	C 	0.18617 0.43943 0.79133 0.01800
C 	C 	0.18217 0.42363 0.58233 -0.00900
C 	C 	0.15807 0.40943 0.47233 0.02000
C 	C 	0.14057 0.41673 0.52633 0.00500
C 	C 	0.14647 0.43593 0.71833 0.02400
C 	C 	0.17027 0.44813 0.84133 -0.05700
P 	P 	0.14340 0.35678 0.30503 0.54500
O 	O 	0.15667 0.35113 0.54533 -0.66200
O 	O 	0.14887 0.34493 0.08533 -0.70400
C 	C 	0.17487 0.46723 0.07233 0.15900
N 	N 	0.19857 0.48283 0.20233 -0.13200
O 	O 	0.11407 0.34263 0.36433 -0.18700
C 	C 	0.15387 0.39203 0.23333 -0.04400
N 	N 	0.16027 0.47683 0.07333 -0.14600
C 	C 	0.15947 0.48873 0.27933 0.16200
N 	N 	0.18027 0.50193 0.43033 -0.13600
C 	C 	0.19987 0.49713 0.40533 0.13600
C 	C 	0.13997 0.49463 0.26133 -0.05700
C 	C 	0.12207 0.48123 0.07833 0.04500
C 	C 	0.10187 0.48523 0.02633 0.01900
C 	C 	0.09757 0.50013 0.18533 0.02900
C 	C 	0.11327 0.51103 0.40133 0.00400
C 	C 	0.13667 0.51003 0.42833 0.03300
C 	C 	0.22717 0.51363 0.55833 -0.01400
C 	C 	0.22967 0.52053 0.82533 0.02800
C 	C 	0.24777 0.51313 0.45933 0.02500
C 	C 	0.27327 0.53043 0.56133 0.02100
C 	C 	0.27697 0.53863 0.81533 0.02900
C 	C 	0.25597 0.53743 0.94333 0.02800
C 	C 	0.30117 0.54603 0.94733 -0.05400
P 	P 	0.32525 0.57618 0.87233 0.42300
C 	C 	0.07337 0.50153 0.14033 -0.03000
P 	P 	0.05124 0.48665 0.39633 0.42100
O 	O 	0.06727 0.48963 0.62733 -0.21400
O 	O 	0.03230 0.49853 0.44233 -0.66200
O 	O 	0.03367 0.45623 0.33733 -0.15900
O 	O 	0.33917 0.58693 0.11633 -0.15100
O 	O 	0.31617 0.59193 0.75833 -0.15700
O 	O 	0.34317 0.57703 0.67733 -0.18900
C 	C 	0.85283 0.77277 0.12467 -0.00300
C 	C 	0.84883 0.75697 0.91567 0.01600
C 	C 	0.82473 0.74277 0.80567 0.01500
C 	C 	0.80723 0.75007 0.85967 0.02000
C 	C 	0.81313 0.76927 0.05167 0.01100
C 	C 	0.83693 0.78147 0.17467 -0.02500
P 	P 	0.81006 0.69012 0.63837 0.54500
O 	O 	0.82333 0.68447 0.87867 -0.64200
O 	O 	0.81553 0.67827 0.41867 -0.72600
C 	C 	0.84153 0.80057 0.40567 0.13300
N 	N 	0.86523 0.81617 0.53567 -0.13400
O 	O 	0.78073 0.67597 0.69767 -0.18300
C 	C 	0.82053 0.72537 0.56667 -0.05700
N 	N 	0.82693 0.81017 0.40667 -0.14700
C 	C 	0.82613 0.82207 0.61267 0.16100
N 	N 	0.84693 0.83527 0.76367 -0.13500
C 	C 	0.86653 0.83047 0.73867 0.13600
C 	C 	0.80663 0.82797 0.59467 -0.05700
C 	C 	0.78873 0.81457 0.41167 0.04000
C 	C 	0.76853 0.81857 0.35967 0.02000
C 	C 	0.76423 0.83347 0.51867 0.02900
C 	C 	0.77993 0.84437 0.73467 0.00200
C 	C 	0.80333 0.84337 0.76167 0.03400
C 	C 	0.89383 0.84697 0.89167 -0.00900
C 	C 	0.89633 0.85387 0.15867 0.03100
C 	C 	0.91443 0.84647 0.79267 0.01700
C 	C 	0.93993 0.86377 0.89467 0.02300
C 	C 	0.94363 0.87197 0.14867 0.02200
C 	C 	0.92263 0.87077 0.27667 0.04200
C 	C 	0.96783 0.87937 0.28067 -0.04500
P 	P 	0.99191 0.90952 0.20567 0.44000
C 	C 	0.74003 0.83487 0.47367 -0.02800
P 	P 	0.71790 0.81999 0.72967 0.42100
O 	O 	0.73393 0.82297 0.96067 -0.22000
O 	O 	0.69896 0.83187 0.77567 -0.67200
O 	O 	0.70033 0.78957 0.67067 -0.16200
O 	O 	0.00583 0.92027 0.44967 -0.17100
O 	O 	0.98283 0.92527 0.09167 -0.15600
O 	O 	0.00983 0.91037 0.01067 -0.19100
Zr	Zr	0.00000 0.50000 0.50000 3.21600
Zr	Zr	0.66667 0.83333 0.83333 3.21300
Zr	Zr	0.33333 0.16667 0.16667 3.21300
Zr	Zr	0.50000 0.50000 0.50000 3.21600
Zr	Zr	0.16667 0.83333 0.83333 3.21300
Zr	Zr	0.83333 0.16667 0.16667 3.21300
Zr	Zr	0.50000 0.00000 0.50000 3.21600
Zr	Zr	0.16667 0.33333 0.83333 3.21300
Zr	Zr	0.83333 0.66667 0.16667 3.21300
