data_crystal

_cell_length_a 47.00720
_cell_length_b 47.00720
_cell_length_c 47.00720
_cell_angle_alpha 90.00000
_cell_angle_beta  90.00000
_cell_angle_gamma 90.00000

_symmetry_space_group_name_	'P 1'
_symmetry_space_group_name_H-M	'P 1'

loop_
_symmetry_equiv_pos_as_xyz
  x,y,z

loop_
_atom_site_label
_atom_site_type_symbol
_atom_site_fract_x
_atom_site_fract_y
_atom_site_fract_z
_atom_site_charge
Cu	Cu	0.37669 0.41280 0.52951 0.82500
Cu	Cu	0.35004 0.47543 0.55795 0.82400
N 	N 	0.35846 0.47281 0.51647 -0.23100
N 	N 	0.37086 0.44880 0.50452 -0.21400
N 	N 	0.39342 0.42807 0.56541 -0.23200
N 	N 	0.38591 0.45514 0.57553 -0.21100
N 	N 	0.35839 0.51677 0.40799 -0.23100
N 	N 	0.38795 0.51573 0.40967 -0.21800
C 	C 	0.34820 0.50436 0.43064 0.08400
H 	H 	0.32900 0.50190 0.43480 -0.02500
N 	N 	0.37040 0.49569 0.44704 -0.11200
C 	C 	0.37679 0.45450 0.47806 0.08900
H 	H 	0.38520 0.44210 0.46510 -0.01300
N 	N 	0.48153 0.43822 0.64324 -0.22100
N 	N 	0.44046 0.43652 0.62232 -0.11200
N 	N 	0.46175 0.42572 0.66165 -0.23500
N 	N 	0.42011 0.43877 0.60141 -0.11100
C 	C 	0.40189 0.46092 0.59725 0.09200
H 	H 	0.40110 0.47740 0.60820 -0.01300
C 	C 	0.43733 0.42510 0.64864 0.09100
H 	H 	0.42050 0.41800 0.65620 -0.03200
C 	C 	0.41405 0.41872 0.58133 0.08800
H 	H 	0.42320 0.40130 0.57930 -0.01900
C 	C 	0.35769 0.49248 0.49719 0.08900
H 	H 	0.35080 0.51090 0.49970 -0.02000
C 	C 	0.39464 0.50334 0.43355 0.09000
H 	H 	0.41300 0.50030 0.44020 -0.01400
C 	C 	0.46810 0.44479 0.61991 0.08700
H 	H 	0.47610 0.45370 0.60420 -0.01200
N 	N 	0.36856 0.48185 0.47271 -0.11200
Cu	Cu	0.37669 0.91280 0.02951 0.82500
Cu	Cu	0.35004 0.97543 0.05795 0.82400
N 	N 	0.35846 0.97281 0.01647 -0.23100
N 	N 	0.37086 0.94880 0.00452 -0.21400
N 	N 	0.39342 0.92807 0.06541 -0.23200
N 	N 	0.38591 0.95514 0.07553 -0.21100
N 	N 	0.35839 0.01677 0.90799 -0.23100
N 	N 	0.38795 0.01573 0.90967 -0.21800
C 	C 	0.34820 0.00436 0.93064 0.08400
H 	H 	0.32900 0.00190 0.93480 -0.02500
N 	N 	0.37040 0.99569 0.94704 -0.11200
C 	C 	0.37679 0.95450 0.97806 0.08900
H 	H 	0.38520 0.94210 0.96510 -0.01300
N 	N 	0.48153 0.93822 0.14324 -0.22100
N 	N 	0.44046 0.93652 0.12232 -0.11200
N 	N 	0.46175 0.92572 0.16165 -0.23500
N 	N 	0.42011 0.93877 0.10141 -0.11100
C 	C 	0.40189 0.96092 0.09725 0.09200
H 	H 	0.40110 0.97740 0.10820 -0.01300
C 	C 	0.43733 0.92510 0.14864 0.09100
H 	H 	0.42050 0.91800 0.15620 -0.03200
C 	C 	0.41405 0.91872 0.08133 0.08800
H 	H 	0.42320 0.90130 0.07930 -0.01900
C 	C 	0.35769 0.99248 0.99719 0.08900
H 	H 	0.35080 0.01090 0.99970 -0.02000
C 	C 	0.39464 0.00334 0.93355 0.09000
H 	H 	0.41300 0.00030 0.94020 -0.01400
C 	C 	0.46810 0.94479 0.11991 0.08700
H 	H 	0.47610 0.95370 0.10420 -0.01200
N 	N 	0.36856 0.98185 0.97271 -0.11200
Cu	Cu	0.87669 0.41280 0.02951 0.82500
Cu	Cu	0.85004 0.47543 0.05795 0.82400
N 	N 	0.85846 0.47281 0.01647 -0.23100
N 	N 	0.87086 0.44880 0.00452 -0.21400
N 	N 	0.89342 0.42807 0.06541 -0.23200
N 	N 	0.88591 0.45514 0.07553 -0.21100
N 	N 	0.85839 0.51677 0.90799 -0.23100
N 	N 	0.88795 0.51573 0.90967 -0.21800
C 	C 	0.84820 0.50436 0.93064 0.08400
H 	H 	0.82900 0.50190 0.93480 -0.02500
N 	N 	0.87040 0.49569 0.94704 -0.11200
C 	C 	0.87679 0.45450 0.97806 0.08900
H 	H 	0.88520 0.44210 0.96510 -0.01300
N 	N 	0.98153 0.43822 0.14324 -0.22100
N 	N 	0.94046 0.43652 0.12232 -0.11200
N 	N 	0.96175 0.42572 0.16165 -0.23500
N 	N 	0.92011 0.43877 0.10141 -0.11100
C 	C 	0.90189 0.46092 0.09725 0.09200
H 	H 	0.90110 0.47740 0.10820 -0.01300
C 	C 	0.93733 0.42510 0.14864 0.09100
H 	H 	0.92050 0.41800 0.15620 -0.03200
C 	C 	0.91405 0.41872 0.08133 0.08800
H 	H 	0.92320 0.40130 0.07930 -0.01900
C 	C 	0.85769 0.49248 0.99719 0.08900
H 	H 	0.85080 0.51090 0.99970 -0.02000
C 	C 	0.89464 0.50334 0.93355 0.09000
H 	H 	0.91300 0.50030 0.94020 -0.01400
C 	C 	0.96810 0.44479 0.11991 0.08700
H 	H 	0.97610 0.45370 0.10420 -0.01200
N 	N 	0.86856 0.48185 0.97271 -0.11200
Cu	Cu	0.87669 0.91280 0.52951 0.82500
Cu	Cu	0.85004 0.97543 0.55795 0.82400
N 	N 	0.85846 0.97281 0.51647 -0.23100
N 	N 	0.87086 0.94880 0.50452 -0.21400
N 	N 	0.89342 0.92807 0.56541 -0.23200
N 	N 	0.88591 0.95514 0.57553 -0.21100
N 	N 	0.85839 0.01677 0.40799 -0.23100
N 	N 	0.88795 0.01573 0.40967 -0.21800
C 	C 	0.84820 0.00436 0.43064 0.08400
H 	H 	0.82900 0.00190 0.43480 -0.02500
N 	N 	0.87040 0.99569 0.44704 -0.11200
C 	C 	0.87679 0.95450 0.47806 0.08900
H 	H 	0.88520 0.94210 0.46510 -0.01300
N 	N 	0.98153 0.93822 0.64324 -0.22100
N 	N 	0.94046 0.93652 0.62232 -0.11200
N 	N 	0.96175 0.92572 0.66165 -0.23500
N 	N 	0.92011 0.93877 0.60141 -0.11100
C 	C 	0.90189 0.96092 0.59725 0.09200
H 	H 	0.90110 0.97740 0.60820 -0.01300
C 	C 	0.93733 0.92510 0.64864 0.09100
H 	H 	0.92050 0.91800 0.65620 -0.03200
C 	C 	0.91405 0.91872 0.58133 0.08800
H 	H 	0.92320 0.90130 0.57930 -0.01900
C 	C 	0.85769 0.99248 0.49719 0.08900
H 	H 	0.85080 0.01090 0.49970 -0.02000
C 	C 	0.89464 0.00334 0.43355 0.09000
H 	H 	0.91300 0.00030 0.44020 -0.01400
C 	C 	0.96810 0.94479 0.61991 0.08700
H 	H 	0.97610 0.95370 0.60420 -0.01200
N 	N 	0.86856 0.98185 0.47271 -0.11200
Cu	Cu	0.87331 0.33720 0.02951 0.82500
Cu	Cu	0.89996 0.27457 0.05795 0.82400
N 	N 	0.89154 0.27719 0.01647 -0.23100
N 	N 	0.87914 0.30120 0.00452 -0.21400
N 	N 	0.85658 0.32193 0.06541 -0.23200
N 	N 	0.86409 0.29486 0.07553 -0.21100
N 	N 	0.89161 0.23323 0.90799 -0.23100
N 	N 	0.86205 0.23427 0.90967 -0.21800
C 	C 	0.90180 0.24564 0.93064 0.08400
H 	H 	0.92100 0.24810 0.93480 -0.02500
N 	N 	0.87960 0.25431 0.94704 -0.11200
C 	C 	0.87321 0.29550 0.97806 0.08900
H 	H 	0.86480 0.30790 0.96510 -0.01300
N 	N 	0.76847 0.31178 0.14324 -0.22100
N 	N 	0.80954 0.31348 0.12232 -0.11200
N 	N 	0.78825 0.32428 0.16165 -0.23500
N 	N 	0.82989 0.31123 0.10141 -0.11100
C 	C 	0.84811 0.28908 0.09725 0.09200
H 	H 	0.84890 0.27260 0.10820 -0.01300
C 	C 	0.81267 0.32490 0.14864 0.09100
H 	H 	0.82950 0.33200 0.15620 -0.03200
C 	C 	0.83595 0.33128 0.08133 0.08800
H 	H 	0.82680 0.34870 0.07930 -0.01900
C 	C 	0.89231 0.25752 0.99719 0.08900
H 	H 	0.89920 0.23910 0.99970 -0.02000
C 	C 	0.85536 0.24666 0.93355 0.09000
H 	H 	0.83700 0.24970 0.94020 -0.01400
C 	C 	0.78190 0.30521 0.11991 0.08700
H 	H 	0.77390 0.29630 0.10420 -0.01200
N 	N 	0.88144 0.26815 0.97271 -0.11200
Cu	Cu	0.87331 0.83720 0.52951 0.82500
Cu	Cu	0.89996 0.77457 0.55795 0.82400
N 	N 	0.89154 0.77719 0.51647 -0.23100
N 	N 	0.87914 0.80120 0.50452 -0.21400
N 	N 	0.85658 0.82193 0.56541 -0.23200
N 	N 	0.86409 0.79486 0.57553 -0.21100
N 	N 	0.89161 0.73323 0.40799 -0.23100
N 	N 	0.86205 0.73427 0.40967 -0.21800
C 	C 	0.90180 0.74564 0.43064 0.08400
H 	H 	0.92100 0.74810 0.43480 -0.02500
N 	N 	0.87960 0.75431 0.44704 -0.11200
C 	C 	0.87321 0.79550 0.47806 0.08900
H 	H 	0.86480 0.80790 0.46510 -0.01300
N 	N 	0.76847 0.81178 0.64324 -0.22100
N 	N 	0.80954 0.81348 0.62232 -0.11200
N 	N 	0.78825 0.82428 0.66165 -0.23500
N 	N 	0.82989 0.81123 0.60141 -0.11100
C 	C 	0.84811 0.78908 0.59725 0.09200
H 	H 	0.84890 0.77260 0.60820 -0.01300
C 	C 	0.81267 0.82490 0.64864 0.09100
H 	H 	0.82950 0.83200 0.65620 -0.03200
C 	C 	0.83595 0.83128 0.58133 0.08800
H 	H 	0.82680 0.84870 0.57930 -0.01900
C 	C 	0.89231 0.75752 0.49719 0.08900
H 	H 	0.89920 0.73910 0.49970 -0.02000
C 	C 	0.85536 0.74666 0.43355 0.09000
H 	H 	0.83700 0.74970 0.44020 -0.01400
C 	C 	0.78190 0.80521 0.61991 0.08700
H 	H 	0.77390 0.79630 0.60420 -0.01200
N 	N 	0.88144 0.76815 0.47271 -0.11200
Cu	Cu	0.37331 0.33720 0.52951 0.82500
Cu	Cu	0.39996 0.27457 0.55795 0.82400
N 	N 	0.39154 0.27719 0.51647 -0.23100
N 	N 	0.37914 0.30120 0.50452 -0.21400
N 	N 	0.35658 0.32193 0.56541 -0.23200
N 	N 	0.36409 0.29486 0.57553 -0.21100
N 	N 	0.39161 0.23323 0.40799 -0.23100
N 	N 	0.36205 0.23427 0.40967 -0.21800
C 	C 	0.40180 0.24564 0.43064 0.08400
H 	H 	0.42100 0.24810 0.43480 -0.02500
N 	N 	0.37960 0.25431 0.44704 -0.11200
C 	C 	0.37321 0.29550 0.47806 0.08900
H 	H 	0.36480 0.30790 0.46510 -0.01200
N 	N 	0.26847 0.31178 0.64324 -0.22000
N 	N 	0.30954 0.31348 0.62232 -0.11100
N 	N 	0.28825 0.32428 0.66165 -0.23400
N 	N 	0.32989 0.31123 0.60141 -0.11000
C 	C 	0.34811 0.28908 0.59725 0.09300
H 	H 	0.34890 0.27260 0.60820 -0.01200
C 	C 	0.31267 0.32490 0.64864 0.09200
H 	H 	0.32950 0.33200 0.65620 -0.03100
C 	C 	0.33595 0.33128 0.58133 0.08900
H 	H 	0.32680 0.34870 0.57930 -0.01800
C 	C 	0.39231 0.25752 0.49719 0.09000
H 	H 	0.39920 0.23910 0.49970 -0.01900
C 	C 	0.35536 0.24666 0.43355 0.09100
H 	H 	0.33700 0.24970 0.44020 -0.01300
C 	C 	0.28190 0.30521 0.61991 0.08800
H 	H 	0.27390 0.29630 0.60420 -0.01100
N 	N 	0.38144 0.26815 0.47271 -0.11100
Cu	Cu	0.37331 0.83720 0.02951 0.82600
Cu	Cu	0.39996 0.77457 0.05795 0.82500
N 	N 	0.39154 0.77719 0.01647 -0.23000
N 	N 	0.37914 0.80120 0.00452 -0.21300
N 	N 	0.35658 0.82193 0.06541 -0.23100
N 	N 	0.36409 0.79486 0.07553 -0.21000
N 	N 	0.39161 0.73323 0.90799 -0.23000
N 	N 	0.36205 0.73427 0.90967 -0.21700
C 	C 	0.40180 0.74564 0.93064 0.08500
H 	H 	0.42100 0.74810 0.93480 -0.02400
N 	N 	0.37960 0.75431 0.94704 -0.11100
C 	C 	0.37321 0.79550 0.97806 0.09000
H 	H 	0.36480 0.80790 0.96510 -0.01200
N 	N 	0.26847 0.81178 0.14324 -0.22000
N 	N 	0.30954 0.81348 0.12232 -0.11100
N 	N 	0.28825 0.82428 0.16165 -0.23400
N 	N 	0.32989 0.81123 0.10141 -0.11000
C 	C 	0.34811 0.78908 0.09725 0.09300
H 	H 	0.34890 0.77260 0.10820 -0.01200
C 	C 	0.31267 0.82490 0.14864 0.09200
H 	H 	0.32950 0.83200 0.15620 -0.03100
C 	C 	0.33595 0.83128 0.08133 0.08900
H 	H 	0.32680 0.84870 0.07930 -0.01800
C 	C 	0.39231 0.75752 0.99719 0.09000
H 	H 	0.39920 0.73910 0.99970 -0.01900
C 	C 	0.35536 0.74666 0.93355 0.09100
H 	H 	0.33700 0.74970 0.94020 -0.01300
C 	C 	0.28190 0.80521 0.11991 0.08800
H 	H 	0.27390 0.79630 0.10420 -0.01100
N 	N 	0.38144 0.76815 0.97271 -0.11100
Cu	Cu	0.37331 0.91280 0.72050 0.82600
Cu	Cu	0.39996 0.97543 0.69205 0.82500
N 	N 	0.39154 0.97281 0.73353 -0.23000
N 	N 	0.37914 0.94880 0.74548 -0.21300
N 	N 	0.35658 0.92807 0.68459 -0.23100
N 	N 	0.36409 0.95514 0.67447 -0.21000
N 	N 	0.39161 0.01677 0.84201 -0.23000
N 	N 	0.36205 0.01573 0.84033 -0.21700
C 	C 	0.40180 0.00436 0.81936 0.08500
H 	H 	0.42100 0.00190 0.81520 -0.02400
N 	N 	0.37960 0.99569 0.80296 -0.11100
C 	C 	0.37321 0.95450 0.77194 0.09000
H 	H 	0.36480 0.94210 0.78490 -0.01200
N 	N 	0.26847 0.93822 0.60676 -0.22000
N 	N 	0.30954 0.93652 0.62768 -0.11100
N 	N 	0.28825 0.92572 0.58835 -0.23400
N 	N 	0.32989 0.93877 0.64859 -0.11000
C 	C 	0.34811 0.96092 0.65275 0.09300
H 	H 	0.34890 0.97740 0.64180 -0.01200
C 	C 	0.31267 0.92510 0.60136 0.09200
H 	H 	0.32950 0.91800 0.59380 -0.03100
C 	C 	0.33595 0.91872 0.66867 0.08900
H 	H 	0.32680 0.90130 0.67070 -0.01800
C 	C 	0.39231 0.99248 0.75281 0.09000
H 	H 	0.39920 0.01090 0.75030 -0.01900
C 	C 	0.35536 0.00334 0.81645 0.09100
H 	H 	0.33700 0.00030 0.80980 -0.01300
C 	C 	0.28190 0.94479 0.63009 0.08800
H 	H 	0.27390 0.95370 0.64580 -0.01100
N 	N 	0.38144 0.98185 0.77729 -0.11100
Cu	Cu	0.37331 0.41280 0.22050 0.82600
Cu	Cu	0.39996 0.47543 0.19205 0.82500
N 	N 	0.39154 0.47281 0.23353 -0.23000
N 	N 	0.37914 0.44880 0.24548 -0.21300
N 	N 	0.35658 0.42807 0.18459 -0.23100
N 	N 	0.36409 0.45514 0.17447 -0.21000
N 	N 	0.39161 0.51677 0.34201 -0.23000
N 	N 	0.36205 0.51573 0.34033 -0.21700
C 	C 	0.40180 0.50436 0.31936 0.08500
H 	H 	0.42100 0.50190 0.31520 -0.02400
N 	N 	0.37960 0.49569 0.30296 -0.11100
C 	C 	0.37321 0.45450 0.27194 0.09000
H 	H 	0.36480 0.44210 0.28490 -0.01200
N 	N 	0.26847 0.43822 0.10676 -0.22000
N 	N 	0.30954 0.43652 0.12768 -0.11100
N 	N 	0.28825 0.42572 0.08835 -0.23400
N 	N 	0.32989 0.43877 0.14859 -0.11000
C 	C 	0.34811 0.46092 0.15275 0.09300
H 	H 	0.34890 0.47740 0.14180 -0.01200
C 	C 	0.31267 0.42510 0.10136 0.09200
H 	H 	0.32950 0.41800 0.09380 -0.03100
C 	C 	0.33595 0.41872 0.16867 0.08900
H 	H 	0.32680 0.40130 0.17070 -0.01800
C 	C 	0.39231 0.49248 0.25281 0.09000
H 	H 	0.39920 0.51090 0.25030 -0.01900
C 	C 	0.35536 0.50334 0.31645 0.09100
H 	H 	0.33700 0.50030 0.30980 -0.01300
C 	C 	0.28190 0.44479 0.13009 0.08800
H 	H 	0.27390 0.45370 0.14580 -0.01100
N 	N 	0.38144 0.48185 0.27729 -0.11100
Cu	Cu	0.87331 0.91280 0.22050 0.82600
Cu	Cu	0.89996 0.97543 0.19205 0.82500
N 	N 	0.89154 0.97281 0.23353 -0.23000
N 	N 	0.87914 0.94880 0.24548 -0.21300
N 	N 	0.85658 0.92807 0.18459 -0.23100
N 	N 	0.86409 0.95514 0.17447 -0.21000
N 	N 	0.89161 0.01677 0.34201 -0.23000
N 	N 	0.86205 0.01573 0.34033 -0.21700
C 	C 	0.90180 0.00436 0.31936 0.08500
H 	H 	0.92100 0.00190 0.31520 -0.02400
N 	N 	0.87960 0.99569 0.30296 -0.11100
C 	C 	0.87321 0.95450 0.27194 0.09000
H 	H 	0.86480 0.94210 0.28490 -0.01200
N 	N 	0.76847 0.93822 0.10676 -0.22000
N 	N 	0.80954 0.93652 0.12768 -0.11100
N 	N 	0.78825 0.92572 0.08835 -0.23400
N 	N 	0.82989 0.93877 0.14859 -0.11000
C 	C 	0.84811 0.96092 0.15275 0.09300
H 	H 	0.84890 0.97740 0.14180 -0.01200
C 	C 	0.81267 0.92510 0.10136 0.09200
H 	H 	0.82950 0.91800 0.09380 -0.03100
C 	C 	0.83595 0.91872 0.16867 0.08900
H 	H 	0.82680 0.90130 0.17070 -0.01800
C 	C 	0.89231 0.99248 0.25281 0.09000
H 	H 	0.89920 0.01090 0.25030 -0.01900
C 	C 	0.85536 0.00334 0.31645 0.09100
H 	H 	0.83700 0.00030 0.30980 -0.01300
C 	C 	0.78190 0.94479 0.13009 0.08800
H 	H 	0.77390 0.95370 0.14580 -0.01100
N 	N 	0.88144 0.98185 0.27729 -0.11100
Cu	Cu	0.87331 0.41280 0.72050 0.82600
Cu	Cu	0.89996 0.47543 0.69205 0.82500
N 	N 	0.89154 0.47281 0.73353 -0.23000
N 	N 	0.87914 0.44880 0.74548 -0.21300
N 	N 	0.85658 0.42807 0.68459 -0.23100
N 	N 	0.86409 0.45514 0.67447 -0.21000
N 	N 	0.89161 0.51677 0.84201 -0.23000
N 	N 	0.86205 0.51573 0.84033 -0.21700
C 	C 	0.90180 0.50436 0.81936 0.08500
H 	H 	0.92100 0.50190 0.81520 -0.02400
N 	N 	0.87960 0.49569 0.80296 -0.11100
C 	C 	0.87321 0.45450 0.77194 0.09000
H 	H 	0.86480 0.44210 0.78490 -0.01200
N 	N 	0.76847 0.43822 0.60676 -0.22000
N 	N 	0.80954 0.43652 0.62768 -0.11100
N 	N 	0.78825 0.42572 0.58835 -0.23400
N 	N 	0.82989 0.43877 0.64859 -0.11000
C 	C 	0.84811 0.46092 0.65275 0.09300
H 	H 	0.84890 0.47740 0.64180 -0.01200
C 	C 	0.81267 0.42510 0.60136 0.09200
H 	H 	0.82950 0.41800 0.59380 -0.03100
C 	C 	0.83595 0.41872 0.66867 0.08900
H 	H 	0.82680 0.40130 0.67070 -0.01800
C 	C 	0.89231 0.49248 0.75281 0.09000
H 	H 	0.89920 0.51090 0.75030 -0.01900
C 	C 	0.85536 0.50334 0.81645 0.09100
H 	H 	0.83700 0.50030 0.80980 -0.01300
C 	C 	0.78190 0.44479 0.63009 0.08800
H 	H 	0.77390 0.45370 0.64580 -0.01100
N 	N 	0.88144 0.48185 0.77729 -0.11100
Cu	Cu	0.87669 0.83720 0.22050 0.82600
Cu	Cu	0.85004 0.77457 0.19205 0.82500
N 	N 	0.85846 0.77719 0.23353 -0.23000
N 	N 	0.87086 0.80120 0.24548 -0.21300
N 	N 	0.89342 0.82193 0.18459 -0.23100
N 	N 	0.88591 0.79486 0.17447 -0.21000
N 	N 	0.85839 0.73323 0.34201 -0.23000
N 	N 	0.88795 0.73427 0.34033 -0.21700
C 	C 	0.84820 0.74564 0.31936 0.08500
H 	H 	0.82900 0.74810 0.31520 -0.02400
N 	N 	0.87040 0.75431 0.30296 -0.11100
C 	C 	0.87679 0.79550 0.27194 0.09000
H 	H 	0.88520 0.80790 0.28490 -0.01200
N 	N 	0.98153 0.81178 0.10676 -0.22000
N 	N 	0.94046 0.81348 0.12768 -0.11100
N 	N 	0.96175 0.82428 0.08835 -0.23400
N 	N 	0.92011 0.81123 0.14859 -0.11000
C 	C 	0.90189 0.78908 0.15275 0.09300
H 	H 	0.90110 0.77260 0.14180 -0.01200
C 	C 	0.93733 0.82490 0.10136 0.09200
H 	H 	0.92050 0.83200 0.09380 -0.03100
C 	C 	0.91405 0.83128 0.16867 0.08900
H 	H 	0.92320 0.84870 0.17070 -0.01800
C 	C 	0.85769 0.75752 0.25281 0.09000
H 	H 	0.85080 0.73910 0.25030 -0.01900
C 	C 	0.89464 0.74666 0.31645 0.09100
H 	H 	0.91300 0.74970 0.30980 -0.01300
C 	C 	0.96810 0.80521 0.13009 0.08800
H 	H 	0.97610 0.79630 0.14580 -0.01100
N 	N 	0.86856 0.76815 0.27729 -0.11100
Cu	Cu	0.87669 0.33720 0.72050 0.82600
Cu	Cu	0.85004 0.27457 0.69205 0.82500
N 	N 	0.85846 0.27719 0.73353 -0.23000
N 	N 	0.87086 0.30120 0.74548 -0.21300
N 	N 	0.89342 0.32193 0.68459 -0.23100
N 	N 	0.88591 0.29486 0.67447 -0.21000
N 	N 	0.85839 0.23323 0.84201 -0.23000
N 	N 	0.88795 0.23427 0.84033 -0.21700
C 	C 	0.84820 0.24564 0.81936 0.08500
H 	H 	0.82900 0.24810 0.81520 -0.02400
N 	N 	0.87040 0.25431 0.80296 -0.11100
C 	C 	0.87679 0.29550 0.77194 0.09000
H 	H 	0.88520 0.30790 0.78490 -0.01200
N 	N 	0.98153 0.31178 0.60676 -0.22000
N 	N 	0.94046 0.31348 0.62768 -0.11100
N 	N 	0.96175 0.32428 0.58835 -0.23400
N 	N 	0.92011 0.31123 0.64859 -0.11000
C 	C 	0.90189 0.28908 0.65275 0.09300
H 	H 	0.90110 0.27260 0.64180 -0.01200
C 	C 	0.93733 0.32490 0.60136 0.09200
H 	H 	0.92050 0.33200 0.59380 -0.03100
C 	C 	0.91405 0.33128 0.66867 0.08900
H 	H 	0.92320 0.34870 0.67070 -0.01800
C 	C 	0.85769 0.25752 0.75281 0.09000
H 	H 	0.85080 0.23910 0.75030 -0.01900
C 	C 	0.89464 0.24666 0.81645 0.09100
H 	H 	0.91300 0.24970 0.80980 -0.01300
C 	C 	0.96810 0.30521 0.63009 0.08800
H 	H 	0.97610 0.29630 0.64580 -0.01100
N 	N 	0.86856 0.26815 0.77729 -0.11100
Cu	Cu	0.37669 0.83720 0.72050 0.82600
Cu	Cu	0.35004 0.77457 0.69205 0.82500
N 	N 	0.35846 0.77719 0.73353 -0.23000
N 	N 	0.37086 0.80120 0.74548 -0.21300
N 	N 	0.39342 0.82193 0.68459 -0.23100
N 	N 	0.38591 0.79486 0.67447 -0.21000
N 	N 	0.35839 0.73323 0.84201 -0.23000
N 	N 	0.38795 0.73427 0.84033 -0.21700
C 	C 	0.34820 0.74564 0.81936 0.08500
H 	H 	0.32900 0.74810 0.81520 -0.02400
N 	N 	0.37040 0.75431 0.80296 -0.11100
C 	C 	0.37679 0.79550 0.77194 0.09000
H 	H 	0.38520 0.80790 0.78490 -0.01200
N 	N 	0.48153 0.81178 0.60676 -0.22000
N 	N 	0.44046 0.81348 0.62768 -0.11100
N 	N 	0.46175 0.82428 0.58835 -0.23400
N 	N 	0.42011 0.81123 0.64859 -0.11000
C 	C 	0.40189 0.78908 0.65275 0.09300
H 	H 	0.40110 0.77260 0.64180 -0.01200
C 	C 	0.43733 0.82490 0.60136 0.09200
H 	H 	0.42050 0.83200 0.59380 -0.03100
C 	C 	0.41405 0.83128 0.66867 0.08900
H 	H 	0.42320 0.84870 0.67070 -0.01800
C 	C 	0.35769 0.75752 0.75281 0.09000
H 	H 	0.35080 0.73910 0.75030 -0.01900
C 	C 	0.39464 0.74666 0.81645 0.09100
H 	H 	0.41300 0.74970 0.80980 -0.01300
C 	C 	0.46810 0.80521 0.63009 0.08800
H 	H 	0.47610 0.79630 0.64580 -0.01100
N 	N 	0.36856 0.76815 0.77729 -0.11100
Cu	Cu	0.37669 0.33720 0.22050 0.82600
Cu	Cu	0.35004 0.27457 0.19205 0.82500
N 	N 	0.35846 0.27719 0.23353 -0.23000
N 	N 	0.37086 0.30120 0.24548 -0.21300
N 	N 	0.39342 0.32193 0.18459 -0.23100
N 	N 	0.38591 0.29486 0.17447 -0.21000
N 	N 	0.35839 0.23323 0.34201 -0.23000
N 	N 	0.38795 0.23427 0.34033 -0.21700
C 	C 	0.34820 0.24564 0.31936 0.08500
H 	H 	0.32900 0.24810 0.31520 -0.02400
N 	N 	0.37040 0.25431 0.30296 -0.11100
C 	C 	0.37679 0.29550 0.27194 0.09000
H 	H 	0.38520 0.30790 0.28490 -0.01200
N 	N 	0.48153 0.31178 0.10676 -0.22000
N 	N 	0.44046 0.31348 0.12768 -0.11100
N 	N 	0.46175 0.32428 0.08835 -0.23400
N 	N 	0.42011 0.31123 0.14859 -0.11000
C 	C 	0.40189 0.28908 0.15275 0.09300
H 	H 	0.40110 0.27260 0.14180 -0.01200
C 	C 	0.43733 0.32490 0.10136 0.09200
H 	H 	0.42050 0.33200 0.09380 -0.03100
C 	C 	0.41405 0.33128 0.16867 0.08900
H 	H 	0.42320 0.34870 0.17070 -0.01800
C 	C 	0.35769 0.25752 0.25281 0.09000
H 	H 	0.35080 0.23910 0.25030 -0.01900
C 	C 	0.39464 0.24666 0.31645 0.09100
H 	H 	0.41300 0.24970 0.30980 -0.01300
C 	C 	0.46810 0.30521 0.13009 0.08800
H 	H 	0.47610 0.29630 0.14580 -0.01100
N 	N 	0.36856 0.26815 0.27729 -0.11100
Cu	Cu	0.52951 0.37669 0.41280 0.82600
Cu	Cu	0.55795 0.35004 0.47543 0.82500
N 	N 	0.51647 0.35846 0.47281 -0.23000
N 	N 	0.50452 0.37086 0.44880 -0.21300
N 	N 	0.56541 0.39342 0.42807 -0.23100
N 	N 	0.57553 0.38591 0.45514 -0.21000
N 	N 	0.40799 0.35839 0.51677 -0.23000
N 	N 	0.40967 0.38795 0.51573 -0.21700
C 	C 	0.43064 0.34820 0.50436 0.08500
H 	H 	0.43480 0.32900 0.50190 -0.02400
N 	N 	0.44704 0.37040 0.49569 -0.11100
C 	C 	0.47806 0.37679 0.45450 0.09000
H 	H 	0.46510 0.38520 0.44210 -0.01200
N 	N 	0.64324 0.48153 0.43822 -0.22000
N 	N 	0.62232 0.44046 0.43652 -0.11100
N 	N 	0.66165 0.46175 0.42572 -0.23400
N 	N 	0.60141 0.42011 0.43877 -0.11000
C 	C 	0.59725 0.40189 0.46092 0.09300
H 	H 	0.60820 0.40110 0.47740 -0.01200
C 	C 	0.64864 0.43733 0.42510 0.09200
H 	H 	0.65620 0.42050 0.41800 -0.03100
C 	C 	0.58133 0.41405 0.41872 0.08900
H 	H 	0.57930 0.42320 0.40130 -0.01800
C 	C 	0.49719 0.35769 0.49248 0.09000
H 	H 	0.49970 0.35080 0.51090 -0.01900
C 	C 	0.43355 0.39464 0.50334 0.09100
H 	H 	0.44020 0.41300 0.50030 -0.01300
C 	C 	0.61991 0.46810 0.44479 0.08800
H 	H 	0.60420 0.47610 0.45370 -0.01100
N 	N 	0.47271 0.36856 0.48185 -0.11100
Cu	Cu	0.52951 0.87669 0.91280 0.82600
Cu	Cu	0.55795 0.85004 0.97543 0.82500
N 	N 	0.51647 0.85846 0.97281 -0.23000
N 	N 	0.50452 0.87086 0.94880 -0.21300
N 	N 	0.56541 0.89342 0.92807 -0.23100
N 	N 	0.57553 0.88591 0.95514 -0.21000
N 	N 	0.40799 0.85839 0.01677 -0.23000
N 	N 	0.40967 0.88795 0.01573 -0.21700
C 	C 	0.43064 0.84820 0.00436 0.08500
H 	H 	0.43480 0.82900 0.00190 -0.02400
N 	N 	0.44704 0.87040 0.99569 -0.11100
C 	C 	0.47806 0.87679 0.95450 0.09000
H 	H 	0.46510 0.88520 0.94210 -0.01200
N 	N 	0.64324 0.98153 0.93822 -0.22000
N 	N 	0.62232 0.94046 0.93652 -0.11100
N 	N 	0.66165 0.96175 0.92572 -0.23400
N 	N 	0.60141 0.92011 0.93877 -0.11000
C 	C 	0.59725 0.90189 0.96092 0.09300
H 	H 	0.60820 0.90110 0.97740 -0.01200
C 	C 	0.64864 0.93733 0.92510 0.09200
H 	H 	0.65620 0.92050 0.91800 -0.03100
C 	C 	0.58133 0.91405 0.91872 0.08900
H 	H 	0.57930 0.92320 0.90130 -0.01800
C 	C 	0.49719 0.85769 0.99248 0.09000
H 	H 	0.49970 0.85080 0.01090 -0.01900
C 	C 	0.43355 0.89464 0.00334 0.09100
H 	H 	0.44020 0.91300 0.00030 -0.01300
C 	C 	0.61991 0.96810 0.94479 0.08800
H 	H 	0.60420 0.97610 0.95370 -0.01100
N 	N 	0.47271 0.86856 0.98185 -0.11100
Cu	Cu	0.02951 0.37669 0.91280 0.82600
Cu	Cu	0.05795 0.35004 0.97543 0.82500
N 	N 	0.01647 0.35846 0.97281 -0.23000
N 	N 	0.00452 0.37086 0.94880 -0.21300
N 	N 	0.06541 0.39342 0.92807 -0.23100
N 	N 	0.07553 0.38591 0.95514 -0.21000
N 	N 	0.90799 0.35839 0.01677 -0.23000
N 	N 	0.90967 0.38795 0.01573 -0.21700
C 	C 	0.93064 0.34820 0.00436 0.08500
H 	H 	0.93480 0.32900 0.00190 -0.02400
N 	N 	0.94704 0.37040 0.99569 -0.11100
C 	C 	0.97806 0.37679 0.95450 0.09000
H 	H 	0.96510 0.38520 0.94210 -0.01200
N 	N 	0.14324 0.48153 0.93822 -0.22000
N 	N 	0.12232 0.44046 0.93652 -0.11100
N 	N 	0.16165 0.46175 0.92572 -0.23400
N 	N 	0.10141 0.42011 0.93877 -0.11000
C 	C 	0.09725 0.40189 0.96092 0.09300
H 	H 	0.10820 0.40110 0.97740 -0.01200
C 	C 	0.14864 0.43733 0.92510 0.09200
H 	H 	0.15620 0.42050 0.91800 -0.03100
C 	C 	0.08133 0.41405 0.91872 0.08900
H 	H 	0.07930 0.42320 0.90130 -0.01800
C 	C 	0.99719 0.35769 0.99248 0.09000
H 	H 	0.99970 0.35080 0.01090 -0.01900
C 	C 	0.93355 0.39464 0.00334 0.09100
H 	H 	0.94020 0.41300 0.00030 -0.01300
C 	C 	0.11991 0.46810 0.94479 0.08800
H 	H 	0.10420 0.47610 0.95370 -0.01100
N 	N 	0.97271 0.36856 0.98185 -0.11100
Cu	Cu	0.02951 0.87669 0.41280 0.82600
Cu	Cu	0.05795 0.85004 0.47543 0.82500
N 	N 	0.01647 0.85846 0.47281 -0.23000
N 	N 	0.00452 0.87086 0.44880 -0.21300
N 	N 	0.06541 0.89342 0.42807 -0.23100
N 	N 	0.07553 0.88591 0.45514 -0.21000
N 	N 	0.90799 0.85839 0.51677 -0.23000
N 	N 	0.90967 0.88795 0.51573 -0.21700
C 	C 	0.93064 0.84820 0.50436 0.08500
H 	H 	0.93480 0.82900 0.50190 -0.02400
N 	N 	0.94704 0.87040 0.49569 -0.11100
C 	C 	0.97806 0.87679 0.45450 0.09000
H 	H 	0.96510 0.88520 0.44210 -0.01200
N 	N 	0.14324 0.98153 0.43822 -0.22000
N 	N 	0.12232 0.94046 0.43652 -0.11100
N 	N 	0.16165 0.96175 0.42572 -0.23400
N 	N 	0.10141 0.92011 0.43877 -0.11000
C 	C 	0.09725 0.90189 0.46092 0.09300
H 	H 	0.10820 0.90110 0.47740 -0.01200
C 	C 	0.14864 0.93733 0.42510 0.09200
H 	H 	0.15620 0.92050 0.41800 -0.03100
C 	C 	0.08133 0.91405 0.41872 0.08900
H 	H 	0.07930 0.92320 0.40130 -0.01800
C 	C 	0.99719 0.85769 0.49248 0.09000
H 	H 	0.99970 0.85080 0.51090 -0.01900
C 	C 	0.93355 0.89464 0.50334 0.09100
H 	H 	0.94020 0.91300 0.50030 -0.01300
C 	C 	0.11991 0.96810 0.44479 0.08800
H 	H 	0.10420 0.97610 0.45370 -0.01100
N 	N 	0.97271 0.86856 0.48185 -0.11100
Cu	Cu	0.02951 0.87331 0.33720 0.82600
Cu	Cu	0.05795 0.89996 0.27457 0.82500
N 	N 	0.01647 0.89154 0.27719 -0.23000
N 	N 	0.00452 0.87914 0.30120 -0.21300
N 	N 	0.06541 0.85658 0.32193 -0.23100
N 	N 	0.07553 0.86409 0.29486 -0.21000
N 	N 	0.90799 0.89161 0.23323 -0.23000
N 	N 	0.90967 0.86205 0.23427 -0.21700
C 	C 	0.93064 0.90180 0.24564 0.08500
H 	H 	0.93480 0.92100 0.24810 -0.02400
N 	N 	0.94704 0.87960 0.25431 -0.11100
C 	C 	0.97806 0.87321 0.29550 0.09000
H 	H 	0.96510 0.86480 0.30790 -0.01200
N 	N 	0.14324 0.76847 0.31178 -0.22000
N 	N 	0.12232 0.80954 0.31348 -0.11100
N 	N 	0.16165 0.78825 0.32428 -0.23400
N 	N 	0.10141 0.82989 0.31123 -0.11000
C 	C 	0.09725 0.84811 0.28908 0.09300
H 	H 	0.10820 0.84890 0.27260 -0.01200
C 	C 	0.14864 0.81267 0.32490 0.09200
H 	H 	0.15620 0.82950 0.33200 -0.03100
C 	C 	0.08133 0.83595 0.33128 0.08900
H 	H 	0.07930 0.82680 0.34870 -0.01800
C 	C 	0.99719 0.89231 0.25752 0.09000
H 	H 	0.99970 0.89920 0.23910 -0.01900
C 	C 	0.93355 0.85536 0.24666 0.09100
H 	H 	0.94020 0.83700 0.24970 -0.01300
C 	C 	0.11991 0.78190 0.30521 0.08800
H 	H 	0.10420 0.77390 0.29630 -0.01100
N 	N 	0.97271 0.88144 0.26815 -0.11100
Cu	Cu	0.02951 0.37331 0.83720 0.82600
Cu	Cu	0.05795 0.39996 0.77457 0.82500
N 	N 	0.01647 0.39154 0.77719 -0.23000
N 	N 	0.00452 0.37914 0.80120 -0.21300
N 	N 	0.06541 0.35658 0.82193 -0.23100
N 	N 	0.07553 0.36409 0.79486 -0.21000
N 	N 	0.90799 0.39161 0.73323 -0.23000
N 	N 	0.90967 0.36205 0.73427 -0.21700
C 	C 	0.93064 0.40180 0.74564 0.08500
H 	H 	0.93480 0.42100 0.74810 -0.02400
N 	N 	0.94704 0.37960 0.75431 -0.11100
C 	C 	0.97806 0.37321 0.79550 0.09000
H 	H 	0.96510 0.36480 0.80790 -0.01200
N 	N 	0.14324 0.26847 0.81178 -0.22000
N 	N 	0.12232 0.30954 0.81348 -0.11100
N 	N 	0.16165 0.28825 0.82428 -0.23400
N 	N 	0.10141 0.32989 0.81123 -0.11000
C 	C 	0.09725 0.34811 0.78908 0.09300
H 	H 	0.10820 0.34890 0.77260 -0.01200
C 	C 	0.14864 0.31267 0.82490 0.09200
H 	H 	0.15620 0.32950 0.83200 -0.03100
C 	C 	0.08133 0.33595 0.83128 0.08900
H 	H 	0.07930 0.32680 0.84870 -0.01800
C 	C 	0.99719 0.39231 0.75752 0.09000
H 	H 	0.99970 0.39920 0.73910 -0.01900
C 	C 	0.93355 0.35536 0.74666 0.09100
H 	H 	0.94020 0.33700 0.74970 -0.01300
C 	C 	0.11991 0.28190 0.80521 0.08800
H 	H 	0.10420 0.27390 0.79630 -0.01100
N 	N 	0.97271 0.38144 0.76815 -0.11100
Cu	Cu	0.52951 0.87331 0.83720 0.82600
Cu	Cu	0.55795 0.89996 0.77457 0.82500
N 	N 	0.51647 0.89154 0.77719 -0.23000
N 	N 	0.50452 0.87914 0.80120 -0.21300
N 	N 	0.56541 0.85658 0.82193 -0.23100
N 	N 	0.57553 0.86409 0.79486 -0.21000
N 	N 	0.40799 0.89161 0.73323 -0.23000
N 	N 	0.40967 0.86205 0.73427 -0.21700
C 	C 	0.43064 0.90180 0.74564 0.08500
H 	H 	0.43480 0.92100 0.74810 -0.02400
N 	N 	0.44704 0.87960 0.75431 -0.11100
C 	C 	0.47806 0.87321 0.79550 0.09000
H 	H 	0.46510 0.86480 0.80790 -0.01200
N 	N 	0.64324 0.76847 0.81178 -0.22000
N 	N 	0.62232 0.80954 0.81348 -0.11100
N 	N 	0.66165 0.78825 0.82428 -0.23400
N 	N 	0.60141 0.82989 0.81123 -0.11000
C 	C 	0.59725 0.84811 0.78908 0.09300
H 	H 	0.60820 0.84890 0.77260 -0.01200
C 	C 	0.64864 0.81267 0.82490 0.09200
H 	H 	0.65620 0.82950 0.83200 -0.03100
C 	C 	0.58133 0.83595 0.83128 0.08900
H 	H 	0.57930 0.82680 0.84870 -0.01800
C 	C 	0.49719 0.89231 0.75752 0.09000
H 	H 	0.49970 0.89920 0.73910 -0.01900
C 	C 	0.43355 0.85536 0.74666 0.09100
H 	H 	0.44020 0.83700 0.74970 -0.01300
C 	C 	0.61991 0.78190 0.80521 0.08800
H 	H 	0.60420 0.77390 0.79630 -0.01100
N 	N 	0.47271 0.88144 0.76815 -0.11100
Cu	Cu	0.52951 0.37331 0.33720 0.82600
Cu	Cu	0.55795 0.39996 0.27457 0.82500
N 	N 	0.51647 0.39154 0.27719 -0.23000
N 	N 	0.50452 0.37914 0.30120 -0.21300
N 	N 	0.56541 0.35658 0.32193 -0.23100
N 	N 	0.57553 0.36409 0.29486 -0.21000
N 	N 	0.40799 0.39161 0.23323 -0.23000
N 	N 	0.40967 0.36205 0.23427 -0.21700
C 	C 	0.43064 0.40180 0.24564 0.08500
H 	H 	0.43480 0.42100 0.24810 -0.02400
N 	N 	0.44704 0.37960 0.25431 -0.11100
C 	C 	0.47806 0.37321 0.29550 0.09000
H 	H 	0.46510 0.36480 0.30790 -0.01200
N 	N 	0.64324 0.26847 0.31178 -0.22000
N 	N 	0.62232 0.30954 0.31348 -0.11100
N 	N 	0.66165 0.28825 0.32428 -0.23400
N 	N 	0.60141 0.32989 0.31123 -0.11000
C 	C 	0.59725 0.34811 0.28908 0.09300
H 	H 	0.60820 0.34890 0.27260 -0.01200
C 	C 	0.64864 0.31267 0.32490 0.09200
H 	H 	0.65620 0.32950 0.33200 -0.03100
C 	C 	0.58133 0.33595 0.33128 0.08900
H 	H 	0.57930 0.32680 0.34870 -0.01800
C 	C 	0.49719 0.39231 0.25752 0.09000
H 	H 	0.49970 0.39920 0.23910 -0.01900
C 	C 	0.43355 0.35536 0.24666 0.09100
H 	H 	0.44020 0.33700 0.24970 -0.01300
C 	C 	0.61991 0.28190 0.30521 0.08800
H 	H 	0.60420 0.27390 0.29630 -0.01100
N 	N 	0.47271 0.38144 0.26815 -0.11100
Cu	Cu	0.72050 0.37331 0.91280 0.82600
Cu	Cu	0.69205 0.39996 0.97543 0.82500
N 	N 	0.73353 0.39154 0.97281 -0.23000
N 	N 	0.74548 0.37914 0.94880 -0.21300
N 	N 	0.68459 0.35658 0.92807 -0.23100
N 	N 	0.67447 0.36409 0.95514 -0.21000
N 	N 	0.84201 0.39161 0.01677 -0.23000
N 	N 	0.84033 0.36205 0.01573 -0.21700
C 	C 	0.81936 0.40180 0.00436 0.08500
H 	H 	0.81520 0.42100 0.00190 -0.02400
N 	N 	0.80296 0.37960 0.99569 -0.11100
C 	C 	0.77194 0.37321 0.95450 0.09000
H 	H 	0.78490 0.36480 0.94210 -0.01200
N 	N 	0.60676 0.26847 0.93822 -0.22000
N 	N 	0.62768 0.30954 0.93652 -0.11100
N 	N 	0.58835 0.28825 0.92572 -0.23400
N 	N 	0.64859 0.32989 0.93877 -0.11000
C 	C 	0.65275 0.34811 0.96092 0.09300
H 	H 	0.64180 0.34890 0.97740 -0.01200
C 	C 	0.60136 0.31267 0.92510 0.09200
H 	H 	0.59380 0.32950 0.91800 -0.03100
C 	C 	0.66867 0.33595 0.91872 0.08900
H 	H 	0.67070 0.32680 0.90130 -0.01800
C 	C 	0.75281 0.39231 0.99248 0.09000
H 	H 	0.75030 0.39920 0.01090 -0.01900
C 	C 	0.81645 0.35536 0.00334 0.09100
H 	H 	0.80980 0.33700 0.00030 -0.01300
C 	C 	0.63009 0.28190 0.94479 0.08800
H 	H 	0.64580 0.27390 0.95370 -0.01100
N 	N 	0.77729 0.38144 0.98185 -0.11100
Cu	Cu	0.72050 0.87331 0.41280 0.82600
Cu	Cu	0.69205 0.89996 0.47543 0.82500
N 	N 	0.73353 0.89154 0.47281 -0.23000
N 	N 	0.74548 0.87914 0.44880 -0.21300
N 	N 	0.68459 0.85658 0.42807 -0.23100
N 	N 	0.67447 0.86409 0.45514 -0.21000
N 	N 	0.84201 0.89161 0.51677 -0.23000
N 	N 	0.84033 0.86205 0.51573 -0.21700
C 	C 	0.81936 0.90180 0.50436 0.08500
H 	H 	0.81520 0.92100 0.50190 -0.02400
N 	N 	0.80296 0.87960 0.49569 -0.11100
C 	C 	0.77194 0.87321 0.45450 0.09000
H 	H 	0.78490 0.86480 0.44210 -0.01200
N 	N 	0.60676 0.76847 0.43822 -0.22000
N 	N 	0.62768 0.80954 0.43652 -0.11100
N 	N 	0.58835 0.78825 0.42572 -0.23400
N 	N 	0.64859 0.82989 0.43877 -0.11000
C 	C 	0.65275 0.84811 0.46092 0.09300
H 	H 	0.64180 0.84890 0.47740 -0.01200
C 	C 	0.60136 0.81267 0.42510 0.09200
H 	H 	0.59380 0.82950 0.41800 -0.03100
C 	C 	0.66867 0.83595 0.41872 0.08900
H 	H 	0.67070 0.82680 0.40130 -0.01800
C 	C 	0.75281 0.89231 0.49248 0.09000
H 	H 	0.75030 0.89920 0.51090 -0.01900
C 	C 	0.81645 0.85536 0.50334 0.09100
H 	H 	0.80980 0.83700 0.50030 -0.01300
C 	C 	0.63009 0.78190 0.44479 0.08800
H 	H 	0.64580 0.77390 0.45370 -0.01100
N 	N 	0.77729 0.88144 0.48185 -0.11100
Cu	Cu	0.22050 0.37331 0.41280 0.82600
Cu	Cu	0.19205 0.39996 0.47543 0.82500
N 	N 	0.23353 0.39154 0.47281 -0.23000
N 	N 	0.24548 0.37914 0.44880 -0.21300
N 	N 	0.18459 0.35658 0.42807 -0.23100
N 	N 	0.17447 0.36409 0.45514 -0.21000
N 	N 	0.34201 0.39161 0.51677 -0.23000
N 	N 	0.34033 0.36205 0.51573 -0.21700
C 	C 	0.31936 0.40180 0.50436 0.08500
H 	H 	0.31520 0.42100 0.50190 -0.02400
N 	N 	0.30296 0.37960 0.49569 -0.11100
C 	C 	0.27194 0.37321 0.45450 0.09000
H 	H 	0.28490 0.36480 0.44210 -0.01200
N 	N 	0.10676 0.26847 0.43822 -0.22000
N 	N 	0.12768 0.30954 0.43652 -0.11100
N 	N 	0.08835 0.28825 0.42572 -0.23400
N 	N 	0.14859 0.32989 0.43877 -0.11000
C 	C 	0.15275 0.34811 0.46092 0.09300
H 	H 	0.14180 0.34890 0.47740 -0.01200
C 	C 	0.10136 0.31267 0.42510 0.09200
H 	H 	0.09380 0.32950 0.41800 -0.03100
C 	C 	0.16867 0.33595 0.41872 0.08900
H 	H 	0.17070 0.32680 0.40130 -0.01800
C 	C 	0.25281 0.39231 0.49248 0.09000
H 	H 	0.25030 0.39920 0.51090 -0.01900
C 	C 	0.31645 0.35536 0.50334 0.09100
H 	H 	0.30980 0.33700 0.50030 -0.01300
C 	C 	0.13009 0.28190 0.44479 0.08800
H 	H 	0.14580 0.27390 0.45370 -0.01100
N 	N 	0.27729 0.38144 0.48185 -0.11100
Cu	Cu	0.22050 0.87331 0.91280 0.82600
Cu	Cu	0.19205 0.89996 0.97543 0.82500
N 	N 	0.23353 0.89154 0.97281 -0.23000
N 	N 	0.24548 0.87914 0.94880 -0.21300
N 	N 	0.18459 0.85658 0.92807 -0.23100
N 	N 	0.17447 0.86409 0.95514 -0.21000
N 	N 	0.34201 0.89161 0.01677 -0.23000
N 	N 	0.34033 0.86205 0.01573 -0.21700
C 	C 	0.31936 0.90180 0.00436 0.08500
H 	H 	0.31520 0.92100 0.00190 -0.02400
N 	N 	0.30296 0.87960 0.99569 -0.11100
C 	C 	0.27194 0.87321 0.95450 0.09000
H 	H 	0.28490 0.86480 0.94210 -0.01200
N 	N 	0.10676 0.76847 0.93822 -0.22000
N 	N 	0.12768 0.80954 0.93652 -0.11100
N 	N 	0.08835 0.78825 0.92572 -0.23400
N 	N 	0.14859 0.82989 0.93877 -0.11000
C 	C 	0.15275 0.84811 0.96092 0.09300
H 	H 	0.14180 0.84890 0.97740 -0.01200
C 	C 	0.10136 0.81267 0.92510 0.09200
H 	H 	0.09380 0.82950 0.91800 -0.03100
C 	C 	0.16867 0.83595 0.91872 0.08900
H 	H 	0.17070 0.82680 0.90130 -0.01800
C 	C 	0.25281 0.89231 0.99248 0.09000
H 	H 	0.25030 0.89920 0.01090 -0.01900
C 	C 	0.31645 0.85536 0.00334 0.09100
H 	H 	0.30980 0.83700 0.00030 -0.01300
C 	C 	0.13009 0.78190 0.94479 0.08800
H 	H 	0.14580 0.77390 0.95370 -0.01100
N 	N 	0.27729 0.88144 0.98185 -0.11100
Cu	Cu	0.22050 0.87669 0.83720 0.82600
Cu	Cu	0.19205 0.85004 0.77457 0.82500
N 	N 	0.23353 0.85846 0.77719 -0.23000
N 	N 	0.24548 0.87086 0.80120 -0.21300
N 	N 	0.18459 0.89342 0.82193 -0.23100
N 	N 	0.17447 0.88591 0.79486 -0.21000
N 	N 	0.34201 0.85839 0.73323 -0.23000
N 	N 	0.34033 0.88795 0.73427 -0.21700
C 	C 	0.31936 0.84820 0.74564 0.08500
H 	H 	0.31520 0.82900 0.74810 -0.02400
N 	N 	0.30296 0.87040 0.75431 -0.11100
C 	C 	0.27194 0.87679 0.79550 0.09000
H 	H 	0.28490 0.88520 0.80790 -0.01200
N 	N 	0.10676 0.98153 0.81178 -0.22000
N 	N 	0.12768 0.94046 0.81348 -0.11100
N 	N 	0.08835 0.96175 0.82428 -0.23400
N 	N 	0.14859 0.92011 0.81123 -0.11000
C 	C 	0.15275 0.90189 0.78908 0.09300
H 	H 	0.14180 0.90110 0.77260 -0.01200
C 	C 	0.10136 0.93733 0.82490 0.09200
H 	H 	0.09380 0.92050 0.83200 -0.03100
C 	C 	0.16867 0.91405 0.83128 0.08900
H 	H 	0.17070 0.92320 0.84870 -0.01800
C 	C 	0.25281 0.85769 0.75752 0.09000
H 	H 	0.25030 0.85080 0.73910 -0.01900
C 	C 	0.31645 0.89464 0.74666 0.09100
H 	H 	0.30980 0.91300 0.74970 -0.01300
C 	C 	0.13009 0.96810 0.80521 0.08800
H 	H 	0.14580 0.97610 0.79630 -0.01100
N 	N 	0.27729 0.86856 0.76815 -0.11100
Cu	Cu	0.22050 0.37669 0.33720 0.82600
Cu	Cu	0.19205 0.35004 0.27457 0.82500
N 	N 	0.23353 0.35846 0.27719 -0.23000
N 	N 	0.24548 0.37086 0.30120 -0.21300
N 	N 	0.18459 0.39342 0.32193 -0.23100
N 	N 	0.17447 0.38591 0.29486 -0.21000
N 	N 	0.34201 0.35839 0.23323 -0.23000
N 	N 	0.34033 0.38795 0.23427 -0.21700
C 	C 	0.31936 0.34820 0.24564 0.08500
H 	H 	0.31520 0.32900 0.24810 -0.02400
N 	N 	0.30296 0.37040 0.25431 -0.11100
C 	C 	0.27194 0.37679 0.29550 0.09000
H 	H 	0.28490 0.38520 0.30790 -0.01200
N 	N 	0.10676 0.48153 0.31178 -0.22000
N 	N 	0.12768 0.44046 0.31348 -0.11100
N 	N 	0.08835 0.46175 0.32428 -0.23400
N 	N 	0.14859 0.42011 0.31123 -0.11000
C 	C 	0.15275 0.40189 0.28908 0.09300
H 	H 	0.14180 0.40110 0.27260 -0.01200
C 	C 	0.10136 0.43733 0.32490 0.09200
H 	H 	0.09380 0.42050 0.33200 -0.03100
C 	C 	0.16867 0.41405 0.33128 0.08900
H 	H 	0.17070 0.42320 0.34870 -0.01800
C 	C 	0.25281 0.35769 0.25752 0.09000
H 	H 	0.25030 0.35080 0.23910 -0.01900
C 	C 	0.31645 0.39464 0.24666 0.09100
H 	H 	0.30980 0.41300 0.24970 -0.01300
C 	C 	0.13009 0.46810 0.30521 0.08800
H 	H 	0.14580 0.47610 0.29630 -0.01100
N 	N 	0.27729 0.36856 0.26815 -0.11100
Cu	Cu	0.72050 0.87669 0.33720 0.82600
Cu	Cu	0.69205 0.85004 0.27457 0.82500
N 	N 	0.73353 0.85846 0.27719 -0.23000
N 	N 	0.74548 0.87086 0.30120 -0.21300
N 	N 	0.68459 0.89342 0.32193 -0.23100
N 	N 	0.67447 0.88591 0.29486 -0.21000
N 	N 	0.84201 0.85839 0.23323 -0.23000
N 	N 	0.84033 0.88795 0.23427 -0.21700
C 	C 	0.81936 0.84820 0.24564 0.08500
H 	H 	0.81520 0.82900 0.24810 -0.02400
N 	N 	0.80296 0.87040 0.25431 -0.11100
C 	C 	0.77194 0.87679 0.29550 0.09000
H 	H 	0.78490 0.88520 0.30790 -0.01200
N 	N 	0.60676 0.98153 0.31178 -0.22000
N 	N 	0.62768 0.94046 0.31348 -0.11100
N 	N 	0.58835 0.96175 0.32428 -0.23400
N 	N 	0.64859 0.92011 0.31123 -0.11000
C 	C 	0.65275 0.90189 0.28908 0.09300
H 	H 	0.64180 0.90110 0.27260 -0.01200
C 	C 	0.60136 0.93733 0.32490 0.09200
H 	H 	0.59380 0.92050 0.33200 -0.03100
C 	C 	0.66867 0.91405 0.33128 0.08900
H 	H 	0.67070 0.92320 0.34870 -0.01800
C 	C 	0.75281 0.85769 0.25752 0.09000
H 	H 	0.75030 0.85080 0.23910 -0.01900
C 	C 	0.81645 0.89464 0.24666 0.09100
H 	H 	0.80980 0.91300 0.24970 -0.01300
C 	C 	0.63009 0.96810 0.30521 0.08800
H 	H 	0.64580 0.97610 0.29630 -0.01100
N 	N 	0.77729 0.86856 0.26815 -0.11100
Cu	Cu	0.72050 0.37669 0.83720 0.82600
Cu	Cu	0.69205 0.35004 0.77457 0.82500
N 	N 	0.73353 0.35846 0.77719 -0.23000
N 	N 	0.74548 0.37086 0.80120 -0.21300
N 	N 	0.68459 0.39342 0.82193 -0.23100
N 	N 	0.67447 0.38591 0.79486 -0.21000
N 	N 	0.84201 0.35839 0.73323 -0.23000
N 	N 	0.84033 0.38795 0.73427 -0.21700
C 	C 	0.81936 0.34820 0.74564 0.08500
H 	H 	0.81520 0.32900 0.74810 -0.02400
N 	N 	0.80296 0.37040 0.75431 -0.11100
C 	C 	0.77194 0.37679 0.79550 0.09000
H 	H 	0.78490 0.38520 0.80790 -0.01200
N 	N 	0.60676 0.48153 0.81178 -0.22000
N 	N 	0.62768 0.44046 0.81348 -0.11100
N 	N 	0.58835 0.46175 0.82428 -0.23400
N 	N 	0.64859 0.42011 0.81123 -0.11000
C 	C 	0.65275 0.40189 0.78908 0.09300
H 	H 	0.64180 0.40110 0.77260 -0.01200
C 	C 	0.60136 0.43733 0.82490 0.09200
H 	H 	0.59380 0.42050 0.83200 -0.03100
C 	C 	0.66867 0.41405 0.83128 0.08900
H 	H 	0.67070 0.42320 0.84870 -0.01800
C 	C 	0.75281 0.35769 0.75752 0.09000
H 	H 	0.75030 0.35080 0.73910 -0.01900
C 	C 	0.81645 0.39464 0.74666 0.09100
H 	H 	0.80980 0.41300 0.74970 -0.01300
C 	C 	0.63009 0.46810 0.80521 0.08800
H 	H 	0.64580 0.47610 0.79630 -0.01100
N 	N 	0.77729 0.36856 0.76815 -0.11100
Cu	Cu	0.41280 0.52951 0.37669 0.82600
Cu	Cu	0.47543 0.55795 0.35004 0.82500
N 	N 	0.47281 0.51647 0.35846 -0.23000
N 	N 	0.44880 0.50452 0.37086 -0.21300
N 	N 	0.42807 0.56541 0.39342 -0.23100
N 	N 	0.45514 0.57553 0.38591 -0.21000
N 	N 	0.51677 0.40799 0.35839 -0.23000
N 	N 	0.51573 0.40967 0.38795 -0.21700
C 	C 	0.50436 0.43064 0.34820 0.08500
H 	H 	0.50190 0.43480 0.32900 -0.02400
N 	N 	0.49569 0.44704 0.37040 -0.11100
C 	C 	0.45450 0.47806 0.37679 0.09000
H 	H 	0.44210 0.46510 0.38520 -0.01200
N 	N 	0.43822 0.64324 0.48153 -0.22000
N 	N 	0.43652 0.62232 0.44046 -0.11100
N 	N 	0.42572 0.66165 0.46175 -0.23400
N 	N 	0.43877 0.60141 0.42011 -0.11000
C 	C 	0.46092 0.59725 0.40189 0.09300
H 	H 	0.47740 0.60820 0.40110 -0.01200
C 	C 	0.42510 0.64864 0.43733 0.09200
H 	H 	0.41800 0.65620 0.42050 -0.03100
C 	C 	0.41872 0.58133 0.41405 0.08900
H 	H 	0.40130 0.57930 0.42320 -0.01800
C 	C 	0.49248 0.49719 0.35769 0.09000
H 	H 	0.51090 0.49970 0.35080 -0.01900
C 	C 	0.50334 0.43355 0.39464 0.09100
H 	H 	0.50030 0.44020 0.41300 -0.01300
C 	C 	0.44479 0.61991 0.46810 0.08800
H 	H 	0.45370 0.60420 0.47610 -0.01100
N 	N 	0.48185 0.47271 0.36856 -0.11100
Cu	Cu	0.41280 0.02951 0.87669 0.82600
Cu	Cu	0.47543 0.05795 0.85004 0.82500
N 	N 	0.47281 0.01647 0.85846 -0.23000
N 	N 	0.44880 0.00452 0.87086 -0.21300
N 	N 	0.42807 0.06541 0.89342 -0.23100
N 	N 	0.45514 0.07553 0.88591 -0.21000
N 	N 	0.51677 0.90799 0.85839 -0.23000
N 	N 	0.51573 0.90967 0.88795 -0.21700
C 	C 	0.50436 0.93064 0.84820 0.08500
H 	H 	0.50190 0.93480 0.82900 -0.02400
N 	N 	0.49569 0.94704 0.87040 -0.11100
C 	C 	0.45450 0.97806 0.87679 0.09000
H 	H 	0.44210 0.96510 0.88520 -0.01200
N 	N 	0.43822 0.14324 0.98153 -0.22000
N 	N 	0.43652 0.12232 0.94046 -0.11100
N 	N 	0.42572 0.16165 0.96175 -0.23400
N 	N 	0.43877 0.10141 0.92011 -0.11000
C 	C 	0.46092 0.09725 0.90189 0.09300
H 	H 	0.47740 0.10820 0.90110 -0.01200
C 	C 	0.42510 0.14864 0.93733 0.09200
H 	H 	0.41800 0.15620 0.92050 -0.03100
C 	C 	0.41872 0.08133 0.91405 0.08900
H 	H 	0.40130 0.07930 0.92320 -0.01800
C 	C 	0.49248 0.99719 0.85769 0.09000
H 	H 	0.51090 0.99970 0.85080 -0.01900
C 	C 	0.50334 0.93355 0.89464 0.09100
H 	H 	0.50030 0.94020 0.91300 -0.01300
C 	C 	0.44479 0.11991 0.96810 0.08800
H 	H 	0.45370 0.10420 0.97610 -0.01100
N 	N 	0.48185 0.97271 0.86856 -0.11100
Cu	Cu	0.91280 0.52951 0.87669 0.82600
Cu	Cu	0.97543 0.55795 0.85004 0.82500
N 	N 	0.97281 0.51647 0.85846 -0.23000
N 	N 	0.94880 0.50452 0.87086 -0.21300
N 	N 	0.92807 0.56541 0.89342 -0.23100
N 	N 	0.95514 0.57553 0.88591 -0.21000
N 	N 	0.01677 0.40799 0.85839 -0.23000
N 	N 	0.01573 0.40967 0.88795 -0.21700
C 	C 	0.00436 0.43064 0.84820 0.08500
H 	H 	0.00190 0.43480 0.82900 -0.02400
N 	N 	0.99569 0.44704 0.87040 -0.11100
C 	C 	0.95450 0.47806 0.87679 0.09000
H 	H 	0.94210 0.46510 0.88520 -0.01200
N 	N 	0.93822 0.64324 0.98153 -0.22000
N 	N 	0.93652 0.62232 0.94046 -0.11100
N 	N 	0.92572 0.66165 0.96175 -0.23400
N 	N 	0.93877 0.60141 0.92011 -0.11000
C 	C 	0.96092 0.59725 0.90189 0.09300
H 	H 	0.97740 0.60820 0.90110 -0.01200
C 	C 	0.92510 0.64864 0.93733 0.09200
H 	H 	0.91800 0.65620 0.92050 -0.03100
C 	C 	0.91872 0.58133 0.91405 0.08900
H 	H 	0.90130 0.57930 0.92320 -0.01800
C 	C 	0.99248 0.49719 0.85769 0.09000
H 	H 	0.01090 0.49970 0.85080 -0.01900
C 	C 	0.00334 0.43355 0.89464 0.09100
H 	H 	0.00030 0.44020 0.91300 -0.01300
C 	C 	0.94479 0.61991 0.96810 0.08800
H 	H 	0.95370 0.60420 0.97610 -0.01100
N 	N 	0.98185 0.47271 0.86856 -0.11100
Cu	Cu	0.91280 0.02951 0.37669 0.82600
Cu	Cu	0.97543 0.05795 0.35004 0.82500
N 	N 	0.97281 0.01647 0.35846 -0.23000
N 	N 	0.94880 0.00452 0.37086 -0.21300
N 	N 	0.92807 0.06541 0.39342 -0.23100
N 	N 	0.95514 0.07553 0.38591 -0.21000
N 	N 	0.01677 0.90799 0.35839 -0.23000
N 	N 	0.01573 0.90967 0.38795 -0.21700
C 	C 	0.00436 0.93064 0.34820 0.08500
H 	H 	0.00190 0.93480 0.32900 -0.02400
N 	N 	0.99569 0.94704 0.37040 -0.11100
C 	C 	0.95450 0.97806 0.37679 0.09000
H 	H 	0.94210 0.96510 0.38520 -0.01200
N 	N 	0.93822 0.14324 0.48153 -0.22000
N 	N 	0.93652 0.12232 0.44046 -0.11100
N 	N 	0.92572 0.16165 0.46175 -0.23400
N 	N 	0.93877 0.10141 0.42011 -0.11000
C 	C 	0.96092 0.09725 0.40189 0.09300
H 	H 	0.97740 0.10820 0.40110 -0.01200
C 	C 	0.92510 0.14864 0.43733 0.09200
H 	H 	0.91800 0.15620 0.42050 -0.03100
C 	C 	0.91872 0.08133 0.41405 0.08900
H 	H 	0.90130 0.07930 0.42320 -0.01800
C 	C 	0.99248 0.99719 0.35769 0.09000
H 	H 	0.01090 0.99970 0.35080 -0.01900
C 	C 	0.00334 0.93355 0.39464 0.09100
H 	H 	0.00030 0.94020 0.41300 -0.01300
C 	C 	0.94479 0.11991 0.46810 0.08800
H 	H 	0.95370 0.10420 0.47610 -0.01100
N 	N 	0.98185 0.97271 0.36856 -0.11100
Cu	Cu	0.33720 0.02951 0.87331 0.82600
Cu	Cu	0.27457 0.05795 0.89996 0.82500
N 	N 	0.27719 0.01647 0.89154 -0.23000
N 	N 	0.30120 0.00452 0.87914 -0.21300
N 	N 	0.32193 0.06541 0.85658 -0.23100
N 	N 	0.29486 0.07553 0.86409 -0.21000
N 	N 	0.23323 0.90799 0.89161 -0.23000
N 	N 	0.23427 0.90967 0.86205 -0.21700
C 	C 	0.24564 0.93064 0.90180 0.08500
H 	H 	0.24810 0.93480 0.92100 -0.02400
N 	N 	0.25431 0.94704 0.87960 -0.11100
C 	C 	0.29550 0.97806 0.87321 0.09000
H 	H 	0.30790 0.96510 0.86480 -0.01200
N 	N 	0.31178 0.14324 0.76847 -0.22000
N 	N 	0.31348 0.12232 0.80954 -0.11100
N 	N 	0.32428 0.16165 0.78825 -0.23400
N 	N 	0.31123 0.10141 0.82989 -0.11000
C 	C 	0.28908 0.09725 0.84811 0.09300
H 	H 	0.27260 0.10820 0.84890 -0.01200
C 	C 	0.32490 0.14864 0.81267 0.09200
H 	H 	0.33200 0.15620 0.82950 -0.03100
C 	C 	0.33128 0.08133 0.83595 0.08900
H 	H 	0.34870 0.07930 0.82680 -0.01800
C 	C 	0.25752 0.99719 0.89231 0.09000
H 	H 	0.23910 0.99970 0.89920 -0.01900
C 	C 	0.24666 0.93355 0.85536 0.09100
H 	H 	0.24970 0.94020 0.83700 -0.01300
C 	C 	0.30521 0.11991 0.78190 0.08800
H 	H 	0.29630 0.10420 0.77390 -0.01100
N 	N 	0.26815 0.97271 0.88144 -0.11100
Cu	Cu	0.33720 0.52951 0.37331 0.82600
Cu	Cu	0.27457 0.55795 0.39996 0.82500
N 	N 	0.27719 0.51647 0.39154 -0.23000
N 	N 	0.30120 0.50452 0.37914 -0.21300
N 	N 	0.32193 0.56541 0.35658 -0.23100
N 	N 	0.29486 0.57553 0.36409 -0.21000
N 	N 	0.23323 0.40799 0.39161 -0.23000
N 	N 	0.23427 0.40967 0.36205 -0.21700
C 	C 	0.24564 0.43064 0.40180 0.08500
H 	H 	0.24810 0.43480 0.42100 -0.02400
N 	N 	0.25431 0.44704 0.37960 -0.11100
C 	C 	0.29550 0.47806 0.37321 0.09000
H 	H 	0.30790 0.46510 0.36480 -0.01200
N 	N 	0.31178 0.64324 0.26847 -0.22000
N 	N 	0.31348 0.62232 0.30954 -0.11100
N 	N 	0.32428 0.66165 0.28825 -0.23400
N 	N 	0.31123 0.60141 0.32989 -0.11000
C 	C 	0.28908 0.59725 0.34811 0.09300
H 	H 	0.27260 0.60820 0.34890 -0.01200
C 	C 	0.32490 0.64864 0.31267 0.09200
H 	H 	0.33200 0.65620 0.32950 -0.03100
C 	C 	0.33128 0.58133 0.33595 0.08900
H 	H 	0.34870 0.57930 0.32680 -0.01800
C 	C 	0.25752 0.49719 0.39231 0.09000
H 	H 	0.23910 0.49970 0.39920 -0.01900
C 	C 	0.24666 0.43355 0.35536 0.09100
H 	H 	0.24970 0.44020 0.33700 -0.01300
C 	C 	0.30521 0.61991 0.28190 0.08800
H 	H 	0.29630 0.60420 0.27390 -0.01100
N 	N 	0.26815 0.47271 0.38144 -0.11100
Cu	Cu	0.83720 0.02951 0.37331 0.82600
Cu	Cu	0.77457 0.05795 0.39996 0.82500
N 	N 	0.77719 0.01647 0.39154 -0.23000
N 	N 	0.80120 0.00452 0.37914 -0.21300
N 	N 	0.82193 0.06541 0.35658 -0.23100
N 	N 	0.79486 0.07553 0.36409 -0.21000
N 	N 	0.73323 0.90799 0.39161 -0.23000
N 	N 	0.73427 0.90967 0.36205 -0.21700
C 	C 	0.74564 0.93064 0.40180 0.08500
H 	H 	0.74810 0.93480 0.42100 -0.02400
N 	N 	0.75431 0.94704 0.37960 -0.11100
C 	C 	0.79550 0.97806 0.37321 0.09000
H 	H 	0.80790 0.96510 0.36480 -0.01200
N 	N 	0.81178 0.14324 0.26847 -0.22000
N 	N 	0.81348 0.12232 0.30954 -0.11100
N 	N 	0.82428 0.16165 0.28825 -0.23400
N 	N 	0.81123 0.10141 0.32989 -0.11000
C 	C 	0.78908 0.09725 0.34811 0.09300
H 	H 	0.77260 0.10820 0.34890 -0.01200
C 	C 	0.82490 0.14864 0.31267 0.09200
H 	H 	0.83200 0.15620 0.32950 -0.03100
C 	C 	0.83128 0.08133 0.33595 0.08900
H 	H 	0.84870 0.07930 0.32680 -0.01800
C 	C 	0.75752 0.99719 0.39231 0.09000
H 	H 	0.73910 0.99970 0.39920 -0.01900
C 	C 	0.74666 0.93355 0.35536 0.09100
H 	H 	0.74970 0.94020 0.33700 -0.01300
C 	C 	0.80521 0.11991 0.28190 0.08800
H 	H 	0.79630 0.10420 0.27390 -0.01100
N 	N 	0.76815 0.97271 0.38144 -0.11100
Cu	Cu	0.83720 0.52951 0.87331 0.82600
Cu	Cu	0.77457 0.55795 0.89996 0.82500
N 	N 	0.77719 0.51647 0.89154 -0.23000
N 	N 	0.80120 0.50452 0.87914 -0.21300
N 	N 	0.82193 0.56541 0.85658 -0.23100
N 	N 	0.79486 0.57553 0.86409 -0.21000
N 	N 	0.73323 0.40799 0.89161 -0.23000
N 	N 	0.73427 0.40967 0.86205 -0.21700
C 	C 	0.74564 0.43064 0.90180 0.08500
H 	H 	0.74810 0.43480 0.92100 -0.02400
N 	N 	0.75431 0.44704 0.87960 -0.11100
C 	C 	0.79550 0.47806 0.87321 0.09000
H 	H 	0.80790 0.46510 0.86480 -0.01200
N 	N 	0.81178 0.64324 0.76847 -0.22000
N 	N 	0.81348 0.62232 0.80954 -0.11100
N 	N 	0.82428 0.66165 0.78825 -0.23400
N 	N 	0.81123 0.60141 0.82989 -0.11000
C 	C 	0.78908 0.59725 0.84811 0.09300
H 	H 	0.77260 0.60820 0.84890 -0.01200
C 	C 	0.82490 0.64864 0.81267 0.09200
H 	H 	0.83200 0.65620 0.82950 -0.03100
C 	C 	0.83128 0.58133 0.83595 0.08900
H 	H 	0.84870 0.57930 0.82680 -0.01800
C 	C 	0.75752 0.49719 0.89231 0.09000
H 	H 	0.73910 0.49970 0.89920 -0.01900
C 	C 	0.74666 0.43355 0.85536 0.09100
H 	H 	0.74970 0.44020 0.83700 -0.01300
C 	C 	0.80521 0.61991 0.78190 0.08800
H 	H 	0.79630 0.60420 0.77390 -0.01100
N 	N 	0.76815 0.47271 0.88144 -0.11100
Cu	Cu	0.91280 0.72050 0.37331 0.82600
Cu	Cu	0.97543 0.69205 0.39996 0.82500
N 	N 	0.97281 0.73353 0.39154 -0.23000
N 	N 	0.94880 0.74548 0.37914 -0.21300
N 	N 	0.92807 0.68459 0.35658 -0.23100
N 	N 	0.95514 0.67447 0.36409 -0.21000
N 	N 	0.01677 0.84201 0.39161 -0.23000
N 	N 	0.01573 0.84033 0.36205 -0.21700
C 	C 	0.00436 0.81936 0.40180 0.08500
H 	H 	0.00190 0.81520 0.42100 -0.02400
N 	N 	0.99569 0.80296 0.37960 -0.11100
C 	C 	0.95450 0.77194 0.37321 0.09000
H 	H 	0.94210 0.78490 0.36480 -0.01200
N 	N 	0.93822 0.60676 0.26847 -0.22000
N 	N 	0.93652 0.62768 0.30954 -0.11100
N 	N 	0.92572 0.58835 0.28825 -0.23400
N 	N 	0.93877 0.64859 0.32989 -0.11000
C 	C 	0.96092 0.65275 0.34811 0.09300
H 	H 	0.97740 0.64180 0.34890 -0.01200
C 	C 	0.92510 0.60136 0.31267 0.09200
H 	H 	0.91800 0.59380 0.32950 -0.03100
C 	C 	0.91872 0.66867 0.33595 0.08900
H 	H 	0.90130 0.67070 0.32680 -0.01800
C 	C 	0.99248 0.75281 0.39231 0.09000
H 	H 	0.01090 0.75030 0.39920 -0.01900
C 	C 	0.00334 0.81645 0.35536 0.09100
H 	H 	0.00030 0.80980 0.33700 -0.01300
C 	C 	0.94479 0.63009 0.28190 0.08800
H 	H 	0.95370 0.64580 0.27390 -0.01100
N 	N 	0.98185 0.77729 0.38144 -0.11100
Cu	Cu	0.91280 0.22050 0.87331 0.82600
Cu	Cu	0.97543 0.19205 0.89996 0.82500
N 	N 	0.97281 0.23353 0.89154 -0.23000
N 	N 	0.94880 0.24548 0.87914 -0.21300
N 	N 	0.92807 0.18459 0.85658 -0.23100
N 	N 	0.95514 0.17447 0.86409 -0.21000
N 	N 	0.01677 0.34201 0.89161 -0.23000
N 	N 	0.01573 0.34033 0.86205 -0.21700
C 	C 	0.00436 0.31936 0.90180 0.08500
H 	H 	0.00190 0.31520 0.92100 -0.02400
N 	N 	0.99569 0.30296 0.87960 -0.11100
C 	C 	0.95450 0.27194 0.87321 0.09000
H 	H 	0.94210 0.28490 0.86480 -0.01200
N 	N 	0.93822 0.10676 0.76847 -0.22000
N 	N 	0.93652 0.12768 0.80954 -0.11100
N 	N 	0.92572 0.08835 0.78825 -0.23400
N 	N 	0.93877 0.14859 0.82989 -0.11000
C 	C 	0.96092 0.15275 0.84811 0.09300
H 	H 	0.97740 0.14180 0.84890 -0.01200
C 	C 	0.92510 0.10136 0.81267 0.09200
H 	H 	0.91800 0.09380 0.82950 -0.03100
C 	C 	0.91872 0.16867 0.83595 0.08900
H 	H 	0.90130 0.17070 0.82680 -0.01800
C 	C 	0.99248 0.25281 0.89231 0.09000
H 	H 	0.01090 0.25030 0.89920 -0.01900
C 	C 	0.00334 0.31645 0.85536 0.09100
H 	H 	0.00030 0.30980 0.83700 -0.01300
C 	C 	0.94479 0.13009 0.78190 0.08800
H 	H 	0.95370 0.14580 0.77390 -0.01100
N 	N 	0.98185 0.27729 0.88144 -0.11100
Cu	Cu	0.41280 0.72050 0.87331 0.82600
Cu	Cu	0.47543 0.69205 0.89996 0.82500
N 	N 	0.47281 0.73353 0.89154 -0.23000
N 	N 	0.44880 0.74548 0.87914 -0.21300
N 	N 	0.42807 0.68459 0.85658 -0.23100
N 	N 	0.45514 0.67447 0.86409 -0.21000
N 	N 	0.51677 0.84201 0.89161 -0.23000
N 	N 	0.51573 0.84033 0.86205 -0.21700
C 	C 	0.50436 0.81936 0.90180 0.08500
H 	H 	0.50190 0.81520 0.92100 -0.02400
N 	N 	0.49569 0.80296 0.87960 -0.11100
C 	C 	0.45450 0.77194 0.87321 0.09000
H 	H 	0.44210 0.78490 0.86480 -0.01200
N 	N 	0.43822 0.60676 0.76847 -0.22000
N 	N 	0.43652 0.62768 0.80954 -0.11100
N 	N 	0.42572 0.58835 0.78825 -0.23400
N 	N 	0.43877 0.64859 0.82989 -0.11000
C 	C 	0.46092 0.65275 0.84811 0.09300
H 	H 	0.47740 0.64180 0.84890 -0.01200
C 	C 	0.42510 0.60136 0.81267 0.09200
H 	H 	0.41800 0.59380 0.82950 -0.03100
C 	C 	0.41872 0.66867 0.83595 0.08900
H 	H 	0.40130 0.67070 0.82680 -0.01800
C 	C 	0.49248 0.75281 0.89231 0.09000
H 	H 	0.51090 0.75030 0.89920 -0.01900
C 	C 	0.50334 0.81645 0.85536 0.09100
H 	H 	0.50030 0.80980 0.83700 -0.01300
C 	C 	0.44479 0.63009 0.78190 0.08800
H 	H 	0.45370 0.64580 0.77390 -0.01100
N 	N 	0.48185 0.77729 0.88144 -0.11100
Cu	Cu	0.41280 0.22050 0.37331 0.82600
Cu	Cu	0.47543 0.19205 0.39996 0.82500
N 	N 	0.47281 0.23353 0.39154 -0.23000
N 	N 	0.44880 0.24548 0.37914 -0.21300
N 	N 	0.42807 0.18459 0.35658 -0.23100
N 	N 	0.45514 0.17447 0.36409 -0.21000
N 	N 	0.51677 0.34201 0.39161 -0.23000
N 	N 	0.51573 0.34033 0.36205 -0.21700
C 	C 	0.50436 0.31936 0.40180 0.08500
H 	H 	0.50190 0.31520 0.42100 -0.02400
N 	N 	0.49569 0.30296 0.37960 -0.11100
C 	C 	0.45450 0.27194 0.37321 0.09000
H 	H 	0.44210 0.28490 0.36480 -0.01200
N 	N 	0.43822 0.10676 0.26847 -0.22000
N 	N 	0.43652 0.12768 0.30954 -0.11100
N 	N 	0.42572 0.08835 0.28825 -0.23400
N 	N 	0.43877 0.14859 0.32989 -0.11000
C 	C 	0.46092 0.15275 0.34811 0.09300
H 	H 	0.47740 0.14180 0.34890 -0.01200
C 	C 	0.42510 0.10136 0.31267 0.09200
H 	H 	0.41800 0.09380 0.32950 -0.03100
C 	C 	0.41872 0.16867 0.33595 0.08900
H 	H 	0.40130 0.17070 0.32680 -0.01800
C 	C 	0.49248 0.25281 0.39231 0.09000
H 	H 	0.51090 0.25030 0.39920 -0.01900
C 	C 	0.50334 0.31645 0.35536 0.09100
H 	H 	0.50030 0.30980 0.33700 -0.01300
C 	C 	0.44479 0.13009 0.28190 0.08800
H 	H 	0.45370 0.14580 0.27390 -0.01100
N 	N 	0.48185 0.27729 0.38144 -0.11100
Cu	Cu	0.83720 0.22050 0.87669 0.82600
Cu	Cu	0.77457 0.19205 0.85004 0.82500
N 	N 	0.77719 0.23353 0.85846 -0.23000
N 	N 	0.80120 0.24548 0.87086 -0.21300
N 	N 	0.82193 0.18459 0.89342 -0.23100
N 	N 	0.79486 0.17447 0.88591 -0.21000
N 	N 	0.73323 0.34201 0.85839 -0.23000
N 	N 	0.73427 0.34033 0.88795 -0.21700
C 	C 	0.74564 0.31936 0.84820 0.08500
H 	H 	0.74810 0.31520 0.82900 -0.02400
N 	N 	0.75431 0.30296 0.87040 -0.11100
C 	C 	0.79550 0.27194 0.87679 0.09000
H 	H 	0.80790 0.28490 0.88520 -0.01200
N 	N 	0.81178 0.10676 0.98153 -0.22000
N 	N 	0.81348 0.12768 0.94046 -0.11100
N 	N 	0.82428 0.08835 0.96175 -0.23400
N 	N 	0.81123 0.14859 0.92011 -0.11000
C 	C 	0.78908 0.15275 0.90189 0.09300
H 	H 	0.77260 0.14180 0.90110 -0.01200
C 	C 	0.82490 0.10136 0.93733 0.09200
H 	H 	0.83200 0.09380 0.92050 -0.03100
C 	C 	0.83128 0.16867 0.91405 0.08900
H 	H 	0.84870 0.17070 0.92320 -0.01800
C 	C 	0.75752 0.25281 0.85769 0.09000
H 	H 	0.73910 0.25030 0.85080 -0.01900
C 	C 	0.74666 0.31645 0.89464 0.09100
H 	H 	0.74970 0.30980 0.91300 -0.01300
C 	C 	0.80521 0.13009 0.96810 0.08800
H 	H 	0.79630 0.14580 0.97610 -0.01100
N 	N 	0.76815 0.27729 0.86856 -0.11100
Cu	Cu	0.83720 0.72050 0.37669 0.82600
Cu	Cu	0.77457 0.69205 0.35004 0.82500
N 	N 	0.77719 0.73353 0.35846 -0.23000
N 	N 	0.80120 0.74548 0.37086 -0.21300
N 	N 	0.82193 0.68459 0.39342 -0.23100
N 	N 	0.79486 0.67447 0.38591 -0.21000
N 	N 	0.73323 0.84201 0.35839 -0.23000
N 	N 	0.73427 0.84033 0.38795 -0.21700
C 	C 	0.74564 0.81936 0.34820 0.08500
H 	H 	0.74810 0.81520 0.32900 -0.02400
N 	N 	0.75431 0.80296 0.37040 -0.11100
C 	C 	0.79550 0.77194 0.37679 0.09000
H 	H 	0.80790 0.78490 0.38520 -0.01200
N 	N 	0.81178 0.60676 0.48153 -0.22000
N 	N 	0.81348 0.62768 0.44046 -0.11100
N 	N 	0.82428 0.58835 0.46175 -0.23400
N 	N 	0.81123 0.64859 0.42011 -0.11000
C 	C 	0.78908 0.65275 0.40189 0.09300
H 	H 	0.77260 0.64180 0.40110 -0.01200
C 	C 	0.82490 0.60136 0.43733 0.09200
H 	H 	0.83200 0.59380 0.42050 -0.03100
C 	C 	0.83128 0.66867 0.41405 0.08900
H 	H 	0.84870 0.67070 0.42320 -0.01800
C 	C 	0.75752 0.75281 0.35769 0.09000
H 	H 	0.73910 0.75030 0.35080 -0.01900
C 	C 	0.74666 0.81645 0.39464 0.09100
H 	H 	0.74970 0.80980 0.41300 -0.01300
C 	C 	0.80521 0.63009 0.46810 0.08800
H 	H 	0.79630 0.64580 0.47610 -0.01100
N 	N 	0.76815 0.77729 0.36856 -0.11100
Cu	Cu	0.33720 0.22050 0.37669 0.82600
Cu	Cu	0.27457 0.19205 0.35004 0.82500
N 	N 	0.27719 0.23353 0.35846 -0.23000
N 	N 	0.30120 0.24548 0.37086 -0.21300
N 	N 	0.32193 0.18459 0.39342 -0.23100
N 	N 	0.29486 0.17447 0.38591 -0.21000
N 	N 	0.23323 0.34201 0.35839 -0.23000
N 	N 	0.23427 0.34033 0.38795 -0.21700
C 	C 	0.24564 0.31936 0.34820 0.08500
H 	H 	0.24810 0.31520 0.32900 -0.02400
N 	N 	0.25431 0.30296 0.37040 -0.11100
C 	C 	0.29550 0.27194 0.37679 0.09000
H 	H 	0.30790 0.28490 0.38520 -0.01200
N 	N 	0.31178 0.10676 0.48153 -0.22000
N 	N 	0.31348 0.12768 0.44046 -0.11100
N 	N 	0.32428 0.08835 0.46175 -0.23400
N 	N 	0.31123 0.14859 0.42011 -0.11000
C 	C 	0.28908 0.15275 0.40189 0.09300
H 	H 	0.27260 0.14180 0.40110 -0.01200
C 	C 	0.32490 0.10136 0.43733 0.09200
H 	H 	0.33200 0.09380 0.42050 -0.03100
C 	C 	0.33128 0.16867 0.41405 0.08900
H 	H 	0.34870 0.17070 0.42320 -0.01800
C 	C 	0.25752 0.25281 0.35769 0.09000
H 	H 	0.23910 0.25030 0.35080 -0.01900
C 	C 	0.24666 0.31645 0.39464 0.09100
H 	H 	0.24970 0.30980 0.41300 -0.01300
C 	C 	0.30521 0.13009 0.46810 0.08800
H 	H 	0.29630 0.14580 0.47610 -0.01100
N 	N 	0.26815 0.27729 0.36856 -0.11100
Cu	Cu	0.33720 0.72050 0.87669 0.82600
Cu	Cu	0.27457 0.69205 0.85004 0.82500
N 	N 	0.27719 0.73353 0.85846 -0.23000
N 	N 	0.30120 0.74548 0.87086 -0.21300
N 	N 	0.32193 0.68459 0.89342 -0.23100
N 	N 	0.29486 0.67447 0.88591 -0.21000
N 	N 	0.23323 0.84201 0.85839 -0.23000
N 	N 	0.23427 0.84033 0.88795 -0.21700
C 	C 	0.24564 0.81936 0.84820 0.08500
H 	H 	0.24810 0.81520 0.82900 -0.02400
N 	N 	0.25431 0.80296 0.87040 -0.11100
C 	C 	0.29550 0.77194 0.87679 0.09000
H 	H 	0.30790 0.78490 0.88520 -0.01200
N 	N 	0.31178 0.60676 0.98153 -0.22000
N 	N 	0.31348 0.62768 0.94046 -0.11100
N 	N 	0.32428 0.58835 0.96175 -0.23400
N 	N 	0.31123 0.64859 0.92011 -0.11000
C 	C 	0.28908 0.65275 0.90189 0.09300
H 	H 	0.27260 0.64180 0.90110 -0.01200
C 	C 	0.32490 0.60136 0.93733 0.09200
H 	H 	0.33200 0.59380 0.92050 -0.03100
C 	C 	0.33128 0.66867 0.91405 0.08900
H 	H 	0.34870 0.67070 0.92320 -0.01800
C 	C 	0.25752 0.75281 0.85769 0.09000
H 	H 	0.23910 0.75030 0.85080 -0.01900
C 	C 	0.24666 0.81645 0.89464 0.09100
H 	H 	0.24970 0.80980 0.91300 -0.01300
C 	C 	0.30521 0.63009 0.96810 0.08800
H 	H 	0.29630 0.64580 0.97610 -0.01100
N 	N 	0.26815 0.77729 0.86856 -0.11100
Cu	Cu	0.16280 0.62669 0.47050 0.82600
Cu	Cu	0.22543 0.60004 0.44205 0.82500
N 	N 	0.22281 0.60846 0.48353 -0.23000
N 	N 	0.19880 0.62086 0.49548 -0.21300
N 	N 	0.17807 0.64342 0.43459 -0.23100
N 	N 	0.20514 0.63591 0.42447 -0.21000
N 	N 	0.26677 0.60839 0.59201 -0.23000
N 	N 	0.26573 0.63795 0.59033 -0.21700
C 	C 	0.25436 0.59820 0.56936 0.08500
H 	H 	0.25190 0.57900 0.56520 -0.02400
N 	N 	0.24569 0.62040 0.55296 -0.11100
C 	C 	0.20450 0.62679 0.52194 0.09000
H 	H 	0.19210 0.63520 0.53490 -0.01200
N 	N 	0.18822 0.73153 0.35676 -0.22000
N 	N 	0.18652 0.69046 0.37768 -0.11100
N 	N 	0.17572 0.71175 0.33835 -0.23400
N 	N 	0.18877 0.67011 0.39859 -0.11000
C 	C 	0.21092 0.65189 0.40275 0.09300
H 	H 	0.22740 0.65110 0.39180 -0.01200
C 	C 	0.17510 0.68733 0.35136 0.09200
H 	H 	0.16800 0.67050 0.34380 -0.03100
C 	C 	0.16872 0.66405 0.41867 0.08900
H 	H 	0.15130 0.67320 0.42070 -0.01800
C 	C 	0.24248 0.60769 0.50281 0.09000
H 	H 	0.26090 0.60080 0.50030 -0.01900
C 	C 	0.25334 0.64464 0.56645 0.09100
H 	H 	0.25030 0.66300 0.55980 -0.01300
C 	C 	0.19479 0.71810 0.38009 0.08800
H 	H 	0.20370 0.72610 0.39580 -0.01100
N 	N 	0.23185 0.61856 0.52729 -0.11100
Cu	Cu	0.16280 0.12669 0.97050 0.82600
Cu	Cu	0.22543 0.10004 0.94205 0.82500
N 	N 	0.22281 0.10846 0.98353 -0.23000
N 	N 	0.19880 0.12086 0.99548 -0.21300
N 	N 	0.17807 0.14342 0.93459 -0.23100
N 	N 	0.20514 0.13591 0.92447 -0.21000
N 	N 	0.26677 0.10839 0.09201 -0.23000
N 	N 	0.26573 0.13795 0.09033 -0.21700
C 	C 	0.25436 0.09820 0.06936 0.08500
H 	H 	0.25190 0.07900 0.06520 -0.02400
N 	N 	0.24569 0.12040 0.05296 -0.11100
C 	C 	0.20450 0.12679 0.02194 0.09000
H 	H 	0.19210 0.13520 0.03490 -0.01200
N 	N 	0.18822 0.23153 0.85676 -0.22000
N 	N 	0.18652 0.19046 0.87768 -0.11100
N 	N 	0.17572 0.21175 0.83835 -0.23400
N 	N 	0.18877 0.17011 0.89859 -0.11000
C 	C 	0.21092 0.15189 0.90275 0.09300
H 	H 	0.22740 0.15110 0.89180 -0.01200
C 	C 	0.17510 0.18733 0.85136 0.09200
H 	H 	0.16800 0.17050 0.84380 -0.03100
C 	C 	0.16872 0.16405 0.91867 0.08900
H 	H 	0.15130 0.17320 0.92070 -0.01800
C 	C 	0.24248 0.10769 0.00281 0.09000
H 	H 	0.26090 0.10080 0.00030 -0.01900
C 	C 	0.25334 0.14464 0.06645 0.09100
H 	H 	0.25030 0.16300 0.05980 -0.01300
C 	C 	0.19479 0.21810 0.88009 0.08800
H 	H 	0.20370 0.22610 0.89580 -0.01100
N 	N 	0.23185 0.11856 0.02729 -0.11100
Cu	Cu	0.66280 0.62669 0.97050 0.82600
Cu	Cu	0.72543 0.60004 0.94205 0.82500
N 	N 	0.72281 0.60846 0.98353 -0.23000
N 	N 	0.69880 0.62086 0.99548 -0.21300
N 	N 	0.67807 0.64342 0.93459 -0.23100
N 	N 	0.70514 0.63591 0.92447 -0.21000
N 	N 	0.76677 0.60839 0.09201 -0.23000
N 	N 	0.76573 0.63795 0.09033 -0.21700
C 	C 	0.75436 0.59820 0.06936 0.08500
H 	H 	0.75190 0.57900 0.06520 -0.02400
N 	N 	0.74569 0.62040 0.05296 -0.11100
C 	C 	0.70450 0.62679 0.02194 0.09000
H 	H 	0.69210 0.63520 0.03490 -0.01200
N 	N 	0.68822 0.73153 0.85676 -0.22000
N 	N 	0.68652 0.69046 0.87768 -0.11100
N 	N 	0.67572 0.71175 0.83835 -0.23400
N 	N 	0.68877 0.67011 0.89859 -0.11000
C 	C 	0.71092 0.65189 0.90275 0.09300
H 	H 	0.72740 0.65110 0.89180 -0.01200
C 	C 	0.67510 0.68733 0.85136 0.09200
H 	H 	0.66800 0.67050 0.84380 -0.03100
C 	C 	0.66872 0.66405 0.91867 0.08900
H 	H 	0.65130 0.67320 0.92070 -0.01800
C 	C 	0.74248 0.60769 0.00281 0.09000
H 	H 	0.76090 0.60080 0.00030 -0.01900
C 	C 	0.75334 0.64464 0.06645 0.09100
H 	H 	0.75030 0.66300 0.05980 -0.01300
C 	C 	0.69479 0.71810 0.88009 0.08800
H 	H 	0.70370 0.72610 0.89580 -0.01100
N 	N 	0.73185 0.61856 0.02729 -0.11100
Cu	Cu	0.66280 0.12669 0.47050 0.82600
Cu	Cu	0.72543 0.10004 0.44205 0.82500
N 	N 	0.72281 0.10846 0.48353 -0.23000
N 	N 	0.69880 0.12086 0.49548 -0.21300
N 	N 	0.67807 0.14342 0.43459 -0.23100
N 	N 	0.70514 0.13591 0.42447 -0.21000
N 	N 	0.76677 0.10839 0.59201 -0.23000
N 	N 	0.76573 0.13795 0.59033 -0.21700
C 	C 	0.75436 0.09820 0.56936 0.08500
H 	H 	0.75190 0.07900 0.56520 -0.02400
N 	N 	0.74569 0.12040 0.55296 -0.11100
C 	C 	0.70450 0.12679 0.52194 0.09000
H 	H 	0.69210 0.13520 0.53490 -0.01200
N 	N 	0.68822 0.23153 0.35676 -0.22000
N 	N 	0.68652 0.19046 0.37768 -0.11100
N 	N 	0.67572 0.21175 0.33835 -0.23400
N 	N 	0.68877 0.17011 0.39859 -0.11000
C 	C 	0.71092 0.15189 0.40275 0.09300
H 	H 	0.72740 0.15110 0.39180 -0.01200
C 	C 	0.67510 0.18733 0.35136 0.09200
H 	H 	0.66800 0.17050 0.34380 -0.03100
C 	C 	0.66872 0.16405 0.41867 0.08900
H 	H 	0.65130 0.17320 0.42070 -0.01800
C 	C 	0.74248 0.10769 0.50281 0.09000
H 	H 	0.76090 0.10080 0.50030 -0.01900
C 	C 	0.75334 0.14464 0.56645 0.09100
H 	H 	0.75030 0.16300 0.55980 -0.01300
C 	C 	0.69479 0.21810 0.38009 0.08800
H 	H 	0.70370 0.22610 0.39580 -0.01100
N 	N 	0.73185 0.11856 0.52729 -0.11100
Cu	Cu	0.08720 0.12331 0.97050 0.82600
Cu	Cu	0.02457 0.14996 0.94205 0.82500
N 	N 	0.02719 0.14154 0.98353 -0.23000
N 	N 	0.05120 0.12914 0.99548 -0.21300
N 	N 	0.07193 0.10658 0.93459 -0.23100
N 	N 	0.04486 0.11409 0.92447 -0.21000
N 	N 	0.98323 0.14161 0.09201 -0.23000
N 	N 	0.98427 0.11205 0.09033 -0.21700
C 	C 	0.99564 0.15180 0.06936 0.08500
H 	H 	0.99810 0.17100 0.06520 -0.02400
N 	N 	0.00431 0.12960 0.05296 -0.11100
C 	C 	0.04550 0.12321 0.02194 0.09000
H 	H 	0.05790 0.11480 0.03490 -0.01200
N 	N 	0.06178 0.01847 0.85676 -0.22000
N 	N 	0.06348 0.05954 0.87768 -0.11100
N 	N 	0.07428 0.03825 0.83835 -0.23400
N 	N 	0.06123 0.07989 0.89859 -0.11000
C 	C 	0.03908 0.09811 0.90275 0.09300
H 	H 	0.02260 0.09890 0.89180 -0.01200
C 	C 	0.07490 0.06267 0.85136 0.09200
H 	H 	0.08200 0.07950 0.84380 -0.03100
C 	C 	0.08128 0.08595 0.91867 0.08900
H 	H 	0.09870 0.07680 0.92070 -0.01800
C 	C 	0.00752 0.14231 0.00281 0.09000
H 	H 	0.98910 0.14920 0.00030 -0.01900
C 	C 	0.99666 0.10536 0.06645 0.09100
H 	H 	0.99970 0.08700 0.05980 -0.01300
C 	C 	0.05521 0.03190 0.88009 0.08800
H 	H 	0.04630 0.02390 0.89580 -0.01100
N 	N 	0.01815 0.13144 0.02729 -0.11100
Cu	Cu	0.08720 0.62331 0.47050 0.82600
Cu	Cu	0.02457 0.64996 0.44205 0.82500
N 	N 	0.02719 0.64154 0.48353 -0.23000
N 	N 	0.05120 0.62914 0.49548 -0.21300
N 	N 	0.07193 0.60658 0.43459 -0.23100
N 	N 	0.04486 0.61409 0.42447 -0.21000
N 	N 	0.98323 0.64161 0.59201 -0.23000
N 	N 	0.98427 0.61205 0.59033 -0.21700
C 	C 	0.99564 0.65180 0.56936 0.08500
H 	H 	0.99810 0.67100 0.56520 -0.02400
N 	N 	0.00431 0.62960 0.55296 -0.11100
C 	C 	0.04550 0.62321 0.52194 0.09000
H 	H 	0.05790 0.61480 0.53490 -0.01200
N 	N 	0.06178 0.51847 0.35676 -0.22000
N 	N 	0.06348 0.55954 0.37768 -0.11100
N 	N 	0.07428 0.53825 0.33835 -0.23400
N 	N 	0.06123 0.57989 0.39859 -0.11000
C 	C 	0.03908 0.59811 0.40275 0.09300
H 	H 	0.02260 0.59890 0.39180 -0.01200
C 	C 	0.07490 0.56267 0.35136 0.09200
H 	H 	0.08200 0.57950 0.34380 -0.03100
C 	C 	0.08128 0.58595 0.41867 0.08900
H 	H 	0.09870 0.57680 0.42070 -0.01800
C 	C 	0.00752 0.64231 0.50281 0.09000
H 	H 	0.98910 0.64920 0.50030 -0.01900
C 	C 	0.99666 0.60536 0.56645 0.09100
H 	H 	0.99970 0.58700 0.55980 -0.01300
C 	C 	0.05521 0.53190 0.38009 0.08800
H 	H 	0.04630 0.52390 0.39580 -0.01100
N 	N 	0.01815 0.63144 0.52729 -0.11100
Cu	Cu	0.58720 0.12331 0.47050 0.82600
Cu	Cu	0.52457 0.14996 0.44205 0.82500
N 	N 	0.52719 0.14154 0.48353 -0.23000
N 	N 	0.55120 0.12914 0.49548 -0.21300
N 	N 	0.57193 0.10658 0.43459 -0.23100
N 	N 	0.54486 0.11409 0.42447 -0.21000
N 	N 	0.48323 0.14161 0.59201 -0.23000
N 	N 	0.48427 0.11205 0.59033 -0.21700
C 	C 	0.49564 0.15180 0.56936 0.08500
H 	H 	0.49810 0.17100 0.56520 -0.02400
N 	N 	0.50431 0.12960 0.55296 -0.11100
C 	C 	0.54550 0.12321 0.52194 0.09000
H 	H 	0.55790 0.11480 0.53490 -0.01200
N 	N 	0.56178 0.01847 0.35676 -0.22000
N 	N 	0.56348 0.05954 0.37768 -0.11100
N 	N 	0.57428 0.03825 0.33835 -0.23400
N 	N 	0.56123 0.07989 0.39859 -0.11000
C 	C 	0.53908 0.09811 0.40275 0.09300
H 	H 	0.52260 0.09890 0.39180 -0.01200
C 	C 	0.57490 0.06267 0.35136 0.09200
H 	H 	0.58200 0.07950 0.34380 -0.03100
C 	C 	0.58128 0.08595 0.41867 0.08900
H 	H 	0.59870 0.07680 0.42070 -0.01800
C 	C 	0.50752 0.14231 0.50281 0.09000
H 	H 	0.48910 0.14920 0.50030 -0.01900
C 	C 	0.49666 0.10536 0.56645 0.09100
H 	H 	0.49970 0.08700 0.55980 -0.01300
C 	C 	0.55521 0.03190 0.38009 0.08800
H 	H 	0.54630 0.02390 0.39580 -0.01100
N 	N 	0.51815 0.13144 0.52729 -0.11100
Cu	Cu	0.58720 0.62331 0.97050 0.82600
Cu	Cu	0.52457 0.64996 0.94205 0.82500
N 	N 	0.52719 0.64154 0.98353 -0.23000
N 	N 	0.55120 0.62914 0.99548 -0.21300
N 	N 	0.57193 0.60658 0.93459 -0.23100
N 	N 	0.54486 0.61409 0.92447 -0.21000
N 	N 	0.48323 0.64161 0.09201 -0.23000
N 	N 	0.48427 0.61205 0.09033 -0.21700
C 	C 	0.49564 0.65180 0.06936 0.08500
H 	H 	0.49810 0.67100 0.06520 -0.02400
N 	N 	0.50431 0.62960 0.05296 -0.11100
C 	C 	0.54550 0.62321 0.02194 0.09000
H 	H 	0.55790 0.61480 0.03490 -0.01200
N 	N 	0.56178 0.51847 0.85676 -0.22000
N 	N 	0.56348 0.55954 0.87768 -0.11100
N 	N 	0.57428 0.53825 0.83835 -0.23400
N 	N 	0.56123 0.57989 0.89859 -0.11000
C 	C 	0.53908 0.59811 0.90275 0.09300
H 	H 	0.52260 0.59890 0.89180 -0.01200
C 	C 	0.57490 0.56267 0.85136 0.09200
H 	H 	0.58200 0.57950 0.84380 -0.03100
C 	C 	0.58128 0.58595 0.91867 0.08900
H 	H 	0.59870 0.57680 0.92070 -0.01800
C 	C 	0.50752 0.64231 0.00281 0.09000
H 	H 	0.48910 0.64920 0.00030 -0.01900
C 	C 	0.49666 0.60536 0.06645 0.09100
H 	H 	0.49970 0.58700 0.05980 -0.01300
C 	C 	0.55521 0.53190 0.88009 0.08800
H 	H 	0.54630 0.52390 0.89580 -0.01100
N 	N 	0.51815 0.63144 0.02729 -0.11100
Cu	Cu	0.66280 0.62331 0.27951 0.82600
Cu	Cu	0.72543 0.64996 0.30795 0.82500
N 	N 	0.72281 0.64154 0.26647 -0.23000
N 	N 	0.69880 0.62914 0.25452 -0.21300
N 	N 	0.67807 0.60658 0.31541 -0.23100
N 	N 	0.70514 0.61409 0.32553 -0.21000
N 	N 	0.76677 0.64161 0.15799 -0.23000
N 	N 	0.76573 0.61205 0.15967 -0.21700
C 	C 	0.75436 0.65180 0.18064 0.08500
H 	H 	0.75190 0.67100 0.18480 -0.02400
N 	N 	0.74569 0.62960 0.19704 -0.11100
C 	C 	0.70450 0.62321 0.22806 0.09000
H 	H 	0.69210 0.61480 0.21510 -0.01200
N 	N 	0.68822 0.51847 0.39324 -0.22000
N 	N 	0.68652 0.55954 0.37232 -0.11100
N 	N 	0.67572 0.53825 0.41165 -0.23400
N 	N 	0.68877 0.57989 0.35141 -0.11000
C 	C 	0.71092 0.59811 0.34725 0.09300
H 	H 	0.72740 0.59890 0.35820 -0.01200
C 	C 	0.67510 0.56267 0.39864 0.09200
H 	H 	0.66800 0.57950 0.40620 -0.03100
C 	C 	0.66872 0.58595 0.33133 0.08900
H 	H 	0.65130 0.57680 0.32930 -0.01800
C 	C 	0.74248 0.64231 0.24719 0.09000
H 	H 	0.76090 0.64920 0.24970 -0.01900
C 	C 	0.75334 0.60536 0.18355 0.09100
H 	H 	0.75030 0.58700 0.19020 -0.01300
C 	C 	0.69479 0.53190 0.36991 0.08800
H 	H 	0.70370 0.52390 0.35420 -0.01100
N 	N 	0.73185 0.63144 0.22271 -0.11100
Cu	Cu	0.66280 0.12331 0.77951 0.82600
Cu	Cu	0.72543 0.14996 0.80795 0.82500
N 	N 	0.72281 0.14154 0.76647 -0.23000
N 	N 	0.69880 0.12914 0.75452 -0.21300
N 	N 	0.67807 0.10658 0.81541 -0.23100
N 	N 	0.70514 0.11409 0.82553 -0.21000
N 	N 	0.76677 0.14161 0.65799 -0.23000
N 	N 	0.76573 0.11205 0.65967 -0.21700
C 	C 	0.75436 0.15180 0.68064 0.08500
H 	H 	0.75190 0.17100 0.68480 -0.02400
N 	N 	0.74569 0.12960 0.69704 -0.11100
C 	C 	0.70450 0.12321 0.72806 0.09000
H 	H 	0.69210 0.11480 0.71510 -0.01200
N 	N 	0.68822 0.01847 0.89324 -0.22000
N 	N 	0.68652 0.05954 0.87232 -0.11100
N 	N 	0.67572 0.03825 0.91165 -0.23400
N 	N 	0.68877 0.07989 0.85141 -0.11000
C 	C 	0.71092 0.09811 0.84725 0.09300
H 	H 	0.72740 0.09890 0.85820 -0.01200
C 	C 	0.67510 0.06267 0.89864 0.09200
H 	H 	0.66800 0.07950 0.90620 -0.03100
C 	C 	0.66872 0.08595 0.83133 0.08900
H 	H 	0.65130 0.07680 0.82930 -0.01800
C 	C 	0.74248 0.14231 0.74719 0.09000
H 	H 	0.76090 0.14920 0.74970 -0.01900
C 	C 	0.75334 0.10536 0.68355 0.09100
H 	H 	0.75030 0.08700 0.69020 -0.01300
C 	C 	0.69479 0.03190 0.86991 0.08800
H 	H 	0.70370 0.02390 0.85420 -0.01100
N 	N 	0.73185 0.13144 0.72271 -0.11100
Cu	Cu	0.16280 0.62331 0.77951 0.82600
Cu	Cu	0.22543 0.64996 0.80795 0.82500
N 	N 	0.22281 0.64154 0.76647 -0.23000
N 	N 	0.19880 0.62914 0.75452 -0.21300
N 	N 	0.17807 0.60658 0.81541 -0.23100
N 	N 	0.20514 0.61409 0.82553 -0.21000
N 	N 	0.26677 0.64161 0.65799 -0.23000
N 	N 	0.26573 0.61205 0.65967 -0.21700
C 	C 	0.25436 0.65180 0.68064 0.08500
H 	H 	0.25190 0.67100 0.68480 -0.02400
N 	N 	0.24569 0.62960 0.69704 -0.11100
C 	C 	0.20450 0.62321 0.72806 0.09000
H 	H 	0.19210 0.61480 0.71510 -0.01200
N 	N 	0.18822 0.51847 0.89324 -0.22000
N 	N 	0.18652 0.55954 0.87232 -0.11100
N 	N 	0.17572 0.53825 0.91165 -0.23400
N 	N 	0.18877 0.57989 0.85141 -0.11000
C 	C 	0.21092 0.59811 0.84725 0.09300
H 	H 	0.22740 0.59890 0.85820 -0.01200
C 	C 	0.17510 0.56267 0.89864 0.09200
H 	H 	0.16800 0.57950 0.90620 -0.03100
C 	C 	0.16872 0.58595 0.83133 0.08900
H 	H 	0.15130 0.57680 0.82930 -0.01800
C 	C 	0.24248 0.64231 0.74719 0.09000
H 	H 	0.26090 0.64920 0.74970 -0.01900
C 	C 	0.25334 0.60536 0.68355 0.09100
H 	H 	0.25030 0.58700 0.69020 -0.01300
C 	C 	0.19479 0.53190 0.86991 0.08800
H 	H 	0.20370 0.52390 0.85420 -0.01100
N 	N 	0.23185 0.63144 0.72271 -0.11100
Cu	Cu	0.16280 0.12331 0.27951 0.82600
Cu	Cu	0.22543 0.14996 0.30795 0.82500
N 	N 	0.22281 0.14154 0.26647 -0.23000
N 	N 	0.19880 0.12914 0.25452 -0.21300
N 	N 	0.17807 0.10658 0.31541 -0.23100
N 	N 	0.20514 0.11409 0.32553 -0.21000
N 	N 	0.26677 0.14161 0.15799 -0.23000
N 	N 	0.26573 0.11205 0.15967 -0.21700
C 	C 	0.25436 0.15180 0.18064 0.08500
H 	H 	0.25190 0.17100 0.18480 -0.02400
N 	N 	0.24569 0.12960 0.19704 -0.11100
C 	C 	0.20450 0.12321 0.22806 0.09000
H 	H 	0.19210 0.11480 0.21510 -0.01200
N 	N 	0.18822 0.01847 0.39324 -0.22000
N 	N 	0.18652 0.05954 0.37232 -0.11100
N 	N 	0.17572 0.03825 0.41165 -0.23400
N 	N 	0.18877 0.07989 0.35141 -0.11000
C 	C 	0.21092 0.09811 0.34725 0.09300
H 	H 	0.22740 0.09890 0.35820 -0.01200
C 	C 	0.17510 0.06267 0.39864 0.09200
H 	H 	0.16800 0.07950 0.40620 -0.03100
C 	C 	0.16872 0.08595 0.33133 0.08900
H 	H 	0.15130 0.07680 0.32930 -0.01800
C 	C 	0.24248 0.14231 0.24719 0.09000
H 	H 	0.26090 0.14920 0.24970 -0.01900
C 	C 	0.25334 0.10536 0.18355 0.09100
H 	H 	0.25030 0.08700 0.19020 -0.01300
C 	C 	0.19479 0.03190 0.36991 0.08800
H 	H 	0.20370 0.02390 0.35420 -0.01100
N 	N 	0.23185 0.13144 0.22271 -0.11100
Cu	Cu	0.58720 0.12669 0.77951 0.82600
Cu	Cu	0.52457 0.10004 0.80795 0.82500
N 	N 	0.52719 0.10846 0.76647 -0.23000
N 	N 	0.55120 0.12086 0.75452 -0.21300
N 	N 	0.57193 0.14342 0.81541 -0.23100
N 	N 	0.54486 0.13591 0.82553 -0.21000
N 	N 	0.48323 0.10839 0.65799 -0.23000
N 	N 	0.48427 0.13795 0.65967 -0.21700
C 	C 	0.49564 0.09820 0.68064 0.08500
H 	H 	0.49810 0.07900 0.68480 -0.02400
N 	N 	0.50431 0.12040 0.69704 -0.11100
C 	C 	0.54550 0.12679 0.72806 0.09000
H 	H 	0.55790 0.13520 0.71510 -0.01200
N 	N 	0.56178 0.23153 0.89324 -0.22000
N 	N 	0.56348 0.19046 0.87232 -0.11100
N 	N 	0.57428 0.21175 0.91165 -0.23400
N 	N 	0.56123 0.17011 0.85141 -0.11000
C 	C 	0.53908 0.15189 0.84725 0.09300
H 	H 	0.52260 0.15110 0.85820 -0.01200
C 	C 	0.57490 0.18733 0.89864 0.09200
H 	H 	0.58200 0.17050 0.90620 -0.03100
C 	C 	0.58128 0.16405 0.83133 0.08900
H 	H 	0.59870 0.17320 0.82930 -0.01800
C 	C 	0.50752 0.10769 0.74719 0.09000
H 	H 	0.48910 0.10080 0.74970 -0.01900
C 	C 	0.49666 0.14464 0.68355 0.09100
H 	H 	0.49970 0.16300 0.69020 -0.01300
C 	C 	0.55521 0.21810 0.86991 0.08800
H 	H 	0.54630 0.22610 0.85420 -0.01100
N 	N 	0.51815 0.11856 0.72271 -0.11100
Cu	Cu	0.58720 0.62669 0.27951 0.82600
Cu	Cu	0.52457 0.60004 0.30795 0.82500
N 	N 	0.52719 0.60846 0.26647 -0.23000
N 	N 	0.55120 0.62086 0.25452 -0.21300
N 	N 	0.57193 0.64342 0.31541 -0.23100
N 	N 	0.54486 0.63591 0.32553 -0.21000
N 	N 	0.48323 0.60839 0.15799 -0.23000
N 	N 	0.48427 0.63795 0.15967 -0.21700
C 	C 	0.49564 0.59820 0.18064 0.08500
H 	H 	0.49810 0.57900 0.18480 -0.02400
N 	N 	0.50431 0.62040 0.19704 -0.11100
C 	C 	0.54550 0.62679 0.22806 0.09000
H 	H 	0.55790 0.63520 0.21510 -0.01200
N 	N 	0.56178 0.73153 0.39324 -0.22000
N 	N 	0.56348 0.69046 0.37232 -0.11100
N 	N 	0.57428 0.71175 0.41165 -0.23400
N 	N 	0.56123 0.67011 0.35141 -0.11000
C 	C 	0.53908 0.65189 0.34725 0.09300
H 	H 	0.52260 0.65110 0.35820 -0.01200
C 	C 	0.57490 0.68733 0.39864 0.09200
H 	H 	0.58200 0.67050 0.40620 -0.03100
C 	C 	0.58128 0.66405 0.33133 0.08900
H 	H 	0.59870 0.67320 0.32930 -0.01800
C 	C 	0.50752 0.60769 0.24719 0.09000
H 	H 	0.48910 0.60080 0.24970 -0.01900
C 	C 	0.49666 0.64464 0.18355 0.09100
H 	H 	0.49970 0.66300 0.19020 -0.01300
C 	C 	0.55521 0.71810 0.36991 0.08800
H 	H 	0.54630 0.72610 0.35420 -0.01100
N 	N 	0.51815 0.61856 0.22271 -0.11100
Cu	Cu	0.08720 0.12669 0.27951 0.82600
Cu	Cu	0.02457 0.10004 0.30795 0.82500
N 	N 	0.02719 0.10846 0.26647 -0.23000
N 	N 	0.05120 0.12086 0.25452 -0.21300
N 	N 	0.07193 0.14342 0.31541 -0.23100
N 	N 	0.04486 0.13591 0.32553 -0.21000
N 	N 	0.98323 0.10839 0.15799 -0.23000
N 	N 	0.98427 0.13795 0.15967 -0.21700
C 	C 	0.99564 0.09820 0.18064 0.08500
H 	H 	0.99810 0.07900 0.18480 -0.02400
N 	N 	0.00431 0.12040 0.19704 -0.11100
C 	C 	0.04550 0.12679 0.22806 0.09000
H 	H 	0.05790 0.13520 0.21510 -0.01200
N 	N 	0.06178 0.23153 0.39324 -0.22000
N 	N 	0.06348 0.19046 0.37232 -0.11100
N 	N 	0.07428 0.21175 0.41165 -0.23400
N 	N 	0.06123 0.17011 0.35141 -0.11000
C 	C 	0.03908 0.15189 0.34725 0.09300
H 	H 	0.02260 0.15110 0.35820 -0.01200
C 	C 	0.07490 0.18733 0.39864 0.09200
H 	H 	0.08200 0.17050 0.40620 -0.03100
C 	C 	0.08128 0.16405 0.33133 0.08900
H 	H 	0.09870 0.17320 0.32930 -0.01800
C 	C 	0.00752 0.10769 0.24719 0.09000
H 	H 	0.98910 0.10080 0.24970 -0.01900
C 	C 	0.99666 0.14464 0.18355 0.09100
H 	H 	0.99970 0.16300 0.19020 -0.01300
C 	C 	0.05521 0.21810 0.36991 0.08800
H 	H 	0.04630 0.22610 0.35420 -0.01100
N 	N 	0.01815 0.11856 0.22271 -0.11100
Cu	Cu	0.08720 0.62669 0.77951 0.82600
Cu	Cu	0.02457 0.60004 0.80795 0.82500
N 	N 	0.02719 0.60846 0.76647 -0.23000
N 	N 	0.05120 0.62086 0.75452 -0.21300
N 	N 	0.07193 0.64342 0.81541 -0.23100
N 	N 	0.04486 0.63591 0.82553 -0.21000
N 	N 	0.98323 0.60839 0.65799 -0.23000
N 	N 	0.98427 0.63795 0.65967 -0.21700
C 	C 	0.99564 0.59820 0.68064 0.08500
H 	H 	0.99810 0.57900 0.68480 -0.02400
N 	N 	0.00431 0.62040 0.69704 -0.11100
C 	C 	0.04550 0.62679 0.72806 0.09000
H 	H 	0.05790 0.63520 0.71510 -0.01200
N 	N 	0.06178 0.73153 0.89324 -0.22000
N 	N 	0.06348 0.69046 0.87232 -0.11100
N 	N 	0.07428 0.71175 0.91165 -0.23400
N 	N 	0.06123 0.67011 0.85141 -0.11000
C 	C 	0.03908 0.65189 0.84725 0.09300
H 	H 	0.02260 0.65110 0.85820 -0.01200
C 	C 	0.07490 0.68733 0.89864 0.09200
H 	H 	0.08200 0.67050 0.90620 -0.03100
C 	C 	0.08128 0.66405 0.83133 0.08900
H 	H 	0.09870 0.67320 0.82930 -0.01800
C 	C 	0.00752 0.60769 0.74719 0.09000
H 	H 	0.98910 0.60080 0.74970 -0.01900
C 	C 	0.99666 0.64464 0.68355 0.09100
H 	H 	0.99970 0.66300 0.69020 -0.01300
C 	C 	0.05521 0.71810 0.86991 0.08800
H 	H 	0.04630 0.72610 0.85420 -0.01100
N 	N 	0.01815 0.61856 0.72271 -0.11100
Cu	Cu	0.12669 0.77951 0.58720 0.82600
Cu	Cu	0.10004 0.80795 0.52457 0.82500
N 	N 	0.10846 0.76647 0.52719 -0.23000
N 	N 	0.12086 0.75452 0.55120 -0.21300
N 	N 	0.14342 0.81541 0.57193 -0.23100
N 	N 	0.13591 0.82553 0.54486 -0.21000
N 	N 	0.10839 0.65799 0.48323 -0.23000
N 	N 	0.13795 0.65967 0.48427 -0.21700
C 	C 	0.09820 0.68064 0.49564 0.08500
H 	H 	0.07900 0.68480 0.49810 -0.02400
N 	N 	0.12040 0.69704 0.50431 -0.11100
C 	C 	0.12679 0.72806 0.54550 0.09000
H 	H 	0.13520 0.71510 0.55790 -0.01200
N 	N 	0.23153 0.89324 0.56178 -0.22000
N 	N 	0.19046 0.87232 0.56348 -0.11100
N 	N 	0.21175 0.91165 0.57428 -0.23400
N 	N 	0.17011 0.85141 0.56123 -0.11000
C 	C 	0.15189 0.84725 0.53908 0.09300
H 	H 	0.15110 0.85820 0.52260 -0.01200
C 	C 	0.18733 0.89864 0.57490 0.09200
H 	H 	0.17050 0.90620 0.58200 -0.03100
C 	C 	0.16405 0.83133 0.58128 0.08900
H 	H 	0.17320 0.82930 0.59870 -0.01800
C 	C 	0.10769 0.74719 0.50752 0.09000
H 	H 	0.10080 0.74970 0.48910 -0.01900
C 	C 	0.14464 0.68355 0.49666 0.09100
H 	H 	0.16300 0.69020 0.49970 -0.01300
C 	C 	0.21810 0.86991 0.55521 0.08800
H 	H 	0.22610 0.85420 0.54630 -0.01100
N 	N 	0.11856 0.72271 0.51815 -0.11100
Cu	Cu	0.12669 0.27951 0.08720 0.82600
Cu	Cu	0.10004 0.30795 0.02457 0.82500
N 	N 	0.10846 0.26647 0.02719 -0.23000
N 	N 	0.12086 0.25452 0.05120 -0.21300
N 	N 	0.14342 0.31541 0.07193 -0.23100
N 	N 	0.13591 0.32553 0.04486 -0.21000
N 	N 	0.10839 0.15799 0.98323 -0.23000
N 	N 	0.13795 0.15967 0.98427 -0.21700
C 	C 	0.09820 0.18064 0.99564 0.08500
H 	H 	0.07900 0.18480 0.99810 -0.02400
N 	N 	0.12040 0.19704 0.00431 -0.11100
C 	C 	0.12679 0.22806 0.04550 0.09000
H 	H 	0.13520 0.21510 0.05790 -0.01200
N 	N 	0.23153 0.39324 0.06178 -0.22000
N 	N 	0.19046 0.37232 0.06348 -0.11100
N 	N 	0.21175 0.41165 0.07428 -0.23400
N 	N 	0.17011 0.35141 0.06123 -0.11000
C 	C 	0.15189 0.34725 0.03908 0.09300
H 	H 	0.15110 0.35820 0.02260 -0.01200
C 	C 	0.18733 0.39864 0.07490 0.09200
H 	H 	0.17050 0.40620 0.08200 -0.03100
C 	C 	0.16405 0.33133 0.08128 0.08900
H 	H 	0.17320 0.32930 0.09870 -0.01800
C 	C 	0.10769 0.24719 0.00752 0.09000
H 	H 	0.10080 0.24970 0.98910 -0.01900
C 	C 	0.14464 0.18355 0.99666 0.09100
H 	H 	0.16300 0.19020 0.99970 -0.01300
C 	C 	0.21810 0.36991 0.05521 0.08800
H 	H 	0.22610 0.35420 0.04630 -0.01100
N 	N 	0.11856 0.22271 0.01815 -0.11100
Cu	Cu	0.62669 0.77951 0.08720 0.82600
Cu	Cu	0.60004 0.80795 0.02457 0.82500
N 	N 	0.60846 0.76647 0.02719 -0.23000
N 	N 	0.62086 0.75452 0.05120 -0.21300
N 	N 	0.64342 0.81541 0.07193 -0.23100
N 	N 	0.63591 0.82553 0.04486 -0.21000
N 	N 	0.60839 0.65799 0.98323 -0.23000
N 	N 	0.63795 0.65967 0.98427 -0.21700
C 	C 	0.59820 0.68064 0.99564 0.08500
H 	H 	0.57900 0.68480 0.99810 -0.02400
N 	N 	0.62040 0.69704 0.00431 -0.11100
C 	C 	0.62679 0.72806 0.04550 0.09000
H 	H 	0.63520 0.71510 0.05790 -0.01200
N 	N 	0.73153 0.89324 0.06178 -0.22000
N 	N 	0.69046 0.87232 0.06348 -0.11100
N 	N 	0.71175 0.91165 0.07428 -0.23400
N 	N 	0.67011 0.85141 0.06123 -0.11000
C 	C 	0.65189 0.84725 0.03908 0.09300
H 	H 	0.65110 0.85820 0.02260 -0.01200
C 	C 	0.68733 0.89864 0.07490 0.09200
H 	H 	0.67050 0.90620 0.08200 -0.03100
C 	C 	0.66405 0.83133 0.08128 0.08900
H 	H 	0.67320 0.82930 0.09870 -0.01800
C 	C 	0.60769 0.74719 0.00752 0.09000
H 	H 	0.60080 0.74970 0.98910 -0.01900
C 	C 	0.64464 0.68355 0.99666 0.09100
H 	H 	0.66300 0.69020 0.99970 -0.01300
C 	C 	0.71810 0.86991 0.05521 0.08800
H 	H 	0.72610 0.85420 0.04630 -0.01100
N 	N 	0.61856 0.72271 0.01815 -0.11100
Cu	Cu	0.62669 0.27951 0.58720 0.82600
Cu	Cu	0.60004 0.30795 0.52457 0.82500
N 	N 	0.60846 0.26647 0.52719 -0.23000
N 	N 	0.62086 0.25452 0.55120 -0.21300
N 	N 	0.64342 0.31541 0.57193 -0.23100
N 	N 	0.63591 0.32553 0.54486 -0.21000
N 	N 	0.60839 0.15799 0.48323 -0.23000
N 	N 	0.63795 0.15967 0.48427 -0.21700
C 	C 	0.59820 0.18064 0.49564 0.08500
H 	H 	0.57900 0.18480 0.49810 -0.02400
N 	N 	0.62040 0.19704 0.50431 -0.11100
C 	C 	0.62679 0.22806 0.54550 0.09000
H 	H 	0.63520 0.21510 0.55790 -0.01200
N 	N 	0.73153 0.39324 0.56178 -0.22000
N 	N 	0.69046 0.37232 0.56348 -0.11100
N 	N 	0.71175 0.41165 0.57428 -0.23400
N 	N 	0.67011 0.35141 0.56123 -0.11000
C 	C 	0.65189 0.34725 0.53908 0.09300
H 	H 	0.65110 0.35820 0.52260 -0.01200
C 	C 	0.68733 0.39864 0.57490 0.09200
H 	H 	0.67050 0.40620 0.58200 -0.03100
C 	C 	0.66405 0.33133 0.58128 0.08900
H 	H 	0.67320 0.32930 0.59870 -0.01800
C 	C 	0.60769 0.24719 0.50752 0.09000
H 	H 	0.60080 0.24970 0.48910 -0.01900
C 	C 	0.64464 0.18355 0.49666 0.09100
H 	H 	0.66300 0.19020 0.49970 -0.01300
C 	C 	0.71810 0.36991 0.55521 0.08800
H 	H 	0.72610 0.35420 0.54630 -0.01100
N 	N 	0.61856 0.22271 0.51815 -0.11100
Cu	Cu	0.62331 0.27951 0.66280 0.82600
Cu	Cu	0.64996 0.30795 0.72543 0.82500
N 	N 	0.64154 0.26647 0.72281 -0.23000
N 	N 	0.62914 0.25452 0.69880 -0.21300
N 	N 	0.60658 0.31541 0.67807 -0.23100
N 	N 	0.61409 0.32553 0.70514 -0.21000
N 	N 	0.64161 0.15799 0.76677 -0.23000
N 	N 	0.61205 0.15967 0.76573 -0.21700
C 	C 	0.65180 0.18064 0.75436 0.08500
H 	H 	0.67100 0.18480 0.75190 -0.02400
N 	N 	0.62960 0.19704 0.74569 -0.11100
C 	C 	0.62321 0.22806 0.70450 0.09000
H 	H 	0.61480 0.21510 0.69210 -0.01200
N 	N 	0.51847 0.39324 0.68822 -0.22000
N 	N 	0.55954 0.37232 0.68652 -0.11100
N 	N 	0.53825 0.41165 0.67572 -0.23400
N 	N 	0.57989 0.35141 0.68877 -0.11000
C 	C 	0.59811 0.34725 0.71092 0.09300
H 	H 	0.59890 0.35820 0.72740 -0.01200
C 	C 	0.56267 0.39864 0.67510 0.09200
H 	H 	0.57950 0.40620 0.66800 -0.03100
C 	C 	0.58595 0.33133 0.66872 0.08900
H 	H 	0.57680 0.32930 0.65130 -0.01800
C 	C 	0.64231 0.24719 0.74248 0.09000
H 	H 	0.64920 0.24970 0.76090 -0.01900
C 	C 	0.60536 0.18355 0.75334 0.09100
H 	H 	0.58700 0.19020 0.75030 -0.01300
C 	C 	0.53190 0.36991 0.69479 0.08800
H 	H 	0.52390 0.35420 0.70370 -0.01100
N 	N 	0.63144 0.22271 0.73185 -0.11100
Cu	Cu	0.62331 0.77951 0.16280 0.82600
Cu	Cu	0.64996 0.80795 0.22543 0.82500
N 	N 	0.64154 0.76647 0.22281 -0.23000
N 	N 	0.62914 0.75452 0.19880 -0.21300
N 	N 	0.60658 0.81541 0.17807 -0.23100
N 	N 	0.61409 0.82553 0.20514 -0.21000
N 	N 	0.64161 0.65799 0.26677 -0.23000
N 	N 	0.61205 0.65967 0.26573 -0.21700
C 	C 	0.65180 0.68064 0.25436 0.08500
H 	H 	0.67100 0.68480 0.25190 -0.02400
N 	N 	0.62960 0.69704 0.24569 -0.11100
C 	C 	0.62321 0.72806 0.20450 0.09000
H 	H 	0.61480 0.71510 0.19210 -0.01200
N 	N 	0.51847 0.89324 0.18822 -0.22000
N 	N 	0.55954 0.87232 0.18652 -0.11100
N 	N 	0.53825 0.91165 0.17572 -0.23400
N 	N 	0.57989 0.85141 0.18877 -0.11000
C 	C 	0.59811 0.84725 0.21092 0.09300
H 	H 	0.59890 0.85820 0.22740 -0.01200
C 	C 	0.56267 0.89864 0.17510 0.09200
H 	H 	0.57950 0.90620 0.16800 -0.03100
C 	C 	0.58595 0.83133 0.16872 0.08900
H 	H 	0.57680 0.82930 0.15130 -0.01800
C 	C 	0.64231 0.74719 0.24248 0.09000
H 	H 	0.64920 0.74970 0.26090 -0.01900
C 	C 	0.60536 0.68355 0.25334 0.09100
H 	H 	0.58700 0.69020 0.25030 -0.01300
C 	C 	0.53190 0.86991 0.19479 0.08800
H 	H 	0.52390 0.85420 0.20370 -0.01100
N 	N 	0.63144 0.72271 0.23185 -0.11100
Cu	Cu	0.12331 0.27951 0.16280 0.82600
Cu	Cu	0.14996 0.30795 0.22543 0.82500
N 	N 	0.14154 0.26647 0.22281 -0.23000
N 	N 	0.12914 0.25452 0.19880 -0.21300
N 	N 	0.10658 0.31541 0.17807 -0.23100
N 	N 	0.11409 0.32553 0.20514 -0.21000
N 	N 	0.14161 0.15799 0.26677 -0.23000
N 	N 	0.11205 0.15967 0.26573 -0.21700
C 	C 	0.15180 0.18064 0.25436 0.08500
H 	H 	0.17100 0.18480 0.25190 -0.02400
N 	N 	0.12960 0.19704 0.24569 -0.11100
C 	C 	0.12321 0.22806 0.20450 0.09000
H 	H 	0.11480 0.21510 0.19210 -0.01200
N 	N 	0.01847 0.39324 0.18822 -0.22000
N 	N 	0.05954 0.37232 0.18652 -0.11100
N 	N 	0.03825 0.41165 0.17572 -0.23400
N 	N 	0.07989 0.35141 0.18877 -0.11000
C 	C 	0.09811 0.34725 0.21092 0.09300
H 	H 	0.09890 0.35820 0.22740 -0.01200
C 	C 	0.06267 0.39864 0.17510 0.09200
H 	H 	0.07950 0.40620 0.16800 -0.03100
C 	C 	0.08595 0.33133 0.16872 0.08900
H 	H 	0.07680 0.32930 0.15130 -0.01800
C 	C 	0.14231 0.24719 0.24248 0.09000
H 	H 	0.14920 0.24970 0.26090 -0.01900
C 	C 	0.10536 0.18355 0.25334 0.09100
H 	H 	0.08700 0.19020 0.25030 -0.01300
C 	C 	0.03190 0.36991 0.19479 0.08800
H 	H 	0.02390 0.35420 0.20370 -0.01100
N 	N 	0.13144 0.22271 0.23185 -0.11100
Cu	Cu	0.12331 0.77951 0.66280 0.82600
Cu	Cu	0.14996 0.80795 0.72543 0.82500
N 	N 	0.14154 0.76647 0.72281 -0.23000
N 	N 	0.12914 0.75452 0.69880 -0.21300
N 	N 	0.10658 0.81541 0.67807 -0.23100
N 	N 	0.11409 0.82553 0.70514 -0.21000
N 	N 	0.14161 0.65799 0.76677 -0.23000
N 	N 	0.11205 0.65967 0.76573 -0.21700
C 	C 	0.15180 0.68064 0.75436 0.08500
H 	H 	0.17100 0.68480 0.75190 -0.02400
N 	N 	0.12960 0.69704 0.74569 -0.11100
C 	C 	0.12321 0.72806 0.70450 0.09000
H 	H 	0.11480 0.71510 0.69210 -0.01200
N 	N 	0.01847 0.89324 0.68822 -0.22000
N 	N 	0.05954 0.87232 0.68652 -0.11100
N 	N 	0.03825 0.91165 0.67572 -0.23400
N 	N 	0.07989 0.85141 0.68877 -0.11000
C 	C 	0.09811 0.84725 0.71092 0.09300
H 	H 	0.09890 0.85820 0.72740 -0.01200
C 	C 	0.06267 0.89864 0.67510 0.09200
H 	H 	0.07950 0.90620 0.66800 -0.03100
C 	C 	0.08595 0.83133 0.66872 0.08900
H 	H 	0.07680 0.82930 0.65130 -0.01800
C 	C 	0.14231 0.74719 0.74248 0.09000
H 	H 	0.14920 0.74970 0.76090 -0.01900
C 	C 	0.10536 0.68355 0.75334 0.09100
H 	H 	0.08700 0.69020 0.75030 -0.01300
C 	C 	0.03190 0.86991 0.69479 0.08800
H 	H 	0.02390 0.85420 0.70370 -0.01100
N 	N 	0.13144 0.72271 0.73185 -0.11100
Cu	Cu	0.12331 0.97050 0.08720 0.82600
Cu	Cu	0.14996 0.94205 0.02457 0.82500
N 	N 	0.14154 0.98353 0.02719 -0.23000
N 	N 	0.12914 0.99548 0.05120 -0.21300
N 	N 	0.10658 0.93459 0.07193 -0.23100
N 	N 	0.11409 0.92447 0.04486 -0.21000
N 	N 	0.14161 0.09201 0.98323 -0.23000
N 	N 	0.11205 0.09033 0.98427 -0.21700
C 	C 	0.15180 0.06936 0.99564 0.08500
H 	H 	0.17100 0.06520 0.99810 -0.02400
N 	N 	0.12960 0.05296 0.00431 -0.11100
C 	C 	0.12321 0.02194 0.04550 0.09000
H 	H 	0.11480 0.03490 0.05790 -0.01200
N 	N 	0.01847 0.85676 0.06178 -0.22000
N 	N 	0.05954 0.87768 0.06348 -0.11100
N 	N 	0.03825 0.83835 0.07428 -0.23400
N 	N 	0.07989 0.89859 0.06123 -0.11000
C 	C 	0.09811 0.90275 0.03908 0.09300
H 	H 	0.09890 0.89180 0.02260 -0.01200
C 	C 	0.06267 0.85136 0.07490 0.09200
H 	H 	0.07950 0.84380 0.08200 -0.03100
C 	C 	0.08595 0.91867 0.08128 0.08900
H 	H 	0.07680 0.92070 0.09870 -0.01800
C 	C 	0.14231 0.00281 0.00752 0.09000
H 	H 	0.14920 0.00030 0.98910 -0.01900
C 	C 	0.10536 0.06645 0.99666 0.09100
H 	H 	0.08700 0.05980 0.99970 -0.01300
C 	C 	0.03190 0.88009 0.05521 0.08800
H 	H 	0.02390 0.89580 0.04630 -0.01100
N 	N 	0.13144 0.02729 0.01815 -0.11100
Cu	Cu	0.12331 0.47050 0.58720 0.82600
Cu	Cu	0.14996 0.44205 0.52457 0.82500
N 	N 	0.14154 0.48353 0.52719 -0.23000
N 	N 	0.12914 0.49548 0.55120 -0.21300
N 	N 	0.10658 0.43459 0.57193 -0.23100
N 	N 	0.11409 0.42447 0.54486 -0.21000
N 	N 	0.14161 0.59201 0.48323 -0.23000
N 	N 	0.11205 0.59033 0.48427 -0.21700
C 	C 	0.15180 0.56936 0.49564 0.08500
H 	H 	0.17100 0.56520 0.49810 -0.02400
N 	N 	0.12960 0.55296 0.50431 -0.11100
C 	C 	0.12321 0.52194 0.54550 0.09000
H 	H 	0.11480 0.53490 0.55790 -0.01200
N 	N 	0.01847 0.35676 0.56178 -0.22000
N 	N 	0.05954 0.37768 0.56348 -0.11100
N 	N 	0.03825 0.33835 0.57428 -0.23400
N 	N 	0.07989 0.39859 0.56123 -0.11000
C 	C 	0.09811 0.40275 0.53908 0.09300
H 	H 	0.09890 0.39180 0.52260 -0.01200
C 	C 	0.06267 0.35136 0.57490 0.09200
H 	H 	0.07950 0.34380 0.58200 -0.03100
C 	C 	0.08595 0.41867 0.58128 0.08900
H 	H 	0.07680 0.42070 0.59870 -0.01800
C 	C 	0.14231 0.50281 0.50752 0.09000
H 	H 	0.14920 0.50030 0.48910 -0.01900
C 	C 	0.10536 0.56645 0.49666 0.09100
H 	H 	0.08700 0.55980 0.49970 -0.01300
C 	C 	0.03190 0.38009 0.55521 0.08800
H 	H 	0.02390 0.39580 0.54630 -0.01100
N 	N 	0.13144 0.52729 0.51815 -0.11100
Cu	Cu	0.62331 0.97050 0.58720 0.82600
Cu	Cu	0.64996 0.94205 0.52457 0.82500
N 	N 	0.64154 0.98353 0.52719 -0.23000
N 	N 	0.62914 0.99548 0.55120 -0.21300
N 	N 	0.60658 0.93459 0.57193 -0.23100
N 	N 	0.61409 0.92447 0.54486 -0.21000
N 	N 	0.64161 0.09201 0.48323 -0.23000
N 	N 	0.61205 0.09033 0.48427 -0.21700
C 	C 	0.65180 0.06936 0.49564 0.08500
H 	H 	0.67100 0.06520 0.49810 -0.02400
N 	N 	0.62960 0.05296 0.50431 -0.11100
C 	C 	0.62321 0.02194 0.54550 0.09000
H 	H 	0.61480 0.03490 0.55790 -0.01200
N 	N 	0.51847 0.85676 0.56178 -0.22000
N 	N 	0.55954 0.87768 0.56348 -0.11100
N 	N 	0.53825 0.83835 0.57428 -0.23400
N 	N 	0.57989 0.89859 0.56123 -0.11000
C 	C 	0.59811 0.90275 0.53908 0.09300
H 	H 	0.59890 0.89180 0.52260 -0.01200
C 	C 	0.56267 0.85136 0.57490 0.09200
H 	H 	0.57950 0.84380 0.58200 -0.03100
C 	C 	0.58595 0.91867 0.58128 0.08900
H 	H 	0.57680 0.92070 0.59870 -0.01800
C 	C 	0.64231 0.00281 0.50752 0.09000
H 	H 	0.64920 0.00030 0.48910 -0.01900
C 	C 	0.60536 0.06645 0.49666 0.09100
H 	H 	0.58700 0.05980 0.49970 -0.01300
C 	C 	0.53190 0.88009 0.55521 0.08800
H 	H 	0.52390 0.89580 0.54630 -0.01100
N 	N 	0.63144 0.02729 0.51815 -0.11100
Cu	Cu	0.62331 0.47050 0.08720 0.82600
Cu	Cu	0.64996 0.44205 0.02457 0.82500
N 	N 	0.64154 0.48353 0.02719 -0.23000
N 	N 	0.62914 0.49548 0.05120 -0.21300
N 	N 	0.60658 0.43459 0.07193 -0.23100
N 	N 	0.61409 0.42447 0.04486 -0.21000
N 	N 	0.64161 0.59201 0.98323 -0.23000
N 	N 	0.61205 0.59033 0.98427 -0.21700
C 	C 	0.65180 0.56936 0.99564 0.08500
H 	H 	0.67100 0.56520 0.99810 -0.02400
N 	N 	0.62960 0.55296 0.00431 -0.11100
C 	C 	0.62321 0.52194 0.04550 0.09000
H 	H 	0.61480 0.53490 0.05790 -0.01200
N 	N 	0.51847 0.35676 0.06178 -0.22000
N 	N 	0.55954 0.37768 0.06348 -0.11100
N 	N 	0.53825 0.33835 0.07428 -0.23400
N 	N 	0.57989 0.39859 0.06123 -0.11000
C 	C 	0.59811 0.40275 0.03908 0.09300
H 	H 	0.59890 0.39180 0.02260 -0.01200
C 	C 	0.56267 0.35136 0.07490 0.09200
H 	H 	0.57950 0.34380 0.08200 -0.03100
C 	C 	0.58595 0.41867 0.08128 0.08900
H 	H 	0.57680 0.42070 0.09870 -0.01800
C 	C 	0.64231 0.50281 0.00752 0.09000
H 	H 	0.64920 0.50030 0.98910 -0.01900
C 	C 	0.60536 0.56645 0.99666 0.09100
H 	H 	0.58700 0.55980 0.99970 -0.01300
C 	C 	0.53190 0.38009 0.05521 0.08800
H 	H 	0.52390 0.39580 0.04630 -0.01100
N 	N 	0.63144 0.52729 0.01815 -0.11100
Cu	Cu	0.62669 0.47050 0.16280 0.82600
Cu	Cu	0.60004 0.44205 0.22543 0.82500
N 	N 	0.60846 0.48353 0.22281 -0.23000
N 	N 	0.62086 0.49548 0.19880 -0.21300
N 	N 	0.64342 0.43459 0.17807 -0.23100
N 	N 	0.63591 0.42447 0.20514 -0.21000
N 	N 	0.60839 0.59201 0.26677 -0.23000
N 	N 	0.63795 0.59033 0.26573 -0.21700
C 	C 	0.59820 0.56936 0.25436 0.08500
H 	H 	0.57900 0.56520 0.25190 -0.02400
N 	N 	0.62040 0.55296 0.24569 -0.11100
C 	C 	0.62679 0.52194 0.20450 0.09000
H 	H 	0.63520 0.53490 0.19210 -0.01200
N 	N 	0.73153 0.35676 0.18822 -0.22000
N 	N 	0.69046 0.37768 0.18652 -0.11100
N 	N 	0.71175 0.33835 0.17572 -0.23400
N 	N 	0.67011 0.39859 0.18877 -0.11000
C 	C 	0.65189 0.40275 0.21092 0.09300
H 	H 	0.65110 0.39180 0.22740 -0.01200
C 	C 	0.68733 0.35136 0.17510 0.09200
H 	H 	0.67050 0.34380 0.16800 -0.03100
C 	C 	0.66405 0.41867 0.16872 0.08900
H 	H 	0.67320 0.42070 0.15130 -0.01800
C 	C 	0.60769 0.50281 0.24248 0.09000
H 	H 	0.60080 0.50030 0.26090 -0.01900
C 	C 	0.64464 0.56645 0.25334 0.09100
H 	H 	0.66300 0.55980 0.25030 -0.01300
C 	C 	0.71810 0.38009 0.19479 0.08800
H 	H 	0.72610 0.39580 0.20370 -0.01100
N 	N 	0.61856 0.52729 0.23185 -0.11100
Cu	Cu	0.62669 0.97050 0.66280 0.82600
Cu	Cu	0.60004 0.94205 0.72543 0.82500
N 	N 	0.60846 0.98353 0.72281 -0.23000
N 	N 	0.62086 0.99548 0.69880 -0.21300
N 	N 	0.64342 0.93459 0.67807 -0.23100
N 	N 	0.63591 0.92447 0.70514 -0.21000
N 	N 	0.60839 0.09201 0.76677 -0.23000
N 	N 	0.63795 0.09033 0.76573 -0.21700
C 	C 	0.59820 0.06936 0.75436 0.08500
H 	H 	0.57900 0.06520 0.75190 -0.02400
N 	N 	0.62040 0.05296 0.74569 -0.11100
C 	C 	0.62679 0.02194 0.70450 0.09000
H 	H 	0.63520 0.03490 0.69210 -0.01200
N 	N 	0.73153 0.85676 0.68822 -0.22000
N 	N 	0.69046 0.87768 0.68652 -0.11100
N 	N 	0.71175 0.83835 0.67572 -0.23400
N 	N 	0.67011 0.89859 0.68877 -0.11000
C 	C 	0.65189 0.90275 0.71092 0.09300
H 	H 	0.65110 0.89180 0.72740 -0.01200
C 	C 	0.68733 0.85136 0.67510 0.09200
H 	H 	0.67050 0.84380 0.66800 -0.03100
C 	C 	0.66405 0.91867 0.66872 0.08900
H 	H 	0.67320 0.92070 0.65130 -0.01800
C 	C 	0.60769 0.00281 0.74248 0.09000
H 	H 	0.60080 0.00030 0.76090 -0.01900
C 	C 	0.64464 0.06645 0.75334 0.09100
H 	H 	0.66300 0.05980 0.75030 -0.01300
C 	C 	0.71810 0.88009 0.69479 0.08800
H 	H 	0.72610 0.89580 0.70370 -0.01100
N 	N 	0.61856 0.02729 0.73185 -0.11100
Cu	Cu	0.12669 0.47050 0.66280 0.82600
Cu	Cu	0.10004 0.44205 0.72543 0.82500
N 	N 	0.10846 0.48353 0.72281 -0.23000
N 	N 	0.12086 0.49548 0.69880 -0.21300
N 	N 	0.14342 0.43459 0.67807 -0.23100
N 	N 	0.13591 0.42447 0.70514 -0.21000
N 	N 	0.10839 0.59201 0.76677 -0.23000
N 	N 	0.13795 0.59033 0.76573 -0.21700
C 	C 	0.09820 0.56936 0.75436 0.08500
H 	H 	0.07900 0.56520 0.75190 -0.02400
N 	N 	0.12040 0.55296 0.74569 -0.11100
C 	C 	0.12679 0.52194 0.70450 0.09000
H 	H 	0.13520 0.53490 0.69210 -0.01200
N 	N 	0.23153 0.35676 0.68822 -0.22000
N 	N 	0.19046 0.37768 0.68652 -0.11100
N 	N 	0.21175 0.33835 0.67572 -0.23400
N 	N 	0.17011 0.39859 0.68877 -0.11000
C 	C 	0.15189 0.40275 0.71092 0.09300
H 	H 	0.15110 0.39180 0.72740 -0.01200
C 	C 	0.18733 0.35136 0.67510 0.09200
H 	H 	0.17050 0.34380 0.66800 -0.03100
C 	C 	0.16405 0.41867 0.66872 0.08900
H 	H 	0.17320 0.42070 0.65130 -0.01800
C 	C 	0.10769 0.50281 0.74248 0.09000
H 	H 	0.10080 0.50030 0.76090 -0.01900
C 	C 	0.14464 0.56645 0.75334 0.09100
H 	H 	0.16300 0.55980 0.75030 -0.01300
C 	C 	0.21810 0.38009 0.69479 0.08800
H 	H 	0.22610 0.39580 0.70370 -0.01100
N 	N 	0.11856 0.52729 0.73185 -0.11100
Cu	Cu	0.12669 0.97050 0.16280 0.82600
Cu	Cu	0.10004 0.94205 0.22543 0.82500
N 	N 	0.10846 0.98353 0.22281 -0.23000
N 	N 	0.12086 0.99548 0.19880 -0.21300
N 	N 	0.14342 0.93459 0.17807 -0.23100
N 	N 	0.13591 0.92447 0.20514 -0.21000
N 	N 	0.10839 0.09201 0.26677 -0.23000
N 	N 	0.13795 0.09033 0.26573 -0.21700
C 	C 	0.09820 0.06936 0.25436 0.08500
H 	H 	0.07900 0.06520 0.25190 -0.02400
N 	N 	0.12040 0.05296 0.24569 -0.11100
C 	C 	0.12679 0.02194 0.20450 0.09000
H 	H 	0.13520 0.03490 0.19210 -0.01200
N 	N 	0.23153 0.85676 0.18822 -0.22000
N 	N 	0.19046 0.87768 0.18652 -0.11100
N 	N 	0.21175 0.83835 0.17572 -0.23400
N 	N 	0.17011 0.89859 0.18877 -0.11000
C 	C 	0.15189 0.90275 0.21092 0.09300
H 	H 	0.15110 0.89180 0.22740 -0.01200
C 	C 	0.18733 0.85136 0.17510 0.09200
H 	H 	0.17050 0.84380 0.16800 -0.03100
C 	C 	0.16405 0.91867 0.16872 0.08900
H 	H 	0.17320 0.92070 0.15130 -0.01800
C 	C 	0.10769 0.00281 0.24248 0.09000
H 	H 	0.10080 0.00030 0.26090 -0.01900
C 	C 	0.14464 0.06645 0.25334 0.09100
H 	H 	0.16300 0.05980 0.25030 -0.01300
C 	C 	0.21810 0.88009 0.19479 0.08800
H 	H 	0.22610 0.89580 0.20370 -0.01100
N 	N 	0.11856 0.02729 0.23185 -0.11100
Cu	Cu	0.27951 0.66280 0.62331 0.82600
Cu	Cu	0.30795 0.72543 0.64996 0.82500
N 	N 	0.26647 0.72281 0.64154 -0.23000
N 	N 	0.25452 0.69880 0.62914 -0.21300
N 	N 	0.31541 0.67807 0.60658 -0.23100
N 	N 	0.32553 0.70514 0.61409 -0.21000
N 	N 	0.15799 0.76677 0.64161 -0.23000
N 	N 	0.15967 0.76573 0.61205 -0.21700
C 	C 	0.18064 0.75436 0.65180 0.08500
H 	H 	0.18480 0.75190 0.67100 -0.02400
N 	N 	0.19704 0.74569 0.62960 -0.11100
C 	C 	0.22806 0.70450 0.62321 0.09000
H 	H 	0.21510 0.69210 0.61480 -0.01200
N 	N 	0.39324 0.68822 0.51847 -0.22000
N 	N 	0.37232 0.68652 0.55954 -0.11100
N 	N 	0.41165 0.67572 0.53825 -0.23400
N 	N 	0.35141 0.68877 0.57989 -0.11000
C 	C 	0.34725 0.71092 0.59811 0.09300
H 	H 	0.35820 0.72740 0.59890 -0.01200
C 	C 	0.39864 0.67510 0.56267 0.09200
H 	H 	0.40620 0.66800 0.57950 -0.03100
C 	C 	0.33133 0.66872 0.58595 0.08900
H 	H 	0.32930 0.65130 0.57680 -0.01800
C 	C 	0.24719 0.74248 0.64231 0.09000
H 	H 	0.24970 0.76090 0.64920 -0.01900
C 	C 	0.18355 0.75334 0.60536 0.09100
H 	H 	0.19020 0.75030 0.58700 -0.01300
C 	C 	0.36991 0.69479 0.53190 0.08800
H 	H 	0.35420 0.70370 0.52390 -0.01100
N 	N 	0.22271 0.73185 0.63144 -0.11100
Cu	Cu	0.27951 0.16280 0.12331 0.82600
Cu	Cu	0.30795 0.22543 0.14996 0.82500
N 	N 	0.26647 0.22281 0.14154 -0.23000
N 	N 	0.25452 0.19880 0.12914 -0.21300
N 	N 	0.31541 0.17807 0.10658 -0.23100
N 	N 	0.32553 0.20514 0.11409 -0.21000
N 	N 	0.15799 0.26677 0.14161 -0.23000
N 	N 	0.15967 0.26573 0.11205 -0.21700
C 	C 	0.18064 0.25436 0.15180 0.08500
H 	H 	0.18480 0.25190 0.17100 -0.02400
N 	N 	0.19704 0.24569 0.12960 -0.11100
C 	C 	0.22806 0.20450 0.12321 0.09000
H 	H 	0.21510 0.19210 0.11480 -0.01200
N 	N 	0.39324 0.18822 0.01847 -0.22000
N 	N 	0.37232 0.18652 0.05954 -0.11100
N 	N 	0.41165 0.17572 0.03825 -0.23400
N 	N 	0.35141 0.18877 0.07989 -0.11000
C 	C 	0.34725 0.21092 0.09811 0.09300
H 	H 	0.35820 0.22740 0.09890 -0.01200
C 	C 	0.39864 0.17510 0.06267 0.09200
H 	H 	0.40620 0.16800 0.07950 -0.03100
C 	C 	0.33133 0.16872 0.08595 0.08900
H 	H 	0.32930 0.15130 0.07680 -0.01800
C 	C 	0.24719 0.24248 0.14231 0.09000
H 	H 	0.24970 0.26090 0.14920 -0.01900
C 	C 	0.18355 0.25334 0.10536 0.09100
H 	H 	0.19020 0.25030 0.08700 -0.01300
C 	C 	0.36991 0.19479 0.03190 0.08800
H 	H 	0.35420 0.20370 0.02390 -0.01100
N 	N 	0.22271 0.23185 0.13144 -0.11100
Cu	Cu	0.77951 0.66280 0.12331 0.82600
Cu	Cu	0.80795 0.72543 0.14996 0.82500
N 	N 	0.76647 0.72281 0.14154 -0.23000
N 	N 	0.75452 0.69880 0.12914 -0.21300
N 	N 	0.81541 0.67807 0.10658 -0.23100
N 	N 	0.82553 0.70514 0.11409 -0.21000
N 	N 	0.65799 0.76677 0.14161 -0.23000
N 	N 	0.65967 0.76573 0.11205 -0.21700
C 	C 	0.68064 0.75436 0.15180 0.08500
H 	H 	0.68480 0.75190 0.17100 -0.02400
N 	N 	0.69704 0.74569 0.12960 -0.11100
C 	C 	0.72806 0.70450 0.12321 0.09000
H 	H 	0.71510 0.69210 0.11480 -0.01200
N 	N 	0.89324 0.68822 0.01847 -0.22000
N 	N 	0.87232 0.68652 0.05954 -0.11100
N 	N 	0.91165 0.67572 0.03825 -0.23400
N 	N 	0.85141 0.68877 0.07989 -0.11000
C 	C 	0.84725 0.71092 0.09811 0.09300
H 	H 	0.85820 0.72740 0.09890 -0.01200
C 	C 	0.89864 0.67510 0.06267 0.09200
H 	H 	0.90620 0.66800 0.07950 -0.03100
C 	C 	0.83133 0.66872 0.08595 0.08900
H 	H 	0.82930 0.65130 0.07680 -0.01800
C 	C 	0.74719 0.74248 0.14231 0.09000
H 	H 	0.74970 0.76090 0.14920 -0.01900
C 	C 	0.68355 0.75334 0.10536 0.09100
H 	H 	0.69020 0.75030 0.08700 -0.01300
C 	C 	0.86991 0.69479 0.03190 0.08800
H 	H 	0.85420 0.70370 0.02390 -0.01100
N 	N 	0.72271 0.73185 0.13144 -0.11100
Cu	Cu	0.77951 0.16280 0.62331 0.82600
Cu	Cu	0.80795 0.22543 0.64996 0.82500
N 	N 	0.76647 0.22281 0.64154 -0.23000
N 	N 	0.75452 0.19880 0.62914 -0.21300
N 	N 	0.81541 0.17807 0.60658 -0.23100
N 	N 	0.82553 0.20514 0.61409 -0.21000
N 	N 	0.65799 0.26677 0.64161 -0.23000
N 	N 	0.65967 0.26573 0.61205 -0.21700
C 	C 	0.68064 0.25436 0.65180 0.08500
H 	H 	0.68480 0.25190 0.67100 -0.02400
N 	N 	0.69704 0.24569 0.62960 -0.11100
C 	C 	0.72806 0.20450 0.62321 0.09000
H 	H 	0.71510 0.19210 0.61480 -0.01200
N 	N 	0.89324 0.18822 0.51847 -0.22000
N 	N 	0.87232 0.18652 0.55954 -0.11100
N 	N 	0.91165 0.17572 0.53825 -0.23400
N 	N 	0.85141 0.18877 0.57989 -0.11000
C 	C 	0.84725 0.21092 0.59811 0.09300
H 	H 	0.85820 0.22740 0.59890 -0.01200
C 	C 	0.89864 0.17510 0.56267 0.09200
H 	H 	0.90620 0.16800 0.57950 -0.03100
C 	C 	0.83133 0.16872 0.58595 0.08900
H 	H 	0.82930 0.15130 0.57680 -0.01800
C 	C 	0.74719 0.24248 0.64231 0.09000
H 	H 	0.74970 0.26090 0.64920 -0.01900
C 	C 	0.68355 0.25334 0.60536 0.09100
H 	H 	0.69020 0.25030 0.58700 -0.01300
C 	C 	0.86991 0.19479 0.53190 0.08800
H 	H 	0.85420 0.20370 0.52390 -0.01100
N 	N 	0.72271 0.23185 0.63144 -0.11100
Cu	Cu	0.77951 0.58720 0.12669 0.82600
Cu	Cu	0.80795 0.52457 0.10004 0.82500
N 	N 	0.76647 0.52719 0.10846 -0.23000
N 	N 	0.75452 0.55120 0.12086 -0.21300
N 	N 	0.81541 0.57193 0.14342 -0.23100
N 	N 	0.82553 0.54486 0.13591 -0.21000
N 	N 	0.65799 0.48323 0.10839 -0.23000
N 	N 	0.65967 0.48427 0.13795 -0.21700
C 	C 	0.68064 0.49564 0.09820 0.08500
H 	H 	0.68480 0.49810 0.07900 -0.02400
N 	N 	0.69704 0.50431 0.12040 -0.11100
C 	C 	0.72806 0.54550 0.12679 0.09000
H 	H 	0.71510 0.55790 0.13520 -0.01200
N 	N 	0.89324 0.56178 0.23153 -0.22000
N 	N 	0.87232 0.56348 0.19046 -0.11100
N 	N 	0.91165 0.57428 0.21175 -0.23400
N 	N 	0.85141 0.56123 0.17011 -0.11000
C 	C 	0.84725 0.53908 0.15189 0.09300
H 	H 	0.85820 0.52260 0.15110 -0.01200
C 	C 	0.89864 0.57490 0.18733 0.09200
H 	H 	0.90620 0.58200 0.17050 -0.03100
C 	C 	0.83133 0.58128 0.16405 0.08900
H 	H 	0.82930 0.59870 0.17320 -0.01800
C 	C 	0.74719 0.50752 0.10769 0.09000
H 	H 	0.74970 0.48910 0.10080 -0.01900
C 	C 	0.68355 0.49666 0.14464 0.09100
H 	H 	0.69020 0.49970 0.16300 -0.01300
C 	C 	0.86991 0.55521 0.21810 0.08800
H 	H 	0.85420 0.54630 0.22610 -0.01100
N 	N 	0.72271 0.51815 0.11856 -0.11100
Cu	Cu	0.77951 0.08720 0.62669 0.82600
Cu	Cu	0.80795 0.02457 0.60004 0.82500
N 	N 	0.76647 0.02719 0.60846 -0.23000
N 	N 	0.75452 0.05120 0.62086 -0.21300
N 	N 	0.81541 0.07193 0.64342 -0.23100
N 	N 	0.82553 0.04486 0.63591 -0.21000
N 	N 	0.65799 0.98323 0.60839 -0.23000
N 	N 	0.65967 0.98427 0.63795 -0.21700
C 	C 	0.68064 0.99564 0.59820 0.08500
H 	H 	0.68480 0.99810 0.57900 -0.02400
N 	N 	0.69704 0.00431 0.62040 -0.11100
C 	C 	0.72806 0.04550 0.62679 0.09000
H 	H 	0.71510 0.05790 0.63520 -0.01200
N 	N 	0.89324 0.06178 0.73153 -0.22000
N 	N 	0.87232 0.06348 0.69046 -0.11100
N 	N 	0.91165 0.07428 0.71175 -0.23400
N 	N 	0.85141 0.06123 0.67011 -0.11000
C 	C 	0.84725 0.03908 0.65189 0.09300
H 	H 	0.85820 0.02260 0.65110 -0.01200
C 	C 	0.89864 0.07490 0.68733 0.09200
H 	H 	0.90620 0.08200 0.67050 -0.03100
C 	C 	0.83133 0.08128 0.66405 0.08900
H 	H 	0.82930 0.09870 0.67320 -0.01800
C 	C 	0.74719 0.00752 0.60769 0.09000
H 	H 	0.74970 0.98910 0.60080 -0.01900
C 	C 	0.68355 0.99666 0.64464 0.09100
H 	H 	0.69020 0.99970 0.66300 -0.01300
C 	C 	0.86991 0.05521 0.71810 0.08800
H 	H 	0.85420 0.04630 0.72610 -0.01100
N 	N 	0.72271 0.01815 0.61856 -0.11100
Cu	Cu	0.27951 0.58720 0.62669 0.82600
Cu	Cu	0.30795 0.52457 0.60004 0.82500
N 	N 	0.26647 0.52719 0.60846 -0.23000
N 	N 	0.25452 0.55120 0.62086 -0.21300
N 	N 	0.31541 0.57193 0.64342 -0.23100
N 	N 	0.32553 0.54486 0.63591 -0.21000
N 	N 	0.15799 0.48323 0.60839 -0.23000
N 	N 	0.15967 0.48427 0.63795 -0.21700
C 	C 	0.18064 0.49564 0.59820 0.08500
H 	H 	0.18480 0.49810 0.57900 -0.02400
N 	N 	0.19704 0.50431 0.62040 -0.11100
C 	C 	0.22806 0.54550 0.62679 0.09000
H 	H 	0.21510 0.55790 0.63520 -0.01200
N 	N 	0.39324 0.56178 0.73153 -0.22000
N 	N 	0.37232 0.56348 0.69046 -0.11100
N 	N 	0.41165 0.57428 0.71175 -0.23400
N 	N 	0.35141 0.56123 0.67011 -0.11000
C 	C 	0.34725 0.53908 0.65189 0.09300
H 	H 	0.35820 0.52260 0.65110 -0.01200
C 	C 	0.39864 0.57490 0.68733 0.09200
H 	H 	0.40620 0.58200 0.67050 -0.03100
C 	C 	0.33133 0.58128 0.66405 0.08900
H 	H 	0.32930 0.59870 0.67320 -0.01800
C 	C 	0.24719 0.50752 0.60769 0.09000
H 	H 	0.24970 0.48910 0.60080 -0.01900
C 	C 	0.18355 0.49666 0.64464 0.09100
H 	H 	0.19020 0.49970 0.66300 -0.01300
C 	C 	0.36991 0.55521 0.71810 0.08800
H 	H 	0.35420 0.54630 0.72610 -0.01100
N 	N 	0.22271 0.51815 0.61856 -0.11100
Cu	Cu	0.27951 0.08720 0.12669 0.82600
Cu	Cu	0.30795 0.02457 0.10004 0.82500
N 	N 	0.26647 0.02719 0.10846 -0.23000
N 	N 	0.25452 0.05120 0.12086 -0.21300
N 	N 	0.31541 0.07193 0.14342 -0.23100
N 	N 	0.32553 0.04486 0.13591 -0.21000
N 	N 	0.15799 0.98323 0.10839 -0.23000
N 	N 	0.15967 0.98427 0.13795 -0.21700
C 	C 	0.18064 0.99564 0.09820 0.08500
H 	H 	0.18480 0.99810 0.07900 -0.02400
N 	N 	0.19704 0.00431 0.12040 -0.11100
C 	C 	0.22806 0.04550 0.12679 0.09000
H 	H 	0.21510 0.05790 0.13520 -0.01200
N 	N 	0.39324 0.06178 0.23153 -0.22000
N 	N 	0.37232 0.06348 0.19046 -0.11100
N 	N 	0.41165 0.07428 0.21175 -0.23400
N 	N 	0.35141 0.06123 0.17011 -0.11000
C 	C 	0.34725 0.03908 0.15189 0.09300
H 	H 	0.35820 0.02260 0.15110 -0.01200
C 	C 	0.39864 0.07490 0.18733 0.09200
H 	H 	0.40620 0.08200 0.17050 -0.03100
C 	C 	0.33133 0.08128 0.16405 0.08900
H 	H 	0.32930 0.09870 0.17320 -0.01800
C 	C 	0.24719 0.00752 0.10769 0.09000
H 	H 	0.24970 0.98910 0.10080 -0.01900
C 	C 	0.18355 0.99666 0.14464 0.09100
H 	H 	0.19020 0.99970 0.16300 -0.01300
C 	C 	0.36991 0.05521 0.21810 0.08800
H 	H 	0.35420 0.04630 0.22610 -0.01100
N 	N 	0.22271 0.01815 0.11856 -0.11100
Cu	Cu	0.47050 0.16280 0.62669 0.82600
Cu	Cu	0.44205 0.22543 0.60004 0.82500
N 	N 	0.48353 0.22281 0.60846 -0.23000
N 	N 	0.49548 0.19880 0.62086 -0.21300
N 	N 	0.43459 0.17807 0.64342 -0.23100
N 	N 	0.42447 0.20514 0.63591 -0.21000
N 	N 	0.59201 0.26677 0.60839 -0.23000
N 	N 	0.59033 0.26573 0.63795 -0.21700
C 	C 	0.56936 0.25436 0.59820 0.08500
H 	H 	0.56520 0.25190 0.57900 -0.02400
N 	N 	0.55296 0.24569 0.62040 -0.11100
C 	C 	0.52194 0.20450 0.62679 0.09000
H 	H 	0.53490 0.19210 0.63520 -0.01200
N 	N 	0.35676 0.18822 0.73153 -0.22000
N 	N 	0.37768 0.18652 0.69046 -0.11100
N 	N 	0.33835 0.17572 0.71175 -0.23400
N 	N 	0.39859 0.18877 0.67011 -0.11000
C 	C 	0.40275 0.21092 0.65189 0.09300
H 	H 	0.39180 0.22740 0.65110 -0.01200
C 	C 	0.35136 0.17510 0.68733 0.09200
H 	H 	0.34380 0.16800 0.67050 -0.03100
C 	C 	0.41867 0.16872 0.66405 0.08900
H 	H 	0.42070 0.15130 0.67320 -0.01800
C 	C 	0.50281 0.24248 0.60769 0.09000
H 	H 	0.50030 0.26090 0.60080 -0.01900
C 	C 	0.56645 0.25334 0.64464 0.09100
H 	H 	0.55980 0.25030 0.66300 -0.01300
C 	C 	0.38009 0.19479 0.71810 0.08800
H 	H 	0.39580 0.20370 0.72610 -0.01100
N 	N 	0.52729 0.23185 0.61856 -0.11100
Cu	Cu	0.47050 0.66280 0.12669 0.82600
Cu	Cu	0.44205 0.72543 0.10004 0.82500
N 	N 	0.48353 0.72281 0.10846 -0.23000
N 	N 	0.49548 0.69880 0.12086 -0.21300
N 	N 	0.43459 0.67807 0.14342 -0.23100
N 	N 	0.42447 0.70514 0.13591 -0.21000
N 	N 	0.59201 0.76677 0.10839 -0.23000
N 	N 	0.59033 0.76573 0.13795 -0.21700
C 	C 	0.56936 0.75436 0.09820 0.08500
H 	H 	0.56520 0.75190 0.07900 -0.02400
N 	N 	0.55296 0.74569 0.12040 -0.11100
C 	C 	0.52194 0.70450 0.12679 0.09000
H 	H 	0.53490 0.69210 0.13520 -0.01200
N 	N 	0.35676 0.68822 0.23153 -0.22000
N 	N 	0.37768 0.68652 0.19046 -0.11100
N 	N 	0.33835 0.67572 0.21175 -0.23400
N 	N 	0.39859 0.68877 0.17011 -0.11000
C 	C 	0.40275 0.71092 0.15189 0.09300
H 	H 	0.39180 0.72740 0.15110 -0.01200
C 	C 	0.35136 0.67510 0.18733 0.09200
H 	H 	0.34380 0.66800 0.17050 -0.03100
C 	C 	0.41867 0.66872 0.16405 0.08900
H 	H 	0.42070 0.65130 0.17320 -0.01800
C 	C 	0.50281 0.74248 0.10769 0.09000
H 	H 	0.50030 0.76090 0.10080 -0.01900
C 	C 	0.56645 0.75334 0.14464 0.09100
H 	H 	0.55980 0.75030 0.16300 -0.01300
C 	C 	0.38009 0.69479 0.21810 0.08800
H 	H 	0.39580 0.70370 0.22610 -0.01100
N 	N 	0.52729 0.73185 0.11856 -0.11100
Cu	Cu	0.97050 0.16280 0.12669 0.82600
Cu	Cu	0.94205 0.22543 0.10004 0.82500
N 	N 	0.98353 0.22281 0.10846 -0.23000
N 	N 	0.99548 0.19880 0.12086 -0.21300
N 	N 	0.93459 0.17807 0.14342 -0.23100
N 	N 	0.92447 0.20514 0.13591 -0.21000
N 	N 	0.09201 0.26677 0.10839 -0.23000
N 	N 	0.09033 0.26573 0.13795 -0.21700
C 	C 	0.06936 0.25436 0.09820 0.08500
H 	H 	0.06520 0.25190 0.07900 -0.02400
N 	N 	0.05296 0.24569 0.12040 -0.11100
C 	C 	0.02194 0.20450 0.12679 0.09000
H 	H 	0.03490 0.19210 0.13520 -0.01200
N 	N 	0.85676 0.18822 0.23153 -0.22000
N 	N 	0.87768 0.18652 0.19046 -0.11100
N 	N 	0.83835 0.17572 0.21175 -0.23400
N 	N 	0.89859 0.18877 0.17011 -0.11000
C 	C 	0.90275 0.21092 0.15189 0.09300
H 	H 	0.89180 0.22740 0.15110 -0.01200
C 	C 	0.85136 0.17510 0.18733 0.09200
H 	H 	0.84380 0.16800 0.17050 -0.03100
C 	C 	0.91867 0.16872 0.16405 0.08900
H 	H 	0.92070 0.15130 0.17320 -0.01800
C 	C 	0.00281 0.24248 0.10769 0.09000
H 	H 	0.00030 0.26090 0.10080 -0.01900
C 	C 	0.06645 0.25334 0.14464 0.09100
H 	H 	0.05980 0.25030 0.16300 -0.01300
C 	C 	0.88009 0.19479 0.21810 0.08800
H 	H 	0.89580 0.20370 0.22610 -0.01100
N 	N 	0.02729 0.23185 0.11856 -0.11100
Cu	Cu	0.97050 0.66280 0.62669 0.82600
Cu	Cu	0.94205 0.72543 0.60004 0.82500
N 	N 	0.98353 0.72281 0.60846 -0.23000
N 	N 	0.99548 0.69880 0.62086 -0.21300
N 	N 	0.93459 0.67807 0.64342 -0.23100
N 	N 	0.92447 0.70514 0.63591 -0.21000
N 	N 	0.09201 0.76677 0.60839 -0.23000
N 	N 	0.09033 0.76573 0.63795 -0.21700
C 	C 	0.06936 0.75436 0.59820 0.08500
H 	H 	0.06520 0.75190 0.57900 -0.02400
N 	N 	0.05296 0.74569 0.62040 -0.11100
C 	C 	0.02194 0.70450 0.62679 0.09000
H 	H 	0.03490 0.69210 0.63520 -0.01200
N 	N 	0.85676 0.68822 0.73153 -0.22000
N 	N 	0.87768 0.68652 0.69046 -0.11100
N 	N 	0.83835 0.67572 0.71175 -0.23400
N 	N 	0.89859 0.68877 0.67011 -0.11000
C 	C 	0.90275 0.71092 0.65189 0.09300
H 	H 	0.89180 0.72740 0.65110 -0.01200
C 	C 	0.85136 0.67510 0.68733 0.09200
H 	H 	0.84380 0.66800 0.67050 -0.03100
C 	C 	0.91867 0.66872 0.66405 0.08900
H 	H 	0.92070 0.65130 0.67320 -0.01800
C 	C 	0.00281 0.74248 0.60769 0.09000
H 	H 	0.00030 0.76090 0.60080 -0.01900
C 	C 	0.06645 0.75334 0.64464 0.09100
H 	H 	0.05980 0.75030 0.66300 -0.01300
C 	C 	0.88009 0.69479 0.71810 0.08800
H 	H 	0.89580 0.70370 0.72610 -0.01100
N 	N 	0.02729 0.73185 0.61856 -0.11100
Cu	Cu	0.97050 0.08720 0.12331 0.82600
Cu	Cu	0.94205 0.02457 0.14996 0.82500
N 	N 	0.98353 0.02719 0.14154 -0.23000
N 	N 	0.99548 0.05120 0.12914 -0.21300
N 	N 	0.93459 0.07193 0.10658 -0.23100
N 	N 	0.92447 0.04486 0.11409 -0.21000
N 	N 	0.09201 0.98323 0.14161 -0.23000
N 	N 	0.09033 0.98427 0.11205 -0.21700
C 	C 	0.06936 0.99564 0.15180 0.08500
H 	H 	0.06520 0.99810 0.17100 -0.02400
N 	N 	0.05296 0.00431 0.12960 -0.11100
C 	C 	0.02194 0.04550 0.12321 0.09000
H 	H 	0.03490 0.05790 0.11480 -0.01200
N 	N 	0.85676 0.06178 0.01847 -0.22000
N 	N 	0.87768 0.06348 0.05954 -0.11100
N 	N 	0.83835 0.07428 0.03825 -0.23400
N 	N 	0.89859 0.06123 0.07989 -0.11000
C 	C 	0.90275 0.03908 0.09811 0.09300
H 	H 	0.89180 0.02260 0.09890 -0.01200
C 	C 	0.85136 0.07490 0.06267 0.09200
H 	H 	0.84380 0.08200 0.07950 -0.03100
C 	C 	0.91867 0.08128 0.08595 0.08900
H 	H 	0.92070 0.09870 0.07680 -0.01800
C 	C 	0.00281 0.00752 0.14231 0.09000
H 	H 	0.00030 0.98910 0.14920 -0.01900
C 	C 	0.06645 0.99666 0.10536 0.09100
H 	H 	0.05980 0.99970 0.08700 -0.01300
C 	C 	0.88009 0.05521 0.03190 0.08800
H 	H 	0.89580 0.04630 0.02390 -0.01100
N 	N 	0.02729 0.01815 0.13144 -0.11100
Cu	Cu	0.97050 0.58720 0.62331 0.82600
Cu	Cu	0.94205 0.52457 0.64996 0.82500
N 	N 	0.98353 0.52719 0.64154 -0.23000
N 	N 	0.99548 0.55120 0.62914 -0.21300
N 	N 	0.93459 0.57193 0.60658 -0.23100
N 	N 	0.92447 0.54486 0.61409 -0.21000
N 	N 	0.09201 0.48323 0.64161 -0.23000
N 	N 	0.09033 0.48427 0.61205 -0.21700
C 	C 	0.06936 0.49564 0.65180 0.08500
H 	H 	0.06520 0.49810 0.67100 -0.02400
N 	N 	0.05296 0.50431 0.62960 -0.11100
C 	C 	0.02194 0.54550 0.62321 0.09000
H 	H 	0.03490 0.55790 0.61480 -0.01200
N 	N 	0.85676 0.56178 0.51847 -0.22000
N 	N 	0.87768 0.56348 0.55954 -0.11100
N 	N 	0.83835 0.57428 0.53825 -0.23400
N 	N 	0.89859 0.56123 0.57989 -0.11000
C 	C 	0.90275 0.53908 0.59811 0.09300
H 	H 	0.89180 0.52260 0.59890 -0.01200
C 	C 	0.85136 0.57490 0.56267 0.09200
H 	H 	0.84380 0.58200 0.57950 -0.03100
C 	C 	0.91867 0.58128 0.58595 0.08900
H 	H 	0.92070 0.59870 0.57680 -0.01800
C 	C 	0.00281 0.50752 0.64231 0.09000
H 	H 	0.00030 0.48910 0.64920 -0.01900
C 	C 	0.06645 0.49666 0.60536 0.09100
H 	H 	0.05980 0.49970 0.58700 -0.01300
C 	C 	0.88009 0.55521 0.53190 0.08800
H 	H 	0.89580 0.54630 0.52390 -0.01100
N 	N 	0.02729 0.51815 0.63144 -0.11100
Cu	Cu	0.47050 0.08720 0.62331 0.82600
Cu	Cu	0.44205 0.02457 0.64996 0.82500
N 	N 	0.48353 0.02719 0.64154 -0.23000
N 	N 	0.49548 0.05120 0.62914 -0.21300
N 	N 	0.43459 0.07193 0.60658 -0.23100
N 	N 	0.42447 0.04486 0.61409 -0.21000
N 	N 	0.59201 0.98323 0.64161 -0.23000
N 	N 	0.59033 0.98427 0.61205 -0.21700
C 	C 	0.56936 0.99564 0.65180 0.08500
H 	H 	0.56520 0.99810 0.67100 -0.02400
N 	N 	0.55296 0.00431 0.62960 -0.11100
C 	C 	0.52194 0.04550 0.62321 0.09000
H 	H 	0.53490 0.05790 0.61480 -0.01200
N 	N 	0.35676 0.06178 0.51847 -0.22000
N 	N 	0.37768 0.06348 0.55954 -0.11100
N 	N 	0.33835 0.07428 0.53825 -0.23400
N 	N 	0.39859 0.06123 0.57989 -0.11000
C 	C 	0.40275 0.03908 0.59811 0.09300
H 	H 	0.39180 0.02260 0.59890 -0.01200
C 	C 	0.35136 0.07490 0.56267 0.09200
H 	H 	0.34380 0.08200 0.57950 -0.03100
C 	C 	0.41867 0.08128 0.58595 0.08900
H 	H 	0.42070 0.09870 0.57680 -0.01800
C 	C 	0.50281 0.00752 0.64231 0.09000
H 	H 	0.50030 0.98910 0.64920 -0.01900
C 	C 	0.56645 0.99666 0.60536 0.09100
H 	H 	0.55980 0.99970 0.58700 -0.01300
C 	C 	0.38009 0.05521 0.53190 0.08800
H 	H 	0.39580 0.04630 0.52390 -0.01100
N 	N 	0.52729 0.01815 0.63144 -0.11100
Cu	Cu	0.47050 0.58720 0.12331 0.82600
Cu	Cu	0.44205 0.52457 0.14996 0.82500
N 	N 	0.48353 0.52719 0.14154 -0.23000
N 	N 	0.49548 0.55120 0.12914 -0.21300
N 	N 	0.43459 0.57193 0.10658 -0.23100
N 	N 	0.42447 0.54486 0.11409 -0.21000
N 	N 	0.59201 0.48323 0.14161 -0.23000
N 	N 	0.59033 0.48427 0.11205 -0.21700
C 	C 	0.56936 0.49564 0.15180 0.08500
H 	H 	0.56520 0.49810 0.17100 -0.02400
N 	N 	0.55296 0.50431 0.12960 -0.11100
C 	C 	0.52194 0.54550 0.12321 0.09000
H 	H 	0.53490 0.55790 0.11480 -0.01200
N 	N 	0.35676 0.56178 0.01847 -0.22000
N 	N 	0.37768 0.56348 0.05954 -0.11100
N 	N 	0.33835 0.57428 0.03825 -0.23400
N 	N 	0.39859 0.56123 0.07989 -0.11000
C 	C 	0.40275 0.53908 0.09811 0.09300
H 	H 	0.39180 0.52260 0.09890 -0.01200
C 	C 	0.35136 0.57490 0.06267 0.09200
H 	H 	0.34380 0.58200 0.07950 -0.03100
C 	C 	0.41867 0.58128 0.08595 0.08900
H 	H 	0.42070 0.59870 0.07680 -0.01800
C 	C 	0.50281 0.50752 0.14231 0.09000
H 	H 	0.50030 0.48910 0.14920 -0.01900
C 	C 	0.56645 0.49666 0.10536 0.09100
H 	H 	0.55980 0.49970 0.08700 -0.01300
C 	C 	0.38009 0.55521 0.03190 0.08800
H 	H 	0.39580 0.54630 0.02390 -0.01100
N 	N 	0.52729 0.51815 0.13144 -0.11100
Cu	Cu	0.62331 0.58720 0.47050 0.82600
Cu	Cu	0.64996 0.52457 0.44205 0.82500
N 	N 	0.64154 0.52719 0.48353 -0.23000
N 	N 	0.62914 0.55120 0.49548 -0.21300
N 	N 	0.60658 0.57193 0.43459 -0.23100
N 	N 	0.61409 0.54486 0.42447 -0.21000
N 	N 	0.64161 0.48323 0.59201 -0.23000
N 	N 	0.61205 0.48427 0.59033 -0.21700
C 	C 	0.65180 0.49564 0.56936 0.08500
H 	H 	0.67100 0.49810 0.56520 -0.02400
N 	N 	0.62960 0.50431 0.55296 -0.11100
C 	C 	0.62321 0.54550 0.52194 0.09000
H 	H 	0.61480 0.55790 0.53490 -0.01200
N 	N 	0.51847 0.56178 0.35676 -0.22000
N 	N 	0.55954 0.56348 0.37768 -0.11100
N 	N 	0.53825 0.57428 0.33835 -0.23400
N 	N 	0.57989 0.56123 0.39859 -0.11000
C 	C 	0.59811 0.53908 0.40275 0.09300
H 	H 	0.59890 0.52260 0.39180 -0.01200
C 	C 	0.56267 0.57490 0.35136 0.09200
H 	H 	0.57950 0.58200 0.34380 -0.03100
C 	C 	0.58595 0.58128 0.41867 0.08900
H 	H 	0.57680 0.59870 0.42070 -0.01800
C 	C 	0.64231 0.50752 0.50281 0.09000
H 	H 	0.64920 0.48910 0.50030 -0.01900
C 	C 	0.60536 0.49666 0.56645 0.09100
H 	H 	0.58700 0.49970 0.55980 -0.01300
C 	C 	0.53190 0.55521 0.38009 0.08800
H 	H 	0.52390 0.54630 0.39580 -0.01100
N 	N 	0.63144 0.51815 0.52729 -0.11100
Cu	Cu	0.62331 0.08720 0.97050 0.82600
Cu	Cu	0.64996 0.02457 0.94205 0.82500
N 	N 	0.64154 0.02719 0.98353 -0.23000
N 	N 	0.62914 0.05120 0.99548 -0.21300
N 	N 	0.60658 0.07193 0.93459 -0.23100
N 	N 	0.61409 0.04486 0.92447 -0.21000
N 	N 	0.64161 0.98323 0.09201 -0.23000
N 	N 	0.61205 0.98427 0.09033 -0.21700
C 	C 	0.65180 0.99564 0.06936 0.08500
H 	H 	0.67100 0.99810 0.06520 -0.02400
N 	N 	0.62960 0.00431 0.05296 -0.11100
C 	C 	0.62321 0.04550 0.02194 0.09000
H 	H 	0.61480 0.05790 0.03490 -0.01200
N 	N 	0.51847 0.06178 0.85676 -0.22000
N 	N 	0.55954 0.06348 0.87768 -0.11100
N 	N 	0.53825 0.07428 0.83835 -0.23400
N 	N 	0.57989 0.06123 0.89859 -0.11000
C 	C 	0.59811 0.03908 0.90275 0.09300
H 	H 	0.59890 0.02260 0.89180 -0.01200
C 	C 	0.56267 0.07490 0.85136 0.09200
H 	H 	0.57950 0.08200 0.84380 -0.03100
C 	C 	0.58595 0.08128 0.91867 0.08900
H 	H 	0.57680 0.09870 0.92070 -0.01800
C 	C 	0.64231 0.00752 0.00281 0.09000
H 	H 	0.64920 0.98910 0.00030 -0.01900
C 	C 	0.60536 0.99666 0.06645 0.09100
H 	H 	0.58700 0.99970 0.05980 -0.01300
C 	C 	0.53190 0.05521 0.88009 0.08800
H 	H 	0.52390 0.04630 0.89580 -0.01100
N 	N 	0.63144 0.01815 0.02729 -0.11100
Cu	Cu	0.12331 0.58720 0.97050 0.82600
Cu	Cu	0.14996 0.52457 0.94205 0.82500
N 	N 	0.14154 0.52719 0.98353 -0.23000
N 	N 	0.12914 0.55120 0.99548 -0.21300
N 	N 	0.10658 0.57193 0.93459 -0.23100
N 	N 	0.11409 0.54486 0.92447 -0.21000
N 	N 	0.14161 0.48323 0.09201 -0.23000
N 	N 	0.11205 0.48427 0.09033 -0.21700
C 	C 	0.15180 0.49564 0.06936 0.08500
H 	H 	0.17100 0.49810 0.06520 -0.02400
N 	N 	0.12960 0.50431 0.05296 -0.11100
C 	C 	0.12321 0.54550 0.02194 0.09000
H 	H 	0.11480 0.55790 0.03490 -0.01200
N 	N 	0.01847 0.56178 0.85676 -0.22000
N 	N 	0.05954 0.56348 0.87768 -0.11100
N 	N 	0.03825 0.57428 0.83835 -0.23400
N 	N 	0.07989 0.56123 0.89859 -0.11000
C 	C 	0.09811 0.53908 0.90275 0.09300
H 	H 	0.09890 0.52260 0.89180 -0.01200
C 	C 	0.06267 0.57490 0.85136 0.09200
H 	H 	0.07950 0.58200 0.84380 -0.03100
C 	C 	0.08595 0.58128 0.91867 0.08900
H 	H 	0.07680 0.59870 0.92070 -0.01800
C 	C 	0.14231 0.50752 0.00281 0.09000
H 	H 	0.14920 0.48910 0.00030 -0.01900
C 	C 	0.10536 0.49666 0.06645 0.09100
H 	H 	0.08700 0.49970 0.05980 -0.01300
C 	C 	0.03190 0.55521 0.88009 0.08800
H 	H 	0.02390 0.54630 0.89580 -0.01100
N 	N 	0.13144 0.51815 0.02729 -0.11100
Cu	Cu	0.12331 0.08720 0.47050 0.82600
Cu	Cu	0.14996 0.02457 0.44205 0.82500
N 	N 	0.14154 0.02719 0.48353 -0.23000
N 	N 	0.12914 0.05120 0.49548 -0.21300
N 	N 	0.10658 0.07193 0.43459 -0.23100
N 	N 	0.11409 0.04486 0.42447 -0.21000
N 	N 	0.14161 0.98323 0.59201 -0.23000
N 	N 	0.11205 0.98427 0.59033 -0.21700
C 	C 	0.15180 0.99564 0.56936 0.08500
H 	H 	0.17100 0.99810 0.56520 -0.02400
N 	N 	0.12960 0.00431 0.55296 -0.11100
C 	C 	0.12321 0.04550 0.52194 0.09000
H 	H 	0.11480 0.05790 0.53490 -0.01200
N 	N 	0.01847 0.06178 0.35676 -0.22000
N 	N 	0.05954 0.06348 0.37768 -0.11100
N 	N 	0.03825 0.07428 0.33835 -0.23400
N 	N 	0.07989 0.06123 0.39859 -0.11000
C 	C 	0.09811 0.03908 0.40275 0.09300
H 	H 	0.09890 0.02260 0.39180 -0.01200
C 	C 	0.06267 0.07490 0.35136 0.09200
H 	H 	0.07950 0.08200 0.34380 -0.03100
C 	C 	0.08595 0.08128 0.41867 0.08900
H 	H 	0.07680 0.09870 0.42070 -0.01800
C 	C 	0.14231 0.00752 0.50281 0.09000
H 	H 	0.14920 0.98910 0.50030 -0.01900
C 	C 	0.10536 0.99666 0.56645 0.09100
H 	H 	0.08700 0.99970 0.55980 -0.01300
C 	C 	0.03190 0.05521 0.38009 0.08800
H 	H 	0.02390 0.04630 0.39580 -0.01100
N 	N 	0.13144 0.01815 0.52729 -0.11100
Cu	Cu	0.12669 0.66280 0.97050 0.82600
Cu	Cu	0.10004 0.72543 0.94205 0.82500
N 	N 	0.10846 0.72281 0.98353 -0.23000
N 	N 	0.12086 0.69880 0.99548 -0.21300
N 	N 	0.14342 0.67807 0.93459 -0.23100
N 	N 	0.13591 0.70514 0.92447 -0.21000
N 	N 	0.10839 0.76677 0.09201 -0.23000
N 	N 	0.13795 0.76573 0.09033 -0.21700
C 	C 	0.09820 0.75436 0.06936 0.08500
H 	H 	0.07900 0.75190 0.06520 -0.02400
N 	N 	0.12040 0.74569 0.05296 -0.11100
C 	C 	0.12679 0.70450 0.02194 0.09000
H 	H 	0.13520 0.69210 0.03490 -0.01200
N 	N 	0.23153 0.68822 0.85676 -0.22000
N 	N 	0.19046 0.68652 0.87768 -0.11100
N 	N 	0.21175 0.67572 0.83835 -0.23400
N 	N 	0.17011 0.68877 0.89859 -0.11000
C 	C 	0.15189 0.71092 0.90275 0.09300
H 	H 	0.15110 0.72740 0.89180 -0.01200
C 	C 	0.18733 0.67510 0.85136 0.09200
H 	H 	0.17050 0.66800 0.84380 -0.03100
C 	C 	0.16405 0.66872 0.91867 0.08900
H 	H 	0.17320 0.65130 0.92070 -0.01800
C 	C 	0.10769 0.74248 0.00281 0.09000
H 	H 	0.10080 0.76090 0.00030 -0.01900
C 	C 	0.14464 0.75334 0.06645 0.09100
H 	H 	0.16300 0.75030 0.05980 -0.01300
C 	C 	0.21810 0.69479 0.88009 0.08800
H 	H 	0.22610 0.70370 0.89580 -0.01100
N 	N 	0.11856 0.73185 0.02729 -0.11100
Cu	Cu	0.12669 0.16280 0.47050 0.82600
Cu	Cu	0.10004 0.22543 0.44205 0.82500
N 	N 	0.10846 0.22281 0.48353 -0.23000
N 	N 	0.12086 0.19880 0.49548 -0.21300
N 	N 	0.14342 0.17807 0.43459 -0.23100
N 	N 	0.13591 0.20514 0.42447 -0.21000
N 	N 	0.10839 0.26677 0.59201 -0.23000
N 	N 	0.13795 0.26573 0.59033 -0.21700
C 	C 	0.09820 0.25436 0.56936 0.08500
H 	H 	0.07900 0.25190 0.56520 -0.02400
N 	N 	0.12040 0.24569 0.55296 -0.11100
C 	C 	0.12679 0.20450 0.52194 0.09000
H 	H 	0.13520 0.19210 0.53490 -0.01200
N 	N 	0.23153 0.18822 0.35676 -0.22000
N 	N 	0.19046 0.18652 0.37768 -0.11100
N 	N 	0.21175 0.17572 0.33835 -0.23400
N 	N 	0.17011 0.18877 0.39859 -0.11000
C 	C 	0.15189 0.21092 0.40275 0.09300
H 	H 	0.15110 0.22740 0.39180 -0.01200
C 	C 	0.18733 0.17510 0.35136 0.09200
H 	H 	0.17050 0.16800 0.34380 -0.03100
C 	C 	0.16405 0.16872 0.41867 0.08900
H 	H 	0.17320 0.15130 0.42070 -0.01800
C 	C 	0.10769 0.24248 0.50281 0.09000
H 	H 	0.10080 0.26090 0.50030 -0.01900
C 	C 	0.14464 0.25334 0.56645 0.09100
H 	H 	0.16300 0.25030 0.55980 -0.01300
C 	C 	0.21810 0.19479 0.38009 0.08800
H 	H 	0.22610 0.20370 0.39580 -0.01100
N 	N 	0.11856 0.23185 0.52729 -0.11100
Cu	Cu	0.62669 0.66280 0.47050 0.82600
Cu	Cu	0.60004 0.72543 0.44205 0.82500
N 	N 	0.60846 0.72281 0.48353 -0.23000
N 	N 	0.62086 0.69880 0.49548 -0.21300
N 	N 	0.64342 0.67807 0.43459 -0.23100
N 	N 	0.63591 0.70514 0.42447 -0.21000
N 	N 	0.60839 0.76677 0.59201 -0.23000
N 	N 	0.63795 0.76573 0.59033 -0.21700
C 	C 	0.59820 0.75436 0.56936 0.08500
H 	H 	0.57900 0.75190 0.56520 -0.02400
N 	N 	0.62040 0.74569 0.55296 -0.11100
C 	C 	0.62679 0.70450 0.52194 0.09000
H 	H 	0.63520 0.69210 0.53490 -0.01200
N 	N 	0.73153 0.68822 0.35676 -0.22000
N 	N 	0.69046 0.68652 0.37768 -0.11100
N 	N 	0.71175 0.67572 0.33835 -0.23400
N 	N 	0.67011 0.68877 0.39859 -0.11000
C 	C 	0.65189 0.71092 0.40275 0.09300
H 	H 	0.65110 0.72740 0.39180 -0.01200
C 	C 	0.68733 0.67510 0.35136 0.09200
H 	H 	0.67050 0.66800 0.34380 -0.03100
C 	C 	0.66405 0.66872 0.41867 0.08900
H 	H 	0.67320 0.65130 0.42070 -0.01800
C 	C 	0.60769 0.74248 0.50281 0.09000
H 	H 	0.60080 0.76090 0.50030 -0.01900
C 	C 	0.64464 0.75334 0.56645 0.09100
H 	H 	0.66300 0.75030 0.55980 -0.01300
C 	C 	0.71810 0.69479 0.38009 0.08800
H 	H 	0.72610 0.70370 0.39580 -0.01100
N 	N 	0.61856 0.73185 0.52729 -0.11100
Cu	Cu	0.62669 0.16280 0.97050 0.82600
Cu	Cu	0.60004 0.22543 0.94205 0.82500
N 	N 	0.60846 0.22281 0.98353 -0.23000
N 	N 	0.62086 0.19880 0.99548 -0.21300
N 	N 	0.64342 0.17807 0.93459 -0.23100
N 	N 	0.63591 0.20514 0.92447 -0.21000
N 	N 	0.60839 0.26677 0.09201 -0.23000
N 	N 	0.63795 0.26573 0.09033 -0.21700
C 	C 	0.59820 0.25436 0.06936 0.08500
H 	H 	0.57900 0.25190 0.06520 -0.02400
N 	N 	0.62040 0.24569 0.05296 -0.11100
C 	C 	0.62679 0.20450 0.02194 0.09000
H 	H 	0.63520 0.19210 0.03490 -0.01200
N 	N 	0.73153 0.18822 0.85676 -0.22000
N 	N 	0.69046 0.18652 0.87768 -0.11100
N 	N 	0.71175 0.17572 0.83835 -0.23400
N 	N 	0.67011 0.18877 0.89859 -0.11000
C 	C 	0.65189 0.21092 0.90275 0.09300
H 	H 	0.65110 0.22740 0.89180 -0.01200
C 	C 	0.68733 0.17510 0.85136 0.09200
H 	H 	0.67050 0.16800 0.84380 -0.03100
C 	C 	0.66405 0.16872 0.91867 0.08900
H 	H 	0.67320 0.15130 0.92070 -0.01800
C 	C 	0.60769 0.24248 0.00281 0.09000
H 	H 	0.60080 0.26090 0.00030 -0.01900
C 	C 	0.64464 0.25334 0.06645 0.09100
H 	H 	0.66300 0.25030 0.05980 -0.01300
C 	C 	0.71810 0.19479 0.88009 0.08800
H 	H 	0.72610 0.20370 0.89580 -0.01100
N 	N 	0.61856 0.23185 0.02729 -0.11100
Cu	Cu	0.62669 0.08720 0.27951 0.82600
Cu	Cu	0.60004 0.02457 0.30795 0.82500
N 	N 	0.60846 0.02719 0.26647 -0.23000
N 	N 	0.62086 0.05120 0.25452 -0.21300
N 	N 	0.64342 0.07193 0.31541 -0.23100
N 	N 	0.63591 0.04486 0.32553 -0.21000
N 	N 	0.60839 0.98323 0.15799 -0.23000
N 	N 	0.63795 0.98427 0.15967 -0.21700
C 	C 	0.59820 0.99564 0.18064 0.08500
H 	H 	0.57900 0.99810 0.18480 -0.02400
N 	N 	0.62040 0.00431 0.19704 -0.11100
C 	C 	0.62679 0.04550 0.22806 0.09000
H 	H 	0.63520 0.05790 0.21510 -0.01200
N 	N 	0.73153 0.06178 0.39324 -0.22000
N 	N 	0.69046 0.06348 0.37232 -0.11100
N 	N 	0.71175 0.07428 0.41165 -0.23400
N 	N 	0.67011 0.06123 0.35141 -0.11000
C 	C 	0.65189 0.03908 0.34725 0.09300
H 	H 	0.65110 0.02260 0.35820 -0.01200
C 	C 	0.68733 0.07490 0.39864 0.09200
H 	H 	0.67050 0.08200 0.40620 -0.03100
C 	C 	0.66405 0.08128 0.33133 0.08900
H 	H 	0.67320 0.09870 0.32930 -0.01800
C 	C 	0.60769 0.00752 0.24719 0.09000
H 	H 	0.60080 0.98910 0.24970 -0.01900
C 	C 	0.64464 0.99666 0.18355 0.09100
H 	H 	0.66300 0.99970 0.19020 -0.01300
C 	C 	0.71810 0.05521 0.36991 0.08800
H 	H 	0.72610 0.04630 0.35420 -0.01100
N 	N 	0.61856 0.01815 0.22271 -0.11100
Cu	Cu	0.62669 0.58720 0.77951 0.82600
Cu	Cu	0.60004 0.52457 0.80795 0.82500
N 	N 	0.60846 0.52719 0.76647 -0.23000
N 	N 	0.62086 0.55120 0.75452 -0.21300
N 	N 	0.64342 0.57193 0.81541 -0.23100
N 	N 	0.63591 0.54486 0.82553 -0.21000
N 	N 	0.60839 0.48323 0.65799 -0.23000
N 	N 	0.63795 0.48427 0.65967 -0.21700
C 	C 	0.59820 0.49564 0.68064 0.08500
H 	H 	0.57900 0.49810 0.68480 -0.02400
N 	N 	0.62040 0.50431 0.69704 -0.11100
C 	C 	0.62679 0.54550 0.72806 0.09000
H 	H 	0.63520 0.55790 0.71510 -0.01200
N 	N 	0.73153 0.56178 0.89324 -0.22000
N 	N 	0.69046 0.56348 0.87232 -0.11100
N 	N 	0.71175 0.57428 0.91165 -0.23400
N 	N 	0.67011 0.56123 0.85141 -0.11000
C 	C 	0.65189 0.53908 0.84725 0.09300
H 	H 	0.65110 0.52260 0.85820 -0.01200
C 	C 	0.68733 0.57490 0.89864 0.09200
H 	H 	0.67050 0.58200 0.90620 -0.03100
C 	C 	0.66405 0.58128 0.83133 0.08900
H 	H 	0.67320 0.59870 0.82930 -0.01800
C 	C 	0.60769 0.50752 0.74719 0.09000
H 	H 	0.60080 0.48910 0.74970 -0.01900
C 	C 	0.64464 0.49666 0.68355 0.09100
H 	H 	0.66300 0.49970 0.69020 -0.01300
C 	C 	0.71810 0.55521 0.86991 0.08800
H 	H 	0.72610 0.54630 0.85420 -0.01100
N 	N 	0.61856 0.51815 0.72271 -0.11100
Cu	Cu	0.12669 0.08720 0.77951 0.82600
Cu	Cu	0.10004 0.02457 0.80795 0.82500
N 	N 	0.10846 0.02719 0.76647 -0.23000
N 	N 	0.12086 0.05120 0.75452 -0.21300
N 	N 	0.14342 0.07193 0.81541 -0.23100
N 	N 	0.13591 0.04486 0.82553 -0.21000
N 	N 	0.10839 0.98323 0.65799 -0.23000
N 	N 	0.13795 0.98427 0.65967 -0.21700
C 	C 	0.09820 0.99564 0.68064 0.08500
H 	H 	0.07900 0.99810 0.68480 -0.02400
N 	N 	0.12040 0.00431 0.69704 -0.11100
C 	C 	0.12679 0.04550 0.72806 0.09000
H 	H 	0.13520 0.05790 0.71510 -0.01200
N 	N 	0.23153 0.06178 0.89324 -0.22000
N 	N 	0.19046 0.06348 0.87232 -0.11100
N 	N 	0.21175 0.07428 0.91165 -0.23400
N 	N 	0.17011 0.06123 0.85141 -0.11000
C 	C 	0.15189 0.03908 0.84725 0.09300
H 	H 	0.15110 0.02260 0.85820 -0.01200
C 	C 	0.18733 0.07490 0.89864 0.09200
H 	H 	0.17050 0.08200 0.90620 -0.03100
C 	C 	0.16405 0.08128 0.83133 0.08900
H 	H 	0.17320 0.09870 0.82930 -0.01800
C 	C 	0.10769 0.00752 0.74719 0.09000
H 	H 	0.10080 0.98910 0.74970 -0.01900
C 	C 	0.14464 0.99666 0.68355 0.09100
H 	H 	0.16300 0.99970 0.69020 -0.01300
C 	C 	0.21810 0.05521 0.86991 0.08800
H 	H 	0.22610 0.04630 0.85420 -0.01100
N 	N 	0.11856 0.01815 0.72271 -0.11100
Cu	Cu	0.12669 0.58720 0.27951 0.82600
Cu	Cu	0.10004 0.52457 0.30795 0.82500
N 	N 	0.10846 0.52719 0.26647 -0.23000
N 	N 	0.12086 0.55120 0.25452 -0.21300
N 	N 	0.14342 0.57193 0.31541 -0.23100
N 	N 	0.13591 0.54486 0.32553 -0.21000
N 	N 	0.10839 0.48323 0.15799 -0.23000
N 	N 	0.13795 0.48427 0.15967 -0.21700
C 	C 	0.09820 0.49564 0.18064 0.08500
H 	H 	0.07900 0.49810 0.18480 -0.02400
N 	N 	0.12040 0.50431 0.19704 -0.11100
C 	C 	0.12679 0.54550 0.22806 0.09000
H 	H 	0.13520 0.55790 0.21510 -0.01200
N 	N 	0.23153 0.56178 0.39324 -0.22000
N 	N 	0.19046 0.56348 0.37232 -0.11100
N 	N 	0.21175 0.57428 0.41165 -0.23400
N 	N 	0.17011 0.56123 0.35141 -0.11000
C 	C 	0.15189 0.53908 0.34725 0.09300
H 	H 	0.15110 0.52260 0.35820 -0.01200
C 	C 	0.18733 0.57490 0.39864 0.09200
H 	H 	0.17050 0.58200 0.40620 -0.03100
C 	C 	0.16405 0.58128 0.33133 0.08900
H 	H 	0.17320 0.59870 0.32930 -0.01800
C 	C 	0.10769 0.50752 0.24719 0.09000
H 	H 	0.10080 0.48910 0.24970 -0.01900
C 	C 	0.14464 0.49666 0.18355 0.09100
H 	H 	0.16300 0.49970 0.19020 -0.01300
C 	C 	0.21810 0.55521 0.36991 0.08800
H 	H 	0.22610 0.54630 0.35420 -0.01100
N 	N 	0.11856 0.51815 0.22271 -0.11100
Cu	Cu	0.12331 0.16280 0.77951 0.82600
Cu	Cu	0.14996 0.22543 0.80795 0.82500
N 	N 	0.14154 0.22281 0.76647 -0.23000
N 	N 	0.12914 0.19880 0.75452 -0.21300
N 	N 	0.10658 0.17807 0.81541 -0.23100
N 	N 	0.11409 0.20514 0.82553 -0.21000
N 	N 	0.14161 0.26677 0.65799 -0.23000
N 	N 	0.11205 0.26573 0.65967 -0.21700
C 	C 	0.15180 0.25436 0.68064 0.08500
H 	H 	0.17100 0.25190 0.68480 -0.02400
N 	N 	0.12960 0.24569 0.69704 -0.11100
C 	C 	0.12321 0.20450 0.72806 0.09000
H 	H 	0.11480 0.19210 0.71510 -0.01200
N 	N 	0.01847 0.18822 0.89324 -0.22000
N 	N 	0.05954 0.18652 0.87232 -0.11100
N 	N 	0.03825 0.17572 0.91165 -0.23400
N 	N 	0.07989 0.18877 0.85141 -0.11000
C 	C 	0.09811 0.21092 0.84725 0.09300
H 	H 	0.09890 0.22740 0.85820 -0.01200
C 	C 	0.06267 0.17510 0.89864 0.09200
H 	H 	0.07950 0.16800 0.90620 -0.03100
C 	C 	0.08595 0.16872 0.83133 0.08900
H 	H 	0.07680 0.15130 0.82930 -0.01800
C 	C 	0.14231 0.24248 0.74719 0.09000
H 	H 	0.14920 0.26090 0.74970 -0.01900
C 	C 	0.10536 0.25334 0.68355 0.09100
H 	H 	0.08700 0.25030 0.69020 -0.01300
C 	C 	0.03190 0.19479 0.86991 0.08800
H 	H 	0.02390 0.20370 0.85420 -0.01100
N 	N 	0.13144 0.23185 0.72271 -0.11100
Cu	Cu	0.12331 0.66280 0.27951 0.82600
Cu	Cu	0.14996 0.72543 0.30795 0.82500
N 	N 	0.14154 0.72281 0.26647 -0.23000
N 	N 	0.12914 0.69880 0.25452 -0.21300
N 	N 	0.10658 0.67807 0.31541 -0.23100
N 	N 	0.11409 0.70514 0.32553 -0.21000
N 	N 	0.14161 0.76677 0.15799 -0.23000
N 	N 	0.11205 0.76573 0.15967 -0.21700
C 	C 	0.15180 0.75436 0.18064 0.08500
H 	H 	0.17100 0.75190 0.18480 -0.02400
N 	N 	0.12960 0.74569 0.19704 -0.11100
C 	C 	0.12321 0.70450 0.22806 0.09000
H 	H 	0.11480 0.69210 0.21510 -0.01200
N 	N 	0.01847 0.68822 0.39324 -0.22000
N 	N 	0.05954 0.68652 0.37232 -0.11100
N 	N 	0.03825 0.67572 0.41165 -0.23400
N 	N 	0.07989 0.68877 0.35141 -0.11000
C 	C 	0.09811 0.71092 0.34725 0.09300
H 	H 	0.09890 0.72740 0.35820 -0.01200
C 	C 	0.06267 0.67510 0.39864 0.09200
H 	H 	0.07950 0.66800 0.40620 -0.03100
C 	C 	0.08595 0.66872 0.33133 0.08900
H 	H 	0.07680 0.65130 0.32930 -0.01800
C 	C 	0.14231 0.74248 0.24719 0.09000
H 	H 	0.14920 0.76090 0.24970 -0.01900
C 	C 	0.10536 0.75334 0.18355 0.09100
H 	H 	0.08700 0.75030 0.19020 -0.01300
C 	C 	0.03190 0.69479 0.36991 0.08800
H 	H 	0.02390 0.70370 0.35420 -0.01100
N 	N 	0.13144 0.73185 0.22271 -0.11100
Cu	Cu	0.62331 0.16280 0.27951 0.82600
Cu	Cu	0.64996 0.22543 0.30795 0.82500
N 	N 	0.64154 0.22281 0.26647 -0.23000
N 	N 	0.62914 0.19880 0.25452 -0.21300
N 	N 	0.60658 0.17807 0.31541 -0.23100
N 	N 	0.61409 0.20514 0.32553 -0.21000
N 	N 	0.64161 0.26677 0.15799 -0.23000
N 	N 	0.61205 0.26573 0.15967 -0.21700
C 	C 	0.65180 0.25436 0.18064 0.08500
H 	H 	0.67100 0.25190 0.18480 -0.02400
N 	N 	0.62960 0.24569 0.19704 -0.11100
C 	C 	0.62321 0.20450 0.22806 0.09000
H 	H 	0.61480 0.19210 0.21510 -0.01200
N 	N 	0.51847 0.18822 0.39324 -0.22000
N 	N 	0.55954 0.18652 0.37232 -0.11100
N 	N 	0.53825 0.17572 0.41165 -0.23400
N 	N 	0.57989 0.18877 0.35141 -0.11000
C 	C 	0.59811 0.21092 0.34725 0.09300
H 	H 	0.59890 0.22740 0.35820 -0.01200
C 	C 	0.56267 0.17510 0.39864 0.09200
H 	H 	0.57950 0.16800 0.40620 -0.03100
C 	C 	0.58595 0.16872 0.33133 0.08900
H 	H 	0.57680 0.15130 0.32930 -0.01800
C 	C 	0.64231 0.24248 0.24719 0.09000
H 	H 	0.64920 0.26090 0.24970 -0.01900
C 	C 	0.60536 0.25334 0.18355 0.09100
H 	H 	0.58700 0.25030 0.19020 -0.01300
C 	C 	0.53190 0.19479 0.36991 0.08800
H 	H 	0.52390 0.20370 0.35420 -0.01100
N 	N 	0.63144 0.23185 0.22271 -0.11100
Cu	Cu	0.62331 0.66280 0.77951 0.82600
Cu	Cu	0.64996 0.72543 0.80795 0.82500
N 	N 	0.64154 0.72281 0.76647 -0.23000
N 	N 	0.62914 0.69880 0.75452 -0.21300
N 	N 	0.60658 0.67807 0.81541 -0.23100
N 	N 	0.61409 0.70514 0.82553 -0.21000
N 	N 	0.64161 0.76677 0.65799 -0.23000
N 	N 	0.61205 0.76573 0.65967 -0.21700
C 	C 	0.65180 0.75436 0.68064 0.08500
H 	H 	0.67100 0.75190 0.68480 -0.02400
N 	N 	0.62960 0.74569 0.69704 -0.11100
C 	C 	0.62321 0.70450 0.72806 0.09000
H 	H 	0.61480 0.69210 0.71510 -0.01200
N 	N 	0.51847 0.68822 0.89324 -0.22000
N 	N 	0.55954 0.68652 0.87232 -0.11100
N 	N 	0.53825 0.67572 0.91165 -0.23400
N 	N 	0.57989 0.68877 0.85141 -0.11000
C 	C 	0.59811 0.71092 0.84725 0.09300
H 	H 	0.59890 0.72740 0.85820 -0.01200
C 	C 	0.56267 0.67510 0.89864 0.09200
H 	H 	0.57950 0.66800 0.90620 -0.03100
C 	C 	0.58595 0.66872 0.83133 0.08900
H 	H 	0.57680 0.65130 0.82930 -0.01800
C 	C 	0.64231 0.74248 0.74719 0.09000
H 	H 	0.64920 0.76090 0.74970 -0.01900
C 	C 	0.60536 0.75334 0.68355 0.09100
H 	H 	0.58700 0.75030 0.69020 -0.01300
C 	C 	0.53190 0.69479 0.86991 0.08800
H 	H 	0.52390 0.70370 0.85420 -0.01100
N 	N 	0.63144 0.73185 0.72271 -0.11100
Cu	Cu	0.47050 0.62331 0.58720 0.82600
Cu	Cu	0.44205 0.64996 0.52457 0.82500
N 	N 	0.48353 0.64154 0.52719 -0.23000
N 	N 	0.49548 0.62914 0.55120 -0.21300
N 	N 	0.43459 0.60658 0.57193 -0.23100
N 	N 	0.42447 0.61409 0.54486 -0.21000
N 	N 	0.59201 0.64161 0.48323 -0.23000
N 	N 	0.59033 0.61205 0.48427 -0.21700
C 	C 	0.56936 0.65180 0.49564 0.08500
H 	H 	0.56520 0.67100 0.49810 -0.02400
N 	N 	0.55296 0.62960 0.50431 -0.11100
C 	C 	0.52194 0.62321 0.54550 0.09000
H 	H 	0.53490 0.61480 0.55790 -0.01200
N 	N 	0.35676 0.51847 0.56178 -0.22000
N 	N 	0.37768 0.55954 0.56348 -0.11100
N 	N 	0.33835 0.53825 0.57428 -0.23400
N 	N 	0.39859 0.57989 0.56123 -0.11000
C 	C 	0.40275 0.59811 0.53908 0.09300
H 	H 	0.39180 0.59890 0.52260 -0.01200
C 	C 	0.35136 0.56267 0.57490 0.09200
H 	H 	0.34380 0.57950 0.58200 -0.03100
C 	C 	0.41867 0.58595 0.58128 0.08900
H 	H 	0.42070 0.57680 0.59870 -0.01800
C 	C 	0.50281 0.64231 0.50752 0.09000
H 	H 	0.50030 0.64920 0.48910 -0.01900
C 	C 	0.56645 0.60536 0.49666 0.09100
H 	H 	0.55980 0.58700 0.49970 -0.01300
C 	C 	0.38009 0.53190 0.55521 0.08800
H 	H 	0.39580 0.52390 0.54630 -0.01100
N 	N 	0.52729 0.63144 0.51815 -0.11100
Cu	Cu	0.47050 0.12331 0.08720 0.82600
Cu	Cu	0.44205 0.14996 0.02457 0.82500
N 	N 	0.48353 0.14154 0.02719 -0.23000
N 	N 	0.49548 0.12914 0.05120 -0.21300
N 	N 	0.43459 0.10658 0.07193 -0.23100
N 	N 	0.42447 0.11409 0.04486 -0.21000
N 	N 	0.59201 0.14161 0.98323 -0.23000
N 	N 	0.59033 0.11205 0.98427 -0.21700
C 	C 	0.56936 0.15180 0.99564 0.08500
H 	H 	0.56520 0.17100 0.99810 -0.02400
N 	N 	0.55296 0.12960 0.00431 -0.11100
C 	C 	0.52194 0.12321 0.04550 0.09000
H 	H 	0.53490 0.11480 0.05790 -0.01200
N 	N 	0.35676 0.01847 0.06178 -0.22000
N 	N 	0.37768 0.05954 0.06348 -0.11100
N 	N 	0.33835 0.03825 0.07428 -0.23400
N 	N 	0.39859 0.07989 0.06123 -0.11000
C 	C 	0.40275 0.09811 0.03908 0.09300
H 	H 	0.39180 0.09890 0.02260 -0.01200
C 	C 	0.35136 0.06267 0.07490 0.09200
H 	H 	0.34380 0.07950 0.08200 -0.03100
C 	C 	0.41867 0.08595 0.08128 0.08900
H 	H 	0.42070 0.07680 0.09870 -0.01800
C 	C 	0.50281 0.14231 0.00752 0.09000
H 	H 	0.50030 0.14920 0.98910 -0.01900
C 	C 	0.56645 0.10536 0.99666 0.09100
H 	H 	0.55980 0.08700 0.99970 -0.01300
C 	C 	0.38009 0.03190 0.05521 0.08800
H 	H 	0.39580 0.02390 0.04630 -0.01100
N 	N 	0.52729 0.13144 0.01815 -0.11100
Cu	Cu	0.97050 0.62331 0.08720 0.82600
Cu	Cu	0.94205 0.64996 0.02457 0.82500
N 	N 	0.98353 0.64154 0.02719 -0.23000
N 	N 	0.99548 0.62914 0.05120 -0.21300
N 	N 	0.93459 0.60658 0.07193 -0.23100
N 	N 	0.92447 0.61409 0.04486 -0.21000
N 	N 	0.09201 0.64161 0.98323 -0.23000
N 	N 	0.09033 0.61205 0.98427 -0.21700
C 	C 	0.06936 0.65180 0.99564 0.08500
H 	H 	0.06520 0.67100 0.99810 -0.02400
N 	N 	0.05296 0.62960 0.00431 -0.11100
C 	C 	0.02194 0.62321 0.04550 0.09000
H 	H 	0.03490 0.61480 0.05790 -0.01200
N 	N 	0.85676 0.51847 0.06178 -0.22000
N 	N 	0.87768 0.55954 0.06348 -0.11100
N 	N 	0.83835 0.53825 0.07428 -0.23400
N 	N 	0.89859 0.57989 0.06123 -0.11000
C 	C 	0.90275 0.59811 0.03908 0.09300
H 	H 	0.89180 0.59890 0.02260 -0.01200
C 	C 	0.85136 0.56267 0.07490 0.09200
H 	H 	0.84380 0.57950 0.08200 -0.03100
C 	C 	0.91867 0.58595 0.08128 0.08900
H 	H 	0.92070 0.57680 0.09870 -0.01800
C 	C 	0.00281 0.64231 0.00752 0.09000
H 	H 	0.00030 0.64920 0.98910 -0.01900
C 	C 	0.06645 0.60536 0.99666 0.09100
H 	H 	0.05980 0.58700 0.99970 -0.01300
C 	C 	0.88009 0.53190 0.05521 0.08800
H 	H 	0.89580 0.52390 0.04630 -0.01100
N 	N 	0.02729 0.63144 0.01815 -0.11100
Cu	Cu	0.97050 0.12331 0.58720 0.82600
Cu	Cu	0.94205 0.14996 0.52457 0.82500
N 	N 	0.98353 0.14154 0.52719 -0.23000
N 	N 	0.99548 0.12914 0.55120 -0.21300
N 	N 	0.93459 0.10658 0.57193 -0.23100
N 	N 	0.92447 0.11409 0.54486 -0.21000
N 	N 	0.09201 0.14161 0.48323 -0.23000
N 	N 	0.09033 0.11205 0.48427 -0.21700
C 	C 	0.06936 0.15180 0.49564 0.08500
H 	H 	0.06520 0.17100 0.49810 -0.02400
N 	N 	0.05296 0.12960 0.50431 -0.11100
C 	C 	0.02194 0.12321 0.54550 0.09000
H 	H 	0.03490 0.11480 0.55790 -0.01200
N 	N 	0.85676 0.01847 0.56178 -0.22000
N 	N 	0.87768 0.05954 0.56348 -0.11100
N 	N 	0.83835 0.03825 0.57428 -0.23400
N 	N 	0.89859 0.07989 0.56123 -0.11000
C 	C 	0.90275 0.09811 0.53908 0.09300
H 	H 	0.89180 0.09890 0.52260 -0.01200
C 	C 	0.85136 0.06267 0.57490 0.09200
H 	H 	0.84380 0.07950 0.58200 -0.03100
C 	C 	0.91867 0.08595 0.58128 0.08900
H 	H 	0.92070 0.07680 0.59870 -0.01800
C 	C 	0.00281 0.14231 0.50752 0.09000
H 	H 	0.00030 0.14920 0.48910 -0.01900
C 	C 	0.06645 0.10536 0.49666 0.09100
H 	H 	0.05980 0.08700 0.49970 -0.01300
C 	C 	0.88009 0.03190 0.55521 0.08800
H 	H 	0.89580 0.02390 0.54630 -0.01100
N 	N 	0.02729 0.13144 0.51815 -0.11100
Cu	Cu	0.97050 0.12669 0.66280 0.82600
Cu	Cu	0.94205 0.10004 0.72543 0.82500
N 	N 	0.98353 0.10846 0.72281 -0.23000
N 	N 	0.99548 0.12086 0.69880 -0.21300
N 	N 	0.93459 0.14342 0.67807 -0.23100
N 	N 	0.92447 0.13591 0.70514 -0.21000
N 	N 	0.09201 0.10839 0.76677 -0.23000
N 	N 	0.09033 0.13795 0.76573 -0.21700
C 	C 	0.06936 0.09820 0.75436 0.08500
H 	H 	0.06520 0.07900 0.75190 -0.02400
N 	N 	0.05296 0.12040 0.74569 -0.11100
C 	C 	0.02194 0.12679 0.70450 0.09000
H 	H 	0.03490 0.13520 0.69210 -0.01200
N 	N 	0.85676 0.23153 0.68822 -0.22000
N 	N 	0.87768 0.19046 0.68652 -0.11100
N 	N 	0.83835 0.21175 0.67572 -0.23400
N 	N 	0.89859 0.17011 0.68877 -0.11000
C 	C 	0.90275 0.15189 0.71092 0.09300
H 	H 	0.89180 0.15110 0.72740 -0.01200
C 	C 	0.85136 0.18733 0.67510 0.09200
H 	H 	0.84380 0.17050 0.66800 -0.03100
C 	C 	0.91867 0.16405 0.66872 0.08900
H 	H 	0.92070 0.17320 0.65130 -0.01800
C 	C 	0.00281 0.10769 0.74248 0.09000
H 	H 	0.00030 0.10080 0.76090 -0.01900
C 	C 	0.06645 0.14464 0.75334 0.09100
H 	H 	0.05980 0.16300 0.75030 -0.01300
C 	C 	0.88009 0.21810 0.69479 0.08800
H 	H 	0.89580 0.22610 0.70370 -0.01100
N 	N 	0.02729 0.11856 0.73185 -0.11100
Cu	Cu	0.97050 0.62669 0.16280 0.82600
Cu	Cu	0.94205 0.60004 0.22543 0.82500
N 	N 	0.98353 0.60846 0.22281 -0.23000
N 	N 	0.99548 0.62086 0.19880 -0.21300
N 	N 	0.93459 0.64342 0.17807 -0.23100
N 	N 	0.92447 0.63591 0.20514 -0.21000
N 	N 	0.09201 0.60839 0.26677 -0.23000
N 	N 	0.09033 0.63795 0.26573 -0.21700
C 	C 	0.06936 0.59820 0.25436 0.08500
H 	H 	0.06520 0.57900 0.25190 -0.02400
N 	N 	0.05296 0.62040 0.24569 -0.11100
C 	C 	0.02194 0.62679 0.20450 0.09000
H 	H 	0.03490 0.63520 0.19210 -0.01200
N 	N 	0.85676 0.73153 0.18822 -0.22000
N 	N 	0.87768 0.69046 0.18652 -0.11100
N 	N 	0.83835 0.71175 0.17572 -0.23400
N 	N 	0.89859 0.67011 0.18877 -0.11000
C 	C 	0.90275 0.65189 0.21092 0.09300
H 	H 	0.89180 0.65110 0.22740 -0.01200
C 	C 	0.85136 0.68733 0.17510 0.09200
H 	H 	0.84380 0.67050 0.16800 -0.03100
C 	C 	0.91867 0.66405 0.16872 0.08900
H 	H 	0.92070 0.67320 0.15130 -0.01800
C 	C 	0.00281 0.60769 0.24248 0.09000
H 	H 	0.00030 0.60080 0.26090 -0.01900
C 	C 	0.06645 0.64464 0.25334 0.09100
H 	H 	0.05980 0.66300 0.25030 -0.01300
C 	C 	0.88009 0.71810 0.19479 0.08800
H 	H 	0.89580 0.72610 0.20370 -0.01100
N 	N 	0.02729 0.61856 0.23185 -0.11100
Cu	Cu	0.47050 0.12669 0.16280 0.82600
Cu	Cu	0.44205 0.10004 0.22543 0.82500
N 	N 	0.48353 0.10846 0.22281 -0.23000
N 	N 	0.49548 0.12086 0.19880 -0.21300
N 	N 	0.43459 0.14342 0.17807 -0.23100
N 	N 	0.42447 0.13591 0.20514 -0.21000
N 	N 	0.59201 0.10839 0.26677 -0.23000
N 	N 	0.59033 0.13795 0.26573 -0.21700
C 	C 	0.56936 0.09820 0.25436 0.08500
H 	H 	0.56520 0.07900 0.25190 -0.02400
N 	N 	0.55296 0.12040 0.24569 -0.11100
C 	C 	0.52194 0.12679 0.20450 0.09000
H 	H 	0.53490 0.13520 0.19210 -0.01200
N 	N 	0.35676 0.23153 0.18822 -0.22000
N 	N 	0.37768 0.19046 0.18652 -0.11100
N 	N 	0.33835 0.21175 0.17572 -0.23400
N 	N 	0.39859 0.17011 0.18877 -0.11000
C 	C 	0.40275 0.15189 0.21092 0.09300
H 	H 	0.39180 0.15110 0.22740 -0.01200
C 	C 	0.35136 0.18733 0.17510 0.09200
H 	H 	0.34380 0.17050 0.16800 -0.03100
C 	C 	0.41867 0.16405 0.16872 0.08900
H 	H 	0.42070 0.17320 0.15130 -0.01800
C 	C 	0.50281 0.10769 0.24248 0.09000
H 	H 	0.50030 0.10080 0.26090 -0.01900
C 	C 	0.56645 0.14464 0.25334 0.09100
H 	H 	0.55980 0.16300 0.25030 -0.01300
C 	C 	0.38009 0.21810 0.19479 0.08800
H 	H 	0.39580 0.22610 0.20370 -0.01100
N 	N 	0.52729 0.11856 0.23185 -0.11100
Cu	Cu	0.47050 0.62669 0.66280 0.82600
Cu	Cu	0.44205 0.60004 0.72543 0.82500
N 	N 	0.48353 0.60846 0.72281 -0.23000
N 	N 	0.49548 0.62086 0.69880 -0.21300
N 	N 	0.43459 0.64342 0.67807 -0.23100
N 	N 	0.42447 0.63591 0.70514 -0.21000
N 	N 	0.59201 0.60839 0.76677 -0.23000
N 	N 	0.59033 0.63795 0.76573 -0.21700
C 	C 	0.56936 0.59820 0.75436 0.08500
H 	H 	0.56520 0.57900 0.75190 -0.02400
N 	N 	0.55296 0.62040 0.74569 -0.11100
C 	C 	0.52194 0.62679 0.70450 0.09000
H 	H 	0.53490 0.63520 0.69210 -0.01200
N 	N 	0.35676 0.73153 0.68822 -0.22000
N 	N 	0.37768 0.69046 0.68652 -0.11100
N 	N 	0.33835 0.71175 0.67572 -0.23400
N 	N 	0.39859 0.67011 0.68877 -0.11000
C 	C 	0.40275 0.65189 0.71092 0.09300
H 	H 	0.39180 0.65110 0.72740 -0.01200
C 	C 	0.35136 0.68733 0.67510 0.09200
H 	H 	0.34380 0.67050 0.66800 -0.03100
C 	C 	0.41867 0.66405 0.66872 0.08900
H 	H 	0.42070 0.67320 0.65130 -0.01800
C 	C 	0.50281 0.60769 0.74248 0.09000
H 	H 	0.50030 0.60080 0.76090 -0.01900
C 	C 	0.56645 0.64464 0.75334 0.09100
H 	H 	0.55980 0.66300 0.75030 -0.01300
C 	C 	0.38009 0.71810 0.69479 0.08800
H 	H 	0.39580 0.72610 0.70370 -0.01100
N 	N 	0.52729 0.61856 0.73185 -0.11100
Cu	Cu	0.27951 0.62669 0.08720 0.82600
Cu	Cu	0.30795 0.60004 0.02457 0.82500
N 	N 	0.26647 0.60846 0.02719 -0.23000
N 	N 	0.25452 0.62086 0.05120 -0.21300
N 	N 	0.31541 0.64342 0.07193 -0.23100
N 	N 	0.32553 0.63591 0.04486 -0.21000
N 	N 	0.15799 0.60839 0.98323 -0.23000
N 	N 	0.15967 0.63795 0.98427 -0.21700
C 	C 	0.18064 0.59820 0.99564 0.08500
H 	H 	0.18480 0.57900 0.99810 -0.02400
N 	N 	0.19704 0.62040 0.00431 -0.11100
C 	C 	0.22806 0.62679 0.04550 0.09000
H 	H 	0.21510 0.63520 0.05790 -0.01200
N 	N 	0.39324 0.73153 0.06178 -0.22000
N 	N 	0.37232 0.69046 0.06348 -0.11100
N 	N 	0.41165 0.71175 0.07428 -0.23400
N 	N 	0.35141 0.67011 0.06123 -0.11000
C 	C 	0.34725 0.65189 0.03908 0.09300
H 	H 	0.35820 0.65110 0.02260 -0.01200
C 	C 	0.39864 0.68733 0.07490 0.09200
H 	H 	0.40620 0.67050 0.08200 -0.03100
C 	C 	0.33133 0.66405 0.08128 0.08900
H 	H 	0.32930 0.67320 0.09870 -0.01800
C 	C 	0.24719 0.60769 0.00752 0.09000
H 	H 	0.24970 0.60080 0.98910 -0.01900
C 	C 	0.18355 0.64464 0.99666 0.09100
H 	H 	0.19020 0.66300 0.99970 -0.01300
C 	C 	0.36991 0.71810 0.05521 0.08800
H 	H 	0.35420 0.72610 0.04630 -0.01100
N 	N 	0.22271 0.61856 0.01815 -0.11100
Cu	Cu	0.27951 0.12669 0.58720 0.82600
Cu	Cu	0.30795 0.10004 0.52457 0.82500
N 	N 	0.26647 0.10846 0.52719 -0.23000
N 	N 	0.25452 0.12086 0.55120 -0.21300
N 	N 	0.31541 0.14342 0.57193 -0.23100
N 	N 	0.32553 0.13591 0.54486 -0.21000
N 	N 	0.15799 0.10839 0.48323 -0.23000
N 	N 	0.15967 0.13795 0.48427 -0.21700
C 	C 	0.18064 0.09820 0.49564 0.08500
H 	H 	0.18480 0.07900 0.49810 -0.02400
N 	N 	0.19704 0.12040 0.50431 -0.11100
C 	C 	0.22806 0.12679 0.54550 0.09000
H 	H 	0.21510 0.13520 0.55790 -0.01200
N 	N 	0.39324 0.23153 0.56178 -0.22000
N 	N 	0.37232 0.19046 0.56348 -0.11100
N 	N 	0.41165 0.21175 0.57428 -0.23400
N 	N 	0.35141 0.17011 0.56123 -0.11000
C 	C 	0.34725 0.15189 0.53908 0.09300
H 	H 	0.35820 0.15110 0.52260 -0.01200
C 	C 	0.39864 0.18733 0.57490 0.09200
H 	H 	0.40620 0.17050 0.58200 -0.03100
C 	C 	0.33133 0.16405 0.58128 0.08900
H 	H 	0.32930 0.17320 0.59870 -0.01800
C 	C 	0.24719 0.10769 0.50752 0.09000
H 	H 	0.24970 0.10080 0.48910 -0.01900
C 	C 	0.18355 0.14464 0.49666 0.09100
H 	H 	0.19020 0.16300 0.49970 -0.01300
C 	C 	0.36991 0.21810 0.55521 0.08800
H 	H 	0.35420 0.22610 0.54630 -0.01100
N 	N 	0.22271 0.11856 0.51815 -0.11100
Cu	Cu	0.77951 0.62669 0.58720 0.82600
Cu	Cu	0.80795 0.60004 0.52457 0.82500
N 	N 	0.76647 0.60846 0.52719 -0.23000
N 	N 	0.75452 0.62086 0.55120 -0.21300
N 	N 	0.81541 0.64342 0.57193 -0.23100
N 	N 	0.82553 0.63591 0.54486 -0.21000
N 	N 	0.65799 0.60839 0.48323 -0.23000
N 	N 	0.65967 0.63795 0.48427 -0.21700
C 	C 	0.68064 0.59820 0.49564 0.08500
H 	H 	0.68480 0.57900 0.49810 -0.02400
N 	N 	0.69704 0.62040 0.50431 -0.11100
C 	C 	0.72806 0.62679 0.54550 0.09000
H 	H 	0.71510 0.63520 0.55790 -0.01200
N 	N 	0.89324 0.73153 0.56178 -0.22000
N 	N 	0.87232 0.69046 0.56348 -0.11100
N 	N 	0.91165 0.71175 0.57428 -0.23400
N 	N 	0.85141 0.67011 0.56123 -0.11000
C 	C 	0.84725 0.65189 0.53908 0.09300
H 	H 	0.85820 0.65110 0.52260 -0.01200
C 	C 	0.89864 0.68733 0.57490 0.09200
H 	H 	0.90620 0.67050 0.58200 -0.03100
C 	C 	0.83133 0.66405 0.58128 0.08900
H 	H 	0.82930 0.67320 0.59870 -0.01800
C 	C 	0.74719 0.60769 0.50752 0.09000
H 	H 	0.74970 0.60080 0.48910 -0.01900
C 	C 	0.68355 0.64464 0.49666 0.09100
H 	H 	0.69020 0.66300 0.49970 -0.01300
C 	C 	0.86991 0.71810 0.55521 0.08800
H 	H 	0.85420 0.72610 0.54630 -0.01100
N 	N 	0.72271 0.61856 0.51815 -0.11100
Cu	Cu	0.77951 0.12669 0.08720 0.82600
Cu	Cu	0.80795 0.10004 0.02457 0.82500
N 	N 	0.76647 0.10846 0.02719 -0.23000
N 	N 	0.75452 0.12086 0.05120 -0.21300
N 	N 	0.81541 0.14342 0.07193 -0.23100
N 	N 	0.82553 0.13591 0.04486 -0.21000
N 	N 	0.65799 0.10839 0.98323 -0.23000
N 	N 	0.65967 0.13795 0.98427 -0.21700
C 	C 	0.68064 0.09820 0.99564 0.08500
H 	H 	0.68480 0.07900 0.99810 -0.02400
N 	N 	0.69704 0.12040 0.00431 -0.11100
C 	C 	0.72806 0.12679 0.04550 0.09000
H 	H 	0.71510 0.13520 0.05790 -0.01200
N 	N 	0.89324 0.23153 0.06178 -0.22000
N 	N 	0.87232 0.19046 0.06348 -0.11100
N 	N 	0.91165 0.21175 0.07428 -0.23400
N 	N 	0.85141 0.17011 0.06123 -0.11000
C 	C 	0.84725 0.15189 0.03908 0.09300
H 	H 	0.85820 0.15110 0.02260 -0.01200
C 	C 	0.89864 0.18733 0.07490 0.09200
H 	H 	0.90620 0.17050 0.08200 -0.03100
C 	C 	0.83133 0.16405 0.08128 0.08900
H 	H 	0.82930 0.17320 0.09870 -0.01800
C 	C 	0.74719 0.10769 0.00752 0.09000
H 	H 	0.74970 0.10080 0.98910 -0.01900
C 	C 	0.68355 0.14464 0.99666 0.09100
H 	H 	0.69020 0.16300 0.99970 -0.01300
C 	C 	0.86991 0.21810 0.05521 0.08800
H 	H 	0.85420 0.22610 0.04630 -0.01100
N 	N 	0.72271 0.11856 0.01815 -0.11100
Cu	Cu	0.77951 0.12331 0.16280 0.82600
Cu	Cu	0.80795 0.14996 0.22543 0.82500
N 	N 	0.76647 0.14154 0.22281 -0.23000
N 	N 	0.75452 0.12914 0.19880 -0.21300
N 	N 	0.81541 0.10658 0.17807 -0.23100
N 	N 	0.82553 0.11409 0.20514 -0.21000
N 	N 	0.65799 0.14161 0.26677 -0.23000
N 	N 	0.65967 0.11205 0.26573 -0.21700
C 	C 	0.68064 0.15180 0.25436 0.08500
H 	H 	0.68480 0.17100 0.25190 -0.02400
N 	N 	0.69704 0.12960 0.24569 -0.11100
C 	C 	0.72806 0.12321 0.20450 0.09000
H 	H 	0.71510 0.11480 0.19210 -0.01200
N 	N 	0.89324 0.01847 0.18822 -0.22000
N 	N 	0.87232 0.05954 0.18652 -0.11100
N 	N 	0.91165 0.03825 0.17572 -0.23400
N 	N 	0.85141 0.07989 0.18877 -0.11000
C 	C 	0.84725 0.09811 0.21092 0.09300
H 	H 	0.85820 0.09890 0.22740 -0.01200
C 	C 	0.89864 0.06267 0.17510 0.09200
H 	H 	0.90620 0.07950 0.16800 -0.03100
C 	C 	0.83133 0.08595 0.16872 0.08900
H 	H 	0.82930 0.07680 0.15130 -0.01800
C 	C 	0.74719 0.14231 0.24248 0.09000
H 	H 	0.74970 0.14920 0.26090 -0.01900
C 	C 	0.68355 0.10536 0.25334 0.09100
H 	H 	0.69020 0.08700 0.25030 -0.01300
C 	C 	0.86991 0.03190 0.19479 0.08800
H 	H 	0.85420 0.02390 0.20370 -0.01100
N 	N 	0.72271 0.13144 0.23185 -0.11100
Cu	Cu	0.77951 0.62331 0.66280 0.82600
Cu	Cu	0.80795 0.64996 0.72543 0.82500
N 	N 	0.76647 0.64154 0.72281 -0.23000
N 	N 	0.75452 0.62914 0.69880 -0.21300
N 	N 	0.81541 0.60658 0.67807 -0.23100
N 	N 	0.82553 0.61409 0.70514 -0.21000
N 	N 	0.65799 0.64161 0.76677 -0.23000
N 	N 	0.65967 0.61205 0.76573 -0.21700
C 	C 	0.68064 0.65180 0.75436 0.08500
H 	H 	0.68480 0.67100 0.75190 -0.02400
N 	N 	0.69704 0.62960 0.74569 -0.11100
C 	C 	0.72806 0.62321 0.70450 0.09000
H 	H 	0.71510 0.61480 0.69210 -0.01200
N 	N 	0.89324 0.51847 0.68822 -0.22000
N 	N 	0.87232 0.55954 0.68652 -0.11100
N 	N 	0.91165 0.53825 0.67572 -0.23400
N 	N 	0.85141 0.57989 0.68877 -0.11000
C 	C 	0.84725 0.59811 0.71092 0.09300
H 	H 	0.85820 0.59890 0.72740 -0.01200
C 	C 	0.89864 0.56267 0.67510 0.09200
H 	H 	0.90620 0.57950 0.66800 -0.03100
C 	C 	0.83133 0.58595 0.66872 0.08900
H 	H 	0.82930 0.57680 0.65130 -0.01800
C 	C 	0.74719 0.64231 0.74248 0.09000
H 	H 	0.74970 0.64920 0.76090 -0.01900
C 	C 	0.68355 0.60536 0.75334 0.09100
H 	H 	0.69020 0.58700 0.75030 -0.01300
C 	C 	0.86991 0.53190 0.69479 0.08800
H 	H 	0.85420 0.52390 0.70370 -0.01100
N 	N 	0.72271 0.63144 0.73185 -0.11100
Cu	Cu	0.27951 0.12331 0.66280 0.82600
Cu	Cu	0.30795 0.14996 0.72543 0.82500
N 	N 	0.26647 0.14154 0.72281 -0.23000
N 	N 	0.25452 0.12914 0.69880 -0.21300
N 	N 	0.31541 0.10658 0.67807 -0.23100
N 	N 	0.32553 0.11409 0.70514 -0.21000
N 	N 	0.15799 0.14161 0.76677 -0.23000
N 	N 	0.15967 0.11205 0.76573 -0.21700
C 	C 	0.18064 0.15180 0.75436 0.08500
H 	H 	0.18480 0.17100 0.75190 -0.02400
N 	N 	0.19704 0.12960 0.74569 -0.11100
C 	C 	0.22806 0.12321 0.70450 0.09000
H 	H 	0.21510 0.11480 0.69210 -0.01200
N 	N 	0.39324 0.01847 0.68822 -0.22000
N 	N 	0.37232 0.05954 0.68652 -0.11100
N 	N 	0.41165 0.03825 0.67572 -0.23400
N 	N 	0.35141 0.07989 0.68877 -0.11000
C 	C 	0.34725 0.09811 0.71092 0.09300
H 	H 	0.35820 0.09890 0.72740 -0.01200
C 	C 	0.39864 0.06267 0.67510 0.09200
H 	H 	0.40620 0.07950 0.66800 -0.03100
C 	C 	0.33133 0.08595 0.66872 0.08900
H 	H 	0.32930 0.07680 0.65130 -0.01800
C 	C 	0.24719 0.14231 0.74248 0.09000
H 	H 	0.24970 0.14920 0.76090 -0.01900
C 	C 	0.18355 0.10536 0.75334 0.09100
H 	H 	0.19020 0.08700 0.75030 -0.01300
C 	C 	0.36991 0.03190 0.69479 0.08800
H 	H 	0.35420 0.02390 0.70370 -0.01100
N 	N 	0.22271 0.13144 0.73185 -0.11100
Cu	Cu	0.27951 0.62331 0.16280 0.82600
Cu	Cu	0.30795 0.64996 0.22543 0.82500
N 	N 	0.26647 0.64154 0.22281 -0.23000
N 	N 	0.25452 0.62914 0.19880 -0.21300
N 	N 	0.31541 0.60658 0.17807 -0.23100
N 	N 	0.32553 0.61409 0.20514 -0.21000
N 	N 	0.15799 0.64161 0.26677 -0.23000
N 	N 	0.15967 0.61205 0.26573 -0.21700
C 	C 	0.18064 0.65180 0.25436 0.08500
H 	H 	0.18480 0.67100 0.25190 -0.02400
N 	N 	0.19704 0.62960 0.24569 -0.11100
C 	C 	0.22806 0.62321 0.20450 0.09000
H 	H 	0.21510 0.61480 0.19210 -0.01200
N 	N 	0.39324 0.51847 0.18822 -0.22000
N 	N 	0.37232 0.55954 0.18652 -0.11100
N 	N 	0.41165 0.53825 0.17572 -0.23400
N 	N 	0.35141 0.57989 0.18877 -0.11000
C 	C 	0.34725 0.59811 0.21092 0.09300
H 	H 	0.35820 0.59890 0.22740 -0.01200
C 	C 	0.39864 0.56267 0.17510 0.09200
H 	H 	0.40620 0.57950 0.16800 -0.03100
C 	C 	0.33133 0.58595 0.16872 0.08900
H 	H 	0.32930 0.57680 0.15130 -0.01800
C 	C 	0.24719 0.64231 0.24248 0.09000
H 	H 	0.24970 0.64920 0.26090 -0.01900
C 	C 	0.18355 0.60536 0.25334 0.09100
H 	H 	0.19020 0.58700 0.25030 -0.01300
C 	C 	0.36991 0.53190 0.19479 0.08800
H 	H 	0.35420 0.52390 0.20370 -0.01100
N 	N 	0.22271 0.63144 0.23185 -0.11100
Cu	Cu	0.58720 0.47050 0.62331 0.82600
Cu	Cu	0.52457 0.44205 0.64996 0.82500
N 	N 	0.52719 0.48353 0.64154 -0.23000
N 	N 	0.55120 0.49548 0.62914 -0.21300
N 	N 	0.57193 0.43459 0.60658 -0.23100
N 	N 	0.54486 0.42447 0.61409 -0.21000
N 	N 	0.48323 0.59201 0.64161 -0.23000
N 	N 	0.48427 0.59033 0.61205 -0.21700
C 	C 	0.49564 0.56936 0.65180 0.08500
H 	H 	0.49810 0.56520 0.67100 -0.02400
N 	N 	0.50431 0.55296 0.62960 -0.11100
C 	C 	0.54550 0.52194 0.62321 0.09000
H 	H 	0.55790 0.53490 0.61480 -0.01200
N 	N 	0.56178 0.35676 0.51847 -0.22000
N 	N 	0.56348 0.37768 0.55954 -0.11100
N 	N 	0.57428 0.33835 0.53825 -0.23400
N 	N 	0.56123 0.39859 0.57989 -0.11000
C 	C 	0.53908 0.40275 0.59811 0.09300
H 	H 	0.52260 0.39180 0.59890 -0.01200
C 	C 	0.57490 0.35136 0.56267 0.09200
H 	H 	0.58200 0.34380 0.57950 -0.03100
C 	C 	0.58128 0.41867 0.58595 0.08900
H 	H 	0.59870 0.42070 0.57680 -0.01800
C 	C 	0.50752 0.50281 0.64231 0.09000
H 	H 	0.48910 0.50030 0.64920 -0.01900
C 	C 	0.49666 0.56645 0.60536 0.09100
H 	H 	0.49970 0.55980 0.58700 -0.01300
C 	C 	0.55521 0.38009 0.53190 0.08800
H 	H 	0.54630 0.39580 0.52390 -0.01100
N 	N 	0.51815 0.52729 0.63144 -0.11100
Cu	Cu	0.58720 0.97050 0.12331 0.82600
Cu	Cu	0.52457 0.94205 0.14996 0.82500
N 	N 	0.52719 0.98353 0.14154 -0.23000
N 	N 	0.55120 0.99548 0.12914 -0.21300
N 	N 	0.57193 0.93459 0.10658 -0.23100
N 	N 	0.54486 0.92447 0.11409 -0.21000
N 	N 	0.48323 0.09201 0.14161 -0.23000
N 	N 	0.48427 0.09033 0.11205 -0.21700
C 	C 	0.49564 0.06936 0.15180 0.08500
H 	H 	0.49810 0.06520 0.17100 -0.02400
N 	N 	0.50431 0.05296 0.12960 -0.11100
C 	C 	0.54550 0.02194 0.12321 0.09000
H 	H 	0.55790 0.03490 0.11480 -0.01200
N 	N 	0.56178 0.85676 0.01847 -0.22000
N 	N 	0.56348 0.87768 0.05954 -0.11100
N 	N 	0.57428 0.83835 0.03825 -0.23400
N 	N 	0.56123 0.89859 0.07989 -0.11000
C 	C 	0.53908 0.90275 0.09811 0.09300
H 	H 	0.52260 0.89180 0.09890 -0.01200
C 	C 	0.57490 0.85136 0.06267 0.09200
H 	H 	0.58200 0.84380 0.07950 -0.03100
C 	C 	0.58128 0.91867 0.08595 0.08900
H 	H 	0.59870 0.92070 0.07680 -0.01800
C 	C 	0.50752 0.00281 0.14231 0.09000
H 	H 	0.48910 0.00030 0.14920 -0.01900
C 	C 	0.49666 0.06645 0.10536 0.09100
H 	H 	0.49970 0.05980 0.08700 -0.01300
C 	C 	0.55521 0.88009 0.03190 0.08800
H 	H 	0.54630 0.89580 0.02390 -0.01100
N 	N 	0.51815 0.02729 0.13144 -0.11100
Cu	Cu	0.08720 0.47050 0.12331 0.82600
Cu	Cu	0.02457 0.44205 0.14996 0.82500
N 	N 	0.02719 0.48353 0.14154 -0.23000
N 	N 	0.05120 0.49548 0.12914 -0.21300
N 	N 	0.07193 0.43459 0.10658 -0.23100
N 	N 	0.04486 0.42447 0.11409 -0.21000
N 	N 	0.98323 0.59201 0.14161 -0.23000
N 	N 	0.98427 0.59033 0.11205 -0.21700
C 	C 	0.99564 0.56936 0.15180 0.08500
H 	H 	0.99810 0.56520 0.17100 -0.02400
N 	N 	0.00431 0.55296 0.12960 -0.11100
C 	C 	0.04550 0.52194 0.12321 0.09000
H 	H 	0.05790 0.53490 0.11480 -0.01200
N 	N 	0.06178 0.35676 0.01847 -0.22000
N 	N 	0.06348 0.37768 0.05954 -0.11100
N 	N 	0.07428 0.33835 0.03825 -0.23400
N 	N 	0.06123 0.39859 0.07989 -0.11000
C 	C 	0.03908 0.40275 0.09811 0.09300
H 	H 	0.02260 0.39180 0.09890 -0.01200
C 	C 	0.07490 0.35136 0.06267 0.09200
H 	H 	0.08200 0.34380 0.07950 -0.03100
C 	C 	0.08128 0.41867 0.08595 0.08900
H 	H 	0.09870 0.42070 0.07680 -0.01800
C 	C 	0.00752 0.50281 0.14231 0.09000
H 	H 	0.98910 0.50030 0.14920 -0.01900
C 	C 	0.99666 0.56645 0.10536 0.09100
H 	H 	0.99970 0.55980 0.08700 -0.01300
C 	C 	0.05521 0.38009 0.03190 0.08800
H 	H 	0.04630 0.39580 0.02390 -0.01100
N 	N 	0.01815 0.52729 0.13144 -0.11100
Cu	Cu	0.08720 0.97050 0.62331 0.82600
Cu	Cu	0.02457 0.94205 0.64996 0.82500
N 	N 	0.02719 0.98353 0.64154 -0.23000
N 	N 	0.05120 0.99548 0.62914 -0.21300
N 	N 	0.07193 0.93459 0.60658 -0.23100
N 	N 	0.04486 0.92447 0.61409 -0.21000
N 	N 	0.98323 0.09201 0.64161 -0.23000
N 	N 	0.98427 0.09033 0.61205 -0.21700
C 	C 	0.99564 0.06936 0.65180 0.08500
H 	H 	0.99810 0.06520 0.67100 -0.02400
N 	N 	0.00431 0.05296 0.62960 -0.11100
C 	C 	0.04550 0.02194 0.62321 0.09000
H 	H 	0.05790 0.03490 0.61480 -0.01200
N 	N 	0.06178 0.85676 0.51847 -0.22000
N 	N 	0.06348 0.87768 0.55954 -0.11100
N 	N 	0.07428 0.83835 0.53825 -0.23400
N 	N 	0.06123 0.89859 0.57989 -0.11000
C 	C 	0.03908 0.90275 0.59811 0.09300
H 	H 	0.02260 0.89180 0.59890 -0.01200
C 	C 	0.07490 0.85136 0.56267 0.09200
H 	H 	0.08200 0.84380 0.57950 -0.03100
C 	C 	0.08128 0.91867 0.58595 0.08900
H 	H 	0.09870 0.92070 0.57680 -0.01800
C 	C 	0.00752 0.00281 0.64231 0.09000
H 	H 	0.98910 0.00030 0.64920 -0.01900
C 	C 	0.99666 0.06645 0.60536 0.09100
H 	H 	0.99970 0.05980 0.58700 -0.01300
C 	C 	0.05521 0.88009 0.53190 0.08800
H 	H 	0.04630 0.89580 0.52390 -0.01100
N 	N 	0.01815 0.02729 0.63144 -0.11100
Cu	Cu	0.66280 0.97050 0.12669 0.82600
Cu	Cu	0.72543 0.94205 0.10004 0.82500
N 	N 	0.72281 0.98353 0.10846 -0.23000
N 	N 	0.69880 0.99548 0.12086 -0.21300
N 	N 	0.67807 0.93459 0.14342 -0.23100
N 	N 	0.70514 0.92447 0.13591 -0.21000
N 	N 	0.76677 0.09201 0.10839 -0.23000
N 	N 	0.76573 0.09033 0.13795 -0.21700
C 	C 	0.75436 0.06936 0.09820 0.08500
H 	H 	0.75190 0.06520 0.07900 -0.02400
N 	N 	0.74569 0.05296 0.12040 -0.11100
C 	C 	0.70450 0.02194 0.12679 0.09000
H 	H 	0.69210 0.03490 0.13520 -0.01200
N 	N 	0.68822 0.85676 0.23153 -0.22000
N 	N 	0.68652 0.87768 0.19046 -0.11100
N 	N 	0.67572 0.83835 0.21175 -0.23400
N 	N 	0.68877 0.89859 0.17011 -0.11000
C 	C 	0.71092 0.90275 0.15189 0.09300
H 	H 	0.72740 0.89180 0.15110 -0.01200
C 	C 	0.67510 0.85136 0.18733 0.09200
H 	H 	0.66800 0.84380 0.17050 -0.03100
C 	C 	0.66872 0.91867 0.16405 0.08900
H 	H 	0.65130 0.92070 0.17320 -0.01800
C 	C 	0.74248 0.00281 0.10769 0.09000
H 	H 	0.76090 0.00030 0.10080 -0.01900
C 	C 	0.75334 0.06645 0.14464 0.09100
H 	H 	0.75030 0.05980 0.16300 -0.01300
C 	C 	0.69479 0.88009 0.21810 0.08800
H 	H 	0.70370 0.89580 0.22610 -0.01100
N 	N 	0.73185 0.02729 0.11856 -0.11100
Cu	Cu	0.66280 0.47050 0.62669 0.82600
Cu	Cu	0.72543 0.44205 0.60004 0.82500
N 	N 	0.72281 0.48353 0.60846 -0.23000
N 	N 	0.69880 0.49548 0.62086 -0.21300
N 	N 	0.67807 0.43459 0.64342 -0.23100
N 	N 	0.70514 0.42447 0.63591 -0.21000
N 	N 	0.76677 0.59201 0.60839 -0.23000
N 	N 	0.76573 0.59033 0.63795 -0.21700
C 	C 	0.75436 0.56936 0.59820 0.08500
H 	H 	0.75190 0.56520 0.57900 -0.02400
N 	N 	0.74569 0.55296 0.62040 -0.11100
C 	C 	0.70450 0.52194 0.62679 0.09000
H 	H 	0.69210 0.53490 0.63520 -0.01200
N 	N 	0.68822 0.35676 0.73153 -0.22000
N 	N 	0.68652 0.37768 0.69046 -0.11100
N 	N 	0.67572 0.33835 0.71175 -0.23400
N 	N 	0.68877 0.39859 0.67011 -0.11000
C 	C 	0.71092 0.40275 0.65189 0.09300
H 	H 	0.72740 0.39180 0.65110 -0.01200
C 	C 	0.67510 0.35136 0.68733 0.09200
H 	H 	0.66800 0.34380 0.67050 -0.03100
C 	C 	0.66872 0.41867 0.66405 0.08900
H 	H 	0.65130 0.42070 0.67320 -0.01800
C 	C 	0.74248 0.50281 0.60769 0.09000
H 	H 	0.76090 0.50030 0.60080 -0.01900
C 	C 	0.75334 0.56645 0.64464 0.09100
H 	H 	0.75030 0.55980 0.66300 -0.01300
C 	C 	0.69479 0.38009 0.71810 0.08800
H 	H 	0.70370 0.39580 0.72610 -0.01100
N 	N 	0.73185 0.52729 0.61856 -0.11100
Cu	Cu	0.16280 0.97050 0.62669 0.82600
Cu	Cu	0.22543 0.94205 0.60004 0.82500
N 	N 	0.22281 0.98353 0.60846 -0.23000
N 	N 	0.19880 0.99548 0.62086 -0.21300
N 	N 	0.17807 0.93459 0.64342 -0.23100
N 	N 	0.20514 0.92447 0.63591 -0.21000
N 	N 	0.26677 0.09201 0.60839 -0.23000
N 	N 	0.26573 0.09033 0.63795 -0.21700
C 	C 	0.25436 0.06936 0.59820 0.08500
H 	H 	0.25190 0.06520 0.57900 -0.02400
N 	N 	0.24569 0.05296 0.62040 -0.11100
C 	C 	0.20450 0.02194 0.62679 0.09000
H 	H 	0.19210 0.03490 0.63520 -0.01200
N 	N 	0.18822 0.85676 0.73153 -0.22000
N 	N 	0.18652 0.87768 0.69046 -0.11100
N 	N 	0.17572 0.83835 0.71175 -0.23400
N 	N 	0.18877 0.89859 0.67011 -0.11000
C 	C 	0.21092 0.90275 0.65189 0.09300
H 	H 	0.22740 0.89180 0.65110 -0.01200
C 	C 	0.17510 0.85136 0.68733 0.09200
H 	H 	0.16800 0.84380 0.67050 -0.03100
C 	C 	0.16872 0.91867 0.66405 0.08900
H 	H 	0.15130 0.92070 0.67320 -0.01800
C 	C 	0.24248 0.00281 0.60769 0.09000
H 	H 	0.26090 0.00030 0.60080 -0.01900
C 	C 	0.25334 0.06645 0.64464 0.09100
H 	H 	0.25030 0.05980 0.66300 -0.01300
C 	C 	0.19479 0.88009 0.71810 0.08800
H 	H 	0.20370 0.89580 0.72610 -0.01100
N 	N 	0.23185 0.02729 0.61856 -0.11100
Cu	Cu	0.16280 0.47050 0.12669 0.82600
Cu	Cu	0.22543 0.44205 0.10004 0.82500
N 	N 	0.22281 0.48353 0.10846 -0.23000
N 	N 	0.19880 0.49548 0.12086 -0.21300
N 	N 	0.17807 0.43459 0.14342 -0.23100
N 	N 	0.20514 0.42447 0.13591 -0.21000
N 	N 	0.26677 0.59201 0.10839 -0.23000
N 	N 	0.26573 0.59033 0.13795 -0.21700
C 	C 	0.25436 0.56936 0.09820 0.08500
H 	H 	0.25190 0.56520 0.07900 -0.02400
N 	N 	0.24569 0.55296 0.12040 -0.11100
C 	C 	0.20450 0.52194 0.12679 0.09000
H 	H 	0.19210 0.53490 0.13520 -0.01200
N 	N 	0.18822 0.35676 0.23153 -0.22000
N 	N 	0.18652 0.37768 0.19046 -0.11100
N 	N 	0.17572 0.33835 0.21175 -0.23400
N 	N 	0.18877 0.39859 0.17011 -0.11000
C 	C 	0.21092 0.40275 0.15189 0.09300
H 	H 	0.22740 0.39180 0.15110 -0.01200
C 	C 	0.17510 0.35136 0.18733 0.09200
H 	H 	0.16800 0.34380 0.17050 -0.03100
C 	C 	0.16872 0.41867 0.16405 0.08900
H 	H 	0.15130 0.42070 0.17320 -0.01800
C 	C 	0.24248 0.50281 0.10769 0.09000
H 	H 	0.26090 0.50030 0.10080 -0.01900
C 	C 	0.25334 0.56645 0.14464 0.09100
H 	H 	0.25030 0.55980 0.16300 -0.01300
C 	C 	0.19479 0.38009 0.21810 0.08800
H 	H 	0.20370 0.39580 0.22610 -0.01100
N 	N 	0.23185 0.52729 0.11856 -0.11100
Cu	Cu	0.08720 0.27951 0.62669 0.82600
Cu	Cu	0.02457 0.30795 0.60004 0.82500
N 	N 	0.02719 0.26647 0.60846 -0.23000
N 	N 	0.05120 0.25452 0.62086 -0.21300
N 	N 	0.07193 0.31541 0.64342 -0.23100
N 	N 	0.04486 0.32553 0.63591 -0.21000
N 	N 	0.98323 0.15799 0.60839 -0.23000
N 	N 	0.98427 0.15967 0.63795 -0.21700
C 	C 	0.99564 0.18064 0.59820 0.08500
H 	H 	0.99810 0.18480 0.57900 -0.02400
N 	N 	0.00431 0.19704 0.62040 -0.11100
C 	C 	0.04550 0.22806 0.62679 0.09000
H 	H 	0.05790 0.21510 0.63520 -0.01200
N 	N 	0.06178 0.39324 0.73153 -0.22000
N 	N 	0.06348 0.37232 0.69046 -0.11100
N 	N 	0.07428 0.41165 0.71175 -0.23400
N 	N 	0.06123 0.35141 0.67011 -0.11000
C 	C 	0.03908 0.34725 0.65189 0.09300
H 	H 	0.02260 0.35820 0.65110 -0.01200
C 	C 	0.07490 0.39864 0.68733 0.09200
H 	H 	0.08200 0.40620 0.67050 -0.03100
C 	C 	0.08128 0.33133 0.66405 0.08900
H 	H 	0.09870 0.32930 0.67320 -0.01800
C 	C 	0.00752 0.24719 0.60769 0.09000
H 	H 	0.98910 0.24970 0.60080 -0.01900
C 	C 	0.99666 0.18355 0.64464 0.09100
H 	H 	0.99970 0.19020 0.66300 -0.01300
C 	C 	0.05521 0.36991 0.71810 0.08800
H 	H 	0.04630 0.35420 0.72610 -0.01100
N 	N 	0.01815 0.22271 0.61856 -0.11100
Cu	Cu	0.08720 0.77951 0.12669 0.82600
Cu	Cu	0.02457 0.80795 0.10004 0.82500
N 	N 	0.02719 0.76647 0.10846 -0.23000
N 	N 	0.05120 0.75452 0.12086 -0.21300
N 	N 	0.07193 0.81541 0.14342 -0.23100
N 	N 	0.04486 0.82553 0.13591 -0.21000
N 	N 	0.98323 0.65799 0.10839 -0.23000
N 	N 	0.98427 0.65967 0.13795 -0.21700
C 	C 	0.99564 0.68064 0.09820 0.08500
H 	H 	0.99810 0.68480 0.07900 -0.02400
N 	N 	0.00431 0.69704 0.12040 -0.11100
C 	C 	0.04550 0.72806 0.12679 0.09000
H 	H 	0.05790 0.71510 0.13520 -0.01200
N 	N 	0.06178 0.89324 0.23153 -0.22000
N 	N 	0.06348 0.87232 0.19046 -0.11100
N 	N 	0.07428 0.91165 0.21175 -0.23400
N 	N 	0.06123 0.85141 0.17011 -0.11000
C 	C 	0.03908 0.84725 0.15189 0.09300
H 	H 	0.02260 0.85820 0.15110 -0.01200
C 	C 	0.07490 0.89864 0.18733 0.09200
H 	H 	0.08200 0.90620 0.17050 -0.03100
C 	C 	0.08128 0.83133 0.16405 0.08900
H 	H 	0.09870 0.82930 0.17320 -0.01800
C 	C 	0.00752 0.74719 0.10769 0.09000
H 	H 	0.98910 0.74970 0.10080 -0.01900
C 	C 	0.99666 0.68355 0.14464 0.09100
H 	H 	0.99970 0.69020 0.16300 -0.01300
C 	C 	0.05521 0.86991 0.21810 0.08800
H 	H 	0.04630 0.85420 0.22610 -0.01100
N 	N 	0.01815 0.72271 0.11856 -0.11100
Cu	Cu	0.58720 0.27951 0.12669 0.82600
Cu	Cu	0.52457 0.30795 0.10004 0.82500
N 	N 	0.52719 0.26647 0.10846 -0.23000
N 	N 	0.55120 0.25452 0.12086 -0.21300
N 	N 	0.57193 0.31541 0.14342 -0.23100
N 	N 	0.54486 0.32553 0.13591 -0.21000
N 	N 	0.48323 0.15799 0.10839 -0.23000
N 	N 	0.48427 0.15967 0.13795 -0.21700
C 	C 	0.49564 0.18064 0.09820 0.08500
H 	H 	0.49810 0.18480 0.07900 -0.02400
N 	N 	0.50431 0.19704 0.12040 -0.11100
C 	C 	0.54550 0.22806 0.12679 0.09000
H 	H 	0.55790 0.21510 0.13520 -0.01200
N 	N 	0.56178 0.39324 0.23153 -0.22000
N 	N 	0.56348 0.37232 0.19046 -0.11100
N 	N 	0.57428 0.41165 0.21175 -0.23400
N 	N 	0.56123 0.35141 0.17011 -0.11000
C 	C 	0.53908 0.34725 0.15189 0.09300
H 	H 	0.52260 0.35820 0.15110 -0.01200
C 	C 	0.57490 0.39864 0.18733 0.09200
H 	H 	0.58200 0.40620 0.17050 -0.03100
C 	C 	0.58128 0.33133 0.16405 0.08900
H 	H 	0.59870 0.32930 0.17320 -0.01800
C 	C 	0.50752 0.24719 0.10769 0.09000
H 	H 	0.48910 0.24970 0.10080 -0.01900
C 	C 	0.49666 0.18355 0.14464 0.09100
H 	H 	0.49970 0.19020 0.16300 -0.01300
C 	C 	0.55521 0.36991 0.21810 0.08800
H 	H 	0.54630 0.35420 0.22610 -0.01100
N 	N 	0.51815 0.22271 0.11856 -0.11100
Cu	Cu	0.58720 0.77951 0.62669 0.82600
Cu	Cu	0.52457 0.80795 0.60004 0.82500
N 	N 	0.52719 0.76647 0.60846 -0.23000
N 	N 	0.55120 0.75452 0.62086 -0.21300
N 	N 	0.57193 0.81541 0.64342 -0.23100
N 	N 	0.54486 0.82553 0.63591 -0.21000
N 	N 	0.48323 0.65799 0.60839 -0.23000
N 	N 	0.48427 0.65967 0.63795 -0.21700
C 	C 	0.49564 0.68064 0.59820 0.08500
H 	H 	0.49810 0.68480 0.57900 -0.02400
N 	N 	0.50431 0.69704 0.62040 -0.11100
C 	C 	0.54550 0.72806 0.62679 0.09000
H 	H 	0.55790 0.71510 0.63520 -0.01200
N 	N 	0.56178 0.89324 0.73153 -0.22000
N 	N 	0.56348 0.87232 0.69046 -0.11100
N 	N 	0.57428 0.91165 0.71175 -0.23400
N 	N 	0.56123 0.85141 0.67011 -0.11000
C 	C 	0.53908 0.84725 0.65189 0.09300
H 	H 	0.52260 0.85820 0.65110 -0.01200
C 	C 	0.57490 0.89864 0.68733 0.09200
H 	H 	0.58200 0.90620 0.67050 -0.03100
C 	C 	0.58128 0.83133 0.66405 0.08900
H 	H 	0.59870 0.82930 0.67320 -0.01800
C 	C 	0.50752 0.74719 0.60769 0.09000
H 	H 	0.48910 0.74970 0.60080 -0.01900
C 	C 	0.49666 0.68355 0.64464 0.09100
H 	H 	0.49970 0.69020 0.66300 -0.01300
C 	C 	0.55521 0.86991 0.71810 0.08800
H 	H 	0.54630 0.85420 0.72610 -0.01100
N 	N 	0.51815 0.72271 0.61856 -0.11100
Cu	Cu	0.16280 0.77951 0.12331 0.82600
Cu	Cu	0.22543 0.80795 0.14996 0.82500
N 	N 	0.22281 0.76647 0.14154 -0.23000
N 	N 	0.19880 0.75452 0.12914 -0.21300
N 	N 	0.17807 0.81541 0.10658 -0.23100
N 	N 	0.20514 0.82553 0.11409 -0.21000
N 	N 	0.26677 0.65799 0.14161 -0.23000
N 	N 	0.26573 0.65967 0.11205 -0.21700
C 	C 	0.25436 0.68064 0.15180 0.08500
H 	H 	0.25190 0.68480 0.17100 -0.02400
N 	N 	0.24569 0.69704 0.12960 -0.11100
C 	C 	0.20450 0.72806 0.12321 0.09000
H 	H 	0.19210 0.71510 0.11480 -0.01200
N 	N 	0.18822 0.89324 0.01847 -0.22000
N 	N 	0.18652 0.87232 0.05954 -0.11100
N 	N 	0.17572 0.91165 0.03825 -0.23400
N 	N 	0.18877 0.85141 0.07989 -0.11000
C 	C 	0.21092 0.84725 0.09811 0.09300
H 	H 	0.22740 0.85820 0.09890 -0.01200
C 	C 	0.17510 0.89864 0.06267 0.09200
H 	H 	0.16800 0.90620 0.07950 -0.03100
C 	C 	0.16872 0.83133 0.08595 0.08900
H 	H 	0.15130 0.82930 0.07680 -0.01800
C 	C 	0.24248 0.74719 0.14231 0.09000
H 	H 	0.26090 0.74970 0.14920 -0.01900
C 	C 	0.25334 0.68355 0.10536 0.09100
H 	H 	0.25030 0.69020 0.08700 -0.01300
C 	C 	0.19479 0.86991 0.03190 0.08800
H 	H 	0.20370 0.85420 0.02390 -0.01100
N 	N 	0.23185 0.72271 0.13144 -0.11100
Cu	Cu	0.16280 0.27951 0.62331 0.82600
Cu	Cu	0.22543 0.30795 0.64996 0.82500
N 	N 	0.22281 0.26647 0.64154 -0.23000
N 	N 	0.19880 0.25452 0.62914 -0.21300
N 	N 	0.17807 0.31541 0.60658 -0.23100
N 	N 	0.20514 0.32553 0.61409 -0.21000
N 	N 	0.26677 0.15799 0.64161 -0.23000
N 	N 	0.26573 0.15967 0.61205 -0.21700
C 	C 	0.25436 0.18064 0.65180 0.08500
H 	H 	0.25190 0.18480 0.67100 -0.02400
N 	N 	0.24569 0.19704 0.62960 -0.11100
C 	C 	0.20450 0.22806 0.62321 0.09000
H 	H 	0.19210 0.21510 0.61480 -0.01200
N 	N 	0.18822 0.39324 0.51847 -0.22000
N 	N 	0.18652 0.37232 0.55954 -0.11100
N 	N 	0.17572 0.41165 0.53825 -0.23400
N 	N 	0.18877 0.35141 0.57989 -0.11000
C 	C 	0.21092 0.34725 0.59811 0.09300
H 	H 	0.22740 0.35820 0.59890 -0.01200
C 	C 	0.17510 0.39864 0.56267 0.09200
H 	H 	0.16800 0.40620 0.57950 -0.03100
C 	C 	0.16872 0.33133 0.58595 0.08900
H 	H 	0.15130 0.32930 0.57680 -0.01800
C 	C 	0.24248 0.24719 0.64231 0.09000
H 	H 	0.26090 0.24970 0.64920 -0.01900
C 	C 	0.25334 0.18355 0.60536 0.09100
H 	H 	0.25030 0.19020 0.58700 -0.01300
C 	C 	0.19479 0.36991 0.53190 0.08800
H 	H 	0.20370 0.35420 0.52390 -0.01100
N 	N 	0.23185 0.22271 0.63144 -0.11100
Cu	Cu	0.66280 0.77951 0.62331 0.82600
Cu	Cu	0.72543 0.80795 0.64996 0.82500
N 	N 	0.72281 0.76647 0.64154 -0.23000
N 	N 	0.69880 0.75452 0.62914 -0.21300
N 	N 	0.67807 0.81541 0.60658 -0.23100
N 	N 	0.70514 0.82553 0.61409 -0.21000
N 	N 	0.76677 0.65799 0.64161 -0.23000
N 	N 	0.76573 0.65967 0.61205 -0.21700
C 	C 	0.75436 0.68064 0.65180 0.08500
H 	H 	0.75190 0.68480 0.67100 -0.02400
N 	N 	0.74569 0.69704 0.62960 -0.11100
C 	C 	0.70450 0.72806 0.62321 0.09000
H 	H 	0.69210 0.71510 0.61480 -0.01200
N 	N 	0.68822 0.89324 0.51847 -0.22000
N 	N 	0.68652 0.87232 0.55954 -0.11100
N 	N 	0.67572 0.91165 0.53825 -0.23400
N 	N 	0.68877 0.85141 0.57989 -0.11000
C 	C 	0.71092 0.84725 0.59811 0.09300
H 	H 	0.72740 0.85820 0.59890 -0.01200
C 	C 	0.67510 0.89864 0.56267 0.09200
H 	H 	0.66800 0.90620 0.57950 -0.03100
C 	C 	0.66872 0.83133 0.58595 0.08900
H 	H 	0.65130 0.82930 0.57680 -0.01800
C 	C 	0.74248 0.74719 0.64231 0.09000
H 	H 	0.76090 0.74970 0.64920 -0.01900
C 	C 	0.75334 0.68355 0.60536 0.09100
H 	H 	0.75030 0.69020 0.58700 -0.01300
C 	C 	0.69479 0.86991 0.53190 0.08800
H 	H 	0.70370 0.85420 0.52390 -0.01100
N 	N 	0.73185 0.72271 0.63144 -0.11100
Cu	Cu	0.66280 0.27951 0.12331 0.82600
Cu	Cu	0.72543 0.30795 0.14996 0.82500
N 	N 	0.72281 0.26647 0.14154 -0.23000
N 	N 	0.69880 0.25452 0.12914 -0.21300
N 	N 	0.67807 0.31541 0.10658 -0.23100
N 	N 	0.70514 0.32553 0.11409 -0.21000
N 	N 	0.76677 0.15799 0.14161 -0.23000
N 	N 	0.76573 0.15967 0.11205 -0.21700
C 	C 	0.75436 0.18064 0.15180 0.08500
H 	H 	0.75190 0.18480 0.17100 -0.02400
N 	N 	0.74569 0.19704 0.12960 -0.11100
C 	C 	0.70450 0.22806 0.12321 0.09000
H 	H 	0.69210 0.21510 0.11480 -0.01200
N 	N 	0.68822 0.39324 0.01847 -0.22000
N 	N 	0.68652 0.37232 0.05954 -0.11100
N 	N 	0.67572 0.41165 0.03825 -0.23400
N 	N 	0.68877 0.35141 0.07989 -0.11000
C 	C 	0.71092 0.34725 0.09811 0.09300
H 	H 	0.72740 0.35820 0.09890 -0.01200
C 	C 	0.67510 0.39864 0.06267 0.09200
H 	H 	0.66800 0.40620 0.07950 -0.03100
C 	C 	0.66872 0.33133 0.08595 0.08900
H 	H 	0.65130 0.32930 0.07680 -0.01800
C 	C 	0.74248 0.24719 0.14231 0.09000
H 	H 	0.76090 0.24970 0.14920 -0.01900
C 	C 	0.75334 0.18355 0.10536 0.09100
H 	H 	0.75030 0.19020 0.08700 -0.01300
C 	C 	0.69479 0.36991 0.03190 0.08800
H 	H 	0.70370 0.35420 0.02390 -0.01100
N 	N 	0.73185 0.22271 0.13144 -0.11100
Cu	Cu	0.83720 0.37331 0.52951 0.82600
Cu	Cu	0.77457 0.39996 0.55795 0.82500
N 	N 	0.77719 0.39154 0.51647 -0.23000
N 	N 	0.80120 0.37914 0.50452 -0.21300
N 	N 	0.82193 0.35658 0.56541 -0.23100
N 	N 	0.79486 0.36409 0.57553 -0.21000
N 	N 	0.73323 0.39161 0.40799 -0.23000
N 	N 	0.73427 0.36205 0.40967 -0.21700
C 	C 	0.74564 0.40180 0.43064 0.08500
H 	H 	0.74810 0.42100 0.43480 -0.02400
N 	N 	0.75431 0.37960 0.44704 -0.11100
C 	C 	0.79550 0.37321 0.47806 0.09000
H 	H 	0.80790 0.36480 0.46510 -0.01200
N 	N 	0.81178 0.26847 0.64324 -0.22000
N 	N 	0.81348 0.30954 0.62232 -0.11100
N 	N 	0.82428 0.28825 0.66165 -0.23400
N 	N 	0.81123 0.32989 0.60141 -0.11000
C 	C 	0.78908 0.34811 0.59725 0.09300
H 	H 	0.77260 0.34890 0.60820 -0.01200
C 	C 	0.82490 0.31267 0.64864 0.09200
H 	H 	0.83200 0.32950 0.65620 -0.03100
C 	C 	0.83128 0.33595 0.58133 0.08900
H 	H 	0.84870 0.32680 0.57930 -0.01800
C 	C 	0.75752 0.39231 0.49719 0.09000
H 	H 	0.73910 0.39920 0.49970 -0.01900
C 	C 	0.74666 0.35536 0.43355 0.09100
H 	H 	0.74970 0.33700 0.44020 -0.01300
C 	C 	0.80521 0.28190 0.61991 0.08800
H 	H 	0.79630 0.27390 0.60420 -0.01100
N 	N 	0.76815 0.38144 0.47271 -0.11100
Cu	Cu	0.83720 0.87331 0.02951 0.82600
Cu	Cu	0.77457 0.89996 0.05795 0.82500
N 	N 	0.77719 0.89154 0.01647 -0.23000
N 	N 	0.80120 0.87914 0.00452 -0.21300
N 	N 	0.82193 0.85658 0.06541 -0.23100
N 	N 	0.79486 0.86409 0.07553 -0.21000
N 	N 	0.73323 0.89161 0.90799 -0.23000
N 	N 	0.73427 0.86205 0.90967 -0.21700
C 	C 	0.74564 0.90180 0.93064 0.08500
H 	H 	0.74810 0.92100 0.93480 -0.02400
N 	N 	0.75431 0.87960 0.94704 -0.11100
C 	C 	0.79550 0.87321 0.97806 0.09000
H 	H 	0.80790 0.86480 0.96510 -0.01200
N 	N 	0.81178 0.76847 0.14324 -0.22000
N 	N 	0.81348 0.80954 0.12232 -0.11100
N 	N 	0.82428 0.78825 0.16165 -0.23400
N 	N 	0.81123 0.82989 0.10141 -0.11000
C 	C 	0.78908 0.84811 0.09725 0.09300
H 	H 	0.77260 0.84890 0.10820 -0.01200
C 	C 	0.82490 0.81267 0.14864 0.09200
H 	H 	0.83200 0.82950 0.15620 -0.03100
C 	C 	0.83128 0.83595 0.08133 0.08900
H 	H 	0.84870 0.82680 0.07930 -0.01800
C 	C 	0.75752 0.89231 0.99719 0.09000
H 	H 	0.73910 0.89920 0.99970 -0.01900
C 	C 	0.74666 0.85536 0.93355 0.09100
H 	H 	0.74970 0.83700 0.94020 -0.01300
C 	C 	0.80521 0.78190 0.11991 0.08800
H 	H 	0.79630 0.77390 0.10420 -0.01100
N 	N 	0.76815 0.88144 0.97271 -0.11100
Cu	Cu	0.33720 0.37331 0.02951 0.82600
Cu	Cu	0.27457 0.39996 0.05795 0.82500
N 	N 	0.27719 0.39154 0.01647 -0.23000
N 	N 	0.30120 0.37914 0.00452 -0.21300
N 	N 	0.32193 0.35658 0.06541 -0.23100
N 	N 	0.29486 0.36409 0.07553 -0.21000
N 	N 	0.23323 0.39161 0.90799 -0.23000
N 	N 	0.23427 0.36205 0.90967 -0.21700
C 	C 	0.24564 0.40180 0.93064 0.08500
H 	H 	0.24810 0.42100 0.93480 -0.02400
N 	N 	0.25431 0.37960 0.94704 -0.11100
C 	C 	0.29550 0.37321 0.97806 0.09000
H 	H 	0.30790 0.36480 0.96510 -0.01200
N 	N 	0.31178 0.26847 0.14324 -0.22000
N 	N 	0.31348 0.30954 0.12232 -0.11100
N 	N 	0.32428 0.28825 0.16165 -0.23400
N 	N 	0.31123 0.32989 0.10141 -0.11000
C 	C 	0.28908 0.34811 0.09725 0.09300
H 	H 	0.27260 0.34890 0.10820 -0.01200
C 	C 	0.32490 0.31267 0.14864 0.09200
H 	H 	0.33200 0.32950 0.15620 -0.03100
C 	C 	0.33128 0.33595 0.08133 0.08900
H 	H 	0.34870 0.32680 0.07930 -0.01800
C 	C 	0.25752 0.39231 0.99719 0.09000
H 	H 	0.23910 0.39920 0.99970 -0.01900
C 	C 	0.24666 0.35536 0.93355 0.09100
H 	H 	0.24970 0.33700 0.94020 -0.01300
C 	C 	0.30521 0.28190 0.11991 0.08800
H 	H 	0.29630 0.27390 0.10420 -0.01100
N 	N 	0.26815 0.38144 0.97271 -0.11100
Cu	Cu	0.33720 0.87331 0.52951 0.82600
Cu	Cu	0.27457 0.89996 0.55795 0.82500
N 	N 	0.27719 0.89154 0.51647 -0.23000
N 	N 	0.30120 0.87914 0.50452 -0.21300
N 	N 	0.32193 0.85658 0.56541 -0.23100
N 	N 	0.29486 0.86409 0.57553 -0.21000
N 	N 	0.23323 0.89161 0.40799 -0.23000
N 	N 	0.23427 0.86205 0.40967 -0.21700
C 	C 	0.24564 0.90180 0.43064 0.08500
H 	H 	0.24810 0.92100 0.43480 -0.02400
N 	N 	0.25431 0.87960 0.44704 -0.11100
C 	C 	0.29550 0.87321 0.47806 0.09000
H 	H 	0.30790 0.86480 0.46510 -0.01200
N 	N 	0.31178 0.76847 0.64324 -0.22000
N 	N 	0.31348 0.80954 0.62232 -0.11100
N 	N 	0.32428 0.78825 0.66165 -0.23400
N 	N 	0.31123 0.82989 0.60141 -0.11000
C 	C 	0.28908 0.84811 0.59725 0.09300
H 	H 	0.27260 0.84890 0.60820 -0.01200
C 	C 	0.32490 0.81267 0.64864 0.09200
H 	H 	0.33200 0.82950 0.65620 -0.03100
C 	C 	0.33128 0.83595 0.58133 0.08900
H 	H 	0.34870 0.82680 0.57930 -0.01800
C 	C 	0.25752 0.89231 0.49719 0.09000
H 	H 	0.23910 0.89920 0.49970 -0.01900
C 	C 	0.24666 0.85536 0.43355 0.09100
H 	H 	0.24970 0.83700 0.44020 -0.01300
C 	C 	0.30521 0.78190 0.61991 0.08800
H 	H 	0.29630 0.77390 0.60420 -0.01100
N 	N 	0.26815 0.88144 0.47271 -0.11100
Cu	Cu	0.91280 0.87669 0.02951 0.82600
Cu	Cu	0.97543 0.85004 0.05795 0.82500
N 	N 	0.97281 0.85846 0.01647 -0.23000
N 	N 	0.94880 0.87086 0.00452 -0.21300
N 	N 	0.92807 0.89342 0.06541 -0.23100
N 	N 	0.95514 0.88591 0.07553 -0.21000
N 	N 	0.01677 0.85839 0.90799 -0.23000
N 	N 	0.01573 0.88795 0.90967 -0.21700
C 	C 	0.00436 0.84820 0.93064 0.08500
H 	H 	0.00190 0.82900 0.93480 -0.02400
N 	N 	0.99569 0.87040 0.94704 -0.11100
C 	C 	0.95450 0.87679 0.97806 0.09000
H 	H 	0.94210 0.88520 0.96510 -0.01200
N 	N 	0.93822 0.98153 0.14324 -0.22000
N 	N 	0.93652 0.94046 0.12232 -0.11100
N 	N 	0.92572 0.96175 0.16165 -0.23400
N 	N 	0.93877 0.92011 0.10141 -0.11000
C 	C 	0.96092 0.90189 0.09725 0.09300
H 	H 	0.97740 0.90110 0.10820 -0.01200
C 	C 	0.92510 0.93733 0.14864 0.09200
H 	H 	0.91800 0.92050 0.15620 -0.03100
C 	C 	0.91872 0.91405 0.08133 0.08900
H 	H 	0.90130 0.92320 0.07930 -0.01800
C 	C 	0.99248 0.85769 0.99719 0.09000
H 	H 	0.01090 0.85080 0.99970 -0.01900
C 	C 	0.00334 0.89464 0.93355 0.09100
H 	H 	0.00030 0.91300 0.94020 -0.01300
C 	C 	0.94479 0.96810 0.11991 0.08800
H 	H 	0.95370 0.97610 0.10420 -0.01100
N 	N 	0.98185 0.86856 0.97271 -0.11100
Cu	Cu	0.91280 0.37669 0.52951 0.82600
Cu	Cu	0.97543 0.35004 0.55795 0.82500
N 	N 	0.97281 0.35846 0.51647 -0.23000
N 	N 	0.94880 0.37086 0.50452 -0.21300
N 	N 	0.92807 0.39342 0.56541 -0.23100
N 	N 	0.95514 0.38591 0.57553 -0.21000
N 	N 	0.01677 0.35839 0.40799 -0.23000
N 	N 	0.01573 0.38795 0.40967 -0.21700
C 	C 	0.00436 0.34820 0.43064 0.08500
H 	H 	0.00190 0.32900 0.43480 -0.02400
N 	N 	0.99569 0.37040 0.44704 -0.11100
C 	C 	0.95450 0.37679 0.47806 0.09000
H 	H 	0.94210 0.38520 0.46510 -0.01200
N 	N 	0.93822 0.48153 0.64324 -0.22000
N 	N 	0.93652 0.44046 0.62232 -0.11100
N 	N 	0.92572 0.46175 0.66165 -0.23400
N 	N 	0.93877 0.42011 0.60141 -0.11000
C 	C 	0.96092 0.40189 0.59725 0.09300
H 	H 	0.97740 0.40110 0.60820 -0.01200
C 	C 	0.92510 0.43733 0.64864 0.09200
H 	H 	0.91800 0.42050 0.65620 -0.03100
C 	C 	0.91872 0.41405 0.58133 0.08900
H 	H 	0.90130 0.42320 0.57930 -0.01800
C 	C 	0.99248 0.35769 0.49719 0.09000
H 	H 	0.01090 0.35080 0.49970 -0.01900
C 	C 	0.00334 0.39464 0.43355 0.09100
H 	H 	0.00030 0.41300 0.44020 -0.01300
C 	C 	0.94479 0.46810 0.61991 0.08800
H 	H 	0.95370 0.47610 0.60420 -0.01100
N 	N 	0.98185 0.36856 0.47271 -0.11100
Cu	Cu	0.41280 0.87669 0.52951 0.82600
Cu	Cu	0.47543 0.85004 0.55795 0.82500
N 	N 	0.47281 0.85846 0.51647 -0.23000
N 	N 	0.44880 0.87086 0.50452 -0.21300
N 	N 	0.42807 0.89342 0.56541 -0.23100
N 	N 	0.45514 0.88591 0.57553 -0.21000
N 	N 	0.51677 0.85839 0.40799 -0.23000
N 	N 	0.51573 0.88795 0.40967 -0.21700
C 	C 	0.50436 0.84820 0.43064 0.08500
H 	H 	0.50190 0.82900 0.43480 -0.02400
N 	N 	0.49569 0.87040 0.44704 -0.11100
C 	C 	0.45450 0.87679 0.47806 0.09000
H 	H 	0.44210 0.88520 0.46510 -0.01200
N 	N 	0.43822 0.98153 0.64324 -0.22000
N 	N 	0.43652 0.94046 0.62232 -0.11100
N 	N 	0.42572 0.96175 0.66165 -0.23400
N 	N 	0.43877 0.92011 0.60141 -0.11000
C 	C 	0.46092 0.90189 0.59725 0.09300
H 	H 	0.47740 0.90110 0.60820 -0.01200
C 	C 	0.42510 0.93733 0.64864 0.09200
H 	H 	0.41800 0.92050 0.65620 -0.03100
C 	C 	0.41872 0.91405 0.58133 0.08900
H 	H 	0.40130 0.92320 0.57930 -0.01800
C 	C 	0.49248 0.85769 0.49719 0.09000
H 	H 	0.51090 0.85080 0.49970 -0.01900
C 	C 	0.50334 0.89464 0.43355 0.09100
H 	H 	0.50030 0.91300 0.44020 -0.01300
C 	C 	0.44479 0.96810 0.61991 0.08800
H 	H 	0.45370 0.97610 0.60420 -0.01100
N 	N 	0.48185 0.86856 0.47271 -0.11100
Cu	Cu	0.41280 0.37669 0.02951 0.82600
Cu	Cu	0.47543 0.35004 0.05795 0.82500
N 	N 	0.47281 0.35846 0.01647 -0.23000
N 	N 	0.44880 0.37086 0.00452 -0.21300
N 	N 	0.42807 0.39342 0.06541 -0.23100
N 	N 	0.45514 0.38591 0.07553 -0.21000
N 	N 	0.51677 0.35839 0.90799 -0.23000
N 	N 	0.51573 0.38795 0.90967 -0.21700
C 	C 	0.50436 0.34820 0.93064 0.08500
H 	H 	0.50190 0.32900 0.93480 -0.02400
N 	N 	0.49569 0.37040 0.94704 -0.11100
C 	C 	0.45450 0.37679 0.97806 0.09000
H 	H 	0.44210 0.38520 0.96510 -0.01200
N 	N 	0.43822 0.48153 0.14324 -0.22000
N 	N 	0.43652 0.44046 0.12232 -0.11100
N 	N 	0.42572 0.46175 0.16165 -0.23400
N 	N 	0.43877 0.42011 0.10141 -0.11000
C 	C 	0.46092 0.40189 0.09725 0.09300
H 	H 	0.47740 0.40110 0.10820 -0.01200
C 	C 	0.42510 0.43733 0.14864 0.09200
H 	H 	0.41800 0.42050 0.15620 -0.03100
C 	C 	0.41872 0.41405 0.08133 0.08900
H 	H 	0.40130 0.42320 0.07930 -0.01800
C 	C 	0.49248 0.35769 0.99719 0.09000
H 	H 	0.51090 0.35080 0.99970 -0.01900
C 	C 	0.50334 0.39464 0.93355 0.09100
H 	H 	0.50030 0.41300 0.94020 -0.01300
C 	C 	0.44479 0.46810 0.11991 0.08800
H 	H 	0.45370 0.47610 0.10420 -0.01100
N 	N 	0.48185 0.36856 0.97271 -0.11100
Cu	Cu	0.33720 0.37669 0.72050 0.82600
Cu	Cu	0.27457 0.35004 0.69205 0.82500
N 	N 	0.27719 0.35846 0.73353 -0.23000
N 	N 	0.30120 0.37086 0.74548 -0.21300
N 	N 	0.32193 0.39342 0.68459 -0.23100
N 	N 	0.29486 0.38591 0.67447 -0.21000
N 	N 	0.23323 0.35839 0.84201 -0.23000
N 	N 	0.23427 0.38795 0.84033 -0.21700
C 	C 	0.24564 0.34820 0.81936 0.08500
H 	H 	0.24810 0.32900 0.81520 -0.02400
N 	N 	0.25431 0.37040 0.80296 -0.11100
C 	C 	0.29550 0.37679 0.77194 0.09000
H 	H 	0.30790 0.38520 0.78490 -0.01200
N 	N 	0.31178 0.48153 0.60676 -0.22000
N 	N 	0.31348 0.44046 0.62768 -0.11100
N 	N 	0.32428 0.46175 0.58835 -0.23400
N 	N 	0.31123 0.42011 0.64859 -0.11000
C 	C 	0.28908 0.40189 0.65275 0.09300
H 	H 	0.27260 0.40110 0.64180 -0.01200
C 	C 	0.32490 0.43733 0.60136 0.09200
H 	H 	0.33200 0.42050 0.59380 -0.03100
C 	C 	0.33128 0.41405 0.66867 0.08900
H 	H 	0.34870 0.42320 0.67070 -0.01800
C 	C 	0.25752 0.35769 0.75281 0.09000
H 	H 	0.23910 0.35080 0.75030 -0.01900
C 	C 	0.24666 0.39464 0.81645 0.09100
H 	H 	0.24970 0.41300 0.80980 -0.01300
C 	C 	0.30521 0.46810 0.63009 0.08800
H 	H 	0.29630 0.47610 0.64580 -0.01100
N 	N 	0.26815 0.36856 0.77729 -0.11100
Cu	Cu	0.33720 0.87669 0.22050 0.82600
Cu	Cu	0.27457 0.85004 0.19205 0.82500
N 	N 	0.27719 0.85846 0.23353 -0.23000
N 	N 	0.30120 0.87086 0.24548 -0.21300
N 	N 	0.32193 0.89342 0.18459 -0.23100
N 	N 	0.29486 0.88591 0.17447 -0.21000
N 	N 	0.23323 0.85839 0.34201 -0.23000
N 	N 	0.23427 0.88795 0.34033 -0.21700
C 	C 	0.24564 0.84820 0.31936 0.08500
H 	H 	0.24810 0.82900 0.31520 -0.02400
N 	N 	0.25431 0.87040 0.30296 -0.11100
C 	C 	0.29550 0.87679 0.27194 0.09000
H 	H 	0.30790 0.88520 0.28490 -0.01200
N 	N 	0.31178 0.98153 0.10676 -0.22000
N 	N 	0.31348 0.94046 0.12768 -0.11100
N 	N 	0.32428 0.96175 0.08835 -0.23400
N 	N 	0.31123 0.92011 0.14859 -0.11000
C 	C 	0.28908 0.90189 0.15275 0.09300
H 	H 	0.27260 0.90110 0.14180 -0.01200
C 	C 	0.32490 0.93733 0.10136 0.09200
H 	H 	0.33200 0.92050 0.09380 -0.03100
C 	C 	0.33128 0.91405 0.16867 0.08900
H 	H 	0.34870 0.92320 0.17070 -0.01800
C 	C 	0.25752 0.85769 0.25281 0.09000
H 	H 	0.23910 0.85080 0.25030 -0.01900
C 	C 	0.24666 0.89464 0.31645 0.09100
H 	H 	0.24970 0.91300 0.30980 -0.01300
C 	C 	0.30521 0.96810 0.13009 0.08800
H 	H 	0.29630 0.97610 0.14580 -0.01100
N 	N 	0.26815 0.86856 0.27729 -0.11100
Cu	Cu	0.83720 0.37669 0.22050 0.82600
Cu	Cu	0.77457 0.35004 0.19205 0.82500
N 	N 	0.77719 0.35846 0.23353 -0.23000
N 	N 	0.80120 0.37086 0.24548 -0.21300
N 	N 	0.82193 0.39342 0.18459 -0.23100
N 	N 	0.79486 0.38591 0.17447 -0.21000
N 	N 	0.73323 0.35839 0.34201 -0.23000
N 	N 	0.73427 0.38795 0.34033 -0.21700
C 	C 	0.74564 0.34820 0.31936 0.08500
H 	H 	0.74810 0.32900 0.31520 -0.02400
N 	N 	0.75431 0.37040 0.30296 -0.11100
C 	C 	0.79550 0.37679 0.27194 0.09000
H 	H 	0.80790 0.38520 0.28490 -0.01200
N 	N 	0.81178 0.48153 0.10676 -0.22000
N 	N 	0.81348 0.44046 0.12768 -0.11100
N 	N 	0.82428 0.46175 0.08835 -0.23400
N 	N 	0.81123 0.42011 0.14859 -0.11000
C 	C 	0.78908 0.40189 0.15275 0.09300
H 	H 	0.77260 0.40110 0.14180 -0.01200
C 	C 	0.82490 0.43733 0.10136 0.09200
H 	H 	0.83200 0.42050 0.09380 -0.03100
C 	C 	0.83128 0.41405 0.16867 0.08900
H 	H 	0.84870 0.42320 0.17070 -0.01800
C 	C 	0.75752 0.35769 0.25281 0.09000
H 	H 	0.73910 0.35080 0.25030 -0.01900
C 	C 	0.74666 0.39464 0.31645 0.09100
H 	H 	0.74970 0.41300 0.30980 -0.01300
C 	C 	0.80521 0.46810 0.13009 0.08800
H 	H 	0.79630 0.47610 0.14580 -0.01100
N 	N 	0.76815 0.36856 0.27729 -0.11100
Cu	Cu	0.83720 0.87669 0.72050 0.82600
Cu	Cu	0.77457 0.85004 0.69205 0.82500
N 	N 	0.77719 0.85846 0.73353 -0.23000
N 	N 	0.80120 0.87086 0.74548 -0.21300
N 	N 	0.82193 0.89342 0.68459 -0.23100
N 	N 	0.79486 0.88591 0.67447 -0.21000
N 	N 	0.73323 0.85839 0.84201 -0.23000
N 	N 	0.73427 0.88795 0.84033 -0.21700
C 	C 	0.74564 0.84820 0.81936 0.08500
H 	H 	0.74810 0.82900 0.81520 -0.02400
N 	N 	0.75431 0.87040 0.80296 -0.11100
C 	C 	0.79550 0.87679 0.77194 0.09000
H 	H 	0.80790 0.88520 0.78490 -0.01200
N 	N 	0.81178 0.98153 0.60676 -0.22000
N 	N 	0.81348 0.94046 0.62768 -0.11100
N 	N 	0.82428 0.96175 0.58835 -0.23400
N 	N 	0.81123 0.92011 0.64859 -0.11000
C 	C 	0.78908 0.90189 0.65275 0.09300
H 	H 	0.77260 0.90110 0.64180 -0.01200
C 	C 	0.82490 0.93733 0.60136 0.09200
H 	H 	0.83200 0.92050 0.59380 -0.03100
C 	C 	0.83128 0.91405 0.66867 0.08900
H 	H 	0.84870 0.92320 0.67070 -0.01800
C 	C 	0.75752 0.85769 0.75281 0.09000
H 	H 	0.73910 0.85080 0.75030 -0.01900
C 	C 	0.74666 0.89464 0.81645 0.09100
H 	H 	0.74970 0.91300 0.80980 -0.01300
C 	C 	0.80521 0.96810 0.63009 0.08800
H 	H 	0.79630 0.97610 0.64580 -0.01100
N 	N 	0.76815 0.86856 0.77729 -0.11100
Cu	Cu	0.41280 0.87331 0.22050 0.82600
Cu	Cu	0.47543 0.89996 0.19205 0.82500
N 	N 	0.47281 0.89154 0.23353 -0.23000
N 	N 	0.44880 0.87914 0.24548 -0.21300
N 	N 	0.42807 0.85658 0.18459 -0.23100
N 	N 	0.45514 0.86409 0.17447 -0.21000
N 	N 	0.51677 0.89161 0.34201 -0.23000
N 	N 	0.51573 0.86205 0.34033 -0.21700
C 	C 	0.50436 0.90180 0.31936 0.08500
H 	H 	0.50190 0.92100 0.31520 -0.02400
N 	N 	0.49569 0.87960 0.30296 -0.11100
C 	C 	0.45450 0.87321 0.27194 0.09000
H 	H 	0.44210 0.86480 0.28490 -0.01200
N 	N 	0.43822 0.76847 0.10676 -0.22000
N 	N 	0.43652 0.80954 0.12768 -0.11100
N 	N 	0.42572 0.78825 0.08835 -0.23400
N 	N 	0.43877 0.82989 0.14859 -0.11000
C 	C 	0.46092 0.84811 0.15275 0.09300
H 	H 	0.47740 0.84890 0.14180 -0.01200
C 	C 	0.42510 0.81267 0.10136 0.09200
H 	H 	0.41800 0.82950 0.09380 -0.03100
C 	C 	0.41872 0.83595 0.16867 0.08900
H 	H 	0.40130 0.82680 0.17070 -0.01800
C 	C 	0.49248 0.89231 0.25281 0.09000
H 	H 	0.51090 0.89920 0.25030 -0.01900
C 	C 	0.50334 0.85536 0.31645 0.09100
H 	H 	0.50030 0.83700 0.30980 -0.01300
C 	C 	0.44479 0.78190 0.13009 0.08800
H 	H 	0.45370 0.77390 0.14580 -0.01100
N 	N 	0.48185 0.88144 0.27729 -0.11100
Cu	Cu	0.41280 0.37331 0.72050 0.82600
Cu	Cu	0.47543 0.39996 0.69205 0.82500
N 	N 	0.47281 0.39154 0.73353 -0.23000
N 	N 	0.44880 0.37914 0.74548 -0.21300
N 	N 	0.42807 0.35658 0.68459 -0.23100
N 	N 	0.45514 0.36409 0.67447 -0.21000
N 	N 	0.51677 0.39161 0.84201 -0.23000
N 	N 	0.51573 0.36205 0.84033 -0.21700
C 	C 	0.50436 0.40180 0.81936 0.08500
H 	H 	0.50190 0.42100 0.81520 -0.02400
N 	N 	0.49569 0.37960 0.80296 -0.11100
C 	C 	0.45450 0.37321 0.77194 0.09000
H 	H 	0.44210 0.36480 0.78490 -0.01200
N 	N 	0.43822 0.26847 0.60676 -0.22000
N 	N 	0.43652 0.30954 0.62768 -0.11100
N 	N 	0.42572 0.28825 0.58835 -0.23400
N 	N 	0.43877 0.32989 0.64859 -0.11000
C 	C 	0.46092 0.34811 0.65275 0.09300
H 	H 	0.47740 0.34890 0.64180 -0.01200
C 	C 	0.42510 0.31267 0.60136 0.09200
H 	H 	0.41800 0.32950 0.59380 -0.03100
C 	C 	0.41872 0.33595 0.66867 0.08900
H 	H 	0.40130 0.32680 0.67070 -0.01800
C 	C 	0.49248 0.39231 0.75281 0.09000
H 	H 	0.51090 0.39920 0.75030 -0.01900
C 	C 	0.50334 0.35536 0.81645 0.09100
H 	H 	0.50030 0.33700 0.80980 -0.01300
C 	C 	0.44479 0.28190 0.63009 0.08800
H 	H 	0.45370 0.27390 0.64580 -0.01100
N 	N 	0.48185 0.38144 0.77729 -0.11100
Cu	Cu	0.91280 0.87331 0.72050 0.82600
Cu	Cu	0.97543 0.89996 0.69205 0.82500
N 	N 	0.97281 0.89154 0.73353 -0.23000
N 	N 	0.94880 0.87914 0.74548 -0.21300
N 	N 	0.92807 0.85658 0.68459 -0.23100
N 	N 	0.95514 0.86409 0.67447 -0.21000
N 	N 	0.01677 0.89161 0.84201 -0.23000
N 	N 	0.01573 0.86205 0.84033 -0.21700
C 	C 	0.00436 0.90180 0.81936 0.08500
H 	H 	0.00190 0.92100 0.81520 -0.02400
N 	N 	0.99569 0.87960 0.80296 -0.11100
C 	C 	0.95450 0.87321 0.77194 0.09000
H 	H 	0.94210 0.86480 0.78490 -0.01200
N 	N 	0.93822 0.76847 0.60676 -0.22000
N 	N 	0.93652 0.80954 0.62768 -0.11100
N 	N 	0.92572 0.78825 0.58835 -0.23400
N 	N 	0.93877 0.82989 0.64859 -0.11000
C 	C 	0.96092 0.84811 0.65275 0.09300
H 	H 	0.97740 0.84890 0.64180 -0.01200
C 	C 	0.92510 0.81267 0.60136 0.09200
H 	H 	0.91800 0.82950 0.59380 -0.03100
C 	C 	0.91872 0.83595 0.66867 0.08900
H 	H 	0.90130 0.82680 0.67070 -0.01800
C 	C 	0.99248 0.89231 0.75281 0.09000
H 	H 	0.01090 0.89920 0.75030 -0.01900
C 	C 	0.00334 0.85536 0.81645 0.09100
H 	H 	0.00030 0.83700 0.80980 -0.01300
C 	C 	0.94479 0.78190 0.63009 0.08800
H 	H 	0.95370 0.77390 0.64580 -0.01100
N 	N 	0.98185 0.88144 0.77729 -0.11100
Cu	Cu	0.91280 0.37331 0.22050 0.82600
Cu	Cu	0.97543 0.39996 0.19205 0.82500
N 	N 	0.97281 0.39154 0.23353 -0.23000
N 	N 	0.94880 0.37914 0.24548 -0.21300
N 	N 	0.92807 0.35658 0.18459 -0.23100
N 	N 	0.95514 0.36409 0.17447 -0.21000
N 	N 	0.01677 0.39161 0.34201 -0.23000
N 	N 	0.01573 0.36205 0.34033 -0.21700
C 	C 	0.00436 0.40180 0.31936 0.08500
H 	H 	0.00190 0.42100 0.31520 -0.02400
N 	N 	0.99569 0.37960 0.30296 -0.11100
C 	C 	0.95450 0.37321 0.27194 0.09000
H 	H 	0.94210 0.36480 0.28490 -0.01200
N 	N 	0.93822 0.26847 0.10676 -0.22000
N 	N 	0.93652 0.30954 0.12768 -0.11100
N 	N 	0.92572 0.28825 0.08835 -0.23400
N 	N 	0.93877 0.32989 0.14859 -0.11000
C 	C 	0.96092 0.34811 0.15275 0.09300
H 	H 	0.97740 0.34890 0.14180 -0.01200
C 	C 	0.92510 0.31267 0.10136 0.09200
H 	H 	0.91800 0.32950 0.09380 -0.03100
C 	C 	0.91872 0.33595 0.16867 0.08900
H 	H 	0.90130 0.32680 0.17070 -0.01800
C 	C 	0.99248 0.39231 0.25281 0.09000
H 	H 	0.01090 0.39920 0.25030 -0.01900
C 	C 	0.00334 0.35536 0.31645 0.09100
H 	H 	0.00030 0.33700 0.30980 -0.01300
C 	C 	0.94479 0.28190 0.13009 0.08800
H 	H 	0.95370 0.27390 0.14580 -0.01100
N 	N 	0.98185 0.38144 0.27729 -0.11100
Cu	Cu	0.87331 0.22050 0.41280 0.82600
Cu	Cu	0.89996 0.19205 0.47543 0.82500
N 	N 	0.89154 0.23353 0.47281 -0.23000
N 	N 	0.87914 0.24548 0.44880 -0.21300
N 	N 	0.85658 0.18459 0.42807 -0.23100
N 	N 	0.86409 0.17447 0.45514 -0.21000
N 	N 	0.89161 0.34201 0.51677 -0.23000
N 	N 	0.86205 0.34033 0.51573 -0.21700
C 	C 	0.90180 0.31936 0.50436 0.08500
H 	H 	0.92100 0.31520 0.50190 -0.02400
N 	N 	0.87960 0.30296 0.49569 -0.11100
C 	C 	0.87321 0.27194 0.45450 0.09000
H 	H 	0.86480 0.28490 0.44210 -0.01200
N 	N 	0.76847 0.10676 0.43822 -0.22000
N 	N 	0.80954 0.12768 0.43652 -0.11100
N 	N 	0.78825 0.08835 0.42572 -0.23400
N 	N 	0.82989 0.14859 0.43877 -0.11000
C 	C 	0.84811 0.15275 0.46092 0.09300
H 	H 	0.84890 0.14180 0.47740 -0.01200
C 	C 	0.81267 0.10136 0.42510 0.09200
H 	H 	0.82950 0.09380 0.41800 -0.03100
C 	C 	0.83595 0.16867 0.41872 0.08900
H 	H 	0.82680 0.17070 0.40130 -0.01800
C 	C 	0.89231 0.25281 0.49248 0.09000
H 	H 	0.89920 0.25030 0.51090 -0.01900
C 	C 	0.85536 0.31645 0.50334 0.09100
H 	H 	0.83700 0.30980 0.50030 -0.01300
C 	C 	0.78190 0.13009 0.44479 0.08800
H 	H 	0.77390 0.14580 0.45370 -0.01100
N 	N 	0.88144 0.27729 0.48185 -0.11100
Cu	Cu	0.87331 0.72050 0.91280 0.82600
Cu	Cu	0.89996 0.69205 0.97543 0.82500
N 	N 	0.89154 0.73353 0.97281 -0.23000
N 	N 	0.87914 0.74548 0.94880 -0.21300
N 	N 	0.85658 0.68459 0.92807 -0.23100
N 	N 	0.86409 0.67447 0.95514 -0.21000
N 	N 	0.89161 0.84201 0.01677 -0.23000
N 	N 	0.86205 0.84033 0.01573 -0.21700
C 	C 	0.90180 0.81936 0.00436 0.08500
H 	H 	0.92100 0.81520 0.00190 -0.02400
N 	N 	0.87960 0.80296 0.99569 -0.11100
C 	C 	0.87321 0.77194 0.95450 0.09000
H 	H 	0.86480 0.78490 0.94210 -0.01200
N 	N 	0.76847 0.60676 0.93822 -0.22000
N 	N 	0.80954 0.62768 0.93652 -0.11100
N 	N 	0.78825 0.58835 0.92572 -0.23400
N 	N 	0.82989 0.64859 0.93877 -0.11000
C 	C 	0.84811 0.65275 0.96092 0.09300
H 	H 	0.84890 0.64180 0.97740 -0.01200
C 	C 	0.81267 0.60136 0.92510 0.09200
H 	H 	0.82950 0.59380 0.91800 -0.03100
C 	C 	0.83595 0.66867 0.91872 0.08900
H 	H 	0.82680 0.67070 0.90130 -0.01800
C 	C 	0.89231 0.75281 0.99248 0.09000
H 	H 	0.89920 0.75030 0.01090 -0.01900
C 	C 	0.85536 0.81645 0.00334 0.09100
H 	H 	0.83700 0.80980 0.00030 -0.01300
C 	C 	0.78190 0.63009 0.94479 0.08800
H 	H 	0.77390 0.64580 0.95370 -0.01100
N 	N 	0.88144 0.77729 0.98185 -0.11100
Cu	Cu	0.37331 0.22050 0.91280 0.82600
Cu	Cu	0.39996 0.19205 0.97543 0.82500
N 	N 	0.39154 0.23353 0.97281 -0.23000
N 	N 	0.37914 0.24548 0.94880 -0.21300
N 	N 	0.35658 0.18459 0.92807 -0.23100
N 	N 	0.36409 0.17447 0.95514 -0.21000
N 	N 	0.39161 0.34201 0.01677 -0.23000
N 	N 	0.36205 0.34033 0.01573 -0.21700
C 	C 	0.40180 0.31936 0.00436 0.08500
H 	H 	0.42100 0.31520 0.00190 -0.02400
N 	N 	0.37960 0.30296 0.99569 -0.11100
C 	C 	0.37321 0.27194 0.95450 0.09000
H 	H 	0.36480 0.28490 0.94210 -0.01200
N 	N 	0.26847 0.10676 0.93822 -0.22000
N 	N 	0.30954 0.12768 0.93652 -0.11100
N 	N 	0.28825 0.08835 0.92572 -0.23400
N 	N 	0.32989 0.14859 0.93877 -0.11000
C 	C 	0.34811 0.15275 0.96092 0.09300
H 	H 	0.34890 0.14180 0.97740 -0.01200
C 	C 	0.31267 0.10136 0.92510 0.09200
H 	H 	0.32950 0.09380 0.91800 -0.03100
C 	C 	0.33595 0.16867 0.91872 0.08900
H 	H 	0.32680 0.17070 0.90130 -0.01800
C 	C 	0.39231 0.25281 0.99248 0.09000
H 	H 	0.39920 0.25030 0.01090 -0.01900
C 	C 	0.35536 0.31645 0.00334 0.09100
H 	H 	0.33700 0.30980 0.00030 -0.01300
C 	C 	0.28190 0.13009 0.94479 0.08800
H 	H 	0.27390 0.14580 0.95370 -0.01100
N 	N 	0.38144 0.27729 0.98185 -0.11100
Cu	Cu	0.37331 0.72050 0.41280 0.82600
Cu	Cu	0.39996 0.69205 0.47543 0.82500
N 	N 	0.39154 0.73353 0.47281 -0.23000
N 	N 	0.37914 0.74548 0.44880 -0.21300
N 	N 	0.35658 0.68459 0.42807 -0.23100
N 	N 	0.36409 0.67447 0.45514 -0.21000
N 	N 	0.39161 0.84201 0.51677 -0.23000
N 	N 	0.36205 0.84033 0.51573 -0.21700
C 	C 	0.40180 0.81936 0.50436 0.08500
H 	H 	0.42100 0.81520 0.50190 -0.02400
N 	N 	0.37960 0.80296 0.49569 -0.11100
C 	C 	0.37321 0.77194 0.45450 0.09000
H 	H 	0.36480 0.78490 0.44210 -0.01200
N 	N 	0.26847 0.60676 0.43822 -0.22000
N 	N 	0.30954 0.62768 0.43652 -0.11100
N 	N 	0.28825 0.58835 0.42572 -0.23400
N 	N 	0.32989 0.64859 0.43877 -0.11000
C 	C 	0.34811 0.65275 0.46092 0.09300
H 	H 	0.34890 0.64180 0.47740 -0.01200
C 	C 	0.31267 0.60136 0.42510 0.09200
H 	H 	0.32950 0.59380 0.41800 -0.03100
C 	C 	0.33595 0.66867 0.41872 0.08900
H 	H 	0.32680 0.67070 0.40130 -0.01800
C 	C 	0.39231 0.75281 0.49248 0.09000
H 	H 	0.39920 0.75030 0.51090 -0.01900
C 	C 	0.35536 0.81645 0.50334 0.09100
H 	H 	0.33700 0.80980 0.50030 -0.01300
C 	C 	0.28190 0.63009 0.44479 0.08800
H 	H 	0.27390 0.64580 0.45370 -0.01100
N 	N 	0.38144 0.77729 0.48185 -0.11100
Cu	Cu	0.37669 0.72050 0.33720 0.82600
Cu	Cu	0.35004 0.69205 0.27457 0.82500
N 	N 	0.35846 0.73353 0.27719 -0.23000
N 	N 	0.37086 0.74548 0.30120 -0.21300
N 	N 	0.39342 0.68459 0.32193 -0.23100
N 	N 	0.38591 0.67447 0.29486 -0.21000
N 	N 	0.35839 0.84201 0.23323 -0.23000
N 	N 	0.38795 0.84033 0.23427 -0.21700
C 	C 	0.34820 0.81936 0.24564 0.08500
H 	H 	0.32900 0.81520 0.24810 -0.02400
N 	N 	0.37040 0.80296 0.25431 -0.11100
C 	C 	0.37679 0.77194 0.29550 0.09000
H 	H 	0.38520 0.78490 0.30790 -0.01200
N 	N 	0.48153 0.60676 0.31178 -0.22000
N 	N 	0.44046 0.62768 0.31348 -0.11100
N 	N 	0.46175 0.58835 0.32428 -0.23400
N 	N 	0.42011 0.64859 0.31123 -0.11000
C 	C 	0.40189 0.65275 0.28908 0.09300
H 	H 	0.40110 0.64180 0.27260 -0.01200
C 	C 	0.43733 0.60136 0.32490 0.09200
H 	H 	0.42050 0.59380 0.33200 -0.03100
C 	C 	0.41405 0.66867 0.33128 0.08900
H 	H 	0.42320 0.67070 0.34870 -0.01800
C 	C 	0.35769 0.75281 0.25752 0.09000
H 	H 	0.35080 0.75030 0.23910 -0.01900
C 	C 	0.39464 0.81645 0.24666 0.09100
H 	H 	0.41300 0.80980 0.24970 -0.01300
C 	C 	0.46810 0.63009 0.30521 0.08800
H 	H 	0.47610 0.64580 0.29630 -0.01100
N 	N 	0.36856 0.77729 0.26815 -0.11100
Cu	Cu	0.37669 0.22050 0.83720 0.82600
Cu	Cu	0.35004 0.19205 0.77457 0.82500
N 	N 	0.35846 0.23353 0.77719 -0.23000
N 	N 	0.37086 0.24548 0.80120 -0.21300
N 	N 	0.39342 0.18459 0.82193 -0.23100
N 	N 	0.38591 0.17447 0.79486 -0.21000
N 	N 	0.35839 0.34201 0.73323 -0.23000
N 	N 	0.38795 0.34033 0.73427 -0.21700
C 	C 	0.34820 0.31936 0.74564 0.08500
H 	H 	0.32900 0.31520 0.74810 -0.02400
N 	N 	0.37040 0.30296 0.75431 -0.11100
C 	C 	0.37679 0.27194 0.79550 0.09000
H 	H 	0.38520 0.28490 0.80790 -0.01200
N 	N 	0.48153 0.10676 0.81178 -0.22000
N 	N 	0.44046 0.12768 0.81348 -0.11100
N 	N 	0.46175 0.08835 0.82428 -0.23400
N 	N 	0.42011 0.14859 0.81123 -0.11000
C 	C 	0.40189 0.15275 0.78908 0.09300
H 	H 	0.40110 0.14180 0.77260 -0.01200
C 	C 	0.43733 0.10136 0.82490 0.09200
H 	H 	0.42050 0.09380 0.83200 -0.03100
C 	C 	0.41405 0.16867 0.83128 0.08900
H 	H 	0.42320 0.17070 0.84870 -0.01800
C 	C 	0.35769 0.25281 0.75752 0.09000
H 	H 	0.35080 0.25030 0.73910 -0.01900
C 	C 	0.39464 0.31645 0.74666 0.09100
H 	H 	0.41300 0.30980 0.74970 -0.01300
C 	C 	0.46810 0.13009 0.80521 0.08800
H 	H 	0.47610 0.14580 0.79630 -0.01100
N 	N 	0.36856 0.27729 0.76815 -0.11100
Cu	Cu	0.87669 0.72050 0.83720 0.82600
Cu	Cu	0.85004 0.69205 0.77457 0.82500
N 	N 	0.85846 0.73353 0.77719 -0.23000
N 	N 	0.87086 0.74548 0.80120 -0.21300
N 	N 	0.89342 0.68459 0.82193 -0.23100
N 	N 	0.88591 0.67447 0.79486 -0.21000
N 	N 	0.85839 0.84201 0.73323 -0.23000
N 	N 	0.88795 0.84033 0.73427 -0.21700
C 	C 	0.84820 0.81936 0.74564 0.08500
H 	H 	0.82900 0.81520 0.74810 -0.02400
N 	N 	0.87040 0.80296 0.75431 -0.11100
C 	C 	0.87679 0.77194 0.79550 0.09000
H 	H 	0.88520 0.78490 0.80790 -0.01200
N 	N 	0.98153 0.60676 0.81178 -0.22000
N 	N 	0.94046 0.62768 0.81348 -0.11100
N 	N 	0.96175 0.58835 0.82428 -0.23400
N 	N 	0.92011 0.64859 0.81123 -0.11000
C 	C 	0.90189 0.65275 0.78908 0.09300
H 	H 	0.90110 0.64180 0.77260 -0.01200
C 	C 	0.93733 0.60136 0.82490 0.09200
H 	H 	0.92050 0.59380 0.83200 -0.03100
C 	C 	0.91405 0.66867 0.83128 0.08900
H 	H 	0.92320 0.67070 0.84870 -0.01800
C 	C 	0.85769 0.75281 0.75752 0.09000
H 	H 	0.85080 0.75030 0.73910 -0.01900
C 	C 	0.89464 0.81645 0.74666 0.09100
H 	H 	0.91300 0.80980 0.74970 -0.01300
C 	C 	0.96810 0.63009 0.80521 0.08800
H 	H 	0.97610 0.64580 0.79630 -0.01100
N 	N 	0.86856 0.77729 0.76815 -0.11100
Cu	Cu	0.87669 0.22050 0.33720 0.82600
Cu	Cu	0.85004 0.19205 0.27457 0.82500
N 	N 	0.85846 0.23353 0.27719 -0.23000
N 	N 	0.87086 0.24548 0.30120 -0.21300
N 	N 	0.89342 0.18459 0.32193 -0.23100
N 	N 	0.88591 0.17447 0.29486 -0.21000
N 	N 	0.85839 0.34201 0.23323 -0.23000
N 	N 	0.88795 0.34033 0.23427 -0.21700
C 	C 	0.84820 0.31936 0.24564 0.08500
H 	H 	0.82900 0.31520 0.24810 -0.02400
N 	N 	0.87040 0.30296 0.25431 -0.11100
C 	C 	0.87679 0.27194 0.29550 0.09000
H 	H 	0.88520 0.28490 0.30790 -0.01200
N 	N 	0.98153 0.10676 0.31178 -0.22000
N 	N 	0.94046 0.12768 0.31348 -0.11100
N 	N 	0.96175 0.08835 0.32428 -0.23400
N 	N 	0.92011 0.14859 0.31123 -0.11000
C 	C 	0.90189 0.15275 0.28908 0.09300
H 	H 	0.90110 0.14180 0.27260 -0.01200
C 	C 	0.93733 0.10136 0.32490 0.09200
H 	H 	0.92050 0.09380 0.33200 -0.03100
C 	C 	0.91405 0.16867 0.33128 0.08900
H 	H 	0.92320 0.17070 0.34870 -0.01800
C 	C 	0.85769 0.25281 0.25752 0.09000
H 	H 	0.85080 0.25030 0.23910 -0.01900
C 	C 	0.89464 0.31645 0.24666 0.09100
H 	H 	0.91300 0.30980 0.24970 -0.01300
C 	C 	0.96810 0.13009 0.30521 0.08800
H 	H 	0.97610 0.14580 0.29630 -0.01100
N 	N 	0.86856 0.27729 0.26815 -0.11100
Cu	Cu	0.87669 0.02951 0.91280 0.82600
Cu	Cu	0.85004 0.05795 0.97543 0.82500
N 	N 	0.85846 0.01647 0.97281 -0.23000
N 	N 	0.87086 0.00452 0.94880 -0.21300
N 	N 	0.89342 0.06541 0.92807 -0.23100
N 	N 	0.88591 0.07553 0.95514 -0.21000
N 	N 	0.85839 0.90799 0.01677 -0.23000
N 	N 	0.88795 0.90967 0.01573 -0.21700
C 	C 	0.84820 0.93064 0.00436 0.08500
H 	H 	0.82900 0.93480 0.00190 -0.02400
N 	N 	0.87040 0.94704 0.99569 -0.11100
C 	C 	0.87679 0.97806 0.95450 0.09000
H 	H 	0.88520 0.96510 0.94210 -0.01200
N 	N 	0.98153 0.14324 0.93822 -0.22000
N 	N 	0.94046 0.12232 0.93652 -0.11100
N 	N 	0.96175 0.16165 0.92572 -0.23400
N 	N 	0.92011 0.10141 0.93877 -0.11000
C 	C 	0.90189 0.09725 0.96092 0.09300
H 	H 	0.90110 0.10820 0.97740 -0.01200
C 	C 	0.93733 0.14864 0.92510 0.09200
H 	H 	0.92050 0.15620 0.91800 -0.03100
C 	C 	0.91405 0.08133 0.91872 0.08900
H 	H 	0.92320 0.07930 0.90130 -0.01800
C 	C 	0.85769 0.99719 0.99248 0.09000
H 	H 	0.85080 0.99970 0.01090 -0.01900
C 	C 	0.89464 0.93355 0.00334 0.09100
H 	H 	0.91300 0.94020 0.00030 -0.01300
C 	C 	0.96810 0.11991 0.94479 0.08800
H 	H 	0.97610 0.10420 0.95370 -0.01100
N 	N 	0.86856 0.97271 0.98185 -0.11100
Cu	Cu	0.87669 0.52951 0.41280 0.82600
Cu	Cu	0.85004 0.55795 0.47543 0.82500
N 	N 	0.85846 0.51647 0.47281 -0.23000
N 	N 	0.87086 0.50452 0.44880 -0.21300
N 	N 	0.89342 0.56541 0.42807 -0.23100
N 	N 	0.88591 0.57553 0.45514 -0.21000
N 	N 	0.85839 0.40799 0.51677 -0.23000
N 	N 	0.88795 0.40967 0.51573 -0.21700
C 	C 	0.84820 0.43064 0.50436 0.08500
H 	H 	0.82900 0.43480 0.50190 -0.02400
N 	N 	0.87040 0.44704 0.49569 -0.11100
C 	C 	0.87679 0.47806 0.45450 0.09000
H 	H 	0.88520 0.46510 0.44210 -0.01200
N 	N 	0.98153 0.64324 0.43822 -0.22000
N 	N 	0.94046 0.62232 0.43652 -0.11100
N 	N 	0.96175 0.66165 0.42572 -0.23400
N 	N 	0.92011 0.60141 0.43877 -0.11000
C 	C 	0.90189 0.59725 0.46092 0.09300
H 	H 	0.90110 0.60820 0.47740 -0.01200
C 	C 	0.93733 0.64864 0.42510 0.09200
H 	H 	0.92050 0.65620 0.41800 -0.03100
C 	C 	0.91405 0.58133 0.41872 0.08900
H 	H 	0.92320 0.57930 0.40130 -0.01800
C 	C 	0.85769 0.49719 0.49248 0.09000
H 	H 	0.85080 0.49970 0.51090 -0.01900
C 	C 	0.89464 0.43355 0.50334 0.09100
H 	H 	0.91300 0.44020 0.50030 -0.01300
C 	C 	0.96810 0.61991 0.44479 0.08800
H 	H 	0.97610 0.60420 0.45370 -0.01100
N 	N 	0.86856 0.47271 0.48185 -0.11100
Cu	Cu	0.37669 0.02951 0.41280 0.82600
Cu	Cu	0.35004 0.05795 0.47543 0.82500
N 	N 	0.35846 0.01647 0.47281 -0.23000
N 	N 	0.37086 0.00452 0.44880 -0.21300
N 	N 	0.39342 0.06541 0.42807 -0.23100
N 	N 	0.38591 0.07553 0.45514 -0.21000
N 	N 	0.35839 0.90799 0.51677 -0.23000
N 	N 	0.38795 0.90967 0.51573 -0.21700
C 	C 	0.34820 0.93064 0.50436 0.08500
H 	H 	0.32900 0.93480 0.50190 -0.02400
N 	N 	0.37040 0.94704 0.49569 -0.11100
C 	C 	0.37679 0.97806 0.45450 0.09000
H 	H 	0.38520 0.96510 0.44210 -0.01200
N 	N 	0.48153 0.14324 0.43822 -0.22000
N 	N 	0.44046 0.12232 0.43652 -0.11100
N 	N 	0.46175 0.16165 0.42572 -0.23400
N 	N 	0.42011 0.10141 0.43877 -0.11000
C 	C 	0.40189 0.09725 0.46092 0.09300
H 	H 	0.40110 0.10820 0.47740 -0.01200
C 	C 	0.43733 0.14864 0.42510 0.09200
H 	H 	0.42050 0.15620 0.41800 -0.03100
C 	C 	0.41405 0.08133 0.41872 0.08900
H 	H 	0.42320 0.07930 0.40130 -0.01800
C 	C 	0.35769 0.99719 0.49248 0.09000
H 	H 	0.35080 0.99970 0.51090 -0.01900
C 	C 	0.39464 0.93355 0.50334 0.09100
H 	H 	0.41300 0.94020 0.50030 -0.01300
C 	C 	0.46810 0.11991 0.44479 0.08800
H 	H 	0.47610 0.10420 0.45370 -0.01100
N 	N 	0.36856 0.97271 0.48185 -0.11100
Cu	Cu	0.37669 0.52951 0.91280 0.82600
Cu	Cu	0.35004 0.55795 0.97543 0.82500
N 	N 	0.35846 0.51647 0.97281 -0.23000
N 	N 	0.37086 0.50452 0.94880 -0.21300
N 	N 	0.39342 0.56541 0.92807 -0.23100
N 	N 	0.38591 0.57553 0.95514 -0.21000
N 	N 	0.35839 0.40799 0.01677 -0.23000
N 	N 	0.38795 0.40967 0.01573 -0.21700
C 	C 	0.34820 0.43064 0.00436 0.08500
H 	H 	0.32900 0.43480 0.00190 -0.02400
N 	N 	0.37040 0.44704 0.99569 -0.11100
C 	C 	0.37679 0.47806 0.95450 0.09000
H 	H 	0.38520 0.46510 0.94210 -0.01200
N 	N 	0.48153 0.64324 0.93822 -0.22000
N 	N 	0.44046 0.62232 0.93652 -0.11100
N 	N 	0.46175 0.66165 0.92572 -0.23400
N 	N 	0.42011 0.60141 0.93877 -0.11000
C 	C 	0.40189 0.59725 0.96092 0.09300
H 	H 	0.40110 0.60820 0.97740 -0.01200
C 	C 	0.43733 0.64864 0.92510 0.09200
H 	H 	0.42050 0.65620 0.91800 -0.03100
C 	C 	0.41405 0.58133 0.91872 0.08900
H 	H 	0.42320 0.57930 0.90130 -0.01800
C 	C 	0.35769 0.49719 0.99248 0.09000
H 	H 	0.35080 0.49970 0.01090 -0.01900
C 	C 	0.39464 0.43355 0.00334 0.09100
H 	H 	0.41300 0.44020 0.00030 -0.01300
C 	C 	0.46810 0.61991 0.94479 0.08800
H 	H 	0.47610 0.60420 0.95370 -0.01100
N 	N 	0.36856 0.47271 0.98185 -0.11100
Cu	Cu	0.37331 0.52951 0.83720 0.82600
Cu	Cu	0.39996 0.55795 0.77457 0.82500
N 	N 	0.39154 0.51647 0.77719 -0.23000
N 	N 	0.37914 0.50452 0.80120 -0.21300
N 	N 	0.35658 0.56541 0.82193 -0.23100
N 	N 	0.36409 0.57553 0.79486 -0.21000
N 	N 	0.39161 0.40799 0.73323 -0.23000
N 	N 	0.36205 0.40967 0.73427 -0.21700
C 	C 	0.40180 0.43064 0.74564 0.08500
H 	H 	0.42100 0.43480 0.74810 -0.02400
N 	N 	0.37960 0.44704 0.75431 -0.11100
C 	C 	0.37321 0.47806 0.79550 0.09000
H 	H 	0.36480 0.46510 0.80790 -0.01200
N 	N 	0.26847 0.64324 0.81178 -0.22000
N 	N 	0.30954 0.62232 0.81348 -0.11100
N 	N 	0.28825 0.66165 0.82428 -0.23400
N 	N 	0.32989 0.60141 0.81123 -0.11000
C 	C 	0.34811 0.59725 0.78908 0.09300
H 	H 	0.34890 0.60820 0.77260 -0.01200
C 	C 	0.31267 0.64864 0.82490 0.09200
H 	H 	0.32950 0.65620 0.83200 -0.03100
C 	C 	0.33595 0.58133 0.83128 0.08900
H 	H 	0.32680 0.57930 0.84870 -0.01800
C 	C 	0.39231 0.49719 0.75752 0.09000
H 	H 	0.39920 0.49970 0.73910 -0.01900
C 	C 	0.35536 0.43355 0.74666 0.09100
H 	H 	0.33700 0.44020 0.74970 -0.01300
C 	C 	0.28190 0.61991 0.80521 0.08800
H 	H 	0.27390 0.60420 0.79630 -0.01100
N 	N 	0.38144 0.47271 0.76815 -0.11100
Cu	Cu	0.37331 0.02951 0.33720 0.82600
Cu	Cu	0.39996 0.05795 0.27457 0.82500
N 	N 	0.39154 0.01647 0.27719 -0.23000
N 	N 	0.37914 0.00452 0.30120 -0.21300
N 	N 	0.35658 0.06541 0.32193 -0.23100
N 	N 	0.36409 0.07553 0.29486 -0.21000
N 	N 	0.39161 0.90799 0.23323 -0.23000
N 	N 	0.36205 0.90967 0.23427 -0.21700
C 	C 	0.40180 0.93064 0.24564 0.08500
H 	H 	0.42100 0.93480 0.24810 -0.02400
N 	N 	0.37960 0.94704 0.25431 -0.11100
C 	C 	0.37321 0.97806 0.29550 0.09000
H 	H 	0.36480 0.96510 0.30790 -0.01200
N 	N 	0.26847 0.14324 0.31178 -0.22000
N 	N 	0.30954 0.12232 0.31348 -0.11100
N 	N 	0.28825 0.16165 0.32428 -0.23400
N 	N 	0.32989 0.10141 0.31123 -0.11000
C 	C 	0.34811 0.09725 0.28908 0.09300
H 	H 	0.34890 0.10820 0.27260 -0.01200
C 	C 	0.31267 0.14864 0.32490 0.09200
H 	H 	0.32950 0.15620 0.33200 -0.03100
C 	C 	0.33595 0.08133 0.33128 0.08900
H 	H 	0.32680 0.07930 0.34870 -0.01800
C 	C 	0.39231 0.99719 0.25752 0.09000
H 	H 	0.39920 0.99970 0.23910 -0.01900
C 	C 	0.35536 0.93355 0.24666 0.09100
H 	H 	0.33700 0.94020 0.24970 -0.01300
C 	C 	0.28190 0.11991 0.30521 0.08800
H 	H 	0.27390 0.10420 0.29630 -0.01100
N 	N 	0.38144 0.97271 0.26815 -0.11100
Cu	Cu	0.87331 0.52951 0.33720 0.82600
Cu	Cu	0.89996 0.55795 0.27457 0.82500
N 	N 	0.89154 0.51647 0.27719 -0.23000
N 	N 	0.87914 0.50452 0.30120 -0.21300
N 	N 	0.85658 0.56541 0.32193 -0.23100
N 	N 	0.86409 0.57553 0.29486 -0.21000
N 	N 	0.89161 0.40799 0.23323 -0.23000
N 	N 	0.86205 0.40967 0.23427 -0.21700
C 	C 	0.90180 0.43064 0.24564 0.08500
H 	H 	0.92100 0.43480 0.24810 -0.02400
N 	N 	0.87960 0.44704 0.25431 -0.11100
C 	C 	0.87321 0.47806 0.29550 0.09000
H 	H 	0.86480 0.46510 0.30790 -0.01200
N 	N 	0.76847 0.64324 0.31178 -0.22000
N 	N 	0.80954 0.62232 0.31348 -0.11100
N 	N 	0.78825 0.66165 0.32428 -0.23400
N 	N 	0.82989 0.60141 0.31123 -0.11000
C 	C 	0.84811 0.59725 0.28908 0.09300
H 	H 	0.84890 0.60820 0.27260 -0.01200
C 	C 	0.81267 0.64864 0.32490 0.09200
H 	H 	0.82950 0.65620 0.33200 -0.03100
C 	C 	0.83595 0.58133 0.33128 0.08900
H 	H 	0.82680 0.57930 0.34870 -0.01800
C 	C 	0.89231 0.49719 0.25752 0.09000
H 	H 	0.89920 0.49970 0.23910 -0.01900
C 	C 	0.85536 0.43355 0.24666 0.09100
H 	H 	0.83700 0.44020 0.24970 -0.01300
C 	C 	0.78190 0.61991 0.30521 0.08800
H 	H 	0.77390 0.60420 0.29630 -0.01100
N 	N 	0.88144 0.47271 0.26815 -0.11100
Cu	Cu	0.87331 0.02951 0.83720 0.82600
Cu	Cu	0.89996 0.05795 0.77457 0.82500
N 	N 	0.89154 0.01647 0.77719 -0.23000
N 	N 	0.87914 0.00452 0.80120 -0.21300
N 	N 	0.85658 0.06541 0.82193 -0.23100
N 	N 	0.86409 0.07553 0.79486 -0.21000
N 	N 	0.89161 0.90799 0.73323 -0.23000
N 	N 	0.86205 0.90967 0.73427 -0.21700
C 	C 	0.90180 0.93064 0.74564 0.08500
H 	H 	0.92100 0.93480 0.74810 -0.02400
N 	N 	0.87960 0.94704 0.75431 -0.11100
C 	C 	0.87321 0.97806 0.79550 0.09000
H 	H 	0.86480 0.96510 0.80790 -0.01200
N 	N 	0.76847 0.14324 0.81178 -0.22000
N 	N 	0.80954 0.12232 0.81348 -0.11100
N 	N 	0.78825 0.16165 0.82428 -0.23400
N 	N 	0.82989 0.10141 0.81123 -0.11000
C 	C 	0.84811 0.09725 0.78908 0.09300
H 	H 	0.84890 0.10820 0.77260 -0.01200
C 	C 	0.81267 0.14864 0.82490 0.09200
H 	H 	0.82950 0.15620 0.83200 -0.03100
C 	C 	0.83595 0.08133 0.83128 0.08900
H 	H 	0.82680 0.07930 0.84870 -0.01800
C 	C 	0.89231 0.99719 0.75752 0.09000
H 	H 	0.89920 0.99970 0.73910 -0.01900
C 	C 	0.85536 0.93355 0.74666 0.09100
H 	H 	0.83700 0.94020 0.74970 -0.01300
C 	C 	0.78190 0.11991 0.80521 0.08800
H 	H 	0.77390 0.10420 0.79630 -0.01100
N 	N 	0.88144 0.97271 0.76815 -0.11100
Cu	Cu	0.72050 0.33720 0.37669 0.82600
Cu	Cu	0.69205 0.27457 0.35004 0.82500
N 	N 	0.73353 0.27719 0.35846 -0.23000
N 	N 	0.74548 0.30120 0.37086 -0.21300
N 	N 	0.68459 0.32193 0.39342 -0.23100
N 	N 	0.67447 0.29486 0.38591 -0.21000
N 	N 	0.84201 0.23323 0.35839 -0.23000
N 	N 	0.84033 0.23427 0.38795 -0.21700
C 	C 	0.81936 0.24564 0.34820 0.08500
H 	H 	0.81520 0.24810 0.32900 -0.02400
N 	N 	0.80296 0.25431 0.37040 -0.11100
C 	C 	0.77194 0.29550 0.37679 0.09000
H 	H 	0.78490 0.30790 0.38520 -0.01200
N 	N 	0.60676 0.31178 0.48153 -0.22000
N 	N 	0.62768 0.31348 0.44046 -0.11100
N 	N 	0.58835 0.32428 0.46175 -0.23400
N 	N 	0.64859 0.31123 0.42011 -0.11000
C 	C 	0.65275 0.28908 0.40189 0.09300
H 	H 	0.64180 0.27260 0.40110 -0.01200
C 	C 	0.60136 0.32490 0.43733 0.09200
H 	H 	0.59380 0.33200 0.42050 -0.03100
C 	C 	0.66867 0.33128 0.41405 0.08900
H 	H 	0.67070 0.34870 0.42320 -0.01800
C 	C 	0.75281 0.25752 0.35769 0.09000
H 	H 	0.75030 0.23910 0.35080 -0.01900
C 	C 	0.81645 0.24666 0.39464 0.09100
H 	H 	0.80980 0.24970 0.41300 -0.01300
C 	C 	0.63009 0.30521 0.46810 0.08800
H 	H 	0.64580 0.29630 0.47610 -0.01100
N 	N 	0.77729 0.26815 0.36856 -0.11100
Cu	Cu	0.72050 0.83720 0.87669 0.82600
Cu	Cu	0.69205 0.77457 0.85004 0.82500
N 	N 	0.73353 0.77719 0.85846 -0.23000
N 	N 	0.74548 0.80120 0.87086 -0.21300
N 	N 	0.68459 0.82193 0.89342 -0.23100
N 	N 	0.67447 0.79486 0.88591 -0.21000
N 	N 	0.84201 0.73323 0.85839 -0.23000
N 	N 	0.84033 0.73427 0.88795 -0.21700
C 	C 	0.81936 0.74564 0.84820 0.08500
H 	H 	0.81520 0.74810 0.82900 -0.02400
N 	N 	0.80296 0.75431 0.87040 -0.11100
C 	C 	0.77194 0.79550 0.87679 0.09000
H 	H 	0.78490 0.80790 0.88520 -0.01200
N 	N 	0.60676 0.81178 0.98153 -0.22000
N 	N 	0.62768 0.81348 0.94046 -0.11100
N 	N 	0.58835 0.82428 0.96175 -0.23400
N 	N 	0.64859 0.81123 0.92011 -0.11000
C 	C 	0.65275 0.78908 0.90189 0.09300
H 	H 	0.64180 0.77260 0.90110 -0.01200
C 	C 	0.60136 0.82490 0.93733 0.09200
H 	H 	0.59380 0.83200 0.92050 -0.03100
C 	C 	0.66867 0.83128 0.91405 0.08900
H 	H 	0.67070 0.84870 0.92320 -0.01800
C 	C 	0.75281 0.75752 0.85769 0.09000
H 	H 	0.75030 0.73910 0.85080 -0.01900
C 	C 	0.81645 0.74666 0.89464 0.09100
H 	H 	0.80980 0.74970 0.91300 -0.01300
C 	C 	0.63009 0.80521 0.96810 0.08800
H 	H 	0.64580 0.79630 0.97610 -0.01100
N 	N 	0.77729 0.76815 0.86856 -0.11100
Cu	Cu	0.22050 0.33720 0.87669 0.82600
Cu	Cu	0.19205 0.27457 0.85004 0.82500
N 	N 	0.23353 0.27719 0.85846 -0.23000
N 	N 	0.24548 0.30120 0.87086 -0.21300
N 	N 	0.18459 0.32193 0.89342 -0.23100
N 	N 	0.17447 0.29486 0.88591 -0.21000
N 	N 	0.34201 0.23323 0.85839 -0.23000
N 	N 	0.34033 0.23427 0.88795 -0.21700
C 	C 	0.31936 0.24564 0.84820 0.08500
H 	H 	0.31520 0.24810 0.82900 -0.02400
N 	N 	0.30296 0.25431 0.87040 -0.11100
C 	C 	0.27194 0.29550 0.87679 0.09000
H 	H 	0.28490 0.30790 0.88520 -0.01200
N 	N 	0.10676 0.31178 0.98153 -0.22000
N 	N 	0.12768 0.31348 0.94046 -0.11100
N 	N 	0.08835 0.32428 0.96175 -0.23400
N 	N 	0.14859 0.31123 0.92011 -0.11000
C 	C 	0.15275 0.28908 0.90189 0.09300
H 	H 	0.14180 0.27260 0.90110 -0.01200
C 	C 	0.10136 0.32490 0.93733 0.09200
H 	H 	0.09380 0.33200 0.92050 -0.03100
C 	C 	0.16867 0.33128 0.91405 0.08900
H 	H 	0.17070 0.34870 0.92320 -0.01800
C 	C 	0.25281 0.25752 0.85769 0.09000
H 	H 	0.25030 0.23910 0.85080 -0.01900
C 	C 	0.31645 0.24666 0.89464 0.09100
H 	H 	0.30980 0.24970 0.91300 -0.01300
C 	C 	0.13009 0.30521 0.96810 0.08800
H 	H 	0.14580 0.29630 0.97610 -0.01100
N 	N 	0.27729 0.26815 0.86856 -0.11100
Cu	Cu	0.22050 0.83720 0.37669 0.82600
Cu	Cu	0.19205 0.77457 0.35004 0.82500
N 	N 	0.23353 0.77719 0.35846 -0.23000
N 	N 	0.24548 0.80120 0.37086 -0.21300
N 	N 	0.18459 0.82193 0.39342 -0.23100
N 	N 	0.17447 0.79486 0.38591 -0.21000
N 	N 	0.34201 0.73323 0.35839 -0.23000
N 	N 	0.34033 0.73427 0.38795 -0.21700
C 	C 	0.31936 0.74564 0.34820 0.08500
H 	H 	0.31520 0.74810 0.32900 -0.02400
N 	N 	0.30296 0.75431 0.37040 -0.11100
C 	C 	0.27194 0.79550 0.37679 0.09000
H 	H 	0.28490 0.80790 0.38520 -0.01200
N 	N 	0.10676 0.81178 0.48153 -0.22000
N 	N 	0.12768 0.81348 0.44046 -0.11100
N 	N 	0.08835 0.82428 0.46175 -0.23400
N 	N 	0.14859 0.81123 0.42011 -0.11000
C 	C 	0.15275 0.78908 0.40189 0.09300
H 	H 	0.14180 0.77260 0.40110 -0.01200
C 	C 	0.10136 0.82490 0.43733 0.09200
H 	H 	0.09380 0.83200 0.42050 -0.03100
C 	C 	0.16867 0.83128 0.41405 0.08900
H 	H 	0.17070 0.84870 0.42320 -0.01800
C 	C 	0.25281 0.75752 0.35769 0.09000
H 	H 	0.25030 0.73910 0.35080 -0.01900
C 	C 	0.31645 0.74666 0.39464 0.09100
H 	H 	0.30980 0.74970 0.41300 -0.01300
C 	C 	0.13009 0.80521 0.46810 0.08800
H 	H 	0.14580 0.79630 0.47610 -0.01100
N 	N 	0.27729 0.76815 0.36856 -0.11100
Cu	Cu	0.22050 0.41280 0.87331 0.82600
Cu	Cu	0.19205 0.47543 0.89996 0.82500
N 	N 	0.23353 0.47281 0.89154 -0.23000
N 	N 	0.24548 0.44880 0.87914 -0.21300
N 	N 	0.18459 0.42807 0.85658 -0.23100
N 	N 	0.17447 0.45514 0.86409 -0.21000
N 	N 	0.34201 0.51677 0.89161 -0.23000
N 	N 	0.34033 0.51573 0.86205 -0.21700
C 	C 	0.31936 0.50436 0.90180 0.08500
H 	H 	0.31520 0.50190 0.92100 -0.02400
N 	N 	0.30296 0.49569 0.87960 -0.11100
C 	C 	0.27194 0.45450 0.87321 0.09000
H 	H 	0.28490 0.44210 0.86480 -0.01200
N 	N 	0.10676 0.43822 0.76847 -0.22000
N 	N 	0.12768 0.43652 0.80954 -0.11100
N 	N 	0.08835 0.42572 0.78825 -0.23400
N 	N 	0.14859 0.43877 0.82989 -0.11000
C 	C 	0.15275 0.46092 0.84811 0.09300
H 	H 	0.14180 0.47740 0.84890 -0.01200
C 	C 	0.10136 0.42510 0.81267 0.09200
H 	H 	0.09380 0.41800 0.82950 -0.03100
C 	C 	0.16867 0.41872 0.83595 0.08900
H 	H 	0.17070 0.40130 0.82680 -0.01800
C 	C 	0.25281 0.49248 0.89231 0.09000
H 	H 	0.25030 0.51090 0.89920 -0.01900
C 	C 	0.31645 0.50334 0.85536 0.09100
H 	H 	0.30980 0.50030 0.83700 -0.01300
C 	C 	0.13009 0.44479 0.78190 0.08800
H 	H 	0.14580 0.45370 0.77390 -0.01100
N 	N 	0.27729 0.48185 0.88144 -0.11100
Cu	Cu	0.22050 0.91280 0.37331 0.82600
Cu	Cu	0.19205 0.97543 0.39996 0.82500
N 	N 	0.23353 0.97281 0.39154 -0.23000
N 	N 	0.24548 0.94880 0.37914 -0.21300
N 	N 	0.18459 0.92807 0.35658 -0.23100
N 	N 	0.17447 0.95514 0.36409 -0.21000
N 	N 	0.34201 0.01677 0.39161 -0.23000
N 	N 	0.34033 0.01573 0.36205 -0.21700
C 	C 	0.31936 0.00436 0.40180 0.08500
H 	H 	0.31520 0.00190 0.42100 -0.02400
N 	N 	0.30296 0.99569 0.37960 -0.11100
C 	C 	0.27194 0.95450 0.37321 0.09000
H 	H 	0.28490 0.94210 0.36480 -0.01200
N 	N 	0.10676 0.93822 0.26847 -0.22000
N 	N 	0.12768 0.93652 0.30954 -0.11100
N 	N 	0.08835 0.92572 0.28825 -0.23400
N 	N 	0.14859 0.93877 0.32989 -0.11000
C 	C 	0.15275 0.96092 0.34811 0.09300
H 	H 	0.14180 0.97740 0.34890 -0.01200
C 	C 	0.10136 0.92510 0.31267 0.09200
H 	H 	0.09380 0.91800 0.32950 -0.03100
C 	C 	0.16867 0.91872 0.33595 0.08900
H 	H 	0.17070 0.90130 0.32680 -0.01800
C 	C 	0.25281 0.99248 0.39231 0.09000
H 	H 	0.25030 0.01090 0.39920 -0.01900
C 	C 	0.31645 0.00334 0.35536 0.09100
H 	H 	0.30980 0.00030 0.33700 -0.01300
C 	C 	0.13009 0.94479 0.28190 0.08800
H 	H 	0.14580 0.95370 0.27390 -0.01100
N 	N 	0.27729 0.98185 0.38144 -0.11100
Cu	Cu	0.72050 0.41280 0.37331 0.82600
Cu	Cu	0.69205 0.47543 0.39996 0.82500
N 	N 	0.73353 0.47281 0.39154 -0.23000
N 	N 	0.74548 0.44880 0.37914 -0.21300
N 	N 	0.68459 0.42807 0.35658 -0.23100
N 	N 	0.67447 0.45514 0.36409 -0.21000
N 	N 	0.84201 0.51677 0.39161 -0.23000
N 	N 	0.84033 0.51573 0.36205 -0.21700
C 	C 	0.81936 0.50436 0.40180 0.08500
H 	H 	0.81520 0.50190 0.42100 -0.02400
N 	N 	0.80296 0.49569 0.37960 -0.11100
C 	C 	0.77194 0.45450 0.37321 0.09000
H 	H 	0.78490 0.44210 0.36480 -0.01200
N 	N 	0.60676 0.43822 0.26847 -0.22000
N 	N 	0.62768 0.43652 0.30954 -0.11100
N 	N 	0.58835 0.42572 0.28825 -0.23400
N 	N 	0.64859 0.43877 0.32989 -0.11000
C 	C 	0.65275 0.46092 0.34811 0.09300
H 	H 	0.64180 0.47740 0.34890 -0.01200
C 	C 	0.60136 0.42510 0.31267 0.09200
H 	H 	0.59380 0.41800 0.32950 -0.03100
C 	C 	0.66867 0.41872 0.33595 0.08900
H 	H 	0.67070 0.40130 0.32680 -0.01800
C 	C 	0.75281 0.49248 0.39231 0.09000
H 	H 	0.75030 0.51090 0.39920 -0.01900
C 	C 	0.81645 0.50334 0.35536 0.09100
H 	H 	0.80980 0.50030 0.33700 -0.01300
C 	C 	0.63009 0.44479 0.28190 0.08800
H 	H 	0.64580 0.45370 0.27390 -0.01100
N 	N 	0.77729 0.48185 0.38144 -0.11100
Cu	Cu	0.72050 0.91280 0.87331 0.82600
Cu	Cu	0.69205 0.97543 0.89996 0.82500
N 	N 	0.73353 0.97281 0.89154 -0.23000
N 	N 	0.74548 0.94880 0.87914 -0.21300
N 	N 	0.68459 0.92807 0.85658 -0.23100
N 	N 	0.67447 0.95514 0.86409 -0.21000
N 	N 	0.84201 0.01677 0.89161 -0.23000
N 	N 	0.84033 0.01573 0.86205 -0.21700
C 	C 	0.81936 0.00436 0.90180 0.08500
H 	H 	0.81520 0.00190 0.92100 -0.02400
N 	N 	0.80296 0.99569 0.87960 -0.11100
C 	C 	0.77194 0.95450 0.87321 0.09000
H 	H 	0.78490 0.94210 0.86480 -0.01200
N 	N 	0.60676 0.93822 0.76847 -0.22000
N 	N 	0.62768 0.93652 0.80954 -0.11100
N 	N 	0.58835 0.92572 0.78825 -0.23400
N 	N 	0.64859 0.93877 0.82989 -0.11000
C 	C 	0.65275 0.96092 0.84811 0.09300
H 	H 	0.64180 0.97740 0.84890 -0.01200
C 	C 	0.60136 0.92510 0.81267 0.09200
H 	H 	0.59380 0.91800 0.82950 -0.03100
C 	C 	0.66867 0.91872 0.83595 0.08900
H 	H 	0.67070 0.90130 0.82680 -0.01800
C 	C 	0.75281 0.99248 0.89231 0.09000
H 	H 	0.75030 0.01090 0.89920 -0.01900
C 	C 	0.81645 0.00334 0.85536 0.09100
H 	H 	0.80980 0.00030 0.83700 -0.01300
C 	C 	0.63009 0.94479 0.78190 0.08800
H 	H 	0.64580 0.95370 0.77390 -0.01100
N 	N 	0.77729 0.98185 0.88144 -0.11100
Cu	Cu	0.52951 0.83720 0.37331 0.82600
Cu	Cu	0.55795 0.77457 0.39996 0.82500
N 	N 	0.51647 0.77719 0.39154 -0.23000
N 	N 	0.50452 0.80120 0.37914 -0.21300
N 	N 	0.56541 0.82193 0.35658 -0.23100
N 	N 	0.57553 0.79486 0.36409 -0.21000
N 	N 	0.40799 0.73323 0.39161 -0.23000
N 	N 	0.40967 0.73427 0.36205 -0.21700
C 	C 	0.43064 0.74564 0.40180 0.08500
H 	H 	0.43480 0.74810 0.42100 -0.02400
N 	N 	0.44704 0.75431 0.37960 -0.11100
C 	C 	0.47806 0.79550 0.37321 0.09000
H 	H 	0.46510 0.80790 0.36480 -0.01200
N 	N 	0.64324 0.81178 0.26847 -0.22000
N 	N 	0.62232 0.81348 0.30954 -0.11100
N 	N 	0.66165 0.82428 0.28825 -0.23400
N 	N 	0.60141 0.81123 0.32989 -0.11000
C 	C 	0.59725 0.78908 0.34811 0.09300
H 	H 	0.60820 0.77260 0.34890 -0.01200
C 	C 	0.64864 0.82490 0.31267 0.09200
H 	H 	0.65620 0.83200 0.32950 -0.03100
C 	C 	0.58133 0.83128 0.33595 0.08900
H 	H 	0.57930 0.84870 0.32680 -0.01800
C 	C 	0.49719 0.75752 0.39231 0.09000
H 	H 	0.49970 0.73910 0.39920 -0.01900
C 	C 	0.43355 0.74666 0.35536 0.09100
H 	H 	0.44020 0.74970 0.33700 -0.01300
C 	C 	0.61991 0.80521 0.28190 0.08800
H 	H 	0.60420 0.79630 0.27390 -0.01100
N 	N 	0.47271 0.76815 0.38144 -0.11100
Cu	Cu	0.52951 0.33720 0.87331 0.82600
Cu	Cu	0.55795 0.27457 0.89996 0.82500
N 	N 	0.51647 0.27719 0.89154 -0.23000
N 	N 	0.50452 0.30120 0.87914 -0.21300
N 	N 	0.56541 0.32193 0.85658 -0.23100
N 	N 	0.57553 0.29486 0.86409 -0.21000
N 	N 	0.40799 0.23323 0.89161 -0.23000
N 	N 	0.40967 0.23427 0.86205 -0.21700
C 	C 	0.43064 0.24564 0.90180 0.08500
H 	H 	0.43480 0.24810 0.92100 -0.02400
N 	N 	0.44704 0.25431 0.87960 -0.11100
C 	C 	0.47806 0.29550 0.87321 0.09000
H 	H 	0.46510 0.30790 0.86480 -0.01200
N 	N 	0.64324 0.31178 0.76847 -0.22000
N 	N 	0.62232 0.31348 0.80954 -0.11100
N 	N 	0.66165 0.32428 0.78825 -0.23400
N 	N 	0.60141 0.31123 0.82989 -0.11000
C 	C 	0.59725 0.28908 0.84811 0.09300
H 	H 	0.60820 0.27260 0.84890 -0.01200
C 	C 	0.64864 0.32490 0.81267 0.09200
H 	H 	0.65620 0.33200 0.82950 -0.03100
C 	C 	0.58133 0.33128 0.83595 0.08900
H 	H 	0.57930 0.34870 0.82680 -0.01800
C 	C 	0.49719 0.25752 0.89231 0.09000
H 	H 	0.49970 0.23910 0.89920 -0.01900
C 	C 	0.43355 0.24666 0.85536 0.09100
H 	H 	0.44020 0.24970 0.83700 -0.01300
C 	C 	0.61991 0.30521 0.78190 0.08800
H 	H 	0.60420 0.29630 0.77390 -0.01100
N 	N 	0.47271 0.26815 0.88144 -0.11100
Cu	Cu	0.02951 0.83720 0.87331 0.82600
Cu	Cu	0.05795 0.77457 0.89996 0.82500
N 	N 	0.01647 0.77719 0.89154 -0.23000
N 	N 	0.00452 0.80120 0.87914 -0.21300
N 	N 	0.06541 0.82193 0.85658 -0.23100
N 	N 	0.07553 0.79486 0.86409 -0.21000
N 	N 	0.90799 0.73323 0.89161 -0.23000
N 	N 	0.90967 0.73427 0.86205 -0.21700
C 	C 	0.93064 0.74564 0.90180 0.08500
H 	H 	0.93480 0.74810 0.92100 -0.02400
N 	N 	0.94704 0.75431 0.87960 -0.11100
C 	C 	0.97806 0.79550 0.87321 0.09000
H 	H 	0.96510 0.80790 0.86480 -0.01200
N 	N 	0.14324 0.81178 0.76847 -0.22000
N 	N 	0.12232 0.81348 0.80954 -0.11100
N 	N 	0.16165 0.82428 0.78825 -0.23400
N 	N 	0.10141 0.81123 0.82989 -0.11000
C 	C 	0.09725 0.78908 0.84811 0.09300
H 	H 	0.10820 0.77260 0.84890 -0.01200
C 	C 	0.14864 0.82490 0.81267 0.09200
H 	H 	0.15620 0.83200 0.82950 -0.03100
C 	C 	0.08133 0.83128 0.83595 0.08900
H 	H 	0.07930 0.84870 0.82680 -0.01800
C 	C 	0.99719 0.75752 0.89231 0.09000
H 	H 	0.99970 0.73910 0.89920 -0.01900
C 	C 	0.93355 0.74666 0.85536 0.09100
H 	H 	0.94020 0.74970 0.83700 -0.01300
C 	C 	0.11991 0.80521 0.78190 0.08800
H 	H 	0.10420 0.79630 0.77390 -0.01100
N 	N 	0.97271 0.76815 0.88144 -0.11100
Cu	Cu	0.02951 0.33720 0.37331 0.82600
Cu	Cu	0.05795 0.27457 0.39996 0.82500
N 	N 	0.01647 0.27719 0.39154 -0.23000
N 	N 	0.00452 0.30120 0.37914 -0.21300
N 	N 	0.06541 0.32193 0.35658 -0.23100
N 	N 	0.07553 0.29486 0.36409 -0.21000
N 	N 	0.90799 0.23323 0.39161 -0.23000
N 	N 	0.90967 0.23427 0.36205 -0.21700
C 	C 	0.93064 0.24564 0.40180 0.08500
H 	H 	0.93480 0.24810 0.42100 -0.02400
N 	N 	0.94704 0.25431 0.37960 -0.11100
C 	C 	0.97806 0.29550 0.37321 0.09000
H 	H 	0.96510 0.30790 0.36480 -0.01200
N 	N 	0.14324 0.31178 0.26847 -0.22000
N 	N 	0.12232 0.31348 0.30954 -0.11100
N 	N 	0.16165 0.32428 0.28825 -0.23400
N 	N 	0.10141 0.31123 0.32989 -0.11000
C 	C 	0.09725 0.28908 0.34811 0.09300
H 	H 	0.10820 0.27260 0.34890 -0.01200
C 	C 	0.14864 0.32490 0.31267 0.09200
H 	H 	0.15620 0.33200 0.32950 -0.03100
C 	C 	0.08133 0.33128 0.33595 0.08900
H 	H 	0.07930 0.34870 0.32680 -0.01800
C 	C 	0.99719 0.25752 0.39231 0.09000
H 	H 	0.99970 0.23910 0.39920 -0.01900
C 	C 	0.93355 0.24666 0.35536 0.09100
H 	H 	0.94020 0.24970 0.33700 -0.01300
C 	C 	0.11991 0.30521 0.28190 0.08800
H 	H 	0.10420 0.29630 0.27390 -0.01100
N 	N 	0.97271 0.26815 0.38144 -0.11100
Cu	Cu	0.02951 0.91280 0.87669 0.82600
Cu	Cu	0.05795 0.97543 0.85004 0.82500
N 	N 	0.01647 0.97281 0.85846 -0.23000
N 	N 	0.00452 0.94880 0.87086 -0.21300
N 	N 	0.06541 0.92807 0.89342 -0.23100
N 	N 	0.07553 0.95514 0.88591 -0.21000
N 	N 	0.90799 0.01677 0.85839 -0.23000
N 	N 	0.90967 0.01573 0.88795 -0.21700
C 	C 	0.93064 0.00436 0.84820 0.08500
H 	H 	0.93480 0.00190 0.82900 -0.02400
N 	N 	0.94704 0.99569 0.87040 -0.11100
C 	C 	0.97806 0.95450 0.87679 0.09000
H 	H 	0.96510 0.94210 0.88520 -0.01200
N 	N 	0.14324 0.93822 0.98153 -0.22000
N 	N 	0.12232 0.93652 0.94046 -0.11100
N 	N 	0.16165 0.92572 0.96175 -0.23400
N 	N 	0.10141 0.93877 0.92011 -0.11000
C 	C 	0.09725 0.96092 0.90189 0.09300
H 	H 	0.10820 0.97740 0.90110 -0.01200
C 	C 	0.14864 0.92510 0.93733 0.09200
H 	H 	0.15620 0.91800 0.92050 -0.03100
C 	C 	0.08133 0.91872 0.91405 0.08900
H 	H 	0.07930 0.90130 0.92320 -0.01800
C 	C 	0.99719 0.99248 0.85769 0.09000
H 	H 	0.99970 0.01090 0.85080 -0.01900
C 	C 	0.93355 0.00334 0.89464 0.09100
H 	H 	0.94020 0.00030 0.91300 -0.01300
C 	C 	0.11991 0.94479 0.96810 0.08800
H 	H 	0.10420 0.95370 0.97610 -0.01100
N 	N 	0.97271 0.98185 0.86856 -0.11100
Cu	Cu	0.02951 0.41280 0.37669 0.82600
Cu	Cu	0.05795 0.47543 0.35004 0.82500
N 	N 	0.01647 0.47281 0.35846 -0.23000
N 	N 	0.00452 0.44880 0.37086 -0.21300
N 	N 	0.06541 0.42807 0.39342 -0.23100
N 	N 	0.07553 0.45514 0.38591 -0.21000
N 	N 	0.90799 0.51677 0.35839 -0.23000
N 	N 	0.90967 0.51573 0.38795 -0.21700
C 	C 	0.93064 0.50436 0.34820 0.08500
H 	H 	0.93480 0.50190 0.32900 -0.02400
N 	N 	0.94704 0.49569 0.37040 -0.11100
C 	C 	0.97806 0.45450 0.37679 0.09000
H 	H 	0.96510 0.44210 0.38520 -0.01200
N 	N 	0.14324 0.43822 0.48153 -0.22000
N 	N 	0.12232 0.43652 0.44046 -0.11100
N 	N 	0.16165 0.42572 0.46175 -0.23400
N 	N 	0.10141 0.43877 0.42011 -0.11000
C 	C 	0.09725 0.46092 0.40189 0.09300
H 	H 	0.10820 0.47740 0.40110 -0.01200
C 	C 	0.14864 0.42510 0.43733 0.09200
H 	H 	0.15620 0.41800 0.42050 -0.03100
C 	C 	0.08133 0.41872 0.41405 0.08900
H 	H 	0.07930 0.40130 0.42320 -0.01800
C 	C 	0.99719 0.49248 0.35769 0.09000
H 	H 	0.99970 0.51090 0.35080 -0.01900
C 	C 	0.93355 0.50334 0.39464 0.09100
H 	H 	0.94020 0.50030 0.41300 -0.01300
C 	C 	0.11991 0.44479 0.46810 0.08800
H 	H 	0.10420 0.45370 0.47610 -0.01100
N 	N 	0.97271 0.48185 0.36856 -0.11100
Cu	Cu	0.52951 0.91280 0.37669 0.82600
Cu	Cu	0.55795 0.97543 0.35004 0.82500
N 	N 	0.51647 0.97281 0.35846 -0.23000
N 	N 	0.50452 0.94880 0.37086 -0.21300
N 	N 	0.56541 0.92807 0.39342 -0.23100
N 	N 	0.57553 0.95514 0.38591 -0.21000
N 	N 	0.40799 0.01677 0.35839 -0.23000
N 	N 	0.40967 0.01573 0.38795 -0.21700
C 	C 	0.43064 0.00436 0.34820 0.08500
H 	H 	0.43480 0.00190 0.32900 -0.02400
N 	N 	0.44704 0.99569 0.37040 -0.11100
C 	C 	0.47806 0.95450 0.37679 0.09000
H 	H 	0.46510 0.94210 0.38520 -0.01200
N 	N 	0.64324 0.93822 0.48153 -0.22000
N 	N 	0.62232 0.93652 0.44046 -0.11100
N 	N 	0.66165 0.92572 0.46175 -0.23400
N 	N 	0.60141 0.93877 0.42011 -0.11000
C 	C 	0.59725 0.96092 0.40189 0.09300
H 	H 	0.60820 0.97740 0.40110 -0.01200
C 	C 	0.64864 0.92510 0.43733 0.09200
H 	H 	0.65620 0.91800 0.42050 -0.03100
C 	C 	0.58133 0.91872 0.41405 0.08900
H 	H 	0.57930 0.90130 0.42320 -0.01800
C 	C 	0.49719 0.99248 0.35769 0.09000
H 	H 	0.49970 0.01090 0.35080 -0.01900
C 	C 	0.43355 0.00334 0.39464 0.09100
H 	H 	0.44020 0.00030 0.41300 -0.01300
C 	C 	0.61991 0.94479 0.46810 0.08800
H 	H 	0.60420 0.95370 0.47610 -0.01100
N 	N 	0.47271 0.98185 0.36856 -0.11100
Cu	Cu	0.52951 0.41280 0.87669 0.82600
Cu	Cu	0.55795 0.47543 0.85004 0.82500
N 	N 	0.51647 0.47281 0.85846 -0.23000
N 	N 	0.50452 0.44880 0.87086 -0.21300
N 	N 	0.56541 0.42807 0.89342 -0.23100
N 	N 	0.57553 0.45514 0.88591 -0.21000
N 	N 	0.40799 0.51677 0.85839 -0.23000
N 	N 	0.40967 0.51573 0.88795 -0.21700
C 	C 	0.43064 0.50436 0.84820 0.08500
H 	H 	0.43480 0.50190 0.82900 -0.02400
N 	N 	0.44704 0.49569 0.87040 -0.11100
C 	C 	0.47806 0.45450 0.87679 0.09000
H 	H 	0.46510 0.44210 0.88520 -0.01200
N 	N 	0.64324 0.43822 0.98153 -0.22000
N 	N 	0.62232 0.43652 0.94046 -0.11100
N 	N 	0.66165 0.42572 0.96175 -0.23400
N 	N 	0.60141 0.43877 0.92011 -0.11000
C 	C 	0.59725 0.46092 0.90189 0.09300
H 	H 	0.60820 0.47740 0.90110 -0.01200
C 	C 	0.64864 0.42510 0.93733 0.09200
H 	H 	0.65620 0.41800 0.92050 -0.03100
C 	C 	0.58133 0.41872 0.91405 0.08900
H 	H 	0.57930 0.40130 0.92320 -0.01800
C 	C 	0.49719 0.49248 0.85769 0.09000
H 	H 	0.49970 0.51090 0.85080 -0.01900
C 	C 	0.43355 0.50334 0.89464 0.09100
H 	H 	0.44020 0.50030 0.91300 -0.01300
C 	C 	0.61991 0.44479 0.96810 0.08800
H 	H 	0.60420 0.45370 0.97610 -0.01100
N 	N 	0.47271 0.48185 0.86856 -0.11100
