data_crystal

_cell_length_a 16.27170
_cell_length_b 12.66840
_cell_length_c 17.60210
_cell_angle_alpha 90.00000
_cell_angle_beta  112.52300
_cell_angle_gamma 90.00000

_symmetry_space_group_name_	'P 1'
_symmetry_space_group_name_H-M	'P 1'

loop_
_symmetry_equiv_pos_as_xyz
  x,y,z

loop_
_atom_site_label
_atom_site_type_symbol
_atom_site_fract_x
_atom_site_fract_y
_atom_site_fract_z
_atom_site_charge
Cu	Cu	0.52528 0.17199 0.45094 0.79200
Cu	Cu	0.61366 0.10409 0.36708 0.79000
Cu	Cu	0.08008 0.11289 0.44143 0.80400
N 	N 	0.18722 0.09970 0.42550 -0.30000
N 	N 	0.42786 0.07895 0.39037 -0.29900
N 	N 	0.50737 0.01550 0.31539 -0.29000
N 	N 	0.49599 0.80520 0.12662 -0.26500
N 	N 	0.62327 0.31290 0.76267 -0.24500
N 	N 	0.63614 0.19378 0.54330 -0.29100
N 	N 	0.71772 0.14000 0.46713 -0.29300
N 	N 	0.96771 0.11930 0.44932 -0.30100
C 	C 	0.26650 0.11900 0.48540 0.11100
H 	H 	0.26770 0.13880 0.53670 -0.06800
C 	C 	0.34598 0.11130 0.47570 -0.25800
H 	H 	0.39900 0.12590 0.51960 0.05500
C 	C 	0.34728 0.08150 0.40006 0.15100
C 	C 	0.26441 0.06140 0.33711 -0.22000
H 	H 	0.26100 0.04190 0.28510 0.09300
C 	C 	0.18860 0.07060 0.35270 0.10700
H 	H 	0.13450 0.05580 0.31010 -0.06100
C 	C 	0.43456 0.01970 0.33138 0.05300
H 	H 	0.38590 0.97900 0.29970 0.00700
C 	C 	0.56800 0.81280 0.19635 0.08800
H 	H 	0.61610 0.76870 0.20330 -0.03300
C 	C 	0.57451 0.88290 0.25867 -0.20900
H 	H 	0.62650 0.88660 0.30560 0.05900
C 	C 	0.50264 0.94770 0.25057 0.13800
C 	C 	0.42806 0.94090 0.17683 -0.19100
H 	H 	0.37900 0.98410 0.16780 0.08300
C 	C 	0.42790 0.86970 0.11785 0.07500
H 	H 	0.37780 0.86620 0.06920 -0.03300
C 	C 	0.55639 0.31920 0.68995 0.10700
H 	H 	0.50420 0.35170 0.68740 -0.03200
C 	C 	0.55963 0.28040 0.61776 -0.21400
H 	H 	0.51050 0.28780 0.56870 0.05000
C 	C 	0.63553 0.23070 0.61806 0.14500
C 	C 	0.70551 0.22040 0.69493 -0.20100
H 	H 	0.75780 0.18610 0.69980 0.08700
C 	C 	0.69561 0.26210 0.76330 0.09900
H 	H 	0.74280 0.25430 0.81370 -0.02600
C 	C 	0.71255 0.17740 0.53589 0.06900
H 	H 	0.76500 0.19250 0.58040 -0.00600
C 	C 	0.90020 0.05910 0.40610 0.09500
H 	H 	0.90850 0.01070 0.36990 -0.06300
C 	C 	0.81767 0.06350 0.41124 -0.25700
H 	H 	0.77240 0.01890 0.37890 0.05800
C 	C 	0.80200 0.13450 0.46462 0.14900
C 	C 	0.87270 0.19940 0.50910 -0.22800
H 	H 	0.86580 0.25070 0.54400 0.09000
C 	C 	0.95370 0.18750 0.50140 0.09100
H 	H 	0.00100 0.22920 0.53420 -0.06200
Cu	Cu	0.47472 0.67199 0.04906 0.79100
Cu	Cu	0.38634 0.60409 0.13292 0.78900
Cu	Cu	0.91992 0.61289 0.05857 0.80400
N 	N 	0.81278 0.59970 0.07450 -0.29900
N 	N 	0.57214 0.57895 0.10963 -0.29900
N 	N 	0.49263 0.51550 0.18461 -0.29000
N 	N 	0.50401 0.30520 0.37338 -0.26500
N 	N 	0.37673 0.81290 0.73733 -0.24500
N 	N 	0.36386 0.69378 0.95670 -0.29100
N 	N 	0.28228 0.64000 0.03287 -0.29200
N 	N 	0.03229 0.61930 0.05068 -0.29900
C 	C 	0.73350 0.61900 0.01460 0.10800
H 	H 	0.73230 0.63880 0.96330 -0.06600
C 	C 	0.65402 0.61130 0.02430 -0.25800
H 	H 	0.60100 0.62590 0.98040 0.05600
C 	C 	0.65272 0.58150 0.09994 0.15100
C 	C 	0.73559 0.56140 0.16289 -0.22000
H 	H 	0.73900 0.54190 0.21490 0.09300
C 	C 	0.81140 0.57060 0.14730 0.10700
H 	H 	0.86550 0.55580 0.18990 -0.06100
C 	C 	0.56544 0.51970 0.16862 0.05300
H 	H 	0.61410 0.47900 0.20030 0.00700
C 	C 	0.43200 0.31280 0.30365 0.08900
H 	H 	0.38390 0.26870 0.29670 -0.03300
C 	C 	0.42549 0.38290 0.24133 -0.21000
H 	H 	0.37350 0.38660 0.19440 0.06000
C 	C 	0.49736 0.44770 0.24943 0.13900
C 	C 	0.57194 0.44090 0.32317 -0.19100
H 	H 	0.62100 0.48410 0.33220 0.08400
C 	C 	0.57210 0.36970 0.38215 0.07500
H 	H 	0.62220 0.36620 0.43080 -0.03400
C 	C 	0.44361 0.81920 0.81005 0.10700
H 	H 	0.49580 0.85170 0.81260 -0.03200
C 	C 	0.44037 0.78040 0.88224 -0.21400
H 	H 	0.48950 0.78780 0.93130 0.05100
C 	C 	0.36447 0.73070 0.88194 0.14500
C 	C 	0.29449 0.72040 0.80507 -0.20100
H 	H 	0.24220 0.68610 0.80020 0.08700
C 	C 	0.30439 0.76210 0.73670 0.09900
H 	H 	0.25720 0.75430 0.68630 -0.02700
C 	C 	0.28745 0.67740 0.96411 0.06800
H 	H 	0.23500 0.69250 0.91960 -0.00600
C 	C 	0.09980 0.55910 0.09390 0.09500
H 	H 	0.09150 0.51070 0.13010 -0.06300
C 	C 	0.18233 0.56350 0.08876 -0.25600
H 	H 	0.22760 0.51890 0.12110 0.05700
C 	C 	0.19800 0.63450 0.03538 0.14900
C 	C 	0.12730 0.69940 0.99090 -0.22500
H 	H 	0.13420 0.75070 0.95600 0.08900
C 	C 	0.04630 0.68750 0.99860 0.08100
H 	H 	0.99900 0.72920 0.96580 -0.05600
Cu	Cu	0.47472 0.82801 0.54906 0.79100
Cu	Cu	0.38634 0.89591 0.63292 0.78900
Cu	Cu	0.91992 0.88711 0.55857 0.80400
N 	N 	0.81278 0.90030 0.57450 -0.30000
N 	N 	0.57214 0.92105 0.60963 -0.29900
N 	N 	0.49263 0.98450 0.68461 -0.29000
N 	N 	0.50401 0.19480 0.87338 -0.26500
N 	N 	0.37673 0.68710 0.23733 -0.24500
N 	N 	0.36386 0.80622 0.45670 -0.29100
N 	N 	0.28228 0.86000 0.53287 -0.29300
N 	N 	0.03229 0.88070 0.55068 -0.30100
C 	C 	0.73350 0.88100 0.51460 0.11100
H 	H 	0.73230 0.86120 0.46330 -0.06800
C 	C 	0.65402 0.88870 0.52430 -0.25800
H 	H 	0.60100 0.87410 0.48040 0.05500
C 	C 	0.65272 0.91850 0.59994 0.15100
C 	C 	0.73559 0.93860 0.66289 -0.22000
H 	H 	0.73900 0.95810 0.71490 0.09300
C 	C 	0.81140 0.92940 0.64730 0.10700
H 	H 	0.86550 0.94420 0.68990 -0.06100
C 	C 	0.56544 0.98030 0.66862 0.05300
H 	H 	0.61410 0.02100 0.70030 0.00700
C 	C 	0.43200 0.18720 0.80365 0.08800
H 	H 	0.38390 0.23130 0.79670 -0.03300
C 	C 	0.42549 0.11710 0.74133 -0.20900
H 	H 	0.37350 0.11340 0.69440 0.05900
C 	C 	0.49736 0.05230 0.74943 0.13800
C 	C 	0.57194 0.05910 0.82317 -0.19100
H 	H 	0.62100 0.01590 0.83220 0.08300
C 	C 	0.57210 0.13030 0.88215 0.07500
H 	H 	0.62220 0.13380 0.93080 -0.03300
C 	C 	0.44361 0.68080 0.31005 0.10700
H 	H 	0.49580 0.64830 0.31260 -0.03200
C 	C 	0.44037 0.71960 0.38224 -0.21400
H 	H 	0.48950 0.71220 0.43130 0.05000
C 	C 	0.36447 0.76930 0.38194 0.14500
C 	C 	0.29449 0.77960 0.30507 -0.20100
H 	H 	0.24220 0.81390 0.30020 0.08700
C 	C 	0.30439 0.73790 0.23670 0.09900
H 	H 	0.25720 0.74570 0.18630 -0.02600
C 	C 	0.28745 0.82260 0.46411 0.06900
H 	H 	0.23500 0.80750 0.41960 -0.00600
C 	C 	0.09980 0.94090 0.59390 0.09500
H 	H 	0.09150 0.98930 0.63010 -0.06300
C 	C 	0.18233 0.93650 0.58876 -0.25700
H 	H 	0.22760 0.98110 0.62110 0.05800
C 	C 	0.19800 0.86550 0.53538 0.14900
C 	C 	0.12730 0.80060 0.49090 -0.22800
H 	H 	0.13420 0.74930 0.45600 0.09000
C 	C 	0.04630 0.81250 0.49860 0.09100
H 	H 	0.99900 0.77080 0.46580 -0.06200
Cu	Cu	0.52528 0.32801 0.95094 0.79100
Cu	Cu	0.61366 0.39591 0.86708 0.78900
Cu	Cu	0.08008 0.38711 0.94143 0.80400
N 	N 	0.18722 0.40030 0.92550 -0.29900
N 	N 	0.42786 0.42105 0.89037 -0.29900
N 	N 	0.50737 0.48450 0.81539 -0.29000
N 	N 	0.49599 0.69480 0.62662 -0.26500
N 	N 	0.62327 0.18710 0.26267 -0.24500
N 	N 	0.63614 0.30622 0.04330 -0.29100
N 	N 	0.71772 0.36000 0.96713 -0.29200
N 	N 	0.96771 0.38070 0.94932 -0.29900
C 	C 	0.26650 0.38100 0.98540 0.10800
H 	H 	0.26770 0.36120 0.03670 -0.06600
C 	C 	0.34598 0.38870 0.97570 -0.25800
H 	H 	0.39900 0.37410 0.01960 0.05600
C 	C 	0.34728 0.41850 0.90006 0.15100
C 	C 	0.26441 0.43860 0.83711 -0.22000
H 	H 	0.26100 0.45810 0.78510 0.09300
C 	C 	0.18860 0.42940 0.85270 0.10700
H 	H 	0.13450 0.44420 0.81010 -0.06100
C 	C 	0.43456 0.48030 0.83138 0.05300
H 	H 	0.38590 0.52100 0.79970 0.00700
C 	C 	0.56800 0.68720 0.69635 0.08900
H 	H 	0.61610 0.73130 0.70330 -0.03300
C 	C 	0.57451 0.61710 0.75867 -0.21000
H 	H 	0.62650 0.61340 0.80560 0.06000
C 	C 	0.50264 0.55230 0.75057 0.13900
C 	C 	0.42806 0.55910 0.67683 -0.19100
H 	H 	0.37900 0.51590 0.66780 0.08400
C 	C 	0.42790 0.63030 0.61785 0.07500
H 	H 	0.37780 0.63380 0.56920 -0.03400
C 	C 	0.55639 0.18080 0.18995 0.10700
H 	H 	0.50420 0.14830 0.18740 -0.03200
C 	C 	0.55963 0.21960 0.11776 -0.21400
H 	H 	0.51050 0.21220 0.06870 0.05100
C 	C 	0.63553 0.26930 0.11806 0.14500
C 	C 	0.70551 0.27960 0.19493 -0.20100
H 	H 	0.75780 0.31390 0.19980 0.08700
C 	C 	0.69561 0.23790 0.26330 0.09900
H 	H 	0.74280 0.24570 0.31370 -0.02700
C 	C 	0.71255 0.32260 0.03589 0.06800
H 	H 	0.76500 0.30750 0.08040 -0.00600
C 	C 	0.90020 0.44090 0.90610 0.09500
H 	H 	0.90850 0.48930 0.86990 -0.06300
C 	C 	0.81767 0.43650 0.91124 -0.25600
H 	H 	0.77240 0.48110 0.87890 0.05700
C 	C 	0.80200 0.36550 0.96462 0.14900
C 	C 	0.87270 0.30060 0.00910 -0.22500
H 	H 	0.86580 0.24930 0.04400 0.08900
C 	C 	0.95370 0.31250 0.00140 0.08100
H 	H 	0.00100 0.27080 0.03420 -0.05600
