data_crystal

_cell_length_a 13.06990
_cell_length_b 13.75920
_cell_length_c 13.89640
_cell_angle_alpha 113.72800
_cell_angle_beta  111.88300
_cell_angle_gamma 101.36500

_symmetry_space_group_name_	'P 1'
_symmetry_space_group_name_H-M	'P 1'

loop_
_symmetry_equiv_pos_as_xyz
  x,y,z

loop_
_atom_site_label
_atom_site_type_symbol
_atom_site_fract_x
_atom_site_fract_y
_atom_site_fract_z
_atom_site_charge
Mn	Mn	0.48667 0.73029 0.86876 1.17100
Mn	Mn	0.87749 0.44833 0.64520 1.17800
Mn	Mn	0.12251 0.55167 0.35480 1.17800
Mn	Mn	0.51333 0.26971 0.13124 1.17100
Mn	Mn	0.88209 0.13847 0.86876 1.16700
Mn	Mn	0.26771 0.19687 0.64520 1.18000
Mn	Mn	0.73229 0.80313 0.35480 1.18000
Mn	Mn	0.11791 0.86153 0.13124 1.16700
Mo	Mo	0.12071 0.87071 0.74142 1.06200
Mo	Mo	0.73083 0.48083 0.96166 1.06100
Mo	Mo	0.87929 0.12929 0.25858 1.06200
Mo	Mo	0.26917 0.51917 0.03834 1.06100
C 	C 	0.75960 0.44970 0.81180 -0.16200
C 	C 	0.02930 0.97510 0.80000 -0.15800
C 	C 	0.87387 0.12967 0.10154 -0.14800
C 	C 	0.11960 0.36990 0.97960 -0.14500
C 	C 	0.88040 0.63010 0.02040 -0.14500
C 	C 	0.11730 0.49510 0.88420 -0.14600
C 	C 	0.24350 0.67820 0.10200 -0.16000
C 	C 	0.82470 0.01330 0.31400 -0.17300
C 	C 	0.73310 0.61090 0.11580 -0.14800
C 	C 	0.01070 0.69930 0.68600 -0.16400
C 	C 	0.98930 0.30070 0.31400 -0.16400
C 	C 	0.27233 0.02813 0.89846 -0.14200
C 	C 	0.72767 0.97187 0.10154 -0.14200
C 	C 	0.55220 0.36210 0.81180 -0.15800
C 	C 	0.27070 0.82490 0.80000 -0.16700
C 	C 	0.04405 0.17555 0.41690 -0.16400
C 	C 	0.12715 0.75865 0.58310 -0.16400
C 	C 	0.64000 0.39030 0.02040 -0.14900
C 	C 	0.88270 0.50490 0.11580 -0.14600
C 	C 	0.35850 0.42380 0.10200 -0.15900
C 	C 	0.12613 0.87033 0.89846 -0.14800
C 	C 	0.97070 0.02490 0.20000 -0.15800
C 	C 	0.87285 0.24135 0.41690 -0.16400
C 	C 	0.75650 0.32180 0.89800 -0.16000
C 	C 	0.24040 0.55030 0.18820 -0.16200
C 	C 	0.26690 0.38910 0.88420 -0.14800
C 	C 	0.17530 0.98670 0.68600 -0.17300
C 	C 	0.72930 0.17510 0.20000 -0.16700
C 	C 	0.64150 0.57620 0.89800 -0.15900
C 	C 	0.95595 0.82445 0.58310 -0.16400
C 	C 	0.44780 0.63790 0.18820 -0.15800
C 	C 	0.36000 0.60970 0.97960 -0.14900
N 	N 	0.95552 0.60693 0.65930 -0.28300
N 	N 	0.35575 0.10993 0.97940 -0.26000
N 	N 	0.87192 0.80462 0.49924 -0.28300
N 	N 	0.04208 0.29065 0.95360 -0.25200
N 	N 	0.22907 0.76231 0.13496 -0.27100
N 	N 	0.64786 0.19750 0.17038 -0.27000
N 	N 	0.95792 0.70935 0.04640 -0.25200
N 	N 	0.77093 0.23769 0.86504 -0.27100
N 	N 	0.79622 0.94763 0.34070 -0.27500
N 	N 	0.22090 0.56560 0.26500 -0.28300
N 	N 	0.45590 0.30060 0.73500 -0.28200
N 	N 	0.12732 0.69462 0.49924 -0.28400
N 	N 	0.40589 0.37265 0.13496 -0.27000
N 	N 	0.04448 0.39307 0.34070 -0.28300
N 	N 	0.54410 0.69940 0.26500 -0.28200
N 	N 	0.12365 0.86947 0.97940 -0.25700
N 	N 	0.64425 0.89007 0.02060 -0.26000
N 	N 	0.73866 0.67984 0.20234 -0.25300
N 	N 	0.20378 0.05237 0.65930 -0.27500
N 	N 	0.26134 0.32016 0.79766 -0.25300
N 	N 	0.41152 0.66295 0.95360 -0.25800
N 	N 	0.02252 0.97288 0.17038 -0.28000
N 	N 	0.97748 0.02712 0.82962 -0.28000
N 	N 	0.77910 0.43440 0.73500 -0.28300
N 	N 	0.12808 0.19538 0.50076 -0.28300
N 	N 	0.58848 0.33705 0.04640 -0.25800
N 	N 	0.59411 0.62735 0.86504 -0.27000
N 	N 	0.35214 0.80250 0.82962 -0.27000
N 	N 	0.96368 0.52250 0.20234 -0.25100
N 	N 	0.87268 0.30538 0.50076 -0.28400
N 	N 	0.87635 0.13053 0.02060 -0.25700
N 	N 	0.03632 0.47750 0.79766 -0.25100
