data_crystal

_cell_length_a 10.47590
_cell_length_b 33.01700
_cell_length_c 28.54800
_cell_angle_alpha 90.00000
_cell_angle_beta  97.28800
_cell_angle_gamma 90.00000

_symmetry_space_group_name_	'P 1'
_symmetry_space_group_name_H-M	'P 1'

loop_
_symmetry_equiv_pos_as_xyz
  x,y,z

loop_
_atom_site_label
_atom_site_type_symbol
_atom_site_fract_x
_atom_site_fract_y
_atom_site_fract_z
_atom_site_charge
O 	O 	0.84200 0.30347 0.74169 -0.36600
O 	O 	0.01570 0.34083 0.75512 -0.42500
C 	C 	0.92960 0.31900 0.76920 0.34900
C 	C 	0.93360 0.31250 0.82110 -0.18700
C 	C 	0.02030 0.33560 0.85430 0.24300
C 	C 	0.01820 0.33210 0.90300 -0.07500
Cd	Cd	0.09464 0.41282 0.19676 1.20500
Cd	Cd	0.91729 0.34489 0.67490 1.20400
N 	N 	0.98830 0.46439 0.22549 -0.24400
N 	N 	0.90510 0.50422 0.27520 -0.11100
N 	N 	0.24540 0.53396 0.30935 -0.10600
N 	N 	0.15590 0.59389 0.30566 -0.23800
N 	N 	0.02480 0.29104 0.65116 -0.24000
N 	N 	0.14080 0.23531 0.65674 -0.10100
N 	N 	0.83920 0.19278 0.67221 -0.10100
N 	N 	0.96140 0.14187 0.69801 -0.23300
O 	O 	0.26230 0.37608 0.23437 -0.42500
O 	O 	0.16140 0.40008 0.29159 -0.37500
O 	O 	0.81650 0.36554 0.59037 -0.39100
O 	O 	0.73330 0.31888 0.63103 -0.40600
O 	O 	0.26320 0.39713 0.37597 -0.45600
H 	H 	0.20590 0.39830 0.35360 0.29300
O 	O 	0.68230 0.39354 0.51648 -0.44600
H 	H 	0.73800 0.39240 0.53940 0.28900
O 	O 	0.00500 0.43379 0.12249 -0.41900
O 	O 	0.14620 0.38630 0.11475 -0.39000
O 	O 	0.16180 0.35573 0.03400 -0.44700
H 	H 	0.17020 0.35780 0.06280 0.28900
O 	O 	0.10280 0.36105 0.83772 -0.45500
H 	H 	0.09310 0.36020 0.80880 0.29500
C 	C 	0.25780 0.38400 0.27630 0.34700
C 	C 	0.73070 0.33898 0.59440 0.35300
C 	C 	0.48410 0.36247 0.29730 0.03100
H 	H 	0.48490 0.35680 0.26550 0.03500
C 	C 	0.37360 0.37507 0.31230 -0.18800
C 	C 	0.37080 0.38289 0.36110 0.24100
C 	C 	0.48030 0.37894 0.39370 -0.08000
C 	C 	0.59470 0.36590 0.37710 0.06600
C 	C 	0.59560 0.35780 0.32800 -0.03600
C 	C 	0.71380 0.34560 0.31150 -0.02800
H 	H 	0.71370 0.33760 0.28020 0.04300
C 	C 	0.82830 0.34580 0.34200 -0.07300
H 	H 	0.90630 0.34100 0.33060 0.05600
C 	C 	0.82470 0.35330 0.38930 0.01800
H 	H 	0.90000 0.35090 0.41010 0.02800
C 	C 	0.71410 0.36400 0.40620 -0.11800
H 	H 	0.71700 0.37030 0.43810 0.09500
C 	C 	0.47350 0.39118 0.44440 -0.08600
H 	H 	0.38860 0.40230 0.44640 0.08500
H 	H 	0.53530 0.41280 0.45240 0.08400
C 	C 	0.54530 0.30000 0.55510 0.02800
H 	H 	0.56350 0.28080 0.57890 0.03500
C 	C 	0.62430 0.33330 0.55470 -0.18600
C 	C 	0.60210 0.36136 0.51702 0.24000
C 	C 	0.49940 0.35739 0.48230 -0.08200
C 	C 	0.41430 0.32520 0.48410 0.06500
C 	C 	0.44010 0.29420 0.52150 -0.03200
C 	C 	0.35140 0.26240 0.52390 -0.02400
H 	H 	0.36730 0.24340 0.54790 0.04600
C 	C 	0.24390 0.25850 0.49250 -0.07100
H 	H 	0.18810 0.23680 0.49460 0.06300
C 	C 	0.21830 0.28680 0.45750 0.01500
H 	H 	0.14390 0.28390 0.43620 0.03000
C 	C 	0.29860 0.31960 0.45230 -0.11200
H 	H 	0.27690 0.33810 0.42810 0.09200
C 	C 	0.06270 0.41160 0.09800 0.35800
C 	C 	0.94830 0.44386 0.02640 0.01400
H 	H 	0.91330 0.46180 0.04630 0.04400
C 	C 	0.02820 0.41392 0.04580 -0.16800
C 	C 	0.08240 0.38500 0.01470 0.22200
C 	C 	0.05480 0.38760 0.96550 -0.05800
C 	C 	0.97230 0.42010 0.94620 0.04500
C 	C 	0.91710 0.44854 0.97730 -0.01400
C 	C 	0.83440 0.48130 0.95850 -0.04200
H 	H 	0.79870 0.49930 0.97840 0.05000
C 	C 	0.81000 0.48510 0.90910 -0.05100
H 	H 	0.75590 0.50560 0.89590 0.04000
C 	C 	0.86530 0.45890 0.87970 -0.00100
H 	H 	0.84840 0.46250 0.84720 0.02100
C 	C 	0.94320 0.42810 0.89660 -0.09500
H 	H 	0.97910 0.41160 0.87530 0.08200
C 	C 	0.11250 0.35850 0.93520 -0.09900
H 	H 	0.16940 0.34080 0.95530 0.08700
H 	H 	0.16500 0.37350 0.91560 0.08900
C 	C 	0.85430 0.28570 0.83840 0.03300
H 	H 	0.79870 0.27030 0.81750 0.03400
C 	C 	0.85370 0.28050 0.88830 -0.03400
C 	C 	0.93540 0.30430 0.91930 0.06200
C 	C 	0.93130 0.29770 0.96910 -0.11400
H 	H 	0.98510 0.31280 0.99090 0.08600
C 	C 	0.85020 0.26990 0.98480 0.01900
H 	H 	0.84940 0.26650 0.01710 0.02200
C 	C 	0.77090 0.24730 0.95410 -0.07500
H 	H 	0.71620 0.22830 0.96500 0.06100
C 	C 	0.77250 0.25290 0.90550 -0.02300
H 	H 	0.71730 0.23770 0.88430 0.04500
C 	C 	0.97280 0.47170 0.26980 0.08900
H 	H 	0.00670 0.45530 0.29480 0.00100
C 	C 	0.87410 0.51950 0.23180 -0.00600
H 	H 	0.82570 0.54270 0.22400 0.03700
C 	C 	0.92580 0.49506 0.20160 0.00600
H 	H 	0.91930 0.49880 0.16910 0.02700
C 	C 	0.86900 0.52070 0.31800 -0.10200
H 	H 	0.89020 0.54930 0.31950 0.04900
H 	H 	0.91890 0.50750 0.34470 0.06400
C 	C 	0.73010 0.51580 0.32220 0.04400
C 	C 	0.67560 0.48050 0.32720 -0.04500
H 	H 	0.72910 0.45790 0.33050 0.05300
C 	C 	0.54420 0.47400 0.32800 -0.10600
H 	H 	0.51260 0.44780 0.32970 0.07100
C 	C 	0.46500 0.50526 0.32650 0.09400
C 	C 	0.52090 0.54140 0.32030 -0.09700
H 	H 	0.46900 0.56430 0.31800 0.07100
C 	C 	0.64930 0.54630 0.31700 -0.04800
H 	H 	0.67990 0.57200 0.31090 0.03900
C 	C 	0.32330 0.49932 0.32920 -0.15100
H 	H 	0.29440 0.47490 0.31220 0.07800
H 	H 	0.31010 0.49570 0.36200 0.08700
C 	C 	0.21240 0.56683 0.33380 0.08200
H 	H 	0.22820 0.56950 0.36640 -0.00000
C 	C 	0.15400 0.57691 0.26050 -0.00600
H 	H 	0.11800 0.58930 0.23260 0.02700
C 	C 	0.20970 0.54117 0.26270 0.00300
H 	H 	0.22200 0.52430 0.23760 0.01700
C 	C 	0.09520 0.26588 0.68010 0.08300
H 	H 	0.11070 0.26920 0.71270 -0.00400
C 	C 	0.02350 0.27478 0.60710 0.01900
H 	H 	0.98040 0.28560 0.57940 0.01300
C 	C 	0.09450 0.24056 0.60990 -0.01700
H 	H 	0.10930 0.22380 0.58500 0.04500
C 	C 	0.22250 0.20221 0.67810 -0.13500
H 	H 	0.18870 0.17650 0.66550 0.07700
H 	H 	0.21970 0.20200 0.71200 0.08200
C 	C 	0.35940 0.20648 0.66880 0.07700
C 	C 	0.41360 0.17950 0.64150 -0.07800
H 	H 	0.36440 0.15790 0.62850 0.06700
C 	C 	0.53710 0.18290 0.63250 -0.07000
H 	H 	0.56980 0.16380 0.61330 0.05800
C 	C 	0.61530 0.21394 0.65100 0.07400
C 	C 	0.56220 0.24090 0.67950 -0.07800
H 	H 	0.61230 0.26210 0.69310 0.07400
C 	C 	0.43610 0.23740 0.68860 -0.06900
H 	H 	0.40290 0.25600 0.70830 0.06000
C 	C 	0.75100 0.21810 0.64170 -0.13400
H 	H 	0.75670 0.21100 0.60900 0.07400
H 	H 	0.77710 0.24620 0.64610 0.08400
C 	C 	0.88520 0.15693 0.66190 0.08900
H 	H 	0.86630 0.14410 0.63290 -0.00400
C 	C 	0.96370 0.17004 0.73190 0.01800
H 	H 	0.01150 0.16790 0.76150 0.02000
C 	C 	0.88950 0.20113 0.71780 -0.02200
H 	H 	0.87440 0.22400 0.73520 0.05200
O 	O 	0.15800 0.80347 0.75831 -0.36500
O 	O 	0.98430 0.84083 0.74488 -0.42300
C 	C 	0.07040 0.81900 0.73080 0.35000
C 	C 	0.06640 0.81250 0.67890 -0.18600
C 	C 	0.97970 0.83560 0.64570 0.24400
C 	C 	0.98180 0.83210 0.59700 -0.07300
Cd	Cd	0.90536 0.91282 0.30324 1.20600
Cd	Cd	0.08271 0.84489 0.82510 1.20500
N 	N 	0.01170 0.96439 0.27451 -0.24300
N 	N 	0.09490 0.00422 0.22480 -0.11000
N 	N 	0.75460 0.03396 0.19065 -0.10500
N 	N 	0.84410 0.09389 0.19434 -0.23700
N 	N 	0.97520 0.79104 0.84884 -0.23900
N 	N 	0.85920 0.73531 0.84326 -0.10000
N 	N 	0.16080 0.69278 0.82779 -0.10000
N 	N 	0.03860 0.64187 0.80199 -0.23200
O 	O 	0.73770 0.87608 0.26563 -0.42400
O 	O 	0.83860 0.90008 0.20841 -0.37400
O 	O 	0.18350 0.86554 0.90963 -0.39000
O 	O 	0.26670 0.81888 0.86897 -0.40500
O 	O 	0.73680 0.89713 0.12403 -0.45500
H 	H 	0.79410 0.89830 0.14640 0.29400
O 	O 	0.31770 0.89354 0.98352 -0.44500
H 	H 	0.26200 0.89240 0.96060 0.29000
O 	O 	0.99500 0.93379 0.37751 -0.41900
O 	O 	0.85380 0.88630 0.38525 -0.39000
O 	O 	0.83820 0.85573 0.46600 -0.44700
H 	H 	0.82980 0.85780 0.43720 0.28900
O 	O 	0.89720 0.86105 0.66228 -0.45500
H 	H 	0.90690 0.86020 0.69120 0.29500
C 	C 	0.74220 0.88400 0.22370 0.34700
C 	C 	0.26930 0.83898 0.90560 0.35300
C 	C 	0.51590 0.86247 0.20270 0.03100
H 	H 	0.51510 0.85680 0.23450 0.03500
C 	C 	0.62640 0.87507 0.18770 -0.18800
C 	C 	0.62920 0.88289 0.13890 0.24100
C 	C 	0.51970 0.87894 0.10630 -0.08100
C 	C 	0.40530 0.86590 0.12290 0.06600
C 	C 	0.40440 0.85780 0.17200 -0.03600
C 	C 	0.28620 0.84560 0.18850 -0.02800
H 	H 	0.28630 0.83760 0.21980 0.04300
C 	C 	0.17170 0.84580 0.15800 -0.07300
H 	H 	0.09370 0.84100 0.16940 0.05600
C 	C 	0.17530 0.85330 0.11070 0.01800
H 	H 	0.10000 0.85090 0.08990 0.02800
C 	C 	0.28590 0.86400 0.09380 -0.11800
H 	H 	0.28300 0.87030 0.06190 0.09500
C 	C 	0.52650 0.89118 0.05560 -0.08600
H 	H 	0.61140 0.90230 0.05360 0.08500
H 	H 	0.46470 0.91280 0.04760 0.08400
C 	C 	0.45470 0.80000 0.94490 0.02800
H 	H 	0.43650 0.78080 0.92110 0.03500
C 	C 	0.37570 0.83330 0.94530 -0.18600
C 	C 	0.39790 0.86136 0.98298 0.24000
C 	C 	0.50060 0.85739 0.01770 -0.08200
C 	C 	0.58570 0.82520 0.01590 0.06500
C 	C 	0.55990 0.79420 0.97850 -0.03200
C 	C 	0.64860 0.76240 0.97610 -0.02400
H 	H 	0.63270 0.74340 0.95210 0.04600
C 	C 	0.75610 0.75850 0.00750 -0.07200
H 	H 	0.81190 0.73680 0.00540 0.06300
C 	C 	0.78170 0.78680 0.04250 0.01500
H 	H 	0.85610 0.78390 0.06380 0.03000
C 	C 	0.70140 0.81960 0.04770 -0.11200
H 	H 	0.72310 0.83810 0.07190 0.09200
C 	C 	0.93730 0.91160 0.40200 0.35800
C 	C 	0.05170 0.94386 0.47360 0.01400
H 	H 	0.08670 0.96180 0.45370 0.04400
C 	C 	0.97180 0.91392 0.45420 -0.16800
C 	C 	0.91760 0.88500 0.48530 0.22200
C 	C 	0.94520 0.88760 0.53450 -0.05800
C 	C 	0.02770 0.92010 0.55380 0.04400
C 	C 	0.08290 0.94854 0.52270 -0.01400
C 	C 	0.16560 0.98130 0.54150 -0.04200
H 	H 	0.20130 0.99930 0.52160 0.05000
C 	C 	0.19000 0.98510 0.59090 -0.05200
H 	H 	0.24410 0.00560 0.60410 0.04000
C 	C 	0.13470 0.95890 0.62030 -0.00100
H 	H 	0.15160 0.96250 0.65280 0.02100
C 	C 	0.05680 0.92810 0.60340 -0.09500
H 	H 	0.02090 0.91160 0.62470 0.08200
C 	C 	0.88750 0.85850 0.56480 -0.10000
H 	H 	0.83060 0.84080 0.54470 0.08700
H 	H 	0.83500 0.87350 0.58440 0.09000
C 	C 	0.14570 0.78570 0.66160 0.03300
H 	H 	0.20130 0.77030 0.68250 0.03400
C 	C 	0.14630 0.78050 0.61170 -0.03400
C 	C 	0.06460 0.80430 0.58070 0.06100
C 	C 	0.06870 0.79770 0.53090 -0.11300
H 	H 	0.01490 0.81280 0.50910 0.08600
C 	C 	0.14980 0.76990 0.51520 0.01900
H 	H 	0.15060 0.76650 0.48290 0.02200
C 	C 	0.22910 0.74730 0.54590 -0.07500
H 	H 	0.28380 0.72830 0.53500 0.06100
C 	C 	0.22750 0.75290 0.59450 -0.02300
H 	H 	0.28270 0.73770 0.61570 0.04500
C 	C 	0.02720 0.97170 0.23020 0.08900
H 	H 	0.99330 0.95530 0.20520 0.00100
C 	C 	0.12590 0.01950 0.26820 -0.00600
H 	H 	0.17430 0.04270 0.27600 0.03700
C 	C 	0.07420 0.99506 0.29840 0.00600
H 	H 	0.08070 0.99880 0.33090 0.02700
C 	C 	0.13100 0.02070 0.18200 -0.10200
H 	H 	0.10980 0.04930 0.18050 0.04900
H 	H 	0.08110 0.00750 0.15530 0.06400
C 	C 	0.26990 0.01580 0.17780 0.04400
C 	C 	0.32440 0.98050 0.17280 -0.04500
H 	H 	0.27090 0.95790 0.16950 0.05300
C 	C 	0.45580 0.97400 0.17200 -0.10600
H 	H 	0.48740 0.94780 0.17030 0.07100
C 	C 	0.53500 0.00526 0.17350 0.09400
C 	C 	0.47910 0.04140 0.17970 -0.09600
H 	H 	0.53100 0.06430 0.18200 0.07100
C 	C 	0.35070 0.04630 0.18300 -0.04900
H 	H 	0.32010 0.07200 0.18910 0.04000
C 	C 	0.67670 0.99932 0.17080 -0.15100
H 	H 	0.70560 0.97490 0.18780 0.07700
H 	H 	0.68990 0.99570 0.13800 0.08700
C 	C 	0.78760 0.06683 0.16620 0.08200
H 	H 	0.77180 0.06950 0.13360 -0.00000
C 	C 	0.84600 0.07691 0.23950 -0.00600
H 	H 	0.88200 0.08930 0.26740 0.02700
C 	C 	0.79030 0.04117 0.23730 0.00300
H 	H 	0.77800 0.02430 0.26240 0.01700
C 	C 	0.90480 0.76588 0.81990 0.08300
H 	H 	0.88930 0.76920 0.78730 -0.00400
C 	C 	0.97650 0.77478 0.89290 0.01900
H 	H 	0.01960 0.78560 0.92060 0.01300
C 	C 	0.90550 0.74056 0.89010 -0.01700
H 	H 	0.89070 0.72380 0.91500 0.04500
C 	C 	0.77750 0.70221 0.82190 -0.13500
H 	H 	0.81130 0.67650 0.83450 0.07700
H 	H 	0.78030 0.70200 0.78800 0.08200
C 	C 	0.64060 0.70648 0.83120 0.07700
C 	C 	0.58640 0.67950 0.85850 -0.07800
H 	H 	0.63560 0.65790 0.87150 0.06700
C 	C 	0.46290 0.68290 0.86750 -0.07000
H 	H 	0.43020 0.66380 0.88670 0.05800
C 	C 	0.38470 0.71394 0.84900 0.07400
C 	C 	0.43780 0.74090 0.82050 -0.07800
H 	H 	0.38770 0.76210 0.80690 0.07400
C 	C 	0.56390 0.73740 0.81140 -0.06900
H 	H 	0.59710 0.75600 0.79170 0.06000
C 	C 	0.24900 0.71810 0.85830 -0.13400
H 	H 	0.24330 0.71100 0.89100 0.07400
H 	H 	0.22290 0.74620 0.85390 0.08400
C 	C 	0.11480 0.65693 0.83810 0.08900
H 	H 	0.13370 0.64410 0.86710 -0.00400
C 	C 	0.03630 0.67004 0.76810 0.01800
H 	H 	0.98850 0.66790 0.73850 0.02000
C 	C 	0.11050 0.70113 0.78220 -0.02200
H 	H 	0.12560 0.72400 0.76480 0.05200
O 	O 	0.15800 0.69653 0.25831 -0.36500
O 	O 	0.98430 0.65917 0.24488 -0.42400
C 	C 	0.07040 0.68100 0.23080 0.35000
C 	C 	0.06640 0.68750 0.17890 -0.18600
C 	C 	0.97970 0.66440 0.14570 0.24400
C 	C 	0.98180 0.66790 0.09700 -0.07400
Cd	Cd	0.90536 0.58718 0.80324 1.20600
Cd	Cd	0.08271 0.65511 0.32510 1.20500
N 	N 	0.01170 0.53561 0.77451 -0.24300
N 	N 	0.09490 0.49578 0.72480 -0.11000
N 	N 	0.75460 0.46604 0.69065 -0.10500
N 	N 	0.84410 0.40611 0.69434 -0.23700
N 	N 	0.97520 0.70896 0.34884 -0.23900
N 	N 	0.85920 0.76469 0.34326 -0.10000
N 	N 	0.16080 0.80722 0.32779 -0.10000
N 	N 	0.03860 0.85813 0.30199 -0.23200
O 	O 	0.73770 0.62392 0.76563 -0.42400
O 	O 	0.83860 0.59992 0.70841 -0.37400
O 	O 	0.18350 0.63446 0.40963 -0.39000
O 	O 	0.26670 0.68112 0.36897 -0.40500
O 	O 	0.73680 0.60287 0.62403 -0.45500
H 	H 	0.79410 0.60170 0.64640 0.29400
O 	O 	0.31770 0.60646 0.48352 -0.44500
H 	H 	0.26200 0.60760 0.46060 0.29000
O 	O 	0.99500 0.56621 0.87751 -0.41900
O 	O 	0.85380 0.61370 0.88525 -0.39000
O 	O 	0.83820 0.64427 0.96600 -0.44700
H 	H 	0.82980 0.64220 0.93720 0.28900
O 	O 	0.89720 0.63895 0.16228 -0.45500
H 	H 	0.90690 0.63980 0.19120 0.29500
C 	C 	0.74220 0.61600 0.72370 0.34700
C 	C 	0.26930 0.66102 0.40560 0.35300
C 	C 	0.51590 0.63753 0.70270 0.03100
H 	H 	0.51510 0.64320 0.73450 0.03500
C 	C 	0.62640 0.62493 0.68770 -0.18800
C 	C 	0.62920 0.61711 0.63890 0.24100
C 	C 	0.51970 0.62106 0.60630 -0.08000
C 	C 	0.40530 0.63410 0.62290 0.06600
C 	C 	0.40440 0.64220 0.67200 -0.03600
C 	C 	0.28620 0.65440 0.68850 -0.02800
H 	H 	0.28630 0.66240 0.71980 0.04300
C 	C 	0.17170 0.65420 0.65800 -0.07300
H 	H 	0.09370 0.65900 0.66940 0.05600
C 	C 	0.17530 0.64670 0.61070 0.01800
H 	H 	0.10000 0.64910 0.58990 0.02800
C 	C 	0.28590 0.63600 0.59380 -0.11800
H 	H 	0.28300 0.62970 0.56190 0.09500
C 	C 	0.52650 0.60882 0.55560 -0.08600
H 	H 	0.61140 0.59770 0.55360 0.08500
H 	H 	0.46470 0.58720 0.54760 0.08400
C 	C 	0.45470 0.70000 0.44490 0.02800
H 	H 	0.43650 0.71920 0.42110 0.03500
C 	C 	0.37570 0.66670 0.44530 -0.18600
C 	C 	0.39790 0.63864 0.48298 0.24000
C 	C 	0.50060 0.64261 0.51770 -0.08200
C 	C 	0.58570 0.67480 0.51590 0.06500
C 	C 	0.55990 0.70580 0.47850 -0.03200
C 	C 	0.64860 0.73760 0.47610 -0.02400
H 	H 	0.63270 0.75660 0.45210 0.04600
C 	C 	0.75610 0.74150 0.50750 -0.07100
H 	H 	0.81190 0.76320 0.50540 0.06300
C 	C 	0.78170 0.71320 0.54250 0.01500
H 	H 	0.85610 0.71610 0.56380 0.03000
C 	C 	0.70140 0.68040 0.54770 -0.11200
H 	H 	0.72310 0.66190 0.57190 0.09200
C 	C 	0.93730 0.58840 0.90200 0.35800
C 	C 	0.05170 0.55614 0.97360 0.01400
H 	H 	0.08670 0.53820 0.95370 0.04400
C 	C 	0.97180 0.58608 0.95420 -0.16800
C 	C 	0.91760 0.61500 0.98530 0.22200
C 	C 	0.94520 0.61240 0.03450 -0.05800
C 	C 	0.02770 0.57990 0.05380 0.04500
C 	C 	0.08290 0.55146 0.02270 -0.01400
C 	C 	0.16560 0.51870 0.04150 -0.04200
H 	H 	0.20130 0.50070 0.02160 0.05000
C 	C 	0.19000 0.51490 0.09090 -0.05100
H 	H 	0.24410 0.49440 0.10410 0.04000
C 	C 	0.13470 0.54110 0.12030 -0.00100
H 	H 	0.15160 0.53750 0.15280 0.02100
C 	C 	0.05680 0.57190 0.10340 -0.09500
H 	H 	0.02090 0.58840 0.12470 0.08200
C 	C 	0.88750 0.64150 0.06480 -0.09900
H 	H 	0.83060 0.65920 0.04470 0.08700
H 	H 	0.83500 0.62650 0.08440 0.08900
C 	C 	0.14570 0.71430 0.16160 0.03300
H 	H 	0.20130 0.72970 0.18250 0.03400
C 	C 	0.14630 0.71950 0.11170 -0.03400
C 	C 	0.06460 0.69570 0.08070 0.06200
C 	C 	0.06870 0.70230 0.03090 -0.11400
H 	H 	0.01490 0.68720 0.00910 0.08600
C 	C 	0.14980 0.73010 0.01520 0.01900
H 	H 	0.15060 0.73350 0.98290 0.02200
C 	C 	0.22910 0.75270 0.04590 -0.07500
H 	H 	0.28380 0.77170 0.03500 0.06100
C 	C 	0.22750 0.74710 0.09450 -0.02300
H 	H 	0.28270 0.76230 0.11570 0.04500
C 	C 	0.02720 0.52830 0.73020 0.08900
H 	H 	0.99330 0.54470 0.70520 0.00100
C 	C 	0.12590 0.48050 0.76820 -0.00600
H 	H 	0.17430 0.45730 0.77600 0.03700
C 	C 	0.07420 0.50494 0.79840 0.00600
H 	H 	0.08070 0.50120 0.83090 0.02700
C 	C 	0.13100 0.47930 0.68200 -0.10200
H 	H 	0.10980 0.45070 0.68050 0.04900
H 	H 	0.08110 0.49250 0.65530 0.06400
C 	C 	0.26990 0.48420 0.67780 0.04400
C 	C 	0.32440 0.51950 0.67280 -0.04500
H 	H 	0.27090 0.54210 0.66950 0.05300
C 	C 	0.45580 0.52600 0.67200 -0.10600
H 	H 	0.48740 0.55220 0.67030 0.07100
C 	C 	0.53500 0.49474 0.67350 0.09400
C 	C 	0.47910 0.45860 0.67970 -0.09700
H 	H 	0.53100 0.43570 0.68200 0.07100
C 	C 	0.35070 0.45370 0.68300 -0.04800
H 	H 	0.32010 0.42800 0.68910 0.03900
C 	C 	0.67670 0.50068 0.67080 -0.15100
H 	H 	0.70560 0.52510 0.68780 0.07800
H 	H 	0.68990 0.50430 0.63800 0.08700
C 	C 	0.78760 0.43317 0.66620 0.08200
H 	H 	0.77180 0.43050 0.63360 -0.00000
C 	C 	0.84600 0.42309 0.73950 -0.00600
H 	H 	0.88200 0.41070 0.76740 0.02700
C 	C 	0.79030 0.45883 0.73730 0.00300
H 	H 	0.77800 0.47570 0.76240 0.01700
C 	C 	0.90480 0.73412 0.31990 0.08300
H 	H 	0.88930 0.73080 0.28730 -0.00400
C 	C 	0.97650 0.72522 0.39290 0.01900
H 	H 	0.01960 0.71440 0.42060 0.01300
C 	C 	0.90550 0.75944 0.39010 -0.01700
H 	H 	0.89070 0.77620 0.41500 0.04500
C 	C 	0.77750 0.79779 0.32190 -0.13500
H 	H 	0.81130 0.82350 0.33450 0.07700
H 	H 	0.78030 0.79800 0.28800 0.08200
C 	C 	0.64060 0.79352 0.33120 0.07700
C 	C 	0.58640 0.82050 0.35850 -0.07800
H 	H 	0.63560 0.84210 0.37150 0.06700
C 	C 	0.46290 0.81710 0.36750 -0.07000
H 	H 	0.43020 0.83620 0.38670 0.05800
C 	C 	0.38470 0.78606 0.34900 0.07400
C 	C 	0.43780 0.75910 0.32050 -0.07800
H 	H 	0.38770 0.73790 0.30690 0.07400
C 	C 	0.56390 0.76260 0.31140 -0.06900
H 	H 	0.59710 0.74400 0.29170 0.06000
C 	C 	0.24900 0.78190 0.35830 -0.13400
H 	H 	0.24330 0.78900 0.39100 0.07400
H 	H 	0.22290 0.75380 0.35390 0.08400
C 	C 	0.11480 0.84307 0.33810 0.08900
H 	H 	0.13370 0.85590 0.36710 -0.00400
C 	C 	0.03630 0.82996 0.26810 0.01800
H 	H 	0.98850 0.83210 0.23850 0.02000
C 	C 	0.11050 0.79887 0.28220 -0.02200
H 	H 	0.12560 0.77600 0.26480 0.05200
O 	O 	0.84200 0.19653 0.24169 -0.36500
O 	O 	0.01570 0.15917 0.25512 -0.42300
C 	C 	0.92960 0.18100 0.26920 0.35000
C 	C 	0.93360 0.18750 0.32110 -0.18600
C 	C 	0.02030 0.16440 0.35430 0.24400
C 	C 	0.01820 0.16790 0.40300 -0.07300
Cd	Cd	0.09464 0.08718 0.69676 1.20600
Cd	Cd	0.91729 0.15511 0.17490 1.20500
N 	N 	0.98830 0.03561 0.72549 -0.24300
N 	N 	0.90510 0.99578 0.77520 -0.11000
N 	N 	0.24540 0.96604 0.80935 -0.10500
N 	N 	0.15590 0.90611 0.80566 -0.23700
N 	N 	0.02480 0.20896 0.15116 -0.23900
N 	N 	0.14080 0.26469 0.15674 -0.10000
N 	N 	0.83920 0.30722 0.17221 -0.10000
N 	N 	0.96140 0.35813 0.19801 -0.23200
O 	O 	0.26230 0.12392 0.73437 -0.42400
O 	O 	0.16140 0.09992 0.79159 -0.37400
O 	O 	0.81650 0.13446 0.09037 -0.39000
O 	O 	0.73330 0.18112 0.13103 -0.40500
O 	O 	0.26320 0.10287 0.87597 -0.45500
H 	H 	0.20590 0.10170 0.85360 0.29400
O 	O 	0.68230 0.10646 0.01648 -0.44500
H 	H 	0.73800 0.10760 0.03940 0.29000
O 	O 	0.00500 0.06621 0.62249 -0.41900
O 	O 	0.14620 0.11370 0.61475 -0.39000
O 	O 	0.16180 0.14427 0.53400 -0.44700
H 	H 	0.17020 0.14220 0.56280 0.28900
O 	O 	0.10280 0.13895 0.33772 -0.45500
H 	H 	0.09310 0.13980 0.30880 0.29500
C 	C 	0.25780 0.11600 0.77630 0.34700
C 	C 	0.73070 0.16102 0.09440 0.35300
C 	C 	0.48410 0.13753 0.79730 0.03100
H 	H 	0.48490 0.14320 0.76550 0.03500
C 	C 	0.37360 0.12493 0.81230 -0.18800
C 	C 	0.37080 0.11711 0.86110 0.24100
C 	C 	0.48030 0.12106 0.89370 -0.08100
C 	C 	0.59470 0.13410 0.87710 0.06600
C 	C 	0.59560 0.14220 0.82800 -0.03600
C 	C 	0.71380 0.15440 0.81150 -0.02800
H 	H 	0.71370 0.16240 0.78020 0.04300
C 	C 	0.82830 0.15420 0.84200 -0.07300
H 	H 	0.90630 0.15900 0.83060 0.05600
C 	C 	0.82470 0.14670 0.88930 0.01800
H 	H 	0.90000 0.14910 0.91010 0.02800
C 	C 	0.71410 0.13600 0.90620 -0.11800
H 	H 	0.71700 0.12970 0.93810 0.09500
C 	C 	0.47350 0.10882 0.94440 -0.08600
H 	H 	0.38860 0.09770 0.94640 0.08500
H 	H 	0.53530 0.08720 0.95240 0.08400
C 	C 	0.54530 0.20000 0.05510 0.02800
H 	H 	0.56350 0.21920 0.07890 0.03500
C 	C 	0.62430 0.16670 0.05470 -0.18600
C 	C 	0.60210 0.13864 0.01702 0.24000
C 	C 	0.49940 0.14261 0.98230 -0.08200
C 	C 	0.41430 0.17480 0.98410 0.06500
C 	C 	0.44010 0.20580 0.02150 -0.03200
C 	C 	0.35140 0.23760 0.02390 -0.02400
H 	H 	0.36730 0.25660 0.04790 0.04600
C 	C 	0.24390 0.24150 0.99250 -0.07200
H 	H 	0.18810 0.26320 0.99460 0.06300
C 	C 	0.21830 0.21320 0.95750 0.01500
H 	H 	0.14390 0.21610 0.93620 0.03000
C 	C 	0.29860 0.18040 0.95230 -0.11200
H 	H 	0.27690 0.16190 0.92810 0.09200
C 	C 	0.06270 0.08840 0.59800 0.35800
C 	C 	0.94830 0.05614 0.52640 0.01400
H 	H 	0.91330 0.03820 0.54630 0.04400
C 	C 	0.02820 0.08608 0.54580 -0.16800
C 	C 	0.08240 0.11500 0.51470 0.22200
C 	C 	0.05480 0.11240 0.46550 -0.05800
C 	C 	0.97230 0.07990 0.44620 0.04400
C 	C 	0.91710 0.05146 0.47730 -0.01400
C 	C 	0.83440 0.01870 0.45850 -0.04200
H 	H 	0.79870 0.00070 0.47840 0.05000
C 	C 	0.81000 0.01490 0.40910 -0.05200
H 	H 	0.75590 0.99440 0.39590 0.04000
C 	C 	0.86530 0.04110 0.37970 -0.00100
H 	H 	0.84840 0.03750 0.34720 0.02100
C 	C 	0.94320 0.07190 0.39660 -0.09500
H 	H 	0.97910 0.08840 0.37530 0.08200
C 	C 	0.11250 0.14150 0.43520 -0.10000
H 	H 	0.16940 0.15920 0.45530 0.08700
H 	H 	0.16500 0.12650 0.41560 0.09000
C 	C 	0.85430 0.21430 0.33840 0.03300
H 	H 	0.79870 0.22970 0.31750 0.03400
C 	C 	0.85370 0.21950 0.38830 -0.03400
C 	C 	0.93540 0.19570 0.41930 0.06100
C 	C 	0.93130 0.20230 0.46910 -0.11300
H 	H 	0.98510 0.18720 0.49090 0.08600
C 	C 	0.85020 0.23010 0.48480 0.01900
H 	H 	0.84940 0.23350 0.51710 0.02200
C 	C 	0.77090 0.25270 0.45410 -0.07500
H 	H 	0.71620 0.27170 0.46500 0.06100
C 	C 	0.77250 0.24710 0.40550 -0.02300
H 	H 	0.71730 0.26230 0.38430 0.04500
C 	C 	0.97280 0.02830 0.76980 0.08900
H 	H 	0.00670 0.04470 0.79480 0.00100
C 	C 	0.87410 0.98050 0.73180 -0.00600
H 	H 	0.82570 0.95730 0.72400 0.03700
C 	C 	0.92580 0.00494 0.70160 0.00600
H 	H 	0.91930 0.00120 0.66910 0.02700
C 	C 	0.86900 0.97930 0.81800 -0.10200
H 	H 	0.89020 0.95070 0.81950 0.04900
H 	H 	0.91890 0.99250 0.84470 0.06400
C 	C 	0.73010 0.98420 0.82220 0.04400
C 	C 	0.67560 0.01950 0.82720 -0.04500
H 	H 	0.72910 0.04210 0.83050 0.05300
C 	C 	0.54420 0.02600 0.82800 -0.10600
H 	H 	0.51260 0.05220 0.82970 0.07100
C 	C 	0.46500 0.99474 0.82650 0.09400
C 	C 	0.52090 0.95860 0.82030 -0.09600
H 	H 	0.46900 0.93570 0.81800 0.07100
C 	C 	0.64930 0.95370 0.81700 -0.04900
H 	H 	0.67990 0.92800 0.81090 0.04000
C 	C 	0.32330 0.00068 0.82920 -0.15100
H 	H 	0.29440 0.02510 0.81220 0.07700
H 	H 	0.31010 0.00430 0.86200 0.08700
C 	C 	0.21240 0.93317 0.83380 0.08200
H 	H 	0.22820 0.93050 0.86640 -0.00000
C 	C 	0.15400 0.92309 0.76050 -0.00600
H 	H 	0.11800 0.91070 0.73260 0.02700
C 	C 	0.20970 0.95883 0.76270 0.00300
H 	H 	0.22200 0.97570 0.73760 0.01700
C 	C 	0.09520 0.23412 0.18010 0.08300
H 	H 	0.11070 0.23080 0.21270 -0.00400
C 	C 	0.02350 0.22522 0.10710 0.01900
H 	H 	0.98040 0.21440 0.07940 0.01300
C 	C 	0.09450 0.25944 0.10990 -0.01700
H 	H 	0.10930 0.27620 0.08500 0.04500
C 	C 	0.22250 0.29779 0.17810 -0.13500
H 	H 	0.18870 0.32350 0.16550 0.07700
H 	H 	0.21970 0.29800 0.21200 0.08200
C 	C 	0.35940 0.29352 0.16880 0.07700
C 	C 	0.41360 0.32050 0.14150 -0.07800
H 	H 	0.36440 0.34210 0.12850 0.06700
C 	C 	0.53710 0.31710 0.13250 -0.07000
H 	H 	0.56980 0.33620 0.11330 0.05800
C 	C 	0.61530 0.28606 0.15100 0.07400
C 	C 	0.56220 0.25910 0.17950 -0.07800
H 	H 	0.61230 0.23790 0.19310 0.07400
C 	C 	0.43610 0.26260 0.18860 -0.06900
H 	H 	0.40290 0.24400 0.20830 0.06000
C 	C 	0.75100 0.28190 0.14170 -0.13400
H 	H 	0.75670 0.28900 0.10900 0.07400
H 	H 	0.77710 0.25380 0.14610 0.08400
C 	C 	0.88520 0.34307 0.16190 0.08900
H 	H 	0.86630 0.35590 0.13290 -0.00400
C 	C 	0.96370 0.32996 0.23190 0.01800
H 	H 	0.01150 0.33210 0.26150 0.02000
C 	C 	0.88950 0.29887 0.21780 -0.02200
H 	H 	0.87440 0.27600 0.23520 0.05200
