data_crystal

_cell_length_a 36.87300
_cell_length_b 9.31520
_cell_length_c 10.92880
_cell_angle_alpha 90.00000
_cell_angle_beta  93.64300
_cell_angle_gamma 90.00000

_symmetry_space_group_name_	'P 1'
_symmetry_space_group_name_H-M	'P 1'

loop_
_symmetry_equiv_pos_as_xyz
  x,y,z

loop_
_atom_site_label
_atom_site_type_symbol
_atom_site_fract_x
_atom_site_fract_y
_atom_site_fract_z
_atom_site_charge
Cd	Cd	0.20749 0.80608 0.39579 1.17300
N 	N 	0.21940 0.98180 0.25000 -0.28500
N 	N 	0.22620 0.08210 0.07040 -0.27800
N 	N 	0.25040 0.15280 0.15710 -0.27600
N 	N 	0.18410 0.89470 0.07580 -0.34200
H 	H 	0.17960 0.89890 0.99770 0.13300
H 	H 	0.17300 0.83290 0.11850 0.15300
N 	N 	0.26140 0.12390 0.37310 -0.32500
H 	H 	0.27680 0.19310 0.37810 0.11900
H 	H 	0.25640 0.07730 0.43790 0.10100
O 	O 	0.15770 0.74690 0.28240 -0.46100
O 	O 	0.13730 0.92260 0.39420 -0.36900
O 	O 	0.06910 0.99460 0.37160 -0.43100
H 	H 	0.09030 0.99470 0.39950 0.28100
C 	C 	0.13220 0.82700 0.31030 0.34800
C 	C 	0.03250 0.88100 0.21060 -0.08000
C 	C 	0.06540 0.90000 0.27260 0.22700
C 	C 	0.09560 0.81500 0.24530 -0.18700
C 	C 	0.09190 0.71700 0.15200 0.03300
H 	H 	0.11100 0.65640 0.13690 0.02200
C 	C 	0.05890 0.70900 0.07810 -0.03800
C 	C 	0.02890 0.79300 0.10740 0.07800
C 	C 	0.99660 0.78700 0.02860 -0.12300
H 	H 	0.97670 0.84360 0.04390 0.09700
C 	C 	0.99530 0.69600 0.93060 0.02400
H 	H 	0.97430 0.69520 0.87860 0.02500
C 	C 	0.02320 0.60500 0.90390 -0.07500
H 	H 	0.02050 0.53950 0.83960 0.05800
C 	C 	0.05570 0.61400 0.97660 -0.01600
H 	H 	0.07540 0.55670 0.95840 0.03300
H 	H 	0.00830 0.03520 0.31780 0.08600
C 	C 	0.20870 0.98610 0.13180 0.18400
C 	C 	0.24470 0.08820 0.26260 0.15500
Cd	Cd	0.70749 0.30608 0.39579 1.17400
N 	N 	0.71940 0.48180 0.25000 -0.28400
N 	N 	0.72620 0.58210 0.07040 -0.27800
N 	N 	0.75040 0.65280 0.15710 -0.27600
N 	N 	0.68410 0.39470 0.07580 -0.34200
H 	H 	0.67960 0.39890 0.99770 0.13300
H 	H 	0.67300 0.33290 0.11850 0.15300
N 	N 	0.76140 0.62390 0.37310 -0.32500
H 	H 	0.77680 0.69310 0.37810 0.11900
H 	H 	0.75640 0.57730 0.43790 0.10100
O 	O 	0.65770 0.24690 0.28240 -0.46100
O 	O 	0.63730 0.42260 0.39420 -0.36900
O 	O 	0.56910 0.49460 0.37160 -0.43100
H 	H 	0.59030 0.49470 0.39950 0.28100
C 	C 	0.63220 0.32700 0.31030 0.34800
C 	C 	0.53250 0.38100 0.21060 -0.07900
C 	C 	0.56540 0.40000 0.27260 0.22600
C 	C 	0.59560 0.31500 0.24530 -0.18700
C 	C 	0.59190 0.21700 0.15200 0.03300
H 	H 	0.61100 0.15640 0.13690 0.02200
C 	C 	0.55890 0.20900 0.07810 -0.03800
C 	C 	0.52890 0.29300 0.10740 0.07700
C 	C 	0.49660 0.28700 0.02860 -0.12200
H 	H 	0.47670 0.34360 0.04390 0.09700
C 	C 	0.49530 0.19600 0.93060 0.02600
H 	H 	0.47430 0.19520 0.87860 0.02400
C 	C 	0.52320 0.10500 0.90390 -0.07800
H 	H 	0.52050 0.03950 0.83960 0.05900
C 	C 	0.55570 0.11400 0.97660 -0.01500
H 	H 	0.57540 0.05670 0.95840 0.03300
H 	H 	0.50830 0.53520 0.31780 0.08800
C 	C 	0.70870 0.48610 0.13180 0.18400
C 	C 	0.74470 0.58820 0.26260 0.15500
Cd	Cd	0.79251 0.80608 0.10421 1.17400
N 	N 	0.78060 0.98180 0.25000 -0.28400
N 	N 	0.77380 0.08210 0.42960 -0.27800
N 	N 	0.74960 0.15280 0.34290 -0.27600
N 	N 	0.81590 0.89470 0.42420 -0.34200
H 	H 	0.82040 0.89890 0.50230 0.13300
H 	H 	0.82700 0.83290 0.38150 0.15300
N 	N 	0.73860 0.12390 0.12690 -0.32500
H 	H 	0.72320 0.19310 0.12190 0.11900
H 	H 	0.74360 0.07730 0.06210 0.10100
O 	O 	0.84230 0.74690 0.21760 -0.46100
O 	O 	0.86270 0.92260 0.10580 -0.36900
O 	O 	0.93090 0.99460 0.12840 -0.43100
H 	H 	0.90970 0.99470 0.10050 0.28100
C 	C 	0.86780 0.82700 0.18970 0.34800
C 	C 	0.96750 0.88100 0.28940 -0.08100
C 	C 	0.93460 0.90000 0.22740 0.22700
C 	C 	0.90440 0.81500 0.25470 -0.18800
C 	C 	0.90810 0.71700 0.34800 0.03400
H 	H 	0.88900 0.65640 0.36310 0.02200
C 	C 	0.94110 0.70900 0.42190 -0.03900
C 	C 	0.97110 0.79300 0.39260 0.07700
C 	C 	0.00340 0.78700 0.47140 -0.12200
H 	H 	0.02330 0.84360 0.45610 0.09700
C 	C 	0.00470 0.69600 0.56940 0.02900
H 	H 	0.02570 0.69520 0.62140 0.02400
C 	C 	0.97680 0.60500 0.59610 -0.08000
H 	H 	0.97950 0.53950 0.66040 0.05900
C 	C 	0.94430 0.61400 0.52340 -0.01400
H 	H 	0.92460 0.55670 0.54160 0.03200
H 	H 	0.99170 0.03520 0.18220 0.08500
C 	C 	0.79130 0.98610 0.36820 0.18400
C 	C 	0.75530 0.08820 0.23740 0.15500
Cd	Cd	0.29251 0.30608 0.10421 1.17400
N 	N 	0.28060 0.48180 0.25000 -0.28400
N 	N 	0.27380 0.58210 0.42960 -0.27800
N 	N 	0.24960 0.65280 0.34290 -0.27600
N 	N 	0.31590 0.39470 0.42420 -0.34200
H 	H 	0.32040 0.39890 0.50230 0.13300
H 	H 	0.32700 0.33290 0.38150 0.15300
N 	N 	0.23860 0.62390 0.12690 -0.32500
H 	H 	0.22320 0.69310 0.12190 0.11900
H 	H 	0.24360 0.57730 0.06210 0.10100
O 	O 	0.34230 0.24690 0.21760 -0.46100
O 	O 	0.36270 0.42260 0.10580 -0.36900
O 	O 	0.43090 0.49460 0.12840 -0.43100
H 	H 	0.40970 0.49470 0.10050 0.28100
C 	C 	0.36780 0.32700 0.18970 0.34800
C 	C 	0.46750 0.38100 0.28940 -0.07900
C 	C 	0.43460 0.40000 0.22740 0.22600
C 	C 	0.40440 0.31500 0.25470 -0.18700
C 	C 	0.40810 0.21700 0.34800 0.03300
H 	H 	0.38900 0.15640 0.36310 0.02200
C 	C 	0.44110 0.20900 0.42190 -0.03800
C 	C 	0.47110 0.29300 0.39260 0.07700
C 	C 	0.50340 0.28700 0.47140 -0.12200
H 	H 	0.52330 0.34360 0.45610 0.09700
C 	C 	0.50470 0.19600 0.56940 0.02600
H 	H 	0.52570 0.19520 0.62140 0.02400
C 	C 	0.47680 0.10500 0.59610 -0.07700
H 	H 	0.47950 0.03950 0.66040 0.05900
C 	C 	0.44430 0.11400 0.52340 -0.01500
H 	H 	0.42460 0.05670 0.54160 0.03300
H 	H 	0.49170 0.53520 0.18220 0.08800
C 	C 	0.29130 0.48610 0.36820 0.18400
C 	C 	0.25530 0.58820 0.23740 0.15500
Cd	Cd	0.79251 0.19392 0.60421 1.17400
N 	N 	0.78060 0.01820 0.75000 -0.28400
N 	N 	0.77380 0.91790 0.92960 -0.27800
N 	N 	0.74960 0.84720 0.84290 -0.27600
N 	N 	0.81590 0.10530 0.92420 -0.34200
H 	H 	0.82040 0.10110 0.00230 0.13300
H 	H 	0.82700 0.16710 0.88150 0.15300
N 	N 	0.73860 0.87610 0.62690 -0.32500
H 	H 	0.72320 0.80690 0.62190 0.11900
H 	H 	0.74360 0.92270 0.56210 0.10100
O 	O 	0.84230 0.25310 0.71760 -0.46100
O 	O 	0.86270 0.07740 0.60580 -0.36900
O 	O 	0.93090 0.00540 0.62840 -0.43200
H 	H 	0.90970 0.00530 0.60050 0.28100
C 	C 	0.86780 0.17300 0.68970 0.34800
C 	C 	0.96750 0.11900 0.78940 -0.08100
C 	C 	0.93460 0.10000 0.72740 0.22700
C 	C 	0.90440 0.18500 0.75470 -0.18800
C 	C 	0.90810 0.28300 0.84800 0.03400
H 	H 	0.88900 0.34360 0.86310 0.02200
C 	C 	0.94110 0.29100 0.92190 -0.03800
C 	C 	0.97110 0.20700 0.89260 0.07700
C 	C 	0.00340 0.21300 0.97140 -0.12100
H 	H 	0.02330 0.15640 0.95610 0.09700
C 	C 	0.00470 0.30400 0.06940 0.02800
H 	H 	0.02570 0.30480 0.12140 0.02400
C 	C 	0.97680 0.39500 0.09610 -0.08000
H 	H 	0.97950 0.46050 0.16040 0.05900
C 	C 	0.94430 0.38600 0.02340 -0.01400
H 	H 	0.92460 0.44330 0.04160 0.03200
H 	H 	0.99170 0.96480 0.68220 0.08500
C 	C 	0.79130 0.01390 0.86820 0.18400
C 	C 	0.75530 0.91180 0.73740 0.15500
Cd	Cd	0.29251 0.69392 0.60421 1.17400
N 	N 	0.28060 0.51820 0.75000 -0.28400
N 	N 	0.27380 0.41790 0.92960 -0.27800
N 	N 	0.24960 0.34720 0.84290 -0.27600
N 	N 	0.31590 0.60530 0.92420 -0.34200
H 	H 	0.32040 0.60110 0.00230 0.13300
H 	H 	0.32700 0.66710 0.88150 0.15300
N 	N 	0.23860 0.37610 0.62690 -0.32500
H 	H 	0.22320 0.30690 0.62190 0.11900
H 	H 	0.24360 0.42270 0.56210 0.10100
O 	O 	0.34230 0.75310 0.71760 -0.46100
O 	O 	0.36270 0.57740 0.60580 -0.36900
O 	O 	0.43090 0.50540 0.62840 -0.43100
H 	H 	0.40970 0.50530 0.60050 0.28100
C 	C 	0.36780 0.67300 0.68970 0.34800
C 	C 	0.46750 0.61900 0.78940 -0.07900
C 	C 	0.43460 0.60000 0.72740 0.22600
C 	C 	0.40440 0.68500 0.75470 -0.18700
C 	C 	0.40810 0.78300 0.84800 0.03300
H 	H 	0.38900 0.84360 0.86310 0.02200
C 	C 	0.44110 0.79100 0.92190 -0.03800
C 	C 	0.47110 0.70700 0.89260 0.07700
C 	C 	0.50340 0.71300 0.97140 -0.12200
H 	H 	0.52330 0.65640 0.95610 0.09700
C 	C 	0.50470 0.80400 0.06940 0.02600
H 	H 	0.52570 0.80480 0.12140 0.02400
C 	C 	0.47680 0.89500 0.09610 -0.07800
H 	H 	0.47950 0.96050 0.16040 0.05900
C 	C 	0.44430 0.88600 0.02340 -0.01500
H 	H 	0.42460 0.94330 0.04160 0.03300
H 	H 	0.49170 0.46480 0.68220 0.08800
C 	C 	0.29130 0.51390 0.86820 0.18400
C 	C 	0.25530 0.41180 0.73740 0.15500
Cd	Cd	0.20749 0.19392 0.89579 1.17400
N 	N 	0.21940 0.01820 0.75000 -0.28400
N 	N 	0.22620 0.91790 0.57040 -0.27800
N 	N 	0.25040 0.84720 0.65710 -0.27600
N 	N 	0.18410 0.10530 0.57580 -0.34200
H 	H 	0.17960 0.10110 0.49770 0.13300
H 	H 	0.17300 0.16710 0.61850 0.15300
N 	N 	0.26140 0.87610 0.87310 -0.32500
H 	H 	0.27680 0.80690 0.87810 0.11900
H 	H 	0.25640 0.92270 0.93790 0.10100
O 	O 	0.15770 0.25310 0.78240 -0.46100
O 	O 	0.13730 0.07740 0.89420 -0.36900
O 	O 	0.06910 0.00540 0.87160 -0.43100
H 	H 	0.09030 0.00530 0.89950 0.28100
C 	C 	0.13220 0.17300 0.81030 0.34800
C 	C 	0.03250 0.11900 0.71060 -0.08000
C 	C 	0.06540 0.10000 0.77260 0.22700
C 	C 	0.09560 0.18500 0.74530 -0.18800
C 	C 	0.09190 0.28300 0.65200 0.03300
H 	H 	0.11100 0.34360 0.63690 0.02200
C 	C 	0.05890 0.29100 0.57810 -0.03800
C 	C 	0.02890 0.20700 0.60740 0.07900
C 	C 	0.99660 0.21300 0.52860 -0.12300
H 	H 	0.97670 0.15640 0.54390 0.09700
C 	C 	0.99530 0.30400 0.43060 0.02400
H 	H 	0.97430 0.30480 0.37860 0.02500
C 	C 	0.02320 0.39500 0.40390 -0.07600
H 	H 	0.02050 0.46050 0.33960 0.05800
C 	C 	0.05570 0.38600 0.47660 -0.01600
H 	H 	0.07540 0.44330 0.45840 0.03300
H 	H 	0.00830 0.96480 0.81780 0.08600
C 	C 	0.20870 0.01390 0.63180 0.18400
C 	C 	0.24470 0.91180 0.76260 0.15500
Cd	Cd	0.70749 0.69392 0.89579 1.17400
N 	N 	0.71940 0.51820 0.75000 -0.28400
N 	N 	0.72620 0.41790 0.57040 -0.27800
N 	N 	0.75040 0.34720 0.65710 -0.27600
N 	N 	0.68410 0.60530 0.57580 -0.34200
H 	H 	0.67960 0.60110 0.49770 0.13300
H 	H 	0.67300 0.66710 0.61850 0.15300
N 	N 	0.76140 0.37610 0.87310 -0.32500
H 	H 	0.77680 0.30690 0.87810 0.11900
H 	H 	0.75640 0.42270 0.93790 0.10100
O 	O 	0.65770 0.75310 0.78240 -0.46100
O 	O 	0.63730 0.57740 0.89420 -0.36900
O 	O 	0.56910 0.50540 0.87160 -0.43100
H 	H 	0.59030 0.50530 0.89950 0.28100
C 	C 	0.63220 0.67300 0.81030 0.34800
C 	C 	0.53250 0.61900 0.71060 -0.07900
C 	C 	0.56540 0.60000 0.77260 0.22600
C 	C 	0.59560 0.68500 0.74530 -0.18700
C 	C 	0.59190 0.78300 0.65200 0.03300
H 	H 	0.61100 0.84360 0.63690 0.02200
C 	C 	0.55890 0.79100 0.57810 -0.03800
C 	C 	0.52890 0.70700 0.60740 0.07700
C 	C 	0.49660 0.71300 0.52860 -0.12200
H 	H 	0.47670 0.65640 0.54390 0.09700
C 	C 	0.49530 0.80400 0.43060 0.02600
H 	H 	0.47430 0.80480 0.37860 0.02400
C 	C 	0.52320 0.89500 0.40390 -0.07700
H 	H 	0.52050 0.96050 0.33960 0.05900
C 	C 	0.55570 0.88600 0.47660 -0.01500
H 	H 	0.57540 0.94330 0.45840 0.03300
H 	H 	0.50830 0.46480 0.81780 0.08800
C 	C 	0.70870 0.51390 0.63180 0.18400
C 	C 	0.74470 0.41180 0.76260 0.15500
C 	C 	0.00000 0.97400 0.25000 -0.09000
C 	C 	0.50000 0.47400 0.25000 -0.09500
C 	C 	0.00000 0.02600 0.75000 -0.09000
C 	C 	0.50000 0.52600 0.75000 -0.09600
