data_crystal

_cell_length_a 30.81700
_cell_length_b 10.35400
_cell_length_c 34.56500
_cell_angle_alpha 90.00000
_cell_angle_beta  98.74800
_cell_angle_gamma 90.00000

_symmetry_space_group_name_	'P 1'
_symmetry_space_group_name_H-M	'P 1'

loop_
_symmetry_equiv_pos_as_xyz
  x,y,z

loop_
_atom_site_label
_atom_site_type_symbol
_atom_site_fract_x
_atom_site_fract_y
_atom_site_fract_z
_atom_site_charge
Ag	Ag	0.38156 0.93534 0.83045 0.50700
Ag	Ag	0.31413 0.68571 0.64650 0.50700
C 	C 	0.26620 0.83710 0.81850 -0.51700
H 	H 	0.25780 0.89980 0.83730 0.15400
H 	H 	0.24010 0.78980 0.80630 0.16300
H 	H 	0.27920 0.88270 0.79820 0.13900
C 	C 	0.29900 0.74410 0.83927 0.17800
C 	C 	0.29159 0.62080 0.85397 -0.11800
C 	C 	0.33249 0.57570 0.87073 0.18100
C 	C 	0.34670 0.45390 0.89310 -0.51900
H 	H 	0.36100 0.39590 0.87650 0.15700
H 	H 	0.32100 0.41080 0.90070 0.15800
H 	H 	0.36740 0.47580 0.91660 0.15300
C 	C 	0.26670 0.34270 0.81238 -0.50300
H 	H 	0.25610 0.25340 0.81240 0.12700
H 	H 	0.29750 0.34600 0.82460 0.15800
H 	H 	0.26410 0.37390 0.78540 0.15200
C 	C 	0.23963 0.42630 0.83492 0.16200
C 	C 	0.25008 0.54920 0.85222 -0.12000
C 	C 	0.21310 0.58670 0.86733 0.19500
C 	C 	0.20400 0.70470 0.88992 -0.56200
H 	H 	0.19040 0.77100 0.87180 0.18000
H 	H 	0.23150 0.73770 0.90440 0.18000
H 	H 	0.18390 0.68230 0.90840 0.17600
C 	C 	0.32320 0.10530 0.74578 -0.52300
H 	H 	0.32230 0.01620 0.75510 0.14000
H 	H 	0.32980 0.10540 0.71890 0.16700
H 	H 	0.29470 0.14660 0.74630 0.15500
C 	C 	0.35822 0.17860 0.77179 0.17800
C 	C 	0.37710 0.29730 0.76523 -0.13000
C 	C 	0.40670 0.32150 0.79868 0.20400
C 	C 	0.43650 0.43310 0.81010 -0.55900
H 	H 	0.44730 0.42910 0.83820 0.16700
H 	H 	0.42030 0.51390 0.80400 0.18300
H 	H 	0.46140 0.42960 0.79550 0.17300
C 	C 	0.32860 0.57990 0.75036 -0.51800
H 	H 	0.34560 0.65970 0.75530 0.15200
H 	H 	0.32830 0.53380 0.77510 0.16700
H 	H 	0.29840 0.60100 0.73870 0.14300
C 	C 	0.34910 0.49590 0.72263 0.17400
C 	C 	0.37030 0.37570 0.72901 -0.11500
C 	C 	0.38355 0.34430 0.69383 0.18300
C 	C 	0.40950 0.23220 0.68185 -0.52000
H 	H 	0.39090 0.15490 0.67880 0.15800
H 	H 	0.43500 0.21660 0.70200 0.15800
H 	H 	0.41960 0.25200 0.65690 0.15400
C 	C 	0.19420 0.60430 0.59878 -0.50100
H 	H 	0.18060 0.52990 0.60980 0.13800
H 	H 	0.17220 0.64850 0.57990 0.15100
H 	H 	0.20560 0.66410 0.61990 0.13800
C 	C 	0.23100 0.55900 0.57859 0.17800
C 	C 	0.22843 0.50010 0.54208 -0.12700
C 	C 	0.27180 0.47430 0.53701 0.20300
C 	C 	0.29120 0.41290 0.50486 -0.57100
H 	H 	0.30540 0.47900 0.49080 0.17000
H 	H 	0.26800 0.37040 0.48680 0.18000
H 	H 	0.31300 0.34870 0.51580 0.17900
C 	C 	0.14900 0.30180 0.55005 -0.52400
H 	H 	0.13230 0.35010 0.56720 0.15700
H 	H 	0.17770 0.27830 0.56460 0.16800
H 	H 	0.13290 0.22330 0.54090 0.16100
C 	C 	0.15510 0.38370 0.51576 0.18100
C 	C 	0.18932 0.47250 0.51216 -0.12100
C 	C 	0.17925 0.52660 0.47569 0.18800
C 	C 	0.20270 0.62610 0.45541 -0.52900
H 	H 	0.22390 0.58370 0.44120 0.16300
H 	H 	0.21810 0.68580 0.47480 0.16500
H 	H 	0.18140 0.67420 0.43690 0.15100
C 	C 	0.42100 0.90000 0.73800 -0.53100
H 	H 	0.39820 0.84370 0.72430 0.15200
H 	H 	0.43930 0.93310 0.71940 0.16400
H 	H 	0.40730 0.97250 0.74980 0.15400
C 	C 	0.44880 0.82520 0.76937 0.18200
C 	C 	0.48820 0.75810 0.76677 -0.12100
C 	C 	0.50064 0.70380 0.80321 0.19200
C 	C 	0.53880 0.62050 0.81778 -0.53600
H 	H 	0.56460 0.67470 0.82610 0.15800
H 	H 	0.54470 0.56240 0.79680 0.17200
H 	H 	0.53220 0.56950 0.84010 0.15800
N 	N 	0.34129 0.77370 0.84619 -0.18800
N 	N 	0.36165 0.67000 0.86553 -0.19100
H 	H 	0.39010 0.66500 0.87360 0.08400
N 	N 	0.19930 0.39080 0.84032 -0.18500
N 	N 	0.18349 0.48990 0.85971 -0.19700
H 	H 	0.15710 0.49120 0.86650 0.08300
N 	N 	0.37485 0.13140 0.80670 -0.19000
N 	N 	0.40439 0.22190 0.82298 -0.20000
H 	H 	0.41990 0.21560 0.84650 0.07900
N 	N 	0.34918 0.53580 0.68589 -0.18400
N 	N 	0.37045 0.44120 0.66875 -0.19500
H 	H 	0.37510 0.44320 0.64430 0.08100
N 	N 	0.27265 0.56940 0.59619 -0.17800
N 	N 	0.29637 0.51690 0.57013 -0.19800
H 	H 	0.32520 0.51120 0.57450 0.08300
N 	N 	0.12591 0.38260 0.48313 -0.13100
N 	N 	0.14110 0.46870 0.45890 -0.19100
H 	H 	0.12790 0.48540 0.43500 0.09300
N 	N 	0.43776 0.81360 0.80505 -0.17300
N 	N 	0.47017 0.73980 0.82547 -0.19400
H 	H 	0.47110 0.71820 0.85020 0.08600
Ag	Ag	0.88156 0.43534 0.83045 0.50700
Ag	Ag	0.81413 0.18571 0.64650 0.50600
C 	C 	0.76620 0.33710 0.81850 -0.51800
H 	H 	0.75780 0.39980 0.83730 0.15300
H 	H 	0.74010 0.28980 0.80630 0.16200
H 	H 	0.77920 0.38270 0.79820 0.13800
C 	C 	0.79900 0.24410 0.83927 0.17700
C 	C 	0.79159 0.12080 0.85397 -0.11900
C 	C 	0.83249 0.07570 0.87073 0.18000
C 	C 	0.84670 0.95390 0.89310 -0.52100
H 	H 	0.86100 0.89590 0.87650 0.15600
H 	H 	0.82100 0.91080 0.90070 0.15700
H 	H 	0.86740 0.97580 0.91660 0.15200
C 	C 	0.76670 0.84270 0.81238 -0.50400
H 	H 	0.75610 0.75340 0.81240 0.12600
H 	H 	0.79750 0.84600 0.82460 0.15700
H 	H 	0.76410 0.87390 0.78540 0.15100
C 	C 	0.73963 0.92630 0.83492 0.16000
C 	C 	0.75008 0.04920 0.85222 -0.12000
C 	C 	0.71310 0.08670 0.86733 0.19500
C 	C 	0.70400 0.20470 0.88992 -0.56200
H 	H 	0.69040 0.27100 0.87180 0.18000
H 	H 	0.73150 0.23770 0.90440 0.18000
H 	H 	0.68390 0.18230 0.90840 0.17700
C 	C 	0.82320 0.60530 0.74578 -0.52200
H 	H 	0.82230 0.51620 0.75510 0.13900
H 	H 	0.82980 0.60540 0.71890 0.16700
H 	H 	0.79470 0.64660 0.74630 0.15500
C 	C 	0.85822 0.67860 0.77179 0.17800
C 	C 	0.87710 0.79730 0.76523 -0.13100
C 	C 	0.90670 0.82150 0.79868 0.20400
C 	C 	0.93650 0.93310 0.81010 -0.56100
H 	H 	0.94730 0.92910 0.83820 0.16800
H 	H 	0.92030 0.01390 0.80400 0.18400
H 	H 	0.96140 0.92960 0.79550 0.17300
C 	C 	0.82860 0.07990 0.75036 -0.51600
H 	H 	0.84560 0.15970 0.75530 0.15200
H 	H 	0.82830 0.03380 0.77510 0.16700
H 	H 	0.79840 0.10100 0.73870 0.14300
C 	C 	0.84910 0.99590 0.72263 0.17300
C 	C 	0.87030 0.87570 0.72901 -0.11500
C 	C 	0.88355 0.84430 0.69383 0.18300
C 	C 	0.90950 0.73220 0.68185 -0.51900
H 	H 	0.89090 0.65490 0.67880 0.15700
H 	H 	0.93500 0.71660 0.70200 0.15800
H 	H 	0.91960 0.75200 0.65690 0.15400
C 	C 	0.69420 0.10430 0.59878 -0.50100
H 	H 	0.68060 0.02990 0.60980 0.13800
H 	H 	0.67220 0.14850 0.57990 0.15100
H 	H 	0.70560 0.16410 0.61990 0.13800
C 	C 	0.73100 0.05900 0.57859 0.17800
C 	C 	0.72843 0.00010 0.54208 -0.12600
C 	C 	0.77180 0.97430 0.53701 0.20200
C 	C 	0.79120 0.91290 0.50486 -0.57000
H 	H 	0.80540 0.97900 0.49080 0.17000
H 	H 	0.76800 0.87040 0.48680 0.18000
H 	H 	0.81300 0.84870 0.51580 0.17900
C 	C 	0.64900 0.80180 0.55005 -0.52500
H 	H 	0.63230 0.85010 0.56720 0.15700
H 	H 	0.67770 0.77830 0.56460 0.16800
H 	H 	0.63290 0.72330 0.54090 0.16100
C 	C 	0.65510 0.88370 0.51576 0.18200
C 	C 	0.68932 0.97250 0.51216 -0.12100
C 	C 	0.67925 0.02660 0.47569 0.18900
C 	C 	0.70270 0.12610 0.45541 -0.52900
H 	H 	0.72390 0.08370 0.44120 0.16300
H 	H 	0.71810 0.18580 0.47480 0.16600
H 	H 	0.68140 0.17420 0.43690 0.15100
C 	C 	0.92100 0.40000 0.73800 -0.53200
H 	H 	0.89820 0.34370 0.72430 0.15300
H 	H 	0.93930 0.43310 0.71940 0.16500
H 	H 	0.90730 0.47250 0.74980 0.15400
C 	C 	0.94880 0.32520 0.76937 0.18200
C 	C 	0.98820 0.25810 0.76677 -0.12100
C 	C 	0.00064 0.20380 0.80321 0.19200
C 	C 	0.03880 0.12050 0.81778 -0.53700
H 	H 	0.06460 0.17470 0.82610 0.15800
H 	H 	0.04470 0.06240 0.79680 0.17200
H 	H 	0.03220 0.06950 0.84010 0.15800
N 	N 	0.84129 0.27370 0.84619 -0.18800
N 	N 	0.86165 0.17000 0.86553 -0.19100
H 	H 	0.89010 0.16500 0.87360 0.08400
N 	N 	0.69930 0.89080 0.84032 -0.18400
N 	N 	0.68349 0.98990 0.85971 -0.19700
H 	H 	0.65710 0.99120 0.86650 0.08200
N 	N 	0.87485 0.63140 0.80670 -0.19000
N 	N 	0.90439 0.72190 0.82298 -0.20000
H 	H 	0.91990 0.71560 0.84650 0.07900
N 	N 	0.84918 0.03580 0.68589 -0.18400
N 	N 	0.87045 0.94120 0.66875 -0.19500
H 	H 	0.87510 0.94320 0.64430 0.08100
N 	N 	0.77265 0.06940 0.59619 -0.17800
N 	N 	0.79637 0.01690 0.57013 -0.19700
H 	H 	0.82520 0.01120 0.57450 0.08300
N 	N 	0.62591 0.88260 0.48313 -0.13100
N 	N 	0.64110 0.96870 0.45890 -0.19100
H 	H 	0.62790 0.98540 0.43500 0.09300
N 	N 	0.93776 0.31360 0.80505 -0.17300
N 	N 	0.97017 0.23980 0.82547 -0.19400
H 	H 	0.97110 0.21820 0.85020 0.08600
Ag	Ag	0.61844 0.93534 0.66955 0.50600
Ag	Ag	0.68587 0.68571 0.85350 0.50600
C 	C 	0.73380 0.83710 0.68150 -0.51800
H 	H 	0.74220 0.89980 0.66270 0.15300
H 	H 	0.75990 0.78980 0.69370 0.16200
H 	H 	0.72080 0.88270 0.70180 0.13800
C 	C 	0.70100 0.74410 0.66073 0.17700
C 	C 	0.70841 0.62080 0.64603 -0.11900
C 	C 	0.66751 0.57570 0.62927 0.18000
C 	C 	0.65330 0.45390 0.60690 -0.52000
H 	H 	0.63900 0.39590 0.62350 0.15600
H 	H 	0.67900 0.41080 0.59930 0.15700
H 	H 	0.63260 0.47580 0.58340 0.15200
C 	C 	0.73330 0.34270 0.68762 -0.50400
H 	H 	0.74390 0.25340 0.68760 0.12600
H 	H 	0.70250 0.34600 0.67540 0.15700
H 	H 	0.73590 0.37390 0.71460 0.15100
C 	C 	0.76037 0.42630 0.66508 0.16100
C 	C 	0.74992 0.54920 0.64778 -0.12100
C 	C 	0.78690 0.58670 0.63267 0.19400
C 	C 	0.79600 0.70470 0.61008 -0.56200
H 	H 	0.80960 0.77100 0.62820 0.18000
H 	H 	0.76850 0.73770 0.59560 0.18000
H 	H 	0.81610 0.68230 0.59160 0.17600
C 	C 	0.67680 0.10530 0.75422 -0.52300
H 	H 	0.67770 0.01620 0.74490 0.14000
H 	H 	0.67020 0.10540 0.78110 0.16700
H 	H 	0.70530 0.14660 0.75370 0.15500
C 	C 	0.64178 0.17860 0.72821 0.17800
C 	C 	0.62290 0.29730 0.73477 -0.13000
C 	C 	0.59330 0.32150 0.70132 0.20400
C 	C 	0.56350 0.43310 0.68990 -0.55900
H 	H 	0.55270 0.42910 0.66180 0.16700
H 	H 	0.57970 0.51390 0.69600 0.18300
H 	H 	0.53860 0.42960 0.70450 0.17300
C 	C 	0.67140 0.57990 0.74964 -0.51800
H 	H 	0.65440 0.65970 0.74470 0.15200
H 	H 	0.67170 0.53380 0.72490 0.16700
H 	H 	0.70160 0.60100 0.76130 0.14300
C 	C 	0.65090 0.49590 0.77737 0.17400
C 	C 	0.62970 0.37570 0.77099 -0.11500
C 	C 	0.61645 0.34430 0.80617 0.18300
C 	C 	0.59050 0.23220 0.81815 -0.52000
H 	H 	0.60910 0.15490 0.82120 0.15800
H 	H 	0.56500 0.21660 0.79800 0.15800
H 	H 	0.58040 0.25200 0.84310 0.15400
C 	C 	0.80580 0.60430 0.90122 -0.50100
H 	H 	0.81940 0.52990 0.89020 0.13800
H 	H 	0.82780 0.64850 0.92010 0.15100
H 	H 	0.79440 0.66410 0.88010 0.13800
C 	C 	0.76900 0.55900 0.92141 0.17800
C 	C 	0.77157 0.50010 0.95792 -0.12700
C 	C 	0.72820 0.47430 0.96299 0.20300
C 	C 	0.70880 0.41290 0.99514 -0.57100
H 	H 	0.69460 0.47900 0.00920 0.17000
H 	H 	0.73200 0.37040 0.01320 0.18000
H 	H 	0.68700 0.34870 0.98420 0.17900
C 	C 	0.85100 0.30180 0.94995 -0.52400
H 	H 	0.86770 0.35010 0.93280 0.15700
H 	H 	0.82230 0.27830 0.93540 0.16800
H 	H 	0.86710 0.22330 0.95910 0.16100
C 	C 	0.84490 0.38370 0.98424 0.18100
C 	C 	0.81068 0.47250 0.98784 -0.12100
C 	C 	0.82075 0.52660 0.02431 0.18800
C 	C 	0.79730 0.62610 0.04459 -0.52900
H 	H 	0.77610 0.58370 0.05880 0.16300
H 	H 	0.78190 0.68580 0.02520 0.16500
H 	H 	0.81860 0.67420 0.06310 0.15100
C 	C 	0.57900 0.90000 0.76200 -0.53100
H 	H 	0.60180 0.84370 0.77570 0.15200
H 	H 	0.56070 0.93310 0.78060 0.16400
H 	H 	0.59270 0.97250 0.75020 0.15400
C 	C 	0.55120 0.82520 0.73063 0.18200
C 	C 	0.51180 0.75810 0.73323 -0.12100
C 	C 	0.49936 0.70380 0.69679 0.19200
C 	C 	0.46120 0.62050 0.68222 -0.53600
H 	H 	0.43540 0.67470 0.67390 0.15800
H 	H 	0.45530 0.56240 0.70320 0.17200
H 	H 	0.46780 0.56950 0.65990 0.15800
N 	N 	0.65871 0.77370 0.65381 -0.18800
N 	N 	0.63835 0.67000 0.63447 -0.19100
H 	H 	0.60990 0.66500 0.62640 0.08400
N 	N 	0.80070 0.39080 0.65968 -0.18500
N 	N 	0.81651 0.48990 0.64029 -0.19700
H 	H 	0.84290 0.49120 0.63350 0.08300
N 	N 	0.62515 0.13140 0.69330 -0.19000
N 	N 	0.59561 0.22190 0.67702 -0.20000
H 	H 	0.58010 0.21560 0.65350 0.07900
N 	N 	0.65082 0.53580 0.81411 -0.18400
N 	N 	0.62955 0.44120 0.83125 -0.19500
H 	H 	0.62490 0.44320 0.85570 0.08100
N 	N 	0.72735 0.56940 0.90381 -0.17800
N 	N 	0.70363 0.51690 0.92987 -0.19800
H 	H 	0.67480 0.51120 0.92550 0.08300
N 	N 	0.87409 0.38260 0.01687 -0.13100
N 	N 	0.85890 0.46870 0.04110 -0.19100
H 	H 	0.87210 0.48540 0.06500 0.09300
N 	N 	0.56224 0.81360 0.69495 -0.17300
N 	N 	0.52983 0.73980 0.67453 -0.19400
H 	H 	0.52890 0.71820 0.64980 0.08600
Ag	Ag	0.11844 0.43534 0.66955 0.50700
Ag	Ag	0.18587 0.18571 0.85350 0.50600
C 	C 	0.23380 0.33710 0.68150 -0.51800
H 	H 	0.24220 0.39980 0.66270 0.15300
H 	H 	0.25990 0.28980 0.69370 0.16200
H 	H 	0.22080 0.38270 0.70180 0.13800
C 	C 	0.20100 0.24410 0.66073 0.17700
C 	C 	0.20841 0.12080 0.64603 -0.11900
C 	C 	0.16751 0.07570 0.62927 0.18000
C 	C 	0.15330 0.95390 0.60690 -0.52100
H 	H 	0.13900 0.89590 0.62350 0.15600
H 	H 	0.17900 0.91080 0.59930 0.15700
H 	H 	0.13260 0.97580 0.58340 0.15200
C 	C 	0.23330 0.84270 0.68762 -0.50400
H 	H 	0.24390 0.75340 0.68760 0.12600
H 	H 	0.20250 0.84600 0.67540 0.15700
H 	H 	0.23590 0.87390 0.71460 0.15100
C 	C 	0.26037 0.92630 0.66508 0.16000
C 	C 	0.24992 0.04920 0.64778 -0.12000
C 	C 	0.28690 0.08670 0.63267 0.19500
C 	C 	0.29600 0.20470 0.61008 -0.56200
H 	H 	0.30960 0.27100 0.62820 0.18000
H 	H 	0.26850 0.23770 0.59560 0.18000
H 	H 	0.31610 0.18230 0.59160 0.17700
C 	C 	0.17680 0.60530 0.75422 -0.52200
H 	H 	0.17770 0.51620 0.74490 0.13900
H 	H 	0.17020 0.60540 0.78110 0.16700
H 	H 	0.20530 0.64660 0.75370 0.15500
C 	C 	0.14178 0.67860 0.72821 0.17800
C 	C 	0.12290 0.79730 0.73477 -0.13100
C 	C 	0.09330 0.82150 0.70132 0.20400
C 	C 	0.06350 0.93310 0.68990 -0.56100
H 	H 	0.05270 0.92910 0.66180 0.16800
H 	H 	0.07970 0.01390 0.69600 0.18400
H 	H 	0.03860 0.92960 0.70450 0.17300
C 	C 	0.17140 0.07990 0.74964 -0.51600
H 	H 	0.15440 0.15970 0.74470 0.15200
H 	H 	0.17170 0.03380 0.72490 0.16700
H 	H 	0.20160 0.10100 0.76130 0.14300
C 	C 	0.15090 0.99590 0.77737 0.17300
C 	C 	0.12970 0.87570 0.77099 -0.11500
C 	C 	0.11645 0.84430 0.80617 0.18300
C 	C 	0.09050 0.73220 0.81815 -0.51900
H 	H 	0.10910 0.65490 0.82120 0.15700
H 	H 	0.06500 0.71660 0.79800 0.15800
H 	H 	0.08040 0.75200 0.84310 0.15400
C 	C 	0.30580 0.10430 0.90122 -0.50100
H 	H 	0.31940 0.02990 0.89020 0.13800
H 	H 	0.32780 0.14850 0.92010 0.15100
H 	H 	0.29440 0.16410 0.88010 0.13800
C 	C 	0.26900 0.05900 0.92141 0.17800
C 	C 	0.27157 0.00010 0.95792 -0.12600
C 	C 	0.22820 0.97430 0.96299 0.20200
C 	C 	0.20880 0.91290 0.99514 -0.57000
H 	H 	0.19460 0.97900 0.00920 0.17000
H 	H 	0.23200 0.87040 0.01320 0.18000
H 	H 	0.18700 0.84870 0.98420 0.17900
C 	C 	0.35100 0.80180 0.94995 -0.52500
H 	H 	0.36770 0.85010 0.93280 0.15700
H 	H 	0.32230 0.77830 0.93540 0.16800
H 	H 	0.36710 0.72330 0.95910 0.16100
C 	C 	0.34490 0.88370 0.98424 0.18200
C 	C 	0.31068 0.97250 0.98784 -0.12100
C 	C 	0.32075 0.02660 0.02431 0.18800
C 	C 	0.29730 0.12610 0.04459 -0.52900
H 	H 	0.27610 0.08370 0.05880 0.16300
H 	H 	0.28190 0.18580 0.02520 0.16500
H 	H 	0.31860 0.17420 0.06310 0.15100
C 	C 	0.07900 0.40000 0.76200 -0.53200
H 	H 	0.10180 0.34370 0.77570 0.15300
H 	H 	0.06070 0.43310 0.78060 0.16500
H 	H 	0.09270 0.47250 0.75020 0.15400
C 	C 	0.05120 0.32520 0.73063 0.18200
C 	C 	0.01180 0.25810 0.73323 -0.12100
C 	C 	0.99936 0.20380 0.69679 0.19200
C 	C 	0.96120 0.12050 0.68222 -0.53700
H 	H 	0.93540 0.17470 0.67390 0.15800
H 	H 	0.95530 0.06240 0.70320 0.17200
H 	H 	0.96780 0.06950 0.65990 0.15800
N 	N 	0.15871 0.27370 0.65381 -0.18800
N 	N 	0.13835 0.17000 0.63447 -0.19100
H 	H 	0.10990 0.16500 0.62640 0.08400
N 	N 	0.30070 0.89080 0.65968 -0.18400
N 	N 	0.31651 0.98990 0.64029 -0.19700
H 	H 	0.34290 0.99120 0.63350 0.08200
N 	N 	0.12515 0.63140 0.69330 -0.19000
N 	N 	0.09561 0.72190 0.67702 -0.20000
H 	H 	0.08010 0.71560 0.65350 0.07900
N 	N 	0.15082 0.03580 0.81411 -0.18400
N 	N 	0.12955 0.94120 0.83125 -0.19500
H 	H 	0.12490 0.94320 0.85570 0.08100
N 	N 	0.22735 0.06940 0.90381 -0.17800
N 	N 	0.20363 0.01690 0.92987 -0.19700
H 	H 	0.17480 0.01120 0.92550 0.08300
N 	N 	0.37409 0.88260 0.01687 -0.13100
N 	N 	0.35890 0.96870 0.04110 -0.19100
H 	H 	0.37210 0.98540 0.06500 0.09300
N 	N 	0.06224 0.31360 0.69495 -0.17300
N 	N 	0.02983 0.23980 0.67453 -0.19400
H 	H 	0.02890 0.21820 0.64980 0.08600
Ag	Ag	0.61844 0.06466 0.16955 0.50600
Ag	Ag	0.68587 0.31429 0.35350 0.50600
C 	C 	0.73380 0.16290 0.18150 -0.51800
H 	H 	0.74220 0.10020 0.16270 0.15300
H 	H 	0.75990 0.21020 0.19370 0.16200
H 	H 	0.72080 0.11730 0.20180 0.13800
C 	C 	0.70100 0.25590 0.16073 0.17700
C 	C 	0.70841 0.37920 0.14603 -0.11900
C 	C 	0.66751 0.42430 0.12927 0.18000
C 	C 	0.65330 0.54610 0.10690 -0.52000
H 	H 	0.63900 0.60410 0.12350 0.15600
H 	H 	0.67900 0.58920 0.09930 0.15700
H 	H 	0.63260 0.52420 0.08340 0.15200
C 	C 	0.73330 0.65730 0.18762 -0.50400
H 	H 	0.74390 0.74660 0.18760 0.12600
H 	H 	0.70250 0.65400 0.17540 0.15700
H 	H 	0.73590 0.62610 0.21460 0.15100
C 	C 	0.76037 0.57370 0.16508 0.16100
C 	C 	0.74992 0.45080 0.14778 -0.12100
C 	C 	0.78690 0.41330 0.13267 0.19400
C 	C 	0.79600 0.29530 0.11008 -0.56200
H 	H 	0.80960 0.22900 0.12820 0.18000
H 	H 	0.76850 0.26230 0.09560 0.18000
H 	H 	0.81610 0.31770 0.09160 0.17600
C 	C 	0.67680 0.89470 0.25422 -0.52300
H 	H 	0.67770 0.98380 0.24490 0.14000
H 	H 	0.67020 0.89460 0.28110 0.16700
H 	H 	0.70530 0.85340 0.25370 0.15500
C 	C 	0.64178 0.82140 0.22821 0.17800
C 	C 	0.62290 0.70270 0.23477 -0.13000
C 	C 	0.59330 0.67850 0.20132 0.20400
C 	C 	0.56350 0.56690 0.18990 -0.55900
H 	H 	0.55270 0.57090 0.16180 0.16700
H 	H 	0.57970 0.48610 0.19600 0.18300
H 	H 	0.53860 0.57040 0.20450 0.17300
C 	C 	0.67140 0.42010 0.24964 -0.51800
H 	H 	0.65440 0.34030 0.24470 0.15200
H 	H 	0.67170 0.46620 0.22490 0.16700
H 	H 	0.70160 0.39900 0.26130 0.14300
C 	C 	0.65090 0.50410 0.27737 0.17400
C 	C 	0.62970 0.62430 0.27099 -0.11500
C 	C 	0.61645 0.65570 0.30617 0.18300
C 	C 	0.59050 0.76780 0.31815 -0.52000
H 	H 	0.60910 0.84510 0.32120 0.15800
H 	H 	0.56500 0.78340 0.29800 0.15800
H 	H 	0.58040 0.74800 0.34310 0.15400
C 	C 	0.80580 0.39570 0.40122 -0.50100
H 	H 	0.81940 0.47010 0.39020 0.13800
H 	H 	0.82780 0.35150 0.42010 0.15100
H 	H 	0.79440 0.33590 0.38010 0.13800
C 	C 	0.76900 0.44100 0.42141 0.17800
C 	C 	0.77157 0.49990 0.45792 -0.12700
C 	C 	0.72820 0.52570 0.46299 0.20300
C 	C 	0.70880 0.58710 0.49514 -0.57100
H 	H 	0.69460 0.52100 0.50920 0.17000
H 	H 	0.73200 0.62960 0.51320 0.18000
H 	H 	0.68700 0.65130 0.48420 0.17900
C 	C 	0.85100 0.69820 0.44995 -0.52400
H 	H 	0.86770 0.64990 0.43280 0.15700
H 	H 	0.82230 0.72170 0.43540 0.16800
H 	H 	0.86710 0.77670 0.45910 0.16100
C 	C 	0.84490 0.61630 0.48424 0.18100
C 	C 	0.81068 0.52750 0.48784 -0.12100
C 	C 	0.82075 0.47340 0.52431 0.18800
C 	C 	0.79730 0.37390 0.54459 -0.52900
H 	H 	0.77610 0.41630 0.55880 0.16300
H 	H 	0.78190 0.31420 0.52520 0.16500
H 	H 	0.81860 0.32580 0.56310 0.15100
C 	C 	0.57900 0.10000 0.26200 -0.53100
H 	H 	0.60180 0.15630 0.27570 0.15200
H 	H 	0.56070 0.06690 0.28060 0.16400
H 	H 	0.59270 0.02750 0.25020 0.15400
C 	C 	0.55120 0.17480 0.23063 0.18200
C 	C 	0.51180 0.24190 0.23323 -0.12100
C 	C 	0.49936 0.29620 0.19679 0.19200
C 	C 	0.46120 0.37950 0.18222 -0.53600
H 	H 	0.43540 0.32530 0.17390 0.15800
H 	H 	0.45530 0.43760 0.20320 0.17200
H 	H 	0.46780 0.43050 0.15990 0.15800
N 	N 	0.65871 0.22630 0.15381 -0.18800
N 	N 	0.63835 0.33000 0.13447 -0.19100
H 	H 	0.60990 0.33500 0.12640 0.08400
N 	N 	0.80070 0.60920 0.15968 -0.18500
N 	N 	0.81651 0.51010 0.14029 -0.19700
H 	H 	0.84290 0.50880 0.13350 0.08300
N 	N 	0.62515 0.86860 0.19330 -0.19000
N 	N 	0.59561 0.77810 0.17702 -0.20000
H 	H 	0.58010 0.78440 0.15350 0.07900
N 	N 	0.65082 0.46420 0.31411 -0.18400
N 	N 	0.62955 0.55880 0.33125 -0.19500
H 	H 	0.62490 0.55680 0.35570 0.08100
N 	N 	0.72735 0.43060 0.40381 -0.17800
N 	N 	0.70363 0.48310 0.42987 -0.19800
H 	H 	0.67480 0.48880 0.42550 0.08300
N 	N 	0.87409 0.61740 0.51687 -0.13100
N 	N 	0.85890 0.53130 0.54110 -0.19100
H 	H 	0.87210 0.51460 0.56500 0.09300
N 	N 	0.56224 0.18640 0.19495 -0.17300
N 	N 	0.52983 0.26020 0.17453 -0.19400
H 	H 	0.52890 0.28180 0.14980 0.08600
Ag	Ag	0.11844 0.56466 0.16955 0.50700
Ag	Ag	0.18587 0.81429 0.35350 0.50600
C 	C 	0.23380 0.66290 0.18150 -0.51800
H 	H 	0.24220 0.60020 0.16270 0.15300
H 	H 	0.25990 0.71020 0.19370 0.16200
H 	H 	0.22080 0.61730 0.20180 0.13800
C 	C 	0.20100 0.75590 0.16073 0.17700
C 	C 	0.20841 0.87920 0.14603 -0.11900
C 	C 	0.16751 0.92430 0.12927 0.18000
C 	C 	0.15330 0.04610 0.10690 -0.52100
H 	H 	0.13900 0.10410 0.12350 0.15600
H 	H 	0.17900 0.08920 0.09930 0.15700
H 	H 	0.13260 0.02420 0.08340 0.15200
C 	C 	0.23330 0.15730 0.18762 -0.50400
H 	H 	0.24390 0.24660 0.18760 0.12600
H 	H 	0.20250 0.15400 0.17540 0.15700
H 	H 	0.23590 0.12610 0.21460 0.15100
C 	C 	0.26037 0.07370 0.16508 0.16000
C 	C 	0.24992 0.95080 0.14778 -0.12000
C 	C 	0.28690 0.91330 0.13267 0.19500
C 	C 	0.29600 0.79530 0.11008 -0.56200
H 	H 	0.30960 0.72900 0.12820 0.18000
H 	H 	0.26850 0.76230 0.09560 0.18000
H 	H 	0.31610 0.81770 0.09160 0.17700
C 	C 	0.17680 0.39470 0.25422 -0.52200
H 	H 	0.17770 0.48380 0.24490 0.13900
H 	H 	0.17020 0.39460 0.28110 0.16700
H 	H 	0.20530 0.35340 0.25370 0.15500
C 	C 	0.14178 0.32140 0.22821 0.17800
C 	C 	0.12290 0.20270 0.23477 -0.13100
C 	C 	0.09330 0.17850 0.20132 0.20400
C 	C 	0.06350 0.06690 0.18990 -0.56100
H 	H 	0.05270 0.07090 0.16180 0.16800
H 	H 	0.07970 0.98610 0.19600 0.18400
H 	H 	0.03860 0.07040 0.20450 0.17300
C 	C 	0.17140 0.92010 0.24964 -0.51600
H 	H 	0.15440 0.84030 0.24470 0.15200
H 	H 	0.17170 0.96620 0.22490 0.16700
H 	H 	0.20160 0.89900 0.26130 0.14300
C 	C 	0.15090 0.00410 0.27737 0.17300
C 	C 	0.12970 0.12430 0.27099 -0.11500
C 	C 	0.11645 0.15570 0.30617 0.18300
C 	C 	0.09050 0.26780 0.31815 -0.51900
H 	H 	0.10910 0.34510 0.32120 0.15700
H 	H 	0.06500 0.28340 0.29800 0.15800
H 	H 	0.08040 0.24800 0.34310 0.15400
C 	C 	0.30580 0.89570 0.40122 -0.50100
H 	H 	0.31940 0.97010 0.39020 0.13800
H 	H 	0.32780 0.85150 0.42010 0.15100
H 	H 	0.29440 0.83590 0.38010 0.13800
C 	C 	0.26900 0.94100 0.42141 0.17800
C 	C 	0.27157 0.99990 0.45792 -0.12600
C 	C 	0.22820 0.02570 0.46299 0.20200
C 	C 	0.20880 0.08710 0.49514 -0.57000
H 	H 	0.19460 0.02100 0.50920 0.17000
H 	H 	0.23200 0.12960 0.51320 0.18000
H 	H 	0.18700 0.15130 0.48420 0.17900
C 	C 	0.35100 0.19820 0.44995 -0.52500
H 	H 	0.36770 0.14990 0.43280 0.15700
H 	H 	0.32230 0.22170 0.43540 0.16800
H 	H 	0.36710 0.27670 0.45910 0.16100
C 	C 	0.34490 0.11630 0.48424 0.18200
C 	C 	0.31068 0.02750 0.48784 -0.12100
C 	C 	0.32075 0.97340 0.52431 0.18900
C 	C 	0.29730 0.87390 0.54459 -0.52900
H 	H 	0.27610 0.91630 0.55880 0.16300
H 	H 	0.28190 0.81420 0.52520 0.16600
H 	H 	0.31860 0.82580 0.56310 0.15100
C 	C 	0.07900 0.60000 0.26200 -0.53200
H 	H 	0.10180 0.65630 0.27570 0.15300
H 	H 	0.06070 0.56690 0.28060 0.16500
H 	H 	0.09270 0.52750 0.25020 0.15400
C 	C 	0.05120 0.67480 0.23063 0.18200
C 	C 	0.01180 0.74190 0.23323 -0.12100
C 	C 	0.99936 0.79620 0.19679 0.19200
C 	C 	0.96120 0.87950 0.18222 -0.53700
H 	H 	0.93540 0.82530 0.17390 0.15800
H 	H 	0.95530 0.93760 0.20320 0.17200
H 	H 	0.96780 0.93050 0.15990 0.15800
N 	N 	0.15871 0.72630 0.15381 -0.18800
N 	N 	0.13835 0.83000 0.13447 -0.19100
H 	H 	0.10990 0.83500 0.12640 0.08400
N 	N 	0.30070 0.10920 0.15968 -0.18400
N 	N 	0.31651 0.01010 0.14029 -0.19700
H 	H 	0.34290 0.00880 0.13350 0.08200
N 	N 	0.12515 0.36860 0.19330 -0.19000
N 	N 	0.09561 0.27810 0.17702 -0.20000
H 	H 	0.08010 0.28440 0.15350 0.07900
N 	N 	0.15082 0.96420 0.31411 -0.18400
N 	N 	0.12955 0.05880 0.33125 -0.19500
H 	H 	0.12490 0.05680 0.35570 0.08100
N 	N 	0.22735 0.93060 0.40381 -0.17800
N 	N 	0.20363 0.98310 0.42987 -0.19700
H 	H 	0.17480 0.98880 0.42550 0.08300
N 	N 	0.37409 0.11740 0.51687 -0.13100
N 	N 	0.35890 0.03130 0.54110 -0.19100
H 	H 	0.37210 0.01460 0.56500 0.09300
N 	N 	0.06224 0.68640 0.19495 -0.17300
N 	N 	0.02983 0.76020 0.17453 -0.19400
H 	H 	0.02890 0.78180 0.14980 0.08600
Ag	Ag	0.38156 0.06466 0.33045 0.50600
Ag	Ag	0.31413 0.31429 0.14650 0.50600
C 	C 	0.26620 0.16290 0.31850 -0.51800
H 	H 	0.25780 0.10020 0.33730 0.15300
H 	H 	0.24010 0.21020 0.30630 0.16200
H 	H 	0.27920 0.11730 0.29820 0.13800
C 	C 	0.29900 0.25590 0.33927 0.17700
C 	C 	0.29159 0.37920 0.35397 -0.11900
C 	C 	0.33249 0.42430 0.37073 0.18000
C 	C 	0.34670 0.54610 0.39310 -0.52000
H 	H 	0.36100 0.60410 0.37650 0.15600
H 	H 	0.32100 0.58920 0.40070 0.15700
H 	H 	0.36740 0.52420 0.41660 0.15200
C 	C 	0.26670 0.65730 0.31238 -0.50400
H 	H 	0.25610 0.74660 0.31240 0.12600
H 	H 	0.29750 0.65400 0.32460 0.15700
H 	H 	0.26410 0.62610 0.28540 0.15100
C 	C 	0.23963 0.57370 0.33492 0.16100
C 	C 	0.25008 0.45080 0.35222 -0.12100
C 	C 	0.21310 0.41330 0.36733 0.19400
C 	C 	0.20400 0.29530 0.38992 -0.56200
H 	H 	0.19040 0.22900 0.37180 0.18000
H 	H 	0.23150 0.26230 0.40440 0.18000
H 	H 	0.18390 0.31770 0.40840 0.17600
C 	C 	0.32320 0.89470 0.24578 -0.52300
H 	H 	0.32230 0.98380 0.25510 0.14000
H 	H 	0.32980 0.89460 0.21890 0.16700
H 	H 	0.29470 0.85340 0.24630 0.15500
C 	C 	0.35822 0.82140 0.27179 0.17800
C 	C 	0.37710 0.70270 0.26523 -0.13000
C 	C 	0.40670 0.67850 0.29868 0.20400
C 	C 	0.43650 0.56690 0.31010 -0.55900
H 	H 	0.44730 0.57090 0.33820 0.16700
H 	H 	0.42030 0.48610 0.30400 0.18300
H 	H 	0.46140 0.57040 0.29550 0.17300
C 	C 	0.32860 0.42010 0.25036 -0.51800
H 	H 	0.34560 0.34030 0.25530 0.15200
H 	H 	0.32830 0.46620 0.27510 0.16700
H 	H 	0.29840 0.39900 0.23870 0.14300
C 	C 	0.34910 0.50410 0.22263 0.17400
C 	C 	0.37030 0.62430 0.22901 -0.11500
C 	C 	0.38355 0.65570 0.19383 0.18300
C 	C 	0.40950 0.76780 0.18185 -0.52000
H 	H 	0.39090 0.84510 0.17880 0.15800
H 	H 	0.43500 0.78340 0.20200 0.15800
H 	H 	0.41960 0.74800 0.15690 0.15400
C 	C 	0.19420 0.39570 0.09878 -0.50100
H 	H 	0.18060 0.47010 0.10980 0.13800
H 	H 	0.17220 0.35150 0.07990 0.15100
H 	H 	0.20560 0.33590 0.11990 0.13800
C 	C 	0.23100 0.44100 0.07859 0.17800
C 	C 	0.22843 0.49990 0.04208 -0.12700
C 	C 	0.27180 0.52570 0.03701 0.20300
C 	C 	0.29120 0.58710 0.00486 -0.57100
H 	H 	0.30540 0.52100 0.99080 0.17000
H 	H 	0.26800 0.62960 0.98680 0.18000
H 	H 	0.31300 0.65130 0.01580 0.17900
C 	C 	0.14900 0.69820 0.05005 -0.52400
H 	H 	0.13230 0.64990 0.06720 0.15700
H 	H 	0.17770 0.72170 0.06460 0.16800
H 	H 	0.13290 0.77670 0.04090 0.16100
C 	C 	0.15510 0.61630 0.01576 0.18100
C 	C 	0.18932 0.52750 0.01216 -0.12100
C 	C 	0.17925 0.47340 0.97569 0.18800
C 	C 	0.20270 0.37390 0.95541 -0.52900
H 	H 	0.22390 0.41630 0.94120 0.16300
H 	H 	0.21810 0.31420 0.97480 0.16500
H 	H 	0.18140 0.32580 0.93690 0.15100
C 	C 	0.42100 0.10000 0.23800 -0.53100
H 	H 	0.39820 0.15630 0.22430 0.15200
H 	H 	0.43930 0.06690 0.21940 0.16400
H 	H 	0.40730 0.02750 0.24980 0.15400
C 	C 	0.44880 0.17480 0.26937 0.18200
C 	C 	0.48820 0.24190 0.26677 -0.12100
C 	C 	0.50064 0.29620 0.30321 0.19200
C 	C 	0.53880 0.37950 0.31778 -0.53600
H 	H 	0.56460 0.32530 0.32610 0.15800
H 	H 	0.54470 0.43760 0.29680 0.17200
H 	H 	0.53220 0.43050 0.34010 0.15800
N 	N 	0.34129 0.22630 0.34619 -0.18800
N 	N 	0.36165 0.33000 0.36553 -0.19100
H 	H 	0.39010 0.33500 0.37360 0.08400
N 	N 	0.19930 0.60920 0.34032 -0.18500
N 	N 	0.18349 0.51010 0.35971 -0.19700
H 	H 	0.15710 0.50880 0.36650 0.08300
N 	N 	0.37485 0.86860 0.30670 -0.19000
N 	N 	0.40439 0.77810 0.32298 -0.20000
H 	H 	0.41990 0.78440 0.34650 0.07900
N 	N 	0.34918 0.46420 0.18589 -0.18400
N 	N 	0.37045 0.55880 0.16875 -0.19500
H 	H 	0.37510 0.55680 0.14430 0.08100
N 	N 	0.27265 0.43060 0.09619 -0.17800
N 	N 	0.29637 0.48310 0.07013 -0.19800
H 	H 	0.32520 0.48880 0.07450 0.08300
N 	N 	0.12591 0.61740 0.98313 -0.13100
N 	N 	0.14110 0.53130 0.95890 -0.19100
H 	H 	0.12790 0.51460 0.93500 0.09300
N 	N 	0.43776 0.18640 0.30505 -0.17300
N 	N 	0.47017 0.26020 0.32547 -0.19400
H 	H 	0.47110 0.28180 0.35020 0.08600
Ag	Ag	0.88156 0.56466 0.33045 0.50700
Ag	Ag	0.81413 0.81429 0.14650 0.50600
C 	C 	0.76620 0.66290 0.31850 -0.51800
H 	H 	0.75780 0.60020 0.33730 0.15300
H 	H 	0.74010 0.71020 0.30630 0.16200
H 	H 	0.77920 0.61730 0.29820 0.13800
C 	C 	0.79900 0.75590 0.33927 0.17700
C 	C 	0.79159 0.87920 0.35397 -0.11900
C 	C 	0.83249 0.92430 0.37073 0.18000
C 	C 	0.84670 0.04610 0.39310 -0.52100
H 	H 	0.86100 0.10410 0.37650 0.15600
H 	H 	0.82100 0.08920 0.40070 0.15700
H 	H 	0.86740 0.02420 0.41660 0.15200
C 	C 	0.76670 0.15730 0.31238 -0.50400
H 	H 	0.75610 0.24660 0.31240 0.12600
H 	H 	0.79750 0.15400 0.32460 0.15700
H 	H 	0.76410 0.12610 0.28540 0.15100
C 	C 	0.73963 0.07370 0.33492 0.16000
C 	C 	0.75008 0.95080 0.35222 -0.12000
C 	C 	0.71310 0.91330 0.36733 0.19500
C 	C 	0.70400 0.79530 0.38992 -0.56200
H 	H 	0.69040 0.72900 0.37180 0.18000
H 	H 	0.73150 0.76230 0.40440 0.18000
H 	H 	0.68390 0.81770 0.40840 0.17700
C 	C 	0.82320 0.39470 0.24578 -0.52200
H 	H 	0.82230 0.48380 0.25510 0.13900
H 	H 	0.82980 0.39460 0.21890 0.16700
H 	H 	0.79470 0.35340 0.24630 0.15500
C 	C 	0.85822 0.32140 0.27179 0.17800
C 	C 	0.87710 0.20270 0.26523 -0.13100
C 	C 	0.90670 0.17850 0.29868 0.20400
C 	C 	0.93650 0.06690 0.31010 -0.56100
H 	H 	0.94730 0.07090 0.33820 0.16800
H 	H 	0.92030 0.98610 0.30400 0.18400
H 	H 	0.96140 0.07040 0.29550 0.17300
C 	C 	0.82860 0.92010 0.25036 -0.51600
H 	H 	0.84560 0.84030 0.25530 0.15200
H 	H 	0.82830 0.96620 0.27510 0.16700
H 	H 	0.79840 0.89900 0.23870 0.14300
C 	C 	0.84910 0.00410 0.22263 0.17300
C 	C 	0.87030 0.12430 0.22901 -0.11500
C 	C 	0.88355 0.15570 0.19383 0.18300
C 	C 	0.90950 0.26780 0.18185 -0.51900
H 	H 	0.89090 0.34510 0.17880 0.15700
H 	H 	0.93500 0.28340 0.20200 0.15800
H 	H 	0.91960 0.24800 0.15690 0.15400
C 	C 	0.69420 0.89570 0.09878 -0.50100
H 	H 	0.68060 0.97010 0.10980 0.13800
H 	H 	0.67220 0.85150 0.07990 0.15100
H 	H 	0.70560 0.83590 0.11990 0.13800
C 	C 	0.73100 0.94100 0.07859 0.17800
C 	C 	0.72843 0.99990 0.04208 -0.12600
C 	C 	0.77180 0.02570 0.03701 0.20200
C 	C 	0.79120 0.08710 0.00486 -0.57000
H 	H 	0.80540 0.02100 0.99080 0.17000
H 	H 	0.76800 0.12960 0.98680 0.18000
H 	H 	0.81300 0.15130 0.01580 0.17900
C 	C 	0.64900 0.19820 0.05005 -0.52500
H 	H 	0.63230 0.14990 0.06720 0.15700
H 	H 	0.67770 0.22170 0.06460 0.16800
H 	H 	0.63290 0.27670 0.04090 0.16100
C 	C 	0.65510 0.11630 0.01576 0.18200
C 	C 	0.68932 0.02750 0.01216 -0.12100
C 	C 	0.67925 0.97340 0.97569 0.18800
C 	C 	0.70270 0.87390 0.95541 -0.52900
H 	H 	0.72390 0.91630 0.94120 0.16300
H 	H 	0.71810 0.81420 0.97480 0.16500
H 	H 	0.68140 0.82580 0.93690 0.15100
C 	C 	0.92100 0.60000 0.23800 -0.53200
H 	H 	0.89820 0.65630 0.22430 0.15300
H 	H 	0.93930 0.56690 0.21940 0.16500
H 	H 	0.90730 0.52750 0.24980 0.15400
C 	C 	0.94880 0.67480 0.26937 0.18200
C 	C 	0.98820 0.74190 0.26677 -0.12100
C 	C 	0.00064 0.79620 0.30321 0.19200
C 	C 	0.03880 0.87950 0.31778 -0.53700
H 	H 	0.06460 0.82530 0.32610 0.15800
H 	H 	0.04470 0.93760 0.29680 0.17200
H 	H 	0.03220 0.93050 0.34010 0.15800
N 	N 	0.84129 0.72630 0.34619 -0.18800
N 	N 	0.86165 0.83000 0.36553 -0.19100
H 	H 	0.89010 0.83500 0.37360 0.08400
N 	N 	0.69930 0.10920 0.34032 -0.18400
N 	N 	0.68349 0.01010 0.35971 -0.19700
H 	H 	0.65710 0.00880 0.36650 0.08200
N 	N 	0.87485 0.36860 0.30670 -0.19000
N 	N 	0.90439 0.27810 0.32298 -0.20000
H 	H 	0.91990 0.28440 0.34650 0.07900
N 	N 	0.84918 0.96420 0.18589 -0.18400
N 	N 	0.87045 0.05880 0.16875 -0.19500
H 	H 	0.87510 0.05680 0.14430 0.08100
N 	N 	0.77265 0.93060 0.09619 -0.17800
N 	N 	0.79637 0.98310 0.07013 -0.19700
H 	H 	0.82520 0.98880 0.07450 0.08300
N 	N 	0.62591 0.11740 0.98313 -0.13100
N 	N 	0.64110 0.03130 0.95890 -0.19100
H 	H 	0.62790 0.01460 0.93500 0.09300
N 	N 	0.93776 0.68640 0.30505 -0.17300
N 	N 	0.97017 0.76020 0.32547 -0.19400
H 	H 	0.97110 0.78180 0.35020 0.08600
