data_crystal

_cell_length_a 13.84750
_cell_length_b 15.17190
_cell_length_c 16.47700
_cell_angle_alpha 75.79800
_cell_angle_beta  81.44900
_cell_angle_gamma 63.07400

_symmetry_space_group_name_	'P 1'
_symmetry_space_group_name_H-M	'P 1'

loop_
_symmetry_equiv_pos_as_xyz
  x,y,z

loop_
_atom_site_label
_atom_site_type_symbol
_atom_site_fract_x
_atom_site_fract_y
_atom_site_fract_z
_atom_site_charge
Ag	Ag	0.76213 0.08711 0.26010 0.57100
Ag	Ag	0.66980 0.53819 0.69512 0.56700
Ag	Ag	0.42727 0.09333 0.59894 0.57200
Ag	Ag	0.33509 0.53300 0.02744 0.56900
Ag	Ag	0.91235 0.91373 0.07748 0.56100
Ag	Ag	0.99994 0.46330 0.64286 0.55600
C 	C 	0.72390 0.67530 0.46770 -0.02500
C 	C 	0.80930 0.58900 0.50630 -0.04600
C 	C 	0.78140 0.77370 0.51380 -0.00200
H 	H 	0.77530 0.83660 0.51630 0.03600
C 	C 	0.86440 0.68740 0.55450 0.01200
H 	H 	0.91110 0.69430 0.58500 0.01100
C 	C 	0.83200 0.48080 0.50350 0.31200
C 	C 	0.63980 0.67230 0.42000 0.33800
C 	C 	0.83230 0.76060 0.27600 -0.03200
C 	C 	0.78950 0.86470 0.25400 -0.03100
C 	C 	0.91150 0.86440 0.33280 0.01200
H 	H 	0.93960 0.89830 0.35490 0.03100
C 	C 	0.95670 0.76030 0.35310 -0.00200
H 	H 	0.01610 0.72550 0.38690 0.04000
C 	C 	0.78510 0.70190 0.24720 0.35300
C 	C 	0.69440 0.92990 0.19560 0.28900
C 	C 	0.51390 0.76260 0.62040 -0.01700
C 	C 	0.46350 0.86800 0.60070 -0.03300
C 	C 	0.63580 0.76950 0.69710 0.00400
H 	H 	0.69580 0.73740 0.73040 0.01600
C 	C 	0.58510 0.87280 0.67770 0.00500
H 	H 	0.61140 0.90940 0.69820 0.01600
C 	C 	0.47280 0.69940 0.59240 0.29000
C 	C 	0.36400 0.93070 0.54600 0.29500
C 	C 	0.86450 0.40710 0.81200 -0.03700
C 	C 	0.94600 0.31990 0.85680 -0.02800
C 	C 	0.80540 0.31080 0.76540 0.00700
H 	H 	0.75730 0.30500 0.73550 0.03800
C 	C 	0.88700 0.22440 0.80850 0.00500
H 	H 	0.89360 0.16160 0.80510 0.03500
C 	C 	0.84790 0.51420 0.81240 0.29000
C 	C 	0.02260 0.32770 0.90870 0.33500
C 	C 	0.83410 0.24390 0.04760 -0.02300
C 	C 	0.88770 0.13840 0.06550 -0.04500
C 	C 	0.71570 0.23690 0.96810 -0.00100
H 	H 	0.65640 0.26890 0.93410 0.03900
C 	C 	0.76860 0.13400 0.98540 0.00800
H 	H 	0.74460 0.09750 0.96250 0.02300
C 	C 	0.86700 0.30980 0.08400 0.34700
C 	C 	0.98670 0.07620 0.11940 0.32200
C 	C 	0.53360 0.40700 0.15140 -0.02800
C 	C 	0.61650 0.31980 0.19410 -0.02700
C 	C 	0.47980 0.30790 0.10260 0.00800
H 	H 	0.43480 0.30170 0.06990 0.02100
C 	C 	0.55890 0.22260 0.14640 0.00000
H 	H 	0.56340 0.15980 0.14560 0.03300
C 	C 	0.51320 0.51500 0.15050 0.28500
C 	C 	0.69890 0.32190 0.24330 0.34400
Gd	Gd	0.75585 0.48131 0.32321 1.41100
Gd	Gd	0.13212 0.20129 0.10366 1.11200
N 	N 	0.87960 0.59530 0.55160 -0.15500
N 	N 	0.71040 0.76850 0.47140 -0.14100
N 	N 	0.91680 0.70890 0.32530 -0.13800
N 	N 	0.82860 0.91740 0.28220 -0.15400
N 	N 	0.62900 0.22750 0.18990 -0.14200
N 	N 	0.46710 0.39900 0.10630 -0.15600
N 	N 	0.49860 0.92250 0.62980 -0.15100
N 	N 	0.60070 0.71410 0.66910 -0.14100
N 	N 	0.79590 0.40160 0.76700 -0.15600
N 	N 	0.95550 0.22860 0.85410 -0.14200
N 	N 	0.74780 0.29250 0.99930 -0.14000
N 	N 	0.85420 0.08370 0.03440 -0.15400
O 	O 	0.87070 0.45260 0.43330 -0.43000
O 	O 	0.81890 0.42800 0.56890 -0.31800
O 	O 	0.64940 0.58440 0.42220 -0.37500
O 	O 	0.57520 0.75090 0.38070 -0.30200
O 	O 	0.80920 0.61350 0.28920 -0.44800
O 	O 	0.73070 0.74270 0.18510 -0.28000
O 	O 	0.60100 0.95190 0.22880 -0.28000
O 	O 	0.71880 0.96030 0.12200 -0.31000
O 	O 	0.06990 0.24990 0.96470 -0.40800
O 	O 	0.03130 0.40650 0.89290 -0.28400
O 	O 	0.78950 0.55050 0.87290 -0.30500
O 	O 	0.88530 0.55740 0.75160 -0.33700
O 	O 	0.94690 0.26320 0.13000 -0.40600
O 	O 	0.81240 0.40130 0.06800 -0.32000
O 	O 	0.07520 0.07660 0.08800 -0.41500
O 	O 	0.97040 0.02900 0.18840 -0.31800
O 	O 	0.77800 0.24120 0.26800 -0.31700
O 	O 	0.68180 0.40840 0.25330 -0.39300
O 	O 	0.45110 0.55590 0.20710 -0.27900
O 	O 	0.55610 0.55400 0.09020 -0.29900
O 	O 	0.53150 0.60710 0.60270 -0.27300
O 	O 	0.38100 0.74510 0.56250 -0.21300
O 	O 	0.27480 0.96540 0.58330 -0.29500
O 	O 	0.38260 0.94550 0.46860 -0.28600
O 	O 	0.69360 0.38470 0.43560 -0.72500
H 	H 	0.74830 0.32770 0.44590 0.31500
H 	H 	0.69120 0.41880 0.47040 0.32600
Ag	Ag	0.23787 0.91289 0.73990 0.57200
Ag	Ag	0.33020 0.46181 0.30488 0.56800
Ag	Ag	0.57273 0.90667 0.40106 0.57300
Ag	Ag	0.66491 0.46700 0.97256 0.57000
Ag	Ag	0.08765 0.08627 0.92252 0.56200
Ag	Ag	0.00006 0.53670 0.35714 0.55700
C 	C 	0.27610 0.32470 0.53230 -0.02500
C 	C 	0.19070 0.41100 0.49370 -0.04600
C 	C 	0.21860 0.22630 0.48620 -0.00200
H 	H 	0.22470 0.16340 0.48370 0.03600
C 	C 	0.13560 0.31260 0.44550 0.01200
H 	H 	0.08890 0.30570 0.41500 0.01100
C 	C 	0.16800 0.51920 0.49650 0.31200
C 	C 	0.36020 0.32770 0.58000 0.33800
C 	C 	0.16770 0.23940 0.72400 -0.03200
C 	C 	0.21050 0.13530 0.74600 -0.03100
C 	C 	0.08850 0.13560 0.66720 0.01200
H 	H 	0.06040 0.10170 0.64510 0.03100
C 	C 	0.04330 0.23970 0.64690 -0.00200
H 	H 	0.98390 0.27450 0.61310 0.04000
C 	C 	0.21490 0.29810 0.75280 0.35300
C 	C 	0.30560 0.07010 0.80440 0.28900
C 	C 	0.48610 0.23740 0.37960 -0.01700
C 	C 	0.53650 0.13200 0.39930 -0.03300
C 	C 	0.36420 0.23050 0.30290 0.00400
H 	H 	0.30420 0.26260 0.26960 0.01600
C 	C 	0.41490 0.12720 0.32230 0.00500
H 	H 	0.38860 0.09060 0.30180 0.01600
C 	C 	0.52720 0.30060 0.40760 0.29000
C 	C 	0.63600 0.06930 0.45400 0.29500
C 	C 	0.13550 0.59290 0.18800 -0.03700
C 	C 	0.05400 0.68010 0.14320 -0.02800
C 	C 	0.19460 0.68920 0.23460 0.00700
H 	H 	0.24270 0.69500 0.26450 0.03800
C 	C 	0.11300 0.77560 0.19150 0.00500
H 	H 	0.10640 0.83840 0.19490 0.03500
C 	C 	0.15210 0.48580 0.18760 0.29000
C 	C 	0.97740 0.67230 0.09130 0.33500
C 	C 	0.16590 0.75610 0.95240 -0.02300
C 	C 	0.11230 0.86160 0.93450 -0.04500
C 	C 	0.28430 0.76310 0.03190 -0.00100
H 	H 	0.34360 0.73110 0.06590 0.03900
C 	C 	0.23140 0.86600 0.01460 0.00800
H 	H 	0.25540 0.90250 0.03750 0.02300
C 	C 	0.13300 0.69020 0.91600 0.34700
C 	C 	0.01330 0.92380 0.88060 0.32200
C 	C 	0.46640 0.59300 0.84860 -0.02800
C 	C 	0.38350 0.68020 0.80590 -0.02700
C 	C 	0.52020 0.69210 0.89740 0.00800
H 	H 	0.56520 0.69830 0.93010 0.02100
C 	C 	0.44110 0.77740 0.85360 0.00000
H 	H 	0.43660 0.84020 0.85440 0.03300
C 	C 	0.48680 0.48500 0.84950 0.28500
C 	C 	0.30110 0.67810 0.75670 0.34400
Gd	Gd	0.24415 0.51869 0.67679 1.41100
Gd	Gd	0.86788 0.79871 0.89634 1.11200
N 	N 	0.12040 0.40470 0.44840 -0.15500
N 	N 	0.28960 0.23150 0.52860 -0.14100
N 	N 	0.08320 0.29110 0.67470 -0.13800
N 	N 	0.17140 0.08260 0.71780 -0.15400
N 	N 	0.37100 0.77250 0.81010 -0.14200
N 	N 	0.53290 0.60100 0.89370 -0.15600
N 	N 	0.50140 0.07750 0.37020 -0.15100
N 	N 	0.39930 0.28590 0.33090 -0.14100
N 	N 	0.20410 0.59840 0.23300 -0.15600
N 	N 	0.04450 0.77140 0.14590 -0.14200
N 	N 	0.25220 0.70750 0.00070 -0.14000
N 	N 	0.14580 0.91630 0.96560 -0.15400
O 	O 	0.12930 0.54740 0.56670 -0.43000
O 	O 	0.18110 0.57200 0.43110 -0.31800
O 	O 	0.35060 0.41560 0.57780 -0.37500
O 	O 	0.42480 0.24910 0.61930 -0.30200
O 	O 	0.19080 0.38650 0.71080 -0.44800
O 	O 	0.26930 0.25730 0.81490 -0.28000
O 	O 	0.39900 0.04810 0.77120 -0.28000
O 	O 	0.28120 0.03970 0.87800 -0.31000
O 	O 	0.93010 0.75010 0.03530 -0.40800
O 	O 	0.96870 0.59350 0.10710 -0.28400
O 	O 	0.21050 0.44950 0.12710 -0.30500
O 	O 	0.11470 0.44260 0.24840 -0.33700
O 	O 	0.05310 0.73680 0.87000 -0.40600
O 	O 	0.18760 0.59870 0.93200 -0.32000
O 	O 	0.92480 0.92340 0.91200 -0.41500
O 	O 	0.02960 0.97100 0.81160 -0.31800
O 	O 	0.22200 0.75880 0.73200 -0.31700
O 	O 	0.31820 0.59160 0.74670 -0.39300
O 	O 	0.54890 0.44410 0.79290 -0.27900
O 	O 	0.44390 0.44600 0.90980 -0.29900
O 	O 	0.46850 0.39290 0.39730 -0.27300
O 	O 	0.61900 0.25490 0.43750 -0.21300
O 	O 	0.72520 0.03460 0.41670 -0.29500
O 	O 	0.61740 0.05450 0.53140 -0.28600
O 	O 	0.30640 0.61530 0.56440 -0.72500
H 	H 	0.25170 0.67230 0.55410 0.31500
H 	H 	0.30880 0.58120 0.52960 0.32600
