data_crystal

_cell_length_a 16.61500
_cell_length_b 30.56400
_cell_length_c 28.21700
_cell_angle_alpha 90.00000
_cell_angle_beta  99.25000
_cell_angle_gamma 90.00000

_symmetry_space_group_name_	'P 1'
_symmetry_space_group_name_H-M	'P 1'

loop_
_symmetry_equiv_pos_as_xyz
  x,y,z

loop_
_atom_site_label
_atom_site_type_symbol
_atom_site_fract_x
_atom_site_fract_y
_atom_site_fract_z
_atom_site_charge
Fe	Fe	0.22960 0.65423 0.50453 1.21400
Fe	Fe	0.30160 0.70838 0.40614 1.23800
Fe	Fe	0.12320 0.71839 0.40623 1.24800
Fe	Fe	0.24400 0.77208 0.49420 1.25100
Fe	Fe	0.16920 0.54236 0.52209 1.22400
Fe	Fe	0.20300 0.60836 0.62013 1.25000
Fe	Fe	0.34160 0.56150 0.56168 1.22300
Fe	Fe	0.32410 0.28194 0.44705 1.20600
Fe	Fe	0.37930 0.38326 0.50932 1.24400
Fe	Fe	0.20960 0.35580 0.51261 1.22500
Fe	Fe	0.35400 0.29382 0.57690 1.22400
Fe	Fe	0.42470 0.25265 0.34462 1.21900
Fe	Fe	0.24530 0.25486 0.32327 1.26000
Fe	Fe	0.33210 0.17286 0.39710 1.23300
Fe	Fe	0.28080 0.34312 0.03344 1.23600
Fe	Fe	0.21220 0.26786 0.11848 1.25200
Fe	Fe	0.38290 0.29733 0.14471 1.21800
Fe	Fe	0.34160 0.22842 0.04872 1.24200
Fe	Fe	0.17400 0.44509 0.00202 1.23100
Fe	Fe	0.34760 0.44795 0.99390 1.23900
Fe	Fe	0.23370 0.38536 0.91139 1.27100
Fe	Fe	0.21100 0.71864 0.09391 1.23300
Fe	Fe	0.24230 0.71050 0.96906 1.26100
Fe	Fe	0.13130 0.63117 0.01147 1.22200
Fe	Fe	0.30820 0.62670 0.04488 1.23900
Fe	Fe	0.16420 0.82490 0.14015 1.21400
Fe	Fe	0.12550 0.73391 0.20337 1.23900
Fe	Fe	0.29670 0.76139 0.21160 1.22100
O 	O 	0.51870 0.59230 0.48980 -0.55000
O 	O 	0.44490 0.55740 0.53460 -0.57500
O 	O 	0.33980 0.62030 0.53010 -0.42500
O 	O 	0.28660 0.65660 0.44750 -0.47900
O 	O 	0.37150 0.66670 0.37880 -0.48200
O 	O 	0.43300 0.60130 0.39380 -0.46200
O 	O 	0.04690 0.55150 0.39040 -0.41100
O 	O 	0.10000 0.52600 0.45650 -0.47100
O 	O 	0.17590 0.59740 0.48050 -0.45600
O 	O 	0.12630 0.67410 0.45810 -0.44100
O 	O 	0.94870 0.63270 0.39650 -0.42500
O 	O 	0.02950 0.67930 0.37650 -0.44200
O 	O 	0.17240 0.66110 0.65730 -0.47700
O 	O 	0.12890 0.72830 0.65050 -0.42900
O 	O 	0.18210 0.65240 0.56620 -0.44700
O 	O 	0.26690 0.71330 0.53010 -0.44200
O 	O 	0.25580 0.79440 0.56060 -0.41700
O 	O 	0.28000 0.77490 0.63730 -0.55700
O 	O 	0.36710 0.49660 0.58670 -0.38600
O 	O 	0.39570 0.43160 0.55830 -0.40000
O 	O 	0.27360 0.52710 0.50430 -0.43900
O 	O 	0.26680 0.40720 0.48150 -0.42300
O 	O 	0.15370 0.48050 0.54650 -0.42700
O 	O 	0.17570 0.41080 0.55110 -0.41600
O 	O 	0.31560 0.77880 0.28240 -0.39500
O 	O 	0.32090 0.75200 0.35540 -0.42500
O 	O 	0.23200 0.71360 0.23960 -0.44400
O 	O 	0.19980 0.69210 0.36500 -0.45200
O 	O 	0.10010 0.75670 0.34550 -0.39500
O 	O 	0.09970 0.75540 0.26820 -0.41800
O 	O 	0.01390 0.32900 0.41620 -0.21800
O 	O 	0.10510 0.36470 0.47160 -0.40900
O 	O 	0.21930 0.30680 0.46660 -0.45900
O 	O 	0.25570 0.28930 0.38120 -0.48500
O 	O 	0.09300 0.35210 0.32640 -0.24300
O 	O 	0.15590 0.29670 0.30460 -0.40300
O 	O 	0.47150 0.42160 0.39580 -0.36700
O 	O 	0.43850 0.42060 0.46450 -0.33800
O 	O 	0.36790 0.34470 0.45550 -0.47600
O 	O 	0.42970 0.28080 0.41050 -0.42600
O 	O 	0.50660 0.29930 0.34080 -0.65500
O 	O 	0.58600 0.34980 0.38840 -0.54700
O 	O 	0.29360 0.12840 0.52410 -0.51400
O 	O 	0.32250 0.13130 0.45360 -0.55900
O 	O 	0.30210 0.21610 0.44790 -0.45000
O 	O 	0.37460 0.26540 0.51830 -0.42700
O 	O 	0.39370 0.23380 0.60330 -0.69400
O 	O 	0.42860 0.16940 0.58260 -0.62300
O 	O 	0.21740 0.22860 0.17780 -0.39600
O 	O 	0.22910 0.22940 0.25880 -0.40500
O 	O 	0.28160 0.30490 0.17280 -0.42700
O 	O 	0.33440 0.28840 0.30300 -0.50800
O 	O 	0.42500 0.25640 0.19990 -0.43700
O 	O 	0.43820 0.23670 0.27440 -0.41700
O 	O 	0.21710 0.26110 0.86620 -0.27000
O 	O 	0.22330 0.33230 0.86920 -0.39900
O 	O 	0.23710 0.33960 0.96440 -0.45300
O 	O 	0.33600 0.28730 0.01470 -0.45500
O 	O 	0.39240 0.23680 0.92110 -0.30500
O 	O 	0.36340 0.20960 0.98530 -0.40600
O 	O 	0.46930 0.41780 0.16900 -1.28600
O 	O 	0.44230 0.34980 0.17990 -1.03300
O 	O 	0.34280 0.34520 0.09780 -0.46300
O 	O 	0.36500 0.38910 0.02290 -0.49200
O 	O 	0.44840 0.46070 0.03880 -0.33800
O 	O 	0.55250 0.43310 0.08440 -0.24700
O 	O 	0.10380 0.45220 0.05520 -0.41900
O 	O 	0.05490 0.41940 0.10850 -0.39600
O 	O 	0.21430 0.39380 0.04160 -0.47700
O 	O 	0.19090 0.31220 0.06400 -0.44600
O 	O 	0.11150 0.29300 0.13060 -0.38400
O 	O 	0.99600 0.33080 0.09850 -0.41400
O 	O 	0.12360 0.57690 0.97080 -0.37700
O 	O 	0.13240 0.50130 0.97050 -0.35400
O 	O 	0.21320 0.59000 0.05390 -0.43000
O 	O 	0.27530 0.47660 0.03610 -0.41800
O 	O 	0.33790 0.57880 0.99930 -0.37600
O 	O 	0.34680 0.51320 0.97640 -0.39100
O 	O 	0.25350 0.77010 0.94780 -0.40100
O 	O 	0.24970 0.74050 0.03580 -0.44900
O 	O 	0.16300 0.77990 0.08940 -0.44700
O 	O 	0.10160 0.86360 0.00610 -0.37900
O 	O 	0.14390 0.86260 0.08180 -0.40200
O 	O 	0.50700 0.70050 0.19910 -0.43300
O 	O 	0.40260 0.73010 0.23000 -0.52400
O 	O 	0.30680 0.73720 0.14490 -0.46200
O 	O 	0.28150 0.66590 0.09620 -0.46600
O 	O 	0.43800 0.61200 0.17660 -0.20300
O 	O 	0.38080 0.60180 0.09830 -0.35100
O 	O 	0.93430 0.63300 0.07330 -0.30800
O 	O 	0.03120 0.61030 0.03760 -0.36400
O 	O 	0.11890 0.68120 0.05750 -0.44900
O 	O 	0.15570 0.70050 0.14660 -0.45900
O 	O 	0.06120 0.67880 0.20830 -0.36800
O 	O 	0.02220 0.61390 0.16920 -0.32800
O 	O 	0.36830 0.78300 0.49590 -0.44500
O 	O 	0.40270 0.73100 0.44670 -0.50400
O 	O 	0.11860 0.77530 0.50480 -0.39200
O 	O 	0.04940 0.75910 0.42970 -0.57700
O 	O 	0.23120 0.83320 0.47000 -0.51500
O 	O 	0.20030 0.88290 0.41630 -0.72600
O 	O 	0.06010 0.55580 0.53830 -0.51300
O 	O 	0.07880 0.59420 0.60850 -0.42900
O 	O 	0.32510 0.62670 0.64970 -0.51500
O 	O 	0.40640 0.57860 0.62750 -0.58600
O 	O 	0.21130 0.50530 0.71580 -0.67200
O 	O 	0.21520 0.57030 0.67960 -0.57100
O 	O 	0.23960 0.26490 0.57290 -0.51000
O 	O 	0.14790 0.32040 0.55590 -0.43800
O 	O 	0.45400 0.17470 0.42480 -0.46600
O 	O 	0.51370 0.20960 0.36850 -0.46500
O 	O 	0.15390 0.21440 0.33960 -0.42500
O 	O 	0.21540 0.15450 0.37530 -0.44900
O 	O 	0.37150 0.12130 0.36550 -0.49000
O 	O 	0.49140 0.36420 0.54140 -0.53800
O 	O 	0.47730 0.31760 0.59480 -0.46600
O 	O 	0.33970 0.31190 0.64580 -0.66500
O 	O 	0.29790 0.34990 0.70240 -0.62700
O 	O 	0.49090 0.28680 0.12090 -0.73600
O 	O 	0.46780 0.23410 0.06970 -0.52600
O 	O 	0.22490 0.21140 0.01960 -0.46400
O 	O 	0.15350 0.21960 0.08330 -0.44700
O 	O 	0.34990 0.37900 0.90780 -0.60400
O 	O 	0.41870 0.43910 0.94500 -0.44500
O 	O 	0.07360 0.42000 0.96160 -0.40000
O 	O 	0.11860 0.38790 0.89460 -0.41900
O 	O 	0.35700 0.16540 0.07040 -0.44500
O 	O 	0.23410 0.42230 0.85260 -0.59300
O 	O 	0.20520 0.48290 0.81600 -0.62300
O 	O 	0.11460 0.72690 0.95250 -0.38900
O 	O 	0.05380 0.65910 0.95570 -0.37700
O 	O 	0.36730 0.70660 0.97510 -0.46700
O 	O 	0.40760 0.66270 0.03100 -0.52700
O 	O 	0.04340 0.82130 0.14110 -0.48900
O 	O 	0.01860 0.75820 0.16910 -0.49300
O 	O 	0.27920 0.84520 0.13960 -0.53100
O 	O 	0.35650 0.81820 0.20300 -0.48300
O 	O 	0.22870 0.69420 0.90290 -0.46000
O 	O 	0.22500 0.64070 0.84320 -0.51700
O 	O 	0.22250 0.74210 0.43710 -0.69000
O 	O 	0.23660 0.56960 0.57910 -0.70100
O 	O 	0.31810 0.34530 0.54330 -0.69300
O 	O 	0.33020 0.21890 0.35130 -0.69000
O 	O 	0.31320 0.25520 0.10700 -0.68900
O 	O 	0.24560 0.43160 0.95710 -0.66900
O 	O 	0.22960 0.65560 0.99570 -0.67400
O 	O 	0.18920 0.78150 0.18680 -0.71200
C 	C 	0.45870 0.58580 0.50980 0.47800
C 	C 	0.39520 0.62140 0.49360 -0.13200
H 	H 	0.42420 0.64940 0.49780 0.08400
C 	C 	0.33840 0.62380 0.44480 0.03700
H 	H 	0.30770 0.59640 0.43940 0.02100
C 	C 	0.38320 0.63200 0.40280 0.32400
C 	C 	0.09610 0.55400 0.43300 0.40700
C 	C 	0.12640 0.60020 0.43940 -0.00700
H 	H 	0.15860 0.60680 0.41410 0.02800
C 	C 	0.07230 0.63920 0.44510 -0.08400
H 	H 	0.04460 0.63310 0.47260 0.06000
C 	C 	0.00890 0.65350 0.40470 0.41400
C 	C 	0.15740 0.69710 0.63120 0.31600
C 	C 	0.17510 0.69750 0.58140 -0.06900
H 	H 	0.13150 0.71260 0.56000 0.06200
C 	C 	0.26030 0.71870 0.57780 -0.04700
H 	H 	0.30310 0.70140 0.59730 0.05100
C 	C 	0.26390 0.76600 0.59730 0.39100
C 	C 	0.35870 0.46730 0.55270 0.28500
C 	C 	0.30570 0.48310 0.50490 -0.06600
H 	H 	0.34050 0.48170 0.48010 0.07200
C 	C 	0.23770 0.44710 0.49190 -0.03700
H 	H 	0.20070 0.45720 0.46340 0.05600
C 	C 	0.18870 0.44630 0.53460 0.32100
C 	C 	0.30260 0.74890 0.31240 0.31800
C 	C 	0.25160 0.70960 0.29210 -0.06700
H 	H 	0.28670 0.68380 0.29860 0.02900
C 	C 	0.17710 0.70140 0.31630 -0.03300
H 	H 	0.14680 0.67640 0.30070 0.04300
C 	C 	0.12200 0.74180 0.30960 0.34700
C 	C 	0.08710 0.33690 0.43970 0.28300
C 	C 	0.15740 0.30720 0.42800 -0.00800
H 	H 	0.13670 0.27730 0.42220 0.04800
C 	C 	0.19860 0.32160 0.38540 -0.00600
H 	H 	0.22730 0.34920 0.39360 0.02200
C 	C 	0.15030 0.32500 0.33330 0.30700
C 	C 	0.44280 0.39900 0.42680 0.29700
C 	C 	0.41290 0.35280 0.41700 -0.03600
H 	H 	0.37550 0.35200 0.38630 -0.01300
C 	C 	0.47620 0.31810 0.41730 -0.03900
H 	H 	0.50950 0.31700 0.44930 0.08400
C 	C 	0.53160 0.32640 0.38060 0.27200
C 	C 	0.31100 0.14850 0.49210 0.43600
C 	C 	0.30930 0.19960 0.49150 -0.00300
H 	H 	0.26180 0.20900 0.50550 0.03300
C 	C 	0.38530 0.21910 0.52200 -0.14800
H 	H 	0.43240 0.21140 0.50670 0.08200
C 	C 	0.40430 0.20520 0.57450 0.57000
C 	C 	0.23350 0.24600 0.21620 0.35900
C 	C 	0.26960 0.29190 0.21920 -0.11000
H 	H 	0.22920 0.31170 0.22930 0.06600
C 	C 	0.34810 0.29560 0.25620 0.08600
H 	H 	0.37290 0.32440 0.25390 -0.19600
C 	C 	0.40540 0.26010 0.24400 0.19100
C 	C 	0.22700 0.29680 0.88900 0.32200
C 	C 	0.25170 0.29840 0.94530 -0.03400
H 	H 	0.21560 0.27780 0.95830 0.04700
C 	C 	0.33820 0.28590 0.96750 -0.01100
H 	H 	0.37740 0.30720 0.95890 0.04800
C 	C 	0.36020 0.23960 0.95330 0.34500
C 	C 	0.44060 0.38210 0.15130 0.49400
C 	C 	0.38310 0.38810 0.10440 -0.17700
H 	H 	0.34440 0.41220 0.10560 0.10500
C 	C 	0.42280 0.38910 0.05820 0.09400
H 	H 	0.45540 0.36250 0.05700 -0.04000
C 	C 	0.48000 0.43030 0.05890 0.27000
C 	C 	0.10020 0.42110 0.07970 0.39200
C 	C 	0.16440 0.38390 0.07600 -0.06100
H 	H 	0.19970 0.38180 0.10730 0.04100
C 	C 	0.12360 0.33820 0.06460 -0.01400
H 	H 	0.09110 0.33880 0.03240 0.03700
C 	C 	0.06870 0.32360 0.10130 0.31700
C 	C 	0.14760 0.54280 0.99260 0.25400
C 	C 	0.19980 0.54480 0.04200 -0.03400
H 	H 	0.16970 0.53140 0.06540 0.06600
C 	C 	0.27870 0.52110 0.04320 -0.05400
H 	H 	0.31420 0.52740 0.07370 0.09800
C 	C 	0.31830 0.53810 0.00270 0.33500
C 	C 	0.23600 0.78730 0.02990 -0.02900
H 	H 	0.27690 0.80190 0.05350 0.04900
C 	C 	0.15450 0.79700 0.04350 -0.02200
H 	H 	0.10990 0.78320 0.02170 0.05100
C 	C 	0.15000 0.84660 0.04140 0.32700
C 	C 	0.43030 0.70890 0.19690 0.26500
C 	C 	0.36190 0.70830 0.15190 0.03000
H 	H 	0.39260 0.71400 0.12560 0.03600
C 	C 	0.33260 0.66240 0.14170 -0.03700
H 	H 	0.29770 0.65490 0.16540 0.03800
C 	C 	0.38990 0.62310 0.13820 0.27500
C 	C 	0.00130 0.63890 0.06430 0.31400
C 	C 	0.06050 0.67280 0.08560 -0.02400
H 	H 	0.03010 0.70000 0.08810 0.04900
C 	C 	0.10620 0.66180 0.13580 -0.04000
H 	H 	0.14360 0.63790 0.13170 0.04900
C 	C 	0.05510 0.64640 0.17110 0.30100
C 	C 	0.41260 0.76150 0.47400 0.52900
H 	H 	0.46640 0.77100 0.47980 -0.12500
C 	C 	0.05190 0.77350 0.46290 0.54600
H 	H 	0.00430 0.78790 0.46740 -0.12600
C 	C 	0.20900 0.84920 0.42540 0.75900
H 	H 	0.19930 0.82910 0.40040 -0.26400
C 	C 	0.03480 0.57260 0.57070 0.44800
H 	H 	0.97880 0.57100 0.57030 -0.15500
C 	C 	0.38930 0.60590 0.65120 0.66600
H 	H 	0.43050 0.61400 0.67590 -0.20600
C 	C 	0.20600 0.52940 0.68090 0.54900
H 	H 	0.19270 0.51570 0.65120 -0.20500
C 	C 	0.17490 0.28080 0.56950 0.46600
H 	H 	0.13500 0.26230 0.57790 -0.10600
C 	C 	0.51280 0.18940 0.40640 0.45600
H 	H 	0.56400 0.18420 0.42430 -0.10400
C 	C 	0.14970 0.17630 0.35520 0.40600
H 	H 	0.09900 0.16290 0.35260 -0.11200
C 	C 	0.52030 0.34390 0.57220 0.62900
H 	H 	0.57630 0.34580 0.58220 -0.16900
C 	C 	0.32200 0.35210 0.66000 0.46100
H 	H 	0.32540 0.37770 0.64270 -0.19400
C 	C 	0.50700 0.26160 0.09460 0.76200
H 	H 	0.56190 0.26190 0.09140 -0.22200
C 	C 	0.16900 0.21030 0.04300 0.43800
H 	H 	0.12260 0.19870 0.02430 -0.08100
C 	C 	0.39900 0.40000 0.91500 0.56500
H 	H 	0.44140 0.39230 0.89850 -0.16100
C 	C 	0.06000 0.39800 0.92100 0.32200
H 	H 	0.00700 0.38870 0.90980 -0.05600
C 	C 	0.33500 0.16210 0.11070 0.47400
H 	H 	0.29270 0.17850 0.11920 -0.15500
C 	C 	0.22800 0.46110 0.85400 0.57300
H 	H 	0.24120 0.47550 0.88330 -0.21200
C 	C 	0.05900 0.70060 0.93850 0.33500
H 	H 	0.01700 0.70990 0.91460 -0.04900
C 	C 	0.42100 0.68830 0.00430 0.62700
H 	H 	0.47510 0.69610 0.00410 -0.13900
C 	C 	0.99500 0.79110 0.14980 0.54000
H 	H 	0.93920 0.79510 0.14070 -0.12300
C 	C 	0.34200 0.84190 0.16770 0.53500
H 	H 	0.38470 0.85950 0.16160 -0.15300
C 	C 	0.22300 0.65680 0.88880 0.47600
H 	H 	0.21530 0.63600 0.91180 -0.16100
C 	C 	0.35400 0.12450 0.31810 0.32400
H 	H 	0.32230 0.14460 0.29880 -0.13100
O 	O 	0.24600 0.84420 0.97650 -0.38500
O 	O 	0.39800 0.09010 0.30630 -0.40000
O 	O 	0.37400 0.13520 0.13870 -0.46900
C 	C 	0.25600 0.79910 0.97970 0.25700
Ba	Ba	0.59176 0.58135 0.40908 2.04500
Ba	Ba	0.25988 0.86804 0.63246 0.77900
Ba	Ba	0.24504 0.42345 0.74434 1.48500
Ba	Ba	0.36970 0.04512 0.43271 1.88400
Ba	Ba	0.22120 0.57094 0.78884 1.59700
Ba	Ba	0.13350 0.93165 0.49094 1.62800
Ba	Ba	0.11830 0.89563 0.91739 1.63700
Ba	Ba	0.40310 0.23700 0.71278 4.41600
Ba	Ba	0.16990 0.70570 0.75694 2.64500
Ba	Ba	0.92130 0.56380 0.31650 1.12800
O 	O 	0.28910 0.89070 0.56910 -0.27200
O 	O 	0.30070 0.64740 0.75090 -0.44500
O 	O 	0.38020 0.93370 0.65010 -0.91800
O 	O 	0.32100 0.03270 0.52160 -0.51500
O 	O 	0.11160 0.63860 0.75100 -0.65000
O 	O 	0.25000 0.26790 0.71900 -0.58000
O 	O 	0.51020 0.28600 0.69410 -0.64000
O 	O 	0.34500 0.18220 0.68000 -0.08900
O 	O 	0.27100 0.72130 0.80840 -0.57600
O 	O 	0.18600 0.95190 0.59300 -0.38700
O 	O 	0.44200 0.30380 0.76130 -1.53200
C 	C 	0.07780 0.97150 0.87530 0.10500
H 	H 	0.03510 0.96270 0.85180 -0.06400
O 	O 	0.06820 0.98290 0.91760 -0.29500
O 	O 	0.15470 0.97360 0.86850 -0.46400
C 	C 	0.26600 0.97080 0.42260 0.21800
H 	H 	0.21440 0.97810 0.40590 -0.23700
O 	O 	0.32500 0.96420 0.39950 -0.46700
O 	O 	0.27600 0.96750 0.46900 -0.41100
O 	O 	0.13220 0.79620 0.76850 -0.48900
O 	O 	0.48700 0.50530 0.39500 -0.23600
O 	O 	0.20800 0.91500 0.71500 -1.15300
O 	O 	0.38460 0.14930 0.75860 -0.08000
O 	O 	0.12180 0.86120 0.55710 -0.30300
O 	O 	0.28500 0.01110 0.34370 -0.48500
O 	O 	0.56220 0.46050 0.24940 -9.48400
C 	C 	0.90500 0.39700 0.35300 0.18900
H 	H 	0.90730 0.37700 0.37750 -0.05700
O 	O 	0.96400 0.40500 0.32800 -0.24300
O 	O 	0.84200 0.42200 0.33700 -0.32300
C 	C 	0.63500 0.46200 0.37300 1.97500
H 	H 	0.61900 0.49090 0.37320 -0.86200
O 	O 	0.65800 0.44400 0.33500 -1.86600
O 	O 	0.63600 0.43600 0.41000 -0.62800
C 	C 	0.60800 0.58670 0.20010 0.44300
H 	H 	0.62620 0.56890 0.22650 -0.08300
O 	O 	0.60900 0.63010 0.20270 -0.28900
Ba	Ba	0.49780 0.18270 0.68430 0.95100
Ba	Ba	0.38040 0.28780 0.75060 2.20800
O 	O 	0.39300 0.19680 0.71070 -2.20900
O 	O 	0.25700 0.28120 0.76710 -0.42200
O 	O 	0.50700 0.50460 0.43940 -0.17900
Ba	Ba	0.59090 0.42870 0.24870 20.80900
Ba	Ba	0.60010 0.48070 0.17700 -3.79800
Ba	Ba	0.12210 0.72380 0.79960 -0.47700
O 	O 	0.28600 0.76020 0.83660 -0.24900
Ba	Ba	0.20490 0.93400 0.33310 1.34700
Ba	Ba	0.68140 0.58480 0.10930 2.58600
O 	O 	0.59000 0.65860 0.13840 -0.16100
O 	O 	0.63500 0.66940 0.15840 -0.18800
O 	O 	0.58170 0.57140 0.15830 -0.65700
C 	C 	0.57000 0.57270 0.11240 -0.99600
H 	H 	0.55030 0.58230 0.13960 0.81300
O 	O 	0.51800 0.55170 0.07930 0.14300
C 	C 	0.69400 0.48600 0.08600 0.07900
H 	H 	0.71960 0.45910 0.08260 -0.09000
O 	O 	0.67400 0.49800 0.12700 0.08800
O 	O 	0.67700 0.51300 0.05000 -0.38600
Ba	Ba	0.40400 0.07160 0.20560 1.15700
O 	O 	0.30500 0.89770 0.53290 -0.03800
Fe	Fe	0.77040 0.15423 0.49547 1.21600
Fe	Fe	0.69840 0.20838 0.59386 1.23900
Fe	Fe	0.87680 0.21839 0.59377 1.24900
Fe	Fe	0.75600 0.27208 0.50580 1.25200
Fe	Fe	0.83080 0.04236 0.47791 1.22200
Fe	Fe	0.79700 0.10836 0.37987 1.25100
Fe	Fe	0.65840 0.06150 0.43832 1.22100
Fe	Fe	0.67590 0.78194 0.55295 1.20600
Fe	Fe	0.62070 0.88326 0.49068 1.24400
Fe	Fe	0.79040 0.85580 0.48739 1.22500
Fe	Fe	0.64600 0.79382 0.42310 1.22400
Fe	Fe	0.57530 0.75265 0.65538 1.21900
Fe	Fe	0.75470 0.75486 0.67673 1.26000
Fe	Fe	0.66790 0.67286 0.60290 1.23300
Fe	Fe	0.71920 0.84312 0.96656 1.23600
Fe	Fe	0.78780 0.76786 0.88152 1.25200
Fe	Fe	0.61710 0.79733 0.85529 1.21800
Fe	Fe	0.65840 0.72842 0.95128 1.24200
Fe	Fe	0.82600 0.94509 0.99798 1.23500
Fe	Fe	0.65240 0.94795 0.00610 1.24100
Fe	Fe	0.76630 0.88536 0.08861 1.27100
Fe	Fe	0.78900 0.21864 0.90609 1.23300
Fe	Fe	0.75770 0.21050 0.03094 1.26100
Fe	Fe	0.86870 0.13117 0.98853 1.22100
Fe	Fe	0.69180 0.12670 0.95512 1.23900
Fe	Fe	0.83580 0.32490 0.85985 1.21400
Fe	Fe	0.87450 0.23391 0.79663 1.23900
Fe	Fe	0.70330 0.26139 0.78840 1.22100
O 	O 	0.48130 0.09230 0.51020 -0.54800
O 	O 	0.55510 0.05740 0.46540 -0.57900
O 	O 	0.66020 0.12030 0.46990 -0.42400
O 	O 	0.71340 0.15660 0.55250 -0.47900
O 	O 	0.62850 0.16670 0.62120 -0.48200
O 	O 	0.56700 0.10130 0.60620 -0.46300
O 	O 	0.95310 0.05150 0.60960 -0.41400
O 	O 	0.90000 0.02600 0.54350 -0.47900
O 	O 	0.82410 0.09740 0.51950 -0.45600
O 	O 	0.87370 0.17410 0.54190 -0.44100
O 	O 	0.05130 0.13270 0.60350 -0.42500
O 	O 	0.97050 0.17930 0.62350 -0.44200
O 	O 	0.82760 0.16110 0.34270 -0.47700
O 	O 	0.87110 0.22830 0.34950 -0.42900
O 	O 	0.81790 0.15240 0.43380 -0.44700
O 	O 	0.73310 0.21330 0.46990 -0.44200
O 	O 	0.74420 0.29440 0.43940 -0.41700
O 	O 	0.72000 0.27490 0.36270 -0.55700
O 	O 	0.63290 0.99660 0.41330 -0.37300
O 	O 	0.60430 0.93160 0.44170 -0.39600
O 	O 	0.72640 0.02710 0.49570 -0.45400
O 	O 	0.73320 0.90720 0.51850 -0.42100
O 	O 	0.84630 0.98050 0.45350 -0.41700
O 	O 	0.82430 0.91080 0.44890 -0.41500
O 	O 	0.68440 0.27880 0.71760 -0.39500
O 	O 	0.67910 0.25200 0.64460 -0.42500
O 	O 	0.76800 0.21360 0.76040 -0.44500
O 	O 	0.80020 0.19210 0.63500 -0.45200
O 	O 	0.89990 0.25670 0.65450 -0.39500
O 	O 	0.90030 0.25540 0.73180 -0.41800
O 	O 	0.98610 0.82900 0.58380 -0.21800
O 	O 	0.89490 0.86470 0.52840 -0.40900
O 	O 	0.78070 0.80680 0.53340 -0.45900
O 	O 	0.74430 0.78930 0.61880 -0.48500
O 	O 	0.90700 0.85210 0.67360 -0.24200
O 	O 	0.84410 0.79670 0.69540 -0.40300
O 	O 	0.52850 0.92160 0.60420 -0.36100
O 	O 	0.56150 0.92060 0.53550 -0.33400
O 	O 	0.63210 0.84470 0.54450 -0.47600
O 	O 	0.57030 0.78080 0.58950 -0.42600
O 	O 	0.49340 0.79930 0.65920 -0.65400
O 	O 	0.41400 0.84980 0.61160 -0.54700
O 	O 	0.70640 0.62840 0.47590 -0.51500
O 	O 	0.67750 0.63130 0.54640 -0.56000
O 	O 	0.69790 0.71610 0.55210 -0.45000
O 	O 	0.62540 0.76540 0.48170 -0.42700
O 	O 	0.60630 0.73380 0.39670 -0.69500
O 	O 	0.57140 0.66940 0.41740 -0.62500
O 	O 	0.78260 0.72860 0.82220 -0.39600
O 	O 	0.77090 0.72940 0.74120 -0.40500
O 	O 	0.71840 0.80490 0.82720 -0.42600
O 	O 	0.66560 0.78840 0.69700 -0.50800
O 	O 	0.57500 0.75640 0.80010 -0.43700
O 	O 	0.56180 0.73670 0.72560 -0.41700
O 	O 	0.78290 0.76110 0.13380 -0.27100
O 	O 	0.77670 0.83230 0.13080 -0.39900
O 	O 	0.76290 0.83960 0.03560 -0.45300
O 	O 	0.66400 0.78730 0.98530 -0.45500
O 	O 	0.60760 0.73680 0.07890 -0.30500
O 	O 	0.63660 0.70960 0.01470 -0.40600
O 	O 	0.53070 0.91780 0.83100 -1.28200
O 	O 	0.55770 0.84980 0.82010 -1.03000
O 	O 	0.65720 0.84520 0.90220 -0.46300
O 	O 	0.63500 0.88910 0.97710 -0.49300
O 	O 	0.55160 0.96070 0.96120 -0.33100
O 	O 	0.44750 0.93310 0.91560 -0.24700
O 	O 	0.89620 0.95220 0.94480 -0.41300
O 	O 	0.94510 0.91940 0.89150 -0.39300
O 	O 	0.78570 0.89380 0.95840 -0.47800
O 	O 	0.80910 0.81220 0.93600 -0.44600
O 	O 	0.88850 0.79300 0.86940 -0.38400
O 	O 	0.00400 0.83080 0.90150 -0.41400
O 	O 	0.87640 0.07690 0.02920 -0.37800
O 	O 	0.86760 0.00130 0.02950 -0.36500
O 	O 	0.78680 0.09000 0.94610 -0.43300
O 	O 	0.72470 0.97660 0.96390 -0.40000
O 	O 	0.66210 0.07880 0.00070 -0.37700
O 	O 	0.65320 0.01320 0.02360 -0.40300
O 	O 	0.74650 0.27010 0.05220 -0.40100
O 	O 	0.75030 0.24050 0.96420 -0.44900
O 	O 	0.83700 0.27990 0.91060 -0.44700
O 	O 	0.89840 0.36360 0.99390 -0.37900
O 	O 	0.85610 0.36260 0.91820 -0.40400
O 	O 	0.49300 0.20050 0.80090 -0.43300
O 	O 	0.59740 0.23010 0.77000 -0.52400
O 	O 	0.69320 0.23720 0.85510 -0.46200
O 	O 	0.71850 0.16590 0.90380 -0.46600
O 	O 	0.56200 0.11200 0.82340 -0.20700
O 	O 	0.61920 0.10180 0.90170 -0.35300
O 	O 	0.06570 0.13300 0.92670 -0.31100
O 	O 	0.96880 0.11030 0.96240 -0.36600
O 	O 	0.88110 0.18120 0.94250 -0.44900
O 	O 	0.84430 0.20050 0.85340 -0.46000
O 	O 	0.93880 0.17880 0.79170 -0.36800
O 	O 	0.97780 0.11390 0.83080 -0.33100
O 	O 	0.63170 0.28300 0.50410 -0.44500
O 	O 	0.59730 0.23100 0.55330 -0.50400
O 	O 	0.88140 0.27530 0.49520 -0.39200
O 	O 	0.95060 0.25910 0.57030 -0.57700
O 	O 	0.76880 0.33320 0.53000 -0.51400
O 	O 	0.79970 0.38290 0.58370 -0.72300
O 	O 	0.93990 0.05580 0.46170 -0.51800
O 	O 	0.92120 0.09420 0.39150 -0.43000
O 	O 	0.67490 0.12670 0.35030 -0.51600
O 	O 	0.59360 0.07860 0.37250 -0.58900
O 	O 	0.78870 0.00530 0.28420 -0.68500
O 	O 	0.78480 0.07030 0.32040 -0.57300
O 	O 	0.76040 0.76490 0.42710 -0.51100
O 	O 	0.85210 0.82040 0.44410 -0.43800
O 	O 	0.54600 0.67470 0.57520 -0.46600
O 	O 	0.48630 0.70960 0.63150 -0.46600
O 	O 	0.84610 0.71440 0.66040 -0.42500
O 	O 	0.78460 0.65450 0.62470 -0.44800
O 	O 	0.62850 0.62130 0.63450 -0.49200
O 	O 	0.50860 0.86420 0.45860 -0.53700
O 	O 	0.52270 0.81760 0.40520 -0.46600
O 	O 	0.66030 0.81190 0.35420 -0.66500
O 	O 	0.70210 0.84990 0.29760 -0.62800
O 	O 	0.50910 0.78680 0.87910 -0.73500
O 	O 	0.53220 0.73410 0.93030 -0.52600
O 	O 	0.77510 0.71140 0.98040 -0.46400
O 	O 	0.84650 0.71960 0.91670 -0.44700
O 	O 	0.65010 0.87900 0.09220 -0.60400
O 	O 	0.58130 0.93910 0.05500 -0.44000
O 	O 	0.92640 0.92000 0.03840 -0.39700
O 	O 	0.88140 0.88790 0.10540 -0.41800
O 	O 	0.64300 0.66540 0.92960 -0.44500
O 	O 	0.76590 0.92230 0.14740 -0.59200
O 	O 	0.79480 0.98290 0.18400 -0.61300
O 	O 	0.88540 0.22690 0.04750 -0.38800
O 	O 	0.94620 0.15910 0.04430 -0.37700
O 	O 	0.63270 0.20660 0.02490 -0.46700
O 	O 	0.59240 0.16270 0.96900 -0.52700
O 	O 	0.95660 0.32130 0.85890 -0.48900
O 	O 	0.98140 0.25820 0.83090 -0.49300
O 	O 	0.72080 0.34520 0.86040 -0.53300
O 	O 	0.64350 0.31820 0.79700 -0.48400
O 	O 	0.77130 0.19420 0.09710 -0.46000
O 	O 	0.77500 0.14070 0.15680 -0.51500
O 	O 	0.77750 0.24210 0.56290 -0.69000
O 	O 	0.76340 0.06960 0.42090 -0.70300
O 	O 	0.68190 0.84530 0.45670 -0.69300
O 	O 	0.66980 0.71890 0.64870 -0.69000
O 	O 	0.68680 0.75520 0.89300 -0.68900
O 	O 	0.75440 0.93160 0.04290 -0.66600
O 	O 	0.77040 0.15560 0.00430 -0.67400
O 	O 	0.81080 0.28150 0.81320 -0.71200
C 	C 	0.54130 0.08580 0.49020 0.47900
C 	C 	0.60480 0.12140 0.50640 -0.13300
H 	H 	0.57580 0.14940 0.50220 0.08500
C 	C 	0.66160 0.12380 0.55520 0.03800
H 	H 	0.69230 0.09640 0.56060 0.02000
C 	C 	0.61680 0.13200 0.59720 0.32300
C 	C 	0.90390 0.05400 0.56700 0.40900
C 	C 	0.87360 0.10020 0.56060 -0.00900
H 	H 	0.84140 0.10680 0.58590 0.02800
C 	C 	0.92770 0.13920 0.55490 -0.08300
H 	H 	0.95540 0.13310 0.52740 0.05900
C 	C 	0.99110 0.15350 0.59530 0.41400
C 	C 	0.84260 0.19710 0.36880 0.31600
C 	C 	0.82490 0.19750 0.41860 -0.06900
H 	H 	0.86850 0.21260 0.44000 0.06200
C 	C 	0.73970 0.21870 0.42220 -0.04700
H 	H 	0.69690 0.20140 0.40270 0.05100
C 	C 	0.73610 0.26600 0.40270 0.39100
C 	C 	0.64130 0.96730 0.44730 0.28100
C 	C 	0.69430 0.98310 0.49510 -0.04600
H 	H 	0.65950 0.98170 0.51990 0.07200
C 	C 	0.76230 0.94710 0.50810 -0.04200
H 	H 	0.79930 0.95720 0.53660 0.06200
C 	C 	0.81130 0.94630 0.46540 0.32300
C 	C 	0.69740 0.24890 0.68760 0.31800
C 	C 	0.74840 0.20960 0.70790 -0.06700
H 	H 	0.71330 0.18380 0.70140 0.02900
C 	C 	0.82290 0.20140 0.68370 -0.03300
H 	H 	0.85320 0.17640 0.69930 0.04200
C 	C 	0.87800 0.24180 0.69040 0.34700
C 	C 	0.91290 0.83690 0.56030 0.28300
C 	C 	0.84260 0.80720 0.57200 -0.00800
H 	H 	0.86330 0.77730 0.57780 0.04800
C 	C 	0.80140 0.82160 0.61460 -0.00700
H 	H 	0.77270 0.84920 0.60640 0.02300
C 	C 	0.84970 0.82500 0.66670 0.30700
C 	C 	0.55720 0.89900 0.57320 0.29600
C 	C 	0.58710 0.85280 0.58300 -0.03600
H 	H 	0.62450 0.85200 0.61370 -0.01200
C 	C 	0.52380 0.81810 0.58270 -0.03900
H 	H 	0.49050 0.81700 0.55070 0.08400
C 	C 	0.46840 0.82640 0.61940 0.27300
C 	C 	0.68900 0.64850 0.50790 0.43700
C 	C 	0.69070 0.69960 0.50850 -0.00300
H 	H 	0.73820 0.70900 0.49450 0.03300
C 	C 	0.61470 0.71910 0.47800 -0.14900
H 	H 	0.56760 0.71140 0.49330 0.08200
C 	C 	0.59570 0.70520 0.42550 0.57000
C 	C 	0.76650 0.74600 0.78380 0.35900
C 	C 	0.73040 0.79190 0.78080 -0.11000
H 	H 	0.77080 0.81170 0.77070 0.06600
C 	C 	0.65190 0.79560 0.74380 0.08600
H 	H 	0.62710 0.82440 0.74610 -0.19500
C 	C 	0.59460 0.76010 0.75600 0.19100
C 	C 	0.77300 0.79680 0.11100 0.32200
C 	C 	0.74830 0.79840 0.05470 -0.03500
H 	H 	0.78440 0.77780 0.04170 0.04700
C 	C 	0.66180 0.78590 0.03250 -0.01100
H 	H 	0.62260 0.80720 0.04110 0.04800
C 	C 	0.63980 0.73960 0.04670 0.34500
C 	C 	0.55940 0.88210 0.84870 0.49400
C 	C 	0.61690 0.88810 0.89560 -0.17800
H 	H 	0.65560 0.91220 0.89440 0.10700
C 	C 	0.57720 0.88910 0.94180 0.09500
H 	H 	0.54460 0.86250 0.94300 -0.04000
C 	C 	0.52000 0.93030 0.94110 0.26900
C 	C 	0.89980 0.92110 0.92030 0.39100
C 	C 	0.83560 0.88390 0.92400 -0.06000
H 	H 	0.80030 0.88180 0.89270 0.04200
C 	C 	0.87640 0.83820 0.93540 -0.01500
H 	H 	0.90890 0.83880 0.96760 0.03800
C 	C 	0.93130 0.82360 0.89870 0.31800
C 	C 	0.85240 0.04280 0.00740 0.25100
C 	C 	0.80020 0.04480 0.95800 -0.02700
H 	H 	0.83030 0.03140 0.93460 0.05800
C 	C 	0.72130 0.02110 0.95680 -0.07800
H 	H 	0.68580 0.02740 0.92630 0.09900
C 	C 	0.68170 0.03810 0.99730 0.34000
C 	C 	0.76400 0.28730 0.97010 -0.02900
H 	H 	0.72310 0.30190 0.94650 0.04900
C 	C 	0.84550 0.29700 0.95650 -0.02100
H 	H 	0.89010 0.28320 0.97830 0.05200
C 	C 	0.85000 0.34660 0.95860 0.32700
C 	C 	0.56970 0.20890 0.80310 0.26500
C 	C 	0.63810 0.20830 0.84810 0.03000
H 	H 	0.60740 0.21400 0.87440 0.03600
C 	C 	0.66740 0.16240 0.85830 -0.03700
H 	H 	0.70230 0.15490 0.83460 0.03700
C 	C 	0.61010 0.12310 0.86180 0.27500
C 	C 	0.99870 0.13890 0.93570 0.31600
C 	C 	0.93950 0.17280 0.91440 -0.02400
H 	H 	0.96990 0.20000 0.91190 0.04900
C 	C 	0.89380 0.16180 0.86420 -0.04000
H 	H 	0.85640 0.13790 0.86830 0.04800
C 	C 	0.94490 0.14640 0.82890 0.30200
C 	C 	0.58740 0.26150 0.52600 0.52900
H 	H 	0.53360 0.27100 0.52020 -0.12400
C 	C 	0.94810 0.27350 0.53710 0.54600
H 	H 	0.99570 0.28790 0.53260 -0.12600
C 	C 	0.79100 0.34920 0.57460 0.75700
H 	H 	0.80070 0.32910 0.59960 -0.26300
C 	C 	0.96520 0.07260 0.42930 0.45000
H 	H 	0.02120 0.07100 0.42970 -0.15800
C 	C 	0.61070 0.10590 0.34880 0.66700
H 	H 	0.56950 0.11400 0.32410 -0.20700
C 	C 	0.79400 0.02940 0.31910 0.55400
H 	H 	0.80730 0.01570 0.34880 -0.21300
C 	C 	0.82510 0.78080 0.43050 0.46600
H 	H 	0.86500 0.76230 0.42210 -0.10600
C 	C 	0.48720 0.68940 0.59360 0.45700
H 	H 	0.43600 0.68420 0.57570 -0.10500
C 	C 	0.85030 0.67630 0.64480 0.40600
H 	H 	0.90100 0.66290 0.64740 -0.11100
C 	C 	0.47970 0.84390 0.42780 0.62900
H 	H 	0.42370 0.84580 0.41780 -0.16800
C 	C 	0.67800 0.85210 0.34000 0.46100
H 	H 	0.67460 0.87770 0.35730 -0.19300
C 	C 	0.49300 0.76160 0.90540 0.76200
H 	H 	0.43810 0.76190 0.90860 -0.22200
C 	C 	0.83100 0.71030 0.95700 0.43800
H 	H 	0.87740 0.69870 0.97570 -0.08100
C 	C 	0.60100 0.90000 0.08500 0.56400
H 	H 	0.55860 0.89230 0.10150 -0.15900
C 	C 	0.94000 0.89800 0.07900 0.32300
H 	H 	0.99300 0.88870 0.09020 -0.05500
C 	C 	0.66500 0.66210 0.88930 0.47500
H 	H 	0.70730 0.67850 0.88080 -0.15600
C 	C 	0.77200 0.96110 0.14600 0.57000
H 	H 	0.75880 0.97550 0.11670 -0.20500
C 	C 	0.94100 0.20060 0.06150 0.33500
H 	H 	0.98300 0.20990 0.08540 -0.04900
C 	C 	0.57900 0.18830 0.99570 0.62600
H 	H 	0.52490 0.19610 0.99590 -0.13900
C 	C 	0.00500 0.29110 0.85020 0.54000
H 	H 	0.06080 0.29510 0.85930 -0.12300
C 	C 	0.65800 0.34190 0.83230 0.53500
H 	H 	0.61530 0.35950 0.83840 -0.15500
C 	C 	0.77700 0.15680 0.11120 0.47600
H 	H 	0.78470 0.13600 0.08820 -0.16100
C 	C 	0.64600 0.62450 0.68190 0.32400
H 	H 	0.67770 0.64460 0.70120 -0.13100
O 	O 	0.75400 0.34420 0.02350 -0.38500
O 	O 	0.60200 0.59010 0.69370 -0.39900
O 	O 	0.62600 0.63520 0.86130 -0.46900
C 	C 	0.74400 0.29910 0.02030 0.25700
Ba	Ba	0.40824 0.08135 0.59092 2.03100
Ba	Ba	0.74012 0.36804 0.36754 0.77200
Ba	Ba	0.75496 0.92345 0.25566 1.50800
Ba	Ba	0.63030 0.54512 0.56729 1.91200
Ba	Ba	0.77880 0.07094 0.21116 1.57500
Ba	Ba	0.86650 0.43165 0.50906 1.61300
Ba	Ba	0.88170 0.39563 0.08261 1.63100
Ba	Ba	0.59690 0.73700 0.28722 4.41600
Ba	Ba	0.83010 0.20570 0.24306 2.64900
Ba	Ba	0.07870 0.06380 0.68350 1.10400
O 	O 	0.71090 0.39070 0.43090 -0.27000
O 	O 	0.69930 0.14740 0.24910 -0.44500
O 	O 	0.61980 0.43370 0.34990 -0.92200
O 	O 	0.67900 0.53270 0.47840 -0.50900
O 	O 	0.88840 0.13860 0.24900 -0.65000
O 	O 	0.75000 0.76790 0.28100 -0.58000
O 	O 	0.48980 0.78600 0.30590 -0.63900
O 	O 	0.65500 0.68220 0.32000 -0.08900
O 	O 	0.72900 0.22130 0.19160 -0.57700
O 	O 	0.81400 0.45190 0.40700 -0.39200
O 	O 	0.55800 0.80380 0.23870 -1.53100
C 	C 	0.92220 0.47150 0.12470 0.10600
H 	H 	0.96490 0.46270 0.14820 -0.06700
O 	O 	0.93180 0.48290 0.08240 -0.30200
O 	O 	0.84530 0.47360 0.13150 -0.47000
C 	C 	0.73400 0.47080 0.57740 0.21700
H 	H 	0.78560 0.47810 0.59410 -0.24100
O 	O 	0.67500 0.46420 0.60050 -0.47600
O 	O 	0.72400 0.46750 0.53100 -0.41700
O 	O 	0.86780 0.29620 0.23150 -0.48900
O 	O 	0.51300 0.00530 0.60500 -0.24500
O 	O 	0.79200 0.41500 0.28500 -1.15800
O 	O 	0.61540 0.64930 0.24140 -0.08000
O 	O 	0.87820 0.36120 0.44290 -0.30200
O 	O 	0.71500 0.51110 0.65630 -0.47300
O 	O 	0.43780 0.96050 0.75060 -9.44600
C 	C 	0.09500 0.89700 0.64700 0.18900
H 	H 	0.09270 0.87700 0.62250 -0.05700
O 	O 	0.03600 0.90500 0.67200 -0.23900
O 	O 	0.15800 0.92200 0.66300 -0.32100
C 	C 	0.36500 0.96200 0.62700 1.96700
H 	H 	0.38100 0.99090 0.62680 -0.85100
O 	O 	0.34200 0.94400 0.66500 -1.85700
O 	O 	0.36400 0.93600 0.59000 -0.62200
C 	C 	0.39200 0.08670 0.79990 0.44700
H 	H 	0.37380 0.06890 0.77350 -0.09100
O 	O 	0.39100 0.13010 0.79730 -0.29000
Ba	Ba	0.50220 0.68270 0.31570 0.95300
Ba	Ba	0.61960 0.78780 0.24940 2.20700
O 	O 	0.60700 0.69680 0.28930 -2.20900
O 	O 	0.74300 0.78120 0.23290 -0.42200
O 	O 	0.49300 0.00460 0.56060 -0.18500
Ba	Ba	0.40910 0.92870 0.75130 20.72300
Ba	Ba	0.39990 0.98070 0.82300 -3.73800
Ba	Ba	0.87790 0.22380 0.20040 -0.48100
O 	O 	0.71400 0.26020 0.16340 -0.25000
Ba	Ba	0.79510 0.43400 0.66690 1.32500
Ba	Ba	0.31860 0.08480 0.89070 2.56300
O 	O 	0.41000 0.15860 0.86160 -0.16000
O 	O 	0.36500 0.16940 0.84160 -0.18800
O 	O 	0.41830 0.07140 0.84170 -0.66800
C 	C 	0.43000 0.07270 0.88760 -0.99100
H 	H 	0.44970 0.08230 0.86040 0.81500
O 	O 	0.48200 0.05170 0.92070 0.13400
C 	C 	0.30600 0.98600 0.91400 0.11400
H 	H 	0.28040 0.95910 0.91740 -0.10000
O 	O 	0.32600 0.99800 0.87300 0.08000
O 	O 	0.32300 0.01300 0.95000 -0.40900
Ba	Ba	0.59600 0.57160 0.79440 1.17500
O 	O 	0.69500 0.39770 0.46710 -0.03900
