data_crystal

_cell_length_a 16.62000
_cell_length_b 30.52600
_cell_length_c 28.36200
_cell_angle_alpha 90.00000
_cell_angle_beta  98.31700
_cell_angle_gamma 90.00000

_symmetry_space_group_name_	'P 1'
_symmetry_space_group_name_H-M	'P 1'

loop_
_symmetry_equiv_pos_as_xyz
  x,y,z

loop_
_atom_site_label
_atom_site_type_symbol
_atom_site_fract_x
_atom_site_fract_y
_atom_site_fract_z
_atom_site_charge
O 	O 	0.58700 0.93900 0.13710 -0.29400
C 	C 	0.10370 0.93020 0.14100 -0.01200
H 	H 	0.14020 0.95490 0.13790 0.03200
C 	C 	0.07170 0.95480 0.44930 -0.06100
H 	H 	0.04390 0.96050 0.47680 0.05700
C 	C 	0.30050 0.84580 0.31400 0.29200
C 	C 	0.00650 0.94350 0.40830 0.34400
C 	C 	0.30590 0.40010 0.49530 -0.11300
H 	H 	0.26010 0.39070 0.51110 0.06700
C 	C 	0.12270 0.99500 0.44310 0.00700
H 	H 	0.15550 0.98840 0.41790 0.02700
C 	C 	0.12860 0.85390 0.31060 0.25200
C 	C 	0.08170 0.03900 0.43100 0.28000
Fe	Fe	0.34500 0.36926 0.04982 1.23800
O 	O 	0.35610 0.43170 0.06970 -0.59200
C 	C 	0.37100 0.44550 0.11180 0.51600
H 	H 	0.37850 0.42580 0.13710 -0.19100
O 	O 	0.37600 0.48690 0.11980 -0.61200
C 	C 	0.25190 0.87530 0.58080 -0.05000
H 	H 	0.29350 0.89300 0.60010 0.06400
C 	C 	0.30910 0.44940 0.48960 0.42900
C 	C 	0.17200 0.89790 0.58500 -0.05800
H 	H 	0.12910 0.88320 0.56330 0.06300
C 	C 	0.38600 0.37990 0.51760 -0.02900
H 	H 	0.43160 0.38880 0.50140 0.05700
C 	C 	0.26840 0.82870 0.59770 0.32800
C 	C 	0.14870 0.89670 0.63470 0.33100
C 	C 	0.03370 0.02360 0.57920 0.55600
H 	H 	0.97810 0.02560 0.57990 -0.20800
C 	C 	0.38070 0.98460 0.65090 0.53800
H 	H 	0.42280 0.97190 0.67160 -0.14500
O 	O 	0.21180 0.08770 0.72090 -0.62500
C 	C 	0.21000 0.06750 0.68110 0.46400
H 	H 	0.20860 0.08320 0.65290 -0.18300
O 	O 	0.20870 0.02580 0.68050 -0.55200
C 	C 	0.30440 0.11480 0.50600 -0.05700
H 	H 	0.33740 0.11620 0.48010 0.04800
C 	C 	0.36120 0.12600 0.55100 0.28100
C 	C 	0.23730 0.14860 0.49400 -0.01500
H 	H 	0.20350 0.13810 0.46500 0.03300
C 	C 	0.18240 0.14970 0.53250 0.27000
C 	C 	0.39950 0.39160 0.57040 0.35300
C 	C 	0.14890 0.42090 0.35220 0.45900
H 	H 	0.09870 0.43480 0.34900 -0.13000
C 	C 	0.51710 0.40980 0.40590 0.35900
H 	H 	0.56860 0.41560 0.42230 -0.07600
C 	C 	0.34540 0.30400 0.25540 -0.03800
H 	H 	0.37010 0.27520 0.25220 0.05200
C 	C 	0.40460 0.33760 0.24080 0.33200
C 	C 	0.25030 0.29800 0.94520 -0.02000
H 	H 	0.21380 0.31950 0.95670 0.04900
C 	C 	0.23500 0.29970 0.89130 0.28800
C 	C 	0.33620 0.31160 0.96440 -0.04400
H 	H 	0.37300 0.28850 0.95640 0.05100
C 	C 	0.37100 0.35520 0.95210 0.26300
C 	C 	0.05600 0.19860 0.92410 0.46900
H 	H 	0.00260 0.20480 0.91140 -0.08400
C 	C 	0.42300 0.19400 0.91440 0.40800
H 	H 	0.46980 0.20130 0.90200 -0.13700
C 	C 	0.28020 0.07600 0.04470 -0.05800
H 	H 	0.31460 0.07050 0.07530 0.05100
C 	C 	0.20110 0.05180 0.04460 -0.01100
H 	H 	0.17000 0.06580 0.06730 0.02600
C 	C 	0.34000 0.93520 0.14580 -0.05000
H 	H 	0.30860 0.93960 0.17210 0.04800
C 	C 	0.39060 0.97630 0.14310 0.32300
C 	C 	0.37810 0.88970 0.15280 -0.04400
H 	H 	0.40820 0.88400 0.12610 0.06000
C 	C 	0.16820 0.79920 0.04520 -0.04700
H 	H 	0.12640 0.81340 0.02230 0.05600
C 	C 	0.25210 0.80940 0.03320 -0.06600
H 	H 	0.29420 0.79560 0.05620 0.06700
C 	C 	0.25700 0.79290 0.98290 0.40200
C 	C 	0.15600 0.75000 0.04430 0.34900
C 	C 	0.00100 0.79420 0.15700 0.51900
H 	H 	0.94630 0.78720 0.15100 -0.11400
C 	C 	0.35100 0.75440 0.17060 0.60600
H 	H 	0.39100 0.73330 0.16920 -0.20000
C 	C 	0.25470 0.88680 0.29510 -0.10200
H 	H 	0.29130 0.91180 0.30220 0.07200
C 	C 	0.17930 0.89520 0.31860 0.03200
H 	H 	0.14870 0.91940 0.30190 0.01400
O 	O 	0.17700 0.71450 0.18660 -0.39600
C 	C 	0.20600 0.70500 0.23090 0.36200
H 	H 	0.21170 0.72620 0.25480 -0.17400
O 	O 	0.22700 0.66500 0.23940 -0.46100
Fe	Fe	0.23010 0.21186 0.91267 1.24200
O 	O 	0.22720 0.17520 0.85290 -0.50900
C 	C 	0.21400 0.13320 0.85610 0.42500
H 	H 	0.20210 0.12070 0.88410 -0.15900
O 	O 	0.21900 0.11000 0.81900 -0.58400
C 	C 	0.37700 0.47480 0.32000 0.60400
H 	H 	0.39110 0.44800 0.30810 -0.21300
C 	C 	0.05870 0.92230 0.09110 -0.05900
H 	H 	0.02850 0.89480 0.09210 0.05400
C 	C 	0.99780 0.95710 0.07090 0.33500
C 	C 	0.05620 0.94290 0.18070 0.29600
C 	C 	0.43710 0.88570 0.19860 0.32400
C 	C 	0.42200 0.90710 0.00300 0.50600
H 	H 	0.47530 0.89940 0.00140 -0.12700
C 	C 	0.05740 0.89480 0.94960 0.38900
H 	H 	0.00970 0.88330 0.93300 -0.08600
O 	O 	0.21980 0.90350 0.90460 -0.50300
C 	C 	0.21800 0.94240 0.88880 0.47300
H 	H 	0.22860 0.96560 0.90990 -0.16600
O 	O 	0.20010 0.94990 0.84400 -0.58800
C 	C 	0.32370 0.05860 0.00510 0.27100
C 	C 	0.15150 0.05330 0.99500 0.24900
C 	C 	0.43610 0.20440 0.06300 -0.01700
H 	H 	0.47140 0.23000 0.06170 0.05400
C 	C 	0.39550 0.20710 0.10720 -0.08800
H 	H 	0.35830 0.18220 0.10790 0.06700
C 	C 	0.44730 0.21200 0.15570 0.36600
C 	C 	0.10500 0.17700 0.08650 0.34300
C 	C 	0.16240 0.21520 0.08390 -0.09300
H 	H 	0.19930 0.21770 0.11400 0.05500
C 	C 	0.12580 0.25960 0.06990 0.01700
H 	H 	0.09650 0.25610 0.03760 0.03000
C 	C 	0.06360 0.27610 0.10010 0.27700
C 	C 	0.15300 0.39590 0.04180 0.28200
H 	H 	0.10910 0.41130 0.02560 -0.06400
C 	C 	0.50800 0.33790 0.08970 0.40300
H 	H 	0.56210 0.33890 0.08550 -0.07500
C 	C 	0.26720 0.30500 0.22000 -0.06600
H 	H 	0.22850 0.28480 0.23150 0.06500
C 	C 	0.23140 0.35070 0.21950 0.29600
C 	C 	0.47270 0.27680 0.41630 -0.09100
H 	H 	0.50510 0.27730 0.44800 0.08700
C 	C 	0.52880 0.27310 0.37880 0.36900
C 	C 	0.40550 0.24280 0.41540 0.02600
H 	H 	0.36820 0.24580 0.38550 0.02000
C 	C 	0.43720 0.19620 0.41960 0.24300
C 	C 	0.13620 0.27080 0.33750 0.34500
C 	C 	0.19060 0.27590 0.38470 -0.05600
H 	H 	0.21550 0.24710 0.39220 0.04400
C 	C 	0.14920 0.28850 0.42730 -0.01100
H 	H 	0.12750 0.31820 0.42210 0.04700
C 	C 	0.08060 0.25880 0.43770 0.29100
C 	C 	0.16580 0.31420 0.57210 0.43500
H 	H 	0.12630 0.33000 0.58490 -0.10300
C 	C 	0.51600 0.26010 0.57840 0.35900
H 	H 	0.57100 0.26140 0.59050 -0.07600
C 	C 	0.31900 0.24210 0.65260 0.36500
H 	H 	0.31630 0.22040 0.62950 -0.13400
C 	C 	0.39650 0.97210 0.49610 -0.06100
H 	H 	0.42390 0.94360 0.50030 0.07100
C 	C 	0.34400 0.97330 0.44760 0.02700
H 	H 	0.31290 0.00070 0.44460 -0.00900
C 	C 	0.38540 0.96760 0.40370 0.33500
C 	C 	0.45960 0.00840 0.50530 0.32700
C 	C 	0.05690 0.81780 0.47610 0.37600
H 	H 	0.01180 0.80450 0.48600 -0.06900
C 	C 	0.42130 0.83860 0.47980 0.41300
H 	H 	0.47610 0.83450 0.49110 -0.08800
O 	O 	0.22760 0.76230 0.47000 -0.45800
C 	C 	0.23000 0.74770 0.42780 0.47200
H 	H 	0.24330 0.76600 0.40400 -0.16700
O 	O 	0.21200 0.70720 0.41910 -0.56100
C 	C 	0.48570 0.16300 0.06020 0.28000
O 	O 	0.55890 0.16110 0.08600 -0.23000
O 	O 	0.22490 0.85270 0.43950 -0.68600
O 	O 	0.26690 0.88100 0.53220 -0.44300
O 	O 	0.12530 0.92010 0.46210 -0.43700
O 	O 	0.03160 0.91470 0.38200 -0.43400
O 	O 	0.94280 0.96300 0.40060 -0.36900
O 	O 	0.17680 0.99980 0.48580 -0.44800
O 	O 	0.23410 0.02930 0.57850 -0.69500
O 	O 	0.18020 0.94300 0.56760 -0.43400
O 	O 	0.26220 0.79900 0.56430 -0.41900
O 	O 	0.27730 0.81940 0.63950 -0.38900
O 	O 	0.16740 0.93540 0.65740 -0.41000
O 	O 	0.11960 0.86780 0.65240 -0.34000
O 	O 	0.07460 0.00380 0.61250 -0.50600
O 	O 	0.05950 0.04070 0.54580 -0.54300
O 	O 	0.31660 0.96760 0.65000 -0.48600
O 	O 	0.40150 0.01800 0.62750 -0.51800
O 	O 	0.27710 0.07090 0.50710 -0.43500
O 	O 	0.36780 0.09830 0.58630 -0.39300
O 	O 	0.38870 0.16430 0.55820 -0.39700
O 	O 	0.31260 0.25130 0.54400 -0.68300
O 	O 	0.37180 0.33340 0.51510 -0.43500
O 	O 	0.25650 0.30590 0.38220 -0.46000
O 	O 	0.33310 0.37830 0.35260 -0.68800
O 	O 	0.30170 0.38130 0.44540 -0.43900
O 	O 	0.32160 0.46560 0.45030 -0.56500
O 	O 	0.29420 0.47010 0.52380 -0.49800
O 	O 	0.38650 0.36310 0.60160 -0.45700
O 	O 	0.42720 0.42800 0.58340 -0.40200
O 	O 	0.35730 0.47640 0.35890 -0.58600
O 	O 	0.37800 0.50940 0.29450 -0.53600
O 	O 	0.20970 0.44300 0.37250 -0.46000
O 	O 	0.14960 0.38350 0.33660 -0.45800
O 	O 	0.45360 0.42230 0.42540 -0.41000
O 	O 	0.51230 0.39030 0.36600 -0.40000
O 	O 	0.33640 0.30840 0.30230 -0.42600
O 	O 	0.44140 0.36180 0.27530 -0.37200
O 	O 	0.42350 0.33950 0.20230 -0.42000
O 	O 	0.31840 0.34270 0.10730 -0.68400
O 	O 	0.33520 0.31040 0.01680 -0.45200
O 	O 	0.21000 0.20360 0.04450 -0.45300
O 	O 	0.24670 0.16670 0.96070 -0.67400
O 	O 	0.23460 0.25770 0.96490 -0.45300
O 	O 	0.22330 0.26460 0.87180 -0.38500
O 	O 	0.21630 0.33950 0.87170 -0.24500
O 	O 	0.36930 0.38670 0.98590 -0.43600
O 	O 	0.39630 0.36310 0.91200 -0.22900
O 	O 	0.10750 0.20990 0.90210 -0.46700
O 	O 	0.06870 0.17790 0.96510 -0.41600
O 	O 	0.36180 0.21670 0.90860 -0.44200
O 	O 	0.41600 0.15770 0.93990 -0.43500
O 	O 	0.27330 0.12270 0.03790 -0.43300
O 	O 	0.21150 0.00780 0.05610 -0.45900
O 	O 	0.22810 0.94040 0.00100 -0.67600
O 	O 	0.25600 0.85630 0.03760 -0.44000
O 	O 	0.27940 0.93350 0.10100 -0.46100
O 	O 	0.39270 0.99380 0.10150 -0.39600
O 	O 	0.43990 0.98470 0.17830 -0.39700
O 	O 	0.31140 0.85930 0.14940 -0.45000
O 	O 	0.19880 0.81250 0.19160 -0.69000
O 	O 	0.16610 0.81610 0.09250 -0.44100
O 	O 	0.25230 0.82260 0.95140 -0.37700
O 	O 	0.27500 0.75800 0.98120 -0.33400
O 	O 	0.14820 0.73210 0.08500 -0.35500
O 	O 	0.14100 0.73120 0.00600 -0.36200
O 	O 	0.04800 0.76860 0.14550 -0.46300
O 	O 	0.02080 0.83050 0.17670 -0.46700
O 	O 	0.29490 0.75250 0.13950 -0.50900
O 	O 	0.36430 0.77960 0.20370 -0.54400
O 	O 	0.23590 0.88280 0.24170 -0.41800
O 	O 	0.19800 0.90590 0.36380 -0.43700
O 	O 	0.10140 0.83830 0.34900 -0.36600
O 	O 	0.10370 0.83730 0.27080 -0.39600
O 	O 	0.32230 0.84380 0.35830 -0.38700
O 	O 	0.32000 0.81530 0.28300 -0.35700
O 	O 	0.15440 0.89420 0.15150 -0.46700
O 	O 	0.12030 0.91490 0.06160 -0.43700
O 	O 	0.03110 0.98520 0.04350 -0.38000
O 	O 	0.93310 0.96330 0.07950 -0.34600
O 	O 	0.06090 0.91420 0.21550 -0.43600
O 	O 	0.01210 0.97450 0.17860 -0.39900
O 	O 	0.40720 0.86820 0.23120 -0.44300
O 	O 	0.50760 0.89710 0.19820 -0.33400
O 	O 	0.36640 0.89270 0.97510 -0.45900
O 	O 	0.40320 0.93330 0.03480 -0.46700
O 	O 	0.11730 0.87030 0.95710 -0.41500
O 	O 	0.05640 0.93580 0.96330 -0.42400
O 	O 	0.34010 0.01560 0.00170 -0.39500
O 	O 	0.34800 0.08450 0.97470 -0.39000
O 	O 	0.11930 0.02140 0.97340 -0.38100
O 	O 	0.13010 0.09280 0.97440 -0.35000
O 	O 	0.36890 0.20630 0.02300 -0.44900
O 	O 	0.34460 0.25110 0.09890 -0.45400
O 	O 	0.44680 0.24820 0.17820 -0.40700
O 	O 	0.47250 0.17860 0.17080 -0.31400
O 	O 	0.44920 0.13310 0.03670 -0.38200
O 	O 	0.10330 0.14650 0.05780 -0.44400
O 	O 	0.05100 0.17990 0.11550 -0.46200
O 	O 	0.19000 0.28670 0.06600 -0.44500
O 	O 	0.10950 0.30570 0.13290 -0.35900
O 	O 	0.99310 0.26580 0.10070 -0.39200
O 	O 	0.22360 0.38680 0.02090 -0.40400
O 	O 	0.15280 0.38140 0.08490 -0.39500
O 	O 	0.46430 0.36620 0.06400 -0.43600
O 	O 	0.49420 0.30950 0.11880 -0.43600
O 	O 	0.27560 0.29230 0.17140 -0.41700
O 	O 	0.22310 0.36980 0.25890 -0.39700
O 	O 	0.21400 0.37010 0.17830 -0.37600
O 	O 	0.42410 0.31700 0.40930 -0.41600
O 	O 	0.50710 0.29710 0.34140 -0.40800
O 	O 	0.58540 0.24750 0.38430 -0.39400
O 	O 	0.36370 0.25440 0.45380 -0.48000
O 	O 	0.43310 0.17750 0.46260 -0.36100
O 	O 	0.47190 0.17480 0.39040 -0.29100
O 	O 	0.15240 0.29860 0.30550 -0.38300
O 	O 	0.08930 0.24230 0.33000 -0.34600
O 	O 	0.21230 0.28970 0.46470 -0.44900
O 	O 	0.09920 0.22980 0.46960 -0.40400
O 	O 	0.01030 0.26430 0.41810 -0.26500
O 	O 	0.23020 0.33210 0.57290 -0.47500
O 	O 	0.14380 0.27480 0.55550 -0.43700
O 	O 	0.46650 0.28230 0.59660 -0.40300
O 	O 	0.48910 0.23310 0.53930 -0.38900
O 	O 	0.33530 0.28700 0.64420 -0.47400
O 	O 	0.31000 0.23540 0.69600 -0.55300
O 	O 	0.26270 0.18970 0.48380 -0.43600
O 	O 	0.15360 0.11540 0.54890 -0.40700
O 	O 	0.17010 0.18620 0.55280 -0.37200
O 	O 	0.33750 0.97560 0.53000 -0.42100
O 	O 	0.28980 0.93790 0.44940 -0.47800
O 	O 	0.37880 0.93210 0.38330 -0.39900
O 	O 	0.43050 0.99800 0.39240 -0.38300
O 	O 	0.44520 0.03930 0.53530 -0.49200
O 	O 	0.52390 0.00580 0.49010 -0.50700
O 	O 	0.09820 0.07010 0.46190 -0.42200
O 	O 	0.03950 0.04390 0.39160 -0.41800
O 	O 	0.12350 0.81950 0.50730 -0.39100
O 	O 	0.04830 0.83220 0.43480 -0.42000
O 	O 	0.36930 0.81330 0.49850 -0.40300
O 	O 	0.40500 0.86680 0.44910 -0.44200
Fe	Fe	0.30520 0.88756 0.40825 1.23000
Fe	Fe	0.12550 0.87646 0.40925 1.22400
Fe	Fe	0.24710 0.82339 0.49655 1.24800
Fe	Fe	0.23060 0.94140 0.50667 1.21200
Fe	Fe	0.16650 0.05379 0.52355 1.22800
Fe	Fe	0.34030 0.03553 0.56258 1.21400
Fe	Fe	0.20020 0.98765 0.62212 1.25900
Fe	Fe	0.37580 0.21410 0.50945 1.22500
Fe	Fe	0.20470 0.24095 0.51218 1.22000
Fe	Fe	0.34750 0.30390 0.57702 1.23100
Fe	Fe	0.32130 0.31553 0.44682 1.21100
Fe	Fe	0.24120 0.34270 0.32361 1.23300
Fe	Fe	0.42310 0.34460 0.34386 1.23000
Fe	Fe	0.32930 0.42475 0.39645 1.24200
Fe	Fe	0.38520 0.29979 0.14496 1.22200
Fe	Fe	0.21320 0.33033 0.11949 1.23300
Fe	Fe	0.28230 0.25436 0.03406 1.21900
Fe	Fe	0.17210 0.15197 0.00512 1.22800
Fe	Fe	0.34730 0.14848 0.99350 1.23800
Fe	Fe	0.13060 0.96466 0.01586 1.23400
Fe	Fe	0.30930 0.96963 0.04804 1.23900
Fe	Fe	0.24260 0.88627 0.97288 1.25100
Fe	Fe	0.21490 0.87759 0.09773 1.21700
Fe	Fe	0.30230 0.83477 0.21348 1.23500
Fe	Fe	0.12820 0.85971 0.20735 1.22500
Fe	Fe	0.17350 0.76949 0.14415 1.24500
O 	O 	0.64200 0.09790 0.14220 -0.38800
Ba	Ba	0.59448 0.01639 0.40921 1.17800
Ba	Ba	0.73968 0.22704 0.36523 1.26600
Ba	Ba	0.25360 0.17075 0.74716 1.50700
Ba	Ba	0.92230 0.11916 0.09367 0.55100
Ba	Ba	0.58890 0.02611 0.16230 1.81000
Ba	Ba	0.60750 0.86290 0.28810 0.77500
Ba	Ba	0.39770 0.52913 0.20810 1.21200
Ba	Ba	0.20270 0.02532 0.78976 1.38900
O 	O 	0.61900 0.95840 0.24090 -0.46900
O 	O 	0.69800 0.19720 0.45460 -0.36600
O 	O 	0.66700 0.87040 0.19300 -0.34400
O 	O 	0.52700 0.04840 0.07930 -0.38700
O 	O 	0.90320 0.15100 0.99750 -0.23400
O 	O 	0.49040 0.79480 0.30520 -0.30500
Ba	Ba	0.14180 0.66266 0.49288 1.25100
O 	O 	0.12920 0.73120 0.55560 -0.39000
O 	O 	0.77800 0.83200 0.27990 -0.40000
O 	O 	0.25000 0.25880 0.78210 -0.36100
O 	O 	0.28600 0.94580 0.75640 -0.37100
Ba	Ba	0.11100 0.87420 0.80230 0.81800
O 	O 	0.13790 0.79840 0.76090 -0.52400
O 	O 	0.96790 0.80970 0.78220 -0.24100
O 	O 	0.14330 0.80020 0.87460 -0.25600
O 	O 	0.27700 0.62930 0.45280 -0.44000
O 	O 	0.70690 0.07860 0.66120 -0.44400
O 	O 	0.66600 0.23280 0.10660 -0.17000
Ba	Ba	0.77180 0.91450 0.26737 0.69800
Ba	Ba	0.60890 0.79857 0.24570 1.20200
Ba	Ba	0.93010 0.03300 0.31440 0.17400
Ba	Ba	0.79070 0.37210 0.19400 0.47300
O 	O 	0.83000 0.07880 0.95710 -0.20800
O 	O 	0.80500 0.09390 0.99400 -0.27100
O 	O 	0.59600 0.11470 0.17530 -0.28900
Ba	Ba	0.79030 0.23070 0.17770 1.56000
Ba	Ba	0.77930 0.24500 0.13180 -1.00600
Ba	Ba	0.83110 0.39020 0.24190 0.35700
Ba	Ba	0.68710 0.00890 0.11130 -0.51400
Ba	Ba	0.94370 0.22890 0.17860 0.26000
Ba	Ba	0.87330 0.20390 0.08440 1.22700
Ba	Ba	0.33250 0.47750 0.97830 1.01500
Ba	Ba	0.89850 0.95160 0.24090 0.64700
Ba	Ba	0.01310 0.09540 0.29850 0.56000
Ba	Ba	0.31090 0.53600 0.04630 0.83300
Ba	Ba	0.21800 0.66040 0.34000 1.60200
Ba	Ba	0.63450 0.05320 0.56610 1.61400
O 	O 	0.31510 0.63110 0.39640 -0.51600
O 	O 	0.41300 0.43900 0.86290 -0.30700
C 	C 	0.89630 0.43020 0.85900 -0.01000
H 	H 	0.85980 0.45490 0.86210 0.02800
C 	C 	0.92830 0.45480 0.55070 -0.05300
H 	H 	0.95610 0.46050 0.52320 0.05100
C 	C 	0.69950 0.34580 0.68600 0.29300
C 	C 	0.99350 0.44350 0.59170 0.34600
C 	C 	0.69410 0.90010 0.50470 -0.11000
H 	H 	0.73990 0.89070 0.48890 0.06700
C 	C 	0.87730 0.49500 0.55690 -0.02400
H 	H 	0.84450 0.48840 0.58210 0.02700
C 	C 	0.87140 0.35390 0.68940 0.25100
C 	C 	0.91830 0.53900 0.56900 0.31300
Fe	Fe	0.65500 0.86926 0.95018 1.23800
O 	O 	0.64390 0.93170 0.93030 -0.59200
C 	C 	0.62900 0.94550 0.88820 0.51300
H 	H 	0.62150 0.92580 0.86290 -0.18500
O 	O 	0.62400 0.98690 0.88020 -0.57900
C 	C 	0.74810 0.37530 0.41920 -0.05000
H 	H 	0.70650 0.39300 0.39990 0.06300
C 	C 	0.69090 0.94940 0.51040 0.42400
C 	C 	0.82800 0.39790 0.41500 -0.05700
H 	H 	0.87090 0.38320 0.43670 0.06200
C 	C 	0.61400 0.87990 0.48240 -0.02700
H 	H 	0.56840 0.88880 0.49860 0.05800
C 	C 	0.73160 0.32870 0.40230 0.32800
C 	C 	0.85130 0.39670 0.36530 0.33000
C 	C 	0.96630 0.52360 0.42080 0.55300
H 	H 	0.02190 0.52560 0.42010 -0.20000
C 	C 	0.61930 0.48460 0.34910 0.48400
H 	H 	0.57720 0.47190 0.32840 -0.13600
O 	O 	0.78820 0.58770 0.27910 -0.62700
C 	C 	0.79000 0.56750 0.31890 0.46100
H 	H 	0.79140 0.58320 0.34710 -0.18100
O 	O 	0.79130 0.52580 0.31950 -0.53900
C 	C 	0.69560 0.61480 0.49400 -0.05900
H 	H 	0.66260 0.61620 0.51990 0.04900
C 	C 	0.63880 0.62600 0.44900 0.28100
C 	C 	0.76270 0.64860 0.50600 -0.01500
H 	H 	0.79650 0.63810 0.53500 0.03400
C 	C 	0.81760 0.64970 0.46750 0.27000
C 	C 	0.60050 0.89160 0.42960 0.35000
C 	C 	0.85110 0.92090 0.64780 0.45700
H 	H 	0.90130 0.93480 0.65100 -0.12400
C 	C 	0.48290 0.90980 0.59410 0.35900
H 	H 	0.43140 0.91560 0.57770 -0.07400
C 	C 	0.65460 0.80400 0.74460 -0.03700
H 	H 	0.62990 0.77520 0.74780 0.05200
C 	C 	0.59540 0.83760 0.75920 0.33200
C 	C 	0.74970 0.79800 0.05480 -0.01800
H 	H 	0.78620 0.81950 0.04330 0.04700
C 	C 	0.76500 0.79970 0.10870 0.28800
C 	C 	0.66380 0.81160 0.03560 -0.04800
H 	H 	0.62700 0.78850 0.04360 0.05200
C 	C 	0.62900 0.85520 0.04790 0.26600
C 	C 	0.94400 0.69860 0.07590 0.46900
H 	H 	0.99740 0.70480 0.08860 -0.08300
C 	C 	0.57700 0.69400 0.08560 0.40800
H 	H 	0.53020 0.70130 0.09800 -0.13800
C 	C 	0.71980 0.57600 0.95530 -0.05700
H 	H 	0.68540 0.57050 0.92470 0.05600
C 	C 	0.79890 0.55180 0.95540 -0.01100
H 	H 	0.83000 0.56580 0.93270 0.03000
C 	C 	0.66000 0.43520 0.85420 -0.05100
H 	H 	0.69140 0.43960 0.82790 0.04500
C 	C 	0.60940 0.47630 0.85690 0.32300
C 	C 	0.62190 0.38970 0.84720 -0.04400
H 	H 	0.59180 0.38400 0.87390 0.06100
C 	C 	0.83180 0.29920 0.95480 -0.04800
H 	H 	0.87360 0.31340 0.97770 0.05700
C 	C 	0.74790 0.30940 0.96680 -0.06300
H 	H 	0.70580 0.29560 0.94380 0.06700
C 	C 	0.74300 0.29290 0.01710 0.40000
C 	C 	0.84400 0.25000 0.95570 0.35000
C 	C 	0.99900 0.29420 0.84300 0.52300
H 	H 	0.05370 0.28720 0.84900 -0.11600
C 	C 	0.64900 0.25440 0.82940 0.60500
H 	H 	0.60900 0.23330 0.83080 -0.19900
C 	C 	0.74530 0.38680 0.70490 -0.10200
H 	H 	0.70870 0.41180 0.69780 0.07000
C 	C 	0.82070 0.39520 0.68140 0.03300
H 	H 	0.85130 0.41940 0.69810 0.01100
O 	O 	0.82300 0.21450 0.81340 -0.39500
C 	C 	0.79400 0.20500 0.76910 0.36200
H 	H 	0.78830 0.22620 0.74520 -0.17400
O 	O 	0.77300 0.16500 0.76060 -0.46100
Fe	Fe	0.76990 0.71186 0.08733 1.24200
O 	O 	0.77280 0.67520 0.14710 -0.50900
C 	C 	0.78600 0.63320 0.14390 0.42800
H 	H 	0.79790 0.62070 0.11590 -0.16000
O 	O 	0.78100 0.61000 0.18100 -0.58800
C 	C 	0.62300 0.97480 0.68000 0.65500
H 	H 	0.60890 0.94800 0.69190 -0.22400
C 	C 	0.94130 0.42230 0.90890 -0.05900
H 	H 	0.97150 0.39480 0.90790 0.05500
C 	C 	0.00220 0.45710 0.92910 0.33300
C 	C 	0.94380 0.44290 0.81930 0.29600
C 	C 	0.56290 0.38570 0.80140 0.32300
C 	C 	0.57800 0.40710 0.99700 0.51000
H 	H 	0.52470 0.39940 0.99860 -0.12700
C 	C 	0.94260 0.39480 0.05040 0.39100
H 	H 	0.99030 0.38330 0.06700 -0.08700
O 	O 	0.78020 0.40350 0.09540 -0.51400
C 	C 	0.78200 0.44240 0.11120 0.47800
H 	H 	0.77140 0.46560 0.09010 -0.17900
O 	O 	0.79990 0.44990 0.15600 -0.61000
C 	C 	0.67630 0.55860 0.99490 0.27400
C 	C 	0.84850 0.55330 0.00500 0.24700
C 	C 	0.56390 0.70440 0.93700 -0.01700
H 	H 	0.52860 0.73000 0.93830 0.05400
C 	C 	0.60450 0.70710 0.89280 -0.08800
H 	H 	0.64170 0.68220 0.89210 0.06800
C 	C 	0.55270 0.71200 0.84430 0.36600
C 	C 	0.89500 0.67700 0.91350 0.34300
C 	C 	0.83760 0.71520 0.91610 -0.09300
H 	H 	0.80070 0.71770 0.88600 0.05600
C 	C 	0.87420 0.75960 0.93010 0.01600
H 	H 	0.90350 0.75610 0.96240 0.03100
C 	C 	0.93640 0.77610 0.89990 0.27900
C 	C 	0.84700 0.89590 0.95820 0.28400
H 	H 	0.89090 0.91130 0.97440 -0.06200
C 	C 	0.49200 0.83790 0.91030 0.40200
H 	H 	0.43790 0.83890 0.91450 -0.07200
C 	C 	0.73280 0.80500 0.78000 -0.06600
H 	H 	0.77150 0.78480 0.76850 0.06500
C 	C 	0.76860 0.85070 0.78050 0.29600
C 	C 	0.52730 0.77680 0.58370 -0.09100
H 	H 	0.49490 0.77730 0.55200 0.08700
C 	C 	0.47120 0.77310 0.62120 0.36900
C 	C 	0.59450 0.74280 0.58460 0.02600
H 	H 	0.63180 0.74580 0.61450 0.02100
C 	C 	0.56280 0.69620 0.58040 0.24300
C 	C 	0.86380 0.77080 0.66250 0.34500
C 	C 	0.80940 0.77590 0.61530 -0.05600
H 	H 	0.78450 0.74710 0.60780 0.04400
C 	C 	0.85080 0.78850 0.57270 -0.01100
H 	H 	0.87250 0.81820 0.57790 0.04700
C 	C 	0.91940 0.75880 0.56230 0.29100
C 	C 	0.83420 0.81420 0.42790 0.43500
H 	H 	0.87370 0.83000 0.41510 -0.10200
C 	C 	0.48400 0.76010 0.42160 0.35900
H 	H 	0.42900 0.76140 0.40950 -0.07700
C 	C 	0.68100 0.74210 0.34740 0.36500
H 	H 	0.68370 0.72040 0.37050 -0.13400
C 	C 	0.60350 0.47210 0.50390 -0.07700
H 	H 	0.57610 0.44360 0.49970 0.07300
C 	C 	0.65600 0.47330 0.55240 -0.02100
H 	H 	0.68710 0.50070 0.55540 0.02900
C 	C 	0.61460 0.46760 0.59630 0.34800
C 	C 	0.54040 0.50840 0.49470 0.35500
C 	C 	0.94310 0.31780 0.52390 0.37500
H 	H 	0.98820 0.30450 0.51400 -0.06800
C 	C 	0.57870 0.33860 0.52020 0.41300
H 	H 	0.52390 0.33450 0.50890 -0.08800
O 	O 	0.77240 0.26230 0.53000 -0.45700
C 	C 	0.77000 0.24770 0.57220 0.47200
H 	H 	0.75670 0.26600 0.59600 -0.16700
O 	O 	0.78800 0.20720 0.58090 -0.56000
C 	C 	0.51430 0.66300 0.93980 0.28000
O 	O 	0.44110 0.66110 0.91400 -0.23000
O 	O 	0.77510 0.35270 0.56050 -0.68600
O 	O 	0.73310 0.38100 0.46780 -0.44300
O 	O 	0.87470 0.42010 0.53790 -0.43900
O 	O 	0.96840 0.41470 0.61800 -0.43600
O 	O 	0.05720 0.46300 0.59940 -0.38800
O 	O 	0.82320 0.49980 0.51420 -0.46000
O 	O 	0.76590 0.52930 0.42150 -0.68100
O 	O 	0.81980 0.44300 0.43240 -0.44000
O 	O 	0.73780 0.29900 0.43570 -0.41900
O 	O 	0.72270 0.31940 0.36050 -0.38800
O 	O 	0.83260 0.43540 0.34260 -0.41100
O 	O 	0.88040 0.36780 0.34760 -0.33300
O 	O 	0.92540 0.50380 0.38750 -0.48800
O 	O 	0.94050 0.54070 0.45420 -0.53500
O 	O 	0.68340 0.46760 0.35000 -0.47800
O 	O 	0.59850 0.51800 0.37250 -0.48600
O 	O 	0.72290 0.57090 0.49290 -0.43100
O 	O 	0.63220 0.59830 0.41370 -0.39400
O 	O 	0.61130 0.66430 0.44180 -0.39800
O 	O 	0.68740 0.75130 0.45600 -0.68300
O 	O 	0.62820 0.83340 0.48490 -0.43500
O 	O 	0.74350 0.80590 0.61780 -0.46000
O 	O 	0.66690 0.87830 0.64740 -0.68700
O 	O 	0.69830 0.88130 0.55460 -0.44000
O 	O 	0.67840 0.96560 0.54970 -0.54900
O 	O 	0.70580 0.97010 0.47620 -0.47600
O 	O 	0.61350 0.86310 0.39840 -0.45500
O 	O 	0.57280 0.92800 0.41660 -0.38800
O 	O 	0.64270 0.97640 0.64110 -0.58600
O 	O 	0.62200 0.00940 0.70550 -0.56500
O 	O 	0.79030 0.94300 0.62750 -0.45100
O 	O 	0.85040 0.88350 0.66340 -0.45700
O 	O 	0.54640 0.92230 0.57460 -0.40600
O 	O 	0.48770 0.89030 0.63400 -0.39900
O 	O 	0.66360 0.80840 0.69770 -0.42600
O 	O 	0.55860 0.86180 0.72470 -0.36900
O 	O 	0.57650 0.83950 0.79770 -0.41700
O 	O 	0.68160 0.84270 0.89270 -0.68300
O 	O 	0.66480 0.81040 0.98320 -0.45000
O 	O 	0.79000 0.70360 0.95550 -0.45300
O 	O 	0.75330 0.66670 0.03930 -0.67500
O 	O 	0.76540 0.75770 0.03510 -0.45500
O 	O 	0.77670 0.76460 0.12820 -0.38500
O 	O 	0.78370 0.83950 0.12830 -0.24500
O 	O 	0.63070 0.88670 0.01410 -0.44800
O 	O 	0.60370 0.86310 0.08800 -0.23100
O 	O 	0.89250 0.70990 0.09790 -0.46700
O 	O 	0.93130 0.67790 0.03490 -0.41600
O 	O 	0.63820 0.71670 0.09140 -0.44300
O 	O 	0.58400 0.65770 0.06010 -0.43600
O 	O 	0.72670 0.62270 0.96210 -0.43100
O 	O 	0.78850 0.50780 0.94390 -0.43800
O 	O 	0.77190 0.44040 0.99900 -0.68000
O 	O 	0.74400 0.35630 0.96240 -0.43900
O 	O 	0.72060 0.43350 0.89900 -0.46400
O 	O 	0.60730 0.49380 0.89850 -0.41000
O 	O 	0.56010 0.48470 0.82170 -0.40800
O 	O 	0.68860 0.35930 0.85060 -0.45000
O 	O 	0.80120 0.31250 0.80840 -0.68900
O 	O 	0.83390 0.31610 0.90750 -0.44000
O 	O 	0.74770 0.32260 0.04860 -0.37800
O 	O 	0.72500 0.25800 0.01880 -0.33400
O 	O 	0.85180 0.23210 0.91500 -0.35400
O 	O 	0.85900 0.23120 0.99400 -0.36100
O 	O 	0.95200 0.26860 0.85450 -0.46300
O 	O 	0.97920 0.33050 0.82330 -0.46700
O 	O 	0.70510 0.25250 0.86050 -0.50800
O 	O 	0.63570 0.27960 0.79630 -0.54300
O 	O 	0.76410 0.38280 0.75830 -0.41900
O 	O 	0.80200 0.40590 0.63620 -0.43900
O 	O 	0.89860 0.33830 0.65100 -0.36500
O 	O 	0.89630 0.33730 0.72920 -0.39500
O 	O 	0.67770 0.34380 0.64170 -0.38700
O 	O 	0.68000 0.31530 0.71700 -0.35700
O 	O 	0.84560 0.39420 0.84850 -0.46800
O 	O 	0.87970 0.41490 0.93840 -0.43700
O 	O 	0.96890 0.48520 0.95650 -0.39000
O 	O 	0.06690 0.46330 0.92050 -0.35400
O 	O 	0.93910 0.41420 0.78450 -0.43400
O 	O 	0.98790 0.47450 0.82140 -0.40400
O 	O 	0.59280 0.36820 0.76880 -0.44400
O 	O 	0.49240 0.39710 0.80180 -0.33400
O 	O 	0.63360 0.39270 0.02490 -0.46500
O 	O 	0.59680 0.43330 0.96520 -0.47100
O 	O 	0.88270 0.37030 0.04290 -0.41700
O 	O 	0.94360 0.43580 0.03670 -0.43100
O 	O 	0.65990 0.51560 0.99830 -0.37800
O 	O 	0.65200 0.58450 0.02530 -0.39000
O 	O 	0.88070 0.52140 0.02660 -0.36600
O 	O 	0.86990 0.59280 0.02560 -0.34800
O 	O 	0.63110 0.70630 0.97700 -0.44700
O 	O 	0.65540 0.75110 0.90110 -0.45500
O 	O 	0.55320 0.74820 0.82180 -0.40600
O 	O 	0.52750 0.67860 0.82920 -0.31200
O 	O 	0.55080 0.63310 0.96330 -0.38000
O 	O 	0.89670 0.64650 0.94220 -0.44200
O 	O 	0.94900 0.67990 0.88450 -0.46100
O 	O 	0.81000 0.78670 0.93400 -0.44400
O 	O 	0.89050 0.80570 0.86710 -0.35900
O 	O 	0.00690 0.76580 0.89930 -0.39300
O 	O 	0.77640 0.88680 0.97910 -0.40500
O 	O 	0.84720 0.88140 0.91510 -0.39200
O 	O 	0.53570 0.86620 0.93600 -0.43400
O 	O 	0.50580 0.80950 0.88120 -0.43400
O 	O 	0.72440 0.79230 0.82860 -0.41700
O 	O 	0.77690 0.86980 0.74110 -0.39500
O 	O 	0.78600 0.87010 0.82170 -0.37200
O 	O 	0.57590 0.81700 0.59070 -0.41600
O 	O 	0.49290 0.79710 0.65860 -0.40700
O 	O 	0.41460 0.74750 0.61570 -0.39400
O 	O 	0.63630 0.75440 0.54620 -0.48000
O 	O 	0.56690 0.67750 0.53740 -0.36100
O 	O 	0.52810 0.67480 0.60960 -0.29100
O 	O 	0.84760 0.79860 0.69450 -0.38300
O 	O 	0.91070 0.74230 0.67000 -0.34500
O 	O 	0.78770 0.78970 0.53530 -0.44900
O 	O 	0.90080 0.72980 0.53040 -0.40400
O 	O 	0.98970 0.76430 0.58190 -0.26500
O 	O 	0.76980 0.83210 0.42710 -0.47400
O 	O 	0.85620 0.77480 0.44450 -0.43700
O 	O 	0.53350 0.78230 0.40340 -0.40300
O 	O 	0.51090 0.73310 0.46070 -0.39000
O 	O 	0.66470 0.78700 0.35580 -0.47400
O 	O 	0.69000 0.73540 0.30400 -0.55300
O 	O 	0.73730 0.68970 0.51620 -0.43600
O 	O 	0.84640 0.61540 0.45110 -0.40700
O 	O 	0.82990 0.68620 0.44720 -0.37200
O 	O 	0.66250 0.47560 0.47000 -0.43300
O 	O 	0.71020 0.43790 0.55060 -0.47100
O 	O 	0.62120 0.43210 0.61670 -0.40600
O 	O 	0.56950 0.49800 0.60760 -0.41100
O 	O 	0.55480 0.53930 0.46470 -0.49500
O 	O 	0.47610 0.50580 0.50990 -0.50700
O 	O 	0.90180 0.57010 0.53810 -0.42600
O 	O 	0.96050 0.54390 0.60840 -0.42300
O 	O 	0.87650 0.31950 0.49270 -0.39000
O 	O 	0.95170 0.33220 0.56520 -0.41900
O 	O 	0.63070 0.31330 0.50150 -0.40300
O 	O 	0.59500 0.36680 0.55090 -0.44200
Fe	Fe	0.69480 0.38756 0.59175 1.23000
Fe	Fe	0.87450 0.37646 0.59075 1.22400
Fe	Fe	0.75290 0.32339 0.50345 1.24800
Fe	Fe	0.76940 0.44140 0.49333 1.21100
Fe	Fe	0.83350 0.55379 0.47645 1.23400
Fe	Fe	0.65970 0.53553 0.43742 1.22100
Fe	Fe	0.79980 0.48765 0.37788 1.24100
Fe	Fe	0.62420 0.71410 0.49055 1.22500
Fe	Fe	0.79530 0.74095 0.48782 1.22000
Fe	Fe	0.65250 0.80390 0.42298 1.23100
Fe	Fe	0.67870 0.81553 0.55318 1.21100
Fe	Fe	0.75880 0.84270 0.67639 1.23300
Fe	Fe	0.57690 0.84460 0.65614 1.23000
Fe	Fe	0.67070 0.92475 0.60355 1.24400
Fe	Fe	0.61480 0.79979 0.85504 1.22200
Fe	Fe	0.78680 0.83033 0.88051 1.23300
Fe	Fe	0.71770 0.75436 0.96594 1.22000
Fe	Fe	0.82790 0.65197 0.99488 1.22900
Fe	Fe	0.65270 0.64848 0.00650 1.23600
Fe	Fe	0.86940 0.46466 0.98414 1.22600
Fe	Fe	0.69070 0.46963 0.95196 1.22900
Fe	Fe	0.75740 0.38627 0.02712 1.24900
Fe	Fe	0.78510 0.37759 0.90227 1.21700
Fe	Fe	0.69770 0.33477 0.78652 1.23500
Fe	Fe	0.87180 0.35971 0.79265 1.22500
Fe	Fe	0.82650 0.26949 0.85585 1.24500
O 	O 	0.35800 0.59790 0.85780 -0.39500
Ba	Ba	0.40552 0.51639 0.59079 1.25100
Ba	Ba	0.26032 0.72704 0.63477 1.26400
Ba	Ba	0.74640 0.67075 0.25284 1.50700
Ba	Ba	0.07770 0.61916 0.90633 0.56700
Ba	Ba	0.41110 0.52611 0.83770 1.80100
Ba	Ba	0.39250 0.36290 0.71190 0.76100
Ba	Ba	0.60230 0.02913 0.79190 1.17500
Ba	Ba	0.79730 0.52532 0.21024 1.45400
O 	O 	0.38100 0.45840 0.75910 -0.48300
O 	O 	0.30200 0.69720 0.54540 -0.36700
O 	O 	0.33300 0.37040 0.80700 -0.34500
O 	O 	0.47300 0.54840 0.92070 -0.38100
O 	O 	0.09680 0.65100 0.00250 -0.23600
O 	O 	0.50960 0.29480 0.69480 -0.30400
Ba	Ba	0.85820 0.16266 0.50712 1.25000
O 	O 	0.87080 0.23120 0.44440 -0.39000
O 	O 	0.22200 0.33200 0.72010 -0.40000
O 	O 	0.75000 0.75880 0.21790 -0.36000
O 	O 	0.71400 0.44580 0.24360 -0.38100
Ba	Ba	0.88900 0.37420 0.19770 0.78900
O 	O 	0.86210 0.29840 0.23910 -0.52200
O 	O 	0.03210 0.30970 0.21780 -0.24100
O 	O 	0.85670 0.30020 0.12540 -0.26100
O 	O 	0.72300 0.12930 0.54720 -0.43800
O 	O 	0.29310 0.57860 0.33880 -0.44200
O 	O 	0.33400 0.73280 0.89340 -0.17000
Ba	Ba	0.22820 0.41450 0.73263 0.70300
Ba	Ba	0.39110 0.29857 0.75430 1.21000
Ba	Ba	0.06990 0.53300 0.68560 0.25400
Ba	Ba	0.20930 0.87210 0.80600 0.31200
O 	O 	0.17000 0.57880 0.04290 -0.21200
O 	O 	0.19500 0.59390 0.00600 -0.27800
O 	O 	0.40400 0.61470 0.82470 -0.28600
Ba	Ba	0.20970 0.73070 0.82230 1.57600
Ba	Ba	0.22070 0.74500 0.86820 -1.00900
Ba	Ba	0.16890 0.89020 0.75810 0.50300
Ba	Ba	0.31290 0.50890 0.88870 -0.36200
Ba	Ba	0.05630 0.72890 0.82140 0.25200
Ba	Ba	0.12670 0.70390 0.91560 1.22200
Ba	Ba	0.66750 0.97750 0.02170 1.19700
Ba	Ba	0.10150 0.45160 0.75910 0.57200
Ba	Ba	0.98690 0.59540 0.70150 0.54500
Ba	Ba	0.68910 0.03600 0.95370 0.70700
Ba	Ba	0.78200 0.16040 0.66000 1.59900
Ba	Ba	0.36550 0.55320 0.43390 1.65000
O 	O 	0.68490 0.13110 0.60360 -0.51300
