data_crystal

_cell_length_a 15.89560
_cell_length_b 15.89560
_cell_length_c 7.60280
_cell_angle_alpha 90.00000
_cell_angle_beta  90.00000
_cell_angle_gamma 120.00000

_symmetry_space_group_name_	'P 1'
_symmetry_space_group_name_H-M	'P 1'

loop_
_symmetry_equiv_pos_as_xyz
  x,y,z

loop_
_atom_site_label
_atom_site_type_symbol
_atom_site_fract_x
_atom_site_fract_y
_atom_site_fract_z
_atom_site_charge
Gd	Gd	0.37021 0.18511 0.25515 1.49100
N 	N 	0.50120 0.15240 0.40140 -0.17200
C 	C 	0.59340 0.18660 0.35070 0.13600
H 	H 	0.61950 0.23880 0.27300 -0.00100
N 	N 	0.65130 0.15240 0.40170 -0.17200
C 	C 	0.61240 0.07600 0.51140 -0.01200
C 	C 	0.51790 0.03540 0.57080 -0.01500
H 	H 	0.49160 0.98280 0.64760 0.07600
C 	C 	0.46360 0.07640 0.51080 -0.01200
C 	C 	0.35700 0.03340 0.55810 0.40700
O 	O 	0.31327 0.07236 0.49250 -0.41200
O 	O 	0.32137 0.96014 0.65560 -0.40500
C 	C 	0.67630 0.03280 0.55760 0.41000
O 	O 	0.75941 0.07272 0.49230 -0.41300
O 	O 	0.63888 0.96054 0.65540 -0.40800
O 	O 	0.37450 0.18700 0.92360 -0.18700
N 	N 	0.46570 0.23300 0.91350 0.10600
O 	O 	0.51105 0.25530 0.06180 -0.29400
O 	O 	0.50830 0.25400 0.77410 -0.08400
Gd	Gd	0.81489 0.18510 0.25515 1.49100
N 	N 	0.84760 0.34880 0.40140 -0.17200
C 	C 	0.81340 0.40680 0.35070 0.13600
H 	H 	0.76120 0.38070 0.27300 -0.00100
N 	N 	0.84760 0.49890 0.40170 -0.17200
C 	C 	0.92400 0.53640 0.51140 -0.01200
C 	C 	0.96460 0.48250 0.57080 -0.01500
H 	H 	0.01720 0.50880 0.64760 0.07600
C 	C 	0.92360 0.38720 0.51080 -0.01200
C 	C 	0.96660 0.32360 0.55810 0.40700
O 	O 	0.92764 0.24091 0.49250 -0.41200
O 	O 	0.03986 0.36123 0.65560 -0.40600
C 	C 	0.96720 0.64350 0.55760 0.41000
O 	O 	0.92728 0.68669 0.49230 -0.41300
O 	O 	0.03946 0.67834 0.65540 -0.40800
O 	O 	0.81300 0.18750 0.92360 -0.18800
N 	N 	0.76700 0.23270 0.91350 0.10500
O 	O 	0.74470 0.25575 0.06180 -0.29400
O 	O 	0.74600 0.25430 0.77410 -0.08400
Gd	Gd	0.81490 0.62979 0.25515 1.49000
N 	N 	0.65120 0.49880 0.40140 -0.17200
C 	C 	0.59320 0.40660 0.35070 0.13600
H 	H 	0.61930 0.38050 0.27300 -0.00100
N 	N 	0.50110 0.34870 0.40170 -0.17200
C 	C 	0.46360 0.38760 0.51140 -0.01400
C 	C 	0.51750 0.48210 0.57080 -0.00900
H 	H 	0.49120 0.50840 0.64760 0.07300
C 	C 	0.61280 0.53640 0.51080 -0.01500
C 	C 	0.67640 0.64300 0.55810 0.41000
O 	O 	0.75909 0.68673 0.49250 -0.41300
O 	O 	0.63877 0.67863 0.65560 -0.40800
C 	C 	0.35650 0.32370 0.55760 0.41300
O 	O 	0.31331 0.24059 0.49230 -0.41400
O 	O 	0.32166 0.36112 0.65540 -0.41000
O 	O 	0.81250 0.62550 0.92360 -0.18700
N 	N 	0.76730 0.53430 0.91350 0.10600
O 	O 	0.74425 0.48895 0.06180 -0.29400
O 	O 	0.74570 0.49170 0.77410 -0.08400
Gd	Gd	0.62979 0.81489 0.75515 1.57300
N 	N 	0.49880 0.84760 0.90140 -0.12200
C 	C 	0.40660 0.81340 0.85070 0.15200
H 	H 	0.38050 0.76120 0.77300 -0.00200
N 	N 	0.34870 0.84760 0.90170 -0.12200
C 	C 	0.38760 0.92400 0.01140 -0.10100
C 	C 	0.48210 0.96460 0.07080 0.02500
H 	H 	0.50840 0.01720 0.14760 0.04600
C 	C 	0.53640 0.92360 0.01080 -0.10100
C 	C 	0.64300 0.96660 0.05810 0.30400
O 	O 	0.68673 0.92764 0.99250 -0.31900
O 	O 	0.67863 0.03986 0.15560 -0.40600
C 	C 	0.32370 0.96720 0.05760 0.30700
O 	O 	0.24059 0.92728 0.99230 -0.31900
O 	O 	0.36112 0.03946 0.15540 -0.40700
O 	O 	0.62550 0.81300 0.42360 -0.24500
N 	N 	0.53430 0.76700 0.41350 0.06500
O 	O 	0.48895 0.74470 0.56180 -0.24000
O 	O 	0.49170 0.74600 0.27410 -0.12500
Gd	Gd	0.18511 0.81490 0.75515 1.57400
N 	N 	0.15240 0.65120 0.90140 -0.12200
C 	C 	0.18660 0.59320 0.85070 0.15200
H 	H 	0.23880 0.61930 0.77300 -0.00200
N 	N 	0.15240 0.50110 0.90170 -0.12200
C 	C 	0.07600 0.46360 0.01140 -0.10100
C 	C 	0.03540 0.51750 0.07080 0.02500
H 	H 	0.98280 0.49120 0.14760 0.04600
C 	C 	0.07640 0.61280 0.01080 -0.10100
C 	C 	0.03340 0.67640 0.05810 0.30400
O 	O 	0.07236 0.75909 0.99250 -0.31800
O 	O 	0.96014 0.63877 0.15560 -0.40600
C 	C 	0.03280 0.35650 0.05760 0.30700
O 	O 	0.07272 0.31331 0.99230 -0.32000
O 	O 	0.96054 0.32166 0.15540 -0.40700
O 	O 	0.18700 0.81250 0.42360 -0.24400
N 	N 	0.23300 0.76730 0.41350 0.06500
O 	O 	0.25530 0.74425 0.56180 -0.24000
O 	O 	0.25400 0.74570 0.27410 -0.12500
Gd	Gd	0.18510 0.37021 0.75515 1.57300
N 	N 	0.34880 0.50120 0.90140 -0.12200
C 	C 	0.40680 0.59340 0.85070 0.15300
H 	H 	0.38070 0.61950 0.77300 -0.00200
N 	N 	0.49890 0.65130 0.90170 -0.12200
C 	C 	0.53640 0.61240 0.01140 -0.10000
C 	C 	0.48250 0.51790 0.07080 0.02300
H 	H 	0.50880 0.49160 0.14760 0.04600
C 	C 	0.38720 0.46360 0.01080 -0.10000
C 	C 	0.32360 0.35700 0.05810 0.30300
O 	O 	0.24091 0.31327 0.99250 -0.31900
O 	O 	0.36123 0.32137 0.15560 -0.40500
C 	C 	0.64350 0.67630 0.05760 0.30600
O 	O 	0.68669 0.75941 0.99230 -0.32000
O 	O 	0.67834 0.63888 0.15540 -0.40700
O 	O 	0.18750 0.37450 0.42360 -0.24500
N 	N 	0.23270 0.46570 0.41350 0.06500
O 	O 	0.25575 0.51105 0.56180 -0.24000
O 	O 	0.25430 0.50830 0.27410 -0.12500
