data_crystal

_cell_length_a 13.22050
_cell_length_b 13.99730
_cell_length_c 14.90000
_cell_angle_alpha 99.68000
_cell_angle_beta  91.00900
_cell_angle_gamma 117.10300

_symmetry_space_group_name_	'P 1'
_symmetry_space_group_name_H-M	'P 1'

loop_
_symmetry_equiv_pos_as_xyz
  x,y,z

loop_
_atom_site_label
_atom_site_type_symbol
_atom_site_fract_x
_atom_site_fract_y
_atom_site_fract_z
_atom_site_charge
Eu	Eu	0.48974 0.85323 0.45963 1.80500
Eu	Eu	0.15523 0.14805 0.03869 1.80000
C 	C 	0.64280 0.07650 0.36670 0.42300
C 	C 	0.74100 0.12930 0.31200 -0.08400
C 	C 	0.81130 0.24370 0.33450 -0.09400
H 	H 	0.79410 0.28650 0.38010 0.09100
C 	C 	0.90490 0.29110 0.28880 0.14600
C 	C 	0.93110 0.22800 0.21900 -0.06700
H 	H 	0.99640 0.26040 0.18980 0.05800
C 	C 	0.85840 0.11710 0.19430 -0.10000
C 	C 	0.76310 0.06720 0.24140 0.02000
H 	H 	0.71500 0.99220 0.22490 0.04100
C 	C 	0.87810 0.04790 0.11470 0.42600
C 	C 	0.94780 0.47080 0.36770 0.00800
H 	H 	0.94690 0.45330 0.42810 0.04200
H 	H 	0.87220 0.45950 0.34810 0.06500
C 	C 	0.03440 0.58740 0.37070 -0.01100
H 	H 	0.02890 0.63460 0.42390 0.04500
H 	H 	0.11090 0.59450 0.37440 0.06400
C 	C 	0.07560 0.72620 0.28210 0.15500
C 	C 	0.03910 0.76200 0.21230 -0.10100
H 	H 	0.97430 0.71300 0.17250 0.10900
C 	C 	0.09810 0.86970 0.20120 -0.08200
C 	C 	0.19440 0.94470 0.26310 0.01600
H 	H 	0.23340 0.01770 0.25770 0.02900
C 	C 	0.23000 0.90810 0.33190 -0.08500
C 	C 	0.17300 0.79920 0.34180 -0.09700
H 	H 	0.19950 0.77570 0.38740 0.06000
C 	C 	0.33020 0.98820 0.39990 0.37300
C 	C 	0.05850 0.91030 0.12700 0.42900
N 	N 	0.34080 0.63960 0.50580 0.06800
N 	N 	0.26230 0.36240 0.98370 0.07100
O 	O 	0.44710 0.68710 0.52850 -0.26700
O 	O 	0.30510 0.68160 0.45220 -0.29600
O 	O 	0.27560 0.55760 0.53370 -0.12700
O 	O 	0.60900 0.97620 0.36890 -0.49600
O 	O 	0.60150 0.13540 0.40640 -0.45000
O 	O 	0.79970 0.95280 0.08420 -0.46500
O 	O 	0.97320 0.08930 0.08230 -0.53400
O 	O 	0.28990 0.28930 0.95470 -0.26800
O 	O 	0.19480 0.34410 0.04400 -0.28300
O 	O 	0.29960 0.44850 0.95470 -0.11100
O 	O 	0.97870 0.40250 0.30470 -0.19600
O 	O 	0.01130 0.61840 0.28780 -0.19500
O 	O 	0.95880 0.85040 0.08820 -0.43600
O 	O 	0.12790 0.00230 0.11160 -0.51300
O 	O 	0.38830 0.95350 0.44120 -0.56000
O 	O 	0.35320 0.08770 0.41880 -0.42500
Eu	Eu	0.51026 0.14677 0.54037 1.80400
Eu	Eu	0.84477 0.85195 0.96131 1.79900
C 	C 	0.35720 0.92350 0.63330 0.42300
C 	C 	0.25900 0.87070 0.68800 -0.08400
C 	C 	0.18870 0.75630 0.66550 -0.09400
H 	H 	0.20590 0.71350 0.61990 0.09100
C 	C 	0.09510 0.70890 0.71120 0.14600
C 	C 	0.06890 0.77200 0.78100 -0.06700
H 	H 	0.00360 0.73960 0.81020 0.05800
C 	C 	0.14160 0.88290 0.80570 -0.10000
C 	C 	0.23690 0.93280 0.75860 0.02000
H 	H 	0.28500 0.00780 0.77510 0.04100
C 	C 	0.12190 0.95210 0.88530 0.42600
C 	C 	0.05220 0.52920 0.63230 0.00800
H 	H 	0.05310 0.54670 0.57190 0.04200
H 	H 	0.12780 0.54050 0.65190 0.06500
C 	C 	0.96560 0.41260 0.62930 -0.01100
H 	H 	0.97110 0.36540 0.57610 0.04500
H 	H 	0.88910 0.40550 0.62560 0.06400
C 	C 	0.92440 0.27380 0.71790 0.15500
C 	C 	0.96090 0.23800 0.78770 -0.10100
H 	H 	0.02570 0.28700 0.82750 0.10900
C 	C 	0.90190 0.13030 0.79880 -0.08200
C 	C 	0.80560 0.05530 0.73690 0.01600
H 	H 	0.76660 0.98230 0.74230 0.02900
C 	C 	0.77000 0.09190 0.66810 -0.08500
C 	C 	0.82700 0.20080 0.65820 -0.09700
H 	H 	0.80050 0.22430 0.61260 0.06000
C 	C 	0.66980 0.01180 0.60010 0.37300
C 	C 	0.94150 0.08970 0.87300 0.42900
N 	N 	0.65920 0.36040 0.49420 0.06800
N 	N 	0.73770 0.63760 0.01630 0.07100
O 	O 	0.55290 0.31290 0.47150 -0.26700
O 	O 	0.69490 0.31840 0.54780 -0.29600
O 	O 	0.72440 0.44240 0.46630 -0.12700
O 	O 	0.39100 0.02380 0.63110 -0.49600
O 	O 	0.39850 0.86460 0.59360 -0.45000
O 	O 	0.20030 0.04720 0.91580 -0.46500
O 	O 	0.02680 0.91070 0.91770 -0.53400
O 	O 	0.71010 0.71070 0.04530 -0.26800
O 	O 	0.80520 0.65590 0.95600 -0.28300
O 	O 	0.70040 0.55150 0.04530 -0.11100
O 	O 	0.02130 0.59750 0.69530 -0.19600
O 	O 	0.98870 0.38160 0.71220 -0.19500
O 	O 	0.04120 0.14960 0.91180 -0.43600
O 	O 	0.87210 0.99770 0.88840 -0.51300
O 	O 	0.61170 0.04650 0.55880 -0.56000
O 	O 	0.64680 0.91230 0.58120 -0.42500
