data_crystal

_cell_length_a 13.00900
_cell_length_b 13.77010
_cell_length_c 15.04390
_cell_angle_alpha 99.51300
_cell_angle_beta  90.40200
_cell_angle_gamma 116.52200

_symmetry_space_group_name_	'P 1'
_symmetry_space_group_name_H-M	'P 1'

loop_
_symmetry_equiv_pos_as_xyz
  x,y,z

loop_
_atom_site_label
_atom_site_type_symbol
_atom_site_fract_x
_atom_site_fract_y
_atom_site_fract_z
_atom_site_charge
C 	C 	0.13670 0.07460 0.86700 0.43400
C 	C 	0.23760 0.12540 0.81010 -0.07600
C 	C 	0.30690 0.23970 0.82910 -0.09800
H 	H 	0.28980 0.28390 0.87410 0.09400
C 	C 	0.39970 0.28620 0.78120 0.15000
C 	C 	0.42090 0.22080 0.70880 -0.06700
H 	H 	0.48360 0.25330 0.67590 0.05800
C 	C 	0.34880 0.10760 0.68600 -0.10100
C 	C 	0.25660 0.06020 0.74050 0.01500
H 	H 	0.20920 0.98430 0.72850 0.04500
C 	C 	0.36430 0.03460 0.60860 0.42300
C 	C 	0.44930 0.46580 0.86220 0.00900
H 	H 	0.45090 0.44480 0.92040 0.04200
H 	H 	0.37290 0.45810 0.84760 0.06500
C 	C 	0.53820 0.58290 0.86570 -0.00800
H 	H 	0.53560 0.62970 0.92050 0.04500
H 	H 	0.61470 0.58740 0.86520 0.06300
C 	C 	0.57510 0.72710 0.78360 0.15400
C 	C 	0.54140 0.76680 0.71550 -0.08300
H 	H 	0.47780 0.71840 0.67500 0.10200
C 	C 	0.59980 0.87680 0.70620 -0.09000
C 	C 	0.69440 0.94950 0.76920 0.00900
H 	H 	0.73310 0.02400 0.76570 0.04400
C 	C 	0.73030 0.91030 0.83710 -0.08400
C 	C 	0.67300 0.79900 0.84280 -0.09300
H 	H 	0.69980 0.77240 0.88580 0.06000
C 	C 	0.82910 0.98670 0.90440 0.37100
C 	C 	0.56210 0.92200 0.63810 0.43200
N 	N 	0.84370 0.63610 0.00690 0.06900
N 	N 	0.27720 0.63660 0.51200 0.06500
O 	O 	0.95270 0.68280 0.02450 -0.25500
O 	O 	0.80400 0.67870 0.95730 -0.28400
O 	O 	0.78320 0.55440 0.03650 -0.12200
O 	O 	0.10370 0.97450 0.87120 -0.49100
O 	O 	0.09790 0.13610 0.90630 -0.44500
O 	O 	0.47480 0.39740 0.79490 -0.19800
O 	O 	0.51210 0.61840 0.78700 -0.19200
O 	O 	0.88680 0.95110 0.94260 -0.54400
O 	O 	0.85090 0.08870 0.92460 -0.40700
O 	O 	0.62980 0.01500 0.62450 -0.50100
O 	O 	0.46010 0.86230 0.59770 -0.43100
O 	O 	0.28590 0.93900 0.58300 -0.45500
O 	O 	0.45400 0.07320 0.56810 -0.54400
O 	O 	0.22060 0.69290 0.52180 -0.27700
O 	O 	0.36310 0.67140 0.46840 -0.24400
O 	O 	0.24020 0.54840 0.53750 -0.10600
Tb	Tb	0.99092 0.85127 0.96030 1.71100
Tb	Tb	0.35606 0.85596 0.46486 1.73600
C 	C 	0.86330 0.92540 0.13300 0.43400
C 	C 	0.76240 0.87460 0.18990 -0.07600
C 	C 	0.69310 0.76030 0.17090 -0.09800
H 	H 	0.71020 0.71610 0.12590 0.09400
C 	C 	0.60030 0.71380 0.21880 0.15000
C 	C 	0.57910 0.77920 0.29120 -0.06700
H 	H 	0.51640 0.74670 0.32410 0.05800
C 	C 	0.65120 0.89240 0.31400 -0.10100
C 	C 	0.74340 0.93980 0.25950 0.01500
H 	H 	0.79080 0.01570 0.27150 0.04500
C 	C 	0.63570 0.96540 0.39140 0.42300
C 	C 	0.55070 0.53420 0.13780 0.00900
H 	H 	0.54910 0.55520 0.07960 0.04200
H 	H 	0.62710 0.54190 0.15240 0.06500
C 	C 	0.46180 0.41710 0.13430 -0.00800
H 	H 	0.46440 0.37030 0.07950 0.04500
H 	H 	0.38530 0.41260 0.13480 0.06300
C 	C 	0.42490 0.27290 0.21640 0.15400
C 	C 	0.45860 0.23320 0.28450 -0.08300
H 	H 	0.52220 0.28160 0.32500 0.10200
C 	C 	0.40020 0.12320 0.29380 -0.09000
C 	C 	0.30560 0.05050 0.23080 0.00900
H 	H 	0.26690 0.97600 0.23430 0.04400
C 	C 	0.26970 0.08970 0.16290 -0.08400
C 	C 	0.32700 0.20100 0.15720 -0.09300
H 	H 	0.30020 0.22760 0.11420 0.06000
C 	C 	0.17090 0.01330 0.09560 0.37100
C 	C 	0.43790 0.07800 0.36190 0.43200
N 	N 	0.15630 0.36390 0.99310 0.06900
N 	N 	0.72280 0.36340 0.48800 0.06500
O 	O 	0.04730 0.31720 0.97550 -0.25500
O 	O 	0.19600 0.32130 0.04270 -0.28400
O 	O 	0.21680 0.44560 0.96350 -0.12200
O 	O 	0.89630 0.02550 0.12880 -0.49100
O 	O 	0.90210 0.86390 0.09370 -0.44500
O 	O 	0.52520 0.60260 0.20510 -0.19800
O 	O 	0.48790 0.38160 0.21300 -0.19200
O 	O 	0.11320 0.04890 0.05740 -0.54400
O 	O 	0.14910 0.91130 0.07540 -0.40700
O 	O 	0.37020 0.98500 0.37550 -0.50100
O 	O 	0.53990 0.13770 0.40230 -0.43100
O 	O 	0.71410 0.06100 0.41700 -0.45500
O 	O 	0.54600 0.92680 0.43190 -0.54400
O 	O 	0.77940 0.30710 0.47820 -0.27700
O 	O 	0.63690 0.32860 0.53160 -0.24400
O 	O 	0.75980 0.45160 0.46250 -0.10600
Tb	Tb	0.00908 0.14873 0.03970 1.71100
Tb	Tb	0.64394 0.14404 0.53514 1.73600
