data_crystal

_cell_length_a 19.16800
_cell_length_b 19.16800
_cell_length_c 67.69500
_cell_angle_alpha 90.00000
_cell_angle_beta  90.00000
_cell_angle_gamma 120.00000

_symmetry_space_group_name_	'P 1'
_symmetry_space_group_name_H-M	'P 1'

loop_
_symmetry_equiv_pos_as_xyz
  x,y,z

loop_
_atom_site_label
_atom_site_type_symbol
_atom_site_fract_x
_atom_site_fract_y
_atom_site_fract_z
_atom_site_charge
Zn	Zn	0.35649 0.58519 0.33171 1.21300
Zn	Zn	0.10308 0.08677 0.15076 1.21100
O 	O 	0.33760 0.57490 0.28323 -0.51100
O 	O 	0.38180 0.53690 0.30995 -0.51200
O 	O 	0.10340 0.08050 0.19820 -0.53200
O 	O 	0.18110 0.14360 0.17224 -0.51700
O 	O 	0.15300 0.04420 0.13365 -0.52500
O 	O 	0.07630 0.91030 0.13615 -0.52200
O 	O 	0.51690 0.21950 0.01581 -0.50900
O 	O 	0.60210 0.16980 0.01412 -0.50600
N 	N 	0.42250 0.32470 0.24347 -0.13200
N 	N 	0.35440 0.93830 0.08044 -0.13200
C 	C 	0.36630 0.53510 0.29190 0.38400
C 	C 	0.38020 0.47670 0.27933 -0.14700
C 	C 	0.42180 0.44050 0.28684 0.07800
H 	H 	0.44120 0.45100 0.30000 0.01500
C 	C 	0.43510 0.38890 0.27505 -0.16800
H 	H 	0.46360 0.36420 0.28020 0.08400
C 	C 	0.40680 0.37350 0.25573 0.14500
C 	C 	0.36510 0.40970 0.24821 -0.17600
H 	H 	0.34570 0.39920 0.23500 0.09100
C 	C 	0.35180 0.46130 0.26001 0.07300
H 	H 	0.32330 0.48600 0.25490 0.00500
C 	C 	0.49150 0.31290 0.24605 -0.24300
H 	H 	0.54140 0.36410 0.24400 0.09800
H 	H 	0.48840 0.27320 0.23640 0.10200
H 	H 	0.49100 0.29340 0.25950 0.09400
C 	C 	0.17000 0.12960 0.19015 0.44800
C 	C 	0.23700 0.18250 0.20342 -0.23000
C 	C 	0.31290 0.23050 0.19696 0.14700
H 	H 	0.32430 0.23010 0.18330 -0.00100
C 	C 	0.37500 0.28040 0.20964 -0.22300
H 	H 	0.42720 0.31660 0.20460 0.10600
C 	C 	0.35980 0.27650 0.22920 0.18100
C 	C 	0.28140 0.22810 0.23613 -0.23500
H 	H 	0.26830 0.22940 0.24960 0.11200
C 	C 	0.22550 0.17990 0.22317 0.16100
H 	H 	0.17420 0.14120 0.22820 -0.01000
C 	C 	0.13700 0.97280 0.12984 0.41400
C 	C 	0.19800 0.96540 0.11725 -0.16600
C 	C 	0.18020 0.88934 0.11083 0.09200
H 	H 	0.13170 0.84310 0.11490 0.01100
C 	C 	0.23340 0.88100 0.09844 -0.18400
H 	H 	0.22130 0.82910 0.09410 0.09400
C 	C 	0.30440 0.94870 0.09247 0.16900
C 	C 	0.32220 0.02470 0.09889 -0.19300
H 	H 	0.37070 0.07100 0.09480 0.09800
C 	C 	0.26890 0.03305 0.11128 0.08900
H 	H 	0.28110 0.08500 0.11570 0.01300
C 	C 	0.35170 0.86160 0.08040 -0.24600
H 	H 	0.31470 0.82700 0.09070 0.09900
H 	H 	0.40570 0.87010 0.08290 0.10300
H 	H 	0.33280 0.83580 0.06750 0.10200
C 	C 	0.54140 0.17060 0.02071 0.39600
C 	C 	0.49420 0.11230 0.03682 -0.16000
C 	C 	0.52240 0.06500 0.04524 0.09100
H 	H 	0.57270 0.07130 0.04120 0.01200
C 	C 	0.47710 0.00840 0.05957 -0.18600
H 	H 	0.49640 0.97600 0.06530 0.09700
C 	C 	0.40350 0.99910 0.06550 0.15100
C 	C 	0.37520 0.04640 0.05708 -0.18100
H 	H 	0.32490 0.04010 0.06110 0.09100
C 	C 	0.42060 0.10310 0.04274 0.08900
H 	H 	0.40130 0.13540 0.03700 0.01200
Zn	Zn	0.02316 0.91852 0.66504 1.21300
Zn	Zn	0.76975 0.42010 0.48409 1.21200
O 	O 	0.00427 0.90823 0.61656 -0.51200
O 	O 	0.04847 0.87023 0.64328 -0.51200
O 	O 	0.77007 0.41383 0.53153 -0.53000
O 	O 	0.84777 0.47693 0.50557 -0.51600
O 	O 	0.81967 0.37753 0.46698 -0.52000
O 	O 	0.74297 0.24363 0.46948 -0.52100
O 	O 	0.18357 0.55283 0.34914 -0.50900
O 	O 	0.26877 0.50313 0.34745 -0.50600
N 	N 	0.08917 0.65803 0.57680 -0.13000
N 	N 	0.02107 0.27163 0.41377 -0.12800
C 	C 	0.03297 0.86843 0.62523 0.38100
C 	C 	0.04687 0.81003 0.61266 -0.14000
C 	C 	0.08847 0.77383 0.62017 0.07200
H 	H 	0.10787 0.78433 0.63333 0.01700
C 	C 	0.10177 0.72223 0.60838 -0.16300
H 	H 	0.13027 0.69753 0.61353 0.08200
C 	C 	0.07347 0.70683 0.58906 0.13900
C 	C 	0.03177 0.74303 0.58154 -0.16600
H 	H 	0.01237 0.73253 0.56833 0.08600
C 	C 	0.01847 0.79463 0.59334 0.05500
H 	H 	0.98997 0.81933 0.58823 0.01600
C 	C 	0.15817 0.64623 0.57938 -0.24500
H 	H 	0.20807 0.69743 0.57733 0.09800
H 	H 	0.15507 0.60653 0.56973 0.10300
H 	H 	0.15767 0.62673 0.59283 0.09400
C 	C 	0.83667 0.46293 0.52348 0.44800
C 	C 	0.90367 0.51583 0.53675 -0.23000
C 	C 	0.97957 0.56383 0.53029 0.15600
H 	H 	0.99097 0.56343 0.51663 -0.00200
C 	C 	0.04167 0.61373 0.54297 -0.22900
H 	H 	0.09387 0.64993 0.53793 0.10800
C 	C 	0.02647 0.60983 0.56253 0.17600
C 	C 	0.94807 0.56143 0.56946 -0.22500
H 	H 	0.93497 0.56273 0.58293 0.11100
C 	C 	0.89217 0.51323 0.55650 0.15900
H 	H 	0.84087 0.47453 0.56153 -0.00800
C 	C 	0.80367 0.30613 0.46317 0.40800
C 	C 	0.86467 0.29873 0.45058 -0.16600
C 	C 	0.84687 0.22267 0.44416 0.08900
H 	H 	0.79837 0.17643 0.44823 0.01200
C 	C 	0.90007 0.21433 0.43177 -0.18000
H 	H 	0.88797 0.16243 0.42743 0.09300
C 	C 	0.97107 0.28203 0.42580 0.16100
C 	C 	0.98887 0.35803 0.43222 -0.17600
H 	H 	0.03737 0.40433 0.42813 0.09000
C 	C 	0.93557 0.36638 0.44461 0.08700
H 	H 	0.94777 0.41833 0.44903 0.01500
C 	C 	0.01837 0.19493 0.41373 -0.27600
H 	H 	0.98137 0.16033 0.42403 0.11000
H 	H 	0.07237 0.20343 0.41623 0.11000
H 	H 	0.99947 0.16913 0.40083 0.11400
C 	C 	0.20807 0.50393 0.35404 0.39400
C 	C 	0.16087 0.44563 0.37015 -0.15400
C 	C 	0.18907 0.39833 0.37857 0.08100
H 	H 	0.23937 0.40463 0.37453 0.01600
C 	C 	0.14377 0.34173 0.39290 -0.16700
H 	H 	0.16307 0.30933 0.39863 0.08800
C 	C 	0.07017 0.33243 0.39883 0.13700
C 	C 	0.04187 0.37973 0.39041 -0.17700
H 	H 	0.99157 0.37343 0.39443 0.09400
C 	C 	0.08727 0.43643 0.37607 0.08500
H 	H 	0.06797 0.46873 0.37033 0.01300
Zn	Zn	0.68982 0.25186 0.99837 1.21400
Zn	Zn	0.43641 0.75344 0.81742 1.21200
O 	O 	0.67093 0.24157 0.94990 -0.51200
O 	O 	0.71513 0.20357 0.97662 -0.51200
O 	O 	0.43673 0.74717 0.86487 -0.53000
O 	O 	0.51443 0.81027 0.83891 -0.51600
O 	O 	0.48633 0.71087 0.80032 -0.52000
O 	O 	0.40963 0.57697 0.80282 -0.52100
O 	O 	0.85023 0.88617 0.68248 -0.50700
O 	O 	0.93543 0.83647 0.68079 -0.50200
N 	N 	0.75583 0.99137 0.91014 -0.13100
N 	N 	0.68773 0.60497 0.74711 -0.12900
C 	C 	0.69963 0.20177 0.95857 0.38400
C 	C 	0.71353 0.14337 0.94600 -0.14700
C 	C 	0.75513 0.10717 0.95351 0.07700
H 	H 	0.77453 0.11767 0.96667 0.01600
C 	C 	0.76843 0.05557 0.94172 -0.16700
H 	H 	0.79693 0.03087 0.94687 0.08300
C 	C 	0.74013 0.04017 0.92240 0.14400
C 	C 	0.69843 0.07637 0.91488 -0.17500
H 	H 	0.67903 0.06587 0.90167 0.09000
C 	C 	0.68513 0.12797 0.92668 0.07300
H 	H 	0.65663 0.15267 0.92157 0.00600
C 	C 	0.82483 0.97957 0.91272 -0.24000
H 	H 	0.87473 0.03077 0.91067 0.09600
H 	H 	0.82173 0.93987 0.90307 0.10200
H 	H 	0.82433 0.96007 0.92617 0.09400
C 	C 	0.50333 0.79627 0.85682 0.44800
C 	C 	0.57033 0.84917 0.87009 -0.22900
C 	C 	0.64623 0.89717 0.86363 0.14700
H 	H 	0.65763 0.89677 0.84997 -0.00100
C 	C 	0.70833 0.94707 0.87631 -0.22300
H 	H 	0.76053 0.98327 0.87127 0.10600
C 	C 	0.69313 0.94317 0.89587 0.18100
C 	C 	0.61473 0.89477 0.90280 -0.23400
H 	H 	0.60163 0.89607 0.91627 0.11300
C 	C 	0.55883 0.84657 0.88984 0.16100
H 	H 	0.50753 0.80787 0.89487 -0.00900
C 	C 	0.47033 0.63947 0.79651 0.40900
C 	C 	0.53133 0.63207 0.78392 -0.16900
C 	C 	0.51353 0.55601 0.77750 0.09200
H 	H 	0.46503 0.50977 0.78157 0.01200
C 	C 	0.56673 0.54767 0.76511 -0.18200
H 	H 	0.55463 0.49577 0.76077 0.09400
C 	C 	0.63773 0.61537 0.75914 0.16300
C 	C 	0.65553 0.69137 0.76556 -0.18700
H 	H 	0.70403 0.73767 0.76147 0.09700
C 	C 	0.60223 0.69972 0.77795 0.09300
H 	H 	0.61443 0.75167 0.78237 0.01200
C 	C 	0.68503 0.52827 0.74707 -0.24800
H 	H 	0.64803 0.49367 0.75737 0.10000
H 	H 	0.73903 0.53677 0.74957 0.10300
H 	H 	0.66613 0.50247 0.73417 0.10300
C 	C 	0.87473 0.83727 0.68738 0.39300
C 	C 	0.82753 0.77897 0.70349 -0.15000
C 	C 	0.85573 0.73167 0.71191 0.07800
H 	H 	0.90603 0.73797 0.70787 0.01800
C 	C 	0.81043 0.67507 0.72624 -0.16400
H 	H 	0.82973 0.64267 0.73197 0.08800
C 	C 	0.73683 0.66577 0.73217 0.13400
C 	C 	0.70853 0.71307 0.72375 -0.16600
H 	H 	0.65823 0.70677 0.72777 0.08800
C 	C 	0.75393 0.76977 0.70941 0.07900
H 	H 	0.73463 0.80207 0.70367 0.01600
Zn	Zn	0.41481 0.77130 0.33171 1.21400
Zn	Zn	0.91323 0.01631 0.15076 1.21200
O 	O 	0.42510 0.76270 0.28323 -0.51100
O 	O 	0.46310 0.84490 0.30995 -0.51200
O 	O 	0.91950 0.02290 0.19820 -0.53100
O 	O 	0.85640 0.03750 0.17224 -0.51700
O 	O 	0.95580 0.10880 0.13365 -0.51900
O 	O 	0.08970 0.16600 0.13615 -0.52100
O 	O 	0.78050 0.29740 0.01581 -0.50800
O 	O 	0.83020 0.43230 0.01412 -0.50400
N 	N 	0.67530 0.09780 0.24347 -0.13100
N 	N 	0.06170 0.41610 0.08044 -0.12700
C 	C 	0.46490 0.83120 0.29190 0.38500
C 	C 	0.52330 0.90350 0.27933 -0.14900
C 	C 	0.55950 0.98130 0.28684 0.08800
H 	H 	0.54900 0.99020 0.30000 0.01400
C 	C 	0.61110 0.04620 0.27505 -0.17700
H 	H 	0.63580 0.09940 0.28020 0.08600
C 	C 	0.62650 0.03330 0.25573 0.14100
C 	C 	0.59030 0.95540 0.24821 -0.16800
H 	H 	0.60080 0.94650 0.23500 0.09000
C 	C 	0.53870 0.89050 0.26001 0.07200
H 	H 	0.51400 0.83730 0.25490 0.00600
C 	C 	0.68710 0.17860 0.24605 -0.24400
H 	H 	0.63590 0.17730 0.24400 0.09700
H 	H 	0.72680 0.21520 0.23640 0.10300
H 	H 	0.70660 0.19760 0.25950 0.09400
C 	C 	0.87040 0.04040 0.19015 0.44700
C 	C 	0.81750 0.05450 0.20342 -0.22900
C 	C 	0.76950 0.08240 0.19696 0.14600
H 	H 	0.76990 0.09420 0.18330 -0.00100
C 	C 	0.71960 0.09460 0.20964 -0.22200
H 	H 	0.68340 0.11060 0.20460 0.10500
C 	C 	0.72350 0.08330 0.22920 0.18000
C 	C 	0.77190 0.05330 0.23613 -0.23400
H 	H 	0.77060 0.03890 0.24960 0.11100
C 	C 	0.82010 0.04560 0.22317 0.16000
H 	H 	0.85880 0.03300 0.22820 -0.01000
C 	C 	0.02720 0.16420 0.12984 0.40700
C 	C 	0.03460 0.23260 0.11725 -0.17100
C 	C 	0.11066 0.29086 0.11083 0.09100
H 	H 	0.15690 0.28860 0.11490 0.01200
C 	C 	0.11900 0.35240 0.09844 -0.18100
H 	H 	0.17090 0.39220 0.09410 0.09300
C 	C 	0.05130 0.35570 0.09247 0.15900
C 	C 	0.97530 0.29750 0.09889 -0.18400
H 	H 	0.92900 0.29970 0.09480 0.09600
C 	C 	0.96695 0.23585 0.11128 0.09400
H 	H 	0.91500 0.19610 0.11570 0.01200
C 	C 	0.13840 0.49010 0.08040 -0.24900
H 	H 	0.17300 0.48770 0.09070 0.10000
H 	H 	0.12990 0.53560 0.08290 0.10300
H 	H 	0.16420 0.49700 0.06750 0.10300
C 	C 	0.82940 0.37080 0.02071 0.39100
C 	C 	0.88770 0.38190 0.03682 -0.14600
C 	C 	0.93500 0.45740 0.04524 0.07100
H 	H 	0.92870 0.50140 0.04120 0.02000
C 	C 	0.99160 0.46870 0.05957 -0.15200
H 	H 	0.02400 0.52040 0.06530 0.08200
C 	C 	0.00090 0.40440 0.06550 0.12400
C 	C 	0.95360 0.32880 0.05708 -0.15800
H 	H 	0.95990 0.28480 0.06110 0.08500
C 	C 	0.89690 0.31750 0.04274 0.07300
H 	H 	0.86460 0.26590 0.03700 0.01800
Zn	Zn	0.08148 0.10463 0.66504 1.21300
Zn	Zn	0.57990 0.34964 0.48409 1.21200
O 	O 	0.09177 0.09603 0.61656 -0.51400
O 	O 	0.12977 0.17823 0.64328 -0.51300
O 	O 	0.58617 0.35623 0.53153 -0.53000
O 	O 	0.52307 0.37083 0.50557 -0.51600
O 	O 	0.62247 0.44213 0.46698 -0.52000
O 	O 	0.75637 0.49933 0.46948 -0.52000
O 	O 	0.44717 0.63073 0.34914 -0.50900
O 	O 	0.49687 0.76563 0.34745 -0.50500
N 	N 	0.34197 0.43113 0.57680 -0.13200
N 	N 	0.72837 0.74943 0.41377 -0.12900
C 	C 	0.13157 0.16453 0.62523 0.38400
C 	C 	0.18997 0.23683 0.61266 -0.14800
C 	C 	0.22617 0.31463 0.62017 0.07800
H 	H 	0.21567 0.32353 0.63333 0.01500
C 	C 	0.27777 0.37953 0.60838 -0.16800
H 	H 	0.30247 0.43273 0.61353 0.08400
C 	C 	0.29317 0.36663 0.58906 0.14600
C 	C 	0.25697 0.28873 0.58154 -0.17600
H 	H 	0.26747 0.27983 0.56833 0.09000
C 	C 	0.20537 0.22383 0.59334 0.07400
H 	H 	0.18067 0.17063 0.58823 0.00400
C 	C 	0.35377 0.51193 0.57938 -0.24400
H 	H 	0.30257 0.51063 0.57733 0.09800
H 	H 	0.39347 0.54853 0.56973 0.10200
H 	H 	0.37327 0.53093 0.59283 0.09400
C 	C 	0.53707 0.37373 0.52348 0.44700
C 	C 	0.48417 0.38783 0.53675 -0.22900
C 	C 	0.43617 0.41573 0.53029 0.14700
H 	H 	0.43657 0.42753 0.51663 -0.00100
C 	C 	0.38627 0.42793 0.54297 -0.22200
H 	H 	0.35007 0.44393 0.53793 0.10600
C 	C 	0.39017 0.41663 0.56253 0.18100
C 	C 	0.43857 0.38663 0.56946 -0.23400
H 	H 	0.43727 0.37223 0.58293 0.11200
C 	C 	0.48677 0.37893 0.55650 0.16000
H 	H 	0.52547 0.36633 0.56153 -0.00900
C 	C 	0.69387 0.49753 0.46317 0.40900
C 	C 	0.70127 0.56593 0.45058 -0.16900
C 	C 	0.77733 0.62419 0.44416 0.09200
H 	H 	0.82357 0.62193 0.44823 0.01200
C 	C 	0.78567 0.68573 0.43177 -0.18200
H 	H 	0.83757 0.72553 0.42743 0.09400
C 	C 	0.71797 0.68903 0.42580 0.16300
C 	C 	0.64197 0.63083 0.43222 -0.18700
H 	H 	0.59567 0.63303 0.42813 0.09700
C 	C 	0.63362 0.56918 0.44461 0.09300
H 	H 	0.58167 0.52943 0.44903 0.01200
C 	C 	0.80507 0.82343 0.41373 -0.25000
H 	H 	0.83967 0.82103 0.42403 0.10100
H 	H 	0.79657 0.86893 0.41623 0.10500
H 	H 	0.83087 0.83033 0.40083 0.10400
C 	C 	0.49607 0.70413 0.35404 0.39300
C 	C 	0.55437 0.71523 0.37015 -0.15100
C 	C 	0.60167 0.79073 0.37857 0.07900
H 	H 	0.59537 0.83473 0.37453 0.01800
C 	C 	0.65827 0.80203 0.39290 -0.16500
H 	H 	0.69067 0.85373 0.39863 0.08900
C 	C 	0.66757 0.73773 0.39883 0.13500
C 	C 	0.62027 0.66213 0.39041 -0.16700
H 	H 	0.62657 0.61813 0.39443 0.08800
C 	C 	0.56357 0.65083 0.37607 0.07900
H 	H 	0.53127 0.59923 0.37033 0.01600
Zn	Zn	0.74814 0.43797 0.99837 1.21400
Zn	Zn	0.24656 0.68298 0.81742 1.21200
O 	O 	0.75843 0.42937 0.94990 -0.51200
O 	O 	0.79643 0.51157 0.97662 -0.51200
O 	O 	0.25283 0.68957 0.86487 -0.53000
O 	O 	0.18973 0.70417 0.83891 -0.51600
O 	O 	0.28913 0.77547 0.80032 -0.52000
O 	O 	0.42303 0.83267 0.80282 -0.52100
O 	O 	0.11383 0.96407 0.68248 -0.50700
O 	O 	0.16353 0.09897 0.68079 -0.50500
N 	N 	0.00863 0.76447 0.91014 -0.13200
N 	N 	0.39503 0.08277 0.74711 -0.12800
C 	C 	0.79823 0.49787 0.95857 0.38400
C 	C 	0.85663 0.57017 0.94600 -0.14800
C 	C 	0.89283 0.64797 0.95351 0.08000
H 	H 	0.88233 0.65687 0.96667 0.01500
C 	C 	0.94443 0.71287 0.94172 -0.17000
H 	H 	0.96913 0.76607 0.94687 0.08600
C 	C 	0.95983 0.69997 0.92240 0.15000
C 	C 	0.92363 0.62207 0.91488 -0.17700
H 	H 	0.93413 0.61317 0.90167 0.09300
C 	C 	0.87203 0.55717 0.92668 0.07500
H 	H 	0.84733 0.50397 0.92157 0.00500
C 	C 	0.02043 0.84527 0.91272 -0.25500
H 	H 	0.96923 0.84397 0.91067 0.10300
H 	H 	0.06013 0.88187 0.90307 0.10500
H 	H 	0.03993 0.86427 0.92617 0.09600
C 	C 	0.20373 0.70707 0.85682 0.44700
C 	C 	0.15083 0.72117 0.87009 -0.22900
C 	C 	0.10283 0.74907 0.86363 0.14600
H 	H 	0.10323 0.76087 0.84997 -0.00100
C 	C 	0.05293 0.76127 0.87631 -0.22200
H 	H 	0.01673 0.77727 0.87127 0.10400
C 	C 	0.05683 0.74997 0.89587 0.17900
C 	C 	0.10523 0.71997 0.90280 -0.23400
H 	H 	0.10393 0.70557 0.91627 0.11100
C 	C 	0.15343 0.71227 0.88984 0.16000
H 	H 	0.19213 0.69967 0.89487 -0.00900
C 	C 	0.36053 0.83087 0.79651 0.40900
C 	C 	0.36793 0.89927 0.78392 -0.16900
C 	C 	0.44399 0.95753 0.77750 0.09400
H 	H 	0.49023 0.95527 0.78157 0.01100
C 	C 	0.45233 0.01907 0.76511 -0.18400
H 	H 	0.50423 0.05887 0.76077 0.09400
C 	C 	0.38463 0.02237 0.75914 0.16000
C 	C 	0.30863 0.96417 0.76556 -0.18400
H 	H 	0.26233 0.96637 0.76147 0.09700
C 	C 	0.30028 0.90252 0.77795 0.09200
H 	H 	0.24833 0.86277 0.78237 0.01200
C 	C 	0.47173 0.15677 0.74707 -0.24800
H 	H 	0.50633 0.15437 0.75737 0.10000
H 	H 	0.46323 0.20227 0.74957 0.10300
H 	H 	0.49753 0.16367 0.73417 0.10300
C 	C 	0.16273 0.03747 0.68738 0.39000
C 	C 	0.22103 0.04857 0.70349 -0.15400
C 	C 	0.26833 0.12407 0.71191 0.07900
H 	H 	0.26203 0.16807 0.70787 0.01700
C 	C 	0.32493 0.13537 0.72624 -0.16400
H 	H 	0.35733 0.18707 0.73197 0.08800
C 	C 	0.33423 0.07107 0.73217 0.13100
C 	C 	0.28693 0.99547 0.72375 -0.16400
H 	H 	0.29323 0.95147 0.72777 0.08700
C 	C 	0.23023 0.98417 0.70941 0.08200
H 	H 	0.19793 0.93257 0.70367 0.01500
Zn	Zn	0.22870 0.64351 0.33171 1.21400
Zn	Zn	0.98369 0.89692 0.15076 1.21300
O 	O 	0.23730 0.66240 0.28323 -0.51100
O 	O 	0.15510 0.61820 0.30995 -0.51200
O 	O 	0.97710 0.89660 0.19820 -0.52700
O 	O 	0.96250 0.81890 0.17224 -0.51500
O 	O 	0.89120 0.84700 0.13365 -0.51900
O 	O 	0.83400 0.92370 0.13615 -0.51800
O 	O 	0.70260 0.48310 0.01581 -0.50900
O 	O 	0.56770 0.39790 0.01412 -0.50500
N 	N 	0.90220 0.57750 0.24347 -0.13200
N 	N 	0.58390 0.64560 0.08044 -0.12900
C 	C 	0.16880 0.63370 0.29190 0.38300
C 	C 	0.09650 0.61980 0.27933 -0.14700
C 	C 	0.01870 0.57820 0.28684 0.07400
H 	H 	0.00980 0.55880 0.30000 0.01600
C 	C 	0.95380 0.56490 0.27505 -0.16500
H 	H 	0.90060 0.53640 0.28020 0.08300
C 	C 	0.96670 0.59320 0.25573 0.14700
C 	C 	0.04460 0.63490 0.24821 -0.17800
H 	H 	0.05350 0.65430 0.23500 0.09100
C 	C 	0.10950 0.64820 0.26001 0.07300
H 	H 	0.16270 0.67670 0.25490 0.00500
C 	C 	0.82140 0.50850 0.24605 -0.24400
H 	H 	0.82270 0.45860 0.24400 0.09800
H 	H 	0.78480 0.51160 0.23640 0.10200
H 	H 	0.80240 0.50900 0.25950 0.09400
C 	C 	0.95960 0.83000 0.19015 0.44700
C 	C 	0.94550 0.76300 0.20342 -0.22800
C 	C 	0.91760 0.68710 0.19696 0.14600
H 	H 	0.90580 0.67570 0.18330 -0.00100
C 	C 	0.90540 0.62500 0.20964 -0.22200
H 	H 	0.88940 0.57280 0.20460 0.10600
C 	C 	0.91670 0.64020 0.22920 0.18100
C 	C 	0.94670 0.71860 0.23613 -0.23300
H 	H 	0.96110 0.73170 0.24960 0.11300
C 	C 	0.95440 0.77450 0.22317 0.16000
H 	H 	0.96700 0.82580 0.22820 -0.00800
C 	C 	0.83580 0.86300 0.12984 0.40800
C 	C 	0.76740 0.80200 0.11725 -0.16800
C 	C 	0.70914 0.81980 0.11083 0.09100
H 	H 	0.71140 0.86830 0.11490 0.01300
C 	C 	0.64760 0.76660 0.09844 -0.18100
H 	H 	0.60780 0.77870 0.09410 0.09400
C 	C 	0.64430 0.69560 0.09247 0.16200
C 	C 	0.70250 0.67780 0.09889 -0.18700
H 	H 	0.70030 0.62930 0.09480 0.09700
C 	C 	0.76415 0.73110 0.11128 0.09200
H 	H 	0.80390 0.71890 0.11570 0.01200
C 	C 	0.50990 0.64830 0.08040 -0.24800
H 	H 	0.51230 0.68530 0.09070 0.10000
H 	H 	0.46440 0.59430 0.08290 0.10300
H 	H 	0.50300 0.66720 0.06750 0.10300
C 	C 	0.62920 0.45860 0.02071 0.39300
C 	C 	0.61810 0.50580 0.03682 -0.15100
C 	C 	0.54260 0.47760 0.04524 0.07900
H 	H 	0.49860 0.42730 0.04120 0.01700
C 	C 	0.53130 0.52290 0.05957 -0.16500
H 	H 	0.47960 0.50360 0.06530 0.08800
C 	C 	0.59560 0.59650 0.06550 0.13400
C 	C 	0.67120 0.62480 0.05708 -0.16700
H 	H 	0.71520 0.67510 0.06110 0.08800
C 	C 	0.68250 0.57940 0.04274 0.07900
H 	H 	0.73410 0.59870 0.03700 0.01600
Zn	Zn	0.89537 0.97684 0.66504 1.21600
Zn	Zn	0.65036 0.23025 0.48409 1.21200
O 	O 	0.90397 0.99573 0.61656 -0.50600
O 	O 	0.82177 0.95153 0.64328 -0.51100
O 	O 	0.64377 0.22993 0.53153 -0.53000
O 	O 	0.62917 0.15223 0.50557 -0.51700
O 	O 	0.55787 0.18033 0.46698 -0.52100
O 	O 	0.50067 0.25703 0.46948 -0.52100
O 	O 	0.36927 0.81643 0.34914 -0.50800
O 	O 	0.23437 0.73123 0.34745 -0.50500
N 	N 	0.56887 0.91083 0.57680 -0.13200
N 	N 	0.25057 0.97893 0.41377 -0.13100
C 	C 	0.83547 0.96703 0.62523 0.38500
C 	C 	0.76317 0.95313 0.61266 -0.15100
C 	C 	0.68537 0.91153 0.62017 0.08100
H 	H 	0.67647 0.89213 0.63333 0.01500
C 	C 	0.62047 0.89823 0.60838 -0.17000
H 	H 	0.56727 0.86973 0.61353 0.08500
C 	C 	0.63337 0.92653 0.58906 0.14900
C 	C 	0.71127 0.96823 0.58154 -0.18100
H 	H 	0.72017 0.98763 0.56833 0.09400
C 	C 	0.77617 0.98153 0.59334 0.08300
H 	H 	0.82937 0.01003 0.58823 0.00000
C 	C 	0.48807 0.84183 0.57938 -0.24300
H 	H 	0.48937 0.79193 0.57733 0.09700
H 	H 	0.45147 0.84493 0.56973 0.10200
H 	H 	0.46907 0.84233 0.59283 0.09400
C 	C 	0.62627 0.16333 0.52348 0.44700
C 	C 	0.61217 0.09633 0.53675 -0.22700
C 	C 	0.58427 0.02043 0.53029 0.13900
H 	H 	0.57247 0.00903 0.51663 -0.00000
C 	C 	0.57207 0.95833 0.54297 -0.21600
H 	H 	0.55607 0.90613 0.53793 0.10400
C 	C 	0.58337 0.97353 0.56253 0.18400
C 	C 	0.61337 0.05193 0.56946 -0.24000
H 	H 	0.62777 0.06503 0.58293 0.11300
C 	C 	0.62107 0.10783 0.55650 0.16100
H 	H 	0.63367 0.15913 0.56153 -0.01000
C 	C 	0.50247 0.19633 0.46317 0.41000
C 	C 	0.43407 0.13533 0.45058 -0.17400
C 	C 	0.37581 0.15313 0.44416 0.09500
H 	H 	0.37807 0.20163 0.44823 0.01000
C 	C 	0.31427 0.09993 0.43177 -0.18600
H 	H 	0.27447 0.11203 0.42743 0.09400
C 	C 	0.31097 0.02893 0.42580 0.16400
C 	C 	0.36917 0.01113 0.43222 -0.20300
H 	H 	0.36697 0.96263 0.42813 0.10600
C 	C 	0.43082 0.06443 0.44461 0.10000
H 	H 	0.47057 0.05223 0.44903 0.00800
C 	C 	0.17657 0.98163 0.41373 -0.20200
H 	H 	0.17897 0.01863 0.42403 0.08200
H 	H 	0.13107 0.92763 0.41623 0.09100
H 	H 	0.16967 0.00053 0.40083 0.08400
C 	C 	0.29587 0.79193 0.35404 0.39200
C 	C 	0.28477 0.83913 0.37015 -0.14600
C 	C 	0.20927 0.81093 0.37857 0.07400
H 	H 	0.16527 0.76063 0.37453 0.01800
C 	C 	0.19797 0.85623 0.39290 -0.16000
H 	H 	0.14627 0.83693 0.39863 0.08600
C 	C 	0.26227 0.92983 0.39883 0.13000
C 	C 	0.33787 0.95813 0.39041 -0.14900
H 	H 	0.38187 0.00843 0.39443 0.07700
C 	C 	0.34917 0.91273 0.37607 0.07000
H 	H 	0.40077 0.93203 0.37033 0.02100
Zn	Zn	0.56203 0.31018 0.99837 1.21400
Zn	Zn	0.31702 0.56359 0.81742 1.21200
O 	O 	0.57063 0.32907 0.94990 -0.51100
O 	O 	0.48843 0.28487 0.97662 -0.51200
O 	O 	0.31043 0.56327 0.86487 -0.53000
O 	O 	0.29583 0.48557 0.83891 -0.51600
O 	O 	0.22453 0.51367 0.80032 -0.52100
O 	O 	0.16733 0.59037 0.80282 -0.52100
O 	O 	0.03593 0.14977 0.68248 -0.51500
O 	O 	0.90103 0.06457 0.68079 -0.50700
N 	N 	0.23553 0.24417 0.91014 -0.13200
N 	N 	0.91723 0.31227 0.74711 -0.13000
C 	C 	0.50213 0.30037 0.95857 0.38400
C 	C 	0.42983 0.28647 0.94600 -0.14700
C 	C 	0.35203 0.24487 0.95351 0.07800
H 	H 	0.34313 0.22547 0.96667 0.01500
C 	C 	0.28713 0.23157 0.94172 -0.16800
H 	H 	0.23393 0.20307 0.94687 0.08400
C 	C 	0.30003 0.25987 0.92240 0.14500
C 	C 	0.37793 0.30157 0.91488 -0.17600
H 	H 	0.38683 0.32097 0.90167 0.09100
C 	C 	0.44283 0.31487 0.92668 0.07300
H 	H 	0.49603 0.34337 0.92157 0.00500
C 	C 	0.15473 0.17517 0.91272 -0.24200
H 	H 	0.15603 0.12527 0.91067 0.09600
H 	H 	0.11813 0.17827 0.90307 0.10100
H 	H 	0.13573 0.17567 0.92617 0.09300
C 	C 	0.29293 0.49667 0.85682 0.44700
C 	C 	0.27883 0.42967 0.87009 -0.22900
C 	C 	0.25093 0.35377 0.86363 0.14700
H 	H 	0.23913 0.34237 0.84997 -0.00100
C 	C 	0.23873 0.29167 0.87631 -0.22200
H 	H 	0.22273 0.23947 0.87127 0.10600
C 	C 	0.25003 0.30687 0.89587 0.18100
C 	C 	0.28003 0.38527 0.90280 -0.23400
H 	H 	0.29443 0.39837 0.91627 0.11200
C 	C 	0.28773 0.44117 0.88984 0.16000
H 	H 	0.30033 0.49247 0.89487 -0.00900
C 	C 	0.16913 0.52967 0.79651 0.40800
C 	C 	0.10073 0.46867 0.78392 -0.16800
C 	C 	0.04247 0.48647 0.77750 0.08300
H 	H 	0.04473 0.53497 0.78157 0.01300
C 	C 	0.98093 0.43327 0.76511 -0.17400
H 	H 	0.94113 0.44537 0.76077 0.09200
C 	C 	0.97763 0.36227 0.75914 0.16900
C 	C 	0.03583 0.34447 0.76556 -0.19600
H 	H 	0.03363 0.29597 0.76147 0.09800
C 	C 	0.09748 0.39777 0.77795 0.09400
H 	H 	0.13723 0.38557 0.78237 0.01100
C 	C 	0.84323 0.31497 0.74707 -0.24700
H 	H 	0.84563 0.35197 0.75737 0.10000
H 	H 	0.79773 0.26097 0.74957 0.10300
H 	H 	0.83633 0.33387 0.73417 0.10200
C 	C 	0.96253 0.12527 0.68738 0.40000
C 	C 	0.95143 0.17247 0.70349 -0.14600
C 	C 	0.87593 0.14427 0.71191 0.07900
H 	H 	0.83193 0.09397 0.70787 0.01600
C 	C 	0.86463 0.18957 0.72624 -0.16700
H 	H 	0.81293 0.17027 0.73197 0.08900
C 	C 	0.92893 0.26317 0.73217 0.14300
C 	C 	0.00453 0.29147 0.72375 -0.17500
H 	H 	0.04853 0.34177 0.72777 0.08900
C 	C 	0.01583 0.24607 0.70941 0.07400
H 	H 	0.06743 0.26537 0.70367 0.01600
Zn	Zn	0.33333 0.66667 0.29348 1.21400
O 	O 	0.33333 0.66667 0.32189 -0.96400
Zn	Zn	-0.00000 0.00000 0.62681 1.21100
O 	O 	0.00000 0.00000 0.65522 -0.97000
Zn	Zn	0.66667 0.33333 0.96014 1.21300
O 	O 	0.66667 0.33333 0.98856 -0.96400
Zn	Zn	0.00000 0.00000 0.18845 1.21400
O 	O 	0.00000 0.00000 0.15984 -0.96800
Zn	Zn	0.66667 0.33333 0.52179 1.21500
O 	O 	0.66667 0.33333 0.49317 -0.96400
Zn	Zn	0.33333 0.66667 0.85512 1.21500
O 	O 	0.33333 0.66667 0.82651 -0.96400
Zn	Zn	0.58519 0.35649 0.66829 1.21400
Zn	Zn	0.08677 0.10308 0.84924 1.21200
O 	O 	0.57490 0.33760 0.71677 -0.51100
O 	O 	0.53690 0.38180 0.69005 -0.51200
O 	O 	0.08050 0.10340 0.80180 -0.53200
O 	O 	0.14360 0.18110 0.82776 -0.51700
O 	O 	0.04420 0.15300 0.86635 -0.52500
O 	O 	0.91030 0.07630 0.86385 -0.52200
O 	O 	0.21950 0.51690 0.98419 -0.50900
O 	O 	0.16980 0.60210 0.98588 -0.50600
N 	N 	0.32470 0.42250 0.75653 -0.13200
N 	N 	0.93830 0.35440 0.91956 -0.13200
C 	C 	0.53510 0.36630 0.70810 0.38400
C 	C 	0.47670 0.38020 0.72067 -0.14700
C 	C 	0.44050 0.42180 0.71316 0.07800
H 	H 	0.45100 0.44120 0.70000 0.01500
C 	C 	0.38890 0.43510 0.72495 -0.16800
H 	H 	0.36420 0.46360 0.71980 0.08400
C 	C 	0.37350 0.40680 0.74427 0.14500
C 	C 	0.40970 0.36510 0.75179 -0.17600
H 	H 	0.39920 0.34570 0.76500 0.09100
C 	C 	0.46130 0.35180 0.73999 0.07300
H 	H 	0.48600 0.32330 0.74510 0.00500
C 	C 	0.31290 0.49150 0.75395 -0.24300
H 	H 	0.36410 0.54140 0.75600 0.09800
H 	H 	0.27320 0.48840 0.76360 0.10200
H 	H 	0.29340 0.49100 0.74050 0.09400
C 	C 	0.12960 0.17000 0.80985 0.44800
C 	C 	0.18250 0.23700 0.79658 -0.23000
C 	C 	0.23050 0.31290 0.80304 0.14700
H 	H 	0.23010 0.32430 0.81670 -0.00100
C 	C 	0.28040 0.37500 0.79036 -0.22300
H 	H 	0.31660 0.42720 0.79540 0.10600
C 	C 	0.27650 0.35980 0.77080 0.18100
C 	C 	0.22810 0.28140 0.76387 -0.23500
H 	H 	0.22940 0.26830 0.75040 0.11200
C 	C 	0.17990 0.22550 0.77683 0.16100
H 	H 	0.14120 0.17420 0.77180 -0.01000
C 	C 	0.97280 0.13700 0.87016 0.41400
C 	C 	0.96540 0.19800 0.88275 -0.16600
C 	C 	0.88934 0.18020 0.88917 0.09200
H 	H 	0.84310 0.13170 0.88510 0.01100
C 	C 	0.88100 0.23340 0.90156 -0.18400
H 	H 	0.82910 0.22130 0.90590 0.09400
C 	C 	0.94870 0.30440 0.90753 0.16900
C 	C 	0.02470 0.32220 0.90111 -0.19300
H 	H 	0.07100 0.37070 0.90520 0.09800
C 	C 	0.03305 0.26890 0.88872 0.08900
H 	H 	0.08500 0.28110 0.88430 0.01300
C 	C 	0.86160 0.35170 0.91960 -0.24600
H 	H 	0.82700 0.31470 0.90930 0.09900
H 	H 	0.87010 0.40570 0.91710 0.10300
H 	H 	0.83580 0.33280 0.93250 0.10200
C 	C 	0.17060 0.54140 0.97929 0.39600
C 	C 	0.11230 0.49420 0.96318 -0.16000
C 	C 	0.06500 0.52240 0.95476 0.09100
H 	H 	0.07130 0.57270 0.95880 0.01200
C 	C 	0.00840 0.47710 0.94043 -0.18600
H 	H 	0.97600 0.49640 0.93470 0.09700
C 	C 	0.99910 0.40350 0.93450 0.15100
C 	C 	0.04640 0.37520 0.94292 -0.18100
H 	H 	0.04010 0.32490 0.93890 0.09100
C 	C 	0.10310 0.42060 0.95726 0.08900
H 	H 	0.13540 0.40130 0.96300 0.01200
Zn	Zn	0.25186 0.68982 0.00163 1.21400
Zn	Zn	0.75344 0.43641 0.18258 1.21200
O 	O 	0.24157 0.67093 0.05010 -0.51200
O 	O 	0.20357 0.71513 0.02338 -0.51200
O 	O 	0.74717 0.43673 0.13513 -0.53000
O 	O 	0.81027 0.51443 0.16109 -0.51600
O 	O 	0.71087 0.48633 0.19968 -0.52000
O 	O 	0.57697 0.40963 0.19718 -0.52100
O 	O 	0.88617 0.85023 0.31752 -0.50700
O 	O 	0.83647 0.93543 0.31921 -0.50200
N 	N 	0.99137 0.75583 0.08986 -0.13100
N 	N 	0.60497 0.68773 0.25289 -0.12900
C 	C 	0.20177 0.69963 0.04143 0.38400
C 	C 	0.14337 0.71353 0.05400 -0.14700
C 	C 	0.10717 0.75513 0.04649 0.07700
H 	H 	0.11767 0.77453 0.03333 0.01600
C 	C 	0.05557 0.76843 0.05828 -0.16700
H 	H 	0.03087 0.79693 0.05313 0.08300
C 	C 	0.04017 0.74013 0.07760 0.14400
C 	C 	0.07637 0.69843 0.08512 -0.17500
H 	H 	0.06587 0.67903 0.09833 0.09000
C 	C 	0.12797 0.68513 0.07332 0.07300
H 	H 	0.15267 0.65663 0.07843 0.00600
C 	C 	0.97957 0.82483 0.08728 -0.24000
H 	H 	0.03077 0.87473 0.08933 0.09600
H 	H 	0.93987 0.82173 0.09693 0.10200
H 	H 	0.96007 0.82433 0.07383 0.09400
C 	C 	0.79627 0.50333 0.14318 0.44800
C 	C 	0.84917 0.57033 0.12991 -0.22900
C 	C 	0.89717 0.64623 0.13637 0.14700
H 	H 	0.89677 0.65763 0.15003 -0.00100
C 	C 	0.94707 0.70833 0.12369 -0.22300
H 	H 	0.98327 0.76053 0.12873 0.10600
C 	C 	0.94317 0.69313 0.10413 0.18100
C 	C 	0.89477 0.61473 0.09720 -0.23400
H 	H 	0.89607 0.60163 0.08373 0.11300
C 	C 	0.84657 0.55883 0.11016 0.16100
H 	H 	0.80787 0.50753 0.10513 -0.00900
C 	C 	0.63947 0.47033 0.20349 0.40900
C 	C 	0.63207 0.53133 0.21608 -0.16900
C 	C 	0.55601 0.51353 0.22250 0.09200
H 	H 	0.50977 0.46503 0.21843 0.01200
C 	C 	0.54767 0.56673 0.23489 -0.18200
H 	H 	0.49577 0.55463 0.23923 0.09400
C 	C 	0.61537 0.63773 0.24086 0.16300
C 	C 	0.69137 0.65553 0.23444 -0.18700
H 	H 	0.73767 0.70403 0.23853 0.09700
C 	C 	0.69972 0.60223 0.22205 0.09300
H 	H 	0.75167 0.61443 0.21763 0.01200
C 	C 	0.52827 0.68503 0.25293 -0.24800
H 	H 	0.49367 0.64803 0.24263 0.10000
H 	H 	0.53677 0.73903 0.25043 0.10300
H 	H 	0.50247 0.66613 0.26583 0.10300
C 	C 	0.83727 0.87473 0.31262 0.39300
C 	C 	0.77897 0.82753 0.29651 -0.15000
C 	C 	0.73167 0.85573 0.28809 0.07800
H 	H 	0.73797 0.90603 0.29213 0.01800
C 	C 	0.67507 0.81043 0.27376 -0.16400
H 	H 	0.64267 0.82973 0.26803 0.08800
C 	C 	0.66577 0.73683 0.26783 0.13400
C 	C 	0.71307 0.70853 0.27625 -0.16600
H 	H 	0.70677 0.65823 0.27223 0.08800
C 	C 	0.76977 0.75393 0.29059 0.07900
H 	H 	0.80207 0.73463 0.29633 0.01600
Zn	Zn	0.91852 0.02316 0.33496 1.21300
Zn	Zn	0.42010 0.76975 0.51591 1.21200
O 	O 	0.90823 0.00427 0.38344 -0.51200
O 	O 	0.87023 0.04847 0.35672 -0.51200
O 	O 	0.41383 0.77007 0.46847 -0.53000
O 	O 	0.47693 0.84777 0.49443 -0.51600
O 	O 	0.37753 0.81967 0.53302 -0.52000
O 	O 	0.24363 0.74297 0.53052 -0.52100
O 	O 	0.55283 0.18357 0.65086 -0.50900
O 	O 	0.50313 0.26877 0.65255 -0.50600
N 	N 	0.65803 0.08917 0.42320 -0.13000
N 	N 	0.27163 0.02107 0.58623 -0.12800
C 	C 	0.86843 0.03297 0.37477 0.38100
C 	C 	0.81003 0.04687 0.38734 -0.14000
C 	C 	0.77383 0.08847 0.37983 0.07200
H 	H 	0.78433 0.10787 0.36667 0.01700
C 	C 	0.72223 0.10177 0.39162 -0.16300
H 	H 	0.69753 0.13027 0.38647 0.08200
C 	C 	0.70683 0.07347 0.41094 0.13900
C 	C 	0.74303 0.03177 0.41846 -0.16600
H 	H 	0.73253 0.01237 0.43167 0.08600
C 	C 	0.79463 0.01847 0.40666 0.05500
H 	H 	0.81933 0.98997 0.41177 0.01600
C 	C 	0.64623 0.15817 0.42062 -0.24500
H 	H 	0.69743 0.20807 0.42267 0.09800
H 	H 	0.60653 0.15507 0.43027 0.10300
H 	H 	0.62673 0.15767 0.40717 0.09400
C 	C 	0.46293 0.83667 0.47652 0.44800
C 	C 	0.51583 0.90367 0.46325 -0.23000
C 	C 	0.56383 0.97957 0.46971 0.15600
H 	H 	0.56343 0.99097 0.48337 -0.00200
C 	C 	0.61373 0.04167 0.45703 -0.22900
H 	H 	0.64993 0.09387 0.46207 0.10800
C 	C 	0.60983 0.02647 0.43747 0.17600
C 	C 	0.56143 0.94807 0.43054 -0.22500
H 	H 	0.56273 0.93497 0.41707 0.11100
C 	C 	0.51323 0.89217 0.44350 0.15900
H 	H 	0.47453 0.84087 0.43847 -0.00800
C 	C 	0.30613 0.80367 0.53683 0.40800
C 	C 	0.29873 0.86467 0.54942 -0.16600
C 	C 	0.22267 0.84687 0.55584 0.08900
H 	H 	0.17643 0.79837 0.55177 0.01200
C 	C 	0.21433 0.90007 0.56823 -0.18000
H 	H 	0.16243 0.88797 0.57257 0.09300
C 	C 	0.28203 0.97107 0.57420 0.16100
C 	C 	0.35803 0.98887 0.56778 -0.17600
H 	H 	0.40433 0.03737 0.57187 0.09000
C 	C 	0.36638 0.93557 0.55539 0.08700
H 	H 	0.41833 0.94777 0.55097 0.01500
C 	C 	0.19493 0.01837 0.58627 -0.27600
H 	H 	0.16033 0.98137 0.57597 0.11000
H 	H 	0.20343 0.07237 0.58377 0.11000
H 	H 	0.16913 0.99947 0.59917 0.11400
C 	C 	0.50393 0.20807 0.64596 0.39400
C 	C 	0.44563 0.16087 0.62985 -0.15400
C 	C 	0.39833 0.18907 0.62143 0.08100
H 	H 	0.40463 0.23937 0.62547 0.01600
C 	C 	0.34173 0.14377 0.60710 -0.16700
H 	H 	0.30933 0.16307 0.60137 0.08800
C 	C 	0.33243 0.07017 0.60117 0.13700
C 	C 	0.37973 0.04187 0.60959 -0.17700
H 	H 	0.37343 0.99157 0.60557 0.09400
C 	C 	0.43643 0.08727 0.62393 0.08500
H 	H 	0.46873 0.06797 0.62967 0.01300
Zn	Zn	0.77130 0.41481 0.66829 1.21400
Zn	Zn	0.01631 0.91323 0.84924 1.21200
O 	O 	0.76270 0.42510 0.71677 -0.51100
O 	O 	0.84490 0.46310 0.69005 -0.51200
O 	O 	0.02290 0.91950 0.80180 -0.53100
O 	O 	0.03750 0.85640 0.82776 -0.51700
O 	O 	0.10880 0.95580 0.86635 -0.51900
O 	O 	0.16600 0.08970 0.86385 -0.52100
O 	O 	0.29740 0.78050 0.98419 -0.50800
O 	O 	0.43230 0.83020 0.98588 -0.50400
N 	N 	0.09780 0.67530 0.75653 -0.13100
N 	N 	0.41610 0.06170 0.91956 -0.12700
C 	C 	0.83120 0.46490 0.70810 0.38500
C 	C 	0.90350 0.52330 0.72067 -0.14900
C 	C 	0.98130 0.55950 0.71316 0.08800
H 	H 	0.99020 0.54900 0.70000 0.01400
C 	C 	0.04620 0.61110 0.72495 -0.17700
H 	H 	0.09940 0.63580 0.71980 0.08600
C 	C 	0.03330 0.62650 0.74427 0.14100
C 	C 	0.95540 0.59030 0.75179 -0.16800
H 	H 	0.94650 0.60080 0.76500 0.09000
C 	C 	0.89050 0.53870 0.73999 0.07200
H 	H 	0.83730 0.51400 0.74510 0.00600
C 	C 	0.17860 0.68710 0.75395 -0.24400
H 	H 	0.17730 0.63590 0.75600 0.09700
H 	H 	0.21520 0.72680 0.76360 0.10300
H 	H 	0.19760 0.70660 0.74050 0.09400
C 	C 	0.04040 0.87040 0.80985 0.44700
C 	C 	0.05450 0.81750 0.79658 -0.22900
C 	C 	0.08240 0.76950 0.80304 0.14600
H 	H 	0.09420 0.76990 0.81670 -0.00100
C 	C 	0.09460 0.71960 0.79036 -0.22200
H 	H 	0.11060 0.68340 0.79540 0.10500
C 	C 	0.08330 0.72350 0.77080 0.18000
C 	C 	0.05330 0.77190 0.76387 -0.23400
H 	H 	0.03890 0.77060 0.75040 0.11100
C 	C 	0.04560 0.82010 0.77683 0.16000
H 	H 	0.03300 0.85880 0.77180 -0.01000
C 	C 	0.16420 0.02720 0.87016 0.40700
C 	C 	0.23260 0.03460 0.88275 -0.17100
C 	C 	0.29086 0.11066 0.88917 0.09100
H 	H 	0.28860 0.15690 0.88510 0.01200
C 	C 	0.35240 0.11900 0.90156 -0.18100
H 	H 	0.39220 0.17090 0.90590 0.09300
C 	C 	0.35570 0.05130 0.90753 0.15900
C 	C 	0.29750 0.97530 0.90111 -0.18400
H 	H 	0.29970 0.92900 0.90520 0.09600
C 	C 	0.23585 0.96695 0.88872 0.09400
H 	H 	0.19610 0.91500 0.88430 0.01200
C 	C 	0.49010 0.13840 0.91960 -0.24900
H 	H 	0.48770 0.17300 0.90930 0.10000
H 	H 	0.53560 0.12990 0.91710 0.10300
H 	H 	0.49700 0.16420 0.93250 0.10300
C 	C 	0.37080 0.82940 0.97929 0.39100
C 	C 	0.38190 0.88770 0.96318 -0.14600
C 	C 	0.45740 0.93500 0.95476 0.07100
H 	H 	0.50140 0.92870 0.95880 0.02000
C 	C 	0.46870 0.99160 0.94043 -0.15200
H 	H 	0.52040 0.02400 0.93470 0.08200
C 	C 	0.40440 0.00090 0.93450 0.12400
C 	C 	0.32880 0.95360 0.94292 -0.15800
H 	H 	0.28480 0.95990 0.93890 0.08500
C 	C 	0.31750 0.89690 0.95726 0.07300
H 	H 	0.26590 0.86460 0.96300 0.01800
Zn	Zn	0.43797 0.74814 0.00163 1.21400
Zn	Zn	0.68298 0.24656 0.18258 1.21200
O 	O 	0.42937 0.75843 0.05010 -0.51200
O 	O 	0.51157 0.79643 0.02338 -0.51200
O 	O 	0.68957 0.25283 0.13513 -0.53000
O 	O 	0.70417 0.18973 0.16109 -0.51600
O 	O 	0.77547 0.28913 0.19968 -0.52000
O 	O 	0.83267 0.42303 0.19718 -0.52100
O 	O 	0.96407 0.11383 0.31752 -0.50700
O 	O 	0.09897 0.16353 0.31921 -0.50500
N 	N 	0.76447 0.00863 0.08986 -0.13200
N 	N 	0.08277 0.39503 0.25289 -0.12800
C 	C 	0.49787 0.79823 0.04143 0.38400
C 	C 	0.57017 0.85663 0.05400 -0.14800
C 	C 	0.64797 0.89283 0.04649 0.08000
H 	H 	0.65687 0.88233 0.03333 0.01500
C 	C 	0.71287 0.94443 0.05828 -0.17000
H 	H 	0.76607 0.96913 0.05313 0.08600
C 	C 	0.69997 0.95983 0.07760 0.15000
C 	C 	0.62207 0.92363 0.08512 -0.17700
H 	H 	0.61317 0.93413 0.09833 0.09300
C 	C 	0.55717 0.87203 0.07332 0.07500
H 	H 	0.50397 0.84733 0.07843 0.00500
C 	C 	0.84527 0.02043 0.08728 -0.25500
H 	H 	0.84397 0.96923 0.08933 0.10300
H 	H 	0.88187 0.06013 0.09693 0.10500
H 	H 	0.86427 0.03993 0.07383 0.09600
C 	C 	0.70707 0.20373 0.14318 0.44700
C 	C 	0.72117 0.15083 0.12991 -0.22900
C 	C 	0.74907 0.10283 0.13637 0.14600
H 	H 	0.76087 0.10323 0.15003 -0.00100
C 	C 	0.76127 0.05293 0.12369 -0.22200
H 	H 	0.77727 0.01673 0.12873 0.10400
C 	C 	0.74997 0.05683 0.10413 0.17900
C 	C 	0.71997 0.10523 0.09720 -0.23400
H 	H 	0.70557 0.10393 0.08373 0.11100
C 	C 	0.71227 0.15343 0.11016 0.16000
H 	H 	0.69967 0.19213 0.10513 -0.00900
C 	C 	0.83087 0.36053 0.20349 0.40900
C 	C 	0.89927 0.36793 0.21608 -0.16900
C 	C 	0.95753 0.44399 0.22250 0.09400
H 	H 	0.95527 0.49023 0.21843 0.01100
C 	C 	0.01907 0.45233 0.23489 -0.18400
H 	H 	0.05887 0.50423 0.23923 0.09400
C 	C 	0.02237 0.38463 0.24086 0.16000
C 	C 	0.96417 0.30863 0.23444 -0.18400
H 	H 	0.96637 0.26233 0.23853 0.09700
C 	C 	0.90252 0.30028 0.22205 0.09200
H 	H 	0.86277 0.24833 0.21763 0.01200
C 	C 	0.15677 0.47173 0.25293 -0.24800
H 	H 	0.15437 0.50633 0.24263 0.10000
H 	H 	0.20227 0.46323 0.25043 0.10300
H 	H 	0.16367 0.49753 0.26583 0.10300
C 	C 	0.03747 0.16273 0.31262 0.39000
C 	C 	0.04857 0.22103 0.29651 -0.15400
C 	C 	0.12407 0.26833 0.28809 0.07900
H 	H 	0.16807 0.26203 0.29213 0.01700
C 	C 	0.13537 0.32493 0.27376 -0.16400
H 	H 	0.18707 0.35733 0.26803 0.08800
C 	C 	0.07107 0.33423 0.26783 0.13100
C 	C 	0.99547 0.28693 0.27625 -0.16400
H 	H 	0.95147 0.29323 0.27223 0.08700
C 	C 	0.98417 0.23023 0.29059 0.08200
H 	H 	0.93257 0.19793 0.29633 0.01500
Zn	Zn	0.10463 0.08148 0.33496 1.21300
Zn	Zn	0.34964 0.57990 0.51591 1.21200
O 	O 	0.09603 0.09177 0.38344 -0.51400
O 	O 	0.17823 0.12977 0.35672 -0.51300
O 	O 	0.35623 0.58617 0.46847 -0.53000
O 	O 	0.37083 0.52307 0.49443 -0.51600
O 	O 	0.44213 0.62247 0.53302 -0.52000
O 	O 	0.49933 0.75637 0.53052 -0.52000
O 	O 	0.63073 0.44717 0.65086 -0.50900
O 	O 	0.76563 0.49687 0.65255 -0.50500
N 	N 	0.43113 0.34197 0.42320 -0.13200
N 	N 	0.74943 0.72837 0.58623 -0.12900
C 	C 	0.16453 0.13157 0.37477 0.38400
C 	C 	0.23683 0.18997 0.38734 -0.14800
C 	C 	0.31463 0.22617 0.37983 0.07800
H 	H 	0.32353 0.21567 0.36667 0.01500
C 	C 	0.37953 0.27777 0.39162 -0.16800
H 	H 	0.43273 0.30247 0.38647 0.08400
C 	C 	0.36663 0.29317 0.41094 0.14600
C 	C 	0.28873 0.25697 0.41846 -0.17600
H 	H 	0.27983 0.26747 0.43167 0.09000
C 	C 	0.22383 0.20537 0.40666 0.07400
H 	H 	0.17063 0.18067 0.41177 0.00400
C 	C 	0.51193 0.35377 0.42062 -0.24400
H 	H 	0.51063 0.30257 0.42267 0.09800
H 	H 	0.54853 0.39347 0.43027 0.10200
H 	H 	0.53093 0.37327 0.40717 0.09400
C 	C 	0.37373 0.53707 0.47652 0.44700
C 	C 	0.38783 0.48417 0.46325 -0.22900
C 	C 	0.41573 0.43617 0.46971 0.14700
H 	H 	0.42753 0.43657 0.48337 -0.00100
C 	C 	0.42793 0.38627 0.45703 -0.22200
H 	H 	0.44393 0.35007 0.46207 0.10600
C 	C 	0.41663 0.39017 0.43747 0.18100
C 	C 	0.38663 0.43857 0.43054 -0.23400
H 	H 	0.37223 0.43727 0.41707 0.11200
C 	C 	0.37893 0.48677 0.44350 0.16000
H 	H 	0.36633 0.52547 0.43847 -0.00900
C 	C 	0.49753 0.69387 0.53683 0.40900
C 	C 	0.56593 0.70127 0.54942 -0.16900
C 	C 	0.62419 0.77733 0.55584 0.09200
H 	H 	0.62193 0.82357 0.55177 0.01200
C 	C 	0.68573 0.78567 0.56823 -0.18200
H 	H 	0.72553 0.83757 0.57257 0.09400
C 	C 	0.68903 0.71797 0.57420 0.16300
C 	C 	0.63083 0.64197 0.56778 -0.18700
H 	H 	0.63303 0.59567 0.57187 0.09700
C 	C 	0.56918 0.63362 0.55539 0.09300
H 	H 	0.52943 0.58167 0.55097 0.01200
C 	C 	0.82343 0.80507 0.58627 -0.25000
H 	H 	0.82103 0.83967 0.57597 0.10100
H 	H 	0.86893 0.79657 0.58377 0.10500
H 	H 	0.83033 0.83087 0.59917 0.10400
C 	C 	0.70413 0.49607 0.64596 0.39300
C 	C 	0.71523 0.55437 0.62985 -0.15100
C 	C 	0.79073 0.60167 0.62143 0.07900
H 	H 	0.83473 0.59537 0.62547 0.01800
C 	C 	0.80203 0.65827 0.60710 -0.16500
H 	H 	0.85373 0.69067 0.60137 0.08900
C 	C 	0.73773 0.66757 0.60117 0.13500
C 	C 	0.66213 0.62027 0.60959 -0.16700
H 	H 	0.61813 0.62657 0.60557 0.08800
C 	C 	0.65083 0.56357 0.62393 0.07900
H 	H 	0.59923 0.53127 0.62967 0.01600
Zn	Zn	0.64351 0.22870 0.66829 1.21400
Zn	Zn	0.89692 0.98369 0.84924 1.21300
O 	O 	0.66240 0.23730 0.71677 -0.51100
O 	O 	0.61820 0.15510 0.69005 -0.51200
O 	O 	0.89660 0.97710 0.80180 -0.52700
O 	O 	0.81890 0.96250 0.82776 -0.51500
O 	O 	0.84700 0.89120 0.86635 -0.51900
O 	O 	0.92370 0.83400 0.86385 -0.51800
O 	O 	0.48310 0.70260 0.98419 -0.50900
O 	O 	0.39790 0.56770 0.98588 -0.50500
N 	N 	0.57750 0.90220 0.75653 -0.13200
N 	N 	0.64560 0.58390 0.91956 -0.12900
C 	C 	0.63370 0.16880 0.70810 0.38300
C 	C 	0.61980 0.09650 0.72067 -0.14700
C 	C 	0.57820 0.01870 0.71316 0.07400
H 	H 	0.55880 0.00980 0.70000 0.01600
C 	C 	0.56490 0.95380 0.72495 -0.16500
H 	H 	0.53640 0.90060 0.71980 0.08300
C 	C 	0.59320 0.96670 0.74427 0.14700
C 	C 	0.63490 0.04460 0.75179 -0.17800
H 	H 	0.65430 0.05350 0.76500 0.09100
C 	C 	0.64820 0.10950 0.73999 0.07300
H 	H 	0.67670 0.16270 0.74510 0.00500
C 	C 	0.50850 0.82140 0.75395 -0.24400
H 	H 	0.45860 0.82270 0.75600 0.09800
H 	H 	0.51160 0.78480 0.76360 0.10200
H 	H 	0.50900 0.80240 0.74050 0.09400
C 	C 	0.83000 0.95960 0.80985 0.44700
C 	C 	0.76300 0.94550 0.79658 -0.22800
C 	C 	0.68710 0.91760 0.80304 0.14600
H 	H 	0.67570 0.90580 0.81670 -0.00100
C 	C 	0.62500 0.90540 0.79036 -0.22200
H 	H 	0.57280 0.88940 0.79540 0.10600
C 	C 	0.64020 0.91670 0.77080 0.18100
C 	C 	0.71860 0.94670 0.76387 -0.23300
H 	H 	0.73170 0.96110 0.75040 0.11300
C 	C 	0.77450 0.95440 0.77683 0.16000
H 	H 	0.82580 0.96700 0.77180 -0.00800
C 	C 	0.86300 0.83580 0.87016 0.40800
C 	C 	0.80200 0.76740 0.88275 -0.16800
C 	C 	0.81980 0.70914 0.88917 0.09100
H 	H 	0.86830 0.71140 0.88510 0.01300
C 	C 	0.76660 0.64760 0.90156 -0.18100
H 	H 	0.77870 0.60780 0.90590 0.09400
C 	C 	0.69560 0.64430 0.90753 0.16200
C 	C 	0.67780 0.70250 0.90111 -0.18700
H 	H 	0.62930 0.70030 0.90520 0.09700
C 	C 	0.73110 0.76415 0.88872 0.09200
H 	H 	0.71890 0.80390 0.88430 0.01200
C 	C 	0.64830 0.50990 0.91960 -0.24800
H 	H 	0.68530 0.51230 0.90930 0.10000
H 	H 	0.59430 0.46440 0.91710 0.10300
H 	H 	0.66720 0.50300 0.93250 0.10300
C 	C 	0.45860 0.62920 0.97929 0.39300
C 	C 	0.50580 0.61810 0.96318 -0.15100
C 	C 	0.47760 0.54260 0.95476 0.07900
H 	H 	0.42730 0.49860 0.95880 0.01700
C 	C 	0.52290 0.53130 0.94043 -0.16500
H 	H 	0.50360 0.47960 0.93470 0.08800
C 	C 	0.59650 0.59560 0.93450 0.13400
C 	C 	0.62480 0.67120 0.94292 -0.16700
H 	H 	0.67510 0.71520 0.93890 0.08800
C 	C 	0.57940 0.68250 0.95726 0.07900
H 	H 	0.59870 0.73410 0.96300 0.01600
Zn	Zn	0.31018 0.56203 0.00163 1.21400
Zn	Zn	0.56359 0.31702 0.18258 1.21200
O 	O 	0.32907 0.57063 0.05010 -0.51100
O 	O 	0.28487 0.48843 0.02338 -0.51200
O 	O 	0.56327 0.31043 0.13513 -0.53000
O 	O 	0.48557 0.29583 0.16109 -0.51600
O 	O 	0.51367 0.22453 0.19968 -0.52100
O 	O 	0.59037 0.16733 0.19718 -0.52100
O 	O 	0.14977 0.03593 0.31752 -0.51500
O 	O 	0.06457 0.90103 0.31921 -0.50700
N 	N 	0.24417 0.23553 0.08986 -0.13200
N 	N 	0.31227 0.91723 0.25289 -0.13000
C 	C 	0.30037 0.50213 0.04143 0.38400
C 	C 	0.28647 0.42983 0.05400 -0.14700
C 	C 	0.24487 0.35203 0.04649 0.07800
H 	H 	0.22547 0.34313 0.03333 0.01500
C 	C 	0.23157 0.28713 0.05828 -0.16800
H 	H 	0.20307 0.23393 0.05313 0.08400
C 	C 	0.25987 0.30003 0.07760 0.14500
C 	C 	0.30157 0.37793 0.08512 -0.17600
H 	H 	0.32097 0.38683 0.09833 0.09100
C 	C 	0.31487 0.44283 0.07332 0.07300
H 	H 	0.34337 0.49603 0.07843 0.00500
C 	C 	0.17517 0.15473 0.08728 -0.24200
H 	H 	0.12527 0.15603 0.08933 0.09600
H 	H 	0.17827 0.11813 0.09693 0.10100
H 	H 	0.17567 0.13573 0.07383 0.09300
C 	C 	0.49667 0.29293 0.14318 0.44700
C 	C 	0.42967 0.27883 0.12991 -0.22900
C 	C 	0.35377 0.25093 0.13637 0.14700
H 	H 	0.34237 0.23913 0.15003 -0.00100
C 	C 	0.29167 0.23873 0.12369 -0.22200
H 	H 	0.23947 0.22273 0.12873 0.10600
C 	C 	0.30687 0.25003 0.10413 0.18100
C 	C 	0.38527 0.28003 0.09720 -0.23400
H 	H 	0.39837 0.29443 0.08373 0.11200
C 	C 	0.44117 0.28773 0.11016 0.16000
H 	H 	0.49247 0.30033 0.10513 -0.00900
C 	C 	0.52967 0.16913 0.20349 0.40800
C 	C 	0.46867 0.10073 0.21608 -0.16800
C 	C 	0.48647 0.04247 0.22250 0.08300
H 	H 	0.53497 0.04473 0.21843 0.01300
C 	C 	0.43327 0.98093 0.23489 -0.17400
H 	H 	0.44537 0.94113 0.23923 0.09200
C 	C 	0.36227 0.97763 0.24086 0.16900
C 	C 	0.34447 0.03583 0.23444 -0.19600
H 	H 	0.29597 0.03363 0.23853 0.09800
C 	C 	0.39777 0.09748 0.22205 0.09400
H 	H 	0.38557 0.13723 0.21763 0.01100
C 	C 	0.31497 0.84323 0.25293 -0.24700
H 	H 	0.35197 0.84563 0.24263 0.10000
H 	H 	0.26097 0.79773 0.25043 0.10300
H 	H 	0.33387 0.83633 0.26583 0.10200
C 	C 	0.12527 0.96253 0.31262 0.40000
C 	C 	0.17247 0.95143 0.29651 -0.14600
C 	C 	0.14427 0.87593 0.28809 0.07900
H 	H 	0.09397 0.83193 0.29213 0.01600
C 	C 	0.18957 0.86463 0.27376 -0.16700
H 	H 	0.17027 0.81293 0.26803 0.08900
C 	C 	0.26317 0.92893 0.26783 0.14300
C 	C 	0.29147 0.00453 0.27625 -0.17500
H 	H 	0.34177 0.04853 0.27223 0.08900
C 	C 	0.24607 0.01583 0.29059 0.07400
H 	H 	0.26537 0.06743 0.29633 0.01600
Zn	Zn	0.97684 0.89537 0.33496 1.21600
Zn	Zn	0.23025 0.65036 0.51591 1.21200
O 	O 	0.99573 0.90397 0.38344 -0.50600
O 	O 	0.95153 0.82177 0.35672 -0.51100
O 	O 	0.22993 0.64377 0.46847 -0.53000
O 	O 	0.15223 0.62917 0.49443 -0.51700
O 	O 	0.18033 0.55787 0.53302 -0.52100
O 	O 	0.25703 0.50067 0.53052 -0.52100
O 	O 	0.81643 0.36927 0.65086 -0.50800
O 	O 	0.73123 0.23437 0.65255 -0.50500
N 	N 	0.91083 0.56887 0.42320 -0.13200
N 	N 	0.97893 0.25057 0.58623 -0.13100
C 	C 	0.96703 0.83547 0.37477 0.38500
C 	C 	0.95313 0.76317 0.38734 -0.15100
C 	C 	0.91153 0.68537 0.37983 0.08100
H 	H 	0.89213 0.67647 0.36667 0.01500
C 	C 	0.89823 0.62047 0.39162 -0.17000
H 	H 	0.86973 0.56727 0.38647 0.08500
C 	C 	0.92653 0.63337 0.41094 0.14900
C 	C 	0.96823 0.71127 0.41846 -0.18100
H 	H 	0.98763 0.72017 0.43167 0.09400
C 	C 	0.98153 0.77617 0.40666 0.08300
H 	H 	0.01003 0.82937 0.41177 0.00000
C 	C 	0.84183 0.48807 0.42062 -0.24300
H 	H 	0.79193 0.48937 0.42267 0.09700
H 	H 	0.84493 0.45147 0.43027 0.10200
H 	H 	0.84233 0.46907 0.40717 0.09400
C 	C 	0.16333 0.62627 0.47652 0.44700
C 	C 	0.09633 0.61217 0.46325 -0.22700
C 	C 	0.02043 0.58427 0.46971 0.13900
H 	H 	0.00903 0.57247 0.48337 -0.00000
C 	C 	0.95833 0.57207 0.45703 -0.21600
H 	H 	0.90613 0.55607 0.46207 0.10400
C 	C 	0.97353 0.58337 0.43747 0.18400
C 	C 	0.05193 0.61337 0.43054 -0.24000
H 	H 	0.06503 0.62777 0.41707 0.11300
C 	C 	0.10783 0.62107 0.44350 0.16100
H 	H 	0.15913 0.63367 0.43847 -0.01000
C 	C 	0.19633 0.50247 0.53683 0.41000
C 	C 	0.13533 0.43407 0.54942 -0.17400
C 	C 	0.15313 0.37581 0.55584 0.09500
H 	H 	0.20163 0.37807 0.55177 0.01000
C 	C 	0.09993 0.31427 0.56823 -0.18600
H 	H 	0.11203 0.27447 0.57257 0.09400
C 	C 	0.02893 0.31097 0.57420 0.16400
C 	C 	0.01113 0.36917 0.56778 -0.20300
H 	H 	0.96263 0.36697 0.57187 0.10600
C 	C 	0.06443 0.43082 0.55539 0.10000
H 	H 	0.05223 0.47057 0.55097 0.00800
C 	C 	0.98163 0.17657 0.58627 -0.20200
H 	H 	0.01863 0.17897 0.57597 0.08200
H 	H 	0.92763 0.13107 0.58377 0.09100
H 	H 	0.00053 0.16967 0.59917 0.08400
C 	C 	0.79193 0.29587 0.64596 0.39200
C 	C 	0.83913 0.28477 0.62985 -0.14600
C 	C 	0.81093 0.20927 0.62143 0.07400
H 	H 	0.76063 0.16527 0.62547 0.01800
C 	C 	0.85623 0.19797 0.60710 -0.16000
H 	H 	0.83693 0.14627 0.60137 0.08600
C 	C 	0.92983 0.26227 0.60117 0.13000
C 	C 	0.95813 0.33787 0.60959 -0.14900
H 	H 	0.00843 0.38187 0.60557 0.07700
C 	C 	0.91273 0.34917 0.62393 0.07000
H 	H 	0.93203 0.40077 0.62967 0.02100
Zn	Zn	0.66667 0.33333 0.70652 1.21400
O 	O 	0.66667 0.33333 0.67811 -0.96400
Zn	Zn	0.33333 0.66667 0.03986 1.21300
O 	O 	0.33333 0.66667 0.01144 -0.96400
Zn	Zn	0.00000 0.00000 0.37319 1.21100
O 	O 	-0.00000 0.00000 0.34478 -0.97000
Zn	Zn	0.00000 0.00000 0.81155 1.21400
O 	O 	-0.00000 0.00000 0.84016 -0.96800
Zn	Zn	0.66667 0.33333 0.14488 1.21500
O 	O 	0.66667 0.33333 0.17349 -0.96400
Zn	Zn	0.33333 0.66667 0.47821 1.21500
O 	O 	0.33333 0.66667 0.50683 -0.96400
