data_crystal

_cell_length_a 10.03450
_cell_length_b 15.28520
_cell_length_c 18.42100
_cell_angle_alpha 67.73200
_cell_angle_beta  87.02400
_cell_angle_gamma 77.36100

_symmetry_space_group_name_	'P 1'
_symmetry_space_group_name_H-M	'P 1'

loop_
_symmetry_equiv_pos_as_xyz
  x,y,z

loop_
_atom_site_label
_atom_site_type_symbol
_atom_site_fract_x
_atom_site_fract_y
_atom_site_fract_z
_atom_site_charge
Co	Co	0.86172 0.98040 0.43287 1.17800
O 	O 	0.53960 0.00079 0.88880 -0.46800
O 	O 	0.86400 0.96848 0.54522 -0.48100
O 	O 	0.25450 0.01434 0.66944 -0.36400
O 	O 	0.95910 0.01956 0.62334 -0.47200
O 	O 	0.35450 0.00840 0.56305 -0.37900
O 	O 	0.60670 0.47660 0.76039 -0.23300
N 	N 	0.91840 0.82420 0.47102 -0.18600
N 	N 	0.82600 0.13600 0.38262 -0.20100
O 	O 	0.66720 0.44310 0.14981 -0.23700
O 	O 	0.10920 0.47180 0.66367 -0.23800
N 	N 	0.49820 0.35640 0.77143 -0.24500
H 	H 	0.45070 0.33680 0.74480 0.13200
C 	C 	0.61420 0.99180 0.62218 0.06600
H 	H 	0.60800 0.99100 0.57170 0.05000
N 	N 	0.51770 0.15070 0.95772 -0.16800
O 	O 	0.75830 0.92560 0.89716 -0.28700
N 	N 	0.95740 0.61180 0.65204 -0.23400
H 	H 	0.90190 0.63980 0.67850 0.12900
C 	C 	0.74050 0.98780 0.65305 -0.15700
N 	N 	0.84460 0.31370 0.18551 -0.23900
H 	H 	0.91530 0.28260 0.16920 0.13000
C 	C 	0.75050 0.98160 0.72950 0.09600
H 	H 	0.83610 0.97660 0.75090 0.02800
C 	C 	0.49750 0.99710 0.66583 -0.09800
C 	C 	0.44060 0.48680 0.52020 0.03100
C 	C 	0.86370 0.99180 0.60321 0.44900
C 	C 	0.85280 0.48300 0.88690 0.06500
C 	C 	0.63580 0.98260 0.77510 -0.15200
C 	C 	0.43860 0.46120 0.60280 -0.06700
H 	H 	0.36110 0.44280 0.63000 0.06600
C 	C 	0.54720 0.46300 0.64310 -0.03900
C 	C 	0.91860 0.76420 0.54620 -0.04800
H 	H 	0.88720 0.79120 0.58370 0.05200
C 	C 	0.55270 0.43460 0.73060 0.22800
C 	C 	0.80630 0.42160 0.04770 -0.09400
C 	C 	0.36120 0.00750 0.63093 0.29100
C 	C 	0.70260 0.48460 0.99250 0.09200
H 	H 	0.61690 0.50720 0.00970 -0.00200
C 	C 	0.96240 0.66520 0.57170 0.11900
C 	C 	0.50830 0.99420 0.74190 0.11500
H 	H 	0.42930 0.00020 0.77090 -0.00200
C 	C 	0.72510 0.51300 0.91460 -0.14000
H 	H 	0.65370 0.55350 0.87840 0.09600
C 	C 	0.84840 0.17920 0.30650 -0.04600
H 	H 	0.88820 0.13980 0.27900 0.04400
C 	C 	0.87900 0.51370 0.80610 -0.07900
H 	H 	0.80830 0.55440 0.76950 0.07000
C 	C 	0.64650 0.96960 0.85980 0.39600
C 	C 	0.66940 0.51640 0.52320 -0.07800
H 	H 	0.74780 0.53470 0.49710 0.06600
C 	C 	0.77250 0.19340 0.42160 0.02300
H 	H 	0.75660 0.16470 0.47530 0.01300
C 	C 	0.50230 0.20840 0.88180 -0.07800
H 	H 	0.48360 0.18220 0.84580 0.05200
C 	C 	0.95950 0.42110 0.94210 0.02800
C 	C 	0.51240 0.30480 0.85300 0.16500
C 	C 	0.81690 0.27770 0.26580 0.11900
C 	C 	0.00370 0.48600 0.77990 -0.03000
C 	C 	0.76640 0.39470 0.13190 0.23400
C 	C 	0.66350 0.49350 0.60170 -0.01100
H 	H 	0.73660 0.49780 0.62920 0.04800
C 	C 	0.02970 0.52060 0.69380 0.21100
C 	C 	0.76140 0.33640 0.30640 -0.09700
H 	H 	0.73890 0.40410 0.28090 0.09200
C 	C 	0.53540 0.34440 0.90590 -0.19700
H 	H 	0.53780 0.41020 0.88940 0.13400
C 	C 	0.93190 0.39110 0.02260 -0.04900
H 	H 	0.00120 0.34920 0.05980 0.04300
C 	C 	0.96220 0.78480 0.41820 0.01800
H 	H 	0.96360 0.82570 0.36520 0.03400
C 	C 	0.00500 0.62460 0.51600 -0.10400
H 	H 	0.03260 0.55720 0.53070 0.08300
C 	C 	0.74020 0.29220 0.38560 -0.02700
H 	H 	0.70350 0.33010 0.41480 0.05000
C 	C 	0.00530 0.68650 0.43850 -0.02300
H 	H 	0.03490 0.66140 0.39970 0.04900
C 	C 	0.10910 0.42280 0.83490 -0.01300
H 	H 	0.19500 0.40180 0.81710 0.04900
C 	C 	0.55490 0.28420 0.98360 0.13100
H 	H 	0.57450 0.30860 0.02080 -0.02400
C 	C 	0.54600 0.18930 0.00780 -0.10900
H 	H 	0.56020 0.14990 0.06140 0.05000
C 	C 	0.08780 0.39230 0.91290 -0.07100
H 	H 	0.15970 0.35100 0.94840 0.06900
Co	Co	0.13828 0.01960 0.56713 1.16600
O 	O 	0.46040 0.99921 0.11120 -0.39400
O 	O 	0.13600 0.03152 0.45478 -0.47500
O 	O 	0.74550 0.98566 0.33056 -0.35300
O 	O 	0.04090 0.98044 0.37666 -0.39800
O 	O 	0.64550 0.99160 0.43695 -0.36300
O 	O 	0.39330 0.52340 0.23961 -0.23100
N 	N 	0.08160 0.17580 0.52898 -0.18700
N 	N 	0.17400 0.86400 0.61738 -0.18200
O 	O 	0.33280 0.55690 0.85019 -0.22900
O 	O 	0.89080 0.52820 0.33633 -0.23800
N 	N 	0.50180 0.64360 0.22857 -0.23200
H 	H 	0.54930 0.66320 0.25520 0.13300
C 	C 	0.38580 0.00820 0.37782 0.03600
H 	H 	0.39200 0.00900 0.42830 0.04400
N 	N 	0.48230 0.84930 0.04228 -0.21900
O 	O 	0.24170 0.07440 0.10284 -0.28700
N 	N 	0.04260 0.38820 0.34796 -0.23500
H 	H 	0.09810 0.36020 0.32150 0.12900
C 	C 	0.25950 0.01220 0.34695 -0.12100
N 	N 	0.15540 0.68630 0.81449 -0.23400
H 	H 	0.08470 0.71740 0.83080 0.13200
C 	C 	0.24950 0.01840 0.27050 0.03500
H 	H 	0.16390 0.02340 0.24910 0.03300
C 	C 	0.50250 0.00290 0.33417 -0.10400
C 	C 	0.55940 0.51320 0.47980 0.03300
C 	C 	0.13630 0.00820 0.39679 0.35700
C 	C 	0.14720 0.51700 0.11310 0.02700
C 	C 	0.36420 0.01740 0.22490 -0.08300
C 	C 	0.56140 0.53880 0.39720 -0.06800
H 	H 	0.63890 0.55720 0.37000 0.06700
C 	C 	0.45280 0.53700 0.35690 -0.03600
C 	C 	0.08140 0.23580 0.45380 -0.05000
H 	H 	0.11280 0.20880 0.41630 0.05100
C 	C 	0.44730 0.56540 0.26940 0.22500
C 	C 	0.19370 0.57840 0.95230 -0.00400
C 	C 	0.63880 0.99250 0.36907 0.33400
C 	C 	0.29740 0.51540 0.00750 -0.09100
H 	H 	0.38310 0.49280 0.99030 0.08800
C 	C 	0.03760 0.33480 0.42830 0.11800
C 	C 	0.49170 0.00580 0.25810 -0.03000
H 	H 	0.57070 0.99980 0.22910 0.08800
C 	C 	0.27490 0.48700 0.08540 -0.04500
H 	H 	0.34630 0.44650 0.12160 0.06100
C 	C 	0.15160 0.82080 0.69350 -0.04600
H 	H 	0.11180 0.86020 0.72100 0.06000
C 	C 	0.12100 0.48630 0.19390 -0.05900
H 	H 	0.19170 0.44560 0.23050 0.06300
C 	C 	0.35350 0.03040 0.14020 0.29100
C 	C 	0.33060 0.48360 0.47680 -0.07700
H 	H 	0.25220 0.46530 0.50290 0.06500
C 	C 	0.22750 0.80660 0.57840 0.02100
H 	H 	0.24340 0.83530 0.52470 0.03000
C 	C 	0.49770 0.79160 0.11820 -0.03800
H 	H 	0.51640 0.81780 0.15420 0.04500
C 	C 	0.04050 0.57890 0.05790 0.01300
C 	C 	0.48760 0.69520 0.14700 0.10300
C 	C 	0.18310 0.72230 0.73420 0.12300
C 	C 	0.99630 0.51400 0.22010 -0.03600
C 	C 	0.23360 0.60530 0.86810 0.20900
C 	C 	0.33650 0.50650 0.39830 -0.01200
H 	H 	0.26340 0.50220 0.37080 0.04900
C 	C 	0.97030 0.47940 0.30620 0.21400
C 	C 	0.23860 0.66360 0.69360 -0.09900
H 	H 	0.26110 0.59590 0.71910 0.09300
C 	C 	0.46460 0.65560 0.09410 -0.05700
H 	H 	0.46220 0.58980 0.11060 0.08400
C 	C 	0.06810 0.60890 0.97740 -0.04400
H 	H 	0.99880 0.65080 0.94020 0.05100
C 	C 	0.03780 0.21520 0.58180 0.01500
H 	H 	0.03640 0.17430 0.63480 0.03000
C 	C 	0.99500 0.37540 0.48400 -0.10400
H 	H 	0.96740 0.44280 0.46930 0.08300
C 	C 	0.25980 0.70780 0.61440 -0.02100
H 	H 	0.29650 0.66990 0.58520 0.05100
C 	C 	0.99470 0.31350 0.56150 -0.02300
H 	H 	0.96510 0.33860 0.60030 0.04800
C 	C 	0.89090 0.57720 0.16510 -0.01200
H 	H 	0.80500 0.59820 0.18290 0.04900
C 	C 	0.44510 0.71580 0.01640 -0.12000
H 	H 	0.42550 0.69140 0.97920 0.09100
C 	C 	0.45400 0.81070 0.99220 0.09400
H 	H 	0.43980 0.85010 0.93860 0.00300
C 	C 	0.91220 0.60770 0.08710 -0.06700
H 	H 	0.84030 0.64900 0.05160 0.05800
Co	Co	0.50000 0.00000 -0.00000 1.09400
