data_crystal

_cell_length_a 29.39480
_cell_length_b 21.29380
_cell_length_c 28.61800
_cell_angle_alpha 90.00000
_cell_angle_beta  110.72200
_cell_angle_gamma 90.00000

_symmetry_space_group_name_	'P 1'
_symmetry_space_group_name_H-M	'P 1'

loop_
_symmetry_equiv_pos_as_xyz
  x,y,z

loop_
_atom_site_label
_atom_site_type_symbol
_atom_site_fract_x
_atom_site_fract_y
_atom_site_fract_z
_atom_site_charge
W 	W 	0.40681 0.31118 0.23972 1.01500
O 	O 	0.41440 0.25120 0.29030 -0.46100
O 	O 	0.35630 0.27020 0.19460 -0.45300
O 	O 	0.42630 0.35740 0.19230 -0.46100
O 	O 	0.47480 0.33960 0.29100 -0.45100
O 	O 	0.45930 0.24850 0.21740 -0.35000
W 	W 	0.45045 0.19145 0.33949 1.06300
W 	W 	0.30673 0.20308 0.15929 0.98900
W 	W 	0.46812 0.31901 0.16201 1.04400
O 	O 	0.50240 0.25180 0.35920 -0.46000
O 	O 	0.49190 0.12490 0.37430 -0.49600
O 	O 	0.48100 0.16480 0.28280 -0.27100
O 	O 	0.40200 0.12960 0.30620 -0.46500
O 	O 	0.31240 0.23560 0.09930 -0.48300
O 	O 	0.27730 0.13050 0.13050 -0.46300
O 	O 	0.32950 0.16510 0.22290 -0.46600
O 	O 	0.37500 0.15970 0.14910 -0.37600
O 	O 	0.40550 0.27340 0.11820 -0.48300
W 	W 	0.54679 0.08320 0.41727 1.37700
W 	W 	0.35004 0.08813 0.26033 1.01100
W 	W 	0.36733 0.21316 0.08089 1.34000
W 	W 	0.27720 0.03199 0.13231 1.33200
P 	P 	0.39160 0.09090 0.16287 0.58100
O 	O 	0.58260 0.16220 0.42270 -0.49800
O 	O 	0.51800 0.00550 0.39950 -0.49100
O 	O 	0.56310 0.07650 0.34980 -0.30400
O 	O 	0.60870 0.04630 0.44900 -0.48200
O 	O 	0.53320 0.09870 0.47150 -0.51200
O 	O 	0.39980 0.07990 0.21740 -0.26400
O 	O 	0.30560 0.04600 0.20020 -0.49400
O 	O 	0.37820 0.00880 0.28380 -0.46700
O 	O 	0.34850 0.24960 0.02220 -0.56100
O 	O 	0.32610 0.13380 0.04910 -0.46300
O 	O 	0.21510 0.03220 0.12360 -0.55000
O 	O 	0.26780 0.04010 0.06190 -0.47100
O 	O 	0.28730 0.94940 0.13550 -0.46300
O 	O 	0.34910 0.04850 0.12840 -0.37600
W 	W 	0.50980 0.91522 0.38786 1.36000
W 	W 	0.67676 0.04902 0.45798 0.98800
Cu	Cu	0.48153 0.14688 0.48804 0.89200
Cu	Cu	0.27802 0.08501 0.36189 0.77300
W 	W 	0.38647 0.92109 0.28817 1.00400
Cu	Cu	0.34742 0.31636 0.97338 0.85100
Cu	Cu	0.14840 0.06004 0.10103 0.87900
W 	W 	0.31445 0.86181 0.16503 1.01100
O 	O 	0.57770 0.90560 0.42200 -0.47900
O 	O 	0.53130 0.93900 0.32510 -0.29600
O 	O 	0.49270 0.90150 0.43950 -0.49400
O 	O 	0.50810 0.83200 0.36620 -0.48900
O 	O 	0.44750 0.93310 0.34150 -0.47800
O 	O 	0.66850 0.95610 0.44330 -0.45000
O 	O 	0.27710 0.99650 0.35570 -0.67700
N 	N 	0.34880 0.07740 0.40730 -0.22900
O 	O 	0.43090 0.93950 0.24210 -0.25900
O 	O 	0.33570 0.90810 0.22560 -0.47000
O 	O 	0.40620 0.83530 0.28300 -0.46300
O 	O 	0.16750 0.14420 0.09050 -0.60800
N 	N 	0.07850 0.07670 0.06660 -0.24600
N 	N 	0.12270 0.97190 0.10530 -0.23000
O 	O 	0.31090 0.84510 0.09830 -0.45600
O 	O 	0.35470 0.79760 0.19410 -0.46600
O 	O 	0.38110 0.90630 0.15440 -0.34700
W 	W 	0.64101 0.87889 0.42587 1.04000
P 	P 	0.56700 0.90683 0.30451 0.56800
W 	W 	0.54448 0.76602 0.34940 0.98200
Cu	Cu	0.32973 0.94330 0.38938 0.77700
H 	H 	0.24860 0.97790 0.33450 0.13800
N 	N 	0.37120 0.01990 0.40950 -0.23700
W 	W 	0.41861 0.76596 0.24844 1.00300
H 	H 	0.18520 0.16730 0.11860 0.15000
O 	O 	0.59970 0.80090 0.39060 -0.45200
O 	O 	0.55230 0.83750 0.29210 -0.34000
N 	N 	0.57140 0.91240 0.54970 -0.22700
N 	N 	0.57570 0.80260 0.51340 -0.19900
N 	N 	0.47430 0.77880 0.48870 -0.20000
O 	O 	0.57200 0.72300 0.30700 -0.45700
O 	O 	0.47950 0.75340 0.29170 -0.44400
N 	N 	0.08840 0.21410 0.02540 -0.24300
C 	C 	0.58210 0.97210 0.56490 0.10700
C 	C 	0.61760 0.88480 0.56760 0.03900
N 	N 	0.58450 0.74430 0.50120 -0.22300
C 	C 	0.61870 0.82040 0.54970 0.01400
N 	N 	0.48470 0.72390 0.47060 -0.20700
C 	C 	0.43030 0.77220 0.49040 0.07800
Cu	Cu	0.54385 0.67689 0.46778 0.83700
H 	H 	0.55920 0.00410 0.55810 -0.01100
C 	C 	0.62970 0.73010 0.52890 0.05600
N 	N 	0.65300 0.77700 0.56020 -0.16500
C 	C 	0.44630 0.68740 0.46250 0.03600
H 	H 	0.41400 0.80330 0.50110 -0.01600
N 	N 	0.60950 0.63290 0.49120 -0.23400
N 	N 	0.49740 0.60660 0.45100 -0.20900
C 	C 	0.64690 0.66810 0.52010 0.03500
C 	C 	0.45290 0.62300 0.44810 0.03900
C 	C 	0.61880 0.57400 0.48060 0.04900
N 	N 	0.49450 0.54510 0.43770 -0.16500
C 	C 	0.69450 0.64840 0.53740 -0.12100
C 	C 	0.66610 0.55030 0.49950 -0.13800
H 	H 	0.59360 0.54890 0.46050 -0.02900
H 	H 	0.51790 0.52190 0.43620 0.08300
C 	C 	0.44980 0.52800 0.42750 0.06000
H 	H 	0.71970 0.67500 0.55560 0.05500
C 	C 	0.70330 0.58810 0.52670 0.02900
H 	H 	0.67210 0.50870 0.49350 0.03800
C 	C 	0.42620 0.46850 0.41080 0.03200
H 	H 	0.73500 0.57280 0.53800 0.01800
C 	C 	0.44800 0.41290 0.40730 -0.14200
C 	C 	0.35110 0.42160 0.37540 0.07900
H 	H 	0.48170 0.41160 0.41650 0.04500
C 	C 	0.42280 0.36100 0.39130 0.05400
C 	C 	0.37330 0.36540 0.37460 -0.16500
H 	H 	0.31740 0.42440 0.36230 -0.02300
H 	H 	0.43820 0.32280 0.39150 -0.03000
H 	H 	0.35450 0.32980 0.36250 0.05200
Na	Na	0.52480 0.04040 0.20970 0.76900
O 	O 	0.51440 0.03970 0.22860 -0.70600
W 	W 	0.90681 0.81118 0.23972 1.01400
O 	O 	0.91440 0.75120 0.29030 -0.46200
O 	O 	0.85630 0.77020 0.19460 -0.45400
O 	O 	0.92630 0.85740 0.19230 -0.46200
O 	O 	0.97480 0.83960 0.29100 -0.44700
O 	O 	0.95930 0.74850 0.21740 -0.34700
W 	W 	0.95045 0.69145 0.33949 1.06600
W 	W 	0.80673 0.70308 0.15929 0.98800
W 	W 	0.96812 0.81901 0.16201 1.04900
O 	O 	0.00240 0.75180 0.35920 -0.46600
O 	O 	0.99190 0.62490 0.37430 -0.49100
O 	O 	0.98100 0.66480 0.28280 -0.26500
O 	O 	0.90200 0.62960 0.30620 -0.46600
O 	O 	0.81240 0.73560 0.09930 -0.48300
O 	O 	0.77730 0.63050 0.13050 -0.46400
O 	O 	0.82950 0.66510 0.22290 -0.46600
O 	O 	0.87500 0.65970 0.14910 -0.37600
O 	O 	0.90550 0.77340 0.11820 -0.48400
W 	W 	0.04679 0.58320 0.41727 1.37100
W 	W 	0.85004 0.58813 0.26033 1.01200
W 	W 	0.86733 0.71316 0.08089 1.34000
W 	W 	0.77720 0.53199 0.13231 1.33300
P 	P 	0.89160 0.59090 0.16287 0.58100
O 	O 	0.08260 0.66220 0.42270 -0.49900
O 	O 	0.01800 0.50550 0.39950 -0.49200
O 	O 	0.06310 0.57650 0.34980 -0.30500
O 	O 	0.10870 0.54630 0.44900 -0.48100
O 	O 	0.03320 0.59870 0.47150 -0.51400
O 	O 	0.89980 0.57990 0.21740 -0.26300
O 	O 	0.80560 0.54600 0.20020 -0.49400
O 	O 	0.87820 0.50880 0.28380 -0.46600
O 	O 	0.84850 0.74960 0.02220 -0.56100
O 	O 	0.82610 0.63380 0.04910 -0.46300
O 	O 	0.71510 0.53220 0.12360 -0.54900
O 	O 	0.76780 0.54010 0.06190 -0.47100
O 	O 	0.78730 0.44940 0.13550 -0.46300
O 	O 	0.84910 0.54850 0.12840 -0.37600
W 	W 	0.00980 0.41522 0.38786 1.34800
W 	W 	0.17676 0.54902 0.45798 0.98800
Cu	Cu	0.98153 0.64688 0.48804 0.89500
Cu	Cu	0.77802 0.58501 0.36189 0.77300
W 	W 	0.88647 0.42109 0.28817 1.00400
Cu	Cu	0.84742 0.81636 0.97338 0.85100
Cu	Cu	0.64840 0.56004 0.10103 0.87900
W 	W 	0.81445 0.36181 0.16503 1.01100
O 	O 	0.07770 0.40560 0.42200 -0.47800
O 	O 	0.03130 0.43900 0.32510 -0.29700
O 	O 	0.99270 0.40150 0.43950 -0.48700
O 	O 	0.00810 0.33200 0.36620 -0.49000
O 	O 	0.94750 0.43310 0.34150 -0.47300
O 	O 	0.16850 0.45610 0.44330 -0.44900
O 	O 	0.77710 0.49650 0.35570 -0.67600
N 	N 	0.84880 0.57740 0.40730 -0.22900
O 	O 	0.93090 0.43950 0.24210 -0.25800
O 	O 	0.83570 0.40810 0.22560 -0.47000
O 	O 	0.90620 0.33530 0.28300 -0.46200
O 	O 	0.66750 0.64420 0.09050 -0.60800
N 	N 	0.57850 0.57670 0.06660 -0.24600
N 	N 	0.62270 0.47190 0.10530 -0.23000
O 	O 	0.81090 0.34510 0.09830 -0.45600
O 	O 	0.85470 0.29760 0.19410 -0.46700
O 	O 	0.88110 0.40630 0.15440 -0.34800
W 	W 	0.14101 0.37889 0.42587 1.04000
P 	P 	0.06700 0.40683 0.30451 0.56800
W 	W 	0.04448 0.26602 0.34940 0.97600
Cu	Cu	0.82973 0.44330 0.38938 0.77700
H 	H 	0.74860 0.47790 0.33450 0.13800
N 	N 	0.87120 0.51990 0.40950 -0.23700
W 	W 	0.91861 0.26596 0.24844 1.00400
H 	H 	0.68520 0.66730 0.11860 0.15100
O 	O 	0.09970 0.30090 0.39060 -0.45100
O 	O 	0.05230 0.33750 0.29210 -0.34100
N 	N 	0.07140 0.41240 0.54970 -0.22800
N 	N 	0.07570 0.30260 0.51340 -0.20000
N 	N 	0.97430 0.27880 0.48870 -0.19900
O 	O 	0.07200 0.22300 0.30700 -0.45800
O 	O 	0.97950 0.25340 0.29170 -0.44000
N 	N 	0.58840 0.71410 0.02540 -0.24300
C 	C 	0.08210 0.47210 0.56490 0.10700
C 	C 	0.11760 0.38480 0.56760 0.03900
N 	N 	0.08450 0.24430 0.50120 -0.22300
C 	C 	0.11870 0.32040 0.54970 0.01400
N 	N 	0.98470 0.22390 0.47060 -0.20400
C 	C 	0.93030 0.27220 0.49040 0.07800
Cu	Cu	0.04385 0.17689 0.46778 0.83500
H 	H 	0.05920 0.50410 0.55810 -0.01200
C 	C 	0.12970 0.23010 0.52890 0.05600
N 	N 	0.15300 0.27700 0.56020 -0.16500
C 	C 	0.94630 0.18740 0.46250 0.03700
H 	H 	0.91400 0.30330 0.50110 -0.01600
N 	N 	0.10950 0.13290 0.49120 -0.23400
N 	N 	0.99740 0.10660 0.45100 -0.20700
C 	C 	0.14690 0.16810 0.52010 0.03500
C 	C 	0.95290 0.12300 0.44810 0.04000
C 	C 	0.11880 0.07400 0.48060 0.04900
N 	N 	0.99450 0.04510 0.43770 -0.15900
C 	C 	0.19450 0.14840 0.53740 -0.12100
C 	C 	0.16610 0.05030 0.49950 -0.13800
H 	H 	0.09360 0.04890 0.46050 -0.03000
H 	H 	0.01790 0.02190 0.43620 0.07600
C 	C 	0.94980 0.02800 0.42750 0.05900
H 	H 	0.21970 0.17500 0.55560 0.05500
C 	C 	0.20330 0.08810 0.52670 0.02900
H 	H 	0.17210 0.00870 0.49350 0.03800
C 	C 	0.92620 0.96850 0.41080 0.03400
H 	H 	0.23500 0.07280 0.53800 0.01800
C 	C 	0.94800 0.91290 0.40730 -0.14300
C 	C 	0.85110 0.92160 0.37540 0.08000
H 	H 	0.98170 0.91160 0.41650 0.04800
C 	C 	0.92280 0.86100 0.39130 0.05500
C 	C 	0.87330 0.86540 0.37460 -0.16600
H 	H 	0.81740 0.92440 0.36230 -0.02400
H 	H 	0.93820 0.82280 0.39150 -0.02900
H 	H 	0.85450 0.82980 0.36250 0.05200
Na	Na	0.02480 0.54040 0.20970 0.77000
O 	O 	0.01440 0.53970 0.22860 -0.71000
W 	W 	0.59319 0.31118 0.26028 1.01400
O 	O 	0.58560 0.25120 0.20970 -0.46200
O 	O 	0.64370 0.27020 0.30540 -0.45400
O 	O 	0.57370 0.35740 0.30770 -0.46200
O 	O 	0.52520 0.33960 0.20900 -0.45200
O 	O 	0.54070 0.24850 0.28260 -0.35100
W 	W 	0.54955 0.19145 0.16051 1.06200
W 	W 	0.69327 0.20308 0.34071 0.98800
W 	W 	0.53188 0.31901 0.33799 1.04300
O 	O 	0.49760 0.25180 0.14080 -0.46100
O 	O 	0.50810 0.12490 0.12570 -0.49600
O 	O 	0.51900 0.16480 0.21720 -0.27100
O 	O 	0.59800 0.12960 0.19380 -0.46500
O 	O 	0.68760 0.23560 0.40070 -0.48300
O 	O 	0.72270 0.13050 0.36950 -0.46300
O 	O 	0.67050 0.16510 0.27710 -0.46600
O 	O 	0.62500 0.15970 0.35090 -0.37600
O 	O 	0.59450 0.27340 0.38180 -0.48300
W 	W 	0.45321 0.08320 0.08273 1.37700
W 	W 	0.64996 0.08813 0.23967 1.01200
W 	W 	0.63267 0.21316 0.41911 1.34000
W 	W 	0.72280 0.03199 0.36769 1.33300
P 	P 	0.60840 0.09090 0.33713 0.58100
O 	O 	0.41740 0.16220 0.07730 -0.49800
O 	O 	0.48200 0.00550 0.10050 -0.49100
O 	O 	0.43690 0.07650 0.15020 -0.30400
O 	O 	0.39130 0.04630 0.05100 -0.48200
O 	O 	0.46680 0.09870 0.02850 -0.51200
O 	O 	0.60020 0.07990 0.28260 -0.26400
O 	O 	0.69440 0.04600 0.29980 -0.49400
O 	O 	0.62180 0.00880 0.21620 -0.46700
O 	O 	0.65150 0.24960 0.47780 -0.56100
O 	O 	0.67390 0.13380 0.45090 -0.46300
O 	O 	0.78490 0.03220 0.37640 -0.54900
O 	O 	0.73220 0.04010 0.43810 -0.47100
O 	O 	0.71270 0.94940 0.36450 -0.46300
O 	O 	0.65090 0.04850 0.37160 -0.37600
W 	W 	0.49020 0.91522 0.11214 1.36100
W 	W 	0.32324 0.04902 0.04202 0.98800
Cu	Cu	0.51847 0.14688 0.01196 0.89200
Cu	Cu	0.72198 0.08501 0.13811 0.77300
W 	W 	0.61353 0.92109 0.21183 1.00400
Cu	Cu	0.65258 0.31636 0.52662 0.85100
Cu	Cu	0.85160 0.06004 0.39897 0.87900
W 	W 	0.68555 0.86181 0.33497 1.01100
O 	O 	0.42230 0.90560 0.07800 -0.47900
O 	O 	0.46870 0.93900 0.17490 -0.29600
O 	O 	0.50730 0.90150 0.06050 -0.49400
O 	O 	0.49190 0.83200 0.13380 -0.48900
O 	O 	0.55250 0.93310 0.15850 -0.47800
O 	O 	0.33150 0.95610 0.05670 -0.44900
O 	O 	0.72290 0.99650 0.14430 -0.67600
N 	N 	0.65120 0.07740 0.09270 -0.22900
O 	O 	0.56910 0.93950 0.25790 -0.25900
O 	O 	0.66430 0.90810 0.27440 -0.47000
O 	O 	0.59380 0.83530 0.21700 -0.46300
O 	O 	0.83250 0.14420 0.40950 -0.60800
N 	N 	0.92150 0.07670 0.43340 -0.24600
N 	N 	0.87730 0.97190 0.39470 -0.23100
O 	O 	0.68910 0.84510 0.40170 -0.45600
O 	O 	0.64530 0.79760 0.30590 -0.46600
O 	O 	0.61890 0.90630 0.34560 -0.34700
W 	W 	0.35899 0.87889 0.07413 1.04100
P 	P 	0.43300 0.90683 0.19549 0.56900
W 	W 	0.45552 0.76602 0.15060 0.98200
Cu	Cu	0.67027 0.94330 0.11062 0.77700
H 	H 	0.75140 0.97790 0.16550 0.13800
N 	N 	0.62880 0.01990 0.09050 -0.23700
W 	W 	0.58139 0.76596 0.25156 1.00300
H 	H 	0.81480 0.16730 0.38140 0.15100
O 	O 	0.40030 0.80090 0.10940 -0.45200
O 	O 	0.44770 0.83750 0.20790 -0.34000
N 	N 	0.42860 0.91240 0.95030 -0.22700
N 	N 	0.42430 0.80260 0.98660 -0.19900
N 	N 	0.52570 0.77880 0.01130 -0.20000
O 	O 	0.42800 0.72300 0.19300 -0.45700
O 	O 	0.52050 0.75340 0.20830 -0.44400
N 	N 	0.91160 0.21410 0.47460 -0.24300
C 	C 	0.41790 0.97210 0.93510 0.10600
C 	C 	0.38240 0.88480 0.93240 0.03900
N 	N 	0.41550 0.74430 0.99880 -0.22300
C 	C 	0.38130 0.82040 0.95030 0.01400
N 	N 	0.51530 0.72390 0.02940 -0.20700
C 	C 	0.56970 0.77220 0.00960 0.07900
Cu	Cu	0.45615 0.67689 0.03222 0.83700
H 	H 	0.44080 0.00410 0.94190 -0.01000
C 	C 	0.37030 0.73010 0.97110 0.05600
N 	N 	0.34700 0.77700 0.93980 -0.16500
C 	C 	0.55370 0.68740 0.03750 0.03700
H 	H 	0.58600 0.80330 0.99890 -0.01700
N 	N 	0.39050 0.63290 0.00880 -0.23300
N 	N 	0.50260 0.60660 0.04900 -0.20900
C 	C 	0.35310 0.66810 0.97990 0.03400
C 	C 	0.54710 0.62300 0.05190 0.03900
C 	C 	0.38120 0.57400 0.01940 0.04800
N 	N 	0.50550 0.54510 0.06230 -0.16500
C 	C 	0.30550 0.64840 0.96260 -0.11900
C 	C 	0.33390 0.55030 0.00050 -0.13500
H 	H 	0.40640 0.54890 0.03950 -0.02900
H 	H 	0.48210 0.52190 0.06380 0.08400
C 	C 	0.55020 0.52800 0.07250 0.06000
H 	H 	0.28030 0.67500 0.94440 0.05400
C 	C 	0.29670 0.58810 0.97330 0.02600
H 	H 	0.32790 0.50870 0.00650 0.03700
C 	C 	0.57380 0.46850 0.08920 0.03200
H 	H 	0.26500 0.57280 0.96200 0.01900
C 	C 	0.55200 0.41290 0.09270 -0.14200
C 	C 	0.64890 0.42160 0.12460 0.07900
H 	H 	0.51830 0.41160 0.08350 0.04500
C 	C 	0.57720 0.36100 0.10870 0.05400
C 	C 	0.62670 0.36540 0.12540 -0.16500
H 	H 	0.68260 0.42440 0.13770 -0.02300
H 	H 	0.56180 0.32280 0.10850 -0.03000
H 	H 	0.64550 0.32980 0.13750 0.05200
Na	Na	0.47520 0.04040 0.29030 0.76900
O 	O 	0.48560 0.03970 0.27140 -0.70600
W 	W 	0.09319 0.81118 0.26028 1.01300
O 	O 	0.08560 0.75120 0.20970 -0.46200
O 	O 	0.14370 0.77020 0.30540 -0.45400
O 	O 	0.07370 0.85740 0.30770 -0.46200
O 	O 	0.02520 0.83960 0.20900 -0.45700
O 	O 	0.04070 0.74850 0.28260 -0.35100
W 	W 	0.04955 0.69145 0.16051 1.05700
W 	W 	0.19327 0.70308 0.34071 0.98800
W 	W 	0.03188 0.81901 0.33799 1.03500
O 	O 	0.99760 0.75180 0.14080 -0.45700
O 	O 	0.00810 0.62490 0.12570 -0.50000
O 	O 	0.01900 0.66480 0.21720 -0.27100
O 	O 	0.09800 0.62960 0.19380 -0.46500
O 	O 	0.18760 0.73560 0.40070 -0.48300
O 	O 	0.22270 0.63050 0.36950 -0.46400
O 	O 	0.17050 0.66510 0.27710 -0.46600
O 	O 	0.12500 0.65970 0.35090 -0.37700
O 	O 	0.09450 0.77340 0.38180 -0.48200
W 	W 	0.95321 0.58320 0.08273 1.38200
W 	W 	0.14996 0.58813 0.23967 1.01100
W 	W 	0.13267 0.71316 0.41911 1.33900
W 	W 	0.22280 0.53199 0.36769 1.33300
P 	P 	0.10840 0.59090 0.33713 0.58100
O 	O 	0.91740 0.66220 0.07730 -0.49800
O 	O 	0.98200 0.50550 0.10050 -0.49000
O 	O 	0.93690 0.57650 0.15020 -0.30200
O 	O 	0.89130 0.54630 0.05100 -0.48200
O 	O 	0.96680 0.59870 0.02850 -0.51100
O 	O 	0.10020 0.57990 0.28260 -0.26400
O 	O 	0.19440 0.54600 0.29980 -0.49400
O 	O 	0.12180 0.50880 0.21620 -0.46600
O 	O 	0.15150 0.74960 0.47780 -0.56100
O 	O 	0.17390 0.63380 0.45090 -0.46300
O 	O 	0.28490 0.53220 0.37640 -0.54900
O 	O 	0.23220 0.54010 0.43810 -0.47100
O 	O 	0.21270 0.44940 0.36450 -0.46300
O 	O 	0.15090 0.54850 0.37160 -0.37600
W 	W 	0.99020 0.41522 0.11214 1.37100
W 	W 	0.82324 0.54902 0.04202 0.98800
Cu	Cu	0.01847 0.64688 0.01196 0.88900
Cu	Cu	0.22198 0.58501 0.13811 0.77300
W 	W 	0.11353 0.42109 0.21183 1.00400
Cu	Cu	0.15258 0.81636 0.52662 0.85100
Cu	Cu	0.35160 0.56004 0.39897 0.87900
W 	W 	0.18555 0.36181 0.33497 1.01100
O 	O 	0.92230 0.40560 0.07800 -0.48000
O 	O 	0.96870 0.43900 0.17490 -0.29500
O 	O 	0.00730 0.40150 0.06050 -0.50100
O 	O 	0.99190 0.33200 0.13380 -0.48800
O 	O 	0.05250 0.43310 0.15850 -0.48200
O 	O 	0.83150 0.45610 0.05670 -0.45000
O 	O 	0.22290 0.49650 0.14430 -0.67600
N 	N 	0.15120 0.57740 0.09270 -0.22900
O 	O 	0.06910 0.43950 0.25790 -0.26000
O 	O 	0.16430 0.40810 0.27440 -0.47000
O 	O 	0.09380 0.33530 0.21700 -0.46400
O 	O 	0.33250 0.64420 0.40950 -0.60800
N 	N 	0.42150 0.57670 0.43340 -0.24600
N 	N 	0.37730 0.47190 0.39470 -0.23000
O 	O 	0.18910 0.34510 0.40170 -0.45500
O 	O 	0.14530 0.29760 0.30590 -0.46600
O 	O 	0.11890 0.40630 0.34560 -0.34700
W 	W 	0.85899 0.37889 0.07413 1.04100
P 	P 	0.93300 0.40683 0.19549 0.56900
W 	W 	0.95552 0.26602 0.15060 0.98700
Cu	Cu	0.17027 0.44330 0.11062 0.77700
H 	H 	0.25140 0.47790 0.16550 0.13800
N 	N 	0.12880 0.51990 0.09050 -0.23700
W 	W 	0.08139 0.26596 0.25156 1.00200
H 	H 	0.31480 0.66730 0.38140 0.15100
O 	O 	0.90030 0.30090 0.10940 -0.45200
O 	O 	0.94770 0.33750 0.20790 -0.33900
N 	N 	0.92860 0.41240 0.95030 -0.22600
N 	N 	0.92430 0.30260 0.98660 -0.19800
N 	N 	0.02570 0.27880 0.01130 -0.20300
O 	O 	0.92800 0.22300 0.19300 -0.45700
O 	O 	0.02050 0.25340 0.20830 -0.44900
N 	N 	0.41160 0.71410 0.47460 -0.24300
C 	C 	0.91790 0.47210 0.93510 0.10800
C 	C 	0.88240 0.38480 0.93240 0.03900
N 	N 	0.91550 0.24430 0.99880 -0.22200
C 	C 	0.88130 0.32040 0.95030 0.01400
N 	N 	0.01530 0.22390 0.02940 -0.20900
C 	C 	0.06970 0.27220 0.00960 0.07900
Cu	Cu	0.95615 0.17689 0.03222 0.83900
H 	H 	0.94080 0.50410 0.94190 -0.01000
C 	C 	0.87030 0.23010 0.97110 0.05600
N 	N 	0.84700 0.27700 0.93980 -0.16500
C 	C 	0.05370 0.18740 0.03750 0.03600
H 	H 	0.08600 0.30330 0.99890 -0.01800
N 	N 	0.89050 0.13290 0.00880 -0.23400
N 	N 	0.00260 0.10660 0.04900 -0.21100
C 	C 	0.85310 0.16810 0.97990 0.03700
C 	C 	0.04710 0.12300 0.05190 0.03800
C 	C 	0.88120 0.07400 0.01940 0.05100
N 	N 	0.00550 0.04510 0.06230 -0.17100
C 	C 	0.80550 0.14840 0.96260 -0.12300
C 	C 	0.83390 0.05030 0.00050 -0.14100
H 	H 	0.90640 0.04890 0.03950 -0.02900
H 	H 	0.98210 0.02190 0.06380 0.08900
C 	C 	0.05020 0.02800 0.07250 0.05900
H 	H 	0.78030 0.17500 0.94440 0.05600
C 	C 	0.79670 0.08810 0.97330 0.03300
H 	H 	0.82790 0.00870 0.00650 0.03900
C 	C 	0.07380 0.96850 0.08920 0.03000
H 	H 	0.76500 0.07280 0.96200 0.01700
C 	C 	0.05200 0.91290 0.09270 -0.14200
C 	C 	0.14890 0.92160 0.12460 0.07900
H 	H 	0.01830 0.91160 0.08350 0.04200
C 	C 	0.07720 0.86100 0.10870 0.05300
C 	C 	0.12670 0.86540 0.12540 -0.16400
H 	H 	0.18260 0.92440 0.13770 -0.02300
H 	H 	0.06180 0.82280 0.10850 -0.03100
H 	H 	0.14550 0.82980 0.13750 0.05100
Na	Na	0.97520 0.54040 0.29030 0.76900
O 	O 	0.98560 0.53970 0.27140 -0.70000
W 	W 	0.59319 0.68882 0.76028 1.01400
O 	O 	0.58560 0.74880 0.70970 -0.46200
O 	O 	0.64370 0.72980 0.80540 -0.45400
O 	O 	0.57370 0.64260 0.80770 -0.46200
O 	O 	0.52520 0.66040 0.70900 -0.45200
O 	O 	0.54070 0.75150 0.78260 -0.35100
W 	W 	0.54955 0.80855 0.66051 1.06200
W 	W 	0.69327 0.79692 0.84071 0.98800
W 	W 	0.53188 0.68099 0.83799 1.04300
O 	O 	0.49760 0.74820 0.64080 -0.46100
O 	O 	0.50810 0.87510 0.62570 -0.49600
O 	O 	0.51900 0.83520 0.71720 -0.27100
O 	O 	0.59800 0.87040 0.69380 -0.46500
O 	O 	0.68760 0.76440 0.90070 -0.48300
O 	O 	0.72270 0.86950 0.86950 -0.46300
O 	O 	0.67050 0.83490 0.77710 -0.46600
O 	O 	0.62500 0.84030 0.85090 -0.37600
O 	O 	0.59450 0.72660 0.88180 -0.48300
W 	W 	0.45321 0.91680 0.58273 1.37700
W 	W 	0.64996 0.91187 0.73967 1.01200
W 	W 	0.63267 0.78684 0.91911 1.34000
W 	W 	0.72280 0.96801 0.86769 1.33200
P 	P 	0.60840 0.90910 0.83713 0.58100
O 	O 	0.41740 0.83780 0.57730 -0.49800
O 	O 	0.48200 0.99450 0.60050 -0.49100
O 	O 	0.43690 0.92350 0.65020 -0.30400
O 	O 	0.39130 0.95370 0.55100 -0.48100
O 	O 	0.46680 0.90130 0.52850 -0.51200
O 	O 	0.60020 0.92010 0.78260 -0.26400
O 	O 	0.69440 0.95400 0.79980 -0.49400
O 	O 	0.62180 0.99120 0.71620 -0.46700
O 	O 	0.65150 0.75040 0.97780 -0.56100
O 	O 	0.67390 0.86620 0.95090 -0.46300
O 	O 	0.78490 0.96780 0.87640 -0.54900
O 	O 	0.73220 0.95990 0.93810 -0.47100
O 	O 	0.71270 0.05060 0.86450 -0.46300
O 	O 	0.65090 0.95150 0.87160 -0.37600
W 	W 	0.49020 0.08478 0.61214 1.36000
W 	W 	0.32324 0.95098 0.54202 0.98800
Cu	Cu	0.51847 0.85312 0.51196 0.89200
Cu	Cu	0.72198 0.91499 0.63811 0.77300
W 	W 	0.61353 0.07891 0.71183 1.00400
Cu	Cu	0.65258 0.68364 0.02662 0.85100
Cu	Cu	0.85160 0.93996 0.89897 0.87900
W 	W 	0.68555 0.13819 0.83497 1.01100
O 	O 	0.42230 0.09440 0.57800 -0.47900
O 	O 	0.46870 0.06100 0.67490 -0.29600
O 	O 	0.50730 0.09850 0.56050 -0.49400
O 	O 	0.49190 0.16800 0.63380 -0.48900
O 	O 	0.55250 0.06690 0.65850 -0.47800
O 	O 	0.33150 0.04390 0.55670 -0.45000
O 	O 	0.72290 0.00350 0.64430 -0.67700
N 	N 	0.65120 0.92260 0.59270 -0.22900
O 	O 	0.56910 0.06050 0.75790 -0.25900
O 	O 	0.66430 0.09190 0.77440 -0.47000
O 	O 	0.59380 0.16470 0.71700 -0.46300
O 	O 	0.83250 0.85580 0.90950 -0.60800
N 	N 	0.92150 0.92330 0.93340 -0.24600
N 	N 	0.87730 0.02810 0.89470 -0.23100
O 	O 	0.68910 0.15490 0.90170 -0.45600
O 	O 	0.64530 0.20240 0.80590 -0.46600
O 	O 	0.61890 0.09370 0.84560 -0.34700
W 	W 	0.35899 0.12111 0.57413 1.04000
P 	P 	0.43300 0.09317 0.69549 0.56800
W 	W 	0.45552 0.23398 0.65060 0.98200
Cu	Cu	0.67027 0.05670 0.61062 0.77700
H 	H 	0.75140 0.02210 0.66550 0.13800
N 	N 	0.62880 0.98010 0.59050 -0.23700
W 	W 	0.58139 0.23404 0.75156 1.00300
H 	H 	0.81480 0.83270 0.88140 0.15100
O 	O 	0.40030 0.19910 0.60940 -0.45200
O 	O 	0.44770 0.16250 0.70790 -0.34000
N 	N 	0.42860 0.08760 0.45030 -0.22700
N 	N 	0.42430 0.19740 0.48660 -0.19900
N 	N 	0.52570 0.22120 0.51130 -0.20000
O 	O 	0.42800 0.27700 0.69300 -0.45700
O 	O 	0.52050 0.24660 0.70830 -0.44400
N 	N 	0.91160 0.78590 0.97460 -0.24300
C 	C 	0.41790 0.02790 0.43510 0.10700
C 	C 	0.38240 0.11520 0.43240 0.03900
N 	N 	0.41550 0.25570 0.49880 -0.22300
C 	C 	0.38130 0.17960 0.45030 0.01400
N 	N 	0.51530 0.27610 0.52940 -0.20700
C 	C 	0.56970 0.22780 0.50960 0.07800
Cu	Cu	0.45615 0.32311 0.53222 0.83700
H 	H 	0.44080 0.99590 0.44190 -0.01100
C 	C 	0.37030 0.26990 0.47110 0.05600
N 	N 	0.34700 0.22300 0.43980 -0.16500
C 	C 	0.55370 0.31260 0.53750 0.03600
H 	H 	0.58600 0.19670 0.49890 -0.01600
N 	N 	0.39050 0.36710 0.50880 -0.23300
N 	N 	0.50260 0.39340 0.54900 -0.20900
C 	C 	0.35310 0.33190 0.47990 0.03500
C 	C 	0.54710 0.37700 0.55190 0.03900
C 	C 	0.38120 0.42600 0.51940 0.04900
N 	N 	0.50550 0.45490 0.56230 -0.16500
C 	C 	0.30550 0.35160 0.46260 -0.12100
C 	C 	0.33390 0.44970 0.50050 -0.13800
H 	H 	0.40640 0.45110 0.53950 -0.02900
H 	H 	0.48210 0.47810 0.56380 0.08300
C 	C 	0.55020 0.47200 0.57250 0.06000
H 	H 	0.28030 0.32500 0.44440 0.05500
C 	C 	0.29670 0.41190 0.47330 0.02900
H 	H 	0.32790 0.49130 0.50650 0.03800
C 	C 	0.57380 0.53150 0.58920 0.03200
H 	H 	0.26500 0.42720 0.46200 0.01800
C 	C 	0.55200 0.58710 0.59270 -0.14200
C 	C 	0.64890 0.57840 0.62460 0.07900
H 	H 	0.51830 0.58840 0.58350 0.04500
C 	C 	0.57720 0.63900 0.60870 0.05400
C 	C 	0.62670 0.63460 0.62540 -0.16500
H 	H 	0.68260 0.57560 0.63770 -0.02300
H 	H 	0.56180 0.67720 0.60850 -0.03000
H 	H 	0.64550 0.67020 0.63750 0.05200
Na	Na	0.47520 0.95960 0.79030 0.76900
O 	O 	0.48560 0.96030 0.77140 -0.70600
W 	W 	0.09319 0.18882 0.76028 1.01300
O 	O 	0.08560 0.24880 0.70970 -0.46200
O 	O 	0.14370 0.22980 0.80540 -0.45400
O 	O 	0.07370 0.14260 0.80770 -0.46200
O 	O 	0.02520 0.16040 0.70900 -0.45800
O 	O 	0.04070 0.25150 0.78260 -0.35100
W 	W 	0.04955 0.30855 0.66051 1.05600
W 	W 	0.19327 0.29692 0.84071 0.98800
W 	W 	0.03188 0.18099 0.83799 1.03400
O 	O 	0.99760 0.24820 0.64080 -0.45700
O 	O 	0.00810 0.37510 0.62570 -0.50100
O 	O 	0.01900 0.33520 0.71720 -0.27100
O 	O 	0.09800 0.37040 0.69380 -0.46500
O 	O 	0.18760 0.26440 0.90070 -0.48300
O 	O 	0.22270 0.36950 0.86950 -0.46400
O 	O 	0.17050 0.33490 0.77710 -0.46600
O 	O 	0.12500 0.34030 0.85090 -0.37700
O 	O 	0.09450 0.22660 0.88180 -0.48200
W 	W 	0.95321 0.41680 0.58273 1.38300
W 	W 	0.14996 0.41187 0.73967 1.01100
W 	W 	0.13267 0.28684 0.91911 1.33900
W 	W 	0.22280 0.46801 0.86769 1.33300
P 	P 	0.10840 0.40910 0.83713 0.58100
O 	O 	0.91740 0.33780 0.57730 -0.49800
O 	O 	0.98200 0.49450 0.60050 -0.49000
O 	O 	0.93690 0.42350 0.65020 -0.30200
O 	O 	0.89130 0.45370 0.55100 -0.48200
O 	O 	0.96680 0.40130 0.52850 -0.51000
O 	O 	0.10020 0.42010 0.78260 -0.26400
O 	O 	0.19440 0.45400 0.79980 -0.49400
O 	O 	0.12180 0.49120 0.71620 -0.46600
O 	O 	0.15150 0.25040 0.97780 -0.56100
O 	O 	0.17390 0.36620 0.95090 -0.46300
O 	O 	0.28490 0.46780 0.87640 -0.54900
O 	O 	0.23220 0.45990 0.93810 -0.47100
O 	O 	0.21270 0.55060 0.86450 -0.46300
O 	O 	0.15090 0.45150 0.87160 -0.37500
W 	W 	0.99020 0.58478 0.61214 1.37300
W 	W 	0.82324 0.45098 0.54202 0.98800
Cu	Cu	0.01847 0.35312 0.51196 0.88800
Cu	Cu	0.22198 0.41499 0.63811 0.77300
W 	W 	0.11353 0.57891 0.71183 1.00400
Cu	Cu	0.15258 0.18364 0.02662 0.85100
Cu	Cu	0.35160 0.43996 0.89897 0.87900
W 	W 	0.18555 0.63819 0.83497 1.01100
O 	O 	0.92230 0.59440 0.57800 -0.48100
O 	O 	0.96870 0.56100 0.67490 -0.29500
O 	O 	0.00730 0.59850 0.56050 -0.50200
O 	O 	0.99190 0.66800 0.63380 -0.48700
O 	O 	0.05250 0.56690 0.65850 -0.48300
O 	O 	0.83150 0.54390 0.55670 -0.45000
O 	O 	0.22290 0.50350 0.64430 -0.67600
N 	N 	0.15120 0.42260 0.59270 -0.22900
O 	O 	0.06910 0.56050 0.75790 -0.26000
O 	O 	0.16430 0.59190 0.77440 -0.47000
O 	O 	0.09380 0.66470 0.71700 -0.46400
O 	O 	0.33250 0.35580 0.90950 -0.60800
N 	N 	0.42150 0.42330 0.93340 -0.24600
N 	N 	0.37730 0.52810 0.89470 -0.23000
O 	O 	0.18910 0.65490 0.90170 -0.45600
O 	O 	0.14530 0.70240 0.80590 -0.46600
O 	O 	0.11890 0.59370 0.84560 -0.34700
W 	W 	0.85899 0.62111 0.57413 1.04100
P 	P 	0.93300 0.59317 0.69549 0.56900
W 	W 	0.95552 0.73398 0.65060 0.98800
Cu	Cu	0.17027 0.55670 0.61062 0.77700
H 	H 	0.25140 0.52210 0.66550 0.13800
N 	N 	0.12880 0.48010 0.59050 -0.23700
W 	W 	0.08139 0.73404 0.75156 1.00200
H 	H 	0.31480 0.33270 0.88140 0.15100
O 	O 	0.90030 0.69910 0.60940 -0.45300
O 	O 	0.94770 0.66250 0.70790 -0.33900
N 	N 	0.92860 0.58760 0.45030 -0.22600
N 	N 	0.92430 0.69740 0.48660 -0.19800
N 	N 	0.02570 0.72120 0.51130 -0.20200
O 	O 	0.92800 0.77700 0.69300 -0.45700
O 	O 	0.02050 0.74660 0.70830 -0.45000
N 	N 	0.41160 0.28590 0.97460 -0.24300
C 	C 	0.91790 0.52790 0.43510 0.10800
C 	C 	0.88240 0.61520 0.43240 0.03900
N 	N 	0.91550 0.75570 0.49880 -0.22200
C 	C 	0.88130 0.67960 0.45030 0.01400
N 	N 	0.01530 0.77610 0.52940 -0.20900
C 	C 	0.06970 0.72780 0.50960 0.07700
Cu	Cu	0.95615 0.82311 0.53222 0.84000
H 	H 	0.94080 0.49590 0.44190 -0.01000
C 	C 	0.87030 0.76990 0.47110 0.05600
N 	N 	0.84700 0.72300 0.43980 -0.16500
C 	C 	0.05370 0.81260 0.53750 0.03600
H 	H 	0.08600 0.69670 0.49890 -0.01600
N 	N 	0.89050 0.86710 0.50880 -0.23300
N 	N 	0.00260 0.89340 0.54900 -0.21200
C 	C 	0.85310 0.83190 0.47990 0.03600
C 	C 	0.04710 0.87700 0.55190 0.03800
C 	C 	0.88120 0.92600 0.51940 0.04900
N 	N 	0.00550 0.95490 0.56230 -0.17200
C 	C 	0.80550 0.85160 0.46260 -0.12100
C 	C 	0.83390 0.94970 0.50050 -0.13800
H 	H 	0.90640 0.95110 0.53950 -0.02900
H 	H 	0.98210 0.97810 0.56380 0.09000
C 	C 	0.05020 0.97200 0.57250 0.06000
H 	H 	0.78030 0.82500 0.44440 0.05500
C 	C 	0.79670 0.91190 0.47330 0.02900
H 	H 	0.82790 0.99130 0.50650 0.03800
C 	C 	0.07380 0.03150 0.58920 0.02900
H 	H 	0.76500 0.92720 0.46200 0.01800
C 	C 	0.05200 0.08710 0.59270 -0.14100
C 	C 	0.14890 0.07840 0.62460 0.07800
H 	H 	0.01830 0.08840 0.58350 0.04100
C 	C 	0.07720 0.13900 0.60870 0.05200
C 	C 	0.12670 0.13460 0.62540 -0.16400
H 	H 	0.18260 0.07560 0.63770 -0.02300
H 	H 	0.06180 0.17720 0.60850 -0.03100
H 	H 	0.14550 0.17020 0.63750 0.05100
Na	Na	0.97520 0.45960 0.79030 0.76900
O 	O 	0.98560 0.46030 0.77140 -0.70000
W 	W 	0.40681 0.68882 0.73972 1.01400
O 	O 	0.41440 0.74880 0.79030 -0.46200
O 	O 	0.35630 0.72980 0.69460 -0.45400
O 	O 	0.42630 0.64260 0.69230 -0.46200
O 	O 	0.47480 0.66040 0.79100 -0.45200
O 	O 	0.45930 0.75150 0.71740 -0.35100
W 	W 	0.45045 0.80855 0.83949 1.06200
W 	W 	0.30673 0.79692 0.65929 0.98800
W 	W 	0.46812 0.68099 0.66201 1.04300
O 	O 	0.50240 0.74820 0.85920 -0.46100
O 	O 	0.49190 0.87510 0.87430 -0.49600
O 	O 	0.48100 0.83520 0.78280 -0.27100
O 	O 	0.40200 0.87040 0.80620 -0.46500
O 	O 	0.31240 0.76440 0.59930 -0.48300
O 	O 	0.27730 0.86950 0.63050 -0.46400
O 	O 	0.32950 0.83490 0.72290 -0.46600
O 	O 	0.37500 0.84030 0.64910 -0.37600
O 	O 	0.40550 0.72660 0.61820 -0.48300
W 	W 	0.54679 0.91680 0.91727 1.37700
W 	W 	0.35004 0.91187 0.76033 1.01100
W 	W 	0.36733 0.78684 0.58089 1.34000
W 	W 	0.27720 0.96801 0.63231 1.33300
P 	P 	0.39160 0.90910 0.66287 0.58100
O 	O 	0.58260 0.83780 0.92270 -0.49800
O 	O 	0.51800 0.99450 0.89950 -0.49100
O 	O 	0.56310 0.92350 0.84980 -0.30400
O 	O 	0.60870 0.95370 0.94900 -0.48200
O 	O 	0.53320 0.90130 0.97150 -0.51200
O 	O 	0.39980 0.92010 0.71740 -0.26400
O 	O 	0.30560 0.95400 0.70020 -0.49400
O 	O 	0.37820 0.99120 0.78380 -0.46700
O 	O 	0.34850 0.75040 0.52220 -0.56100
O 	O 	0.32610 0.86620 0.54910 -0.46300
O 	O 	0.21510 0.96780 0.62360 -0.55000
O 	O 	0.26780 0.95990 0.56190 -0.47100
O 	O 	0.28730 0.05060 0.63550 -0.46300
O 	O 	0.34910 0.95150 0.62840 -0.37600
W 	W 	0.50980 0.08478 0.88786 1.36100
W 	W 	0.67676 0.95098 0.95798 0.98800
Cu	Cu	0.48153 0.85312 0.98804 0.89200
Cu	Cu	0.27802 0.91499 0.86189 0.77300
W 	W 	0.38647 0.07891 0.78817 1.00400
Cu	Cu	0.34742 0.68364 0.47338 0.85100
Cu	Cu	0.14840 0.93996 0.60103 0.87900
W 	W 	0.31445 0.13819 0.66503 1.01100
O 	O 	0.57770 0.09440 0.92200 -0.47900
O 	O 	0.53130 0.06100 0.82510 -0.29600
O 	O 	0.49270 0.09850 0.93950 -0.49400
O 	O 	0.50810 0.16800 0.86620 -0.48900
O 	O 	0.44750 0.06690 0.84150 -0.47800
O 	O 	0.66850 0.04390 0.94330 -0.44900
O 	O 	0.27710 0.00350 0.85570 -0.67700
N 	N 	0.34880 0.92260 0.90730 -0.22900
O 	O 	0.43090 0.06050 0.74210 -0.25900
O 	O 	0.33570 0.09190 0.72560 -0.47000
O 	O 	0.40620 0.16470 0.78300 -0.46300
O 	O 	0.16750 0.85580 0.59050 -0.60800
N 	N 	0.07850 0.92330 0.56660 -0.24600
N 	N 	0.12270 0.02810 0.60530 -0.23000
O 	O 	0.31090 0.15490 0.59830 -0.45600
O 	O 	0.35470 0.20240 0.69410 -0.46600
O 	O 	0.38110 0.09370 0.65440 -0.34700
W 	W 	0.64101 0.12111 0.92587 1.04100
P 	P 	0.56700 0.09317 0.80451 0.56900
W 	W 	0.54448 0.23398 0.84940 0.98200
Cu	Cu	0.32973 0.05670 0.88938 0.77700
H 	H 	0.24860 0.02210 0.83450 0.13800
N 	N 	0.37120 0.98010 0.90950 -0.23700
W 	W 	0.41861 0.23404 0.74844 1.00300
H 	H 	0.18520 0.83270 0.61860 0.15000
O 	O 	0.59970 0.19910 0.89060 -0.45200
O 	O 	0.55230 0.16250 0.79210 -0.34000
N 	N 	0.57140 0.08760 0.04970 -0.22700
N 	N 	0.57570 0.19740 0.01340 -0.19900
N 	N 	0.47430 0.22120 0.98870 -0.20000
O 	O 	0.57200 0.27700 0.80700 -0.45700
O 	O 	0.47950 0.24660 0.79170 -0.44400
N 	N 	0.08840 0.78590 0.52540 -0.24300
C 	C 	0.58210 0.02790 0.06490 0.10600
C 	C 	0.61760 0.11520 0.06760 0.03900
N 	N 	0.58450 0.25570 0.00120 -0.22300
C 	C 	0.61870 0.17960 0.04970 0.01400
N 	N 	0.48470 0.27610 0.97060 -0.20700
C 	C 	0.43030 0.22780 0.99040 0.07700
Cu	Cu	0.54385 0.32311 0.96778 0.83700
H 	H 	0.55920 0.99590 0.05810 -0.01000
C 	C 	0.62970 0.26990 0.02890 0.05600
N 	N 	0.65300 0.22300 0.06020 -0.16500
C 	C 	0.44630 0.31260 0.96250 0.03600
H 	H 	0.41400 0.19670 0.00110 -0.01600
N 	N 	0.60950 0.36710 0.99120 -0.23300
N 	N 	0.49740 0.39340 0.95100 -0.20900
C 	C 	0.64690 0.33190 0.02010 0.03500
C 	C 	0.45290 0.37700 0.94810 0.03900
C 	C 	0.61880 0.42600 0.98060 0.04900
N 	N 	0.49450 0.45490 0.93770 -0.16500
C 	C 	0.69450 0.35160 0.03740 -0.12000
C 	C 	0.66610 0.44970 0.99950 -0.13700
H 	H 	0.59360 0.45110 0.96050 -0.02900
H 	H 	0.51790 0.47810 0.93620 0.08300
C 	C 	0.44980 0.47200 0.92750 0.06000
H 	H 	0.71970 0.32500 0.05560 0.05500
C 	C 	0.70330 0.41190 0.02670 0.02900
H 	H 	0.67210 0.49130 0.99350 0.03800
C 	C 	0.42620 0.53150 0.91080 0.03200
H 	H 	0.73500 0.42720 0.03800 0.01800
C 	C 	0.44800 0.58710 0.90730 -0.14200
C 	C 	0.35110 0.57840 0.87540 0.07900
H 	H 	0.48170 0.58840 0.91650 0.04400
C 	C 	0.42280 0.63900 0.89130 0.05400
C 	C 	0.37330 0.63460 0.87460 -0.16500
H 	H 	0.31740 0.57560 0.86230 -0.02300
H 	H 	0.43820 0.67720 0.89150 -0.03000
H 	H 	0.35450 0.67020 0.86250 0.05200
Na	Na	0.52480 0.95960 0.70970 0.76900
O 	O 	0.51440 0.96030 0.72860 -0.70600
W 	W 	0.90681 0.18882 0.73972 1.01400
O 	O 	0.91440 0.24880 0.79030 -0.46200
O 	O 	0.85630 0.22980 0.69460 -0.45400
O 	O 	0.92630 0.14260 0.69230 -0.46200
O 	O 	0.97480 0.16040 0.79100 -0.44600
O 	O 	0.95930 0.25150 0.71740 -0.34600
W 	W 	0.95045 0.30855 0.83949 1.06700
W 	W 	0.80673 0.29692 0.65929 0.98800
W 	W 	0.96812 0.18099 0.66201 1.05000
O 	O 	0.00240 0.24820 0.85920 -0.46700
O 	O 	0.99190 0.37510 0.87430 -0.49100
O 	O 	0.98100 0.33520 0.78280 -0.26400
O 	O 	0.90200 0.37040 0.80620 -0.46600
O 	O 	0.81240 0.26440 0.59930 -0.48300
O 	O 	0.77730 0.36950 0.63050 -0.46400
O 	O 	0.82950 0.33490 0.72290 -0.46600
O 	O 	0.87500 0.34030 0.64910 -0.37600
O 	O 	0.90550 0.22660 0.61820 -0.48400
W 	W 	0.04679 0.41680 0.91727 1.37000
W 	W 	0.85004 0.41187 0.76033 1.01200
W 	W 	0.86733 0.28684 0.58089 1.34000
W 	W 	0.77720 0.46801 0.63231 1.33300
P 	P 	0.89160 0.40910 0.66287 0.58100
O 	O 	0.08260 0.33780 0.92270 -0.49900
O 	O 	0.01800 0.49450 0.89950 -0.49200
O 	O 	0.06310 0.42350 0.84980 -0.30500
O 	O 	0.10870 0.45370 0.94900 -0.48100
O 	O 	0.03320 0.40130 0.97150 -0.51500
O 	O 	0.89980 0.42010 0.71740 -0.26300
O 	O 	0.80560 0.45400 0.70020 -0.49400
O 	O 	0.87820 0.49120 0.78380 -0.46600
O 	O 	0.84850 0.25040 0.52220 -0.56100
O 	O 	0.82610 0.36620 0.54910 -0.46300
O 	O 	0.71510 0.46780 0.62360 -0.54900
O 	O 	0.76780 0.45990 0.56190 -0.47100
O 	O 	0.78730 0.55060 0.63550 -0.46300
O 	O 	0.84910 0.45150 0.62840 -0.37600
W 	W 	0.00980 0.58478 0.88786 1.34600
W 	W 	0.17676 0.45098 0.95798 0.98800
Cu	Cu	0.98153 0.35312 0.98804 0.89500
Cu	Cu	0.77802 0.41499 0.86189 0.77300
W 	W 	0.88647 0.57891 0.78817 1.00400
Cu	Cu	0.84742 0.18364 0.47338 0.85100
Cu	Cu	0.64840 0.43996 0.60103 0.87900
W 	W 	0.81445 0.63819 0.66503 1.01100
O 	O 	0.07770 0.59440 0.92200 -0.47800
O 	O 	0.03130 0.56100 0.82510 -0.29700
O 	O 	0.99270 0.59850 0.93950 -0.48600
O 	O 	0.00810 0.66800 0.86620 -0.49000
O 	O 	0.94750 0.56690 0.84150 -0.47200
O 	O 	0.16850 0.54390 0.94330 -0.44900
O 	O 	0.77710 0.50350 0.85570 -0.67600
N 	N 	0.84880 0.42260 0.90730 -0.22900
O 	O 	0.93090 0.56050 0.74210 -0.25700
O 	O 	0.83570 0.59190 0.72560 -0.47000
O 	O 	0.90620 0.66470 0.78300 -0.46200
O 	O 	0.66750 0.35580 0.59050 -0.60800
N 	N 	0.57850 0.42330 0.56660 -0.24600
N 	N 	0.62270 0.52810 0.60530 -0.23000
O 	O 	0.81090 0.65490 0.59830 -0.45600
O 	O 	0.85470 0.70240 0.69410 -0.46600
O 	O 	0.88110 0.59370 0.65440 -0.34800
W 	W 	0.14101 0.62111 0.92587 1.03900
P 	P 	0.06700 0.59317 0.80451 0.56800
W 	W 	0.04448 0.73398 0.84940 0.97500
Cu	Cu	0.82973 0.55670 0.88938 0.77700
H 	H 	0.74860 0.52210 0.83450 0.13800
N 	N 	0.87120 0.48010 0.90950 -0.23700
W 	W 	0.91861 0.73404 0.74844 1.00400
H 	H 	0.68520 0.33270 0.61860 0.15000
O 	O 	0.09970 0.69910 0.89060 -0.45100
O 	O 	0.05230 0.66250 0.79210 -0.34100
N 	N 	0.07140 0.58760 0.04970 -0.22800
N 	N 	0.07570 0.69740 0.01340 -0.20000
N 	N 	0.97430 0.72120 0.98870 -0.19900
O 	O 	0.07200 0.77700 0.80700 -0.45800
O 	O 	0.97950 0.74660 0.79170 -0.43900
N 	N 	0.58840 0.28590 0.52540 -0.24300
C 	C 	0.08210 0.52790 0.06490 0.10700
C 	C 	0.11760 0.61520 0.06760 0.03900
N 	N 	0.08450 0.75570 0.00120 -0.22300
C 	C 	0.11870 0.67960 0.04970 0.01400
N 	N 	0.98470 0.77610 0.97060 -0.20400
C 	C 	0.93030 0.72780 0.99040 0.07900
Cu	Cu	0.04385 0.82311 0.96778 0.83400
H 	H 	0.05920 0.49590 0.05810 -0.01200
C 	C 	0.12970 0.76990 0.02890 0.05500
N 	N 	0.15300 0.72300 0.06020 -0.16400
C 	C 	0.94630 0.81260 0.96250 0.03700
H 	H 	0.91400 0.69670 0.00110 -0.01700
N 	N 	0.10950 0.86710 0.99120 -0.23600
N 	N 	0.99740 0.89340 0.95100 -0.20700
C 	C 	0.14690 0.83190 0.02010 0.03900
C 	C 	0.95290 0.87700 0.94810 0.04000
C 	C 	0.11880 0.92600 0.98060 0.05100
N 	N 	0.99450 0.95490 0.93770 -0.15800
C 	C 	0.19450 0.85160 0.03740 -0.12500
C 	C 	0.16610 0.94970 0.99950 -0.14400
H 	H 	0.09360 0.95110 0.96050 -0.03100
H 	H 	0.01790 0.97810 0.93620 0.07500
C 	C 	0.94980 0.97200 0.92750 0.05800
H 	H 	0.21970 0.82500 0.05560 0.05600
C 	C 	0.20330 0.91190 0.02670 0.03500
H 	H 	0.17210 0.99130 0.99350 0.03900
C 	C 	0.92620 0.03150 0.91080 0.03500
H 	H 	0.23500 0.92720 0.03800 0.01600
C 	C 	0.94800 0.08710 0.90730 -0.14400
C 	C 	0.85110 0.07840 0.87540 0.08000
H 	H 	0.98170 0.08840 0.91650 0.04800
C 	C 	0.92280 0.13900 0.89130 0.05600
C 	C 	0.87330 0.13460 0.87460 -0.16600
H 	H 	0.81740 0.07560 0.86230 -0.02400
H 	H 	0.93820 0.17720 0.89150 -0.02900
H 	H 	0.85450 0.17020 0.86250 0.05200
Na	Na	0.02480 0.45960 0.70970 0.77000
O 	O 	0.01440 0.46030 0.72860 -0.71100
P 	P 	0.50000 0.20530 0.25000 0.57900
P 	P 	0.00000 0.70530 0.25000 0.56900
P 	P 	0.50000 0.79470 0.75000 0.57900
P 	P 	0.00000 0.29470 0.75000 0.56800
