data_crystal

_cell_length_a 21.58190
_cell_length_b 19.22790
_cell_length_c 25.74000
_cell_angle_alpha 90.00000
_cell_angle_beta  95.28630
_cell_angle_gamma 90.00000

_symmetry_space_group_name_	'P 1'
_symmetry_space_group_name_H-M	'P 1'

loop_
_symmetry_equiv_pos_as_xyz
  x,y,z

loop_
_atom_site_label
_atom_site_type_symbol
_atom_site_fract_x
_atom_site_fract_y
_atom_site_fract_z
_atom_site_charge
W 	W 	0.76237 0.64948 0.52995 0.93000
W 	W 	0.69997 0.64716 0.66311 1.09300
W 	W 	0.57954 0.55951 0.73885 1.24600
W 	W 	0.44658 0.42999 0.73244 1.09800
W 	W 	0.35850 0.30117 0.64116 1.01300
W 	W 	0.25588 0.42381 0.60690 1.47600
W 	W 	0.34737 0.55417 0.69251 1.10100
W 	W 	0.47831 0.68367 0.70340 1.04700
W 	W 	0.59672 0.76918 0.62449 1.13900
W 	W 	0.66310 0.77546 0.49364 1.24300
O 	O 	0.75080 0.55290 0.54010 -0.10200
O 	O 	0.74130 0.67270 0.60120 -0.42600
O 	O 	0.64390 0.61450 0.71260 -0.58300
O 	O 	0.60950 0.48630 0.70010 -1.66400
O 	O 	0.50630 0.50320 0.74520 -0.51200
O 	O 	0.51110 0.38880 0.69570 -0.72400
O 	O 	0.38950 0.36570 0.70410 -0.46500
O 	O 	0.43880 0.29170 0.63040 -0.58600
O 	O 	0.27870 0.34270 0.64580 -0.52200
O 	O 	0.37940 0.48990 0.74490 -0.48700
O 	O 	0.53280 0.64100 0.75670 -0.49000
O 	O 	0.61470 0.65630 0.60750 -0.46900
O 	O 	0.66880 0.74430 0.66250 -0.52200
O 	O 	0.65760 0.65970 0.51010 -0.45300
O 	O 	0.74670 0.74700 0.51180 -0.47000
O 	O 	0.66980 0.74420 0.42360 -0.50500
O 	O 	0.65080 0.78380 0.56230 -0.54000
O 	O 	0.54490 0.73490 0.67650 -0.48300
O 	O 	0.41620 0.61760 0.71260 -0.47200
O 	O 	0.29060 0.47800 0.66100 -0.56400
O 	O 	0.23620 0.37260 0.54750 -0.45200
O 	O 	0.17830 0.43300 0.61850 -0.49200
O 	O 	0.57620 0.77040 0.47460 -1.33800
O 	O 	0.52670 0.76360 0.57760 -0.98100
O 	O 	0.43890 0.69910 0.63340 -0.50200
O 	O 	0.33590 0.59970 0.62970 -1.04900
O 	O 	0.26640 0.50150 0.56300 -0.96700
O 	O 	0.52160 0.59160 0.66650 -0.46300
O 	O 	0.35770 0.39900 0.59010 -0.49100
O 	O 	0.42220 0.49080 0.65760 -0.47100
O 	O 	0.70250 0.55300 0.64370 -1.08900
W 	W 	0.58255 0.40486 0.65640 3.31900
W 	W 	0.70278 0.49027 0.58141 -0.92100
O 	O 	0.37680 0.64600 0.54790 -0.30300
O 	O 	0.46740 0.71300 0.49970 -3.39900
O 	O 	0.64520 0.43700 0.61350 -4.67400
P 	P 	0.60850 0.63000 0.54610 0.46100
P 	P 	0.47830 0.53500 0.63210 0.43200
O 	O 	0.52470 0.47950 0.61390 -0.32000
O 	O 	0.44910 0.57750 0.58090 -0.11200
O 	O 	0.62360 0.55340 0.55230 -0.13900
O 	O 	0.54670 0.64400 0.51300 -0.40500
W 	W 	0.38002 0.66064 0.57765 -0.15800
O 	O 	0.46000 0.81600 0.48760 -1.06200
W 	W 	0.49775 0.74433 0.50024 5.45800
O 	O 	0.53950 0.33900 0.59700 0.95400
O 	O 	0.68800 0.44300 0.51730 0.98500
Cu	Cu	0.11548 0.41587 0.68376 0.89000
Cu	Cu	0.23671 0.33875 0.75853 0.87900
Cu	Cu	0.27992 0.17093 0.72772 0.84500
Cu	Cu	0.18002 0.09010 0.63911 0.85400
Cu	Cu	0.83571 0.25356 0.34229 0.81200
N 	N 	0.85870 0.36140 0.31900 -0.22300
N 	N 	0.84150 0.38460 0.27150 -0.18300
N 	N 	0.85620 0.44760 0.26490 -0.12900
H 	H 	0.84880 0.47020 0.23610 0.04300
N 	N 	0.88670 0.47540 0.31130 -0.19100
N 	N 	0.98930 0.41950 0.55530 -0.16200
N 	N 	0.98330 0.41860 0.63330 -0.12600
N 	N 	0.04570 0.41520 0.62840 -0.20800
N 	N 	0.13660 0.30140 0.67760 -0.18200
N 	N 	0.18850 0.28230 0.70760 -0.17100
N 	N 	0.20540 0.21870 0.69680 -0.19300
N 	N 	0.16440 0.19610 0.65650 -0.20500
N 	N 	0.92590 0.24870 0.48900 -0.12000
N 	N 	0.86530 0.25160 0.50450 -0.10100
N 	N 	0.86190 0.25150 0.41760 -0.26500
N 	N 	0.90760 0.92050 0.38630 -0.24400
N 	N 	0.01080 0.93450 0.39230 -0.09800
N 	N 	0.99320 0.92470 0.43920 -0.11700
N 	N 	0.17640 0.87310 0.65230 -0.18600
N 	N 	0.21770 0.89750 0.69250 -0.18000
N 	N 	0.22290 0.96030 0.68570 -0.10400
H 	H 	0.24730 0.98600 0.70590 0.04400
N 	N 	0.18890 0.98530 0.64570 -0.19900
C 	C 	0.88750 0.41970 0.34450 0.13000
C 	C 	0.91920 0.42350 0.39820 -0.22400
C 	C 	0.88160 0.42860 0.43220 0.18800
H 	H 	0.83950 0.43260 0.42110 -0.10100
C 	C 	0.89960 0.42850 0.48760 -0.25900
H 	H 	0.87240 0.43480 0.51320 0.11700
C 	C 	0.96480 0.41760 0.49750 0.21500
C 	C 	0.00170 0.41070 0.46160 -0.26700
H 	H 	0.04420 0.40540 0.47020 0.11600
C 	C 	0.97650 0.41130 0.40850 0.16300
H 	H 	0.00180 0.40300 0.38180 -0.04400
C 	C 	0.94730 0.42760 0.59410 0.09900
H 	H 	0.90480 0.43700 0.59080 -0.02300
C 	C 	0.04620 0.41290 0.57820 0.13200
H 	H 	0.08170 0.40740 0.56070 -0.00800
C 	C 	0.12450 0.24650 0.64870 0.13400
C 	C 	0.06970 0.24580 0.60370 -0.08800
C 	C 	0.01490 0.24550 0.61830 0.04100
H 	H 	0.00890 0.24430 0.65360 -0.00600
C 	C 	0.96120 0.24690 0.57870 -0.15000
H 	H 	0.92040 0.24770 0.58750 0.08700
C 	C 	0.97540 0.24700 0.52790 0.16600
C 	C 	0.03290 0.24890 0.51310 -0.17100
H 	H 	0.03930 0.24880 0.47780 0.07700
C 	C 	0.08540 0.25110 0.55270 0.02800
H 	H 	0.12630 0.25560 0.54450 0.00800
C 	C 	0.92730 0.25300 0.43790 0.06800
H 	H 	0.96200 0.25620 0.41920 -0.02700
C 	C 	0.82760 0.25340 0.45820 0.08100
H 	H 	0.78440 0.25570 0.45550 -0.06600
C 	C 	0.96030 0.92950 0.35950 0.06800
H 	H 	0.95980 0.93170 0.32340 -0.00800
C 	C 	0.93210 0.91390 0.43790 0.08500
H 	H 	0.90990 0.90390 0.46630 -0.02400
C 	C 	0.03110 0.92600 0.48630 0.13100
C 	C 	0.00990 0.90700 0.53300 -0.15500
H 	H 	0.96880 0.89480 0.53650 0.07300
C 	C 	0.05570 0.90790 0.57430 0.05700
H 	H 	0.04340 0.89200 0.60590 -0.02000
C 	C 	0.11640 0.92860 0.57550 -0.09700
C 	C 	0.13900 0.94420 0.52920 0.01800
H 	H 	0.18080 0.95560 0.52860 0.00400
C 	C 	0.09880 0.94350 0.48110 -0.12100
H 	H 	0.11350 0.95310 0.44900 0.06400
C 	C 	0.15880 0.92740 0.62350 0.11800
O 	O 	0.26400 0.10170 0.67650 -0.62200
H 	H 	0.29610 0.07230 0.66860 0.17600
O 	O 	0.18390 0.40980 0.73210 -0.61200
H 	H 	0.19470 0.45270 0.74700 0.18200
O 	O 	0.79780 0.24020 0.27060 -0.67100
H 	H 	0.83330 0.22160 0.25400 0.10300
K 	K 	0.45080 0.55990 0.48210 1.04300
O 	O 	0.47500 0.53100 0.48000 -0.75300
P 	P 	0.55350 0.59960 0.60950 0.45600
P 	P 	0.62200 0.60510 0.46670 0.44200
O 	O 	0.57470 0.52500 0.59620 -0.39300
O 	O 	0.62400 0.52840 0.48960 -0.07100
O 	O 	0.60850 0.48830 0.43580 -0.57800
P 	P 	0.58910 0.54470 0.39740 0.53800
O 	O 	0.55280 0.62420 0.46200 -0.26000
W 	W 	0.28655 0.53376 0.49338 -1.06300
O 	O 	0.33110 0.59560 0.52140 -3.41400
O 	O 	0.32080 0.55000 0.42750 0.73000
W 	W 	0.34560 0.53659 0.36114 7.10900
W 	W 	0.47483 0.66619 0.36664 -0.26900
O 	O 	0.41240 0.61600 0.37010 -2.20600
O 	O 	0.47300 0.69700 0.43270 -2.26900
O 	O 	0.43230 0.69820 0.52940 0.12600
O 	O 	0.52220 0.58180 0.40780 -0.15700
O 	O 	0.50410 0.62020 0.57320 -0.25800
W 	W 	0.31699 0.58352 0.55287 5.80400
W 	W 	0.44441 0.71542 0.56417 1.38800
W 	W 	0.50625 0.72081 0.43349 2.89900
O 	O 	0.40600 0.78600 0.55800 -0.42600
O 	O 	0.47180 0.79910 0.41080 -0.53400
W 	W 	0.73763 0.14948 0.97005 0.93500
W 	W 	0.80003 0.14716 0.83689 1.09000
W 	W 	0.92046 0.05951 0.76115 1.23600
W 	W 	0.05342 0.92999 0.76756 1.08900
W 	W 	0.14150 0.80117 0.85884 1.01100
W 	W 	0.24412 0.92381 0.89310 1.47400
W 	W 	0.15263 0.05417 0.80749 1.09400
W 	W 	0.02169 0.18367 0.79660 1.02800
W 	W 	0.90328 0.26918 0.87551 1.13100
W 	W 	0.83690 0.27546 0.00636 1.20200
O 	O 	0.74920 0.05290 0.95990 -0.12300
O 	O 	0.75870 0.17270 0.89880 -0.42900
O 	O 	0.85610 0.11450 0.78740 -0.57800
O 	O 	0.89050 0.98630 0.79990 -1.61600
O 	O 	0.99370 0.00320 0.75480 -0.50200
O 	O 	0.98890 0.88880 0.80430 -0.73700
O 	O 	0.11050 0.86570 0.79590 -0.46800
O 	O 	0.06120 0.79170 0.86960 -0.59400
O 	O 	0.22130 0.84270 0.85420 -0.52200
O 	O 	0.12060 0.98990 0.75510 -0.48400
O 	O 	0.96720 0.14100 0.74330 -0.48100
O 	O 	0.88530 0.15630 0.89250 -0.46600
O 	O 	0.83120 0.24430 0.83750 -0.52000
O 	O 	0.84240 0.15970 0.98990 -0.43900
O 	O 	0.75330 0.24700 0.98820 -0.46000
O 	O 	0.83020 0.24420 0.07640 -0.49900
O 	O 	0.84920 0.28380 0.93770 -0.52300
O 	O 	0.95510 0.23490 0.82350 -0.47300
O 	O 	0.08380 0.11760 0.78740 -0.47600
O 	O 	0.20940 0.97800 0.83900 -0.55900
O 	O 	0.26380 0.87260 0.95250 -0.45400
O 	O 	0.32170 0.93300 0.88150 -0.49100
O 	O 	0.92380 0.27040 0.02540 -1.24900
O 	O 	0.97330 0.26360 0.92240 -0.92900
O 	O 	0.06110 0.19910 0.86660 -0.54800
O 	O 	0.16410 0.09970 0.87030 -1.06700
O 	O 	0.23360 0.00150 0.93700 -0.95000
O 	O 	0.97840 0.09160 0.83350 -0.44800
O 	O 	0.14230 0.89900 0.90990 -0.48800
O 	O 	0.07780 0.99080 0.84240 -0.46700
O 	O 	0.79750 0.05300 0.85630 -1.08500
W 	W 	0.91745 0.90486 0.84360 3.18800
W 	W 	0.79722 0.99027 0.91859 -0.69900
O 	O 	0.12320 0.14600 0.95210 -0.50500
O 	O 	0.03260 0.21300 0.00030 -3.07600
O 	O 	0.85480 0.93700 0.88650 -4.49800
P 	P 	0.89150 0.13000 0.95390 0.46100
P 	P 	0.02170 0.03500 0.86790 0.40700
O 	O 	0.97530 0.97950 0.88610 -0.29800
O 	O 	0.05090 0.07750 0.91910 -0.13500
O 	O 	0.87640 0.05340 0.94770 -0.14800
O 	O 	0.95330 0.14400 0.98700 -0.37300
W 	W 	0.11998 0.16064 0.92235 0.17500
O 	O 	0.04000 0.31600 0.01240 -0.96900
W 	W 	0.00225 0.24433 0.99976 4.99500
O 	O 	0.96050 0.83900 0.90300 0.73400
O 	O 	0.81200 0.94300 0.98270 1.02600
Cu	Cu	0.38452 0.91587 0.81624 0.89100
Cu	Cu	0.26329 0.83875 0.74147 0.87900
Cu	Cu	0.22008 0.67093 0.77228 0.84500
Cu	Cu	0.31998 0.59010 0.86089 0.85500
Cu	Cu	0.66429 0.75356 0.15771 0.81100
N 	N 	0.64130 0.86140 0.18100 -0.22400
N 	N 	0.65850 0.88460 0.22850 -0.18300
N 	N 	0.64380 0.94760 0.23510 -0.12900
H 	H 	0.65120 0.97020 0.26390 0.04300
N 	N 	0.61330 0.97540 0.18870 -0.19300
N 	N 	0.51070 0.91950 0.94470 -0.16600
N 	N 	0.51670 0.91860 0.86670 -0.12900
N 	N 	0.45430 0.91520 0.87160 -0.20600
N 	N 	0.36340 0.80140 0.82240 -0.18200
N 	N 	0.31150 0.78230 0.79240 -0.17100
N 	N 	0.29460 0.71870 0.80320 -0.19200
N 	N 	0.33560 0.69610 0.84350 -0.20500
N 	N 	0.57410 0.74870 0.01100 -0.12400
N 	N 	0.63470 0.75160 0.99550 -0.09400
N 	N 	0.63810 0.75150 0.08240 -0.26500
N 	N 	0.59240 0.42050 0.11370 -0.24400
N 	N 	0.48920 0.43450 0.10770 -0.10600
N 	N 	0.50680 0.42470 0.06080 -0.11200
N 	N 	0.32360 0.37310 0.84770 -0.18600
N 	N 	0.28230 0.39750 0.80750 -0.18000
N 	N 	0.27710 0.46030 0.81430 -0.10400
H 	H 	0.25270 0.48600 0.79410 0.04200
N 	N 	0.31110 0.48530 0.85430 -0.20000
C 	C 	0.61250 0.91970 0.15550 0.14100
C 	C 	0.58080 0.92350 0.10180 -0.25900
C 	C 	0.61840 0.92860 0.06780 0.22300
H 	H 	0.66050 0.93260 0.07890 -0.11400
C 	C 	0.60040 0.92850 0.01240 -0.29900
H 	H 	0.62760 0.93480 0.98680 0.13600
C 	C 	0.53520 0.91760 0.00250 0.23700
C 	C 	0.49830 0.91070 0.03840 -0.30200
H 	H 	0.45580 0.90540 0.02980 0.12700
C 	C 	0.52350 0.91130 0.09150 0.20500
H 	H 	0.49820 0.90300 0.11820 -0.06100
C 	C 	0.55270 0.92760 0.90590 0.10100
H 	H 	0.59520 0.93700 0.90920 -0.02400
C 	C 	0.45380 0.91290 0.92180 0.13700
H 	H 	0.41830 0.90740 0.93930 -0.00900
C 	C 	0.37550 0.74650 0.85130 0.13600
C 	C 	0.43030 0.74580 0.89630 -0.09400
C 	C 	0.48510 0.74550 0.88170 0.05300
H 	H 	0.49110 0.74430 0.84640 -0.00700
C 	C 	0.53880 0.74690 0.92130 -0.16300
H 	H 	0.57960 0.74770 0.91250 0.09100
C 	C 	0.52460 0.74700 0.97210 0.17100
C 	C 	0.46710 0.74890 0.98690 -0.17100
H 	H 	0.46070 0.74880 0.02220 0.07700
C 	C 	0.41460 0.75110 0.94730 0.03200
H 	H 	0.37370 0.75560 0.95550 0.00600
C 	C 	0.57270 0.75300 0.06210 0.06800
H 	H 	0.53800 0.75620 0.08080 -0.02700
C 	C 	0.67240 0.75340 0.04180 0.07400
H 	H 	0.71560 0.75570 0.04450 -0.06800
C 	C 	0.53970 0.42950 0.14050 0.07600
H 	H 	0.54020 0.43170 0.17660 -0.00800
C 	C 	0.56790 0.41390 0.06210 0.08500
H 	H 	0.59010 0.40390 0.03370 -0.02400
C 	C 	0.46890 0.42600 0.01370 0.12600
C 	C 	0.49010 0.40700 0.96700 -0.15800
H 	H 	0.53120 0.39480 0.96350 0.07600
C 	C 	0.44430 0.40790 0.92570 0.05600
H 	H 	0.45660 0.39200 0.89410 -0.01900
C 	C 	0.38360 0.42860 0.92450 -0.09500
C 	C 	0.36100 0.44420 0.97080 0.00900
H 	H 	0.31920 0.45560 0.97140 0.00400
C 	C 	0.40120 0.44350 0.01890 -0.11200
H 	H 	0.38650 0.45310 0.05100 0.06100
C 	C 	0.34120 0.42740 0.87650 0.11600
O 	O 	0.23600 0.60170 0.82350 -0.62200
H 	H 	0.20390 0.57230 0.83140 0.17600
O 	O 	0.31610 0.90980 0.76790 -0.61100
H 	H 	0.30530 0.95270 0.75300 0.18300
O 	O 	0.70220 0.74020 0.22940 -0.67200
H 	H 	0.66670 0.72160 0.24600 0.10400
K 	K 	0.04920 0.05990 0.01790 1.04400
O 	O 	0.02500 0.03100 0.02000 -0.74600
P 	P 	0.94650 0.09960 0.89050 0.45600
P 	P 	0.87800 0.10510 0.03330 0.43300
O 	O 	0.92530 0.02500 0.90380 -0.38300
O 	O 	0.87600 0.02840 0.01040 -0.07400
O 	O 	0.89150 0.98830 0.06420 -0.57600
P 	P 	0.91090 0.04470 0.10260 0.54300
O 	O 	0.94720 0.12420 0.03800 -0.25400
W 	W 	0.21345 0.03376 0.00662 -1.12000
O 	O 	0.16890 0.09560 0.97860 -3.33300
O 	O 	0.17920 0.05000 0.07250 0.59100
W 	W 	0.15440 0.03659 0.13886 6.85000
W 	W 	0.02517 0.16619 0.13336 0.00600
O 	O 	0.08760 0.11600 0.12990 -2.14300
O 	O 	0.02700 0.19700 0.06730 -2.00200
O 	O 	0.06770 0.19820 0.97060 0.01100
O 	O 	0.97780 0.08180 0.09220 -0.17400
O 	O 	0.99590 0.12020 0.92680 -0.24500
W 	W 	0.18301 0.08352 0.94713 5.67600
W 	W 	0.05559 0.21542 0.93583 1.40400
W 	W 	0.99375 0.22081 0.06651 2.59000
O 	O 	0.09400 0.28600 0.94200 -0.44400
O 	O 	0.02820 0.29910 0.08920 -0.49300
W 	W 	0.23763 0.35052 0.47005 0.92900
W 	W 	0.30003 0.35284 0.33689 1.09200
W 	W 	0.42046 0.44049 0.26115 1.24500
W 	W 	0.55342 0.57001 0.26756 1.09700
W 	W 	0.64150 0.69883 0.35884 1.01200
W 	W 	0.74412 0.57619 0.39310 1.47500
W 	W 	0.65263 0.44583 0.30749 1.10100
W 	W 	0.52169 0.31633 0.29660 1.04700
W 	W 	0.40328 0.23082 0.37551 1.13900
W 	W 	0.33690 0.22454 0.50636 1.24300
O 	O 	0.24920 0.44710 0.45990 -0.10200
O 	O 	0.25870 0.32730 0.39880 -0.42600
O 	O 	0.35610 0.38550 0.28740 -0.58300
O 	O 	0.39050 0.51370 0.29990 -1.66400
O 	O 	0.49370 0.49680 0.25480 -0.51200
O 	O 	0.48890 0.61120 0.30430 -0.72400
O 	O 	0.61050 0.63430 0.29590 -0.46500
O 	O 	0.56120 0.70830 0.36960 -0.58600
O 	O 	0.72130 0.65730 0.35420 -0.52200
O 	O 	0.62060 0.51010 0.25510 -0.48700
O 	O 	0.46720 0.35900 0.24330 -0.49000
O 	O 	0.38530 0.34370 0.39250 -0.46900
O 	O 	0.33120 0.25570 0.33750 -0.52200
O 	O 	0.34240 0.34030 0.48990 -0.45300
O 	O 	0.25330 0.25300 0.48820 -0.47000
O 	O 	0.33020 0.25580 0.57640 -0.50500
O 	O 	0.34920 0.21620 0.43770 -0.54000
O 	O 	0.45510 0.26510 0.32350 -0.48300
O 	O 	0.58380 0.38240 0.28740 -0.47200
O 	O 	0.70940 0.52200 0.33900 -0.56400
O 	O 	0.76380 0.62740 0.45250 -0.45200
O 	O 	0.82170 0.56700 0.38150 -0.49200
O 	O 	0.42380 0.22960 0.52540 -1.33800
O 	O 	0.47330 0.23640 0.42240 -0.98100
O 	O 	0.56110 0.30090 0.36660 -0.50200
O 	O 	0.66410 0.40030 0.37030 -1.04900
O 	O 	0.73360 0.49850 0.43700 -0.96700
O 	O 	0.47840 0.40840 0.33350 -0.46300
O 	O 	0.64230 0.60100 0.40990 -0.49100
O 	O 	0.57780 0.50920 0.34240 -0.47100
O 	O 	0.29750 0.44700 0.35630 -1.08900
W 	W 	0.41745 0.59514 0.34360 3.31900
W 	W 	0.29722 0.50973 0.41859 -0.92100
O 	O 	0.62320 0.35400 0.45210 -0.30300
O 	O 	0.53260 0.28700 0.50030 -3.39900
O 	O 	0.35480 0.56300 0.38650 -4.67400
P 	P 	0.39150 0.37000 0.45390 0.46100
P 	P 	0.52170 0.46500 0.36790 0.43200
O 	O 	0.47530 0.52050 0.38610 -0.32000
O 	O 	0.55090 0.42250 0.41910 -0.11200
O 	O 	0.37640 0.44660 0.44770 -0.13900
O 	O 	0.45330 0.35600 0.48700 -0.40500
W 	W 	0.61998 0.33936 0.42235 -0.15800
O 	O 	0.54000 0.18400 0.51240 -1.06200
W 	W 	0.50225 0.25567 0.49976 5.45800
O 	O 	0.46050 0.66100 0.40300 0.95400
O 	O 	0.31200 0.55700 0.48270 0.98500
Cu	Cu	0.88452 0.58413 0.31624 0.89000
Cu	Cu	0.76329 0.66125 0.24147 0.87900
Cu	Cu	0.72008 0.82907 0.27228 0.84500
Cu	Cu	0.81998 0.90990 0.36089 0.85400
Cu	Cu	0.16429 0.74644 0.65771 0.81200
N 	N 	0.14130 0.63860 0.68100 -0.22300
N 	N 	0.15850 0.61540 0.72850 -0.18300
N 	N 	0.14380 0.55240 0.73510 -0.12900
H 	H 	0.15120 0.52980 0.76390 0.04300
N 	N 	0.11330 0.52460 0.68870 -0.19100
N 	N 	0.01070 0.58050 0.44470 -0.16200
N 	N 	0.01670 0.58140 0.36670 -0.12600
N 	N 	0.95430 0.58480 0.37160 -0.20800
N 	N 	0.86340 0.69860 0.32240 -0.18200
N 	N 	0.81150 0.71770 0.29240 -0.17100
N 	N 	0.79460 0.78130 0.30320 -0.19300
N 	N 	0.83560 0.80390 0.34350 -0.20500
N 	N 	0.07410 0.75130 0.51100 -0.12000
N 	N 	0.13470 0.74840 0.49550 -0.10100
N 	N 	0.13810 0.74850 0.58240 -0.26500
N 	N 	0.09240 0.07950 0.61370 -0.24400
N 	N 	0.98920 0.06550 0.60770 -0.09800
N 	N 	0.00680 0.07530 0.56080 -0.11700
N 	N 	0.82360 0.12690 0.34770 -0.18600
N 	N 	0.78230 0.10250 0.30750 -0.18000
N 	N 	0.77710 0.03970 0.31430 -0.10400
H 	H 	0.75270 0.01400 0.29410 0.04400
N 	N 	0.81110 0.01470 0.35430 -0.19900
C 	C 	0.11250 0.58030 0.65550 0.13000
C 	C 	0.08080 0.57650 0.60180 -0.22400
C 	C 	0.11840 0.57140 0.56780 0.18800
H 	H 	0.16050 0.56740 0.57890 -0.10100
C 	C 	0.10040 0.57150 0.51240 -0.25900
H 	H 	0.12760 0.56520 0.48680 0.11700
C 	C 	0.03520 0.58240 0.50250 0.21500
C 	C 	0.99830 0.58930 0.53840 -0.26700
H 	H 	0.95580 0.59460 0.52980 0.11600
C 	C 	0.02350 0.58870 0.59150 0.16300
H 	H 	0.99820 0.59700 0.61820 -0.04400
C 	C 	0.05270 0.57240 0.40590 0.09900
H 	H 	0.09520 0.56300 0.40920 -0.02300
C 	C 	0.95380 0.58710 0.42180 0.13200
H 	H 	0.91830 0.59260 0.43930 -0.00800
C 	C 	0.87550 0.75350 0.35130 0.13400
C 	C 	0.93030 0.75420 0.39630 -0.08800
C 	C 	0.98510 0.75450 0.38170 0.04100
H 	H 	0.99110 0.75570 0.34640 -0.00600
C 	C 	0.03880 0.75310 0.42130 -0.15000
H 	H 	0.07960 0.75230 0.41250 0.08700
C 	C 	0.02460 0.75300 0.47210 0.16600
C 	C 	0.96710 0.75110 0.48690 -0.17100
H 	H 	0.96070 0.75120 0.52220 0.07700
C 	C 	0.91460 0.74890 0.44730 0.02800
H 	H 	0.87370 0.74440 0.45550 0.00800
C 	C 	0.07270 0.74700 0.56210 0.06800
H 	H 	0.03800 0.74380 0.58080 -0.02700
C 	C 	0.17240 0.74660 0.54180 0.08100
H 	H 	0.21560 0.74430 0.54450 -0.06600
C 	C 	0.03970 0.07050 0.64050 0.06800
H 	H 	0.04020 0.06830 0.67660 -0.00800
C 	C 	0.06790 0.08610 0.56210 0.08500
H 	H 	0.09010 0.09610 0.53370 -0.02400
C 	C 	0.96890 0.07400 0.51370 0.13100
C 	C 	0.99010 0.09300 0.46700 -0.15500
H 	H 	0.03120 0.10520 0.46350 0.07300
C 	C 	0.94430 0.09210 0.42570 0.05700
H 	H 	0.95660 0.10800 0.39410 -0.02000
C 	C 	0.88360 0.07140 0.42450 -0.09700
C 	C 	0.86100 0.05580 0.47080 0.01800
H 	H 	0.81920 0.04440 0.47140 0.00400
C 	C 	0.90120 0.05650 0.51890 -0.12100
H 	H 	0.88650 0.04690 0.55100 0.06400
C 	C 	0.84120 0.07260 0.37650 0.11800
O 	O 	0.73600 0.89830 0.32350 -0.62200
H 	H 	0.70390 0.92770 0.33140 0.17600
O 	O 	0.81610 0.59020 0.26790 -0.61200
H 	H 	0.80530 0.54730 0.25300 0.18200
O 	O 	0.20220 0.75980 0.72940 -0.67100
H 	H 	0.16670 0.77840 0.74600 0.10300
K 	K 	0.54920 0.44010 0.51790 1.04300
O 	O 	0.52500 0.46900 0.52000 -0.75300
P 	P 	0.44650 0.40040 0.39050 0.45600
P 	P 	0.37800 0.39490 0.53330 0.44200
O 	O 	0.42530 0.47500 0.40380 -0.39300
O 	O 	0.37600 0.47160 0.51040 -0.07100
O 	O 	0.39150 0.51170 0.56420 -0.57800
P 	P 	0.41090 0.45530 0.60260 0.53800
O 	O 	0.44720 0.37580 0.53800 -0.26000
W 	W 	0.71345 0.46624 0.50662 -1.06300
O 	O 	0.66890 0.40440 0.47860 -3.41400
O 	O 	0.67920 0.45000 0.57250 0.73000
W 	W 	0.65440 0.46341 0.63886 7.10900
W 	W 	0.52517 0.33381 0.63336 -0.26900
O 	O 	0.58760 0.38400 0.62990 -2.20600
O 	O 	0.52700 0.30300 0.56730 -2.26900
O 	O 	0.56770 0.30180 0.47060 0.12600
O 	O 	0.47780 0.41820 0.59220 -0.15700
O 	O 	0.49590 0.37980 0.42680 -0.25800
W 	W 	0.68301 0.41648 0.44713 5.80400
W 	W 	0.55559 0.28458 0.43583 1.38800
W 	W 	0.49375 0.27919 0.56651 2.89900
O 	O 	0.59400 0.21400 0.44200 -0.42600
O 	O 	0.52820 0.20090 0.58920 -0.53400
W 	W 	0.26237 0.85052 0.02995 0.93500
W 	W 	0.19997 0.85284 0.16311 1.09000
W 	W 	0.07954 0.94049 0.23885 1.23600
W 	W 	0.94658 0.07001 0.23244 1.08900
W 	W 	0.85850 0.19883 0.14116 1.01100
W 	W 	0.75588 0.07619 0.10690 1.47400
W 	W 	0.84737 0.94583 0.19251 1.09400
W 	W 	0.97831 0.81633 0.20340 1.02800
W 	W 	0.09672 0.73082 0.12449 1.13100
W 	W 	0.16310 0.72454 0.99364 1.20200
O 	O 	0.25080 0.94710 0.04010 -0.12300
O 	O 	0.24130 0.82730 0.10120 -0.42900
O 	O 	0.14390 0.88550 0.21260 -0.57800
O 	O 	0.10950 0.01370 0.20010 -1.61600
O 	O 	0.00630 0.99680 0.24520 -0.50200
O 	O 	0.01110 0.11120 0.19570 -0.73700
O 	O 	0.88950 0.13430 0.20410 -0.46800
O 	O 	0.93880 0.20830 0.13040 -0.59400
O 	O 	0.77870 0.15730 0.14580 -0.52200
O 	O 	0.87940 0.01010 0.24490 -0.48400
O 	O 	0.03280 0.85900 0.25670 -0.48100
O 	O 	0.11470 0.84370 0.10750 -0.46600
O 	O 	0.16880 0.75570 0.16250 -0.52000
O 	O 	0.15760 0.84030 0.01010 -0.43900
O 	O 	0.24670 0.75300 0.01180 -0.46000
O 	O 	0.16980 0.75580 0.92360 -0.49900
O 	O 	0.15080 0.71620 0.06230 -0.52300
O 	O 	0.04490 0.76510 0.17650 -0.47300
O 	O 	0.91620 0.88240 0.21260 -0.47600
O 	O 	0.79060 0.02200 0.16100 -0.55900
O 	O 	0.73620 0.12740 0.04750 -0.45400
O 	O 	0.67830 0.06700 0.11850 -0.49100
O 	O 	0.07620 0.72960 0.97460 -1.24900
O 	O 	0.02670 0.73640 0.07760 -0.92900
O 	O 	0.93890 0.80090 0.13340 -0.54800
O 	O 	0.83590 0.90030 0.12970 -1.06700
O 	O 	0.76640 0.99850 0.06300 -0.95000
O 	O 	0.02160 0.90840 0.16650 -0.44800
O 	O 	0.85770 0.10100 0.09010 -0.48800
O 	O 	0.92220 0.00920 0.15760 -0.46700
O 	O 	0.20250 0.94700 0.14370 -1.08500
W 	W 	0.08255 0.09514 0.15640 3.18800
W 	W 	0.20278 0.00973 0.08141 -0.69900
O 	O 	0.87680 0.85400 0.04790 -0.50500
O 	O 	0.96740 0.78700 0.99970 -3.07600
O 	O 	0.14520 0.06300 0.11350 -4.49800
P 	P 	0.10850 0.87000 0.04610 0.46100
P 	P 	0.97830 0.96500 0.13210 0.40700
O 	O 	0.02470 0.02050 0.11390 -0.29800
O 	O 	0.94910 0.92250 0.08090 -0.13500
O 	O 	0.12360 0.94660 0.05230 -0.14800
O 	O 	0.04670 0.85600 0.01300 -0.37300
W 	W 	0.88002 0.83936 0.07765 0.17500
O 	O 	0.96000 0.68400 0.98760 -0.96900
W 	W 	0.99775 0.75567 0.00024 4.99500
O 	O 	0.03950 0.16100 0.09700 0.73400
O 	O 	0.18800 0.05700 0.01730 1.02600
Cu	Cu	0.61548 0.08413 0.18376 0.89100
Cu	Cu	0.73671 0.16125 0.25853 0.87900
Cu	Cu	0.77992 0.32907 0.22772 0.84500
Cu	Cu	0.68002 0.40990 0.13911 0.85500
Cu	Cu	0.33571 0.24644 0.84229 0.81100
N 	N 	0.35870 0.13860 0.81900 -0.22400
N 	N 	0.34150 0.11540 0.77150 -0.18300
N 	N 	0.35620 0.05240 0.76490 -0.12900
H 	H 	0.34880 0.02980 0.73610 0.04300
N 	N 	0.38670 0.02460 0.81130 -0.19300
N 	N 	0.48930 0.08050 0.05530 -0.16600
N 	N 	0.48330 0.08140 0.13330 -0.12900
N 	N 	0.54570 0.08480 0.12840 -0.20600
N 	N 	0.63660 0.19860 0.17760 -0.18200
N 	N 	0.68850 0.21770 0.20760 -0.17100
N 	N 	0.70540 0.28130 0.19680 -0.19200
N 	N 	0.66440 0.30390 0.15650 -0.20500
N 	N 	0.42590 0.25130 0.98900 -0.12400
N 	N 	0.36530 0.24840 0.00450 -0.09400
N 	N 	0.36190 0.24850 0.91760 -0.26500
N 	N 	0.40760 0.57950 0.88630 -0.24400
N 	N 	0.51080 0.56550 0.89230 -0.10600
N 	N 	0.49320 0.57530 0.93920 -0.11200
N 	N 	0.67640 0.62690 0.15230 -0.18600
N 	N 	0.71770 0.60250 0.19250 -0.18000
N 	N 	0.72290 0.53970 0.18570 -0.10400
H 	H 	0.74730 0.51400 0.20590 0.04200
N 	N 	0.68890 0.51470 0.14570 -0.20000
C 	C 	0.38750 0.08030 0.84450 0.14100
C 	C 	0.41920 0.07650 0.89820 -0.25900
C 	C 	0.38160 0.07140 0.93220 0.22300
H 	H 	0.33950 0.06740 0.92110 -0.11400
C 	C 	0.39960 0.07150 0.98760 -0.29900
H 	H 	0.37240 0.06520 0.01320 0.13600
C 	C 	0.46480 0.08240 0.99750 0.23700
C 	C 	0.50170 0.08930 0.96160 -0.30200
H 	H 	0.54420 0.09460 0.97020 0.12700
C 	C 	0.47650 0.08870 0.90850 0.20500
H 	H 	0.50180 0.09700 0.88180 -0.06100
C 	C 	0.44730 0.07240 0.09410 0.10100
H 	H 	0.40480 0.06300 0.09080 -0.02400
C 	C 	0.54620 0.08710 0.07820 0.13700
H 	H 	0.58170 0.09260 0.06070 -0.00900
C 	C 	0.62450 0.25350 0.14870 0.13600
C 	C 	0.56970 0.25420 0.10370 -0.09400
C 	C 	0.51490 0.25450 0.11830 0.05300
H 	H 	0.50890 0.25570 0.15360 -0.00700
C 	C 	0.46120 0.25310 0.07870 -0.16300
H 	H 	0.42040 0.25230 0.08750 0.09100
C 	C 	0.47540 0.25300 0.02790 0.17100
C 	C 	0.53290 0.25110 0.01310 -0.17100
H 	H 	0.53930 0.25120 0.97780 0.07700
C 	C 	0.58540 0.24890 0.05270 0.03200
H 	H 	0.62630 0.24440 0.04450 0.00600
C 	C 	0.42730 0.24700 0.93790 0.06800
H 	H 	0.46200 0.24380 0.91920 -0.02700
C 	C 	0.32760 0.24660 0.95820 0.07400
H 	H 	0.28440 0.24430 0.95550 -0.06800
C 	C 	0.46030 0.57050 0.85950 0.07600
H 	H 	0.45980 0.56830 0.82340 -0.00800
C 	C 	0.43210 0.58610 0.93790 0.08500
H 	H 	0.40990 0.59610 0.96630 -0.02400
C 	C 	0.53110 0.57400 0.98630 0.12600
C 	C 	0.50990 0.59300 0.03300 -0.15800
H 	H 	0.46880 0.60520 0.03650 0.07600
C 	C 	0.55570 0.59210 0.07430 0.05600
H 	H 	0.54340 0.60800 0.10590 -0.01900
C 	C 	0.61640 0.57140 0.07550 -0.09500
C 	C 	0.63900 0.55580 0.02920 0.00900
H 	H 	0.68080 0.54440 0.02860 0.00400
C 	C 	0.59880 0.55650 0.98110 -0.11200
H 	H 	0.61350 0.54690 0.94900 0.06100
C 	C 	0.65880 0.57260 0.12350 0.11600
O 	O 	0.76400 0.39830 0.17650 -0.62200
H 	H 	0.79610 0.42770 0.16860 0.17600
O 	O 	0.68390 0.09020 0.23210 -0.61100
H 	H 	0.69470 0.04730 0.24700 0.18300
O 	O 	0.29780 0.25980 0.77060 -0.67200
H 	H 	0.33330 0.27840 0.75400 0.10400
K 	K 	0.95080 0.94010 0.98210 1.04400
O 	O 	0.97500 0.96900 0.98000 -0.74600
P 	P 	0.05350 0.90040 0.10950 0.45600
P 	P 	0.12200 0.89490 0.96670 0.43300
O 	O 	0.07470 0.97500 0.09620 -0.38300
O 	O 	0.12400 0.97160 0.98960 -0.07400
O 	O 	0.10850 0.01170 0.93580 -0.57600
P 	P 	0.08910 0.95530 0.89740 0.54300
O 	O 	0.05280 0.87580 0.96200 -0.25400
W 	W 	0.78655 0.96624 0.99338 -1.12000
O 	O 	0.83110 0.90440 0.02140 -3.33300
O 	O 	0.82080 0.95000 0.92750 0.59100
W 	W 	0.84560 0.96341 0.86114 6.85000
W 	W 	0.97483 0.83381 0.86664 0.00600
O 	O 	0.91240 0.88400 0.87010 -2.14300
O 	O 	0.97300 0.80300 0.93270 -2.00200
O 	O 	0.93230 0.80180 0.02940 0.01100
O 	O 	0.02220 0.91820 0.90780 -0.17400
O 	O 	0.00410 0.87980 0.07320 -0.24500
W 	W 	0.81699 0.91648 0.05287 5.67600
W 	W 	0.94441 0.78458 0.06417 1.40400
W 	W 	0.00625 0.77919 0.93349 2.59000
O 	O 	0.90600 0.71400 0.05800 -0.44400
O 	O 	0.97180 0.70090 0.91080 -0.49300
