data_crystal

_cell_length_a 10.24000
_cell_length_b 13.77200
_cell_length_c 16.70000
_cell_angle_alpha 90.00000
_cell_angle_beta  127.04600
_cell_angle_gamma 90.00000

_symmetry_space_group_name_	'P 1'
_symmetry_space_group_name_H-M	'P 1'

loop_
_symmetry_equiv_pos_as_xyz
  x,y,z

loop_
_atom_site_label
_atom_site_type_symbol
_atom_site_fract_x
_atom_site_fract_y
_atom_site_fract_z
_atom_site_charge
Cd	Cd	0.58220 0.42413 0.93814 1.23200
O 	O 	0.68050 0.54580 0.05330 -0.47800
O 	O 	0.66660 0.64800 0.14840 -0.40300
O 	O 	0.20080 0.54710 0.07730 -0.34100
O 	O 	0.38760 0.65690 0.17430 -0.35000
O 	O 	0.36600 0.83320 0.42730 -0.37100
O 	O 	0.17110 0.79410 0.44080 -0.29300
C 	C 	0.74000 0.60960 0.11790 0.39500
C 	C 	0.91280 0.64400 0.16610 -0.11200
C 	C 	0.99850 0.61520 0.13050 0.04100
H 	H 	0.94850 0.57530 0.07440 0.05000
C 	C 	0.15820 0.64540 0.17800 -0.07700
C 	C 	0.25350 0.61450 0.14020 0.30200
C 	C 	0.23310 0.70390 0.26090 0.02300
H 	H 	0.33910 0.72590 0.29140 0.05600
C 	C 	0.14840 0.73050 0.29990 -0.08000
C 	C 	0.23470 0.79030 0.39570 0.30600
C 	C 	0.99100 0.70110 0.25340 0.04000
H 	H 	0.93550 0.71880 0.27930 0.05500
Cd	Cd	0.41780 0.92413 0.56186 1.23300
O 	O 	0.31950 0.04580 0.44670 -0.47700
O 	O 	0.33340 0.14800 0.35160 -0.40200
O 	O 	0.79920 0.04710 0.42270 -0.33900
O 	O 	0.61240 0.15690 0.32570 -0.34900
O 	O 	0.63400 0.33320 0.07270 -0.37000
O 	O 	0.82890 0.29410 0.05920 -0.29200
C 	C 	0.26000 0.10960 0.38210 0.39400
C 	C 	0.08720 0.14400 0.33390 -0.10800
C 	C 	0.00150 0.11520 0.36950 0.03600
H 	H 	0.05150 0.07530 0.42560 0.05200
C 	C 	0.84180 0.14540 0.32200 -0.07200
C 	C 	0.74650 0.11450 0.35980 0.30000
C 	C 	0.76690 0.20390 0.23910 0.02000
H 	H 	0.66090 0.22590 0.20860 0.05700
C 	C 	0.85160 0.23050 0.20010 -0.07600
C 	C 	0.76530 0.29030 0.10430 0.30400
C 	C 	0.00900 0.20110 0.24660 0.03500
H 	H 	0.06450 0.21880 0.22070 0.05600
Cd	Cd	0.41780 0.57587 0.06186 1.23300
O 	O 	0.31950 0.45420 0.94670 -0.47700
O 	O 	0.33340 0.35200 0.85160 -0.40200
O 	O 	0.79920 0.45290 0.92270 -0.34000
O 	O 	0.61240 0.34310 0.82570 -0.34900
O 	O 	0.63400 0.16680 0.57270 -0.37000
O 	O 	0.82890 0.20590 0.55920 -0.29300
C 	C 	0.26000 0.39040 0.88210 0.39500
C 	C 	0.08720 0.35600 0.83390 -0.11200
C 	C 	0.00150 0.38480 0.86950 0.04100
H 	H 	0.05150 0.42470 0.92560 0.05000
C 	C 	0.84180 0.35460 0.82200 -0.07700
C 	C 	0.74650 0.38550 0.85980 0.30200
C 	C 	0.76690 0.29610 0.73910 0.02300
H 	H 	0.66090 0.27410 0.70860 0.05600
C 	C 	0.85160 0.26950 0.70010 -0.08000
C 	C 	0.76530 0.20970 0.60430 0.30600
C 	C 	0.00900 0.29890 0.74660 0.04000
H 	H 	0.06450 0.28120 0.72070 0.05500
Cd	Cd	0.58220 0.07587 0.43814 1.23300
O 	O 	0.68050 0.95420 0.55330 -0.47700
O 	O 	0.66660 0.85200 0.64840 -0.40200
O 	O 	0.20080 0.95290 0.57730 -0.33900
O 	O 	0.38760 0.84310 0.67430 -0.34900
O 	O 	0.36600 0.66680 0.92730 -0.37000
O 	O 	0.17110 0.70590 0.94080 -0.29200
C 	C 	0.74000 0.89040 0.61790 0.39400
C 	C 	0.91280 0.85600 0.66610 -0.10800
C 	C 	0.99850 0.88480 0.63050 0.03600
H 	H 	0.94850 0.92470 0.57440 0.05200
C 	C 	0.15820 0.85460 0.67800 -0.07200
C 	C 	0.25350 0.88550 0.64020 0.30000
C 	C 	0.23310 0.79610 0.76090 0.02000
H 	H 	0.33910 0.77410 0.79140 0.05700
C 	C 	0.14840 0.76950 0.79990 -0.07600
C 	C 	0.23470 0.70970 0.89570 0.30400
C 	C 	0.99100 0.79890 0.75340 0.03500
H 	H 	0.93550 0.78120 0.77930 0.05600
