data_crystal

_cell_length_a 45.64600
_cell_length_b 45.64600
_cell_length_c 10.91500
_cell_angle_alpha 90.00000
_cell_angle_beta  90.00000
_cell_angle_gamma 120.00000

_symmetry_space_group_name_	'P 1'
_symmetry_space_group_name_H-M	'P 1'

loop_
_symmetry_equiv_pos_as_xyz
  x,y,z

loop_
_atom_site_label
_atom_site_type_symbol
_atom_site_fract_x
_atom_site_fract_y
_atom_site_fract_z
_atom_site_charge
Cu	Cu	0.15462 0.30927 0.41905 0.91500
O 	O 	0.11423 0.28898 0.31600 -0.37800
C 	C 	0.11196 0.30266 0.21900 0.32500
C 	C 	0.07860 0.28483 0.15310 0.01800
C 	C 	0.98339 0.23549 0.96840 -0.01400
C 	C 	0.04364 0.28160 0.98670 0.12600
C 	C 	0.01668 0.25182 0.03150 -0.01100
C 	C 	0.07458 0.29801 0.04550 -0.09600
H 	H 	0.09240 0.31770 0.01270 0.12200
C 	C 	0.05271 0.25486 0.19940 -0.09300
H 	H 	0.05590 0.24520 0.26950 0.11800
C 	C 	0.02178 0.23945 0.13890 0.12200
O 	O 	0.06725 0.30686 0.80930 -0.07900
O 	O 	0.01519 0.29171 0.83520 -0.07200
N 	N 	0.04221 0.29511 0.87300 -0.01200
O 	O 	0.13487 0.32952 0.17080 -0.38000
C 	C 	0.92541 0.22344 0.95510 -0.10000
H 	H 	0.90760 0.22510 0.98840 0.12300
C 	C 	0.92157 0.20638 0.84570 0.02000
C 	C 	0.95635 0.23782 0.01300 0.12800
C 	C 	0.94739 0.20242 0.80090 -0.09700
H 	H 	0.94420 0.18950 0.73100 0.11900
C 	C 	0.97822 0.21780 0.86050 0.12500
C 	C 	0.88809 0.19075 0.78080 0.32000
O 	O 	0.88581 0.17484 0.68340 -0.37800
O 	O 	0.86518 0.19479 0.82900 -0.37800
N 	N 	0.00118 0.20772 0.81870 -0.01400
O 	O 	0.02770 0.21595 0.87270 -0.07400
O 	O 	0.99650 0.19470 0.71750 -0.07600
N 	N 	0.95792 0.25301 0.12690 -0.01300
O 	O 	0.93259 0.23937 0.19160 -0.07900
N 	N 	0.99888 0.20665 0.18290 -0.01400
O 	O 	0.98484 0.27658 0.16490 -0.07200
O 	O 	0.97241 0.18817 0.12640 -0.07400
O 	O 	0.00345 0.19770 0.28100 -0.07600
Cu	Cu	0.82129 0.64260 0.75238 0.91400
O 	O 	0.78090 0.62231 0.64933 -0.37900
C 	C 	0.77863 0.63599 0.55233 0.32400
C 	C 	0.74527 0.61816 0.48643 0.01700
C 	C 	0.65006 0.56882 0.30173 -0.01300
C 	C 	0.71031 0.61493 0.32003 0.12500
C 	C 	0.68335 0.58515 0.36483 -0.01100
C 	C 	0.74125 0.63134 0.37883 -0.09500
H 	H 	0.75907 0.65103 0.34603 0.12200
C 	C 	0.71938 0.58819 0.53273 -0.09200
H 	H 	0.72257 0.57853 0.60283 0.11800
C 	C 	0.68845 0.57278 0.47223 0.12200
O 	O 	0.73392 0.64019 0.14263 -0.07900
O 	O 	0.68186 0.62504 0.16853 -0.07200
N 	N 	0.70888 0.62844 0.20633 -0.01200
O 	O 	0.80154 0.66285 0.50413 -0.37900
C 	C 	0.59208 0.55677 0.28843 -0.09900
H 	H 	0.57427 0.55843 0.32173 0.12300
C 	C 	0.58824 0.53971 0.17903 0.02000
C 	C 	0.62302 0.57115 0.34633 0.12700
C 	C 	0.61406 0.53575 0.13423 -0.09700
H 	H 	0.61087 0.52283 0.06433 0.12000
C 	C 	0.64489 0.55113 0.19383 0.12500
C 	C 	0.55476 0.52408 0.11413 0.32000
O 	O 	0.55248 0.50817 0.01673 -0.37700
O 	O 	0.53185 0.52812 0.16233 -0.37800
N 	N 	0.66785 0.54105 0.15203 -0.01500
O 	O 	0.69437 0.54928 0.20603 -0.07400
O 	O 	0.66317 0.52803 0.05083 -0.07500
N 	N 	0.62459 0.58634 0.46023 -0.01300
O 	O 	0.59926 0.57270 0.52493 -0.07900
N 	N 	0.66555 0.53998 0.51623 -0.01400
O 	O 	0.65151 0.60991 0.49823 -0.07200
O 	O 	0.63908 0.52150 0.45973 -0.07400
O 	O 	0.67012 0.53103 0.61433 -0.07600
Cu	Cu	0.48796 0.97593 0.08572 0.91400
O 	O 	0.44756 0.95565 0.98267 -0.37900
C 	C 	0.44529 0.96933 0.88567 0.32400
C 	C 	0.41193 0.95150 0.81977 0.01700
C 	C 	0.31672 0.90216 0.63507 -0.01300
C 	C 	0.37697 0.94827 0.65337 0.12500
C 	C 	0.35001 0.91849 0.69817 -0.01100
C 	C 	0.40791 0.96468 0.71217 -0.09500
H 	H 	0.42573 0.98437 0.67937 0.12200
C 	C 	0.38604 0.92153 0.86607 -0.09300
H 	H 	0.38923 0.91187 0.93617 0.11800
C 	C 	0.35511 0.90612 0.80557 0.12200
O 	O 	0.40058 0.97353 0.47597 -0.07900
O 	O 	0.34852 0.95838 0.50187 -0.07200
N 	N 	0.37554 0.96178 0.53967 -0.01200
O 	O 	0.46820 0.99619 0.83747 -0.37900
C 	C 	0.25874 0.89011 0.62177 -0.09900
H 	H 	0.24093 0.89177 0.65507 0.12300
C 	C 	0.25490 0.87305 0.51237 0.02000
C 	C 	0.28968 0.90449 0.67967 0.12700
C 	C 	0.28072 0.86909 0.46757 -0.09600
H 	H 	0.27753 0.85617 0.39767 0.11900
C 	C 	0.31155 0.88447 0.52717 0.12400
C 	C 	0.22142 0.85742 0.44747 0.32100
O 	O 	0.21914 0.84151 0.35007 -0.37800
O 	O 	0.19851 0.86146 0.49567 -0.37800
N 	N 	0.33451 0.87439 0.48537 -0.01400
O 	O 	0.36103 0.88262 0.53937 -0.07400
O 	O 	0.32983 0.86137 0.38417 -0.07600
N 	N 	0.29125 0.91968 0.79357 -0.01300
O 	O 	0.26592 0.90604 0.85827 -0.07900
N 	N 	0.33221 0.87332 0.84957 -0.01400
O 	O 	0.31817 0.94325 0.83157 -0.07200
O 	O 	0.30574 0.85484 0.79307 -0.07400
O 	O 	0.33678 0.86437 0.94767 -0.07500
Cu	Cu	0.69073 0.84536 0.41905 0.91400
O 	O 	0.71102 0.82525 0.31600 -0.37900
C 	C 	0.69734 0.80930 0.21900 0.32400
C 	C 	0.71517 0.79377 0.15310 0.01700
C 	C 	0.76451 0.74790 0.96840 -0.01300
C 	C 	0.71840 0.76204 0.98670 0.12600
C 	C 	0.74818 0.76486 0.03150 -0.01100
C 	C 	0.70199 0.77657 0.04550 -0.09600
H 	H 	0.68230 0.77470 0.01270 0.12200
C 	C 	0.74514 0.79785 0.19940 -0.09300
H 	H 	0.75480 0.81070 0.26950 0.11800
C 	C 	0.76055 0.78233 0.13890 0.12200
O 	O 	0.69314 0.76039 0.80930 -0.07900
O 	O 	0.70829 0.72348 0.83520 -0.07200
N 	N 	0.70489 0.74710 0.87300 -0.01200
O 	O 	0.67048 0.80535 0.17080 -0.38000
C 	C 	0.77656 0.70197 0.95510 -0.10000
H 	H 	0.77490 0.68250 0.98840 0.12300
C 	C 	0.79362 0.71519 0.84570 0.02000
C 	C 	0.76218 0.71853 0.01300 0.12800
C 	C 	0.79758 0.74497 0.80090 -0.09700
H 	H 	0.81050 0.75470 0.73100 0.11900
C 	C 	0.78220 0.76042 0.86050 0.12500
C 	C 	0.80925 0.69734 0.78080 0.32000
O 	O 	0.82516 0.71097 0.68340 -0.37800
O 	O 	0.80521 0.67039 0.82900 -0.37800
N 	N 	0.79228 0.79346 0.81870 -0.01500
O 	O 	0.78405 0.81175 0.87270 -0.07400
O 	O 	0.80530 0.80180 0.71750 -0.07600
N 	N 	0.74699 0.70491 0.12690 -0.01300
O 	O 	0.76063 0.69322 0.19160 -0.07900
N 	N 	0.79335 0.79223 0.18290 -0.01400
O 	O 	0.72342 0.70826 0.16490 -0.07200
O 	O 	0.81183 0.78424 0.12640 -0.07400
O 	O 	0.80230 0.80575 0.28100 -0.07600
Cu	Cu	0.35740 0.17869 0.75238 0.91400
O 	O 	0.37769 0.15858 0.64933 -0.37900
C 	C 	0.36401 0.14263 0.55233 0.32400
C 	C 	0.38184 0.12710 0.48643 0.01700
C 	C 	0.43118 0.08123 0.30173 -0.01300
C 	C 	0.38507 0.09537 0.32003 0.12500
C 	C 	0.41485 0.09819 0.36483 -0.01100
C 	C 	0.36866 0.10990 0.37883 -0.09500
H 	H 	0.34897 0.10803 0.34603 0.12200
C 	C 	0.41181 0.13118 0.53273 -0.09200
H 	H 	0.42147 0.14403 0.60283 0.11800
C 	C 	0.42722 0.11566 0.47223 0.12200
O 	O 	0.35981 0.09372 0.14263 -0.07900
O 	O 	0.37496 0.05681 0.16853 -0.07200
N 	N 	0.37156 0.08043 0.20633 -0.01200
O 	O 	0.33715 0.13868 0.50413 -0.37900
C 	C 	0.44323 0.03530 0.28843 -0.09900
H 	H 	0.44157 0.01583 0.32173 0.12300
C 	C 	0.46029 0.04852 0.17903 0.02000
C 	C 	0.42885 0.05186 0.34633 0.12700
C 	C 	0.46425 0.07830 0.13423 -0.09700
H 	H 	0.47717 0.08803 0.06433 0.12000
C 	C 	0.44887 0.09375 0.19383 0.12500
C 	C 	0.47592 0.03067 0.11413 0.32000
O 	O 	0.49183 0.04430 0.01673 -0.37700
O 	O 	0.47188 0.00372 0.16233 -0.37800
N 	N 	0.45895 0.12679 0.15203 -0.01500
O 	O 	0.45072 0.14508 0.20603 -0.07400
O 	O 	0.47197 0.13513 0.05083 -0.07500
N 	N 	0.41366 0.03824 0.46023 -0.01300
O 	O 	0.42730 0.02655 0.52493 -0.07900
N 	N 	0.46002 0.12556 0.51623 -0.01400
O 	O 	0.39009 0.04159 0.49823 -0.07200
O 	O 	0.47850 0.11757 0.45973 -0.07400
O 	O 	0.46897 0.13908 0.61433 -0.07600
Cu	Cu	0.02407 0.51202 0.08572 0.91400
O 	O 	0.04435 0.49192 0.98267 -0.37900
C 	C 	0.03067 0.47597 0.88567 0.32400
C 	C 	0.04850 0.46044 0.81977 0.01700
C 	C 	0.09784 0.41457 0.63507 -0.01300
C 	C 	0.05173 0.42871 0.65337 0.12500
C 	C 	0.08151 0.43153 0.69817 -0.01100
C 	C 	0.03532 0.44324 0.71217 -0.09500
H 	H 	0.01563 0.44137 0.67937 0.12200
C 	C 	0.07847 0.46452 0.86607 -0.09300
H 	H 	0.08813 0.47737 0.93617 0.11800
C 	C 	0.09388 0.44900 0.80557 0.12200
O 	O 	0.02647 0.42706 0.47597 -0.07900
O 	O 	0.04162 0.39015 0.50187 -0.07200
N 	N 	0.03822 0.41377 0.53967 -0.01200
O 	O 	0.00381 0.47202 0.83747 -0.37900
C 	C 	0.10989 0.36864 0.62177 -0.09900
H 	H 	0.10823 0.34917 0.65507 0.12300
C 	C 	0.12695 0.38186 0.51237 0.02000
C 	C 	0.09551 0.38520 0.67967 0.12700
C 	C 	0.13091 0.41164 0.46757 -0.09600
H 	H 	0.14383 0.42137 0.39767 0.11900
C 	C 	0.11553 0.42709 0.52717 0.12400
C 	C 	0.14258 0.36401 0.44747 0.32100
O 	O 	0.15849 0.37764 0.35007 -0.37800
O 	O 	0.13854 0.33706 0.49567 -0.37800
N 	N 	0.12561 0.46013 0.48537 -0.01400
O 	O 	0.11738 0.47842 0.53937 -0.07400
O 	O 	0.13863 0.46847 0.38417 -0.07600
N 	N 	0.08032 0.37158 0.79357 -0.01300
O 	O 	0.09396 0.35989 0.85827 -0.07900
N 	N 	0.12668 0.45890 0.84957 -0.01400
O 	O 	0.05675 0.37493 0.83157 -0.07200
O 	O 	0.14516 0.45091 0.79307 -0.07400
O 	O 	0.13563 0.47242 0.94767 -0.07500
Cu	Cu	0.15464 0.84538 0.41905 0.91400
O 	O 	0.17475 0.88577 0.31600 -0.37900
C 	C 	0.19070 0.88804 0.21900 0.32400
C 	C 	0.20623 0.92140 0.15310 0.01700
C 	C 	0.25210 0.01661 0.96840 -0.01300
C 	C 	0.23796 0.95636 0.98670 0.12600
C 	C 	0.23514 0.98332 0.03150 -0.01200
C 	C 	0.22343 0.92542 0.04550 -0.09700
H 	H 	0.22530 0.90760 0.01270 0.12200
C 	C 	0.20215 0.94729 0.19940 -0.09300
H 	H 	0.18930 0.94410 0.26950 0.11800
C 	C 	0.21767 0.97822 0.13890 0.12200
O 	O 	0.23961 0.93275 0.80930 -0.07900
O 	O 	0.27652 0.98481 0.83520 -0.07200
N 	N 	0.25290 0.95779 0.87300 -0.01300
O 	O 	0.19465 0.86513 0.17080 -0.38000
C 	C 	0.29803 0.07459 0.95510 -0.10000
H 	H 	0.31750 0.09240 0.98840 0.12300
C 	C 	0.28481 0.07843 0.84570 0.02000
C 	C 	0.28147 0.04365 0.01300 0.12800
C 	C 	0.25503 0.05261 0.80090 -0.09700
H 	H 	0.24530 0.05580 0.73100 0.11900
C 	C 	0.23958 0.02178 0.86050 0.12500
C 	C 	0.30266 0.11191 0.78080 0.32000
O 	O 	0.28903 0.11419 0.68340 -0.37800
O 	O 	0.32961 0.13482 0.82900 -0.37800
N 	N 	0.20654 0.99882 0.81870 -0.01400
O 	O 	0.18825 0.97230 0.87270 -0.07400
O 	O 	0.19820 0.00350 0.71750 -0.07600
N 	N 	0.29509 0.04208 0.12690 -0.01300
O 	O 	0.30678 0.06741 0.19160 -0.07900
N 	N 	0.20777 0.00112 0.18290 -0.01400
O 	O 	0.29174 0.01516 0.16490 -0.07200
O 	O 	0.21576 0.02759 0.12640 -0.07400
O 	O 	0.19425 0.99655 0.28100 -0.07600
Cu	Cu	0.82131 0.17871 0.75238 0.91400
O 	O 	0.84142 0.21910 0.64933 -0.37900
C 	C 	0.85737 0.22137 0.55233 0.32400
C 	C 	0.87290 0.25473 0.48643 0.01700
C 	C 	0.91877 0.34994 0.30173 -0.01300
C 	C 	0.90463 0.28969 0.32003 0.12500
C 	C 	0.90181 0.31665 0.36483 -0.01100
C 	C 	0.89010 0.25875 0.37883 -0.09500
H 	H 	0.89197 0.24093 0.34603 0.12200
C 	C 	0.86882 0.28062 0.53273 -0.09200
H 	H 	0.85597 0.27743 0.60283 0.11800
C 	C 	0.88434 0.31155 0.47223 0.12200
O 	O 	0.90628 0.26608 0.14263 -0.07900
O 	O 	0.94319 0.31814 0.16853 -0.07200
N 	N 	0.91957 0.29112 0.20633 -0.01200
O 	O 	0.86132 0.19846 0.50413 -0.37900
C 	C 	0.96470 0.40792 0.28843 -0.09900
H 	H 	0.98417 0.42573 0.32173 0.12300
C 	C 	0.95148 0.41176 0.17903 0.02000
C 	C 	0.94814 0.37698 0.34633 0.12700
C 	C 	0.92170 0.38594 0.13423 -0.09700
H 	H 	0.91197 0.38913 0.06433 0.12000
C 	C 	0.90625 0.35511 0.19383 0.12500
C 	C 	0.96933 0.44524 0.11413 0.32000
O 	O 	0.95570 0.44752 0.01673 -0.37700
O 	O 	0.99628 0.46815 0.16233 -0.37800
N 	N 	0.87321 0.33215 0.15203 -0.01500
O 	O 	0.85492 0.30563 0.20603 -0.07400
O 	O 	0.86487 0.33683 0.05083 -0.07500
N 	N 	0.96176 0.37541 0.46023 -0.01300
O 	O 	0.97345 0.40074 0.52493 -0.07900
N 	N 	0.87444 0.33445 0.51623 -0.01400
O 	O 	0.95841 0.34849 0.49823 -0.07200
O 	O 	0.88243 0.36092 0.45973 -0.07400
O 	O 	0.86092 0.32988 0.61433 -0.07600
Cu	Cu	0.48798 0.51204 0.08572 0.91400
O 	O 	0.50808 0.55244 0.98267 -0.37900
C 	C 	0.52403 0.55471 0.88567 0.32400
C 	C 	0.53956 0.58807 0.81977 0.01700
C 	C 	0.58543 0.68328 0.63507 -0.01300
C 	C 	0.57129 0.62303 0.65337 0.12500
C 	C 	0.56847 0.64999 0.69817 -0.01100
C 	C 	0.55676 0.59209 0.71217 -0.09500
H 	H 	0.55863 0.57427 0.67937 0.12200
C 	C 	0.53548 0.61396 0.86607 -0.09300
H 	H 	0.52263 0.61077 0.93617 0.11800
C 	C 	0.55100 0.64489 0.80557 0.12200
O 	O 	0.57294 0.59942 0.47597 -0.07900
O 	O 	0.60985 0.65148 0.50187 -0.07200
N 	N 	0.58623 0.62446 0.53967 -0.01200
O 	O 	0.52798 0.53180 0.83747 -0.37900
C 	C 	0.63136 0.74126 0.62177 -0.09900
H 	H 	0.65083 0.75907 0.65507 0.12300
C 	C 	0.61814 0.74510 0.51237 0.02000
C 	C 	0.61480 0.71032 0.67967 0.12700
C 	C 	0.58836 0.71928 0.46757 -0.09600
H 	H 	0.57863 0.72247 0.39767 0.11900
C 	C 	0.57291 0.68845 0.52717 0.12400
C 	C 	0.63599 0.77858 0.44747 0.32100
O 	O 	0.62236 0.78086 0.35007 -0.37800
O 	O 	0.66294 0.80149 0.49567 -0.37800
N 	N 	0.53987 0.66549 0.48537 -0.01400
O 	O 	0.52158 0.63897 0.53937 -0.07400
O 	O 	0.53153 0.67017 0.38417 -0.07600
N 	N 	0.62842 0.70875 0.79357 -0.01300
O 	O 	0.64011 0.73408 0.85827 -0.07900
N 	N 	0.54110 0.66779 0.84957 -0.01400
O 	O 	0.62507 0.68183 0.83157 -0.07200
O 	O 	0.54909 0.69426 0.79307 -0.07400
O 	O 	0.52758 0.66322 0.94767 -0.07500
Cu	Cu	0.84538 0.69073 0.58095 0.91400
O 	O 	0.88577 0.71102 0.68400 -0.37900
C 	C 	0.88804 0.69734 0.78100 0.32400
C 	C 	0.92140 0.71517 0.84690 0.01700
C 	C 	0.01661 0.76451 0.03160 -0.01400
C 	C 	0.95636 0.71840 0.01330 0.12600
C 	C 	0.98332 0.74818 0.96850 -0.01100
C 	C 	0.92542 0.70199 0.95450 -0.09600
H 	H 	0.90760 0.68230 0.98730 0.12200
C 	C 	0.94729 0.74514 0.80060 -0.09300
H 	H 	0.94410 0.75480 0.73050 0.11800
C 	C 	0.97822 0.76055 0.86110 0.12200
O 	O 	0.93275 0.69314 0.19070 -0.07900
O 	O 	0.98481 0.70829 0.16480 -0.07200
N 	N 	0.95779 0.70489 0.12700 -0.01200
O 	O 	0.86513 0.67048 0.82920 -0.38000
C 	C 	0.07459 0.77656 0.04490 -0.10000
H 	H 	0.09240 0.77490 0.01160 0.12300
C 	C 	0.07843 0.79362 0.15430 0.02000
C 	C 	0.04365 0.76218 0.98700 0.12800
C 	C 	0.05261 0.79758 0.19910 -0.09700
H 	H 	0.05580 0.81050 0.26900 0.11900
C 	C 	0.02178 0.78220 0.13950 0.12500
C 	C 	0.11191 0.80925 0.21920 0.32000
O 	O 	0.11419 0.82516 0.31660 -0.37800
O 	O 	0.13482 0.80521 0.17100 -0.37800
N 	N 	0.99882 0.79228 0.18130 -0.01400
O 	O 	0.97230 0.78405 0.12730 -0.07400
O 	O 	0.00350 0.80530 0.28250 -0.07600
N 	N 	0.04208 0.74699 0.87310 -0.01300
O 	O 	0.06741 0.76063 0.80840 -0.07900
N 	N 	0.00112 0.79335 0.81710 -0.01400
O 	O 	0.01516 0.72342 0.83510 -0.07200
O 	O 	0.02759 0.81183 0.87360 -0.07400
O 	O 	0.99655 0.80230 0.71900 -0.07600
Cu	Cu	0.51204 0.02407 0.91428 0.91400
O 	O 	0.55244 0.04435 0.01733 -0.37900
C 	C 	0.55471 0.03067 0.11433 0.32400
C 	C 	0.58807 0.04850 0.18023 0.01700
C 	C 	0.68328 0.09784 0.36493 -0.01300
C 	C 	0.62303 0.05173 0.34663 0.12500
C 	C 	0.64999 0.08151 0.30183 -0.01100
C 	C 	0.59209 0.03532 0.28783 -0.09500
H 	H 	0.57427 0.01563 0.32063 0.12200
C 	C 	0.61396 0.07847 0.13393 -0.09300
H 	H 	0.61077 0.08813 0.06383 0.11800
C 	C 	0.64489 0.09388 0.19443 0.12200
O 	O 	0.59942 0.02647 0.52403 -0.07900
O 	O 	0.65148 0.04162 0.49813 -0.07200
N 	N 	0.62446 0.03822 0.46033 -0.01200
O 	O 	0.53180 0.00381 0.16253 -0.37900
C 	C 	0.74126 0.10989 0.37823 -0.09900
H 	H 	0.75907 0.10823 0.34493 0.12300
C 	C 	0.74510 0.12695 0.48763 0.02000
C 	C 	0.71032 0.09551 0.32033 0.12700
C 	C 	0.71928 0.13091 0.53243 -0.09600
H 	H 	0.72247 0.14383 0.60233 0.11900
C 	C 	0.68845 0.11553 0.47283 0.12400
C 	C 	0.77858 0.14258 0.55253 0.32100
O 	O 	0.78086 0.15849 0.64993 -0.37800
O 	O 	0.80149 0.13854 0.50433 -0.37800
N 	N 	0.66549 0.12561 0.51463 -0.01400
O 	O 	0.63897 0.11738 0.46063 -0.07400
O 	O 	0.67017 0.13863 0.61583 -0.07600
N 	N 	0.70875 0.08032 0.20643 -0.01300
O 	O 	0.73408 0.09396 0.14173 -0.07900
N 	N 	0.66779 0.12668 0.15043 -0.01400
O 	O 	0.68183 0.05675 0.16843 -0.07200
O 	O 	0.69426 0.14516 0.20693 -0.07400
O 	O 	0.66322 0.13563 0.05233 -0.07500
Cu	Cu	0.17871 0.35740 0.24762 0.91400
O 	O 	0.21910 0.37769 0.35067 -0.37900
C 	C 	0.22137 0.36401 0.44767 0.32400
C 	C 	0.25473 0.38184 0.51357 0.01700
C 	C 	0.34994 0.43118 0.69827 -0.01300
C 	C 	0.28969 0.38507 0.67997 0.12500
C 	C 	0.31665 0.41485 0.63517 -0.01100
C 	C 	0.25875 0.36866 0.62117 -0.09500
H 	H 	0.24093 0.34897 0.65397 0.12200
C 	C 	0.28062 0.41181 0.46727 -0.09200
H 	H 	0.27743 0.42147 0.39717 0.11800
C 	C 	0.31155 0.42722 0.52777 0.12200
O 	O 	0.26608 0.35981 0.85737 -0.07900
O 	O 	0.31814 0.37496 0.83147 -0.07200
N 	N 	0.29112 0.37156 0.79367 -0.01200
O 	O 	0.19846 0.33715 0.49587 -0.37900
C 	C 	0.40792 0.44323 0.71157 -0.09900
H 	H 	0.42573 0.44157 0.67827 0.12300
C 	C 	0.41176 0.46029 0.82097 0.02000
C 	C 	0.37698 0.42885 0.65367 0.12700
C 	C 	0.38594 0.46425 0.86577 -0.09700
H 	H 	0.38913 0.47717 0.93567 0.12000
C 	C 	0.35511 0.44887 0.80617 0.12500
C 	C 	0.44524 0.47592 0.88587 0.32000
O 	O 	0.44752 0.49183 0.98327 -0.37700
O 	O 	0.46815 0.47188 0.83767 -0.37800
N 	N 	0.33215 0.45895 0.84797 -0.01500
O 	O 	0.30563 0.45072 0.79397 -0.07400
O 	O 	0.33683 0.47197 0.94917 -0.07500
N 	N 	0.37541 0.41366 0.53977 -0.01300
O 	O 	0.40074 0.42730 0.47507 -0.07900
N 	N 	0.33445 0.46002 0.48377 -0.01400
O 	O 	0.34849 0.39009 0.50177 -0.07200
O 	O 	0.36092 0.47850 0.54027 -0.07400
O 	O 	0.32988 0.46897 0.38567 -0.07600
Cu	Cu	0.30927 0.15464 0.58095 0.91400
O 	O 	0.28898 0.17475 0.68400 -0.37900
C 	C 	0.30266 0.19070 0.78100 0.32400
C 	C 	0.28483 0.20623 0.84690 0.01700
C 	C 	0.23549 0.25210 0.03160 -0.01300
C 	C 	0.28160 0.23796 0.01330 0.12600
C 	C 	0.25182 0.23514 0.96850 -0.01100
C 	C 	0.29801 0.22343 0.95450 -0.09600
H 	H 	0.31770 0.22530 0.98730 0.12200
C 	C 	0.25486 0.20215 0.80060 -0.09300
H 	H 	0.24520 0.18930 0.73050 0.11800
C 	C 	0.23945 0.21767 0.86110 0.12200
O 	O 	0.30686 0.23961 0.19070 -0.07900
O 	O 	0.29171 0.27652 0.16480 -0.07200
N 	N 	0.29511 0.25290 0.12700 -0.01200
O 	O 	0.32952 0.19465 0.82920 -0.38000
C 	C 	0.22344 0.29803 0.04490 -0.10000
H 	H 	0.22510 0.31750 0.01160 0.12300
C 	C 	0.20638 0.28481 0.15430 0.02000
C 	C 	0.23782 0.28147 0.98700 0.12800
C 	C 	0.20242 0.25503 0.19910 -0.09700
H 	H 	0.18950 0.24530 0.26900 0.11900
C 	C 	0.21780 0.23958 0.13950 0.12500
C 	C 	0.19075 0.30266 0.21920 0.32000
O 	O 	0.17484 0.28903 0.31660 -0.37800
O 	O 	0.19479 0.32961 0.17100 -0.37800
N 	N 	0.20772 0.20654 0.18130 -0.01500
O 	O 	0.21595 0.18825 0.12730 -0.07400
O 	O 	0.19470 0.19820 0.28250 -0.07600
N 	N 	0.25301 0.29509 0.87310 -0.01300
O 	O 	0.23937 0.30678 0.80840 -0.07900
N 	N 	0.20665 0.20777 0.81710 -0.01400
O 	O 	0.27658 0.29174 0.83510 -0.07200
O 	O 	0.18817 0.21576 0.87360 -0.07400
O 	O 	0.19770 0.19425 0.71900 -0.07600
Cu	Cu	0.97593 0.48798 0.91428 0.91400
O 	O 	0.95565 0.50808 0.01733 -0.37900
C 	C 	0.96933 0.52403 0.11433 0.32400
C 	C 	0.95150 0.53956 0.18023 0.01700
C 	C 	0.90216 0.58543 0.36493 -0.01300
C 	C 	0.94827 0.57129 0.34663 0.12500
C 	C 	0.91849 0.56847 0.30183 -0.01100
C 	C 	0.96468 0.55676 0.28783 -0.09500
H 	H 	0.98437 0.55863 0.32063 0.12200
C 	C 	0.92153 0.53548 0.13393 -0.09300
H 	H 	0.91187 0.52263 0.06383 0.11800
C 	C 	0.90612 0.55100 0.19443 0.12200
O 	O 	0.97353 0.57294 0.52403 -0.07900
O 	O 	0.95838 0.60985 0.49813 -0.07200
N 	N 	0.96178 0.58623 0.46033 -0.01200
O 	O 	0.99619 0.52798 0.16253 -0.37900
C 	C 	0.89011 0.63136 0.37823 -0.09900
H 	H 	0.89177 0.65083 0.34493 0.12300
C 	C 	0.87305 0.61814 0.48763 0.02000
C 	C 	0.90449 0.61480 0.32033 0.12700
C 	C 	0.86909 0.58836 0.53243 -0.09600
H 	H 	0.85617 0.57863 0.60233 0.11900
C 	C 	0.88447 0.57291 0.47283 0.12400
C 	C 	0.85742 0.63599 0.55253 0.32100
O 	O 	0.84151 0.62236 0.64993 -0.37800
O 	O 	0.86146 0.66294 0.50433 -0.37800
N 	N 	0.87439 0.53987 0.51463 -0.01400
O 	O 	0.88262 0.52158 0.46063 -0.07400
O 	O 	0.86137 0.53153 0.61583 -0.07600
N 	N 	0.91968 0.62842 0.20643 -0.01300
O 	O 	0.90604 0.64011 0.14173 -0.07900
N 	N 	0.87332 0.54110 0.15043 -0.01400
O 	O 	0.94325 0.62507 0.16843 -0.07200
O 	O 	0.85484 0.54909 0.20693 -0.07400
O 	O 	0.86437 0.52758 0.05233 -0.07500
Cu	Cu	0.64260 0.82131 0.24762 0.91400
O 	O 	0.62231 0.84142 0.35067 -0.37900
C 	C 	0.63599 0.85737 0.44767 0.32400
C 	C 	0.61816 0.87290 0.51357 0.01700
C 	C 	0.56882 0.91877 0.69827 -0.01300
C 	C 	0.61493 0.90463 0.67997 0.12500
C 	C 	0.58515 0.90181 0.63517 -0.01100
C 	C 	0.63134 0.89010 0.62117 -0.09500
H 	H 	0.65103 0.89197 0.65397 0.12200
C 	C 	0.58819 0.86882 0.46727 -0.09200
H 	H 	0.57853 0.85597 0.39717 0.11800
C 	C 	0.57278 0.88434 0.52777 0.12200
O 	O 	0.64019 0.90628 0.85737 -0.07900
O 	O 	0.62504 0.94319 0.83147 -0.07200
N 	N 	0.62844 0.91957 0.79367 -0.01200
O 	O 	0.66285 0.86132 0.49587 -0.37900
C 	C 	0.55677 0.96470 0.71157 -0.09900
H 	H 	0.55843 0.98417 0.67827 0.12300
C 	C 	0.53971 0.95148 0.82097 0.02000
C 	C 	0.57115 0.94814 0.65367 0.12700
C 	C 	0.53575 0.92170 0.86577 -0.09700
H 	H 	0.52283 0.91197 0.93567 0.12000
C 	C 	0.55113 0.90625 0.80617 0.12500
C 	C 	0.52408 0.96933 0.88587 0.32000
O 	O 	0.50817 0.95570 0.98327 -0.37700
O 	O 	0.52812 0.99628 0.83767 -0.37800
N 	N 	0.54105 0.87321 0.84797 -0.01500
O 	O 	0.54928 0.85492 0.79397 -0.07400
O 	O 	0.52803 0.86487 0.94917 -0.07500
N 	N 	0.58634 0.96176 0.53977 -0.01300
O 	O 	0.57270 0.97345 0.47507 -0.07900
N 	N 	0.53998 0.87444 0.48377 -0.01400
O 	O 	0.60991 0.95841 0.50177 -0.07200
O 	O 	0.52150 0.88243 0.54027 -0.07400
O 	O 	0.53103 0.86092 0.38567 -0.07600
Cu	Cu	0.84536 0.15462 0.58095 0.91400
O 	O 	0.82525 0.11423 0.68400 -0.37900
C 	C 	0.80930 0.11196 0.78100 0.32400
C 	C 	0.79377 0.07860 0.84690 0.01700
C 	C 	0.74790 0.98339 0.03160 -0.01300
C 	C 	0.76204 0.04364 0.01330 0.12600
C 	C 	0.76486 0.01668 0.96850 -0.01200
C 	C 	0.77657 0.07458 0.95450 -0.09700
H 	H 	0.77470 0.09240 0.98730 0.12200
C 	C 	0.79785 0.05271 0.80060 -0.09300
H 	H 	0.81070 0.05590 0.73050 0.11800
C 	C 	0.78233 0.02178 0.86110 0.12200
O 	O 	0.76039 0.06725 0.19070 -0.07900
O 	O 	0.72348 0.01519 0.16480 -0.07200
N 	N 	0.74710 0.04221 0.12700 -0.01300
O 	O 	0.80535 0.13487 0.82920 -0.38000
C 	C 	0.70197 0.92541 0.04490 -0.10000
H 	H 	0.68250 0.90760 0.01160 0.12300
C 	C 	0.71519 0.92157 0.15430 0.02000
C 	C 	0.71853 0.95635 0.98700 0.12800
C 	C 	0.74497 0.94739 0.19910 -0.09700
H 	H 	0.75470 0.94420 0.26900 0.11900
C 	C 	0.76042 0.97822 0.13950 0.12500
C 	C 	0.69734 0.88809 0.21920 0.32000
O 	O 	0.71097 0.88581 0.31660 -0.37800
O 	O 	0.67039 0.86518 0.17100 -0.37800
N 	N 	0.79346 0.00118 0.18130 -0.01400
O 	O 	0.81175 0.02770 0.12730 -0.07400
O 	O 	0.80180 0.99650 0.28250 -0.07600
N 	N 	0.70491 0.95792 0.87310 -0.01300
O 	O 	0.69322 0.93259 0.80840 -0.07900
N 	N 	0.79223 0.99888 0.81710 -0.01400
O 	O 	0.70826 0.98484 0.83510 -0.07200
O 	O 	0.78424 0.97241 0.87360 -0.07400
O 	O 	0.80575 0.00345 0.71900 -0.07600
Cu	Cu	0.51202 0.48796 0.91428 0.91400
O 	O 	0.49192 0.44756 0.01733 -0.37900
C 	C 	0.47597 0.44529 0.11433 0.32400
C 	C 	0.46044 0.41193 0.18023 0.01700
C 	C 	0.41457 0.31672 0.36493 -0.01300
C 	C 	0.42871 0.37697 0.34663 0.12500
C 	C 	0.43153 0.35001 0.30183 -0.01100
C 	C 	0.44324 0.40791 0.28783 -0.09500
H 	H 	0.44137 0.42573 0.32063 0.12200
C 	C 	0.46452 0.38604 0.13393 -0.09300
H 	H 	0.47737 0.38923 0.06383 0.11800
C 	C 	0.44900 0.35511 0.19443 0.12200
O 	O 	0.42706 0.40058 0.52403 -0.07900
O 	O 	0.39015 0.34852 0.49813 -0.07200
N 	N 	0.41377 0.37554 0.46033 -0.01200
O 	O 	0.47202 0.46820 0.16253 -0.37900
C 	C 	0.36864 0.25874 0.37823 -0.09900
H 	H 	0.34917 0.24093 0.34493 0.12300
C 	C 	0.38186 0.25490 0.48763 0.02000
C 	C 	0.38520 0.28968 0.32033 0.12700
C 	C 	0.41164 0.28072 0.53243 -0.09600
H 	H 	0.42137 0.27753 0.60233 0.11900
C 	C 	0.42709 0.31155 0.47283 0.12400
C 	C 	0.36401 0.22142 0.55253 0.32100
O 	O 	0.37764 0.21914 0.64993 -0.37800
O 	O 	0.33706 0.19851 0.50433 -0.37800
N 	N 	0.46013 0.33451 0.51463 -0.01400
O 	O 	0.47842 0.36103 0.46063 -0.07400
O 	O 	0.46847 0.32983 0.61583 -0.07600
N 	N 	0.37158 0.29125 0.20643 -0.01300
O 	O 	0.35989 0.26592 0.14173 -0.07900
N 	N 	0.45890 0.33221 0.15043 -0.01400
O 	O 	0.37493 0.31817 0.16843 -0.07200
O 	O 	0.45091 0.30574 0.20693 -0.07400
O 	O 	0.47242 0.33678 0.05233 -0.07500
Cu	Cu	0.17869 0.82129 0.24762 0.91400
O 	O 	0.15858 0.78090 0.35067 -0.37900
C 	C 	0.14263 0.77863 0.44767 0.32400
C 	C 	0.12710 0.74527 0.51357 0.01700
C 	C 	0.08123 0.65006 0.69827 -0.01300
C 	C 	0.09537 0.71031 0.67997 0.12500
C 	C 	0.09819 0.68335 0.63517 -0.01100
C 	C 	0.10990 0.74125 0.62117 -0.09500
H 	H 	0.10803 0.75907 0.65397 0.12200
C 	C 	0.13118 0.71938 0.46727 -0.09200
H 	H 	0.14403 0.72257 0.39717 0.11800
C 	C 	0.11566 0.68845 0.52777 0.12200
O 	O 	0.09372 0.73392 0.85737 -0.07900
O 	O 	0.05681 0.68186 0.83147 -0.07200
N 	N 	0.08043 0.70888 0.79367 -0.01200
O 	O 	0.13868 0.80154 0.49587 -0.37900
C 	C 	0.03530 0.59208 0.71157 -0.09900
H 	H 	0.01583 0.57427 0.67827 0.12300
C 	C 	0.04852 0.58824 0.82097 0.02000
C 	C 	0.05186 0.62302 0.65367 0.12700
C 	C 	0.07830 0.61406 0.86577 -0.09700
H 	H 	0.08803 0.61087 0.93567 0.12000
C 	C 	0.09375 0.64489 0.80617 0.12500
C 	C 	0.03067 0.55476 0.88587 0.32000
O 	O 	0.04430 0.55248 0.98327 -0.37700
O 	O 	0.00372 0.53185 0.83767 -0.37800
N 	N 	0.12679 0.66785 0.84797 -0.01500
O 	O 	0.14508 0.69437 0.79397 -0.07400
O 	O 	0.13513 0.66317 0.94917 -0.07500
N 	N 	0.03824 0.62459 0.53977 -0.01300
O 	O 	0.02655 0.59926 0.47507 -0.07900
N 	N 	0.12556 0.66555 0.48377 -0.01400
O 	O 	0.04159 0.65151 0.50177 -0.07200
O 	O 	0.11757 0.63908 0.54027 -0.07400
O 	O 	0.13908 0.67012 0.38567 -0.07600
