data_crystal

_cell_length_a 8.93640
_cell_length_b 8.93640
_cell_length_c 8.93640
_cell_angle_alpha 60.00000
_cell_angle_beta  60.00000
_cell_angle_gamma 60.00000

_symmetry_space_group_name_	'P 1'
_symmetry_space_group_name_H-M	'P 1'

loop_
_symmetry_equiv_pos_as_xyz
  x,y,z

loop_
_atom_site_label
_atom_site_type_symbol
_atom_site_fract_x
_atom_site_fract_y
_atom_site_fract_z
_atom_site_charge
Cd	Cd	0.87500 0.37500 0.37500 1.15500
Cd	Cd	0.12500 0.62500 0.62500 1.15500
C 	C 	0.58100 0.47300 0.47300 -0.32300
C 	C 	0.97300 0.08100 0.47300 -0.32000
N 	N 	0.97300 0.47300 0.08100 -0.26400
N 	N 	0.97300 0.47300 0.47300 -0.26100
N 	N 	0.02700 0.91900 0.52700 -0.25800
N 	N 	0.41900 0.52700 0.52700 -0.25600
C 	C 	0.02700 0.52700 0.91900 -0.31200
C 	C 	0.02700 0.52700 0.52700 -0.31600
