data_crystal

_cell_length_a 32.47000
_cell_length_b 22.11500
_cell_length_c 20.27300
_cell_angle_alpha 90.00000
_cell_angle_beta  90.00000
_cell_angle_gamma 90.00000

_symmetry_space_group_name_	'P 1'
_symmetry_space_group_name_H-M	'P 1'

loop_
_symmetry_equiv_pos_as_xyz
  x,y,z

loop_
_atom_site_label
_atom_site_type_symbol
_atom_site_fract_x
_atom_site_fract_y
_atom_site_fract_z
_atom_site_charge
Cu	Cu	0.96242 0.85432 0.72297 0.91600
Cu	Cu	0.96112 0.92377 0.58648 0.92500
Cu	Cu	0.01624 0.81573 0.61089 0.92500
Cu	Cu	0.96681 0.98549 0.44975 0.93300
C 	C 	0.76425 0.88270 0.46030 -0.03800
C 	C 	0.78910 0.90870 0.40920 0.10900
C 	C 	0.78120 0.87480 0.52080 0.10700
C 	C 	0.82932 0.92400 0.42100 -0.09200
H 	H 	0.84520 0.94010 0.38720 0.11000
C 	C 	0.84654 0.91580 0.48300 -0.00800
C 	C 	0.88991 0.93420 0.49670 0.33500
C 	C 	0.82258 0.89050 0.53210 -0.08000
H 	H 	0.83410 0.88360 0.57340 0.10200
C 	C 	0.70100 0.81950 0.43180 0.07600
C 	C 	0.71891 0.87260 0.44760 0.05900
C 	C 	0.69360 0.92220 0.45420 -0.07000
H 	H 	0.70510 0.95910 0.46610 0.08300
C 	C 	0.65141 0.91890 0.44350 0.01700
H 	H 	0.63520 0.95340 0.44680 0.05400
C 	C 	0.63351 0.86350 0.42780 -0.05600
C 	C 	0.65840 0.81380 0.42240 -0.03500
H 	H 	0.64710 0.77630 0.41250 0.09500
C 	C 	0.58807 0.85890 0.41700 0.34100
C 	C 	0.87957 0.87280 0.76100 0.33900
C 	C 	0.84091 0.91280 0.75470 -0.02200
C 	C 	0.80890 0.90400 0.79840 -0.00100
H 	H 	0.81050 0.87510 0.83160 0.07500
C 	C 	0.77370 0.94040 0.79080 -0.04900
H 	H 	0.75210 0.93590 0.82050 0.08300
C 	C 	0.77013 0.98110 0.74280 0.02300
C 	C 	0.80203 0.98840 0.70150 0.08400
C 	C 	0.83835 0.95500 0.70690 -0.05500
H 	H 	0.86020 0.96170 0.67820 0.08900
C 	C 	0.99073 0.83270 0.48030 0.37300
C 	C 	0.98434 0.80900 0.41100 -0.07400
C 	C 	0.95068 0.82880 0.37320 -0.04600
H 	H 	0.93280 0.85800 0.38960 0.08300
C 	C 	0.94470 0.80410 0.31140 0.07400
C 	C 	0.97190 0.76270 0.28370 0.02100
C 	C 	0.00518 0.74500 0.32260 -0.07600
H 	H 	0.02430 0.71770 0.30570 0.08500
C 	C 	0.01035 0.76710 0.38550 0.01700
H 	H 	0.03210 0.75310 0.41110 0.06200
C 	C 	0.99560 0.83410 0.85450 0.36500
C 	C 	0.00104 0.85720 0.92360 -0.07200
C 	C 	0.97260 0.89660 0.94920 0.01300
H 	H 	0.95000 0.90810 0.92400 0.06600
C 	C 	0.97750 0.91960 0.01280 -0.07200
H 	H 	0.95820 0.94690 0.02910 0.08500
C 	C 	0.01027 0.90280 0.05220 0.02200
C 	C 	0.03843 0.86300 0.02360 0.07300
C 	C 	0.03446 0.84040 0.96100 -0.04400
H 	H 	0.05410 0.81400 0.94410 0.08600
C 	C 	0.01047 0.92750 0.12050 0.02100
C 	C 	0.97550 0.91400 0.16040 -0.07800
H 	H 	0.95540 0.88820 0.14390 0.08600
C 	C 	0.97052 0.93790 0.22230 0.02000
H 	H 	0.94720 0.92800 0.24660 0.06200
C 	C 	0.99878 0.97560 0.24870 -0.07900
C 	C 	0.99362 0.00190 0.31620 0.36900
C 	C 	0.03383 0.98940 0.21160 -0.04600
H 	H 	0.05390 0.01480 0.22900 0.08100
C 	C 	0.03880 0.96600 0.15040 0.07300
O 	O 	0.90923 0.95898 0.45085 -0.38000
O 	O 	0.90268 0.92258 0.55421 -0.37800
O 	O 	0.78810 0.95430 0.30450 -0.07400
O 	O 	0.75080 0.87690 0.31830 -0.06900
O 	O 	0.76160 0.76950 0.40410 -0.04000
O 	O 	0.70640 0.71080 0.43850 -0.04600
O 	O 	0.57512 0.80829 0.39861 -0.38300
O 	O 	0.56579 0.90373 0.42651 -0.36600
O 	O 	0.90943 0.89116 0.72638 -0.39400
O 	O 	0.87923 0.83040 0.79920 -0.26700
O 	O 	0.82720 0.03820 0.60790 -0.10300
O 	O 	0.78250 0.08510 0.65920 -0.06900
O 	O 	0.00751 0.79652 0.51966 -0.40200
O 	O 	0.97946 0.88505 0.49344 -0.45000
O 	O 	0.90496 0.81540 0.21740 -0.08900
O 	O 	0.88188 0.85060 0.30610 -0.08700
O 	O 	0.01429 0.78665 0.83951 -0.47200
O 	O 	0.97273 0.86470 0.81685 -0.40500
O 	O 	0.10450 0.82280 0.02810 -0.08500
O 	O 	0.07618 0.84720 0.12020 -0.09600
O 	O 	0.07968 0.97750 0.05450 -0.09600
O 	O 	0.10574 0.00080 0.14610 -0.09500
O 	O 	0.01482 0.04752 0.32947 -0.46700
O 	O 	0.96902 0.97506 0.35439 -0.39200
O 	O 	0.97331 0.99926 0.54415 -0.63200
H 	H 	0.95660 0.03290 0.56070 0.18700
O 	O 	0.95951 0.84411 0.62631 -0.63600
H 	H 	0.93770 0.81730 0.61030 0.19000
O 	O 	0.01859 0.82652 0.70669 -0.65500
H 	H 	0.03960 0.85560 0.72080 0.18600
O 	O 	0.77130 0.85610 0.64170 -0.05800
O 	O 	0.73470 0.79870 0.56560 -0.03100
N 	N 	0.77520 0.91400 0.33960 -0.01200
N 	N 	0.76560 0.83360 0.58240 -0.00000
N 	N 	0.72470 0.76090 0.42570 0.00500
N 	N 	0.80020 0.03160 0.64670 -0.01400
N 	N 	0.90860 0.82360 0.27570 -0.00600
N 	N 	0.07609 0.84230 0.05980 -0.00400
N 	N 	0.07741 0.98230 0.11550 -0.00300
O 	O 	0.75970 0.75710 0.44760 -0.04100
O 	O 	0.71030 0.71730 0.38530 -0.04800
O 	O 	0.78740 0.80120 0.63220 -0.06000
O 	O 	0.72640 0.82590 0.57660 -0.03900
Cu	Cu	0.53758 0.14568 0.72297 0.91700
Cu	Cu	0.53888 0.07623 0.58648 0.92600
Cu	Cu	0.48376 0.18427 0.61089 0.92600
Cu	Cu	0.53319 0.01451 0.44975 0.93400
C 	C 	0.73575 0.11730 0.46030 -0.03800
C 	C 	0.71090 0.09130 0.40920 0.10900
C 	C 	0.71880 0.12520 0.52080 0.10700
C 	C 	0.67068 0.07600 0.42100 -0.09200
H 	H 	0.65480 0.05990 0.38720 0.11000
C 	C 	0.65346 0.08420 0.48300 -0.00800
C 	C 	0.61009 0.06580 0.49670 0.33500
C 	C 	0.67742 0.10950 0.53210 -0.08000
H 	H 	0.66590 0.11640 0.57340 0.10200
C 	C 	0.79900 0.18050 0.43180 0.07600
C 	C 	0.78109 0.12740 0.44760 0.05900
C 	C 	0.80640 0.07780 0.45420 -0.07000
H 	H 	0.79490 0.04090 0.46610 0.08300
C 	C 	0.84859 0.08110 0.44350 0.01700
H 	H 	0.86480 0.04660 0.44680 0.05400
C 	C 	0.86649 0.13650 0.42780 -0.05600
C 	C 	0.84160 0.18620 0.42240 -0.03500
H 	H 	0.85290 0.22370 0.41250 0.09500
C 	C 	0.91193 0.14110 0.41700 0.34100
C 	C 	0.62043 0.12720 0.76100 0.33900
C 	C 	0.65909 0.08720 0.75470 -0.02200
C 	C 	0.69110 0.09600 0.79840 -0.00100
H 	H 	0.68950 0.12490 0.83160 0.07500
C 	C 	0.72630 0.05960 0.79080 -0.04900
H 	H 	0.74790 0.06410 0.82050 0.08300
C 	C 	0.72987 0.01890 0.74280 0.02300
C 	C 	0.69797 0.01160 0.70150 0.08400
C 	C 	0.66165 0.04500 0.70690 -0.05500
H 	H 	0.63980 0.03830 0.67820 0.08900
C 	C 	0.50927 0.16730 0.48030 0.37300
C 	C 	0.51566 0.19100 0.41100 -0.07400
C 	C 	0.54932 0.17120 0.37320 -0.04600
H 	H 	0.56720 0.14200 0.38960 0.08300
C 	C 	0.55530 0.19590 0.31140 0.07400
C 	C 	0.52810 0.23730 0.28370 0.02100
C 	C 	0.49482 0.25500 0.32260 -0.07600
H 	H 	0.47570 0.28230 0.30570 0.08500
C 	C 	0.48965 0.23290 0.38550 0.01700
H 	H 	0.46790 0.24690 0.41110 0.06200
C 	C 	0.50440 0.16590 0.85450 0.36400
C 	C 	0.49896 0.14280 0.92360 -0.07100
C 	C 	0.52740 0.10340 0.94920 0.01100
H 	H 	0.55000 0.09190 0.92400 0.06700
C 	C 	0.52250 0.08040 0.01280 -0.07100
H 	H 	0.54180 0.05310 0.02910 0.08500
C 	C 	0.48973 0.09720 0.05220 0.02100
C 	C 	0.46157 0.13700 0.02360 0.07400
C 	C 	0.46554 0.15960 0.96100 -0.04500
H 	H 	0.44590 0.18600 0.94410 0.08600
C 	C 	0.48953 0.07250 0.12050 0.02100
C 	C 	0.52450 0.08600 0.16040 -0.07800
H 	H 	0.54460 0.11180 0.14390 0.08600
C 	C 	0.52948 0.06210 0.22230 0.02000
H 	H 	0.55280 0.07200 0.24660 0.06200
C 	C 	0.50122 0.02440 0.24870 -0.07900
C 	C 	0.50638 0.99810 0.31620 0.36900
C 	C 	0.46617 0.01060 0.21160 -0.04600
H 	H 	0.44610 0.98520 0.22900 0.08100
C 	C 	0.46120 0.03400 0.15040 0.07300
O 	O 	0.59077 0.04102 0.45085 -0.38000
O 	O 	0.59732 0.07742 0.55421 -0.37800
O 	O 	0.71190 0.04570 0.30450 -0.07400
O 	O 	0.74920 0.12310 0.31830 -0.06900
O 	O 	0.73840 0.23050 0.40410 -0.04000
O 	O 	0.79360 0.28920 0.43850 -0.04600
O 	O 	0.92488 0.19171 0.39861 -0.38300
O 	O 	0.93421 0.09627 0.42651 -0.36600
O 	O 	0.59057 0.10884 0.72638 -0.39400
O 	O 	0.62077 0.16960 0.79920 -0.26700
O 	O 	0.67280 0.96180 0.60790 -0.10300
O 	O 	0.71750 0.91490 0.65920 -0.06900
O 	O 	0.49249 0.20348 0.51966 -0.40200
O 	O 	0.52054 0.11495 0.49344 -0.45000
O 	O 	0.59504 0.18460 0.21740 -0.08900
O 	O 	0.61812 0.14940 0.30610 -0.08700
O 	O 	0.48571 0.21335 0.83951 -0.47200
O 	O 	0.52727 0.13530 0.81685 -0.40500
O 	O 	0.39550 0.17720 0.02810 -0.08500
O 	O 	0.42382 0.15280 0.12020 -0.09600
O 	O 	0.42032 0.02250 0.05450 -0.09600
O 	O 	0.39426 0.99920 0.14610 -0.09500
O 	O 	0.48518 0.95248 0.32947 -0.46700
O 	O 	0.53098 0.02494 0.35439 -0.39200
O 	O 	0.52669 0.00074 0.54415 -0.63200
H 	H 	0.54340 0.96710 0.56070 0.18700
O 	O 	0.54049 0.15589 0.62631 -0.63600
H 	H 	0.56230 0.18270 0.61030 0.19000
O 	O 	0.48141 0.17348 0.70669 -0.65500
H 	H 	0.46040 0.14440 0.72080 0.18600
O 	O 	0.72870 0.14390 0.64170 -0.05800
O 	O 	0.76530 0.20130 0.56560 -0.03100
N 	N 	0.72480 0.08600 0.33960 -0.01200
N 	N 	0.73440 0.16640 0.58240 -0.00000
N 	N 	0.77530 0.23910 0.42570 0.00500
N 	N 	0.69980 0.96840 0.64670 -0.01400
N 	N 	0.59140 0.17640 0.27570 -0.00600
N 	N 	0.42391 0.15770 0.05980 -0.00400
N 	N 	0.42259 0.01770 0.11550 -0.00300
O 	O 	0.74030 0.24290 0.44760 -0.04100
O 	O 	0.78970 0.28270 0.38530 -0.04800
O 	O 	0.71260 0.19880 0.63220 -0.06000
O 	O 	0.77360 0.17410 0.57660 -0.03900
Cu	Cu	0.53758 0.35432 0.77703 0.91700
Cu	Cu	0.53888 0.42377 0.91352 0.92600
Cu	Cu	0.48376 0.31573 0.88911 0.92600
Cu	Cu	0.53319 0.48549 0.05025 0.93400
C 	C 	0.73575 0.38270 0.03970 -0.03800
C 	C 	0.71090 0.40870 0.09080 0.11000
C 	C 	0.71880 0.37480 0.97920 0.10700
C 	C 	0.67068 0.42400 0.07900 -0.09200
H 	H 	0.65480 0.44010 0.11280 0.11000
C 	C 	0.65346 0.41580 0.01700 -0.00800
C 	C 	0.61009 0.43420 0.00330 0.33500
C 	C 	0.67742 0.39050 0.96790 -0.08000
H 	H 	0.66590 0.38360 0.92660 0.10200
C 	C 	0.79900 0.31950 0.06820 0.07600
C 	C 	0.78109 0.37260 0.05240 0.05900
C 	C 	0.80640 0.42220 0.04580 -0.07000
H 	H 	0.79490 0.45910 0.03390 0.08300
C 	C 	0.84859 0.41890 0.05650 0.01700
H 	H 	0.86480 0.45340 0.05320 0.05400
C 	C 	0.86649 0.36350 0.07220 -0.05600
C 	C 	0.84160 0.31380 0.07760 -0.03500
H 	H 	0.85290 0.27630 0.08750 0.09500
C 	C 	0.91193 0.35890 0.08300 0.34100
C 	C 	0.62043 0.37280 0.73900 0.33900
C 	C 	0.65909 0.41280 0.74530 -0.02200
C 	C 	0.69110 0.40400 0.70160 -0.00100
H 	H 	0.68950 0.37510 0.66840 0.07500
C 	C 	0.72630 0.44040 0.70920 -0.04900
H 	H 	0.74790 0.43590 0.67950 0.08300
C 	C 	0.72987 0.48110 0.75720 0.02300
C 	C 	0.69797 0.48840 0.79850 0.08400
C 	C 	0.66165 0.45500 0.79310 -0.05500
H 	H 	0.63980 0.46170 0.82180 0.08900
C 	C 	0.50927 0.33270 0.01970 0.37300
C 	C 	0.51566 0.30900 0.08900 -0.07400
C 	C 	0.54932 0.32880 0.12680 -0.04600
H 	H 	0.56720 0.35800 0.11040 0.08300
C 	C 	0.55530 0.30410 0.18860 0.07400
C 	C 	0.52810 0.26270 0.21630 0.02100
C 	C 	0.49482 0.24500 0.17740 -0.07600
H 	H 	0.47570 0.21770 0.19430 0.08500
C 	C 	0.48965 0.26710 0.11450 0.01700
H 	H 	0.46790 0.25310 0.08890 0.06200
C 	C 	0.50440 0.33410 0.64550 0.36400
C 	C 	0.49896 0.35720 0.57640 -0.07100
C 	C 	0.52740 0.39660 0.55080 0.01100
H 	H 	0.55000 0.40810 0.57600 0.06700
C 	C 	0.52250 0.41960 0.48720 -0.07100
H 	H 	0.54180 0.44690 0.47090 0.08500
C 	C 	0.48973 0.40280 0.44780 0.02100
C 	C 	0.46157 0.36300 0.47640 0.07400
C 	C 	0.46554 0.34040 0.53900 -0.04500
H 	H 	0.44590 0.31400 0.55590 0.08600
C 	C 	0.48953 0.42750 0.37950 0.02100
C 	C 	0.52450 0.41400 0.33960 -0.07800
H 	H 	0.54460 0.38820 0.35610 0.08600
C 	C 	0.52948 0.43790 0.27770 0.02000
H 	H 	0.55280 0.42800 0.25340 0.06200
C 	C 	0.50122 0.47560 0.25130 -0.07900
C 	C 	0.50638 0.50190 0.18380 0.36900
C 	C 	0.46617 0.48940 0.28840 -0.04600
H 	H 	0.44610 0.51480 0.27100 0.08100
C 	C 	0.46120 0.46600 0.34960 0.07300
O 	O 	0.59077 0.45898 0.04915 -0.38000
O 	O 	0.59732 0.42258 0.94579 -0.37800
O 	O 	0.71190 0.45430 0.19550 -0.07400
O 	O 	0.74920 0.37690 0.18170 -0.06900
O 	O 	0.73840 0.26950 0.09590 -0.04000
O 	O 	0.79360 0.21080 0.06150 -0.04600
O 	O 	0.92488 0.30829 0.10139 -0.38300
O 	O 	0.93421 0.40373 0.07349 -0.36600
O 	O 	0.59057 0.39116 0.77362 -0.39400
O 	O 	0.62077 0.33040 0.70080 -0.26700
O 	O 	0.67280 0.53820 0.89210 -0.10300
O 	O 	0.71750 0.58510 0.84080 -0.06900
O 	O 	0.49249 0.29652 0.98034 -0.40200
O 	O 	0.52054 0.38505 0.00656 -0.45000
O 	O 	0.59504 0.31540 0.28260 -0.08900
O 	O 	0.61812 0.35060 0.19390 -0.08700
O 	O 	0.48571 0.28665 0.66049 -0.47200
O 	O 	0.52727 0.36470 0.68315 -0.40500
O 	O 	0.39550 0.32280 0.47190 -0.08500
O 	O 	0.42382 0.34720 0.37980 -0.09600
O 	O 	0.42032 0.47750 0.44550 -0.09600
O 	O 	0.39426 0.50080 0.35390 -0.09500
O 	O 	0.48518 0.54752 0.17053 -0.46700
O 	O 	0.53098 0.47506 0.14561 -0.39200
O 	O 	0.52669 0.49926 0.95585 -0.63200
H 	H 	0.54340 0.53290 0.93930 0.18700
O 	O 	0.54049 0.34411 0.87369 -0.63600
H 	H 	0.56230 0.31730 0.88970 0.19000
O 	O 	0.48141 0.32652 0.79331 -0.65500
H 	H 	0.46040 0.35560 0.77920 0.18600
O 	O 	0.72870 0.35610 0.85830 -0.05800
O 	O 	0.76530 0.29870 0.93440 -0.03100
N 	N 	0.72480 0.41400 0.16040 -0.01200
N 	N 	0.73440 0.33360 0.91760 -0.00000
N 	N 	0.77530 0.26090 0.07430 0.00500
N 	N 	0.69980 0.53160 0.85330 -0.01400
N 	N 	0.59140 0.32360 0.22430 -0.00600
N 	N 	0.42391 0.34230 0.44020 -0.00400
N 	N 	0.42259 0.48230 0.38450 -0.00300
O 	O 	0.74030 0.25710 0.05240 -0.04100
O 	O 	0.78970 0.21730 0.11470 -0.04800
O 	O 	0.71260 0.30120 0.86780 -0.06000
O 	O 	0.77360 0.32590 0.92340 -0.03900
Cu	Cu	0.96242 0.64568 0.77703 0.91700
Cu	Cu	0.96112 0.57623 0.91352 0.92600
Cu	Cu	0.01624 0.68427 0.88911 0.92600
Cu	Cu	0.96681 0.51451 0.05025 0.93400
C 	C 	0.76425 0.61730 0.03970 -0.03800
C 	C 	0.78910 0.59130 0.09080 0.11000
C 	C 	0.78120 0.62520 0.97920 0.10700
C 	C 	0.82932 0.57600 0.07900 -0.09200
H 	H 	0.84520 0.55990 0.11280 0.11000
C 	C 	0.84654 0.58420 0.01700 -0.00800
C 	C 	0.88991 0.56580 0.00330 0.33500
C 	C 	0.82258 0.60950 0.96790 -0.08000
H 	H 	0.83410 0.61640 0.92660 0.10200
C 	C 	0.70100 0.68050 0.06820 0.07600
C 	C 	0.71891 0.62740 0.05240 0.05900
C 	C 	0.69360 0.57780 0.04580 -0.07000
H 	H 	0.70510 0.54090 0.03390 0.08300
C 	C 	0.65141 0.58110 0.05650 0.01700
H 	H 	0.63520 0.54660 0.05320 0.05400
C 	C 	0.63351 0.63650 0.07220 -0.05600
C 	C 	0.65840 0.68620 0.07760 -0.03500
H 	H 	0.64710 0.72370 0.08750 0.09500
C 	C 	0.58807 0.64110 0.08300 0.34100
C 	C 	0.87957 0.62720 0.73900 0.33900
C 	C 	0.84091 0.58720 0.74530 -0.02200
C 	C 	0.80890 0.59600 0.70160 -0.00100
H 	H 	0.81050 0.62490 0.66840 0.07500
C 	C 	0.77370 0.55960 0.70920 -0.04900
H 	H 	0.75210 0.56410 0.67950 0.08300
C 	C 	0.77013 0.51890 0.75720 0.02300
C 	C 	0.80203 0.51160 0.79850 0.08400
C 	C 	0.83835 0.54500 0.79310 -0.05500
H 	H 	0.86020 0.53830 0.82180 0.08900
C 	C 	0.99073 0.66730 0.01970 0.37300
C 	C 	0.98434 0.69100 0.08900 -0.07500
C 	C 	0.95068 0.67120 0.12680 -0.04600
H 	H 	0.93280 0.64200 0.11040 0.08300
C 	C 	0.94470 0.69590 0.18860 0.07400
C 	C 	0.97190 0.73730 0.21630 0.02100
C 	C 	0.00518 0.75500 0.17740 -0.07600
H 	H 	0.02430 0.78230 0.19430 0.08500
C 	C 	0.01035 0.73290 0.11450 0.01800
H 	H 	0.03210 0.74690 0.08890 0.06200
C 	C 	0.99560 0.66590 0.64550 0.36500
C 	C 	0.00104 0.64280 0.57640 -0.07100
C 	C 	0.97260 0.60340 0.55080 0.01100
H 	H 	0.95000 0.59190 0.57600 0.06700
C 	C 	0.97750 0.58040 0.48720 -0.07100
H 	H 	0.95820 0.55310 0.47090 0.08500
C 	C 	0.01027 0.59720 0.44780 0.02100
C 	C 	0.03843 0.63700 0.47640 0.07400
C 	C 	0.03446 0.65960 0.53900 -0.04500
H 	H 	0.05410 0.68600 0.55590 0.08600
C 	C 	0.01047 0.57250 0.37950 0.02200
C 	C 	0.97550 0.58600 0.33960 -0.07800
H 	H 	0.95540 0.61180 0.35610 0.08600
C 	C 	0.97052 0.56210 0.27770 0.02000
H 	H 	0.94720 0.57200 0.25340 0.06200
C 	C 	0.99878 0.52440 0.25130 -0.07900
C 	C 	0.99362 0.49810 0.18380 0.36900
C 	C 	0.03383 0.51060 0.28840 -0.04600
H 	H 	0.05390 0.48520 0.27100 0.08100
C 	C 	0.03880 0.53400 0.34960 0.07300
O 	O 	0.90923 0.54102 0.04915 -0.38000
O 	O 	0.90268 0.57742 0.94579 -0.37800
O 	O 	0.78810 0.54570 0.19550 -0.07400
O 	O 	0.75080 0.62310 0.18170 -0.06900
O 	O 	0.76160 0.73050 0.09590 -0.04000
O 	O 	0.70640 0.78920 0.06150 -0.04600
O 	O 	0.57512 0.69171 0.10139 -0.38300
O 	O 	0.56579 0.59627 0.07349 -0.36600
O 	O 	0.90943 0.60884 0.77362 -0.39400
O 	O 	0.87923 0.66960 0.70080 -0.26700
O 	O 	0.82720 0.46180 0.89210 -0.10300
O 	O 	0.78250 0.41490 0.84080 -0.06900
O 	O 	0.00751 0.70348 0.98034 -0.40200
O 	O 	0.97946 0.61495 0.00656 -0.45000
O 	O 	0.90496 0.68460 0.28260 -0.08900
O 	O 	0.88188 0.64940 0.19390 -0.08700
O 	O 	0.01429 0.71335 0.66049 -0.47200
O 	O 	0.97273 0.63530 0.68315 -0.40500
O 	O 	0.10450 0.67720 0.47190 -0.08500
O 	O 	0.07618 0.65280 0.37980 -0.09600
O 	O 	0.07968 0.52250 0.44550 -0.09600
O 	O 	0.10574 0.49920 0.35390 -0.09500
O 	O 	0.01482 0.45248 0.17053 -0.46700
O 	O 	0.96902 0.52494 0.14561 -0.39200
O 	O 	0.97331 0.50074 0.95585 -0.63200
H 	H 	0.95660 0.46710 0.93930 0.18700
O 	O 	0.95951 0.65589 0.87369 -0.63500
H 	H 	0.93770 0.68270 0.88970 0.19000
O 	O 	0.01859 0.67348 0.79331 -0.65500
H 	H 	0.03960 0.64440 0.77920 0.18600
O 	O 	0.77130 0.64390 0.85830 -0.05800
O 	O 	0.73470 0.70130 0.93440 -0.03100
N 	N 	0.77520 0.58600 0.16040 -0.01200
N 	N 	0.76560 0.66640 0.91760 -0.00000
N 	N 	0.72470 0.73910 0.07430 0.00500
N 	N 	0.80020 0.46840 0.85330 -0.01400
N 	N 	0.90860 0.67640 0.22430 -0.00600
N 	N 	0.07609 0.65770 0.44020 -0.00400
N 	N 	0.07741 0.51770 0.38450 -0.00300
O 	O 	0.75970 0.74290 0.05240 -0.04100
O 	O 	0.71030 0.78270 0.11470 -0.04800
O 	O 	0.78740 0.69880 0.86780 -0.06000
O 	O 	0.72640 0.67410 0.92340 -0.03900
Cu	Cu	0.03758 0.14568 0.27703 0.91700
Cu	Cu	0.03888 0.07623 0.41352 0.92600
Cu	Cu	0.98376 0.18427 0.38911 0.92600
Cu	Cu	0.03319 0.01451 0.55025 0.93400
C 	C 	0.23575 0.11730 0.53970 -0.03800
C 	C 	0.21090 0.09130 0.59080 0.10900
C 	C 	0.21880 0.12520 0.47920 0.10700
C 	C 	0.17068 0.07600 0.57900 -0.09200
H 	H 	0.15480 0.05990 0.61280 0.11000
C 	C 	0.15346 0.08420 0.51700 -0.00800
C 	C 	0.11009 0.06580 0.50330 0.33500
C 	C 	0.17742 0.10950 0.46790 -0.08000
H 	H 	0.16590 0.11640 0.42660 0.10200
C 	C 	0.29900 0.18050 0.56820 0.07600
C 	C 	0.28109 0.12740 0.55240 0.05900
C 	C 	0.30640 0.07780 0.54580 -0.07000
H 	H 	0.29490 0.04090 0.53390 0.08300
C 	C 	0.34859 0.08110 0.55650 0.01700
H 	H 	0.36480 0.04660 0.55320 0.05400
C 	C 	0.36649 0.13650 0.57220 -0.05600
C 	C 	0.34160 0.18620 0.57760 -0.03500
H 	H 	0.35290 0.22370 0.58750 0.09500
C 	C 	0.41193 0.14110 0.58300 0.34100
C 	C 	0.12043 0.12720 0.23900 0.33900
C 	C 	0.15909 0.08720 0.24530 -0.02200
C 	C 	0.19110 0.09600 0.20160 -0.00100
H 	H 	0.18950 0.12490 0.16840 0.07500
C 	C 	0.22630 0.05960 0.20920 -0.04900
H 	H 	0.24790 0.06410 0.17950 0.08300
C 	C 	0.22987 0.01890 0.25720 0.02300
C 	C 	0.19797 0.01160 0.29850 0.08400
C 	C 	0.16165 0.04500 0.29310 -0.05500
H 	H 	0.13980 0.03830 0.32180 0.08900
C 	C 	0.00927 0.16730 0.51970 0.37300
C 	C 	0.01566 0.19100 0.58900 -0.07400
C 	C 	0.04932 0.17120 0.62680 -0.04600
H 	H 	0.06720 0.14200 0.61040 0.08300
C 	C 	0.05530 0.19590 0.68860 0.07400
C 	C 	0.02810 0.23730 0.71630 0.02100
C 	C 	0.99482 0.25500 0.67740 -0.07600
H 	H 	0.97570 0.28230 0.69430 0.08500
C 	C 	0.98965 0.23290 0.61450 0.01700
H 	H 	0.96790 0.24690 0.58890 0.06200
C 	C 	0.00440 0.16590 0.14550 0.36500
C 	C 	0.99896 0.14280 0.07640 -0.07200
C 	C 	0.02740 0.10340 0.05080 0.01300
H 	H 	0.05000 0.09190 0.07600 0.06600
C 	C 	0.02250 0.08040 0.98720 -0.07200
H 	H 	0.04180 0.05310 0.97090 0.08500
C 	C 	0.98973 0.09720 0.94780 0.02200
C 	C 	0.96157 0.13700 0.97640 0.07300
C 	C 	0.96554 0.15960 0.03900 -0.04400
H 	H 	0.94590 0.18600 0.05590 0.08600
C 	C 	0.98953 0.07250 0.87950 0.02100
C 	C 	0.02450 0.08600 0.83960 -0.07800
H 	H 	0.04460 0.11180 0.85610 0.08600
C 	C 	0.02948 0.06210 0.77770 0.02000
H 	H 	0.05280 0.07200 0.75340 0.06200
C 	C 	0.00122 0.02440 0.75130 -0.07900
C 	C 	0.00638 0.99810 0.68380 0.36900
C 	C 	0.96617 0.01060 0.78840 -0.04600
H 	H 	0.94610 0.98520 0.77100 0.08100
C 	C 	0.96120 0.03400 0.84960 0.07300
O 	O 	0.09077 0.04102 0.54915 -0.38000
O 	O 	0.09732 0.07742 0.44579 -0.37800
O 	O 	0.21190 0.04570 0.69550 -0.07400
O 	O 	0.24920 0.12310 0.68170 -0.06900
O 	O 	0.23840 0.23050 0.59590 -0.04000
O 	O 	0.29360 0.28920 0.56150 -0.04600
O 	O 	0.42488 0.19171 0.60139 -0.38300
O 	O 	0.43421 0.09627 0.57349 -0.36600
O 	O 	0.09057 0.10884 0.27362 -0.39400
O 	O 	0.12077 0.16960 0.20080 -0.26700
O 	O 	0.17280 0.96180 0.39210 -0.10300
O 	O 	0.21750 0.91490 0.34080 -0.06900
O 	O 	0.99249 0.20348 0.48034 -0.40200
O 	O 	0.02054 0.11495 0.50656 -0.45000
O 	O 	0.09504 0.18460 0.78260 -0.08900
O 	O 	0.11812 0.14940 0.69390 -0.08700
O 	O 	0.98571 0.21335 0.16049 -0.47200
O 	O 	0.02727 0.13530 0.18315 -0.40500
O 	O 	0.89550 0.17720 0.97190 -0.08500
O 	O 	0.92382 0.15280 0.87980 -0.09600
O 	O 	0.92032 0.02250 0.94550 -0.09600
O 	O 	0.89426 0.99920 0.85390 -0.09500
O 	O 	0.98518 0.95248 0.67053 -0.46700
O 	O 	0.03098 0.02494 0.64561 -0.39200
O 	O 	0.02669 0.00074 0.45585 -0.63200
H 	H 	0.04340 0.96710 0.43930 0.18700
O 	O 	0.04049 0.15589 0.37369 -0.63600
H 	H 	0.06230 0.18270 0.38970 0.19000
O 	O 	0.98141 0.17348 0.29331 -0.65500
H 	H 	0.96040 0.14440 0.27920 0.18600
O 	O 	0.22870 0.14390 0.35830 -0.05800
O 	O 	0.26530 0.20130 0.43440 -0.03100
N 	N 	0.22480 0.08600 0.66040 -0.01200
N 	N 	0.23440 0.16640 0.41760 -0.00000
N 	N 	0.27530 0.23910 0.57430 0.00500
N 	N 	0.19980 0.96840 0.35330 -0.01400
N 	N 	0.09140 0.17640 0.72430 -0.00600
N 	N 	0.92391 0.15770 0.94020 -0.00400
N 	N 	0.92259 0.01770 0.88450 -0.00300
O 	O 	0.24030 0.24290 0.55240 -0.04100
O 	O 	0.28970 0.28270 0.61470 -0.04800
O 	O 	0.21260 0.19880 0.36780 -0.06000
O 	O 	0.27360 0.17410 0.42340 -0.03900
Cu	Cu	0.46242 0.85432 0.27703 0.91700
Cu	Cu	0.46112 0.92377 0.41352 0.92600
Cu	Cu	0.51624 0.81573 0.38911 0.92600
Cu	Cu	0.46681 0.98549 0.55025 0.93400
C 	C 	0.26425 0.88270 0.53970 -0.03800
C 	C 	0.28910 0.90870 0.59080 0.10900
C 	C 	0.28120 0.87480 0.47920 0.10700
C 	C 	0.32932 0.92400 0.57900 -0.09200
H 	H 	0.34520 0.94010 0.61280 0.11000
C 	C 	0.34654 0.91580 0.51700 -0.00800
C 	C 	0.38991 0.93420 0.50330 0.33500
C 	C 	0.32258 0.89050 0.46790 -0.08000
H 	H 	0.33410 0.88360 0.42660 0.10200
C 	C 	0.20100 0.81950 0.56820 0.07600
C 	C 	0.21891 0.87260 0.55240 0.05900
C 	C 	0.19360 0.92220 0.54580 -0.07000
H 	H 	0.20510 0.95910 0.53390 0.08300
C 	C 	0.15141 0.91890 0.55650 0.01700
H 	H 	0.13520 0.95340 0.55320 0.05400
C 	C 	0.13351 0.86350 0.57220 -0.05600
C 	C 	0.15840 0.81380 0.57760 -0.03500
H 	H 	0.14710 0.77630 0.58750 0.09500
C 	C 	0.08807 0.85890 0.58300 0.34100
C 	C 	0.37957 0.87280 0.23900 0.33900
C 	C 	0.34091 0.91280 0.24530 -0.02200
C 	C 	0.30890 0.90400 0.20160 -0.00100
H 	H 	0.31050 0.87510 0.16840 0.07500
C 	C 	0.27370 0.94040 0.20920 -0.04900
H 	H 	0.25210 0.93590 0.17950 0.08300
C 	C 	0.27013 0.98110 0.25720 0.02300
C 	C 	0.30203 0.98840 0.29850 0.08400
C 	C 	0.33835 0.95500 0.29310 -0.05500
H 	H 	0.36020 0.96170 0.32180 0.08900
C 	C 	0.49073 0.83270 0.51970 0.37300
C 	C 	0.48434 0.80900 0.58900 -0.07400
C 	C 	0.45068 0.82880 0.62680 -0.04600
H 	H 	0.43280 0.85800 0.61040 0.08300
C 	C 	0.44470 0.80410 0.68860 0.07400
C 	C 	0.47190 0.76270 0.71630 0.02100
C 	C 	0.50518 0.74500 0.67740 -0.07600
H 	H 	0.52430 0.71770 0.69430 0.08500
C 	C 	0.51035 0.76710 0.61450 0.01700
H 	H 	0.53210 0.75310 0.58890 0.06200
C 	C 	0.49560 0.83410 0.14550 0.36400
C 	C 	0.50104 0.85720 0.07640 -0.07100
C 	C 	0.47260 0.89660 0.05080 0.01100
H 	H 	0.45000 0.90810 0.07600 0.06700
C 	C 	0.47750 0.91960 0.98720 -0.07100
H 	H 	0.45820 0.94690 0.97090 0.08500
C 	C 	0.51027 0.90280 0.94780 0.02100
C 	C 	0.53843 0.86300 0.97640 0.07400
C 	C 	0.53446 0.84040 0.03900 -0.04500
H 	H 	0.55410 0.81400 0.05590 0.08600
C 	C 	0.51047 0.92750 0.87950 0.02100
C 	C 	0.47550 0.91400 0.83960 -0.07800
H 	H 	0.45540 0.88820 0.85610 0.08600
C 	C 	0.47052 0.93790 0.77770 0.02000
H 	H 	0.44720 0.92800 0.75340 0.06200
C 	C 	0.49878 0.97560 0.75130 -0.07900
C 	C 	0.49362 0.00190 0.68380 0.36900
C 	C 	0.53383 0.98940 0.78840 -0.04600
H 	H 	0.55390 0.01480 0.77100 0.08100
C 	C 	0.53880 0.96600 0.84960 0.07300
O 	O 	0.40923 0.95898 0.54915 -0.38000
O 	O 	0.40268 0.92258 0.44579 -0.37800
O 	O 	0.28810 0.95430 0.69550 -0.07400
O 	O 	0.25080 0.87690 0.68170 -0.06900
O 	O 	0.26160 0.76950 0.59590 -0.04000
O 	O 	0.20640 0.71080 0.56150 -0.04600
O 	O 	0.07512 0.80829 0.60139 -0.38300
O 	O 	0.06579 0.90373 0.57349 -0.36600
O 	O 	0.40943 0.89116 0.27362 -0.39400
O 	O 	0.37923 0.83040 0.20080 -0.26700
O 	O 	0.32720 0.03820 0.39210 -0.10300
O 	O 	0.28250 0.08510 0.34080 -0.06900
O 	O 	0.50751 0.79652 0.48034 -0.40200
O 	O 	0.47946 0.88505 0.50656 -0.45000
O 	O 	0.40496 0.81540 0.78260 -0.08900
O 	O 	0.38188 0.85060 0.69390 -0.08700
O 	O 	0.51429 0.78665 0.16049 -0.47200
O 	O 	0.47273 0.86470 0.18315 -0.40500
O 	O 	0.60450 0.82280 0.97190 -0.08500
O 	O 	0.57618 0.84720 0.87980 -0.09600
O 	O 	0.57968 0.97750 0.94550 -0.09600
O 	O 	0.60574 0.00080 0.85390 -0.09500
O 	O 	0.51482 0.04752 0.67053 -0.46700
O 	O 	0.46902 0.97506 0.64561 -0.39200
O 	O 	0.47331 0.99926 0.45585 -0.63200
H 	H 	0.45660 0.03290 0.43930 0.18700
O 	O 	0.45951 0.84411 0.37369 -0.63600
H 	H 	0.43770 0.81730 0.38970 0.19000
O 	O 	0.51859 0.82652 0.29331 -0.65500
H 	H 	0.53960 0.85560 0.27920 0.18600
O 	O 	0.27130 0.85610 0.35830 -0.05800
O 	O 	0.23470 0.79870 0.43440 -0.03100
N 	N 	0.27520 0.91400 0.66040 -0.01200
N 	N 	0.26560 0.83360 0.41760 -0.00000
N 	N 	0.22470 0.76090 0.57430 0.00500
N 	N 	0.30020 0.03160 0.35330 -0.01400
N 	N 	0.40860 0.82360 0.72430 -0.00600
N 	N 	0.57609 0.84230 0.94020 -0.00400
N 	N 	0.57741 0.98230 0.88450 -0.00300
O 	O 	0.25970 0.75710 0.55240 -0.04100
O 	O 	0.21030 0.71730 0.61470 -0.04800
O 	O 	0.28740 0.80120 0.36780 -0.06000
O 	O 	0.22640 0.82590 0.42340 -0.03900
Cu	Cu	0.46242 0.64568 0.22297 0.91700
Cu	Cu	0.46112 0.57623 0.08648 0.92600
Cu	Cu	0.51624 0.68427 0.11089 0.92600
Cu	Cu	0.46681 0.51451 0.94975 0.93400
C 	C 	0.26425 0.61730 0.96030 -0.03800
C 	C 	0.28910 0.59130 0.90920 0.11000
C 	C 	0.28120 0.62520 0.02080 0.10700
C 	C 	0.32932 0.57600 0.92100 -0.09200
H 	H 	0.34520 0.55990 0.88720 0.11000
C 	C 	0.34654 0.58420 0.98300 -0.00800
C 	C 	0.38991 0.56580 0.99670 0.33500
C 	C 	0.32258 0.60950 0.03210 -0.08000
H 	H 	0.33410 0.61640 0.07340 0.10200
C 	C 	0.20100 0.68050 0.93180 0.07600
C 	C 	0.21891 0.62740 0.94760 0.05900
C 	C 	0.19360 0.57780 0.95420 -0.07000
H 	H 	0.20510 0.54090 0.96610 0.08300
C 	C 	0.15141 0.58110 0.94350 0.01700
H 	H 	0.13520 0.54660 0.94680 0.05400
C 	C 	0.13351 0.63650 0.92780 -0.05600
C 	C 	0.15840 0.68620 0.92240 -0.03500
H 	H 	0.14710 0.72370 0.91250 0.09500
C 	C 	0.08807 0.64110 0.91700 0.34100
C 	C 	0.37957 0.62720 0.26100 0.33900
C 	C 	0.34091 0.58720 0.25470 -0.02200
C 	C 	0.30890 0.59600 0.29840 -0.00100
H 	H 	0.31050 0.62490 0.33160 0.07500
C 	C 	0.27370 0.55960 0.29080 -0.04900
H 	H 	0.25210 0.56410 0.32050 0.08300
C 	C 	0.27013 0.51890 0.24280 0.02300
C 	C 	0.30203 0.51160 0.20150 0.08400
C 	C 	0.33835 0.54500 0.20690 -0.05500
H 	H 	0.36020 0.53830 0.17820 0.08900
C 	C 	0.49073 0.66730 0.98030 0.37300
C 	C 	0.48434 0.69100 0.91100 -0.07400
C 	C 	0.45068 0.67120 0.87320 -0.04600
H 	H 	0.43280 0.64200 0.88960 0.08300
C 	C 	0.44470 0.69590 0.81140 0.07400
C 	C 	0.47190 0.73730 0.78370 0.02100
C 	C 	0.50518 0.75500 0.82260 -0.07600
H 	H 	0.52430 0.78230 0.80570 0.08500
C 	C 	0.51035 0.73290 0.88550 0.01700
H 	H 	0.53210 0.74690 0.91110 0.06200
C 	C 	0.49560 0.66590 0.35450 0.36400
C 	C 	0.50104 0.64280 0.42360 -0.07100
C 	C 	0.47260 0.60340 0.44920 0.01100
H 	H 	0.45000 0.59190 0.42400 0.06700
C 	C 	0.47750 0.58040 0.51280 -0.07100
H 	H 	0.45820 0.55310 0.52910 0.08500
C 	C 	0.51027 0.59720 0.55220 0.02100
C 	C 	0.53843 0.63700 0.52360 0.07400
C 	C 	0.53446 0.65960 0.46100 -0.04500
H 	H 	0.55410 0.68600 0.44410 0.08600
C 	C 	0.51047 0.57250 0.62050 0.02100
C 	C 	0.47550 0.58600 0.66040 -0.07800
H 	H 	0.45540 0.61180 0.64390 0.08600
C 	C 	0.47052 0.56210 0.72230 0.02000
H 	H 	0.44720 0.57200 0.74660 0.06200
C 	C 	0.49878 0.52440 0.74870 -0.07900
C 	C 	0.49362 0.49810 0.81620 0.36900
C 	C 	0.53383 0.51060 0.71160 -0.04600
H 	H 	0.55390 0.48520 0.72900 0.08100
C 	C 	0.53880 0.53400 0.65040 0.07300
O 	O 	0.40923 0.54102 0.95085 -0.38000
O 	O 	0.40268 0.57742 0.05421 -0.37800
O 	O 	0.28810 0.54570 0.80450 -0.07400
O 	O 	0.25080 0.62310 0.81830 -0.06900
O 	O 	0.26160 0.73050 0.90410 -0.04000
O 	O 	0.20640 0.78920 0.93850 -0.04600
O 	O 	0.07512 0.69171 0.89861 -0.38300
O 	O 	0.06579 0.59627 0.92651 -0.36600
O 	O 	0.40943 0.60884 0.22638 -0.39400
O 	O 	0.37923 0.66960 0.29920 -0.26700
O 	O 	0.32720 0.46180 0.10790 -0.10300
O 	O 	0.28250 0.41490 0.15920 -0.06900
O 	O 	0.50751 0.70348 0.01966 -0.40200
O 	O 	0.47946 0.61495 0.99344 -0.45000
O 	O 	0.40496 0.68460 0.71740 -0.08900
O 	O 	0.38188 0.64940 0.80610 -0.08700
O 	O 	0.51429 0.71335 0.33951 -0.47200
O 	O 	0.47273 0.63530 0.31685 -0.40500
O 	O 	0.60450 0.67720 0.52810 -0.08500
O 	O 	0.57618 0.65280 0.62020 -0.09600
O 	O 	0.57968 0.52250 0.55450 -0.09600
O 	O 	0.60574 0.49920 0.64610 -0.09500
O 	O 	0.51482 0.45248 0.82947 -0.46700
O 	O 	0.46902 0.52494 0.85439 -0.39200
O 	O 	0.47331 0.50074 0.04415 -0.63200
H 	H 	0.45660 0.46710 0.06070 0.18700
O 	O 	0.45951 0.65589 0.12631 -0.63600
H 	H 	0.43770 0.68270 0.11030 0.19000
O 	O 	0.51859 0.67348 0.20669 -0.65500
H 	H 	0.53960 0.64440 0.22080 0.18600
O 	O 	0.27130 0.64390 0.14170 -0.05800
O 	O 	0.23470 0.70130 0.06560 -0.03100
N 	N 	0.27520 0.58600 0.83960 -0.01200
N 	N 	0.26560 0.66640 0.08240 -0.00000
N 	N 	0.22470 0.73910 0.92570 0.00500
N 	N 	0.30020 0.46840 0.14670 -0.01400
N 	N 	0.40860 0.67640 0.77570 -0.00600
N 	N 	0.57609 0.65770 0.55980 -0.00400
N 	N 	0.57741 0.51770 0.61550 -0.00300
O 	O 	0.25970 0.74290 0.94760 -0.04100
O 	O 	0.21030 0.78270 0.88530 -0.04800
O 	O 	0.28740 0.69880 0.13220 -0.06000
O 	O 	0.22640 0.67410 0.07660 -0.03900
Cu	Cu	0.03758 0.35432 0.22297 0.91700
Cu	Cu	0.03888 0.42377 0.08648 0.92600
Cu	Cu	0.98376 0.31573 0.11089 0.92600
Cu	Cu	0.03319 0.48549 0.94975 0.93400
C 	C 	0.23575 0.38270 0.96030 -0.03800
C 	C 	0.21090 0.40870 0.90920 0.11000
C 	C 	0.21880 0.37480 0.02080 0.10700
C 	C 	0.17068 0.42400 0.92100 -0.09200
H 	H 	0.15480 0.44010 0.88720 0.11000
C 	C 	0.15346 0.41580 0.98300 -0.00800
C 	C 	0.11009 0.43420 0.99670 0.33500
C 	C 	0.17742 0.39050 0.03210 -0.08000
H 	H 	0.16590 0.38360 0.07340 0.10200
C 	C 	0.29900 0.31950 0.93180 0.07600
C 	C 	0.28109 0.37260 0.94760 0.05900
C 	C 	0.30640 0.42220 0.95420 -0.07000
H 	H 	0.29490 0.45910 0.96610 0.08300
C 	C 	0.34859 0.41890 0.94350 0.01700
H 	H 	0.36480 0.45340 0.94680 0.05400
C 	C 	0.36649 0.36350 0.92780 -0.05600
C 	C 	0.34160 0.31380 0.92240 -0.03500
H 	H 	0.35290 0.27630 0.91250 0.09500
C 	C 	0.41193 0.35890 0.91700 0.34100
C 	C 	0.12043 0.37280 0.26100 0.33900
C 	C 	0.15909 0.41280 0.25470 -0.02200
C 	C 	0.19110 0.40400 0.29840 -0.00100
H 	H 	0.18950 0.37510 0.33160 0.07500
C 	C 	0.22630 0.44040 0.29080 -0.04900
H 	H 	0.24790 0.43590 0.32050 0.08300
C 	C 	0.22987 0.48110 0.24280 0.02300
C 	C 	0.19797 0.48840 0.20150 0.08400
C 	C 	0.16165 0.45500 0.20690 -0.05500
H 	H 	0.13980 0.46170 0.17820 0.08900
C 	C 	0.00927 0.33270 0.98030 0.37300
C 	C 	0.01566 0.30900 0.91100 -0.07500
C 	C 	0.04932 0.32880 0.87320 -0.04600
H 	H 	0.06720 0.35800 0.88960 0.08300
C 	C 	0.05530 0.30410 0.81140 0.07400
C 	C 	0.02810 0.26270 0.78370 0.02100
C 	C 	0.99482 0.24500 0.82260 -0.07600
H 	H 	0.97570 0.21770 0.80570 0.08500
C 	C 	0.98965 0.26710 0.88550 0.01800
H 	H 	0.96790 0.25310 0.91110 0.06200
C 	C 	0.00440 0.33410 0.35450 0.36500
C 	C 	0.99896 0.35720 0.42360 -0.07100
C 	C 	0.02740 0.39660 0.44920 0.01100
H 	H 	0.05000 0.40810 0.42400 0.06700
C 	C 	0.02250 0.41960 0.51280 -0.07100
H 	H 	0.04180 0.44690 0.52910 0.08500
C 	C 	0.98973 0.40280 0.55220 0.02100
C 	C 	0.96157 0.36300 0.52360 0.07400
C 	C 	0.96554 0.34040 0.46100 -0.04500
H 	H 	0.94590 0.31400 0.44410 0.08600
C 	C 	0.98953 0.42750 0.62050 0.02200
C 	C 	0.02450 0.41400 0.66040 -0.07800
H 	H 	0.04460 0.38820 0.64390 0.08600
C 	C 	0.02948 0.43790 0.72230 0.02000
H 	H 	0.05280 0.42800 0.74660 0.06200
C 	C 	0.00122 0.47560 0.74870 -0.07900
C 	C 	0.00638 0.50190 0.81620 0.36900
C 	C 	0.96617 0.48940 0.71160 -0.04600
H 	H 	0.94610 0.51480 0.72900 0.08100
C 	C 	0.96120 0.46600 0.65040 0.07300
O 	O 	0.09077 0.45898 0.95085 -0.38000
O 	O 	0.09732 0.42258 0.05421 -0.37800
O 	O 	0.21190 0.45430 0.80450 -0.07400
O 	O 	0.24920 0.37690 0.81830 -0.06900
O 	O 	0.23840 0.26950 0.90410 -0.04000
O 	O 	0.29360 0.21080 0.93850 -0.04600
O 	O 	0.42488 0.30829 0.89861 -0.38300
O 	O 	0.43421 0.40373 0.92651 -0.36600
O 	O 	0.09057 0.39116 0.22638 -0.39400
O 	O 	0.12077 0.33040 0.29920 -0.26700
O 	O 	0.17280 0.53820 0.10790 -0.10300
O 	O 	0.21750 0.58510 0.15920 -0.06900
O 	O 	0.99249 0.29652 0.01966 -0.40200
O 	O 	0.02054 0.38505 0.99344 -0.45000
O 	O 	0.09504 0.31540 0.71740 -0.08900
O 	O 	0.11812 0.35060 0.80610 -0.08700
O 	O 	0.98571 0.28665 0.33951 -0.47200
O 	O 	0.02727 0.36470 0.31685 -0.40500
O 	O 	0.89550 0.32280 0.52810 -0.08500
O 	O 	0.92382 0.34720 0.62020 -0.09600
O 	O 	0.92032 0.47750 0.55450 -0.09600
O 	O 	0.89426 0.50080 0.64610 -0.09500
O 	O 	0.98518 0.54752 0.82947 -0.46700
O 	O 	0.03098 0.47506 0.85439 -0.39200
O 	O 	0.02669 0.49926 0.04415 -0.63200
H 	H 	0.04340 0.53290 0.06070 0.18700
O 	O 	0.04049 0.34411 0.12631 -0.63500
H 	H 	0.06230 0.31730 0.11030 0.19000
O 	O 	0.98141 0.32652 0.20669 -0.65500
H 	H 	0.96040 0.35560 0.22080 0.18600
O 	O 	0.22870 0.35610 0.14170 -0.05800
O 	O 	0.26530 0.29870 0.06560 -0.03100
N 	N 	0.22480 0.41400 0.83960 -0.01200
N 	N 	0.23440 0.33360 0.08240 -0.00000
N 	N 	0.27530 0.26090 0.92570 0.00500
N 	N 	0.19980 0.53160 0.14670 -0.01400
N 	N 	0.09140 0.32360 0.77570 -0.00600
N 	N 	0.92391 0.34230 0.55980 -0.00400
N 	N 	0.92259 0.48230 0.61550 -0.00300
O 	O 	0.24030 0.25710 0.94760 -0.04100
O 	O 	0.28970 0.21730 0.88530 -0.04800
O 	O 	0.21260 0.30120 0.13220 -0.06000
O 	O 	0.27360 0.32590 0.07660 -0.03900
Cu	Cu	0.02288 0.75000 0.75000 0.89600
Cu	Cu	0.47712 0.25000 0.75000 0.89600
Cu	Cu	0.97712 0.25000 0.25000 0.89600
Cu	Cu	0.52288 0.75000 0.25000 0.89600
