data_crystal

_cell_length_a 11.47200
_cell_length_b 19.94000
_cell_length_c 12.00250
_cell_angle_alpha 90.00000
_cell_angle_beta  101.47500
_cell_angle_gamma 90.00000

_symmetry_space_group_name_	'P 1'
_symmetry_space_group_name_H-M	'P 1'

loop_
_symmetry_equiv_pos_as_xyz
  x,y,z

loop_
_atom_site_label
_atom_site_type_symbol
_atom_site_fract_x
_atom_site_fract_y
_atom_site_fract_z
_atom_site_charge
Zn	Zn	0.49513 0.08161 0.08149 1.22100
O 	O 	0.45880 0.40669 0.91853 -0.46700
H 	H 	0.47280 0.37740 0.87680 0.30100
O 	O 	0.45846 0.43014 0.41150 -0.49400
O 	O 	0.49499 0.17937 0.09589 -0.45100
O 	O 	0.46950 0.19355 0.27137 -0.31900
O 	O 	0.47863 0.51335 0.29430 -0.45900
N 	N 	0.68513 0.08248 0.08052 -0.23600
N 	N 	0.30447 0.07586 0.07875 -0.23000
C 	C 	0.47200 0.28910 0.15610 0.01200
C 	C 	0.46805 0.45223 0.31620 0.37000
C 	C 	0.05980 0.08119 0.08160 0.05500
C 	C 	0.47040 0.33465 0.24405 -0.06100
H 	H 	0.47250 0.31930 0.31760 0.06900
C 	C 	0.46690 0.31305 0.04630 -0.21800
H 	H 	0.46690 0.28300 0.98700 0.13300
C 	C 	0.14420 0.06613 0.17730 -0.12600
H 	H 	0.12070 0.05780 0.24570 0.07800
C 	C 	0.10360 0.09314 0.98350 -0.12900
H 	H 	0.05130 0.10270 0.91570 0.07700
C 	C 	0.47910 0.21475 0.17820 0.33900
C 	C 	0.46180 0.38109 0.02480 0.30600
C 	C 	0.46550 0.40303 0.22148 -0.00600
C 	C 	0.93140 0.08321 0.08200 0.05700
C 	C 	0.46220 0.42644 0.11240 -0.19900
H 	H 	0.46020 0.47230 0.09790 0.14800
C 	C 	0.76630 0.06969 0.17450 0.07900
H 	H 	0.73920 0.05980 0.24070 0.00100
C 	C 	0.72820 0.09655 0.98740 0.08000
H 	H 	0.67430 0.10640 0.92070 -0.00300
C 	C 	0.88670 0.07011 0.18000 -0.13300
H 	H 	0.93850 0.06170 0.24860 0.07700
C 	C 	0.26280 0.06328 0.17240 0.07300
H 	H 	0.31690 0.05190 0.23820 0.02000
C 	C 	0.84690 0.09725 0.98450 -0.13100
H 	H 	0.87120 0.10720 0.91700 0.07800
C 	C 	0.22330 0.09086 0.98640 0.08200
H 	H 	0.24970 0.10040 0.91970 0.00500
Zn	Zn	0.50487 0.58161 0.41851 1.22000
O 	O 	0.54120 0.90669 0.58147 -0.46800
H 	H 	0.52720 0.87740 0.62320 0.30100
O 	O 	0.54154 0.93014 0.08850 -0.49400
O 	O 	0.50501 0.67937 0.40411 -0.45100
O 	O 	0.53050 0.69355 0.22863 -0.31900
O 	O 	0.52137 0.01335 0.20570 -0.46000
N 	N 	0.31487 0.58248 0.41948 -0.23500
N 	N 	0.69553 0.57586 0.42125 -0.23000
C 	C 	0.52800 0.78910 0.34390 0.01200
C 	C 	0.53195 0.95223 0.18380 0.37100
C 	C 	0.94020 0.58119 0.41840 0.05700
C 	C 	0.52960 0.83465 0.25595 -0.06100
H 	H 	0.52750 0.81930 0.18240 0.06900
C 	C 	0.53310 0.81305 0.45370 -0.21700
H 	H 	0.53310 0.78300 0.51300 0.13200
C 	C 	0.85580 0.56613 0.32270 -0.12700
H 	H 	0.87930 0.55780 0.25430 0.07800
C 	C 	0.89640 0.59314 0.51650 -0.13100
H 	H 	0.94870 0.60270 0.58430 0.07700
C 	C 	0.52090 0.71475 0.32180 0.34000
C 	C 	0.53820 0.88109 0.47520 0.30600
C 	C 	0.53450 0.90303 0.27852 -0.00600
C 	C 	0.06860 0.58321 0.41800 0.05700
C 	C 	0.53780 0.92644 0.38760 -0.19900
H 	H 	0.53980 0.97230 0.40210 0.14800
C 	C 	0.23370 0.56969 0.32550 0.07900
H 	H 	0.26080 0.55980 0.25930 0.00200
C 	C 	0.27180 0.59655 0.51260 0.08000
H 	H 	0.32570 0.60640 0.57930 -0.00200
C 	C 	0.11330 0.57011 0.32000 -0.13200
H 	H 	0.06150 0.56170 0.25140 0.07700
C 	C 	0.73720 0.56328 0.32760 0.07400
H 	H 	0.68310 0.55190 0.26180 0.02000
C 	C 	0.15310 0.59725 0.51550 -0.13100
H 	H 	0.12880 0.60720 0.58300 0.07800
C 	C 	0.77670 0.59086 0.51360 0.08200
H 	H 	0.75030 0.60040 0.58030 0.00500
Zn	Zn	0.50487 0.91839 0.91851 1.22000
O 	O 	0.54120 0.59331 0.08147 -0.46800
H 	H 	0.52720 0.62260 0.12320 0.30100
O 	O 	0.54154 0.56986 0.58850 -0.49400
O 	O 	0.50501 0.82063 0.90411 -0.45100
O 	O 	0.53050 0.80645 0.72863 -0.31900
O 	O 	0.52137 0.48665 0.70570 -0.45900
N 	N 	0.31487 0.91752 0.91948 -0.23600
N 	N 	0.69553 0.92414 0.92125 -0.23000
C 	C 	0.52800 0.71090 0.84390 0.01200
C 	C 	0.53195 0.54777 0.68380 0.37000
C 	C 	0.94020 0.91881 0.91840 0.05500
C 	C 	0.52960 0.66535 0.75595 -0.06100
H 	H 	0.52750 0.68070 0.68240 0.06900
C 	C 	0.53310 0.68695 0.95370 -0.21800
H 	H 	0.53310 0.71700 0.01300 0.13300
C 	C 	0.85580 0.93387 0.82270 -0.12600
H 	H 	0.87930 0.94220 0.75430 0.07800
C 	C 	0.89640 0.90686 0.01650 -0.12900
H 	H 	0.94870 0.89730 0.08430 0.07700
C 	C 	0.52090 0.78525 0.82180 0.33900
C 	C 	0.53820 0.61891 0.97520 0.30600
C 	C 	0.53450 0.59697 0.77852 -0.00600
C 	C 	0.06860 0.91679 0.91800 0.05700
C 	C 	0.53780 0.57356 0.88760 -0.19900
H 	H 	0.53980 0.52770 0.90210 0.14800
C 	C 	0.23370 0.93031 0.82550 0.07900
H 	H 	0.26080 0.94020 0.75930 0.00100
C 	C 	0.27180 0.90345 0.01260 0.08000
H 	H 	0.32570 0.89360 0.07930 -0.00300
C 	C 	0.11330 0.92989 0.82000 -0.13300
H 	H 	0.06150 0.93830 0.75140 0.07700
C 	C 	0.73720 0.93672 0.82760 0.07300
H 	H 	0.68310 0.94810 0.76180 0.02000
C 	C 	0.15310 0.90275 0.01550 -0.13100
H 	H 	0.12880 0.89280 0.08300 0.07800
C 	C 	0.77670 0.90914 0.01360 0.08200
H 	H 	0.75030 0.89960 0.08030 0.00500
Zn	Zn	0.49513 0.41839 0.58149 1.22000
O 	O 	0.45880 0.09331 0.41853 -0.46800
H 	H 	0.47280 0.12260 0.37680 0.30100
O 	O 	0.45846 0.06986 0.91150 -0.49400
O 	O 	0.49499 0.32063 0.59589 -0.45100
O 	O 	0.46950 0.30645 0.77137 -0.31900
O 	O 	0.47863 0.98665 0.79430 -0.46000
N 	N 	0.68513 0.41752 0.58052 -0.23500
N 	N 	0.30447 0.42414 0.57875 -0.23000
C 	C 	0.47200 0.21090 0.65610 0.01200
C 	C 	0.46805 0.04777 0.81620 0.37100
C 	C 	0.05980 0.41881 0.58160 0.05700
C 	C 	0.47040 0.16535 0.74405 -0.06100
H 	H 	0.47250 0.18070 0.81760 0.06900
C 	C 	0.46690 0.18695 0.54630 -0.21700
H 	H 	0.46690 0.21700 0.48700 0.13200
C 	C 	0.14420 0.43387 0.67730 -0.12700
H 	H 	0.12070 0.44220 0.74570 0.07800
C 	C 	0.10360 0.40686 0.48350 -0.13100
H 	H 	0.05130 0.39730 0.41570 0.07700
C 	C 	0.47910 0.28525 0.67820 0.34000
C 	C 	0.46180 0.11891 0.52480 0.30600
C 	C 	0.46550 0.09697 0.72148 -0.00600
C 	C 	0.93140 0.41679 0.58200 0.05700
C 	C 	0.46220 0.07356 0.61240 -0.19900
H 	H 	0.46020 0.02770 0.59790 0.14800
C 	C 	0.76630 0.43031 0.67450 0.07900
H 	H 	0.73920 0.44020 0.74070 0.00200
C 	C 	0.72820 0.40345 0.48740 0.08000
H 	H 	0.67430 0.39360 0.42070 -0.00200
C 	C 	0.88670 0.42989 0.68000 -0.13200
H 	H 	0.93850 0.43830 0.74860 0.07700
C 	C 	0.26280 0.43672 0.67240 0.07400
H 	H 	0.31690 0.44810 0.73820 0.02000
C 	C 	0.84690 0.40275 0.48450 -0.13100
H 	H 	0.87120 0.39280 0.41700 0.07800
C 	C 	0.22330 0.40914 0.48640 0.08200
H 	H 	0.24970 0.39960 0.41970 0.00500
