data_crystal

_cell_length_a 34.67880
_cell_length_b 15.02820
_cell_length_c 31.17070
_cell_angle_alpha 90.00000
_cell_angle_beta  101.97300
_cell_angle_gamma 90.00000

_symmetry_space_group_name_	'P 1'
_symmetry_space_group_name_H-M	'P 1'

loop_
_symmetry_equiv_pos_as_xyz
  x,y,z

loop_
_atom_site_label
_atom_site_type_symbol
_atom_site_fract_x
_atom_site_fract_y
_atom_site_fract_z
_atom_site_charge
Zn	Zn	0.37357 0.90641 0.69371 1.15800
Zn	Zn	0.58301 0.61187 0.84442 1.15900
Zn	Zn	0.08206 0.87503 0.34502 1.15700
Zn	Zn	0.17702 0.34923 0.02532 1.15000
Zn	Zn	0.37367 0.07842 0.19489 1.15900
N 	N 	0.64100 0.15440 0.57030 -0.31100
C 	C 	0.60640 0.12280 0.56510 0.12300
H 	H 	0.59630 0.09050 0.53900 -0.03800
C 	C 	0.58290 0.13270 0.59480 -0.16700
H 	H 	0.55810 0.10310 0.59040 0.09900
C 	C 	0.59460 0.18380 0.63020 0.09800
C 	C 	0.63100 0.22310 0.63460 -0.15400
H 	H 	0.64090 0.26030 0.65910 0.09300
C 	C 	0.65200 0.20840 0.60460 0.09600
H 	H 	0.67650 0.23840 0.60760 -0.02400
N 	N 	0.42150 0.98870 0.69500 -0.27500
C 	C 	0.43780 0.03760 0.73020 0.07200
H 	H 	0.42670 0.03400 0.75550 -0.00800
C 	C 	0.46930 0.09210 0.73140 -0.12700
H 	H 	0.48050 0.12470 0.75710 0.07800
C 	C 	0.48460 0.09830 0.69360 0.05600
C 	C 	0.46700 0.05110 0.65760 -0.13500
H 	H 	0.47600 0.05810 0.63100 0.08900
C 	C 	0.43710 0.99500 0.65910 0.08400
H 	H 	0.42690 0.95860 0.63440 -0.01800
N 	N 	0.57020 0.51150 0.79900 -0.27800
C 	C 	0.59650 0.48690 0.77550 0.07400
H 	H 	0.61940 0.52260 0.77740 -0.01300
C 	C 	0.59270 0.41350 0.74860 -0.12500
H 	H 	0.61240 0.39880 0.73280 0.08200
C 	C 	0.55980 0.36250 0.74550 0.05800
C 	C 	0.53200 0.38530 0.76980 -0.12200
H 	H 	0.50900 0.35010 0.76840 0.07100
C 	C 	0.53830 0.45900 0.79580 0.06900
H 	H 	0.51920 0.47410 0.81250 -0.00900
C 	C 	0.56960 0.19910 0.66190 0.08200
N 	N 	0.53930 0.14300 0.66210 -0.13300
C 	C 	0.51840 0.15910 0.69190 0.08900
N 	N 	0.52440 0.22560 0.72110 -0.14800
C 	C 	0.55450 0.28000 0.71690 0.08900
N 	N 	0.57790 0.27140 0.68940 -0.13400
N 	N 	0.33010 0.96880 0.64850 -0.26900
C 	C 	0.32180 0.05300 0.65470 0.06200
H 	H 	0.33580 0.08260 0.68010 -0.00200
C 	C 	0.29320 0.10020 0.62540 -0.10400
H 	H 	0.28830 0.16130 0.63010 0.07700
C 	C 	0.27180 0.05450 0.58840 0.02600
C 	C 	0.28070 0.96560 0.58310 -0.10500
H 	H 	0.26630 0.93230 0.55910 0.08000
C 	C 	0.31040 0.92650 0.61300 0.06000
H 	H 	0.31730 0.86660 0.60830 0.00600
N 	N 	0.12180 0.94500 0.39290 -0.27800
C 	C 	0.11740 0.03080 0.39680 0.07900
H 	H 	0.09830 0.06020 0.37530 -0.00800
C 	C 	0.13910 0.08090 0.43030 -0.12200
H 	H 	0.13450 0.14300 0.43210 0.09700
C 	C 	0.16760 0.03840 0.46130 0.05800
C 	C 	0.17270 0.94860 0.45520 -0.13500
H 	H 	0.19250 0.91650 0.47470 0.06600
C 	C 	0.14930 0.90670 0.42130 0.09100
H 	H 	0.15330 0.84480 0.41800 -0.03200
N 	N 	0.18600 0.50380 0.52670 -0.29700
C 	C 	0.21560 0.46950 0.55450 0.07100
H 	H 	0.23250 0.50820 0.57400 -0.01300
C 	C 	0.22370 0.37610 0.55710 -0.12600
H 	H 	0.24660 0.35410 0.57630 0.07600
C 	C 	0.19860 0.32020 0.53190 0.06000
C 	C 	0.16760 0.35570 0.50200 -0.12300
H 	H 	0.14950 0.31820 0.48320 0.08600
C 	C 	0.16340 0.44840 0.50000 0.07100
H 	H 	0.14300 0.47270 0.47810 -0.01600
C 	C 	0.24070 0.10000 0.55660 0.08700
N 	N 	0.21970 0.05120 0.52420 -0.14900
C 	C 	0.19140 0.09010 0.49680 0.10700
N 	N 	0.18260 0.17590 0.49980 -0.13300
C 	C 	0.20570 0.22110 0.53170 0.10100
N 	N 	0.23380 0.18630 0.56180 -0.14700
N 	N 	0.06990 0.97910 0.29930 -0.27000
C 	C 	0.09590 0.99800 0.27580 0.07500
H 	H 	0.11840 0.96080 0.27850 -0.01900
C 	C 	0.09210 0.07110 0.24670 -0.11500
H 	H 	0.11100 0.08260 0.22920 0.07800
C 	C 	0.05870 0.12590 0.24500 0.04300
C 	C 	0.03090 0.10430 0.26970 -0.11200
H 	H 	0.00800 0.13970 0.26850 0.06600
C 	C 	0.03780 0.02910 0.29620 0.06100
H 	H 	0.01890 0.01280 0.31290 -0.01300
N 	N 	0.14410 0.32990 0.07160 -0.27300
C 	C 	0.11240 0.38240 0.06970 0.05000
H 	H 	0.10770 0.43030 0.04940 -0.01100
C 	C 	0.08550 0.36620 0.09850 -0.09000
H 	H 	0.06190 0.39980 0.09550 0.07500
C 	C 	0.09460 0.30030 0.13100 0.04300
C 	C 	0.13050 0.25750 0.13630 -0.08900
H 	H 	0.13890 0.21790 0.16020 0.07400
C 	C 	0.15580 0.27420 0.10460 0.05000
H 	H 	0.18050 0.24480 0.10780 -0.00500
N 	N 	0.92120 0.49740 0.19520 -0.27600
C 	C 	0.93450 0.48710 0.15940 0.06700
H 	H 	0.91990 0.51270 0.13310 -0.01400
C 	C 	0.97070 0.43900 0.15710 -0.10900
H 	H 	0.98270 0.44170 0.13240 0.08000
C 	C 	0.98630 0.38770 0.19390 0.03800
C 	C 	0.97040 0.39470 0.23050 -0.10800
H 	H 	0.98110 0.36040 0.25580 0.07000
C 	C 	0.93760 0.45330 0.23110 0.05600
H 	H 	0.92780 0.46020 0.25720 -0.00500
C 	C 	0.05320 0.20560 0.21630 0.09700
N 	N 	0.07610 0.21520 0.18810 -0.14300
C 	C 	0.06910 0.28490 0.16290 0.11800
N 	N 	0.04060 0.34410 0.16180 -0.13700
C 	C 	0.01910 0.32940 0.19300 0.08900
N 	N 	0.02520 0.26300 0.22200 -0.15100
N 	N 	0.18830 0.48620 0.03090 -0.27600
C 	C 	0.16480 0.53940 0.00280 0.06600
H 	H 	0.14370 0.51450 0.98190 -0.01500
C 	C 	0.17070 0.62890 0.00350 -0.12300
H 	H 	0.15410 0.66460 0.98220 0.08400
C 	C 	0.19930 0.66920 0.03340 0.05800
C 	C 	0.22280 0.61330 0.06480 -0.12900
H 	H 	0.24170 0.63670 0.08870 0.08200
C 	C 	0.21680 0.52200 0.05900 0.08700
H 	H 	0.23500 0.48330 0.07690 -0.01300
N 	N 	0.33070 0.01830 0.14910 -0.27800
C 	C 	0.30980 0.06270 0.11450 0.06000
H 	H 	0.31540 0.12370 0.11060 0.00200
C 	C 	0.28000 0.02060 0.08410 -0.12100
H 	H 	0.26590 0.05300 0.05960 0.08300
C 	C 	0.27080 0.93310 0.08940 0.05200
C 	C 	0.29230 0.88860 0.12510 -0.12000
H 	H 	0.28720 0.82760 0.12980 0.08700
C 	C 	0.32140 0.93410 0.15430 0.07700
H 	H 	0.33530 0.90310 0.17920 -0.00500
N 	N 	0.12240 0.04290 0.89130 -0.27100
C 	C 	0.11610 0.95500 0.89720 0.07100
H 	H 	0.09470 0.92610 0.87830 -0.00300
C 	C 	0.13990 0.90630 0.93000 -0.12200
H 	H 	0.13680 0.84360 0.93150 0.09400
C 	C 	0.16760 0.94830 0.95980 0.06900
C 	C 	0.17490 0.03730 0.95570 -0.12500
H 	H 	0.19480 0.06710 0.97630 0.07000
C 	C 	0.15160 0.08330 0.91930 0.06000
H 	H 	0.15700 0.14420 0.91480 -0.01200
C 	C 	0.20530 0.76590 0.03300 0.09600
N 	N 	0.23480 0.80100 0.06290 -0.14100
C 	C 	0.24010 0.88940 0.05740 0.07900
N 	N 	0.22070 0.94040 0.02490 -0.14300
C 	C 	0.19090 0.89560 0.99930 0.09800
N 	N 	0.18130 0.81110 0.00160 -0.13500
Zn	Zn	0.67032 0.13740 0.51918 0.63300
I 	I 	0.62347 0.15380 0.44507 -0.50000
I 	I 	0.72977 0.23970 0.53865 0.37300
I 	I 	0.38670 0.75550 0.64960 -0.26200
I 	I 	0.35730 0.90800 0.75910 0.02400
I 	I 	0.52190 0.63260 0.87977 -0.36100
I 	I 	0.61604 0.73290 0.81280 -0.02200
I 	I 	0.02304 0.84660 0.38380 -0.25100
I 	I 	0.11464 0.75340 0.30950 -0.14500
I 	I 	0.12850 0.32650 0.94740 -0.46400
I 	I 	0.23640 0.26220 0.04760 0.12700
I 	I 	0.39130 0.22820 0.16090 -0.23400
I 	I 	0.35430 0.06850 0.26780 -0.13000
Zn	Zn	0.68130 0.13900 0.52940 0.63900
I 	I 	0.63930 0.16700 0.45260 0.08200
I 	I 	0.74390 0.21940 0.55900 -0.78300
I 	I 	0.38923 0.76130 0.66200 -0.06300
I 	I 	0.35327 0.92220 0.76900 -0.38500
I 	I 	0.52990 0.65260 0.87280 0.01600
I 	I 	0.62970 0.72030 0.80790 -0.32000
I 	I 	0.02250 0.85090 0.37240 -0.07300
I 	I 	0.12190 0.76120 0.31000 -0.19000
I 	I 	0.14430 0.31880 0.95580 0.06600
I 	I 	0.24860 0.27170 0.06580 -0.47600
I 	I 	0.38300 0.22450 0.16330 -0.10600
I 	I 	0.35530 0.04740 0.26960 -0.20200
Zn	Zn	0.87357 0.40641 0.69371 1.15700
Zn	Zn	0.08301 0.11187 0.84442 1.15800
Zn	Zn	0.58206 0.37503 0.34502 1.15700
Zn	Zn	0.67702 0.84923 0.02532 1.15000
Zn	Zn	0.87367 0.57842 0.19489 1.15900
N 	N 	0.14100 0.65440 0.57030 -0.31100
C 	C 	0.10640 0.62280 0.56510 0.12400
H 	H 	0.09630 0.59050 0.53900 -0.03800
C 	C 	0.08290 0.63270 0.59480 -0.16600
H 	H 	0.05810 0.60310 0.59040 0.09900
C 	C 	0.09460 0.68380 0.63020 0.09800
C 	C 	0.13100 0.72310 0.63460 -0.15400
H 	H 	0.14090 0.76030 0.65910 0.09300
C 	C 	0.15200 0.70840 0.60460 0.09600
H 	H 	0.17650 0.73840 0.60760 -0.02400
N 	N 	0.92150 0.48870 0.69500 -0.27600
C 	C 	0.93780 0.53760 0.73020 0.07500
H 	H 	0.92670 0.53400 0.75550 -0.00700
C 	C 	0.96930 0.59210 0.73140 -0.12600
H 	H 	0.98050 0.62470 0.75710 0.07800
C 	C 	0.98460 0.59830 0.69360 0.05400
C 	C 	0.96700 0.55110 0.65760 -0.12800
H 	H 	0.97600 0.55810 0.63100 0.08800
C 	C 	0.93710 0.49500 0.65910 0.07700
H 	H 	0.92690 0.45860 0.63440 -0.01700
N 	N 	0.07020 0.01150 0.79900 -0.28300
C 	C 	0.09650 0.98690 0.77550 0.08600
H 	H 	0.11940 0.02260 0.77740 -0.01900
C 	C 	0.09270 0.91350 0.74860 -0.13100
H 	H 	0.11240 0.89880 0.73280 0.08500
C 	C 	0.05980 0.86250 0.74550 0.06200
C 	C 	0.03200 0.88530 0.76980 -0.12600
H 	H 	0.00900 0.85010 0.76840 0.07300
C 	C 	0.03830 0.95900 0.79580 0.07400
H 	H 	0.01920 0.97410 0.81250 -0.01000
C 	C 	0.06960 0.69910 0.66190 0.08200
N 	N 	0.03930 0.64300 0.66210 -0.13300
C 	C 	0.01840 0.65910 0.69190 0.09000
N 	N 	0.02440 0.72560 0.72110 -0.14700
C 	C 	0.05450 0.78000 0.71690 0.08800
N 	N 	0.07790 0.77140 0.68940 -0.13400
N 	N 	0.83010 0.46880 0.64850 -0.27200
C 	C 	0.82180 0.55300 0.65470 0.06800
H 	H 	0.83580 0.58260 0.68010 -0.00300
C 	C 	0.79320 0.60020 0.62540 -0.10900
H 	H 	0.78830 0.66130 0.63010 0.07800
C 	C 	0.77180 0.55450 0.58840 0.03300
C 	C 	0.78070 0.46560 0.58310 -0.11200
H 	H 	0.76630 0.43230 0.55910 0.08100
C 	C 	0.81040 0.42650 0.61300 0.06300
H 	H 	0.81730 0.36660 0.60830 0.00500
N 	N 	0.62180 0.44500 0.39290 -0.28100
C 	C 	0.61740 0.53080 0.39680 0.08600
H 	H 	0.59830 0.56020 0.37530 -0.01000
C 	C 	0.63910 0.58090 0.43030 -0.12700
H 	H 	0.63450 0.64300 0.43210 0.09900
C 	C 	0.66760 0.53840 0.46130 0.06500
C 	C 	0.67270 0.44860 0.45520 -0.14300
H 	H 	0.69250 0.41650 0.47470 0.06800
C 	C 	0.64930 0.40670 0.42130 0.09400
H 	H 	0.65330 0.34480 0.41800 -0.03400
N 	N 	0.68600 0.00380 0.52670 -0.30200
C 	C 	0.71560 0.96950 0.55450 0.08300
H 	H 	0.73250 0.00820 0.57400 -0.01900
C 	C 	0.72370 0.87610 0.55710 -0.13200
H 	H 	0.74660 0.85410 0.57630 0.07800
C 	C 	0.69860 0.82020 0.53190 0.06400
C 	C 	0.66760 0.85570 0.50200 -0.12700
H 	H 	0.64950 0.81820 0.48320 0.08700
C 	C 	0.66340 0.94840 0.50000 0.07700
H 	H 	0.64300 0.97270 0.47810 -0.01700
C 	C 	0.74070 0.60000 0.55660 0.08600
N 	N 	0.71970 0.55120 0.52420 -0.14700
C 	C 	0.69140 0.59010 0.49680 0.10600
N 	N 	0.68260 0.67590 0.49980 -0.13300
C 	C 	0.70570 0.72110 0.53170 0.10000
N 	N 	0.73380 0.68630 0.56180 -0.14700
N 	N 	0.56990 0.47910 0.29930 -0.27100
C 	C 	0.59590 0.49800 0.27580 0.07000
H 	H 	0.61840 0.46080 0.27850 -0.01800
C 	C 	0.59210 0.57110 0.24670 -0.11100
H 	H 	0.61100 0.58260 0.22920 0.07700
C 	C 	0.55870 0.62590 0.24500 0.04200
C 	C 	0.53090 0.60430 0.26970 -0.11200
H 	H 	0.50800 0.63970 0.26850 0.06700
C 	C 	0.53780 0.52910 0.29620 0.06400
H 	H 	0.51890 0.51280 0.31290 -0.01200
N 	N 	0.64410 0.82990 0.07160 -0.27300
C 	C 	0.61240 0.88240 0.06970 0.05100
H 	H 	0.60770 0.93030 0.04940 -0.01000
C 	C 	0.58550 0.86620 0.09850 -0.09000
H 	H 	0.56190 0.89980 0.09550 0.07500
C 	C 	0.59460 0.80030 0.13100 0.04400
C 	C 	0.63050 0.75750 0.13630 -0.08900
H 	H 	0.63890 0.71790 0.16020 0.07400
C 	C 	0.65580 0.77420 0.10460 0.05000
H 	H 	0.68050 0.74480 0.10780 -0.00500
N 	N 	0.42120 0.99740 0.19520 -0.27600
C 	C 	0.43450 0.98710 0.15940 0.07500
H 	H 	0.41990 0.01270 0.13310 -0.01900
C 	C 	0.47070 0.93900 0.15710 -0.11100
H 	H 	0.48270 0.94170 0.13240 0.08200
C 	C 	0.48630 0.88770 0.19390 0.03900
C 	C 	0.47040 0.89470 0.23050 -0.10900
H 	H 	0.48110 0.86040 0.25580 0.07100
C 	C 	0.43760 0.95330 0.23110 0.05700
H 	H 	0.42780 0.96020 0.25720 -0.00400
C 	C 	0.55320 0.70560 0.21630 0.09700
N 	N 	0.57610 0.71520 0.18810 -0.14300
C 	C 	0.56910 0.78490 0.16290 0.11800
N 	N 	0.54060 0.84410 0.16180 -0.13700
C 	C 	0.51910 0.82940 0.19300 0.08900
N 	N 	0.52520 0.76300 0.22200 -0.15100
N 	N 	0.68830 0.98620 0.03090 -0.27100
C 	C 	0.66480 0.03940 0.00280 0.06000
H 	H 	0.64370 0.01450 0.98190 -0.01400
C 	C 	0.67070 0.12890 0.00350 -0.11800
H 	H 	0.65410 0.16460 0.98220 0.08300
C 	C 	0.69930 0.16920 0.03340 0.05400
C 	C 	0.72280 0.11330 0.06480 -0.12200
H 	H 	0.74170 0.13670 0.08870 0.07900
C 	C 	0.71680 0.02200 0.05900 0.07400
H 	H 	0.73500 0.98330 0.07690 -0.00700
N 	N 	0.83070 0.51830 0.14910 -0.27500
C 	C 	0.80980 0.56270 0.11450 0.05700
H 	H 	0.81540 0.62370 0.11060 0.00300
C 	C 	0.78000 0.52060 0.08410 -0.11300
H 	H 	0.76590 0.55300 0.05960 0.08100
C 	C 	0.77080 0.43310 0.08940 0.04500
C 	C 	0.79230 0.38860 0.12510 -0.11500
H 	H 	0.78720 0.32760 0.12980 0.08500
C 	C 	0.82140 0.43410 0.15430 0.07100
H 	H 	0.83530 0.40310 0.17920 -0.00400
N 	N 	0.62240 0.54290 0.89130 -0.26900
C 	C 	0.61610 0.45500 0.89720 0.06500
H 	H 	0.59470 0.42610 0.87830 -0.00200
C 	C 	0.63990 0.40630 0.93000 -0.11700
H 	H 	0.63680 0.34360 0.93150 0.09200
C 	C 	0.66760 0.44830 0.95980 0.06200
C 	C 	0.67490 0.53730 0.95570 -0.11700
H 	H 	0.69480 0.56710 0.97630 0.06800
C 	C 	0.65160 0.58330 0.91930 0.05700
H 	H 	0.65700 0.64420 0.91480 -0.01100
C 	C 	0.70530 0.26590 0.03300 0.09700
N 	N 	0.73480 0.30100 0.06290 -0.14100
C 	C 	0.74010 0.38940 0.05740 0.08100
N 	N 	0.72070 0.44040 0.02490 -0.14500
C 	C 	0.69090 0.39560 0.99930 0.09900
N 	N 	0.68130 0.31110 0.00160 -0.13600
Zn	Zn	0.17032 0.63740 0.51918 0.63300
I 	I 	0.12347 0.65380 0.44507 -0.50000
I 	I 	0.22977 0.73970 0.53865 0.37300
I 	I 	0.88670 0.25550 0.64960 -0.26200
I 	I 	0.85730 0.40800 0.75910 0.02200
I 	I 	0.02190 0.13260 0.87977 -0.36100
I 	I 	0.11604 0.23290 0.81280 -0.02300
I 	I 	0.52304 0.34660 0.38380 -0.25200
I 	I 	0.61464 0.25340 0.30950 -0.14500
I 	I 	0.62850 0.82650 0.94740 -0.46400
I 	I 	0.73640 0.76220 0.04760 0.12700
I 	I 	0.89130 0.72820 0.16090 -0.23300
I 	I 	0.85430 0.56850 0.26780 -0.12800
Zn	Zn	0.18130 0.63900 0.52940 0.63900
I 	I 	0.13930 0.66700 0.45260 0.08300
I 	I 	0.24390 0.71940 0.55900 -0.78200
I 	I 	0.88923 0.26130 0.66200 -0.06400
I 	I 	0.85327 0.42220 0.76900 -0.38600
I 	I 	0.02990 0.15260 0.87280 0.01400
I 	I 	0.12970 0.22030 0.80790 -0.32000
I 	I 	0.52250 0.35090 0.37240 -0.07400
I 	I 	0.62190 0.26120 0.31000 -0.19100
I 	I 	0.64430 0.81880 0.95580 0.06700
I 	I 	0.74860 0.77170 0.06580 -0.47600
I 	I 	0.88300 0.72450 0.16330 -0.10500
I 	I 	0.85530 0.54740 0.26960 -0.20100
Zn	Zn	0.62643 0.90641 0.30629 1.15700
Zn	Zn	0.41699 0.61187 0.15558 1.15800
Zn	Zn	0.91794 0.87503 0.65498 1.15700
Zn	Zn	0.82298 0.34923 0.97468 1.15000
Zn	Zn	0.62633 0.07842 0.80511 1.15900
N 	N 	0.35900 0.15440 0.42970 -0.31100
C 	C 	0.39360 0.12280 0.43490 0.12300
H 	H 	0.40370 0.09050 0.46100 -0.03800
C 	C 	0.41710 0.13270 0.40520 -0.16700
H 	H 	0.44190 0.10310 0.40960 0.09900
C 	C 	0.40540 0.18380 0.36980 0.09800
C 	C 	0.36900 0.22310 0.36540 -0.15400
H 	H 	0.35910 0.26030 0.34090 0.09300
C 	C 	0.34800 0.20840 0.39540 0.09600
H 	H 	0.32350 0.23840 0.39240 -0.02400
N 	N 	0.57850 0.98870 0.30500 -0.27500
C 	C 	0.56220 0.03760 0.26980 0.07200
H 	H 	0.57330 0.03400 0.24450 -0.00800
C 	C 	0.53070 0.09210 0.26860 -0.12700
H 	H 	0.51950 0.12470 0.24290 0.07800
C 	C 	0.51540 0.09830 0.30640 0.05600
C 	C 	0.53300 0.05110 0.34240 -0.13500
H 	H 	0.52400 0.05810 0.36900 0.08900
C 	C 	0.56290 0.99500 0.34090 0.08400
H 	H 	0.57310 0.95860 0.36560 -0.01800
N 	N 	0.42980 0.51150 0.20100 -0.27800
C 	C 	0.40350 0.48690 0.22450 0.07400
H 	H 	0.38060 0.52260 0.22260 -0.01300
C 	C 	0.40730 0.41350 0.25140 -0.12500
H 	H 	0.38760 0.39880 0.26720 0.08200
C 	C 	0.44020 0.36250 0.25450 0.05800
C 	C 	0.46800 0.38530 0.23020 -0.12200
H 	H 	0.49100 0.35010 0.23160 0.07100
C 	C 	0.46170 0.45900 0.20420 0.06900
H 	H 	0.48080 0.47410 0.18750 -0.00900
C 	C 	0.43040 0.19910 0.33810 0.08200
N 	N 	0.46070 0.14300 0.33790 -0.13300
C 	C 	0.48160 0.15910 0.30810 0.08900
N 	N 	0.47560 0.22560 0.27890 -0.14800
C 	C 	0.44550 0.28000 0.28310 0.08900
N 	N 	0.42210 0.27140 0.31060 -0.13400
N 	N 	0.66990 0.96880 0.35150 -0.26900
C 	C 	0.67820 0.05300 0.34530 0.06200
H 	H 	0.66420 0.08260 0.31990 -0.00200
C 	C 	0.70680 0.10020 0.37460 -0.10400
H 	H 	0.71170 0.16130 0.36990 0.07700
C 	C 	0.72820 0.05450 0.41160 0.02600
C 	C 	0.71930 0.96560 0.41690 -0.10500
H 	H 	0.73370 0.93230 0.44090 0.08000
C 	C 	0.68960 0.92650 0.38700 0.06000
H 	H 	0.68270 0.86660 0.39170 0.00600
N 	N 	0.87820 0.94500 0.60710 -0.27800
C 	C 	0.88260 0.03080 0.60320 0.07900
H 	H 	0.90170 0.06020 0.62470 -0.00800
C 	C 	0.86090 0.08090 0.56970 -0.12200
H 	H 	0.86550 0.14300 0.56790 0.09700
C 	C 	0.83240 0.03840 0.53870 0.05800
C 	C 	0.82730 0.94860 0.54480 -0.13500
H 	H 	0.80750 0.91650 0.52530 0.06600
C 	C 	0.85070 0.90670 0.57870 0.09100
H 	H 	0.84670 0.84480 0.58200 -0.03200
N 	N 	0.81400 0.50380 0.47330 -0.29700
C 	C 	0.78440 0.46950 0.44550 0.07100
H 	H 	0.76750 0.50820 0.42600 -0.01300
C 	C 	0.77630 0.37610 0.44290 -0.12600
H 	H 	0.75340 0.35410 0.42370 0.07600
C 	C 	0.80140 0.32020 0.46810 0.06000
C 	C 	0.83240 0.35570 0.49800 -0.12300
H 	H 	0.85050 0.31820 0.51680 0.08600
C 	C 	0.83660 0.44840 0.50000 0.07100
H 	H 	0.85700 0.47270 0.52190 -0.01600
C 	C 	0.75930 0.10000 0.44340 0.08700
N 	N 	0.78030 0.05120 0.47580 -0.14900
C 	C 	0.80860 0.09010 0.50320 0.10700
N 	N 	0.81740 0.17590 0.50020 -0.13300
C 	C 	0.79430 0.22110 0.46830 0.10100
N 	N 	0.76620 0.18630 0.43820 -0.14700
N 	N 	0.93010 0.97910 0.70070 -0.27000
C 	C 	0.90410 0.99800 0.72420 0.07500
H 	H 	0.88160 0.96080 0.72150 -0.01900
C 	C 	0.90790 0.07110 0.75330 -0.11500
H 	H 	0.88900 0.08260 0.77080 0.07800
C 	C 	0.94130 0.12590 0.75500 0.04300
C 	C 	0.96910 0.10430 0.73030 -0.11200
H 	H 	0.99200 0.13970 0.73150 0.06600
C 	C 	0.96220 0.02910 0.70380 0.06100
H 	H 	0.98110 0.01280 0.68710 -0.01300
N 	N 	0.85590 0.32990 0.92840 -0.27300
C 	C 	0.88760 0.38240 0.93030 0.05000
H 	H 	0.89230 0.43030 0.95060 -0.01100
C 	C 	0.91450 0.36620 0.90150 -0.09000
H 	H 	0.93810 0.39980 0.90450 0.07500
C 	C 	0.90540 0.30030 0.86900 0.04300
C 	C 	0.86950 0.25750 0.86370 -0.08900
H 	H 	0.86110 0.21790 0.83980 0.07400
C 	C 	0.84420 0.27420 0.89540 0.05000
H 	H 	0.81950 0.24480 0.89220 -0.00500
N 	N 	0.07880 0.49740 0.80480 -0.27600
C 	C 	0.06550 0.48710 0.84060 0.06700
H 	H 	0.08010 0.51270 0.86690 -0.01400
C 	C 	0.02930 0.43900 0.84290 -0.10900
H 	H 	0.01730 0.44170 0.86760 0.08000
C 	C 	0.01370 0.38770 0.80610 0.03800
C 	C 	0.02960 0.39470 0.76950 -0.10800
H 	H 	0.01890 0.36040 0.74420 0.07000
C 	C 	0.06240 0.45330 0.76890 0.05600
H 	H 	0.07220 0.46020 0.74280 -0.00500
C 	C 	0.94680 0.20560 0.78370 0.09700
N 	N 	0.92390 0.21520 0.81190 -0.14300
C 	C 	0.93090 0.28490 0.83710 0.11800
N 	N 	0.95940 0.34410 0.83820 -0.13700
C 	C 	0.98090 0.32940 0.80700 0.08900
N 	N 	0.97480 0.26300 0.77800 -0.15100
N 	N 	0.81170 0.48620 0.96910 -0.27600
C 	C 	0.83520 0.53940 0.99720 0.06600
H 	H 	0.85630 0.51450 0.01810 -0.01500
C 	C 	0.82930 0.62890 0.99650 -0.12300
H 	H 	0.84590 0.66460 0.01780 0.08400
C 	C 	0.80070 0.66920 0.96660 0.05800
C 	C 	0.77720 0.61330 0.93520 -0.12900
H 	H 	0.75830 0.63670 0.91130 0.08200
C 	C 	0.78320 0.52200 0.94100 0.08700
H 	H 	0.76500 0.48330 0.92310 -0.01300
N 	N 	0.66930 0.01830 0.85090 -0.27800
C 	C 	0.69020 0.06270 0.88550 0.06000
H 	H 	0.68460 0.12370 0.88940 0.00200
C 	C 	0.72000 0.02060 0.91590 -0.12100
H 	H 	0.73410 0.05300 0.94040 0.08300
C 	C 	0.72920 0.93310 0.91060 0.05200
C 	C 	0.70770 0.88860 0.87490 -0.12000
H 	H 	0.71280 0.82760 0.87020 0.08700
C 	C 	0.67860 0.93410 0.84570 0.07700
H 	H 	0.66470 0.90310 0.82080 -0.00500
N 	N 	0.87760 0.04290 0.10870 -0.27100
C 	C 	0.88390 0.95500 0.10280 0.07100
H 	H 	0.90530 0.92610 0.12170 -0.00300
C 	C 	0.86010 0.90630 0.07000 -0.12200
H 	H 	0.86320 0.84360 0.06850 0.09400
C 	C 	0.83240 0.94830 0.04020 0.06900
C 	C 	0.82510 0.03730 0.04430 -0.12500
H 	H 	0.80520 0.06710 0.02370 0.07000
C 	C 	0.84840 0.08330 0.08070 0.06000
H 	H 	0.84300 0.14420 0.08520 -0.01200
C 	C 	0.79470 0.76590 0.96700 0.09600
N 	N 	0.76520 0.80100 0.93710 -0.14100
C 	C 	0.75990 0.88940 0.94260 0.07900
N 	N 	0.77930 0.94040 0.97510 -0.14300
C 	C 	0.80910 0.89560 0.00070 0.09800
N 	N 	0.81870 0.81110 0.99840 -0.13500
Zn	Zn	0.32968 0.13740 0.48082 0.63300
I 	I 	0.37653 0.15380 0.55493 -0.50000
I 	I 	0.27023 0.23970 0.46135 0.37300
I 	I 	0.61330 0.75550 0.35040 -0.26200
I 	I 	0.64270 0.90800 0.24090 0.02400
I 	I 	0.47810 0.63260 0.12023 -0.36100
I 	I 	0.38396 0.73290 0.18720 -0.02200
I 	I 	0.97696 0.84660 0.61620 -0.25100
I 	I 	0.88536 0.75340 0.69050 -0.14500
I 	I 	0.87150 0.32650 0.05260 -0.46400
I 	I 	0.76360 0.26220 0.95240 0.12700
I 	I 	0.60870 0.22820 0.83910 -0.23400
I 	I 	0.64570 0.06850 0.73220 -0.13000
Zn	Zn	0.31870 0.13900 0.47060 0.63900
I 	I 	0.36070 0.16700 0.54740 0.08200
I 	I 	0.25610 0.21940 0.44100 -0.78300
I 	I 	0.61077 0.76130 0.33800 -0.06300
I 	I 	0.64673 0.92220 0.23100 -0.38500
I 	I 	0.47010 0.65260 0.12720 0.01600
I 	I 	0.37030 0.72030 0.19210 -0.32000
I 	I 	0.97750 0.85090 0.62760 -0.07300
I 	I 	0.87810 0.76120 0.69000 -0.19000
I 	I 	0.85570 0.31880 0.04420 0.06600
I 	I 	0.75140 0.27170 0.93420 -0.47600
I 	I 	0.61700 0.22450 0.83670 -0.10600
I 	I 	0.64470 0.04740 0.73040 -0.20200
Zn	Zn	0.12643 0.40641 0.30629 1.15700
Zn	Zn	0.91699 0.11187 0.15558 1.15800
Zn	Zn	0.41794 0.37503 0.65498 1.15700
Zn	Zn	0.32298 0.84923 0.97468 1.15000
Zn	Zn	0.12633 0.57842 0.80511 1.15900
N 	N 	0.85900 0.65440 0.42970 -0.31100
C 	C 	0.89360 0.62280 0.43490 0.12400
H 	H 	0.90370 0.59050 0.46100 -0.03800
C 	C 	0.91710 0.63270 0.40520 -0.16600
H 	H 	0.94190 0.60310 0.40960 0.09900
C 	C 	0.90540 0.68380 0.36980 0.09800
C 	C 	0.86900 0.72310 0.36540 -0.15400
H 	H 	0.85910 0.76030 0.34090 0.09300
C 	C 	0.84800 0.70840 0.39540 0.09600
H 	H 	0.82350 0.73840 0.39240 -0.02400
N 	N 	0.07850 0.48870 0.30500 -0.27600
C 	C 	0.06220 0.53760 0.26980 0.07500
H 	H 	0.07330 0.53400 0.24450 -0.00700
C 	C 	0.03070 0.59210 0.26860 -0.12600
H 	H 	0.01950 0.62470 0.24290 0.07800
C 	C 	0.01540 0.59830 0.30640 0.05400
C 	C 	0.03300 0.55110 0.34240 -0.12800
H 	H 	0.02400 0.55810 0.36900 0.08800
C 	C 	0.06290 0.49500 0.34090 0.07700
H 	H 	0.07310 0.45860 0.36560 -0.01700
N 	N 	0.92980 0.01150 0.20100 -0.28300
C 	C 	0.90350 0.98690 0.22450 0.08600
H 	H 	0.88060 0.02260 0.22260 -0.01900
C 	C 	0.90730 0.91350 0.25140 -0.13100
H 	H 	0.88760 0.89880 0.26720 0.08500
C 	C 	0.94020 0.86250 0.25450 0.06200
C 	C 	0.96800 0.88530 0.23020 -0.12600
H 	H 	0.99100 0.85010 0.23160 0.07300
C 	C 	0.96170 0.95900 0.20420 0.07400
H 	H 	0.98080 0.97410 0.18750 -0.01000
C 	C 	0.93040 0.69910 0.33810 0.08200
N 	N 	0.96070 0.64300 0.33790 -0.13300
C 	C 	0.98160 0.65910 0.30810 0.09000
N 	N 	0.97560 0.72560 0.27890 -0.14700
C 	C 	0.94550 0.78000 0.28310 0.08800
N 	N 	0.92210 0.77140 0.31060 -0.13400
N 	N 	0.16990 0.46880 0.35150 -0.27200
C 	C 	0.17820 0.55300 0.34530 0.06800
H 	H 	0.16420 0.58260 0.31990 -0.00300
C 	C 	0.20680 0.60020 0.37460 -0.10900
H 	H 	0.21170 0.66130 0.36990 0.07800
C 	C 	0.22820 0.55450 0.41160 0.03300
C 	C 	0.21930 0.46560 0.41690 -0.11200
H 	H 	0.23370 0.43230 0.44090 0.08100
C 	C 	0.18960 0.42650 0.38700 0.06300
H 	H 	0.18270 0.36660 0.39170 0.00500
N 	N 	0.37820 0.44500 0.60710 -0.28100
C 	C 	0.38260 0.53080 0.60320 0.08600
H 	H 	0.40170 0.56020 0.62470 -0.01000
C 	C 	0.36090 0.58090 0.56970 -0.12700
H 	H 	0.36550 0.64300 0.56790 0.09900
C 	C 	0.33240 0.53840 0.53870 0.06500
C 	C 	0.32730 0.44860 0.54480 -0.14300
H 	H 	0.30750 0.41650 0.52530 0.06800
C 	C 	0.35070 0.40670 0.57870 0.09400
H 	H 	0.34670 0.34480 0.58200 -0.03400
N 	N 	0.31400 0.00380 0.47330 -0.30200
C 	C 	0.28440 0.96950 0.44550 0.08300
H 	H 	0.26750 0.00820 0.42600 -0.01900
C 	C 	0.27630 0.87610 0.44290 -0.13200
H 	H 	0.25340 0.85410 0.42370 0.07800
C 	C 	0.30140 0.82020 0.46810 0.06400
C 	C 	0.33240 0.85570 0.49800 -0.12700
H 	H 	0.35050 0.81820 0.51680 0.08700
C 	C 	0.33660 0.94840 0.50000 0.07700
H 	H 	0.35700 0.97270 0.52190 -0.01700
C 	C 	0.25930 0.60000 0.44340 0.08600
N 	N 	0.28030 0.55120 0.47580 -0.14700
C 	C 	0.30860 0.59010 0.50320 0.10600
N 	N 	0.31740 0.67590 0.50020 -0.13300
C 	C 	0.29430 0.72110 0.46830 0.10000
N 	N 	0.26620 0.68630 0.43820 -0.14700
N 	N 	0.43010 0.47910 0.70070 -0.27100
C 	C 	0.40410 0.49800 0.72420 0.07000
H 	H 	0.38160 0.46080 0.72150 -0.01800
C 	C 	0.40790 0.57110 0.75330 -0.11100
H 	H 	0.38900 0.58260 0.77080 0.07700
C 	C 	0.44130 0.62590 0.75500 0.04200
C 	C 	0.46910 0.60430 0.73030 -0.11200
H 	H 	0.49200 0.63970 0.73150 0.06700
C 	C 	0.46220 0.52910 0.70380 0.06400
H 	H 	0.48110 0.51280 0.68710 -0.01200
N 	N 	0.35590 0.82990 0.92840 -0.27300
C 	C 	0.38760 0.88240 0.93030 0.05100
H 	H 	0.39230 0.93030 0.95060 -0.01000
C 	C 	0.41450 0.86620 0.90150 -0.09000
H 	H 	0.43810 0.89980 0.90450 0.07500
C 	C 	0.40540 0.80030 0.86900 0.04400
C 	C 	0.36950 0.75750 0.86370 -0.08900
H 	H 	0.36110 0.71790 0.83980 0.07400
C 	C 	0.34420 0.77420 0.89540 0.05000
H 	H 	0.31950 0.74480 0.89220 -0.00500
N 	N 	0.57880 0.99740 0.80480 -0.27600
C 	C 	0.56550 0.98710 0.84060 0.07500
H 	H 	0.58010 0.01270 0.86690 -0.01900
C 	C 	0.52930 0.93900 0.84290 -0.11100
H 	H 	0.51730 0.94170 0.86760 0.08200
C 	C 	0.51370 0.88770 0.80610 0.03900
C 	C 	0.52960 0.89470 0.76950 -0.10900
H 	H 	0.51890 0.86040 0.74420 0.07100
C 	C 	0.56240 0.95330 0.76890 0.05700
H 	H 	0.57220 0.96020 0.74280 -0.00400
C 	C 	0.44680 0.70560 0.78370 0.09700
N 	N 	0.42390 0.71520 0.81190 -0.14300
C 	C 	0.43090 0.78490 0.83710 0.11800
N 	N 	0.45940 0.84410 0.83820 -0.13700
C 	C 	0.48090 0.82940 0.80700 0.08900
N 	N 	0.47480 0.76300 0.77800 -0.15100
N 	N 	0.31170 0.98620 0.96910 -0.27100
C 	C 	0.33520 0.03940 0.99720 0.06000
H 	H 	0.35630 0.01450 0.01810 -0.01400
C 	C 	0.32930 0.12890 0.99650 -0.11800
H 	H 	0.34590 0.16460 0.01780 0.08300
C 	C 	0.30070 0.16920 0.96660 0.05400
C 	C 	0.27720 0.11330 0.93520 -0.12200
H 	H 	0.25830 0.13670 0.91130 0.07900
C 	C 	0.28320 0.02200 0.94100 0.07400
H 	H 	0.26500 0.98330 0.92310 -0.00700
N 	N 	0.16930 0.51830 0.85090 -0.27500
C 	C 	0.19020 0.56270 0.88550 0.05700
H 	H 	0.18460 0.62370 0.88940 0.00300
C 	C 	0.22000 0.52060 0.91590 -0.11300
H 	H 	0.23410 0.55300 0.94040 0.08100
C 	C 	0.22920 0.43310 0.91060 0.04500
C 	C 	0.20770 0.38860 0.87490 -0.11500
H 	H 	0.21280 0.32760 0.87020 0.08500
C 	C 	0.17860 0.43410 0.84570 0.07100
H 	H 	0.16470 0.40310 0.82080 -0.00400
N 	N 	0.37760 0.54290 0.10870 -0.26900
C 	C 	0.38390 0.45500 0.10280 0.06500
H 	H 	0.40530 0.42610 0.12170 -0.00200
C 	C 	0.36010 0.40630 0.07000 -0.11700
H 	H 	0.36320 0.34360 0.06850 0.09200
C 	C 	0.33240 0.44830 0.04020 0.06200
C 	C 	0.32510 0.53730 0.04430 -0.11700
H 	H 	0.30520 0.56710 0.02370 0.06800
C 	C 	0.34840 0.58330 0.08070 0.05700
H 	H 	0.34300 0.64420 0.08520 -0.01100
C 	C 	0.29470 0.26590 0.96700 0.09700
N 	N 	0.26520 0.30100 0.93710 -0.14100
C 	C 	0.25990 0.38940 0.94260 0.08100
N 	N 	0.27930 0.44040 0.97510 -0.14500
C 	C 	0.30910 0.39560 0.00070 0.09900
N 	N 	0.31870 0.31110 0.99840 -0.13600
Zn	Zn	0.82968 0.63740 0.48082 0.63300
I 	I 	0.87653 0.65380 0.55493 -0.50000
I 	I 	0.77023 0.73970 0.46135 0.37300
I 	I 	0.11330 0.25550 0.35040 -0.26200
I 	I 	0.14270 0.40800 0.24090 0.02200
I 	I 	0.97810 0.13260 0.12023 -0.36100
I 	I 	0.88396 0.23290 0.18720 -0.02300
I 	I 	0.47696 0.34660 0.61620 -0.25200
I 	I 	0.38536 0.25340 0.69050 -0.14500
I 	I 	0.37150 0.82650 0.05260 -0.46400
I 	I 	0.26360 0.76220 0.95240 0.12700
I 	I 	0.10870 0.72820 0.83910 -0.23300
I 	I 	0.14570 0.56850 0.73220 -0.12800
Zn	Zn	0.81870 0.63900 0.47060 0.63900
I 	I 	0.86070 0.66700 0.54740 0.08300
I 	I 	0.75610 0.71940 0.44100 -0.78200
I 	I 	0.11077 0.26130 0.33800 -0.06400
I 	I 	0.14673 0.42220 0.23100 -0.38600
I 	I 	0.97010 0.15260 0.12720 0.01400
I 	I 	0.87030 0.22030 0.19210 -0.32000
I 	I 	0.47750 0.35090 0.62760 -0.07400
I 	I 	0.37810 0.26120 0.69000 -0.19100
I 	I 	0.35570 0.81880 0.04420 0.06700
I 	I 	0.25140 0.77170 0.93420 -0.47600
I 	I 	0.11700 0.72450 0.83670 -0.10500
I 	I 	0.14470 0.54740 0.73040 -0.20100
