data_crystal

_cell_length_a 33.57670
_cell_length_b 33.57670
_cell_length_c 33.57670
_cell_angle_alpha 109.47100
_cell_angle_beta  109.47100
_cell_angle_gamma 109.47100

_symmetry_space_group_name_	'P 1'
_symmetry_space_group_name_H-M	'P 1'

loop_
_symmetry_equiv_pos_as_xyz
  x,y,z

loop_
_atom_site_label
_atom_site_type_symbol
_atom_site_fract_x
_atom_site_fract_y
_atom_site_fract_z
_atom_site_charge
In	In	0.77764 0.92230 0.11518 1.99700
In	In	0.30712 0.66246 0.38482 1.99700
In	In	0.19288 0.57770 0.35534 1.99700
In	In	0.72236 0.83754 0.14466 1.99700
In	In	0.85534 0.19288 0.07770 1.99700
In	In	0.64466 0.72236 0.33754 1.99700
In	In	0.61518 0.77764 0.42230 1.99700
In	In	0.88482 0.30712 0.16246 1.99700
In	In	0.66246 0.88482 0.80712 1.99700
In	In	0.92230 0.61518 0.27764 1.99700
In	In	0.83754 0.64466 0.22236 1.99700
In	In	0.57770 0.85534 0.69288 1.99700
In	In	0.16246 0.80712 0.88482 1.99700
In	In	0.42230 0.27764 0.61518 1.99700
In	In	0.33754 0.22236 0.64466 1.99700
In	In	0.07770 0.69288 0.85534 1.99700
In	In	0.27764 0.11518 0.92230 1.99700
In	In	0.80712 0.38482 0.66246 1.99700
In	In	0.69288 0.35534 0.57770 1.99700
In	In	0.22236 0.14466 0.83754 1.99700
In	In	0.35534 0.07770 0.19288 1.99700
In	In	0.14466 0.33754 0.72236 1.99700
In	In	0.11518 0.42230 0.77764 1.99700
In	In	0.38482 0.16246 0.30712 1.99700
In	In	0.75000 0.80002 0.05002 1.97700
In	In	0.25000 0.69998 0.44998 1.97700
In	In	0.94998 0.25000 0.19998 1.97700
In	In	0.55002 0.75000 0.30002 1.97700
In	In	0.69998 0.94998 0.75000 1.97700
In	In	0.80002 0.55002 0.25000 1.97600
In	In	0.19998 0.75000 0.94998 1.97600
In	In	0.30002 0.25000 0.55002 1.97600
In	In	0.25000 0.05002 0.80002 1.97600
In	In	0.75000 0.44998 0.69998 1.97600
In	In	0.44998 0.19998 0.25000 1.97600
In	In	0.05002 0.30002 0.75000 1.97600
H 	H 	0.69410 0.91900 0.97890 0.05500
H 	H 	0.71870 0.81350 0.91440 0.04600
H 	H 	0.69330 0.82030 0.84640 0.00800
H 	H 	0.66960 0.92350 0.90870 0.01400
H 	H 	0.19950 0.00900 0.14370 -0.02600
H 	H 	0.92640 0.98420 0.14760 -0.03400
H 	H 	0.23090 0.12090 0.26260 -0.02200
H 	H 	0.11860 0.97620 0.11920 0.14000
H 	H 	0.14810 0.08830 0.23540 0.12700
H 	H 	0.90260 0.84940 0.07500 -0.04200
H 	H 	0.00310 0.01440 0.15650 0.14600
H 	H 	0.97990 0.88410 0.08740 0.14300
H 	H 	0.44010 0.71520 0.52110 0.05500
H 	H 	0.39910 0.80430 0.58560 0.04600
H 	H 	0.47390 0.84690 0.65360 0.00800
H 	H 	0.51480 0.76090 0.59130 0.01400
H 	H 	0.36530 0.05580 0.35630 -0.02700
H 	H 	0.33660 0.77880 0.35240 -0.03300
H 	H 	0.35830 0.96830 0.23740 -0.02200
H 	H 	0.35700 0.99940 0.38080 0.14000
H 	H 	0.35290 0.91270 0.26460 0.12700
H 	H 	0.27440 0.82760 0.42500 -0.04100
H 	H 	0.35790 0.84660 0.34350 0.14500
H 	H 	0.29670 0.89250 0.41260 0.14300
H 	H 	0.05990 0.58100 0.27510 0.05500
H 	H 	0.10090 0.68650 0.40520 0.04600
H 	H 	0.02610 0.67970 0.37300 0.00800
H 	H 	0.98520 0.57650 0.24610 0.01300
H 	H 	0.13470 0.49100 0.69050 -0.02700
H 	H 	0.16340 0.51580 0.44220 -0.03300
H 	H 	0.14170 0.37910 0.61000 -0.02200
H 	H 	0.14300 0.52380 0.64240 0.14000
H 	H 	0.14710 0.41170 0.55980 0.12700
H 	H 	0.22560 0.65060 0.55320 -0.04100
H 	H 	0.14210 0.48560 0.48870 0.14500
H 	H 	0.20330 0.61590 0.59580 0.14300
H 	H 	0.80590 0.78480 0.22490 0.05500
H 	H 	0.78130 0.69570 0.09480 0.04600
H 	H 	0.80670 0.65310 0.12700 0.00800
H 	H 	0.83040 0.73910 0.25390 0.01400
H 	H 	0.30050 0.44420 0.80950 -0.02700
H 	H 	0.57360 0.72120 0.05780 -0.03300
H 	H 	0.26910 0.53170 0.89000 -0.02200
H 	H 	0.38140 0.50060 0.85760 0.14000
H 	H 	0.35190 0.58730 0.94020 0.12700
H 	H 	0.59740 0.67240 0.94680 -0.04100
H 	H 	0.49690 0.65340 0.01130 0.14500
H 	H 	0.52010 0.60750 0.90420 0.14300
H 	H 	0.77510 0.05990 0.08100 0.05500
H 	H 	0.90520 0.10090 0.18650 0.04600
H 	H 	0.87300 0.02610 0.17970 0.00800
H 	H 	0.74610 0.98520 0.07650 0.01300
H 	H 	0.19050 0.13470 0.99100 -0.02700
H 	H 	0.94220 0.16340 0.01580 -0.03300
H 	H 	0.11000 0.14170 0.87910 -0.02200
H 	H 	0.14240 0.14300 0.02380 0.14100
H 	H 	0.05980 0.14710 0.91170 0.12700
H 	H 	0.05320 0.22560 0.15060 -0.04100
H 	H 	0.98870 0.14210 0.98560 0.14500
H 	H 	0.09580 0.20330 0.11590 0.14300
H 	H 	0.72490 0.80590 0.28480 0.05500
H 	H 	0.59480 0.78130 0.19570 0.04600
H 	H 	0.62700 0.80670 0.15310 0.00800
H 	H 	0.75390 0.83040 0.23910 0.01400
H 	H 	0.30950 0.30050 0.94420 -0.02700
H 	H 	0.55780 0.57360 0.22120 -0.03300
H 	H 	0.39000 0.26910 0.03170 -0.02200
H 	H 	0.35760 0.38140 0.00060 0.14000
H 	H 	0.44020 0.35190 0.08730 0.12700
H 	H 	0.44680 0.59740 0.17240 -0.04100
H 	H 	0.51130 0.49690 0.15340 0.14500
H 	H 	0.40420 0.52010 0.10750 0.14300
H 	H 	0.47890 0.69410 0.41900 0.05500
H 	H 	0.41440 0.71870 0.31350 0.04600
H 	H 	0.34640 0.69330 0.32030 0.00800
H 	H 	0.40870 0.66960 0.42350 0.01400
H 	H 	0.64370 0.19950 0.50900 -0.02700
H 	H 	0.64760 0.92640 0.48420 -0.03300
H 	H 	0.76260 0.23090 0.62090 -0.02200
H 	H 	0.61920 0.11860 0.47620 0.14000
H 	H 	0.73540 0.14810 0.58830 0.12700
H 	H 	0.57500 0.90260 0.34940 -0.04100
H 	H 	0.65650 0.00310 0.51440 0.14500
H 	H 	0.58740 0.97990 0.38410 0.14300
H 	H 	0.02110 0.44010 0.21520 0.05500
H 	H 	0.08560 0.39910 0.30430 0.04600
H 	H 	0.15360 0.47390 0.34690 0.00800
H 	H 	0.09130 0.51480 0.26090 0.01400
H 	H 	0.85630 0.36530 0.55580 -0.02700
H 	H 	0.85240 0.33660 0.27880 -0.03300
H 	H 	0.73740 0.35830 0.46830 -0.02200
H 	H 	0.88080 0.35700 0.49940 0.14000
H 	H 	0.76460 0.35290 0.41270 0.12700
H 	H 	0.92500 0.27440 0.32760 -0.04100
H 	H 	0.84350 0.35790 0.34660 0.14500
H 	H 	0.91260 0.29670 0.39250 0.14300
H 	H 	0.71520 0.02110 0.94010 0.05500
H 	H 	0.80430 0.08560 0.89910 0.04600
H 	H 	0.84690 0.15360 0.97390 0.00800
H 	H 	0.76090 0.09130 0.01480 0.01300
H 	H 	0.05580 0.85630 0.86530 -0.02700
H 	H 	0.77880 0.85240 0.83660 -0.03300
H 	H 	0.96830 0.73740 0.85830 -0.02200
H 	H 	0.99940 0.88080 0.85700 0.14000
H 	H 	0.91270 0.76460 0.85290 0.12700
H 	H 	0.82760 0.92500 0.77440 -0.04100
H 	H 	0.84660 0.84350 0.85790 0.14500
H 	H 	0.89250 0.91260 0.79670 0.14300
H 	H 	0.91900 0.47890 0.19410 0.05500
H 	H 	0.81350 0.41440 0.21870 0.04600
H 	H 	0.82030 0.34640 0.19330 0.00800
H 	H 	0.92350 0.40870 0.16960 0.01400
H 	H 	0.00900 0.64370 0.69950 -0.02700
H 	H 	0.98420 0.64760 0.42640 -0.03300
H 	H 	0.12090 0.76260 0.73090 -0.02200
H 	H 	0.97620 0.61920 0.61860 0.14000
H 	H 	0.08830 0.73540 0.64810 0.12700
H 	H 	0.84940 0.57500 0.40260 -0.04100
H 	H 	0.01440 0.65650 0.50310 0.14500
H 	H 	0.88410 0.58740 0.47990 0.14300
H 	H 	0.78480 0.72490 0.30590 0.05500
H 	H 	0.69570 0.59480 0.28130 0.04600
H 	H 	0.65310 0.62700 0.30670 0.00800
H 	H 	0.73910 0.75390 0.33040 0.01400
H 	H 	0.44420 0.30950 0.80050 -0.02700
H 	H 	0.72120 0.55780 0.07360 -0.03400
H 	H 	0.53170 0.39000 0.76910 -0.02200
H 	H 	0.50060 0.35760 0.88140 0.14000
H 	H 	0.58730 0.44020 0.85190 0.12700
H 	H 	0.67240 0.44680 0.09740 -0.04200
H 	H 	0.65340 0.51130 0.99690 0.14600
H 	H 	0.60750 0.40420 0.02010 0.14300
H 	H 	0.58100 0.77510 0.55990 0.05500
H 	H 	0.68650 0.90520 0.60090 0.04600
H 	H 	0.67970 0.87300 0.52610 0.00800
H 	H 	0.57650 0.74610 0.48520 0.01400
H 	H 	0.49100 0.19050 0.63470 -0.02700
H 	H 	0.51580 0.94220 0.66340 -0.03300
H 	H 	0.37910 0.11000 0.64170 -0.02200
H 	H 	0.52380 0.14240 0.64300 0.14000
H 	H 	0.41170 0.05980 0.64710 0.12700
H 	H 	0.65060 0.05320 0.72560 -0.04100
H 	H 	0.48560 0.98870 0.64210 0.14500
H 	H 	0.61590 0.09580 0.70330 0.14300
H 	H 	0.21520 0.94010 0.02110 0.05500
H 	H 	0.30430 0.89910 0.08560 0.04600
H 	H 	0.34690 0.97390 0.15360 0.00800
H 	H 	0.26090 0.01480 0.09130 0.01400
H 	H 	0.55580 0.86530 0.85630 -0.02700
H 	H 	0.27880 0.83660 0.85240 -0.03300
H 	H 	0.46830 0.85830 0.73740 -0.02200
H 	H 	0.49940 0.85700 0.88080 0.14000
H 	H 	0.41270 0.85290 0.76460 0.12700
H 	H 	0.32760 0.77440 0.92500 -0.04100
H 	H 	0.34660 0.85790 0.84350 0.14500
H 	H 	0.39250 0.79670 0.91260 0.14300
H 	H 	0.41900 0.19410 0.47890 0.05500
H 	H 	0.31350 0.21870 0.41440 0.04600
H 	H 	0.32030 0.19330 0.34640 0.00800
H 	H 	0.42350 0.16960 0.40870 0.01400
H 	H 	0.50900 0.69950 0.64370 -0.02700
H 	H 	0.48420 0.42640 0.64760 -0.03300
H 	H 	0.62090 0.73090 0.76260 -0.02200
H 	H 	0.47620 0.61860 0.61920 0.14000
H 	H 	0.58830 0.64810 0.73540 0.12700
H 	H 	0.34940 0.40260 0.57500 -0.04100
H 	H 	0.51440 0.50310 0.65650 0.14500
H 	H 	0.38410 0.47990 0.58740 0.14300
H 	H 	0.28480 0.30590 0.72490 0.05500
H 	H 	0.19570 0.28130 0.59480 0.04600
H 	H 	0.15310 0.30670 0.62700 0.00800
H 	H 	0.23910 0.33040 0.75390 0.01400
H 	H 	0.94420 0.80050 0.30950 -0.02700
H 	H 	0.22120 0.07360 0.55780 -0.03300
H 	H 	0.03170 0.76910 0.39000 -0.02200
H 	H 	0.00060 0.88140 0.35760 0.14000
H 	H 	0.08730 0.85190 0.44020 0.12700
H 	H 	0.17240 0.09740 0.44680 -0.04100
H 	H 	0.15340 0.99690 0.51130 0.14500
H 	H 	0.10750 0.02010 0.40420 0.14300
H 	H 	0.08100 0.55990 0.77510 0.05500
H 	H 	0.18650 0.60090 0.90520 0.04600
H 	H 	0.17970 0.52610 0.87300 0.00800
H 	H 	0.07650 0.48520 0.74610 0.01400
H 	H 	0.99100 0.63470 0.19050 -0.02700
H 	H 	0.01580 0.66340 0.94220 -0.03300
H 	H 	0.87910 0.64170 0.11000 -0.02200
H 	H 	0.02380 0.64300 0.14240 0.14100
H 	H 	0.91170 0.64710 0.05980 0.12700
H 	H 	0.15060 0.72560 0.05320 -0.04100
H 	H 	0.98560 0.64210 0.98870 0.14600
H 	H 	0.11590 0.70330 0.09580 0.14300
H 	H 	0.19410 0.97890 0.91900 0.05500
H 	H 	0.21870 0.91440 0.81350 0.04600
H 	H 	0.19330 0.84640 0.82030 0.00800
H 	H 	0.16960 0.90870 0.92350 0.01400
H 	H 	0.69950 0.14370 0.00900 -0.02700
H 	H 	0.42640 0.14760 0.98420 -0.03300
H 	H 	0.73090 0.26260 0.12090 -0.02200
H 	H 	0.61860 0.11920 0.97620 0.14000
H 	H 	0.64810 0.23540 0.08830 0.12700
H 	H 	0.40260 0.07500 0.84940 -0.04100
H 	H 	0.50310 0.15650 0.01440 0.14500
H 	H 	0.47990 0.08740 0.88410 0.14300
H 	H 	0.94010 0.52110 0.71520 0.05500
H 	H 	0.89910 0.58560 0.80430 0.04600
H 	H 	0.97390 0.65360 0.84690 0.00800
H 	H 	0.01480 0.59130 0.76090 0.01300
H 	H 	0.86530 0.35630 0.05580 -0.02600
H 	H 	0.83660 0.35240 0.77880 -0.03300
H 	H 	0.85830 0.23740 0.96830 -0.02200
H 	H 	0.85700 0.38080 0.99940 0.14000
H 	H 	0.85290 0.26460 0.91270 0.12700
H 	H 	0.77440 0.42500 0.82760 -0.04100
H 	H 	0.85790 0.34350 0.84660 0.14500
H 	H 	0.79670 0.41260 0.89250 0.14300
H 	H 	0.55990 0.27510 0.58100 0.05500
H 	H 	0.60090 0.40520 0.68650 0.04600
H 	H 	0.52610 0.37300 0.67970 0.00800
H 	H 	0.48520 0.24610 0.57650 0.01400
H 	H 	0.63470 0.69050 0.49100 -0.02700
H 	H 	0.66340 0.44220 0.51580 -0.03300
H 	H 	0.64170 0.61000 0.37910 -0.02200
H 	H 	0.64300 0.64240 0.52380 0.14000
H 	H 	0.64710 0.55980 0.41170 0.12700
H 	H 	0.72560 0.55320 0.65060 -0.04100
H 	H 	0.64210 0.48870 0.48560 0.14500
H 	H 	0.70330 0.59580 0.61590 0.14300
H 	H 	0.30590 0.22490 0.78480 0.05500
H 	H 	0.28130 0.09480 0.69570 0.04600
H 	H 	0.30670 0.12700 0.65310 0.00800
H 	H 	0.33040 0.25390 0.73910 0.01400
H 	H 	0.80050 0.80950 0.44420 -0.02700
H 	H 	0.07360 0.05780 0.72120 -0.03300
H 	H 	0.76910 0.89000 0.53170 -0.02200
H 	H 	0.88140 0.85760 0.50060 0.14000
H 	H 	0.85190 0.94020 0.58730 0.12700
H 	H 	0.09740 0.94680 0.67240 -0.04200
H 	H 	0.99690 0.01130 0.65340 0.14600
H 	H 	0.02010 0.90420 0.60750 0.14300
H 	H 	0.27510 0.08100 0.05990 0.05500
H 	H 	0.40520 0.18650 0.10090 0.04600
H 	H 	0.37300 0.17970 0.02610 0.00800
H 	H 	0.24610 0.07650 0.98520 0.01300
H 	H 	0.69050 0.99100 0.13470 -0.02700
H 	H 	0.44220 0.01580 0.16340 -0.03300
H 	H 	0.61000 0.87910 0.14170 -0.02200
H 	H 	0.64240 0.02380 0.14300 0.14000
H 	H 	0.55980 0.91170 0.14710 0.12700
H 	H 	0.55320 0.15060 0.22560 -0.04100
H 	H 	0.48870 0.98560 0.14210 0.14500
H 	H 	0.59580 0.11590 0.20330 0.14300
H 	H 	0.22490 0.28480 0.80590 0.05500
H 	H 	0.09480 0.19570 0.78130 0.04600
H 	H 	0.12700 0.15310 0.80670 0.00800
H 	H 	0.25390 0.23910 0.83040 0.01400
H 	H 	0.80950 0.94420 0.30050 -0.02700
H 	H 	0.05780 0.22120 0.57360 -0.03300
H 	H 	0.89000 0.03170 0.26910 -0.02200
H 	H 	0.85760 0.00060 0.38140 0.14000
H 	H 	0.94020 0.08730 0.35190 0.12700
H 	H 	0.94680 0.17240 0.59740 -0.04100
H 	H 	0.01130 0.15340 0.49690 0.14500
H 	H 	0.90420 0.10750 0.52010 0.14300
H 	H 	0.97890 0.41900 0.69410 0.05500
H 	H 	0.91440 0.31350 0.71870 0.04600
H 	H 	0.84640 0.32030 0.69330 0.00800
H 	H 	0.90870 0.42350 0.66960 0.01400
H 	H 	0.14370 0.50900 0.19950 -0.02700
H 	H 	0.14760 0.48420 0.92640 -0.03400
H 	H 	0.26260 0.62090 0.23090 -0.02200
H 	H 	0.11920 0.47620 0.11860 0.14000
H 	H 	0.23540 0.58830 0.14810 0.12700
H 	H 	0.07500 0.34940 0.90260 -0.04200
H 	H 	0.15650 0.51440 0.00310 0.14600
H 	H 	0.08740 0.38410 0.97990 0.14300
H 	H 	0.52110 0.21520 0.44010 0.05500
H 	H 	0.58560 0.30430 0.39910 0.04600
H 	H 	0.65360 0.34690 0.47390 0.00800
H 	H 	0.59130 0.26090 0.51480 0.01400
H 	H 	0.35630 0.55580 0.36530 -0.02700
H 	H 	0.35240 0.27880 0.33660 -0.03300
H 	H 	0.23740 0.46830 0.35830 -0.02200
H 	H 	0.38080 0.49940 0.35700 0.14000
H 	H 	0.26460 0.41270 0.35290 0.12700
H 	H 	0.42500 0.32760 0.27440 -0.04100
H 	H 	0.34350 0.34660 0.35790 0.14500
H 	H 	0.41260 0.39250 0.29670 0.14300
C 	C 	0.69431 0.89853 0.95234 -0.03100
C 	C 	0.70871 0.83615 0.91402 -0.04000
C 	C 	0.85297 0.89383 0.09634 0.50600
C 	C 	0.90467 0.91396 0.10713 -0.27200
C 	C 	0.70863 0.86549 0.95480 -0.08300
C 	C 	0.27654 0.08948 0.22068 0.49700
C 	C 	0.69403 0.84085 0.87362 0.04000
C 	C 	0.72561 0.86238 0.00023 0.43100
C 	C 	0.68003 0.90141 0.91020 0.02800
C 	C 	0.22377 0.06850 0.20427 -0.26100
C 	C 	0.00090 0.95200 0.12790 0.27600
C 	C 	0.18960 0.02560 0.16300 0.20800
C 	C 	0.12590 0.02860 0.17630 0.23700
C 	C 	0.93640 0.96300 0.13420 0.21800
C 	C 	0.20830 0.09190 0.23300 0.18400
C 	C 	0.14110 0.00550 0.14820 -0.28500
C 	C 	0.15870 0.07160 0.21710 -0.27200
C 	C 	0.92220 0.88310 0.09130 0.21700
C 	C 	0.98320 0.98090 0.14150 -0.31000
C 	C 	0.96920 0.90440 0.10080 -0.31400
C 	C 	0.44619 0.74197 0.54766 -0.03100
C 	C 	0.42213 0.79469 0.58598 -0.04000
C 	C 	0.29749 0.75663 0.40366 0.50600
C 	C 	0.30683 0.79754 0.39287 -0.27100
C 	C 	0.41069 0.75383 0.54520 -0.08400
C 	C 	0.36880 0.05586 0.27932 0.49700
C 	C 	0.46723 0.82041 0.62638 0.04000
C 	C 	0.36215 0.72538 0.49977 0.43200
C 	C 	0.49121 0.76983 0.58980 0.02800
C 	C 	0.36423 0.01950 0.29573 -0.26100
C 	C 	0.32410 0.87300 0.37210 0.27500
C 	C 	0.36260 0.02660 0.33700 0.20900
C 	C 	0.35230 0.94960 0.32370 0.23700
C 	C 	0.32880 0.80220 0.36580 0.21700
C 	C 	0.35890 0.97530 0.26700 0.18400
C 	C 	0.35730 0.99290 0.35180 -0.28600
C 	C 	0.35450 0.94160 0.28290 -0.27200
C 	C 	0.29180 0.83090 0.40870 0.21600
C 	C 	0.33940 0.84170 0.35850 -0.30800
C 	C 	0.30360 0.86840 0.39920 -0.31300
C 	C 	0.05381 0.60147 0.29578 -0.03100
C 	C 	0.07787 0.66385 0.37256 -0.04000
C 	C 	0.20251 0.60617 0.45914 0.50600
C 	C 	0.19317 0.58604 0.49071 -0.27100
C 	C 	0.08931 0.63451 0.34314 -0.08400
C 	C 	0.13120 0.41052 0.68706 0.49700
C 	C 	0.03277 0.65915 0.35318 0.04000
C 	C 	0.13785 0.63762 0.36323 0.43200
C 	C 	0.00879 0.59859 0.27862 0.02800
C 	C 	0.13577 0.43150 0.65527 -0.26100
C 	C 	0.17590 0.54800 0.54890 0.27500
C 	C 	0.13740 0.47440 0.66400 0.20900
C 	C 	0.14770 0.47140 0.59730 0.23700
C 	C 	0.17120 0.53700 0.47340 0.21700
C 	C 	0.14110 0.40810 0.61640 0.18500
C 	C 	0.14270 0.49450 0.63560 -0.28500
C 	C 	0.14550 0.42840 0.58710 -0.27200
C 	C 	0.20820 0.61690 0.53910 0.21600
C 	C 	0.16060 0.51910 0.50230 -0.30800
C 	C 	0.19640 0.59560 0.56480 -0.31300
C 	C 	0.80569 0.75803 0.20422 -0.03100
C 	C 	0.79129 0.70531 0.12744 -0.04000
C 	C 	0.64703 0.74337 0.04086 0.50600
C 	C 	0.59533 0.70246 0.00929 -0.27100
C 	C 	0.79137 0.74617 0.15686 -0.08400
C 	C 	0.22346 0.44414 0.81294 0.49700
C 	C 	0.80597 0.67959 0.14682 0.04000
C 	C 	0.77439 0.77462 0.13677 0.43200
C 	C 	0.81997 0.73017 0.22138 0.02800
C 	C 	0.27623 0.48050 0.84473 -0.26100
C 	C 	0.49910 0.62700 0.95110 0.27500
C 	C 	0.31040 0.47340 0.83600 0.20800
C 	C 	0.37410 0.55040 0.90270 0.23700
C 	C 	0.56360 0.69780 0.02660 0.21700
C 	C 	0.29170 0.52470 0.88360 0.18400
C 	C 	0.35890 0.50710 0.86440 -0.28500
C 	C 	0.34130 0.55840 0.91290 -0.27200
C 	C 	0.57780 0.66910 0.96090 0.21600
C 	C 	0.51680 0.65830 0.99770 -0.30700
C 	C 	0.53080 0.63160 0.93520 -0.31300
C 	C 	0.79578 0.05381 0.10147 -0.03100
C 	C 	0.87256 0.07787 0.16385 -0.04000
C 	C 	0.95914 0.20251 0.10617 0.50600
C 	C 	0.99071 0.19317 0.08604 -0.27100
C 	C 	0.84314 0.08931 0.13451 -0.08400
C 	C 	0.18706 0.13120 0.91052 0.49700
C 	C 	0.85318 0.03277 0.15915 0.04000
C 	C 	0.86323 0.13785 0.13762 0.43200
C 	C 	0.77862 0.00879 0.09859 0.02800
C 	C 	0.15527 0.13577 0.93150 -0.26200
C 	C 	0.04890 0.17590 0.04800 0.27500
C 	C 	0.16400 0.13740 0.97440 0.20900
C 	C 	0.09730 0.14770 0.97140 0.23800
C 	C 	0.97340 0.17120 0.03700 0.21700
C 	C 	0.11640 0.14110 0.90810 0.18500
C 	C 	0.13560 0.14270 0.99450 -0.28600
C 	C 	0.08710 0.14550 0.92840 -0.27300
C 	C 	0.03910 0.20820 0.11690 0.21600
C 	C 	0.00230 0.16060 0.01910 -0.30800
C 	C 	0.06480 0.19640 0.09560 -0.31300
C 	C 	0.70422 0.80569 0.25803 -0.03100
C 	C 	0.62744 0.79129 0.20531 -0.04000
C 	C 	0.54086 0.64703 0.24337 0.50600
C 	C 	0.50929 0.59533 0.20246 -0.27100
C 	C 	0.65686 0.79137 0.24617 -0.08400
C 	C 	0.31294 0.22346 0.94414 0.49700
C 	C 	0.64682 0.80597 0.17959 0.04000
C 	C 	0.63677 0.77439 0.27462 0.43200
C 	C 	0.72138 0.81997 0.23017 0.02800
C 	C 	0.34473 0.27623 0.98050 -0.26100
C 	C 	0.45110 0.49910 0.12700 0.27500
C 	C 	0.33600 0.31040 0.97340 0.20800
C 	C 	0.40270 0.37410 0.05040 0.23700
C 	C 	0.52660 0.56360 0.19780 0.21700
C 	C 	0.38360 0.29170 0.02470 0.18500
C 	C 	0.36440 0.35890 0.00710 -0.28500
C 	C 	0.41290 0.34130 0.05840 -0.27200
C 	C 	0.46090 0.57780 0.16910 0.21600
C 	C 	0.49770 0.51680 0.15830 -0.30800
C 	C 	0.43520 0.53080 0.13160 -0.31300
C 	C 	0.45234 0.69431 0.39853 -0.03100
C 	C 	0.41402 0.70871 0.33615 -0.04000
C 	C 	0.59634 0.85297 0.39383 0.50600
C 	C 	0.60713 0.90467 0.41396 -0.27100
C 	C 	0.45480 0.70863 0.36549 -0.08400
C 	C 	0.72068 0.27654 0.58948 0.49700
C 	C 	0.37362 0.69403 0.34085 0.04000
C 	C 	0.50023 0.72561 0.36238 0.43200
C 	C 	0.41020 0.68003 0.40141 0.02800
C 	C 	0.70427 0.22377 0.56850 -0.26100
C 	C 	0.62790 0.00090 0.45200 0.27500
C 	C 	0.66300 0.18960 0.52560 0.20800
C 	C 	0.67630 0.12590 0.52860 0.23700
C 	C 	0.63420 0.93640 0.46300 0.21700
C 	C 	0.73300 0.20830 0.59190 0.18400
C 	C 	0.64820 0.14110 0.50550 -0.28500
C 	C 	0.71710 0.15870 0.57160 -0.27200
C 	C 	0.59130 0.92220 0.38310 0.21600
C 	C 	0.64150 0.98320 0.48090 -0.30800
C 	C 	0.60080 0.96920 0.40440 -0.31300
C 	C 	0.04766 0.44619 0.24197 -0.03100
C 	C 	0.08598 0.42213 0.29469 -0.04000
C 	C 	0.90366 0.29749 0.25663 0.50600
C 	C 	0.89287 0.30683 0.29754 -0.27100
C 	C 	0.04520 0.41069 0.25383 -0.08400
C 	C 	0.77932 0.36880 0.55586 0.49700
C 	C 	0.12638 0.46723 0.32041 0.04000
C 	C 	0.99977 0.36215 0.22538 0.43100
C 	C 	0.08980 0.49121 0.26983 0.02800
C 	C 	0.79573 0.36423 0.51950 -0.26100
C 	C 	0.87210 0.32410 0.37300 0.27500
C 	C 	0.83700 0.36260 0.52660 0.20900
C 	C 	0.82370 0.35230 0.44960 0.23700
C 	C 	0.86580 0.32880 0.30220 0.21700
C 	C 	0.76700 0.35890 0.47530 0.18500
C 	C 	0.85180 0.35730 0.49290 -0.28500
C 	C 	0.78290 0.35450 0.44160 -0.27200
C 	C 	0.90870 0.29180 0.33090 0.21600
C 	C 	0.85850 0.33940 0.34170 -0.30800
C 	C 	0.89920 0.30360 0.36840 -0.31300
C 	C 	0.74197 0.04766 0.94619 -0.03100
C 	C 	0.79469 0.08598 0.92213 -0.04000
C 	C 	0.75663 0.90366 0.79749 0.50600
C 	C 	0.79754 0.89287 0.80683 -0.27100
C 	C 	0.75383 0.04520 0.91069 -0.08400
C 	C 	0.05586 0.77932 0.86880 0.49700
C 	C 	0.82041 0.12638 0.96723 0.04000
C 	C 	0.72538 0.99977 0.86215 0.43200
C 	C 	0.76983 0.08980 0.99121 0.02800
C 	C 	0.01950 0.79573 0.86423 -0.26100
C 	C 	0.87300 0.87210 0.82410 0.27500
C 	C 	0.02660 0.83700 0.86260 0.20800
C 	C 	0.94960 0.82370 0.85230 0.23700
C 	C 	0.80220 0.86580 0.82880 0.21700
C 	C 	0.97530 0.76700 0.85890 0.18500
C 	C 	0.99290 0.85180 0.85730 -0.28500
C 	C 	0.94160 0.78290 0.85450 -0.27200
C 	C 	0.83090 0.90870 0.79180 0.21600
C 	C 	0.84170 0.85850 0.83940 -0.30800
C 	C 	0.86840 0.89920 0.80360 -0.31300
C 	C 	0.89853 0.45234 0.19431 -0.03100
C 	C 	0.83615 0.41402 0.20871 -0.04000
C 	C 	0.89383 0.59634 0.35297 0.50600
C 	C 	0.91396 0.60713 0.40467 -0.27100
C 	C 	0.86549 0.45480 0.20863 -0.08400
C 	C 	0.08948 0.72068 0.77654 0.49700
C 	C 	0.84085 0.37362 0.19403 0.04000
C 	C 	0.86238 0.50023 0.22561 0.43200
C 	C 	0.90141 0.41020 0.18003 0.02800
C 	C 	0.06850 0.70427 0.72377 -0.26100
C 	C 	0.95200 0.62790 0.50090 0.27500
C 	C 	0.02560 0.66300 0.68960 0.20900
C 	C 	0.02860 0.67630 0.62590 0.23800
C 	C 	0.96300 0.63420 0.43640 0.21700
C 	C 	0.09190 0.73300 0.70830 0.18500
C 	C 	0.00550 0.64820 0.64110 -0.28600
C 	C 	0.07160 0.71710 0.65870 -0.27300
C 	C 	0.88310 0.59130 0.42220 0.21600
C 	C 	0.98090 0.64150 0.48320 -0.30800
C 	C 	0.90440 0.60080 0.46920 -0.31300
C 	C 	0.75803 0.70422 0.30569 -0.03100
C 	C 	0.70531 0.62744 0.29129 -0.04000
C 	C 	0.74337 0.54086 0.14703 0.50600
C 	C 	0.70246 0.50929 0.09533 -0.27100
C 	C 	0.74617 0.65686 0.29137 -0.08400
C 	C 	0.44414 0.31294 0.72346 0.49700
C 	C 	0.67959 0.64682 0.30597 0.04000
C 	C 	0.77462 0.63677 0.27439 0.43200
C 	C 	0.73017 0.72138 0.31997 0.02800
C 	C 	0.48050 0.34473 0.77623 -0.26100
C 	C 	0.62700 0.45110 0.99910 0.27600
C 	C 	0.47340 0.33600 0.81040 0.20800
C 	C 	0.55040 0.40270 0.87410 0.23700
C 	C 	0.69780 0.52660 0.06360 0.21800
C 	C 	0.52470 0.38360 0.79170 0.18400
C 	C 	0.50710 0.36440 0.85890 -0.28500
C 	C 	0.55840 0.41290 0.84130 -0.27200
C 	C 	0.66910 0.46090 0.07780 0.21700
C 	C 	0.65830 0.49770 0.01680 -0.30900
C 	C 	0.63160 0.43520 0.03080 -0.31400
C 	C 	0.60147 0.79578 0.55381 -0.03100
C 	C 	0.66385 0.87256 0.57787 -0.04000
C 	C 	0.60617 0.95914 0.70251 0.50600
C 	C 	0.58604 0.99071 0.69317 -0.27100
C 	C 	0.63451 0.84314 0.58931 -0.08400
C 	C 	0.41052 0.18706 0.63120 0.49700
C 	C 	0.65915 0.85318 0.53277 0.04000
C 	C 	0.63762 0.86323 0.63785 0.43200
C 	C 	0.59859 0.77862 0.50879 0.02800
C 	C 	0.43150 0.15527 0.63577 -0.26100
C 	C 	0.54800 0.04890 0.67590 0.27500
C 	C 	0.47440 0.16400 0.63740 0.20900
C 	C 	0.47140 0.09730 0.64770 0.23700
C 	C 	0.53700 0.97340 0.67120 0.21700
C 	C 	0.40810 0.11640 0.64110 0.18400
C 	C 	0.49450 0.13560 0.64270 -0.28500
C 	C 	0.42840 0.08710 0.64550 -0.27200
C 	C 	0.61690 0.03910 0.70820 0.21600
C 	C 	0.51910 0.00230 0.66060 -0.30800
C 	C 	0.59560 0.06480 0.69640 -0.31300
C 	C 	0.24197 0.94619 0.04766 -0.03100
C 	C 	0.29469 0.92213 0.08598 -0.04000
C 	C 	0.25663 0.79749 0.90366 0.50600
C 	C 	0.29754 0.80683 0.89287 -0.27100
C 	C 	0.25383 0.91069 0.04520 -0.08400
C 	C 	0.55586 0.86880 0.77932 0.49700
C 	C 	0.32041 0.96723 0.12638 0.04000
C 	C 	0.22538 0.86215 0.99977 0.43200
C 	C 	0.26983 0.99121 0.08980 0.02700
C 	C 	0.51950 0.86423 0.79573 -0.26100
C 	C 	0.37300 0.82410 0.87210 0.27500
C 	C 	0.52660 0.86260 0.83700 0.20900
C 	C 	0.44960 0.85230 0.82370 0.23700
C 	C 	0.30220 0.82880 0.86580 0.21700
C 	C 	0.47530 0.85890 0.76700 0.18500
C 	C 	0.49290 0.85730 0.85180 -0.28500
C 	C 	0.44160 0.85450 0.78290 -0.27200
C 	C 	0.33090 0.79180 0.90870 0.21600
C 	C 	0.34170 0.83940 0.85850 -0.30800
C 	C 	0.36840 0.80360 0.89920 -0.31300
C 	C 	0.39853 0.19431 0.45234 -0.03100
C 	C 	0.33615 0.20871 0.41402 -0.04000
C 	C 	0.39383 0.35297 0.59634 0.50600
C 	C 	0.41396 0.40467 0.60713 -0.27100
C 	C 	0.36549 0.20863 0.45480 -0.08400
C 	C 	0.58948 0.77654 0.72068 0.49700
C 	C 	0.34085 0.19403 0.37362 0.04000
C 	C 	0.36238 0.22561 0.50023 0.43200
C 	C 	0.40141 0.18003 0.41020 0.02800
C 	C 	0.56850 0.72377 0.70427 -0.26100
C 	C 	0.45200 0.50090 0.62790 0.27500
C 	C 	0.52560 0.68960 0.66300 0.20800
C 	C 	0.52860 0.62590 0.67630 0.23700
C 	C 	0.46300 0.43640 0.63420 0.21700
C 	C 	0.59190 0.70830 0.73300 0.18400
C 	C 	0.50550 0.64110 0.64820 -0.28500
C 	C 	0.57160 0.65870 0.71710 -0.27200
C 	C 	0.38310 0.42220 0.59130 0.21600
C 	C 	0.48090 0.48320 0.64150 -0.30800
C 	C 	0.40440 0.46920 0.60080 -0.31300
C 	C 	0.25803 0.30569 0.70422 -0.03100
C 	C 	0.20531 0.29129 0.62744 -0.04000
C 	C 	0.24337 0.14703 0.54086 0.50500
C 	C 	0.20246 0.09533 0.50929 -0.27100
C 	C 	0.24617 0.29137 0.65686 -0.08400
C 	C 	0.94414 0.72346 0.31294 0.49700
C 	C 	0.17959 0.30597 0.64682 0.04000
C 	C 	0.27462 0.27439 0.63677 0.43200
C 	C 	0.23017 0.31997 0.72138 0.02800
C 	C 	0.98050 0.77623 0.34473 -0.26100
C 	C 	0.12700 0.99910 0.45110 0.27500
C 	C 	0.97340 0.81040 0.33600 0.20800
C 	C 	0.05040 0.87410 0.40270 0.23700
C 	C 	0.19780 0.06360 0.52660 0.21700
C 	C 	0.02470 0.79170 0.38360 0.18400
C 	C 	0.00710 0.85890 0.36440 -0.28500
C 	C 	0.05840 0.84130 0.41290 -0.27200
C 	C 	0.16910 0.07780 0.46090 0.21600
C 	C 	0.15830 0.01680 0.49770 -0.30700
C 	C 	0.13160 0.03080 0.43520 -0.31200
C 	C 	0.10147 0.55381 0.79578 -0.03100
C 	C 	0.16385 0.57787 0.87256 -0.04000
C 	C 	0.10617 0.70251 0.95914 0.50600
C 	C 	0.08604 0.69317 0.99071 -0.27100
C 	C 	0.13451 0.58931 0.84314 -0.08400
C 	C 	0.91052 0.63120 0.18706 0.49700
C 	C 	0.15915 0.53277 0.85318 0.04000
C 	C 	0.13762 0.63785 0.86323 0.43200
C 	C 	0.09859 0.50879 0.77862 0.02800
C 	C 	0.93150 0.63577 0.15527 -0.26100
C 	C 	0.04800 0.67590 0.04890 0.27600
C 	C 	0.97440 0.63740 0.16400 0.20900
C 	C 	0.97140 0.64770 0.09730 0.23800
C 	C 	0.03700 0.67120 0.97340 0.21700
C 	C 	0.90810 0.64110 0.11640 0.18500
C 	C 	0.99450 0.64270 0.13560 -0.28600
C 	C 	0.92840 0.64550 0.08710 -0.27300
C 	C 	0.11690 0.70820 0.03910 0.21700
C 	C 	0.01910 0.66060 0.00230 -0.30800
C 	C 	0.09560 0.69640 0.06480 -0.31300
C 	C 	0.19431 0.95234 0.89853 -0.03100
C 	C 	0.20871 0.91402 0.83615 -0.04000
C 	C 	0.35297 0.09634 0.89383 0.50600
C 	C 	0.40467 0.10713 0.91396 -0.27100
C 	C 	0.20863 0.95480 0.86549 -0.08400
C 	C 	0.77654 0.22068 0.08948 0.49700
C 	C 	0.19403 0.87362 0.84085 0.04000
C 	C 	0.22561 0.00023 0.86238 0.43200
C 	C 	0.18003 0.91020 0.90141 0.02800
C 	C 	0.72377 0.20427 0.06850 -0.26100
C 	C 	0.50090 0.12790 0.95200 0.27500
C 	C 	0.68960 0.16300 0.02560 0.20900
C 	C 	0.62590 0.17630 0.02860 0.23700
C 	C 	0.43640 0.13420 0.96300 0.21700
C 	C 	0.70830 0.23300 0.09190 0.18500
C 	C 	0.64110 0.14820 0.00550 -0.28600
C 	C 	0.65870 0.21710 0.07160 -0.27300
C 	C 	0.42220 0.09130 0.88310 0.21600
C 	C 	0.48320 0.14150 0.98090 -0.30800
C 	C 	0.46920 0.10080 0.90440 -0.31300
C 	C 	0.94619 0.54766 0.74197 -0.03100
C 	C 	0.92213 0.58598 0.79469 -0.04000
C 	C 	0.79749 0.40366 0.75663 0.50600
C 	C 	0.80683 0.39287 0.79754 -0.27100
C 	C 	0.91069 0.54520 0.75383 -0.08400
C 	C 	0.86880 0.27932 0.05586 0.49700
C 	C 	0.96723 0.62638 0.82041 0.04000
C 	C 	0.86215 0.49977 0.72538 0.43200
C 	C 	0.99121 0.58980 0.76983 0.02800
C 	C 	0.86423 0.29573 0.01950 -0.26100
C 	C 	0.82410 0.37210 0.87300 0.27500
C 	C 	0.86260 0.33700 0.02660 0.20800
C 	C 	0.85230 0.32370 0.94960 0.23700
C 	C 	0.82880 0.36580 0.80220 0.21700
C 	C 	0.85890 0.26700 0.97530 0.18500
C 	C 	0.85730 0.35180 0.99290 -0.28500
C 	C 	0.85450 0.28290 0.94160 -0.27200
C 	C 	0.79180 0.40870 0.83090 0.21600
C 	C 	0.83940 0.35850 0.84170 -0.30800
C 	C 	0.80360 0.39920 0.86840 -0.31300
C 	C 	0.55381 0.29578 0.60147 -0.03100
C 	C 	0.57787 0.37256 0.66385 -0.04000
C 	C 	0.70251 0.45914 0.60617 0.50600
C 	C 	0.69317 0.49071 0.58604 -0.27100
C 	C 	0.58931 0.34314 0.63451 -0.08400
C 	C 	0.63120 0.68706 0.41052 0.49700
C 	C 	0.53277 0.35318 0.65915 0.04000
C 	C 	0.63785 0.36323 0.63762 0.43200
C 	C 	0.50879 0.27862 0.59859 0.02800
C 	C 	0.63577 0.65527 0.43150 -0.26100
C 	C 	0.67590 0.54890 0.54800 0.27500
C 	C 	0.63740 0.66400 0.47440 0.20900
C 	C 	0.64770 0.59730 0.47140 0.23700
C 	C 	0.67120 0.47340 0.53700 0.21700
C 	C 	0.64110 0.61640 0.40810 0.18500
C 	C 	0.64270 0.63560 0.49450 -0.28500
C 	C 	0.64550 0.58710 0.42840 -0.27200
C 	C 	0.70820 0.53910 0.61690 0.21600
C 	C 	0.66060 0.50230 0.51910 -0.30800
C 	C 	0.69640 0.56480 0.59560 -0.31300
C 	C 	0.30569 0.20422 0.75803 -0.03100
C 	C 	0.29129 0.12744 0.70531 -0.04000
C 	C 	0.14703 0.04086 0.74337 0.50600
C 	C 	0.09533 0.00929 0.70246 -0.27100
C 	C 	0.29137 0.15686 0.74617 -0.08400
C 	C 	0.72346 0.81294 0.44414 0.49700
C 	C 	0.30597 0.14682 0.67959 0.04000
C 	C 	0.27439 0.13677 0.77462 0.43200
C 	C 	0.31997 0.22138 0.73017 0.02800
C 	C 	0.77623 0.84473 0.48050 -0.26100
C 	C 	0.99910 0.95110 0.62700 0.27600
C 	C 	0.81040 0.83600 0.47340 0.20800
C 	C 	0.87410 0.90270 0.55040 0.23700
C 	C 	0.06360 0.02660 0.69780 0.21800
C 	C 	0.79170 0.88360 0.52470 0.18400
C 	C 	0.85890 0.86440 0.50710 -0.28500
C 	C 	0.84130 0.91290 0.55840 -0.27200
C 	C 	0.07780 0.96090 0.66910 0.21700
C 	C 	0.01680 0.99770 0.65830 -0.30900
C 	C 	0.03080 0.93520 0.63160 -0.31300
C 	C 	0.29578 0.10147 0.05381 -0.03100
C 	C 	0.37256 0.16385 0.07787 -0.04000
C 	C 	0.45914 0.10617 0.20251 0.50500
C 	C 	0.49071 0.08604 0.19317 -0.27100
C 	C 	0.34314 0.13451 0.08931 -0.08400
C 	C 	0.68706 0.91052 0.13120 0.49700
C 	C 	0.35318 0.15915 0.03277 0.04000
C 	C 	0.36323 0.13762 0.13785 0.43200
C 	C 	0.27862 0.09859 0.00879 0.02800
C 	C 	0.65527 0.93150 0.13577 -0.26100
C 	C 	0.54890 0.04800 0.17590 0.27500
C 	C 	0.66400 0.97440 0.13740 0.20900
C 	C 	0.59730 0.97140 0.14770 0.23800
C 	C 	0.47340 0.03700 0.17120 0.21700
C 	C 	0.61640 0.90810 0.14110 0.18500
C 	C 	0.63560 0.99450 0.14270 -0.28600
C 	C 	0.58710 0.92840 0.14550 -0.27300
C 	C 	0.53910 0.11690 0.20820 0.21600
C 	C 	0.50230 0.01910 0.16060 -0.30800
C 	C 	0.56480 0.09560 0.19640 -0.31300
C 	C 	0.20422 0.25803 0.80569 -0.03100
C 	C 	0.12744 0.20531 0.79129 -0.04000
C 	C 	0.04086 0.24337 0.64703 0.50600
C 	C 	0.00929 0.20246 0.59533 -0.27100
C 	C 	0.15686 0.24617 0.79137 -0.08400
C 	C 	0.81294 0.94414 0.22346 0.49700
C 	C 	0.14682 0.17959 0.80597 0.04000
C 	C 	0.13677 0.27462 0.77439 0.43200
C 	C 	0.22138 0.23017 0.81997 0.02800
C 	C 	0.84473 0.98050 0.27623 -0.26100
C 	C 	0.95110 0.12700 0.49910 0.27500
C 	C 	0.83600 0.97340 0.31040 0.20800
C 	C 	0.90270 0.05040 0.37410 0.23700
C 	C 	0.02660 0.19780 0.56360 0.21700
C 	C 	0.88360 0.02470 0.29170 0.18400
C 	C 	0.86440 0.00710 0.35890 -0.28500
C 	C 	0.91290 0.05840 0.34130 -0.27200
C 	C 	0.96090 0.16910 0.57780 0.21600
C 	C 	0.99770 0.15830 0.51680 -0.30800
C 	C 	0.93520 0.13160 0.53080 -0.31300
C 	C 	0.95234 0.39853 0.69431 -0.03100
C 	C 	0.91402 0.33615 0.70871 -0.04000
C 	C 	0.09634 0.39383 0.85297 0.50600
C 	C 	0.10713 0.41396 0.90467 -0.27100
C 	C 	0.95480 0.36549 0.70863 -0.08400
C 	C 	0.22068 0.58948 0.27654 0.49700
C 	C 	0.87362 0.34085 0.69403 0.04000
C 	C 	0.00023 0.36238 0.72561 0.43100
C 	C 	0.91020 0.40141 0.68003 0.02800
C 	C 	0.20427 0.56850 0.22377 -0.26100
C 	C 	0.12790 0.45200 0.00090 0.27600
C 	C 	0.16300 0.52560 0.18960 0.20800
C 	C 	0.17630 0.52860 0.12590 0.23700
C 	C 	0.13420 0.46300 0.93640 0.21800
C 	C 	0.23300 0.59190 0.20830 0.18400
C 	C 	0.14820 0.50550 0.14110 -0.28500
C 	C 	0.21710 0.57160 0.15870 -0.27200
C 	C 	0.09130 0.38310 0.92220 0.21700
C 	C 	0.14150 0.48090 0.98320 -0.30900
C 	C 	0.10080 0.40440 0.96920 -0.31400
C 	C 	0.54766 0.24197 0.44619 -0.03100
C 	C 	0.58598 0.29469 0.42213 -0.04000
C 	C 	0.40366 0.25663 0.29749 0.50600
C 	C 	0.39287 0.29754 0.30683 -0.27100
C 	C 	0.54520 0.25383 0.41069 -0.08400
C 	C 	0.27932 0.55586 0.36880 0.49700
C 	C 	0.62638 0.32041 0.46723 0.04000
C 	C 	0.49977 0.22538 0.36215 0.43200
C 	C 	0.58980 0.26983 0.49121 0.02800
C 	C 	0.29573 0.51950 0.36423 -0.26100
C 	C 	0.37210 0.37300 0.32410 0.27500
C 	C 	0.33700 0.52660 0.36260 0.20900
C 	C 	0.32370 0.44960 0.35230 0.23700
C 	C 	0.36580 0.30220 0.32880 0.21700
C 	C 	0.26700 0.47530 0.35890 0.18500
C 	C 	0.35180 0.49290 0.35730 -0.28500
C 	C 	0.28290 0.44160 0.35450 -0.27200
C 	C 	0.40870 0.33090 0.29180 0.21600
C 	C 	0.35850 0.34170 0.33940 -0.30800
C 	C 	0.39920 0.36840 0.30360 -0.31300
N 	N 	0.68071 0.87336 0.87131 -0.27000
N 	N 	0.07670 0.01150 0.16860 -0.11100
N 	N 	0.04900 0.96780 0.13780 -0.12200
N 	N 	0.50205 0.80940 0.62869 -0.27000
N 	N 	0.34290 0.90810 0.33140 -0.11100
N 	N 	0.33000 0.91120 0.36220 -0.12200
N 	N 	0.99795 0.62664 0.30735 -0.27000
N 	N 	0.15710 0.48850 0.56520 -0.11100
N 	N 	0.17000 0.53220 0.58120 -0.12200
N 	N 	0.81929 0.69060 0.19265 -0.27000
N 	N 	0.42330 0.59190 0.93480 -0.11100
N 	N 	0.45100 0.58880 0.91880 -0.12200
N 	N 	0.80735 0.99795 0.12664 -0.27000
N 	N 	0.06520 0.15710 0.98850 -0.11200
N 	N 	0.08120 0.17000 0.03220 -0.12200
N 	N 	0.69265 0.81929 0.19060 -0.27000
N 	N 	0.43480 0.42330 0.09190 -0.11100
N 	N 	0.41880 0.45100 0.08880 -0.12200
N 	N 	0.37131 0.68071 0.37336 -0.27000
N 	N 	0.66860 0.07670 0.51150 -0.11100
N 	N 	0.63780 0.04900 0.46780 -0.12200
N 	N 	0.12869 0.50205 0.30940 -0.27000
N 	N 	0.83140 0.34290 0.40810 -0.11100
N 	N 	0.86220 0.33000 0.41120 -0.12200
N 	N 	0.80940 0.12869 0.00205 -0.27000
N 	N 	0.90810 0.83140 0.84290 -0.11100
N 	N 	0.91120 0.86220 0.83000 -0.12200
N 	N 	0.87336 0.37131 0.18071 -0.27000
N 	N 	0.01150 0.66860 0.57670 -0.11100
N 	N 	0.96780 0.63780 0.54900 -0.12200
N 	N 	0.69060 0.69265 0.31929 -0.27000
N 	N 	0.59190 0.43480 0.92330 -0.11100
N 	N 	0.58880 0.41880 0.95100 -0.12200
N 	N 	0.62664 0.80735 0.49795 -0.27000
N 	N 	0.48850 0.06520 0.65710 -0.11100
N 	N 	0.53220 0.08120 0.67000 -0.12200
N 	N 	0.30940 0.00205 0.12869 -0.26900
N 	N 	0.40810 0.84290 0.83140 -0.11100
N 	N 	0.41120 0.83000 0.86220 -0.12200
N 	N 	0.37336 0.18071 0.37131 -0.27000
N 	N 	0.51150 0.57670 0.66860 -0.11100
N 	N 	0.46780 0.54900 0.63780 -0.12200
N 	N 	0.19060 0.31929 0.69265 -0.27000
N 	N 	0.09190 0.92330 0.43480 -0.11100
N 	N 	0.08880 0.95100 0.41880 -0.12200
N 	N 	0.12664 0.49795 0.80735 -0.27000
N 	N 	0.98850 0.65710 0.06520 -0.11200
N 	N 	0.03220 0.67000 0.08120 -0.12200
N 	N 	0.18071 0.87131 0.87336 -0.27000
N 	N 	0.57670 0.16860 0.01150 -0.11100
N 	N 	0.54900 0.13780 0.96780 -0.12200
N 	N 	0.00205 0.62869 0.80940 -0.27000
N 	N 	0.84290 0.33140 0.90810 -0.11100
N 	N 	0.83000 0.36220 0.91120 -0.12200
N 	N 	0.49795 0.30735 0.62664 -0.27000
N 	N 	0.65710 0.56520 0.48850 -0.11100
N 	N 	0.67000 0.58120 0.53220 -0.12200
N 	N 	0.31929 0.19265 0.69060 -0.27000
N 	N 	0.92330 0.93480 0.59190 -0.11100
N 	N 	0.95100 0.91880 0.58880 -0.12200
N 	N 	0.30735 0.12664 0.99795 -0.27000
N 	N 	0.56520 0.98850 0.15710 -0.11100
N 	N 	0.58120 0.03220 0.17000 -0.12200
N 	N 	0.19265 0.19060 0.81929 -0.27000
N 	N 	0.93480 0.09190 0.42330 -0.11100
N 	N 	0.91880 0.08880 0.45100 -0.12200
N 	N 	0.87131 0.37336 0.68071 -0.27000
N 	N 	0.16860 0.51150 0.07670 -0.11100
N 	N 	0.13780 0.46780 0.04900 -0.12200
N 	N 	0.62869 0.30940 0.50205 -0.27000
N 	N 	0.33140 0.40810 0.34290 -0.11100
N 	N 	0.36220 0.41120 0.33000 -0.12200
O 	O 	0.72848 0.82532 0.99780 -0.57900
O 	O 	0.83994 0.92459 0.10901 -0.59200
O 	O 	0.73679 0.89883 0.03784 -0.55500
O 	O 	0.30598 0.12640 0.26198 -0.58300
O 	O 	0.82628 0.84807 0.07475 -0.60200
O 	O 	0.28744 0.06778 0.19084 -0.58100
O 	O 	0.32752 0.73068 0.50220 -0.58000
O 	O 	0.31558 0.73093 0.39099 -0.59200
O 	O 	0.36099 0.69895 0.46216 -0.55500
O 	O 	0.36442 0.04400 0.23802 -0.58300
O 	O 	0.27332 0.75153 0.42525 -0.60100
O 	O 	0.37694 0.09660 0.30916 -0.58100
O 	O 	0.17248 0.67468 0.40316 -0.58000
O 	O 	0.18442 0.57541 0.41535 -0.59200
O 	O 	0.13901 0.60117 0.33796 -0.55500
O 	O 	0.13558 0.37360 0.67958 -0.58300
O 	O 	0.22668 0.65193 0.47821 -0.60100
O 	O 	0.12306 0.43222 0.71966 -0.58100
O 	O 	0.77152 0.76932 0.09684 -0.58000
O 	O 	0.66006 0.76907 0.08465 -0.59200
O 	O 	0.76321 0.80105 0.16204 -0.55500
O 	O 	0.19402 0.45600 0.82042 -0.58300
O 	O 	0.67372 0.74847 0.02179 -0.60200
O 	O 	0.21256 0.40340 0.78034 -0.58100
O 	O 	0.90316 0.17248 0.17468 -0.58000
O 	O 	0.91535 0.18442 0.07541 -0.59200
O 	O 	0.83796 0.13901 0.10117 -0.55500
O 	O 	0.17958 0.13558 0.87360 -0.58300
O 	O 	0.97821 0.22668 0.15193 -0.60200
O 	O 	0.21966 0.12306 0.93222 -0.58100
O 	O 	0.59684 0.77152 0.26932 -0.58000
O 	O 	0.58465 0.66006 0.26907 -0.59200
O 	O 	0.66204 0.76321 0.30105 -0.55500
O 	O 	0.32042 0.19402 0.95600 -0.58300
O 	O 	0.52179 0.67372 0.24847 -0.60100
O 	O 	0.28034 0.21256 0.90340 -0.58100
O 	O 	0.49780 0.72848 0.32532 -0.58000
O 	O 	0.60901 0.83994 0.42459 -0.59200
O 	O 	0.53784 0.73679 0.39883 -0.55500
O 	O 	0.76198 0.30598 0.62640 -0.58300
O 	O 	0.57475 0.82628 0.34807 -0.60100
O 	O 	0.69084 0.28744 0.56778 -0.58100
O 	O 	0.00220 0.32752 0.23068 -0.58000
O 	O 	0.89099 0.31558 0.23093 -0.59200
O 	O 	0.96216 0.36099 0.19895 -0.55500
O 	O 	0.73802 0.36442 0.54400 -0.58300
O 	O 	0.92525 0.27332 0.25153 -0.60200
O 	O 	0.80916 0.37694 0.59660 -0.58100
O 	O 	0.73068 0.00220 0.82752 -0.58000
O 	O 	0.73093 0.89099 0.81558 -0.59200
O 	O 	0.69895 0.96216 0.86099 -0.55500
O 	O 	0.04400 0.73802 0.86442 -0.58300
O 	O 	0.75153 0.92525 0.77332 -0.60100
O 	O 	0.09660 0.80916 0.87694 -0.58100
O 	O 	0.82532 0.49780 0.22848 -0.58000
O 	O 	0.92459 0.60901 0.33994 -0.59200
O 	O 	0.89883 0.53784 0.23679 -0.55500
O 	O 	0.12640 0.76198 0.80598 -0.58300
O 	O 	0.84807 0.57475 0.32628 -0.60100
O 	O 	0.06778 0.69084 0.78744 -0.58100
O 	O 	0.76932 0.59684 0.27152 -0.58000
O 	O 	0.76907 0.58465 0.16006 -0.59200
O 	O 	0.80105 0.66204 0.26321 -0.55500
O 	O 	0.45600 0.32042 0.69402 -0.58300
O 	O 	0.74847 0.52179 0.17372 -0.60200
O 	O 	0.40340 0.28034 0.71256 -0.58100
O 	O 	0.67468 0.90316 0.67248 -0.58000
O 	O 	0.57541 0.91535 0.68442 -0.59200
O 	O 	0.60117 0.83796 0.63901 -0.55500
O 	O 	0.37360 0.17958 0.63558 -0.58300
O 	O 	0.65193 0.97821 0.72668 -0.60200
O 	O 	0.43222 0.21966 0.62306 -0.58100
O 	O 	0.23068 0.82752 0.00220 -0.58000
O 	O 	0.23093 0.81558 0.89099 -0.59200
O 	O 	0.19895 0.86099 0.96216 -0.55500
O 	O 	0.54400 0.86442 0.73802 -0.58300
O 	O 	0.25153 0.77332 0.92525 -0.60100
O 	O 	0.59660 0.87694 0.80916 -0.58100
O 	O 	0.32532 0.22848 0.49780 -0.58000
O 	O 	0.42459 0.33994 0.60901 -0.59200
O 	O 	0.39883 0.23679 0.53784 -0.55500
O 	O 	0.62640 0.80598 0.76198 -0.58300
O 	O 	0.34807 0.32628 0.57475 -0.60100
O 	O 	0.56778 0.78744 0.69084 -0.58100
O 	O 	0.26932 0.27152 0.59684 -0.58000
O 	O 	0.26907 0.16006 0.58465 -0.59200
O 	O 	0.30105 0.26321 0.66204 -0.55500
O 	O 	0.95600 0.69402 0.32042 -0.58300
O 	O 	0.24847 0.17372 0.52179 -0.60100
O 	O 	0.90340 0.71256 0.28034 -0.58100
O 	O 	0.17468 0.67248 0.90316 -0.58000
O 	O 	0.07541 0.68442 0.91535 -0.59200
O 	O 	0.10117 0.63901 0.83796 -0.55500
O 	O 	0.87360 0.63558 0.17958 -0.58300
O 	O 	0.15193 0.72668 0.97821 -0.60200
O 	O 	0.93222 0.62306 0.21966 -0.58100
O 	O 	0.22848 0.99780 0.82532 -0.58000
O 	O 	0.33994 0.10901 0.92459 -0.59200
O 	O 	0.23679 0.03784 0.89883 -0.55500
O 	O 	0.80598 0.26198 0.12640 -0.58300
O 	O 	0.32628 0.07475 0.84807 -0.60100
O 	O 	0.78744 0.19084 0.06778 -0.58100
O 	O 	0.82752 0.50220 0.73068 -0.58000
O 	O 	0.81558 0.39099 0.73093 -0.59200
O 	O 	0.86099 0.46216 0.69895 -0.55500
O 	O 	0.86442 0.23802 0.04400 -0.58300
O 	O 	0.77332 0.42525 0.75153 -0.60100
O 	O 	0.87694 0.30916 0.09660 -0.58100
O 	O 	0.67248 0.40316 0.67468 -0.58000
O 	O 	0.68442 0.41535 0.57541 -0.59200
O 	O 	0.63901 0.33796 0.60117 -0.55500
O 	O 	0.63558 0.67958 0.37360 -0.58300
O 	O 	0.72668 0.47821 0.65193 -0.60100
O 	O 	0.62306 0.71966 0.43222 -0.58100
O 	O 	0.27152 0.09684 0.76932 -0.58000
O 	O 	0.16006 0.08465 0.76907 -0.59200
O 	O 	0.26321 0.16204 0.80105 -0.55500
O 	O 	0.69402 0.82042 0.45600 -0.58300
O 	O 	0.17372 0.02179 0.74847 -0.60200
O 	O 	0.71256 0.78034 0.40340 -0.58100
O 	O 	0.40316 0.17468 0.17248 -0.58000
O 	O 	0.41535 0.07541 0.18442 -0.59200
O 	O 	0.33796 0.10117 0.13901 -0.55500
O 	O 	0.67958 0.87360 0.13558 -0.58300
O 	O 	0.47821 0.15193 0.22668 -0.60100
O 	O 	0.71966 0.93222 0.12306 -0.58100
O 	O 	0.09684 0.26932 0.77152 -0.58000
O 	O 	0.08465 0.26907 0.66006 -0.59200
O 	O 	0.16204 0.30105 0.76321 -0.55500
O 	O 	0.82042 0.95600 0.19402 -0.58300
O 	O 	0.02179 0.24847 0.67372 -0.60200
O 	O 	0.78034 0.90340 0.21256 -0.58100
O 	O 	0.99780 0.32532 0.72848 -0.58000
O 	O 	0.10901 0.42459 0.83994 -0.59200
O 	O 	0.03784 0.39883 0.73679 -0.55500
O 	O 	0.26198 0.62640 0.30598 -0.58300
O 	O 	0.07475 0.34807 0.82628 -0.60200
O 	O 	0.19084 0.56778 0.28744 -0.58100
O 	O 	0.50220 0.23068 0.32752 -0.58000
O 	O 	0.39099 0.23093 0.31558 -0.59200
O 	O 	0.46216 0.19895 0.36099 -0.55500
O 	O 	0.23802 0.54400 0.36442 -0.58300
O 	O 	0.42525 0.25153 0.27332 -0.60100
O 	O 	0.30916 0.59660 0.37694 -0.58100
O 	O 	0.75000 0.85274 0.10274 -1.04100
O 	O 	0.25000 0.64726 0.39726 -1.04100
O 	O 	0.89726 0.25000 0.14726 -1.04100
O 	O 	0.60274 0.75000 0.35274 -1.04100
O 	O 	0.64726 0.89726 0.75000 -1.04100
O 	O 	0.85274 0.60274 0.25000 -1.04100
O 	O 	0.14726 0.75000 0.89726 -1.04100
O 	O 	0.35274 0.25000 0.60274 -1.04100
O 	O 	0.25000 0.10274 0.85274 -1.04100
O 	O 	0.75000 0.39726 0.64726 -1.04100
O 	O 	0.39726 0.14726 0.25000 -1.04100
O 	O 	0.10274 0.35274 0.75000 -1.04100
