data_crystal

_cell_length_a 40.46300
_cell_length_b 40.46300
_cell_length_c 15.71000
_cell_angle_alpha 90.00000
_cell_angle_beta  90.00000
_cell_angle_gamma 120.00000

_symmetry_space_group_name_	'P 1'
_symmetry_space_group_name_H-M	'P 1'

loop_
_symmetry_equiv_pos_as_xyz
  x,y,z

loop_
_atom_site_label
_atom_site_type_symbol
_atom_site_fract_x
_atom_site_fract_y
_atom_site_fract_z
_atom_site_charge
Cu	Cu	0.51401 0.50417 0.42055 0.91400
Cu	Cu	0.18701 0.36831 0.35748 0.79400
I 	I 	0.21158 0.32165 0.39369 -0.44100
O 	O 	0.48697 0.44904 0.41543 -0.38800
O 	O 	0.46290 0.44209 0.55204 -0.39100
C 	C 	0.46774 0.42940 0.48010 0.32500
C 	C 	0.44925 0.38770 0.47088 -0.10400
C 	C 	0.45845 0.37188 0.40275 0.04500
H 	H 	0.47640 0.38800 0.36130 0.03300
C 	C 	0.44140 0.33248 0.39521 -0.12300
H 	H 	0.44770 0.32170 0.34860 0.07500
C 	C 	0.41514 0.30889 0.45581 0.08400
C 	C 	0.40594 0.32471 0.52395 -0.12400
H 	H 	0.38800 0.30860 0.56540 0.08100
C 	C 	0.42299 0.36411 0.53148 0.04600
H 	H 	0.41670 0.37490 0.57800 0.03500
C 	C 	0.39795 0.26803 0.44948 -0.04600
C 	C 	0.38191 0.24867 0.37402 0.02700
H 	H 	0.38260 0.26240 0.32450 0.03100
N 	N 	0.36488 0.20915 0.37107 -0.16900
C 	C 	0.36390 0.18899 0.44358 0.06100
H 	H 	0.35230 0.16200 0.44160 0.01000
N 	N 	0.37995 0.20836 0.51904 -0.21200
C 	C 	0.39697 0.24787 0.52200 0.01500
H 	H 	0.40790 0.26110 0.57360 0.01300
O 	O 	0.46780 0.50341 0.37646 -0.37500
O 	O 	0.44450 0.49687 0.51304 -0.37900
C 	C 	0.44233 0.49858 0.43040 0.31600
C 	C 	0.40571 0.49384 0.39341 -0.08800
C 	C 	0.40059 0.49664 0.30676 0.03800
H 	H 	0.42140 0.50430 0.26870 0.03800
C 	C 	0.36503 0.48820 0.27586 -0.11100
H 	H 	0.36150 0.49010 0.21660 0.07600
C 	C 	0.33457 0.47696 0.33161 0.07400
C 	C 	0.33969 0.47416 0.41826 -0.11100
H 	H 	0.31890 0.46650 0.45640 0.07000
C 	C 	0.37525 0.48260 0.44916 0.03300
H 	H 	0.37870 0.48070 0.50840 0.03600
C 	C 	0.29561 0.46411 0.29720 -0.04200
C 	C 	0.28783 0.48517 0.23891 0.02700
H 	H 	0.30810 0.50820 0.21620 0.03300
N 	N 	0.25043 0.47256 0.21391 -0.11200
C 	C 	0.22082 0.43891 0.24720 0.06500
H 	H 	0.19530 0.43030 0.23010 0.00400
N 	N 	0.22861 0.41785 0.30549 -0.22500
C 	C 	0.26600 0.43045 0.33049 0.01500
H 	H 	0.27130 0.41610 0.37030 0.01300
Cu	Cu	0.18068 0.83750 0.75388 0.91500
Cu	Cu	0.85368 0.70164 0.69081 0.79500
I 	I 	0.87825 0.65498 0.72702 -0.44000
O 	O 	0.15364 0.78237 0.74876 -0.38700
O 	O 	0.12957 0.77542 0.88537 -0.39000
C 	C 	0.13441 0.76273 0.81343 0.32600
C 	C 	0.11592 0.72103 0.80421 -0.10300
C 	C 	0.12512 0.70521 0.73608 0.04600
H 	H 	0.14307 0.72133 0.69463 0.03400
C 	C 	0.10807 0.66581 0.72854 -0.12200
H 	H 	0.11437 0.65503 0.68193 0.07600
C 	C 	0.08181 0.64222 0.78914 0.08500
C 	C 	0.07261 0.65804 0.85728 -0.12300
H 	H 	0.05467 0.64193 0.89873 0.08200
C 	C 	0.08966 0.69744 0.86481 0.04700
H 	H 	0.08337 0.70823 0.91133 0.03600
C 	C 	0.06462 0.60136 0.78281 -0.04600
C 	C 	0.04858 0.58200 0.70735 0.02700
H 	H 	0.04927 0.59573 0.65783 0.03100
N 	N 	0.03155 0.54248 0.70440 -0.16900
C 	C 	0.03057 0.52232 0.77691 0.06100
H 	H 	0.01897 0.49533 0.77493 0.01000
N 	N 	0.04662 0.54169 0.85237 -0.21200
C 	C 	0.06364 0.58120 0.85533 0.01500
H 	H 	0.07457 0.59443 0.90693 0.01300
O 	O 	0.13447 0.83674 0.70979 -0.37500
O 	O 	0.11117 0.83020 0.84637 -0.37900
C 	C 	0.10900 0.83191 0.76373 0.31600
C 	C 	0.07238 0.82717 0.72674 -0.08800
C 	C 	0.06726 0.82997 0.64009 0.03800
H 	H 	0.08807 0.83763 0.60203 0.03800
C 	C 	0.03170 0.82153 0.60919 -0.11200
H 	H 	0.02817 0.82343 0.54993 0.07600
C 	C 	0.00124 0.81029 0.66494 0.07400
C 	C 	0.00636 0.80749 0.75159 -0.11200
H 	H 	0.98557 0.79983 0.78973 0.07100
C 	C 	0.04192 0.81593 0.78249 0.03300
H 	H 	0.04537 0.81403 0.84173 0.03600
C 	C 	0.96228 0.79744 0.63053 -0.04200
C 	C 	0.95450 0.81850 0.57224 0.02700
H 	H 	0.97477 0.84153 0.54953 0.03300
N 	N 	0.91710 0.80589 0.54724 -0.11200
C 	C 	0.88749 0.77224 0.58053 0.06500
H 	H 	0.86197 0.76363 0.56343 0.00400
N 	N 	0.89528 0.75118 0.63882 -0.22500
C 	C 	0.93267 0.76378 0.66382 0.01500
H 	H 	0.93797 0.74943 0.70363 0.01300
Cu	Cu	0.84734 0.17084 0.08722 0.91500
Cu	Cu	0.52034 0.03498 0.02415 0.79500
I 	I 	0.54491 0.98832 0.06036 -0.43900
O 	O 	0.82030 0.11571 0.08210 -0.38700
O 	O 	0.79623 0.10876 0.21871 -0.39000
C 	C 	0.80107 0.09607 0.14677 0.32600
C 	C 	0.78258 0.05437 0.13755 -0.10300
C 	C 	0.79178 0.03855 0.06942 0.04500
H 	H 	0.80973 0.05467 0.02797 0.03400
C 	C 	0.77473 0.99915 0.06188 -0.12100
H 	H 	0.78103 0.98837 0.01527 0.07600
C 	C 	0.74847 0.97556 0.12248 0.08400
C 	C 	0.73927 0.99138 0.19062 -0.12300
H 	H 	0.72133 0.97527 0.23207 0.08100
C 	C 	0.75632 0.03078 0.19815 0.04600
H 	H 	0.75003 0.04157 0.24467 0.03600
C 	C 	0.73128 0.93470 0.11615 -0.04600
C 	C 	0.71524 0.91534 0.04069 0.02700
H 	H 	0.71593 0.92907 0.99117 0.03000
N 	N 	0.69821 0.87582 0.03774 -0.16900
C 	C 	0.69723 0.85566 0.11025 0.06100
H 	H 	0.68563 0.82867 0.10827 0.01000
N 	N 	0.71328 0.87503 0.18571 -0.21200
C 	C 	0.73030 0.91454 0.18867 0.01500
H 	H 	0.74123 0.92777 0.24027 0.01300
O 	O 	0.80113 0.17008 0.04313 -0.37600
O 	O 	0.77783 0.16354 0.17971 -0.37900
C 	C 	0.77566 0.16525 0.09707 0.31600
C 	C 	0.73904 0.16051 0.06008 -0.09000
C 	C 	0.73392 0.16331 0.97343 0.04000
H 	H 	0.75473 0.17097 0.93537 0.03800
C 	C 	0.69836 0.15487 0.94253 -0.11300
H 	H 	0.69483 0.15677 0.88327 0.07600
C 	C 	0.66790 0.14363 0.99828 0.07600
C 	C 	0.67302 0.14083 0.08493 -0.11300
H 	H 	0.65223 0.13317 0.12307 0.07100
C 	C 	0.70858 0.14927 0.11583 0.03400
H 	H 	0.71203 0.14737 0.17507 0.03500
C 	C 	0.62894 0.13078 0.96387 -0.04300
C 	C 	0.62116 0.15184 0.90558 0.02700
H 	H 	0.64143 0.17487 0.88287 0.03300
N 	N 	0.58376 0.13923 0.88058 -0.11300
C 	C 	0.55415 0.10558 0.91387 0.06500
H 	H 	0.52863 0.09697 0.89677 0.00400
N 	N 	0.56194 0.08452 0.97216 -0.22500
C 	C 	0.59933 0.09712 0.99716 0.01600
H 	H 	0.60463 0.08277 0.03697 0.01300
Cu	Cu	0.49583 0.00984 0.42055 0.91500
Cu	Cu	0.63169 0.81870 0.35748 0.79500
I 	I 	0.67835 0.88993 0.39369 -0.44000
O 	O 	0.55096 0.03793 0.41543 -0.38700
O 	O 	0.55791 0.02081 0.55204 -0.39000
C 	C 	0.57060 0.03834 0.48010 0.32600
C 	C 	0.61230 0.06155 0.47088 -0.10300
C 	C 	0.62812 0.08657 0.40275 0.04600
H 	H 	0.61200 0.08840 0.36130 0.03400
C 	C 	0.66752 0.10892 0.39521 -0.12200
H 	H 	0.67830 0.12600 0.34860 0.07600
C 	C 	0.69111 0.10625 0.45581 0.08500
C 	C 	0.67529 0.08123 0.52395 -0.12300
H 	H 	0.69140 0.07940 0.56540 0.08200
C 	C 	0.63589 0.05888 0.53148 0.04700
H 	H 	0.62510 0.04180 0.57800 0.03600
C 	C 	0.73197 0.12992 0.44948 -0.04600
C 	C 	0.75133 0.13324 0.37402 0.02700
H 	H 	0.73760 0.12020 0.32450 0.03100
N 	N 	0.79085 0.15573 0.37107 -0.16900
C 	C 	0.81101 0.17491 0.44358 0.06100
H 	H 	0.83800 0.19030 0.44160 0.01000
N 	N 	0.79164 0.17159 0.51904 -0.21200
C 	C 	0.75213 0.14910 0.52200 0.01500
H 	H 	0.73890 0.14680 0.57360 0.01300
O 	O 	0.49659 0.96439 0.37646 -0.37500
O 	O 	0.50313 0.94763 0.51304 -0.37900
C 	C 	0.50142 0.94375 0.43040 0.31600
C 	C 	0.50616 0.91187 0.39341 -0.08800
C 	C 	0.50336 0.90395 0.30676 0.03800
H 	H 	0.49570 0.91710 0.26870 0.03800
C 	C 	0.51180 0.87683 0.27586 -0.11100
H 	H 	0.50990 0.87140 0.21660 0.07600
C 	C 	0.52304 0.85761 0.33161 0.07400
C 	C 	0.52584 0.86553 0.41826 -0.11100
H 	H 	0.53350 0.85240 0.45640 0.07000
C 	C 	0.51740 0.89265 0.44916 0.03300
H 	H 	0.51930 0.89800 0.50840 0.03600
C 	C 	0.53589 0.83150 0.29720 -0.04200
C 	C 	0.51483 0.80266 0.23891 0.02700
H 	H 	0.49180 0.79990 0.21620 0.03300
N 	N 	0.52744 0.77787 0.21391 -0.11200
C 	C 	0.56109 0.78191 0.24720 0.06500
H 	H 	0.56970 0.76500 0.23010 0.00400
N 	N 	0.58215 0.81076 0.30549 -0.22500
C 	C 	0.56955 0.83555 0.33049 0.01500
H 	H 	0.58390 0.85520 0.37030 0.01300
Cu	Cu	0.16250 0.34317 0.75388 0.91500
Cu	Cu	0.29836 0.15203 0.69081 0.79500
I 	I 	0.34502 0.22326 0.72702 -0.44000
O 	O 	0.21763 0.37126 0.74876 -0.38700
O 	O 	0.22458 0.35414 0.88537 -0.39000
C 	C 	0.23727 0.37167 0.81343 0.32600
C 	C 	0.27897 0.39488 0.80421 -0.10300
C 	C 	0.29479 0.41990 0.73608 0.04600
H 	H 	0.27867 0.42173 0.69463 0.03400
C 	C 	0.33419 0.44225 0.72854 -0.12200
H 	H 	0.34497 0.45933 0.68193 0.07600
C 	C 	0.35778 0.43958 0.78914 0.08500
C 	C 	0.34196 0.41456 0.85728 -0.12300
H 	H 	0.35807 0.41273 0.89873 0.08200
C 	C 	0.30256 0.39221 0.86481 0.04700
H 	H 	0.29177 0.37513 0.91133 0.03600
C 	C 	0.39864 0.46325 0.78281 -0.04600
C 	C 	0.41800 0.46657 0.70735 0.02700
H 	H 	0.40427 0.45353 0.65783 0.03100
N 	N 	0.45752 0.48906 0.70440 -0.16900
C 	C 	0.47768 0.50824 0.77691 0.06100
H 	H 	0.50467 0.52363 0.77493 0.01000
N 	N 	0.45831 0.50492 0.85237 -0.21200
C 	C 	0.41880 0.48243 0.85533 0.01500
H 	H 	0.40557 0.48013 0.90693 0.01300
O 	O 	0.16326 0.29772 0.70979 -0.37500
O 	O 	0.16980 0.28096 0.84637 -0.37900
C 	C 	0.16809 0.27708 0.76373 0.31600
C 	C 	0.17283 0.24520 0.72674 -0.08800
C 	C 	0.17003 0.23728 0.64009 0.03800
H 	H 	0.16237 0.25043 0.60203 0.03800
C 	C 	0.17847 0.21016 0.60919 -0.11100
H 	H 	0.17657 0.20473 0.54993 0.07600
C 	C 	0.18971 0.19094 0.66494 0.07400
C 	C 	0.19251 0.19886 0.75159 -0.11100
H 	H 	0.20017 0.18573 0.78973 0.07000
C 	C 	0.18407 0.22598 0.78249 0.03300
H 	H 	0.18597 0.23133 0.84173 0.03600
C 	C 	0.20256 0.16483 0.63053 -0.04200
C 	C 	0.18150 0.13599 0.57224 0.02700
H 	H 	0.15847 0.13323 0.54953 0.03300
N 	N 	0.19411 0.11120 0.54724 -0.11200
C 	C 	0.22776 0.11524 0.58053 0.06500
H 	H 	0.23637 0.09833 0.56343 0.00400
N 	N 	0.24882 0.14409 0.63882 -0.22500
C 	C 	0.23622 0.16888 0.66382 0.01500
H 	H 	0.25057 0.18853 0.70363 0.01300
Cu	Cu	0.82916 0.67651 0.08722 0.91500
Cu	Cu	0.96502 0.48537 0.02415 0.79500
I 	I 	0.01168 0.55660 0.06036 -0.43900
O 	O 	0.88429 0.70460 0.08210 -0.38700
O 	O 	0.89124 0.68748 0.21871 -0.39000
C 	C 	0.90393 0.70501 0.14677 0.32600
C 	C 	0.94563 0.72822 0.13755 -0.10300
C 	C 	0.96145 0.75324 0.06942 0.04600
H 	H 	0.94533 0.75507 0.02797 0.03400
C 	C 	0.00085 0.77559 0.06188 -0.12100
H 	H 	0.01163 0.79267 0.01527 0.07600
C 	C 	0.02444 0.77292 0.12248 0.08400
C 	C 	0.00862 0.74790 0.19062 -0.12300
H 	H 	0.02473 0.74607 0.23207 0.08100
C 	C 	0.96922 0.72555 0.19815 0.04600
H 	H 	0.95843 0.70847 0.24467 0.03600
C 	C 	0.06530 0.79659 0.11615 -0.04700
C 	C 	0.08466 0.79991 0.04069 0.02800
H 	H 	0.07093 0.78687 0.99117 0.03000
N 	N 	0.12418 0.82240 0.03774 -0.16900
C 	C 	0.14434 0.84158 0.11025 0.06100
H 	H 	0.17133 0.85697 0.10827 0.01000
N 	N 	0.12497 0.83826 0.18571 -0.21200
C 	C 	0.08546 0.81577 0.18867 0.01500
H 	H 	0.07223 0.81347 0.24027 0.01300
O 	O 	0.82992 0.63106 0.04313 -0.37500
O 	O 	0.83646 0.61430 0.17971 -0.37900
C 	C 	0.83475 0.61042 0.09707 0.31600
C 	C 	0.83949 0.57854 0.06008 -0.08900
C 	C 	0.83669 0.57062 0.97343 0.03900
H 	H 	0.82903 0.58377 0.93537 0.03800
C 	C 	0.84513 0.54350 0.94253 -0.11200
H 	H 	0.84323 0.53807 0.88327 0.07600
C 	C 	0.85637 0.52428 0.99828 0.07500
C 	C 	0.85917 0.53220 0.08493 -0.11200
H 	H 	0.86683 0.51907 0.12307 0.07100
C 	C 	0.85073 0.55932 0.11583 0.03300
H 	H 	0.85263 0.56467 0.17507 0.03600
C 	C 	0.86922 0.49817 0.96387 -0.04200
C 	C 	0.84816 0.46933 0.90558 0.02700
H 	H 	0.82513 0.46657 0.88287 0.03300
N 	N 	0.86077 0.44454 0.88058 -0.11300
C 	C 	0.89442 0.44858 0.91387 0.06500
H 	H 	0.90303 0.43167 0.89677 0.00400
N 	N 	0.91548 0.47743 0.97216 -0.22500
C 	C 	0.90288 0.50222 0.99716 0.01600
H 	H 	0.91723 0.52187 0.03697 0.01300
Cu	Cu	0.99016 0.48599 0.42055 0.91500
Cu	Cu	0.18130 0.81299 0.35748 0.79500
I 	I 	0.11007 0.78842 0.39369 -0.44000
O 	O 	0.96207 0.51303 0.41543 -0.38700
O 	O 	0.97919 0.53710 0.55204 -0.39000
C 	C 	0.96166 0.53226 0.48010 0.32600
C 	C 	0.93845 0.55075 0.47088 -0.10300
C 	C 	0.91343 0.54155 0.40275 0.04600
H 	H 	0.91160 0.52360 0.36130 0.03400
C 	C 	0.89108 0.55860 0.39521 -0.12200
H 	H 	0.87400 0.55230 0.34860 0.07600
C 	C 	0.89375 0.58486 0.45581 0.08500
C 	C 	0.91877 0.59406 0.52395 -0.12300
H 	H 	0.92060 0.61200 0.56540 0.08200
C 	C 	0.94112 0.57701 0.53148 0.04700
H 	H 	0.95820 0.58330 0.57800 0.03600
C 	C 	0.87008 0.60205 0.44948 -0.04600
C 	C 	0.86676 0.61809 0.37402 0.02700
H 	H 	0.87980 0.61740 0.32450 0.03100
N 	N 	0.84427 0.63512 0.37107 -0.16900
C 	C 	0.82509 0.63610 0.44358 0.06100
H 	H 	0.80970 0.64770 0.44160 0.01000
N 	N 	0.82841 0.62005 0.51904 -0.21200
C 	C 	0.85090 0.60303 0.52200 0.01500
H 	H 	0.85320 0.59210 0.57360 0.01300
O 	O 	0.03561 0.53220 0.37646 -0.37500
O 	O 	0.05237 0.55550 0.51304 -0.37900
C 	C 	0.05625 0.55767 0.43040 0.31600
C 	C 	0.08813 0.59429 0.39341 -0.08800
C 	C 	0.09605 0.59941 0.30676 0.03800
H 	H 	0.08290 0.57860 0.26870 0.03800
C 	C 	0.12317 0.63497 0.27586 -0.11100
H 	H 	0.12860 0.63850 0.21660 0.07600
C 	C 	0.14239 0.66543 0.33161 0.07400
C 	C 	0.13447 0.66031 0.41826 -0.11100
H 	H 	0.14760 0.68110 0.45640 0.07000
C 	C 	0.10735 0.62475 0.44916 0.03300
H 	H 	0.10200 0.62130 0.50840 0.03600
C 	C 	0.16850 0.70439 0.29720 -0.04200
C 	C 	0.19734 0.71217 0.23891 0.02700
H 	H 	0.20010 0.69190 0.21620 0.03300
N 	N 	0.22213 0.74957 0.21391 -0.11200
C 	C 	0.21809 0.77918 0.24720 0.06500
H 	H 	0.23500 0.80470 0.23010 0.00400
N 	N 	0.18924 0.77139 0.30549 -0.22500
C 	C 	0.16445 0.73400 0.33049 0.01500
H 	H 	0.14480 0.72870 0.37030 0.01300
Cu	Cu	0.65683 0.81932 0.75388 0.91500
Cu	Cu	0.84797 0.14632 0.69081 0.79500
I 	I 	0.77674 0.12175 0.72702 -0.44000
O 	O 	0.62874 0.84636 0.74876 -0.38700
O 	O 	0.64586 0.87043 0.88537 -0.39000
C 	C 	0.62833 0.86559 0.81343 0.32600
C 	C 	0.60512 0.88408 0.80421 -0.10300
C 	C 	0.58010 0.87488 0.73608 0.04600
H 	H 	0.57827 0.85693 0.69463 0.03400
C 	C 	0.55775 0.89193 0.72854 -0.12200
H 	H 	0.54067 0.88563 0.68193 0.07600
C 	C 	0.56042 0.91819 0.78914 0.08500
C 	C 	0.58544 0.92739 0.85728 -0.12300
H 	H 	0.58727 0.94533 0.89873 0.08200
C 	C 	0.60779 0.91034 0.86481 0.04700
H 	H 	0.62487 0.91663 0.91133 0.03600
C 	C 	0.53675 0.93538 0.78281 -0.04600
C 	C 	0.53343 0.95142 0.70735 0.02700
H 	H 	0.54647 0.95073 0.65783 0.03100
N 	N 	0.51094 0.96845 0.70440 -0.16900
C 	C 	0.49176 0.96943 0.77691 0.06100
H 	H 	0.47637 0.98103 0.77493 0.01000
N 	N 	0.49508 0.95338 0.85237 -0.21200
C 	C 	0.51757 0.93636 0.85533 0.01500
H 	H 	0.51987 0.92543 0.90693 0.01300
O 	O 	0.70228 0.86553 0.70979 -0.37500
O 	O 	0.71904 0.88883 0.84637 -0.37900
C 	C 	0.72292 0.89100 0.76373 0.31600
C 	C 	0.75480 0.92762 0.72674 -0.08800
C 	C 	0.76272 0.93274 0.64009 0.03800
H 	H 	0.74957 0.91193 0.60203 0.03800
C 	C 	0.78984 0.96830 0.60919 -0.11100
H 	H 	0.79527 0.97183 0.54993 0.07600
C 	C 	0.80906 0.99876 0.66494 0.07400
C 	C 	0.80114 0.99364 0.75159 -0.11200
H 	H 	0.81427 0.01443 0.78973 0.07100
C 	C 	0.77402 0.95808 0.78249 0.03300
H 	H 	0.76867 0.95463 0.84173 0.03600
C 	C 	0.83517 0.03772 0.63053 -0.04200
C 	C 	0.86401 0.04550 0.57224 0.02700
H 	H 	0.86677 0.02523 0.54953 0.03300
N 	N 	0.88880 0.08290 0.54724 -0.11200
C 	C 	0.88476 0.11251 0.58053 0.06500
H 	H 	0.90167 0.13803 0.56343 0.00400
N 	N 	0.85591 0.10472 0.63882 -0.22500
C 	C 	0.83112 0.06733 0.66382 0.01500
H 	H 	0.81147 0.06203 0.70363 0.01300
Cu	Cu	0.32349 0.15266 0.08722 0.91500
Cu	Cu	0.51463 0.47966 0.02415 0.79500
I 	I 	0.44340 0.45509 0.06036 -0.44000
O 	O 	0.29540 0.17970 0.08210 -0.38700
O 	O 	0.31252 0.20377 0.21871 -0.39000
C 	C 	0.29499 0.19893 0.14677 0.32600
C 	C 	0.27178 0.21742 0.13755 -0.10300
C 	C 	0.24676 0.20822 0.06942 0.04600
H 	H 	0.24493 0.19027 0.02797 0.03400
C 	C 	0.22441 0.22527 0.06188 -0.12200
H 	H 	0.20733 0.21897 0.01527 0.07600
C 	C 	0.22708 0.25153 0.12248 0.08500
C 	C 	0.25210 0.26073 0.19062 -0.12300
H 	H 	0.25393 0.27867 0.23207 0.08200
C 	C 	0.27445 0.24368 0.19815 0.04700
H 	H 	0.29153 0.24997 0.24467 0.03600
C 	C 	0.20341 0.26872 0.11615 -0.04700
C 	C 	0.20009 0.28476 0.04069 0.02700
H 	H 	0.21313 0.28407 0.99117 0.03100
N 	N 	0.17760 0.30179 0.03774 -0.16900
C 	C 	0.15842 0.30277 0.11025 0.06100
H 	H 	0.14303 0.31437 0.10827 0.01000
N 	N 	0.16174 0.28672 0.18571 -0.21200
C 	C 	0.18423 0.26970 0.18867 0.01500
H 	H 	0.18653 0.25877 0.24027 0.01300
O 	O 	0.36894 0.19887 0.04313 -0.37500
O 	O 	0.38570 0.22217 0.17971 -0.37900
C 	C 	0.38958 0.22434 0.09707 0.31600
C 	C 	0.42146 0.26096 0.06008 -0.08900
C 	C 	0.42938 0.26608 0.97343 0.03900
H 	H 	0.41623 0.24527 0.93537 0.03800
C 	C 	0.45650 0.30164 0.94253 -0.11200
H 	H 	0.46193 0.30517 0.88327 0.07600
C 	C 	0.47572 0.33210 0.99828 0.07500
C 	C 	0.46780 0.32698 0.08493 -0.11200
H 	H 	0.48093 0.34777 0.12307 0.07100
C 	C 	0.44068 0.29142 0.11583 0.03300
H 	H 	0.43533 0.28797 0.17507 0.03600
C 	C 	0.50183 0.37106 0.96387 -0.04200
C 	C 	0.53067 0.37884 0.90558 0.02700
H 	H 	0.53343 0.35857 0.88287 0.03300
N 	N 	0.55546 0.41624 0.88058 -0.11200
C 	C 	0.55142 0.44585 0.91387 0.06500
H 	H 	0.56833 0.47137 0.89677 0.00400
N 	N 	0.52257 0.43806 0.97216 -0.22500
C 	C 	0.49778 0.40067 0.99716 0.01500
H 	H 	0.47813 0.39537 0.03697 0.01300
Cu	Cu	0.48599 0.49583 0.57945 0.91500
Cu	Cu	0.81299 0.63169 0.64252 0.79500
I 	I 	0.78842 0.67835 0.60631 -0.44000
O 	O 	0.51303 0.55096 0.58457 -0.38700
O 	O 	0.53710 0.55791 0.44796 -0.39000
C 	C 	0.53226 0.57060 0.51990 0.32600
C 	C 	0.55075 0.61230 0.52912 -0.10300
C 	C 	0.54155 0.62812 0.59725 0.04600
H 	H 	0.52360 0.61200 0.63870 0.03400
C 	C 	0.55860 0.66752 0.60479 -0.12200
H 	H 	0.55230 0.67830 0.65140 0.07600
C 	C 	0.58486 0.69111 0.54419 0.08500
C 	C 	0.59406 0.67529 0.47605 -0.12300
H 	H 	0.61200 0.69140 0.43460 0.08200
C 	C 	0.57701 0.63589 0.46852 0.04700
H 	H 	0.58330 0.62510 0.42200 0.03600
C 	C 	0.60205 0.73197 0.55052 -0.04600
C 	C 	0.61809 0.75133 0.62598 0.02700
H 	H 	0.61740 0.73760 0.67550 0.03100
N 	N 	0.63512 0.79085 0.62893 -0.16900
C 	C 	0.63610 0.81101 0.55642 0.06100
H 	H 	0.64770 0.83800 0.55840 0.01000
N 	N 	0.62005 0.79164 0.48096 -0.21200
C 	C 	0.60303 0.75213 0.47800 0.01500
H 	H 	0.59210 0.73890 0.42640 0.01300
O 	O 	0.53220 0.49659 0.62354 -0.37500
O 	O 	0.55550 0.50313 0.48696 -0.37900
C 	C 	0.55767 0.50142 0.56960 0.31600
C 	C 	0.59429 0.50616 0.60659 -0.08800
C 	C 	0.59941 0.50336 0.69324 0.03800
H 	H 	0.57860 0.49570 0.73130 0.03800
C 	C 	0.63497 0.51180 0.72414 -0.11100
H 	H 	0.63850 0.50990 0.78340 0.07600
C 	C 	0.66543 0.52304 0.66839 0.07400
C 	C 	0.66031 0.52584 0.58174 -0.11100
H 	H 	0.68110 0.53350 0.54360 0.07000
C 	C 	0.62475 0.51740 0.55084 0.03300
H 	H 	0.62130 0.51930 0.49160 0.03600
C 	C 	0.70439 0.53589 0.70280 -0.04200
C 	C 	0.71217 0.51483 0.76109 0.02700
H 	H 	0.69190 0.49180 0.78380 0.03300
N 	N 	0.74957 0.52744 0.78609 -0.11200
C 	C 	0.77918 0.56109 0.75280 0.06500
H 	H 	0.80470 0.56970 0.76990 0.00400
N 	N 	0.77139 0.58215 0.69451 -0.22500
C 	C 	0.73400 0.56955 0.66951 0.01500
H 	H 	0.72870 0.58390 0.62970 0.01300
Cu	Cu	0.15266 0.82916 0.91278 0.91500
Cu	Cu	0.47966 0.96502 0.97585 0.79500
I 	I 	0.45509 0.01168 0.93964 -0.43900
O 	O 	0.17970 0.88429 0.91790 -0.38700
O 	O 	0.20377 0.89124 0.78129 -0.39000
C 	C 	0.19893 0.90393 0.85323 0.32600
C 	C 	0.21742 0.94563 0.86245 -0.10300
C 	C 	0.20822 0.96145 0.93058 0.04500
H 	H 	0.19027 0.94533 0.97203 0.03400
C 	C 	0.22527 0.00085 0.93812 -0.12100
H 	H 	0.21897 0.01163 0.98473 0.07600
C 	C 	0.25153 0.02444 0.87752 0.08400
C 	C 	0.26073 0.00862 0.80938 -0.12300
H 	H 	0.27867 0.02473 0.76793 0.08100
C 	C 	0.24368 0.96922 0.80185 0.04600
H 	H 	0.24997 0.95843 0.75533 0.03600
C 	C 	0.26872 0.06530 0.88385 -0.04600
C 	C 	0.28476 0.08466 0.95931 0.02700
H 	H 	0.28407 0.07093 0.00883 0.03000
N 	N 	0.30179 0.12418 0.96226 -0.16900
C 	C 	0.30277 0.14434 0.88975 0.06100
H 	H 	0.31437 0.17133 0.89173 0.01000
N 	N 	0.28672 0.12497 0.81429 -0.21200
C 	C 	0.26970 0.08546 0.81133 0.01500
H 	H 	0.25877 0.07223 0.75973 0.01300
O 	O 	0.19887 0.82992 0.95687 -0.37600
O 	O 	0.22217 0.83646 0.82029 -0.37900
C 	C 	0.22434 0.83475 0.90293 0.31600
C 	C 	0.26096 0.83949 0.93992 -0.09000
C 	C 	0.26608 0.83669 0.02657 0.04000
H 	H 	0.24527 0.82903 0.06463 0.03800
C 	C 	0.30164 0.84513 0.05747 -0.11300
H 	H 	0.30517 0.84323 0.11673 0.07600
C 	C 	0.33210 0.85637 0.00172 0.07600
C 	C 	0.32698 0.85917 0.91507 -0.11300
H 	H 	0.34777 0.86683 0.87693 0.07100
C 	C 	0.29142 0.85073 0.88417 0.03400
H 	H 	0.28797 0.85263 0.82493 0.03500
C 	C 	0.37106 0.86922 0.03613 -0.04300
C 	C 	0.37884 0.84816 0.09442 0.02700
H 	H 	0.35857 0.82513 0.11713 0.03300
N 	N 	0.41624 0.86077 0.11942 -0.11300
C 	C 	0.44585 0.89442 0.08613 0.06500
H 	H 	0.47137 0.90303 0.10323 0.00400
N 	N 	0.43806 0.91548 0.02784 -0.22500
C 	C 	0.40067 0.90288 0.00284 0.01600
H 	H 	0.39537 0.91723 0.96303 0.01300
Cu	Cu	0.81932 0.16250 0.24612 0.91500
Cu	Cu	0.14632 0.29836 0.30919 0.79500
I 	I 	0.12175 0.34502 0.27298 -0.44000
O 	O 	0.84636 0.21763 0.25124 -0.38700
O 	O 	0.87043 0.22458 0.11463 -0.39000
C 	C 	0.86559 0.23727 0.18657 0.32600
C 	C 	0.88408 0.27897 0.19579 -0.10300
C 	C 	0.87488 0.29479 0.26392 0.04600
H 	H 	0.85693 0.27867 0.30537 0.03400
C 	C 	0.89193 0.33419 0.27146 -0.12200
H 	H 	0.88563 0.34497 0.31807 0.07600
C 	C 	0.91819 0.35778 0.21086 0.08500
C 	C 	0.92739 0.34196 0.14272 -0.12300
H 	H 	0.94533 0.35807 0.10127 0.08200
C 	C 	0.91034 0.30256 0.13519 0.04700
H 	H 	0.91663 0.29177 0.08867 0.03600
C 	C 	0.93538 0.39864 0.21719 -0.04600
C 	C 	0.95142 0.41800 0.29265 0.02700
H 	H 	0.95073 0.40427 0.34217 0.03100
N 	N 	0.96845 0.45752 0.29560 -0.16900
C 	C 	0.96943 0.47768 0.22309 0.06100
H 	H 	0.98103 0.50467 0.22507 0.01000
N 	N 	0.95338 0.45831 0.14763 -0.21200
C 	C 	0.93636 0.41880 0.14467 0.01500
H 	H 	0.92543 0.40557 0.09307 0.01300
O 	O 	0.86553 0.16326 0.29021 -0.37500
O 	O 	0.88883 0.16980 0.15363 -0.37900
C 	C 	0.89100 0.16809 0.23627 0.31600
C 	C 	0.92762 0.17283 0.27326 -0.08800
C 	C 	0.93274 0.17003 0.35991 0.03800
H 	H 	0.91193 0.16237 0.39797 0.03800
C 	C 	0.96830 0.17847 0.39081 -0.11200
H 	H 	0.97183 0.17657 0.45007 0.07600
C 	C 	0.99876 0.18971 0.33506 0.07400
C 	C 	0.99364 0.19251 0.24841 -0.11200
H 	H 	0.01443 0.20017 0.21027 0.07100
C 	C 	0.95808 0.18407 0.21751 0.03300
H 	H 	0.95463 0.18597 0.15827 0.03600
C 	C 	0.03772 0.20256 0.36947 -0.04200
C 	C 	0.04550 0.18150 0.42776 0.02700
H 	H 	0.02523 0.15847 0.45047 0.03300
N 	N 	0.08290 0.19411 0.45276 -0.11200
C 	C 	0.11251 0.22776 0.41947 0.06500
H 	H 	0.13803 0.23637 0.43657 0.00400
N 	N 	0.10472 0.24882 0.36118 -0.22500
C 	C 	0.06733 0.23622 0.33618 0.01500
H 	H 	0.06203 0.25057 0.29637 0.01300
Cu	Cu	0.50417 0.99016 0.57945 0.91500
Cu	Cu	0.36831 0.18130 0.64252 0.79500
I 	I 	0.32165 0.11007 0.60631 -0.44000
O 	O 	0.44904 0.96207 0.58457 -0.38700
O 	O 	0.44209 0.97919 0.44796 -0.39000
C 	C 	0.42940 0.96166 0.51990 0.32600
C 	C 	0.38770 0.93845 0.52912 -0.10300
C 	C 	0.37188 0.91343 0.59725 0.04600
H 	H 	0.38800 0.91160 0.63870 0.03400
C 	C 	0.33248 0.89108 0.60479 -0.12200
H 	H 	0.32170 0.87400 0.65140 0.07600
C 	C 	0.30889 0.89375 0.54419 0.08500
C 	C 	0.32471 0.91877 0.47605 -0.12300
H 	H 	0.30860 0.92060 0.43460 0.08200
C 	C 	0.36411 0.94112 0.46852 0.04700
H 	H 	0.37490 0.95820 0.42200 0.03600
C 	C 	0.26803 0.87008 0.55052 -0.04600
C 	C 	0.24867 0.86676 0.62598 0.02700
H 	H 	0.26240 0.87980 0.67550 0.03100
N 	N 	0.20915 0.84427 0.62893 -0.16900
C 	C 	0.18899 0.82509 0.55642 0.06100
H 	H 	0.16200 0.80970 0.55840 0.01000
N 	N 	0.20836 0.82841 0.48096 -0.21200
C 	C 	0.24787 0.85090 0.47800 0.01500
H 	H 	0.26110 0.85320 0.42640 0.01300
O 	O 	0.50341 0.03561 0.62354 -0.37500
O 	O 	0.49687 0.05237 0.48696 -0.37900
C 	C 	0.49858 0.05625 0.56960 0.31600
C 	C 	0.49384 0.08813 0.60659 -0.08800
C 	C 	0.49664 0.09605 0.69324 0.03800
H 	H 	0.50430 0.08290 0.73130 0.03800
C 	C 	0.48820 0.12317 0.72414 -0.11100
H 	H 	0.49010 0.12860 0.78340 0.07600
C 	C 	0.47696 0.14239 0.66839 0.07400
C 	C 	0.47416 0.13447 0.58174 -0.11100
H 	H 	0.46650 0.14760 0.54360 0.07000
C 	C 	0.48260 0.10735 0.55084 0.03300
H 	H 	0.48070 0.10200 0.49160 0.03600
C 	C 	0.46411 0.16850 0.70280 -0.04200
C 	C 	0.48517 0.19734 0.76109 0.02700
H 	H 	0.50820 0.20010 0.78380 0.03300
N 	N 	0.47256 0.22213 0.78609 -0.11200
C 	C 	0.43891 0.21809 0.75280 0.06500
H 	H 	0.43030 0.23500 0.76990 0.00400
N 	N 	0.41785 0.18924 0.69451 -0.22500
C 	C 	0.43045 0.16445 0.66951 0.01500
H 	H 	0.41610 0.14480 0.62970 0.01300
Cu	Cu	0.17084 0.32349 0.91278 0.91500
Cu	Cu	0.03498 0.51463 0.97585 0.79500
I 	I 	0.98832 0.44340 0.93964 -0.43900
O 	O 	0.11571 0.29540 0.91790 -0.38700
O 	O 	0.10876 0.31252 0.78129 -0.39000
C 	C 	0.09607 0.29499 0.85323 0.32600
C 	C 	0.05437 0.27178 0.86245 -0.10300
C 	C 	0.03855 0.24676 0.93058 0.04600
H 	H 	0.05467 0.24493 0.97203 0.03400
C 	C 	0.99915 0.22441 0.93812 -0.12100
H 	H 	0.98837 0.20733 0.98473 0.07600
C 	C 	0.97556 0.22708 0.87752 0.08400
C 	C 	0.99138 0.25210 0.80938 -0.12300
H 	H 	0.97527 0.25393 0.76793 0.08100
C 	C 	0.03078 0.27445 0.80185 0.04600
H 	H 	0.04157 0.29153 0.75533 0.03600
C 	C 	0.93470 0.20341 0.88385 -0.04700
C 	C 	0.91534 0.20009 0.95931 0.02800
H 	H 	0.92907 0.21313 0.00883 0.03000
N 	N 	0.87582 0.17760 0.96226 -0.16900
C 	C 	0.85566 0.15842 0.88975 0.06100
H 	H 	0.82867 0.14303 0.89173 0.01000
N 	N 	0.87503 0.16174 0.81429 -0.21200
C 	C 	0.91454 0.18423 0.81133 0.01500
H 	H 	0.92777 0.18653 0.75973 0.01300
O 	O 	0.17008 0.36894 0.95687 -0.37500
O 	O 	0.16354 0.38570 0.82029 -0.37900
C 	C 	0.16525 0.38958 0.90293 0.31600
C 	C 	0.16051 0.42146 0.93992 -0.08900
C 	C 	0.16331 0.42938 0.02657 0.03900
H 	H 	0.17097 0.41623 0.06463 0.03800
C 	C 	0.15487 0.45650 0.05747 -0.11200
H 	H 	0.15677 0.46193 0.11673 0.07600
C 	C 	0.14363 0.47572 0.00172 0.07500
C 	C 	0.14083 0.46780 0.91507 -0.11200
H 	H 	0.13317 0.48093 0.87693 0.07100
C 	C 	0.14927 0.44068 0.88417 0.03300
H 	H 	0.14737 0.43533 0.82493 0.03600
C 	C 	0.13078 0.50183 0.03613 -0.04200
C 	C 	0.15184 0.53067 0.09442 0.02700
H 	H 	0.17487 0.53343 0.11713 0.03300
N 	N 	0.13923 0.55546 0.11942 -0.11300
C 	C 	0.10558 0.55142 0.08613 0.06500
H 	H 	0.09697 0.56833 0.10323 0.00400
N 	N 	0.08452 0.52257 0.02784 -0.22500
C 	C 	0.09712 0.49778 0.00284 0.01600
H 	H 	0.08277 0.47813 0.96303 0.01300
Cu	Cu	0.83750 0.65683 0.24612 0.91500
Cu	Cu	0.70164 0.84797 0.30919 0.79500
I 	I 	0.65498 0.77674 0.27298 -0.44000
O 	O 	0.78237 0.62874 0.25124 -0.38700
O 	O 	0.77542 0.64586 0.11463 -0.39000
C 	C 	0.76273 0.62833 0.18657 0.32600
C 	C 	0.72103 0.60512 0.19579 -0.10300
C 	C 	0.70521 0.58010 0.26392 0.04600
H 	H 	0.72133 0.57827 0.30537 0.03400
C 	C 	0.66581 0.55775 0.27146 -0.12200
H 	H 	0.65503 0.54067 0.31807 0.07600
C 	C 	0.64222 0.56042 0.21086 0.08500
C 	C 	0.65804 0.58544 0.14272 -0.12300
H 	H 	0.64193 0.58727 0.10127 0.08200
C 	C 	0.69744 0.60779 0.13519 0.04700
H 	H 	0.70823 0.62487 0.08867 0.03600
C 	C 	0.60136 0.53675 0.21719 -0.04600
C 	C 	0.58200 0.53343 0.29265 0.02700
H 	H 	0.59573 0.54647 0.34217 0.03100
N 	N 	0.54248 0.51094 0.29560 -0.16900
C 	C 	0.52232 0.49176 0.22309 0.06100
H 	H 	0.49533 0.47637 0.22507 0.01000
N 	N 	0.54169 0.49508 0.14763 -0.21200
C 	C 	0.58120 0.51757 0.14467 0.01500
H 	H 	0.59443 0.51987 0.09307 0.01300
O 	O 	0.83674 0.70228 0.29021 -0.37500
O 	O 	0.83020 0.71904 0.15363 -0.37900
C 	C 	0.83191 0.72292 0.23627 0.31600
C 	C 	0.82717 0.75480 0.27326 -0.08800
C 	C 	0.82997 0.76272 0.35991 0.03800
H 	H 	0.83763 0.74957 0.39797 0.03800
C 	C 	0.82153 0.78984 0.39081 -0.11100
H 	H 	0.82343 0.79527 0.45007 0.07600
C 	C 	0.81029 0.80906 0.33506 0.07400
C 	C 	0.80749 0.80114 0.24841 -0.11100
H 	H 	0.79983 0.81427 0.21027 0.07000
C 	C 	0.81593 0.77402 0.21751 0.03300
H 	H 	0.81403 0.76867 0.15827 0.03600
C 	C 	0.79744 0.83517 0.36947 -0.04200
C 	C 	0.81850 0.86401 0.42776 0.02700
H 	H 	0.84153 0.86677 0.45047 0.03300
N 	N 	0.80589 0.88880 0.45276 -0.11200
C 	C 	0.77224 0.88476 0.41947 0.06500
H 	H 	0.76363 0.90167 0.43657 0.00400
N 	N 	0.75118 0.85591 0.36118 -0.22500
C 	C 	0.76378 0.83112 0.33618 0.01500
H 	H 	0.74943 0.81147 0.29637 0.01300
Cu	Cu	0.00984 0.51401 0.57945 0.91500
Cu	Cu	0.81870 0.18701 0.64252 0.79500
I 	I 	0.88993 0.21158 0.60631 -0.44000
O 	O 	0.03793 0.48697 0.58457 -0.38700
O 	O 	0.02081 0.46290 0.44796 -0.39000
C 	C 	0.03834 0.46774 0.51990 0.32600
C 	C 	0.06155 0.44925 0.52912 -0.10300
C 	C 	0.08657 0.45845 0.59725 0.04600
H 	H 	0.08840 0.47640 0.63870 0.03400
C 	C 	0.10892 0.44140 0.60479 -0.12200
H 	H 	0.12600 0.44770 0.65140 0.07600
C 	C 	0.10625 0.41514 0.54419 0.08500
C 	C 	0.08123 0.40594 0.47605 -0.12300
H 	H 	0.07940 0.38800 0.43460 0.08200
C 	C 	0.05888 0.42299 0.46852 0.04700
H 	H 	0.04180 0.41670 0.42200 0.03600
C 	C 	0.12992 0.39795 0.55052 -0.04600
C 	C 	0.13324 0.38191 0.62598 0.02700
H 	H 	0.12020 0.38260 0.67550 0.03100
N 	N 	0.15573 0.36488 0.62893 -0.16900
C 	C 	0.17491 0.36390 0.55642 0.06100
H 	H 	0.19030 0.35230 0.55840 0.01000
N 	N 	0.17159 0.37995 0.48096 -0.21200
C 	C 	0.14910 0.39697 0.47800 0.01500
H 	H 	0.14680 0.40790 0.42640 0.01300
O 	O 	0.96439 0.46780 0.62354 -0.37500
O 	O 	0.94763 0.44450 0.48696 -0.37900
C 	C 	0.94375 0.44233 0.56960 0.31600
C 	C 	0.91187 0.40571 0.60659 -0.08800
C 	C 	0.90395 0.40059 0.69324 0.03800
H 	H 	0.91710 0.42140 0.73130 0.03800
C 	C 	0.87683 0.36503 0.72414 -0.11100
H 	H 	0.87140 0.36150 0.78340 0.07600
C 	C 	0.85761 0.33457 0.66839 0.07400
C 	C 	0.86553 0.33969 0.58174 -0.11100
H 	H 	0.85240 0.31890 0.54360 0.07000
C 	C 	0.89265 0.37525 0.55084 0.03300
H 	H 	0.89800 0.37870 0.49160 0.03600
C 	C 	0.83150 0.29561 0.70280 -0.04200
C 	C 	0.80266 0.28783 0.76109 0.02700
H 	H 	0.79990 0.30810 0.78380 0.03300
N 	N 	0.77787 0.25043 0.78609 -0.11200
C 	C 	0.78191 0.22082 0.75280 0.06500
H 	H 	0.76500 0.19530 0.76990 0.00400
N 	N 	0.81076 0.22861 0.69451 -0.22500
C 	C 	0.83555 0.26600 0.66951 0.01500
H 	H 	0.85520 0.27130 0.62970 0.01300
Cu	Cu	0.67651 0.84734 0.91278 0.91500
Cu	Cu	0.48537 0.52034 0.97585 0.79500
I 	I 	0.55660 0.54491 0.93964 -0.44000
O 	O 	0.70460 0.82030 0.91790 -0.38700
O 	O 	0.68748 0.79623 0.78129 -0.39000
C 	C 	0.70501 0.80107 0.85323 0.32600
C 	C 	0.72822 0.78258 0.86245 -0.10300
C 	C 	0.75324 0.79178 0.93058 0.04600
H 	H 	0.75507 0.80973 0.97203 0.03400
C 	C 	0.77559 0.77473 0.93812 -0.12200
H 	H 	0.79267 0.78103 0.98473 0.07600
C 	C 	0.77292 0.74847 0.87752 0.08500
C 	C 	0.74790 0.73927 0.80938 -0.12300
H 	H 	0.74607 0.72133 0.76793 0.08200
C 	C 	0.72555 0.75632 0.80185 0.04700
H 	H 	0.70847 0.75003 0.75533 0.03600
C 	C 	0.79659 0.73128 0.88385 -0.04700
C 	C 	0.79991 0.71524 0.95931 0.02700
H 	H 	0.78687 0.71593 0.00883 0.03100
N 	N 	0.82240 0.69821 0.96226 -0.16900
C 	C 	0.84158 0.69723 0.88975 0.06100
H 	H 	0.85697 0.68563 0.89173 0.01000
N 	N 	0.83826 0.71328 0.81429 -0.21200
C 	C 	0.81577 0.73030 0.81133 0.01500
H 	H 	0.81347 0.74123 0.75973 0.01300
O 	O 	0.63106 0.80113 0.95687 -0.37500
O 	O 	0.61430 0.77783 0.82029 -0.37900
C 	C 	0.61042 0.77566 0.90293 0.31600
C 	C 	0.57854 0.73904 0.93992 -0.08900
C 	C 	0.57062 0.73392 0.02657 0.03900
H 	H 	0.58377 0.75473 0.06463 0.03800
C 	C 	0.54350 0.69836 0.05747 -0.11200
H 	H 	0.53807 0.69483 0.11673 0.07600
C 	C 	0.52428 0.66790 0.00172 0.07500
C 	C 	0.53220 0.67302 0.91507 -0.11200
H 	H 	0.51907 0.65223 0.87693 0.07100
C 	C 	0.55932 0.70858 0.88417 0.03300
H 	H 	0.56467 0.71203 0.82493 0.03600
C 	C 	0.49817 0.62894 0.03613 -0.04200
C 	C 	0.46933 0.62116 0.09442 0.02700
H 	H 	0.46657 0.64143 0.11713 0.03300
N 	N 	0.44454 0.58376 0.11942 -0.11200
C 	C 	0.44858 0.55415 0.08613 0.06500
H 	H 	0.43167 0.52863 0.10323 0.00400
N 	N 	0.47743 0.56194 0.02784 -0.22500
C 	C 	0.50222 0.59933 0.00284 0.01500
H 	H 	0.52187 0.60463 0.96303 0.01300
Cu	Cu	0.34317 0.18068 0.24612 0.91500
Cu	Cu	0.15203 0.85368 0.30919 0.79500
I 	I 	0.22326 0.87825 0.27298 -0.44000
O 	O 	0.37126 0.15364 0.25124 -0.38700
O 	O 	0.35414 0.12957 0.11463 -0.39000
C 	C 	0.37167 0.13441 0.18657 0.32600
C 	C 	0.39488 0.11592 0.19579 -0.10300
C 	C 	0.41990 0.12512 0.26392 0.04600
H 	H 	0.42173 0.14307 0.30537 0.03400
C 	C 	0.44225 0.10807 0.27146 -0.12200
H 	H 	0.45933 0.11437 0.31807 0.07600
C 	C 	0.43958 0.08181 0.21086 0.08500
C 	C 	0.41456 0.07261 0.14272 -0.12300
H 	H 	0.41273 0.05467 0.10127 0.08200
C 	C 	0.39221 0.08966 0.13519 0.04700
H 	H 	0.37513 0.08337 0.08867 0.03600
C 	C 	0.46325 0.06462 0.21719 -0.04600
C 	C 	0.46657 0.04858 0.29265 0.02700
H 	H 	0.45353 0.04927 0.34217 0.03100
N 	N 	0.48906 0.03155 0.29560 -0.16900
C 	C 	0.50824 0.03057 0.22309 0.06100
H 	H 	0.52363 0.01897 0.22507 0.01000
N 	N 	0.50492 0.04662 0.14763 -0.21200
C 	C 	0.48243 0.06364 0.14467 0.01500
H 	H 	0.48013 0.07457 0.09307 0.01300
O 	O 	0.29772 0.13447 0.29021 -0.37500
O 	O 	0.28096 0.11117 0.15363 -0.37900
C 	C 	0.27708 0.10900 0.23627 0.31600
C 	C 	0.24520 0.07238 0.27326 -0.08800
C 	C 	0.23728 0.06726 0.35991 0.03800
H 	H 	0.25043 0.08807 0.39797 0.03800
C 	C 	0.21016 0.03170 0.39081 -0.11100
H 	H 	0.20473 0.02817 0.45007 0.07600
C 	C 	0.19094 0.00124 0.33506 0.07400
C 	C 	0.19886 0.00636 0.24841 -0.11200
H 	H 	0.18573 0.98557 0.21027 0.07100
C 	C 	0.22598 0.04192 0.21751 0.03300
H 	H 	0.23133 0.04537 0.15827 0.03600
C 	C 	0.16483 0.96228 0.36947 -0.04200
C 	C 	0.13599 0.95450 0.42776 0.02700
H 	H 	0.13323 0.97477 0.45047 0.03300
N 	N 	0.11120 0.91710 0.45276 -0.11200
C 	C 	0.11524 0.88749 0.41947 0.06500
H 	H 	0.09833 0.86197 0.43657 0.00400
N 	N 	0.14409 0.89528 0.36118 -0.22500
C 	C 	0.16888 0.93267 0.33618 0.01500
H 	H 	0.18853 0.93797 0.29637 0.01300
