data_crystal

_cell_length_a 34.01800
_cell_length_b 34.01800
_cell_length_c 15.30800
_cell_angle_alpha 90.00000
_cell_angle_beta  90.00000
_cell_angle_gamma 90.00000

_symmetry_space_group_name_	'P 1'
_symmetry_space_group_name_H-M	'P 1'

loop_
_symmetry_equiv_pos_as_xyz
  x,y,z

loop_
_atom_site_label
_atom_site_type_symbol
_atom_site_fract_x
_atom_site_fract_y
_atom_site_fract_z
_atom_site_charge
Cu	Cu	0.23616 0.23849 0.67480 0.91900
Cu	Cu	0.99855 0.03431 0.96766 0.79600
I 	I 	0.06020 0.98976 0.93468 -0.43600
O 	O 	0.19884 0.20954 0.74950 -0.40800
O 	O 	0.22270 0.22863 0.87770 -0.40300
C 	C 	0.19841 0.21088 0.83090 0.37400
C 	C 	0.16544 0.18980 0.87670 -0.11800
C 	C 	0.13630 0.17189 0.82705 0.05300
H 	H 	0.13850 0.17120 0.76520 0.02700
C 	C 	0.10393 0.15503 0.86790 -0.12500
H 	H 	0.08400 0.14280 0.83390 0.07500
C 	C 	0.10068 0.15609 0.95830 0.08300
C 	C 	0.12982 0.17401 0.00801 -0.12200
H 	H 	0.12760 0.17470 0.06990 0.07800
C 	C 	0.16220 0.19086 0.96720 0.05300
H 	H 	0.18210 0.20310 0.00120 0.03200
C 	C 	0.06545 0.13946 0.00130 -0.04600
C 	C 	0.05095 0.10354 0.97230 0.01600
H 	H 	0.06440 0.08950 0.92770 0.01300
N 	N 	0.01681 0.08815 0.00870 -0.22400
C 	C 	0.99717 0.10867 0.07390 0.06300
H 	H 	0.97380 0.09810 0.09870 0.00000
N 	N 	0.01166 0.14458 0.10290 -0.11400
C 	C 	0.04580 0.15997 0.06660 0.02600
H 	H 	0.05570 0.18450 0.08640 0.03500
O 	O 	0.27421 0.19558 0.68580 -0.40600
O 	O 	0.29762 0.21597 0.81340 -0.40900
C 	C 	0.29775 0.19374 0.74800 0.37500
C 	C 	0.32840 0.16230 0.74510 -0.12100
C 	C 	0.33043 0.13685 0.67420 0.05800
H 	H 	0.31130 0.13830 0.62910 0.03100
C 	C 	0.36050 0.10927 0.66910 -0.12900
H 	H 	0.36190 0.09190 0.62070 0.08100
C 	C 	0.38853 0.10714 0.73500 0.08900
C 	C 	0.38650 0.13259 0.80590 -0.12800
H 	H 	0.40570 0.13110 0.85100 0.07800
C 	C 	0.35643 0.16016 0.81090 0.05700
H 	H 	0.35500 0.17760 0.85940 0.03000
C 	C 	0.42083 0.07844 0.73030 -0.04900
C 	C 	0.43953 0.07062 0.65143 0.02600
H 	H 	0.42990 0.08190 0.59890 0.01100
N 	N 	0.47233 0.04627 0.64948 -0.22300
C 	C 	0.48643 0.02974 0.72640 0.06100
H 	H 	0.50890 0.01310 0.72500 0.00600
N 	N 	0.46774 0.03756 0.80522 -0.17400
C 	C 	0.43494 0.06191 0.80718 0.02900
H 	H 	0.42220 0.06730 0.86110 0.03300
Cu	Cu	0.73616 0.73849 0.17480 0.92000
Cu	Cu	0.49855 0.53431 0.46766 0.79700
I 	I 	0.56020 0.48976 0.43468 -0.43500
O 	O 	0.69884 0.70954 0.24950 -0.40700
O 	O 	0.72270 0.72863 0.37770 -0.40200
C 	C 	0.69841 0.71088 0.33090 0.37500
C 	C 	0.66544 0.68980 0.37670 -0.11800
C 	C 	0.63630 0.67189 0.32705 0.05600
H 	H 	0.63850 0.67120 0.26520 0.02700
C 	C 	0.60393 0.65503 0.36790 -0.12600
H 	H 	0.58400 0.64280 0.33390 0.07700
C 	C 	0.60068 0.65609 0.45830 0.08600
C 	C 	0.62982 0.67401 0.50801 -0.12300
H 	H 	0.62760 0.67470 0.56990 0.08000
C 	C 	0.66220 0.69086 0.46720 0.05600
H 	H 	0.68210 0.70310 0.50120 0.03300
C 	C 	0.56545 0.63946 0.50130 -0.04600
C 	C 	0.55095 0.60354 0.47230 0.01900
H 	H 	0.56440 0.58950 0.42770 0.01400
N 	N 	0.51681 0.58815 0.50870 -0.22400
C 	C 	0.49717 0.60867 0.57390 0.06400
H 	H 	0.47380 0.59810 0.59870 0.00000
N 	N 	0.51166 0.64458 0.60290 -0.11400
C 	C 	0.54580 0.65997 0.56660 0.02800
H 	H 	0.55570 0.68450 0.58640 0.03500
O 	O 	0.77421 0.69558 0.18580 -0.40500
O 	O 	0.79762 0.71597 0.31340 -0.40800
C 	C 	0.79775 0.69374 0.24800 0.37600
C 	C 	0.82840 0.66230 0.24510 -0.12100
C 	C 	0.83043 0.63685 0.17420 0.05800
H 	H 	0.81130 0.63830 0.12910 0.03100
C 	C 	0.86050 0.60927 0.16910 -0.12900
H 	H 	0.86190 0.59190 0.12070 0.08100
C 	C 	0.88853 0.60714 0.23500 0.08900
C 	C 	0.88650 0.63259 0.30590 -0.12800
H 	H 	0.90570 0.63110 0.35100 0.07800
C 	C 	0.85643 0.66016 0.31090 0.05700
H 	H 	0.85500 0.67760 0.35940 0.03000
C 	C 	0.92083 0.57844 0.23030 -0.04900
C 	C 	0.93953 0.57062 0.15143 0.02600
H 	H 	0.92990 0.58190 0.09890 0.01100
N 	N 	0.97233 0.54627 0.14948 -0.22300
C 	C 	0.98643 0.52974 0.22640 0.06100
H 	H 	0.00890 0.51310 0.22500 0.00600
N 	N 	0.96774 0.53756 0.30522 -0.17400
C 	C 	0.93494 0.56191 0.30718 0.02900
H 	H 	0.92220 0.56730 0.36110 0.03300
Cu	Cu	0.26384 0.76151 0.17480 0.92000
Cu	Cu	0.50145 0.96569 0.46766 0.79700
I 	I 	0.43980 0.01024 0.43468 -0.43500
O 	O 	0.30116 0.79046 0.24950 -0.40700
O 	O 	0.27730 0.77137 0.37770 -0.40200
C 	C 	0.30159 0.78912 0.33090 0.37500
C 	C 	0.33456 0.81020 0.37670 -0.11800
C 	C 	0.36370 0.82811 0.32705 0.05600
H 	H 	0.36150 0.82880 0.26520 0.02700
C 	C 	0.39607 0.84497 0.36790 -0.12600
H 	H 	0.41600 0.85720 0.33390 0.07700
C 	C 	0.39932 0.84391 0.45830 0.08600
C 	C 	0.37018 0.82599 0.50801 -0.12300
H 	H 	0.37240 0.82530 0.56990 0.08000
C 	C 	0.33780 0.80914 0.46720 0.05600
H 	H 	0.31790 0.79690 0.50120 0.03200
C 	C 	0.43455 0.86054 0.50130 -0.04600
C 	C 	0.44905 0.89646 0.47230 0.01900
H 	H 	0.43560 0.91050 0.42770 0.01400
N 	N 	0.48319 0.91185 0.50870 -0.22400
C 	C 	0.50283 0.89133 0.57390 0.06400
H 	H 	0.52620 0.90190 0.59870 0.00000
N 	N 	0.48834 0.85542 0.60290 -0.11400
C 	C 	0.45420 0.84003 0.56660 0.02800
H 	H 	0.44430 0.81550 0.58640 0.03500
O 	O 	0.22579 0.80442 0.18580 -0.40500
O 	O 	0.20238 0.78403 0.31340 -0.40800
C 	C 	0.20225 0.80626 0.24800 0.37600
C 	C 	0.17160 0.83770 0.24510 -0.12100
C 	C 	0.16957 0.86315 0.17420 0.05800
H 	H 	0.18870 0.86170 0.12910 0.03100
C 	C 	0.13950 0.89073 0.16910 -0.12900
H 	H 	0.13810 0.90810 0.12070 0.08100
C 	C 	0.11147 0.89286 0.23500 0.08900
C 	C 	0.11350 0.86741 0.30590 -0.12800
H 	H 	0.09430 0.86890 0.35100 0.07800
C 	C 	0.14357 0.83984 0.31090 0.05700
H 	H 	0.14500 0.82240 0.35940 0.03000
C 	C 	0.07917 0.92156 0.23030 -0.04900
C 	C 	0.06047 0.92938 0.15143 0.02600
H 	H 	0.07010 0.91810 0.09890 0.01100
N 	N 	0.02767 0.95373 0.14948 -0.22300
C 	C 	0.01357 0.97026 0.22640 0.06100
H 	H 	0.99110 0.98690 0.22500 0.00600
N 	N 	0.03226 0.96244 0.30522 -0.17400
C 	C 	0.06506 0.93809 0.30718 0.02900
H 	H 	0.07780 0.93270 0.36110 0.03300
Cu	Cu	0.76384 0.26151 0.67480 0.92000
Cu	Cu	0.00145 0.46569 0.96766 0.79700
I 	I 	0.93980 0.51024 0.93468 -0.43500
O 	O 	0.80116 0.29046 0.74950 -0.40700
O 	O 	0.77730 0.27137 0.87770 -0.40200
C 	C 	0.80159 0.28912 0.83090 0.37500
C 	C 	0.83456 0.31020 0.87670 -0.11700
C 	C 	0.86370 0.32811 0.82705 0.05500
H 	H 	0.86150 0.32880 0.76520 0.02700
C 	C 	0.89607 0.34497 0.86790 -0.12500
H 	H 	0.91600 0.35720 0.83390 0.07600
C 	C 	0.89932 0.34391 0.95830 0.08500
C 	C 	0.87018 0.32599 0.00801 -0.12200
H 	H 	0.87240 0.32530 0.06990 0.07900
C 	C 	0.83780 0.30914 0.96720 0.05500
H 	H 	0.81790 0.29690 0.00120 0.03300
C 	C 	0.93455 0.36054 0.00130 -0.04600
C 	C 	0.94905 0.39646 0.97230 0.01800
H 	H 	0.93560 0.41050 0.92770 0.01400
N 	N 	0.98319 0.41185 0.00870 -0.22400
C 	C 	0.00283 0.39133 0.07390 0.06400
H 	H 	0.02620 0.40190 0.09870 0.00000
N 	N 	0.98834 0.35542 0.10290 -0.11300
C 	C 	0.95420 0.34003 0.06660 0.02800
H 	H 	0.94430 0.31550 0.08640 0.03600
O 	O 	0.72579 0.30442 0.68580 -0.40500
O 	O 	0.70238 0.28403 0.81340 -0.40800
C 	C 	0.70225 0.30626 0.74800 0.37600
C 	C 	0.67160 0.33770 0.74510 -0.12100
C 	C 	0.66957 0.36315 0.67420 0.05800
H 	H 	0.68870 0.36170 0.62910 0.03100
C 	C 	0.63950 0.39073 0.66910 -0.12900
H 	H 	0.63810 0.40810 0.62070 0.08100
C 	C 	0.61147 0.39286 0.73500 0.08900
C 	C 	0.61350 0.36741 0.80590 -0.12800
H 	H 	0.59430 0.36890 0.85100 0.07800
C 	C 	0.64357 0.33984 0.81090 0.05700
H 	H 	0.64500 0.32240 0.85940 0.03000
C 	C 	0.57917 0.42156 0.73030 -0.04900
C 	C 	0.56047 0.42938 0.65143 0.02600
H 	H 	0.57010 0.41810 0.59890 0.01100
N 	N 	0.52767 0.45373 0.64948 -0.22300
C 	C 	0.51357 0.47026 0.72640 0.06100
H 	H 	0.49110 0.48690 0.72500 0.00600
N 	N 	0.53226 0.46244 0.80522 -0.17400
C 	C 	0.56506 0.43809 0.80718 0.02900
H 	H 	0.57780 0.43270 0.86110 0.03300
Cu	Cu	0.51151 0.48616 0.92480 0.92000
Cu	Cu	0.71569 0.24855 0.21766 0.79700
I 	I 	0.76024 0.31020 0.18468 -0.43500
O 	O 	0.54046 0.44884 0.99950 -0.40700
O 	O 	0.52137 0.47270 0.12770 -0.40200
C 	C 	0.53912 0.44841 0.08090 0.37500
C 	C 	0.56020 0.41544 0.12670 -0.11800
C 	C 	0.57811 0.38630 0.07705 0.05600
H 	H 	0.57880 0.38850 0.01520 0.02700
C 	C 	0.59497 0.35393 0.11790 -0.12600
H 	H 	0.60720 0.33400 0.08390 0.07700
C 	C 	0.59391 0.35068 0.20830 0.08600
C 	C 	0.57599 0.37982 0.25801 -0.12300
H 	H 	0.57530 0.37760 0.31990 0.08000
C 	C 	0.55914 0.41220 0.21720 0.05600
H 	H 	0.54690 0.43210 0.25120 0.03200
C 	C 	0.61054 0.31545 0.25130 -0.04600
C 	C 	0.64646 0.30095 0.22230 0.01900
H 	H 	0.66050 0.31440 0.17770 0.01400
N 	N 	0.66185 0.26681 0.25870 -0.22400
C 	C 	0.64133 0.24717 0.32390 0.06400
H 	H 	0.65190 0.22380 0.34870 0.00000
N 	N 	0.60542 0.26166 0.35290 -0.11400
C 	C 	0.59003 0.29580 0.31660 0.02800
H 	H 	0.56550 0.30570 0.33640 0.03500
O 	O 	0.55442 0.52421 0.93580 -0.40500
O 	O 	0.53403 0.54762 0.06340 -0.40800
C 	C 	0.55626 0.54775 0.99800 0.37600
C 	C 	0.58770 0.57840 0.99510 -0.12100
C 	C 	0.61315 0.58043 0.92420 0.05800
H 	H 	0.61170 0.56130 0.87910 0.03100
C 	C 	0.64073 0.61050 0.91910 -0.12900
H 	H 	0.65810 0.61190 0.87070 0.08100
C 	C 	0.64286 0.63853 0.98500 0.08900
C 	C 	0.61741 0.63650 0.05590 -0.12800
H 	H 	0.61890 0.65570 0.10100 0.07800
C 	C 	0.58984 0.60643 0.06090 0.05700
H 	H 	0.57240 0.60500 0.10940 0.03000
C 	C 	0.67156 0.67083 0.98030 -0.04900
C 	C 	0.67938 0.68953 0.90143 0.02600
H 	H 	0.66810 0.67990 0.84890 0.01100
N 	N 	0.70373 0.72233 0.89948 -0.22300
C 	C 	0.72026 0.73643 0.97640 0.06100
H 	H 	0.73690 0.75890 0.97500 0.00600
N 	N 	0.71244 0.71774 0.05522 -0.17400
C 	C 	0.68809 0.68494 0.05718 0.02900
H 	H 	0.68270 0.67220 0.11110 0.03300
Cu	Cu	0.01151 0.98616 0.42480 0.92000
Cu	Cu	0.21569 0.74855 0.71766 0.79700
I 	I 	0.26024 0.81020 0.68468 -0.43500
O 	O 	0.04046 0.94884 0.49950 -0.40700
O 	O 	0.02137 0.97270 0.62770 -0.40200
C 	C 	0.03912 0.94841 0.58090 0.37500
C 	C 	0.06020 0.91544 0.62670 -0.11800
C 	C 	0.07811 0.88630 0.57705 0.05600
H 	H 	0.07880 0.88850 0.51520 0.02700
C 	C 	0.09497 0.85393 0.61790 -0.12600
H 	H 	0.10720 0.83400 0.58390 0.07700
C 	C 	0.09391 0.85068 0.70830 0.08600
C 	C 	0.07599 0.87982 0.75801 -0.12300
H 	H 	0.07530 0.87760 0.81990 0.08000
C 	C 	0.05914 0.91220 0.71720 0.05600
H 	H 	0.04690 0.93210 0.75120 0.03300
C 	C 	0.11054 0.81545 0.75130 -0.04600
C 	C 	0.14646 0.80095 0.72230 0.01900
H 	H 	0.16050 0.81440 0.67770 0.01400
N 	N 	0.16185 0.76681 0.75870 -0.22400
C 	C 	0.14133 0.74717 0.82390 0.06400
H 	H 	0.15190 0.72380 0.84870 0.00000
N 	N 	0.10542 0.76166 0.85290 -0.11300
C 	C 	0.09003 0.79580 0.81660 0.02800
H 	H 	0.06550 0.80570 0.83640 0.03500
O 	O 	0.05442 0.02421 0.43580 -0.40400
O 	O 	0.03403 0.04762 0.56340 -0.40700
C 	C 	0.05626 0.04775 0.49800 0.37600
C 	C 	0.08770 0.07840 0.49510 -0.12100
C 	C 	0.11315 0.08043 0.42420 0.05800
H 	H 	0.11170 0.06130 0.37910 0.03200
C 	C 	0.14073 0.11050 0.41910 -0.12900
H 	H 	0.15810 0.11190 0.37070 0.08100
C 	C 	0.14286 0.13853 0.48500 0.08900
C 	C 	0.11741 0.13650 0.55590 -0.12800
H 	H 	0.11890 0.15570 0.60100 0.07800
C 	C 	0.08984 0.10643 0.56090 0.05700
H 	H 	0.07240 0.10500 0.60940 0.03000
C 	C 	0.17156 0.17083 0.48030 -0.04900
C 	C 	0.17938 0.18953 0.40143 0.02600
H 	H 	0.16810 0.17990 0.34890 0.01100
N 	N 	0.20373 0.22233 0.39948 -0.22300
C 	C 	0.22026 0.23643 0.47640 0.06100
H 	H 	0.23690 0.25890 0.47500 0.00600
N 	N 	0.21244 0.21774 0.55522 -0.17400
C 	C 	0.18809 0.18494 0.55718 0.02900
H 	H 	0.18270 0.17220 0.61110 0.03300
Cu	Cu	0.98849 0.51384 0.42480 0.92000
Cu	Cu	0.78431 0.75145 0.71766 0.79700
I 	I 	0.73976 0.68980 0.68468 -0.43500
O 	O 	0.95954 0.55116 0.49950 -0.40700
O 	O 	0.97863 0.52730 0.62770 -0.40200
C 	C 	0.96088 0.55159 0.58090 0.37500
C 	C 	0.93980 0.58456 0.62670 -0.11800
C 	C 	0.92189 0.61370 0.57705 0.05600
H 	H 	0.92120 0.61150 0.51520 0.02700
C 	C 	0.90503 0.64607 0.61790 -0.12600
H 	H 	0.89280 0.66600 0.58390 0.07700
C 	C 	0.90609 0.64932 0.70830 0.08600
C 	C 	0.92401 0.62018 0.75801 -0.12300
H 	H 	0.92470 0.62240 0.81990 0.08000
C 	C 	0.94086 0.58780 0.71720 0.05600
H 	H 	0.95310 0.56790 0.75120 0.03300
C 	C 	0.88946 0.68455 0.75130 -0.04600
C 	C 	0.85354 0.69905 0.72230 0.01900
H 	H 	0.83950 0.68560 0.67770 0.01400
N 	N 	0.83815 0.73319 0.75870 -0.22400
C 	C 	0.85867 0.75283 0.82390 0.06400
H 	H 	0.84810 0.77620 0.84870 0.00000
N 	N 	0.89458 0.73834 0.85290 -0.11300
C 	C 	0.90997 0.70420 0.81660 0.02800
H 	H 	0.93450 0.69430 0.83640 0.03500
O 	O 	0.94558 0.47579 0.43580 -0.40500
O 	O 	0.96597 0.45238 0.56340 -0.40700
C 	C 	0.94374 0.45225 0.49800 0.37600
C 	C 	0.91230 0.42160 0.49510 -0.12100
C 	C 	0.88685 0.41957 0.42420 0.05800
H 	H 	0.88830 0.43870 0.37910 0.03100
C 	C 	0.85927 0.38950 0.41910 -0.12900
H 	H 	0.84190 0.38810 0.37070 0.08100
C 	C 	0.85714 0.36147 0.48500 0.08900
C 	C 	0.88259 0.36350 0.55590 -0.12800
H 	H 	0.88110 0.34430 0.60100 0.07800
C 	C 	0.91016 0.39357 0.56090 0.05700
H 	H 	0.92760 0.39500 0.60940 0.03000
C 	C 	0.82844 0.32917 0.48030 -0.04900
C 	C 	0.82062 0.31047 0.40143 0.02600
H 	H 	0.83190 0.32010 0.34890 0.01100
N 	N 	0.79627 0.27767 0.39948 -0.22300
C 	C 	0.77974 0.26357 0.47640 0.06100
H 	H 	0.76310 0.24110 0.47500 0.00600
N 	N 	0.78756 0.28226 0.55522 -0.17400
C 	C 	0.81191 0.31506 0.55718 0.02900
H 	H 	0.81730 0.32780 0.61110 0.03300
Cu	Cu	0.48849 0.01384 0.92480 0.91900
Cu	Cu	0.28431 0.25145 0.21766 0.79700
I 	I 	0.23976 0.18980 0.18468 -0.43500
O 	O 	0.45954 0.05116 0.99950 -0.40700
O 	O 	0.47863 0.02730 0.12770 -0.40200
C 	C 	0.46088 0.05159 0.08090 0.37600
C 	C 	0.43980 0.08456 0.12670 -0.11800
C 	C 	0.42189 0.11370 0.07705 0.05600
H 	H 	0.42120 0.11150 0.01520 0.02700
C 	C 	0.40503 0.14607 0.11790 -0.12600
H 	H 	0.39280 0.16600 0.08390 0.07700
C 	C 	0.40609 0.14932 0.20830 0.08600
C 	C 	0.42401 0.12018 0.25801 -0.12400
H 	H 	0.42470 0.12240 0.31990 0.08000
C 	C 	0.44086 0.08780 0.21720 0.05700
H 	H 	0.45310 0.06790 0.25120 0.03200
C 	C 	0.38946 0.18455 0.25130 -0.04600
C 	C 	0.35354 0.19905 0.22230 0.01900
H 	H 	0.33950 0.18560 0.17770 0.01400
N 	N 	0.33815 0.23319 0.25870 -0.22400
C 	C 	0.35867 0.25283 0.32390 0.06400
H 	H 	0.34810 0.27620 0.34870 0.00000
N 	N 	0.39458 0.23834 0.35290 -0.11400
C 	C 	0.40997 0.20420 0.31660 0.02800
H 	H 	0.43450 0.19430 0.33640 0.03500
O 	O 	0.44558 0.97579 0.93580 -0.40500
O 	O 	0.46597 0.95238 0.06340 -0.40800
C 	C 	0.44374 0.95225 0.99800 0.37700
C 	C 	0.41230 0.92160 0.99510 -0.12100
C 	C 	0.38685 0.91957 0.92420 0.05800
H 	H 	0.38830 0.93870 0.87910 0.03200
C 	C 	0.35927 0.88950 0.91910 -0.12900
H 	H 	0.34190 0.88810 0.87070 0.08100
C 	C 	0.35714 0.86147 0.98500 0.08900
C 	C 	0.38259 0.86350 0.05590 -0.12800
H 	H 	0.38110 0.84430 0.10100 0.07800
C 	C 	0.41016 0.89357 0.06090 0.05600
H 	H 	0.42760 0.89500 0.10940 0.03000
C 	C 	0.32844 0.82917 0.98030 -0.04800
C 	C 	0.32062 0.81047 0.90143 0.02600
H 	H 	0.33190 0.82010 0.84890 0.01100
N 	N 	0.29627 0.77767 0.89948 -0.22300
C 	C 	0.27974 0.76357 0.97640 0.06200
H 	H 	0.26310 0.74110 0.97500 0.00600
N 	N 	0.28756 0.78226 0.05522 -0.17400
C 	C 	0.31191 0.81506 0.05718 0.02900
H 	H 	0.31730 0.82780 0.11110 0.03400
Cu	Cu	0.76384 0.76151 0.32520 0.92000
Cu	Cu	0.00145 0.96569 0.03234 0.79700
I 	I 	0.93980 0.01024 0.06532 -0.43500
O 	O 	0.80116 0.79046 0.25050 -0.40700
O 	O 	0.77730 0.77137 0.12230 -0.40200
C 	C 	0.80159 0.78912 0.16910 0.37500
C 	C 	0.83456 0.81020 0.12330 -0.11700
C 	C 	0.86370 0.82811 0.17295 0.05400
H 	H 	0.86150 0.82880 0.23480 0.02800
C 	C 	0.89607 0.84497 0.13210 -0.12400
H 	H 	0.91600 0.85720 0.16610 0.07600
C 	C 	0.89932 0.84391 0.04170 0.08400
C 	C 	0.87018 0.82599 0.99199 -0.12100
H 	H 	0.87240 0.82530 0.93010 0.07900
C 	C 	0.83780 0.80914 0.03280 0.05400
H 	H 	0.81790 0.79690 0.99880 0.03300
C 	C 	0.93455 0.86054 0.99870 -0.04500
C 	C 	0.94905 0.89646 0.02770 0.01700
H 	H 	0.93560 0.91050 0.07230 0.01400
N 	N 	0.98319 0.91185 0.99130 -0.22300
C 	C 	0.00283 0.89133 0.92610 0.06400
H 	H 	0.02620 0.90190 0.90130 0.00100
N 	N 	0.98834 0.85542 0.89710 -0.11300
C 	C 	0.95420 0.84003 0.93340 0.02700
H 	H 	0.94430 0.81550 0.91360 0.03600
O 	O 	0.72579 0.80442 0.31420 -0.40500
O 	O 	0.70238 0.78403 0.18660 -0.40800
C 	C 	0.70225 0.80626 0.25200 0.37600
C 	C 	0.67160 0.83770 0.25490 -0.12100
C 	C 	0.66957 0.86315 0.32580 0.05800
H 	H 	0.68870 0.86170 0.37090 0.03100
C 	C 	0.63950 0.89073 0.33090 -0.12900
H 	H 	0.63810 0.90810 0.37930 0.08100
C 	C 	0.61147 0.89286 0.26500 0.08900
C 	C 	0.61350 0.86741 0.19410 -0.12800
H 	H 	0.59430 0.86890 0.14900 0.07800
C 	C 	0.64357 0.83984 0.18910 0.05700
H 	H 	0.64500 0.82240 0.14060 0.03000
C 	C 	0.57917 0.92156 0.26970 -0.04900
C 	C 	0.56047 0.92938 0.34857 0.02600
H 	H 	0.57010 0.91810 0.40110 0.01100
N 	N 	0.52767 0.95373 0.35052 -0.22300
C 	C 	0.51357 0.97026 0.27360 0.06100
H 	H 	0.49110 0.98690 0.27500 0.00600
N 	N 	0.53226 0.96244 0.19478 -0.17400
C 	C 	0.56506 0.93809 0.19282 0.02900
H 	H 	0.57780 0.93270 0.13890 0.03300
Cu	Cu	0.26384 0.26151 0.82520 0.92000
Cu	Cu	0.50145 0.46569 0.53234 0.79700
I 	I 	0.43980 0.51024 0.56532 -0.43500
O 	O 	0.30116 0.29046 0.75050 -0.40700
O 	O 	0.27730 0.27137 0.62230 -0.40200
C 	C 	0.30159 0.28912 0.66910 0.37500
C 	C 	0.33456 0.31020 0.62330 -0.11800
C 	C 	0.36370 0.32811 0.67295 0.05600
H 	H 	0.36150 0.32880 0.73480 0.02700
C 	C 	0.39607 0.34497 0.63210 -0.12600
H 	H 	0.41600 0.35720 0.66610 0.07700
C 	C 	0.39932 0.34391 0.54170 0.08600
C 	C 	0.37018 0.32599 0.49199 -0.12300
H 	H 	0.37240 0.32530 0.43010 0.08000
C 	C 	0.33780 0.30914 0.53280 0.05600
H 	H 	0.31790 0.29690 0.49880 0.03300
C 	C 	0.43455 0.36054 0.49870 -0.04600
C 	C 	0.44905 0.39646 0.52770 0.01900
H 	H 	0.43560 0.41050 0.57230 0.01400
N 	N 	0.48319 0.41185 0.49130 -0.22400
C 	C 	0.50283 0.39133 0.42610 0.06400
H 	H 	0.52620 0.40190 0.40130 0.00000
N 	N 	0.48834 0.35542 0.39710 -0.11400
C 	C 	0.45420 0.34003 0.43340 0.02800
H 	H 	0.44430 0.31550 0.41360 0.03500
O 	O 	0.22579 0.30442 0.81420 -0.40500
O 	O 	0.20238 0.28403 0.68660 -0.40800
C 	C 	0.20225 0.30626 0.75200 0.37600
C 	C 	0.17160 0.33770 0.75490 -0.12100
C 	C 	0.16957 0.36315 0.82580 0.05800
H 	H 	0.18870 0.36170 0.87090 0.03100
C 	C 	0.13950 0.39073 0.83090 -0.12900
H 	H 	0.13810 0.40810 0.87930 0.08100
C 	C 	0.11147 0.39286 0.76500 0.08900
C 	C 	0.11350 0.36741 0.69410 -0.12800
H 	H 	0.09430 0.36890 0.64900 0.07800
C 	C 	0.14357 0.33984 0.68910 0.05700
H 	H 	0.14500 0.32240 0.64060 0.03000
C 	C 	0.07917 0.42156 0.76970 -0.04900
C 	C 	0.06047 0.42938 0.84857 0.02600
H 	H 	0.07010 0.41810 0.90110 0.01100
N 	N 	0.02767 0.45373 0.85052 -0.22300
C 	C 	0.01357 0.47026 0.77360 0.06100
H 	H 	0.99110 0.48690 0.77500 0.00600
N 	N 	0.03226 0.46244 0.69478 -0.17400
C 	C 	0.06506 0.43809 0.69282 0.02900
H 	H 	0.07780 0.43270 0.63890 0.03300
Cu	Cu	0.73616 0.23849 0.82520 0.92000
Cu	Cu	0.49855 0.03431 0.53234 0.79700
I 	I 	0.56020 0.98976 0.56532 -0.43500
O 	O 	0.69884 0.20954 0.75050 -0.40700
O 	O 	0.72270 0.22863 0.62230 -0.40200
C 	C 	0.69841 0.21088 0.66910 0.37500
C 	C 	0.66544 0.18980 0.62330 -0.11800
C 	C 	0.63630 0.17189 0.67295 0.05600
H 	H 	0.63850 0.17120 0.73480 0.02700
C 	C 	0.60393 0.15503 0.63210 -0.12600
H 	H 	0.58400 0.14280 0.66610 0.07700
C 	C 	0.60068 0.15609 0.54170 0.08600
C 	C 	0.62982 0.17401 0.49199 -0.12300
H 	H 	0.62760 0.17470 0.43010 0.08000
C 	C 	0.66220 0.19086 0.53280 0.05600
H 	H 	0.68210 0.20310 0.49880 0.03200
C 	C 	0.56545 0.13946 0.49870 -0.04600
C 	C 	0.55095 0.10354 0.52770 0.01900
H 	H 	0.56440 0.08950 0.57230 0.01400
N 	N 	0.51681 0.08815 0.49130 -0.22400
C 	C 	0.49717 0.10867 0.42610 0.06400
H 	H 	0.47380 0.09810 0.40130 0.00000
N 	N 	0.51166 0.14458 0.39710 -0.11400
C 	C 	0.54580 0.15997 0.43340 0.02800
H 	H 	0.55570 0.18450 0.41360 0.03500
O 	O 	0.77421 0.19558 0.81420 -0.40500
O 	O 	0.79762 0.21597 0.68660 -0.40800
C 	C 	0.79775 0.19374 0.75200 0.37600
C 	C 	0.82840 0.16230 0.75490 -0.12100
C 	C 	0.83043 0.13685 0.82580 0.05800
H 	H 	0.81130 0.13830 0.87090 0.03100
C 	C 	0.86050 0.10927 0.83090 -0.12900
H 	H 	0.86190 0.09190 0.87930 0.08100
C 	C 	0.88853 0.10714 0.76500 0.08900
C 	C 	0.88650 0.13259 0.69410 -0.12800
H 	H 	0.90570 0.13110 0.64900 0.07800
C 	C 	0.85643 0.16016 0.68910 0.05700
H 	H 	0.85500 0.17760 0.64060 0.03000
C 	C 	0.92083 0.07844 0.76970 -0.04900
C 	C 	0.93953 0.07062 0.84857 0.02600
H 	H 	0.92990 0.08190 0.90110 0.01100
N 	N 	0.97233 0.04627 0.85052 -0.22300
C 	C 	0.98643 0.02974 0.77360 0.06100
H 	H 	0.00890 0.01310 0.77500 0.00600
N 	N 	0.96774 0.03756 0.69478 -0.17400
C 	C 	0.93494 0.06191 0.69282 0.02900
H 	H 	0.92220 0.06730 0.63890 0.03300
Cu	Cu	0.23616 0.73849 0.32520 0.92000
Cu	Cu	0.99855 0.53431 0.03234 0.79700
I 	I 	0.06020 0.48976 0.06532 -0.43500
O 	O 	0.19884 0.70954 0.25050 -0.40700
O 	O 	0.22270 0.72863 0.12230 -0.40200
C 	C 	0.19841 0.71088 0.16910 0.37500
C 	C 	0.16544 0.68980 0.12330 -0.11700
C 	C 	0.13630 0.67189 0.17295 0.05500
H 	H 	0.13850 0.67120 0.23480 0.02700
C 	C 	0.10393 0.65503 0.13210 -0.12500
H 	H 	0.08400 0.64280 0.16610 0.07600
C 	C 	0.10068 0.65609 0.04170 0.08500
C 	C 	0.12982 0.67401 0.99199 -0.12200
H 	H 	0.12760 0.67470 0.93010 0.07900
C 	C 	0.16220 0.69086 0.03280 0.05500
H 	H 	0.18210 0.70310 0.99880 0.03300
C 	C 	0.06545 0.63946 0.99870 -0.04600
C 	C 	0.05095 0.60354 0.02770 0.01800
H 	H 	0.06440 0.58950 0.07230 0.01400
N 	N 	0.01681 0.58815 0.99130 -0.22400
C 	C 	0.99717 0.60867 0.92610 0.06400
H 	H 	0.97380 0.59810 0.90130 0.00000
N 	N 	0.01166 0.64458 0.89710 -0.11300
C 	C 	0.04580 0.65997 0.93340 0.02800
H 	H 	0.05570 0.68450 0.91360 0.03600
O 	O 	0.27421 0.69558 0.31420 -0.40500
O 	O 	0.29762 0.71597 0.18660 -0.40800
C 	C 	0.29775 0.69374 0.25200 0.37600
C 	C 	0.32840 0.66230 0.25490 -0.12100
C 	C 	0.33043 0.63685 0.32580 0.05800
H 	H 	0.31130 0.63830 0.37090 0.03100
C 	C 	0.36050 0.60927 0.33090 -0.12900
H 	H 	0.36190 0.59190 0.37930 0.08100
C 	C 	0.38853 0.60714 0.26500 0.08900
C 	C 	0.38650 0.63259 0.19410 -0.12800
H 	H 	0.40570 0.63110 0.14900 0.07800
C 	C 	0.35643 0.66016 0.18910 0.05700
H 	H 	0.35500 0.67760 0.14060 0.03000
C 	C 	0.42083 0.57844 0.26970 -0.04900
C 	C 	0.43953 0.57062 0.34857 0.02600
H 	H 	0.42990 0.58190 0.40110 0.01100
N 	N 	0.47233 0.54627 0.35052 -0.22300
C 	C 	0.48643 0.52974 0.27360 0.06100
H 	H 	0.50890 0.51310 0.27500 0.00600
N 	N 	0.46774 0.53756 0.19478 -0.17400
C 	C 	0.43494 0.56191 0.19282 0.02900
H 	H 	0.42220 0.56730 0.13890 0.03300
Cu	Cu	0.48849 0.51384 0.07520 0.92000
Cu	Cu	0.28431 0.75145 0.78234 0.79700
I 	I 	0.23976 0.68980 0.81532 -0.43500
O 	O 	0.45954 0.55116 0.00050 -0.40700
O 	O 	0.47863 0.52730 0.87230 -0.40200
C 	C 	0.46088 0.55159 0.91910 0.37500
C 	C 	0.43980 0.58456 0.87330 -0.11800
C 	C 	0.42189 0.61370 0.92295 0.05600
H 	H 	0.42120 0.61150 0.98480 0.02700
C 	C 	0.40503 0.64607 0.88210 -0.12600
H 	H 	0.39280 0.66600 0.91610 0.07700
C 	C 	0.40609 0.64932 0.79170 0.08600
C 	C 	0.42401 0.62018 0.74199 -0.12300
H 	H 	0.42470 0.62240 0.68010 0.08000
C 	C 	0.44086 0.58780 0.78280 0.05600
H 	H 	0.45310 0.56790 0.74880 0.03200
C 	C 	0.38946 0.68455 0.74870 -0.04600
C 	C 	0.35354 0.69905 0.77770 0.01900
H 	H 	0.33950 0.68560 0.82230 0.01400
N 	N 	0.33815 0.73319 0.74130 -0.22400
C 	C 	0.35867 0.75283 0.67610 0.06400
H 	H 	0.34810 0.77620 0.65130 0.00000
N 	N 	0.39458 0.73834 0.64710 -0.11400
C 	C 	0.40997 0.70420 0.68340 0.02800
H 	H 	0.43450 0.69430 0.66360 0.03500
O 	O 	0.44558 0.47579 0.06420 -0.40500
O 	O 	0.46597 0.45238 0.93660 -0.40800
C 	C 	0.44374 0.45225 0.00200 0.37600
C 	C 	0.41230 0.42160 0.00490 -0.12100
C 	C 	0.38685 0.41957 0.07580 0.05800
H 	H 	0.38830 0.43870 0.12090 0.03100
C 	C 	0.35927 0.38950 0.08090 -0.12900
H 	H 	0.34190 0.38810 0.12930 0.08100
C 	C 	0.35714 0.36147 0.01500 0.08900
C 	C 	0.38259 0.36350 0.94410 -0.12800
H 	H 	0.38110 0.34430 0.89900 0.07800
C 	C 	0.41016 0.39357 0.93910 0.05700
H 	H 	0.42760 0.39500 0.89060 0.03000
C 	C 	0.32844 0.32917 0.01970 -0.04900
C 	C 	0.32062 0.31047 0.09857 0.02600
H 	H 	0.33190 0.32010 0.15110 0.01100
N 	N 	0.29627 0.27767 0.10052 -0.22300
C 	C 	0.27974 0.26357 0.02360 0.06100
H 	H 	0.26310 0.24110 0.02500 0.00600
N 	N 	0.28756 0.28226 0.94478 -0.17400
C 	C 	0.31191 0.31506 0.94282 0.02900
H 	H 	0.31730 0.32780 0.88890 0.03300
Cu	Cu	0.98849 0.01384 0.57520 0.92000
Cu	Cu	0.78431 0.25145 0.28234 0.79700
I 	I 	0.73976 0.18980 0.31532 -0.43500
O 	O 	0.95954 0.05116 0.50050 -0.40700
O 	O 	0.97863 0.02730 0.37230 -0.40200
C 	C 	0.96088 0.05159 0.41910 0.37500
C 	C 	0.93980 0.08456 0.37330 -0.11800
C 	C 	0.92189 0.11370 0.42295 0.05600
H 	H 	0.92120 0.11150 0.48480 0.02700
C 	C 	0.90503 0.14607 0.38210 -0.12600
H 	H 	0.89280 0.16600 0.41610 0.07700
C 	C 	0.90609 0.14932 0.29170 0.08600
C 	C 	0.92401 0.12018 0.24199 -0.12300
H 	H 	0.92470 0.12240 0.18010 0.08000
C 	C 	0.94086 0.08780 0.28280 0.05600
H 	H 	0.95310 0.06790 0.24880 0.03300
C 	C 	0.88946 0.18455 0.24870 -0.04600
C 	C 	0.85354 0.19905 0.27770 0.01900
H 	H 	0.83950 0.18560 0.32230 0.01400
N 	N 	0.83815 0.23319 0.24130 -0.22400
C 	C 	0.85867 0.25283 0.17610 0.06400
H 	H 	0.84810 0.27620 0.15130 0.00000
N 	N 	0.89458 0.23834 0.14710 -0.11300
C 	C 	0.90997 0.20420 0.18340 0.02800
H 	H 	0.93450 0.19430 0.16360 0.03500
O 	O 	0.94558 0.97579 0.56420 -0.40400
O 	O 	0.96597 0.95238 0.43660 -0.40700
C 	C 	0.94374 0.95225 0.50200 0.37600
C 	C 	0.91230 0.92160 0.50490 -0.12100
C 	C 	0.88685 0.91957 0.57580 0.05800
H 	H 	0.88830 0.93870 0.62090 0.03200
C 	C 	0.85927 0.88950 0.58090 -0.12900
H 	H 	0.84190 0.88810 0.62930 0.08100
C 	C 	0.85714 0.86147 0.51500 0.08900
C 	C 	0.88259 0.86350 0.44410 -0.12800
H 	H 	0.88110 0.84430 0.39900 0.07800
C 	C 	0.91016 0.89357 0.43910 0.05700
H 	H 	0.92760 0.89500 0.39060 0.03000
C 	C 	0.82844 0.82917 0.51970 -0.04900
C 	C 	0.82062 0.81047 0.59857 0.02600
H 	H 	0.83190 0.82010 0.65110 0.01100
N 	N 	0.79627 0.77767 0.60052 -0.22300
C 	C 	0.77974 0.76357 0.52360 0.06100
H 	H 	0.76310 0.74110 0.52500 0.00600
N 	N 	0.78756 0.78226 0.44478 -0.17400
C 	C 	0.81191 0.81506 0.44282 0.02900
H 	H 	0.81730 0.82780 0.38890 0.03300
Cu	Cu	0.01151 0.48616 0.57520 0.92000
Cu	Cu	0.21569 0.24855 0.28234 0.79700
I 	I 	0.26024 0.31020 0.31532 -0.43500
O 	O 	0.04046 0.44884 0.50050 -0.40700
O 	O 	0.02137 0.47270 0.37230 -0.40200
C 	C 	0.03912 0.44841 0.41910 0.37500
C 	C 	0.06020 0.41544 0.37330 -0.11800
C 	C 	0.07811 0.38630 0.42295 0.05600
H 	H 	0.07880 0.38850 0.48480 0.02700
C 	C 	0.09497 0.35393 0.38210 -0.12600
H 	H 	0.10720 0.33400 0.41610 0.07700
C 	C 	0.09391 0.35068 0.29170 0.08600
C 	C 	0.07599 0.37982 0.24199 -0.12300
H 	H 	0.07530 0.37760 0.18010 0.08000
C 	C 	0.05914 0.41220 0.28280 0.05600
H 	H 	0.04690 0.43210 0.24880 0.03300
C 	C 	0.11054 0.31545 0.24870 -0.04600
C 	C 	0.14646 0.30095 0.27770 0.01900
H 	H 	0.16050 0.31440 0.32230 0.01400
N 	N 	0.16185 0.26681 0.24130 -0.22400
C 	C 	0.14133 0.24717 0.17610 0.06400
H 	H 	0.15190 0.22380 0.15130 0.00000
N 	N 	0.10542 0.26166 0.14710 -0.11300
C 	C 	0.09003 0.29580 0.18340 0.02800
H 	H 	0.06550 0.30570 0.16360 0.03500
O 	O 	0.05442 0.52421 0.56420 -0.40500
O 	O 	0.03403 0.54762 0.43660 -0.40700
C 	C 	0.05626 0.54775 0.50200 0.37600
C 	C 	0.08770 0.57840 0.50490 -0.12100
C 	C 	0.11315 0.58043 0.57580 0.05800
H 	H 	0.11170 0.56130 0.62090 0.03100
C 	C 	0.14073 0.61050 0.58090 -0.12900
H 	H 	0.15810 0.61190 0.62930 0.08100
C 	C 	0.14286 0.63853 0.51500 0.08900
C 	C 	0.11741 0.63650 0.44410 -0.12800
H 	H 	0.11890 0.65570 0.39900 0.07800
C 	C 	0.08984 0.60643 0.43910 0.05700
H 	H 	0.07240 0.60500 0.39060 0.03000
C 	C 	0.17156 0.67083 0.51970 -0.04900
C 	C 	0.17938 0.68953 0.59857 0.02600
H 	H 	0.16810 0.67990 0.65110 0.01100
N 	N 	0.20373 0.72233 0.60052 -0.22300
C 	C 	0.22026 0.73643 0.52360 0.06100
H 	H 	0.23690 0.75890 0.52500 0.00600
N 	N 	0.21244 0.71774 0.44478 -0.17400
C 	C 	0.18809 0.68494 0.44282 0.02900
H 	H 	0.18270 0.67220 0.38890 0.03300
Cu	Cu	0.51151 0.98616 0.07520 0.91900
Cu	Cu	0.71569 0.74855 0.78234 0.79700
I 	I 	0.76024 0.81020 0.81532 -0.43500
O 	O 	0.54046 0.94884 0.00050 -0.40700
O 	O 	0.52137 0.97270 0.87230 -0.40200
C 	C 	0.53912 0.94841 0.91910 0.37600
C 	C 	0.56020 0.91544 0.87330 -0.11800
C 	C 	0.57811 0.88630 0.92295 0.05600
H 	H 	0.57880 0.88850 0.98480 0.02700
C 	C 	0.59497 0.85393 0.88210 -0.12600
H 	H 	0.60720 0.83400 0.91610 0.07700
C 	C 	0.59391 0.85068 0.79170 0.08600
C 	C 	0.57599 0.87982 0.74199 -0.12400
H 	H 	0.57530 0.87760 0.68010 0.08000
C 	C 	0.55914 0.91220 0.78280 0.05700
H 	H 	0.54690 0.93210 0.74880 0.03200
C 	C 	0.61054 0.81545 0.74870 -0.04600
C 	C 	0.64646 0.80095 0.77770 0.01900
H 	H 	0.66050 0.81440 0.82230 0.01400
N 	N 	0.66185 0.76681 0.74130 -0.22400
C 	C 	0.64133 0.74717 0.67610 0.06400
H 	H 	0.65190 0.72380 0.65130 0.00000
N 	N 	0.60542 0.76166 0.64710 -0.11400
C 	C 	0.59003 0.79580 0.68340 0.02800
H 	H 	0.56550 0.80570 0.66360 0.03500
O 	O 	0.55442 0.02421 0.06420 -0.40500
O 	O 	0.53403 0.04762 0.93660 -0.40800
C 	C 	0.55626 0.04775 0.00200 0.37700
C 	C 	0.58770 0.07840 0.00490 -0.12100
C 	C 	0.61315 0.08043 0.07580 0.05800
H 	H 	0.61170 0.06130 0.12090 0.03200
C 	C 	0.64073 0.11050 0.08090 -0.12900
H 	H 	0.65810 0.11190 0.12930 0.08100
C 	C 	0.64286 0.13853 0.01500 0.08900
C 	C 	0.61741 0.13650 0.94410 -0.12800
H 	H 	0.61890 0.15570 0.89900 0.07800
C 	C 	0.58984 0.10643 0.93910 0.05600
H 	H 	0.57240 0.10500 0.89060 0.03000
C 	C 	0.67156 0.17083 0.01970 -0.04800
C 	C 	0.67938 0.18953 0.09857 0.02600
H 	H 	0.66810 0.17990 0.15110 0.01100
N 	N 	0.70373 0.22233 0.10052 -0.22300
C 	C 	0.72026 0.23643 0.02360 0.06200
H 	H 	0.73690 0.25890 0.02500 0.00600
N 	N 	0.71244 0.21774 0.94478 -0.17400
C 	C 	0.68809 0.18494 0.94282 0.02900
H 	H 	0.68270 0.17220 0.88890 0.03400
