data_crystal

_cell_length_a 30.55400
_cell_length_b 16.30600
_cell_length_c 21.65600
_cell_angle_alpha 90.00000
_cell_angle_beta  134.43700
_cell_angle_gamma 90.00000

_symmetry_space_group_name_	'P 1'
_symmetry_space_group_name_H-M	'P 1'

loop_
_symmetry_equiv_pos_as_xyz
  x,y,z

loop_
_atom_site_label
_atom_site_type_symbol
_atom_site_fract_x
_atom_site_fract_y
_atom_site_fract_z
_atom_site_charge
Gd	Gd	0.82557 0.13065 0.95500 1.30100
Gd	Gd	0.60982 0.38048 0.69690 1.24100
O 	O 	0.74660 0.22990 0.85190 -0.43100
O 	O 	0.71760 0.34980 0.78640 -0.40600
O 	O 	0.93230 0.14210 0.04060 -0.45300
O 	O 	0.01670 0.19900 0.08760 -0.45000
O 	O 	0.86690 0.98710 0.85980 -0.42100
O 	O 	0.82050 0.10010 0.84430 -0.42500
O 	O 	0.85340 0.87400 0.66300 -0.40700
O 	O 	0.81380 0.93900 0.53800 -0.43500
N 	N 	0.86170 0.25850 0.93730 -0.14900
C 	C 	0.82120 0.31850 0.88210 -0.07600
C 	C 	0.84090 0.38690 0.87180 0.01300
H 	H 	0.81260 0.42880 0.83310 0.02400
C 	C 	0.90120 0.39530 0.91670 -0.08900
H 	H 	0.91500 0.44310 0.90950 0.04700
C 	C 	0.94170 0.33530 0.97200 0.01600
H 	H 	0.98380 0.34110 0.00340 0.01600
C 	C 	0.92190 0.26690 0.98230 -0.09000
C 	C 	0.75800 0.29810 0.83760 0.37000
C 	C 	0.96030 0.19900 0.04100 0.39100
N 	N 	0.83110 0.00570 0.70880 -0.15300
C 	C 	0.81640 0.06540 0.73530 -0.07700
C 	C 	0.78190 0.13050 0.68300 0.00600
H 	H 	0.77160 0.17230 0.70160 0.02700
C 	C 	0.76230 0.13580 0.60420 -0.07700
H 	H 	0.73820 0.18130 0.56760 0.04300
C 	C 	0.77700 0.07610 0.57760 -0.00200
H 	H 	0.76330 0.07980 0.52250 0.02100
C 	C 	0.81150 0.01100 0.62990 -0.06100
C 	C 	0.83600 0.05000 0.81800 0.37300
C 	C 	0.82800 0.93900 0.61000 0.30600
Gd	Gd	0.32557 0.63065 0.95500 1.30500
Gd	Gd	0.10982 0.88048 0.69690 1.24300
O 	O 	0.24660 0.72990 0.85190 -0.43000
O 	O 	0.21760 0.84980 0.78640 -0.40400
O 	O 	0.43230 0.64210 0.04060 -0.45400
O 	O 	0.51670 0.69900 0.08760 -0.44900
O 	O 	0.36690 0.48710 0.85980 -0.42200
O 	O 	0.32050 0.60010 0.84430 -0.42500
O 	O 	0.35340 0.37400 0.66300 -0.40700
O 	O 	0.31380 0.43900 0.53800 -0.43500
N 	N 	0.36170 0.75850 0.93730 -0.14800
C 	C 	0.32120 0.81850 0.88210 -0.07600
C 	C 	0.34090 0.88690 0.87180 0.01500
H 	H 	0.31260 0.92880 0.83310 0.02300
C 	C 	0.40120 0.89530 0.91670 -0.09200
H 	H 	0.41500 0.94310 0.90950 0.04800
C 	C 	0.44170 0.83530 0.97200 0.02000
H 	H 	0.48380 0.84110 0.00340 0.01400
C 	C 	0.42190 0.76690 0.98230 -0.08900
C 	C 	0.25800 0.79810 0.83760 0.37100
C 	C 	0.46030 0.69900 0.04100 0.39000
N 	N 	0.33110 0.50570 0.70880 -0.15300
C 	C 	0.31640 0.56540 0.73530 -0.07700
C 	C 	0.28190 0.63050 0.68300 0.00600
H 	H 	0.27160 0.67230 0.70160 0.02700
C 	C 	0.26230 0.63580 0.60420 -0.07700
H 	H 	0.23820 0.68130 0.56760 0.04300
C 	C 	0.27700 0.57610 0.57760 -0.00200
H 	H 	0.26330 0.57980 0.52250 0.02100
C 	C 	0.31150 0.51100 0.62990 -0.06100
C 	C 	0.33600 0.55000 0.81800 0.37500
C 	C 	0.32800 0.43900 0.61000 0.30600
Gd	Gd	0.17443 0.13065 0.54500 1.30400
Gd	Gd	0.39018 0.38048 0.80310 1.24200
O 	O 	0.25340 0.22990 0.64810 -0.43000
O 	O 	0.28240 0.34980 0.71360 -0.40500
O 	O 	0.06770 0.14210 0.45940 -0.45400
O 	O 	0.98330 0.19900 0.41240 -0.44900
O 	O 	0.13310 0.98710 0.64020 -0.42200
O 	O 	0.17950 0.10010 0.65570 -0.42500
O 	O 	0.14660 0.87400 0.83700 -0.40700
O 	O 	0.18620 0.93900 0.96200 -0.43400
N 	N 	0.13830 0.25850 0.56270 -0.14900
C 	C 	0.17880 0.31850 0.61790 -0.07600
C 	C 	0.15910 0.38690 0.62820 0.01300
H 	H 	0.18740 0.42880 0.66690 0.02400
C 	C 	0.09880 0.39530 0.58330 -0.09000
H 	H 	0.08500 0.44310 0.59050 0.04700
C 	C 	0.05830 0.33530 0.52800 0.01700
H 	H 	0.01620 0.34110 0.49660 0.01500
C 	C 	0.07810 0.26690 0.51770 -0.08900
C 	C 	0.24200 0.29810 0.66240 0.37000
C 	C 	0.03970 0.19900 0.45900 0.39000
N 	N 	0.16890 0.00570 0.79120 -0.15300
C 	C 	0.18360 0.06540 0.76470 -0.07800
C 	C 	0.21810 0.13050 0.81700 0.00600
H 	H 	0.22840 0.17230 0.79840 0.02700
C 	C 	0.23770 0.13580 0.89580 -0.07800
H 	H 	0.26180 0.18130 0.93240 0.04300
C 	C 	0.22300 0.07610 0.92240 -0.00100
H 	H 	0.23670 0.07980 0.97750 0.02000
C 	C 	0.18850 0.01100 0.87010 -0.06300
C 	C 	0.16400 0.05000 0.68200 0.37400
C 	C 	0.17200 0.93900 0.89000 0.30800
Gd	Gd	0.67443 0.63065 0.54500 1.30400
Gd	Gd	0.89018 0.88048 0.80310 1.24200
O 	O 	0.75340 0.72990 0.64810 -0.43000
O 	O 	0.78240 0.84980 0.71360 -0.40400
O 	O 	0.56770 0.64210 0.45940 -0.45300
O 	O 	0.48330 0.69900 0.41240 -0.44900
O 	O 	0.63310 0.48710 0.64020 -0.42200
O 	O 	0.67950 0.60010 0.65570 -0.42500
O 	O 	0.64660 0.37400 0.83700 -0.40700
O 	O 	0.68620 0.43900 0.96200 -0.43500
N 	N 	0.63830 0.75850 0.56270 -0.14900
C 	C 	0.67880 0.81850 0.61790 -0.07600
C 	C 	0.65910 0.88690 0.62820 0.01300
H 	H 	0.68740 0.92880 0.66690 0.02400
C 	C 	0.59880 0.89530 0.58330 -0.09000
H 	H 	0.58500 0.94310 0.59050 0.04700
C 	C 	0.55830 0.83530 0.52800 0.01700
H 	H 	0.51620 0.84110 0.49660 0.01600
C 	C 	0.57810 0.76690 0.51770 -0.08900
C 	C 	0.74200 0.79810 0.66240 0.37000
C 	C 	0.53970 0.69900 0.45900 0.39000
N 	N 	0.66890 0.50570 0.79120 -0.15300
C 	C 	0.68360 0.56540 0.76470 -0.07700
C 	C 	0.71810 0.63050 0.81700 0.00600
H 	H 	0.72840 0.67230 0.79840 0.02700
C 	C 	0.73770 0.63580 0.89580 -0.07700
H 	H 	0.76180 0.68130 0.93240 0.04300
C 	C 	0.72300 0.57610 0.92240 -0.00200
H 	H 	0.73670 0.57980 0.97750 0.02100
C 	C 	0.68850 0.51100 0.87010 -0.06100
C 	C 	0.66400 0.55000 0.68200 0.37500
C 	C 	0.67200 0.43900 0.89000 0.30600
Gd	Gd	0.17443 0.86935 0.04500 1.30200
Gd	Gd	0.39018 0.61952 0.30310 1.24200
O 	O 	0.25340 0.77010 0.14810 -0.43000
O 	O 	0.28240 0.65020 0.21360 -0.40500
O 	O 	0.06770 0.85790 0.95940 -0.45300
O 	O 	0.98330 0.80100 0.91240 -0.45000
O 	O 	0.13310 0.01290 0.14020 -0.42100
O 	O 	0.17950 0.89990 0.15570 -0.42500
O 	O 	0.14660 0.12600 0.33700 -0.40700
O 	O 	0.18620 0.06100 0.46200 -0.43500
N 	N 	0.13830 0.74150 0.06270 -0.14900
C 	C 	0.17880 0.68150 0.11790 -0.07600
C 	C 	0.15910 0.61310 0.12820 0.01300
H 	H 	0.18740 0.57120 0.16690 0.02400
C 	C 	0.09880 0.60470 0.08330 -0.08900
H 	H 	0.08500 0.55690 0.09050 0.04700
C 	C 	0.05830 0.66470 0.02800 0.01600
H 	H 	0.01620 0.65890 0.99660 0.01600
C 	C 	0.07810 0.73310 0.01770 -0.09000
C 	C 	0.24200 0.70190 0.16240 0.37000
C 	C 	0.03970 0.80100 0.95900 0.39100
N 	N 	0.16890 0.99430 0.29120 -0.15300
C 	C 	0.18360 0.93460 0.26470 -0.07700
C 	C 	0.21810 0.86950 0.31700 0.00600
H 	H 	0.22840 0.82770 0.29840 0.02700
C 	C 	0.23770 0.86420 0.39580 -0.07700
H 	H 	0.26180 0.81870 0.43240 0.04300
C 	C 	0.22300 0.92390 0.42240 -0.00200
H 	H 	0.23670 0.92020 0.47750 0.02100
C 	C 	0.18850 0.98900 0.37010 -0.06100
C 	C 	0.16400 0.95000 0.18200 0.37300
C 	C 	0.17200 0.06100 0.39000 0.30600
Gd	Gd	0.67443 0.36935 0.04500 1.30500
Gd	Gd	0.89018 0.11952 0.30310 1.24300
O 	O 	0.75340 0.27010 0.14810 -0.43000
O 	O 	0.78240 0.15020 0.21360 -0.40400
O 	O 	0.56770 0.35790 0.95940 -0.45400
O 	O 	0.48330 0.30100 0.91240 -0.44900
O 	O 	0.63310 0.51290 0.14020 -0.42200
O 	O 	0.67950 0.39990 0.15570 -0.42500
O 	O 	0.64660 0.62600 0.33700 -0.40700
O 	O 	0.68620 0.56100 0.46200 -0.43500
N 	N 	0.63830 0.24150 0.06270 -0.14800
C 	C 	0.67880 0.18150 0.11790 -0.07600
C 	C 	0.65910 0.11310 0.12820 0.01500
H 	H 	0.68740 0.07120 0.16690 0.02300
C 	C 	0.59880 0.10470 0.08330 -0.09200
H 	H 	0.58500 0.05690 0.09050 0.04800
C 	C 	0.55830 0.16470 0.02800 0.02000
H 	H 	0.51620 0.15890 0.99660 0.01400
C 	C 	0.57810 0.23310 0.01770 -0.08900
C 	C 	0.74200 0.20190 0.16240 0.37100
C 	C 	0.53970 0.30100 0.95900 0.39000
N 	N 	0.66890 0.49430 0.29120 -0.15300
C 	C 	0.68360 0.43460 0.26470 -0.07700
C 	C 	0.71810 0.36950 0.31700 0.00600
H 	H 	0.72840 0.32770 0.29840 0.02700
C 	C 	0.73770 0.36420 0.39580 -0.07700
H 	H 	0.76180 0.31870 0.43240 0.04300
C 	C 	0.72300 0.42390 0.42240 -0.00200
H 	H 	0.73670 0.42020 0.47750 0.02100
C 	C 	0.68850 0.48900 0.37010 -0.06100
C 	C 	0.66400 0.45000 0.18200 0.37500
C 	C 	0.67200 0.56100 0.39000 0.30600
Gd	Gd	0.82557 0.86935 0.45500 1.30400
Gd	Gd	0.60982 0.61952 0.19690 1.24200
O 	O 	0.74660 0.77010 0.35190 -0.43000
O 	O 	0.71760 0.65020 0.28640 -0.40500
O 	O 	0.93230 0.85790 0.54060 -0.45400
O 	O 	0.01670 0.80100 0.58760 -0.44900
O 	O 	0.86690 0.01290 0.35980 -0.42200
O 	O 	0.82050 0.89990 0.34430 -0.42500
O 	O 	0.85340 0.12600 0.16300 -0.40700
O 	O 	0.81380 0.06100 0.03800 -0.43400
N 	N 	0.86170 0.74150 0.43730 -0.14900
C 	C 	0.82120 0.68150 0.38210 -0.07600
C 	C 	0.84090 0.61310 0.37180 0.01300
H 	H 	0.81260 0.57120 0.33310 0.02400
C 	C 	0.90120 0.60470 0.41670 -0.09000
H 	H 	0.91500 0.55690 0.40950 0.04700
C 	C 	0.94170 0.66470 0.47200 0.01700
H 	H 	0.98380 0.65890 0.50340 0.01500
C 	C 	0.92190 0.73310 0.48230 -0.08900
C 	C 	0.75800 0.70190 0.33760 0.37000
C 	C 	0.96030 0.80100 0.54100 0.39000
N 	N 	0.83110 0.99430 0.20880 -0.15300
C 	C 	0.81640 0.93460 0.23530 -0.07800
C 	C 	0.78190 0.86950 0.18300 0.00600
H 	H 	0.77160 0.82770 0.20160 0.02700
C 	C 	0.76230 0.86420 0.10420 -0.07800
H 	H 	0.73820 0.81870 0.06760 0.04300
C 	C 	0.77700 0.92390 0.07760 -0.00100
H 	H 	0.76330 0.92020 0.02250 0.02000
C 	C 	0.81150 0.98900 0.12990 -0.06300
C 	C 	0.83600 0.95000 0.31800 0.37400
C 	C 	0.82800 0.06100 0.11000 0.30800
Gd	Gd	0.32557 0.36935 0.45500 1.30400
Gd	Gd	0.10982 0.11952 0.19690 1.24200
O 	O 	0.24660 0.27010 0.35190 -0.43000
O 	O 	0.21760 0.15020 0.28640 -0.40400
O 	O 	0.43230 0.35790 0.54060 -0.45300
O 	O 	0.51670 0.30100 0.58760 -0.44900
O 	O 	0.36690 0.51290 0.35980 -0.42200
O 	O 	0.32050 0.39990 0.34430 -0.42500
O 	O 	0.35340 0.62600 0.16300 -0.40700
O 	O 	0.31380 0.56100 0.03800 -0.43500
N 	N 	0.36170 0.24150 0.43730 -0.14900
C 	C 	0.32120 0.18150 0.38210 -0.07600
C 	C 	0.34090 0.11310 0.37180 0.01300
H 	H 	0.31260 0.07120 0.33310 0.02400
C 	C 	0.40120 0.10470 0.41670 -0.09000
H 	H 	0.41500 0.05690 0.40950 0.04700
C 	C 	0.44170 0.16470 0.47200 0.01700
H 	H 	0.48380 0.15890 0.50340 0.01600
C 	C 	0.42190 0.23310 0.48230 -0.08900
C 	C 	0.25800 0.20190 0.33760 0.37000
C 	C 	0.46030 0.30100 0.54100 0.39000
N 	N 	0.33110 0.49430 0.20880 -0.15300
C 	C 	0.31640 0.43460 0.23530 -0.07700
C 	C 	0.28190 0.36950 0.18300 0.00600
H 	H 	0.27160 0.32770 0.20160 0.02700
C 	C 	0.26230 0.36420 0.10420 -0.07700
H 	H 	0.23820 0.31870 0.06760 0.04300
C 	C 	0.27700 0.42390 0.07760 -0.00200
H 	H 	0.26330 0.42020 0.02250 0.02100
C 	C 	0.31150 0.48900 0.12990 -0.06100
C 	C 	0.33600 0.45000 0.31800 0.37500
C 	C 	0.32800 0.56100 0.11000 0.30600
