data_crystal

_cell_length_a 30.41800
_cell_length_b 16.30200
_cell_length_c 21.78000
_cell_angle_alpha 90.00000
_cell_angle_beta  133.82600
_cell_angle_gamma 90.00000

_symmetry_space_group_name_	'P 1'
_symmetry_space_group_name_H-M	'P 1'

loop_
_symmetry_equiv_pos_as_xyz
  x,y,z

loop_
_atom_site_label
_atom_site_type_symbol
_atom_site_fract_x
_atom_site_fract_y
_atom_site_fract_z
_atom_site_charge
O 	O 	0.17610 0.45380 0.91000 -0.46400
O 	O 	0.22810 0.35070 0.15710 -0.44300
C 	C 	0.16530 0.44900 0.95560 0.36700
Dy	Dy	0.12092 0.38037 0.04512 1.41900
Dy	Dy	0.16001 0.37130 0.80124 1.32900
O 	O 	0.44440 0.12160 0.34810 -0.43800
O 	O 	0.18340 0.59880 0.21800 -0.40500
C 	C 	0.17030 0.54490 0.16370 0.33700
O 	O 	0.13790 0.39070 0.95560 -0.48500
O 	O 	0.25980 0.23370 0.14580 -0.44400
O 	O 	0.14320 0.47760 0.14760 -0.44900
N 	N 	0.17430 0.50830 0.06350 -0.17400
N 	N 	0.37310 0.25290 0.29200 -0.16500
C 	C 	0.21940 0.63590 0.13040 -0.02500
H 	H 	0.23010 0.67480 0.17010 0.03500
C 	C 	0.18810 0.56460 0.11700 -0.04700
O 	O 	0.52600 0.19310 0.45410 -0.49200
C 	C 	0.45090 0.32300 0.42400 -0.00800
H 	H 	0.49080 0.32500 0.47680 0.01800
C 	C 	0.35010 0.38010 0.31750 -0.01300
H 	H 	0.32240 0.42190 0.29880 0.03100
C 	C 	0.18830 0.51950 0.01850 -0.05600
C 	C 	0.33310 0.31390 0.26730 -0.06100
C 	C 	0.26800 0.29900 0.18190 0.37800
C 	C 	0.23420 0.64770 0.08340 -0.06000
H 	H 	0.25320 0.69570 0.08910 0.03500
C 	C 	0.41000 0.38450 0.39810 -0.07300
H 	H 	0.42200 0.42870 0.43380 0.04000
C 	C 	0.22020 0.58680 0.02820 -0.02500
H 	H 	0.23180 0.59090 0.99860 0.02900
C 	C 	0.43050 0.25840 0.36870 -0.07300
C 	C 	0.47150 0.18620 0.39460 0.37800
O 	O 	0.67610 0.95380 0.91000 -0.46300
O 	O 	0.72810 0.85070 0.15710 -0.44200
C 	C 	0.66530 0.94900 0.95560 0.36800
Dy	Dy	0.62092 0.88037 0.04512 1.42100
Dy	Dy	0.66001 0.87130 0.80124 1.33000
O 	O 	0.94440 0.62160 0.34810 -0.43700
O 	O 	0.68340 0.09880 0.21800 -0.40500
C 	C 	0.67030 0.04490 0.16370 0.33800
O 	O 	0.63790 0.89070 0.95560 -0.48500
O 	O 	0.75980 0.73370 0.14580 -0.44400
O 	O 	0.64320 0.97760 0.14760 -0.45000
N 	N 	0.67430 0.00830 0.06350 -0.17300
N 	N 	0.87310 0.75290 0.29200 -0.16500
C 	C 	0.71940 0.13590 0.13040 -0.02200
H 	H 	0.73010 0.17480 0.17010 0.03500
C 	C 	0.68810 0.06460 0.11700 -0.04900
O 	O 	0.02600 0.69310 0.45410 -0.49300
C 	C 	0.95090 0.82300 0.42400 -0.00800
H 	H 	0.99080 0.82500 0.47680 0.01800
C 	C 	0.85010 0.88010 0.31750 -0.01300
H 	H 	0.82240 0.92190 0.29880 0.03100
C 	C 	0.68830 0.01950 0.01850 -0.05700
C 	C 	0.83310 0.81390 0.26730 -0.06100
C 	C 	0.76800 0.79900 0.18190 0.37800
C 	C 	0.73420 0.14770 0.08340 -0.06500
H 	H 	0.75320 0.19570 0.08910 0.03700
C 	C 	0.91000 0.88450 0.39810 -0.07300
H 	H 	0.92200 0.92870 0.43380 0.04000
C 	C 	0.72020 0.08680 0.02820 -0.01700
H 	H 	0.73180 0.09090 0.99860 0.02400
C 	C 	0.93050 0.75840 0.36870 -0.07400
C 	C 	0.97150 0.68620 0.39460 0.37800
O 	O 	0.82390 0.45380 0.59000 -0.46300
O 	O 	0.77190 0.35070 0.34290 -0.44200
C 	C 	0.83470 0.44900 0.54440 0.36700
Dy	Dy	0.87908 0.38037 0.45488 1.42100
Dy	Dy	0.83999 0.37130 0.69876 1.33000
O 	O 	0.55560 0.12160 0.15190 -0.43600
O 	O 	0.81660 0.59880 0.28200 -0.40500
C 	C 	0.82970 0.54490 0.33630 0.33700
O 	O 	0.86210 0.39070 0.54440 -0.48600
O 	O 	0.74020 0.23370 0.35420 -0.44400
O 	O 	0.85680 0.47760 0.35240 -0.44900
N 	N 	0.82570 0.50830 0.43650 -0.17400
N 	N 	0.62690 0.25290 0.20800 -0.16500
C 	C 	0.78060 0.63590 0.36960 -0.02400
H 	H 	0.76990 0.67480 0.32990 0.03500
C 	C 	0.81190 0.56460 0.38300 -0.04800
O 	O 	0.47400 0.19310 0.04590 -0.49200
C 	C 	0.54910 0.32300 0.07600 -0.00800
H 	H 	0.50920 0.32500 0.02320 0.01900
C 	C 	0.64990 0.38010 0.18250 -0.01300
H 	H 	0.67760 0.42190 0.20120 0.03100
C 	C 	0.81170 0.51950 0.48150 -0.05600
C 	C 	0.66690 0.31390 0.23270 -0.06100
C 	C 	0.73200 0.29900 0.31810 0.37800
C 	C 	0.76580 0.64770 0.41660 -0.06200
H 	H 	0.74680 0.69570 0.41090 0.03600
C 	C 	0.59000 0.38450 0.10190 -0.07300
H 	H 	0.57800 0.42870 0.06620 0.04000
C 	C 	0.77980 0.58680 0.47180 -0.02200
H 	H 	0.76820 0.59090 0.50140 0.02700
C 	C 	0.56950 0.25840 0.13130 -0.07300
C 	C 	0.52850 0.18620 0.10540 0.37700
O 	O 	0.32390 0.95380 0.59000 -0.46300
O 	O 	0.27190 0.85070 0.34290 -0.44200
C 	C 	0.33470 0.94900 0.54440 0.36700
Dy	Dy	0.37908 0.88037 0.45488 1.42200
Dy	Dy	0.33999 0.87130 0.69876 1.33000
O 	O 	0.05560 0.62160 0.15190 -0.43600
O 	O 	0.31660 0.09880 0.28200 -0.40500
C 	C 	0.32970 0.04490 0.33630 0.33700
O 	O 	0.36210 0.89070 0.54440 -0.48600
O 	O 	0.24020 0.73370 0.35420 -0.44400
O 	O 	0.35680 0.97760 0.35240 -0.45000
N 	N 	0.32570 0.00830 0.43650 -0.17400
N 	N 	0.12690 0.75290 0.20800 -0.16500
C 	C 	0.28060 0.13590 0.36960 -0.02400
H 	H 	0.26990 0.17480 0.32990 0.03500
C 	C 	0.31190 0.06460 0.38300 -0.04800
O 	O 	0.97400 0.69310 0.04590 -0.49000
C 	C 	0.04910 0.82300 0.07600 -0.00900
H 	H 	0.00920 0.82500 0.02320 0.01800
C 	C 	0.14990 0.88010 0.18250 -0.01300
H 	H 	0.17760 0.92190 0.20120 0.03100
C 	C 	0.31170 0.01950 0.48150 -0.05700
C 	C 	0.16690 0.81390 0.23270 -0.06100
C 	C 	0.23200 0.79900 0.31810 0.37800
C 	C 	0.26580 0.14770 0.41660 -0.06200
H 	H 	0.24680 0.19570 0.41090 0.03600
C 	C 	0.09000 0.88450 0.10190 -0.07300
H 	H 	0.07800 0.92870 0.06620 0.03900
C 	C 	0.27980 0.08680 0.47180 -0.02200
H 	H 	0.26820 0.09090 0.50140 0.02600
C 	C 	0.06950 0.75840 0.13130 -0.07300
C 	C 	0.02850 0.68620 0.10540 0.37500
O 	O 	0.82390 0.54620 0.09000 -0.46300
O 	O 	0.77190 0.64930 0.84290 -0.44200
C 	C 	0.83470 0.55100 0.04440 0.36800
Dy	Dy	0.87908 0.61963 0.95488 1.42000
Dy	Dy	0.83999 0.62870 0.19876 1.33000
O 	O 	0.55560 0.87840 0.65190 -0.43700
O 	O 	0.81660 0.40120 0.78200 -0.40500
C 	C 	0.82970 0.45510 0.83630 0.33700
O 	O 	0.86210 0.60930 0.04440 -0.48500
O 	O 	0.74020 0.76630 0.85420 -0.44400
O 	O 	0.85680 0.52240 0.85240 -0.44900
N 	N 	0.82570 0.49170 0.93650 -0.17400
N 	N 	0.62690 0.74710 0.70800 -0.16500
C 	C 	0.78060 0.36410 0.86960 -0.02500
H 	H 	0.76990 0.32520 0.82990 0.03500
C 	C 	0.81190 0.43540 0.88300 -0.04700
O 	O 	0.47400 0.80690 0.54590 -0.49200
C 	C 	0.54910 0.67700 0.57600 -0.00800
H 	H 	0.50920 0.67500 0.52320 0.01800
C 	C 	0.64990 0.61990 0.68250 -0.01300
H 	H 	0.67760 0.57810 0.70120 0.03100
C 	C 	0.81170 0.48050 0.98150 -0.05600
C 	C 	0.66690 0.68610 0.73270 -0.06100
C 	C 	0.73200 0.70100 0.81810 0.37800
C 	C 	0.76580 0.35230 0.91660 -0.06000
H 	H 	0.74680 0.30430 0.91090 0.03500
C 	C 	0.59000 0.61550 0.60190 -0.07300
H 	H 	0.57800 0.57130 0.56620 0.04000
C 	C 	0.77980 0.41320 0.97180 -0.02500
H 	H 	0.76820 0.40910 0.00140 0.02900
C 	C 	0.56950 0.74160 0.63130 -0.07300
C 	C 	0.52850 0.81380 0.60540 0.37800
O 	O 	0.32390 0.04620 0.09000 -0.46300
O 	O 	0.27190 0.14930 0.84290 -0.44200
C 	C 	0.33470 0.05100 0.04440 0.36800
Dy	Dy	0.37908 0.11963 0.95488 1.42100
Dy	Dy	0.33999 0.12870 0.19876 1.33000
O 	O 	0.05560 0.37840 0.65190 -0.43700
O 	O 	0.31660 0.90120 0.78200 -0.40500
C 	C 	0.32970 0.95510 0.83630 0.33800
O 	O 	0.36210 0.10930 0.04440 -0.48500
O 	O 	0.24020 0.26630 0.85420 -0.44400
O 	O 	0.35680 0.02240 0.85240 -0.45000
N 	N 	0.32570 0.99170 0.93650 -0.17300
N 	N 	0.12690 0.24710 0.70800 -0.16500
C 	C 	0.28060 0.86410 0.86960 -0.02200
H 	H 	0.26990 0.82520 0.82990 0.03500
C 	C 	0.31190 0.93540 0.88300 -0.04900
O 	O 	0.97400 0.30690 0.54590 -0.49300
C 	C 	0.04910 0.17700 0.57600 -0.00800
H 	H 	0.00920 0.17500 0.52320 0.01800
C 	C 	0.14990 0.11990 0.68250 -0.01300
H 	H 	0.17760 0.07810 0.70120 0.03100
C 	C 	0.31170 0.98050 0.98150 -0.05700
C 	C 	0.16690 0.18610 0.73270 -0.06100
C 	C 	0.23200 0.20100 0.81810 0.37800
C 	C 	0.26580 0.85230 0.91660 -0.06500
H 	H 	0.24680 0.80430 0.91090 0.03700
C 	C 	0.09000 0.11550 0.60190 -0.07300
H 	H 	0.07800 0.07130 0.56620 0.04000
C 	C 	0.27980 0.91320 0.97180 -0.01700
H 	H 	0.26820 0.90910 0.00140 0.02400
C 	C 	0.06950 0.24160 0.63130 -0.07400
C 	C 	0.02850 0.31380 0.60540 0.37800
O 	O 	0.17610 0.54620 0.41000 -0.46300
O 	O 	0.22810 0.64930 0.65710 -0.44200
C 	C 	0.16530 0.55100 0.45560 0.36700
Dy	Dy	0.12092 0.61963 0.54512 1.42100
Dy	Dy	0.16001 0.62870 0.30124 1.33000
O 	O 	0.44440 0.87840 0.84810 -0.43600
O 	O 	0.18340 0.40120 0.71800 -0.40500
C 	C 	0.17030 0.45510 0.66370 0.33700
O 	O 	0.13790 0.60930 0.45560 -0.48600
O 	O 	0.25980 0.76630 0.64580 -0.44400
O 	O 	0.14320 0.52240 0.64760 -0.44900
N 	N 	0.17430 0.49170 0.56350 -0.17400
N 	N 	0.37310 0.74710 0.79200 -0.16500
C 	C 	0.21940 0.36410 0.63040 -0.02400
H 	H 	0.23010 0.32520 0.67010 0.03500
C 	C 	0.18810 0.43540 0.61700 -0.04800
O 	O 	0.52600 0.80690 0.95410 -0.49200
C 	C 	0.45090 0.67700 0.92400 -0.00800
H 	H 	0.49080 0.67500 0.97680 0.01900
C 	C 	0.35010 0.61990 0.81750 -0.01300
H 	H 	0.32240 0.57810 0.79880 0.03100
C 	C 	0.18830 0.48050 0.51850 -0.05600
C 	C 	0.33310 0.68610 0.76730 -0.06100
C 	C 	0.26800 0.70100 0.68190 0.37800
C 	C 	0.23420 0.35230 0.58340 -0.06200
H 	H 	0.25320 0.30430 0.58910 0.03600
C 	C 	0.41000 0.61550 0.89810 -0.07300
H 	H 	0.42200 0.57130 0.93380 0.04000
C 	C 	0.22020 0.41320 0.52820 -0.02200
H 	H 	0.23180 0.40910 0.49860 0.02700
C 	C 	0.43050 0.74160 0.86870 -0.07300
C 	C 	0.47150 0.81380 0.89460 0.37700
O 	O 	0.67610 0.04620 0.41000 -0.46300
O 	O 	0.72810 0.14930 0.65710 -0.44200
C 	C 	0.66530 0.05100 0.45560 0.36700
Dy	Dy	0.62092 0.11963 0.54512 1.42200
Dy	Dy	0.66001 0.12870 0.30124 1.33000
O 	O 	0.94440 0.37840 0.84810 -0.43600
O 	O 	0.68340 0.90120 0.71800 -0.40500
C 	C 	0.67030 0.95510 0.66370 0.33700
O 	O 	0.63790 0.10930 0.45560 -0.48600
O 	O 	0.75980 0.26630 0.64580 -0.44400
O 	O 	0.64320 0.02240 0.64760 -0.45000
N 	N 	0.67430 0.99170 0.56350 -0.17400
N 	N 	0.87310 0.24710 0.79200 -0.16500
C 	C 	0.71940 0.86410 0.63040 -0.02400
H 	H 	0.73010 0.82520 0.67010 0.03500
C 	C 	0.68810 0.93540 0.61700 -0.04800
O 	O 	0.02600 0.30690 0.95410 -0.49000
C 	C 	0.95090 0.17700 0.92400 -0.00900
H 	H 	0.99080 0.17500 0.97680 0.01800
C 	C 	0.85010 0.11990 0.81750 -0.01300
H 	H 	0.82240 0.07810 0.79880 0.03100
C 	C 	0.68830 0.98050 0.51850 -0.05700
C 	C 	0.83310 0.18610 0.76730 -0.06100
C 	C 	0.76800 0.20100 0.68190 0.37800
C 	C 	0.73420 0.85230 0.58340 -0.06200
H 	H 	0.75320 0.80430 0.58910 0.03600
C 	C 	0.91000 0.11550 0.89810 -0.07300
H 	H 	0.92200 0.07130 0.93380 0.03900
C 	C 	0.72020 0.91320 0.52820 -0.02200
H 	H 	0.73180 0.90910 0.49860 0.02600
C 	C 	0.93050 0.24160 0.86870 -0.07300
C 	C 	0.97150 0.31380 0.89460 0.37500
