data_crystal

_cell_length_a 30.34200
_cell_length_b 16.21900
_cell_length_c 21.78700
_cell_angle_alpha 90.00000
_cell_angle_beta  134.13000
_cell_angle_gamma 90.00000

_symmetry_space_group_name_	'P 1'
_symmetry_space_group_name_H-M	'P 1'

loop_
_symmetry_equiv_pos_as_xyz
  x,y,z

loop_
_atom_site_label
_atom_site_type_symbol
_atom_site_fract_x
_atom_site_fract_y
_atom_site_fract_z
_atom_site_charge
Tb	Tb	0.17220 0.12932 0.54317 1.49600
Tb	Tb	0.11072 0.12213 0.20103 1.43200
O 	O 	0.15150 0.12470 0.34460 -0.49000
O 	O 	0.13670 0.01900 0.14720 -0.47000
O 	O 	0.24820 0.27260 0.35420 -0.48000
O 	O 	0.21720 0.15250 0.28620 -0.44500
N 	N 	0.16770 0.99770 0.29120 -0.17000
N 	N 	0.36120 0.24340 0.43850 -0.17500
O 	O 	0.17720 0.05860 0.45290 -0.52100
C 	C 	0.18810 0.99090 0.36960 -0.10500
C 	C 	0.34050 0.11390 0.37170 -0.00100
H 	H 	0.31200 0.07340 0.33380 0.02400
O 	O 	0.43430 0.36100 0.54330 -0.51300
C 	C 	0.22370 0.92660 0.42370 0.01900
H 	H 	0.23770 0.92540 0.47760 0.00600
C 	C 	0.32250 0.18440 0.38460 -0.07000
C 	C 	0.21860 0.86950 0.31730 -0.01100
H 	H 	0.22830 0.82890 0.29820 0.02900
C 	C 	0.25730 0.20460 0.33760 0.39300
C 	C 	0.18390 0.93750 0.26790 -0.06000
C 	C 	0.42240 0.23260 0.48490 -0.09300
C 	C 	0.44400 0.16280 0.47640 0.00700
H 	H 	0.48580 0.15510 0.51020 0.01400
C 	C 	0.46200 0.30150 0.54690 0.41700
C 	C 	0.23890 0.86470 0.39940 -0.09000
H 	H 	0.26190 0.82000 0.43530 0.04400
C 	C 	0.17270 0.06410 0.39220 0.42900
C 	C 	0.40150 0.10450 0.41600 -0.08600
H 	H 	0.41420 0.05920 0.40540 0.04300
O 	O 	0.51780 0.29710 0.59320 -0.49900
O 	O 	0.17710 0.89880 0.15560 -0.45300
C 	C 	0.16300 0.95330 0.18130 0.38400
Tb	Tb	0.67220 0.62932 0.54317 1.49600
Tb	Tb	0.61072 0.62213 0.20103 1.43100
O 	O 	0.65150 0.62470 0.34460 -0.49100
O 	O 	0.63670 0.51900 0.14720 -0.47300
O 	O 	0.74820 0.77260 0.35420 -0.48100
O 	O 	0.71720 0.65250 0.28620 -0.44600
N 	N 	0.66770 0.49770 0.29120 -0.17000
N 	N 	0.86120 0.74340 0.43850 -0.17500
O 	O 	0.67720 0.55860 0.45290 -0.52100
C 	C 	0.68810 0.49090 0.36960 -0.10500
C 	C 	0.84050 0.61390 0.37170 -0.00100
H 	H 	0.81200 0.57340 0.33380 0.02400
O 	O 	0.93430 0.86100 0.54330 -0.51300
C 	C 	0.72370 0.42660 0.42370 0.01900
H 	H 	0.73770 0.42540 0.47760 0.00600
C 	C 	0.82250 0.68440 0.38460 -0.07000
C 	C 	0.71860 0.36950 0.31730 -0.01000
H 	H 	0.72830 0.32890 0.29820 0.02900
C 	C 	0.75730 0.70460 0.33760 0.39300
C 	C 	0.68390 0.43750 0.26790 -0.06000
C 	C 	0.92240 0.73260 0.48490 -0.09300
C 	C 	0.94400 0.66280 0.47640 0.00700
H 	H 	0.98580 0.65510 0.51020 0.01300
C 	C 	0.96200 0.80150 0.54690 0.41600
C 	C 	0.73890 0.36470 0.39940 -0.09000
H 	H 	0.76190 0.32000 0.43530 0.04400
C 	C 	0.67270 0.56410 0.39220 0.42900
C 	C 	0.90150 0.60450 0.41600 -0.08600
H 	H 	0.91420 0.55920 0.40540 0.04200
O 	O 	0.01780 0.79710 0.59320 -0.49900
O 	O 	0.67710 0.39880 0.15560 -0.45300
C 	C 	0.66300 0.45330 0.18130 0.38600
Tb	Tb	0.82780 0.12932 0.95683 1.49300
Tb	Tb	0.88928 0.12213 0.29897 1.43200
O 	O 	0.84850 0.12470 0.15540 -0.49100
O 	O 	0.86330 0.01900 0.35280 -0.47200
O 	O 	0.75180 0.27260 0.14580 -0.48100
O 	O 	0.78280 0.15250 0.21380 -0.44600
N 	N 	0.83230 0.99770 0.20880 -0.17000
N 	N 	0.63880 0.24340 0.06150 -0.17500
O 	O 	0.82280 0.05860 0.04710 -0.52000
C 	C 	0.81190 0.99090 0.13040 -0.10700
C 	C 	0.65950 0.11390 0.12830 0.00000
H 	H 	0.68800 0.07340 0.16620 0.02400
O 	O 	0.56570 0.36100 0.95670 -0.51300
C 	C 	0.77630 0.92660 0.07630 0.02000
H 	H 	0.76230 0.92540 0.02240 0.00500
C 	C 	0.67750 0.18440 0.11540 -0.07000
C 	C 	0.78140 0.86950 0.18270 -0.01000
H 	H 	0.77170 0.82890 0.20180 0.02900
C 	C 	0.74270 0.20460 0.16240 0.39400
C 	C 	0.81610 0.93750 0.23210 -0.06100
C 	C 	0.57760 0.23260 0.01510 -0.09400
C 	C 	0.55600 0.16280 0.02360 0.01100
H 	H 	0.51420 0.15510 0.98980 0.01100
C 	C 	0.53800 0.30150 0.95310 0.41600
C 	C 	0.76110 0.86470 0.10060 -0.09100
H 	H 	0.73810 0.82000 0.06470 0.04400
C 	C 	0.82730 0.06410 0.10780 0.43100
C 	C 	0.59850 0.10450 0.08400 -0.08900
H 	H 	0.58580 0.05920 0.09460 0.04400
O 	O 	0.48220 0.29710 0.90680 -0.49900
O 	O 	0.82290 0.89880 0.34440 -0.45300
C 	C 	0.83700 0.95330 0.31870 0.38500
Tb	Tb	0.32780 0.62932 0.95683 1.49700
Tb	Tb	0.38928 0.62213 0.29897 1.43100
O 	O 	0.34850 0.62470 0.15540 -0.49100
O 	O 	0.36330 0.51900 0.35280 -0.47300
O 	O 	0.25180 0.77260 0.14580 -0.48100
O 	O 	0.28280 0.65250 0.21380 -0.44600
N 	N 	0.33230 0.49770 0.20880 -0.17000
N 	N 	0.13880 0.74340 0.06150 -0.17500
O 	O 	0.32280 0.55860 0.04710 -0.52100
C 	C 	0.31190 0.49090 0.13040 -0.10500
C 	C 	0.15950 0.61390 0.12830 -0.00200
H 	H 	0.18800 0.57340 0.16620 0.02400
O 	O 	0.06570 0.86100 0.95670 -0.51200
C 	C 	0.27630 0.42660 0.07630 0.01900
H 	H 	0.26230 0.42540 0.02240 0.00600
C 	C 	0.17750 0.68440 0.11540 -0.06900
C 	C 	0.28140 0.36950 0.18270 -0.01000
H 	H 	0.27170 0.32890 0.20180 0.02900
C 	C 	0.24270 0.70460 0.16240 0.39300
C 	C 	0.31610 0.43750 0.23210 -0.06000
C 	C 	0.07760 0.73260 0.01510 -0.09400
C 	C 	0.05600 0.66280 0.02360 0.00600
H 	H 	0.01420 0.65510 0.98980 0.01500
C 	C 	0.03800 0.80150 0.95310 0.41800
C 	C 	0.26110 0.36470 0.10060 -0.08900
H 	H 	0.23810 0.32000 0.06470 0.04400
C 	C 	0.32730 0.56410 0.10780 0.42900
C 	C 	0.09850 0.60450 0.08400 -0.08600
H 	H 	0.08580 0.55920 0.09460 0.04200
O 	O 	0.98220 0.79710 0.90680 -0.49900
O 	O 	0.32290 0.39880 0.34440 -0.45300
C 	C 	0.33700 0.45330 0.31870 0.38600
Tb	Tb	0.82780 0.87068 0.45683 1.49500
Tb	Tb	0.88928 0.87787 0.79897 1.43100
O 	O 	0.84850 0.87530 0.65540 -0.49100
O 	O 	0.86330 0.98100 0.85280 -0.47100
O 	O 	0.75180 0.72740 0.64580 -0.48100
O 	O 	0.78280 0.84750 0.71380 -0.44600
N 	N 	0.83230 0.00230 0.70880 -0.17000
N 	N 	0.63880 0.75660 0.56150 -0.17500
O 	O 	0.82280 0.94140 0.54710 -0.52100
C 	C 	0.81190 0.00910 0.63040 -0.10500
C 	C 	0.65950 0.88610 0.62830 -0.00100
H 	H 	0.68800 0.92660 0.66620 0.02400
O 	O 	0.56570 0.63900 0.45670 -0.51300
C 	C 	0.77630 0.07340 0.57630 0.01900
H 	H 	0.76230 0.07460 0.52240 0.00600
C 	C 	0.67750 0.81560 0.61540 -0.07000
C 	C 	0.78140 0.13050 0.68270 -0.01100
H 	H 	0.77170 0.17110 0.70180 0.02900
C 	C 	0.74270 0.79540 0.66240 0.39300
C 	C 	0.81610 0.06250 0.73210 -0.06000
C 	C 	0.57760 0.76740 0.51510 -0.09300
C 	C 	0.55600 0.83720 0.52360 0.00700
H 	H 	0.51420 0.84490 0.48980 0.01400
C 	C 	0.53800 0.69850 0.45310 0.41700
C 	C 	0.76110 0.13530 0.60060 -0.09000
H 	H 	0.73810 0.18000 0.56470 0.04400
C 	C 	0.82730 0.93590 0.60780 0.42900
C 	C 	0.59850 0.89550 0.58400 -0.08600
H 	H 	0.58580 0.94080 0.59460 0.04300
O 	O 	0.48220 0.70290 0.40680 -0.49900
O 	O 	0.82290 0.10120 0.84440 -0.45300
C 	C 	0.83700 0.04670 0.81870 0.38400
Tb	Tb	0.32780 0.37068 0.45683 1.49600
Tb	Tb	0.38928 0.37787 0.79897 1.43100
O 	O 	0.34850 0.37530 0.65540 -0.49100
O 	O 	0.36330 0.48100 0.85280 -0.47300
O 	O 	0.25180 0.22740 0.64580 -0.48100
O 	O 	0.28280 0.34750 0.71380 -0.44600
N 	N 	0.33230 0.50230 0.70880 -0.17000
N 	N 	0.13880 0.25660 0.56150 -0.17500
O 	O 	0.32280 0.44140 0.54710 -0.52100
C 	C 	0.31190 0.50910 0.63040 -0.10500
C 	C 	0.15950 0.38610 0.62830 -0.00100
H 	H 	0.18800 0.42660 0.66620 0.02400
O 	O 	0.06570 0.13900 0.45670 -0.51300
C 	C 	0.27630 0.57340 0.57630 0.01900
H 	H 	0.26230 0.57460 0.52240 0.00600
C 	C 	0.17750 0.31560 0.61540 -0.07000
C 	C 	0.28140 0.63050 0.68270 -0.01000
H 	H 	0.27170 0.67110 0.70180 0.02900
C 	C 	0.24270 0.29540 0.66240 0.39300
C 	C 	0.31610 0.56250 0.73210 -0.06000
C 	C 	0.07760 0.26740 0.51510 -0.09300
C 	C 	0.05600 0.33720 0.52360 0.00700
H 	H 	0.01420 0.34490 0.48980 0.01300
C 	C 	0.03800 0.19850 0.45310 0.41600
C 	C 	0.26110 0.63530 0.60060 -0.09000
H 	H 	0.23810 0.68000 0.56470 0.04400
C 	C 	0.32730 0.43590 0.60780 0.42900
C 	C 	0.09850 0.39550 0.58400 -0.08600
H 	H 	0.08580 0.44080 0.59460 0.04200
O 	O 	0.98220 0.20290 0.40680 -0.49900
O 	O 	0.32290 0.60120 0.84440 -0.45300
C 	C 	0.33700 0.54670 0.81870 0.38600
Tb	Tb	0.17220 0.87068 0.04317 1.49300
Tb	Tb	0.11072 0.87787 0.70103 1.43200
O 	O 	0.15150 0.87530 0.84460 -0.49100
O 	O 	0.13670 0.98100 0.64720 -0.47200
O 	O 	0.24820 0.72740 0.85420 -0.48100
O 	O 	0.21720 0.84750 0.78620 -0.44600
N 	N 	0.16770 0.00230 0.79120 -0.17000
N 	N 	0.36120 0.75660 0.93850 -0.17500
O 	O 	0.17720 0.94140 0.95290 -0.52000
C 	C 	0.18810 0.00910 0.86960 -0.10700
C 	C 	0.34050 0.88610 0.87170 0.00000
H 	H 	0.31200 0.92660 0.83380 0.02400
O 	O 	0.43430 0.63900 0.04330 -0.51300
C 	C 	0.22370 0.07340 0.92370 0.02000
H 	H 	0.23770 0.07460 0.97760 0.00500
C 	C 	0.32250 0.81560 0.88460 -0.07000
C 	C 	0.21860 0.13050 0.81730 -0.01000
H 	H 	0.22830 0.17110 0.79820 0.02900
C 	C 	0.25730 0.79540 0.83760 0.39400
C 	C 	0.18390 0.06250 0.76790 -0.06100
C 	C 	0.42240 0.76740 0.98490 -0.09400
C 	C 	0.44400 0.83720 0.97640 0.01100
H 	H 	0.48580 0.84490 0.01020 0.01100
C 	C 	0.46200 0.69850 0.04690 0.41600
C 	C 	0.23890 0.13530 0.89940 -0.09100
H 	H 	0.26190 0.18000 0.93530 0.04400
C 	C 	0.17270 0.93590 0.89220 0.43100
C 	C 	0.40150 0.89550 0.91600 -0.08900
H 	H 	0.41420 0.94080 0.90540 0.04400
O 	O 	0.51780 0.70290 0.09320 -0.49900
O 	O 	0.17710 0.10120 0.65560 -0.45300
C 	C 	0.16300 0.04670 0.68130 0.38500
Tb	Tb	0.67220 0.37068 0.04317 1.49700
Tb	Tb	0.61072 0.37787 0.70103 1.43100
O 	O 	0.65150 0.37530 0.84460 -0.49100
O 	O 	0.63670 0.48100 0.64720 -0.47300
O 	O 	0.74820 0.22740 0.85420 -0.48100
O 	O 	0.71720 0.34750 0.78620 -0.44600
N 	N 	0.66770 0.50230 0.79120 -0.17000
N 	N 	0.86120 0.25660 0.93850 -0.17500
O 	O 	0.67720 0.44140 0.95290 -0.52100
C 	C 	0.68810 0.50910 0.86960 -0.10500
C 	C 	0.84050 0.38610 0.87170 -0.00200
H 	H 	0.81200 0.42660 0.83380 0.02400
O 	O 	0.93430 0.13900 0.04330 -0.51200
C 	C 	0.72370 0.57340 0.92370 0.01900
H 	H 	0.73770 0.57460 0.97760 0.00600
C 	C 	0.82250 0.31560 0.88460 -0.06900
C 	C 	0.71860 0.63050 0.81730 -0.01000
H 	H 	0.72830 0.67110 0.79820 0.02900
C 	C 	0.75730 0.29540 0.83760 0.39300
C 	C 	0.68390 0.56250 0.76790 -0.06000
C 	C 	0.92240 0.26740 0.98490 -0.09400
C 	C 	0.94400 0.33720 0.97640 0.00600
H 	H 	0.98580 0.34490 0.01020 0.01500
C 	C 	0.96200 0.19850 0.04690 0.41800
C 	C 	0.73890 0.63530 0.89940 -0.08900
H 	H 	0.76190 0.68000 0.93530 0.04400
C 	C 	0.67270 0.43590 0.89220 0.42900
C 	C 	0.90150 0.39550 0.91600 -0.08600
H 	H 	0.91420 0.44080 0.90540 0.04200
O 	O 	0.01780 0.20290 0.09320 -0.49900
O 	O 	0.67710 0.60120 0.65560 -0.45300
C 	C 	0.66300 0.54670 0.68130 0.38600
