data_crystal

_cell_length_a 28.28100
_cell_length_b 20.84900
_cell_length_c 30.69900
_cell_angle_alpha 90.00000
_cell_angle_beta  90.99400
_cell_angle_gamma 90.00000

_symmetry_space_group_name_	'P 1'
_symmetry_space_group_name_H-M	'P 1'

loop_
_symmetry_equiv_pos_as_xyz
  x,y,z

loop_
_atom_site_label
_atom_site_type_symbol
_atom_site_fract_x
_atom_site_fract_y
_atom_site_fract_z
_atom_site_charge
Ca	Ca	0.50980 0.73800 0.31280 1.51500
O 	O 	0.44430 0.81400 0.30910 -0.41400
O 	O 	0.44560 0.76120 0.24750 -0.54500
O 	O 	0.47140 0.71350 0.38020 -0.58000
O 	O 	0.49380 0.63770 0.28580 -0.47800
O 	O 	0.53930 0.81920 0.36190 -0.48800
O 	O 	0.57040 0.68640 0.35360 -0.53800
C 	C 	0.42530 0.79580 0.27410 0.39100
Ca	Ca	0.54060 0.70880 0.43080 1.49700
C 	C 	0.45180 0.66510 0.39600 0.43700
C 	C 	0.37490 0.81440 0.26410 -0.14800
O 	O 	0.46990 0.63490 0.42720 -0.63000
O 	O 	0.58910 0.62200 0.40800 -0.44600
O 	O 	0.58750 0.80480 0.41860 -0.63300
O 	O 	0.59420 0.72420 0.49480 -0.61900
O 	O 	0.54320 0.64600 0.50160 -0.62700
C 	C 	0.40490 0.64450 0.37750 -0.21800
C 	C 	0.34890 0.78680 0.23080 0.06400
C 	C 	0.35360 0.86190 0.28900 0.05400
Ca	Ca	0.47100 0.58440 0.49670 1.48200
C 	C 	0.37870 0.68680 0.35140 0.08900
C 	C 	0.38770 0.58330 0.38500 0.10100
C 	C 	0.50420 0.50400 0.28840 0.10900
H 	H 	0.36290 0.75540 0.21370 0.00800
C 	C 	0.30300 0.80420 0.22200 -0.12700
C 	C 	0.30740 0.88060 0.27960 -0.12400
H 	H 	0.37030 0.88110 0.31180 0.02200
O 	O 	0.50770 0.50380 0.45410 -0.56000
N 	N 	0.45720 0.56970 0.58050 -0.24600
H 	H 	0.38980 0.72820 0.34670 0.00100
C 	C 	0.33610 0.66740 0.33250 -0.16100
H 	H 	0.40440 0.55520 0.40300 -0.04200
C 	C 	0.34530 0.56390 0.36540 -0.17100
C 	C 	0.50430 0.43900 0.28830 -0.17500
H 	H 	0.50700 0.52580 0.31470 -0.00200
H 	H 	0.28590 0.78260 0.20040 0.07200
C 	C 	0.28090 0.85440 0.24530 0.05700
H 	H 	0.29360 0.91180 0.29690 0.06900
C 	C 	0.52130 0.49250 0.41510 0.17700
C 	C 	0.31930 0.60510 0.33830 0.07800
H 	H 	0.31860 0.69630 0.31570 0.08600
H 	H 	0.33400 0.52270 0.37050 0.08200
H 	H 	0.50730 0.41750 0.31470 0.08700
C 	C 	0.23310 0.87920 0.23410 0.02000
C 	C 	0.27620 0.58300 0.31460 0.01100
C 	C 	0.21040 0.92170 0.26080 -0.08500
C 	C 	0.20960 0.86310 0.19430 -0.07900
C 	C 	0.24480 0.53840 0.33250 -0.08100
C 	C 	0.26710 0.60420 0.27200 -0.08600
C 	C 	0.49050 0.29850 0.28730 -0.02000
C 	C 	0.16660 0.94890 0.25020 0.01600
H 	H 	0.22490 0.93300 0.28710 0.05700
C 	C 	0.16620 0.88880 0.18250 0.00200
H 	H 	0.22390 0.83430 0.17550 0.05200
H 	H 	0.25020 0.52320 0.36060 0.04900
C 	C 	0.20550 0.51650 0.30860 0.01400
C 	C 	0.22830 0.58400 0.24800 0.02200
H 	H 	0.28810 0.63300 0.25940 0.05900
C 	C 	0.49090 0.23030 0.28840 -0.07600
H 	H 	0.48350 0.32090 0.31260 0.02900
C 	C 	0.14520 0.93250 0.21050 -0.07900
C 	C 	0.14520 0.99720 0.27960 0.07800
C 	C 	0.14350 0.87230 0.13950 0.10000
C 	C 	0.19800 0.53950 0.26710 -0.08800
C 	C 	0.17200 0.47010 0.32830 0.08400
C 	C 	0.22140 0.60690 0.20240 0.05900
C 	C 	0.48160 0.19650 0.33030 0.21200
H 	H 	0.11640 0.95110 0.20260 0.05700
C 	C 	0.12490 0.05270 0.26430 -0.15200
C 	C 	0.14720 0.98720 0.32420 -0.14700
C 	C 	0.10050 0.89740 0.12660 -0.19500
C 	C 	0.16530 0.83140 0.11030 -0.19300
H 	H 	0.17190 0.52490 0.25120 0.05900
C 	C 	0.18850 0.42420 0.35920 -0.17900
C 	C 	0.12470 0.46720 0.31550 -0.16600
C 	C 	0.17610 0.61310 0.18320 -0.13100
C 	C 	0.25970 0.62420 0.17780 -0.13200
C 	C 	0.49660 0.13790 0.33680 -0.26900
C 	C 	0.46060 0.22310 0.36330 -0.30200
H 	H 	0.12290 0.05980 0.23440 0.08900
C 	C 	0.10730 0.09840 0.29250 0.08300
H 	H 	0.16100 0.94990 0.33520 0.07400
C 	C 	0.12890 0.03210 0.35270 0.07700
C 	C 	0.07940 0.88320 0.08640 0.12600
H 	H 	0.08500 0.92490 0.14540 0.09000
H 	H 	0.19470 0.81400 0.11750 0.09200
C 	C 	0.14390 0.81600 0.07070 0.14100
H 	H 	0.22030 0.42370 0.36760 0.08100
C 	C 	0.15770 0.38040 0.37660 0.11300
C 	C 	0.09450 0.42230 0.33310 0.11000
H 	H 	0.11310 0.49590 0.29470 0.08400
C 	C 	0.17020 0.63310 0.14120 0.06400
H 	H 	0.14960 0.60340 0.19960 0.07400
H 	H 	0.29000 0.62160 0.18990 0.07900
C 	C 	0.25370 0.64530 0.13490 0.05500
C 	C 	0.48870 0.10600 0.37820 0.19000
H 	H 	0.51260 0.11660 0.31490 0.11900
C 	C 	0.45480 0.19430 0.40310 0.22100
H 	H 	0.44870 0.26440 0.35960 0.13300
H 	H 	0.09440 0.13630 0.28160 -0.00300
C 	C 	0.10880 0.08780 0.33690 -0.16400
H 	H 	0.13020 0.02450 0.38250 0.00400
H 	H 	0.05090 0.90230 0.07830 -0.04600
C 	C 	0.10110 0.84060 0.05870 -0.24900
H 	H 	0.15920 0.78830 0.05180 -0.03400
H 	H 	0.16880 0.35150 0.39750 -0.07200
C 	C 	0.11070 0.37850 0.36370 -0.22800
H 	H 	0.06280 0.42170 0.32430 -0.00400
C 	C 	0.20840 0.64840 0.11600 -0.14600
H 	H 	0.13980 0.63640 0.12930 0.02000
H 	H 	0.27980 0.65740 0.11890 0.01500
C 	C 	0.46770 0.13450 0.41030 -0.28400
H 	H 	0.49890 0.06390 0.38180 -0.02400
H 	H 	0.44130 0.21760 0.42550 -0.06200
C 	C 	0.08850 0.13470 0.36810 0.37600
C 	C 	0.07820 0.82320 0.01560 0.46800
C 	C 	0.07670 0.33060 0.38210 0.43700
C 	C 	0.20180 0.66770 0.06910 0.38900
C 	C 	0.45980 0.10330 0.45360 0.42300
O 	O 	0.16230 0.65760 0.05210 -0.49400
O 	O 	0.23560 0.69230 0.05010 -0.33100
O 	O 	0.44800 0.13650 0.48540 -0.49300
O 	O 	0.46660 0.04480 0.45660 -0.29100
Ca	Ca	0.12390 0.67150 0.98630 1.49400
Ca	Ca	0.00980 0.23800 0.31280 1.51500
O 	O 	0.94430 0.31400 0.30910 -0.41200
O 	O 	0.94560 0.26120 0.24750 -0.54400
O 	O 	0.97140 0.21350 0.38020 -0.57800
O 	O 	0.99380 0.13770 0.28580 -0.47300
O 	O 	0.03930 0.31920 0.36190 -0.48900
O 	O 	0.07040 0.18640 0.35360 -0.53900
C 	C 	0.92530 0.29580 0.27410 0.39000
Ca	Ca	0.04060 0.20880 0.43080 1.49700
C 	C 	0.95180 0.16510 0.39600 0.43700
C 	C 	0.87490 0.31440 0.26410 -0.14700
O 	O 	0.96990 0.13490 0.42720 -0.62800
O 	O 	0.08910 0.12200 0.40800 -0.44700
O 	O 	0.08750 0.30480 0.41860 -0.63300
O 	O 	0.09420 0.22420 0.49480 -0.61900
O 	O 	0.04320 0.14600 0.50160 -0.62800
C 	C 	0.90490 0.14450 0.37750 -0.21700
C 	C 	0.84890 0.28680 0.23080 0.06300
C 	C 	0.85360 0.36190 0.28900 0.05400
Ca	Ca	0.97100 0.08440 0.49670 1.48200
C 	C 	0.87870 0.18680 0.35140 0.08800
C 	C 	0.88770 0.08330 0.38500 0.10000
C 	C 	0.00420 0.00400 0.28840 0.10900
H 	H 	0.86290 0.25540 0.21370 0.00800
C 	C 	0.80300 0.30420 0.22200 -0.12700
C 	C 	0.80740 0.38060 0.27960 -0.12300
H 	H 	0.87030 0.38110 0.31180 0.02300
O 	O 	0.00770 0.00380 0.45410 -0.56200
N 	N 	0.95720 0.06970 0.58050 -0.24500
H 	H 	0.88980 0.22820 0.34670 0.00100
C 	C 	0.83610 0.16740 0.33250 -0.16000
H 	H 	0.90440 0.05520 0.40300 -0.04200
C 	C 	0.84530 0.06390 0.36540 -0.17100
C 	C 	0.00430 0.93900 0.28830 -0.17500
H 	H 	0.00700 0.02580 0.31470 -0.00200
H 	H 	0.78590 0.28260 0.20040 0.07200
C 	C 	0.78090 0.35440 0.24530 0.05700
H 	H 	0.79360 0.41180 0.29690 0.06900
C 	C 	0.02130 0.99250 0.41510 0.17600
C 	C 	0.81930 0.10510 0.33830 0.07800
H 	H 	0.81860 0.19630 0.31570 0.08500
H 	H 	0.83400 0.02270 0.37050 0.08200
H 	H 	0.00730 0.91750 0.31470 0.08600
C 	C 	0.73310 0.37920 0.23410 0.02100
C 	C 	0.77620 0.08300 0.31460 0.01100
C 	C 	0.71040 0.42170 0.26080 -0.08500
C 	C 	0.70960 0.36310 0.19430 -0.07900
C 	C 	0.74480 0.03840 0.33250 -0.08100
C 	C 	0.76710 0.10420 0.27200 -0.08600
C 	C 	0.99050 0.79850 0.28730 -0.01900
C 	C 	0.66660 0.44890 0.25020 0.01600
H 	H 	0.72490 0.43300 0.28710 0.05700
C 	C 	0.66620 0.38880 0.18250 0.00300
H 	H 	0.72390 0.33430 0.17550 0.05200
H 	H 	0.75020 0.02320 0.36060 0.04900
C 	C 	0.70550 0.01650 0.30860 0.01400
C 	C 	0.72830 0.08400 0.24800 0.02200
H 	H 	0.78810 0.13300 0.25940 0.05900
C 	C 	0.99090 0.73030 0.28840 -0.06600
H 	H 	0.98350 0.82090 0.31260 0.03100
C 	C 	0.64520 0.43250 0.21050 -0.07900
C 	C 	0.64520 0.49720 0.27960 0.07800
C 	C 	0.64350 0.37230 0.13950 0.10000
C 	C 	0.69800 0.03950 0.26710 -0.08800
C 	C 	0.67200 0.97010 0.32830 0.08400
C 	C 	0.72140 0.10690 0.20240 0.05900
C 	C 	0.98160 0.69650 0.33030 0.19700
H 	H 	0.61640 0.45110 0.20260 0.05700
C 	C 	0.62490 0.55270 0.26430 -0.15200
C 	C 	0.64720 0.48720 0.32420 -0.14700
C 	C 	0.60050 0.39740 0.12660 -0.19500
C 	C 	0.66530 0.33140 0.11030 -0.19300
H 	H 	0.67190 0.02490 0.25120 0.05900
C 	C 	0.68850 0.92420 0.35920 -0.17900
C 	C 	0.62470 0.96720 0.31550 -0.16500
C 	C 	0.67610 0.11310 0.18320 -0.13100
C 	C 	0.75970 0.12420 0.17780 -0.13200
C 	C 	0.99660 0.63790 0.33680 -0.24700
C 	C 	0.96060 0.72310 0.36330 -0.28700
H 	H 	0.62290 0.55980 0.23440 0.08900
C 	C 	0.60730 0.59840 0.29250 0.08300
H 	H 	0.66100 0.44990 0.33520 0.07400
C 	C 	0.62890 0.53210 0.35270 0.07700
C 	C 	0.57940 0.38320 0.08640 0.12500
H 	H 	0.58500 0.42490 0.14540 0.09100
H 	H 	0.69470 0.31400 0.11750 0.09200
C 	C 	0.64390 0.31600 0.07070 0.14000
H 	H 	0.72030 0.92370 0.36760 0.08100
C 	C 	0.65770 0.88040 0.37660 0.11200
C 	C 	0.59450 0.92230 0.33310 0.10900
H 	H 	0.61310 0.99590 0.29470 0.08400
C 	C 	0.67020 0.13310 0.14120 0.06400
H 	H 	0.64960 0.10340 0.19960 0.07400
H 	H 	0.79000 0.12160 0.18990 0.07900
C 	C 	0.75370 0.14530 0.13490 0.05500
C 	C 	0.98870 0.60600 0.37820 0.17600
H 	H 	0.01260 0.61660 0.31490 0.10900
C 	C 	0.95480 0.69430 0.40310 0.20700
H 	H 	0.94870 0.76440 0.35960 0.12800
H 	H 	0.59440 0.63630 0.28160 -0.00300
C 	C 	0.60880 0.58780 0.33690 -0.16400
H 	H 	0.63020 0.52450 0.38250 0.00500
H 	H 	0.55090 0.40230 0.07830 -0.04500
C 	C 	0.60110 0.34060 0.05870 -0.24800
H 	H 	0.65920 0.28830 0.05180 -0.03400
H 	H 	0.66880 0.85150 0.39750 -0.07100
C 	C 	0.61070 0.87850 0.36370 -0.22700
H 	H 	0.56280 0.92170 0.32430 -0.00300
C 	C 	0.70840 0.14840 0.11600 -0.14600
H 	H 	0.63980 0.13640 0.12930 0.02000
H 	H 	0.77980 0.15740 0.11890 0.01500
C 	C 	0.96770 0.63450 0.41030 -0.27200
H 	H 	0.99890 0.56390 0.38180 -0.01800
H 	H 	0.94130 0.71760 0.42550 -0.05800
C 	C 	0.58850 0.63470 0.36810 0.37600
C 	C 	0.57820 0.32320 0.01560 0.46800
C 	C 	0.57670 0.83060 0.38210 0.43700
C 	C 	0.70180 0.16770 0.06910 0.38900
C 	C 	0.95980 0.60330 0.45360 0.41800
O 	O 	0.66230 0.15760 0.05210 -0.49400
O 	O 	0.73560 0.19230 0.05010 -0.33100
O 	O 	0.94800 0.63650 0.48540 -0.49100
O 	O 	0.96660 0.54480 0.45660 -0.28800
Ca	Ca	0.62390 0.17150 0.98630 1.49400
Ca	Ca	0.49020 0.73800 0.18720 1.51600
O 	O 	0.55570 0.81400 0.19090 -0.41400
O 	O 	0.55440 0.76120 0.25250 -0.54500
O 	O 	0.52860 0.71350 0.11980 -0.58000
O 	O 	0.50620 0.63770 0.21420 -0.47800
O 	O 	0.46070 0.81920 0.13810 -0.48700
O 	O 	0.42960 0.68640 0.14640 -0.53800
C 	C 	0.57470 0.79580 0.22590 0.39100
Ca	Ca	0.45940 0.70880 0.06920 1.49700
C 	C 	0.54820 0.66510 0.10400 0.43700
C 	C 	0.62510 0.81440 0.23590 -0.14700
O 	O 	0.53010 0.63490 0.07280 -0.63000
O 	O 	0.41090 0.62200 0.09200 -0.44600
O 	O 	0.41250 0.80480 0.08140 -0.63300
O 	O 	0.40580 0.72420 0.00520 -0.61900
O 	O 	0.45680 0.64600 0.99840 -0.62600
C 	C 	0.59510 0.64450 0.12250 -0.21800
C 	C 	0.65110 0.78680 0.26920 0.06400
C 	C 	0.64640 0.86190 0.21100 0.05400
Ca	Ca	0.52900 0.58440 0.00330 1.48200
C 	C 	0.62130 0.68680 0.14860 0.08900
C 	C 	0.61230 0.58330 0.11500 0.10100
C 	C 	0.49580 0.50400 0.21160 0.10900
H 	H 	0.63710 0.75540 0.28630 0.00800
C 	C 	0.69700 0.80420 0.27800 -0.12700
C 	C 	0.69260 0.88060 0.22040 -0.12400
H 	H 	0.62970 0.88110 0.18820 0.02300
O 	O 	0.49230 0.50380 0.04590 -0.56000
N 	N 	0.54280 0.56970 0.91950 -0.24600
H 	H 	0.61020 0.72820 0.15330 0.00100
C 	C 	0.66390 0.66740 0.16750 -0.16000
H 	H 	0.59560 0.55520 0.09700 -0.04200
C 	C 	0.65470 0.56390 0.13460 -0.17100
C 	C 	0.49570 0.43900 0.21170 -0.17500
H 	H 	0.49300 0.52580 0.18530 -0.00200
H 	H 	0.71410 0.78260 0.29960 0.07200
C 	C 	0.71910 0.85440 0.25470 0.05700
H 	H 	0.70640 0.91180 0.20310 0.06900
C 	C 	0.47870 0.49250 0.08490 0.17700
C 	C 	0.68070 0.60510 0.16170 0.07800
H 	H 	0.68140 0.69630 0.18430 0.08600
H 	H 	0.66600 0.52270 0.12950 0.08200
H 	H 	0.49270 0.41750 0.18530 0.08700
C 	C 	0.76690 0.87920 0.26590 0.02100
C 	C 	0.72380 0.58300 0.18540 0.01100
C 	C 	0.78960 0.92170 0.23920 -0.08500
C 	C 	0.79040 0.86310 0.30570 -0.08000
C 	C 	0.75520 0.53840 0.16750 -0.08100
C 	C 	0.73290 0.60420 0.22800 -0.08600
C 	C 	0.50950 0.29850 0.21270 -0.02000
C 	C 	0.83340 0.94890 0.24980 0.01600
H 	H 	0.77510 0.93300 0.21290 0.05700
C 	C 	0.83380 0.88880 0.31750 0.00300
H 	H 	0.77610 0.83430 0.32450 0.05200
H 	H 	0.74980 0.52320 0.13940 0.04900
C 	C 	0.79450 0.51650 0.19140 0.01400
C 	C 	0.77170 0.58400 0.25200 0.02200
H 	H 	0.71190 0.63300 0.24060 0.05900
C 	C 	0.50910 0.23030 0.21160 -0.07600
H 	H 	0.51650 0.32090 0.18740 0.02900
C 	C 	0.85480 0.93250 0.28950 -0.08000
C 	C 	0.85480 0.99720 0.22040 0.07800
C 	C 	0.85650 0.87230 0.36050 0.09900
C 	C 	0.80200 0.53950 0.23290 -0.08800
C 	C 	0.82800 0.47010 0.17170 0.08400
C 	C 	0.77860 0.60690 0.29760 0.06000
C 	C 	0.51840 0.19650 0.16970 0.21200
H 	H 	0.88360 0.95110 0.29740 0.05700
C 	C 	0.87510 0.05270 0.23570 -0.15100
C 	C 	0.85280 0.98720 0.17580 -0.14700
C 	C 	0.89950 0.89740 0.37340 -0.19400
C 	C 	0.83470 0.83140 0.38970 -0.19200
H 	H 	0.82810 0.52490 0.24880 0.05900
C 	C 	0.81150 0.42420 0.14080 -0.17800
C 	C 	0.87530 0.46720 0.18450 -0.16500
C 	C 	0.82390 0.61310 0.31680 -0.13100
C 	C 	0.74030 0.62420 0.32220 -0.13200
C 	C 	0.50340 0.13790 0.16320 -0.26800
C 	C 	0.53940 0.22310 0.13670 -0.30200
H 	H 	0.87710 0.05980 0.26560 0.08900
C 	C 	0.89270 0.09840 0.20750 0.08300
H 	H 	0.83900 0.94990 0.16480 0.07400
C 	C 	0.87110 0.03210 0.14730 0.07700
C 	C 	0.92060 0.88320 0.41360 0.12500
H 	H 	0.91500 0.92490 0.35460 0.09100
H 	H 	0.80530 0.81400 0.38250 0.09200
C 	C 	0.85610 0.81600 0.42930 0.14000
H 	H 	0.77970 0.42370 0.13240 0.08100
C 	C 	0.84230 0.38040 0.12340 0.11200
C 	C 	0.90550 0.42230 0.16690 0.10900
H 	H 	0.88690 0.49590 0.20530 0.08400
C 	C 	0.82980 0.63310 0.35880 0.06400
H 	H 	0.85040 0.60340 0.30040 0.07500
H 	H 	0.71000 0.62160 0.31010 0.07900
C 	C 	0.74630 0.64530 0.36510 0.05600
C 	C 	0.51130 0.10600 0.12180 0.19000
H 	H 	0.48740 0.11660 0.18510 0.11900
C 	C 	0.54520 0.19430 0.09690 0.22100
H 	H 	0.55130 0.26440 0.14040 0.13300
H 	H 	0.90560 0.13630 0.21840 -0.00200
C 	C 	0.89120 0.08780 0.16310 -0.16400
H 	H 	0.86980 0.02450 0.11750 0.00500
H 	H 	0.94910 0.90230 0.42170 -0.04400
C 	C 	0.89890 0.84060 0.44130 -0.24800
H 	H 	0.84080 0.78830 0.44820 -0.03400
H 	H 	0.83120 0.35150 0.10250 -0.07100
C 	C 	0.88930 0.37850 0.13630 -0.22600
H 	H 	0.93720 0.42170 0.17570 -0.00200
C 	C 	0.79160 0.64840 0.38400 -0.14600
H 	H 	0.86020 0.63640 0.37070 0.02000
H 	H 	0.72020 0.65740 0.38110 0.01500
C 	C 	0.53230 0.13450 0.08970 -0.28400
H 	H 	0.50110 0.06390 0.11820 -0.02400
H 	H 	0.55870 0.21760 0.07450 -0.06200
C 	C 	0.91150 0.13470 0.13190 0.37600
C 	C 	0.92180 0.82320 0.48440 0.46700
C 	C 	0.92330 0.33060 0.11790 0.43700
C 	C 	0.79820 0.66770 0.43090 0.38900
C 	C 	0.54020 0.10330 0.04640 0.42300
O 	O 	0.83770 0.65760 0.44790 -0.49400
O 	O 	0.76440 0.69230 0.44990 -0.33200
O 	O 	0.55200 0.13650 0.01460 -0.49200
O 	O 	0.53340 0.04480 0.04340 -0.29100
Ca	Ca	0.87610 0.67150 0.51370 1.49400
Ca	Ca	0.99020 0.23800 0.18720 1.51700
O 	O 	0.05570 0.31400 0.19090 -0.41500
O 	O 	0.05440 0.26120 0.25250 -0.54600
O 	O 	0.02860 0.21350 0.11980 -0.58200
O 	O 	0.00620 0.13770 0.21420 -0.47800
O 	O 	0.96070 0.31920 0.13810 -0.48600
O 	O 	0.92960 0.18640 0.14640 -0.53700
C 	C 	0.07470 0.29580 0.22590 0.39100
Ca	Ca	0.95940 0.20880 0.06920 1.49700
C 	C 	0.04820 0.16510 0.10400 0.43800
C 	C 	0.12510 0.31440 0.23590 -0.14800
O 	O 	0.03010 0.13490 0.07280 -0.63200
O 	O 	0.91090 0.12200 0.09200 -0.44600
O 	O 	0.91250 0.30480 0.08140 -0.63200
O 	O 	0.90580 0.22420 0.00520 -0.61900
O 	O 	0.95680 0.14600 0.99840 -0.62500
C 	C 	0.09510 0.14450 0.12250 -0.21800
C 	C 	0.15110 0.28680 0.26920 0.06400
C 	C 	0.14640 0.36190 0.21100 0.05400
Ca	Ca	0.02900 0.08440 0.00330 1.48200
C 	C 	0.12130 0.18680 0.14860 0.08900
C 	C 	0.11230 0.08330 0.11500 0.10100
C 	C 	0.99580 0.00400 0.21160 0.11300
H 	H 	0.13710 0.25540 0.28630 0.00800
C 	C 	0.19700 0.30420 0.27800 -0.12700
C 	C 	0.19260 0.38060 0.22040 -0.12400
H 	H 	0.12970 0.38110 0.18820 0.02200
O 	O 	0.99230 0.00380 0.04590 -0.55800
N 	N 	0.04280 0.06970 0.91950 -0.24600
H 	H 	0.11020 0.22820 0.15330 0.00100
C 	C 	0.16390 0.16740 0.16750 -0.16100
H 	H 	0.09560 0.05520 0.09700 -0.04300
C 	C 	0.15470 0.06390 0.13460 -0.17200
C 	C 	0.99570 0.93900 0.21170 -0.17100
H 	H 	0.99300 0.02580 0.18530 -0.00100
H 	H 	0.21410 0.28260 0.29960 0.07300
C 	C 	0.21910 0.35440 0.25470 0.05700
H 	H 	0.20640 0.41180 0.20310 0.07000
C 	C 	0.97870 0.99250 0.08490 0.17800
C 	C 	0.18070 0.10510 0.16170 0.07800
H 	H 	0.18140 0.19630 0.18430 0.08600
H 	H 	0.16600 0.02270 0.12950 0.08200
H 	H 	0.99270 0.91750 0.18530 0.08700
C 	C 	0.26690 0.37920 0.26590 0.02000
C 	C 	0.22380 0.08300 0.18540 0.01100
C 	C 	0.28960 0.42170 0.23920 -0.08500
C 	C 	0.29040 0.36310 0.30570 -0.07900
C 	C 	0.25520 0.03840 0.16750 -0.08100
C 	C 	0.23290 0.10420 0.22800 -0.08600
C 	C 	0.00950 0.79850 0.21270 -0.01900
C 	C 	0.33340 0.44890 0.24980 0.01600
H 	H 	0.27510 0.43300 0.21290 0.05700
C 	C 	0.33380 0.38880 0.31750 0.00300
H 	H 	0.27610 0.33430 0.32450 0.05200
H 	H 	0.24980 0.02320 0.13940 0.04900
C 	C 	0.29450 0.01650 0.19140 0.01400
C 	C 	0.27170 0.08400 0.25200 0.02200
H 	H 	0.21190 0.13300 0.24060 0.05900
C 	C 	0.00910 0.73030 0.21160 -0.07800
H 	H 	0.01650 0.82090 0.18740 0.02800
C 	C 	0.35480 0.43250 0.28950 -0.07900
C 	C 	0.35480 0.49720 0.22040 0.07800
C 	C 	0.35650 0.37230 0.36050 0.10000
C 	C 	0.30200 0.03950 0.23290 -0.08800
C 	C 	0.32800 0.97010 0.17170 0.08400
C 	C 	0.27860 0.10690 0.29760 0.05900
C 	C 	0.01840 0.69650 0.16970 0.22100
H 	H 	0.38360 0.45110 0.29740 0.05700
C 	C 	0.37510 0.55270 0.23570 -0.15200
C 	C 	0.35280 0.48720 0.17580 -0.14700
C 	C 	0.39950 0.39740 0.37340 -0.19500
C 	C 	0.33470 0.33140 0.38970 -0.19300
H 	H 	0.32810 0.02490 0.24880 0.05900
C 	C 	0.31150 0.92420 0.14080 -0.17900
C 	C 	0.37530 0.96720 0.18450 -0.16500
C 	C 	0.32390 0.11310 0.31680 -0.13100
C 	C 	0.24030 0.12420 0.32220 -0.13200
C 	C 	0.00340 0.63790 0.16320 -0.28400
C 	C 	0.03940 0.72310 0.13670 -0.31100
H 	H 	0.37710 0.55980 0.26560 0.08900
C 	C 	0.39270 0.59840 0.20750 0.08300
H 	H 	0.33900 0.44990 0.16480 0.07400
C 	C 	0.37110 0.53210 0.14730 0.07700
C 	C 	0.42060 0.38320 0.41360 0.12500
H 	H 	0.41500 0.42490 0.35460 0.09100
H 	H 	0.30530 0.31400 0.38250 0.09200
C 	C 	0.35610 0.31600 0.42930 0.14000
H 	H 	0.27970 0.92370 0.13240 0.08100
C 	C 	0.34230 0.88040 0.12340 0.11200
C 	C 	0.40550 0.92230 0.16690 0.10900
H 	H 	0.38690 0.99590 0.20530 0.08400
C 	C 	0.32980 0.13310 0.35880 0.06400
H 	H 	0.35040 0.10340 0.30040 0.07400
H 	H 	0.21000 0.12160 0.31010 0.07900
C 	C 	0.24630 0.14530 0.36510 0.05500
C 	C 	0.01130 0.60600 0.12180 0.20100
H 	H 	0.98740 0.61660 0.18510 0.12800
C 	C 	0.04520 0.69430 0.09690 0.22900
H 	H 	0.05130 0.76440 0.14040 0.13600
H 	H 	0.40560 0.63630 0.21840 -0.00300
C 	C 	0.39120 0.58780 0.16310 -0.16400
H 	H 	0.36980 0.52450 0.11750 0.00500
H 	H 	0.44910 0.40230 0.42170 -0.04500
C 	C 	0.39890 0.34060 0.44130 -0.24800
H 	H 	0.34080 0.28830 0.44820 -0.03400
H 	H 	0.33120 0.85150 0.10250 -0.07100
C 	C 	0.38930 0.87850 0.13630 -0.22700
H 	H 	0.43720 0.92170 0.17570 -0.00300
C 	C 	0.29160 0.14840 0.38400 -0.14600
H 	H 	0.36020 0.13640 0.37070 0.02000
H 	H 	0.22020 0.15740 0.38110 0.01500
C 	C 	0.03230 0.63450 0.08970 -0.29200
H 	H 	0.00110 0.56390 0.11820 -0.02900
H 	H 	0.05870 0.71760 0.07450 -0.06500
C 	C 	0.41150 0.63470 0.13190 0.37600
C 	C 	0.42180 0.32320 0.48440 0.46700
C 	C 	0.42330 0.83060 0.11790 0.43700
C 	C 	0.29820 0.16770 0.43090 0.38900
C 	C 	0.04020 0.60330 0.04640 0.42600
O 	O 	0.33770 0.15760 0.44790 -0.49400
O 	O 	0.26440 0.19230 0.44990 -0.33200
O 	O 	0.05200 0.63650 0.01460 -0.49300
O 	O 	0.03340 0.54480 0.04340 -0.29200
Ca	Ca	0.37610 0.17150 0.51370 1.49400
Ca	Ca	0.49020 0.26200 0.68720 1.51600
O 	O 	0.55570 0.18600 0.69090 -0.41400
O 	O 	0.55440 0.23880 0.75250 -0.54500
O 	O 	0.52860 0.28650 0.61980 -0.58000
O 	O 	0.50620 0.36230 0.71420 -0.47800
O 	O 	0.46070 0.18080 0.63810 -0.48800
O 	O 	0.42960 0.31360 0.64640 -0.53800
C 	C 	0.57470 0.20420 0.72590 0.39100
Ca	Ca	0.45940 0.29120 0.56920 1.49700
C 	C 	0.54820 0.33490 0.60400 0.43700
C 	C 	0.62510 0.18560 0.73590 -0.14700
O 	O 	0.53010 0.36510 0.57280 -0.63000
O 	O 	0.41090 0.37800 0.59200 -0.44600
O 	O 	0.41250 0.19520 0.58140 -0.63300
O 	O 	0.40580 0.27580 0.50520 -0.61900
O 	O 	0.45680 0.35400 0.49840 -0.62700
C 	C 	0.59510 0.35550 0.62250 -0.21800
C 	C 	0.65110 0.21320 0.76920 0.06400
C 	C 	0.64640 0.13810 0.71100 0.05400
Ca	Ca	0.52900 0.41560 0.50330 1.48200
C 	C 	0.62130 0.31320 0.64860 0.08900
C 	C 	0.61230 0.41670 0.61500 0.10100
C 	C 	0.49580 0.49600 0.71160 0.10900
H 	H 	0.63710 0.24460 0.78630 0.00800
C 	C 	0.69700 0.19580 0.77800 -0.12700
C 	C 	0.69260 0.11940 0.72040 -0.12400
H 	H 	0.62970 0.11890 0.68820 0.02200
O 	O 	0.49230 0.49620 0.54590 -0.56000
N 	N 	0.54280 0.43030 0.41950 -0.24600
H 	H 	0.61020 0.27180 0.65330 0.00100
C 	C 	0.66390 0.33260 0.66750 -0.16100
H 	H 	0.59560 0.44480 0.59700 -0.04200
C 	C 	0.65470 0.43610 0.63460 -0.17100
C 	C 	0.49570 0.56100 0.71170 -0.17500
H 	H 	0.49300 0.47420 0.68530 -0.00200
H 	H 	0.71410 0.21740 0.79960 0.07200
C 	C 	0.71910 0.14560 0.75470 0.05700
H 	H 	0.70640 0.08820 0.70310 0.06900
C 	C 	0.47870 0.50750 0.58490 0.17700
C 	C 	0.68070 0.39490 0.66170 0.07800
H 	H 	0.68140 0.30370 0.68430 0.08600
H 	H 	0.66600 0.47730 0.62950 0.08200
H 	H 	0.49270 0.58250 0.68530 0.08700
C 	C 	0.76690 0.12080 0.76590 0.02100
C 	C 	0.72380 0.41700 0.68540 0.01100
C 	C 	0.78960 0.07830 0.73920 -0.08500
C 	C 	0.79040 0.13690 0.80570 -0.08000
C 	C 	0.75520 0.46160 0.66750 -0.08100
C 	C 	0.73290 0.39580 0.72800 -0.08600
C 	C 	0.50950 0.70150 0.71270 -0.02000
C 	C 	0.83340 0.05110 0.74980 0.01600
H 	H 	0.77510 0.06700 0.71290 0.05700
C 	C 	0.83380 0.11120 0.81750 0.00300
H 	H 	0.77610 0.16570 0.82450 0.05200
H 	H 	0.74980 0.47680 0.63940 0.04900
C 	C 	0.79450 0.48350 0.69140 0.01400
C 	C 	0.77170 0.41600 0.75200 0.02200
H 	H 	0.71190 0.36700 0.74060 0.05900
C 	C 	0.50910 0.76970 0.71160 -0.07600
H 	H 	0.51650 0.67910 0.68740 0.02900
C 	C 	0.85480 0.06750 0.78950 -0.08000
C 	C 	0.85480 0.00280 0.72040 0.07800
C 	C 	0.85650 0.12770 0.86050 0.09900
C 	C 	0.80200 0.46050 0.73290 -0.08800
C 	C 	0.82800 0.52990 0.67170 0.08400
C 	C 	0.77860 0.39310 0.79760 0.06000
C 	C 	0.51840 0.80350 0.66970 0.21200
H 	H 	0.88360 0.04890 0.79740 0.05800
C 	C 	0.87510 0.94730 0.73570 -0.15100
C 	C 	0.85280 0.01280 0.67580 -0.14700
C 	C 	0.89950 0.10260 0.87340 -0.19400
C 	C 	0.83470 0.16860 0.88970 -0.19200
H 	H 	0.82810 0.47510 0.74880 0.05900
C 	C 	0.81150 0.57580 0.64080 -0.17800
C 	C 	0.87530 0.53280 0.68450 -0.16500
C 	C 	0.82390 0.38690 0.81680 -0.13100
C 	C 	0.74030 0.37580 0.82220 -0.13200
C 	C 	0.50340 0.86210 0.66320 -0.26900
C 	C 	0.53940 0.77690 0.63670 -0.30200
H 	H 	0.87710 0.94020 0.76560 0.08900
C 	C 	0.89270 0.90160 0.70750 0.08300
H 	H 	0.83900 0.05010 0.66480 0.07400
C 	C 	0.87110 0.96790 0.64730 0.07700
C 	C 	0.92060 0.11680 0.91360 0.12500
H 	H 	0.91500 0.07510 0.85460 0.09100
H 	H 	0.80530 0.18600 0.88250 0.09200
C 	C 	0.85610 0.18400 0.92930 0.14000
H 	H 	0.77970 0.57630 0.63240 0.08100
C 	C 	0.84230 0.61960 0.62340 0.11200
C 	C 	0.90550 0.57770 0.66690 0.10900
H 	H 	0.88690 0.50410 0.70530 0.08400
C 	C 	0.82980 0.36690 0.85880 0.06400
H 	H 	0.85040 0.39660 0.80040 0.07500
H 	H 	0.71000 0.37840 0.81010 0.07900
C 	C 	0.74630 0.35470 0.86510 0.05600
C 	C 	0.51130 0.89400 0.62180 0.19000
H 	H 	0.48740 0.88340 0.68510 0.11900
C 	C 	0.54520 0.80570 0.59690 0.22100
H 	H 	0.55130 0.73560 0.64040 0.13300
H 	H 	0.90560 0.86370 0.71840 -0.00200
C 	C 	0.89120 0.91220 0.66310 -0.16400
H 	H 	0.86980 0.97550 0.61750 0.00500
H 	H 	0.94910 0.09770 0.92170 -0.04400
C 	C 	0.89890 0.15940 0.94130 -0.24800
H 	H 	0.84080 0.21170 0.94820 -0.03400
H 	H 	0.83120 0.64850 0.60250 -0.07100
C 	C 	0.88930 0.62150 0.63630 -0.22600
H 	H 	0.93720 0.57830 0.67570 -0.00200
C 	C 	0.79160 0.35160 0.88400 -0.14600
H 	H 	0.86020 0.36360 0.87070 0.02000
H 	H 	0.72020 0.34260 0.88110 0.01500
C 	C 	0.53230 0.86550 0.58970 -0.28400
H 	H 	0.50110 0.93610 0.61820 -0.02400
H 	H 	0.55870 0.78240 0.57450 -0.06200
C 	C 	0.91150 0.86530 0.63190 0.37600
C 	C 	0.92180 0.17680 0.98440 0.46700
C 	C 	0.92330 0.66940 0.61790 0.43700
C 	C 	0.79820 0.33230 0.93090 0.38900
C 	C 	0.54020 0.89670 0.54640 0.42300
O 	O 	0.83770 0.34240 0.94790 -0.49400
O 	O 	0.76440 0.30770 0.94990 -0.33100
O 	O 	0.55200 0.86350 0.51460 -0.49300
O 	O 	0.53340 0.95520 0.54340 -0.29100
Ca	Ca	0.87610 0.32850 0.01370 1.49400
Ca	Ca	0.99020 0.76200 0.68720 1.51700
O 	O 	0.05570 0.68600 0.69090 -0.41500
O 	O 	0.05440 0.73880 0.75250 -0.54600
O 	O 	0.02860 0.78650 0.61980 -0.58200
O 	O 	0.00620 0.86230 0.71420 -0.47900
O 	O 	0.96070 0.68080 0.63810 -0.48600
O 	O 	0.92960 0.81360 0.64640 -0.53700
C 	C 	0.07470 0.70420 0.72590 0.39100
Ca	Ca	0.95940 0.79120 0.56920 1.49700
C 	C 	0.04820 0.83490 0.60400 0.43800
C 	C 	0.12510 0.68560 0.73590 -0.14800
O 	O 	0.03010 0.86510 0.57280 -0.63200
O 	O 	0.91090 0.87800 0.59200 -0.44600
O 	O 	0.91250 0.69520 0.58140 -0.63300
O 	O 	0.90580 0.77580 0.50520 -0.61900
O 	O 	0.95680 0.85400 0.49840 -0.62500
C 	C 	0.09510 0.85550 0.62250 -0.21800
C 	C 	0.15110 0.71320 0.76920 0.06400
C 	C 	0.14640 0.63810 0.71100 0.05400
Ca	Ca	0.02900 0.91560 0.50330 1.48100
C 	C 	0.12130 0.81320 0.64860 0.08900
C 	C 	0.11230 0.91670 0.61500 0.10100
C 	C 	0.99580 0.99600 0.71160 0.11300
H 	H 	0.13710 0.74460 0.78630 0.00800
C 	C 	0.19700 0.69580 0.77800 -0.12800
C 	C 	0.19260 0.61940 0.72040 -0.12400
H 	H 	0.12970 0.61890 0.68820 0.02200
O 	O 	0.99230 0.99620 0.54590 -0.55800
N 	N 	0.04280 0.93030 0.41950 -0.24600
H 	H 	0.11020 0.77180 0.65330 0.00100
C 	C 	0.16390 0.83260 0.66750 -0.16100
H 	H 	0.09560 0.94480 0.59700 -0.04300
C 	C 	0.15470 0.93610 0.63460 -0.17200
C 	C 	0.99570 0.06100 0.71170 -0.17100
H 	H 	0.99300 0.97420 0.68530 -0.00100
H 	H 	0.21410 0.71740 0.79960 0.07300
C 	C 	0.21910 0.64560 0.75470 0.05700
H 	H 	0.20640 0.58820 0.70310 0.06900
C 	C 	0.97870 0.00750 0.58490 0.17800
C 	C 	0.18070 0.89490 0.66170 0.07800
H 	H 	0.18140 0.80370 0.68430 0.08600
H 	H 	0.16600 0.97730 0.62950 0.08200
H 	H 	0.99270 0.08250 0.68530 0.08700
C 	C 	0.26690 0.62080 0.76590 0.02000
C 	C 	0.22380 0.91700 0.68540 0.01100
C 	C 	0.28960 0.57830 0.73920 -0.08500
C 	C 	0.29040 0.63690 0.80570 -0.07900
C 	C 	0.25520 0.96160 0.66750 -0.08100
C 	C 	0.23290 0.89580 0.72800 -0.08600
C 	C 	0.00950 0.20150 0.71270 -0.01900
C 	C 	0.33340 0.55110 0.74980 0.01600
H 	H 	0.27510 0.56700 0.71290 0.05700
C 	C 	0.33380 0.61120 0.81750 0.00300
H 	H 	0.27610 0.66570 0.82450 0.05200
H 	H 	0.24980 0.97680 0.63940 0.04900
C 	C 	0.29450 0.98350 0.69140 0.01400
C 	C 	0.27170 0.91600 0.75200 0.02200
H 	H 	0.21190 0.86700 0.74060 0.05900
C 	C 	0.00910 0.26970 0.71160 -0.07800
H 	H 	0.01650 0.17910 0.68740 0.02800
C 	C 	0.35480 0.56750 0.78950 -0.07900
C 	C 	0.35480 0.50280 0.72040 0.07800
C 	C 	0.35650 0.62770 0.86050 0.10000
C 	C 	0.30200 0.96050 0.73290 -0.08800
C 	C 	0.32800 0.02990 0.67170 0.08400
C 	C 	0.27860 0.89310 0.79760 0.05900
C 	C 	0.01840 0.30350 0.66970 0.22200
H 	H 	0.38360 0.54890 0.79740 0.05700
C 	C 	0.37510 0.44730 0.73570 -0.15200
C 	C 	0.35280 0.51280 0.67580 -0.14700
C 	C 	0.39950 0.60260 0.87340 -0.19500
C 	C 	0.33470 0.66860 0.88970 -0.19300
H 	H 	0.32810 0.97510 0.74880 0.05900
C 	C 	0.31150 0.07580 0.64080 -0.17900
C 	C 	0.37530 0.03280 0.68450 -0.16500
C 	C 	0.32390 0.88690 0.81680 -0.13100
C 	C 	0.24030 0.87580 0.82220 -0.13200
C 	C 	0.00340 0.36210 0.66320 -0.28500
C 	C 	0.03940 0.27690 0.63670 -0.31200
H 	H 	0.37710 0.44020 0.76560 0.08900
C 	C 	0.39270 0.40160 0.70750 0.08300
H 	H 	0.33900 0.55010 0.66480 0.07400
C 	C 	0.37110 0.46790 0.64730 0.07700
C 	C 	0.42060 0.61680 0.91360 0.12500
H 	H 	0.41500 0.57510 0.85460 0.09100
H 	H 	0.30530 0.68600 0.88250 0.09200
C 	C 	0.35610 0.68400 0.92930 0.14000
H 	H 	0.27970 0.07630 0.63240 0.08100
C 	C 	0.34230 0.11960 0.62340 0.11200
C 	C 	0.40550 0.07770 0.66690 0.10900
H 	H 	0.38690 0.00410 0.70530 0.08400
C 	C 	0.32980 0.86690 0.85880 0.06400
H 	H 	0.35040 0.89660 0.80040 0.07400
H 	H 	0.21000 0.87840 0.81010 0.07900
C 	C 	0.24630 0.85470 0.86510 0.05500
C 	C 	0.01130 0.39400 0.62180 0.20200
H 	H 	0.98740 0.38340 0.68510 0.12900
C 	C 	0.04520 0.30570 0.59690 0.23000
H 	H 	0.05130 0.23560 0.64040 0.13600
H 	H 	0.40560 0.36370 0.71840 -0.00300
C 	C 	0.39120 0.41220 0.66310 -0.16400
H 	H 	0.36980 0.47550 0.61750 0.00500
H 	H 	0.44910 0.59770 0.92170 -0.04500
C 	C 	0.39890 0.65940 0.94130 -0.24800
H 	H 	0.34080 0.71170 0.94820 -0.03400
H 	H 	0.33120 0.14850 0.60250 -0.07100
C 	C 	0.38930 0.12150 0.63630 -0.22700
H 	H 	0.43720 0.07830 0.67570 -0.00300
C 	C 	0.29160 0.85160 0.88400 -0.14600
H 	H 	0.36020 0.86360 0.87070 0.02000
H 	H 	0.22020 0.84260 0.88110 0.01500
C 	C 	0.03230 0.36550 0.58970 -0.29300
H 	H 	0.00110 0.43610 0.61820 -0.02900
H 	H 	0.05870 0.28240 0.57450 -0.06600
C 	C 	0.41150 0.36530 0.63190 0.37600
C 	C 	0.42180 0.67680 0.98440 0.46700
C 	C 	0.42330 0.16940 0.61790 0.43700
C 	C 	0.29820 0.83230 0.93090 0.38900
C 	C 	0.04020 0.39670 0.54640 0.42600
O 	O 	0.33770 0.84240 0.94790 -0.49400
O 	O 	0.26440 0.80770 0.94990 -0.33100
O 	O 	0.05200 0.36350 0.51460 -0.49400
O 	O 	0.03340 0.45520 0.54340 -0.29300
Ca	Ca	0.37610 0.82850 0.01370 1.49400
Ca	Ca	0.50980 0.26200 0.81280 1.51600
O 	O 	0.44430 0.18600 0.80910 -0.41400
O 	O 	0.44560 0.23880 0.74750 -0.54500
O 	O 	0.47140 0.28650 0.88020 -0.58000
O 	O 	0.49380 0.36230 0.78580 -0.47800
O 	O 	0.53930 0.18080 0.86190 -0.48700
O 	O 	0.57040 0.31360 0.85360 -0.53800
C 	C 	0.42530 0.20420 0.77410 0.39100
Ca	Ca	0.54060 0.29120 0.93080 1.49700
C 	C 	0.45180 0.33490 0.89600 0.43700
C 	C 	0.37490 0.18560 0.76410 -0.14800
O 	O 	0.46990 0.36510 0.92720 -0.63000
O 	O 	0.58910 0.37800 0.90800 -0.44600
O 	O 	0.58750 0.19520 0.91860 -0.63300
O 	O 	0.59420 0.27580 0.99480 -0.61900
O 	O 	0.54320 0.35400 0.00160 -0.62600
C 	C 	0.40490 0.35550 0.87750 -0.21800
C 	C 	0.34890 0.21320 0.73080 0.06400
C 	C 	0.35360 0.13810 0.78900 0.05400
Ca	Ca	0.47100 0.41560 0.99670 1.48200
C 	C 	0.37870 0.31320 0.85140 0.08900
C 	C 	0.38770 0.41670 0.88500 0.10100
C 	C 	0.50420 0.49600 0.78840 0.10900
H 	H 	0.36290 0.24460 0.71370 0.00800
C 	C 	0.30300 0.19580 0.72200 -0.12700
C 	C 	0.30740 0.11940 0.77960 -0.12400
H 	H 	0.37030 0.11890 0.81180 0.02200
O 	O 	0.50770 0.49620 0.95410 -0.56000
N 	N 	0.45720 0.43030 0.08050 -0.24600
H 	H 	0.38980 0.27180 0.84670 0.00100
C 	C 	0.33610 0.33260 0.83250 -0.16100
H 	H 	0.40440 0.44480 0.90300 -0.04200
C 	C 	0.34530 0.43610 0.86540 -0.17100
C 	C 	0.50430 0.56100 0.78830 -0.17500
H 	H 	0.50700 0.47420 0.81470 -0.00200
H 	H 	0.28590 0.21740 0.70040 0.07200
C 	C 	0.28090 0.14560 0.74530 0.05700
H 	H 	0.29360 0.08820 0.79690 0.06900
C 	C 	0.52130 0.50750 0.91510 0.17700
C 	C 	0.31930 0.39490 0.83830 0.07800
H 	H 	0.31860 0.30370 0.81570 0.08600
H 	H 	0.33400 0.47730 0.87050 0.08200
H 	H 	0.50730 0.58250 0.81470 0.08700
C 	C 	0.23310 0.12080 0.73410 0.02000
C 	C 	0.27620 0.41700 0.81460 0.01100
C 	C 	0.21040 0.07830 0.76080 -0.08400
C 	C 	0.20960 0.13690 0.69430 -0.07900
C 	C 	0.24480 0.46160 0.83250 -0.08100
C 	C 	0.26710 0.39580 0.77200 -0.08600
C 	C 	0.49050 0.70150 0.78730 -0.02000
C 	C 	0.16660 0.05110 0.75020 0.01600
H 	H 	0.22490 0.06700 0.78710 0.05700
C 	C 	0.16620 0.11120 0.68250 0.00200
H 	H 	0.22390 0.16570 0.67550 0.05200
H 	H 	0.25020 0.47680 0.86060 0.04900
C 	C 	0.20550 0.48350 0.80860 0.01400
C 	C 	0.22830 0.41600 0.74800 0.02200
H 	H 	0.28810 0.36700 0.75940 0.05900
C 	C 	0.49090 0.76970 0.78840 -0.07600
H 	H 	0.48350 0.67910 0.81260 0.02900
C 	C 	0.14520 0.06750 0.71050 -0.07900
C 	C 	0.14520 0.00280 0.77960 0.07800
C 	C 	0.14350 0.12770 0.63950 0.10000
C 	C 	0.19800 0.46050 0.76710 -0.08800
C 	C 	0.17200 0.52990 0.82830 0.08400
C 	C 	0.22140 0.39310 0.70240 0.05900
C 	C 	0.48160 0.80350 0.83030 0.21200
H 	H 	0.11640 0.04890 0.70260 0.05700
C 	C 	0.12490 0.94730 0.76430 -0.15200
C 	C 	0.14720 0.01280 0.82420 -0.14700
C 	C 	0.10050 0.10260 0.62660 -0.19500
C 	C 	0.16530 0.16860 0.61030 -0.19300
H 	H 	0.17190 0.47510 0.75120 0.05900
C 	C 	0.18850 0.57580 0.85920 -0.17900
C 	C 	0.12470 0.53280 0.81550 -0.16600
C 	C 	0.17610 0.38690 0.68320 -0.13100
C 	C 	0.25970 0.37580 0.67780 -0.13200
C 	C 	0.49660 0.86210 0.83680 -0.26800
C 	C 	0.46060 0.77690 0.86330 -0.30200
H 	H 	0.12290 0.94020 0.73440 0.08900
C 	C 	0.10730 0.90160 0.79250 0.08300
H 	H 	0.16100 0.05010 0.83520 0.07400
C 	C 	0.12890 0.96790 0.85270 0.07700
C 	C 	0.07940 0.11680 0.58640 0.12600
H 	H 	0.08500 0.07510 0.64540 0.09000
H 	H 	0.19470 0.18600 0.61750 0.09200
C 	C 	0.14390 0.18400 0.57070 0.14100
H 	H 	0.22030 0.57630 0.86760 0.08100
C 	C 	0.15770 0.61960 0.87660 0.11300
C 	C 	0.09450 0.57770 0.83310 0.11000
H 	H 	0.11310 0.50410 0.79470 0.08400
C 	C 	0.17020 0.36690 0.64120 0.06400
H 	H 	0.14960 0.39660 0.69960 0.07400
H 	H 	0.29000 0.37840 0.68990 0.07900
C 	C 	0.25370 0.35470 0.63490 0.05500
C 	C 	0.48870 0.89400 0.87820 0.19000
H 	H 	0.51260 0.88340 0.81490 0.11900
C 	C 	0.45480 0.80570 0.90310 0.22100
H 	H 	0.44870 0.73560 0.85960 0.13300
H 	H 	0.09440 0.86370 0.78160 -0.00300
C 	C 	0.10880 0.91220 0.83690 -0.16400
H 	H 	0.13020 0.97550 0.88250 0.00400
H 	H 	0.05090 0.09770 0.57830 -0.04600
C 	C 	0.10110 0.15940 0.55870 -0.24900
H 	H 	0.15920 0.21170 0.55180 -0.03400
H 	H 	0.16880 0.64850 0.89750 -0.07200
C 	C 	0.11070 0.62150 0.86370 -0.22800
H 	H 	0.06280 0.57830 0.82430 -0.00400
C 	C 	0.20840 0.35160 0.61600 -0.14600
H 	H 	0.13980 0.36360 0.62930 0.02000
H 	H 	0.27980 0.34260 0.61890 0.01500
C 	C 	0.46770 0.86550 0.91030 -0.28400
H 	H 	0.49890 0.93610 0.88180 -0.02400
H 	H 	0.44130 0.78240 0.92550 -0.06200
C 	C 	0.08850 0.86530 0.86810 0.37600
C 	C 	0.07820 0.17680 0.51560 0.46800
C 	C 	0.07670 0.66940 0.88210 0.43700
C 	C 	0.20180 0.33230 0.56910 0.38900
C 	C 	0.45980 0.89670 0.95360 0.42300
O 	O 	0.16230 0.34240 0.55210 -0.49400
O 	O 	0.23560 0.30770 0.55010 -0.33200
O 	O 	0.44800 0.86350 0.98540 -0.49200
O 	O 	0.46660 0.95520 0.95660 -0.29100
Ca	Ca	0.12390 0.32850 0.48630 1.49400
Ca	Ca	0.00980 0.76200 0.81280 1.51500
O 	O 	0.94430 0.68600 0.80910 -0.41200
O 	O 	0.94560 0.73880 0.74750 -0.54400
O 	O 	0.97140 0.78650 0.88020 -0.57800
O 	O 	0.99380 0.86230 0.78580 -0.47300
O 	O 	0.03930 0.68080 0.86190 -0.48900
O 	O 	0.07040 0.81360 0.85360 -0.53900
C 	C 	0.92530 0.70420 0.77410 0.39000
Ca	Ca	0.04060 0.79120 0.93080 1.49700
C 	C 	0.95180 0.83490 0.89600 0.43700
C 	C 	0.87490 0.68560 0.76410 -0.14700
O 	O 	0.96990 0.86510 0.92720 -0.62800
O 	O 	0.08910 0.87800 0.90800 -0.44700
O 	O 	0.08750 0.69520 0.91860 -0.63300
O 	O 	0.09420 0.77580 0.99480 -0.61900
O 	O 	0.04320 0.85400 0.00160 -0.62800
C 	C 	0.90490 0.85550 0.87750 -0.21700
C 	C 	0.84890 0.71320 0.73080 0.06300
C 	C 	0.85360 0.63810 0.78900 0.05400
Ca	Ca	0.97100 0.91560 0.99670 1.48300
C 	C 	0.87870 0.81320 0.85140 0.08800
C 	C 	0.88770 0.91670 0.88500 0.10000
C 	C 	0.00420 0.99600 0.78840 0.10900
H 	H 	0.86290 0.74460 0.71370 0.00800
C 	C 	0.80300 0.69580 0.72200 -0.12700
C 	C 	0.80740 0.61940 0.77960 -0.12300
H 	H 	0.87030 0.61890 0.81180 0.02300
O 	O 	0.00770 0.99620 0.95410 -0.56200
N 	N 	0.95720 0.93030 0.08050 -0.24500
H 	H 	0.88980 0.77180 0.84670 0.00100
C 	C 	0.83610 0.83260 0.83250 -0.16000
H 	H 	0.90440 0.94480 0.90300 -0.04200
C 	C 	0.84530 0.93610 0.86540 -0.17100
C 	C 	0.00430 0.06100 0.78830 -0.17500
H 	H 	0.00700 0.97420 0.81470 -0.00200
H 	H 	0.78590 0.71740 0.70040 0.07200
C 	C 	0.78090 0.64560 0.74530 0.05700
H 	H 	0.79360 0.58820 0.79690 0.06900
C 	C 	0.02130 0.00750 0.91510 0.17500
C 	C 	0.81930 0.89490 0.83830 0.07800
H 	H 	0.81860 0.80370 0.81570 0.08500
H 	H 	0.83400 0.97730 0.87050 0.08200
H 	H 	0.00730 0.08250 0.81470 0.08600
C 	C 	0.73310 0.62080 0.73410 0.02100
C 	C 	0.77620 0.91700 0.81460 0.01100
C 	C 	0.71040 0.57830 0.76080 -0.08500
C 	C 	0.70960 0.63690 0.69430 -0.07900
C 	C 	0.74480 0.96160 0.83250 -0.08100
C 	C 	0.76710 0.89580 0.77200 -0.08600
C 	C 	0.99050 0.20150 0.78730 -0.01900
C 	C 	0.66660 0.55110 0.75020 0.01600
H 	H 	0.72490 0.56700 0.78710 0.05700
C 	C 	0.66620 0.61120 0.68250 0.00300
H 	H 	0.72390 0.66570 0.67550 0.05200
H 	H 	0.75020 0.97680 0.86060 0.04900
C 	C 	0.70550 0.98350 0.80860 0.01400
C 	C 	0.72830 0.91600 0.74800 0.02200
H 	H 	0.78810 0.86700 0.75940 0.05900
C 	C 	0.99090 0.26970 0.78840 -0.06600
H 	H 	0.98350 0.17910 0.81260 0.03100
C 	C 	0.64520 0.56750 0.71050 -0.07900
C 	C 	0.64520 0.50280 0.77960 0.07800
C 	C 	0.64350 0.62770 0.63950 0.10000
C 	C 	0.69800 0.96050 0.76710 -0.08800
C 	C 	0.67200 0.02990 0.82830 0.08400
C 	C 	0.72140 0.89310 0.70240 0.05900
C 	C 	0.98160 0.30350 0.83030 0.19600
H 	H 	0.61640 0.54890 0.70260 0.05700
C 	C 	0.62490 0.44730 0.76430 -0.15200
C 	C 	0.64720 0.51280 0.82420 -0.14700
C 	C 	0.60050 0.60260 0.62660 -0.19500
C 	C 	0.66530 0.66860 0.61030 -0.19300
H 	H 	0.67190 0.97510 0.75120 0.05900
C 	C 	0.68850 0.07580 0.85920 -0.17900
C 	C 	0.62470 0.03280 0.81550 -0.16500
C 	C 	0.67610 0.88690 0.68320 -0.13100
C 	C 	0.75970 0.87580 0.67780 -0.13200
C 	C 	0.99660 0.36210 0.83680 -0.24600
C 	C 	0.96060 0.27690 0.86330 -0.28600
H 	H 	0.62290 0.44020 0.73440 0.08900
C 	C 	0.60730 0.40160 0.79250 0.08300
H 	H 	0.66100 0.55010 0.83520 0.07400
C 	C 	0.62890 0.46790 0.85270 0.07700
C 	C 	0.57940 0.61680 0.58640 0.12500
H 	H 	0.58500 0.57510 0.64540 0.09100
H 	H 	0.69470 0.68600 0.61750 0.09200
C 	C 	0.64390 0.68400 0.57070 0.14000
H 	H 	0.72030 0.07630 0.86760 0.08100
C 	C 	0.65770 0.11960 0.87660 0.11200
C 	C 	0.59450 0.07770 0.83310 0.10900
H 	H 	0.61310 0.00410 0.79470 0.08400
C 	C 	0.67020 0.86690 0.64120 0.06400
H 	H 	0.64960 0.89660 0.69960 0.07400
H 	H 	0.79000 0.87840 0.68990 0.07900
C 	C 	0.75370 0.85470 0.63490 0.05500
C 	C 	0.98870 0.39400 0.87820 0.17500
H 	H 	0.01260 0.38340 0.81490 0.10800
C 	C 	0.95480 0.30570 0.90310 0.20700
H 	H 	0.94870 0.23560 0.85960 0.12800
H 	H 	0.59440 0.36370 0.78160 -0.00300
C 	C 	0.60880 0.41220 0.83690 -0.16400
H 	H 	0.63020 0.47550 0.88250 0.00500
H 	H 	0.55090 0.59770 0.57830 -0.04500
C 	C 	0.60110 0.65940 0.55870 -0.24800
H 	H 	0.65920 0.71170 0.55180 -0.03400
H 	H 	0.66880 0.14850 0.89750 -0.07100
C 	C 	0.61070 0.12150 0.86370 -0.22700
H 	H 	0.56280 0.07830 0.82430 -0.00300
C 	C 	0.70840 0.85160 0.61600 -0.14600
H 	H 	0.63980 0.86360 0.62930 0.02000
H 	H 	0.77980 0.84260 0.61890 0.01500
C 	C 	0.96770 0.36550 0.91030 -0.27100
H 	H 	0.99890 0.43610 0.88180 -0.01700
H 	H 	0.94130 0.28240 0.92550 -0.05700
C 	C 	0.58850 0.36530 0.86810 0.37600
C 	C 	0.57820 0.67680 0.51560 0.46700
C 	C 	0.57670 0.16940 0.88210 0.43700
C 	C 	0.70180 0.83230 0.56910 0.38900
C 	C 	0.95980 0.39670 0.95360 0.41800
O 	O 	0.66230 0.84240 0.55210 -0.49400
O 	O 	0.73560 0.80770 0.55010 -0.33200
O 	O 	0.94800 0.36350 0.98540 -0.49000
O 	O 	0.96660 0.45520 0.95660 -0.28800
Ca	Ca	0.62390 0.82850 0.48630 1.49400
C 	C 	0.50000 0.60970 0.25000 0.42900
C 	C 	0.50000 0.53850 0.25000 -0.18400
C 	C 	0.50000 0.40310 0.25000 0.10400
C 	C 	0.50000 0.33240 0.25000 -0.03600
C 	C 	0.50000 0.19890 0.25000 0.00200
H 	H 	0.50000 0.15430 0.25000 0.02000
C 	C 	0.00000 0.10970 0.25000 0.42500
C 	C 	0.00000 0.03850 0.25000 -0.18700
C 	C 	0.00000 0.90310 0.25000 0.10000
C 	C 	-0.00000 0.83240 0.25000 -0.03800
C 	C 	0.00000 0.69890 0.25000 -0.00500
H 	H 	-0.00000 0.65430 0.25000 0.02200
C 	C 	0.50000 0.39030 0.75000 0.42900
C 	C 	0.50000 0.46150 0.75000 -0.18400
C 	C 	0.50000 0.59690 0.75000 0.10400
C 	C 	0.50000 0.66760 0.75000 -0.03600
C 	C 	0.50000 0.80110 0.75000 0.00200
H 	H 	0.50000 0.84570 0.75000 0.02000
C 	C 	-0.00000 0.89030 0.75000 0.42500
C 	C 	0.00000 0.96150 0.75000 -0.18800
C 	C 	0.00000 0.09690 0.75000 0.10000
C 	C 	0.00000 0.16760 0.75000 -0.03800
C 	C 	0.00000 0.30110 0.75000 -0.00600
H 	H 	0.00000 0.34570 0.75000 0.02200
