data_crystal

_cell_length_a 18.21970
_cell_length_b 31.59780
_cell_length_c 29.86200
_cell_angle_alpha 90.00000
_cell_angle_beta  101.31100
_cell_angle_gamma 90.00000

_symmetry_space_group_name_	'P 1'
_symmetry_space_group_name_H-M	'P 1'

loop_
_symmetry_equiv_pos_as_xyz
  x,y,z

loop_
_atom_site_label
_atom_site_type_symbol
_atom_site_fract_x
_atom_site_fract_y
_atom_site_fract_z
_atom_site_charge
Sr	Sr	0.30382 0.35018 0.57790 1.52600
Sr	Sr	0.35143 0.46056 0.53012 1.51700
O 	O 	0.27430 0.39228 0.49875 -0.51100
O 	O 	0.29120 0.32404 0.48971 -0.53700
O 	O 	0.16170 0.35192 0.57620 -0.39700
O 	O 	0.19100 0.29001 0.55255 -0.53800
O 	O 	0.85690 0.24650 0.06430 -0.51800
O 	O 	0.87650 0.20580 0.12440 -0.45900
O 	O 	0.27210 0.56952 0.08522 -0.50500
O 	O 	0.29260 0.60430 0.14991 -0.38700
O 	O 	0.42040 0.38761 0.57019 -0.52200
O 	O 	0.48570 0.43124 0.53560 -0.42800
O 	O 	0.40650 0.49491 0.60794 -0.74600
H 	H 	0.42440 0.50530 0.63410 0.32700
H 	H 	0.35970 0.49110 0.60540 0.24200
O 	O 	0.43060 0.53006 0.52333 -0.62600
H 	H 	0.46160 0.52030 0.50810 0.24400
H 	H 	0.43300 0.51570 0.54770 0.20100
O 	O 	0.73140 0.99926 0.50826 -0.42800
O 	O 	0.61430 0.01745 0.48250 -0.25500
C 	C 	0.27290 0.36056 0.47270 0.40700
C 	C 	0.24700 0.36542 0.42390 -0.21300
C 	C 	0.24260 0.33140 0.39420 0.11300
H 	H 	0.25690 0.30460 0.40560 -0.02700
C 	C 	0.21690 0.33670 0.34730 -0.17000
H 	H 	0.21490 0.31360 0.32780 0.09000
C 	C 	0.19450 0.37620 0.32970 0.09100
C 	C 	0.19710 0.40990 0.35920 -0.16900
H 	H 	0.18190 0.43650 0.34770 0.08900
C 	C 	0.22230 0.40490 0.40590 0.10300
H 	H 	0.22260 0.42790 0.42540 -0.01400
C 	C 	0.16920 0.38230 0.27990 0.01300
C 	C 	0.12220 0.35340 0.25350 -0.08100
H 	H 	0.10820 0.32900 0.26710 0.05900
C 	C 	0.09520 0.36010 0.20680 0.01200
C 	C 	0.12110 0.39500 0.18710 -0.08500
H 	H 	0.10660 0.39890 0.15570 0.06100
C 	C 	0.16820 0.42460 0.21270 0.02300
C 	C 	0.19190 0.41750 0.25820 -0.08800
H 	H 	0.22430 0.43690 0.27530 0.05800
C 	C 	0.19320 0.46320 0.19060 0.06500
C 	C 	0.20280 0.46200 0.14620 -0.13300
H 	H 	0.19250 0.43710 0.12950 0.08000
C 	C 	0.20740 0.50040 0.21390 -0.12800
H 	H 	0.19790 0.50230 0.24330 0.07400
C 	C 	0.23610 0.53590 0.19450 0.05600
H 	H 	0.24920 0.56030 0.21160 0.02500
C 	C 	0.04460 0.32770 0.17910 0.09600
C 	C 	0.03610 0.28850 0.19450 -0.17100
H 	H 	0.06480 0.28020 0.22240 0.08900
C 	C 	0.00090 0.33790 0.13770 -0.16900
H 	H 	0.00520 0.36470 0.12550 0.09200
C 	C 	0.95010 0.30920 0.11350 0.11000
H 	H 	0.92020 0.31720 0.08580 -0.00500
C 	C 	0.14440 0.31510 0.56380 0.39300
C 	C 	0.06740 0.29920 0.56410 -0.16000
C 	C 	0.03660 0.26570 0.53630 0.08000
H 	H 	0.06350 0.25310 0.51640 -0.00900
C 	C 	0.02340 0.31890 0.59100 0.07800
H 	H 	0.04220 0.34190 0.60910 0.02000
C 	C 	0.88730 0.23870 0.10340 0.43600
C 	C 	0.94400 0.27040 0.12970 -0.19100
C 	C 	0.98560 0.25970 0.17010 0.10400
H 	H 	0.98080 0.23290 0.18200 0.00600
C 	C 	0.27240 0.57187 0.12710 0.36300
C 	C 	0.24440 0.53360 0.14960 -0.13900
C 	C 	0.22750 0.49719 0.12570 0.06100
H 	H 	0.23250 0.49580 0.09540 0.00300
C 	C 	0.47870 0.39700 0.55530 0.37900
C 	C 	0.54170 0.36482 0.56130 -0.14900
C 	C 	0.60530 0.37400 0.54430 0.06000
H 	H 	0.61000 0.40000 0.53070 0.03200
C 	C 	0.66160 0.34430 0.54770 -0.13700
H 	H 	0.70430 0.35080 0.53640 0.08200
C 	C 	0.65620 0.30547 0.56740 0.06700
C 	C 	0.59250 0.29690 0.58450 -0.14200
H 	H 	0.58740 0.27090 0.59810 0.08200
C 	C 	0.53630 0.32690 0.58170 0.07200
H 	H 	0.49420 0.32090 0.59390 0.00100
C 	C 	0.71570 0.27275 0.56720 0.02600
C 	C 	0.78980 0.28470 0.57000 -0.09100
H 	H 	0.80290 0.31290 0.57560 0.06200
C 	C 	0.84550 0.25570 0.56470 0.02100
C 	C 	0.82440 0.21320 0.55680 -0.09000
H 	H 	0.86020 0.19340 0.55250 0.06200
C 	C 	0.75120 0.20023 0.55510 0.02500
C 	C 	0.69650 0.23020 0.56020 -0.09200
H 	H 	0.64730 0.22160 0.55880 0.06300
C 	C 	0.92210 0.27009 0.56540 0.07300
C 	C 	0.96600 0.25120 0.53870 -0.14900
H 	H 	0.94730 0.22760 0.52140 0.08300
C 	C 	0.95250 0.30460 0.59110 -0.14500
H 	H 	0.92380 0.31850 0.60900 0.08200
C 	C 	0.67890 0.02600 0.50060 0.38000
C 	C 	0.69750 0.07119 0.51630 -0.15300
C 	C 	0.76450 0.08115 0.54250 0.08000
H 	H 	0.79990 0.06000 0.55140 -0.01100
C 	C 	0.78070 0.12250 0.55630 -0.14400
H 	H 	0.82720 0.12860 0.57430 0.08100
C 	C 	0.72970 0.15510 0.54420 0.06600
C 	C 	0.66080 0.14390 0.51810 -0.14000
H 	H 	0.62440 0.16460 0.50980 0.08300
C 	C 	0.64510 0.10290 0.50430 0.06900
H 	H 	0.59850 0.09630 0.48660 0.02600
Sr	Sr	0.80382 0.85018 0.57790 1.52700
Sr	Sr	0.85143 0.96056 0.53012 1.51800
O 	O 	0.77430 0.89228 0.49875 -0.51000
O 	O 	0.79120 0.82404 0.48971 -0.53600
O 	O 	0.66170 0.85192 0.57620 -0.39600
O 	O 	0.69100 0.79001 0.55255 -0.53800
O 	O 	0.35690 0.74650 0.06430 -0.51800
O 	O 	0.37650 0.70580 0.12440 -0.45900
O 	O 	0.77210 0.06952 0.08522 -0.50500
O 	O 	0.79260 0.10430 0.14991 -0.38700
O 	O 	0.92040 0.88761 0.57019 -0.52200
O 	O 	0.98570 0.93124 0.53560 -0.42900
O 	O 	0.90650 0.99491 0.60794 -0.74500
H 	H 	0.92440 0.00530 0.63410 0.32600
H 	H 	0.85970 0.99110 0.60540 0.24200
O 	O 	0.93060 0.03006 0.52333 -0.62600
H 	H 	0.96160 0.02030 0.50810 0.24400
H 	H 	0.93300 0.01570 0.54770 0.20000
O 	O 	0.23140 0.49926 0.50826 -0.42800
O 	O 	0.11430 0.51745 0.48250 -0.25500
C 	C 	0.77290 0.86056 0.47270 0.40700
C 	C 	0.74700 0.86542 0.42390 -0.21300
C 	C 	0.74260 0.83140 0.39420 0.11300
H 	H 	0.75690 0.80460 0.40560 -0.02700
C 	C 	0.71690 0.83670 0.34730 -0.17000
H 	H 	0.71490 0.81360 0.32780 0.09000
C 	C 	0.69450 0.87620 0.32970 0.09100
C 	C 	0.69710 0.90990 0.35920 -0.16900
H 	H 	0.68190 0.93650 0.34770 0.08900
C 	C 	0.72230 0.90490 0.40590 0.10300
H 	H 	0.72260 0.92790 0.42540 -0.01400
C 	C 	0.66920 0.88230 0.27990 0.01300
C 	C 	0.62220 0.85340 0.25350 -0.08000
H 	H 	0.60820 0.82900 0.26710 0.05900
C 	C 	0.59520 0.86010 0.20680 0.01200
C 	C 	0.62110 0.89500 0.18710 -0.08500
H 	H 	0.60660 0.89890 0.15570 0.06000
C 	C 	0.66820 0.92460 0.21270 0.02300
C 	C 	0.69190 0.91750 0.25820 -0.08800
H 	H 	0.72430 0.93690 0.27530 0.05800
C 	C 	0.69320 0.96320 0.19060 0.06500
C 	C 	0.70280 0.96200 0.14620 -0.13300
H 	H 	0.69250 0.93710 0.12950 0.08000
C 	C 	0.70740 0.00040 0.21390 -0.12800
H 	H 	0.69790 0.00230 0.24330 0.07400
C 	C 	0.73610 0.03590 0.19450 0.05600
H 	H 	0.74920 0.06030 0.21160 0.02500
C 	C 	0.54460 0.82770 0.17910 0.09700
C 	C 	0.53610 0.78850 0.19450 -0.17200
H 	H 	0.56480 0.78020 0.22240 0.08900
C 	C 	0.50090 0.83790 0.13770 -0.17000
H 	H 	0.50520 0.86470 0.12550 0.09200
C 	C 	0.45010 0.80920 0.11350 0.11100
H 	H 	0.42020 0.81720 0.08580 -0.00600
C 	C 	0.64440 0.81510 0.56380 0.39300
C 	C 	0.56740 0.79920 0.56410 -0.16000
C 	C 	0.53660 0.76570 0.53630 0.08000
H 	H 	0.56350 0.75310 0.51640 -0.00900
C 	C 	0.52340 0.81890 0.59100 0.07800
H 	H 	0.54220 0.84190 0.60910 0.02000
C 	C 	0.38730 0.73870 0.10340 0.43600
C 	C 	0.44400 0.77040 0.12970 -0.19100
C 	C 	0.48560 0.75970 0.17010 0.10500
H 	H 	0.48080 0.73290 0.18200 0.00600
C 	C 	0.77240 0.07187 0.12710 0.36300
C 	C 	0.74440 0.03360 0.14960 -0.13900
C 	C 	0.72750 0.99719 0.12570 0.06100
H 	H 	0.73250 0.99580 0.09540 0.00300
C 	C 	0.97870 0.89700 0.55530 0.37900
C 	C 	0.04170 0.86482 0.56130 -0.14900
C 	C 	0.10530 0.87400 0.54430 0.06000
H 	H 	0.11000 0.90000 0.53070 0.03200
C 	C 	0.16160 0.84430 0.54770 -0.13700
H 	H 	0.20430 0.85080 0.53640 0.08200
C 	C 	0.15620 0.80547 0.56740 0.06700
C 	C 	0.09250 0.79690 0.58450 -0.14200
H 	H 	0.08740 0.77090 0.59810 0.08200
C 	C 	0.03630 0.82690 0.58170 0.07200
H 	H 	0.99420 0.82090 0.59390 0.00100
C 	C 	0.21570 0.77275 0.56720 0.02600
C 	C 	0.28980 0.78470 0.57000 -0.09100
H 	H 	0.30290 0.81290 0.57560 0.06200
C 	C 	0.34550 0.75570 0.56470 0.02100
C 	C 	0.32440 0.71320 0.55680 -0.09000
H 	H 	0.36020 0.69340 0.55250 0.06200
C 	C 	0.25120 0.70023 0.55510 0.02500
C 	C 	0.19650 0.73020 0.56020 -0.09200
H 	H 	0.14730 0.72160 0.55880 0.06300
C 	C 	0.42210 0.77009 0.56540 0.07300
C 	C 	0.46600 0.75120 0.53870 -0.14800
H 	H 	0.44730 0.72760 0.52140 0.08300
C 	C 	0.45250 0.80460 0.59110 -0.14400
H 	H 	0.42380 0.81850 0.60900 0.08200
C 	C 	0.17890 0.52600 0.50060 0.38000
C 	C 	0.19750 0.57119 0.51630 -0.15300
C 	C 	0.26450 0.58115 0.54250 0.08000
H 	H 	0.29990 0.56000 0.55140 -0.01100
C 	C 	0.28070 0.62250 0.55630 -0.14400
H 	H 	0.32720 0.62860 0.57430 0.08100
C 	C 	0.22970 0.65510 0.54420 0.06600
C 	C 	0.16080 0.64390 0.51810 -0.14000
H 	H 	0.12440 0.66460 0.50980 0.08300
C 	C 	0.14510 0.60290 0.50430 0.06900
H 	H 	0.09850 0.59630 0.48660 0.02600
Sr	Sr	0.69618 0.35018 0.92210 1.52900
Sr	Sr	0.64857 0.46056 0.96988 1.52000
O 	O 	0.72570 0.39228 0.00125 -0.52100
O 	O 	0.70880 0.32404 0.01029 -0.54500
O 	O 	0.83830 0.35192 0.92380 -0.39200
O 	O 	0.80900 0.29001 0.94745 -0.53300
O 	O 	0.14310 0.24650 0.43570 -0.51300
O 	O 	0.12350 0.20580 0.37560 -0.45800
O 	O 	0.72790 0.56952 0.41478 -0.50100
O 	O 	0.70740 0.60430 0.35009 -0.38700
O 	O 	0.57960 0.38761 0.92981 -0.51800
O 	O 	0.51430 0.43124 0.96440 -0.42200
O 	O 	0.59350 0.49491 0.89206 -0.74500
H 	H 	0.57560 0.50530 0.86590 0.32700
H 	H 	0.64030 0.49110 0.89460 0.24200
O 	O 	0.56940 0.53006 0.97667 -0.62200
H 	H 	0.53840 0.52030 0.99190 0.25100
H 	H 	0.56700 0.51570 0.95230 0.20100
O 	O 	0.26860 0.99926 0.99174 -0.43000
O 	O 	0.38570 0.01745 0.01750 -0.28000
C 	C 	0.72710 0.36056 0.02730 0.40900
C 	C 	0.75300 0.36542 0.07610 -0.21700
C 	C 	0.75740 0.33140 0.10580 0.11600
H 	H 	0.74310 0.30460 0.09440 -0.02900
C 	C 	0.78310 0.33670 0.15270 -0.17200
H 	H 	0.78510 0.31360 0.17220 0.09000
C 	C 	0.80550 0.37620 0.17030 0.09300
C 	C 	0.80290 0.40990 0.14080 -0.17100
H 	H 	0.81810 0.43650 0.15230 0.08900
C 	C 	0.77770 0.40490 0.09410 0.10500
H 	H 	0.77740 0.42790 0.07460 -0.01700
C 	C 	0.83080 0.38230 0.22010 0.01200
C 	C 	0.87780 0.35340 0.24650 -0.08000
H 	H 	0.89180 0.32900 0.23290 0.05900
C 	C 	0.90480 0.36010 0.29320 0.01200
C 	C 	0.87890 0.39500 0.31290 -0.08500
H 	H 	0.89340 0.39890 0.34430 0.06100
C 	C 	0.83180 0.42460 0.28730 0.02300
C 	C 	0.80810 0.41750 0.24180 -0.08800
H 	H 	0.77570 0.43690 0.22470 0.05700
C 	C 	0.80680 0.46320 0.30940 0.06500
C 	C 	0.79720 0.46200 0.35380 -0.13200
H 	H 	0.80750 0.43710 0.37050 0.07900
C 	C 	0.79260 0.50040 0.28610 -0.12700
H 	H 	0.80210 0.50230 0.25670 0.07400
C 	C 	0.76390 0.53590 0.30550 0.05500
H 	H 	0.75080 0.56030 0.28840 0.02500
C 	C 	0.95540 0.32770 0.32090 0.09600
C 	C 	0.96390 0.28850 0.30550 -0.17100
H 	H 	0.93520 0.28020 0.27760 0.08800
C 	C 	0.99910 0.33790 0.36230 -0.16800
H 	H 	0.99480 0.36470 0.37450 0.09200
C 	C 	0.04990 0.30920 0.38650 0.11000
H 	H 	0.07980 0.31720 0.41420 -0.00300
C 	C 	0.85560 0.31510 0.93620 0.39300
C 	C 	0.93260 0.29920 0.93590 -0.15700
C 	C 	0.96340 0.26570 0.96370 0.08100
H 	H 	0.93650 0.25310 0.98360 -0.00500
C 	C 	0.97660 0.31890 0.90900 0.07800
H 	H 	0.95780 0.34190 0.89090 0.02100
C 	C 	0.11270 0.23870 0.39660 0.43500
C 	C 	0.05600 0.27040 0.37030 -0.18900
C 	C 	0.01440 0.25970 0.32990 0.10300
H 	H 	0.01920 0.23290 0.31800 0.00700
C 	C 	0.72760 0.57187 0.37290 0.36200
C 	C 	0.75560 0.53360 0.35040 -0.13800
C 	C 	0.77250 0.49719 0.37430 0.06100
H 	H 	0.76750 0.49580 0.40460 0.00400
C 	C 	0.52130 0.39700 0.94470 0.37900
C 	C 	0.45830 0.36482 0.93870 -0.14600
C 	C 	0.39470 0.37400 0.95570 0.06200
H 	H 	0.39000 0.40000 0.96930 0.03700
C 	C 	0.33840 0.34430 0.95230 -0.13600
H 	H 	0.29570 0.35080 0.96360 0.08700
C 	C 	0.34380 0.30547 0.93260 0.07100
C 	C 	0.40750 0.29690 0.91550 -0.14100
H 	H 	0.41260 0.27090 0.90190 0.08300
C 	C 	0.46370 0.32690 0.91830 0.07300
H 	H 	0.50580 0.32090 0.90610 0.00200
C 	C 	0.28430 0.27275 0.93280 0.02300
C 	C 	0.21020 0.28470 0.93000 -0.08500
H 	H 	0.19710 0.31290 0.92440 0.06200
C 	C 	0.15450 0.25570 0.93530 0.01900
C 	C 	0.17560 0.21320 0.94320 -0.08100
H 	H 	0.13980 0.19340 0.94750 0.06100
C 	C 	0.24880 0.20023 0.94490 0.01400
C 	C 	0.30350 0.23020 0.93980 -0.08300
H 	H 	0.35270 0.22160 0.94120 0.06200
C 	C 	0.07790 0.27009 0.93460 0.07600
C 	C 	0.03400 0.25120 0.96130 -0.14600
H 	H 	0.05270 0.22760 0.97860 0.08700
C 	C 	0.04750 0.30460 0.90890 -0.14300
H 	H 	0.07620 0.31850 0.89100 0.08200
C 	C 	0.32110 0.02600 0.99940 0.41900
C 	C 	0.30250 0.07119 0.98370 -0.19500
C 	C 	0.23550 0.08115 0.95750 0.11800
H 	H 	0.20010 0.06000 0.94860 -0.02200
C 	C 	0.21930 0.12250 0.94370 -0.17400
H 	H 	0.17280 0.12860 0.92570 0.09200
C 	C 	0.27030 0.15510 0.95580 0.09800
C 	C 	0.33920 0.14390 0.98190 -0.18700
H 	H 	0.37560 0.16460 0.99020 0.10600
C 	C 	0.35490 0.10290 0.99570 0.14500
H 	H 	0.40150 0.09630 0.01340 -0.01300
Sr	Sr	0.19618 0.85018 0.92210 1.52900
Sr	Sr	0.14857 0.96056 0.96988 1.52000
O 	O 	0.22570 0.89228 0.00125 -0.52100
O 	O 	0.20880 0.82404 0.01029 -0.54400
O 	O 	0.33830 0.85192 0.92380 -0.39200
O 	O 	0.30900 0.79001 0.94745 -0.53300
O 	O 	0.64310 0.74650 0.43570 -0.51300
O 	O 	0.62350 0.70580 0.37560 -0.45800
O 	O 	0.22790 0.06952 0.41478 -0.50100
O 	O 	0.20740 0.10430 0.35009 -0.38700
O 	O 	0.07960 0.88761 0.92981 -0.51800
O 	O 	0.01430 0.93124 0.96440 -0.42200
O 	O 	0.09350 0.99491 0.89206 -0.74400
H 	H 	0.07560 0.00530 0.86590 0.32600
H 	H 	0.14030 0.99110 0.89460 0.24200
O 	O 	0.06940 0.03006 0.97667 -0.62200
H 	H 	0.03840 0.02030 0.99190 0.25100
H 	H 	0.06700 0.01570 0.95230 0.20100
O 	O 	0.76860 0.49926 0.99174 -0.43000
O 	O 	0.88570 0.51745 0.01750 -0.28100
C 	C 	0.22710 0.86056 0.02730 0.40900
C 	C 	0.25300 0.86542 0.07610 -0.21700
C 	C 	0.25740 0.83140 0.10580 0.11600
H 	H 	0.24310 0.80460 0.09440 -0.02900
C 	C 	0.28310 0.83670 0.15270 -0.17200
H 	H 	0.28510 0.81360 0.17220 0.09000
C 	C 	0.30550 0.87620 0.17030 0.09300
C 	C 	0.30290 0.90990 0.14080 -0.17100
H 	H 	0.31810 0.93650 0.15230 0.08900
C 	C 	0.27770 0.90490 0.09410 0.10600
H 	H 	0.27740 0.92790 0.07460 -0.01700
C 	C 	0.33080 0.88230 0.22010 0.01200
C 	C 	0.37780 0.85340 0.24650 -0.08000
H 	H 	0.39180 0.82900 0.23290 0.05900
C 	C 	0.40480 0.86010 0.29320 0.01200
C 	C 	0.37890 0.89500 0.31290 -0.08500
H 	H 	0.39340 0.89890 0.34430 0.06100
C 	C 	0.33180 0.92460 0.28730 0.02300
C 	C 	0.30810 0.91750 0.24180 -0.08800
H 	H 	0.27570 0.93690 0.22470 0.05700
C 	C 	0.30680 0.96320 0.30940 0.06500
C 	C 	0.29720 0.96200 0.35380 -0.13200
H 	H 	0.30750 0.93710 0.37050 0.08000
C 	C 	0.29260 0.00040 0.28610 -0.12700
H 	H 	0.30210 0.00230 0.25670 0.07400
C 	C 	0.26390 0.03590 0.30550 0.05500
H 	H 	0.25080 0.06030 0.28840 0.02500
C 	C 	0.45540 0.82770 0.32090 0.09600
C 	C 	0.46390 0.78850 0.30550 -0.17100
H 	H 	0.43520 0.78020 0.27760 0.08800
C 	C 	0.49910 0.83790 0.36230 -0.16800
H 	H 	0.49480 0.86470 0.37450 0.09200
C 	C 	0.54990 0.80920 0.38650 0.10900
H 	H 	0.57980 0.81720 0.41420 -0.00300
C 	C 	0.35560 0.81510 0.93620 0.39300
C 	C 	0.43260 0.79920 0.93590 -0.15800
C 	C 	0.46340 0.76570 0.96370 0.08200
H 	H 	0.43650 0.75310 0.98360 -0.00500
C 	C 	0.47660 0.81890 0.90900 0.07900
H 	H 	0.45780 0.84190 0.89090 0.02000
C 	C 	0.61270 0.73870 0.39660 0.43500
C 	C 	0.55600 0.77040 0.37030 -0.18900
C 	C 	0.51440 0.75970 0.32990 0.10300
H 	H 	0.51920 0.73290 0.31800 0.00700
C 	C 	0.22760 0.07187 0.37290 0.36200
C 	C 	0.25560 0.03360 0.35040 -0.13800
C 	C 	0.27250 0.99719 0.37430 0.06100
H 	H 	0.26750 0.99580 0.40460 0.00400
C 	C 	0.02130 0.89700 0.94470 0.37900
C 	C 	0.95830 0.86482 0.93870 -0.14600
C 	C 	0.89470 0.87400 0.95570 0.06200
H 	H 	0.89000 0.90000 0.96930 0.03700
C 	C 	0.83840 0.84430 0.95230 -0.13600
H 	H 	0.79570 0.85080 0.96360 0.08700
C 	C 	0.84380 0.80547 0.93260 0.07100
C 	C 	0.90750 0.79690 0.91550 -0.14100
H 	H 	0.91260 0.77090 0.90190 0.08300
C 	C 	0.96370 0.82690 0.91830 0.07300
H 	H 	0.00580 0.82090 0.90610 0.00200
C 	C 	0.78430 0.77275 0.93280 0.02300
C 	C 	0.71020 0.78470 0.93000 -0.08500
H 	H 	0.69710 0.81290 0.92440 0.06200
C 	C 	0.65450 0.75570 0.93530 0.01800
C 	C 	0.67560 0.71320 0.94320 -0.08000
H 	H 	0.63980 0.69340 0.94750 0.06100
C 	C 	0.74880 0.70023 0.94490 0.01300
C 	C 	0.80350 0.73020 0.93980 -0.08300
H 	H 	0.85270 0.72160 0.94120 0.06200
C 	C 	0.57790 0.77009 0.93460 0.07700
C 	C 	0.53400 0.75120 0.96130 -0.14800
H 	H 	0.55270 0.72760 0.97860 0.08800
C 	C 	0.54750 0.80460 0.90890 -0.14500
H 	H 	0.57620 0.81850 0.89100 0.08300
C 	C 	0.82110 0.52600 0.99940 0.41900
C 	C 	0.80250 0.57119 0.98370 -0.19500
C 	C 	0.73550 0.58115 0.95750 0.11800
H 	H 	0.70010 0.56000 0.94860 -0.02200
C 	C 	0.71930 0.62250 0.94370 -0.17500
H 	H 	0.67280 0.62860 0.92570 0.09200
C 	C 	0.77030 0.65510 0.95580 0.09800
C 	C 	0.83920 0.64390 0.98190 -0.18700
H 	H 	0.87560 0.66460 0.99020 0.10600
C 	C 	0.85490 0.60290 0.99570 0.14600
H 	H 	0.90150 0.59630 0.01340 -0.01300
Sr	Sr	0.69618 0.64982 0.42210 1.52700
Sr	Sr	0.64857 0.53944 0.46988 1.51800
O 	O 	0.72570 0.60772 0.50125 -0.51000
O 	O 	0.70880 0.67596 0.51029 -0.53600
O 	O 	0.83830 0.64808 0.42380 -0.39600
O 	O 	0.80900 0.70999 0.44745 -0.53800
O 	O 	0.14310 0.75350 0.93570 -0.50600
O 	O 	0.12350 0.79420 0.87560 -0.45700
O 	O 	0.72790 0.43048 0.91478 -0.49700
O 	O 	0.70740 0.39570 0.85009 -0.38600
O 	O 	0.57960 0.61239 0.42981 -0.52200
O 	O 	0.51430 0.56876 0.46440 -0.42800
O 	O 	0.59350 0.50509 0.39206 -0.74600
H 	H 	0.57560 0.49470 0.36590 0.32700
H 	H 	0.64030 0.50890 0.39460 0.24200
O 	O 	0.56940 0.46994 0.47667 -0.62600
H 	H 	0.53840 0.47970 0.49190 0.24400
H 	H 	0.56700 0.48430 0.45230 0.20100
O 	O 	0.26860 0.00074 0.49174 -0.42800
O 	O 	0.38570 0.98255 0.51750 -0.25500
C 	C 	0.72710 0.63944 0.52730 0.40700
C 	C 	0.75300 0.63458 0.57610 -0.21300
C 	C 	0.75740 0.66860 0.60580 0.11300
H 	H 	0.74310 0.69540 0.59440 -0.02700
C 	C 	0.78310 0.66330 0.65270 -0.16900
H 	H 	0.78510 0.68640 0.67220 0.08900
C 	C 	0.80550 0.62380 0.67030 0.09100
C 	C 	0.80290 0.59010 0.64080 -0.16800
H 	H 	0.81810 0.56350 0.65230 0.08900
C 	C 	0.77770 0.59510 0.59410 0.10300
H 	H 	0.77740 0.57210 0.57460 -0.01400
C 	C 	0.83080 0.61770 0.72010 0.01300
C 	C 	0.87780 0.64660 0.74650 -0.08100
H 	H 	0.89180 0.67100 0.73290 0.05900
C 	C 	0.90480 0.63990 0.79320 0.01300
C 	C 	0.87890 0.60500 0.81290 -0.08600
H 	H 	0.89340 0.60110 0.84430 0.06200
C 	C 	0.83180 0.57540 0.78730 0.02500
C 	C 	0.80810 0.58250 0.74180 -0.08900
H 	H 	0.77570 0.56310 0.72470 0.05800
C 	C 	0.80680 0.53680 0.80940 0.06400
C 	C 	0.79720 0.53800 0.85380 -0.13100
H 	H 	0.80750 0.56290 0.87050 0.07900
C 	C 	0.79260 0.49960 0.78610 -0.12600
H 	H 	0.80210 0.49770 0.75670 0.07400
C 	C 	0.76390 0.46410 0.80550 0.05400
H 	H 	0.75080 0.43970 0.78840 0.02600
C 	C 	0.95540 0.67230 0.82090 0.09500
C 	C 	0.96390 0.71150 0.80550 -0.17000
H 	H 	0.93520 0.71980 0.77760 0.08800
C 	C 	0.99910 0.66210 0.86230 -0.16700
H 	H 	0.99480 0.63530 0.87450 0.09300
C 	C 	0.04990 0.69080 0.88650 0.10900
H 	H 	0.07980 0.68280 0.91420 -0.00000
C 	C 	0.85560 0.68490 0.43620 0.39300
C 	C 	0.93260 0.70080 0.43590 -0.16000
C 	C 	0.96340 0.73430 0.46370 0.08000
H 	H 	0.93650 0.74690 0.48360 -0.00900
C 	C 	0.97660 0.68110 0.40900 0.07700
H 	H 	0.95780 0.65810 0.39090 0.02000
C 	C 	0.11270 0.76130 0.89660 0.43300
C 	C 	0.05600 0.72960 0.87030 -0.18700
C 	C 	0.01440 0.74030 0.82990 0.10200
H 	H 	0.01920 0.76710 0.81800 0.00700
C 	C 	0.72760 0.42813 0.87290 0.36100
C 	C 	0.75560 0.46640 0.85040 -0.13700
C 	C 	0.77250 0.50281 0.87430 0.06000
H 	H 	0.76750 0.50420 0.90460 0.00500
C 	C 	0.52130 0.60300 0.44470 0.37900
C 	C 	0.45830 0.63518 0.43870 -0.14900
C 	C 	0.39470 0.62600 0.45570 0.06000
H 	H 	0.39000 0.60000 0.46930 0.03200
C 	C 	0.33840 0.65570 0.45230 -0.13700
H 	H 	0.29570 0.64920 0.46360 0.08200
C 	C 	0.34380 0.69453 0.43260 0.06700
C 	C 	0.40750 0.70310 0.41550 -0.14200
H 	H 	0.41260 0.72910 0.40190 0.08200
C 	C 	0.46370 0.67310 0.41830 0.07200
H 	H 	0.50580 0.67910 0.40610 0.00100
C 	C 	0.28430 0.72725 0.43280 0.02600
C 	C 	0.21020 0.71530 0.43000 -0.09100
H 	H 	0.19710 0.68710 0.42440 0.06200
C 	C 	0.15450 0.74430 0.43530 0.02100
C 	C 	0.17560 0.78680 0.44320 -0.09000
H 	H 	0.13980 0.80660 0.44750 0.06200
C 	C 	0.24880 0.79977 0.44490 0.02500
C 	C 	0.30350 0.76980 0.43980 -0.09300
H 	H 	0.35270 0.77840 0.44120 0.06300
C 	C 	0.07790 0.72991 0.43460 0.07200
C 	C 	0.03400 0.74880 0.46130 -0.14800
H 	H 	0.05270 0.77240 0.47860 0.08300
C 	C 	0.04750 0.69540 0.40890 -0.14400
H 	H 	0.07620 0.68150 0.39100 0.08200
C 	C 	0.32110 0.97400 0.49940 0.38000
C 	C 	0.30250 0.92881 0.48370 -0.15300
C 	C 	0.23550 0.91885 0.45750 0.08000
H 	H 	0.20010 0.94000 0.44860 -0.01000
C 	C 	0.21930 0.87750 0.44370 -0.14400
H 	H 	0.17280 0.87140 0.42570 0.08100
C 	C 	0.27030 0.84490 0.45580 0.06600
C 	C 	0.33920 0.85610 0.48190 -0.14000
H 	H 	0.37560 0.83540 0.49020 0.08300
C 	C 	0.35490 0.89710 0.49570 0.06900
H 	H 	0.40150 0.90370 0.51340 0.02600
Sr	Sr	0.19618 0.14982 0.42210 1.52700
Sr	Sr	0.14857 0.03944 0.46988 1.51800
O 	O 	0.22570 0.10772 0.50125 -0.51000
O 	O 	0.20880 0.17596 0.51029 -0.53600
O 	O 	0.33830 0.14808 0.42380 -0.39600
O 	O 	0.30900 0.20999 0.44745 -0.53800
O 	O 	0.64310 0.25350 0.93570 -0.50600
O 	O 	0.62350 0.29420 0.87560 -0.45700
O 	O 	0.22790 0.93048 0.91478 -0.49700
O 	O 	0.20740 0.89570 0.85009 -0.38600
O 	O 	0.07960 0.11239 0.42981 -0.52200
O 	O 	0.01430 0.06876 0.46440 -0.42900
O 	O 	0.09350 0.00509 0.39206 -0.74600
H 	H 	0.07560 0.99470 0.36590 0.32700
H 	H 	0.14030 0.00890 0.39460 0.24200
O 	O 	0.06940 0.96994 0.47667 -0.62600
H 	H 	0.03840 0.97970 0.49190 0.24400
H 	H 	0.06700 0.98430 0.45230 0.20100
O 	O 	0.76860 0.50074 0.49174 -0.42800
O 	O 	0.88570 0.48255 0.51750 -0.25500
C 	C 	0.22710 0.13944 0.52730 0.40700
C 	C 	0.25300 0.13458 0.57610 -0.21300
C 	C 	0.25740 0.16860 0.60580 0.11300
H 	H 	0.24310 0.19540 0.59440 -0.02700
C 	C 	0.28310 0.16330 0.65270 -0.16900
H 	H 	0.28510 0.18640 0.67220 0.08900
C 	C 	0.30550 0.12380 0.67030 0.09100
C 	C 	0.30290 0.09010 0.64080 -0.16800
H 	H 	0.31810 0.06350 0.65230 0.08900
C 	C 	0.27770 0.09510 0.59410 0.10300
H 	H 	0.27740 0.07210 0.57460 -0.01400
C 	C 	0.33080 0.11770 0.72010 0.01400
C 	C 	0.37780 0.14660 0.74650 -0.08200
H 	H 	0.39180 0.17100 0.73290 0.06000
C 	C 	0.40480 0.13990 0.79320 0.01400
C 	C 	0.37890 0.10500 0.81290 -0.08700
H 	H 	0.39340 0.10110 0.84430 0.06200
C 	C 	0.33180 0.07540 0.78730 0.02500
C 	C 	0.30810 0.08250 0.74180 -0.08900
H 	H 	0.27570 0.06310 0.72470 0.05800
C 	C 	0.30680 0.03680 0.80940 0.06300
C 	C 	0.29720 0.03800 0.85380 -0.13000
H 	H 	0.30750 0.06290 0.87050 0.07900
C 	C 	0.29260 0.99960 0.78610 -0.12500
H 	H 	0.30210 0.99770 0.75670 0.07400
C 	C 	0.26390 0.96410 0.80550 0.05300
H 	H 	0.25080 0.93970 0.78840 0.02600
C 	C 	0.45540 0.17230 0.82090 0.09400
C 	C 	0.46390 0.21150 0.80550 -0.16900
H 	H 	0.43520 0.21980 0.77760 0.08800
C 	C 	0.49910 0.16210 0.86230 -0.16500
H 	H 	0.49480 0.13530 0.87450 0.09300
C 	C 	0.54990 0.19080 0.88650 0.10700
H 	H 	0.57980 0.18280 0.91420 0.00000
C 	C 	0.35560 0.18490 0.43620 0.39300
C 	C 	0.43260 0.20080 0.43590 -0.16000
C 	C 	0.46340 0.23430 0.46370 0.08000
H 	H 	0.43650 0.24690 0.48360 -0.00900
C 	C 	0.47660 0.18110 0.40900 0.07800
H 	H 	0.45780 0.15810 0.39090 0.02000
C 	C 	0.61270 0.26130 0.89660 0.43300
C 	C 	0.55600 0.22960 0.87030 -0.18600
C 	C 	0.51440 0.24030 0.82990 0.10100
H 	H 	0.51920 0.26710 0.81800 0.00800
C 	C 	0.22760 0.92813 0.87290 0.36100
C 	C 	0.25560 0.96640 0.85040 -0.13600
C 	C 	0.27250 0.00281 0.87430 0.05900
H 	H 	0.26750 0.00420 0.90460 0.00500
C 	C 	0.02130 0.10300 0.44470 0.37900
C 	C 	0.95830 0.13518 0.43870 -0.14900
C 	C 	0.89470 0.12600 0.45570 0.06000
H 	H 	0.89000 0.10000 0.46930 0.03200
C 	C 	0.83840 0.15570 0.45230 -0.13700
H 	H 	0.79570 0.14920 0.46360 0.08200
C 	C 	0.84380 0.19453 0.43260 0.06700
C 	C 	0.90750 0.20310 0.41550 -0.14200
H 	H 	0.91260 0.22910 0.40190 0.08200
C 	C 	0.96370 0.17310 0.41830 0.07200
H 	H 	0.00580 0.17910 0.40610 0.00100
C 	C 	0.78430 0.22725 0.43280 0.02600
C 	C 	0.71020 0.21530 0.43000 -0.09100
H 	H 	0.69710 0.18710 0.42440 0.06200
C 	C 	0.65450 0.24430 0.43530 0.02100
C 	C 	0.67560 0.28680 0.44320 -0.09000
H 	H 	0.63980 0.30660 0.44750 0.06200
C 	C 	0.74880 0.29977 0.44490 0.02500
C 	C 	0.80350 0.26980 0.43980 -0.09200
H 	H 	0.85270 0.27840 0.44120 0.06300
C 	C 	0.57790 0.22991 0.43460 0.07300
C 	C 	0.53400 0.24880 0.46130 -0.14800
H 	H 	0.55270 0.27240 0.47860 0.08300
C 	C 	0.54750 0.19540 0.40890 -0.14400
H 	H 	0.57620 0.18150 0.39100 0.08200
C 	C 	0.82110 0.47400 0.49940 0.38000
C 	C 	0.80250 0.42881 0.48370 -0.15300
C 	C 	0.73550 0.41885 0.45750 0.08000
H 	H 	0.70010 0.44000 0.44860 -0.01100
C 	C 	0.71930 0.37750 0.44370 -0.14400
H 	H 	0.67280 0.37140 0.42570 0.08100
C 	C 	0.77030 0.34490 0.45580 0.06600
C 	C 	0.83920 0.35610 0.48190 -0.14000
H 	H 	0.87560 0.33540 0.49020 0.08300
C 	C 	0.85490 0.39710 0.49570 0.06900
H 	H 	0.90150 0.40370 0.51340 0.02600
Sr	Sr	0.30382 0.64982 0.07790 1.52600
Sr	Sr	0.35143 0.53944 0.03012 1.51600
O 	O 	0.27430 0.60772 0.99875 -0.49800
O 	O 	0.29120 0.67596 0.98971 -0.52700
O 	O 	0.16170 0.64808 0.07620 -0.39900
O 	O 	0.19100 0.70999 0.05255 -0.54300
O 	O 	0.85690 0.75350 0.56430 -0.51300
O 	O 	0.87650 0.79420 0.62440 -0.45800
O 	O 	0.27210 0.43048 0.58522 -0.50100
O 	O 	0.29260 0.39570 0.64991 -0.38700
O 	O 	0.42040 0.61239 0.07019 -0.52600
O 	O 	0.48570 0.56876 0.03560 -0.43500
O 	O 	0.40650 0.50509 0.10794 -0.74700
H 	H 	0.42440 0.49470 0.13410 0.32700
H 	H 	0.35970 0.50890 0.10540 0.24200
O 	O 	0.43060 0.46994 0.02333 -0.62900
H 	H 	0.46160 0.47970 0.00810 0.23800
H 	H 	0.43300 0.48430 0.04770 0.20000
O 	O 	0.73140 0.00074 0.00826 -0.42400
O 	O 	0.61430 0.98255 0.98250 -0.22900
C 	C 	0.27290 0.63944 0.97270 0.40500
C 	C 	0.24700 0.63458 0.92390 -0.20800
C 	C 	0.24260 0.66860 0.89420 0.11100
H 	H 	0.25690 0.69540 0.90560 -0.02600
C 	C 	0.21690 0.66330 0.84730 -0.16700
H 	H 	0.21490 0.68640 0.82780 0.08900
C 	C 	0.19450 0.62380 0.82970 0.08900
C 	C 	0.19710 0.59010 0.85920 -0.16500
H 	H 	0.18190 0.56350 0.84770 0.08900
C 	C 	0.22230 0.59510 0.90590 0.10000
H 	H 	0.22260 0.57210 0.92540 -0.01000
C 	C 	0.16920 0.61770 0.77990 0.01400
C 	C 	0.12220 0.64660 0.75350 -0.08200
H 	H 	0.10820 0.67100 0.76710 0.06000
C 	C 	0.09520 0.63990 0.70680 0.01300
C 	C 	0.12110 0.60500 0.68710 -0.08600
H 	H 	0.10660 0.60110 0.65570 0.06100
C 	C 	0.16820 0.57540 0.71270 0.02500
C 	C 	0.19190 0.58250 0.75820 -0.08900
H 	H 	0.22430 0.56310 0.77530 0.05900
C 	C 	0.19320 0.53680 0.69060 0.06400
C 	C 	0.20280 0.53800 0.64620 -0.13200
H 	H 	0.19250 0.56290 0.62950 0.07900
C 	C 	0.20740 0.49960 0.71390 -0.12700
H 	H 	0.19790 0.49770 0.74330 0.07400
C 	C 	0.23610 0.46410 0.69450 0.05500
H 	H 	0.24920 0.43970 0.71160 0.02500
C 	C 	0.04460 0.67230 0.67910 0.09500
C 	C 	0.03610 0.71150 0.69450 -0.17000
H 	H 	0.06480 0.71980 0.72240 0.08800
C 	C 	0.00090 0.66210 0.63770 -0.16700
H 	H 	0.00520 0.63530 0.62550 0.09200
C 	C 	0.95010 0.69080 0.61350 0.10900
H 	H 	0.92020 0.68280 0.58580 -0.00300
C 	C 	0.14440 0.68490 0.06380 0.39200
C 	C 	0.06740 0.70080 0.06410 -0.16200
C 	C 	0.03660 0.73430 0.03630 0.07800
H 	H 	0.06350 0.74690 0.01640 -0.01300
C 	C 	0.02340 0.68110 0.09100 0.07700
H 	H 	0.04220 0.65810 0.10910 0.02000
C 	C 	0.88730 0.76130 0.60340 0.43500
C 	C 	0.94400 0.72960 0.62970 -0.18800
C 	C 	0.98560 0.74030 0.67010 0.10200
H 	H 	0.98080 0.76710 0.68200 0.00700
C 	C 	0.27240 0.42813 0.62710 0.36200
C 	C 	0.24440 0.46640 0.64960 -0.13800
C 	C 	0.22750 0.50281 0.62570 0.06000
H 	H 	0.23250 0.50420 0.59540 0.00400
C 	C 	0.47870 0.60300 0.05530 0.37900
C 	C 	0.54170 0.63518 0.06130 -0.15100
C 	C 	0.60530 0.62600 0.04430 0.05800
H 	H 	0.61000 0.60000 0.03070 0.02700
C 	C 	0.66160 0.65570 0.04770 -0.13700
H 	H 	0.70430 0.64920 0.03640 0.07700
C 	C 	0.65620 0.69453 0.06740 0.06300
C 	C 	0.59250 0.70310 0.08450 -0.14200
H 	H 	0.58740 0.72910 0.09810 0.08200
C 	C 	0.53630 0.67310 0.08170 0.07000
H 	H 	0.49420 0.67910 0.09390 0.00100
C 	C 	0.71570 0.72725 0.06720 0.02800
C 	C 	0.78980 0.71530 0.07000 -0.09600
H 	H 	0.80290 0.68710 0.07560 0.06200
C 	C 	0.84550 0.74430 0.06470 0.02300
C 	C 	0.82440 0.78680 0.05680 -0.10000
H 	H 	0.86020 0.80660 0.05250 0.06300
C 	C 	0.75120 0.79977 0.05510 0.03700
C 	C 	0.69650 0.76980 0.06020 -0.10200
H 	H 	0.64730 0.77840 0.05880 0.06400
C 	C 	0.92210 0.72991 0.06540 0.06900
C 	C 	0.96600 0.74880 0.03870 -0.15000
H 	H 	0.94730 0.77240 0.02140 0.07800
C 	C 	0.95250 0.69540 0.09110 -0.14500
H 	H 	0.92380 0.68150 0.10900 0.08100
C 	C 	0.67890 0.97400 0.00060 0.34000
C 	C 	0.69750 0.92881 0.01630 -0.11100
C 	C 	0.76450 0.91885 0.04250 0.04100
H 	H 	0.79990 0.94000 0.05140 0.00200
C 	C 	0.78070 0.87750 0.05630 -0.11400
H 	H 	0.82720 0.87140 0.07430 0.06900
C 	C 	0.72970 0.84490 0.04420 0.03300
C 	C 	0.66080 0.85610 0.01810 -0.09200
H 	H 	0.62440 0.83540 0.00980 0.06000
C 	C 	0.64510 0.89710 0.00430 -0.00900
H 	H 	0.59850 0.90370 0.98660 0.06500
Sr	Sr	0.80382 0.14982 0.07790 1.52600
Sr	Sr	0.85143 0.03944 0.03012 1.51600
O 	O 	0.77430 0.10772 0.99875 -0.49900
O 	O 	0.79120 0.17596 0.98971 -0.52700
O 	O 	0.66170 0.14808 0.07620 -0.39900
O 	O 	0.69100 0.20999 0.05255 -0.54300
O 	O 	0.35690 0.25350 0.56430 -0.51300
O 	O 	0.37650 0.29420 0.62440 -0.45800
O 	O 	0.77210 0.93048 0.58522 -0.50100
O 	O 	0.79260 0.89570 0.64991 -0.38700
O 	O 	0.92040 0.11239 0.07019 -0.52500
O 	O 	0.98570 0.06876 0.03560 -0.43500
O 	O 	0.90650 0.00509 0.10794 -0.74700
H 	H 	0.92440 0.99470 0.13410 0.32600
H 	H 	0.85970 0.00890 0.10540 0.24200
O 	O 	0.93060 0.96994 0.02333 -0.62900
H 	H 	0.96160 0.97970 0.00810 0.23800
H 	H 	0.93300 0.98430 0.04770 0.20000
O 	O 	0.23140 0.50074 0.00826 -0.42500
O 	O 	0.11430 0.48255 0.98250 -0.23000
C 	C 	0.77290 0.13944 0.97270 0.40500
C 	C 	0.74700 0.13458 0.92390 -0.20800
C 	C 	0.74260 0.16860 0.89420 0.11100
H 	H 	0.75690 0.19540 0.90560 -0.02600
C 	C 	0.71690 0.16330 0.84730 -0.16700
H 	H 	0.71490 0.18640 0.82780 0.08900
C 	C 	0.69450 0.12380 0.82970 0.08900
C 	C 	0.69710 0.09010 0.85920 -0.16500
H 	H 	0.68190 0.06350 0.84770 0.08900
C 	C 	0.72230 0.09510 0.90590 0.10000
H 	H 	0.72260 0.07210 0.92540 -0.01000
C 	C 	0.66920 0.11770 0.77990 0.01400
C 	C 	0.62220 0.14660 0.75350 -0.08200
H 	H 	0.60820 0.17100 0.76710 0.06000
C 	C 	0.59520 0.13990 0.70680 0.01300
C 	C 	0.62110 0.10500 0.68710 -0.08600
H 	H 	0.60660 0.10110 0.65570 0.06100
C 	C 	0.66820 0.07540 0.71270 0.02500
C 	C 	0.69190 0.08250 0.75820 -0.08900
H 	H 	0.72430 0.06310 0.77530 0.05800
C 	C 	0.69320 0.03680 0.69060 0.06400
C 	C 	0.70280 0.03800 0.64620 -0.13100
H 	H 	0.69250 0.06290 0.62950 0.07900
C 	C 	0.70740 0.99960 0.71390 -0.12600
H 	H 	0.69790 0.99770 0.74330 0.07400
C 	C 	0.73610 0.96410 0.69450 0.05400
H 	H 	0.74920 0.93970 0.71160 0.02600
C 	C 	0.54460 0.17230 0.67910 0.09500
C 	C 	0.53610 0.21150 0.69450 -0.17000
H 	H 	0.56480 0.21980 0.72240 0.08800
C 	C 	0.50090 0.16210 0.63770 -0.16700
H 	H 	0.50520 0.13530 0.62550 0.09200
C 	C 	0.45010 0.19080 0.61350 0.10900
H 	H 	0.42020 0.18280 0.58580 -0.00300
C 	C 	0.64440 0.18490 0.06380 0.39200
C 	C 	0.56740 0.20080 0.06410 -0.16100
C 	C 	0.53660 0.23430 0.03630 0.07700
H 	H 	0.56350 0.24690 0.01640 -0.01300
C 	C 	0.52340 0.18110 0.09100 0.07600
H 	H 	0.54220 0.15810 0.10910 0.02000
C 	C 	0.38730 0.26130 0.60340 0.43500
C 	C 	0.44400 0.22960 0.62970 -0.18800
C 	C 	0.48560 0.24030 0.67010 0.10300
H 	H 	0.48080 0.26710 0.68200 0.00700
C 	C 	0.77240 0.92813 0.62710 0.36200
C 	C 	0.74440 0.96640 0.64960 -0.13700
C 	C 	0.72750 0.00281 0.62570 0.06000
H 	H 	0.73250 0.00420 0.59540 0.00400
C 	C 	0.97870 0.10300 0.05530 0.37900
C 	C 	0.04170 0.13518 0.06130 -0.15100
C 	C 	0.10530 0.12600 0.04430 0.05800
H 	H 	0.11000 0.10000 0.03070 0.02700
C 	C 	0.16160 0.15570 0.04770 -0.13700
H 	H 	0.20430 0.14920 0.03640 0.07700
C 	C 	0.15620 0.19453 0.06740 0.06300
C 	C 	0.09250 0.20310 0.08450 -0.14300
H 	H 	0.08740 0.22910 0.09810 0.08200
C 	C 	0.03630 0.17310 0.08170 0.07100
H 	H 	0.99420 0.17910 0.09390 0.00000
C 	C 	0.21570 0.22725 0.06720 0.02800
C 	C 	0.28980 0.21530 0.07000 -0.09600
H 	H 	0.30290 0.18710 0.07560 0.06200
C 	C 	0.34550 0.24430 0.06470 0.02300
C 	C 	0.32440 0.28680 0.05680 -0.10000
H 	H 	0.36020 0.30660 0.05250 0.06300
C 	C 	0.25120 0.29977 0.05510 0.03700
C 	C 	0.19650 0.26980 0.06020 -0.10200
H 	H 	0.14730 0.27840 0.05880 0.06500
C 	C 	0.42210 0.22991 0.06540 0.06800
C 	C 	0.46600 0.24880 0.03870 -0.14800
H 	H 	0.44730 0.27240 0.02140 0.07800
C 	C 	0.45250 0.19540 0.09110 -0.14400
H 	H 	0.42380 0.18150 0.10900 0.08100
C 	C 	0.17890 0.47400 0.00060 0.34100
C 	C 	0.19750 0.42881 0.01630 -0.11200
C 	C 	0.26450 0.41885 0.04250 0.04100
H 	H 	0.29990 0.44000 0.05140 0.00100
C 	C 	0.28070 0.37750 0.05630 -0.11400
H 	H 	0.32720 0.37140 0.07430 0.06900
C 	C 	0.22970 0.34490 0.04420 0.03400
C 	C 	0.16080 0.35610 0.01810 -0.09200
H 	H 	0.12440 0.33540 0.00980 0.06000
C 	C 	0.14510 0.39710 0.00430 -0.00700
H 	H 	0.09850 0.40370 0.98660 0.06500
Sr	Sr	0.25000 0.25000 0.50000 1.53200
Sr	Sr	0.75000 0.25000 -0.00000 1.52900
Sr	Sr	0.75000 0.75000 0.50000 1.53200
Sr	Sr	0.25000 0.75000 -0.00000 1.52900
