data_crystal

_cell_length_a 15.57100
_cell_length_b 23.29600
_cell_length_c 32.32800
_cell_angle_alpha 90.00000
_cell_angle_beta  90.00000
_cell_angle_gamma 90.00000

_symmetry_space_group_name_	'P 1'
_symmetry_space_group_name_H-M	'P 1'

loop_
_symmetry_equiv_pos_as_xyz
  x,y,z

loop_
_atom_site_label
_atom_site_type_symbol
_atom_site_fract_x
_atom_site_fract_y
_atom_site_fract_z
_atom_site_charge
Ni	Ni	0.13802 0.76046 0.91389 1.13100
N 	N 	0.10710 0.83610 0.88268 -0.23500
N 	N 	0.27200 0.98600 0.69652 -0.23900
O 	O 	0.19280 0.80504 0.96158 -0.40800
O 	O 	0.32950 0.81665 0.94229 -0.39800
O 	O 	0.07850 0.93140 0.07709 -0.32200
O 	O 	0.17770 0.96482 0.11977 -0.42200
H 	H 	0.27000 0.77600 0.86520 0.60300
C 	C 	0.02940 0.84370 0.86580 0.12500
H 	H 	0.98810 0.81460 0.86940 -0.02900
C 	C 	0.00680 0.89120 0.84360 -0.15400
H 	H 	0.95110 0.89420 0.83260 0.06900
C 	C 	0.06530 0.93470 0.83726 0.12200
C 	C 	0.14610 0.92820 0.85450 -0.16800
H 	H 	0.18810 0.95680 0.85120 0.08700
C 	C 	0.16440 0.87820 0.87680 0.09200
H 	H 	0.21950 0.87400 0.88830 -0.00100
C 	C 	0.04550 0.98690 0.81090 -0.13200
H 	H 	0.08880 0.01720 0.81580 0.09000
C 	C 	0.03480 0.97640 0.76322 -0.03200
H 	H 	0.00740 0.93860 0.75860 0.04400
C 	C 	0.11440 0.98040 0.73790 0.05800
C 	C 	0.14020 0.02900 0.71690 -0.11900
H 	H 	0.10460 0.06160 0.71650 0.07900
C 	C 	0.21810 0.03000 0.69670 0.10800
H 	H 	0.23370 0.06340 0.68230 0.00600
C 	C 	0.24750 0.93890 0.71620 0.08700
H 	H 	0.28480 0.90720 0.71610 0.00300
C 	C 	0.17080 0.93370 0.73650 -0.14600
H 	H 	0.15610 0.89900 0.74950 0.08700
C 	C 	0.28050 0.86740 0.00090 -0.12600
C 	C 	0.36260 0.88670 0.01060 0.06200
H 	H 	0.40950 0.87350 0.99490 0.01700
C 	C 	0.37680 0.92440 0.04200 -0.12400
H 	H 	0.43200 0.93970 0.04630 0.06600
C 	C 	0.30910 0.94000 0.06770 0.04900
H 	H 	0.31950 0.96340 0.09080 0.02100
C 	C 	0.22640 0.92120 0.05950 -0.12400
C 	C 	0.21210 0.88560 0.02560 0.06200
H 	H 	0.15600 0.87370 0.01930 0.03800
C 	C 	0.26690 0.82600 0.96610 0.37300
C 	C 	0.15520 0.94010 0.08750 0.36400
Ni	Ni	0.13802 0.26046 0.41389 1.13000
N 	N 	0.10710 0.33610 0.38268 -0.23100
N 	N 	0.27200 0.48600 0.19652 -0.22900
O 	O 	0.19280 0.30504 0.46158 -0.40800
O 	O 	0.32950 0.31665 0.44229 -0.39800
O 	O 	0.07850 0.43140 0.57709 -0.32200
O 	O 	0.17770 0.46482 0.61977 -0.41300
H 	H 	0.27000 0.27600 0.36520 0.60300
C 	C 	0.02940 0.34370 0.36580 0.11400
H 	H 	0.98810 0.31460 0.36940 -0.02500
C 	C 	0.00680 0.39120 0.34360 -0.12900
H 	H 	0.95110 0.39420 0.33260 0.06000
C 	C 	0.06530 0.43470 0.33726 0.08700
C 	C 	0.14610 0.42820 0.35450 -0.14300
H 	H 	0.18810 0.45680 0.35120 0.08500
C 	C 	0.16440 0.37820 0.37680 0.08200
H 	H 	0.21950 0.37400 0.38830 0.00400
C 	C 	0.04550 0.48690 0.31090 -0.03700
H 	H 	0.08880 0.51720 0.31580 0.04500
C 	C 	0.03480 0.47640 0.26322 -0.06200
H 	H 	0.00740 0.43860 0.25860 0.05500
C 	C 	0.11440 0.48040 0.23790 0.11100
C 	C 	0.14020 0.52900 0.21690 -0.16600
H 	H 	0.10460 0.56160 0.21650 0.09200
C 	C 	0.21810 0.53000 0.19670 0.10000
H 	H 	0.23370 0.56340 0.18230 0.00600
C 	C 	0.24750 0.43890 0.21620 0.10500
H 	H 	0.28480 0.40720 0.21610 -0.00200
C 	C 	0.17080 0.43370 0.23650 -0.16900
H 	H 	0.15610 0.39900 0.24950 0.09600
C 	C 	0.28050 0.36740 0.50090 -0.12500
C 	C 	0.36260 0.38670 0.51060 0.05200
H 	H 	0.40950 0.37350 0.49490 0.02600
C 	C 	0.37680 0.42440 0.54200 -0.11400
H 	H 	0.43200 0.43970 0.54630 0.06800
C 	C 	0.30910 0.44000 0.56770 0.04500
H 	H 	0.31950 0.46340 0.59080 0.02700
C 	C 	0.22640 0.42120 0.55950 -0.11800
C 	C 	0.21210 0.38560 0.52560 0.06000
H 	H 	0.15600 0.37370 0.51930 0.03800
C 	C 	0.26690 0.32600 0.46610 0.37600
C 	C 	0.15520 0.44010 0.58750 0.36200
Ni	Ni	0.63802 0.76046 0.41389 1.12900
N 	N 	0.60710 0.83610 0.38268 -0.23500
N 	N 	0.77200 0.98600 0.19652 -0.23900
O 	O 	0.69280 0.80504 0.46158 -0.41100
O 	O 	0.82950 0.81665 0.44229 -0.40200
O 	O 	0.57850 0.93140 0.57709 -0.33400
O 	O 	0.67770 0.96482 0.61977 -0.42500
H 	H 	0.77000 0.77600 0.36520 0.60200
C 	C 	0.52940 0.84370 0.36580 0.10600
H 	H 	0.48810 0.81460 0.36940 -0.00900
C 	C 	0.50680 0.89120 0.34360 -0.18900
H 	H 	0.45110 0.89420 0.33260 0.09300
C 	C 	0.56530 0.93470 0.33726 0.13900
C 	C 	0.64610 0.92820 0.35450 -0.17800
H 	H 	0.68810 0.95680 0.35120 0.08900
C 	C 	0.66440 0.87820 0.37680 0.09700
H 	H 	0.71950 0.87400 0.38830 -0.00300
C 	C 	0.54550 0.98690 0.31090 -0.16000
H 	H 	0.58880 0.01720 0.31580 0.09400
C 	C 	0.53480 0.97640 0.26322 -0.03900
H 	H 	0.50740 0.93860 0.25860 0.03900
C 	C 	0.61440 0.98040 0.23790 0.05600
C 	C 	0.64020 0.02900 0.21690 -0.12000
H 	H 	0.60460 0.06160 0.21650 0.07400
C 	C 	0.71810 0.03000 0.19670 0.10600
H 	H 	0.73370 0.06340 0.18230 0.00500
C 	C 	0.74750 0.93890 0.21620 0.08600
H 	H 	0.78480 0.90720 0.21610 0.00300
C 	C 	0.67080 0.93370 0.23650 -0.14500
H 	H 	0.65610 0.89900 0.24950 0.08600
C 	C 	0.78050 0.86740 0.50090 -0.13100
C 	C 	0.86260 0.88670 0.51060 0.05300
H 	H 	0.90950 0.87350 0.49490 0.01800
C 	C 	0.87680 0.92440 0.54200 -0.12200
H 	H 	0.93200 0.93970 0.54630 0.05900
C 	C 	0.80910 0.94000 0.56770 0.04700
H 	H 	0.81950 0.96340 0.59080 0.01900
C 	C 	0.72640 0.92120 0.55950 -0.12700
C 	C 	0.71210 0.88560 0.52560 0.06200
H 	H 	0.65600 0.87370 0.51930 0.03400
C 	C 	0.76690 0.82600 0.46610 0.37700
C 	C 	0.65520 0.94010 0.58750 0.36500
Ni	Ni	0.63802 0.26046 0.91389 1.12900
N 	N 	0.60710 0.33610 0.88268 -0.23100
N 	N 	0.77200 0.48600 0.69652 -0.22900
O 	O 	0.69280 0.30504 0.96158 -0.41100
O 	O 	0.82950 0.31665 0.94229 -0.40100
O 	O 	0.57850 0.43140 0.07709 -0.33100
O 	O 	0.67770 0.46482 0.11977 -0.41500
H 	H 	0.77000 0.27600 0.86520 0.60200
C 	C 	0.52940 0.34370 0.86580 0.09500
H 	H 	0.48810 0.31460 0.86940 -0.00500
C 	C 	0.50680 0.39120 0.84360 -0.16500
H 	H 	0.45110 0.39420 0.83260 0.08500
C 	C 	0.56530 0.43470 0.83726 0.10400
C 	C 	0.64610 0.42820 0.85450 -0.15400
H 	H 	0.68810 0.45680 0.85120 0.08700
C 	C 	0.66440 0.37820 0.87680 0.08600
H 	H 	0.71950 0.37400 0.88830 0.00100
C 	C 	0.54550 0.48690 0.81090 -0.06400
H 	H 	0.58880 0.51720 0.81580 0.04900
C 	C 	0.53480 0.47640 0.76322 -0.06900
H 	H 	0.50740 0.43860 0.75860 0.05000
C 	C 	0.61440 0.48040 0.73790 0.10800
C 	C 	0.64020 0.52900 0.71690 -0.16700
H 	H 	0.60460 0.56160 0.71650 0.08600
C 	C 	0.71810 0.53000 0.69670 0.09800
H 	H 	0.73370 0.56340 0.68230 0.00500
C 	C 	0.74750 0.43890 0.71620 0.10300
H 	H 	0.78480 0.40720 0.71610 -0.00200
C 	C 	0.67080 0.43370 0.73650 -0.16900
H 	H 	0.65610 0.39900 0.74950 0.09400
C 	C 	0.78050 0.36740 0.00090 -0.12800
C 	C 	0.86260 0.38670 0.01060 0.06300
H 	H 	0.90950 0.37350 0.99490 0.01400
C 	C 	0.87680 0.42440 0.04200 -0.12400
H 	H 	0.93200 0.43970 0.04630 0.06600
C 	C 	0.80910 0.44000 0.06770 0.05000
H 	H 	0.81950 0.46340 0.09080 0.02400
C 	C 	0.72640 0.42120 0.05950 -0.12300
C 	C 	0.71210 0.38560 0.02560 0.06200
H 	H 	0.65600 0.37370 0.01930 0.03600
C 	C 	0.76690 0.32600 0.96610 0.37300
C 	C 	0.65520 0.44010 0.08750 0.36400
Ni	Ni	0.86198 0.23954 0.91389 1.12800
N 	N 	0.89290 0.16390 0.88268 -0.22600
N 	N 	0.72800 0.01400 0.69652 -0.21800
O 	O 	0.80720 0.19496 0.96158 -0.41100
O 	O 	0.67050 0.18335 0.94229 -0.39800
O 	O 	0.92150 0.06860 0.07709 -0.32800
O 	O 	0.82230 0.03518 0.11977 -0.40500
H 	H 	0.73000 0.22400 0.86520 0.60200
C 	C 	0.97060 0.15630 0.86580 0.06500
H 	H 	0.01190 0.18540 0.86940 0.01900
C 	C 	0.99320 0.10880 0.84360 -0.17700
H 	H 	0.04890 0.10580 0.83260 0.10200
C 	C 	0.93470 0.06530 0.83726 0.08800
C 	C 	0.85390 0.07180 0.85450 -0.14100
H 	H 	0.81190 0.04320 0.85120 0.09000
C 	C 	0.83560 0.12180 0.87680 0.08200
H 	H 	0.78050 0.12600 0.88830 0.00500
C 	C 	0.95450 0.01310 0.81090 0.00200
H 	H 	0.91120 0.98280 0.81580 0.01100
C 	C 	0.96520 0.02360 0.76322 -0.10500
H 	H 	0.99260 0.06140 0.75860 0.05500
C 	C 	0.88560 0.01960 0.73790 0.15700
C 	C 	0.85980 0.97100 0.71690 -0.21100
H 	H 	0.89540 0.93840 0.71650 0.09400
C 	C 	0.78190 0.97000 0.69670 0.08800
H 	H 	0.76630 0.93660 0.68230 0.00500
C 	C 	0.75250 0.06110 0.71620 0.11900
H 	H 	0.71520 0.09280 0.71610 -0.00600
C 	C 	0.82920 0.06630 0.73650 -0.19100
H 	H 	0.84390 0.10100 0.74950 0.10100
C 	C 	0.71950 0.13260 0.00090 -0.12500
C 	C 	0.63740 0.11330 0.01060 0.06500
H 	H 	0.59050 0.12650 0.99490 0.02000
C 	C 	0.62320 0.07560 0.04200 -0.12000
H 	H 	0.56800 0.06030 0.04630 0.07600
C 	C 	0.69090 0.06000 0.06770 0.05100
H 	H 	0.68050 0.03660 0.09080 0.03100
C 	C 	0.77360 0.07880 0.05950 -0.12000
C 	C 	0.78790 0.11440 0.02560 0.06200
H 	H 	0.84400 0.12630 0.01930 0.03600
C 	C 	0.73310 0.17400 0.96610 0.37300
C 	C 	0.84480 0.05990 0.08750 0.36300
Ni	Ni	0.86198 0.73954 0.41389 1.12900
N 	N 	0.89290 0.66390 0.38268 -0.23000
N 	N 	0.72800 0.51400 0.19652 -0.22800
O 	O 	0.80720 0.69496 0.46158 -0.41100
O 	O 	0.67050 0.68335 0.44229 -0.39900
O 	O 	0.92150 0.56860 0.57709 -0.33600
O 	O 	0.82230 0.53518 0.61977 -0.41600
H 	H 	0.73000 0.72400 0.36520 0.60200
C 	C 	0.97060 0.65630 0.36580 0.07700
H 	H 	0.01190 0.68540 0.36940 0.01500
C 	C 	0.99320 0.60880 0.34360 -0.20100
H 	H 	0.04890 0.60580 0.33260 0.11000
C 	C 	0.93470 0.56530 0.33726 0.12200
C 	C 	0.85390 0.57180 0.35450 -0.16500
H 	H 	0.81190 0.54320 0.35120 0.09100
C 	C 	0.83560 0.62180 0.37680 0.09200
H 	H 	0.78050 0.62600 0.38830 0.00000
C 	C 	0.95450 0.51310 0.31090 -0.09200
H 	H 	0.91120 0.48280 0.31580 0.05500
C 	C 	0.96520 0.52360 0.26322 -0.07500
H 	H 	0.99260 0.56140 0.25860 0.04400
C 	C 	0.88560 0.51960 0.23790 0.10600
C 	C 	0.85980 0.47100 0.21690 -0.16600
H 	H 	0.89540 0.43840 0.21650 0.08100
C 	C 	0.78190 0.47000 0.19670 0.09700
H 	H 	0.76630 0.43660 0.18230 0.00400
C 	C 	0.75250 0.56110 0.21620 0.10200
H 	H 	0.71520 0.59280 0.21610 -0.00200
C 	C 	0.82920 0.56630 0.23650 -0.16800
H 	H 	0.84390 0.60100 0.24950 0.09300
C 	C 	0.71950 0.63260 0.50090 -0.12800
C 	C 	0.63740 0.61330 0.51060 0.05400
H 	H 	0.59050 0.62650 0.49490 0.02500
C 	C 	0.62320 0.57560 0.54200 -0.11800
H 	H 	0.56800 0.56030 0.54630 0.06900
C 	C 	0.69090 0.56000 0.56770 0.04800
H 	H 	0.68050 0.53660 0.59080 0.02600
C 	C 	0.77360 0.57880 0.55950 -0.12400
C 	C 	0.78790 0.61440 0.52560 0.06200
H 	H 	0.84400 0.62630 0.51930 0.03300
C 	C 	0.73310 0.67400 0.46610 0.37700
C 	C 	0.84480 0.55990 0.58750 0.36400
Ni	Ni	0.36198 0.23954 0.41389 1.12900
N 	N 	0.39290 0.16390 0.38268 -0.22600
N 	N 	0.22800 0.01400 0.19652 -0.21800
O 	O 	0.30720 0.19496 0.46158 -0.40900
O 	O 	0.17050 0.18335 0.44229 -0.39500
O 	O 	0.42150 0.06860 0.57709 -0.32300
O 	O 	0.32230 0.03518 0.61977 -0.40200
H 	H 	0.23000 0.22400 0.36520 0.60300
C 	C 	0.47060 0.15630 0.36580 0.08400
H 	H 	0.51190 0.18540 0.36940 -0.00100
C 	C 	0.49320 0.10880 0.34360 -0.14000
H 	H 	0.54890 0.10580 0.33260 0.07700
C 	C 	0.43470 0.06530 0.33726 0.07000
C 	C 	0.35390 0.07180 0.35450 -0.13000
H 	H 	0.31190 0.04320 0.35120 0.08800
C 	C 	0.33560 0.12180 0.37680 0.07700
H 	H 	0.28050 0.12600 0.38830 0.00800
C 	C 	0.45450 0.01310 0.31090 0.03100
H 	H 	0.41120 0.98280 0.31580 0.00500
C 	C 	0.46520 0.02360 0.26322 -0.09900
H 	H 	0.49260 0.06140 0.25860 0.06100
C 	C 	0.38560 0.01960 0.23790 0.16100
C 	C 	0.35980 0.97100 0.21690 -0.21300
H 	H 	0.39540 0.93840 0.21650 0.09900
C 	C 	0.28190 0.97000 0.19670 0.09000
H 	H 	0.26630 0.93660 0.18230 0.00600
C 	C 	0.25250 0.06110 0.21620 0.12100
H 	H 	0.21520 0.09280 0.21610 -0.00600
C 	C 	0.32920 0.06630 0.23650 -0.19200
H 	H 	0.34390 0.10100 0.24950 0.10300
C 	C 	0.21950 0.13260 0.50090 -0.12200
C 	C 	0.13740 0.11330 0.51060 0.05300
H 	H 	0.09050 0.12650 0.49490 0.03200
C 	C 	0.12320 0.07560 0.54200 -0.11000
H 	H 	0.06800 0.06030 0.54630 0.07700
C 	C 	0.19090 0.06000 0.56770 0.04700
H 	H 	0.18050 0.03660 0.59080 0.03500
C 	C 	0.27360 0.07880 0.55950 -0.11500
C 	C 	0.28790 0.11440 0.52560 0.06000
H 	H 	0.34400 0.12630 0.51930 0.03800
C 	C 	0.23310 0.17400 0.46610 0.37600
C 	C 	0.34480 0.05990 0.58750 0.36100
Ni	Ni	0.36198 0.73954 0.91389 1.12900
N 	N 	0.39290 0.66390 0.88268 -0.23100
N 	N 	0.22800 0.51400 0.69652 -0.22900
O 	O 	0.30720 0.69496 0.96158 -0.41000
O 	O 	0.17050 0.68335 0.94229 -0.39600
O 	O 	0.42150 0.56860 0.07709 -0.33100
O 	O 	0.32230 0.53518 0.11977 -0.41400
H 	H 	0.23000 0.72400 0.86520 0.60300
C 	C 	0.47060 0.65630 0.86580 0.09500
H 	H 	0.51190 0.68540 0.86940 -0.00500
C 	C 	0.49320 0.60880 0.84360 -0.16500
H 	H 	0.54890 0.60580 0.83260 0.08500
C 	C 	0.43470 0.56530 0.83726 0.10500
C 	C 	0.35390 0.57180 0.85450 -0.15400
H 	H 	0.31190 0.54320 0.85120 0.08900
C 	C 	0.33560 0.62180 0.87680 0.08700
H 	H 	0.28050 0.62600 0.88830 0.00200
C 	C 	0.45450 0.51310 0.81090 -0.06500
H 	H 	0.41120 0.48280 0.81580 0.05000
C 	C 	0.46520 0.52360 0.76322 -0.06800
H 	H 	0.49260 0.56140 0.75860 0.05000
C 	C 	0.38560 0.51960 0.73790 0.10800
C 	C 	0.35980 0.47100 0.71690 -0.16600
H 	H 	0.39540 0.43840 0.71650 0.08700
C 	C 	0.28190 0.47000 0.69670 0.09800
H 	H 	0.26630 0.43660 0.68230 0.00600
C 	C 	0.25250 0.56110 0.71620 0.10300
H 	H 	0.21520 0.59280 0.71610 -0.00100
C 	C 	0.32920 0.56630 0.73650 -0.16800
H 	H 	0.34390 0.60100 0.74950 0.09400
C 	C 	0.21950 0.63260 0.00090 -0.12400
C 	C 	0.13740 0.61330 0.01060 0.06500
H 	H 	0.09050 0.62650 0.99490 0.02300
C 	C 	0.12320 0.57560 0.04200 -0.12000
H 	H 	0.06800 0.56030 0.04630 0.07600
C 	C 	0.19090 0.56000 0.06770 0.05200
H 	H 	0.18050 0.53660 0.09080 0.02700
C 	C 	0.27360 0.57880 0.05950 -0.12200
C 	C 	0.28790 0.61440 0.02560 0.06200
H 	H 	0.34400 0.62630 0.01930 0.03700
C 	C 	0.23310 0.67400 0.96610 0.37300
C 	C 	0.34480 0.55990 0.08750 0.36400
Ni	Ni	0.38802 0.48954 0.16389 1.12900
N 	N 	0.35710 0.41390 0.13268 -0.23100
N 	N 	0.52200 0.26400 0.94652 -0.22800
O 	O 	0.44280 0.44496 0.21158 -0.41000
O 	O 	0.57950 0.43335 0.19229 -0.39900
O 	O 	0.32850 0.31860 0.32709 -0.33100
O 	O 	0.42770 0.28518 0.36977 -0.41400
H 	H 	0.52000 0.47400 0.11520 0.60300
C 	C 	0.27940 0.40630 0.11580 0.09700
H 	H 	0.23810 0.43540 0.11940 -0.00400
C 	C 	0.25680 0.35880 0.09360 -0.16600
H 	H 	0.20110 0.35580 0.08260 0.08800
C 	C 	0.31530 0.31530 0.08726 0.10800
C 	C 	0.39610 0.32180 0.10450 -0.15600
H 	H 	0.43810 0.29320 0.10120 0.09000
C 	C 	0.41440 0.37180 0.12680 0.08800
H 	H 	0.46950 0.37600 0.13830 0.00200
C 	C 	0.29550 0.26310 0.06090 -0.06900
H 	H 	0.33880 0.23280 0.06580 0.05200
C 	C 	0.28480 0.27360 0.01322 -0.05700
H 	H 	0.25740 0.31140 0.00860 0.04900
C 	C 	0.36440 0.26960 0.98790 0.09900
C 	C 	0.39020 0.22100 0.96690 -0.16100
H 	H 	0.35460 0.18840 0.96650 0.08500
C 	C 	0.46810 0.22000 0.94670 0.09500
H 	H 	0.48370 0.18660 0.93230 0.00700
C 	C 	0.49750 0.31110 0.96620 0.10000
H 	H 	0.53480 0.34280 0.96610 -0.00100
C 	C 	0.42080 0.31630 0.98650 -0.16400
H 	H 	0.40610 0.35100 0.99950 0.09100
C 	C 	0.53050 0.38260 0.25090 -0.12700
C 	C 	0.61260 0.36330 0.26060 0.05300
H 	H 	0.65950 0.37650 0.24490 0.02500
C 	C 	0.62680 0.32560 0.29200 -0.11600
H 	H 	0.68200 0.31030 0.29630 0.06700
C 	C 	0.55910 0.31000 0.31770 0.04700
H 	H 	0.56950 0.28660 0.34080 0.02700
C 	C 	0.47640 0.32880 0.30950 -0.12100
C 	C 	0.46210 0.36440 0.27560 0.06100
H 	H 	0.40600 0.37630 0.26930 0.03600
C 	C 	0.51690 0.42400 0.21610 0.37600
C 	C 	0.40520 0.30990 0.33750 0.36300
Ni	Ni	0.38802 0.98954 0.66389 1.11700
N 	N 	0.35710 0.91390 0.63268 -0.23400
N 	N 	0.52200 0.76400 0.44652 -0.22800
O 	O 	0.44280 0.94496 0.71158 -0.41700
O 	O 	0.57950 0.93335 0.69229 -0.40800
O 	O 	0.32850 0.81860 0.82709 -0.33200
O 	O 	0.42770 0.78518 0.86977 -0.41500
H 	H 	0.52000 0.97400 0.61520 0.55500
C 	C 	0.27940 0.90630 0.61580 0.09600
H 	H 	0.23810 0.93540 0.61940 -0.01100
C 	C 	0.25680 0.85880 0.59360 -0.16800
H 	H 	0.20110 0.85580 0.58260 0.08600
C 	C 	0.31530 0.81530 0.58726 0.10700
C 	C 	0.39610 0.82180 0.60450 -0.15600
H 	H 	0.43810 0.79320 0.60120 0.08900
C 	C 	0.41440 0.87180 0.62680 0.08700
H 	H 	0.46950 0.87600 0.63830 0.00100
C 	C 	0.29550 0.76310 0.56090 -0.06800
H 	H 	0.33880 0.73280 0.56580 0.05100
C 	C 	0.28480 0.77360 0.51322 -0.06200
H 	H 	0.25740 0.81140 0.50860 0.04700
C 	C 	0.36440 0.76960 0.48790 0.10400
C 	C 	0.39020 0.72100 0.46690 -0.16400
H 	H 	0.35460 0.68840 0.46650 0.08600
C 	C 	0.46810 0.72000 0.44670 0.09700
H 	H 	0.48370 0.68660 0.43230 0.00600
C 	C 	0.49750 0.81110 0.46620 0.10200
H 	H 	0.53480 0.84280 0.46610 -0.00300
C 	C 	0.42080 0.81630 0.48650 -0.16600
H 	H 	0.40610 0.85100 0.49950 0.09100
C 	C 	0.53050 0.88260 0.75090 -0.13000
C 	C 	0.61260 0.86330 0.76060 0.05300
H 	H 	0.65950 0.87650 0.74490 0.02300
C 	C 	0.62680 0.82560 0.79200 -0.11800
H 	H 	0.68200 0.81030 0.79630 0.06700
C 	C 	0.55910 0.81000 0.81770 0.04700
H 	H 	0.56950 0.78660 0.84080 0.02600
C 	C 	0.47640 0.82880 0.80950 -0.12300
C 	C 	0.46210 0.86440 0.77560 0.06100
H 	H 	0.40600 0.87630 0.76930 0.03400
C 	C 	0.51690 0.92400 0.71610 0.37600
C 	C 	0.40520 0.80990 0.83750 0.36300
Ni	Ni	0.88802 0.48954 0.66389 1.12600
N 	N 	0.85710 0.41390 0.63268 -0.23300
N 	N 	0.02200 0.26400 0.44652 -0.19200
O 	O 	0.94280 0.44496 0.71158 -0.42900
O 	O 	0.07950 0.43335 0.69229 -0.40100
O 	O 	0.82850 0.31860 0.82709 -0.33400
O 	O 	0.92770 0.28518 0.86977 -0.42400
H 	H 	0.02000 0.47400 0.61520 0.58500
C 	C 	0.77940 0.40630 0.61580 0.09500
H 	H 	0.73810 0.43540 0.61940 -0.00500
C 	C 	0.75680 0.35880 0.59360 -0.16700
H 	H 	0.70110 0.35580 0.58260 0.08600
C 	C 	0.81530 0.31530 0.58726 0.10600
C 	C 	0.89610 0.32180 0.60450 -0.15700
H 	H 	0.93810 0.29320 0.60120 0.08500
C 	C 	0.91440 0.37180 0.62680 0.08700
H 	H 	0.96950 0.37600 0.63830 -0.00500
C 	C 	0.79550 0.26310 0.56090 -0.07000
H 	H 	0.83880 0.23280 0.56580 0.05000
C 	C 	0.78480 0.27360 0.51322 -0.05400
H 	H 	0.75740 0.31140 0.50860 0.04500
C 	C 	0.86440 0.26960 0.48790 0.07700
C 	C 	0.89020 0.22100 0.46690 -0.13500
H 	H 	0.85460 0.18840 0.46650 0.07600
C 	C 	0.96810 0.22000 0.44670 0.05900
H 	H 	0.98370 0.18660 0.43230 0.01200
C 	C 	0.99750 0.31110 0.46620 0.02000
H 	H 	0.03480 0.34280 0.46610 0.03900
C 	C 	0.92080 0.31630 0.48650 -0.11900
H 	H 	0.90610 0.35100 0.49950 0.07400
C 	C 	0.03050 0.38260 0.75090 -0.11400
C 	C 	0.11260 0.36330 0.76060 0.06100
H 	H 	0.15950 0.37650 0.74490 0.02400
C 	C 	0.12680 0.32560 0.79200 -0.13000
H 	H 	0.18200 0.31030 0.79630 0.07400
C 	C 	0.05910 0.31000 0.81770 0.08300
H 	H 	0.06950 0.28660 0.84080 0.01900
C 	C 	0.97640 0.32880 0.80950 -0.14700
C 	C 	0.96210 0.36440 0.77560 0.04700
H 	H 	0.90600 0.37630 0.76930 0.03800
C 	C 	0.01690 0.42400 0.71610 0.39800
C 	C 	0.90520 0.30990 0.83750 0.37000
Ni	Ni	0.88802 0.98954 0.16389 1.11400
N 	N 	0.85710 0.91390 0.13268 -0.23600
N 	N 	0.02200 0.76400 0.94652 -0.19300
O 	O 	0.94280 0.94496 0.21158 -0.43600
O 	O 	0.07950 0.93335 0.19229 -0.41000
O 	O 	0.82850 0.81860 0.32709 -0.33500
O 	O 	0.92770 0.78518 0.36977 -0.42400
H 	H 	0.02000 0.97400 0.11520 0.53700
C 	C 	0.77940 0.90630 0.11580 0.09600
H 	H 	0.73810 0.93540 0.11940 -0.01200
C 	C 	0.75680 0.85880 0.09360 -0.16900
H 	H 	0.70110 0.85580 0.08260 0.08500
C 	C 	0.81530 0.81530 0.08726 0.10700
C 	C 	0.89610 0.82180 0.10450 -0.15800
H 	H 	0.93810 0.79320 0.10120 0.08600
C 	C 	0.91440 0.87180 0.12680 0.08700
H 	H 	0.96950 0.87600 0.13830 -0.00500
C 	C 	0.79550 0.76310 0.06090 -0.07100
H 	H 	0.83880 0.73280 0.06580 0.05100
C 	C 	0.78480 0.77360 0.01322 -0.05000
H 	H 	0.75740 0.81140 0.00860 0.04400
C 	C 	0.86440 0.76960 0.98790 0.07100
C 	C 	0.89020 0.72100 0.96690 -0.13300
H 	H 	0.85460 0.68840 0.96650 0.07200
C 	C 	0.96810 0.72000 0.94670 0.05800
H 	H 	0.98370 0.68660 0.93230 0.01100
C 	C 	0.99750 0.81110 0.96620 0.02100
H 	H 	0.03480 0.84280 0.96610 0.03600
C 	C 	0.92080 0.81630 0.98650 -0.11800
H 	H 	0.90610 0.85100 0.99950 0.07000
C 	C 	0.03050 0.88260 0.25090 -0.11700
C 	C 	0.11260 0.86330 0.26060 0.06000
H 	H 	0.15950 0.87650 0.24490 0.02200
C 	C 	0.12680 0.82560 0.29200 -0.13100
H 	H 	0.18200 0.81030 0.29630 0.07400
C 	C 	0.05910 0.81000 0.31770 0.08200
H 	H 	0.06950 0.78660 0.34080 0.01900
C 	C 	0.97640 0.82880 0.30950 -0.14800
C 	C 	0.96210 0.86440 0.27560 0.04700
H 	H 	0.90600 0.87630 0.26930 0.03600
C 	C 	0.01690 0.92400 0.21610 0.39700
C 	C 	0.90520 0.80990 0.33750 0.36900
Ni	Ni	0.11198 0.01046 0.16389 1.13700
N 	N 	0.14290 0.08610 0.13268 -0.22800
N 	N 	0.97800 0.23600 0.94652 -0.26500
O 	O 	0.05720 0.05504 0.21158 -0.38700
O 	O 	0.92050 0.06665 0.19229 -0.39200
O 	O 	0.17150 0.18140 0.32709 -0.32800
O 	O 	0.07230 0.21482 0.36977 -0.40500
H 	H 	0.98000 0.02600 0.11520 0.53800
C 	C 	0.22060 0.09370 0.11580 0.09600
H 	H 	0.26190 0.06460 0.11940 0.00200
C 	C 	0.24320 0.14120 0.09360 -0.16200
H 	H 	0.29890 0.14420 0.08260 0.08700
C 	C 	0.18470 0.18470 0.08726 0.10400
C 	C 	0.10390 0.17820 0.10450 -0.15100
H 	H 	0.06190 0.20680 0.10120 0.09200
C 	C 	0.08560 0.12820 0.12680 0.08900
H 	H 	0.03050 0.12400 0.13830 0.00900
C 	C 	0.20450 0.23690 0.06090 -0.05900
H 	H 	0.16120 0.26720 0.06580 0.05000
C 	C 	0.21520 0.22640 0.01322 -0.07900
H 	H 	0.24260 0.18860 0.00860 0.05600
C 	C 	0.13560 0.23040 0.98790 0.13400
C 	C 	0.10980 0.27900 0.96690 -0.19400
H 	H 	0.14540 0.31160 0.96650 0.09600
C 	C 	0.03190 0.28000 0.94670 0.13600
H 	H 	0.01630 0.31340 0.93230 0.00000
C 	C 	0.00250 0.18890 0.96620 0.18300
H 	H 	0.96520 0.15720 0.96610 -0.04000
C 	C 	0.07920 0.18370 0.98650 -0.21500
H 	H 	0.09390 0.14900 0.99950 0.11500
C 	C 	0.96950 0.11740 0.25090 -0.13700
C 	C 	0.88740 0.13670 0.26060 0.04600
H 	H 	0.84050 0.12350 0.24490 0.02900
C 	C 	0.87320 0.17440 0.29200 -0.10000
H 	H 	0.81800 0.18970 0.29630 0.06200
C 	C 	0.94090 0.19000 0.31770 0.01000
H 	H 	0.93050 0.21340 0.34080 0.03500
C 	C 	0.02360 0.17120 0.30950 -0.09300
C 	C 	0.03790 0.13560 0.27560 0.07600
H 	H 	0.09400 0.12370 0.26930 0.03500
C 	C 	0.98310 0.07600 0.21610 0.35400
C 	C 	0.09480 0.19010 0.33750 0.35700
Ni	Ni	0.11198 0.51046 0.66389 1.12900
N 	N 	0.14290 0.58610 0.63268 -0.23000
N 	N 	0.97800 0.73600 0.44652 -0.26500
O 	O 	0.05720 0.55504 0.71158 -0.39300
O 	O 	0.92050 0.56665 0.69229 -0.39800
O 	O 	0.17150 0.68140 0.82709 -0.32900
O 	O 	0.07230 0.71482 0.86977 -0.40500
H 	H 	0.98000 0.52600 0.61520 0.56400
C 	C 	0.22060 0.59370 0.61580 0.09500
H 	H 	0.26190 0.56460 0.61940 -0.00500
C 	C 	0.24320 0.64120 0.59360 -0.16300
H 	H 	0.29890 0.64420 0.58260 0.08400
C 	C 	0.18470 0.68470 0.58726 0.10300
C 	C 	0.10390 0.67820 0.60450 -0.15100
H 	H 	0.06190 0.70680 0.60120 0.09100
C 	C 	0.08560 0.62820 0.62680 0.08700
H 	H 	0.03050 0.62400 0.63830 0.00900
C 	C 	0.20450 0.73690 0.56090 -0.05800
H 	H 	0.16120 0.76720 0.56580 0.04900
C 	C 	0.21520 0.72640 0.51322 -0.08300
H 	H 	0.24260 0.68860 0.50860 0.05400
C 	C 	0.13560 0.73040 0.48790 0.13900
C 	C 	0.10980 0.77900 0.46690 -0.19600
H 	H 	0.14540 0.81160 0.46650 0.09700
C 	C 	0.03190 0.78000 0.44670 0.13700
H 	H 	0.01630 0.81340 0.43230 -0.00200
C 	C 	0.00250 0.68890 0.46620 0.18400
H 	H 	0.96520 0.65720 0.46610 -0.04100
C 	C 	0.07920 0.68370 0.48650 -0.21700
H 	H 	0.09390 0.64900 0.49950 0.11500
C 	C 	0.96950 0.61740 0.75090 -0.14000
C 	C 	0.88740 0.63670 0.76060 0.04600
H 	H 	0.84050 0.62350 0.74490 0.02700
C 	C 	0.87320 0.67440 0.79200 -0.10300
H 	H 	0.81800 0.68970 0.79630 0.06200
C 	C 	0.94090 0.69000 0.81770 0.01100
H 	H 	0.93050 0.71340 0.84080 0.03400
C 	C 	0.02360 0.67120 0.80950 -0.09600
C 	C 	0.03790 0.63560 0.77560 0.07600
H 	H 	0.09400 0.62370 0.76930 0.03300
C 	C 	0.98310 0.57600 0.71610 0.35400
C 	C 	0.09480 0.69010 0.83750 0.35700
Ni	Ni	0.61198 0.01046 0.66389 1.13700
N 	N 	0.64290 0.08610 0.63268 -0.22900
N 	N 	0.47800 0.23600 0.44652 -0.22900
O 	O 	0.55720 0.05504 0.71158 -0.40500
O 	O 	0.42050 0.06665 0.69229 -0.39200
O 	O 	0.67150 0.18140 0.82709 -0.33100
O 	O 	0.57230 0.21482 0.86977 -0.41400
H 	H 	0.48000 0.02600 0.61520 0.57800
C 	C 	0.72060 0.09370 0.61580 0.09500
H 	H 	0.76190 0.06460 0.61940 0.00100
C 	C 	0.74320 0.14120 0.59360 -0.16200
H 	H 	0.79890 0.14420 0.58260 0.08400
C 	C 	0.68470 0.18470 0.58726 0.10200
C 	C 	0.60390 0.17820 0.60450 -0.15300
H 	H 	0.56190 0.20680 0.60120 0.08800
C 	C 	0.58560 0.12820 0.62680 0.08700
H 	H 	0.53050 0.12400 0.63830 0.00200
C 	C 	0.70450 0.23690 0.56090 -0.06000
H 	H 	0.66120 0.26720 0.56580 0.04900
C 	C 	0.71520 0.22640 0.51322 -0.07600
H 	H 	0.74260 0.18860 0.50860 0.05300
C 	C 	0.63560 0.23040 0.48790 0.11300
C 	C 	0.60980 0.27900 0.46690 -0.16900
H 	H 	0.64540 0.31160 0.46650 0.08700
C 	C 	0.53190 0.28000 0.44670 0.10000
H 	H 	0.51630 0.31340 0.43230 0.00500
C 	C 	0.50250 0.18890 0.46620 0.10500
H 	H 	0.46520 0.15720 0.46610 -0.00000
C 	C 	0.57920 0.18370 0.48650 -0.17100
H 	H 	0.59390 0.14900 0.49950 0.09800
C 	C 	0.46950 0.11740 0.75090 -0.12400
C 	C 	0.38740 0.13670 0.76060 0.05300
H 	H 	0.34050 0.12350 0.74490 0.02800
C 	C 	0.37320 0.17440 0.79200 -0.11400
H 	H 	0.31800 0.18970 0.79630 0.06900
C 	C 	0.44090 0.19000 0.81770 0.04700
H 	H 	0.43050 0.21340 0.84080 0.02700
C 	C 	0.52360 0.17120 0.80950 -0.12000
C 	C 	0.53790 0.13560 0.77560 0.06100
H 	H 	0.59400 0.12370 0.76930 0.03700
C 	C 	0.48310 0.07600 0.71610 0.37700
C 	C 	0.59480 0.19010 0.83750 0.36400
Ni	Ni	0.61198 0.51046 0.16389 1.12900
N 	N 	0.64290 0.58610 0.13268 -0.23100
N 	N 	0.47800 0.73600 0.94652 -0.22800
O 	O 	0.55720 0.55504 0.21158 -0.41000
O 	O 	0.42050 0.56665 0.19229 -0.39800
O 	O 	0.67150 0.68140 0.32709 -0.33200
O 	O 	0.57230 0.71482 0.36977 -0.41400
H 	H 	0.48000 0.52600 0.11520 0.60300
C 	C 	0.72060 0.59370 0.11580 0.09400
H 	H 	0.76190 0.56460 0.11940 -0.00600
C 	C 	0.74320 0.64120 0.09360 -0.16400
H 	H 	0.79890 0.64420 0.08260 0.08300
C 	C 	0.68470 0.68470 0.08726 0.10300
C 	C 	0.60390 0.67820 0.10450 -0.15300
H 	H 	0.56190 0.70680 0.10120 0.08800
C 	C 	0.58560 0.62820 0.12680 0.08600
H 	H 	0.53050 0.62400 0.13830 0.00200
C 	C 	0.70450 0.73690 0.06090 -0.06200
H 	H 	0.66120 0.76720 0.06580 0.04900
C 	C 	0.71520 0.72640 0.01322 -0.07100
H 	H 	0.74260 0.68860 0.00860 0.05200
C 	C 	0.63560 0.73040 0.98790 0.10400
C 	C 	0.60980 0.77900 0.96690 -0.16500
H 	H 	0.64540 0.81160 0.96650 0.08300
C 	C 	0.53190 0.78000 0.94670 0.09700
H 	H 	0.51630 0.81340 0.93230 0.00400
C 	C 	0.50250 0.68890 0.96620 0.10200
H 	H 	0.46520 0.65720 0.96610 -0.00200
C 	C 	0.57920 0.68370 0.98650 -0.16700
H 	H 	0.59390 0.64900 0.99950 0.09200
C 	C 	0.46950 0.61740 0.25090 -0.12700
C 	C 	0.38740 0.63670 0.26060 0.05300
H 	H 	0.34050 0.62350 0.24490 0.02600
C 	C 	0.37320 0.67440 0.29200 -0.11600
H 	H 	0.31800 0.68970 0.29630 0.06900
C 	C 	0.44090 0.69000 0.31770 0.04700
H 	H 	0.43050 0.71340 0.34080 0.02700
C 	C 	0.52360 0.67120 0.30950 -0.12100
C 	C 	0.53790 0.63560 0.27560 0.06100
H 	H 	0.59400 0.62370 0.26930 0.03500
C 	C 	0.48310 0.57600 0.21610 0.37600
C 	C 	0.59480 0.69010 0.33750 0.36400
O 	O 	0.25000 0.75000 0.87800 -1.35000
O 	O 	0.25000 0.25000 0.37800 -1.35000
O 	O 	0.75000 0.25000 0.87800 -1.35000
O 	O 	0.75000 0.75000 0.37800 -1.35000
O 	O 	0.50000 0.50000 0.12800 -1.35000
O 	O 	0.50000 -0.00000 0.62800 -1.27400
O 	O 	0.00000 0.00000 0.12800 -1.21400
O 	O 	0.00000 0.50000 0.62800 -1.29100
