data_crystal

_cell_length_a 15.48300
_cell_length_b 23.43400
_cell_length_c 32.44800
_cell_angle_alpha 90.00000
_cell_angle_beta  90.00000
_cell_angle_gamma 90.00000

_symmetry_space_group_name_	'P 1'
_symmetry_space_group_name_H-M	'P 1'

loop_
_symmetry_equiv_pos_as_xyz
  x,y,z

loop_
_atom_site_label
_atom_site_type_symbol
_atom_site_fract_x
_atom_site_fract_y
_atom_site_fract_z
_atom_site_charge
Ni	Ni	0.61182 0.00996 0.89886 1.16100
O 	O 	0.58150 0.93510 0.92895 -0.41700
N 	N 	0.72570 0.01440 0.93210 -0.20100
C 	C 	0.78170 0.96970 0.93380 0.05800
H 	H 	0.76710 0.93690 0.91930 0.00900
C 	C 	0.85860 0.96900 0.95550 -0.22300
H 	H 	0.89200 0.93600 0.95660 0.09000
N 	N 	0.89200 0.16430 0.11760 -0.21900
O 	O 	0.44300 0.94350 0.94549 -0.41600
C 	C 	0.88580 0.01950 0.97610 0.16900
O 	O 	0.42960 0.78540 0.10514 -0.43000
C 	C 	0.82780 0.06490 0.97430 -0.19700
H 	H 	0.84110 0.09860 0.98800 0.10000
O 	O 	0.32950 0.82300 0.06460 -0.37800
H 	H 	0.52100 0.97500 0.85300 1.14000
C 	C 	0.75190 0.06130 0.95300 0.11900
H 	H 	0.71590 0.09310 0.95290 -0.00700
C 	C 	0.96470 0.02390 0.00100 -0.11800
H 	H 	0.99200 0.06100 0.99610 0.04800
C 	C 	0.95400 0.01410 0.04840 0.04700
H 	H 	0.91020 0.98460 0.05320 -0.01700
C 	C 	0.93380 0.06540 0.07410 0.08200
C 	C 	0.99000 0.11240 0.07590 -0.20100
H 	H 	0.04280 0.11130 0.06220 0.12300
C 	C 	0.96720 0.15860 0.09740 0.04700
H 	H 	0.00610 0.18880 0.09850 0.03900
C 	C 	0.83730 0.12030 0.11580 0.07800
H 	H 	0.78470 0.12300 0.12950 0.00400
C 	C 	0.85680 0.07000 0.09390 -0.14000
H 	H 	0.81720 0.04020 0.09300 0.09400
C 	C 	0.53120 0.88870 0.98910 -0.12100
C 	C 	0.61770 0.86210 0.99470 0.10500
H 	H 	0.66030 0.86420 0.97460 -0.01700
C 	C 	0.63110 0.83380 0.03190 -0.02900
H 	H 	0.68730 0.82590 0.04030 0.03300
C 	C 	0.56470 0.81760 0.05570 -0.06700
H 	H 	0.57570 0.79400 0.07810 0.05300
C 	C 	0.47790 0.83520 0.04800 -0.10000
C 	C 	0.46450 0.86940 0.01300 0.05300
H 	H 	0.40830 0.87930 0.00590 0.03800
C 	C 	0.51800 0.92520 0.95210 0.37900
C 	C 	0.40710 0.81260 0.07430 0.35300
C 	C 	0.13420 0.13490 0.75460 -0.06100
C 	C 	0.11900 0.12170 0.79730 -0.05800
C 	C 	0.18630 0.09740 0.81860 0.03300
H 	H 	0.08770 0.14100 0.73700 0.05000
H 	H 	0.06600 0.12920 0.80980 0.05400
H 	H 	0.17910 0.08840 0.84630 0.02500
Ni	Ni	0.61182 0.50996 0.39886 1.14800
O 	O 	0.58150 0.43510 0.42895 -0.40000
N 	N 	0.72570 0.51440 0.43210 -0.22300
C 	C 	0.78170 0.46970 0.43380 0.08000
H 	H 	0.76710 0.43690 0.41930 0.00600
C 	C 	0.85860 0.46900 0.45550 -0.15500
H 	H 	0.89200 0.43600 0.45660 0.07200
N 	N 	0.89200 0.66430 0.61760 -0.22800
O 	O 	0.44300 0.44350 0.44549 -0.39900
C 	C 	0.88580 0.51950 0.47610 0.09400
O 	O 	0.42960 0.28540 0.60514 -0.42900
C 	C 	0.82780 0.56490 0.47430 -0.16300
H 	H 	0.84110 0.59860 0.48800 0.09000
O 	O 	0.32950 0.32300 0.56460 -0.37800
H 	H 	0.52100 0.47500 0.35300 1.31100
C 	C 	0.75190 0.56130 0.45300 0.09200
H 	H 	0.71590 0.59310 0.45290 0.00200
C 	C 	0.96470 0.52390 0.50100 -0.07800
H 	H 	0.99200 0.56100 0.49610 0.03800
C 	C 	0.95400 0.51410 0.54840 -0.12100
H 	H 	0.91020 0.48460 0.55320 0.06100
C 	C 	0.93380 0.56540 0.57410 0.14500
C 	C 	0.99000 0.61240 0.57590 -0.24500
H 	H 	0.04280 0.61130 0.56220 0.13700
C 	C 	0.96720 0.65860 0.59740 0.07100
H 	H 	0.00610 0.68880 0.59850 0.02900
C 	C 	0.83730 0.62030 0.61580 0.09700
H 	H 	0.78470 0.62300 0.62950 -0.00600
C 	C 	0.85680 0.57000 0.59390 -0.18700
H 	H 	0.81720 0.54020 0.59300 0.09700
C 	C 	0.53120 0.38870 0.48910 -0.10400
C 	C 	0.61770 0.36210 0.49470 0.05800
H 	H 	0.66030 0.36420 0.47460 0.00000
C 	C 	0.63110 0.33380 0.53190 -0.03100
H 	H 	0.68730 0.32590 0.54030 0.03300
C 	C 	0.56470 0.31760 0.55570 -0.04500
H 	H 	0.57570 0.29400 0.57810 0.04600
C 	C 	0.47790 0.33520 0.54800 -0.09700
C 	C 	0.46450 0.36940 0.51300 0.04000
H 	H 	0.40830 0.37930 0.50590 0.04200
C 	C 	0.51800 0.42520 0.45210 0.37700
C 	C 	0.40710 0.31260 0.57430 0.35300
C 	C 	0.13420 0.63490 0.25460 -0.05900
C 	C 	0.11900 0.62170 0.29730 -0.05000
C 	C 	0.18630 0.59740 0.31860 0.03800
H 	H 	0.08770 0.64100 0.23700 0.05000
H 	H 	0.06600 0.62920 0.30980 0.04900
H 	H 	0.17910 0.58840 0.34630 0.02200
Ni	Ni	0.11182 0.00996 0.39886 1.15800
O 	O 	0.08150 0.93510 0.42895 -0.42000
N 	N 	0.22570 0.01440 0.43210 -0.20300
C 	C 	0.28170 0.96970 0.43380 0.06400
H 	H 	0.26710 0.93690 0.41930 0.00900
C 	C 	0.35860 0.96900 0.45550 -0.23300
H 	H 	0.39200 0.93600 0.45660 0.10400
N 	N 	0.39200 0.16430 0.61760 -0.22000
O 	O 	0.94300 0.94350 0.44549 -0.44700
C 	C 	0.38580 0.01950 0.47610 0.19200
O 	O 	0.92960 0.78540 0.60514 -0.44500
C 	C 	0.32780 0.06490 0.47430 -0.20600
H 	H 	0.34110 0.09860 0.48800 0.10800
O 	O 	0.82950 0.82300 0.56460 -0.38300
H 	H 	0.02100 0.97500 0.35300 1.03600
C 	C 	0.25190 0.06130 0.45300 0.12800
H 	H 	0.21590 0.09310 0.45290 -0.00600
C 	C 	0.46470 0.02390 0.50100 -0.12600
H 	H 	0.49200 0.06100 0.49610 0.07000
C 	C 	0.45400 0.01410 0.54840 0.10700
H 	H 	0.41020 0.98460 0.55320 -0.03200
C 	C 	0.43380 0.06540 0.57410 0.04400
C 	C 	0.49000 0.11240 0.57590 -0.13000
H 	H 	0.54280 0.11130 0.56220 0.07200
C 	C 	0.46720 0.15860 0.59740 0.07800
H 	H 	0.50610 0.18880 0.59850 0.00100
C 	C 	0.33730 0.12030 0.61580 0.06600
H 	H 	0.28470 0.12300 0.62950 0.00900
C 	C 	0.35680 0.07000 0.59390 -0.11500
H 	H 	0.31720 0.04020 0.59300 0.08800
C 	C 	0.03120 0.88870 0.48910 -0.07400
C 	C 	0.11770 0.86210 0.49470 0.05400
H 	H 	0.16030 0.86420 0.47460 0.00600
C 	C 	0.13110 0.83380 0.53190 -0.01800
H 	H 	0.18730 0.82590 0.54030 0.03200
C 	C 	0.06470 0.81760 0.55570 -0.02600
H 	H 	0.07570 0.79400 0.57810 0.04500
C 	C 	0.97790 0.83520 0.54800 -0.12800
C 	C 	0.96450 0.86940 0.51300 -0.00100
H 	H 	0.90830 0.87930 0.50590 0.04800
C 	C 	0.01800 0.92520 0.45210 0.41000
C 	C 	0.90710 0.81260 0.57430 0.35700
C 	C 	0.63420 0.13490 0.25460 -0.05800
C 	C 	0.61900 0.12170 0.29730 -0.06100
C 	C 	0.68630 0.09740 0.31860 0.03300
H 	H 	0.58770 0.14100 0.23700 0.04300
H 	H 	0.56600 0.12920 0.30980 0.04600
H 	H 	0.67910 0.08840 0.34630 0.02200
Ni	Ni	0.11182 0.50996 0.89886 1.14600
O 	O 	0.08150 0.43510 0.92895 -0.40500
N 	N 	0.22570 0.51440 0.93210 -0.22200
C 	C 	0.28170 0.46970 0.93380 0.07900
H 	H 	0.26710 0.43690 0.91930 0.00900
C 	C 	0.35860 0.46900 0.95550 -0.14800
H 	H 	0.39200 0.43600 0.95660 0.07800
N 	N 	0.39200 0.66430 0.11760 -0.22900
O 	O 	0.94300 0.44350 0.94549 -0.43700
C 	C 	0.38580 0.51950 0.97610 0.08600
O 	O 	0.92960 0.28540 0.10514 -0.44500
C 	C 	0.32780 0.56490 0.97430 -0.15700
H 	H 	0.34110 0.59860 0.98800 0.08800
O 	O 	0.82950 0.32300 0.06460 -0.38000
H 	H 	0.02100 0.47500 0.85300 1.21100
C 	C 	0.25190 0.56130 0.95300 0.09000
H 	H 	0.21590 0.59310 0.95290 0.00400
C 	C 	0.46470 0.52390 0.00100 -0.05100
H 	H 	0.49200 0.56100 0.99610 0.03900
C 	C 	0.45400 0.51410 0.04840 -0.07400
H 	H 	0.41020 0.48460 0.05320 0.05400
C 	C 	0.43380 0.56540 0.07410 0.11700
C 	C 	0.49000 0.61240 0.07590 -0.18000
H 	H 	0.54280 0.61130 0.06220 0.09100
C 	C 	0.46720 0.65860 0.09740 0.10500
H 	H 	0.50610 0.68880 0.09850 -0.00800
C 	C 	0.33730 0.62030 0.11580 0.08900
H 	H 	0.28470 0.62300 0.12950 -0.00200
C 	C 	0.35680 0.57000 0.09390 -0.16800
H 	H 	0.31720 0.54020 0.09300 0.09400
C 	C 	0.03120 0.38870 0.98910 -0.07900
C 	C 	0.11770 0.36210 0.99470 0.10400
H 	H 	0.16030 0.36420 0.97460 -0.01400
C 	C 	0.13110 0.33380 0.03190 -0.02900
H 	H 	0.18730 0.32590 0.04030 0.03700
C 	C 	0.06470 0.31760 0.05570 -0.05300
H 	H 	0.07570 0.29400 0.07810 0.05400
C 	C 	0.97790 0.33520 0.04800 -0.12800
C 	C 	0.96450 0.36940 0.01300 0.00900
H 	H 	0.90830 0.37930 0.00590 0.05100
C 	C 	0.01800 0.42520 0.95210 0.41700
C 	C 	0.90710 0.31260 0.07430 0.35900
C 	C 	0.63420 0.63490 0.75460 -0.05600
C 	C 	0.61900 0.62170 0.79730 -0.05300
C 	C 	0.68630 0.59740 0.81860 0.03800
H 	H 	0.58770 0.64100 0.73700 0.04300
H 	H 	0.56600 0.62920 0.80980 0.04100
H 	H 	0.67910 0.58840 0.84630 0.01800
Ni	Ni	0.38818 0.99004 0.89886 1.12300
O 	O 	0.41850 0.06490 0.92895 -0.38900
N 	N 	0.27430 0.98560 0.93210 -0.24200
C 	C 	0.21830 0.03030 0.93380 0.10000
H 	H 	0.23290 0.06310 0.91930 0.00800
C 	C 	0.14140 0.03100 0.95550 -0.07000
H 	H 	0.10800 0.06400 0.95660 0.06600
N 	N 	0.10800 0.83570 0.11760 -0.24000
O 	O 	0.55700 0.05650 0.94549 -0.39400
C 	C 	0.11420 0.98050 0.97610 -0.00000
O 	O 	0.57040 0.21460 0.10514 -0.42800
C 	C 	0.17220 0.93510 0.97430 -0.11600
H 	H 	0.15890 0.90140 0.98800 0.07500
O 	O 	0.67050 0.17700 0.06460 -0.37600
H 	H 	0.47900 0.02500 0.85300 1.18200
C 	C 	0.24810 0.93870 0.95300 0.06000
H 	H 	0.28410 0.90690 0.95290 0.01200
C 	C 	0.03530 0.97610 0.00100 0.01600
H 	H 	0.00800 0.93900 0.99610 0.03000
C 	C 	0.04600 0.98590 0.04840 -0.20000
H 	H 	0.08980 0.01540 0.05320 0.12900
C 	C 	0.06620 0.93460 0.07410 0.15400
C 	C 	0.01000 0.88760 0.07590 -0.16400
H 	H 	0.95720 0.88870 0.06220 0.06300
C 	C 	0.03280 0.84140 0.09740 0.16100
H 	H 	0.99390 0.81120 0.09850 -0.05400
C 	C 	0.16270 0.87970 0.11580 0.10000
H 	H 	0.21530 0.87700 0.12950 -0.01000
C 	C 	0.14320 0.93000 0.09390 -0.19700
H 	H 	0.18280 0.95980 0.09300 0.09100
C 	C 	0.46880 0.11130 0.98910 -0.11000
C 	C 	0.38230 0.13790 0.99470 0.11000
H 	H 	0.33970 0.13580 0.97460 -0.01900
C 	C 	0.36890 0.16620 0.03190 -0.04200
H 	H 	0.31270 0.17410 0.04030 0.04100
C 	C 	0.43530 0.18240 0.05570 -0.07300
H 	H 	0.42430 0.20600 0.07810 0.05500
C 	C 	0.52210 0.16480 0.04800 -0.09500
C 	C 	0.53550 0.13060 0.01300 0.05200
H 	H 	0.59170 0.12070 0.00590 0.04300
C 	C 	0.48200 0.07480 0.95210 0.38100
C 	C 	0.59290 0.18740 0.07430 0.35400
C 	C 	0.86580 0.86510 0.75460 -0.05100
C 	C 	0.88100 0.87830 0.79730 -0.04500
C 	C 	0.81370 0.90260 0.81860 0.04000
H 	H 	0.91230 0.85900 0.73700 0.03700
H 	H 	0.93400 0.87080 0.80980 0.02700
H 	H 	0.82090 0.91160 0.84630 0.01400
Ni	Ni	0.38818 0.49004 0.39886 1.14900
O 	O 	0.41850 0.56490 0.42895 -0.40000
N 	N 	0.27430 0.48560 0.43210 -0.22400
C 	C 	0.21830 0.53030 0.43380 0.08500
H 	H 	0.23290 0.56310 0.41930 0.00800
C 	C 	0.14140 0.53100 0.45550 -0.15500
H 	H 	0.10800 0.56400 0.45660 0.09000
N 	N 	0.10800 0.33570 0.61760 -0.23000
O 	O 	0.55700 0.55650 0.44549 -0.39900
C 	C 	0.11420 0.48050 0.47610 0.10500
O 	O 	0.57040 0.71460 0.60514 -0.42900
C 	C 	0.17220 0.43510 0.47430 -0.16600
H 	H 	0.15890 0.40140 0.48800 0.09500
O 	O 	0.67050 0.67700 0.56460 -0.37800
H 	H 	0.47900 0.52500 0.35300 1.31100
C 	C 	0.24810 0.43870 0.45300 0.09700
H 	H 	0.28410 0.40690 0.45290 0.00200
C 	C 	0.03530 0.47610 0.50100 -0.05800
H 	H 	0.00800 0.43900 0.49610 0.06000
C 	C 	0.04600 0.48590 0.54840 -0.01900
H 	H 	0.08980 0.51540 0.55320 0.04200
C 	C 	0.06620 0.43460 0.57410 0.08100
C 	C 	0.01000 0.38760 0.57590 -0.11100
H 	H 	0.95720 0.38870 0.56220 0.04100
C 	C 	0.03280 0.34140 0.59740 0.13700
H 	H 	0.99390 0.31120 0.59850 -0.04700
C 	C 	0.16270 0.37970 0.61580 0.07700
H 	H 	0.21530 0.37700 0.62950 0.00100
C 	C 	0.14320 0.43000 0.59390 -0.14400
H 	H 	0.18280 0.45980 0.59300 0.08500
C 	C 	0.46880 0.61130 0.48910 -0.10400
C 	C 	0.38230 0.63790 0.49470 0.06000
H 	H 	0.33970 0.63580 0.47460 0.00100
C 	C 	0.36890 0.66620 0.53190 -0.03200
H 	H 	0.31270 0.67410 0.54030 0.03600
C 	C 	0.43530 0.68240 0.55570 -0.04400
H 	H 	0.42430 0.70600 0.57810 0.04600
C 	C 	0.52210 0.66480 0.54800 -0.09700
C 	C 	0.53550 0.63060 0.51300 0.04100
H 	H 	0.59170 0.62070 0.50590 0.04100
C 	C 	0.48200 0.57480 0.45210 0.37700
C 	C 	0.59290 0.68740 0.57430 0.35300
C 	C 	0.86580 0.36510 0.25460 -0.05200
C 	C 	0.88100 0.37830 0.29730 -0.05200
C 	C 	0.81370 0.40260 0.31860 0.03600
H 	H 	0.91230 0.35900 0.23700 0.03600
H 	H 	0.93400 0.37080 0.30980 0.03200
H 	H 	0.82090 0.41160 0.34630 0.01700
Ni	Ni	0.88818 0.99004 0.39886 1.11600
O 	O 	0.91850 0.06490 0.42895 -0.38900
N 	N 	0.77430 0.98560 0.43210 -0.24200
C 	C 	0.71830 0.03030 0.43380 0.09900
H 	H 	0.73290 0.06310 0.41930 0.00500
C 	C 	0.64140 0.03100 0.45550 -0.07700
H 	H 	0.60800 0.06400 0.45660 0.06000
N 	N 	0.60800 0.83570 0.61760 -0.23800
O 	O 	0.05700 0.05650 0.44549 -0.36100
C 	C 	0.61420 0.98050 0.47610 0.00800
O 	O 	0.07040 0.21460 0.60514 -0.41200
C 	C 	0.67220 0.93510 0.47430 -0.12300
H 	H 	0.65890 0.90140 0.48800 0.07700
O 	O 	0.17050 0.17700 0.56460 -0.37300
H 	H 	0.97900 0.02500 0.35300 1.03800
C 	C 	0.74810 0.93870 0.45300 0.06200
H 	H 	0.78410 0.90690 0.45290 0.01100
C 	C 	0.53530 0.97610 0.50100 -0.00900
H 	H 	0.50800 0.93900 0.49610 0.02800
C 	C 	0.54600 0.98590 0.54840 -0.24700
H 	H 	0.58980 0.01540 0.55320 0.13500
C 	C 	0.56620 0.93460 0.57410 0.18200
C 	C 	0.51000 0.88760 0.57590 -0.22600
H 	H 	0.45720 0.88870 0.56220 0.10700
C 	C 	0.53280 0.84140 0.59740 0.12700
H 	H 	0.49390 0.81120 0.59850 -0.01700
C 	C 	0.66270 0.87970 0.61580 0.10800
H 	H 	0.71530 0.87700 0.62950 -0.01400
C 	C 	0.64320 0.93000 0.59390 -0.21600
H 	H 	0.68280 0.95980 0.59300 0.09400
C 	C 	0.96880 0.11130 0.48910 -0.13600
C 	C 	0.88230 0.13790 0.49470 0.06300
H 	H 	0.83970 0.13580 0.47460 -0.00400
C 	C 	0.86890 0.16620 0.53190 -0.04400
H 	H 	0.81270 0.17410 0.54030 0.03800
C 	C 	0.93530 0.18240 0.55570 -0.06400
H 	H 	0.92430 0.20600 0.57810 0.04700
C 	C 	0.02210 0.16480 0.54800 -0.06300
C 	C 	0.03550 0.13060 0.51300 0.08400
H 	H 	0.09170 0.12070 0.50590 0.03500
C 	C 	0.98200 0.07480 0.45210 0.33900
C 	C 	0.09290 0.18740 0.57430 0.34800
C 	C 	0.36580 0.86510 0.25460 -0.05400
C 	C 	0.38100 0.87830 0.29730 -0.04200
C 	C 	0.31370 0.90260 0.31860 0.04000
H 	H 	0.41230 0.85900 0.23700 0.04300
H 	H 	0.43400 0.87080 0.30980 0.03500
H 	H 	0.32090 0.91160 0.34630 0.01700
Ni	Ni	0.88818 0.49004 0.89886 1.14000
O 	O 	0.91850 0.56490 0.92895 -0.40100
N 	N 	0.77430 0.48560 0.93210 -0.22200
C 	C 	0.71830 0.53030 0.93380 0.07900
H 	H 	0.73290 0.56310 0.91930 0.00800
C 	C 	0.64140 0.53100 0.95550 -0.14900
H 	H 	0.60800 0.56400 0.95660 0.07800
N 	N 	0.60800 0.33570 0.11760 -0.22900
O 	O 	0.05700 0.55650 0.94549 -0.37200
C 	C 	0.61420 0.48050 0.97610 0.08600
O 	O 	0.07040 0.71460 0.10514 -0.41300
C 	C 	0.67220 0.43510 0.97430 -0.15800
H 	H 	0.65890 0.40140 0.98800 0.08800
O 	O 	0.17050 0.67700 0.06460 -0.37400
H 	H 	0.97900 0.52500 0.85300 1.17200
C 	C 	0.74810 0.43870 0.95300 0.09000
H 	H 	0.78410 0.40690 0.95290 0.00100
C 	C 	0.53530 0.47610 0.00100 -0.05100
H 	H 	0.50800 0.43900 0.99610 0.04000
C 	C 	0.54600 0.48590 0.04840 -0.07400
H 	H 	0.58980 0.51540 0.05320 0.05300
C 	C 	0.56620 0.43460 0.07410 0.11600
C 	C 	0.51000 0.38760 0.07590 -0.17900
H 	H 	0.45720 0.38870 0.06220 0.09100
C 	C 	0.53280 0.34140 0.09740 0.10400
H 	H 	0.49390 0.31120 0.09850 -0.00800
C 	C 	0.66270 0.37970 0.11580 0.08800
H 	H 	0.71530 0.37700 0.12950 -0.00400
C 	C 	0.64320 0.43000 0.09390 -0.16700
H 	H 	0.68280 0.45980 0.09300 0.09100
C 	C 	0.96880 0.61130 0.98910 -0.15200
C 	C 	0.88230 0.63790 0.99470 0.11100
H 	H 	0.83970 0.63580 0.97460 -0.02100
C 	C 	0.86890 0.66620 0.03190 -0.04200
H 	H 	0.81270 0.67410 0.04030 0.03700
C 	C 	0.93530 0.68240 0.05570 -0.08600
H 	H 	0.92430 0.70600 0.07810 0.05500
C 	C 	0.02210 0.66480 0.04800 -0.06900
C 	C 	0.03550 0.63060 0.01300 0.09500
H 	H 	0.09170 0.62070 0.00590 0.03100
C 	C 	0.98200 0.57480 0.95210 0.34300
C 	C 	0.09290 0.68740 0.07430 0.34800
C 	C 	0.36580 0.36510 0.75460 -0.05500
C 	C 	0.38100 0.37830 0.79730 -0.04900
C 	C 	0.31370 0.40260 0.81860 0.03500
H 	H 	0.41230 0.35900 0.73700 0.04300
H 	H 	0.43400 0.37080 0.80980 0.04000
H 	H 	0.32090 0.41160 0.84630 0.02000
Ni	Ni	0.86182 0.24004 0.14886 1.14700
O 	O 	0.83150 0.31490 0.17895 -0.40500
N 	N 	0.97570 0.23560 0.18210 -0.28600
C 	C 	0.03170 0.28030 0.18380 0.14900
H 	H 	0.01710 0.31310 0.16930 -0.00200
C 	C 	0.10860 0.28100 0.20550 -0.20600
H 	H 	0.14200 0.31400 0.20660 0.10300
N 	N 	0.14200 0.08570 0.36760 -0.22400
O 	O 	0.69300 0.30650 0.19549 -0.40000
C 	C 	0.13580 0.23050 0.22610 0.15700
O 	O 	0.67960 0.46460 0.35514 -0.43000
C 	C 	0.07780 0.18510 0.22430 -0.25700
H 	H 	0.09110 0.15140 0.23800 0.13700
O 	O 	0.57950 0.42700 0.31460 -0.37800
H 	H 	0.77100 0.27500 0.10300 1.31200
C 	C 	0.00190 0.18870 0.20300 0.24800
H 	H 	0.96590 0.15690 0.20290 -0.07100
C 	C 	0.21470 0.22610 0.25100 -0.09600
H 	H 	0.24200 0.18900 0.24610 0.06000
C 	C 	0.20400 0.23590 0.29840 -0.05900
H 	H 	0.16020 0.26540 0.30320 0.05200
C 	C 	0.18380 0.18460 0.32410 0.11000
C 	C 	0.24000 0.13760 0.32590 -0.17200
H 	H 	0.29280 0.13870 0.31220 0.09100
C 	C 	0.21720 0.09140 0.34740 0.10500
H 	H 	0.25610 0.06120 0.34850 0.00500
C 	C 	0.08730 0.12970 0.36580 0.09100
H 	H 	0.03470 0.12700 0.37950 0.01000
C 	C 	0.10680 0.18000 0.34390 -0.16000
H 	H 	0.06720 0.20980 0.34300 0.09800
C 	C 	0.78120 0.36130 0.23910 -0.10800
C 	C 	0.86770 0.38790 0.24470 0.05500
H 	H 	0.91030 0.38580 0.22460 -0.00300
C 	C 	0.88110 0.41620 0.28190 -0.03200
H 	H 	0.93730 0.42410 0.29030 0.02700
C 	C 	0.81470 0.43240 0.30570 -0.04400
H 	H 	0.82570 0.45600 0.32810 0.04300
C 	C 	0.72790 0.41480 0.29800 -0.09800
C 	C 	0.71450 0.38060 0.26300 0.04100
H 	H 	0.65830 0.37070 0.25590 0.04100
C 	C 	0.76800 0.32480 0.20210 0.37700
C 	C 	0.65710 0.43740 0.32430 0.35300
C 	C 	0.38420 0.11510 0.00460 -0.09500
C 	C 	0.36900 0.12830 0.04730 -0.03500
C 	C 	0.43630 0.15260 0.06860 0.06700
H 	H 	0.33770 0.10900 0.98700 0.05600
H 	H 	0.31600 0.12080 0.05980 0.04200
H 	H 	0.42910 0.16160 0.09630 0.01200
Ni	Ni	0.86182 0.74004 0.64886 1.14700
O 	O 	0.83150 0.81490 0.67895 -0.40600
N 	N 	0.97570 0.73560 0.68210 -0.28400
C 	C 	0.03170 0.78030 0.68380 0.14600
H 	H 	0.01710 0.81310 0.66930 -0.00400
C 	C 	0.10860 0.78100 0.70550 -0.20400
H 	H 	0.14200 0.81400 0.70660 0.09900
N 	N 	0.14200 0.58570 0.86760 -0.22700
O 	O 	0.69300 0.80650 0.69549 -0.40100
C 	C 	0.13580 0.73050 0.72610 0.15300
O 	O 	0.67960 0.96460 0.85514 -0.44800
C 	C 	0.07780 0.68510 0.72430 -0.25400
H 	H 	0.09110 0.65140 0.73800 0.13100
O 	O 	0.57950 0.92700 0.81460 -0.37500
H 	H 	0.77100 0.77500 0.60300 1.31100
C 	C 	0.00190 0.68870 0.70300 0.24200
H 	H 	0.96590 0.65690 0.70290 -0.07100
C 	C 	0.21470 0.72610 0.75100 -0.09400
H 	H 	0.24200 0.68900 0.74610 0.05700
C 	C 	0.20400 0.73590 0.79840 -0.05900
H 	H 	0.16020 0.76540 0.80320 0.05100
C 	C 	0.18380 0.68460 0.82410 0.11000
C 	C 	0.24000 0.63760 0.82590 -0.17500
H 	H 	0.29280 0.63870 0.81220 0.08800
C 	C 	0.21720 0.59140 0.84740 0.10300
H 	H 	0.25610 0.56120 0.84850 -0.00800
C 	C 	0.08730 0.62970 0.86580 0.08900
H 	H 	0.03470 0.62700 0.87950 0.01000
C 	C 	0.10680 0.68000 0.84390 -0.16000
H 	H 	0.06720 0.70980 0.84300 0.09700
C 	C 	0.78120 0.86130 0.73910 -0.11200
C 	C 	0.86770 0.88790 0.74470 0.05400
H 	H 	0.91030 0.88580 0.72460 -0.00700
C 	C 	0.88110 0.91620 0.78190 -0.04400
H 	H 	0.93730 0.92410 0.79030 0.02400
C 	C 	0.81470 0.93240 0.80570 -0.04600
H 	H 	0.82570 0.95600 0.82810 0.03500
C 	C 	0.72790 0.91480 0.79800 -0.10700
C 	C 	0.71450 0.88060 0.76300 0.04300
H 	H 	0.65830 0.87070 0.75590 0.03800
C 	C 	0.76800 0.82480 0.70210 0.37800
C 	C 	0.65710 0.93740 0.82430 0.35500
C 	C 	0.38420 0.61510 0.50460 -0.05600
C 	C 	0.36900 0.62830 0.54730 -0.05100
C 	C 	0.43630 0.65260 0.56860 0.03700
H 	H 	0.33770 0.60900 0.48700 0.04300
H 	H 	0.31600 0.62080 0.55980 0.04200
H 	H 	0.42910 0.66160 0.59630 0.02000
Ni	Ni	0.36182 0.24004 0.64886 1.14900
O 	O 	0.33150 0.31490 0.67895 -0.40000
N 	N 	0.47570 0.23560 0.68210 -0.22400
C 	C 	0.53170 0.28030 0.68380 0.08500
H 	H 	0.51710 0.31310 0.66930 0.00600
C 	C 	0.60860 0.28100 0.70550 -0.15900
H 	H 	0.64200 0.31400 0.70660 0.08300
N 	N 	0.64200 0.08570 0.86760 -0.22500
O 	O 	0.19300 0.30650 0.69549 -0.39700
C 	C 	0.63580 0.23050 0.72610 0.10700
O 	O 	0.17960 0.46460 0.85514 -0.42400
C 	C 	0.57780 0.18510 0.72430 -0.16900
H 	H 	0.59110 0.15140 0.73800 0.09800
O 	O 	0.07950 0.42700 0.81460 -0.35500
H 	H 	0.27100 0.27500 0.60300 1.31200
C 	C 	0.50190 0.18870 0.70300 0.09800
H 	H 	0.46590 0.15690 0.70290 0.00500
C 	C 	0.71470 0.22610 0.75100 -0.08100
H 	H 	0.74200 0.18900 0.74610 0.05500
C 	C 	0.70400 0.23590 0.79840 -0.06300
H 	H 	0.66020 0.26540 0.80320 0.04900
C 	C 	0.68380 0.18460 0.82410 0.10900
C 	C 	0.74000 0.13760 0.82590 -0.17200
H 	H 	0.79280 0.13870 0.81220 0.08700
C 	C 	0.71720 0.09140 0.84740 0.10100
H 	H 	0.75610 0.06120 0.84850 0.00300
C 	C 	0.58730 0.12970 0.86580 0.08700
H 	H 	0.53470 0.12700 0.87950 -0.00200
C 	C 	0.60680 0.18000 0.84390 -0.16300
H 	H 	0.56720 0.20980 0.84300 0.09000
C 	C 	0.28120 0.36130 0.73910 -0.10200
C 	C 	0.36770 0.38790 0.74470 0.05800
H 	H 	0.41030 0.38580 0.72460 0.00100
C 	C 	0.38110 0.41620 0.78190 -0.03200
H 	H 	0.43730 0.42410 0.79030 0.03500
C 	C 	0.31470 0.43240 0.80570 -0.04400
H 	H 	0.32570 0.45600 0.82810 0.04600
C 	C 	0.22790 0.41480 0.79800 -0.09200
C 	C 	0.21450 0.38060 0.76300 0.03900
H 	H 	0.15830 0.37070 0.75590 0.04600
C 	C 	0.26800 0.32480 0.70210 0.37600
C 	C 	0.15710 0.43740 0.82430 0.35000
C 	C 	0.88420 0.11510 0.50460 -0.05600
C 	C 	0.86900 0.12830 0.54730 -0.03200
C 	C 	0.93630 0.15260 0.56860 0.01500
H 	H 	0.83770 0.10900 0.48700 0.04700
H 	H 	0.81600 0.12080 0.55980 0.03700
H 	H 	0.92910 0.16160 0.59630 0.02200
Ni	Ni	0.36182 0.74004 0.14886 1.14900
O 	O 	0.33150 0.81490 0.17895 -0.40100
N 	N 	0.47570 0.73560 0.18210 -0.22400
C 	C 	0.53170 0.78030 0.18380 0.08300
H 	H 	0.51710 0.81310 0.16930 0.00400
C 	C 	0.60860 0.78100 0.20550 -0.15800
H 	H 	0.64200 0.81400 0.20660 0.07900
N 	N 	0.64200 0.58570 0.36760 -0.22900
O 	O 	0.19300 0.80650 0.19549 -0.39800
C 	C 	0.63580 0.73050 0.22610 0.10400
O 	O 	0.17960 0.96460 0.35514 -0.44300
C 	C 	0.57780 0.68510 0.22430 -0.16800
H 	H 	0.59110 0.65140 0.23800 0.09300
O 	O 	0.07950 0.92700 0.31460 -0.35200
H 	H 	0.27100 0.77500 0.10300 1.31200
C 	C 	0.50190 0.68870 0.20300 0.09600
H 	H 	0.46590 0.65690 0.20290 0.00200
C 	C 	0.71470 0.72610 0.25100 -0.07900
H 	H 	0.74200 0.68900 0.24610 0.05200
C 	C 	0.70400 0.73590 0.29840 -0.06300
H 	H 	0.66020 0.76540 0.30320 0.04900
C 	C 	0.68380 0.68460 0.32410 0.10800
C 	C 	0.74000 0.63760 0.32590 -0.17500
H 	H 	0.79280 0.63870 0.31220 0.08400
C 	C 	0.71720 0.59140 0.34740 0.10000
H 	H 	0.75610 0.56120 0.34850 -0.00900
C 	C 	0.58730 0.62970 0.36580 0.08500
H 	H 	0.53470 0.62700 0.37950 -0.00200
C 	C 	0.60680 0.68000 0.34390 -0.16300
H 	H 	0.56720 0.70980 0.34300 0.09000
C 	C 	0.28120 0.86130 0.23910 -0.10600
C 	C 	0.36770 0.88790 0.24470 0.05700
H 	H 	0.41030 0.88580 0.22460 -0.00300
C 	C 	0.38110 0.91620 0.28190 -0.04500
H 	H 	0.43730 0.92410 0.29030 0.03100
C 	C 	0.31470 0.93240 0.30570 -0.04600
H 	H 	0.32570 0.95600 0.32810 0.03700
C 	C 	0.22790 0.91480 0.29800 -0.10100
C 	C 	0.21450 0.88060 0.26300 0.04000
H 	H 	0.15830 0.87070 0.25590 0.04300
C 	C 	0.26800 0.82480 0.20210 0.37600
C 	C 	0.15710 0.93740 0.32430 0.35300
C 	C 	0.88420 0.61510 0.00460 -0.09500
C 	C 	0.86900 0.62830 0.04730 -0.03400
C 	C 	0.93630 0.65260 0.06860 0.04000
H 	H 	0.83770 0.60900 0.98700 0.05100
H 	H 	0.81600 0.62080 0.05980 0.03400
H 	H 	0.92910 0.66160 0.09630 0.01100
Ni	Ni	0.63818 0.25996 0.14886 1.14900
O 	O 	0.66850 0.18510 0.17895 -0.39800
N 	N 	0.52430 0.26440 0.18210 -0.22300
C 	C 	0.46830 0.21970 0.18380 0.08100
H 	H 	0.48290 0.18690 0.16930 0.01000
C 	C 	0.39140 0.21900 0.20550 -0.15100
H 	H 	0.35800 0.18600 0.20660 0.08400
N 	N 	0.35800 0.41430 0.36760 -0.23000
O 	O 	0.80700 0.19350 0.19549 -0.40100
C 	C 	0.36420 0.26950 0.22610 0.09400
O 	O 	0.82040 0.03540 0.35514 -0.40800
C 	C 	0.42220 0.31490 0.22430 -0.16100
H 	H 	0.40890 0.34860 0.23800 0.09200
O 	O 	0.92050 0.07300 0.31460 -0.36200
H 	H 	0.72900 0.22500 0.10300 1.31200
C 	C 	0.49810 0.31130 0.20300 0.09300
H 	H 	0.53410 0.34310 0.20290 0.00300
C 	C 	0.28530 0.27390 0.25100 -0.05500
H 	H 	0.25800 0.31100 0.24610 0.04600
C 	C 	0.29600 0.26410 0.29840 -0.07700
H 	H 	0.33980 0.23460 0.30320 0.05400
C 	C 	0.31620 0.31540 0.32410 0.11800
C 	C 	0.26000 0.36240 0.32590 -0.18100
H 	H 	0.20720 0.36130 0.31220 0.09400
C 	C 	0.28280 0.40860 0.34740 0.10500
H 	H 	0.24390 0.43880 0.34850 -0.00600
C 	C 	0.41270 0.37030 0.36580 0.08900
H 	H 	0.46530 0.37300 0.37950 -0.00300
C 	C 	0.39320 0.32000 0.34390 -0.16800
H 	H 	0.43280 0.29020 0.34300 0.09200
C 	C 	0.71880 0.13870 0.23910 -0.10200
C 	C 	0.63230 0.11210 0.24470 0.06100
H 	H 	0.58970 0.11420 0.22460 0.00500
C 	C 	0.61890 0.08380 0.28190 -0.01800
H 	H 	0.56270 0.07590 0.29030 0.03800
C 	C 	0.68530 0.06760 0.30570 -0.04300
H 	H 	0.67430 0.04400 0.32810 0.05500
C 	C 	0.77210 0.08520 0.29800 -0.09200
C 	C 	0.78550 0.11940 0.26300 0.04000
H 	H 	0.84170 0.12930 0.25590 0.04000
C 	C 	0.73200 0.17520 0.20210 0.37700
C 	C 	0.84290 0.06260 0.32430 0.35000
C 	C 	0.11580 0.38490 0.00460 -0.09400
C 	C 	0.13100 0.37170 0.04730 -0.05500
C 	C 	0.06370 0.34740 0.06860 0.08800
H 	H 	0.16230 0.39100 0.98700 0.05100
H 	H 	0.18400 0.37920 0.05980 0.04400
H 	H 	0.07090 0.33840 0.09630 0.01000
Ni	Ni	0.63818 0.75996 0.64886 1.14900
O 	O 	0.66850 0.68510 0.67895 -0.40000
N 	N 	0.52430 0.76440 0.68210 -0.22300
C 	C 	0.46830 0.71970 0.68380 0.08000
H 	H 	0.48290 0.68690 0.66930 0.00800
C 	C 	0.39140 0.71900 0.70550 -0.15100
H 	H 	0.35800 0.68600 0.70660 0.08000
N 	N 	0.35800 0.91430 0.86760 -0.23500
O 	O 	0.80700 0.69350 0.69549 -0.40200
C 	C 	0.36420 0.76950 0.72610 0.09200
O 	O 	0.82040 0.53540 0.85514 -0.43000
C 	C 	0.42220 0.81490 0.72430 -0.16100
H 	H 	0.40890 0.84860 0.73800 0.08700
O 	O 	0.92050 0.57300 0.81460 -0.38200
H 	H 	0.72900 0.72500 0.60300 1.31100
C 	C 	0.49810 0.81130 0.70300 0.09200
H 	H 	0.53410 0.84310 0.70290 0.00000
C 	C 	0.28530 0.77390 0.75100 -0.05500
H 	H 	0.25800 0.81100 0.74610 0.04300
C 	C 	0.29600 0.76410 0.79840 -0.07800
H 	H 	0.33980 0.73460 0.80320 0.05400
C 	C 	0.31620 0.81540 0.82410 0.11800
C 	C 	0.26000 0.86240 0.82590 -0.18500
H 	H 	0.20720 0.86130 0.81220 0.09200
C 	C 	0.28280 0.90860 0.84740 0.10600
H 	H 	0.24390 0.93880 0.84850 -0.02000
C 	C 	0.41270 0.87030 0.86580 0.08900
H 	H 	0.46530 0.87300 0.87950 -0.00400
C 	C 	0.39320 0.82000 0.84390 -0.17000
H 	H 	0.43280 0.79020 0.84300 0.09200
C 	C 	0.71880 0.63870 0.73910 -0.10600
C 	C 	0.63230 0.61210 0.74470 0.06000
H 	H 	0.58970 0.61420 0.72460 0.00000
C 	C 	0.61890 0.58380 0.78190 -0.03100
H 	H 	0.56270 0.57590 0.79030 0.03400
C 	C 	0.68530 0.56760 0.80570 -0.04500
H 	H 	0.67430 0.54400 0.82810 0.04600
C 	C 	0.77210 0.58520 0.79800 -0.10100
C 	C 	0.78550 0.61940 0.76300 0.04200
H 	H 	0.84170 0.62930 0.75590 0.03700
C 	C 	0.73200 0.67520 0.70210 0.37700
C 	C 	0.84290 0.56260 0.82430 0.35400
C 	C 	0.11580 0.88490 0.50460 -0.05600
C 	C 	0.13100 0.87170 0.54730 -0.07100
C 	C 	0.06370 0.84740 0.56860 0.05700
H 	H 	0.16230 0.89100 0.48700 0.03900
H 	H 	0.18400 0.87920 0.55980 0.04400
H 	H 	0.07090 0.83840 0.59630 0.01700
Ni	Ni	0.13818 0.25996 0.64886 1.15000
O 	O 	0.16850 0.18510 0.67895 -0.39300
N 	N 	0.02430 0.26440 0.68210 -0.16000
C 	C 	0.96830 0.21970 0.68380 0.01600
H 	H 	0.98290 0.18690 0.66930 0.01800
C 	C 	0.89140 0.21900 0.70550 -0.10400
H 	H 	0.85800 0.18600 0.70660 0.06400
N 	N 	0.85800 0.41430 0.86760 -0.23300
O 	O 	0.30700 0.19350 0.69549 -0.39800
C 	C 	0.86420 0.26950 0.72610 0.04400
O 	O 	0.32040 0.03540 0.85514 -0.40500
C 	C 	0.92220 0.31490 0.72430 -0.07200
H 	H 	0.90890 0.34860 0.73800 0.05300
O 	O 	0.42050 0.07300 0.81460 -0.35700
H 	H 	0.22900 0.22500 0.60300 1.31200
C 	C 	0.99810 0.31130 0.70300 -0.05800
H 	H 	0.03410 0.34310 0.70290 0.07800
C 	C 	0.78530 0.27390 0.75100 -0.04000
H 	H 	0.75800 0.31100 0.74610 0.04000
C 	C 	0.79600 0.26410 0.79840 -0.08100
H 	H 	0.83980 0.23460 0.80320 0.05200
C 	C 	0.81620 0.31540 0.82410 0.11700
C 	C 	0.76000 0.36240 0.82590 -0.18200
H 	H 	0.70720 0.36130 0.81220 0.09100
C 	C 	0.78280 0.40860 0.84740 0.10400
H 	H 	0.74390 0.43880 0.84850 -0.00900
C 	C 	0.91270 0.37030 0.86580 0.08700
H 	H 	0.96530 0.37300 0.87950 -0.01600
C 	C 	0.89320 0.32000 0.84390 -0.17200
H 	H 	0.93280 0.29020 0.84300 0.08500
C 	C 	0.21880 0.13870 0.73910 -0.09600
C 	C 	0.13230 0.11210 0.74470 0.06400
H 	H 	0.08970 0.11420 0.72460 0.00900
C 	C 	0.11890 0.08380 0.78190 -0.01700
H 	H 	0.06270 0.07590 0.79030 0.04600
C 	C 	0.18530 0.06760 0.80570 -0.04300
H 	H 	0.17430 0.04400 0.82810 0.05800
C 	C 	0.27210 0.08520 0.79800 -0.08600
C 	C 	0.28550 0.11940 0.76300 0.03800
H 	H 	0.34170 0.12930 0.75590 0.04500
C 	C 	0.23200 0.17520 0.70210 0.37600
C 	C 	0.34290 0.06260 0.82430 0.34900
C 	C 	0.61580 0.38490 0.50460 -0.05500
C 	C 	0.63100 0.37170 0.54730 -0.05100
C 	C 	0.56370 0.34740 0.56860 0.03700
H 	H 	0.66230 0.39100 0.48700 0.04300
H 	H 	0.68400 0.37920 0.55980 0.03900
H 	H 	0.57090 0.33840 0.59630 0.01900
Ni	Ni	0.13818 0.75996 0.14886 1.15000
O 	O 	0.16850 0.68510 0.17895 -0.39500
N 	N 	0.02430 0.76440 0.18210 -0.16300
C 	C 	0.96830 0.71970 0.18380 0.01900
H 	H 	0.98290 0.68690 0.16930 0.01500
C 	C 	0.89140 0.71900 0.20550 -0.10700
H 	H 	0.85800 0.68600 0.20660 0.06100
N 	N 	0.85800 0.91430 0.36760 -0.23900
O 	O 	0.30700 0.69350 0.19549 -0.39900
C 	C 	0.86420 0.76950 0.22610 0.04500
O 	O 	0.32040 0.53540 0.35514 -0.42800
C 	C 	0.92220 0.81490 0.22430 -0.07700
H 	H 	0.90890 0.84860 0.23800 0.05200
O 	O 	0.42050 0.57300 0.31460 -0.37800
H 	H 	0.22900 0.72500 0.10300 1.31200
C 	C 	0.99810 0.81130 0.20300 -0.05000
H 	H 	0.03410 0.84310 0.20290 0.07100
C 	C 	0.78530 0.77390 0.25100 -0.04100
H 	H 	0.75800 0.81100 0.24610 0.03800
C 	C 	0.79600 0.76410 0.29840 -0.08200
H 	H 	0.83980 0.73460 0.30320 0.05200
C 	C 	0.81620 0.81540 0.32410 0.11800
C 	C 	0.76000 0.86240 0.32590 -0.18600
H 	H 	0.70720 0.86130 0.31220 0.08800
C 	C 	0.78280 0.90860 0.34740 0.10500
H 	H 	0.74390 0.93880 0.34850 -0.02200
C 	C 	0.91270 0.87030 0.36580 0.08800
H 	H 	0.96530 0.87300 0.37950 -0.01500
C 	C 	0.89320 0.82000 0.34390 -0.17300
H 	H 	0.93280 0.79020 0.34300 0.08600
C 	C 	0.21880 0.63870 0.23910 -0.10100
C 	C 	0.13230 0.61210 0.24470 0.06300
H 	H 	0.08970 0.61420 0.22460 0.00400
C 	C 	0.11890 0.58380 0.28190 -0.03100
H 	H 	0.06270 0.57590 0.29030 0.04200
C 	C 	0.18530 0.56760 0.30570 -0.04500
H 	H 	0.17430 0.54400 0.32810 0.04900
C 	C 	0.27210 0.58520 0.29800 -0.09500
C 	C 	0.28550 0.61940 0.26300 0.04000
H 	H 	0.34170 0.62930 0.25590 0.04200
C 	C 	0.23200 0.67520 0.20210 0.37600
C 	C 	0.34290 0.56260 0.32430 0.35300
C 	C 	0.61580 0.88490 0.00460 -0.09400
C 	C 	0.63100 0.87170 0.04730 -0.05300
C 	C 	0.56370 0.84740 0.06860 0.05900
H 	H 	0.66230 0.89100 0.98700 0.04600
H 	H 	0.68400 0.87920 0.05980 0.03600
H 	H 	0.57090 0.83840 0.09630 0.00900
O 	O 	0.50000 0.00000 0.86270 -2.38800
O 	O 	0.50000 0.50000 0.36270 -2.68200
O 	O 	0.00000 0.00000 0.36270 -2.14500
O 	O 	-0.00000 0.50000 0.86270 -2.44800
O 	O 	0.75000 0.25000 0.11270 -2.68300
O 	O 	0.75000 0.75000 0.61270 -2.68200
O 	O 	0.25000 0.25000 0.61270 -2.68300
O 	O 	0.25000 0.75000 0.11270 -2.68300
