data_crystal

_cell_length_a 24.66610
_cell_length_b 24.66610
_cell_length_c 24.66610
_cell_angle_alpha 109.47100
_cell_angle_beta  109.47100
_cell_angle_gamma 109.47100

_symmetry_space_group_name_	'P 1'
_symmetry_space_group_name_H-M	'P 1'

loop_
_symmetry_equiv_pos_as_xyz
  x,y,z

loop_
_atom_site_label
_atom_site_type_symbol
_atom_site_fract_x
_atom_site_fract_y
_atom_site_fract_z
_atom_site_charge
Ni	Ni	0.40682 0.08010 0.08957 1.13800
Ni	Ni	0.99053 0.31725 0.91043 1.13100
Ni	Ni	0.00947 0.91990 0.32672 1.13900
Ni	Ni	0.59318 0.68275 0.67328 1.13700
Ni	Ni	0.32672 0.00947 0.91990 1.13800
Ni	Ni	0.67328 0.59318 0.68275 1.13700
Ni	Ni	0.08957 0.40682 0.08010 1.13700
Ni	Ni	0.91043 0.99053 0.31725 1.13000
Ni	Ni	0.31725 0.91043 0.99053 1.13000
Ni	Ni	0.08010 0.08957 0.40682 1.13700
Ni	Ni	0.68275 0.67328 0.59318 1.13700
Ni	Ni	0.91990 0.32672 0.00947 1.13800
H 	H 	0.85440 0.08110 0.34070 0.01300
H 	H 	0.75470 0.08060 0.29910 0.07000
H 	H 	0.66210 0.88310 0.18020 0.07500
H 	H 	0.76100 0.88670 0.22370 0.01000
H 	H 	0.65950 0.06630 0.27980 0.05900
H 	H 	0.56350 0.07120 0.22730 0.03100
H 	H 	0.48950 0.89480 0.06690 0.03800
H 	H 	0.58640 0.89140 0.11960 0.06100
H 	H 	0.31310 0.08010 0.20900 0.05500
H 	H 	0.28710 0.13100 0.29390 0.06100
H 	H 	0.22480 0.87990 0.10210 0.04300
H 	H 	0.74040 0.51370 0.65930 0.01500
H 	H 	0.78150 0.45560 0.70090 0.07200
H 	H 	0.70290 0.48190 0.81980 0.07500
H 	H 	0.66300 0.53730 0.77630 0.00800
H 	H 	0.78650 0.37970 0.72020 0.06100
H 	H 	0.84390 0.33620 0.77270 0.03100
H 	H 	0.82790 0.42260 0.93310 0.03400
H 	H 	0.77180 0.46680 0.88040 0.05900
H 	H 	0.87110 0.10410 0.79100 0.06800
H 	H 	0.83710 0.99320 0.70610 0.07100
H 	H 	0.77780 0.12270 0.89790 0.05000
H 	H 	0.25960 0.91890 0.77330 0.01600
H 	H 	0.21850 0.91940 0.67410 0.07600
H 	H 	0.29710 0.11690 0.77900 0.07700
H 	H 	0.33700 0.11330 0.87430 0.00600
H 	H 	0.21350 0.93370 0.59320 0.06300
H 	H 	0.15610 0.92880 0.49230 0.03400
H 	H 	0.17210 0.10520 0.59470 0.03800
H 	H 	0.22820 0.10860 0.69500 0.06100
H 	H 	0.12890 0.91990 0.23300 0.06200
H 	H 	0.16290 0.86900 0.15610 0.06300
H 	H 	0.22220 0.12010 0.34490 0.04400
H 	H 	0.14560 0.48630 0.22670 0.01500
H 	H 	0.24530 0.54440 0.32590 0.07300
H 	H 	0.33790 0.51810 0.22100 0.07600
H 	H 	0.23900 0.46270 0.12570 0.01000
H 	H 	0.34050 0.62030 0.40680 0.06100
H 	H 	0.43650 0.66380 0.50770 0.03200
H 	H 	0.51050 0.57740 0.40530 0.03700
H 	H 	0.41360 0.53320 0.30500 0.06100
H 	H 	0.68690 0.89590 0.76700 0.04600
H 	H 	0.71290 0.00680 0.84390 0.05000
H 	H 	0.77520 0.87730 0.65510 0.03200
H 	H 	0.77330 0.25960 0.91890 0.01600
H 	H 	0.67410 0.21850 0.91940 0.07600
H 	H 	0.77900 0.29710 0.11690 0.07700
H 	H 	0.87430 0.33700 0.11330 0.00600
H 	H 	0.59320 0.21350 0.93370 0.06300
H 	H 	0.49230 0.15610 0.92880 0.03400
H 	H 	0.59470 0.17210 0.10520 0.03800
H 	H 	0.69500 0.22820 0.10860 0.06100
H 	H 	0.23300 0.12890 0.91990 0.06200
H 	H 	0.15610 0.16290 0.86900 0.06300
H 	H 	0.34490 0.22220 0.12010 0.04400
H 	H 	0.22670 0.14560 0.48630 0.01500
H 	H 	0.32590 0.24530 0.54440 0.07300
H 	H 	0.22100 0.33790 0.51810 0.07600
H 	H 	0.12570 0.23900 0.46270 0.01000
H 	H 	0.40680 0.34050 0.62030 0.06100
H 	H 	0.50770 0.43650 0.66380 0.03200
H 	H 	0.40530 0.51050 0.57740 0.03700
H 	H 	0.30500 0.41360 0.53320 0.06100
H 	H 	0.76700 0.68690 0.89590 0.04600
H 	H 	0.84390 0.71290 0.00680 0.05000
H 	H 	0.65510 0.77520 0.87730 0.03200
H 	H 	0.34070 0.85440 0.08110 0.01300
H 	H 	0.29910 0.75470 0.08060 0.07000
H 	H 	0.18020 0.66210 0.88310 0.07500
H 	H 	0.22370 0.76100 0.88670 0.01000
H 	H 	0.27980 0.65950 0.06630 0.05900
H 	H 	0.22730 0.56350 0.07120 0.03100
H 	H 	0.06690 0.48950 0.89480 0.03800
H 	H 	0.11960 0.58640 0.89140 0.06100
H 	H 	0.20900 0.31310 0.08010 0.05500
H 	H 	0.29390 0.28710 0.13100 0.06100
H 	H 	0.10210 0.22480 0.87990 0.04300
H 	H 	0.65930 0.74040 0.51370 0.01500
H 	H 	0.70090 0.78150 0.45560 0.07200
H 	H 	0.81980 0.70290 0.48190 0.07500
H 	H 	0.77630 0.66300 0.53730 0.00800
H 	H 	0.72020 0.78650 0.37970 0.06100
H 	H 	0.77270 0.84390 0.33620 0.03100
H 	H 	0.93310 0.82790 0.42260 0.03400
H 	H 	0.88040 0.77180 0.46680 0.05900
H 	H 	0.79100 0.87110 0.10410 0.06800
H 	H 	0.70610 0.83710 0.99320 0.07100
H 	H 	0.89790 0.77780 0.12270 0.05000
H 	H 	0.51370 0.65930 0.74040 0.01500
H 	H 	0.45560 0.70090 0.78150 0.07200
H 	H 	0.48190 0.81980 0.70290 0.07500
H 	H 	0.53730 0.77630 0.66300 0.00800
H 	H 	0.37970 0.72020 0.78650 0.06100
H 	H 	0.33620 0.77270 0.84390 0.03100
H 	H 	0.42260 0.93310 0.82790 0.03400
H 	H 	0.46680 0.88040 0.77180 0.05900
H 	H 	0.10410 0.79100 0.87110 0.06800
H 	H 	0.99320 0.70610 0.83710 0.07100
H 	H 	0.12270 0.89790 0.77780 0.05000
H 	H 	0.08110 0.34070 0.85440 0.01300
H 	H 	0.08060 0.29910 0.75470 0.07000
H 	H 	0.88310 0.18020 0.66210 0.07500
H 	H 	0.88670 0.22370 0.76100 0.01000
H 	H 	0.06630 0.27980 0.65950 0.05900
H 	H 	0.07120 0.22730 0.56350 0.03100
H 	H 	0.89480 0.06690 0.48950 0.03800
H 	H 	0.89140 0.11960 0.58640 0.06100
H 	H 	0.08010 0.20900 0.31310 0.05500
H 	H 	0.13100 0.29390 0.28710 0.06100
H 	H 	0.87990 0.10210 0.22480 0.04300
H 	H 	0.48630 0.22670 0.14560 0.01500
H 	H 	0.54440 0.32590 0.24530 0.07300
H 	H 	0.51810 0.22100 0.33790 0.07600
H 	H 	0.46270 0.12570 0.23900 0.01000
H 	H 	0.62030 0.40680 0.34050 0.06100
H 	H 	0.66380 0.50770 0.43650 0.03200
H 	H 	0.57740 0.40530 0.51050 0.03700
H 	H 	0.53320 0.30500 0.41360 0.06100
H 	H 	0.89590 0.76700 0.68690 0.04600
H 	H 	0.00680 0.84390 0.71290 0.05000
H 	H 	0.87730 0.65510 0.77520 0.03200
H 	H 	0.91890 0.77330 0.25960 0.01600
H 	H 	0.91940 0.67410 0.21850 0.07600
H 	H 	0.11690 0.77900 0.29710 0.07700
H 	H 	0.11330 0.87430 0.33700 0.00600
H 	H 	0.93370 0.59320 0.21350 0.06300
H 	H 	0.92880 0.49230 0.15610 0.03400
H 	H 	0.10520 0.59470 0.17210 0.03800
H 	H 	0.10860 0.69500 0.22820 0.06100
H 	H 	0.91990 0.23300 0.12890 0.06200
H 	H 	0.86900 0.15610 0.16290 0.06300
H 	H 	0.12010 0.34490 0.22220 0.04400
C 	C 	0.81476 0.04040 0.30712 0.07900
C 	C 	0.75563 0.04037 0.28294 -0.11300
C 	C 	0.69696 0.98036 0.23424 0.05700
C 	C 	0.70120 0.92461 0.21329 -0.13600
C 	C 	0.76028 0.92718 0.23878 0.08700
C 	C 	0.63242 0.97985 0.20523 0.01900
C 	C 	0.62517 0.03142 0.23619 -0.08300
C 	C 	0.56765 0.03449 0.20494 0.04700
C 	C 	0.51749 0.98388 0.14201 -0.12500
C 	C 	0.52418 0.93016 0.11014 0.03300
C 	C 	0.58178 0.92791 0.14149 -0.09100
C 	C 	0.45719 0.98701 0.10496 0.39500
C 	C 	0.30779 0.98921 0.10910 0.38400
C 	C 	0.27286 0.98184 0.14856 -0.09400
C 	C 	0.28174 0.03737 0.19749 -0.01700
C 	C 	0.24508 0.03190 0.23084 0.03200
C 	C 	0.25431 0.08816 0.28063 -0.08100
C 	C 	0.22920 0.91832 0.13392 0.01800
C 	C 	0.73328 0.50764 0.69288 0.07200
C 	C 	0.75743 0.47269 0.71706 -0.12500
C 	C 	0.74612 0.46272 0.76576 0.06700
C 	C 	0.71132 0.48791 0.78671 -0.14000
C 	C 	0.68840 0.52150 0.76122 0.09000
C 	C 	0.77462 0.42719 0.79477 0.03000
C 	C 	0.79523 0.38898 0.76381 -0.09700
C 	C 	0.82955 0.36271 0.79506 0.03800
C 	C 	0.84187 0.37548 0.85799 -0.12000
C 	C 	0.82002 0.41404 0.88986 0.03400
C 	C 	0.78642 0.44029 0.85851 -0.09400
C 	C 	0.88205 0.35223 0.89504 0.40900
C 	C 	0.88011 0.19869 0.89090 0.38900
C 	C 	0.83328 0.12430 0.85144 -0.06400
C 	C 	0.83988 0.08425 0.80251 -0.06100
C 	C 	0.80106 0.01424 0.76916 0.07700
C 	C 	0.80753 0.97368 0.71937 -0.12700
C 	C 	0.78440 0.09528 0.86608 -0.01200
C 	C 	0.26672 0.95960 0.77436 0.06600
C 	C 	0.24257 0.95963 0.71526 -0.13800
C 	C 	0.25388 0.01964 0.71660 0.08000
C 	C 	0.28868 0.07539 0.77659 -0.14400
C 	C 	0.31160 0.07282 0.83310 0.09500
C 	C 	0.22538 0.02015 0.65257 0.04000
C 	C 	0.20477 0.96858 0.59375 -0.10600
C 	C 	0.17045 0.96551 0.53316 0.02700
C 	C 	0.15813 0.01612 0.53361 -0.10700
C 	C 	0.17998 0.06984 0.59402 0.03300
C 	C 	0.21358 0.07209 0.65387 -0.09300
C 	C 	0.11795 0.01299 0.47018 0.42100
C 	C 	0.11989 0.01079 0.31858 0.40800
C 	C 	0.16672 0.01816 0.29102 -0.07100
C 	C 	0.16012 0.96263 0.24437 -0.04600
C 	C 	0.19894 0.96810 0.21318 0.02100
C 	C 	0.19247 0.91184 0.16615 -0.08500
C 	C 	0.21560 0.08168 0.31088 0.01300
C 	C 	0.18524 0.49236 0.22564 0.07200
C 	C 	0.24437 0.52731 0.28474 -0.12500
C 	C 	0.30304 0.53728 0.28340 0.06800
C 	C 	0.29880 0.51209 0.22341 -0.13900
C 	C 	0.23972 0.47850 0.16690 0.09000
C 	C 	0.36758 0.57281 0.34743 0.03000
C 	C 	0.37483 0.61102 0.40625 -0.09600
C 	C 	0.43235 0.63729 0.46684 0.03700
C 	C 	0.48251 0.62452 0.46639 -0.11800
C 	C 	0.47582 0.58596 0.40598 0.03400
C 	C 	0.41822 0.55971 0.34613 -0.09300
C 	C 	0.54281 0.64777 0.52982 0.40800
C 	C 	0.69221 0.80131 0.68142 0.40300
C 	C 	0.72714 0.87570 0.70898 -0.10500
C 	C 	0.71826 0.91575 0.75563 -0.00200
C 	C 	0.75492 0.98576 0.78682 -0.02700
C 	C 	0.74569 0.02632 0.83385 -0.04100
C 	C 	0.77080 0.90472 0.68912 0.04100
C 	C 	0.77436 0.26672 0.95960 0.06600
C 	C 	0.71526 0.24257 0.95963 -0.13800
C 	C 	0.71660 0.25388 0.01964 0.08000
C 	C 	0.77659 0.28868 0.07539 -0.14400
C 	C 	0.83310 0.31160 0.07282 0.09500
C 	C 	0.65257 0.22538 0.02015 0.04000
C 	C 	0.59375 0.20477 0.96858 -0.10600
C 	C 	0.53316 0.17045 0.96551 0.02700
C 	C 	0.53361 0.15813 0.01612 -0.10700
C 	C 	0.59402 0.17998 0.06984 0.03300
C 	C 	0.65387 0.21358 0.07209 -0.09300
C 	C 	0.47018 0.11795 0.01299 0.42100
C 	C 	0.31858 0.11989 0.01079 0.40800
C 	C 	0.29102 0.16672 0.01816 -0.07100
C 	C 	0.24437 0.16012 0.96263 -0.04600
C 	C 	0.21318 0.19894 0.96810 0.02100
C 	C 	0.16615 0.19247 0.91184 -0.08500
C 	C 	0.31088 0.21560 0.08168 0.01300
C 	C 	0.22564 0.18524 0.49236 0.07200
C 	C 	0.28474 0.24437 0.52731 -0.12500
C 	C 	0.28340 0.30304 0.53728 0.06800
C 	C 	0.22341 0.29880 0.51209 -0.13900
C 	C 	0.16690 0.23972 0.47850 0.09000
C 	C 	0.34743 0.36758 0.57281 0.03000
C 	C 	0.40625 0.37483 0.61102 -0.09600
C 	C 	0.46684 0.43235 0.63729 0.03700
C 	C 	0.46639 0.48251 0.62452 -0.11800
C 	C 	0.40598 0.47582 0.58596 0.03400
C 	C 	0.34613 0.41822 0.55971 -0.09300
C 	C 	0.52982 0.54281 0.64777 0.40800
C 	C 	0.68142 0.69221 0.80131 0.40300
C 	C 	0.70898 0.72714 0.87570 -0.10500
C 	C 	0.75563 0.71826 0.91575 -0.00200
C 	C 	0.78682 0.75492 0.98576 -0.02700
C 	C 	0.83385 0.74569 0.02632 -0.04100
C 	C 	0.68912 0.77080 0.90472 0.04100
C 	C 	0.30712 0.81476 0.04040 0.07900
C 	C 	0.28294 0.75563 0.04037 -0.11300
C 	C 	0.23424 0.69696 0.98036 0.05700
C 	C 	0.21329 0.70120 0.92461 -0.13600
C 	C 	0.23878 0.76028 0.92718 0.08700
C 	C 	0.20523 0.63242 0.97985 0.01900
C 	C 	0.23619 0.62517 0.03142 -0.08300
C 	C 	0.20494 0.56765 0.03449 0.04700
C 	C 	0.14201 0.51749 0.98388 -0.12500
C 	C 	0.11014 0.52418 0.93016 0.03300
C 	C 	0.14149 0.58178 0.92791 -0.09100
C 	C 	0.10496 0.45719 0.98701 0.39500
C 	C 	0.10910 0.30779 0.98921 0.38400
C 	C 	0.14856 0.27286 0.98184 -0.09400
C 	C 	0.19749 0.28174 0.03737 -0.01700
C 	C 	0.23084 0.24508 0.03190 0.03200
C 	C 	0.28063 0.25431 0.08816 -0.08100
C 	C 	0.13392 0.22920 0.91832 0.01800
C 	C 	0.69288 0.73328 0.50764 0.07200
C 	C 	0.71706 0.75743 0.47269 -0.12500
C 	C 	0.76576 0.74612 0.46272 0.06700
C 	C 	0.78671 0.71132 0.48791 -0.14000
C 	C 	0.76122 0.68840 0.52150 0.09000
C 	C 	0.79477 0.77462 0.42719 0.03000
C 	C 	0.76381 0.79523 0.38898 -0.09700
C 	C 	0.79506 0.82955 0.36271 0.03800
C 	C 	0.85799 0.84187 0.37548 -0.12000
C 	C 	0.88986 0.82002 0.41404 0.03400
C 	C 	0.85851 0.78642 0.44029 -0.09400
C 	C 	0.89504 0.88205 0.35223 0.40900
C 	C 	0.89090 0.88011 0.19869 0.38900
C 	C 	0.85144 0.83328 0.12430 -0.06400
C 	C 	0.80251 0.83988 0.08425 -0.06100
C 	C 	0.76916 0.80106 0.01424 0.07700
C 	C 	0.71937 0.80753 0.97368 -0.12700
C 	C 	0.86608 0.78440 0.09528 -0.01200
C 	C 	0.50764 0.69288 0.73328 0.07200
C 	C 	0.47269 0.71706 0.75743 -0.12500
C 	C 	0.46272 0.76576 0.74612 0.06700
C 	C 	0.48791 0.78671 0.71132 -0.14000
C 	C 	0.52150 0.76122 0.68840 0.09000
C 	C 	0.42719 0.79477 0.77462 0.03000
C 	C 	0.38898 0.76381 0.79523 -0.09700
C 	C 	0.36271 0.79506 0.82955 0.03800
C 	C 	0.37548 0.85799 0.84187 -0.12000
C 	C 	0.41404 0.88986 0.82002 0.03400
C 	C 	0.44029 0.85851 0.78642 -0.09400
C 	C 	0.35223 0.89504 0.88205 0.40900
C 	C 	0.19869 0.89090 0.88011 0.38900
C 	C 	0.12430 0.85144 0.83328 -0.06400
C 	C 	0.08425 0.80251 0.83988 -0.06100
C 	C 	0.01424 0.76916 0.80106 0.07700
C 	C 	0.97368 0.71937 0.80753 -0.12700
C 	C 	0.09528 0.86608 0.78440 -0.01200
C 	C 	0.04040 0.30712 0.81476 0.07900
C 	C 	0.04037 0.28294 0.75563 -0.11300
C 	C 	0.98036 0.23424 0.69696 0.05700
C 	C 	0.92461 0.21329 0.70120 -0.13600
C 	C 	0.92718 0.23878 0.76028 0.08700
C 	C 	0.97985 0.20523 0.63242 0.01900
C 	C 	0.03142 0.23619 0.62517 -0.08300
C 	C 	0.03449 0.20494 0.56765 0.04700
C 	C 	0.98388 0.14201 0.51749 -0.12500
C 	C 	0.93016 0.11014 0.52418 0.03300
C 	C 	0.92791 0.14149 0.58178 -0.09100
C 	C 	0.98701 0.10496 0.45719 0.39500
C 	C 	0.98921 0.10910 0.30779 0.38400
C 	C 	0.98184 0.14856 0.27286 -0.09400
C 	C 	0.03737 0.19749 0.28174 -0.01700
C 	C 	0.03190 0.23084 0.24508 0.03200
C 	C 	0.08816 0.28063 0.25431 -0.08100
C 	C 	0.91832 0.13392 0.22920 0.01800
C 	C 	0.49236 0.22564 0.18524 0.07200
C 	C 	0.52731 0.28474 0.24437 -0.12500
C 	C 	0.53728 0.28340 0.30304 0.06800
C 	C 	0.51209 0.22341 0.29880 -0.13900
C 	C 	0.47850 0.16690 0.23972 0.09000
C 	C 	0.57281 0.34743 0.36758 0.03000
C 	C 	0.61102 0.40625 0.37483 -0.09600
C 	C 	0.63729 0.46684 0.43235 0.03700
C 	C 	0.62452 0.46639 0.48251 -0.11800
C 	C 	0.58596 0.40598 0.47582 0.03400
C 	C 	0.55971 0.34613 0.41822 -0.09300
C 	C 	0.64777 0.52982 0.54281 0.40800
C 	C 	0.80131 0.68142 0.69221 0.40300
C 	C 	0.87570 0.70898 0.72714 -0.10500
C 	C 	0.91575 0.75563 0.71826 -0.00200
C 	C 	0.98576 0.78682 0.75492 -0.02700
C 	C 	0.02632 0.83385 0.74569 -0.04100
C 	C 	0.90472 0.68912 0.77080 0.04100
C 	C 	0.95960 0.77436 0.26672 0.06600
C 	C 	0.95963 0.71526 0.24257 -0.13800
C 	C 	0.01964 0.71660 0.25388 0.08000
C 	C 	0.07539 0.77659 0.28868 -0.14400
C 	C 	0.07282 0.83310 0.31160 0.09500
C 	C 	0.02015 0.65257 0.22538 0.04000
C 	C 	0.96858 0.59375 0.20477 -0.10600
C 	C 	0.96551 0.53316 0.17045 0.02700
C 	C 	0.01612 0.53361 0.15813 -0.10700
C 	C 	0.06984 0.59402 0.17998 0.03300
C 	C 	0.07209 0.65387 0.21358 -0.09300
C 	C 	0.01299 0.47018 0.11795 0.42100
C 	C 	0.01079 0.31858 0.11989 0.40800
C 	C 	0.01816 0.29102 0.16672 -0.07100
C 	C 	0.96263 0.24437 0.16012 -0.04600
C 	C 	0.96810 0.21318 0.19894 0.02100
C 	C 	0.91184 0.16615 0.19247 -0.08500
C 	C 	0.08168 0.31088 0.21560 0.01300
N 	N 	0.81783 0.98360 0.28413 -0.21400
N 	N 	0.69947 0.53370 0.71587 -0.20800
N 	N 	0.30053 0.01640 0.83423 -0.20300
N 	N 	0.18217 0.46630 0.16577 -0.20800
N 	N 	0.83423 0.30053 0.01640 -0.20300
N 	N 	0.16577 0.18217 0.46630 -0.20800
N 	N 	0.28413 0.81783 0.98360 -0.21400
N 	N 	0.71587 0.69947 0.53370 -0.20800
N 	N 	0.53370 0.71587 0.69947 -0.20800
N 	N 	0.98360 0.28413 0.81783 -0.21400
N 	N 	0.46630 0.16577 0.18217 -0.20800
N 	N 	0.01640 0.83423 0.30053 -0.20300
O 	O 	0.45959 0.04021 0.12896 -0.41200
O 	O 	0.41108 0.93478 0.05246 -0.41500
O 	O 	0.34192 0.04619 0.12137 -0.39900
O 	O 	0.29684 0.93679 0.06705 -0.41100
O 	O 	0.91125 0.33063 0.87104 -0.42700
O 	O 	0.88232 0.35862 0.94754 -0.42700
O 	O 	0.92482 0.22055 0.87863 -0.41300
O 	O 	0.86974 0.22979 0.93295 -0.42000
O 	O 	0.08875 0.95979 0.41938 -0.43300
O 	O 	0.11768 0.06522 0.47630 -0.42100
O 	O 	0.07518 0.95381 0.29573 -0.41900
O 	O 	0.13026 0.06321 0.36005 -0.41700
O 	O 	0.54041 0.66937 0.58062 -0.42300
O 	O 	0.58892 0.64138 0.52370 -0.42000
O 	O 	0.65808 0.77945 0.70427 -0.41300
O 	O 	0.70316 0.77021 0.63995 -0.41900
O 	O 	0.41938 0.08875 0.95979 -0.43300
O 	O 	0.47630 0.11768 0.06522 -0.42100
O 	O 	0.29573 0.07518 0.95381 -0.41900
O 	O 	0.36005 0.13026 0.06321 -0.41700
O 	O 	0.58062 0.54041 0.66937 -0.42300
O 	O 	0.52370 0.58892 0.64138 -0.42000
O 	O 	0.70427 0.65808 0.77945 -0.41300
O 	O 	0.63995 0.70316 0.77021 -0.41900
O 	O 	0.12896 0.45959 0.04021 -0.41200
O 	O 	0.05246 0.41108 0.93478 -0.41500
O 	O 	0.12137 0.34192 0.04619 -0.39900
O 	O 	0.06705 0.29684 0.93679 -0.41100
O 	O 	0.87104 0.91125 0.33063 -0.42700
O 	O 	0.94754 0.88232 0.35862 -0.42700
O 	O 	0.87863 0.92482 0.22055 -0.41300
O 	O 	0.93295 0.86974 0.22979 -0.42000
O 	O 	0.33063 0.87104 0.91125 -0.42700
O 	O 	0.35862 0.94754 0.88232 -0.42700
O 	O 	0.22055 0.87863 0.92482 -0.41300
O 	O 	0.22979 0.93295 0.86974 -0.42000
O 	O 	0.04021 0.12896 0.45959 -0.41200
O 	O 	0.93478 0.05246 0.41108 -0.41500
O 	O 	0.04619 0.12137 0.34192 -0.39900
O 	O 	0.93679 0.06705 0.29684 -0.41100
O 	O 	0.66937 0.58062 0.54041 -0.42300
O 	O 	0.64138 0.52370 0.58892 -0.42000
O 	O 	0.77945 0.70427 0.65808 -0.41300
O 	O 	0.77021 0.63995 0.70316 -0.41900
O 	O 	0.95979 0.41938 0.08875 -0.43300
O 	O 	0.06522 0.47630 0.11768 -0.42100
O 	O 	0.95381 0.29573 0.07518 -0.41900
O 	O 	0.06321 0.36005 0.13026 -0.41700
O 	O 	0.34878 0.00000 -0.00000 -0.55300
O 	O 	-0.00000 0.34878 -0.00000 -0.55300
O 	O 	-0.00000 -0.00000 0.34878 -0.55300
O 	O 	0.65122 0.65122 0.65122 -0.56700
