data_crystal

_cell_length_a 30.64110
_cell_length_b 30.64110
_cell_length_c 22.96140
_cell_angle_alpha 90.00000
_cell_angle_beta  90.00000
_cell_angle_gamma 90.00000

_symmetry_space_group_name_	'P 1'
_symmetry_space_group_name_H-M	'P 1'

loop_
_symmetry_equiv_pos_as_xyz
  x,y,z

loop_
_atom_site_label
_atom_site_type_symbol
_atom_site_fract_x
_atom_site_fract_y
_atom_site_fract_z
_atom_site_charge
C 	C 	0.30107 0.08193 0.13600 -0.09200
C 	C 	0.34040 0.08858 0.16500 0.01000
H 	H 	0.36680 0.07690 0.15000 0.06000
C 	C 	0.34016 0.11284 0.21670 -0.03500
C 	C 	0.30148 0.12913 0.23850 0.00400
H 	H 	0.30160 0.14620 0.27310 0.05200
C 	C 	0.26177 0.12057 0.20980 -0.09200
C 	C 	0.26187 0.09658 0.15870 0.03800
H 	H 	0.23520 0.09020 0.13940 0.04400
C 	C 	0.30143 0.05355 0.08103 0.37300
C 	C 	0.22014 0.13420 0.23840 0.35700
C 	C 	0.17961 0.03933 0.37430 -0.09100
C 	C 	0.20798 0.03926 0.42260 0.01800
H 	H 	0.21770 0.06610 0.43880 0.05800
C 	C 	0.16673 0.08161 0.34610 0.37200
O 	O 	0.33794 0.04398 0.06069 -0.42400
O 	O 	0.26526 0.04402 0.06077 -0.43300
O 	O 	0.22249 0.15789 0.28243 -0.40600
O 	O 	0.18534 0.12136 0.21352 -0.40300
O 	O 	0.18030 0.11585 0.36924 -0.40600
O 	O 	0.14287 0.07890 0.30220 -0.41700
C 	C 	0.80107 0.58193 0.63600 -0.07900
C 	C 	0.84040 0.58858 0.66500 0.00300
H 	H 	0.86680 0.57690 0.65000 0.07000
C 	C 	0.84016 0.61284 0.71670 -0.02400
C 	C 	0.80148 0.62913 0.73850 -0.00200
H 	H 	0.80160 0.64620 0.77310 0.05800
C 	C 	0.76177 0.62057 0.70980 -0.08200
C 	C 	0.76187 0.59658 0.65870 0.03200
H 	H 	0.73520 0.59020 0.63940 0.05300
C 	C 	0.80143 0.55355 0.58103 0.37000
C 	C 	0.72014 0.63420 0.73840 0.35400
C 	C 	0.67961 0.53933 0.87430 -0.06700
C 	C 	0.70798 0.53926 0.92260 -0.02000
H 	H 	0.71770 0.56610 0.93880 0.08900
C 	C 	0.66673 0.58161 0.84610 0.36600
O 	O 	0.83794 0.54398 0.56069 -0.40200
O 	O 	0.76526 0.54402 0.56077 -0.41200
O 	O 	0.72249 0.65789 0.78243 -0.40100
O 	O 	0.68534 0.62136 0.71352 -0.39600
O 	O 	0.68030 0.61585 0.86924 -0.39600
O 	O 	0.64287 0.57890 0.80220 -0.40800
C 	C 	0.69893 0.91807 0.13600 -0.08400
C 	C 	0.65960 0.91142 0.16500 0.00600
H 	H 	0.63320 0.92310 0.15000 0.06600
C 	C 	0.65984 0.88716 0.21670 -0.02900
C 	C 	0.69852 0.87087 0.23850 0.00100
H 	H 	0.69840 0.85380 0.27310 0.05400
C 	C 	0.73823 0.87943 0.20980 -0.08600
C 	C 	0.73813 0.90342 0.15870 0.03500
H 	H 	0.76480 0.90980 0.13940 0.05000
C 	C 	0.69857 0.94645 0.08103 0.37200
C 	C 	0.77986 0.86580 0.23840 0.35600
C 	C 	0.82039 0.96067 0.37430 -0.06900
C 	C 	0.79202 0.96074 0.42260 0.03900
H 	H 	0.78230 0.93390 0.43880 0.05500
C 	C 	0.83327 0.91839 0.34610 0.36900
O 	O 	0.66206 0.95602 0.06069 -0.40700
O 	O 	0.73474 0.95598 0.06077 -0.41500
O 	O 	0.77751 0.84211 0.28243 -0.40400
O 	O 	0.81466 0.87864 0.21352 -0.39700
O 	O 	0.81970 0.88415 0.36924 -0.40300
O 	O 	0.85713 0.92110 0.30220 -0.40400
C 	C 	0.19893 0.41807 0.63600 -0.08200
C 	C 	0.15960 0.41142 0.66500 0.00500
H 	H 	0.13320 0.42310 0.65000 0.06500
C 	C 	0.15984 0.38716 0.71670 -0.02800
C 	C 	0.19852 0.37087 0.73850 0.00000
H 	H 	0.19840 0.35380 0.77310 0.05700
C 	C 	0.23823 0.37943 0.70980 -0.08300
C 	C 	0.23813 0.40342 0.65870 0.03300
H 	H 	0.26480 0.40980 0.63940 0.05300
C 	C 	0.19857 0.44645 0.58103 0.37200
C 	C 	0.27986 0.36580 0.73840 0.35500
C 	C 	0.32039 0.46067 0.87430 -0.06600
C 	C 	0.29202 0.46074 0.92260 -0.02000
H 	H 	0.28230 0.43390 0.93880 0.08900
C 	C 	0.33327 0.41839 0.84610 0.36600
O 	O 	0.16206 0.45602 0.56069 -0.40600
O 	O 	0.23474 0.45598 0.56077 -0.41200
O 	O 	0.27751 0.34211 0.78243 -0.40100
O 	O 	0.31466 0.37864 0.71352 -0.39600
O 	O 	0.31970 0.38415 0.86924 -0.39500
O 	O 	0.35713 0.42110 0.80220 -0.40800
C 	C 	0.91807 0.30107 0.13600 -0.08500
C 	C 	0.91142 0.34040 0.16500 0.00700
H 	H 	0.92310 0.36680 0.15000 0.06600
C 	C 	0.88716 0.34016 0.21670 -0.02900
C 	C 	0.87087 0.30148 0.23850 0.00200
H 	H 	0.85380 0.30160 0.27310 0.05400
C 	C 	0.87943 0.26177 0.20980 -0.08700
C 	C 	0.90342 0.26187 0.15870 0.03500
H 	H 	0.90980 0.23520 0.13940 0.04900
C 	C 	0.94645 0.30143 0.08103 0.37200
C 	C 	0.86580 0.22014 0.23840 0.35600
C 	C 	0.96067 0.17961 0.37430 -0.07200
C 	C 	0.96074 0.20798 0.42260 0.03900
H 	H 	0.93390 0.21770 0.43880 0.05500
C 	C 	0.91839 0.16673 0.34610 0.36900
O 	O 	0.95602 0.33794 0.06069 -0.40700
O 	O 	0.95598 0.26526 0.06077 -0.41600
O 	O 	0.84211 0.22249 0.28243 -0.40500
O 	O 	0.87864 0.18534 0.21352 -0.39900
O 	O 	0.88415 0.18030 0.36924 -0.40400
O 	O 	0.92110 0.14287 0.30220 -0.40800
C 	C 	0.41807 0.80107 0.63600 -0.07900
C 	C 	0.41142 0.84040 0.66500 0.00300
H 	H 	0.42310 0.86680 0.65000 0.07000
C 	C 	0.38716 0.84016 0.71670 -0.02400
C 	C 	0.37087 0.80148 0.73850 -0.00200
H 	H 	0.35380 0.80160 0.77310 0.05800
C 	C 	0.37943 0.76177 0.70980 -0.08200
C 	C 	0.40342 0.76187 0.65870 0.03200
H 	H 	0.40980 0.73520 0.63940 0.05300
C 	C 	0.44645 0.80143 0.58103 0.37000
C 	C 	0.36580 0.72014 0.73840 0.35400
C 	C 	0.46067 0.67961 0.87430 -0.06700
C 	C 	0.46074 0.70798 0.92260 -0.02000
H 	H 	0.43390 0.71770 0.93880 0.08900
C 	C 	0.41839 0.66673 0.84610 0.36600
O 	O 	0.45602 0.83794 0.56069 -0.40200
O 	O 	0.45598 0.76526 0.56077 -0.41200
O 	O 	0.34211 0.72249 0.78243 -0.40100
O 	O 	0.37864 0.68534 0.71352 -0.39600
O 	O 	0.38415 0.68030 0.86924 -0.39500
O 	O 	0.42110 0.64287 0.80220 -0.40800
C 	C 	0.08193 0.69893 0.13600 -0.09300
C 	C 	0.08858 0.65960 0.16500 0.00900
H 	H 	0.07690 0.63320 0.15000 0.05900
C 	C 	0.11284 0.65984 0.21670 -0.03500
C 	C 	0.12913 0.69852 0.23850 0.00300
H 	H 	0.14620 0.69840 0.27310 0.05200
C 	C 	0.12057 0.73823 0.20980 -0.09100
C 	C 	0.09658 0.73813 0.15870 0.03700
H 	H 	0.09020 0.76480 0.13940 0.04500
C 	C 	0.05355 0.69857 0.08103 0.37300
C 	C 	0.13420 0.77986 0.23840 0.35700
C 	C 	0.03933 0.82039 0.37430 -0.08800
C 	C 	0.03926 0.79202 0.42260 0.01700
H 	H 	0.06610 0.78230 0.43880 0.05900
C 	C 	0.08161 0.83327 0.34610 0.37100
O 	O 	0.04398 0.66206 0.06069 -0.42300
O 	O 	0.04402 0.73474 0.06077 -0.43100
O 	O 	0.15789 0.77751 0.28243 -0.40500
O 	O 	0.12136 0.81466 0.21352 -0.40100
O 	O 	0.11585 0.81970 0.36924 -0.40500
O 	O 	0.07890 0.85713 0.30220 -0.41400
C 	C 	0.58193 0.19893 0.63600 -0.08200
C 	C 	0.58858 0.15960 0.66500 0.00500
H 	H 	0.57690 0.13320 0.65000 0.06500
C 	C 	0.61284 0.15984 0.71670 -0.02800
C 	C 	0.62913 0.19852 0.73850 0.00000
H 	H 	0.64620 0.19840 0.77310 0.05700
C 	C 	0.62057 0.23823 0.70980 -0.08300
C 	C 	0.59658 0.23813 0.65870 0.03300
H 	H 	0.59020 0.26480 0.63940 0.05300
C 	C 	0.55355 0.19857 0.58103 0.37200
C 	C 	0.63420 0.27986 0.73840 0.35500
C 	C 	0.53933 0.32039 0.87430 -0.06600
C 	C 	0.53926 0.29202 0.92260 -0.02000
H 	H 	0.56610 0.28230 0.93880 0.08900
C 	C 	0.58161 0.33327 0.84610 0.36600
O 	O 	0.54398 0.16206 0.56069 -0.40600
O 	O 	0.54402 0.23474 0.56077 -0.41200
O 	O 	0.65789 0.27751 0.78243 -0.40100
O 	O 	0.62136 0.31466 0.71352 -0.39600
O 	O 	0.61585 0.31970 0.86924 -0.39500
O 	O 	0.57890 0.35713 0.80220 -0.40800
C 	C 	0.69893 0.08193 0.86400 -0.07300
C 	C 	0.65960 0.08858 0.83500 0.00100
H 	H 	0.63320 0.07690 0.85000 0.07000
C 	C 	0.65984 0.11284 0.78330 -0.02600
C 	C 	0.69852 0.12913 0.76150 -0.00200
H 	H 	0.69840 0.14620 0.72690 0.05500
C 	C 	0.73823 0.12057 0.79020 -0.08000
C 	C 	0.73813 0.09658 0.84130 0.02900
H 	H 	0.76480 0.09020 0.86060 0.05800
C 	C 	0.69857 0.05355 0.91897 0.36400
C 	C 	0.77986 0.13420 0.76160 0.35400
C 	C 	0.82039 0.03933 0.62570 -0.08600
C 	C 	0.79202 0.03926 0.57740 0.01600
H 	H 	0.78230 0.06610 0.56120 0.05900
C 	C 	0.83327 0.08161 0.65390 0.37000
O 	O 	0.66206 0.04398 0.93931 -0.38100
O 	O 	0.73474 0.04402 0.93923 -0.38900
O 	O 	0.77751 0.15789 0.71757 -0.40300
O 	O 	0.81466 0.12136 0.78648 -0.39300
O 	O 	0.81970 0.11585 0.63076 -0.40500
O 	O 	0.85713 0.07890 0.69780 -0.41000
C 	C 	0.19893 0.58193 0.36400 -0.08400
C 	C 	0.15960 0.58858 0.33500 0.00700
H 	H 	0.13320 0.57690 0.35000 0.06400
C 	C 	0.15984 0.61284 0.28330 -0.03200
C 	C 	0.19852 0.62913 0.26150 0.00300
H 	H 	0.19840 0.64620 0.22690 0.05100
C 	C 	0.23823 0.62057 0.29020 -0.08700
C 	C 	0.23813 0.59658 0.34130 0.03500
H 	H 	0.26480 0.59020 0.36060 0.05200
C 	C 	0.19857 0.55355 0.41897 0.37200
C 	C 	0.27986 0.63420 0.26160 0.35700
C 	C 	0.32039 0.53933 0.12570 -0.09700
C 	C 	0.29202 0.53926 0.07740 0.00900
H 	H 	0.28230 0.56610 0.06120 0.05200
C 	C 	0.33327 0.58161 0.15390 0.37300
O 	O 	0.16206 0.54398 0.43931 -0.40600
O 	O 	0.23474 0.54402 0.43923 -0.41300
O 	O 	0.27751 0.65789 0.21757 -0.40700
O 	O 	0.31466 0.62136 0.28648 -0.39700
O 	O 	0.31970 0.61585 0.13076 -0.41300
O 	O 	0.35713 0.57890 0.19780 -0.41400
C 	C 	0.30107 0.91807 0.86400 -0.06600
C 	C 	0.34040 0.91142 0.83500 -0.00000
H 	H 	0.36680 0.92310 0.85000 0.07600
C 	C 	0.34016 0.88716 0.78330 -0.02000
C 	C 	0.30148 0.87087 0.76150 -0.00400
H 	H 	0.30160 0.85380 0.72690 0.05600
C 	C 	0.26177 0.87943 0.79020 -0.07600
C 	C 	0.26187 0.90342 0.84130 0.02800
H 	H 	0.23520 0.90980 0.86060 0.06200
C 	C 	0.30143 0.94645 0.91897 0.36300
C 	C 	0.22014 0.86580 0.76160 0.35400
C 	C 	0.17961 0.96067 0.62570 -0.07000
C 	C 	0.20798 0.96074 0.57740 0.03800
H 	H 	0.21770 0.93390 0.56120 0.05500
C 	C 	0.16673 0.91839 0.65390 0.36800
O 	O 	0.33794 0.95602 0.93931 -0.36600
O 	O 	0.26526 0.95598 0.93923 -0.37600
O 	O 	0.22249 0.84211 0.71757 -0.40200
O 	O 	0.18534 0.87864 0.78648 -0.39000
O 	O 	0.18030 0.88415 0.63076 -0.40400
O 	O 	0.14287 0.92110 0.69780 -0.40400
C 	C 	0.80107 0.41807 0.36400 -0.08100
C 	C 	0.84040 0.41142 0.33500 0.00500
H 	H 	0.86680 0.42310 0.35000 0.06800
C 	C 	0.84016 0.38716 0.28330 -0.02900
C 	C 	0.80148 0.37087 0.26150 0.00100
H 	H 	0.80160 0.35380 0.22690 0.05200
C 	C 	0.76177 0.37943 0.29020 -0.08500
C 	C 	0.76187 0.40342 0.34130 0.03400
H 	H 	0.73520 0.40980 0.36060 0.05200
C 	C 	0.80143 0.44645 0.41897 0.37100
C 	C 	0.72014 0.36580 0.26160 0.35600
C 	C 	0.67961 0.46067 0.12570 -0.09700
C 	C 	0.70798 0.46074 0.07740 0.00800
H 	H 	0.71770 0.43390 0.06120 0.05200
C 	C 	0.66673 0.41839 0.15390 0.37300
O 	O 	0.83794 0.45602 0.43931 -0.40300
O 	O 	0.76526 0.45598 0.43923 -0.41200
O 	O 	0.72249 0.34211 0.21757 -0.40700
O 	O 	0.68534 0.37864 0.28648 -0.39700
O 	O 	0.68030 0.38415 0.13076 -0.41300
O 	O 	0.64287 0.42110 0.19780 -0.41400
C 	C 	0.08193 0.30107 0.86400 -0.07400
C 	C 	0.08858 0.34040 0.83500 0.00200
H 	H 	0.07690 0.36680 0.85000 0.07000
C 	C 	0.11284 0.34016 0.78330 -0.02600
C 	C 	0.12913 0.30148 0.76150 -0.00200
H 	H 	0.14620 0.30160 0.72690 0.05500
C 	C 	0.12057 0.26177 0.79020 -0.08100
C 	C 	0.09658 0.26187 0.84130 0.03000
H 	H 	0.09020 0.23520 0.86060 0.05700
C 	C 	0.05355 0.30143 0.91897 0.36400
C 	C 	0.13420 0.22014 0.76160 0.35500
C 	C 	0.03933 0.17961 0.62570 -0.08900
C 	C 	0.03926 0.20798 0.57740 0.01700
H 	H 	0.06610 0.21770 0.56120 0.05900
C 	C 	0.08161 0.16673 0.65390 0.37000
O 	O 	0.04398 0.33794 0.93931 -0.38100
O 	O 	0.04402 0.26526 0.93923 -0.39000
O 	O 	0.15789 0.22249 0.71757 -0.40300
O 	O 	0.12136 0.18534 0.78648 -0.39400
O 	O 	0.11585 0.18030 0.63076 -0.40600
O 	O 	0.07890 0.14287 0.69780 -0.41400
C 	C 	0.58193 0.80107 0.36400 -0.08100
C 	C 	0.58858 0.84040 0.33500 0.00500
H 	H 	0.57690 0.86680 0.35000 0.06800
C 	C 	0.61284 0.84016 0.28330 -0.02900
C 	C 	0.62913 0.80148 0.26150 0.00100
H 	H 	0.64620 0.80160 0.22690 0.05200
C 	C 	0.62057 0.76177 0.29020 -0.08500
C 	C 	0.59658 0.76187 0.34130 0.03400
H 	H 	0.59020 0.73520 0.36060 0.05200
C 	C 	0.55355 0.80143 0.41897 0.37100
C 	C 	0.63420 0.72014 0.26160 0.35600
C 	C 	0.53933 0.67961 0.12570 -0.09700
C 	C 	0.53926 0.70798 0.07740 0.00800
H 	H 	0.56610 0.71770 0.06120 0.05200
C 	C 	0.58161 0.66673 0.15390 0.37300
O 	O 	0.54398 0.83794 0.43931 -0.40300
O 	O 	0.54402 0.76526 0.43923 -0.41200
O 	O 	0.65789 0.72249 0.21757 -0.40700
O 	O 	0.62136 0.68534 0.28648 -0.39700
O 	O 	0.61585 0.68030 0.13076 -0.41300
O 	O 	0.57890 0.64287 0.19780 -0.41400
C 	C 	0.91807 0.69893 0.86400 -0.06500
C 	C 	0.91142 0.65960 0.83500 -0.00100
H 	H 	0.92310 0.63320 0.85000 0.07700
C 	C 	0.88716 0.65984 0.78330 -0.02000
C 	C 	0.87087 0.69852 0.76150 -0.00400
H 	H 	0.85380 0.69840 0.72690 0.05700
C 	C 	0.87943 0.73823 0.79020 -0.07500
C 	C 	0.90342 0.73813 0.84130 0.02700
H 	H 	0.90980 0.76480 0.86060 0.06300
C 	C 	0.94645 0.69857 0.91897 0.36200
C 	C 	0.86580 0.77986 0.76160 0.35300
C 	C 	0.96067 0.82039 0.62570 -0.06800
C 	C 	0.96074 0.79202 0.57740 0.03800
H 	H 	0.93390 0.78230 0.56120 0.05600
C 	C 	0.91839 0.83327 0.65390 0.36800
O 	O 	0.95602 0.66206 0.93931 -0.36700
O 	O 	0.95598 0.73474 0.93923 -0.37500
O 	O 	0.84211 0.77751 0.71757 -0.40200
O 	O 	0.87864 0.81466 0.78648 -0.38900
O 	O 	0.88415 0.81970 0.63076 -0.40300
O 	O 	0.92110 0.85713 0.69780 -0.40100
C 	C 	0.41807 0.19893 0.36400 -0.08400
C 	C 	0.41142 0.15960 0.33500 0.00700
H 	H 	0.42310 0.13320 0.35000 0.06400
C 	C 	0.38716 0.15984 0.28330 -0.03200
C 	C 	0.37087 0.19852 0.26150 0.00300
H 	H 	0.35380 0.19840 0.22690 0.05100
C 	C 	0.37943 0.23823 0.29020 -0.08700
C 	C 	0.40342 0.23813 0.34130 0.03500
H 	H 	0.40980 0.26480 0.36060 0.05200
C 	C 	0.44645 0.19857 0.41897 0.37200
C 	C 	0.36580 0.27986 0.26160 0.35700
C 	C 	0.46067 0.32039 0.12570 -0.09700
C 	C 	0.46074 0.29202 0.07740 0.00900
H 	H 	0.43390 0.28230 0.06120 0.05200
C 	C 	0.41839 0.33327 0.15390 0.37300
O 	O 	0.45602 0.16206 0.43931 -0.40600
O 	O 	0.45598 0.23474 0.43923 -0.41300
O 	O 	0.34211 0.27751 0.21757 -0.40700
O 	O 	0.37864 0.31466 0.28648 -0.39700
O 	O 	0.38415 0.31970 0.13076 -0.41300
O 	O 	0.42110 0.35713 0.19780 -0.41400
C 	C 	0.69893 0.91807 0.86400 -0.06500
C 	C 	0.65960 0.91142 0.83500 -0.00100
H 	H 	0.63320 0.92310 0.85000 0.07700
C 	C 	0.65984 0.88716 0.78330 -0.02000
C 	C 	0.69852 0.87087 0.76150 -0.00400
H 	H 	0.69840 0.85380 0.72690 0.05700
C 	C 	0.73823 0.87943 0.79020 -0.07500
C 	C 	0.73813 0.90342 0.84130 0.02700
H 	H 	0.76480 0.90980 0.86060 0.06300
C 	C 	0.69857 0.94645 0.91897 0.36200
C 	C 	0.77986 0.86580 0.76160 0.35300
C 	C 	0.82039 0.96067 0.62570 -0.06800
C 	C 	0.79202 0.96074 0.57740 0.03800
H 	H 	0.78230 0.93390 0.56120 0.05600
C 	C 	0.83327 0.91839 0.65390 0.36800
O 	O 	0.66206 0.95602 0.93931 -0.36700
O 	O 	0.73474 0.95598 0.93923 -0.37500
O 	O 	0.77751 0.84211 0.71757 -0.40200
O 	O 	0.81466 0.87864 0.78648 -0.38900
O 	O 	0.81970 0.88415 0.63076 -0.40300
O 	O 	0.85713 0.92110 0.69780 -0.40100
C 	C 	0.19893 0.41807 0.36400 -0.08400
C 	C 	0.15960 0.41142 0.33500 0.00700
H 	H 	0.13320 0.42310 0.35000 0.06400
C 	C 	0.15984 0.38716 0.28330 -0.03200
C 	C 	0.19852 0.37087 0.26150 0.00300
H 	H 	0.19840 0.35380 0.22690 0.05100
C 	C 	0.23823 0.37943 0.29020 -0.08700
C 	C 	0.23813 0.40342 0.34130 0.03500
H 	H 	0.26480 0.40980 0.36060 0.05200
C 	C 	0.19857 0.44645 0.41897 0.37200
C 	C 	0.27986 0.36580 0.26160 0.35700
C 	C 	0.32039 0.46067 0.12570 -0.09700
C 	C 	0.29202 0.46074 0.07740 0.00900
H 	H 	0.28230 0.43390 0.06120 0.05200
C 	C 	0.33327 0.41839 0.15390 0.37300
O 	O 	0.16206 0.45602 0.43931 -0.40600
O 	O 	0.23474 0.45598 0.43923 -0.41300
O 	O 	0.27751 0.34211 0.21757 -0.40700
O 	O 	0.31466 0.37864 0.28648 -0.39700
O 	O 	0.31970 0.38415 0.13076 -0.41300
O 	O 	0.35713 0.42110 0.19780 -0.41400
C 	C 	0.30107 0.08193 0.86400 -0.07400
C 	C 	0.34040 0.08858 0.83500 0.00200
H 	H 	0.36680 0.07690 0.85000 0.07000
C 	C 	0.34016 0.11284 0.78330 -0.02600
C 	C 	0.30148 0.12913 0.76150 -0.00200
H 	H 	0.30160 0.14620 0.72690 0.05500
C 	C 	0.26177 0.12057 0.79020 -0.08100
C 	C 	0.26187 0.09658 0.84130 0.03000
H 	H 	0.23520 0.09020 0.86060 0.05700
C 	C 	0.30143 0.05355 0.91897 0.36400
C 	C 	0.22014 0.13420 0.76160 0.35500
C 	C 	0.17961 0.03933 0.62570 -0.08900
C 	C 	0.20798 0.03926 0.57740 0.01700
H 	H 	0.21770 0.06610 0.56120 0.05900
C 	C 	0.16673 0.08161 0.65390 0.37000
O 	O 	0.33794 0.04398 0.93931 -0.38100
O 	O 	0.26526 0.04402 0.93923 -0.39000
O 	O 	0.22249 0.15789 0.71757 -0.40300
O 	O 	0.18534 0.12136 0.78648 -0.39400
O 	O 	0.18030 0.11585 0.63076 -0.40600
O 	O 	0.14287 0.07890 0.69780 -0.41400
C 	C 	0.80107 0.58193 0.36400 -0.08100
C 	C 	0.84040 0.58858 0.33500 0.00500
H 	H 	0.86680 0.57690 0.35000 0.06800
C 	C 	0.84016 0.61284 0.28330 -0.02900
C 	C 	0.80148 0.62913 0.26150 0.00100
H 	H 	0.80160 0.64620 0.22690 0.05200
C 	C 	0.76177 0.62057 0.29020 -0.08500
C 	C 	0.76187 0.59658 0.34130 0.03400
H 	H 	0.73520 0.59020 0.36060 0.05200
C 	C 	0.80143 0.55355 0.41897 0.37100
C 	C 	0.72014 0.63420 0.26160 0.35600
C 	C 	0.67961 0.53933 0.12570 -0.09700
C 	C 	0.70798 0.53926 0.07740 0.00800
H 	H 	0.71770 0.56610 0.06120 0.05200
C 	C 	0.66673 0.58161 0.15390 0.37300
O 	O 	0.83794 0.54398 0.43931 -0.40300
O 	O 	0.76526 0.54402 0.43923 -0.41200
O 	O 	0.72249 0.65789 0.21757 -0.40700
O 	O 	0.68534 0.62136 0.28648 -0.39700
O 	O 	0.68030 0.61585 0.13076 -0.41300
O 	O 	0.64287 0.57890 0.19780 -0.41400
C 	C 	0.08193 0.69893 0.86400 -0.07300
C 	C 	0.08858 0.65960 0.83500 0.00100
H 	H 	0.07690 0.63320 0.85000 0.07000
C 	C 	0.11284 0.65984 0.78330 -0.02600
C 	C 	0.12913 0.69852 0.76150 -0.00200
H 	H 	0.14620 0.69840 0.72690 0.05500
C 	C 	0.12057 0.73823 0.79020 -0.08000
C 	C 	0.09658 0.73813 0.84130 0.02900
H 	H 	0.09020 0.76480 0.86060 0.05800
C 	C 	0.05355 0.69857 0.91897 0.36400
C 	C 	0.13420 0.77986 0.76160 0.35400
C 	C 	0.03933 0.82039 0.62570 -0.08600
C 	C 	0.03926 0.79202 0.57740 0.01600
H 	H 	0.06610 0.78230 0.56120 0.05900
C 	C 	0.08161 0.83327 0.65390 0.37000
O 	O 	0.04398 0.66206 0.93931 -0.38100
O 	O 	0.04402 0.73474 0.93923 -0.38900
O 	O 	0.15789 0.77751 0.71757 -0.40300
O 	O 	0.12136 0.81466 0.78648 -0.39300
O 	O 	0.11585 0.81970 0.63076 -0.40500
O 	O 	0.07890 0.85713 0.69780 -0.41000
C 	C 	0.58193 0.19893 0.36400 -0.08400
C 	C 	0.58858 0.15960 0.33500 0.00700
H 	H 	0.57690 0.13320 0.35000 0.06400
C 	C 	0.61284 0.15984 0.28330 -0.03200
C 	C 	0.62913 0.19852 0.26150 0.00300
H 	H 	0.64620 0.19840 0.22690 0.05100
C 	C 	0.62057 0.23823 0.29020 -0.08700
C 	C 	0.59658 0.23813 0.34130 0.03500
H 	H 	0.59020 0.26480 0.36060 0.05200
C 	C 	0.55355 0.19857 0.41897 0.37200
C 	C 	0.63420 0.27986 0.26160 0.35700
C 	C 	0.53933 0.32039 0.12570 -0.09700
C 	C 	0.53926 0.29202 0.07740 0.00900
H 	H 	0.56610 0.28230 0.06120 0.05200
C 	C 	0.58161 0.33327 0.15390 0.37300
O 	O 	0.54398 0.16206 0.43931 -0.40600
O 	O 	0.54402 0.23474 0.43923 -0.41300
O 	O 	0.65789 0.27751 0.21757 -0.40700
O 	O 	0.62136 0.31466 0.28648 -0.39700
O 	O 	0.61585 0.31970 0.13076 -0.41300
O 	O 	0.57890 0.35713 0.19780 -0.41400
C 	C 	0.91807 0.30107 0.86400 -0.06600
C 	C 	0.91142 0.34040 0.83500 -0.00000
H 	H 	0.92310 0.36680 0.85000 0.07600
C 	C 	0.88716 0.34016 0.78330 -0.02000
C 	C 	0.87087 0.30148 0.76150 -0.00400
H 	H 	0.85380 0.30160 0.72690 0.05600
C 	C 	0.87943 0.26177 0.79020 -0.07600
C 	C 	0.90342 0.26187 0.84130 0.02800
H 	H 	0.90980 0.23520 0.86060 0.06200
C 	C 	0.94645 0.30143 0.91897 0.36300
C 	C 	0.86580 0.22014 0.76160 0.35400
C 	C 	0.96067 0.17961 0.62570 -0.07000
C 	C 	0.96074 0.20798 0.57740 0.03800
H 	H 	0.93390 0.21770 0.56120 0.05500
C 	C 	0.91839 0.16673 0.65390 0.36800
O 	O 	0.95602 0.33794 0.93931 -0.36600
O 	O 	0.95598 0.26526 0.93923 -0.37600
O 	O 	0.84211 0.22249 0.71757 -0.40200
O 	O 	0.87864 0.18534 0.78648 -0.39000
O 	O 	0.88415 0.18030 0.63076 -0.40400
O 	O 	0.92110 0.14287 0.69780 -0.40400
C 	C 	0.41807 0.80107 0.36400 -0.08100
C 	C 	0.41142 0.84040 0.33500 0.00500
H 	H 	0.42310 0.86680 0.35000 0.06800
C 	C 	0.38716 0.84016 0.28330 -0.02900
C 	C 	0.37087 0.80148 0.26150 0.00100
H 	H 	0.35380 0.80160 0.22690 0.05200
C 	C 	0.37943 0.76177 0.29020 -0.08500
C 	C 	0.40342 0.76187 0.34130 0.03400
H 	H 	0.40980 0.73520 0.36060 0.05200
C 	C 	0.44645 0.80143 0.41897 0.37100
C 	C 	0.36580 0.72014 0.26160 0.35600
C 	C 	0.46067 0.67961 0.12570 -0.09700
C 	C 	0.46074 0.70798 0.07740 0.00800
H 	H 	0.43390 0.71770 0.06120 0.05200
C 	C 	0.41839 0.66673 0.15390 0.37300
O 	O 	0.45602 0.83794 0.43931 -0.40300
O 	O 	0.45598 0.76526 0.43923 -0.41200
O 	O 	0.34211 0.72249 0.21757 -0.40700
O 	O 	0.37864 0.68534 0.28648 -0.39700
O 	O 	0.38415 0.68030 0.13076 -0.41300
O 	O 	0.42110 0.64287 0.19780 -0.41400
C 	C 	0.30107 0.91807 0.13600 -0.08500
C 	C 	0.34040 0.91142 0.16500 0.00700
H 	H 	0.36680 0.92310 0.15000 0.06600
C 	C 	0.34016 0.88716 0.21670 -0.02900
C 	C 	0.30148 0.87087 0.23850 0.00200
H 	H 	0.30160 0.85380 0.27310 0.05400
C 	C 	0.26177 0.87943 0.20980 -0.08700
C 	C 	0.26187 0.90342 0.15870 0.03500
H 	H 	0.23520 0.90980 0.13940 0.04900
C 	C 	0.30143 0.94645 0.08103 0.37200
C 	C 	0.22014 0.86580 0.23840 0.35600
C 	C 	0.17961 0.96067 0.37430 -0.07200
C 	C 	0.20798 0.96074 0.42260 0.03900
H 	H 	0.21770 0.93390 0.43880 0.05500
C 	C 	0.16673 0.91839 0.34610 0.36900
O 	O 	0.33794 0.95602 0.06069 -0.40700
O 	O 	0.26526 0.95598 0.06077 -0.41600
O 	O 	0.22249 0.84211 0.28243 -0.40500
O 	O 	0.18534 0.87864 0.21352 -0.39900
O 	O 	0.18030 0.88415 0.36924 -0.40400
O 	O 	0.14287 0.92110 0.30220 -0.40800
C 	C 	0.80107 0.41807 0.63600 -0.07900
C 	C 	0.84040 0.41142 0.66500 0.00300
H 	H 	0.86680 0.42310 0.65000 0.07000
C 	C 	0.84016 0.38716 0.71670 -0.02400
C 	C 	0.80148 0.37087 0.73850 -0.00200
H 	H 	0.80160 0.35380 0.77310 0.05800
C 	C 	0.76177 0.37943 0.70980 -0.08200
C 	C 	0.76187 0.40342 0.65870 0.03200
H 	H 	0.73520 0.40980 0.63940 0.05300
C 	C 	0.80143 0.44645 0.58103 0.37000
C 	C 	0.72014 0.36580 0.73840 0.35400
C 	C 	0.67961 0.46067 0.87430 -0.06700
C 	C 	0.70798 0.46074 0.92260 -0.02000
H 	H 	0.71770 0.43390 0.93880 0.08900
C 	C 	0.66673 0.41839 0.84610 0.36600
O 	O 	0.83794 0.45602 0.56069 -0.40200
O 	O 	0.76526 0.45598 0.56077 -0.41200
O 	O 	0.72249 0.34211 0.78243 -0.40100
O 	O 	0.68534 0.37864 0.71352 -0.39600
O 	O 	0.68030 0.38415 0.86924 -0.39500
O 	O 	0.64287 0.42110 0.80220 -0.40800
C 	C 	0.69893 0.08193 0.13600 -0.09300
C 	C 	0.65960 0.08858 0.16500 0.00900
H 	H 	0.63320 0.07690 0.15000 0.05900
C 	C 	0.65984 0.11284 0.21670 -0.03500
C 	C 	0.69852 0.12913 0.23850 0.00300
H 	H 	0.69840 0.14620 0.27310 0.05200
C 	C 	0.73823 0.12057 0.20980 -0.09100
C 	C 	0.73813 0.09658 0.15870 0.03700
H 	H 	0.76480 0.09020 0.13940 0.04500
C 	C 	0.69857 0.05355 0.08103 0.37300
C 	C 	0.77986 0.13420 0.23840 0.35700
C 	C 	0.82039 0.03933 0.37430 -0.08800
C 	C 	0.79202 0.03926 0.42260 0.01700
H 	H 	0.78230 0.06610 0.43880 0.05900
C 	C 	0.83327 0.08161 0.34610 0.37100
O 	O 	0.66206 0.04398 0.06069 -0.42300
O 	O 	0.73474 0.04402 0.06077 -0.43100
O 	O 	0.77751 0.15789 0.28243 -0.40500
O 	O 	0.81466 0.12136 0.21352 -0.40100
O 	O 	0.81970 0.11585 0.36924 -0.40500
O 	O 	0.85713 0.07890 0.30220 -0.41400
C 	C 	0.19893 0.58193 0.63600 -0.08200
C 	C 	0.15960 0.58858 0.66500 0.00500
H 	H 	0.13320 0.57690 0.65000 0.06500
C 	C 	0.15984 0.61284 0.71670 -0.02800
C 	C 	0.19852 0.62913 0.73850 0.00000
H 	H 	0.19840 0.64620 0.77310 0.05700
C 	C 	0.23823 0.62057 0.70980 -0.08300
C 	C 	0.23813 0.59658 0.65870 0.03300
H 	H 	0.26480 0.59020 0.63940 0.05300
C 	C 	0.19857 0.55355 0.58103 0.37200
C 	C 	0.27986 0.63420 0.73840 0.35500
C 	C 	0.32039 0.53933 0.87430 -0.06600
C 	C 	0.29202 0.53926 0.92260 -0.02000
H 	H 	0.28230 0.56610 0.93880 0.08900
C 	C 	0.33327 0.58161 0.84610 0.36600
O 	O 	0.16206 0.54398 0.56069 -0.40600
O 	O 	0.23474 0.54402 0.56077 -0.41200
O 	O 	0.27751 0.65789 0.78243 -0.40100
O 	O 	0.31466 0.62136 0.71352 -0.39600
O 	O 	0.31970 0.61585 0.86924 -0.39500
O 	O 	0.35713 0.57890 0.80220 -0.40800
C 	C 	0.91807 0.69893 0.13600 -0.08400
C 	C 	0.91142 0.65960 0.16500 0.00600
H 	H 	0.92310 0.63320 0.15000 0.06600
C 	C 	0.88716 0.65984 0.21670 -0.02900
C 	C 	0.87087 0.69852 0.23850 0.00100
H 	H 	0.85380 0.69840 0.27310 0.05400
C 	C 	0.87943 0.73823 0.20980 -0.08600
C 	C 	0.90342 0.73813 0.15870 0.03500
H 	H 	0.90980 0.76480 0.13940 0.05000
C 	C 	0.94645 0.69857 0.08103 0.37200
C 	C 	0.86580 0.77986 0.23840 0.35600
C 	C 	0.96067 0.82039 0.37430 -0.06900
C 	C 	0.96074 0.79202 0.42260 0.03900
H 	H 	0.93390 0.78230 0.43880 0.05500
C 	C 	0.91839 0.83327 0.34610 0.36900
O 	O 	0.95602 0.66206 0.06069 -0.40700
O 	O 	0.95598 0.73474 0.06077 -0.41500
O 	O 	0.84211 0.77751 0.28243 -0.40400
O 	O 	0.87864 0.81466 0.21352 -0.39700
O 	O 	0.88415 0.81970 0.36924 -0.40300
O 	O 	0.92110 0.85713 0.30220 -0.40400
C 	C 	0.41807 0.19893 0.63600 -0.08200
C 	C 	0.41142 0.15960 0.66500 0.00500
H 	H 	0.42310 0.13320 0.65000 0.06500
C 	C 	0.38716 0.15984 0.71670 -0.02800
C 	C 	0.37087 0.19852 0.73850 0.00000
H 	H 	0.35380 0.19840 0.77310 0.05700
C 	C 	0.37943 0.23823 0.70980 -0.08300
C 	C 	0.40342 0.23813 0.65870 0.03300
H 	H 	0.40980 0.26480 0.63940 0.05300
C 	C 	0.44645 0.19857 0.58103 0.37200
C 	C 	0.36580 0.27986 0.73840 0.35500
C 	C 	0.46067 0.32039 0.87430 -0.06600
C 	C 	0.46074 0.29202 0.92260 -0.02000
H 	H 	0.43390 0.28230 0.93880 0.08900
C 	C 	0.41839 0.33327 0.84610 0.36600
O 	O 	0.45602 0.16206 0.56069 -0.40600
O 	O 	0.45598 0.23474 0.56077 -0.41200
O 	O 	0.34211 0.27751 0.78243 -0.40100
O 	O 	0.37864 0.31466 0.71352 -0.39600
O 	O 	0.38415 0.31970 0.86924 -0.39500
O 	O 	0.42110 0.35713 0.80220 -0.40800
C 	C 	0.08193 0.30107 0.13600 -0.09300
C 	C 	0.08858 0.34040 0.16500 0.00900
H 	H 	0.07690 0.36680 0.15000 0.05900
C 	C 	0.11284 0.34016 0.21670 -0.03600
C 	C 	0.12913 0.30148 0.23850 0.00400
H 	H 	0.14620 0.30160 0.27310 0.05200
C 	C 	0.12057 0.26177 0.20980 -0.09200
C 	C 	0.09658 0.26187 0.15870 0.03800
H 	H 	0.09020 0.23520 0.13940 0.04400
C 	C 	0.05355 0.30143 0.08103 0.37300
C 	C 	0.13420 0.22014 0.23840 0.35700
C 	C 	0.03933 0.17961 0.37430 -0.09100
C 	C 	0.03926 0.20798 0.42260 0.01800
H 	H 	0.06610 0.21770 0.43880 0.05800
C 	C 	0.08161 0.16673 0.34610 0.37200
O 	O 	0.04398 0.33794 0.06069 -0.42400
O 	O 	0.04402 0.26526 0.06077 -0.43300
O 	O 	0.15789 0.22249 0.28243 -0.40600
O 	O 	0.12136 0.18534 0.21352 -0.40300
O 	O 	0.11585 0.18030 0.36924 -0.40600
O 	O 	0.07890 0.14287 0.30220 -0.41700
C 	C 	0.58193 0.80107 0.63600 -0.07900
C 	C 	0.58858 0.84040 0.66500 0.00300
H 	H 	0.57690 0.86680 0.65000 0.07000
C 	C 	0.61284 0.84016 0.71670 -0.02400
C 	C 	0.62913 0.80148 0.73850 -0.00200
H 	H 	0.64620 0.80160 0.77310 0.05800
C 	C 	0.62057 0.76177 0.70980 -0.08200
C 	C 	0.59658 0.76187 0.65870 0.03200
H 	H 	0.59020 0.73520 0.63940 0.05300
C 	C 	0.55355 0.80143 0.58103 0.37000
C 	C 	0.63420 0.72014 0.73840 0.35400
C 	C 	0.53933 0.67961 0.87430 -0.06700
C 	C 	0.53926 0.70798 0.92260 -0.02000
H 	H 	0.56610 0.71770 0.93880 0.08900
C 	C 	0.58161 0.66673 0.84610 0.36600
O 	O 	0.54398 0.83794 0.56069 -0.40200
O 	O 	0.54402 0.76526 0.56077 -0.41200
O 	O 	0.65789 0.72249 0.78243 -0.40100
O 	O 	0.62136 0.68534 0.71352 -0.39600
O 	O 	0.61585 0.68030 0.86924 -0.39600
O 	O 	0.57890 0.64287 0.80220 -0.40800
Cu	Cu	0.34514 0.00000 -0.00000 0.87800
Cu	Cu	0.25826 0.00000 -0.00000 0.87400
Cu	Cu	0.84514 0.50000 0.50000 0.91300
Cu	Cu	0.75826 0.50000 0.50000 0.90800
Cu	Cu	0.65486 0.00000 -0.00000 0.87800
Cu	Cu	0.74174 0.00000 -0.00000 0.87500
Cu	Cu	0.15486 0.50000 0.50000 0.91100
Cu	Cu	0.24174 0.50000 0.50000 0.90900
Cu	Cu	-0.00000 0.34514 -0.00000 0.87800
Cu	Cu	0.00000 0.25826 -0.00000 0.87400
Cu	Cu	0.50000 0.84514 0.50000 0.91300
Cu	Cu	0.50000 0.75826 0.50000 0.90800
Cu	Cu	0.00000 0.65486 -0.00000 0.87800
Cu	Cu	-0.00000 0.74174 -0.00000 0.87500
Cu	Cu	0.50000 0.15486 0.50000 0.91100
Cu	Cu	0.50000 0.24174 0.50000 0.90900
Cu	Cu	0.17274 0.17274 0.33196 0.90900
Cu	Cu	0.12843 0.12843 0.25204 0.90200
Cu	Cu	0.67274 0.67274 0.83196 0.91100
Cu	Cu	0.62843 0.62843 0.75204 0.90500
Cu	Cu	0.82726 0.82726 0.33196 0.90900
Cu	Cu	0.87157 0.87157 0.25204 0.90500
Cu	Cu	0.32726 0.32726 0.83196 0.91100
Cu	Cu	0.37157 0.37157 0.75204 0.90500
Cu	Cu	0.82726 0.17274 0.33196 0.90900
Cu	Cu	0.87157 0.12843 0.25204 0.90400
Cu	Cu	0.32726 0.67274 0.83196 0.91100
Cu	Cu	0.37157 0.62843 0.75204 0.90500
Cu	Cu	0.17274 0.82726 0.33196 0.90900
Cu	Cu	0.12843 0.87157 0.25204 0.90400
Cu	Cu	0.67274 0.32726 0.83196 0.91100
Cu	Cu	0.62843 0.37157 0.75204 0.90500
Cu	Cu	0.82726 0.17274 0.66804 0.90800
Cu	Cu	0.87157 0.12843 0.74796 0.90600
Cu	Cu	0.32726 0.67274 0.16804 0.90600
Cu	Cu	0.37157 0.62843 0.24796 0.90500
Cu	Cu	0.17274 0.82726 0.66804 0.90800
Cu	Cu	0.12843 0.87157 0.74796 0.90600
Cu	Cu	0.67274 0.32726 0.16804 0.90600
Cu	Cu	0.62843 0.37157 0.24796 0.90500
Cu	Cu	0.17274 0.17274 0.66804 0.90800
Cu	Cu	0.12843 0.12843 0.74796 0.90500
Cu	Cu	0.67274 0.67274 0.16804 0.90600
Cu	Cu	0.62843 0.62843 0.24796 0.90500
Cu	Cu	0.82726 0.82726 0.66804 0.90800
Cu	Cu	0.87157 0.87157 0.74796 0.90800
Cu	Cu	0.32726 0.32726 0.16804 0.90600
Cu	Cu	0.37157 0.37157 0.24796 0.90500
C 	C 	0.38190 0.11810 0.25000 0.14400
O 	O 	0.40993 0.09007 0.25000 -0.18900
C 	C 	0.61810 0.88190 0.25000 0.14200
O 	O 	0.59007 0.90993 0.25000 -0.17900
C 	C 	0.88190 0.38190 0.25000 0.14200
O 	O 	0.90993 0.40993 0.25000 -0.17900
C 	C 	0.11810 0.61810 0.25000 0.14400
O 	O 	0.09007 0.59007 0.25000 -0.18900
C 	C 	0.61810 0.11810 0.75000 0.14200
O 	O 	0.59007 0.09007 0.75000 -0.18300
C 	C 	0.38190 0.88190 0.75000 0.14000
O 	O 	0.40993 0.90993 0.75000 -0.17300
C 	C 	0.11810 0.38190 0.75000 0.14200
O 	O 	0.09007 0.40993 0.75000 -0.18300
C 	C 	0.88190 0.61810 0.75000 0.14000
O 	O 	0.90993 0.59007 0.75000 -0.17300
C 	C 	0.61810 0.88190 0.75000 0.14000
O 	O 	0.59007 0.90993 0.75000 -0.17300
C 	C 	0.11810 0.38190 0.25000 0.14400
O 	O 	0.09007 0.40993 0.25000 -0.18900
C 	C 	0.38190 0.11810 0.75000 0.14200
O 	O 	0.40993 0.09007 0.75000 -0.18300
C 	C 	0.11810 0.61810 0.75000 0.14200
O 	O 	0.09007 0.59007 0.75000 -0.18300
C 	C 	0.88190 0.38190 0.75000 0.14000
O 	O 	0.90993 0.40993 0.75000 -0.17300
C 	C 	0.38190 0.88190 0.25000 0.14200
O 	O 	0.40993 0.90993 0.25000 -0.17900
C 	C 	0.61810 0.11810 0.25000 0.14400
O 	O 	0.59007 0.09007 0.25000 -0.18900
C 	C 	0.88190 0.61810 0.25000 0.14200
O 	O 	0.90993 0.59007 0.25000 -0.17900
C 	C 	0.22180 0.00000 0.44660 -0.05900
C 	C 	0.16550 -0.00000 0.35040 0.01000
H 	H 	0.14640 0.00000 0.31790 0.05000
C 	C 	0.72180 0.50000 0.94660 0.04600
C 	C 	0.66550 0.50000 0.85040 0.02300
H 	H 	0.64640 0.50000 0.81790 0.05800
C 	C 	0.77820 0.00000 0.44660 -0.05700
C 	C 	0.83450 -0.00000 0.35040 0.00900
H 	H 	0.85360 0.00000 0.31790 0.05400
C 	C 	0.27820 0.50000 0.94660 0.04600
C 	C 	0.33450 0.50000 0.85040 0.02300
H 	H 	0.35360 0.50000 0.81790 0.05800
C 	C 	-0.00000 0.22180 0.44660 -0.05900
C 	C 	-0.00000 0.16550 0.35040 0.01000
H 	H 	0.00000 0.14640 0.31790 0.05000
C 	C 	0.50000 0.72180 0.94660 0.04600
C 	C 	0.50000 0.66550 0.85040 0.02300
H 	H 	0.50000 0.64640 0.81790 0.05800
C 	C 	0.00000 0.77820 0.44660 -0.05700
C 	C 	-0.00000 0.83450 0.35040 0.00900
H 	H 	0.00000 0.85360 0.31790 0.05400
C 	C 	0.50000 0.27820 0.94660 0.04600
C 	C 	0.50000 0.33450 0.85040 0.02300
H 	H 	0.50000 0.35360 0.81790 0.05800
C 	C 	0.77820 0.00000 0.55340 -0.05700
C 	C 	0.83450 0.00000 0.64960 0.00800
H 	H 	0.85360 0.00000 0.68210 0.05700
C 	C 	0.27820 0.50000 0.05340 -0.03400
C 	C 	0.33450 0.50000 0.14960 0.04000
H 	H 	0.35360 0.50000 0.18210 0.04900
C 	C 	0.22180 0.00000 0.55340 -0.05800
C 	C 	0.16550 0.00000 0.64960 0.00900
H 	H 	0.14640 0.00000 0.68210 0.05300
C 	C 	0.72180 0.50000 0.05340 -0.03400
C 	C 	0.66550 0.50000 0.14960 0.04000
H 	H 	0.64640 0.50000 0.18210 0.04900
C 	C 	0.00000 0.22180 0.55340 -0.05800
C 	C 	0.00000 0.16550 0.64960 0.00900
H 	H 	0.00000 0.14640 0.68210 0.05300
C 	C 	0.50000 0.72180 0.05340 -0.03400
C 	C 	0.50000 0.66550 0.14960 0.04000
H 	H 	0.50000 0.64640 0.18210 0.04900
C 	C 	0.00000 0.77820 0.55340 -0.05700
C 	C 	-0.00000 0.83450 0.64960 0.00800
H 	H 	-0.00000 0.85360 0.68210 0.05700
C 	C 	0.50000 0.27820 0.05340 -0.03400
C 	C 	0.50000 0.33450 0.14960 0.04000
H 	H 	0.50000 0.35360 0.18210 0.04900
C 	C 	0.25240 0.00000 0.50000 0.19600
C 	C 	0.75240 0.50000 -0.00000 0.15400
C 	C 	0.74760 0.00000 0.50000 0.19600
C 	C 	0.24760 0.50000 -0.00000 0.15400
C 	C 	0.00000 0.25240 0.50000 0.19600
C 	C 	0.50000 0.75240 -0.00000 0.15400
C 	C 	0.00000 0.74760 0.50000 0.19600
C 	C 	0.50000 0.24760 -0.00000 0.15400
O 	O 	0.27740 0.03760 0.50000 -0.17800
O 	O 	0.77740 0.53760 -0.00000 -0.18900
O 	O 	0.72260 0.96240 0.50000 -0.15700
O 	O 	0.22260 0.46240 -0.00000 -0.19100
O 	O 	0.96240 0.27740 0.50000 -0.15700
O 	O 	0.46240 0.77740 -0.00000 -0.18900
O 	O 	0.03760 0.72260 0.50000 -0.17800
O 	O 	0.53760 0.22260 -0.00000 -0.19100
O 	O 	0.72260 0.03760 0.50000 -0.17800
O 	O 	0.22260 0.53760 -0.00000 -0.19100
O 	O 	0.27740 0.96240 0.50000 -0.15700
O 	O 	0.77740 0.46240 -0.00000 -0.18900
O 	O 	0.03760 0.27740 0.50000 -0.17800
O 	O 	0.53760 0.77740 -0.00000 -0.18900
O 	O 	0.96240 0.72260 0.50000 -0.15700
O 	O 	0.46240 0.22260 -0.00000 -0.19100
