data_crystal

_cell_length_a 20.64940
_cell_length_b 35.26100
_cell_length_c 10.13180
_cell_angle_alpha 90.00000
_cell_angle_beta  115.00400
_cell_angle_gamma 90.00000

_symmetry_space_group_name_	'P 1'
_symmetry_space_group_name_H-M	'P 1'

loop_
_symmetry_equiv_pos_as_xyz
  x,y,z

loop_
_atom_site_label
_atom_site_type_symbol
_atom_site_fract_x
_atom_site_fract_y
_atom_site_fract_z
_atom_site_charge
Sm	Sm	0.63698 0.47008 0.97796 2.38600
Sm	Sm	0.75699 0.30803 0.01054 2.35600
S 	S 	0.84478 0.24701 0.32068 0.92400
S 	S 	0.70721 0.39034 0.01999 0.67200
S 	S 	0.55789 0.53542 0.13942 0.83000
S 	S 	0.86733 0.23292 0.94329 0.88300
S 	S 	0.75398 0.52691 0.87344 0.93100
S 	S 	0.90358 0.34439 0.04318 0.66200
O 	O 	0.79969 0.28064 0.25170 -0.51800
O 	O 	0.81543 0.25314 0.98690 -0.70900
O 	O 	0.58504 0.52804 0.02850 -0.48100
O 	O 	0.85010 0.19246 0.94480 -0.47200
O 	O 	0.73954 0.42673 0.00450 -0.40100
O 	O 	0.91712 0.25366 0.32990 -0.48600
O 	O 	0.60020 0.56533 0.24160 -0.46200
O 	O 	0.89330 0.32447 0.16490 -0.53900
O 	O 	0.93996 0.24000 0.05460 -0.48800
O 	O 	0.56510 0.50130 0.22910 -0.51000
O 	O 	0.75819 0.36847 0.14520 -0.39500
O 	O 	0.84800 0.24236 0.46600 -0.24200
O 	O 	0.83656 0.33821 0.91200 -0.42300
O 	O 	0.64195 0.40127 0.03690 -0.42100
O 	O 	0.48295 0.54808 0.06330 -0.51300
O 	O 	0.81450 0.21259 0.23360 -0.52800
O 	O 	0.68985 0.36559 0.89230 -0.42800
O 	O 	0.96549 0.32524 0.03690 -0.36600
O 	O 	0.86030 0.24494 0.80190 -0.26800
O 	O 	0.91640 0.38465 0.07370 -0.19300
O 	O 	0.71400 0.51495 0.95740 -0.55100
O 	O 	0.71000 0.51897 0.71990 -0.58700
O 	O 	0.77150 0.56645 0.89490 -0.28100
O 	O 	0.81900 0.50420 0.92190 -0.25400
Sm	Sm	0.13698 0.97008 0.97796 2.36700
Sm	Sm	0.25699 0.80803 0.01054 2.35600
S 	S 	0.34478 0.74701 0.32068 0.94100
S 	S 	0.20721 0.89034 0.01999 0.67600
S 	S 	0.05789 0.03542 0.13942 0.72800
S 	S 	0.36733 0.73292 0.94329 0.90100
S 	S 	0.25398 0.02691 0.87344 0.93100
S 	S 	0.40358 0.84439 0.04318 0.67300
O 	O 	0.29969 0.78064 0.25170 -0.52800
O 	O 	0.31543 0.75314 0.98690 -0.71700
O 	O 	0.08504 0.02804 0.02850 -0.47800
O 	O 	0.35010 0.69246 0.94480 -0.48600
O 	O 	0.23954 0.92673 0.00450 -0.40400
O 	O 	0.41712 0.75366 0.32990 -0.54700
O 	O 	0.10020 0.06533 0.24160 -0.45600
O 	O 	0.39330 0.82447 0.16490 -0.58000
O 	O 	0.43996 0.74000 0.05460 -0.55100
O 	O 	0.06510 0.00130 0.22910 -0.51200
O 	O 	0.25819 0.86847 0.14520 -0.40200
O 	O 	0.34800 0.74236 0.46600 -0.26200
O 	O 	0.33656 0.83821 0.91200 -0.43300
O 	O 	0.14195 0.90127 0.03690 -0.42900
O 	O 	0.98295 0.04808 0.06330 -0.43800
O 	O 	0.31450 0.71259 0.23360 -0.53900
O 	O 	0.18985 0.86559 0.89230 -0.43800
O 	O 	0.46549 0.82524 0.03690 -0.42700
O 	O 	0.36030 0.74494 0.80190 -0.28600
O 	O 	0.41640 0.88465 0.07370 -0.22200
O 	O 	0.21400 0.01495 0.95740 -0.55300
O 	O 	0.21000 0.01897 0.71990 -0.58800
O 	O 	0.27150 0.06645 0.89490 -0.29200
O 	O 	0.31900 0.00420 0.92190 -0.26800
Sm	Sm	0.36302 0.47008 0.52204 2.39000
Sm	Sm	0.24301 0.30803 0.48946 2.34500
S 	S 	0.15522 0.24701 0.17932 0.93300
S 	S 	0.29279 0.39034 0.48001 0.67100
S 	S 	0.44211 0.53542 0.36058 0.83000
S 	S 	0.13267 0.23292 0.55671 0.90000
S 	S 	0.24602 0.52691 0.62656 0.93700
S 	S 	0.09642 0.34439 0.45682 0.67000
O 	O 	0.20031 0.28064 0.24830 -0.52600
O 	O 	0.18457 0.25314 0.51310 -0.71100
O 	O 	0.41496 0.52804 0.47150 -0.48400
O 	O 	0.14990 0.19246 0.55520 -0.49400
O 	O 	0.26046 0.42673 0.49550 -0.41000
O 	O 	0.08288 0.25366 0.17010 -0.54800
O 	O 	0.39980 0.56533 0.25840 -0.46300
O 	O 	0.10670 0.32447 0.33510 -0.57400
O 	O 	0.06004 0.24000 0.44540 -0.55600
O 	O 	0.43490 0.50130 0.27090 -0.51100
O 	O 	0.24181 0.36847 0.35480 -0.40300
O 	O 	0.15200 0.24236 0.03400 -0.27000
O 	O 	0.16344 0.33821 0.58800 -0.43200
O 	O 	0.35805 0.40127 0.46310 -0.42300
O 	O 	0.51705 0.54808 0.43670 -0.51400
O 	O 	0.18550 0.21259 0.26640 -0.54200
O 	O 	0.31015 0.36559 0.60770 -0.42700
O 	O 	0.03451 0.32524 0.46310 -0.44100
O 	O 	0.13970 0.24494 0.69810 -0.29600
O 	O 	0.08360 0.38465 0.42630 -0.24600
O 	O 	0.28600 0.51495 0.54260 -0.55600
O 	O 	0.29000 0.51897 0.78010 -0.59400
O 	O 	0.22850 0.56645 0.60510 -0.29800
O 	O 	0.18100 0.50420 0.57810 -0.28300
Sm	Sm	0.86302 0.97008 0.52204 2.40500
Sm	Sm	0.74301 0.80803 0.48946 2.35000
S 	S 	0.65522 0.74701 0.17932 0.94100
S 	S 	0.79279 0.89034 0.48001 0.66800
S 	S 	0.94211 0.03542 0.36058 0.93400
S 	S 	0.63267 0.73292 0.55671 0.90500
S 	S 	0.74602 0.02691 0.62656 0.93600
S 	S 	0.59642 0.84439 0.45682 0.66800
O 	O 	0.70031 0.78064 0.24830 -0.52600
O 	O 	0.68457 0.75314 0.51310 -0.71600
O 	O 	0.91496 0.02804 0.47150 -0.48600
O 	O 	0.64990 0.69246 0.55520 -0.48600
O 	O 	0.76046 0.92673 0.49550 -0.40700
O 	O 	0.58288 0.75366 0.17010 -0.54600
O 	O 	0.89980 0.06533 0.25840 -0.46800
O 	O 	0.60670 0.82447 0.33510 -0.57900
O 	O 	0.56004 0.74000 0.44540 -0.55400
O 	O 	0.93490 0.00130 0.27090 -0.50800
O 	O 	0.74181 0.86847 0.35480 -0.39800
O 	O 	0.65200 0.74236 0.03400 -0.25800
O 	O 	0.66344 0.83821 0.58800 -0.42700
O 	O 	0.85805 0.90127 0.46310 -0.41200
O 	O 	0.01705 0.04808 0.43670 -0.58900
O 	O 	0.68550 0.71259 0.26640 -0.53900
O 	O 	0.81015 0.86559 0.60770 -0.41900
O 	O 	0.53451 0.82524 0.46310 -0.42700
O 	O 	0.63970 0.74494 0.69810 -0.28600
O 	O 	0.58360 0.88465 0.42630 -0.22200
O 	O 	0.78600 0.01495 0.54260 -0.55400
O 	O 	0.79000 0.01897 0.78010 -0.59300
O 	O 	0.72850 0.06645 0.60510 -0.28800
O 	O 	0.68100 0.00420 0.57810 -0.26900
Sm	Sm	0.36302 0.52992 0.02204 2.40000
Sm	Sm	0.24301 0.69197 0.98946 2.33500
S 	S 	0.15522 0.75299 0.67932 0.93400
S 	S 	0.29279 0.60966 0.98001 0.66600
S 	S 	0.44211 0.46458 0.86058 0.83100
S 	S 	0.13267 0.76708 0.05671 0.90500
S 	S 	0.24602 0.47309 0.12656 0.93600
S 	S 	0.09642 0.65561 0.95682 0.66500
O 	O 	0.20031 0.71936 0.74830 -0.52600
O 	O 	0.18457 0.74686 0.01310 -0.70900
O 	O 	0.41496 0.47196 0.97150 -0.48700
O 	O 	0.14990 0.80754 0.05520 -0.49400
O 	O 	0.26046 0.57327 0.99550 -0.41200
O 	O 	0.08288 0.74634 0.67010 -0.54900
O 	O 	0.39980 0.43467 0.75840 -0.46300
O 	O 	0.10670 0.67553 0.83510 -0.57300
O 	O 	0.06004 0.76000 0.94540 -0.55900
O 	O 	0.43490 0.49870 0.77090 -0.51100
O 	O 	0.24181 0.63153 0.85480 -0.40300
O 	O 	0.15200 0.75764 0.53400 -0.27200
O 	O 	0.16344 0.66179 0.08800 -0.42600
O 	O 	0.35805 0.59873 0.96310 -0.42400
O 	O 	0.51705 0.45192 0.93670 -0.51400
O 	O 	0.18550 0.78741 0.76640 -0.54500
O 	O 	0.31015 0.63441 0.10770 -0.42200
O 	O 	0.03451 0.67476 0.96310 -0.44100
O 	O 	0.13970 0.75506 0.19810 -0.29500
O 	O 	0.08360 0.61535 0.92630 -0.24600
O 	O 	0.28600 0.48505 0.04260 -0.55500
O 	O 	0.29000 0.48103 0.28010 -0.59200
O 	O 	0.22850 0.43355 0.10510 -0.29700
O 	O 	0.18100 0.49580 0.07810 -0.28100
Sm	Sm	0.86302 0.02992 0.02204 2.41100
Sm	Sm	0.74301 0.19197 0.98946 2.34200
S 	S 	0.65522 0.25299 0.67932 0.94100
S 	S 	0.79279 0.10966 0.98001 0.66400
S 	S 	0.94211 0.96458 0.86058 0.93500
S 	S 	0.63267 0.26708 0.05671 0.90800
S 	S 	0.74602 0.97309 0.12656 0.93500
S 	S 	0.59642 0.15561 0.95682 0.66500
O 	O 	0.70031 0.21936 0.74830 -0.52500
O 	O 	0.68457 0.24686 0.01310 -0.71500
O 	O 	0.91496 0.97196 0.97150 -0.48800
O 	O 	0.64990 0.30754 0.05520 -0.48600
O 	O 	0.76046 0.07327 0.99550 -0.40800
O 	O 	0.58288 0.24634 0.67010 -0.54700
O 	O 	0.89980 0.93467 0.75840 -0.46900
O 	O 	0.60670 0.17553 0.83510 -0.57800
O 	O 	0.56004 0.26000 0.94540 -0.55600
O 	O 	0.93490 0.99870 0.77090 -0.50800
O 	O 	0.74181 0.13153 0.85480 -0.39700
O 	O 	0.65200 0.25764 0.53400 -0.25900
O 	O 	0.66344 0.16179 0.08800 -0.42300
O 	O 	0.85805 0.09873 0.96310 -0.41400
O 	O 	0.01705 0.95192 0.93670 -0.59100
O 	O 	0.68550 0.28741 0.76640 -0.54100
O 	O 	0.81015 0.13441 0.10770 -0.41500
O 	O 	0.53451 0.17476 0.96310 -0.42700
O 	O 	0.63970 0.25506 0.19810 -0.28500
O 	O 	0.58360 0.11535 0.92630 -0.22200
O 	O 	0.78600 0.98505 0.04260 -0.55300
O 	O 	0.79000 0.98103 0.28010 -0.59100
O 	O 	0.72850 0.93355 0.10510 -0.28700
O 	O 	0.68100 0.99580 0.07810 -0.26800
Sm	Sm	0.63698 0.52992 0.47796 2.39200
Sm	Sm	0.75699 0.69197 0.51054 2.34900
S 	S 	0.84478 0.75299 0.82068 0.92300
S 	S 	0.70721 0.60966 0.51999 0.66800
S 	S 	0.55789 0.46458 0.63942 0.83100
S 	S 	0.86733 0.76708 0.44329 0.88700
S 	S 	0.75398 0.47309 0.37344 0.93000
S 	S 	0.90358 0.65561 0.54318 0.65800
O 	O 	0.79969 0.71936 0.75170 -0.51800
O 	O 	0.81543 0.74686 0.48690 -0.70700
O 	O 	0.58504 0.47196 0.52850 -0.48300
O 	O 	0.85010 0.80754 0.44480 -0.47100
O 	O 	0.73954 0.57327 0.50450 -0.40200
O 	O 	0.91712 0.74634 0.82990 -0.48600
O 	O 	0.60020 0.43467 0.74160 -0.46200
O 	O 	0.89330 0.67553 0.66490 -0.53800
O 	O 	0.93996 0.76000 0.55460 -0.49000
O 	O 	0.56510 0.49870 0.72910 -0.51000
O 	O 	0.75819 0.63153 0.64520 -0.39500
O 	O 	0.84800 0.75764 0.96600 -0.24300
O 	O 	0.83656 0.66179 0.41200 -0.41900
O 	O 	0.64195 0.59873 0.53690 -0.42200
O 	O 	0.48295 0.45192 0.56330 -0.51400
O 	O 	0.81450 0.78741 0.73360 -0.53000
O 	O 	0.68985 0.63441 0.39230 -0.42500
O 	O 	0.96549 0.67476 0.53690 -0.36500
O 	O 	0.86030 0.75506 0.30190 -0.26800
O 	O 	0.91640 0.61535 0.57370 -0.19300
O 	O 	0.71400 0.48505 0.45740 -0.55000
O 	O 	0.71000 0.48103 0.21990 -0.58500
O 	O 	0.77150 0.43355 0.39490 -0.28000
O 	O 	0.81900 0.49580 0.42190 -0.25300
Sm	Sm	0.13698 0.02992 0.47796 2.37700
Sm	Sm	0.25699 0.19197 0.51054 2.34600
S 	S 	0.34478 0.25299 0.82068 0.94100
S 	S 	0.20721 0.10966 0.51999 0.67100
S 	S 	0.05789 0.96458 0.63942 0.72700
S 	S 	0.36733 0.26708 0.44329 0.90500
S 	S 	0.25398 0.97309 0.37344 0.93100
S 	S 	0.40358 0.15561 0.54318 0.66800
O 	O 	0.29969 0.21936 0.75170 -0.52700
O 	O 	0.31543 0.24686 0.48690 -0.71500
O 	O 	0.08504 0.97196 0.52850 -0.48100
O 	O 	0.35010 0.30754 0.44480 -0.48600
O 	O 	0.23954 0.07327 0.50450 -0.40600
O 	O 	0.41712 0.24634 0.82990 -0.54700
O 	O 	0.10020 0.93467 0.74160 -0.45600
O 	O 	0.39330 0.17553 0.66490 -0.57900
O 	O 	0.43996 0.26000 0.55460 -0.55400
O 	O 	0.06510 0.99870 0.72910 -0.51300
O 	O 	0.25819 0.13153 0.64520 -0.40100
O 	O 	0.34800 0.25764 0.96600 -0.26300
O 	O 	0.33656 0.16179 0.41200 -0.42800
O 	O 	0.14195 0.09873 0.53690 -0.43200
O 	O 	0.98295 0.95192 0.56330 -0.43700
O 	O 	0.31450 0.28741 0.73360 -0.54100
O 	O 	0.18985 0.13441 0.39230 -0.43300
O 	O 	0.46549 0.17476 0.53690 -0.42700
O 	O 	0.36030 0.25506 0.30190 -0.28600
O 	O 	0.41640 0.11535 0.57370 -0.22200
O 	O 	0.21400 0.98505 0.45740 -0.55300
O 	O 	0.21000 0.98103 0.21990 -0.58500
O 	O 	0.27150 0.93355 0.39490 -0.29100
O 	O 	0.31900 0.99580 0.42190 -0.26700
Sm	Sm	0.00000 0.28095 0.25000 2.19700
Sm	Sm	0.50000 0.78095 0.25000 2.41700
Sm	Sm	-0.00000 0.71905 0.75000 2.19100
Sm	Sm	0.50000 0.21905 0.75000 2.41700
