data_crystal

_cell_length_a 11.20290
_cell_length_b 21.07470
_cell_length_c 21.07470
_cell_angle_alpha 120.00000
_cell_angle_beta  90.00000
_cell_angle_gamma 90.00000

_symmetry_space_group_name_	'P 1'
_symmetry_space_group_name_H-M	'P 1'

loop_
_symmetry_equiv_pos_as_xyz
  x,y,z

loop_
_atom_site_label
_atom_site_type_symbol
_atom_site_fract_x
_atom_site_fract_y
_atom_site_fract_z
_atom_site_charge
Cd	Cd	0.93919 0.42900 0.97637 1.21900
Cd	Cd	0.60586 0.54737 0.57100 1.21600
Cd	Cd	0.27252 0.02363 0.45263 1.21600
Cd	Cd	0.43919 0.57100 0.02363 1.21600
Cd	Cd	0.10586 0.45263 0.42900 1.21300
Cd	Cd	0.77252 0.97637 0.54737 1.21600
H 	H 	0.84100 0.84440 0.08790 0.10300
H 	H 	0.02810 0.79270 0.06370 0.00700
H 	H 	0.05290 0.67460 0.03750 0.06100
H 	H 	0.62140 0.78190 0.98400 -0.01500
H 	H 	0.42680 0.82060 0.99690 0.16000
H 	H 	0.42120 0.83650 0.19380 0.15800
H 	H 	0.60570 0.79450 0.17510 -0.03200
H 	H 	0.67050 0.39230 0.90000 0.03800
H 	H 	0.61450 0.29990 0.77620 0.04400
H 	H 	0.96180 0.29750 0.79380 0.00100
H 	H 	0.74990 0.18320 0.67070 0.07100
H 	H 	0.88320 0.20520 0.66950 0.07600
H 	H 	0.68990 0.15880 0.55350 0.05800
H 	H 	0.65040 0.19750 0.47060 0.06800
H 	H 	0.78920 0.39370 0.61060 0.06700
H 	H 	0.83040 0.35600 0.69190 0.06600
H 	H 	0.64380 0.29150 0.43870 0.07400
H 	H 	0.66460 0.37290 0.50060 0.05700
H 	H 	0.84820 0.21900 0.36570 0.05200
H 	H 	0.02760 0.26650 0.34050 0.00800
H 	H 	0.85370 0.43240 0.49500 0.00600
H 	H 	0.50767 0.24350 0.15560 0.09500
H 	H 	0.69477 0.27100 0.20730 0.02600
H 	H 	0.71957 0.36290 0.32540 0.07600
H 	H 	0.28807 0.20210 0.21810 -0.01200
H 	H 	0.09347 0.17630 0.17940 0.15100
H 	H 	0.08787 0.35730 0.16350 0.14800
H 	H 	0.27237 0.38060 0.20550 -0.02800
H 	H 	0.33717 0.50770 0.60770 0.03800
H 	H 	0.28117 0.47630 0.70010 0.04500
H 	H 	0.62847 0.49630 0.70250 -0.00300
H 	H 	0.41657 0.48750 0.81680 0.07000
H 	H 	0.54987 0.46430 0.79480 0.07200
H 	H 	0.35657 0.39470 0.84120 0.05700
H 	H 	0.31707 0.27310 0.80250 0.06700
H 	H 	0.45587 0.21690 0.60630 0.06500
H 	H 	0.49707 0.33590 0.64400 0.06400
H 	H 	0.31047 0.14720 0.70850 0.07200
H 	H 	0.33127 0.12770 0.62710 0.05600
H 	H 	0.51487 0.14670 0.78100 0.04300
H 	H 	0.69427 0.07400 0.73350 0.03200
H 	H 	0.52037 0.06260 0.56760 0.00500
H 	H 	0.17433 0.91210 0.75650 0.09200
H 	H 	0.36143 0.93630 0.72900 0.02600
H 	H 	0.38623 0.96250 0.63710 0.07600
H 	H 	0.95473 0.01600 0.79790 -0.01000
H 	H 	0.76013 0.00310 0.82370 0.16000
H 	H 	0.75453 0.80620 0.64270 0.15800
H 	H 	0.93903 0.82490 0.61940 -0.02700
H 	H 	0.00383 0.10000 0.49230 0.02600
H 	H 	0.94783 0.22380 0.52370 0.06700
H 	H 	0.29513 0.20620 0.50370 -0.00400
H 	H 	0.08323 0.32930 0.51250 0.06000
H 	H 	0.21653 0.33050 0.53570 0.06600
H 	H 	0.02323 0.44650 0.60530 0.03700
H 	H 	0.98373 0.52940 0.72690 0.10300
H 	H 	0.12253 0.38940 0.78310 0.07900
H 	H 	0.16373 0.30810 0.66410 0.05000
H 	H 	0.97713 0.56130 0.85280 0.10700
H 	H 	0.99793 0.49940 0.87230 0.09000
H 	H 	0.18153 0.63430 0.85330 0.04400
H 	H 	0.36093 0.65950 0.92600 0.03000
H 	H 	0.18703 0.50500 0.93740 0.00500
H 	H 	0.34100 0.15560 0.91210 0.09400
H 	H 	0.52810 0.20730 0.93630 0.02600
H 	H 	0.55290 0.32540 0.96250 0.07600
H 	H 	0.12140 0.21810 0.01600 -0.00700
H 	H 	0.92680 0.17940 0.00310 0.14900
H 	H 	0.92120 0.16350 0.80620 0.14400
H 	H 	0.10570 0.20550 0.82490 -0.02000
H 	H 	0.17050 0.60770 0.10000 0.03600
H 	H 	0.11450 0.70010 0.22380 0.04000
H 	H 	0.46180 0.70250 0.20620 -0.00300
H 	H 	0.24990 0.81680 0.32930 0.06900
H 	H 	0.38320 0.79480 0.33050 0.07200
H 	H 	0.18990 0.84120 0.44650 0.05700
H 	H 	0.15040 0.80250 0.52940 0.06500
H 	H 	0.28920 0.60630 0.38940 0.06500
H 	H 	0.33040 0.64400 0.30810 0.06400
H 	H 	0.14380 0.70850 0.56130 0.07000
H 	H 	0.16460 0.62710 0.49940 0.05300
H 	H 	0.34820 0.78100 0.63430 0.04200
H 	H 	0.52760 0.73350 0.65950 0.03100
H 	H 	0.35370 0.56760 0.50500 0.00400
H 	H 	0.00767 0.75650 0.84440 0.10000
H 	H 	0.19477 0.72900 0.79270 0.02000
H 	H 	0.21957 0.63710 0.67460 0.07800
H 	H 	0.78807 0.79790 0.78190 -0.01400
H 	H 	0.59347 0.82370 0.82060 0.16000
H 	H 	0.58787 0.64270 0.83650 0.15800
H 	H 	0.77237 0.61940 0.79450 -0.03200
H 	H 	0.83717 0.49230 0.39230 0.03300
H 	H 	0.78117 0.52370 0.29990 0.04600
H 	H 	0.12847 0.50370 0.29750 0.00000
H 	H 	0.91657 0.51250 0.18320 0.06200
H 	H 	0.04987 0.53570 0.20520 0.05200
H 	H 	0.85657 0.60530 0.15880 0.05400
H 	H 	0.81707 0.72690 0.19750 0.07200
H 	H 	0.95587 0.78310 0.39370 0.07200
H 	H 	0.99707 0.66410 0.35600 0.06300
H 	H 	0.81047 0.85280 0.29150 0.07700
H 	H 	0.83127 0.87230 0.37290 0.06000
H 	H 	0.01487 0.85330 0.21900 0.04400
H 	H 	0.19427 0.92600 0.26650 0.02800
H 	H 	0.02037 0.93740 0.43240 0.00500
H 	H 	0.67433 0.08790 0.24350 0.09600
H 	H 	0.86143 0.06370 0.27100 0.02800
H 	H 	0.88623 0.03750 0.36290 0.08100
H 	H 	0.45473 0.98400 0.20210 -0.01400
H 	H 	0.26013 0.99690 0.17630 0.16100
H 	H 	0.25453 0.19380 0.35730 0.15800
H 	H 	0.43903 0.17510 0.38060 -0.03200
H 	H 	0.50383 0.90000 0.50770 0.03800
H 	H 	0.44783 0.77620 0.47630 0.04400
H 	H 	0.79513 0.79380 0.49630 -0.00200
H 	H 	0.58323 0.67070 0.48750 0.07000
H 	H 	0.71653 0.66950 0.46430 0.07200
H 	H 	0.52323 0.55350 0.39470 0.05700
H 	H 	0.48373 0.47060 0.27310 0.06800
H 	H 	0.62253 0.61060 0.21690 0.06500
H 	H 	0.66373 0.69190 0.33590 0.06400
H 	H 	0.47713 0.43870 0.14720 0.07400
H 	H 	0.49793 0.50060 0.12770 0.05600
H 	H 	0.68153 0.36570 0.14670 0.04300
H 	H 	0.86093 0.34050 0.07400 0.03400
H 	H 	0.68703 0.49500 0.06260 0.00500
C 	C 	0.89500 0.57110 0.01320 0.27900
C 	C 	0.65290 0.63660 0.03850 0.34000
C 	C 	0.87890 0.65000 0.03490 0.00300
C 	C 	0.76340 0.67960 0.04650 -0.11900
C 	C 	0.75240 0.75330 0.06630 0.15100
C 	C 	0.85020 0.79520 0.07390 -0.17700
C 	C 	0.96190 0.76480 0.06080 0.07400
C 	C 	0.97630 0.69390 0.04360 -0.07700
C 	C 	0.57960 0.79220 0.02630 0.17400
C 	C 	0.46170 0.81550 0.03420 -0.30200
C 	C 	0.39320 0.83160 0.09640 0.33900
C 	C 	0.45810 0.82420 0.14950 -0.33200
C 	C 	0.56930 0.80050 0.13880 0.19500
C 	C 	0.72310 0.36190 0.86310 -0.00900
C 	C 	0.69160 0.31110 0.79490 0.00100
C 	C 	0.88210 0.31050 0.80530 0.09400
C 	C 	0.80210 0.22380 0.68050 -0.12700
C 	C 	0.76910 0.25240 0.63130 0.06200
C 	C 	0.71170 0.20580 0.56460 -0.06700
C 	C 	0.68720 0.22930 0.51490 -0.07300
C 	C 	0.71690 0.29930 0.53050 0.06100
C 	C 	0.77040 0.34600 0.59860 -0.07300
C 	C 	0.79530 0.32350 0.64730 -0.06400
C 	C 	0.69930 0.32420 0.47610 -0.11700
C 	C 	0.87140 0.26790 0.38870 -0.02200
C 	C 	0.97040 0.29430 0.37540 0.04600
C 	C 	0.87570 0.38520 0.45980 0.08300
C 	C 	0.56167 0.44210 0.42890 0.27800
C 	C 	0.31957 0.40190 0.36340 0.34000
C 	C 	0.54557 0.38490 0.35000 0.00500
C 	C 	0.43007 0.36690 0.32040 -0.11700
C 	C 	0.41907 0.31300 0.24670 0.14500
C 	C 	0.51687 0.27870 0.20480 -0.16400
C 	C 	0.62857 0.29600 0.23520 0.04800
C 	C 	0.64297 0.34970 0.30610 -0.09200
C 	C 	0.24627 0.23410 0.20780 0.16300
C 	C 	0.12837 0.21870 0.18450 -0.28500
C 	C 	0.05987 0.26480 0.16840 0.30800
C 	C 	0.12477 0.32530 0.17580 -0.31400
C 	C 	0.23597 0.33830 0.19950 0.18300
C 	C 	0.38977 0.50120 0.63810 -0.00800
C 	C 	0.35827 0.48380 0.68890 0.00100
C 	C 	0.54877 0.49480 0.68950 0.09300
C 	C 	0.46877 0.45670 0.77620 -0.12500
C 	C 	0.43577 0.37890 0.74760 0.06000
C 	C 	0.37837 0.35880 0.79420 -0.06700
C 	C 	0.35387 0.28560 0.77070 -0.07400
C 	C 	0.38357 0.23120 0.70070 0.06000
C 	C 	0.43707 0.25260 0.65400 -0.07300
C 	C 	0.46197 0.32380 0.67650 -0.06500
C 	C 	0.36597 0.15190 0.67580 -0.11500
C 	C 	0.53807 0.12080 0.73210 -0.00400
C 	C 	0.63707 0.08110 0.70570 0.00600
C 	C 	0.54237 0.07460 0.61480 0.08100
C 	C 	0.22833 0.98680 0.55790 0.27900
C 	C 	0.98623 0.96150 0.59810 0.35100
C 	C 	0.21223 0.96510 0.61510 0.00600
C 	C 	0.09673 0.95350 0.63310 -0.12700
C 	C 	0.08573 0.93370 0.68700 0.13600
C 	C 	0.18353 0.92610 0.72130 -0.16000
C 	C 	0.29523 0.93920 0.70400 0.04600
C 	C 	0.30963 0.95640 0.65030 -0.09100
C 	C 	0.91293 0.97370 0.76590 0.17100
C 	C 	0.79503 0.96580 0.78130 -0.29900
C 	C 	0.72653 0.90360 0.73520 0.33700
C 	C 	0.79143 0.85050 0.67470 -0.32900
C 	C 	0.90263 0.86120 0.66170 0.19300
C 	C 	0.05643 0.13690 0.49880 0.00800
C 	C 	0.02493 0.20510 0.51620 -0.03700
C 	C 	0.21543 0.19470 0.50520 0.09400
C 	C 	0.13543 0.31950 0.54330 -0.10700
C 	C 	0.10243 0.36870 0.62110 0.02600
C 	C 	0.04503 0.43540 0.64120 -0.02100
C 	C 	0.02053 0.48510 0.71440 -0.14700
C 	C 	0.05023 0.46950 0.76880 0.11300
C 	C 	0.10373 0.40140 0.74740 -0.11900
C 	C 	0.12863 0.35270 0.67620 -0.02800
C 	C 	0.03263 0.52390 0.84810 -0.20000
C 	C 	0.20473 0.61130 0.87920 -0.01100
C 	C 	0.30373 0.62460 0.91890 0.00900
C 	C 	0.20903 0.54020 0.92540 0.07600
C 	C 	0.39500 0.42890 0.98680 0.27900
C 	C 	0.15290 0.36340 0.96150 0.34200
C 	C 	0.37890 0.35000 0.96510 0.00500
C 	C 	0.26340 0.32040 0.95350 -0.11700
C 	C 	0.25240 0.24670 0.93370 0.14300
C 	C 	0.35020 0.20480 0.92610 -0.16200
C 	C 	0.46190 0.23520 0.93920 0.04700
C 	C 	0.47630 0.30610 0.95640 -0.09100
C 	C 	0.07960 0.20780 0.97370 0.14000
C 	C 	0.96170 0.18450 0.96580 -0.26100
C 	C 	0.89320 0.16840 0.90360 0.31100
C 	C 	0.95810 0.17580 0.85050 -0.28300
C 	C 	0.06930 0.19950 0.86120 0.15200
C 	C 	0.22310 0.63810 0.13690 -0.00900
C 	C 	0.19160 0.68890 0.20510 0.00000
C 	C 	0.38210 0.68950 0.19470 0.09300
C 	C 	0.30210 0.77620 0.31950 -0.12500
C 	C 	0.26910 0.74760 0.36870 0.05900
C 	C 	0.21170 0.79420 0.43540 -0.06900
C 	C 	0.18720 0.77070 0.48510 -0.07300
C 	C 	0.21690 0.70070 0.46950 0.05700
C 	C 	0.27040 0.65400 0.40140 -0.07300
C 	C 	0.29530 0.67650 0.35270 -0.06600
C 	C 	0.19930 0.67580 0.52390 -0.11300
C 	C 	0.37140 0.73210 0.61130 -0.00400
C 	C 	0.47040 0.70570 0.62460 0.00600
C 	C 	0.37570 0.61480 0.54020 0.08100
C 	C 	0.06167 0.55790 0.57110 0.26200
C 	C 	0.81957 0.59810 0.63660 0.33900
C 	C 	0.04557 0.61510 0.65000 -0.00100
C 	C 	0.93007 0.63310 0.67960 -0.11100
C 	C 	0.91907 0.68700 0.75330 0.16200
C 	C 	0.01687 0.72130 0.79520 -0.19100
C 	C 	0.12857 0.70400 0.76480 0.06000
C 	C 	0.14297 0.65030 0.69390 -0.09900
C 	C 	0.74627 0.76590 0.79220 0.17400
C 	C 	0.62837 0.78130 0.81550 -0.30100
C 	C 	0.55987 0.73520 0.83160 0.33900
C 	C 	0.62477 0.67470 0.82420 -0.33200
C 	C 	0.73597 0.66170 0.80050 0.19600
C 	C 	0.88977 0.49880 0.36190 0.00900
C 	C 	0.85827 0.51620 0.31110 -0.00400
C 	C 	0.04877 0.50520 0.31050 0.07800
C 	C 	0.96877 0.54330 0.22380 -0.09000
C 	C 	0.93577 0.62110 0.25240 0.04700
C 	C 	0.87837 0.64120 0.20580 -0.05300
C 	C 	0.85387 0.71440 0.22930 -0.08200
C 	C 	0.88357 0.76880 0.29930 0.07100
C 	C 	0.93707 0.74740 0.34600 -0.08200
C 	C 	0.96197 0.67620 0.32350 -0.05000
C 	C 	0.86597 0.84810 0.32420 -0.12300
C 	C 	0.03807 0.87920 0.26790 -0.02200
C 	C 	0.13707 0.91890 0.29430 0.01200
C 	C 	0.04237 0.92540 0.38520 0.06600
C 	C 	0.72833 0.01320 0.44210 0.27600
C 	C 	0.48623 0.03850 0.40190 0.33900
C 	C 	0.71223 0.03490 0.38490 0.00700
C 	C 	0.59673 0.04650 0.36690 -0.11800
C 	C 	0.58573 0.06630 0.31300 0.14600
C 	C 	0.68353 0.07390 0.27870 -0.16500
C 	C 	0.79523 0.06080 0.29600 0.05000
C 	C 	0.80963 0.04360 0.34970 -0.09300
C 	C 	0.41293 0.02630 0.23410 0.17300
C 	C 	0.29503 0.03420 0.21870 -0.30400
C 	C 	0.22653 0.09640 0.26480 0.33900
C 	C 	0.29143 0.14950 0.32530 -0.33300
C 	C 	0.40263 0.13880 0.33830 0.19500
C 	C 	0.55643 0.86310 0.50120 -0.00900
C 	C 	0.52493 0.79490 0.48380 0.00100
C 	C 	0.71543 0.80530 0.49480 0.09300
C 	C 	0.63543 0.68050 0.45670 -0.12500
C 	C 	0.60243 0.63130 0.37890 0.06000
C 	C 	0.54503 0.56460 0.35880 -0.06700
C 	C 	0.52053 0.51490 0.28560 -0.07400
C 	C 	0.55023 0.53050 0.23120 0.06100
C 	C 	0.60373 0.59860 0.25260 -0.07400
C 	C 	0.62863 0.64730 0.32380 -0.06400
C 	C 	0.53263 0.47610 0.15190 -0.11600
C 	C 	0.70473 0.38870 0.12080 -0.00400
C 	C 	0.80373 0.37540 0.08110 0.00700
C 	C 	0.70903 0.45980 0.07460 0.08100
N 	N 	0.84600 0.36200 0.87000 -0.23600
N 	N 	0.79420 0.27910 0.75840 -0.10800
N 	N 	0.81110 0.32570 0.44180 -0.10100
N 	N 	0.97510 0.36880 0.42120 -0.23800
N 	N 	0.63370 0.78430 0.07810 -0.19600
N 	N 	0.51267 0.50800 0.63800 -0.23800
N 	N 	0.46087 0.47930 0.72090 -0.10900
N 	N 	0.47777 0.11610 0.67430 -0.10500
N 	N 	0.64177 0.05240 0.63120 -0.23700
N 	N 	0.30037 0.29380 0.21570 -0.19200
N 	N 	0.17933 0.13000 0.49200 -0.24100
N 	N 	0.12753 0.24160 0.52070 -0.10600
N 	N 	0.14443 0.55820 0.88390 -0.09400
N 	N 	0.30843 0.57880 0.94760 -0.23700
N 	N 	0.96703 0.92190 0.70620 -0.18900
N 	N 	0.34600 0.63800 0.13000 -0.23800
N 	N 	0.29420 0.72090 0.24160 -0.10900
N 	N 	0.31110 0.67430 0.55820 -0.10500
N 	N 	0.47510 0.63120 0.57880 -0.23700
N 	N 	0.13370 0.21570 0.92190 -0.18300
N 	N 	0.01267 0.49200 0.36200 -0.24500
N 	N 	0.96087 0.52070 0.27910 -0.10300
N 	N 	0.97777 0.88390 0.32570 -0.08900
N 	N 	0.14177 0.94760 0.36880 -0.23600
N 	N 	0.80037 0.70620 0.78430 -0.19700
N 	N 	0.67933 0.87000 0.50800 -0.23700
N 	N 	0.62753 0.75840 0.47930 -0.10900
N 	N 	0.64443 0.44180 0.11610 -0.10500
N 	N 	0.80843 0.42120 0.05240 -0.23500
N 	N 	0.46703 0.07810 0.29380 -0.19600
O 	O 	0.99430 0.54920 0.02300 -0.38000
O 	O 	0.81040 0.52780 0.98310 -0.35100
O 	O 	0.62460 0.62590 0.08980 -0.37500
O 	O 	0.59050 0.61670 0.98230 -0.38800
O 	O 	0.28560 0.85070 0.10120 -0.27100
O 	O 	0.66097 0.47380 0.45080 -0.38700
O 	O 	0.47707 0.45530 0.47220 -0.35100
O 	O 	0.29127 0.46390 0.37410 -0.37500
O 	O 	0.25717 0.36560 0.38330 -0.38900
O 	O 	0.95227 0.25050 0.14930 -0.25000
O 	O 	0.32763 0.97700 0.52620 -0.38700
O 	O 	0.14373 0.01690 0.54470 -0.35600
O 	O 	0.95793 0.91020 0.53610 -0.37200
O 	O 	0.92383 0.01770 0.63440 -0.38600
O 	O 	0.61893 0.89880 0.74950 -0.26900
O 	O 	0.49430 0.45080 0.97700 -0.38800
O 	O 	0.31040 0.47220 0.01690 -0.35300
O 	O 	0.12460 0.37410 0.91020 -0.38100
O 	O 	0.09050 0.38330 0.01770 -0.39500
O 	O 	0.78560 0.14930 0.89880 -0.26100
O 	O 	0.16097 0.52620 0.54920 -0.38500
O 	O 	0.97707 0.54470 0.52780 -0.33500
O 	O 	0.79127 0.53610 0.62590 -0.37300
O 	O 	0.75717 0.63440 0.61670 -0.38700
O 	O 	0.45227 0.74950 0.85070 -0.27000
O 	O 	0.82763 0.02300 0.47380 -0.38200
O 	O 	0.64373 0.98310 0.45530 -0.35000
O 	O 	0.45793 0.08980 0.46390 -0.37400
O 	O 	0.42383 0.98230 0.36560 -0.38700
O 	O 	0.11893 0.10120 0.25050 -0.27500
