data_crystal

_cell_length_a 26.86500
_cell_length_b 26.86500
_cell_length_c 26.86500
_cell_angle_alpha 90.00000
_cell_angle_beta  90.00000
_cell_angle_gamma 90.00000

_symmetry_space_group_name_	'P 1'
_symmetry_space_group_name_H-M	'P 1'

loop_
_symmetry_equiv_pos_as_xyz
  x,y,z

loop_
_atom_site_label
_atom_site_type_symbol
_atom_site_fract_x
_atom_site_fract_y
_atom_site_fract_z
_atom_site_charge
O 	O 	0.94690 0.50110 0.08340 -0.59600
O 	O 	0.02160 0.53020 0.08970 -0.45500
O 	O 	0.97150 0.58340 0.34090 -0.45900
O 	O 	0.89230 0.58020 0.32570 -0.49000
C 	C 	0.98070 0.52320 0.10840 0.44500
C 	C 	0.96900 0.54030 0.15950 -0.02700
C 	C 	0.00760 0.55140 0.19170 -0.05900
C 	C 	0.99710 0.56480 0.24140 0.24500
C 	C 	0.94780 0.56800 0.25720 -0.25200
C 	C 	0.90980 0.55760 0.22390 0.23300
C 	C 	0.92140 0.54390 0.17610 -0.16500
H 	H 	0.89560 0.53670 0.15410 0.08100
C 	C 	0.93600 0.57780 0.31120 0.40400
N 	N 	0.03750 0.57860 0.26840 -0.35300
H 	H 	0.03370 0.59050 0.29790 0.16900
H 	H 	0.06690 0.57550 0.25610 0.14500
N 	N 	0.05900 0.54420 0.18270 -0.26900
H 	H 	0.06880 0.53180 0.15480 0.15600
H 	H 	0.08050 0.55220 0.20500 0.12000
N 	N 	0.86140 0.56110 0.23430 -0.35100
H 	H 	0.83970 0.55480 0.21170 0.15400
H 	H 	0.85200 0.56960 0.26370 0.18600
O 	O 	0.44690 0.00110 0.58340 -0.62300
O 	O 	0.52160 0.03020 0.58970 -0.43600
O 	O 	0.47150 0.08340 0.84090 -0.47700
O 	O 	0.39230 0.08020 0.82570 -0.48900
C 	C 	0.48070 0.02320 0.60840 0.42000
C 	C 	0.46900 0.04030 0.65950 -0.11200
C 	C 	0.50760 0.05140 0.69170 0.05700
C 	C 	0.49710 0.06480 0.74140 0.12900
C 	C 	0.44780 0.06800 0.75720 -0.21100
C 	C 	0.40980 0.05760 0.72390 0.18700
C 	C 	0.42140 0.04390 0.67610 -0.11200
H 	H 	0.39560 0.03670 0.65410 0.05600
C 	C 	0.43600 0.07780 0.81120 0.38500
N 	N 	0.53750 0.07860 0.76840 -0.31200
H 	H 	0.53370 0.09050 0.79790 0.16900
H 	H 	0.56690 0.07550 0.75610 0.13200
N 	N 	0.55900 0.04420 0.68270 -0.29000
H 	H 	0.56880 0.03180 0.65480 0.15700
H 	H 	0.58050 0.05220 0.70500 0.12400
N 	N 	0.36140 0.06110 0.73430 -0.33900
H 	H 	0.33970 0.05480 0.71170 0.14300
H 	H 	0.35200 0.06960 0.76370 0.17700
O 	O 	0.55310 0.49890 0.58340 -0.60500
O 	O 	0.47840 0.46980 0.58970 -0.43500
O 	O 	0.52850 0.41660 0.84090 -0.47300
O 	O 	0.60770 0.41980 0.82570 -0.48600
C 	C 	0.51930 0.47680 0.60840 0.41900
C 	C 	0.53100 0.45970 0.65950 -0.10200
C 	C 	0.49240 0.44860 0.69170 0.05900
C 	C 	0.50290 0.43520 0.74140 0.13700
C 	C 	0.55220 0.43200 0.75720 -0.21100
C 	C 	0.59020 0.44240 0.72390 0.19800
C 	C 	0.57860 0.45610 0.67610 -0.11500
H 	H 	0.60440 0.46330 0.65410 0.06600
C 	C 	0.56400 0.42220 0.81120 0.39100
N 	N 	0.46250 0.42140 0.76840 -0.31300
H 	H 	0.46630 0.40950 0.79790 0.17300
H 	H 	0.43310 0.42450 0.75610 0.13700
N 	N 	0.44100 0.45580 0.68270 -0.29100
H 	H 	0.43120 0.46820 0.65480 0.16500
H 	H 	0.41950 0.44780 0.70500 0.13000
N 	N 	0.63860 0.43890 0.73430 -0.34200
H 	H 	0.66030 0.44520 0.71170 0.15200
H 	H 	0.64800 0.43040 0.76370 0.18300
O 	O 	0.05310 0.99890 0.08340 -0.55300
O 	O 	0.97840 0.96980 0.08970 -0.35700
O 	O 	0.02850 0.91660 0.34090 -0.47700
O 	O 	0.10770 0.91980 0.32570 -0.47400
C 	C 	0.01930 0.97680 0.10840 0.38000
C 	C 	0.03100 0.95970 0.15950 -0.16100
C 	C 	0.99240 0.94860 0.19170 0.17400
C 	C 	0.00290 0.93520 0.24140 0.04100
C 	C 	0.05220 0.93200 0.25720 -0.17100
C 	C 	0.09020 0.94240 0.22390 0.17500
C 	C 	0.07860 0.95610 0.17610 -0.07300
H 	H 	0.10440 0.96330 0.15410 0.06100
C 	C 	0.06400 0.92220 0.31120 0.38100
N 	N 	0.96250 0.92140 0.26840 -0.27600
H 	H 	0.96630 0.90950 0.29790 0.18200
H 	H 	0.93310 0.92450 0.25610 0.13500
N 	N 	0.94100 0.95580 0.18270 -0.31200
H 	H 	0.93120 0.96820 0.15480 0.18400
H 	H 	0.91950 0.94780 0.20500 0.14800
N 	N 	0.13860 0.93890 0.23430 -0.33600
H 	H 	0.16030 0.94520 0.21170 0.15800
H 	H 	0.14800 0.93040 0.26370 0.18700
O 	O 	0.05310 0.00110 0.41660 -0.61100
O 	O 	0.97840 0.03020 0.41030 -0.38800
O 	O 	0.02850 0.08340 0.15910 -0.48200
O 	O 	0.10770 0.08020 0.17430 -0.47600
C 	C 	0.01930 0.02320 0.39160 0.38700
C 	C 	0.03100 0.04030 0.34050 -0.18700
C 	C 	0.99240 0.05140 0.30830 0.17500
C 	C 	0.00290 0.06480 0.25860 0.01900
C 	C 	0.05220 0.06800 0.24280 -0.17000
C 	C 	0.09020 0.05760 0.27610 0.15000
C 	C 	0.07860 0.04390 0.32390 -0.06300
H 	H 	0.10440 0.03670 0.34590 0.04100
C 	C 	0.06400 0.07780 0.18880 0.36900
N 	N 	0.96250 0.07860 0.23160 -0.27200
H 	H 	0.96630 0.09050 0.20210 0.17400
H 	H 	0.93310 0.07550 0.24390 0.12400
N 	N 	0.94100 0.04420 0.31730 -0.31100
H 	H 	0.93120 0.03180 0.34520 0.16700
H 	H 	0.91950 0.05220 0.29500 0.13500
N 	N 	0.13860 0.06110 0.26570 -0.32900
H 	H 	0.16030 0.05480 0.28830 0.14000
H 	H 	0.14800 0.06960 0.23630 0.17400
O 	O 	0.55310 0.50110 0.91660 -0.58900
O 	O 	0.47840 0.53020 0.91030 -0.42100
O 	O 	0.52850 0.58340 0.65910 -0.47000
O 	O 	0.60770 0.58020 0.67430 -0.48300
C 	C 	0.51930 0.52320 0.89160 0.41400
C 	C 	0.53100 0.54030 0.84050 -0.10000
C 	C 	0.49240 0.55140 0.80830 0.05800
C 	C 	0.50290 0.56480 0.75860 0.13800
C 	C 	0.55220 0.56800 0.74280 -0.21100
C 	C 	0.59020 0.55760 0.77610 0.19900
C 	C 	0.57860 0.54390 0.82390 -0.11600
H 	H 	0.60440 0.53670 0.84590 0.06700
C 	C 	0.56400 0.57780 0.68880 0.39000
N 	N 	0.46250 0.57860 0.73160 -0.31300
H 	H 	0.46630 0.59050 0.70210 0.17300
H 	H 	0.43310 0.57550 0.74390 0.13700
N 	N 	0.44100 0.54420 0.81730 -0.29000
H 	H 	0.43120 0.53180 0.84520 0.16500
H 	H 	0.41950 0.55220 0.79500 0.13000
N 	N 	0.63860 0.56110 0.76570 -0.34200
H 	H 	0.66030 0.55480 0.78830 0.15300
H 	H 	0.64800 0.56960 0.73630 0.18400
O 	O 	0.44690 0.99890 0.91660 -0.55400
O 	O 	0.52160 0.96980 0.91030 -0.39800
O 	O 	0.47150 0.91660 0.65910 -0.46600
O 	O 	0.39230 0.91980 0.67430 -0.48000
C 	C 	0.48070 0.97680 0.89160 0.40800
C 	C 	0.46900 0.95970 0.84050 -0.08800
C 	C 	0.50760 0.94860 0.80830 0.06000
C 	C 	0.49710 0.93520 0.75860 0.14600
C 	C 	0.44780 0.93200 0.74280 -0.21000
C 	C 	0.40980 0.94240 0.77610 0.21100
C 	C 	0.42140 0.95610 0.82390 -0.12000
H 	H 	0.39560 0.96330 0.84590 0.07700
C 	C 	0.43600 0.92220 0.68880 0.39500
N 	N 	0.53750 0.92140 0.73160 -0.31500
H 	H 	0.53370 0.90950 0.70210 0.17800
H 	H 	0.56690 0.92450 0.74390 0.14300
N 	N 	0.55900 0.95580 0.81730 -0.29100
H 	H 	0.56880 0.96820 0.84520 0.17400
H 	H 	0.58050 0.94780 0.79500 0.13700
N 	N 	0.36140 0.93890 0.76570 -0.34500
H 	H 	0.33970 0.94520 0.78830 0.16100
H 	H 	0.35200 0.93040 0.73630 0.19000
O 	O 	0.94690 0.49890 0.41660 -0.59800
O 	O 	0.02160 0.46980 0.41030 -0.46100
O 	O 	0.97150 0.41660 0.15910 -0.45400
O 	O 	0.89230 0.41980 0.17430 -0.48600
C 	C 	0.98070 0.47680 0.39160 0.44700
C 	C 	0.96900 0.45970 0.34050 -0.02500
C 	C 	0.00760 0.44860 0.30830 -0.05800
C 	C 	0.99710 0.43520 0.25860 0.24700
C 	C 	0.94780 0.43200 0.24280 -0.25100
C 	C 	0.90980 0.44240 0.27610 0.23500
C 	C 	0.92140 0.45610 0.32390 -0.16400
H 	H 	0.89560 0.46330 0.34590 0.08100
C 	C 	0.93600 0.42220 0.18880 0.40400
N 	N 	0.03750 0.42140 0.23160 -0.35300
H 	H 	0.03370 0.40950 0.20210 0.17000
H 	H 	0.06690 0.42450 0.24390 0.14500
N 	N 	0.05900 0.45580 0.31730 -0.26900
H 	H 	0.06880 0.46820 0.34520 0.15500
H 	H 	0.08050 0.44780 0.29500 0.12000
N 	N 	0.86140 0.43890 0.26570 -0.35100
H 	H 	0.83970 0.44520 0.28830 0.15400
H 	H 	0.85200 0.43040 0.23630 0.18700
O 	O 	0.08340 0.94690 0.50110 -0.59500
O 	O 	0.08970 0.02160 0.53020 -0.45400
O 	O 	0.34090 0.97150 0.58340 -0.45800
O 	O 	0.32570 0.89230 0.58020 -0.48900
C 	C 	0.10840 0.98070 0.52320 0.44600
C 	C 	0.15950 0.96900 0.54030 -0.02600
C 	C 	0.19170 0.00760 0.55140 -0.05800
C 	C 	0.24140 0.99710 0.56480 0.24600
C 	C 	0.25720 0.94780 0.56800 -0.25100
C 	C 	0.22390 0.90980 0.55760 0.23400
C 	C 	0.17610 0.92140 0.54390 -0.16400
H 	H 	0.15410 0.89560 0.53670 0.08100
C 	C 	0.31120 0.93600 0.57780 0.40400
N 	N 	0.26840 0.03750 0.57860 -0.35300
H 	H 	0.29790 0.03370 0.59050 0.16900
H 	H 	0.25610 0.06690 0.57550 0.14500
N 	N 	0.18270 0.05900 0.54420 -0.26900
H 	H 	0.15480 0.06880 0.53180 0.15600
H 	H 	0.20500 0.08050 0.55220 0.12000
N 	N 	0.23430 0.86140 0.56110 -0.35100
H 	H 	0.21170 0.83970 0.55480 0.15400
H 	H 	0.26370 0.85200 0.56960 0.18600
O 	O 	0.58340 0.44690 0.00110 -0.62300
O 	O 	0.58970 0.52160 0.03020 -0.43600
O 	O 	0.84090 0.47150 0.08340 -0.47700
O 	O 	0.82570 0.39230 0.08020 -0.48900
C 	C 	0.60840 0.48070 0.02320 0.42000
C 	C 	0.65950 0.46900 0.04030 -0.11200
C 	C 	0.69170 0.50760 0.05140 0.05700
C 	C 	0.74140 0.49710 0.06480 0.12900
C 	C 	0.75720 0.44780 0.06800 -0.21100
C 	C 	0.72390 0.40980 0.05760 0.18700
C 	C 	0.67610 0.42140 0.04390 -0.11200
H 	H 	0.65410 0.39560 0.03670 0.05600
C 	C 	0.81120 0.43600 0.07780 0.38500
N 	N 	0.76840 0.53750 0.07860 -0.31200
H 	H 	0.79790 0.53370 0.09050 0.16900
H 	H 	0.75610 0.56690 0.07550 0.13200
N 	N 	0.68270 0.55900 0.04420 -0.29000
H 	H 	0.65480 0.56880 0.03180 0.15700
H 	H 	0.70500 0.58050 0.05220 0.12400
N 	N 	0.73430 0.36140 0.06110 -0.33900
H 	H 	0.71170 0.33970 0.05480 0.14300
H 	H 	0.76370 0.35200 0.06960 0.17700
O 	O 	0.58340 0.55310 0.49890 -0.60500
O 	O 	0.58970 0.47840 0.46980 -0.43500
O 	O 	0.84090 0.52850 0.41660 -0.47300
O 	O 	0.82570 0.60770 0.41980 -0.48600
C 	C 	0.60840 0.51930 0.47680 0.41900
C 	C 	0.65950 0.53100 0.45970 -0.10200
C 	C 	0.69170 0.49240 0.44860 0.05900
C 	C 	0.74140 0.50290 0.43520 0.13700
C 	C 	0.75720 0.55220 0.43200 -0.21100
C 	C 	0.72390 0.59020 0.44240 0.19800
C 	C 	0.67610 0.57860 0.45610 -0.11500
H 	H 	0.65410 0.60440 0.46330 0.06600
C 	C 	0.81120 0.56400 0.42220 0.39100
N 	N 	0.76840 0.46250 0.42140 -0.31300
H 	H 	0.79790 0.46630 0.40950 0.17300
H 	H 	0.75610 0.43310 0.42450 0.13700
N 	N 	0.68270 0.44100 0.45580 -0.29100
H 	H 	0.65480 0.43120 0.46820 0.16500
H 	H 	0.70500 0.41950 0.44780 0.13000
N 	N 	0.73430 0.63860 0.43890 -0.34200
H 	H 	0.71170 0.66030 0.44520 0.15200
H 	H 	0.76370 0.64800 0.43040 0.18300
O 	O 	0.08340 0.05310 0.99890 -0.55300
O 	O 	0.08970 0.97840 0.96980 -0.35700
O 	O 	0.34090 0.02850 0.91660 -0.47700
O 	O 	0.32570 0.10770 0.91980 -0.47400
C 	C 	0.10840 0.01930 0.97680 0.38000
C 	C 	0.15950 0.03100 0.95970 -0.16100
C 	C 	0.19170 0.99240 0.94860 0.17400
C 	C 	0.24140 0.00290 0.93520 0.04100
C 	C 	0.25720 0.05220 0.93200 -0.17100
C 	C 	0.22390 0.09020 0.94240 0.17500
C 	C 	0.17610 0.07860 0.95610 -0.07300
H 	H 	0.15410 0.10440 0.96330 0.06100
C 	C 	0.31120 0.06400 0.92220 0.38100
N 	N 	0.26840 0.96250 0.92140 -0.27600
H 	H 	0.29790 0.96630 0.90950 0.18200
H 	H 	0.25610 0.93310 0.92450 0.13500
N 	N 	0.18270 0.94100 0.95580 -0.31200
H 	H 	0.15480 0.93120 0.96820 0.18400
H 	H 	0.20500 0.91950 0.94780 0.14800
N 	N 	0.23430 0.13860 0.93890 -0.33600
H 	H 	0.21170 0.16030 0.94520 0.15800
H 	H 	0.26370 0.14800 0.93040 0.18700
O 	O 	0.41660 0.05310 0.00110 -0.61100
O 	O 	0.41030 0.97840 0.03020 -0.38800
O 	O 	0.15910 0.02850 0.08340 -0.48200
O 	O 	0.17430 0.10770 0.08020 -0.47600
C 	C 	0.39160 0.01930 0.02320 0.38700
C 	C 	0.34050 0.03100 0.04030 -0.18700
C 	C 	0.30830 0.99240 0.05140 0.17500
C 	C 	0.25860 0.00290 0.06480 0.01900
C 	C 	0.24280 0.05220 0.06800 -0.17000
C 	C 	0.27610 0.09020 0.05760 0.15000
C 	C 	0.32390 0.07860 0.04390 -0.06300
H 	H 	0.34590 0.10440 0.03670 0.04100
C 	C 	0.18880 0.06400 0.07780 0.36900
N 	N 	0.23160 0.96250 0.07860 -0.27200
H 	H 	0.20210 0.96630 0.09050 0.17400
H 	H 	0.24390 0.93310 0.07550 0.12400
N 	N 	0.31730 0.94100 0.04420 -0.31100
H 	H 	0.34520 0.93120 0.03180 0.16700
H 	H 	0.29500 0.91950 0.05220 0.13500
N 	N 	0.26570 0.13860 0.06110 -0.32900
H 	H 	0.28830 0.16030 0.05480 0.14000
H 	H 	0.23630 0.14800 0.06960 0.17400
O 	O 	0.91660 0.55310 0.50110 -0.58900
O 	O 	0.91030 0.47840 0.53020 -0.42100
O 	O 	0.65910 0.52850 0.58340 -0.47000
O 	O 	0.67430 0.60770 0.58020 -0.48300
C 	C 	0.89160 0.51930 0.52320 0.41400
C 	C 	0.84050 0.53100 0.54030 -0.10000
C 	C 	0.80830 0.49240 0.55140 0.05800
C 	C 	0.75860 0.50290 0.56480 0.13800
C 	C 	0.74280 0.55220 0.56800 -0.21100
C 	C 	0.77610 0.59020 0.55760 0.19900
C 	C 	0.82390 0.57860 0.54390 -0.11600
H 	H 	0.84590 0.60440 0.53670 0.06700
C 	C 	0.68880 0.56400 0.57780 0.39000
N 	N 	0.73160 0.46250 0.57860 -0.31300
H 	H 	0.70210 0.46630 0.59050 0.17300
H 	H 	0.74390 0.43310 0.57550 0.13700
N 	N 	0.81730 0.44100 0.54420 -0.29000
H 	H 	0.84520 0.43120 0.53180 0.16500
H 	H 	0.79500 0.41950 0.55220 0.13000
N 	N 	0.76570 0.63860 0.56110 -0.34200
H 	H 	0.78830 0.66030 0.55480 0.15300
H 	H 	0.73630 0.64800 0.56960 0.18400
O 	O 	0.91660 0.44690 0.99890 -0.55400
O 	O 	0.91030 0.52160 0.96980 -0.39800
O 	O 	0.65910 0.47150 0.91660 -0.46600
O 	O 	0.67430 0.39230 0.91980 -0.48000
C 	C 	0.89160 0.48070 0.97680 0.40800
C 	C 	0.84050 0.46900 0.95970 -0.08800
C 	C 	0.80830 0.50760 0.94860 0.06000
C 	C 	0.75860 0.49710 0.93520 0.14600
C 	C 	0.74280 0.44780 0.93200 -0.21000
C 	C 	0.77610 0.40980 0.94240 0.21100
C 	C 	0.82390 0.42140 0.95610 -0.12000
H 	H 	0.84590 0.39560 0.96330 0.07700
C 	C 	0.68880 0.43600 0.92220 0.39500
N 	N 	0.73160 0.53750 0.92140 -0.31500
H 	H 	0.70210 0.53370 0.90950 0.17800
H 	H 	0.74390 0.56690 0.92450 0.14300
N 	N 	0.81730 0.55900 0.95580 -0.29100
H 	H 	0.84520 0.56880 0.96820 0.17400
H 	H 	0.79500 0.58050 0.94780 0.13700
N 	N 	0.76570 0.36140 0.93890 -0.34500
H 	H 	0.78830 0.33970 0.94520 0.16100
H 	H 	0.73630 0.35200 0.93040 0.19000
O 	O 	0.41660 0.94690 0.49890 -0.59800
O 	O 	0.41030 0.02160 0.46980 -0.46100
O 	O 	0.15910 0.97150 0.41660 -0.45400
O 	O 	0.17430 0.89230 0.41980 -0.48600
C 	C 	0.39160 0.98070 0.47680 0.44700
C 	C 	0.34050 0.96900 0.45970 -0.02500
C 	C 	0.30830 0.00760 0.44860 -0.05800
C 	C 	0.25860 0.99710 0.43520 0.24700
C 	C 	0.24280 0.94780 0.43200 -0.25100
C 	C 	0.27610 0.90980 0.44240 0.23500
C 	C 	0.32390 0.92140 0.45610 -0.16400
H 	H 	0.34590 0.89560 0.46330 0.08100
C 	C 	0.18880 0.93600 0.42220 0.40400
N 	N 	0.23160 0.03750 0.42140 -0.35300
H 	H 	0.20210 0.03370 0.40950 0.17000
H 	H 	0.24390 0.06690 0.42450 0.14500
N 	N 	0.31730 0.05900 0.45580 -0.26900
H 	H 	0.34520 0.06880 0.46820 0.15500
H 	H 	0.29500 0.08050 0.44780 0.12000
N 	N 	0.26570 0.86140 0.43890 -0.35100
H 	H 	0.28830 0.83970 0.44520 0.15400
H 	H 	0.23630 0.85200 0.43040 0.18700
O 	O 	0.50110 0.08340 0.94690 -0.59500
O 	O 	0.53020 0.08970 0.02160 -0.45400
O 	O 	0.58340 0.34090 0.97150 -0.45800
O 	O 	0.58020 0.32570 0.89230 -0.48900
C 	C 	0.52320 0.10840 0.98070 0.44600
C 	C 	0.54030 0.15950 0.96900 -0.02600
C 	C 	0.55140 0.19170 0.00760 -0.05800
C 	C 	0.56480 0.24140 0.99710 0.24600
C 	C 	0.56800 0.25720 0.94780 -0.25100
C 	C 	0.55760 0.22390 0.90980 0.23400
C 	C 	0.54390 0.17610 0.92140 -0.16400
H 	H 	0.53670 0.15410 0.89560 0.08100
C 	C 	0.57780 0.31120 0.93600 0.40400
N 	N 	0.57860 0.26840 0.03750 -0.35300
H 	H 	0.59050 0.29790 0.03370 0.16900
H 	H 	0.57550 0.25610 0.06690 0.14500
N 	N 	0.54420 0.18270 0.05900 -0.26900
H 	H 	0.53180 0.15480 0.06880 0.15600
H 	H 	0.55220 0.20500 0.08050 0.12000
N 	N 	0.56110 0.23430 0.86140 -0.35100
H 	H 	0.55480 0.21170 0.83970 0.15400
H 	H 	0.56960 0.26370 0.85200 0.18600
O 	O 	0.00110 0.58340 0.44690 -0.62300
O 	O 	0.03020 0.58970 0.52160 -0.43600
O 	O 	0.08340 0.84090 0.47150 -0.47700
O 	O 	0.08020 0.82570 0.39230 -0.48900
C 	C 	0.02320 0.60840 0.48070 0.42000
C 	C 	0.04030 0.65950 0.46900 -0.11200
C 	C 	0.05140 0.69170 0.50760 0.05700
C 	C 	0.06480 0.74140 0.49710 0.12900
C 	C 	0.06800 0.75720 0.44780 -0.21100
C 	C 	0.05760 0.72390 0.40980 0.18700
C 	C 	0.04390 0.67610 0.42140 -0.11200
H 	H 	0.03670 0.65410 0.39560 0.05600
C 	C 	0.07780 0.81120 0.43600 0.38500
N 	N 	0.07860 0.76840 0.53750 -0.31200
H 	H 	0.09050 0.79790 0.53370 0.16900
H 	H 	0.07550 0.75610 0.56690 0.13200
N 	N 	0.04420 0.68270 0.55900 -0.29000
H 	H 	0.03180 0.65480 0.56880 0.15700
H 	H 	0.05220 0.70500 0.58050 0.12400
N 	N 	0.06110 0.73430 0.36140 -0.33900
H 	H 	0.05480 0.71170 0.33970 0.14300
H 	H 	0.06960 0.76370 0.35200 0.17700
O 	O 	0.49890 0.58340 0.55310 -0.60500
O 	O 	0.46980 0.58970 0.47840 -0.43500
O 	O 	0.41660 0.84090 0.52850 -0.47300
O 	O 	0.41980 0.82570 0.60770 -0.48600
C 	C 	0.47680 0.60840 0.51930 0.41900
C 	C 	0.45970 0.65950 0.53100 -0.10200
C 	C 	0.44860 0.69170 0.49240 0.05900
C 	C 	0.43520 0.74140 0.50290 0.13700
C 	C 	0.43200 0.75720 0.55220 -0.21100
C 	C 	0.44240 0.72390 0.59020 0.19800
C 	C 	0.45610 0.67610 0.57860 -0.11500
H 	H 	0.46330 0.65410 0.60440 0.06600
C 	C 	0.42220 0.81120 0.56400 0.39100
N 	N 	0.42140 0.76840 0.46250 -0.31300
H 	H 	0.40950 0.79790 0.46630 0.17300
H 	H 	0.42450 0.75610 0.43310 0.13700
N 	N 	0.45580 0.68270 0.44100 -0.29100
H 	H 	0.46820 0.65480 0.43120 0.16500
H 	H 	0.44780 0.70500 0.41950 0.13000
N 	N 	0.43890 0.73430 0.63860 -0.34200
H 	H 	0.44520 0.71170 0.66030 0.15200
H 	H 	0.43040 0.76370 0.64800 0.18300
O 	O 	0.99890 0.08340 0.05310 -0.55300
O 	O 	0.96980 0.08970 0.97840 -0.35700
O 	O 	0.91660 0.34090 0.02850 -0.47700
O 	O 	0.91980 0.32570 0.10770 -0.47400
C 	C 	0.97680 0.10840 0.01930 0.38000
C 	C 	0.95970 0.15950 0.03100 -0.16100
C 	C 	0.94860 0.19170 0.99240 0.17400
C 	C 	0.93520 0.24140 0.00290 0.04100
C 	C 	0.93200 0.25720 0.05220 -0.17100
C 	C 	0.94240 0.22390 0.09020 0.17500
C 	C 	0.95610 0.17610 0.07860 -0.07300
H 	H 	0.96330 0.15410 0.10440 0.06100
C 	C 	0.92220 0.31120 0.06400 0.38100
N 	N 	0.92140 0.26840 0.96250 -0.27600
H 	H 	0.90950 0.29790 0.96630 0.18200
H 	H 	0.92450 0.25610 0.93310 0.13500
N 	N 	0.95580 0.18270 0.94100 -0.31200
H 	H 	0.96820 0.15480 0.93120 0.18400
H 	H 	0.94780 0.20500 0.91950 0.14800
N 	N 	0.93890 0.23430 0.13860 -0.33600
H 	H 	0.94520 0.21170 0.16030 0.15800
H 	H 	0.93040 0.26370 0.14800 0.18700
O 	O 	0.00110 0.41660 0.05310 -0.61100
O 	O 	0.03020 0.41030 0.97840 -0.38800
O 	O 	0.08340 0.15910 0.02850 -0.48200
O 	O 	0.08020 0.17430 0.10770 -0.47600
C 	C 	0.02320 0.39160 0.01930 0.38700
C 	C 	0.04030 0.34050 0.03100 -0.18700
C 	C 	0.05140 0.30830 0.99240 0.17500
C 	C 	0.06480 0.25860 0.00290 0.01900
C 	C 	0.06800 0.24280 0.05220 -0.17000
C 	C 	0.05760 0.27610 0.09020 0.15000
C 	C 	0.04390 0.32390 0.07860 -0.06300
H 	H 	0.03670 0.34590 0.10440 0.04100
C 	C 	0.07780 0.18880 0.06400 0.36900
N 	N 	0.07860 0.23160 0.96250 -0.27200
H 	H 	0.09050 0.20210 0.96630 0.17400
H 	H 	0.07550 0.24390 0.93310 0.12400
N 	N 	0.04420 0.31730 0.94100 -0.31100
H 	H 	0.03180 0.34520 0.93120 0.16700
H 	H 	0.05220 0.29500 0.91950 0.13500
N 	N 	0.06110 0.26570 0.13860 -0.32900
H 	H 	0.05480 0.28830 0.16030 0.14000
H 	H 	0.06960 0.23630 0.14800 0.17400
O 	O 	0.50110 0.91660 0.55310 -0.58900
O 	O 	0.53020 0.91030 0.47840 -0.42100
O 	O 	0.58340 0.65910 0.52850 -0.47000
O 	O 	0.58020 0.67430 0.60770 -0.48300
C 	C 	0.52320 0.89160 0.51930 0.41400
C 	C 	0.54030 0.84050 0.53100 -0.10000
C 	C 	0.55140 0.80830 0.49240 0.05800
C 	C 	0.56480 0.75860 0.50290 0.13800
C 	C 	0.56800 0.74280 0.55220 -0.21100
C 	C 	0.55760 0.77610 0.59020 0.19900
C 	C 	0.54390 0.82390 0.57860 -0.11600
H 	H 	0.53670 0.84590 0.60440 0.06700
C 	C 	0.57780 0.68880 0.56400 0.39000
N 	N 	0.57860 0.73160 0.46250 -0.31300
H 	H 	0.59050 0.70210 0.46630 0.17300
H 	H 	0.57550 0.74390 0.43310 0.13700
N 	N 	0.54420 0.81730 0.44100 -0.29000
H 	H 	0.53180 0.84520 0.43120 0.16500
H 	H 	0.55220 0.79500 0.41950 0.13000
N 	N 	0.56110 0.76570 0.63860 -0.34200
H 	H 	0.55480 0.78830 0.66030 0.15300
H 	H 	0.56960 0.73630 0.64800 0.18400
O 	O 	0.99890 0.91660 0.44690 -0.55400
O 	O 	0.96980 0.91030 0.52160 -0.39800
O 	O 	0.91660 0.65910 0.47150 -0.46600
O 	O 	0.91980 0.67430 0.39230 -0.48000
C 	C 	0.97680 0.89160 0.48070 0.40800
C 	C 	0.95970 0.84050 0.46900 -0.08800
C 	C 	0.94860 0.80830 0.50760 0.06000
C 	C 	0.93520 0.75860 0.49710 0.14600
C 	C 	0.93200 0.74280 0.44780 -0.21000
C 	C 	0.94240 0.77610 0.40980 0.21100
C 	C 	0.95610 0.82390 0.42140 -0.12000
H 	H 	0.96330 0.84590 0.39560 0.07700
C 	C 	0.92220 0.68880 0.43600 0.39500
N 	N 	0.92140 0.73160 0.53750 -0.31500
H 	H 	0.90950 0.70210 0.53370 0.17800
H 	H 	0.92450 0.74390 0.56690 0.14300
N 	N 	0.95580 0.81730 0.55900 -0.29100
H 	H 	0.96820 0.84520 0.56880 0.17400
H 	H 	0.94780 0.79500 0.58050 0.13700
N 	N 	0.93890 0.76570 0.36140 -0.34500
H 	H 	0.94520 0.78830 0.33970 0.16100
H 	H 	0.93040 0.73630 0.35200 0.19000
O 	O 	0.49890 0.41660 0.94690 -0.59800
O 	O 	0.46980 0.41030 0.02160 -0.46100
O 	O 	0.41660 0.15910 0.97150 -0.45400
O 	O 	0.41980 0.17430 0.89230 -0.48600
C 	C 	0.47680 0.39160 0.98070 0.44700
C 	C 	0.45970 0.34050 0.96900 -0.02500
C 	C 	0.44860 0.30830 0.00760 -0.05800
C 	C 	0.43520 0.25860 0.99710 0.24700
C 	C 	0.43200 0.24280 0.94780 -0.25100
C 	C 	0.44240 0.27610 0.90980 0.23500
C 	C 	0.45610 0.32390 0.92140 -0.16400
H 	H 	0.46330 0.34590 0.89560 0.08100
C 	C 	0.42220 0.18880 0.93600 0.40400
N 	N 	0.42140 0.23160 0.03750 -0.35300
H 	H 	0.40950 0.20210 0.03370 0.17000
H 	H 	0.42450 0.24390 0.06690 0.14500
N 	N 	0.45580 0.31730 0.05900 -0.26900
H 	H 	0.46820 0.34520 0.06880 0.15500
H 	H 	0.44780 0.29500 0.08050 0.12000
N 	N 	0.43890 0.26570 0.86140 -0.35100
H 	H 	0.44520 0.28830 0.83970 0.15400
H 	H 	0.43040 0.23630 0.85200 0.18700
O 	O 	0.05310 0.49890 0.91660 -0.57700
O 	O 	0.97840 0.46980 0.91030 -0.37400
O 	O 	0.02850 0.41660 0.65910 -0.48200
O 	O 	0.10770 0.41980 0.67430 -0.47700
C 	C 	0.01930 0.47680 0.89160 0.38300
C 	C 	0.03100 0.45970 0.84050 -0.17200
C 	C 	0.99240 0.44860 0.80830 0.17200
C 	C 	0.00290 0.43520 0.75860 0.03200
C 	C 	0.05220 0.43200 0.74280 -0.17100
C 	C 	0.09020 0.44240 0.77610 0.16400
C 	C 	0.07860 0.45610 0.82390 -0.06900
H 	H 	0.10440 0.46330 0.84590 0.05300
C 	C 	0.06400 0.42220 0.68880 0.37600
N 	N 	0.96250 0.42140 0.73160 -0.27400
H 	H 	0.96630 0.40950 0.70210 0.17700
H 	H 	0.93310 0.42450 0.74390 0.13000
N 	N 	0.94100 0.45580 0.81730 -0.31100
H 	H 	0.93120 0.46820 0.84520 0.17500
H 	H 	0.91950 0.44780 0.79500 0.14100
N 	N 	0.13860 0.43890 0.76570 -0.33300
H 	H 	0.16030 0.44520 0.78830 0.15000
H 	H 	0.14800 0.43040 0.73630 0.18100
O 	O 	0.55310 0.99890 0.41660 -0.56800
O 	O 	0.47840 0.96980 0.41030 -0.41100
O 	O 	0.52850 0.91660 0.15910 -0.46200
O 	O 	0.60770 0.91980 0.17430 -0.47700
C 	C 	0.51930 0.97680 0.39160 0.41300
C 	C 	0.53100 0.95970 0.34050 -0.08900
C 	C 	0.49240 0.94860 0.30830 0.06100
C 	C 	0.50290 0.93520 0.25860 0.14600
C 	C 	0.55220 0.93200 0.24280 -0.21000
C 	C 	0.59020 0.94240 0.27610 0.21000
C 	C 	0.57860 0.95610 0.32390 -0.11900
H 	H 	0.60440 0.96330 0.34590 0.07600
C 	C 	0.56400 0.92220 0.18880 0.39500
N 	N 	0.46250 0.92140 0.23160 -0.31500
H 	H 	0.46630 0.90950 0.20210 0.17800
H 	H 	0.43310 0.92450 0.24390 0.14300
N 	N 	0.44100 0.95580 0.31730 -0.29200
H 	H 	0.43120 0.96820 0.34520 0.17400
H 	H 	0.41950 0.94780 0.29500 0.13700
N 	N 	0.63860 0.93890 0.26570 -0.34500
H 	H 	0.66030 0.94520 0.28830 0.16100
H 	H 	0.64800 0.93040 0.23630 0.19000
O 	O 	0.44690 0.50110 0.41660 -0.60500
O 	O 	0.52160 0.53020 0.41030 -0.43500
O 	O 	0.47150 0.58340 0.15910 -0.46600
O 	O 	0.39230 0.58020 0.17430 -0.48000
C 	C 	0.48070 0.52320 0.39160 0.41900
C 	C 	0.46900 0.54030 0.34050 -0.10200
C 	C 	0.50760 0.55140 0.30830 0.05900
C 	C 	0.49710 0.56480 0.25860 0.13700
C 	C 	0.44780 0.56800 0.24280 -0.21000
C 	C 	0.40980 0.55760 0.27610 0.19800
C 	C 	0.42140 0.54390 0.32390 -0.11500
H 	H 	0.39560 0.53670 0.34590 0.06600
C 	C 	0.43600 0.57780 0.18880 0.38900
N 	N 	0.53750 0.57860 0.23160 -0.31300
H 	H 	0.53370 0.59050 0.20210 0.17400
H 	H 	0.56690 0.57550 0.24390 0.13700
N 	N 	0.55900 0.54420 0.31730 -0.29100
H 	H 	0.56880 0.53180 0.34520 0.16500
H 	H 	0.58050 0.55220 0.29500 0.13000
N 	N 	0.36140 0.56110 0.26570 -0.34200
H 	H 	0.33970 0.55480 0.28830 0.15200
H 	H 	0.35200 0.56960 0.23630 0.18300
O 	O 	0.94690 0.00110 0.91660 -0.59800
O 	O 	0.02160 0.03020 0.91030 -0.44800
O 	O 	0.97150 0.08340 0.65910 -0.46200
O 	O 	0.89230 0.08020 0.67430 -0.49200
C 	C 	0.98070 0.02320 0.89160 0.44200
C 	C 	0.96900 0.04030 0.84050 -0.03500
C 	C 	0.00760 0.05140 0.80830 -0.05900
C 	C 	0.99710 0.06480 0.75860 0.23700
C 	C 	0.94780 0.06800 0.74280 -0.25200
C 	C 	0.90980 0.05760 0.77610 0.22400
C 	C 	0.92140 0.04390 0.82390 -0.16200
H 	H 	0.89560 0.03670 0.84590 0.07300
C 	C 	0.93600 0.07780 0.68880 0.39900
N 	N 	0.03750 0.07860 0.73160 -0.35100
H 	H 	0.03370 0.09050 0.70210 0.16500
H 	H 	0.06690 0.07550 0.74390 0.14000
N 	N 	0.05900 0.04420 0.81730 -0.26800
H 	H 	0.06880 0.03180 0.84520 0.14700
H 	H 	0.08050 0.05220 0.79500 0.11300
N 	N 	0.86140 0.06110 0.76570 -0.34900
H 	H 	0.83970 0.05480 0.78830 0.14600
H 	H 	0.85200 0.06960 0.73630 0.18100
O 	O 	0.94690 0.99890 0.58340 -0.56200
O 	O 	0.02160 0.96980 0.58970 -0.43700
O 	O 	0.97150 0.91660 0.84090 -0.45800
O 	O 	0.89230 0.91980 0.82570 -0.49000
C 	C 	0.98070 0.97680 0.60840 0.43900
C 	C 	0.96900 0.95970 0.65950 -0.01800
C 	C 	0.00760 0.94860 0.69170 -0.04900
C 	C 	0.99710 0.93520 0.74140 0.24800
C 	C 	0.94780 0.93200 0.75720 -0.24900
C 	C 	0.90980 0.94240 0.72390 0.24400
C 	C 	0.92140 0.95610 0.67610 -0.16500
H 	H 	0.89560 0.96330 0.65410 0.09000
C 	C 	0.93600 0.92220 0.81120 0.40900
N 	N 	0.03750 0.92140 0.76840 -0.35200
H 	H 	0.03370 0.90950 0.79790 0.17400
H 	H 	0.06690 0.92450 0.75610 0.15000
N 	N 	0.05900 0.95580 0.68270 -0.27200
H 	H 	0.06880 0.96820 0.65480 0.16500
H 	H 	0.08050 0.94780 0.70500 0.12700
N 	N 	0.86140 0.93890 0.73430 -0.35400
H 	H 	0.83970 0.94520 0.71170 0.16300
H 	H 	0.85200 0.93040 0.76370 0.19200
O 	O 	0.44690 0.49890 0.08340 -0.60200
O 	O 	0.52160 0.46980 0.08970 -0.42700
O 	O 	0.47150 0.41660 0.34090 -0.47000
O 	O 	0.39230 0.41980 0.32570 -0.48300
C 	C 	0.48070 0.47680 0.10840 0.41800
C 	C 	0.46900 0.45970 0.15950 -0.10200
C 	C 	0.50760 0.44860 0.19170 0.05900
C 	C 	0.49710 0.43520 0.24140 0.13700
C 	C 	0.44780 0.43200 0.25720 -0.21000
C 	C 	0.40980 0.44240 0.22390 0.19800
C 	C 	0.42140 0.45610 0.17610 -0.11500
H 	H 	0.39560 0.46330 0.15410 0.06500
C 	C 	0.43600 0.42220 0.31120 0.39000
N 	N 	0.53750 0.42140 0.26840 -0.31300
H 	H 	0.53370 0.40950 0.29790 0.17300
H 	H 	0.56690 0.42450 0.25610 0.13700
N 	N 	0.55900 0.45580 0.18270 -0.29100
H 	H 	0.56880 0.46820 0.15480 0.16500
H 	H 	0.58050 0.44780 0.20500 0.13000
N 	N 	0.36140 0.43890 0.23430 -0.34200
H 	H 	0.33970 0.44520 0.21170 0.15100
H 	H 	0.35200 0.43040 0.26370 0.18300
O 	O 	0.55310 0.00110 0.08340 -0.62000
O 	O 	0.47840 0.03020 0.08970 -0.42900
O 	O 	0.52850 0.08340 0.34090 -0.47400
O 	O 	0.60770 0.08020 0.32570 -0.48500
C 	C 	0.51930 0.02320 0.10840 0.41900
C 	C 	0.53100 0.04030 0.15950 -0.11200
C 	C 	0.49240 0.05140 0.19170 0.05600
C 	C 	0.50290 0.06480 0.24140 0.12900
C 	C 	0.55220 0.06800 0.25720 -0.21100
C 	C 	0.59020 0.05760 0.22390 0.18700
C 	C 	0.57860 0.04390 0.17610 -0.11200
H 	H 	0.60440 0.03670 0.15410 0.05600
C 	C 	0.56400 0.07780 0.31120 0.38500
N 	N 	0.46250 0.07860 0.26840 -0.31200
H 	H 	0.46630 0.09050 0.29790 0.16900
H 	H 	0.43310 0.07550 0.25610 0.13200
N 	N 	0.44100 0.04420 0.18270 -0.29000
H 	H 	0.43120 0.03180 0.15480 0.15700
H 	H 	0.41950 0.05220 0.20500 0.12400
N 	N 	0.63860 0.06110 0.23430 -0.33900
H 	H 	0.66030 0.05480 0.21170 0.14300
H 	H 	0.64800 0.06960 0.26370 0.17700
O 	O 	0.05310 0.50110 0.58340 -0.59300
O 	O 	0.97840 0.53020 0.58970 -0.38700
O 	O 	0.02850 0.58340 0.84090 -0.48500
O 	O 	0.10770 0.58020 0.82570 -0.48000
C 	C 	0.01930 0.52320 0.60840 0.38600
C 	C 	0.03100 0.54030 0.65950 -0.17400
C 	C 	0.99240 0.55140 0.69170 0.17300
C 	C 	0.00290 0.56480 0.74140 0.03100
C 	C 	0.05220 0.56800 0.75720 -0.17100
C 	C 	0.09020 0.55760 0.72390 0.16300
C 	C 	0.07860 0.54390 0.67610 -0.06800
H 	H 	0.10440 0.53670 0.65410 0.05100
C 	C 	0.06400 0.57780 0.81120 0.37600
N 	N 	0.96250 0.57860 0.76840 -0.27400
H 	H 	0.96630 0.59050 0.79790 0.17700
H 	H 	0.93310 0.57550 0.75610 0.13000
N 	N 	0.94100 0.54420 0.68270 -0.31100
H 	H 	0.93120 0.53180 0.65480 0.17500
H 	H 	0.91950 0.55220 0.70500 0.14100
N 	N 	0.13860 0.56110 0.73430 -0.33300
H 	H 	0.16030 0.55480 0.71170 0.14900
H 	H 	0.14800 0.56960 0.76370 0.18000
O 	O 	0.91660 0.05310 0.49890 -0.57700
O 	O 	0.91030 0.97840 0.46980 -0.37400
O 	O 	0.65910 0.02850 0.41660 -0.48200
O 	O 	0.67430 0.10770 0.41980 -0.47700
C 	C 	0.89160 0.01930 0.47680 0.38300
C 	C 	0.84050 0.03100 0.45970 -0.17200
C 	C 	0.80830 0.99240 0.44860 0.17200
C 	C 	0.75860 0.00290 0.43520 0.03200
C 	C 	0.74280 0.05220 0.43200 -0.17100
C 	C 	0.77610 0.09020 0.44240 0.16400
C 	C 	0.82390 0.07860 0.45610 -0.06900
H 	H 	0.84590 0.10440 0.46330 0.05300
C 	C 	0.68880 0.06400 0.42220 0.37600
N 	N 	0.73160 0.96250 0.42140 -0.27400
H 	H 	0.70210 0.96630 0.40950 0.17700
H 	H 	0.74390 0.93310 0.42450 0.13000
N 	N 	0.81730 0.94100 0.45580 -0.31100
H 	H 	0.84520 0.93120 0.46820 0.17500
H 	H 	0.79500 0.91950 0.44780 0.14100
N 	N 	0.76570 0.13860 0.43890 -0.33300
H 	H 	0.78830 0.16030 0.44520 0.15000
H 	H 	0.73630 0.14800 0.43040 0.18100
O 	O 	0.41660 0.55310 0.99890 -0.56800
O 	O 	0.41030 0.47840 0.96980 -0.41100
O 	O 	0.15910 0.52850 0.91660 -0.46200
O 	O 	0.17430 0.60770 0.91980 -0.47700
C 	C 	0.39160 0.51930 0.97680 0.41300
C 	C 	0.34050 0.53100 0.95970 -0.08900
C 	C 	0.30830 0.49240 0.94860 0.06100
C 	C 	0.25860 0.50290 0.93520 0.14600
C 	C 	0.24280 0.55220 0.93200 -0.21000
C 	C 	0.27610 0.59020 0.94240 0.21000
C 	C 	0.32390 0.57860 0.95610 -0.11900
H 	H 	0.34590 0.60440 0.96330 0.07600
C 	C 	0.18880 0.56400 0.92220 0.39500
N 	N 	0.23160 0.46250 0.92140 -0.31500
H 	H 	0.20210 0.46630 0.90950 0.17800
H 	H 	0.24390 0.43310 0.92450 0.14300
N 	N 	0.31730 0.44100 0.95580 -0.29200
H 	H 	0.34520 0.43120 0.96820 0.17400
H 	H 	0.29500 0.41950 0.94780 0.13700
N 	N 	0.26570 0.63860 0.93890 -0.34500
H 	H 	0.28830 0.66030 0.94520 0.16100
H 	H 	0.23630 0.64800 0.93040 0.19000
O 	O 	0.41660 0.44690 0.50110 -0.60500
O 	O 	0.41030 0.52160 0.53020 -0.43500
O 	O 	0.15910 0.47150 0.58340 -0.46600
O 	O 	0.17430 0.39230 0.58020 -0.48000
C 	C 	0.39160 0.48070 0.52320 0.41900
C 	C 	0.34050 0.46900 0.54030 -0.10200
C 	C 	0.30830 0.50760 0.55140 0.05900
C 	C 	0.25860 0.49710 0.56480 0.13700
C 	C 	0.24280 0.44780 0.56800 -0.21000
C 	C 	0.27610 0.40980 0.55760 0.19800
C 	C 	0.32390 0.42140 0.54390 -0.11500
H 	H 	0.34590 0.39560 0.53670 0.06600
C 	C 	0.18880 0.43600 0.57780 0.38900
N 	N 	0.23160 0.53750 0.57860 -0.31300
H 	H 	0.20210 0.53370 0.59050 0.17400
H 	H 	0.24390 0.56690 0.57550 0.13700
N 	N 	0.31730 0.55900 0.54420 -0.29100
H 	H 	0.34520 0.56880 0.53180 0.16500
H 	H 	0.29500 0.58050 0.55220 0.13000
N 	N 	0.26570 0.36140 0.56110 -0.34200
H 	H 	0.28830 0.33970 0.55480 0.15200
H 	H 	0.23630 0.35200 0.56960 0.18300
O 	O 	0.91660 0.94690 0.00110 -0.59800
O 	O 	0.91030 0.02160 0.03020 -0.44800
O 	O 	0.65910 0.97150 0.08340 -0.46200
O 	O 	0.67430 0.89230 0.08020 -0.49200
C 	C 	0.89160 0.98070 0.02320 0.44200
C 	C 	0.84050 0.96900 0.04030 -0.03500
C 	C 	0.80830 0.00760 0.05140 -0.05900
C 	C 	0.75860 0.99710 0.06480 0.23700
C 	C 	0.74280 0.94780 0.06800 -0.25200
C 	C 	0.77610 0.90980 0.05760 0.22400
C 	C 	0.82390 0.92140 0.04390 -0.16200
H 	H 	0.84590 0.89560 0.03670 0.07300
C 	C 	0.68880 0.93600 0.07780 0.39900
N 	N 	0.73160 0.03750 0.07860 -0.35100
H 	H 	0.70210 0.03370 0.09050 0.16500
H 	H 	0.74390 0.06690 0.07550 0.14000
N 	N 	0.81730 0.05900 0.04420 -0.26800
H 	H 	0.84520 0.06880 0.03180 0.14700
H 	H 	0.79500 0.08050 0.05220 0.11300
N 	N 	0.76570 0.86140 0.06110 -0.34900
H 	H 	0.78830 0.83970 0.05480 0.14600
H 	H 	0.73630 0.85200 0.06960 0.18100
O 	O 	0.58340 0.94690 0.99890 -0.56200
O 	O 	0.58970 0.02160 0.96980 -0.43700
O 	O 	0.84090 0.97150 0.91660 -0.45800
O 	O 	0.82570 0.89230 0.91980 -0.49000
C 	C 	0.60840 0.98070 0.97680 0.43900
C 	C 	0.65950 0.96900 0.95970 -0.01800
C 	C 	0.69170 0.00760 0.94860 -0.04900
C 	C 	0.74140 0.99710 0.93520 0.24800
C 	C 	0.75720 0.94780 0.93200 -0.24900
C 	C 	0.72390 0.90980 0.94240 0.24400
C 	C 	0.67610 0.92140 0.95610 -0.16500
H 	H 	0.65410 0.89560 0.96330 0.09000
C 	C 	0.81120 0.93600 0.92220 0.40900
N 	N 	0.76840 0.03750 0.92140 -0.35200
H 	H 	0.79790 0.03370 0.90950 0.17400
H 	H 	0.75610 0.06690 0.92450 0.15000
N 	N 	0.68270 0.05900 0.95580 -0.27200
H 	H 	0.65480 0.06880 0.96820 0.16500
H 	H 	0.70500 0.08050 0.94780 0.12700
N 	N 	0.73430 0.86140 0.93890 -0.35400
H 	H 	0.71170 0.83970 0.94520 0.16300
H 	H 	0.76370 0.85200 0.93040 0.19200
O 	O 	0.08340 0.44690 0.49890 -0.60200
O 	O 	0.08970 0.52160 0.46980 -0.42700
O 	O 	0.34090 0.47150 0.41660 -0.47000
O 	O 	0.32570 0.39230 0.41980 -0.48300
C 	C 	0.10840 0.48070 0.47680 0.41800
C 	C 	0.15950 0.46900 0.45970 -0.10200
C 	C 	0.19170 0.50760 0.44860 0.05900
C 	C 	0.24140 0.49710 0.43520 0.13700
C 	C 	0.25720 0.44780 0.43200 -0.21000
C 	C 	0.22390 0.40980 0.44240 0.19800
C 	C 	0.17610 0.42140 0.45610 -0.11500
H 	H 	0.15410 0.39560 0.46330 0.06500
C 	C 	0.31120 0.43600 0.42220 0.39000
N 	N 	0.26840 0.53750 0.42140 -0.31300
H 	H 	0.29790 0.53370 0.40950 0.17300
H 	H 	0.25610 0.56690 0.42450 0.13700
N 	N 	0.18270 0.55900 0.45580 -0.29100
H 	H 	0.15480 0.56880 0.46820 0.16500
H 	H 	0.20500 0.58050 0.44780 0.13000
N 	N 	0.23430 0.36140 0.43890 -0.34200
H 	H 	0.21170 0.33970 0.44520 0.15100
H 	H 	0.26370 0.35200 0.43040 0.18300
O 	O 	0.08340 0.55310 0.00110 -0.62000
O 	O 	0.08970 0.47840 0.03020 -0.42900
O 	O 	0.34090 0.52850 0.08340 -0.47400
O 	O 	0.32570 0.60770 0.08020 -0.48500
C 	C 	0.10840 0.51930 0.02320 0.41900
C 	C 	0.15950 0.53100 0.04030 -0.11200
C 	C 	0.19170 0.49240 0.05140 0.05600
C 	C 	0.24140 0.50290 0.06480 0.12900
C 	C 	0.25720 0.55220 0.06800 -0.21100
C 	C 	0.22390 0.59020 0.05760 0.18700
C 	C 	0.17610 0.57860 0.04390 -0.11200
H 	H 	0.15410 0.60440 0.03670 0.05600
C 	C 	0.31120 0.56400 0.07780 0.38500
N 	N 	0.26840 0.46250 0.07860 -0.31200
H 	H 	0.29790 0.46630 0.09050 0.16900
H 	H 	0.25610 0.43310 0.07550 0.13200
N 	N 	0.18270 0.44100 0.04420 -0.29000
H 	H 	0.15480 0.43120 0.03180 0.15700
H 	H 	0.20500 0.41950 0.05220 0.12400
N 	N 	0.23430 0.63860 0.06110 -0.33900
H 	H 	0.21170 0.66030 0.05480 0.14300
H 	H 	0.26370 0.64800 0.06960 0.17700
O 	O 	0.58340 0.05310 0.50110 -0.59300
O 	O 	0.58970 0.97840 0.53020 -0.38700
O 	O 	0.84090 0.02850 0.58340 -0.48500
O 	O 	0.82570 0.10770 0.58020 -0.48000
C 	C 	0.60840 0.01930 0.52320 0.38600
C 	C 	0.65950 0.03100 0.54030 -0.17400
C 	C 	0.69170 0.99240 0.55140 0.17300
C 	C 	0.74140 0.00290 0.56480 0.03100
C 	C 	0.75720 0.05220 0.56800 -0.17100
C 	C 	0.72390 0.09020 0.55760 0.16300
C 	C 	0.67610 0.07860 0.54390 -0.06800
H 	H 	0.65410 0.10440 0.53670 0.05100
C 	C 	0.81120 0.06400 0.57780 0.37600
N 	N 	0.76840 0.96250 0.57860 -0.27400
H 	H 	0.79790 0.96630 0.59050 0.17700
H 	H 	0.75610 0.93310 0.57550 0.13000
N 	N 	0.68270 0.94100 0.54420 -0.31100
H 	H 	0.65480 0.93120 0.53180 0.17500
H 	H 	0.70500 0.91950 0.55220 0.14100
N 	N 	0.73430 0.13860 0.56110 -0.33300
H 	H 	0.71170 0.16030 0.55480 0.14900
H 	H 	0.76370 0.14800 0.56960 0.18000
O 	O 	0.49890 0.91660 0.05310 -0.57700
O 	O 	0.46980 0.91030 0.97840 -0.37400
O 	O 	0.41660 0.65910 0.02850 -0.48200
O 	O 	0.41980 0.67430 0.10770 -0.47700
C 	C 	0.47680 0.89160 0.01930 0.38300
C 	C 	0.45970 0.84050 0.03100 -0.17200
C 	C 	0.44860 0.80830 0.99240 0.17200
C 	C 	0.43520 0.75860 0.00290 0.03200
C 	C 	0.43200 0.74280 0.05220 -0.17100
C 	C 	0.44240 0.77610 0.09020 0.16400
C 	C 	0.45610 0.82390 0.07860 -0.06900
H 	H 	0.46330 0.84590 0.10440 0.05300
C 	C 	0.42220 0.68880 0.06400 0.37600
N 	N 	0.42140 0.73160 0.96250 -0.27400
H 	H 	0.40950 0.70210 0.96630 0.17700
H 	H 	0.42450 0.74390 0.93310 0.13000
N 	N 	0.45580 0.81730 0.94100 -0.31100
H 	H 	0.46820 0.84520 0.93120 0.17500
H 	H 	0.44780 0.79500 0.91950 0.14100
N 	N 	0.43890 0.76570 0.13860 -0.33300
H 	H 	0.44520 0.78830 0.16030 0.15000
H 	H 	0.43040 0.73630 0.14800 0.18100
O 	O 	0.99890 0.41660 0.55310 -0.56800
O 	O 	0.96980 0.41030 0.47840 -0.41100
O 	O 	0.91660 0.15910 0.52850 -0.46200
O 	O 	0.91980 0.17430 0.60770 -0.47700
C 	C 	0.97680 0.39160 0.51930 0.41300
C 	C 	0.95970 0.34050 0.53100 -0.08900
C 	C 	0.94860 0.30830 0.49240 0.06100
C 	C 	0.93520 0.25860 0.50290 0.14600
C 	C 	0.93200 0.24280 0.55220 -0.21000
C 	C 	0.94240 0.27610 0.59020 0.21000
C 	C 	0.95610 0.32390 0.57860 -0.11900
H 	H 	0.96330 0.34590 0.60440 0.07600
C 	C 	0.92220 0.18880 0.56400 0.39500
N 	N 	0.92140 0.23160 0.46250 -0.31500
H 	H 	0.90950 0.20210 0.46630 0.17800
H 	H 	0.92450 0.24390 0.43310 0.14300
N 	N 	0.95580 0.31730 0.44100 -0.29200
H 	H 	0.96820 0.34520 0.43120 0.17400
H 	H 	0.94780 0.29500 0.41950 0.13700
N 	N 	0.93890 0.26570 0.63860 -0.34500
H 	H 	0.94520 0.28830 0.66030 0.16100
H 	H 	0.93040 0.23630 0.64800 0.19000
O 	O 	0.50110 0.41660 0.44690 -0.60500
O 	O 	0.53020 0.41030 0.52160 -0.43500
O 	O 	0.58340 0.15910 0.47150 -0.46600
O 	O 	0.58020 0.17430 0.39230 -0.48000
C 	C 	0.52320 0.39160 0.48070 0.41900
C 	C 	0.54030 0.34050 0.46900 -0.10200
C 	C 	0.55140 0.30830 0.50760 0.05900
C 	C 	0.56480 0.25860 0.49710 0.13700
C 	C 	0.56800 0.24280 0.44780 -0.21000
C 	C 	0.55760 0.27610 0.40980 0.19800
C 	C 	0.54390 0.32390 0.42140 -0.11500
H 	H 	0.53670 0.34590 0.39560 0.06600
C 	C 	0.57780 0.18880 0.43600 0.38900
N 	N 	0.57860 0.23160 0.53750 -0.31300
H 	H 	0.59050 0.20210 0.53370 0.17400
H 	H 	0.57550 0.24390 0.56690 0.13700
N 	N 	0.54420 0.31730 0.55900 -0.29100
H 	H 	0.53180 0.34520 0.56880 0.16500
H 	H 	0.55220 0.29500 0.58050 0.13000
N 	N 	0.56110 0.26570 0.36140 -0.34200
H 	H 	0.55480 0.28830 0.33970 0.15200
H 	H 	0.56960 0.23630 0.35200 0.18300
O 	O 	0.00110 0.91660 0.94690 -0.59800
O 	O 	0.03020 0.91030 0.02160 -0.44800
O 	O 	0.08340 0.65910 0.97150 -0.46200
O 	O 	0.08020 0.67430 0.89230 -0.49200
C 	C 	0.02320 0.89160 0.98070 0.44200
C 	C 	0.04030 0.84050 0.96900 -0.03500
C 	C 	0.05140 0.80830 0.00760 -0.05900
C 	C 	0.06480 0.75860 0.99710 0.23700
C 	C 	0.06800 0.74280 0.94780 -0.25200
C 	C 	0.05760 0.77610 0.90980 0.22400
C 	C 	0.04390 0.82390 0.92140 -0.16200
H 	H 	0.03670 0.84590 0.89560 0.07300
C 	C 	0.07780 0.68880 0.93600 0.39900
N 	N 	0.07860 0.73160 0.03750 -0.35100
H 	H 	0.09050 0.70210 0.03370 0.16500
H 	H 	0.07550 0.74390 0.06690 0.14000
N 	N 	0.04420 0.81730 0.05900 -0.26800
H 	H 	0.03180 0.84520 0.06880 0.14700
H 	H 	0.05220 0.79500 0.08050 0.11300
N 	N 	0.06110 0.76570 0.86140 -0.34900
H 	H 	0.05480 0.78830 0.83970 0.14600
H 	H 	0.06960 0.73630 0.85200 0.18100
O 	O 	0.99890 0.58340 0.94690 -0.56200
O 	O 	0.96980 0.58970 0.02160 -0.43700
O 	O 	0.91660 0.84090 0.97150 -0.45800
O 	O 	0.91980 0.82570 0.89230 -0.49000
C 	C 	0.97680 0.60840 0.98070 0.43900
C 	C 	0.95970 0.65950 0.96900 -0.01800
C 	C 	0.94860 0.69170 0.00760 -0.04900
C 	C 	0.93520 0.74140 0.99710 0.24800
C 	C 	0.93200 0.75720 0.94780 -0.24900
C 	C 	0.94240 0.72390 0.90980 0.24400
C 	C 	0.95610 0.67610 0.92140 -0.16500
H 	H 	0.96330 0.65410 0.89560 0.09000
C 	C 	0.92220 0.81120 0.93600 0.40900
N 	N 	0.92140 0.76840 0.03750 -0.35200
H 	H 	0.90950 0.79790 0.03370 0.17400
H 	H 	0.92450 0.75610 0.06690 0.15000
N 	N 	0.95580 0.68270 0.05900 -0.27200
H 	H 	0.96820 0.65480 0.06880 0.16500
H 	H 	0.94780 0.70500 0.08050 0.12700
N 	N 	0.93890 0.73430 0.86140 -0.35400
H 	H 	0.94520 0.71170 0.83970 0.16300
H 	H 	0.93040 0.76370 0.85200 0.19200
O 	O 	0.49890 0.08340 0.44690 -0.60200
O 	O 	0.46980 0.08970 0.52160 -0.42700
O 	O 	0.41660 0.34090 0.47150 -0.47000
O 	O 	0.41980 0.32570 0.39230 -0.48300
C 	C 	0.47680 0.10840 0.48070 0.41800
C 	C 	0.45970 0.15950 0.46900 -0.10200
C 	C 	0.44860 0.19170 0.50760 0.05900
C 	C 	0.43520 0.24140 0.49710 0.13700
C 	C 	0.43200 0.25720 0.44780 -0.21000
C 	C 	0.44240 0.22390 0.40980 0.19800
C 	C 	0.45610 0.17610 0.42140 -0.11500
H 	H 	0.46330 0.15410 0.39560 0.06500
C 	C 	0.42220 0.31120 0.43600 0.39000
N 	N 	0.42140 0.26840 0.53750 -0.31300
H 	H 	0.40950 0.29790 0.53370 0.17300
H 	H 	0.42450 0.25610 0.56690 0.13700
N 	N 	0.45580 0.18270 0.55900 -0.29100
H 	H 	0.46820 0.15480 0.56880 0.16500
H 	H 	0.44780 0.20500 0.58050 0.13000
N 	N 	0.43890 0.23430 0.36140 -0.34200
H 	H 	0.44520 0.21170 0.33970 0.15100
H 	H 	0.43040 0.26370 0.35200 0.18300
O 	O 	0.00110 0.08340 0.55310 -0.62000
O 	O 	0.03020 0.08970 0.47840 -0.42900
O 	O 	0.08340 0.34090 0.52850 -0.47400
O 	O 	0.08020 0.32570 0.60770 -0.48500
C 	C 	0.02320 0.10840 0.51930 0.41900
C 	C 	0.04030 0.15950 0.53100 -0.11200
C 	C 	0.05140 0.19170 0.49240 0.05600
C 	C 	0.06480 0.24140 0.50290 0.12900
C 	C 	0.06800 0.25720 0.55220 -0.21100
C 	C 	0.05760 0.22390 0.59020 0.18700
C 	C 	0.04390 0.17610 0.57860 -0.11200
H 	H 	0.03670 0.15410 0.60440 0.05600
C 	C 	0.07780 0.31120 0.56400 0.38500
N 	N 	0.07860 0.26840 0.46250 -0.31200
H 	H 	0.09050 0.29790 0.46630 0.16900
H 	H 	0.07550 0.25610 0.43310 0.13200
N 	N 	0.04420 0.18270 0.44100 -0.29000
H 	H 	0.03180 0.15480 0.43120 0.15700
H 	H 	0.05220 0.20500 0.41950 0.12400
N 	N 	0.06110 0.23430 0.63860 -0.33900
H 	H 	0.05480 0.21170 0.66030 0.14300
H 	H 	0.06960 0.26370 0.64800 0.17700
O 	O 	0.50110 0.58340 0.05310 -0.59300
O 	O 	0.53020 0.58970 0.97840 -0.38700
O 	O 	0.58340 0.84090 0.02850 -0.48500
O 	O 	0.58020 0.82570 0.10770 -0.48000
C 	C 	0.52320 0.60840 0.01930 0.38600
C 	C 	0.54030 0.65950 0.03100 -0.17400
C 	C 	0.55140 0.69170 0.99240 0.17300
C 	C 	0.56480 0.74140 0.00290 0.03100
C 	C 	0.56800 0.75720 0.05220 -0.17100
C 	C 	0.55760 0.72390 0.09020 0.16300
C 	C 	0.54390 0.67610 0.07860 -0.06800
H 	H 	0.53670 0.65410 0.10440 0.05100
C 	C 	0.57780 0.81120 0.06400 0.37600
N 	N 	0.57860 0.76840 0.96250 -0.27400
H 	H 	0.59050 0.79790 0.96630 0.17700
H 	H 	0.57550 0.75610 0.93310 0.13000
N 	N 	0.54420 0.68270 0.94100 -0.31100
H 	H 	0.53180 0.65480 0.93120 0.17500
H 	H 	0.55220 0.70500 0.91950 0.14100
N 	N 	0.56110 0.73430 0.13860 -0.33300
H 	H 	0.55480 0.71170 0.16030 0.14900
H 	H 	0.56960 0.76370 0.14800 0.18000
Nd	Nd	0.91525 0.41525 0.08475 2.35800
Nd	Nd	0.41525 0.91525 0.58475 2.39000
Nd	Nd	0.58475 0.58475 0.58475 2.35300
Nd	Nd	0.08475 0.08475 0.08475 2.25300
Nd	Nd	0.08475 0.91525 0.41525 2.35800
Nd	Nd	0.58475 0.41525 0.91525 2.39000
Nd	Nd	0.41525 0.08475 0.91525 2.35800
Nd	Nd	0.91525 0.58475 0.41525 2.39000
Nd	Nd	0.08475 0.58475 0.91525 2.35800
Nd	Nd	0.58475 0.08475 0.41525 2.32100
Nd	Nd	0.41525 0.41525 0.41525 2.35400
Nd	Nd	0.91525 0.91525 0.91525 2.45500
Nd	Nd	0.91525 0.08475 0.58475 2.35800
Nd	Nd	0.41525 0.58475 0.08475 2.32100
Nd	Nd	0.58475 0.91525 0.08475 2.35800
Nd	Nd	0.08475 0.41525 0.58475 2.32100
Nd	Nd	-0.00000 0.50000 -0.00000 1.99400
Nd	Nd	0.50000 0.00000 0.50000 2.10700
Nd	Nd	0.50000 0.50000 0.50000 2.22200
Nd	Nd	-0.00000 0.00000 -0.00000 1.87700
Nd	Nd	0.00000 0.00000 0.50000 1.99400
Nd	Nd	0.50000 0.50000 -0.00000 2.10700
Nd	Nd	0.50000 0.00000 -0.00000 1.99400
Nd	Nd	0.00000 0.50000 0.50000 2.10700
