data_crystal

_cell_length_a 32.61400
_cell_length_b 18.97600
_cell_length_c 17.57000
_cell_angle_alpha 90.00000
_cell_angle_beta  103.20600
_cell_angle_gamma 90.00000

_symmetry_space_group_name_	'P 1'
_symmetry_space_group_name_H-M	'P 1'

loop_
_symmetry_equiv_pos_as_xyz
  x,y,z

loop_
_atom_site_label
_atom_site_type_symbol
_atom_site_fract_x
_atom_site_fract_y
_atom_site_fract_z
_atom_site_charge
Co	Co	0.90100 0.35351 0.95937 1.15300
O 	O 	0.93209 0.41033 0.06067 -0.38600
O 	O 	0.94863 0.29915 0.05032 -0.36200
O 	O 	0.85624 0.31929 0.01908 -0.40600
O 	O 	0.81899 0.40483 0.05890 -0.28600
N 	N 	0.86058 0.43039 0.89754 -0.23700
N 	N 	0.82208 0.52525 0.86495 -0.14500
N 	N 	0.84992 0.16669 0.84810 -0.14200
N 	N 	0.88097 0.26878 0.88180 -0.23000
N 	N 	0.51179 0.89904 0.87649 -0.14500
N 	N 	0.44878 0.88412 0.90088 -0.22900
C 	C 	0.95101 0.35538 0.08910 0.30700
C 	C 	0.97641 0.35695 0.17210 -0.10000
C 	C 	0.95553 0.35821 0.23340 0.04400
C 	C 	0.91051 0.36066 0.21940 -0.08000
H 	H 	0.89410 0.36190 0.16730 0.07600
C 	C 	0.89124 0.36130 0.28020 -0.02200
H 	H 	0.86140 0.36220 0.27020 0.04300
C 	C 	0.91503 0.36060 0.35830 -0.02800
H 	H 	0.90100 0.36110 0.40010 0.04100
C 	C 	0.04235 0.35910 0.12590 -0.07000
H 	H 	0.02680 0.35920 0.07310 0.06300
C 	C 	0.02053 0.35741 0.18760 0.04000
C 	C 	0.82310 0.34531 0.03328 0.34600
C 	C 	0.78511 0.29613 0.01647 -0.11500
C 	C 	0.75689 0.29829 0.94370 0.03900
C 	C 	0.76296 0.34486 0.88320 -0.07300
H 	H 	0.78640 0.37590 0.89330 0.06100
C 	C 	0.73626 0.34580 0.81240 -0.02800
H 	H 	0.74140 0.37660 0.77300 0.04300
C 	C 	0.70044 0.30080 0.79610 -0.02200
H 	H 	0.68170 0.30190 0.74600 0.03800
C 	C 	0.80705 0.24340 0.14850 -0.07700
H 	H 	0.83150 0.27210 0.15970 0.06700
C 	C 	0.77889 0.24788 0.07310 0.04600
C 	C 	0.84434 0.43013 0.81810 -0.00300
H 	H 	0.84910 0.39440 0.78310 0.02300
C 	C 	0.82068 0.48817 0.79730 0.00600
H 	H 	0.80600 0.50090 0.74600 0.03200
C 	C 	0.84666 0.48842 0.92368 0.10200
H 	H 	0.85310 0.50260 0.97700 0.00200
C 	C 	0.80275 0.59226 0.86980 0.12900
C 	C 	0.76665 0.61034 0.81370 -0.13400
H 	H 	0.75430 0.57790 0.77390 0.08400
C 	C 	0.74925 0.67631 0.81710 0.02000
H 	H 	0.72480 0.68910 0.77870 0.02900
C 	C 	0.76644 0.72418 0.87490 -0.06300
C 	C 	0.80239 0.70497 0.93067 0.02200
H 	H 	0.81460 0.73710 0.97090 0.02300
C 	C 	0.82037 0.63925 0.92767 -0.13700
H 	H 	0.84500 0.62660 0.96570 0.08200
C 	C 	0.74733 0.79486 0.87760 0.11200
C 	C 	0.70432 0.80153 0.87264 -0.17000
H 	H 	0.68710 0.76060 0.86620 0.08800
C 	C 	0.68621 0.86750 0.87694 0.11400
C 	C 	0.71191 0.92673 0.88271 -0.17400
H 	H 	0.70010 0.97190 0.88670 0.10100
C 	C 	0.75463 0.92158 0.88285 0.11100
C 	C 	0.77224 0.85462 0.88370 -0.17100
H 	H 	0.80170 0.84990 0.88850 0.08700
C 	C 	0.77979 0.98527 0.87561 -0.05800
C 	C 	0.81448 0.98133 0.84120 0.01300
H 	H 	0.82230 0.93680 0.82430 0.02400
C 	C 	0.83774 0.04055 0.83100 -0.13000
H 	H 	0.86130 0.03660 0.80800 0.07900
C 	C 	0.82597 0.10529 0.85500 0.12300
C 	C 	0.79136 0.11104 0.88800 -0.12700
H 	H 	0.78320 0.15590 0.90330 0.08400
C 	C 	0.76867 0.05166 0.89860 0.00900
H 	H 	0.74520 0.05610 0.92200 0.04700
C 	C 	0.87354 0.18165 0.79380 0.00100
H 	H 	0.87620 0.15350 0.75040 0.03000
C 	C 	0.89203 0.24429 0.81520 0.00600
H 	H 	0.91010 0.26820 0.78830 0.02300
C 	C 	0.85567 0.22081 0.89910 0.09300
H 	H 	0.84290 0.22380 0.94250 0.00900
C 	C 	0.64051 0.87463 0.87468 -0.07200
C 	C 	0.62034 0.93933 0.86220 0.03000
H 	H 	0.63600 0.97950 0.85320 0.02900
C 	C 	0.57842 0.94719 0.86230 -0.14600
H 	H 	0.56560 0.99230 0.85360 0.10200
C 	C 	0.55502 0.88938 0.87510 0.13700
C 	C 	0.57401 0.82395 0.88730 -0.14600
H 	H 	0.55810 0.78390 0.89570 0.08000
C 	C 	0.61604 0.81680 0.88730 0.02400
H 	H 	0.62880 0.77160 0.89600 0.01700
C 	C 	0.48853 0.95840 0.85110 0.01100
H 	H 	0.49760 0.99880 0.82750 0.03500
C 	C 	0.45041 0.94810 0.86600 0.00200
H 	H 	0.42770 0.98070 0.85410 0.02600
C 	C 	0.48629 0.85586 0.90510 0.10100
H 	H 	0.49430 0.81040 0.92590 -0.00800
Co	Co	0.40100 0.85351 0.95937 1.15300
O 	O 	0.43209 0.91033 0.06067 -0.38400
O 	O 	0.44863 0.79915 0.05032 -0.36000
O 	O 	0.35624 0.81929 0.01908 -0.40500
O 	O 	0.31899 0.90483 0.05890 -0.28400
N 	N 	0.36058 0.93039 0.89754 -0.23600
N 	N 	0.32208 0.02525 0.86495 -0.14200
N 	N 	0.34992 0.66669 0.84810 -0.14100
N 	N 	0.38097 0.76878 0.88180 -0.23100
N 	N 	0.01179 0.39904 0.87649 -0.14500
N 	N 	0.94878 0.38412 0.90088 -0.22900
C 	C 	0.45101 0.85538 0.08910 0.30700
C 	C 	0.47641 0.85695 0.17210 -0.10100
C 	C 	0.45553 0.85821 0.23340 0.04500
C 	C 	0.41051 0.86066 0.21940 -0.08000
H 	H 	0.39410 0.86190 0.16730 0.07600
C 	C 	0.39124 0.86130 0.28020 -0.02100
H 	H 	0.36140 0.86220 0.27020 0.04300
C 	C 	0.41503 0.86060 0.35830 -0.02800
H 	H 	0.40100 0.86110 0.40010 0.04100
C 	C 	0.54235 0.85910 0.12590 -0.07100
H 	H 	0.52680 0.85920 0.07310 0.06300
C 	C 	0.52053 0.85741 0.18760 0.04100
C 	C 	0.32310 0.84531 0.03328 0.34500
C 	C 	0.28511 0.79613 0.01647 -0.11300
C 	C 	0.25689 0.79829 0.94370 0.03700
C 	C 	0.26296 0.84486 0.88320 -0.07200
H 	H 	0.28640 0.87590 0.89330 0.06000
C 	C 	0.23626 0.84580 0.81240 -0.02900
H 	H 	0.24140 0.87660 0.77300 0.04300
C 	C 	0.20044 0.80080 0.79610 -0.02100
H 	H 	0.18170 0.80190 0.74600 0.03700
C 	C 	0.30705 0.74340 0.14850 -0.07500
H 	H 	0.33150 0.77210 0.15970 0.06600
C 	C 	0.27889 0.74788 0.07310 0.04400
C 	C 	0.34434 0.93013 0.81810 -0.00200
H 	H 	0.34910 0.89440 0.78310 0.02200
C 	C 	0.32068 0.98817 0.79730 0.00300
H 	H 	0.30600 0.00090 0.74600 0.03400
C 	C 	0.34666 0.98842 0.92368 0.09900
H 	H 	0.35310 0.00260 0.97700 0.00500
C 	C 	0.30275 0.09226 0.86980 0.12800
C 	C 	0.26665 0.11034 0.81370 -0.13300
H 	H 	0.25430 0.07790 0.77390 0.08400
C 	C 	0.24925 0.17631 0.81710 0.02000
H 	H 	0.22480 0.18910 0.77870 0.02900
C 	C 	0.26644 0.22418 0.87490 -0.06200
C 	C 	0.30239 0.20497 0.93067 0.02200
H 	H 	0.31460 0.23710 0.97090 0.02400
C 	C 	0.32037 0.13925 0.92767 -0.13700
H 	H 	0.34500 0.12660 0.96570 0.08200
C 	C 	0.24733 0.29486 0.87760 0.11300
C 	C 	0.20432 0.30153 0.87264 -0.17000
H 	H 	0.18710 0.26060 0.86620 0.08800
C 	C 	0.18621 0.36750 0.87694 0.11400
C 	C 	0.21191 0.42673 0.88271 -0.17400
H 	H 	0.20010 0.47190 0.88670 0.10200
C 	C 	0.25463 0.42158 0.88285 0.11100
C 	C 	0.27224 0.35462 0.88370 -0.17100
H 	H 	0.30170 0.34990 0.88850 0.08700
C 	C 	0.27979 0.48527 0.87561 -0.05600
C 	C 	0.31448 0.48133 0.84120 0.01400
H 	H 	0.32230 0.43680 0.82430 0.02400
C 	C 	0.33774 0.54055 0.83100 -0.13100
H 	H 	0.36130 0.53660 0.80800 0.07900
C 	C 	0.32597 0.60529 0.85500 0.12300
C 	C 	0.29136 0.61104 0.88800 -0.12600
H 	H 	0.28320 0.65590 0.90330 0.08400
C 	C 	0.26867 0.55166 0.89860 0.00700
H 	H 	0.24520 0.55610 0.92200 0.04800
C 	C 	0.37354 0.68165 0.79380 0.00100
H 	H 	0.37620 0.65350 0.75040 0.03000
C 	C 	0.39203 0.74429 0.81520 0.00600
H 	H 	0.41010 0.76820 0.78830 0.02300
C 	C 	0.35567 0.72081 0.89910 0.09300
H 	H 	0.34290 0.72380 0.94250 0.00800
C 	C 	0.14051 0.37463 0.87468 -0.07200
C 	C 	0.12034 0.43933 0.86220 0.03000
H 	H 	0.13600 0.47950 0.85320 0.03000
C 	C 	0.07842 0.44719 0.86230 -0.14600
H 	H 	0.06560 0.49230 0.85360 0.10300
C 	C 	0.05502 0.38938 0.87510 0.13700
C 	C 	0.07401 0.32395 0.88730 -0.14600
H 	H 	0.05810 0.28390 0.89570 0.08100
C 	C 	0.11604 0.31680 0.88730 0.02500
H 	H 	0.12880 0.27160 0.89600 0.01700
C 	C 	0.98853 0.45840 0.85110 0.01100
H 	H 	0.99760 0.49880 0.82750 0.03500
C 	C 	0.95041 0.44810 0.86600 0.00300
H 	H 	0.92770 0.48070 0.85410 0.02700
C 	C 	0.98629 0.35586 0.90510 0.10100
H 	H 	0.99430 0.31040 0.92590 -0.00800
Co	Co	0.09900 0.35351 0.54063 1.15400
O 	O 	0.06791 0.41033 0.43933 -0.38500
O 	O 	0.05137 0.29915 0.44968 -0.36100
O 	O 	0.14376 0.31929 0.48092 -0.40500
O 	O 	0.18101 0.40483 0.44110 -0.28500
N 	N 	0.13942 0.43039 0.60246 -0.23600
N 	N 	0.17792 0.52525 0.63505 -0.14400
N 	N 	0.15008 0.16669 0.65190 -0.14100
N 	N 	0.11903 0.26878 0.61820 -0.23000
N 	N 	0.48821 0.89904 0.62351 -0.14500
N 	N 	0.55122 0.88412 0.59912 -0.22900
C 	C 	0.04899 0.35538 0.41090 0.30700
C 	C 	0.02359 0.35695 0.32790 -0.10200
C 	C 	0.04447 0.35821 0.26660 0.04500
C 	C 	0.08949 0.36066 0.28060 -0.08000
H 	H 	0.10590 0.36190 0.33270 0.07600
C 	C 	0.10876 0.36130 0.21980 -0.02100
H 	H 	0.13860 0.36220 0.22980 0.04200
C 	C 	0.08497 0.36060 0.14170 -0.02900
H 	H 	0.09900 0.36110 0.09990 0.04100
C 	C 	0.95765 0.35910 0.37410 -0.07100
H 	H 	0.97320 0.35920 0.42690 0.06300
C 	C 	0.97947 0.35741 0.31240 0.04200
C 	C 	0.17690 0.34531 0.46672 0.34600
C 	C 	0.21489 0.29613 0.48353 -0.11400
C 	C 	0.24311 0.29829 0.55630 0.03800
C 	C 	0.23704 0.34486 0.61680 -0.07300
H 	H 	0.21360 0.37590 0.60670 0.06000
C 	C 	0.26374 0.34580 0.68760 -0.02800
H 	H 	0.25860 0.37660 0.72700 0.04300
C 	C 	0.29956 0.30080 0.70390 -0.02200
H 	H 	0.31830 0.30190 0.75400 0.03800
C 	C 	0.19295 0.24340 0.35150 -0.07600
H 	H 	0.16850 0.27210 0.34030 0.06700
C 	C 	0.22111 0.24788 0.42690 0.04500
C 	C 	0.15566 0.43013 0.68190 -0.00300
H 	H 	0.15090 0.39440 0.71690 0.02300
C 	C 	0.17932 0.48817 0.70270 0.00600
H 	H 	0.19400 0.50090 0.75400 0.03200
C 	C 	0.15334 0.48842 0.57632 0.10200
H 	H 	0.14690 0.50260 0.52300 0.00200
C 	C 	0.19725 0.59226 0.63020 0.12900
C 	C 	0.23335 0.61034 0.68630 -0.13400
H 	H 	0.24570 0.57790 0.72610 0.08400
C 	C 	0.25075 0.67631 0.68290 0.02000
H 	H 	0.27520 0.68910 0.72130 0.02900
C 	C 	0.23356 0.72418 0.62510 -0.06300
C 	C 	0.19761 0.70497 0.56933 0.02200
H 	H 	0.18540 0.73710 0.52910 0.02300
C 	C 	0.17963 0.63925 0.57233 -0.13700
H 	H 	0.15500 0.62660 0.53430 0.08200
C 	C 	0.25267 0.79486 0.62240 0.11200
C 	C 	0.29568 0.80153 0.62736 -0.17000
H 	H 	0.31290 0.76060 0.63380 0.08800
C 	C 	0.31379 0.86750 0.62306 0.11400
C 	C 	0.28809 0.92673 0.61729 -0.17400
H 	H 	0.29990 0.97190 0.61330 0.10100
C 	C 	0.24537 0.92158 0.61715 0.11000
C 	C 	0.22776 0.85462 0.61630 -0.17100
H 	H 	0.19830 0.84990 0.61150 0.08700
C 	C 	0.22021 0.98527 0.62439 -0.05700
C 	C 	0.18552 0.98133 0.65880 0.01300
H 	H 	0.17770 0.93680 0.67570 0.02400
C 	C 	0.16226 0.04055 0.66900 -0.13000
H 	H 	0.13870 0.03660 0.69200 0.07900
C 	C 	0.17403 0.10529 0.64500 0.12300
C 	C 	0.20864 0.11104 0.61200 -0.12600
H 	H 	0.21680 0.15590 0.59670 0.08400
C 	C 	0.23133 0.05166 0.60140 0.00800
H 	H 	0.25480 0.05610 0.57800 0.04800
C 	C 	0.12646 0.18165 0.70620 0.00100
H 	H 	0.12380 0.15350 0.74960 0.03000
C 	C 	0.10797 0.24429 0.68480 0.00600
H 	H 	0.08990 0.26820 0.71170 0.02300
C 	C 	0.14433 0.22081 0.60090 0.09300
H 	H 	0.15710 0.22380 0.55750 0.00900
C 	C 	0.35949 0.87463 0.62532 -0.07200
C 	C 	0.37966 0.93933 0.63780 0.03000
H 	H 	0.36400 0.97950 0.64680 0.02900
C 	C 	0.42158 0.94719 0.63770 -0.14600
H 	H 	0.43440 0.99230 0.64640 0.10300
C 	C 	0.44498 0.88938 0.62490 0.13700
C 	C 	0.42599 0.82395 0.61270 -0.14600
H 	H 	0.44190 0.78390 0.60430 0.08100
C 	C 	0.38396 0.81680 0.61270 0.02400
H 	H 	0.37120 0.77160 0.60400 0.01700
C 	C 	0.51147 0.95840 0.64890 0.01100
H 	H 	0.50240 0.99880 0.67250 0.03500
C 	C 	0.54959 0.94810 0.63400 0.00200
H 	H 	0.57230 0.98070 0.64590 0.02700
C 	C 	0.51371 0.85586 0.59490 0.10200
H 	H 	0.50570 0.81040 0.57410 -0.00800
Co	Co	0.59900 0.85351 0.54063 1.15400
O 	O 	0.56791 0.91033 0.43933 -0.38500
O 	O 	0.55137 0.79915 0.44968 -0.36100
O 	O 	0.64376 0.81929 0.48092 -0.40500
O 	O 	0.68101 0.90483 0.44110 -0.28500
N 	N 	0.63942 0.93039 0.60246 -0.23600
N 	N 	0.67792 0.02525 0.63505 -0.14300
N 	N 	0.65008 0.66669 0.65190 -0.14100
N 	N 	0.61903 0.76878 0.61820 -0.23000
N 	N 	0.98821 0.39904 0.62351 -0.14500
N 	N 	0.05122 0.38412 0.59912 -0.22900
C 	C 	0.54899 0.85538 0.41090 0.30700
C 	C 	0.52359 0.85695 0.32790 -0.10100
C 	C 	0.54447 0.85821 0.26660 0.04500
C 	C 	0.58949 0.86066 0.28060 -0.08000
H 	H 	0.60590 0.86190 0.33270 0.07600
C 	C 	0.60876 0.86130 0.21980 -0.02100
H 	H 	0.63860 0.86220 0.22980 0.04300
C 	C 	0.58497 0.86060 0.14170 -0.02800
H 	H 	0.59900 0.86110 0.09990 0.04100
C 	C 	0.45765 0.85910 0.37410 -0.07100
H 	H 	0.47320 0.85920 0.42690 0.06300
C 	C 	0.47947 0.85741 0.31240 0.04100
C 	C 	0.67690 0.84531 0.46672 0.34600
C 	C 	0.71489 0.79613 0.48353 -0.11400
C 	C 	0.74311 0.79829 0.55630 0.03800
C 	C 	0.73704 0.84486 0.61680 -0.07300
H 	H 	0.71360 0.87590 0.60670 0.06000
C 	C 	0.76374 0.84580 0.68760 -0.02800
H 	H 	0.75860 0.87660 0.72700 0.04300
C 	C 	0.79956 0.80080 0.70390 -0.02100
H 	H 	0.81830 0.80190 0.75400 0.03800
C 	C 	0.69295 0.74340 0.35150 -0.07600
H 	H 	0.66850 0.77210 0.34030 0.06700
C 	C 	0.72111 0.74788 0.42690 0.04500
C 	C 	0.65566 0.93013 0.68190 -0.00200
H 	H 	0.65090 0.89440 0.71690 0.02200
C 	C 	0.67932 0.98817 0.70270 0.00400
H 	H 	0.69400 0.00090 0.75400 0.03300
C 	C 	0.65334 0.98842 0.57632 0.10200
H 	H 	0.64690 0.00260 0.52300 0.00300
C 	C 	0.69725 0.09226 0.63020 0.12900
C 	C 	0.73335 0.11034 0.68630 -0.13400
H 	H 	0.74570 0.07790 0.72610 0.08400
C 	C 	0.75075 0.17631 0.68290 0.02000
H 	H 	0.77520 0.18910 0.72130 0.02900
C 	C 	0.73356 0.22418 0.62510 -0.06300
C 	C 	0.69761 0.20497 0.56933 0.02200
H 	H 	0.68540 0.23710 0.52910 0.02400
C 	C 	0.67963 0.13925 0.57233 -0.13700
H 	H 	0.65500 0.12660 0.53430 0.08200
C 	C 	0.75267 0.29486 0.62240 0.11200
C 	C 	0.79568 0.30153 0.62736 -0.17000
H 	H 	0.81290 0.26060 0.63380 0.08800
C 	C 	0.81379 0.36750 0.62306 0.11400
C 	C 	0.78809 0.42673 0.61729 -0.17400
H 	H 	0.79990 0.47190 0.61330 0.10200
C 	C 	0.74537 0.42158 0.61715 0.11100
C 	C 	0.72776 0.35462 0.61630 -0.17100
H 	H 	0.69830 0.34990 0.61150 0.08700
C 	C 	0.72021 0.48527 0.62439 -0.05700
C 	C 	0.68552 0.48133 0.65880 0.01400
H 	H 	0.67770 0.43680 0.67570 0.02400
C 	C 	0.66226 0.54055 0.66900 -0.13100
H 	H 	0.63870 0.53660 0.69200 0.07900
C 	C 	0.67403 0.60529 0.64500 0.12300
C 	C 	0.70864 0.61104 0.61200 -0.12600
H 	H 	0.71680 0.65590 0.59670 0.08400
C 	C 	0.73133 0.55166 0.60140 0.00700
H 	H 	0.75480 0.55610 0.57800 0.04800
C 	C 	0.62646 0.68165 0.70620 0.00100
H 	H 	0.62380 0.65350 0.74960 0.03000
C 	C 	0.60797 0.74429 0.68480 0.00600
H 	H 	0.58990 0.76820 0.71170 0.02300
C 	C 	0.64433 0.72081 0.60090 0.09300
H 	H 	0.65710 0.72380 0.55750 0.00900
C 	C 	0.85949 0.37463 0.62532 -0.07200
C 	C 	0.87966 0.43933 0.63780 0.03000
H 	H 	0.86400 0.47950 0.64680 0.03000
C 	C 	0.92158 0.44719 0.63770 -0.14600
H 	H 	0.93440 0.49230 0.64640 0.10300
C 	C 	0.94498 0.38938 0.62490 0.13700
C 	C 	0.92599 0.32395 0.61270 -0.14600
H 	H 	0.94190 0.28390 0.60430 0.08100
C 	C 	0.88396 0.31680 0.61270 0.02400
H 	H 	0.87120 0.27160 0.60400 0.01700
C 	C 	0.01147 0.45840 0.64890 0.01100
H 	H 	0.00240 0.49880 0.67250 0.03500
C 	C 	0.04959 0.44810 0.63400 0.00200
H 	H 	0.07230 0.48070 0.64590 0.02700
C 	C 	0.01371 0.35586 0.59490 0.10200
H 	H 	0.00570 0.31040 0.57410 -0.00800
Co	Co	0.09900 0.64649 0.04063 1.15400
O 	O 	0.06791 0.58967 0.93933 -0.38500
O 	O 	0.05137 0.70085 0.94968 -0.36100
O 	O 	0.14376 0.68071 0.98092 -0.40500
O 	O 	0.18101 0.59517 0.94110 -0.28500
N 	N 	0.13942 0.56961 0.10246 -0.23600
N 	N 	0.17792 0.47475 0.13505 -0.14400
N 	N 	0.15008 0.83331 0.15190 -0.14100
N 	N 	0.11903 0.73122 0.11820 -0.23000
N 	N 	0.48821 0.10096 0.12351 -0.14500
N 	N 	0.55122 0.11588 0.09912 -0.22900
C 	C 	0.04899 0.64462 0.91090 0.30700
C 	C 	0.02359 0.64305 0.82790 -0.10000
C 	C 	0.04447 0.64179 0.76660 0.04400
C 	C 	0.08949 0.63934 0.78060 -0.08000
H 	H 	0.10590 0.63810 0.83270 0.07600
C 	C 	0.10876 0.63870 0.71980 -0.02200
H 	H 	0.13860 0.63780 0.72980 0.04300
C 	C 	0.08497 0.63940 0.64170 -0.02800
H 	H 	0.09900 0.63890 0.59990 0.04100
C 	C 	0.95765 0.64090 0.87410 -0.07000
H 	H 	0.97320 0.64080 0.92690 0.06300
C 	C 	0.97947 0.64259 0.81240 0.04000
C 	C 	0.17690 0.65469 0.96672 0.34600
C 	C 	0.21489 0.70387 0.98353 -0.11500
C 	C 	0.24311 0.70171 0.05630 0.03900
C 	C 	0.23704 0.65514 0.11680 -0.07300
H 	H 	0.21360 0.62410 0.10670 0.06100
C 	C 	0.26374 0.65420 0.18760 -0.02800
H 	H 	0.25860 0.62340 0.22700 0.04300
C 	C 	0.29956 0.69920 0.20390 -0.02200
H 	H 	0.31830 0.69810 0.25400 0.03800
C 	C 	0.19295 0.75660 0.85150 -0.07700
H 	H 	0.16850 0.72790 0.84030 0.06700
C 	C 	0.22111 0.75212 0.92690 0.04600
C 	C 	0.15566 0.56987 0.18190 -0.00300
H 	H 	0.15090 0.60560 0.21690 0.02300
C 	C 	0.17932 0.51183 0.20270 0.00600
H 	H 	0.19400 0.49910 0.25400 0.03200
C 	C 	0.15334 0.51158 0.07632 0.10200
H 	H 	0.14690 0.49740 0.02300 0.00200
C 	C 	0.19725 0.40774 0.13020 0.12900
C 	C 	0.23335 0.38966 0.18630 -0.13400
H 	H 	0.24570 0.42210 0.22610 0.08400
C 	C 	0.25075 0.32369 0.18290 0.02000
H 	H 	0.27520 0.31090 0.22130 0.02900
C 	C 	0.23356 0.27582 0.12510 -0.06300
C 	C 	0.19761 0.29503 0.06933 0.02200
H 	H 	0.18540 0.26290 0.02910 0.02300
C 	C 	0.17963 0.36075 0.07233 -0.13700
H 	H 	0.15500 0.37340 0.03430 0.08200
C 	C 	0.25267 0.20514 0.12240 0.11200
C 	C 	0.29568 0.19847 0.12736 -0.17000
H 	H 	0.31290 0.23940 0.13380 0.08800
C 	C 	0.31379 0.13250 0.12306 0.11400
C 	C 	0.28809 0.07327 0.11729 -0.17400
H 	H 	0.29990 0.02810 0.11330 0.10100
C 	C 	0.24537 0.07842 0.11715 0.11100
C 	C 	0.22776 0.14538 0.11630 -0.17100
H 	H 	0.19830 0.15010 0.11150 0.08700
C 	C 	0.22021 0.01473 0.12439 -0.05800
C 	C 	0.18552 0.01867 0.15880 0.01300
H 	H 	0.17770 0.06320 0.17570 0.02400
C 	C 	0.16226 0.95945 0.16900 -0.13000
H 	H 	0.13870 0.96340 0.19200 0.07900
C 	C 	0.17403 0.89471 0.14500 0.12300
C 	C 	0.20864 0.88896 0.11200 -0.12700
H 	H 	0.21680 0.84410 0.09670 0.08400
C 	C 	0.23133 0.94834 0.10140 0.00900
H 	H 	0.25480 0.94390 0.07800 0.04700
C 	C 	0.12646 0.81835 0.20620 0.00100
H 	H 	0.12380 0.84650 0.24960 0.03000
C 	C 	0.10797 0.75571 0.18480 0.00600
H 	H 	0.08990 0.73180 0.21170 0.02300
C 	C 	0.14433 0.77919 0.10090 0.09300
H 	H 	0.15710 0.77620 0.05750 0.00900
C 	C 	0.35949 0.12537 0.12532 -0.07200
C 	C 	0.37966 0.06067 0.13780 0.03000
H 	H 	0.36400 0.02050 0.14680 0.02900
C 	C 	0.42158 0.05281 0.13770 -0.14600
H 	H 	0.43440 0.00770 0.14640 0.10200
C 	C 	0.44498 0.11062 0.12490 0.13700
C 	C 	0.42599 0.17605 0.11270 -0.14600
H 	H 	0.44190 0.21610 0.10430 0.08000
C 	C 	0.38396 0.18320 0.11270 0.02400
H 	H 	0.37120 0.22840 0.10400 0.01700
C 	C 	0.51147 0.04160 0.14890 0.01100
H 	H 	0.50240 0.00120 0.17250 0.03500
C 	C 	0.54959 0.05190 0.13400 0.00200
H 	H 	0.57230 0.01930 0.14590 0.02600
C 	C 	0.51371 0.14414 0.09490 0.10100
H 	H 	0.50570 0.18960 0.07410 -0.00800
Co	Co	0.59900 0.14649 0.04063 1.15300
O 	O 	0.56791 0.08967 0.93933 -0.38400
O 	O 	0.55137 0.20085 0.94968 -0.36000
O 	O 	0.64376 0.18071 0.98092 -0.40500
O 	O 	0.68101 0.09517 0.94110 -0.28400
N 	N 	0.63942 0.06961 0.10246 -0.23600
N 	N 	0.67792 0.97475 0.13505 -0.14200
N 	N 	0.65008 0.33331 0.15190 -0.14100
N 	N 	0.61903 0.23122 0.11820 -0.23100
N 	N 	0.98821 0.60096 0.12351 -0.14500
N 	N 	0.05122 0.61588 0.09912 -0.22900
C 	C 	0.54899 0.14462 0.91090 0.30700
C 	C 	0.52359 0.14305 0.82790 -0.10100
C 	C 	0.54447 0.14179 0.76660 0.04500
C 	C 	0.58949 0.13934 0.78060 -0.08000
H 	H 	0.60590 0.13810 0.83270 0.07600
C 	C 	0.60876 0.13870 0.71980 -0.02100
H 	H 	0.63860 0.13780 0.72980 0.04300
C 	C 	0.58497 0.13940 0.64170 -0.02800
H 	H 	0.59900 0.13890 0.59990 0.04100
C 	C 	0.45765 0.14090 0.87410 -0.07100
H 	H 	0.47320 0.14080 0.92690 0.06300
C 	C 	0.47947 0.14259 0.81240 0.04100
C 	C 	0.67690 0.15469 0.96672 0.34500
C 	C 	0.71489 0.20387 0.98353 -0.11300
C 	C 	0.74311 0.20171 0.05630 0.03700
C 	C 	0.73704 0.15514 0.11680 -0.07200
H 	H 	0.71360 0.12410 0.10670 0.06000
C 	C 	0.76374 0.15420 0.18760 -0.02900
H 	H 	0.75860 0.12340 0.22700 0.04300
C 	C 	0.79956 0.19920 0.20390 -0.02100
H 	H 	0.81830 0.19810 0.25400 0.03700
C 	C 	0.69295 0.25660 0.85150 -0.07500
H 	H 	0.66850 0.22790 0.84030 0.06600
C 	C 	0.72111 0.25212 0.92690 0.04400
C 	C 	0.65566 0.06987 0.18190 -0.00200
H 	H 	0.65090 0.10560 0.21690 0.02200
C 	C 	0.67932 0.01183 0.20270 0.00300
H 	H 	0.69400 0.99910 0.25400 0.03400
C 	C 	0.65334 0.01158 0.07632 0.09900
H 	H 	0.64690 0.99740 0.02300 0.00500
C 	C 	0.69725 0.90774 0.13020 0.12800
C 	C 	0.73335 0.88966 0.18630 -0.13300
H 	H 	0.74570 0.92210 0.22610 0.08400
C 	C 	0.75075 0.82369 0.18290 0.02000
H 	H 	0.77520 0.81090 0.22130 0.02900
C 	C 	0.73356 0.77582 0.12510 -0.06200
C 	C 	0.69761 0.79503 0.06933 0.02200
H 	H 	0.68540 0.76290 0.02910 0.02400
C 	C 	0.67963 0.86075 0.07233 -0.13700
H 	H 	0.65500 0.87340 0.03430 0.08200
C 	C 	0.75267 0.70514 0.12240 0.11300
C 	C 	0.79568 0.69847 0.12736 -0.17000
H 	H 	0.81290 0.73940 0.13380 0.08800
C 	C 	0.81379 0.63250 0.12306 0.11400
C 	C 	0.78809 0.57327 0.11729 -0.17400
H 	H 	0.79990 0.52810 0.11330 0.10200
C 	C 	0.74537 0.57842 0.11715 0.11100
C 	C 	0.72776 0.64538 0.11630 -0.17100
H 	H 	0.69830 0.65010 0.11150 0.08700
C 	C 	0.72021 0.51473 0.12439 -0.05600
C 	C 	0.68552 0.51867 0.15880 0.01400
H 	H 	0.67770 0.56320 0.17570 0.02400
C 	C 	0.66226 0.45945 0.16900 -0.13100
H 	H 	0.63870 0.46340 0.19200 0.07900
C 	C 	0.67403 0.39471 0.14500 0.12300
C 	C 	0.70864 0.38896 0.11200 -0.12600
H 	H 	0.71680 0.34410 0.09670 0.08400
C 	C 	0.73133 0.44834 0.10140 0.00700
H 	H 	0.75480 0.44390 0.07800 0.04800
C 	C 	0.62646 0.31835 0.20620 0.00100
H 	H 	0.62380 0.34650 0.24960 0.03000
C 	C 	0.60797 0.25571 0.18480 0.00600
H 	H 	0.58990 0.23180 0.21170 0.02300
C 	C 	0.64433 0.27919 0.10090 0.09300
H 	H 	0.65710 0.27620 0.05750 0.00800
C 	C 	0.85949 0.62537 0.12532 -0.07200
C 	C 	0.87966 0.56067 0.13780 0.03000
H 	H 	0.86400 0.52050 0.14680 0.03000
C 	C 	0.92158 0.55281 0.13770 -0.14600
H 	H 	0.93440 0.50770 0.14640 0.10300
C 	C 	0.94498 0.61062 0.12490 0.13700
C 	C 	0.92599 0.67605 0.11270 -0.14600
H 	H 	0.94190 0.71610 0.10430 0.08100
C 	C 	0.88396 0.68320 0.11270 0.02500
H 	H 	0.87120 0.72840 0.10400 0.01700
C 	C 	0.01147 0.54160 0.14890 0.01100
H 	H 	0.00240 0.50120 0.17250 0.03500
C 	C 	0.04959 0.55190 0.13400 0.00300
H 	H 	0.07230 0.51930 0.14590 0.02700
C 	C 	0.01371 0.64414 0.09490 0.10100
H 	H 	0.00570 0.68960 0.07410 -0.00800
Co	Co	0.90100 0.64649 0.45937 1.15400
O 	O 	0.93209 0.58967 0.56067 -0.38500
O 	O 	0.94863 0.70085 0.55032 -0.36100
O 	O 	0.85624 0.68071 0.51908 -0.40500
O 	O 	0.81899 0.59517 0.55890 -0.28500
N 	N 	0.86058 0.56961 0.39754 -0.23600
N 	N 	0.82208 0.47475 0.36495 -0.14400
N 	N 	0.84992 0.83331 0.34810 -0.14100
N 	N 	0.88097 0.73122 0.38180 -0.23000
N 	N 	0.51179 0.10096 0.37649 -0.14500
N 	N 	0.44878 0.11588 0.40088 -0.22900
C 	C 	0.95101 0.64462 0.58910 0.30700
C 	C 	0.97641 0.64305 0.67210 -0.10200
C 	C 	0.95553 0.64179 0.73340 0.04500
C 	C 	0.91051 0.63934 0.71940 -0.08000
H 	H 	0.89410 0.63810 0.66730 0.07600
C 	C 	0.89124 0.63870 0.78020 -0.02100
H 	H 	0.86140 0.63780 0.77020 0.04200
C 	C 	0.91503 0.63940 0.85830 -0.02900
H 	H 	0.90100 0.63890 0.90010 0.04100
C 	C 	0.04235 0.64090 0.62590 -0.07100
H 	H 	0.02680 0.64080 0.57310 0.06300
C 	C 	0.02053 0.64259 0.68760 0.04200
C 	C 	0.82310 0.65469 0.53328 0.34600
C 	C 	0.78511 0.70387 0.51647 -0.11400
C 	C 	0.75689 0.70171 0.44370 0.03800
C 	C 	0.76296 0.65514 0.38320 -0.07300
H 	H 	0.78640 0.62410 0.39330 0.06000
C 	C 	0.73626 0.65420 0.31240 -0.02800
H 	H 	0.74140 0.62340 0.27300 0.04300
C 	C 	0.70044 0.69920 0.29610 -0.02200
H 	H 	0.68170 0.69810 0.24600 0.03800
C 	C 	0.80705 0.75660 0.64850 -0.07600
H 	H 	0.83150 0.72790 0.65970 0.06700
C 	C 	0.77889 0.75212 0.57310 0.04500
C 	C 	0.84434 0.56987 0.31810 -0.00300
H 	H 	0.84910 0.60560 0.28310 0.02300
C 	C 	0.82068 0.51183 0.29730 0.00600
H 	H 	0.80600 0.49910 0.24600 0.03200
C 	C 	0.84666 0.51158 0.42368 0.10200
H 	H 	0.85310 0.49740 0.47700 0.00200
C 	C 	0.80275 0.40774 0.36980 0.12900
C 	C 	0.76665 0.38966 0.31370 -0.13400
H 	H 	0.75430 0.42210 0.27390 0.08400
C 	C 	0.74925 0.32369 0.31710 0.02000
H 	H 	0.72480 0.31090 0.27870 0.02900
C 	C 	0.76644 0.27582 0.37490 -0.06300
C 	C 	0.80239 0.29503 0.43067 0.02200
H 	H 	0.81460 0.26290 0.47090 0.02300
C 	C 	0.82037 0.36075 0.42767 -0.13700
H 	H 	0.84500 0.37340 0.46570 0.08200
C 	C 	0.74733 0.20514 0.37760 0.11200
C 	C 	0.70432 0.19847 0.37264 -0.17000
H 	H 	0.68710 0.23940 0.36620 0.08800
C 	C 	0.68621 0.13250 0.37694 0.11400
C 	C 	0.71191 0.07327 0.38271 -0.17400
H 	H 	0.70010 0.02810 0.38670 0.10100
C 	C 	0.75463 0.07842 0.38285 0.11000
C 	C 	0.77224 0.14538 0.38370 -0.17100
H 	H 	0.80170 0.15010 0.38850 0.08700
C 	C 	0.77979 0.01473 0.37561 -0.05700
C 	C 	0.81448 0.01867 0.34120 0.01300
H 	H 	0.82230 0.06320 0.32430 0.02400
C 	C 	0.83774 0.95945 0.33100 -0.13000
H 	H 	0.86130 0.96340 0.30800 0.07900
C 	C 	0.82597 0.89471 0.35500 0.12300
C 	C 	0.79136 0.88896 0.38800 -0.12600
H 	H 	0.78320 0.84410 0.40330 0.08400
C 	C 	0.76867 0.94834 0.39860 0.00800
H 	H 	0.74520 0.94390 0.42200 0.04800
C 	C 	0.87354 0.81835 0.29380 0.00100
H 	H 	0.87620 0.84650 0.25040 0.03000
C 	C 	0.89203 0.75571 0.31520 0.00600
H 	H 	0.91010 0.73180 0.28830 0.02300
C 	C 	0.85567 0.77919 0.39910 0.09300
H 	H 	0.84290 0.77620 0.44250 0.00900
C 	C 	0.64051 0.12537 0.37468 -0.07200
C 	C 	0.62034 0.06067 0.36220 0.03000
H 	H 	0.63600 0.02050 0.35320 0.02900
C 	C 	0.57842 0.05281 0.36230 -0.14600
H 	H 	0.56560 0.00770 0.35360 0.10300
C 	C 	0.55502 0.11062 0.37510 0.13700
C 	C 	0.57401 0.17605 0.38730 -0.14600
H 	H 	0.55810 0.21610 0.39570 0.08100
C 	C 	0.61604 0.18320 0.38730 0.02400
H 	H 	0.62880 0.22840 0.39600 0.01700
C 	C 	0.48853 0.04160 0.35110 0.01100
H 	H 	0.49760 0.00120 0.32750 0.03500
C 	C 	0.45041 0.05190 0.36600 0.00200
H 	H 	0.42770 0.01930 0.35410 0.02700
C 	C 	0.48629 0.14414 0.40510 0.10200
H 	H 	0.49430 0.18960 0.42590 -0.00800
Co	Co	0.40100 0.14649 0.45937 1.15400
O 	O 	0.43209 0.08967 0.56067 -0.38500
O 	O 	0.44863 0.20085 0.55032 -0.36100
O 	O 	0.35624 0.18071 0.51908 -0.40500
O 	O 	0.31899 0.09517 0.55890 -0.28500
N 	N 	0.36058 0.06961 0.39754 -0.23600
N 	N 	0.32208 0.97475 0.36495 -0.14300
N 	N 	0.34992 0.33331 0.34810 -0.14100
N 	N 	0.38097 0.23122 0.38180 -0.23000
N 	N 	0.01179 0.60096 0.37649 -0.14500
N 	N 	0.94878 0.61588 0.40088 -0.22900
C 	C 	0.45101 0.14462 0.58910 0.30700
C 	C 	0.47641 0.14305 0.67210 -0.10100
C 	C 	0.45553 0.14179 0.73340 0.04500
C 	C 	0.41051 0.13934 0.71940 -0.08000
H 	H 	0.39410 0.13810 0.66730 0.07600
C 	C 	0.39124 0.13870 0.78020 -0.02100
H 	H 	0.36140 0.13780 0.77020 0.04300
C 	C 	0.41503 0.13940 0.85830 -0.02800
H 	H 	0.40100 0.13890 0.90010 0.04100
C 	C 	0.54235 0.14090 0.62590 -0.07100
H 	H 	0.52680 0.14080 0.57310 0.06300
C 	C 	0.52053 0.14259 0.68760 0.04100
C 	C 	0.32310 0.15469 0.53328 0.34600
C 	C 	0.28511 0.20387 0.51647 -0.11400
C 	C 	0.25689 0.20171 0.44370 0.03800
C 	C 	0.26296 0.15514 0.38320 -0.07300
H 	H 	0.28640 0.12410 0.39330 0.06000
C 	C 	0.23626 0.15420 0.31240 -0.02800
H 	H 	0.24140 0.12340 0.27300 0.04300
C 	C 	0.20044 0.19920 0.29610 -0.02100
H 	H 	0.18170 0.19810 0.24600 0.03800
C 	C 	0.30705 0.25660 0.64850 -0.07600
H 	H 	0.33150 0.22790 0.65970 0.06700
C 	C 	0.27889 0.25212 0.57310 0.04500
C 	C 	0.34434 0.06987 0.31810 -0.00200
H 	H 	0.34910 0.10560 0.28310 0.02200
C 	C 	0.32068 0.01183 0.29730 0.00400
H 	H 	0.30600 0.99910 0.24600 0.03300
C 	C 	0.34666 0.01158 0.42368 0.10200
H 	H 	0.35310 0.99740 0.47700 0.00300
C 	C 	0.30275 0.90774 0.36980 0.12900
C 	C 	0.26665 0.88966 0.31370 -0.13400
H 	H 	0.25430 0.92210 0.27390 0.08400
C 	C 	0.24925 0.82369 0.31710 0.02000
H 	H 	0.22480 0.81090 0.27870 0.02900
C 	C 	0.26644 0.77582 0.37490 -0.06300
C 	C 	0.30239 0.79503 0.43067 0.02200
H 	H 	0.31460 0.76290 0.47090 0.02400
C 	C 	0.32037 0.86075 0.42767 -0.13700
H 	H 	0.34500 0.87340 0.46570 0.08200
C 	C 	0.24733 0.70514 0.37760 0.11200
C 	C 	0.20432 0.69847 0.37264 -0.17000
H 	H 	0.18710 0.73940 0.36620 0.08800
C 	C 	0.18621 0.63250 0.37694 0.11400
C 	C 	0.21191 0.57327 0.38271 -0.17400
H 	H 	0.20010 0.52810 0.38670 0.10200
C 	C 	0.25463 0.57842 0.38285 0.11100
C 	C 	0.27224 0.64538 0.38370 -0.17100
H 	H 	0.30170 0.65010 0.38850 0.08700
C 	C 	0.27979 0.51473 0.37561 -0.05700
C 	C 	0.31448 0.51867 0.34120 0.01400
H 	H 	0.32230 0.56320 0.32430 0.02400
C 	C 	0.33774 0.45945 0.33100 -0.13100
H 	H 	0.36130 0.46340 0.30800 0.07900
C 	C 	0.32597 0.39471 0.35500 0.12300
C 	C 	0.29136 0.38896 0.38800 -0.12600
H 	H 	0.28320 0.34410 0.40330 0.08400
C 	C 	0.26867 0.44834 0.39860 0.00700
H 	H 	0.24520 0.44390 0.42200 0.04800
C 	C 	0.37354 0.31835 0.29380 0.00100
H 	H 	0.37620 0.34650 0.25040 0.03000
C 	C 	0.39203 0.25571 0.31520 0.00600
H 	H 	0.41010 0.23180 0.28830 0.02300
C 	C 	0.35567 0.27919 0.39910 0.09300
H 	H 	0.34290 0.27620 0.44250 0.00900
C 	C 	0.14051 0.62537 0.37468 -0.07200
C 	C 	0.12034 0.56067 0.36220 0.03000
H 	H 	0.13600 0.52050 0.35320 0.03000
C 	C 	0.07842 0.55281 0.36230 -0.14600
H 	H 	0.06560 0.50770 0.35360 0.10300
C 	C 	0.05502 0.61062 0.37510 0.13700
C 	C 	0.07401 0.67605 0.38730 -0.14600
H 	H 	0.05810 0.71610 0.39570 0.08100
C 	C 	0.11604 0.68320 0.38730 0.02400
H 	H 	0.12880 0.72840 0.39600 0.01700
C 	C 	0.98853 0.54160 0.35110 0.01100
H 	H 	0.99760 0.50120 0.32750 0.03500
C 	C 	0.95041 0.55190 0.36600 0.00200
H 	H 	0.92770 0.51930 0.35410 0.02700
C 	C 	0.98629 0.64414 0.40510 0.10200
H 	H 	0.99430 0.68960 0.42590 -0.00800
