data_crystal

_cell_length_a 4.82180
_cell_length_b 18.29500
_cell_length_c 19.89110
_cell_angle_alpha 90.00000
_cell_angle_beta  90.00000
_cell_angle_gamma 95.07700

_symmetry_space_group_name_	'P 1'
_symmetry_space_group_name_H-M	'P 1'

loop_
_symmetry_equiv_pos_as_xyz
  x,y,z

loop_
_atom_site_label
_atom_site_type_symbol
_atom_site_fract_x
_atom_site_fract_y
_atom_site_fract_z
_atom_site_charge
Cu	Cu	0.97798 0.79760 0.29644 0.83600
Cu	Cu	0.42034 0.74874 0.15741 0.91700
Cu	Cu	0.89270 0.70350 0.03000 0.89800
Cu	Cu	0.52202 0.70240 0.79644 0.84500
Cu	Cu	0.07966 0.75126 0.65741 0.91300
Cu	Cu	0.60730 0.79650 0.53000 0.90500
Cu	Cu	0.02202 0.20240 0.70356 0.83700
Cu	Cu	0.57966 0.25126 0.84259 0.91800
Cu	Cu	0.10730 0.29650 0.97000 0.89900
Cu	Cu	0.47798 0.29760 0.20356 0.84600
Cu	Cu	0.92034 0.24874 0.34259 0.91400
Cu	Cu	0.39270 0.20350 0.47000 0.90600
P 	P 	0.92290 0.65153 0.17460 0.45500
P 	P 	0.07240 0.73160 0.44278 0.50000
P 	P 	0.42390 0.34679 0.35278 0.47500
P 	P 	0.57710 0.84847 0.67460 0.48300
P 	P 	0.42760 0.76840 0.94278 0.50000
P 	P 	0.07610 0.15321 0.85278 0.46300
P 	P 	0.07710 0.34847 0.82540 0.45500
P 	P 	0.92760 0.26840 0.55722 0.50000
P 	P 	0.57610 0.65321 0.64722 0.47500
P 	P 	0.42290 0.15153 0.32540 0.48300
P 	P 	0.57240 0.23160 0.05722 0.50000
P 	P 	0.92390 0.84679 0.14722 0.46300
H 	H 	0.19630 0.62500 0.31790 0.18100
H 	H 	0.70340 0.52970 0.45960 0.15700
H 	H 	0.55850 0.48100 0.26710 0.15900
H 	H 	0.86530 0.52600 0.18190 0.15000
H 	H 	0.16930 0.55430 0.20260 0.18300
H 	H 	0.32130 0.63000 0.44560 0.17900
H 	H 	0.06450 0.61860 0.49380 0.17300
H 	H 	0.19700 0.44990 0.37210 0.18900
H 	H 	0.36990 0.43160 0.43570 0.16700
H 	H 	0.30370 0.87500 0.81790 0.20300
H 	H 	0.79660 0.97030 0.95960 0.17100
H 	H 	0.94150 0.01900 0.76710 0.17100
H 	H 	0.63470 0.97400 0.68190 0.15100
H 	H 	0.33070 0.94570 0.70260 0.16700
H 	H 	0.17870 0.87000 0.94560 0.19100
H 	H 	0.43550 0.88140 0.99380 0.18600
H 	H 	0.30300 0.05010 0.87210 0.19100
H 	H 	0.13010 0.06840 0.93570 0.16900
H 	H 	0.80370 0.37500 0.68210 0.18100
H 	H 	0.29660 0.47030 0.54040 0.15700
H 	H 	0.44150 0.51900 0.73290 0.15900
H 	H 	0.13470 0.47400 0.81810 0.15000
H 	H 	0.83070 0.44570 0.79740 0.18300
H 	H 	0.67870 0.37000 0.55440 0.17900
H 	H 	0.93550 0.38140 0.50620 0.17300
H 	H 	0.80300 0.55010 0.62790 0.18900
H 	H 	0.63010 0.56840 0.56430 0.16700
H 	H 	0.69630 0.12500 0.18210 0.20300
H 	H 	0.20340 0.02970 0.04040 0.17100
H 	H 	0.05850 0.98100 0.23290 0.17100
H 	H 	0.36530 0.02600 0.31810 0.15100
H 	H 	0.66930 0.05430 0.29740 0.16700
H 	H 	0.82130 0.13000 0.05440 0.19100
H 	H 	0.56450 0.11860 0.00620 0.18600
H 	H 	0.69700 0.94990 0.12790 0.19100
H 	H 	0.86990 0.93160 0.06430 0.16900
C 	C 	0.89660 0.55380 0.28120 0.34700
C 	C 	0.04320 0.59330 0.33020 -0.40100
C 	C 	0.97010 0.58750 0.39740 0.34200
C 	C 	0.75070 0.53600 0.41450 -0.43700
C 	C 	0.60170 0.49420 0.36710 0.37500
C 	C 	0.66730 0.50560 0.30010 -0.42300
C 	C 	0.97490 0.56300 0.20790 -0.50500
C 	C 	0.12380 0.63560 0.44950 -0.48600
C 	C 	0.37550 0.43520 0.38700 -0.49600
C 	C 	0.60340 0.94620 0.78120 0.39200
C 	C 	0.45680 0.90670 0.83020 -0.47700
C 	C 	0.52990 0.91250 0.89740 0.40500
C 	C 	0.74930 0.96400 0.91450 -0.47500
C 	C 	0.89830 0.00580 0.86710 0.40800
C 	C 	0.83270 0.99440 0.80010 -0.44700
C 	C 	0.52510 0.93700 0.70790 -0.49400
C 	C 	0.37620 0.86440 0.94950 -0.52800
C 	C 	0.12450 0.06480 0.88700 -0.51900
C 	C 	0.10340 0.44620 0.71880 0.34700
C 	C 	0.95680 0.40670 0.66980 -0.40100
C 	C 	0.02990 0.41250 0.60260 0.34200
C 	C 	0.24930 0.46400 0.58550 -0.43700
C 	C 	0.39830 0.50580 0.63290 0.37500
C 	C 	0.33270 0.49440 0.69990 -0.42300
C 	C 	0.02510 0.43700 0.79210 -0.50500
C 	C 	0.87620 0.36440 0.55050 -0.48600
C 	C 	0.62450 0.56480 0.61300 -0.49600
C 	C 	0.39660 0.05380 0.21880 0.39200
C 	C 	0.54320 0.09330 0.16980 -0.47700
C 	C 	0.47010 0.08750 0.10260 0.40500
C 	C 	0.25070 0.03600 0.08550 -0.47500
C 	C 	0.10170 0.99420 0.13290 0.40800
C 	C 	0.16730 0.00560 0.19990 -0.44700
C 	C 	0.47490 0.06300 0.29210 -0.49400
C 	C 	0.62380 0.13560 0.05050 -0.52800
C 	C 	0.87550 0.93520 0.11300 -0.51900
O 	O 	0.10990 0.70920 0.21328 -0.44400
O 	O 	0.61610 0.66330 0.18326 -0.40800
O 	O 	0.01270 0.65240 0.10130 -0.46000
O 	O 	0.16440 0.75700 0.37253 -0.43500
O 	O 	0.76620 0.74330 0.45412 -0.41600
O 	O 	0.24680 0.77240 0.49710 -0.44500
O 	O 	0.31250 0.34366 0.28094 -0.46800
O 	O 	0.23930 0.28933 0.39503 -0.45000
O 	O 	0.73090 0.33485 0.35978 -0.41300
O 	O 	0.39010 0.79080 0.71328 -0.46400
O 	O 	0.88390 0.83670 0.68326 -0.40600
O 	O 	0.48730 0.84760 0.60130 -0.47700
O 	O 	0.33560 0.74300 0.87253 -0.44300
O 	O 	0.73380 0.75670 0.95412 -0.41200
O 	O 	0.25320 0.72760 0.99710 -0.44300
O 	O 	0.18750 0.15634 0.78094 -0.47400
O 	O 	0.26070 0.21067 0.89503 -0.45400
O 	O 	0.76910 0.16515 0.85978 -0.40000
O 	O 	0.89010 0.29080 0.78672 -0.44400
O 	O 	0.38390 0.33670 0.81674 -0.40800
O 	O 	0.98730 0.34760 0.89870 -0.46000
O 	O 	0.83560 0.24300 0.62747 -0.43500
O 	O 	0.23380 0.25670 0.54588 -0.41600
O 	O 	0.75320 0.22760 0.50290 -0.44500
O 	O 	0.68750 0.65634 0.71906 -0.46800
O 	O 	0.76070 0.71067 0.60497 -0.45000
O 	O 	0.26910 0.66515 0.64022 -0.41300
O 	O 	0.60990 0.20920 0.28672 -0.46400
O 	O 	0.11610 0.16330 0.31674 -0.40600
O 	O 	0.51270 0.15240 0.39870 -0.47700
O 	O 	0.66440 0.25700 0.12747 -0.44300
O 	O 	0.26620 0.24330 0.04588 -0.41200
O 	O 	0.74680 0.27240 0.00290 -0.44300
O 	O 	0.81250 0.84366 0.21906 -0.47400
O 	O 	0.73930 0.78933 0.10497 -0.45400
O 	O 	0.23090 0.83485 0.14022 -0.40000
