data_crystal

_cell_length_a 32.20700
_cell_length_b 13.37800
_cell_length_c 15.87100
_cell_angle_alpha 90.00000
_cell_angle_beta  91.05000
_cell_angle_gamma 90.00000

_symmetry_space_group_name_	'P 1'
_symmetry_space_group_name_H-M	'P 1'

loop_
_symmetry_equiv_pos_as_xyz
  x,y,z

loop_
_atom_site_label
_atom_site_type_symbol
_atom_site_fract_x
_atom_site_fract_y
_atom_site_fract_z
_atom_site_charge
Cd	Cd	0.60601 0.69508 0.23557 1.22500
O 	O 	0.55887 0.77050 0.34230 -0.47000
O 	O 	0.62626 0.80150 0.34670 -0.38200
O 	O 	0.53108 0.11650 0.66720 -0.43400
O 	O 	0.59681 0.16800 0.65410 -0.43600
O 	O 	0.59067 0.58670 0.12300 -0.39000
O 	O 	0.53544 0.64710 0.18520 -0.48700
N 	N 	0.61699 0.55660 0.32150 -0.24700
N 	N 	0.82423 0.19890 0.30170 -0.24600
C 	C 	0.58404 0.89000 0.44340 -0.06800
C 	C 	0.61620 0.95450 0.46670 -0.02700
H 	H 	0.64220 0.94960 0.43950 0.04800
C 	C 	0.61085 0.02510 0.52830 -0.01500
H 	H 	0.63290 0.06970 0.54220 0.04100
C 	C 	0.57333 0.03200 0.57080 -0.08400
C 	C 	0.54208 0.96490 0.55020 -0.01200
H 	H 	0.51690 0.96670 0.58040 0.04800
C 	C 	0.54670 0.89400 0.48540 -0.02600
H 	H 	0.52460 0.84980 0.47070 0.04800
C 	C 	0.59020 0.81610 0.37300 0.32600
C 	C 	0.56661 0.11300 0.63640 0.37700
C 	C 	0.52497 0.54780 0.06090 -0.07900
C 	C 	0.54218 0.48310 0.00400 -0.01900
H 	H 	0.57130 0.47120 0.00680 0.05300
C 	C 	0.48180 0.56580 0.05790 -0.01900
H 	H 	0.46930 0.60990 0.09680 0.03700
C 	C 	0.55159 0.59710 0.12630 0.33500
C 	C 	0.64360 0.55900 0.38790 0.10200
H 	H 	0.65640 0.62070 0.40270 -0.01100
C 	C 	0.65320 0.47410 0.43580 -0.20600
H 	H 	0.67290 0.47830 0.48090 0.10200
C 	C 	0.63400 0.38420 0.41800 0.19400
C 	C 	0.60570 0.38330 0.35250 -0.21800
H 	H 	0.59070 0.32400 0.33930 0.10200
C 	C 	0.59910 0.47010 0.30520 0.11600
H 	H 	0.58040 0.46640 0.25830 -0.01500
C 	C 	0.80530 0.28700 0.30380 0.11400
H 	H 	0.82090 0.34600 0.29340 -0.01100
C 	C 	0.76390 0.29480 0.32070 -0.20900
H 	H 	0.75080 0.35840 0.31850 0.09900
C 	C 	0.74060 0.21040 0.34130 0.18200
C 	C 	0.76180 0.12010 0.34250 -0.22300
H 	H 	0.74800 0.05980 0.35670 0.10100
C 	C 	0.80270 0.11950 0.32300 0.12600
H 	H 	0.81680 0.05710 0.32490 -0.02600
C 	C 	0.64420 0.29030 0.46710 -0.29300
H 	H 	0.62510 0.23600 0.44910 0.11300
H 	H 	0.64020 0.30250 0.52790 0.11600
C 	C 	0.68940 0.25780 0.45260 0.08500
H 	H 	0.70820 0.31510 0.46310 0.00500
H 	H 	0.69710 0.20400 0.49280 0.00300
C 	C 	0.69470 0.22050 0.36310 -0.28800
H 	H 	0.68110 0.26780 0.32330 0.11300
H 	H 	0.68100 0.15480 0.35660 0.10900
Cd	Cd	0.10601 0.19508 0.23557 1.22400
O 	O 	0.05887 0.27050 0.34230 -0.47600
O 	O 	0.12626 0.30150 0.34670 -0.38400
O 	O 	0.03108 0.61650 0.66720 -0.44300
O 	O 	0.09681 0.66800 0.65410 -0.43700
O 	O 	0.09067 0.08670 0.12300 -0.39500
O 	O 	0.03544 0.14710 0.18520 -0.50000
N 	N 	0.11699 0.05660 0.32150 -0.24800
N 	N 	0.32423 0.69890 0.30170 -0.24600
C 	C 	0.08404 0.39000 0.44340 -0.07000
C 	C 	0.11620 0.45450 0.46670 -0.02700
H 	H 	0.14220 0.44960 0.43950 0.04800
C 	C 	0.11085 0.52510 0.52830 -0.01400
H 	H 	0.13290 0.56970 0.54220 0.04100
C 	C 	0.07333 0.53200 0.57080 -0.08700
C 	C 	0.04208 0.46490 0.55020 -0.01400
H 	H 	0.01690 0.46670 0.58040 0.04200
C 	C 	0.04670 0.39400 0.48540 -0.02800
H 	H 	0.02460 0.34980 0.47070 0.04200
C 	C 	0.09020 0.31610 0.37300 0.32700
C 	C 	0.06661 0.61300 0.63640 0.37700
C 	C 	0.02497 0.04780 0.06090 -0.14100
C 	C 	0.04218 0.98310 0.00400 0.03300
H 	H 	0.07130 0.97120 0.00680 0.03600
C 	C 	0.98180 0.06580 0.05790 0.05200
H 	H 	0.96930 0.10990 0.09680 0.01800
C 	C 	0.05159 0.09710 0.12630 0.35400
C 	C 	0.14360 0.05900 0.38790 0.10100
H 	H 	0.15640 0.12070 0.40270 -0.01000
C 	C 	0.15320 0.97410 0.43580 -0.20500
H 	H 	0.17290 0.97830 0.48090 0.10100
C 	C 	0.13400 0.88420 0.41800 0.19300
C 	C 	0.10570 0.88330 0.35250 -0.21800
H 	H 	0.09070 0.82400 0.33930 0.09900
C 	C 	0.09910 0.97010 0.30520 0.11500
H 	H 	0.08040 0.96640 0.25830 -0.01700
C 	C 	0.30530 0.78700 0.30380 0.11400
H 	H 	0.32090 0.84600 0.29340 -0.01100
C 	C 	0.26390 0.79480 0.32070 -0.20900
H 	H 	0.25080 0.85840 0.31850 0.09900
C 	C 	0.24060 0.71040 0.34130 0.18200
C 	C 	0.26180 0.62010 0.34250 -0.22200
H 	H 	0.24800 0.55980 0.35670 0.10100
C 	C 	0.30270 0.61950 0.32300 0.12600
H 	H 	0.31680 0.55710 0.32490 -0.02600
C 	C 	0.14420 0.79030 0.46710 -0.29200
H 	H 	0.12510 0.73600 0.44910 0.11200
H 	H 	0.14020 0.80250 0.52790 0.11500
C 	C 	0.18940 0.75780 0.45260 0.08400
H 	H 	0.20820 0.81510 0.46310 0.00600
H 	H 	0.19710 0.70400 0.49280 0.00300
C 	C 	0.19470 0.72050 0.36310 -0.28800
H 	H 	0.18110 0.76780 0.32330 0.11300
H 	H 	0.18100 0.65480 0.35660 0.10900
Cd	Cd	0.39399 0.69508 0.26443 1.22400
O 	O 	0.44113 0.77050 0.15770 -0.47100
O 	O 	0.37374 0.80150 0.15330 -0.38300
O 	O 	0.46892 0.11650 0.83280 -0.43500
O 	O 	0.40319 0.16800 0.84590 -0.43600
O 	O 	0.40933 0.58670 0.37700 -0.39000
O 	O 	0.46456 0.64710 0.31480 -0.48700
N 	N 	0.38301 0.55660 0.17850 -0.24700
N 	N 	0.17577 0.19890 0.19830 -0.24600
C 	C 	0.41596 0.89000 0.05660 -0.06700
C 	C 	0.38380 0.95450 0.03330 -0.02900
H 	H 	0.35780 0.94960 0.06050 0.04900
C 	C 	0.38915 0.02510 0.97170 -0.01200
H 	H 	0.36710 0.06970 0.95780 0.04100
C 	C 	0.42667 0.03200 0.92920 -0.08500
C 	C 	0.45792 0.96490 0.94980 -0.01100
H 	H 	0.48310 0.96670 0.91960 0.04800
C 	C 	0.45330 0.89400 0.01460 -0.02800
H 	H 	0.47540 0.84980 0.02930 0.04800
C 	C 	0.40980 0.81610 0.12700 0.32600
C 	C 	0.43339 0.11300 0.86360 0.37700
C 	C 	0.47503 0.54780 0.43910 -0.08100
C 	C 	0.45782 0.48310 0.49600 -0.01600
H 	H 	0.42870 0.47120 0.49320 0.05300
C 	C 	0.51820 0.56580 0.44210 -0.01700
H 	H 	0.53070 0.60990 0.40320 0.03600
C 	C 	0.44841 0.59710 0.37370 0.33500
C 	C 	0.35640 0.55900 0.11210 0.10200
H 	H 	0.34360 0.62070 0.09730 -0.01100
C 	C 	0.34680 0.47410 0.06420 -0.20700
H 	H 	0.32710 0.47830 0.01910 0.10200
C 	C 	0.36600 0.38420 0.08200 0.19500
C 	C 	0.39430 0.38330 0.14750 -0.21800
H 	H 	0.40930 0.32400 0.16070 0.10200
C 	C 	0.40090 0.47010 0.19480 0.11600
H 	H 	0.41960 0.46640 0.24170 -0.01500
C 	C 	0.19470 0.28700 0.19620 0.11400
H 	H 	0.17910 0.34600 0.20660 -0.01100
C 	C 	0.23610 0.29480 0.17930 -0.20900
H 	H 	0.24920 0.35840 0.18150 0.09900
C 	C 	0.25940 0.21040 0.15870 0.18300
C 	C 	0.23820 0.12010 0.15750 -0.22300
H 	H 	0.25200 0.05980 0.14330 0.10100
C 	C 	0.19730 0.11950 0.17700 0.12600
H 	H 	0.18320 0.05710 0.17510 -0.02600
C 	C 	0.35580 0.29030 0.03290 -0.29500
H 	H 	0.37490 0.23600 0.05090 0.11300
H 	H 	0.35980 0.30250 0.97210 0.11700
C 	C 	0.31060 0.25780 0.04740 0.08700
H 	H 	0.29180 0.31510 0.03690 0.00500
H 	H 	0.30290 0.20400 0.00720 0.00200
C 	C 	0.30530 0.22050 0.13690 -0.28900
H 	H 	0.31890 0.26780 0.17670 0.11400
H 	H 	0.31900 0.15480 0.14340 0.11000
Cd	Cd	0.89399 0.19508 0.26443 1.22400
O 	O 	0.94113 0.27050 0.15770 -0.46400
O 	O 	0.87374 0.30150 0.15330 -0.38300
O 	O 	0.96892 0.61650 0.83280 -0.42400
O 	O 	0.90319 0.66800 0.84590 -0.43400
O 	O 	0.90933 0.08670 0.37700 -0.38400
O 	O 	0.96456 0.14710 0.31480 -0.47200
N 	N 	0.88301 0.05660 0.17850 -0.24700
N 	N 	0.67577 0.69890 0.19830 -0.24600
C 	C 	0.91596 0.39000 0.05660 -0.06400
C 	C 	0.88380 0.45450 0.03330 -0.02900
H 	H 	0.85780 0.44960 0.06050 0.04900
C 	C 	0.88915 0.52510 0.97170 -0.01200
H 	H 	0.86710 0.56970 0.95780 0.04100
C 	C 	0.92667 0.53200 0.92920 -0.08200
C 	C 	0.95792 0.46490 0.94980 -0.00800
H 	H 	0.98310 0.46670 0.91960 0.05500
C 	C 	0.95330 0.39400 0.01460 -0.02600
H 	H 	0.97540 0.34980 0.02930 0.05500
C 	C 	0.90980 0.31610 0.12700 0.32400
C 	C 	0.93339 0.61300 0.86360 0.37600
C 	C 	0.97503 0.04780 0.43910 -0.01800
C 	C 	0.95782 0.98310 0.49600 -0.06800
H 	H 	0.92870 0.97120 0.49320 0.07000
C 	C 	0.01820 0.06580 0.44210 -0.08900
H 	H 	0.03070 0.10990 0.40320 0.05500
C 	C 	0.94841 0.09710 0.37370 0.31600
C 	C 	0.85640 0.05900 0.11210 0.10100
H 	H 	0.84360 0.12070 0.09730 -0.01100
C 	C 	0.84680 0.97410 0.06420 -0.20700
H 	H 	0.82710 0.97830 0.01910 0.10200
C 	C 	0.86600 0.88420 0.08200 0.19500
C 	C 	0.89430 0.88330 0.14750 -0.21900
H 	H 	0.90930 0.82400 0.16070 0.10500
C 	C 	0.90090 0.97010 0.19480 0.11700
H 	H 	0.91960 0.96640 0.24170 -0.01300
C 	C 	0.69470 0.78700 0.19620 0.11400
H 	H 	0.67910 0.84600 0.20660 -0.01100
C 	C 	0.73610 0.79480 0.17930 -0.20900
H 	H 	0.74920 0.85840 0.18150 0.09900
C 	C 	0.75940 0.71040 0.15870 0.18300
C 	C 	0.73820 0.62010 0.15750 -0.22300
H 	H 	0.75200 0.55980 0.14330 0.10100
C 	C 	0.69730 0.61950 0.17700 0.12600
H 	H 	0.68320 0.55710 0.17510 -0.02600
C 	C 	0.85580 0.79030 0.03290 -0.29600
H 	H 	0.87490 0.73600 0.05090 0.11500
H 	H 	0.85980 0.80250 0.97210 0.11700
C 	C 	0.81060 0.75780 0.04740 0.08700
H 	H 	0.79180 0.81510 0.03690 0.00400
H 	H 	0.80290 0.70400 0.00720 0.00200
C 	C 	0.80530 0.72050 0.13690 -0.29000
H 	H 	0.81890 0.76780 0.17670 0.11400
H 	H 	0.81900 0.65480 0.14340 0.11000
Cd	Cd	0.39399 0.30492 0.76443 1.22400
O 	O 	0.44113 0.22950 0.65770 -0.47100
O 	O 	0.37374 0.19850 0.65330 -0.38300
O 	O 	0.46892 0.88350 0.33280 -0.43500
O 	O 	0.40319 0.83200 0.34590 -0.43600
O 	O 	0.40933 0.41330 0.87700 -0.39000
O 	O 	0.46456 0.35290 0.81480 -0.48700
N 	N 	0.38301 0.44340 0.67850 -0.24700
N 	N 	0.17577 0.80110 0.69830 -0.24600
C 	C 	0.41596 0.11000 0.55660 -0.06800
C 	C 	0.38380 0.04550 0.53330 -0.02700
H 	H 	0.35780 0.05040 0.56050 0.04800
C 	C 	0.38915 0.97490 0.47170 -0.01400
H 	H 	0.36710 0.93030 0.45780 0.04100
C 	C 	0.42667 0.96800 0.42920 -0.08400
C 	C 	0.45792 0.03510 0.44980 -0.01300
H 	H 	0.48310 0.03330 0.41960 0.04800
C 	C 	0.45330 0.10600 0.51460 -0.02600
H 	H 	0.47540 0.15020 0.52930 0.04800
C 	C 	0.40980 0.18390 0.62700 0.32600
C 	C 	0.43339 0.88700 0.36360 0.37700
C 	C 	0.47503 0.45220 0.93910 -0.08200
C 	C 	0.45782 0.51690 0.99600 -0.01400
H 	H 	0.42870 0.52880 0.99320 0.05200
C 	C 	0.51820 0.43420 0.94210 -0.01400
H 	H 	0.53070 0.39010 0.90320 0.03500
C 	C 	0.44841 0.40290 0.87370 0.33600
C 	C 	0.35640 0.44100 0.61210 0.10200
H 	H 	0.34360 0.37930 0.59730 -0.01100
C 	C 	0.34680 0.52590 0.56420 -0.20600
H 	H 	0.32710 0.52170 0.51910 0.10200
C 	C 	0.36600 0.61580 0.58200 0.19400
C 	C 	0.39430 0.61670 0.64750 -0.21800
H 	H 	0.40930 0.67600 0.66070 0.10200
C 	C 	0.40090 0.52990 0.69480 0.11600
H 	H 	0.41960 0.53360 0.74170 -0.01500
C 	C 	0.19470 0.71300 0.69620 0.11400
H 	H 	0.17910 0.65400 0.70660 -0.01100
C 	C 	0.23610 0.70520 0.67930 -0.20900
H 	H 	0.24920 0.64160 0.68150 0.09900
C 	C 	0.25940 0.78960 0.65870 0.18300
C 	C 	0.23820 0.87990 0.65750 -0.22300
H 	H 	0.25200 0.94020 0.64330 0.10100
C 	C 	0.19730 0.88050 0.67700 0.12600
H 	H 	0.18320 0.94290 0.67510 -0.02600
C 	C 	0.35580 0.70970 0.53290 -0.29300
H 	H 	0.37490 0.76400 0.55090 0.11300
H 	H 	0.35980 0.69750 0.47210 0.11600
C 	C 	0.31060 0.74220 0.54740 0.08500
H 	H 	0.29180 0.68490 0.53690 0.00500
H 	H 	0.30290 0.79600 0.50720 0.00300
C 	C 	0.30530 0.77950 0.63690 -0.28900
H 	H 	0.31890 0.73220 0.67670 0.11400
H 	H 	0.31900 0.84520 0.64340 0.11000
Cd	Cd	0.89399 0.80492 0.76443 1.22400
O 	O 	0.94113 0.72950 0.65770 -0.46400
O 	O 	0.87374 0.69850 0.65330 -0.38300
O 	O 	0.96892 0.38350 0.33280 -0.42300
O 	O 	0.90319 0.33200 0.34590 -0.43400
O 	O 	0.90933 0.91330 0.87700 -0.38500
O 	O 	0.96456 0.85290 0.81480 -0.47200
N 	N 	0.88301 0.94340 0.67850 -0.24700
N 	N 	0.67577 0.30110 0.69830 -0.24600
C 	C 	0.91596 0.61000 0.55660 -0.06600
C 	C 	0.88380 0.54550 0.53330 -0.02600
H 	H 	0.85780 0.55040 0.56050 0.04900
C 	C 	0.88915 0.47490 0.47170 -0.01500
H 	H 	0.86710 0.43030 0.45780 0.04100
C 	C 	0.92667 0.46800 0.42920 -0.08000
C 	C 	0.95792 0.53510 0.44980 -0.01100
H 	H 	0.98310 0.53330 0.41960 0.05500
C 	C 	0.95330 0.60600 0.51460 -0.02400
H 	H 	0.97540 0.65020 0.52930 0.05400
C 	C 	0.90980 0.68390 0.62700 0.32500
C 	C 	0.93339 0.38700 0.36360 0.37500
C 	C 	0.97503 0.95220 0.93910 -0.02000
C 	C 	0.95782 0.01690 0.99600 -0.06500
H 	H 	0.92870 0.02880 0.99320 0.07000
C 	C 	0.01820 0.93420 0.94210 -0.08600
H 	H 	0.03070 0.89010 0.90320 0.05400
C 	C 	0.94841 0.90290 0.87370 0.31600
C 	C 	0.85640 0.94100 0.61210 0.10200
H 	H 	0.84360 0.87930 0.59730 -0.01100
C 	C 	0.84680 0.02590 0.56420 -0.20700
H 	H 	0.82710 0.02170 0.51910 0.10200
C 	C 	0.86600 0.11580 0.58200 0.19500
C 	C 	0.89430 0.11670 0.64750 -0.21800
H 	H 	0.90930 0.17600 0.66070 0.10500
C 	C 	0.90090 0.02990 0.69480 0.11600
H 	H 	0.91960 0.03360 0.74170 -0.01300
C 	C 	0.69470 0.21300 0.69620 0.11400
H 	H 	0.67910 0.15400 0.70660 -0.01100
C 	C 	0.73610 0.20520 0.67930 -0.20900
H 	H 	0.74920 0.14160 0.68150 0.09900
C 	C 	0.75940 0.28960 0.65870 0.18300
C 	C 	0.73820 0.37990 0.65750 -0.22300
H 	H 	0.75200 0.44020 0.64330 0.10100
C 	C 	0.69730 0.38050 0.67700 0.12600
H 	H 	0.68320 0.44290 0.67510 -0.02600
C 	C 	0.85580 0.20970 0.53290 -0.29400
H 	H 	0.87490 0.26400 0.55090 0.11500
H 	H 	0.85980 0.19750 0.47210 0.11600
C 	C 	0.81060 0.24220 0.54740 0.08600
H 	H 	0.79180 0.18490 0.53690 0.00500
H 	H 	0.80290 0.29600 0.50720 0.00300
C 	C 	0.80530 0.27950 0.63690 -0.28900
H 	H 	0.81890 0.23220 0.67670 0.11400
H 	H 	0.81900 0.34520 0.64340 0.11000
Cd	Cd	0.60601 0.30492 0.73557 1.22400
O 	O 	0.55887 0.22950 0.84230 -0.47200
O 	O 	0.62626 0.19850 0.84670 -0.38300
O 	O 	0.53108 0.88350 0.16720 -0.43400
O 	O 	0.59681 0.83200 0.15410 -0.43600
O 	O 	0.59067 0.41330 0.62300 -0.39000
O 	O 	0.53544 0.35290 0.68520 -0.48700
N 	N 	0.61699 0.44340 0.82150 -0.24700
N 	N 	0.82423 0.80110 0.80170 -0.24600
C 	C 	0.58404 0.11000 0.94340 -0.07000
C 	C 	0.61620 0.04550 0.96670 -0.02400
H 	H 	0.64220 0.05040 0.93950 0.04800
C 	C 	0.61085 0.97490 0.02830 -0.01700
H 	H 	0.63290 0.93030 0.04220 0.04200
C 	C 	0.57333 0.96800 0.07080 -0.08200
C 	C 	0.54208 0.03510 0.05020 -0.01600
H 	H 	0.51690 0.03330 0.08040 0.04900
C 	C 	0.54670 0.10600 0.98540 -0.02300
H 	H 	0.52460 0.15020 0.97070 0.04700
C 	C 	0.59020 0.18390 0.87300 0.32700
C 	C 	0.56661 0.88700 0.13640 0.37600
C 	C 	0.52497 0.45220 0.56090 -0.08100
C 	C 	0.54218 0.51690 0.50400 -0.01600
H 	H 	0.57130 0.52880 0.50680 0.05300
C 	C 	0.48180 0.43420 0.55790 -0.01700
H 	H 	0.46930 0.39010 0.59680 0.03600
C 	C 	0.55159 0.40290 0.62630 0.33500
C 	C 	0.64360 0.44100 0.88790 0.10100
H 	H 	0.65640 0.37930 0.90270 -0.01000
C 	C 	0.65320 0.52590 0.93580 -0.20600
H 	H 	0.67290 0.52170 0.98090 0.10200
C 	C 	0.63400 0.61580 0.91800 0.19300
C 	C 	0.60570 0.61670 0.85250 -0.21700
H 	H 	0.59070 0.67600 0.83930 0.10200
C 	C 	0.59910 0.52990 0.80520 0.11600
H 	H 	0.58040 0.53360 0.75830 -0.01500
C 	C 	0.80530 0.71300 0.80380 0.11400
H 	H 	0.82090 0.65400 0.79340 -0.01100
C 	C 	0.76390 0.70520 0.82070 -0.20900
H 	H 	0.75080 0.64160 0.81850 0.09900
C 	C 	0.74060 0.78960 0.84130 0.18200
C 	C 	0.76180 0.87990 0.84250 -0.22200
H 	H 	0.74800 0.94020 0.85670 0.10100
C 	C 	0.80270 0.88050 0.82300 0.12600
H 	H 	0.81680 0.94290 0.82490 -0.02600
C 	C 	0.64420 0.70970 0.96710 -0.29100
H 	H 	0.62510 0.76400 0.94910 0.11300
H 	H 	0.64020 0.69750 0.02790 0.11500
C 	C 	0.68940 0.74220 0.95260 0.08400
H 	H 	0.70820 0.68490 0.96310 0.00600
H 	H 	0.69710 0.79600 0.99280 0.00300
C 	C 	0.69470 0.77950 0.86310 -0.28800
H 	H 	0.68110 0.73220 0.82330 0.11300
H 	H 	0.68100 0.84520 0.85660 0.10900
Cd	Cd	0.10601 0.80492 0.73557 1.22400
O 	O 	0.05887 0.72950 0.84230 -0.47600
O 	O 	0.12626 0.69850 0.84670 -0.38400
O 	O 	0.03108 0.38350 0.16720 -0.44300
O 	O 	0.09681 0.33200 0.15410 -0.43700
O 	O 	0.09067 0.91330 0.62300 -0.39500
O 	O 	0.03544 0.85290 0.68520 -0.50000
N 	N 	0.11699 0.94340 0.82150 -0.24700
N 	N 	0.32423 0.30110 0.80170 -0.24600
C 	C 	0.08404 0.61000 0.94340 -0.07100
C 	C 	0.11620 0.54550 0.96670 -0.02500
H 	H 	0.14220 0.55040 0.93950 0.04800
C 	C 	0.11085 0.47490 0.02830 -0.01700
H 	H 	0.13290 0.43030 0.04220 0.04100
C 	C 	0.07333 0.46800 0.07080 -0.08500
C 	C 	0.04208 0.53510 0.05020 -0.01600
H 	H 	0.01690 0.53330 0.08040 0.04200
C 	C 	0.04670 0.60600 0.98540 -0.02600
H 	H 	0.02460 0.65020 0.97070 0.04100
C 	C 	0.09020 0.68390 0.87300 0.32700
C 	C 	0.06661 0.38700 0.13640 0.37700
C 	C 	0.02497 0.95220 0.56090 -0.14300
C 	C 	0.04218 0.01690 0.50400 0.03500
H 	H 	0.07130 0.02880 0.50680 0.03500
C 	C 	0.98180 0.93420 0.55790 0.05500
H 	H 	0.96930 0.89010 0.59680 0.01700
C 	C 	0.05159 0.90290 0.62630 0.35400
C 	C 	0.14360 0.94100 0.88790 0.10100
H 	H 	0.15640 0.87930 0.90270 -0.01000
C 	C 	0.15320 0.02590 0.93580 -0.20500
H 	H 	0.17290 0.02170 0.98090 0.10100
C 	C 	0.13400 0.11580 0.91800 0.19200
C 	C 	0.10570 0.11670 0.85250 -0.21700
H 	H 	0.09070 0.17600 0.83930 0.09900
C 	C 	0.09910 0.02990 0.80520 0.11500
H 	H 	0.08040 0.03360 0.75830 -0.01700
C 	C 	0.30530 0.21300 0.80380 0.11400
H 	H 	0.32090 0.15400 0.79340 -0.01100
C 	C 	0.26390 0.20520 0.82070 -0.20800
H 	H 	0.25080 0.14160 0.81850 0.09900
C 	C 	0.24060 0.28960 0.84130 0.18200
C 	C 	0.26180 0.37990 0.84250 -0.22200
H 	H 	0.24800 0.44020 0.85670 0.10100
C 	C 	0.30270 0.38050 0.82300 0.12600
H 	H 	0.31680 0.44290 0.82490 -0.02600
C 	C 	0.14420 0.20970 0.96710 -0.28900
H 	H 	0.12510 0.26400 0.94910 0.11100
H 	H 	0.14020 0.19750 0.02790 0.11400
C 	C 	0.18940 0.24220 0.95260 0.08300
H 	H 	0.20820 0.18490 0.96310 0.00600
H 	H 	0.19710 0.29600 0.99280 0.00400
C 	C 	0.19470 0.27950 0.86310 -0.28700
H 	H 	0.18110 0.23220 0.82330 0.11300
H 	H 	0.18100 0.34520 0.85660 0.10900
Cd	Cd	0.50000 0.77497 0.25000 1.24100
Cd	Cd	0.00000 0.27497 0.25000 1.23300
Cd	Cd	0.50000 0.22503 0.75000 1.24100
Cd	Cd	0.00000 0.72503 0.75000 1.23300
