data_crystal

_cell_length_a 29.72000
_cell_length_b 37.89100
_cell_length_c 37.65000
_cell_angle_alpha 90.00000
_cell_angle_beta  90.00000
_cell_angle_gamma 90.00000

_symmetry_space_group_name_	'P 1'
_symmetry_space_group_name_H-M	'P 1'

loop_
_symmetry_equiv_pos_as_xyz
  x,y,z

loop_
_atom_site_label
_atom_site_type_symbol
_atom_site_fract_x
_atom_site_fract_y
_atom_site_fract_z
_atom_site_charge
Zn	Zn	0.53681 0.66911 0.78633 1.22900
Zn	Zn	0.60698 0.61645 0.84238 1.24900
Zn	Zn	0.67757 0.56404 0.89820 1.19400
O 	O 	0.39180 0.39360 0.28860 -0.46400
O 	O 	0.53590 0.61710 0.84510 -0.44900
O 	O 	0.11590 0.82980 0.15780 -0.43900
O 	O 	0.38710 0.37420 0.39740 -0.45100
O 	O 	0.82470 0.11240 0.66140 -0.47300
O 	O 	0.50120 0.66570 0.82881 -0.48100
O 	O 	0.36720 0.41820 0.43260 -0.49300
O 	O 	0.60020 0.56250 0.85170 -0.46200
O 	O 	0.66000 0.52880 0.86210 -0.49600
O 	O 	0.44960 0.37200 0.25768 -0.49700
O 	O 	0.08870 0.80110 0.20460 -0.48400
O 	O 	0.78270 0.10370 0.61500 -0.50600
C 	C 	0.50740 0.64120 0.85120 0.40300
C 	C 	0.47780 0.64000 0.88256 -0.18300
C 	C 	0.44960 0.66800 0.89092 0.12000
H 	H 	0.44870 0.68780 0.87630 0.00500
C 	C 	0.42280 0.66660 0.92110 -0.20500
H 	H 	0.40400 0.68540 0.92670 0.11900
C 	C 	0.42420 0.63700 0.94301 0.19000
C 	C 	0.45240 0.60900 0.93460 -0.20100
H 	H 	0.45340 0.58920 0.94930 0.11000
C 	C 	0.47920 0.61040 0.90440 0.11700
H 	H 	0.49810 0.59160 0.89880 0.00500
N 	N 	0.39810 0.63470 0.97338 -0.11200
C 	C 	0.40210 0.61720 0.00440 0.02400
H 	H 	0.42340 0.60000 0.00960 0.02800
C 	C 	0.36980 0.62900 0.02650 0.02000
N 	N 	0.34590 0.65390 0.00920 -0.07300
N 	N 	0.36330 0.65730 0.97640 -0.04400
C 	C 	0.35580 0.61770 0.06061 0.08900
C 	C 	0.37180 0.58640 0.07520 -0.14400
H 	H 	0.39140 0.57220 0.06230 0.09200
C 	C 	0.35860 0.57640 0.10920 0.08600
C 	C 	0.32940 0.59770 0.12851 -0.14200
H 	H 	0.32060 0.59100 0.15120 0.09300
C 	C 	0.31330 0.62890 0.11390 0.08800
C 	C 	0.32650 0.63890 0.07990 -0.14300
H 	H 	0.31580 0.65980 0.07010 0.09400
C 	C 	0.37400 0.54090 0.12400 0.02400
N 	N 	0.40280 0.52100 0.10470 -0.07600
N 	N 	0.41630 0.49360 0.12510 -0.04400
N 	N 	0.39580 0.49660 0.15710 -0.11600
C 	C 	0.36960 0.52580 0.15640 0.02200
H 	H 	0.35180 0.53400 0.17490 0.02900
C 	C 	0.40000 0.47120 0.18214 0.20600
C 	C 	0.43760 0.44930 0.18188 -0.22000
H 	H 	0.45940 0.45200 0.16440 0.12900
C 	C 	0.44250 0.42350 0.20780 0.14000
H 	H 	0.46770 0.40890 0.20760 -0.00100
C 	C 	0.41000 0.41950 0.23400 -0.20200
C 	C 	0.37240 0.44140 0.23420 0.13800
H 	H 	0.35060 0.43870 0.25180 0.00100
C 	C 	0.36740 0.46720 0.20830 -0.22000
H 	H 	0.34230 0.48180 0.20850 0.11500
C 	C 	0.41720 0.39430 0.26290 0.43800
C 	C 	0.28260 0.65100 0.13500 0.02100
C 	C 	0.26040 0.68220 0.12810 0.01700
H 	H 	0.26310 0.69570 0.10760 0.02800
N 	N 	0.23340 0.68970 0.15690 -0.11300
N 	N 	0.23890 0.66320 0.18140 -0.04500
N 	N 	0.26930 0.63930 0.16800 -0.07500
C 	C 	0.20540 0.71750 0.16150 0.19300
C 	C 	0.18080 0.71850 0.19290 -0.20200
H 	H 	0.18380 0.70050 0.20950 0.12100
C 	C 	0.15170 0.74650 0.19950 0.11700
H 	H 	0.13530 0.74720 0.22050 0.00800
C 	C 	0.14720 0.77340 0.17470 -0.17300
C 	C 	0.17170 0.77240 0.14330 0.11100
H 	H 	0.16870 0.79040 0.12670 0.01500
C 	C 	0.20080 0.74440 0.13670 -0.20000
H 	H 	0.21730 0.74370 0.11570 0.10800
C 	C 	0.11440 0.80290 0.17850 0.41200
C 	C 	0.62320 0.53530 0.84620 0.40700
C 	C 	0.61060 0.50990 0.81810 -0.17800
C 	C 	0.64150 0.48480 0.80680 0.11500
H 	H 	0.66930 0.48290 0.81800 0.00300
C 	C 	0.63090 0.46250 0.77860 -0.20300
H 	H 	0.65160 0.44570 0.77110 0.10600
C 	C 	0.58940 0.46530 0.76180 0.18200
C 	C 	0.55850 0.49050 0.77320 -0.19200
H 	H 	0.53080 0.49240 0.76190 0.11300
C 	C 	0.56910 0.51270 0.80130 0.11500
H 	H 	0.54840 0.52950 0.80890 0.00700
N 	N 	0.57930 0.44080 0.73510 -0.11100
C 	C 	0.59560 0.41060 0.72400 0.01800
H 	H 	0.61920 0.39820 0.73420 0.02900
C 	C 	0.57270 0.40100 0.69590 0.02400
N 	N 	0.54220 0.42520 0.68960 -0.07300
N 	N 	0.54620 0.44990 0.71390 -0.04300
C 	C 	0.57670 0.36930 0.67460 0.08400
C 	C 	0.60340 0.34130 0.68560 -0.13900
H 	H 	0.61810 0.34230 0.70740 0.09400
C 	C 	0.60830 0.31170 0.66420 0.08400
C 	C 	0.58630 0.31010 0.63160 -0.13900
H 	H 	0.58960 0.29030 0.61720 0.09100
C 	C 	0.55960 0.33810 0.62050 0.08100
C 	C 	0.55470 0.36770 0.64200 -0.13900
H 	H 	0.53680 0.38640 0.63460 0.09200
N 	N 	0.65810 0.28020 0.70650 -0.07200
N 	N 	0.68560 0.25140 0.70720 -0.04500
N 	N 	0.68450 0.23610 0.67450 -0.11000
C 	C 	0.65650 0.25540 0.65350 0.01200
H 	H 	0.64970 0.25080 0.62990 0.02900
C 	C 	0.64020 0.28270 0.67330 0.02600
C 	C 	0.70470 0.20350 0.66800 0.18400
C 	C 	0.70210 0.18560 0.63590 -0.20600
H 	H 	0.68040 0.19200 0.61920 0.10500
C 	C 	0.73170 0.15820 0.62860 0.11800
H 	H 	0.73000 0.14620 0.60710 0.00600
C 	C 	0.76410 0.14860 0.65350 -0.18700
C 	C 	0.76670 0.16660 0.68570 0.12500
H 	H 	0.78840 0.16020 0.70230 0.00400
C 	C 	0.73710 0.19400 0.69290 -0.20300
H 	H 	0.73880 0.20600 0.71440 0.12200
C 	C 	0.78850 0.11590 0.64530 0.44000
C 	C 	0.53710 0.33540 0.58420 0.03000
C 	C 	0.51260 0.35770 0.56750 0.01900
H 	H 	0.50470 0.38010 0.57540 0.02600
N 	N 	0.50080 0.34360 0.53800 -0.11200
N 	N 	0.51790 0.31260 0.53650 -0.04100
N 	N 	0.54050 0.30760 0.56510 -0.07700
C 	C 	0.47310 0.35480 0.50940 0.18400
C 	C 	0.46690 0.33370 0.47960 -0.20600
H 	H 	0.48120 0.31190 0.47810 0.12000
C 	C 	0.43950 0.34510 0.45200 0.12900
H 	H 	0.43530 0.33100 0.43210 0.00400
C 	C 	0.41820 0.37770 0.45420 -0.19900
C 	C 	0.42440 0.39890 0.48400 0.12700
H 	H 	0.41020 0.42070 0.48550 -0.00400
C 	C 	0.45190 0.38740 0.51160 -0.21300
H 	H 	0.45600 0.40150 0.53150 0.10700
C 	C 	0.39170 0.39120 0.42490 0.43000
Zn	Zn	0.03681 0.16911 0.78633 1.23000
Zn	Zn	0.10698 0.11645 0.84238 1.25000
Zn	Zn	0.17757 0.06404 0.89820 1.19500
O 	O 	0.89180 0.89360 0.28860 -0.46300
O 	O 	0.03590 0.11710 0.84510 -0.44800
O 	O 	0.61590 0.32980 0.15780 -0.43900
O 	O 	0.88710 0.87420 0.39740 -0.45000
O 	O 	0.32470 0.61240 0.66140 -0.47200
O 	O 	0.00120 0.16570 0.82881 -0.48000
O 	O 	0.86720 0.91820 0.43260 -0.49200
O 	O 	0.10020 0.06250 0.85170 -0.46000
O 	O 	0.16000 0.02880 0.86210 -0.49500
O 	O 	0.94960 0.87200 0.25768 -0.49700
O 	O 	0.58870 0.30110 0.20460 -0.48300
O 	O 	0.28270 0.60370 0.61500 -0.50500
C 	C 	0.00740 0.14120 0.85120 0.40800
C 	C 	0.97780 0.14000 0.88256 -0.18700
C 	C 	0.94960 0.16800 0.89092 0.12400
H 	H 	0.94870 0.18780 0.87630 0.00400
C 	C 	0.92280 0.16660 0.92110 -0.20700
H 	H 	0.90400 0.18540 0.92670 0.12000
C 	C 	0.92420 0.13700 0.94301 0.19100
C 	C 	0.95240 0.10900 0.93460 -0.20300
H 	H 	0.95340 0.08920 0.94930 0.11100
C 	C 	0.97920 0.11040 0.90440 0.12000
H 	H 	0.99810 0.09160 0.89880 0.00300
N 	N 	0.89810 0.13470 0.97338 -0.11300
C 	C 	0.90210 0.11720 0.00440 0.02400
H 	H 	0.92340 0.10000 0.00960 0.02700
C 	C 	0.86980 0.12900 0.02650 0.02000
N 	N 	0.84590 0.15390 0.00920 -0.07300
N 	N 	0.86330 0.15730 0.97640 -0.04400
C 	C 	0.85580 0.11770 0.06061 0.08900
C 	C 	0.87180 0.08640 0.07520 -0.14400
H 	H 	0.89140 0.07220 0.06230 0.09200
C 	C 	0.85860 0.07640 0.10920 0.08600
C 	C 	0.82940 0.09770 0.12851 -0.14200
H 	H 	0.82060 0.09100 0.15120 0.09300
C 	C 	0.81330 0.12890 0.11390 0.08700
C 	C 	0.82650 0.13890 0.07990 -0.14300
H 	H 	0.81580 0.15980 0.07010 0.09400
C 	C 	0.87400 0.04090 0.12400 0.02400
N 	N 	0.90280 0.02100 0.10470 -0.07600
N 	N 	0.91630 0.99360 0.12510 -0.04500
N 	N 	0.89580 0.99660 0.15710 -0.11600
C 	C 	0.86960 0.02580 0.15640 0.02200
H 	H 	0.85180 0.03400 0.17490 0.02900
C 	C 	0.90000 0.97120 0.18214 0.20600
C 	C 	0.93760 0.94930 0.18188 -0.22100
H 	H 	0.95940 0.95200 0.16440 0.12900
C 	C 	0.94250 0.92350 0.20780 0.14100
H 	H 	0.96770 0.90890 0.20760 -0.00200
C 	C 	0.91000 0.91950 0.23400 -0.20300
C 	C 	0.87240 0.94140 0.23420 0.13800
H 	H 	0.85060 0.93870 0.25180 0.00100
C 	C 	0.86740 0.96720 0.20830 -0.22000
H 	H 	0.84230 0.98180 0.20850 0.11500
C 	C 	0.91720 0.89430 0.26290 0.43900
C 	C 	0.78260 0.15100 0.13500 0.02100
C 	C 	0.76040 0.18220 0.12810 0.01700
H 	H 	0.76310 0.19570 0.10760 0.02800
N 	N 	0.73340 0.18970 0.15690 -0.11300
N 	N 	0.73890 0.16320 0.18140 -0.04500
N 	N 	0.76930 0.13930 0.16800 -0.07500
C 	C 	0.70540 0.21750 0.16150 0.19300
C 	C 	0.68080 0.21850 0.19290 -0.20200
H 	H 	0.68380 0.20050 0.20950 0.12100
C 	C 	0.65170 0.24650 0.19950 0.11700
H 	H 	0.63530 0.24720 0.22050 0.00800
C 	C 	0.64720 0.27340 0.17470 -0.17300
C 	C 	0.67170 0.27240 0.14330 0.11100
H 	H 	0.66870 0.29040 0.12670 0.01500
C 	C 	0.70080 0.24440 0.13670 -0.20000
H 	H 	0.71730 0.24370 0.11570 0.10800
C 	C 	0.61440 0.30290 0.17850 0.41200
C 	C 	0.12320 0.03530 0.84620 0.40700
C 	C 	0.11060 0.00990 0.81810 -0.17800
C 	C 	0.14150 0.98480 0.80680 0.11500
H 	H 	0.16930 0.98290 0.81800 0.00300
C 	C 	0.13090 0.96250 0.77860 -0.20300
H 	H 	0.15160 0.94570 0.77110 0.10700
C 	C 	0.08940 0.96530 0.76180 0.18200
C 	C 	0.05850 0.99050 0.77320 -0.19200
H 	H 	0.03080 0.99240 0.76190 0.11400
C 	C 	0.06910 0.01270 0.80130 0.11500
H 	H 	0.04840 0.02950 0.80890 0.00800
N 	N 	0.07930 0.94080 0.73510 -0.11100
C 	C 	0.09560 0.91060 0.72400 0.01800
H 	H 	0.11920 0.89820 0.73420 0.02900
C 	C 	0.07270 0.90100 0.69590 0.02400
N 	N 	0.04220 0.92520 0.68960 -0.07200
N 	N 	0.04620 0.94990 0.71390 -0.04200
C 	C 	0.07670 0.86930 0.67460 0.08400
C 	C 	0.10340 0.84130 0.68560 -0.13900
H 	H 	0.11810 0.84230 0.70740 0.09400
C 	C 	0.10830 0.81170 0.66420 0.08400
C 	C 	0.08630 0.81010 0.63160 -0.13900
H 	H 	0.08960 0.79030 0.61720 0.09100
C 	C 	0.05960 0.83810 0.62050 0.08200
C 	C 	0.05470 0.86770 0.64200 -0.13900
H 	H 	0.03680 0.88640 0.63460 0.09300
N 	N 	0.15810 0.78020 0.70650 -0.07100
N 	N 	0.18560 0.75140 0.70720 -0.04500
N 	N 	0.18450 0.73610 0.67450 -0.11000
C 	C 	0.15650 0.75540 0.65350 0.01200
H 	H 	0.14970 0.75080 0.62990 0.02900
C 	C 	0.14020 0.78270 0.67330 0.02700
C 	C 	0.20470 0.70350 0.66800 0.18400
C 	C 	0.20210 0.68560 0.63590 -0.20600
H 	H 	0.18040 0.69200 0.61920 0.10600
C 	C 	0.23170 0.65820 0.62860 0.11800
H 	H 	0.23000 0.64620 0.60710 0.00600
C 	C 	0.26410 0.64860 0.65350 -0.18700
C 	C 	0.26670 0.66660 0.68570 0.12500
H 	H 	0.28840 0.66020 0.70230 0.00400
C 	C 	0.23710 0.69400 0.69290 -0.20300
H 	H 	0.23880 0.70600 0.71440 0.12200
C 	C 	0.28850 0.61590 0.64530 0.44100
C 	C 	0.03710 0.83540 0.58420 0.03000
C 	C 	0.01260 0.85770 0.56750 0.01800
H 	H 	0.00470 0.88010 0.57540 0.02700
N 	N 	0.00080 0.84360 0.53800 -0.11000
N 	N 	0.01790 0.81260 0.53650 -0.04100
N 	N 	0.04050 0.80760 0.56510 -0.07700
C 	C 	0.97310 0.85480 0.50940 0.18000
C 	C 	0.96690 0.83370 0.47960 -0.20400
H 	H 	0.98120 0.81190 0.47810 0.11800
C 	C 	0.93950 0.84510 0.45200 0.12600
H 	H 	0.93530 0.83100 0.43210 0.00400
C 	C 	0.91820 0.87770 0.45420 -0.19800
C 	C 	0.92440 0.89890 0.48400 0.12500
H 	H 	0.91020 0.92070 0.48550 -0.00400
C 	C 	0.95190 0.88740 0.51160 -0.21100
H 	H 	0.95600 0.90150 0.53150 0.10600
C 	C 	0.89170 0.89120 0.42490 0.42900
Zn	Zn	0.46319 0.33089 0.28633 1.23000
Zn	Zn	0.39302 0.38355 0.34238 1.25000
Zn	Zn	0.32243 0.43596 0.39820 1.19500
O 	O 	0.60820 0.60640 0.78860 -0.46300
O 	O 	0.46410 0.38290 0.34510 -0.44800
O 	O 	0.88410 0.17020 0.65780 -0.43900
O 	O 	0.61290 0.62580 0.89740 -0.45000
O 	O 	0.17530 0.88760 0.16140 -0.47200
O 	O 	0.49880 0.33430 0.32881 -0.48000
O 	O 	0.63280 0.58180 0.93260 -0.49200
O 	O 	0.39980 0.43750 0.35170 -0.46100
O 	O 	0.34000 0.47120 0.36210 -0.49500
O 	O 	0.55040 0.62800 0.75768 -0.49600
O 	O 	0.91130 0.19890 0.70460 -0.48300
O 	O 	0.21730 0.89630 0.11500 -0.50500
C 	C 	0.49260 0.35880 0.35120 0.40400
C 	C 	0.52220 0.36000 0.38256 -0.18200
C 	C 	0.55040 0.33200 0.39092 0.12100
H 	H 	0.55130 0.31220 0.37630 0.00600
C 	C 	0.57720 0.33340 0.42110 -0.20400
H 	H 	0.59600 0.31460 0.42670 0.11900
C 	C 	0.57580 0.36300 0.44301 0.18900
C 	C 	0.54760 0.39100 0.43460 -0.20100
H 	H 	0.54660 0.41080 0.44930 0.11000
C 	C 	0.52080 0.38960 0.40440 0.11700
H 	H 	0.50190 0.40840 0.39880 0.00500
N 	N 	0.60190 0.36530 0.47338 -0.11200
C 	C 	0.59790 0.38280 0.50440 0.02400
H 	H 	0.57660 0.40000 0.50960 0.02800
C 	C 	0.63020 0.37100 0.52650 0.02000
N 	N 	0.65410 0.34610 0.50920 -0.07300
N 	N 	0.63670 0.34270 0.47640 -0.04400
C 	C 	0.64420 0.38230 0.56061 0.08900
C 	C 	0.62820 0.41360 0.57520 -0.14400
H 	H 	0.60860 0.42780 0.56230 0.09200
C 	C 	0.64140 0.42360 0.60920 0.08600
C 	C 	0.67060 0.40230 0.62851 -0.14200
H 	H 	0.67940 0.40900 0.65120 0.09300
C 	C 	0.68670 0.37110 0.61390 0.08700
C 	C 	0.67350 0.36110 0.57990 -0.14300
H 	H 	0.68420 0.34020 0.57010 0.09400
C 	C 	0.62600 0.45910 0.62400 0.02400
N 	N 	0.59720 0.47900 0.60470 -0.07600
N 	N 	0.58370 0.50640 0.62510 -0.04400
N 	N 	0.60420 0.50340 0.65710 -0.11600
C 	C 	0.63040 0.47420 0.65640 0.02200
H 	H 	0.64820 0.46600 0.67490 0.02900
C 	C 	0.60000 0.52880 0.68214 0.20600
C 	C 	0.56240 0.55070 0.68188 -0.22000
H 	H 	0.54060 0.54800 0.66440 0.12900
C 	C 	0.55750 0.57650 0.70780 0.14000
H 	H 	0.53230 0.59110 0.70760 -0.00100
C 	C 	0.59000 0.58050 0.73400 -0.20200
C 	C 	0.62760 0.55860 0.73420 0.13800
H 	H 	0.64940 0.56130 0.75180 0.00100
C 	C 	0.63260 0.53280 0.70830 -0.22000
H 	H 	0.65770 0.51820 0.70850 0.11500
C 	C 	0.58280 0.60570 0.76290 0.43800
C 	C 	0.71740 0.34900 0.63500 0.02100
C 	C 	0.73960 0.31780 0.62810 0.01700
H 	H 	0.73690 0.30430 0.60760 0.02800
N 	N 	0.76660 0.31030 0.65690 -0.11300
N 	N 	0.76110 0.33680 0.68140 -0.04500
N 	N 	0.73070 0.36070 0.66800 -0.07500
C 	C 	0.79460 0.28250 0.66150 0.19300
C 	C 	0.81920 0.28150 0.69290 -0.20200
H 	H 	0.81620 0.29950 0.70950 0.12000
C 	C 	0.84830 0.25350 0.69950 0.11700
H 	H 	0.86470 0.25280 0.72050 0.00700
C 	C 	0.85280 0.22660 0.67470 -0.17300
C 	C 	0.82830 0.22760 0.64330 0.11100
H 	H 	0.83130 0.20960 0.62670 0.01500
C 	C 	0.79920 0.25560 0.63670 -0.20000
H 	H 	0.78270 0.25630 0.61570 0.10800
C 	C 	0.88560 0.19710 0.67850 0.41200
C 	C 	0.37680 0.46470 0.34620 0.40700
C 	C 	0.38940 0.49010 0.31810 -0.17800
C 	C 	0.35850 0.51520 0.30680 0.11500
H 	H 	0.33070 0.51710 0.31800 0.00300
C 	C 	0.36910 0.53750 0.27860 -0.20300
H 	H 	0.34840 0.55430 0.27110 0.10600
C 	C 	0.41060 0.53470 0.26180 0.18200
C 	C 	0.44150 0.50950 0.27320 -0.19200
H 	H 	0.46920 0.50760 0.26190 0.11300
C 	C 	0.43090 0.48730 0.30130 0.11500
H 	H 	0.45160 0.47050 0.30890 0.00700
N 	N 	0.42070 0.55920 0.23510 -0.11100
C 	C 	0.40440 0.58940 0.22400 0.01800
H 	H 	0.38080 0.60180 0.23420 0.02900
C 	C 	0.42730 0.59900 0.19590 0.02400
N 	N 	0.45780 0.57480 0.18960 -0.07300
N 	N 	0.45380 0.55010 0.21390 -0.04300
C 	C 	0.42330 0.63070 0.17460 0.08400
C 	C 	0.39660 0.65870 0.18560 -0.13900
H 	H 	0.38190 0.65770 0.20740 0.09400
C 	C 	0.39170 0.68830 0.16420 0.08400
C 	C 	0.41370 0.68990 0.13160 -0.13900
H 	H 	0.41040 0.70970 0.11720 0.09100
C 	C 	0.44040 0.66190 0.12050 0.08100
C 	C 	0.44530 0.63230 0.14200 -0.13900
H 	H 	0.46320 0.61360 0.13460 0.09200
N 	N 	0.34190 0.71980 0.20650 -0.07100
N 	N 	0.31440 0.74860 0.20720 -0.04500
N 	N 	0.31550 0.76390 0.17450 -0.11000
C 	C 	0.34350 0.74460 0.15350 0.01200
H 	H 	0.35030 0.74920 0.12990 0.02900
C 	C 	0.35980 0.71730 0.17330 0.02600
C 	C 	0.29530 0.79650 0.16800 0.18400
C 	C 	0.29790 0.81440 0.13590 -0.20600
H 	H 	0.31960 0.80800 0.11920 0.10500
C 	C 	0.26830 0.84180 0.12860 0.11800
H 	H 	0.27000 0.85380 0.10710 0.00600
C 	C 	0.23590 0.85140 0.15350 -0.18700
C 	C 	0.23330 0.83340 0.18570 0.12500
H 	H 	0.21160 0.83980 0.20230 0.00400
C 	C 	0.26290 0.80600 0.19290 -0.20300
H 	H 	0.26120 0.79400 0.21440 0.12200
C 	C 	0.21150 0.88410 0.14530 0.44000
C 	C 	0.46290 0.66460 0.08420 0.03000
C 	C 	0.48740 0.64230 0.06750 0.01900
H 	H 	0.49530 0.61990 0.07540 0.02600
N 	N 	0.49920 0.65640 0.03800 -0.11200
N 	N 	0.48210 0.68740 0.03650 -0.04100
N 	N 	0.45950 0.69240 0.06510 -0.07700
C 	C 	0.52690 0.64520 0.00940 0.18400
C 	C 	0.53310 0.66630 0.97960 -0.20600
H 	H 	0.51880 0.68810 0.97810 0.12000
C 	C 	0.56050 0.65490 0.95200 0.12900
H 	H 	0.56470 0.66900 0.93210 0.00400
C 	C 	0.58180 0.62230 0.95420 -0.19900
C 	C 	0.57560 0.60110 0.98400 0.12700
H 	H 	0.58980 0.57930 0.98550 -0.00400
C 	C 	0.54810 0.61260 0.01160 -0.21300
H 	H 	0.54400 0.59850 0.03150 0.10700
C 	C 	0.60830 0.60880 0.92490 0.43000
Zn	Zn	0.96319 0.83089 0.28633 1.22900
Zn	Zn	0.89302 0.88355 0.34238 1.25000
Zn	Zn	0.82243 0.93596 0.39820 1.19500
O 	O 	0.10820 0.10640 0.78860 -0.46300
O 	O 	0.96410 0.88290 0.34510 -0.44800
O 	O 	0.38410 0.67020 0.65780 -0.43900
O 	O 	0.11290 0.12580 0.89740 -0.45000
O 	O 	0.67530 0.38760 0.16140 -0.47200
O 	O 	0.99880 0.83430 0.32881 -0.48100
O 	O 	0.13280 0.08180 0.93260 -0.49200
O 	O 	0.89980 0.93750 0.35170 -0.46100
O 	O 	0.84000 0.97120 0.36210 -0.49500
O 	O 	0.05040 0.12800 0.75768 -0.49500
O 	O 	0.41130 0.69890 0.70460 -0.48300
O 	O 	0.71730 0.39630 0.11500 -0.50500
C 	C 	0.99260 0.85880 0.35120 0.39900
C 	C 	0.02220 0.86000 0.38256 -0.17600
C 	C 	0.05040 0.83200 0.39092 0.11800
H 	H 	0.05130 0.81220 0.37630 0.00800
C 	C 	0.07720 0.83340 0.42110 -0.20200
H 	H 	0.09600 0.81460 0.42670 0.11900
C 	C 	0.07580 0.86300 0.44301 0.18800
C 	C 	0.04760 0.89100 0.43460 -0.19800
H 	H 	0.04660 0.91080 0.44930 0.11000
C 	C 	0.02080 0.88960 0.40440 0.11400
H 	H 	0.00190 0.90840 0.39880 0.00800
N 	N 	0.10190 0.86530 0.47338 -0.11200
C 	C 	0.09790 0.88280 0.50440 0.02400
H 	H 	0.07660 0.90000 0.50960 0.02800
C 	C 	0.13020 0.87100 0.52650 0.02000
N 	N 	0.15410 0.84610 0.50920 -0.07300
N 	N 	0.13670 0.84270 0.47640 -0.04400
C 	C 	0.14420 0.88230 0.56061 0.08900
C 	C 	0.12820 0.91360 0.57520 -0.14400
H 	H 	0.10860 0.92780 0.56230 0.09300
C 	C 	0.14140 0.92360 0.60920 0.08600
C 	C 	0.17060 0.90230 0.62851 -0.14200
H 	H 	0.17940 0.90900 0.65120 0.09300
C 	C 	0.18670 0.87110 0.61390 0.08700
C 	C 	0.17350 0.86110 0.57990 -0.14300
H 	H 	0.18420 0.84020 0.57010 0.09400
C 	C 	0.12600 0.95910 0.62400 0.02400
N 	N 	0.09720 0.97900 0.60470 -0.07600
N 	N 	0.08370 0.00640 0.62510 -0.04400
N 	N 	0.10420 0.00340 0.65710 -0.11600
C 	C 	0.13040 0.97420 0.65640 0.02200
H 	H 	0.14820 0.96600 0.67490 0.02900
C 	C 	0.10000 0.02880 0.68214 0.20600
C 	C 	0.06240 0.05070 0.68188 -0.22000
H 	H 	0.04060 0.04800 0.66440 0.13000
C 	C 	0.05750 0.07650 0.70780 0.14000
H 	H 	0.03230 0.09110 0.70760 -0.00000
C 	C 	0.09000 0.08050 0.73400 -0.20200
C 	C 	0.12760 0.05860 0.73420 0.13700
H 	H 	0.14940 0.06130 0.75180 0.00100
C 	C 	0.13260 0.03280 0.70830 -0.22000
H 	H 	0.15770 0.01820 0.70850 0.11500
C 	C 	0.08280 0.10570 0.76290 0.43800
C 	C 	0.21740 0.84900 0.63500 0.02100
C 	C 	0.23960 0.81780 0.62810 0.01700
H 	H 	0.23690 0.80430 0.60760 0.02800
N 	N 	0.26660 0.81030 0.65690 -0.11300
N 	N 	0.26110 0.83680 0.68140 -0.04500
N 	N 	0.23070 0.86070 0.66800 -0.07500
C 	C 	0.29460 0.78250 0.66150 0.19300
C 	C 	0.31920 0.78150 0.69290 -0.20200
H 	H 	0.31620 0.79950 0.70950 0.12100
C 	C 	0.34830 0.75350 0.69950 0.11700
H 	H 	0.36470 0.75280 0.72050 0.00800
C 	C 	0.35280 0.72660 0.67470 -0.17300
C 	C 	0.32830 0.72760 0.64330 0.11100
H 	H 	0.33130 0.70960 0.62670 0.01500
C 	C 	0.29920 0.75560 0.63670 -0.20000
H 	H 	0.28270 0.75630 0.61570 0.10800
C 	C 	0.38560 0.69710 0.67850 0.41200
C 	C 	0.87680 0.96470 0.34620 0.40700
C 	C 	0.88940 0.99010 0.31810 -0.17800
C 	C 	0.85850 0.01520 0.30680 0.11500
H 	H 	0.83070 0.01710 0.31800 0.00300
C 	C 	0.86910 0.03750 0.27860 -0.20300
H 	H 	0.84840 0.05430 0.27110 0.10600
C 	C 	0.91060 0.03470 0.26180 0.18100
C 	C 	0.94150 0.00950 0.27320 -0.19200
H 	H 	0.96920 0.00760 0.26190 0.11200
C 	C 	0.93090 0.98730 0.30130 0.11400
H 	H 	0.95160 0.97050 0.30890 0.00600
N 	N 	0.92070 0.05920 0.23510 -0.11100
C 	C 	0.90440 0.08940 0.22400 0.01800
H 	H 	0.88080 0.10180 0.23420 0.02900
C 	C 	0.92730 0.09900 0.19590 0.02400
N 	N 	0.95780 0.07480 0.18960 -0.07300
N 	N 	0.95380 0.05010 0.21390 -0.04400
C 	C 	0.92330 0.13070 0.17460 0.08300
C 	C 	0.89660 0.15870 0.18560 -0.13900
H 	H 	0.88190 0.15770 0.20740 0.09300
C 	C 	0.89170 0.18830 0.16420 0.08400
C 	C 	0.91370 0.18990 0.13160 -0.13900
H 	H 	0.91040 0.20970 0.11720 0.09100
C 	C 	0.94040 0.16190 0.12050 0.08100
C 	C 	0.94530 0.13230 0.14200 -0.13800
H 	H 	0.96320 0.11360 0.13460 0.09200
N 	N 	0.84190 0.21980 0.20650 -0.07200
N 	N 	0.81440 0.24860 0.20720 -0.04500
N 	N 	0.81550 0.26390 0.17450 -0.11000
C 	C 	0.84350 0.24460 0.15350 0.01100
H 	H 	0.85030 0.24920 0.12990 0.02900
C 	C 	0.85980 0.21730 0.17330 0.02600
C 	C 	0.79530 0.29650 0.16800 0.18300
C 	C 	0.79790 0.31440 0.13590 -0.20600
H 	H 	0.81960 0.30800 0.11920 0.10500
C 	C 	0.76830 0.34180 0.12860 0.11800
H 	H 	0.77000 0.35380 0.10710 0.00600
C 	C 	0.73590 0.35140 0.15350 -0.18700
C 	C 	0.73330 0.33340 0.18570 0.12500
H 	H 	0.71160 0.33980 0.20230 0.00400
C 	C 	0.76290 0.30600 0.19290 -0.20300
H 	H 	0.76120 0.29400 0.21440 0.12200
C 	C 	0.71150 0.38410 0.14530 0.44000
C 	C 	0.96290 0.16460 0.08420 0.02900
C 	C 	0.98740 0.14230 0.06750 0.01900
H 	H 	0.99530 0.11990 0.07540 0.02500
N 	N 	0.99920 0.15640 0.03800 -0.11400
N 	N 	0.98210 0.18740 0.03650 -0.04200
N 	N 	0.95950 0.19240 0.06510 -0.07700
C 	C 	0.02690 0.14520 0.00940 0.18900
C 	C 	0.03310 0.16630 0.97960 -0.20800
H 	H 	0.01880 0.18810 0.97810 0.12200
C 	C 	0.06050 0.15490 0.95200 0.13100
H 	H 	0.06470 0.16900 0.93210 0.00300
C 	C 	0.08180 0.12230 0.95420 -0.20000
C 	C 	0.07560 0.10110 0.98400 0.13000
H 	H 	0.08980 0.07930 0.98550 -0.00500
C 	C 	0.04810 0.11260 0.01160 -0.21500
H 	H 	0.04400 0.09850 0.03150 0.10900
C 	C 	0.10830 0.10880 0.92490 0.43000
Zn	Zn	0.46319 0.66911 0.71367 1.23000
Zn	Zn	0.39302 0.61645 0.65762 1.25000
Zn	Zn	0.32243 0.56404 0.60180 1.19500
O 	O 	0.60820 0.39360 0.21140 -0.46300
O 	O 	0.46410 0.61710 0.65490 -0.44800
O 	O 	0.88410 0.82980 0.34220 -0.43900
O 	O 	0.61290 0.37420 0.10260 -0.45000
O 	O 	0.17530 0.11240 0.83860 -0.47200
O 	O 	0.49880 0.66570 0.67119 -0.48000
O 	O 	0.63280 0.41820 0.06740 -0.49200
O 	O 	0.39980 0.56250 0.64830 -0.46100
O 	O 	0.34000 0.52880 0.63790 -0.49500
O 	O 	0.55040 0.37200 0.24232 -0.49600
O 	O 	0.91130 0.80110 0.29540 -0.48300
O 	O 	0.21730 0.10370 0.88500 -0.50500
C 	C 	0.49260 0.64120 0.64880 0.40400
C 	C 	0.52220 0.64000 0.61744 -0.18200
C 	C 	0.55040 0.66800 0.60908 0.12100
H 	H 	0.55130 0.68780 0.62370 0.00600
C 	C 	0.57720 0.66660 0.57890 -0.20400
H 	H 	0.59600 0.68540 0.57330 0.11900
C 	C 	0.57580 0.63700 0.55699 0.18900
C 	C 	0.54760 0.60900 0.56540 -0.20100
H 	H 	0.54660 0.58920 0.55070 0.11000
C 	C 	0.52080 0.61040 0.59560 0.11700
H 	H 	0.50190 0.59160 0.60120 0.00500
N 	N 	0.60190 0.63470 0.52662 -0.11200
C 	C 	0.59790 0.61720 0.49560 0.02400
H 	H 	0.57660 0.60000 0.49040 0.02800
C 	C 	0.63020 0.62900 0.47350 0.02000
N 	N 	0.65410 0.65390 0.49080 -0.07300
N 	N 	0.63670 0.65730 0.52360 -0.04400
C 	C 	0.64420 0.61770 0.43939 0.08900
C 	C 	0.62820 0.58640 0.42480 -0.14400
H 	H 	0.60860 0.57220 0.43770 0.09200
C 	C 	0.64140 0.57640 0.39080 0.08600
C 	C 	0.67060 0.59770 0.37149 -0.14200
H 	H 	0.67940 0.59100 0.34880 0.09300
C 	C 	0.68670 0.62890 0.38610 0.08700
C 	C 	0.67350 0.63890 0.42010 -0.14300
H 	H 	0.68420 0.65980 0.42990 0.09400
C 	C 	0.62600 0.54090 0.37600 0.02400
N 	N 	0.59720 0.52100 0.39530 -0.07600
N 	N 	0.58370 0.49360 0.37490 -0.04400
N 	N 	0.60420 0.49660 0.34290 -0.11600
C 	C 	0.63040 0.52580 0.34360 0.02200
H 	H 	0.64820 0.53400 0.32510 0.02900
C 	C 	0.60000 0.47120 0.31786 0.20600
C 	C 	0.56240 0.44930 0.31812 -0.22000
H 	H 	0.54060 0.45200 0.33560 0.12900
C 	C 	0.55750 0.42350 0.29220 0.14000
H 	H 	0.53230 0.40890 0.29240 -0.00100
C 	C 	0.59000 0.41950 0.26600 -0.20200
C 	C 	0.62760 0.44140 0.26580 0.13800
H 	H 	0.64940 0.43870 0.24820 0.00100
C 	C 	0.63260 0.46720 0.29170 -0.22000
H 	H 	0.65770 0.48180 0.29150 0.11500
C 	C 	0.58280 0.39430 0.23710 0.43800
C 	C 	0.71740 0.65100 0.36500 0.02100
C 	C 	0.73960 0.68220 0.37190 0.01700
H 	H 	0.73690 0.69570 0.39240 0.02800
N 	N 	0.76660 0.68970 0.34310 -0.11300
N 	N 	0.76110 0.66320 0.31860 -0.04500
N 	N 	0.73070 0.63930 0.33200 -0.07500
C 	C 	0.79460 0.71750 0.33850 0.19300
C 	C 	0.81920 0.71850 0.30710 -0.20200
H 	H 	0.81620 0.70050 0.29050 0.12000
C 	C 	0.84830 0.74650 0.30050 0.11700
H 	H 	0.86470 0.74720 0.27950 0.00700
C 	C 	0.85280 0.77340 0.32530 -0.17300
C 	C 	0.82830 0.77240 0.35670 0.11100
H 	H 	0.83130 0.79040 0.37330 0.01500
C 	C 	0.79920 0.74440 0.36330 -0.20000
H 	H 	0.78270 0.74370 0.38430 0.10800
C 	C 	0.88560 0.80290 0.32150 0.41200
C 	C 	0.37680 0.53530 0.65380 0.40700
C 	C 	0.38940 0.50990 0.68190 -0.17800
C 	C 	0.35850 0.48480 0.69320 0.11500
H 	H 	0.33070 0.48290 0.68200 0.00300
C 	C 	0.36910 0.46250 0.72140 -0.20300
H 	H 	0.34840 0.44570 0.72890 0.10600
C 	C 	0.41060 0.46530 0.73820 0.18200
C 	C 	0.44150 0.49050 0.72680 -0.19200
H 	H 	0.46920 0.49240 0.73810 0.11300
C 	C 	0.43090 0.51270 0.69870 0.11500
H 	H 	0.45160 0.52950 0.69110 0.00700
N 	N 	0.42070 0.44080 0.76490 -0.11100
C 	C 	0.40440 0.41060 0.77600 0.01800
H 	H 	0.38080 0.39820 0.76580 0.02900
C 	C 	0.42730 0.40100 0.80410 0.02400
N 	N 	0.45780 0.42520 0.81040 -0.07300
N 	N 	0.45380 0.44990 0.78610 -0.04300
C 	C 	0.42330 0.36930 0.82540 0.08400
C 	C 	0.39660 0.34130 0.81440 -0.13900
H 	H 	0.38190 0.34230 0.79260 0.09400
C 	C 	0.39170 0.31170 0.83580 0.08400
C 	C 	0.41370 0.31010 0.86840 -0.13900
H 	H 	0.41040 0.29030 0.88280 0.09100
C 	C 	0.44040 0.33810 0.87950 0.08100
C 	C 	0.44530 0.36770 0.85800 -0.13900
H 	H 	0.46320 0.38640 0.86540 0.09200
N 	N 	0.34190 0.28020 0.79350 -0.07100
N 	N 	0.31440 0.25140 0.79280 -0.04500
N 	N 	0.31550 0.23610 0.82550 -0.11000
C 	C 	0.34350 0.25540 0.84650 0.01200
H 	H 	0.35030 0.25080 0.87010 0.02900
C 	C 	0.35980 0.28270 0.82670 0.02600
C 	C 	0.29530 0.20350 0.83200 0.18400
C 	C 	0.29790 0.18560 0.86410 -0.20600
H 	H 	0.31960 0.19200 0.88080 0.10500
C 	C 	0.26830 0.15820 0.87140 0.11800
H 	H 	0.27000 0.14620 0.89290 0.00600
C 	C 	0.23590 0.14860 0.84650 -0.18700
C 	C 	0.23330 0.16660 0.81430 0.12500
H 	H 	0.21160 0.16020 0.79770 0.00400
C 	C 	0.26290 0.19400 0.80710 -0.20300
H 	H 	0.26120 0.20600 0.78560 0.12200
C 	C 	0.21150 0.11590 0.85470 0.44000
C 	C 	0.46290 0.33540 0.91580 0.03000
C 	C 	0.48740 0.35770 0.93250 0.01900
H 	H 	0.49530 0.38010 0.92460 0.02600
N 	N 	0.49920 0.34360 0.96200 -0.11200
N 	N 	0.48210 0.31260 0.96350 -0.04100
N 	N 	0.45950 0.30760 0.93490 -0.07700
C 	C 	0.52690 0.35480 0.99060 0.18400
C 	C 	0.53310 0.33370 0.02040 -0.20600
H 	H 	0.51880 0.31190 0.02190 0.12000
C 	C 	0.56050 0.34510 0.04800 0.12900
H 	H 	0.56470 0.33100 0.06790 0.00400
C 	C 	0.58180 0.37770 0.04580 -0.19900
C 	C 	0.57560 0.39890 0.01600 0.12700
H 	H 	0.58980 0.42070 0.01450 -0.00400
C 	C 	0.54810 0.38740 0.98840 -0.21300
H 	H 	0.54400 0.40150 0.96850 0.10700
C 	C 	0.60830 0.39120 0.07510 0.43000
Zn	Zn	0.96319 0.16911 0.71367 1.22900
Zn	Zn	0.89302 0.11645 0.65762 1.25000
Zn	Zn	0.82243 0.06404 0.60180 1.19500
O 	O 	0.10820 0.89360 0.21140 -0.46300
O 	O 	0.96410 0.11710 0.65490 -0.44800
O 	O 	0.38410 0.32980 0.34220 -0.43900
O 	O 	0.11290 0.87420 0.10260 -0.45000
O 	O 	0.67530 0.61240 0.83860 -0.47200
O 	O 	0.99880 0.16570 0.67119 -0.48100
O 	O 	0.13280 0.91820 0.06740 -0.49200
O 	O 	0.89980 0.06250 0.64830 -0.46100
O 	O 	0.84000 0.02880 0.63790 -0.49500
O 	O 	0.05040 0.87200 0.24232 -0.49500
O 	O 	0.41130 0.30110 0.29540 -0.48300
O 	O 	0.71730 0.60370 0.88500 -0.50500
C 	C 	0.99260 0.14120 0.64880 0.39900
C 	C 	0.02220 0.14000 0.61744 -0.17600
C 	C 	0.05040 0.16800 0.60908 0.11800
H 	H 	0.05130 0.18780 0.62370 0.00800
C 	C 	0.07720 0.16660 0.57890 -0.20200
H 	H 	0.09600 0.18540 0.57330 0.11900
C 	C 	0.07580 0.13700 0.55699 0.18800
C 	C 	0.04760 0.10900 0.56540 -0.19800
H 	H 	0.04660 0.08920 0.55070 0.11000
C 	C 	0.02080 0.11040 0.59560 0.11400
H 	H 	0.00190 0.09160 0.60120 0.00800
N 	N 	0.10190 0.13470 0.52662 -0.11200
C 	C 	0.09790 0.11720 0.49560 0.02400
H 	H 	0.07660 0.10000 0.49040 0.02800
C 	C 	0.13020 0.12900 0.47350 0.02000
N 	N 	0.15410 0.15390 0.49080 -0.07300
N 	N 	0.13670 0.15730 0.52360 -0.04400
C 	C 	0.14420 0.11770 0.43939 0.08900
C 	C 	0.12820 0.08640 0.42480 -0.14400
H 	H 	0.10860 0.07220 0.43770 0.09300
C 	C 	0.14140 0.07640 0.39080 0.08600
C 	C 	0.17060 0.09770 0.37149 -0.14200
H 	H 	0.17940 0.09100 0.34880 0.09300
C 	C 	0.18670 0.12890 0.38610 0.08700
C 	C 	0.17350 0.13890 0.42010 -0.14300
H 	H 	0.18420 0.15980 0.42990 0.09400
C 	C 	0.12600 0.04090 0.37600 0.02400
N 	N 	0.09720 0.02100 0.39530 -0.07600
N 	N 	0.08370 0.99360 0.37490 -0.04400
N 	N 	0.10420 0.99660 0.34290 -0.11600
C 	C 	0.13040 0.02580 0.34360 0.02200
H 	H 	0.14820 0.03400 0.32510 0.02900
C 	C 	0.10000 0.97120 0.31786 0.20600
C 	C 	0.06240 0.94930 0.31812 -0.22000
H 	H 	0.04060 0.95200 0.33560 0.13000
C 	C 	0.05750 0.92350 0.29220 0.14000
H 	H 	0.03230 0.90890 0.29240 -0.00000
C 	C 	0.09000 0.91950 0.26600 -0.20200
C 	C 	0.12760 0.94140 0.26580 0.13700
H 	H 	0.14940 0.93870 0.24820 0.00100
C 	C 	0.13260 0.96720 0.29170 -0.22000
H 	H 	0.15770 0.98180 0.29150 0.11500
C 	C 	0.08280 0.89430 0.23710 0.43800
C 	C 	0.21740 0.15100 0.36500 0.02100
C 	C 	0.23960 0.18220 0.37190 0.01700
H 	H 	0.23690 0.19570 0.39240 0.02800
N 	N 	0.26660 0.18970 0.34310 -0.11300
N 	N 	0.26110 0.16320 0.31860 -0.04500
N 	N 	0.23070 0.13930 0.33200 -0.07500
C 	C 	0.29460 0.21750 0.33850 0.19300
C 	C 	0.31920 0.21850 0.30710 -0.20200
H 	H 	0.31620 0.20050 0.29050 0.12100
C 	C 	0.34830 0.24650 0.30050 0.11700
H 	H 	0.36470 0.24720 0.27950 0.00800
C 	C 	0.35280 0.27340 0.32530 -0.17300
C 	C 	0.32830 0.27240 0.35670 0.11100
H 	H 	0.33130 0.29040 0.37330 0.01500
C 	C 	0.29920 0.24440 0.36330 -0.20000
H 	H 	0.28270 0.24370 0.38430 0.10800
C 	C 	0.38560 0.30290 0.32150 0.41200
C 	C 	0.87680 0.03530 0.65380 0.40700
C 	C 	0.88940 0.00990 0.68190 -0.17800
C 	C 	0.85850 0.98480 0.69320 0.11500
H 	H 	0.83070 0.98290 0.68200 0.00300
C 	C 	0.86910 0.96250 0.72140 -0.20300
H 	H 	0.84840 0.94570 0.72890 0.10600
C 	C 	0.91060 0.96530 0.73820 0.18100
C 	C 	0.94150 0.99050 0.72680 -0.19200
H 	H 	0.96920 0.99240 0.73810 0.11200
C 	C 	0.93090 0.01270 0.69870 0.11400
H 	H 	0.95160 0.02950 0.69110 0.00600
N 	N 	0.92070 0.94080 0.76490 -0.11100
C 	C 	0.90440 0.91060 0.77600 0.01800
H 	H 	0.88080 0.89820 0.76580 0.02900
C 	C 	0.92730 0.90100 0.80410 0.02400
N 	N 	0.95780 0.92520 0.81040 -0.07300
N 	N 	0.95380 0.94990 0.78610 -0.04400
C 	C 	0.92330 0.86930 0.82540 0.08300
C 	C 	0.89660 0.84130 0.81440 -0.13900
H 	H 	0.88190 0.84230 0.79260 0.09300
C 	C 	0.89170 0.81170 0.83580 0.08400
C 	C 	0.91370 0.81010 0.86840 -0.13900
H 	H 	0.91040 0.79030 0.88280 0.09100
C 	C 	0.94040 0.83810 0.87950 0.08100
C 	C 	0.94530 0.86770 0.85800 -0.13800
H 	H 	0.96320 0.88640 0.86540 0.09200
N 	N 	0.84190 0.78020 0.79350 -0.07200
N 	N 	0.81440 0.75140 0.79280 -0.04500
N 	N 	0.81550 0.73610 0.82550 -0.11000
C 	C 	0.84350 0.75540 0.84650 0.01100
H 	H 	0.85030 0.75080 0.87010 0.02900
C 	C 	0.85980 0.78270 0.82670 0.02600
C 	C 	0.79530 0.70350 0.83200 0.18300
C 	C 	0.79790 0.68560 0.86410 -0.20600
H 	H 	0.81960 0.69200 0.88080 0.10500
C 	C 	0.76830 0.65820 0.87140 0.11800
H 	H 	0.77000 0.64620 0.89290 0.00600
C 	C 	0.73590 0.64860 0.84650 -0.18700
C 	C 	0.73330 0.66660 0.81430 0.12500
H 	H 	0.71160 0.66020 0.79770 0.00400
C 	C 	0.76290 0.69400 0.80710 -0.20300
H 	H 	0.76120 0.70600 0.78560 0.12200
C 	C 	0.71150 0.61590 0.85470 0.44000
C 	C 	0.96290 0.83540 0.91580 0.02900
C 	C 	0.98740 0.85770 0.93250 0.01900
H 	H 	0.99530 0.88010 0.92460 0.02500
N 	N 	0.99920 0.84360 0.96200 -0.11400
N 	N 	0.98210 0.81260 0.96350 -0.04200
N 	N 	0.95950 0.80760 0.93490 -0.07700
C 	C 	0.02690 0.85480 0.99060 0.18900
C 	C 	0.03310 0.83370 0.02040 -0.20800
H 	H 	0.01880 0.81190 0.02190 0.12200
C 	C 	0.06050 0.84510 0.04800 0.13100
H 	H 	0.06470 0.83100 0.06790 0.00300
C 	C 	0.08180 0.87770 0.04580 -0.20000
C 	C 	0.07560 0.89890 0.01600 0.13000
H 	H 	0.08980 0.92070 0.01450 -0.00500
C 	C 	0.04810 0.88740 0.98840 -0.21500
H 	H 	0.04400 0.90150 0.96850 0.10900
C 	C 	0.10830 0.89120 0.07510 0.43000
Zn	Zn	0.53681 0.33089 0.21367 1.23000
Zn	Zn	0.60698 0.38355 0.15762 1.25000
Zn	Zn	0.67757 0.43596 0.10180 1.19500
O 	O 	0.39180 0.60640 0.71140 -0.46300
O 	O 	0.53590 0.38290 0.15490 -0.44800
O 	O 	0.11590 0.17020 0.84220 -0.43800
O 	O 	0.38710 0.62580 0.60260 -0.45000
O 	O 	0.82470 0.88760 0.33860 -0.47200
O 	O 	0.50120 0.33430 0.17119 -0.48000
O 	O 	0.36720 0.58180 0.56740 -0.49200
O 	O 	0.60020 0.43750 0.14830 -0.46100
O 	O 	0.66000 0.47120 0.13790 -0.49500
O 	O 	0.44960 0.62800 0.74232 -0.49600
O 	O 	0.08870 0.19890 0.79540 -0.48300
O 	O 	0.78270 0.89630 0.38500 -0.50500
C 	C 	0.50740 0.35880 0.14880 0.40400
C 	C 	0.47780 0.36000 0.11744 -0.18200
C 	C 	0.44960 0.33200 0.10908 0.12100
H 	H 	0.44870 0.31220 0.12370 0.00600
C 	C 	0.42280 0.33340 0.07890 -0.20400
H 	H 	0.40400 0.31460 0.07330 0.11900
C 	C 	0.42420 0.36300 0.05699 0.19000
C 	C 	0.45240 0.39100 0.06540 -0.20100
H 	H 	0.45340 0.41080 0.05070 0.11000
C 	C 	0.47920 0.38960 0.09560 0.11700
H 	H 	0.49810 0.40840 0.10120 0.00500
N 	N 	0.39810 0.36530 0.02662 -0.11200
C 	C 	0.40210 0.38280 0.99560 0.02400
H 	H 	0.42340 0.40000 0.99040 0.02800
C 	C 	0.36980 0.37100 0.97350 0.02000
N 	N 	0.34590 0.34610 0.99080 -0.07300
N 	N 	0.36330 0.34270 0.02360 -0.04400
C 	C 	0.35580 0.38230 0.93939 0.08900
C 	C 	0.37180 0.41360 0.92480 -0.14400
H 	H 	0.39140 0.42780 0.93770 0.09200
C 	C 	0.35860 0.42360 0.89080 0.08600
C 	C 	0.32940 0.40230 0.87149 -0.14200
H 	H 	0.32060 0.40900 0.84880 0.09300
C 	C 	0.31330 0.37110 0.88610 0.08800
C 	C 	0.32650 0.36110 0.92010 -0.14300
H 	H 	0.31580 0.34020 0.92990 0.09400
C 	C 	0.37400 0.45910 0.87600 0.02400
N 	N 	0.40280 0.47900 0.89530 -0.07600
N 	N 	0.41630 0.50640 0.87490 -0.04400
N 	N 	0.39580 0.50340 0.84290 -0.11600
C 	C 	0.36960 0.47420 0.84360 0.02200
H 	H 	0.35180 0.46600 0.82510 0.02900
C 	C 	0.40000 0.52880 0.81786 0.20600
C 	C 	0.43760 0.55070 0.81812 -0.22000
H 	H 	0.45940 0.54800 0.83560 0.12900
C 	C 	0.44250 0.57650 0.79220 0.14000
H 	H 	0.46770 0.59110 0.79240 -0.00100
C 	C 	0.41000 0.58050 0.76600 -0.20200
C 	C 	0.37240 0.55860 0.76580 0.13800
H 	H 	0.35060 0.56130 0.74820 0.00100
C 	C 	0.36740 0.53280 0.79170 -0.22000
H 	H 	0.34230 0.51820 0.79150 0.11500
C 	C 	0.41720 0.60570 0.73710 0.43800
C 	C 	0.28260 0.34900 0.86500 0.02100
C 	C 	0.26040 0.31780 0.87190 0.01700
H 	H 	0.26310 0.30430 0.89240 0.02800
N 	N 	0.23340 0.31030 0.84310 -0.11300
N 	N 	0.23890 0.33680 0.81860 -0.04500
N 	N 	0.26930 0.36070 0.83200 -0.07500
C 	C 	0.20540 0.28250 0.83850 0.19300
C 	C 	0.18080 0.28150 0.80710 -0.20200
H 	H 	0.18380 0.29950 0.79050 0.12100
C 	C 	0.15170 0.25350 0.80050 0.11700
H 	H 	0.13530 0.25280 0.77950 0.00800
C 	C 	0.14720 0.22660 0.82530 -0.17300
C 	C 	0.17170 0.22760 0.85670 0.11100
H 	H 	0.16870 0.20960 0.87330 0.01500
C 	C 	0.20080 0.25560 0.86330 -0.20000
H 	H 	0.21730 0.25630 0.88430 0.10800
C 	C 	0.11440 0.19710 0.82150 0.41200
C 	C 	0.62320 0.46470 0.15380 0.40700
C 	C 	0.61060 0.49010 0.18190 -0.17800
C 	C 	0.64150 0.51520 0.19320 0.11500
H 	H 	0.66930 0.51710 0.18200 0.00300
C 	C 	0.63090 0.53750 0.22140 -0.20300
H 	H 	0.65160 0.55430 0.22890 0.10600
C 	C 	0.58940 0.53470 0.23820 0.18200
C 	C 	0.55850 0.50950 0.22680 -0.19200
H 	H 	0.53080 0.50760 0.23810 0.11300
C 	C 	0.56910 0.48730 0.19870 0.11500
H 	H 	0.54840 0.47050 0.19110 0.00700
N 	N 	0.57930 0.55920 0.26490 -0.11100
C 	C 	0.59560 0.58940 0.27600 0.01800
H 	H 	0.61920 0.60180 0.26580 0.02900
C 	C 	0.57270 0.59900 0.30410 0.02400
N 	N 	0.54220 0.57480 0.31040 -0.07300
N 	N 	0.54620 0.55010 0.28610 -0.04300
C 	C 	0.57670 0.63070 0.32540 0.08400
C 	C 	0.60340 0.65870 0.31440 -0.13900
H 	H 	0.61810 0.65770 0.29260 0.09400
C 	C 	0.60830 0.68830 0.33580 0.08400
C 	C 	0.58630 0.68990 0.36840 -0.13900
H 	H 	0.58960 0.70970 0.38280 0.09100
C 	C 	0.55960 0.66190 0.37950 0.08100
C 	C 	0.55470 0.63230 0.35800 -0.13900
H 	H 	0.53680 0.61360 0.36540 0.09200
N 	N 	0.65810 0.71980 0.29350 -0.07200
N 	N 	0.68560 0.74860 0.29280 -0.04500
N 	N 	0.68450 0.76390 0.32550 -0.11000
C 	C 	0.65650 0.74460 0.34650 0.01200
H 	H 	0.64970 0.74920 0.37010 0.02900
C 	C 	0.64020 0.71730 0.32670 0.02600
C 	C 	0.70470 0.79650 0.33200 0.18400
C 	C 	0.70210 0.81440 0.36410 -0.20600
H 	H 	0.68040 0.80800 0.38080 0.10500
C 	C 	0.73170 0.84180 0.37140 0.11800
H 	H 	0.73000 0.85380 0.39290 0.00600
C 	C 	0.76410 0.85140 0.34650 -0.18700
C 	C 	0.76670 0.83340 0.31430 0.12500
H 	H 	0.78840 0.83980 0.29770 0.00400
C 	C 	0.73710 0.80600 0.30710 -0.20300
H 	H 	0.73880 0.79400 0.28560 0.12200
C 	C 	0.78850 0.88410 0.35470 0.44000
C 	C 	0.53710 0.66460 0.41580 0.03000
C 	C 	0.51260 0.64230 0.43250 0.01900
H 	H 	0.50470 0.61990 0.42460 0.02600
N 	N 	0.50080 0.65640 0.46200 -0.11200
N 	N 	0.51790 0.68740 0.46350 -0.04100
N 	N 	0.54050 0.69240 0.43490 -0.07700
C 	C 	0.47310 0.64520 0.49060 0.18400
C 	C 	0.46690 0.66630 0.52040 -0.20600
H 	H 	0.48120 0.68810 0.52190 0.12000
C 	C 	0.43950 0.65490 0.54800 0.12900
H 	H 	0.43530 0.66900 0.56790 0.00400
C 	C 	0.41820 0.62230 0.54580 -0.19900
C 	C 	0.42440 0.60110 0.51600 0.12700
H 	H 	0.41020 0.57930 0.51450 -0.00400
C 	C 	0.45190 0.61260 0.48840 -0.21300
H 	H 	0.45600 0.59850 0.46850 0.10700
C 	C 	0.39170 0.60880 0.57510 0.43000
Zn	Zn	0.03681 0.83089 0.21367 1.23000
Zn	Zn	0.10698 0.88355 0.15762 1.25000
Zn	Zn	0.17757 0.93596 0.10180 1.19500
O 	O 	0.89180 0.10640 0.71140 -0.46300
O 	O 	0.03590 0.88290 0.15490 -0.44800
O 	O 	0.61590 0.67020 0.84220 -0.43900
O 	O 	0.88710 0.12580 0.60260 -0.45000
O 	O 	0.32470 0.38760 0.33860 -0.47200
O 	O 	0.00120 0.83430 0.17119 -0.48000
O 	O 	0.86720 0.08180 0.56740 -0.49200
O 	O 	0.10020 0.93750 0.14830 -0.46000
O 	O 	0.16000 0.97120 0.13790 -0.49500
O 	O 	0.94960 0.12800 0.74232 -0.49700
O 	O 	0.58870 0.69890 0.79540 -0.48300
O 	O 	0.28270 0.39630 0.38500 -0.50500
C 	C 	0.00740 0.85880 0.14880 0.40800
C 	C 	0.97780 0.86000 0.11744 -0.18700
C 	C 	0.94960 0.83200 0.10908 0.12400
H 	H 	0.94870 0.81220 0.12370 0.00400
C 	C 	0.92280 0.83340 0.07890 -0.20700
H 	H 	0.90400 0.81460 0.07330 0.12000
C 	C 	0.92420 0.86300 0.05699 0.19100
C 	C 	0.95240 0.89100 0.06540 -0.20300
H 	H 	0.95340 0.91080 0.05070 0.11100
C 	C 	0.97920 0.88960 0.09560 0.12000
H 	H 	0.99810 0.90840 0.10120 0.00300
N 	N 	0.89810 0.86530 0.02662 -0.11300
C 	C 	0.90210 0.88280 0.99560 0.02400
H 	H 	0.92340 0.90000 0.99040 0.02700
C 	C 	0.86980 0.87100 0.97350 0.02000
N 	N 	0.84590 0.84610 0.99080 -0.07300
N 	N 	0.86330 0.84270 0.02360 -0.04400
C 	C 	0.85580 0.88230 0.93939 0.08900
C 	C 	0.87180 0.91360 0.92480 -0.14400
H 	H 	0.89140 0.92780 0.93770 0.09200
C 	C 	0.85860 0.92360 0.89080 0.08600
C 	C 	0.82940 0.90230 0.87149 -0.14200
H 	H 	0.82060 0.90900 0.84880 0.09300
C 	C 	0.81330 0.87110 0.88610 0.08700
C 	C 	0.82650 0.86110 0.92010 -0.14300
H 	H 	0.81580 0.84020 0.92990 0.09400
C 	C 	0.87400 0.95910 0.87600 0.02400
N 	N 	0.90280 0.97900 0.89530 -0.07600
N 	N 	0.91630 0.00640 0.87490 -0.04500
N 	N 	0.89580 0.00340 0.84290 -0.11600
C 	C 	0.86960 0.97420 0.84360 0.02200
H 	H 	0.85180 0.96600 0.82510 0.02900
C 	C 	0.90000 0.02880 0.81786 0.20600
C 	C 	0.93760 0.05070 0.81812 -0.22100
H 	H 	0.95940 0.04800 0.83560 0.12900
C 	C 	0.94250 0.07650 0.79220 0.14100
H 	H 	0.96770 0.09110 0.79240 -0.00200
C 	C 	0.91000 0.08050 0.76600 -0.20300
C 	C 	0.87240 0.05860 0.76580 0.13800
H 	H 	0.85060 0.06130 0.74820 0.00100
C 	C 	0.86740 0.03280 0.79170 -0.22000
H 	H 	0.84230 0.01820 0.79150 0.11500
C 	C 	0.91720 0.10570 0.73710 0.43900
C 	C 	0.78260 0.84900 0.86500 0.02100
C 	C 	0.76040 0.81780 0.87190 0.01700
H 	H 	0.76310 0.80430 0.89240 0.02800
N 	N 	0.73340 0.81030 0.84310 -0.11300
N 	N 	0.73890 0.83680 0.81860 -0.04500
N 	N 	0.76930 0.86070 0.83200 -0.07500
C 	C 	0.70540 0.78250 0.83850 0.19300
C 	C 	0.68080 0.78150 0.80710 -0.20200
H 	H 	0.68380 0.79950 0.79050 0.12100
C 	C 	0.65170 0.75350 0.80050 0.11700
H 	H 	0.63530 0.75280 0.77950 0.00800
C 	C 	0.64720 0.72660 0.82530 -0.17300
C 	C 	0.67170 0.72760 0.85670 0.11100
H 	H 	0.66870 0.70960 0.87330 0.01500
C 	C 	0.70080 0.75560 0.86330 -0.20000
H 	H 	0.71730 0.75630 0.88430 0.10800
C 	C 	0.61440 0.69710 0.82150 0.41200
C 	C 	0.12320 0.96470 0.15380 0.40700
C 	C 	0.11060 0.99010 0.18190 -0.17800
C 	C 	0.14150 0.01520 0.19320 0.11500
H 	H 	0.16930 0.01710 0.18200 0.00300
C 	C 	0.13090 0.03750 0.22140 -0.20300
H 	H 	0.15160 0.05430 0.22890 0.10700
C 	C 	0.08940 0.03470 0.23820 0.18200
C 	C 	0.05850 0.00950 0.22680 -0.19200
H 	H 	0.03080 0.00760 0.23810 0.11400
C 	C 	0.06910 0.98730 0.19870 0.11500
H 	H 	0.04840 0.97050 0.19110 0.00800
N 	N 	0.07930 0.05920 0.26490 -0.11100
C 	C 	0.09560 0.08940 0.27600 0.01800
H 	H 	0.11920 0.10180 0.26580 0.02900
C 	C 	0.07270 0.09900 0.30410 0.02400
N 	N 	0.04220 0.07480 0.31040 -0.07200
N 	N 	0.04620 0.05010 0.28610 -0.04200
C 	C 	0.07670 0.13070 0.32540 0.08400
C 	C 	0.10340 0.15870 0.31440 -0.13900
H 	H 	0.11810 0.15770 0.29260 0.09400
C 	C 	0.10830 0.18830 0.33580 0.08400
C 	C 	0.08630 0.18990 0.36840 -0.13900
H 	H 	0.08960 0.20970 0.38280 0.09100
C 	C 	0.05960 0.16190 0.37950 0.08200
C 	C 	0.05470 0.13230 0.35800 -0.13900
H 	H 	0.03680 0.11360 0.36540 0.09300
N 	N 	0.15810 0.21980 0.29350 -0.07100
N 	N 	0.18560 0.24860 0.29280 -0.04500
N 	N 	0.18450 0.26390 0.32550 -0.11000
C 	C 	0.15650 0.24460 0.34650 0.01200
H 	H 	0.14970 0.24920 0.37010 0.02900
C 	C 	0.14020 0.21730 0.32670 0.02700
C 	C 	0.20470 0.29650 0.33200 0.18400
C 	C 	0.20210 0.31440 0.36410 -0.20600
H 	H 	0.18040 0.30800 0.38080 0.10600
C 	C 	0.23170 0.34180 0.37140 0.11800
H 	H 	0.23000 0.35380 0.39290 0.00600
C 	C 	0.26410 0.35140 0.34650 -0.18700
C 	C 	0.26670 0.33340 0.31430 0.12500
H 	H 	0.28840 0.33980 0.29770 0.00400
C 	C 	0.23710 0.30600 0.30710 -0.20300
H 	H 	0.23880 0.29400 0.28560 0.12200
C 	C 	0.28850 0.38410 0.35470 0.44100
C 	C 	0.03710 0.16460 0.41580 0.03000
C 	C 	0.01260 0.14230 0.43250 0.01800
H 	H 	0.00470 0.11990 0.42460 0.02700
N 	N 	0.00080 0.15640 0.46200 -0.11000
N 	N 	0.01790 0.18740 0.46350 -0.04100
N 	N 	0.04050 0.19240 0.43490 -0.07700
C 	C 	0.97310 0.14520 0.49060 0.18000
C 	C 	0.96690 0.16630 0.52040 -0.20400
H 	H 	0.98120 0.18810 0.52190 0.11800
C 	C 	0.93950 0.15490 0.54800 0.12600
H 	H 	0.93530 0.16900 0.56790 0.00400
C 	C 	0.91820 0.12230 0.54580 -0.19800
C 	C 	0.92440 0.10110 0.51600 0.12500
H 	H 	0.91020 0.07930 0.51450 -0.00400
C 	C 	0.95190 0.11260 0.48840 -0.21100
H 	H 	0.95600 0.09850 0.46850 0.10600
C 	C 	0.89170 0.10880 0.57510 0.42900
O 	O 	0.50000 0.69760 0.75000 -0.46900
O 	O 	0.00000 0.19760 0.75000 -0.46700
O 	O 	0.50000 0.30240 0.25000 -0.46900
O 	O 	-0.00000 0.80240 0.25000 -0.46700
