data_crystal

_cell_length_a 7.76300
_cell_length_b 19.38920
_cell_length_c 17.86340
_cell_angle_alpha 90.00000
_cell_angle_beta  100.46600
_cell_angle_gamma 90.00000

_symmetry_space_group_name_	'P 1'
_symmetry_space_group_name_H-M	'P 1'

loop_
_symmetry_equiv_pos_as_xyz
  x,y,z

loop_
_atom_site_label
_atom_site_type_symbol
_atom_site_fract_x
_atom_site_fract_y
_atom_site_fract_z
_atom_site_charge
Tb	Tb	0.25452 0.46926 0.01471 1.57300
Ag	Ag	0.30211 0.00592 0.02492 0.47200
O 	O 	0.48960 0.56910 0.01801 -0.61200
O 	O 	0.23530 0.59100 0.04646 -0.47800
O 	O 	0.23520 0.51879 0.88724 -0.47400
O 	O 	0.99040 0.52840 0.92909 -0.61100
N 	N 	0.39380 0.91897 0.09352 -0.20600
N 	N 	0.82740 0.58281 0.55002 -0.20700
C 	C 	0.49550 0.92566 0.16224 0.04400
H 	H 	0.53580 0.96930 0.17860 -0.02900
C 	C 	0.54190 0.87050 0.20903 -0.09700
H 	H 	0.61250 0.87660 0.25650 0.02600
C 	C 	0.48320 0.80559 0.18532 -0.01100
H 	H 	0.51460 0.76760 0.21660 0.01200
C 	C 	0.37760 0.79727 0.11480 -0.05500
C 	C 	0.33670 0.85509 0.07091 0.02400
H 	H 	0.26630 0.85010 0.02320 -0.01200
C 	C 	0.30660 0.72795 0.08690 0.06600
H 	H 	0.21530 0.73410 0.04250 -0.00300
H 	H 	0.25460 0.70590 0.12620 0.00100
C 	C 	0.44890 0.68145 0.06628 -0.43900
H 	H 	0.49680 0.70290 0.02550 0.12900
H 	H 	0.54280 0.67760 0.11000 0.13300
C 	C 	0.38660 0.61092 0.04186 0.48800
C 	C 	0.79940 0.65064 0.53861 0.04400
H 	H 	0.72970 0.66520 0.49350 -0.02700
C 	C 	0.86970 0.69904 0.59093 -0.10100
H 	H 	0.84950 0.74570 0.58100 0.03200
C 	C 	0.97080 0.67799 0.65867 -0.00800
H 	H 	0.01720 0.71030 0.69530 0.01700
C 	C 	0.00280 0.60825 0.67182 -0.05600
C 	C 	0.92750 0.56320 0.61554 0.01800
H 	H 	0.94760 0.51630 0.62370 -0.02400
C 	C 	0.10750 0.58085 0.74517 0.06300
H 	H 	0.20070 0.61300 0.76460 0.00300
H 	H 	0.16070 0.53720 0.73560 -0.00300
C 	C 	0.99150 0.57069 0.80395 -0.42800
H 	H 	0.94610 0.61530 0.81560 0.12600
H 	H 	0.89240 0.54230 0.78170 0.12800
C 	C 	0.07910 0.53805 0.87671 0.47900
Tb	Tb	0.74548 0.96926 0.48529 1.57400
Ag	Ag	0.69789 0.50592 0.47508 0.47400
O 	O 	0.51040 0.06910 0.48199 -0.61200
O 	O 	0.76470 0.09100 0.45354 -0.47900
O 	O 	0.76480 0.01879 0.61276 -0.47300
O 	O 	0.00960 0.02840 0.57091 -0.61000
N 	N 	0.60620 0.41897 0.40648 -0.20700
N 	N 	0.17260 0.08281 0.94998 -0.20800
C 	C 	0.50450 0.42566 0.33776 0.04400
H 	H 	0.46420 0.46930 0.32140 -0.02900
C 	C 	0.45810 0.37050 0.29097 -0.09700
H 	H 	0.38750 0.37660 0.24350 0.02600
C 	C 	0.51680 0.30559 0.31468 -0.01100
H 	H 	0.48540 0.26760 0.28340 0.01200
C 	C 	0.62240 0.29727 0.38520 -0.05500
C 	C 	0.66330 0.35509 0.42909 0.02400
H 	H 	0.73370 0.35010 0.47680 -0.01300
C 	C 	0.69340 0.22795 0.41310 0.06600
H 	H 	0.78470 0.23410 0.45750 -0.00300
H 	H 	0.74540 0.20590 0.37380 0.00100
C 	C 	0.55110 0.18145 0.43372 -0.43900
H 	H 	0.50320 0.20290 0.47450 0.12800
H 	H 	0.45720 0.17760 0.39000 0.13300
C 	C 	0.61340 0.11092 0.45814 0.48700
C 	C 	0.20060 0.15064 0.96139 0.05400
H 	H 	0.27030 0.16520 0.00650 -0.03200
C 	C 	0.13030 0.19904 0.90907 -0.11000
H 	H 	0.15050 0.24570 0.91900 0.03600
C 	C 	0.02920 0.17799 0.84133 0.00100
H 	H 	0.98280 0.21030 0.80470 0.01300
C 	C 	0.99720 0.10825 0.82818 -0.06100
C 	C 	0.07250 0.06320 0.88446 0.02200
H 	H 	0.05240 0.01630 0.87630 -0.02300
C 	C 	0.89250 0.08085 0.75483 0.06400
H 	H 	0.79930 0.11300 0.73540 0.00300
H 	H 	0.83930 0.03720 0.76440 -0.00200
C 	C 	0.00850 0.07069 0.69605 -0.42600
H 	H 	0.05390 0.11530 0.68440 0.12600
H 	H 	0.10760 0.04230 0.71830 0.12800
C 	C 	0.92090 0.03805 0.62329 0.47700
Tb	Tb	0.74548 0.53074 0.98529 1.57300
Ag	Ag	0.69789 0.99408 0.97508 0.47200
O 	O 	0.51040 0.43090 0.98199 -0.61200
O 	O 	0.76470 0.40900 0.95354 -0.47800
O 	O 	0.76480 0.48121 0.11276 -0.47400
O 	O 	0.00960 0.47160 0.07091 -0.61100
N 	N 	0.60620 0.08103 0.90648 -0.20600
N 	N 	0.17260 0.41719 0.44998 -0.20700
C 	C 	0.50450 0.07434 0.83776 0.04400
H 	H 	0.46420 0.03070 0.82140 -0.02900
C 	C 	0.45810 0.12950 0.79097 -0.09700
H 	H 	0.38750 0.12340 0.74350 0.02600
C 	C 	0.51680 0.19441 0.81468 -0.01100
H 	H 	0.48540 0.23240 0.78340 0.01200
C 	C 	0.62240 0.20273 0.88520 -0.05500
C 	C 	0.66330 0.14491 0.92909 0.02400
H 	H 	0.73370 0.14990 0.97680 -0.01200
C 	C 	0.69340 0.27205 0.91310 0.06600
H 	H 	0.78470 0.26590 0.95750 -0.00300
H 	H 	0.74540 0.29410 0.87380 0.00100
C 	C 	0.55110 0.31855 0.93372 -0.43900
H 	H 	0.50320 0.29710 0.97450 0.12900
H 	H 	0.45720 0.32240 0.89000 0.13300
C 	C 	0.61340 0.38908 0.95814 0.48800
C 	C 	0.20060 0.34936 0.46139 0.04400
H 	H 	0.27030 0.33480 0.50650 -0.02700
C 	C 	0.13030 0.30096 0.40907 -0.10100
H 	H 	0.15050 0.25430 0.41900 0.03200
C 	C 	0.02920 0.32201 0.34133 -0.00800
H 	H 	0.98280 0.28970 0.30470 0.01700
C 	C 	0.99720 0.39175 0.32818 -0.05600
C 	C 	0.07250 0.43680 0.38446 0.01800
H 	H 	0.05240 0.48370 0.37630 -0.02400
C 	C 	0.89250 0.41915 0.25483 0.06300
H 	H 	0.79930 0.38700 0.23540 0.00300
H 	H 	0.83930 0.46280 0.26440 -0.00300
C 	C 	0.00850 0.42931 0.19605 -0.42800
H 	H 	0.05390 0.38470 0.18440 0.12600
H 	H 	0.10760 0.45770 0.21830 0.12800
C 	C 	0.92090 0.46195 0.12329 0.47900
Tb	Tb	0.25452 0.03074 0.51471 1.57400
Ag	Ag	0.30211 0.49408 0.52492 0.47400
O 	O 	0.48960 0.93090 0.51801 -0.61200
O 	O 	0.23530 0.90900 0.54646 -0.47900
O 	O 	0.23520 0.98121 0.38724 -0.47300
O 	O 	0.99040 0.97160 0.42909 -0.61000
N 	N 	0.39380 0.58103 0.59352 -0.20700
N 	N 	0.82740 0.91719 0.05002 -0.20800
C 	C 	0.49550 0.57434 0.66224 0.04400
H 	H 	0.53580 0.53070 0.67860 -0.02900
C 	C 	0.54190 0.62950 0.70903 -0.09700
H 	H 	0.61250 0.62340 0.75650 0.02600
C 	C 	0.48320 0.69441 0.68532 -0.01100
H 	H 	0.51460 0.73240 0.71660 0.01200
C 	C 	0.37760 0.70273 0.61480 -0.05500
C 	C 	0.33670 0.64491 0.57091 0.02400
H 	H 	0.26630 0.64990 0.52320 -0.01300
C 	C 	0.30660 0.77205 0.58690 0.06600
H 	H 	0.21530 0.76590 0.54250 -0.00300
H 	H 	0.25460 0.79410 0.62620 0.00100
C 	C 	0.44890 0.81855 0.56628 -0.43900
H 	H 	0.49680 0.79710 0.52550 0.12800
H 	H 	0.54280 0.82240 0.61000 0.13300
C 	C 	0.38660 0.88908 0.54186 0.48700
C 	C 	0.79940 0.84936 0.03861 0.05400
H 	H 	0.72970 0.83480 0.99350 -0.03200
C 	C 	0.86970 0.80096 0.09093 -0.11000
H 	H 	0.84950 0.75430 0.08100 0.03600
C 	C 	0.97080 0.82201 0.15867 0.00100
H 	H 	0.01720 0.78970 0.19530 0.01300
C 	C 	0.00280 0.89175 0.17182 -0.06100
C 	C 	0.92750 0.93680 0.11554 0.02200
H 	H 	0.94760 0.98370 0.12370 -0.02300
C 	C 	0.10750 0.91915 0.24517 0.06400
H 	H 	0.20070 0.88700 0.26460 0.00300
H 	H 	0.16070 0.96280 0.23560 -0.00200
C 	C 	0.99150 0.92931 0.30395 -0.42600
H 	H 	0.94610 0.88470 0.31560 0.12600
H 	H 	0.89240 0.95770 0.28170 0.12800
C 	C 	0.07910 0.96195 0.37671 0.47700
