data_crystal

_cell_length_a 8.82940
_cell_length_b 33.77190
_cell_length_c 8.80520
_cell_angle_alpha 90.00000
_cell_angle_beta  107.90100
_cell_angle_gamma 90.00000

_symmetry_space_group_name_	'P 1'
_symmetry_space_group_name_H-M	'P 1'

loop_
_symmetry_equiv_pos_as_xyz
  x,y,z

loop_
_atom_site_label
_atom_site_type_symbol
_atom_site_fract_x
_atom_site_fract_y
_atom_site_fract_z
_atom_site_charge
Cu	Cu	0.74696 0.20406 0.49762 0.94700
Cu	Cu	0.74245 0.04569 0.50213 0.94700
O 	O 	0.88655 0.15532 0.62326 -0.26600
O 	O 	0.85720 0.09044 0.63137 -0.29100
O 	O 	0.61820 0.15975 0.37507 -0.28900
O 	O 	0.61566 0.09430 0.35658 -0.26200
O 	O 	0.61971 0.20803 0.66086 -0.26800
O 	O 	0.59860 0.24970 0.84710 -0.25500
O 	O 	0.87458 0.24621 0.63821 -0.29400
O 	O 	0.86357 0.28758 0.82979 -0.28200
O 	O 	0.91069 0.04012 0.38113 -0.27000
O 	O 	0.09200 0.99824 0.35085 -0.25700
O 	O 	0.57550 0.04031 0.62238 -0.27700
O 	O 	0.38242 0.99851 0.62604 -0.29100
C 	C 	0.81870 0.12392 0.57230 0.23500
C 	C 	0.66990 0.12601 0.42030 0.23400
C 	C 	0.81450 0.25919 0.73890 0.24600
C 	C 	0.66470 0.23731 0.75200 0.21900
C 	C 	0.00230 0.01086 0.42240 0.23300
C 	C 	0.48800 0.01140 0.57190 0.23000
Cu	Cu	0.25304 0.70406 0.00238 0.94600
Cu	Cu	0.25755 0.54569 0.99787 0.94900
O 	O 	0.11345 0.65532 0.87674 -0.26400
O 	O 	0.14280 0.59044 0.86863 -0.29100
O 	O 	0.38180 0.65975 0.12493 -0.29000
O 	O 	0.38434 0.59430 0.14342 -0.26200
O 	O 	0.38029 0.70803 0.83914 -0.26400
O 	O 	0.40140 0.74970 0.65290 -0.25200
O 	O 	0.12542 0.74621 0.86179 -0.29000
O 	O 	0.13643 0.78758 0.67021 -0.28000
O 	O 	0.08931 0.54012 0.11887 -0.27000
O 	O 	0.90800 0.49824 0.14915 -0.25700
O 	O 	0.42450 0.54031 0.87762 -0.27500
O 	O 	0.61758 0.49851 0.87396 -0.29100
C 	C 	0.18130 0.62392 0.92770 0.24000
C 	C 	0.33010 0.62601 0.07970 0.23000
C 	C 	0.18550 0.75919 0.76110 0.24700
C 	C 	0.33530 0.73731 0.74800 0.21900
C 	C 	0.99770 0.51086 0.07760 0.23400
C 	C 	0.51200 0.51140 0.92810 0.23100
Cu	Cu	0.25304 0.79594 0.50238 0.94800
Cu	Cu	0.25755 0.95431 0.49787 0.94800
O 	O 	0.11345 0.84468 0.37674 -0.26600
O 	O 	0.14280 0.90956 0.36863 -0.29100
O 	O 	0.38180 0.84025 0.62493 -0.28900
O 	O 	0.38434 0.90570 0.64342 -0.26200
O 	O 	0.38029 0.79197 0.33914 -0.26800
O 	O 	0.40140 0.75030 0.15290 -0.25500
O 	O 	0.12542 0.75379 0.36179 -0.29400
O 	O 	0.13643 0.71242 0.17021 -0.28200
O 	O 	0.08931 0.95988 0.61887 -0.27000
O 	O 	0.90800 0.00176 0.64915 -0.25700
O 	O 	0.42450 0.95969 0.37762 -0.27700
O 	O 	0.61758 0.00149 0.37396 -0.29100
C 	C 	0.18130 0.87608 0.42770 0.23500
C 	C 	0.33010 0.87399 0.57970 0.23400
C 	C 	0.18550 0.74081 0.26110 0.24600
C 	C 	0.33530 0.76269 0.24800 0.21900
C 	C 	0.99770 0.98914 0.57760 0.23300
C 	C 	0.51200 0.98860 0.42810 0.23000
Cu	Cu	0.74696 0.29594 0.99762 0.94600
Cu	Cu	0.74245 0.45431 0.00213 0.94900
O 	O 	0.88655 0.34468 0.12326 -0.26400
O 	O 	0.85720 0.40956 0.13137 -0.29100
O 	O 	0.61820 0.34025 0.87507 -0.29000
O 	O 	0.61566 0.40570 0.85658 -0.26200
O 	O 	0.61971 0.29197 0.16086 -0.26400
O 	O 	0.59860 0.25030 0.34710 -0.25200
O 	O 	0.87458 0.25379 0.13821 -0.29000
O 	O 	0.86357 0.21242 0.32979 -0.28000
O 	O 	0.91069 0.45988 0.88113 -0.27000
O 	O 	0.09200 0.50176 0.85085 -0.25700
O 	O 	0.57550 0.45969 0.12238 -0.27500
O 	O 	0.38242 0.50149 0.12604 -0.29100
C 	C 	0.81870 0.37608 0.07230 0.24000
C 	C 	0.66990 0.37399 0.92030 0.23000
C 	C 	0.81450 0.24081 0.23890 0.24700
C 	C 	0.66470 0.26269 0.25200 0.21900
C 	C 	0.00230 0.48914 0.92240 0.23400
C 	C 	0.48800 0.48860 0.07190 0.23100
