data_crystal

_cell_length_a 8.71560
_cell_length_b 34.08130
_cell_length_c 8.63600
_cell_angle_alpha 90.00000
_cell_angle_beta  107.63200
_cell_angle_gamma 90.00000

_symmetry_space_group_name_	'P 1'
_symmetry_space_group_name_H-M	'P 1'

loop_
_symmetry_equiv_pos_as_xyz
  x,y,z

loop_
_atom_site_label
_atom_site_type_symbol
_atom_site_fract_x
_atom_site_fract_y
_atom_site_fract_z
_atom_site_charge
Cu	Cu	0.74952 0.20351 0.48285 0.95100
Cu	Cu	0.73860 0.04560 0.49861 0.95000
O 	O 	0.89530 0.15372 0.61227 -0.25500
O 	O 	0.85006 0.09001 0.62846 -0.29100
O 	O 	0.62165 0.16010 0.36067 -0.28900
O 	O 	0.61226 0.09510 0.34028 -0.25000
O 	O 	0.62391 0.20611 0.64438 -0.27500
O 	O 	0.58961 0.24830 0.82738 -0.24300
O 	O 	0.87528 0.24614 0.61822 -0.29400
O 	O 	0.86017 0.28751 0.81236 -0.28900
O 	O 	0.90657 0.04066 0.38405 -0.27900
O 	O 	0.08905 0.99978 0.34410 -0.24600
O 	O 	0.57042 0.04195 0.61404 -0.28400
O 	O 	0.37925 0.99977 0.62772 -0.29000
C 	C 	0.81870 0.12330 0.56340 0.22900
C 	C 	0.66990 0.12598 0.40740 0.23200
C 	C 	0.81230 0.25867 0.72170 0.24000
C 	C 	0.66200 0.23633 0.73470 0.21200
C 	C 	0.00050 0.01128 0.42130 0.23100
C 	C 	0.48510 0.01208 0.56990 0.22500
Cu	Cu	0.25048 0.70351 0.01715 0.94300
Cu	Cu	0.26140 0.54560 0.00139 0.94700
O 	O 	0.10470 0.65372 0.88773 -0.25000
O 	O 	0.14994 0.59001 0.87154 -0.28900
O 	O 	0.37835 0.66010 0.13933 -0.29100
O 	O 	0.38774 0.59510 0.15972 -0.25000
O 	O 	0.37609 0.70611 0.85562 -0.26700
O 	O 	0.41039 0.74830 0.67262 -0.23700
O 	O 	0.12472 0.74614 0.88178 -0.28400
O 	O 	0.13983 0.78751 0.68764 -0.28300
O 	O 	0.09343 0.54066 0.11595 -0.28400
O 	O 	0.91095 0.49978 0.15590 -0.24500
O 	O 	0.42958 0.54195 0.88596 -0.28100
O 	O 	0.62075 0.49977 0.87228 -0.29000
C 	C 	0.18130 0.62330 0.93660 0.24100
C 	C 	0.33010 0.62598 0.09260 0.22100
C 	C 	0.18770 0.75867 0.77830 0.24100
C 	C 	0.33800 0.73633 0.76530 0.21300
C 	C 	0.99950 0.51128 0.07870 0.23500
C 	C 	0.51490 0.51208 0.93010 0.22600
Cu	Cu	0.25048 0.79649 0.51715 0.95000
Cu	Cu	0.26140 0.95440 0.50139 0.94900
O 	O 	0.10470 0.84628 0.38773 -0.25500
O 	O 	0.14994 0.90999 0.37154 -0.29100
O 	O 	0.37835 0.83990 0.63933 -0.28900
O 	O 	0.38774 0.90490 0.65972 -0.25000
O 	O 	0.37609 0.79389 0.35562 -0.27500
O 	O 	0.41039 0.75170 0.17262 -0.24300
O 	O 	0.12472 0.75386 0.38178 -0.29400
O 	O 	0.13983 0.71249 0.18764 -0.28900
O 	O 	0.09343 0.95934 0.61595 -0.27900
O 	O 	0.91095 0.00022 0.65590 -0.24600
O 	O 	0.42958 0.95805 0.38596 -0.28400
O 	O 	0.62075 0.00023 0.37228 -0.29000
C 	C 	0.18130 0.87670 0.43660 0.22900
C 	C 	0.33010 0.87402 0.59260 0.23200
C 	C 	0.18770 0.74133 0.27830 0.24000
C 	C 	0.33800 0.76367 0.26530 0.21200
C 	C 	0.99950 0.98872 0.57870 0.23100
C 	C 	0.51490 0.98792 0.43010 0.22500
Cu	Cu	0.74952 0.29649 0.98285 0.94300
Cu	Cu	0.73860 0.45440 0.99861 0.94700
O 	O 	0.89530 0.34628 0.11227 -0.25000
O 	O 	0.85006 0.40999 0.12846 -0.28900
O 	O 	0.62165 0.33990 0.86067 -0.29100
O 	O 	0.61226 0.40490 0.84028 -0.25000
O 	O 	0.62391 0.29389 0.14438 -0.26700
O 	O 	0.58961 0.25170 0.32738 -0.23700
O 	O 	0.87528 0.25386 0.11822 -0.28400
O 	O 	0.86017 0.21249 0.31236 -0.28300
O 	O 	0.90657 0.45934 0.88405 -0.28400
O 	O 	0.08905 0.50022 0.84410 -0.24500
O 	O 	0.57042 0.45805 0.11404 -0.28100
O 	O 	0.37925 0.50023 0.12772 -0.29000
C 	C 	0.81870 0.37670 0.06340 0.24100
C 	C 	0.66990 0.37402 0.90740 0.22100
C 	C 	0.81230 0.24133 0.22170 0.24100
C 	C 	0.66200 0.26367 0.23470 0.21300
C 	C 	0.00050 0.48872 0.92130 0.23500
C 	C 	0.48510 0.48792 0.06990 0.22600
