data_crystal

_cell_length_a 8.69870
_cell_length_b 34.14080
_cell_length_c 8.60810
_cell_angle_alpha 90.00000
_cell_angle_beta  107.57800
_cell_angle_gamma 90.00000

_symmetry_space_group_name_	'P 1'
_symmetry_space_group_name_H-M	'P 1'

loop_
_symmetry_equiv_pos_as_xyz
  x,y,z

loop_
_atom_site_label
_atom_site_type_symbol
_atom_site_fract_x
_atom_site_fract_y
_atom_site_fract_z
_atom_site_charge
Cu	Cu	0.74864 0.20347 0.48079 0.95000
Cu	Cu	0.73785 0.04553 0.49830 0.94900
O 	O 	0.89567 0.15350 0.61059 -0.25300
O 	O 	0.84818 0.08995 0.62829 -0.29000
O 	O 	0.62075 0.16010 0.35884 -0.28800
O 	O 	0.61147 0.09516 0.33753 -0.24700
O 	O 	0.62359 0.20581 0.64185 -0.27700
O 	O 	0.58664 0.24810 0.82434 -0.24100
O 	O 	0.87410 0.24625 0.61530 -0.29300
O 	O 	0.85791 0.28752 0.80976 -0.29000
O 	O 	0.90589 0.04080 0.38507 -0.28100
O 	O 	0.08851 0.00016 0.34265 -0.24300
O 	O 	0.56971 0.04222 0.61269 -0.28600
O 	O 	0.37848 0.00003 0.62778 -0.28900
C 	C 	0.81780 0.12323 0.56220 0.22800
C 	C 	0.66950 0.12595 0.40530 0.23100
C 	C 	0.81040 0.25863 0.71930 0.23900
C 	C 	0.66000 0.23616 0.73230 0.21200
C 	C 	0.99990 0.01136 0.42110 0.23100
C 	C 	0.48490 0.01226 0.56950 0.22400
Cu	Cu	0.25136 0.70347 0.01921 0.94300
Cu	Cu	0.26215 0.54553 0.00170 0.94700
O 	O 	0.10433 0.65350 0.88941 -0.24800
O 	O 	0.15182 0.58995 0.87171 -0.28800
O 	O 	0.37925 0.66010 0.14116 -0.29000
O 	O 	0.38853 0.59516 0.16247 -0.24800
O 	O 	0.37641 0.70581 0.85815 -0.26900
O 	O 	0.41336 0.74810 0.67566 -0.23500
O 	O 	0.12590 0.74625 0.88470 -0.28300
O 	O 	0.14209 0.78752 0.69024 -0.28500
O 	O 	0.09411 0.54080 0.11493 -0.28400
O 	O 	0.91149 0.50016 0.15735 -0.23900
O 	O 	0.43029 0.54222 0.88731 -0.28300
O 	O 	0.62152 0.50003 0.87222 -0.28900
C 	C 	0.18220 0.62323 0.93780 0.24100
C 	C 	0.33050 0.62595 0.09470 0.21900
C 	C 	0.18960 0.75863 0.78070 0.24000
C 	C 	0.34000 0.73616 0.76770 0.21300
C 	C 	0.00010 0.51136 0.07890 0.22800
C 	C 	0.51510 0.51226 0.93050 0.22400
Cu	Cu	0.25136 0.79653 0.51921 0.95000
Cu	Cu	0.26215 0.95447 0.50170 0.94900
O 	O 	0.10433 0.84650 0.38941 -0.25300
O 	O 	0.15182 0.91005 0.37171 -0.29000
O 	O 	0.37925 0.83990 0.64116 -0.28800
O 	O 	0.38853 0.90484 0.66247 -0.24700
O 	O 	0.37641 0.79419 0.35815 -0.27700
O 	O 	0.41336 0.75190 0.17566 -0.24100
O 	O 	0.12590 0.75375 0.38470 -0.29300
O 	O 	0.14209 0.71248 0.19024 -0.29000
O 	O 	0.09411 0.95920 0.61493 -0.28100
O 	O 	0.91149 0.99984 0.65735 -0.24300
O 	O 	0.43029 0.95778 0.38731 -0.28600
O 	O 	0.62152 0.99997 0.37222 -0.28900
C 	C 	0.18220 0.87677 0.43780 0.22800
C 	C 	0.33050 0.87405 0.59470 0.23100
C 	C 	0.18960 0.74137 0.28070 0.23900
C 	C 	0.34000 0.76384 0.26770 0.21200
C 	C 	0.00010 0.98864 0.57890 0.23100
C 	C 	0.51510 0.98774 0.43050 0.22400
Cu	Cu	0.74864 0.29653 0.98079 0.94300
Cu	Cu	0.73785 0.45447 0.99830 0.94700
O 	O 	0.89567 0.34650 0.11059 -0.24800
O 	O 	0.84818 0.41005 0.12829 -0.28800
O 	O 	0.62075 0.33990 0.85884 -0.29000
O 	O 	0.61147 0.40484 0.83753 -0.24800
O 	O 	0.62359 0.29419 0.14185 -0.26900
O 	O 	0.58664 0.25190 0.32434 -0.23500
O 	O 	0.87410 0.25375 0.11530 -0.28300
O 	O 	0.85791 0.21248 0.30976 -0.28500
O 	O 	0.90589 0.45920 0.88507 -0.28400
O 	O 	0.08851 0.49984 0.84265 -0.23900
O 	O 	0.56971 0.45778 0.11269 -0.28300
O 	O 	0.37848 0.49997 0.12778 -0.28900
C 	C 	0.81780 0.37677 0.06220 0.24100
C 	C 	0.66950 0.37405 0.90530 0.21900
C 	C 	0.81040 0.24137 0.21930 0.24000
C 	C 	0.66000 0.26384 0.23230 0.21300
C 	C 	0.99990 0.48864 0.92110 0.22800
C 	C 	0.48490 0.48774 0.06950 0.22400
