data_crystal

_cell_length_a 8.74070
_cell_length_b 33.98860
_cell_length_c 8.67710
_cell_angle_alpha 90.00000
_cell_angle_beta  107.72500
_cell_angle_gamma 90.00000

_symmetry_space_group_name_	'P 1'
_symmetry_space_group_name_H-M	'P 1'

loop_
_symmetry_equiv_pos_as_xyz
  x,y,z

loop_
_atom_site_label
_atom_site_type_symbol
_atom_site_fract_x
_atom_site_fract_y
_atom_site_fract_z
_atom_site_charge
Cu	Cu	0.75056 0.20358 0.48505 0.94900
Cu	Cu	0.73980 0.04573 0.49924 0.94900
O 	O 	0.89473 0.15418 0.61385 -0.25800
O 	O 	0.85291 0.09015 0.62873 -0.29100
O 	O 	0.62214 0.15999 0.36275 -0.29000
O 	O 	0.61336 0.09483 0.34455 -0.25400
O 	O 	0.62455 0.20662 0.64769 -0.27300
O 	O 	0.59390 0.24887 0.83124 -0.24800
O 	O 	0.87701 0.24604 0.62147 -0.29300
O 	O 	0.86306 0.28760 0.81487 -0.28700
O 	O 	0.90824 0.04043 0.38239 -0.27500
O 	O 	0.09030 0.99898 0.34643 -0.24900
O 	O 	0.57119 0.04163 0.61623 -0.28100
O 	O 	0.38003 0.99931 0.62748 -0.29000
C 	C 	0.81980 0.12349 0.56470 0.22900
C 	C 	0.67110 0.12601 0.40970 0.23300
C 	C 	0.81470 0.25886 0.72450 0.24000
C 	C 	0.66440 0.23658 0.73810 0.21600
C 	C 	0.00090 0.01105 0.42160 0.23100
C 	C 	0.48560 0.01185 0.57060 0.22700
Cu	Cu	0.24944 0.70358 0.01495 0.94300
Cu	Cu	0.26020 0.54573 0.00076 0.94700
O 	O 	0.10527 0.65418 0.88615 -0.25300
O 	O 	0.14709 0.59015 0.87127 -0.28900
O 	O 	0.37786 0.65999 0.13725 -0.29100
O 	O 	0.38664 0.59483 0.15545 -0.25400
O 	O 	0.37545 0.70662 0.85231 -0.26600
O 	O 	0.40610 0.74887 0.66876 -0.24200
O 	O 	0.12299 0.74604 0.87853 -0.28400
O 	O 	0.13694 0.78760 0.68513 -0.28100
O 	O 	0.09176 0.54043 0.11761 -0.28000
O 	O 	0.90970 0.49898 0.15357 -0.24900
O 	O 	0.42881 0.54163 0.88377 -0.27800
O 	O 	0.61997 0.49931 0.87252 -0.29100
C 	C 	0.18020 0.62349 0.93530 0.24100
C 	C 	0.32890 0.62601 0.09030 0.22200
C 	C 	0.18530 0.75886 0.77550 0.24100
C 	C 	0.33560 0.73658 0.76190 0.21700
C 	C 	0.99910 0.51105 0.07840 0.23500
C 	C 	0.51440 0.51185 0.92940 0.22700
Cu	Cu	0.24944 0.79642 0.51495 0.94900
Cu	Cu	0.26020 0.95427 0.50076 0.94900
O 	O 	0.10527 0.84582 0.38615 -0.25800
O 	O 	0.14709 0.90985 0.37127 -0.29100
O 	O 	0.37786 0.84001 0.63725 -0.29000
O 	O 	0.38664 0.90517 0.65545 -0.25400
O 	O 	0.37545 0.79338 0.35231 -0.27300
O 	O 	0.40610 0.75113 0.16876 -0.24800
O 	O 	0.12299 0.75396 0.37853 -0.29300
O 	O 	0.13694 0.71240 0.18513 -0.28700
O 	O 	0.09176 0.95957 0.61761 -0.27500
O 	O 	0.90970 0.00102 0.65357 -0.24900
O 	O 	0.42881 0.95837 0.38377 -0.28100
O 	O 	0.61997 0.00069 0.37252 -0.29000
C 	C 	0.18020 0.87651 0.43530 0.22900
C 	C 	0.32890 0.87399 0.59030 0.23300
C 	C 	0.18530 0.74114 0.27550 0.24000
C 	C 	0.33560 0.76342 0.26190 0.21600
C 	C 	0.99910 0.98895 0.57840 0.23100
C 	C 	0.51440 0.98815 0.42940 0.22700
Cu	Cu	0.75056 0.29642 0.98505 0.94300
Cu	Cu	0.73980 0.45427 0.99924 0.94700
O 	O 	0.89473 0.34582 0.11385 -0.25300
O 	O 	0.85291 0.40985 0.12873 -0.28900
O 	O 	0.62214 0.34001 0.86275 -0.29100
O 	O 	0.61336 0.40517 0.84455 -0.25400
O 	O 	0.62455 0.29338 0.14769 -0.26600
O 	O 	0.59390 0.25113 0.33124 -0.24200
O 	O 	0.87701 0.25396 0.12147 -0.28400
O 	O 	0.86306 0.21240 0.31487 -0.28100
O 	O 	0.90824 0.45957 0.88239 -0.28000
O 	O 	0.09030 0.50102 0.84643 -0.24900
O 	O 	0.57119 0.45837 0.11623 -0.27800
O 	O 	0.38003 0.50069 0.12748 -0.29100
C 	C 	0.81980 0.37651 0.06470 0.24100
C 	C 	0.67110 0.37399 0.90970 0.22200
C 	C 	0.81470 0.24114 0.22450 0.24100
C 	C 	0.66440 0.26342 0.23810 0.21700
C 	C 	0.00090 0.48895 0.92160 0.23500
C 	C 	0.48560 0.48815 0.07060 0.22700
