data_crystal

_cell_length_a 17.20890
_cell_length_b 17.20890
_cell_length_c 28.52300
_cell_angle_alpha 90.00000
_cell_angle_beta  90.00000
_cell_angle_gamma 90.00000

_symmetry_space_group_name_	'P 1'
_symmetry_space_group_name_H-M	'P 1'

loop_
_symmetry_equiv_pos_as_xyz
  x,y,z

loop_
_atom_site_label
_atom_site_type_symbol
_atom_site_fract_x
_atom_site_fract_y
_atom_site_fract_z
_atom_site_charge
Zn	Zn	0.83631 0.75000 0.75000 1.19500
Zn	Zn	0.66369 0.75000 0.75000 1.19500
Zn	Zn	0.75000 0.83631 0.25000 1.19500
Zn	Zn	0.75000 0.66369 0.25000 1.19500
Zn	Zn	0.16369 0.25000 0.25000 1.19500
Zn	Zn	0.33631 0.25000 0.25000 1.19500
Zn	Zn	0.25000 0.16369 0.75000 1.19500
Zn	Zn	0.25000 0.33631 0.75000 1.19500
Zn	Zn	0.04661 0.95339 0.53400 1.19500
Zn	Zn	0.45339 0.54661 0.53400 1.19600
Zn	Zn	0.54661 0.04661 0.03400 1.19600
Zn	Zn	0.95339 0.45339 0.03400 1.19600
Zn	Zn	0.45339 0.95339 0.96600 1.19600
Zn	Zn	0.04661 0.54661 0.96600 1.19600
Zn	Zn	0.95339 0.04661 0.46600 1.19600
Zn	Zn	0.54661 0.45339 0.46600 1.19700
H 	H 	0.63770 0.95340 0.66230 0.04700
H 	H 	0.85670 0.88630 0.62220 0.03700
H 	H 	0.74190 0.05460 0.54640 0.04500
H 	H 	0.86230 0.54660 0.66230 0.04700
H 	H 	0.64330 0.61370 0.62220 0.03700
H 	H 	0.75810 0.44540 0.54640 0.04500
H 	H 	0.54660 0.63770 0.16230 0.04700
H 	H 	0.61370 0.85670 0.12220 0.03700
H 	H 	0.44540 0.74190 0.04640 0.04500
H 	H 	0.95340 0.86230 0.16230 0.04700
H 	H 	0.88630 0.64330 0.12220 0.03600
H 	H 	0.05460 0.75810 0.04640 0.04500
H 	H 	0.86230 0.95340 0.83770 0.04700
H 	H 	0.64330 0.88630 0.87780 0.03600
H 	H 	0.75810 0.05460 0.95360 0.04500
H 	H 	0.63770 0.54660 0.83770 0.04700
H 	H 	0.85670 0.61370 0.87780 0.03700
H 	H 	0.74190 0.44540 0.95360 0.04500
H 	H 	0.95340 0.63770 0.33770 0.04700
H 	H 	0.88630 0.85670 0.37780 0.03700
H 	H 	0.05460 0.74190 0.45360 0.04500
H 	H 	0.54660 0.86230 0.33770 0.04700
H 	H 	0.61370 0.64330 0.37780 0.03700
H 	H 	0.44540 0.75810 0.45360 0.04500
H 	H 	0.36230 0.04660 0.33770 0.04700
H 	H 	0.14330 0.11370 0.37780 0.03700
H 	H 	0.25810 0.94540 0.45360 0.04500
H 	H 	0.13770 0.45340 0.33770 0.04700
H 	H 	0.35670 0.38630 0.37780 0.03700
H 	H 	0.24190 0.55460 0.45360 0.04500
H 	H 	0.45340 0.36230 0.83770 0.04700
H 	H 	0.38630 0.14330 0.87780 0.03700
H 	H 	0.55460 0.25810 0.95360 0.04500
H 	H 	0.04660 0.13770 0.83770 0.04700
H 	H 	0.11370 0.35670 0.87780 0.03600
H 	H 	0.94540 0.24190 0.95360 0.04500
H 	H 	0.13770 0.04660 0.16230 0.04700
H 	H 	0.35670 0.11370 0.12220 0.03600
H 	H 	0.24190 0.94540 0.04640 0.04500
H 	H 	0.36230 0.45340 0.16230 0.04700
H 	H 	0.14330 0.38630 0.12220 0.03700
H 	H 	0.25810 0.55460 0.04640 0.04500
H 	H 	0.04660 0.36230 0.66230 0.04700
H 	H 	0.11370 0.14330 0.62220 0.03700
H 	H 	0.94540 0.25810 0.54640 0.04500
H 	H 	0.45340 0.13770 0.66230 0.04700
H 	H 	0.38630 0.35670 0.62220 0.03700
H 	H 	0.55460 0.24190 0.54640 0.04500
C 	C 	0.67834 0.01501 0.60400 0.00100
C 	C 	0.67978 0.95842 0.64093 -0.01000
C 	C 	0.74437 0.91075 0.64663 -0.10400
C 	C 	0.80997 0.91701 0.61675 0.04200
C 	C 	0.80719 0.97083 0.58024 -0.10400
C 	C 	0.74261 0.01953 0.57290 -0.00800
C 	C 	0.74520 0.85280 0.68526 0.38600
C 	C 	0.87680 0.97642 0.54854 0.39600
C 	C 	0.61683 0.06764 0.60033 -0.01500
C 	C 	0.82166 0.48499 0.60400 0.00100
C 	C 	0.82022 0.54158 0.64093 -0.01000
C 	C 	0.75563 0.58925 0.64663 -0.10500
C 	C 	0.69003 0.58299 0.61675 0.04300
C 	C 	0.69281 0.52917 0.58024 -0.10400
C 	C 	0.75739 0.48047 0.57290 -0.00800
C 	C 	0.75480 0.64720 0.68526 0.38600
C 	C 	0.62320 0.52358 0.54854 0.39500
C 	C 	0.88317 0.43236 0.60033 -0.01500
C 	C 	0.48499 0.67834 0.10400 0.00100
C 	C 	0.54158 0.67978 0.14093 -0.01000
C 	C 	0.58925 0.74437 0.14663 -0.10400
C 	C 	0.58299 0.80997 0.11675 0.04200
C 	C 	0.52917 0.80719 0.08024 -0.10400
C 	C 	0.48047 0.74261 0.07290 -0.00800
C 	C 	0.64720 0.74520 0.18526 0.38600
C 	C 	0.52358 0.87680 0.04854 0.39400
C 	C 	0.43236 0.61683 0.10033 -0.01500
C 	C 	0.01501 0.82166 0.10400 0.00100
C 	C 	0.95842 0.82022 0.14093 -0.01100
C 	C 	0.91075 0.75563 0.14663 -0.10400
C 	C 	0.91701 0.69003 0.11675 0.04300
C 	C 	0.97083 0.69281 0.08024 -0.10500
C 	C 	0.01953 0.75739 0.07290 -0.00600
C 	C 	0.85280 0.75480 0.18526 0.38600
C 	C 	0.97642 0.62320 0.04854 0.39200
C 	C 	0.06764 0.88317 0.10033 -0.01500
C 	C 	0.82166 0.01501 0.89600 0.00100
C 	C 	0.82022 0.95842 0.85907 -0.01100
C 	C 	0.75563 0.91075 0.85337 -0.10400
C 	C 	0.69003 0.91701 0.88325 0.04300
C 	C 	0.69281 0.97083 0.91976 -0.10500
C 	C 	0.75739 0.01953 0.92710 -0.00600
C 	C 	0.75480 0.85280 0.81474 0.38600
C 	C 	0.62320 0.97642 0.95146 0.39200
C 	C 	0.88317 0.06764 0.89967 -0.01500
C 	C 	0.67834 0.48499 0.89600 0.00100
C 	C 	0.67978 0.54158 0.85907 -0.01000
C 	C 	0.74437 0.58925 0.85337 -0.10400
C 	C 	0.80997 0.58299 0.88325 0.04200
C 	C 	0.80719 0.52917 0.91976 -0.10400
C 	C 	0.74261 0.48047 0.92710 -0.00800
C 	C 	0.74520 0.64720 0.81474 0.38600
C 	C 	0.87680 0.52358 0.95146 0.39400
C 	C 	0.61683 0.43236 0.89967 -0.01500
C 	C 	0.01501 0.67834 0.39600 0.00100
C 	C 	0.95842 0.67978 0.35907 -0.01000
C 	C 	0.91075 0.74437 0.35337 -0.10400
C 	C 	0.91701 0.80997 0.38325 0.04200
C 	C 	0.97083 0.80719 0.41976 -0.10400
C 	C 	0.01953 0.74261 0.42710 -0.00800
C 	C 	0.85280 0.74520 0.31474 0.38600
C 	C 	0.97642 0.87680 0.45146 0.39600
C 	C 	0.06764 0.61683 0.39967 -0.01500
C 	C 	0.48499 0.82166 0.39600 0.00100
C 	C 	0.54158 0.82022 0.35907 -0.01000
C 	C 	0.58925 0.75563 0.35337 -0.10500
C 	C 	0.58299 0.69003 0.38325 0.04300
C 	C 	0.52917 0.69281 0.41976 -0.10400
C 	C 	0.48047 0.75739 0.42710 -0.00800
C 	C 	0.64720 0.75480 0.31474 0.38600
C 	C 	0.52358 0.62320 0.45146 0.39500
C 	C 	0.43236 0.88317 0.39967 -0.01500
C 	C 	0.32166 0.98499 0.39600 0.00100
C 	C 	0.32022 0.04158 0.35907 -0.01000
C 	C 	0.25563 0.08925 0.35337 -0.10400
C 	C 	0.19003 0.08299 0.38325 0.04200
C 	C 	0.19281 0.02917 0.41976 -0.10400
C 	C 	0.25739 0.98047 0.42710 -0.00800
C 	C 	0.25480 0.14720 0.31474 0.38600
C 	C 	0.12320 0.02358 0.45146 0.39600
C 	C 	0.38317 0.93236 0.39967 -0.01500
C 	C 	0.17834 0.51501 0.39600 0.00100
C 	C 	0.17978 0.45842 0.35907 -0.01000
C 	C 	0.24437 0.41075 0.35337 -0.10500
C 	C 	0.30997 0.41701 0.38325 0.04300
C 	C 	0.30719 0.47083 0.41976 -0.10400
C 	C 	0.24261 0.51953 0.42710 -0.00800
C 	C 	0.24520 0.35280 0.31474 0.38600
C 	C 	0.37680 0.47642 0.45146 0.39500
C 	C 	0.11683 0.56764 0.39967 -0.01500
C 	C 	0.51501 0.32166 0.89600 0.00100
C 	C 	0.45842 0.32022 0.85907 -0.01000
C 	C 	0.41075 0.25563 0.85337 -0.10400
C 	C 	0.41701 0.19003 0.88325 0.04200
C 	C 	0.47083 0.19281 0.91976 -0.10400
C 	C 	0.51953 0.25739 0.92710 -0.00800
C 	C 	0.35280 0.25480 0.81474 0.38600
C 	C 	0.47642 0.12320 0.95146 0.39400
C 	C 	0.56764 0.38317 0.89967 -0.01500
C 	C 	0.98499 0.17834 0.89600 0.00100
C 	C 	0.04158 0.17978 0.85907 -0.01100
C 	C 	0.08925 0.24437 0.85337 -0.10400
C 	C 	0.08299 0.30997 0.88325 0.04300
C 	C 	0.02917 0.30719 0.91976 -0.10500
C 	C 	0.98047 0.24261 0.92710 -0.00600
C 	C 	0.14720 0.24520 0.81474 0.38600
C 	C 	0.02358 0.37680 0.95146 0.39200
C 	C 	0.93236 0.11683 0.89967 -0.01500
C 	C 	0.17834 0.98499 0.10400 0.00100
C 	C 	0.17978 0.04158 0.14093 -0.01100
C 	C 	0.24437 0.08925 0.14663 -0.10400
C 	C 	0.30997 0.08299 0.11675 0.04300
C 	C 	0.30719 0.02917 0.08024 -0.10500
C 	C 	0.24261 0.98047 0.07290 -0.00600
C 	C 	0.24520 0.14720 0.18526 0.38600
C 	C 	0.37680 0.02358 0.04854 0.39200
C 	C 	0.11683 0.93236 0.10033 -0.01500
C 	C 	0.32166 0.51501 0.10400 0.00100
C 	C 	0.32022 0.45842 0.14093 -0.01000
C 	C 	0.25563 0.41075 0.14663 -0.10400
C 	C 	0.19003 0.41701 0.11675 0.04200
C 	C 	0.19281 0.47083 0.08024 -0.10400
C 	C 	0.25739 0.51953 0.07290 -0.00800
C 	C 	0.25480 0.35280 0.18526 0.38600
C 	C 	0.12320 0.47642 0.04854 0.39400
C 	C 	0.38317 0.56764 0.10033 -0.01500
C 	C 	0.98499 0.32166 0.60400 0.00100
C 	C 	0.04158 0.32022 0.64093 -0.01000
C 	C 	0.08925 0.25563 0.64663 -0.10400
C 	C 	0.08299 0.19003 0.61675 0.04200
C 	C 	0.02917 0.19281 0.58024 -0.10400
C 	C 	0.98047 0.25739 0.57290 -0.00800
C 	C 	0.14720 0.25480 0.68526 0.38600
C 	C 	0.02358 0.12320 0.54854 0.39600
C 	C 	0.93236 0.38317 0.60033 -0.01500
C 	C 	0.51501 0.17834 0.60400 0.00100
C 	C 	0.45842 0.17978 0.64093 -0.01000
C 	C 	0.41075 0.24437 0.64663 -0.10500
C 	C 	0.41701 0.30997 0.61675 0.04300
C 	C 	0.47083 0.30719 0.58024 -0.10400
C 	C 	0.51953 0.24261 0.57290 -0.00800
C 	C 	0.35280 0.24520 0.68526 0.38600
C 	C 	0.47642 0.37680 0.54854 0.39500
C 	C 	0.56764 0.11683 0.60033 -0.01500
O 	O 	0.80916 0.81989 0.69450 -0.47400
O 	O 	0.68214 0.84146 0.70726 -0.47600
O 	O 	0.93884 0.94514 0.56173 -0.48400
O 	O 	0.86768 0.01623 0.51165 -0.47400
O 	O 	0.69084 0.68011 0.69450 -0.47400
O 	O 	0.81786 0.65854 0.70726 -0.47500
O 	O 	0.56116 0.55486 0.56173 -0.48500
O 	O 	0.63232 0.48377 0.51165 -0.47300
O 	O 	0.68011 0.80916 0.19450 -0.47400
O 	O 	0.65854 0.68214 0.20726 -0.47600
O 	O 	0.55486 0.93884 0.06173 -0.48400
O 	O 	0.48377 0.86768 0.01165 -0.47300
O 	O 	0.81989 0.69084 0.19450 -0.47400
O 	O 	0.84146 0.81786 0.20726 -0.47500
O 	O 	0.94514 0.56116 0.06173 -0.48500
O 	O 	0.01623 0.63232 0.01165 -0.47100
O 	O 	0.69084 0.81989 0.80550 -0.47400
O 	O 	0.81786 0.84146 0.79274 -0.47500
O 	O 	0.56116 0.94514 0.93827 -0.48500
O 	O 	0.63232 0.01623 0.98835 -0.47100
O 	O 	0.80916 0.68011 0.80550 -0.47400
O 	O 	0.68214 0.65854 0.79274 -0.47600
O 	O 	0.93884 0.55486 0.93827 -0.48400
O 	O 	0.86768 0.48377 0.98835 -0.47300
O 	O 	0.81989 0.80916 0.30550 -0.47400
O 	O 	0.84146 0.68214 0.29274 -0.47600
O 	O 	0.94514 0.93884 0.43827 -0.48400
O 	O 	0.01623 0.86768 0.48835 -0.47400
O 	O 	0.68011 0.69084 0.30550 -0.47400
O 	O 	0.65854 0.81786 0.29274 -0.47500
O 	O 	0.55486 0.56116 0.43827 -0.48500
O 	O 	0.48377 0.63232 0.48835 -0.47300
O 	O 	0.19084 0.18011 0.30550 -0.47400
O 	O 	0.31786 0.15854 0.29274 -0.47600
O 	O 	0.06116 0.05486 0.43827 -0.48400
O 	O 	0.13232 0.98377 0.48835 -0.47400
O 	O 	0.30916 0.31989 0.30550 -0.47400
O 	O 	0.18214 0.34146 0.29274 -0.47500
O 	O 	0.43884 0.44514 0.43827 -0.48500
O 	O 	0.36768 0.51623 0.48835 -0.47300
O 	O 	0.31989 0.19084 0.80550 -0.47400
O 	O 	0.34146 0.31786 0.79274 -0.47600
O 	O 	0.44514 0.06116 0.93827 -0.48400
O 	O 	0.51623 0.13232 0.98835 -0.47300
O 	O 	0.18011 0.30916 0.80550 -0.47400
O 	O 	0.15854 0.18214 0.79274 -0.47500
O 	O 	0.05486 0.43884 0.93827 -0.48500
O 	O 	0.98377 0.36768 0.98835 -0.47100
O 	O 	0.30916 0.18011 0.19450 -0.47400
O 	O 	0.18214 0.15854 0.20726 -0.47500
O 	O 	0.43884 0.05486 0.06173 -0.48500
O 	O 	0.36768 0.98377 0.01165 -0.47100
O 	O 	0.19084 0.31989 0.19450 -0.47400
O 	O 	0.31786 0.34146 0.20726 -0.47600
O 	O 	0.06116 0.44514 0.06173 -0.48400
O 	O 	0.13232 0.51623 0.01165 -0.47300
O 	O 	0.18011 0.19084 0.69450 -0.47400
O 	O 	0.15854 0.31786 0.70726 -0.47600
O 	O 	0.05486 0.06116 0.56173 -0.48400
O 	O 	0.98377 0.13232 0.51165 -0.47400
O 	O 	0.31989 0.30916 0.69450 -0.47400
O 	O 	0.34146 0.18214 0.70726 -0.47500
O 	O 	0.44514 0.43884 0.56173 -0.48500
O 	O 	0.51623 0.36768 0.51165 -0.47300
