data_crystal

_cell_length_a 6.51920
_cell_length_b 15.48180
_cell_length_c 16.99130
_cell_angle_alpha 89.23000
_cell_angle_beta  84.60700
_cell_angle_gamma 85.57400

_symmetry_space_group_name_	'P 1'
_symmetry_space_group_name_H-M	'P 1'

loop_
_symmetry_equiv_pos_as_xyz
  x,y,z

loop_
_atom_site_label
_atom_site_type_symbol
_atom_site_fract_x
_atom_site_fract_y
_atom_site_fract_z
_atom_site_charge
Ag	Ag	0.72880 0.02035 0.05761 0.52300
Ag	Ag	0.74721 0.53013 0.43691 0.52400
N 	N 	0.43990 0.10340 0.07280 -0.17200
N 	N 	0.30470 0.10970 0.01460 -0.15500
N 	N 	0.23710 0.22130 0.09460 -0.18800
N 	N 	0.48370 0.48640 0.38210 -0.17300
N 	N 	0.37360 0.42280 0.42340 -0.15100
N 	N 	0.27550 0.43400 0.30390 -0.18800
N 	N 	0.85510 0.39500 0.50660 -0.15100
N 	N 	0.97640 0.39670 0.57090 -0.16800
N 	N 	0.78650 0.28620 0.58600 -0.18900
N 	N 	0.84200 0.07970 0.92420 -0.14900
N 	N 	0.99250 0.02210 0.88610 -0.17200
N 	N 	0.78420 0.07070 0.79980 -0.19000
C 	C 	0.39470 0.16960 0.11950 0.09500
H 	H 	0.46270 0.17990 0.16450 -0.03200
C 	C 	0.18570 0.18130 0.02910 0.08200
H 	H 	0.07940 0.20200 0.99840 -0.01700
C 	C 	0.41700 0.49150 0.31100 0.10100
H 	H 	0.46200 0.53000 0.27100 -0.03000
C 	C 	0.25380 0.39310 0.37560 0.08700
H 	H 	0.16380 0.34940 0.38840 -0.01900
C 	C 	0.14570 0.30620 0.12690 0.32800
C 	C 	0.25680 0.32600 0.20050 -0.43300
H 	H 	0.23530 0.28090 0.24090 0.14700
H 	H 	0.40570 0.32720 0.18600 0.15400
C 	C 	0.16730 0.41440 0.23290 0.33100
C 	C 	0.20220 0.48490 0.17020 -0.44900
H 	H 	0.35030 0.48690 0.15460 0.15000
H 	H 	0.14900 0.54160 0.19170 0.14700
C 	C 	0.08910 0.46440 0.09810 0.34400
H 	H 	0.10850 0.51030 0.05750 -0.09600
C 	C 	0.18450 0.37640 0.06420 -0.44300
H 	H 	0.12090 0.36310 0.01620 0.14900
H 	H 	0.33330 0.37910 0.05050 0.14600
C 	C 	0.91710 0.30030 0.15060 -0.44300
H 	H 	0.89680 0.25560 0.19130 0.14600
H 	H 	0.84680 0.28520 0.10470 0.14500
C 	C 	0.82810 0.39010 0.18300 0.33200
H 	H 	0.67820 0.38840 0.19840 -0.09100
C 	C 	0.94020 0.41080 0.25700 -0.43300
H 	H 	0.88300 0.46650 0.27940 0.12900
H 	H 	0.91900 0.36580 0.29750 0.14200
C 	C 	0.86210 0.45890 0.12130 -0.47400
H 	H 	0.80160 0.51500 0.14200 0.15000
H 	H 	0.79280 0.44570 0.07470 0.15500
C 	C 	0.74770 0.32810 0.51760 0.08500
H 	H 	0.65500 0.31090 0.48280 -0.02100
C 	C 	0.93000 0.33060 0.61680 0.09300
H 	H 	0.98830 0.31640 0.66430 -0.03000
C 	C 	0.72120 0.10720 0.87050 0.08600
H 	H 	0.60560 0.14710 0.87990 -0.02100
C 	C 	0.95190 0.01730 0.81230 0.10000
H 	H 	0.02820 0.98200 0.77370 -0.03400
C 	C 	0.70530 0.20310 0.61380 0.32900
C 	C 	0.77830 0.18020 0.69560 -0.44300
H 	H 	0.92950 0.17700 0.69270 0.15800
H 	H 	0.72360 0.22500 0.73380 0.15000
C 	C 	0.70030 0.09260 0.72200 0.34000
C 	C 	0.78430 0.02180 0.66290 -0.45500
H 	H 	0.93560 0.01700 0.65880 0.15400
H 	H 	0.73580 0.96590 0.68110 0.14800
C 	C 	0.70880 0.04490 0.58230 0.34800
H 	H 	0.76180 0.99930 0.54370 -0.10000
C 	C 	0.79010 0.13240 0.55450 -0.44500
H 	H 	0.94150 0.12780 0.55050 0.15300
H 	H 	0.74600 0.14730 0.50210 0.14700
C 	C 	0.46860 0.21080 0.62100 -0.44100
H 	H 	0.41880 0.22670 0.56970 0.14300
H 	H 	0.41560 0.25590 0.65910 0.14000
C 	C 	0.39170 0.12270 0.64880 0.33700
H 	H 	0.23880 0.12660 0.65320 -0.09600
C 	C 	0.46740 0.09770 0.72950 -0.45600
H 	H 	0.41250 0.14120 0.76890 0.14800
H 	H 	0.41870 0.04160 0.74670 0.14400
C 	C 	0.47570 0.05300 0.58840 -0.46800
H 	H 	0.42300 0.99730 0.60480 0.14800
H 	H 	0.42830 0.06840 0.53670 0.15500
Ag	Ag	0.27120 0.97965 0.94239 0.52400
Ag	Ag	0.25279 0.46987 0.56309 0.52500
N 	N 	0.56010 0.89660 0.92720 -0.17100
N 	N 	0.69530 0.89030 0.98540 -0.15400
N 	N 	0.76290 0.77870 0.90540 -0.18700
N 	N 	0.51630 0.51360 0.61790 -0.17200
N 	N 	0.62640 0.57720 0.57660 -0.15100
N 	N 	0.72450 0.56600 0.69610 -0.18800
N 	N 	0.14490 0.60500 0.49340 -0.15100
N 	N 	0.02360 0.60330 0.42910 -0.16800
N 	N 	0.21350 0.71380 0.41400 -0.18900
N 	N 	0.15800 0.92030 0.07580 -0.14900
N 	N 	0.00750 0.97790 0.11390 -0.17200
N 	N 	0.21580 0.92930 0.20020 -0.19000
C 	C 	0.60530 0.83040 0.88050 0.09500
H 	H 	0.53730 0.82010 0.83550 -0.03200
C 	C 	0.81430 0.81870 0.97090 0.08200
H 	H 	0.92060 0.79800 0.00160 -0.01700
C 	C 	0.58300 0.50850 0.68900 0.10100
H 	H 	0.53800 0.47000 0.72900 -0.03000
C 	C 	0.74620 0.60690 0.62440 0.08700
H 	H 	0.83620 0.65060 0.61160 -0.01900
C 	C 	0.85430 0.69380 0.87310 0.32800
C 	C 	0.74320 0.67400 0.79950 -0.43300
H 	H 	0.76470 0.71910 0.75910 0.14700
H 	H 	0.59430 0.67280 0.81400 0.15400
C 	C 	0.83270 0.58560 0.76710 0.33100
C 	C 	0.79780 0.51510 0.82980 -0.44900
H 	H 	0.64970 0.51310 0.84540 0.15000
H 	H 	0.85100 0.45840 0.80830 0.14700
C 	C 	0.91090 0.53560 0.90190 0.34400
H 	H 	0.89150 0.48970 0.94250 -0.09600
C 	C 	0.81550 0.62360 0.93580 -0.44300
H 	H 	0.87910 0.63690 0.98380 0.14900
H 	H 	0.66670 0.62090 0.94950 0.14600
C 	C 	0.08290 0.69970 0.84940 -0.44300
H 	H 	0.10320 0.74440 0.80870 0.14600
H 	H 	0.15320 0.71480 0.89530 0.14500
C 	C 	0.17190 0.60990 0.81700 0.33200
H 	H 	0.32180 0.61160 0.80160 -0.09100
C 	C 	0.05980 0.58920 0.74300 -0.43300
H 	H 	0.11700 0.53350 0.72060 0.12900
H 	H 	0.08100 0.63420 0.70250 0.14200
C 	C 	0.13790 0.54110 0.87870 -0.47400
H 	H 	0.19840 0.48500 0.85800 0.15000
H 	H 	0.20720 0.55430 0.92530 0.15500
C 	C 	0.25230 0.67190 0.48240 0.08500
H 	H 	0.34500 0.68910 0.51720 -0.02100
C 	C 	0.07000 0.66940 0.38320 0.09300
H 	H 	0.01170 0.68360 0.33570 -0.03000
C 	C 	0.27880 0.89280 0.12950 0.08600
H 	H 	0.39440 0.85290 0.12010 -0.02100
C 	C 	0.04810 0.98270 0.18770 0.10000
H 	H 	0.97180 0.01800 0.22630 -0.03400
C 	C 	0.29470 0.79690 0.38620 0.32900
C 	C 	0.22170 0.81980 0.30440 -0.44300
H 	H 	0.07050 0.82300 0.30730 0.15800
H 	H 	0.27640 0.77500 0.26620 0.15000
C 	C 	0.29970 0.90740 0.27800 0.34000
C 	C 	0.21570 0.97820 0.33710 -0.45500
H 	H 	0.06440 0.98300 0.34120 0.15400
H 	H 	0.26420 0.03410 0.31890 0.14800
C 	C 	0.29120 0.95510 0.41770 0.34800
H 	H 	0.23820 0.00070 0.45630 -0.10000
C 	C 	0.20990 0.86760 0.44550 -0.44500
H 	H 	0.05850 0.87220 0.44950 0.15300
H 	H 	0.25400 0.85270 0.49790 0.14700
C 	C 	0.53140 0.78920 0.37900 -0.44100
H 	H 	0.58120 0.77330 0.43030 0.14300
H 	H 	0.58440 0.74410 0.34090 0.14000
C 	C 	0.60830 0.87730 0.35120 0.33700
H 	H 	0.76120 0.87340 0.34680 -0.09600
C 	C 	0.53260 0.90230 0.27050 -0.45600
H 	H 	0.58750 0.85880 0.23110 0.14800
H 	H 	0.58130 0.95840 0.25330 0.14400
C 	C 	0.52430 0.94700 0.41160 -0.46800
H 	H 	0.57700 0.00270 0.39520 0.14800
H 	H 	0.57170 0.93160 0.46330 0.15500
