data_crystal

_cell_length_a 17.16230
_cell_length_b 13.15600
_cell_length_c 12.86310
_cell_angle_alpha 90.00000
_cell_angle_beta  90.00000
_cell_angle_gamma 90.00000

_symmetry_space_group_name_	'P 1'
_symmetry_space_group_name_H-M	'P 1'

loop_
_symmetry_equiv_pos_as_xyz
  x,y,z

loop_
_atom_site_label
_atom_site_type_symbol
_atom_site_fract_x
_atom_site_fract_y
_atom_site_fract_z
_atom_site_charge
N 	N 	0.07520 0.59750 0.83100 -0.20400
N 	N 	0.05130 0.54150 0.91290 -0.11000
N 	N 	0.08450 0.43850 0.78700 -0.18800
C 	C 	0.09320 0.53440 0.75630 0.10700
H 	H 	0.11000 0.55410 0.68980 -0.02100
C 	C 	0.05720 0.44580 0.88500 0.09900
H 	H 	0.04420 0.39010 0.92750 -0.00900
C 	C 	0.09890 0.34500 0.72350 0.32100
C 	C 	0.04140 0.34580 0.63100 -0.42900
H 	H 	0.98760 0.34580 0.65640 0.15300
H 	H 	0.04930 0.40690 0.58870 0.15100
H 	H 	0.14910 0.31040 0.48170 0.15100
C 	C 	0.18350 0.34620 0.68370 -0.43000
H 	H 	0.19260 0.40690 0.64120 0.15200
H 	H 	0.21980 0.34750 0.74250 0.15100
N 	N 	0.42480 0.40250 0.33100 -0.20500
N 	N 	0.44870 0.45850 0.41290 -0.11000
N 	N 	0.41550 0.56150 0.28700 -0.18900
C 	C 	0.40680 0.46560 0.25630 0.10600
H 	H 	0.39000 0.44590 0.18980 -0.02100
C 	C 	0.44280 0.55420 0.38500 0.09900
H 	H 	0.45580 0.60990 0.42750 -0.00900
C 	C 	0.40110 0.65500 0.22350 0.32100
C 	C 	0.45860 0.65420 0.13100 -0.43000
H 	H 	0.51240 0.65420 0.15640 0.15300
H 	H 	0.45070 0.59310 0.08870 0.15100
H 	H 	0.35090 0.68960 0.98170 0.15000
C 	C 	0.31650 0.65380 0.18370 -0.43000
H 	H 	0.30740 0.59310 0.14120 0.15200
H 	H 	0.28020 0.65250 0.24250 0.15100
N 	N 	0.92480 0.09750 0.16900 -0.20500
N 	N 	0.94870 0.04150 0.08710 -0.11200
N 	N 	0.91550 0.93850 0.21300 -0.18800
C 	C 	0.90680 0.03440 0.24370 0.10400
H 	H 	0.89000 0.05410 0.31020 -0.02000
C 	C 	0.94280 0.94580 0.11500 0.10100
H 	H 	0.95580 0.89010 0.07250 -0.00900
C 	C 	0.90110 0.84500 0.27650 0.32100
C 	C 	0.95860 0.84580 0.36900 -0.42900
H 	H 	0.01240 0.84580 0.34360 0.15200
H 	H 	0.95070 0.90690 0.41130 0.15100
H 	H 	0.85090 0.81040 0.51830 0.15100
C 	C 	0.81650 0.84620 0.31630 -0.43000
H 	H 	0.80740 0.90690 0.35880 0.15200
H 	H 	0.78020 0.84750 0.25750 0.15100
N 	N 	0.57520 0.90250 0.66900 -0.20500
N 	N 	0.55130 0.95850 0.58710 -0.11000
N 	N 	0.58450 0.06150 0.71300 -0.18800
C 	C 	0.59320 0.96560 0.74370 0.10500
H 	H 	0.61000 0.94590 0.81020 -0.02100
C 	C 	0.55720 0.05420 0.61500 0.09900
H 	H 	0.54420 0.10990 0.57250 -0.00900
C 	C 	0.59890 0.15500 0.77650 0.32100
C 	C 	0.54140 0.15420 0.86900 -0.43000
H 	H 	0.48760 0.15420 0.84360 0.15300
H 	H 	0.54930 0.09310 0.91130 0.15100
H 	H 	0.64910 0.18960 0.01830 0.15000
C 	C 	0.68350 0.15380 0.81630 -0.43000
H 	H 	0.69260 0.09310 0.85880 0.15200
H 	H 	0.71980 0.15250 0.75750 0.15100
N 	N 	0.92480 0.40250 0.16900 -0.20500
N 	N 	0.94870 0.45850 0.08710 -0.11100
N 	N 	0.91550 0.56150 0.21300 -0.18900
C 	C 	0.90680 0.46560 0.24370 0.10600
H 	H 	0.89000 0.44590 0.31020 -0.02100
C 	C 	0.94280 0.55420 0.11500 0.09900
H 	H 	0.95580 0.60990 0.07250 -0.00900
C 	C 	0.90110 0.65500 0.27650 0.32100
C 	C 	0.95860 0.65420 0.36900 -0.42900
H 	H 	0.01240 0.65420 0.34360 0.15300
H 	H 	0.95070 0.59310 0.41130 0.15100
H 	H 	0.85090 0.68960 0.51830 0.15100
C 	C 	0.81650 0.65380 0.31630 -0.43000
H 	H 	0.80740 0.59310 0.35880 0.15200
H 	H 	0.78020 0.65250 0.25750 0.15100
N 	N 	0.57520 0.59750 0.66900 -0.20500
N 	N 	0.55130 0.54150 0.58710 -0.11000
N 	N 	0.58450 0.43850 0.71300 -0.18900
C 	C 	0.59320 0.53440 0.74370 0.10600
H 	H 	0.61000 0.55410 0.81020 -0.02100
C 	C 	0.55720 0.44580 0.61500 0.09900
H 	H 	0.54420 0.39010 0.57250 -0.00900
C 	C 	0.59890 0.34500 0.77650 0.32100
C 	C 	0.54140 0.34580 0.86900 -0.43000
H 	H 	0.48760 0.34580 0.84360 0.15300
H 	H 	0.54930 0.40690 0.91130 0.15100
H 	H 	0.64910 0.31040 0.01830 0.15000
C 	C 	0.68350 0.34620 0.81630 -0.43000
H 	H 	0.69260 0.40690 0.85880 0.15200
H 	H 	0.71980 0.34750 0.75750 0.15100
N 	N 	0.07520 0.90250 0.83100 -0.20500
N 	N 	0.05130 0.95850 0.91290 -0.11200
N 	N 	0.08450 0.06150 0.78700 -0.18800
C 	C 	0.09320 0.96560 0.75630 0.10400
H 	H 	0.11000 0.94590 0.68980 -0.02000
C 	C 	0.05720 0.05420 0.88500 0.10100
H 	H 	0.04420 0.10990 0.92750 -0.00900
C 	C 	0.09890 0.15500 0.72350 0.32100
C 	C 	0.04140 0.15420 0.63100 -0.42900
H 	H 	0.98760 0.15420 0.65640 0.15200
H 	H 	0.04930 0.09310 0.58870 0.15100
H 	H 	0.14910 0.18960 0.48170 0.15100
C 	C 	0.18350 0.15380 0.68370 -0.43000
H 	H 	0.19260 0.09310 0.64120 0.15200
H 	H 	0.21980 0.15250 0.74250 0.15100
N 	N 	0.42480 0.09750 0.33100 -0.20500
N 	N 	0.44870 0.04150 0.41290 -0.11000
N 	N 	0.41550 0.93850 0.28700 -0.18800
C 	C 	0.40680 0.03440 0.25630 0.10500
H 	H 	0.39000 0.05410 0.18980 -0.02100
C 	C 	0.44280 0.94580 0.38500 0.09900
H 	H 	0.45580 0.89010 0.42750 -0.00900
C 	C 	0.40110 0.84500 0.22350 0.32100
C 	C 	0.45860 0.84580 0.13100 -0.43000
H 	H 	0.51240 0.84580 0.15640 0.15300
H 	H 	0.45070 0.90690 0.08870 0.15100
H 	H 	0.35090 0.81040 0.98170 0.15000
C 	C 	0.31650 0.84620 0.18370 -0.43000
H 	H 	0.30740 0.90690 0.14120 0.15200
H 	H 	0.28020 0.84750 0.24250 0.15100
Cu	Cu	0.06616 0.75000 0.83615 0.85800
Cu	Cu	0.43384 0.25000 0.33615 0.85800
Cu	Cu	0.93384 0.25000 0.16385 0.85800
Cu	Cu	0.56616 0.75000 0.66385 0.85800
N 	N 	0.95620 0.25000 0.31620 -0.20700
N 	N 	0.89410 0.25000 0.38350 -0.12600
N 	N 	0.00240 0.25000 0.47460 -0.18500
N 	N 	0.37740 0.25000 0.47190 -0.20100
N 	N 	0.40610 0.25000 0.57220 -0.11300
N 	N 	0.27750 0.25000 0.57740 -0.18800
C 	C 	0.02160 0.25000 0.37180 0.09200
H 	H 	0.07250 0.25000 0.34470 -0.02900
C 	C 	0.92320 0.25000 0.47430 0.10300
H 	H 	0.89290 0.25000 0.53520 -0.01700
C 	C 	0.30140 0.25000 0.47750 0.10500
H 	H 	0.26790 0.25000 0.41970 -0.03600
C 	C 	0.34390 0.25000 0.63280 0.09800
H 	H 	0.34580 0.25000 0.70580 -0.01600
C 	C 	0.05700 0.25000 0.56580 0.32100
C 	C 	0.14020 0.25000 0.52460 -0.43300
C 	C 	0.19680 0.25000 0.61820 0.32000
C 	C 	0.08580 0.25000 0.78980 -0.43900
H 	H 	0.12200 0.25000 0.84870 0.15200
H 	H 	0.03250 0.25000 0.81730 0.16100
N 	N 	0.54380 0.75000 0.81620 -0.20700
N 	N 	0.60590 0.75000 0.88350 -0.12600
N 	N 	0.49760 0.75000 0.97460 -0.18500
N 	N 	0.12260 0.75000 0.97190 -0.20200
N 	N 	0.09390 0.75000 0.07220 -0.11200
N 	N 	0.22250 0.75000 0.07740 -0.18700
C 	C 	0.47840 0.75000 0.87180 0.09100
H 	H 	0.42750 0.75000 0.84470 -0.02900
C 	C 	0.57680 0.75000 0.97430 0.10200
H 	H 	0.60710 0.75000 0.03520 -0.01700
C 	C 	0.19860 0.75000 0.97750 0.10400
H 	H 	0.23210 0.75000 0.91970 -0.03600
C 	C 	0.15610 0.75000 0.13280 0.09800
H 	H 	0.15420 0.75000 0.20580 -0.01600
C 	C 	0.44300 0.75000 0.06580 0.32100
C 	C 	0.35980 0.75000 0.02460 -0.43000
C 	C 	0.30320 0.75000 0.11820 0.32000
C 	C 	0.41420 0.75000 0.28980 -0.43900
H 	H 	0.37800 0.75000 0.34870 0.15200
H 	H 	0.46750 0.75000 0.31730 0.16000
N 	N 	0.04380 0.75000 0.68380 -0.20700
N 	N 	0.10590 0.75000 0.61650 -0.12600
N 	N 	0.99760 0.75000 0.52540 -0.18500
N 	N 	0.62260 0.75000 0.52810 -0.20100
N 	N 	0.59390 0.75000 0.42780 -0.11300
N 	N 	0.72250 0.75000 0.42260 -0.18800
C 	C 	0.97840 0.75000 0.62820 0.09200
H 	H 	0.92750 0.75000 0.65530 -0.02900
C 	C 	0.07680 0.75000 0.52570 0.10300
H 	H 	0.10710 0.75000 0.46480 -0.01700
C 	C 	0.69860 0.75000 0.52250 0.10500
H 	H 	0.73210 0.75000 0.58030 -0.03600
C 	C 	0.65610 0.75000 0.36720 0.09800
H 	H 	0.65420 0.75000 0.29420 -0.01600
C 	C 	0.94300 0.75000 0.43420 0.32100
C 	C 	0.85980 0.75000 0.47540 -0.43300
C 	C 	0.80320 0.75000 0.38180 0.32000
C 	C 	0.91420 0.75000 0.21020 -0.43900
H 	H 	0.87800 0.75000 0.15130 0.15200
H 	H 	0.96750 0.75000 0.18270 0.16100
N 	N 	0.45620 0.25000 0.18380 -0.20700
N 	N 	0.39410 0.25000 0.11650 -0.12600
N 	N 	0.50240 0.25000 0.02540 -0.18500
N 	N 	0.87740 0.25000 0.02810 -0.20200
N 	N 	0.90610 0.25000 0.92780 -0.11200
N 	N 	0.77750 0.25000 0.92260 -0.18700
C 	C 	0.52160 0.25000 0.12820 0.09100
H 	H 	0.57250 0.25000 0.15530 -0.02900
C 	C 	0.42320 0.25000 0.02570 0.10200
H 	H 	0.39290 0.25000 0.96480 -0.01700
C 	C 	0.80140 0.25000 0.02250 0.10400
H 	H 	0.76790 0.25000 0.08030 -0.03600
C 	C 	0.84390 0.25000 0.86720 0.09800
H 	H 	0.84580 0.25000 0.79420 -0.01600
C 	C 	0.55700 0.25000 0.93420 0.32100
C 	C 	0.64020 0.25000 0.97540 -0.43000
C 	C 	0.69680 0.25000 0.88180 0.32000
C 	C 	0.58580 0.25000 0.71020 -0.43900
H 	H 	0.62200 0.25000 0.65130 0.15200
H 	H 	0.53250 0.25000 0.68270 0.16000
