data_crystal

_cell_length_a 8.78090
_cell_length_b 28.23330
_cell_length_c 11.38330
_cell_angle_alpha 90.00000
_cell_angle_beta  90.00000
_cell_angle_gamma 90.00000

_symmetry_space_group_name_	'P 1'
_symmetry_space_group_name_H-M	'P 1'

loop_
_symmetry_equiv_pos_as_xyz
  x,y,z

loop_
_atom_site_label
_atom_site_type_symbol
_atom_site_fract_x
_atom_site_fract_y
_atom_site_fract_z
_atom_site_charge
Cd	Cd	0.68336 0.38328 0.50028 1.26400
Cd	Cd	0.31656 0.61673 0.49958 1.26600
Cd	Cd	0.18345 0.11675 -0.00063 1.22600
Cd	Cd	0.81664 0.88328 -0.00063 1.22900
Cd	Cd	0.50004 0.50000 0.49995 1.24300
Cd	Cd	0.00039 0.00004 -0.00067 1.17600
H 	H 	0.51861 0.34438 0.25390 0.00100
H 	H 	0.29021 0.47513 0.25794 0.01600
H 	H 	0.83393 0.43974 0.18431 0.04600
H 	H 	0.18122 0.32545 0.19224 0.09000
H 	H 	0.35273 0.31408 0.11193 0.06300
H 	H 	0.14994 0.45568 0.10761 0.07100
H 	H 	0.06747 0.40866 0.19120 0.10700
H 	H 	0.93226 0.34246 0.07952 0.12600
H 	H 	0.48213 0.65559 0.25392 0.00100
H 	H 	0.71178 0.52505 0.25878 0.01800
H 	H 	0.16640 0.56024 0.18347 0.03900
H 	H 	0.81974 0.67464 0.19189 0.09800
H 	H 	0.64782 0.68594 0.11205 0.06300
H 	H 	0.85050 0.54435 0.10735 0.07800
H 	H 	0.93345 0.59137 0.19067 0.12100
H 	H 	0.06801 0.65755 0.07856 0.08300
H 	H 	0.01875 0.15550 0.24578 -0.02400
H 	H 	0.78963 0.02487 0.24117 -0.00000
H 	H 	0.33371 0.06014 0.31571 0.02800
H 	H 	0.68101 0.17448 0.30714 0.09000
H 	H 	0.85264 0.18588 0.38727 0.08000
H 	H 	0.64991 0.04428 0.39212 0.08100
H 	H 	0.56726 0.09123 0.30847 0.10600
H 	H 	0.43226 0.15753 0.42008 0.08900
H 	H 	0.98097 0.84457 0.24588 0.03200
H 	H 	0.21073 0.97509 0.24095 0.01200
H 	H 	0.66623 0.93988 0.31572 0.03600
H 	H 	0.31889 0.82558 0.30697 0.08800
H 	H 	0.14730 0.81414 0.38712 0.07100
H 	H 	0.34996 0.95575 0.39221 0.09200
H 	H 	0.43263 0.90882 0.30845 0.10900
H 	H 	0.56770 0.84250 0.41992 0.09200
H 	H 	0.48131 0.65559 0.74608 0.01400
H 	H 	0.70972 0.52484 0.74200 0.02000
H 	H 	0.16612 0.56027 0.81568 0.02000
H 	H 	0.81867 0.67448 0.80757 0.09400
H 	H 	0.64719 0.68588 0.88790 0.09700
H 	H 	0.85003 0.54429 0.89240 0.10100
H 	H 	0.93247 0.59129 0.80874 0.10900
H 	H 	0.06771 0.65752 0.92032 0.16100
H 	H 	0.51787 0.34443 0.74605 0.01500
H 	H 	0.28829 0.47498 0.74119 0.01800
H 	H 	0.83353 0.43976 0.81652 0.02700
H 	H 	0.18028 0.32542 0.80791 0.08700
H 	H 	0.35215 0.31409 0.88779 0.09700
H 	H 	0.14952 0.45568 0.89267 0.09600
H 	H 	0.06657 0.40868 0.80927 0.09500
H 	H 	0.93192 0.34248 0.92129 0.20100
H 	H 	0.98243 0.84422 0.75385 0.04500
H 	H 	0.21093 0.97496 0.75778 0.02700
H 	H 	0.66600 0.93964 0.68350 0.04400
H 	H 	0.31934 0.82527 0.69129 0.10500
H 	H 	0.14753 0.81401 0.61125 0.07800
H 	H 	0.35035 0.95558 0.60710 0.09600
H 	H 	0.43310 0.90850 0.69036 0.11800
H 	H 	0.56785 0.84241 0.57816 0.09400
H 	H 	0.01743 0.15577 0.75386 -0.00600
H 	H 	0.78948 0.02494 0.75761 0.01400
H 	H 	0.33388 0.06036 0.68350 0.03600
H 	H 	0.68069 0.17466 0.69146 0.10700
H 	H 	0.85245 0.18595 0.61140 0.08600
H 	H 	0.64959 0.04439 0.60709 0.08400
H 	H 	0.56689 0.09146 0.69041 0.11500
H 	H 	0.43210 0.15757 0.57832 0.09100
H 	H 	0.32637 0.23215 -0.00023 -0.00100
H 	H 	0.86370 0.26905 -0.00001 -0.01000
H 	H 	0.48413 0.38183 -0.00046 0.06800
H 	H 	0.40079 0.43991 -0.00035 0.08200
H 	H 	0.67350 0.76785 -0.00065 -0.00100
H 	H 	0.13618 0.73096 -0.00033 -0.00400
H 	H 	0.51584 0.61815 0.00045 0.06800
H 	H 	0.59919 0.56009 0.00041 0.08200
H 	H 	0.82657 0.26785 0.49952 0.02700
H 	H 	0.36387 0.23097 0.49976 0.01500
H 	H 	0.98418 0.11816 0.49968 0.09200
H 	H 	0.90085 0.06009 0.49978 0.10000
H 	H 	0.17345 0.73213 0.49901 0.02100
H 	H 	0.63612 0.76904 0.49920 0.02000
H 	H 	0.01575 0.88182 0.49969 0.07800
H 	H 	0.09907 0.93990 0.49987 0.09800
C 	C 	0.48078 0.37978 0.27543 0.09600
C 	C 	0.36449 0.44579 0.27773 0.10100
C 	C 	0.80449 0.44496 0.09325 0.06700
C 	C 	0.24551 0.33500 0.11144 -0.17900
C 	C 	0.28279 0.38948 0.11208 0.16700
C 	C 	0.13001 0.41696 0.10947 -0.19500
C 	C 	0.52047 0.62028 0.27578 0.09800
C 	C 	0.63738 0.55438 0.27851 0.10300
C 	C 	0.19566 0.55503 0.09236 0.06300
C 	C 	0.75507 0.66504 0.11131 -0.17600
C 	C 	0.71790 0.61057 0.11223 0.16800
C 	C 	0.87053 0.58307 0.10913 -0.19800
C 	C 	0.98071 0.12013 0.22408 0.14100
C 	C 	0.86408 0.05419 0.22149 0.09500
C 	C 	0.30440 0.05499 0.40682 0.07300
C 	C 	0.74541 0.16496 0.38791 -0.18700
C 	C 	0.78267 0.11048 0.38734 0.16800
C 	C 	0.62992 0.08299 0.39017 -0.20300
C 	C 	0.01919 0.87991 0.22411 0.04600
C 	C 	0.13616 0.94579 0.22134 0.09400
C 	C 	0.69554 0.94502 0.40683 0.08500
C 	C 	0.25453 0.83506 0.38778 -0.18400
C 	C 	0.21726 0.88953 0.38733 0.16200
C 	C 	0.36999 0.91704 0.39018 -0.20500
C 	C 	0.51914 0.62019 0.72454 0.10700
C 	C 	0.63542 0.55418 0.72222 0.11200
C 	C 	0.19553 0.55505 0.90675 0.17700
C 	C 	0.75441 0.66496 0.88841 -0.10400
C 	C 	0.71715 0.61049 0.88787 0.22300
C 	C 	0.86994 0.58301 0.89049 -0.12700
C 	C 	0.47954 0.37974 0.72418 0.10600
C 	C 	0.36267 0.44565 0.72145 0.11000
C 	C 	0.80429 0.44497 0.90763 0.17700
C 	C 	0.24490 0.33499 0.88853 -0.10600
C 	C 	0.28211 0.38946 0.88772 0.22300
C 	C 	0.12947 0.41696 0.89083 -0.12200
C 	C 	0.02046 0.87960 0.77546 0.06600
C 	C 	0.13684 0.94559 0.77774 0.11000
C 	C 	0.69541 0.94491 0.59244 0.08500
C 	C 	0.25480 0.83491 0.61068 -0.18800
C 	C 	0.21764 0.88937 0.61168 0.16800
C 	C 	0.37031 0.91686 0.60879 -0.20700
C 	C 	0.97963 0.12037 0.77538 0.15200
C 	C 	0.86356 0.05432 0.77755 0.11000
C 	C 	0.30450 0.05509 0.59243 0.07300
C 	C 	0.74519 0.16505 0.61081 -0.19000
C 	C 	0.78235 0.11058 0.61169 0.17300
C 	C 	0.62966 0.08311 0.60882 -0.20600
C 	C 	0.20322 0.23087 -0.00004 0.06700
C 	C 	0.97007 0.24982 0.00002 0.09400
C 	C 	0.15047 0.32124 0.00011 0.09800
C 	C 	0.03432 0.40442 0.00027 0.10400
C 	C 	0.00121 0.35113 0.00032 -0.33400
C 	C 	0.37431 0.40155 -0.00028 -0.27500
C 	C 	0.79665 0.76914 -0.00048 0.07300
C 	C 	0.02980 0.75019 -0.00037 0.05000
C 	C 	0.84946 0.67876 -0.00032 0.08500
C 	C 	0.96566 0.59558 -0.00034 0.11700
C 	C 	0.99874 0.64888 -0.00048 -0.24600
C 	C 	0.62566 0.59844 0.00027 -0.27500
C 	C 	0.70342 0.26914 0.49945 0.09700
C 	C 	0.47025 0.25020 0.49961 0.09400
C 	C 	0.65059 0.17876 0.49930 0.15900
C 	C 	0.53437 0.09559 0.49942 0.17400
C 	C 	0.50130 0.14889 0.49926 -0.19300
C 	C 	0.87437 0.09844 0.49963 -0.19700
C 	C 	0.29660 0.73085 0.49922 0.09600
C 	C 	0.52975 0.74981 0.49923 0.09500
C 	C 	0.34938 0.82123 0.49911 0.15800
C 	C 	0.46557 0.90440 0.49938 0.17900
C 	C 	0.49866 0.85111 0.49911 -0.19500
C 	C 	0.12556 0.90154 0.49966 -0.19400
N 	N 	0.53425 0.40502 0.36700 -0.20900
N 	N 	0.46199 0.44628 0.36878 -0.20400
N 	N 	0.37142 0.40410 0.21756 -0.15100
N 	N 	0.67643 0.46692 0.05862 -0.13000
N 	N 	0.46709 0.59506 0.36737 -0.20900
N 	N 	0.53967 0.55386 0.36943 -0.20300
N 	N 	0.63005 0.59601 0.21811 -0.15100
N 	N 	0.32364 0.53307 0.05760 -0.13100
N 	N 	0.03412 0.09493 0.13245 -0.25200
N 	N 	0.96172 0.05370 0.13051 -0.21600
N 	N 	0.87117 0.09584 0.28180 -0.15800
N 	N 	0.17643 0.03303 0.44165 -0.10200
N 	N 	0.96597 0.90509 0.13237 -0.19900
N 	N 	0.03859 0.94628 0.13032 -0.23300
N 	N 	0.12878 0.90418 0.28180 -0.14500
N 	N 	0.82352 0.96697 0.44168 -0.08100
N 	N 	0.46571 0.59497 0.63292 -0.20800
N 	N 	0.53797 0.55371 0.63114 -0.20300
N 	N 	0.62846 0.59586 0.78242 -0.15200
N 	N 	0.32357 0.53308 0.94139 -0.04600
N 	N 	0.53288 0.40495 0.63255 -0.20900
N 	N 	0.46035 0.44615 0.63050 -0.20400
N 	N 	0.37000 0.40403 0.78187 -0.15200
N 	N 	0.67632 0.46693 0.94242 -0.04600
N 	N 	0.96707 0.90485 0.86701 -0.16100
N 	N 	0.03943 0.94609 0.86883 -0.18900
N 	N 	0.12970 0.90392 0.71753 -0.14500
N 	N 	0.82343 0.96689 0.55789 -0.08000
N 	N 	0.03323 0.09511 0.86684 -0.20800
N 	N 	0.96111 0.05383 0.86857 -0.17500
N 	N 	0.87043 0.09602 0.71745 -0.15700
N 	N 	0.17649 0.03310 0.55786 -0.10100
N 	N 	0.12059 0.19016 -0.00009 -0.22800
N 	N 	0.97544 0.20228 -0.00010 -0.11100
N 	N 	0.11109 0.26957 0.00010 -0.16800
N 	N 	0.88910 0.43107 0.00039 -0.19900
N 	N 	0.87928 0.80985 -0.00034 -0.20900
N 	N 	0.02443 0.79772 -0.00031 -0.12800
N 	N 	0.88880 0.73043 -0.00045 -0.14300
N 	N 	0.11089 0.56894 -0.00041 -0.21700
N 	N 	0.62080 0.30985 0.49971 -0.20000
N 	N 	0.47565 0.29773 0.49987 -0.10000
N 	N 	0.61125 0.23044 0.49930 -0.15200
N 	N 	0.38914 0.06895 0.49954 -0.15400
N 	N 	0.37925 0.69014 0.49967 -0.20000
N 	N 	0.52439 0.70227 0.49962 -0.09800
N 	N 	0.38874 0.76956 0.49900 -0.15200
N 	N 	0.61078 0.93105 0.49953 -0.15300
Cl	Cl	0.88904 0.37131 0.36599 -0.44000
Cl	Cl	0.24501 0.53250 0.49901 -0.59000
Cl	Cl	0.11256 0.62912 0.36408 -0.45900
Cl	Cl	0.38819 0.12876 0.13442 -0.50200
Cl	Cl	0.61204 0.87134 0.13458 -0.49500
Cl	Cl	0.11113 0.62878 0.63405 -0.44600
Cl	Cl	0.75513 0.46749 0.50097 -0.58000
Cl	Cl	0.88716 0.37079 0.63597 -0.42900
Cl	Cl	0.74536 0.96754 0.99829 -0.46000
Cl	Cl	0.61185 0.87091 0.86452 -0.37700
Cl	Cl	0.25538 0.03256 0.99854 -0.50000
Cl	Cl	0.38808 0.12928 0.86441 -0.38100
