data_crystal

_cell_length_a 17.38490
_cell_length_b 21.03310
_cell_length_c 23.40900
_cell_angle_alpha 90.00000
_cell_angle_beta  91.97800
_cell_angle_gamma 90.00000

_symmetry_space_group_name_	'P 1'
_symmetry_space_group_name_H-M	'P 1'

loop_
_symmetry_equiv_pos_as_xyz
  x,y,z

loop_
_atom_site_label
_atom_site_type_symbol
_atom_site_fract_x
_atom_site_fract_y
_atom_site_fract_z
_atom_site_charge
Pr	Pr	0.57184 0.83353 0.90633 2.04500
Pr	Pr	0.45032 0.82764 0.07550 2.04500
Pr	Pr	0.93508 0.99691 0.58503 2.07700
Pr	Pr	0.76965 0.08619 0.75176 1.99800
Cu	Cu	0.23025 0.83495 0.72557 0.82300
Cu	Cu	0.27484 0.00191 0.76840 0.82900
Cu	Cu	0.28887 0.66984 0.76000 0.82600
Cu	Cu	0.49021 0.11668 0.50643 0.86400
Cl	Cl	0.47620 0.22100 0.50180 -0.50000
O 	O 	0.58410 0.71600 0.53020 -0.09700
O 	O 	0.61530 0.88130 0.74380 -0.32200
O 	O 	0.53390 0.87620 0.81470 -0.49600
O 	O 	0.59530 0.73160 0.96130 -0.47900
O 	O 	0.53690 0.74770 0.04310 -0.52100
O 	O 	0.92670 0.90640 0.64970 -0.46600
O 	O 	0.84530 0.87860 0.71630 -0.29400
O 	O 	0.44470 0.78450 0.89780 -0.49300
O 	O 	0.39150 0.79890 0.98240 -0.55700
O 	O 	0.97780 0.03840 0.68010 -0.51200
O 	O 	0.89510 0.04000 0.74960 -0.58700
O 	O 	0.42740 0.92910 0.02340 -0.50100
O 	O 	0.47940 0.91240 0.93970 -0.51600
O 	O 	0.43590 0.91240 0.14470 -0.54600
O 	O 	0.64910 0.06310 0.79300 -0.63500
O 	O 	0.87750 0.02580 0.49130 -0.51100
O 	O 	0.06590 0.95380 0.59140 -0.47000
O 	O 	0.59280 0.74470 0.83990 -0.51300
O 	O 	0.84320 0.16880 0.70360 -0.54300
O 	O 	0.63680 0.86020 0.99710 -0.56100
O 	O 	0.57850 0.87630 0.07870 -0.48200
O 	O 	0.50480 0.78270 0.16400 -0.48700
O 	O 	0.41460 0.78190 0.22740 -0.36600
O 	O 	0.92120 0.89850 0.52630 -0.46600
O 	O 	0.02060 0.08020 0.55430 -0.52400
O 	O 	0.74800 0.05210 0.65690 -0.57100
O 	O 	0.79840 0.98000 0.59730 -0.50300
N 	N 	0.34710 0.85580 0.70250 -0.23400
N 	N 	0.22480 0.81320 0.63970 -0.23900
N 	N 	0.11660 0.86210 0.75070 -0.22900
N 	N 	0.23940 0.81870 0.81120 -0.26300
N 	N 	0.16490 0.02090 0.79160 -0.25600
N 	N 	0.28520 0.97690 0.85220 -0.24500
N 	N 	0.38360 0.03330 0.74700 -0.24700
N 	N 	0.26910 0.98320 0.68340 -0.25200
N 	N 	0.39900 0.69480 0.73780 -0.25100
N 	N 	0.28100 0.65260 0.67230 -0.24900
N 	N 	0.17930 0.68950 0.78190 -0.24800
N 	N 	0.29380 0.64340 0.84740 -0.23500
N 	N 	0.55980 0.05730 0.53660 -0.26700
C 	C 	0.55130 0.87440 0.76210 0.38900
C 	C 	0.48360 0.86360 0.72040 -0.14300
C 	C 	0.40750 0.86740 0.73740 0.08400
H 	H 	0.39860 0.87870 0.77500 -0.01800
C 	C 	0.49450 0.84950 0.66390 0.06500
H 	H 	0.54400 0.84830 0.65020 0.01300
C 	C 	0.43320 0.83720 0.62800 -0.13000
H 	H 	0.44120 0.82540 0.59040 0.06000
C 	C 	0.35720 0.84210 0.64750 0.05100
C 	C 	0.28960 0.82880 0.61230 0.04900
C 	C 	0.29010 0.83110 0.55210 -0.12300
H 	H 	0.33480 0.84280 0.53410 0.05600
C 	C 	0.22580 0.81630 0.52010 0.07600
H 	H 	0.22620 0.81790 0.48040 -0.00000
C 	C 	0.16250 0.79880 0.60720 0.10500
H 	H 	0.11790 0.78810 0.62580 -0.00300
C 	C 	0.15920 0.79880 0.54760 -0.17400
C 	C 	0.59170 0.72750 0.01400 0.43900
C 	C 	0.91270 0.88750 0.69730 0.39600
C 	C 	0.97930 0.87390 0.73690 -0.16300
C 	C 	0.05390 0.87330 0.71800 0.10300
H 	H 	0.06070 0.88120 0.67940 0.00400
C 	C 	0.97110 0.85970 0.79590 0.07600
H 	H 	0.92230 0.85690 0.81070 0.00300
C 	C 	0.03370 0.85020 0.83050 -0.13000
H 	H 	0.02850 0.84400 0.86950 0.08000
C 	C 	0.10620 0.84970 0.80700 0.05200
C 	C 	0.17780 0.83440 0.84060 0.06400
C 	C 	0.17920 0.83610 0.90200 -0.15800
H 	H 	0.13570 0.84650 0.92200 0.09400
C 	C 	0.24750 0.82170 0.92960 0.11800
H 	H 	0.25060 0.82280 0.96930 -0.02000
C 	C 	0.30260 0.80290 0.84060 0.10600
H 	H 	0.34430 0.78900 0.82010 -0.03700
C 	C 	0.31210 0.80550 0.90010 -0.19900
C 	C 	0.38910 0.79350 0.92960 0.46700
C 	C 	0.96120 0.03700 0.73120 0.49700
C 	C 	0.02750 0.02940 0.77430 -0.20900
C 	C 	0.01630 0.01690 0.83200 0.11300
H 	H 	0.96680 0.01550 0.84580 -0.02700
C 	C 	0.10260 0.03030 0.75630 0.10100
H 	H 	0.11070 0.03770 0.71790 -0.02800
C 	C 	0.07800 0.00680 0.86760 -0.16900
H 	H 	0.07090 0.99950 0.90620 0.08400
C 	C 	0.15190 0.00740 0.84690 0.06400
C 	C 	0.22320 0.99220 0.88240 0.05900
C 	C 	0.22560 0.99210 0.94270 -0.14700
H 	H 	0.18200 0.00250 0.96260 0.06600
C 	C 	0.29170 0.97670 0.97100 0.10700
H 	H 	0.29440 0.97810 0.01080 -0.02800
C 	C 	0.34940 0.96070 0.88220 0.11800
H 	H 	0.39260 0.94980 0.86190 -0.01400
C 	C 	0.35540 0.95910 0.94160 -0.19500
C 	C 	0.42630 0.93250 0.97110 0.45100
C 	C 	0.41790 0.93260 0.19240 0.53400
C 	C 	0.47990 0.95140 0.23410 -0.24800
C 	C 	0.44310 0.04800 0.78180 0.13600
H 	H 	0.43290 0.05860 0.81930 -0.01500
C 	C 	0.46580 0.96890 0.28990 0.13600
H 	H 	0.41570 0.97070 0.30240 -0.03600
C 	C 	0.52740 0.98370 0.32650 -0.17200
H 	H 	0.51850 0.99370 0.36440 0.08100
C 	C 	0.39990 0.01630 0.69200 0.06800
C 	C 	0.33210 0.00230 0.65580 0.03700
C 	C 	0.33080 0.00690 0.59570 -0.12500
H 	H 	0.37480 0.01860 0.57680 0.05400
C 	C 	0.26350 0.99360 0.56540 0.07500
H 	H 	0.26150 0.99680 0.52580 0.01700
C 	C 	0.20550 0.97020 0.65180 0.07800
H 	H 	0.16200 0.95660 0.67040 -0.02200
C 	C 	0.20080 0.97600 0.59310 -0.15900
C 	C 	0.87660 0.03410 0.43900 0.43300
C 	C 	0.59900 0.70650 0.80070 0.49000
C 	C 	0.53540 0.70000 0.75550 -0.26800
C 	C 	0.45980 0.70430 0.77260 0.14600
H 	H 	0.45130 0.71430 0.81050 -0.01900
C 	C 	0.54660 0.68740 0.69960 0.18900
H 	H 	0.59650 0.68390 0.68680 -0.09900
C 	C 	0.48690 0.67990 0.66240 -0.21900
H 	H 	0.49570 0.67370 0.62380 0.11100
C 	C 	0.41390 0.68140 0.68060 0.08400
C 	C 	0.34470 0.66920 0.64500 0.05200
C 	C 	0.34530 0.67120 0.58460 -0.15600
H 	H 	0.39040 0.68090 0.56610 0.09200
C 	C 	0.27850 0.65880 0.55350 0.11600
H 	H 	0.27790 0.66140 0.51380 -0.01900
C 	C 	0.21750 0.63910 0.63990 0.10400
H 	H 	0.17360 0.62650 0.65850 -0.02600
C 	C 	0.21320 0.64280 0.58070 -0.20300
C 	C 	0.63780 0.86600 0.04960 0.46500
C 	C 	0.48160 0.78550 0.21380 0.39600
C 	C 	0.54410 0.79590 0.25990 -0.14100
C 	C 	0.12060 0.70280 0.74470 0.06600
H 	H 	0.13190 0.71150 0.70700 -0.01800
C 	C 	0.52840 0.80700 0.31740 0.05900
H 	H 	0.47810 0.80480 0.32950 0.00700
C 	C 	0.58650 0.82100 0.35530 -0.11300
H 	H 	0.57620 0.82900 0.39340 0.05000
C 	C 	0.16320 0.67680 0.83670 0.04600
C 	C 	0.22850 0.66080 0.87350 0.05700
C 	C 	0.22700 0.66470 0.93410 -0.14800
H 	H 	0.18290 0.67810 0.95200 0.08000
C 	C 	0.29160 0.64820 0.96530 0.09800
H 	H 	0.29140 0.65050 0.00500 -0.00100
C 	C 	0.35560 0.62780 0.88040 0.11500
H 	H 	0.40010 0.61580 0.86230 -0.01100
C 	C 	0.35760 0.62840 0.93920 -0.18600
C 	C 	0.92560 0.89750 0.47290 0.44900
C 	C 	0.74430 0.01240 0.61560 0.45500
C 	C 	0.66860 0.00720 0.58370 -0.20800
C 	C 	0.62570 0.06090 0.57000 0.11600
H 	H 	0.64220 0.10020 0.58380 -0.03200
C 	C 	0.53490 0.00210 0.51680 0.04600
C 	C 	0.42850 0.04770 0.46960 -0.27200
C 	C 	0.64280 0.95000 0.56260 0.12700
H 	H 	0.66980 0.91230 0.56890 -0.01600
Pr	Pr	0.92816 0.33353 0.59367 2.04700
Pr	Pr	0.04968 0.32764 0.42450 2.04600
Pr	Pr	0.56492 0.49691 0.91497 2.08000
Pr	Pr	0.73035 0.58619 0.74824 1.99800
Cu	Cu	0.26975 0.33495 0.77443 0.82300
Cu	Cu	0.22516 0.50191 0.73160 0.83000
Cu	Cu	0.21113 0.16984 0.74000 0.82600
Cu	Cu	0.00979 0.61668 0.99357 0.86400
Cl	Cl	0.02380 0.72100 0.99820 -0.49900
O 	O 	0.91590 0.21600 0.96980 -0.09800
O 	O 	0.88470 0.38130 0.75620 -0.32200
O 	O 	0.96610 0.37620 0.68530 -0.49600
O 	O 	0.90470 0.23160 0.53870 -0.47900
O 	O 	0.96310 0.24770 0.45690 -0.52100
O 	O 	0.57330 0.40640 0.85030 -0.46500
O 	O 	0.65470 0.37860 0.78370 -0.29400
O 	O 	0.05530 0.28450 0.60220 -0.49400
O 	O 	0.10850 0.29890 0.51760 -0.55800
O 	O 	0.52220 0.53840 0.81990 -0.51400
O 	O 	0.60490 0.54000 0.75040 -0.58700
O 	O 	0.07260 0.42910 0.47660 -0.50000
O 	O 	0.02060 0.41240 0.56030 -0.51700
O 	O 	0.06410 0.41240 0.35530 -0.54600
O 	O 	0.85090 0.56310 0.70700 -0.63500
O 	O 	0.62250 0.52580 0.00870 -0.51300
O 	O 	0.43410 0.45380 0.90860 -0.47200
O 	O 	0.90720 0.24470 0.66010 -0.51200
O 	O 	0.65680 0.66880 0.79640 -0.54300
O 	O 	0.86320 0.36020 0.50290 -0.56100
O 	O 	0.92150 0.37630 0.42130 -0.48100
O 	O 	0.99520 0.28270 0.33600 -0.48400
O 	O 	0.08540 0.28190 0.27260 -0.36500
O 	O 	0.57880 0.39850 0.97370 -0.46600
O 	O 	0.47940 0.58020 0.94570 -0.52200
O 	O 	0.75200 0.55210 0.84310 -0.57100
O 	O 	0.70160 0.48000 0.90270 -0.50100
N 	N 	0.15290 0.35580 0.79750 -0.23400
N 	N 	0.27520 0.31320 0.86030 -0.23900
N 	N 	0.38340 0.36210 0.74930 -0.22900
N 	N 	0.26060 0.31870 0.68880 -0.26300
N 	N 	0.33510 0.52090 0.70840 -0.25500
N 	N 	0.21480 0.47690 0.64780 -0.24600
N 	N 	0.11640 0.53330 0.75300 -0.24600
N 	N 	0.23090 0.48320 0.81660 -0.25400
N 	N 	0.10100 0.19480 0.76220 -0.25100
N 	N 	0.21900 0.15260 0.82770 -0.24900
N 	N 	0.32070 0.18950 0.71810 -0.24800
N 	N 	0.20620 0.14340 0.65260 -0.23500
N 	N 	0.94020 0.55730 0.96340 -0.26700
C 	C 	0.94870 0.37440 0.73790 0.39000
C 	C 	0.01640 0.36360 0.77960 -0.14300
C 	C 	0.09250 0.36740 0.76260 0.08400
H 	H 	0.10140 0.37870 0.72500 -0.01800
C 	C 	0.00550 0.34950 0.83610 0.06200
H 	H 	0.95600 0.34830 0.84980 0.01500
C 	C 	0.06680 0.33720 0.87200 -0.12800
H 	H 	0.05880 0.32540 0.90960 0.05900
C 	C 	0.14280 0.34210 0.85250 0.05000
C 	C 	0.21040 0.32880 0.88770 0.04900
C 	C 	0.20990 0.33110 0.94790 -0.12200
H 	H 	0.16520 0.34280 0.96590 0.05600
C 	C 	0.27420 0.31630 0.97990 0.07500
H 	H 	0.27380 0.31790 0.01960 -0.00000
C 	C 	0.33750 0.29880 0.89280 0.10500
H 	H 	0.38210 0.28810 0.87420 -0.00300
C 	C 	0.34080 0.29880 0.95240 -0.17400
C 	C 	0.90830 0.22750 0.48600 0.44000
C 	C 	0.58730 0.38750 0.80270 0.39500
C 	C 	0.52070 0.37390 0.76310 -0.16000
C 	C 	0.44610 0.37330 0.78200 0.09800
H 	H 	0.43930 0.38120 0.82060 0.00500
C 	C 	0.52890 0.35970 0.70410 0.08100
H 	H 	0.57770 0.35690 0.68930 0.00200
C 	C 	0.46630 0.35020 0.66950 -0.13600
H 	H 	0.47150 0.34400 0.63050 0.08200
C 	C 	0.39380 0.34970 0.69300 0.05300
C 	C 	0.32220 0.33440 0.65940 0.06300
C 	C 	0.32080 0.33610 0.59800 -0.15700
H 	H 	0.36430 0.34650 0.57800 0.09300
C 	C 	0.25250 0.32170 0.57040 0.11800
H 	H 	0.24940 0.32280 0.53070 -0.02000
C 	C 	0.19740 0.30290 0.65940 0.10600
H 	H 	0.15570 0.28900 0.67990 -0.03700
C 	C 	0.18790 0.30550 0.59990 -0.19900
C 	C 	0.11090 0.29350 0.57040 0.46700
C 	C 	0.53880 0.53700 0.76880 0.49300
C 	C 	0.47250 0.52940 0.72570 -0.20500
C 	C 	0.48370 0.51690 0.66800 0.11500
H 	H 	0.53320 0.51550 0.65420 -0.03000
C 	C 	0.39740 0.53030 0.74370 0.10000
H 	H 	0.38930 0.53770 0.78210 -0.02600
C 	C 	0.42200 0.50680 0.63240 -0.16100
H 	H 	0.42910 0.49950 0.59380 0.07800
C 	C 	0.34810 0.50740 0.65310 0.06300
C 	C 	0.27680 0.49220 0.61760 0.05900
C 	C 	0.27440 0.49210 0.55730 -0.15600
H 	H 	0.31800 0.50250 0.53740 0.07200
C 	C 	0.20830 0.47670 0.52900 0.10900
H 	H 	0.20560 0.47810 0.48920 -0.02900
C 	C 	0.15060 0.46070 0.61780 0.11800
H 	H 	0.10740 0.44980 0.63810 -0.01400
C 	C 	0.14460 0.45910 0.55840 -0.19600
C 	C 	0.07370 0.43250 0.52890 0.45000
C 	C 	0.08210 0.43260 0.30760 0.53400
C 	C 	0.02010 0.45140 0.26590 -0.24900
C 	C 	0.05690 0.54800 0.71820 0.13700
H 	H 	0.06710 0.55860 0.68070 -0.01500
C 	C 	0.03420 0.46890 0.21010 0.13600
H 	H 	0.08430 0.47070 0.19760 -0.03600
C 	C 	0.97260 0.48370 0.17350 -0.17200
H 	H 	0.98150 0.49370 0.13560 0.08100
C 	C 	0.10010 0.51630 0.80800 0.06800
C 	C 	0.16790 0.50230 0.84420 0.03800
C 	C 	0.16920 0.50690 0.90430 -0.12100
H 	H 	0.12520 0.51860 0.92320 0.05300
C 	C 	0.23650 0.49360 0.93460 0.07100
H 	H 	0.23850 0.49680 0.97420 0.01700
C 	C 	0.29450 0.47020 0.84820 0.07700
H 	H 	0.33800 0.45660 0.82960 -0.02200
C 	C 	0.29920 0.47600 0.90690 -0.15900
C 	C 	0.62340 0.53410 0.06100 0.43300
C 	C 	0.90100 0.20650 0.69930 0.49000
C 	C 	0.96460 0.20000 0.74450 -0.26700
C 	C 	0.04020 0.20430 0.72740 0.14300
H 	H 	0.04870 0.21430 0.68950 -0.01800
C 	C 	0.95340 0.18740 0.80040 0.19400
H 	H 	0.90350 0.18390 0.81320 -0.10000
C 	C 	0.01310 0.17990 0.83760 -0.22500
H 	H 	0.00430 0.17370 0.87620 0.11200
C 	C 	0.08610 0.18140 0.81940 0.08500
C 	C 	0.15530 0.16920 0.85500 0.05100
C 	C 	0.15470 0.17120 0.91540 -0.15500
H 	H 	0.10960 0.18090 0.93390 0.09100
C 	C 	0.22150 0.15880 0.94650 0.11500
H 	H 	0.22210 0.16140 0.98620 -0.01900
C 	C 	0.28250 0.13910 0.86010 0.10400
H 	H 	0.32640 0.12650 0.84150 -0.02600
C 	C 	0.28680 0.14280 0.91930 -0.20300
C 	C 	0.86220 0.36600 0.45040 0.46600
C 	C 	0.01840 0.28550 0.28620 0.39200
C 	C 	0.95590 0.29590 0.24010 -0.14000
C 	C 	0.37940 0.20280 0.75530 0.06700
H 	H 	0.36810 0.21150 0.79300 -0.01900
C 	C 	0.97160 0.30700 0.18260 0.06300
H 	H 	0.02190 0.30480 0.17050 0.00400
C 	C 	0.91350 0.32100 0.14470 -0.11500
H 	H 	0.92380 0.32900 0.10660 0.05100
C 	C 	0.33680 0.17680 0.66330 0.04600
C 	C 	0.27150 0.16080 0.62650 0.05700
C 	C 	0.27300 0.16470 0.56590 -0.14700
H 	H 	0.31710 0.17810 0.54800 0.08000
C 	C 	0.20840 0.14820 0.53470 0.09700
H 	H 	0.20860 0.15050 0.49500 0.00000
C 	C 	0.14440 0.12780 0.61960 0.11500
H 	H 	0.09990 0.11580 0.63770 -0.01100
C 	C 	0.14240 0.12840 0.56080 -0.18600
C 	C 	0.57440 0.39750 0.02710 0.44900
C 	C 	0.75570 0.51240 0.88440 0.45200
C 	C 	0.83140 0.50720 0.91630 -0.20900
C 	C 	0.87430 0.56090 0.93000 0.11600
H 	H 	0.85780 0.60020 0.91620 -0.03200
C 	C 	0.96510 0.50210 0.98320 0.04500
C 	C 	0.07150 0.54770 0.03040 -0.27200
C 	C 	0.85720 0.45000 0.93740 0.12900
H 	H 	0.83020 0.41230 0.93110 -0.01700
Pr	Pr	0.42816 0.16647 0.09367 2.04600
Pr	Pr	0.54968 0.17236 0.92450 2.04600
Pr	Pr	0.06492 0.00309 0.41497 2.07800
Pr	Pr	0.23035 0.91381 0.24824 1.99900
Cu	Cu	0.76975 0.16505 0.27443 0.82300
Cu	Cu	0.72516 0.99809 0.23160 0.82900
Cu	Cu	0.71113 0.33016 0.24000 0.82600
Cu	Cu	0.50979 0.88332 0.49357 0.86400
Cl	Cl	0.52380 0.77900 0.49820 -0.50000
O 	O 	0.41590 0.28400 0.46980 -0.09700
O 	O 	0.38470 0.11870 0.25620 -0.32200
O 	O 	0.46610 0.12380 0.18530 -0.49600
O 	O 	0.40470 0.26840 0.03870 -0.47900
O 	O 	0.46310 0.25230 0.95690 -0.52100
O 	O 	0.07330 0.09360 0.35030 -0.46600
O 	O 	0.15470 0.12140 0.28370 -0.29400
O 	O 	0.55530 0.21550 0.10220 -0.49300
O 	O 	0.60850 0.20110 0.01760 -0.55700
O 	O 	0.02220 0.96160 0.31990 -0.51200
O 	O 	0.10490 0.96000 0.25040 -0.58700
O 	O 	0.57260 0.07090 0.97660 -0.50100
O 	O 	0.52060 0.08760 0.06030 -0.51600
O 	O 	0.56410 0.08760 0.85530 -0.54600
O 	O 	0.35090 0.93690 0.20700 -0.63500
O 	O 	0.12250 0.97420 0.50870 -0.51100
O 	O 	0.93410 0.04620 0.40860 -0.47000
O 	O 	0.40720 0.25530 0.16010 -0.51300
O 	O 	0.15680 0.83120 0.29640 -0.54300
O 	O 	0.36320 0.13980 0.00290 -0.56100
O 	O 	0.42150 0.12370 0.92130 -0.48200
O 	O 	0.49520 0.21730 0.83600 -0.48700
O 	O 	0.58540 0.21810 0.77260 -0.36600
O 	O 	0.07880 0.10150 0.47370 -0.46600
O 	O 	0.97940 0.91980 0.44570 -0.52400
O 	O 	0.25200 0.94790 0.34310 -0.57100
O 	O 	0.20160 0.02000 0.40270 -0.50300
N 	N 	0.65290 0.14420 0.29750 -0.23400
N 	N 	0.77520 0.18680 0.36030 -0.23900
N 	N 	0.88340 0.13790 0.24930 -0.22900
N 	N 	0.76060 0.18130 0.18880 -0.26300
N 	N 	0.83510 0.97910 0.20840 -0.25600
N 	N 	0.71480 0.02310 0.14780 -0.24500
N 	N 	0.61640 0.96670 0.25300 -0.24700
N 	N 	0.73090 0.01680 0.31660 -0.25200
N 	N 	0.60100 0.30520 0.26220 -0.25100
N 	N 	0.71900 0.34740 0.32770 -0.24900
N 	N 	0.82070 0.31050 0.21810 -0.24800
N 	N 	0.70620 0.35660 0.15260 -0.23500
N 	N 	0.44020 0.94270 0.46340 -0.26700
C 	C 	0.44870 0.12560 0.23790 0.38900
C 	C 	0.51640 0.13640 0.27960 -0.14300
C 	C 	0.59250 0.13260 0.26260 0.08400
H 	H 	0.60140 0.12130 0.22500 -0.01800
C 	C 	0.50550 0.15050 0.33610 0.06500
H 	H 	0.45600 0.15170 0.34980 0.01300
C 	C 	0.56680 0.16280 0.37200 -0.13000
H 	H 	0.55880 0.17460 0.40960 0.06000
C 	C 	0.64280 0.15790 0.35250 0.05100
C 	C 	0.71040 0.17120 0.38770 0.04900
C 	C 	0.70990 0.16890 0.44790 -0.12300
H 	H 	0.66520 0.15720 0.46590 0.05600
C 	C 	0.77420 0.18370 0.47990 0.07600
H 	H 	0.77380 0.18210 0.51960 -0.00000
C 	C 	0.83750 0.20120 0.39280 0.10500
H 	H 	0.88210 0.21190 0.37420 -0.00300
C 	C 	0.84080 0.20120 0.45240 -0.17400
C 	C 	0.40830 0.27250 0.98600 0.43900
C 	C 	0.08730 0.11250 0.30270 0.39600
C 	C 	0.02070 0.12610 0.26310 -0.16300
C 	C 	0.94610 0.12670 0.28200 0.10300
H 	H 	0.93930 0.11880 0.32060 0.00400
C 	C 	0.02890 0.14030 0.20410 0.07600
H 	H 	0.07770 0.14310 0.18930 0.00300
C 	C 	0.96630 0.14980 0.16950 -0.13000
H 	H 	0.97150 0.15600 0.13050 0.08000
C 	C 	0.89380 0.15030 0.19300 0.05200
C 	C 	0.82220 0.16560 0.15940 0.06400
C 	C 	0.82080 0.16390 0.09800 -0.15800
H 	H 	0.86430 0.15350 0.07800 0.09400
C 	C 	0.75250 0.17830 0.07040 0.11800
H 	H 	0.74940 0.17720 0.03070 -0.02000
C 	C 	0.69740 0.19710 0.15940 0.10600
H 	H 	0.65570 0.21100 0.17990 -0.03700
C 	C 	0.68790 0.19450 0.09990 -0.19900
C 	C 	0.61090 0.20650 0.07040 0.46700
C 	C 	0.03880 0.96300 0.26880 0.49700
C 	C 	0.97250 0.97060 0.22570 -0.20900
C 	C 	0.98370 0.98310 0.16800 0.11300
H 	H 	0.03320 0.98450 0.15420 -0.02700
C 	C 	0.89740 0.96970 0.24370 0.10100
H 	H 	0.88930 0.96230 0.28210 -0.02800
C 	C 	0.92200 0.99320 0.13240 -0.16900
H 	H 	0.92910 0.00050 0.09380 0.08400
C 	C 	0.84810 0.99260 0.15310 0.06400
C 	C 	0.77680 0.00780 0.11760 0.05900
C 	C 	0.77440 0.00790 0.05730 -0.14700
H 	H 	0.81800 0.99750 0.03740 0.06600
C 	C 	0.70830 0.02330 0.02900 0.10700
H 	H 	0.70560 0.02190 0.98920 -0.02800
C 	C 	0.65060 0.03930 0.11780 0.11800
H 	H 	0.60740 0.05020 0.13810 -0.01400
C 	C 	0.64460 0.04090 0.05840 -0.19500
C 	C 	0.57370 0.06750 0.02890 0.45100
C 	C 	0.58210 0.06740 0.80760 0.53400
C 	C 	0.52010 0.04860 0.76590 -0.24800
C 	C 	0.55690 0.95200 0.21820 0.13600
H 	H 	0.56710 0.94140 0.18070 -0.01500
C 	C 	0.53420 0.03110 0.71010 0.13600
H 	H 	0.58430 0.02930 0.69760 -0.03600
C 	C 	0.47260 0.01630 0.67350 -0.17200
H 	H 	0.48150 0.00630 0.63560 0.08100
C 	C 	0.60010 0.98370 0.30800 0.06800
C 	C 	0.66790 0.99770 0.34420 0.03700
C 	C 	0.66920 0.99310 0.40430 -0.12500
H 	H 	0.62520 0.98140 0.42320 0.05400
C 	C 	0.73650 0.00640 0.43460 0.07500
H 	H 	0.73850 0.00320 0.47420 0.01700
C 	C 	0.79450 0.02980 0.34820 0.07800
H 	H 	0.83800 0.04340 0.32960 -0.02200
C 	C 	0.79920 0.02400 0.40690 -0.15900
C 	C 	0.12340 0.96590 0.56100 0.43300
C 	C 	0.40100 0.29350 0.19930 0.49000
C 	C 	0.46460 0.30000 0.24450 -0.26800
C 	C 	0.54020 0.29570 0.22740 0.14600
H 	H 	0.54870 0.28570 0.18950 -0.01900
C 	C 	0.45340 0.31260 0.30040 0.18900
H 	H 	0.40350 0.31610 0.31320 -0.09900
C 	C 	0.51310 0.32010 0.33760 -0.21900
H 	H 	0.50430 0.32630 0.37620 0.11100
C 	C 	0.58610 0.31860 0.31940 0.08400
C 	C 	0.65530 0.33080 0.35500 0.05200
C 	C 	0.65470 0.32880 0.41540 -0.15600
H 	H 	0.60960 0.31910 0.43390 0.09200
C 	C 	0.72150 0.34120 0.44650 0.11600
H 	H 	0.72210 0.33860 0.48620 -0.01900
C 	C 	0.78250 0.36090 0.36010 0.10400
H 	H 	0.82640 0.37350 0.34150 -0.02600
C 	C 	0.78680 0.35720 0.41930 -0.20300
C 	C 	0.36220 0.13400 0.95040 0.46500
C 	C 	0.51840 0.21450 0.78620 0.39600
C 	C 	0.45590 0.20410 0.74010 -0.14100
C 	C 	0.87940 0.29720 0.25530 0.06600
H 	H 	0.86810 0.28850 0.29300 -0.01800
C 	C 	0.47160 0.19300 0.68260 0.05900
H 	H 	0.52190 0.19520 0.67050 0.00700
C 	C 	0.41350 0.17900 0.64470 -0.11300
H 	H 	0.42380 0.17100 0.60660 0.05000
C 	C 	0.83680 0.32320 0.16330 0.04600
C 	C 	0.77150 0.33920 0.12650 0.05700
C 	C 	0.77300 0.33530 0.06590 -0.14800
H 	H 	0.81710 0.32190 0.04800 0.08000
C 	C 	0.70840 0.35180 0.03470 0.09800
H 	H 	0.70860 0.34950 0.99500 -0.00100
C 	C 	0.64440 0.37220 0.11960 0.11500
H 	H 	0.59990 0.38420 0.13770 -0.01100
C 	C 	0.64240 0.37160 0.06080 -0.18600
C 	C 	0.07440 0.10250 0.52710 0.44900
C 	C 	0.25570 0.98760 0.38440 0.45500
C 	C 	0.33140 0.99280 0.41630 -0.20800
C 	C 	0.37430 0.93910 0.43000 0.11600
H 	H 	0.35780 0.89980 0.41620 -0.03200
C 	C 	0.46510 0.99790 0.48320 0.04600
C 	C 	0.57150 0.95230 0.53040 -0.27200
C 	C 	0.35720 0.05000 0.43740 0.12700
H 	H 	0.33020 0.08770 0.43110 -0.01600
Pr	Pr	0.07184 0.66647 0.40633 2.04700
Pr	Pr	0.95032 0.67236 0.57550 2.04600
Pr	Pr	0.43508 0.50309 0.08503 2.08000
Pr	Pr	0.26965 0.41381 0.25176 1.99800
Cu	Cu	0.73025 0.66505 0.22557 0.82300
Cu	Cu	0.77484 0.49809 0.26840 0.83000
Cu	Cu	0.78887 0.83016 0.26000 0.82600
Cu	Cu	0.99021 0.38332 0.00643 0.86400
Cl	Cl	0.97620 0.27900 0.00180 -0.49900
O 	O 	0.08410 0.78400 0.03020 -0.09800
O 	O 	0.11530 0.61870 0.24380 -0.32200
O 	O 	0.03390 0.62380 0.31470 -0.49600
O 	O 	0.09530 0.76840 0.46130 -0.47900
O 	O 	0.03690 0.75230 0.54310 -0.52100
O 	O 	0.42670 0.59360 0.14970 -0.46500
O 	O 	0.34530 0.62140 0.21630 -0.29400
O 	O 	0.94470 0.71550 0.39780 -0.49400
O 	O 	0.89150 0.70110 0.48240 -0.55800
O 	O 	0.47780 0.46160 0.18010 -0.51400
O 	O 	0.39510 0.46000 0.24960 -0.58700
O 	O 	0.92740 0.57090 0.52340 -0.50000
O 	O 	0.97940 0.58760 0.43970 -0.51700
O 	O 	0.93590 0.58760 0.64470 -0.54600
O 	O 	0.14910 0.43690 0.29300 -0.63500
O 	O 	0.37750 0.47420 0.99130 -0.51300
O 	O 	0.56590 0.54620 0.09140 -0.47200
O 	O 	0.09280 0.75530 0.33990 -0.51200
O 	O 	0.34320 0.33120 0.20360 -0.54300
O 	O 	0.13680 0.63980 0.49710 -0.56100
O 	O 	0.07850 0.62370 0.57870 -0.48100
O 	O 	0.00480 0.71730 0.66400 -0.48400
O 	O 	0.91460 0.71810 0.72740 -0.36500
O 	O 	0.42120 0.60150 0.02630 -0.46600
O 	O 	0.52060 0.41980 0.05430 -0.52200
O 	O 	0.24800 0.44790 0.15690 -0.57100
O 	O 	0.29840 0.52000 0.09730 -0.50100
N 	N 	0.84710 0.64420 0.20250 -0.23400
N 	N 	0.72480 0.68680 0.13970 -0.23900
N 	N 	0.61660 0.63790 0.25070 -0.22900
N 	N 	0.73940 0.68130 0.31120 -0.26300
N 	N 	0.66490 0.47910 0.29160 -0.25500
N 	N 	0.78520 0.52310 0.35220 -0.24600
N 	N 	0.88360 0.46670 0.24700 -0.24600
N 	N 	0.76910 0.51680 0.18340 -0.25400
N 	N 	0.89900 0.80520 0.23780 -0.25100
N 	N 	0.78100 0.84740 0.17230 -0.24900
N 	N 	0.67930 0.81050 0.28190 -0.24800
N 	N 	0.79380 0.85660 0.34740 -0.23500
N 	N 	0.05980 0.44270 0.03660 -0.26700
C 	C 	0.05130 0.62560 0.26210 0.39000
C 	C 	0.98360 0.63640 0.22040 -0.14300
C 	C 	0.90750 0.63260 0.23740 0.08400
H 	H 	0.89860 0.62130 0.27500 -0.01800
C 	C 	0.99450 0.65050 0.16390 0.06200
H 	H 	0.04400 0.65170 0.15020 0.01500
C 	C 	0.93320 0.66280 0.12800 -0.12800
H 	H 	0.94120 0.67460 0.09040 0.05900
C 	C 	0.85720 0.65790 0.14750 0.05000
C 	C 	0.78960 0.67120 0.11230 0.04900
C 	C 	0.79010 0.66890 0.05210 -0.12200
H 	H 	0.83480 0.65720 0.03410 0.05600
C 	C 	0.72580 0.68370 0.02010 0.07500
H 	H 	0.72620 0.68210 0.98040 -0.00000
C 	C 	0.66250 0.70120 0.10720 0.10500
H 	H 	0.61790 0.71190 0.12580 -0.00300
C 	C 	0.65920 0.70120 0.04760 -0.17400
C 	C 	0.09170 0.77250 0.51400 0.44000
C 	C 	0.41270 0.61250 0.19730 0.39500
C 	C 	0.47930 0.62610 0.23690 -0.16000
C 	C 	0.55390 0.62670 0.21800 0.09800
H 	H 	0.56070 0.61880 0.17940 0.00500
C 	C 	0.47110 0.64030 0.29590 0.08100
H 	H 	0.42230 0.64310 0.31070 0.00200
C 	C 	0.53370 0.64980 0.33050 -0.13600
H 	H 	0.52850 0.65600 0.36950 0.08200
C 	C 	0.60620 0.65030 0.30700 0.05300
C 	C 	0.67780 0.66560 0.34060 0.06300
C 	C 	0.67920 0.66390 0.40200 -0.15700
H 	H 	0.63570 0.65350 0.42200 0.09300
C 	C 	0.74750 0.67830 0.42960 0.11800
H 	H 	0.75060 0.67720 0.46930 -0.02000
C 	C 	0.80260 0.69710 0.34060 0.10600
H 	H 	0.84430 0.71100 0.32010 -0.03700
C 	C 	0.81210 0.69450 0.40010 -0.19900
C 	C 	0.88910 0.70650 0.42960 0.46700
C 	C 	0.46120 0.46300 0.23120 0.49300
C 	C 	0.52750 0.47060 0.27430 -0.20500
C 	C 	0.51630 0.48310 0.33200 0.11500
H 	H 	0.46680 0.48450 0.34580 -0.03000
C 	C 	0.60260 0.46970 0.25630 0.10000
H 	H 	0.61070 0.46230 0.21790 -0.02600
C 	C 	0.57800 0.49320 0.36760 -0.16100
H 	H 	0.57090 0.50050 0.40620 0.07800
C 	C 	0.65190 0.49260 0.34690 0.06300
C 	C 	0.72320 0.50780 0.38240 0.05900
C 	C 	0.72560 0.50790 0.44270 -0.15600
H 	H 	0.68200 0.49750 0.46260 0.07200
C 	C 	0.79170 0.52330 0.47100 0.10900
H 	H 	0.79440 0.52190 0.51080 -0.02900
C 	C 	0.84940 0.53930 0.38220 0.11800
H 	H 	0.89260 0.55020 0.36190 -0.01400
C 	C 	0.85540 0.54090 0.44160 -0.19600
C 	C 	0.92630 0.56750 0.47110 0.45000
C 	C 	0.91790 0.56740 0.69240 0.53400
C 	C 	0.97990 0.54860 0.73410 -0.24900
C 	C 	0.94310 0.45200 0.28180 0.13700
H 	H 	0.93290 0.44140 0.31930 -0.01500
C 	C 	0.96580 0.53110 0.78990 0.13600
H 	H 	0.91570 0.52930 0.80240 -0.03600
C 	C 	0.02740 0.51630 0.82650 -0.17200
H 	H 	0.01850 0.50630 0.86440 0.08100
C 	C 	0.89990 0.48370 0.19200 0.06800
C 	C 	0.83210 0.49770 0.15580 0.03800
C 	C 	0.83080 0.49310 0.09570 -0.12100
H 	H 	0.87480 0.48140 0.07680 0.05300
C 	C 	0.76350 0.50640 0.06540 0.07100
H 	H 	0.76150 0.50320 0.02580 0.01700
C 	C 	0.70550 0.52980 0.15180 0.07700
H 	H 	0.66200 0.54340 0.17040 -0.02200
C 	C 	0.70080 0.52400 0.09310 -0.15900
C 	C 	0.37660 0.46590 0.93900 0.43300
C 	C 	0.09900 0.79350 0.30070 0.49000
C 	C 	0.03540 0.80000 0.25550 -0.26700
C 	C 	0.95980 0.79570 0.27260 0.14300
H 	H 	0.95130 0.78570 0.31050 -0.01800
C 	C 	0.04660 0.81260 0.19960 0.19400
H 	H 	0.09650 0.81610 0.18680 -0.10000
C 	C 	0.98690 0.82010 0.16240 -0.22500
H 	H 	0.99570 0.82630 0.12380 0.11200
C 	C 	0.91390 0.81860 0.18060 0.08500
C 	C 	0.84470 0.83080 0.14500 0.05100
C 	C 	0.84530 0.82880 0.08460 -0.15500
H 	H 	0.89040 0.81910 0.06610 0.09100
C 	C 	0.77850 0.84120 0.05350 0.11500
H 	H 	0.77790 0.83860 0.01380 -0.01900
C 	C 	0.71750 0.86090 0.13990 0.10400
H 	H 	0.67360 0.87350 0.15850 -0.02600
C 	C 	0.71320 0.85720 0.08070 -0.20300
C 	C 	0.13780 0.63400 0.54960 0.46600
C 	C 	0.98160 0.71450 0.71380 0.39200
C 	C 	0.04410 0.70410 0.75990 -0.14000
C 	C 	0.62060 0.79720 0.24470 0.06700
H 	H 	0.63190 0.78850 0.20700 -0.01900
C 	C 	0.02840 0.69300 0.81740 0.06300
H 	H 	0.97810 0.69520 0.82950 0.00400
C 	C 	0.08650 0.67900 0.85530 -0.11500
H 	H 	0.07620 0.67100 0.89340 0.05100
C 	C 	0.66320 0.82320 0.33670 0.04600
C 	C 	0.72850 0.83920 0.37350 0.05700
C 	C 	0.72700 0.83530 0.43410 -0.14700
H 	H 	0.68290 0.82190 0.45200 0.08000
C 	C 	0.79160 0.85180 0.46530 0.09700
H 	H 	0.79140 0.84950 0.50500 0.00000
C 	C 	0.85560 0.87220 0.38040 0.11500
H 	H 	0.90010 0.88420 0.36230 -0.01100
C 	C 	0.85760 0.87160 0.43920 -0.18600
C 	C 	0.42560 0.60250 0.97290 0.44900
C 	C 	0.24430 0.48760 0.11560 0.45200
C 	C 	0.16860 0.49280 0.08370 -0.20900
C 	C 	0.12570 0.43910 0.07000 0.11600
H 	H 	0.14220 0.39980 0.08380 -0.03200
C 	C 	0.03490 0.49790 0.01680 0.04500
C 	C 	0.92850 0.45230 0.96960 -0.27200
C 	C 	0.14280 0.55000 0.06260 0.12900
H 	H 	0.16980 0.58770 0.06890 -0.01700
