data_crystal

_cell_length_a 24.72330
_cell_length_b 24.72330
_cell_length_c 24.72330
_cell_angle_alpha 90.00000
_cell_angle_beta  90.00000
_cell_angle_gamma 90.00000

_symmetry_space_group_name_	'P 1'
_symmetry_space_group_name_H-M	'P 1'

loop_
_symmetry_equiv_pos_as_xyz
  x,y,z

loop_
_atom_site_label
_atom_site_type_symbol
_atom_site_fract_x
_atom_site_fract_y
_atom_site_fract_z
_atom_site_charge
N 	N 	0.77097 0.93643 0.08907 -0.21500
C 	C 	0.78235 0.90698 0.13235 0.08400
H 	H 	0.81010 0.91550 0.15750 -0.03700
N 	N 	0.77097 0.43643 0.58907 -0.22300
C 	C 	0.78235 0.40698 0.63235 0.08200
H 	H 	0.81010 0.41550 0.65750 -0.04300
N 	N 	0.27097 0.93643 0.58907 -0.21300
C 	C 	0.28235 0.90698 0.63235 0.08500
H 	H 	0.31010 0.91550 0.65750 -0.03800
N 	N 	0.27097 0.43643 0.08907 -0.22500
C 	C 	0.28235 0.40698 0.13235 0.08200
H 	H 	0.31010 0.41550 0.15750 -0.04300
N 	N 	0.47903 0.81357 0.58907 -0.22200
C 	C 	0.46765 0.84302 0.63235 0.08400
H 	H 	0.43990 0.83450 0.65750 -0.04200
N 	N 	0.47903 0.31357 0.08907 -0.22500
C 	C 	0.46765 0.34302 0.13235 0.08200
H 	H 	0.43990 0.33450 0.15750 -0.04300
N 	N 	0.97903 0.81357 0.08907 -0.21400
C 	C 	0.96765 0.84302 0.13235 0.12200
H 	H 	0.93990 0.83450 0.15750 -0.04900
N 	N 	0.97903 0.31357 0.58907 -0.21200
C 	C 	0.96765 0.34302 0.63235 0.12300
H 	H 	0.93990 0.33450 0.65750 -0.05000
N 	N 	0.97903 0.43643 0.16093 -0.21200
C 	C 	0.96765 0.40698 0.11765 0.12100
H 	H 	0.93990 0.41550 0.09250 -0.05400
N 	N 	0.97903 0.93643 0.66093 -0.20100
C 	C 	0.96765 0.90698 0.61765 0.12700
H 	H 	0.93990 0.91550 0.59250 -0.04400
N 	N 	0.47903 0.43643 0.66093 -0.22200
C 	C 	0.46765 0.40698 0.61765 0.08300
H 	H 	0.43990 0.41550 0.59250 -0.04300
N 	N 	0.47903 0.93643 0.16093 -0.21300
C 	C 	0.46765 0.90698 0.11765 0.08500
H 	H 	0.43990 0.91550 0.09250 -0.04100
N 	N 	0.27097 0.31357 0.66093 -0.22200
C 	C 	0.28235 0.34302 0.61765 0.08300
H 	H 	0.31010 0.33450 0.59250 -0.04300
N 	N 	0.27097 0.81357 0.16093 -0.22300
C 	C 	0.28235 0.84302 0.11765 0.08300
H 	H 	0.31010 0.83450 0.09250 -0.04600
N 	N 	0.77097 0.31357 0.16093 -0.22300
C 	C 	0.78235 0.34302 0.11765 0.08200
H 	H 	0.81010 0.33450 0.09250 -0.04600
N 	N 	0.77097 0.81357 0.66093 -0.22100
C 	C 	0.78235 0.84302 0.61765 0.08400
H 	H 	0.81010 0.83450 0.59250 -0.04100
N 	N 	0.08907 0.77097 0.93643 -0.21400
C 	C 	0.13235 0.78235 0.90698 0.08500
H 	H 	0.15750 0.81010 0.91550 -0.03600
N 	N 	0.08907 0.27097 0.43643 -0.22500
C 	C 	0.13235 0.28235 0.40698 0.08200
H 	H 	0.15750 0.31010 0.41550 -0.04300
N 	N 	0.58907 0.77097 0.43643 -0.22200
C 	C 	0.63235 0.78235 0.40698 0.08300
H 	H 	0.65750 0.81010 0.41550 -0.04200
N 	N 	0.58907 0.27097 0.93643 -0.21200
C 	C 	0.63235 0.28235 0.90698 0.08600
H 	H 	0.65750 0.31010 0.91550 -0.03700
N 	N 	0.58907 0.47903 0.81357 -0.22200
C 	C 	0.63235 0.46765 0.84302 0.08400
H 	H 	0.65750 0.43990 0.83450 -0.04200
N 	N 	0.58907 0.97903 0.31357 -0.21200
C 	C 	0.63235 0.96765 0.34302 0.12300
H 	H 	0.65750 0.93990 0.33450 -0.05000
N 	N 	0.08907 0.47903 0.31357 -0.22500
C 	C 	0.13235 0.46765 0.34302 0.08200
H 	H 	0.15750 0.43990 0.33450 -0.04300
N 	N 	0.08907 0.97903 0.81357 -0.21400
C 	C 	0.13235 0.96765 0.84302 0.12200
H 	H 	0.15750 0.93990 0.83450 -0.04900
N 	N 	0.16093 0.97903 0.43643 -0.21200
C 	C 	0.11765 0.96765 0.40698 0.12100
H 	H 	0.09250 0.93990 0.41550 -0.05400
N 	N 	0.16093 0.47903 0.93643 -0.21300
C 	C 	0.11765 0.46765 0.90698 0.08500
H 	H 	0.09250 0.43990 0.91550 -0.04100
N 	N 	0.66093 0.97903 0.93643 -0.20100
C 	C 	0.61765 0.96765 0.90698 0.12700
H 	H 	0.59250 0.93990 0.91550 -0.04400
N 	N 	0.66093 0.47903 0.43643 -0.22200
C 	C 	0.61765 0.46765 0.40698 0.08300
H 	H 	0.59250 0.43990 0.41550 -0.04300
N 	N 	0.66093 0.27097 0.31357 -0.22200
C 	C 	0.61765 0.28235 0.34302 0.08300
H 	H 	0.59250 0.31010 0.33450 -0.04300
N 	N 	0.66093 0.77097 0.81357 -0.22100
C 	C 	0.61765 0.78235 0.84302 0.08400
H 	H 	0.59250 0.81010 0.83450 -0.04100
N 	N 	0.16093 0.27097 0.81357 -0.22300
C 	C 	0.11765 0.28235 0.84302 0.08300
H 	H 	0.09250 0.31010 0.83450 -0.04600
N 	N 	0.16093 0.77097 0.31357 -0.22300
C 	C 	0.11765 0.78235 0.34302 0.08200
H 	H 	0.09250 0.81010 0.33450 -0.04600
N 	N 	0.93643 0.08907 0.77097 -0.21400
C 	C 	0.90698 0.13235 0.78235 0.08500
H 	H 	0.91550 0.15750 0.81010 -0.03600
N 	N 	0.93643 0.58907 0.27097 -0.21200
C 	C 	0.90698 0.63235 0.28235 0.08600
H 	H 	0.91550 0.65750 0.31010 -0.03700
N 	N 	0.43643 0.08907 0.27097 -0.22500
C 	C 	0.40698 0.13235 0.28235 0.08200
H 	H 	0.41550 0.15750 0.31010 -0.04300
N 	N 	0.43643 0.58907 0.77097 -0.22200
C 	C 	0.40698 0.63235 0.78235 0.08300
H 	H 	0.41550 0.65750 0.81010 -0.04200
N 	N 	0.81357 0.58907 0.47903 -0.22200
C 	C 	0.84302 0.63235 0.46765 0.08400
H 	H 	0.83450 0.65750 0.43990 -0.04200
N 	N 	0.81357 0.08907 0.97903 -0.21400
C 	C 	0.84302 0.13235 0.96765 0.12200
H 	H 	0.83450 0.15750 0.93990 -0.04900
N 	N 	0.31357 0.58907 0.97903 -0.21200
C 	C 	0.34302 0.63235 0.96765 0.12300
H 	H 	0.33450 0.65750 0.93990 -0.05000
N 	N 	0.31357 0.08907 0.47903 -0.22500
C 	C 	0.34302 0.13235 0.46765 0.08200
H 	H 	0.33450 0.15750 0.43990 -0.04300
N 	N 	0.43643 0.16093 0.97903 -0.21200
C 	C 	0.40698 0.11765 0.96765 0.12100
H 	H 	0.41550 0.09250 0.93990 -0.05400
N 	N 	0.43643 0.66093 0.47903 -0.22200
C 	C 	0.40698 0.61765 0.46765 0.08300
H 	H 	0.41550 0.59250 0.43990 -0.04300
N 	N 	0.93643 0.16093 0.47903 -0.21300
C 	C 	0.90698 0.11765 0.46765 0.08500
H 	H 	0.91550 0.09250 0.43990 -0.04100
N 	N 	0.93643 0.66093 0.97903 -0.20100
C 	C 	0.90698 0.61765 0.96765 0.12700
H 	H 	0.91550 0.59250 0.93990 -0.04400
N 	N 	0.31357 0.66093 0.27097 -0.22200
C 	C 	0.34302 0.61765 0.28235 0.08300
H 	H 	0.33450 0.59250 0.31010 -0.04300
N 	N 	0.31357 0.16093 0.77097 -0.22300
C 	C 	0.34302 0.11765 0.78235 0.08200
H 	H 	0.33450 0.09250 0.81010 -0.04600
N 	N 	0.81357 0.66093 0.77097 -0.22100
C 	C 	0.84302 0.61765 0.78235 0.08400
H 	H 	0.83450 0.59250 0.81010 -0.04100
N 	N 	0.81357 0.16093 0.27097 -0.22300
C 	C 	0.84302 0.11765 0.28235 0.08300
H 	H 	0.83450 0.09250 0.31010 -0.04600
N 	N 	0.68643 0.02097 0.91093 -0.23500
C 	C 	0.65698 0.03235 0.86765 0.07800
H 	H 	0.66550 0.06010 0.84250 -0.04400
N 	N 	0.68643 0.52097 0.41093 -0.22200
C 	C 	0.65698 0.53235 0.36765 0.08300
H 	H 	0.66550 0.56010 0.34250 -0.04300
N 	N 	0.18643 0.02097 0.41093 -0.23800
C 	C 	0.15698 0.03235 0.36765 0.07700
H 	H 	0.16550 0.06010 0.34250 -0.04500
N 	N 	0.18643 0.52097 0.91093 -0.22000
C 	C 	0.15698 0.53235 0.86765 0.08400
H 	H 	0.16550 0.56010 0.84250 -0.04300
N 	N 	0.56357 0.72903 0.41093 -0.22200
C 	C 	0.59302 0.71765 0.36765 0.08300
H 	H 	0.58450 0.68990 0.34250 -0.04300
N 	N 	0.56357 0.22903 0.91093 -0.21900
C 	C 	0.59302 0.21765 0.86765 0.08400
H 	H 	0.58450 0.18990 0.84250 -0.04300
N 	N 	0.06357 0.72903 0.91093 -0.22300
C 	C 	0.09302 0.71765 0.86765 0.08300
H 	H 	0.08450 0.68990 0.84250 -0.04700
N 	N 	0.06357 0.22903 0.41093 -0.22600
C 	C 	0.09302 0.21765 0.36765 0.08100
H 	H 	0.08450 0.18990 0.34250 -0.04700
N 	N 	0.18643 0.22903 0.83907 -0.22200
C 	C 	0.15698 0.21765 0.88235 0.08400
H 	H 	0.16550 0.18990 0.90750 -0.03900
N 	N 	0.18643 0.72903 0.33907 -0.22200
C 	C 	0.15698 0.71765 0.38235 0.08300
H 	H 	0.16550 0.68990 0.40750 -0.04300
N 	N 	0.68643 0.22903 0.33907 -0.22200
C 	C 	0.65698 0.21765 0.38235 0.08300
H 	H 	0.66550 0.18990 0.40750 -0.04300
N 	N 	0.68643 0.72903 0.83907 -0.22100
C 	C 	0.65698 0.71765 0.88235 0.08500
H 	H 	0.66550 0.68990 0.90750 -0.03800
N 	N 	0.06357 0.52097 0.33907 -0.22600
C 	C 	0.09302 0.53235 0.38235 0.08200
H 	H 	0.08450 0.56010 0.40750 -0.04700
N 	N 	0.06357 0.02097 0.83907 -0.24100
C 	C 	0.09302 0.03235 0.88235 0.07600
H 	H 	0.08450 0.06010 0.90750 -0.04400
N 	N 	0.56357 0.52097 0.83907 -0.22100
C 	C 	0.59302 0.53235 0.88235 0.08500
H 	H 	0.58450 0.56010 0.90750 -0.03800
N 	N 	0.56357 0.02097 0.33907 -0.23800
C 	C 	0.59302 0.03235 0.38235 0.07600
H 	H 	0.58450 0.06010 0.40750 -0.04400
N 	N 	0.52097 0.33907 0.06357 -0.22600
C 	C 	0.53235 0.38235 0.09302 0.08200
H 	H 	0.56010 0.40750 0.08450 -0.04700
N 	N 	0.52097 0.83907 0.56357 -0.22100
C 	C 	0.53235 0.88235 0.59302 0.08500
H 	H 	0.56010 0.90750 0.58450 -0.03800
N 	N 	0.02097 0.33907 0.56357 -0.23800
C 	C 	0.03235 0.38235 0.59302 0.07600
H 	H 	0.06010 0.40750 0.58450 -0.04400
N 	N 	0.02097 0.83907 0.06357 -0.24100
C 	C 	0.03235 0.88235 0.09302 0.07600
H 	H 	0.06010 0.90750 0.08450 -0.04400
N 	N 	0.22903 0.83907 0.18643 -0.22200
C 	C 	0.21765 0.88235 0.15698 0.08400
H 	H 	0.18990 0.90750 0.16550 -0.03900
N 	N 	0.22903 0.33907 0.68643 -0.22200
C 	C 	0.21765 0.38235 0.65698 0.08300
H 	H 	0.18990 0.40750 0.66550 -0.04300
N 	N 	0.72903 0.83907 0.68643 -0.22100
C 	C 	0.71765 0.88235 0.65698 0.08500
H 	H 	0.68990 0.90750 0.66550 -0.03800
N 	N 	0.72903 0.33907 0.18643 -0.22200
C 	C 	0.71765 0.38235 0.15698 0.08300
H 	H 	0.68990 0.40750 0.16550 -0.04300
N 	N 	0.72903 0.41093 0.56357 -0.22200
C 	C 	0.71765 0.36765 0.59302 0.08300
H 	H 	0.68990 0.34250 0.58450 -0.04300
N 	N 	0.72903 0.91093 0.06357 -0.22300
C 	C 	0.71765 0.86765 0.09302 0.08300
H 	H 	0.68990 0.84250 0.08450 -0.04700
N 	N 	0.22903 0.41093 0.06357 -0.22600
C 	C 	0.21765 0.36765 0.09302 0.08100
H 	H 	0.18990 0.34250 0.08450 -0.04700
N 	N 	0.22903 0.91093 0.56357 -0.21900
C 	C 	0.21765 0.86765 0.59302 0.08400
H 	H 	0.18990 0.84250 0.58450 -0.04300
N 	N 	0.02097 0.91093 0.68643 -0.23500
C 	C 	0.03235 0.86765 0.65698 0.07800
H 	H 	0.06010 0.84250 0.66550 -0.04400
N 	N 	0.02097 0.41093 0.18643 -0.23800
C 	C 	0.03235 0.36765 0.15698 0.07700
H 	H 	0.06010 0.34250 0.16550 -0.04500
N 	N 	0.52097 0.91093 0.18643 -0.22000
C 	C 	0.53235 0.86765 0.15698 0.08400
H 	H 	0.56010 0.84250 0.16550 -0.04300
N 	N 	0.52097 0.41093 0.68643 -0.22200
C 	C 	0.53235 0.36765 0.65698 0.08300
H 	H 	0.56010 0.34250 0.66550 -0.04300
N 	N 	0.83907 0.18643 0.22903 -0.22200
C 	C 	0.88235 0.15698 0.21765 0.08400
H 	H 	0.90750 0.16550 0.18990 -0.03900
N 	N 	0.83907 0.68643 0.72903 -0.22100
C 	C 	0.88235 0.65698 0.71765 0.08500
H 	H 	0.90750 0.66550 0.68990 -0.03800
N 	N 	0.33907 0.18643 0.72903 -0.22200
C 	C 	0.38235 0.15698 0.71765 0.08300
H 	H 	0.40750 0.16550 0.68990 -0.04300
N 	N 	0.33907 0.68643 0.22903 -0.22200
C 	C 	0.38235 0.65698 0.21765 0.08300
H 	H 	0.40750 0.66550 0.18990 -0.04300
N 	N 	0.33907 0.06357 0.52097 -0.22600
C 	C 	0.38235 0.09302 0.53235 0.08200
H 	H 	0.40750 0.08450 0.56010 -0.04700
N 	N 	0.33907 0.56357 0.02097 -0.23800
C 	C 	0.38235 0.59302 0.03235 0.07600
H 	H 	0.40750 0.58450 0.06010 -0.04400
N 	N 	0.83907 0.06357 0.02097 -0.24100
C 	C 	0.88235 0.09302 0.03235 0.07600
H 	H 	0.90750 0.08450 0.06010 -0.04400
N 	N 	0.83907 0.56357 0.52097 -0.22100
C 	C 	0.88235 0.59302 0.53235 0.08500
H 	H 	0.90750 0.58450 0.56010 -0.03800
N 	N 	0.91093 0.68643 0.02097 -0.23500
C 	C 	0.86765 0.65698 0.03235 0.07800
H 	H 	0.84250 0.66550 0.06010 -0.04400
N 	N 	0.91093 0.18643 0.52097 -0.22000
C 	C 	0.86765 0.15698 0.53235 0.08400
H 	H 	0.84250 0.16550 0.56010 -0.04300
N 	N 	0.41093 0.68643 0.52097 -0.22200
C 	C 	0.36765 0.65698 0.53235 0.08300
H 	H 	0.34250 0.66550 0.56010 -0.04300
N 	N 	0.41093 0.18643 0.02097 -0.23800
C 	C 	0.36765 0.15698 0.03235 0.07700
H 	H 	0.34250 0.16550 0.06010 -0.04500
N 	N 	0.41093 0.56357 0.72903 -0.22200
C 	C 	0.36765 0.59302 0.71765 0.08300
H 	H 	0.34250 0.58450 0.68990 -0.04300
N 	N 	0.41093 0.06357 0.22903 -0.22600
C 	C 	0.36765 0.09302 0.21765 0.08100
H 	H 	0.34250 0.08450 0.18990 -0.04700
N 	N 	0.91093 0.56357 0.22903 -0.21900
C 	C 	0.86765 0.59302 0.21765 0.08400
H 	H 	0.84250 0.58450 0.18990 -0.04300
N 	N 	0.91093 0.06357 0.72903 -0.22300
C 	C 	0.86765 0.09302 0.71765 0.08300
H 	H 	0.84250 0.08450 0.68990 -0.04700
N 	N 	0.22903 0.06357 0.91093 -0.22400
C 	C 	0.21765 0.09302 0.86765 0.08300
H 	H 	0.18990 0.08450 0.84250 -0.04700
N 	N 	0.22903 0.56357 0.41093 -0.22200
C 	C 	0.21765 0.59302 0.36765 0.08300
H 	H 	0.18990 0.58450 0.34250 -0.04300
N 	N 	0.72903 0.06357 0.41093 -0.22600
C 	C 	0.71765 0.09302 0.36765 0.08200
H 	H 	0.68990 0.08450 0.34250 -0.04700
N 	N 	0.72903 0.56357 0.91093 -0.21900
C 	C 	0.71765 0.59302 0.86765 0.08500
H 	H 	0.68990 0.58450 0.84250 -0.04300
N 	N 	0.52097 0.18643 0.41093 -0.22300
C 	C 	0.53235 0.15698 0.36765 0.08300
H 	H 	0.56010 0.16550 0.34250 -0.04400
N 	N 	0.52097 0.68643 0.91093 -0.21900
C 	C 	0.53235 0.65698 0.86765 0.08500
H 	H 	0.56010 0.66550 0.84250 -0.04300
N 	N 	0.02097 0.18643 0.91093 -0.23500
C 	C 	0.03235 0.15698 0.86765 0.07800
H 	H 	0.06010 0.16550 0.84250 -0.04500
N 	N 	0.02097 0.68643 0.41093 -0.23800
C 	C 	0.03235 0.65698 0.36765 0.07700
H 	H 	0.06010 0.66550 0.34250 -0.04400
N 	N 	0.02097 0.56357 0.83907 -0.23700
C 	C 	0.03235 0.59302 0.88235 0.07800
H 	H 	0.06010 0.58450 0.90750 -0.04000
N 	N 	0.02097 0.06357 0.33907 -0.24100
C 	C 	0.03235 0.09302 0.38235 0.07500
H 	H 	0.06010 0.08450 0.40750 -0.04800
N 	N 	0.52097 0.56357 0.33907 -0.22200
C 	C 	0.53235 0.59302 0.38235 0.08300
H 	H 	0.56010 0.58450 0.40750 -0.04300
N 	N 	0.52097 0.06357 0.83907 -0.22500
C 	C 	0.53235 0.09302 0.88235 0.08300
H 	H 	0.56010 0.08450 0.90750 -0.04200
N 	N 	0.72903 0.68643 0.33907 -0.22200
C 	C 	0.71765 0.65698 0.38235 0.08300
H 	H 	0.68990 0.66550 0.40750 -0.04300
N 	N 	0.72903 0.18643 0.83907 -0.22100
C 	C 	0.71765 0.15698 0.88235 0.08500
H 	H 	0.68990 0.16550 0.90750 -0.03900
N 	N 	0.22903 0.68643 0.83907 -0.22100
C 	C 	0.21765 0.65698 0.88235 0.08500
H 	H 	0.18990 0.66550 0.90750 -0.03900
N 	N 	0.22903 0.18643 0.33907 -0.22300
C 	C 	0.21765 0.15698 0.38235 0.08300
H 	H 	0.18990 0.16550 0.40750 -0.04400
N 	N 	0.91093 0.22903 0.06357 -0.22400
C 	C 	0.86765 0.21765 0.09302 0.08300
H 	H 	0.84250 0.18990 0.08450 -0.04700
N 	N 	0.91093 0.72903 0.56357 -0.21900
C 	C 	0.86765 0.71765 0.59302 0.08500
H 	H 	0.84250 0.68990 0.58450 -0.04300
N 	N 	0.41093 0.22903 0.56357 -0.22200
C 	C 	0.36765 0.21765 0.59302 0.08300
H 	H 	0.34250 0.18990 0.58450 -0.04300
N 	N 	0.41093 0.72903 0.06357 -0.22600
C 	C 	0.36765 0.71765 0.09302 0.08200
H 	H 	0.34250 0.68990 0.08450 -0.04700
N 	N 	0.41093 0.52097 0.18643 -0.22300
C 	C 	0.36765 0.53235 0.15698 0.08300
H 	H 	0.34250 0.56010 0.16550 -0.04400
N 	N 	0.41093 0.02097 0.68643 -0.23800
C 	C 	0.36765 0.03235 0.65698 0.07700
H 	H 	0.34250 0.06010 0.66550 -0.04400
N 	N 	0.91093 0.52097 0.68643 -0.21900
C 	C 	0.86765 0.53235 0.65698 0.08500
H 	H 	0.84250 0.56010 0.66550 -0.04300
N 	N 	0.91093 0.02097 0.18643 -0.23500
C 	C 	0.86765 0.03235 0.15698 0.07800
H 	H 	0.84250 0.06010 0.16550 -0.04500
N 	N 	0.83907 0.02097 0.56357 -0.23700
C 	C 	0.88235 0.03235 0.59302 0.07800
H 	H 	0.90750 0.06010 0.58450 -0.04000
N 	N 	0.83907 0.52097 0.06357 -0.22500
C 	C 	0.88235 0.53235 0.09302 0.08300
H 	H 	0.90750 0.56010 0.08450 -0.04200
N 	N 	0.33907 0.02097 0.06357 -0.24100
C 	C 	0.38235 0.03235 0.09302 0.07500
H 	H 	0.40750 0.06010 0.08450 -0.04800
N 	N 	0.33907 0.52097 0.56357 -0.22200
C 	C 	0.38235 0.53235 0.59302 0.08300
H 	H 	0.40750 0.56010 0.58450 -0.04300
N 	N 	0.33907 0.72903 0.68643 -0.22200
C 	C 	0.38235 0.71765 0.65698 0.08300
H 	H 	0.40750 0.68990 0.66550 -0.04300
N 	N 	0.33907 0.22903 0.18643 -0.22300
C 	C 	0.38235 0.21765 0.15698 0.08300
H 	H 	0.40750 0.18990 0.16550 -0.04400
N 	N 	0.83907 0.72903 0.18643 -0.22100
C 	C 	0.88235 0.71765 0.15698 0.08500
H 	H 	0.90750 0.68990 0.16550 -0.03900
N 	N 	0.83907 0.22903 0.68643 -0.22100
C 	C 	0.88235 0.21765 0.65698 0.08500
H 	H 	0.90750 0.18990 0.66550 -0.03900
N 	N 	0.06357 0.91093 0.22903 -0.22400
C 	C 	0.09302 0.86765 0.21765 0.08300
H 	H 	0.08450 0.84250 0.18990 -0.04700
N 	N 	0.06357 0.41093 0.72903 -0.22600
C 	C 	0.09302 0.36765 0.71765 0.08200
H 	H 	0.08450 0.34250 0.68990 -0.04700
N 	N 	0.56357 0.91093 0.72903 -0.21900
C 	C 	0.59302 0.86765 0.71765 0.08500
H 	H 	0.58450 0.84250 0.68990 -0.04300
N 	N 	0.56357 0.41093 0.22903 -0.22200
C 	C 	0.59302 0.36765 0.21765 0.08300
H 	H 	0.58450 0.34250 0.18990 -0.04300
N 	N 	0.18643 0.41093 0.52097 -0.22300
C 	C 	0.15698 0.36765 0.53235 0.08300
H 	H 	0.16550 0.34250 0.56010 -0.04400
N 	N 	0.18643 0.91093 0.02097 -0.23500
C 	C 	0.15698 0.86765 0.03235 0.07800
H 	H 	0.16550 0.84250 0.06010 -0.04500
N 	N 	0.68643 0.41093 0.02097 -0.23800
C 	C 	0.65698 0.36765 0.03235 0.07700
H 	H 	0.66550 0.34250 0.06010 -0.04400
N 	N 	0.68643 0.91093 0.52097 -0.21900
C 	C 	0.65698 0.86765 0.53235 0.08500
H 	H 	0.66550 0.84250 0.56010 -0.04300
N 	N 	0.56357 0.83907 0.02097 -0.23700
C 	C 	0.59302 0.88235 0.03235 0.07800
H 	H 	0.58450 0.90750 0.06010 -0.04000
N 	N 	0.56357 0.33907 0.52097 -0.22200
C 	C 	0.59302 0.38235 0.53235 0.08300
H 	H 	0.58450 0.40750 0.56010 -0.04300
N 	N 	0.06357 0.83907 0.52097 -0.22500
C 	C 	0.09302 0.88235 0.53235 0.08300
H 	H 	0.08450 0.90750 0.56010 -0.04200
N 	N 	0.06357 0.33907 0.02097 -0.24100
C 	C 	0.09302 0.38235 0.03235 0.07500
H 	H 	0.08450 0.40750 0.06010 -0.04800
N 	N 	0.68643 0.33907 0.72903 -0.22200
C 	C 	0.65698 0.38235 0.71765 0.08300
H 	H 	0.66550 0.40750 0.68990 -0.04300
N 	N 	0.68643 0.83907 0.22903 -0.22100
C 	C 	0.65698 0.88235 0.21765 0.08500
H 	H 	0.66550 0.90750 0.18990 -0.03900
N 	N 	0.18643 0.33907 0.22903 -0.22300
C 	C 	0.15698 0.38235 0.21765 0.08300
H 	H 	0.16550 0.40750 0.18990 -0.04400
N 	N 	0.18643 0.83907 0.72903 -0.22100
C 	C 	0.15698 0.88235 0.71765 0.08500
H 	H 	0.16550 0.90750 0.68990 -0.03900
N 	N 	0.31357 0.97903 0.08907 -0.21400
C 	C 	0.34302 0.96765 0.13235 0.12100
H 	H 	0.33450 0.93990 0.15750 -0.05000
N 	N 	0.31357 0.47903 0.58907 -0.22200
C 	C 	0.34302 0.46765 0.63235 0.08300
H 	H 	0.33450 0.43990 0.65750 -0.04200
N 	N 	0.81357 0.97903 0.58907 -0.21100
C 	C 	0.84302 0.96765 0.63235 0.12500
H 	H 	0.83450 0.93990 0.65750 -0.04900
N 	N 	0.81357 0.47903 0.08907 -0.22400
C 	C 	0.84302 0.46765 0.13235 0.08300
H 	H 	0.83450 0.43990 0.15750 -0.04200
N 	N 	0.43643 0.27097 0.58907 -0.22200
C 	C 	0.40698 0.28235 0.63235 0.08300
H 	H 	0.41550 0.31010 0.65750 -0.04200
N 	N 	0.43643 0.77097 0.08907 -0.22400
C 	C 	0.40698 0.78235 0.13235 0.08200
H 	H 	0.41550 0.81010 0.15750 -0.04200
N 	N 	0.93643 0.27097 0.08907 -0.21500
C 	C 	0.90698 0.28235 0.13235 0.08500
H 	H 	0.91550 0.31010 0.15750 -0.03700
N 	N 	0.93643 0.77097 0.58907 -0.21200
C 	C 	0.90698 0.78235 0.63235 0.08600
H 	H 	0.91550 0.81010 0.65750 -0.03600
N 	N 	0.81357 0.77097 0.16093 -0.22200
C 	C 	0.84302 0.78235 0.11765 0.08300
H 	H 	0.83450 0.81010 0.09250 -0.04600
N 	N 	0.81357 0.27097 0.66093 -0.22200
C 	C 	0.84302 0.28235 0.61765 0.08400
H 	H 	0.83450 0.31010 0.59250 -0.04200
N 	N 	0.31357 0.77097 0.66093 -0.22200
C 	C 	0.34302 0.78235 0.61765 0.08300
H 	H 	0.33450 0.81010 0.59250 -0.04200
N 	N 	0.31357 0.27097 0.16093 -0.22300
C 	C 	0.34302 0.28235 0.11765 0.08200
H 	H 	0.33450 0.31010 0.09250 -0.04700
N 	N 	0.93643 0.47903 0.66093 -0.21200
C 	C 	0.90698 0.46765 0.61765 0.08600
H 	H 	0.91550 0.43990 0.59250 -0.03700
N 	N 	0.93643 0.97903 0.16093 -0.20200
C 	C 	0.90698 0.96765 0.11765 0.12400
H 	H 	0.91550 0.93990 0.09250 -0.04800
N 	N 	0.43643 0.47903 0.16093 -0.22300
C 	C 	0.40698 0.46765 0.11765 0.08200
H 	H 	0.41550 0.43990 0.09250 -0.04700
N 	N 	0.43643 0.97903 0.66093 -0.21100
C 	C 	0.40698 0.96765 0.61765 0.12300
H 	H 	0.41550 0.93990 0.59250 -0.05000
N 	N 	0.47903 0.66093 0.93643 -0.21200
C 	C 	0.46765 0.61765 0.90698 0.08600
H 	H 	0.43990 0.59250 0.91550 -0.03700
N 	N 	0.47903 0.16093 0.43643 -0.22300
C 	C 	0.46765 0.11765 0.40698 0.08200
H 	H 	0.43990 0.09250 0.41550 -0.04700
N 	N 	0.97903 0.66093 0.43643 -0.21100
C 	C 	0.96765 0.61765 0.40698 0.12300
H 	H 	0.93990 0.59250 0.41550 -0.05000
N 	N 	0.97903 0.16093 0.93643 -0.20200
C 	C 	0.96765 0.11765 0.90698 0.12400
H 	H 	0.93990 0.09250 0.91550 -0.04800
N 	N 	0.77097 0.16093 0.81357 -0.22200
C 	C 	0.78235 0.11765 0.84302 0.08300
H 	H 	0.81010 0.09250 0.83450 -0.04600
N 	N 	0.77097 0.66093 0.31357 -0.22200
C 	C 	0.78235 0.61765 0.34302 0.08300
H 	H 	0.81010 0.59250 0.33450 -0.04200
N 	N 	0.27097 0.16093 0.31357 -0.22300
C 	C 	0.28235 0.11765 0.34302 0.08200
H 	H 	0.31010 0.09250 0.33450 -0.04700
N 	N 	0.27097 0.66093 0.81357 -0.22200
C 	C 	0.28235 0.61765 0.84302 0.08400
H 	H 	0.31010 0.59250 0.83450 -0.04200
N 	N 	0.27097 0.58907 0.43643 -0.22200
C 	C 	0.28235 0.63235 0.40698 0.08300
H 	H 	0.31010 0.65750 0.41550 -0.04200
N 	N 	0.27097 0.08907 0.93643 -0.21500
C 	C 	0.28235 0.13235 0.90698 0.08500
H 	H 	0.31010 0.15750 0.91550 -0.03700
N 	N 	0.77097 0.58907 0.93643 -0.21200
C 	C 	0.78235 0.63235 0.90698 0.08600
H 	H 	0.81010 0.65750 0.91550 -0.03600
N 	N 	0.77097 0.08907 0.43643 -0.22400
C 	C 	0.78235 0.13235 0.40698 0.08200
H 	H 	0.81010 0.15750 0.41550 -0.04200
N 	N 	0.97903 0.08907 0.31357 -0.21400
C 	C 	0.96765 0.13235 0.34302 0.12100
H 	H 	0.93990 0.15750 0.33450 -0.05000
N 	N 	0.97903 0.58907 0.81357 -0.21100
C 	C 	0.96765 0.63235 0.84302 0.12500
H 	H 	0.93990 0.65750 0.83450 -0.04900
N 	N 	0.47903 0.08907 0.81357 -0.22400
C 	C 	0.46765 0.13235 0.84302 0.08300
H 	H 	0.43990 0.15750 0.83450 -0.04200
N 	N 	0.47903 0.58907 0.31357 -0.22200
C 	C 	0.46765 0.63235 0.34302 0.08300
H 	H 	0.43990 0.65750 0.33450 -0.04200
N 	N 	0.16093 0.81357 0.77097 -0.22200
C 	C 	0.11765 0.84302 0.78235 0.08300
H 	H 	0.09250 0.83450 0.81010 -0.04600
N 	N 	0.16093 0.31357 0.27097 -0.22300
C 	C 	0.11765 0.34302 0.28235 0.08200
H 	H 	0.09250 0.33450 0.31010 -0.04700
N 	N 	0.66093 0.81357 0.27097 -0.22200
C 	C 	0.61765 0.84302 0.28235 0.08400
H 	H 	0.59250 0.83450 0.31010 -0.04200
N 	N 	0.66093 0.31357 0.77097 -0.22200
C 	C 	0.61765 0.34302 0.78235 0.08300
H 	H 	0.59250 0.33450 0.81010 -0.04200
N 	N 	0.66093 0.93643 0.47903 -0.21200
C 	C 	0.61765 0.90698 0.46765 0.08600
H 	H 	0.59250 0.91550 0.43990 -0.03700
N 	N 	0.66093 0.43643 0.97903 -0.21100
C 	C 	0.61765 0.40698 0.96765 0.12300
H 	H 	0.59250 0.41550 0.93990 -0.05000
N 	N 	0.16093 0.93643 0.97903 -0.20200
C 	C 	0.11765 0.90698 0.96765 0.12400
H 	H 	0.09250 0.91550 0.93990 -0.04800
N 	N 	0.16093 0.43643 0.47903 -0.22300
C 	C 	0.11765 0.40698 0.46765 0.08200
H 	H 	0.09250 0.41550 0.43990 -0.04700
N 	N 	0.08907 0.31357 0.97903 -0.21400
C 	C 	0.13235 0.34302 0.96765 0.12100
H 	H 	0.15750 0.33450 0.93990 -0.05000
N 	N 	0.08907 0.81357 0.47903 -0.22400
C 	C 	0.13235 0.84302 0.46765 0.08300
H 	H 	0.15750 0.83450 0.43990 -0.04200
N 	N 	0.58907 0.31357 0.47903 -0.22200
C 	C 	0.63235 0.34302 0.46765 0.08300
H 	H 	0.65750 0.33450 0.43990 -0.04200
N 	N 	0.58907 0.81357 0.97903 -0.21100
C 	C 	0.63235 0.84302 0.96765 0.12500
H 	H 	0.65750 0.83450 0.93990 -0.04900
N 	N 	0.58907 0.43643 0.27097 -0.22200
C 	C 	0.63235 0.40698 0.28235 0.08300
H 	H 	0.65750 0.41550 0.31010 -0.04200
N 	N 	0.58907 0.93643 0.77097 -0.21200
C 	C 	0.63235 0.90698 0.78235 0.08600
H 	H 	0.65750 0.91550 0.81010 -0.03600
N 	N 	0.08907 0.43643 0.77097 -0.22400
C 	C 	0.13235 0.40698 0.78235 0.08200
H 	H 	0.15750 0.41550 0.81010 -0.04200
N 	N 	0.08907 0.93643 0.27097 -0.21500
C 	C 	0.13235 0.90698 0.28235 0.08500
H 	H 	0.15750 0.91550 0.31010 -0.03700
Cu	Cu	0.80640 0.00000 0.05640 0.83800
Cu	Cu	0.80640 0.50000 0.55640 0.85700
Cu	Cu	0.44360 0.75000 0.55640 0.85600
Cu	Cu	0.44360 0.25000 0.05640 0.85000
Cu	Cu	0.94360 0.50000 0.19360 0.86200
Cu	Cu	0.94360 0.00000 0.69360 0.84900
Cu	Cu	0.30640 0.25000 0.69360 0.85600
Cu	Cu	0.30640 0.75000 0.19360 0.85600
Cu	Cu	0.05640 0.80640 -0.00000 0.83800
Cu	Cu	0.05640 0.30640 0.50000 0.85000
Cu	Cu	0.55640 0.44360 0.75000 0.85600
Cu	Cu	0.55640 0.94360 0.25000 0.86200
Cu	Cu	0.19360 0.94360 0.50000 0.86200
Cu	Cu	0.19360 0.44360 -0.00000 0.84300
Cu	Cu	0.69360 0.30640 0.25000 0.85600
Cu	Cu	0.69360 0.80640 0.75000 0.85700
Cu	Cu	0.00000 0.05640 0.80640 0.83800
Cu	Cu	0.50000 0.05640 0.30640 0.85000
Cu	Cu	0.75000 0.55640 0.44360 0.85600
Cu	Cu	0.25000 0.55640 0.94360 0.86200
Cu	Cu	0.50000 0.19360 0.94360 0.86200
Cu	Cu	0.00000 0.19360 0.44360 0.84300
Cu	Cu	0.25000 0.69360 0.30640 0.85600
Cu	Cu	0.75000 0.69360 0.80640 0.85700
Cu	Cu	0.75000 0.05640 0.94360 0.85700
Cu	Cu	0.25000 0.05640 0.44360 0.85000
Cu	Cu	0.50000 0.69360 0.44360 0.85600
Cu	Cu	0.00000 0.69360 0.94360 0.84900
Cu	Cu	0.25000 0.19360 0.80640 0.85600
Cu	Cu	0.75000 0.19360 0.30640 0.85600
Cu	Cu	0.00000 0.55640 0.30640 0.84300
Cu	Cu	0.50000 0.55640 0.80640 0.85700
Cu	Cu	0.55640 0.30640 -0.00000 0.84300
Cu	Cu	0.55640 0.80640 0.50000 0.85700
Cu	Cu	0.19360 0.80640 0.25000 0.85600
Cu	Cu	0.19360 0.30640 0.75000 0.85600
Cu	Cu	0.69360 0.44360 0.50000 0.85600
Cu	Cu	0.69360 0.94360 -0.00000 0.84900
Cu	Cu	0.05640 0.94360 0.75000 0.85700
Cu	Cu	0.05640 0.44360 0.25000 0.85000
Cu	Cu	0.80640 0.25000 0.19360 0.85600
Cu	Cu	0.80640 0.75000 0.69360 0.85700
Cu	Cu	0.30640 0.00000 0.55640 0.84300
Cu	Cu	0.30640 0.50000 0.05640 0.85000
Cu	Cu	0.94360 0.75000 0.05640 0.85700
Cu	Cu	0.94360 0.25000 0.55640 0.86200
Cu	Cu	0.44360 0.50000 0.69360 0.85600
Cu	Cu	0.44360 0.00000 0.19360 0.84300
Cu	Cu	0.19360 0.00000 0.94360 0.84900
Cu	Cu	0.19360 0.50000 0.44360 0.85600
Cu	Cu	0.55640 0.25000 0.44360 0.85600
Cu	Cu	0.55640 0.75000 0.94360 0.86300
Cu	Cu	0.05640 0.50000 0.80640 0.85100
Cu	Cu	0.05640 0.00000 0.30640 0.83700
Cu	Cu	0.69360 0.75000 0.30640 0.85600
Cu	Cu	0.69360 0.25000 0.80640 0.85700
Cu	Cu	0.94360 0.19360 -0.00000 0.84900
Cu	Cu	0.94360 0.69360 0.50000 0.86300
Cu	Cu	0.44360 0.55640 0.25000 0.85600
Cu	Cu	0.44360 0.05640 0.75000 0.85000
Cu	Cu	0.80640 0.05640 0.50000 0.85100
Cu	Cu	0.80640 0.55640 -0.00000 0.84300
Cu	Cu	0.30640 0.69360 0.75000 0.85600
Cu	Cu	0.30640 0.19360 0.25000 0.85500
Cu	Cu	0.00000 0.94360 0.19360 0.84900
Cu	Cu	0.50000 0.94360 0.69360 0.86300
Cu	Cu	0.25000 0.44360 0.55640 0.85600
Cu	Cu	0.75000 0.44360 0.05640 0.85000
Cu	Cu	0.50000 0.80640 0.05640 0.85100
Cu	Cu	-0.00000 0.80640 0.55640 0.84300
Cu	Cu	0.75000 0.30640 0.69360 0.85600
Cu	Cu	0.25000 0.30640 0.19360 0.85500
Cu	Cu	0.25000 0.94360 0.05640 0.85600
Cu	Cu	0.75000 0.94360 0.55640 0.86300
Cu	Cu	0.50000 0.30640 0.55640 0.85600
Cu	Cu	-0.00000 0.30640 0.05640 0.83700
Cu	Cu	0.75000 0.80640 0.19360 0.85700
Cu	Cu	0.25000 0.80640 0.69360 0.85700
Cu	Cu	0.00000 0.44360 0.69360 0.84300
Cu	Cu	0.50000 0.44360 0.19360 0.85600
Cu	Cu	0.44360 0.69360 -0.00000 0.84300
Cu	Cu	0.44360 0.19360 0.50000 0.85600
Cu	Cu	0.80640 0.19360 0.75000 0.85700
Cu	Cu	0.80640 0.69360 0.25000 0.85700
Cu	Cu	0.30640 0.55640 0.50000 0.85600
Cu	Cu	0.30640 0.05640 -0.00000 0.83700
Cu	Cu	0.94360 0.05640 0.25000 0.85600
Cu	Cu	0.94360 0.55640 0.75000 0.86300
Cu	Cu	0.19360 0.75000 0.80640 0.85700
Cu	Cu	0.19360 0.25000 0.30640 0.85500
Cu	Cu	0.69360 0.00000 0.44360 0.84300
Cu	Cu	0.69360 0.50000 0.94360 0.86300
Cu	Cu	0.05640 0.25000 0.94360 0.85600
Cu	Cu	0.05640 0.75000 0.44360 0.85000
Cu	Cu	0.55640 0.50000 0.30640 0.85600
Cu	Cu	0.55640 0.00000 0.80640 0.84300
N 	N 	0.75000 0.86372 0.13628 -0.25400
N 	N 	0.25000 0.86372 0.63628 -0.25400
N 	N 	0.50000 0.88628 0.63628 -0.25300
N 	N 	0.00000 0.88628 0.13628 -0.27700
N 	N 	0.00000 0.36372 0.11372 -0.27800
N 	N 	0.50000 0.36372 0.61372 -0.25400
N 	N 	0.25000 0.38628 0.61372 -0.25500
N 	N 	0.75000 0.38628 0.11372 -0.25600
N 	N 	0.13628 0.75000 0.86372 -0.25400
N 	N 	0.13628 0.25000 0.36372 -0.25500
N 	N 	0.63628 0.50000 0.88628 -0.25300
N 	N 	0.63628 0.00000 0.38628 -0.27800
N 	N 	0.11372 0.00000 0.36372 -0.27800
N 	N 	0.11372 0.50000 0.86372 -0.25500
N 	N 	0.61372 0.25000 0.38628 -0.25500
N 	N 	0.61372 0.75000 0.88628 -0.25300
N 	N 	0.86372 0.13628 0.75000 -0.25400
N 	N 	0.86372 0.63628 0.25000 -0.25400
N 	N 	0.88628 0.63628 0.50000 -0.25300
N 	N 	0.88628 0.13628 -0.00000 -0.27700
N 	N 	0.36372 0.11372 -0.00000 -0.27800
N 	N 	0.36372 0.61372 0.50000 -0.25400
N 	N 	0.38628 0.61372 0.25000 -0.25500
N 	N 	0.38628 0.11372 0.75000 -0.25600
N 	N 	0.61372 0.00000 0.86372 -0.27800
N 	N 	0.61372 0.50000 0.36372 -0.25400
N 	N 	0.63628 0.75000 0.36372 -0.25400
N 	N 	0.63628 0.25000 0.86372 -0.25400
N 	N 	0.11372 0.25000 0.88628 -0.25500
N 	N 	0.11372 0.75000 0.38628 -0.25600
N 	N 	0.13628 0.50000 0.38628 -0.25500
N 	N 	0.13628 0.00000 0.88628 -0.27700
N 	N 	0.50000 0.38628 0.13628 -0.25500
N 	N 	0.00000 0.38628 0.63628 -0.27800
N 	N 	0.25000 0.88628 0.11372 -0.25500
N 	N 	0.75000 0.88628 0.61372 -0.25300
N 	N 	0.75000 0.36372 0.63628 -0.25400
N 	N 	0.25000 0.36372 0.13628 -0.25500
N 	N 	0.00000 0.86372 0.61372 -0.27800
N 	N 	0.50000 0.86372 0.11372 -0.25500
N 	N 	0.88628 0.11372 0.25000 -0.25500
N 	N 	0.88628 0.61372 0.75000 -0.25300
N 	N 	0.38628 0.13628 0.50000 -0.25500
N 	N 	0.38628 0.63628 -0.00000 -0.27800
N 	N 	0.86372 0.61372 -0.00000 -0.27800
N 	N 	0.86372 0.11372 0.50000 -0.25500
N 	N 	0.36372 0.63628 0.75000 -0.25400
N 	N 	0.36372 0.13628 0.25000 -0.25500
N 	N 	0.25000 0.13628 0.86372 -0.25500
N 	N 	0.75000 0.13628 0.36372 -0.25500
N 	N 	0.50000 0.11372 0.36372 -0.25600
N 	N 	0.00000 0.11372 0.86372 -0.27800
N 	N 	0.00000 0.63628 0.88628 -0.27700
N 	N 	0.50000 0.63628 0.38628 -0.25400
N 	N 	0.75000 0.61372 0.38628 -0.25400
N 	N 	0.25000 0.61372 0.88628 -0.25300
N 	N 	0.86372 0.25000 0.13628 -0.25500
N 	N 	0.86372 0.75000 0.63628 -0.25400
N 	N 	0.36372 0.50000 0.11372 -0.25600
N 	N 	0.36372 -0.00000 0.61372 -0.27800
N 	N 	0.88628 0.00000 0.63628 -0.27700
N 	N 	0.88628 0.50000 0.13628 -0.25400
N 	N 	0.38628 0.75000 0.61372 -0.25400
N 	N 	0.38628 0.25000 0.11372 -0.25600
N 	N 	0.13628 0.86372 0.25000 -0.25500
N 	N 	0.13628 0.36372 0.75000 -0.25500
N 	N 	0.11372 0.36372 0.50000 -0.25600
N 	N 	0.11372 0.86372 -0.00000 -0.27800
N 	N 	0.63628 0.88628 -0.00000 -0.27700
N 	N 	0.63628 0.38628 0.50000 -0.25400
N 	N 	0.61372 0.38628 0.75000 -0.25400
N 	N 	0.61372 0.88628 0.25000 -0.25300
N 	N 	0.38628 -0.00000 0.13628 -0.27800
N 	N 	0.38628 0.50000 0.63628 -0.25400
N 	N 	0.36372 0.25000 0.63628 -0.25400
N 	N 	0.36372 0.75000 0.13628 -0.25500
N 	N 	0.88628 0.75000 0.11372 -0.25400
N 	N 	0.88628 0.25000 0.61372 -0.25300
N 	N 	0.86372 0.50000 0.61372 -0.25400
N 	N 	0.86372 0.00000 0.11372 -0.27800
N 	N 	0.50000 0.61372 0.86372 -0.25400
N 	N 	0.00000 0.61372 0.36372 -0.27800
N 	N 	0.75000 0.11372 0.88628 -0.25400
N 	N 	0.25000 0.11372 0.38628 -0.25600
N 	N 	0.25000 0.63628 0.36372 -0.25400
N 	N 	0.75000 0.63628 0.86372 -0.25400
N 	N 	0.00000 0.13628 0.38628 -0.27800
N 	N 	0.50000 0.13628 0.88628 -0.25400
N 	N 	0.11372 0.88628 0.75000 -0.25400
N 	N 	0.11372 0.38628 0.25000 -0.25600
N 	N 	0.61372 0.86372 0.50000 -0.25400
N 	N 	0.61372 0.36372 -0.00000 -0.27800
N 	N 	0.13628 0.38628 -0.00000 -0.27800
N 	N 	0.13628 0.88628 0.50000 -0.25400
N 	N 	0.63628 0.36372 0.25000 -0.25400
N 	N 	0.63628 0.86372 0.75000 -0.25400
O 	O 	0.73882 0.01118 0.01118 -0.46900
O 	O 	0.51118 0.73882 0.51118 -0.35800
O 	O 	0.01118 0.51118 0.23882 -0.41400
O 	O 	0.23882 0.23882 0.73882 -0.36000
O 	O 	0.01118 0.73882 0.01118 -0.46900
O 	O 	0.01118 0.23882 0.51118 -0.41400
O 	O 	0.51118 0.51118 0.73882 -0.35800
O 	O 	0.51118 0.01118 0.23882 -0.41400
O 	O 	0.23882 0.01118 0.51118 -0.41400
O 	O 	0.23882 0.51118 0.01118 -0.41400
O 	O 	0.73882 0.23882 0.23882 -0.36000
O 	O 	0.73882 0.73882 0.73882 -0.35900
O 	O 	0.01118 0.01118 0.73882 -0.46900
O 	O 	0.73882 0.51118 0.51118 -0.35800
O 	O 	0.51118 0.23882 0.01118 -0.41400
O 	O 	0.23882 0.73882 0.23882 -0.36000
O 	O 	0.76118 0.98882 0.98882 -0.23600
O 	O 	0.48882 0.76118 0.48882 -0.35600
O 	O 	0.26118 0.26118 0.76118 -0.35500
O 	O 	0.98882 0.48882 0.26118 -0.29800
O 	O 	0.48882 0.26118 0.98882 -0.29800
O 	O 	0.26118 0.76118 0.26118 -0.35500
O 	O 	0.76118 0.48882 0.48882 -0.35600
O 	O 	0.98882 0.98882 0.76118 -0.23600
O 	O 	0.76118 0.26118 0.26118 -0.35500
O 	O 	0.76118 0.76118 0.76118 -0.35300
O 	O 	0.26118 0.98882 0.48882 -0.29800
O 	O 	0.26118 0.48882 0.98882 -0.29800
O 	O 	0.98882 0.76118 0.98882 -0.23600
O 	O 	0.98882 0.26118 0.48882 -0.29800
O 	O 	0.48882 0.48882 0.76118 -0.35600
O 	O 	0.48882 0.98882 0.26118 -0.29800
O 	O 	0.26118 0.98882 0.98882 -0.24000
O 	O 	0.48882 0.26118 0.48882 -0.35700
O 	O 	0.98882 0.48882 0.76118 -0.29500
O 	O 	0.76118 0.76118 0.26118 -0.35400
O 	O 	0.98882 0.26118 0.98882 -0.24000
O 	O 	0.98882 0.76118 0.48882 -0.29500
O 	O 	0.48882 0.48882 0.26118 -0.35700
O 	O 	0.48882 0.98882 0.76118 -0.29500
O 	O 	0.76118 0.98882 0.48882 -0.29500
O 	O 	0.76118 0.48882 0.98882 -0.29500
O 	O 	0.26118 0.76118 0.76118 -0.35400
O 	O 	0.26118 0.26118 0.26118 -0.35600
O 	O 	0.98882 0.98882 0.26118 -0.24000
O 	O 	0.26118 0.48882 0.48882 -0.35700
O 	O 	0.48882 0.76118 0.98882 -0.29500
O 	O 	0.76118 0.26118 0.76118 -0.35400
O 	O 	0.23882 0.01118 0.01118 -0.46700
O 	O 	0.51118 0.23882 0.51118 -0.35800
O 	O 	0.73882 0.73882 0.23882 -0.35900
O 	O 	0.01118 0.51118 0.73882 -0.41500
O 	O 	0.51118 0.73882 0.01118 -0.41500
O 	O 	0.73882 0.23882 0.73882 -0.35900
O 	O 	0.23882 0.51118 0.51118 -0.35800
O 	O 	0.01118 0.01118 0.23882 -0.46700
O 	O 	0.23882 0.73882 0.73882 -0.35900
O 	O 	0.23882 0.23882 0.23882 -0.36000
O 	O 	0.73882 0.01118 0.51118 -0.41500
O 	O 	0.73882 0.51118 0.01118 -0.41500
O 	O 	0.01118 0.23882 0.01118 -0.46700
O 	O 	0.01118 0.73882 0.51118 -0.41500
O 	O 	0.51118 0.51118 0.23882 -0.35800
O 	O 	0.51118 0.01118 0.73882 -0.41500
