data_crystal

_cell_length_a 26.93900
_cell_length_b 12.33500
_cell_length_c 33.45800
_cell_angle_alpha 90.00000
_cell_angle_beta  90.00000
_cell_angle_gamma 90.00000

_symmetry_space_group_name_	'P 1'
_symmetry_space_group_name_H-M	'P 1'

loop_
_symmetry_equiv_pos_as_xyz
  x,y,z

loop_
_atom_site_label
_atom_site_type_symbol
_atom_site_fract_x
_atom_site_fract_y
_atom_site_fract_z
_atom_site_charge
Ag	Ag	0.77889 0.26124 0.63987 0.52300
Fe	Fe	0.43123 0.47744 0.61377 1.18800
C 	C 	0.48830 0.66490 0.64419 0.03000
H 	H 	0.46000 0.71070 0.64400 0.01100
C 	C 	0.53540 0.69760 0.65820 -0.03900
H 	H 	0.54410 0.76610 0.66910 0.03500
C 	C 	0.56520 0.61190 0.65300 -0.10600
H 	H 	0.59960 0.60910 0.65920 0.06400
C 	C 	0.53670 0.52600 0.63676 0.11300
C 	C 	0.55250 0.42100 0.62579 -0.16100
C 	C 	0.52390 0.34300 0.60873 0.11400
C 	C 	0.53910 0.23690 0.59610 -0.10300
H 	H 	0.57150 0.20690 0.59790 0.06100
C 	C 	0.49700 0.18670 0.58080 -0.05000
H 	H 	0.49480 0.11530 0.57030 0.04000
C 	C 	0.45910 0.26130 0.58390 0.03100
H 	H 	0.42620 0.24710 0.57510 0.01000
C 	C 	0.60580 0.39480 0.63340 0.15200
C 	C 	0.61920 0.31760 0.66072 -0.20200
H 	H 	0.59470 0.28220 0.67640 0.09400
C 	C 	0.66780 0.29190 0.66528 0.10100
H 	H 	0.67620 0.23840 0.68460 -0.02400
C 	C 	0.69130 0.41580 0.61900 0.10300
H 	H 	0.71690 0.45250 0.60500 -0.02900
C 	C 	0.64410 0.44690 0.61190 -0.20100
H 	H 	0.63680 0.50220 0.59300 0.09800
C 	C 	0.97080 0.89810 0.45432 0.02400
H 	H 	0.99330 0.85900 0.43790 0.01100
C 	C 	0.96610 0.88520 0.49590 -0.03200
H 	H 	0.98420 0.83580 0.51210 0.04100
C 	C 	0.93180 0.95470 0.50850 -0.10600
H 	H 	0.92130 0.96550 0.53530 0.06700
C 	C 	0.91390 0.00910 0.47450 0.11300
C 	C 	0.87330 0.08630 0.47210 -0.15600
C 	C 	0.85380 0.12550 0.43770 0.12000
C 	C 	0.81150 0.19670 0.43370 -0.10200
H 	H 	0.79240 0.22740 0.45480 0.06400
C 	C 	0.80440 0.21110 0.39380 -0.04500
H 	H 	0.77870 0.25150 0.38140 0.04200
C 	C 	0.84310 0.15370 0.37430 0.03400
H 	H 	0.84780 0.15180 0.34620 0.00800
C 	C 	0.85150 0.12030 0.51064 0.13100
C 	C 	0.88070 0.18760 0.53750 -0.16700
H 	H 	0.91420 0.20540 0.53140 0.08300
C 	C 	0.85880 0.22500 0.57220 0.07800
H 	H 	0.87830 0.26690 0.59010 -0.01500
C 	C 	0.78570 0.13760 0.55750 0.08800
H 	H 	0.75300 0.11790 0.56510 -0.02100
C 	C 	0.80412 0.09600 0.52260 -0.18400
H 	H 	0.78400 0.05000 0.50660 0.08800
C 	C 	0.86830 0.16750 0.90100 0.02600
H 	H 	0.87540 0.16590 0.92880 0.01100
C 	C 	0.83700 0.24310 0.88280 -0.04100
H 	H 	0.81870 0.29950 0.89530 0.03900
C 	C 	0.83850 0.21800 0.84260 -0.10900
H 	H 	0.82080 0.25390 0.82190 0.06600
C 	C 	0.87110 0.12940 0.83780 0.12000
C 	C 	0.88130 0.07390 0.80230 -0.15200
C 	C 	0.90800 0.98010 0.79920 0.10900
C 	C 	0.91610 0.91840 0.76360 -0.09600
H 	H 	0.90530 0.93590 0.73730 0.06500
C 	C 	0.94270 0.82840 0.77510 -0.05400
H 	H 	0.95520 0.77290 0.75820 0.04100
C 	C 	0.94790 0.83470 0.81670 0.04700
H 	H 	0.96410 0.78130 0.83250 0.00400
C 	C 	0.85850 0.12090 0.76450 0.12900
C 	C 	0.82150 0.05960 0.74360 -0.17300
H 	H 	0.81140 0.99020 0.75280 0.08400
C 	C 	0.80110 0.10450 0.70960 0.09900
H 	H 	0.77560 0.06610 0.69600 -0.02700
C 	C 	0.85010 0.25830 0.71480 0.07500
H 	H 	0.85930 0.32690 0.70420 -0.01800
C 	C 	0.87250 0.22110 0.75020 -0.17000
H 	H 	0.89660 0.26360 0.76380 0.08400
N 	N 	0.48802 0.56300 0.63123 -0.25600
N 	N 	0.47287 0.35570 0.60028 -0.26000
N 	N 	0.70480 0.33720 0.64432 -0.21300
N 	N 	0.93912 0.97350 0.44143 -0.25500
N 	N 	0.87147 0.10370 0.40012 -0.25900
N 	N 	0.81114 0.20500 0.58192 -0.20300
N 	N 	0.88714 0.09720 0.87432 -0.26100
N 	N 	0.92802 0.92140 0.83121 -0.25700
N 	N 	0.81540 0.19740 0.69556 -0.20400
Co	Co	0.93123 0.02256 0.38623 1.16900
Ag	Ag	0.27889 0.23876 0.36013 0.52200
C 	C 	0.98830 0.83510 0.35581 0.02700
H 	H 	0.96000 0.78930 0.35600 0.01100
C 	C 	0.03540 0.80240 0.34180 -0.03700
H 	H 	0.04410 0.73390 0.33090 0.03500
C 	C 	0.06520 0.88810 0.34700 -0.10700
H 	H 	0.09960 0.89090 0.34080 0.06500
C 	C 	0.03670 0.97400 0.36324 0.11600
C 	C 	0.05250 0.07900 0.37421 -0.16200
C 	C 	0.02390 0.15700 0.39127 0.11500
C 	C 	0.03910 0.26310 0.40390 -0.10300
H 	H 	0.07150 0.29310 0.40210 0.06100
C 	C 	0.99700 0.31330 0.41920 -0.04900
H 	H 	0.99480 0.38470 0.42970 0.03900
C 	C 	0.95910 0.23870 0.41610 0.03000
H 	H 	0.92620 0.25290 0.42490 0.01100
C 	C 	0.10580 0.10520 0.36660 0.15300
C 	C 	0.11920 0.18240 0.33928 -0.20300
H 	H 	0.09470 0.21780 0.32360 0.09400
C 	C 	0.16780 0.20810 0.33472 0.10200
H 	H 	0.17620 0.26160 0.31540 -0.02400
C 	C 	0.19130 0.08420 0.38100 0.10400
H 	H 	0.21690 0.04750 0.39500 -0.03000
C 	C 	0.14410 0.05310 0.38810 -0.20400
H 	H 	0.13680 0.99780 0.40700 0.09900
C 	C 	0.47080 0.60190 0.54568 0.02500
H 	H 	0.49330 0.64100 0.56210 0.01000
C 	C 	0.46610 0.61480 0.50410 -0.03300
H 	H 	0.48420 0.66420 0.48790 0.04100
C 	C 	0.43180 0.54530 0.49150 -0.10700
H 	H 	0.42130 0.53450 0.46470 0.06800
C 	C 	0.41390 0.49090 0.52550 0.11400
C 	C 	0.37330 0.41370 0.52790 -0.15700
C 	C 	0.35380 0.37450 0.56230 0.12000
C 	C 	0.31150 0.30330 0.56630 -0.10300
H 	H 	0.29240 0.27260 0.54520 0.06400
C 	C 	0.30440 0.28890 0.60620 -0.04600
H 	H 	0.27870 0.24850 0.61860 0.04200
C 	C 	0.34310 0.34630 0.62570 0.03600
H 	H 	0.34780 0.34820 0.65380 0.00700
C 	C 	0.35150 0.37970 0.48936 0.13200
C 	C 	0.38070 0.31240 0.46250 -0.16700
H 	H 	0.41420 0.29460 0.46860 0.08300
C 	C 	0.35880 0.27500 0.42780 0.07800
H 	H 	0.37830 0.23310 0.40990 -0.01500
C 	C 	0.28570 0.36240 0.44250 0.08900
H 	H 	0.25300 0.38210 0.43490 -0.02100
C 	C 	0.30412 0.40400 0.47740 -0.18500
H 	H 	0.28400 0.45000 0.49340 0.08800
C 	C 	0.36830 0.33250 0.09900 0.02500
H 	H 	0.37540 0.33410 0.07120 0.01200
C 	C 	0.33700 0.25690 0.11720 -0.04000
H 	H 	0.31870 0.20050 0.10470 0.03900
C 	C 	0.33850 0.28200 0.15740 -0.10900
H 	H 	0.32080 0.24610 0.17810 0.06600
C 	C 	0.37110 0.37060 0.16220 0.12100
C 	C 	0.38130 0.42610 0.19770 -0.15400
C 	C 	0.40800 0.51990 0.20080 0.11200
C 	C 	0.41610 0.58160 0.23640 -0.09700
H 	H 	0.40530 0.56410 0.26270 0.06600
C 	C 	0.44270 0.67160 0.22490 -0.05200
H 	H 	0.45520 0.72710 0.24180 0.04000
C 	C 	0.44790 0.66530 0.18330 0.04600
H 	H 	0.46410 0.71870 0.16750 0.00600
C 	C 	0.35850 0.37910 0.23550 0.13100
C 	C 	0.32150 0.44040 0.25640 -0.17800
H 	H 	0.31140 0.50980 0.24720 0.08700
C 	C 	0.30110 0.39550 0.29040 0.10100
H 	H 	0.27560 0.43390 0.30400 -0.02800
C 	C 	0.35010 0.24170 0.28520 0.07600
H 	H 	0.35930 0.17310 0.29580 -0.01800
C 	C 	0.37250 0.27890 0.24980 -0.17100
H 	H 	0.39660 0.23640 0.23620 0.08500
N 	N 	0.98802 0.93700 0.36877 -0.25500
N 	N 	0.97287 0.14430 0.39972 -0.25900
N 	N 	0.20480 0.16280 0.35568 -0.21400
N 	N 	0.43912 0.52650 0.55857 -0.25600
N 	N 	0.37147 0.39630 0.59988 -0.26000
N 	N 	0.31114 0.29500 0.41808 -0.20300
N 	N 	0.38714 0.40280 0.12568 -0.26000
N 	N 	0.42802 0.57860 0.16879 -0.25600
N 	N 	0.31540 0.30260 0.30444 -0.20500
Ag	Ag	0.27889 0.76124 0.86013 0.52200
Fe	Fe	0.93123 0.97744 0.88623 1.18600
C 	C 	0.98830 0.16490 0.85581 0.02800
H 	H 	0.96000 0.21070 0.85600 0.01000
C 	C 	0.03540 0.19760 0.84180 -0.03900
H 	H 	0.04410 0.26610 0.83090 0.03500
C 	C 	0.06520 0.11190 0.84700 -0.10700
H 	H 	0.09960 0.10910 0.84080 0.06500
C 	C 	0.03670 0.02600 0.86324 0.11600
C 	C 	0.05250 0.92100 0.87421 -0.16400
C 	C 	0.02390 0.84300 0.89127 0.11500
C 	C 	0.03910 0.73690 0.90390 -0.10300
H 	H 	0.07150 0.70690 0.90210 0.06100
C 	C 	0.99700 0.68670 0.91920 -0.05000
H 	H 	0.99480 0.61530 0.92970 0.04000
C 	C 	0.95910 0.76130 0.91610 0.03100
H 	H 	0.92620 0.74710 0.92490 0.01000
C 	C 	0.10580 0.89480 0.86660 0.15400
C 	C 	0.11920 0.81760 0.83928 -0.20400
H 	H 	0.09470 0.78220 0.82360 0.09400
C 	C 	0.16780 0.79190 0.83472 0.10200
H 	H 	0.17620 0.73840 0.81540 -0.02400
C 	C 	0.19130 0.91580 0.88100 0.10400
H 	H 	0.21690 0.95250 0.89500 -0.03000
C 	C 	0.14410 0.94690 0.88810 -0.20500
H 	H 	0.13680 0.00220 0.90700 0.10000
C 	C 	0.47080 0.39810 0.04568 0.02400
H 	H 	0.49330 0.35900 0.06210 0.01100
C 	C 	0.46610 0.38520 0.00410 -0.03200
H 	H 	0.48420 0.33580 0.98790 0.04100
C 	C 	0.43180 0.45470 0.99150 -0.10700
H 	H 	0.42130 0.46550 0.96470 0.06800
C 	C 	0.41390 0.50910 0.02550 0.11400
C 	C 	0.37330 0.58630 0.02790 -0.15600
C 	C 	0.35380 0.62550 0.06230 0.12000
C 	C 	0.31150 0.69670 0.06630 -0.10200
H 	H 	0.29240 0.72740 0.04520 0.06400
C 	C 	0.30440 0.71110 0.10620 -0.04500
H 	H 	0.27870 0.75150 0.11860 0.04200
C 	C 	0.34310 0.65370 0.12570 0.03400
H 	H 	0.34780 0.65180 0.15380 0.00900
C 	C 	0.35150 0.62030 0.98936 0.13100
C 	C 	0.38070 0.68760 0.96250 -0.16700
H 	H 	0.41420 0.70540 0.96860 0.08300
C 	C 	0.35880 0.72500 0.92780 0.07800
H 	H 	0.37830 0.76690 0.90990 -0.01500
C 	C 	0.28570 0.63760 0.94250 0.08800
H 	H 	0.25300 0.61790 0.93490 -0.02100
C 	C 	0.30412 0.59600 0.97740 -0.18400
H 	H 	0.28400 0.55000 0.99340 0.08800
C 	C 	0.36830 0.66750 0.59900 0.02600
H 	H 	0.37540 0.66590 0.57120 0.01100
C 	C 	0.33700 0.74310 0.61720 -0.04100
H 	H 	0.31870 0.79950 0.60470 0.03900
C 	C 	0.33850 0.71800 0.65740 -0.11000
H 	H 	0.32080 0.75390 0.67810 0.06600
C 	C 	0.37110 0.62940 0.66220 0.12100
C 	C 	0.38130 0.57390 0.69770 -0.15600
C 	C 	0.40800 0.48010 0.70080 0.11200
C 	C 	0.41610 0.41840 0.73640 -0.09700
H 	H 	0.40530 0.43590 0.76270 0.06600
C 	C 	0.44270 0.32840 0.72490 -0.05300
H 	H 	0.45520 0.27290 0.74180 0.04100
C 	C 	0.44790 0.33470 0.68330 0.04700
H 	H 	0.46410 0.28130 0.66750 0.00500
C 	C 	0.35850 0.62090 0.73550 0.13100
C 	C 	0.32150 0.55960 0.75640 -0.17900
H 	H 	0.31140 0.49020 0.74720 0.08700
C 	C 	0.30110 0.60450 0.79040 0.10100
H 	H 	0.27560 0.56610 0.80400 -0.02800
C 	C 	0.35010 0.75830 0.78520 0.07600
H 	H 	0.35930 0.82690 0.79580 -0.01800
C 	C 	0.37250 0.72110 0.74980 -0.17100
H 	H 	0.39660 0.76360 0.73620 0.08500
N 	N 	0.98802 0.06300 0.86877 -0.25600
N 	N 	0.97287 0.85570 0.89972 -0.26000
N 	N 	0.20480 0.83720 0.85568 -0.21400
N 	N 	0.43912 0.47350 0.05857 -0.25500
N 	N 	0.37147 0.60370 0.09988 -0.25900
N 	N 	0.31114 0.70500 0.91808 -0.20300
N 	N 	0.38714 0.59720 0.62568 -0.26100
N 	N 	0.42802 0.42140 0.66879 -0.25700
N 	N 	0.31540 0.69740 0.80444 -0.20500
Co	Co	0.43123 0.52256 0.11377 1.17000
Ag	Ag	0.77889 0.73876 0.13987 0.52200
C 	C 	0.48830 0.33510 0.14419 0.02800
H 	H 	0.46000 0.28930 0.14400 0.01100
C 	C 	0.53540 0.30240 0.15820 -0.03800
H 	H 	0.54410 0.23390 0.16910 0.03500
C 	C 	0.56520 0.38810 0.15300 -0.10500
H 	H 	0.59960 0.39090 0.15920 0.06400
C 	C 	0.53670 0.47400 0.13676 0.11300
C 	C 	0.55250 0.57900 0.12579 -0.16000
C 	C 	0.52390 0.65700 0.10873 0.11400
C 	C 	0.53910 0.76310 0.09610 -0.10200
H 	H 	0.57150 0.79310 0.09790 0.06100
C 	C 	0.49700 0.81330 0.08080 -0.04900
H 	H 	0.49480 0.88470 0.07030 0.04000
C 	C 	0.45910 0.73870 0.08390 0.03000
H 	H 	0.42620 0.75290 0.07510 0.01100
C 	C 	0.60580 0.60520 0.13340 0.15100
C 	C 	0.61920 0.68240 0.16072 -0.20200
H 	H 	0.59470 0.71780 0.17640 0.09400
C 	C 	0.66780 0.70810 0.16528 0.10100
H 	H 	0.67620 0.76160 0.18460 -0.02400
C 	C 	0.69130 0.58420 0.11900 0.10300
H 	H 	0.71690 0.54750 0.10500 -0.02900
C 	C 	0.64410 0.55310 0.11190 -0.20000
H 	H 	0.63680 0.49780 0.09300 0.09800
C 	C 	0.97080 0.10190 0.95432 0.02400
H 	H 	0.99330 0.14100 0.93790 0.01000
C 	C 	0.96610 0.11480 0.99590 -0.03100
H 	H 	0.98420 0.16420 0.01210 0.04000
C 	C 	0.93180 0.04530 0.00850 -0.10800
H 	H 	0.92130 0.03450 0.03530 0.06800
C 	C 	0.91390 0.99090 0.97450 0.11300
C 	C 	0.87330 0.91370 0.97210 -0.15700
C 	C 	0.85380 0.87450 0.93770 0.12000
C 	C 	0.81150 0.80330 0.93370 -0.10300
H 	H 	0.79240 0.77260 0.95480 0.06400
C 	C 	0.80440 0.78890 0.89380 -0.04600
H 	H 	0.77870 0.74850 0.88140 0.04200
C 	C 	0.84310 0.84630 0.87430 0.03500
H 	H 	0.84780 0.84820 0.84620 0.00700
C 	C 	0.85150 0.87970 0.01064 0.13200
C 	C 	0.88070 0.81240 0.03750 -0.16700
H 	H 	0.91420 0.79460 0.03140 0.08300
C 	C 	0.85880 0.77500 0.07220 0.07800
H 	H 	0.87830 0.73310 0.09010 -0.01500
C 	C 	0.78570 0.86240 0.05750 0.08900
H 	H 	0.75300 0.88210 0.06510 -0.02100
C 	C 	0.80412 0.90400 0.02260 -0.18500
H 	H 	0.78400 0.95000 0.00660 0.08900
C 	C 	0.86830 0.83250 0.40100 0.02500
H 	H 	0.87540 0.83410 0.42880 0.01300
C 	C 	0.83700 0.75690 0.38280 -0.04000
H 	H 	0.81870 0.70050 0.39530 0.03900
C 	C 	0.83850 0.78200 0.34260 -0.10900
H 	H 	0.82080 0.74610 0.32190 0.06600
C 	C 	0.87110 0.87060 0.33780 0.12000
C 	C 	0.88130 0.92610 0.30230 -0.15100
C 	C 	0.90800 0.01990 0.29920 0.10900
C 	C 	0.91610 0.08160 0.26360 -0.09600
H 	H 	0.90530 0.06410 0.23730 0.06500
C 	C 	0.94270 0.17160 0.27510 -0.05300
H 	H 	0.95520 0.22710 0.25820 0.04000
C 	C 	0.94790 0.16530 0.31670 0.04600
H 	H 	0.96410 0.21870 0.33250 0.00500
C 	C 	0.85850 0.87910 0.26450 0.12900
C 	C 	0.82150 0.94040 0.24360 -0.17300
H 	H 	0.81140 0.00980 0.25280 0.08400
C 	C 	0.80110 0.89550 0.20960 0.09900
H 	H 	0.77560 0.93390 0.19600 -0.02700
C 	C 	0.85010 0.74170 0.21480 0.07500
H 	H 	0.85930 0.67310 0.20420 -0.01800
C 	C 	0.87250 0.77890 0.25020 -0.16900
H 	H 	0.89660 0.73640 0.26380 0.08400
N 	N 	0.48802 0.43700 0.13123 -0.25600
N 	N 	0.47287 0.64430 0.10028 -0.25900
N 	N 	0.70480 0.66280 0.14432 -0.21300
N 	N 	0.93912 0.02650 0.94143 -0.25500
N 	N 	0.87147 0.89630 0.90012 -0.26000
N 	N 	0.81114 0.79500 0.08192 -0.20300
N 	N 	0.88714 0.90280 0.37432 -0.26000
N 	N 	0.92802 0.07860 0.33121 -0.25600
N 	N 	0.81540 0.80260 0.19556 -0.20400
Ag	Ag	0.72111 0.23876 0.13987 0.52200
Fe	Fe	0.06877 0.02256 0.11377 1.18600
C 	C 	0.01170 0.83510 0.14419 0.02800
H 	H 	0.04000 0.78930 0.14400 0.01000
C 	C 	0.96460 0.80240 0.15820 -0.03900
H 	H 	0.95590 0.73390 0.16910 0.03500
C 	C 	0.93480 0.88810 0.15300 -0.10700
H 	H 	0.90040 0.89090 0.15920 0.06500
C 	C 	0.96330 0.97400 0.13676 0.11600
C 	C 	0.94750 0.07900 0.12579 -0.16400
C 	C 	0.97610 0.15700 0.10873 0.11500
C 	C 	0.96090 0.26310 0.09610 -0.10300
H 	H 	0.92850 0.29310 0.09790 0.06100
C 	C 	0.00300 0.31330 0.08080 -0.05000
H 	H 	0.00520 0.38470 0.07030 0.04000
C 	C 	0.04090 0.23870 0.08390 0.03100
H 	H 	0.07380 0.25290 0.07510 0.01000
C 	C 	0.89420 0.10520 0.13340 0.15400
C 	C 	0.88080 0.18240 0.16072 -0.20400
H 	H 	0.90530 0.21780 0.17640 0.09400
C 	C 	0.83220 0.20810 0.16528 0.10200
H 	H 	0.82380 0.26160 0.18460 -0.02400
C 	C 	0.80870 0.08420 0.11900 0.10400
H 	H 	0.78310 0.04750 0.10500 -0.03000
C 	C 	0.85590 0.05310 0.11190 -0.20500
H 	H 	0.86320 0.99780 0.09300 0.10000
C 	C 	0.52920 0.60190 0.95432 0.02400
H 	H 	0.50670 0.64100 0.93790 0.01100
C 	C 	0.53390 0.61480 0.99590 -0.03200
H 	H 	0.51580 0.66420 0.01210 0.04100
C 	C 	0.56820 0.54530 0.00850 -0.10700
H 	H 	0.57870 0.53450 0.03530 0.06800
C 	C 	0.58610 0.49090 0.97450 0.11400
C 	C 	0.62670 0.41370 0.97210 -0.15600
C 	C 	0.64620 0.37450 0.93770 0.12000
C 	C 	0.68850 0.30330 0.93370 -0.10200
H 	H 	0.70760 0.27260 0.95480 0.06400
C 	C 	0.69560 0.28890 0.89380 -0.04500
H 	H 	0.72130 0.24850 0.88140 0.04200
C 	C 	0.65690 0.34630 0.87430 0.03400
H 	H 	0.65220 0.34820 0.84620 0.00900
C 	C 	0.64850 0.37970 0.01064 0.13100
C 	C 	0.61930 0.31240 0.03750 -0.16700
H 	H 	0.58580 0.29460 0.03140 0.08300
C 	C 	0.64120 0.27500 0.07220 0.07800
H 	H 	0.62170 0.23310 0.09010 -0.01500
C 	C 	0.71430 0.36240 0.05750 0.08800
H 	H 	0.74700 0.38210 0.06510 -0.02100
C 	C 	0.69588 0.40400 0.02260 -0.18400
H 	H 	0.71600 0.45000 0.00660 0.08800
C 	C 	0.63170 0.33250 0.40100 0.02600
H 	H 	0.62460 0.33410 0.42880 0.01100
C 	C 	0.66300 0.25690 0.38280 -0.04100
H 	H 	0.68130 0.20050 0.39530 0.03900
C 	C 	0.66150 0.28200 0.34260 -0.11000
H 	H 	0.67920 0.24610 0.32190 0.06600
C 	C 	0.62890 0.37060 0.33780 0.12100
C 	C 	0.61870 0.42610 0.30230 -0.15600
C 	C 	0.59200 0.51990 0.29920 0.11200
C 	C 	0.58390 0.58160 0.26360 -0.09700
H 	H 	0.59470 0.56410 0.23730 0.06600
C 	C 	0.55730 0.67160 0.27510 -0.05300
H 	H 	0.54480 0.72710 0.25820 0.04100
C 	C 	0.55210 0.66530 0.31670 0.04700
H 	H 	0.53590 0.71870 0.33250 0.00500
C 	C 	0.64150 0.37910 0.26450 0.13100
C 	C 	0.67850 0.44040 0.24360 -0.17900
H 	H 	0.68860 0.50980 0.25280 0.08700
C 	C 	0.69890 0.39550 0.20960 0.10100
H 	H 	0.72440 0.43390 0.19600 -0.02800
C 	C 	0.64990 0.24170 0.21480 0.07600
H 	H 	0.64070 0.17310 0.20420 -0.01800
C 	C 	0.62750 0.27890 0.25020 -0.17100
H 	H 	0.60340 0.23640 0.26380 0.08500
N 	N 	0.01198 0.93700 0.13123 -0.25600
N 	N 	0.02713 0.14430 0.10028 -0.26000
N 	N 	0.79520 0.16280 0.14432 -0.21400
N 	N 	0.56088 0.52650 0.94143 -0.25500
N 	N 	0.62853 0.39630 0.90012 -0.25900
N 	N 	0.68886 0.29500 0.08192 -0.20300
N 	N 	0.61286 0.40280 0.37432 -0.26100
N 	N 	0.57198 0.57860 0.33121 -0.25700
N 	N 	0.68460 0.30260 0.19556 -0.20500
Co	Co	0.56877 0.47744 0.88623 1.17000
Ag	Ag	0.22111 0.26124 0.86013 0.52200
C 	C 	0.51170 0.66490 0.85581 0.02800
H 	H 	0.54000 0.71070 0.85600 0.01100
C 	C 	0.46460 0.69760 0.84180 -0.03800
H 	H 	0.45590 0.76610 0.83090 0.03500
C 	C 	0.43480 0.61190 0.84700 -0.10500
H 	H 	0.40040 0.60910 0.84080 0.06400
C 	C 	0.46330 0.52600 0.86324 0.11300
C 	C 	0.44750 0.42100 0.87421 -0.16000
C 	C 	0.47610 0.34300 0.89127 0.11400
C 	C 	0.46090 0.23690 0.90390 -0.10200
H 	H 	0.42850 0.20690 0.90210 0.06100
C 	C 	0.50300 0.18670 0.91920 -0.04900
H 	H 	0.50520 0.11530 0.92970 0.04000
C 	C 	0.54090 0.26130 0.91610 0.03000
H 	H 	0.57380 0.24710 0.92490 0.01100
C 	C 	0.39420 0.39480 0.86660 0.15100
C 	C 	0.38080 0.31760 0.83928 -0.20200
H 	H 	0.40530 0.28220 0.82360 0.09400
C 	C 	0.33220 0.29190 0.83472 0.10100
H 	H 	0.32380 0.23840 0.81540 -0.02400
C 	C 	0.30870 0.41580 0.88100 0.10300
H 	H 	0.28310 0.45250 0.89500 -0.02900
C 	C 	0.35590 0.44690 0.88810 -0.20000
H 	H 	0.36320 0.50220 0.90700 0.09800
C 	C 	0.02920 0.89810 0.04568 0.02400
H 	H 	0.00670 0.85900 0.06210 0.01000
C 	C 	0.03390 0.88520 0.00410 -0.03100
H 	H 	0.01580 0.83580 0.98790 0.04000
C 	C 	0.06820 0.95470 0.99150 -0.10800
H 	H 	0.07870 0.96550 0.96470 0.06800
C 	C 	0.08610 0.00910 0.02550 0.11300
C 	C 	0.12670 0.08630 0.02790 -0.15700
C 	C 	0.14620 0.12550 0.06230 0.12000
C 	C 	0.18850 0.19670 0.06630 -0.10300
H 	H 	0.20760 0.22740 0.04520 0.06400
C 	C 	0.19560 0.21110 0.10620 -0.04600
H 	H 	0.22130 0.25150 0.11860 0.04200
C 	C 	0.15690 0.15370 0.12570 0.03500
H 	H 	0.15220 0.15180 0.15380 0.00700
C 	C 	0.14850 0.12030 0.98936 0.13200
C 	C 	0.11930 0.18760 0.96250 -0.16700
H 	H 	0.08580 0.20540 0.96860 0.08300
C 	C 	0.14120 0.22500 0.92780 0.07800
H 	H 	0.12170 0.26690 0.90990 -0.01500
C 	C 	0.21430 0.13760 0.94250 0.08900
H 	H 	0.24700 0.11790 0.93490 -0.02100
C 	C 	0.19588 0.09600 0.97740 -0.18500
H 	H 	0.21600 0.05000 0.99340 0.08900
C 	C 	0.13170 0.16750 0.59900 0.02500
H 	H 	0.12460 0.16590 0.57120 0.01300
C 	C 	0.16300 0.24310 0.61720 -0.04000
H 	H 	0.18130 0.29950 0.60470 0.03900
C 	C 	0.16150 0.21800 0.65740 -0.10900
H 	H 	0.17920 0.25390 0.67810 0.06600
C 	C 	0.12890 0.12940 0.66220 0.12000
C 	C 	0.11870 0.07390 0.69770 -0.15100
C 	C 	0.09200 0.98010 0.70080 0.10900
C 	C 	0.08390 0.91840 0.73640 -0.09600
H 	H 	0.09470 0.93590 0.76270 0.06500
C 	C 	0.05730 0.82840 0.72490 -0.05300
H 	H 	0.04480 0.77290 0.74180 0.04000
C 	C 	0.05210 0.83470 0.68330 0.04600
H 	H 	0.03590 0.78130 0.66750 0.00500
C 	C 	0.14150 0.12090 0.73550 0.12900
C 	C 	0.17850 0.05960 0.75640 -0.17300
H 	H 	0.18860 0.99020 0.74720 0.08400
C 	C 	0.19890 0.10450 0.79040 0.09900
H 	H 	0.22440 0.06610 0.80400 -0.02700
C 	C 	0.14990 0.25830 0.78520 0.07500
H 	H 	0.14070 0.32690 0.79580 -0.01800
C 	C 	0.12750 0.22110 0.74980 -0.16900
H 	H 	0.10340 0.26360 0.73620 0.08400
N 	N 	0.51198 0.56300 0.86877 -0.25600
N 	N 	0.52713 0.35570 0.89972 -0.25900
N 	N 	0.29520 0.33720 0.85568 -0.21300
N 	N 	0.06088 0.97350 0.05857 -0.25500
N 	N 	0.12853 0.10370 0.09988 -0.26000
N 	N 	0.18886 0.20500 0.91808 -0.20300
N 	N 	0.11286 0.09720 0.62568 -0.26000
N 	N 	0.07198 0.92140 0.66879 -0.25600
N 	N 	0.18460 0.19740 0.80444 -0.20400
Ag	Ag	0.22111 0.73876 0.36013 0.52200
Fe	Fe	0.56877 0.52256 0.38623 1.18700
C 	C 	0.51170 0.33510 0.35581 0.02900
H 	H 	0.54000 0.28930 0.35600 0.01000
C 	C 	0.46460 0.30240 0.34180 -0.03900
H 	H 	0.45590 0.23390 0.33090 0.03500
C 	C 	0.43480 0.38810 0.34700 -0.10600
H 	H 	0.40040 0.39090 0.34080 0.06400
C 	C 	0.46330 0.47400 0.36324 0.11300
C 	C 	0.44750 0.57900 0.37421 -0.16100
C 	C 	0.47610 0.65700 0.39127 0.11400
C 	C 	0.46090 0.76310 0.40390 -0.10300
H 	H 	0.42850 0.79310 0.40210 0.06100
C 	C 	0.50300 0.81330 0.41920 -0.05000
H 	H 	0.50520 0.88470 0.42970 0.04000
C 	C 	0.54090 0.73870 0.41610 0.03100
H 	H 	0.57380 0.75290 0.42490 0.01000
C 	C 	0.39420 0.60520 0.36660 0.15200
C 	C 	0.38080 0.68240 0.33928 -0.20200
H 	H 	0.40530 0.71780 0.32360 0.09400
C 	C 	0.33220 0.70810 0.33472 0.10100
H 	H 	0.32380 0.76160 0.31540 -0.02400
C 	C 	0.30870 0.58420 0.38100 0.10300
H 	H 	0.28310 0.54750 0.39500 -0.02900
C 	C 	0.35590 0.55310 0.38810 -0.20100
H 	H 	0.36320 0.49780 0.40700 0.09800
C 	C 	0.02920 0.10190 0.54568 0.02400
H 	H 	0.00670 0.14100 0.56210 0.01100
C 	C 	0.03390 0.11480 0.50410 -0.03200
H 	H 	0.01580 0.16420 0.48790 0.04100
C 	C 	0.06820 0.04530 0.49150 -0.10600
H 	H 	0.07870 0.03450 0.46470 0.06700
C 	C 	0.08610 0.99090 0.52550 0.11300
C 	C 	0.12670 0.91370 0.52790 -0.15600
C 	C 	0.14620 0.87450 0.56230 0.12000
C 	C 	0.18850 0.80330 0.56630 -0.10200
H 	H 	0.20760 0.77260 0.54520 0.06400
C 	C 	0.19560 0.78890 0.60620 -0.04500
H 	H 	0.22130 0.74850 0.61860 0.04200
C 	C 	0.15690 0.84630 0.62570 0.03400
H 	H 	0.15220 0.84820 0.65380 0.00800
C 	C 	0.14850 0.87970 0.48936 0.13100
C 	C 	0.11930 0.81240 0.46250 -0.16700
H 	H 	0.08580 0.79460 0.46860 0.08300
C 	C 	0.14120 0.77500 0.42780 0.07800
H 	H 	0.12170 0.73310 0.40990 -0.01500
C 	C 	0.21430 0.86240 0.44250 0.08800
H 	H 	0.24700 0.88210 0.43490 -0.02100
C 	C 	0.19588 0.90400 0.47740 -0.18400
H 	H 	0.21600 0.95000 0.49340 0.08800
C 	C 	0.13170 0.83250 0.09900 0.02600
H 	H 	0.12460 0.83410 0.07120 0.01100
C 	C 	0.16300 0.75690 0.11720 -0.04100
H 	H 	0.18130 0.70050 0.10470 0.03900
C 	C 	0.16150 0.78200 0.15740 -0.10900
H 	H 	0.17920 0.74610 0.17810 0.06600
C 	C 	0.12890 0.87060 0.16220 0.12000
C 	C 	0.11870 0.92610 0.19770 -0.15200
C 	C 	0.09200 0.01990 0.20080 0.10900
C 	C 	0.08390 0.08160 0.23640 -0.09600
H 	H 	0.09470 0.06410 0.26270 0.06500
C 	C 	0.05730 0.17160 0.22490 -0.05400
H 	H 	0.04480 0.22710 0.24180 0.04100
C 	C 	0.05210 0.16530 0.18330 0.04700
H 	H 	0.03590 0.21870 0.16750 0.00400
C 	C 	0.14150 0.87910 0.23550 0.12900
C 	C 	0.17850 0.94040 0.25640 -0.17300
H 	H 	0.18860 0.00980 0.24720 0.08400
C 	C 	0.19890 0.89550 0.29040 0.09900
H 	H 	0.22440 0.93390 0.30400 -0.02700
C 	C 	0.14990 0.74170 0.28520 0.07500
H 	H 	0.14070 0.67310 0.29580 -0.01800
C 	C 	0.12750 0.77890 0.24980 -0.17000
H 	H 	0.10340 0.73640 0.23620 0.08400
N 	N 	0.51198 0.43700 0.36877 -0.25600
N 	N 	0.52713 0.64430 0.39972 -0.26000
N 	N 	0.29520 0.66280 0.35568 -0.21300
N 	N 	0.06088 0.02650 0.55857 -0.25500
N 	N 	0.12853 0.89630 0.59988 -0.25900
N 	N 	0.18886 0.79500 0.41808 -0.20300
N 	N 	0.11286 0.90280 0.12568 -0.26100
N 	N 	0.07198 0.07860 0.16879 -0.25700
N 	N 	0.18460 0.80260 0.30444 -0.20400
Co	Co	0.06877 0.97744 0.61377 1.16900
Ag	Ag	0.72111 0.76124 0.63987 0.52200
C 	C 	0.01170 0.16490 0.64419 0.02700
H 	H 	0.04000 0.21070 0.64400 0.01100
C 	C 	0.96460 0.19760 0.65820 -0.03700
H 	H 	0.95590 0.26610 0.66910 0.03500
C 	C 	0.93480 0.11190 0.65300 -0.10700
H 	H 	0.90040 0.10910 0.65920 0.06500
C 	C 	0.96330 0.02600 0.63676 0.11600
C 	C 	0.94750 0.92100 0.62579 -0.16200
C 	C 	0.97610 0.84300 0.60873 0.11500
C 	C 	0.96090 0.73690 0.59610 -0.10300
H 	H 	0.92850 0.70690 0.59790 0.06100
C 	C 	0.00300 0.68670 0.58080 -0.04900
H 	H 	0.00520 0.61530 0.57030 0.03900
C 	C 	0.04090 0.76130 0.58390 0.03000
H 	H 	0.07380 0.74710 0.57510 0.01100
C 	C 	0.89420 0.89480 0.63340 0.15300
C 	C 	0.88080 0.81760 0.66072 -0.20300
H 	H 	0.90530 0.78220 0.67640 0.09400
C 	C 	0.83220 0.79190 0.66528 0.10200
H 	H 	0.82380 0.73840 0.68460 -0.02400
C 	C 	0.80870 0.91580 0.61900 0.10400
H 	H 	0.78310 0.95250 0.60500 -0.03000
C 	C 	0.85590 0.94690 0.61190 -0.20400
H 	H 	0.86320 0.00220 0.59300 0.09900
C 	C 	0.52920 0.39810 0.45432 0.02500
H 	H 	0.50670 0.35900 0.43790 0.01000
C 	C 	0.53390 0.38520 0.49590 -0.03300
H 	H 	0.51580 0.33580 0.51210 0.04100
C 	C 	0.56820 0.45470 0.50850 -0.10700
H 	H 	0.57870 0.46550 0.53530 0.06800
C 	C 	0.58610 0.50910 0.47450 0.11400
C 	C 	0.62670 0.58630 0.47210 -0.15700
C 	C 	0.64620 0.62550 0.43770 0.12000
C 	C 	0.68850 0.69670 0.43370 -0.10300
H 	H 	0.70760 0.72740 0.45480 0.06400
C 	C 	0.69560 0.71110 0.39380 -0.04600
H 	H 	0.72130 0.75150 0.38140 0.04200
C 	C 	0.65690 0.65370 0.37430 0.03600
H 	H 	0.65220 0.65180 0.34620 0.00700
C 	C 	0.64850 0.62030 0.51064 0.13200
C 	C 	0.61930 0.68760 0.53750 -0.16700
H 	H 	0.58580 0.70540 0.53140 0.08300
C 	C 	0.64120 0.72500 0.57220 0.07800
H 	H 	0.62170 0.76690 0.59010 -0.01500
C 	C 	0.71430 0.63760 0.55750 0.08900
H 	H 	0.74700 0.61790 0.56510 -0.02100
C 	C 	0.69588 0.59600 0.52260 -0.18500
H 	H 	0.71600 0.55000 0.50660 0.08800
C 	C 	0.63170 0.66750 0.90100 0.02500
H 	H 	0.62460 0.66590 0.92880 0.01200
C 	C 	0.66300 0.74310 0.88280 -0.04000
H 	H 	0.68130 0.79950 0.89530 0.03900
C 	C 	0.66150 0.71800 0.84260 -0.10900
H 	H 	0.67920 0.75390 0.82190 0.06600
C 	C 	0.62890 0.62940 0.83780 0.12100
C 	C 	0.61870 0.57390 0.80230 -0.15400
C 	C 	0.59200 0.48010 0.79920 0.11200
C 	C 	0.58390 0.41840 0.76360 -0.09700
H 	H 	0.59470 0.43590 0.73730 0.06600
C 	C 	0.55730 0.32840 0.77510 -0.05200
H 	H 	0.54480 0.27290 0.75820 0.04000
C 	C 	0.55210 0.33470 0.81670 0.04600
H 	H 	0.53590 0.28130 0.83250 0.00600
C 	C 	0.64150 0.62090 0.76450 0.13100
C 	C 	0.67850 0.55960 0.74360 -0.17800
H 	H 	0.68860 0.49020 0.75280 0.08700
C 	C 	0.69890 0.60450 0.70960 0.10100
H 	H 	0.72440 0.56610 0.69600 -0.02800
C 	C 	0.64990 0.75830 0.71480 0.07600
H 	H 	0.64070 0.82690 0.70420 -0.01800
C 	C 	0.62750 0.72110 0.75020 -0.17100
H 	H 	0.60340 0.76360 0.76380 0.08500
N 	N 	0.01198 0.06300 0.63123 -0.25500
N 	N 	0.02713 0.85570 0.60028 -0.25900
N 	N 	0.79520 0.83720 0.64432 -0.21400
N 	N 	0.56088 0.47350 0.44143 -0.25600
N 	N 	0.62853 0.60370 0.40012 -0.26000
N 	N 	0.68886 0.70500 0.58192 -0.20300
N 	N 	0.61286 0.59720 0.87432 -0.26000
N 	N 	0.57198 0.42140 0.83121 -0.25600
N 	N 	0.68460 0.69740 0.69556 -0.20500
