data_crystal

_cell_length_a 26.81300
_cell_length_b 12.60350
_cell_length_c 33.47200
_cell_angle_alpha 90.00000
_cell_angle_beta  90.00000
_cell_angle_gamma 90.00000

_symmetry_space_group_name_	'P 1'
_symmetry_space_group_name_H-M	'P 1'

loop_
_symmetry_equiv_pos_as_xyz
  x,y,z

loop_
_atom_site_label
_atom_site_type_symbol
_atom_site_fract_x
_atom_site_fract_y
_atom_site_fract_z
_atom_site_charge
Ag	Ag	0.27999 0.75796 0.63755 0.52200
Fe	Fe	0.43192 0.51444 0.38527 1.18800
C 	C 	0.34450 0.64870 0.37275 0.02900
H 	H 	0.34880 0.64720 0.34460 0.01200
C 	C 	0.30690 0.70800 0.39299 -0.03900
H 	H 	0.28130 0.74960 0.38110 0.04100
C 	C 	0.31470 0.69340 0.43241 -0.10400
H 	H 	0.29650 0.72530 0.45360 0.06500
C 	C 	0.35539 0.62120 0.43654 0.11300
C 	C 	0.37612 0.58050 0.47181 -0.16000
C 	C 	0.41516 0.50780 0.47369 0.11700
C 	C 	0.43260 0.45350 0.50809 -0.10500
H 	H 	0.42140 0.46380 0.53470 0.06700
C 	C 	0.46810 0.38400 0.49592 -0.03700
H 	H 	0.48610 0.33540 0.51210 0.04200
C 	C 	0.47285 0.39840 0.45429 0.02700
H 	H 	0.49600 0.36110 0.43800 0.00900
C 	C 	0.35377 0.61890 0.50963 0.14400
C 	C 	0.38113 0.68290 0.53525 -0.18700
H 	H 	0.41480 0.69970 0.52920 0.09000
C 	C 	0.35927 0.72240 0.56974 0.09300
H 	H 	0.37830 0.76710 0.58670 -0.02100
C 	C 	0.28630 0.63710 0.55534 0.09900
H 	H 	0.25310 0.61940 0.56280 -0.02500
C 	C 	0.30430 0.59780 0.52062 -0.19300
H 	H 	0.28360 0.55610 0.50380 0.09100
C 	C 	0.44977 0.35540 0.81348 0.01900
H 	H 	0.47030 0.30730 0.82780 0.01500
C 	C 	0.43920 0.34770 0.77232 -0.03000
H 	H 	0.45060 0.29450 0.75440 0.03300
C 	C 	0.40950 0.43140 0.76336 -0.11100
H 	H 	0.39670 0.44800 0.73760 0.07000
C 	C 	0.40070 0.49020 0.79892 0.12100
C 	C 	0.37193 0.58000 0.80436 -0.16400
C 	C 	0.36488 0.63410 0.84001 0.11800
C 	C 	0.33414 0.72340 0.84736 -0.10600
H 	H 	0.31400 0.75910 0.82830 0.06400
C 	C 	0.33870 0.74900 0.88682 -0.04400
H 	H 	0.32290 0.80590 0.90050 0.04000
C 	C 	0.37159 0.67340 0.90299 0.03400
H 	H 	0.38130 0.67160 0.93030 0.00900
C 	C 	0.34631 0.62130 0.76775 0.15600
C 	C 	0.31233 0.56330 0.74679 -0.20100
H 	H 	0.30280 0.49500 0.75610 0.09400
C 	C 	0.29154 0.60290 0.71204 0.10800
H 	H 	0.26800 0.56090 0.69790 -0.02600
C 	C 	0.33570 0.75470 0.71872 0.10400
H 	H 	0.34390 0.82320 0.70890 -0.02900
C 	C 	0.35800 0.72230 0.75338 -0.19700
H 	H 	0.38070 0.76700 0.76720 0.09300
C 	C 	0.98910 0.17250 0.64313 0.02700
H 	H 	0.96020 0.21610 0.64390 0.01100
C 	C 	0.03683 0.20620 0.65436 -0.04000
H 	H 	0.04590 0.27500 0.66350 0.03400
C 	C 	0.06763 0.12210 0.64972 -0.10600
H 	H 	0.10240 0.12080 0.65520 0.05900
C 	C 	0.03874 0.03640 0.63530 0.11700
C 	C 	0.05492 0.93490 0.62534 -0.16500
C 	C 	0.02492 0.85600 0.60942 0.11400
C 	C 	0.04100 0.75310 0.59773 -0.10400
H 	H 	0.07410 0.72630 0.59910 0.06200
C 	C 	0.99970 0.69970 0.58406 -0.04800
H 	H 	0.99840 0.62910 0.57420 0.03900
C 	C 	0.95950 0.77190 0.58778 0.03400
H 	H 	0.92620 0.75600 0.58030 0.00900
C 	C 	0.10826 0.90890 0.63229 0.15600
C 	C 	0.12199 0.83950 0.66214 -0.19800
H 	H 	0.09770 0.81210 0.68000 0.09300
C 	C 	0.17155 0.81000 0.66589 0.09800
H 	H 	0.18020 0.76150 0.68650 -0.02100
C 	C 	0.19440 0.91700 0.61517 0.09800
H 	H 	0.21980 0.94600 0.59870 -0.02600
C 	C 	0.14590 0.95180 0.60941 -0.20500
H 	H 	0.13870 0.00450 0.59000 0.10000
N 	N 	0.37260 0.59580 0.39854 -0.25700
N 	N 	0.44088 0.47100 0.44059 -0.25800
N 	N 	0.31271 0.69980 0.57980 -0.20900
N 	N 	0.42683 0.44020 0.82972 -0.25400
N 	N 	0.38737 0.60590 0.87602 -0.25700
N 	N 	0.30343 0.69730 0.69792 -0.21100
N 	N 	0.98913 0.07120 0.63123 -0.25400
N 	N 	0.97365 0.86360 0.60283 -0.26000
N 	N 	0.20741 0.84560 0.64243 -0.21100
Co	Co	0.43192 0.48556 0.88527 1.16900
Ag	Ag	0.77999 0.74204 0.36245 0.52100
Fe	Fe	0.93192 0.98556 0.61473 1.18600
C 	C 	0.84450 0.85130 0.62725 0.02800
H 	H 	0.84880 0.85280 0.65540 0.01100
C 	C 	0.80690 0.79200 0.60701 -0.04100
H 	H 	0.78130 0.75040 0.61890 0.04000
C 	C 	0.81470 0.80660 0.56759 -0.10500
H 	H 	0.79650 0.77470 0.54640 0.06400
C 	C 	0.85539 0.87880 0.56346 0.11300
C 	C 	0.87612 0.91950 0.52819 -0.15900
C 	C 	0.91516 0.99220 0.52631 0.11600
C 	C 	0.93260 0.04650 0.49191 -0.10400
H 	H 	0.92140 0.03620 0.46530 0.06700
C 	C 	0.96810 0.11600 0.50408 -0.03800
H 	H 	0.98610 0.16460 0.48790 0.04200
C 	C 	0.97285 0.10160 0.54571 0.02800
H 	H 	0.99600 0.13890 0.56200 0.00900
C 	C 	0.85377 0.88110 0.49037 0.14400
C 	C 	0.88113 0.81710 0.46475 -0.18700
H 	H 	0.91480 0.80030 0.47080 0.09000
C 	C 	0.85927 0.77760 0.43026 0.09300
H 	H 	0.87830 0.73290 0.41330 -0.02100
C 	C 	0.78630 0.86290 0.44466 0.09900
H 	H 	0.75310 0.88060 0.43720 -0.02500
C 	C 	0.80430 0.90220 0.47938 -0.19300
H 	H 	0.78360 0.94390 0.49620 0.09100
C 	C 	0.94977 0.14460 0.18652 0.01900
H 	H 	0.97030 0.19270 0.17220 0.01500
C 	C 	0.93920 0.15230 0.22768 -0.03100
H 	H 	0.95060 0.20550 0.24560 0.03300
C 	C 	0.90950 0.06860 0.23664 -0.11000
H 	H 	0.89670 0.05200 0.26240 0.06900
C 	C 	0.90070 0.00980 0.20108 0.11800
C 	C 	0.87193 0.92000 0.19564 -0.16100
C 	C 	0.86488 0.86590 0.15999 0.11700
C 	C 	0.83414 0.77660 0.15264 -0.10600
H 	H 	0.81400 0.74090 0.17170 0.06400
C 	C 	0.83870 0.75100 0.11318 -0.04400
H 	H 	0.82290 0.69410 0.09950 0.04000
C 	C 	0.87159 0.82660 0.09701 0.03400
H 	H 	0.88130 0.82840 0.06970 0.00900
C 	C 	0.84631 0.87870 0.23225 0.15300
C 	C 	0.81233 0.93670 0.25321 -0.19600
H 	H 	0.80280 0.00500 0.24390 0.09200
C 	C 	0.79154 0.89710 0.28796 0.10600
H 	H 	0.76800 0.93910 0.30210 -0.02500
C 	C 	0.83570 0.74530 0.28128 0.10300
H 	H 	0.84390 0.67680 0.29110 -0.02800
C 	C 	0.85800 0.77770 0.24662 -0.19500
H 	H 	0.88070 0.73300 0.23280 0.09300
C 	C 	0.48910 0.32750 0.35687 0.02700
H 	H 	0.46020 0.28390 0.35610 0.01100
C 	C 	0.53683 0.29380 0.34564 -0.04100
H 	H 	0.54590 0.22500 0.33650 0.03400
C 	C 	0.56763 0.37790 0.35028 -0.10400
H 	H 	0.60240 0.37920 0.34480 0.05900
C 	C 	0.53874 0.46360 0.36470 0.11400
C 	C 	0.55492 0.56510 0.37466 -0.16200
C 	C 	0.52492 0.64400 0.39058 0.11300
C 	C 	0.54100 0.74690 0.40227 -0.10300
H 	H 	0.57410 0.77370 0.40090 0.06200
C 	C 	0.49970 0.80030 0.41594 -0.04800
H 	H 	0.49840 0.87090 0.42580 0.03900
C 	C 	0.45950 0.72810 0.41222 0.03400
H 	H 	0.42620 0.74400 0.41970 0.00900
C 	C 	0.60826 0.59110 0.36771 0.15400
C 	C 	0.62199 0.66050 0.33786 -0.19700
H 	H 	0.59770 0.68790 0.32000 0.09200
C 	C 	0.67155 0.69000 0.33411 0.09700
H 	H 	0.68020 0.73850 0.31350 -0.02100
C 	C 	0.69440 0.58300 0.38483 0.09700
H 	H 	0.71980 0.55400 0.40130 -0.02600
C 	C 	0.64590 0.54820 0.39059 -0.20100
H 	H 	0.63870 0.49550 0.41000 0.09800
N 	N 	0.87260 0.90420 0.60146 -0.25700
N 	N 	0.94088 0.02900 0.55941 -0.25700
N 	N 	0.81271 0.80020 0.42020 -0.20900
N 	N 	0.92683 0.05980 0.17028 -0.25400
N 	N 	0.88737 0.89410 0.12398 -0.25700
N 	N 	0.80343 0.80270 0.30208 -0.21000
N 	N 	0.48913 0.42880 0.36877 -0.25500
N 	N 	0.47365 0.63640 0.39717 -0.26000
N 	N 	0.70741 0.65440 0.35757 -0.21000
Co	Co	0.93192 0.01444 0.11473 1.16900
Ag	Ag	0.77999 0.25796 0.86245 0.52100
C 	C 	0.84450 0.14870 0.12725 0.02700
H 	H 	0.84880 0.14720 0.15540 0.01200
C 	C 	0.80690 0.20800 0.10701 -0.03900
H 	H 	0.78130 0.24960 0.11890 0.04000
C 	C 	0.81470 0.19340 0.06759 -0.10500
H 	H 	0.79650 0.22530 0.04640 0.06400
C 	C 	0.85539 0.12120 0.06346 0.11300
C 	C 	0.87612 0.08050 0.02819 -0.15900
C 	C 	0.91516 0.00780 0.02631 0.11700
C 	C 	0.93260 0.95350 0.99191 -0.10700
H 	H 	0.92140 0.96380 0.96530 0.06700
C 	C 	0.96810 0.88400 0.00408 -0.03500
H 	H 	0.98610 0.83540 0.98790 0.04100
C 	C 	0.97285 0.89840 0.04571 0.02600
H 	H 	0.99600 0.86110 0.06200 0.01100
C 	C 	0.85377 0.11890 0.99037 0.14400
C 	C 	0.88113 0.18290 0.96475 -0.18800
H 	H 	0.91480 0.19970 0.97080 0.09000
C 	C 	0.85927 0.22240 0.93026 0.09300
H 	H 	0.87830 0.26710 0.91330 -0.02100
C 	C 	0.78630 0.13710 0.94466 0.09900
H 	H 	0.75310 0.11940 0.93720 -0.02500
C 	C 	0.80430 0.09780 0.97938 -0.19300
H 	H 	0.78360 0.05610 0.99620 0.09200
C 	C 	0.94977 0.85540 0.68652 0.02000
H 	H 	0.97030 0.80730 0.67220 0.01300
C 	C 	0.93920 0.84770 0.72768 -0.03200
H 	H 	0.95060 0.79450 0.74560 0.03300
C 	C 	0.90950 0.93140 0.73664 -0.11000
H 	H 	0.89670 0.94800 0.76240 0.06900
C 	C 	0.90070 0.99020 0.70108 0.11700
C 	C 	0.87193 0.08000 0.69564 -0.16100
C 	C 	0.86488 0.13410 0.65999 0.11700
C 	C 	0.83414 0.22340 0.65264 -0.10600
H 	H 	0.81400 0.25910 0.67170 0.06400
C 	C 	0.83870 0.24900 0.61318 -0.04600
H 	H 	0.82290 0.30590 0.59950 0.04000
C 	C 	0.87159 0.17340 0.59701 0.03500
H 	H 	0.88130 0.17160 0.56970 0.00800
C 	C 	0.84631 0.12130 0.73225 0.15300
C 	C 	0.81233 0.06330 0.75321 -0.19500
H 	H 	0.80280 0.99500 0.74390 0.09100
C 	C 	0.79154 0.10290 0.78796 0.10500
H 	H 	0.76800 0.06090 0.80210 -0.02500
C 	C 	0.83570 0.25470 0.78128 0.10300
H 	H 	0.84390 0.32320 0.79110 -0.02800
C 	C 	0.85800 0.22230 0.74662 -0.19500
H 	H 	0.88070 0.26700 0.73280 0.09300
C 	C 	0.48910 0.67250 0.85687 0.02600
H 	H 	0.46020 0.71610 0.85610 0.01200
C 	C 	0.53683 0.70620 0.84564 -0.04000
H 	H 	0.54590 0.77500 0.83650 0.03400
C 	C 	0.56763 0.62210 0.85028 -0.10400
H 	H 	0.60240 0.62080 0.84480 0.05900
C 	C 	0.53874 0.53640 0.86470 0.11400
C 	C 	0.55492 0.43490 0.87466 -0.16100
C 	C 	0.52492 0.35600 0.89058 0.11300
C 	C 	0.54100 0.25310 0.90227 -0.10300
H 	H 	0.57410 0.22630 0.90090 0.06200
C 	C 	0.49970 0.19970 0.91594 -0.04700
H 	H 	0.49840 0.12910 0.92580 0.03900
C 	C 	0.45950 0.27190 0.91222 0.03300
H 	H 	0.42620 0.25600 0.91970 0.01000
C 	C 	0.60826 0.40890 0.86771 0.15400
C 	C 	0.62199 0.33950 0.83786 -0.19600
H 	H 	0.59770 0.31210 0.82000 0.09200
C 	C 	0.67155 0.31000 0.83411 0.09700
H 	H 	0.68020 0.26150 0.81350 -0.02100
C 	C 	0.69440 0.41700 0.88483 0.09600
H 	H 	0.71980 0.44600 0.90130 -0.02600
C 	C 	0.64590 0.45180 0.89059 -0.20100
H 	H 	0.63870 0.50450 0.91000 0.09800
N 	N 	0.87260 0.09580 0.10146 -0.25600
N 	N 	0.94088 0.97100 0.05941 -0.25600
N 	N 	0.81271 0.19980 0.92020 -0.20900
N 	N 	0.92683 0.94020 0.67028 -0.25500
N 	N 	0.88737 0.10590 0.62398 -0.25700
N 	N 	0.80343 0.19730 0.80208 -0.21000
N 	N 	0.48913 0.57120 0.86877 -0.25400
N 	N 	0.47365 0.36360 0.89717 -0.25900
N 	N 	0.70741 0.34560 0.85757 -0.21000
Ag	Ag	0.27999 0.24204 0.13755 0.52100
C 	C 	0.34450 0.35130 0.87275 0.02700
H 	H 	0.34880 0.35280 0.84460 0.01200
C 	C 	0.30690 0.29200 0.89299 -0.03900
H 	H 	0.28130 0.25040 0.88110 0.04000
C 	C 	0.31470 0.30660 0.93241 -0.10400
H 	H 	0.29650 0.27470 0.95360 0.06400
C 	C 	0.35539 0.37880 0.93654 0.11300
C 	C 	0.37612 0.41950 0.97181 -0.15800
C 	C 	0.41516 0.49220 0.97369 0.11700
C 	C 	0.43260 0.54650 0.00809 -0.10500
H 	H 	0.42140 0.53620 0.03470 0.06700
C 	C 	0.46810 0.61600 0.99592 -0.03700
H 	H 	0.48610 0.66460 0.01210 0.04200
C 	C 	0.47285 0.60160 0.95429 0.02600
H 	H 	0.49600 0.63890 0.93800 0.01000
C 	C 	0.35377 0.38110 0.00963 0.14300
C 	C 	0.38113 0.31710 0.03525 -0.18700
H 	H 	0.41480 0.30030 0.02920 0.09000
C 	C 	0.35927 0.27760 0.06974 0.09300
H 	H 	0.37830 0.23290 0.08670 -0.02100
C 	C 	0.28630 0.36290 0.05534 0.09900
H 	H 	0.25310 0.38060 0.06280 -0.02500
C 	C 	0.30430 0.40220 0.02062 -0.19300
H 	H 	0.28360 0.44390 0.00380 0.09100
C 	C 	0.44977 0.64460 0.31348 0.02000
H 	H 	0.47030 0.69270 0.32780 0.01400
C 	C 	0.43920 0.65230 0.27232 -0.03100
H 	H 	0.45060 0.70550 0.25440 0.03300
C 	C 	0.40950 0.56860 0.26336 -0.11200
H 	H 	0.39670 0.55200 0.23760 0.07000
C 	C 	0.40070 0.50980 0.29892 0.12100
C 	C 	0.37193 0.42000 0.30436 -0.16500
C 	C 	0.36488 0.36590 0.34001 0.11800
C 	C 	0.33414 0.27660 0.34736 -0.10600
H 	H 	0.31400 0.24090 0.32830 0.06400
C 	C 	0.33870 0.25100 0.38682 -0.04500
H 	H 	0.32290 0.19410 0.40050 0.04000
C 	C 	0.37159 0.32660 0.40299 0.03500
H 	H 	0.38130 0.32840 0.43030 0.00800
C 	C 	0.34631 0.37870 0.26775 0.15600
C 	C 	0.31233 0.43670 0.24679 -0.20100
H 	H 	0.30280 0.50500 0.25610 0.09400
C 	C 	0.29154 0.39710 0.21204 0.10800
H 	H 	0.26800 0.43910 0.19790 -0.02600
C 	C 	0.33570 0.24530 0.21872 0.10400
H 	H 	0.34390 0.17680 0.20890 -0.02900
C 	C 	0.35800 0.27770 0.25338 -0.19700
H 	H 	0.38070 0.23300 0.26720 0.09300
C 	C 	0.98910 0.82750 0.14313 0.02600
H 	H 	0.96020 0.78390 0.14390 0.01200
C 	C 	0.03683 0.79380 0.15436 -0.03900
H 	H 	0.04590 0.72500 0.16350 0.03400
C 	C 	0.06763 0.87790 0.14972 -0.10500
H 	H 	0.10240 0.87920 0.15520 0.05900
C 	C 	0.03874 0.96360 0.13530 0.11600
C 	C 	0.05492 0.06510 0.12534 -0.16400
C 	C 	0.02492 0.14400 0.10942 0.11400
C 	C 	0.04100 0.24690 0.09773 -0.10400
H 	H 	0.07410 0.27370 0.09910 0.06200
C 	C 	0.99970 0.30030 0.08406 -0.04700
H 	H 	0.99840 0.37090 0.07420 0.03900
C 	C 	0.95950 0.22810 0.08778 0.03300
H 	H 	0.92620 0.24400 0.08030 0.01000
C 	C 	0.10826 0.09110 0.13229 0.15500
C 	C 	0.12199 0.16050 0.16214 -0.19800
H 	H 	0.09770 0.18790 0.18000 0.09300
C 	C 	0.17155 0.19000 0.16589 0.09800
H 	H 	0.18020 0.23850 0.18650 -0.02100
C 	C 	0.19440 0.08300 0.11517 0.09800
H 	H 	0.21980 0.05400 0.09870 -0.02600
C 	C 	0.14590 0.04820 0.10941 -0.20400
H 	H 	0.13870 0.99550 0.09000 0.10000
N 	N 	0.37260 0.40420 0.89854 -0.25600
N 	N 	0.44088 0.52900 0.94059 -0.25700
N 	N 	0.31271 0.30020 0.07980 -0.20900
N 	N 	0.42683 0.55980 0.32972 -0.25500
N 	N 	0.38737 0.39410 0.37602 -0.25800
N 	N 	0.30343 0.30270 0.19792 -0.21100
N 	N 	0.98913 0.92880 0.13123 -0.25400
N 	N 	0.97365 0.13640 0.10283 -0.25900
N 	N 	0.20741 0.15440 0.14243 -0.21100
Ag	Ag	0.22001 0.74204 0.13755 0.52100
Fe	Fe	0.06808 0.98556 0.88527 1.18600
C 	C 	0.15550 0.85130 0.87275 0.02800
H 	H 	0.15120 0.85280 0.84460 0.01100
C 	C 	0.19310 0.79200 0.89299 -0.04100
H 	H 	0.21870 0.75040 0.88110 0.04000
C 	C 	0.18530 0.80660 0.93241 -0.10500
H 	H 	0.20350 0.77470 0.95360 0.06400
C 	C 	0.14461 0.87880 0.93654 0.11300
C 	C 	0.12388 0.91950 0.97181 -0.16000
C 	C 	0.08484 0.99220 0.97369 0.11600
C 	C 	0.06740 0.04650 0.00809 -0.10600
H 	H 	0.07860 0.03620 0.03470 0.06700
C 	C 	0.03190 0.11600 0.99592 -0.03600
H 	H 	0.01390 0.16460 0.01210 0.04100
C 	C 	0.02715 0.10160 0.95429 0.02700
H 	H 	0.00400 0.13890 0.93800 0.00900
C 	C 	0.14623 0.88110 0.00963 0.14400
C 	C 	0.11887 0.81710 0.03525 -0.18800
H 	H 	0.08520 0.80030 0.02920 0.09000
C 	C 	0.14073 0.77760 0.06974 0.09300
H 	H 	0.12170 0.73290 0.08670 -0.02100
C 	C 	0.21370 0.86290 0.05534 0.09900
H 	H 	0.24690 0.88060 0.06280 -0.02500
C 	C 	0.19570 0.90220 0.02062 -0.19300
H 	H 	0.21640 0.94390 0.00380 0.09100
C 	C 	0.05023 0.14460 0.31348 0.01900
H 	H 	0.02970 0.19270 0.32780 0.01500
C 	C 	0.06080 0.15230 0.27232 -0.03100
H 	H 	0.04940 0.20550 0.25440 0.03300
C 	C 	0.09050 0.06860 0.26336 -0.11000
H 	H 	0.10330 0.05200 0.23760 0.06900
C 	C 	0.09930 0.00980 0.29892 0.11800
C 	C 	0.12807 0.92000 0.30436 -0.16100
C 	C 	0.13512 0.86590 0.34001 0.11700
C 	C 	0.16586 0.77660 0.34736 -0.10600
H 	H 	0.18600 0.74090 0.32830 0.06400
C 	C 	0.16130 0.75100 0.38682 -0.04400
H 	H 	0.17710 0.69410 0.40050 0.04000
C 	C 	0.12841 0.82660 0.40299 0.03400
H 	H 	0.11870 0.82840 0.43030 0.00900
C 	C 	0.15369 0.87870 0.26775 0.15300
C 	C 	0.18767 0.93670 0.24679 -0.19600
H 	H 	0.19720 0.00500 0.25610 0.09200
C 	C 	0.20846 0.89710 0.21204 0.10600
H 	H 	0.23200 0.93910 0.19790 -0.02500
C 	C 	0.16430 0.74530 0.21872 0.10300
H 	H 	0.15610 0.67680 0.20890 -0.02800
C 	C 	0.14200 0.77770 0.25338 -0.19500
H 	H 	0.11930 0.73300 0.26720 0.09300
C 	C 	0.51090 0.32750 0.14313 0.02700
H 	H 	0.53980 0.28390 0.14390 0.01100
C 	C 	0.46317 0.29380 0.15436 -0.04100
H 	H 	0.45410 0.22500 0.16350 0.03400
C 	C 	0.43237 0.37790 0.14972 -0.10400
H 	H 	0.39760 0.37920 0.15520 0.05900
C 	C 	0.46126 0.46360 0.13530 0.11400
C 	C 	0.44508 0.56510 0.12534 -0.16200
C 	C 	0.47508 0.64400 0.10942 0.11300
C 	C 	0.45900 0.74690 0.09773 -0.10300
H 	H 	0.42590 0.77370 0.09910 0.06200
C 	C 	0.50030 0.80030 0.08406 -0.04800
H 	H 	0.50160 0.87090 0.07420 0.03900
C 	C 	0.54050 0.72810 0.08778 0.03400
H 	H 	0.57380 0.74400 0.08030 0.00900
C 	C 	0.39174 0.59110 0.13229 0.15400
C 	C 	0.37801 0.66050 0.16214 -0.19700
H 	H 	0.40230 0.68790 0.18000 0.09200
C 	C 	0.32845 0.69000 0.16589 0.09800
H 	H 	0.31980 0.73850 0.18650 -0.02100
C 	C 	0.30560 0.58300 0.11517 0.09700
H 	H 	0.28020 0.55400 0.09870 -0.02600
C 	C 	0.35410 0.54820 0.10941 -0.20100
H 	H 	0.36130 0.49550 0.09000 0.09800
N 	N 	0.12740 0.90420 0.89854 -0.25700
N 	N 	0.05912 0.02900 0.94059 -0.25700
N 	N 	0.18729 0.80020 0.07980 -0.20900
N 	N 	0.07317 0.05980 0.32972 -0.25400
N 	N 	0.11263 0.89410 0.37602 -0.25700
N 	N 	0.19657 0.80270 0.19792 -0.21000
N 	N 	0.51087 0.42880 0.13123 -0.25500
N 	N 	0.52635 0.63640 0.10283 -0.26000
N 	N 	0.29259 0.65440 0.14243 -0.21000
Co	Co	0.06808 0.01444 0.38527 1.16900
Ag	Ag	0.72001 0.75796 0.86245 0.52100
Fe	Fe	0.56808 0.51444 0.11473 1.18700
C 	C 	0.65550 0.64870 0.12725 0.02800
H 	H 	0.65120 0.64720 0.15540 0.01100
C 	C 	0.69310 0.70800 0.10701 -0.04000
H 	H 	0.71870 0.74960 0.11890 0.04000
C 	C 	0.68530 0.69340 0.06759 -0.10500
H 	H 	0.70350 0.72530 0.04640 0.06400
C 	C 	0.64461 0.62120 0.06346 0.11300
C 	C 	0.62388 0.58050 0.02819 -0.15900
C 	C 	0.58484 0.50780 0.02631 0.11700
C 	C 	0.56740 0.45350 0.99191 -0.10500
H 	H 	0.57860 0.46380 0.96530 0.06700
C 	C 	0.53190 0.38400 0.00408 -0.03800
H 	H 	0.51390 0.33540 0.98790 0.04300
C 	C 	0.52715 0.39840 0.04571 0.02800
H 	H 	0.50400 0.36110 0.06200 0.00900
C 	C 	0.64623 0.61890 0.99037 0.14400
C 	C 	0.61887 0.68290 0.96475 -0.18700
H 	H 	0.58520 0.69970 0.97080 0.09000
C 	C 	0.64073 0.72240 0.93026 0.09300
H 	H 	0.62170 0.76710 0.91330 -0.02100
C 	C 	0.71370 0.63710 0.94466 0.09900
H 	H 	0.74690 0.61940 0.93720 -0.02500
C 	C 	0.69570 0.59780 0.97938 -0.19300
H 	H 	0.71640 0.55610 0.99620 0.09100
C 	C 	0.55023 0.35540 0.68652 0.01900
H 	H 	0.52970 0.30730 0.67220 0.01500
C 	C 	0.56080 0.34770 0.72768 -0.03000
H 	H 	0.54940 0.29450 0.74560 0.03300
C 	C 	0.59050 0.43140 0.73664 -0.11100
H 	H 	0.60330 0.44800 0.76240 0.07000
C 	C 	0.59930 0.49020 0.70108 0.12100
C 	C 	0.62807 0.58000 0.69564 -0.16400
C 	C 	0.63512 0.63410 0.65999 0.11800
C 	C 	0.66586 0.72340 0.65264 -0.10600
H 	H 	0.68600 0.75910 0.67170 0.06400
C 	C 	0.66130 0.74900 0.61318 -0.04400
H 	H 	0.67710 0.80590 0.59950 0.04000
C 	C 	0.62841 0.67340 0.59701 0.03400
H 	H 	0.61870 0.67160 0.56970 0.00900
C 	C 	0.65369 0.62130 0.73225 0.15600
C 	C 	0.68767 0.56330 0.75321 -0.20100
H 	H 	0.69720 0.49500 0.74390 0.09400
C 	C 	0.70846 0.60290 0.78796 0.10800
H 	H 	0.73200 0.56090 0.80210 -0.02600
C 	C 	0.66430 0.75470 0.78128 0.10400
H 	H 	0.65610 0.82320 0.79110 -0.02900
C 	C 	0.64200 0.72230 0.74662 -0.19700
H 	H 	0.61930 0.76700 0.73280 0.09300
C 	C 	0.01090 0.17250 0.85687 0.02700
H 	H 	0.03980 0.21610 0.85610 0.01100
C 	C 	0.96317 0.20620 0.84564 -0.04000
H 	H 	0.95410 0.27500 0.83650 0.03400
C 	C 	0.93237 0.12210 0.85028 -0.10600
H 	H 	0.89760 0.12080 0.84480 0.06000
C 	C 	0.96126 0.03640 0.86470 0.11700
C 	C 	0.94508 0.93490 0.87466 -0.16600
C 	C 	0.97508 0.85600 0.89058 0.11400
C 	C 	0.95900 0.75310 0.90227 -0.10400
H 	H 	0.92590 0.72630 0.90090 0.06200
C 	C 	0.00030 0.69970 0.91594 -0.04800
H 	H 	0.00160 0.62910 0.92580 0.03900
C 	C 	0.04050 0.77190 0.91222 0.03400
H 	H 	0.07380 0.75600 0.91970 0.00900
C 	C 	0.89174 0.90890 0.86771 0.15600
C 	C 	0.87801 0.83950 0.83786 -0.19800
H 	H 	0.90230 0.81210 0.82000 0.09300
C 	C 	0.82845 0.81000 0.83411 0.09800
H 	H 	0.81980 0.76150 0.81350 -0.02100
C 	C 	0.80560 0.91700 0.88483 0.09800
H 	H 	0.78020 0.94600 0.90130 -0.02700
C 	C 	0.85410 0.95180 0.89059 -0.20500
H 	H 	0.86130 0.00450 0.91000 0.10100
N 	N 	0.62740 0.59580 0.10146 -0.25700
N 	N 	0.55912 0.47100 0.05941 -0.25800
N 	N 	0.68729 0.69980 0.92020 -0.20900
N 	N 	0.57317 0.44020 0.67028 -0.25400
N 	N 	0.61263 0.60590 0.62398 -0.25700
N 	N 	0.69657 0.69730 0.80208 -0.21100
N 	N 	0.01087 0.07120 0.86877 -0.25400
N 	N 	0.02635 0.86360 0.89717 -0.26000
N 	N 	0.79259 0.84560 0.85757 -0.21100
Co	Co	0.56808 0.48556 0.61473 1.16900
Ag	Ag	0.72001 0.24204 0.36245 0.52100
C 	C 	0.65550 0.35130 0.62725 0.02700
H 	H 	0.65120 0.35280 0.65540 0.01200
C 	C 	0.69310 0.29200 0.60701 -0.03900
H 	H 	0.71870 0.25040 0.61890 0.04000
C 	C 	0.68530 0.30660 0.56759 -0.10500
H 	H 	0.70350 0.27470 0.54640 0.06400
C 	C 	0.64461 0.37880 0.56346 0.11300
C 	C 	0.62388 0.41950 0.52819 -0.15900
C 	C 	0.58484 0.49220 0.52631 0.11700
C 	C 	0.56740 0.54650 0.49191 -0.10500
H 	H 	0.57860 0.53620 0.46530 0.06700
C 	C 	0.53190 0.61600 0.50408 -0.03700
H 	H 	0.51390 0.66460 0.48790 0.04200
C 	C 	0.52715 0.60160 0.54571 0.02600
H 	H 	0.50400 0.63890 0.56200 0.01000
C 	C 	0.64623 0.38110 0.49037 0.14400
C 	C 	0.61887 0.31710 0.46475 -0.18700
H 	H 	0.58520 0.30030 0.47080 0.09000
C 	C 	0.64073 0.27760 0.43026 0.09300
H 	H 	0.62170 0.23290 0.41330 -0.02100
C 	C 	0.71370 0.36290 0.44466 0.09900
H 	H 	0.74690 0.38060 0.43720 -0.02500
C 	C 	0.69570 0.40220 0.47938 -0.19300
H 	H 	0.71640 0.44390 0.49620 0.09100
C 	C 	0.55023 0.64460 0.18652 0.02000
H 	H 	0.52970 0.69270 0.17220 0.01400
C 	C 	0.56080 0.65230 0.22768 -0.03100
H 	H 	0.54940 0.70550 0.24560 0.03300
C 	C 	0.59050 0.56860 0.23664 -0.11200
H 	H 	0.60330 0.55200 0.26240 0.07000
C 	C 	0.59930 0.50980 0.20108 0.12100
C 	C 	0.62807 0.42000 0.19564 -0.16500
C 	C 	0.63512 0.36590 0.15999 0.11800
C 	C 	0.66586 0.27660 0.15264 -0.10600
H 	H 	0.68600 0.24090 0.17170 0.06400
C 	C 	0.66130 0.25100 0.11318 -0.04500
H 	H 	0.67710 0.19410 0.09950 0.04000
C 	C 	0.62841 0.32660 0.09701 0.03500
H 	H 	0.61870 0.32840 0.06970 0.00800
C 	C 	0.65369 0.37870 0.23225 0.15600
C 	C 	0.68767 0.43670 0.25321 -0.20100
H 	H 	0.69720 0.50500 0.24390 0.09400
C 	C 	0.70846 0.39710 0.28796 0.10800
H 	H 	0.73200 0.43910 0.30210 -0.02600
C 	C 	0.66430 0.24530 0.28128 0.10400
H 	H 	0.65610 0.17680 0.29110 -0.02900
C 	C 	0.64200 0.27770 0.24662 -0.19700
H 	H 	0.61930 0.23300 0.23280 0.09300
C 	C 	0.01090 0.82750 0.35687 0.02600
H 	H 	0.03980 0.78390 0.35610 0.01200
C 	C 	0.96317 0.79380 0.34564 -0.03900
H 	H 	0.95410 0.72500 0.33650 0.03400
C 	C 	0.93237 0.87790 0.35028 -0.10500
H 	H 	0.89760 0.87920 0.34480 0.05900
C 	C 	0.96126 0.96360 0.36470 0.11600
C 	C 	0.94508 0.06510 0.37466 -0.16300
C 	C 	0.97508 0.14400 0.39058 0.11400
C 	C 	0.95900 0.24690 0.40227 -0.10300
H 	H 	0.92590 0.27370 0.40090 0.06200
C 	C 	0.00030 0.30030 0.41594 -0.04700
H 	H 	0.00160 0.37090 0.42580 0.03900
C 	C 	0.04050 0.22810 0.41222 0.03300
H 	H 	0.07380 0.24400 0.41970 0.01000
C 	C 	0.89174 0.09110 0.36771 0.15500
C 	C 	0.87801 0.16050 0.33786 -0.19700
H 	H 	0.90230 0.18790 0.32000 0.09200
C 	C 	0.82845 0.19000 0.33411 0.09800
H 	H 	0.81980 0.23850 0.31350 -0.02100
C 	C 	0.80560 0.08300 0.38483 0.09700
H 	H 	0.78020 0.05400 0.40130 -0.02600
C 	C 	0.85410 0.04820 0.39059 -0.20300
H 	H 	0.86130 0.99550 0.41000 0.09900
N 	N 	0.62740 0.40420 0.60146 -0.25600
N 	N 	0.55912 0.52900 0.55941 -0.25700
N 	N 	0.68729 0.30020 0.42020 -0.20900
N 	N 	0.57317 0.55980 0.17028 -0.25500
N 	N 	0.61263 0.39410 0.12398 -0.25800
N 	N 	0.69657 0.30270 0.30208 -0.21100
N 	N 	0.01087 0.92880 0.36877 -0.25400
N 	N 	0.02635 0.13640 0.39717 -0.25900
N 	N 	0.79259 0.15440 0.35757 -0.21000
Ag	Ag	0.22001 0.25796 0.63755 0.52100
C 	C 	0.15550 0.14870 0.37275 0.02700
H 	H 	0.15120 0.14720 0.34460 0.01200
C 	C 	0.19310 0.20800 0.39299 -0.03900
H 	H 	0.21870 0.24960 0.38110 0.04000
C 	C 	0.18530 0.19340 0.43241 -0.10500
H 	H 	0.20350 0.22530 0.45360 0.06400
C 	C 	0.14461 0.12120 0.43654 0.11300
C 	C 	0.12388 0.08050 0.47181 -0.15800
C 	C 	0.08484 0.00780 0.47369 0.11700
C 	C 	0.06740 0.95350 0.50809 -0.10500
H 	H 	0.07860 0.96380 0.53470 0.06700
C 	C 	0.03190 0.88400 0.49592 -0.03700
H 	H 	0.01390 0.83540 0.51210 0.04200
C 	C 	0.02715 0.89840 0.45429 0.02600
H 	H 	0.00400 0.86110 0.43800 0.01000
C 	C 	0.14623 0.11890 0.50963 0.14400
C 	C 	0.11887 0.18290 0.53525 -0.18700
H 	H 	0.08520 0.19970 0.52920 0.09000
C 	C 	0.14073 0.22240 0.56974 0.09300
H 	H 	0.12170 0.26710 0.58670 -0.02100
C 	C 	0.21370 0.13710 0.55534 0.09900
H 	H 	0.24690 0.11940 0.56280 -0.02500
C 	C 	0.19570 0.09780 0.52062 -0.19300
H 	H 	0.21640 0.05610 0.50380 0.09100
C 	C 	0.05023 0.85540 0.81348 0.02000
H 	H 	0.02970 0.80730 0.82780 0.01300
C 	C 	0.06080 0.84770 0.77232 -0.03300
H 	H 	0.04940 0.79450 0.75440 0.03300
C 	C 	0.09050 0.93140 0.76336 -0.11000
H 	H 	0.10330 0.94800 0.73760 0.06900
C 	C 	0.09930 0.99020 0.79892 0.11700
C 	C 	0.12807 0.08000 0.80436 -0.16100
C 	C 	0.13512 0.13410 0.84001 0.11600
C 	C 	0.16586 0.22340 0.84736 -0.10600
H 	H 	0.18600 0.25910 0.82830 0.06400
C 	C 	0.16130 0.24900 0.88682 -0.04600
H 	H 	0.17710 0.30590 0.90050 0.04100
C 	C 	0.12841 0.17340 0.90299 0.03500
H 	H 	0.11870 0.17160 0.93030 0.00800
C 	C 	0.15369 0.12130 0.76775 0.15300
C 	C 	0.18767 0.06330 0.74679 -0.19400
H 	H 	0.19720 0.99500 0.75610 0.09100
C 	C 	0.20846 0.10290 0.71204 0.10500
H 	H 	0.23200 0.06090 0.69790 -0.02500
C 	C 	0.16430 0.25470 0.71872 0.10300
H 	H 	0.15610 0.32320 0.70890 -0.02800
C 	C 	0.14200 0.22230 0.75338 -0.19500
H 	H 	0.11930 0.26700 0.76720 0.09300
C 	C 	0.51090 0.67250 0.64313 0.02600
H 	H 	0.53980 0.71610 0.64390 0.01200
C 	C 	0.46317 0.70620 0.65436 -0.04000
H 	H 	0.45410 0.77500 0.66350 0.03400
C 	C 	0.43237 0.62210 0.64972 -0.10400
H 	H 	0.39760 0.62080 0.65520 0.05900
C 	C 	0.46126 0.53640 0.63530 0.11400
C 	C 	0.44508 0.43490 0.62534 -0.16100
C 	C 	0.47508 0.35600 0.60942 0.11300
C 	C 	0.45900 0.25310 0.59773 -0.10300
H 	H 	0.42590 0.22630 0.59910 0.06200
C 	C 	0.50030 0.19970 0.58406 -0.04700
H 	H 	0.50160 0.12910 0.57420 0.03900
C 	C 	0.54050 0.27190 0.58778 0.03300
H 	H 	0.57380 0.25600 0.58030 0.01000
C 	C 	0.39174 0.40890 0.63229 0.15400
C 	C 	0.37801 0.33950 0.66214 -0.19600
H 	H 	0.40230 0.31210 0.68000 0.09200
C 	C 	0.32845 0.31000 0.66589 0.09700
H 	H 	0.31980 0.26150 0.68650 -0.02100
C 	C 	0.30560 0.41700 0.61517 0.09600
H 	H 	0.28020 0.44600 0.59870 -0.02600
C 	C 	0.35410 0.45180 0.60941 -0.20100
H 	H 	0.36130 0.50450 0.59000 0.09800
N 	N 	0.12740 0.09580 0.39854 -0.25600
N 	N 	0.05912 0.97100 0.44059 -0.25700
N 	N 	0.18729 0.19980 0.57980 -0.20900
N 	N 	0.07317 0.94020 0.82972 -0.25500
N 	N 	0.11263 0.10590 0.87602 -0.25700
N 	N 	0.19657 0.19730 0.69792 -0.21000
N 	N 	0.51087 0.57120 0.63123 -0.25400
N 	N 	0.52635 0.36360 0.60283 -0.25900
N 	N 	0.29259 0.34560 0.64243 -0.21000
