data_crystal

_cell_length_a 9.22110
_cell_length_b 18.18480
_cell_length_c 9.72270
_cell_angle_alpha 90.00000
_cell_angle_beta  104.99400
_cell_angle_gamma 90.00000

_symmetry_space_group_name_	'P 1'
_symmetry_space_group_name_H-M	'P 1'

loop_
_symmetry_equiv_pos_as_xyz
  x,y,z

loop_
_atom_site_label
_atom_site_type_symbol
_atom_site_fract_x
_atom_site_fract_y
_atom_site_fract_z
_atom_site_charge
Cd	Cd	0.86680 0.93390 0.06168 1.20800
C 	C 	0.69370 0.80612 0.85650 0.08400
H 	H 	0.78460 0.78210 0.89260 0.00100
C 	C 	0.58480 0.77163 0.75160 -0.14700
H 	H 	0.60330 0.72570 0.71780 0.08100
C 	C 	0.44670 0.80628 0.69670 0.09200
C 	C 	0.42600 0.87400 0.75420 -0.14600
H 	H 	0.33480 0.89840 0.72260 0.07800
C 	C 	0.53980 0.90547 0.85820 0.07700
H 	H 	0.52340 0.95100 0.89490 -0.00600
C 	C 	0.32820 0.77302 0.58050 -0.03100
C 	C 	0.30530 0.69704 0.57490 -0.00400
H 	H 	0.36780 0.66690 0.64210 0.04400
C 	C 	0.19020 0.66611 0.46990 -0.08900
C 	C 	0.16280 0.58482 0.46870 0.29900
C 	C 	0.10000 0.71073 0.36610 0.01100
H 	H 	0.02280 0.68990 0.29580 0.04500
C 	C 	0.02820 0.83375 0.25140 0.31000
C 	C 	0.12410 0.78597 0.36640 -0.07100
C 	C 	0.23660 0.81685 0.47530 -0.01400
H 	H 	0.25080 0.86750 0.47800 0.04800
N 	N 	0.67430 0.87249 0.90870 -0.23900
O 	O 	0.26880 0.54281 0.52480 -0.39200
O 	O 	0.03150 0.56130 0.40840 -0.47200
O 	O 	0.06190 0.90112 0.25120 -0.39500
O 	O 	0.92210 0.80591 0.16180 -0.37000
Cd	Cd	0.13320 0.43390 0.43832 1.21000
C 	C 	0.30630 0.30612 0.64350 0.08300
H 	H 	0.21540 0.28210 0.60740 -0.00100
C 	C 	0.41520 0.27163 0.74840 -0.14700
H 	H 	0.39670 0.22570 0.78220 0.08000
C 	C 	0.55330 0.30628 0.80330 0.09200
C 	C 	0.57400 0.37400 0.74580 -0.14600
H 	H 	0.66520 0.39840 0.77740 0.07800
C 	C 	0.46020 0.40547 0.64180 0.07700
H 	H 	0.47660 0.45100 0.60510 -0.00700
C 	C 	0.67180 0.27302 0.91950 -0.03000
C 	C 	0.69470 0.19704 0.92510 -0.00500
H 	H 	0.63220 0.16690 0.85790 0.04300
C 	C 	0.80980 0.16611 0.03010 -0.08800
C 	C 	0.83720 0.08482 0.03130 0.30000
C 	C 	0.90000 0.21073 0.13390 0.01000
H 	H 	0.97720 0.18990 0.20420 0.04500
C 	C 	0.97180 0.33375 0.24860 0.30300
C 	C 	0.87590 0.28597 0.13360 -0.07000
C 	C 	0.76340 0.31685 0.02470 -0.01500
H 	H 	0.74920 0.36750 0.02200 0.04800
N 	N 	0.32570 0.37249 0.59130 -0.24000
O 	O 	0.73120 0.04281 0.97520 -0.39200
O 	O 	0.96850 0.06130 0.09160 -0.47100
O 	O 	0.93810 0.40112 0.24880 -0.39500
O 	O 	0.07790 0.30591 0.33820 -0.36300
Cd	Cd	0.13320 0.06610 0.93832 1.20700
C 	C 	0.30630 0.19388 0.14350 0.08300
H 	H 	0.21540 0.21790 0.10740 0.00100
C 	C 	0.41520 0.22837 0.24840 -0.14700
H 	H 	0.39670 0.27430 0.28220 0.08100
C 	C 	0.55330 0.19372 0.30330 0.09200
C 	C 	0.57400 0.12600 0.24580 -0.14600
H 	H 	0.66520 0.10160 0.27740 0.07800
C 	C 	0.46020 0.09453 0.14180 0.07700
H 	H 	0.47660 0.04900 0.10510 -0.00600
C 	C 	0.67180 0.22698 0.41950 -0.03100
C 	C 	0.69470 0.30296 0.42510 -0.00400
H 	H 	0.63220 0.33310 0.35790 0.04400
C 	C 	0.80980 0.33389 0.53010 -0.08900
C 	C 	0.83720 0.41518 0.53130 0.29900
C 	C 	0.90000 0.28927 0.63390 0.01100
H 	H 	0.97720 0.31010 0.70420 0.04500
C 	C 	0.97180 0.16625 0.74860 0.31000
C 	C 	0.87590 0.21403 0.63360 -0.07100
C 	C 	0.76340 0.18315 0.52470 -0.01400
H 	H 	0.74920 0.13250 0.52200 0.04800
N 	N 	0.32570 0.12751 0.09130 -0.23900
O 	O 	0.73120 0.45719 0.47520 -0.39200
O 	O 	0.96850 0.43870 0.59160 -0.47200
O 	O 	0.93810 0.09888 0.74880 -0.39500
O 	O 	0.07790 0.19409 0.83820 -0.37000
Cd	Cd	0.86680 0.56610 0.56168 1.21000
C 	C 	0.69370 0.69388 0.35650 0.08300
H 	H 	0.78460 0.71790 0.39260 -0.00100
C 	C 	0.58480 0.72837 0.25160 -0.14700
H 	H 	0.60330 0.77430 0.21780 0.08000
C 	C 	0.44670 0.69372 0.19670 0.09200
C 	C 	0.42600 0.62600 0.25420 -0.14600
H 	H 	0.33480 0.60160 0.22260 0.07800
C 	C 	0.53980 0.59453 0.35820 0.07700
H 	H 	0.52340 0.54900 0.39490 -0.00700
C 	C 	0.32820 0.72698 0.08050 -0.03000
C 	C 	0.30530 0.80296 0.07490 -0.00500
H 	H 	0.36780 0.83310 0.14210 0.04300
C 	C 	0.19020 0.83389 0.96990 -0.08800
C 	C 	0.16280 0.91518 0.96870 0.30000
C 	C 	0.10000 0.78927 0.86610 0.01000
H 	H 	0.02280 0.81010 0.79580 0.04500
C 	C 	0.02820 0.66625 0.75140 0.30300
C 	C 	0.12410 0.71403 0.86640 -0.07000
C 	C 	0.23660 0.68315 0.97530 -0.01500
H 	H 	0.25080 0.63250 0.97800 0.04800
N 	N 	0.67430 0.62751 0.40870 -0.24000
O 	O 	0.26880 0.95719 0.02480 -0.39200
O 	O 	0.03150 0.93870 0.90840 -0.47100
O 	O 	0.06190 0.59888 0.75120 -0.39500
O 	O 	0.92210 0.69409 0.66180 -0.36300
