data_crystal

_cell_length_a 29.34700
_cell_length_b 29.34700
_cell_length_c 21.28700
_cell_angle_alpha 90.00000
_cell_angle_beta  90.00000
_cell_angle_gamma 120.00000

_symmetry_space_group_name_	'P 1'
_symmetry_space_group_name_H-M	'P 1'

loop_
_symmetry_equiv_pos_as_xyz
  x,y,z

loop_
_atom_site_label
_atom_site_type_symbol
_atom_site_fract_x
_atom_site_fract_y
_atom_site_fract_z
_atom_site_charge
O 	O 	0.43218 0.71219 0.99194 -0.40300
O 	O 	0.39639 0.62596 0.97687 -0.41900
C 	C 	0.43289 0.67015 0.99388 0.36900
C 	C 	0.48273 0.67218 0.01700 -0.09000
C 	C 	0.52090 0.71180 0.05160 -0.01100
H 	H 	0.51560 0.73890 0.06530 0.03700
C 	C 	0.56720 0.71310 0.06710 -0.03600
H 	H 	0.59340 0.74210 0.08840 0.03600
C 	C 	0.53990 0.63420 0.00880 -0.05500
H 	H 	0.54810 0.61020 0.99140 0.04300
C 	C 	0.49450 0.63190 0.99240 -0.00700
H 	H 	0.47080 0.60540 0.96590 0.03100
C 	C 	0.57502 0.67191 0.05130 0.00900
C 	C 	0.62332 0.66988 0.06810 0.08300
C 	C 	0.62188 0.62181 0.06850 -0.13000
H 	H 	0.59080 0.59110 0.05880 0.06700
C 	C 	0.71230 0.56680 0.07400 -0.13700
H 	H 	0.74410 0.59760 0.06700 0.07100
C 	C 	0.71090 0.51930 0.07510 0.09400
H 	H 	0.74220 0.51920 0.06980 -0.00600
C 	C 	0.52940 0.71810 0.02590 0.00300
H 	H 	0.53080 0.75010 0.01910 0.02600
C 	C 	0.57500 0.71790 0.04500 -0.02900
H 	H 	0.60560 0.74950 0.05340 0.03100
C 	C 	0.52370 0.62300 0.04940 -0.03000
H 	H 	0.52100 0.59100 0.06010 0.03200
C 	C 	0.47960 0.62550 0.03160 -0.00400
H 	H 	0.44710 0.59470 0.02960 0.03600
C 	C 	0.64250 0.53340 0.03900 -0.02100
H 	H 	0.62530 0.53970 0.00650 0.03300
C 	C 	0.64300 0.48450 0.04200 -0.02300
H 	H 	0.62510 0.45960 0.01070 0.04200
O 	O 	0.09885 0.04552 0.32527 -0.40400
O 	O 	0.06306 0.95929 0.31020 -0.41600
C 	C 	0.09956 0.00348 0.32721 0.36400
C 	C 	0.14940 0.00551 0.35033 -0.09500
C 	C 	0.18757 0.04513 0.38493 -0.01100
H 	H 	0.18227 0.07223 0.39863 0.03500
C 	C 	0.23387 0.04643 0.40043 -0.03700
H 	H 	0.26007 0.07543 0.42173 0.03400
C 	C 	0.20657 0.96753 0.34213 -0.05500
H 	H 	0.21477 0.94353 0.32473 0.04400
C 	C 	0.16117 0.96523 0.32573 -0.00200
H 	H 	0.13747 0.93873 0.29923 0.03000
C 	C 	0.24169 0.00524 0.38463 0.00700
C 	C 	0.28999 0.00321 0.40143 0.07400
C 	C 	0.28855 0.95514 0.40183 -0.11500
H 	H 	0.25747 0.92443 0.39213 0.06300
C 	C 	0.37897 0.90013 0.40733 -0.14000
H 	H 	0.41077 0.93093 0.40033 0.07300
C 	C 	0.37757 0.85263 0.40843 0.09700
H 	H 	0.40887 0.85253 0.40313 -0.00700
C 	C 	0.19607 0.05143 0.35923 0.00300
H 	H 	0.19747 0.08343 0.35243 0.02600
C 	C 	0.24167 0.05123 0.37833 -0.03000
H 	H 	0.27227 0.08283 0.38673 0.03100
C 	C 	0.19037 0.95633 0.38273 -0.02700
H 	H 	0.18767 0.92433 0.39343 0.03200
C 	C 	0.14627 0.95883 0.36493 -0.00300
H 	H 	0.11377 0.92803 0.36293 0.03600
C 	C 	0.30917 0.86673 0.37233 -0.02400
H 	H 	0.29197 0.87303 0.33983 0.03400
C 	C 	0.30967 0.81783 0.37533 -0.02300
H 	H 	0.29177 0.79293 0.34403 0.04200
O 	O 	0.76551 0.37886 0.65861 -0.40400
O 	O 	0.72972 0.29263 0.64354 -0.42000
C 	C 	0.76622 0.33682 0.66055 0.36800
C 	C 	0.81606 0.33885 0.68367 -0.09100
C 	C 	0.85423 0.37847 0.71827 -0.01200
H 	H 	0.84893 0.40557 0.73197 0.03600
C 	C 	0.90053 0.37977 0.73377 -0.03700
H 	H 	0.92673 0.40877 0.75507 0.03500
C 	C 	0.87323 0.30087 0.67547 -0.05500
H 	H 	0.88143 0.27687 0.65807 0.04300
C 	C 	0.82783 0.29857 0.65907 -0.00700
H 	H 	0.80413 0.27207 0.63257 0.03100
C 	C 	0.90835 0.33858 0.71797 0.00900
C 	C 	0.95665 0.33655 0.73477 0.08600
C 	C 	0.95521 0.28848 0.73517 -0.12400
H 	H 	0.92413 0.25777 0.72547 0.06600
C 	C 	0.04563 0.23347 0.74067 -0.13600
H 	H 	0.07743 0.26427 0.73367 0.07000
C 	C 	0.04423 0.18597 0.74177 0.09300
H 	H 	0.07553 0.18587 0.73647 -0.00600
C 	C 	0.86273 0.38477 0.69257 0.00300
H 	H 	0.86413 0.41677 0.68577 0.02600
C 	C 	0.90833 0.38457 0.71167 -0.02900
H 	H 	0.93893 0.41617 0.72007 0.03200
C 	C 	0.85703 0.28967 0.71607 -0.03100
H 	H 	0.85433 0.25767 0.72677 0.03200
C 	C 	0.81293 0.29217 0.69827 -0.00300
H 	H 	0.78043 0.26137 0.69627 0.03600
C 	C 	0.97583 0.20007 0.70567 -0.01700
H 	H 	0.95863 0.20637 0.67317 0.03300
C 	C 	0.97633 0.15117 0.70867 -0.01900
H 	H 	0.95843 0.12627 0.67737 0.04100
O 	O 	0.28781 0.71999 0.99194 -0.40400
O 	O 	0.37404 0.77043 0.97687 -0.42000
C 	C 	0.32985 0.76274 0.99388 0.36800
C 	C 	0.32782 0.81055 0.01700 -0.09000
C 	C 	0.28820 0.80910 0.05160 -0.01300
H 	H 	0.26110 0.77670 0.06530 0.03600
C 	C 	0.28690 0.85410 0.06710 -0.03600
H 	H 	0.25790 0.85130 0.08840 0.03400
C 	C 	0.36580 0.90570 0.00880 -0.05400
H 	H 	0.38980 0.93790 0.99140 0.04300
C 	C 	0.36810 0.86260 0.99240 -0.00800
H 	H 	0.39460 0.86540 0.96590 0.03200
C 	C 	0.32809 0.90311 0.05130 0.00400
C 	C 	0.33012 0.95344 0.06810 0.09600
C 	C 	0.37819 0.00007 0.06850 -0.15500
H 	H 	0.40890 0.99970 0.05880 0.07900
C 	C 	0.43320 0.14550 0.07400 -0.13300
H 	H 	0.40240 0.14650 0.06700 0.06900
C 	C 	0.48070 0.19160 0.07510 0.09200
H 	H 	0.48080 0.22300 0.06980 -0.00600
C 	C 	0.28190 0.81130 0.02590 0.00300
H 	H 	0.24990 0.78070 0.01910 0.02600
C 	C 	0.28210 0.85710 0.04500 -0.02700
H 	H 	0.25050 0.85610 0.05340 0.03000
C 	C 	0.37700 0.90070 0.04940 -0.02900
H 	H 	0.40900 0.93000 0.06010 0.03200
C 	C 	0.37450 0.85410 0.03160 -0.00400
H 	H 	0.40530 0.85240 0.02960 0.03600
C 	C 	0.46660 0.10910 0.03900 -0.01900
H 	H 	0.46030 0.08560 0.00650 0.03200
C 	C 	0.51550 0.15850 0.04200 -0.02300
H 	H 	0.54040 0.16550 0.01070 0.04200
O 	O 	0.95448 0.05332 0.32527 -0.40500
O 	O 	0.04071 0.10376 0.31020 -0.42400
C 	C 	0.99652 0.09607 0.32721 0.37300
C 	C 	0.99449 0.14388 0.35033 -0.08700
C 	C 	0.95487 0.14243 0.38493 -0.01200
H 	H 	0.92777 0.11003 0.39863 0.03600
C 	C 	0.95357 0.18743 0.40043 -0.03700
H 	H 	0.92457 0.18463 0.42173 0.03500
C 	C 	0.03247 0.23903 0.34213 -0.05400
H 	H 	0.05647 0.27123 0.32473 0.04200
C 	C 	0.03477 0.19593 0.32573 -0.01200
H 	H 	0.06127 0.19873 0.29923 0.03200
C 	C 	0.99476 0.23644 0.38463 0.01100
C 	C 	0.99679 0.28677 0.40143 0.09300
C 	C 	0.04486 0.33340 0.40183 -0.14500
H 	H 	0.07557 0.33303 0.39213 0.07200
C 	C 	0.09987 0.47883 0.40733 -0.13300
H 	H 	0.06907 0.47983 0.40033 0.06800
C 	C 	0.14737 0.52493 0.40843 0.09200
H 	H 	0.14747 0.55633 0.40313 -0.00600
C 	C 	0.94857 0.14463 0.35923 0.00300
H 	H 	0.91657 0.11403 0.35243 0.02600
C 	C 	0.94877 0.19043 0.37833 -0.02800
H 	H 	0.91717 0.18943 0.38673 0.03100
C 	C 	0.04367 0.23403 0.38273 -0.03500
H 	H 	0.07567 0.26333 0.39343 0.03300
C 	C 	0.04117 0.18743 0.36493 -0.00400
H 	H 	0.07197 0.18573 0.36293 0.03500
C 	C 	0.13327 0.44243 0.37233 -0.01900
H 	H 	0.12697 0.41893 0.33983 0.03200
C 	C 	0.18217 0.49183 0.37533 -0.02300
H 	H 	0.20707 0.49883 0.34403 0.04200
O 	O 	0.62114 0.38666 0.65861 -0.40400
O 	O 	0.70737 0.43710 0.64354 -0.42000
C 	C 	0.66318 0.42941 0.66055 0.36800
C 	C 	0.66115 0.47722 0.68367 -0.09100
C 	C 	0.62153 0.47577 0.71827 -0.01200
H 	H 	0.59443 0.44337 0.73197 0.03600
C 	C 	0.62023 0.52077 0.73377 -0.03700
H 	H 	0.59123 0.51797 0.75507 0.03500
C 	C 	0.69913 0.57237 0.67547 -0.05500
H 	H 	0.72313 0.60457 0.65807 0.04300
C 	C 	0.70143 0.52927 0.65907 -0.00700
H 	H 	0.72793 0.53207 0.63257 0.03100
C 	C 	0.66142 0.56978 0.71797 0.00900
C 	C 	0.66345 0.62011 0.73477 0.08300
C 	C 	0.71152 0.66674 0.73517 -0.13000
H 	H 	0.74223 0.66637 0.72547 0.06700
C 	C 	0.76653 0.81217 0.74067 -0.13700
H 	H 	0.73573 0.81317 0.73367 0.07100
C 	C 	0.81403 0.85827 0.74177 0.09400
H 	H 	0.81413 0.88967 0.73647 -0.00600
C 	C 	0.61523 0.47797 0.69257 0.00300
H 	H 	0.58323 0.44737 0.68577 0.02600
C 	C 	0.61543 0.52377 0.71167 -0.02900
H 	H 	0.58383 0.52277 0.72007 0.03100
C 	C 	0.71033 0.56737 0.71607 -0.03100
H 	H 	0.74233 0.59667 0.72677 0.03200
C 	C 	0.70783 0.52077 0.69827 -0.00300
H 	H 	0.73863 0.51907 0.69627 0.03600
C 	C 	0.79993 0.77577 0.70567 -0.02100
H 	H 	0.79363 0.75227 0.67317 0.03300
C 	C 	0.84883 0.82517 0.70867 -0.02300
H 	H 	0.87373 0.83217 0.67737 0.04200
O 	O 	0.28001 0.56782 0.99194 -0.40400
O 	O 	0.22957 0.60361 0.97687 -0.42000
C 	C 	0.23726 0.56711 0.99388 0.36900
C 	C 	0.18945 0.51727 0.01700 -0.09200
C 	C 	0.19090 0.47910 0.05160 -0.01100
H 	H 	0.22330 0.48440 0.06530 0.03600
C 	C 	0.14590 0.43280 0.06710 -0.03800
H 	H 	0.14870 0.40660 0.08840 0.03500
C 	C 	0.09430 0.46010 0.00880 -0.05600
H 	H 	0.06210 0.45190 0.99140 0.04300
C 	C 	0.13740 0.50550 0.99240 -0.00700
H 	H 	0.13460 0.52920 0.96590 0.03100
C 	C 	0.09689 0.42498 0.05130 0.01400
C 	C 	0.04656 0.37668 0.06810 0.07000
C 	C 	0.99993 0.37812 0.06850 -0.10400
H 	H 	0.00030 0.40920 0.05880 0.05500
C 	C 	0.85450 0.28770 0.07400 -0.14000
H 	H 	0.85350 0.25590 0.06700 0.07200
C 	C 	0.80840 0.28910 0.07510 0.09700
H 	H 	0.77700 0.25780 0.06980 -0.00700
C 	C 	0.18870 0.47060 0.02590 0.00400
H 	H 	0.21930 0.46920 0.01910 0.02600
C 	C 	0.14290 0.42500 0.04500 -0.03000
H 	H 	0.14390 0.39440 0.05340 0.03100
C 	C 	0.09930 0.47630 0.04940 -0.03200
H 	H 	0.07000 0.47900 0.06010 0.03200
C 	C 	0.14590 0.52040 0.03160 -0.00200
H 	H 	0.14760 0.55290 0.02960 0.03500
C 	C 	0.89090 0.35750 0.03900 -0.02400
H 	H 	0.91440 0.37470 0.00650 0.03500
C 	C 	0.84150 0.35700 0.04200 -0.02200
H 	H 	0.83450 0.37490 0.01070 0.04200
O 	O 	0.94668 0.90115 0.32527 -0.40000
O 	O 	0.89624 0.93694 0.31020 -0.41700
C 	C 	0.90393 0.90044 0.32721 0.36800
C 	C 	0.85612 0.85060 0.35033 -0.09000
C 	C 	0.85757 0.81243 0.38493 -0.01300
H 	H 	0.88997 0.81773 0.39863 0.03700
C 	C 	0.81257 0.76613 0.40043 -0.03700
H 	H 	0.81537 0.73993 0.42173 0.03500
C 	C 	0.76097 0.79343 0.34213 -0.05500
H 	H 	0.72877 0.78523 0.32473 0.04300
C 	C 	0.80407 0.83883 0.32573 -0.00800
H 	H 	0.80127 0.86253 0.29923 0.03100
C 	C 	0.76356 0.75831 0.38463 0.00900
C 	C 	0.71323 0.71001 0.40143 0.08300
C 	C 	0.66660 0.71145 0.40183 -0.13000
H 	H 	0.66697 0.74253 0.39213 0.06700
C 	C 	0.52117 0.62103 0.40733 -0.13700
H 	H 	0.52017 0.58923 0.40033 0.07000
C 	C 	0.47507 0.62243 0.40843 0.09400
H 	H 	0.44367 0.59113 0.40313 -0.00600
C 	C 	0.85537 0.80393 0.35923 0.00300
H 	H 	0.88597 0.80253 0.35243 0.02600
C 	C 	0.80957 0.75833 0.37833 -0.02800
H 	H 	0.81057 0.72773 0.38673 0.03100
C 	C 	0.76597 0.80963 0.38273 -0.03000
H 	H 	0.73667 0.81233 0.39343 0.03200
C 	C 	0.81257 0.85373 0.36493 -0.00300
H 	H 	0.81427 0.88623 0.36293 0.03600
C 	C 	0.55757 0.69083 0.37233 -0.02100
H 	H 	0.58107 0.70803 0.33983 0.03300
C 	C 	0.50817 0.69033 0.37533 -0.02300
H 	H 	0.50117 0.70823 0.34403 0.04200
O 	O 	0.61334 0.23449 0.65861 -0.40400
O 	O 	0.56290 0.27028 0.64354 -0.42000
C 	C 	0.57059 0.23378 0.66055 0.36800
C 	C 	0.52278 0.18394 0.68367 -0.09100
C 	C 	0.52423 0.14577 0.71827 -0.01200
H 	H 	0.55663 0.15107 0.73197 0.03600
C 	C 	0.47923 0.09947 0.73377 -0.03700
H 	H 	0.48203 0.07327 0.75507 0.03400
C 	C 	0.42763 0.12677 0.67547 -0.05500
H 	H 	0.39543 0.11857 0.65807 0.04300
C 	C 	0.47073 0.17217 0.65907 -0.00700
H 	H 	0.46793 0.19587 0.63257 0.03100
C 	C 	0.43022 0.09165 0.71797 0.00800
C 	C 	0.37989 0.04335 0.73477 0.08200
C 	C 	0.33326 0.04479 0.73517 -0.12900
H 	H 	0.33363 0.07587 0.72547 0.06700
C 	C 	0.18783 0.95437 0.74067 -0.13300
H 	H 	0.18683 0.92257 0.73367 0.07000
C 	C 	0.14173 0.95577 0.74177 0.09500
H 	H 	0.11033 0.92447 0.73647 -0.00600
C 	C 	0.52203 0.13727 0.69257 0.00300
H 	H 	0.55263 0.13587 0.68577 0.02600
C 	C 	0.47623 0.09167 0.71167 -0.02900
H 	H 	0.47723 0.06107 0.72007 0.03000
C 	C 	0.43263 0.14297 0.71607 -0.03100
H 	H 	0.40333 0.14567 0.72677 0.03200
C 	C 	0.47923 0.18707 0.69827 -0.00300
H 	H 	0.48093 0.21957 0.69627 0.03600
C 	C 	0.22423 0.02417 0.70567 -0.02100
H 	H 	0.24773 0.04137 0.67317 0.03200
C 	C 	0.17483 0.02367 0.70867 -0.02400
H 	H 	0.16783 0.04157 0.67737 0.04100
O 	O 	0.71219 0.43218 0.50806 -0.40400
O 	O 	0.62596 0.39639 0.52313 -0.42000
C 	C 	0.67015 0.43289 0.50612 0.36800
C 	C 	0.67218 0.48273 0.48300 -0.09100
C 	C 	0.71180 0.52090 0.44840 -0.01200
H 	H 	0.73890 0.51560 0.43470 0.03600
C 	C 	0.71310 0.56720 0.43290 -0.03700
H 	H 	0.74210 0.59340 0.41160 0.03500
C 	C 	0.63420 0.53990 0.49120 -0.05500
H 	H 	0.61020 0.54810 0.50860 0.04300
C 	C 	0.63190 0.49450 0.50760 -0.00700
H 	H 	0.60540 0.47080 0.53410 0.03100
C 	C 	0.67191 0.57502 0.44870 0.00900
C 	C 	0.66988 0.62332 0.43190 0.08300
C 	C 	0.62181 0.62188 0.43150 -0.13000
H 	H 	0.59110 0.59080 0.44120 0.06700
C 	C 	0.56680 0.71230 0.42600 -0.13700
H 	H 	0.59760 0.74410 0.43300 0.07100
C 	C 	0.51930 0.71090 0.42490 0.09400
H 	H 	0.51920 0.74220 0.43020 -0.00600
C 	C 	0.71810 0.52940 0.47410 0.00300
H 	H 	0.75010 0.53080 0.48090 0.02600
C 	C 	0.71790 0.57500 0.45500 -0.02900
H 	H 	0.74950 0.60560 0.44660 0.03100
C 	C 	0.62300 0.52370 0.45060 -0.03100
H 	H 	0.59100 0.52100 0.43990 0.03200
C 	C 	0.62550 0.47960 0.46840 -0.00300
H 	H 	0.59470 0.44710 0.47040 0.03600
C 	C 	0.53340 0.64250 0.46100 -0.02100
H 	H 	0.53970 0.62530 0.49350 0.03300
C 	C 	0.48450 0.64300 0.45800 -0.02300
H 	H 	0.45960 0.62510 0.48930 0.04200
O 	O 	0.37886 0.76551 0.84139 -0.40400
O 	O 	0.29263 0.72972 0.85646 -0.42000
C 	C 	0.33682 0.76622 0.83945 0.36800
C 	C 	0.33885 0.81606 0.81633 -0.09100
C 	C 	0.37847 0.85423 0.78173 -0.01200
H 	H 	0.40557 0.84893 0.76803 0.03600
C 	C 	0.37977 0.90053 0.76623 -0.03700
H 	H 	0.40877 0.92673 0.74493 0.03500
C 	C 	0.30087 0.87323 0.82453 -0.05500
H 	H 	0.27687 0.88143 0.84193 0.04300
C 	C 	0.29857 0.82783 0.84093 -0.00700
H 	H 	0.27207 0.80413 0.86743 0.03100
C 	C 	0.33858 0.90835 0.78203 0.00900
C 	C 	0.33655 0.95665 0.76523 0.08600
C 	C 	0.28848 0.95521 0.76483 -0.12400
H 	H 	0.25777 0.92413 0.77453 0.06600
C 	C 	0.23347 0.04563 0.75933 -0.13600
H 	H 	0.26427 0.07743 0.76633 0.07000
C 	C 	0.18597 0.04423 0.75823 0.09300
H 	H 	0.18587 0.07553 0.76353 -0.00600
C 	C 	0.38477 0.86273 0.80743 0.00300
H 	H 	0.41677 0.86413 0.81423 0.02600
C 	C 	0.38457 0.90833 0.78833 -0.02900
H 	H 	0.41617 0.93893 0.77993 0.03200
C 	C 	0.28967 0.85703 0.78393 -0.03100
H 	H 	0.25767 0.85433 0.77323 0.03200
C 	C 	0.29217 0.81293 0.80173 -0.00300
H 	H 	0.26137 0.78043 0.80373 0.03600
C 	C 	0.20007 0.97583 0.79433 -0.01700
H 	H 	0.20637 0.95863 0.82683 0.03300
C 	C 	0.15117 0.97633 0.79133 -0.01900
H 	H 	0.12627 0.95843 0.82263 0.04100
O 	O 	0.04552 0.09885 0.17473 -0.40400
O 	O 	0.95929 0.06306 0.18980 -0.41600
C 	C 	0.00348 0.09956 0.17279 0.36400
C 	C 	0.00551 0.14940 0.14967 -0.09500
C 	C 	0.04513 0.18757 0.11507 -0.01100
H 	H 	0.07223 0.18227 0.10137 0.03500
C 	C 	0.04643 0.23387 0.09957 -0.03700
H 	H 	0.07543 0.26007 0.07827 0.03400
C 	C 	0.96753 0.20657 0.15787 -0.05500
H 	H 	0.94353 0.21477 0.17527 0.04400
C 	C 	0.96523 0.16117 0.17427 -0.00200
H 	H 	0.93873 0.13747 0.20077 0.03000
C 	C 	0.00524 0.24169 0.11537 0.00700
C 	C 	0.00321 0.28999 0.09857 0.07400
C 	C 	0.95514 0.28855 0.09817 -0.11400
H 	H 	0.92443 0.25747 0.10787 0.06300
C 	C 	0.90013 0.37897 0.09267 -0.14000
H 	H 	0.93093 0.41077 0.09967 0.07300
C 	C 	0.85263 0.37757 0.09157 0.09700
H 	H 	0.85253 0.40887 0.09687 -0.00700
C 	C 	0.05143 0.19607 0.14077 0.00300
H 	H 	0.08343 0.19747 0.14757 0.02600
C 	C 	0.05123 0.24167 0.12167 -0.03000
H 	H 	0.08283 0.27227 0.11327 0.03100
C 	C 	0.95633 0.19037 0.11727 -0.02700
H 	H 	0.92433 0.18767 0.10657 0.03200
C 	C 	0.95883 0.14627 0.13507 -0.00300
H 	H 	0.92803 0.11377 0.13707 0.03600
C 	C 	0.86673 0.30917 0.12767 -0.02400
H 	H 	0.87303 0.29197 0.16017 0.03400
C 	C 	0.81783 0.30967 0.12467 -0.02300
H 	H 	0.79293 0.29177 0.15597 0.04200
O 	O 	0.71999 0.28781 0.50806 -0.40400
O 	O 	0.77043 0.37404 0.52313 -0.42000
C 	C 	0.76274 0.32985 0.50612 0.36800
C 	C 	0.81055 0.32782 0.48300 -0.09000
C 	C 	0.80910 0.28820 0.44840 -0.01300
H 	H 	0.77670 0.26110 0.43470 0.03600
C 	C 	0.85410 0.28690 0.43290 -0.03600
H 	H 	0.85130 0.25790 0.41160 0.03400
C 	C 	0.90570 0.36580 0.49120 -0.05400
H 	H 	0.93790 0.38980 0.50860 0.04300
C 	C 	0.86260 0.36810 0.50760 -0.00800
H 	H 	0.86540 0.39460 0.53410 0.03200
C 	C 	0.90311 0.32809 0.44870 0.00400
C 	C 	0.95344 0.33012 0.43190 0.09700
C 	C 	0.00007 0.37819 0.43150 -0.15600
H 	H 	0.99970 0.40890 0.44120 0.08000
C 	C 	0.14550 0.43320 0.42600 -0.13300
H 	H 	0.14650 0.40240 0.43300 0.06900
C 	C 	0.19160 0.48070 0.42490 0.09200
H 	H 	0.22300 0.48080 0.43020 -0.00600
C 	C 	0.81130 0.28190 0.47410 0.00200
H 	H 	0.78070 0.24990 0.48090 0.02600
C 	C 	0.85710 0.28210 0.45500 -0.02700
H 	H 	0.85610 0.25050 0.44660 0.03000
C 	C 	0.90070 0.37700 0.45060 -0.02900
H 	H 	0.93000 0.40900 0.43990 0.03200
C 	C 	0.85410 0.37450 0.46840 -0.00400
H 	H 	0.85240 0.40530 0.47040 0.03600
C 	C 	0.10910 0.46660 0.46100 -0.01900
H 	H 	0.08560 0.46030 0.49350 0.03100
C 	C 	0.15850 0.51550 0.45800 -0.02300
H 	H 	0.16550 0.54040 0.48930 0.04200
O 	O 	0.38666 0.62114 0.84139 -0.40400
O 	O 	0.43710 0.70737 0.85646 -0.42000
C 	C 	0.42941 0.66318 0.83945 0.36800
C 	C 	0.47722 0.66115 0.81633 -0.09100
C 	C 	0.47577 0.62153 0.78173 -0.01200
H 	H 	0.44337 0.59443 0.76803 0.03600
C 	C 	0.52077 0.62023 0.76623 -0.03700
H 	H 	0.51797 0.59123 0.74493 0.03500
C 	C 	0.57237 0.69913 0.82453 -0.05500
H 	H 	0.60457 0.72313 0.84193 0.04300
C 	C 	0.52927 0.70143 0.84093 -0.00700
H 	H 	0.53207 0.72793 0.86743 0.03100
C 	C 	0.56978 0.66142 0.78203 0.00900
C 	C 	0.62011 0.66345 0.76523 0.08300
C 	C 	0.66674 0.71152 0.76483 -0.13000
H 	H 	0.66637 0.74223 0.77453 0.06700
C 	C 	0.81217 0.76653 0.75933 -0.13700
H 	H 	0.81317 0.73573 0.76633 0.07100
C 	C 	0.85827 0.81403 0.75823 0.09400
H 	H 	0.88967 0.81413 0.76353 -0.00600
C 	C 	0.47797 0.61523 0.80743 0.00300
H 	H 	0.44737 0.58323 0.81423 0.02600
C 	C 	0.52377 0.61543 0.78833 -0.02900
H 	H 	0.52277 0.58383 0.77993 0.03100
C 	C 	0.56737 0.71033 0.78393 -0.03100
H 	H 	0.59667 0.74233 0.77323 0.03200
C 	C 	0.52077 0.70783 0.80173 -0.00300
H 	H 	0.51907 0.73863 0.80373 0.03600
C 	C 	0.77577 0.79993 0.79433 -0.02100
H 	H 	0.75227 0.79363 0.82683 0.03300
C 	C 	0.82517 0.84883 0.79133 -0.02300
H 	H 	0.83217 0.87373 0.82263 0.04200
O 	O 	0.05332 0.95448 0.17473 -0.40500
O 	O 	0.10376 0.04071 0.18980 -0.42400
C 	C 	0.09607 0.99652 0.17279 0.37300
C 	C 	0.14388 0.99449 0.14967 -0.08700
C 	C 	0.14243 0.95487 0.11507 -0.01200
H 	H 	0.11003 0.92777 0.10137 0.03600
C 	C 	0.18743 0.95357 0.09957 -0.03700
H 	H 	0.18463 0.92457 0.07827 0.03500
C 	C 	0.23903 0.03247 0.15787 -0.05400
H 	H 	0.27123 0.05647 0.17527 0.04200
C 	C 	0.19593 0.03477 0.17427 -0.01200
H 	H 	0.19873 0.06127 0.20077 0.03200
C 	C 	0.23644 0.99476 0.11537 0.01100
C 	C 	0.28677 0.99679 0.09857 0.09200
C 	C 	0.33340 0.04486 0.09817 -0.14500
H 	H 	0.33303 0.07557 0.10787 0.07200
C 	C 	0.47883 0.09987 0.09267 -0.13300
H 	H 	0.47983 0.06907 0.09967 0.06800
C 	C 	0.52493 0.14737 0.09157 0.09200
H 	H 	0.55633 0.14747 0.09687 -0.00600
C 	C 	0.14463 0.94857 0.14077 0.00300
H 	H 	0.11403 0.91657 0.14757 0.02600
C 	C 	0.19043 0.94877 0.12167 -0.02800
H 	H 	0.18943 0.91717 0.11327 0.03100
C 	C 	0.23403 0.04367 0.11727 -0.03400
H 	H 	0.26333 0.07567 0.10657 0.03300
C 	C 	0.18743 0.04117 0.13507 -0.00400
H 	H 	0.18573 0.07197 0.13707 0.03500
C 	C 	0.44243 0.13327 0.12767 -0.01900
H 	H 	0.41893 0.12697 0.16017 0.03200
C 	C 	0.49183 0.18217 0.12467 -0.02300
H 	H 	0.49883 0.20707 0.15597 0.04200
O 	O 	0.56782 0.28001 0.50806 -0.40400
O 	O 	0.60361 0.22957 0.52313 -0.42000
C 	C 	0.56711 0.23726 0.50612 0.36900
C 	C 	0.51727 0.18945 0.48300 -0.09200
C 	C 	0.47910 0.19090 0.44840 -0.01100
H 	H 	0.48440 0.22330 0.43470 0.03600
C 	C 	0.43280 0.14590 0.43290 -0.03800
H 	H 	0.40660 0.14870 0.41160 0.03500
C 	C 	0.46010 0.09430 0.49120 -0.05600
H 	H 	0.45190 0.06210 0.50860 0.04300
C 	C 	0.50550 0.13740 0.50760 -0.00700
H 	H 	0.52920 0.13460 0.53410 0.03100
C 	C 	0.42498 0.09689 0.44870 0.01400
C 	C 	0.37668 0.04656 0.43190 0.07000
C 	C 	0.37812 0.99993 0.43150 -0.10400
H 	H 	0.40920 0.00030 0.44120 0.05500
C 	C 	0.28770 0.85450 0.42600 -0.14000
H 	H 	0.25590 0.85350 0.43300 0.07200
C 	C 	0.28910 0.80840 0.42490 0.09700
H 	H 	0.25780 0.77700 0.43020 -0.00700
C 	C 	0.47060 0.18870 0.47410 0.00400
H 	H 	0.46920 0.21930 0.48090 0.02600
C 	C 	0.42500 0.14290 0.45500 -0.03000
H 	H 	0.39440 0.14390 0.44660 0.03100
C 	C 	0.47630 0.09930 0.45060 -0.03200
H 	H 	0.47900 0.07000 0.43990 0.03200
C 	C 	0.52040 0.14590 0.46840 -0.00200
H 	H 	0.55290 0.14760 0.47040 0.03500
C 	C 	0.35750 0.89090 0.46100 -0.02400
H 	H 	0.37470 0.91440 0.49350 0.03500
C 	C 	0.35700 0.84150 0.45800 -0.02200
H 	H 	0.37490 0.83450 0.48930 0.04200
O 	O 	0.23449 0.61334 0.84139 -0.40400
O 	O 	0.27028 0.56290 0.85646 -0.42000
C 	C 	0.23378 0.57059 0.83945 0.36800
C 	C 	0.18394 0.52278 0.81633 -0.09100
C 	C 	0.14577 0.52423 0.78173 -0.01200
H 	H 	0.15107 0.55663 0.76803 0.03600
C 	C 	0.09947 0.47923 0.76623 -0.03700
H 	H 	0.07327 0.48203 0.74493 0.03400
C 	C 	0.12677 0.42763 0.82453 -0.05500
H 	H 	0.11857 0.39543 0.84193 0.04300
C 	C 	0.17217 0.47073 0.84093 -0.00700
H 	H 	0.19587 0.46793 0.86743 0.03100
C 	C 	0.09165 0.43022 0.78203 0.00800
C 	C 	0.04335 0.37989 0.76523 0.08200
C 	C 	0.04479 0.33326 0.76483 -0.12900
H 	H 	0.07587 0.33363 0.77453 0.06700
C 	C 	0.95437 0.18783 0.75933 -0.13300
H 	H 	0.92257 0.18683 0.76633 0.07000
C 	C 	0.95577 0.14173 0.75823 0.09500
H 	H 	0.92447 0.11033 0.76353 -0.00600
C 	C 	0.13727 0.52203 0.80743 0.00300
H 	H 	0.13587 0.55263 0.81423 0.02600
C 	C 	0.09167 0.47623 0.78833 -0.02900
H 	H 	0.06107 0.47723 0.77993 0.03000
C 	C 	0.14297 0.43263 0.78393 -0.03100
H 	H 	0.14567 0.40333 0.77323 0.03200
C 	C 	0.18707 0.47923 0.80173 -0.00300
H 	H 	0.21957 0.48093 0.80373 0.03600
C 	C 	0.02417 0.22423 0.79433 -0.02100
H 	H 	0.04137 0.24773 0.82683 0.03200
C 	C 	0.02367 0.17483 0.79133 -0.02400
H 	H 	0.04157 0.16783 0.82263 0.04100
O 	O 	0.90115 0.94668 0.17473 -0.40000
O 	O 	0.93694 0.89624 0.18980 -0.41700
C 	C 	0.90044 0.90393 0.17279 0.36800
C 	C 	0.85060 0.85612 0.14967 -0.09000
C 	C 	0.81243 0.85757 0.11507 -0.01300
H 	H 	0.81773 0.88997 0.10137 0.03700
C 	C 	0.76613 0.81257 0.09957 -0.03700
H 	H 	0.73993 0.81537 0.07827 0.03500
C 	C 	0.79343 0.76097 0.15787 -0.05500
H 	H 	0.78523 0.72877 0.17527 0.04300
C 	C 	0.83883 0.80407 0.17427 -0.00800
H 	H 	0.86253 0.80127 0.20077 0.03100
C 	C 	0.75831 0.76356 0.11537 0.00900
C 	C 	0.71001 0.71323 0.09857 0.08300
C 	C 	0.71145 0.66660 0.09817 -0.13000
H 	H 	0.74253 0.66697 0.10787 0.06700
C 	C 	0.62103 0.52117 0.09267 -0.13700
H 	H 	0.58923 0.52017 0.09967 0.07000
C 	C 	0.62243 0.47507 0.09157 0.09400
H 	H 	0.59113 0.44367 0.09687 -0.00600
C 	C 	0.80393 0.85537 0.14077 0.00300
H 	H 	0.80253 0.88597 0.14757 0.02600
C 	C 	0.75833 0.80957 0.12167 -0.02800
H 	H 	0.72773 0.81057 0.11327 0.03100
C 	C 	0.80963 0.76597 0.11727 -0.03000
H 	H 	0.81233 0.73667 0.10657 0.03200
C 	C 	0.85373 0.81257 0.13507 -0.00300
H 	H 	0.88623 0.81427 0.13707 0.03600
C 	C 	0.69083 0.55757 0.12767 -0.02100
H 	H 	0.70803 0.58107 0.16017 0.03300
C 	C 	0.69033 0.50817 0.12467 -0.02300
H 	H 	0.70823 0.50117 0.15597 0.04200
O 	O 	0.56782 0.28781 0.00806 -0.40400
O 	O 	0.60361 0.37404 0.02313 -0.42000
C 	C 	0.56711 0.32985 0.00612 0.36900
C 	C 	0.51727 0.32782 0.98300 -0.09100
C 	C 	0.47910 0.28820 0.94840 -0.01200
H 	H 	0.48440 0.26110 0.93470 0.03600
C 	C 	0.43280 0.28690 0.93290 -0.03700
H 	H 	0.40660 0.25790 0.91160 0.03500
C 	C 	0.46010 0.36580 0.99120 -0.05500
H 	H 	0.45190 0.38980 0.00860 0.04300
C 	C 	0.50550 0.36810 0.00760 -0.00800
H 	H 	0.52920 0.39460 0.03410 0.03100
C 	C 	0.42498 0.32809 0.94870 0.00900
C 	C 	0.37668 0.33012 0.93190 0.08300
C 	C 	0.37812 0.37819 0.93150 -0.13000
H 	H 	0.40920 0.40890 0.94120 0.06700
C 	C 	0.28770 0.43320 0.92600 -0.13700
H 	H 	0.25590 0.40240 0.93300 0.07100
C 	C 	0.28910 0.48070 0.92490 0.09400
H 	H 	0.25780 0.48080 0.93020 -0.00600
C 	C 	0.47060 0.28190 0.97410 0.00300
H 	H 	0.46920 0.24990 0.98090 0.02600
C 	C 	0.42500 0.28210 0.95500 -0.02900
H 	H 	0.39440 0.25050 0.94660 0.03100
C 	C 	0.47630 0.37700 0.95060 -0.03100
H 	H 	0.47900 0.40900 0.93990 0.03200
C 	C 	0.52040 0.37450 0.96840 -0.00300
H 	H 	0.55290 0.40530 0.97040 0.03600
C 	C 	0.35750 0.46660 0.96100 -0.02100
H 	H 	0.37470 0.46030 0.99350 0.03300
C 	C 	0.35700 0.51550 0.95800 -0.02300
H 	H 	0.37490 0.54040 0.98930 0.04200
O 	O 	0.23449 0.62114 0.34139 -0.40400
O 	O 	0.27028 0.70737 0.35646 -0.42000
C 	C 	0.23378 0.66318 0.33945 0.36800
C 	C 	0.18394 0.66115 0.31633 -0.09100
C 	C 	0.14577 0.62153 0.28173 -0.01200
H 	H 	0.15107 0.59443 0.26803 0.03600
C 	C 	0.09947 0.62023 0.26623 -0.03700
H 	H 	0.07327 0.59123 0.24493 0.03400
C 	C 	0.12677 0.69913 0.32453 -0.05500
H 	H 	0.11857 0.72313 0.34193 0.04300
C 	C 	0.17217 0.70143 0.34093 -0.00700
H 	H 	0.19587 0.72793 0.36743 0.03100
C 	C 	0.09165 0.66142 0.28203 0.00800
C 	C 	0.04335 0.66345 0.26523 0.08200
C 	C 	0.04479 0.71152 0.26483 -0.12900
H 	H 	0.07587 0.74223 0.27453 0.06700
C 	C 	0.95437 0.76653 0.25933 -0.13300
H 	H 	0.92257 0.73573 0.26633 0.07000
C 	C 	0.95577 0.81403 0.25823 0.09500
H 	H 	0.92447 0.81413 0.26353 -0.00600
C 	C 	0.13727 0.61523 0.30743 0.00300
H 	H 	0.13587 0.58323 0.31423 0.02600
C 	C 	0.09167 0.61543 0.28833 -0.02900
H 	H 	0.06107 0.58383 0.27993 0.03000
C 	C 	0.14297 0.71033 0.28393 -0.03100
H 	H 	0.14567 0.74233 0.27323 0.03200
C 	C 	0.18707 0.70783 0.30173 -0.00300
H 	H 	0.21957 0.73863 0.30373 0.03600
C 	C 	0.02417 0.79993 0.29433 -0.02000
H 	H 	0.04137 0.79363 0.32683 0.03200
C 	C 	0.02367 0.84883 0.29133 -0.02400
H 	H 	0.04157 0.87373 0.32263 0.04200
O 	O 	0.90115 0.95448 0.67473 -0.40300
O 	O 	0.93694 0.04071 0.68980 -0.42200
C 	C 	0.90044 0.99652 0.67279 0.37300
C 	C 	0.85060 0.99449 0.64967 -0.08600
C 	C 	0.81243 0.95487 0.61507 -0.01300
H 	H 	0.81773 0.92777 0.60137 0.03700
C 	C 	0.76613 0.95357 0.59957 -0.03700
H 	H 	0.73993 0.92457 0.57827 0.03500
C 	C 	0.79343 0.03247 0.65787 -0.05400
H 	H 	0.78523 0.05647 0.67527 0.04200
C 	C 	0.83883 0.03477 0.67427 -0.01300
H 	H 	0.86253 0.06127 0.70077 0.03300
C 	C 	0.75831 0.99476 0.61537 0.01100
C 	C 	0.71001 0.99679 0.59857 0.09300
C 	C 	0.71145 0.04486 0.59817 -0.14600
H 	H 	0.74253 0.07557 0.60787 0.07200
C 	C 	0.62103 0.09987 0.59267 -0.13300
H 	H 	0.58923 0.06907 0.59967 0.06800
C 	C 	0.62243 0.14737 0.59157 0.09200
H 	H 	0.59113 0.14747 0.59687 -0.00600
C 	C 	0.80393 0.94857 0.64077 0.00300
H 	H 	0.80253 0.91657 0.64757 0.02600
C 	C 	0.75833 0.94877 0.62167 -0.02800
H 	H 	0.72773 0.91717 0.61327 0.03100
C 	C 	0.80963 0.04367 0.61727 -0.03400
H 	H 	0.81233 0.07567 0.60657 0.03300
C 	C 	0.85373 0.04117 0.63507 -0.00400
H 	H 	0.88623 0.07197 0.63707 0.03600
C 	C 	0.69083 0.13327 0.62767 -0.01900
H 	H 	0.70803 0.12697 0.66017 0.03200
C 	C 	0.69033 0.18217 0.62467 -0.02300
H 	H 	0.70823 0.20707 0.65597 0.04200
O 	O 	0.71219 0.28001 0.00806 -0.40400
O 	O 	0.62596 0.22957 0.02313 -0.42000
C 	C 	0.67015 0.23726 0.00612 0.36900
C 	C 	0.67218 0.18945 0.98300 -0.09200
C 	C 	0.71180 0.19090 0.94840 -0.01100
H 	H 	0.73890 0.22330 0.93470 0.03600
C 	C 	0.71310 0.14590 0.93290 -0.03900
H 	H 	0.74210 0.14870 0.91160 0.03500
C 	C 	0.63420 0.09430 0.99120 -0.05500
H 	H 	0.61020 0.06210 0.00860 0.04300
C 	C 	0.63190 0.13740 0.00760 -0.00700
H 	H 	0.60540 0.13460 0.03410 0.03100
C 	C 	0.67191 0.09689 0.94870 0.01400
C 	C 	0.66988 0.04656 0.93190 0.06900
C 	C 	0.62181 0.99993 0.93150 -0.10300
H 	H 	0.59110 0.00030 0.94120 0.05400
C 	C 	0.56680 0.85450 0.92600 -0.14000
H 	H 	0.59760 0.85350 0.93300 0.07200
C 	C 	0.51930 0.80840 0.92490 0.09600
H 	H 	0.51920 0.77700 0.93020 -0.00700
C 	C 	0.71810 0.18870 0.97410 0.00400
H 	H 	0.75010 0.21930 0.98090 0.02600
C 	C 	0.71790 0.14290 0.95500 -0.03000
H 	H 	0.74950 0.14390 0.94660 0.03100
C 	C 	0.62300 0.09930 0.95060 -0.03400
H 	H 	0.59100 0.07000 0.93990 0.03300
C 	C 	0.62550 0.14590 0.96840 -0.00100
H 	H 	0.59470 0.14760 0.97040 0.03500
C 	C 	0.53340 0.89090 0.96100 -0.02400
H 	H 	0.53970 0.91440 0.99350 0.03500
C 	C 	0.48450 0.84150 0.95800 -0.02200
H 	H 	0.45960 0.83450 0.98930 0.04200
O 	O 	0.37886 0.61334 0.34139 -0.40400
O 	O 	0.29263 0.56290 0.35646 -0.42000
C 	C 	0.33682 0.57059 0.33945 0.36800
C 	C 	0.33885 0.52278 0.31633 -0.09100
C 	C 	0.37847 0.52423 0.28173 -0.01200
H 	H 	0.40557 0.55663 0.26803 0.03600
C 	C 	0.37977 0.47923 0.26623 -0.03700
H 	H 	0.40877 0.48203 0.24493 0.03500
C 	C 	0.30087 0.42763 0.32453 -0.05500
H 	H 	0.27687 0.39543 0.34193 0.04300
C 	C 	0.29857 0.47073 0.34093 -0.00700
H 	H 	0.27207 0.46793 0.36743 0.03100
C 	C 	0.33858 0.43022 0.28203 0.00900
C 	C 	0.33655 0.37989 0.26523 0.08300
C 	C 	0.28848 0.33326 0.26483 -0.13000
H 	H 	0.25777 0.33363 0.27453 0.06700
C 	C 	0.23347 0.18783 0.25933 -0.13700
H 	H 	0.26427 0.18683 0.26633 0.07100
C 	C 	0.18597 0.14173 0.25823 0.09400
H 	H 	0.18587 0.11033 0.26353 -0.00700
C 	C 	0.38477 0.52203 0.30743 0.00300
H 	H 	0.41677 0.55263 0.31423 0.02600
C 	C 	0.38457 0.47623 0.28833 -0.02900
H 	H 	0.41617 0.47723 0.27993 0.03100
C 	C 	0.28967 0.43263 0.28393 -0.03100
H 	H 	0.25767 0.40333 0.27323 0.03200
C 	C 	0.29217 0.47923 0.30173 -0.00300
H 	H 	0.26137 0.48093 0.30373 0.03600
C 	C 	0.20007 0.22423 0.29433 -0.02100
H 	H 	0.20637 0.24773 0.32683 0.03300
C 	C 	0.15117 0.17483 0.29133 -0.02300
H 	H 	0.12627 0.16783 0.32263 0.04200
O 	O 	0.04552 0.94668 0.67473 -0.40100
O 	O 	0.95929 0.89624 0.68980 -0.41400
C 	C 	0.00348 0.90393 0.67279 0.36300
C 	C 	0.00551 0.85612 0.64967 -0.09500
C 	C 	0.04513 0.85757 0.61507 -0.01200
H 	H 	0.07223 0.88997 0.60137 0.03600
C 	C 	0.04643 0.81257 0.59957 -0.03700
H 	H 	0.07543 0.81537 0.57827 0.03500
C 	C 	0.96753 0.76097 0.65787 -0.05500
H 	H 	0.94353 0.72877 0.67527 0.04400
C 	C 	0.96523 0.80407 0.67427 -0.00200
H 	H 	0.93873 0.80127 0.70077 0.03000
C 	C 	0.00524 0.76356 0.61537 0.00600
C 	C 	0.00321 0.71323 0.59857 0.07300
C 	C 	0.95514 0.66660 0.59817 -0.11400
H 	H 	0.92443 0.66697 0.60787 0.06200
C 	C 	0.90013 0.52117 0.59267 -0.14000
H 	H 	0.93093 0.52017 0.59967 0.07300
C 	C 	0.85263 0.47507 0.59157 0.09600
H 	H 	0.85253 0.44367 0.59687 -0.00700
C 	C 	0.05143 0.85537 0.64077 0.00300
H 	H 	0.08343 0.88597 0.64757 0.02600
C 	C 	0.05123 0.80957 0.62167 -0.02900
H 	H 	0.08283 0.81057 0.61327 0.03100
C 	C 	0.95633 0.76597 0.61727 -0.02600
H 	H 	0.92433 0.73667 0.60657 0.03100
C 	C 	0.95883 0.81257 0.63507 -0.00300
H 	H 	0.92803 0.81427 0.63707 0.03600
C 	C 	0.86673 0.55757 0.62767 -0.02400
H 	H 	0.87303 0.58107 0.66017 0.03500
C 	C 	0.81783 0.50817 0.62467 -0.02200
H 	H 	0.79293 0.50117 0.65597 0.04200
O 	O 	0.71999 0.43218 0.00806 -0.40400
O 	O 	0.77043 0.39639 0.02313 -0.42000
C 	C 	0.76274 0.43289 0.00612 0.36800
C 	C 	0.81055 0.48273 0.98300 -0.09000
C 	C 	0.80910 0.52090 0.94840 -0.01300
H 	H 	0.77670 0.51560 0.93470 0.03600
C 	C 	0.85410 0.56720 0.93290 -0.03600
H 	H 	0.85130 0.59340 0.91160 0.03400
C 	C 	0.90570 0.53990 0.99120 -0.05300
H 	H 	0.93790 0.54810 0.00860 0.04300
C 	C 	0.86260 0.49450 0.00760 -0.00800
H 	H 	0.86540 0.47080 0.03410 0.03200
C 	C 	0.90311 0.57502 0.94870 0.00400
C 	C 	0.95344 0.62332 0.93190 0.09700
C 	C 	0.00007 0.62188 0.93150 -0.15600
H 	H 	0.99970 0.59080 0.94120 0.08000
C 	C 	0.14550 0.71230 0.92600 -0.13300
H 	H 	0.14650 0.74410 0.93300 0.06900
C 	C 	0.19160 0.71090 0.92490 0.09200
H 	H 	0.22300 0.74220 0.93020 -0.00600
C 	C 	0.81130 0.52940 0.97410 0.00300
H 	H 	0.78070 0.53080 0.98090 0.02600
C 	C 	0.85710 0.57500 0.95500 -0.02700
H 	H 	0.85610 0.60560 0.94660 0.03100
C 	C 	0.90070 0.52370 0.95060 -0.03000
H 	H 	0.93000 0.52100 0.93990 0.03200
C 	C 	0.85410 0.47960 0.96840 -0.00300
H 	H 	0.85240 0.44710 0.97040 0.03600
C 	C 	0.10910 0.64250 0.96100 -0.01900
H 	H 	0.08560 0.62530 0.99350 0.03100
C 	C 	0.15850 0.64300 0.95800 -0.02300
H 	H 	0.16550 0.62510 0.98930 0.04200
O 	O 	0.38666 0.76551 0.34139 -0.40400
O 	O 	0.43710 0.72972 0.35646 -0.42000
C 	C 	0.42941 0.76622 0.33945 0.36800
C 	C 	0.47722 0.81606 0.31633 -0.09100
C 	C 	0.47577 0.85423 0.28173 -0.01200
H 	H 	0.44337 0.84893 0.26803 0.03600
C 	C 	0.52077 0.90053 0.26623 -0.03700
H 	H 	0.51797 0.92673 0.24493 0.03500
C 	C 	0.57237 0.87323 0.32453 -0.05500
H 	H 	0.60457 0.88143 0.34193 0.04300
C 	C 	0.52927 0.82783 0.34093 -0.00700
H 	H 	0.53207 0.80413 0.36743 0.03100
C 	C 	0.56978 0.90835 0.28203 0.00900
C 	C 	0.62011 0.95665 0.26523 0.08600
C 	C 	0.66674 0.95521 0.26483 -0.12400
H 	H 	0.66637 0.92413 0.27453 0.06600
C 	C 	0.81217 0.04563 0.25933 -0.13600
H 	H 	0.81317 0.07743 0.26633 0.07000
C 	C 	0.85827 0.04423 0.25823 0.09300
H 	H 	0.88967 0.07553 0.26353 -0.00600
C 	C 	0.47797 0.86273 0.30743 0.00300
H 	H 	0.44737 0.86413 0.31423 0.02600
C 	C 	0.52377 0.90833 0.28833 -0.02900
H 	H 	0.52277 0.93893 0.27993 0.03200
C 	C 	0.56737 0.85703 0.28393 -0.03100
H 	H 	0.59667 0.85433 0.27323 0.03200
C 	C 	0.52077 0.81293 0.30173 -0.00300
H 	H 	0.51907 0.78043 0.30373 0.03600
C 	C 	0.77577 0.97583 0.29433 -0.01700
H 	H 	0.75227 0.95863 0.32683 0.03300
C 	C 	0.82517 0.97633 0.29133 -0.01900
H 	H 	0.83217 0.95843 0.32263 0.04100
O 	O 	0.05332 0.09885 0.67473 -0.40500
O 	O 	0.10376 0.06306 0.68980 -0.42100
C 	C 	0.09607 0.09956 0.67279 0.36900
C 	C 	0.14388 0.14940 0.64967 -0.09100
C 	C 	0.14243 0.18757 0.61507 -0.01200
H 	H 	0.11003 0.18227 0.60137 0.03500
C 	C 	0.18743 0.23387 0.59957 -0.03700
H 	H 	0.18463 0.26007 0.57827 0.03400
C 	C 	0.23903 0.20657 0.65787 -0.05500
H 	H 	0.27123 0.21477 0.67527 0.04300
C 	C 	0.19593 0.16117 0.67427 -0.00700
H 	H 	0.19873 0.13747 0.70077 0.03100
C 	C 	0.23644 0.24169 0.61537 0.00900
C 	C 	0.28677 0.28999 0.59857 0.08300
C 	C 	0.33340 0.28855 0.59817 -0.13000
H 	H 	0.33303 0.25747 0.60787 0.06700
C 	C 	0.47883 0.37897 0.59267 -0.13700
H 	H 	0.47983 0.41077 0.59967 0.07100
C 	C 	0.52493 0.37757 0.59157 0.09400
H 	H 	0.55633 0.40887 0.59687 -0.00600
C 	C 	0.14463 0.19607 0.64077 0.00300
H 	H 	0.11403 0.19747 0.64757 0.02600
C 	C 	0.19043 0.24167 0.62167 -0.02900
H 	H 	0.18943 0.27227 0.61327 0.03100
C 	C 	0.23403 0.19037 0.61727 -0.03100
H 	H 	0.26333 0.18767 0.60657 0.03200
C 	C 	0.18743 0.14627 0.63507 -0.00300
H 	H 	0.18573 0.11377 0.63707 0.03600
C 	C 	0.44243 0.30917 0.62767 -0.02100
H 	H 	0.41893 0.29197 0.66017 0.03300
C 	C 	0.49183 0.30967 0.62467 -0.02300
H 	H 	0.49883 0.29177 0.65597 0.04200
O 	O 	0.28781 0.56782 0.49194 -0.40400
O 	O 	0.37404 0.60361 0.47687 -0.42000
C 	C 	0.32985 0.56711 0.49388 0.36800
C 	C 	0.32782 0.51727 0.51700 -0.09100
C 	C 	0.28820 0.47910 0.55160 -0.01200
H 	H 	0.26110 0.48440 0.56530 0.03600
C 	C 	0.28690 0.43280 0.56710 -0.03700
H 	H 	0.25790 0.40660 0.58840 0.03500
C 	C 	0.36580 0.46010 0.50880 -0.05500
H 	H 	0.38980 0.45190 0.49140 0.04300
C 	C 	0.36810 0.50550 0.49240 -0.00700
H 	H 	0.39460 0.52920 0.46590 0.03100
C 	C 	0.32809 0.42498 0.55130 0.00900
C 	C 	0.33012 0.37668 0.56810 0.08300
C 	C 	0.37819 0.37812 0.56850 -0.13000
H 	H 	0.40890 0.40920 0.55880 0.06700
C 	C 	0.43320 0.28770 0.57400 -0.13700
H 	H 	0.40240 0.25590 0.56700 0.07100
C 	C 	0.48070 0.28910 0.57510 0.09400
H 	H 	0.48080 0.25780 0.56980 -0.00600
C 	C 	0.28190 0.47060 0.52590 0.00300
H 	H 	0.24990 0.46920 0.51910 0.02600
C 	C 	0.28210 0.42500 0.54500 -0.02900
H 	H 	0.25050 0.39440 0.55340 0.03100
C 	C 	0.37700 0.47630 0.54940 -0.03100
H 	H 	0.40900 0.47900 0.56010 0.03200
C 	C 	0.37450 0.52040 0.53160 -0.00300
H 	H 	0.40530 0.55290 0.52960 0.03600
C 	C 	0.46660 0.35750 0.53900 -0.02100
H 	H 	0.46030 0.37470 0.50650 0.03300
C 	C 	0.51550 0.35700 0.54200 -0.02300
H 	H 	0.54040 0.37490 0.51070 0.04200
O 	O 	0.95448 0.90115 0.82527 -0.40300
O 	O 	0.04071 0.93694 0.81020 -0.42200
C 	C 	0.99652 0.90044 0.82721 0.37300
C 	C 	0.99449 0.85060 0.85033 -0.08600
C 	C 	0.95487 0.81243 0.88493 -0.01300
H 	H 	0.92777 0.81773 0.89863 0.03700
C 	C 	0.95357 0.76613 0.90043 -0.03700
H 	H 	0.92457 0.73993 0.92173 0.03500
C 	C 	0.03247 0.79343 0.84213 -0.05400
H 	H 	0.05647 0.78523 0.82473 0.04200
C 	C 	0.03477 0.83883 0.82573 -0.01200
H 	H 	0.06127 0.86253 0.79923 0.03300
C 	C 	0.99476 0.75831 0.88463 0.01100
C 	C 	0.99679 0.71001 0.90143 0.09300
C 	C 	0.04486 0.71145 0.90183 -0.14500
H 	H 	0.07557 0.74253 0.89213 0.07200
C 	C 	0.09987 0.62103 0.90733 -0.13300
H 	H 	0.06907 0.58923 0.90033 0.06800
C 	C 	0.14737 0.62243 0.90843 0.09200
H 	H 	0.14747 0.59113 0.90313 -0.00600
C 	C 	0.94857 0.80393 0.85923 0.00300
H 	H 	0.91657 0.80253 0.85243 0.02600
C 	C 	0.94877 0.75833 0.87833 -0.02800
H 	H 	0.91717 0.72773 0.88673 0.03100
C 	C 	0.04367 0.80963 0.88273 -0.03400
H 	H 	0.07567 0.81233 0.89343 0.03300
C 	C 	0.04117 0.85373 0.86493 -0.00400
H 	H 	0.07197 0.88623 0.86293 0.03600
C 	C 	0.13327 0.69083 0.87233 -0.01900
H 	H 	0.12697 0.70803 0.83983 0.03200
C 	C 	0.18217 0.69033 0.87533 -0.02300
H 	H 	0.20707 0.70823 0.84403 0.04200
O 	O 	0.62114 0.23449 0.15861 -0.40400
O 	O 	0.70737 0.27028 0.14354 -0.42000
C 	C 	0.66318 0.23378 0.16055 0.36800
C 	C 	0.66115 0.18394 0.18367 -0.09100
C 	C 	0.62153 0.14577 0.21827 -0.01200
H 	H 	0.59443 0.15107 0.23197 0.03600
C 	C 	0.62023 0.09947 0.23377 -0.03700
H 	H 	0.59123 0.07327 0.25507 0.03400
C 	C 	0.69913 0.12677 0.17547 -0.05500
H 	H 	0.72313 0.11857 0.15807 0.04300
C 	C 	0.70143 0.17217 0.15907 -0.00700
H 	H 	0.72793 0.19587 0.13257 0.03100
C 	C 	0.66142 0.09165 0.21797 0.00800
C 	C 	0.66345 0.04335 0.23477 0.08200
C 	C 	0.71152 0.04479 0.23517 -0.12900
H 	H 	0.74223 0.07587 0.22547 0.06700
C 	C 	0.76653 0.95437 0.24067 -0.13300
H 	H 	0.73573 0.92257 0.23367 0.07000
C 	C 	0.81403 0.95577 0.24177 0.09500
H 	H 	0.81413 0.92447 0.23647 -0.00600
C 	C 	0.61523 0.13727 0.19257 0.00300
H 	H 	0.58323 0.13587 0.18577 0.02600
C 	C 	0.61543 0.09167 0.21167 -0.02900
H 	H 	0.58383 0.06107 0.22007 0.03000
C 	C 	0.71033 0.14297 0.21607 -0.03100
H 	H 	0.74233 0.14567 0.22677 0.03200
C 	C 	0.70783 0.18707 0.19827 -0.00300
H 	H 	0.73863 0.21957 0.19627 0.03600
C 	C 	0.79993 0.02417 0.20567 -0.02000
H 	H 	0.79363 0.04137 0.17317 0.03200
C 	C 	0.84883 0.02367 0.20867 -0.02400
H 	H 	0.87373 0.04157 0.17737 0.04200
O 	O 	0.28001 0.71219 0.49194 -0.40400
O 	O 	0.22957 0.62596 0.47687 -0.42000
C 	C 	0.23726 0.67015 0.49388 0.36900
C 	C 	0.18945 0.67218 0.51700 -0.09200
C 	C 	0.19090 0.71180 0.55160 -0.01100
H 	H 	0.22330 0.73890 0.56530 0.03600
C 	C 	0.14590 0.71310 0.56710 -0.03800
H 	H 	0.14870 0.74210 0.58840 0.03500
C 	C 	0.09430 0.63420 0.50880 -0.05600
H 	H 	0.06210 0.61020 0.49140 0.04300
C 	C 	0.13740 0.63190 0.49240 -0.00700
H 	H 	0.13460 0.60540 0.46590 0.03100
C 	C 	0.09689 0.67191 0.55130 0.01400
C 	C 	0.04656 0.66988 0.56810 0.06900
C 	C 	0.99993 0.62181 0.56850 -0.10300
H 	H 	0.00030 0.59110 0.55880 0.05400
C 	C 	0.85450 0.56680 0.57400 -0.14000
H 	H 	0.85350 0.59760 0.56700 0.07200
C 	C 	0.80840 0.51930 0.57510 0.09600
H 	H 	0.77700 0.51920 0.56980 -0.00700
C 	C 	0.18870 0.71810 0.52590 0.00400
H 	H 	0.21930 0.75010 0.51910 0.02600
C 	C 	0.14290 0.71790 0.54500 -0.03000
H 	H 	0.14390 0.74950 0.55340 0.03200
C 	C 	0.09930 0.62300 0.54940 -0.03200
H 	H 	0.07000 0.59100 0.56010 0.03200
C 	C 	0.14590 0.62550 0.53160 -0.00200
H 	H 	0.14760 0.59470 0.52960 0.03500
C 	C 	0.89090 0.53340 0.53900 -0.02400
H 	H 	0.91440 0.53970 0.50650 0.03500
C 	C 	0.84150 0.48450 0.54200 -0.02200
H 	H 	0.83450 0.45960 0.51070 0.04200
O 	O 	0.94668 0.04552 0.82527 -0.40100
O 	O 	0.89624 0.95929 0.81020 -0.41400
C 	C 	0.90393 0.00348 0.82721 0.36300
C 	C 	0.85612 0.00551 0.85033 -0.09500
C 	C 	0.85757 0.04513 0.88493 -0.01200
H 	H 	0.88997 0.07223 0.89863 0.03600
C 	C 	0.81257 0.04643 0.90043 -0.03700
H 	H 	0.81537 0.07543 0.92173 0.03400
C 	C 	0.76097 0.96753 0.84213 -0.05500
H 	H 	0.72877 0.94353 0.82473 0.04400
C 	C 	0.80407 0.96523 0.82573 -0.00200
H 	H 	0.80127 0.93873 0.79923 0.03000
C 	C 	0.76356 0.00524 0.88463 0.00600
C 	C 	0.71323 0.00321 0.90143 0.07300
C 	C 	0.66660 0.95514 0.90183 -0.11400
H 	H 	0.66697 0.92443 0.89213 0.06200
C 	C 	0.52117 0.90013 0.90733 -0.14000
H 	H 	0.52017 0.93093 0.90033 0.07300
C 	C 	0.47507 0.85263 0.90843 0.09700
H 	H 	0.44367 0.85253 0.90313 -0.00700
C 	C 	0.85537 0.05143 0.85923 0.00300
H 	H 	0.88597 0.08343 0.85243 0.02600
C 	C 	0.80957 0.05123 0.87833 -0.02900
H 	H 	0.81057 0.08283 0.88673 0.03100
C 	C 	0.76597 0.95633 0.88273 -0.02700
H 	H 	0.73667 0.92433 0.89343 0.03100
C 	C 	0.81257 0.95883 0.86493 -0.00300
H 	H 	0.81427 0.92803 0.86293 0.03600
C 	C 	0.55757 0.86673 0.87233 -0.02400
H 	H 	0.58107 0.87303 0.83983 0.03500
C 	C 	0.50817 0.81783 0.87533 -0.02200
H 	H 	0.50117 0.79293 0.84403 0.04200
O 	O 	0.61334 0.37886 0.15861 -0.40400
O 	O 	0.56290 0.29263 0.14354 -0.42000
C 	C 	0.57059 0.33682 0.16055 0.36800
C 	C 	0.52278 0.33885 0.18367 -0.09100
C 	C 	0.52423 0.37847 0.21827 -0.01200
H 	H 	0.55663 0.40557 0.23197 0.03600
C 	C 	0.47923 0.37977 0.23377 -0.03700
H 	H 	0.48203 0.40877 0.25507 0.03500
C 	C 	0.42763 0.30087 0.17547 -0.05500
H 	H 	0.39543 0.27687 0.15807 0.04300
C 	C 	0.47073 0.29857 0.15907 -0.00700
H 	H 	0.46793 0.27207 0.13257 0.03100
C 	C 	0.43022 0.33858 0.21797 0.00900
C 	C 	0.37989 0.33655 0.23477 0.08300
C 	C 	0.33326 0.28848 0.23517 -0.13000
H 	H 	0.33363 0.25777 0.22547 0.06700
C 	C 	0.18783 0.23347 0.24067 -0.13700
H 	H 	0.18683 0.26427 0.23367 0.07100
C 	C 	0.14173 0.18597 0.24177 0.09400
H 	H 	0.11033 0.18587 0.23647 -0.00700
C 	C 	0.52203 0.38477 0.19257 0.00300
H 	H 	0.55263 0.41677 0.18577 0.02600
C 	C 	0.47623 0.38457 0.21167 -0.02900
H 	H 	0.47723 0.41617 0.22007 0.03100
C 	C 	0.43263 0.28967 0.21607 -0.03100
H 	H 	0.40333 0.25767 0.22677 0.03200
C 	C 	0.47923 0.29217 0.19827 -0.00300
H 	H 	0.48093 0.26137 0.19627 0.03600
C 	C 	0.22423 0.20007 0.20567 -0.02100
H 	H 	0.24773 0.20637 0.17317 0.03300
C 	C 	0.17483 0.15117 0.20867 -0.02300
H 	H 	0.16783 0.12627 0.17737 0.04200
O 	O 	0.43218 0.71999 0.49194 -0.40400
O 	O 	0.39639 0.77043 0.47687 -0.42000
C 	C 	0.43289 0.76274 0.49388 0.36800
C 	C 	0.48273 0.81055 0.51700 -0.09000
C 	C 	0.52090 0.80910 0.55160 -0.01300
H 	H 	0.51560 0.77670 0.56530 0.03600
C 	C 	0.56720 0.85410 0.56710 -0.03600
H 	H 	0.59340 0.85130 0.58840 0.03400
C 	C 	0.53990 0.90570 0.50880 -0.05400
H 	H 	0.54810 0.93790 0.49140 0.04300
C 	C 	0.49450 0.86260 0.49240 -0.00800
H 	H 	0.47080 0.86540 0.46590 0.03200
C 	C 	0.57502 0.90311 0.55130 0.00400
C 	C 	0.62332 0.95344 0.56810 0.09700
C 	C 	0.62188 0.00007 0.56850 -0.15700
H 	H 	0.59080 0.99970 0.55880 0.08000
C 	C 	0.71230 0.14550 0.57400 -0.13300
H 	H 	0.74410 0.14650 0.56700 0.06900
C 	C 	0.71090 0.19160 0.57510 0.09200
H 	H 	0.74220 0.22300 0.56980 -0.00600
C 	C 	0.52940 0.81130 0.52590 0.00200
H 	H 	0.53080 0.78070 0.51910 0.02600
C 	C 	0.57500 0.85710 0.54500 -0.02700
H 	H 	0.60560 0.85610 0.55340 0.03100
C 	C 	0.52370 0.90070 0.54940 -0.02900
H 	H 	0.52100 0.93000 0.56010 0.03200
C 	C 	0.47960 0.85410 0.53160 -0.00400
H 	H 	0.44710 0.85240 0.52960 0.03600
C 	C 	0.64250 0.10910 0.53900 -0.01900
H 	H 	0.62530 0.08560 0.50650 0.03100
C 	C 	0.64300 0.15850 0.54200 -0.02300
H 	H 	0.62510 0.16550 0.51070 0.04200
O 	O 	0.09885 0.05332 0.82527 -0.40500
O 	O 	0.06306 0.10376 0.81020 -0.42100
C 	C 	0.09956 0.09607 0.82721 0.36900
C 	C 	0.14940 0.14388 0.85033 -0.09100
C 	C 	0.18757 0.14243 0.88493 -0.01200
H 	H 	0.18227 0.11003 0.89863 0.03500
C 	C 	0.23387 0.18743 0.90043 -0.03700
H 	H 	0.26007 0.18463 0.92173 0.03400
C 	C 	0.20657 0.23903 0.84213 -0.05500
H 	H 	0.21477 0.27123 0.82473 0.04300
C 	C 	0.16117 0.19593 0.82573 -0.00700
H 	H 	0.13747 0.19873 0.79923 0.03100
C 	C 	0.24169 0.23644 0.88463 0.00900
C 	C 	0.28999 0.28677 0.90143 0.08300
C 	C 	0.28855 0.33340 0.90183 -0.13000
H 	H 	0.25747 0.33303 0.89213 0.06700
C 	C 	0.37897 0.47883 0.90733 -0.13700
H 	H 	0.41077 0.47983 0.90033 0.07000
C 	C 	0.37757 0.52493 0.90843 0.09400
H 	H 	0.40887 0.55633 0.90313 -0.00600
C 	C 	0.19607 0.14463 0.85923 0.00300
H 	H 	0.19747 0.11403 0.85243 0.02600
C 	C 	0.24167 0.19043 0.87833 -0.02900
H 	H 	0.27227 0.18943 0.88673 0.03100
C 	C 	0.19037 0.23403 0.88273 -0.03100
H 	H 	0.18767 0.26333 0.89343 0.03200
C 	C 	0.14627 0.18743 0.86493 -0.00300
H 	H 	0.11377 0.18573 0.86293 0.03600
C 	C 	0.30917 0.44243 0.87233 -0.02100
H 	H 	0.29197 0.41893 0.83983 0.03300
C 	C 	0.30967 0.49183 0.87533 -0.02300
H 	H 	0.29177 0.49883 0.84403 0.04200
O 	O 	0.76551 0.38666 0.15861 -0.40400
O 	O 	0.72972 0.43710 0.14354 -0.42000
C 	C 	0.76622 0.42941 0.16055 0.36800
C 	C 	0.81606 0.47722 0.18367 -0.09100
C 	C 	0.85423 0.47577 0.21827 -0.01200
H 	H 	0.84893 0.44337 0.23197 0.03600
C 	C 	0.90053 0.52077 0.23377 -0.03700
H 	H 	0.92673 0.51797 0.25507 0.03500
C 	C 	0.87323 0.57237 0.17547 -0.05500
H 	H 	0.88143 0.60457 0.15807 0.04300
C 	C 	0.82783 0.52927 0.15907 -0.00700
H 	H 	0.80413 0.53207 0.13257 0.03100
C 	C 	0.90835 0.56978 0.21797 0.00900
C 	C 	0.95665 0.62011 0.23477 0.08600
C 	C 	0.95521 0.66674 0.23517 -0.12400
H 	H 	0.92413 0.66637 0.22547 0.06600
C 	C 	0.04563 0.81217 0.24067 -0.13600
H 	H 	0.07743 0.81317 0.23367 0.07000
C 	C 	0.04423 0.85827 0.24177 0.09300
H 	H 	0.07553 0.88967 0.23647 -0.00600
C 	C 	0.86273 0.47797 0.19257 0.00300
H 	H 	0.86413 0.44737 0.18577 0.02600
C 	C 	0.90833 0.52377 0.21167 -0.02900
H 	H 	0.93893 0.52277 0.22007 0.03200
C 	C 	0.85703 0.56737 0.21607 -0.03100
H 	H 	0.85433 0.59667 0.22677 0.03200
C 	C 	0.81293 0.52077 0.19827 -0.00300
H 	H 	0.78043 0.51907 0.19627 0.03600
C 	C 	0.97583 0.77577 0.20567 -0.01700
H 	H 	0.95863 0.75227 0.17317 0.03300
C 	C 	0.97633 0.82517 0.20867 -0.01900
H 	H 	0.95843 0.83217 0.17737 0.04100
Ni	Ni	0.66667 0.40200 0.08333 1.12200
N 	N 	0.66667 0.47344 0.08333 -0.21400
N 	N 	0.66667 0.71515 0.08333 -0.13700
C 	C 	0.66667 0.61957 0.08333 0.04400
C 	C 	0.66667 0.56916 0.08333 0.06500
Ni	Ni	0.59800 0.26467 0.08333 1.12200
N 	N 	0.52656 0.19322 0.08333 -0.21400
N 	N 	0.28485 0.95151 0.08333 -0.14100
C 	C 	0.38043 0.04709 0.08333 0.05800
C 	C 	0.43084 0.09750 0.08333 0.05700
Ni	Ni	0.73533 0.33333 0.08333 1.12200
N 	N 	0.80678 0.33333 0.08333 -0.21500
N 	N 	0.04849 0.33333 0.08333 -0.13400
C 	C 	0.95291 0.33333 0.08333 0.03000
C 	C 	0.90250 0.33333 0.08333 0.07400
Ni	Ni	0.40200 0.66667 0.41667 1.12200
N 	N 	0.47344 0.66667 0.41667 -0.21400
N 	N 	0.71515 0.66667 0.41667 -0.13700
C 	C 	0.61957 0.66667 0.41667 0.04400
C 	C 	0.56916 0.66667 0.41667 0.06500
Ni	Ni	0.06866 0.00000 0.75000 1.12100
N 	N 	0.14011 0.00000 0.75000 -0.21700
N 	N 	0.38182 0.00000 0.75000 -0.14000
C 	C 	0.28624 0.00000 0.75000 0.04000
C 	C 	0.23583 0.00000 0.75000 0.05900
Ni	Ni	0.26467 0.59800 0.41667 1.12200
N 	N 	0.19322 0.52656 0.41667 -0.21400
N 	N 	0.95151 0.28485 0.41667 -0.14100
C 	C 	0.04709 0.38043 0.41667 0.05800
C 	C 	0.09750 0.43084 0.41667 0.05600
Ni	Ni	0.93134 0.93134 0.75000 1.12400
N 	N 	0.85989 0.85989 0.75000 -0.21400
N 	N 	0.61818 0.61818 0.75000 -0.13700
C 	C 	0.71376 0.71376 0.75000 0.04400
C 	C 	0.76417 0.76417 0.75000 0.06500
Ni	Ni	0.33333 0.73533 0.41667 1.12200
N 	N 	0.33333 0.80678 0.41667 -0.21500
N 	N 	0.33333 0.04849 0.41667 -0.13400
C 	C 	0.33333 0.95291 0.41667 0.03000
C 	C 	0.33333 0.90250 0.41667 0.07400
Ni	Ni	-0.00000 0.06866 0.75000 1.12100
N 	N 	-0.00000 0.14011 0.75000 -0.21700
N 	N 	0.00000 0.38182 0.75000 -0.14000
C 	C 	-0.00000 0.28624 0.75000 0.04000
C 	C 	-0.00000 0.23583 0.75000 0.05900
Ni	Ni	0.33333 0.59800 0.91667 1.12200
N 	N 	0.33333 0.52656 0.91667 -0.21400
N 	N 	0.33333 0.28485 0.91667 -0.13700
C 	C 	0.33333 0.38043 0.91667 0.04400
C 	C 	0.33333 0.43084 0.91667 0.06500
Ni	Ni	-0.00000 0.93134 0.25000 1.12200
N 	N 	-0.00000 0.85989 0.25000 -0.21800
N 	N 	0.00000 0.61818 0.25000 -0.14000
C 	C 	0.00000 0.71376 0.25000 0.04000
C 	C 	0.00000 0.76417 0.25000 0.05800
Ni	Ni	0.40200 0.73533 0.91667 1.12200
N 	N 	0.47344 0.80678 0.91667 -0.21500
N 	N 	0.71515 0.04849 0.91667 -0.13400
C 	C 	0.61957 0.95291 0.91667 0.02900
C 	C 	0.56916 0.90250 0.91667 0.07500
Ni	Ni	0.06866 0.06866 0.25000 1.12200
N 	N 	0.14011 0.14011 0.25000 -0.21400
N 	N 	0.38182 0.38182 0.25000 -0.13700
C 	C 	0.28624 0.28624 0.25000 0.04400
C 	C 	0.23583 0.23583 0.25000 0.06500
Ni	Ni	0.26467 0.66667 0.91667 1.12200
N 	N 	0.19322 0.66667 0.91667 -0.21300
N 	N 	0.95151 0.66667 0.91667 -0.14100
C 	C 	0.04709 0.66667 0.91667 0.05800
C 	C 	0.09750 0.66667 0.91667 0.05600
Ni	Ni	0.93134 0.00000 0.25000 1.12200
N 	N 	0.85989 0.00000 0.25000 -0.21700
N 	N 	0.61818 0.00000 0.25000 -0.14000
C 	C 	0.71376 0.00000 0.25000 0.04000
C 	C 	0.76417 0.00000 0.25000 0.05900
Ni	Ni	0.59800 0.33333 0.58333 1.12200
N 	N 	0.52656 0.33333 0.58333 -0.21400
N 	N 	0.28485 0.33333 0.58333 -0.13700
C 	C 	0.38043 0.33333 0.58333 0.04400
C 	C 	0.43084 0.33333 0.58333 0.06500
Ni	Ni	0.73533 0.40200 0.58333 1.12200
N 	N 	0.80678 0.47344 0.58333 -0.21500
N 	N 	0.04849 0.71515 0.58333 -0.13400
C 	C 	0.95291 0.61957 0.58333 0.02900
C 	C 	0.90250 0.56916 0.58333 0.07500
Ni	Ni	0.66667 0.26467 0.58333 1.12200
N 	N 	0.66667 0.19322 0.58333 -0.21300
N 	N 	0.66667 0.95151 0.58333 -0.14100
C 	C 	0.66667 0.04709 0.58333 0.05900
C 	C 	0.66667 0.09750 0.58333 0.05600
O 	O 	0.66667 0.33333 0.08333 -0.73300
O 	O 	-0.00000 0.00000 0.75000 -0.73500
O 	O 	0.33333 0.66667 0.41667 -0.73300
O 	O 	0.33333 0.66667 0.91667 -0.73300
O 	O 	-0.00000 0.00000 0.25000 -0.73500
O 	O 	0.66667 0.33333 0.58333 -0.73300
H 	H 	0.66667 0.33333 0.03730 0.14300
H 	H 	0.33333 0.66667 0.37063 0.14300
H 	H 	0.00000 0.00000 0.70397 0.14000
H 	H 	0.33333 0.66667 0.46270 0.14300
H 	H 	-0.00000 0.00000 0.79603 0.14000
H 	H 	0.66667 0.33333 0.12937 0.14300
H 	H 	0.33333 0.66667 0.96270 0.14300
H 	H 	0.00000 0.00000 0.29603 0.14000
H 	H 	0.66667 0.33333 0.62937 0.14300
H 	H 	0.66667 0.33333 0.53730 0.14300
H 	H 	0.33333 0.66667 0.87063 0.14300
H 	H 	0.00000 0.00000 0.20397 0.14000
