data_crystal

_cell_length_a 29.36800
_cell_length_b 29.36800
_cell_length_c 20.86800
_cell_angle_alpha 90.00000
_cell_angle_beta  90.00000
_cell_angle_gamma 120.00000

_symmetry_space_group_name_	'P 1'
_symmetry_space_group_name_H-M	'P 1'

loop_
_symmetry_equiv_pos_as_xyz
  x,y,z

loop_
_atom_site_label
_atom_site_type_symbol
_atom_site_fract_x
_atom_site_fract_y
_atom_site_fract_z
_atom_site_charge
O 	O 	0.43190 0.71292 0.99409 -0.39700
O 	O 	0.39703 0.62654 0.97645 -0.41900
C 	C 	0.43305 0.67053 0.99460 0.35700
C 	C 	0.48292 0.67281 0.01760 -0.08900
C 	C 	0.57501 0.67181 0.05160 0.00500
C 	C 	0.62308 0.66940 0.06880 0.08200
C 	C 	0.62152 0.62121 0.06900 -0.12500
H 	H 	0.58970 0.58980 0.05930 0.06300
C 	C 	0.71240 0.56650 0.07350 -0.04700
H 	H 	0.74470 0.59800 0.06580 0.03700
C 	C 	0.71100 0.51870 0.07480 0.01300
H 	H 	0.74300 0.51840 0.06930 0.02000
C 	C 	0.52880 0.71770 0.02900 0.00200
H 	H 	0.53040 0.75050 0.02310 0.02400
C 	C 	0.57350 0.71730 0.04910 -0.02700
H 	H 	0.60370 0.74930 0.06130 0.02600
C 	C 	0.52380 0.62370 0.05230 -0.02000
H 	H 	0.52080 0.59150 0.06580 0.02800
C 	C 	0.47980 0.62550 0.03320 -0.02000
H 	H 	0.44690 0.59380 0.03060 0.04000
C 	C 	0.52120 0.71150 0.05240 -0.01400
H 	H 	0.51590 0.73900 0.06770 0.03500
C 	C 	0.56800 0.71320 0.06710 -0.02900
H 	H 	0.59530 0.74320 0.08800 0.02700
C 	C 	0.54060 0.63410 0.00410 -0.06800
H 	H 	0.54950 0.61040 0.98440 0.04600
C 	C 	0.49430 0.63350 0.98850 0.00600
H 	H 	0.47010 0.60810 0.95930 0.02600
C 	C 	0.63600 0.53010 0.04400 -0.08200
H 	H 	0.61240 0.53410 0.01670 0.05000
C 	C 	0.63780 0.48290 0.04170 0.03200
H 	H 	0.61800 0.45750 0.00990 0.02200
O 	O 	0.09857 0.04625 0.32742 -0.39700
O 	O 	0.06370 0.95987 0.30978 -0.41500
C 	C 	0.09972 0.00386 0.32793 0.35300
C 	C 	0.14959 0.00614 0.35093 -0.09100
C 	C 	0.24168 0.00514 0.38493 0.00300
C 	C 	0.28975 0.00273 0.40213 0.07400
C 	C 	0.28819 0.95454 0.40233 -0.11100
H 	H 	0.25637 0.92313 0.39263 0.06000
C 	C 	0.37907 0.89983 0.40683 -0.04800
H 	H 	0.41137 0.93133 0.39913 0.04000
C 	C 	0.37767 0.85203 0.40813 0.01500
H 	H 	0.40967 0.85173 0.40263 0.02100
C 	C 	0.19547 0.05103 0.36233 0.00300
H 	H 	0.19707 0.08383 0.35643 0.02500
C 	C 	0.24017 0.05063 0.38243 -0.02700
H 	H 	0.27037 0.08263 0.39463 0.02700
C 	C 	0.19047 0.95703 0.38563 -0.01100
H 	H 	0.18747 0.92483 0.39913 0.02700
C 	C 	0.14647 0.95883 0.36653 -0.02300
H 	H 	0.11357 0.92713 0.36393 0.04300
C 	C 	0.18787 0.04483 0.38573 -0.01200
H 	H 	0.18257 0.07233 0.40103 0.03600
C 	C 	0.23467 0.04653 0.40043 -0.02800
H 	H 	0.26197 0.07653 0.42133 0.02700
C 	C 	0.20727 0.96743 0.33743 -0.07000
H 	H 	0.21617 0.94373 0.31773 0.04900
C 	C 	0.16097 0.96683 0.32183 0.01500
H 	H 	0.13677 0.94143 0.29263 0.02500
C 	C 	0.30267 0.86343 0.37733 -0.08200
H 	H 	0.27907 0.86743 0.35003 0.05100
C 	C 	0.30447 0.81623 0.37503 0.03200
H 	H 	0.28467 0.79083 0.34323 0.02300
O 	O 	0.76523 0.37959 0.66076 -0.39600
O 	O 	0.73036 0.29321 0.64312 -0.41800
C 	C 	0.76638 0.33720 0.66127 0.35800
C 	C 	0.81625 0.33948 0.68427 -0.08700
C 	C 	0.90834 0.33848 0.71827 0.00600
C 	C 	0.95641 0.33607 0.73547 0.08500
C 	C 	0.95485 0.28788 0.73567 -0.12000
H 	H 	0.92303 0.25647 0.72597 0.06300
C 	C 	0.04573 0.23317 0.74017 -0.04300
H 	H 	0.07803 0.26467 0.73247 0.03700
C 	C 	0.04433 0.18537 0.74147 0.01100
H 	H 	0.07633 0.18507 0.73597 0.02200
C 	C 	0.86213 0.38437 0.69567 0.00300
H 	H 	0.86373 0.41717 0.68977 0.02500
C 	C 	0.90683 0.38397 0.71577 -0.02600
H 	H 	0.93703 0.41597 0.72797 0.02800
C 	C 	0.85713 0.29037 0.71897 -0.01600
H 	H 	0.85413 0.25817 0.73247 0.02800
C 	C 	0.81313 0.29217 0.69987 -0.02200
H 	H 	0.78023 0.26047 0.69727 0.04200
C 	C 	0.85453 0.37817 0.71907 -0.01300
H 	H 	0.84923 0.40567 0.73437 0.03600
C 	C 	0.90133 0.37987 0.73377 -0.02800
H 	H 	0.92863 0.40987 0.75467 0.02800
C 	C 	0.87393 0.30077 0.67077 -0.06900
H 	H 	0.88283 0.27707 0.65107 0.04800
C 	C 	0.82763 0.30017 0.65517 0.00900
H 	H 	0.80343 0.27477 0.62597 0.02700
C 	C 	0.96933 0.19677 0.71067 -0.07800
H 	H 	0.94573 0.20077 0.68337 0.05000
C 	C 	0.97113 0.14957 0.70837 0.03500
H 	H 	0.95133 0.12417 0.67657 0.02300
O 	O 	0.28708 0.71898 0.99409 -0.39600
O 	O 	0.37346 0.77049 0.97645 -0.41800
C 	C 	0.32947 0.76252 0.99460 0.35800
C 	C 	0.32719 0.81011 0.01760 -0.08700
C 	C 	0.32819 0.90320 0.05160 0.00200
C 	C 	0.33060 0.95368 0.06880 0.09500
C 	C 	0.37879 0.00031 0.06900 -0.14700
H 	H 	0.41020 0.99990 0.05930 0.07500
C 	C 	0.43350 0.14590 0.07350 -0.04300
H 	H 	0.40200 0.14670 0.06580 0.03700
C 	C 	0.48130 0.19230 0.07480 0.01200
H 	H 	0.48160 0.22460 0.06930 0.02200
C 	C 	0.28230 0.81110 0.02900 0.00200
H 	H 	0.24950 0.77990 0.02310 0.02500
C 	C 	0.28270 0.85620 0.04910 -0.02500
H 	H 	0.25070 0.85440 0.06130 0.02600
C 	C 	0.37630 0.90010 0.05230 -0.01800
H 	H 	0.40850 0.92930 0.06580 0.02900
C 	C 	0.37450 0.85430 0.03320 -0.01800
H 	H 	0.40620 0.85310 0.03060 0.04100
C 	C 	0.28850 0.80970 0.05240 -0.01300
H 	H 	0.26100 0.77690 0.06770 0.03600
C 	C 	0.28680 0.85480 0.06710 -0.02700
H 	H 	0.25680 0.85210 0.08800 0.02700
C 	C 	0.36590 0.90650 0.00410 -0.06500
H 	H 	0.38960 0.93910 0.98440 0.04700
C 	C 	0.36650 0.86080 0.98850 0.00500
H 	H 	0.39190 0.86200 0.95930 0.02800
C 	C 	0.46990 0.10590 0.04400 -0.07900
H 	H 	0.46590 0.07830 0.01670 0.04900
C 	C 	0.51710 0.15490 0.04170 0.03300
H 	H 	0.54250 0.16050 0.00990 0.02300
O 	O 	0.95375 0.05231 0.32742 -0.39700
O 	O 	0.04013 0.10382 0.30978 -0.42200
C 	C 	0.99614 0.09585 0.32793 0.36200
C 	C 	0.99386 0.14344 0.35093 -0.08400
C 	C 	0.99486 0.23653 0.38493 0.00800
C 	C 	0.99727 0.28701 0.40213 0.09000
C 	C 	0.04546 0.33364 0.40233 -0.13600
H 	H 	0.07687 0.33323 0.39263 0.06700
C 	C 	0.10017 0.47923 0.40683 -0.04300
H 	H 	0.06867 0.48003 0.39913 0.03600
C 	C 	0.14797 0.52563 0.40813 0.01200
H 	H 	0.14827 0.55793 0.40263 0.02200
C 	C 	0.94897 0.14443 0.36233 0.00300
H 	H 	0.91617 0.11323 0.35643 0.02500
C 	C 	0.94937 0.18953 0.38243 -0.02600
H 	H 	0.91737 0.18773 0.39463 0.02700
C 	C 	0.04297 0.23343 0.38563 -0.02000
H 	H 	0.07517 0.26263 0.39913 0.02900
C 	C 	0.04117 0.18763 0.36653 -0.02100
H 	H 	0.07287 0.18643 0.36393 0.04200
C 	C 	0.95517 0.14303 0.38573 -0.01300
H 	H 	0.92767 0.11023 0.40103 0.03600
C 	C 	0.95347 0.18813 0.40043 -0.02800
H 	H 	0.92347 0.18543 0.42133 0.02800
C 	C 	0.03257 0.23983 0.33743 -0.06800
H 	H 	0.05627 0.27243 0.31773 0.04700
C 	C 	0.03317 0.19413 0.32183 0.00400
H 	H 	0.05857 0.19533 0.29263 0.02800
C 	C 	0.13657 0.43923 0.37733 -0.07900
H 	H 	0.13257 0.41163 0.35003 0.05000
C 	C 	0.18377 0.48823 0.37503 0.03300
H 	H 	0.20917 0.49383 0.34323 0.02300
O 	O 	0.62041 0.38565 0.66076 -0.39600
O 	O 	0.70679 0.43716 0.64312 -0.41800
C 	C 	0.66280 0.42919 0.66127 0.35800
C 	C 	0.66052 0.47678 0.68427 -0.08700
C 	C 	0.66152 0.56987 0.71827 0.00600
C 	C 	0.66393 0.62035 0.73547 0.08300
C 	C 	0.71212 0.66698 0.73567 -0.12400
H 	H 	0.74353 0.66657 0.72597 0.06400
C 	C 	0.76683 0.81257 0.74017 -0.04500
H 	H 	0.73533 0.81337 0.73247 0.03800
C 	C 	0.81463 0.85897 0.74147 0.01400
H 	H 	0.81493 0.89127 0.73597 0.02200
C 	C 	0.61563 0.47777 0.69567 0.00300
H 	H 	0.58283 0.44657 0.68977 0.02500
C 	C 	0.61603 0.52287 0.71577 -0.02600
H 	H 	0.58403 0.52107 0.72797 0.02700
C 	C 	0.70963 0.56677 0.71897 -0.01600
H 	H 	0.74183 0.59597 0.73247 0.02800
C 	C 	0.70783 0.52097 0.69987 -0.02200
H 	H 	0.73953 0.51977 0.69727 0.04300
C 	C 	0.62183 0.47637 0.71907 -0.01300
H 	H 	0.59433 0.44357 0.73437 0.03600
C 	C 	0.62013 0.52147 0.73377 -0.02800
H 	H 	0.59013 0.51877 0.75467 0.02800
C 	C 	0.69923 0.57317 0.67077 -0.06900
H 	H 	0.72293 0.60577 0.65107 0.04800
C 	C 	0.69983 0.52747 0.65517 0.00900
H 	H 	0.72523 0.52867 0.62597 0.02700
C 	C 	0.80323 0.77257 0.71067 -0.08000
H 	H 	0.79923 0.74497 0.68337 0.05100
C 	C 	0.85043 0.82157 0.70837 0.03300
H 	H 	0.87583 0.82717 0.67657 0.02300
O 	O 	0.28102 0.56810 0.99409 -0.39600
O 	O 	0.22951 0.60297 0.97645 -0.41800
C 	C 	0.23748 0.56695 0.99460 0.35900
C 	C 	0.18989 0.51708 0.01760 -0.08800
C 	C 	0.09680 0.42499 0.05160 0.01000
C 	C 	0.04632 0.37692 0.06880 0.07200
C 	C 	0.99969 0.37848 0.06900 -0.10500
H 	H 	0.00010 0.41030 0.05930 0.05400
C 	C 	0.85410 0.28760 0.07350 -0.04800
H 	H 	0.85330 0.25530 0.06580 0.03900
C 	C 	0.80770 0.28900 0.07480 0.01600
H 	H 	0.77540 0.25700 0.06930 0.02100
C 	C 	0.18890 0.47120 0.02900 0.00300
H 	H 	0.22010 0.46960 0.02310 0.02500
C 	C 	0.14380 0.42650 0.04910 -0.02700
H 	H 	0.14560 0.39630 0.06130 0.02700
C 	C 	0.09990 0.47620 0.05230 -0.02000
H 	H 	0.07070 0.47920 0.06580 0.02900
C 	C 	0.14570 0.52020 0.03320 -0.01900
H 	H 	0.14690 0.55310 0.03060 0.04100
C 	C 	0.19030 0.47880 0.05240 -0.01200
H 	H 	0.22310 0.48410 0.06770 0.03600
C 	C 	0.14520 0.43200 0.06710 -0.02900
H 	H 	0.14790 0.40470 0.08800 0.02800
C 	C 	0.09350 0.45940 0.00410 -0.06800
H 	H 	0.06090 0.45050 0.98440 0.04700
C 	C 	0.13920 0.50570 0.98850 0.00700
H 	H 	0.13800 0.52990 0.95930 0.02700
C 	C 	0.89410 0.36400 0.04400 -0.08200
H 	H 	0.92170 0.38760 0.01670 0.05200
C 	C 	0.84510 0.36220 0.04170 0.03300
H 	H 	0.83950 0.38200 0.00990 0.02300
O 	O 	0.94769 0.90143 0.32742 -0.39300
O 	O 	0.89618 0.93630 0.30978 -0.41500
C 	C 	0.90415 0.90028 0.32793 0.35700
C 	C 	0.85656 0.85041 0.35093 -0.08600
C 	C 	0.76347 0.75832 0.38493 0.00600
C 	C 	0.71299 0.71025 0.40213 0.08300
C 	C 	0.66636 0.71181 0.40233 -0.12400
H 	H 	0.66677 0.74363 0.39263 0.06400
C 	C 	0.52077 0.62093 0.40683 -0.04500
H 	H 	0.51997 0.58863 0.39913 0.03800
C 	C 	0.47437 0.62233 0.40813 0.01400
H 	H 	0.44207 0.59033 0.40263 0.02200
C 	C 	0.85557 0.80453 0.36233 0.00300
H 	H 	0.88677 0.80293 0.35643 0.02500
C 	C 	0.81047 0.75983 0.38243 -0.02600
H 	H 	0.81227 0.72963 0.39463 0.02700
C 	C 	0.76657 0.80953 0.38563 -0.01500
H 	H 	0.73737 0.81253 0.39913 0.02800
C 	C 	0.81237 0.85353 0.36653 -0.02200
H 	H 	0.81357 0.88643 0.36393 0.04300
C 	C 	0.85697 0.81213 0.38573 -0.01300
H 	H 	0.88977 0.81743 0.40103 0.03700
C 	C 	0.81187 0.76533 0.40043 -0.02800
H 	H 	0.81457 0.73803 0.42133 0.02800
C 	C 	0.76017 0.79273 0.33743 -0.06900
H 	H 	0.72757 0.78383 0.31773 0.04800
C 	C 	0.80587 0.83903 0.32183 0.00900
H 	H 	0.80467 0.86323 0.29263 0.02700
C 	C 	0.56077 0.69733 0.37733 -0.08000
H 	H 	0.58837 0.72093 0.35003 0.05100
C 	C 	0.51177 0.69553 0.37503 0.03200
H 	H 	0.50617 0.71533 0.34323 0.02300
O 	O 	0.61435 0.23477 0.66076 -0.39600
O 	O 	0.56284 0.26964 0.64312 -0.41800
C 	C 	0.57081 0.23362 0.66127 0.35800
C 	C 	0.52322 0.18375 0.68427 -0.08700
C 	C 	0.43013 0.09166 0.71827 0.00600
C 	C 	0.37965 0.04359 0.73547 0.08200
C 	C 	0.33302 0.04515 0.73567 -0.12300
H 	H 	0.33343 0.07697 0.72597 0.06300
C 	C 	0.18743 0.95427 0.74017 -0.04100
H 	H 	0.18663 0.92197 0.73247 0.03700
C 	C 	0.14103 0.95567 0.74147 0.01400
H 	H 	0.10873 0.92367 0.73597 0.02200
C 	C 	0.52223 0.13787 0.69567 0.00300
H 	H 	0.55343 0.13627 0.68977 0.02500
C 	C 	0.47713 0.09317 0.71577 -0.02600
H 	H 	0.47893 0.06297 0.72797 0.02600
C 	C 	0.43323 0.14287 0.71897 -0.01600
H 	H 	0.40403 0.14587 0.73247 0.02800
C 	C 	0.47903 0.18687 0.69987 -0.02200
H 	H 	0.48023 0.21977 0.69727 0.04200
C 	C 	0.52363 0.14547 0.71907 -0.01300
H 	H 	0.55643 0.15077 0.73437 0.03600
C 	C 	0.47853 0.09867 0.73377 -0.02800
H 	H 	0.48123 0.07137 0.75467 0.02700
C 	C 	0.42683 0.12607 0.67077 -0.06900
H 	H 	0.39423 0.11717 0.65107 0.04700
C 	C 	0.47253 0.17237 0.65517 0.00900
H 	H 	0.47133 0.19657 0.62597 0.02700
C 	C 	0.22743 0.03067 0.71067 -0.08200
H 	H 	0.25503 0.05427 0.68337 0.05100
C 	C 	0.17843 0.02887 0.70837 0.03300
H 	H 	0.17283 0.04867 0.67657 0.02200
O 	O 	0.71292 0.43190 0.50591 -0.39600
O 	O 	0.62654 0.39703 0.52355 -0.41800
C 	C 	0.67053 0.43305 0.50540 0.35800
C 	C 	0.67281 0.48292 0.48240 -0.08700
C 	C 	0.67181 0.57501 0.44840 0.00600
C 	C 	0.66940 0.62308 0.43120 0.08300
C 	C 	0.62121 0.62152 0.43100 -0.12400
H 	H 	0.58980 0.58970 0.44070 0.06400
C 	C 	0.56650 0.71240 0.42650 -0.04500
H 	H 	0.59800 0.74470 0.43420 0.03800
C 	C 	0.51870 0.71100 0.42520 0.01400
H 	H 	0.51840 0.74300 0.43070 0.02100
C 	C 	0.71770 0.52880 0.47100 0.00300
H 	H 	0.75050 0.53040 0.47690 0.02500
C 	C 	0.71730 0.57350 0.45090 -0.02600
H 	H 	0.74930 0.60370 0.43870 0.02700
C 	C 	0.62370 0.52380 0.44770 -0.01600
H 	H 	0.59150 0.52080 0.43420 0.02800
C 	C 	0.62550 0.47980 0.46680 -0.02200
H 	H 	0.59380 0.44690 0.46940 0.04200
C 	C 	0.71150 0.52120 0.44760 -0.01300
H 	H 	0.73900 0.51590 0.43230 0.03600
C 	C 	0.71320 0.56800 0.43290 -0.02800
H 	H 	0.74320 0.59530 0.41200 0.02800
C 	C 	0.63410 0.54060 0.49590 -0.06900
H 	H 	0.61040 0.54950 0.51560 0.04800
C 	C 	0.63350 0.49430 0.51150 0.00900
H 	H 	0.60810 0.47010 0.54070 0.02700
C 	C 	0.53010 0.63600 0.45600 -0.08100
H 	H 	0.53410 0.61240 0.48330 0.05100
C 	C 	0.48290 0.63780 0.45830 0.03300
H 	H 	0.45750 0.61800 0.49010 0.02300
O 	O 	0.37959 0.76523 0.83924 -0.39600
O 	O 	0.29321 0.73036 0.85688 -0.41800
C 	C 	0.33720 0.76638 0.83873 0.35800
C 	C 	0.33948 0.81625 0.81573 -0.08700
C 	C 	0.33848 0.90834 0.78173 0.00600
C 	C 	0.33607 0.95641 0.76453 0.08600
C 	C 	0.28788 0.95485 0.76433 -0.11900
H 	H 	0.25647 0.92303 0.77403 0.06200
C 	C 	0.23317 0.04573 0.75983 -0.04300
H 	H 	0.26467 0.07803 0.76753 0.03700
C 	C 	0.18537 0.04433 0.75853 0.01100
H 	H 	0.18507 0.07633 0.76403 0.02200
C 	C 	0.38437 0.86213 0.80433 0.00300
H 	H 	0.41717 0.86373 0.81023 0.02500
C 	C 	0.38397 0.90683 0.78423 -0.02600
H 	H 	0.41597 0.93703 0.77203 0.02800
C 	C 	0.29037 0.85713 0.78103 -0.01600
H 	H 	0.25817 0.85413 0.76753 0.02800
C 	C 	0.29217 0.81313 0.80013 -0.02200
H 	H 	0.26047 0.78023 0.80273 0.04200
C 	C 	0.37817 0.85453 0.78093 -0.01300
H 	H 	0.40567 0.84923 0.76563 0.03600
C 	C 	0.37987 0.90133 0.76623 -0.02800
H 	H 	0.40987 0.92863 0.74533 0.02800
C 	C 	0.30077 0.87393 0.82923 -0.06900
H 	H 	0.27707 0.88283 0.84893 0.04800
C 	C 	0.30017 0.82763 0.84483 0.00900
H 	H 	0.27477 0.80343 0.87403 0.02700
C 	C 	0.19677 0.96933 0.78933 -0.07700
H 	H 	0.20077 0.94573 0.81663 0.05000
C 	C 	0.14957 0.97113 0.79163 0.03600
H 	H 	0.12417 0.95133 0.82343 0.02300
O 	O 	0.04625 0.09857 0.17258 -0.39600
O 	O 	0.95987 0.06370 0.19022 -0.41500
C 	C 	0.00386 0.09972 0.17207 0.35400
C 	C 	0.00614 0.14959 0.14907 -0.09000
C 	C 	0.00514 0.24168 0.11507 0.00400
C 	C 	0.00273 0.28975 0.09787 0.07600
C 	C 	0.95454 0.28819 0.09767 -0.11300
H 	H 	0.92313 0.25637 0.10737 0.06000
C 	C 	0.89983 0.37907 0.09317 -0.04700
H 	H 	0.93133 0.41137 0.10087 0.03900
C 	C 	0.85203 0.37767 0.09187 0.01500
H 	H 	0.85173 0.40967 0.09737 0.02100
C 	C 	0.05103 0.19547 0.13767 0.00300
H 	H 	0.08383 0.19707 0.14357 0.02500
C 	C 	0.05063 0.24017 0.11757 -0.02700
H 	H 	0.08263 0.27037 0.10537 0.02700
C 	C 	0.95703 0.19047 0.11437 -0.01200
H 	H 	0.92483 0.18747 0.10087 0.02700
C 	C 	0.95883 0.14647 0.13347 -0.02200
H 	H 	0.92713 0.11357 0.13607 0.04300
C 	C 	0.04483 0.18787 0.11427 -0.01200
H 	H 	0.07233 0.18257 0.09897 0.03600
C 	C 	0.04653 0.23467 0.09957 -0.02800
H 	H 	0.07653 0.26197 0.07867 0.02700
C 	C 	0.96743 0.20727 0.16257 -0.06900
H 	H 	0.94373 0.21617 0.18227 0.04800
C 	C 	0.96683 0.16097 0.17817 0.01400
H 	H 	0.94143 0.13677 0.20737 0.02600
C 	C 	0.86343 0.30267 0.12267 -0.08100
H 	H 	0.86743 0.27907 0.14997 0.05100
C 	C 	0.81623 0.30447 0.12497 0.03200
H 	H 	0.79083 0.28467 0.15677 0.02300
O 	O 	0.71898 0.28708 0.50591 -0.39600
O 	O 	0.77049 0.37346 0.52355 -0.41800
C 	C 	0.76252 0.32947 0.50540 0.35800
C 	C 	0.81011 0.32719 0.48240 -0.08600
C 	C 	0.90320 0.32819 0.44840 0.00200
C 	C 	0.95368 0.33060 0.43120 0.09300
C 	C 	0.00031 0.37879 0.43100 -0.14400
H 	H 	0.99990 0.41020 0.44070 0.07300
C 	C 	0.14590 0.43350 0.42650 -0.04300
H 	H 	0.14670 0.40200 0.43420 0.03700
C 	C 	0.19230 0.48130 0.42520 0.01200
H 	H 	0.22460 0.48160 0.43070 0.02200
C 	C 	0.81110 0.28230 0.47100 0.00200
H 	H 	0.77990 0.24950 0.47690 0.02500
C 	C 	0.85620 0.28270 0.45090 -0.02500
H 	H 	0.85440 0.25070 0.43870 0.02700
C 	C 	0.90010 0.37630 0.44770 -0.01500
H 	H 	0.92930 0.40850 0.43420 0.02800
C 	C 	0.85430 0.37450 0.46680 -0.02200
H 	H 	0.85310 0.40620 0.46940 0.04300
C 	C 	0.80970 0.28850 0.44760 -0.01300
H 	H 	0.77690 0.26100 0.43230 0.03600
C 	C 	0.85480 0.28680 0.43290 -0.02700
H 	H 	0.85210 0.25680 0.41200 0.02700
C 	C 	0.90650 0.36590 0.49590 -0.06800
H 	H 	0.93910 0.38960 0.51560 0.04800
C 	C 	0.86080 0.36650 0.51150 0.00800
H 	H 	0.86200 0.39190 0.54070 0.02700
C 	C 	0.10590 0.46990 0.45600 -0.07900
H 	H 	0.07830 0.46590 0.48330 0.04900
C 	C 	0.15490 0.51710 0.45830 0.03300
H 	H 	0.16050 0.54250 0.49010 0.02300
O 	O 	0.38565 0.62041 0.83924 -0.39600
O 	O 	0.43716 0.70679 0.85688 -0.41800
C 	C 	0.42919 0.66280 0.83873 0.35800
C 	C 	0.47678 0.66052 0.81573 -0.08700
C 	C 	0.56987 0.66152 0.78173 0.00600
C 	C 	0.62035 0.66393 0.76453 0.08300
C 	C 	0.66698 0.71212 0.76433 -0.12400
H 	H 	0.66657 0.74353 0.77403 0.06400
C 	C 	0.81257 0.76683 0.75983 -0.04500
H 	H 	0.81337 0.73533 0.76753 0.03800
C 	C 	0.85897 0.81463 0.75853 0.01400
H 	H 	0.89127 0.81493 0.76403 0.02100
C 	C 	0.47777 0.61563 0.80433 0.00300
H 	H 	0.44657 0.58283 0.81023 0.02500
C 	C 	0.52287 0.61603 0.78423 -0.02600
H 	H 	0.52107 0.58403 0.77203 0.02700
C 	C 	0.56677 0.70963 0.78103 -0.01600
H 	H 	0.59597 0.74183 0.76753 0.02800
C 	C 	0.52097 0.70783 0.80013 -0.02200
H 	H 	0.51977 0.73953 0.80273 0.04300
C 	C 	0.47637 0.62183 0.78093 -0.01300
H 	H 	0.44357 0.59433 0.76563 0.03600
C 	C 	0.52147 0.62013 0.76623 -0.02800
H 	H 	0.51877 0.59013 0.74533 0.02800
C 	C 	0.57317 0.69923 0.82923 -0.06900
H 	H 	0.60577 0.72293 0.84893 0.04800
C 	C 	0.52747 0.69983 0.84483 0.00900
H 	H 	0.52867 0.72523 0.87403 0.02700
C 	C 	0.77257 0.80323 0.78933 -0.08000
H 	H 	0.74497 0.79923 0.81663 0.05100
C 	C 	0.82157 0.85043 0.79163 0.03300
H 	H 	0.82717 0.87583 0.82343 0.02300
O 	O 	0.05231 0.95375 0.17258 -0.39700
O 	O 	0.10382 0.04013 0.19022 -0.42200
C 	C 	0.09585 0.99614 0.17207 0.36300
C 	C 	0.14344 0.99386 0.14907 -0.08300
C 	C 	0.23653 0.99486 0.11507 0.00900
C 	C 	0.28701 0.99727 0.09787 0.09100
C 	C 	0.33364 0.04546 0.09767 -0.13800
H 	H 	0.33323 0.07687 0.10737 0.06800
C 	C 	0.47923 0.10017 0.09317 -0.04200
H 	H 	0.48003 0.06867 0.10087 0.03600
C 	C 	0.52563 0.14797 0.09187 0.01200
H 	H 	0.55793 0.14827 0.09737 0.02200
C 	C 	0.14443 0.94897 0.13767 0.00300
H 	H 	0.11323 0.91617 0.14357 0.02500
C 	C 	0.18953 0.94937 0.11757 -0.02600
H 	H 	0.18773 0.91737 0.10537 0.02700
C 	C 	0.23343 0.04297 0.11437 -0.02100
H 	H 	0.26263 0.07517 0.10087 0.02900
C 	C 	0.18763 0.04117 0.13347 -0.02100
H 	H 	0.18643 0.07287 0.13607 0.04200
C 	C 	0.14303 0.95517 0.11427 -0.01300
H 	H 	0.11023 0.92767 0.09897 0.03600
C 	C 	0.18813 0.95347 0.09957 -0.02800
H 	H 	0.18543 0.92347 0.07867 0.02800
C 	C 	0.23983 0.03257 0.16257 -0.06800
H 	H 	0.27243 0.05627 0.18227 0.04600
C 	C 	0.19413 0.03317 0.17817 0.00300
H 	H 	0.19533 0.05857 0.20737 0.02800
C 	C 	0.43923 0.13657 0.12267 -0.07900
H 	H 	0.41163 0.13257 0.14997 0.05000
C 	C 	0.48823 0.18377 0.12497 0.03300
H 	H 	0.49383 0.20917 0.15677 0.02300
O 	O 	0.56810 0.28102 0.50591 -0.39600
O 	O 	0.60297 0.22951 0.52355 -0.41800
C 	C 	0.56695 0.23748 0.50540 0.35800
C 	C 	0.51708 0.18989 0.48240 -0.08700
C 	C 	0.42499 0.09680 0.44840 0.01000
C 	C 	0.37692 0.04632 0.43120 0.07000
C 	C 	0.37848 0.99969 0.43100 -0.10100
H 	H 	0.41030 0.00010 0.44070 0.05200
C 	C 	0.28760 0.85410 0.42650 -0.04800
H 	H 	0.25530 0.85330 0.43420 0.03900
C 	C 	0.28900 0.80770 0.42520 0.01600
H 	H 	0.25700 0.77540 0.43070 0.02100
C 	C 	0.47120 0.18890 0.47100 0.00300
H 	H 	0.46960 0.22010 0.47690 0.02500
C 	C 	0.42650 0.14380 0.45090 -0.02700
H 	H 	0.39630 0.14560 0.43870 0.02700
C 	C 	0.47620 0.09990 0.44770 -0.01700
H 	H 	0.47920 0.07070 0.43420 0.02800
C 	C 	0.52020 0.14570 0.46680 -0.02200
H 	H 	0.55310 0.14690 0.46940 0.04200
C 	C 	0.47880 0.19030 0.44760 -0.01200
H 	H 	0.48410 0.22310 0.43230 0.03600
C 	C 	0.43200 0.14520 0.43290 -0.02900
H 	H 	0.40470 0.14790 0.41200 0.02800
C 	C 	0.45940 0.09350 0.49590 -0.07100
H 	H 	0.45050 0.06090 0.51560 0.04700
C 	C 	0.50570 0.13920 0.51150 0.01000
H 	H 	0.52990 0.13800 0.54070 0.02600
C 	C 	0.36400 0.89410 0.45600 -0.08200
H 	H 	0.38760 0.92170 0.48330 0.05300
C 	C 	0.36220 0.84510 0.45830 0.03300
H 	H 	0.38200 0.83950 0.49010 0.02300
O 	O 	0.23477 0.61435 0.83924 -0.39600
O 	O 	0.26964 0.56284 0.85688 -0.41800
C 	C 	0.23362 0.57081 0.83873 0.35800
C 	C 	0.18375 0.52322 0.81573 -0.08700
C 	C 	0.09166 0.43013 0.78173 0.00600
C 	C 	0.04359 0.37965 0.76453 0.08200
C 	C 	0.04515 0.33302 0.76433 -0.12400
H 	H 	0.07697 0.33343 0.77403 0.06300
C 	C 	0.95427 0.18743 0.75983 -0.04200
H 	H 	0.92197 0.18663 0.76753 0.03700
C 	C 	0.95567 0.14103 0.75853 0.01400
H 	H 	0.92367 0.10873 0.76403 0.02100
C 	C 	0.13787 0.52223 0.80433 0.00300
H 	H 	0.13627 0.55343 0.81023 0.02500
C 	C 	0.09317 0.47713 0.78423 -0.02600
H 	H 	0.06297 0.47893 0.77203 0.02600
C 	C 	0.14287 0.43323 0.78103 -0.01600
H 	H 	0.14587 0.40403 0.76753 0.02800
C 	C 	0.18687 0.47903 0.80013 -0.02200
H 	H 	0.21977 0.48023 0.80273 0.04200
C 	C 	0.14547 0.52363 0.78093 -0.01300
H 	H 	0.15077 0.55643 0.76563 0.03600
C 	C 	0.09867 0.47853 0.76623 -0.02800
H 	H 	0.07137 0.48123 0.74533 0.02700
C 	C 	0.12607 0.42683 0.82923 -0.06900
H 	H 	0.11717 0.39423 0.84893 0.04700
C 	C 	0.17237 0.47253 0.84483 0.00900
H 	H 	0.19657 0.47133 0.87403 0.02700
C 	C 	0.03067 0.22743 0.78933 -0.08100
H 	H 	0.05427 0.25503 0.81663 0.05100
C 	C 	0.02887 0.17843 0.79163 0.03300
H 	H 	0.04867 0.17283 0.82343 0.02200
O 	O 	0.90143 0.94769 0.17258 -0.39300
O 	O 	0.93630 0.89618 0.19022 -0.41600
C 	C 	0.90028 0.90415 0.17207 0.35700
C 	C 	0.85041 0.85656 0.14907 -0.08600
C 	C 	0.75832 0.76347 0.11507 0.00600
C 	C 	0.71025 0.71299 0.09787 0.08300
C 	C 	0.71181 0.66636 0.09767 -0.12400
H 	H 	0.74363 0.66677 0.10737 0.06400
C 	C 	0.62093 0.52077 0.09317 -0.04500
H 	H 	0.58863 0.51997 0.10087 0.03800
C 	C 	0.62233 0.47437 0.09187 0.01300
H 	H 	0.59033 0.44207 0.09737 0.02200
C 	C 	0.80453 0.85557 0.13767 0.00300
H 	H 	0.80293 0.88677 0.14357 0.02500
C 	C 	0.75983 0.81047 0.11757 -0.02600
H 	H 	0.72963 0.81227 0.10537 0.02700
C 	C 	0.80953 0.76657 0.11437 -0.01500
H 	H 	0.81253 0.73737 0.10087 0.02800
C 	C 	0.85353 0.81237 0.13347 -0.02200
H 	H 	0.88643 0.81357 0.13607 0.04300
C 	C 	0.81213 0.85697 0.11427 -0.01300
H 	H 	0.81743 0.88977 0.09897 0.03700
C 	C 	0.76533 0.81187 0.09957 -0.02800
H 	H 	0.73803 0.81457 0.07867 0.02800
C 	C 	0.79273 0.76017 0.16257 -0.06900
H 	H 	0.78383 0.72757 0.18227 0.04800
C 	C 	0.83903 0.80587 0.17817 0.00900
H 	H 	0.86323 0.80467 0.20737 0.02700
C 	C 	0.69733 0.56077 0.12267 -0.08000
H 	H 	0.72093 0.58837 0.14997 0.05100
C 	C 	0.69553 0.51177 0.12497 0.03200
H 	H 	0.71533 0.50617 0.15677 0.02300
O 	O 	0.56810 0.28708 0.00591 -0.39600
O 	O 	0.60297 0.37346 0.02355 -0.41800
C 	C 	0.56695 0.32947 0.00540 0.35800
C 	C 	0.51708 0.32719 0.98240 -0.08600
C 	C 	0.42499 0.32819 0.94840 0.00600
C 	C 	0.37692 0.33060 0.93120 0.08300
C 	C 	0.37848 0.37879 0.93100 -0.12400
H 	H 	0.41030 0.41020 0.94070 0.06400
C 	C 	0.28760 0.43350 0.92650 -0.04500
H 	H 	0.25530 0.40200 0.93420 0.03800
C 	C 	0.28900 0.48130 0.92520 0.01400
H 	H 	0.25700 0.48160 0.93070 0.02100
C 	C 	0.47120 0.28230 0.97100 0.00300
H 	H 	0.46960 0.24950 0.97690 0.02500
C 	C 	0.42650 0.28270 0.95090 -0.02600
H 	H 	0.39630 0.25070 0.93870 0.02700
C 	C 	0.47620 0.37630 0.94770 -0.01300
H 	H 	0.47920 0.40850 0.93420 0.02700
C 	C 	0.52020 0.37450 0.96680 -0.02500
H 	H 	0.55310 0.40620 0.96940 0.04300
C 	C 	0.47880 0.28850 0.94760 -0.01300
H 	H 	0.48410 0.26100 0.93230 0.03600
C 	C 	0.43200 0.28680 0.93290 -0.02800
H 	H 	0.40470 0.25680 0.91200 0.02800
C 	C 	0.45940 0.36590 0.99590 -0.07100
H 	H 	0.45050 0.38960 0.01560 0.04800
C 	C 	0.50570 0.36650 0.01150 0.01100
H 	H 	0.52990 0.39190 0.04070 0.02600
C 	C 	0.36400 0.46990 0.95600 -0.08000
H 	H 	0.38760 0.46590 0.98330 0.05100
C 	C 	0.36220 0.51710 0.95830 0.03300
H 	H 	0.38200 0.54250 0.99010 0.02300
O 	O 	0.23477 0.62041 0.33924 -0.39600
O 	O 	0.26964 0.70679 0.35688 -0.41800
C 	C 	0.23362 0.66280 0.33873 0.35800
C 	C 	0.18375 0.66052 0.31573 -0.08700
C 	C 	0.09166 0.66152 0.28173 0.00700
C 	C 	0.04359 0.66393 0.26453 0.07900
C 	C 	0.04515 0.71212 0.26433 -0.11600
H 	H 	0.07697 0.74353 0.27403 0.06100
C 	C 	0.95427 0.76683 0.25983 -0.05300
H 	H 	0.92197 0.73533 0.26753 0.04100
C 	C 	0.95567 0.81463 0.25853 0.02300
H 	H 	0.92367 0.81493 0.26403 0.01900
C 	C 	0.13787 0.61563 0.30433 0.00300
H 	H 	0.13627 0.58283 0.31023 0.02500
C 	C 	0.09317 0.61603 0.28423 -0.02700
H 	H 	0.06297 0.58403 0.27203 0.02600
C 	C 	0.14287 0.70963 0.28103 -0.01600
H 	H 	0.14587 0.74183 0.26753 0.02800
C 	C 	0.18687 0.70783 0.30013 -0.02200
H 	H 	0.21977 0.73953 0.30273 0.04200
C 	C 	0.14547 0.62183 0.28093 -0.01300
H 	H 	0.15077 0.59433 0.26563 0.03600
C 	C 	0.09867 0.62013 0.26623 -0.02800
H 	H 	0.07137 0.59013 0.24533 0.02700
C 	C 	0.12607 0.69923 0.32923 -0.07000
H 	H 	0.11717 0.72293 0.34893 0.04800
C 	C 	0.17237 0.69983 0.34483 0.00900
H 	H 	0.19657 0.72523 0.37403 0.02700
C 	C 	0.03067 0.80323 0.28933 -0.08800
H 	H 	0.05427 0.79923 0.31663 0.05300
C 	C 	0.02887 0.85043 0.29163 0.03200
H 	H 	0.04867 0.87583 0.32343 0.02300
O 	O 	0.90143 0.95375 0.67258 -0.39500
O 	O 	0.93630 0.04013 0.69022 -0.42100
C 	C 	0.90028 0.99614 0.67207 0.36300
C 	C 	0.85041 0.99386 0.64907 -0.08200
C 	C 	0.75832 0.99486 0.61507 0.00900
C 	C 	0.71025 0.99727 0.59787 0.09200
C 	C 	0.71181 0.04546 0.59767 -0.13900
H 	H 	0.74363 0.07687 0.60737 0.06800
C 	C 	0.62093 0.10017 0.59317 -0.04200
H 	H 	0.58863 0.06867 0.60087 0.03500
C 	C 	0.62233 0.14797 0.59187 0.01100
H 	H 	0.59033 0.14827 0.59737 0.02200
C 	C 	0.80453 0.94897 0.63767 0.00300
H 	H 	0.80293 0.91617 0.64357 0.02500
C 	C 	0.75983 0.94937 0.61757 -0.02600
H 	H 	0.72963 0.91737 0.60537 0.02700
C 	C 	0.80953 0.04297 0.61437 -0.02100
H 	H 	0.81253 0.07517 0.60087 0.02900
C 	C 	0.85353 0.04117 0.63347 -0.02100
H 	H 	0.88643 0.07287 0.63607 0.04200
C 	C 	0.81213 0.95517 0.61427 -0.01300
H 	H 	0.81743 0.92767 0.59897 0.03700
C 	C 	0.76533 0.95347 0.59957 -0.02800
H 	H 	0.73803 0.92347 0.57867 0.02800
C 	C 	0.79273 0.03257 0.66257 -0.06800
H 	H 	0.78383 0.05627 0.68227 0.04600
C 	C 	0.83903 0.03317 0.67817 0.00300
H 	H 	0.86323 0.05857 0.70737 0.02800
C 	C 	0.69733 0.13657 0.62267 -0.07900
H 	H 	0.72093 0.13257 0.64997 0.05000
C 	C 	0.69553 0.18377 0.62497 0.03300
H 	H 	0.71533 0.20917 0.65677 0.02300
O 	O 	0.71292 0.28102 0.00591 -0.39600
O 	O 	0.62654 0.22951 0.02355 -0.41800
C 	C 	0.67053 0.23748 0.00540 0.35800
C 	C 	0.67281 0.18989 0.98240 -0.08700
C 	C 	0.67181 0.09680 0.94840 0.01000
C 	C 	0.66940 0.04632 0.93120 0.07000
C 	C 	0.62121 0.99969 0.93100 -0.10000
H 	H 	0.58980 0.00010 0.94070 0.05200
C 	C 	0.56650 0.85410 0.92650 -0.04800
H 	H 	0.59800 0.85330 0.93420 0.03900
C 	C 	0.51870 0.80770 0.92520 0.01500
H 	H 	0.51840 0.77540 0.93070 0.02100
C 	C 	0.71770 0.18890 0.97100 0.00300
H 	H 	0.75050 0.22010 0.97690 0.02500
C 	C 	0.71730 0.14380 0.95090 -0.02700
H 	H 	0.74930 0.14560 0.93870 0.02700
C 	C 	0.62370 0.09990 0.94770 -0.01500
H 	H 	0.59150 0.07070 0.93420 0.02700
C 	C 	0.62550 0.14570 0.96680 -0.02400
H 	H 	0.59380 0.14690 0.96940 0.04300
C 	C 	0.71150 0.19030 0.94760 -0.01300
H 	H 	0.73900 0.22310 0.93230 0.03600
C 	C 	0.71320 0.14520 0.93290 -0.02900
H 	H 	0.74320 0.14790 0.91200 0.02800
C 	C 	0.63410 0.09350 0.99590 -0.07200
H 	H 	0.61040 0.06090 0.01560 0.04800
C 	C 	0.63350 0.13920 0.01150 0.01200
H 	H 	0.60810 0.13800 0.04070 0.02600
C 	C 	0.53010 0.89410 0.95600 -0.08200
H 	H 	0.53410 0.92170 0.98330 0.05300
C 	C 	0.48290 0.84510 0.95830 0.03300
H 	H 	0.45750 0.83950 0.99010 0.02300
O 	O 	0.37959 0.61435 0.33924 -0.39600
O 	O 	0.29321 0.56284 0.35688 -0.41800
C 	C 	0.33720 0.57081 0.33873 0.35800
C 	C 	0.33948 0.52322 0.31573 -0.08700
C 	C 	0.33848 0.43013 0.28173 0.00600
C 	C 	0.33607 0.37965 0.26453 0.08300
C 	C 	0.28788 0.33302 0.26433 -0.12400
H 	H 	0.25647 0.33343 0.27403 0.06400
C 	C 	0.23317 0.18743 0.25983 -0.04500
H 	H 	0.26467 0.18663 0.26753 0.03800
C 	C 	0.18537 0.14103 0.25853 0.01400
H 	H 	0.18507 0.10873 0.26403 0.02100
C 	C 	0.38437 0.52223 0.30433 0.00300
H 	H 	0.41717 0.55343 0.31023 0.02500
C 	C 	0.38397 0.47713 0.28423 -0.02600
H 	H 	0.41597 0.47893 0.27203 0.02700
C 	C 	0.29037 0.43323 0.28103 -0.01600
H 	H 	0.25817 0.40403 0.26753 0.02800
C 	C 	0.29217 0.47903 0.30013 -0.02200
H 	H 	0.26047 0.48023 0.30273 0.04200
C 	C 	0.37817 0.52363 0.28093 -0.01300
H 	H 	0.40567 0.55643 0.26563 0.03600
C 	C 	0.37987 0.47853 0.26623 -0.02800
H 	H 	0.40987 0.48123 0.24533 0.02800
C 	C 	0.30077 0.42683 0.32923 -0.06900
H 	H 	0.27707 0.39423 0.34893 0.04700
C 	C 	0.30017 0.47253 0.34483 0.00900
H 	H 	0.27477 0.47133 0.37403 0.02700
C 	C 	0.19677 0.22743 0.28933 -0.08000
H 	H 	0.20077 0.25503 0.31663 0.05100
C 	C 	0.14957 0.17843 0.29163 0.03300
H 	H 	0.12417 0.17283 0.32343 0.02300
O 	O 	0.04625 0.94769 0.67258 -0.39300
O 	O 	0.95987 0.89618 0.69022 -0.41400
C 	C 	0.00386 0.90415 0.67207 0.35300
C 	C 	0.00614 0.85656 0.64907 -0.09000
C 	C 	0.00514 0.76347 0.61507 0.00300
C 	C 	0.00273 0.71299 0.59787 0.07500
C 	C 	0.95454 0.66636 0.59767 -0.11200
H 	H 	0.92313 0.66677 0.60737 0.06000
C 	C 	0.89983 0.52077 0.59317 -0.04700
H 	H 	0.93133 0.51997 0.60087 0.04000
C 	C 	0.85203 0.47437 0.59187 0.01500
H 	H 	0.85173 0.44207 0.59737 0.02100
C 	C 	0.05103 0.85557 0.63767 0.00300
H 	H 	0.08383 0.88677 0.64357 0.02500
C 	C 	0.05063 0.81047 0.61757 -0.02700
H 	H 	0.08263 0.81227 0.60537 0.02700
C 	C 	0.95703 0.76657 0.61437 -0.01100
H 	H 	0.92483 0.73737 0.60087 0.02700
C 	C 	0.95883 0.81237 0.63347 -0.02300
H 	H 	0.92713 0.81357 0.63607 0.04300
C 	C 	0.04483 0.85697 0.61427 -0.01300
H 	H 	0.07233 0.88977 0.59897 0.03600
C 	C 	0.04653 0.81187 0.59957 -0.02800
H 	H 	0.07653 0.81457 0.57867 0.02700
C 	C 	0.96743 0.76017 0.66257 -0.07000
H 	H 	0.94373 0.72757 0.68227 0.04900
C 	C 	0.96683 0.80587 0.67817 0.01400
H 	H 	0.94143 0.80467 0.70737 0.02500
C 	C 	0.86343 0.56077 0.62267 -0.08200
H 	H 	0.86743 0.58837 0.64997 0.05200
C 	C 	0.81623 0.51177 0.62497 0.03300
H 	H 	0.79083 0.50617 0.65677 0.02300
O 	O 	0.71898 0.43190 0.00591 -0.39600
O 	O 	0.77049 0.39703 0.02355 -0.41800
C 	C 	0.76252 0.43305 0.00540 0.35700
C 	C 	0.81011 0.48292 0.98240 -0.08600
C 	C 	0.90320 0.57501 0.94840 0.00200
C 	C 	0.95368 0.62308 0.93120 0.09400
C 	C 	0.00031 0.62152 0.93100 -0.14400
H 	H 	0.99990 0.58970 0.94070 0.07300
C 	C 	0.14590 0.71240 0.92650 -0.04300
H 	H 	0.14670 0.74470 0.93420 0.03700
C 	C 	0.19230 0.71100 0.92520 0.01200
H 	H 	0.22460 0.74300 0.93070 0.02200
C 	C 	0.81110 0.52880 0.97100 0.00200
H 	H 	0.77990 0.53040 0.97690 0.02500
C 	C 	0.85620 0.57350 0.95090 -0.02500
H 	H 	0.85440 0.60370 0.93870 0.02700
C 	C 	0.90010 0.52380 0.94770 -0.01300
H 	H 	0.92930 0.52080 0.93420 0.02800
C 	C 	0.85430 0.47980 0.96680 -0.02400
H 	H 	0.85310 0.44690 0.96940 0.04300
C 	C 	0.80970 0.52120 0.94760 -0.01300
H 	H 	0.77690 0.51590 0.93230 0.03600
C 	C 	0.85480 0.56800 0.93290 -0.02700
H 	H 	0.85210 0.59530 0.91200 0.02700
C 	C 	0.90650 0.54060 0.99590 -0.06900
H 	H 	0.93910 0.54950 0.01560 0.04800
C 	C 	0.86080 0.49430 0.01150 0.01000
H 	H 	0.86200 0.47010 0.04070 0.02700
C 	C 	0.10590 0.63600 0.95600 -0.07900
H 	H 	0.07830 0.61240 0.98330 0.04900
C 	C 	0.15490 0.63780 0.95830 0.03300
H 	H 	0.16050 0.61800 0.99010 0.02300
O 	O 	0.38565 0.76523 0.33924 -0.39600
O 	O 	0.43716 0.73036 0.35688 -0.41800
C 	C 	0.42919 0.76638 0.33873 0.35800
C 	C 	0.47678 0.81625 0.31573 -0.08700
C 	C 	0.56987 0.90834 0.28173 0.00600
C 	C 	0.62035 0.95641 0.26453 0.08600
C 	C 	0.66698 0.95485 0.26433 -0.11800
H 	H 	0.66657 0.92303 0.27403 0.06200
C 	C 	0.81257 0.04573 0.25983 -0.04200
H 	H 	0.81337 0.07803 0.26753 0.03700
C 	C 	0.85897 0.04433 0.25853 0.01100
H 	H 	0.89127 0.07633 0.26403 0.02200
C 	C 	0.47777 0.86213 0.30433 0.00300
H 	H 	0.44657 0.86373 0.31023 0.02500
C 	C 	0.52287 0.90683 0.28423 -0.02600
H 	H 	0.52107 0.93703 0.27203 0.02800
C 	C 	0.56677 0.85713 0.28103 -0.01600
H 	H 	0.59597 0.85413 0.26753 0.02800
C 	C 	0.52097 0.81313 0.30013 -0.02200
H 	H 	0.51977 0.78023 0.30273 0.04300
C 	C 	0.47637 0.85453 0.28093 -0.01300
H 	H 	0.44357 0.84923 0.26563 0.03600
C 	C 	0.52147 0.90133 0.26623 -0.02800
H 	H 	0.51877 0.92863 0.24533 0.02800
C 	C 	0.57317 0.87393 0.32923 -0.06900
H 	H 	0.60577 0.88283 0.34893 0.04800
C 	C 	0.52747 0.82763 0.34483 0.00900
H 	H 	0.52867 0.80343 0.37403 0.02700
C 	C 	0.77257 0.96933 0.28933 -0.07700
H 	H 	0.74497 0.94573 0.31663 0.05000
C 	C 	0.82157 0.97113 0.29163 0.03600
H 	H 	0.82717 0.95133 0.32343 0.02300
O 	O 	0.05231 0.09857 0.67258 -0.39700
O 	O 	0.10382 0.06370 0.69022 -0.41900
C 	C 	0.09585 0.09972 0.67207 0.35800
C 	C 	0.14344 0.14959 0.64907 -0.08700
C 	C 	0.23653 0.24168 0.61507 0.00600
C 	C 	0.28701 0.28975 0.59787 0.08300
C 	C 	0.33364 0.28819 0.59767 -0.12400
H 	H 	0.33323 0.25637 0.60737 0.06400
C 	C 	0.47923 0.37907 0.59317 -0.04500
H 	H 	0.48003 0.41137 0.60087 0.03800
C 	C 	0.52563 0.37767 0.59187 0.01400
H 	H 	0.55793 0.40967 0.59737 0.02200
C 	C 	0.14443 0.19547 0.63767 0.00300
H 	H 	0.11323 0.19707 0.64357 0.02500
C 	C 	0.18953 0.24017 0.61757 -0.02600
H 	H 	0.18773 0.27037 0.60537 0.02700
C 	C 	0.23343 0.19047 0.61437 -0.01600
H 	H 	0.26263 0.18747 0.60087 0.02800
C 	C 	0.18763 0.14647 0.63347 -0.02200
H 	H 	0.18643 0.11357 0.63607 0.04200
C 	C 	0.14303 0.18787 0.61427 -0.01200
H 	H 	0.11023 0.18257 0.59897 0.03500
C 	C 	0.18813 0.23467 0.59957 -0.02800
H 	H 	0.18543 0.26197 0.57867 0.02700
C 	C 	0.23983 0.20727 0.66257 -0.06900
H 	H 	0.27243 0.21617 0.68227 0.04700
C 	C 	0.19413 0.16097 0.67817 0.00900
H 	H 	0.19533 0.13677 0.70737 0.02700
C 	C 	0.43923 0.30267 0.62267 -0.08000
H 	H 	0.41163 0.27907 0.64997 0.05100
C 	C 	0.48823 0.30447 0.62497 0.03200
H 	H 	0.49383 0.28467 0.65677 0.02300
O 	O 	0.28708 0.56810 0.49409 -0.39600
O 	O 	0.37346 0.60297 0.47645 -0.41800
C 	C 	0.32947 0.56695 0.49460 0.35800
C 	C 	0.32719 0.51708 0.51760 -0.08700
C 	C 	0.32819 0.42499 0.55160 0.00600
C 	C 	0.33060 0.37692 0.56880 0.08300
C 	C 	0.37879 0.37848 0.56900 -0.12400
H 	H 	0.41020 0.41030 0.55930 0.06400
C 	C 	0.43350 0.28760 0.57350 -0.04500
H 	H 	0.40200 0.25530 0.56580 0.03800
C 	C 	0.48130 0.28900 0.57480 0.01400
H 	H 	0.48160 0.25700 0.56930 0.02100
C 	C 	0.28230 0.47120 0.52900 0.00300
H 	H 	0.24950 0.46960 0.52310 0.02500
C 	C 	0.28270 0.42650 0.54910 -0.02600
H 	H 	0.25070 0.39630 0.56130 0.02700
C 	C 	0.37630 0.47620 0.55230 -0.01600
H 	H 	0.40850 0.47920 0.56580 0.02800
C 	C 	0.37450 0.52020 0.53320 -0.02200
H 	H 	0.40620 0.55310 0.53060 0.04200
C 	C 	0.28850 0.47880 0.55240 -0.01300
H 	H 	0.26100 0.48410 0.56770 0.03600
C 	C 	0.28680 0.43200 0.56710 -0.02800
H 	H 	0.25680 0.40470 0.58800 0.02800
C 	C 	0.36590 0.45940 0.50410 -0.06900
H 	H 	0.38960 0.45050 0.48440 0.04800
C 	C 	0.36650 0.50570 0.48850 0.00900
H 	H 	0.39190 0.52990 0.45930 0.02700
C 	C 	0.46990 0.36400 0.54400 -0.08100
H 	H 	0.46590 0.38760 0.51670 0.05100
C 	C 	0.51710 0.36220 0.54170 0.03300
H 	H 	0.54250 0.38200 0.50990 0.02300
O 	O 	0.95375 0.90143 0.82742 -0.39500
O 	O 	0.04013 0.93630 0.80978 -0.42000
C 	C 	0.99614 0.90028 0.82793 0.36200
C 	C 	0.99386 0.85041 0.85093 -0.08300
C 	C 	0.99486 0.75832 0.88493 0.00800
C 	C 	0.99727 0.71025 0.90213 0.09000
C 	C 	0.04546 0.71181 0.90233 -0.13600
H 	H 	0.07687 0.74363 0.89263 0.06700
C 	C 	0.10017 0.62093 0.90683 -0.04300
H 	H 	0.06867 0.58863 0.89913 0.03600
C 	C 	0.14797 0.62233 0.90813 0.01200
H 	H 	0.14827 0.59033 0.90263 0.02200
C 	C 	0.94897 0.80453 0.86233 0.00300
H 	H 	0.91617 0.80293 0.85643 0.02500
C 	C 	0.94937 0.75983 0.88243 -0.02600
H 	H 	0.91737 0.72963 0.89463 0.02700
C 	C 	0.04297 0.80953 0.88563 -0.02000
H 	H 	0.07517 0.81253 0.89913 0.02900
C 	C 	0.04117 0.85353 0.86653 -0.02100
H 	H 	0.07287 0.88643 0.86393 0.04200
C 	C 	0.95517 0.81213 0.88573 -0.01300
H 	H 	0.92767 0.81743 0.90103 0.03700
C 	C 	0.95347 0.76533 0.90043 -0.02800
H 	H 	0.92347 0.73803 0.92133 0.02800
C 	C 	0.03257 0.79273 0.83743 -0.06900
H 	H 	0.05627 0.78383 0.81773 0.04700
C 	C 	0.03317 0.83903 0.82183 0.00400
H 	H 	0.05857 0.86323 0.79263 0.02800
C 	C 	0.13657 0.69733 0.87733 -0.07900
H 	H 	0.13257 0.72093 0.85003 0.05000
C 	C 	0.18377 0.69553 0.87503 0.03300
H 	H 	0.20917 0.71533 0.84323 0.02300
O 	O 	0.62041 0.23477 0.16076 -0.39600
O 	O 	0.70679 0.26964 0.14312 -0.41800
C 	C 	0.66280 0.23362 0.16127 0.35800
C 	C 	0.66052 0.18375 0.18427 -0.08700
C 	C 	0.66152 0.09166 0.21827 0.00600
C 	C 	0.66393 0.04359 0.23547 0.08200
C 	C 	0.71212 0.04515 0.23567 -0.12300
H 	H 	0.74353 0.07697 0.22597 0.06300
C 	C 	0.76683 0.95427 0.24017 -0.04100
H 	H 	0.73533 0.92197 0.23247 0.03700
C 	C 	0.81463 0.95567 0.24147 0.01400
H 	H 	0.81493 0.92367 0.23597 0.02200
C 	C 	0.61563 0.13787 0.19567 0.00300
H 	H 	0.58283 0.13627 0.18977 0.02500
C 	C 	0.61603 0.09317 0.21577 -0.02600
H 	H 	0.58403 0.06297 0.22797 0.02600
C 	C 	0.70963 0.14287 0.21897 -0.01600
H 	H 	0.74183 0.14587 0.23247 0.02800
C 	C 	0.70783 0.18687 0.19987 -0.02200
H 	H 	0.73953 0.21977 0.19727 0.04200
C 	C 	0.62183 0.14547 0.21907 -0.01300
H 	H 	0.59433 0.15077 0.23437 0.03600
C 	C 	0.62013 0.09867 0.23377 -0.02800
H 	H 	0.59013 0.07137 0.25467 0.02700
C 	C 	0.69923 0.12607 0.17077 -0.06900
H 	H 	0.72293 0.11717 0.15107 0.04700
C 	C 	0.69983 0.17237 0.15517 0.00900
H 	H 	0.72523 0.19657 0.12597 0.02700
C 	C 	0.80323 0.03067 0.21067 -0.08200
H 	H 	0.79923 0.05427 0.18337 0.05100
C 	C 	0.85043 0.02887 0.20837 0.03400
H 	H 	0.87583 0.04867 0.17657 0.02200
O 	O 	0.28102 0.71292 0.49409 -0.39600
O 	O 	0.22951 0.62654 0.47645 -0.41800
C 	C 	0.23748 0.67053 0.49460 0.35800
C 	C 	0.18989 0.67281 0.51760 -0.08700
C 	C 	0.09680 0.67181 0.55160 0.01000
C 	C 	0.04632 0.66940 0.56880 0.07200
C 	C 	0.99969 0.62121 0.56900 -0.10400
H 	H 	0.00010 0.58980 0.55930 0.05400
C 	C 	0.85410 0.56650 0.57350 -0.04700
H 	H 	0.85330 0.59800 0.56580 0.03900
C 	C 	0.80770 0.51870 0.57480 0.01500
H 	H 	0.77540 0.51840 0.56930 0.02100
C 	C 	0.18890 0.71770 0.52900 0.00300
H 	H 	0.22010 0.75050 0.52310 0.02500
C 	C 	0.14380 0.71730 0.54910 -0.02700
H 	H 	0.14560 0.74930 0.56130 0.02700
C 	C 	0.09990 0.62370 0.55230 -0.01700
H 	H 	0.07070 0.59150 0.56580 0.02800
C 	C 	0.14570 0.62550 0.53320 -0.02200
H 	H 	0.14690 0.59380 0.53060 0.04200
C 	C 	0.19030 0.71150 0.55240 -0.01200
H 	H 	0.22310 0.73900 0.56770 0.03600
C 	C 	0.14520 0.71320 0.56710 -0.02900
H 	H 	0.14790 0.74320 0.58800 0.02800
C 	C 	0.09350 0.63410 0.50410 -0.07000
H 	H 	0.06090 0.61040 0.48440 0.04700
C 	C 	0.13920 0.63350 0.48850 0.01000
H 	H 	0.13800 0.60810 0.45930 0.02600
C 	C 	0.89410 0.53010 0.54400 -0.08200
H 	H 	0.92170 0.53410 0.51670 0.05200
C 	C 	0.84510 0.48290 0.54170 0.03300
H 	H 	0.83950 0.45750 0.50990 0.02300
O 	O 	0.94769 0.04625 0.82742 -0.39300
O 	O 	0.89618 0.95987 0.80978 -0.41300
C 	C 	0.90415 0.00386 0.82793 0.35200
C 	C 	0.85656 0.00614 0.85093 -0.09100
C 	C 	0.76347 0.00514 0.88493 0.00300
C 	C 	0.71299 0.00273 0.90213 0.07400
C 	C 	0.66636 0.95454 0.90233 -0.11000
H 	H 	0.66677 0.92313 0.89263 0.06000
C 	C 	0.52077 0.89983 0.90683 -0.04800
H 	H 	0.51997 0.93133 0.89913 0.04000
C 	C 	0.47437 0.85203 0.90813 0.01600
H 	H 	0.44207 0.85173 0.90263 0.02100
C 	C 	0.85557 0.05103 0.86233 0.00300
H 	H 	0.88677 0.08383 0.85643 0.02500
C 	C 	0.81047 0.05063 0.88243 -0.02700
H 	H 	0.81227 0.08263 0.89463 0.02700
C 	C 	0.76657 0.95703 0.88563 -0.01000
H 	H 	0.73737 0.92483 0.89913 0.02700
C 	C 	0.81237 0.95883 0.86653 -0.02300
H 	H 	0.81357 0.92713 0.86393 0.04300
C 	C 	0.85697 0.04483 0.88573 -0.01300
H 	H 	0.88977 0.07233 0.90103 0.03600
C 	C 	0.81187 0.04653 0.90043 -0.02800
H 	H 	0.81457 0.07653 0.92133 0.02700
C 	C 	0.76017 0.96743 0.83743 -0.07000
H 	H 	0.72757 0.94373 0.81773 0.04900
C 	C 	0.80587 0.96683 0.82183 0.01500
H 	H 	0.80467 0.94143 0.79263 0.02500
C 	C 	0.56077 0.86343 0.87733 -0.08200
H 	H 	0.58837 0.86743 0.85003 0.05200
C 	C 	0.51177 0.81623 0.87503 0.03300
H 	H 	0.50617 0.79083 0.84323 0.02300
O 	O 	0.61435 0.37959 0.16076 -0.39600
O 	O 	0.56284 0.29321 0.14312 -0.41800
C 	C 	0.57081 0.33720 0.16127 0.35800
C 	C 	0.52322 0.33948 0.18427 -0.08700
C 	C 	0.43013 0.33848 0.21827 0.00600
C 	C 	0.37965 0.33607 0.23547 0.08300
C 	C 	0.33302 0.28788 0.23567 -0.12400
H 	H 	0.33343 0.25647 0.22597 0.06400
C 	C 	0.18743 0.23317 0.24017 -0.04500
H 	H 	0.18663 0.26467 0.23247 0.03800
C 	C 	0.14103 0.18537 0.24147 0.01400
H 	H 	0.10873 0.18507 0.23597 0.02100
C 	C 	0.52223 0.38437 0.19567 0.00300
H 	H 	0.55343 0.41717 0.18977 0.02500
C 	C 	0.47713 0.38397 0.21577 -0.02600
H 	H 	0.47893 0.41597 0.22797 0.02700
C 	C 	0.43323 0.29037 0.21897 -0.01600
H 	H 	0.40403 0.25817 0.23247 0.02800
C 	C 	0.47903 0.29217 0.19987 -0.02200
H 	H 	0.48023 0.26047 0.19727 0.04200
C 	C 	0.52363 0.37817 0.21907 -0.01300
H 	H 	0.55643 0.40567 0.23437 0.03600
C 	C 	0.47853 0.37987 0.23377 -0.02800
H 	H 	0.48123 0.40987 0.25467 0.02800
C 	C 	0.42683 0.30077 0.17077 -0.06900
H 	H 	0.39423 0.27707 0.15107 0.04700
C 	C 	0.47253 0.30017 0.15517 0.00900
H 	H 	0.47133 0.27477 0.12597 0.02700
C 	C 	0.22743 0.19677 0.21067 -0.08000
H 	H 	0.25503 0.20077 0.18337 0.05100
C 	C 	0.17843 0.14957 0.20837 0.03300
H 	H 	0.17283 0.12417 0.17657 0.02300
O 	O 	0.43190 0.71898 0.49409 -0.39600
O 	O 	0.39703 0.77049 0.47645 -0.41800
C 	C 	0.43305 0.76252 0.49460 0.35800
C 	C 	0.48292 0.81011 0.51760 -0.08600
C 	C 	0.57501 0.90320 0.55160 0.00100
C 	C 	0.62308 0.95368 0.56880 0.09600
C 	C 	0.62152 0.00031 0.56900 -0.14900
H 	H 	0.58970 0.99990 0.55930 0.07600
C 	C 	0.71240 0.14590 0.57350 -0.04300
H 	H 	0.74470 0.14670 0.56580 0.03700
C 	C 	0.71100 0.19230 0.57480 0.01200
H 	H 	0.74300 0.22460 0.56930 0.02200
C 	C 	0.52880 0.81110 0.52900 0.00200
H 	H 	0.53040 0.77990 0.52310 0.02500
C 	C 	0.57350 0.85620 0.54910 -0.02500
H 	H 	0.60370 0.85440 0.56130 0.02700
C 	C 	0.52380 0.90010 0.55230 -0.01500
H 	H 	0.52080 0.92930 0.56580 0.02800
C 	C 	0.47980 0.85430 0.53320 -0.02200
H 	H 	0.44690 0.85310 0.53060 0.04300
C 	C 	0.52120 0.80970 0.55240 -0.01300
H 	H 	0.51590 0.77690 0.56770 0.03600
C 	C 	0.56800 0.85480 0.56710 -0.02700
H 	H 	0.59530 0.85210 0.58800 0.02700
C 	C 	0.54060 0.90650 0.50410 -0.06700
H 	H 	0.54950 0.93910 0.48440 0.04800
C 	C 	0.49430 0.86080 0.48850 0.00800
H 	H 	0.47010 0.86200 0.45930 0.02700
C 	C 	0.63600 0.10590 0.54400 -0.07900
H 	H 	0.61240 0.07830 0.51670 0.04900
C 	C 	0.63780 0.15490 0.54170 0.03300
H 	H 	0.61800 0.16050 0.50990 0.02300
O 	O 	0.09857 0.05231 0.82742 -0.39700
O 	O 	0.06370 0.10382 0.80978 -0.41900
C 	C 	0.09972 0.09585 0.82793 0.35800
C 	C 	0.14959 0.14344 0.85093 -0.08700
C 	C 	0.24168 0.23653 0.88493 0.00600
C 	C 	0.28975 0.28701 0.90213 0.08300
C 	C 	0.28819 0.33364 0.90233 -0.12400
H 	H 	0.25637 0.33323 0.89263 0.06400
C 	C 	0.37907 0.47923 0.90683 -0.04500
H 	H 	0.41137 0.48003 0.89913 0.03800
C 	C 	0.37767 0.52563 0.90813 0.01400
H 	H 	0.40967 0.55793 0.90263 0.02100
C 	C 	0.19547 0.14443 0.86233 0.00300
H 	H 	0.19707 0.11323 0.85643 0.02500
C 	C 	0.24017 0.18953 0.88243 -0.02700
H 	H 	0.27037 0.18773 0.89463 0.02700
C 	C 	0.19047 0.23343 0.88563 -0.01600
H 	H 	0.18747 0.26263 0.89913 0.02800
C 	C 	0.14647 0.18763 0.86653 -0.02200
H 	H 	0.11357 0.18643 0.86393 0.04200
C 	C 	0.18787 0.14303 0.88573 -0.01200
H 	H 	0.18257 0.11023 0.90103 0.03500
C 	C 	0.23467 0.18813 0.90043 -0.02800
H 	H 	0.26197 0.18543 0.92133 0.02700
C 	C 	0.20727 0.23983 0.83743 -0.06900
H 	H 	0.21617 0.27243 0.81773 0.04700
C 	C 	0.16097 0.19413 0.82183 0.00900
H 	H 	0.13677 0.19533 0.79263 0.02700
C 	C 	0.30267 0.43923 0.87733 -0.08000
H 	H 	0.27907 0.41163 0.85003 0.05100
C 	C 	0.30447 0.48823 0.87503 0.03300
H 	H 	0.28467 0.49383 0.84323 0.02300
O 	O 	0.76523 0.38565 0.16076 -0.39600
O 	O 	0.73036 0.43716 0.14312 -0.41800
C 	C 	0.76638 0.42919 0.16127 0.35800
C 	C 	0.81625 0.47678 0.18427 -0.08700
C 	C 	0.90834 0.56987 0.21827 0.00700
C 	C 	0.95641 0.62035 0.23547 0.08200
C 	C 	0.95485 0.66698 0.23567 -0.11200
H 	H 	0.92303 0.66657 0.22597 0.06000
C 	C 	0.04573 0.81257 0.24017 -0.05400
H 	H 	0.07803 0.81337 0.23247 0.04100
C 	C 	0.04433 0.85897 0.24147 0.01900
H 	H 	0.07633 0.89127 0.23597 0.02000
C 	C 	0.86213 0.47777 0.19567 0.00300
H 	H 	0.86373 0.44657 0.18977 0.02500
C 	C 	0.90683 0.52287 0.21577 -0.02600
H 	H 	0.93703 0.52107 0.22797 0.02800
C 	C 	0.85713 0.56677 0.21897 -0.01600
H 	H 	0.85413 0.59597 0.23247 0.02800
C 	C 	0.81313 0.52097 0.19987 -0.02200
H 	H 	0.78023 0.51977 0.19727 0.04300
C 	C 	0.85453 0.47637 0.21907 -0.01300
H 	H 	0.84923 0.44357 0.23437 0.03600
C 	C 	0.90133 0.52147 0.23377 -0.02800
H 	H 	0.92863 0.51877 0.25467 0.02800
C 	C 	0.87393 0.57317 0.17077 -0.06900
H 	H 	0.88283 0.60577 0.15107 0.04800
C 	C 	0.82763 0.52747 0.15517 0.00900
H 	H 	0.80343 0.52867 0.12597 0.02700
C 	C 	0.96933 0.77257 0.21067 -0.08400
H 	H 	0.94573 0.74497 0.18337 0.05200
C 	C 	0.97113 0.82157 0.20837 0.03400
H 	H 	0.95133 0.82717 0.17657 0.02300
Ni	Ni	0.66667 0.40174 0.08333 1.12300
N 	N 	0.66667 0.47306 0.08333 -0.20500
N 	N 	0.66667 0.71479 0.08333 -0.13600
C 	C 	0.66667 0.61928 0.08333 0.04600
C 	C 	0.66667 0.56868 0.08333 0.05000
Ni	Ni	0.59826 0.26492 0.08333 1.12300
N 	N 	0.52694 0.19360 0.08333 -0.20400
N 	N 	0.28521 0.95187 0.08333 -0.13900
C 	C 	0.38072 0.04738 0.08333 0.05800
C 	C 	0.43132 0.09798 0.08333 0.04300
Ni	Ni	0.73508 0.33333 0.08333 1.12300
N 	N 	0.80640 0.33333 0.08333 -0.20500
N 	N 	0.04813 0.33333 0.08333 -0.13300
C 	C 	0.95262 0.33333 0.08333 0.03600
C 	C 	0.90202 0.33333 0.08333 0.05600
Ni	Ni	0.40174 0.66667 0.41667 1.12300
N 	N 	0.47306 0.66667 0.41667 -0.20500
N 	N 	0.71479 0.66667 0.41667 -0.13600
C 	C 	0.61928 0.66667 0.41667 0.04600
C 	C 	0.56868 0.66667 0.41667 0.05000
Ni	Ni	0.06841 -0.00000 0.75000 1.12200
N 	N 	0.13973 -0.00000 0.75000 -0.20700
N 	N 	0.38146 -0.00000 0.75000 -0.13900
C 	C 	0.28595 -0.00000 0.75000 0.04100
C 	C 	0.23535 -0.00000 0.75000 0.04500
Ni	Ni	0.26492 0.59826 0.41667 1.12300
N 	N 	0.19360 0.52694 0.41667 -0.20400
N 	N 	0.95187 0.28521 0.41667 -0.13900
C 	C 	0.04738 0.38072 0.41667 0.05600
C 	C 	0.09798 0.43132 0.41667 0.04400
Ni	Ni	0.93159 0.93159 0.75000 1.12500
N 	N 	0.86027 0.86027 0.75000 -0.20500
N 	N 	0.61854 0.61854 0.75000 -0.13600
C 	C 	0.71405 0.71405 0.75000 0.04600
C 	C 	0.76465 0.76465 0.75000 0.05000
Ni	Ni	0.33333 0.73508 0.41667 1.12300
N 	N 	0.33333 0.80640 0.41667 -0.20500
N 	N 	0.33333 0.04813 0.41667 -0.13300
C 	C 	0.33333 0.95262 0.41667 0.03400
C 	C 	0.33333 0.90202 0.41667 0.05700
Ni	Ni	-0.00000 0.06841 0.75000 1.12200
N 	N 	0.00000 0.13973 0.75000 -0.20700
N 	N 	0.00000 0.38146 0.75000 -0.13800
C 	C 	0.00000 0.28595 0.75000 0.04200
C 	C 	-0.00000 0.23535 0.75000 0.04600
Ni	Ni	0.33333 0.59826 0.91667 1.12300
N 	N 	0.33333 0.52694 0.91667 -0.20500
N 	N 	0.33333 0.28521 0.91667 -0.13600
C 	C 	0.33333 0.38072 0.91667 0.04600
C 	C 	0.33333 0.43132 0.91667 0.05000
Ni	Ni	-0.00000 0.93159 0.25000 1.12300
N 	N 	0.00000 0.86027 0.25000 -0.21000
N 	N 	-0.00000 0.61854 0.25000 -0.13700
C 	C 	-0.00000 0.71405 0.25000 0.02800
C 	C 	1.00000 0.76465 0.25000 0.07000
Ni	Ni	0.40174 0.73508 0.91667 1.12300
N 	N 	0.47306 0.80640 0.91667 -0.20500
N 	N 	0.71479 0.04813 0.91667 -0.13300
C 	C 	0.61928 0.95262 0.91667 0.03300
C 	C 	0.56868 0.90202 0.91667 0.05800
Ni	Ni	0.06841 0.06841 0.25000 1.12300
N 	N 	0.13973 0.13973 0.25000 -0.20500
N 	N 	0.38146 0.38146 0.25000 -0.13600
C 	C 	0.28595 0.28595 0.25000 0.04600
C 	C 	0.23535 0.23535 0.25000 0.05000
Ni	Ni	0.26492 0.66667 0.91667 1.12300
N 	N 	0.19360 0.66667 0.91667 -0.20400
N 	N 	0.95187 0.66667 0.91667 -0.13900
C 	C 	0.04738 0.66667 0.91667 0.05600
C 	C 	0.09798 0.66667 0.91667 0.04400
Ni	Ni	0.93159 0.00000 0.25000 1.12300
N 	N 	0.86027 0.00000 0.25000 -0.20800
N 	N 	0.61854 0.00000 0.25000 -0.13900
C 	C 	0.71405 0.00000 0.25000 0.04100
C 	C 	0.76465 0.00000 0.25000 0.04400
Ni	Ni	0.59826 0.33333 0.58333 1.12300
N 	N 	0.52694 0.33333 0.58333 -0.20500
N 	N 	0.28521 0.33333 0.58333 -0.13600
C 	C 	0.38072 0.33333 0.58333 0.04600
C 	C 	0.43132 0.33333 0.58333 0.05000
Ni	Ni	0.73508 0.40174 0.58333 1.12300
N 	N 	0.80640 0.47306 0.58333 -0.20500
N 	N 	0.04813 0.71479 0.58333 -0.13300
C 	C 	0.95262 0.61928 0.58333 0.03500
C 	C 	0.90202 0.56868 0.58333 0.05600
Ni	Ni	0.66667 0.26492 0.58333 1.12300
N 	N 	0.66667 0.19360 0.58333 -0.20400
N 	N 	0.66667 0.95187 0.58333 -0.13900
C 	C 	0.66667 0.04738 0.58333 0.05900
C 	C 	0.66667 0.09798 0.58333 0.04300
O 	O 	0.66667 0.33333 0.08333 -0.71100
O 	O 	-0.00000 -0.00000 0.75000 -0.71300
O 	O 	0.33333 0.66667 0.41667 -0.71100
O 	O 	0.33333 0.66667 0.91667 -0.71100
O 	O 	-0.00000 0.00000 0.25000 -0.71300
O 	O 	0.66667 0.33333 0.58333 -0.71100
H 	H 	0.66667 0.33333 0.13130 0.12700
H 	H 	0.33333 0.66667 0.46463 0.12700
H 	H 	-0.00000 0.00000 0.79797 0.12400
H 	H 	0.33333 0.66667 0.36870 0.12700
H 	H 	-0.00000 0.00000 0.70203 0.12400
H 	H 	0.66667 0.33333 0.03537 0.12700
H 	H 	0.33333 0.66667 0.86870 0.12700
H 	H 	-0.00000 0.00000 0.20203 0.12400
H 	H 	0.66667 0.33333 0.53537 0.12700
H 	H 	0.66667 0.33333 0.63130 0.12700
H 	H 	0.33333 0.66667 0.96463 0.12700
H 	H 	-0.00000 -0.00000 0.29797 0.12400
