data_crystal

_cell_length_a 18.81200
_cell_length_b 18.81200
_cell_length_c 34.89200
_cell_angle_alpha 90.00000
_cell_angle_beta  90.00000
_cell_angle_gamma 120.00000

_symmetry_space_group_name_	'P 1'
_symmetry_space_group_name_H-M	'P 1'

loop_
_symmetry_equiv_pos_as_xyz
  x,y,z

loop_
_atom_site_label
_atom_site_type_symbol
_atom_site_fract_x
_atom_site_fract_y
_atom_site_fract_z
_atom_site_charge
C 	C 	0.22760 0.17180 0.93250 -0.06500
H 	H 	0.20780 0.19940 0.91690 0.03600
C 	C 	0.30860 0.21210 0.94690 0.00100
H 	H 	0.34310 0.26910 0.94210 0.02100
C 	C 	0.28660 0.09480 0.98300 -0.00700
H 	H 	0.30130 0.07250 0.00390 0.02700
C 	C 	0.21040 0.05290 0.96650 -0.05000
H 	H 	0.17770 0.99580 0.97160 0.03900
C 	C 	0.03390 0.96430 0.80630 0.19400
H 	H 	0.05830 0.93860 0.82030 -0.04600
C 	C 	0.03490 0.96310 0.76830 0.18400
H 	H 	0.06000 0.93650 0.75570 -0.01600
C 	C 	0.21020 0.15700 0.96670 0.00100
H 	H 	0.17640 0.17960 0.97300 0.01800
C 	C 	0.28760 0.19320 0.98220 -0.04300
H 	H 	0.30390 0.23340 0.00180 0.02900
C 	C 	0.30800 0.09560 0.94720 -0.02500
H 	H 	0.34230 0.07290 0.94240 0.02700
C 	C 	0.22660 0.05430 0.93280 -0.02900
H 	H 	0.20610 0.00620 0.91750 0.01700
C 	C 	0.96160 0.03880 0.76490 -0.25300
H 	H 	0.93760 0.06430 0.75050 0.12100
C 	C 	0.95930 0.03910 0.80560 -0.19800
H 	H 	0.93310 0.06320 0.81940 0.07900
C 	C 	0.04360 0.95580 0.94289 -0.30200
H 	H 	0.07230 0.92680 0.93400 0.10900
H 	H 	0.04370 0.95570 0.97130 0.10700
C 	C 	0.09000 0.04470 0.92850 0.19000
C 	C 	0.08700 0.04360 0.88357 -0.32500
H 	H 	0.11560 0.10070 0.87380 0.11300
H 	H 	0.11600 0.01580 0.87360 0.11200
C 	C 	0.17810 0.08920 0.94254 -0.03900
C 	C 	0.33990 0.16950 0.96835 -0.06300
O 	O 	0.48250 0.17460 0.96940 -0.41000
O 	O 	0.48420 0.30840 0.96940 -0.42400
O 	O 	0.44370 0.22110 0.03140 -0.42700
H 	H 	0.42240 0.24800 0.03970 0.22600
O 	O 	0.95682 0.91283 0.68244 -0.39400
P 	P 	0.44372 0.22210 0.98700 0.43400
Cu	Cu	0.59404 0.18806 0.96703 0.85500
C 	C 	0.89427 0.50513 0.26583 -0.03600
H 	H 	0.87447 0.53273 0.25023 0.02600
C 	C 	0.97527 0.54543 0.28023 -0.00700
H 	H 	0.00977 0.60243 0.27543 0.01900
C 	C 	0.95327 0.42813 0.31633 -0.06200
H 	H 	0.96797 0.40583 0.33723 0.04900
C 	C 	0.87707 0.38623 0.29983 0.01700
H 	H 	0.84437 0.32913 0.30493 0.01300
C 	C 	0.70057 0.29763 0.13963 0.16500
H 	H 	0.72497 0.27193 0.15363 -0.03800
C 	C 	0.70157 0.29643 0.10163 0.16300
H 	H 	0.72667 0.26983 0.08903 -0.01000
C 	C 	0.87687 0.49033 0.30003 -0.05000
H 	H 	0.84307 0.51293 0.30633 0.03500
C 	C 	0.95427 0.52653 0.31553 0.00800
H 	H 	0.97057 0.56673 0.33513 0.01400
C 	C 	0.97467 0.42893 0.28053 0.05000
H 	H 	0.00897 0.40623 0.27573 -0.00100
C 	C 	0.89327 0.38763 0.26613 -0.09900
H 	H 	0.87277 0.33953 0.25083 0.04600
C 	C 	0.62827 0.37213 0.09823 -0.22700
H 	H 	0.60427 0.39763 0.08383 0.11200
C 	C 	0.62597 0.37243 0.13893 -0.18900
H 	H 	0.59977 0.39653 0.15273 0.07500
C 	C 	0.71027 0.28913 0.27622 -0.31000
H 	H 	0.73897 0.26013 0.26733 0.11100
H 	H 	0.71037 0.28903 0.30463 0.10800
C 	C 	0.75667 0.37803 0.26183 0.19700
C 	C 	0.75367 0.37693 0.21690 -0.33300
H 	H 	0.78227 0.43403 0.20713 0.11700
H 	H 	0.78267 0.34913 0.20693 0.11700
C 	C 	0.84477 0.42253 0.27587 -0.03200
C 	C 	0.00657 0.50283 0.30168 -0.09200
O 	O 	0.14917 0.50793 0.30273 -0.41000
O 	O 	0.15087 0.64173 0.30273 -0.42500
O 	O 	0.11037 0.55443 0.36473 -0.42800
H 	H 	0.08907 0.58133 0.37303 0.22600
O 	O 	0.62349 0.24616 0.01577 -0.40400
P 	P 	0.11039 0.55543 0.32033 0.43800
Cu	Cu	0.26071 0.52139 0.30036 0.85600
C 	C 	0.56093 0.83847 0.59917 -0.01500
H 	H 	0.54113 0.86607 0.58357 0.01800
C 	C 	0.64193 0.87877 0.61357 -0.04200
H 	H 	0.67643 0.93577 0.60877 0.03700
C 	C 	0.61993 0.76147 0.64967 -0.07100
H 	H 	0.63463 0.73917 0.67057 0.05000
C 	C 	0.54373 0.71957 0.63317 0.02400
H 	H 	0.51103 0.66247 0.63827 0.01100
C 	C 	0.36723 0.63097 0.47297 0.16500
H 	H 	0.39163 0.60527 0.48697 -0.03800
C 	C 	0.36823 0.62977 0.43497 0.16300
H 	H 	0.39333 0.60317 0.42237 -0.01100
C 	C 	0.54353 0.82367 0.63337 -0.04900
H 	H 	0.50973 0.84627 0.63967 0.03400
C 	C 	0.62093 0.85987 0.64887 0.00600
H 	H 	0.63723 0.90007 0.66847 0.01300
C 	C 	0.64133 0.76227 0.61387 0.02000
H 	H 	0.67563 0.73957 0.60907 0.01500
C 	C 	0.55993 0.72097 0.59947 -0.08400
H 	H 	0.53943 0.67287 0.58417 0.04000
C 	C 	0.29493 0.70547 0.43157 -0.22600
H 	H 	0.27093 0.73097 0.41717 0.11200
C 	C 	0.29263 0.70577 0.47227 -0.18900
H 	H 	0.26643 0.72987 0.48607 0.07600
C 	C 	0.37693 0.62247 0.60956 -0.31000
H 	H 	0.40563 0.59347 0.60067 0.11100
H 	H 	0.37703 0.62237 0.63797 0.10800
C 	C 	0.42333 0.71137 0.59517 0.20200
C 	C 	0.42033 0.71027 0.55024 -0.33500
H 	H 	0.44893 0.76737 0.54047 0.11700
H 	H 	0.44933 0.68247 0.54027 0.11700
C 	C 	0.51143 0.75587 0.60921 -0.04700
C 	C 	0.67323 0.83617 0.63502 -0.05800
O 	O 	0.81583 0.84127 0.63607 -0.40700
O 	O 	0.81753 0.97507 0.63607 -0.42000
O 	O 	0.77703 0.88777 0.69807 -0.42500
H 	H 	0.75573 0.91467 0.70637 0.22800
O 	O 	0.29015 0.57950 0.34911 -0.40400
P 	P 	0.77705 0.88877 0.65367 0.43400
Cu	Cu	0.92737 0.85473 0.63370 0.85800
C 	C 	0.82820 0.05580 0.93250 0.08000
H 	H 	0.80060 0.00840 0.91690 -0.01800
C 	C 	0.78790 0.09650 0.94690 -0.12400
H 	H 	0.73090 0.07400 0.94210 0.06000
C 	C 	0.90520 0.19180 0.98300 -0.17300
H 	H 	0.92750 0.22880 0.00390 0.08600
C 	C 	0.94710 0.15750 0.96650 0.13500
H 	H 	0.00420 0.18190 0.97160 -0.02900
C 	C 	0.03570 0.06960 0.80630 0.19700
H 	H 	0.06140 0.11970 0.82030 -0.04900
C 	C 	0.03690 0.07180 0.76830 0.16900
H 	H 	0.06350 0.12350 0.75570 -0.01300
C 	C 	0.84300 0.05320 0.96670 -0.15900
H 	H 	0.82040 0.99680 0.97300 0.07300
C 	C 	0.80680 0.09440 0.98220 0.10800
H 	H 	0.76660 0.07050 0.00180 -0.02300
C 	C 	0.90440 0.21240 0.94720 0.09800
H 	H 	0.92710 0.26940 0.94240 -0.00900
C 	C 	0.94570 0.17230 0.93280 -0.18100
H 	H 	0.99380 0.19990 0.91750 0.07600
C 	C 	0.96120 0.92280 0.76490 -0.25700
H 	H 	0.93570 0.87330 0.75050 0.12400
C 	C 	0.96090 0.92020 0.80560 -0.19100
H 	H 	0.93680 0.86990 0.81940 0.07800
C 	C 	0.04420 0.08780 0.94289 -0.31000
H 	H 	0.07320 0.14550 0.93400 0.11000
H 	H 	0.04430 0.08800 0.97130 0.10700
C 	C 	0.95530 0.04530 0.92850 0.19700
C 	C 	0.95640 0.04340 0.88357 -0.32100
H 	H 	0.89930 0.01490 0.87380 0.11200
H 	H 	0.98420 0.10020 0.87360 0.11600
C 	C 	0.91080 0.08890 0.94254 -0.04600
C 	C 	0.83050 0.17040 0.96835 -0.05800
O 	O 	0.82540 0.30790 0.96940 -0.40700
O 	O 	0.69160 0.17580 0.96940 -0.42500
O 	O 	0.77890 0.22260 0.03140 -0.42600
H 	H 	0.75200 0.17440 0.03970 0.22600
O 	O 	0.08717 0.04399 0.68244 -0.40500
P 	P 	0.77790 0.22162 0.98700 0.43300
Cu	Cu	0.81194 0.40598 0.96703 0.85700
C 	C 	0.49487 0.38913 0.26583 -0.01500
H 	H 	0.46727 0.34173 0.25023 0.01700
C 	C 	0.45457 0.42983 0.28023 -0.04300
H 	H 	0.39757 0.40733 0.27543 0.03500
C 	C 	0.57187 0.52513 0.31633 -0.07100
H 	H 	0.59417 0.56213 0.33723 0.05000
C 	C 	0.61377 0.49083 0.29983 0.02500
H 	H 	0.67087 0.51523 0.30493 0.01000
C 	C 	0.70237 0.40293 0.13963 0.16600
H 	H 	0.72807 0.45303 0.15363 -0.03800
C 	C 	0.70357 0.40513 0.10163 0.16200
H 	H 	0.73017 0.45683 0.08903 -0.01000
C 	C 	0.50967 0.38653 0.30003 -0.04900
H 	H 	0.48707 0.33013 0.30633 0.03400
C 	C 	0.47347 0.42773 0.31553 0.00700
H 	H 	0.43327 0.40383 0.33513 0.01200
C 	C 	0.57107 0.54573 0.28053 0.02000
H 	H 	0.59377 0.60273 0.27573 0.01400
C 	C 	0.61237 0.50563 0.26613 -0.08500
H 	H 	0.66047 0.53323 0.25083 0.04000
C 	C 	0.62787 0.25613 0.09823 -0.22700
H 	H 	0.60237 0.20663 0.08383 0.11100
C 	C 	0.62757 0.25353 0.13893 -0.18800
H 	H 	0.60347 0.20323 0.15273 0.07500
C 	C 	0.71087 0.42113 0.27622 -0.30800
H 	H 	0.73987 0.47883 0.26733 0.11000
H 	H 	0.71097 0.42133 0.30463 0.10800
C 	C 	0.62197 0.37863 0.26183 0.20200
C 	C 	0.62307 0.37673 0.21690 -0.33400
H 	H 	0.56597 0.34823 0.20713 0.11700
H 	H 	0.65087 0.43353 0.20693 0.11700
C 	C 	0.57747 0.42223 0.27587 -0.04700
C 	C 	0.49717 0.50373 0.30168 -0.05900
O 	O 	0.49207 0.64123 0.30273 -0.40800
O 	O 	0.35827 0.50913 0.30273 -0.42400
O 	O 	0.44557 0.55593 0.36473 -0.42600
H 	H 	0.41867 0.50773 0.37303 0.22600
O 	O 	0.75384 0.37732 0.01577 -0.40400
P 	P 	0.44457 0.55495 0.32033 0.43300
Cu	Cu	0.47861 0.73931 0.30036 0.85600
C 	C 	0.16153 0.72247 0.59917 -0.01400
H 	H 	0.13393 0.67507 0.58357 0.01700
C 	C 	0.12123 0.76317 0.61357 -0.04300
H 	H 	0.06423 0.74067 0.60877 0.03400
C 	C 	0.23853 0.85847 0.64967 -0.07200
H 	H 	0.26083 0.89547 0.67057 0.05100
C 	C 	0.28043 0.82417 0.63317 0.02500
H 	H 	0.33753 0.84857 0.63827 0.01000
C 	C 	0.36903 0.73627 0.47297 0.16700
H 	H 	0.39473 0.78637 0.48697 -0.03800
C 	C 	0.37023 0.73847 0.43497 0.16100
H 	H 	0.39683 0.79017 0.42237 -0.00900
C 	C 	0.17633 0.71987 0.63337 -0.05000
H 	H 	0.15373 0.66347 0.63967 0.03400
C 	C 	0.14013 0.76107 0.64887 0.00700
H 	H 	0.09993 0.73717 0.66847 0.01100
C 	C 	0.23773 0.87907 0.61387 0.02000
H 	H 	0.26043 0.93607 0.60907 0.01500
C 	C 	0.27903 0.83897 0.59947 -0.08600
H 	H 	0.32713 0.86657 0.58417 0.04100
C 	C 	0.29453 0.58947 0.43157 -0.22800
H 	H 	0.26903 0.53997 0.41717 0.11200
C 	C 	0.29423 0.58687 0.47227 -0.18700
H 	H 	0.27013 0.53657 0.48607 0.07500
C 	C 	0.37753 0.75447 0.60956 -0.31100
H 	H 	0.40653 0.81217 0.60067 0.11100
H 	H 	0.37763 0.75467 0.63797 0.10900
C 	C 	0.28863 0.71197 0.59517 0.20200
C 	C 	0.28973 0.71007 0.55024 -0.33400
H 	H 	0.23263 0.68157 0.54047 0.11700
H 	H 	0.31753 0.76687 0.54027 0.11800
C 	C 	0.24413 0.75557 0.60921 -0.04700
C 	C 	0.16383 0.83707 0.63502 -0.05900
O 	O 	0.15873 0.97457 0.63607 -0.40600
O 	O 	0.02493 0.84247 0.63607 -0.42600
O 	O 	0.11223 0.88927 0.69807 -0.42400
H 	H 	0.08533 0.84107 0.70637 0.22500
O 	O 	0.42050 0.71066 0.34911 -0.40400
P 	P 	0.11123 0.88829 0.65367 0.43300
Cu	Cu	0.14527 0.07265 0.63370 0.85300
C 	C 	0.94420 0.77240 0.93250 -0.06200
H 	H 	0.99160 0.79220 0.91690 0.03700
C 	C 	0.90350 0.69140 0.94690 -0.00300
H 	H 	0.92600 0.65690 0.94210 0.02400
C 	C 	0.80820 0.71340 0.98300 -0.03200
H 	H 	0.77120 0.69870 0.00390 0.03600
C 	C 	0.84250 0.78960 0.96650 -0.01700
H 	H 	0.81810 0.82230 0.97160 0.02300
C 	C 	0.93040 0.96610 0.80630 0.17100
H 	H 	0.88030 0.94170 0.82030 -0.03600
C 	C 	0.92820 0.96510 0.76830 0.21300
H 	H 	0.87650 0.94000 0.75570 -0.02400
C 	C 	0.94680 0.78980 0.96670 0.00700
H 	H 	0.00320 0.82360 0.97300 0.01300
C 	C 	0.90560 0.71240 0.98220 -0.04500
H 	H 	0.92950 0.69610 0.00180 0.03100
C 	C 	0.78760 0.69200 0.94720 -0.01100
H 	H 	0.73060 0.65770 0.94240 0.02500
C 	C 	0.82770 0.77340 0.93280 -0.04700
H 	H 	0.80010 0.79390 0.91750 0.02700
C 	C 	0.07720 0.03840 0.76490 -0.23300
H 	H 	0.12670 0.06240 0.75050 0.11300
C 	C 	0.07980 0.04070 0.80560 -0.22600
H 	H 	0.13010 0.06690 0.81940 0.08700
C 	C 	0.91220 0.95640 0.94289 -0.30000
H 	H 	0.85450 0.92770 0.93400 0.10800
H 	H 	0.91200 0.95630 0.97130 0.10700
C 	C 	0.95470 0.91000 0.92850 0.19900
C 	C 	0.95660 0.91300 0.88357 -0.31500
H 	H 	0.98510 0.88440 0.87380 0.11500
H 	H 	0.89980 0.88400 0.87360 0.11400
C 	C 	0.91110 0.82190 0.94254 -0.04700
C 	C 	0.82960 0.66010 0.96835 -0.05700
O 	O 	0.69210 0.51750 0.96940 -0.40900
O 	O 	0.82420 0.51580 0.96940 -0.42300
O 	O 	0.77740 0.55630 0.03140 -0.42600
H 	H 	0.82560 0.57760 0.03970 0.22700
O 	O 	0.95601 0.04318 0.68244 -0.39900
P 	P 	0.77838 0.55628 0.98700 0.43300
Cu	Cu	0.59402 0.40596 0.96703 0.85600
C 	C 	0.61087 0.10573 0.26583 0.00400
H 	H 	0.65827 0.12553 0.25023 0.01000
C 	C 	0.57017 0.02473 0.28023 -0.07500
H 	H 	0.59267 0.99023 0.27543 0.05000
C 	C 	0.47487 0.04673 0.31633 -0.07900
H 	H 	0.43787 0.03203 0.33723 0.05000
C 	C 	0.50917 0.12293 0.29983 0.03100
H 	H 	0.48477 0.15563 0.30493 0.00800
C 	C 	0.59707 0.29943 0.13963 0.16500
H 	H 	0.54697 0.27503 0.15363 -0.03800
C 	C 	0.59487 0.29843 0.10163 0.16300
H 	H 	0.54317 0.27333 0.08903 -0.01100
C 	C 	0.61347 0.12313 0.30003 -0.04800
H 	H 	0.66987 0.15693 0.30633 0.03300
C 	C 	0.57227 0.04573 0.31553 0.00400
H 	H 	0.59617 0.02943 0.33513 0.01100
C 	C 	0.45427 0.02533 0.28053 -0.00900
H 	H 	0.39727 0.99103 0.27573 0.02800
C 	C 	0.49437 0.10673 0.26613 -0.07100
H 	H 	0.46677 0.12723 0.25083 0.03400
C 	C 	0.74387 0.37173 0.09823 -0.22600
H 	H 	0.79337 0.39573 0.08383 0.11200
C 	C 	0.74647 0.37403 0.13893 -0.18900
H 	H 	0.79677 0.40023 0.15273 0.07600
C 	C 	0.57887 0.28973 0.27622 -0.31200
H 	H 	0.52117 0.26103 0.26733 0.11100
H 	H 	0.57867 0.28963 0.30463 0.10900
C 	C 	0.62137 0.24333 0.26183 0.20600
C 	C 	0.62327 0.24633 0.21690 -0.33600
H 	H 	0.65177 0.21773 0.20713 0.11700
H 	H 	0.56647 0.21733 0.20693 0.11700
C 	C 	0.57777 0.15523 0.27587 -0.06000
C 	C 	0.49627 0.99343 0.30168 -0.02800
O 	O 	0.35877 0.85083 0.30273 -0.40800
O 	O 	0.49087 0.84913 0.30273 -0.42300
O 	O 	0.44407 0.88963 0.36473 -0.42500
H 	H 	0.49227 0.91093 0.37303 0.22700
O 	O 	0.62268 0.37651 0.01577 -0.40400
P 	P 	0.44505 0.88961 0.32033 0.42900
Cu	Cu	0.26069 0.73929 0.30036 0.85600
C 	C 	0.27753 0.43907 0.59917 -0.01600
H 	H 	0.32493 0.45887 0.58357 0.01800
C 	C 	0.23683 0.35807 0.61357 -0.04200
H 	H 	0.25933 0.32357 0.60877 0.03500
C 	C 	0.14153 0.38007 0.64967 -0.07000
H 	H 	0.10453 0.36537 0.67057 0.04900
C 	C 	0.17583 0.45627 0.63317 0.02400
H 	H 	0.15143 0.48897 0.63827 0.01100
C 	C 	0.26373 0.63277 0.47297 0.16400
H 	H 	0.21363 0.60837 0.48697 -0.03800
C 	C 	0.26153 0.63177 0.43497 0.16400
H 	H 	0.20983 0.60667 0.42237 -0.01100
C 	C 	0.28013 0.45647 0.63337 -0.04900
H 	H 	0.33653 0.49027 0.63967 0.03400
C 	C 	0.23893 0.37907 0.64887 0.00700
H 	H 	0.26283 0.36277 0.66847 0.01200
C 	C 	0.12093 0.35867 0.61387 0.01900
H 	H 	0.06393 0.32437 0.60907 0.01300
C 	C 	0.16103 0.44007 0.59947 -0.08500
H 	H 	0.13343 0.46057 0.58417 0.03900
C 	C 	0.41053 0.70507 0.43157 -0.22600
H 	H 	0.46003 0.72907 0.41717 0.11200
C 	C 	0.41313 0.70737 0.47227 -0.19000
H 	H 	0.46343 0.73357 0.48607 0.07600
C 	C 	0.24553 0.62307 0.60956 -0.31000
H 	H 	0.18783 0.59437 0.60067 0.11000
H 	H 	0.24533 0.62297 0.63797 0.10800
C 	C 	0.28803 0.57667 0.59517 0.20200
C 	C 	0.28993 0.57967 0.55024 -0.33400
H 	H 	0.31843 0.55107 0.54047 0.11700
H 	H 	0.23313 0.55067 0.54027 0.11700
C 	C 	0.24443 0.48857 0.60921 -0.04700
C 	C 	0.16293 0.32677 0.63502 -0.06000
O 	O 	0.02543 0.18417 0.63607 -0.41300
O 	O 	0.15753 0.18247 0.63607 -0.42500
O 	O 	0.11073 0.22297 0.69807 -0.42800
H 	H 	0.15893 0.24427 0.70637 0.22700
O 	O 	0.28934 0.70985 0.34911 -0.40400
P 	P 	0.11171 0.22295 0.65367 0.43400
Cu	Cu	0.92735 0.07263 0.63370 0.85600
C 	C 	-0.00000 0.00000 0.86930 0.24100
C 	C 	-0.00000 0.00000 0.82520 -0.15600
C 	C 	-0.00000 -0.00000 0.74590 -0.03600
P 	P 	-0.00000 0.00000 0.69402 0.45200
C 	C 	0.66667 0.33333 0.20263 0.25800
C 	C 	0.66667 0.33333 0.15853 -0.13500
C 	C 	0.66667 0.33333 0.07923 -0.02000
P 	P 	0.66667 0.33333 0.02735 0.46600
C 	C 	0.33333 0.66667 0.53597 0.25800
C 	C 	0.33333 0.66667 0.49187 -0.13500
C 	C 	0.33333 0.66667 0.41257 -0.02000
P 	P 	0.33333 0.66667 0.36069 0.46600
C 	C 	0.77240 0.82820 0.06750 0.02300
H 	H 	0.79220 0.80060 0.08310 0.00500
C 	C 	0.69140 0.78790 0.05310 -0.07600
H 	H 	0.65690 0.73090 0.05790 0.04600
C 	C 	0.71340 0.90520 0.01700 -0.12000
H 	H 	0.69870 0.92750 0.99610 0.06800
C 	C 	0.78960 0.94710 0.03350 0.08000
H 	H 	0.82230 0.00420 0.02840 -0.01100
C 	C 	0.96610 0.03570 0.19370 0.18400
H 	H 	0.94170 0.06140 0.17970 -0.04200
C 	C 	0.96510 0.03690 0.23170 0.19700
H 	H 	0.94000 0.06350 0.24430 -0.02000
C 	C 	0.78980 0.84300 0.03330 -0.08900
H 	H 	0.82360 0.82040 0.02700 0.04700
C 	C 	0.71240 0.80680 0.01780 0.04500
H 	H 	0.69610 0.76660 0.99820 -0.00100
C 	C 	0.69200 0.90440 0.05280 0.05600
H 	H 	0.65770 0.92710 0.05760 0.00400
C 	C 	0.77340 0.94570 0.06720 -0.13000
H 	H 	0.79390 0.99380 0.08250 0.05900
C 	C 	0.03840 0.96120 0.23510 -0.24000
H 	H 	0.06240 0.93570 0.24950 0.11700
C 	C 	0.04070 0.96090 0.19440 -0.20900
H 	H 	0.06690 0.93680 0.18060 0.08300
C 	C 	0.95640 0.04420 0.05711 -0.30200
H 	H 	0.92770 0.07320 0.06600 0.10900
H 	H 	0.95630 0.04430 0.02870 0.10700
C 	C 	0.91000 0.95530 0.07150 0.19900
C 	C 	0.91300 0.95640 0.11643 -0.31600
H 	H 	0.88440 0.89930 0.12620 0.11300
H 	H 	0.88400 0.98420 0.12640 0.11500
C 	C 	0.82190 0.91080 0.05746 -0.04800
C 	C 	0.66010 0.83050 0.03165 -0.05600
O 	O 	0.51750 0.82540 0.03060 -0.40800
O 	O 	0.51580 0.69160 0.03060 -0.42400
O 	O 	0.55630 0.77890 0.96860 -0.42600
H 	H 	0.57760 0.75200 0.96030 0.22700
O 	O 	0.04318 0.08717 0.31756 -0.40500
P 	P 	0.55628 0.77790 0.01300 0.43300
Cu	Cu	0.40596 0.81194 0.03297 0.85700
C 	C 	0.43907 0.16153 0.40083 -0.01500
H 	H 	0.45887 0.13393 0.41643 0.01700
C 	C 	0.35807 0.12123 0.38643 -0.04300
H 	H 	0.32357 0.06423 0.39123 0.03400
C 	C 	0.38007 0.23853 0.35033 -0.07100
H 	H 	0.36537 0.26083 0.32943 0.05000
C 	C 	0.45627 0.28043 0.36683 0.02500
H 	H 	0.48897 0.33753 0.36173 0.01000
C 	C 	0.63277 0.36903 0.52703 0.16600
H 	H 	0.60837 0.39473 0.51303 -0.03800
C 	C 	0.63177 0.37023 0.56503 0.16200
H 	H 	0.60667 0.39683 0.57763 -0.01000
C 	C 	0.45647 0.17633 0.36663 -0.05000
H 	H 	0.49027 0.15373 0.36033 0.03400
C 	C 	0.37907 0.14013 0.35113 0.00800
H 	H 	0.36277 0.09993 0.33153 0.01100
C 	C 	0.35867 0.23773 0.38613 0.02000
H 	H 	0.32437 0.26043 0.39093 0.01400
C 	C 	0.44007 0.27903 0.40053 -0.08600
H 	H 	0.46057 0.32713 0.41583 0.04000
C 	C 	0.70507 0.29453 0.56843 -0.22700
H 	H 	0.72907 0.26903 0.58283 0.11200
C 	C 	0.70737 0.29423 0.52773 -0.18900
H 	H 	0.73357 0.27013 0.51393 0.07500
C 	C 	0.62307 0.37753 0.39044 -0.31000
H 	H 	0.59437 0.40653 0.39933 0.11100
H 	H 	0.62297 0.37763 0.36203 0.10800
C 	C 	0.57667 0.28863 0.40483 0.20200
C 	C 	0.57967 0.28973 0.44976 -0.33400
H 	H 	0.55107 0.23263 0.45953 0.11600
H 	H 	0.55067 0.31753 0.45973 0.11700
C 	C 	0.48857 0.24413 0.39079 -0.04700
C 	C 	0.32677 0.16383 0.36498 -0.05900
O 	O 	0.18417 0.15873 0.36393 -0.41000
O 	O 	0.18247 0.02493 0.36393 -0.42800
O 	O 	0.22297 0.11223 0.30193 -0.42700
H 	H 	0.24427 0.08533 0.29363 0.22500
O 	O 	0.70985 0.42050 0.65089 -0.40400
P 	P 	0.22295 0.11123 0.34633 0.43300
Cu	Cu	0.07263 0.14527 0.36630 0.85300
C 	C 	0.10573 0.49487 0.73417 0.00800
H 	H 	0.12553 0.46727 0.74977 0.00900
C 	C 	0.02473 0.45457 0.71977 -0.07900
H 	H 	0.99023 0.39757 0.72457 0.05200
C 	C 	0.04673 0.57187 0.68367 -0.08300
H 	H 	0.03203 0.59417 0.66277 0.05100
C 	C 	0.12293 0.61377 0.70017 0.03500
H 	H 	0.15563 0.67087 0.69507 0.00700
C 	C 	0.29943 0.70237 0.86037 0.16600
H 	H 	0.27503 0.72807 0.84637 -0.03800
C 	C 	0.29843 0.70357 0.89837 0.16200
H 	H 	0.27333 0.73017 0.91097 -0.01000
C 	C 	0.12313 0.50967 0.69997 -0.05300
H 	H 	0.15693 0.48707 0.69367 0.03500
C 	C 	0.04573 0.47347 0.68447 0.00900
H 	H 	0.02943 0.43327 0.66487 0.00900
C 	C 	0.02533 0.57107 0.71947 -0.00500
H 	H 	0.99103 0.59377 0.72427 0.02700
C 	C 	0.10673 0.61237 0.73387 -0.07500
H 	H 	0.12723 0.66047 0.74917 0.03600
C 	C 	0.37173 0.62787 0.90177 -0.22700
H 	H 	0.39573 0.60237 0.91617 0.11200
C 	C 	0.37403 0.62757 0.86107 -0.18900
H 	H 	0.40023 0.60347 0.84727 0.07500
C 	C 	0.28973 0.71087 0.72378 -0.31000
H 	H 	0.26103 0.73987 0.73267 0.11100
H 	H 	0.28963 0.71097 0.69537 0.10800
C 	C 	0.24333 0.62197 0.73817 0.20600
C 	C 	0.24633 0.62307 0.78310 -0.33600
H 	H 	0.21773 0.56597 0.79287 0.11700
H 	H 	0.21733 0.65087 0.79307 0.11700
C 	C 	0.15523 0.57747 0.72413 -0.06000
C 	C 	0.99343 0.49717 0.69832 -0.02800
O 	O 	0.85083 0.49207 0.69727 -0.40700
O 	O 	0.84913 0.35827 0.69727 -0.42300
O 	O 	0.88963 0.44557 0.63527 -0.42500
H 	H 	0.91093 0.41867 0.62697 0.22700
O 	O 	0.37651 0.75384 0.98423 -0.40400
P 	P 	0.88961 0.44457 0.67967 0.42900
Cu	Cu	0.73929 0.47861 0.69964 0.85600
C 	C 	0.17180 0.94420 0.06750 -0.11400
H 	H 	0.19940 0.99160 0.08310 0.05500
C 	C 	0.21210 0.90350 0.05310 0.04200
H 	H 	0.26910 0.92600 0.05790 0.00900
C 	C 	0.09480 0.80820 0.01700 0.02800
H 	H 	0.07250 0.77120 0.99610 0.01500
C 	C 	0.05290 0.84250 0.03350 -0.08600
H 	H 	0.99580 0.81810 0.02840 0.05000
C 	C 	0.96430 0.93040 0.19370 0.17700
H 	H 	0.93860 0.88030 0.17970 -0.03900
C 	C 	0.96310 0.92820 0.23170 0.20500
H 	H 	0.93650 0.87650 0.24430 -0.02200
C 	C 	0.15700 0.94680 0.03330 0.06200
H 	H 	0.17960 0.00320 0.02700 -0.00600
C 	C 	0.19320 0.90560 0.01780 -0.09900
H 	H 	0.23340 0.92950 0.99820 0.05000
C 	C 	0.09560 0.78760 0.05280 -0.05600
H 	H 	0.07290 0.73060 0.05760 0.03700
C 	C 	0.05430 0.82770 0.06720 0.00900
H 	H 	0.00620 0.80010 0.08250 0.00500
C 	C 	0.03880 0.07720 0.23510 -0.24100
H 	H 	0.06430 0.12670 0.24950 0.11600
C 	C 	0.03910 0.07980 0.19440 -0.22000
H 	H 	0.06320 0.13010 0.18060 0.08500
C 	C 	0.95580 0.91220 0.05711 -0.30000
H 	H 	0.92680 0.85450 0.06600 0.10800
H 	H 	0.95570 0.91200 0.02870 0.10700
C 	C 	0.04470 0.95470 0.07150 0.19600
C 	C 	0.04360 0.95660 0.11643 -0.32000
H 	H 	0.10070 0.98510 0.12620 0.11500
H 	H 	0.01580 0.89980 0.12640 0.11200
C 	C 	0.08920 0.91110 0.05746 -0.04400
C 	C 	0.16950 0.82960 0.03165 -0.05900
O 	O 	0.17460 0.69210 0.03060 -0.41000
O 	O 	0.30840 0.82420 0.03060 -0.42300
O 	O 	0.22110 0.77740 0.96860 -0.42600
H 	H 	0.24800 0.82560 0.96030 0.22700
O 	O 	0.91283 0.95601 0.31756 -0.39400
P 	P 	0.22210 0.77838 0.01300 0.43300
Cu	Cu	0.18806 0.59402 0.03297 0.85500
C 	C 	0.83847 0.27753 0.40083 -0.01500
H 	H 	0.86607 0.32493 0.41643 0.01800
C 	C 	0.87877 0.23683 0.38643 -0.04200
H 	H 	0.93577 0.25933 0.39123 0.03600
C 	C 	0.76147 0.14153 0.35033 -0.07000
H 	H 	0.73917 0.10453 0.32943 0.04900
C 	C 	0.71957 0.17583 0.36683 0.02400
H 	H 	0.66247 0.15143 0.36173 0.01100
C 	C 	0.63097 0.26373 0.52703 0.16400
H 	H 	0.60527 0.21363 0.51303 -0.03800
C 	C 	0.62977 0.26153 0.56503 0.16400
H 	H 	0.60317 0.20983 0.57763 -0.01100
C 	C 	0.82367 0.28013 0.36663 -0.04800
H 	H 	0.84627 0.33653 0.36033 0.03400
C 	C 	0.85987 0.23893 0.35113 0.00600
H 	H 	0.90007 0.26283 0.33153 0.01300
C 	C 	0.76227 0.12093 0.38613 0.01900
H 	H 	0.73957 0.06393 0.39093 0.01300
C 	C 	0.72097 0.16103 0.40053 -0.08400
H 	H 	0.67287 0.13343 0.41583 0.03900
C 	C 	0.70547 0.41053 0.56843 -0.22500
H 	H 	0.73097 0.46003 0.58283 0.11200
C 	C 	0.70577 0.41313 0.52773 -0.19000
H 	H 	0.72987 0.46343 0.51393 0.07600
C 	C 	0.62247 0.24553 0.39044 -0.31000
H 	H 	0.59347 0.18783 0.39933 0.11000
H 	H 	0.62237 0.24533 0.36203 0.10800
C 	C 	0.71137 0.28803 0.40483 0.20200
C 	C 	0.71027 0.28993 0.44976 -0.33400
H 	H 	0.76737 0.31843 0.45953 0.11700
H 	H 	0.68247 0.23313 0.45973 0.11700
C 	C 	0.75587 0.24443 0.39079 -0.04700
C 	C 	0.83617 0.16293 0.36498 -0.05900
O 	O 	0.84127 0.02543 0.36393 -0.41100
O 	O 	0.97507 0.15753 0.36393 -0.42100
O 	O 	0.88777 0.11073 0.30193 -0.42700
H 	H 	0.91467 0.15893 0.29363 0.22800
O 	O 	0.57950 0.28934 0.65089 -0.40400
P 	P 	0.88877 0.11171 0.34633 0.43400
Cu	Cu	0.85473 0.92735 0.36630 0.85800
C 	C 	0.50513 0.61087 0.73417 -0.01500
H 	H 	0.53273 0.65827 0.74977 0.01800
C 	C 	0.54543 0.57017 0.71977 -0.04200
H 	H 	0.60243 0.59267 0.72457 0.03500
C 	C 	0.42813 0.47487 0.68367 -0.07000
H 	H 	0.40583 0.43787 0.66277 0.04900
C 	C 	0.38623 0.50917 0.70017 0.02400
H 	H 	0.32913 0.48477 0.69507 0.01100
C 	C 	0.29763 0.59707 0.86037 0.16500
H 	H 	0.27193 0.54697 0.84637 -0.03800
C 	C 	0.29643 0.59487 0.89837 0.16300
H 	H 	0.26983 0.54317 0.91097 -0.01100
C 	C 	0.49033 0.61347 0.69997 -0.04900
H 	H 	0.51293 0.66987 0.69367 0.03400
C 	C 	0.52653 0.57227 0.68447 0.00600
H 	H 	0.56673 0.59617 0.66487 0.01200
C 	C 	0.42893 0.45427 0.71947 0.02000
H 	H 	0.40623 0.39727 0.72427 0.01400
C 	C 	0.38763 0.49437 0.73387 -0.08500
H 	H 	0.33953 0.46677 0.74917 0.04000
C 	C 	0.37213 0.74387 0.90177 -0.22600
H 	H 	0.39763 0.79337 0.91617 0.11200
C 	C 	0.37243 0.74647 0.86107 -0.18900
H 	H 	0.39653 0.79677 0.84727 0.07600
C 	C 	0.28913 0.57887 0.72378 -0.31200
H 	H 	0.26013 0.52117 0.73267 0.11100
H 	H 	0.28903 0.57867 0.69537 0.10900
C 	C 	0.37803 0.62137 0.73817 0.20200
C 	C 	0.37693 0.62327 0.78310 -0.33400
H 	H 	0.43403 0.65177 0.79287 0.11700
H 	H 	0.34913 0.56647 0.79307 0.11700
C 	C 	0.42253 0.57777 0.72413 -0.04700
C 	C 	0.50283 0.49627 0.69832 -0.05900
O 	O 	0.50793 0.35877 0.69727 -0.40900
O 	O 	0.64173 0.49087 0.69727 -0.42400
O 	O 	0.55443 0.44407 0.63527 -0.42600
H 	H 	0.58133 0.49227 0.62697 0.22700
O 	O 	0.24616 0.62268 0.98423 -0.40400
P 	P 	0.55543 0.44505 0.67967 0.43400
Cu	Cu	0.52139 0.26069 0.69964 0.85600
C 	C 	0.05580 0.22760 0.06750 0.04300
H 	H 	0.00840 0.20780 0.08310 -0.00600
C 	C 	0.09650 0.30860 0.05310 -0.09200
H 	H 	0.07400 0.34310 0.05790 0.04900
C 	C 	0.19180 0.28660 0.01700 -0.11900
H 	H 	0.22880 0.30130 0.99610 0.06700
C 	C 	0.15750 0.21040 0.03350 0.07500
H 	H 	0.18190 0.17770 0.02840 -0.00500
C 	C 	0.06960 0.03390 0.19370 0.20100
H 	H 	0.11970 0.05830 0.17970 -0.05000
C 	C 	0.07180 0.03490 0.23170 0.16500
H 	H 	0.12350 0.06000 0.24430 -0.01200
C 	C 	0.05320 0.21020 0.03330 -0.12400
H 	H 	0.99680 0.17640 0.02700 0.06300
C 	C 	0.09440 0.28760 0.01780 0.07300
H 	H 	0.07050 0.30390 0.99820 -0.01200
C 	C 	0.21240 0.30800 0.05280 0.06100
H 	H 	0.26940 0.34230 0.05760 0.00000
C 	C 	0.17230 0.22660 0.06720 -0.13600
H 	H 	0.19990 0.20610 0.08250 0.05700
C 	C 	0.92280 0.96160 0.23510 -0.26200
H 	H 	0.87330 0.93760 0.24950 0.12600
C 	C 	0.92020 0.95930 0.19440 -0.18700
H 	H 	0.86990 0.93310 0.18060 0.07700
C 	C 	0.08780 0.04360 0.05711 -0.31000
H 	H 	0.14550 0.07230 0.06600 0.11000
H 	H 	0.08800 0.04370 0.02870 0.10700
C 	C 	0.04530 0.09000 0.07150 0.19000
C 	C 	0.04340 0.08700 0.11643 -0.32500
H 	H 	0.01490 0.11560 0.12620 0.11200
H 	H 	0.10020 0.11600 0.12640 0.11400
C 	C 	0.08890 0.17810 0.05746 -0.04000
C 	C 	0.17040 0.33990 0.03165 -0.06300
O 	O 	0.30790 0.48250 0.03060 -0.40900
O 	O 	0.17580 0.48420 0.03060 -0.42500
O 	O 	0.22260 0.44370 0.96860 -0.42700
H 	H 	0.17440 0.42240 0.96030 0.22600
O 	O 	0.04399 0.95682 0.31756 -0.39900
P 	P 	0.22162 0.44372 0.01300 0.43400
Cu	Cu	0.40598 0.59404 0.03297 0.85600
C 	C 	0.72247 0.56093 0.40083 -0.01400
H 	H 	0.67507 0.54113 0.41643 0.01700
C 	C 	0.76317 0.64193 0.38643 -0.04300
H 	H 	0.74067 0.67643 0.39123 0.03600
C 	C 	0.85847 0.61993 0.35033 -0.07100
H 	H 	0.89547 0.63463 0.32943 0.05100
C 	C 	0.82417 0.54373 0.36683 0.02500
H 	H 	0.84857 0.51103 0.36173 0.01000
C 	C 	0.73627 0.36723 0.52703 0.16700
H 	H 	0.78637 0.39163 0.51303 -0.03800
C 	C 	0.73847 0.36823 0.56503 0.16200
H 	H 	0.79017 0.39333 0.57763 -0.01000
C 	C 	0.71987 0.54353 0.36663 -0.04900
H 	H 	0.66347 0.50973 0.36033 0.03400
C 	C 	0.76107 0.62093 0.35113 0.00600
H 	H 	0.73717 0.63723 0.33153 0.01200
C 	C 	0.87907 0.64133 0.38613 0.02000
H 	H 	0.93607 0.67563 0.39093 0.01600
C 	C 	0.83897 0.55993 0.40053 -0.08500
H 	H 	0.86657 0.53943 0.41583 0.04100
C 	C 	0.58947 0.29493 0.56843 -0.22800
H 	H 	0.53997 0.27093 0.58283 0.11200
C 	C 	0.58687 0.29263 0.52773 -0.18800
H 	H 	0.53657 0.26643 0.51393 0.07500
C 	C 	0.75447 0.37693 0.39044 -0.31100
H 	H 	0.81217 0.40563 0.39933 0.11100
H 	H 	0.75467 0.37703 0.36203 0.10900
C 	C 	0.71197 0.42333 0.40483 0.20200
C 	C 	0.71007 0.42033 0.44976 -0.33500
H 	H 	0.68157 0.44893 0.45953 0.11700
H 	H 	0.76687 0.44933 0.45973 0.11800
C 	C 	0.75557 0.51143 0.39079 -0.04700
C 	C 	0.83707 0.67323 0.36498 -0.05800
O 	O 	0.97457 0.81583 0.36393 -0.40500
O 	O 	0.84247 0.81753 0.36393 -0.42300
O 	O 	0.88927 0.77703 0.30193 -0.42400
H 	H 	0.84107 0.75573 0.29363 0.22600
O 	O 	0.71066 0.29015 0.65089 -0.40400
P 	P 	0.88829 0.77705 0.34633 0.43300
Cu	Cu	0.07265 0.92737 0.36630 0.85600
C 	C 	0.38913 0.89427 0.73417 -0.04000
H 	H 	0.34173 0.87447 0.74977 0.02700
C 	C 	0.42983 0.97527 0.71977 -0.00300
H 	H 	0.40733 0.00977 0.72457 0.01700
C 	C 	0.52513 0.95327 0.68367 -0.05800
H 	H 	0.56213 0.96797 0.66277 0.04800
C 	C 	0.49083 0.87707 0.70017 0.01300
H 	H 	0.51523 0.84437 0.69507 0.01500
C 	C 	0.40293 0.70057 0.86037 0.16600
H 	H 	0.45303 0.72497 0.84637 -0.03800
C 	C 	0.40513 0.70157 0.89837 0.16200
H 	H 	0.45683 0.72667 0.91097 -0.01000
C 	C 	0.38653 0.87687 0.69997 -0.04600
H 	H 	0.33013 0.84307 0.69367 0.03300
C 	C 	0.42773 0.95427 0.68447 0.00400
H 	H 	0.40383 0.97057 0.66487 0.01600
C 	C 	0.54573 0.97467 0.71947 0.04700
H 	H 	0.60273 0.00897 0.72427 0.00100
C 	C 	0.50563 0.89327 0.73387 -0.09600
H 	H 	0.53323 0.87277 0.74917 0.04400
C 	C 	0.25613 0.62827 0.90177 -0.22700
H 	H 	0.20663 0.60427 0.91617 0.11100
C 	C 	0.25353 0.62597 0.86107 -0.18800
H 	H 	0.20323 0.59977 0.84727 0.07500
C 	C 	0.42113 0.71027 0.72378 -0.30800
H 	H 	0.47883 0.73897 0.73267 0.11000
H 	H 	0.42133 0.71037 0.69537 0.10800
C 	C 	0.37863 0.75667 0.73817 0.19700
C 	C 	0.37673 0.75367 0.78310 -0.33300
H 	H 	0.34823 0.78227 0.79287 0.11600
H 	H 	0.43353 0.78267 0.79307 0.11700
C 	C 	0.42223 0.84477 0.72413 -0.03200
C 	C 	0.50373 0.00657 0.69832 -0.09200
O 	O 	0.64123 0.14917 0.69727 -0.41000
O 	O 	0.50913 0.15087 0.69727 -0.42500
O 	O 	0.55593 0.11037 0.63527 -0.42800
H 	H 	0.50773 0.08907 0.62697 0.22500
O 	O 	0.37732 0.62349 0.98423 -0.40400
P 	P 	0.55495 0.11039 0.67967 0.43800
Cu	Cu	0.73931 0.26071 0.69964 0.85600
C 	C 	-0.00000 0.00000 0.13070 0.24100
C 	C 	-0.00000 0.00000 0.17480 -0.15600
C 	C 	-0.00000 0.00000 0.25410 -0.03600
P 	P 	-0.00000 0.00000 0.30598 0.45200
C 	C 	0.66667 0.33333 0.46403 0.25800
C 	C 	0.66667 0.33333 0.50813 -0.13500
C 	C 	0.66667 0.33333 0.58743 -0.02000
P 	P 	0.66667 0.33333 0.63931 0.46600
C 	C 	0.33333 0.66667 0.79737 0.25800
C 	C 	0.33333 0.66667 0.84147 -0.13500
C 	C 	0.33333 0.66667 0.92077 -0.02000
P 	P 	0.33333 0.66667 0.97265 0.46600
