data_crystal

_cell_length_a 13.91600
_cell_length_b 26.63800
_cell_length_c 7.63100
_cell_angle_alpha 90.00000
_cell_angle_beta  90.00000
_cell_angle_gamma 90.00000

_symmetry_space_group_name_	'P 1'
_symmetry_space_group_name_H-M	'P 1'

loop_
_symmetry_equiv_pos_as_xyz
  x,y,z

loop_
_atom_site_label
_atom_site_type_symbol
_atom_site_fract_x
_atom_site_fract_y
_atom_site_fract_z
_atom_site_charge
Cd	Cd	0.21820 0.11477 0.13364 1.16700
N 	N 	0.24740 0.17220 0.91340 -0.16800
N 	N 	0.23440 0.17030 0.35270 -0.20700
N 	N 	0.17230 0.04890 0.33910 -0.16500
N 	N 	0.37380 0.08290 0.12770 -0.18400
N 	N 	0.17900 0.05770 0.90430 -0.19700
N 	N 	0.05310 0.12780 0.08150 -0.27800
C 	C 	0.24630 0.20120 0.80400 -0.24500
C 	C 	0.23860 0.20060 0.45850 -0.26300
C 	C 	0.10740 0.02990 0.40170 -0.29300
C 	C 	0.42370 0.05200 0.07990 -0.28300
C 	C 	0.07660 0.05900 0.88140 -0.07600
C 	C 	0.02170 0.09500 0.94460 -0.00300
C 	C 	0.91390 0.09720 0.89660 0.00500
Cd	Cd	0.28180 0.88523 0.63364 1.18600
N 	N 	0.25260 0.82780 0.41340 -0.18500
N 	N 	0.26560 0.82970 0.85270 -0.20000
N 	N 	0.32770 0.95110 0.83910 -0.15600
N 	N 	0.12620 0.91710 0.62770 -0.17900
N 	N 	0.32100 0.94230 0.40430 -0.20100
N 	N 	0.44690 0.87220 0.58150 -0.22500
C 	C 	0.25370 0.79880 0.30400 -0.27400
C 	C 	0.26140 0.79940 0.95850 -0.21700
C 	C 	0.39260 0.97010 0.90170 -0.16900
C 	C 	0.07630 0.94800 0.57990 -0.23500
C 	C 	0.42340 0.94100 0.38140 -0.05000
C 	C 	0.47830 0.90500 0.44460 0.01600
C 	C 	0.58610 0.90280 0.39660 -0.06900
Cd	Cd	0.78180 0.61477 0.86636 1.19900
N 	N 	0.75260 0.67220 0.08660 -0.20000
N 	N 	0.76560 0.67030 0.64730 -0.18900
N 	N 	0.82770 0.54890 0.66090 -0.15800
N 	N 	0.62620 0.58290 0.87230 -0.17400
N 	N 	0.82100 0.55770 0.09570 -0.21900
N 	N 	0.94690 0.62780 0.91850 -0.18200
C 	C 	0.75370 0.70120 0.19600 -0.25200
C 	C 	0.76140 0.70060 0.54150 -0.24200
C 	C 	0.89260 0.52990 0.59830 -0.19500
C 	C 	0.57630 0.55200 0.92010 -0.19800
C 	C 	0.92340 0.55900 0.11860 -0.05600
C 	C 	0.97830 0.59500 0.05540 0.05400
C 	C 	0.08610 0.59720 0.10340 -0.16500
Cd	Cd	0.71820 0.38523 0.36636 1.18400
N 	N 	0.74740 0.32780 0.58660 -0.18300
N 	N 	0.73440 0.32970 0.14730 -0.19500
N 	N 	0.67230 0.45110 0.16090 -0.16000
N 	N 	0.87380 0.41710 0.37230 -0.18200
N 	N 	0.67900 0.44230 0.59570 -0.20100
N 	N 	0.55310 0.37220 0.41850 -0.22900
C 	C 	0.74630 0.29880 0.69600 -0.22400
C 	C 	0.73860 0.29940 0.04150 -0.28400
C 	C 	0.60740 0.47010 0.09830 -0.26600
C 	C 	0.92370 0.44800 0.42010 -0.19200
C 	C 	0.57660 0.44100 0.61860 -0.04800
C 	C 	0.52170 0.40500 0.55540 0.02000
C 	C 	0.41390 0.40280 0.60340 -0.06300
Cd	Cd	0.78180 0.88523 0.86636 1.20000
N 	N 	0.75260 0.82780 0.08660 -0.20000
N 	N 	0.76560 0.82970 0.64730 -0.18800
N 	N 	0.82770 0.95110 0.66090 -0.15700
N 	N 	0.62620 0.91710 0.87230 -0.17700
N 	N 	0.82100 0.94230 0.09570 -0.21100
N 	N 	0.94690 0.87220 0.91850 -0.18100
C 	C 	0.75370 0.79880 0.19600 -0.25200
C 	C 	0.76140 0.79940 0.54150 -0.24100
C 	C 	0.89260 0.97010 0.59830 -0.16200
C 	C 	0.57630 0.94800 0.92010 -0.16800
C 	C 	0.92340 0.94100 0.11860 -0.03800
C 	C 	0.97830 0.90500 0.05540 0.05000
C 	C 	0.08610 0.90280 0.10340 -0.15300
Cd	Cd	0.71820 0.11477 0.36636 1.18300
N 	N 	0.74740 0.17220 0.58660 -0.18400
N 	N 	0.73440 0.17030 0.14730 -0.19500
N 	N 	0.67230 0.04890 0.16090 -0.16300
N 	N 	0.87380 0.08290 0.37230 -0.18200
N 	N 	0.67900 0.05770 0.59570 -0.20800
N 	N 	0.55310 0.12780 0.41850 -0.23000
C 	C 	0.74630 0.20120 0.69600 -0.22500
C 	C 	0.73860 0.20060 0.04150 -0.28400
C 	C 	0.60740 0.02990 0.09830 -0.28700
C 	C 	0.92370 0.05200 0.42010 -0.20900
C 	C 	0.57660 0.05900 0.61860 -0.06400
C 	C 	0.52170 0.09500 0.55540 0.02400
C 	C 	0.41390 0.09720 0.60340 -0.07300
Cd	Cd	0.21820 0.38523 0.13364 1.16900
N 	N 	0.24740 0.32780 0.91340 -0.16800
N 	N 	0.23440 0.32970 0.35270 -0.20600
N 	N 	0.17230 0.45110 0.33910 -0.16100
N 	N 	0.37380 0.41710 0.12770 -0.18400
N 	N 	0.17900 0.44230 0.90430 -0.18900
N 	N 	0.05310 0.37220 0.08150 -0.27700
C 	C 	0.24630 0.29880 0.80400 -0.24500
C 	C 	0.23860 0.29940 0.45850 -0.26300
C 	C 	0.10740 0.47010 0.40170 -0.27100
C 	C 	0.42370 0.44800 0.07990 -0.26600
C 	C 	0.07660 0.44100 0.88140 -0.06000
C 	C 	0.02170 0.40500 0.94460 -0.00600
C 	C 	0.91390 0.40280 0.89660 0.01500
Cd	Cd	0.28180 0.61477 0.63364 1.18500
N 	N 	0.25260 0.67220 0.41340 -0.18600
N 	N 	0.26560 0.67030 0.85270 -0.20000
N 	N 	0.32770 0.54890 0.83910 -0.15700
N 	N 	0.12620 0.58290 0.62770 -0.17600
N 	N 	0.32100 0.55770 0.40430 -0.20900
N 	N 	0.44690 0.62780 0.58150 -0.22600
C 	C 	0.25370 0.70120 0.30400 -0.27400
C 	C 	0.26140 0.70060 0.95850 -0.21700
C 	C 	0.39260 0.52990 0.90170 -0.20300
C 	C 	0.07630 0.55200 0.57990 -0.26600
C 	C 	0.42340 0.55900 0.38140 -0.06900
C 	C 	0.47830 0.59500 0.44460 0.02000
C 	C 	0.58610 0.59720 0.39660 -0.08000
Ni	Ni	0.24367 0.25000 0.62910 1.05000
Ni	Ni	0.25633 0.75000 0.12910 1.02300
Ni	Ni	0.75633 0.75000 0.37090 1.05200
Ni	Ni	0.74367 0.25000 0.87090 1.07600
Ni	Ni	0.00000 0.00000 0.50000 1.00800
Ni	Ni	0.50000 0.00000 -0.00000 1.01600
Ni	Ni	0.00000 0.50000 0.50000 1.03000
Ni	Ni	0.50000 0.50000 -0.00000 1.03800
