data_crystal

_cell_length_a 8.97780
_cell_length_b 9.87300
_cell_length_c 17.25300
_cell_angle_alpha 90.00000
_cell_angle_beta  90.00000
_cell_angle_gamma 92.61800

_symmetry_space_group_name_	'P 1'
_symmetry_space_group_name_H-M	'P 1'

loop_
_symmetry_equiv_pos_as_xyz
  x,y,z

loop_
_atom_site_label
_atom_site_type_symbol
_atom_site_fract_x
_atom_site_fract_y
_atom_site_fract_z
_atom_site_charge
Mg	Mg	0.62229 0.39732 0.97990 1.47000
Mg	Mg	0.87771 0.10268 0.47990 1.46100
Mg	Mg	0.37771 0.60268 0.02010 1.46000
Mg	Mg	0.12229 0.89732 0.52010 1.46800
Mg	Mg	-0.00000 0.50000 -0.00000 1.47000
Mg	Mg	0.50000 -0.00000 0.50000 1.47300
H 	H 	0.01650 0.70750 0.78830 0.01100
H 	H 	0.00970 0.83560 0.67460 -0.01300
H 	H 	0.58260 0.70060 0.63910 0.04300
H 	H 	0.58970 0.57240 0.75260 0.04900
H 	H 	0.80800 0.98390 0.90810 0.07200
H 	H 	0.03820 0.19800 0.07320 0.06000
H 	H 	0.48350 0.79250 0.28830 0.05900
H 	H 	0.49030 0.66440 0.17460 0.01100
H 	H 	0.91740 0.79940 0.13910 0.05400
H 	H 	0.91030 0.92760 0.25260 0.08300
H 	H 	0.69200 0.51610 0.40810 0.05200
H 	H 	0.46180 0.30200 0.57320 0.04400
H 	H 	0.98350 0.29250 0.21170 0.09700
H 	H 	0.99030 0.16440 0.32540 0.03100
H 	H 	0.41740 0.29940 0.36090 0.03000
H 	H 	0.41030 0.42760 0.24740 0.05100
H 	H 	0.19200 0.01610 0.09190 0.02100
H 	H 	0.96180 0.80200 0.92680 0.02400
H 	H 	0.51650 0.20750 0.71170 0.04400
H 	H 	0.50970 0.33560 0.82540 0.02000
H 	H 	0.08260 0.20060 0.86090 0.02800
H 	H 	0.08970 0.07240 0.74740 0.01900
H 	H 	0.30800 0.48390 0.59190 0.04500
H 	H 	0.53820 0.69800 0.42680 0.04500
C 	C 	0.80680 0.55305 0.85804 0.42000
C 	C 	0.80350 0.62881 0.78242 -0.09600
C 	C 	0.92786 0.70640 0.75821 0.03100
C 	C 	0.92411 0.78251 0.69039 0.07500
C 	C 	0.79552 0.78090 0.64593 -0.14600
C 	C 	0.67090 0.70230 0.66953 0.02400
C 	C 	0.67490 0.62630 0.73715 -0.02100
C 	C 	0.78328 0.86801 0.57514 0.47200
C 	C 	0.80828 0.22342 0.97772 0.39700
C 	C 	0.90950 0.10854 0.98871 -0.04400
C 	C 	0.88600 0.99041 0.94531 0.02400
C 	C 	0.02290 0.11760 0.04341 -0.15500
C 	C 	0.69320 0.94695 0.35804 0.40500
C 	C 	0.69650 0.87119 0.28242 -0.06100
C 	C 	0.57214 0.79360 0.25821 -0.03700
C 	C 	0.57589 0.71749 0.19039 0.02900
C 	C 	0.70448 0.71910 0.14593 -0.15500
C 	C 	0.82910 0.79770 0.16953 0.03600
C 	C 	0.82510 0.87370 0.23715 -0.03700
C 	C 	0.71672 0.63199 0.07514 0.47300
C 	C 	0.69172 0.27658 0.47772 0.34100
C 	C 	0.59050 0.39146 0.48871 -0.08000
C 	C 	0.61400 0.50959 0.44531 -0.01900
C 	C 	0.47710 0.38240 0.54341 -0.01900
C 	C 	0.19320 0.44695 0.14196 0.40500
C 	C 	0.19650 0.37119 0.21758 -0.06800
C 	C 	0.07214 0.29360 0.24179 -0.10000
C 	C 	0.07589 0.21749 0.30961 -0.01900
C 	C 	0.20448 0.21910 0.35407 -0.15900
C 	C 	0.32910 0.29770 0.33047 0.02300
C 	C 	0.32510 0.37370 0.26285 -0.04900
C 	C 	0.21672 0.13199 0.42486 0.46800
C 	C 	0.19172 0.77658 0.02228 0.27800
C 	C 	0.09050 0.89146 0.01129 -0.14800
C 	C 	0.11400 0.00959 0.05469 -0.04200
C 	C 	0.97710 0.88240 0.95659 0.13300
C 	C 	0.30680 0.05305 0.64196 0.42300
C 	C 	0.30350 0.12881 0.71758 -0.10800
C 	C 	0.42786 0.20640 0.74179 -0.02000
C 	C 	0.42411 0.28251 0.80961 0.00400
C 	C 	0.29552 0.28090 0.85407 -0.13900
C 	C 	0.17090 0.20230 0.83047 0.00400
C 	C 	0.17490 0.12630 0.76285 -0.02500
C 	C 	0.28328 0.36801 0.92486 0.46200
C 	C 	0.30828 0.72342 0.52228 0.33900
C 	C 	0.40950 0.60854 0.51129 -0.08100
C 	C 	0.38600 0.49041 0.55469 -0.01800
C 	C 	0.52290 0.61760 0.45659 -0.01700
O 	O 	0.68219 0.50744 0.88436 -0.50300
O 	O 	0.93006 0.54260 0.88999 -0.45400
O 	O 	0.90165 0.92851 0.54779 -0.64500
O 	O 	0.65733 0.88185 0.54755 -0.49700
O 	O 	0.68745 0.20538 0.94180 -0.47700
O 	O 	0.84206 0.33853 0.00840 -0.66300
O 	O 	0.81781 0.99256 0.38436 -0.46800
O 	O 	0.56994 0.95740 0.38999 -0.45300
O 	O 	0.59835 0.57149 0.04779 -0.72800
O 	O 	0.84267 0.61815 0.04755 -0.53300
O 	O 	0.81255 0.29462 0.44180 -0.46000
O 	O 	0.65794 0.16147 0.50840 -0.63700
O 	O 	0.31781 0.49256 0.11564 -0.53700
O 	O 	0.06994 0.45740 0.11001 -0.52200
O 	O 	0.09835 0.07149 0.45221 -0.75700
O 	O 	0.34267 0.11815 0.45245 -0.55000
O 	O 	0.31255 0.79462 0.05820 -0.44200
O 	O 	0.15794 0.66147 0.99160 -0.54500
O 	O 	0.18219 0.00744 0.61564 -0.56600
O 	O 	0.43006 0.04260 0.61001 -0.52000
O 	O 	0.40165 0.42851 0.95221 -0.67500
O 	O 	0.15733 0.38185 0.95245 -0.50700
O 	O 	0.18745 0.70538 0.55820 -0.46100
O 	O 	0.34206 0.83853 0.49160 -0.58500
