data_crystal

_cell_length_a 19.52200
_cell_length_b 19.52200
_cell_length_c 33.79100
_cell_angle_alpha 90.00000
_cell_angle_beta  90.00000
_cell_angle_gamma 90.00000

_symmetry_space_group_name_	'P 1'
_symmetry_space_group_name_H-M	'P 1'

loop_
_symmetry_equiv_pos_as_xyz
  x,y,z

loop_
_atom_site_label
_atom_site_type_symbol
_atom_site_fract_x
_atom_site_fract_y
_atom_site_fract_z
_atom_site_charge
Cd	Cd	0.64422 0.15790 0.74915 1.17500
Cd	Cd	0.35578 0.84210 0.74915 1.17500
Cd	Cd	0.84210 0.64422 0.24915 1.17500
Cd	Cd	0.15790 0.35578 0.24915 1.17500
Cd	Cd	0.35578 0.84210 0.25085 1.17500
Cd	Cd	0.64422 0.15790 0.25085 1.17500
Cd	Cd	0.15790 0.35578 0.75085 1.17500
Cd	Cd	0.84210 0.64422 0.75085 1.17500
Cd	Cd	0.67136 0.37773 -0.00000 1.16700
Cd	Cd	0.32864 0.62227 -0.00000 1.16700
Cd	Cd	0.62227 0.67136 0.50000 1.17300
Cd	Cd	0.37773 0.32864 0.50000 1.17300
Cd	Cd	0.89128 0.17985 0.50000 1.17200
Cd	Cd	0.10872 0.82015 0.50000 1.17200
Cd	Cd	0.82015 0.89128 -0.00000 1.16700
Cd	Cd	0.17985 0.10872 -0.00000 1.16700
H 	H 	0.50600 0.35540 0.96570 0.08900
H 	H 	0.54070 0.09220 0.81710 0.08100
H 	H 	0.59600 0.04790 0.68230 0.07800
H 	H 	0.86130 0.01860 0.53580 0.07900
H 	H 	0.47870 0.15240 0.72660 0.08300
H 	H 	0.47020 0.40130 0.56550 0.07400
H 	H 	0.64090 0.99320 0.77610 0.07800
H 	H 	0.89920 0.97670 0.93240 0.07900
H 	H 	0.71420 0.26650 0.93990 0.18500
H 	H 	0.69140 0.22130 0.90320 0.20600
H 	H 	0.70970 0.29960 0.89720 0.19600
H 	H 	0.40800 0.33340 0.92090 0.21100
H 	H 	0.42760 0.30390 0.87870 0.21000
H 	H 	0.41220 0.25320 0.91430 0.21500
H 	H 	0.60820 0.30380 0.78350 0.17800
H 	H 	0.56730 0.33990 0.81820 0.19800
H 	H 	0.64510 0.31920 0.82430 0.19100
H 	H 	0.54700 0.08040 0.90550 0.18600
H 	H 	0.48810 0.13400 0.91450 0.19500
H 	H 	0.47700 0.07690 0.88180 0.18100
H 	H 	0.80420 0.13230 0.71490 0.16400
H 	H 	0.83920 0.12090 0.67310 0.18900
H 	H 	0.79540 0.18770 0.68110 0.17500
H 	H 	0.56870 0.03430 0.60580 0.18000
H 	H 	0.63460 0.01920 0.57990 0.19200
H 	H 	0.60950 0.96500 0.61160 0.17900
H 	H 	0.80590 0.22570 0.60340 0.18400
H 	H 	0.78060 0.23110 0.55900 0.16900
H 	H 	0.72820 0.21140 0.59290 0.19100
H 	H 	0.75760 0.92400 0.58310 0.19400
H 	H 	0.83870 0.92320 0.58050 0.18700
H 	H 	0.80220 0.94000 0.62120 0.18700
H 	H 	0.66590 0.25010 0.67390 0.16200
H 	H 	0.63770 0.24990 0.62990 0.18000
H 	H 	0.62540 0.31440 0.65740 0.17700
H 	H 	0.35550 0.21770 0.68910 0.18900
H 	H 	0.36670 0.18380 0.64700 0.18000
H 	H 	0.37280 0.13860 0.68580 0.18500
H 	H 	0.45170 0.17430 0.54020 0.16700
H 	H 	0.47760 0.14980 0.58230 0.18200
H 	H 	0.39900 0.16590 0.57550 0.17100
H 	H 	0.50630 0.44540 0.62830 0.17600
H 	H 	0.47830 0.40050 0.66380 0.18400
H 	H 	0.55540 0.39290 0.65000 0.17900
H 	H 	0.73170 0.17900 0.84300 0.17400
H 	H 	0.79530 0.13820 0.86000 0.19000
H 	H 	0.79430 0.16110 0.81510 0.17200
H 	H 	0.69590 0.87120 0.80890 0.19900
H 	H 	0.69270 0.88390 0.85520 0.19500
H 	H 	0.62610 0.89330 0.82900 0.19800
H 	H 	0.65850 0.00970 0.94290 0.18200
H 	H 	0.64770 0.95300 0.90990 0.18100
H 	H 	0.67380 0.93180 0.95260 0.17400
H 	H 	0.93690 0.98330 0.86060 0.18800
H 	H 	0.88150 0.01160 0.83050 0.19400
H 	H 	0.91600 0.06170 0.86150 0.18600
H 	H 	0.49400 0.64460 0.96570 0.08900
H 	H 	0.45930 0.90780 0.81710 0.08100
H 	H 	0.40400 0.95210 0.68230 0.07800
H 	H 	0.13870 0.98140 0.53580 0.07900
H 	H 	0.52130 0.84760 0.72660 0.08300
H 	H 	0.52980 0.59870 0.56550 0.07400
H 	H 	0.35910 0.00680 0.77610 0.07800
H 	H 	0.10080 0.02330 0.93240 0.07900
H 	H 	0.28580 0.73350 0.93990 0.18500
H 	H 	0.30860 0.77870 0.90320 0.20600
H 	H 	0.29030 0.70040 0.89720 0.19600
H 	H 	0.59200 0.66660 0.92090 0.21100
H 	H 	0.57240 0.69610 0.87870 0.21000
H 	H 	0.58780 0.74680 0.91430 0.21500
H 	H 	0.39180 0.69620 0.78350 0.17800
H 	H 	0.43270 0.66010 0.81820 0.19800
H 	H 	0.35490 0.68080 0.82430 0.19100
H 	H 	0.45300 0.91960 0.90550 0.18600
H 	H 	0.51190 0.86600 0.91450 0.19500
H 	H 	0.52300 0.92310 0.88180 0.18100
H 	H 	0.19580 0.86770 0.71490 0.16400
H 	H 	0.16080 0.87910 0.67310 0.18900
H 	H 	0.20460 0.81230 0.68110 0.17500
H 	H 	0.43130 0.96570 0.60580 0.18000
H 	H 	0.36540 0.98080 0.57990 0.19200
H 	H 	0.39050 0.03500 0.61160 0.17900
H 	H 	0.19410 0.77430 0.60340 0.18400
H 	H 	0.21940 0.76890 0.55900 0.16900
H 	H 	0.27180 0.78860 0.59290 0.19100
H 	H 	0.24240 0.07600 0.58310 0.19400
H 	H 	0.16130 0.07680 0.58050 0.18700
H 	H 	0.19780 0.06000 0.62120 0.18700
H 	H 	0.33410 0.74990 0.67390 0.16200
H 	H 	0.36230 0.75010 0.62990 0.18000
H 	H 	0.37460 0.68560 0.65740 0.17700
H 	H 	0.64450 0.78230 0.68910 0.18900
H 	H 	0.63330 0.81620 0.64700 0.18000
H 	H 	0.62720 0.86140 0.68580 0.18500
H 	H 	0.54830 0.82570 0.54020 0.16700
H 	H 	0.52240 0.85020 0.58230 0.18200
H 	H 	0.60100 0.83410 0.57550 0.17100
H 	H 	0.49370 0.55460 0.62830 0.17600
H 	H 	0.52170 0.59950 0.66380 0.18400
H 	H 	0.44460 0.60710 0.65000 0.17900
H 	H 	0.26830 0.82100 0.84300 0.17400
H 	H 	0.20470 0.86180 0.86000 0.19000
H 	H 	0.20570 0.83890 0.81510 0.17200
H 	H 	0.30410 0.12880 0.80890 0.19900
H 	H 	0.30730 0.11610 0.85520 0.19500
H 	H 	0.37390 0.10670 0.82900 0.19800
H 	H 	0.34150 0.99030 0.94290 0.18200
H 	H 	0.35230 0.04700 0.90990 0.18100
H 	H 	0.32620 0.06820 0.95260 0.17400
H 	H 	0.06310 0.01670 0.86060 0.18800
H 	H 	0.11850 0.98840 0.83050 0.19400
H 	H 	0.08400 0.93830 0.86150 0.18600
H 	H 	0.64460 0.50600 0.46570 0.08300
H 	H 	0.90780 0.54070 0.31710 0.08100
H 	H 	0.95210 0.59600 0.18230 0.07800
H 	H 	0.98140 0.86130 0.03580 0.07500
H 	H 	0.84760 0.47870 0.22660 0.08400
H 	H 	0.59870 0.47020 0.06550 0.07200
H 	H 	0.00680 0.64090 0.27610 0.07900
H 	H 	0.02330 0.89920 0.43240 0.07700
H 	H 	0.73350 0.71420 0.43990 0.17700
H 	H 	0.77870 0.69140 0.40320 0.20200
H 	H 	0.70040 0.70970 0.39720 0.19300
H 	H 	0.66660 0.40800 0.42090 0.20500
H 	H 	0.69610 0.42760 0.37870 0.20700
H 	H 	0.74680 0.41220 0.41430 0.20900
H 	H 	0.69620 0.60820 0.28350 0.17800
H 	H 	0.66010 0.56730 0.31820 0.19800
H 	H 	0.68080 0.64510 0.32430 0.19100
H 	H 	0.91960 0.54700 0.40550 0.18300
H 	H 	0.86600 0.48810 0.41450 0.19100
H 	H 	0.92310 0.47700 0.38180 0.17900
H 	H 	0.86770 0.80420 0.21490 0.16400
H 	H 	0.87910 0.83920 0.17310 0.18900
H 	H 	0.81230 0.79540 0.18110 0.17500
H 	H 	0.96570 0.56870 0.10580 0.17800
H 	H 	0.98080 0.63460 0.07990 0.19000
H 	H 	0.03500 0.60950 0.11160 0.17800
H 	H 	0.77430 0.80590 0.10340 0.18300
H 	H 	0.76890 0.78060 0.05900 0.16600
H 	H 	0.78860 0.72820 0.09290 0.18900
H 	H 	0.07600 0.75760 0.08310 0.19300
H 	H 	0.07680 0.83870 0.08050 0.18600
H 	H 	0.06000 0.80220 0.12120 0.18600
H 	H 	0.74990 0.66590 0.17390 0.16100
H 	H 	0.75010 0.63770 0.12990 0.17900
H 	H 	0.68560 0.62540 0.15740 0.17700
H 	H 	0.78230 0.35550 0.18910 0.18900
H 	H 	0.81620 0.36670 0.14700 0.18000
H 	H 	0.86140 0.37280 0.18580 0.18600
H 	H 	0.82570 0.45170 0.04020 0.16100
H 	H 	0.85020 0.47760 0.08230 0.17900
H 	H 	0.83410 0.39900 0.07550 0.16900
H 	H 	0.55460 0.50630 0.12830 0.17500
H 	H 	0.59950 0.47830 0.16380 0.18400
H 	H 	0.60710 0.55540 0.15000 0.17800
H 	H 	0.82100 0.73170 0.34300 0.17400
H 	H 	0.86180 0.79530 0.36000 0.19000
H 	H 	0.83890 0.79430 0.31510 0.17200
H 	H 	0.12880 0.69590 0.30890 0.19900
H 	H 	0.11610 0.69270 0.35520 0.19500
H 	H 	0.10670 0.62610 0.32900 0.19900
H 	H 	0.99030 0.65850 0.44290 0.17500
H 	H 	0.04700 0.64770 0.40990 0.17600
H 	H 	0.06820 0.67380 0.45260 0.16400
H 	H 	0.01670 0.93690 0.36060 0.18700
H 	H 	0.98840 0.88150 0.33050 0.19400
H 	H 	0.93830 0.91600 0.36150 0.18500
H 	H 	0.35540 0.49400 0.46570 0.08300
H 	H 	0.09220 0.45930 0.31710 0.08100
H 	H 	0.04790 0.40400 0.18230 0.07800
H 	H 	0.01860 0.13870 0.03580 0.07500
H 	H 	0.15240 0.52130 0.22660 0.08400
H 	H 	0.40130 0.52980 0.06550 0.07200
H 	H 	0.99320 0.35910 0.27610 0.07900
H 	H 	0.97670 0.10080 0.43240 0.07700
H 	H 	0.26650 0.28580 0.43990 0.17700
H 	H 	0.22130 0.30860 0.40320 0.20200
H 	H 	0.29960 0.29030 0.39720 0.19300
H 	H 	0.33340 0.59200 0.42090 0.20500
H 	H 	0.30390 0.57240 0.37870 0.20700
H 	H 	0.25320 0.58780 0.41430 0.20900
H 	H 	0.30380 0.39180 0.28350 0.17800
H 	H 	0.33990 0.43270 0.31820 0.19800
H 	H 	0.31920 0.35490 0.32430 0.19100
H 	H 	0.08040 0.45300 0.40550 0.18300
H 	H 	0.13400 0.51190 0.41450 0.19100
H 	H 	0.07690 0.52300 0.38180 0.17900
H 	H 	0.13230 0.19580 0.21490 0.16400
H 	H 	0.12090 0.16080 0.17310 0.18900
H 	H 	0.18770 0.20460 0.18110 0.17500
H 	H 	0.03430 0.43130 0.10580 0.17800
H 	H 	0.01920 0.36540 0.07990 0.19000
H 	H 	0.96500 0.39050 0.11160 0.17800
H 	H 	0.22570 0.19410 0.10340 0.18300
H 	H 	0.23110 0.21940 0.05900 0.16600
H 	H 	0.21140 0.27180 0.09290 0.18900
H 	H 	0.92400 0.24240 0.08310 0.19300
H 	H 	0.92320 0.16130 0.08050 0.18600
H 	H 	0.94000 0.19780 0.12120 0.18600
H 	H 	0.25010 0.33410 0.17390 0.16100
H 	H 	0.24990 0.36230 0.12990 0.17900
H 	H 	0.31440 0.37460 0.15740 0.17700
H 	H 	0.21770 0.64450 0.18910 0.18900
H 	H 	0.18380 0.63330 0.14700 0.18000
H 	H 	0.13860 0.62720 0.18580 0.18600
H 	H 	0.17430 0.54830 0.04020 0.16100
H 	H 	0.14980 0.52240 0.08230 0.17900
H 	H 	0.16590 0.60100 0.07550 0.16900
H 	H 	0.44540 0.49370 0.12830 0.17500
H 	H 	0.40050 0.52170 0.16380 0.18400
H 	H 	0.39290 0.44460 0.15000 0.17800
H 	H 	0.17900 0.26830 0.34300 0.17400
H 	H 	0.13820 0.20470 0.36000 0.19000
H 	H 	0.16110 0.20570 0.31510 0.17200
H 	H 	0.87120 0.30410 0.30890 0.19900
H 	H 	0.88390 0.30730 0.35520 0.19500
H 	H 	0.89330 0.37390 0.32900 0.19900
H 	H 	0.00970 0.34150 0.44290 0.17500
H 	H 	0.95300 0.35230 0.40990 0.17600
H 	H 	0.93180 0.32620 0.45260 0.16400
H 	H 	0.98330 0.06310 0.36060 0.18700
H 	H 	0.01160 0.11850 0.33050 0.19400
H 	H 	0.06170 0.08400 0.36150 0.18500
H 	H 	0.49400 0.64460 0.03430 0.07800
H 	H 	0.45930 0.90780 0.18290 0.08100
H 	H 	0.40400 0.95210 0.31770 0.07800
H 	H 	0.13870 0.98140 0.46420 0.07900
H 	H 	0.52130 0.84760 0.27340 0.08400
H 	H 	0.52980 0.59870 0.43450 0.07400
H 	H 	0.35910 0.00680 0.22390 0.07900
H 	H 	0.10080 0.02330 0.06760 0.07500
H 	H 	0.28580 0.73350 0.06010 0.17500
H 	H 	0.30860 0.77870 0.09680 0.20000
H 	H 	0.29030 0.70040 0.10280 0.19200
H 	H 	0.59200 0.66660 0.07910 0.20300
H 	H 	0.57240 0.69610 0.12130 0.20600
H 	H 	0.58780 0.74680 0.08570 0.20800
H 	H 	0.39180 0.69620 0.21650 0.17800
H 	H 	0.43270 0.66010 0.18180 0.19800
H 	H 	0.35490 0.68080 0.17570 0.19100
H 	H 	0.45300 0.91960 0.09450 0.18100
H 	H 	0.51190 0.86600 0.08550 0.18900
H 	H 	0.52300 0.92310 0.11820 0.17800
H 	H 	0.19580 0.86770 0.28510 0.16400
H 	H 	0.16080 0.87910 0.32690 0.18900
H 	H 	0.20460 0.81230 0.31890 0.17500
H 	H 	0.43130 0.96570 0.39420 0.18000
H 	H 	0.36540 0.98080 0.42010 0.19200
H 	H 	0.39050 0.03500 0.38840 0.17900
H 	H 	0.19410 0.77430 0.39660 0.18400
H 	H 	0.21940 0.76890 0.44100 0.16900
H 	H 	0.27180 0.78860 0.40710 0.19100
H 	H 	0.24240 0.07600 0.41690 0.19400
H 	H 	0.16130 0.07680 0.41950 0.18700
H 	H 	0.19780 0.06000 0.37880 0.18700
H 	H 	0.33410 0.74990 0.32610 0.16200
H 	H 	0.36230 0.75010 0.37010 0.18000
H 	H 	0.37460 0.68560 0.34260 0.17700
H 	H 	0.64450 0.78230 0.31090 0.18900
H 	H 	0.63330 0.81620 0.35300 0.18000
H 	H 	0.62720 0.86140 0.31420 0.18500
H 	H 	0.54830 0.82570 0.45980 0.16700
H 	H 	0.52240 0.85020 0.41770 0.18200
H 	H 	0.60100 0.83410 0.42450 0.17100
H 	H 	0.49370 0.55460 0.37170 0.17600
H 	H 	0.52170 0.59950 0.33620 0.18400
H 	H 	0.44460 0.60710 0.35000 0.17900
H 	H 	0.26830 0.82100 0.15700 0.17400
H 	H 	0.20470 0.86180 0.14000 0.18900
H 	H 	0.20570 0.83890 0.18490 0.17200
H 	H 	0.30410 0.12880 0.19110 0.19900
H 	H 	0.30730 0.11610 0.14480 0.19500
H 	H 	0.37390 0.10670 0.17100 0.19900
H 	H 	0.34150 0.99030 0.05710 0.17100
H 	H 	0.35230 0.04700 0.09010 0.17400
H 	H 	0.32620 0.06820 0.04740 0.16100
H 	H 	0.06310 0.01670 0.13940 0.18700
H 	H 	0.11850 0.98840 0.16950 0.19400
H 	H 	0.08400 0.93830 0.13850 0.18500
H 	H 	0.50600 0.35540 0.03430 0.07800
H 	H 	0.54070 0.09220 0.18290 0.08100
H 	H 	0.59600 0.04790 0.31770 0.07800
H 	H 	0.86130 0.01860 0.46420 0.07900
H 	H 	0.47870 0.15240 0.27340 0.08400
H 	H 	0.47020 0.40130 0.43450 0.07400
H 	H 	0.64090 0.99320 0.22390 0.07900
H 	H 	0.89920 0.97670 0.06760 0.07500
H 	H 	0.71420 0.26650 0.06010 0.17500
H 	H 	0.69140 0.22130 0.09680 0.20000
H 	H 	0.70970 0.29960 0.10280 0.19200
H 	H 	0.40800 0.33340 0.07910 0.20300
H 	H 	0.42760 0.30390 0.12130 0.20600
H 	H 	0.41220 0.25320 0.08570 0.20800
H 	H 	0.60820 0.30380 0.21650 0.17800
H 	H 	0.56730 0.33990 0.18180 0.19800
H 	H 	0.64510 0.31920 0.17570 0.19100
H 	H 	0.54700 0.08040 0.09450 0.18100
H 	H 	0.48810 0.13400 0.08550 0.18900
H 	H 	0.47700 0.07690 0.11820 0.17800
H 	H 	0.80420 0.13230 0.28510 0.16400
H 	H 	0.83920 0.12090 0.32690 0.18900
H 	H 	0.79540 0.18770 0.31890 0.17500
H 	H 	0.56870 0.03430 0.39420 0.18000
H 	H 	0.63460 0.01920 0.42010 0.19200
H 	H 	0.60950 0.96500 0.38840 0.17900
H 	H 	0.80590 0.22570 0.39660 0.18400
H 	H 	0.78060 0.23110 0.44100 0.16900
H 	H 	0.72820 0.21140 0.40710 0.19100
H 	H 	0.75760 0.92400 0.41690 0.19400
H 	H 	0.83870 0.92320 0.41950 0.18700
H 	H 	0.80220 0.94000 0.37880 0.18700
H 	H 	0.66590 0.25010 0.32610 0.16200
H 	H 	0.63770 0.24990 0.37010 0.18000
H 	H 	0.62540 0.31440 0.34260 0.17700
H 	H 	0.35550 0.21770 0.31090 0.18900
H 	H 	0.36670 0.18380 0.35300 0.18000
H 	H 	0.37280 0.13860 0.31420 0.18500
H 	H 	0.45170 0.17430 0.45980 0.16700
H 	H 	0.47760 0.14980 0.41770 0.18200
H 	H 	0.39900 0.16590 0.42450 0.17100
H 	H 	0.50630 0.44540 0.37170 0.17600
H 	H 	0.47830 0.40050 0.33620 0.18400
H 	H 	0.55540 0.39290 0.35000 0.17900
H 	H 	0.73170 0.17900 0.15700 0.17400
H 	H 	0.79530 0.13820 0.14000 0.18900
H 	H 	0.79430 0.16110 0.18490 0.17200
H 	H 	0.69590 0.87120 0.19110 0.19900
H 	H 	0.69270 0.88390 0.14480 0.19500
H 	H 	0.62610 0.89330 0.17100 0.19900
H 	H 	0.65850 0.00970 0.05710 0.17100
H 	H 	0.64770 0.95300 0.09010 0.17400
H 	H 	0.67380 0.93180 0.04740 0.16100
H 	H 	0.93690 0.98330 0.13940 0.18700
H 	H 	0.88150 0.01160 0.16950 0.19400
H 	H 	0.91600 0.06170 0.13850 0.18500
H 	H 	0.35540 0.49400 0.53430 0.08300
H 	H 	0.09220 0.45930 0.68290 0.08100
H 	H 	0.04790 0.40400 0.81770 0.07800
H 	H 	0.01860 0.13870 0.96420 0.08500
H 	H 	0.15240 0.52130 0.77340 0.08300
H 	H 	0.40130 0.52980 0.93450 0.07700
H 	H 	0.99320 0.35910 0.72390 0.07800
H 	H 	0.97670 0.10080 0.56760 0.07700
H 	H 	0.26650 0.28580 0.56010 0.17700
H 	H 	0.22130 0.30860 0.59680 0.20200
H 	H 	0.29960 0.29030 0.60280 0.19300
H 	H 	0.33340 0.59200 0.57910 0.20500
H 	H 	0.30390 0.57240 0.62130 0.20700
H 	H 	0.25320 0.58780 0.58570 0.20900
H 	H 	0.30380 0.39180 0.71650 0.17800
H 	H 	0.33990 0.43270 0.68180 0.19800
H 	H 	0.31920 0.35490 0.67570 0.19100
H 	H 	0.08040 0.45300 0.59450 0.18300
H 	H 	0.13400 0.51190 0.58550 0.19100
H 	H 	0.07690 0.52300 0.61820 0.17900
H 	H 	0.13230 0.19580 0.78510 0.16300
H 	H 	0.12090 0.16080 0.82690 0.18800
H 	H 	0.18770 0.20460 0.81890 0.17500
H 	H 	0.03430 0.43130 0.89420 0.18300
H 	H 	0.01920 0.36540 0.92010 0.19700
H 	H 	0.96500 0.39050 0.88840 0.18200
H 	H 	0.22570 0.19410 0.89660 0.18800
H 	H 	0.23110 0.21940 0.94100 0.17600
H 	H 	0.21140 0.27180 0.90710 0.19500
H 	H 	0.92400 0.24240 0.91690 0.20000
H 	H 	0.92320 0.16130 0.91950 0.19200
H 	H 	0.94000 0.19780 0.87880 0.19000
H 	H 	0.25010 0.33410 0.82610 0.16200
H 	H 	0.24990 0.36230 0.87010 0.18100
H 	H 	0.31440 0.37460 0.84260 0.17700
H 	H 	0.21770 0.64450 0.81090 0.18900
H 	H 	0.18380 0.63330 0.85300 0.18000
H 	H 	0.13860 0.62720 0.81420 0.18500
H 	H 	0.17430 0.54830 0.95980 0.17700
H 	H 	0.14980 0.52240 0.91770 0.18700
H 	H 	0.16590 0.60100 0.92450 0.17700
H 	H 	0.44540 0.49370 0.87170 0.17700
H 	H 	0.40050 0.52170 0.83620 0.18400
H 	H 	0.39290 0.44460 0.85000 0.17900
H 	H 	0.17900 0.26830 0.65700 0.17400
H 	H 	0.13820 0.20470 0.64000 0.19000
H 	H 	0.16110 0.20570 0.68490 0.17200
H 	H 	0.87120 0.30410 0.69110 0.19900
H 	H 	0.88390 0.30730 0.64480 0.19500
H 	H 	0.89330 0.37390 0.67100 0.19900
H 	H 	0.00970 0.34150 0.55710 0.17500
H 	H 	0.95300 0.35230 0.59010 0.17600
H 	H 	0.93180 0.32620 0.54740 0.16400
H 	H 	0.98330 0.06310 0.63940 0.18700
H 	H 	0.01160 0.11850 0.66950 0.19400
H 	H 	0.06170 0.08400 0.63850 0.18500
H 	H 	0.64460 0.50600 0.53430 0.08300
H 	H 	0.90780 0.54070 0.68290 0.08100
H 	H 	0.95210 0.59600 0.81770 0.07800
H 	H 	0.98140 0.86130 0.96420 0.08500
H 	H 	0.84760 0.47870 0.77340 0.08300
H 	H 	0.59870 0.47020 0.93450 0.07700
H 	H 	0.00680 0.64090 0.72390 0.07800
H 	H 	0.02330 0.89920 0.56760 0.07700
H 	H 	0.73350 0.71420 0.56010 0.17700
H 	H 	0.77870 0.69140 0.59680 0.20200
H 	H 	0.70040 0.70970 0.60280 0.19300
H 	H 	0.66660 0.40800 0.57910 0.20500
H 	H 	0.69610 0.42760 0.62130 0.20700
H 	H 	0.74680 0.41220 0.58570 0.20900
H 	H 	0.69620 0.60820 0.71650 0.17800
H 	H 	0.66010 0.56730 0.68180 0.19800
H 	H 	0.68080 0.64510 0.67570 0.19100
H 	H 	0.91960 0.54700 0.59450 0.18300
H 	H 	0.86600 0.48810 0.58550 0.19100
H 	H 	0.92310 0.47700 0.61820 0.17900
H 	H 	0.86770 0.80420 0.78510 0.16300
H 	H 	0.87910 0.83920 0.82690 0.18800
H 	H 	0.81230 0.79540 0.81890 0.17500
H 	H 	0.96570 0.56870 0.89420 0.18300
H 	H 	0.98080 0.63460 0.92010 0.19700
H 	H 	0.03500 0.60950 0.88840 0.18200
H 	H 	0.77430 0.80590 0.89660 0.18800
H 	H 	0.76890 0.78060 0.94100 0.17600
H 	H 	0.78860 0.72820 0.90710 0.19500
H 	H 	0.07600 0.75760 0.91690 0.20000
H 	H 	0.07680 0.83870 0.91950 0.19200
H 	H 	0.06000 0.80220 0.87880 0.19000
H 	H 	0.74990 0.66590 0.82610 0.16200
H 	H 	0.75010 0.63770 0.87010 0.18100
H 	H 	0.68560 0.62540 0.84260 0.17700
H 	H 	0.78230 0.35550 0.81090 0.18900
H 	H 	0.81620 0.36670 0.85300 0.18000
H 	H 	0.86140 0.37280 0.81420 0.18500
H 	H 	0.82570 0.45170 0.95980 0.17700
H 	H 	0.85020 0.47760 0.91770 0.18700
H 	H 	0.83410 0.39900 0.92450 0.17700
H 	H 	0.55460 0.50630 0.87170 0.17700
H 	H 	0.59950 0.47830 0.83620 0.18400
H 	H 	0.60710 0.55540 0.85000 0.17900
H 	H 	0.82100 0.73170 0.65700 0.17400
H 	H 	0.86180 0.79530 0.64000 0.19000
H 	H 	0.83890 0.79430 0.68490 0.17200
H 	H 	0.12880 0.69590 0.69110 0.19900
H 	H 	0.11610 0.69270 0.64480 0.19500
H 	H 	0.10670 0.62610 0.67100 0.19900
H 	H 	0.99030 0.65850 0.55710 0.17500
H 	H 	0.04700 0.64770 0.59010 0.17600
H 	H 	0.06820 0.67380 0.54740 0.16400
H 	H 	0.01670 0.93690 0.63940 0.18700
H 	H 	0.98840 0.88150 0.66950 0.19400
H 	H 	0.93830 0.91600 0.63850 0.18500
C 	C 	0.68930 0.26650 0.91500 -0.66900
C 	C 	0.61790 0.28490 0.92230 0.23700
C 	C 	0.55950 0.26690 0.89960 -0.15100
C 	C 	0.50410 0.29820 0.91800 0.25900
C 	C 	0.43190 0.29710 0.90710 -0.68700
C 	C 	0.60220 0.30610 0.81190 -0.63700
C 	C 	0.58080 0.23880 0.82690 0.21600
C 	C 	0.55870 0.22090 0.86460 -0.14300
C 	C 	0.53910 0.15460 0.86300 0.22100
C 	C 	0.51020 0.10730 0.89390 -0.61300
C 	C 	0.79930 0.13910 0.68660 -0.60100
C 	C 	0.73590 0.10270 0.67220 0.19500
C 	C 	0.72350 0.07520 0.63410 -0.12400
C 	C 	0.65800 0.04720 0.63670 0.20600
C 	C 	0.61380 0.01340 0.60570 -0.60300
C 	C 	0.77500 0.20670 0.58380 -0.62500
C 	C 	0.79100 0.13320 0.57780 0.21600
C 	C 	0.76940 0.07600 0.59910 -0.14700
C 	C 	0.79920 0.01900 0.58250 0.22600
C 	C 	0.79940 0.94520 0.59270 -0.62600
C 	C 	0.62870 0.26490 0.65680 -0.59100
C 	C 	0.56310 0.23430 0.67090 0.20500
C 	C 	0.49940 0.23650 0.65250 -0.13700
C 	C 	0.45580 0.19950 0.67680 0.21800
C 	C 	0.38120 0.18350 0.67450 -0.61200
C 	C 	0.44530 0.17910 0.56850 -0.59100
C 	C 	0.45730 0.25270 0.58030 0.19400
C 	C 	0.48150 0.27530 0.61680 -0.12900
C 	C 	0.48820 0.34640 0.61260 0.21100
C 	C 	0.50890 0.40110 0.64120 -0.60000
C 	C 	0.76650 0.14520 0.83700 -0.61800
C 	C 	0.73280 0.07880 0.82590 0.20600
C 	C 	0.73570 0.01540 0.84550 -0.13800
C 	C 	0.69310 0.97200 0.82340 0.22800
C 	C 	0.67540 0.89870 0.82970 -0.64600
C 	C 	0.67570 0.96690 0.93230 -0.59900
C 	C 	0.74910 0.97620 0.91890 0.19700
C 	C 	0.77400 0.99800 0.88200 -0.14000
C 	C 	0.84450 0.99980 0.88590 0.22700
C 	C 	0.89950 0.01550 0.85710 -0.63500
C 	C 	0.72380 0.30330 0.73680 0.04300
C 	C 	0.31070 0.73350 0.91500 -0.66900
C 	C 	0.38210 0.71510 0.92230 0.23700
C 	C 	0.44050 0.73310 0.89960 -0.15100
C 	C 	0.49590 0.70180 0.91800 0.25900
C 	C 	0.56810 0.70290 0.90710 -0.68700
C 	C 	0.39780 0.69390 0.81190 -0.63700
C 	C 	0.41920 0.76120 0.82690 0.21600
C 	C 	0.44130 0.77910 0.86460 -0.14300
C 	C 	0.46090 0.84540 0.86300 0.22100
C 	C 	0.48980 0.89270 0.89390 -0.61300
C 	C 	0.20070 0.86090 0.68660 -0.60100
C 	C 	0.26410 0.89730 0.67220 0.19500
C 	C 	0.27650 0.92480 0.63410 -0.12400
C 	C 	0.34200 0.95280 0.63670 0.20600
C 	C 	0.38620 0.98660 0.60570 -0.60300
C 	C 	0.22500 0.79330 0.58380 -0.62500
C 	C 	0.20900 0.86680 0.57780 0.21600
C 	C 	0.23060 0.92400 0.59910 -0.14700
C 	C 	0.20080 0.98100 0.58250 0.22600
C 	C 	0.20060 0.05480 0.59270 -0.62600
C 	C 	0.37130 0.73510 0.65680 -0.59100
C 	C 	0.43690 0.76570 0.67090 0.20500
C 	C 	0.50060 0.76350 0.65250 -0.13700
C 	C 	0.54420 0.80050 0.67680 0.21800
C 	C 	0.61880 0.81650 0.67450 -0.61200
C 	C 	0.55470 0.82090 0.56850 -0.59100
C 	C 	0.54270 0.74730 0.58030 0.19400
C 	C 	0.51850 0.72470 0.61680 -0.12900
C 	C 	0.51180 0.65360 0.61260 0.21100
C 	C 	0.49110 0.59890 0.64120 -0.60000
C 	C 	0.23350 0.85480 0.83700 -0.61800
C 	C 	0.26720 0.92120 0.82590 0.20600
C 	C 	0.26430 0.98460 0.84550 -0.13800
C 	C 	0.30690 0.02800 0.82340 0.22800
C 	C 	0.32460 0.10130 0.82970 -0.64600
C 	C 	0.32430 0.03310 0.93230 -0.59900
C 	C 	0.25090 0.02380 0.91890 0.19700
C 	C 	0.22600 0.00200 0.88200 -0.14000
C 	C 	0.15550 0.00020 0.88590 0.22700
C 	C 	0.10050 0.98450 0.85710 -0.63500
C 	C 	0.27620 0.69670 0.73680 0.04300
C 	C 	0.73350 0.68930 0.41500 -0.65900
C 	C 	0.71510 0.61790 0.42230 0.23100
C 	C 	0.73310 0.55950 0.39960 -0.14900
C 	C 	0.70180 0.50410 0.41800 0.25300
C 	C 	0.70290 0.43190 0.40710 -0.67700
C 	C 	0.69390 0.60220 0.31190 -0.63700
C 	C 	0.76120 0.58080 0.32690 0.21700
C 	C 	0.77910 0.55870 0.36460 -0.14400
C 	C 	0.84540 0.53910 0.36300 0.21900
C 	C 	0.89270 0.51020 0.39390 -0.60700
C 	C 	0.86090 0.79930 0.18660 -0.60100
C 	C 	0.89730 0.73590 0.17220 0.19500
C 	C 	0.92480 0.72350 0.13410 -0.12400
C 	C 	0.95280 0.65800 0.13670 0.20600
C 	C 	0.98660 0.61380 0.10570 -0.60000
C 	C 	0.79330 0.77500 0.08380 -0.62200
C 	C 	0.86680 0.79100 0.07780 0.21400
C 	C 	0.92400 0.76940 0.09910 -0.14600
C 	C 	0.98100 0.79920 0.08250 0.22400
C 	C 	0.05480 0.79940 0.09270 -0.62300
C 	C 	0.73510 0.62870 0.15680 -0.59100
C 	C 	0.76570 0.56310 0.17090 0.20500
C 	C 	0.76350 0.49940 0.15250 -0.13800
C 	C 	0.80050 0.45580 0.17680 0.21900
C 	C 	0.81650 0.38120 0.17450 -0.61200
C 	C 	0.82090 0.44530 0.06850 -0.58500
C 	C 	0.74730 0.45730 0.08030 0.19100
C 	C 	0.72470 0.48150 0.11680 -0.12800
C 	C 	0.65360 0.48820 0.11260 0.21000
C 	C 	0.59890 0.50890 0.14120 -0.59900
C 	C 	0.85480 0.76650 0.33700 -0.61800
C 	C 	0.92120 0.73280 0.32590 0.20600
C 	C 	0.98460 0.73570 0.34550 -0.13900
C 	C 	0.02800 0.69310 0.32340 0.22900
C 	C 	0.10130 0.67540 0.32970 -0.64600
C 	C 	0.03310 0.67570 0.43230 -0.58600
C 	C 	0.02380 0.74910 0.41890 0.19100
C 	C 	0.00200 0.77400 0.38200 -0.13800
C 	C 	0.00020 0.84450 0.38590 0.22600
C 	C 	0.98450 0.89950 0.35710 -0.63400
C 	C 	0.69670 0.72380 0.23680 0.04300
C 	C 	0.26650 0.31070 0.41500 -0.65900
C 	C 	0.28490 0.38210 0.42230 0.23100
C 	C 	0.26690 0.44050 0.39960 -0.14900
C 	C 	0.29820 0.49590 0.41800 0.25300
C 	C 	0.29710 0.56810 0.40710 -0.67700
C 	C 	0.30610 0.39780 0.31190 -0.63700
C 	C 	0.23880 0.41920 0.32690 0.21700
C 	C 	0.22090 0.44130 0.36460 -0.14400
C 	C 	0.15460 0.46090 0.36300 0.21900
C 	C 	0.10730 0.48980 0.39390 -0.60700
C 	C 	0.13910 0.20070 0.18660 -0.60100
C 	C 	0.10270 0.26410 0.17220 0.19500
C 	C 	0.07520 0.27650 0.13410 -0.12400
C 	C 	0.04720 0.34200 0.13670 0.20600
C 	C 	0.01340 0.38620 0.10570 -0.60000
C 	C 	0.20670 0.22500 0.08380 -0.62200
C 	C 	0.13320 0.20900 0.07780 0.21400
C 	C 	0.07600 0.23060 0.09910 -0.14600
C 	C 	0.01900 0.20080 0.08250 0.22400
C 	C 	0.94520 0.20060 0.09270 -0.62300
C 	C 	0.26490 0.37130 0.15680 -0.59100
C 	C 	0.23430 0.43690 0.17090 0.20500
C 	C 	0.23650 0.50060 0.15250 -0.13800
C 	C 	0.19950 0.54420 0.17680 0.21900
C 	C 	0.18350 0.61880 0.17450 -0.61200
C 	C 	0.17910 0.55470 0.06850 -0.58500
C 	C 	0.25270 0.54270 0.08030 0.19100
C 	C 	0.27530 0.51850 0.11680 -0.12800
C 	C 	0.34640 0.51180 0.11260 0.21000
C 	C 	0.40110 0.49110 0.14120 -0.59900
C 	C 	0.14520 0.23350 0.33700 -0.61800
C 	C 	0.07880 0.26720 0.32590 0.20600
C 	C 	0.01540 0.26430 0.34550 -0.13900
C 	C 	0.97200 0.30690 0.32340 0.22900
C 	C 	0.89870 0.32460 0.32970 -0.64600
C 	C 	0.96690 0.32430 0.43230 -0.58600
C 	C 	0.97620 0.25090 0.41890 0.19100
C 	C 	0.99800 0.22600 0.38200 -0.13800
C 	C 	0.99980 0.15550 0.38590 0.22600
C 	C 	0.01550 0.10050 0.35710 -0.63400
C 	C 	0.30330 0.27620 0.23680 0.04300
C 	C 	0.31070 0.73350 0.08500 -0.65600
C 	C 	0.38210 0.71510 0.07770 0.22900
C 	C 	0.44050 0.73310 0.10040 -0.14800
C 	C 	0.49590 0.70180 0.08200 0.25100
C 	C 	0.56810 0.70290 0.09290 -0.67400
C 	C 	0.39780 0.69390 0.18810 -0.63800
C 	C 	0.41920 0.76120 0.17310 0.21700
C 	C 	0.44130 0.77910 0.13540 -0.14400
C 	C 	0.46090 0.84540 0.13700 0.21900
C 	C 	0.48980 0.89270 0.10610 -0.60600
C 	C 	0.20070 0.86090 0.31340 -0.60100
C 	C 	0.26410 0.89730 0.32780 0.19500
C 	C 	0.27650 0.92480 0.36590 -0.12400
C 	C 	0.34200 0.95280 0.36330 0.20600
C 	C 	0.38620 0.98660 0.39430 -0.60300
C 	C 	0.22500 0.79330 0.41620 -0.62500
C 	C 	0.20900 0.86680 0.42220 0.21600
C 	C 	0.23060 0.92400 0.40090 -0.14700
C 	C 	0.20080 0.98100 0.41750 0.22600
C 	C 	0.20060 0.05480 0.40730 -0.62600
C 	C 	0.37130 0.73510 0.34320 -0.59100
C 	C 	0.43690 0.76570 0.32910 0.20500
C 	C 	0.50060 0.76350 0.34750 -0.13700
C 	C 	0.54420 0.80050 0.32320 0.21800
C 	C 	0.61880 0.81650 0.32550 -0.61200
C 	C 	0.55470 0.82090 0.43150 -0.59100
C 	C 	0.54270 0.74730 0.41970 0.19400
C 	C 	0.51850 0.72470 0.38320 -0.12900
C 	C 	0.51180 0.65360 0.38740 0.21100
C 	C 	0.49110 0.59890 0.35880 -0.60000
C 	C 	0.23350 0.85480 0.16300 -0.61700
C 	C 	0.26720 0.92120 0.17410 0.20600
C 	C 	0.26430 0.98460 0.15450 -0.13900
C 	C 	0.30690 0.02800 0.17660 0.22900
C 	C 	0.32460 0.10130 0.17030 -0.64700
C 	C 	0.32430 0.03310 0.06770 -0.58100
C 	C 	0.25090 0.02380 0.08110 0.18900
C 	C 	0.22600 0.00200 0.11800 -0.13700
C 	C 	0.15550 0.00020 0.11410 0.22500
C 	C 	0.10050 0.98450 0.14290 -0.63300
C 	C 	0.27620 0.69670 0.26320 0.04300
C 	C 	0.68930 0.26650 0.08500 -0.65600
C 	C 	0.61790 0.28490 0.07770 0.22900
C 	C 	0.55950 0.26690 0.10040 -0.14800
C 	C 	0.50410 0.29820 0.08200 0.25100
C 	C 	0.43190 0.29710 0.09290 -0.67400
C 	C 	0.60220 0.30610 0.18810 -0.63800
C 	C 	0.58080 0.23880 0.17310 0.21700
C 	C 	0.55870 0.22090 0.13540 -0.14400
C 	C 	0.53910 0.15460 0.13700 0.21900
C 	C 	0.51020 0.10730 0.10610 -0.60600
C 	C 	0.79930 0.13910 0.31340 -0.60100
C 	C 	0.73590 0.10270 0.32780 0.19500
C 	C 	0.72350 0.07520 0.36590 -0.12400
C 	C 	0.65800 0.04720 0.36330 0.20600
C 	C 	0.61380 0.01340 0.39430 -0.60300
C 	C 	0.77500 0.20670 0.41620 -0.62500
C 	C 	0.79100 0.13320 0.42220 0.21600
C 	C 	0.76940 0.07600 0.40090 -0.14700
C 	C 	0.79920 0.01900 0.41750 0.22600
C 	C 	0.79940 0.94520 0.40730 -0.62600
C 	C 	0.62870 0.26490 0.34320 -0.59100
C 	C 	0.56310 0.23430 0.32910 0.20500
C 	C 	0.49940 0.23650 0.34750 -0.13700
C 	C 	0.45580 0.19950 0.32320 0.21800
C 	C 	0.38120 0.18350 0.32550 -0.61200
C 	C 	0.44530 0.17910 0.43150 -0.59100
C 	C 	0.45730 0.25270 0.41970 0.19400
C 	C 	0.48150 0.27530 0.38320 -0.12900
C 	C 	0.48820 0.34640 0.38740 0.21100
C 	C 	0.50890 0.40110 0.35880 -0.60000
C 	C 	0.76650 0.14520 0.16300 -0.61700
C 	C 	0.73280 0.07880 0.17410 0.20600
C 	C 	0.73570 0.01540 0.15450 -0.13900
C 	C 	0.69310 0.97200 0.17660 0.22900
C 	C 	0.67540 0.89870 0.17030 -0.64700
C 	C 	0.67570 0.96690 0.06770 -0.58100
C 	C 	0.74910 0.97620 0.08110 0.18900
C 	C 	0.77400 0.99800 0.11800 -0.13700
C 	C 	0.84450 0.99980 0.11410 0.22500
C 	C 	0.89950 0.01550 0.14290 -0.63300
C 	C 	0.72380 0.30330 0.26320 0.04300
C 	C 	0.26650 0.31070 0.58500 -0.65900
C 	C 	0.28490 0.38210 0.57770 0.23100
C 	C 	0.26690 0.44050 0.60040 -0.14900
C 	C 	0.29820 0.49590 0.58200 0.25300
C 	C 	0.29710 0.56810 0.59290 -0.67700
C 	C 	0.30610 0.39780 0.68810 -0.63700
C 	C 	0.23880 0.41920 0.67310 0.21700
C 	C 	0.22090 0.44130 0.63540 -0.14300
C 	C 	0.15460 0.46090 0.63700 0.21900
C 	C 	0.10730 0.48980 0.60610 -0.60700
C 	C 	0.13910 0.20070 0.81340 -0.60000
C 	C 	0.10270 0.26410 0.82780 0.19500
C 	C 	0.07520 0.27650 0.86590 -0.12300
C 	C 	0.04720 0.34200 0.86330 0.20800
C 	C 	0.01340 0.38620 0.89430 -0.60900
C 	C 	0.20670 0.22500 0.91620 -0.63500
C 	C 	0.13320 0.20900 0.92220 0.22100
C 	C 	0.07600 0.23060 0.90090 -0.15000
C 	C 	0.01900 0.20080 0.91750 0.23200
C 	C 	0.94520 0.20060 0.90730 -0.63500
C 	C 	0.26490 0.37130 0.84320 -0.59200
C 	C 	0.23430 0.43690 0.82910 0.20500
C 	C 	0.23650 0.50060 0.84750 -0.13600
C 	C 	0.19950 0.54420 0.82320 0.21800
C 	C 	0.18350 0.61880 0.82550 -0.61100
C 	C 	0.17910 0.55470 0.93150 -0.60400
C 	C 	0.25270 0.54270 0.91970 0.20000
C 	C 	0.27530 0.51850 0.88320 -0.13100
C 	C 	0.34640 0.51180 0.88740 0.21300
C 	C 	0.40110 0.49110 0.85880 -0.60200
C 	C 	0.14520 0.23350 0.66300 -0.61700
C 	C 	0.07880 0.26720 0.67410 0.20600
C 	C 	0.01540 0.26430 0.65450 -0.13900
C 	C 	0.97200 0.30690 0.67660 0.22900
C 	C 	0.89870 0.32460 0.67030 -0.64600
C 	C 	0.96690 0.32430 0.56770 -0.58600
C 	C 	0.97620 0.25090 0.58110 0.19100
C 	C 	0.99800 0.22600 0.61800 -0.13800
C 	C 	0.99980 0.15550 0.61410 0.22500
C 	C 	0.01550 0.10050 0.64290 -0.63400
C 	C 	0.30330 0.27620 0.76320 0.04300
C 	C 	0.73350 0.68930 0.58500 -0.65900
C 	C 	0.71510 0.61790 0.57770 0.23100
C 	C 	0.73310 0.55950 0.60040 -0.14900
C 	C 	0.70180 0.50410 0.58200 0.25300
C 	C 	0.70290 0.43190 0.59290 -0.67700
C 	C 	0.69390 0.60220 0.68810 -0.63700
C 	C 	0.76120 0.58080 0.67310 0.21700
C 	C 	0.77910 0.55870 0.63540 -0.14300
C 	C 	0.84540 0.53910 0.63700 0.21900
C 	C 	0.89270 0.51020 0.60610 -0.60700
C 	C 	0.86090 0.79930 0.81340 -0.60000
C 	C 	0.89730 0.73590 0.82780 0.19500
C 	C 	0.92480 0.72350 0.86590 -0.12300
C 	C 	0.95280 0.65800 0.86330 0.20800
C 	C 	0.98660 0.61380 0.89430 -0.60900
C 	C 	0.79330 0.77500 0.91620 -0.63500
C 	C 	0.86680 0.79100 0.92220 0.22100
C 	C 	0.92400 0.76940 0.90090 -0.15000
C 	C 	0.98100 0.79920 0.91750 0.23200
C 	C 	0.05480 0.79940 0.90730 -0.63500
C 	C 	0.73510 0.62870 0.84320 -0.59200
C 	C 	0.76570 0.56310 0.82910 0.20500
C 	C 	0.76350 0.49940 0.84750 -0.13600
C 	C 	0.80050 0.45580 0.82320 0.21800
C 	C 	0.81650 0.38120 0.82550 -0.61100
C 	C 	0.82090 0.44530 0.93150 -0.60400
C 	C 	0.74730 0.45730 0.91970 0.20000
C 	C 	0.72470 0.48150 0.88320 -0.13100
C 	C 	0.65360 0.48820 0.88740 0.21300
C 	C 	0.59890 0.50890 0.85880 -0.60200
C 	C 	0.85480 0.76650 0.66300 -0.61700
C 	C 	0.92120 0.73280 0.67410 0.20600
C 	C 	0.98460 0.73570 0.65450 -0.13900
C 	C 	0.02800 0.69310 0.67660 0.22900
C 	C 	0.10130 0.67540 0.67030 -0.64600
C 	C 	0.03310 0.67570 0.56770 -0.58600
C 	C 	0.02380 0.74910 0.58110 0.19100
C 	C 	0.00200 0.77400 0.61800 -0.13800
C 	C 	0.00020 0.84450 0.61410 0.22500
C 	C 	0.98450 0.89950 0.64290 -0.63400
C 	C 	0.69670 0.72380 0.76320 0.04300
C 	C 	0.82670 0.31440 -0.00000 0.04400
C 	C 	0.17330 0.68560 -0.00000 0.04400
C 	C 	0.68560 0.82670 0.50000 0.04800
C 	C 	0.31440 0.17330 0.50000 0.04800
C 	C 	0.82550 0.33530 0.50000 0.06700
C 	C 	0.17450 0.66470 0.50000 0.06700
C 	C 	0.66470 0.82550 -0.00000 0.06200
C 	C 	0.33530 0.17450 -0.00000 0.06200
S 	S 	0.73821 0.38063 0.72304 -0.12800
S 	S 	0.26179 0.61937 0.72304 -0.12800
S 	S 	0.61937 0.73821 0.22304 -0.12800
S 	S 	0.38063 0.26179 0.22304 -0.12800
S 	S 	0.26179 0.61937 0.27696 -0.12800
S 	S 	0.73821 0.38063 0.27696 -0.12800
S 	S 	0.38063 0.26179 0.77696 -0.12800
S 	S 	0.61937 0.73821 0.77696 -0.12800
S 	S 	0.91040 0.30120 -0.00000 -0.14800
S 	S 	0.08960 0.69880 -0.00000 -0.14800
S 	S 	0.69880 0.91040 0.50000 -0.13400
S 	S 	0.30120 0.08960 0.50000 -0.13400
S 	S 	0.81110 0.41930 0.50000 -0.13900
S 	S 	0.18890 0.58070 0.50000 -0.13900
S 	S 	0.58070 0.81110 -0.00000 -0.15300
S 	S 	0.41930 0.18890 -0.00000 -0.15300
N 	N 	0.59890 0.32520 0.95211 -0.23000
N 	N 	0.53060 0.33180 0.94911 -0.20500
N 	N 	0.57480 0.18510 0.80159 -0.24400
N 	N 	0.54930 0.13350 0.82537 -0.20300
N 	N 	0.68270 0.09390 0.69533 -0.24000
N 	N 	0.63600 0.06010 0.67351 -0.19900
N 	N 	0.83150 0.11290 0.54734 -0.23100
N 	N 	0.83670 0.04420 0.55135 -0.19500
N 	N 	0.56050 0.19680 0.70474 -0.23200
N 	N 	0.49470 0.17710 0.70725 -0.19900
N 	N 	0.45110 0.30390 0.55465 -0.23500
N 	N 	0.47000 0.36020 0.57545 -0.20300
N 	N 	0.69280 0.07430 0.79407 -0.23000
N 	N 	0.66910 0.00900 0.79384 -0.20800
N 	N 	0.80050 0.96530 0.94454 -0.22900
N 	N 	0.85790 0.98000 0.92292 -0.20800
N 	N 	0.71720 0.24600 0.74700 -0.28600
N 	N 	0.40110 0.67480 0.95211 -0.23000
N 	N 	0.46940 0.66820 0.94911 -0.20500
N 	N 	0.42520 0.81490 0.80159 -0.24400
N 	N 	0.45070 0.86650 0.82537 -0.20300
N 	N 	0.31730 0.90610 0.69533 -0.24000
N 	N 	0.36400 0.93990 0.67351 -0.19900
N 	N 	0.16850 0.88710 0.54734 -0.23100
N 	N 	0.16330 0.95580 0.55135 -0.19500
N 	N 	0.43950 0.80320 0.70474 -0.23200
N 	N 	0.50530 0.82290 0.70725 -0.19900
N 	N 	0.54890 0.69610 0.55465 -0.23500
N 	N 	0.53000 0.63980 0.57545 -0.20300
N 	N 	0.30720 0.92570 0.79407 -0.23000
N 	N 	0.33090 0.99100 0.79384 -0.20800
N 	N 	0.19950 0.03470 0.94454 -0.22900
N 	N 	0.14210 0.02000 0.92292 -0.20800
N 	N 	0.28280 0.75400 0.74700 -0.28600
N 	N 	0.67480 0.59890 0.45211 -0.23400
N 	N 	0.66820 0.53060 0.44911 -0.20400
N 	N 	0.81490 0.57480 0.30159 -0.24400
N 	N 	0.86650 0.54930 0.32537 -0.20300
N 	N 	0.90610 0.68270 0.19533 -0.24000
N 	N 	0.93990 0.63600 0.17351 -0.19900
N 	N 	0.88710 0.83150 0.04734 -0.23300
N 	N 	0.95580 0.83670 0.05135 -0.19500
N 	N 	0.80320 0.56050 0.20474 -0.23200
N 	N 	0.82290 0.49470 0.20725 -0.19900
N 	N 	0.69610 0.45110 0.05465 -0.23700
N 	N 	0.63980 0.47000 0.07545 -0.20300
N 	N 	0.92570 0.69280 0.29407 -0.23000
N 	N 	0.99100 0.66910 0.29384 -0.20800
N 	N 	0.03470 0.80050 0.44454 -0.23300
N 	N 	0.02000 0.85790 0.42292 -0.20700
N 	N 	0.75400 0.71720 0.24700 -0.28600
N 	N 	0.32520 0.40110 0.45211 -0.23400
N 	N 	0.33180 0.46940 0.44911 -0.20400
N 	N 	0.18510 0.42520 0.30159 -0.24400
N 	N 	0.13350 0.45070 0.32537 -0.20300
N 	N 	0.09390 0.31730 0.19533 -0.24000
N 	N 	0.06010 0.36400 0.17351 -0.19900
N 	N 	0.11290 0.16850 0.04734 -0.23300
N 	N 	0.04420 0.16330 0.05135 -0.19500
N 	N 	0.19680 0.43950 0.20474 -0.23200
N 	N 	0.17710 0.50530 0.20725 -0.19900
N 	N 	0.30390 0.54890 0.05465 -0.23700
N 	N 	0.36020 0.53000 0.07545 -0.20300
N 	N 	0.07430 0.30720 0.29407 -0.23000
N 	N 	0.00900 0.33090 0.29384 -0.20800
N 	N 	0.96530 0.19950 0.44454 -0.23300
N 	N 	0.98000 0.14210 0.42292 -0.20700
N 	N 	0.24600 0.28280 0.24700 -0.28600
N 	N 	0.40110 0.67480 0.04789 -0.23700
N 	N 	0.46940 0.66820 0.05089 -0.20400
N 	N 	0.42520 0.81490 0.19841 -0.24400
N 	N 	0.45070 0.86650 0.17463 -0.20300
N 	N 	0.31730 0.90610 0.30467 -0.24000
N 	N 	0.36400 0.93990 0.32649 -0.19900
N 	N 	0.16850 0.88710 0.45266 -0.23100
N 	N 	0.16330 0.95580 0.44865 -0.19500
N 	N 	0.43950 0.80320 0.29526 -0.23200
N 	N 	0.50530 0.82290 0.29275 -0.19900
N 	N 	0.54890 0.69610 0.44535 -0.23500
N 	N 	0.53000 0.63980 0.42455 -0.20300
N 	N 	0.30720 0.92570 0.20593 -0.23000
N 	N 	0.33090 0.99100 0.20616 -0.20800
N 	N 	0.19950 0.03470 0.05546 -0.23400
N 	N 	0.14210 0.02000 0.07708 -0.20700
N 	N 	0.28280 0.75400 0.25300 -0.28600
N 	N 	0.59890 0.32520 0.04789 -0.23700
N 	N 	0.53060 0.33180 0.05089 -0.20400
N 	N 	0.57480 0.18510 0.19841 -0.24400
N 	N 	0.54930 0.13350 0.17463 -0.20300
N 	N 	0.68270 0.09390 0.30467 -0.24000
N 	N 	0.63600 0.06010 0.32649 -0.19900
N 	N 	0.83150 0.11290 0.45266 -0.23100
N 	N 	0.83670 0.04420 0.44865 -0.19500
N 	N 	0.56050 0.19680 0.29526 -0.23200
N 	N 	0.49470 0.17710 0.29275 -0.19900
N 	N 	0.45110 0.30390 0.44535 -0.23500
N 	N 	0.47000 0.36020 0.42455 -0.20300
N 	N 	0.69280 0.07430 0.20593 -0.23000
N 	N 	0.66910 0.00900 0.20616 -0.20800
N 	N 	0.80050 0.96530 0.05546 -0.23400
N 	N 	0.85790 0.98000 0.07708 -0.20700
N 	N 	0.71720 0.24600 0.25300 -0.28600
N 	N 	0.32520 0.40110 0.54789 -0.23400
N 	N 	0.33180 0.46940 0.55089 -0.20400
N 	N 	0.18510 0.42520 0.69841 -0.24400
N 	N 	0.13350 0.45070 0.67463 -0.20300
N 	N 	0.09390 0.31730 0.80467 -0.23900
N 	N 	0.06010 0.36400 0.82649 -0.20000
N 	N 	0.11290 0.16850 0.95266 -0.22700
N 	N 	0.04420 0.16330 0.94865 -0.19600
N 	N 	0.19680 0.43950 0.79526 -0.23200
N 	N 	0.17710 0.50530 0.79275 -0.19900
N 	N 	0.30390 0.54890 0.94535 -0.23100
N 	N 	0.36020 0.53000 0.92455 -0.20300
N 	N 	0.07430 0.30720 0.70593 -0.23000
N 	N 	0.00900 0.33090 0.70616 -0.20800
N 	N 	0.96530 0.19950 0.55546 -0.23300
N 	N 	0.98000 0.14210 0.57708 -0.20700
N 	N 	0.24600 0.28280 0.75300 -0.28600
N 	N 	0.67480 0.59890 0.54789 -0.23400
N 	N 	0.66820 0.53060 0.55089 -0.20400
N 	N 	0.81490 0.57480 0.69841 -0.24400
N 	N 	0.86650 0.54930 0.67463 -0.20300
N 	N 	0.90610 0.68270 0.80467 -0.23900
N 	N 	0.93990 0.63600 0.82649 -0.20000
N 	N 	0.88710 0.83150 0.95266 -0.22700
N 	N 	0.95580 0.83670 0.94865 -0.19600
N 	N 	0.80320 0.56050 0.79526 -0.23200
N 	N 	0.82290 0.49470 0.79275 -0.19900
N 	N 	0.69610 0.45110 0.94535 -0.23100
N 	N 	0.63980 0.47000 0.92455 -0.20300
N 	N 	0.92570 0.69280 0.70593 -0.23000
N 	N 	0.99100 0.66910 0.70616 -0.20800
N 	N 	0.03470 0.80050 0.55546 -0.23300
N 	N 	0.02000 0.85790 0.57708 -0.20700
N 	N 	0.75400 0.71720 0.75300 -0.28600
N 	N 	0.76640 0.31930 -0.00000 -0.30200
N 	N 	0.23360 0.68070 -0.00000 -0.30200
N 	N 	0.68070 0.76640 0.50000 -0.29700
N 	N 	0.31930 0.23360 0.50000 -0.29700
N 	N 	0.84030 0.27970 0.50000 -0.30800
N 	N 	0.15970 0.72030 0.50000 -0.30800
N 	N 	0.72030 0.84030 -0.00000 -0.31300
N 	N 	0.27970 0.15970 -0.00000 -0.31300
