data_crystal

_cell_length_a 25.79100
_cell_length_b 25.79100
_cell_length_c 11.12840
_cell_angle_alpha 90.00000
_cell_angle_beta  90.00000
_cell_angle_gamma 120.00000

_symmetry_space_group_name_	'P 1'
_symmetry_space_group_name_H-M	'P 1'

loop_
_symmetry_equiv_pos_as_xyz
  x,y,z

loop_
_atom_site_label
_atom_site_type_symbol
_atom_site_fract_x
_atom_site_fract_y
_atom_site_fract_z
_atom_site_charge
S 	S 	0.67350 0.19479 0.87524 -0.09200
N 	N 	0.56540 0.09032 0.92212 -0.26000
C 	C 	0.61063 0.13373 0.90310 0.07200
N 	N 	0.26868 0.87751 0.42433 -0.21900
N 	N 	0.30851 0.86040 0.38979 -0.21000
H 	H 	0.30317 0.83753 0.32813 0.10800
N 	N 	0.45172 0.98120 0.80919 -0.21600
N 	N 	0.45123 0.02882 0.75805 -0.21100
H 	H 	0.47107 0.06513 0.78613 0.09400
C 	C 	0.29347 0.91128 0.52233 0.22200
C 	C 	0.34940 0.91618 0.54873 -0.16000
C 	C 	0.35738 0.88274 0.46133 0.24200
C 	C 	0.40816 0.87250 0.43693 -0.67800
H 	H 	0.40117 0.83613 0.47683 0.20700
H 	H 	0.44497 0.90613 0.46693 0.21500
H 	H 	0.41157 0.86853 0.35103 0.22100
C 	C 	0.26165 0.93695 0.58993 -0.66800
H 	H 	0.25697 0.96483 0.53883 0.20800
H 	H 	0.28477 0.95783 0.66053 0.21800
H 	H 	0.22247 0.90493 0.61443 0.20500
C 	C 	0.41673 0.01369 0.65933 0.18900
C 	C 	0.39208 0.95262 0.64403 -0.11700
C 	C 	0.41583 0.93433 0.73963 0.21200
C 	C 	0.40473 0.87303 0.76543 -0.64800
H 	H 	0.43907 0.86993 0.74003 0.20300
H 	H 	0.36937 0.84393 0.72193 0.19900
H 	H 	0.39847 0.86523 0.85093 0.20500
C 	C 	0.41101 0.05907 0.58703 -0.59100
H 	H 	0.38717 0.07223 0.63093 0.16600
H 	H 	0.39157 0.04143 0.51123 0.18600
H 	H 	0.45047 0.09303 0.57183 0.18300
S 	S 	0.32650 0.80521 0.12476 -0.13600
N 	N 	0.43460 0.90968 0.07788 -0.27600
C 	C 	0.38937 0.86627 0.09690 0.05400
N 	N 	0.73132 0.12249 0.57567 -0.21700
N 	N 	0.69149 0.13960 0.61021 -0.20900
H 	H 	0.69683 0.16247 0.67187 0.10600
N 	N 	0.54828 0.01880 0.19081 -0.24200
N 	N 	0.54877 0.97118 0.24195 -0.20800
H 	H 	0.52893 0.93487 0.21387 0.09300
C 	C 	0.70653 0.08872 0.47767 0.20600
C 	C 	0.65060 0.08382 0.45127 -0.14400
C 	C 	0.64262 0.11726 0.53867 0.23000
C 	C 	0.59184 0.12750 0.56307 -0.66000
H 	H 	0.59883 0.16387 0.52317 0.20100
H 	H 	0.55503 0.09387 0.53307 0.20700
H 	H 	0.58843 0.13147 0.64897 0.21400
C 	C 	0.73835 0.06305 0.41007 -0.64200
H 	H 	0.74303 0.03517 0.46117 0.19200
H 	H 	0.71523 0.04217 0.33947 0.20400
H 	H 	0.77753 0.09507 0.38557 0.19800
C 	C 	0.58327 0.98631 0.34067 0.24500
C 	C 	0.60792 0.04738 0.35597 -0.16200
C 	C 	0.58417 0.06567 0.26037 0.21400
C 	C 	0.59527 0.12697 0.23457 -0.62900
H 	H 	0.56093 0.13007 0.25997 0.19200
H 	H 	0.63063 0.15607 0.27807 0.19000
H 	H 	0.60153 0.13477 0.14907 0.18000
C 	C 	0.58899 0.94093 0.41297 -0.65000
H 	H 	0.61283 0.92777 0.36907 0.18700
H 	H 	0.60843 0.95857 0.48877 0.21200
H 	H 	0.54953 0.90697 0.42817 0.20100
Cd	Cd	0.50000 0.00000 -0.00000 1.16500
N 	N 	0.45582 0.05783 0.09100 -0.22500
N 	N 	0.47293 0.11477 0.05646 -0.24500
H 	H 	0.49580 0.13230 0.99480 0.14600
N 	N 	0.35213 0.13718 0.47586 -0.23100
N 	N 	0.30451 0.08907 0.42472 -0.21200
H 	H 	0.26820 0.07260 0.45280 0.09200
C 	C 	0.42205 0.04885 0.18900 0.18200
C 	C 	0.41715 0.09988 0.21540 -0.13900
C 	C 	0.45059 0.14130 0.12800 0.21900
C 	C 	0.46083 0.20232 0.10360 -0.63800
H 	H 	0.49720 0.23170 0.14350 0.18900
H 	H 	0.42720 0.20550 0.13360 0.19600
H 	H 	0.46480 0.20970 0.01770 0.18900
C 	C 	0.39638 0.99136 0.25660 -0.60700
H 	H 	0.36850 0.95880 0.20550 0.18300
H 	H 	0.37550 0.99360 0.32720 0.20200
H 	H 	0.42840 0.98420 0.28110 0.19200
C 	C 	0.31964 0.06970 0.32600 0.22600
C 	C 	0.38071 0.10612 0.31070 -0.15200
C 	C 	0.39900 0.14816 0.40630 0.21700
C 	C 	0.46030 0.19836 0.43210 -0.64200
H 	H 	0.46340 0.23580 0.40670 0.19800
H 	H 	0.48940 0.19210 0.38860 0.19500
H 	H 	0.46810 0.19990 0.51760 0.19300
C 	C 	0.27426 0.01860 0.25370 -0.66600
H 	H 	0.26110 0.98160 0.29760 0.19900
H 	H 	0.29190 0.01680 0.17790 0.19700
H 	H 	0.24030 0.02410 0.23850 0.19800
S 	S 	0.13854 0.14538 0.54191 -0.12000
N 	N 	0.24301 0.14175 0.58879 -0.27200
C 	C 	0.19960 0.14357 0.56977 0.06300
N 	N 	0.21085 0.27550 0.24233 -0.21500
N 	N 	0.19374 0.21856 0.27687 -0.20700
H 	H 	0.17087 0.20103 0.33853 0.10500
N 	N 	0.31454 0.19615 0.85747 -0.23900
N 	N 	0.36216 0.24426 0.90861 -0.18500
H 	H 	0.39847 0.26073 0.88053 0.09500
C 	C 	0.24462 0.28448 0.14433 0.19300
C 	C 	0.24952 0.23345 0.11793 -0.13400
C 	C 	0.21608 0.19203 0.20533 0.21600
C 	C 	0.20584 0.13101 0.22973 -0.63800
H 	H 	0.16947 0.10163 0.18983 0.18500
H 	H 	0.23947 0.12783 0.19973 0.19500
H 	H 	0.20187 0.12363 0.31563 0.20700
C 	C 	0.27029 0.34197 0.07673 -0.61100
H 	H 	0.29817 0.37453 0.12783 0.18300
H 	H 	0.29117 0.33973 0.00613 0.18400
H 	H 	0.23827 0.34913 0.05223 0.17700
C 	C 	0.34703 0.26363 0.00733 0.18300
C 	C 	0.28596 0.22721 0.02263 -0.18900
C 	C 	0.26767 0.18517 0.92703 0.27900
C 	C 	0.20637 0.13497 0.90123 -0.71100
H 	H 	0.20327 0.09753 0.92663 0.22500
H 	H 	0.17727 0.14123 0.94473 0.22800
H 	H 	0.19857 0.13343 0.81573 0.21300
C 	C 	0.39241 0.31473 0.07963 -0.58300
H 	H 	0.40557 0.35173 0.03573 0.15300
H 	H 	0.37477 0.31653 0.15543 0.18800
H 	H 	0.42637 0.30923 0.09483 0.17300
S 	S 	0.52812 0.18796 0.79143 -0.10600
N 	N 	0.42365 0.19159 0.74455 -0.27000
C 	C 	0.46706 0.18977 0.76357 0.06600
Cd	Cd	0.33333 0.16667 0.66667 1.18400
S 	S 	0.34017 0.52812 0.20857 -0.12200
N 	N 	0.23207 0.42365 0.25545 -0.27300
C 	C 	0.27730 0.46706 0.23643 0.05900
N 	N 	0.93534 0.21085 0.75767 -0.22400
N 	N 	0.97517 0.19374 0.72313 -0.20600
H 	H 	0.96983 0.17087 0.66147 0.10800
N 	N 	0.11838 0.31454 0.14253 -0.22100
N 	N 	0.11789 0.36216 0.09139 -0.23300
H 	H 	0.13773 0.39847 0.11947 0.09000
C 	C 	0.96013 0.24462 0.85567 0.25600
C 	C 	0.01606 0.24952 0.88207 -0.18500
C 	C 	0.02404 0.21608 0.79467 0.24400
C 	C 	0.07482 0.20584 0.77027 -0.68300
H 	H 	0.06783 0.16947 0.81017 0.21300
H 	H 	0.11163 0.23947 0.80027 0.22100
H 	H 	0.07823 0.20187 0.68437 0.21900
C 	C 	0.92831 0.27029 0.92327 -0.72000
H 	H 	0.92363 0.29817 0.87217 0.22400
H 	H 	0.95143 0.29117 0.99387 0.24800
H 	H 	0.88913 0.23827 0.94777 0.23200
C 	C 	0.08339 0.34703 0.99267 0.24500
C 	C 	0.05874 0.28596 0.97737 -0.08300
C 	C 	0.08249 0.26767 0.07297 0.13800
C 	C 	0.07139 0.20637 0.09877 -0.54700
H 	H 	0.10573 0.20327 0.07337 0.16000
H 	H 	0.03603 0.17727 0.05527 0.14900
H 	H 	0.06513 0.19857 0.18427 0.16100
C 	C 	0.07767 0.39241 0.92037 -0.65000
H 	H 	0.05383 0.40557 0.96427 0.19500
H 	H 	0.05823 0.37477 0.84457 0.20400
H 	H 	0.11713 0.42637 0.90517 0.20800
S 	S 	0.99317 0.13854 0.45809 -0.09600
N 	N 	0.10127 0.24301 0.41121 -0.26700
C 	C 	0.05604 0.19960 0.43023 0.04700
N 	N 	0.39799 0.45582 0.90900 -0.20900
N 	N 	0.35816 0.47293 0.94354 -0.17500
H 	H 	0.36350 0.49580 0.00520 0.06700
N 	N 	0.21495 0.35213 0.52414 -0.23000
N 	N 	0.21544 0.30451 0.57528 -0.21100
H 	H 	0.19560 0.26820 0.54720 0.09300
C 	C 	0.37320 0.42205 0.81100 0.22200
C 	C 	0.31727 0.41715 0.78460 -0.15400
C 	C 	0.30929 0.45059 0.87200 0.24900
C 	C 	0.25851 0.46083 0.89640 -0.69700
H 	H 	0.26550 0.49720 0.85650 0.21900
H 	H 	0.22170 0.42720 0.86640 0.22500
H 	H 	0.25510 0.46480 0.98230 0.24500
C 	C 	0.40502 0.39638 0.74340 -0.66300
H 	H 	0.40970 0.36850 0.79450 0.20800
H 	H 	0.38190 0.37550 0.67280 0.21400
H 	H 	0.44420 0.42840 0.71890 0.20500
C 	C 	0.24994 0.31964 0.67400 0.22500
C 	C 	0.27459 0.38071 0.68930 -0.13900
C 	C 	0.25084 0.39900 0.59370 0.21300
C 	C 	0.26194 0.46030 0.56790 -0.64100
H 	H 	0.22760 0.46340 0.59330 0.19800
H 	H 	0.29730 0.48940 0.61140 0.19600
H 	H 	0.26820 0.46810 0.48240 0.19300
C 	C 	0.25566 0.27426 0.74630 -0.64100
H 	H 	0.27950 0.26110 0.70240 0.18300
H 	H 	0.27510 0.29190 0.82210 0.21500
H 	H 	0.21620 0.24030 0.76150 0.20100
Cd	Cd	0.16667 0.33333 0.33333 1.18400
N 	N 	0.12249 0.39116 0.42433 -0.21700
N 	N 	0.13960 0.44810 0.38979 -0.21000
H 	H 	0.16247 0.46563 0.32813 0.10600
N 	N 	0.01880 0.47051 0.80919 -0.23400
N 	N 	0.97118 0.42240 0.75805 -0.20800
H 	H 	0.93487 0.40593 0.78613 0.09600
C 	C 	0.08872 0.38218 0.52233 0.20500
C 	C 	0.08382 0.43321 0.54873 -0.14300
C 	C 	0.11726 0.47463 0.46133 0.23000
C 	C 	0.12750 0.53565 0.43693 -0.66300
H 	H 	0.16387 0.56503 0.47683 0.20300
H 	H 	0.09387 0.53883 0.46693 0.20800
H 	H 	0.13147 0.54303 0.35103 0.21600
C 	C 	0.06305 0.32469 0.58993 -0.64000
H 	H 	0.03517 0.29213 0.53883 0.19100
H 	H 	0.04217 0.32693 0.66053 0.20200
H 	H 	0.09507 0.31753 0.61443 0.19700
C 	C 	0.98631 0.40303 0.65933 0.24500
C 	C 	0.04738 0.43945 0.64403 -0.16600
C 	C 	0.06567 0.48149 0.73963 0.22600
C 	C 	0.12697 0.53169 0.76543 -0.66500
H 	H 	0.13007 0.56913 0.74003 0.20700
H 	H 	0.15607 0.52543 0.72193 0.20400
H 	H 	0.13477 0.53323 0.85093 0.20900
C 	C 	0.94093 0.35193 0.58703 -0.64900
H 	H 	0.92777 0.31493 0.63093 0.18600
H 	H 	0.95857 0.35013 0.51123 0.21200
H 	H 	0.90697 0.35743 0.57183 0.20000
S 	S 	0.80521 0.47871 0.87524 -0.09300
N 	N 	0.90968 0.47508 0.92212 -0.25700
C 	C 	0.86627 0.47690 0.90310 0.07100
N 	N 	0.87751 0.60884 0.57567 -0.22000
N 	N 	0.86040 0.55190 0.61021 -0.21100
H 	H 	0.83753 0.53437 0.67187 0.10700
N 	N 	0.98120 0.52949 0.19081 -0.22300
N 	N 	0.02882 0.57760 0.24195 -0.21100
H 	H 	0.06513 0.59407 0.21387 0.09000
C 	C 	0.91128 0.61782 0.47767 0.22300
C 	C 	0.91618 0.56679 0.45127 -0.16200
C 	C 	0.88274 0.52537 0.53867 0.24200
C 	C 	0.87250 0.46435 0.56307 -0.67500
H 	H 	0.83613 0.43497 0.52317 0.20600
H 	H 	0.90613 0.46117 0.53307 0.21400
H 	H 	0.86853 0.45697 0.64897 0.21900
C 	C 	0.93695 0.67531 0.41007 -0.67100
H 	H 	0.96483 0.70787 0.46117 0.20800
H 	H 	0.95783 0.67307 0.33947 0.22000
H 	H 	0.90493 0.68247 0.38557 0.20600
C 	C 	0.01369 0.59697 0.34067 0.18800
C 	C 	0.95262 0.56055 0.35597 -0.11200
C 	C 	0.93433 0.51851 0.26037 0.20000
C 	C 	0.87303 0.46831 0.23457 -0.61300
H 	H 	0.86993 0.43087 0.25997 0.18800
H 	H 	0.84393 0.47457 0.27807 0.18500
H 	H 	0.86523 0.46677 0.14907 0.17500
C 	C 	0.05907 0.64807 0.41297 -0.59000
H 	H 	0.07223 0.68507 0.36907 0.16700
H 	H 	0.04143 0.64987 0.48877 0.18500
H 	H 	0.09303 0.64257 0.42817 0.18300
S 	S 	0.19479 0.52129 0.12476 -0.13600
N 	N 	0.09032 0.52492 0.07788 -0.28200
C 	C 	0.13373 0.52310 0.09690 0.05300
Cd	Cd	-0.00000 0.50000 -0.00000 1.16500
S 	S 	0.00683 0.86146 0.54191 -0.13200
N 	N 	0.89873 0.75699 0.58879 -0.27500
C 	C 	0.94396 0.80040 0.56977 0.07800
N 	N 	0.60201 0.54418 0.09100 -0.22600
N 	N 	0.64184 0.52707 0.05646 -0.24600
H 	H 	0.63650 0.50420 0.99480 0.14600
N 	N 	0.78505 0.64787 0.47586 -0.23100
N 	N 	0.78456 0.69549 0.42472 -0.20800
H 	H 	0.80440 0.73180 0.45280 0.09200
C 	C 	0.62680 0.57795 0.18900 0.20600
C 	C 	0.68273 0.58285 0.21540 -0.15000
C 	C 	0.69071 0.54941 0.12800 0.22300
C 	C 	0.74149 0.53917 0.10360 -0.64200
H 	H 	0.73450 0.50280 0.14350 0.19100
H 	H 	0.77830 0.57280 0.13360 0.19700
H 	H 	0.74490 0.53520 0.01770 0.19100
C 	C 	0.59498 0.60362 0.25660 -0.64700
H 	H 	0.59030 0.63150 0.20550 0.19200
H 	H 	0.61810 0.62450 0.32720 0.20800
H 	H 	0.55580 0.57160 0.28110 0.19900
C 	C 	0.75006 0.68036 0.32600 0.20900
C 	C 	0.72541 0.61929 0.31070 -0.13900
C 	C 	0.74916 0.60100 0.40630 0.21200
C 	C 	0.73806 0.53970 0.43210 -0.63700
H 	H 	0.77240 0.53660 0.40670 0.19600
H 	H 	0.70270 0.51060 0.38860 0.19300
H 	H 	0.73180 0.53190 0.51760 0.19100
C 	C 	0.74434 0.72574 0.25370 -0.60000
H 	H 	0.72050 0.73890 0.29760 0.17000
H 	H 	0.72490 0.70810 0.17790 0.18200
H 	H 	0.78380 0.75970 0.23850 0.18300
S 	S 	0.65983 0.47188 0.79143 -0.10700
N 	N 	0.76793 0.57635 0.74455 -0.27000
C 	C 	0.72270 0.53294 0.76357 0.06600
N 	N 	0.06466 0.78915 0.24233 -0.21300
N 	N 	0.02483 0.80626 0.27687 -0.21600
H 	H 	0.03017 0.82913 0.33853 0.10500
N 	N 	0.88162 0.68546 0.85747 -0.24000
N 	N 	0.88211 0.63784 0.90861 -0.18700
H 	H 	0.86227 0.60153 0.88053 0.09600
C 	C 	0.03987 0.75538 0.14433 0.17000
C 	C 	0.98394 0.75048 0.11793 -0.11700
C 	C 	0.97596 0.78392 0.20533 0.22900
C 	C 	0.92518 0.79416 0.22973 -0.65600
H 	H 	0.93217 0.83053 0.18983 0.19700
H 	H 	0.88837 0.76053 0.19973 0.20100
H 	H 	0.92177 0.79813 0.31563 0.21600
C 	C 	0.07169 0.72971 0.07673 -0.58700
H 	H 	0.07637 0.70183 0.12783 0.17500
H 	H 	0.04857 0.70883 0.00613 0.17300
H 	H 	0.11087 0.76173 0.05223 0.17000
C 	C 	0.91661 0.65297 0.00733 0.19200
C 	C 	0.94126 0.71404 0.02263 -0.19300
C 	C 	0.91751 0.73233 0.92703 0.28400
C 	C 	0.92861 0.79363 0.90123 -0.72700
H 	H 	0.89427 0.79673 0.92663 0.23400
H 	H 	0.96397 0.82273 0.94473 0.23800
H 	H 	0.93487 0.80143 0.81573 0.22200
C 	C 	0.92233 0.60759 0.07963 -0.59600
H 	H 	0.94617 0.59443 0.03573 0.16200
H 	H 	0.94177 0.62523 0.15543 0.19500
H 	H 	0.88287 0.57363 0.09483 0.17700
Cd	Cd	0.83333 0.66667 0.66667 1.18400
N 	N 	0.78915 0.72450 0.75767 -0.22200
N 	N 	0.80626 0.78144 0.72313 -0.21400
H 	H 	0.82913 0.79897 0.66147 0.10800
N 	N 	0.68546 0.80385 0.14253 -0.22300
N 	N 	0.63784 0.75574 0.09139 -0.23300
H 	H 	0.60153 0.73927 0.11947 0.09000
C 	C 	0.75538 0.71552 0.85567 0.23400
C 	C 	0.75048 0.76655 0.88207 -0.16900
C 	C 	0.78392 0.80797 0.79467 0.25500
C 	C 	0.79416 0.86899 0.77027 -0.69900
H 	H 	0.83053 0.89837 0.81017 0.22300
H 	H 	0.76053 0.87217 0.80027 0.22600
H 	H 	0.79813 0.87637 0.68437 0.22700
C 	C 	0.72971 0.65803 0.92327 -0.69800
H 	H 	0.70183 0.62547 0.87217 0.21600
H 	H 	0.70883 0.66027 0.99387 0.23800
H 	H 	0.76173 0.65087 0.94777 0.22500
C 	C 	0.65297 0.73637 0.99267 0.25100
C 	C 	0.71404 0.77279 0.97737 -0.09200
C 	C 	0.73233 0.81483 0.07297 0.15000
C 	C 	0.79363 0.86503 0.09877 -0.57100
H 	H 	0.79673 0.90247 0.07337 0.17100
H 	H 	0.82273 0.85877 0.05527 0.16300
H 	H 	0.80143 0.86657 0.18427 0.17200
C 	C 	0.60759 0.68527 0.92037 -0.66000
H 	H 	0.59443 0.64827 0.96427 0.20100
H 	H 	0.62523 0.68347 0.84457 0.21000
H 	H 	0.57363 0.69077 0.90517 0.21100
S 	S 	0.47188 0.81204 0.20857 -0.12200
N 	N 	0.57635 0.80841 0.25545 -0.27300
C 	C 	0.53294 0.81023 0.23643 0.05900
N 	N 	0.54418 0.94217 0.90900 -0.20900
N 	N 	0.52707 0.88523 0.94354 -0.17600
H 	H 	0.50420 0.86770 0.00520 0.06900
N 	N 	0.64787 0.86282 0.52414 -0.23000
N 	N 	0.69549 0.91093 0.57528 -0.20700
H 	H 	0.73180 0.92740 0.54720 0.09400
C 	C 	0.57795 0.95115 0.81100 0.24500
C 	C 	0.58285 0.90012 0.78460 -0.16500
C 	C 	0.54941 0.85870 0.87200 0.25300
C 	C 	0.53917 0.79768 0.89640 -0.70000
H 	H 	0.50280 0.76830 0.85650 0.21900
H 	H 	0.57280 0.79450 0.86640 0.22500
H 	H 	0.53520 0.79030 0.98230 0.24500
C 	C 	0.60362 0.00864 0.74340 -0.70100
H 	H 	0.63150 0.04120 0.79450 0.21700
H 	H 	0.62450 0.00640 0.67280 0.21900
H 	H 	0.57160 0.01580 0.71890 0.21100
C 	C 	0.68036 0.93030 0.67400 0.20700
C 	C 	0.61929 0.89388 0.68930 -0.12700
C 	C 	0.60100 0.85184 0.59370 0.20900
C 	C 	0.53970 0.80164 0.56790 -0.63500
H 	H 	0.53660 0.76420 0.59330 0.19700
H 	H 	0.51060 0.80790 0.61140 0.19400
H 	H 	0.53190 0.80010 0.48240 0.19100
C 	C 	0.72574 0.98140 0.74630 -0.57500
H 	H 	0.73890 0.01840 0.70240 0.15400
H 	H 	0.70810 0.98320 0.82210 0.20000
H 	H 	0.75970 0.97590 0.76150 0.18600
S 	S 	0.86146 0.85462 0.45809 -0.10800
N 	N 	0.75699 0.85825 0.41121 -0.27100
C 	C 	0.80040 0.85643 0.43023 0.06200
Cd	Cd	0.66667 0.83333 0.33333 1.18400
N 	N 	0.94217 0.39799 0.09100 -0.22500
N 	N 	0.88523 0.35816 0.05646 -0.24600
H 	H 	0.86770 0.36350 0.99480 0.14600
N 	N 	0.86282 0.21495 0.47586 -0.23000
N 	N 	0.91093 0.21544 0.42472 -0.20400
H 	H 	0.92740 0.19560 0.45280 0.09300
C 	C 	0.95115 0.37320 0.18900 0.23000
C 	C 	0.90012 0.31727 0.21540 -0.16100
C 	C 	0.85870 0.30929 0.12800 0.22800
C 	C 	0.79768 0.25851 0.10360 -0.64800
H 	H 	0.76830 0.26550 0.14350 0.19200
H 	H 	0.79450 0.22170 0.13360 0.19900
H 	H 	0.79030 0.25510 0.01770 0.19200
C 	C 	0.00864 0.40502 0.25660 -0.68500
H 	H 	0.04120 0.40970 0.20550 0.20000
H 	H 	0.00640 0.38190 0.32720 0.21400
H 	H 	0.01580 0.44420 0.28110 0.20500
C 	C 	0.93030 0.24994 0.32600 0.19200
C 	C 	0.89388 0.27459 0.31070 -0.12700
C 	C 	0.85184 0.25084 0.40630 0.20800
C 	C 	0.80164 0.26194 0.43210 -0.63300
H 	H 	0.76420 0.22760 0.40670 0.19500
H 	H 	0.80790 0.29730 0.38860 0.19200
H 	H 	0.80010 0.26820 0.51760 0.19000
C 	C 	0.98140 0.25566 0.25370 -0.53600
H 	H 	0.01840 0.27950 0.29760 0.14200
H 	H 	0.98320 0.27510 0.17790 0.16800
H 	H 	0.97590 0.21620 0.23850 0.16900
S 	S 	0.85462 0.99317 0.54191 -0.08900
N 	N 	0.85825 0.10127 0.58879 -0.26700
C 	C 	0.85643 0.05604 0.56977 0.04400
N 	N 	0.72450 0.93534 0.24233 -0.21800
N 	N 	0.78144 0.97517 0.27687 -0.19900
H 	H 	0.79897 0.96983 0.33853 0.10700
N 	N 	0.80385 0.11838 0.85747 -0.23900
N 	N 	0.75574 0.11789 0.90861 -0.18500
H 	H 	0.73927 0.13773 0.88053 0.09400
C 	C 	0.71552 0.96013 0.14433 0.21900
C 	C 	0.76655 0.01606 0.11793 -0.15400
C 	C 	0.80797 0.02404 0.20533 0.21000
C 	C 	0.86899 0.07482 0.22973 -0.63900
H 	H 	0.89837 0.06783 0.18983 0.18800
H 	H 	0.87217 0.11163 0.19973 0.19800
H 	H 	0.87637 0.07823 0.31563 0.20600
C 	C 	0.65803 0.92831 0.07673 -0.63700
H 	H 	0.62547 0.92363 0.12783 0.19200
H 	H 	0.66027 0.95143 0.00613 0.19600
H 	H 	0.65087 0.88913 0.05223 0.18500
C 	C 	0.73637 0.08339 0.00733 0.17500
C 	C 	0.77279 0.05874 0.02263 -0.18200
C 	C 	0.81483 0.08249 0.92703 0.27400
C 	C 	0.86503 0.07139 0.90123 -0.71000
H 	H 	0.90247 0.10573 0.92663 0.23000
H 	H 	0.85877 0.03603 0.94473 0.22700
H 	H 	0.86657 0.06513 0.81573 0.21200
C 	C 	0.68527 0.07767 0.07963 -0.57200
H 	H 	0.64827 0.05383 0.03573 0.14700
H 	H 	0.68347 0.05823 0.15543 0.18200
H 	H 	0.69077 0.11713 0.09483 0.17000
S 	S 	0.81204 0.34017 0.79143 -0.10700
N 	N 	0.80841 0.23207 0.74455 -0.27000
C 	C 	0.81023 0.27730 0.76357 0.06500
Cd	Cd	0.83333 0.16667 0.66667 1.18400
N 	N 	0.60884 0.73132 0.42433 -0.21800
N 	N 	0.55190 0.69149 0.38979 -0.21000
H 	H 	0.53437 0.69683 0.32813 0.10600
N 	N 	0.52949 0.54828 0.80919 -0.22600
N 	N 	0.57760 0.54877 0.75805 -0.20900
H 	H 	0.59407 0.52893 0.78613 0.09500
C 	C 	0.61782 0.70653 0.52233 0.21300
C 	C 	0.56679 0.65060 0.54873 -0.15100
C 	C 	0.52537 0.64262 0.46133 0.23600
C 	C 	0.46435 0.59184 0.43693 -0.67000
H 	H 	0.43497 0.59883 0.47683 0.20500
H 	H 	0.46117 0.55503 0.46693 0.21100
H 	H 	0.45697 0.58843 0.35103 0.21800
C 	C 	0.67531 0.73835 0.58993 -0.65300
H 	H 	0.70787 0.74303 0.53883 0.19900
H 	H 	0.67307 0.71523 0.66053 0.20900
H 	H 	0.68247 0.77753 0.61443 0.20100
C 	C 	0.59697 0.58327 0.65933 0.21800
C 	C 	0.56055 0.60792 0.64403 -0.14200
C 	C 	0.51851 0.58417 0.73963 0.21900
C 	C 	0.46831 0.59527 0.76543 -0.65700
H 	H 	0.43087 0.56093 0.74003 0.20500
H 	H 	0.47457 0.63063 0.72193 0.20200
H 	H 	0.46677 0.60153 0.85093 0.20700
C 	C 	0.64807 0.58899 0.58703 -0.62100
H 	H 	0.68507 0.61283 0.63093 0.17600
H 	H 	0.64987 0.60843 0.51123 0.19900
H 	H 	0.64257 0.54953 0.57183 0.19200
S 	S 	0.52129 0.32650 0.87524 -0.09200
N 	N 	0.52492 0.43460 0.92212 -0.25900
C 	C 	0.52310 0.38937 0.90310 0.07100
N 	N 	0.39116 0.26868 0.57567 -0.21900
N 	N 	0.44810 0.30851 0.61021 -0.21000
H 	H 	0.46563 0.30317 0.67187 0.10600
N 	N 	0.47051 0.45172 0.19081 -0.23300
N 	N 	0.42240 0.45123 0.24195 -0.20900
H 	H 	0.40593 0.47107 0.21387 0.09100
C 	C 	0.38218 0.29347 0.47767 0.21500
C 	C 	0.43321 0.34940 0.45127 -0.15300
C 	C 	0.47463 0.35738 0.53867 0.23600
C 	C 	0.53565 0.40816 0.56307 -0.66800
H 	H 	0.56503 0.40117 0.52317 0.20400
H 	H 	0.53883 0.44497 0.53307 0.21000
H 	H 	0.54303 0.41157 0.64897 0.21600
C 	C 	0.32469 0.26165 0.41007 -0.65700
H 	H 	0.29213 0.25697 0.46117 0.20000
H 	H 	0.32693 0.28477 0.33947 0.21200
H 	H 	0.31753 0.22247 0.38557 0.20200
C 	C 	0.40303 0.41673 0.34067 0.21600
C 	C 	0.43945 0.39208 0.35597 -0.13600
C 	C 	0.48149 0.41583 0.26037 0.20600
C 	C 	0.53169 0.40473 0.23457 -0.62100
H 	H 	0.56913 0.43907 0.25997 0.19000
H 	H 	0.52543 0.36937 0.27807 0.18800
H 	H 	0.53323 0.39847 0.14907 0.17700
C 	C 	0.35193 0.41101 0.41297 -0.61900
H 	H 	0.31493 0.38717 0.36907 0.17700
H 	H 	0.35013 0.39157 0.48877 0.19800
H 	H 	0.35743 0.45047 0.42817 0.19200
S 	S 	0.47871 0.67350 0.12476 -0.13600
N 	N 	0.47508 0.56540 0.07788 -0.28000
C 	C 	0.47690 0.61063 0.09690 0.05400
Cd	Cd	0.50000 0.50000 -0.00000 1.17000
N 	N 	0.27550 0.06466 0.75767 -0.21900
N 	N 	0.21856 0.02483 0.72313 -0.22200
H 	H 	0.20103 0.03017 0.66147 0.10600
N 	N 	0.19615 0.88162 0.14253 -0.22200
N 	N 	0.24426 0.88211 0.09139 -0.23400
H 	H 	0.26073 0.86227 0.11947 0.09100
C 	C 	0.28448 0.03987 0.85567 0.21100
C 	C 	0.23345 0.98394 0.88207 -0.15100
C 	C 	0.19203 0.97596 0.79467 0.26200
C 	C 	0.13101 0.92518 0.77027 -0.69900
H 	H 	0.10163 0.93217 0.81017 0.22100
H 	H 	0.12783 0.88837 0.80027 0.22400
H 	H 	0.12363 0.92177 0.68437 0.22800
C 	C 	0.34197 0.07169 0.92327 -0.67600
H 	H 	0.37453 0.07637 0.87217 0.20900
H 	H 	0.33973 0.04857 0.99387 0.22800
H 	H 	0.34913 0.11087 0.94777 0.21900
C 	C 	0.26363 0.91661 0.99267 0.25900
C 	C 	0.22721 0.94126 0.97737 -0.09600
C 	C 	0.18517 0.91751 0.07297 0.15100
C 	C 	0.13497 0.92861 0.09877 -0.56700
H 	H 	0.09753 0.89427 0.07337 0.16500
H 	H 	0.14123 0.96397 0.05527 0.16200
H 	H 	0.13343 0.93487 0.18427 0.17100
C 	C 	0.31473 0.92233 0.92037 -0.67100
H 	H 	0.35173 0.94617 0.96427 0.20800
H 	H 	0.31653 0.94177 0.84457 0.21600
H 	H 	0.30923 0.88287 0.90517 0.21400
S 	S 	0.18796 0.65983 0.20857 -0.12200
N 	N 	0.19159 0.76793 0.25545 -0.27300
C 	C 	0.18977 0.72270 0.23643 0.06000
N 	N 	0.05783 0.60201 0.90900 -0.20800
N 	N 	0.11477 0.64184 0.94354 -0.17400
H 	H 	0.13230 0.63650 0.00520 0.06700
N 	N 	0.13718 0.78505 0.52414 -0.23100
N 	N 	0.08907 0.78456 0.57528 -0.21500
H 	H 	0.07260 0.80440 0.54720 0.09200
C 	C 	0.04885 0.62680 0.81100 0.20000
C 	C 	0.09988 0.68273 0.78460 -0.14400
C 	C 	0.14130 0.69071 0.87200 0.24500
C 	C 	0.20232 0.74149 0.89640 -0.69100
H 	H 	0.23170 0.73450 0.85650 0.21700
H 	H 	0.20550 0.77830 0.86640 0.22300
H 	H 	0.20970 0.74490 0.98230 0.24300
C 	C 	0.99136 0.59498 0.74340 -0.62800
H 	H 	0.95880 0.59030 0.79450 0.20000
H 	H 	0.99360 0.61810 0.67280 0.20900
H 	H 	0.98420 0.55580 0.71890 0.19900
C 	C 	0.06970 0.75006 0.67400 0.24000
C 	C 	0.10612 0.72541 0.68930 -0.15100
C 	C 	0.14816 0.74916 0.59370 0.21700
C 	C 	0.19836 0.73806 0.56790 -0.64400
H 	H 	0.23580 0.77240 0.59330 0.19900
H 	H 	0.19210 0.70270 0.61140 0.19700
H 	H 	0.19990 0.73180 0.48240 0.19400
C 	C 	0.01860 0.74434 0.74630 -0.70100
H 	H 	0.98160 0.72050 0.70240 0.21000
H 	H 	0.01680 0.72490 0.82210 0.22900
H 	H 	0.02410 0.78380 0.76150 0.21400
S 	S 	0.14538 0.00683 0.45809 -0.14000
N 	N 	0.14175 0.89873 0.41121 -0.27500
C 	C 	0.14357 0.94396 0.43023 0.08100
Cd	Cd	0.16667 0.83333 0.33333 1.18400
