data_crystal

_cell_length_a 10.06910
_cell_length_b 10.94910
_cell_length_c 13.22110
_cell_angle_alpha 99.75500
_cell_angle_beta  110.24500
_cell_angle_gamma 107.79300

_symmetry_space_group_name_	'P 1'
_symmetry_space_group_name_H-M	'P 1'

loop_
_symmetry_equiv_pos_as_xyz
  x,y,z

loop_
_atom_site_label
_atom_site_type_symbol
_atom_site_fract_x
_atom_site_fract_y
_atom_site_fract_z
_atom_site_charge
Er	Er	0.84506 0.29349 0.80419 1.74700
Er	Er	0.15494 0.70651 0.19581 1.74700
H 	H 	0.27570 0.38100 0.83700 0.04200
H 	H 	0.49610 0.63220 0.15450 0.04300
H 	H 	0.16290 0.08460 0.68940 0.05000
H 	H 	0.77490 0.03230 0.43600 0.05200
H 	H 	0.76640 0.59020 0.57410 0.05300
H 	H 	0.37340 0.33020 0.55770 0.05500
H 	H 	0.03650 0.35850 0.08680 -0.00300
H 	H 	0.09800 0.26610 0.23010 0.07600
H 	H 	0.97680 0.03450 0.19130 0.05700
H 	H 	0.79650 0.80960 0.04370 0.06000
H 	H 	0.61090 0.68850 0.86400 0.05300
H 	H 	0.45860 0.68460 0.66460 0.04500
H 	H 	0.39950 0.80570 0.54160 0.08500
H 	H 	0.53510 0.03480 0.59980 0.00300
H 	H 	0.72430 0.61900 0.16300 0.04100
H 	H 	0.50390 0.36780 0.84550 0.04200
H 	H 	0.83710 0.91540 0.31060 0.05000
H 	H 	0.22510 0.96770 0.56400 0.05200
H 	H 	0.23360 0.40980 0.42590 0.05300
H 	H 	0.62660 0.66980 0.44230 0.05500
H 	H 	0.96350 0.64150 0.91320 -0.00300
H 	H 	0.90200 0.73390 0.76990 0.07600
H 	H 	0.02320 0.96550 0.80870 0.05700
H 	H 	0.20350 0.19040 0.95630 0.06000
H 	H 	0.38910 0.31150 0.13600 0.05300
H 	H 	0.54140 0.31540 0.33540 0.04500
H 	H 	0.60050 0.19430 0.45840 0.08500
H 	H 	0.46490 0.96520 0.40020 0.00300
C 	C 	0.21270 0.51440 0.98910 0.49100
C 	C 	0.36260 0.50800 0.99480 -0.13000
C 	C 	0.36600 0.42910 0.90280 -0.00500
C 	C 	0.49720 0.57900 0.09230 -0.00500
C 	C 	0.92310 0.14870 0.65740 0.29600
C 	C 	0.96130 0.07020 0.57580 -0.05800
C 	C 	0.09620 0.05040 0.61270 -0.02500
C 	C 	0.86650 0.01940 0.46270 -0.02500
C 	C 	0.67430 0.39930 0.66370 0.29800
C 	C 	0.58420 0.45240 0.57920 -0.05500
C 	C 	0.65950 0.55400 0.54430 -0.02900
C 	C 	0.42410 0.39840 0.53450 -0.03000
C 	C 	0.98910 0.26550 0.06960 0.08600
C 	C 	0.02660 0.21140 0.15730 -0.09600
C 	C 	0.95540 0.07440 0.13420 -0.03500
C 	C 	0.84990 0.99610 0.02240 0.01100
C 	C 	0.77230 0.85420 0.99040 -0.05700
C 	C 	0.66220 0.78110 0.88210 -0.05200
C 	C 	0.62590 0.84530 0.79750 0.00100
C 	C 	0.51120 0.77770 0.68780 -0.02000
C 	C 	0.47680 0.84910 0.61480 -0.10500
C 	C 	0.55890 0.98770 0.65110 0.08300
C 	C 	0.70430 0.98730 0.82680 0.03700
C 	C 	0.82210 0.06230 0.94200 0.03600
C 	C 	0.78730 0.48560 0.01090 0.49100
C 	C 	0.63740 0.49200 0.00520 -0.13000
C 	C 	0.63400 0.57090 0.09720 -0.00500
C 	C 	0.50280 0.42100 0.90770 -0.00500
C 	C 	0.07690 0.85130 0.34260 0.29600
C 	C 	0.03870 0.92980 0.42420 -0.05800
C 	C 	0.90380 0.94960 0.38730 -0.02500
C 	C 	0.13350 0.98060 0.53730 -0.02500
C 	C 	0.32570 0.60070 0.33630 0.29800
C 	C 	0.41580 0.54760 0.42080 -0.05500
C 	C 	0.34050 0.44600 0.45570 -0.02900
C 	C 	0.57590 0.60160 0.46550 -0.03000
C 	C 	0.01090 0.73450 0.93040 0.08600
C 	C 	0.97340 0.78860 0.84270 -0.09600
C 	C 	0.04460 0.92560 0.86580 -0.03500
C 	C 	0.15010 0.00390 0.97760 0.01100
C 	C 	0.22770 0.14580 0.00960 -0.05700
C 	C 	0.33780 0.21890 0.11790 -0.05200
C 	C 	0.37410 0.15470 0.20250 0.00100
C 	C 	0.48880 0.22230 0.31220 -0.02000
C 	C 	0.52320 0.15090 0.38520 -0.10500
C 	C 	0.44110 0.01230 0.34890 0.08300
C 	C 	0.29570 0.01270 0.17320 0.03700
C 	C 	0.17790 0.93770 0.05800 0.03600
N 	N 	0.89120 0.19600 0.96290 -0.22100
N 	N 	0.66860 0.05700 0.75400 -0.22400
N 	N 	0.10880 0.80400 0.03710 -0.22100
N 	N 	0.33140 0.94300 0.24600 -0.22400
O 	O 	0.09120 0.44030 0.90410 -0.51000
O 	O 	0.21930 0.59310 0.07360 -0.50400
O 	O 	0.98820 0.16590 0.76180 -0.39500
O 	O 	0.82390 0.19890 0.61960 -0.39200
O 	O 	0.81900 0.46230 0.71730 -0.39100
O 	O 	0.60600 0.29110 0.67940 -0.39200
O 	O 	0.90880 0.55970 0.09590 -0.51000
O 	O 	0.78070 0.40690 0.92640 -0.50400
O 	O 	0.01180 0.83410 0.23820 -0.39500
O 	O 	0.17610 0.80110 0.38040 -0.39200
O 	O 	0.18100 0.53770 0.28270 -0.39100
O 	O 	0.39400 0.70890 0.32060 -0.39200
