data_crystal

_cell_length_a 10.97090
_cell_length_b 10.97090
_cell_length_c 18.84200
_cell_angle_alpha 73.36960
_cell_angle_beta  73.36960
_cell_angle_gamma 74.30800

_symmetry_space_group_name_	'P 1'
_symmetry_space_group_name_H-M	'P 1'

loop_
_symmetry_equiv_pos_as_xyz
  x,y,z

loop_
_atom_site_label
_atom_site_type_symbol
_atom_site_fract_x
_atom_site_fract_y
_atom_site_fract_z
_atom_site_charge
Tm	Tm	0.43845 0.55497 0.60537 1.56200
Tm	Tm	0.44503 0.56155 0.89463 1.56200
Tm	Tm	0.56155 0.44503 0.39463 1.56200
Tm	Tm	0.55497 0.43845 0.10537 1.56200
H 	H 	0.58480 0.84140 0.56450 0.04100
H 	H 	0.58770 0.04830 0.51230 0.03300
H 	H 	0.48930 0.12630 0.72200 0.05100
H 	H 	0.49000 0.89980 0.77160 0.03900
H 	H 	0.97200 0.42200 0.40510 0.03900
H 	H 	0.82160 0.54980 0.59500 0.05500
H 	H 	0.15860 0.41520 0.93550 0.04200
H 	H 	0.95170 0.41230 0.98770 0.03300
H 	H 	0.87370 0.51070 0.77800 0.05000
H 	H 	0.10020 0.51000 0.72840 0.04000
H 	H 	0.57800 0.02800 0.09490 0.03900
H 	H 	0.45020 0.17840 0.90500 0.05500
H 	H 	0.41520 0.15860 0.43550 0.04100
H 	H 	0.41230 0.95170 0.48770 0.03300
H 	H 	0.51070 0.87370 0.27800 0.05100
H 	H 	0.51000 0.10020 0.22840 0.03900
H 	H 	0.02800 0.57800 0.59490 0.03900
H 	H 	0.17840 0.45020 0.40500 0.05500
H 	H 	0.84140 0.58480 0.06450 0.04200
H 	H 	0.04830 0.58770 0.01230 0.03300
H 	H 	0.12630 0.48930 0.22200 0.05000
H 	H 	0.89980 0.49000 0.27160 0.04000
H 	H 	0.42200 0.97200 0.90510 0.03900
H 	H 	0.54980 0.82160 0.09500 0.05500
C 	C 	0.53540 0.70600 0.70970 0.44800
C 	C 	0.54720 0.85160 0.67110 -0.09800
C 	C 	0.56970 0.89770 0.59590 -0.01900
C 	C 	0.56940 0.02200 0.56500 -0.00500
C 	C 	0.54360 0.11740 0.60750 -0.11000
C 	C 	0.52730 0.25750 0.57200 0.42900
C 	C 	0.51080 0.07000 0.68960 -0.01000
C 	C 	0.51260 0.93260 0.71940 -0.01700
C 	C 	0.74090 0.49190 0.49450 0.44800
C 	C 	0.87630 0.49330 0.49760 -0.10300
C 	C 	0.98170 0.45570 0.44270 -0.00500
C 	C 	0.89210 0.53210 0.55570 -0.01200
C 	C 	0.29400 0.46460 0.79030 0.44800
C 	C 	0.14840 0.45280 0.82890 -0.09700
C 	C 	0.10230 0.43030 0.90410 -0.02200
C 	C 	0.97800 0.43060 0.93500 -0.00300
C 	C 	0.88260 0.45640 0.89250 -0.11100
C 	C 	0.74250 0.47270 0.92800 0.42900
C 	C 	0.93000 0.48920 0.81040 -0.00900
C 	C 	0.06740 0.48740 0.78060 -0.01900
C 	C 	0.50810 0.25910 0.00550 0.44700
C 	C 	0.50670 0.12370 0.00240 -0.10400
C 	C 	0.54430 0.01830 0.05730 -0.00600
C 	C 	0.46790 0.10790 0.94430 -0.01000
C 	C 	0.46460 0.29400 0.29030 0.44800
C 	C 	0.45280 0.14840 0.32890 -0.09800
C 	C 	0.43030 0.10230 0.40410 -0.01900
C 	C 	0.43060 0.97800 0.43500 -0.00500
C 	C 	0.45640 0.88260 0.39250 -0.11000
C 	C 	0.47270 0.74250 0.42800 0.42900
C 	C 	0.48920 0.93000 0.31040 -0.01000
C 	C 	0.48740 0.06740 0.28060 -0.01700
C 	C 	0.25910 0.50810 0.50550 0.44800
C 	C 	0.12370 0.50670 0.50240 -0.10300
C 	C 	0.01830 0.54430 0.55730 -0.00500
C 	C 	0.10790 0.46790 0.44430 -0.01200
C 	C 	0.70600 0.53540 0.20970 0.44800
C 	C 	0.85160 0.54720 0.17110 -0.09700
C 	C 	0.89770 0.56970 0.09590 -0.02200
C 	C 	0.02200 0.56940 0.06500 -0.00300
C 	C 	0.11740 0.54360 0.10750 -0.11100
C 	C 	0.25750 0.52730 0.07200 0.42900
C 	C 	0.07000 0.51080 0.18960 -0.00900
C 	C 	0.93260 0.51260 0.21940 -0.01900
C 	C 	0.49190 0.74090 0.99450 0.44700
C 	C 	0.49330 0.87630 0.99760 -0.10400
C 	C 	0.45570 0.98170 0.94270 -0.00600
C 	C 	0.53210 0.89210 0.05570 -0.01000
O 	O 	0.53050 0.64890 0.66310 -0.47000
O 	O 	0.53190 0.66910 0.77570 -0.47300
O 	O 	0.54820 0.29520 0.50320 -0.48900
O 	O 	0.49230 0.33270 0.61720 -0.41800
O 	O 	0.65940 0.50820 0.55350 -0.44100
O 	O 	0.72300 0.47440 0.43880 -0.47400
O 	O 	0.35110 0.46950 0.83690 -0.47000
O 	O 	0.33090 0.46810 0.72430 -0.47300
O 	O 	0.70480 0.45180 0.99680 -0.48900
O 	O 	0.66730 0.50770 0.88280 -0.41800
O 	O 	0.49180 0.34060 0.94650 -0.44100
O 	O 	0.52560 0.27700 0.06120 -0.47400
O 	O 	0.46950 0.35110 0.33690 -0.47000
O 	O 	0.46810 0.33090 0.22430 -0.47300
O 	O 	0.45180 0.70480 0.49680 -0.48900
O 	O 	0.50770 0.66730 0.38280 -0.41800
O 	O 	0.34060 0.49180 0.44650 -0.44100
O 	O 	0.27700 0.52560 0.56120 -0.47400
O 	O 	0.64890 0.53050 0.16310 -0.47000
O 	O 	0.66910 0.53190 0.27570 -0.47300
O 	O 	0.29520 0.54820 0.00320 -0.48900
O 	O 	0.33270 0.49230 0.11720 -0.41800
O 	O 	0.50820 0.65940 0.05350 -0.44100
O 	O 	0.47440 0.72300 0.93880 -0.47400
