data_crystal

_cell_length_a 9.02640
_cell_length_b 15.10300
_cell_length_c 15.53530
_cell_angle_alpha 119.08400
_cell_angle_beta  104.84400
_cell_angle_gamma 90.00000

_symmetry_space_group_name_	'P 1'
_symmetry_space_group_name_H-M	'P 1'

loop_
_symmetry_equiv_pos_as_xyz
  x,y,z

loop_
_atom_site_label
_atom_site_type_symbol
_atom_site_fract_x
_atom_site_fract_y
_atom_site_fract_z
_atom_site_charge
Co	Co	0.51539 0.66716 0.41800 1.10900
H 	H 	0.35550 0.57310 0.52980 0.02400
H 	H 	0.39610 0.65280 0.71380 0.02900
H 	H 	0.68140 0.80200 0.65940 -0.03300
H 	H 	0.24520 0.78180 0.53940 0.02000
H 	H 	0.06800 0.87780 0.48800 0.02600
H 	H 	0.35690 0.79900 0.32120 -0.01900
H 	H 	0.59030 0.44060 0.35360 -0.01500
H 	H 	0.00090 0.50550 0.33500 0.03500
H 	H 	0.87900 0.66280 0.40400 0.00200
H 	H 	0.69180 0.94570 0.82160 0.04700
H 	H 	0.82050 0.05200 0.99560 0.06400
H 	H 	0.70680 0.83540 0.05500 0.06100
H 	H 	0.59200 0.72500 0.88000 0.05700
H 	H 	0.61200 0.10330 0.15460 0.07000
H 	H 	0.58640 0.27570 0.23140 0.05100
H 	H 	0.04960 0.34990 0.32640 0.05600
H 	H 	0.07530 0.17750 0.24960 0.05700
H 	H 	0.90760 0.07950 0.34200 0.04100
H 	H 	0.04270 0.01480 0.43660 0.08100
H 	H 	0.15790 0.80330 0.19360 0.06700
H 	H 	0.03060 0.87260 0.09860 0.05400
C 	C 	0.42640 0.63120 0.57980 0.00600
C 	C 	0.44870 0.67400 0.68120 -0.00400
C 	C 	0.60290 0.75509 0.64938 0.10600
C 	C 	0.24530 0.79650 0.48780 0.00300
C 	C 	0.14740 0.84930 0.46000 -0.00100
C 	C 	0.30620 0.80530 0.36860 0.09300
C 	C 	0.67730 0.47710 0.35780 0.10300
C 	C 	0.90450 0.51100 0.34680 -0.01100
C 	C 	0.83520 0.59780 0.38500 0.00300
C 	C 	0.63140 0.82225 0.83450 0.08300
C 	C 	0.69840 0.92282 0.86804 -0.07000
C 	C 	0.77430 0.98635 0.97250 -0.09100
C 	C 	0.78220 0.95366 0.04192 0.08700
C 	C 	0.70830 0.85637 0.00794 -0.08300
C 	C 	0.63670 0.79106 0.90312 -0.07600
C 	C 	0.84620 0.12331 0.19442 0.09300
C 	C 	0.69980 0.15270 0.18900 -0.09000
C 	C 	0.68440 0.25600 0.23500 -0.07300
C 	C 	0.81550 0.32999 0.28658 0.08000
C 	C 	0.96190 0.30050 0.29200 -0.08100
C 	C 	0.97730 0.19720 0.24600 -0.08700
C 	C 	0.94600 0.97949 0.20638 0.05400
C 	C 	0.95630 0.02290 0.31100 -0.03000
C 	C 	0.03570 0.98350 0.36700 -0.13100
C 	C 	0.10720 0.89810 0.32420 0.10900
C 	C 	0.10570 0.85846 0.22332 -0.10100
C 	C 	0.02800 0.89943 0.16606 -0.05300
N 	N 	0.52100 0.68366 0.55912 -0.25500
N 	N 	0.56380 0.75490 0.72720 -0.13900
N 	N 	0.34720 0.76635 0.43030 -0.24500
N 	N 	0.18440 0.85424 0.38248 -0.14400
N 	N 	0.69360 0.57520 0.39120 -0.24900
N 	N 	0.79960 0.43452 0.32984 -0.14000
N 	N 	0.86190 0.01931 0.14702 -0.14500
Co	Co	0.48461 0.24916 0.58200 1.10800
H 	H 	0.64450 0.04330 0.47020 0.01900
H 	H 	0.60390 0.93900 0.28620 0.03400
H 	H 	0.31860 0.14260 0.34060 -0.03300
H 	H 	0.75480 0.24240 0.46060 0.02000
H 	H 	0.93200 0.38980 0.51200 0.02800
H 	H 	0.64310 0.47780 0.67880 -0.01800
H 	H 	0.40970 0.08700 0.64640 -0.01400
H 	H 	0.99910 0.17050 0.66500 0.03500
H 	H 	0.12100 0.25880 0.59600 0.00300
H 	H 	0.30820 0.12410 0.17840 0.04600
H 	H 	0.17950 0.05640 0.00440 0.06100
H 	H 	0.29320 0.78040 0.94500 0.06200
H 	H 	0.40800 0.84500 0.12000 0.05600
H 	H 	0.38800 0.94870 0.84540 0.07200
H 	H 	0.41360 0.04430 0.76860 0.04800
H 	H 	0.95040 0.02350 0.67360 0.05400
H 	H 	0.92470 0.92790 0.75040 0.05800
H 	H 	0.09240 0.73750 0.65800 0.05700
H 	H 	0.95730 0.57820 0.56340 0.06100
H 	H 	0.84210 0.60970 0.80640 0.05800
H 	H 	0.96940 0.77400 0.90140 0.06500
C 	C 	0.57360 0.05140 0.42020 0.02100
C 	C 	0.55130 0.99280 0.31880 -0.02400
C 	C 	0.39710 0.10571 0.35062 0.10600
C 	C 	0.75470 0.30870 0.51220 0.00400
C 	C 	0.85260 0.38930 0.54000 -0.00200
C 	C 	0.69380 0.43670 0.63140 0.09200
C 	C 	0.32270 0.11930 0.64220 0.10300
C 	C 	0.09550 0.16420 0.65320 -0.01100
C 	C 	0.16480 0.21280 0.61500 0.00300
C 	C 	0.36860 0.98775 0.16550 0.07100
C 	C 	0.30160 0.05478 0.13196 -0.06100
C 	C 	0.22570 0.01385 0.02750 -0.08600
C 	C 	0.21780 0.91174 0.95808 0.09200
C 	C 	0.29170 0.84843 0.99206 -0.08300
C 	C 	0.36330 0.88794 0.09688 -0.07500
C 	C 	0.15380 0.92889 0.80558 0.09900
C 	C 	0.30020 0.96370 0.81100 -0.10300
C 	C 	0.31560 0.02100 0.76500 -0.06200
C 	C 	0.18450 0.04341 0.71342 0.07400
C 	C 	0.03810 0.00850 0.70800 -0.07200
C 	C 	0.02270 0.95120 0.75400 -0.09700
C 	C 	0.05400 0.77311 0.79362 0.09100
C 	C 	0.04370 0.71190 0.68900 -0.08000
C 	C 	0.96430 0.61650 0.63300 -0.08400
C 	C 	0.89280 0.57390 0.67580 0.08500
C 	C 	0.89430 0.63514 0.77668 -0.07300
C 	C 	0.97200 0.73337 0.83394 -0.08400
N 	N 	0.47900 0.12454 0.44088 -0.25700
N 	N 	0.43620 0.02770 0.27280 -0.13000
N 	N 	0.65280 0.33605 0.56970 -0.24500
N 	N 	0.81560 0.47176 0.61752 -0.14000
N 	N 	0.30640 0.18400 0.60880 -0.24800
N 	N 	0.20040 0.10468 0.67016 -0.13900
N 	N 	0.13810 0.87229 0.85298 -0.15700
H 	H 	0.85250 0.23120 0.82700 0.23700
H 	H 	0.87810 0.34400 0.85220 0.22900
H 	H 	0.84900 0.34000 0.98960 -0.08800
H 	H 	0.70920 0.38600 0.94960 -0.06700
H 	H 	0.56070 0.21500 0.85160 0.13000
H 	H 	0.69700 0.18050 0.90980 0.12000
H 	H 	0.61860 0.36240 0.05700 0.04400
H 	H 	0.61860 0.25870 0.05780 0.04300
H 	H 	0.14750 0.40420 0.17300 0.23700
H 	H 	0.12190 0.49180 0.14780 0.22900
H 	H 	0.15100 0.35040 0.01040 -0.08800
H 	H 	0.29080 0.43640 0.05040 -0.06700
H 	H 	0.43930 0.36340 0.14840 0.13000
H 	H 	0.30300 0.27070 0.09020 0.11900
H 	H 	0.38140 0.30540 0.94300 0.04400
H 	H 	0.38140 0.20090 0.94220 0.04300
C 	C 	0.69620 0.26380 0.74320 0.56000
C 	C 	0.80000 0.28980 0.83760 -0.69100
C 	C 	0.75760 0.32460 0.93280 0.34700
C 	C 	0.64500 0.23810 0.91440 -0.31800
C 	C 	0.58070 0.28950 0.01580 -0.04100
C 	C 	0.30380 0.52060 0.25680 0.56000
C 	C 	0.20000 0.45220 0.16240 -0.69100
C 	C 	0.24240 0.39180 0.06720 0.34600
C 	C 	0.35500 0.32370 0.08560 -0.31700
C 	C 	0.41930 0.27370 0.98420 -0.04200
O 	O 	0.60620 0.32706 0.74212 -0.47200
O 	O 	0.68180 0.18019 0.66338 -0.43800
O 	O 	0.39380 0.58494 0.25788 -0.47200
O 	O 	0.31820 0.51681 0.33662 -0.43900
