data_crystal

_cell_length_a 9.07170
_cell_length_b 14.93990
_cell_length_c 15.64280
_cell_angle_alpha 118.52400
_cell_angle_beta  105.20900
_cell_angle_gamma 90.00000

_symmetry_space_group_name_	'P 1'
_symmetry_space_group_name_H-M	'P 1'

loop_
_symmetry_equiv_pos_as_xyz
  x,y,z

loop_
_atom_site_label
_atom_site_type_symbol
_atom_site_fract_x
_atom_site_fract_y
_atom_site_fract_z
_atom_site_charge
Ni	Ni	0.50166 0.75821 0.42542 1.05300
Ni	Ni	0.49834 0.33279 0.57458 1.05400
H 	H 	0.34900 0.95970 0.53940 0.01700
H 	H 	0.41040 0.06850 0.72180 0.03600
H 	H 	0.66760 0.84450 0.66360 -0.03100
H 	H 	0.23280 0.76270 0.53380 0.01500
H 	H 	0.04930 0.61070 0.47840 0.02900
H 	H 	0.34140 0.53380 0.31860 -0.01700
H 	H 	0.57850 0.91790 0.35440 -0.00800
H 	H 	0.99300 0.83870 0.35960 0.03200
H 	H 	0.86650 0.74990 0.42340 0.00900
H 	H 	0.69380 0.86970 0.82480 0.04900
H 	H 	0.82540 0.93600 0.99700 0.06000
H 	H 	0.71240 0.21490 0.05680 0.06300
H 	H 	0.59140 0.15140 0.88360 0.05600
H 	H 	0.61490 0.04020 0.14660 0.07200
H 	H 	0.58430 0.95080 0.22940 0.04800
H 	H 	0.04510 0.98840 0.34660 0.05200
H 	H 	0.07570 0.07770 0.26360 0.05900
H 	H 	0.88740 0.26270 0.33520 0.06100
H 	H 	0.02320 0.43020 0.43260 0.06300
H 	H 	0.15620 0.38900 0.19100 0.05700
H 	H 	0.04830 0.21950 0.10560 0.06900
H 	H 	0.10800 0.66480 0.15280 0.15500
H 	H 	0.15600 0.77740 0.17720 0.15800
H 	H 	0.17350 0.64680 0.00980 -0.01100
H 	H 	0.31130 0.61220 0.06720 0.00800
H 	H 	0.31230 0.81710 0.10620 0.08400
H 	H 	0.45330 0.77400 0.15000 0.09400
H 	H 	0.37390 0.76100 0.95900 0.05100
H 	H 	0.37060 0.64880 0.94220 0.05200
H 	H 	0.65100 0.42030 0.46060 0.02100
H 	H 	0.58960 0.34670 0.27820 0.03000
H 	H 	0.33240 0.18090 0.33640 -0.03300
H 	H 	0.76720 0.22890 0.46620 0.01400
H 	H 	0.95070 0.13230 0.52160 0.02800
H 	H 	0.65860 0.21520 0.68140 -0.01800
H 	H 	0.42150 0.56350 0.64560 -0.00900
H 	H 	0.00700 0.47910 0.64040 0.03200
H 	H 	0.13350 0.32650 0.57660 0.00800
H 	H 	0.30620 0.04490 0.17520 0.05000
H 	H 	0.17460 0.93900 0.00300 0.06400
H 	H 	0.28760 0.15810 0.94320 0.06300
H 	H 	0.40860 0.26780 0.11640 0.05800
H 	H 	0.38510 0.89360 0.85340 0.07000
H 	H 	0.41570 0.72140 0.77060 0.05100
H 	H 	0.95490 0.64180 0.65340 0.05400
H 	H 	0.92430 0.81410 0.73640 0.05800
H 	H 	0.11260 0.92750 0.66480 0.04700
H 	H 	0.97680 0.99760 0.56740 0.08000
H 	H 	0.84380 0.19800 0.80900 0.06500
H 	H 	0.95170 0.11390 0.89440 0.05800
H 	H 	0.89200 0.51200 0.84720 0.15500
H 	H 	0.84400 0.60020 0.82280 0.15700
H 	H 	0.82650 0.63700 0.99020 -0.01100
H 	H 	0.68870 0.54500 0.93280 0.00700
H 	H 	0.68770 0.71090 0.89380 0.08300
H 	H 	0.54670 0.62400 0.85000 0.09300
H 	H 	0.62610 0.80200 0.04100 0.05100
H 	H 	0.62940 0.70660 0.05780 0.05300
C 	C 	0.42290 0.95145 0.58810 0.01600
C 	C 	0.45420 0.01046 0.68772 -0.02700
C 	C 	0.59760 0.88730 0.65540 0.10900
C 	C 	0.23180 0.69630 0.48260 0.02000
C 	C 	0.12990 0.61200 0.45240 -0.00500
C 	C 	0.29070 0.57193 0.36606 0.10300
C 	C 	0.66590 0.88752 0.36504 0.09800
C 	C 	0.89430 0.84366 0.36672 -0.00100
C 	C 	0.82440 0.79590 0.40300 -0.00400
C 	C 	0.32080 0.73131 0.26082 0.41600
C 	C 	0.63380 0.00660 0.83820 0.07100
C 	C 	0.70110 0.93925 0.87090 -0.06300
C 	C 	0.77900 0.97926 0.97412 -0.08300
C 	C 	0.78800 0.08362 0.04364 0.09100
C 	C 	0.71310 0.14658 0.01016 -0.08400
C 	C 	0.63820 0.10806 0.90632 -0.07300
C 	C 	0.84830 0.06785 0.19694 0.09700
C 	C 	0.70110 0.02983 0.18668 -0.10300
C 	C 	0.68280 0.97625 0.23630 -0.05800
C 	C 	0.81170 0.96070 0.29620 0.06900
C 	C 	0.95890 0.99873 0.30646 -0.06700
C 	C 	0.97720 0.05232 0.25684 -0.09700
C 	C 	0.94540 0.22417 0.20594 0.09600
C 	C 	0.94250 0.28793 0.30686 -0.08400
C 	C 	0.02220 0.38930 0.36520 -0.08300
C 	C 	0.09800 0.42667 0.32154 0.08500
C 	C 	0.10510 0.36323 0.22086 -0.06700
C 	C 	0.03510 0.26322 0.16884 -0.08800
C 	C 	0.19360 0.71310 0.16600 -0.41400
C 	C 	0.25700 0.66960 0.07240 0.10700
C 	C 	0.36400 0.75690 0.09200 -0.20000
C 	C 	0.41500 0.72010 0.99020 -0.07100
C 	C 	0.57710 0.36335 0.41190 -0.00100
C 	C 	0.54580 0.32274 0.31228 -0.00600
C 	C 	0.40240 0.23190 0.34460 0.10900
C 	C 	0.76820 0.21370 0.51740 0.01900
C 	C 	0.87010 0.15960 0.54760 -0.00500
C 	C 	0.70930 0.20587 0.63394 0.10300
C 	C 	0.33410 0.52248 0.63496 0.09800
C 	C 	0.10570 0.47694 0.63328 -0.00000
C 	C 	0.17560 0.39290 0.59700 -0.00400
C 	C 	0.67920 0.47049 0.73918 0.41600
C 	C 	0.36620 0.16840 0.16180 0.08400
C 	C 	0.29890 0.06835 0.12910 -0.07200
C 	C 	0.22100 0.00514 0.02588 -0.08900
C 	C 	0.21200 0.03998 0.95636 0.08500
C 	C 	0.28690 0.13642 0.98984 -0.08500
C 	C 	0.36180 0.20174 0.09368 -0.07400
C 	C 	0.15170 0.87091 0.80306 0.09100
C 	C 	0.29890 0.84315 0.81332 -0.09000
C 	C 	0.31720 0.73995 0.76370 -0.07100
C 	C 	0.18830 0.66450 0.70380 0.07500
C 	C 	0.04110 0.69227 0.69354 -0.07600
C 	C 	0.02280 0.79548 0.74316 -0.08700
C 	C 	0.05460 0.01823 0.79406 0.06000
C 	C 	0.05750 0.98107 0.69314 -0.04000
C 	C 	0.97780 0.02410 0.63480 -0.12400
C 	C 	0.90200 0.10513 0.67846 0.10500
C 	C 	0.89490 0.14237 0.77914 -0.09100
C 	C 	0.96490 0.09438 0.83116 -0.06000
C 	C 	0.80640 0.54710 0.83400 -0.41300
C 	C 	0.74300 0.59720 0.92760 0.10600
C 	C 	0.63600 0.66490 0.90800 -0.20000
C 	C 	0.58500 0.72990 0.00980 -0.07200
N 	N 	0.51770 0.87505 0.56690 -0.25100
N 	N 	0.56740 0.96758 0.73196 -0.13000
N 	N 	0.32820 0.66873 0.42766 -0.24500
N 	N 	0.16880 0.53103 0.37766 -0.13900
N 	N 	0.68070 0.82522 0.40504 -0.23600
N 	N 	0.79290 0.90017 0.34274 -0.13800
N 	N 	0.86750 0.12423 0.14786 -0.15700
N 	N 	0.48230 0.30815 0.43310 -0.25000
N 	N 	0.43260 0.23562 0.26804 -0.13900
N 	N 	0.67180 0.24107 0.57234 -0.24500
N 	N 	0.83120 0.15337 0.62234 -0.14300
N 	N 	0.31930 0.42018 0.59496 -0.23600
N 	N 	0.20710 0.55743 0.65726 -0.13900
N 	N 	0.13250 0.97637 0.85214 -0.14500
O 	O 	0.40700 0.66659 0.25898 -0.41400
O 	O 	0.33300 0.81172 0.34304 -0.42100
O 	O 	0.59300 0.40761 0.74102 -0.41500
O 	O 	0.66700 0.46868 0.65696 -0.42200
