data_crystal

_cell_length_a 38.07400
_cell_length_b 38.07400
_cell_length_c 24.31600
_cell_angle_alpha 90.00000
_cell_angle_beta  90.00000
_cell_angle_gamma 120.00000

_symmetry_space_group_name_	'P 1'
_symmetry_space_group_name_H-M	'P 1'

loop_
_symmetry_equiv_pos_as_xyz
  x,y,z

loop_
_atom_site_label
_atom_site_type_symbol
_atom_site_fract_x
_atom_site_fract_y
_atom_site_fract_z
_atom_site_charge
Gd	Gd	0.56281 0.12459 0.66625 1.11900
Gd	Gd	0.44886 0.90183 0.82513 1.60300
Cu	Cu	0.52574 0.99857 0.78976 0.90500
Cu	Cu	0.36845 0.89711 0.75036 0.86900
Cu	Cu	0.47464 0.84620 0.73877 0.87200
Cu	Cu	0.51230 0.97353 0.91923 0.86700
Cu	Cu	0.46192 0.82253 0.86765 0.90800
Cu	Cu	0.35375 0.87325 0.88086 0.90900
O 	O 	0.50740 0.94210 0.76490 -0.53200
O 	O 	0.51760 0.90750 0.69720 -0.45400
O 	O 	0.42670 0.93750 0.76210 -0.54500
O 	O 	0.47480 0.99980 0.73890 -0.40700
O 	O 	0.43290 0.86150 0.74120 -0.53600
O 	O 	0.38480 0.86180 0.68920 -0.42100
O 	O 	0.49410 0.91670 0.90530 -0.53700
O 	O 	0.50220 0.86580 0.93600 -0.38400
O 	O 	0.41990 0.83940 0.87720 -0.53400
O 	O 	0.36050 0.82110 0.91720 -0.41100
O 	O 	0.41190 0.91213 0.89910 -0.54500
O 	O 	0.45060 0.95050 0.96690 -0.43300
O 	O 	0.55630 0.08530 0.74230 -0.49300
O 	O 	0.54350 0.05110 0.82300 -0.47000
O 	O 	0.26680 0.81400 0.92580 -0.52100
O 	O 	0.29840 0.84620 0.85120 -0.53900
O 	O 	0.51050 0.78650 0.92710 -0.48600
O 	O 	0.50230 0.80780 0.84460 -0.50400
O 	O 	0.48628 0.97176 0.84940 -0.54100
O 	O 	0.37460 0.86696 0.81100 -0.52400
O 	O 	0.48610 0.86720 0.81380 -0.53600
N 	N 	0.56380 0.01330 0.72570 -0.26800
H 	H 	0.55890 0.02830 0.70160 0.08700
H 	H 	0.58950 0.02840 0.73760 0.07000
N 	N 	0.37250 0.93680 0.69610 -0.27100
H 	H 	0.36990 0.92640 0.66200 0.08500
H 	H 	0.35230 0.94220 0.70130 0.06300
N 	N 	0.45040 0.81950 0.66890 -0.27700
H 	H 	0.46990 0.82540 0.64370 0.08500
H 	H 	0.43620 0.79250 0.67340 0.06600
N 	N 	0.53900 0.96720 0.98400 -0.27600
H 	H 	0.56600 0.98360 0.98130 0.06500
H 	H 	0.53050 0.97410 0.01450 0.08500
N 	N 	0.43150 0.78080 0.91910 -0.29500
H 	H 	0.42680 0.75680 0.90570 0.08100
H 	H 	0.44540 0.78570 0.95070 0.09800
N 	N 	0.34220 0.88910 0.95450 -0.26500
H 	H 	0.33160 0.90550 0.95020 0.06900
H 	H 	0.32420 0.86690 0.97320 0.08200
C 	C 	0.55880 0.97640 0.69790 -0.32200
H 	H 	0.58370 0.97560 0.70200 0.10100
H 	H 	0.55470 0.97850 0.65900 0.10900
C 	C 	0.52370 0.93670 0.71950 0.45800
C 	C 	0.41080 0.97340 0.70080 -0.34500
H 	H 	0.40610 0.99480 0.71380 0.10400
H 	H 	0.42280 0.98110 0.66440 0.11800
C 	C 	0.43990 0.97110 0.73740 0.45700
C 	C 	0.42530 0.83360 0.65200 -0.27600
H 	H 	0.40090 0.81090 0.63700 0.08400
H 	H 	0.43870 0.85260 0.62220 0.10100
C 	C 	0.41250 0.85460 0.69610 0.40500
C 	C 	0.52960 0.92600 0.98790 -0.32100
H 	H 	0.51270 0.91370 0.02000 0.11000
H 	H 	0.55460 0.92540 0.99310 0.10200
C 	C 	0.50850 0.90180 0.93900 0.41400
C 	C 	0.38930 0.77940 0.93030 -0.34900
H 	H 	0.36740 0.75510 0.91370 0.10800
H 	H 	0.38440 0.77780 0.96960 0.11300
C 	C 	0.38880 0.81580 0.90760 0.44100
C 	C 	0.38090 0.91040 0.98480 -0.32800
H 	H 	0.38180 0.89200 0.01160 0.10600
H 	H 	0.38190 0.93300 0.00470 0.09900
C 	C 	0.41790 0.92630 0.94790 0.45200
C 	C 	0.55340 0.08320 0.79550 0.44300
H 	H 	0.55870 0.10650 0.81470 -0.15500
C 	C 	0.26880 0.82550 0.87770 0.60600
H 	H 	0.24410 0.81680 0.86000 -0.18100
C 	C 	0.51920 0.79700 0.87660 0.52100
H 	H 	0.54150 0.79610 0.86280 -0.15400
Gd	Gd	0.22948 0.45792 0.99958 1.11800
Gd	Gd	0.11552 0.23517 0.15846 1.60200
Cu	Cu	0.19241 0.33190 0.12309 0.90400
Cu	Cu	0.03512 0.23044 0.08369 0.86800
Cu	Cu	0.14131 0.17953 0.07210 0.87100
Cu	Cu	0.17897 0.30686 0.25256 0.86600
Cu	Cu	0.12859 0.15586 0.20098 0.90800
Cu	Cu	0.02042 0.20658 0.21419 0.90900
O 	O 	0.17407 0.27543 0.09823 -0.53200
O 	O 	0.18427 0.24083 0.03053 -0.45400
O 	O 	0.09337 0.27083 0.09543 -0.54600
O 	O 	0.14147 0.33313 0.07223 -0.40700
O 	O 	0.09957 0.19483 0.07453 -0.53600
O 	O 	0.05147 0.19513 0.02253 -0.42100
O 	O 	0.16077 0.25003 0.23863 -0.53700
O 	O 	0.16887 0.19913 0.26933 -0.38400
O 	O 	0.08657 0.17273 0.21053 -0.53400
O 	O 	0.02717 0.15443 0.25053 -0.41100
O 	O 	0.07857 0.24546 0.23243 -0.54500
O 	O 	0.11727 0.28383 0.30023 -0.43300
O 	O 	0.22297 0.41863 0.07563 -0.49300
O 	O 	0.21017 0.38443 0.15633 -0.47000
O 	O 	0.93347 0.14733 0.25913 -0.52100
O 	O 	0.96507 0.17953 0.18453 -0.53900
O 	O 	0.17717 0.11983 0.26043 -0.48600
O 	O 	0.16897 0.14113 0.17793 -0.50400
O 	O 	0.15295 0.30509 0.18273 -0.54100
O 	O 	0.04127 0.20029 0.14433 -0.52400
O 	O 	0.15277 0.20053 0.14713 -0.53600
N 	N 	0.23047 0.34663 0.05903 -0.26800
H 	H 	0.22557 0.36163 0.03493 0.08700
H 	H 	0.25617 0.36173 0.07093 0.07000
N 	N 	0.03917 0.27013 0.02943 -0.27100
H 	H 	0.03657 0.25973 0.99533 0.08500
H 	H 	0.01897 0.27553 0.03463 0.06300
N 	N 	0.11707 0.15283 0.00223 -0.27700
H 	H 	0.13657 0.15873 0.97703 0.08500
H 	H 	0.10287 0.12583 0.00673 0.06600
N 	N 	0.20567 0.30053 0.31733 -0.27600
H 	H 	0.23267 0.31693 0.31463 0.06500
H 	H 	0.19717 0.30743 0.34783 0.08500
N 	N 	0.09817 0.11413 0.25243 -0.29500
H 	H 	0.09347 0.09013 0.23903 0.08100
H 	H 	0.11207 0.11903 0.28403 0.09800
N 	N 	0.00887 0.22243 0.28783 -0.26500
H 	H 	0.99827 0.23883 0.28353 0.06900
H 	H 	0.99087 0.20023 0.30653 0.08200
C 	C 	0.22547 0.30973 0.03123 -0.32200
H 	H 	0.25037 0.30893 0.03533 0.10100
H 	H 	0.22137 0.31183 0.99233 0.10900
C 	C 	0.19037 0.27003 0.05283 0.45800
C 	C 	0.07747 0.30673 0.03413 -0.34500
H 	H 	0.07277 0.32813 0.04713 0.10400
H 	H 	0.08947 0.31443 0.99773 0.11800
C 	C 	0.10657 0.30443 0.07073 0.45700
C 	C 	0.09197 0.16693 0.98533 -0.27600
H 	H 	0.06757 0.14423 0.97033 0.08400
H 	H 	0.10537 0.18593 0.95553 0.10100
C 	C 	0.07917 0.18793 0.02943 0.40500
C 	C 	0.19627 0.25933 0.32123 -0.32000
H 	H 	0.17937 0.24703 0.35333 0.11000
H 	H 	0.22127 0.25873 0.32643 0.10200
C 	C 	0.17517 0.23513 0.27233 0.41400
C 	C 	0.05597 0.11273 0.26363 -0.34900
H 	H 	0.03407 0.08843 0.24703 0.10800
H 	H 	0.05107 0.11113 0.30293 0.11300
C 	C 	0.05547 0.14913 0.24093 0.44100
C 	C 	0.04757 0.24373 0.31813 -0.32700
H 	H 	0.04847 0.22533 0.34493 0.10600
H 	H 	0.04857 0.26633 0.33803 0.09900
C 	C 	0.08457 0.25963 0.28123 0.45200
C 	C 	0.22007 0.41653 0.12883 0.44300
H 	H 	0.22537 0.43983 0.14803 -0.15500
C 	C 	0.93547 0.15883 0.21103 0.60600
H 	H 	0.91077 0.15013 0.19333 -0.18100
C 	C 	0.18587 0.13033 0.20993 0.52100
H 	H 	0.20817 0.12943 0.19613 -0.15400
Gd	Gd	0.89614 0.79126 0.33292 1.11800
Gd	Gd	0.78219 0.56850 0.49180 1.60200
Cu	Cu	0.85907 0.66524 0.45643 0.90400
Cu	Cu	0.70178 0.56378 0.41703 0.86800
Cu	Cu	0.80797 0.51287 0.40544 0.87100
Cu	Cu	0.84563 0.64020 0.58590 0.86600
Cu	Cu	0.79525 0.48920 0.53432 0.90800
Cu	Cu	0.68708 0.53992 0.54753 0.90900
O 	O 	0.84073 0.60877 0.43157 -0.53200
O 	O 	0.85093 0.57417 0.36387 -0.45400
O 	O 	0.76003 0.60417 0.42877 -0.54500
O 	O 	0.80813 0.66647 0.40557 -0.40700
O 	O 	0.76623 0.52817 0.40787 -0.53600
O 	O 	0.71813 0.52847 0.35587 -0.42100
O 	O 	0.82743 0.58337 0.57197 -0.53700
O 	O 	0.83553 0.53247 0.60267 -0.38400
O 	O 	0.75323 0.50607 0.54387 -0.53400
O 	O 	0.69383 0.48777 0.58387 -0.41100
O 	O 	0.74523 0.57880 0.56577 -0.54500
O 	O 	0.78393 0.61717 0.63357 -0.43300
O 	O 	0.88963 0.75197 0.40897 -0.49300
O 	O 	0.87683 0.71777 0.48967 -0.47000
O 	O 	0.60013 0.48067 0.59247 -0.52100
O 	O 	0.63173 0.51287 0.51787 -0.53900
O 	O 	0.84383 0.45317 0.59377 -0.48600
O 	O 	0.83563 0.47447 0.51127 -0.50400
O 	O 	0.81961 0.63843 0.51607 -0.54100
O 	O 	0.70793 0.53363 0.47767 -0.52400
O 	O 	0.81943 0.53387 0.48047 -0.53600
N 	N 	0.89713 0.67997 0.39237 -0.26800
H 	H 	0.89223 0.69497 0.36827 0.08700
H 	H 	0.92283 0.69507 0.40427 0.07000
N 	N 	0.70583 0.60347 0.36277 -0.27100
H 	H 	0.70323 0.59307 0.32867 0.08500
H 	H 	0.68563 0.60887 0.36797 0.06300
N 	N 	0.78373 0.48617 0.33557 -0.27700
H 	H 	0.80323 0.49207 0.31037 0.08500
H 	H 	0.76953 0.45917 0.34007 0.06600
N 	N 	0.87233 0.63387 0.65067 -0.27600
H 	H 	0.89933 0.65027 0.64797 0.06500
H 	H 	0.86383 0.64077 0.68117 0.08500
N 	N 	0.76483 0.44747 0.58577 -0.29500
H 	H 	0.76013 0.42347 0.57237 0.08100
H 	H 	0.77873 0.45237 0.61737 0.09800
N 	N 	0.67553 0.55577 0.62117 -0.26500
H 	H 	0.66493 0.57217 0.61687 0.06900
H 	H 	0.65753 0.53357 0.63987 0.08200
C 	C 	0.89213 0.64307 0.36457 -0.32200
H 	H 	0.91703 0.64227 0.36867 0.10100
H 	H 	0.88803 0.64517 0.32567 0.10900
C 	C 	0.85703 0.60337 0.38617 0.45800
C 	C 	0.74413 0.64007 0.36747 -0.34500
H 	H 	0.73943 0.66147 0.38047 0.10400
H 	H 	0.75613 0.64777 0.33107 0.11800
C 	C 	0.77323 0.63777 0.40407 0.45700
C 	C 	0.75863 0.50027 0.31867 -0.27600
H 	H 	0.73423 0.47757 0.30367 0.08400
H 	H 	0.77203 0.51927 0.28887 0.10100
C 	C 	0.74583 0.52127 0.36277 0.40500
C 	C 	0.86293 0.59267 0.65457 -0.32000
H 	H 	0.84603 0.58037 0.68667 0.11000
H 	H 	0.88793 0.59207 0.65977 0.10200
C 	C 	0.84183 0.56847 0.60567 0.41400
C 	C 	0.72263 0.44607 0.59697 -0.34900
H 	H 	0.70073 0.42177 0.58037 0.10800
H 	H 	0.71773 0.44447 0.63627 0.11300
C 	C 	0.72213 0.48247 0.57427 0.44100
C 	C 	0.71423 0.57707 0.65147 -0.32700
H 	H 	0.71513 0.55867 0.67827 0.10600
H 	H 	0.71523 0.59967 0.67137 0.09900
C 	C 	0.75123 0.59297 0.61457 0.45200
C 	C 	0.88673 0.74987 0.46217 0.44300
H 	H 	0.89203 0.77317 0.48137 -0.15500
C 	C 	0.60213 0.49217 0.54437 0.60600
H 	H 	0.57743 0.48347 0.52667 -0.18100
C 	C 	0.85253 0.46367 0.54327 0.52100
H 	H 	0.87483 0.46277 0.52947 -0.15400
Gd	Gd	0.87541 0.43822 0.66625 1.11800
Gd	Gd	0.09817 0.54702 0.82513 1.60200
Cu	Cu	0.00143 0.52717 0.78976 0.90400
Cu	Cu	0.10289 0.47134 0.75036 0.86800
Cu	Cu	0.15380 0.62844 0.73877 0.87100
Cu	Cu	0.02647 0.53877 0.91923 0.86600
Cu	Cu	0.17747 0.63939 0.86765 0.90800
Cu	Cu	0.12675 0.48050 0.88086 0.90900
O 	O 	0.05790 0.56530 0.76490 -0.53200
O 	O 	0.09250 0.61010 0.69720 -0.45400
O 	O 	0.06250 0.48920 0.76210 -0.54500
O 	O 	0.00020 0.47500 0.73890 -0.40700
O 	O 	0.13850 0.57140 0.74120 -0.53600
O 	O 	0.13820 0.52300 0.68920 -0.42100
O 	O 	0.08330 0.57740 0.90530 -0.53700
O 	O 	0.13420 0.63640 0.93600 -0.38400
O 	O 	0.16060 0.58050 0.87720 -0.53400
O 	O 	0.17890 0.53940 0.91720 -0.41100
O 	O 	0.08787 0.49977 0.89910 -0.54500
O 	O 	0.04950 0.50010 0.96690 -0.43300
O 	O 	0.91470 0.47100 0.74230 -0.49300
O 	O 	0.94890 0.49240 0.82300 -0.47000
O 	O 	0.18600 0.45280 0.92580 -0.52100
O 	O 	0.15380 0.45220 0.85120 -0.53900
O 	O 	0.21350 0.72400 0.92710 -0.48600
O 	O 	0.19220 0.69450 0.84460 -0.50400
O 	O 	0.02824 0.51452 0.84940 -0.54100
O 	O 	0.13304 0.50764 0.81100 -0.52400
O 	O 	0.13280 0.61890 0.81380 -0.53600
N 	N 	0.98670 0.55050 0.72570 -0.26800
H 	H 	0.97170 0.53060 0.70160 0.08700
H 	H 	0.97160 0.56110 0.73760 0.07000
N 	N 	0.06320 0.43570 0.69610 -0.27100
H 	H 	0.07360 0.44350 0.66200 0.08500
H 	H 	0.05780 0.41010 0.70130 0.06300
N 	N 	0.18050 0.63090 0.66890 -0.27700
H 	H 	0.17460 0.64450 0.64370 0.08500
H 	H 	0.20750 0.64370 0.67340 0.06600
N 	N 	0.03280 0.57180 0.98400 -0.27600
H 	H 	0.01640 0.58240 0.98130 0.06500
H 	H 	0.02590 0.55640 0.01450 0.08500
N 	N 	0.21920 0.65070 0.91910 -0.29500
H 	H 	0.24320 0.67000 0.90570 0.08100
H 	H 	0.21430 0.65970 0.95070 0.09800
N 	N 	0.11090 0.45310 0.95450 -0.26500
H 	H 	0.09450 0.42610 0.95020 0.06900
H 	H 	0.13310 0.45730 0.97320 0.08200
C 	C 	0.02360 0.58240 0.69790 -0.32200
H 	H 	0.02440 0.60810 0.70200 0.10100
H 	H 	0.02150 0.57620 0.65900 0.10900
C 	C 	0.06330 0.58700 0.71950 0.45800
C 	C 	0.02660 0.43740 0.70080 -0.34500
H 	H 	0.00520 0.41130 0.71380 0.10400
H 	H 	0.01890 0.44170 0.66440 0.11800
C 	C 	0.02890 0.46880 0.73740 0.45700
C 	C 	0.16640 0.59170 0.65200 -0.27600
H 	H 	0.18910 0.59000 0.63700 0.08400
H 	H 	0.14740 0.58610 0.62220 0.10100
C 	C 	0.14540 0.55790 0.69610 0.40500
C 	C 	0.07400 0.60360 0.98790 -0.32100
H 	H 	0.08630 0.59900 0.02000 0.11000
H 	H 	0.07460 0.62920 0.99310 0.10200
C 	C 	0.09820 0.60670 0.93900 0.41400
C 	C 	0.22060 0.60990 0.93030 -0.34900
H 	H 	0.24490 0.61230 0.91370 0.10800
H 	H 	0.22220 0.60660 0.96960 0.11300
C 	C 	0.18420 0.57300 0.90760 0.44100
C 	C 	0.08960 0.47050 0.98480 -0.32700
H 	H 	0.10800 0.48980 0.01160 0.10600
H 	H 	0.06700 0.44890 0.00470 0.09900
C 	C 	0.07370 0.49160 0.94790 0.45200
C 	C 	0.91680 0.47020 0.79550 0.44300
H 	H 	0.89350 0.45220 0.81470 -0.15500
C 	C 	0.17450 0.44330 0.87770 0.60600
H 	H 	0.18320 0.42730 0.86000 -0.18100
C 	C 	0.20300 0.72220 0.87660 0.52100
H 	H 	0.20390 0.74540 0.86280 -0.15400
Gd	Gd	0.54208 0.77155 0.99958 1.11800
Gd	Gd	0.76483 0.88036 0.15846 1.60200
Cu	Cu	0.66810 0.86050 0.12309 0.90400
Cu	Cu	0.76956 0.80467 0.08369 0.86800
Cu	Cu	0.82047 0.96177 0.07210 0.87100
Cu	Cu	0.69314 0.87210 0.25256 0.86600
Cu	Cu	0.84414 0.97272 0.20098 0.90800
Cu	Cu	0.79342 0.81383 0.21419 0.90900
O 	O 	0.72457 0.89863 0.09823 -0.53200
O 	O 	0.75917 0.94343 0.03053 -0.45400
O 	O 	0.72917 0.82253 0.09543 -0.54500
O 	O 	0.66687 0.80833 0.07223 -0.40700
O 	O 	0.80517 0.90473 0.07453 -0.53600
O 	O 	0.80487 0.85633 0.02253 -0.42100
O 	O 	0.74997 0.91073 0.23863 -0.53700
O 	O 	0.80087 0.96973 0.26933 -0.38400
O 	O 	0.82727 0.91383 0.21053 -0.53400
O 	O 	0.84557 0.87273 0.25053 -0.41100
O 	O 	0.75454 0.83310 0.23243 -0.54500
O 	O 	0.71617 0.83343 0.30023 -0.43300
O 	O 	0.58137 0.80433 0.07563 -0.49300
O 	O 	0.61557 0.82573 0.15633 -0.47000
O 	O 	0.85267 0.78613 0.25913 -0.52100
O 	O 	0.82047 0.78553 0.18453 -0.53900
O 	O 	0.88017 0.05733 0.26043 -0.48600
O 	O 	0.85887 0.02783 0.17793 -0.50400
O 	O 	0.69491 0.84785 0.18273 -0.54100
O 	O 	0.79971 0.84097 0.14433 -0.52400
O 	O 	0.79947 0.95223 0.14713 -0.53600
N 	N 	0.65337 0.88383 0.05903 -0.26800
H 	H 	0.63837 0.86393 0.03493 0.08700
H 	H 	0.63827 0.89443 0.07093 0.07000
N 	N 	0.72987 0.76903 0.02943 -0.27100
H 	H 	0.74027 0.77683 0.99533 0.08500
H 	H 	0.72447 0.74343 0.03463 0.06300
N 	N 	0.84717 0.96423 0.00223 -0.27700
H 	H 	0.84127 0.97783 0.97703 0.08500
H 	H 	0.87417 0.97703 0.00673 0.06600
N 	N 	0.69947 0.90513 0.31733 -0.27600
H 	H 	0.68307 0.91573 0.31463 0.06500
H 	H 	0.69257 0.88973 0.34783 0.08500
N 	N 	0.88587 0.98403 0.25243 -0.29500
H 	H 	0.90987 0.00333 0.23903 0.08100
H 	H 	0.88097 0.99303 0.28403 0.09800
N 	N 	0.77757 0.78643 0.28783 -0.26500
H 	H 	0.76117 0.75943 0.28353 0.06900
H 	H 	0.79977 0.79063 0.30653 0.08200
C 	C 	0.69027 0.91573 0.03123 -0.32200
H 	H 	0.69107 0.94143 0.03533 0.10100
H 	H 	0.68817 0.90953 0.99233 0.10900
C 	C 	0.72997 0.92033 0.05283 0.45800
C 	C 	0.69327 0.77073 0.03413 -0.34500
H 	H 	0.67187 0.74463 0.04713 0.10400
H 	H 	0.68557 0.77503 0.99773 0.11800
C 	C 	0.69557 0.80213 0.07073 0.45700
C 	C 	0.83307 0.92503 0.98533 -0.27600
H 	H 	0.85577 0.92333 0.97033 0.08400
H 	H 	0.81407 0.91943 0.95553 0.10100
C 	C 	0.81207 0.89123 0.02943 0.40500
C 	C 	0.74067 0.93693 0.32123 -0.32000
H 	H 	0.75297 0.93233 0.35333 0.11000
H 	H 	0.74127 0.96253 0.32643 0.10200
C 	C 	0.76487 0.94003 0.27233 0.41400
C 	C 	0.88727 0.94323 0.26363 -0.34900
H 	H 	0.91157 0.94563 0.24703 0.10800
H 	H 	0.88887 0.93993 0.30293 0.11300
C 	C 	0.85087 0.90633 0.24093 0.44100
C 	C 	0.75627 0.80383 0.31813 -0.32700
H 	H 	0.77467 0.82313 0.34493 0.10600
H 	H 	0.73367 0.78223 0.33803 0.09900
C 	C 	0.74037 0.82493 0.28123 0.45200
C 	C 	0.58347 0.80353 0.12883 0.44300
H 	H 	0.56017 0.78553 0.14803 -0.15500
C 	C 	0.84117 0.77663 0.21103 0.60600
H 	H 	0.84987 0.76063 0.19333 -0.18100
C 	C 	0.86967 0.05553 0.20993 0.52100
H 	H 	0.87057 0.07873 0.19613 -0.15400
Gd	Gd	0.20874 0.10489 0.33292 1.11800
Gd	Gd	0.43150 0.21369 0.49180 1.60200
Cu	Cu	0.33476 0.19384 0.45643 0.90400
Cu	Cu	0.43622 0.13801 0.41703 0.86800
Cu	Cu	0.48713 0.29511 0.40544 0.87100
Cu	Cu	0.35980 0.20544 0.58590 0.86600
Cu	Cu	0.51080 0.30606 0.53432 0.90800
Cu	Cu	0.46008 0.14717 0.54753 0.90900
O 	O 	0.39123 0.23197 0.43157 -0.53200
O 	O 	0.42583 0.27677 0.36387 -0.45400
O 	O 	0.39583 0.15587 0.42877 -0.54500
O 	O 	0.33353 0.14167 0.40557 -0.40700
O 	O 	0.47183 0.23807 0.40787 -0.53600
O 	O 	0.47153 0.18967 0.35587 -0.42100
O 	O 	0.41663 0.24407 0.57197 -0.53700
O 	O 	0.46753 0.30307 0.60267 -0.38400
O 	O 	0.49393 0.24717 0.54387 -0.53400
O 	O 	0.51223 0.20607 0.58387 -0.41100
O 	O 	0.42120 0.16644 0.56577 -0.54500
O 	O 	0.38283 0.16677 0.63357 -0.43300
O 	O 	0.24803 0.13767 0.40897 -0.49300
O 	O 	0.28223 0.15907 0.48967 -0.47000
O 	O 	0.51933 0.11947 0.59247 -0.52100
O 	O 	0.48713 0.11887 0.51787 -0.53900
O 	O 	0.54683 0.39067 0.59377 -0.48600
O 	O 	0.52553 0.36117 0.51127 -0.50400
O 	O 	0.36157 0.18119 0.51607 -0.54100
O 	O 	0.46637 0.17431 0.47767 -0.52400
O 	O 	0.46613 0.28557 0.48047 -0.53600
N 	N 	0.32003 0.21717 0.39237 -0.26800
H 	H 	0.30503 0.19727 0.36827 0.08700
H 	H 	0.30493 0.22777 0.40427 0.07000
N 	N 	0.39653 0.10237 0.36277 -0.27100
H 	H 	0.40693 0.11017 0.32867 0.08500
H 	H 	0.39113 0.07677 0.36797 0.06300
N 	N 	0.51383 0.29757 0.33557 -0.27700
H 	H 	0.50793 0.31117 0.31037 0.08500
H 	H 	0.54083 0.31037 0.34007 0.06600
N 	N 	0.36613 0.23847 0.65067 -0.27600
H 	H 	0.34973 0.24907 0.64797 0.06500
H 	H 	0.35923 0.22307 0.68117 0.08500
N 	N 	0.55253 0.31737 0.58577 -0.29500
H 	H 	0.57653 0.33667 0.57237 0.08100
H 	H 	0.54763 0.32637 0.61737 0.09800
N 	N 	0.44423 0.11977 0.62117 -0.26500
H 	H 	0.42783 0.09277 0.61687 0.06900
H 	H 	0.46643 0.12397 0.63987 0.08200
C 	C 	0.35693 0.24907 0.36457 -0.32200
H 	H 	0.35773 0.27477 0.36867 0.10100
H 	H 	0.35483 0.24287 0.32567 0.10900
C 	C 	0.39663 0.25367 0.38617 0.45800
C 	C 	0.35993 0.10407 0.36747 -0.34500
H 	H 	0.33853 0.07797 0.38047 0.10400
H 	H 	0.35223 0.10837 0.33107 0.11800
C 	C 	0.36223 0.13547 0.40407 0.45700
C 	C 	0.49973 0.25837 0.31867 -0.27600
H 	H 	0.52243 0.25667 0.30367 0.08400
H 	H 	0.48073 0.25277 0.28887 0.10100
C 	C 	0.47873 0.22457 0.36277 0.40500
C 	C 	0.40733 0.27027 0.65457 -0.32000
H 	H 	0.41963 0.26567 0.68667 0.11000
H 	H 	0.40793 0.29587 0.65977 0.10200
C 	C 	0.43153 0.27337 0.60567 0.41400
C 	C 	0.55393 0.27657 0.59697 -0.34900
H 	H 	0.57823 0.27897 0.58037 0.10800
H 	H 	0.55553 0.27327 0.63627 0.11300
C 	C 	0.51753 0.23967 0.57427 0.44100
C 	C 	0.42293 0.13717 0.65147 -0.32700
H 	H 	0.44133 0.15647 0.67827 0.10600
H 	H 	0.40033 0.11557 0.67137 0.09900
C 	C 	0.40703 0.15827 0.61457 0.45200
C 	C 	0.25013 0.13687 0.46217 0.44300
H 	H 	0.22683 0.11887 0.48137 -0.15500
C 	C 	0.50783 0.10997 0.54437 0.60600
H 	H 	0.51653 0.09397 0.52667 -0.18100
C 	C 	0.53633 0.38887 0.54327 0.52100
H 	H 	0.53723 0.41207 0.52947 -0.15400
Gd	Gd	0.56178 0.43719 0.66625 1.11800
Gd	Gd	0.45298 0.55114 0.82513 1.60200
Cu	Cu	0.47283 0.47426 0.78976 0.90400
Cu	Cu	0.52866 0.63155 0.75036 0.86800
Cu	Cu	0.37156 0.52536 0.73877 0.87100
Cu	Cu	0.46123 0.48770 0.91923 0.86600
Cu	Cu	0.36061 0.53808 0.86765 0.90800
Cu	Cu	0.51950 0.64625 0.88086 0.90900
O 	O 	0.43470 0.49260 0.76490 -0.53200
O 	O 	0.38990 0.48240 0.69720 -0.45400
O 	O 	0.51080 0.57330 0.76210 -0.54500
O 	O 	0.52500 0.52520 0.73890 -0.40700
O 	O 	0.42860 0.56710 0.74120 -0.53600
O 	O 	0.47700 0.61520 0.68920 -0.42100
O 	O 	0.42260 0.50590 0.90530 -0.53700
O 	O 	0.36360 0.49780 0.93600 -0.38400
O 	O 	0.41950 0.58010 0.87720 -0.53400
O 	O 	0.46060 0.63950 0.91720 -0.41100
O 	O 	0.50023 0.58810 0.89910 -0.54500
O 	O 	0.49990 0.54940 0.96690 -0.43300
O 	O 	0.52900 0.44370 0.74230 -0.49300
O 	O 	0.50760 0.45650 0.82300 -0.47000
O 	O 	0.54720 0.73320 0.92580 -0.52100
O 	O 	0.54780 0.70160 0.85120 -0.53900
O 	O 	0.27600 0.48950 0.92710 -0.48600
O 	O 	0.30550 0.49770 0.84460 -0.50400
O 	O 	0.48548 0.51372 0.84940 -0.54100
O 	O 	0.49236 0.62540 0.81100 -0.52400
O 	O 	0.38110 0.51390 0.81380 -0.53600
N 	N 	0.44950 0.43620 0.72570 -0.26800
H 	H 	0.46940 0.44110 0.70160 0.08700
H 	H 	0.43890 0.41050 0.73760 0.07000
N 	N 	0.56430 0.62750 0.69610 -0.27100
H 	H 	0.55650 0.63010 0.66200 0.08500
H 	H 	0.58990 0.64770 0.70130 0.06300
N 	N 	0.36910 0.54960 0.66890 -0.27700
H 	H 	0.35550 0.53010 0.64370 0.08500
H 	H 	0.35630 0.56380 0.67340 0.06600
N 	N 	0.42820 0.46100 0.98400 -0.27600
H 	H 	0.41760 0.43400 0.98130 0.06500
H 	H 	0.44360 0.46950 0.01450 0.08500
N 	N 	0.34930 0.56850 0.91910 -0.29500
H 	H 	0.33000 0.57320 0.90570 0.08100
H 	H 	0.34030 0.55460 0.95070 0.09800
N 	N 	0.54690 0.65780 0.95450 -0.26500
H 	H 	0.57390 0.66840 0.95020 0.06900
H 	H 	0.54270 0.67580 0.97320 0.08200
C 	C 	0.41760 0.44120 0.69790 -0.32200
H 	H 	0.39190 0.41630 0.70200 0.10100
H 	H 	0.42380 0.44530 0.65900 0.10900
C 	C 	0.41300 0.47630 0.71950 0.45800
C 	C 	0.56260 0.58920 0.70080 -0.34500
H 	H 	0.58870 0.59390 0.71380 0.10400
H 	H 	0.55830 0.57720 0.66440 0.11800
C 	C 	0.53120 0.56010 0.73740 0.45700
C 	C 	0.40830 0.57470 0.65200 -0.27600
H 	H 	0.41000 0.59910 0.63700 0.08400
H 	H 	0.41390 0.56130 0.62220 0.10100
C 	C 	0.44210 0.58750 0.69610 0.40500
C 	C 	0.39640 0.47040 0.98790 -0.32000
H 	H 	0.40100 0.48730 0.02000 0.11000
H 	H 	0.37080 0.44540 0.99310 0.10200
C 	C 	0.39330 0.49150 0.93900 0.41400
C 	C 	0.39010 0.61070 0.93030 -0.34900
H 	H 	0.38770 0.63260 0.91370 0.10800
H 	H 	0.39340 0.61560 0.96960 0.11300
C 	C 	0.42700 0.61120 0.90760 0.44100
C 	C 	0.52950 0.61910 0.98480 -0.32700
H 	H 	0.51020 0.61820 0.01160 0.10600
H 	H 	0.55110 0.61810 0.00470 0.09900
C 	C 	0.50840 0.58210 0.94790 0.45200
C 	C 	0.52980 0.44660 0.79550 0.44300
H 	H 	0.54780 0.44130 0.81470 -0.15500
C 	C 	0.55670 0.73120 0.87770 0.60600
H 	H 	0.57270 0.75590 0.86000 -0.18100
C 	C 	0.27780 0.48080 0.87660 0.52100
H 	H 	0.25460 0.45850 0.86280 -0.15400
Gd	Gd	0.22845 0.77052 0.99958 1.11800
Gd	Gd	0.11964 0.88448 0.15846 1.60200
Cu	Cu	0.13950 0.80759 0.12309 0.90400
Cu	Cu	0.19533 0.96488 0.08369 0.86800
Cu	Cu	0.03823 0.85869 0.07210 0.87100
Cu	Cu	0.12790 0.82103 0.25256 0.86600
Cu	Cu	0.02728 0.87141 0.20098 0.90800
Cu	Cu	0.18617 0.97958 0.21419 0.90900
O 	O 	0.10137 0.82593 0.09823 -0.53200
O 	O 	0.05657 0.81573 0.03053 -0.45400
O 	O 	0.17747 0.90663 0.09543 -0.54500
O 	O 	0.19167 0.85853 0.07223 -0.40700
O 	O 	0.09527 0.90043 0.07453 -0.53700
O 	O 	0.14367 0.94853 0.02253 -0.42100
O 	O 	0.08927 0.83923 0.23863 -0.53700
O 	O 	0.03027 0.83113 0.26933 -0.38400
O 	O 	0.08617 0.91343 0.21053 -0.53400
O 	O 	0.12727 0.97283 0.25053 -0.41100
O 	O 	0.16690 0.92143 0.23243 -0.54500
O 	O 	0.16657 0.88273 0.30023 -0.43300
O 	O 	0.19567 0.77703 0.07563 -0.49300
O 	O 	0.17427 0.78983 0.15633 -0.47000
O 	O 	0.21387 0.06653 0.25913 -0.52100
O 	O 	0.21447 0.03493 0.18453 -0.53900
O 	O 	0.94267 0.82283 0.26043 -0.48600
O 	O 	0.97217 0.83103 0.17793 -0.50400
O 	O 	0.15215 0.84705 0.18273 -0.54100
O 	O 	0.15903 0.95873 0.14433 -0.52400
O 	O 	0.04777 0.84723 0.14713 -0.53600
N 	N 	0.11617 0.76953 0.05903 -0.26800
H 	H 	0.13607 0.77443 0.03493 0.08700
H 	H 	0.10557 0.74383 0.07093 0.07000
N 	N 	0.23097 0.96083 0.02943 -0.27100
H 	H 	0.22317 0.96343 0.99533 0.08500
H 	H 	0.25657 0.98103 0.03463 0.06300
N 	N 	0.03577 0.88293 0.00223 -0.27700
H 	H 	0.02217 0.86343 0.97703 0.08500
H 	H 	0.02297 0.89713 0.00673 0.06600
N 	N 	0.09487 0.79433 0.31733 -0.27600
H 	H 	0.08427 0.76733 0.31463 0.06500
H 	H 	0.11027 0.80283 0.34783 0.08500
N 	N 	0.01597 0.90183 0.25243 -0.29500
H 	H 	0.99667 0.90653 0.23903 0.08100
H 	H 	0.00697 0.88793 0.28403 0.09800
N 	N 	0.21357 0.99113 0.28783 -0.26500
H 	H 	0.24057 0.00173 0.28353 0.06900
H 	H 	0.20937 0.00913 0.30653 0.08200
C 	C 	0.08427 0.77453 0.03123 -0.32100
H 	H 	0.05857 0.74963 0.03533 0.10100
H 	H 	0.09047 0.77863 0.99233 0.10900
C 	C 	0.07967 0.80963 0.05283 0.45800
C 	C 	0.22927 0.92253 0.03413 -0.34500
H 	H 	0.25537 0.92723 0.04713 0.10400
H 	H 	0.22497 0.91053 0.99773 0.11800
C 	C 	0.19787 0.89343 0.07073 0.45700
C 	C 	0.07497 0.90803 0.98533 -0.27600
H 	H 	0.07667 0.93243 0.97033 0.08500
H 	H 	0.08057 0.89463 0.95553 0.10100
C 	C 	0.10877 0.92083 0.02943 0.40600
C 	C 	0.06307 0.80373 0.32123 -0.32000
H 	H 	0.06767 0.82063 0.35333 0.11000
H 	H 	0.03747 0.77873 0.32643 0.10200
C 	C 	0.05997 0.82483 0.27233 0.41400
C 	C 	0.05677 0.94403 0.26363 -0.34900
H 	H 	0.05437 0.96593 0.24703 0.10800
H 	H 	0.06007 0.94893 0.30293 0.11300
C 	C 	0.09367 0.94453 0.24093 0.44100
C 	C 	0.19617 0.95243 0.31813 -0.32700
H 	H 	0.17687 0.95153 0.34493 0.10600
H 	H 	0.21777 0.95143 0.33803 0.09900
C 	C 	0.17507 0.91543 0.28123 0.45200
C 	C 	0.19647 0.77993 0.12883 0.44300
H 	H 	0.21447 0.77463 0.14803 -0.15500
C 	C 	0.22337 0.06453 0.21103 0.60500
H 	H 	0.23937 0.08923 0.19333 -0.18100
C 	C 	0.94447 0.81413 0.20993 0.52100
H 	H 	0.92127 0.79183 0.19613 -0.15400
Gd	Gd	0.89511 0.10386 0.33292 1.11800
Gd	Gd	0.78631 0.21781 0.49180 1.60200
Cu	Cu	0.80616 0.14093 0.45643 0.90400
Cu	Cu	0.86199 0.29822 0.41703 0.86800
Cu	Cu	0.70489 0.19203 0.40544 0.87100
Cu	Cu	0.79456 0.15437 0.58590 0.86600
Cu	Cu	0.69394 0.20475 0.53432 0.90800
Cu	Cu	0.85283 0.31292 0.54753 0.90900
O 	O 	0.76803 0.15927 0.43157 -0.53200
O 	O 	0.72323 0.14907 0.36387 -0.45400
O 	O 	0.84413 0.23997 0.42877 -0.54500
O 	O 	0.85833 0.19187 0.40557 -0.40700
O 	O 	0.76193 0.23377 0.40787 -0.53600
O 	O 	0.81033 0.28187 0.35587 -0.42100
O 	O 	0.75593 0.17257 0.57197 -0.53700
O 	O 	0.69693 0.16447 0.60267 -0.38400
O 	O 	0.75283 0.24677 0.54387 -0.53400
O 	O 	0.79393 0.30617 0.58387 -0.41100
O 	O 	0.83356 0.25477 0.56577 -0.54500
O 	O 	0.83323 0.21607 0.63357 -0.43300
O 	O 	0.86233 0.11037 0.40897 -0.49300
O 	O 	0.84093 0.12317 0.48967 -0.47000
O 	O 	0.88053 0.39987 0.59247 -0.52100
O 	O 	0.88113 0.36827 0.51787 -0.53900
O 	O 	0.60933 0.15617 0.59377 -0.48600
O 	O 	0.63883 0.16437 0.51127 -0.50400
O 	O 	0.81881 0.18039 0.51607 -0.54100
O 	O 	0.82569 0.29207 0.47767 -0.52400
O 	O 	0.71443 0.18057 0.48047 -0.53600
N 	N 	0.78283 0.10287 0.39237 -0.26800
H 	H 	0.80273 0.10777 0.36827 0.08700
H 	H 	0.77223 0.07717 0.40427 0.07000
N 	N 	0.89763 0.29417 0.36277 -0.27100
H 	H 	0.88983 0.29677 0.32867 0.08500
H 	H 	0.92323 0.31437 0.36797 0.06300
N 	N 	0.70243 0.21627 0.33557 -0.27700
H 	H 	0.68883 0.19677 0.31037 0.08500
H 	H 	0.68963 0.23047 0.34007 0.06600
N 	N 	0.76153 0.12767 0.65067 -0.27600
H 	H 	0.75093 0.10067 0.64797 0.06500
H 	H 	0.77693 0.13617 0.68117 0.08500
N 	N 	0.68263 0.23517 0.58577 -0.29500
H 	H 	0.66333 0.23987 0.57237 0.08100
H 	H 	0.67363 0.22127 0.61737 0.09800
N 	N 	0.88023 0.32447 0.62117 -0.26500
H 	H 	0.90723 0.33507 0.61687 0.06900
H 	H 	0.87603 0.34247 0.63987 0.08200
C 	C 	0.75093 0.10787 0.36457 -0.32200
H 	H 	0.72523 0.08297 0.36867 0.10100
H 	H 	0.75713 0.11197 0.32567 0.10900
C 	C 	0.74633 0.14297 0.38617 0.45800
C 	C 	0.89593 0.25587 0.36747 -0.34500
H 	H 	0.92203 0.26057 0.38047 0.10400
H 	H 	0.89163 0.24387 0.33107 0.11800
C 	C 	0.86453 0.22677 0.40407 0.45700
C 	C 	0.74163 0.24137 0.31867 -0.27600
H 	H 	0.74333 0.26577 0.30367 0.08400
H 	H 	0.74723 0.22797 0.28887 0.10100
C 	C 	0.77543 0.25417 0.36277 0.40500
C 	C 	0.72973 0.13707 0.65457 -0.32000
H 	H 	0.73433 0.15397 0.68667 0.11000
H 	H 	0.70413 0.11207 0.65977 0.10200
C 	C 	0.72663 0.15817 0.60567 0.41400
C 	C 	0.72343 0.27737 0.59697 -0.34900
H 	H 	0.72103 0.29927 0.58037 0.10800
H 	H 	0.72673 0.28227 0.63627 0.11300
C 	C 	0.76033 0.27787 0.57427 0.44100
C 	C 	0.86283 0.28577 0.65147 -0.32700
H 	H 	0.84353 0.28487 0.67827 0.10600
H 	H 	0.88443 0.28477 0.67137 0.09900
C 	C 	0.84173 0.24877 0.61457 0.45200
C 	C 	0.86313 0.11327 0.46217 0.44300
H 	H 	0.88113 0.10797 0.48137 -0.15500
C 	C 	0.89003 0.39787 0.54437 0.60600
H 	H 	0.90603 0.42257 0.52667 -0.18100
C 	C 	0.61113 0.14747 0.54327 0.52100
H 	H 	0.58793 0.12517 0.52947 -0.15400
Gd	Gd	0.43719 0.87541 0.33375 1.11800
Gd	Gd	0.55114 0.09817 0.17487 1.60200
Cu	Cu	0.47426 0.00143 0.21024 0.90400
Cu	Cu	0.63155 0.10289 0.24964 0.86800
Cu	Cu	0.52536 0.15380 0.26123 0.87100
Cu	Cu	0.48770 0.02647 0.08077 0.86600
Cu	Cu	0.53808 0.17747 0.13235 0.90800
Cu	Cu	0.64625 0.12675 0.11914 0.90900
O 	O 	0.49260 0.05790 0.23510 -0.53200
O 	O 	0.48240 0.09250 0.30280 -0.45400
O 	O 	0.57330 0.06250 0.23790 -0.54500
O 	O 	0.52520 0.00020 0.26110 -0.40700
O 	O 	0.56710 0.13850 0.25880 -0.53600
O 	O 	0.61520 0.13820 0.31080 -0.42100
O 	O 	0.50590 0.08330 0.09470 -0.53700
O 	O 	0.49780 0.13420 0.06400 -0.38400
O 	O 	0.58010 0.16060 0.12280 -0.53400
O 	O 	0.63950 0.17890 0.08280 -0.41100
O 	O 	0.58810 0.08787 0.10090 -0.54500
O 	O 	0.54940 0.04950 0.03310 -0.43300
O 	O 	0.44370 0.91470 0.25770 -0.49300
O 	O 	0.45650 0.94890 0.17700 -0.47000
O 	O 	0.73320 0.18600 0.07420 -0.52100
O 	O 	0.70160 0.15380 0.14880 -0.53900
O 	O 	0.48950 0.21350 0.07290 -0.48600
O 	O 	0.49770 0.19220 0.15540 -0.50400
O 	O 	0.51372 0.02824 0.15060 -0.54100
O 	O 	0.62540 0.13304 0.18900 -0.52400
O 	O 	0.51390 0.13280 0.18620 -0.53600
N 	N 	0.43620 0.98670 0.27430 -0.26800
H 	H 	0.44110 0.97170 0.29840 0.08700
H 	H 	0.41050 0.97160 0.26240 0.07000
N 	N 	0.62750 0.06320 0.30390 -0.27100
H 	H 	0.63010 0.07360 0.33800 0.08500
H 	H 	0.64770 0.05780 0.29870 0.06300
N 	N 	0.54960 0.18050 0.33110 -0.27700
H 	H 	0.53010 0.17460 0.35630 0.08500
H 	H 	0.56380 0.20750 0.32660 0.06600
N 	N 	0.46100 0.03280 0.01600 -0.27600
H 	H 	0.43400 0.01640 0.01870 0.06500
H 	H 	0.46950 0.02590 0.98550 0.08500
N 	N 	0.56850 0.21920 0.08090 -0.29500
H 	H 	0.57320 0.24320 0.09430 0.08100
H 	H 	0.55460 0.21430 0.04930 0.09800
N 	N 	0.65780 0.11090 0.04550 -0.26500
H 	H 	0.66840 0.09450 0.04980 0.06900
H 	H 	0.67580 0.13310 0.02680 0.08200
C 	C 	0.44120 0.02360 0.30210 -0.32200
H 	H 	0.41630 0.02440 0.29800 0.10100
H 	H 	0.44530 0.02150 0.34100 0.10900
C 	C 	0.47630 0.06330 0.28050 0.45800
C 	C 	0.58920 0.02660 0.29920 -0.34500
H 	H 	0.59390 0.00520 0.28620 0.10400
H 	H 	0.57720 0.01890 0.33560 0.11800
C 	C 	0.56010 0.02890 0.26260 0.45700
C 	C 	0.57470 0.16640 0.34800 -0.27600
H 	H 	0.59910 0.18910 0.36300 0.08400
H 	H 	0.56130 0.14740 0.37780 0.10100
C 	C 	0.58750 0.14540 0.30390 0.40500
C 	C 	0.47040 0.07400 0.01210 -0.32100
H 	H 	0.48730 0.08630 0.98000 0.11000
H 	H 	0.44540 0.07460 0.00690 0.10200
C 	C 	0.49150 0.09820 0.06100 0.41400
C 	C 	0.61070 0.22060 0.06970 -0.34900
H 	H 	0.63260 0.24490 0.08630 0.10800
H 	H 	0.61560 0.22220 0.03040 0.11300
C 	C 	0.61120 0.18420 0.09240 0.44100
C 	C 	0.61910 0.08960 0.01520 -0.32800
H 	H 	0.61820 0.10800 0.98840 0.10600
H 	H 	0.61810 0.06700 0.99530 0.09900
C 	C 	0.58210 0.07370 0.05210 0.45200
C 	C 	0.44660 0.91680 0.20450 0.44300
H 	H 	0.44130 0.89350 0.18530 -0.15500
C 	C 	0.73120 0.17450 0.12230 0.60600
H 	H 	0.75590 0.18320 0.14000 -0.18100
C 	C 	0.48080 0.20300 0.12340 0.52100
H 	H 	0.45850 0.20390 0.13720 -0.15400
Gd	Gd	0.10386 0.20874 0.66708 1.11800
Gd	Gd	0.21781 0.43150 0.50820 1.60200
Cu	Cu	0.14093 0.33476 0.54357 0.90400
Cu	Cu	0.29822 0.43622 0.58297 0.86800
Cu	Cu	0.19203 0.48713 0.59456 0.87100
Cu	Cu	0.15437 0.35980 0.41410 0.86600
Cu	Cu	0.20475 0.51080 0.46568 0.90800
Cu	Cu	0.31292 0.46008 0.45247 0.90900
O 	O 	0.15927 0.39123 0.56843 -0.53200
O 	O 	0.14907 0.42583 0.63613 -0.45400
O 	O 	0.23997 0.39583 0.57123 -0.54500
O 	O 	0.19187 0.33353 0.59443 -0.40700
O 	O 	0.23377 0.47183 0.59213 -0.53600
O 	O 	0.28187 0.47153 0.64413 -0.42100
O 	O 	0.17257 0.41663 0.42803 -0.53700
O 	O 	0.16447 0.46753 0.39733 -0.38400
O 	O 	0.24677 0.49393 0.45613 -0.53400
O 	O 	0.30617 0.51223 0.41613 -0.41100
O 	O 	0.25477 0.42120 0.43423 -0.54500
O 	O 	0.21607 0.38283 0.36643 -0.43300
O 	O 	0.11037 0.24803 0.59103 -0.49300
O 	O 	0.12317 0.28223 0.51033 -0.47000
O 	O 	0.39987 0.51933 0.40753 -0.52100
O 	O 	0.36827 0.48713 0.48213 -0.53900
O 	O 	0.15617 0.54683 0.40623 -0.48600
O 	O 	0.16437 0.52553 0.48873 -0.50400
O 	O 	0.18039 0.36157 0.48393 -0.54100
O 	O 	0.29207 0.46637 0.52233 -0.52400
O 	O 	0.18057 0.46613 0.51953 -0.53600
N 	N 	0.10287 0.32003 0.60763 -0.26800
H 	H 	0.10777 0.30503 0.63173 0.08700
H 	H 	0.07717 0.30493 0.59573 0.07000
N 	N 	0.29417 0.39653 0.63723 -0.27100
H 	H 	0.29677 0.40693 0.67133 0.08500
H 	H 	0.31437 0.39113 0.63203 0.06300
N 	N 	0.21627 0.51383 0.66443 -0.27700
H 	H 	0.19677 0.50793 0.68963 0.08500
H 	H 	0.23047 0.54083 0.65993 0.06600
N 	N 	0.12767 0.36613 0.34933 -0.27600
H 	H 	0.10067 0.34973 0.35203 0.06500
H 	H 	0.13617 0.35923 0.31883 0.08500
N 	N 	0.23517 0.55253 0.41423 -0.29500
H 	H 	0.23987 0.57653 0.42763 0.08100
H 	H 	0.22127 0.54763 0.38263 0.09800
N 	N 	0.32447 0.44423 0.37883 -0.26500
H 	H 	0.33507 0.42783 0.38313 0.06900
H 	H 	0.34247 0.46643 0.36013 0.08200
C 	C 	0.10787 0.35693 0.63543 -0.32200
H 	H 	0.08297 0.35773 0.63133 0.10100
H 	H 	0.11197 0.35483 0.67433 0.10900
C 	C 	0.14297 0.39663 0.61383 0.45800
C 	C 	0.25587 0.35993 0.63253 -0.34500
H 	H 	0.26057 0.33853 0.61953 0.10400
H 	H 	0.24387 0.35223 0.66893 0.11800
C 	C 	0.22677 0.36223 0.59593 0.45700
C 	C 	0.24137 0.49973 0.68133 -0.27600
H 	H 	0.26577 0.52243 0.69633 0.08400
H 	H 	0.22797 0.48073 0.71113 0.10100
C 	C 	0.25417 0.47873 0.63723 0.40500
C 	C 	0.13707 0.40733 0.34543 -0.32000
H 	H 	0.15397 0.41963 0.31333 0.11000
H 	H 	0.11207 0.40793 0.34023 0.10200
C 	C 	0.15817 0.43153 0.39433 0.41400
C 	C 	0.27737 0.55393 0.40303 -0.34900
H 	H 	0.29927 0.57823 0.41963 0.10800
H 	H 	0.28227 0.55553 0.36373 0.11300
C 	C 	0.27787 0.51753 0.42573 0.44100
C 	C 	0.28577 0.42293 0.34853 -0.32700
H 	H 	0.28487 0.44133 0.32173 0.10600
H 	H 	0.28477 0.40033 0.32863 0.09900
C 	C 	0.24877 0.40703 0.38543 0.45200
C 	C 	0.11327 0.25013 0.53783 0.44300
H 	H 	0.10797 0.22683 0.51863 -0.15500
C 	C 	0.39787 0.50783 0.45563 0.60600
H 	H 	0.42257 0.51653 0.47333 -0.18100
C 	C 	0.14747 0.53633 0.45673 0.52100
H 	H 	0.12517 0.53723 0.47053 -0.15400
Gd	Gd	0.77052 0.54208 0.00042 1.11800
Gd	Gd	0.88448 0.76483 0.84154 1.60200
Cu	Cu	0.80759 0.66810 0.87691 0.90400
Cu	Cu	0.96488 0.76956 0.91631 0.86800
Cu	Cu	0.85869 0.82047 0.92790 0.87100
Cu	Cu	0.82103 0.69314 0.74744 0.86600
Cu	Cu	0.87141 0.84414 0.79902 0.90800
Cu	Cu	0.97958 0.79342 0.78581 0.90900
O 	O 	0.82593 0.72457 0.90177 -0.53200
O 	O 	0.81573 0.75917 0.96947 -0.45400
O 	O 	0.90663 0.72917 0.90457 -0.54600
O 	O 	0.85853 0.66687 0.92777 -0.40700
O 	O 	0.90043 0.80517 0.92547 -0.53600
O 	O 	0.94853 0.80487 0.97747 -0.42100
O 	O 	0.83923 0.74997 0.76137 -0.53700
O 	O 	0.83113 0.80087 0.73067 -0.38400
O 	O 	0.91343 0.82727 0.78947 -0.53400
O 	O 	0.97283 0.84557 0.74947 -0.41100
O 	O 	0.92143 0.75454 0.76757 -0.54500
O 	O 	0.88273 0.71617 0.69977 -0.43300
O 	O 	0.77703 0.58137 0.92437 -0.49300
O 	O 	0.78983 0.61557 0.84367 -0.47000
O 	O 	0.06653 0.85267 0.74087 -0.52100
O 	O 	0.03493 0.82047 0.81547 -0.53900
O 	O 	0.82283 0.88017 0.73957 -0.48600
O 	O 	0.83103 0.85887 0.82207 -0.50400
O 	O 	0.84705 0.69491 0.81727 -0.54100
O 	O 	0.95873 0.79971 0.85567 -0.52400
O 	O 	0.84723 0.79947 0.85287 -0.53600
N 	N 	0.76953 0.65337 0.94097 -0.26800
H 	H 	0.77443 0.63837 0.96507 0.08700
H 	H 	0.74383 0.63827 0.92907 0.07000
N 	N 	0.96083 0.72987 0.97057 -0.27100
H 	H 	0.96343 0.74027 0.00467 0.08500
H 	H 	0.98103 0.72447 0.96537 0.06300
N 	N 	0.88293 0.84717 0.99777 -0.27700
H 	H 	0.86343 0.84127 0.02297 0.08500
H 	H 	0.89713 0.87417 0.99327 0.06600
N 	N 	0.79433 0.69947 0.68267 -0.27600
H 	H 	0.76733 0.68307 0.68537 0.06500
H 	H 	0.80283 0.69257 0.65217 0.08500
N 	N 	0.90183 0.88587 0.74757 -0.29500
H 	H 	0.90653 0.90987 0.76097 0.08100
H 	H 	0.88793 0.88097 0.71597 0.09800
N 	N 	0.99113 0.77757 0.71217 -0.26500
H 	H 	0.00173 0.76117 0.71647 0.06900
H 	H 	0.00913 0.79977 0.69347 0.08200
C 	C 	0.77453 0.69027 0.96877 -0.32200
H 	H 	0.74963 0.69107 0.96467 0.10100
H 	H 	0.77863 0.68817 0.00767 0.10900
C 	C 	0.80963 0.72997 0.94717 0.45800
C 	C 	0.92253 0.69327 0.96587 -0.34500
H 	H 	0.92723 0.67187 0.95287 0.10400
H 	H 	0.91053 0.68557 0.00227 0.11800
C 	C 	0.89343 0.69557 0.92927 0.45700
C 	C 	0.90803 0.83307 0.01467 -0.27600
H 	H 	0.93243 0.85577 0.02967 0.08400
H 	H 	0.89463 0.81407 0.04447 0.10100
C 	C 	0.92083 0.81207 0.97057 0.40500
C 	C 	0.80373 0.74067 0.67877 -0.32000
H 	H 	0.82063 0.75297 0.64667 0.11000
H 	H 	0.77873 0.74127 0.67357 0.10200
C 	C 	0.82483 0.76487 0.72767 0.41400
C 	C 	0.94403 0.88727 0.73637 -0.34900
H 	H 	0.96593 0.91157 0.75297 0.10800
H 	H 	0.94893 0.88887 0.69707 0.11300
C 	C 	0.94453 0.85087 0.75907 0.44100
C 	C 	0.95243 0.75627 0.68187 -0.32700
H 	H 	0.95153 0.77467 0.65507 0.10600
H 	H 	0.95143 0.73367 0.66197 0.09900
C 	C 	0.91543 0.74037 0.71877 0.45200
C 	C 	0.77993 0.58347 0.87117 0.44300
H 	H 	0.77463 0.56017 0.85197 -0.15500
C 	C 	0.06453 0.84117 0.78897 0.60600
H 	H 	0.08923 0.84987 0.80667 -0.18100
C 	C 	0.81413 0.86967 0.79007 0.52100
H 	H 	0.79183 0.87057 0.80387 -0.15400
Gd	Gd	0.12459 0.56178 0.33375 1.11800
Gd	Gd	0.90183 0.45298 0.17487 1.60200
Cu	Cu	0.99857 0.47283 0.21024 0.90400
Cu	Cu	0.89711 0.52866 0.24964 0.86800
Cu	Cu	0.84620 0.37156 0.26123 0.87100
Cu	Cu	0.97353 0.46123 0.08077 0.86600
Cu	Cu	0.82253 0.36061 0.13235 0.90800
Cu	Cu	0.87325 0.51950 0.11914 0.90900
O 	O 	0.94210 0.43470 0.23510 -0.53200
O 	O 	0.90750 0.38990 0.30280 -0.45400
O 	O 	0.93750 0.51080 0.23790 -0.54500
O 	O 	0.99980 0.52500 0.26110 -0.40700
O 	O 	0.86150 0.42860 0.25880 -0.53600
O 	O 	0.86180 0.47700 0.31080 -0.42100
O 	O 	0.91670 0.42260 0.09470 -0.53700
O 	O 	0.86580 0.36360 0.06400 -0.38400
O 	O 	0.83940 0.41950 0.12280 -0.53400
O 	O 	0.82110 0.46060 0.08280 -0.41100
O 	O 	0.91213 0.50023 0.10090 -0.54500
O 	O 	0.95050 0.49990 0.03310 -0.43300
O 	O 	0.08530 0.52900 0.25770 -0.49300
O 	O 	0.05110 0.50760 0.17700 -0.47000
O 	O 	0.81400 0.54720 0.07420 -0.52100
O 	O 	0.84620 0.54780 0.14880 -0.53900
O 	O 	0.78650 0.27600 0.07290 -0.48600
O 	O 	0.80780 0.30550 0.15540 -0.50400
O 	O 	0.97176 0.48548 0.15060 -0.54100
O 	O 	0.86696 0.49236 0.18900 -0.52400
O 	O 	0.86720 0.38110 0.18620 -0.53600
N 	N 	0.01330 0.44950 0.27430 -0.26800
H 	H 	0.02830 0.46940 0.29840 0.08700
H 	H 	0.02840 0.43890 0.26240 0.07000
N 	N 	0.93680 0.56430 0.30390 -0.27100
H 	H 	0.92640 0.55650 0.33800 0.08500
H 	H 	0.94220 0.58990 0.29870 0.06300
N 	N 	0.81950 0.36910 0.33110 -0.27700
H 	H 	0.82540 0.35550 0.35630 0.08500
H 	H 	0.79250 0.35630 0.32660 0.06600
N 	N 	0.96720 0.42820 0.01600 -0.27600
H 	H 	0.98360 0.41760 0.01870 0.06500
H 	H 	0.97410 0.44360 0.98550 0.08500
N 	N 	0.78080 0.34930 0.08090 -0.29500
H 	H 	0.75680 0.33000 0.09430 0.08100
H 	H 	0.78570 0.34030 0.04930 0.09800
N 	N 	0.88910 0.54690 0.04550 -0.26500
H 	H 	0.90550 0.57390 0.04980 0.06900
H 	H 	0.86690 0.54270 0.02680 0.08200
C 	C 	0.97640 0.41760 0.30210 -0.32200
H 	H 	0.97560 0.39190 0.29800 0.10100
H 	H 	0.97850 0.42380 0.34100 0.10900
C 	C 	0.93670 0.41300 0.28050 0.45800
C 	C 	0.97340 0.56260 0.29920 -0.34500
H 	H 	0.99480 0.58870 0.28620 0.10400
H 	H 	0.98110 0.55830 0.33560 0.11800
C 	C 	0.97110 0.53120 0.26260 0.45700
C 	C 	0.83360 0.40830 0.34800 -0.27600
H 	H 	0.81090 0.41000 0.36300 0.08400
H 	H 	0.85260 0.41390 0.37780 0.10100
C 	C 	0.85460 0.44210 0.30390 0.40500
C 	C 	0.92600 0.39640 0.01210 -0.32100
H 	H 	0.91370 0.40100 0.98000 0.11000
H 	H 	0.92540 0.37080 0.00690 0.10200
C 	C 	0.90180 0.39330 0.06100 0.41400
C 	C 	0.77940 0.39010 0.06970 -0.34900
H 	H 	0.75510 0.38770 0.08630 0.10800
H 	H 	0.77780 0.39340 0.03040 0.11300
C 	C 	0.81580 0.42700 0.09240 0.44100
C 	C 	0.91040 0.52950 0.01520 -0.32700
H 	H 	0.89200 0.51020 0.98840 0.10600
H 	H 	0.93300 0.55110 0.99530 0.09900
C 	C 	0.92630 0.50840 0.05210 0.45200
C 	C 	0.08320 0.52980 0.20450 0.44300
H 	H 	0.10650 0.54780 0.18530 -0.15500
C 	C 	0.82550 0.55670 0.12230 0.60600
H 	H 	0.81680 0.57270 0.14000 -0.18100
C 	C 	0.79700 0.27780 0.12340 0.52100
H 	H 	0.79610 0.25460 0.13720 -0.15400
Gd	Gd	0.79126 0.89511 0.66708 1.11800
Gd	Gd	0.56850 0.78631 0.50820 1.60200
Cu	Cu	0.66524 0.80616 0.54357 0.90400
Cu	Cu	0.56378 0.86199 0.58297 0.86800
Cu	Cu	0.51287 0.70489 0.59456 0.87100
Cu	Cu	0.64020 0.79456 0.41410 0.86600
Cu	Cu	0.48920 0.69394 0.46568 0.90800
Cu	Cu	0.53992 0.85283 0.45247 0.90900
O 	O 	0.60877 0.76803 0.56843 -0.53200
O 	O 	0.57417 0.72323 0.63613 -0.45400
O 	O 	0.60417 0.84413 0.57123 -0.54500
O 	O 	0.66647 0.85833 0.59443 -0.40700
O 	O 	0.52817 0.76193 0.59213 -0.53600
O 	O 	0.52847 0.81033 0.64413 -0.42100
O 	O 	0.58337 0.75593 0.42803 -0.53700
O 	O 	0.53247 0.69693 0.39733 -0.38400
O 	O 	0.50607 0.75283 0.45613 -0.53400
O 	O 	0.48777 0.79393 0.41613 -0.41100
O 	O 	0.57880 0.83356 0.43423 -0.54500
O 	O 	0.61717 0.83323 0.36643 -0.43300
O 	O 	0.75197 0.86233 0.59103 -0.49300
O 	O 	0.71777 0.84093 0.51033 -0.47000
O 	O 	0.48067 0.88053 0.40753 -0.52100
O 	O 	0.51287 0.88113 0.48213 -0.53900
O 	O 	0.45317 0.60933 0.40623 -0.48600
O 	O 	0.47447 0.63883 0.48873 -0.50400
O 	O 	0.63843 0.81881 0.48393 -0.54100
O 	O 	0.53363 0.82569 0.52233 -0.52400
O 	O 	0.53387 0.71443 0.51953 -0.53600
N 	N 	0.67997 0.78283 0.60763 -0.26800
H 	H 	0.69497 0.80273 0.63173 0.08700
H 	H 	0.69507 0.77223 0.59573 0.07000
N 	N 	0.60347 0.89763 0.63723 -0.27100
H 	H 	0.59307 0.88983 0.67133 0.08500
H 	H 	0.60887 0.92323 0.63203 0.06300
N 	N 	0.48617 0.70243 0.66443 -0.27700
H 	H 	0.49207 0.68883 0.68963 0.08500
H 	H 	0.45917 0.68963 0.65993 0.06600
N 	N 	0.63387 0.76153 0.34933 -0.27600
H 	H 	0.65027 0.75093 0.35203 0.06500
H 	H 	0.64077 0.77693 0.31883 0.08500
N 	N 	0.44747 0.68263 0.41423 -0.29500
H 	H 	0.42347 0.66333 0.42763 0.08100
H 	H 	0.45237 0.67363 0.38263 0.09800
N 	N 	0.55577 0.88023 0.37883 -0.26500
H 	H 	0.57217 0.90723 0.38313 0.06900
H 	H 	0.53357 0.87603 0.36013 0.08200
C 	C 	0.64307 0.75093 0.63543 -0.32200
H 	H 	0.64227 0.72523 0.63133 0.10100
H 	H 	0.64517 0.75713 0.67433 0.10900
C 	C 	0.60337 0.74633 0.61383 0.45800
C 	C 	0.64007 0.89593 0.63253 -0.34500
H 	H 	0.66147 0.92203 0.61953 0.10400
H 	H 	0.64777 0.89163 0.66893 0.11800
C 	C 	0.63777 0.86453 0.59593 0.45700
C 	C 	0.50027 0.74163 0.68133 -0.27600
H 	H 	0.47757 0.74333 0.69633 0.08400
H 	H 	0.51927 0.74723 0.71113 0.10100
C 	C 	0.52127 0.77543 0.63723 0.40500
C 	C 	0.59267 0.72973 0.34543 -0.32000
H 	H 	0.58037 0.73433 0.31333 0.11000
H 	H 	0.59207 0.70413 0.34023 0.10200
C 	C 	0.56847 0.72663 0.39433 0.41400
C 	C 	0.44607 0.72343 0.40303 -0.34900
H 	H 	0.42177 0.72103 0.41963 0.10800
H 	H 	0.44447 0.72673 0.36373 0.11300
C 	C 	0.48247 0.76033 0.42573 0.44100
C 	C 	0.57707 0.86283 0.34853 -0.32700
H 	H 	0.55867 0.84353 0.32173 0.10600
H 	H 	0.59967 0.88443 0.32863 0.09900
C 	C 	0.59297 0.84173 0.38543 0.45200
C 	C 	0.74987 0.86313 0.53783 0.44300
H 	H 	0.77317 0.88113 0.51863 -0.15500
C 	C 	0.49217 0.89003 0.45563 0.60600
H 	H 	0.48347 0.90603 0.47333 -0.18100
C 	C 	0.46367 0.61113 0.45673 0.52100
H 	H 	0.46277 0.58793 0.47053 -0.15400
Gd	Gd	0.45792 0.22845 0.00042 1.11800
Gd	Gd	0.23517 0.11964 0.84154 1.60200
Cu	Cu	0.33190 0.13950 0.87691 0.90400
Cu	Cu	0.23044 0.19533 0.91631 0.86800
Cu	Cu	0.17953 0.03823 0.92790 0.87100
Cu	Cu	0.30686 0.12790 0.74744 0.86600
Cu	Cu	0.15586 0.02728 0.79902 0.90800
Cu	Cu	0.20658 0.18617 0.78581 0.90900
O 	O 	0.27543 0.10137 0.90177 -0.53200
O 	O 	0.24083 0.05657 0.96947 -0.45400
O 	O 	0.27083 0.17747 0.90457 -0.54500
O 	O 	0.33313 0.19167 0.92777 -0.40700
O 	O 	0.19483 0.09527 0.92547 -0.53600
O 	O 	0.19513 0.14367 0.97747 -0.42100
O 	O 	0.25003 0.08927 0.76137 -0.53700
O 	O 	0.19913 0.03027 0.73067 -0.38400
O 	O 	0.17273 0.08617 0.78947 -0.53400
O 	O 	0.15443 0.12727 0.74947 -0.41100
O 	O 	0.24546 0.16690 0.76757 -0.54500
O 	O 	0.28383 0.16657 0.69977 -0.43300
O 	O 	0.41863 0.19567 0.92437 -0.49300
O 	O 	0.38443 0.17427 0.84367 -0.47000
O 	O 	0.14733 0.21387 0.74087 -0.52100
O 	O 	0.17953 0.21447 0.81547 -0.53900
O 	O 	0.11983 0.94267 0.73957 -0.48600
O 	O 	0.14113 0.97217 0.82207 -0.50400
O 	O 	0.30509 0.15215 0.81727 -0.54100
O 	O 	0.20029 0.15903 0.85567 -0.52400
O 	O 	0.20053 0.04777 0.85287 -0.53600
N 	N 	0.34663 0.11617 0.94097 -0.26800
H 	H 	0.36163 0.13607 0.96507 0.08700
H 	H 	0.36173 0.10557 0.92907 0.07000
N 	N 	0.27013 0.23097 0.97057 -0.27100
H 	H 	0.25973 0.22317 0.00467 0.08500
H 	H 	0.27553 0.25657 0.96537 0.06300
N 	N 	0.15283 0.03577 0.99777 -0.27700
H 	H 	0.15873 0.02217 0.02297 0.08500
H 	H 	0.12583 0.02297 0.99327 0.06600
N 	N 	0.30053 0.09487 0.68267 -0.27600
H 	H 	0.31693 0.08427 0.68537 0.06500
H 	H 	0.30743 0.11027 0.65217 0.08500
N 	N 	0.11413 0.01597 0.74757 -0.29500
H 	H 	0.09013 0.99667 0.76097 0.08100
H 	H 	0.11903 0.00697 0.71597 0.09800
N 	N 	0.22243 0.21357 0.71217 -0.26500
H 	H 	0.23883 0.24057 0.71647 0.06900
H 	H 	0.20023 0.20937 0.69347 0.08200
C 	C 	0.30973 0.08427 0.96877 -0.32200
H 	H 	0.30893 0.05857 0.96467 0.10100
H 	H 	0.31183 0.09047 0.00767 0.10900
C 	C 	0.27003 0.07967 0.94717 0.45800
C 	C 	0.30673 0.22927 0.96587 -0.34500
H 	H 	0.32813 0.25537 0.95287 0.10400
H 	H 	0.31443 0.22497 0.00227 0.11800
C 	C 	0.30443 0.19787 0.92927 0.45700
C 	C 	0.16693 0.07497 0.01467 -0.27600
H 	H 	0.14423 0.07667 0.02967 0.08400
H 	H 	0.18593 0.08057 0.04447 0.10100
C 	C 	0.18793 0.10877 0.97057 0.40500
C 	C 	0.25933 0.06307 0.67877 -0.32000
H 	H 	0.24703 0.06767 0.64667 0.11000
H 	H 	0.25873 0.03747 0.67357 0.10200
C 	C 	0.23513 0.05997 0.72767 0.41400
C 	C 	0.11273 0.05677 0.73637 -0.34900
H 	H 	0.08843 0.05437 0.75297 0.10800
H 	H 	0.11113 0.06007 0.69707 0.11300
C 	C 	0.14913 0.09367 0.75907 0.44100
C 	C 	0.24373 0.19617 0.68187 -0.32700
H 	H 	0.22533 0.17687 0.65507 0.10600
H 	H 	0.26633 0.21777 0.66197 0.09900
C 	C 	0.25963 0.17507 0.71877 0.45200
C 	C 	0.41653 0.19647 0.87117 0.44300
H 	H 	0.43983 0.21447 0.85197 -0.15500
C 	C 	0.15883 0.22337 0.78897 0.60600
H 	H 	0.15013 0.23937 0.80667 -0.18100
C 	C 	0.13033 0.94447 0.79007 0.52100
H 	H 	0.12943 0.92127 0.80387 -0.15400
Gd	Gd	0.43822 0.56281 0.33375 1.11800
Gd	Gd	0.54702 0.44886 0.17487 1.60200
Cu	Cu	0.52717 0.52574 0.21024 0.90400
Cu	Cu	0.47134 0.36845 0.24964 0.86800
Cu	Cu	0.62844 0.47464 0.26123 0.87100
Cu	Cu	0.53877 0.51230 0.08077 0.86600
Cu	Cu	0.63939 0.46192 0.13235 0.90800
Cu	Cu	0.48050 0.35375 0.11914 0.90900
O 	O 	0.56530 0.50740 0.23510 -0.53200
O 	O 	0.61010 0.51760 0.30280 -0.45400
O 	O 	0.48920 0.42670 0.23790 -0.54500
O 	O 	0.47500 0.47480 0.26110 -0.40700
O 	O 	0.57140 0.43290 0.25880 -0.53600
O 	O 	0.52300 0.38480 0.31080 -0.42100
O 	O 	0.57740 0.49410 0.09470 -0.53700
O 	O 	0.63640 0.50220 0.06400 -0.38400
O 	O 	0.58050 0.41990 0.12280 -0.53400
O 	O 	0.53940 0.36050 0.08280 -0.41100
O 	O 	0.49977 0.41190 0.10090 -0.54500
O 	O 	0.50010 0.45060 0.03310 -0.43300
O 	O 	0.47100 0.55630 0.25770 -0.49300
O 	O 	0.49240 0.54350 0.17700 -0.47000
O 	O 	0.45280 0.26680 0.07420 -0.52100
O 	O 	0.45220 0.29840 0.14880 -0.53900
O 	O 	0.72400 0.51050 0.07290 -0.48600
O 	O 	0.69450 0.50230 0.15540 -0.50400
O 	O 	0.51452 0.48628 0.15060 -0.54100
O 	O 	0.50764 0.37460 0.18900 -0.52400
O 	O 	0.61890 0.48610 0.18620 -0.53600
N 	N 	0.55050 0.56380 0.27430 -0.26800
H 	H 	0.53060 0.55890 0.29840 0.08700
H 	H 	0.56110 0.58950 0.26240 0.07000
N 	N 	0.43570 0.37250 0.30390 -0.27100
H 	H 	0.44350 0.36990 0.33800 0.08500
H 	H 	0.41010 0.35230 0.29870 0.06300
N 	N 	0.63090 0.45040 0.33110 -0.27700
H 	H 	0.64450 0.46990 0.35630 0.08500
H 	H 	0.64370 0.43620 0.32660 0.06600
N 	N 	0.57180 0.53900 0.01600 -0.27600
H 	H 	0.58240 0.56600 0.01870 0.06500
H 	H 	0.55640 0.53050 0.98550 0.08500
N 	N 	0.65070 0.43150 0.08090 -0.29500
H 	H 	0.67000 0.42680 0.09430 0.08100
H 	H 	0.65970 0.44540 0.04930 0.09800
N 	N 	0.45310 0.34220 0.04550 -0.26500
H 	H 	0.42610 0.33160 0.04980 0.06900
H 	H 	0.45730 0.32420 0.02680 0.08200
C 	C 	0.58240 0.55880 0.30210 -0.32200
H 	H 	0.60810 0.58370 0.29800 0.10100
H 	H 	0.57620 0.55470 0.34100 0.10900
C 	C 	0.58700 0.52370 0.28050 0.45800
C 	C 	0.43740 0.41080 0.29920 -0.34500
H 	H 	0.41130 0.40610 0.28620 0.10400
H 	H 	0.44170 0.42280 0.33560 0.11800
C 	C 	0.46880 0.43990 0.26260 0.45700
C 	C 	0.59170 0.42530 0.34800 -0.27600
H 	H 	0.59000 0.40090 0.36300 0.08400
H 	H 	0.58610 0.43870 0.37780 0.10100
C 	C 	0.55790 0.41250 0.30390 0.40500
C 	C 	0.60360 0.52960 0.01210 -0.32000
H 	H 	0.59900 0.51270 0.98000 0.11000
H 	H 	0.62920 0.55460 0.00690 0.10200
C 	C 	0.60670 0.50850 0.06100 0.41400
C 	C 	0.60990 0.38930 0.06970 -0.34900
H 	H 	0.61230 0.36740 0.08630 0.10800
H 	H 	0.60660 0.38440 0.03040 0.11300
C 	C 	0.57300 0.38880 0.09240 0.44100
C 	C 	0.47050 0.38090 0.01520 -0.32700
H 	H 	0.48980 0.38180 0.98840 0.10600
H 	H 	0.44890 0.38190 0.99530 0.09900
C 	C 	0.49160 0.41790 0.05210 0.45200
C 	C 	0.47020 0.55340 0.20450 0.44300
H 	H 	0.45220 0.55870 0.18530 -0.15500
C 	C 	0.44330 0.26880 0.12230 0.60600
H 	H 	0.42730 0.24410 0.14000 -0.18100
C 	C 	0.72220 0.51920 0.12340 0.52100
H 	H 	0.74540 0.54150 0.13720 -0.15400
Gd	Gd	0.10489 0.89614 0.66708 1.11800
Gd	Gd	0.21369 0.78219 0.50820 1.60200
Cu	Cu	0.19384 0.85907 0.54357 0.90400
Cu	Cu	0.13801 0.70178 0.58297 0.86800
Cu	Cu	0.29511 0.80797 0.59456 0.87100
Cu	Cu	0.20544 0.84563 0.41410 0.86600
Cu	Cu	0.30606 0.79525 0.46568 0.90800
Cu	Cu	0.14717 0.68708 0.45247 0.90900
O 	O 	0.23197 0.84073 0.56843 -0.53200
O 	O 	0.27677 0.85093 0.63613 -0.45400
O 	O 	0.15587 0.76003 0.57123 -0.54500
O 	O 	0.14167 0.80813 0.59443 -0.40700
O 	O 	0.23807 0.76623 0.59213 -0.53600
O 	O 	0.18967 0.71813 0.64413 -0.42100
O 	O 	0.24407 0.82743 0.42803 -0.53700
O 	O 	0.30307 0.83553 0.39733 -0.38400
O 	O 	0.24717 0.75323 0.45613 -0.53400
O 	O 	0.20607 0.69383 0.41613 -0.41100
O 	O 	0.16644 0.74523 0.43423 -0.54500
O 	O 	0.16677 0.78393 0.36643 -0.43300
O 	O 	0.13767 0.88963 0.59103 -0.49300
O 	O 	0.15907 0.87683 0.51033 -0.47000
O 	O 	0.11947 0.60013 0.40753 -0.52100
O 	O 	0.11887 0.63173 0.48213 -0.53900
O 	O 	0.39067 0.84383 0.40623 -0.48600
O 	O 	0.36117 0.83563 0.48873 -0.50400
O 	O 	0.18119 0.81961 0.48393 -0.54100
O 	O 	0.17431 0.70793 0.52233 -0.52400
O 	O 	0.28557 0.81943 0.51953 -0.53600
N 	N 	0.21717 0.89713 0.60763 -0.26800
H 	H 	0.19727 0.89223 0.63173 0.08700
H 	H 	0.22777 0.92283 0.59573 0.07000
N 	N 	0.10237 0.70583 0.63723 -0.27100
H 	H 	0.11017 0.70323 0.67133 0.08500
H 	H 	0.07677 0.68563 0.63203 0.06300
N 	N 	0.29757 0.78373 0.66443 -0.27700
H 	H 	0.31117 0.80323 0.68963 0.08500
H 	H 	0.31037 0.76953 0.65993 0.06600
N 	N 	0.23847 0.87233 0.34933 -0.27600
H 	H 	0.24907 0.89933 0.35203 0.06500
H 	H 	0.22307 0.86383 0.31883 0.08500
N 	N 	0.31737 0.76483 0.41423 -0.29500
H 	H 	0.33667 0.76013 0.42763 0.08100
H 	H 	0.32637 0.77873 0.38263 0.09800
N 	N 	0.11977 0.67553 0.37883 -0.26500
H 	H 	0.09277 0.66493 0.38313 0.06900
H 	H 	0.12397 0.65753 0.36013 0.08200
C 	C 	0.24907 0.89213 0.63543 -0.32200
H 	H 	0.27477 0.91703 0.63133 0.10100
H 	H 	0.24287 0.88803 0.67433 0.10900
C 	C 	0.25367 0.85703 0.61383 0.45800
C 	C 	0.10407 0.74413 0.63253 -0.34500
H 	H 	0.07797 0.73943 0.61953 0.10400
H 	H 	0.10837 0.75613 0.66893 0.11800
C 	C 	0.13547 0.77323 0.59593 0.45700
C 	C 	0.25837 0.75863 0.68133 -0.27600
H 	H 	0.25667 0.73423 0.69633 0.08400
H 	H 	0.25277 0.77203 0.71113 0.10100
C 	C 	0.22457 0.74583 0.63723 0.40500
C 	C 	0.27027 0.86293 0.34543 -0.32000
H 	H 	0.26567 0.84603 0.31333 0.11000
H 	H 	0.29587 0.88793 0.34023 0.10200
C 	C 	0.27337 0.84183 0.39433 0.41400
C 	C 	0.27657 0.72263 0.40303 -0.34900
H 	H 	0.27897 0.70073 0.41963 0.10800
H 	H 	0.27327 0.71773 0.36373 0.11300
C 	C 	0.23967 0.72213 0.42573 0.44100
C 	C 	0.13717 0.71423 0.34853 -0.32700
H 	H 	0.15647 0.71513 0.32173 0.10600
H 	H 	0.11557 0.71523 0.32863 0.09900
C 	C 	0.15827 0.75123 0.38543 0.45200
C 	C 	0.13687 0.88673 0.53783 0.44300
H 	H 	0.11887 0.89203 0.51863 -0.15500
C 	C 	0.10997 0.60213 0.45563 0.60600
H 	H 	0.09397 0.57743 0.47333 -0.18100
C 	C 	0.38887 0.85253 0.45673 0.52100
H 	H 	0.41207 0.87483 0.47053 -0.15400
Gd	Gd	0.77155 0.22948 0.00042 1.11800
Gd	Gd	0.88036 0.11552 0.84154 1.60200
Cu	Cu	0.86050 0.19241 0.87691 0.90400
Cu	Cu	0.80467 0.03512 0.91631 0.86800
Cu	Cu	0.96177 0.14131 0.92790 0.87100
Cu	Cu	0.87210 0.17897 0.74744 0.86600
Cu	Cu	0.97272 0.12859 0.79902 0.90800
Cu	Cu	0.81383 0.02042 0.78581 0.90900
O 	O 	0.89863 0.17407 0.90177 -0.53200
O 	O 	0.94343 0.18427 0.96947 -0.45400
O 	O 	0.82253 0.09337 0.90457 -0.54500
O 	O 	0.80833 0.14147 0.92777 -0.40700
O 	O 	0.90473 0.09957 0.92547 -0.53700
O 	O 	0.85633 0.05147 0.97747 -0.42100
O 	O 	0.91073 0.16077 0.76137 -0.53700
O 	O 	0.96973 0.16887 0.73067 -0.38400
O 	O 	0.91383 0.08657 0.78947 -0.53400
O 	O 	0.87273 0.02717 0.74947 -0.41100
O 	O 	0.83310 0.07857 0.76757 -0.54500
O 	O 	0.83343 0.11727 0.69977 -0.43300
O 	O 	0.80433 0.22297 0.92437 -0.49300
O 	O 	0.82573 0.21017 0.84367 -0.47000
O 	O 	0.78613 0.93347 0.74087 -0.52100
O 	O 	0.78553 0.96507 0.81547 -0.53900
O 	O 	0.05733 0.17717 0.73957 -0.48600
O 	O 	0.02783 0.16897 0.82207 -0.50400
O 	O 	0.84785 0.15295 0.81727 -0.54100
O 	O 	0.84097 0.04127 0.85567 -0.52400
O 	O 	0.95223 0.15277 0.85287 -0.53600
N 	N 	0.88383 0.23047 0.94097 -0.26800
H 	H 	0.86393 0.22557 0.96507 0.08700
H 	H 	0.89443 0.25617 0.92907 0.07000
N 	N 	0.76903 0.03917 0.97057 -0.27100
H 	H 	0.77683 0.03657 0.00467 0.08500
H 	H 	0.74343 0.01897 0.96537 0.06300
N 	N 	0.96423 0.11707 0.99777 -0.27700
H 	H 	0.97783 0.13657 0.02297 0.08500
H 	H 	0.97703 0.10287 0.99327 0.06600
N 	N 	0.90513 0.20567 0.68267 -0.27600
H 	H 	0.91573 0.23267 0.68537 0.06500
H 	H 	0.88973 0.19717 0.65217 0.08500
N 	N 	0.98403 0.09817 0.74757 -0.29500
H 	H 	0.00333 0.09347 0.76097 0.08100
H 	H 	0.99303 0.11207 0.71597 0.09800
N 	N 	0.78643 0.00887 0.71217 -0.26500
H 	H 	0.75943 0.99827 0.71647 0.06900
H 	H 	0.79063 0.99087 0.69347 0.08200
C 	C 	0.91573 0.22547 0.96877 -0.32100
H 	H 	0.94143 0.25037 0.96467 0.10100
H 	H 	0.90953 0.22137 0.00767 0.10900
C 	C 	0.92033 0.19037 0.94717 0.45800
C 	C 	0.77073 0.07747 0.96587 -0.34500
H 	H 	0.74463 0.07277 0.95287 0.10400
H 	H 	0.77503 0.08947 0.00227 0.11800
C 	C 	0.80213 0.10657 0.92927 0.45700
C 	C 	0.92503 0.09197 0.01467 -0.27600
H 	H 	0.92333 0.06757 0.02967 0.08500
H 	H 	0.91943 0.10537 0.04447 0.10100
C 	C 	0.89123 0.07917 0.97057 0.40600
C 	C 	0.93693 0.19627 0.67877 -0.32000
H 	H 	0.93233 0.17937 0.64667 0.11000
H 	H 	0.96253 0.22127 0.67357 0.10200
C 	C 	0.94003 0.17517 0.72767 0.41400
C 	C 	0.94323 0.05597 0.73637 -0.34900
H 	H 	0.94563 0.03407 0.75297 0.10800
H 	H 	0.93993 0.05107 0.69707 0.11300
C 	C 	0.90633 0.05547 0.75907 0.44100
C 	C 	0.80383 0.04757 0.68187 -0.32700
H 	H 	0.82313 0.04847 0.65507 0.10600
H 	H 	0.78223 0.04857 0.66197 0.09900
C 	C 	0.82493 0.08457 0.71877 0.45200
C 	C 	0.80353 0.22007 0.87117 0.44300
H 	H 	0.78553 0.22537 0.85197 -0.15500
C 	C 	0.77663 0.93547 0.78897 0.60500
H 	H 	0.76063 0.91077 0.80667 -0.18100
C 	C 	0.05553 0.18587 0.79007 0.52100
H 	H 	0.07873 0.20817 0.80387 -0.15400
