data_crystal

_cell_length_a 38.00200
_cell_length_b 38.00200
_cell_length_c 24.34800
_cell_angle_alpha 90.00000
_cell_angle_beta  90.00000
_cell_angle_gamma 120.00000

_symmetry_space_group_name_	'P 1'
_symmetry_space_group_name_H-M	'P 1'

loop_
_symmetry_equiv_pos_as_xyz
  x,y,z

loop_
_atom_site_label
_atom_site_type_symbol
_atom_site_fract_x
_atom_site_fract_y
_atom_site_fract_z
_atom_site_charge
Tb	Tb	0.21779 0.43127 0.00817 1.88400
Tb	Tb	0.10354 0.20809 0.16699 1.27700
Cu	Cu	0.14078 0.33418 0.04339 0.90200
Cu	Cu	0.29850 0.43601 0.08276 0.86700
Cu	Cu	0.19177 0.48678 0.09446 0.86700
Cu	Cu	0.15418 0.35940 0.91416 0.86200
Cu	Cu	0.31345 0.46019 0.95224 0.90900
Cu	Cu	0.20492 0.51091 0.96599 0.90500
O 	O 	0.15879 0.39044 0.06876 -0.58300
O 	O 	0.14834 0.42434 0.13470 -0.43700
O 	O 	0.24008 0.39617 0.07124 -0.58100
O 	O 	0.19269 0.33348 0.09380 -0.41000
O 	O 	0.23479 0.47214 0.09208 -0.58700
O 	O 	0.28267 0.47195 0.14340 -0.44100
O 	O 	0.17183 0.41671 0.92834 -0.57200
O 	O 	0.16439 0.46727 0.89710 -0.40800
O 	O 	0.25525 0.42151 0.93382 -0.57100
O 	O 	0.21604 0.38270 0.86646 -0.43300
O 	O 	0.24685 0.49455 0.95698 -0.57200
O 	O 	0.30596 0.51236 0.91690 -0.41700
O 	O 	0.17978 0.36047 0.98380 -0.57200
O 	O 	0.29147 0.46514 0.02253 -0.55600
O 	O 	0.18092 0.46659 0.01955 -0.57000
O 	O 	0.12269 0.28077 0.01065 -0.48400
O 	O 	0.10917 0.24717 0.09000 -0.55100
O 	O 	0.36852 0.48632 0.98100 -0.53200
O 	O 	0.39898 0.51945 0.90660 -0.55100
O 	O 	0.16448 0.52570 0.98820 -0.49600
O 	O 	0.15550 0.54605 0.90640 -0.52800
N 	N 	0.10290 0.31890 0.10580 -0.26300
H 	H 	0.07720 0.30480 0.09340 0.06600
H 	H 	0.10690 0.30270 0.12880 0.08200
N 	N 	0.29550 0.39690 0.13810 -0.27200
H 	H 	0.31580 0.39150 0.13280 0.06200
H 	H 	0.29820 0.40740 0.17200 0.08500
N 	N 	0.21530 0.51230 0.16540 -0.27700
H 	H 	0.22960 0.53950 0.16180 0.06500
H 	H 	0.19550 0.50590 0.19030 0.08600
N 	N 	0.12780 0.36606 0.84870 -0.27300
H 	H 	0.13630 0.35880 0.81850 0.08300
H 	H 	0.10070 0.35000 0.85130 0.06300
N 	N 	0.32410 0.44560 0.87990 -0.26600
H 	H 	0.34040 0.46830 0.86080 0.07700
H 	H 	0.33700 0.43130 0.88360 0.06700
N 	N 	0.23870 0.55378 0.91370 -0.27300
H 	H 	0.22500 0.54970 0.88200 0.08500
H 	H 	0.24410 0.57800 0.92730 0.07100
C 	C 	0.14110 0.39270 0.11140 0.47700
C 	C 	0.25660 0.35980 0.13320 -0.35600
H 	H 	0.24470 0.35170 0.16950 0.11800
H 	H 	0.26110 0.33850 0.11930 0.10600
C 	C 	0.22760 0.36320 0.09720 0.46100
C 	C 	0.25460 0.47860 0.13550 0.45500
C 	C 	0.13780 0.40720 0.84430 -0.32000
H 	H 	0.11310 0.40810 0.83800 0.10000
H 	H 	0.15520 0.41920 0.81250 0.10600
C 	C 	0.15890 0.43260 0.89390 0.44300
C 	C 	0.28700 0.42190 0.85060 -0.32000
H 	H 	0.28720 0.39860 0.83460 0.09300
H 	H 	0.28580 0.43810 0.82060 0.09900
C 	C 	0.24950 0.40700 0.88500 0.44800
C 	C 	0.27660 0.55430 0.90330 -0.30900
H 	H 	0.29880 0.57870 0.91930 0.09200
H 	H 	0.28110 0.55550 0.86390 0.09400
C 	C 	0.27750 0.51750 0.92640 0.44100
C 	C 	0.11320 0.24890 0.03900 0.50700
H 	H 	0.10900 0.22570 0.02050 -0.18500
C 	C 	0.39880 0.50810 0.95400 0.60300
H 	H 	0.42380 0.51680 0.97060 -0.18900
C 	C 	0.14640 0.53640 0.95540 0.53500
H 	H 	0.12390 0.53720 0.96890 -0.16600
C 	C 	0.24140 0.49730 0.18290 -0.30800
H 	H 	0.22750 0.47680 0.21090 0.11000
H 	H 	0.26550 0.51940 0.19950 0.09500
C 	C 	0.10860 0.35480 0.13550 -0.36200
H 	H 	0.11530 0.35300 0.17350 0.11700
H 	H 	0.08340 0.35530 0.13520 0.11200
Tb	Tb	0.88446 0.76460 0.34150 1.88600
Tb	Tb	0.77020 0.54142 0.50032 1.27800
Cu	Cu	0.80745 0.66751 0.37672 0.90300
Cu	Cu	0.96517 0.76934 0.41609 0.86800
Cu	Cu	0.85844 0.82011 0.42779 0.86800
Cu	Cu	0.82085 0.69273 0.24749 0.86300
Cu	Cu	0.98012 0.79352 0.28557 0.91000
Cu	Cu	0.87159 0.84424 0.29932 0.90600
O 	O 	0.82546 0.72377 0.40209 -0.58200
O 	O 	0.81501 0.75767 0.46803 -0.43600
O 	O 	0.90675 0.72950 0.40457 -0.58000
O 	O 	0.85936 0.66681 0.42713 -0.40900
O 	O 	0.90146 0.80547 0.42541 -0.58600
O 	O 	0.94934 0.80528 0.47673 -0.44000
O 	O 	0.83850 0.75004 0.26167 -0.57200
O 	O 	0.83106 0.80060 0.23043 -0.40800
O 	O 	0.92192 0.75484 0.26715 -0.57100
O 	O 	0.88271 0.71603 0.19979 -0.43300
O 	O 	0.91352 0.82788 0.29031 -0.57200
O 	O 	0.97263 0.84569 0.25023 -0.41600
O 	O 	0.84645 0.69380 0.31713 -0.57200
O 	O 	0.95814 0.79847 0.35586 -0.55600
O 	O 	0.84759 0.79992 0.35288 -0.57000
O 	O 	0.78936 0.61410 0.34398 -0.48400
O 	O 	0.77584 0.58050 0.42333 -0.55100
O 	O 	0.03519 0.81965 0.31433 -0.53200
O 	O 	0.06565 0.85278 0.23993 -0.55100
O 	O 	0.83115 0.85903 0.32153 -0.49600
O 	O 	0.82217 0.87938 0.23973 -0.52800
N 	N 	0.76957 0.65223 0.43913 -0.26300
H 	H 	0.74387 0.63813 0.42673 0.06600
H 	H 	0.77357 0.63603 0.46213 0.08200
N 	N 	0.96217 0.73023 0.47143 -0.27200
H 	H 	0.98247 0.72483 0.46613 0.06200
H 	H 	0.96487 0.74073 0.50533 0.08500
N 	N 	0.88197 0.84563 0.49873 -0.27700
H 	H 	0.89627 0.87283 0.49513 0.06500
H 	H 	0.86217 0.83923 0.52363 0.08600
N 	N 	0.79447 0.69939 0.18203 -0.27300
H 	H 	0.80297 0.69213 0.15183 0.08300
H 	H 	0.76737 0.68333 0.18463 0.06300
N 	N 	0.99077 0.77893 0.21323 -0.26500
H 	H 	0.00707 0.80163 0.19413 0.07700
H 	H 	0.00367 0.76463 0.21693 0.06700
N 	N 	0.90537 0.88711 0.24703 -0.27300
H 	H 	0.89167 0.88303 0.21533 0.08500
H 	H 	0.91077 0.91133 0.26063 0.07100
C 	C 	0.80777 0.72603 0.44473 0.47700
C 	C 	0.92327 0.69313 0.46653 -0.35600
H 	H 	0.91137 0.68503 0.50283 0.11800
H 	H 	0.92777 0.67183 0.45263 0.10600
C 	C 	0.89427 0.69653 0.43053 0.46100
C 	C 	0.92127 0.81193 0.46883 0.45500
C 	C 	0.80447 0.74053 0.17763 -0.32000
H 	H 	0.77977 0.74143 0.17133 0.10000
H 	H 	0.82187 0.75253 0.14583 0.10600
C 	C 	0.82557 0.76593 0.22723 0.44300
C 	C 	0.95367 0.75523 0.18393 -0.32000
H 	H 	0.95387 0.73193 0.16793 0.09300
H 	H 	0.95247 0.77143 0.15393 0.09900
C 	C 	0.91617 0.74033 0.21833 0.44800
C 	C 	0.94327 0.88763 0.23663 -0.30900
H 	H 	0.96547 0.91203 0.25263 0.09200
H 	H 	0.94777 0.88883 0.19723 0.09400
C 	C 	0.94417 0.85083 0.25973 0.44100
C 	C 	0.77987 0.58223 0.37233 0.50700
H 	H 	0.77567 0.55903 0.35383 -0.18500
C 	C 	0.06547 0.84143 0.28733 0.60300
H 	H 	0.09047 0.85013 0.30393 -0.18900
C 	C 	0.81307 0.86973 0.28873 0.53500
H 	H 	0.79057 0.87053 0.30223 -0.16600
C 	C 	0.90807 0.83063 0.51623 -0.30800
H 	H 	0.89417 0.81013 0.54423 0.11000
H 	H 	0.93217 0.85273 0.53283 0.09500
C 	C 	0.77527 0.68813 0.46883 -0.36200
H 	H 	0.78197 0.68633 0.50683 0.11700
H 	H 	0.75007 0.68863 0.46853 0.11200
Tb	Tb	0.55112 0.09794 0.67484 1.88600
Tb	Tb	0.43687 0.87476 0.83365 1.27800
Cu	Cu	0.47411 0.00085 0.71006 0.90300
Cu	Cu	0.63183 0.10268 0.74943 0.86800
Cu	Cu	0.52510 0.15345 0.76113 0.86800
Cu	Cu	0.48751 0.02607 0.58083 0.86300
Cu	Cu	0.64678 0.12686 0.61891 0.91000
Cu	Cu	0.53825 0.17758 0.63266 0.90600
O 	O 	0.49212 0.05711 0.73543 -0.58200
O 	O 	0.48167 0.09101 0.80137 -0.43600
O 	O 	0.57341 0.06284 0.73791 -0.58000
O 	O 	0.52602 0.00015 0.76047 -0.40900
O 	O 	0.56812 0.13881 0.75875 -0.58600
O 	O 	0.61600 0.13862 0.81007 -0.44000
O 	O 	0.50516 0.08338 0.59501 -0.57200
O 	O 	0.49772 0.13394 0.56377 -0.40800
O 	O 	0.58858 0.08818 0.60049 -0.57100
O 	O 	0.54937 0.04937 0.53313 -0.43300
O 	O 	0.58018 0.16122 0.62365 -0.57200
O 	O 	0.63929 0.17903 0.58357 -0.41700
O 	O 	0.51311 0.02714 0.65047 -0.57200
O 	O 	0.62480 0.13181 0.68920 -0.55600
O 	O 	0.51425 0.13326 0.68622 -0.57000
O 	O 	0.45602 0.94744 0.67732 -0.48300
O 	O 	0.44250 0.91384 0.75667 -0.55100
O 	O 	0.70185 0.15299 0.64767 -0.53200
O 	O 	0.73231 0.18612 0.57327 -0.55100
O 	O 	0.49781 0.19237 0.65487 -0.49600
O 	O 	0.48883 0.21272 0.57307 -0.52800
N 	N 	0.43623 0.98557 0.77247 -0.26300
H 	H 	0.41053 0.97147 0.76007 0.06600
H 	H 	0.44023 0.96937 0.79547 0.08200
N 	N 	0.62883 0.06357 0.80477 -0.27200
H 	H 	0.64913 0.05817 0.79947 0.06200
H 	H 	0.63153 0.07407 0.83867 0.08500
N 	N 	0.54863 0.17897 0.83207 -0.27700
H 	H 	0.56293 0.20617 0.82847 0.06500
H 	H 	0.52883 0.17257 0.85697 0.08600
N 	N 	0.46113 0.03273 0.51537 -0.27300
H 	H 	0.46963 0.02547 0.48517 0.08300
H 	H 	0.43403 0.01667 0.51797 0.06300
N 	N 	0.65743 0.11227 0.54657 -0.26600
H 	H 	0.67373 0.13497 0.52747 0.07700
H 	H 	0.67033 0.09797 0.55027 0.06700
N 	N 	0.57203 0.22045 0.58037 -0.27300
H 	H 	0.55833 0.21637 0.54867 0.08500
H 	H 	0.57743 0.24467 0.59397 0.07100
C 	C 	0.47443 0.05937 0.77807 0.47700
C 	C 	0.58993 0.02647 0.79987 -0.35600
H 	H 	0.57803 0.01837 0.83617 0.11700
H 	H 	0.59443 0.00517 0.78597 0.10600
C 	C 	0.56093 0.02987 0.76387 0.46100
C 	C 	0.58793 0.14527 0.80217 0.45500
C 	C 	0.47113 0.07387 0.51097 -0.32000
H 	H 	0.44643 0.07477 0.50467 0.10000
H 	H 	0.48853 0.08587 0.47917 0.10600
C 	C 	0.49223 0.09927 0.56057 0.44300
C 	C 	0.62033 0.08857 0.51727 -0.32000
H 	H 	0.62053 0.06527 0.50127 0.09300
H 	H 	0.61913 0.10477 0.48727 0.09900
C 	C 	0.58283 0.07367 0.55167 0.44800
C 	C 	0.60993 0.22097 0.56997 -0.30900
H 	H 	0.63213 0.24537 0.58597 0.09200
H 	H 	0.61443 0.22217 0.53057 0.09400
C 	C 	0.61083 0.18417 0.59307 0.44100
C 	C 	0.44653 0.91557 0.70567 0.50700
H 	H 	0.44233 0.89237 0.68717 -0.18500
C 	C 	0.73213 0.17477 0.62067 0.60300
H 	H 	0.75713 0.18347 0.63727 -0.18900
C 	C 	0.47973 0.20307 0.62207 0.53500
H 	H 	0.45723 0.20387 0.63557 -0.16600
C 	C 	0.57473 0.16397 0.84957 -0.30800
H 	H 	0.56083 0.14347 0.87757 0.11000
H 	H 	0.59883 0.18607 0.86617 0.09500
C 	C 	0.44193 0.02147 0.80217 -0.36200
H 	H 	0.44863 0.01967 0.84017 0.11700
H 	H 	0.41673 0.02197 0.80187 0.11200
Tb	Tb	0.56873 0.78652 0.00817 1.88500
Tb	Tb	0.79191 0.89545 0.16699 1.27800
Cu	Cu	0.66582 0.80660 0.04339 0.90300
Cu	Cu	0.56399 0.86249 0.08276 0.86800
Cu	Cu	0.51322 0.70499 0.09446 0.86800
Cu	Cu	0.64060 0.79478 0.91416 0.86300
Cu	Cu	0.53981 0.85326 0.95224 0.91000
Cu	Cu	0.48909 0.69401 0.96599 0.90600
O 	O 	0.60956 0.76835 0.06876 -0.58200
O 	O 	0.57566 0.72400 0.13470 -0.43600
O 	O 	0.60383 0.84391 0.07124 -0.58000
O 	O 	0.66652 0.85921 0.09380 -0.40900
O 	O 	0.52786 0.76265 0.09208 -0.58600
O 	O 	0.52805 0.81072 0.14340 -0.44000
O 	O 	0.58329 0.75512 0.92834 -0.57200
O 	O 	0.53273 0.69712 0.89710 -0.40800
O 	O 	0.57849 0.83374 0.93382 -0.57100
O 	O 	0.61730 0.83334 0.86646 -0.43300
O 	O 	0.50545 0.75230 0.95698 -0.57200
O 	O 	0.48764 0.79360 0.91690 -0.41700
O 	O 	0.63953 0.81931 0.98380 -0.57200
O 	O 	0.53486 0.82633 0.02253 -0.55600
O 	O 	0.53341 0.71433 0.01955 -0.57000
O 	O 	0.71923 0.84192 0.01065 -0.48300
O 	O 	0.75283 0.86200 0.09000 -0.55100
O 	O 	0.51368 0.88220 0.98100 -0.53200
O 	O 	0.48055 0.87953 0.90660 -0.55100
O 	O 	0.47430 0.63878 0.98820 -0.49600
O 	O 	0.45395 0.60945 0.90640 -0.52800
N 	N 	0.68110 0.78400 0.10580 -0.26300
H 	H 	0.69520 0.77240 0.09340 0.06600
H 	H 	0.69730 0.80420 0.12880 0.08200
N 	N 	0.60310 0.89860 0.13810 -0.27200
H 	H 	0.60850 0.92430 0.13280 0.06200
H 	H 	0.59260 0.89080 0.17200 0.08500
N 	N 	0.48770 0.70300 0.16540 -0.27700
H 	H 	0.46050 0.69010 0.16180 0.06500
H 	H 	0.49410 0.68960 0.19030 0.08600
N 	N 	0.63394 0.76174 0.84870 -0.27300
H 	H 	0.64120 0.77750 0.81850 0.08300
H 	H 	0.65000 0.75070 0.85130 0.06300
N 	N 	0.55440 0.87850 0.87990 -0.26600
H 	H 	0.53170 0.87210 0.86080 0.07700
H 	H 	0.56870 0.90570 0.88360 0.06700
N 	N 	0.44622 0.68492 0.91370 -0.27300
H 	H 	0.45030 0.67530 0.88200 0.08500
H 	H 	0.42200 0.66610 0.92730 0.07100
C 	C 	0.60730 0.74840 0.11140 0.47700
C 	C 	0.64020 0.89680 0.13320 -0.35600
H 	H 	0.64830 0.89300 0.16950 0.11700
H 	H 	0.66150 0.92260 0.11930 0.10600
C 	C 	0.63680 0.86440 0.09720 0.46100
C 	C 	0.52140 0.77600 0.13550 0.45500
C 	C 	0.59280 0.73060 0.84430 -0.32000
H 	H 	0.59190 0.70500 0.83800 0.10000
H 	H 	0.58080 0.73600 0.81250 0.10600
C 	C 	0.56740 0.72630 0.89390 0.44300
C 	C 	0.57810 0.86510 0.85060 -0.32000
H 	H 	0.60140 0.88860 0.83460 0.09300
H 	H 	0.56190 0.84770 0.82060 0.09900
C 	C 	0.59300 0.84250 0.88500 0.44800
C 	C 	0.44570 0.72230 0.90330 -0.30900
H 	H 	0.42130 0.72010 0.91930 0.09200
H 	H 	0.44450 0.72560 0.86390 0.09400
C 	C 	0.48250 0.76000 0.92640 0.44100
C 	C 	0.75110 0.86430 0.03900 0.50700
H 	H 	0.77430 0.88330 0.02050 -0.18500
C 	C 	0.49190 0.89070 0.95400 0.60200
H 	H 	0.48320 0.90700 0.97060 -0.18900
C 	C 	0.46360 0.61000 0.95540 0.53500
H 	H 	0.46280 0.58670 0.96890 -0.16600
C 	C 	0.50270 0.74410 0.18290 -0.30800
H 	H 	0.52320 0.75070 0.21090 0.11000
H 	H 	0.48060 0.74610 0.19950 0.09500
C 	C 	0.64520 0.75380 0.13550 -0.36200
H 	H 	0.64700 0.76230 0.17350 0.11700
H 	H 	0.64470 0.72810 0.13520 0.11200
Tb	Tb	0.23540 0.11985 0.34150 1.88600
Tb	Tb	0.45858 0.22878 0.50032 1.27800
Cu	Cu	0.33249 0.13993 0.37672 0.90300
Cu	Cu	0.23066 0.19582 0.41609 0.86800
Cu	Cu	0.17989 0.03832 0.42779 0.86800
Cu	Cu	0.30727 0.12811 0.24749 0.86300
Cu	Cu	0.20648 0.18659 0.28557 0.91000
Cu	Cu	0.15576 0.02734 0.29932 0.90600
O 	O 	0.27623 0.10168 0.40209 -0.58200
O 	O 	0.24233 0.05733 0.46803 -0.43600
O 	O 	0.27050 0.17724 0.40457 -0.58000
O 	O 	0.33319 0.19254 0.42713 -0.40900
O 	O 	0.19453 0.09598 0.42541 -0.58600
O 	O 	0.19472 0.14405 0.47673 -0.44000
O 	O 	0.24996 0.08845 0.26167 -0.57200
O 	O 	0.19940 0.03045 0.23043 -0.40800
O 	O 	0.24516 0.16707 0.26715 -0.57100
O 	O 	0.28397 0.16667 0.19979 -0.43300
O 	O 	0.17212 0.08563 0.29031 -0.57200
O 	O 	0.15431 0.12693 0.25023 -0.41700
O 	O 	0.30620 0.15264 0.31713 -0.57200
O 	O 	0.20153 0.15966 0.35586 -0.55600
O 	O 	0.20008 0.04766 0.35288 -0.57000
O 	O 	0.38590 0.17525 0.34398 -0.48400
O 	O 	0.41950 0.19533 0.42333 -0.55100
O 	O 	0.18035 0.21553 0.31433 -0.53200
O 	O 	0.14722 0.21286 0.23993 -0.55100
O 	O 	0.14097 0.97211 0.32153 -0.49600
O 	O 	0.12062 0.94278 0.23973 -0.52800
N 	N 	0.34777 0.11733 0.43913 -0.26300
H 	H 	0.36187 0.10573 0.42673 0.06600
H 	H 	0.36397 0.13753 0.46213 0.08200
N 	N 	0.26977 0.23193 0.47143 -0.27200
H 	H 	0.27517 0.25763 0.46613 0.06200
H 	H 	0.25927 0.22413 0.50533 0.08500
N 	N 	0.15437 0.03633 0.49873 -0.27700
H 	H 	0.12717 0.02343 0.49513 0.06500
H 	H 	0.16077 0.02293 0.52363 0.08600
N 	N 	0.30061 0.09507 0.18203 -0.27300
H 	H 	0.30787 0.11083 0.15183 0.08300
H 	H 	0.31667 0.08403 0.18463 0.06300
N 	N 	0.22107 0.21183 0.21323 -0.26600
H 	H 	0.19837 0.20543 0.19413 0.07700
H 	H 	0.23537 0.23903 0.21693 0.06700
N 	N 	0.11289 0.01825 0.24703 -0.27300
H 	H 	0.11697 0.00863 0.21533 0.08500
H 	H 	0.08867 0.99943 0.26063 0.07100
C 	C 	0.27397 0.08173 0.44473 0.47700
C 	C 	0.30687 0.23013 0.46653 -0.35600
H 	H 	0.31497 0.22633 0.50283 0.11800
H 	H 	0.32817 0.25593 0.45263 0.10600
C 	C 	0.30347 0.19773 0.43053 0.46100
C 	C 	0.18807 0.10933 0.46883 0.45500
C 	C 	0.25947 0.06393 0.17763 -0.32000
H 	H 	0.25857 0.03833 0.17133 0.10000
H 	H 	0.24747 0.06933 0.14583 0.10600
C 	C 	0.23407 0.05963 0.22723 0.44300
C 	C 	0.24477 0.19843 0.18393 -0.32000
H 	H 	0.26807 0.22193 0.16793 0.09300
H 	H 	0.22857 0.18103 0.15393 0.09900
C 	C 	0.25967 0.17583 0.21833 0.44800
C 	C 	0.11237 0.05563 0.23663 -0.30900
H 	H 	0.08797 0.05343 0.25263 0.09200
H 	H 	0.11117 0.05893 0.19723 0.09400
C 	C 	0.14917 0.09333 0.25973 0.44100
C 	C 	0.41777 0.19763 0.37233 0.50700
H 	H 	0.44097 0.21663 0.35383 -0.18500
C 	C 	0.15857 0.22403 0.28733 0.60300
H 	H 	0.14987 0.24033 0.30393 -0.18900
C 	C 	0.13027 0.94333 0.28873 0.53500
H 	H 	0.12947 0.92003 0.30223 -0.16600
C 	C 	0.16937 0.07743 0.51623 -0.30800
H 	H 	0.18987 0.08403 0.54423 0.11000
H 	H 	0.14727 0.07943 0.53283 0.09500
C 	C 	0.31187 0.08713 0.46883 -0.36200
H 	H 	0.31367 0.09563 0.50683 0.11700
H 	H 	0.31137 0.06143 0.46853 0.11200
Tb	Tb	0.90206 0.45319 0.67484 1.88600
Tb	Tb	0.12524 0.56211 0.83365 1.27800
Cu	Cu	0.99915 0.47327 0.71006 0.90300
Cu	Cu	0.89732 0.52916 0.74943 0.86800
Cu	Cu	0.84655 0.37166 0.76113 0.86800
Cu	Cu	0.97393 0.46145 0.58083 0.86300
Cu	Cu	0.87314 0.51993 0.61891 0.91000
Cu	Cu	0.82242 0.36068 0.63266 0.90600
O 	O 	0.94289 0.43502 0.73543 -0.58200
O 	O 	0.90899 0.39067 0.80137 -0.43600
O 	O 	0.93716 0.51058 0.73791 -0.58000
O 	O 	0.99985 0.52588 0.76047 -0.40900
O 	O 	0.86119 0.42932 0.75875 -0.58600
O 	O 	0.86138 0.47739 0.81007 -0.44000
O 	O 	0.91662 0.42179 0.59501 -0.57200
O 	O 	0.86606 0.36379 0.56377 -0.40800
O 	O 	0.91182 0.50041 0.60049 -0.57100
O 	O 	0.95063 0.50001 0.53313 -0.43300
O 	O 	0.83878 0.41897 0.62365 -0.57200
O 	O 	0.82097 0.46027 0.58357 -0.41700
O 	O 	0.97286 0.48598 0.65047 -0.57200
O 	O 	0.86819 0.49300 0.68920 -0.55600
O 	O 	0.86674 0.38100 0.68622 -0.57000
O 	O 	0.05256 0.50859 0.67732 -0.48300
O 	O 	0.08616 0.52867 0.75667 -0.55100
O 	O 	0.84701 0.54887 0.64767 -0.53200
O 	O 	0.81388 0.54620 0.57327 -0.55100
O 	O 	0.80763 0.30545 0.65487 -0.49600
O 	O 	0.78728 0.27612 0.57307 -0.52800
N 	N 	0.01443 0.45067 0.77247 -0.26300
H 	H 	0.02853 0.43907 0.76007 0.06600
H 	H 	0.03063 0.47087 0.79547 0.08200
N 	N 	0.93643 0.56527 0.80477 -0.27200
H 	H 	0.94183 0.59097 0.79947 0.06200
H 	H 	0.92593 0.55747 0.83867 0.08500
N 	N 	0.82103 0.36967 0.83207 -0.27700
H 	H 	0.79383 0.35677 0.82847 0.06500
H 	H 	0.82743 0.35627 0.85697 0.08600
N 	N 	0.96727 0.42841 0.51537 -0.27300
H 	H 	0.97453 0.44417 0.48517 0.08300
H 	H 	0.98333 0.41737 0.51797 0.06300
N 	N 	0.88773 0.54517 0.54657 -0.26600
H 	H 	0.86503 0.53877 0.52747 0.07700
H 	H 	0.90203 0.57237 0.55027 0.06700
N 	N 	0.77955 0.35159 0.58037 -0.27300
H 	H 	0.78363 0.34197 0.54867 0.08500
H 	H 	0.75533 0.33277 0.59397 0.07100
C 	C 	0.94063 0.41507 0.77807 0.47700
C 	C 	0.97353 0.56347 0.79987 -0.35600
H 	H 	0.98163 0.55967 0.83617 0.11700
H 	H 	0.99483 0.58927 0.78597 0.10600
C 	C 	0.97013 0.53107 0.76387 0.46100
C 	C 	0.85473 0.44267 0.80217 0.45500
C 	C 	0.92613 0.39727 0.51097 -0.32000
H 	H 	0.92523 0.37167 0.50467 0.10000
H 	H 	0.91413 0.40267 0.47917 0.10600
C 	C 	0.90073 0.39297 0.56057 0.44300
C 	C 	0.91143 0.53177 0.51727 -0.32000
H 	H 	0.93473 0.55527 0.50127 0.09300
H 	H 	0.89523 0.51437 0.48727 0.09900
C 	C 	0.92633 0.50917 0.55167 0.44800
C 	C 	0.77903 0.38897 0.56997 -0.30900
H 	H 	0.75463 0.38677 0.58597 0.09100
H 	H 	0.77783 0.39227 0.53057 0.09400
C 	C 	0.81583 0.42667 0.59307 0.44100
C 	C 	0.08443 0.53097 0.70567 0.50700
H 	H 	0.10763 0.54997 0.68717 -0.18500
C 	C 	0.82523 0.55737 0.62067 0.60300
H 	H 	0.81653 0.57367 0.63727 -0.18900
C 	C 	0.79693 0.27667 0.62207 0.53500
H 	H 	0.79613 0.25337 0.63557 -0.16600
C 	C 	0.83603 0.41077 0.84957 -0.30800
H 	H 	0.85653 0.41737 0.87757 0.11000
H 	H 	0.81393 0.41277 0.86617 0.09500
C 	C 	0.97853 0.42047 0.80217 -0.36200
H 	H 	0.98033 0.42897 0.84017 0.11700
H 	H 	0.97803 0.39477 0.80187 0.11200
Tb	Tb	0.21348 0.78221 0.00817 1.88500
Tb	Tb	0.10455 0.89646 0.16699 1.27800
Cu	Cu	0.19340 0.85922 0.04339 0.90300
Cu	Cu	0.13751 0.70150 0.08276 0.86800
Cu	Cu	0.29501 0.80823 0.09446 0.86800
Cu	Cu	0.20522 0.84582 0.91416 0.86300
Cu	Cu	0.14674 0.68655 0.95224 0.91000
Cu	Cu	0.30599 0.79508 0.96599 0.90600
O 	O 	0.23165 0.84121 0.06876 -0.58200
O 	O 	0.27600 0.85166 0.13470 -0.43600
O 	O 	0.15609 0.75992 0.07124 -0.58000
O 	O 	0.14079 0.80731 0.09380 -0.40900
O 	O 	0.23735 0.76521 0.09208 -0.58600
O 	O 	0.18928 0.71733 0.14340 -0.44000
O 	O 	0.24488 0.82817 0.92834 -0.57200
O 	O 	0.30288 0.83561 0.89710 -0.40800
O 	O 	0.16626 0.74475 0.93382 -0.57100
O 	O 	0.16666 0.78396 0.86646 -0.43300
O 	O 	0.24770 0.75315 0.95698 -0.57200
O 	O 	0.20640 0.69404 0.91690 -0.41600
O 	O 	0.18069 0.82022 0.98380 -0.57200
O 	O 	0.17367 0.70853 0.02253 -0.55600
O 	O 	0.28567 0.81908 0.01955 -0.57000
O 	O 	0.15808 0.87731 0.01065 -0.48400
O 	O 	0.13800 0.89083 0.09000 -0.55100
O 	O 	0.11780 0.63148 0.98100 -0.53200
O 	O 	0.12047 0.60102 0.90660 -0.55100
O 	O 	0.36122 0.83552 0.98820 -0.49600
O 	O 	0.39055 0.84450 0.90640 -0.52800
N 	N 	0.21600 0.89710 0.10580 -0.26300
H 	H 	0.22760 0.92280 0.09340 0.06600
H 	H 	0.19580 0.89310 0.12880 0.08200
N 	N 	0.10140 0.70450 0.13810 -0.27200
H 	H 	0.07570 0.68420 0.13280 0.06200
H 	H 	0.10920 0.70180 0.17200 0.08500
N 	N 	0.29700 0.78470 0.16540 -0.27700
H 	H 	0.30990 0.77040 0.16180 0.06500
H 	H 	0.31040 0.80450 0.19030 0.08600
N 	N 	0.23826 0.87220 0.84870 -0.27300
H 	H 	0.22250 0.86370 0.81850 0.08300
H 	H 	0.24930 0.89930 0.85130 0.06300
N 	N 	0.12150 0.67590 0.87990 -0.26600
H 	H 	0.12790 0.65960 0.86080 0.07700
H 	H 	0.09430 0.66300 0.88360 0.06700
N 	N 	0.31508 0.76130 0.91370 -0.27300
H 	H 	0.32470 0.77500 0.88200 0.08500
H 	H 	0.33390 0.75590 0.92730 0.07100
C 	C 	0.25160 0.85890 0.11140 0.47700
C 	C 	0.10320 0.74340 0.13320 -0.35600
H 	H 	0.10700 0.75530 0.16950 0.11700
H 	H 	0.07740 0.73890 0.11930 0.10600
C 	C 	0.13560 0.77240 0.09720 0.46100
C 	C 	0.22400 0.74540 0.13550 0.45500
C 	C 	0.26940 0.86220 0.84430 -0.32000
H 	H 	0.29500 0.88690 0.83800 0.10000
H 	H 	0.26400 0.84480 0.81250 0.10600
C 	C 	0.27370 0.84110 0.89390 0.44300
C 	C 	0.13490 0.71300 0.85060 -0.32000
H 	H 	0.11140 0.71280 0.83460 0.09300
H 	H 	0.15230 0.71420 0.82060 0.09900
C 	C 	0.15750 0.75050 0.88500 0.44800
C 	C 	0.27770 0.72340 0.90330 -0.30800
H 	H 	0.27990 0.70120 0.91930 0.09200
H 	H 	0.27440 0.71890 0.86390 0.09400
C 	C 	0.24000 0.72250 0.92640 0.44100
C 	C 	0.13570 0.88680 0.03900 0.50700
H 	H 	0.11670 0.89100 0.02050 -0.18600
C 	C 	0.10930 0.60120 0.95400 0.60200
H 	H 	0.09300 0.57620 0.97060 -0.18900
C 	C 	0.39000 0.85360 0.95540 0.53500
H 	H 	0.41330 0.87610 0.96890 -0.16600
C 	C 	0.25590 0.75860 0.18290 -0.30800
H 	H 	0.24930 0.77250 0.21090 0.11000
H 	H 	0.25390 0.73450 0.19950 0.09500
C 	C 	0.24620 0.89140 0.13550 -0.36200
H 	H 	0.23770 0.88470 0.17350 0.11700
H 	H 	0.27190 0.91660 0.13520 0.11200
Tb	Tb	0.88015 0.11554 0.34150 1.88600
Tb	Tb	0.77122 0.22980 0.50032 1.27800
Cu	Cu	0.86007 0.19255 0.37672 0.90300
Cu	Cu	0.80418 0.03483 0.41609 0.86800
Cu	Cu	0.96168 0.14156 0.42779 0.86800
Cu	Cu	0.87189 0.17915 0.24749 0.86300
Cu	Cu	0.81341 0.01988 0.28557 0.91000
Cu	Cu	0.97266 0.12841 0.29932 0.90600
O 	O 	0.89832 0.17454 0.40209 -0.58200
O 	O 	0.94267 0.18499 0.46803 -0.43600
O 	O 	0.82276 0.09325 0.40457 -0.58000
O 	O 	0.80746 0.14064 0.42713 -0.40900
O 	O 	0.90402 0.09854 0.42541 -0.58600
O 	O 	0.85595 0.05066 0.47673 -0.44000
O 	O 	0.91155 0.16150 0.26167 -0.57200
O 	O 	0.96955 0.16894 0.23043 -0.40800
O 	O 	0.83293 0.07808 0.26715 -0.57100
O 	O 	0.83333 0.11729 0.19979 -0.43300
O 	O 	0.91437 0.08648 0.29031 -0.57200
O 	O 	0.87307 0.02737 0.25023 -0.41600
O 	O 	0.84736 0.15355 0.31713 -0.57200
O 	O 	0.84034 0.04186 0.35586 -0.55600
O 	O 	0.95234 0.15241 0.35288 -0.57000
O 	O 	0.82475 0.21064 0.34398 -0.48300
O 	O 	0.80467 0.22416 0.42333 -0.55100
O 	O 	0.78447 0.96481 0.31433 -0.53200
O 	O 	0.78714 0.93435 0.23993 -0.55100
O 	O 	0.02789 0.16885 0.32153 -0.49600
O 	O 	0.05722 0.17783 0.23973 -0.52800
N 	N 	0.88267 0.23043 0.43913 -0.26300
H 	H 	0.89427 0.25613 0.42673 0.06600
H 	H 	0.86247 0.22643 0.46213 0.08200
N 	N 	0.76807 0.03783 0.47143 -0.27200
H 	H 	0.74237 0.01753 0.46613 0.06200
H 	H 	0.77587 0.03513 0.50533 0.08500
N 	N 	0.96367 0.11803 0.49873 -0.27700
H 	H 	0.97657 0.10373 0.49513 0.06500
H 	H 	0.97707 0.13783 0.52363 0.08600
N 	N 	0.90493 0.20553 0.18203 -0.27300
H 	H 	0.88917 0.19703 0.15183 0.08300
H 	H 	0.91597 0.23263 0.18463 0.06300
N 	N 	0.78817 0.00923 0.21323 -0.26500
H 	H 	0.79457 0.99293 0.19413 0.07700
H 	H 	0.76097 0.99633 0.21693 0.06700
N 	N 	0.98175 0.09463 0.24703 -0.27300
H 	H 	0.99137 0.10833 0.21533 0.08500
H 	H 	0.00057 0.08923 0.26063 0.07100
C 	C 	0.91827 0.19223 0.44473 0.47700
C 	C 	0.76987 0.07673 0.46653 -0.35600
H 	H 	0.77367 0.08863 0.50283 0.11800
H 	H 	0.74407 0.07223 0.45263 0.10600
C 	C 	0.80227 0.10573 0.43053 0.46100
C 	C 	0.89067 0.07873 0.46883 0.45500
C 	C 	0.93607 0.19553 0.17763 -0.32000
H 	H 	0.96167 0.22023 0.17133 0.10000
H 	H 	0.93067 0.17813 0.14583 0.10600
C 	C 	0.94037 0.17443 0.22723 0.44300
C 	C 	0.80157 0.04633 0.18393 -0.32100
H 	H 	0.77807 0.04613 0.16793 0.09300
H 	H 	0.81897 0.04753 0.15393 0.09900
C 	C 	0.82417 0.08383 0.21833 0.44800
C 	C 	0.94437 0.05673 0.23663 -0.30900
H 	H 	0.94657 0.03453 0.25263 0.09200
H 	H 	0.94107 0.05223 0.19723 0.09400
C 	C 	0.90667 0.05583 0.25973 0.44200
C 	C 	0.80237 0.22013 0.37233 0.50700
H 	H 	0.78337 0.22433 0.35383 -0.18500
C 	C 	0.77597 0.93453 0.28733 0.60300
H 	H 	0.75967 0.90953 0.30393 -0.18900
C 	C 	0.05667 0.18693 0.28873 0.53500
H 	H 	0.07997 0.20943 0.30223 -0.16600
C 	C 	0.92257 0.09193 0.51623 -0.30800
H 	H 	0.91597 0.10583 0.54423 0.11000
H 	H 	0.92057 0.06783 0.53283 0.09500
C 	C 	0.91287 0.22473 0.46883 -0.36200
H 	H 	0.90437 0.21803 0.50683 0.11700
H 	H 	0.93857 0.24993 0.46853 0.11200
Tb	Tb	0.54681 0.44888 0.67484 1.88600
Tb	Tb	0.43789 0.56313 0.83365 1.27800
Cu	Cu	0.52673 0.52589 0.71006 0.90300
Cu	Cu	0.47084 0.36817 0.74943 0.86800
Cu	Cu	0.62834 0.47490 0.76113 0.86800
Cu	Cu	0.53855 0.51249 0.58083 0.86300
Cu	Cu	0.48007 0.35322 0.61891 0.91000
Cu	Cu	0.63932 0.46175 0.63266 0.90600
O 	O 	0.56498 0.50788 0.73543 -0.58200
O 	O 	0.60933 0.51833 0.80137 -0.43600
O 	O 	0.48942 0.42659 0.73791 -0.58000
O 	O 	0.47412 0.47398 0.76047 -0.40900
O 	O 	0.57068 0.43188 0.75875 -0.58600
O 	O 	0.52261 0.38400 0.81007 -0.44000
O 	O 	0.57821 0.49484 0.59501 -0.57200
O 	O 	0.63621 0.50228 0.56377 -0.40800
O 	O 	0.49959 0.41142 0.60049 -0.57100
O 	O 	0.49999 0.45063 0.53313 -0.43300
O 	O 	0.58103 0.41982 0.62365 -0.57200
O 	O 	0.53973 0.36071 0.58357 -0.41700
O 	O 	0.51402 0.48689 0.65047 -0.57200
O 	O 	0.50700 0.37520 0.68920 -0.55600
O 	O 	0.61900 0.48575 0.68622 -0.57000
O 	O 	0.49141 0.54398 0.67732 -0.48400
O 	O 	0.47133 0.55750 0.75667 -0.55100
O 	O 	0.45113 0.29815 0.64767 -0.53200
O 	O 	0.45380 0.26769 0.57327 -0.55100
O 	O 	0.69455 0.50219 0.65487 -0.49600
O 	O 	0.72388 0.51117 0.57307 -0.52800
N 	N 	0.54933 0.56377 0.77247 -0.26300
H 	H 	0.56093 0.58947 0.76007 0.06600
H 	H 	0.52913 0.55977 0.79547 0.08200
N 	N 	0.43473 0.37117 0.80477 -0.27200
H 	H 	0.40903 0.35087 0.79947 0.06200
H 	H 	0.44253 0.36847 0.83867 0.08500
N 	N 	0.63033 0.45137 0.83207 -0.27700
H 	H 	0.64323 0.43707 0.82847 0.06500
H 	H 	0.64373 0.47117 0.85697 0.08600
N 	N 	0.57159 0.53887 0.51537 -0.27300
H 	H 	0.55583 0.53037 0.48517 0.08300
H 	H 	0.58263 0.56597 0.51797 0.06300
N 	N 	0.45483 0.34257 0.54657 -0.26600
H 	H 	0.46123 0.32627 0.52747 0.07700
H 	H 	0.42763 0.32967 0.55027 0.06700
N 	N 	0.64841 0.42797 0.58037 -0.27300
H 	H 	0.65803 0.44167 0.54867 0.08500
H 	H 	0.66723 0.42257 0.59397 0.07100
C 	C 	0.58493 0.52557 0.77807 0.47700
C 	C 	0.43653 0.41007 0.79987 -0.35600
H 	H 	0.44033 0.42197 0.83617 0.11800
H 	H 	0.41073 0.40557 0.78597 0.10600
C 	C 	0.46893 0.43907 0.76387 0.46100
C 	C 	0.55733 0.41207 0.80217 0.45500
C 	C 	0.60273 0.52887 0.51097 -0.32000
H 	H 	0.62833 0.55357 0.50467 0.10000
H 	H 	0.59733 0.51147 0.47917 0.10600
C 	C 	0.60703 0.50777 0.56057 0.44300
C 	C 	0.46823 0.37967 0.51727 -0.32000
H 	H 	0.44473 0.37947 0.50127 0.09300
H 	H 	0.48563 0.38087 0.48727 0.09900
C 	C 	0.49083 0.41717 0.55167 0.44800
C 	C 	0.61103 0.39007 0.56997 -0.30900
H 	H 	0.61323 0.36787 0.58597 0.09100
H 	H 	0.60773 0.38557 0.53057 0.09400
C 	C 	0.57333 0.38917 0.59307 0.44100
C 	C 	0.46903 0.55347 0.70567 0.50700
H 	H 	0.45003 0.55767 0.68717 -0.18500
C 	C 	0.44263 0.26787 0.62067 0.60300
H 	H 	0.42633 0.24287 0.63727 -0.18900
C 	C 	0.72333 0.52027 0.62207 0.53500
H 	H 	0.74663 0.54277 0.63557 -0.16600
C 	C 	0.58923 0.42527 0.84957 -0.30800
H 	H 	0.58263 0.43917 0.87757 0.11000
H 	H 	0.58723 0.40117 0.86617 0.09500
C 	C 	0.57953 0.55807 0.80217 -0.36200
H 	H 	0.57103 0.55137 0.84017 0.11700
H 	H 	0.60523 0.58327 0.80187 0.11200
Tb	Tb	0.78221 0.56873 0.99183 1.88500
Tb	Tb	0.89646 0.79191 0.83301 1.27800
Cu	Cu	0.85922 0.66582 0.95661 0.90300
Cu	Cu	0.70150 0.56399 0.91724 0.86800
Cu	Cu	0.80823 0.51322 0.90554 0.86800
Cu	Cu	0.84582 0.64060 0.08584 0.86300
Cu	Cu	0.68655 0.53981 0.04776 0.91000
Cu	Cu	0.79508 0.48909 0.03401 0.90600
O 	O 	0.84121 0.60956 0.93124 -0.58200
O 	O 	0.85166 0.57566 0.86530 -0.43600
O 	O 	0.75992 0.60383 0.92876 -0.58000
O 	O 	0.80731 0.66652 0.90620 -0.40900
O 	O 	0.76521 0.52786 0.90792 -0.58600
O 	O 	0.71733 0.52805 0.85660 -0.44000
O 	O 	0.82817 0.58329 0.07166 -0.57200
O 	O 	0.83561 0.53273 0.10290 -0.40800
O 	O 	0.74475 0.57849 0.06618 -0.57100
O 	O 	0.78396 0.61730 0.13354 -0.43300
O 	O 	0.75315 0.50545 0.04302 -0.57200
O 	O 	0.69404 0.48764 0.08310 -0.41700
O 	O 	0.82022 0.63953 0.01620 -0.57200
O 	O 	0.70853 0.53486 0.97747 -0.55600
O 	O 	0.81908 0.53341 0.98045 -0.57000
O 	O 	0.87731 0.71923 0.98935 -0.48400
O 	O 	0.89083 0.75283 0.91000 -0.55100
O 	O 	0.63148 0.51368 0.01900 -0.53200
O 	O 	0.60102 0.48055 0.09340 -0.55100
O 	O 	0.83552 0.47430 0.01180 -0.49600
O 	O 	0.84450 0.45395 0.09360 -0.52800
N 	N 	0.89710 0.68110 0.89420 -0.26300
H 	H 	0.92280 0.69520 0.90660 0.06600
H 	H 	0.89310 0.69730 0.87120 0.08200
N 	N 	0.70450 0.60310 0.86190 -0.27200
H 	H 	0.68420 0.60850 0.86720 0.06200
H 	H 	0.70180 0.59260 0.82800 0.08500
N 	N 	0.78470 0.48770 0.83460 -0.27700
H 	H 	0.77040 0.46050 0.83820 0.06500
H 	H 	0.80450 0.49410 0.80970 0.08600
N 	N 	0.87220 0.63394 0.15130 -0.27300
H 	H 	0.86370 0.64120 0.18150 0.08300
H 	H 	0.89930 0.65000 0.14870 0.06300
N 	N 	0.67590 0.55440 0.12010 -0.26600
H 	H 	0.65960 0.53170 0.13920 0.07700
H 	H 	0.66300 0.56870 0.11640 0.06700
N 	N 	0.76130 0.44622 0.08630 -0.27300
H 	H 	0.77500 0.45030 0.11800 0.08500
H 	H 	0.75590 0.42200 0.07270 0.07100
C 	C 	0.85890 0.60730 0.88860 0.47700
C 	C 	0.74340 0.64020 0.86680 -0.35600
H 	H 	0.75530 0.64830 0.83050 0.11800
H 	H 	0.73890 0.66150 0.88070 0.10600
C 	C 	0.77240 0.63680 0.90280 0.46100
C 	C 	0.74540 0.52140 0.86450 0.45500
C 	C 	0.86220 0.59280 0.15570 -0.32000
H 	H 	0.88690 0.59190 0.16200 0.10000
H 	H 	0.84480 0.58080 0.18750 0.10600
C 	C 	0.84110 0.56740 0.10610 0.44300
C 	C 	0.71300 0.57810 0.14940 -0.32000
H 	H 	0.71280 0.60140 0.16540 0.09300
H 	H 	0.71420 0.56190 0.17940 0.09900
C 	C 	0.75050 0.59300 0.11500 0.44800
C 	C 	0.72340 0.44570 0.09670 -0.30900
H 	H 	0.70120 0.42130 0.08070 0.09200
H 	H 	0.71890 0.44450 0.13610 0.09400
C 	C 	0.72250 0.48250 0.07360 0.44100
C 	C 	0.88680 0.75110 0.96100 0.50700
H 	H 	0.89100 0.77430 0.97950 -0.18500
C 	C 	0.60120 0.49190 0.04600 0.60300
H 	H 	0.57620 0.48320 0.02940 -0.18900
C 	C 	0.85360 0.46360 0.04460 0.53500
H 	H 	0.87610 0.46280 0.03110 -0.16600
C 	C 	0.75860 0.50270 0.81710 -0.30800
H 	H 	0.77250 0.52320 0.78910 0.11000
H 	H 	0.73450 0.48060 0.80050 0.09500
C 	C 	0.89140 0.64520 0.86450 -0.36200
H 	H 	0.88470 0.64700 0.82650 0.11700
H 	H 	0.91660 0.64470 0.86480 0.11200
Tb	Tb	0.44888 0.90206 0.32516 1.88600
Tb	Tb	0.56313 0.12524 0.16635 1.27800
Cu	Cu	0.52589 0.99915 0.28994 0.90300
Cu	Cu	0.36817 0.89732 0.25057 0.86800
Cu	Cu	0.47490 0.84655 0.23887 0.86800
Cu	Cu	0.51249 0.97393 0.41917 0.86300
Cu	Cu	0.35322 0.87314 0.38109 0.91000
Cu	Cu	0.46175 0.82242 0.36734 0.90600
O 	O 	0.50788 0.94289 0.26457 -0.58200
O 	O 	0.51833 0.90899 0.19863 -0.43600
O 	O 	0.42659 0.93716 0.26209 -0.58000
O 	O 	0.47398 0.99985 0.23953 -0.40900
O 	O 	0.43188 0.86119 0.24125 -0.58600
O 	O 	0.38400 0.86138 0.18993 -0.44000
O 	O 	0.49484 0.91662 0.40499 -0.57200
O 	O 	0.50228 0.86606 0.43623 -0.40800
O 	O 	0.41142 0.91182 0.39951 -0.57100
O 	O 	0.45063 0.95063 0.46687 -0.43300
O 	O 	0.41982 0.83878 0.37635 -0.57200
O 	O 	0.36071 0.82097 0.41643 -0.41700
O 	O 	0.48689 0.97286 0.34953 -0.57200
O 	O 	0.37520 0.86819 0.31080 -0.55600
O 	O 	0.48575 0.86674 0.31378 -0.57000
O 	O 	0.54398 0.05256 0.32268 -0.48300
O 	O 	0.55750 0.08616 0.24333 -0.55100
O 	O 	0.29815 0.84701 0.35233 -0.53200
O 	O 	0.26769 0.81388 0.42673 -0.55100
O 	O 	0.50219 0.80763 0.34513 -0.49600
O 	O 	0.51117 0.78728 0.42693 -0.52800
N 	N 	0.56377 0.01443 0.22753 -0.26300
H 	H 	0.58947 0.02853 0.23993 0.06600
H 	H 	0.55977 0.03063 0.20453 0.08200
N 	N 	0.37117 0.93643 0.19523 -0.27200
H 	H 	0.35087 0.94183 0.20053 0.06200
H 	H 	0.36847 0.92593 0.16133 0.08500
N 	N 	0.45137 0.82103 0.16793 -0.27700
H 	H 	0.43707 0.79383 0.17153 0.06500
H 	H 	0.47117 0.82743 0.14303 0.08600
N 	N 	0.53887 0.96727 0.48463 -0.27300
H 	H 	0.53037 0.97453 0.51483 0.08300
H 	H 	0.56597 0.98333 0.48203 0.06300
N 	N 	0.34257 0.88773 0.45343 -0.26600
H 	H 	0.32627 0.86503 0.47253 0.07700
H 	H 	0.32967 0.90203 0.44973 0.06700
N 	N 	0.42797 0.77955 0.41963 -0.27300
H 	H 	0.44167 0.78363 0.45133 0.08500
H 	H 	0.42257 0.75533 0.40603 0.07100
C 	C 	0.52557 0.94063 0.22193 0.47700
C 	C 	0.41007 0.97353 0.20013 -0.35600
H 	H 	0.42197 0.98163 0.16383 0.11700
H 	H 	0.40557 0.99483 0.21403 0.10600
C 	C 	0.43907 0.97013 0.23613 0.46100
C 	C 	0.41207 0.85473 0.19783 0.45500
C 	C 	0.52887 0.92613 0.48903 -0.32000
H 	H 	0.55357 0.92523 0.49533 0.10000
H 	H 	0.51147 0.91413 0.52083 0.10600
C 	C 	0.50777 0.90073 0.43943 0.44300
C 	C 	0.37967 0.91143 0.48273 -0.32000
H 	H 	0.37947 0.93473 0.49873 0.09300
H 	H 	0.38087 0.89523 0.51273 0.09900
C 	C 	0.41717 0.92633 0.44833 0.44800
C 	C 	0.39007 0.77903 0.43003 -0.30900
H 	H 	0.36787 0.75463 0.41403 0.09200
H 	H 	0.38557 0.77783 0.46943 0.09400
C 	C 	0.38917 0.81583 0.40693 0.44100
C 	C 	0.55347 0.08443 0.29433 0.50700
H 	H 	0.55767 0.10763 0.31283 -0.18500
C 	C 	0.26787 0.82523 0.37933 0.60300
H 	H 	0.24287 0.81653 0.36273 -0.18900
C 	C 	0.52027 0.79693 0.37793 0.53500
H 	H 	0.54277 0.79613 0.36443 -0.16600
C 	C 	0.42527 0.83603 0.15043 -0.30800
H 	H 	0.43917 0.85653 0.12243 0.11000
H 	H 	0.40117 0.81393 0.13383 0.09500
C 	C 	0.55807 0.97853 0.19783 -0.36200
H 	H 	0.55137 0.98033 0.15983 0.11700
H 	H 	0.58327 0.97803 0.19813 0.11200
Tb	Tb	0.11554 0.23540 0.65850 1.88600
Tb	Tb	0.22980 0.45858 0.49968 1.27800
Cu	Cu	0.19255 0.33249 0.62328 0.90300
Cu	Cu	0.03483 0.23066 0.58391 0.86800
Cu	Cu	0.14156 0.17989 0.57221 0.86800
Cu	Cu	0.17915 0.30727 0.75251 0.86300
Cu	Cu	0.01988 0.20648 0.71443 0.91000
Cu	Cu	0.12841 0.15576 0.70068 0.90600
O 	O 	0.17454 0.27623 0.59791 -0.58200
O 	O 	0.18499 0.24233 0.53197 -0.43600
O 	O 	0.09325 0.27050 0.59543 -0.58000
O 	O 	0.14064 0.33319 0.57287 -0.40900
O 	O 	0.09854 0.19453 0.57459 -0.58600
O 	O 	0.05066 0.19472 0.52327 -0.44000
O 	O 	0.16150 0.24996 0.73833 -0.57200
O 	O 	0.16894 0.19940 0.76957 -0.40800
O 	O 	0.07808 0.24516 0.73285 -0.57100
O 	O 	0.11729 0.28397 0.80021 -0.43300
O 	O 	0.08648 0.17212 0.70969 -0.57200
O 	O 	0.02737 0.15431 0.74977 -0.41600
O 	O 	0.15355 0.30620 0.68287 -0.57200
O 	O 	0.04186 0.20153 0.64414 -0.55600
O 	O 	0.15241 0.20008 0.64712 -0.57000
O 	O 	0.21064 0.38590 0.65602 -0.48400
O 	O 	0.22416 0.41950 0.57667 -0.55100
O 	O 	0.96481 0.18035 0.68567 -0.53200
O 	O 	0.93435 0.14722 0.76007 -0.55100
O 	O 	0.16885 0.14097 0.67847 -0.49600
O 	O 	0.17783 0.12062 0.76027 -0.52800
N 	N 	0.23043 0.34777 0.56087 -0.26300
H 	H 	0.25613 0.36187 0.57327 0.06600
H 	H 	0.22643 0.36397 0.53787 0.08200
N 	N 	0.03783 0.26977 0.52857 -0.27200
H 	H 	0.01753 0.27517 0.53387 0.06200
H 	H 	0.03513 0.25927 0.49467 0.08500
N 	N 	0.11803 0.15437 0.50127 -0.27700
H 	H 	0.10373 0.12717 0.50487 0.06500
H 	H 	0.13783 0.16077 0.47637 0.08600
N 	N 	0.20553 0.30061 0.81797 -0.27300
H 	H 	0.19703 0.30787 0.84817 0.08300
H 	H 	0.23263 0.31667 0.81537 0.06300
N 	N 	0.00923 0.22107 0.78677 -0.26500
H 	H 	0.99293 0.19837 0.80587 0.07700
H 	H 	0.99633 0.23537 0.78307 0.06700
N 	N 	0.09463 0.11289 0.75297 -0.27300
H 	H 	0.10833 0.11697 0.78467 0.08500
H 	H 	0.08923 0.08867 0.73937 0.07100
C 	C 	0.19223 0.27397 0.55527 0.47700
C 	C 	0.07673 0.30687 0.53347 -0.35600
H 	H 	0.08863 0.31497 0.49717 0.11800
H 	H 	0.07223 0.32817 0.54737 0.10600
C 	C 	0.10573 0.30347 0.56947 0.46100
C 	C 	0.07873 0.18807 0.53117 0.45500
C 	C 	0.19553 0.25947 0.82237 -0.32000
H 	H 	0.22023 0.25857 0.82867 0.10000
H 	H 	0.17813 0.24747 0.85417 0.10600
C 	C 	0.17443 0.23407 0.77277 0.44300
C 	C 	0.04633 0.24477 0.81607 -0.32000
H 	H 	0.04613 0.26807 0.83207 0.09300
H 	H 	0.04753 0.22857 0.84607 0.09900
C 	C 	0.08383 0.25967 0.78167 0.44800
C 	C 	0.05673 0.11237 0.76337 -0.30900
H 	H 	0.03453 0.08797 0.74737 0.09200
H 	H 	0.05223 0.11117 0.80277 0.09400
C 	C 	0.05583 0.14917 0.74027 0.44100
C 	C 	0.22013 0.41777 0.62767 0.50700
H 	H 	0.22433 0.44097 0.64617 -0.18500
C 	C 	0.93453 0.15857 0.71267 0.60300
H 	H 	0.90953 0.14987 0.69607 -0.18900
C 	C 	0.18693 0.13027 0.71127 0.53500
H 	H 	0.20943 0.12947 0.69777 -0.16600
C 	C 	0.09193 0.16937 0.48377 -0.30800
H 	H 	0.10583 0.18987 0.45577 0.11000
H 	H 	0.06783 0.14727 0.46717 0.09500
C 	C 	0.22473 0.31187 0.53117 -0.36200
H 	H 	0.21803 0.31367 0.49317 0.11700
H 	H 	0.24993 0.31137 0.53147 0.11200
Tb	Tb	0.43127 0.21348 0.99183 1.88500
Tb	Tb	0.20809 0.10455 0.83301 1.27800
Cu	Cu	0.33418 0.19340 0.95661 0.90300
Cu	Cu	0.43601 0.13751 0.91724 0.86800
Cu	Cu	0.48678 0.29501 0.90554 0.86800
Cu	Cu	0.35940 0.20522 0.08584 0.86300
Cu	Cu	0.46019 0.14674 0.04776 0.91000
Cu	Cu	0.51091 0.30599 0.03401 0.90600
O 	O 	0.39044 0.23165 0.93124 -0.58200
O 	O 	0.42434 0.27600 0.86530 -0.43600
O 	O 	0.39617 0.15609 0.92876 -0.58000
O 	O 	0.33348 0.14079 0.90620 -0.40900
O 	O 	0.47214 0.23735 0.90792 -0.58600
O 	O 	0.47195 0.18928 0.85660 -0.44000
O 	O 	0.41671 0.24488 0.07166 -0.57200
O 	O 	0.46727 0.30288 0.10290 -0.40800
O 	O 	0.42151 0.16626 0.06618 -0.57100
O 	O 	0.38270 0.16666 0.13354 -0.43300
O 	O 	0.49455 0.24770 0.04302 -0.57200
O 	O 	0.51236 0.20640 0.08310 -0.41700
O 	O 	0.36047 0.18069 0.01620 -0.57200
O 	O 	0.46514 0.17367 0.97747 -0.55600
O 	O 	0.46659 0.28567 0.98045 -0.57000
O 	O 	0.28077 0.15808 0.98935 -0.48300
O 	O 	0.24717 0.13800 0.91000 -0.55100
O 	O 	0.48632 0.11780 0.01900 -0.53200
O 	O 	0.51945 0.12047 0.09340 -0.55100
O 	O 	0.52570 0.36122 0.01180 -0.49600
O 	O 	0.54605 0.39055 0.09360 -0.52800
N 	N 	0.31890 0.21600 0.89420 -0.26300
H 	H 	0.30480 0.22760 0.90660 0.06600
H 	H 	0.30270 0.19580 0.87120 0.08200
N 	N 	0.39690 0.10140 0.86190 -0.27200
H 	H 	0.39150 0.07570 0.86720 0.06200
H 	H 	0.40740 0.10920 0.82800 0.08500
N 	N 	0.51230 0.29700 0.83460 -0.27700
H 	H 	0.53950 0.30990 0.83820 0.06500
H 	H 	0.50590 0.31040 0.80970 0.08600
N 	N 	0.36606 0.23826 0.15130 -0.27300
H 	H 	0.35880 0.22250 0.18150 0.08300
H 	H 	0.35000 0.24930 0.14870 0.06300
N 	N 	0.44560 0.12150 0.12010 -0.26600
H 	H 	0.46830 0.12790 0.13920 0.07700
H 	H 	0.43130 0.09430 0.11640 0.06700
N 	N 	0.55378 0.31508 0.08630 -0.27300
H 	H 	0.54970 0.32470 0.11800 0.08500
H 	H 	0.57800 0.33390 0.07270 0.07100
C 	C 	0.39270 0.25160 0.88860 0.47700
C 	C 	0.35980 0.10320 0.86680 -0.35600
H 	H 	0.35170 0.10700 0.83050 0.11700
H 	H 	0.33850 0.07740 0.88070 0.10600
C 	C 	0.36320 0.13560 0.90280 0.46100
C 	C 	0.47860 0.22400 0.86450 0.45500
C 	C 	0.40720 0.26940 0.15570 -0.32000
H 	H 	0.40810 0.29500 0.16200 0.10000
H 	H 	0.41920 0.26400 0.18750 0.10600
C 	C 	0.43260 0.27370 0.10610 0.44300
C 	C 	0.42190 0.13490 0.14940 -0.32000
H 	H 	0.39860 0.11140 0.16540 0.09300
H 	H 	0.43810 0.15230 0.17940 0.09900
C 	C 	0.40700 0.15750 0.11500 0.44800
C 	C 	0.55430 0.27770 0.09670 -0.30900
H 	H 	0.57870 0.27990 0.08070 0.09200
H 	H 	0.55550 0.27440 0.13610 0.09400
C 	C 	0.51750 0.24000 0.07360 0.44100
C 	C 	0.24890 0.13570 0.96100 0.50700
H 	H 	0.22570 0.11670 0.97950 -0.18500
C 	C 	0.50810 0.10930 0.04600 0.60200
H 	H 	0.51680 0.09300 0.02940 -0.18900
C 	C 	0.53640 0.39000 0.04460 0.53500
H 	H 	0.53720 0.41330 0.03110 -0.16600
C 	C 	0.49730 0.25590 0.81710 -0.30800
H 	H 	0.47680 0.24930 0.78910 0.11000
H 	H 	0.51940 0.25390 0.80050 0.09500
C 	C 	0.35480 0.24620 0.86450 -0.36200
H 	H 	0.35300 0.23770 0.82650 0.11700
H 	H 	0.35530 0.27190 0.86480 0.11200
Tb	Tb	0.09794 0.54681 0.32516 1.88600
Tb	Tb	0.87476 0.43789 0.16635 1.27800
Cu	Cu	0.00085 0.52673 0.28994 0.90300
Cu	Cu	0.10268 0.47084 0.25057 0.86800
Cu	Cu	0.15345 0.62834 0.23887 0.86800
Cu	Cu	0.02607 0.53855 0.41917 0.86300
Cu	Cu	0.12686 0.48007 0.38109 0.91000
Cu	Cu	0.17758 0.63932 0.36734 0.90600
O 	O 	0.05711 0.56498 0.26457 -0.58200
O 	O 	0.09101 0.60933 0.19863 -0.43600
O 	O 	0.06284 0.48942 0.26209 -0.58000
O 	O 	0.00015 0.47412 0.23953 -0.40900
O 	O 	0.13881 0.57068 0.24125 -0.58600
O 	O 	0.13862 0.52261 0.18993 -0.44000
O 	O 	0.08338 0.57821 0.40499 -0.57200
O 	O 	0.13394 0.63621 0.43623 -0.40800
O 	O 	0.08818 0.49959 0.39951 -0.57100
O 	O 	0.04937 0.49999 0.46687 -0.43300
O 	O 	0.16122 0.58103 0.37635 -0.57200
O 	O 	0.17903 0.53973 0.41643 -0.41700
O 	O 	0.02714 0.51402 0.34953 -0.57200
O 	O 	0.13181 0.50700 0.31080 -0.55600
O 	O 	0.13326 0.61900 0.31378 -0.57000
O 	O 	0.94744 0.49141 0.32268 -0.48300
O 	O 	0.91384 0.47133 0.24333 -0.55100
O 	O 	0.15299 0.45113 0.35233 -0.53200
O 	O 	0.18612 0.45380 0.42673 -0.55100
O 	O 	0.19237 0.69455 0.34513 -0.49600
O 	O 	0.21272 0.72388 0.42693 -0.52800
N 	N 	0.98557 0.54933 0.22753 -0.26300
H 	H 	0.97147 0.56093 0.23993 0.06600
H 	H 	0.96937 0.52913 0.20453 0.08200
N 	N 	0.06357 0.43473 0.19523 -0.27200
H 	H 	0.05817 0.40903 0.20053 0.06200
H 	H 	0.07407 0.44253 0.16133 0.08500
N 	N 	0.17897 0.63033 0.16793 -0.27700
H 	H 	0.20617 0.64323 0.17153 0.06500
H 	H 	0.17257 0.64373 0.14303 0.08600
N 	N 	0.03273 0.57159 0.48463 -0.27300
H 	H 	0.02547 0.55583 0.51483 0.08300
H 	H 	0.01667 0.58263 0.48203 0.06300
N 	N 	0.11227 0.45483 0.45343 -0.26600
H 	H 	0.13497 0.46123 0.47253 0.07700
H 	H 	0.09797 0.42763 0.44973 0.06700
N 	N 	0.22045 0.64841 0.41963 -0.27300
H 	H 	0.21637 0.65803 0.45133 0.08500
H 	H 	0.24467 0.66723 0.40603 0.07100
C 	C 	0.05937 0.58493 0.22193 0.47700
C 	C 	0.02647 0.43653 0.20013 -0.35600
H 	H 	0.01837 0.44033 0.16383 0.11700
H 	H 	0.00517 0.41073 0.21403 0.10600
C 	C 	0.02987 0.46893 0.23613 0.46100
C 	C 	0.14527 0.55733 0.19783 0.45500
C 	C 	0.07387 0.60273 0.48903 -0.32000
H 	H 	0.07477 0.62833 0.49533 0.10000
H 	H 	0.08587 0.59733 0.52083 0.10600
C 	C 	0.09927 0.60703 0.43943 0.44300
C 	C 	0.08857 0.46823 0.48273 -0.32000
H 	H 	0.06527 0.44473 0.49873 0.09300
H 	H 	0.10477 0.48563 0.51273 0.09900
C 	C 	0.07367 0.49083 0.44833 0.44800
C 	C 	0.22097 0.61103 0.43003 -0.30900
H 	H 	0.24537 0.61323 0.41403 0.09100
H 	H 	0.22217 0.60773 0.46943 0.09400
C 	C 	0.18417 0.57333 0.40693 0.44100
C 	C 	0.91557 0.46903 0.29433 0.50700
H 	H 	0.89237 0.45003 0.31283 -0.18500
C 	C 	0.17477 0.44263 0.37933 0.60300
H 	H 	0.18347 0.42633 0.36273 -0.18900
C 	C 	0.20307 0.72333 0.37793 0.53500
H 	H 	0.20387 0.74663 0.36443 -0.16600
C 	C 	0.16397 0.58923 0.15043 -0.30800
H 	H 	0.14347 0.58263 0.12243 0.11000
H 	H 	0.18607 0.58723 0.13383 0.09500
C 	C 	0.02147 0.57953 0.19783 -0.36200
H 	H 	0.01967 0.57103 0.15983 0.11700
H 	H 	0.02197 0.60523 0.19813 0.11200
Tb	Tb	0.76460 0.88015 0.65850 1.88600
Tb	Tb	0.54142 0.77122 0.49968 1.27800
Cu	Cu	0.66751 0.86007 0.62328 0.90300
Cu	Cu	0.76934 0.80418 0.58391 0.86800
Cu	Cu	0.82011 0.96168 0.57221 0.86800
Cu	Cu	0.69273 0.87189 0.75251 0.86300
Cu	Cu	0.79352 0.81341 0.71443 0.91000
Cu	Cu	0.84424 0.97266 0.70068 0.90600
O 	O 	0.72377 0.89832 0.59791 -0.58200
O 	O 	0.75767 0.94267 0.53197 -0.43600
O 	O 	0.72950 0.82276 0.59543 -0.58000
O 	O 	0.66681 0.80746 0.57287 -0.40900
O 	O 	0.80547 0.90402 0.57459 -0.58600
O 	O 	0.80528 0.85595 0.52327 -0.44000
O 	O 	0.75004 0.91155 0.73833 -0.57200
O 	O 	0.80060 0.96955 0.76957 -0.40800
O 	O 	0.75484 0.83293 0.73285 -0.57100
O 	O 	0.71603 0.83333 0.80021 -0.43300
O 	O 	0.82788 0.91437 0.70969 -0.57200
O 	O 	0.84569 0.87307 0.74977 -0.41700
O 	O 	0.69380 0.84736 0.68287 -0.57200
O 	O 	0.79847 0.84034 0.64414 -0.55600
O 	O 	0.79992 0.95234 0.64712 -0.57000
O 	O 	0.61410 0.82475 0.65602 -0.48400
O 	O 	0.58050 0.80467 0.57667 -0.55100
O 	O 	0.81965 0.78447 0.68567 -0.53200
O 	O 	0.85278 0.78714 0.76007 -0.55100
O 	O 	0.85903 0.02789 0.67847 -0.49600
O 	O 	0.87938 0.05722 0.76027 -0.52800
N 	N 	0.65223 0.88267 0.56087 -0.26300
H 	H 	0.63813 0.89427 0.57327 0.06600
H 	H 	0.63603 0.86247 0.53787 0.08200
N 	N 	0.73023 0.76807 0.52857 -0.27200
H 	H 	0.72483 0.74237 0.53387 0.06200
H 	H 	0.74073 0.77587 0.49467 0.08500
N 	N 	0.84563 0.96367 0.50127 -0.27700
H 	H 	0.87283 0.97657 0.50487 0.06500
H 	H 	0.83923 0.97707 0.47637 0.08600
N 	N 	0.69939 0.90493 0.81797 -0.27300
H 	H 	0.69213 0.88917 0.84817 0.08300
H 	H 	0.68333 0.91597 0.81537 0.06300
N 	N 	0.77893 0.78817 0.78677 -0.26600
H 	H 	0.80163 0.79457 0.80587 0.07700
H 	H 	0.76463 0.76097 0.78307 0.06700
N 	N 	0.88711 0.98175 0.75297 -0.27300
H 	H 	0.88303 0.99137 0.78467 0.08500
H 	H 	0.91133 0.00057 0.73937 0.07100
C 	C 	0.72603 0.91827 0.55527 0.47700
C 	C 	0.69313 0.76987 0.53347 -0.35600
H 	H 	0.68503 0.77367 0.49717 0.11800
H 	H 	0.67183 0.74407 0.54737 0.10600
C 	C 	0.69653 0.80227 0.56947 0.46100
C 	C 	0.81193 0.89067 0.53117 0.45500
C 	C 	0.74053 0.93607 0.82237 -0.32000
H 	H 	0.74143 0.96167 0.82867 0.10000
H 	H 	0.75253 0.93067 0.85417 0.10600
C 	C 	0.76593 0.94037 0.77277 0.44300
C 	C 	0.75523 0.80157 0.81607 -0.32000
H 	H 	0.73193 0.77807 0.83207 0.09300
H 	H 	0.77143 0.81897 0.84607 0.09900
C 	C 	0.74033 0.82417 0.78167 0.44800
C 	C 	0.88763 0.94437 0.76337 -0.30900
H 	H 	0.91203 0.94657 0.74737 0.09200
H 	H 	0.88883 0.94107 0.80277 0.09400
C 	C 	0.85083 0.90667 0.74027 0.44100
C 	C 	0.58223 0.80237 0.62767 0.50700
H 	H 	0.55903 0.78337 0.64617 -0.18500
C 	C 	0.84143 0.77597 0.71267 0.60300
H 	H 	0.85013 0.75967 0.69607 -0.18900
C 	C 	0.86973 0.05667 0.71127 0.53500
H 	H 	0.87053 0.07997 0.69777 -0.16600
C 	C 	0.83063 0.92257 0.48377 -0.30800
H 	H 	0.81013 0.91597 0.45577 0.11000
H 	H 	0.85273 0.92057 0.46717 0.09500
C 	C 	0.68813 0.91287 0.53117 -0.36200
H 	H 	0.68633 0.90437 0.49317 0.11700
H 	H 	0.68863 0.93857 0.53147 0.11200
Tb	Tb	0.78652 0.21779 0.99183 1.88500
Tb	Tb	0.89545 0.10354 0.83301 1.27800
Cu	Cu	0.80660 0.14078 0.95661 0.90300
Cu	Cu	0.86249 0.29850 0.91724 0.86800
Cu	Cu	0.70499 0.19177 0.90554 0.86800
Cu	Cu	0.79478 0.15418 0.08584 0.86300
Cu	Cu	0.85326 0.31345 0.04776 0.91000
Cu	Cu	0.69401 0.20492 0.03401 0.90600
O 	O 	0.76835 0.15879 0.93124 -0.58200
O 	O 	0.72400 0.14834 0.86530 -0.43600
O 	O 	0.84391 0.24008 0.92876 -0.58000
O 	O 	0.85921 0.19269 0.90620 -0.40900
O 	O 	0.76265 0.23479 0.90792 -0.58600
O 	O 	0.81072 0.28267 0.85660 -0.44000
O 	O 	0.75512 0.17183 0.07166 -0.57200
O 	O 	0.69712 0.16439 0.10290 -0.40800
O 	O 	0.83374 0.25525 0.06618 -0.57100
O 	O 	0.83334 0.21604 0.13354 -0.43300
O 	O 	0.75230 0.24685 0.04302 -0.57200
O 	O 	0.79360 0.30596 0.08310 -0.41600
O 	O 	0.81931 0.17978 0.01620 -0.57200
O 	O 	0.82633 0.29147 0.97747 -0.55600
O 	O 	0.71433 0.18092 0.98045 -0.57000
O 	O 	0.84192 0.12269 0.98935 -0.48400
O 	O 	0.86200 0.10917 0.91000 -0.55100
O 	O 	0.88220 0.36852 0.01900 -0.53200
O 	O 	0.87953 0.39898 0.09340 -0.55100
O 	O 	0.63878 0.16448 0.01180 -0.49600
O 	O 	0.60945 0.15550 0.09360 -0.52800
N 	N 	0.78400 0.10290 0.89420 -0.26300
H 	H 	0.77240 0.07720 0.90660 0.06600
H 	H 	0.80420 0.10690 0.87120 0.08200
N 	N 	0.89860 0.29550 0.86190 -0.27200
H 	H 	0.92430 0.31580 0.86720 0.06200
H 	H 	0.89080 0.29820 0.82800 0.08500
N 	N 	0.70300 0.21530 0.83460 -0.27700
H 	H 	0.69010 0.22960 0.83820 0.06500
H 	H 	0.68960 0.19550 0.80970 0.08600
N 	N 	0.76174 0.12780 0.15130 -0.27300
H 	H 	0.77750 0.13630 0.18150 0.08300
H 	H 	0.75070 0.10070 0.14870 0.06300
N 	N 	0.87850 0.32410 0.12010 -0.26600
H 	H 	0.87210 0.34040 0.13920 0.07700
H 	H 	0.90570 0.33700 0.11640 0.06700
N 	N 	0.68492 0.23870 0.08630 -0.27300
H 	H 	0.67530 0.22500 0.11800 0.08500
H 	H 	0.66610 0.24410 0.07270 0.07100
C 	C 	0.74840 0.14110 0.88860 0.47700
C 	C 	0.89680 0.25660 0.86680 -0.35600
H 	H 	0.89300 0.24470 0.83050 0.11700
H 	H 	0.92260 0.26110 0.88070 0.10600
C 	C 	0.86440 0.22760 0.90280 0.46100
C 	C 	0.77600 0.25460 0.86450 0.45500
C 	C 	0.73060 0.13780 0.15570 -0.32000
H 	H 	0.70500 0.11310 0.16200 0.10000
H 	H 	0.73600 0.15520 0.18750 0.10600
C 	C 	0.72630 0.15890 0.10610 0.44300
C 	C 	0.86510 0.28700 0.14940 -0.32000
H 	H 	0.88860 0.28720 0.16540 0.09300
H 	H 	0.84770 0.28580 0.17940 0.09900
C 	C 	0.84250 0.24950 0.11500 0.44800
C 	C 	0.72230 0.27660 0.09670 -0.30800
H 	H 	0.72010 0.29880 0.08070 0.09200
H 	H 	0.72560 0.28110 0.13610 0.09400
C 	C 	0.76000 0.27750 0.07360 0.44100
C 	C 	0.86430 0.11320 0.96100 0.50700
H 	H 	0.88330 0.10900 0.97950 -0.18600
C 	C 	0.89070 0.39880 0.04600 0.60200
H 	H 	0.90700 0.42380 0.02940 -0.18900
C 	C 	0.61000 0.14640 0.04460 0.53500
H 	H 	0.58670 0.12390 0.03110 -0.16600
C 	C 	0.74410 0.24140 0.81710 -0.30800
H 	H 	0.75070 0.22750 0.78910 0.11000
H 	H 	0.74610 0.26550 0.80050 0.09500
C 	C 	0.75380 0.10860 0.86450 -0.36200
H 	H 	0.76230 0.11530 0.82650 0.11700
H 	H 	0.72810 0.08340 0.86480 0.11200
Tb	Tb	0.45319 0.55112 0.32516 1.88600
Tb	Tb	0.56211 0.43687 0.16635 1.27800
Cu	Cu	0.47327 0.47411 0.28994 0.90300
Cu	Cu	0.52916 0.63183 0.25057 0.86800
Cu	Cu	0.37166 0.52510 0.23887 0.86800
Cu	Cu	0.46145 0.48751 0.41917 0.86300
Cu	Cu	0.51993 0.64678 0.38109 0.91000
Cu	Cu	0.36068 0.53825 0.36734 0.90600
O 	O 	0.43502 0.49212 0.26457 -0.58200
O 	O 	0.39067 0.48167 0.19863 -0.43600
O 	O 	0.51058 0.57341 0.26209 -0.58000
O 	O 	0.52588 0.52602 0.23953 -0.40900
O 	O 	0.42932 0.56812 0.24125 -0.58600
O 	O 	0.47739 0.61600 0.18993 -0.44000
O 	O 	0.42179 0.50516 0.40499 -0.57200
O 	O 	0.36379 0.49772 0.43623 -0.40800
O 	O 	0.50041 0.58858 0.39951 -0.57100
O 	O 	0.50001 0.54937 0.46687 -0.43300
O 	O 	0.41897 0.58018 0.37635 -0.57200
O 	O 	0.46027 0.63929 0.41643 -0.41700
O 	O 	0.48598 0.51311 0.34953 -0.57200
O 	O 	0.49300 0.62480 0.31080 -0.55600
O 	O 	0.38100 0.51425 0.31378 -0.57000
O 	O 	0.50859 0.45602 0.32268 -0.48400
O 	O 	0.52867 0.44250 0.24333 -0.55100
O 	O 	0.54887 0.70185 0.35233 -0.53200
O 	O 	0.54620 0.73231 0.42673 -0.55100
O 	O 	0.30545 0.49781 0.34513 -0.49600
O 	O 	0.27612 0.48883 0.42693 -0.52800
N 	N 	0.45067 0.43623 0.22753 -0.26300
H 	H 	0.43907 0.41053 0.23993 0.06600
H 	H 	0.47087 0.44023 0.20453 0.08200
N 	N 	0.56527 0.62883 0.19523 -0.27200
H 	H 	0.59097 0.64913 0.20053 0.06200
H 	H 	0.55747 0.63153 0.16133 0.08500
N 	N 	0.36967 0.54863 0.16793 -0.27700
H 	H 	0.35677 0.56293 0.17153 0.06500
H 	H 	0.35627 0.52883 0.14303 0.08600
N 	N 	0.42841 0.46113 0.48463 -0.27300
H 	H 	0.44417 0.46963 0.51483 0.08300
H 	H 	0.41737 0.43403 0.48203 0.06300
N 	N 	0.54517 0.65743 0.45343 -0.26600
H 	H 	0.53877 0.67373 0.47253 0.07700
H 	H 	0.57237 0.67033 0.44973 0.06700
N 	N 	0.35159 0.57203 0.41963 -0.27300
H 	H 	0.34197 0.55833 0.45133 0.08500
H 	H 	0.33277 0.57743 0.40603 0.07100
C 	C 	0.41507 0.47443 0.22193 0.47700
C 	C 	0.56347 0.58993 0.20013 -0.35600
H 	H 	0.55967 0.57803 0.16383 0.11800
H 	H 	0.58927 0.59443 0.21403 0.10600
C 	C 	0.53107 0.56093 0.23613 0.46100
C 	C 	0.44267 0.58793 0.19783 0.45500
C 	C 	0.39727 0.47113 0.48903 -0.32000
H 	H 	0.37167 0.44643 0.49533 0.10000
H 	H 	0.40267 0.48853 0.52083 0.10600
C 	C 	0.39297 0.49223 0.43943 0.44300
C 	C 	0.53177 0.62033 0.48273 -0.32000
H 	H 	0.55527 0.62053 0.49873 0.09300
H 	H 	0.51437 0.61913 0.51273 0.09900
C 	C 	0.50917 0.58283 0.44833 0.44800
C 	C 	0.38897 0.60993 0.43003 -0.30900
H 	H 	0.38677 0.63213 0.41403 0.09100
H 	H 	0.39227 0.61443 0.46943 0.09400
C 	C 	0.42667 0.61083 0.40693 0.44100
C 	C 	0.53097 0.44653 0.29433 0.50700
H 	H 	0.54997 0.44233 0.31283 -0.18500
C 	C 	0.55737 0.73213 0.37933 0.60300
H 	H 	0.57367 0.75713 0.36273 -0.18900
C 	C 	0.27667 0.47973 0.37793 0.53500
H 	H 	0.25337 0.45723 0.36443 -0.16600
C 	C 	0.41077 0.57473 0.15043 -0.30800
H 	H 	0.41737 0.56083 0.12243 0.11000
H 	H 	0.41277 0.59883 0.13383 0.09500
C 	C 	0.42047 0.44193 0.19783 -0.36200
H 	H 	0.42897 0.44863 0.15983 0.11700
H 	H 	0.39477 0.41673 0.19813 0.11200
Tb	Tb	0.11985 0.88446 0.65850 1.88600
Tb	Tb	0.22878 0.77020 0.49968 1.27800
Cu	Cu	0.13993 0.80745 0.62328 0.90300
Cu	Cu	0.19582 0.96517 0.58391 0.86800
Cu	Cu	0.03832 0.85844 0.57221 0.86800
Cu	Cu	0.12811 0.82085 0.75251 0.86300
Cu	Cu	0.18659 0.98012 0.71443 0.91000
Cu	Cu	0.02734 0.87159 0.70068 0.90600
O 	O 	0.10168 0.82546 0.59791 -0.58200
O 	O 	0.05733 0.81501 0.53197 -0.43600
O 	O 	0.17724 0.90675 0.59543 -0.58000
O 	O 	0.19254 0.85936 0.57287 -0.40900
O 	O 	0.09598 0.90146 0.57459 -0.58600
O 	O 	0.14405 0.94934 0.52327 -0.44000
O 	O 	0.08845 0.83850 0.73833 -0.57200
O 	O 	0.03045 0.83106 0.76957 -0.40800
O 	O 	0.16707 0.92192 0.73285 -0.57100
O 	O 	0.16667 0.88271 0.80021 -0.43300
O 	O 	0.08563 0.91352 0.70969 -0.57200
O 	O 	0.12693 0.97263 0.74977 -0.41600
O 	O 	0.15264 0.84645 0.68287 -0.57200
O 	O 	0.15966 0.95814 0.64414 -0.55600
O 	O 	0.04766 0.84759 0.64712 -0.57000
O 	O 	0.17525 0.78936 0.65602 -0.48300
O 	O 	0.19533 0.77584 0.57667 -0.55100
O 	O 	0.21553 0.03519 0.68567 -0.53200
O 	O 	0.21286 0.06565 0.76007 -0.55100
O 	O 	0.97211 0.83115 0.67847 -0.49600
O 	O 	0.94278 0.82217 0.76027 -0.52800
N 	N 	0.11733 0.76957 0.56087 -0.26300
H 	H 	0.10573 0.74387 0.57327 0.06600
H 	H 	0.13753 0.77357 0.53787 0.08200
N 	N 	0.23193 0.96217 0.52857 -0.27200
H 	H 	0.25763 0.98247 0.53387 0.06200
H 	H 	0.22413 0.96487 0.49467 0.08500
N 	N 	0.03633 0.88197 0.50127 -0.27700
H 	H 	0.02343 0.89627 0.50487 0.06500
H 	H 	0.02293 0.86217 0.47637 0.08600
N 	N 	0.09507 0.79447 0.81797 -0.27300
H 	H 	0.11083 0.80297 0.84817 0.08300
H 	H 	0.08403 0.76737 0.81537 0.06300
N 	N 	0.21183 0.99077 0.78677 -0.26500
H 	H 	0.20543 0.00707 0.80587 0.07700
H 	H 	0.23903 0.00367 0.78307 0.06700
N 	N 	0.01825 0.90537 0.75297 -0.27300
H 	H 	0.00863 0.89167 0.78467 0.08500
H 	H 	0.99943 0.91077 0.73937 0.07100
C 	C 	0.08173 0.80777 0.55527 0.47700
C 	C 	0.23013 0.92327 0.53347 -0.35600
H 	H 	0.22633 0.91137 0.49717 0.11800
H 	H 	0.25593 0.92777 0.54737 0.10600
C 	C 	0.19773 0.89427 0.56947 0.46100
C 	C 	0.10933 0.92127 0.53117 0.45500
C 	C 	0.06393 0.80447 0.82237 -0.32000
H 	H 	0.03833 0.77977 0.82867 0.10000
H 	H 	0.06933 0.82187 0.85417 0.10600
C 	C 	0.05963 0.82557 0.77277 0.44300
C 	C 	0.19843 0.95367 0.81607 -0.32100
H 	H 	0.22193 0.95387 0.83207 0.09300
H 	H 	0.18103 0.95247 0.84607 0.09900
C 	C 	0.17583 0.91617 0.78167 0.44800
C 	C 	0.05563 0.94327 0.76337 -0.30900
H 	H 	0.05343 0.96547 0.74737 0.09200
H 	H 	0.05893 0.94777 0.80277 0.09400
C 	C 	0.09333 0.94417 0.74027 0.44200
C 	C 	0.19763 0.77987 0.62767 0.50700
H 	H 	0.21663 0.77567 0.64617 -0.18500
C 	C 	0.22403 0.06547 0.71267 0.60300
H 	H 	0.24033 0.09047 0.69607 -0.18900
C 	C 	0.94333 0.81307 0.71127 0.53500
H 	H 	0.92003 0.79057 0.69777 -0.16600
C 	C 	0.07743 0.90807 0.48377 -0.30800
H 	H 	0.08403 0.89417 0.45577 0.11000
H 	H 	0.07943 0.93217 0.46717 0.09500
C 	C 	0.08713 0.77527 0.53117 -0.36200
H 	H 	0.09563 0.78197 0.49317 0.11700
H 	H 	0.06143 0.75007 0.53147 0.11200
