data_crystal

_cell_length_a 7.36540
_cell_length_b 23.48080
_cell_length_c 29.02840
_cell_angle_alpha 90.00000
_cell_angle_beta  90.00000
_cell_angle_gamma 90.96900

_symmetry_space_group_name_	'P 1'
_symmetry_space_group_name_H-M	'P 1'

loop_
_symmetry_equiv_pos_as_xyz
  x,y,z

loop_
_atom_site_label
_atom_site_type_symbol
_atom_site_fract_x
_atom_site_fract_y
_atom_site_fract_z
_atom_site_charge
Nd	Nd	0.78954 0.67208 0.29729 2.16000
Nd	Nd	0.28631 0.74295 0.26218 2.27300
Nd	Nd	0.21046 0.82792 0.79729 2.15900
Nd	Nd	0.71369 0.75705 0.76218 2.27300
Nd	Nd	0.21046 0.32792 0.70271 2.16000
Nd	Nd	0.71369 0.25705 0.73782 2.27300
Nd	Nd	0.78954 0.17208 0.20271 2.15900
Nd	Nd	0.28631 0.24295 0.23782 2.27300
H 	H 	0.92890 0.62020 0.57660 0.23800
H 	H 	0.89680 0.34360 0.29460 0.31000
H 	H 	0.58880 0.74140 0.44830 0.19400
H 	H 	0.97740 0.77590 0.43170 0.03300
H 	H 	0.12910 0.80500 0.49800 0.24900
H 	H 	0.23150 0.71270 0.55020 0.17400
H 	H 	0.24100 0.84770 0.66600 -0.01400
H 	H 	0.41790 0.86100 0.60070 0.24300
H 	H 	0.96550 0.53780 0.17780 0.12900
H 	H 	0.58890 0.55640 0.17260 0.03200
H 	H 	0.44080 0.50350 0.11790 0.23400
H 	H 	0.11710 0.42090 0.18300 0.11200
H 	H 	0.56890 0.36510 0.11860 0.08300
H 	H 	0.74930 0.43260 0.08170 0.26100
H 	H 	0.07110 0.87980 0.07660 0.23700
H 	H 	0.10320 0.15640 0.79460 0.30800
H 	H 	0.41120 0.75860 0.94830 0.19400
H 	H 	0.02260 0.72410 0.93170 0.03100
H 	H 	0.87090 0.69500 0.99800 0.25000
H 	H 	0.76850 0.78730 0.05020 0.17400
H 	H 	0.75900 0.65230 0.16600 -0.01400
H 	H 	0.58210 0.63900 0.10070 0.24300
H 	H 	0.03450 0.96220 0.67780 0.13000
H 	H 	0.41110 0.94360 0.67260 0.03100
H 	H 	0.55920 0.99650 0.61790 0.23400
H 	H 	0.88290 0.07910 0.68300 0.11300
H 	H 	0.43110 0.13490 0.61860 0.08200
H 	H 	0.25070 0.06740 0.58170 0.26200
H 	H 	0.07110 0.37980 0.42340 0.23700
H 	H 	0.10320 0.65640 0.70540 0.30900
H 	H 	0.41120 0.25860 0.55170 0.19400
H 	H 	0.02260 0.22410 0.56830 0.03300
H 	H 	0.87090 0.19500 0.50200 0.24900
H 	H 	0.76850 0.28730 0.44980 0.17400
H 	H 	0.75900 0.15230 0.33400 -0.01400
H 	H 	0.58210 0.13900 0.39930 0.24300
H 	H 	0.03450 0.46220 0.82220 0.12900
H 	H 	0.41110 0.44360 0.82740 0.03200
H 	H 	0.55920 0.49650 0.88210 0.23400
H 	H 	0.88290 0.57910 0.81700 0.11200
H 	H 	0.43110 0.63490 0.88140 0.08300
H 	H 	0.25070 0.56740 0.91830 0.26100
H 	H 	0.92890 0.12020 0.92340 0.23700
H 	H 	0.89680 0.84360 0.20540 0.30800
H 	H 	0.58880 0.24140 0.05170 0.19400
H 	H 	0.97740 0.27590 0.06830 0.03100
H 	H 	0.12910 0.30500 0.00200 0.25000
H 	H 	0.23150 0.21270 0.94980 0.17400
H 	H 	0.24100 0.34770 0.83400 -0.01400
H 	H 	0.41790 0.36100 0.89930 0.24300
H 	H 	0.96550 0.03780 0.32220 0.13000
H 	H 	0.58890 0.05640 0.32740 0.03100
H 	H 	0.44080 0.00350 0.38210 0.23400
H 	H 	0.11710 0.92090 0.31700 0.11300
H 	H 	0.56890 0.86510 0.38140 0.08200
H 	H 	0.74930 0.93260 0.41830 0.26200
C 	C 	0.46830 0.79330 0.52620 -0.49600
C 	C 	0.37470 0.77290 0.48130 0.35900
C 	C 	0.46500 0.74770 0.44530 -0.20800
C 	C 	0.37960 0.73130 0.40490 0.04700
C 	C 	0.19130 0.73970 0.40020 -0.14000
C 	C 	0.10010 0.76820 0.43510 0.20200
C 	C 	0.19100 0.78530 0.47530 -0.25600
C 	C 	0.48580 0.70530 0.36740 0.37200
C 	C 	0.08160 0.71480 0.36130 0.39700
C 	C 	0.34570 0.78820 0.56850 0.37600
C 	C 	0.23430 0.73980 0.57360 -0.22800
C 	C 	0.12690 0.73090 0.61270 0.12100
C 	C 	0.12850 0.77230 0.64720 -0.17300
C 	C 	0.23850 0.82050 0.64270 0.21400
C 	C 	0.34560 0.82830 0.60340 -0.27200
C 	C 	0.01790 0.67750 0.61430 0.28800
C 	C 	0.00810 0.77000 0.68880 0.43300
C 	C 	0.53270 0.85590 0.51800 0.98400
C 	C 	0.63520 0.75670 0.53780 0.96100
C 	C 	0.07020 0.48070 0.10620 -0.43300
C 	C 	0.18590 0.51530 0.14180 0.31100
C 	C 	0.09090 0.54270 0.17610 -0.15000
C 	C 	0.17950 0.57770 0.20830 0.02200
C 	C 	0.37060 0.58310 0.20790 -0.12900
C 	C 	0.46280 0.55390 0.17350 0.14800
C 	C 	0.37450 0.52150 0.14080 -0.23300
C 	C 	0.06660 0.60860 0.24230 0.36600
C 	C 	0.47770 0.61860 0.24170 0.39300
C 	C 	0.94880 0.43530 0.13010 0.26200
C 	C 	0.00530 0.41040 0.17040 -0.12100
C 	C 	0.89770 0.36980 0.19270 -0.01000
C 	C 	0.72910 0.35350 0.17340 -0.12600
C 	C 	0.67790 0.37680 0.13200 0.12600
C 	C 	0.78550 0.41740 0.10980 -0.20200
C 	C 	0.95830 0.34900 0.23860 0.40100
C 	C 	0.60310 0.31010 0.19450 0.44700
C 	C 	0.18910 0.44920 0.07130 0.96300
C 	C 	0.95620 0.52470 0.07940 0.93200
C 	C 	0.53170 0.70670 0.02620 -0.49700
C 	C 	0.62530 0.72710 0.98130 0.36000
C 	C 	0.53500 0.75230 0.94530 -0.20800
C 	C 	0.62040 0.76870 0.90490 0.04700
C 	C 	0.80870 0.76030 0.90020 -0.14100
C 	C 	0.89990 0.73180 0.93510 0.20500
C 	C 	0.80900 0.71470 0.97530 -0.25700
C 	C 	0.51420 0.79470 0.86740 0.37100
C 	C 	0.91840 0.78520 0.86130 0.39800
C 	C 	0.65430 0.71180 0.06850 0.37600
C 	C 	0.76570 0.76020 0.07360 -0.22900
C 	C 	0.87310 0.76910 0.11270 0.12100
C 	C 	0.87150 0.72770 0.14720 -0.17400
C 	C 	0.76150 0.67950 0.14270 0.21400
C 	C 	0.65440 0.67170 0.10340 -0.27200
C 	C 	0.98210 0.82250 0.11430 0.28600
C 	C 	0.99190 0.73000 0.18880 0.43300
C 	C 	0.46730 0.64410 0.01800 0.98400
C 	C 	0.36480 0.74330 0.03780 0.96100
C 	C 	0.92980 0.01930 0.60620 -0.43500
C 	C 	0.81410 0.98470 0.64180 0.31200
C 	C 	0.90910 0.95730 0.67610 -0.15200
C 	C 	0.82050 0.92230 0.70830 0.02300
C 	C 	0.62940 0.91690 0.70790 -0.13000
C 	C 	0.53720 0.94610 0.67350 0.14800
C 	C 	0.62550 0.97850 0.64080 -0.23400
C 	C 	0.93340 0.89140 0.74230 0.36600
C 	C 	0.52230 0.88140 0.74170 0.39300
C 	C 	0.05120 0.06470 0.63010 0.26400
C 	C 	0.99470 0.08960 0.67040 -0.12300
C 	C 	0.10230 0.13020 0.69270 -0.00900
C 	C 	0.27090 0.14650 0.67340 -0.12700
C 	C 	0.32210 0.12320 0.63200 0.12800
C 	C 	0.21450 0.08260 0.60980 -0.20300
C 	C 	0.04170 0.15100 0.73860 0.40000
C 	C 	0.39690 0.18990 0.69450 0.44800
C 	C 	0.81090 0.05080 0.57130 0.96300
C 	C 	0.04380 0.97530 0.57940 0.93400
C 	C 	0.53170 0.20670 0.47380 -0.49600
C 	C 	0.62530 0.22710 0.51870 0.35900
C 	C 	0.53500 0.25230 0.55470 -0.20800
C 	C 	0.62040 0.26870 0.59510 0.04700
C 	C 	0.80870 0.26030 0.59980 -0.14000
C 	C 	0.89990 0.23180 0.56490 0.20200
C 	C 	0.80900 0.21470 0.52470 -0.25600
C 	C 	0.51420 0.29470 0.63260 0.37200
C 	C 	0.91840 0.28520 0.63870 0.39700
C 	C 	0.65430 0.21180 0.43150 0.37600
C 	C 	0.76570 0.26020 0.42640 -0.22800
C 	C 	0.87310 0.26910 0.38730 0.12100
C 	C 	0.87150 0.22770 0.35280 -0.17300
C 	C 	0.76150 0.17950 0.35730 0.21400
C 	C 	0.65440 0.17170 0.39660 -0.27200
C 	C 	0.98210 0.32250 0.38570 0.28800
C 	C 	0.99190 0.23000 0.31120 0.43300
C 	C 	0.46730 0.14410 0.48200 0.98400
C 	C 	0.36480 0.24330 0.46220 0.96100
C 	C 	0.92980 0.51930 0.89380 -0.43300
C 	C 	0.81410 0.48470 0.85820 0.31100
C 	C 	0.90910 0.45730 0.82390 -0.15000
C 	C 	0.82050 0.42230 0.79170 0.02200
C 	C 	0.62940 0.41690 0.79210 -0.12900
C 	C 	0.53720 0.44610 0.82650 0.14800
C 	C 	0.62550 0.47850 0.85920 -0.23300
C 	C 	0.93340 0.39140 0.75770 0.36600
C 	C 	0.52230 0.38140 0.75830 0.39300
C 	C 	0.05120 0.56470 0.86990 0.26200
C 	C 	0.99470 0.58960 0.82960 -0.12100
C 	C 	0.10230 0.63020 0.80730 -0.01000
C 	C 	0.27090 0.64650 0.82660 -0.12600
C 	C 	0.32210 0.62320 0.86800 0.12600
C 	C 	0.21450 0.58260 0.89020 -0.20200
C 	C 	0.04170 0.65100 0.76140 0.40100
C 	C 	0.39690 0.68990 0.80550 0.44700
C 	C 	0.81090 0.55080 0.92870 0.96300
C 	C 	0.04380 0.47530 0.92060 0.93200
C 	C 	0.46830 0.29330 0.97380 -0.49700
C 	C 	0.37470 0.27290 0.01870 0.36000
C 	C 	0.46500 0.24770 0.05470 -0.20800
C 	C 	0.37960 0.23130 0.09510 0.04700
C 	C 	0.19130 0.23970 0.09980 -0.14100
C 	C 	0.10010 0.26820 0.06490 0.20500
C 	C 	0.19100 0.28530 0.02470 -0.25700
C 	C 	0.48580 0.20530 0.13260 0.37100
C 	C 	0.08160 0.21480 0.13870 0.39800
C 	C 	0.34570 0.28820 0.93150 0.37600
C 	C 	0.23430 0.23980 0.92640 -0.22900
C 	C 	0.12690 0.23090 0.88730 0.12100
C 	C 	0.12850 0.27230 0.85280 -0.17400
C 	C 	0.23850 0.32050 0.85730 0.21400
C 	C 	0.34560 0.32830 0.89660 -0.27200
C 	C 	0.01790 0.17750 0.88570 0.28600
C 	C 	0.00810 0.27000 0.81120 0.43300
C 	C 	0.53270 0.35590 0.98200 0.98400
C 	C 	0.63520 0.25670 0.96220 0.96100
C 	C 	0.07020 0.98070 0.39380 -0.43500
C 	C 	0.18590 0.01530 0.35820 0.31200
C 	C 	0.09090 0.04270 0.32390 -0.15200
C 	C 	0.17950 0.07770 0.29170 0.02300
C 	C 	0.37060 0.08310 0.29210 -0.13000
C 	C 	0.46280 0.05390 0.32650 0.14800
C 	C 	0.37450 0.02150 0.35920 -0.23400
C 	C 	0.06660 0.10860 0.25770 0.36600
C 	C 	0.47770 0.11860 0.25830 0.39300
C 	C 	0.94880 0.93530 0.36990 0.26400
C 	C 	0.00530 0.91040 0.32960 -0.12300
C 	C 	0.89770 0.86980 0.30730 -0.00900
C 	C 	0.72910 0.85350 0.32660 -0.12700
C 	C 	0.67790 0.87680 0.36800 0.12800
C 	C 	0.78550 0.91740 0.39020 -0.20300
C 	C 	0.95830 0.84900 0.26140 0.40000
C 	C 	0.60310 0.81010 0.30550 0.44800
C 	C 	0.18910 0.94920 0.42870 0.96300
C 	C 	0.95620 0.02470 0.42060 0.93400
O 	O 	0.65110 0.69880 0.37310 -0.44400
O 	O 	0.40640 0.69230 0.33017 -0.52800
O 	O 	0.05620 0.74480 0.32433 -0.55900
O 	O 	0.00680 0.66820 0.36650 -0.41900
O 	O 	0.99360 0.65110 0.65230 -0.23100
O 	O 	0.95930 0.65740 0.57700 -0.31600
O 	O 	0.07930 0.77740 0.72819 -0.55100
O 	O 	0.84030 0.76390 0.68440 -0.44500
O 	O 	0.13930 0.64410 0.26987 -0.53300
O 	O 	0.89510 0.60070 0.24160 -0.46000
O 	O 	0.50400 0.67160 0.23488 -0.57600
O 	O 	0.55260 0.59310 0.27470 -0.41700
O 	O 	0.11390 0.33270 0.24501 -0.46000
O 	O 	0.84040 0.35330 0.27169 -0.49700
O 	O 	0.66460 0.26560 0.21240 -0.58300
O 	O 	0.43660 0.31940 0.19310 -0.47300
O 	O 	0.34890 0.80120 0.87310 -0.44400
O 	O 	0.59360 0.80770 0.83017 -0.52800
O 	O 	0.94380 0.75520 0.82433 -0.55900
O 	O 	0.99320 0.83180 0.86650 -0.41900
O 	O 	0.00640 0.84890 0.15230 -0.23000
O 	O 	0.04070 0.84260 0.07700 -0.31500
O 	O 	0.92070 0.72260 0.22819 -0.55100
O 	O 	0.15970 0.73610 0.18440 -0.44500
O 	O 	0.86070 0.85590 0.76987 -0.53300
O 	O 	0.10490 0.89930 0.74160 -0.46000
O 	O 	0.49600 0.82840 0.73488 -0.57600
O 	O 	0.44740 0.90690 0.77470 -0.41700
O 	O 	0.88610 0.16730 0.74501 -0.45900
O 	O 	0.15960 0.14670 0.77169 -0.49700
O 	O 	0.33540 0.23440 0.71240 -0.58300
O 	O 	0.56340 0.18060 0.69310 -0.47300
O 	O 	0.34890 0.30120 0.62690 -0.44400
O 	O 	0.59360 0.30770 0.66983 -0.52800
O 	O 	0.94380 0.25520 0.67567 -0.55900
O 	O 	0.99320 0.33180 0.63350 -0.41900
O 	O 	0.00640 0.34890 0.34770 -0.23100
O 	O 	0.04070 0.34260 0.42300 -0.31600
O 	O 	0.92070 0.22260 0.27181 -0.55100
O 	O 	0.15970 0.23610 0.31560 -0.44500
O 	O 	0.86070 0.35590 0.73013 -0.53300
O 	O 	0.10490 0.39930 0.75840 -0.46000
O 	O 	0.49600 0.32840 0.76512 -0.57600
O 	O 	0.44740 0.40690 0.72530 -0.41700
O 	O 	0.88610 0.66730 0.75499 -0.46000
O 	O 	0.15960 0.64670 0.72831 -0.49700
O 	O 	0.33540 0.73440 0.78760 -0.58300
O 	O 	0.56340 0.68060 0.80690 -0.47300
O 	O 	0.65110 0.19880 0.12690 -0.44400
O 	O 	0.40640 0.19230 0.16983 -0.52800
O 	O 	0.05620 0.24480 0.17567 -0.55900
O 	O 	0.00680 0.16820 0.13350 -0.41900
O 	O 	0.99360 0.15110 0.84770 -0.23000
O 	O 	0.95930 0.15740 0.92300 -0.31500
O 	O 	0.07930 0.27740 0.77181 -0.55100
O 	O 	0.84030 0.26390 0.81560 -0.44500
O 	O 	0.13930 0.14410 0.23013 -0.53300
O 	O 	0.89510 0.10070 0.25840 -0.46000
O 	O 	0.50400 0.17160 0.26512 -0.57600
O 	O 	0.55260 0.09310 0.22530 -0.41700
O 	O 	0.11390 0.83270 0.25499 -0.45900
O 	O 	0.84040 0.85330 0.22831 -0.49700
O 	O 	0.66460 0.76560 0.28760 -0.58300
O 	O 	0.43660 0.81940 0.30690 -0.47300
F 	F 	0.39500 0.89090 0.51732 -0.41100
F 	F 	0.65060 0.87380 0.54957 -0.41200
F 	F 	0.62090 0.86060 0.47753 -0.43200
F 	F 	0.77820 0.76530 0.50879 -0.46200
F 	F 	0.59190 0.70070 0.53427 -0.49900
F 	F 	0.69670 0.76580 0.57988 -0.47700
F 	F 	0.29240 0.48460 0.04593 -0.36300
F 	F 	0.30220 0.41390 0.09270 -0.49200
F 	F 	0.09190 0.41730 0.04221 -0.39600
F 	F 	0.05210 0.57120 0.06839 -0.37800
F 	F 	0.88470 0.50470 0.04002 -0.35100
F 	F 	0.81540 0.54220 0.10478 -0.49000
F 	F 	0.60500 0.60910 0.01732 -0.41100
F 	F 	0.34940 0.62620 0.04957 -0.41200
F 	F 	0.37910 0.63940 0.97753 -0.43300
F 	F 	0.22180 0.73470 0.00879 -0.46100
F 	F 	0.40810 0.79930 0.03427 -0.49900
F 	F 	0.30330 0.73420 0.07988 -0.47700
F 	F 	0.70760 0.01540 0.54593 -0.36300
F 	F 	0.69780 0.08610 0.59270 -0.49200
F 	F 	0.90810 0.08270 0.54221 -0.39700
F 	F 	0.94790 0.92880 0.56839 -0.37900
F 	F 	0.11530 0.99530 0.54002 -0.35100
F 	F 	0.18460 0.95780 0.60478 -0.49000
F 	F 	0.60500 0.10910 0.48268 -0.41100
F 	F 	0.34940 0.12620 0.45043 -0.41200
F 	F 	0.37910 0.13940 0.52247 -0.43200
F 	F 	0.22180 0.23470 0.49121 -0.46200
F 	F 	0.40810 0.29930 0.46573 -0.49900
F 	F 	0.30330 0.23420 0.42012 -0.47700
F 	F 	0.70760 0.51540 0.95407 -0.36300
F 	F 	0.69780 0.58610 0.90730 -0.49200
F 	F 	0.90810 0.58270 0.95779 -0.39600
F 	F 	0.94790 0.42880 0.93161 -0.37800
F 	F 	0.11530 0.49530 0.95998 -0.35100
F 	F 	0.18460 0.45780 0.89522 -0.49000
F 	F 	0.39500 0.39090 0.98268 -0.41100
F 	F 	0.65060 0.37380 0.95043 -0.41200
F 	F 	0.62090 0.36060 0.02247 -0.43300
F 	F 	0.77820 0.26530 0.99121 -0.46100
F 	F 	0.59190 0.20070 0.96573 -0.49900
F 	F 	0.69670 0.26580 0.92012 -0.47700
F 	F 	0.29240 0.98460 0.45407 -0.36300
F 	F 	0.30220 0.91390 0.40730 -0.49200
F 	F 	0.09190 0.91730 0.45779 -0.39700
F 	F 	0.05210 0.07120 0.43161 -0.37900
F 	F 	0.88470 0.00470 0.45998 -0.35100
F 	F 	0.81540 0.04220 0.39522 -0.49000
