data_crystal

_cell_length_a 29.91550
_cell_length_b 29.91550
_cell_length_c 29.91550
_cell_angle_alpha 33.40320
_cell_angle_beta  33.40320
_cell_angle_gamma 33.40320

_symmetry_space_group_name_	'P 1'
_symmetry_space_group_name_H-M	'P 1'

loop_
_symmetry_equiv_pos_as_xyz
  x,y,z

loop_
_atom_site_label
_atom_site_type_symbol
_atom_site_fract_x
_atom_site_fract_y
_atom_site_fract_z
_atom_site_charge
Co	Co	0.35469 0.27919 0.54249 1.17300
Co	Co	0.25943 0.24219 0.56150 1.18900
O 	O 	0.29815 0.33115 0.48665 -0.59600
O 	O 	0.17445 0.25945 0.67125 -0.42800
O 	O 	0.25318 0.24798 0.67848 -0.47300
O 	O 	0.93478 0.25318 0.07058 -0.46600
O 	O 	0.07938 0.21068 0.99968 -0.47100
C 	C 	0.18652 0.24902 0.71152 0.38300
C 	C 	0.11457 0.23297 0.80897 -0.15600
C 	C 	0.03245 0.22775 0.94755 -0.16200
C 	C 	0.10246 0.24046 0.85916 0.08300
H 	H 	0.14120 0.25390 0.83350 -0.00100
C 	C 	0.01588 0.23188 0.00748 0.38000
C 	C 	0.06003 0.20733 0.85003 0.06900
H 	H 	0.06940 0.20020 0.81740 0.01000
C 	C 	0.99193 0.19243 0.93873 -0.14700
H 	H 	0.95590 0.17490 0.96610 0.07200
C 	C 	0.97775 0.20395 0.98645 0.06900
H 	H 	0.93080 0.19550 0.04560 0.01000
O 	O 	0.84120 0.46470 0.55040 -0.43900
O 	O 	0.88232 0.39752 0.63922 -0.43200
O 	O 	0.23750 0.42970 0.36280 -0.51800
O 	O 	0.16574 0.34974 0.51134 -0.42100
C 	C 	0.89536 0.43456 0.56286 0.35900
C 	C 	0.98206 0.44446 0.48066 -0.12700
C 	C 	0.11852 0.42962 0.41652 -0.14700
C 	C 	0.03936 0.41956 0.49056 0.07200
H 	H 	0.02430 0.39550 0.54810 0.03100
C 	C 	0.17754 0.40174 0.43134 0.40400
C 	C 	0.00402 0.48082 0.39462 0.05000
H 	H 	0.96570 0.49860 0.38690 0.02500
C 	C 	0.08395 0.49015 0.32015 -0.11800
H 	H 	0.09910 0.51400 0.26270 0.07100
C 	C 	0.14156 0.46426 0.33076 0.05700
H 	H 	0.19510 0.47010 0.28080 0.02000
O 	O 	0.20536 0.16476 0.63786 -0.53900
H 	H 	0.22120 0.10620 0.67920 0.22800
H 	H 	0.13590 0.19290 0.66490 0.16500
Co	Co	0.54249 0.35469 0.27919 1.17400
Co	Co	0.56150 0.25943 0.24219 1.19000
O 	O 	0.48665 0.29815 0.33115 -0.59500
O 	O 	0.67125 0.17445 0.25945 -0.42700
O 	O 	0.67848 0.25318 0.24798 -0.47200
O 	O 	0.07058 0.93478 0.25318 -0.46500
O 	O 	0.99968 0.07938 0.21068 -0.47000
C 	C 	0.71152 0.18652 0.24902 0.38400
C 	C 	0.80897 0.11457 0.23297 -0.15500
C 	C 	0.94755 0.03245 0.22775 -0.16100
C 	C 	0.85916 0.10246 0.24046 0.08400
H 	H 	0.83350 0.14120 0.25390 -0.00000
C 	C 	0.00748 0.01588 0.23188 0.38100
C 	C 	0.85003 0.06003 0.20733 0.07000
H 	H 	0.81740 0.06940 0.20020 0.01100
C 	C 	0.93873 0.99193 0.19243 -0.14600
H 	H 	0.96610 0.95590 0.17490 0.07300
C 	C 	0.98645 0.97775 0.20395 0.07000
H 	H 	0.04560 0.93080 0.19550 0.01000
O 	O 	0.55040 0.84120 0.46470 -0.43900
O 	O 	0.63922 0.88232 0.39752 -0.43200
O 	O 	0.36280 0.23750 0.42970 -0.51800
O 	O 	0.51134 0.16574 0.34974 -0.42100
C 	C 	0.56286 0.89536 0.43456 0.35900
C 	C 	0.48066 0.98206 0.44446 -0.12700
C 	C 	0.41652 0.11852 0.42962 -0.14700
C 	C 	0.49056 0.03936 0.41956 0.07200
H 	H 	0.54810 0.02430 0.39550 0.03100
C 	C 	0.43134 0.17754 0.40174 0.40400
C 	C 	0.39462 0.00402 0.48082 0.05000
H 	H 	0.38690 0.96570 0.49860 0.02500
C 	C 	0.32015 0.08395 0.49015 -0.11800
H 	H 	0.26270 0.09910 0.51400 0.07100
C 	C 	0.33076 0.14156 0.46426 0.05700
H 	H 	0.28080 0.19510 0.47010 0.02000
O 	O 	0.63786 0.20536 0.16476 -0.53900
H 	H 	0.67920 0.22120 0.10620 0.22800
H 	H 	0.66490 0.13590 0.19290 0.16500
Co	Co	0.27919 0.54249 0.35469 1.17400
Co	Co	0.24219 0.56150 0.25943 1.19000
O 	O 	0.33115 0.48665 0.29815 -0.59500
O 	O 	0.25945 0.67125 0.17445 -0.42700
O 	O 	0.24798 0.67848 0.25318 -0.47200
O 	O 	0.25318 0.07058 0.93478 -0.46500
O 	O 	0.21068 0.99968 0.07938 -0.47000
C 	C 	0.24902 0.71152 0.18652 0.38400
C 	C 	0.23297 0.80897 0.11457 -0.15500
C 	C 	0.22775 0.94755 0.03245 -0.16100
C 	C 	0.24046 0.85916 0.10246 0.08400
H 	H 	0.25390 0.83350 0.14120 -0.00000
C 	C 	0.23188 0.00748 0.01588 0.38100
C 	C 	0.20733 0.85003 0.06003 0.07000
H 	H 	0.20020 0.81740 0.06940 0.01100
C 	C 	0.19243 0.93873 0.99193 -0.14600
H 	H 	0.17490 0.96610 0.95590 0.07300
C 	C 	0.20395 0.98645 0.97775 0.07000
H 	H 	0.19550 0.04560 0.93080 0.01000
O 	O 	0.46470 0.55040 0.84120 -0.43900
O 	O 	0.39752 0.63922 0.88232 -0.43200
O 	O 	0.42970 0.36280 0.23750 -0.51800
O 	O 	0.34974 0.51134 0.16574 -0.42100
C 	C 	0.43456 0.56286 0.89536 0.35900
C 	C 	0.44446 0.48066 0.98206 -0.12700
C 	C 	0.42962 0.41652 0.11852 -0.14700
C 	C 	0.41956 0.49056 0.03936 0.07200
H 	H 	0.39550 0.54810 0.02430 0.03100
C 	C 	0.40174 0.43134 0.17754 0.40400
C 	C 	0.48082 0.39462 0.00402 0.05000
H 	H 	0.49860 0.38690 0.96570 0.02500
C 	C 	0.49015 0.32015 0.08395 -0.11800
H 	H 	0.51400 0.26270 0.09910 0.07100
C 	C 	0.46426 0.33076 0.14156 0.05700
H 	H 	0.47010 0.28080 0.19510 0.02000
O 	O 	0.16476 0.63786 0.20536 -0.53900
H 	H 	0.10620 0.67920 0.22120 0.22800
H 	H 	0.19290 0.66490 0.13590 0.16500
Co	Co	0.22081 0.14531 0.95751 1.17400
Co	Co	0.25781 0.24057 0.93850 1.19000
O 	O 	0.16885 0.20185 0.01335 -0.59600
O 	O 	0.24055 0.32555 0.82875 -0.42700
O 	O 	0.25202 0.24682 0.82152 -0.47200
O 	O 	0.24682 0.56522 0.42942 -0.46600
O 	O 	0.28932 0.42062 0.50032 -0.47000
C 	C 	0.25098 0.31348 0.78848 0.38400
C 	C 	0.26703 0.38543 0.69103 -0.15600
C 	C 	0.27225 0.46755 0.55245 -0.16300
C 	C 	0.25954 0.39754 0.64084 0.08500
H 	H 	0.24610 0.35880 0.66650 -0.00100
C 	C 	0.26812 0.48412 0.49252 0.38300
C 	C 	0.29267 0.43997 0.64997 0.07100
H 	H 	0.29980 0.43060 0.68260 0.01100
C 	C 	0.30757 0.50807 0.56127 -0.14700
H 	H 	0.32510 0.54410 0.53390 0.07400
C 	C 	0.29605 0.52225 0.51355 0.07200
H 	H 	0.30450 0.56920 0.45440 0.00900
O 	O 	0.03530 0.65880 0.94960 -0.43900
O 	O 	0.10248 0.61768 0.86078 -0.43200
O 	O 	0.07030 0.26250 0.13720 -0.51800
O 	O 	0.15026 0.33426 0.98866 -0.42100
C 	C 	0.06544 0.60464 0.93714 0.35900
C 	C 	0.05554 0.51794 0.01934 -0.12800
C 	C 	0.07038 0.38148 0.08348 -0.14700
C 	C 	0.08044 0.46064 0.00944 0.07100
H 	H 	0.10450 0.47570 0.95190 0.03100
C 	C 	0.09826 0.32246 0.06866 0.40300
C 	C 	0.01918 0.49598 0.10538 0.05100
H 	H 	0.00140 0.53430 0.11310 0.02500
C 	C 	0.00985 0.41605 0.17985 -0.11900
H 	H 	0.98600 0.40090 0.23730 0.07100
C 	C 	0.03574 0.35844 0.16924 0.05700
H 	H 	0.02990 0.30490 0.21920 0.02000
O 	O 	0.33524 0.29464 0.86214 -0.53900
H 	H 	0.39380 0.27880 0.82080 0.22800
H 	H 	0.30710 0.36410 0.83510 0.16500
Co	Co	0.14531 0.95751 0.22081 1.17400
Co	Co	0.24057 0.93850 0.25781 1.19000
O 	O 	0.20185 0.01335 0.16885 -0.59600
O 	O 	0.32555 0.82875 0.24055 -0.42700
O 	O 	0.24682 0.82152 0.25202 -0.47200
O 	O 	0.56522 0.42942 0.24682 -0.46600
O 	O 	0.42062 0.50032 0.28932 -0.47000
C 	C 	0.31348 0.78848 0.25098 0.38400
C 	C 	0.38543 0.69103 0.26703 -0.15600
C 	C 	0.46755 0.55245 0.27225 -0.16300
C 	C 	0.39754 0.64084 0.25954 0.08500
H 	H 	0.35880 0.66650 0.24610 -0.00100
C 	C 	0.48412 0.49252 0.26812 0.38300
C 	C 	0.43997 0.64997 0.29267 0.07100
H 	H 	0.43060 0.68260 0.29980 0.01100
C 	C 	0.50807 0.56127 0.30757 -0.14700
H 	H 	0.54410 0.53390 0.32510 0.07400
C 	C 	0.52225 0.51355 0.29605 0.07200
H 	H 	0.56920 0.45440 0.30450 0.00900
O 	O 	0.65880 0.94960 0.03530 -0.43900
O 	O 	0.61768 0.86078 0.10248 -0.43200
O 	O 	0.26250 0.13720 0.07030 -0.51800
O 	O 	0.33426 0.98866 0.15026 -0.42100
C 	C 	0.60464 0.93714 0.06544 0.35900
C 	C 	0.51794 0.01934 0.05554 -0.12800
C 	C 	0.38148 0.08348 0.07038 -0.14700
C 	C 	0.46064 0.00944 0.08044 0.07100
H 	H 	0.47570 0.95190 0.10450 0.03100
C 	C 	0.32246 0.06866 0.09826 0.40300
C 	C 	0.49598 0.10538 0.01918 0.05100
H 	H 	0.53430 0.11310 0.00140 0.02500
C 	C 	0.41605 0.17985 0.00985 -0.11900
H 	H 	0.40090 0.23730 0.98600 0.07100
C 	C 	0.35844 0.16924 0.03574 0.05700
H 	H 	0.30490 0.21920 0.02990 0.02000
O 	O 	0.29464 0.86214 0.33524 -0.53900
H 	H 	0.27880 0.82080 0.39380 0.22800
H 	H 	0.36410 0.83510 0.30710 0.16500
Co	Co	0.95751 0.22081 0.14531 1.17400
Co	Co	0.93850 0.25781 0.24057 1.19000
O 	O 	0.01335 0.16885 0.20185 -0.59600
O 	O 	0.82875 0.24055 0.32555 -0.42700
O 	O 	0.82152 0.25202 0.24682 -0.47200
O 	O 	0.42942 0.24682 0.56522 -0.46600
O 	O 	0.50032 0.28932 0.42062 -0.47000
C 	C 	0.78848 0.25098 0.31348 0.38400
C 	C 	0.69103 0.26703 0.38543 -0.15600
C 	C 	0.55245 0.27225 0.46755 -0.16300
C 	C 	0.64084 0.25954 0.39754 0.08500
H 	H 	0.66650 0.24610 0.35880 -0.00100
C 	C 	0.49252 0.26812 0.48412 0.38300
C 	C 	0.64997 0.29267 0.43997 0.07100
H 	H 	0.68260 0.29980 0.43060 0.01100
C 	C 	0.56127 0.30757 0.50807 -0.14700
H 	H 	0.53390 0.32510 0.54410 0.07400
C 	C 	0.51355 0.29605 0.52225 0.07200
H 	H 	0.45440 0.30450 0.56920 0.00900
O 	O 	0.94960 0.03530 0.65880 -0.43900
O 	O 	0.86078 0.10248 0.61768 -0.43200
O 	O 	0.13720 0.07030 0.26250 -0.51800
O 	O 	0.98866 0.15026 0.33426 -0.42100
C 	C 	0.93714 0.06544 0.60464 0.35900
C 	C 	0.01934 0.05554 0.51794 -0.12800
C 	C 	0.08348 0.07038 0.38148 -0.14700
C 	C 	0.00944 0.08044 0.46064 0.07100
H 	H 	0.95190 0.10450 0.47570 0.03100
C 	C 	0.06866 0.09826 0.32246 0.40300
C 	C 	0.10538 0.01918 0.49598 0.05100
H 	H 	0.11310 0.00140 0.53430 0.02500
C 	C 	0.17985 0.00985 0.41605 -0.11900
H 	H 	0.23730 0.98600 0.40090 0.07100
C 	C 	0.16924 0.03574 0.35844 0.05700
H 	H 	0.21920 0.02990 0.30490 0.02000
O 	O 	0.86214 0.33524 0.29464 -0.53900
H 	H 	0.82080 0.39380 0.27880 0.22800
H 	H 	0.83510 0.30710 0.36410 0.16500
Co	Co	0.64531 0.72081 0.45751 1.17400
Co	Co	0.74057 0.75781 0.43850 1.19000
O 	O 	0.70185 0.66885 0.51335 -0.59500
O 	O 	0.82555 0.74055 0.32875 -0.42700
O 	O 	0.74682 0.75202 0.32152 -0.47200
O 	O 	0.06522 0.74682 0.92942 -0.46500
O 	O 	0.92062 0.78932 0.00032 -0.47000
C 	C 	0.81348 0.75098 0.28848 0.38400
C 	C 	0.88543 0.76703 0.19103 -0.15500
C 	C 	0.96755 0.77225 0.05245 -0.16100
C 	C 	0.89754 0.75954 0.14084 0.08400
H 	H 	0.85880 0.74610 0.16650 -0.00000
C 	C 	0.98412 0.76812 0.99252 0.38100
C 	C 	0.93997 0.79267 0.14997 0.07000
H 	H 	0.93060 0.79980 0.18260 0.01100
C 	C 	0.00807 0.80757 0.06127 -0.14600
H 	H 	0.04410 0.82510 0.03390 0.07300
C 	C 	0.02225 0.79605 0.01355 0.07000
H 	H 	0.06920 0.80450 0.95440 0.01000
O 	O 	0.15880 0.53530 0.44960 -0.43900
O 	O 	0.11768 0.60248 0.36078 -0.43200
O 	O 	0.76250 0.57030 0.63720 -0.51800
O 	O 	0.83426 0.65026 0.48866 -0.42100
C 	C 	0.10464 0.56544 0.43714 0.35900
C 	C 	0.01794 0.55554 0.51934 -0.12700
C 	C 	0.88148 0.57038 0.58348 -0.14700
C 	C 	0.96064 0.58044 0.50944 0.07200
H 	H 	0.97570 0.60450 0.45190 0.03100
C 	C 	0.82246 0.59826 0.56866 0.40400
C 	C 	0.99598 0.51918 0.60538 0.05000
H 	H 	0.03430 0.50140 0.61310 0.02500
C 	C 	0.91605 0.50985 0.67985 -0.11800
H 	H 	0.90090 0.48600 0.73730 0.07100
C 	C 	0.85844 0.53574 0.66924 0.05700
H 	H 	0.80490 0.52990 0.71920 0.02000
O 	O 	0.79464 0.83524 0.36214 -0.53900
H 	H 	0.77880 0.89380 0.32080 0.22800
H 	H 	0.86410 0.80710 0.33510 0.16500
Co	Co	0.45751 0.64531 0.72081 1.17400
Co	Co	0.43850 0.74057 0.75781 1.19000
O 	O 	0.51335 0.70185 0.66885 -0.59500
O 	O 	0.32875 0.82555 0.74055 -0.42700
O 	O 	0.32152 0.74682 0.75202 -0.47200
O 	O 	0.92942 0.06522 0.74682 -0.46500
O 	O 	0.00032 0.92062 0.78932 -0.47000
C 	C 	0.28848 0.81348 0.75098 0.38400
C 	C 	0.19103 0.88543 0.76703 -0.15500
C 	C 	0.05245 0.96755 0.77225 -0.16100
C 	C 	0.14084 0.89754 0.75954 0.08400
H 	H 	0.16650 0.85880 0.74610 -0.00000
C 	C 	0.99252 0.98412 0.76812 0.38100
C 	C 	0.14997 0.93997 0.79267 0.07000
H 	H 	0.18260 0.93060 0.79980 0.01100
C 	C 	0.06127 0.00807 0.80757 -0.14600
H 	H 	0.03390 0.04410 0.82510 0.07300
C 	C 	0.01355 0.02225 0.79605 0.07000
H 	H 	0.95440 0.06920 0.80450 0.01000
O 	O 	0.44960 0.15880 0.53530 -0.43900
O 	O 	0.36078 0.11768 0.60248 -0.43200
O 	O 	0.63720 0.76250 0.57030 -0.51800
O 	O 	0.48866 0.83426 0.65026 -0.42100
C 	C 	0.43714 0.10464 0.56544 0.35900
C 	C 	0.51934 0.01794 0.55554 -0.12700
C 	C 	0.58348 0.88148 0.57038 -0.14700
C 	C 	0.50944 0.96064 0.58044 0.07200
H 	H 	0.45190 0.97570 0.60450 0.03100
C 	C 	0.56866 0.82246 0.59826 0.40400
C 	C 	0.60538 0.99598 0.51918 0.05000
H 	H 	0.61310 0.03430 0.50140 0.02500
C 	C 	0.67985 0.91605 0.50985 -0.11800
H 	H 	0.73730 0.90090 0.48600 0.07100
C 	C 	0.66924 0.85844 0.53574 0.05700
H 	H 	0.71920 0.80490 0.52990 0.02000
O 	O 	0.36214 0.79464 0.83524 -0.53900
H 	H 	0.32080 0.77880 0.89380 0.22800
H 	H 	0.33510 0.86410 0.80710 0.16500
Co	Co	0.72081 0.45751 0.64531 1.17400
Co	Co	0.75781 0.43850 0.74057 1.19000
O 	O 	0.66885 0.51335 0.70185 -0.59500
O 	O 	0.74055 0.32875 0.82555 -0.42700
O 	O 	0.75202 0.32152 0.74682 -0.47200
O 	O 	0.74682 0.92942 0.06522 -0.46500
O 	O 	0.78932 0.00032 0.92062 -0.47000
C 	C 	0.75098 0.28848 0.81348 0.38400
C 	C 	0.76703 0.19103 0.88543 -0.15500
C 	C 	0.77225 0.05245 0.96755 -0.16100
C 	C 	0.75954 0.14084 0.89754 0.08400
H 	H 	0.74610 0.16650 0.85880 -0.00000
C 	C 	0.76812 0.99252 0.98412 0.38100
C 	C 	0.79267 0.14997 0.93997 0.07000
H 	H 	0.79980 0.18260 0.93060 0.01100
C 	C 	0.80757 0.06127 0.00807 -0.14600
H 	H 	0.82510 0.03390 0.04410 0.07300
C 	C 	0.79605 0.01355 0.02225 0.07000
H 	H 	0.80450 0.95440 0.06920 0.01000
O 	O 	0.53530 0.44960 0.15880 -0.43900
O 	O 	0.60248 0.36078 0.11768 -0.43200
O 	O 	0.57030 0.63720 0.76250 -0.51800
O 	O 	0.65026 0.48866 0.83426 -0.42100
C 	C 	0.56544 0.43714 0.10464 0.35900
C 	C 	0.55554 0.51934 0.01794 -0.12700
C 	C 	0.57038 0.58348 0.88148 -0.14700
C 	C 	0.58044 0.50944 0.96064 0.07200
H 	H 	0.60450 0.45190 0.97570 0.03100
C 	C 	0.59826 0.56866 0.82246 0.40400
C 	C 	0.51918 0.60538 0.99598 0.05000
H 	H 	0.50140 0.61310 0.03430 0.02500
C 	C 	0.50985 0.67985 0.91605 -0.11800
H 	H 	0.48600 0.73730 0.90090 0.07100
C 	C 	0.53574 0.66924 0.85844 0.05700
H 	H 	0.52990 0.71920 0.80490 0.02000
O 	O 	0.83524 0.36214 0.79464 -0.53900
H 	H 	0.89380 0.32080 0.77880 0.22800
H 	H 	0.80710 0.33510 0.86410 0.16500
Co	Co	0.77919 0.85469 0.04249 1.17400
Co	Co	0.74219 0.75943 0.06150 1.19000
O 	O 	0.83115 0.79815 0.98665 -0.59600
O 	O 	0.75945 0.67445 0.17125 -0.42700
O 	O 	0.74798 0.75318 0.17848 -0.47200
O 	O 	0.75318 0.43478 0.57058 -0.46600
O 	O 	0.71068 0.57938 0.49968 -0.47000
C 	C 	0.74902 0.68652 0.21152 0.38400
C 	C 	0.73297 0.61457 0.30897 -0.15600
C 	C 	0.72775 0.53245 0.44755 -0.16300
C 	C 	0.74046 0.60246 0.35916 0.08500
H 	H 	0.75390 0.64120 0.33350 -0.00100
C 	C 	0.73188 0.51588 0.50748 0.38300
C 	C 	0.70733 0.56003 0.35003 0.07100
H 	H 	0.70020 0.56940 0.31740 0.01100
C 	C 	0.69243 0.49193 0.43873 -0.14700
H 	H 	0.67490 0.45590 0.46610 0.07400
C 	C 	0.70395 0.47775 0.48645 0.07200
H 	H 	0.69550 0.43080 0.54560 0.00900
O 	O 	0.96470 0.34120 0.05040 -0.43900
O 	O 	0.89752 0.38232 0.13922 -0.43200
O 	O 	0.92970 0.73750 0.86280 -0.51800
O 	O 	0.84974 0.66574 0.01134 -0.42100
C 	C 	0.93456 0.39536 0.06286 0.35900
C 	C 	0.94446 0.48206 0.98066 -0.12800
C 	C 	0.92962 0.61852 0.91652 -0.14700
C 	C 	0.91956 0.53936 0.99056 0.07100
H 	H 	0.89550 0.52430 0.04810 0.03100
C 	C 	0.90174 0.67754 0.93134 0.40300
C 	C 	0.98082 0.50402 0.89462 0.05100
H 	H 	0.99860 0.46570 0.88690 0.02500
C 	C 	0.99015 0.58395 0.82015 -0.11900
H 	H 	0.01400 0.59910 0.76270 0.07100
C 	C 	0.96426 0.64156 0.83076 0.05700
H 	H 	0.97010 0.69510 0.78080 0.02000
O 	O 	0.66476 0.70536 0.13786 -0.53900
H 	H 	0.60620 0.72120 0.17920 0.22800
H 	H 	0.69290 0.63590 0.16490 0.16500
Co	Co	0.85469 0.04249 0.77919 1.17400
Co	Co	0.75943 0.06150 0.74219 1.19000
O 	O 	0.79815 0.98665 0.83115 -0.59600
O 	O 	0.67445 0.17125 0.75945 -0.42700
O 	O 	0.75318 0.17848 0.74798 -0.47200
O 	O 	0.43478 0.57058 0.75318 -0.46600
O 	O 	0.57938 0.49968 0.71068 -0.47000
C 	C 	0.68652 0.21152 0.74902 0.38400
C 	C 	0.61457 0.30897 0.73297 -0.15600
C 	C 	0.53245 0.44755 0.72775 -0.16300
C 	C 	0.60246 0.35916 0.74046 0.08500
H 	H 	0.64120 0.33350 0.75390 -0.00100
C 	C 	0.51588 0.50748 0.73188 0.38300
C 	C 	0.56003 0.35003 0.70733 0.07100
H 	H 	0.56940 0.31740 0.70020 0.01100
C 	C 	0.49193 0.43873 0.69243 -0.14700
H 	H 	0.45590 0.46610 0.67490 0.07400
C 	C 	0.47775 0.48645 0.70395 0.07200
H 	H 	0.43080 0.54560 0.69550 0.00900
O 	O 	0.34120 0.05040 0.96470 -0.43900
O 	O 	0.38232 0.13922 0.89752 -0.43200
O 	O 	0.73750 0.86280 0.92970 -0.51800
O 	O 	0.66574 0.01134 0.84974 -0.42100
C 	C 	0.39536 0.06286 0.93456 0.35900
C 	C 	0.48206 0.98066 0.94446 -0.12800
C 	C 	0.61852 0.91652 0.92962 -0.14700
C 	C 	0.53936 0.99056 0.91956 0.07100
H 	H 	0.52430 0.04810 0.89550 0.03100
C 	C 	0.67754 0.93134 0.90174 0.40300
C 	C 	0.50402 0.89462 0.98082 0.05100
H 	H 	0.46570 0.88690 0.99860 0.02500
C 	C 	0.58395 0.82015 0.99015 -0.11900
H 	H 	0.59910 0.76270 0.01400 0.07100
C 	C 	0.64156 0.83076 0.96426 0.05700
H 	H 	0.69510 0.78080 0.97010 0.02000
O 	O 	0.70536 0.13786 0.66476 -0.53900
H 	H 	0.72120 0.17920 0.60620 0.22800
H 	H 	0.63590 0.16490 0.69290 0.16500
Co	Co	0.04249 0.77919 0.85469 1.17400
Co	Co	0.06150 0.74219 0.75943 1.19000
O 	O 	0.98665 0.83115 0.79815 -0.59600
O 	O 	0.17125 0.75945 0.67445 -0.42700
O 	O 	0.17848 0.74798 0.75318 -0.47200
O 	O 	0.57058 0.75318 0.43478 -0.46600
O 	O 	0.49968 0.71068 0.57938 -0.47000
C 	C 	0.21152 0.74902 0.68652 0.38400
C 	C 	0.30897 0.73297 0.61457 -0.15600
C 	C 	0.44755 0.72775 0.53245 -0.16300
C 	C 	0.35916 0.74046 0.60246 0.08500
H 	H 	0.33350 0.75390 0.64120 -0.00100
C 	C 	0.50748 0.73188 0.51588 0.38300
C 	C 	0.35003 0.70733 0.56003 0.07100
H 	H 	0.31740 0.70020 0.56940 0.01100
C 	C 	0.43873 0.69243 0.49193 -0.14700
H 	H 	0.46610 0.67490 0.45590 0.07400
C 	C 	0.48645 0.70395 0.47775 0.07200
H 	H 	0.54560 0.69550 0.43080 0.00900
O 	O 	0.05040 0.96470 0.34120 -0.43900
O 	O 	0.13922 0.89752 0.38232 -0.43200
O 	O 	0.86280 0.92970 0.73750 -0.51800
O 	O 	0.01134 0.84974 0.66574 -0.42100
C 	C 	0.06286 0.93456 0.39536 0.35900
C 	C 	0.98066 0.94446 0.48206 -0.12800
C 	C 	0.91652 0.92962 0.61852 -0.14700
C 	C 	0.99056 0.91956 0.53936 0.07100
H 	H 	0.04810 0.89550 0.52430 0.03100
C 	C 	0.93134 0.90174 0.67754 0.40300
C 	C 	0.89462 0.98082 0.50402 0.05100
H 	H 	0.88690 0.99860 0.46570 0.02500
C 	C 	0.82015 0.99015 0.58395 -0.11900
H 	H 	0.76270 0.01400 0.59910 0.07100
C 	C 	0.83076 0.96426 0.64156 0.05700
H 	H 	0.78080 0.97010 0.69510 0.02000
O 	O 	0.13786 0.66476 0.70536 -0.53900
H 	H 	0.17920 0.60620 0.72120 0.22800
H 	H 	0.16490 0.69290 0.63590 0.16500
Co	Co	0.35890 0.35890 0.35890 1.16100
Co	Co	0.14110 0.14110 0.14110 1.16100
Co	Co	0.64110 0.64110 0.64110 1.16100
Co	Co	0.85890 0.85890 0.85890 1.16100
K 	K 	0.36185 0.13815 0.75000 0.63900
K 	K 	0.75000 0.36185 0.13815 0.63900
K 	K 	0.13815 0.75000 0.36185 0.63900
K 	K 	0.63815 0.86185 0.25000 0.63900
K 	K 	0.25000 0.63815 0.86185 0.63900
K 	K 	0.86185 0.25000 0.63815 0.63900
