data_crystal

_cell_length_a 28.02300
_cell_length_b 28.02300
_cell_length_c 19.68400
_cell_angle_alpha 90.00000
_cell_angle_beta  90.00000
_cell_angle_gamma 90.00000

_symmetry_space_group_name_	'P 1'
_symmetry_space_group_name_H-M	'P 1'

loop_
_symmetry_equiv_pos_as_xyz
  x,y,z

loop_
_atom_site_label
_atom_site_type_symbol
_atom_site_fract_x
_atom_site_fract_y
_atom_site_fract_z
_atom_site_charge
U 	U 	0.00039 0.37144 0.21681 0.05400
U 	U 	0.80917 0.33137 0.80457 0.06300
U 	U 	0.70731 0.56552 0.83756 0.06200
S 	S 	0.89992 0.42054 0.13290 0.62100
S 	S 	0.77430 0.45635 0.82659 0.59500
S 	S 	0.92596 0.27113 0.17529 0.61200
S 	S 	0.80797 0.21981 0.70794 0.62200
O 	O 	0.00800 0.45810 0.20640 -0.15900
O 	O 	0.72850 0.48220 0.82280 -0.15200
O 	O 	0.89250 0.44800 0.07060 -0.16700
O 	O 	0.76480 0.40490 0.83350 -0.15200
O 	O 	0.94730 0.39780 0.12790 -0.15900
O 	O 	0.80230 0.25110 0.76750 -0.16600
O 	O 	0.80220 0.46480 0.76430 -0.16000
O 	O 	0.91230 0.24830 0.11260 -0.16800
O 	O 	0.94110 0.23470 0.22510 -0.15800
O 	O 	0.80180 0.47370 0.88500 -0.15800
O 	O 	0.85620 0.19930 0.70980 -0.16400
O 	O 	0.89910 0.45120 0.19210 -0.17600
O 	O 	0.96660 0.30340 0.16230 -0.15500
O 	O 	0.77390 0.18000 0.71750 -0.15500
O 	O 	0.88720 0.29880 0.20520 -0.17000
O 	O 	0.86330 0.38390 0.13770 -0.17600
O 	O 	0.79890 0.24440 0.64620 -0.17400
O 	O 	0.68530 0.52410 0.06030 -0.19900
U 	U 	0.50039 0.87144 0.71681 0.06000
U 	U 	0.30917 0.83137 0.30457 0.06100
U 	U 	0.20731 0.06552 0.33756 0.05600
S 	S 	0.39992 0.92054 0.63290 0.62000
S 	S 	0.27430 0.95635 0.32659 0.59600
S 	S 	0.42596 0.77113 0.67529 0.61200
S 	S 	0.30797 0.71981 0.20794 0.62200
O 	O 	0.50800 0.95810 0.70640 -0.14800
O 	O 	0.22850 0.98220 0.32280 -0.15100
O 	O 	0.39250 0.94800 0.57060 -0.16000
O 	O 	0.26480 0.90490 0.33350 -0.15600
O 	O 	0.44730 0.89780 0.62790 -0.15800
O 	O 	0.30230 0.75110 0.26750 -0.16700
O 	O 	0.30220 0.96480 0.26430 -0.15900
O 	O 	0.41230 0.74830 0.61260 -0.16200
O 	O 	0.44110 0.73470 0.72510 -0.15800
O 	O 	0.30180 0.97370 0.38500 -0.16300
O 	O 	0.35620 0.69930 0.20980 -0.16600
O 	O 	0.39910 0.95120 0.69210 -0.17600
O 	O 	0.46660 0.80340 0.66230 -0.15600
O 	O 	0.27390 0.68000 0.21750 -0.15700
O 	O 	0.38720 0.79880 0.70520 -0.16900
O 	O 	0.36330 0.88390 0.63770 -0.17400
O 	O 	0.29890 0.74440 0.14620 -0.17800
O 	O 	0.18530 0.02410 0.56030 -0.21600
U 	U 	0.99961 0.62856 0.21681 0.06400
U 	U 	0.19083 0.66863 0.80457 0.06300
U 	U 	0.29269 0.43448 0.83756 0.06200
S 	S 	0.10008 0.57946 0.13290 0.62300
S 	S 	0.22570 0.54365 0.82659 0.59500
S 	S 	0.07404 0.72887 0.17529 0.61400
S 	S 	0.19203 0.78019 0.70794 0.62100
O 	O 	0.99200 0.54190 0.20640 -0.14800
O 	O 	0.27150 0.51780 0.82280 -0.15200
O 	O 	0.10750 0.55200 0.07060 -0.16900
O 	O 	0.23520 0.59510 0.83350 -0.15200
O 	O 	0.05270 0.60220 0.12790 -0.16700
O 	O 	0.19770 0.74890 0.76750 -0.16600
O 	O 	0.19780 0.53520 0.76430 -0.16000
O 	O 	0.08770 0.75170 0.11260 -0.16900
O 	O 	0.05890 0.76530 0.22510 -0.16300
O 	O 	0.19820 0.52630 0.88500 -0.15800
O 	O 	0.14380 0.80070 0.70980 -0.16400
O 	O 	0.10090 0.54880 0.19210 -0.18000
O 	O 	0.03340 0.69660 0.16230 -0.16400
O 	O 	0.22610 0.82000 0.71750 -0.15400
O 	O 	0.11280 0.70120 0.20520 -0.17200
O 	O 	0.13670 0.61610 0.13770 -0.17700
O 	O 	0.20110 0.75560 0.64620 -0.17500
O 	O 	0.31470 0.47590 0.06030 -0.19900
U 	U 	0.49961 0.12856 0.71681 0.05900
U 	U 	0.69083 0.16863 0.30457 0.06100
U 	U 	0.79269 0.93448 0.33756 0.06200
S 	S 	0.60008 0.07946 0.63290 0.62100
S 	S 	0.72570 0.04365 0.32659 0.59700
S 	S 	0.57404 0.22887 0.67529 0.61200
S 	S 	0.69203 0.28019 0.20794 0.62300
O 	O 	0.49200 0.04190 0.70640 -0.15700
O 	O 	0.77150 0.01780 0.32280 -0.16000
O 	O 	0.60750 0.05200 0.57060 -0.16300
O 	O 	0.73520 0.09510 0.33350 -0.15700
O 	O 	0.55270 0.10220 0.62790 -0.16000
O 	O 	0.69770 0.24890 0.26750 -0.16700
O 	O 	0.69780 0.03520 0.26430 -0.16500
O 	O 	0.58770 0.25170 0.61260 -0.16200
O 	O 	0.55890 0.26530 0.72510 -0.15900
O 	O 	0.69820 0.02630 0.38500 -0.16800
O 	O 	0.64380 0.30070 0.20980 -0.16600
O 	O 	0.60090 0.04880 0.69210 -0.17800
O 	O 	0.53340 0.19660 0.66230 -0.15700
O 	O 	0.72610 0.32000 0.21750 -0.15700
O 	O 	0.61280 0.20120 0.70520 -0.16900
O 	O 	0.63670 0.11610 0.63770 -0.17400
O 	O 	0.70110 0.25560 0.14620 -0.17900
O 	O 	0.81470 0.97590 0.56030 -0.18600
U 	U 	0.62856 0.00039 0.21681 0.05400
U 	U 	0.66863 0.80917 0.80457 0.06300
U 	U 	0.43448 0.70731 0.83756 0.06200
S 	S 	0.57946 0.89992 0.13290 0.62100
S 	S 	0.54365 0.77430 0.82659 0.59500
S 	S 	0.72887 0.92596 0.17529 0.61200
S 	S 	0.78019 0.80797 0.70794 0.62100
O 	O 	0.54190 0.00800 0.20640 -0.15900
O 	O 	0.51780 0.72850 0.82280 -0.15200
O 	O 	0.55200 0.89250 0.07060 -0.16700
O 	O 	0.59510 0.76480 0.83350 -0.15200
O 	O 	0.60220 0.94730 0.12790 -0.15900
O 	O 	0.74890 0.80230 0.76750 -0.16500
O 	O 	0.53520 0.80220 0.76430 -0.16000
O 	O 	0.75170 0.91230 0.11260 -0.16600
O 	O 	0.76530 0.94110 0.22510 -0.15700
O 	O 	0.52630 0.80180 0.88500 -0.15800
O 	O 	0.80070 0.85620 0.70980 -0.16200
O 	O 	0.54880 0.89910 0.19210 -0.17600
O 	O 	0.69660 0.96660 0.16230 -0.15500
O 	O 	0.82000 0.77390 0.71750 -0.15400
O 	O 	0.70120 0.88720 0.20520 -0.17000
O 	O 	0.61610 0.86330 0.13770 -0.17600
O 	O 	0.75560 0.79890 0.64620 -0.17400
O 	O 	0.47590 0.68530 0.06030 -0.19900
U 	U 	0.12856 0.50039 0.71681 0.05900
U 	U 	0.16863 0.30917 0.30457 0.06100
U 	U 	0.93448 0.20731 0.33756 0.06100
S 	S 	0.07946 0.39992 0.63290 0.62100
S 	S 	0.04365 0.27430 0.32659 0.59800
S 	S 	0.22887 0.42596 0.67529 0.61200
S 	S 	0.28019 0.30797 0.20794 0.62300
O 	O 	0.04190 0.50800 0.70640 -0.15700
O 	O 	0.01780 0.22850 0.32280 -0.16100
O 	O 	0.05200 0.39250 0.57060 -0.16300
O 	O 	0.09510 0.26480 0.33350 -0.15700
O 	O 	0.10220 0.44730 0.62790 -0.16000
O 	O 	0.24890 0.30230 0.26750 -0.16800
O 	O 	0.03520 0.30220 0.26430 -0.16500
O 	O 	0.25170 0.41230 0.61260 -0.16300
O 	O 	0.26530 0.44110 0.72510 -0.15900
O 	O 	0.02630 0.30180 0.38500 -0.16800
O 	O 	0.30070 0.35620 0.20980 -0.16600
O 	O 	0.04880 0.39910 0.69210 -0.17800
O 	O 	0.19660 0.46660 0.66230 -0.15700
O 	O 	0.32000 0.27390 0.21750 -0.15700
O 	O 	0.20120 0.38720 0.70520 -0.17000
O 	O 	0.11610 0.36330 0.63770 -0.17400
O 	O 	0.25560 0.29890 0.14620 -0.17900
O 	O 	0.97590 0.18530 0.56030 -0.18800
U 	U 	0.37144 0.99961 0.21681 0.06400
U 	U 	0.33137 0.19083 0.80457 0.06300
U 	U 	0.56552 0.29269 0.83756 0.06200
S 	S 	0.42054 0.10008 0.13290 0.62300
S 	S 	0.45635 0.22570 0.82659 0.59500
S 	S 	0.27113 0.07404 0.17529 0.61400
S 	S 	0.21981 0.19203 0.70794 0.62200
O 	O 	0.45810 0.99200 0.20640 -0.14800
O 	O 	0.48220 0.27150 0.82280 -0.15200
O 	O 	0.44800 0.10750 0.07060 -0.16900
O 	O 	0.40490 0.23520 0.83350 -0.15200
O 	O 	0.39780 0.05270 0.12790 -0.16700
O 	O 	0.25110 0.19770 0.76750 -0.16600
O 	O 	0.46480 0.19780 0.76430 -0.16000
O 	O 	0.24830 0.08770 0.11260 -0.17100
O 	O 	0.23470 0.05890 0.22510 -0.16400
O 	O 	0.47370 0.19820 0.88500 -0.15800
O 	O 	0.19930 0.14380 0.70980 -0.16500
O 	O 	0.45120 0.10090 0.19210 -0.18000
O 	O 	0.30340 0.03340 0.16230 -0.16400
O 	O 	0.18000 0.22610 0.71750 -0.15600
O 	O 	0.29880 0.11280 0.20520 -0.17200
O 	O 	0.38390 0.13670 0.13770 -0.17700
O 	O 	0.24440 0.20110 0.64620 -0.17500
O 	O 	0.52410 0.31470 0.06030 -0.19900
U 	U 	0.87144 0.49961 0.71681 0.06000
U 	U 	0.83137 0.69083 0.30457 0.06100
U 	U 	0.06552 0.79269 0.33756 0.05700
S 	S 	0.92054 0.60008 0.63290 0.62000
S 	S 	0.95635 0.72570 0.32659 0.59600
S 	S 	0.77113 0.57404 0.67529 0.61200
S 	S 	0.71981 0.69203 0.20794 0.62200
O 	O 	0.95810 0.49200 0.70640 -0.14800
O 	O 	0.98220 0.77150 0.32280 -0.15000
O 	O 	0.94800 0.60750 0.57060 -0.16000
O 	O 	0.90490 0.73520 0.33350 -0.15500
O 	O 	0.89780 0.55270 0.62790 -0.15800
O 	O 	0.75110 0.69770 0.26750 -0.16700
O 	O 	0.96480 0.69780 0.26430 -0.15900
O 	O 	0.74830 0.58770 0.61260 -0.16200
O 	O 	0.73470 0.55890 0.72510 -0.15800
O 	O 	0.97370 0.69820 0.38500 -0.16300
O 	O 	0.69930 0.64380 0.20980 -0.16600
O 	O 	0.95120 0.60090 0.69210 -0.17600
O 	O 	0.80340 0.53340 0.66230 -0.15600
O 	O 	0.68000 0.72610 0.21750 -0.15700
O 	O 	0.79880 0.61280 0.70520 -0.16900
O 	O 	0.88390 0.63670 0.63770 -0.17400
O 	O 	0.74440 0.70110 0.14620 -0.17800
O 	O 	0.02410 0.81470 0.56030 -0.21400
U 	U 	0.99961 0.62856 0.78319 0.06600
U 	U 	0.19083 0.66863 0.19543 0.06000
U 	U 	0.29269 0.43448 0.16244 0.05700
S 	S 	0.10008 0.57946 0.86710 0.61900
S 	S 	0.22570 0.54365 0.17341 0.59700
S 	S 	0.07404 0.72887 0.82471 0.61200
S 	S 	0.19203 0.78019 0.29206 0.62200
O 	O 	0.99200 0.54190 0.79360 -0.14500
O 	O 	0.27150 0.51780 0.17720 -0.15600
O 	O 	0.10750 0.55200 0.92940 -0.15300
O 	O 	0.23520 0.59510 0.16650 -0.15700
O 	O 	0.05270 0.60220 0.87210 -0.15900
O 	O 	0.19770 0.74890 0.23250 -0.16800
O 	O 	0.19780 0.53520 0.23570 -0.16100
O 	O 	0.08770 0.75170 0.88740 -0.15700
O 	O 	0.05890 0.76530 0.77490 -0.16000
O 	O 	0.19820 0.52630 0.11500 -0.16700
O 	O 	0.14380 0.80070 0.29020 -0.16600
O 	O 	0.10090 0.54880 0.80790 -0.17800
O 	O 	0.03340 0.69660 0.83770 -0.15800
O 	O 	0.22610 0.82000 0.28250 -0.15700
O 	O 	0.11280 0.70120 0.79480 -0.17000
O 	O 	0.13670 0.61610 0.86230 -0.17100
O 	O 	0.20110 0.75560 0.35380 -0.17500
O 	O 	0.31470 0.47590 0.93970 -0.17900
U 	U 	0.49961 0.12856 0.28319 0.05900
U 	U 	0.69083 0.16863 0.69543 0.06200
U 	U 	0.79269 0.93448 0.66244 0.06300
S 	S 	0.60008 0.07946 0.36710 0.62100
S 	S 	0.72570 0.04365 0.67341 0.59700
S 	S 	0.57404 0.22887 0.32471 0.61200
S 	S 	0.69203 0.28019 0.79206 0.62100
O 	O 	0.49200 0.04190 0.29360 -0.15700
O 	O 	0.77150 0.01780 0.67720 -0.15900
O 	O 	0.60750 0.05200 0.42940 -0.16300
O 	O 	0.73520 0.09510 0.66650 -0.15500
O 	O 	0.55270 0.10220 0.37210 -0.16000
O 	O 	0.69770 0.24890 0.73250 -0.16600
O 	O 	0.69780 0.03520 0.73570 -0.16200
O 	O 	0.58770 0.25170 0.38740 -0.16300
O 	O 	0.55890 0.26530 0.27490 -0.15900
O 	O 	0.69820 0.02630 0.61500 -0.16800
O 	O 	0.64380 0.30070 0.79020 -0.16300
O 	O 	0.60090 0.04880 0.30790 -0.17900
O 	O 	0.53340 0.19660 0.33770 -0.15700
O 	O 	0.72610 0.32000 0.78250 -0.15400
O 	O 	0.61280 0.20120 0.29480 -0.17100
O 	O 	0.63670 0.11610 0.36230 -0.17400
O 	O 	0.70110 0.25560 0.85380 -0.17000
O 	O 	0.81470 0.97590 0.43970 -0.18600
U 	U 	0.00039 0.37144 0.78319 0.05600
U 	U 	0.80917 0.33137 0.19543 0.06100
U 	U 	0.70731 0.56552 0.16244 0.05800
S 	S 	0.89992 0.42054 0.86710 0.61800
S 	S 	0.77430 0.45635 0.17341 0.59700
S 	S 	0.92596 0.27113 0.82471 0.61000
S 	S 	0.80797 0.21981 0.29206 0.62200
O 	O 	0.00800 0.45810 0.79360 -0.15600
O 	O 	0.72850 0.48220 0.17720 -0.15600
O 	O 	0.89250 0.44800 0.92940 -0.15100
O 	O 	0.76480 0.40490 0.16650 -0.15700
O 	O 	0.94730 0.39780 0.87210 -0.15100
O 	O 	0.80230 0.25110 0.23250 -0.16800
O 	O 	0.80220 0.46480 0.23570 -0.16100
O 	O 	0.91230 0.24830 0.88740 -0.15600
O 	O 	0.94110 0.23470 0.77490 -0.15500
O 	O 	0.80180 0.47370 0.11500 -0.16700
O 	O 	0.85620 0.19930 0.29020 -0.16600
O 	O 	0.89910 0.45120 0.80790 -0.17400
O 	O 	0.96660 0.30340 0.83770 -0.14900
O 	O 	0.77390 0.18000 0.28250 -0.15700
O 	O 	0.88720 0.29880 0.79480 -0.16800
O 	O 	0.86330 0.38390 0.86230 -0.17000
O 	O 	0.79890 0.24440 0.35380 -0.17400
O 	O 	0.68530 0.52410 0.93970 -0.17900
U 	U 	0.50039 0.87144 0.28319 0.06000
U 	U 	0.30917 0.83137 0.69543 0.06200
U 	U 	0.20731 0.06552 0.66244 0.05700
S 	S 	0.39992 0.92054 0.36710 0.62000
S 	S 	0.27430 0.95635 0.67341 0.59600
S 	S 	0.42596 0.77113 0.32471 0.61200
S 	S 	0.30797 0.71981 0.79206 0.62100
O 	O 	0.50800 0.95810 0.29360 -0.14800
O 	O 	0.22850 0.98220 0.67720 -0.14900
O 	O 	0.39250 0.94800 0.42940 -0.16000
O 	O 	0.26480 0.90490 0.66650 -0.15400
O 	O 	0.44730 0.89780 0.37210 -0.15800
O 	O 	0.30230 0.75110 0.73250 -0.16600
O 	O 	0.30220 0.96480 0.73570 -0.15700
O 	O 	0.41230 0.74830 0.38740 -0.16300
O 	O 	0.44110 0.73470 0.27490 -0.15900
O 	O 	0.30180 0.97370 0.61500 -0.16300
O 	O 	0.35620 0.69930 0.79020 -0.16300
O 	O 	0.39910 0.95120 0.30790 -0.17600
O 	O 	0.46660 0.80340 0.33770 -0.15700
O 	O 	0.27390 0.68000 0.78250 -0.15500
O 	O 	0.38720 0.79880 0.29480 -0.17100
O 	O 	0.36330 0.88390 0.36230 -0.17400
O 	O 	0.29890 0.74440 0.85380 -0.16900
O 	O 	0.18530 0.02410 0.43970 -0.21600
U 	U 	0.37144 0.99961 0.78319 0.06500
U 	U 	0.33137 0.19083 0.19543 0.06000
U 	U 	0.56552 0.29269 0.16244 0.05700
S 	S 	0.42054 0.10008 0.86710 0.61900
S 	S 	0.45635 0.22570 0.17341 0.59700
S 	S 	0.27113 0.07404 0.82471 0.61200
S 	S 	0.21981 0.19203 0.29206 0.62300
O 	O 	0.45810 0.99200 0.79360 -0.14500
O 	O 	0.48220 0.27150 0.17720 -0.15600
O 	O 	0.44800 0.10750 0.92940 -0.15300
O 	O 	0.40490 0.23520 0.16650 -0.15700
O 	O 	0.39780 0.05270 0.87210 -0.15900
O 	O 	0.25110 0.19770 0.23250 -0.16900
O 	O 	0.46480 0.19780 0.23570 -0.16100
O 	O 	0.24830 0.08770 0.88740 -0.15900
O 	O 	0.23470 0.05890 0.77490 -0.16100
O 	O 	0.47370 0.19820 0.11500 -0.16700
O 	O 	0.19930 0.14380 0.29020 -0.16700
O 	O 	0.45120 0.10090 0.80790 -0.17800
O 	O 	0.30340 0.03340 0.83770 -0.15900
O 	O 	0.18000 0.22610 0.28250 -0.15800
O 	O 	0.29880 0.11280 0.79480 -0.17000
O 	O 	0.38390 0.13670 0.86230 -0.17100
O 	O 	0.24440 0.20110 0.35380 -0.17500
O 	O 	0.52410 0.31470 0.93970 -0.17900
U 	U 	0.87144 0.49961 0.28319 0.06000
U 	U 	0.83137 0.69083 0.69543 0.06200
U 	U 	0.06552 0.79269 0.66244 0.05800
S 	S 	0.92054 0.60008 0.36710 0.62000
S 	S 	0.95635 0.72570 0.67341 0.59500
S 	S 	0.77113 0.57404 0.32471 0.61200
S 	S 	0.71981 0.69203 0.79206 0.62100
O 	O 	0.95810 0.49200 0.29360 -0.14800
O 	O 	0.98220 0.77150 0.67720 -0.14800
O 	O 	0.94800 0.60750 0.42940 -0.16000
O 	O 	0.90490 0.73520 0.66650 -0.15400
O 	O 	0.89780 0.55270 0.37210 -0.15800
O 	O 	0.75110 0.69770 0.73250 -0.16600
O 	O 	0.96480 0.69780 0.73570 -0.15600
O 	O 	0.74830 0.58770 0.38740 -0.16200
O 	O 	0.73470 0.55890 0.27490 -0.15900
O 	O 	0.97370 0.69820 0.61500 -0.16300
O 	O 	0.69930 0.64380 0.79020 -0.16300
O 	O 	0.95120 0.60090 0.30790 -0.17600
O 	O 	0.80340 0.53340 0.33770 -0.15700
O 	O 	0.68000 0.72610 0.78250 -0.15400
O 	O 	0.79880 0.61280 0.29480 -0.17000
O 	O 	0.88390 0.63670 0.36230 -0.17400
O 	O 	0.74440 0.70110 0.85380 -0.16900
O 	O 	0.02410 0.81470 0.43970 -0.21500
U 	U 	0.62856 0.00039 0.78319 0.05600
U 	U 	0.66863 0.80917 0.19543 0.06100
U 	U 	0.43448 0.70731 0.16244 0.05800
S 	S 	0.57946 0.89992 0.86710 0.61800
S 	S 	0.54365 0.77430 0.17341 0.59700
S 	S 	0.72887 0.92596 0.82471 0.61000
S 	S 	0.78019 0.80797 0.29206 0.62200
O 	O 	0.54190 0.00800 0.79360 -0.15600
O 	O 	0.51780 0.72850 0.17720 -0.15600
O 	O 	0.55200 0.89250 0.92940 -0.15100
O 	O 	0.59510 0.76480 0.16650 -0.15700
O 	O 	0.60220 0.94730 0.87210 -0.15100
O 	O 	0.74890 0.80230 0.23250 -0.16800
O 	O 	0.53520 0.80220 0.23570 -0.16100
O 	O 	0.75170 0.91230 0.88740 -0.15400
O 	O 	0.76530 0.94110 0.77490 -0.15400
O 	O 	0.52630 0.80180 0.11500 -0.16700
O 	O 	0.80070 0.85620 0.29020 -0.16400
O 	O 	0.54880 0.89910 0.80790 -0.17400
O 	O 	0.69660 0.96660 0.83770 -0.14900
O 	O 	0.82000 0.77390 0.28250 -0.15600
O 	O 	0.70120 0.88720 0.79480 -0.16800
O 	O 	0.61610 0.86330 0.86230 -0.17000
O 	O 	0.75560 0.79890 0.35380 -0.17400
O 	O 	0.47590 0.68530 0.93970 -0.17900
U 	U 	0.12856 0.50039 0.28319 0.05900
U 	U 	0.16863 0.30917 0.69543 0.06200
U 	U 	0.93448 0.20731 0.66244 0.06200
S 	S 	0.07946 0.39992 0.36710 0.62100
S 	S 	0.04365 0.27430 0.67341 0.59700
S 	S 	0.22887 0.42596 0.32471 0.61200
S 	S 	0.28019 0.30797 0.79206 0.62100
O 	O 	0.04190 0.50800 0.29360 -0.15700
O 	O 	0.01780 0.22850 0.67720 -0.16000
O 	O 	0.05200 0.39250 0.42940 -0.16300
O 	O 	0.09510 0.26480 0.66650 -0.15600
O 	O 	0.10220 0.44730 0.37210 -0.16000
O 	O 	0.24890 0.30230 0.73250 -0.16700
O 	O 	0.03520 0.30220 0.73570 -0.16300
O 	O 	0.25170 0.41230 0.38740 -0.16300
O 	O 	0.26530 0.44110 0.27490 -0.15900
O 	O 	0.02630 0.30180 0.61500 -0.16800
O 	O 	0.30070 0.35620 0.79020 -0.16300
O 	O 	0.04880 0.39910 0.30790 -0.17900
O 	O 	0.19660 0.46660 0.33770 -0.15700
O 	O 	0.32000 0.27390 0.78250 -0.15500
O 	O 	0.20120 0.38720 0.29480 -0.17100
O 	O 	0.11610 0.36330 0.36230 -0.17500
O 	O 	0.25560 0.29890 0.85380 -0.17000
O 	O 	0.97590 0.18530 0.43970 -0.18800
U 	U 	0.82397 0.46495 -0.00000 0.05600
S 	S 	0.69719 0.49899 -0.00000 0.72400
O 	O 	0.74470 0.48690 -0.00000 -0.22900
O 	O 	0.66490 0.46050 -0.00000 -0.20000
U 	U 	0.32397 0.96495 0.50000 0.06800
S 	S 	0.19719 0.99899 0.50000 0.78600
O 	O 	0.24470 0.98690 0.50000 -0.23300
O 	O 	0.16490 0.96050 0.50000 -0.20200
U 	U 	0.17603 0.53505 -0.00000 0.05600
S 	S 	0.30281 0.50101 -0.00000 0.72400
O 	O 	0.25530 0.51310 -0.00000 -0.22900
O 	O 	0.33510 0.53950 -0.00000 -0.20000
U 	U 	0.67603 0.03505 0.50000 0.06500
S 	S 	0.80281 0.00101 0.50000 0.72300
O 	O 	0.75530 0.01310 0.50000 -0.22400
O 	O 	0.83510 0.03950 0.50000 -0.19400
U 	U 	0.53505 0.82397 -0.00000 0.05600
S 	S 	0.50101 0.69719 -0.00000 0.72400
O 	O 	0.51310 0.74470 -0.00000 -0.22900
O 	O 	0.53950 0.66490 -0.00000 -0.20000
U 	U 	0.03505 0.32397 0.50000 0.06500
S 	S 	0.00101 0.19719 0.50000 0.72400
O 	O 	0.01310 0.24470 0.50000 -0.22400
O 	O 	0.03950 0.16490 0.50000 -0.19600
U 	U 	0.46495 0.17603 -0.00000 0.05600
S 	S 	0.49899 0.30281 -0.00000 0.72400
O 	O 	0.48690 0.25530 -0.00000 -0.22900
O 	O 	0.46050 0.33510 -0.00000 -0.20000
U 	U 	0.96495 0.67603 0.50000 0.06800
S 	S 	0.99899 0.80281 0.50000 0.78500
O 	O 	0.98690 0.75530 0.50000 -0.23300
O 	O 	0.96050 0.83510 0.50000 -0.20000
S 	S 	0.00000 0.50000 0.25000 0.57600
S 	S 	0.50000 -0.00000 0.25000 0.57600
S 	S 	-0.00000 0.50000 0.75000 0.57500
S 	S 	0.50000 -0.00000 0.75000 0.57500
