data_crystal

_cell_length_a 29.85370
_cell_length_b 29.85370
_cell_length_c 29.85370
_cell_angle_alpha 32.93650
_cell_angle_beta  32.93650
_cell_angle_gamma 32.93650

_symmetry_space_group_name_	'P 1'
_symmetry_space_group_name_H-M	'P 1'

loop_
_symmetry_equiv_pos_as_xyz
  x,y,z

loop_
_atom_site_label
_atom_site_type_symbol
_atom_site_fract_x
_atom_site_fract_y
_atom_site_fract_z
_atom_site_charge
Co	Co	0.34899 0.27999 0.54811 1.17900
Co	Co	0.25788 0.24804 0.56383 1.17900
O 	O 	0.29538 0.33638 0.48698 -0.61500
O 	O 	0.16764 0.25764 0.67774 -0.47100
O 	O 	0.24225 0.25235 0.68285 -0.50200
O 	O 	0.93084 0.25394 0.07544 -0.49900
O 	O 	0.07573 0.21553 0.99713 -0.47700
C 	C 	0.17671 0.25201 0.71651 0.44000
C 	C 	0.10043 0.24403 0.81133 -0.21600
C 	C 	0.02042 0.23712 0.95042 -0.22900
C 	C 	0.09351 0.24551 0.86201 0.15200
H 	H 	0.13760 0.25210 0.83710 -0.02700
C 	C 	0.01056 0.23566 0.00896 0.43500
C 	C 	0.03482 0.23312 0.85002 0.13400
H 	H 	0.03900 0.23220 0.81610 -0.00300
C 	C 	0.96390 0.22320 0.93800 -0.21600
H 	H 	0.92120 0.21390 0.96420 0.10300
C 	C 	0.95606 0.22736 0.98626 0.14700
H 	H 	0.90620 0.22370 0.04470 -0.02300
O 	O 	0.83918 0.46048 0.55988 -0.45800
O 	O 	0.87776 0.39446 0.64996 -0.47200
O 	O 	0.23394 0.42234 0.37834 -0.52500
O 	O 	0.17894 0.32084 0.52014 -0.47600
C 	C 	0.89265 0.43185 0.57215 0.39300
C 	C 	0.97685 0.44525 0.49045 -0.17500
C 	C 	0.11447 0.42807 0.42647 -0.18900
C 	C 	0.03920 0.41040 0.50180 0.11600
H 	H 	0.03060 0.37430 0.56120 0.01700
C 	C 	0.18082 0.38782 0.44252 0.44500
C 	C 	0.98920 0.49880 0.40250 0.09100
H 	H 	0.94730 0.52250 0.39430 0.01300
C 	C 	0.06502 0.51702 0.32622 -0.16100
H 	H 	0.07410 0.55270 0.26670 0.08800
C 	C 	0.12673 0.48213 0.33873 0.10200
H 	H 	0.17670 0.49520 0.28760 -0.00400
Co	Co	0.54811 0.34899 0.27999 1.17800
Co	Co	0.56383 0.25788 0.24804 1.17800
O 	O 	0.48698 0.29538 0.33638 -0.61600
O 	O 	0.67774 0.16764 0.25764 -0.47200
O 	O 	0.68285 0.24225 0.25235 -0.50300
O 	O 	0.07544 0.93084 0.25394 -0.50000
O 	O 	0.99713 0.07573 0.21553 -0.47800
C 	C 	0.71651 0.17671 0.25201 0.43900
C 	C 	0.81133 0.10043 0.24403 -0.21600
C 	C 	0.95042 0.02042 0.23712 -0.22900
C 	C 	0.86201 0.09351 0.24551 0.15200
H 	H 	0.83710 0.13760 0.25210 -0.02700
C 	C 	0.00896 0.01056 0.23566 0.43500
C 	C 	0.85002 0.03482 0.23312 0.13400
H 	H 	0.81610 0.03900 0.23220 -0.00300
C 	C 	0.93800 0.96390 0.22320 -0.21600
H 	H 	0.96420 0.92120 0.21390 0.10300
C 	C 	0.98626 0.95606 0.22736 0.14700
H 	H 	0.04470 0.90620 0.22370 -0.02300
O 	O 	0.55988 0.83918 0.46048 -0.45800
O 	O 	0.64996 0.87776 0.39446 -0.47200
O 	O 	0.37834 0.23394 0.42234 -0.52500
O 	O 	0.52014 0.17894 0.32084 -0.47600
C 	C 	0.57215 0.89265 0.43185 0.39300
C 	C 	0.49045 0.97685 0.44525 -0.17500
C 	C 	0.42647 0.11447 0.42807 -0.18900
C 	C 	0.50180 0.03920 0.41040 0.11600
H 	H 	0.56120 0.03060 0.37430 0.01700
C 	C 	0.44252 0.18082 0.38782 0.44500
C 	C 	0.40250 0.98920 0.49880 0.09100
H 	H 	0.39430 0.94730 0.52250 0.01300
C 	C 	0.32622 0.06502 0.51702 -0.16100
H 	H 	0.26670 0.07410 0.55270 0.08800
C 	C 	0.33873 0.12673 0.48213 0.10200
H 	H 	0.28760 0.17670 0.49520 -0.00400
Co	Co	0.27999 0.54811 0.34899 1.17800
Co	Co	0.24804 0.56383 0.25788 1.17800
O 	O 	0.33638 0.48698 0.29538 -0.61600
O 	O 	0.25764 0.67774 0.16764 -0.47200
O 	O 	0.25235 0.68285 0.24225 -0.50300
O 	O 	0.25394 0.07544 0.93084 -0.50000
O 	O 	0.21553 0.99713 0.07573 -0.47800
C 	C 	0.25201 0.71651 0.17671 0.43900
C 	C 	0.24403 0.81133 0.10043 -0.21600
C 	C 	0.23712 0.95042 0.02042 -0.22900
C 	C 	0.24551 0.86201 0.09351 0.15200
H 	H 	0.25210 0.83710 0.13760 -0.02700
C 	C 	0.23566 0.00896 0.01056 0.43500
C 	C 	0.23312 0.85002 0.03482 0.13400
H 	H 	0.23220 0.81610 0.03900 -0.00300
C 	C 	0.22320 0.93800 0.96390 -0.21600
H 	H 	0.21390 0.96420 0.92120 0.10300
C 	C 	0.22736 0.98626 0.95606 0.14700
H 	H 	0.22370 0.04470 0.90620 -0.02300
O 	O 	0.46048 0.55988 0.83918 -0.45800
O 	O 	0.39446 0.64996 0.87776 -0.47200
O 	O 	0.42234 0.37834 0.23394 -0.52500
O 	O 	0.32084 0.52014 0.17894 -0.47600
C 	C 	0.43185 0.57215 0.89265 0.39300
C 	C 	0.44525 0.49045 0.97685 -0.17500
C 	C 	0.42807 0.42647 0.11447 -0.18900
C 	C 	0.41040 0.50180 0.03920 0.11600
H 	H 	0.37430 0.56120 0.03060 0.01700
C 	C 	0.38782 0.44252 0.18082 0.44500
C 	C 	0.49880 0.40250 0.98920 0.09100
H 	H 	0.52250 0.39430 0.94730 0.01300
C 	C 	0.51702 0.32622 0.06502 -0.16100
H 	H 	0.55270 0.26670 0.07410 0.08800
C 	C 	0.48213 0.33873 0.12673 0.10200
H 	H 	0.49520 0.28760 0.17670 -0.00400
Co	Co	0.22001 0.15101 0.95189 1.17800
Co	Co	0.25196 0.24212 0.93617 1.17900
O 	O 	0.16362 0.20462 0.01302 -0.61700
O 	O 	0.24236 0.33236 0.82226 -0.47200
O 	O 	0.24765 0.25775 0.81715 -0.50300
O 	O 	0.24606 0.56916 0.42456 -0.50200
O 	O 	0.28447 0.42427 0.50287 -0.48100
C 	C 	0.24799 0.32329 0.78349 0.44000
C 	C 	0.25597 0.39957 0.68867 -0.21900
C 	C 	0.26288 0.47958 0.54958 -0.23500
C 	C 	0.25449 0.40649 0.63799 0.15500
H 	H 	0.24790 0.36240 0.66290 -0.02800
C 	C 	0.26434 0.48944 0.49104 0.44200
C 	C 	0.26688 0.46518 0.64998 0.13600
H 	H 	0.26780 0.46100 0.68390 -0.00400
C 	C 	0.27680 0.53610 0.56200 -0.21900
H 	H 	0.28610 0.57880 0.53580 0.10500
C 	C 	0.27264 0.54394 0.51374 0.15200
H 	H 	0.27630 0.59380 0.45530 -0.02500
O 	O 	0.03952 0.66082 0.94012 -0.45800
O 	O 	0.10554 0.62224 0.85004 -0.47100
O 	O 	0.07766 0.26606 0.12166 -0.52500
O 	O 	0.17916 0.32106 0.97986 -0.47500
C 	C 	0.06815 0.60735 0.92785 0.39400
C 	C 	0.05475 0.52315 0.00955 -0.17600
C 	C 	0.07193 0.38553 0.07353 -0.18900
C 	C 	0.08960 0.46080 0.99820 0.11800
H 	H 	0.12570 0.46940 0.93880 0.01700
C 	C 	0.11218 0.31918 0.05748 0.44400
C 	C 	0.00120 0.51080 0.09750 0.08800
H 	H 	0.97750 0.55270 0.10570 0.01500
C 	C 	0.98298 0.43498 0.17378 -0.15700
H 	H 	0.94730 0.42590 0.23330 0.08700
C 	C 	0.01787 0.37327 0.16127 0.09900
H 	H 	0.00480 0.32330 0.21240 -0.00400
Co	Co	0.15101 0.95189 0.22001 1.17800
Co	Co	0.24212 0.93617 0.25196 1.17900
O 	O 	0.20462 0.01302 0.16362 -0.61700
O 	O 	0.33236 0.82226 0.24236 -0.47200
O 	O 	0.25775 0.81715 0.24765 -0.50300
O 	O 	0.56916 0.42456 0.24606 -0.50200
O 	O 	0.42427 0.50287 0.28447 -0.48100
C 	C 	0.32329 0.78349 0.24799 0.44000
C 	C 	0.39957 0.68867 0.25597 -0.21900
C 	C 	0.47958 0.54958 0.26288 -0.23500
C 	C 	0.40649 0.63799 0.25449 0.15500
H 	H 	0.36240 0.66290 0.24790 -0.02800
C 	C 	0.48944 0.49104 0.26434 0.44200
C 	C 	0.46518 0.64998 0.26688 0.13600
H 	H 	0.46100 0.68390 0.26780 -0.00400
C 	C 	0.53610 0.56200 0.27680 -0.21900
H 	H 	0.57880 0.53580 0.28610 0.10500
C 	C 	0.54394 0.51374 0.27264 0.15200
H 	H 	0.59380 0.45530 0.27630 -0.02500
O 	O 	0.66082 0.94012 0.03952 -0.45800
O 	O 	0.62224 0.85004 0.10554 -0.47100
O 	O 	0.26606 0.12166 0.07766 -0.52500
O 	O 	0.32106 0.97986 0.17916 -0.47500
C 	C 	0.60735 0.92785 0.06815 0.39400
C 	C 	0.52315 0.00955 0.05475 -0.17600
C 	C 	0.38553 0.07353 0.07193 -0.18900
C 	C 	0.46080 0.99820 0.08960 0.11800
H 	H 	0.46940 0.93880 0.12570 0.01700
C 	C 	0.31918 0.05748 0.11218 0.44400
C 	C 	0.51080 0.09750 0.00120 0.08800
H 	H 	0.55270 0.10570 0.97750 0.01500
C 	C 	0.43498 0.17378 0.98298 -0.15700
H 	H 	0.42590 0.23330 0.94730 0.08700
C 	C 	0.37327 0.16127 0.01787 0.09900
H 	H 	0.32330 0.21240 0.00480 -0.00400
Co	Co	0.95189 0.22001 0.15101 1.17800
Co	Co	0.93617 0.25196 0.24212 1.17900
O 	O 	0.01302 0.16362 0.20462 -0.61700
O 	O 	0.82226 0.24236 0.33236 -0.47200
O 	O 	0.81715 0.24765 0.25775 -0.50300
O 	O 	0.42456 0.24606 0.56916 -0.50200
O 	O 	0.50287 0.28447 0.42427 -0.48100
C 	C 	0.78349 0.24799 0.32329 0.44000
C 	C 	0.68867 0.25597 0.39957 -0.21900
C 	C 	0.54958 0.26288 0.47958 -0.23500
C 	C 	0.63799 0.25449 0.40649 0.15500
H 	H 	0.66290 0.24790 0.36240 -0.02800
C 	C 	0.49104 0.26434 0.48944 0.44200
C 	C 	0.64998 0.26688 0.46518 0.13600
H 	H 	0.68390 0.26780 0.46100 -0.00400
C 	C 	0.56200 0.27680 0.53610 -0.21900
H 	H 	0.53580 0.28610 0.57880 0.10500
C 	C 	0.51374 0.27264 0.54394 0.15200
H 	H 	0.45530 0.27630 0.59380 -0.02500
O 	O 	0.94012 0.03952 0.66082 -0.45800
O 	O 	0.85004 0.10554 0.62224 -0.47100
O 	O 	0.12166 0.07766 0.26606 -0.52500
O 	O 	0.97986 0.17916 0.32106 -0.47500
C 	C 	0.92785 0.06815 0.60735 0.39400
C 	C 	0.00955 0.05475 0.52315 -0.17600
C 	C 	0.07353 0.07193 0.38553 -0.18900
C 	C 	0.99820 0.08960 0.46080 0.11800
H 	H 	0.93880 0.12570 0.46940 0.01700
C 	C 	0.05748 0.11218 0.31918 0.44400
C 	C 	0.09750 0.00120 0.51080 0.08800
H 	H 	0.10570 0.97750 0.55270 0.01500
C 	C 	0.17378 0.98298 0.43498 -0.15700
H 	H 	0.23330 0.94730 0.42590 0.08700
C 	C 	0.16127 0.01787 0.37327 0.09900
H 	H 	0.21240 0.00480 0.32330 -0.00400
Co	Co	0.65101 0.72001 0.45189 1.17800
Co	Co	0.74212 0.75196 0.43617 1.17800
O 	O 	0.70462 0.66362 0.51302 -0.61600
O 	O 	0.83236 0.74236 0.32226 -0.47200
O 	O 	0.75775 0.74765 0.31715 -0.50300
O 	O 	0.06916 0.74606 0.92456 -0.50000
O 	O 	0.92427 0.78447 0.00287 -0.47800
C 	C 	0.82329 0.74799 0.28349 0.43900
C 	C 	0.89957 0.75597 0.18867 -0.21600
C 	C 	0.97958 0.76288 0.04958 -0.22900
C 	C 	0.90649 0.75449 0.13799 0.15200
H 	H 	0.86240 0.74790 0.16290 -0.02700
C 	C 	0.98944 0.76434 0.99104 0.43500
C 	C 	0.96518 0.76688 0.14998 0.13400
H 	H 	0.96100 0.76780 0.18390 -0.00300
C 	C 	0.03610 0.77680 0.06200 -0.21600
H 	H 	0.07880 0.78610 0.03580 0.10300
C 	C 	0.04394 0.77264 0.01374 0.14700
H 	H 	0.09380 0.77630 0.95530 -0.02300
O 	O 	0.16082 0.53952 0.44012 -0.45800
O 	O 	0.12224 0.60554 0.35004 -0.47200
O 	O 	0.76606 0.57766 0.62166 -0.52500
O 	O 	0.82106 0.67916 0.47986 -0.47600
C 	C 	0.10735 0.56815 0.42785 0.39300
C 	C 	0.02315 0.55475 0.50955 -0.17500
C 	C 	0.88553 0.57193 0.57353 -0.18900
C 	C 	0.96080 0.58960 0.49820 0.11600
H 	H 	0.96940 0.62570 0.43880 0.01700
C 	C 	0.81918 0.61218 0.55748 0.44500
C 	C 	0.01080 0.50120 0.59750 0.09100
H 	H 	0.05270 0.47750 0.60570 0.01300
C 	C 	0.93498 0.48298 0.67378 -0.16100
H 	H 	0.92590 0.44730 0.73330 0.08800
C 	C 	0.87327 0.51787 0.66127 0.10200
H 	H 	0.82330 0.50480 0.71240 -0.00400
Co	Co	0.45189 0.65101 0.72001 1.17800
Co	Co	0.43617 0.74212 0.75196 1.17800
O 	O 	0.51302 0.70462 0.66362 -0.61600
O 	O 	0.32226 0.83236 0.74236 -0.47200
O 	O 	0.31715 0.75775 0.74765 -0.50300
O 	O 	0.92456 0.06916 0.74606 -0.50000
O 	O 	0.00287 0.92427 0.78447 -0.47800
C 	C 	0.28349 0.82329 0.74799 0.43900
C 	C 	0.18867 0.89957 0.75597 -0.21600
C 	C 	0.04958 0.97958 0.76288 -0.22900
C 	C 	0.13799 0.90649 0.75449 0.15200
H 	H 	0.16290 0.86240 0.74790 -0.02700
C 	C 	0.99104 0.98944 0.76434 0.43500
C 	C 	0.14998 0.96518 0.76688 0.13400
H 	H 	0.18390 0.96100 0.76780 -0.00300
C 	C 	0.06200 0.03610 0.77680 -0.21600
H 	H 	0.03580 0.07880 0.78610 0.10300
C 	C 	0.01374 0.04394 0.77264 0.14700
H 	H 	0.95530 0.09380 0.77630 -0.02300
O 	O 	0.44012 0.16082 0.53952 -0.45800
O 	O 	0.35004 0.12224 0.60554 -0.47200
O 	O 	0.62166 0.76606 0.57766 -0.52500
O 	O 	0.47986 0.82106 0.67916 -0.47600
C 	C 	0.42785 0.10735 0.56815 0.39300
C 	C 	0.50955 0.02315 0.55475 -0.17500
C 	C 	0.57353 0.88553 0.57193 -0.18900
C 	C 	0.49820 0.96080 0.58960 0.11600
H 	H 	0.43880 0.96940 0.62570 0.01700
C 	C 	0.55748 0.81918 0.61218 0.44500
C 	C 	0.59750 0.01080 0.50120 0.09100
H 	H 	0.60570 0.05270 0.47750 0.01300
C 	C 	0.67378 0.93498 0.48298 -0.16100
H 	H 	0.73330 0.92590 0.44730 0.08800
C 	C 	0.66127 0.87327 0.51787 0.10200
H 	H 	0.71240 0.82330 0.50480 -0.00400
Co	Co	0.72001 0.45189 0.65101 1.17800
Co	Co	0.75196 0.43617 0.74212 1.17800
O 	O 	0.66362 0.51302 0.70462 -0.61600
O 	O 	0.74236 0.32226 0.83236 -0.47200
O 	O 	0.74765 0.31715 0.75775 -0.50300
O 	O 	0.74606 0.92456 0.06916 -0.50000
O 	O 	0.78447 0.00287 0.92427 -0.47800
C 	C 	0.74799 0.28349 0.82329 0.43900
C 	C 	0.75597 0.18867 0.89957 -0.21600
C 	C 	0.76288 0.04958 0.97958 -0.22900
C 	C 	0.75449 0.13799 0.90649 0.15200
H 	H 	0.74790 0.16290 0.86240 -0.02700
C 	C 	0.76434 0.99104 0.98944 0.43500
C 	C 	0.76688 0.14998 0.96518 0.13400
H 	H 	0.76780 0.18390 0.96100 -0.00300
C 	C 	0.77680 0.06200 0.03610 -0.21600
H 	H 	0.78610 0.03580 0.07880 0.10300
C 	C 	0.77264 0.01374 0.04394 0.14700
H 	H 	0.77630 0.95530 0.09380 -0.02300
O 	O 	0.53952 0.44012 0.16082 -0.45800
O 	O 	0.60554 0.35004 0.12224 -0.47200
O 	O 	0.57766 0.62166 0.76606 -0.52500
O 	O 	0.67916 0.47986 0.82106 -0.47600
C 	C 	0.56815 0.42785 0.10735 0.39300
C 	C 	0.55475 0.50955 0.02315 -0.17500
C 	C 	0.57193 0.57353 0.88553 -0.18900
C 	C 	0.58960 0.49820 0.96080 0.11600
H 	H 	0.62570 0.43880 0.96940 0.01700
C 	C 	0.61218 0.55748 0.81918 0.44500
C 	C 	0.50120 0.59750 0.01080 0.09100
H 	H 	0.47750 0.60570 0.05270 0.01300
C 	C 	0.48298 0.67378 0.93498 -0.16100
H 	H 	0.44730 0.73330 0.92590 0.08800
C 	C 	0.51787 0.66127 0.87327 0.10200
H 	H 	0.50480 0.71240 0.82330 -0.00400
Co	Co	0.77999 0.84899 0.04811 1.17800
Co	Co	0.74804 0.75788 0.06383 1.17900
O 	O 	0.83638 0.79538 0.98698 -0.61700
O 	O 	0.75764 0.66764 0.17774 -0.47200
O 	O 	0.75235 0.74225 0.18285 -0.50300
O 	O 	0.75394 0.43084 0.57544 -0.50200
O 	O 	0.71553 0.57573 0.49713 -0.48100
C 	C 	0.75201 0.67671 0.21651 0.44000
C 	C 	0.74403 0.60043 0.31133 -0.21900
C 	C 	0.73712 0.52042 0.45042 -0.23500
C 	C 	0.74551 0.59351 0.36201 0.15500
H 	H 	0.75210 0.63760 0.33710 -0.02800
C 	C 	0.73566 0.51056 0.50896 0.44200
C 	C 	0.73312 0.53482 0.35002 0.13600
H 	H 	0.73220 0.53900 0.31610 -0.00400
C 	C 	0.72320 0.46390 0.43800 -0.21900
H 	H 	0.71390 0.42120 0.46420 0.10500
C 	C 	0.72736 0.45606 0.48626 0.15200
H 	H 	0.72370 0.40620 0.54470 -0.02500
O 	O 	0.96048 0.33918 0.05988 -0.45800
O 	O 	0.89446 0.37776 0.14996 -0.47100
O 	O 	0.92234 0.73394 0.87834 -0.52500
O 	O 	0.82084 0.67894 0.02014 -0.47500
C 	C 	0.93185 0.39265 0.07215 0.39400
C 	C 	0.94525 0.47685 0.99045 -0.17600
C 	C 	0.92807 0.61447 0.92647 -0.18900
C 	C 	0.91040 0.53920 0.00180 0.11800
H 	H 	0.87430 0.53060 0.06120 0.01700
C 	C 	0.88782 0.68082 0.94252 0.44400
C 	C 	0.99880 0.48920 0.90250 0.08800
H 	H 	0.02250 0.44730 0.89430 0.01500
C 	C 	0.01702 0.56502 0.82622 -0.15700
H 	H 	0.05270 0.57410 0.76670 0.08700
C 	C 	0.98213 0.62673 0.83873 0.09900
H 	H 	0.99520 0.67670 0.78760 -0.00400
Co	Co	0.84899 0.04811 0.77999 1.17800
Co	Co	0.75788 0.06383 0.74804 1.17900
O 	O 	0.79538 0.98698 0.83638 -0.61700
O 	O 	0.66764 0.17774 0.75764 -0.47200
O 	O 	0.74225 0.18285 0.75235 -0.50300
O 	O 	0.43084 0.57544 0.75394 -0.50200
O 	O 	0.57573 0.49713 0.71553 -0.48100
C 	C 	0.67671 0.21651 0.75201 0.44000
C 	C 	0.60043 0.31133 0.74403 -0.21900
C 	C 	0.52042 0.45042 0.73712 -0.23500
C 	C 	0.59351 0.36201 0.74551 0.15500
H 	H 	0.63760 0.33710 0.75210 -0.02800
C 	C 	0.51056 0.50896 0.73566 0.44200
C 	C 	0.53482 0.35002 0.73312 0.13600
H 	H 	0.53900 0.31610 0.73220 -0.00400
C 	C 	0.46390 0.43800 0.72320 -0.21900
H 	H 	0.42120 0.46420 0.71390 0.10500
C 	C 	0.45606 0.48626 0.72736 0.15200
H 	H 	0.40620 0.54470 0.72370 -0.02500
O 	O 	0.33918 0.05988 0.96048 -0.45800
O 	O 	0.37776 0.14996 0.89446 -0.47100
O 	O 	0.73394 0.87834 0.92234 -0.52500
O 	O 	0.67894 0.02014 0.82084 -0.47500
C 	C 	0.39265 0.07215 0.93185 0.39400
C 	C 	0.47685 0.99045 0.94525 -0.17600
C 	C 	0.61447 0.92647 0.92807 -0.18900
C 	C 	0.53920 0.00180 0.91040 0.11800
H 	H 	0.53060 0.06120 0.87430 0.01700
C 	C 	0.68082 0.94252 0.88782 0.44400
C 	C 	0.48920 0.90250 0.99880 0.08800
H 	H 	0.44730 0.89430 0.02250 0.01500
C 	C 	0.56502 0.82622 0.01702 -0.15700
H 	H 	0.57410 0.76670 0.05270 0.08700
C 	C 	0.62673 0.83873 0.98213 0.09900
H 	H 	0.67670 0.78760 0.99520 -0.00400
Co	Co	0.04811 0.77999 0.84899 1.17800
Co	Co	0.06383 0.74804 0.75788 1.17900
O 	O 	0.98698 0.83638 0.79538 -0.61700
O 	O 	0.17774 0.75764 0.66764 -0.47200
O 	O 	0.18285 0.75235 0.74225 -0.50300
O 	O 	0.57544 0.75394 0.43084 -0.50200
O 	O 	0.49713 0.71553 0.57573 -0.48100
C 	C 	0.21651 0.75201 0.67671 0.44000
C 	C 	0.31133 0.74403 0.60043 -0.21900
C 	C 	0.45042 0.73712 0.52042 -0.23500
C 	C 	0.36201 0.74551 0.59351 0.15500
H 	H 	0.33710 0.75210 0.63760 -0.02800
C 	C 	0.50896 0.73566 0.51056 0.44200
C 	C 	0.35002 0.73312 0.53482 0.13600
H 	H 	0.31610 0.73220 0.53900 -0.00400
C 	C 	0.43800 0.72320 0.46390 -0.21900
H 	H 	0.46420 0.71390 0.42120 0.10500
C 	C 	0.48626 0.72736 0.45606 0.15200
H 	H 	0.54470 0.72370 0.40620 -0.02500
O 	O 	0.05988 0.96048 0.33918 -0.45800
O 	O 	0.14996 0.89446 0.37776 -0.47100
O 	O 	0.87834 0.92234 0.73394 -0.52500
O 	O 	0.02014 0.82084 0.67894 -0.47500
C 	C 	0.07215 0.93185 0.39265 0.39400
C 	C 	0.99045 0.94525 0.47685 -0.17600
C 	C 	0.92647 0.92807 0.61447 -0.18900
C 	C 	0.00180 0.91040 0.53920 0.11800
H 	H 	0.06120 0.87430 0.53060 0.01700
C 	C 	0.94252 0.88782 0.68082 0.44400
C 	C 	0.90250 0.99880 0.48920 0.08800
H 	H 	0.89430 0.02250 0.44730 0.01500
C 	C 	0.82622 0.01702 0.56502 -0.15700
H 	H 	0.76670 0.05270 0.57410 0.08700
C 	C 	0.83873 0.98213 0.62673 0.09900
H 	H 	0.78760 0.99520 0.67670 -0.00400
Co	Co	0.35957 0.35957 0.35957 1.16800
Co	Co	0.14043 0.14043 0.14043 1.16800
Co	Co	0.64043 0.64043 0.64043 1.16800
Co	Co	0.85957 0.85957 0.85957 1.16800
K 	K 	0.34953 0.15047 0.75000 0.64300
K 	K 	0.75000 0.34953 0.15047 0.64300
K 	K 	0.15047 0.75000 0.34953 0.64300
K 	K 	0.65047 0.84953 0.25000 0.64300
K 	K 	0.25000 0.65047 0.84953 0.64300
K 	K 	0.84953 0.25000 0.65047 0.64300
