data_crystal

_cell_length_a 16.20990
_cell_length_b 17.20610
_cell_length_c 34.91230
_cell_angle_alpha 94.60400
_cell_angle_beta  90.00000
_cell_angle_gamma 90.00000

_symmetry_space_group_name_	'P 1'
_symmetry_space_group_name_H-M	'P 1'

loop_
_symmetry_equiv_pos_as_xyz
  x,y,z

loop_
_atom_site_label
_atom_site_type_symbol
_atom_site_fract_x
_atom_site_fract_y
_atom_site_fract_z
_atom_site_charge
Co	Co	0.21872 0.11369 0.01183 1.17400
Co	Co	0.71872 0.38631 0.48817 1.17400
Co	Co	0.52725 0.95200 0.66375 1.13900
Co	Co	0.02725 0.54800 0.83625 1.13900
Co	Co	0.43089 0.41488 0.14667 1.15800
Co	Co	0.78128 0.88631 0.98817 1.17400
Co	Co	0.76384 0.60983 0.48892 1.16800
Co	Co	0.75574 0.72033 0.20507 1.11000
Co	Co	0.74426 0.22033 0.70507 1.11000
Co	Co	0.26384 0.89017 0.01108 1.16800
Co	Co	0.56911 0.58512 0.85333 1.15800
Co	Co	0.73616 0.10983 0.98892 1.16800
Co	Co	0.24426 0.27967 0.79493 1.11000
Co	Co	0.25574 0.77967 0.29493 1.11000
Co	Co	0.23616 0.39017 0.51108 1.16800
Co	Co	0.97275 0.45200 0.16375 1.13900
Co	Co	0.06911 0.91488 0.64667 1.15600
Co	Co	0.28128 0.61369 0.51183 1.17400
Co	Co	0.47275 0.04800 0.33625 1.13900
Co	Co	0.93089 0.08512 0.35333 1.15600
H 	H 	0.11950 0.93720 0.25410 0.02100
H 	H 	0.10180 0.79710 0.40920 0.06300
H 	H 	0.46230 0.12620 0.99750 0.15700
H 	H 	0.54560 0.13980 0.19670 0.14000
H 	H 	0.97950 0.26790 0.17720 -0.00600
H 	H 	0.01860 0.18200 0.47200 0.07200
H 	H 	0.98140 0.81800 0.52800 0.07200
H 	H 	0.00520 0.99560 0.95910 0.20700
H 	H 	0.93440 0.58890 0.38880 0.08000
H 	H 	0.95970 0.08570 0.05650 0.20400
H 	H 	0.62530 0.08580 0.08920 0.16100
H 	H 	0.77250 0.36000 0.62760 0.03300
H 	H 	0.13980 0.57360 0.33310 0.14200
H 	H 	0.82450 0.48570 0.25350 0.18400
H 	H 	0.17070 0.61860 0.63210 0.08500
H 	H 	0.88050 0.06280 0.74590 0.02100
H 	H 	0.35030 0.41880 0.38980 0.08700
H 	H 	0.75340 0.19480 0.91000 0.02300
H 	H 	0.32930 0.11860 0.13210 0.08500
H 	H 	0.57680 0.81390 0.05910 0.07100
H 	H 	0.65420 0.49780 0.92500 -0.00200
H 	H 	0.45410 0.66950 0.71550 0.14300
H 	H 	0.87330 0.75960 0.13380 0.03200
H 	H 	0.96230 0.37380 0.50250 0.16000
H 	H 	0.20040 0.15130 0.25790 0.06700
H 	H 	0.29960 0.65130 0.75790 0.06700
H 	H 	0.36280 0.60530 0.61040 0.16400
H 	H 	0.33350 0.28120 0.09090 0.03000
H 	H 	0.95770 0.46590 0.97430 0.08200
H 	H 	0.13910 0.04090 0.78180 0.16300
H 	H 	0.04560 0.36020 0.30330 0.14100
H 	H 	0.19000 0.24700 0.11960 0.03400
H 	H 	0.15600 0.51040 0.45500 -0.00300
H 	H 	0.62000 0.55570 0.08410 0.18300
H 	H 	0.53280 0.76590 0.83350 -0.00100
H 	H 	0.49480 0.49560 0.45910 0.20700
H 	H 	0.32470 0.29830 0.43880 0.02600
H 	H 	0.62670 0.25960 0.63380 0.03200
H 	H 	0.11370 0.94840 0.18870 0.15600
H 	H 	0.22390 0.06420 0.52850 0.13300
H 	H 	0.53770 0.87380 0.00250 0.15700
H 	H 	0.04590 0.16950 0.21550 0.14600
H 	H 	0.95410 0.83050 0.78450 0.14600
H 	H 	0.34590 0.50520 0.56720 -0.02600
H 	H 	0.29270 0.30560 0.33310 0.06600
H 	H 	0.72750 0.86000 0.12760 0.03300
H 	H 	0.79270 0.19440 0.16690 0.06500
H 	H 	0.12000 0.94430 0.41590 0.17900
H 	H 	0.22230 0.91730 0.36720 -0.02500
H 	H 	0.46720 0.23410 0.16650 -0.00100
H 	H 	0.27250 0.14000 0.87240 0.03300
H 	H 	0.21890 0.19570 0.52090 -0.00800
H 	H 	0.95440 0.63980 0.69670 0.14100
H 	H 	0.00680 0.76690 0.95010 0.16500
H 	H 	0.20010 0.87070 0.15070 0.04900
H 	H 	0.52410 0.35900 0.64230 0.06600
H 	H 	0.87470 0.58580 0.58920 0.16100
H 	H 	0.84400 0.48960 0.54500 -0.00300
H 	H 	0.16650 0.78120 0.59090 0.03000
H 	H 	0.75480 0.65000 0.02380 0.14300
H 	H 	0.39820 0.29710 0.90920 0.06600
H 	H 	0.86020 0.42640 0.66690 0.14200
H 	H 	0.98490 0.58930 0.97490 0.06200
H 	H 	0.83210 0.33890 0.07910 0.04100
H 	H 	0.14260 0.38170 0.12040 0.03600
H 	H 	0.01510 0.41070 0.02510 0.06200
H 	H 	0.23860 0.79860 0.53130 0.02800
H 	H 	0.04030 0.91430 0.94350 0.20400
H 	H 	0.32780 0.46410 0.33150 0.05700
H 	H 	0.76140 0.20140 0.46870 0.02800
H 	H 	0.26040 0.68070 0.85480 0.16800
H 	H 	0.25480 0.85000 0.47620 0.14100
H 	H 	0.47590 0.64100 0.35770 0.06600
H 	H 	0.80140 0.46190 0.08150 0.15000
H 	H 	0.19000 0.59320 0.69530 0.07800
H 	H 	0.07920 0.15000 0.40930 0.02800
H 	H 	0.31000 0.09320 0.19530 0.07700
H 	H 	0.42080 0.65000 0.90930 0.02800
H 	H 	0.61370 0.55160 0.31130 0.15100
H 	H 	0.97590 0.85900 0.14230 0.06600
H 	H 	0.26810 0.94240 0.73280 0.18000
H 	H 	0.67070 0.88140 0.86790 0.08500
H 	H 	0.05760 0.09000 0.78600 0.17000
H 	H 	0.15940 0.62150 0.09850 0.18200
H 	H 	0.85920 0.40230 0.72820 0.01600
H 	H 	0.85930 0.45980 0.92340 0.18700
H 	H 	0.28500 0.69440 0.43350 0.03300
H 	H 	0.88380 0.68990 0.07080 0.04200
H 	H 	0.82930 0.38140 0.36790 0.08500
H 	H 	0.31000 0.74700 0.61960 0.03500
H 	H 	0.67220 0.53590 0.66850 0.05700
H 	H 	0.52050 0.76790 0.67720 -0.00300
H 	H 	0.73860 0.70140 0.96870 0.02700
H 	H 	0.69000 0.25300 0.38040 0.03500
H 	H 	0.79960 0.84870 0.74210 0.06700
H 	H 	0.60180 0.70290 0.09080 0.06600
H 	H 	0.64260 0.11830 0.37960 0.03500
H 	H 	0.73190 0.05760 0.26720 0.18000
H 	H 	0.03280 0.73410 0.66650 -0.00400
H 	H 	0.19860 0.53810 0.91850 0.15000
H 	H 	0.02050 0.73210 0.82280 -0.00600
H 	H 	0.02410 0.14100 0.85770 0.06600
H 	H 	0.78500 0.80560 0.06650 0.03300
H 	H 	0.64970 0.58120 0.61020 0.08700
H 	H 	0.41440 0.88670 0.17400 0.07100
H 	H 	0.20730 0.80560 0.83310 0.06500
H 	H 	0.14070 0.54020 0.07660 0.18700
H 	H 	0.84580 0.99780 0.42500 0.00200
H 	H 	0.94040 0.04930 0.68140 0.01500
H 	H 	0.77610 0.93580 0.47150 0.13300
H 	H 	0.96720 0.26590 0.33350 -0.00400
H 	H 	0.14970 0.91880 0.88980 0.08900
H 	H 	0.54030 0.58570 0.55650 0.20300
H 	H 	0.17220 0.96410 0.83150 0.05700
H 	H 	0.45440 0.86020 0.80330 0.14000
H 	H 	0.56640 0.50850 0.05310 0.18400
H 	H 	0.12530 0.41420 0.41080 0.16100
H 	H 	0.44680 0.80350 0.55790 0.17000
H 	H 	0.64470 0.22330 0.08860 0.03400
H 	H 	0.15410 0.00520 0.06720 -0.02300
H 	H 	0.05200 0.57620 0.57410 0.18800
H 	H 	0.78640 0.10350 0.20990 0.07100
H 	H 	0.40060 0.95870 0.24300 0.17700
H 	H 	0.47710 0.37640 0.23480 -0.00800
H 	H 	0.04230 0.53410 0.02570 0.08200
H 	H 	0.19390 0.24280 0.21450 0.08400
H 	H 	0.24660 0.80520 0.09000 0.02300
H 	H 	0.71890 0.30430 0.97910 -0.00900
H 	H 	0.28640 0.39650 0.29010 0.07200
H 	H 	0.14470 0.27670 0.41140 0.03400
H 	H 	0.81000 0.40680 0.30470 0.07800
H 	H 	0.47950 0.23210 0.32280 -0.00300
H 	H 	0.52290 0.62360 0.76520 -0.00800
H 	H 	0.35740 0.88170 0.62040 0.03500
H 	H 	0.35930 0.04020 0.57660 0.18800
H 	H 	0.81210 0.61670 0.79680 0.17600
H 	H 	0.03770 0.62620 0.49750 0.16000
H 	H 	0.44240 0.59000 0.28600 0.16900
H 	H 	0.22750 0.64000 0.37240 0.03300
H 	H 	0.82780 0.03590 0.16850 0.05700
H 	H 	0.91440 0.61330 0.32600 0.07200
H 	H 	0.74660 0.69480 0.41000 0.02300
H 	H 	0.93360 0.00850 0.55310 0.18000
H 	H 	0.63980 0.92640 0.16690 0.14200
H 	H 	0.23190 0.44240 0.23280 0.18100
H 	H 	0.43060 0.98900 0.06030 0.18500
H 	H 	0.01140 0.40380 0.24800 -0.00800
H 	H 	0.65940 0.87850 0.40150 0.18400
H 	H 	0.17530 0.79830 0.93880 0.02600
H 	H 	0.32450 0.01430 0.24650 0.18600
H 	H 	0.98860 0.59620 0.75200 -0.00800
H 	H 	0.08560 0.38670 0.67400 0.07200
H 	H 	0.12670 0.24040 0.86620 0.03200
H 	H 	0.40990 0.23900 0.57640 0.08400
H 	H 	0.36020 0.07360 0.83310 0.14200
H 	H 	0.44800 0.07620 0.07410 0.18800
H 	H 	0.23960 0.18070 0.35480 0.16900
H 	H 	0.25340 0.30520 0.59000 0.02300
H 	H 	0.69860 0.96190 0.58150 0.14900
H 	H 	0.86090 0.95910 0.21820 0.16300
H 	H 	0.70730 0.69440 0.66690 0.06600
H 	H 	0.69000 0.90680 0.80470 0.07700
H 	H 	0.51140 0.09620 0.25200 -0.00900
H 	H 	0.11620 0.31010 0.92920 0.04200
H 	H 	0.54590 0.33050 0.28450 0.14300
H 	H 	0.65600 0.98960 0.04500 -0.00300
H 	H 	0.81000 0.75300 0.88040 0.03400
H 	H 	0.42320 0.18610 0.94090 0.07100
H 	H 	0.18790 0.38330 0.20320 0.17600
H 	H 	0.00310 0.92680 0.49560 0.06200
H 	H 	0.99480 0.00440 0.04090 0.20700
H 	H 	0.02290 0.87640 0.73480 -0.01400
H 	H 	0.28110 0.69570 0.02090 -0.00900
H 	H 	0.59940 0.04130 0.75700 0.17700
H 	H 	0.40430 0.09130 0.70490 0.03000
H 	H 	0.94800 0.42380 0.42590 0.18800
H 	H 	0.06640 0.99150 0.44690 0.18000
H 	H 	0.30610 0.74280 0.71450 0.08400
H 	H 	0.90430 0.40870 0.79510 0.03000
H 	H 	0.24520 0.35000 0.97620 0.14300
H 	H 	0.88000 0.05570 0.58410 0.17900
H 	H 	0.33210 0.16110 0.42090 0.04100
H 	H 	0.38380 0.81010 0.42920 0.04200
H 	H 	0.74520 0.15000 0.52380 0.14100
H 	H 	0.98930 0.32140 0.46580 0.16900
H 	H 	0.51070 0.82140 0.96580 0.16700
H 	H 	0.47270 0.29740 0.52710 0.05700
H 	H 	0.27770 0.41730 0.86720 -0.02500
H 	H 	0.17550 0.51430 0.74650 0.18400
H 	H 	0.71330 0.38320 0.17730 0.16300
H 	H 	0.85030 0.08120 0.11020 0.08900
H 	H 	0.45970 0.41430 0.44350 0.20300
H 	H 	0.85740 0.61830 0.87960 0.03600
H 	H 	0.35530 0.77670 0.91140 0.03400
H 	H 	0.56940 0.01100 0.93970 0.18500
H 	H 	0.37470 0.91420 0.91080 0.16100
H 	H 	0.21330 0.11680 0.32270 0.16300
H 	H 	0.86280 0.89470 0.88960 0.16700
H 	H 	0.43440 0.91110 0.11120 0.08100
H 	H 	0.54230 0.96590 0.47430 0.08600
H 	H 	0.21500 0.19440 0.93350 0.03300
H 	H 	0.16790 0.66110 0.92090 0.04100
H 	H 	0.94680 0.69650 0.94210 0.17100
H 	H 	0.72230 0.58270 0.13280 -0.02500
H 	H 	0.61620 0.18990 0.57080 0.04200
H 	H 	0.13720 0.10530 0.11040 0.16700
H 	H 	0.05320 0.30350 0.05790 0.17100
H 	H 	0.34580 0.50220 0.07500 -0.00200
H 	H 	0.84590 0.99480 0.93280 -0.02300
H 	H 	0.70010 0.62930 0.34930 0.05000
H 	H 	0.82470 0.20170 0.06120 0.02600
H 	H 	0.26140 0.29860 0.03130 0.02700
H 	H 	0.56560 0.08890 0.88880 0.08100
H 	H 	0.50680 0.73310 0.54990 0.16700
H 	H 	0.30140 0.03810 0.41850 0.14900
H 	H 	0.67530 0.70170 0.56120 0.02600
H 	H 	0.21360 0.89650 0.79010 0.07100
H 	H 	0.49670 0.59930 0.41760 0.08100
H 	H 	0.55960 0.54930 0.18140 0.01400
H 	H 	0.55200 0.92380 0.92590 0.18800
H 	H 	0.28670 0.61680 0.82270 0.16300
H 	H 	0.06940 0.48900 0.56030 0.18600
H 	H 	0.48490 0.91070 0.52510 0.05800
H 	H 	0.69390 0.25720 0.28550 0.08400
H 	H 	0.68790 0.11670 0.29680 0.17500
H 	H 	0.06560 0.41110 0.61120 0.08000
H 	H 	0.59570 0.90870 0.29510 0.03000
H 	H 	0.48930 0.17860 0.03420 0.16700
H 	H 	0.97710 0.12360 0.26520 -0.01400
H 	H 	0.35920 0.09770 0.77180 0.01600
H 	H 	0.27610 0.56420 0.02850 0.13500
H 	H 	0.38000 0.44430 0.91590 0.18300
H 	H 	0.63720 0.39470 0.38960 0.16400
H 	H 	0.14080 0.59770 0.27180 0.01600
H 	H 	0.61950 0.56280 0.24590 0.02200
H 	H 	0.90060 0.54130 0.25700 0.17600
H 	H 	0.76810 0.55760 0.76720 0.18100
H 	H 	0.29990 0.37070 0.65070 0.05000
H 	H 	0.09570 0.59130 0.20490 0.03000
H 	H 	0.36090 0.54090 0.28180 0.16200
H 	H 	0.99690 0.07320 0.50440 0.06200
H 	H 	0.37330 0.74040 0.36620 0.03200
H 	H 	0.80610 0.75720 0.78550 0.08400
H 	H 	0.66650 0.71880 0.90910 0.03000
H 	H 	0.71500 0.30560 0.56650 0.03300
H 	H 	0.43360 0.49150 0.94690 0.18400
H 	H 	0.84060 0.37850 0.90150 0.18200
H 	H 	0.63910 0.45910 0.71820 0.16200
H 	H 	0.48140 0.68200 0.97200 0.06500
H 	H 	0.02730 0.79740 0.02710 0.05900
H 	H 	0.38630 0.44840 0.68870 0.15100
H 	H 	0.77770 0.08270 0.63280 -0.02500
H 	H 	0.73960 0.31930 0.14520 0.16800
H 	H 	0.78670 0.88320 0.67730 0.16300
H 	H 	0.64070 0.95980 0.42340 0.18800
H 	H 	0.52730 0.70260 0.47290 0.05700
H 	H 	0.09940 0.45870 0.74300 0.17600
H 	H 	0.57920 0.35000 0.09070 0.02800
H 	H 	0.92320 0.31390 0.55910 0.07500
H 	H 	0.09010 0.73900 0.07640 0.08100
H 	H 	0.70040 0.34870 0.24210 0.06700
H 	H 	0.50310 0.57320 0.00440 0.06700
H 	H 	0.72390 0.43580 0.97150 0.13500
H 	H 	0.31210 0.88330 0.70320 0.17500
H 	H 	0.58560 0.11330 0.82600 0.07100
H 	H 	0.65410 0.49480 0.43280 -0.02600
H 	H 	0.93060 0.51100 0.43970 0.18600
H 	H 	0.51860 0.31800 0.02800 0.06500
H 	H 	0.45770 0.03410 0.52570 0.08600
H 	H 	0.51510 0.08930 0.47490 0.05800
H 	H 	0.55760 0.41000 0.71400 0.16900
H 	H 	0.66790 0.83890 0.57910 0.04100
H 	H 	0.83350 0.21880 0.40910 0.03000
H 	H 	0.97270 0.20260 0.97290 0.05900
H 	H 	0.67550 0.98570 0.75350 0.18600
H 	H 	0.92080 0.85000 0.59070 0.02800
H 	H 	0.38050 0.43720 0.75410 0.02200
H 	H 	0.01070 0.67860 0.53420 0.16900
H 	H 	0.78110 0.80430 0.47910 -0.00800
H 	H 	0.44040 0.45070 0.81860 0.01400
H 	H 	0.34060 0.12150 0.59850 0.18400
H 	H 	0.76040 0.81930 0.64520 0.16900
H 	H 	0.71360 0.60350 0.70990 0.07200
H 	H 	0.00330 0.09930 0.91760 0.08300
H 	H 	0.48860 0.90380 0.74800 -0.00900
H 	H 	0.50520 0.50440 0.54090 0.20700
H 	H 	0.79990 0.12930 0.84930 0.04900
H 	H 	0.88630 0.05160 0.81130 0.15600
H 	H 	0.59010 0.76100 0.42360 0.08400
H 	H 	0.15420 0.00220 0.57500 0.00200
H 	H 	0.89820 0.20290 0.59080 0.06300
H 	H 	0.55320 0.19650 0.44210 0.17000
H 	H 	0.49690 0.42680 0.99560 0.06700
H 	H 	0.05960 0.95070 0.31860 0.01500
H 	H 	0.94240 0.91000 0.21400 0.17000
H 	H 	0.99670 0.90070 0.08240 0.08300
H 	H 	0.49320 0.26690 0.45010 0.16700
H 	H 	0.07680 0.68610 0.44090 0.07500
H 	H 	0.90990 0.26100 0.92360 0.08100
H 	H 	0.85530 0.72330 0.58860 0.03400
H 	H 	0.64080 0.90230 0.22820 0.01600
H 	H 	0.99320 0.23310 0.04990 0.16500
H 	H 	0.34400 0.01040 0.95500 -0.00300
H 	H 	0.50330 0.40070 0.58240 0.08100
C 	C 	0.74850 0.34960 0.56987 -0.00900
C 	C 	0.09050 0.44890 0.62790 -0.11700
C 	C 	0.99490 0.92130 0.72928 0.11100
C 	C 	0.15260 0.57150 0.64030 -0.11000
C 	C 	0.74670 0.84230 0.67070 -0.44800
C 	C 	0.04110 0.58820 0.02600 -0.14000
C 	C 	0.49730 0.75280 0.85292 0.10100
C 	C 	0.19590 0.75970 0.95336 0.00100
C 	C 	0.53090 0.75670 0.47390 -0.07800
C 	C 	0.50170 0.83130 0.99320 -0.44400
C 	C 	0.58060 0.12220 0.14135 0.24600
C 	C 	0.73620 0.54790 0.99220 0.22500
C 	C 	0.00270 0.25280 0.35292 0.10600
C 	C 	0.34370 0.78500 0.37433 0.00500
C 	C 	0.76290 0.60840 0.78110 -0.48100
C 	C 	0.43170 0.20810 0.55580 -0.14400
C 	C 	0.00170 0.66870 0.50680 -0.45400
C 	C 	0.26380 0.45210 0.00780 0.22500
C 	C 	0.39130 0.70920 0.53151 0.42100
C 	C 	0.60360 0.06620 0.83440 -0.10000
C 	C 	0.99480 0.37880 0.00440 -0.08900
C 	C 	0.81030 0.10620 0.30770 0.42600
C 	C 	0.41550 0.05410 0.72212 -0.01600
C 	C 	0.28610 0.75720 0.73910 -0.12800
C 	C 	0.86410 0.00920 0.15160 -0.07500
C 	C 	0.99540 0.18700 0.49640 -0.11400
C 	C 	0.28520 0.01670 0.44093 -0.29300
C 	C 	0.97450 0.72010 0.83706 0.10100
C 	C 	0.98080 0.12170 0.51570 -0.10500
C 	C 	0.43860 0.23470 0.95210 -0.10400
C 	C 	0.58880 0.02950 0.18768 0.22900
C 	C 	0.81880 0.45060 0.55780 0.09700
C 	C 	0.60780 0.50090 0.31837 -0.30700
C 	C 	0.46230 0.95120 0.74533 0.08800
C 	C 	0.42430 0.55690 0.70718 0.24500
C 	C 	0.56140 0.76530 0.04790 -0.10400
C 	C 	0.17330 0.82850 0.58010 -0.00400
C 	C 	0.66120 0.34340 0.70237 0.40400
C 	C 	0.31880 0.04940 0.94220 0.09700
C 	C 	0.56780 0.10360 0.17833 -0.29700
C 	C 	0.89060 0.44160 0.74097 0.00400
C 	C 	0.83470 0.44000 0.44953 0.47000
C 	C 	0.37740 0.46370 0.38350 -0.14400
C 	C 	0.90660 0.46460 0.42657 -0.51400
C 	C 	0.24670 0.65770 0.82930 -0.44800
C 	C 	0.73870 0.11830 0.62548 0.09000
C 	C 	0.49830 0.16870 0.00680 -0.44400
C 	C 	0.40160 0.55510 0.33760 0.14400
C 	C 	0.49800 0.45920 0.89830 0.48600
C 	C 	0.82670 0.17150 0.41990 -0.00400
C 	C 	0.13110 0.01790 0.14555 0.26900
C 	C 	0.62260 0.53630 0.61650 -0.14400
C 	C 	0.25330 0.15770 0.32930 -0.44800
C 	C 	0.59840 0.44490 0.66240 0.14400
C 	C 	0.11570 0.58830 0.08740 -0.49700
C 	C 	0.69590 0.74030 0.54664 0.00100
C 	C 	0.29240 0.90080 0.24016 0.46600
C 	C 	0.94410 0.43030 0.88090 0.47700
C 	C 	0.60870 0.29080 0.46849 0.42100
C 	C 	0.44680 0.46940 0.44765 -0.54900
C 	C 	0.88890 0.91820 0.20250 -0.43500
C 	C 	0.09840 0.05510 0.83760 0.14600
C 	C 	0.73920 0.46780 0.99309 -0.29300
C 	C 	0.87500 0.47590 0.66043 -0.29300
C 	C 	0.82880 0.03690 0.91962 0.10700
C 	C 	0.43570 0.68990 0.89427 -0.00200
C 	C 	0.14210 0.48600 0.69100 0.18600
C 	C 	0.16120 0.15660 0.79763 0.40500
C 	C 	0.88380 0.57130 0.61397 -0.31900
C 	C 	0.07570 0.05690 0.20718 0.25500
C 	C 	0.55010 0.51570 0.20060 0.00100
C 	C 	0.62240 0.40710 0.36509 -0.31300
C 	C 	0.55320 0.53060 0.55235 -0.54900
C 	C 	0.20760 0.40080 0.74016 0.46600
C 	C 	0.23710 0.39160 0.21890 -0.48100
C 	C 	0.71930 0.06230 0.55761 0.22400
C 	C 	0.72040 0.87970 0.10383 0.01300
C 	C 	0.75520 0.78050 0.69880 0.17000
C 	C 	0.10360 0.43380 0.66560 -0.10300
C 	C 	0.67120 0.53690 0.41962 0.11200
C 	C 	0.06430 0.18990 0.39427 -0.00200
C 	C 	0.92620 0.37120 0.94440 0.20400
C 	C 	0.21390 0.25720 0.23910 -0.12800
C 	C 	0.96230 0.54880 0.75467 0.08800
C 	C 	0.46310 0.76240 0.53870 -0.45200
C 	C 	0.36190 0.00190 0.87613 0.24700
C 	C 	0.08450 0.55410 0.22212 -0.01600
C 	C 	0.03090 0.74330 0.02610 -0.08700
C 	C 	0.96430 0.93010 0.10010 -0.14400
C 	C 	0.66530 0.94420 0.82170 -0.10900
C 	C 	0.85030 0.67640 0.09089 0.01000
C 	C 	0.27820 0.35410 0.59297 0.00300
C 	C 	0.91590 0.02360 0.73610 -0.00700
C 	C 	0.68970 0.60620 0.80770 0.42600
C 	C 	0.43270 0.63140 0.69789 -0.31200
C 	C 	0.76080 0.96780 0.49309 -0.28700
C 	C 	0.93360 0.05350 0.57170 -0.49000
C 	C 	0.90160 0.94490 0.16240 0.14600
C 	C 	0.14240 0.26760 0.13124 0.01400
C 	C 	0.63590 0.50920 0.65160 -0.07400
C 	C 	0.59050 0.05110 0.87210 -0.12100
C 	C 	0.06780 0.39640 0.32167 -0.29700
C 	C 	0.54920 0.40480 0.63590 -0.08000
C 	C 	0.05010 0.98430 0.29940 -0.00300
C 	C 	0.76130 0.61830 0.12548 0.09000
C 	C 	0.92970 0.99910 0.09051 0.22400
C 	C 	0.99830 0.33130 0.49320 -0.45400
C 	C 	0.90880 0.85040 0.83849 0.25000
C 	C 	0.84660 0.53190 0.26760 -0.49500
C 	C 	0.91300 0.64500 0.49959 0.40400
C 	C 	0.67330 0.67150 0.91990 -0.00400
C 	C 	0.78690 0.16260 0.45282 0.00900
C 	C 	0.38460 0.84160 0.63158 -0.01700
C 	C 	0.99920 0.69930 0.99525 0.16200
C 	C 	0.34740 0.07150 0.14030 -0.11300
C 	C 	0.89220 0.00090 0.81837 -0.32200
C 	C 	0.34660 0.96810 0.23240 -0.49600
C 	C 	0.35030 0.82360 0.40911 0.00900
C 	C 	0.01920 0.87830 0.48430 -0.10500
C 	C 	0.38430 0.08830 0.58740 -0.50200
C 	C 	0.89130 0.79080 0.96849 0.42200
C 	C 	0.40950 0.94890 0.12790 -0.12100
C 	C 	0.56730 0.36860 0.30211 -0.31200
C 	C 	0.78070 0.56230 0.05761 0.22800
C 	C 	0.18970 0.89380 0.69230 0.42600
C 	C 	0.38380 0.92870 0.88603 -0.31900
C 	C 	0.07690 0.80170 0.43330 -0.10100
C 	C 	0.75350 0.79560 0.50165 0.10500
C 	C 	0.93220 0.60360 0.67833 -0.29700
C 	C 	0.71390 0.24280 0.26090 -0.12800
C 	C 	0.23830 0.33160 0.24740 0.20300
C 	C 	0.23250 0.84640 0.78280 -0.12700
C 	C 	0.33470 0.05580 0.17830 -0.10900
C 	C 	0.78520 0.48330 0.05907 -0.29800
C 	C 	0.39640 0.93380 0.16560 -0.10000
C 	C 	0.64240 0.23240 0.36876 0.01300
C 	C 	0.22180 0.85410 0.09297 0.00300
C 	C 	0.43360 0.44650 0.92830 -0.50100
C 	C 	0.50080 0.19930 0.49525 0.15300
C 	C 	0.71480 0.98330 0.55907 -0.29300
C 	C 	0.00520 0.62120 0.99560 -0.08900
C 	C 	0.08060 0.37780 0.35865 0.24700
C 	C 	0.03770 0.45120 0.24533 0.08800
C 	C 	0.65260 0.92850 0.85970 -0.11300
C 	C 	0.88460 0.65840 0.86842 -0.01800
C 	C 	0.88660 0.48160 0.38545 0.18500
C 	C 	0.80410 0.24030 0.04664 0.00100
C 	C 	0.31030 0.39380 0.19230 0.42600
C 	C 	0.15340 0.46810 0.73240 -0.49500
C 	C 	0.00080 0.30070 0.00475 0.16200
C 	C 	0.25150 0.65040 0.43013 -0.00900
C 	C 	0.44410 0.06970 0.61910 0.47800
C 	C 	0.55590 0.93030 0.38090 0.47800
C 	C 	0.57380 0.87120 0.44440 0.21100
C 	C 	0.52390 0.75900 0.01300 0.16500
C 	C 	0.80400 0.11000 0.87332 0.00700
C 	C 	0.83800 0.37910 0.16920 0.40400
C 	C 	0.92310 0.19830 0.56670 -0.10100
C 	C 	0.39060 0.05840 0.75903 0.00400
C 	C 	0.37760 0.59290 0.63491 -0.31300
C 	C 	0.85790 0.51400 0.30900 0.18600
C 	C 	0.12240 0.09290 0.13491 -0.31900
C 	C 	0.72900 0.70850 0.69120 -0.09600
C 	C 	0.45890 0.08820 0.52600 -0.14900
C 	C 	0.61570 0.91170 0.41260 -0.50200
C 	C 	0.84740 0.42850 0.35970 -0.11000
C 	C 	0.94380 0.12590 0.55040 0.18000
C 	C 	0.12500 0.52410 0.33957 -0.29300
C 	C 	0.09120 0.14960 0.16151 0.25000
C 	C 	0.73250 0.65360 0.71720 -0.12700
C 	C 	0.13810 0.50190 0.37613 0.24600
C 	C 	0.00460 0.81300 0.50360 -0.11400
C 	C 	0.02550 0.27990 0.16294 0.10100
C 	C 	0.69600 0.61000 0.37332 0.00600
C 	C 	0.93570 0.81010 0.60573 -0.00200
C 	C 	0.49480 0.12120 0.49560 -0.07800
C 	C 	0.49920 0.80070 0.50475 0.15300
C 	C 	0.33470 0.06000 0.05047 0.47000
C 	C 	0.09340 0.53540 0.57343 -0.51400
C 	C 	0.58700 0.14500 0.99959 0.39900
C 	C 	0.49540 0.31300 0.00360 -0.09700
C 	C 	0.61620 0.07130 0.11397 -0.31900
C 	C 	0.11620 0.42870 0.38603 -0.31900
C 	C 	0.76750 0.15360 0.21720 -0.12700
C 	C 	0.76170 0.66840 0.75260 0.20300
C 	C 	0.44380 0.37410 0.94960 0.19100
C 	C 	0.61110 0.41820 0.70250 -0.43400
C 	C 	0.83360 0.05070 0.42846 0.09800
C 	C 	0.77960 0.37970 0.60383 0.01300
C 	C 	0.06640 0.94650 0.42830 -0.49000
C 	C 	0.56430 0.31010 0.10573 -0.00200
C 	C 	0.45080 0.59520 0.36410 -0.08000
C 	C 	0.66200 0.87910 0.66920 0.40400
C 	C 	0.40660 0.03540 0.07343 -0.51400
C 	C 	0.42620 0.12880 0.55560 0.21100
C 	C 	0.54110 0.91180 0.47400 -0.14900
C 	C 	0.37500 0.02410 0.83957 -0.29200
C 	C 	0.57690 0.69830 0.06670 -0.11100
C 	C 	0.51920 0.62170 0.01570 -0.11800
C 	C 	0.40880 0.64960 0.66151 0.24500
C 	C 	0.74480 0.28050 0.19880 0.17000
C 	C 	0.11540 0.34160 0.13158 -0.01800
C 	C 	0.96910 0.25670 0.97390 -0.08700
C 	C 	0.26290 0.89160 0.71890 -0.48100
C 	C 	0.47450 0.77990 0.66294 0.09600
C 	C 	0.68120 0.95060 0.05780 0.09700
C 	C 	0.18120 0.54940 0.44220 0.09700
C 	C 	0.95080 0.90480 0.13590 -0.07800
C 	C 	0.32880 0.46310 0.58038 0.11200
C 	C 	0.26130 0.88170 0.37452 0.09000
C 	C 	0.66530 0.94000 0.94953 0.47000
C 	C 	0.75680 0.59600 0.02436 -0.28500
C 	C 	0.53570 0.43010 0.60010 -0.14000
C 	C 	0.63810 0.99810 0.12387 0.24700
C 	C 	0.99800 0.04080 0.60170 0.47500
C 	C 	0.78610 0.74280 0.76090 -0.12800
C 	C 	0.30400 0.39000 0.62668 0.00600
C 	C 	0.24850 0.15040 0.93013 -0.00900
C 	C 	0.23870 0.38170 0.87452 0.09000
C 	C 	0.26080 0.53220 0.00691 -0.29300
C 	C 	0.87760 0.90710 0.86509 -0.31900
C 	C 	0.47610 0.24100 0.98700 0.16500
C 	C 	0.84370 0.71500 0.12567 0.00500
C 	C 	0.26750 0.34640 0.28280 -0.12700
C 	C 	0.95890 0.41180 0.97400 -0.14000
C 	C 	0.94990 0.01570 0.70060 -0.00300
C 	C 	0.21480 0.51670 0.94093 -0.29800
C 	C 	0.93270 0.86860 0.80211 -0.31800
C 	C 	0.41940 0.87780 0.85865 0.24600
C 	C 	0.11340 0.51840 0.61455 0.18500
C 	C 	0.91120 0.52950 0.68768 0.23000
C 	C 	0.71310 0.66260 0.95282 0.00900
C 	C 	0.13590 0.99080 0.84840 -0.07500
C 	C 	0.53690 0.23760 0.46130 -0.45200
C 	C 	0.22040 0.62030 0.39617 0.01300
C 	C 	0.00510 0.07870 0.27072 0.11100
C 	C 	0.88430 0.41170 0.91260 -0.49700
C 	C 	0.33880 0.65660 0.29763 0.40400
C 	C 	0.21730 0.20200 0.26520 -0.09500
C 	C 	0.64970 0.17640 0.59089 0.00900
C 	C 	0.23510 0.56480 0.97394 0.22900
C 	C 	0.48080 0.37830 0.98430 -0.11800
C 	C 	0.07380 0.62880 0.05560 0.20400
C 	C 	0.26170 0.83160 0.74740 0.20300
C 	C 	0.08700 0.35500 0.50041 0.40400
C 	C 	0.64210 0.01400 0.80900 0.18400
C 	C 	0.36890 0.51790 0.64555 0.25800
C 	C 	0.90950 0.55110 0.37210 -0.11700
C 	C 	0.69130 0.81560 0.55674 -0.00400
C 	C 	0.17120 0.96310 0.08038 0.10700
C 	C 	0.30870 0.18440 0.44326 -0.00400
C 	C 	0.83470 0.44420 0.32170 -0.11300
C 	C 	0.93170 0.29190 0.94420 -0.13700
C 	C 	0.49490 0.57870 0.77072 0.10300
C 	C 	0.70760 0.09920 0.75984 0.46600
C 	C 	0.27960 0.12030 0.89617 0.01300
C 	C 	0.19600 0.89000 0.12668 0.00700
C 	C 	0.08410 0.97640 0.26390 -0.00700
C 	C 	0.35790 0.98600 0.19100 0.18400
C 	C 	0.44990 0.48430 0.79940 0.00100
C 	C 	0.24650 0.20440 0.49835 0.10500
C 	C 	0.86190 0.49810 0.62387 0.24600
C 	C 	0.27100 0.29150 0.30880 -0.09600
C 	C 	0.16530 0.56000 0.55047 0.47000
C 	C 	0.74650 0.29560 0.00165 0.10600
C 	C 	0.19130 0.68440 0.94326 -0.00400
C 	C 	0.33360 0.44930 0.07154 0.10300
C 	C 	0.38890 0.58180 0.29750 -0.43400
C 	C 	0.41120 0.97050 0.81232 0.22900
C 	C 	0.21930 0.43770 0.94239 0.22800
C 	C 	0.86890 0.98210 0.85445 0.26900
C 	C 	0.22900 0.79150 0.80880 -0.09600
C 	C 	0.65340 0.03190 0.76760 -0.49600
C 	C 	0.78270 0.79800 0.73480 -0.09500
C 	C 	0.16530 0.55580 0.67830 -0.11300
C 	C 	0.73710 0.10840 0.28110 -0.48100
C 	C 	0.87740 0.03630 0.11650 -0.15100
C 	C 	0.06140 0.73470 0.45210 -0.11500
C 	C 	0.89640 0.56620 0.33440 -0.10300
C 	C 	0.25350 0.70440 0.99835 0.10600
C 	C 	0.87520 0.02020 0.02473 0.51800
C 	C 	0.24480 0.21950 0.30120 0.17000
C 	C 	0.89910 0.74050 0.60434 -0.00300
C 	C 	0.97610 0.25900 0.51300 0.17600
C 	C 	0.12480 0.97980 0.97527 0.51800
C 	C 	0.50460 0.68700 0.99640 -0.09700
C 	C 	0.24320 0.40400 0.97564 -0.28500
C 	C 	0.50520 0.87880 0.50440 -0.07800
C 	C 	0.37520 0.47980 0.47527 0.52000
C 	C 	0.39220 0.49910 0.68163 -0.30700
C 	C 	0.57570 0.44310 0.29282 0.24500
C 	C 	0.02390 0.74100 0.48700 0.17600
C 	C 	0.61340 0.98160 0.88545 0.18800
C 	C 	0.28270 0.70200 0.76520 -0.09500
C 	C 	0.56830 0.79190 0.44420 -0.14400
C 	C 	0.65630 0.21500 0.62567 0.00500
C 	C 	0.03690 0.26240 0.03870 -0.45300
C 	C 	0.30410 0.25970 0.45336 0.00100
C 	C 	0.41590 0.47640 0.76390 -0.00500
C 	C 	0.05590 0.56970 0.11910 0.47700
C 	C 	0.60090 0.24050 0.10434 -0.00300
C 	C 	0.05320 0.96940 0.94765 -0.55400
C 	C 	0.71730 0.29800 0.23480 -0.09500
C 	C 	0.94680 0.03060 0.05235 -0.55400
C 	C 	0.32670 0.32850 0.08010 -0.00400
C 	C 	0.80870 0.31560 0.05674 -0.00400
C 	C 	0.42310 0.30170 0.93330 -0.11100
C 	C 	0.56640 0.55350 0.07170 -0.50100
C 	C 	0.83880 0.84340 0.20237 0.40500
C 	C 	0.35760 0.76760 0.63124 0.01300
C 	C 	0.10090 0.25950 0.39566 -0.00300
C 	C 	0.61540 0.15840 0.36842 -0.01700
C 	C 	0.77820 0.14590 0.90703 0.00300
C 	C 	0.04920 0.09520 0.86410 -0.07800
C 	C 	0.59120 0.35040 0.33849 0.24500
C 	C 	0.14970 0.32360 0.90911 0.01000
C 	C 	0.96310 0.73760 0.96130 -0.45300
C 	C 	0.25520 0.71950 0.80120 0.17000
C 	C 	0.79240 0.59920 0.25984 0.46600
C 	C 	0.58410 0.52360 0.23610 -0.00500
C 	C 	0.10870 0.20920 0.03151 0.42200
C 	C 	0.43220 0.89640 0.82167 -0.29700
C 	C 	0.53770 0.04880 0.25467 0.08800
C 	C 	0.21310 0.83740 0.54718 0.00900
C 	C 	0.39910 0.75950 0.89566 -0.00300
C 	C 	0.38660 0.01840 0.11455 0.18800
C 	C 	0.08880 0.47050 0.31232 0.23000
C 	C 	0.91550 0.44590 0.77788 -0.01600
C 	C 	0.63110 0.48210 0.35445 0.25800
C 	C 	0.46910 0.24330 0.52610 -0.07800
C 	C 	0.60940 0.94160 0.24097 0.00400
C 	C 	0.28690 0.33740 0.04718 0.00900
C 	C 	0.23920 0.03220 0.50691 -0.28700
C 	C 	0.00200 0.95920 0.39830 0.47500
C 	C 	0.11110 0.08180 0.79750 -0.43500
C 	C 	0.76490 0.43520 0.02606 0.22900
C 	C 	0.23620 0.95210 0.50780 0.22000
C 	C 	0.06730 0.13140 0.19789 -0.31800
C 	C 	0.62500 0.97590 0.16043 -0.29200
C 	C 	0.05620 0.87410 0.44960 0.18000
C 	C 	0.59340 0.96460 0.92657 -0.51400
C 	C 	0.10780 0.99910 0.18163 -0.32200
C 	C 	0.06830 0.70810 0.05580 -0.13700
C 	C 	0.41300 0.85500 0.00041 0.39900
C 	C 	0.50510 0.42130 0.22928 0.10300
C 	C 	0.74320 0.09600 0.52436 -0.28200
C 	C 	0.58450 0.94590 0.27788 -0.01600
C 	C 	0.91940 0.62220 0.64135 0.24700
C 	C 	0.92430 0.94310 0.79282 0.25500
C 	C 	0.72180 0.64590 0.40703 0.00300
C 	C 	0.73830 0.16840 0.25260 0.20300
C 	C 	0.25680 0.90400 0.47564 -0.28200
C 	C 	0.99730 0.74720 0.64708 0.10600
C 	C 	0.77100 0.20850 0.19120 -0.09600
C 	C 	0.52550 0.22010 0.33706 0.09600
C 	C 	0.93860 0.26530 0.54790 -0.11500
C 	C 	0.03570 0.06990 0.89990 -0.14400
C 	C 	0.76380 0.04790 0.49220 0.22000
C 	C 	0.16200 0.62090 0.83080 0.40400
C 	C 	0.12260 0.96370 0.88350 -0.15100
C 	C 	0.62480 0.52020 0.52473 0.52000
C 	C 	0.16640 0.94930 0.57154 0.09800
C 	C 	0.75150 0.84960 0.06987 -0.00900
C 	C 	0.46430 0.56990 0.39990 -0.14000
C 	C 	0.15630 0.28500 0.87433 0.00500
C 	C 	0.36410 0.49080 0.34840 -0.07400
C 	C 	0.26490 0.06480 0.47394 0.22700
C 	C 	0.57030 0.49910 0.59051 0.21600
C 	C 	0.33800 0.12090 0.33080 0.40400
C 	C 	0.07030 0.00090 0.90949 0.22400
C 	C 	0.50270 0.24720 0.14708 0.10100
C 	C 	0.50200 0.54080 0.10170 0.48600
C 	C 	0.75330 0.34230 0.17070 -0.44800
C 	C 	0.85760 0.73240 0.86876 0.01400
C 	C 	0.42970 0.50090 0.40949 0.21600
C 	C 	0.10940 0.55840 0.25903 0.00400
C 	C 	0.73510 0.93520 0.52606 0.22700
C 	C 	0.55620 0.62590 0.05040 0.19100
C 	C 	0.28070 0.93770 0.44239 0.22400
C 	C 	0.66640 0.55070 0.92846 0.10300
N 	N 	0.72590 0.89420 0.04113 -0.23700
N 	N 	0.21300 0.32050 0.85241 -0.23500
N 	N 	0.00200 0.18480 0.36779 -0.23100
N 	N 	0.32340 0.05550 0.90342 -0.16300
N 	N 	0.49980 0.54820 0.80346 -0.22700
N 	N 	0.08500 0.22880 0.15169 -0.16400
N 	N 	0.29930 0.88580 0.40959 -0.16100
N 	N 	0.95920 0.65070 0.84888 -0.22800
N 	N 	0.57850 0.00780 0.22607 -0.16200
N 	N 	0.93960 0.69900 0.63109 -0.16400
N 	N 	0.49800 0.68480 0.86779 -0.23100
N 	N 	0.14400 0.89800 0.59553 -0.21900
N 	N 	0.85600 0.10200 0.40447 -0.21900
N 	N 	0.70590 0.59940 0.43608 -0.24300
N 	N 	0.07850 0.49220 0.27393 -0.16200
N 	N 	0.17660 0.55550 0.40342 -0.16300
N 	N 	0.91500 0.77120 0.84831 -0.16400
N 	N 	0.70900 0.58380 0.95860 -0.16100
N 	N 	0.77240 0.35340 0.02784 -0.15900
N 	N 	0.27410 0.10580 0.95887 -0.23700
N 	N 	0.28700 0.82050 0.35241 -0.23500
N 	N 	0.44470 0.53800 0.74551 -0.16500
N 	N 	0.99800 0.81520 0.63221 -0.23100
N 	N 	0.16290 0.95990 0.11892 -0.16800
N 	N 	0.79100 0.08380 0.45860 -0.16000
N 	N 	0.43960 0.80100 0.86891 -0.16300
N 	N 	0.83710 0.04010 0.88108 -0.16800
N 	N 	0.67660 0.94450 0.09658 -0.16300
N 	N 	0.03970 0.48630 0.21336 -0.24300
N 	N 	0.77410 0.39420 0.54113 -0.23700
N 	N 	0.29410 0.40060 0.56392 -0.24300
N 	N 	0.79410 0.09940 0.93608 -0.24300
N 	N 	0.20590 0.90060 0.06392 -0.24300
N 	N 	0.71300 0.17950 0.64759 -0.23500
N 	N 	0.22760 0.64660 0.97216 -0.15900
N 	N 	0.06040 0.30100 0.36891 -0.16400
N 	N 	0.23480 0.77420 0.98790 -0.22200
N 	N 	0.42150 0.99220 0.77393 -0.16200
N 	N 	0.45920 0.84930 0.65112 -0.22800
N 	N 	0.26520 0.27420 0.48790 -0.22200
N 	N 	0.66290 0.54010 0.38108 -0.16500
N 	N 	0.33710 0.45990 0.61892 -0.16500
N 	N 	0.54080 0.15070 0.34888 -0.22800
N 	N 	0.00020 0.04820 0.30346 -0.22500
N 	N 	0.72760 0.85340 0.52784 -0.15900
N 	N 	0.76520 0.22580 0.01210 -0.22200
N 	N 	0.94470 0.96200 0.75449 -0.16600
N 	N 	0.27240 0.14660 0.47216 -0.15900
N 	N 	0.50020 0.45180 0.19654 -0.22700
N 	N 	0.55530 0.46200 0.25449 -0.16500
N 	N 	0.73480 0.72580 0.51210 -0.22200
N 	N 	0.99980 0.95180 0.69654 -0.22500
N 	N 	0.50200 0.31520 0.13221 -0.23100
N 	N 	0.41500 0.72880 0.65169 -0.16300
N 	N 	0.20900 0.91620 0.54140 -0.16000
N 	N 	0.82340 0.44450 0.59658 -0.16300
N 	N 	0.92150 0.50780 0.72607 -0.16200
N 	N 	0.79930 0.61420 0.09041 -0.16200
N 	N 	0.35600 0.39800 0.09553 -0.22000
N 	N 	0.53970 0.01370 0.28664 -0.24300
N 	N 	0.46030 0.98630 0.71336 -0.24300
N 	N 	0.20070 0.38580 0.90959 -0.16200
N 	N 	0.70070 0.11420 0.59041 -0.16100
N 	N 	0.58500 0.27120 0.34831 -0.16300
N 	N 	0.05530 0.03800 0.24551 -0.16600
N 	N 	0.22590 0.60580 0.45887 -0.23700
N 	N 	0.78700 0.67950 0.14759 -0.23500
N 	N 	0.96030 0.51370 0.78664 -0.24300
N 	N 	0.64400 0.60200 0.90447 -0.22000
N 	N 	0.29100 0.41620 0.04140 -0.16100
N 	N 	0.56040 0.19900 0.13109 -0.16300
N 	N 	0.04080 0.34930 0.15112 -0.22800
O 	O 	0.46080 0.00150 0.62273 -0.48800
O 	O 	0.30050 0.01370 0.02632 -0.53200
O 	O 	0.67680 0.54480 0.82411 -0.43300
O 	O 	0.67920 0.57200 0.52545 -0.49900
O 	O 	0.99300 0.97780 0.61618 -0.48100
O 	O 	0.32080 0.42800 0.47455 -0.49900
O 	O 	0.50700 0.47780 0.11618 -0.48700
O 	O 	0.86050 0.40780 0.13859 -0.43900
O 	O 	0.17680 0.95520 0.67589 -0.43500
O 	O 	0.84420 0.78440 0.99717 -0.42700
O 	O 	0.49300 0.52220 0.88382 -0.48700
O 	O 	0.69040 0.87030 0.94518 -0.44800
O 	O 	0.82080 0.07200 0.02545 -0.49900
O 	O 	0.25360 0.37110 0.71466 -0.34400
O 	O 	0.79380 0.61880 0.22579 -0.49000
O 	O 	0.37840 0.84250 0.03190 -0.40300
O 	O 	0.36050 0.09220 0.36141 -0.43900
O 	O 	0.32320 0.45520 0.17589 -0.43300
O 	O 	0.44640 0.58900 0.10876 -0.32600
O 	O 	0.80050 0.48630 0.47368 -0.53300
O 	O 	0.69950 0.98630 0.97368 -0.53200
O 	O 	0.55360 0.41100 0.89124 -0.32600
O 	O 	0.12510 0.04090 0.99710 -0.49200
O 	O 	0.88410 0.38110 0.19788 -0.40800
O 	O 	0.13950 0.59220 0.86141 -0.43900
O 	O 	0.80960 0.37030 0.44518 -0.44800
O 	O 	0.61590 0.88110 0.69788 -0.40700
O 	O 	0.62710 0.11310 0.02483 -0.41600
O 	O 	0.75360 0.12890 0.78534 -0.34500
O 	O 	0.62160 0.15750 0.96810 -0.40300
O 	O 	0.12160 0.34250 0.53190 -0.40300
O 	O 	0.62400 0.33990 0.44522 -0.40400
O 	O 	0.85620 0.16390 0.31296 -0.39000
O 	O 	0.03920 0.50150 0.12273 -0.48700
O 	O 	0.70620 0.11880 0.72579 -0.49000
O 	O 	0.37490 0.54090 0.49710 -0.49400
O 	O 	0.35620 0.33610 0.18704 -0.39000
O 	O 	0.12400 0.16010 0.05478 -0.40400
O 	O 	0.64380 0.66390 0.81296 -0.39000
O 	O 	0.38410 0.11890 0.30212 -0.40700
O 	O 	0.12930 0.21790 0.78674 -0.42000
O 	O 	0.11590 0.61890 0.80212 -0.40800
O 	O 	0.62930 0.28210 0.71326 -0.42000
O 	O 	0.87490 0.95910 0.00290 -0.49200
O 	O 	0.37600 0.66010 0.55478 -0.40400
O 	O 	0.24640 0.87110 0.21466 -0.34500
O 	O 	0.15580 0.21560 0.00283 -0.42700
O 	O 	0.97200 0.37310 0.86008 -0.32800
O 	O 	0.20620 0.38120 0.77421 -0.49000
O 	O 	0.82320 0.04480 0.32411 -0.43500
O 	O 	0.94640 0.91100 0.39124 -0.32100
O 	O 	0.53920 0.99850 0.37727 -0.48800
O 	O 	0.17920 0.92800 0.97455 -0.49900
O 	O 	0.87290 0.61310 0.52483 -0.41700
O 	O 	0.76500 0.84200 0.19132 -0.43800
O 	O 	0.87600 0.83990 0.94522 -0.40400
O 	O 	0.05360 0.08900 0.60876 -0.32100
O 	O 	0.87840 0.65750 0.46810 -0.40300
O 	O 	0.00700 0.02220 0.38382 -0.48100
O 	O 	0.12710 0.38690 0.47517 -0.41700
O 	O 	0.63950 0.90780 0.63859 -0.43900
O 	O 	0.87070 0.78210 0.21326 -0.42000
O 	O 	0.37070 0.71790 0.28674 -0.42000
O 	O 	0.96080 0.49850 0.87727 -0.48700
O 	O 	0.65580 0.28440 0.49717 -0.42700
O 	O 	0.02800 0.62690 0.13992 -0.32800
O 	O 	0.73500 0.34200 0.69132 -0.43800
O 	O 	0.19040 0.62970 0.55482 -0.44800
O 	O 	0.62510 0.45910 0.50290 -0.49400
O 	O 	0.47200 0.12690 0.63992 -0.32900
O 	O 	0.34420 0.71560 0.50283 -0.42700
O 	O 	0.74640 0.62890 0.28534 -0.34400
O 	O 	0.52800 0.87310 0.36008 -0.32900
O 	O 	0.23500 0.15800 0.80868 -0.43800
O 	O 	0.19950 0.51370 0.52632 -0.53300
O 	O 	0.14380 0.83610 0.68704 -0.39000
O 	O 	0.26500 0.65800 0.30868 -0.43800
O 	O 	0.30960 0.12970 0.05482 -0.44800
O 	O 	0.29380 0.88120 0.27421 -0.49000
O 	O 	0.37290 0.88690 0.97517 -0.41600
