data_crystal

_cell_length_a 28.55000
_cell_length_b 28.55000
_cell_length_c 27.05940
_cell_angle_alpha 90.00000
_cell_angle_beta  90.00000
_cell_angle_gamma 90.00000

_symmetry_space_group_name_	'P 1'
_symmetry_space_group_name_H-M	'P 1'

loop_
_symmetry_equiv_pos_as_xyz
  x,y,z

loop_
_atom_site_label
_atom_site_type_symbol
_atom_site_fract_x
_atom_site_fract_y
_atom_site_fract_z
_atom_site_charge
Cu	Cu	0.03505 0.26338 0.21372 0.91900
Cu	Cu	0.02790 0.20507 0.29091 0.90500
O 	O 	0.97843 0.23110 0.19330 -0.41800
O 	O 	0.97396 0.17992 0.25420 -0.40900
O 	O 	0.83583 0.06963 0.25600 -0.40500
O 	O 	0.78700 0.07350 0.18980 -0.39800
O 	O 	0.71240 0.08990 0.24490 -0.39800
O 	O 	0.75990 0.08360 0.31220 -0.39200
O 	O 	0.99860 0.30370 0.24930 -0.43300
O 	O 	0.98830 0.25590 0.31550 -0.39300
C 	C 	0.79040 0.25710 0.15430 -0.08000
H 	H 	0.80470 0.24390 0.18190 0.06700
C 	C 	0.79980 0.24580 0.10310 0.09700
C 	C 	0.83180 0.21360 0.08850 -0.13200
C 	C 	0.84320 0.20490 0.03990 0.10300
C 	C 	0.87600 0.16880 0.02420 -0.11100
H 	H 	0.89360 0.14940 0.04470 0.07200
C 	C 	0.85590 0.18580 0.13100 0.06400
C 	C 	0.89690 0.20180 0.15160 -0.06200
H 	H 	0.91170 0.22800 0.13830 0.06800
C 	C 	0.91650 0.17900 0.19210 -0.07100
C 	C 	0.89280 0.14060 0.21210 -0.00400
H 	H 	0.90450 0.12550 0.24000 0.05800
C 	C 	0.85130 0.12520 0.18970 -0.04500
C 	C 	0.83360 0.14760 0.14890 -0.07400
H 	H 	0.80650 0.13670 0.13370 0.07200
C 	C 	0.96000 0.19710 0.21420 0.37100
C 	C 	0.82420 0.08580 0.21510 0.32400
C 	C 	0.72820 0.16670 0.35130 -0.07200
H 	H 	0.75590 0.15410 0.36370 0.07100
C 	C 	0.70460 0.14530 0.31090 -0.04300
C 	C 	0.72600 0.10240 0.28760 0.31800
C 	C 	0.90360 0.35560 0.37440 0.01900
C 	C 	0.96610 0.38710 0.30370 -0.03800
H 	H 	0.99550 0.39390 0.29080 0.05700
C 	C 	0.95520 0.33080 0.31370 -0.07200
C 	C 	0.92850 0.32170 0.35210 -0.03800
H 	H 	0.92680 0.29120 0.36400 0.05800
C 	C 	0.98230 0.29570 0.29000 0.34900
Cu	Cu	0.96495 0.73662 0.21372 0.92000
Cu	Cu	0.97210 0.79493 0.29091 0.90600
O 	O 	0.02157 0.76890 0.19330 -0.41700
O 	O 	0.02604 0.82008 0.25420 -0.40800
O 	O 	0.16417 0.93037 0.25600 -0.40400
O 	O 	0.21300 0.92650 0.18980 -0.39700
O 	O 	0.28760 0.91010 0.24490 -0.39700
O 	O 	0.24010 0.91640 0.31220 -0.39100
O 	O 	0.00140 0.69630 0.24930 -0.43300
O 	O 	0.01170 0.74410 0.31550 -0.39300
C 	C 	0.20960 0.74290 0.15430 -0.08000
H 	H 	0.19530 0.75610 0.18190 0.06700
C 	C 	0.20020 0.75420 0.10310 0.09700
C 	C 	0.16820 0.78640 0.08850 -0.13200
C 	C 	0.15680 0.79510 0.03990 0.10300
C 	C 	0.12400 0.83120 0.02420 -0.11100
H 	H 	0.10640 0.85060 0.04470 0.07200
C 	C 	0.14410 0.81420 0.13100 0.06400
C 	C 	0.10310 0.79820 0.15160 -0.06200
H 	H 	0.08830 0.77200 0.13830 0.06800
C 	C 	0.08350 0.82100 0.19210 -0.07100
C 	C 	0.10720 0.85940 0.21210 -0.00400
H 	H 	0.09550 0.87450 0.24000 0.05800
C 	C 	0.14870 0.87480 0.18970 -0.04500
C 	C 	0.16640 0.85240 0.14890 -0.07400
H 	H 	0.19350 0.86330 0.13370 0.07200
C 	C 	0.04000 0.80290 0.21420 0.37100
C 	C 	0.17580 0.91420 0.21510 0.32400
C 	C 	0.27180 0.83330 0.35130 -0.07200
H 	H 	0.24410 0.84590 0.36370 0.07100
C 	C 	0.29540 0.85470 0.31090 -0.04300
C 	C 	0.27400 0.89760 0.28760 0.31800
C 	C 	0.09640 0.64440 0.37440 0.01900
C 	C 	0.03390 0.61290 0.30370 -0.03800
H 	H 	0.00450 0.60610 0.29080 0.05700
C 	C 	0.04480 0.66920 0.31370 -0.07200
C 	C 	0.07150 0.67830 0.35210 -0.03800
H 	H 	0.07320 0.70880 0.36400 0.05800
C 	C 	0.01770 0.70430 0.29000 0.34900
Cu	Cu	0.73662 0.03505 0.21372 0.92000
Cu	Cu	0.79493 0.02790 0.29091 0.90600
O 	O 	0.76890 0.97843 0.19330 -0.41700
O 	O 	0.82008 0.97396 0.25420 -0.40800
O 	O 	0.93037 0.83583 0.25600 -0.40400
O 	O 	0.92650 0.78700 0.18980 -0.39700
O 	O 	0.91010 0.71240 0.24490 -0.39700
O 	O 	0.91640 0.75990 0.31220 -0.39100
O 	O 	0.69630 0.99860 0.24930 -0.43300
O 	O 	0.74410 0.98830 0.31550 -0.39300
C 	C 	0.74290 0.79040 0.15430 -0.08000
H 	H 	0.75610 0.80470 0.18190 0.06700
C 	C 	0.75420 0.79980 0.10310 0.09700
C 	C 	0.78640 0.83180 0.08850 -0.13200
C 	C 	0.79510 0.84320 0.03990 0.10300
C 	C 	0.83120 0.87600 0.02420 -0.11100
H 	H 	0.85060 0.89360 0.04470 0.07200
C 	C 	0.81420 0.85590 0.13100 0.06400
C 	C 	0.79820 0.89690 0.15160 -0.06200
H 	H 	0.77200 0.91170 0.13830 0.06800
C 	C 	0.82100 0.91650 0.19210 -0.07100
C 	C 	0.85940 0.89280 0.21210 -0.00400
H 	H 	0.87450 0.90450 0.24000 0.05800
C 	C 	0.87480 0.85130 0.18970 -0.04500
C 	C 	0.85240 0.83360 0.14890 -0.07400
H 	H 	0.86330 0.80650 0.13370 0.07200
C 	C 	0.80290 0.96000 0.21420 0.37100
C 	C 	0.91420 0.82420 0.21510 0.32400
C 	C 	0.83330 0.72820 0.35130 -0.07200
H 	H 	0.84590 0.75590 0.36370 0.07100
C 	C 	0.85470 0.70460 0.31090 -0.04300
C 	C 	0.89760 0.72600 0.28760 0.31800
C 	C 	0.64440 0.90360 0.37440 0.01900
C 	C 	0.61290 0.96610 0.30370 -0.03800
H 	H 	0.60610 0.99550 0.29080 0.05700
C 	C 	0.66920 0.95520 0.31370 -0.07200
C 	C 	0.67830 0.92850 0.35210 -0.03800
H 	H 	0.70880 0.92680 0.36400 0.05800
C 	C 	0.70430 0.98230 0.29000 0.34900
Cu	Cu	0.26338 0.96495 0.21372 0.92000
Cu	Cu	0.20507 0.97210 0.29091 0.90600
O 	O 	0.23110 0.02157 0.19330 -0.41700
O 	O 	0.17992 0.02604 0.25420 -0.40800
O 	O 	0.06963 0.16417 0.25600 -0.40400
O 	O 	0.07350 0.21300 0.18980 -0.39700
O 	O 	0.08990 0.28760 0.24490 -0.39700
O 	O 	0.08360 0.24010 0.31220 -0.39100
O 	O 	0.30370 0.00140 0.24930 -0.43300
O 	O 	0.25590 0.01170 0.31550 -0.39300
C 	C 	0.25710 0.20960 0.15430 -0.08000
H 	H 	0.24390 0.19530 0.18190 0.06700
C 	C 	0.24580 0.20020 0.10310 0.09700
C 	C 	0.21360 0.16820 0.08850 -0.13200
C 	C 	0.20490 0.15680 0.03990 0.10300
C 	C 	0.16880 0.12400 0.02420 -0.11100
H 	H 	0.14940 0.10640 0.04470 0.07200
C 	C 	0.18580 0.14410 0.13100 0.06400
C 	C 	0.20180 0.10310 0.15160 -0.06200
H 	H 	0.22800 0.08830 0.13830 0.06800
C 	C 	0.17900 0.08350 0.19210 -0.07100
C 	C 	0.14060 0.10720 0.21210 -0.00400
H 	H 	0.12550 0.09550 0.24000 0.05800
C 	C 	0.12520 0.14870 0.18970 -0.04500
C 	C 	0.14760 0.16640 0.14890 -0.07400
H 	H 	0.13670 0.19350 0.13370 0.07200
C 	C 	0.19710 0.04000 0.21420 0.37100
C 	C 	0.08580 0.17580 0.21510 0.32400
C 	C 	0.16670 0.27180 0.35130 -0.07200
H 	H 	0.15410 0.24410 0.36370 0.07100
C 	C 	0.14530 0.29540 0.31090 -0.04300
C 	C 	0.10240 0.27400 0.28760 0.31800
C 	C 	0.35560 0.09640 0.37440 0.01900
C 	C 	0.38710 0.03390 0.30370 -0.03800
H 	H 	0.39390 0.00450 0.29080 0.05700
C 	C 	0.33080 0.04480 0.31370 -0.07200
C 	C 	0.32170 0.07150 0.35210 -0.03800
H 	H 	0.29120 0.07320 0.36400 0.05800
C 	C 	0.29570 0.01770 0.29000 0.34900
Cu	Cu	0.46495 0.76338 0.78628 0.92100
Cu	Cu	0.47210 0.70507 0.70909 0.90600
O 	O 	0.52157 0.73110 0.80670 -0.41600
O 	O 	0.52604 0.67992 0.74580 -0.40800
O 	O 	0.66417 0.56963 0.74400 -0.40400
O 	O 	0.71300 0.57350 0.81020 -0.39500
O 	O 	0.78760 0.58990 0.75510 -0.39600
O 	O 	0.74010 0.58360 0.68780 -0.39100
O 	O 	0.50140 0.80370 0.75070 -0.43200
O 	O 	0.51170 0.75590 0.68450 -0.39300
C 	C 	0.70960 0.75710 0.84570 -0.07900
H 	H 	0.69530 0.74390 0.81810 0.06700
C 	C 	0.70020 0.74580 0.89690 0.09900
C 	C 	0.66820 0.71360 0.91150 -0.12700
C 	C 	0.65680 0.70490 0.96010 0.10000
C 	C 	0.62400 0.66880 0.97580 -0.05000
H 	H 	0.60640 0.64940 0.95530 0.05700
C 	C 	0.64410 0.68580 0.86900 0.06400
C 	C 	0.60310 0.70180 0.84840 -0.06200
H 	H 	0.58830 0.72800 0.86170 0.07000
C 	C 	0.58350 0.67900 0.80790 -0.06900
C 	C 	0.60720 0.64060 0.78790 -0.00400
H 	H 	0.59550 0.62550 0.76000 0.05800
C 	C 	0.64870 0.62520 0.81030 -0.04300
C 	C 	0.66640 0.64760 0.85110 -0.07400
H 	H 	0.69350 0.63670 0.86630 0.07300
C 	C 	0.54000 0.69710 0.78580 0.37000
C 	C 	0.67580 0.58580 0.78490 0.32300
C 	C 	0.77180 0.66670 0.64870 -0.07200
H 	H 	0.74410 0.65410 0.63630 0.07100
C 	C 	0.79540 0.64530 0.68910 -0.04300
C 	C 	0.77400 0.60240 0.71240 0.31700
C 	C 	0.59640 0.85560 0.62560 0.02000
C 	C 	0.53390 0.88710 0.69630 -0.03800
H 	H 	0.50450 0.89390 0.70920 0.05800
C 	C 	0.54480 0.83080 0.68630 -0.07100
C 	C 	0.57150 0.82170 0.64790 -0.03800
H 	H 	0.57320 0.79120 0.63600 0.05800
C 	C 	0.51770 0.79570 0.71000 0.34900
Cu	Cu	0.53505 0.23662 0.78628 0.92100
Cu	Cu	0.52790 0.29493 0.70909 0.90600
O 	O 	0.47843 0.26890 0.80670 -0.41600
O 	O 	0.47396 0.32008 0.74580 -0.40800
O 	O 	0.33583 0.43037 0.74400 -0.40400
O 	O 	0.28700 0.42650 0.81020 -0.39500
O 	O 	0.21240 0.41010 0.75510 -0.39600
O 	O 	0.25990 0.41640 0.68780 -0.39100
O 	O 	0.49860 0.19630 0.75070 -0.43200
O 	O 	0.48830 0.24410 0.68450 -0.39300
C 	C 	0.29040 0.24290 0.84570 -0.07900
H 	H 	0.30470 0.25610 0.81810 0.06700
C 	C 	0.29980 0.25420 0.89690 0.09900
C 	C 	0.33180 0.28640 0.91150 -0.12700
C 	C 	0.34320 0.29510 0.96010 0.10000
C 	C 	0.37600 0.33120 0.97580 -0.05000
H 	H 	0.39360 0.35060 0.95530 0.05700
C 	C 	0.35590 0.31420 0.86900 0.06400
C 	C 	0.39690 0.29820 0.84840 -0.06200
H 	H 	0.41170 0.27200 0.86170 0.07000
C 	C 	0.41650 0.32100 0.80790 -0.06900
C 	C 	0.39280 0.35940 0.78790 -0.00400
H 	H 	0.40450 0.37450 0.76000 0.05800
C 	C 	0.35130 0.37480 0.81030 -0.04300
C 	C 	0.33360 0.35240 0.85110 -0.07400
H 	H 	0.30650 0.36330 0.86630 0.07300
C 	C 	0.46000 0.30290 0.78580 0.37000
C 	C 	0.32420 0.41420 0.78490 0.32300
C 	C 	0.22820 0.33330 0.64870 -0.07200
H 	H 	0.25590 0.34590 0.63630 0.07100
C 	C 	0.20460 0.35470 0.68910 -0.04300
C 	C 	0.22600 0.39760 0.71240 0.31700
C 	C 	0.40360 0.14440 0.62560 0.02000
C 	C 	0.46610 0.11290 0.69630 -0.03800
H 	H 	0.49550 0.10610 0.70920 0.05800
C 	C 	0.45520 0.16920 0.68630 -0.07100
C 	C 	0.42850 0.17830 0.64790 -0.03800
H 	H 	0.42680 0.20880 0.63600 0.05800
C 	C 	0.48230 0.20430 0.71000 0.34900
Cu	Cu	0.76338 0.53505 0.78628 0.92100
Cu	Cu	0.70507 0.52790 0.70909 0.90600
O 	O 	0.73110 0.47843 0.80670 -0.41600
O 	O 	0.67992 0.47396 0.74580 -0.40800
O 	O 	0.56963 0.33583 0.74400 -0.40400
O 	O 	0.57350 0.28700 0.81020 -0.39500
O 	O 	0.58990 0.21240 0.75510 -0.39600
O 	O 	0.58360 0.25990 0.68780 -0.39100
O 	O 	0.80370 0.49860 0.75070 -0.43200
O 	O 	0.75590 0.48830 0.68450 -0.39300
C 	C 	0.75710 0.29040 0.84570 -0.07900
H 	H 	0.74390 0.30470 0.81810 0.06700
C 	C 	0.74580 0.29980 0.89690 0.09900
C 	C 	0.71360 0.33180 0.91150 -0.12700
C 	C 	0.70490 0.34320 0.96010 0.10000
C 	C 	0.66880 0.37600 0.97580 -0.05000
H 	H 	0.64940 0.39360 0.95530 0.05700
C 	C 	0.68580 0.35590 0.86900 0.06400
C 	C 	0.70180 0.39690 0.84840 -0.06200
H 	H 	0.72800 0.41170 0.86170 0.07000
C 	C 	0.67900 0.41650 0.80790 -0.06900
C 	C 	0.64060 0.39280 0.78790 -0.00400
H 	H 	0.62550 0.40450 0.76000 0.05800
C 	C 	0.62520 0.35130 0.81030 -0.04300
C 	C 	0.64760 0.33360 0.85110 -0.07400
H 	H 	0.63670 0.30650 0.86630 0.07300
C 	C 	0.69710 0.46000 0.78580 0.37000
C 	C 	0.58580 0.32420 0.78490 0.32300
C 	C 	0.66670 0.22820 0.64870 -0.07200
H 	H 	0.65410 0.25590 0.63630 0.07100
C 	C 	0.64530 0.20460 0.68910 -0.04300
C 	C 	0.60240 0.22600 0.71240 0.31700
C 	C 	0.85560 0.40360 0.62560 0.02000
C 	C 	0.88710 0.46610 0.69630 -0.03800
H 	H 	0.89390 0.49550 0.70920 0.05800
C 	C 	0.83080 0.45520 0.68630 -0.07100
C 	C 	0.82170 0.42850 0.64790 -0.03800
H 	H 	0.79120 0.42680 0.63600 0.05800
C 	C 	0.79570 0.48230 0.71000 0.34900
Cu	Cu	0.23662 0.46495 0.78628 0.92100
Cu	Cu	0.29493 0.47210 0.70909 0.90600
O 	O 	0.26890 0.52157 0.80670 -0.41600
O 	O 	0.32008 0.52604 0.74580 -0.40800
O 	O 	0.43037 0.66417 0.74400 -0.40400
O 	O 	0.42650 0.71300 0.81020 -0.39500
O 	O 	0.41010 0.78760 0.75510 -0.39600
O 	O 	0.41640 0.74010 0.68780 -0.39100
O 	O 	0.19630 0.50140 0.75070 -0.43200
O 	O 	0.24410 0.51170 0.68450 -0.39300
C 	C 	0.24290 0.70960 0.84570 -0.07900
H 	H 	0.25610 0.69530 0.81810 0.06700
C 	C 	0.25420 0.70020 0.89690 0.09900
C 	C 	0.28640 0.66820 0.91150 -0.12700
C 	C 	0.29510 0.65680 0.96010 0.10000
C 	C 	0.33120 0.62400 0.97580 -0.05000
H 	H 	0.35060 0.60640 0.95530 0.05700
C 	C 	0.31420 0.64410 0.86900 0.06400
C 	C 	0.29820 0.60310 0.84840 -0.06200
H 	H 	0.27200 0.58830 0.86170 0.07000
C 	C 	0.32100 0.58350 0.80790 -0.06900
C 	C 	0.35940 0.60720 0.78790 -0.00400
H 	H 	0.37450 0.59550 0.76000 0.05800
C 	C 	0.37480 0.64870 0.81030 -0.04300
C 	C 	0.35240 0.66640 0.85110 -0.07400
H 	H 	0.36330 0.69350 0.86630 0.07300
C 	C 	0.30290 0.54000 0.78580 0.37000
C 	C 	0.41420 0.67580 0.78490 0.32300
C 	C 	0.33330 0.77180 0.64870 -0.07200
H 	H 	0.34590 0.74410 0.63630 0.07100
C 	C 	0.35470 0.79540 0.68910 -0.04300
C 	C 	0.39760 0.77400 0.71240 0.31700
C 	C 	0.14440 0.59640 0.62560 0.02000
C 	C 	0.11290 0.53390 0.69630 -0.03800
H 	H 	0.10610 0.50450 0.70920 0.05800
C 	C 	0.16920 0.54480 0.68630 -0.07100
C 	C 	0.17830 0.57150 0.64790 -0.03800
H 	H 	0.20880 0.57320 0.63600 0.05800
C 	C 	0.20430 0.51770 0.71000 0.34900
Cu	Cu	0.96495 0.73662 0.78628 0.92100
Cu	Cu	0.97210 0.79493 0.70909 0.90600
O 	O 	0.02157 0.76890 0.80670 -0.41600
O 	O 	0.02604 0.82008 0.74580 -0.40800
O 	O 	0.16417 0.93037 0.74400 -0.40400
O 	O 	0.21300 0.92650 0.81020 -0.39500
O 	O 	0.28760 0.91010 0.75510 -0.39600
O 	O 	0.24010 0.91640 0.68780 -0.39100
O 	O 	0.00140 0.69630 0.75070 -0.43200
O 	O 	0.01170 0.74410 0.68450 -0.39300
C 	C 	0.20960 0.74290 0.84570 -0.07900
H 	H 	0.19530 0.75610 0.81810 0.06700
C 	C 	0.20020 0.75420 0.89690 0.09900
C 	C 	0.16820 0.78640 0.91150 -0.12700
C 	C 	0.15680 0.79510 0.96010 0.10000
C 	C 	0.12400 0.83120 0.97580 -0.05000
H 	H 	0.10640 0.85060 0.95530 0.05700
C 	C 	0.14410 0.81420 0.86900 0.06400
C 	C 	0.10310 0.79820 0.84840 -0.06200
H 	H 	0.08830 0.77200 0.86170 0.07000
C 	C 	0.08350 0.82100 0.80790 -0.06900
C 	C 	0.10720 0.85940 0.78790 -0.00400
H 	H 	0.09550 0.87450 0.76000 0.05800
C 	C 	0.14870 0.87480 0.81030 -0.04300
C 	C 	0.16640 0.85240 0.85110 -0.07400
H 	H 	0.19350 0.86330 0.86630 0.07300
C 	C 	0.04000 0.80290 0.78580 0.37000
C 	C 	0.17580 0.91420 0.78490 0.32300
C 	C 	0.27180 0.83330 0.64870 -0.07200
H 	H 	0.24410 0.84590 0.63630 0.07100
C 	C 	0.29540 0.85470 0.68910 -0.04300
C 	C 	0.27400 0.89760 0.71240 0.31700
C 	C 	0.09640 0.64440 0.62560 0.02000
C 	C 	0.03390 0.61290 0.69630 -0.03800
H 	H 	0.00450 0.60610 0.70920 0.05800
C 	C 	0.04480 0.66920 0.68630 -0.07100
C 	C 	0.07150 0.67830 0.64790 -0.03800
H 	H 	0.07320 0.70880 0.63600 0.05800
C 	C 	0.01770 0.70430 0.71000 0.34900
Cu	Cu	0.03505 0.26338 0.78628 0.92100
Cu	Cu	0.02790 0.20507 0.70909 0.90600
O 	O 	0.97843 0.23110 0.80670 -0.41600
O 	O 	0.97396 0.17992 0.74580 -0.40800
O 	O 	0.83583 0.06963 0.74400 -0.40400
O 	O 	0.78700 0.07350 0.81020 -0.39500
O 	O 	0.71240 0.08990 0.75510 -0.39600
O 	O 	0.75990 0.08360 0.68780 -0.39100
O 	O 	0.99860 0.30370 0.75070 -0.43200
O 	O 	0.98830 0.25590 0.68450 -0.39300
C 	C 	0.79040 0.25710 0.84570 -0.07900
H 	H 	0.80470 0.24390 0.81810 0.06700
C 	C 	0.79980 0.24580 0.89690 0.09900
C 	C 	0.83180 0.21360 0.91150 -0.12700
C 	C 	0.84320 0.20490 0.96010 0.10000
C 	C 	0.87600 0.16880 0.97580 -0.05000
H 	H 	0.89360 0.14940 0.95530 0.05700
C 	C 	0.85590 0.18580 0.86900 0.06400
C 	C 	0.89690 0.20180 0.84840 -0.06200
H 	H 	0.91170 0.22800 0.86170 0.07000
C 	C 	0.91650 0.17900 0.80790 -0.06900
C 	C 	0.89280 0.14060 0.78790 -0.00400
H 	H 	0.90450 0.12550 0.76000 0.05800
C 	C 	0.85130 0.12520 0.81030 -0.04300
C 	C 	0.83360 0.14760 0.85110 -0.07400
H 	H 	0.80650 0.13670 0.86630 0.07300
C 	C 	0.96000 0.19710 0.78580 0.37000
C 	C 	0.82420 0.08580 0.78490 0.32300
C 	C 	0.72820 0.16670 0.64870 -0.07200
H 	H 	0.75590 0.15410 0.63630 0.07100
C 	C 	0.70460 0.14530 0.68910 -0.04300
C 	C 	0.72600 0.10240 0.71240 0.31700
C 	C 	0.90360 0.35560 0.62560 0.02000
C 	C 	0.96610 0.38710 0.69630 -0.03800
H 	H 	0.99550 0.39390 0.70920 0.05800
C 	C 	0.95520 0.33080 0.68630 -0.07100
C 	C 	0.92850 0.32170 0.64790 -0.03800
H 	H 	0.92680 0.29120 0.63600 0.05800
C 	C 	0.98230 0.29570 0.71000 0.34900
Cu	Cu	0.26338 0.96495 0.78628 0.92100
Cu	Cu	0.20507 0.97210 0.70909 0.90600
O 	O 	0.23110 0.02157 0.80670 -0.41600
O 	O 	0.17992 0.02604 0.74580 -0.40800
O 	O 	0.06963 0.16417 0.74400 -0.40400
O 	O 	0.07350 0.21300 0.81020 -0.39500
O 	O 	0.08990 0.28760 0.75510 -0.39600
O 	O 	0.08360 0.24010 0.68780 -0.39100
O 	O 	0.30370 0.00140 0.75070 -0.43200
O 	O 	0.25590 0.01170 0.68450 -0.39300
C 	C 	0.25710 0.20960 0.84570 -0.07900
H 	H 	0.24390 0.19530 0.81810 0.06700
C 	C 	0.24580 0.20020 0.89690 0.09900
C 	C 	0.21360 0.16820 0.91150 -0.12700
C 	C 	0.20490 0.15680 0.96010 0.10000
C 	C 	0.16880 0.12400 0.97580 -0.05000
H 	H 	0.14940 0.10640 0.95530 0.05700
C 	C 	0.18580 0.14410 0.86900 0.06400
C 	C 	0.20180 0.10310 0.84840 -0.06200
H 	H 	0.22800 0.08830 0.86170 0.07000
C 	C 	0.17900 0.08350 0.80790 -0.06900
C 	C 	0.14060 0.10720 0.78790 -0.00400
H 	H 	0.12550 0.09550 0.76000 0.05800
C 	C 	0.12520 0.14870 0.81030 -0.04300
C 	C 	0.14760 0.16640 0.85110 -0.07400
H 	H 	0.13670 0.19350 0.86630 0.07300
C 	C 	0.19710 0.04000 0.78580 0.37000
C 	C 	0.08580 0.17580 0.78490 0.32300
C 	C 	0.16670 0.27180 0.64870 -0.07200
H 	H 	0.15410 0.24410 0.63630 0.07100
C 	C 	0.14530 0.29540 0.68910 -0.04300
C 	C 	0.10240 0.27400 0.71240 0.31700
C 	C 	0.35560 0.09640 0.62560 0.02000
C 	C 	0.38710 0.03390 0.69630 -0.03800
H 	H 	0.39390 0.00450 0.70920 0.05800
C 	C 	0.33080 0.04480 0.68630 -0.07100
C 	C 	0.32170 0.07150 0.64790 -0.03800
H 	H 	0.29120 0.07320 0.63600 0.05800
C 	C 	0.29570 0.01770 0.71000 0.34900
Cu	Cu	0.73662 0.03505 0.78628 0.92100
Cu	Cu	0.79493 0.02790 0.70909 0.90600
O 	O 	0.76890 0.97843 0.80670 -0.41600
O 	O 	0.82008 0.97396 0.74580 -0.40800
O 	O 	0.93037 0.83583 0.74400 -0.40400
O 	O 	0.92650 0.78700 0.81020 -0.39500
O 	O 	0.91010 0.71240 0.75510 -0.39600
O 	O 	0.91640 0.75990 0.68780 -0.39100
O 	O 	0.69630 0.99860 0.75070 -0.43200
O 	O 	0.74410 0.98830 0.68450 -0.39300
C 	C 	0.74290 0.79040 0.84570 -0.07900
H 	H 	0.75610 0.80470 0.81810 0.06700
C 	C 	0.75420 0.79980 0.89690 0.09900
C 	C 	0.78640 0.83180 0.91150 -0.12700
C 	C 	0.79510 0.84320 0.96010 0.10000
C 	C 	0.83120 0.87600 0.97580 -0.05000
H 	H 	0.85060 0.89360 0.95530 0.05700
C 	C 	0.81420 0.85590 0.86900 0.06400
C 	C 	0.79820 0.89690 0.84840 -0.06200
H 	H 	0.77200 0.91170 0.86170 0.07000
C 	C 	0.82100 0.91650 0.80790 -0.06900
C 	C 	0.85940 0.89280 0.78790 -0.00400
H 	H 	0.87450 0.90450 0.76000 0.05800
C 	C 	0.87480 0.85130 0.81030 -0.04300
C 	C 	0.85240 0.83360 0.85110 -0.07400
H 	H 	0.86330 0.80650 0.86630 0.07300
C 	C 	0.80290 0.96000 0.78580 0.37000
C 	C 	0.91420 0.82420 0.78490 0.32300
C 	C 	0.83330 0.72820 0.64870 -0.07200
H 	H 	0.84590 0.75590 0.63630 0.07100
C 	C 	0.85470 0.70460 0.68910 -0.04300
C 	C 	0.89760 0.72600 0.71240 0.31700
C 	C 	0.64440 0.90360 0.62560 0.02000
C 	C 	0.61290 0.96610 0.69630 -0.03800
H 	H 	0.60610 0.99550 0.70920 0.05800
C 	C 	0.66920 0.95520 0.68630 -0.07100
C 	C 	0.67830 0.92850 0.64790 -0.03800
H 	H 	0.70880 0.92680 0.63600 0.05800
C 	C 	0.70430 0.98230 0.71000 0.34900
Cu	Cu	0.53505 0.23662 0.21372 0.92000
Cu	Cu	0.52790 0.29493 0.29091 0.90600
O 	O 	0.47843 0.26890 0.19330 -0.41700
O 	O 	0.47396 0.32008 0.25420 -0.40800
O 	O 	0.33583 0.43037 0.25600 -0.40400
O 	O 	0.28700 0.42650 0.18980 -0.39700
O 	O 	0.21240 0.41010 0.24490 -0.39700
O 	O 	0.25990 0.41640 0.31220 -0.39100
O 	O 	0.49860 0.19630 0.24930 -0.43300
O 	O 	0.48830 0.24410 0.31550 -0.39300
C 	C 	0.29040 0.24290 0.15430 -0.08000
H 	H 	0.30470 0.25610 0.18190 0.06700
C 	C 	0.29980 0.25420 0.10310 0.09700
C 	C 	0.33180 0.28640 0.08850 -0.13200
C 	C 	0.34320 0.29510 0.03990 0.10300
C 	C 	0.37600 0.33120 0.02420 -0.11100
H 	H 	0.39360 0.35060 0.04470 0.07200
C 	C 	0.35590 0.31420 0.13100 0.06400
C 	C 	0.39690 0.29820 0.15160 -0.06200
H 	H 	0.41170 0.27200 0.13830 0.06800
C 	C 	0.41650 0.32100 0.19210 -0.07100
C 	C 	0.39280 0.35940 0.21210 -0.00400
H 	H 	0.40450 0.37450 0.24000 0.05800
C 	C 	0.35130 0.37480 0.18970 -0.04500
C 	C 	0.33360 0.35240 0.14890 -0.07400
H 	H 	0.30650 0.36330 0.13370 0.07200
C 	C 	0.46000 0.30290 0.21420 0.37100
C 	C 	0.32420 0.41420 0.21510 0.32400
C 	C 	0.22820 0.33330 0.35130 -0.07200
H 	H 	0.25590 0.34590 0.36370 0.07100
C 	C 	0.20460 0.35470 0.31090 -0.04300
C 	C 	0.22600 0.39760 0.28760 0.31800
C 	C 	0.40360 0.14440 0.37440 0.01900
C 	C 	0.46610 0.11290 0.30370 -0.03800
H 	H 	0.49550 0.10610 0.29080 0.05700
C 	C 	0.45520 0.16920 0.31370 -0.07200
C 	C 	0.42850 0.17830 0.35210 -0.03800
H 	H 	0.42680 0.20880 0.36400 0.05800
C 	C 	0.48230 0.20430 0.29000 0.34900
Cu	Cu	0.46495 0.76338 0.21372 0.92000
Cu	Cu	0.47210 0.70507 0.29091 0.90600
O 	O 	0.52157 0.73110 0.19330 -0.41700
O 	O 	0.52604 0.67992 0.25420 -0.40800
O 	O 	0.66417 0.56963 0.25600 -0.40400
O 	O 	0.71300 0.57350 0.18980 -0.39700
O 	O 	0.78760 0.58990 0.24490 -0.39700
O 	O 	0.74010 0.58360 0.31220 -0.39100
O 	O 	0.50140 0.80370 0.24930 -0.43300
O 	O 	0.51170 0.75590 0.31550 -0.39300
C 	C 	0.70960 0.75710 0.15430 -0.08000
H 	H 	0.69530 0.74390 0.18190 0.06700
C 	C 	0.70020 0.74580 0.10310 0.09700
C 	C 	0.66820 0.71360 0.08850 -0.13200
C 	C 	0.65680 0.70490 0.03990 0.10300
C 	C 	0.62400 0.66880 0.02420 -0.11100
H 	H 	0.60640 0.64940 0.04470 0.07200
C 	C 	0.64410 0.68580 0.13100 0.06400
C 	C 	0.60310 0.70180 0.15160 -0.06200
H 	H 	0.58830 0.72800 0.13830 0.06800
C 	C 	0.58350 0.67900 0.19210 -0.07100
C 	C 	0.60720 0.64060 0.21210 -0.00400
H 	H 	0.59550 0.62550 0.24000 0.05800
C 	C 	0.64870 0.62520 0.18970 -0.04500
C 	C 	0.66640 0.64760 0.14890 -0.07400
H 	H 	0.69350 0.63670 0.13370 0.07200
C 	C 	0.54000 0.69710 0.21420 0.37100
C 	C 	0.67580 0.58580 0.21510 0.32400
C 	C 	0.77180 0.66670 0.35130 -0.07200
H 	H 	0.74410 0.65410 0.36370 0.07100
C 	C 	0.79540 0.64530 0.31090 -0.04300
C 	C 	0.77400 0.60240 0.28760 0.31800
C 	C 	0.59640 0.85560 0.37440 0.01900
C 	C 	0.53390 0.88710 0.30370 -0.03800
H 	H 	0.50450 0.89390 0.29080 0.05700
C 	C 	0.54480 0.83080 0.31370 -0.07200
C 	C 	0.57150 0.82170 0.35210 -0.03800
H 	H 	0.57320 0.79120 0.36400 0.05800
C 	C 	0.51770 0.79570 0.29000 0.34900
Cu	Cu	0.23662 0.46495 0.21372 0.92000
Cu	Cu	0.29493 0.47210 0.29091 0.90600
O 	O 	0.26890 0.52157 0.19330 -0.41700
O 	O 	0.32008 0.52604 0.25420 -0.40800
O 	O 	0.43037 0.66417 0.25600 -0.40400
O 	O 	0.42650 0.71300 0.18980 -0.39700
O 	O 	0.41010 0.78760 0.24490 -0.39700
O 	O 	0.41640 0.74010 0.31220 -0.39100
O 	O 	0.19630 0.50140 0.24930 -0.43300
O 	O 	0.24410 0.51170 0.31550 -0.39300
C 	C 	0.24290 0.70960 0.15430 -0.08000
H 	H 	0.25610 0.69530 0.18190 0.06700
C 	C 	0.25420 0.70020 0.10310 0.09700
C 	C 	0.28640 0.66820 0.08850 -0.13200
C 	C 	0.29510 0.65680 0.03990 0.10300
C 	C 	0.33120 0.62400 0.02420 -0.11100
H 	H 	0.35060 0.60640 0.04470 0.07200
C 	C 	0.31420 0.64410 0.13100 0.06400
C 	C 	0.29820 0.60310 0.15160 -0.06200
H 	H 	0.27200 0.58830 0.13830 0.06800
C 	C 	0.32100 0.58350 0.19210 -0.07100
C 	C 	0.35940 0.60720 0.21210 -0.00400
H 	H 	0.37450 0.59550 0.24000 0.05800
C 	C 	0.37480 0.64870 0.18970 -0.04500
C 	C 	0.35240 0.66640 0.14890 -0.07400
H 	H 	0.36330 0.69350 0.13370 0.07200
C 	C 	0.30290 0.54000 0.21420 0.37100
C 	C 	0.41420 0.67580 0.21510 0.32400
C 	C 	0.33330 0.77180 0.35130 -0.07200
H 	H 	0.34590 0.74410 0.36370 0.07100
C 	C 	0.35470 0.79540 0.31090 -0.04300
C 	C 	0.39760 0.77400 0.28760 0.31800
C 	C 	0.14440 0.59640 0.37440 0.01900
C 	C 	0.11290 0.53390 0.30370 -0.03800
H 	H 	0.10610 0.50450 0.29080 0.05700
C 	C 	0.16920 0.54480 0.31370 -0.07200
C 	C 	0.17830 0.57150 0.35210 -0.03800
H 	H 	0.20880 0.57320 0.36400 0.05800
C 	C 	0.20430 0.51770 0.29000 0.34900
Cu	Cu	0.76338 0.53505 0.21372 0.92000
Cu	Cu	0.70507 0.52790 0.29091 0.90600
O 	O 	0.73110 0.47843 0.19330 -0.41700
O 	O 	0.67992 0.47396 0.25420 -0.40800
O 	O 	0.56963 0.33583 0.25600 -0.40400
O 	O 	0.57350 0.28700 0.18980 -0.39700
O 	O 	0.58990 0.21240 0.24490 -0.39700
O 	O 	0.58360 0.25990 0.31220 -0.39100
O 	O 	0.80370 0.49860 0.24930 -0.43300
O 	O 	0.75590 0.48830 0.31550 -0.39300
C 	C 	0.75710 0.29040 0.15430 -0.08000
H 	H 	0.74390 0.30470 0.18190 0.06700
C 	C 	0.74580 0.29980 0.10310 0.09700
C 	C 	0.71360 0.33180 0.08850 -0.13200
C 	C 	0.70490 0.34320 0.03990 0.10300
C 	C 	0.66880 0.37600 0.02420 -0.11100
H 	H 	0.64940 0.39360 0.04470 0.07200
C 	C 	0.68580 0.35590 0.13100 0.06400
C 	C 	0.70180 0.39690 0.15160 -0.06200
H 	H 	0.72800 0.41170 0.13830 0.06800
C 	C 	0.67900 0.41650 0.19210 -0.07100
C 	C 	0.64060 0.39280 0.21210 -0.00400
H 	H 	0.62550 0.40450 0.24000 0.05800
C 	C 	0.62520 0.35130 0.18970 -0.04500
C 	C 	0.64760 0.33360 0.14890 -0.07400
H 	H 	0.63670 0.30650 0.13370 0.07200
C 	C 	0.69710 0.46000 0.21420 0.37100
C 	C 	0.58580 0.32420 0.21510 0.32400
C 	C 	0.66670 0.22820 0.35130 -0.07200
H 	H 	0.65410 0.25590 0.36370 0.07100
C 	C 	0.64530 0.20460 0.31090 -0.04300
C 	C 	0.60240 0.22600 0.28760 0.31800
C 	C 	0.85560 0.40360 0.37440 0.01900
C 	C 	0.88710 0.46610 0.30370 -0.03800
H 	H 	0.89390 0.49550 0.29080 0.05700
C 	C 	0.83080 0.45520 0.31370 -0.07200
C 	C 	0.82170 0.42850 0.35210 -0.03800
H 	H 	0.79120 0.42680 0.36400 0.05800
C 	C 	0.79570 0.48230 0.29000 0.34900
Ni	Ni	0.77413 0.27413 -0.00000 1.04200
Ni	Ni	0.22587 0.72587 -0.00000 1.04200
Ni	Ni	0.72587 0.77413 -0.00000 1.04200
Ni	Ni	0.27413 0.22587 -0.00000 1.04200
Ni	Ni	0.79353 0.29353 0.50000 1.05300
N 	N 	0.74450 0.24450 0.50000 -0.27500
N 	N 	0.84040 0.34040 0.50000 -0.30200
Ni	Ni	0.20647 0.70647 0.50000 1.05300
N 	N 	0.25550 0.75550 0.50000 -0.27500
N 	N 	0.15960 0.65960 0.50000 -0.30200
Ni	Ni	0.70647 0.79353 0.50000 1.05300
N 	N 	0.75550 0.74450 0.50000 -0.27500
N 	N 	0.65960 0.84040 0.50000 -0.30200
Ni	Ni	0.29353 0.20647 0.50000 1.05300
N 	N 	0.24450 0.25550 0.50000 -0.27500
N 	N 	0.34040 0.15960 0.50000 -0.30200
N 	N 	0.77470 0.27470 0.07200 -0.28000
N 	N 	0.79330 0.29330 0.42920 -0.29300
C 	C 	0.68980 0.18980 0.47590 -0.08100
H 	H 	0.67130 0.17130 0.45550 0.06400
C 	C 	0.72420 0.22420 0.46000 0.09900
C 	C 	0.73500 0.23500 0.41170 -0.13300
C 	C 	0.76720 0.26720 0.39740 0.10600
C 	C 	0.77660 0.27660 0.34730 -0.08400
H 	H 	0.76260 0.26260 0.32010 0.06800
C 	C 	0.80760 0.30760 0.34670 -0.08600
H 	H 	0.82160 0.32160 0.31930 0.06900
C 	C 	0.81650 0.31650 0.39700 0.10800
C 	C 	0.85180 0.35180 0.41210 -0.10800
C 	C 	0.86110 0.36110 0.46460 0.10600
C 	C 	0.89610 0.39610 0.47560 -0.08600
H 	H 	0.91400 0.41400 0.45400 0.06700
C 	C 	0.70820 0.20820 0.37260 0.06300
C 	C 	0.66640 0.16640 0.28750 -0.01900
H 	H 	0.65550 0.15550 0.25730 0.06400
C 	C 	0.90180 0.40180 0.35870 -0.01400
C 	C 	0.93230 0.43230 0.31340 0.00700
N 	N 	0.22530 0.72530 0.07200 -0.28000
N 	N 	0.20670 0.70670 0.42920 -0.29300
C 	C 	0.31020 0.81020 0.47590 -0.08100
H 	H 	0.32870 0.82870 0.45550 0.06400
C 	C 	0.27580 0.77580 0.46000 0.09900
C 	C 	0.26500 0.76500 0.41170 -0.13300
C 	C 	0.23280 0.73280 0.39740 0.10600
C 	C 	0.22340 0.72340 0.34730 -0.08400
H 	H 	0.23740 0.73740 0.32010 0.06800
C 	C 	0.19240 0.69240 0.34670 -0.08600
H 	H 	0.17840 0.67840 0.31930 0.06900
C 	C 	0.18350 0.68350 0.39700 0.10800
C 	C 	0.14820 0.64820 0.41210 -0.10800
C 	C 	0.13890 0.63890 0.46460 0.10600
C 	C 	0.10390 0.60390 0.47560 -0.08600
H 	H 	0.08600 0.58600 0.45400 0.06700
C 	C 	0.29180 0.79180 0.37260 0.06300
C 	C 	0.33360 0.83360 0.28750 -0.01900
H 	H 	0.34450 0.84450 0.25730 0.06400
C 	C 	0.09820 0.59820 0.35870 -0.01400
C 	C 	0.06770 0.56770 0.31340 0.00700
N 	N 	0.72530 0.77470 0.07200 -0.28000
N 	N 	0.70670 0.79330 0.42920 -0.29300
C 	C 	0.81020 0.68980 0.47590 -0.08100
H 	H 	0.82870 0.67130 0.45550 0.06400
C 	C 	0.77580 0.72420 0.46000 0.09900
C 	C 	0.76500 0.73500 0.41170 -0.13300
C 	C 	0.73280 0.76720 0.39740 0.10600
C 	C 	0.72340 0.77660 0.34730 -0.08400
H 	H 	0.73740 0.76260 0.32010 0.06800
C 	C 	0.69240 0.80760 0.34670 -0.08600
H 	H 	0.67840 0.82160 0.31930 0.06900
C 	C 	0.68350 0.81650 0.39700 0.10800
C 	C 	0.64820 0.85180 0.41210 -0.10800
C 	C 	0.63890 0.86110 0.46460 0.10600
C 	C 	0.60390 0.89610 0.47560 -0.08600
H 	H 	0.58600 0.91400 0.45400 0.06700
C 	C 	0.79180 0.70820 0.37260 0.06300
C 	C 	0.83360 0.66640 0.28750 -0.01900
H 	H 	0.84450 0.65550 0.25730 0.06400
C 	C 	0.59820 0.90180 0.35870 -0.01400
C 	C 	0.56770 0.93230 0.31340 0.00700
N 	N 	0.27470 0.22530 0.07200 -0.28000
N 	N 	0.29330 0.20670 0.42920 -0.29300
C 	C 	0.18980 0.31020 0.47590 -0.08100
H 	H 	0.17130 0.32870 0.45550 0.06400
C 	C 	0.22420 0.27580 0.46000 0.09900
C 	C 	0.23500 0.26500 0.41170 -0.13300
C 	C 	0.26720 0.23280 0.39740 0.10600
C 	C 	0.27660 0.22340 0.34730 -0.08400
H 	H 	0.26260 0.23740 0.32010 0.06800
C 	C 	0.30760 0.19240 0.34670 -0.08600
H 	H 	0.32160 0.17840 0.31930 0.06900
C 	C 	0.31650 0.18350 0.39700 0.10800
C 	C 	0.35180 0.14820 0.41210 -0.10800
C 	C 	0.36110 0.13890 0.46460 0.10600
C 	C 	0.39610 0.10390 0.47560 -0.08600
H 	H 	0.41400 0.08600 0.45400 0.06700
C 	C 	0.20820 0.29180 0.37260 0.06300
C 	C 	0.16640 0.33360 0.28750 -0.01900
H 	H 	0.15550 0.34450 0.25730 0.06400
C 	C 	0.40180 0.09820 0.35870 -0.01400
C 	C 	0.43230 0.06770 0.31340 0.00700
N 	N 	0.72530 0.77470 0.92800 -0.27500
N 	N 	0.70670 0.79330 0.57080 -0.29300
C 	C 	0.81020 0.68980 0.52410 -0.08100
H 	H 	0.82870 0.67130 0.54450 0.06400
C 	C 	0.77580 0.72420 0.54000 0.09900
C 	C 	0.76500 0.73500 0.58830 -0.13400
C 	C 	0.73280 0.76720 0.60260 0.10600
C 	C 	0.72340 0.77660 0.65270 -0.08400
H 	H 	0.73740 0.76260 0.67990 0.06800
C 	C 	0.69240 0.80760 0.65330 -0.08600
H 	H 	0.67840 0.82160 0.68070 0.07000
C 	C 	0.68350 0.81650 0.60300 0.10800
C 	C 	0.64820 0.85180 0.58790 -0.10800
C 	C 	0.63890 0.86110 0.53540 0.10600
C 	C 	0.60390 0.89610 0.52440 -0.08600
H 	H 	0.58600 0.91400 0.54600 0.06700
C 	C 	0.79180 0.70820 0.62740 0.06300
C 	C 	0.83360 0.66640 0.71250 -0.02000
H 	H 	0.84450 0.65550 0.74270 0.06500
C 	C 	0.59820 0.90180 0.64130 -0.01400
C 	C 	0.56770 0.93230 0.68660 0.00800
N 	N 	0.27470 0.22530 0.92800 -0.27500
N 	N 	0.29330 0.20670 0.57080 -0.29300
C 	C 	0.18980 0.31020 0.52410 -0.08100
H 	H 	0.17130 0.32870 0.54450 0.06400
C 	C 	0.22420 0.27580 0.54000 0.09900
C 	C 	0.23500 0.26500 0.58830 -0.13400
C 	C 	0.26720 0.23280 0.60260 0.10600
C 	C 	0.27660 0.22340 0.65270 -0.08400
H 	H 	0.26260 0.23740 0.67990 0.06800
C 	C 	0.30760 0.19240 0.65330 -0.08600
H 	H 	0.32160 0.17840 0.68070 0.07000
C 	C 	0.31650 0.18350 0.60300 0.10800
C 	C 	0.35180 0.14820 0.58790 -0.10800
C 	C 	0.36110 0.13890 0.53540 0.10600
C 	C 	0.39610 0.10390 0.52440 -0.08600
H 	H 	0.41400 0.08600 0.54600 0.06700
C 	C 	0.20820 0.29180 0.62740 0.06300
C 	C 	0.16640 0.33360 0.71250 -0.02000
H 	H 	0.15550 0.34450 0.74270 0.06500
C 	C 	0.40180 0.09820 0.64130 -0.01400
C 	C 	0.43230 0.06770 0.68660 0.00800
N 	N 	0.77470 0.27470 0.92800 -0.27500
N 	N 	0.79330 0.29330 0.57080 -0.29300
C 	C 	0.68980 0.18980 0.52410 -0.08100
H 	H 	0.67130 0.17130 0.54450 0.06400
C 	C 	0.72420 0.22420 0.54000 0.09900
C 	C 	0.73500 0.23500 0.58830 -0.13400
C 	C 	0.76720 0.26720 0.60260 0.10600
C 	C 	0.77660 0.27660 0.65270 -0.08400
H 	H 	0.76260 0.26260 0.67990 0.06800
C 	C 	0.80760 0.30760 0.65330 -0.08600
H 	H 	0.82160 0.32160 0.68070 0.07000
C 	C 	0.81650 0.31650 0.60300 0.10800
C 	C 	0.85180 0.35180 0.58790 -0.10800
C 	C 	0.86110 0.36110 0.53540 0.10600
C 	C 	0.89610 0.39610 0.52440 -0.08600
H 	H 	0.91400 0.41400 0.54600 0.06700
C 	C 	0.70820 0.20820 0.62740 0.06300
C 	C 	0.66640 0.16640 0.71250 -0.02000
H 	H 	0.65550 0.15550 0.74270 0.06500
C 	C 	0.90180 0.40180 0.64130 -0.01400
C 	C 	0.93230 0.43230 0.68660 0.00800
N 	N 	0.22530 0.72530 0.92800 -0.27500
N 	N 	0.20670 0.70670 0.57080 -0.29300
C 	C 	0.31020 0.81020 0.52410 -0.08100
H 	H 	0.32870 0.82870 0.54450 0.06400
C 	C 	0.27580 0.77580 0.54000 0.09900
C 	C 	0.26500 0.76500 0.58830 -0.13400
C 	C 	0.23280 0.73280 0.60260 0.10600
C 	C 	0.22340 0.72340 0.65270 -0.08400
H 	H 	0.23740 0.73740 0.67990 0.06800
C 	C 	0.19240 0.69240 0.65330 -0.08600
H 	H 	0.17840 0.67840 0.68070 0.07000
C 	C 	0.18350 0.68350 0.60300 0.10800
C 	C 	0.14820 0.64820 0.58790 -0.10800
C 	C 	0.13890 0.63890 0.53540 0.10600
C 	C 	0.10390 0.60390 0.52440 -0.08600
H 	H 	0.08600 0.58600 0.54600 0.06700
C 	C 	0.29180 0.79180 0.62740 0.06300
C 	C 	0.33360 0.83360 0.71250 -0.02000
H 	H 	0.34450 0.84450 0.74270 0.06500
C 	C 	0.09820 0.59820 0.64130 -0.01400
C 	C 	0.06770 0.56770 0.68660 0.00800
N 	N 	0.82260 0.22540 -0.00000 -0.28600
N 	N 	0.17740 0.77460 -0.00000 -0.28600
N 	N 	0.77460 0.82260 -0.00000 -0.28600
N 	N 	0.22540 0.17740 -0.00000 -0.28600
N 	N 	0.67740 0.72540 -0.00000 -0.28600
N 	N 	0.32260 0.27460 -0.00000 -0.28600
N 	N 	0.72540 0.32260 -0.00000 -0.28600
N 	N 	0.27460 0.67740 -0.00000 -0.28600
