data_crystal

_cell_length_a 22.50530
_cell_length_b 22.50530
_cell_length_c 36.44400
_cell_angle_alpha 90.00000
_cell_angle_beta  90.00000
_cell_angle_gamma 120.00000

_symmetry_space_group_name_	'P 1'
_symmetry_space_group_name_H-M	'P 1'

loop_
_symmetry_equiv_pos_as_xyz
  x,y,z

loop_
_atom_site_label
_atom_site_type_symbol
_atom_site_fract_x
_atom_site_fract_y
_atom_site_fract_z
_atom_site_charge
Cu	Cu	0.04755 0.68325 0.01345 0.68800
O 	O 	0.35480 0.78620 0.18991 -0.32100
O 	O 	0.24246 0.72754 0.19696 -0.45100
O 	O 	0.09777 0.63035 0.08877 -0.47000
O 	O 	0.12709 0.69406 0.03794 -0.50600
C 	C 	0.38010 0.96520 0.09623 -0.06400
H 	H 	0.34620 0.93710 0.11280 0.02600
C 	C 	0.40480 0.94320 0.06644 0.04700
C 	C 	0.38000 0.87530 0.05640 -0.13300
C 	C 	0.40180 0.85480 0.02558 0.10000
C 	C 	0.37710 0.78470 0.01569 -0.09100
H 	H 	0.34570 0.74620 0.02880 0.06900
C 	C 	0.32510 0.82060 0.07969 0.03700
C 	C 	0.33680 0.81180 0.11598 -0.05300
H 	H 	0.38010 0.83920 0.12610 0.06200
C 	C 	0.28480 0.76250 0.13745 -0.08500
C 	C 	0.22130 0.71910 0.12191 0.02000
H 	H 	0.18660 0.68540 0.13620 0.03400
C 	C 	0.20910 0.72560 0.08536 -0.11200
C 	C 	0.26080 0.77690 0.06458 -0.05400
H 	H 	0.25250 0.78230 0.04020 0.03100
C 	C 	0.29560 0.75800 0.17777 0.34400
C 	C 	0.13940 0.68010 0.06877 0.37600
Cu	Cu	0.31675 0.36430 0.01345 0.69000
O 	O 	0.21380 0.56860 0.18991 -0.32600
O 	O 	0.27246 0.51492 0.19696 -0.45200
O 	O 	0.36965 0.46742 0.08877 -0.46800
O 	O 	0.30594 0.43303 0.03794 -0.50700
C 	C 	0.03480 0.41490 0.09623 -0.15700
H 	H 	0.06290 0.40910 0.11280 0.04800
C 	C 	0.05680 0.46160 0.06644 0.05300
C 	C 	0.12470 0.50470 0.05640 -0.14000
C 	C 	0.14520 0.54700 0.02558 0.10000
C 	C 	0.21530 0.59240 0.01569 -0.09100
H 	H 	0.25380 0.59950 0.02880 0.06900
C 	C 	0.17940 0.50450 0.07969 0.03900
C 	C 	0.18820 0.52500 0.11598 -0.05500
H 	H 	0.16080 0.54090 0.12610 0.06000
C 	C 	0.23750 0.52230 0.13745 -0.08600
C 	C 	0.28090 0.50220 0.12191 0.01800
H 	H 	0.31460 0.50120 0.13620 0.03400
C 	C 	0.27440 0.48350 0.08536 -0.11200
C 	C 	0.22310 0.48390 0.06458 -0.05600
H 	H 	0.21770 0.47020 0.04020 0.03100
C 	C 	0.24200 0.53760 0.17777 0.34300
C 	C 	0.31990 0.45930 0.06877 0.37500
Cu	Cu	0.63570 0.95245 0.01345 0.70200
O 	O 	0.43140 0.64520 0.18991 -0.32300
O 	O 	0.48508 0.75754 0.19696 -0.44800
O 	O 	0.53258 0.90223 0.08877 -0.45700
O 	O 	0.56697 0.87291 0.03794 -0.50000
C 	C 	0.58510 0.61990 0.09623 -0.10800
H 	H 	0.59090 0.65380 0.11280 0.03800
C 	C 	0.53840 0.59520 0.06644 0.04200
C 	C 	0.49530 0.62000 0.05640 -0.13400
C 	C 	0.45300 0.59820 0.02558 0.09800
C 	C 	0.40760 0.62290 0.01569 -0.09100
H 	H 	0.40050 0.65430 0.02880 0.06900
C 	C 	0.49550 0.67490 0.07969 0.03900
C 	C 	0.47500 0.66320 0.11598 -0.05400
H 	H 	0.45910 0.61990 0.12610 0.06100
C 	C 	0.47770 0.71520 0.13745 -0.08400
C 	C 	0.49780 0.77870 0.12191 0.01800
H 	H 	0.49880 0.81340 0.13620 0.03700
C 	C 	0.51650 0.79090 0.08536 -0.10900
C 	C 	0.51610 0.73920 0.06458 -0.05500
H 	H 	0.52980 0.74750 0.04020 0.03200
C 	C 	0.46240 0.70440 0.17777 0.34300
C 	C 	0.54070 0.86060 0.06877 0.37500
Cu	Cu	0.95245 0.31675 0.51345 0.70200
O 	O 	0.64520 0.21380 0.68991 -0.32500
O 	O 	0.75754 0.27246 0.69696 -0.44900
O 	O 	0.90223 0.36965 0.58877 -0.45800
O 	O 	0.87291 0.30594 0.53794 -0.49900
C 	C 	0.61990 0.03480 0.59623 -0.15500
H 	H 	0.65380 0.06290 0.61280 0.05000
C 	C 	0.59520 0.05680 0.56644 0.05300
C 	C 	0.62000 0.12470 0.55640 -0.13800
C 	C 	0.59820 0.14520 0.52558 0.09600
C 	C 	0.62290 0.21530 0.51569 -0.07400
H 	H 	0.65430 0.25380 0.52880 0.06400
C 	C 	0.67490 0.17940 0.57969 0.04000
C 	C 	0.66320 0.18820 0.61598 -0.05600
H 	H 	0.61990 0.16080 0.62610 0.06000
C 	C 	0.71520 0.23750 0.63745 -0.08400
C 	C 	0.77870 0.28090 0.62191 0.01700
H 	H 	0.81340 0.31460 0.63620 0.03700
C 	C 	0.79090 0.27440 0.58536 -0.10800
C 	C 	0.73920 0.22310 0.56458 -0.05700
H 	H 	0.74750 0.21770 0.54020 0.03400
C 	C 	0.70440 0.24200 0.67777 0.34300
C 	C 	0.86060 0.31990 0.56877 0.37400
Cu	Cu	0.68325 0.63570 0.51345 0.69500
O 	O 	0.78620 0.43140 0.68991 -0.32100
O 	O 	0.72754 0.48508 0.69696 -0.44900
O 	O 	0.63035 0.53258 0.58877 -0.46600
O 	O 	0.69406 0.56697 0.53794 -0.50200
C 	C 	0.96520 0.58510 0.59623 -0.06400
H 	H 	0.93710 0.59090 0.61280 0.02700
C 	C 	0.94320 0.53840 0.56644 0.04800
C 	C 	0.87530 0.49530 0.55640 -0.13000
C 	C 	0.85480 0.45300 0.52558 0.09600
C 	C 	0.78470 0.40760 0.51569 -0.07400
H 	H 	0.74620 0.40050 0.52880 0.06400
C 	C 	0.82060 0.49550 0.57969 0.03800
C 	C 	0.81180 0.47500 0.61598 -0.05300
H 	H 	0.83920 0.45910 0.62610 0.06200
C 	C 	0.76250 0.47770 0.63745 -0.08400
C 	C 	0.71910 0.49780 0.62191 0.01900
H 	H 	0.68540 0.49880 0.63620 0.03600
C 	C 	0.72560 0.51650 0.58536 -0.11000
C 	C 	0.77690 0.51610 0.56458 -0.05400
H 	H 	0.78230 0.52980 0.54020 0.03400
C 	C 	0.75800 0.46240 0.67777 0.34300
C 	C 	0.68010 0.54070 0.56877 0.37600
Cu	Cu	0.36430 0.04755 0.51345 0.68700
O 	O 	0.56860 0.35480 0.68991 -0.32400
O 	O 	0.51492 0.24246 0.69696 -0.45300
O 	O 	0.46742 0.09777 0.58877 -0.47000
O 	O 	0.43303 0.12709 0.53794 -0.50600
C 	C 	0.41490 0.38010 0.59623 -0.10900
H 	H 	0.40910 0.34620 0.61280 0.03500
C 	C 	0.46160 0.40480 0.56644 0.04000
C 	C 	0.50470 0.38000 0.55640 -0.13100
C 	C 	0.54700 0.40180 0.52558 0.09400
C 	C 	0.59240 0.37710 0.51569 -0.07300
H 	H 	0.59950 0.34570 0.52880 0.06400
C 	C 	0.50450 0.32510 0.57969 0.03600
C 	C 	0.52500 0.33680 0.61598 -0.05200
H 	H 	0.54090 0.38010 0.62610 0.06000
C 	C 	0.52230 0.28480 0.63745 -0.08700
C 	C 	0.50220 0.22130 0.62191 0.02000
H 	H 	0.50120 0.18660 0.63620 0.03300
C 	C 	0.48350 0.20910 0.58536 -0.11300
C 	C 	0.48390 0.26080 0.56458 -0.05400
H 	H 	0.47020 0.25250 0.54020 0.03200
C 	C 	0.53760 0.29560 0.67777 0.34400
C 	C 	0.45930 0.13940 0.56877 0.37600
Cu	Cu	0.68325 0.04755 0.48655 0.68900
O 	O 	0.78620 0.35480 0.31009 -0.32100
O 	O 	0.72754 0.24246 0.30304 -0.45100
O 	O 	0.63035 0.09777 0.41123 -0.46900
O 	O 	0.69406 0.12709 0.46206 -0.50400
C 	C 	0.96520 0.38010 0.40377 -0.06400
H 	H 	0.93710 0.34620 0.38720 0.02600
C 	C 	0.94320 0.40480 0.43356 0.04700
C 	C 	0.87530 0.38000 0.44360 -0.13000
C 	C 	0.85480 0.40180 0.47442 0.09600
C 	C 	0.78470 0.37710 0.48431 -0.07400
H 	H 	0.74620 0.34570 0.47120 0.06400
C 	C 	0.82060 0.32510 0.42031 0.03700
C 	C 	0.81180 0.33680 0.38402 -0.05300
H 	H 	0.83920 0.38010 0.37390 0.06200
C 	C 	0.76250 0.28480 0.36255 -0.08500
C 	C 	0.71910 0.22130 0.37809 0.02000
H 	H 	0.68540 0.18660 0.36380 0.03400
C 	C 	0.72560 0.20910 0.41464 -0.11200
C 	C 	0.77690 0.26080 0.43542 -0.05400
H 	H 	0.78230 0.25250 0.45980 0.03300
C 	C 	0.75800 0.29560 0.32223 0.34400
C 	C 	0.68010 0.13940 0.43123 0.37600
Cu	Cu	0.36430 0.31675 0.48655 0.69100
O 	O 	0.56860 0.21380 0.31009 -0.32600
O 	O 	0.51492 0.27246 0.30304 -0.45200
O 	O 	0.46742 0.36965 0.41123 -0.46800
O 	O 	0.43303 0.30594 0.46206 -0.50500
C 	C 	0.41490 0.03480 0.40377 -0.15600
H 	H 	0.40910 0.06290 0.38720 0.04800
C 	C 	0.46160 0.05680 0.43356 0.05300
C 	C 	0.50470 0.12470 0.44360 -0.13800
C 	C 	0.54700 0.14520 0.47442 0.09600
C 	C 	0.59240 0.21530 0.48431 -0.07400
H 	H 	0.59950 0.25380 0.47120 0.06400
C 	C 	0.50450 0.17940 0.42031 0.03900
C 	C 	0.52500 0.18820 0.38402 -0.05500
H 	H 	0.54090 0.16080 0.37390 0.06000
C 	C 	0.52230 0.23750 0.36255 -0.08600
C 	C 	0.50220 0.28090 0.37809 0.01800
H 	H 	0.50120 0.31460 0.36380 0.03400
C 	C 	0.48350 0.27440 0.41464 -0.11100
C 	C 	0.48390 0.22310 0.43542 -0.05600
H 	H 	0.47020 0.21770 0.45980 0.03200
C 	C 	0.53760 0.24200 0.32223 0.34300
C 	C 	0.45930 0.31990 0.43123 0.37500
Cu	Cu	0.95245 0.63570 0.48655 0.70400
O 	O 	0.64520 0.43140 0.31009 -0.32300
O 	O 	0.75754 0.48508 0.30304 -0.44800
O 	O 	0.90223 0.53258 0.41123 -0.45700
O 	O 	0.87291 0.56697 0.46206 -0.49800
C 	C 	0.61990 0.58510 0.40377 -0.10800
H 	H 	0.65380 0.59090 0.38720 0.03900
C 	C 	0.59520 0.53840 0.43356 0.04200
C 	C 	0.62000 0.49530 0.44360 -0.13200
C 	C 	0.59820 0.45300 0.47442 0.09400
C 	C 	0.62290 0.40760 0.48431 -0.07400
H 	H 	0.65430 0.40050 0.47120 0.06400
C 	C 	0.67490 0.49550 0.42031 0.03800
C 	C 	0.66320 0.47500 0.38402 -0.05400
H 	H 	0.61990 0.45910 0.37390 0.06100
C 	C 	0.71520 0.47770 0.36255 -0.08300
C 	C 	0.77870 0.49780 0.37809 0.01800
H 	H 	0.81340 0.49880 0.36380 0.03700
C 	C 	0.79090 0.51650 0.41464 -0.10800
C 	C 	0.73920 0.51610 0.43542 -0.05500
H 	H 	0.74750 0.52980 0.45980 0.03400
C 	C 	0.70440 0.46240 0.32223 0.34300
C 	C 	0.86060 0.54070 0.43123 0.37400
Cu	Cu	0.31675 0.95245 0.98655 0.70400
O 	O 	0.21380 0.64520 0.81009 -0.32500
O 	O 	0.27246 0.75754 0.80304 -0.44900
O 	O 	0.36965 0.90223 0.91123 -0.45800
O 	O 	0.30594 0.87291 0.96206 -0.49700
C 	C 	0.03480 0.61990 0.90377 -0.15500
H 	H 	0.06290 0.65380 0.88720 0.05000
C 	C 	0.05680 0.59520 0.93356 0.05400
C 	C 	0.12470 0.62000 0.94360 -0.13800
C 	C 	0.14520 0.59820 0.97442 0.09900
C 	C 	0.21530 0.62290 0.98431 -0.05800
H 	H 	0.25380 0.65430 0.97120 0.06000
C 	C 	0.17940 0.67490 0.92031 0.04100
C 	C 	0.18820 0.66320 0.88402 -0.05600
H 	H 	0.16080 0.61990 0.87390 0.06000
C 	C 	0.23750 0.71520 0.86255 -0.08400
C 	C 	0.28090 0.77870 0.87809 0.01600
H 	H 	0.31460 0.81340 0.86380 0.03700
C 	C 	0.27440 0.79090 0.91464 -0.10700
C 	C 	0.22310 0.73920 0.93542 -0.05800
H 	H 	0.21770 0.74750 0.95980 0.03500
C 	C 	0.24200 0.70440 0.82223 0.34200
C 	C 	0.31990 0.86060 0.93123 0.37400
Cu	Cu	0.63570 0.68325 0.98655 0.69700
O 	O 	0.43140 0.78620 0.81009 -0.32100
O 	O 	0.48508 0.72754 0.80304 -0.44800
O 	O 	0.53258 0.63035 0.91123 -0.46600
O 	O 	0.56697 0.69406 0.96206 -0.50000
C 	C 	0.58510 0.96520 0.90377 -0.06500
H 	H 	0.59090 0.93710 0.88720 0.02800
C 	C 	0.53840 0.94320 0.93356 0.04900
C 	C 	0.49530 0.87530 0.94360 -0.13000
C 	C 	0.45300 0.85480 0.97442 0.09900
C 	C 	0.40760 0.78470 0.98431 -0.05800
H 	H 	0.40050 0.74620 0.97120 0.06000
C 	C 	0.49550 0.82060 0.92031 0.03800
C 	C 	0.47500 0.81180 0.88402 -0.05400
H 	H 	0.45910 0.83920 0.87390 0.06200
C 	C 	0.47770 0.76250 0.86255 -0.08300
C 	C 	0.49780 0.71910 0.87809 0.01800
H 	H 	0.49880 0.68540 0.86380 0.03600
C 	C 	0.51650 0.72560 0.91464 -0.10800
C 	C 	0.51610 0.77690 0.93542 -0.05500
H 	H 	0.52980 0.78230 0.95980 0.03500
C 	C 	0.46240 0.75800 0.82223 0.34300
C 	C 	0.54070 0.68010 0.93123 0.37500
Cu	Cu	0.04755 0.36430 0.98655 0.68900
O 	O 	0.35480 0.56860 0.81009 -0.32400
O 	O 	0.24246 0.51492 0.80304 -0.45300
O 	O 	0.09777 0.46742 0.91123 -0.47000
O 	O 	0.12709 0.43303 0.96206 -0.50300
C 	C 	0.38010 0.41490 0.90377 -0.10900
H 	H 	0.34620 0.40910 0.88720 0.03600
C 	C 	0.40480 0.46160 0.93356 0.04200
C 	C 	0.38000 0.50470 0.94360 -0.13100
C 	C 	0.40180 0.54700 0.97442 0.09600
C 	C 	0.37710 0.59240 0.98431 -0.05800
H 	H 	0.34570 0.59950 0.97120 0.06000
C 	C 	0.32510 0.50450 0.92031 0.03700
C 	C 	0.33680 0.52500 0.88402 -0.05300
H 	H 	0.38010 0.54090 0.87390 0.06000
C 	C 	0.28480 0.52230 0.86255 -0.08700
C 	C 	0.22130 0.50220 0.87809 0.01900
H 	H 	0.18660 0.50120 0.86380 0.03300
C 	C 	0.20910 0.48350 0.91464 -0.11200
C 	C 	0.26080 0.48390 0.93542 -0.05500
H 	H 	0.25250 0.47020 0.95980 0.03400
C 	C 	0.29560 0.53760 0.82223 0.34400
C 	C 	0.13940 0.45930 0.93123 0.37500
Cu	Cu	0.95245 0.31675 0.98655 0.70400
O 	O 	0.64520 0.21380 0.81009 -0.32500
O 	O 	0.75754 0.27246 0.80304 -0.44900
O 	O 	0.90223 0.36965 0.91123 -0.45800
O 	O 	0.87291 0.30594 0.96206 -0.49700
C 	C 	0.61990 0.03480 0.90377 -0.15500
H 	H 	0.65380 0.06290 0.88720 0.05000
C 	C 	0.59520 0.05680 0.93356 0.05400
C 	C 	0.62000 0.12470 0.94360 -0.13800
C 	C 	0.59820 0.14520 0.97442 0.09900
C 	C 	0.62290 0.21530 0.98431 -0.05800
H 	H 	0.65430 0.25380 0.97120 0.06000
C 	C 	0.67490 0.17940 0.92031 0.04100
C 	C 	0.66320 0.18820 0.88402 -0.05600
H 	H 	0.61990 0.16080 0.87390 0.06000
C 	C 	0.71520 0.23750 0.86255 -0.08400
C 	C 	0.77870 0.28090 0.87809 0.01600
H 	H 	0.81340 0.31460 0.86380 0.03700
C 	C 	0.79090 0.27440 0.91464 -0.10700
C 	C 	0.73920 0.22310 0.93542 -0.05800
H 	H 	0.74750 0.21770 0.95980 0.03500
C 	C 	0.70440 0.24200 0.82223 0.34200
C 	C 	0.86060 0.31990 0.93123 0.37400
Cu	Cu	0.68325 0.63570 0.98655 0.69700
O 	O 	0.78620 0.43140 0.81009 -0.32100
O 	O 	0.72754 0.48508 0.80304 -0.44800
O 	O 	0.63035 0.53258 0.91123 -0.46600
O 	O 	0.69406 0.56697 0.96206 -0.50000
C 	C 	0.96520 0.58510 0.90377 -0.06500
H 	H 	0.93710 0.59090 0.88720 0.02800
C 	C 	0.94320 0.53840 0.93356 0.04900
C 	C 	0.87530 0.49530 0.94360 -0.13000
C 	C 	0.85480 0.45300 0.97442 0.09900
C 	C 	0.78470 0.40760 0.98431 -0.05800
H 	H 	0.74620 0.40050 0.97120 0.06000
C 	C 	0.82060 0.49550 0.92031 0.03800
C 	C 	0.81180 0.47500 0.88402 -0.05400
H 	H 	0.83920 0.45910 0.87390 0.06200
C 	C 	0.76250 0.47770 0.86255 -0.08300
C 	C 	0.71910 0.49780 0.87809 0.01800
H 	H 	0.68540 0.49880 0.86380 0.03600
C 	C 	0.72560 0.51650 0.91464 -0.10800
C 	C 	0.77690 0.51610 0.93542 -0.05500
H 	H 	0.78230 0.52980 0.95980 0.03500
C 	C 	0.75800 0.46240 0.82223 0.34300
C 	C 	0.68010 0.54070 0.93123 0.37500
Cu	Cu	0.36430 0.04755 0.98655 0.68900
O 	O 	0.56860 0.35480 0.81009 -0.32400
O 	O 	0.51492 0.24246 0.80304 -0.45300
O 	O 	0.46742 0.09777 0.91123 -0.47000
O 	O 	0.43303 0.12709 0.96206 -0.50300
C 	C 	0.41490 0.38010 0.90377 -0.10900
H 	H 	0.40910 0.34620 0.88720 0.03600
C 	C 	0.46160 0.40480 0.93356 0.04200
C 	C 	0.50470 0.38000 0.94360 -0.13100
C 	C 	0.54700 0.40180 0.97442 0.09600
C 	C 	0.59240 0.37710 0.98431 -0.05800
H 	H 	0.59950 0.34570 0.97120 0.06000
C 	C 	0.50450 0.32510 0.92031 0.03700
C 	C 	0.52500 0.33680 0.88402 -0.05300
H 	H 	0.54090 0.38010 0.87390 0.06000
C 	C 	0.52230 0.28480 0.86255 -0.08700
C 	C 	0.50220 0.22130 0.87809 0.01900
H 	H 	0.50120 0.18660 0.86380 0.03300
C 	C 	0.48350 0.20910 0.91464 -0.11200
C 	C 	0.48390 0.26080 0.93542 -0.05500
H 	H 	0.47020 0.25250 0.95980 0.03400
C 	C 	0.53760 0.29560 0.82223 0.34400
C 	C 	0.45930 0.13940 0.93123 0.37500
Cu	Cu	0.04755 0.68325 0.48655 0.68900
O 	O 	0.35480 0.78620 0.31009 -0.32100
O 	O 	0.24246 0.72754 0.30304 -0.45100
O 	O 	0.09777 0.63035 0.41123 -0.46900
O 	O 	0.12709 0.69406 0.46206 -0.50400
C 	C 	0.38010 0.96520 0.40377 -0.06400
H 	H 	0.34620 0.93710 0.38720 0.02600
C 	C 	0.40480 0.94320 0.43356 0.04700
C 	C 	0.38000 0.87530 0.44360 -0.13000
C 	C 	0.40180 0.85480 0.47442 0.09600
C 	C 	0.37710 0.78470 0.48431 -0.07400
H 	H 	0.34570 0.74620 0.47120 0.06400
C 	C 	0.32510 0.82060 0.42031 0.03700
C 	C 	0.33680 0.81180 0.38402 -0.05300
H 	H 	0.38010 0.83920 0.37390 0.06200
C 	C 	0.28480 0.76250 0.36255 -0.08500
C 	C 	0.22130 0.71910 0.37809 0.02000
H 	H 	0.18660 0.68540 0.36380 0.03400
C 	C 	0.20910 0.72560 0.41464 -0.11200
C 	C 	0.26080 0.77690 0.43542 -0.05400
H 	H 	0.25250 0.78230 0.45980 0.03300
C 	C 	0.29560 0.75800 0.32223 0.34400
C 	C 	0.13940 0.68010 0.43123 0.37600
Cu	Cu	0.31675 0.36430 0.48655 0.69100
O 	O 	0.21380 0.56860 0.31009 -0.32600
O 	O 	0.27246 0.51492 0.30304 -0.45200
O 	O 	0.36965 0.46742 0.41123 -0.46800
O 	O 	0.30594 0.43303 0.46206 -0.50500
C 	C 	0.03480 0.41490 0.40377 -0.15600
H 	H 	0.06290 0.40910 0.38720 0.04800
C 	C 	0.05680 0.46160 0.43356 0.05300
C 	C 	0.12470 0.50470 0.44360 -0.13800
C 	C 	0.14520 0.54700 0.47442 0.09600
C 	C 	0.21530 0.59240 0.48431 -0.07400
H 	H 	0.25380 0.59950 0.47120 0.06400
C 	C 	0.17940 0.50450 0.42031 0.03900
C 	C 	0.18820 0.52500 0.38402 -0.05500
H 	H 	0.16080 0.54090 0.37390 0.06000
C 	C 	0.23750 0.52230 0.36255 -0.08600
C 	C 	0.28090 0.50220 0.37809 0.01800
H 	H 	0.31460 0.50120 0.36380 0.03400
C 	C 	0.27440 0.48350 0.41464 -0.11100
C 	C 	0.22310 0.48390 0.43542 -0.05600
H 	H 	0.21770 0.47020 0.45980 0.03200
C 	C 	0.24200 0.53760 0.32223 0.34300
C 	C 	0.31990 0.45930 0.43123 0.37500
Cu	Cu	0.63570 0.95245 0.48655 0.70400
O 	O 	0.43140 0.64520 0.31009 -0.32300
O 	O 	0.48508 0.75754 0.30304 -0.44800
O 	O 	0.53258 0.90223 0.41123 -0.45700
O 	O 	0.56697 0.87291 0.46206 -0.49800
C 	C 	0.58510 0.61990 0.40377 -0.10800
H 	H 	0.59090 0.65380 0.38720 0.03900
C 	C 	0.53840 0.59520 0.43356 0.04200
C 	C 	0.49530 0.62000 0.44360 -0.13200
C 	C 	0.45300 0.59820 0.47442 0.09400
C 	C 	0.40760 0.62290 0.48431 -0.07400
H 	H 	0.40050 0.65430 0.47120 0.06400
C 	C 	0.49550 0.67490 0.42031 0.03800
C 	C 	0.47500 0.66320 0.38402 -0.05400
H 	H 	0.45910 0.61990 0.37390 0.06100
C 	C 	0.47770 0.71520 0.36255 -0.08300
C 	C 	0.49780 0.77870 0.37809 0.01800
H 	H 	0.49880 0.81340 0.36380 0.03700
C 	C 	0.51650 0.79090 0.41464 -0.10800
C 	C 	0.51610 0.73920 0.43542 -0.05500
H 	H 	0.52980 0.74750 0.45980 0.03400
C 	C 	0.46240 0.70440 0.32223 0.34300
C 	C 	0.54070 0.86060 0.43123 0.37400
Cu	Cu	0.31675 0.95245 0.51345 0.70200
O 	O 	0.21380 0.64520 0.68991 -0.32500
O 	O 	0.27246 0.75754 0.69696 -0.44900
O 	O 	0.36965 0.90223 0.58877 -0.45800
O 	O 	0.30594 0.87291 0.53794 -0.49900
C 	C 	0.03480 0.61990 0.59623 -0.15500
H 	H 	0.06290 0.65380 0.61280 0.05000
C 	C 	0.05680 0.59520 0.56644 0.05300
C 	C 	0.12470 0.62000 0.55640 -0.13800
C 	C 	0.14520 0.59820 0.52558 0.09600
C 	C 	0.21530 0.62290 0.51569 -0.07400
H 	H 	0.25380 0.65430 0.52880 0.06400
C 	C 	0.17940 0.67490 0.57969 0.04000
C 	C 	0.18820 0.66320 0.61598 -0.05600
H 	H 	0.16080 0.61990 0.62610 0.06000
C 	C 	0.23750 0.71520 0.63745 -0.08400
C 	C 	0.28090 0.77870 0.62191 0.01700
H 	H 	0.31460 0.81340 0.63620 0.03700
C 	C 	0.27440 0.79090 0.58536 -0.10800
C 	C 	0.22310 0.73920 0.56458 -0.05700
H 	H 	0.21770 0.74750 0.54020 0.03400
C 	C 	0.24200 0.70440 0.67777 0.34300
C 	C 	0.31990 0.86060 0.56877 0.37400
Cu	Cu	0.63570 0.68325 0.51345 0.69500
O 	O 	0.43140 0.78620 0.68991 -0.32100
O 	O 	0.48508 0.72754 0.69696 -0.44900
O 	O 	0.53258 0.63035 0.58877 -0.46600
O 	O 	0.56697 0.69406 0.53794 -0.50200
C 	C 	0.58510 0.96520 0.59623 -0.06400
H 	H 	0.59090 0.93710 0.61280 0.02700
C 	C 	0.53840 0.94320 0.56644 0.04800
C 	C 	0.49530 0.87530 0.55640 -0.13000
C 	C 	0.45300 0.85480 0.52558 0.09600
C 	C 	0.40760 0.78470 0.51569 -0.07400
H 	H 	0.40050 0.74620 0.52880 0.06400
C 	C 	0.49550 0.82060 0.57969 0.03800
C 	C 	0.47500 0.81180 0.61598 -0.05300
H 	H 	0.45910 0.83920 0.62610 0.06200
C 	C 	0.47770 0.76250 0.63745 -0.08400
C 	C 	0.49780 0.71910 0.62191 0.01900
H 	H 	0.49880 0.68540 0.63620 0.03600
C 	C 	0.51650 0.72560 0.58536 -0.11000
C 	C 	0.51610 0.77690 0.56458 -0.05400
H 	H 	0.52980 0.78230 0.54020 0.03400
C 	C 	0.46240 0.75800 0.67777 0.34300
C 	C 	0.54070 0.68010 0.56877 0.37600
Cu	Cu	0.04755 0.36430 0.51345 0.68700
O 	O 	0.35480 0.56860 0.68991 -0.32400
O 	O 	0.24246 0.51492 0.69696 -0.45300
O 	O 	0.09777 0.46742 0.58877 -0.47000
O 	O 	0.12709 0.43303 0.53794 -0.50600
C 	C 	0.38010 0.41490 0.59623 -0.10900
H 	H 	0.34620 0.40910 0.61280 0.03500
C 	C 	0.40480 0.46160 0.56644 0.04000
C 	C 	0.38000 0.50470 0.55640 -0.13100
C 	C 	0.40180 0.54700 0.52558 0.09400
C 	C 	0.37710 0.59240 0.51569 -0.07300
H 	H 	0.34570 0.59950 0.52880 0.06400
C 	C 	0.32510 0.50450 0.57969 0.03600
C 	C 	0.33680 0.52500 0.61598 -0.05200
H 	H 	0.38010 0.54090 0.62610 0.06000
C 	C 	0.28480 0.52230 0.63745 -0.08700
C 	C 	0.22130 0.50220 0.62191 0.02000
H 	H 	0.18660 0.50120 0.63620 0.03300
C 	C 	0.20910 0.48350 0.58536 -0.11300
C 	C 	0.26080 0.48390 0.56458 -0.05400
H 	H 	0.25250 0.47020 0.54020 0.03200
C 	C 	0.29560 0.53760 0.67777 0.34400
C 	C 	0.13940 0.45930 0.56877 0.37600
Cu	Cu	0.68325 0.04755 0.01345 0.68700
O 	O 	0.78620 0.35480 0.18991 -0.32100
O 	O 	0.72754 0.24246 0.19696 -0.45100
O 	O 	0.63035 0.09777 0.08877 -0.47000
O 	O 	0.69406 0.12709 0.03794 -0.50600
C 	C 	0.96520 0.38010 0.09623 -0.06400
H 	H 	0.93710 0.34620 0.11280 0.02600
C 	C 	0.94320 0.40480 0.06644 0.04700
C 	C 	0.87530 0.38000 0.05640 -0.13300
C 	C 	0.85480 0.40180 0.02558 0.10000
C 	C 	0.78470 0.37710 0.01569 -0.09100
H 	H 	0.74620 0.34570 0.02880 0.06900
C 	C 	0.82060 0.32510 0.07969 0.03700
C 	C 	0.81180 0.33680 0.11598 -0.05300
H 	H 	0.83920 0.38010 0.12610 0.06200
C 	C 	0.76250 0.28480 0.13745 -0.08500
C 	C 	0.71910 0.22130 0.12191 0.02000
H 	H 	0.68540 0.18660 0.13620 0.03400
C 	C 	0.72560 0.20910 0.08536 -0.11200
C 	C 	0.77690 0.26080 0.06458 -0.05400
H 	H 	0.78230 0.25250 0.04020 0.03100
C 	C 	0.75800 0.29560 0.17777 0.34400
C 	C 	0.68010 0.13940 0.06877 0.37600
Cu	Cu	0.36430 0.31675 0.01345 0.69000
O 	O 	0.56860 0.21380 0.18991 -0.32600
O 	O 	0.51492 0.27246 0.19696 -0.45200
O 	O 	0.46742 0.36965 0.08877 -0.46800
O 	O 	0.43303 0.30594 0.03794 -0.50700
C 	C 	0.41490 0.03480 0.09623 -0.15700
H 	H 	0.40910 0.06290 0.11280 0.04800
C 	C 	0.46160 0.05680 0.06644 0.05300
C 	C 	0.50470 0.12470 0.05640 -0.14000
C 	C 	0.54700 0.14520 0.02558 0.10000
C 	C 	0.59240 0.21530 0.01569 -0.09100
H 	H 	0.59950 0.25380 0.02880 0.06900
C 	C 	0.50450 0.17940 0.07969 0.03900
C 	C 	0.52500 0.18820 0.11598 -0.05500
H 	H 	0.54090 0.16080 0.12610 0.06000
C 	C 	0.52230 0.23750 0.13745 -0.08600
C 	C 	0.50220 0.28090 0.12191 0.01800
H 	H 	0.50120 0.31460 0.13620 0.03400
C 	C 	0.48350 0.27440 0.08536 -0.11200
C 	C 	0.48390 0.22310 0.06458 -0.05600
H 	H 	0.47020 0.21770 0.04020 0.03100
C 	C 	0.53760 0.24200 0.17777 0.34300
C 	C 	0.45930 0.31990 0.06877 0.37500
Cu	Cu	0.95245 0.63570 0.01345 0.70200
O 	O 	0.64520 0.43140 0.18991 -0.32300
O 	O 	0.75754 0.48508 0.19696 -0.44800
O 	O 	0.90223 0.53258 0.08877 -0.45700
O 	O 	0.87291 0.56697 0.03794 -0.50000
C 	C 	0.61990 0.58510 0.09623 -0.10800
H 	H 	0.65380 0.59090 0.11280 0.03800
C 	C 	0.59520 0.53840 0.06644 0.04200
C 	C 	0.62000 0.49530 0.05640 -0.13400
C 	C 	0.59820 0.45300 0.02558 0.09800
C 	C 	0.62290 0.40760 0.01569 -0.09100
H 	H 	0.65430 0.40050 0.02880 0.06900
C 	C 	0.67490 0.49550 0.07969 0.03900
C 	C 	0.66320 0.47500 0.11598 -0.05400
H 	H 	0.61990 0.45910 0.12610 0.06100
C 	C 	0.71520 0.47770 0.13745 -0.08400
C 	C 	0.77870 0.49780 0.12191 0.01800
H 	H 	0.81340 0.49880 0.13620 0.03700
C 	C 	0.79090 0.51650 0.08536 -0.10900
C 	C 	0.73920 0.51610 0.06458 -0.05500
H 	H 	0.74750 0.52980 0.04020 0.03200
C 	C 	0.70440 0.46240 0.17777 0.34300
C 	C 	0.86060 0.54070 0.06877 0.37500
Cu	Cu	0.00000 0.57961 0.08451 0.85400
Cu	Cu	0.42039 0.42039 0.08451 0.86000
Cu	Cu	0.57961 0.00000 0.08451 0.85400
Cu	Cu	-0.00000 0.42039 0.58451 0.85300
Cu	Cu	0.57961 0.57961 0.58451 0.86200
Cu	Cu	0.42039 0.00000 0.58451 0.85300
Cu	Cu	0.57961 0.00000 0.41549 0.85400
Cu	Cu	0.42039 0.42039 0.41549 0.86000
Cu	Cu	0.00000 0.57961 0.41549 0.85400
Cu	Cu	0.42039 0.00000 0.91549 0.85300
Cu	Cu	0.57961 0.57961 0.91549 0.86200
Cu	Cu	-0.00000 0.42039 0.91549 0.85300
Cu	Cu	0.24419 0.72968 0.25000 0.84200
Cu	Cu	0.27032 0.51451 0.25000 0.84100
Cu	Cu	0.48549 0.75581 0.25000 0.84400
Cu	Cu	0.75581 0.27032 0.75000 0.84300
Cu	Cu	0.72968 0.48549 0.75000 0.84400
Cu	Cu	0.51451 0.24419 0.75000 0.84100
Cu	Cu	0.72968 0.24419 0.25000 0.84200
Cu	Cu	0.51451 0.27032 0.25000 0.84100
Cu	Cu	0.75581 0.48549 0.25000 0.84400
Cu	Cu	0.27032 0.75581 0.75000 0.84300
Cu	Cu	0.48549 0.72968 0.75000 0.84400
Cu	Cu	0.24419 0.51451 0.75000 0.84100
Mn	Mn	0.50000 0.00000 -0.00000 1.26600
Mn	Mn	0.00000 0.50000 -0.00000 1.26600
Mn	Mn	0.50000 0.50000 -0.00000 1.27000
Mn	Mn	0.50000 0.00000 0.50000 1.26800
Mn	Mn	-0.00000 0.50000 0.50000 1.26800
Mn	Mn	0.50000 0.50000 0.50000 1.27200
O 	O 	0.58919 0.00000 0.03094 -0.70100
N 	N 	0.45520 0.00000 0.04807 -0.32000
O 	O 	0.00000 0.58919 0.03094 -0.70100
N 	N 	-0.00000 0.45520 0.04807 -0.32000
O 	O 	0.41081 0.41081 0.03094 -0.69100
N 	N 	0.54480 0.54480 0.04807 -0.30700
O 	O 	0.41081 0.00000 0.53094 -0.70000
N 	N 	0.54480 0.00000 0.54807 -0.31900
O 	O 	-0.00000 0.41081 0.53094 -0.70000
N 	N 	0.00000 0.54480 0.54807 -0.31900
O 	O 	0.58919 0.58919 0.53094 -0.68900
N 	N 	0.45520 0.45520 0.54807 -0.30600
O 	O 	-0.00000 0.58919 0.46906 -0.70000
N 	N 	-0.00000 0.45520 0.45193 -0.31900
O 	O 	0.58919 0.00000 0.46906 -0.70000
N 	N 	0.45520 0.00000 0.45193 -0.31900
O 	O 	0.41081 0.41081 0.46906 -0.69000
N 	N 	0.54480 0.54480 0.45193 -0.30600
O 	O 	-0.00000 0.41081 0.96906 -0.69800
N 	N 	-0.00000 0.54480 0.95193 -0.31700
O 	O 	0.41081 0.00000 0.96906 -0.69800
N 	N 	0.54480 0.00000 0.95193 -0.31700
O 	O 	0.58919 0.58919 0.96906 -0.68700
N 	N 	0.45520 0.45520 0.95193 -0.30500
N 	N 	0.44830 0.89660 -0.00000 -0.28600
N 	N 	0.10340 0.55170 -0.00000 -0.29300
N 	N 	0.44830 0.55170 -0.00000 -0.29200
N 	N 	0.55170 0.10340 0.50000 -0.28800
N 	N 	0.89660 0.44830 0.50000 -0.28100
N 	N 	0.55170 0.44830 0.50000 -0.28700
N 	N 	0.55170 0.10340 -0.00000 -0.29300
N 	N 	0.89660 0.44830 -0.00000 -0.28600
N 	N 	0.55170 0.44830 -0.00000 -0.29200
N 	N 	0.44830 0.89660 0.50000 -0.28100
N 	N 	0.10340 0.55170 0.50000 -0.28800
N 	N 	0.44830 0.55170 0.50000 -0.28700
