data_crystal

_cell_length_a 12.67510
_cell_length_b 12.67510
_cell_length_c 32.24300
_cell_angle_alpha 90.00000
_cell_angle_beta  90.00000
_cell_angle_gamma 120.00000

_symmetry_space_group_name_	'P 1'
_symmetry_space_group_name_H-M	'P 1'

loop_
_symmetry_equiv_pos_as_xyz
  x,y,z

loop_
_atom_site_label
_atom_site_type_symbol
_atom_site_fract_x
_atom_site_fract_y
_atom_site_fract_z
_atom_site_charge
C 	C 	0.04070 0.21390 0.07478 0.10900
C 	C 	0.13900 0.39120 0.11938 0.11500
C 	C 	0.93470 0.21970 0.13911 0.08900
N 	N 	0.21585 0.48808 0.12814 -0.26600
C 	C 	0.83320 0.10560 0.13113 -0.03400
H 	H 	0.83180 0.06260 0.10680 0.03300
C 	C 	0.93240 0.27970 0.17540 -0.06400
H 	H 	0.99990 0.35750 0.18170 0.06400
C 	C 	0.04000 0.27520 0.11090 -0.17800
N 	N 	0.03591 0.15919 0.04544 -0.28100
C 	C 	0.70737 0.54723 0.40811 0.12400
C 	C 	0.80567 0.72453 0.45271 0.12700
C 	C 	0.60137 0.55303 0.47244 0.06400
N 	N 	0.88252 0.82141 0.46147 -0.23900
C 	C 	0.49987 0.43893 0.46446 -0.07100
H 	H 	0.49847 0.39593 0.44013 0.04800
C 	C 	0.59907 0.61303 0.50873 -0.06800
H 	H 	0.66657 0.69083 0.51503 0.05200
C 	C 	0.70667 0.60853 0.44423 -0.13500
N 	N 	0.70258 0.49252 0.37877 -0.25900
C 	C 	0.37403 0.88057 0.74145 0.10600
C 	C 	0.47233 0.05787 0.78605 0.04900
C 	C 	0.26803 0.88637 0.80578 0.00700
N 	N 	0.54918 0.15475 0.79481 -0.24800
C 	C 	0.16653 0.77227 0.79780 -0.04200
H 	H 	0.16513 0.72927 0.77347 0.03700
C 	C 	0.26573 0.94637 0.84207 0.04600
H 	H 	0.33323 0.02417 0.84837 -0.01800
C 	C 	0.37333 0.94187 0.77757 -0.06200
N 	N 	0.36924 0.82586 0.71211 -0.25100
C 	C 	0.78610 0.82680 0.07478 0.13500
C 	C 	0.60880 0.74780 0.11938 0.12600
C 	C 	0.78030 0.71500 0.13911 0.10700
N 	N 	0.51192 0.72777 0.12814 -0.26100
C 	C 	0.89440 0.72760 0.13113 -0.13800
H 	H 	0.93740 0.76920 0.10680 0.08600
C 	C 	0.72030 0.65270 0.17540 -0.10700
H 	H 	0.64250 0.64240 0.18170 0.06300
C 	C 	0.72480 0.76480 0.11090 -0.14800
N 	N 	0.84081 0.87672 0.04544 -0.24500
C 	C 	0.45277 0.16013 0.40811 0.09800
C 	C 	0.27547 0.08113 0.45271 0.08600
C 	C 	0.44697 0.04833 0.47244 -0.05100
N 	N 	0.17859 0.06110 0.46147 -0.27100
C 	C 	0.56107 0.06093 0.46446 0.02200
H 	H 	0.60407 0.10253 0.44013 0.01500
C 	C 	0.38697 0.98603 0.50873 0.06300
H 	H 	0.30917 0.97573 0.51503 0.01800
C 	C 	0.39147 0.09813 0.44423 -0.10000
N 	N 	0.50748 0.21005 0.37877 -0.25900
C 	C 	0.11943 0.49347 0.74145 0.13100
C 	C 	0.94213 0.41447 0.78605 0.18400
C 	C 	0.11363 0.38167 0.80578 0.12800
N 	N 	0.84525 0.39444 0.79481 -0.27300
C 	C 	0.22773 0.39427 0.79780 -0.12300
H 	H 	0.27073 0.43587 0.77347 0.06400
C 	C 	0.05363 0.31937 0.84207 -0.20400
H 	H 	0.97583 0.30907 0.84837 0.11900
C 	C 	0.05813 0.43147 0.77757 -0.21400
N 	N 	0.17414 0.54339 0.71211 -0.27000
C 	C 	0.17320 0.95930 0.07478 0.10600
C 	C 	0.25220 0.86100 0.11938 0.10600
C 	C 	0.28500 0.06530 0.13911 -0.01500
N 	N 	0.27223 0.78415 0.12814 -0.25400
C 	C 	0.27240 0.16680 0.13113 -0.03300
H 	H 	0.23080 0.16820 0.10680 0.02500
C 	C 	0.34730 0.06760 0.17540 -0.03100
H 	H 	0.35760 0.00010 0.18170 0.01700
C 	C 	0.23520 0.96000 0.11090 -0.07800
N 	N 	0.12328 0.96409 0.04544 -0.25300
C 	C 	0.83987 0.29263 0.40811 0.13400
C 	C 	0.91887 0.19433 0.45271 0.13800
C 	C 	0.95167 0.39863 0.47244 0.16900
N 	N 	0.93890 0.11748 0.46147 -0.26000
C 	C 	0.93907 0.50013 0.46446 -0.15400
H 	H 	0.89747 0.50153 0.44013 0.08200
C 	C 	0.01397 0.40093 0.50873 -0.19600
H 	H 	0.02427 0.33343 0.51503 0.07400
C 	C 	0.90187 0.29333 0.44423 -0.16800
N 	N 	0.78995 0.29742 0.37877 -0.26300
C 	C 	0.50653 0.62597 0.74145 0.11800
C 	C 	0.58553 0.52767 0.78605 0.11800
C 	C 	0.61833 0.73197 0.80578 0.04600
N 	N 	0.60556 0.45082 0.79481 -0.25800
C 	C 	0.60573 0.83347 0.79780 -0.03700
H 	H 	0.56413 0.83487 0.77347 0.04400
C 	C 	0.68063 0.73427 0.84207 -0.03800
H 	H 	0.69093 0.66677 0.84837 0.04100
C 	C 	0.56853 0.62667 0.77757 -0.12600
N 	N 	0.45661 0.63076 0.71211 -0.25900
C 	C 	0.95930 0.78610 0.92522 0.12900
C 	C 	0.86100 0.60880 0.88062 0.12100
C 	C 	0.06530 0.78030 0.86089 0.04200
N 	N 	0.78415 0.51192 0.87186 -0.25500
C 	C 	0.16680 0.89440 0.86887 -0.11100
H 	H 	0.16820 0.93740 0.89320 0.07000
C 	C 	0.06760 0.72030 0.82460 -0.07600
H 	H 	0.00010 0.64250 0.81830 0.03500
C 	C 	0.96000 0.72480 0.88910 -0.09700
N 	N 	0.96409 0.84081 0.95456 -0.23400
C 	C 	0.62597 0.11943 0.25855 0.13100
C 	C 	0.52767 0.94213 0.21395 0.18400
C 	C 	0.73197 0.11363 0.19422 0.11000
N 	N 	0.45082 0.84525 0.20519 -0.27100
C 	C 	0.83347 0.22773 0.20220 -0.08900
H 	H 	0.83487 0.27073 0.22653 0.05900
C 	C 	0.73427 0.05363 0.15793 -0.17000
H 	H 	0.66677 0.97583 0.15163 0.10900
C 	C 	0.62667 0.05813 0.22243 -0.20400
N 	N 	0.63076 0.17414 0.28789 -0.26900
C 	C 	0.29263 0.45277 0.59189 0.11300
C 	C 	0.19433 0.27547 0.54729 0.10600
C 	C 	0.39863 0.44697 0.52756 0.05800
N 	N 	0.11748 0.17859 0.53853 -0.27600
C 	C 	0.50013 0.56107 0.53554 -0.06600
H 	H 	0.50153 0.60407 0.55987 0.04900
C 	C 	0.40093 0.38697 0.49127 -0.06700
H 	H 	0.33343 0.30917 0.48497 0.04400
C 	C 	0.29333 0.39147 0.55577 -0.13500
N 	N 	0.29742 0.50748 0.62123 -0.26200
C 	C 	0.21390 0.17320 0.92522 0.10100
C 	C 	0.39120 0.25220 0.88062 0.10800
C 	C 	0.21970 0.28500 0.86089 0.01300
N 	N 	0.48808 0.27223 0.87186 -0.25800
C 	C 	0.10560 0.27240 0.86887 0.00400
H 	H 	0.06260 0.23080 0.89320 0.01000
C 	C 	0.27970 0.34730 0.82460 -0.02700
H 	H 	0.35750 0.35760 0.81830 0.03200
C 	C 	0.27520 0.23520 0.88910 -0.12100
N 	N 	0.15919 0.12328 0.95456 -0.26900
C 	C 	0.88057 0.50653 0.25855 0.10600
C 	C 	0.05787 0.58553 0.21395 0.05100
C 	C 	0.88637 0.61833 0.19422 -0.00400
N 	N 	0.15475 0.60556 0.20519 -0.24800
C 	C 	0.77227 0.60573 0.20220 -0.01600
H 	H 	0.72927 0.56413 0.22653 0.03400
C 	C 	0.94637 0.68063 0.15793 0.06500
H 	H 	0.02417 0.69093 0.15163 -0.02100
C 	C 	0.94187 0.56853 0.22243 -0.05600
N 	N 	0.82586 0.45661 0.28789 -0.25000
C 	C 	0.54723 0.83987 0.59189 0.13900
C 	C 	0.72453 0.91887 0.54729 0.14700
C 	C 	0.55303 0.95167 0.52756 0.17200
N 	N 	0.82141 0.93890 0.53853 -0.24300
C 	C 	0.43893 0.93907 0.53554 -0.15800
H 	H 	0.39593 0.89747 0.55987 0.08200
C 	C 	0.61303 0.01397 0.49127 -0.19700
H 	H 	0.69083 0.02427 0.48497 0.07900
C 	C 	0.60853 0.90187 0.55577 -0.16900
N 	N 	0.49252 0.78995 0.62123 -0.26200
C 	C 	0.82680 0.04070 0.92522 0.13100
C 	C 	0.74780 0.13900 0.88062 0.12800
C 	C 	0.71500 0.93470 0.86089 0.13200
N 	N 	0.72777 0.21585 0.87186 -0.26500
C 	C 	0.72760 0.83320 0.86887 -0.10100
H 	H 	0.76920 0.83180 0.89320 0.07200
C 	C 	0.65270 0.93240 0.82460 -0.10100
H 	H 	0.64240 0.99990 0.81830 0.07800
C 	C 	0.76480 0.04000 0.88910 -0.18700
N 	N 	0.87672 0.03591 0.95456 -0.25700
C 	C 	0.49347 0.37403 0.25855 0.11900
C 	C 	0.41447 0.47233 0.21395 0.11700
C 	C 	0.38167 0.26803 0.19422 0.07700
N 	N 	0.39444 0.54918 0.20519 -0.26200
C 	C 	0.39427 0.16653 0.20220 -0.10100
H 	H 	0.43587 0.16513 0.22653 0.05300
C 	C 	0.31937 0.26573 0.15793 -0.09900
H 	H 	0.30907 0.33323 0.15163 0.05500
C 	C 	0.43147 0.37333 0.22243 -0.14400
N 	N 	0.54339 0.36924 0.28789 -0.26200
C 	C 	0.16013 0.70737 0.59189 0.10400
C 	C 	0.08113 0.80567 0.54729 0.09800
C 	C 	0.04833 0.60137 0.52756 -0.04500
N 	N 	0.06110 0.88252 0.53853 -0.25100
C 	C 	0.06093 0.49987 0.53554 0.01800
H 	H 	0.10253 0.49847 0.55987 0.01500
C 	C 	0.98603 0.59907 0.49127 0.05900
H 	H 	0.97573 0.66657 0.48497 0.02200
C 	C 	0.09813 0.70667 0.55577 -0.10100
N 	N 	0.21005 0.70258 0.62123 -0.25700
Cd	Cd	0.33333 0.66667 0.16667 1.19300
Cd	Cd	0.00000 0.00000 0.50000 1.16600
Cd	Cd	0.66667 0.33333 0.83333 1.19400
Cd	Cd	-0.00000 0.00000 -0.00000 1.16200
Cd	Cd	0.66667 0.33333 0.33333 1.19400
Cd	Cd	0.33333 0.66667 0.66667 1.19400
