data_crystal

_cell_length_a 15.41600
_cell_length_b 28.64140
_cell_length_c 36.81300
_cell_angle_alpha 90.00000
_cell_angle_beta  90.00000
_cell_angle_gamma 90.00000

_symmetry_space_group_name_	'P 1'
_symmetry_space_group_name_H-M	'P 1'

loop_
_symmetry_equiv_pos_as_xyz
  x,y,z

loop_
_atom_site_label
_atom_site_type_symbol
_atom_site_fract_x
_atom_site_fract_y
_atom_site_fract_z
_atom_site_charge
Cd	Cd	0.46182 0.25811 0.55221 1.17400
O 	O 	0.37024 0.31562 0.52038 -0.36800
O 	O 	0.50922 0.31600 0.50994 -0.39700
C 	C 	0.43310 0.32948 0.50289 0.29500
C 	C 	0.41810 0.36334 0.47186 0.00700
C 	C 	0.48340 0.36670 0.44860 -0.23100
H 	H 	0.47870 0.38610 0.42840 0.10600
H 	H 	0.53390 0.34960 0.45240 0.10700
N 	N 	0.32518 0.23934 0.57763 -0.24900
C 	C 	0.32100 0.22562 0.61229 0.07000
H 	H 	0.37240 0.21760 0.62400 -0.04400
C 	C 	0.24470 0.22274 0.63165 -0.14700
H 	H 	0.24550 0.21330 0.65580 0.07600
C 	C 	0.16646 0.23403 0.61489 0.05600
C 	C 	0.17080 0.24691 0.57864 -0.13900
H 	H 	0.12020 0.25360 0.56590 0.08400
C 	C 	0.25020 0.24986 0.56147 0.07900
H 	H 	0.25150 0.25970 0.53740 0.00100
N 	N 	0.45940 0.20890 0.50108 -0.25400
N 	N 	0.50856 0.05865 0.35038 -0.25400
C 	C 	0.41020 0.14301 0.46699 -0.14800
H 	H 	0.37060 0.11870 0.46460 0.08700
C 	C 	0.40450 0.17388 0.49557 0.07600
H 	H 	0.35930 0.17000 0.51200 -0.01600
C 	C 	0.52384 0.21396 0.47705 0.06300
H 	H 	0.56340 0.23810 0.48050 -0.02600
C 	C 	0.53405 0.18519 0.44766 -0.14500
H 	H 	0.57980 0.19000 0.43160 0.07500
C 	C 	0.47610 0.14885 0.44185 0.05700
C 	C 	0.48508 0.11783 0.40984 0.05400
C 	C 	0.46950 0.07013 0.41262 -0.14400
H 	H 	0.45080 0.05710 0.43440 0.05200
C 	C 	0.48240 0.04250 0.38249 0.07500
H 	H 	0.47220 0.01060 0.38470 -0.05900
C 	C 	0.52110 0.10432 0.34747 0.07400
H 	H 	0.53790 0.11630 0.32510 -0.00100
C 	C 	0.51042 0.13490 0.37623 -0.13400
H 	H 	0.52020 0.16670 0.37300 0.07900
Cd	Cd	0.46182 0.75811 0.05221 1.17500
O 	O 	0.37024 0.81562 0.02038 -0.36700
O 	O 	0.50922 0.81600 0.00994 -0.39600
C 	C 	0.43310 0.82948 0.00289 0.29600
C 	C 	0.41810 0.86334 0.97186 0.00800
C 	C 	0.48340 0.86670 0.94860 -0.23000
H 	H 	0.47870 0.88610 0.92840 0.10700
H 	H 	0.53390 0.84960 0.95240 0.10800
N 	N 	0.32518 0.73934 0.07763 -0.24800
C 	C 	0.32100 0.72562 0.11229 0.07200
H 	H 	0.37240 0.71760 0.12400 -0.04400
C 	C 	0.24470 0.72274 0.13165 -0.14700
H 	H 	0.24550 0.71330 0.15580 0.07600
C 	C 	0.16646 0.73403 0.11489 0.05700
C 	C 	0.17080 0.74691 0.07864 -0.14000
H 	H 	0.12020 0.75360 0.06590 0.08400
C 	C 	0.25020 0.74986 0.06147 0.08000
H 	H 	0.25150 0.75970 0.03740 0.00000
N 	N 	0.45940 0.70890 0.00108 -0.25400
N 	N 	0.50856 0.55865 0.85038 -0.25400
C 	C 	0.41020 0.64301 0.96699 -0.14900
H 	H 	0.37060 0.61870 0.96460 0.08700
C 	C 	0.40450 0.67388 0.99557 0.07600
H 	H 	0.35930 0.67000 0.01200 -0.01600
C 	C 	0.52384 0.71396 0.97705 0.06300
H 	H 	0.56340 0.73810 0.98050 -0.02600
C 	C 	0.53405 0.68519 0.94766 -0.14500
H 	H 	0.57980 0.69000 0.93160 0.07500
C 	C 	0.47610 0.64885 0.94185 0.05700
C 	C 	0.48508 0.61783 0.90984 0.05400
C 	C 	0.46950 0.57013 0.91262 -0.14400
H 	H 	0.45080 0.55710 0.93440 0.05200
C 	C 	0.48240 0.54250 0.88249 0.07500
H 	H 	0.47220 0.51060 0.88470 -0.05900
C 	C 	0.52110 0.60432 0.84747 0.07400
H 	H 	0.53790 0.61630 0.82510 -0.00100
C 	C 	0.51042 0.63490 0.87623 -0.13400
H 	H 	0.52020 0.66670 0.87300 0.07900
Cd	Cd	0.96182 0.25811 0.05221 1.17500
O 	O 	0.87024 0.31562 0.02038 -0.36700
O 	O 	0.00922 0.31600 0.00994 -0.39600
C 	C 	0.93310 0.32948 0.00289 0.29600
C 	C 	0.91810 0.36334 0.97186 0.00800
C 	C 	0.98340 0.36670 0.94860 -0.22900
H 	H 	0.97870 0.38610 0.92840 0.10600
H 	H 	0.03390 0.34960 0.95240 0.10700
N 	N 	0.82518 0.23934 0.07763 -0.24800
C 	C 	0.82100 0.22562 0.11229 0.07100
H 	H 	0.87240 0.21760 0.12400 -0.04400
C 	C 	0.74470 0.22274 0.13165 -0.14700
H 	H 	0.74550 0.21330 0.15580 0.07600
C 	C 	0.66646 0.23403 0.11489 0.05700
C 	C 	0.67080 0.24691 0.07864 -0.14000
H 	H 	0.62020 0.25360 0.06590 0.08400
C 	C 	0.75020 0.24986 0.06147 0.07900
H 	H 	0.75150 0.25970 0.03740 0.00000
N 	N 	0.95940 0.20890 0.00108 -0.25400
N 	N 	0.00856 0.05865 0.85038 -0.25500
C 	C 	0.91020 0.14301 0.96699 -0.14900
H 	H 	0.87060 0.11870 0.96460 0.08700
C 	C 	0.90450 0.17388 0.99557 0.07600
H 	H 	0.85930 0.17000 0.01200 -0.01600
C 	C 	0.02384 0.21396 0.97705 0.06200
H 	H 	0.06340 0.23810 0.98050 -0.02600
C 	C 	0.03405 0.18519 0.94766 -0.14500
H 	H 	0.07980 0.19000 0.93160 0.07500
C 	C 	0.97610 0.14885 0.94185 0.05700
C 	C 	0.98508 0.11783 0.90984 0.05500
C 	C 	0.96950 0.07013 0.91262 -0.14500
H 	H 	0.95080 0.05710 0.93440 0.05300
C 	C 	0.98240 0.04250 0.88249 0.07600
H 	H 	0.97220 0.01060 0.88470 -0.05900
C 	C 	0.02110 0.10432 0.84747 0.07500
H 	H 	0.03790 0.11630 0.82510 -0.00200
C 	C 	0.01042 0.13490 0.87623 -0.13600
H 	H 	0.02020 0.16670 0.87300 0.08000
Cd	Cd	0.96182 0.75811 0.55221 1.17500
O 	O 	0.87024 0.81562 0.52038 -0.36700
O 	O 	0.00922 0.81600 0.50994 -0.39600
C 	C 	0.93310 0.82948 0.50289 0.29500
C 	C 	0.91810 0.86334 0.47186 0.00900
C 	C 	0.98340 0.86670 0.44860 -0.23300
H 	H 	0.97870 0.88610 0.42840 0.10700
H 	H 	0.03390 0.84960 0.45240 0.10900
N 	N 	0.82518 0.73934 0.57763 -0.24800
C 	C 	0.82100 0.72562 0.61229 0.07100
H 	H 	0.87240 0.71760 0.62400 -0.04400
C 	C 	0.74470 0.72274 0.63165 -0.14700
H 	H 	0.74550 0.71330 0.65580 0.07600
C 	C 	0.66646 0.73403 0.61489 0.05700
C 	C 	0.67080 0.74691 0.57864 -0.14000
H 	H 	0.62020 0.75360 0.56590 0.08400
C 	C 	0.75020 0.74986 0.56147 0.07900
H 	H 	0.75150 0.75970 0.53740 0.00000
N 	N 	0.95940 0.70890 0.50108 -0.25400
N 	N 	0.00856 0.55865 0.35038 -0.25400
C 	C 	0.91020 0.64301 0.46699 -0.14800
H 	H 	0.87060 0.61870 0.46460 0.08700
C 	C 	0.90450 0.67388 0.49557 0.07500
H 	H 	0.85930 0.67000 0.51200 -0.01600
C 	C 	0.02384 0.71396 0.47705 0.06300
H 	H 	0.06340 0.73810 0.48050 -0.02600
C 	C 	0.03405 0.68519 0.44766 -0.14400
H 	H 	0.07980 0.69000 0.43160 0.07500
C 	C 	0.97610 0.64885 0.44185 0.05600
C 	C 	0.98508 0.61783 0.40984 0.05300
C 	C 	0.96950 0.57013 0.41262 -0.14400
H 	H 	0.95080 0.55710 0.43440 0.05200
C 	C 	0.98240 0.54250 0.38249 0.07500
H 	H 	0.97220 0.51060 0.38470 -0.05900
C 	C 	0.02110 0.60432 0.34747 0.07400
H 	H 	0.03790 0.61630 0.32510 -0.00100
C 	C 	0.01042 0.63490 0.37623 -0.13400
H 	H 	0.02020 0.66670 0.37300 0.07900
Cd	Cd	0.28818 0.49189 0.55221 1.17500
O 	O 	0.37976 0.43438 0.52038 -0.36700
O 	O 	0.24078 0.43400 0.50994 -0.39600
C 	C 	0.31690 0.42052 0.50289 0.29600
C 	C 	0.33190 0.38666 0.47186 0.00800
C 	C 	0.26660 0.38330 0.44860 -0.23000
H 	H 	0.27130 0.36390 0.42840 0.10700
H 	H 	0.21610 0.40040 0.45240 0.10700
N 	N 	0.42482 0.51066 0.57763 -0.24800
C 	C 	0.42900 0.52438 0.61229 0.07100
H 	H 	0.37760 0.53240 0.62400 -0.04400
C 	C 	0.50530 0.52726 0.63165 -0.14700
H 	H 	0.50450 0.53670 0.65580 0.07600
C 	C 	0.58354 0.51597 0.61489 0.05700
C 	C 	0.57920 0.50309 0.57864 -0.14000
H 	H 	0.62980 0.49640 0.56590 0.08400
C 	C 	0.49980 0.50014 0.56147 0.07900
H 	H 	0.49850 0.49030 0.53740 0.00100
N 	N 	0.29060 0.54110 0.50108 -0.25400
N 	N 	0.24144 0.69135 0.35038 -0.25400
C 	C 	0.33980 0.60699 0.46699 -0.14800
H 	H 	0.37940 0.63130 0.46460 0.08700
C 	C 	0.34550 0.57612 0.49557 0.07500
H 	H 	0.39070 0.58000 0.51200 -0.01600
C 	C 	0.22616 0.53604 0.47705 0.06300
H 	H 	0.18660 0.51190 0.48050 -0.02600
C 	C 	0.21595 0.56481 0.44766 -0.14500
H 	H 	0.17020 0.56000 0.43160 0.07500
C 	C 	0.27390 0.60115 0.44185 0.05700
C 	C 	0.26492 0.63217 0.40984 0.05400
C 	C 	0.28050 0.67987 0.41262 -0.14400
H 	H 	0.29920 0.69290 0.43440 0.05200
C 	C 	0.26760 0.70750 0.38249 0.07500
H 	H 	0.27780 0.73940 0.38470 -0.05900
C 	C 	0.22890 0.64568 0.34747 0.07400
H 	H 	0.21210 0.63370 0.32510 -0.00100
C 	C 	0.23958 0.61510 0.37623 -0.13400
H 	H 	0.22980 0.58330 0.37300 0.07900
Cd	Cd	0.28818 0.99189 0.05221 1.17500
O 	O 	0.37976 0.93438 0.02038 -0.36700
O 	O 	0.24078 0.93400 0.00994 -0.39600
C 	C 	0.31690 0.92052 0.00289 0.29600
C 	C 	0.33190 0.88666 0.97186 0.00800
C 	C 	0.26660 0.88330 0.94860 -0.23000
H 	H 	0.27130 0.86390 0.92840 0.10700
H 	H 	0.21610 0.90040 0.95240 0.10800
N 	N 	0.42482 0.01066 0.07763 -0.24800
C 	C 	0.42900 0.02438 0.11229 0.07100
H 	H 	0.37760 0.03240 0.12400 -0.04400
C 	C 	0.50530 0.02726 0.13165 -0.14700
H 	H 	0.50450 0.03670 0.15580 0.07600
C 	C 	0.58354 0.01597 0.11489 0.05700
C 	C 	0.57920 0.00309 0.07864 -0.13900
H 	H 	0.62980 0.99640 0.06590 0.08400
C 	C 	0.49980 0.00014 0.06147 0.08000
H 	H 	0.49850 0.99030 0.03740 0.00000
N 	N 	0.29060 0.04110 0.00108 -0.25300
N 	N 	0.24144 0.19135 0.85038 -0.25400
C 	C 	0.33980 0.10699 0.96699 -0.14800
H 	H 	0.37940 0.13130 0.96460 0.08600
C 	C 	0.34550 0.07612 0.99557 0.07400
H 	H 	0.39070 0.08000 0.01200 -0.01500
C 	C 	0.22616 0.03604 0.97705 0.06200
H 	H 	0.18660 0.01190 0.98050 -0.02500
C 	C 	0.21595 0.06481 0.94766 -0.14400
H 	H 	0.17020 0.06000 0.93160 0.07500
C 	C 	0.27390 0.10115 0.94185 0.05600
C 	C 	0.26492 0.13217 0.90984 0.05400
C 	C 	0.28050 0.17987 0.91262 -0.14400
H 	H 	0.29920 0.19290 0.93440 0.05200
C 	C 	0.26760 0.20750 0.88249 0.07500
H 	H 	0.27780 0.23940 0.88470 -0.05900
C 	C 	0.22890 0.14568 0.84747 0.07500
H 	H 	0.21210 0.13370 0.82510 -0.00100
C 	C 	0.23958 0.11510 0.87623 -0.13400
H 	H 	0.22980 0.08330 0.87300 0.07900
Cd	Cd	0.78818 0.49189 0.05221 1.17500
O 	O 	0.87976 0.43438 0.02038 -0.36700
O 	O 	0.74078 0.43400 0.00994 -0.39600
C 	C 	0.81690 0.42052 0.00289 0.29600
C 	C 	0.83190 0.38666 0.97186 0.00900
C 	C 	0.76660 0.38330 0.94860 -0.23100
H 	H 	0.77130 0.36390 0.92840 0.10700
H 	H 	0.71610 0.40040 0.95240 0.10800
N 	N 	0.92482 0.51066 0.07763 -0.24800
C 	C 	0.92900 0.52438 0.11229 0.07100
H 	H 	0.87760 0.53240 0.12400 -0.04400
C 	C 	0.00530 0.52726 0.13165 -0.14600
H 	H 	0.00450 0.53670 0.15580 0.07600
C 	C 	0.08354 0.51597 0.11489 0.05600
C 	C 	0.07920 0.50309 0.07864 -0.13900
H 	H 	0.12980 0.49640 0.06590 0.08400
C 	C 	0.99980 0.50014 0.06147 0.07900
H 	H 	0.99850 0.49030 0.03740 0.00100
N 	N 	0.79060 0.54110 0.00108 -0.25400
N 	N 	0.74144 0.69135 0.85038 -0.25400
C 	C 	0.83980 0.60699 0.96699 -0.14900
H 	H 	0.87940 0.63130 0.96460 0.08700
C 	C 	0.84550 0.57612 0.99557 0.07600
H 	H 	0.89070 0.58000 0.01200 -0.01600
C 	C 	0.72616 0.53604 0.97705 0.06300
H 	H 	0.68660 0.51190 0.98050 -0.02600
C 	C 	0.71595 0.56481 0.94766 -0.14500
H 	H 	0.67020 0.56000 0.93160 0.07500
C 	C 	0.77390 0.60115 0.94185 0.05700
C 	C 	0.76492 0.63217 0.90984 0.05400
C 	C 	0.78050 0.67987 0.91262 -0.14400
H 	H 	0.79920 0.69290 0.93440 0.05200
C 	C 	0.76760 0.70750 0.88249 0.07500
H 	H 	0.77780 0.73940 0.88470 -0.05900
C 	C 	0.72890 0.64568 0.84747 0.07400
H 	H 	0.71210 0.63370 0.82510 -0.00100
C 	C 	0.73958 0.61510 0.87623 -0.13400
H 	H 	0.72980 0.58330 0.87300 0.07900
Cd	Cd	0.78818 0.99189 0.55221 1.17500
O 	O 	0.87976 0.93438 0.52038 -0.36700
O 	O 	0.74078 0.93400 0.50994 -0.39600
C 	C 	0.81690 0.92052 0.50289 0.29600
C 	C 	0.83190 0.88666 0.47186 0.00800
C 	C 	0.76660 0.88330 0.44860 -0.23000
H 	H 	0.77130 0.86390 0.42840 0.10600
H 	H 	0.71610 0.90040 0.45240 0.10700
N 	N 	0.92482 0.01066 0.57763 -0.24900
C 	C 	0.92900 0.02438 0.61229 0.07400
H 	H 	0.87760 0.03240 0.62400 -0.04500
C 	C 	0.00530 0.02726 0.63165 -0.15000
H 	H 	0.00450 0.03670 0.65580 0.07700
C 	C 	0.08354 0.01597 0.61489 0.06000
C 	C 	0.07920 0.00309 0.57864 -0.14500
H 	H 	0.12980 0.99640 0.56590 0.08600
C 	C 	0.99980 0.00014 0.56147 0.08400
H 	H 	0.99850 0.99030 0.53740 -0.00200
N 	N 	0.79060 0.04110 0.50108 -0.25400
N 	N 	0.74144 0.19135 0.35038 -0.25400
C 	C 	0.83980 0.10699 0.46699 -0.14800
H 	H 	0.87940 0.13130 0.46460 0.08700
C 	C 	0.84550 0.07612 0.49557 0.07600
H 	H 	0.89070 0.08000 0.51200 -0.01600
C 	C 	0.72616 0.03604 0.47705 0.06300
H 	H 	0.68660 0.01190 0.48050 -0.02500
C 	C 	0.71595 0.06481 0.44766 -0.14400
H 	H 	0.67020 0.06000 0.43160 0.07500
C 	C 	0.77390 0.10115 0.44185 0.05700
C 	C 	0.76492 0.13217 0.40984 0.05400
C 	C 	0.78050 0.17987 0.41262 -0.14400
H 	H 	0.79920 0.19290 0.43440 0.05200
C 	C 	0.76760 0.20750 0.38249 0.07500
H 	H 	0.77780 0.23940 0.38470 -0.05900
C 	C 	0.72890 0.14568 0.34747 0.07500
H 	H 	0.71210 0.13370 0.32510 -0.00100
C 	C 	0.73958 0.11510 0.37623 -0.13400
H 	H 	0.72980 0.08330 0.37300 0.07900
Cd	Cd	0.28818 0.25811 0.19779 1.17500
O 	O 	0.37976 0.31562 0.22962 -0.36700
O 	O 	0.24078 0.31600 0.24006 -0.39600
C 	C 	0.31690 0.32948 0.24711 0.29600
C 	C 	0.33190 0.36334 0.27814 0.00800
C 	C 	0.26660 0.36670 0.30140 -0.23000
H 	H 	0.27130 0.38610 0.32160 0.10700
H 	H 	0.21610 0.34960 0.29760 0.10700
N 	N 	0.42482 0.23934 0.17237 -0.24800
C 	C 	0.42900 0.22562 0.13771 0.07100
H 	H 	0.37760 0.21760 0.12600 -0.04400
C 	C 	0.50530 0.22274 0.11835 -0.14700
H 	H 	0.50450 0.21330 0.09420 0.07600
C 	C 	0.58354 0.23403 0.13511 0.05700
C 	C 	0.57920 0.24691 0.17136 -0.14000
H 	H 	0.62980 0.25360 0.18410 0.08400
C 	C 	0.49980 0.24986 0.18853 0.07900
H 	H 	0.49850 0.25970 0.21260 0.00100
N 	N 	0.29060 0.20890 0.24892 -0.25400
N 	N 	0.24144 0.05865 0.39962 -0.25400
C 	C 	0.33980 0.14301 0.28301 -0.14800
H 	H 	0.37940 0.11870 0.28540 0.08700
C 	C 	0.34550 0.17388 0.25443 0.07500
H 	H 	0.39070 0.17000 0.23800 -0.01600
C 	C 	0.22616 0.21396 0.27295 0.06300
H 	H 	0.18660 0.23810 0.26950 -0.02600
C 	C 	0.21595 0.18519 0.30234 -0.14500
H 	H 	0.17020 0.19000 0.31840 0.07500
C 	C 	0.27390 0.14885 0.30815 0.05700
C 	C 	0.26492 0.11783 0.34016 0.05400
C 	C 	0.28050 0.07013 0.33738 -0.14400
H 	H 	0.29920 0.05710 0.31560 0.05200
C 	C 	0.26760 0.04250 0.36751 0.07500
H 	H 	0.27780 0.01060 0.36530 -0.05900
C 	C 	0.22890 0.10432 0.40253 0.07400
H 	H 	0.21210 0.11630 0.42490 -0.00100
C 	C 	0.23958 0.13490 0.37377 -0.13400
H 	H 	0.22980 0.16670 0.37700 0.07900
Cd	Cd	0.28818 0.75811 0.69779 1.17500
O 	O 	0.37976 0.81562 0.72962 -0.36700
O 	O 	0.24078 0.81600 0.74006 -0.39600
C 	C 	0.31690 0.82948 0.74711 0.29600
C 	C 	0.33190 0.86334 0.77814 0.00800
C 	C 	0.26660 0.86670 0.80140 -0.23000
H 	H 	0.27130 0.88610 0.82160 0.10700
H 	H 	0.21610 0.84960 0.79760 0.10800
N 	N 	0.42482 0.73934 0.67237 -0.24800
C 	C 	0.42900 0.72562 0.63771 0.07100
H 	H 	0.37760 0.71760 0.62600 -0.04400
C 	C 	0.50530 0.72274 0.61835 -0.14700
H 	H 	0.50450 0.71330 0.59420 0.07600
C 	C 	0.58354 0.73403 0.63511 0.05700
C 	C 	0.57920 0.74691 0.67136 -0.14000
H 	H 	0.62980 0.75360 0.68410 0.08400
C 	C 	0.49980 0.74986 0.68853 0.07900
H 	H 	0.49850 0.75970 0.71260 0.00100
N 	N 	0.29060 0.70890 0.74892 -0.25400
N 	N 	0.24144 0.55865 0.89962 -0.25400
C 	C 	0.33980 0.64301 0.78301 -0.14800
H 	H 	0.37940 0.61870 0.78540 0.08700
C 	C 	0.34550 0.67388 0.75443 0.07500
H 	H 	0.39070 0.67000 0.73800 -0.01600
C 	C 	0.22616 0.71396 0.77295 0.06300
H 	H 	0.18660 0.73810 0.76950 -0.02600
C 	C 	0.21595 0.68519 0.80234 -0.14500
H 	H 	0.17020 0.69000 0.81840 0.07500
C 	C 	0.27390 0.64885 0.80815 0.05700
C 	C 	0.26492 0.61783 0.84016 0.05400
C 	C 	0.28050 0.57013 0.83738 -0.14400
H 	H 	0.29920 0.55710 0.81560 0.05200
C 	C 	0.26760 0.54250 0.86751 0.07500
H 	H 	0.27780 0.51060 0.86530 -0.05900
C 	C 	0.22890 0.60432 0.90253 0.07400
H 	H 	0.21210 0.61630 0.92490 -0.00100
C 	C 	0.23958 0.63490 0.87377 -0.13400
H 	H 	0.22980 0.66670 0.87700 0.07900
Cd	Cd	0.78818 0.25811 0.69779 1.17500
O 	O 	0.87976 0.31562 0.72962 -0.36700
O 	O 	0.74078 0.31600 0.74006 -0.39600
C 	C 	0.81690 0.32948 0.74711 0.29600
C 	C 	0.83190 0.36334 0.77814 0.00800
C 	C 	0.76660 0.36670 0.80140 -0.23100
H 	H 	0.77130 0.38610 0.82160 0.10700
H 	H 	0.71610 0.34960 0.79760 0.10800
N 	N 	0.92482 0.23934 0.67237 -0.24800
C 	C 	0.92900 0.22562 0.63771 0.07300
H 	H 	0.87760 0.21760 0.62600 -0.04500
C 	C 	0.00530 0.22274 0.61835 -0.14800
H 	H 	0.00450 0.21330 0.59420 0.07600
C 	C 	0.08354 0.23403 0.63511 0.05800
C 	C 	0.07920 0.24691 0.67136 -0.14100
H 	H 	0.12980 0.25360 0.68410 0.08400
C 	C 	0.99980 0.24986 0.68853 0.08000
H 	H 	0.99850 0.25970 0.71260 0.00000
N 	N 	0.79060 0.20890 0.74892 -0.25400
N 	N 	0.74144 0.05865 0.89962 -0.25400
C 	C 	0.83980 0.14301 0.78301 -0.14800
H 	H 	0.87940 0.11870 0.78540 0.08700
C 	C 	0.84550 0.17388 0.75443 0.07600
H 	H 	0.89070 0.17000 0.73800 -0.01600
C 	C 	0.72616 0.21396 0.77295 0.06300
H 	H 	0.68660 0.23810 0.76950 -0.02600
C 	C 	0.71595 0.18519 0.80234 -0.14500
H 	H 	0.67020 0.19000 0.81840 0.07500
C 	C 	0.77390 0.14885 0.80815 0.05700
C 	C 	0.76492 0.11783 0.84016 0.05400
C 	C 	0.78050 0.07013 0.83738 -0.14400
H 	H 	0.79920 0.05710 0.81560 0.05300
C 	C 	0.76760 0.04250 0.86751 0.07500
H 	H 	0.77780 0.01060 0.86530 -0.05900
C 	C 	0.72890 0.10432 0.90253 0.07400
H 	H 	0.71210 0.11630 0.92490 -0.00100
C 	C 	0.73958 0.13490 0.87377 -0.13400
H 	H 	0.72980 0.16670 0.87700 0.07900
Cd	Cd	0.78818 0.75811 0.19779 1.17500
O 	O 	0.87976 0.81562 0.22962 -0.36700
O 	O 	0.74078 0.81600 0.24006 -0.39600
C 	C 	0.81690 0.82948 0.24711 0.29600
C 	C 	0.83190 0.86334 0.27814 0.00700
C 	C 	0.76660 0.86670 0.30140 -0.23000
H 	H 	0.77130 0.88610 0.32160 0.10600
H 	H 	0.71610 0.84960 0.29760 0.10700
N 	N 	0.92482 0.73934 0.17237 -0.24700
C 	C 	0.92900 0.72562 0.13771 0.07000
H 	H 	0.87760 0.71760 0.12600 -0.04400
C 	C 	0.00530 0.72274 0.11835 -0.14600
H 	H 	0.00450 0.71330 0.09420 0.07600
C 	C 	0.08354 0.73403 0.13511 0.05600
C 	C 	0.07920 0.74691 0.17136 -0.13800
H 	H 	0.12980 0.75360 0.18410 0.08400
C 	C 	0.99980 0.74986 0.18853 0.07800
H 	H 	0.99850 0.75970 0.21260 0.00100
N 	N 	0.79060 0.70890 0.24892 -0.25400
N 	N 	0.74144 0.55865 0.39962 -0.25400
C 	C 	0.83980 0.64301 0.28301 -0.14800
H 	H 	0.87940 0.61870 0.28540 0.08700
C 	C 	0.84550 0.67388 0.25443 0.07500
H 	H 	0.89070 0.67000 0.23800 -0.01600
C 	C 	0.72616 0.71396 0.27295 0.06300
H 	H 	0.68660 0.73810 0.26950 -0.02600
C 	C 	0.71595 0.68519 0.30234 -0.14500
H 	H 	0.67020 0.69000 0.31840 0.07500
C 	C 	0.77390 0.64885 0.30815 0.05700
C 	C 	0.76492 0.61783 0.34016 0.05400
C 	C 	0.78050 0.57013 0.33738 -0.14400
H 	H 	0.79920 0.55710 0.31560 0.05200
C 	C 	0.76760 0.54250 0.36751 0.07500
H 	H 	0.77780 0.51060 0.36530 -0.05900
C 	C 	0.72890 0.60432 0.40253 0.07400
H 	H 	0.71210 0.61630 0.42490 -0.00100
C 	C 	0.73958 0.63490 0.37377 -0.13400
H 	H 	0.72980 0.66670 0.37700 0.07900
Cd	Cd	0.46182 0.49189 0.19779 1.17500
O 	O 	0.37024 0.43438 0.22962 -0.36700
O 	O 	0.50922 0.43400 0.24006 -0.39600
C 	C 	0.43310 0.42052 0.24711 0.29600
C 	C 	0.41810 0.38666 0.27814 0.00800
C 	C 	0.48340 0.38330 0.30140 -0.23000
H 	H 	0.47870 0.36390 0.32160 0.10700
H 	H 	0.53390 0.40040 0.29760 0.10800
N 	N 	0.32518 0.51066 0.17237 -0.24800
C 	C 	0.32100 0.52438 0.13771 0.07200
H 	H 	0.37240 0.53240 0.12600 -0.04400
C 	C 	0.24470 0.52726 0.11835 -0.14700
H 	H 	0.24550 0.53670 0.09420 0.07600
C 	C 	0.16646 0.51597 0.13511 0.05700
C 	C 	0.17080 0.50309 0.17136 -0.14000
H 	H 	0.12020 0.49640 0.18410 0.08400
C 	C 	0.25020 0.50014 0.18853 0.07900
H 	H 	0.25150 0.49030 0.21260 0.00000
N 	N 	0.45940 0.54110 0.24892 -0.25400
N 	N 	0.50856 0.69135 0.39962 -0.25400
C 	C 	0.41020 0.60699 0.28301 -0.14800
H 	H 	0.37060 0.63130 0.28540 0.08700
C 	C 	0.40450 0.57612 0.25443 0.07500
H 	H 	0.35930 0.58000 0.23800 -0.01600
C 	C 	0.52384 0.53604 0.27295 0.06300
H 	H 	0.56340 0.51190 0.26950 -0.02600
C 	C 	0.53405 0.56481 0.30234 -0.14500
H 	H 	0.57980 0.56000 0.31840 0.07500
C 	C 	0.47610 0.60115 0.30815 0.05700
C 	C 	0.48508 0.63217 0.34016 0.05400
C 	C 	0.46950 0.67987 0.33738 -0.14400
H 	H 	0.45080 0.69290 0.31560 0.05200
C 	C 	0.48240 0.70750 0.36751 0.07500
H 	H 	0.47220 0.73940 0.36530 -0.05900
C 	C 	0.52110 0.64568 0.40253 0.07400
H 	H 	0.53790 0.63370 0.42490 -0.00100
C 	C 	0.51042 0.61510 0.37377 -0.13400
H 	H 	0.52020 0.58330 0.37700 0.07900
Cd	Cd	0.46182 0.99189 0.69779 1.17500
O 	O 	0.37024 0.93438 0.72962 -0.36700
O 	O 	0.50922 0.93400 0.74006 -0.39600
C 	C 	0.43310 0.92052 0.74711 0.29600
C 	C 	0.41810 0.88666 0.77814 0.00800
C 	C 	0.48340 0.88330 0.80140 -0.23000
H 	H 	0.47870 0.86390 0.82160 0.10700
H 	H 	0.53390 0.90040 0.79760 0.10800
N 	N 	0.32518 0.01066 0.67237 -0.24800
C 	C 	0.32100 0.02438 0.63771 0.07100
H 	H 	0.37240 0.03240 0.62600 -0.04400
C 	C 	0.24470 0.02726 0.61835 -0.14600
H 	H 	0.24550 0.03670 0.59420 0.07600
C 	C 	0.16646 0.01597 0.63511 0.05600
C 	C 	0.17080 0.00309 0.67136 -0.14000
H 	H 	0.12020 0.99640 0.68410 0.08500
C 	C 	0.25020 0.00014 0.68853 0.07900
H 	H 	0.25150 0.99030 0.71260 0.00100
N 	N 	0.45940 0.04110 0.74892 -0.25400
N 	N 	0.50856 0.19135 0.89962 -0.25400
C 	C 	0.41020 0.10699 0.78301 -0.14800
H 	H 	0.37060 0.13130 0.78540 0.08700
C 	C 	0.40450 0.07612 0.75443 0.07500
H 	H 	0.35930 0.08000 0.73800 -0.01600
C 	C 	0.52384 0.03604 0.77295 0.06300
H 	H 	0.56340 0.01190 0.76950 -0.02500
C 	C 	0.53405 0.06481 0.80234 -0.14400
H 	H 	0.57980 0.06000 0.81840 0.07500
C 	C 	0.47610 0.10115 0.80815 0.05700
C 	C 	0.48508 0.13217 0.84016 0.05400
C 	C 	0.46950 0.17987 0.83738 -0.14400
H 	H 	0.45080 0.19290 0.81560 0.05200
C 	C 	0.48240 0.20750 0.86751 0.07500
H 	H 	0.47220 0.23940 0.86530 -0.05900
C 	C 	0.52110 0.14568 0.90253 0.07400
H 	H 	0.53790 0.13370 0.92490 -0.00100
C 	C 	0.51042 0.11510 0.87377 -0.13400
H 	H 	0.52020 0.08330 0.87700 0.07900
Cd	Cd	0.96182 0.49189 0.69779 1.17500
O 	O 	0.87024 0.43438 0.72962 -0.36700
O 	O 	0.00922 0.43400 0.74006 -0.39600
C 	C 	0.93310 0.42052 0.74711 0.29600
C 	C 	0.91810 0.38666 0.77814 0.00800
C 	C 	0.98340 0.38330 0.80140 -0.22900
H 	H 	0.97870 0.36390 0.82160 0.10600
H 	H 	0.03390 0.40040 0.79760 0.10700
N 	N 	0.82518 0.51066 0.67237 -0.24800
C 	C 	0.82100 0.52438 0.63771 0.07100
H 	H 	0.87240 0.53240 0.62600 -0.04400
C 	C 	0.74470 0.52726 0.61835 -0.14700
H 	H 	0.74550 0.53670 0.59420 0.07600
C 	C 	0.66646 0.51597 0.63511 0.05700
C 	C 	0.67080 0.50309 0.67136 -0.14000
H 	H 	0.62020 0.49640 0.68410 0.08400
C 	C 	0.75020 0.50014 0.68853 0.07900
H 	H 	0.75150 0.49030 0.71260 0.00100
N 	N 	0.95940 0.54110 0.74892 -0.25400
N 	N 	0.00856 0.69135 0.89962 -0.25400
C 	C 	0.91020 0.60699 0.78301 -0.14800
H 	H 	0.87060 0.63130 0.78540 0.08700
C 	C 	0.90450 0.57612 0.75443 0.07500
H 	H 	0.85930 0.58000 0.73800 -0.01600
C 	C 	0.02384 0.53604 0.77295 0.06300
H 	H 	0.06340 0.51190 0.76950 -0.02600
C 	C 	0.03405 0.56481 0.80234 -0.14500
H 	H 	0.07980 0.56000 0.81840 0.07500
C 	C 	0.97610 0.60115 0.80815 0.05700
C 	C 	0.98508 0.63217 0.84016 0.05400
C 	C 	0.96950 0.67987 0.83738 -0.14400
H 	H 	0.95080 0.69290 0.81560 0.05200
C 	C 	0.98240 0.70750 0.86751 0.07500
H 	H 	0.97220 0.73940 0.86530 -0.05900
C 	C 	0.02110 0.64568 0.90253 0.07400
H 	H 	0.03790 0.63370 0.92490 -0.00100
C 	C 	0.01042 0.61510 0.87377 -0.13400
H 	H 	0.02020 0.58330 0.87700 0.07900
Cd	Cd	0.96182 0.99189 0.19779 1.17500
O 	O 	0.87024 0.93438 0.22962 -0.36700
O 	O 	0.00922 0.93400 0.24006 -0.39500
C 	C 	0.93310 0.92052 0.24711 0.29400
C 	C 	0.91810 0.88666 0.27814 0.01000
C 	C 	0.98340 0.88330 0.30140 -0.23400
H 	H 	0.97870 0.86390 0.32160 0.10800
H 	H 	0.03390 0.90040 0.29760 0.10900
N 	N 	0.82518 0.01066 0.17237 -0.24800
C 	C 	0.82100 0.02438 0.13771 0.07200
H 	H 	0.87240 0.03240 0.12600 -0.04400
C 	C 	0.74470 0.02726 0.11835 -0.14700
H 	H 	0.74550 0.03670 0.09420 0.07600
C 	C 	0.66646 0.01597 0.13511 0.05700
C 	C 	0.67080 0.00309 0.17136 -0.13900
H 	H 	0.62020 0.99640 0.18410 0.08400
C 	C 	0.75020 0.00014 0.18853 0.08000
H 	H 	0.75150 0.99030 0.21260 -0.00000
N 	N 	0.95940 0.04110 0.24892 -0.25400
N 	N 	0.00856 0.19135 0.39962 -0.25400
C 	C 	0.91020 0.10699 0.28301 -0.14800
H 	H 	0.87060 0.13130 0.28540 0.08700
C 	C 	0.90450 0.07612 0.25443 0.07600
H 	H 	0.85930 0.08000 0.23800 -0.01600
C 	C 	0.02384 0.03604 0.27295 0.06200
H 	H 	0.06340 0.01190 0.26950 -0.02500
C 	C 	0.03405 0.06481 0.30234 -0.14500
H 	H 	0.07980 0.06000 0.31840 0.07500
C 	C 	0.97610 0.10115 0.30815 0.05700
C 	C 	0.98508 0.13217 0.34016 0.05500
C 	C 	0.96950 0.17987 0.33738 -0.14400
H 	H 	0.95080 0.19290 0.31560 0.05300
C 	C 	0.98240 0.20750 0.36751 0.07600
H 	H 	0.97220 0.23940 0.36530 -0.05900
C 	C 	0.02110 0.14568 0.40253 0.07500
H 	H 	0.03790 0.13370 0.42490 -0.00100
C 	C 	0.01042 0.11510 0.37377 -0.13500
H 	H 	0.02020 0.08330 0.37700 0.07900
Cd	Cd	0.53818 0.74189 0.44779 1.17500
O 	O 	0.62976 0.68438 0.47962 -0.36700
O 	O 	0.49078 0.68400 0.49006 -0.39600
C 	C 	0.56690 0.67052 0.49711 0.29600
C 	C 	0.58190 0.63666 0.52814 0.00800
C 	C 	0.51660 0.63330 0.55140 -0.23000
H 	H 	0.52130 0.61390 0.57160 0.10700
H 	H 	0.46610 0.65040 0.54760 0.10800
N 	N 	0.67482 0.76066 0.42237 -0.24800
C 	C 	0.67900 0.77438 0.38771 0.07100
H 	H 	0.62760 0.78240 0.37600 -0.04400
C 	C 	0.75530 0.77726 0.36835 -0.14700
H 	H 	0.75450 0.78670 0.34420 0.07600
C 	C 	0.83354 0.76597 0.38511 0.05600
C 	C 	0.82920 0.75309 0.42136 -0.13900
H 	H 	0.87980 0.74640 0.43410 0.08400
C 	C 	0.74980 0.75014 0.43853 0.07900
H 	H 	0.74850 0.74030 0.46260 0.00100
N 	N 	0.54060 0.79110 0.49892 -0.25400
N 	N 	0.49144 0.94135 0.64962 -0.25400
C 	C 	0.58980 0.85699 0.53301 -0.14800
H 	H 	0.62940 0.88130 0.53540 0.08700
C 	C 	0.59550 0.82612 0.50443 0.07600
H 	H 	0.64070 0.83000 0.48800 -0.01600
C 	C 	0.47616 0.78604 0.52295 0.06300
H 	H 	0.43660 0.76190 0.51950 -0.02600
C 	C 	0.46595 0.81481 0.55234 -0.14500
H 	H 	0.42020 0.81000 0.56840 0.07500
C 	C 	0.52390 0.85115 0.55815 0.05700
C 	C 	0.51492 0.88217 0.59016 0.05400
C 	C 	0.53050 0.92987 0.58738 -0.14400
H 	H 	0.54920 0.94290 0.56560 0.05200
C 	C 	0.51760 0.95750 0.61751 0.07500
H 	H 	0.52780 0.98940 0.61530 -0.05900
C 	C 	0.47890 0.89568 0.65253 0.07400
H 	H 	0.46210 0.88370 0.67490 -0.00100
C 	C 	0.48958 0.86510 0.62377 -0.13400
H 	H 	0.47980 0.83330 0.62700 0.07900
Cd	Cd	0.53818 0.24189 0.94779 1.17500
O 	O 	0.62976 0.18438 0.97962 -0.36700
O 	O 	0.49078 0.18400 0.99006 -0.39600
C 	C 	0.56690 0.17052 0.99711 0.29600
C 	C 	0.58190 0.13666 0.02814 0.00800
C 	C 	0.51660 0.13330 0.05140 -0.23000
H 	H 	0.52130 0.11390 0.07160 0.10700
H 	H 	0.46610 0.15040 0.04760 0.10800
N 	N 	0.67482 0.26066 0.92237 -0.24800
C 	C 	0.67900 0.27438 0.88771 0.07200
H 	H 	0.62760 0.28240 0.87600 -0.04400
C 	C 	0.75530 0.27726 0.86835 -0.14700
H 	H 	0.75450 0.28670 0.84420 0.07600
C 	C 	0.83354 0.26597 0.88511 0.05700
C 	C 	0.82920 0.25309 0.92136 -0.14000
H 	H 	0.87980 0.24640 0.93410 0.08400
C 	C 	0.74980 0.25014 0.93853 0.08000
H 	H 	0.74850 0.24030 0.96260 0.00000
N 	N 	0.54060 0.29110 0.99892 -0.25400
N 	N 	0.49144 0.44135 0.14962 -0.25400
C 	C 	0.58980 0.35699 0.03301 -0.14900
H 	H 	0.62940 0.38130 0.03540 0.08700
C 	C 	0.59550 0.32612 0.00443 0.07600
H 	H 	0.64070 0.33000 0.98800 -0.01600
C 	C 	0.47616 0.28604 0.02295 0.06300
H 	H 	0.43660 0.26190 0.01950 -0.02600
C 	C 	0.46595 0.31481 0.05234 -0.14500
H 	H 	0.42020 0.31000 0.06840 0.07500
C 	C 	0.52390 0.35115 0.05815 0.05700
C 	C 	0.51492 0.38217 0.09016 0.05400
C 	C 	0.53050 0.42987 0.08738 -0.14400
H 	H 	0.54920 0.44290 0.06560 0.05200
C 	C 	0.51760 0.45750 0.11751 0.07500
H 	H 	0.52780 0.48940 0.11530 -0.05900
C 	C 	0.47890 0.39568 0.15253 0.07400
H 	H 	0.46210 0.38370 0.17490 -0.00100
C 	C 	0.48958 0.36510 0.12377 -0.13400
H 	H 	0.47980 0.33330 0.12700 0.07900
Cd	Cd	0.03818 0.74189 0.94779 1.17500
O 	O 	0.12976 0.68438 0.97962 -0.36700
O 	O 	0.99078 0.68400 0.99006 -0.39600
C 	C 	0.06690 0.67052 0.99711 0.29600
C 	C 	0.08190 0.63666 0.02814 0.00800
C 	C 	0.01660 0.63330 0.05140 -0.22900
H 	H 	0.02130 0.61390 0.07160 0.10600
H 	H 	0.96610 0.65040 0.04760 0.10700
N 	N 	0.17482 0.76066 0.92237 -0.24800
C 	C 	0.17900 0.77438 0.88771 0.07100
H 	H 	0.12760 0.78240 0.87600 -0.04400
C 	C 	0.25530 0.77726 0.86835 -0.14700
H 	H 	0.25450 0.78670 0.84420 0.07600
C 	C 	0.33354 0.76597 0.88511 0.05700
C 	C 	0.32920 0.75309 0.92136 -0.14000
H 	H 	0.37980 0.74640 0.93410 0.08400
C 	C 	0.24980 0.75014 0.93853 0.07900
H 	H 	0.24850 0.74030 0.96260 0.00000
N 	N 	0.04060 0.79110 0.99892 -0.25400
N 	N 	0.99144 0.94135 0.14962 -0.25500
C 	C 	0.08980 0.85699 0.03301 -0.14900
H 	H 	0.12940 0.88130 0.03540 0.08700
C 	C 	0.09550 0.82612 0.00443 0.07600
H 	H 	0.14070 0.83000 0.98800 -0.01600
C 	C 	0.97616 0.78604 0.02295 0.06200
H 	H 	0.93660 0.76190 0.01950 -0.02600
C 	C 	0.96595 0.81481 0.05234 -0.14500
H 	H 	0.92020 0.81000 0.06840 0.07500
C 	C 	0.02390 0.85115 0.05815 0.05700
C 	C 	0.01492 0.88217 0.09016 0.05500
C 	C 	0.03050 0.92987 0.08738 -0.14500
H 	H 	0.04920 0.94290 0.06560 0.05300
C 	C 	0.01760 0.95750 0.11751 0.07600
H 	H 	0.02780 0.98940 0.11530 -0.05900
C 	C 	0.97890 0.89568 0.15253 0.07500
H 	H 	0.96210 0.88370 0.17490 -0.00200
C 	C 	0.98958 0.86510 0.12377 -0.13600
H 	H 	0.97980 0.83330 0.12700 0.08000
Cd	Cd	0.03818 0.24189 0.44779 1.17500
O 	O 	0.12976 0.18438 0.47962 -0.36700
O 	O 	0.99078 0.18400 0.49006 -0.39600
C 	C 	0.06690 0.17052 0.49711 0.29500
C 	C 	0.08190 0.13666 0.52814 0.00900
C 	C 	0.01660 0.13330 0.55140 -0.23300
H 	H 	0.02130 0.11390 0.57160 0.10700
H 	H 	0.96610 0.15040 0.54760 0.10900
N 	N 	0.17482 0.26066 0.42237 -0.24800
C 	C 	0.17900 0.27438 0.38771 0.07100
H 	H 	0.12760 0.28240 0.37600 -0.04400
C 	C 	0.25530 0.27726 0.36835 -0.14700
H 	H 	0.25450 0.28670 0.34420 0.07600
C 	C 	0.33354 0.26597 0.38511 0.05700
C 	C 	0.32920 0.25309 0.42136 -0.14000
H 	H 	0.37980 0.24640 0.43410 0.08400
C 	C 	0.24980 0.25014 0.43853 0.07900
H 	H 	0.24850 0.24030 0.46260 0.00000
N 	N 	0.04060 0.29110 0.49892 -0.25400
N 	N 	0.99144 0.44135 0.64962 -0.25400
C 	C 	0.08980 0.35699 0.53301 -0.14800
H 	H 	0.12940 0.38130 0.53540 0.08700
C 	C 	0.09550 0.32612 0.50443 0.07500
H 	H 	0.14070 0.33000 0.48800 -0.01600
C 	C 	0.97616 0.28604 0.52295 0.06300
H 	H 	0.93660 0.26190 0.51950 -0.02600
C 	C 	0.96595 0.31481 0.55234 -0.14400
H 	H 	0.92020 0.31000 0.56840 0.07500
C 	C 	0.02390 0.35115 0.55815 0.05600
C 	C 	0.01492 0.38217 0.59016 0.05300
C 	C 	0.03050 0.42987 0.58738 -0.14400
H 	H 	0.04920 0.44290 0.56560 0.05200
C 	C 	0.01760 0.45750 0.61751 0.07500
H 	H 	0.02780 0.48940 0.61530 -0.05900
C 	C 	0.97890 0.39568 0.65253 0.07400
H 	H 	0.96210 0.38370 0.67490 -0.00100
C 	C 	0.98958 0.36510 0.62377 -0.13400
H 	H 	0.97980 0.33330 0.62700 0.07900
Cd	Cd	0.71182 0.50811 0.44779 1.17500
O 	O 	0.62024 0.56562 0.47962 -0.36700
O 	O 	0.75922 0.56600 0.49006 -0.39600
C 	C 	0.68310 0.57948 0.49711 0.29600
C 	C 	0.66810 0.61334 0.52814 0.00800
C 	C 	0.73340 0.61670 0.55140 -0.23000
H 	H 	0.72870 0.63610 0.57160 0.10700
H 	H 	0.78390 0.59960 0.54760 0.10700
N 	N 	0.57518 0.48934 0.42237 -0.24800
C 	C 	0.57100 0.47562 0.38771 0.07100
H 	H 	0.62240 0.46760 0.37600 -0.04400
C 	C 	0.49470 0.47274 0.36835 -0.14700
H 	H 	0.49550 0.46330 0.34420 0.07600
C 	C 	0.41646 0.48403 0.38511 0.05700
C 	C 	0.42080 0.49691 0.42136 -0.14000
H 	H 	0.37020 0.50360 0.43410 0.08400
C 	C 	0.50020 0.49986 0.43853 0.07900
H 	H 	0.50150 0.50970 0.46260 0.00100
N 	N 	0.70940 0.45890 0.49892 -0.25400
N 	N 	0.75856 0.30865 0.64962 -0.25400
C 	C 	0.66020 0.39301 0.53301 -0.14800
H 	H 	0.62060 0.36870 0.53540 0.08700
C 	C 	0.65450 0.42388 0.50443 0.07500
H 	H 	0.60930 0.42000 0.48800 -0.01600
C 	C 	0.77384 0.46396 0.52295 0.06300
H 	H 	0.81340 0.48810 0.51950 -0.02600
C 	C 	0.78405 0.43519 0.55234 -0.14500
H 	H 	0.82980 0.44000 0.56840 0.07500
C 	C 	0.72610 0.39885 0.55815 0.05700
C 	C 	0.73508 0.36783 0.59016 0.05400
C 	C 	0.71950 0.32013 0.58738 -0.14400
H 	H 	0.70080 0.30710 0.56560 0.05200
C 	C 	0.73240 0.29250 0.61751 0.07500
H 	H 	0.72220 0.26060 0.61530 -0.05900
C 	C 	0.77110 0.35432 0.65253 0.07400
H 	H 	0.78790 0.36630 0.67490 -0.00100
C 	C 	0.76042 0.38490 0.62377 -0.13400
H 	H 	0.77020 0.41670 0.62700 0.07900
Cd	Cd	0.71182 0.00811 0.94779 1.17500
O 	O 	0.62024 0.06562 0.97962 -0.36700
O 	O 	0.75922 0.06600 0.99006 -0.39600
C 	C 	0.68310 0.07948 0.99711 0.29600
C 	C 	0.66810 0.11334 0.02814 0.00800
C 	C 	0.73340 0.11670 0.05140 -0.23000
H 	H 	0.72870 0.13610 0.07160 0.10700
H 	H 	0.78390 0.09960 0.04760 0.10800
N 	N 	0.57518 0.98934 0.92237 -0.24800
C 	C 	0.57100 0.97562 0.88771 0.07100
H 	H 	0.62240 0.96760 0.87600 -0.04400
C 	C 	0.49470 0.97274 0.86835 -0.14700
H 	H 	0.49550 0.96330 0.84420 0.07600
C 	C 	0.41646 0.98403 0.88511 0.05700
C 	C 	0.42080 0.99691 0.92136 -0.13900
H 	H 	0.37020 0.00360 0.93410 0.08400
C 	C 	0.50020 0.99986 0.93853 0.08000
H 	H 	0.50150 0.00970 0.96260 0.00000
N 	N 	0.70940 0.95890 0.99892 -0.25300
N 	N 	0.75856 0.80865 0.14962 -0.25400
C 	C 	0.66020 0.89301 0.03301 -0.14800
H 	H 	0.62060 0.86870 0.03540 0.08600
C 	C 	0.65450 0.92388 0.00443 0.07400
H 	H 	0.60930 0.92000 0.98800 -0.01500
C 	C 	0.77384 0.96396 0.02295 0.06200
H 	H 	0.81340 0.98810 0.01950 -0.02500
C 	C 	0.78405 0.93519 0.05234 -0.14400
H 	H 	0.82980 0.94000 0.06840 0.07500
C 	C 	0.72610 0.89885 0.05815 0.05600
C 	C 	0.73508 0.86783 0.09016 0.05400
C 	C 	0.71950 0.82013 0.08738 -0.14400
H 	H 	0.70080 0.80710 0.06560 0.05200
C 	C 	0.73240 0.79250 0.11751 0.07500
H 	H 	0.72220 0.76060 0.11530 -0.05900
C 	C 	0.77110 0.85432 0.15253 0.07500
H 	H 	0.78790 0.86630 0.17490 -0.00100
C 	C 	0.76042 0.88490 0.12377 -0.13400
H 	H 	0.77020 0.91670 0.12700 0.07900
Cd	Cd	0.21182 0.50811 0.94779 1.17500
O 	O 	0.12024 0.56562 0.97962 -0.36700
O 	O 	0.25922 0.56600 0.99006 -0.39600
C 	C 	0.18310 0.57948 0.99711 0.29600
C 	C 	0.16810 0.61334 0.02814 0.00900
C 	C 	0.23340 0.61670 0.05140 -0.23100
H 	H 	0.22870 0.63610 0.07160 0.10700
H 	H 	0.28390 0.59960 0.04760 0.10800
N 	N 	0.07518 0.48934 0.92237 -0.24800
C 	C 	0.07100 0.47562 0.88771 0.07100
H 	H 	0.12240 0.46760 0.87600 -0.04400
C 	C 	0.99470 0.47274 0.86835 -0.14600
H 	H 	0.99550 0.46330 0.84420 0.07600
C 	C 	0.91646 0.48403 0.88511 0.05600
C 	C 	0.92080 0.49691 0.92136 -0.13900
H 	H 	0.87020 0.50360 0.93410 0.08400
C 	C 	0.00020 0.49986 0.93853 0.07900
H 	H 	0.00150 0.50970 0.96260 0.00100
N 	N 	0.20940 0.45890 0.99892 -0.25400
N 	N 	0.25856 0.30865 0.14962 -0.25400
C 	C 	0.16020 0.39301 0.03301 -0.14900
H 	H 	0.12060 0.36870 0.03540 0.08700
C 	C 	0.15450 0.42388 0.00443 0.07600
H 	H 	0.10930 0.42000 0.98800 -0.01600
C 	C 	0.27384 0.46396 0.02295 0.06300
H 	H 	0.31340 0.48810 0.01950 -0.02600
C 	C 	0.28405 0.43519 0.05234 -0.14500
H 	H 	0.32980 0.44000 0.06840 0.07500
C 	C 	0.22610 0.39885 0.05815 0.05700
C 	C 	0.23508 0.36783 0.09016 0.05400
C 	C 	0.21950 0.32013 0.08738 -0.14400
H 	H 	0.20080 0.30710 0.06560 0.05200
C 	C 	0.23240 0.29250 0.11751 0.07500
H 	H 	0.22220 0.26060 0.11530 -0.05900
C 	C 	0.27110 0.35432 0.15253 0.07400
H 	H 	0.28790 0.36630 0.17490 -0.00100
C 	C 	0.26042 0.38490 0.12377 -0.13400
H 	H 	0.27020 0.41670 0.12700 0.07900
Cd	Cd	0.21182 0.00811 0.44779 1.17500
O 	O 	0.12024 0.06562 0.47962 -0.36700
O 	O 	0.25922 0.06600 0.49006 -0.39600
C 	C 	0.18310 0.07948 0.49711 0.29600
C 	C 	0.16810 0.11334 0.52814 0.00800
C 	C 	0.23340 0.11670 0.55140 -0.23000
H 	H 	0.22870 0.13610 0.57160 0.10600
H 	H 	0.28390 0.09960 0.54760 0.10700
N 	N 	0.07518 0.98934 0.42237 -0.24900
C 	C 	0.07100 0.97562 0.38771 0.07400
H 	H 	0.12240 0.96760 0.37600 -0.04500
C 	C 	0.99470 0.97274 0.36835 -0.15000
H 	H 	0.99550 0.96330 0.34420 0.07700
C 	C 	0.91646 0.98403 0.38511 0.06000
C 	C 	0.92080 0.99691 0.42136 -0.14500
H 	H 	0.87020 0.00360 0.43410 0.08600
C 	C 	0.00020 0.99986 0.43853 0.08400
H 	H 	0.00150 0.00970 0.46260 -0.00200
N 	N 	0.20940 0.95890 0.49892 -0.25400
N 	N 	0.25856 0.80865 0.64962 -0.25400
C 	C 	0.16020 0.89301 0.53301 -0.14800
H 	H 	0.12060 0.86870 0.53540 0.08700
C 	C 	0.15450 0.92388 0.50443 0.07600
H 	H 	0.10930 0.92000 0.48800 -0.01600
C 	C 	0.27384 0.96396 0.52295 0.06300
H 	H 	0.31340 0.98810 0.51950 -0.02500
C 	C 	0.28405 0.93519 0.55234 -0.14400
H 	H 	0.32980 0.94000 0.56840 0.07500
C 	C 	0.22610 0.89885 0.55815 0.05700
C 	C 	0.23508 0.86783 0.59016 0.05400
C 	C 	0.21950 0.82013 0.58738 -0.14400
H 	H 	0.20080 0.80710 0.56560 0.05200
C 	C 	0.23240 0.79250 0.61751 0.07500
H 	H 	0.22220 0.76060 0.61530 -0.05900
C 	C 	0.27110 0.85432 0.65253 0.07500
H 	H 	0.28790 0.86630 0.67490 -0.00100
C 	C 	0.26042 0.88490 0.62377 -0.13400
H 	H 	0.27020 0.91670 0.62700 0.07900
Cd	Cd	0.71182 0.74189 0.80221 1.17500
O 	O 	0.62024 0.68438 0.77038 -0.36700
O 	O 	0.75922 0.68400 0.75994 -0.39600
C 	C 	0.68310 0.67052 0.75289 0.29600
C 	C 	0.66810 0.63666 0.72186 0.00800
C 	C 	0.73340 0.63330 0.69860 -0.23000
H 	H 	0.72870 0.61390 0.67840 0.10700
H 	H 	0.78390 0.65040 0.70240 0.10700
N 	N 	0.57518 0.76066 0.82763 -0.24800
C 	C 	0.57100 0.77438 0.86229 0.07100
H 	H 	0.62240 0.78240 0.87400 -0.04400
C 	C 	0.49470 0.77726 0.88165 -0.14700
H 	H 	0.49550 0.78670 0.90580 0.07600
C 	C 	0.41646 0.76597 0.86489 0.05700
C 	C 	0.42080 0.75309 0.82864 -0.14000
H 	H 	0.37020 0.74640 0.81590 0.08400
C 	C 	0.50020 0.75014 0.81147 0.07900
H 	H 	0.50150 0.74030 0.78740 0.00100
N 	N 	0.70940 0.79110 0.75108 -0.25400
N 	N 	0.75856 0.94135 0.60038 -0.25400
C 	C 	0.66020 0.85699 0.71699 -0.14800
H 	H 	0.62060 0.88130 0.71460 0.08700
C 	C 	0.65450 0.82612 0.74557 0.07500
H 	H 	0.60930 0.83000 0.76200 -0.01600
C 	C 	0.77384 0.78604 0.72705 0.06300
H 	H 	0.81340 0.76190 0.73050 -0.02600
C 	C 	0.78405 0.81481 0.69766 -0.14500
H 	H 	0.82980 0.81000 0.68160 0.07500
C 	C 	0.72610 0.85115 0.69185 0.05700
C 	C 	0.73508 0.88217 0.65984 0.05400
C 	C 	0.71950 0.92987 0.66262 -0.14400
H 	H 	0.70080 0.94290 0.68440 0.05200
C 	C 	0.73240 0.95750 0.63249 0.07500
H 	H 	0.72220 0.98940 0.63470 -0.05900
C 	C 	0.77110 0.89568 0.59747 0.07400
H 	H 	0.78790 0.88370 0.57510 -0.00100
C 	C 	0.76042 0.86510 0.62623 -0.13400
H 	H 	0.77020 0.83330 0.62300 0.07900
Cd	Cd	0.71182 0.24189 0.30221 1.17500
O 	O 	0.62024 0.18438 0.27038 -0.36700
O 	O 	0.75922 0.18400 0.25994 -0.39600
C 	C 	0.68310 0.17052 0.25289 0.29600
C 	C 	0.66810 0.13666 0.22186 0.00800
C 	C 	0.73340 0.13330 0.19860 -0.23000
H 	H 	0.72870 0.11390 0.17840 0.10700
H 	H 	0.78390 0.15040 0.20240 0.10800
N 	N 	0.57518 0.26066 0.32763 -0.24800
C 	C 	0.57100 0.27438 0.36229 0.07100
H 	H 	0.62240 0.28240 0.37400 -0.04400
C 	C 	0.49470 0.27726 0.38165 -0.14700
H 	H 	0.49550 0.28670 0.40580 0.07600
C 	C 	0.41646 0.26597 0.36489 0.05700
C 	C 	0.42080 0.25309 0.32864 -0.14000
H 	H 	0.37020 0.24640 0.31590 0.08400
C 	C 	0.50020 0.25014 0.31147 0.07900
H 	H 	0.50150 0.24030 0.28740 0.00100
N 	N 	0.70940 0.29110 0.25108 -0.25400
N 	N 	0.75856 0.44135 0.10038 -0.25400
C 	C 	0.66020 0.35699 0.21699 -0.14800
H 	H 	0.62060 0.38130 0.21460 0.08700
C 	C 	0.65450 0.32612 0.24557 0.07500
H 	H 	0.60930 0.33000 0.26200 -0.01600
C 	C 	0.77384 0.28604 0.22705 0.06300
H 	H 	0.81340 0.26190 0.23050 -0.02600
C 	C 	0.78405 0.31481 0.19766 -0.14500
H 	H 	0.82980 0.31000 0.18160 0.07500
C 	C 	0.72610 0.35115 0.19185 0.05700
C 	C 	0.73508 0.38217 0.15984 0.05400
C 	C 	0.71950 0.42987 0.16262 -0.14400
H 	H 	0.70080 0.44290 0.18440 0.05200
C 	C 	0.73240 0.45750 0.13249 0.07500
H 	H 	0.72220 0.48940 0.13470 -0.05900
C 	C 	0.77110 0.39568 0.09747 0.07400
H 	H 	0.78790 0.38370 0.07510 -0.00100
C 	C 	0.76042 0.36510 0.12623 -0.13400
H 	H 	0.77020 0.33330 0.12300 0.07900
Cd	Cd	0.21182 0.74189 0.30221 1.17500
O 	O 	0.12024 0.68438 0.27038 -0.36700
O 	O 	0.25922 0.68400 0.25994 -0.39600
C 	C 	0.18310 0.67052 0.25289 0.29600
C 	C 	0.16810 0.63666 0.22186 0.00800
C 	C 	0.23340 0.63330 0.19860 -0.23100
H 	H 	0.22870 0.61390 0.17840 0.10700
H 	H 	0.28390 0.65040 0.20240 0.10800
N 	N 	0.07518 0.76066 0.32763 -0.24800
C 	C 	0.07100 0.77438 0.36229 0.07300
H 	H 	0.12240 0.78240 0.37400 -0.04500
C 	C 	0.99470 0.77726 0.38165 -0.14800
H 	H 	0.99550 0.78670 0.40580 0.07600
C 	C 	0.91646 0.76597 0.36489 0.05800
C 	C 	0.92080 0.75309 0.32864 -0.14100
H 	H 	0.87020 0.74640 0.31590 0.08400
C 	C 	0.00020 0.75014 0.31147 0.08000
H 	H 	0.00150 0.74030 0.28740 0.00000
N 	N 	0.20940 0.79110 0.25108 -0.25400
N 	N 	0.25856 0.94135 0.10038 -0.25400
C 	C 	0.16020 0.85699 0.21699 -0.14800
H 	H 	0.12060 0.88130 0.21460 0.08700
C 	C 	0.15450 0.82612 0.24557 0.07600
H 	H 	0.10930 0.83000 0.26200 -0.01600
C 	C 	0.27384 0.78604 0.22705 0.06300
H 	H 	0.31340 0.76190 0.23050 -0.02600
C 	C 	0.28405 0.81481 0.19766 -0.14500
H 	H 	0.32980 0.81000 0.18160 0.07500
C 	C 	0.22610 0.85115 0.19185 0.05700
C 	C 	0.23508 0.88217 0.15984 0.05400
C 	C 	0.21950 0.92987 0.16262 -0.14400
H 	H 	0.20080 0.94290 0.18440 0.05300
C 	C 	0.23240 0.95750 0.13249 0.07500
H 	H 	0.22220 0.98940 0.13470 -0.05900
C 	C 	0.27110 0.89568 0.09747 0.07400
H 	H 	0.28790 0.88370 0.07510 -0.00100
C 	C 	0.26042 0.86510 0.12623 -0.13400
H 	H 	0.27020 0.83330 0.12300 0.07900
Cd	Cd	0.21182 0.24189 0.80221 1.17500
O 	O 	0.12024 0.18438 0.77038 -0.36700
O 	O 	0.25922 0.18400 0.75994 -0.39600
C 	C 	0.18310 0.17052 0.75289 0.29600
C 	C 	0.16810 0.13666 0.72186 0.00700
C 	C 	0.23340 0.13330 0.69860 -0.23000
H 	H 	0.22870 0.11390 0.67840 0.10600
H 	H 	0.28390 0.15040 0.70240 0.10700
N 	N 	0.07518 0.26066 0.82763 -0.24700
C 	C 	0.07100 0.27438 0.86229 0.07000
H 	H 	0.12240 0.28240 0.87400 -0.04400
C 	C 	0.99470 0.27726 0.88165 -0.14600
H 	H 	0.99550 0.28670 0.90580 0.07600
C 	C 	0.91646 0.26597 0.86489 0.05600
C 	C 	0.92080 0.25309 0.82864 -0.13800
H 	H 	0.87020 0.24640 0.81590 0.08400
C 	C 	0.00020 0.25014 0.81147 0.07800
H 	H 	0.00150 0.24030 0.78740 0.00100
N 	N 	0.20940 0.29110 0.75108 -0.25400
N 	N 	0.25856 0.44135 0.60038 -0.25400
C 	C 	0.16020 0.35699 0.71699 -0.14800
H 	H 	0.12060 0.38130 0.71460 0.08700
C 	C 	0.15450 0.32612 0.74557 0.07500
H 	H 	0.10930 0.33000 0.76200 -0.01600
C 	C 	0.27384 0.28604 0.72705 0.06300
H 	H 	0.31340 0.26190 0.73050 -0.02600
C 	C 	0.28405 0.31481 0.69766 -0.14500
H 	H 	0.32980 0.31000 0.68160 0.07500
C 	C 	0.22610 0.35115 0.69185 0.05700
C 	C 	0.23508 0.38217 0.65984 0.05400
C 	C 	0.21950 0.42987 0.66262 -0.14400
H 	H 	0.20080 0.44290 0.68440 0.05200
C 	C 	0.23240 0.45750 0.63249 0.07500
H 	H 	0.22220 0.48940 0.63470 -0.05900
C 	C 	0.27110 0.39568 0.59747 0.07400
H 	H 	0.28790 0.38370 0.57510 -0.00100
C 	C 	0.26042 0.36510 0.62623 -0.13400
H 	H 	0.27020 0.33330 0.62300 0.07900
Cd	Cd	0.53818 0.50811 0.80221 1.17500
O 	O 	0.62976 0.56562 0.77038 -0.36700
O 	O 	0.49078 0.56600 0.75994 -0.39600
C 	C 	0.56690 0.57948 0.75289 0.29600
C 	C 	0.58190 0.61334 0.72186 0.00800
C 	C 	0.51660 0.61670 0.69860 -0.23000
H 	H 	0.52130 0.63610 0.67840 0.10700
H 	H 	0.46610 0.59960 0.70240 0.10800
N 	N 	0.67482 0.48934 0.82763 -0.24800
C 	C 	0.67900 0.47562 0.86229 0.07200
H 	H 	0.62760 0.46760 0.87400 -0.04400
C 	C 	0.75530 0.47274 0.88165 -0.14700
H 	H 	0.75450 0.46330 0.90580 0.07600
C 	C 	0.83354 0.48403 0.86489 0.05700
C 	C 	0.82920 0.49691 0.82864 -0.14000
H 	H 	0.87980 0.50360 0.81590 0.08400
C 	C 	0.74980 0.49986 0.81147 0.07900
H 	H 	0.74850 0.50970 0.78740 0.00000
N 	N 	0.54060 0.45890 0.75108 -0.25400
N 	N 	0.49144 0.30865 0.60038 -0.25400
C 	C 	0.58980 0.39301 0.71699 -0.14800
H 	H 	0.62940 0.36870 0.71460 0.08700
C 	C 	0.59550 0.42388 0.74557 0.07500
H 	H 	0.64070 0.42000 0.76200 -0.01600
C 	C 	0.47616 0.46396 0.72705 0.06300
H 	H 	0.43660 0.48810 0.73050 -0.02600
C 	C 	0.46595 0.43519 0.69766 -0.14500
H 	H 	0.42020 0.44000 0.68160 0.07500
C 	C 	0.52390 0.39885 0.69185 0.05700
C 	C 	0.51492 0.36783 0.65984 0.05400
C 	C 	0.53050 0.32013 0.66262 -0.14400
H 	H 	0.54920 0.30710 0.68440 0.05200
C 	C 	0.51760 0.29250 0.63249 0.07500
H 	H 	0.52780 0.26060 0.63470 -0.05900
C 	C 	0.47890 0.35432 0.59747 0.07400
H 	H 	0.46210 0.36630 0.57510 -0.00100
C 	C 	0.48958 0.38490 0.62623 -0.13400
H 	H 	0.47980 0.41670 0.62300 0.07900
Cd	Cd	0.53818 0.00811 0.30221 1.17500
O 	O 	0.62976 0.06562 0.27038 -0.36700
O 	O 	0.49078 0.06600 0.25994 -0.39600
C 	C 	0.56690 0.07948 0.25289 0.29600
C 	C 	0.58190 0.11334 0.22186 0.00800
C 	C 	0.51660 0.11670 0.19860 -0.23000
H 	H 	0.52130 0.13610 0.17840 0.10700
H 	H 	0.46610 0.09960 0.20240 0.10800
N 	N 	0.67482 0.98934 0.32763 -0.24800
C 	C 	0.67900 0.97562 0.36229 0.07100
H 	H 	0.62760 0.96760 0.37400 -0.04400
C 	C 	0.75530 0.97274 0.38165 -0.14600
H 	H 	0.75450 0.96330 0.40580 0.07600
C 	C 	0.83354 0.98403 0.36489 0.05600
C 	C 	0.82920 0.99691 0.32864 -0.14000
H 	H 	0.87980 0.00360 0.31590 0.08500
C 	C 	0.74980 0.99986 0.31147 0.07900
H 	H 	0.74850 0.00970 0.28740 0.00100
N 	N 	0.54060 0.95890 0.25108 -0.25400
N 	N 	0.49144 0.80865 0.10038 -0.25400
C 	C 	0.58980 0.89301 0.21699 -0.14800
H 	H 	0.62940 0.86870 0.21460 0.08700
C 	C 	0.59550 0.92388 0.24557 0.07500
H 	H 	0.64070 0.92000 0.26200 -0.01600
C 	C 	0.47616 0.96396 0.22705 0.06300
H 	H 	0.43660 0.98810 0.23050 -0.02500
C 	C 	0.46595 0.93519 0.19766 -0.14400
H 	H 	0.42020 0.94000 0.18160 0.07500
C 	C 	0.52390 0.89885 0.19185 0.05700
C 	C 	0.51492 0.86783 0.15984 0.05400
C 	C 	0.53050 0.82013 0.16262 -0.14400
H 	H 	0.54920 0.80710 0.18440 0.05200
C 	C 	0.51760 0.79250 0.13249 0.07500
H 	H 	0.52780 0.76060 0.13470 -0.05900
C 	C 	0.47890 0.85432 0.09747 0.07400
H 	H 	0.46210 0.86630 0.07510 -0.00100
C 	C 	0.48958 0.88490 0.12623 -0.13400
H 	H 	0.47980 0.91670 0.12300 0.07900
Cd	Cd	0.03818 0.50811 0.30221 1.17500
O 	O 	0.12976 0.56562 0.27038 -0.36700
O 	O 	0.99078 0.56600 0.25994 -0.39600
C 	C 	0.06690 0.57948 0.25289 0.29600
C 	C 	0.08190 0.61334 0.22186 0.00800
C 	C 	0.01660 0.61670 0.19860 -0.22900
H 	H 	0.02130 0.63610 0.17840 0.10600
H 	H 	0.96610 0.59960 0.20240 0.10700
N 	N 	0.17482 0.48934 0.32763 -0.24800
C 	C 	0.17900 0.47562 0.36229 0.07100
H 	H 	0.12760 0.46760 0.37400 -0.04400
C 	C 	0.25530 0.47274 0.38165 -0.14700
H 	H 	0.25450 0.46330 0.40580 0.07600
C 	C 	0.33354 0.48403 0.36489 0.05700
C 	C 	0.32920 0.49691 0.32864 -0.14000
H 	H 	0.37980 0.50360 0.31590 0.08400
C 	C 	0.24980 0.49986 0.31147 0.07900
H 	H 	0.24850 0.50970 0.28740 0.00100
N 	N 	0.04060 0.45890 0.25108 -0.25400
N 	N 	0.99144 0.30865 0.10038 -0.25400
C 	C 	0.08980 0.39301 0.21699 -0.14800
H 	H 	0.12940 0.36870 0.21460 0.08700
C 	C 	0.09550 0.42388 0.24557 0.07500
H 	H 	0.14070 0.42000 0.26200 -0.01600
C 	C 	0.97616 0.46396 0.22705 0.06300
H 	H 	0.93660 0.48810 0.23050 -0.02600
C 	C 	0.96595 0.43519 0.19766 -0.14500
H 	H 	0.92020 0.44000 0.18160 0.07500
C 	C 	0.02390 0.39885 0.19185 0.05700
C 	C 	0.01492 0.36783 0.15984 0.05400
C 	C 	0.03050 0.32013 0.16262 -0.14400
H 	H 	0.04920 0.30710 0.18440 0.05200
C 	C 	0.01760 0.29250 0.13249 0.07500
H 	H 	0.02780 0.26060 0.13470 -0.05900
C 	C 	0.97890 0.35432 0.09747 0.07400
H 	H 	0.96210 0.36630 0.07510 -0.00100
C 	C 	0.98958 0.38490 0.12623 -0.13400
H 	H 	0.97980 0.41670 0.12300 0.07900
Cd	Cd	0.03818 0.00811 0.80221 1.17500
O 	O 	0.12976 0.06562 0.77038 -0.36700
O 	O 	0.99078 0.06600 0.75994 -0.39500
C 	C 	0.06690 0.07948 0.75289 0.29400
C 	C 	0.08190 0.11334 0.72186 0.01000
C 	C 	0.01660 0.11670 0.69860 -0.23400
H 	H 	0.02130 0.13610 0.67840 0.10800
H 	H 	0.96610 0.09960 0.70240 0.10900
N 	N 	0.17482 0.98934 0.82763 -0.24800
C 	C 	0.17900 0.97562 0.86229 0.07200
H 	H 	0.12760 0.96760 0.87400 -0.04400
C 	C 	0.25530 0.97274 0.88165 -0.14700
H 	H 	0.25450 0.96330 0.90580 0.07600
C 	C 	0.33354 0.98403 0.86489 0.05700
C 	C 	0.32920 0.99691 0.82864 -0.13900
H 	H 	0.37980 0.00360 0.81590 0.08400
C 	C 	0.24980 0.99986 0.81147 0.08000
H 	H 	0.24850 0.00970 0.78740 -0.00000
N 	N 	0.04060 0.95890 0.75108 -0.25400
N 	N 	0.99144 0.80865 0.60038 -0.25400
C 	C 	0.08980 0.89301 0.71699 -0.14800
H 	H 	0.12940 0.86870 0.71460 0.08700
C 	C 	0.09550 0.92388 0.74557 0.07600
H 	H 	0.14070 0.92000 0.76200 -0.01600
C 	C 	0.97616 0.96396 0.72705 0.06200
H 	H 	0.93660 0.98810 0.73050 -0.02500
C 	C 	0.96595 0.93519 0.69766 -0.14500
H 	H 	0.92020 0.94000 0.68160 0.07500
C 	C 	0.02390 0.89885 0.69185 0.05700
C 	C 	0.01492 0.86783 0.65984 0.05500
C 	C 	0.03050 0.82013 0.66262 -0.14400
H 	H 	0.04920 0.80710 0.68440 0.05300
C 	C 	0.01760 0.79250 0.63249 0.07600
H 	H 	0.02780 0.76060 0.63470 -0.05900
C 	C 	0.97890 0.85432 0.59747 0.07500
H 	H 	0.96210 0.86630 0.57510 -0.00100
C 	C 	0.98958 0.88490 0.62623 -0.13500
H 	H 	0.97980 0.91670 0.62300 0.07900
