data_crystal

_cell_length_a 15.43300
_cell_length_b 28.55200
_cell_length_c 36.86100
_cell_angle_alpha 90.00000
_cell_angle_beta  90.00000
_cell_angle_gamma 90.00000

_symmetry_space_group_name_	'P 1'
_symmetry_space_group_name_H-M	'P 1'

loop_
_symmetry_equiv_pos_as_xyz
  x,y,z

loop_
_atom_site_label
_atom_site_type_symbol
_atom_site_fract_x
_atom_site_fract_y
_atom_site_fract_z
_atom_site_charge
Cd	Cd	0.46136 0.25813 0.55228 1.17600
O 	O 	0.36990 0.31558 0.52055 -0.36500
O 	O 	0.50877 0.31618 0.50995 -0.39600
C 	C 	0.43314 0.32963 0.50299 0.29500
C 	C 	0.41839 0.36324 0.47207 0.01300
C 	C 	0.48200 0.36670 0.44927 -0.23600
H 	H 	0.47710 0.38630 0.42920 0.11000
H 	H 	0.53260 0.34960 0.45300 0.11100
N 	N 	0.32496 0.23934 0.57774 -0.24900
C 	C 	0.32055 0.22564 0.61231 0.07700
H 	H 	0.37190 0.21750 0.62390 -0.04500
C 	C 	0.24499 0.22283 0.63172 -0.15000
H 	H 	0.24590 0.21360 0.65590 0.07800
C 	C 	0.16671 0.23394 0.61486 0.05900
C 	C 	0.17080 0.24658 0.57870 -0.14300
H 	H 	0.12030 0.25300 0.56590 0.08600
C 	C 	0.25049 0.24963 0.56177 0.08500
H 	H 	0.25190 0.25950 0.53770 0.00000
N 	N 	0.45916 0.20879 0.50120 -0.25200
N 	N 	0.50844 0.05852 0.35054 -0.25400
C 	C 	0.53398 0.18502 0.44787 -0.14300
H 	H 	0.57990 0.18970 0.43190 0.07600
C 	C 	0.52353 0.21380 0.47724 0.06400
H 	H 	0.56310 0.23800 0.48070 -0.02500
C 	C 	0.40402 0.17357 0.49574 0.07400
H 	H 	0.35910 0.16950 0.51230 -0.01400
C 	C 	0.40978 0.14291 0.46699 -0.14700
H 	H 	0.37000 0.11870 0.46440 0.08600
C 	C 	0.47586 0.14879 0.44197 0.05500
C 	C 	0.48486 0.11767 0.40994 0.05600
C 	C 	0.50980 0.13485 0.37649 -0.13600
H 	H 	0.51900 0.16680 0.37340 0.08000
C 	C 	0.52107 0.10439 0.34768 0.07500
H 	H 	0.53820 0.11650 0.32540 -0.00200
C 	C 	0.48248 0.04229 0.38247 0.07900
H 	H 	0.47250 0.01030 0.38460 -0.06000
C 	C 	0.46943 0.06989 0.41256 -0.14700
H 	H 	0.45060 0.05680 0.43430 0.05300
Cd	Cd	0.46136 0.75813 0.05228 1.17500
O 	O 	0.36990 0.81558 0.02055 -0.36600
O 	O 	0.50877 0.81618 0.00995 -0.39700
C 	C 	0.43314 0.82963 0.00299 0.29300
C 	C 	0.41839 0.86324 0.97207 0.01200
C 	C 	0.48200 0.86670 0.94927 -0.23700
H 	H 	0.47710 0.88630 0.92920 0.10900
H 	H 	0.53260 0.84960 0.95300 0.11000
N 	N 	0.32496 0.73934 0.07774 -0.25000
C 	C 	0.32055 0.72564 0.11231 0.07600
H 	H 	0.37190 0.71750 0.12390 -0.04600
C 	C 	0.24499 0.72283 0.13172 -0.15100
H 	H 	0.24590 0.71360 0.15590 0.07700
C 	C 	0.16671 0.73394 0.11486 0.05900
C 	C 	0.17080 0.74658 0.07870 -0.14400
H 	H 	0.12030 0.75300 0.06590 0.08600
C 	C 	0.25049 0.74963 0.06177 0.08400
H 	H 	0.25190 0.75950 0.03770 -0.00100
N 	N 	0.45916 0.70879 0.00120 -0.25400
N 	N 	0.50844 0.55852 0.85054 -0.25500
C 	C 	0.53398 0.68502 0.94787 -0.14400
H 	H 	0.57990 0.68970 0.93190 0.07500
C 	C 	0.52353 0.71380 0.97724 0.06300
H 	H 	0.56310 0.73800 0.98070 -0.02600
C 	C 	0.40402 0.67357 0.99574 0.07300
H 	H 	0.35910 0.66950 0.01230 -0.01500
C 	C 	0.40978 0.64291 0.96699 -0.14700
H 	H 	0.37000 0.61870 0.96440 0.08600
C 	C 	0.47586 0.64879 0.94197 0.05500
C 	C 	0.48486 0.61767 0.90994 0.05600
C 	C 	0.50980 0.63485 0.87649 -0.13600
H 	H 	0.51900 0.66680 0.87340 0.08000
C 	C 	0.52107 0.60439 0.84768 0.07500
H 	H 	0.53820 0.61650 0.82540 -0.00200
C 	C 	0.48248 0.54229 0.88247 0.07900
H 	H 	0.47250 0.51030 0.88460 -0.06000
C 	C 	0.46943 0.56989 0.91256 -0.14700
H 	H 	0.45060 0.55680 0.93430 0.05300
Cd	Cd	0.96136 0.25813 0.05228 1.17500
O 	O 	0.86990 0.31558 0.02055 -0.36600
O 	O 	0.00877 0.31618 0.00995 -0.39700
C 	C 	0.93314 0.32963 0.00299 0.29400
C 	C 	0.91839 0.36324 0.97207 0.01100
C 	C 	0.98200 0.36670 0.94927 -0.23500
H 	H 	0.97710 0.38630 0.92920 0.10800
H 	H 	0.03260 0.34960 0.95300 0.10900
N 	N 	0.82496 0.23934 0.07774 -0.25000
C 	C 	0.82055 0.22564 0.11231 0.07600
H 	H 	0.87190 0.21750 0.12390 -0.04600
C 	C 	0.74499 0.22283 0.13172 -0.15100
H 	H 	0.74590 0.21360 0.15590 0.07700
C 	C 	0.66671 0.23394 0.11486 0.05900
C 	C 	0.67080 0.24658 0.07870 -0.14400
H 	H 	0.62030 0.25300 0.06590 0.08500
C 	C 	0.75049 0.24963 0.06177 0.08400
H 	H 	0.75190 0.25950 0.03770 -0.00100
N 	N 	0.95916 0.20879 0.00120 -0.25300
N 	N 	0.00844 0.05852 0.85054 -0.25600
C 	C 	0.03398 0.18502 0.94787 -0.14500
H 	H 	0.07990 0.18970 0.93190 0.07500
C 	C 	0.02353 0.21380 0.97724 0.06300
H 	H 	0.06310 0.23800 0.98070 -0.02600
C 	C 	0.90402 0.17357 0.99574 0.07300
H 	H 	0.85910 0.16950 0.01230 -0.01500
C 	C 	0.90978 0.14291 0.96699 -0.14700
H 	H 	0.87000 0.11870 0.96440 0.08600
C 	C 	0.97586 0.14879 0.94197 0.05600
C 	C 	0.98486 0.11767 0.90994 0.05700
C 	C 	0.00980 0.13485 0.87649 -0.13700
H 	H 	0.01900 0.16680 0.87340 0.08000
C 	C 	0.02107 0.10439 0.84768 0.07500
H 	H 	0.03820 0.11650 0.82540 -0.00200
C 	C 	0.98248 0.04229 0.88247 0.08000
H 	H 	0.97250 0.01030 0.88460 -0.06000
C 	C 	0.96943 0.06989 0.91256 -0.14800
H 	H 	0.95060 0.05680 0.93430 0.05400
Cd	Cd	0.96136 0.75813 0.55228 1.17500
O 	O 	0.86990 0.81558 0.52055 -0.36600
O 	O 	0.00877 0.81618 0.50995 -0.39600
C 	C 	0.93314 0.82963 0.50299 0.29300
C 	C 	0.91839 0.86324 0.47207 0.01400
C 	C 	0.98200 0.86670 0.44927 -0.24000
H 	H 	0.97710 0.88630 0.42920 0.11000
H 	H 	0.03260 0.84960 0.45300 0.11100
N 	N 	0.82496 0.73934 0.57774 -0.25000
C 	C 	0.82055 0.72564 0.61231 0.07600
H 	H 	0.87190 0.71750 0.62390 -0.04600
C 	C 	0.74499 0.72283 0.63172 -0.15100
H 	H 	0.74590 0.71360 0.65590 0.07700
C 	C 	0.66671 0.73394 0.61486 0.05900
C 	C 	0.67080 0.74658 0.57870 -0.14400
H 	H 	0.62030 0.75300 0.56590 0.08500
C 	C 	0.75049 0.74963 0.56177 0.08400
H 	H 	0.75190 0.75950 0.53770 -0.00100
N 	N 	0.95916 0.70879 0.50120 -0.25400
N 	N 	0.00844 0.55852 0.35054 -0.25500
C 	C 	0.03398 0.68502 0.44787 -0.14400
H 	H 	0.07990 0.68970 0.43190 0.07500
C 	C 	0.02353 0.71380 0.47724 0.06300
H 	H 	0.06310 0.73800 0.48070 -0.02600
C 	C 	0.90402 0.67357 0.49574 0.07300
H 	H 	0.85910 0.66950 0.51230 -0.01500
C 	C 	0.90978 0.64291 0.46699 -0.14700
H 	H 	0.87000 0.61870 0.46440 0.08600
C 	C 	0.97586 0.64879 0.44197 0.05500
C 	C 	0.98486 0.61767 0.40994 0.05600
C 	C 	0.00980 0.63485 0.37649 -0.13500
H 	H 	0.01900 0.66680 0.37340 0.08000
C 	C 	0.02107 0.60439 0.34768 0.07500
H 	H 	0.03820 0.61650 0.32540 -0.00200
C 	C 	0.98248 0.54229 0.38247 0.07800
H 	H 	0.97250 0.51030 0.38460 -0.06000
C 	C 	0.96943 0.56989 0.41256 -0.14700
H 	H 	0.95060 0.55680 0.43430 0.05300
Cd	Cd	0.28864 0.49187 0.55228 1.17500
O 	O 	0.38010 0.43442 0.52055 -0.36600
O 	O 	0.24123 0.43382 0.50995 -0.39700
C 	C 	0.31686 0.42037 0.50299 0.29400
C 	C 	0.33161 0.38676 0.47207 0.01200
C 	C 	0.26800 0.38330 0.44927 -0.23700
H 	H 	0.27290 0.36370 0.42920 0.10900
H 	H 	0.21740 0.40040 0.45300 0.11000
N 	N 	0.42504 0.51066 0.57774 -0.25000
C 	C 	0.42945 0.52436 0.61231 0.07600
H 	H 	0.37810 0.53250 0.62390 -0.04600
C 	C 	0.50501 0.52717 0.63172 -0.15100
H 	H 	0.50410 0.53640 0.65590 0.07700
C 	C 	0.58329 0.51606 0.61486 0.05900
C 	C 	0.57920 0.50342 0.57870 -0.14400
H 	H 	0.62970 0.49700 0.56590 0.08500
C 	C 	0.49951 0.50037 0.56177 0.08400
H 	H 	0.49810 0.49050 0.53770 -0.00100
N 	N 	0.29084 0.54121 0.50120 -0.25300
N 	N 	0.24156 0.69148 0.35054 -0.25500
C 	C 	0.21602 0.56498 0.44787 -0.14400
H 	H 	0.17010 0.56030 0.43190 0.07500
C 	C 	0.22647 0.53620 0.47724 0.06300
H 	H 	0.18690 0.51200 0.48070 -0.02600
C 	C 	0.34598 0.57643 0.49574 0.07300
H 	H 	0.39090 0.58050 0.51230 -0.01500
C 	C 	0.34022 0.60709 0.46699 -0.14700
H 	H 	0.38000 0.63130 0.46440 0.08600
C 	C 	0.27414 0.60121 0.44197 0.05500
C 	C 	0.26514 0.63233 0.40994 0.05600
C 	C 	0.24020 0.61515 0.37649 -0.13600
H 	H 	0.23100 0.58320 0.37340 0.08000
C 	C 	0.22893 0.64561 0.34768 0.07500
H 	H 	0.21180 0.63350 0.32540 -0.00200
C 	C 	0.26752 0.70771 0.38247 0.07900
H 	H 	0.27750 0.73970 0.38460 -0.06000
C 	C 	0.28057 0.68011 0.41256 -0.14700
H 	H 	0.29940 0.69320 0.43430 0.05300
Cd	Cd	0.28864 0.99187 0.05228 1.17500
O 	O 	0.38010 0.93442 0.02055 -0.36600
O 	O 	0.24123 0.93382 0.00995 -0.39600
C 	C 	0.31686 0.92037 0.00299 0.29300
C 	C 	0.33161 0.88676 0.97207 0.01200
C 	C 	0.26800 0.88330 0.94927 -0.23700
H 	H 	0.27290 0.86370 0.92920 0.10900
H 	H 	0.21740 0.90040 0.95300 0.11000
N 	N 	0.42504 0.01066 0.07774 -0.25000
C 	C 	0.42945 0.02436 0.11231 0.07600
H 	H 	0.37810 0.03250 0.12390 -0.04600
C 	C 	0.50501 0.02717 0.13172 -0.15100
H 	H 	0.50410 0.03640 0.15590 0.07700
C 	C 	0.58329 0.01606 0.11486 0.05900
C 	C 	0.57920 0.00342 0.07870 -0.14300
H 	H 	0.62970 0.99700 0.06590 0.08500
C 	C 	0.49951 0.00037 0.06177 0.08400
H 	H 	0.49810 0.99050 0.03770 -0.00100
N 	N 	0.29084 0.04121 0.00120 -0.25300
N 	N 	0.24156 0.19148 0.85054 -0.25500
C 	C 	0.21602 0.06498 0.94787 -0.14400
H 	H 	0.17010 0.06030 0.93190 0.07500
C 	C 	0.22647 0.03620 0.97724 0.06200
H 	H 	0.18690 0.01200 0.98070 -0.02500
C 	C 	0.34598 0.07643 0.99574 0.07200
H 	H 	0.39090 0.08050 0.01230 -0.01500
C 	C 	0.34022 0.10709 0.96699 -0.14600
H 	H 	0.38000 0.13130 0.96440 0.08600
C 	C 	0.27414 0.10121 0.94197 0.05500
C 	C 	0.26514 0.13233 0.90994 0.05600
C 	C 	0.24020 0.11515 0.87649 -0.13600
H 	H 	0.23100 0.08320 0.87340 0.08000
C 	C 	0.22893 0.14561 0.84768 0.07500
H 	H 	0.21180 0.13350 0.82540 -0.00200
C 	C 	0.26752 0.20771 0.88247 0.07900
H 	H 	0.27750 0.23970 0.88460 -0.06000
C 	C 	0.28057 0.18011 0.91256 -0.14700
H 	H 	0.29940 0.19320 0.93430 0.05300
Cd	Cd	0.78864 0.49187 0.05228 1.17500
O 	O 	0.88010 0.43442 0.02055 -0.36600
O 	O 	0.74123 0.43382 0.00995 -0.39700
C 	C 	0.81686 0.42037 0.00299 0.29300
C 	C 	0.83161 0.38676 0.97207 0.01300
C 	C 	0.76800 0.38330 0.94927 -0.23800
H 	H 	0.77290 0.36370 0.92920 0.10900
H 	H 	0.71740 0.40040 0.95300 0.11000
N 	N 	0.92504 0.51066 0.07774 -0.25000
C 	C 	0.92945 0.52436 0.11231 0.07500
H 	H 	0.87810 0.53250 0.12390 -0.04600
C 	C 	0.00501 0.52717 0.13172 -0.15000
H 	H 	0.00410 0.53640 0.15590 0.07700
C 	C 	0.08329 0.51606 0.11486 0.05800
C 	C 	0.07920 0.50342 0.07870 -0.14300
H 	H 	0.12970 0.49700 0.06590 0.08500
C 	C 	0.99951 0.50037 0.06177 0.08300
H 	H 	0.99810 0.49050 0.03770 -0.00100
N 	N 	0.79084 0.54121 0.00120 -0.25400
N 	N 	0.74156 0.69148 0.85054 -0.25500
C 	C 	0.71602 0.56498 0.94787 -0.14500
H 	H 	0.67010 0.56030 0.93190 0.07500
C 	C 	0.72647 0.53620 0.97724 0.06300
H 	H 	0.68690 0.51200 0.98070 -0.02600
C 	C 	0.84598 0.57643 0.99574 0.07400
H 	H 	0.89090 0.58050 0.01230 -0.01600
C 	C 	0.84022 0.60709 0.96699 -0.14700
H 	H 	0.88000 0.63130 0.96440 0.08600
C 	C 	0.77414 0.60121 0.94197 0.05500
C 	C 	0.76514 0.63233 0.90994 0.05600
C 	C 	0.74020 0.61515 0.87649 -0.13600
H 	H 	0.73100 0.58320 0.87340 0.08000
C 	C 	0.72893 0.64561 0.84768 0.07500
H 	H 	0.71180 0.63350 0.82540 -0.00200
C 	C 	0.76752 0.70771 0.88247 0.07900
H 	H 	0.77750 0.73970 0.88460 -0.06000
C 	C 	0.78057 0.68011 0.91256 -0.14700
H 	H 	0.79940 0.69320 0.93430 0.05300
Cd	Cd	0.78864 0.99187 0.55228 1.17500
O 	O 	0.88010 0.93442 0.52055 -0.36600
O 	O 	0.74123 0.93382 0.50995 -0.39700
C 	C 	0.81686 0.92037 0.50299 0.29400
C 	C 	0.83161 0.88676 0.47207 0.01100
C 	C 	0.76800 0.88330 0.44927 -0.23600
H 	H 	0.77290 0.86370 0.42920 0.10900
H 	H 	0.71740 0.90040 0.45300 0.11000
N 	N 	0.92504 0.01066 0.57774 -0.25100
C 	C 	0.92945 0.02436 0.61231 0.07800
H 	H 	0.87810 0.03250 0.62390 -0.04600
C 	C 	0.00501 0.02717 0.63172 -0.15400
H 	H 	0.00410 0.03640 0.65590 0.07800
C 	C 	0.08329 0.01606 0.61486 0.06100
C 	C 	0.07920 0.00342 0.57870 -0.14900
H 	H 	0.12970 0.99700 0.56590 0.08800
C 	C 	0.99951 0.00037 0.56177 0.08900
H 	H 	0.99810 0.99050 0.53770 -0.00300
N 	N 	0.79084 0.04121 0.50120 -0.25300
N 	N 	0.74156 0.19148 0.35054 -0.25500
C 	C 	0.71602 0.06498 0.44787 -0.14400
H 	H 	0.67010 0.06030 0.43190 0.07500
C 	C 	0.72647 0.03620 0.47724 0.06300
H 	H 	0.68690 0.01200 0.48070 -0.02500
C 	C 	0.84598 0.07643 0.49574 0.07300
H 	H 	0.89090 0.08050 0.51230 -0.01500
C 	C 	0.84022 0.10709 0.46699 -0.14600
H 	H 	0.88000 0.13130 0.46440 0.08600
C 	C 	0.77414 0.10121 0.44197 0.05500
C 	C 	0.76514 0.13233 0.40994 0.05600
C 	C 	0.74020 0.11515 0.37649 -0.13600
H 	H 	0.73100 0.08320 0.37340 0.08000
C 	C 	0.72893 0.14561 0.34768 0.07500
H 	H 	0.71180 0.13350 0.32540 -0.00200
C 	C 	0.76752 0.20771 0.38247 0.07900
H 	H 	0.77750 0.23970 0.38460 -0.06000
C 	C 	0.78057 0.18011 0.41256 -0.14700
H 	H 	0.79940 0.19320 0.43430 0.05300
Cd	Cd	0.28864 0.25813 0.19772 1.17500
O 	O 	0.38010 0.31558 0.22945 -0.36600
O 	O 	0.24123 0.31618 0.24005 -0.39700
C 	C 	0.31686 0.32963 0.24701 0.29400
C 	C 	0.33161 0.36324 0.27793 0.01200
C 	C 	0.26800 0.36670 0.30073 -0.23700
H 	H 	0.27290 0.38630 0.32080 0.10900
H 	H 	0.21740 0.34960 0.29700 0.11000
N 	N 	0.42504 0.23934 0.17226 -0.25000
C 	C 	0.42945 0.22564 0.13769 0.07600
H 	H 	0.37810 0.21750 0.12610 -0.04600
C 	C 	0.50501 0.22283 0.11828 -0.15100
H 	H 	0.50410 0.21360 0.09410 0.07700
C 	C 	0.58329 0.23394 0.13514 0.05900
C 	C 	0.57920 0.24658 0.17130 -0.14400
H 	H 	0.62970 0.25300 0.18410 0.08500
C 	C 	0.49951 0.24963 0.18823 0.08400
H 	H 	0.49810 0.25950 0.21230 -0.00100
N 	N 	0.29084 0.20879 0.24880 -0.25300
N 	N 	0.24156 0.05852 0.39946 -0.25500
C 	C 	0.21602 0.18502 0.30213 -0.14400
H 	H 	0.17010 0.18970 0.31810 0.07500
C 	C 	0.22647 0.21380 0.27276 0.06300
H 	H 	0.18690 0.23800 0.26930 -0.02600
C 	C 	0.34598 0.17357 0.25426 0.07300
H 	H 	0.39090 0.16950 0.23770 -0.01500
C 	C 	0.34022 0.14291 0.28301 -0.14700
H 	H 	0.38000 0.11870 0.28560 0.08600
C 	C 	0.27414 0.14879 0.30803 0.05500
C 	C 	0.26514 0.11767 0.34006 0.05600
C 	C 	0.24020 0.13485 0.37351 -0.13600
H 	H 	0.23100 0.16680 0.37660 0.08000
C 	C 	0.22893 0.10439 0.40232 0.07500
H 	H 	0.21180 0.11650 0.42460 -0.00200
C 	C 	0.26752 0.04229 0.36753 0.07900
H 	H 	0.27750 0.01030 0.36540 -0.06000
C 	C 	0.28057 0.06989 0.33744 -0.14700
H 	H 	0.29940 0.05680 0.31570 0.05300
Cd	Cd	0.28864 0.75813 0.69772 1.17500
O 	O 	0.38010 0.81558 0.72945 -0.36600
O 	O 	0.24123 0.81618 0.74005 -0.39700
C 	C 	0.31686 0.82963 0.74701 0.29400
C 	C 	0.33161 0.86324 0.77793 0.01200
C 	C 	0.26800 0.86670 0.80073 -0.23700
H 	H 	0.27290 0.88630 0.82080 0.10900
H 	H 	0.21740 0.84960 0.79700 0.11000
N 	N 	0.42504 0.73934 0.67226 -0.25000
C 	C 	0.42945 0.72564 0.63769 0.07600
H 	H 	0.37810 0.71750 0.62610 -0.04600
C 	C 	0.50501 0.72283 0.61828 -0.15100
H 	H 	0.50410 0.71360 0.59410 0.07700
C 	C 	0.58329 0.73394 0.63514 0.05900
C 	C 	0.57920 0.74658 0.67130 -0.14400
H 	H 	0.62970 0.75300 0.68410 0.08500
C 	C 	0.49951 0.74963 0.68823 0.08400
H 	H 	0.49810 0.75950 0.71230 -0.00100
N 	N 	0.29084 0.70879 0.74880 -0.25300
N 	N 	0.24156 0.55852 0.89946 -0.25500
C 	C 	0.21602 0.68502 0.80213 -0.14400
H 	H 	0.17010 0.68970 0.81810 0.07500
C 	C 	0.22647 0.71380 0.77276 0.06300
H 	H 	0.18690 0.73800 0.76930 -0.02600
C 	C 	0.34598 0.67357 0.75426 0.07300
H 	H 	0.39090 0.66950 0.73770 -0.01500
C 	C 	0.34022 0.64291 0.78301 -0.14700
H 	H 	0.38000 0.61870 0.78560 0.08600
C 	C 	0.27414 0.64879 0.80803 0.05500
C 	C 	0.26514 0.61767 0.84006 0.05600
C 	C 	0.24020 0.63485 0.87351 -0.13600
H 	H 	0.23100 0.66680 0.87660 0.08000
C 	C 	0.22893 0.60439 0.90232 0.07500
H 	H 	0.21180 0.61650 0.92460 -0.00200
C 	C 	0.26752 0.54229 0.86753 0.07900
H 	H 	0.27750 0.51030 0.86540 -0.06000
C 	C 	0.28057 0.56989 0.83744 -0.14700
H 	H 	0.29940 0.55680 0.81570 0.05300
Cd	Cd	0.78864 0.25813 0.69772 1.17500
O 	O 	0.88010 0.31558 0.72945 -0.36600
O 	O 	0.74123 0.31618 0.74005 -0.39700
C 	C 	0.81686 0.32963 0.74701 0.29300
C 	C 	0.83161 0.36324 0.77793 0.01200
C 	C 	0.76800 0.36670 0.80073 -0.23700
H 	H 	0.77290 0.38630 0.82080 0.10900
H 	H 	0.71740 0.34960 0.79700 0.11000
N 	N 	0.92504 0.23934 0.67226 -0.25100
C 	C 	0.92945 0.22564 0.63769 0.07700
H 	H 	0.87810 0.21750 0.62610 -0.04600
C 	C 	0.00501 0.22283 0.61828 -0.15200
H 	H 	0.00410 0.21360 0.59410 0.07700
C 	C 	0.08329 0.23394 0.63514 0.06000
C 	C 	0.07920 0.24658 0.67130 -0.14500
H 	H 	0.12970 0.25300 0.68410 0.08600
C 	C 	0.99951 0.24963 0.68823 0.08500
H 	H 	0.99810 0.25950 0.71230 -0.00100
N 	N 	0.79084 0.20879 0.74880 -0.25300
N 	N 	0.74156 0.05852 0.89946 -0.25500
C 	C 	0.71602 0.18502 0.80213 -0.14400
H 	H 	0.67010 0.18970 0.81810 0.07500
C 	C 	0.72647 0.21380 0.77276 0.06300
H 	H 	0.68690 0.23800 0.76930 -0.02600
C 	C 	0.84598 0.17357 0.75426 0.07300
H 	H 	0.89090 0.16950 0.73770 -0.01500
C 	C 	0.84022 0.14291 0.78301 -0.14700
H 	H 	0.88000 0.11870 0.78560 0.08600
C 	C 	0.77414 0.14879 0.80803 0.05500
C 	C 	0.76514 0.11767 0.84006 0.05600
C 	C 	0.74020 0.13485 0.87351 -0.13600
H 	H 	0.73100 0.16680 0.87660 0.08000
C 	C 	0.72893 0.10439 0.90232 0.07500
H 	H 	0.71180 0.11650 0.92460 -0.00200
C 	C 	0.76752 0.04229 0.86753 0.07900
H 	H 	0.77750 0.01030 0.86540 -0.06000
C 	C 	0.78057 0.06989 0.83744 -0.14700
H 	H 	0.79940 0.05680 0.81570 0.05300
Cd	Cd	0.78864 0.75813 0.19772 1.17500
O 	O 	0.88010 0.81558 0.22945 -0.36600
O 	O 	0.74123 0.81618 0.24005 -0.39700
C 	C 	0.81686 0.82963 0.24701 0.29400
C 	C 	0.83161 0.86324 0.27793 0.01100
C 	C 	0.76800 0.86670 0.30073 -0.23600
H 	H 	0.77290 0.88630 0.32080 0.10900
H 	H 	0.71740 0.84960 0.29700 0.11000
N 	N 	0.92504 0.73934 0.17226 -0.25000
C 	C 	0.92945 0.72564 0.13769 0.07400
H 	H 	0.87810 0.71750 0.12610 -0.04500
C 	C 	0.00501 0.72283 0.11828 -0.14900
H 	H 	0.00410 0.71360 0.09410 0.07700
C 	C 	0.08329 0.73394 0.13514 0.05800
C 	C 	0.07920 0.74658 0.17130 -0.14200
H 	H 	0.12970 0.75300 0.18410 0.08500
C 	C 	0.99951 0.74963 0.18823 0.08300
H 	H 	0.99810 0.75950 0.21230 -0.00100
N 	N 	0.79084 0.70879 0.24880 -0.25300
N 	N 	0.74156 0.55852 0.39946 -0.25500
C 	C 	0.71602 0.68502 0.30213 -0.14400
H 	H 	0.67010 0.68970 0.31810 0.07500
C 	C 	0.72647 0.71380 0.27276 0.06300
H 	H 	0.68690 0.73800 0.26930 -0.02600
C 	C 	0.84598 0.67357 0.25426 0.07300
H 	H 	0.89090 0.66950 0.23770 -0.01500
C 	C 	0.84022 0.64291 0.28301 -0.14700
H 	H 	0.88000 0.61870 0.28560 0.08600
C 	C 	0.77414 0.64879 0.30803 0.05500
C 	C 	0.76514 0.61767 0.34006 0.05600
C 	C 	0.74020 0.63485 0.37351 -0.13600
H 	H 	0.73100 0.66680 0.37660 0.08000
C 	C 	0.72893 0.60439 0.40232 0.07500
H 	H 	0.71180 0.61650 0.42460 -0.00200
C 	C 	0.76752 0.54229 0.36753 0.07900
H 	H 	0.77750 0.51030 0.36540 -0.06000
C 	C 	0.78057 0.56989 0.33744 -0.14700
H 	H 	0.79940 0.55680 0.31570 0.05300
Cd	Cd	0.46136 0.49187 0.19772 1.17500
O 	O 	0.36990 0.43442 0.22945 -0.36600
O 	O 	0.50877 0.43382 0.24005 -0.39700
C 	C 	0.43314 0.42037 0.24701 0.29400
C 	C 	0.41839 0.38676 0.27793 0.01200
C 	C 	0.48200 0.38330 0.30073 -0.23700
H 	H 	0.47710 0.36370 0.32080 0.10900
H 	H 	0.53260 0.40040 0.29700 0.11000
N 	N 	0.32496 0.51066 0.17226 -0.25000
C 	C 	0.32055 0.52436 0.13769 0.07600
H 	H 	0.37190 0.53250 0.12610 -0.04600
C 	C 	0.24499 0.52717 0.11828 -0.15100
H 	H 	0.24590 0.53640 0.09410 0.07700
C 	C 	0.16671 0.51606 0.13514 0.05900
C 	C 	0.17080 0.50342 0.17130 -0.14400
H 	H 	0.12030 0.49700 0.18410 0.08600
C 	C 	0.25049 0.50037 0.18823 0.08400
H 	H 	0.25190 0.49050 0.21230 -0.00100
N 	N 	0.45916 0.54121 0.24880 -0.25300
N 	N 	0.50844 0.69148 0.39946 -0.25500
C 	C 	0.53398 0.56498 0.30213 -0.14400
H 	H 	0.57990 0.56030 0.31810 0.07500
C 	C 	0.52353 0.53620 0.27276 0.06300
H 	H 	0.56310 0.51200 0.26930 -0.02600
C 	C 	0.40402 0.57643 0.25426 0.07300
H 	H 	0.35910 0.58050 0.23770 -0.01500
C 	C 	0.40978 0.60709 0.28301 -0.14700
H 	H 	0.37000 0.63130 0.28560 0.08600
C 	C 	0.47586 0.60121 0.30803 0.05500
C 	C 	0.48486 0.63233 0.34006 0.05600
C 	C 	0.50980 0.61515 0.37351 -0.13600
H 	H 	0.51900 0.58320 0.37660 0.08000
C 	C 	0.52107 0.64561 0.40232 0.07500
H 	H 	0.53820 0.63350 0.42460 -0.00200
C 	C 	0.48248 0.70771 0.36753 0.07900
H 	H 	0.47250 0.73970 0.36540 -0.06000
C 	C 	0.46943 0.68011 0.33744 -0.14700
H 	H 	0.45060 0.69320 0.31570 0.05300
Cd	Cd	0.46136 0.99187 0.69772 1.17500
O 	O 	0.36990 0.93442 0.72945 -0.36600
O 	O 	0.50877 0.93382 0.74005 -0.39600
C 	C 	0.43314 0.92037 0.74701 0.29400
C 	C 	0.41839 0.88676 0.77793 0.01200
C 	C 	0.48200 0.88330 0.80073 -0.23700
H 	H 	0.47710 0.86370 0.82080 0.10900
H 	H 	0.53260 0.90040 0.79700 0.11000
N 	N 	0.32496 0.01066 0.67226 -0.25000
C 	C 	0.32055 0.02436 0.63769 0.07500
H 	H 	0.37190 0.03250 0.62610 -0.04600
C 	C 	0.24499 0.02717 0.61828 -0.15000
H 	H 	0.24590 0.03640 0.59410 0.07700
C 	C 	0.16671 0.01606 0.63514 0.05800
C 	C 	0.17080 0.00342 0.67130 -0.14400
H 	H 	0.12030 0.99700 0.68410 0.08600
C 	C 	0.25049 0.00037 0.68823 0.08300
H 	H 	0.25190 0.99050 0.71230 -0.00100
N 	N 	0.45916 0.04121 0.74880 -0.25300
N 	N 	0.50844 0.19148 0.89946 -0.25500
C 	C 	0.53398 0.06498 0.80213 -0.14400
H 	H 	0.57990 0.06030 0.81810 0.07500
C 	C 	0.52353 0.03620 0.77276 0.06300
H 	H 	0.56310 0.01200 0.76930 -0.02500
C 	C 	0.40402 0.07643 0.75426 0.07300
H 	H 	0.35910 0.08050 0.73770 -0.01500
C 	C 	0.40978 0.10709 0.78301 -0.14700
H 	H 	0.37000 0.13130 0.78560 0.08600
C 	C 	0.47586 0.10121 0.80803 0.05500
C 	C 	0.48486 0.13233 0.84006 0.05600
C 	C 	0.50980 0.11515 0.87351 -0.13600
H 	H 	0.51900 0.08320 0.87660 0.08000
C 	C 	0.52107 0.14561 0.90232 0.07500
H 	H 	0.53820 0.13350 0.92460 -0.00200
C 	C 	0.48248 0.20771 0.86753 0.07900
H 	H 	0.47250 0.23970 0.86540 -0.06000
C 	C 	0.46943 0.18011 0.83744 -0.14700
H 	H 	0.45060 0.19320 0.81570 0.05300
Cd	Cd	0.96136 0.49187 0.69772 1.17500
O 	O 	0.86990 0.43442 0.72945 -0.36600
O 	O 	0.00877 0.43382 0.74005 -0.39700
C 	C 	0.93314 0.42037 0.74701 0.29400
C 	C 	0.91839 0.38676 0.77793 0.01200
C 	C 	0.98200 0.38330 0.80073 -0.23600
H 	H 	0.97710 0.36370 0.82080 0.10900
H 	H 	0.03260 0.40040 0.79700 0.11000
N 	N 	0.82496 0.51066 0.67226 -0.25000
C 	C 	0.82055 0.52436 0.63769 0.07600
H 	H 	0.87190 0.53250 0.62610 -0.04600
C 	C 	0.74499 0.52717 0.61828 -0.15100
H 	H 	0.74590 0.53640 0.59410 0.07700
C 	C 	0.66671 0.51606 0.63514 0.05900
C 	C 	0.67080 0.50342 0.67130 -0.14400
H 	H 	0.62030 0.49700 0.68410 0.08500
C 	C 	0.75049 0.50037 0.68823 0.08400
H 	H 	0.75190 0.49050 0.71230 -0.00100
N 	N 	0.95916 0.54121 0.74880 -0.25300
N 	N 	0.00844 0.69148 0.89946 -0.25500
C 	C 	0.03398 0.56498 0.80213 -0.14400
H 	H 	0.07990 0.56030 0.81810 0.07500
C 	C 	0.02353 0.53620 0.77276 0.06300
H 	H 	0.06310 0.51200 0.76930 -0.02600
C 	C 	0.90402 0.57643 0.75426 0.07300
H 	H 	0.85910 0.58050 0.73770 -0.01500
C 	C 	0.90978 0.60709 0.78301 -0.14700
H 	H 	0.87000 0.63130 0.78560 0.08600
C 	C 	0.97586 0.60121 0.80803 0.05500
C 	C 	0.98486 0.63233 0.84006 0.05600
C 	C 	0.00980 0.61515 0.87351 -0.13600
H 	H 	0.01900 0.58320 0.87660 0.08000
C 	C 	0.02107 0.64561 0.90232 0.07500
H 	H 	0.03820 0.63350 0.92460 -0.00200
C 	C 	0.98248 0.70771 0.86753 0.07800
H 	H 	0.97250 0.73970 0.86540 -0.06000
C 	C 	0.96943 0.68011 0.83744 -0.14700
H 	H 	0.95060 0.69320 0.81570 0.05300
Cd	Cd	0.96136 0.99187 0.19772 1.17500
O 	O 	0.86990 0.93442 0.22945 -0.36500
O 	O 	0.00877 0.93382 0.24005 -0.39500
C 	C 	0.93314 0.92037 0.24701 0.29200
C 	C 	0.91839 0.88676 0.27793 0.01400
C 	C 	0.98200 0.88330 0.30073 -0.24100
H 	H 	0.97710 0.86370 0.32080 0.11000
H 	H 	0.03260 0.90040 0.29700 0.11200
N 	N 	0.82496 0.01066 0.17226 -0.25000
C 	C 	0.82055 0.02436 0.13769 0.07600
H 	H 	0.87190 0.03250 0.12610 -0.04600
C 	C 	0.74499 0.02717 0.11828 -0.15100
H 	H 	0.74590 0.03640 0.09410 0.07700
C 	C 	0.66671 0.01606 0.13514 0.05900
C 	C 	0.67080 0.00342 0.17130 -0.14400
H 	H 	0.62030 0.99700 0.18410 0.08500
C 	C 	0.75049 0.00037 0.18823 0.08500
H 	H 	0.75190 0.99050 0.21230 -0.00200
N 	N 	0.95916 0.04121 0.24880 -0.25300
N 	N 	0.00844 0.19148 0.39946 -0.25500
C 	C 	0.03398 0.06498 0.30213 -0.14500
H 	H 	0.07990 0.06030 0.31810 0.07500
C 	C 	0.02353 0.03620 0.27276 0.06300
H 	H 	0.06310 0.01200 0.26930 -0.02500
C 	C 	0.90402 0.07643 0.25426 0.07300
H 	H 	0.85910 0.08050 0.23770 -0.01500
C 	C 	0.90978 0.10709 0.28301 -0.14700
H 	H 	0.87000 0.13130 0.28560 0.08600
C 	C 	0.97586 0.10121 0.30803 0.05500
C 	C 	0.98486 0.13233 0.34006 0.05700
C 	C 	0.00980 0.11515 0.37351 -0.13700
H 	H 	0.01900 0.08320 0.37660 0.08000
C 	C 	0.02107 0.14561 0.40232 0.07500
H 	H 	0.03820 0.13350 0.42460 -0.00200
C 	C 	0.98248 0.20771 0.36753 0.07900
H 	H 	0.97250 0.23970 0.36540 -0.06100
C 	C 	0.96943 0.18011 0.33744 -0.14700
H 	H 	0.95060 0.19320 0.31570 0.05400
Cd	Cd	0.53864 0.74187 0.44772 1.17500
O 	O 	0.63010 0.68442 0.47945 -0.36600
O 	O 	0.49123 0.68382 0.49005 -0.39700
C 	C 	0.56686 0.67037 0.49701 0.29400
C 	C 	0.58161 0.63676 0.52793 0.01200
C 	C 	0.51800 0.63330 0.55073 -0.23700
H 	H 	0.52290 0.61370 0.57080 0.10900
H 	H 	0.46740 0.65040 0.54700 0.11000
N 	N 	0.67504 0.76066 0.42226 -0.25000
C 	C 	0.67945 0.77436 0.38769 0.07600
H 	H 	0.62810 0.78250 0.37610 -0.04600
C 	C 	0.75501 0.77717 0.36828 -0.15100
H 	H 	0.75410 0.78640 0.34410 0.07700
C 	C 	0.83329 0.76606 0.38514 0.05800
C 	C 	0.82920 0.75342 0.42130 -0.14400
H 	H 	0.87970 0.74700 0.43410 0.08500
C 	C 	0.74951 0.75037 0.43823 0.08400
H 	H 	0.74810 0.74050 0.46230 -0.00100
N 	N 	0.54084 0.79121 0.49880 -0.25300
N 	N 	0.49156 0.94148 0.64946 -0.25500
C 	C 	0.46602 0.81498 0.55213 -0.14400
H 	H 	0.42010 0.81030 0.56810 0.07500
C 	C 	0.47647 0.78620 0.52276 0.06300
H 	H 	0.43690 0.76200 0.51930 -0.02600
C 	C 	0.59598 0.82643 0.50426 0.07300
H 	H 	0.64090 0.83050 0.48770 -0.01500
C 	C 	0.59022 0.85709 0.53301 -0.14700
H 	H 	0.63000 0.88130 0.53560 0.08600
C 	C 	0.52414 0.85121 0.55803 0.05500
C 	C 	0.51514 0.88233 0.59006 0.05600
C 	C 	0.49020 0.86515 0.62351 -0.13600
H 	H 	0.48100 0.83320 0.62660 0.08000
C 	C 	0.47893 0.89561 0.65232 0.07500
H 	H 	0.46180 0.88350 0.67460 -0.00200
C 	C 	0.51752 0.95771 0.61753 0.07900
H 	H 	0.52750 0.98970 0.61540 -0.06000
C 	C 	0.53057 0.93011 0.58744 -0.14700
H 	H 	0.54940 0.94320 0.56570 0.05300
Cd	Cd	0.53864 0.24187 0.94772 1.17500
O 	O 	0.63010 0.18442 0.97945 -0.36600
O 	O 	0.49123 0.18382 0.99005 -0.39700
C 	C 	0.56686 0.17037 0.99701 0.29300
C 	C 	0.58161 0.13676 0.02793 0.01200
C 	C 	0.51800 0.13330 0.05073 -0.23700
H 	H 	0.52290 0.11370 0.07080 0.10900
H 	H 	0.46740 0.15040 0.04700 0.11000
N 	N 	0.67504 0.26066 0.92226 -0.25000
C 	C 	0.67945 0.27436 0.88769 0.07600
H 	H 	0.62810 0.28250 0.87610 -0.04600
C 	C 	0.75501 0.27717 0.86828 -0.15100
H 	H 	0.75410 0.28640 0.84410 0.07700
C 	C 	0.83329 0.26606 0.88514 0.05900
C 	C 	0.82920 0.25342 0.92130 -0.14400
H 	H 	0.87970 0.24700 0.93410 0.08600
C 	C 	0.74951 0.25037 0.93823 0.08400
H 	H 	0.74810 0.24050 0.96230 -0.00100
N 	N 	0.54084 0.29121 0.99880 -0.25400
N 	N 	0.49156 0.44148 0.14946 -0.25500
C 	C 	0.46602 0.31498 0.05213 -0.14400
H 	H 	0.42010 0.31030 0.06810 0.07500
C 	C 	0.47647 0.28620 0.02276 0.06300
H 	H 	0.43690 0.26200 0.01930 -0.02600
C 	C 	0.59598 0.32643 0.00426 0.07300
H 	H 	0.64090 0.33050 0.98770 -0.01500
C 	C 	0.59022 0.35709 0.03301 -0.14700
H 	H 	0.63000 0.38130 0.03560 0.08600
C 	C 	0.52414 0.35121 0.05803 0.05500
C 	C 	0.51514 0.38233 0.09006 0.05600
C 	C 	0.49020 0.36515 0.12351 -0.13600
H 	H 	0.48100 0.33320 0.12660 0.08000
C 	C 	0.47893 0.39561 0.15232 0.07500
H 	H 	0.46180 0.38350 0.17460 -0.00200
C 	C 	0.51752 0.45771 0.11753 0.07900
H 	H 	0.52750 0.48970 0.11540 -0.06000
C 	C 	0.53057 0.43011 0.08744 -0.14700
H 	H 	0.54940 0.44320 0.06570 0.05300
Cd	Cd	0.03864 0.74187 0.94772 1.17500
O 	O 	0.13010 0.68442 0.97945 -0.36600
O 	O 	0.99123 0.68382 0.99005 -0.39700
C 	C 	0.06686 0.67037 0.99701 0.29400
C 	C 	0.08161 0.63676 0.02793 0.01100
C 	C 	0.01800 0.63330 0.05073 -0.23500
H 	H 	0.02290 0.61370 0.07080 0.10800
H 	H 	0.96740 0.65040 0.04700 0.10900
N 	N 	0.17504 0.76066 0.92226 -0.25000
C 	C 	0.17945 0.77436 0.88769 0.07600
H 	H 	0.12810 0.78250 0.87610 -0.04600
C 	C 	0.25501 0.77717 0.86828 -0.15100
H 	H 	0.25410 0.78640 0.84410 0.07700
C 	C 	0.33329 0.76606 0.88514 0.05900
C 	C 	0.32920 0.75342 0.92130 -0.14400
H 	H 	0.37970 0.74700 0.93410 0.08500
C 	C 	0.24951 0.75037 0.93823 0.08400
H 	H 	0.24810 0.74050 0.96230 -0.00100
N 	N 	0.04084 0.79121 0.99880 -0.25300
N 	N 	0.99156 0.94148 0.14946 -0.25600
C 	C 	0.96602 0.81498 0.05213 -0.14500
H 	H 	0.92010 0.81030 0.06810 0.07500
C 	C 	0.97647 0.78620 0.02276 0.06300
H 	H 	0.93690 0.76200 0.01930 -0.02600
C 	C 	0.09598 0.82643 0.00426 0.07300
H 	H 	0.14090 0.83050 0.98770 -0.01500
C 	C 	0.09022 0.85709 0.03301 -0.14700
H 	H 	0.13000 0.88130 0.03560 0.08600
C 	C 	0.02414 0.85121 0.05803 0.05600
C 	C 	0.01514 0.88233 0.09006 0.05700
C 	C 	0.99020 0.86515 0.12351 -0.13700
H 	H 	0.98100 0.83320 0.12660 0.08000
C 	C 	0.97893 0.89561 0.15232 0.07500
H 	H 	0.96180 0.88350 0.17460 -0.00200
C 	C 	0.01752 0.95771 0.11753 0.08000
H 	H 	0.02750 0.98970 0.11540 -0.06000
C 	C 	0.03057 0.93011 0.08744 -0.14800
H 	H 	0.04940 0.94320 0.06570 0.05400
Cd	Cd	0.03864 0.24187 0.44772 1.17500
O 	O 	0.13010 0.18442 0.47945 -0.36600
O 	O 	0.99123 0.18382 0.49005 -0.39600
C 	C 	0.06686 0.17037 0.49701 0.29300
C 	C 	0.08161 0.13676 0.52793 0.01400
C 	C 	0.01800 0.13330 0.55073 -0.24000
H 	H 	0.02290 0.11370 0.57080 0.11000
H 	H 	0.96740 0.15040 0.54700 0.11100
N 	N 	0.17504 0.26066 0.42226 -0.25000
C 	C 	0.17945 0.27436 0.38769 0.07600
H 	H 	0.12810 0.28250 0.37610 -0.04600
C 	C 	0.25501 0.27717 0.36828 -0.15100
H 	H 	0.25410 0.28640 0.34410 0.07700
C 	C 	0.33329 0.26606 0.38514 0.05900
C 	C 	0.32920 0.25342 0.42130 -0.14400
H 	H 	0.37970 0.24700 0.43410 0.08500
C 	C 	0.24951 0.25037 0.43823 0.08400
H 	H 	0.24810 0.24050 0.46230 -0.00100
N 	N 	0.04084 0.29121 0.49880 -0.25400
N 	N 	0.99156 0.44148 0.64946 -0.25500
C 	C 	0.96602 0.31498 0.55213 -0.14400
H 	H 	0.92010 0.31030 0.56810 0.07500
C 	C 	0.97647 0.28620 0.52276 0.06300
H 	H 	0.93690 0.26200 0.51930 -0.02600
C 	C 	0.09598 0.32643 0.50426 0.07300
H 	H 	0.14090 0.33050 0.48770 -0.01500
C 	C 	0.09022 0.35709 0.53301 -0.14700
H 	H 	0.13000 0.38130 0.53560 0.08600
C 	C 	0.02414 0.35121 0.55803 0.05500
C 	C 	0.01514 0.38233 0.59006 0.05600
C 	C 	0.99020 0.36515 0.62351 -0.13500
H 	H 	0.98100 0.33320 0.62660 0.08000
C 	C 	0.97893 0.39561 0.65232 0.07500
H 	H 	0.96180 0.38350 0.67460 -0.00200
C 	C 	0.01752 0.45771 0.61753 0.07800
H 	H 	0.02750 0.48970 0.61540 -0.06000
C 	C 	0.03057 0.43011 0.58744 -0.14700
H 	H 	0.04940 0.44320 0.56570 0.05300
Cd	Cd	0.71136 0.50813 0.44772 1.17500
O 	O 	0.61990 0.56558 0.47945 -0.36600
O 	O 	0.75877 0.56618 0.49005 -0.39700
C 	C 	0.68314 0.57963 0.49701 0.29400
C 	C 	0.66839 0.61324 0.52793 0.01200
C 	C 	0.73200 0.61670 0.55073 -0.23700
H 	H 	0.72710 0.63630 0.57080 0.10900
H 	H 	0.78260 0.59960 0.54700 0.11000
N 	N 	0.57496 0.48934 0.42226 -0.25000
C 	C 	0.57055 0.47564 0.38769 0.07600
H 	H 	0.62190 0.46750 0.37610 -0.04600
C 	C 	0.49499 0.47283 0.36828 -0.15100
H 	H 	0.49590 0.46360 0.34410 0.07700
C 	C 	0.41671 0.48394 0.38514 0.05900
C 	C 	0.42080 0.49658 0.42130 -0.14400
H 	H 	0.37030 0.50300 0.43410 0.08500
C 	C 	0.50049 0.49963 0.43823 0.08400
H 	H 	0.50190 0.50950 0.46230 -0.00100
N 	N 	0.70916 0.45879 0.49880 -0.25300
N 	N 	0.75844 0.30852 0.64946 -0.25500
C 	C 	0.78398 0.43502 0.55213 -0.14400
H 	H 	0.82990 0.43970 0.56810 0.07500
C 	C 	0.77353 0.46380 0.52276 0.06300
H 	H 	0.81310 0.48800 0.51930 -0.02600
C 	C 	0.65402 0.42357 0.50426 0.07300
H 	H 	0.60910 0.41950 0.48770 -0.01500
C 	C 	0.65978 0.39291 0.53301 -0.14700
H 	H 	0.62000 0.36870 0.53560 0.08600
C 	C 	0.72586 0.39879 0.55803 0.05500
C 	C 	0.73486 0.36767 0.59006 0.05600
C 	C 	0.75980 0.38485 0.62351 -0.13600
H 	H 	0.76900 0.41680 0.62660 0.08000
C 	C 	0.77107 0.35439 0.65232 0.07500
H 	H 	0.78820 0.36650 0.67460 -0.00200
C 	C 	0.73248 0.29229 0.61753 0.07900
H 	H 	0.72250 0.26030 0.61540 -0.06000
C 	C 	0.71943 0.31989 0.58744 -0.14700
H 	H 	0.70060 0.30680 0.56570 0.05300
Cd	Cd	0.71136 0.00813 0.94772 1.17500
O 	O 	0.61990 0.06558 0.97945 -0.36600
O 	O 	0.75877 0.06618 0.99005 -0.39600
C 	C 	0.68314 0.07963 0.99701 0.29300
C 	C 	0.66839 0.11324 0.02793 0.01200
C 	C 	0.73200 0.11670 0.05073 -0.23700
H 	H 	0.72710 0.13630 0.07080 0.10900
H 	H 	0.78260 0.09960 0.04700 0.11000
N 	N 	0.57496 0.98934 0.92226 -0.25000
C 	C 	0.57055 0.97564 0.88769 0.07600
H 	H 	0.62190 0.96750 0.87610 -0.04600
C 	C 	0.49499 0.97283 0.86828 -0.15100
H 	H 	0.49590 0.96360 0.84410 0.07700
C 	C 	0.41671 0.98394 0.88514 0.05900
C 	C 	0.42080 0.99658 0.92130 -0.14300
H 	H 	0.37030 0.00300 0.93410 0.08500
C 	C 	0.50049 0.99963 0.93823 0.08400
H 	H 	0.50190 0.00950 0.96230 -0.00100
N 	N 	0.70916 0.95879 0.99880 -0.25300
N 	N 	0.75844 0.80852 0.14946 -0.25500
C 	C 	0.78398 0.93502 0.05213 -0.14400
H 	H 	0.82990 0.93970 0.06810 0.07500
C 	C 	0.77353 0.96380 0.02276 0.06200
H 	H 	0.81310 0.98800 0.01930 -0.02500
C 	C 	0.65402 0.92357 0.00426 0.07200
H 	H 	0.60910 0.91950 0.98770 -0.01500
C 	C 	0.65978 0.89291 0.03301 -0.14600
H 	H 	0.62000 0.86870 0.03560 0.08600
C 	C 	0.72586 0.89879 0.05803 0.05500
C 	C 	0.73486 0.86767 0.09006 0.05600
C 	C 	0.75980 0.88485 0.12351 -0.13600
H 	H 	0.76900 0.91680 0.12660 0.08000
C 	C 	0.77107 0.85439 0.15232 0.07500
H 	H 	0.78820 0.86650 0.17460 -0.00200
C 	C 	0.73248 0.79229 0.11753 0.07900
H 	H 	0.72250 0.76030 0.11540 -0.06000
C 	C 	0.71943 0.81989 0.08744 -0.14700
H 	H 	0.70060 0.80680 0.06570 0.05300
Cd	Cd	0.21136 0.50813 0.94772 1.17500
O 	O 	0.11990 0.56558 0.97945 -0.36600
O 	O 	0.25877 0.56618 0.99005 -0.39700
C 	C 	0.18314 0.57963 0.99701 0.29300
C 	C 	0.16839 0.61324 0.02793 0.01300
C 	C 	0.23200 0.61670 0.05073 -0.23800
H 	H 	0.22710 0.63630 0.07080 0.10900
H 	H 	0.28260 0.59960 0.04700 0.11000
N 	N 	0.07496 0.48934 0.92226 -0.25000
C 	C 	0.07055 0.47564 0.88769 0.07500
H 	H 	0.12190 0.46750 0.87610 -0.04600
C 	C 	0.99499 0.47283 0.86828 -0.15000
H 	H 	0.99590 0.46360 0.84410 0.07700
C 	C 	0.91671 0.48394 0.88514 0.05800
C 	C 	0.92080 0.49658 0.92130 -0.14300
H 	H 	0.87030 0.50300 0.93410 0.08500
C 	C 	0.00049 0.49963 0.93823 0.08300
H 	H 	0.00190 0.50950 0.96230 -0.00100
N 	N 	0.20916 0.45879 0.99880 -0.25400
N 	N 	0.25844 0.30852 0.14946 -0.25500
C 	C 	0.28398 0.43502 0.05213 -0.14500
H 	H 	0.32990 0.43970 0.06810 0.07500
C 	C 	0.27353 0.46380 0.02276 0.06300
H 	H 	0.31310 0.48800 0.01930 -0.02600
C 	C 	0.15402 0.42357 0.00426 0.07400
H 	H 	0.10910 0.41950 0.98770 -0.01600
C 	C 	0.15978 0.39291 0.03301 -0.14700
H 	H 	0.12000 0.36870 0.03560 0.08600
C 	C 	0.22586 0.39879 0.05803 0.05500
C 	C 	0.23486 0.36767 0.09006 0.05600
C 	C 	0.25980 0.38485 0.12351 -0.13600
H 	H 	0.26900 0.41680 0.12660 0.08000
C 	C 	0.27107 0.35439 0.15232 0.07500
H 	H 	0.28820 0.36650 0.17460 -0.00200
C 	C 	0.23248 0.29229 0.11753 0.07900
H 	H 	0.22250 0.26030 0.11540 -0.06000
C 	C 	0.21943 0.31989 0.08744 -0.14700
H 	H 	0.20060 0.30680 0.06570 0.05300
Cd	Cd	0.21136 0.00813 0.44772 1.17500
O 	O 	0.11990 0.06558 0.47945 -0.36600
O 	O 	0.25877 0.06618 0.49005 -0.39700
C 	C 	0.18314 0.07963 0.49701 0.29400
C 	C 	0.16839 0.11324 0.52793 0.01100
C 	C 	0.23200 0.11670 0.55073 -0.23600
H 	H 	0.22710 0.13630 0.57080 0.10900
H 	H 	0.28260 0.09960 0.54700 0.11000
N 	N 	0.07496 0.98934 0.42226 -0.25100
C 	C 	0.07055 0.97564 0.38769 0.07800
H 	H 	0.12190 0.96750 0.37610 -0.04600
C 	C 	0.99499 0.97283 0.36828 -0.15400
H 	H 	0.99590 0.96360 0.34410 0.07800
C 	C 	0.91671 0.98394 0.38514 0.06100
C 	C 	0.92080 0.99658 0.42130 -0.14900
H 	H 	0.87030 0.00300 0.43410 0.08800
C 	C 	0.00049 0.99963 0.43823 0.08900
H 	H 	0.00190 0.00950 0.46230 -0.00300
N 	N 	0.20916 0.95879 0.49880 -0.25300
N 	N 	0.25844 0.80852 0.64946 -0.25500
C 	C 	0.28398 0.93502 0.55213 -0.14400
H 	H 	0.32990 0.93970 0.56810 0.07500
C 	C 	0.27353 0.96380 0.52276 0.06300
H 	H 	0.31310 0.98800 0.51930 -0.02500
C 	C 	0.15402 0.92357 0.50426 0.07300
H 	H 	0.10910 0.91950 0.48770 -0.01500
C 	C 	0.15978 0.89291 0.53301 -0.14600
H 	H 	0.12000 0.86870 0.53560 0.08600
C 	C 	0.22586 0.89879 0.55803 0.05500
C 	C 	0.23486 0.86767 0.59006 0.05600
C 	C 	0.25980 0.88485 0.62351 -0.13600
H 	H 	0.26900 0.91680 0.62660 0.08000
C 	C 	0.27107 0.85439 0.65232 0.07500
H 	H 	0.28820 0.86650 0.67460 -0.00200
C 	C 	0.23248 0.79229 0.61753 0.07900
H 	H 	0.22250 0.76030 0.61540 -0.06000
C 	C 	0.21943 0.81989 0.58744 -0.14700
H 	H 	0.20060 0.80680 0.56570 0.05300
Cd	Cd	0.71136 0.74187 0.80228 1.17500
O 	O 	0.61990 0.68442 0.77055 -0.36600
O 	O 	0.75877 0.68382 0.75995 -0.39700
C 	C 	0.68314 0.67037 0.75299 0.29400
C 	C 	0.66839 0.63676 0.72207 0.01200
C 	C 	0.73200 0.63330 0.69927 -0.23700
H 	H 	0.72710 0.61370 0.67920 0.10900
H 	H 	0.78260 0.65040 0.70300 0.11000
N 	N 	0.57496 0.76066 0.82774 -0.25000
C 	C 	0.57055 0.77436 0.86231 0.07600
H 	H 	0.62190 0.78250 0.87390 -0.04600
C 	C 	0.49499 0.77717 0.88172 -0.15100
H 	H 	0.49590 0.78640 0.90590 0.07700
C 	C 	0.41671 0.76606 0.86486 0.05900
C 	C 	0.42080 0.75342 0.82870 -0.14400
H 	H 	0.37030 0.74700 0.81590 0.08500
C 	C 	0.50049 0.75037 0.81177 0.08400
H 	H 	0.50190 0.74050 0.78770 -0.00100
N 	N 	0.70916 0.79121 0.75120 -0.25300
N 	N 	0.75844 0.94148 0.60054 -0.25500
C 	C 	0.78398 0.81498 0.69787 -0.14400
H 	H 	0.82990 0.81030 0.68190 0.07500
C 	C 	0.77353 0.78620 0.72724 0.06300
H 	H 	0.81310 0.76200 0.73070 -0.02600
C 	C 	0.65402 0.82643 0.74574 0.07300
H 	H 	0.60910 0.83050 0.76230 -0.01500
C 	C 	0.65978 0.85709 0.71699 -0.14700
H 	H 	0.62000 0.88130 0.71440 0.08600
C 	C 	0.72586 0.85121 0.69197 0.05500
C 	C 	0.73486 0.88233 0.65994 0.05600
C 	C 	0.75980 0.86515 0.62649 -0.13600
H 	H 	0.76900 0.83320 0.62340 0.08000
C 	C 	0.77107 0.89561 0.59768 0.07500
H 	H 	0.78820 0.88350 0.57540 -0.00200
C 	C 	0.73248 0.95771 0.63247 0.07900
H 	H 	0.72250 0.98970 0.63460 -0.06000
C 	C 	0.71943 0.93011 0.66256 -0.14700
H 	H 	0.70060 0.94320 0.68430 0.05300
Cd	Cd	0.71136 0.24187 0.30228 1.17500
O 	O 	0.61990 0.18442 0.27055 -0.36600
O 	O 	0.75877 0.18382 0.25995 -0.39700
C 	C 	0.68314 0.17037 0.25299 0.29400
C 	C 	0.66839 0.13676 0.22207 0.01200
C 	C 	0.73200 0.13330 0.19927 -0.23700
H 	H 	0.72710 0.11370 0.17920 0.10900
H 	H 	0.78260 0.15040 0.20300 0.11000
N 	N 	0.57496 0.26066 0.32774 -0.25000
C 	C 	0.57055 0.27436 0.36231 0.07600
H 	H 	0.62190 0.28250 0.37390 -0.04600
C 	C 	0.49499 0.27717 0.38172 -0.15100
H 	H 	0.49590 0.28640 0.40590 0.07700
C 	C 	0.41671 0.26606 0.36486 0.05900
C 	C 	0.42080 0.25342 0.32870 -0.14400
H 	H 	0.37030 0.24700 0.31590 0.08500
C 	C 	0.50049 0.25037 0.31177 0.08400
H 	H 	0.50190 0.24050 0.28770 -0.00100
N 	N 	0.70916 0.29121 0.25120 -0.25300
N 	N 	0.75844 0.44148 0.10054 -0.25500
C 	C 	0.78398 0.31498 0.19787 -0.14400
H 	H 	0.82990 0.31030 0.18190 0.07500
C 	C 	0.77353 0.28620 0.22724 0.06300
H 	H 	0.81310 0.26200 0.23070 -0.02600
C 	C 	0.65402 0.32643 0.24574 0.07300
H 	H 	0.60910 0.33050 0.26230 -0.01500
C 	C 	0.65978 0.35709 0.21699 -0.14700
H 	H 	0.62000 0.38130 0.21440 0.08600
C 	C 	0.72586 0.35121 0.19197 0.05500
C 	C 	0.73486 0.38233 0.15994 0.05600
C 	C 	0.75980 0.36515 0.12649 -0.13600
H 	H 	0.76900 0.33320 0.12340 0.08000
C 	C 	0.77107 0.39561 0.09768 0.07500
H 	H 	0.78820 0.38350 0.07540 -0.00200
C 	C 	0.73248 0.45771 0.13247 0.07900
H 	H 	0.72250 0.48970 0.13460 -0.06000
C 	C 	0.71943 0.43011 0.16256 -0.14700
H 	H 	0.70060 0.44320 0.18430 0.05300
Cd	Cd	0.21136 0.74187 0.30228 1.17500
O 	O 	0.11990 0.68442 0.27055 -0.36600
O 	O 	0.25877 0.68382 0.25995 -0.39700
C 	C 	0.18314 0.67037 0.25299 0.29300
C 	C 	0.16839 0.63676 0.22207 0.01200
C 	C 	0.23200 0.63330 0.19927 -0.23700
H 	H 	0.22710 0.61370 0.17920 0.10900
H 	H 	0.28260 0.65040 0.20300 0.11000
N 	N 	0.07496 0.76066 0.32774 -0.25100
C 	C 	0.07055 0.77436 0.36231 0.07700
H 	H 	0.12190 0.78250 0.37390 -0.04600
C 	C 	0.99499 0.77717 0.38172 -0.15200
H 	H 	0.99590 0.78640 0.40590 0.07700
C 	C 	0.91671 0.76606 0.36486 0.06000
C 	C 	0.92080 0.75342 0.32870 -0.14500
H 	H 	0.87030 0.74700 0.31590 0.08600
C 	C 	0.00049 0.75037 0.31177 0.08500
H 	H 	0.00190 0.74050 0.28770 -0.00100
N 	N 	0.20916 0.79121 0.25120 -0.25300
N 	N 	0.25844 0.94148 0.10054 -0.25500
C 	C 	0.28398 0.81498 0.19787 -0.14400
H 	H 	0.32990 0.81030 0.18190 0.07500
C 	C 	0.27353 0.78620 0.22724 0.06300
H 	H 	0.31310 0.76200 0.23070 -0.02600
C 	C 	0.15402 0.82643 0.24574 0.07300
H 	H 	0.10910 0.83050 0.26230 -0.01500
C 	C 	0.15978 0.85709 0.21699 -0.14700
H 	H 	0.12000 0.88130 0.21440 0.08600
C 	C 	0.22586 0.85121 0.19197 0.05500
C 	C 	0.23486 0.88233 0.15994 0.05600
C 	C 	0.25980 0.86515 0.12649 -0.13600
H 	H 	0.26900 0.83320 0.12340 0.08000
C 	C 	0.27107 0.89561 0.09768 0.07500
H 	H 	0.28820 0.88350 0.07540 -0.00200
C 	C 	0.23248 0.95771 0.13247 0.07900
H 	H 	0.22250 0.98970 0.13460 -0.06000
C 	C 	0.21943 0.93011 0.16256 -0.14700
H 	H 	0.20060 0.94320 0.18430 0.05300
Cd	Cd	0.21136 0.24187 0.80228 1.17500
O 	O 	0.11990 0.18442 0.77055 -0.36600
O 	O 	0.25877 0.18382 0.75995 -0.39700
C 	C 	0.18314 0.17037 0.75299 0.29400
C 	C 	0.16839 0.13676 0.72207 0.01100
C 	C 	0.23200 0.13330 0.69927 -0.23600
H 	H 	0.22710 0.11370 0.67920 0.10900
H 	H 	0.28260 0.15040 0.70300 0.11000
N 	N 	0.07496 0.26066 0.82774 -0.25000
C 	C 	0.07055 0.27436 0.86231 0.07400
H 	H 	0.12190 0.28250 0.87390 -0.04500
C 	C 	0.99499 0.27717 0.88172 -0.14900
H 	H 	0.99590 0.28640 0.90590 0.07700
C 	C 	0.91671 0.26606 0.86486 0.05800
C 	C 	0.92080 0.25342 0.82870 -0.14200
H 	H 	0.87030 0.24700 0.81590 0.08500
C 	C 	0.00049 0.25037 0.81177 0.08300
H 	H 	0.00190 0.24050 0.78770 -0.00100
N 	N 	0.20916 0.29121 0.75120 -0.25300
N 	N 	0.25844 0.44148 0.60054 -0.25500
C 	C 	0.28398 0.31498 0.69787 -0.14400
H 	H 	0.32990 0.31030 0.68190 0.07500
C 	C 	0.27353 0.28620 0.72724 0.06300
H 	H 	0.31310 0.26200 0.73070 -0.02600
C 	C 	0.15402 0.32643 0.74574 0.07300
H 	H 	0.10910 0.33050 0.76230 -0.01500
C 	C 	0.15978 0.35709 0.71699 -0.14700
H 	H 	0.12000 0.38130 0.71440 0.08600
C 	C 	0.22586 0.35121 0.69197 0.05500
C 	C 	0.23486 0.38233 0.65994 0.05600
C 	C 	0.25980 0.36515 0.62649 -0.13600
H 	H 	0.26900 0.33320 0.62340 0.08000
C 	C 	0.27107 0.39561 0.59768 0.07500
H 	H 	0.28820 0.38350 0.57540 -0.00200
C 	C 	0.23248 0.45771 0.63247 0.07900
H 	H 	0.22250 0.48970 0.63460 -0.06000
C 	C 	0.21943 0.43011 0.66256 -0.14700
H 	H 	0.20060 0.44320 0.68430 0.05300
Cd	Cd	0.53864 0.50813 0.80228 1.17500
O 	O 	0.63010 0.56558 0.77055 -0.36600
O 	O 	0.49123 0.56618 0.75995 -0.39700
C 	C 	0.56686 0.57963 0.75299 0.29400
C 	C 	0.58161 0.61324 0.72207 0.01200
C 	C 	0.51800 0.61670 0.69927 -0.23700
H 	H 	0.52290 0.63630 0.67920 0.10900
H 	H 	0.46740 0.59960 0.70300 0.11000
N 	N 	0.67504 0.48934 0.82774 -0.25000
C 	C 	0.67945 0.47564 0.86231 0.07600
H 	H 	0.62810 0.46750 0.87390 -0.04600
C 	C 	0.75501 0.47283 0.88172 -0.15100
H 	H 	0.75410 0.46360 0.90590 0.07700
C 	C 	0.83329 0.48394 0.86486 0.05900
C 	C 	0.82920 0.49658 0.82870 -0.14400
H 	H 	0.87970 0.50300 0.81590 0.08600
C 	C 	0.74951 0.49963 0.81177 0.08400
H 	H 	0.74810 0.50950 0.78770 -0.00100
N 	N 	0.54084 0.45879 0.75120 -0.25300
N 	N 	0.49156 0.30852 0.60054 -0.25500
C 	C 	0.46602 0.43502 0.69787 -0.14400
H 	H 	0.42010 0.43970 0.68190 0.07500
C 	C 	0.47647 0.46380 0.72724 0.06300
H 	H 	0.43690 0.48800 0.73070 -0.02600
C 	C 	0.59598 0.42357 0.74574 0.07300
H 	H 	0.64090 0.41950 0.76230 -0.01500
C 	C 	0.59022 0.39291 0.71699 -0.14700
H 	H 	0.63000 0.36870 0.71440 0.08600
C 	C 	0.52414 0.39879 0.69197 0.05500
C 	C 	0.51514 0.36767 0.65994 0.05600
C 	C 	0.49020 0.38485 0.62649 -0.13600
H 	H 	0.48100 0.41680 0.62340 0.08000
C 	C 	0.47893 0.35439 0.59768 0.07500
H 	H 	0.46180 0.36650 0.57540 -0.00200
C 	C 	0.51752 0.29229 0.63247 0.07900
H 	H 	0.52750 0.26030 0.63460 -0.06000
C 	C 	0.53057 0.31989 0.66256 -0.14700
H 	H 	0.54940 0.30680 0.68430 0.05300
Cd	Cd	0.53864 0.00813 0.30228 1.17500
O 	O 	0.63010 0.06558 0.27055 -0.36600
O 	O 	0.49123 0.06618 0.25995 -0.39600
C 	C 	0.56686 0.07963 0.25299 0.29400
C 	C 	0.58161 0.11324 0.22207 0.01200
C 	C 	0.51800 0.11670 0.19927 -0.23700
H 	H 	0.52290 0.13630 0.17920 0.10900
H 	H 	0.46740 0.09960 0.20300 0.11000
N 	N 	0.67504 0.98934 0.32774 -0.25000
C 	C 	0.67945 0.97564 0.36231 0.07500
H 	H 	0.62810 0.96750 0.37390 -0.04600
C 	C 	0.75501 0.97283 0.38172 -0.15000
H 	H 	0.75410 0.96360 0.40590 0.07700
C 	C 	0.83329 0.98394 0.36486 0.05800
C 	C 	0.82920 0.99658 0.32870 -0.14400
H 	H 	0.87970 0.00300 0.31590 0.08600
C 	C 	0.74951 0.99963 0.31177 0.08300
H 	H 	0.74810 0.00950 0.28770 -0.00100
N 	N 	0.54084 0.95879 0.25120 -0.25300
N 	N 	0.49156 0.80852 0.10054 -0.25500
C 	C 	0.46602 0.93502 0.19787 -0.14400
H 	H 	0.42010 0.93970 0.18190 0.07500
C 	C 	0.47647 0.96380 0.22724 0.06300
H 	H 	0.43690 0.98800 0.23070 -0.02500
C 	C 	0.59598 0.92357 0.24574 0.07300
H 	H 	0.64090 0.91950 0.26230 -0.01500
C 	C 	0.59022 0.89291 0.21699 -0.14700
H 	H 	0.63000 0.86870 0.21440 0.08600
C 	C 	0.52414 0.89879 0.19197 0.05500
C 	C 	0.51514 0.86767 0.15994 0.05600
C 	C 	0.49020 0.88485 0.12649 -0.13600
H 	H 	0.48100 0.91680 0.12340 0.08000
C 	C 	0.47893 0.85439 0.09768 0.07500
H 	H 	0.46180 0.86650 0.07540 -0.00200
C 	C 	0.51752 0.79229 0.13247 0.07900
H 	H 	0.52750 0.76030 0.13460 -0.06000
C 	C 	0.53057 0.81989 0.16256 -0.14700
H 	H 	0.54940 0.80680 0.18430 0.05300
Cd	Cd	0.03864 0.50813 0.30228 1.17500
O 	O 	0.13010 0.56558 0.27055 -0.36600
O 	O 	0.99123 0.56618 0.25995 -0.39700
C 	C 	0.06686 0.57963 0.25299 0.29400
C 	C 	0.08161 0.61324 0.22207 0.01200
C 	C 	0.01800 0.61670 0.19927 -0.23600
H 	H 	0.02290 0.63630 0.17920 0.10900
H 	H 	0.96740 0.59960 0.20300 0.11000
N 	N 	0.17504 0.48934 0.32774 -0.25000
C 	C 	0.17945 0.47564 0.36231 0.07600
H 	H 	0.12810 0.46750 0.37390 -0.04600
C 	C 	0.25501 0.47283 0.38172 -0.15100
H 	H 	0.25410 0.46360 0.40590 0.07700
C 	C 	0.33329 0.48394 0.36486 0.05900
C 	C 	0.32920 0.49658 0.32870 -0.14400
H 	H 	0.37970 0.50300 0.31590 0.08500
C 	C 	0.24951 0.49963 0.31177 0.08400
H 	H 	0.24810 0.50950 0.28770 -0.00100
N 	N 	0.04084 0.45879 0.25120 -0.25300
N 	N 	0.99156 0.30852 0.10054 -0.25500
C 	C 	0.96602 0.43502 0.19787 -0.14400
H 	H 	0.92010 0.43970 0.18190 0.07500
C 	C 	0.97647 0.46380 0.22724 0.06300
H 	H 	0.93690 0.48800 0.23070 -0.02600
C 	C 	0.09598 0.42357 0.24574 0.07300
H 	H 	0.14090 0.41950 0.26230 -0.01500
C 	C 	0.09022 0.39291 0.21699 -0.14700
H 	H 	0.13000 0.36870 0.21440 0.08600
C 	C 	0.02414 0.39879 0.19197 0.05500
C 	C 	0.01514 0.36767 0.15994 0.05600
C 	C 	0.99020 0.38485 0.12649 -0.13600
H 	H 	0.98100 0.41680 0.12340 0.08000
C 	C 	0.97893 0.35439 0.09768 0.07500
H 	H 	0.96180 0.36650 0.07540 -0.00200
C 	C 	0.01752 0.29229 0.13247 0.07800
H 	H 	0.02750 0.26030 0.13460 -0.06000
C 	C 	0.03057 0.31989 0.16256 -0.14700
H 	H 	0.04940 0.30680 0.18430 0.05300
Cd	Cd	0.03864 0.00813 0.80228 1.17500
O 	O 	0.13010 0.06558 0.77055 -0.36500
O 	O 	0.99123 0.06618 0.75995 -0.39500
C 	C 	0.06686 0.07963 0.75299 0.29200
C 	C 	0.08161 0.11324 0.72207 0.01400
C 	C 	0.01800 0.11670 0.69927 -0.24100
H 	H 	0.02290 0.13630 0.67920 0.11000
H 	H 	0.96740 0.09960 0.70300 0.11200
N 	N 	0.17504 0.98934 0.82774 -0.25000
C 	C 	0.17945 0.97564 0.86231 0.07600
H 	H 	0.12810 0.96750 0.87390 -0.04600
C 	C 	0.25501 0.97283 0.88172 -0.15100
H 	H 	0.25410 0.96360 0.90590 0.07700
C 	C 	0.33329 0.98394 0.86486 0.05900
C 	C 	0.32920 0.99658 0.82870 -0.14400
H 	H 	0.37970 0.00300 0.81590 0.08500
C 	C 	0.24951 0.99963 0.81177 0.08500
H 	H 	0.24810 0.00950 0.78770 -0.00200
N 	N 	0.04084 0.95879 0.75120 -0.25300
N 	N 	0.99156 0.80852 0.60054 -0.25500
C 	C 	0.96602 0.93502 0.69787 -0.14500
H 	H 	0.92010 0.93970 0.68190 0.07500
C 	C 	0.97647 0.96380 0.72724 0.06300
H 	H 	0.93690 0.98800 0.73070 -0.02500
C 	C 	0.09598 0.92357 0.74574 0.07300
H 	H 	0.14090 0.91950 0.76230 -0.01500
C 	C 	0.09022 0.89291 0.71699 -0.14700
H 	H 	0.13000 0.86870 0.71440 0.08600
C 	C 	0.02414 0.89879 0.69197 0.05500
C 	C 	0.01514 0.86767 0.65994 0.05700
C 	C 	0.99020 0.88485 0.62649 -0.13700
H 	H 	0.98100 0.91680 0.62340 0.08000
C 	C 	0.97893 0.85439 0.59768 0.07500
H 	H 	0.96180 0.86650 0.57540 -0.00200
C 	C 	0.01752 0.79229 0.63247 0.07900
H 	H 	0.02750 0.76030 0.63460 -0.06100
C 	C 	0.03057 0.81989 0.66256 -0.14700
H 	H 	0.04940 0.80680 0.68430 0.05400
