data_crystal

_cell_length_a 9.30280
_cell_length_b 14.90430
_cell_length_c 15.20920
_cell_angle_alpha 70.59400
_cell_angle_beta  83.47200
_cell_angle_gamma 84.97800

_symmetry_space_group_name_	'P 1'
_symmetry_space_group_name_H-M	'P 1'

loop_
_symmetry_equiv_pos_as_xyz
  x,y,z

loop_
_atom_site_label
_atom_site_type_symbol
_atom_site_fract_x
_atom_site_fract_y
_atom_site_fract_z
_atom_site_charge
Cd	Cd	0.65692 0.72132 0.03472 1.19800
O 	O 	0.46920 0.81985 0.96240 -0.35200
O 	O 	0.67420 0.88614 0.95700 -0.33700
O 	O 	0.67420 0.61568 0.94734 -0.50200
O 	O 	0.86780 0.68860 0.94640 -0.36300
O 	O 	0.52350 0.49959 0.14368 -0.49200
O 	O 	0.50940 0.64498 0.15702 -0.47000
N 	N 	0.16250 0.27560 0.87040 -0.32300
H 	H 	0.19720 0.22050 0.90240 0.08600
H 	H 	0.10490 0.30850 0.89780 0.13300
C 	C 	0.35590 0.16430 0.78110 0.07900
C 	C 	0.47870 0.98770 0.88330 -0.08200
C 	C 	0.44510 0.51440 0.29110 -0.15200
C 	C 	0.80910 0.62780 0.92420 0.35400
C 	C 	0.54670 0.89320 0.93670 0.30100
C 	C 	0.05950 0.46440 0.77080 0.08600
C 	C 	0.19270 0.44200 0.62630 -0.03900
H 	H 	0.15590 0.50200 0.59220 0.04600
C 	C 	0.34260 0.53280 0.43740 -0.14100
H 	H 	0.30890 0.57240 0.47220 0.08100
C 	C 	0.28880 0.39150 0.58010 -0.01400
C 	C 	0.56120 0.06640 0.85190 0.03900
H 	H 	0.65770 0.06060 0.86470 0.04200
C 	C 	0.39380 0.57230 0.34440 0.06900
H 	H 	0.39400 0.63820 0.31730 0.01300
C 	C 	0.89480 0.57240 0.86960 -0.14200
C 	C 	0.29400 0.25930 0.72730 -0.05700
C 	C 	0.34100 0.43380 0.47970 0.07900
C 	C 	0.50040 0.15480 0.80110 -0.14300
H 	H 	0.55640 0.20780 0.78040 0.08800
C 	C 	0.49630 0.55610 0.18940 0.39100
C 	C 	0.33840 0.30020 0.63210 -0.03900
H 	H 	0.40290 0.26560 0.60270 0.04500
C 	C 	0.20070 0.31260 0.77160 0.07500
C 	C 	0.44700 0.41660 0.33270 0.07000
H 	H 	0.48280 0.37720 0.29800 0.01400
C 	C 	0.33360 0.99700 0.86440 0.05400
H 	H 	0.27710 0.94420 0.88580 0.04000
C 	C 	0.39570 0.37680 0.42570 -0.14200
H 	H 	0.39790 0.31090 0.45270 0.08000
C 	C 	0.15040 0.40560 0.72130 -0.05600
C 	C 	0.04230 0.55810 0.87600 0.06800
H 	H 	0.08750 0.58510 0.91190 0.01700
C 	C 	0.27420 0.08450 0.81410 -0.13500
H 	H 	0.17740 0.09010 0.80210 0.08700
C 	C 	0.82990 0.53840 0.81160 0.06000
H 	H 	0.73090 0.55010 0.80600 0.01000
C 	C 	0.91200 0.48610 0.76110 -0.13600
H 	H 	0.86760 0.46530 0.72010 0.08600
C 	C 	0.12270 0.50280 0.82810 -0.14800
H 	H 	0.22150 0.49130 0.83440 0.07000
Cd	Cd	0.34308 0.27868 0.96528 1.24300
O 	O 	0.53080 0.18015 0.03760 -0.40900
O 	O 	0.32580 0.11386 0.04300 -0.39900
O 	O 	0.32580 0.38432 0.05266 -0.55700
O 	O 	0.13220 0.31140 0.05360 -0.42000
O 	O 	0.47650 0.50041 0.85632 -0.46000
O 	O 	0.49060 0.35502 0.84298 -0.44100
N 	N 	0.83750 0.72440 0.12960 -0.30800
H 	H 	0.80280 0.77950 0.09760 0.05000
H 	H 	0.89510 0.69150 0.10220 0.09600
C 	C 	0.64410 0.83570 0.21890 0.08300
C 	C 	0.52130 0.01230 0.11670 -0.11900
C 	C 	0.55490 0.48560 0.70890 -0.14500
C 	C 	0.19090 0.37220 0.07580 0.36300
C 	C 	0.45330 0.10680 0.06330 0.30800
C 	C 	0.94050 0.53560 0.22920 0.09800
C 	C 	0.80730 0.55800 0.37370 -0.03800
H 	H 	0.84410 0.49800 0.40780 0.04600
C 	C 	0.65740 0.46720 0.56260 -0.13800
H 	H 	0.69110 0.42760 0.52780 0.08000
C 	C 	0.71120 0.60850 0.41990 -0.01400
C 	C 	0.43880 0.93360 0.14810 0.05000
H 	H 	0.34230 0.93940 0.13530 0.02000
C 	C 	0.60620 0.42770 0.65560 0.06500
H 	H 	0.60600 0.36180 0.68270 0.01700
C 	C 	0.10520 0.42760 0.13040 -0.18100
C 	C 	0.70600 0.74070 0.27270 -0.05800
C 	C 	0.65900 0.56620 0.52030 0.07700
C 	C 	0.49960 0.84520 0.19890 -0.16500
H 	H 	0.44360 0.79220 0.21960 0.08800
C 	C 	0.50370 0.44390 0.81060 0.38400
C 	C 	0.66160 0.69980 0.36790 -0.03900
H 	H 	0.59710 0.73440 0.39730 0.04500
C 	C 	0.79930 0.68740 0.22840 0.06600
C 	C 	0.55300 0.58340 0.66730 0.06400
H 	H 	0.51720 0.62280 0.70200 0.01800
C 	C 	0.66640 0.00300 0.13560 0.05500
H 	H 	0.72290 0.05580 0.11420 0.02000
C 	C 	0.60430 0.62320 0.57430 -0.13800
H 	H 	0.60210 0.68910 0.54730 0.07900
C 	C 	0.84960 0.59440 0.27870 -0.05900
C 	C 	0.95770 0.44190 0.12400 0.08400
H 	H 	0.91250 0.41490 0.08810 -0.01600
C 	C 	0.72580 0.91550 0.18590 -0.14900
H 	H 	0.82260 0.90990 0.19790 0.08300
C 	C 	0.17010 0.46160 0.18840 0.07600
H 	H 	0.26910 0.44990 0.19400 -0.00100
C 	C 	0.08800 0.51390 0.23890 -0.16200
H 	H 	0.13240 0.53470 0.27990 0.09100
C 	C 	0.87730 0.49720 0.17190 -0.17700
H 	H 	0.77850 0.50870 0.16560 0.06700
Cd	Cd	0.50000 0.50000 -0.00000 1.18100
