data_crystal

_cell_length_a 15.93250
_cell_length_b 15.93250
_cell_length_c 25.30470
_cell_angle_alpha 90.00000
_cell_angle_beta  90.00000
_cell_angle_gamma 90.00000

_symmetry_space_group_name_	'P 1'
_symmetry_space_group_name_H-M	'P 1'

loop_
_symmetry_equiv_pos_as_xyz
  x,y,z

loop_
_atom_site_label
_atom_site_type_symbol
_atom_site_fract_x
_atom_site_fract_y
_atom_site_fract_z
_atom_site_charge
H 	H 	0.75160 0.11040 0.02530 0.10900
N 	N 	0.01455 0.13960 0.05063 -0.19800
C 	C 	0.82689 0.02068 0.00055 -0.01700
H 	H 	0.82650 0.98450 0.96970 0.00900
H 	H 	0.82580 0.98510 0.03170 0.02100
C 	C 	0.94293 0.09527 0.04803 -0.00000
H 	H 	0.91670 0.07980 0.07940 -0.00000
C 	C 	0.90655 0.07163 0.00070 -0.00700
C 	C 	0.94628 0.09388 0.95438 -0.03500
H 	H 	0.92340 0.07870 0.92200 0.02600
C 	C 	0.02031 0.13889 0.95646 -0.10700
H 	H 	0.04820 0.15410 0.92560 0.05300
C 	C 	0.05179 0.16073 0.00513 0.05700
H 	H 	0.10130 0.19160 0.00650 -0.01700
H 	H 	0.25160 0.61040 0.52530 0.10600
N 	N 	0.51455 0.63960 0.55063 -0.19500
C 	C 	0.32689 0.52068 0.50055 -0.07400
H 	H 	0.32650 0.48450 0.46970 0.03700
H 	H 	0.32580 0.48510 0.53170 0.04200
C 	C 	0.44293 0.59527 0.54803 -0.01000
H 	H 	0.41670 0.57980 0.57940 0.00100
C 	C 	0.40655 0.57163 0.50070 0.00200
C 	C 	0.44628 0.59388 0.45438 -0.04200
H 	H 	0.42340 0.57870 0.42200 0.02700
C 	C 	0.52031 0.63889 0.45646 -0.08500
H 	H 	0.54820 0.65410 0.42560 0.04600
C 	C 	0.55179 0.66073 0.50513 0.03700
H 	H 	0.60130 0.69160 0.50650 -0.01200
H 	H 	0.74840 0.88960 0.52530 0.10300
N 	N 	0.48545 0.86040 0.55063 -0.19300
C 	C 	0.67311 0.97932 0.50055 -0.11900
H 	H 	0.67350 0.01550 0.46970 0.05600
H 	H 	0.67420 0.01490 0.53170 0.06100
C 	C 	0.55707 0.90473 0.54803 -0.02000
H 	H 	0.58330 0.92020 0.57940 0.00300
C 	C 	0.59345 0.92837 0.50070 0.01700
C 	C 	0.55372 0.90612 0.45438 -0.05500
H 	H 	0.57660 0.92130 0.42200 0.03000
C 	C 	0.47969 0.86111 0.45646 -0.07700
H 	H 	0.45180 0.84590 0.42560 0.04300
C 	C 	0.44821 0.83927 0.50513 0.03300
H 	H 	0.39870 0.80840 0.50650 -0.01100
H 	H 	0.24840 0.38960 0.02530 0.10600
N 	N 	0.98545 0.36040 0.05063 -0.19700
C 	C 	0.17311 0.47932 0.00055 -0.06000
H 	H 	0.17350 0.51550 0.96970 0.02700
H 	H 	0.17420 0.51490 0.03170 0.03900
C 	C 	0.05707 0.40473 0.04803 -0.01000
H 	H 	0.08330 0.42020 0.07940 0.00100
C 	C 	0.09345 0.42837 0.00070 0.00800
C 	C 	0.05372 0.40612 0.95438 -0.04800
H 	H 	0.07660 0.42130 0.92200 0.02800
C 	C 	0.97969 0.36111 0.95646 -0.10000
H 	H 	0.95180 0.34590 0.92560 0.05000
C 	C 	0.94821 0.33927 0.00513 0.05300
H 	H 	0.89870 0.30840 0.00650 -0.01500
H 	H 	0.13960 0.50160 0.27530 0.10600
N 	N 	0.11040 0.76455 0.30063 -0.19500
C 	C 	0.22932 0.57689 0.25055 -0.07400
H 	H 	0.26550 0.57650 0.21970 0.03700
H 	H 	0.26490 0.57580 0.28170 0.04200
C 	C 	0.15473 0.69293 0.29803 -0.01000
H 	H 	0.17020 0.66670 0.32940 0.00100
C 	C 	0.17837 0.65655 0.25070 0.00200
C 	C 	0.15612 0.69628 0.20438 -0.04200
H 	H 	0.17130 0.67340 0.17200 0.02800
C 	C 	0.11111 0.77031 0.20646 -0.08500
H 	H 	0.09590 0.79820 0.17560 0.04600
C 	C 	0.08927 0.80179 0.25513 0.03700
H 	H 	0.05840 0.85130 0.25650 -0.01400
H 	H 	0.63960 0.00160 0.77530 0.10700
N 	N 	0.61040 0.26455 0.80063 -0.19500
C 	C 	0.72932 0.07689 0.75055 -0.07700
H 	H 	0.76550 0.07650 0.71970 0.04000
H 	H 	0.76490 0.07580 0.78170 0.04400
C 	C 	0.65473 0.19293 0.79803 -0.01100
H 	H 	0.67020 0.16670 0.82940 0.00200
C 	C 	0.67837 0.15655 0.75070 0.00500
C 	C 	0.65612 0.19628 0.70438 -0.04300
H 	H 	0.67130 0.17340 0.67200 0.02800
C 	C 	0.61111 0.27031 0.70646 -0.08400
H 	H 	0.59590 0.29820 0.67560 0.04600
C 	C 	0.58927 0.30179 0.75513 0.03700
H 	H 	0.55840 0.35130 0.75650 -0.01200
H 	H 	0.36040 0.49840 0.77530 0.10600
N 	N 	0.38960 0.23545 0.80063 -0.19500
C 	C 	0.27068 0.42311 0.75055 -0.07400
H 	H 	0.23450 0.42350 0.71970 0.03700
H 	H 	0.23510 0.42420 0.78170 0.04200
C 	C 	0.34527 0.30707 0.79803 -0.01000
H 	H 	0.32980 0.33330 0.82940 0.00100
C 	C 	0.32163 0.34345 0.75070 0.00200
C 	C 	0.34388 0.30372 0.70438 -0.04200
H 	H 	0.32870 0.32660 0.67200 0.02700
C 	C 	0.38889 0.22969 0.70646 -0.08400
H 	H 	0.40410 0.20180 0.67560 0.04700
C 	C 	0.41073 0.19821 0.75513 0.03700
H 	H 	0.44160 0.14870 0.75650 -0.01100
H 	H 	0.86040 0.99840 0.27530 0.09600
N 	N 	0.88960 0.73545 0.30063 -0.19500
C 	C 	0.77068 0.92311 0.25055 -0.08400
H 	H 	0.73450 0.92350 0.21970 0.03800
H 	H 	0.73510 0.92420 0.28170 0.04300
C 	C 	0.84527 0.80707 0.29803 -0.01200
H 	H 	0.82980 0.83330 0.32940 0.00100
C 	C 	0.82163 0.84345 0.25070 0.00500
C 	C 	0.84388 0.80372 0.20438 -0.04500
H 	H 	0.82870 0.82660 0.17200 0.02800
C 	C 	0.88889 0.72969 0.20646 -0.08300
H 	H 	0.90410 0.70180 0.17560 0.04600
C 	C 	0.91073 0.69821 0.25513 0.03600
H 	H 	0.94160 0.64870 0.25650 -0.01200
H 	H 	0.74840 0.11040 0.97470 0.09900
N 	N 	0.48545 0.13960 0.94937 -0.19400
C 	C 	0.67311 0.02068 0.99945 -0.05900
H 	H 	0.67350 0.98450 0.03030 0.03200
H 	H 	0.67420 0.98510 0.96830 0.03000
C 	C 	0.55707 0.09527 0.95197 -0.00400
H 	H 	0.58330 0.07980 0.92060 0.00100
C 	C 	0.59345 0.07163 0.99930 -0.01400
C 	C 	0.55372 0.09388 0.04562 -0.02800
H 	H 	0.57660 0.07870 0.07800 0.02500
C 	C 	0.47969 0.13889 0.04354 -0.07400
H 	H 	0.45180 0.15410 0.07440 0.04400
C 	C 	0.44821 0.16073 0.99487 0.02400
H 	H 	0.39870 0.19160 0.99350 -0.01100
H 	H 	0.24840 0.61040 0.47470 0.10600
N 	N 	0.98545 0.63960 0.44937 -0.19500
C 	C 	0.17311 0.52068 0.49945 -0.07400
H 	H 	0.17350 0.48450 0.53030 0.03700
H 	H 	0.17420 0.48510 0.46830 0.04200
C 	C 	0.05707 0.59527 0.45197 -0.01000
H 	H 	0.08330 0.57980 0.42060 0.00100
C 	C 	0.09345 0.57163 0.49930 0.00200
C 	C 	0.05372 0.59388 0.54562 -0.04200
H 	H 	0.07660 0.57870 0.57800 0.02700
C 	C 	0.97969 0.63889 0.54354 -0.08500
H 	H 	0.95180 0.65410 0.57440 0.04600
C 	C 	0.94821 0.66073 0.49487 0.03700
H 	H 	0.89870 0.69160 0.49350 -0.01200
H 	H 	0.75160 0.88960 0.47470 0.10300
N 	N 	0.01455 0.86040 0.44937 -0.19300
C 	C 	0.82689 0.97932 0.49945 -0.11900
H 	H 	0.82650 0.01550 0.53030 0.05600
H 	H 	0.82580 0.01490 0.46830 0.06000
C 	C 	0.94293 0.90473 0.45197 -0.02000
H 	H 	0.91670 0.92020 0.42060 0.00300
C 	C 	0.90655 0.92837 0.49930 0.01700
C 	C 	0.94628 0.90612 0.54562 -0.05500
H 	H 	0.92340 0.92130 0.57800 0.03000
C 	C 	0.02031 0.86111 0.54354 -0.07700
H 	H 	0.04820 0.84590 0.57440 0.04300
C 	C 	0.05179 0.83927 0.49487 0.03300
H 	H 	0.10130 0.80840 0.49350 -0.01100
H 	H 	0.25160 0.38960 0.97470 0.09700
N 	N 	0.51455 0.36040 0.94937 -0.19200
C 	C 	0.32689 0.47932 0.99945 -0.10300
H 	H 	0.32650 0.51550 0.03030 0.05100
H 	H 	0.32580 0.51490 0.96830 0.04800
C 	C 	0.44293 0.40473 0.95197 -0.01400
H 	H 	0.41670 0.42020 0.92060 0.00200
C 	C 	0.40655 0.42837 0.99930 0.00100
C 	C 	0.44628 0.40612 0.04562 -0.04100
H 	H 	0.42340 0.42130 0.07800 0.02800
C 	C 	0.52031 0.36111 0.04354 -0.06700
H 	H 	0.54820 0.34590 0.07440 0.04100
C 	C 	0.55179 0.33927 0.99487 0.01900
H 	H 	0.60130 0.30840 0.99350 -0.00900
H 	H 	0.36040 0.50160 0.72470 0.10600
N 	N 	0.38960 0.76455 0.69937 -0.19500
C 	C 	0.27068 0.57689 0.74945 -0.07400
H 	H 	0.23450 0.57650 0.78030 0.03700
H 	H 	0.23510 0.57580 0.71830 0.04200
C 	C 	0.34527 0.69293 0.70197 -0.01000
H 	H 	0.32980 0.66670 0.67060 0.00100
C 	C 	0.32163 0.65655 0.74930 0.00200
C 	C 	0.34388 0.69628 0.79562 -0.04200
H 	H 	0.32870 0.67340 0.82800 0.02700
C 	C 	0.38889 0.77031 0.79354 -0.08500
H 	H 	0.40410 0.79820 0.82440 0.04500
C 	C 	0.41073 0.80179 0.74487 0.03700
H 	H 	0.44160 0.85130 0.74350 -0.01400
H 	H 	0.86040 0.00160 0.22470 0.10700
N 	N 	0.88960 0.26455 0.19937 -0.19500
C 	C 	0.77068 0.07689 0.24945 -0.07800
H 	H 	0.73450 0.07650 0.28030 0.04000
H 	H 	0.73510 0.07580 0.21830 0.04400
C 	C 	0.84527 0.19293 0.20197 -0.01100
H 	H 	0.82980 0.16670 0.17060 0.00300
C 	C 	0.82163 0.15655 0.24930 0.00500
C 	C 	0.84388 0.19628 0.29562 -0.04300
H 	H 	0.82870 0.17340 0.32800 0.02800
C 	C 	0.88889 0.27031 0.29354 -0.08400
H 	H 	0.90410 0.29820 0.32440 0.04600
C 	C 	0.91073 0.30179 0.24487 0.03700
H 	H 	0.94160 0.35130 0.24350 -0.01200
H 	H 	0.13960 0.49840 0.22470 0.10600
N 	N 	0.11040 0.23545 0.19937 -0.19500
C 	C 	0.22932 0.42311 0.24945 -0.07500
H 	H 	0.26550 0.42350 0.28030 0.03700
H 	H 	0.26490 0.42420 0.21830 0.04200
C 	C 	0.15473 0.30707 0.20197 -0.01000
H 	H 	0.17020 0.33330 0.17060 0.00200
C 	C 	0.17837 0.34345 0.24930 0.00200
C 	C 	0.15612 0.30372 0.29562 -0.04200
H 	H 	0.17130 0.32660 0.32800 0.02700
C 	C 	0.11111 0.22969 0.29354 -0.08400
H 	H 	0.09590 0.20180 0.32440 0.04700
C 	C 	0.08927 0.19821 0.24487 0.03700
H 	H 	0.05840 0.14870 0.24350 -0.01100
H 	H 	0.63960 0.99840 0.72470 0.09600
N 	N 	0.61040 0.73545 0.69937 -0.19500
C 	C 	0.72932 0.92311 0.74945 -0.08400
H 	H 	0.76550 0.92350 0.78030 0.03800
H 	H 	0.76490 0.92420 0.71830 0.04300
C 	C 	0.65473 0.80707 0.70197 -0.01200
H 	H 	0.67020 0.83330 0.67060 0.00100
C 	C 	0.67837 0.84345 0.74930 0.00400
C 	C 	0.65612 0.80372 0.79562 -0.04500
H 	H 	0.67130 0.82660 0.82800 0.02700
C 	C 	0.61111 0.72969 0.79354 -0.08400
H 	H 	0.59590 0.70180 0.82440 0.04500
C 	C 	0.58927 0.69821 0.74487 0.03600
H 	H 	0.55840 0.64870 0.74350 -0.01200
Ag	Ag	0.06808 0.18192 0.12500 0.47700
Ag	Ag	0.56808 0.68192 0.62500 0.47600
Ag	Ag	0.43192 0.81808 0.62500 0.47500
Ag	Ag	0.93192 0.31808 0.12500 0.47600
Ag	Ag	0.06808 0.81808 0.37500 0.47500
Ag	Ag	0.56808 0.31808 0.87500 0.47600
Ag	Ag	0.43192 0.18192 0.87500 0.47600
Ag	Ag	0.93192 0.68192 0.37500 0.47600
N 	N 	0.75000 0.07426 -0.00000 -0.23500
N 	N 	0.25000 0.57426 0.50000 -0.23500
N 	N 	0.75000 0.92574 0.50000 -0.22300
N 	N 	0.25000 0.42574 -0.00000 -0.22300
N 	N 	0.17574 0.50000 0.25000 -0.23500
N 	N 	0.67574 0.00000 0.75000 -0.22400
N 	N 	0.32426 0.50000 0.75000 -0.23500
N 	N 	0.82426 0.00000 0.25000 -0.22400
H 	H 	0.24840 0.88960 0.97470 0.09400
N 	N 	0.98545 0.86040 0.94937 -0.19000
C 	C 	0.17311 0.97932 0.99945 -0.14600
H 	H 	0.17350 0.01550 0.03030 0.06900
H 	H 	0.17420 0.01490 0.96830 0.06700
C 	C 	0.05707 0.90473 0.95197 -0.02300
H 	H 	0.08330 0.92020 0.92060 0.00400
C 	C 	0.09345 0.92837 0.99930 0.01600
C 	C 	0.05372 0.90612 0.04562 -0.05300
H 	H 	0.07660 0.92130 0.07800 0.03000
C 	C 	0.97969 0.86111 0.04354 -0.06000
H 	H 	0.95180 0.84590 0.07440 0.03800
C 	C 	0.94821 0.83927 0.99487 0.01500
H 	H 	0.89870 0.80840 0.99350 -0.00800
H 	H 	0.74840 0.38960 0.47470 0.10600
N 	N 	0.48545 0.36040 0.44937 -0.19500
C 	C 	0.67311 0.47932 0.49945 -0.07400
H 	H 	0.67350 0.51550 0.53030 0.03700
H 	H 	0.67420 0.51490 0.46830 0.04200
C 	C 	0.55707 0.40473 0.45197 -0.01000
H 	H 	0.58330 0.42020 0.42060 0.00100
C 	C 	0.59345 0.42837 0.49930 0.00200
C 	C 	0.55372 0.40612 0.54562 -0.04200
H 	H 	0.57660 0.42130 0.57800 0.02700
C 	C 	0.47969 0.36111 0.54354 -0.08500
H 	H 	0.45180 0.34590 0.57440 0.04600
C 	C 	0.44821 0.33927 0.49487 0.03700
H 	H 	0.39870 0.30840 0.49350 -0.01300
H 	H 	0.25160 0.11040 0.47470 0.10900
N 	N 	0.51455 0.13960 0.44937 -0.19700
C 	C 	0.32689 0.02068 0.49945 -0.03000
H 	H 	0.32650 0.98450 0.53030 0.01800
H 	H 	0.32580 0.98510 0.46830 0.02300
C 	C 	0.44293 0.09527 0.45197 -0.00100
H 	H 	0.41670 0.07980 0.42060 -0.00000
C 	C 	0.40655 0.07163 0.49930 -0.01300
C 	C 	0.44628 0.09388 0.54562 -0.02900
H 	H 	0.42340 0.07870 0.57800 0.02500
C 	C 	0.52031 0.13889 0.54354 -0.09200
H 	H 	0.54820 0.15410 0.57440 0.04900
C 	C 	0.55179 0.16073 0.49487 0.04200
H 	H 	0.60130 0.19160 0.49350 -0.01400
H 	H 	0.75160 0.61040 0.97470 0.09700
N 	N 	0.01455 0.63960 0.94937 -0.19200
C 	C 	0.82689 0.52068 0.99945 -0.10300
H 	H 	0.82650 0.48450 0.03030 0.05100
H 	H 	0.82580 0.48510 0.96830 0.04800
C 	C 	0.94293 0.59527 0.95197 -0.01400
H 	H 	0.91670 0.57980 0.92060 0.00200
C 	C 	0.90655 0.57163 0.99930 0.00100
C 	C 	0.94628 0.59388 0.04562 -0.04100
H 	H 	0.92340 0.57870 0.07800 0.02800
C 	C 	0.02031 0.63889 0.04354 -0.06700
H 	H 	0.04820 0.65410 0.07440 0.04100
C 	C 	0.05179 0.66073 0.99487 0.01900
H 	H 	0.10130 0.69160 0.99350 -0.00900
H 	H 	0.86040 0.49840 0.72470 0.10600
N 	N 	0.88960 0.23545 0.69937 -0.19500
C 	C 	0.77068 0.42311 0.74945 -0.07400
H 	H 	0.73450 0.42350 0.78030 0.03700
H 	H 	0.73510 0.42420 0.71830 0.04200
C 	C 	0.84527 0.30707 0.70197 -0.01000
H 	H 	0.82980 0.33330 0.67060 0.00100
C 	C 	0.82163 0.34345 0.74930 0.00200
C 	C 	0.84388 0.30372 0.79562 -0.04200
H 	H 	0.82870 0.32660 0.82800 0.02700
C 	C 	0.88889 0.22969 0.79354 -0.08500
H 	H 	0.90410 0.20180 0.82440 0.04600
C 	C 	0.91073 0.19821 0.74487 0.03700
H 	H 	0.94160 0.14870 0.74350 -0.01100
H 	H 	0.36040 0.99840 0.22470 0.09600
N 	N 	0.38960 0.73545 0.19937 -0.19500
C 	C 	0.27068 0.92311 0.24945 -0.08400
H 	H 	0.23450 0.92350 0.28030 0.03800
H 	H 	0.23510 0.92420 0.21830 0.04300
C 	C 	0.34527 0.80707 0.20197 -0.01200
H 	H 	0.32980 0.83330 0.17060 0.00200
C 	C 	0.32163 0.84345 0.24930 0.00500
C 	C 	0.34388 0.80372 0.29562 -0.04500
H 	H 	0.32870 0.82660 0.32800 0.02700
C 	C 	0.38889 0.72969 0.29354 -0.08300
H 	H 	0.40410 0.70180 0.32440 0.04600
C 	C 	0.41073 0.69821 0.24487 0.03600
H 	H 	0.44160 0.64870 0.24350 -0.01200
H 	H 	0.63960 0.50160 0.22470 0.10600
N 	N 	0.61040 0.76455 0.19937 -0.19500
C 	C 	0.72932 0.57689 0.24945 -0.07400
H 	H 	0.76550 0.57650 0.28030 0.03700
H 	H 	0.76490 0.57580 0.21830 0.04200
C 	C 	0.65473 0.69293 0.20197 -0.01000
H 	H 	0.67020 0.66670 0.17060 0.00200
C 	C 	0.67837 0.65655 0.24930 0.00200
C 	C 	0.65612 0.69628 0.29562 -0.04200
H 	H 	0.67130 0.67340 0.32800 0.02700
C 	C 	0.61111 0.77031 0.29354 -0.08500
H 	H 	0.59590 0.79820 0.32440 0.04600
C 	C 	0.58927 0.80179 0.24487 0.03700
H 	H 	0.55840 0.85130 0.24350 -0.01400
H 	H 	0.13960 0.00160 0.72470 0.10700
N 	N 	0.11040 0.26455 0.69937 -0.19500
C 	C 	0.22932 0.07689 0.74945 -0.07700
H 	H 	0.26550 0.07650 0.78030 0.04000
H 	H 	0.26490 0.07580 0.71830 0.04400
C 	C 	0.15473 0.19293 0.70197 -0.01100
H 	H 	0.17020 0.16670 0.67060 0.00200
C 	C 	0.17837 0.15655 0.74930 0.00400
C 	C 	0.15612 0.19628 0.79562 -0.04300
H 	H 	0.17130 0.17340 0.82800 0.02800
C 	C 	0.11111 0.27031 0.79354 -0.08400
H 	H 	0.09590 0.29820 0.82440 0.04600
C 	C 	0.08927 0.30179 0.74487 0.03700
H 	H 	0.05840 0.35130 0.74350 -0.01200
H 	H 	0.25160 0.88960 0.02530 0.10300
N 	N 	0.51455 0.86040 0.05063 -0.19500
C 	C 	0.32689 0.97932 0.00055 -0.10400
H 	H 	0.32650 0.01550 0.96970 0.04600
H 	H 	0.32580 0.01490 0.03170 0.05800
C 	C 	0.44293 0.90473 0.04803 -0.01900
H 	H 	0.41670 0.92020 0.07940 0.00300
C 	C 	0.40655 0.92837 0.00070 0.02400
C 	C 	0.44628 0.90612 0.95438 -0.06000
H 	H 	0.42340 0.92130 0.92200 0.03000
C 	C 	0.52031 0.86111 0.95646 -0.09300
H 	H 	0.54820 0.84590 0.92560 0.04700
C 	C 	0.55179 0.83927 0.00513 0.04900
H 	H 	0.60130 0.80840 0.00650 -0.01400
H 	H 	0.75160 0.38960 0.52530 0.10600
N 	N 	0.01455 0.36040 0.55063 -0.19500
C 	C 	0.82689 0.47932 0.50055 -0.07400
H 	H 	0.82650 0.51550 0.46970 0.03700
H 	H 	0.82580 0.51490 0.53170 0.04200
C 	C 	0.94293 0.40473 0.54803 -0.01000
H 	H 	0.91670 0.42020 0.57940 0.00100
C 	C 	0.90655 0.42837 0.50070 0.00200
C 	C 	0.94628 0.40612 0.45438 -0.04200
H 	H 	0.92340 0.42130 0.42200 0.02700
C 	C 	0.02031 0.36111 0.45646 -0.08500
H 	H 	0.04820 0.34590 0.42560 0.04600
C 	C 	0.05179 0.33927 0.50513 0.03700
H 	H 	0.10130 0.30840 0.50650 -0.01300
H 	H 	0.24840 0.11040 0.52530 0.10900
N 	N 	0.98545 0.13960 0.55063 -0.19700
C 	C 	0.17311 0.02068 0.50055 -0.03000
H 	H 	0.17350 0.98450 0.46970 0.01900
H 	H 	0.17420 0.98510 0.53170 0.02300
C 	C 	0.05707 0.09527 0.54803 -0.00100
H 	H 	0.08330 0.07980 0.57940 -0.00000
C 	C 	0.09345 0.07163 0.50070 -0.01300
C 	C 	0.05372 0.09388 0.45438 -0.03000
H 	H 	0.07660 0.07870 0.42200 0.02500
C 	C 	0.97969 0.13889 0.45646 -0.09200
H 	H 	0.95180 0.15410 0.42560 0.04900
C 	C 	0.94821 0.16073 0.50513 0.04200
H 	H 	0.89870 0.19160 0.50650 -0.01400
H 	H 	0.74840 0.61040 0.02530 0.10600
N 	N 	0.48545 0.63960 0.05063 -0.19700
C 	C 	0.67311 0.52068 0.00055 -0.06000
H 	H 	0.67350 0.48450 0.96970 0.02700
H 	H 	0.67420 0.48510 0.03170 0.03900
C 	C 	0.55707 0.59527 0.04803 -0.01000
H 	H 	0.58330 0.57980 0.07940 0.00100
C 	C 	0.59345 0.57163 0.00070 0.00900
C 	C 	0.55372 0.59388 0.95438 -0.04800
H 	H 	0.57660 0.57870 0.92200 0.02800
C 	C 	0.47969 0.63889 0.95646 -0.10000
H 	H 	0.45180 0.65410 0.92560 0.05000
C 	C 	0.44821 0.66073 0.00513 0.05300
H 	H 	0.39870 0.69160 0.00650 -0.01500
H 	H 	0.63960 0.49840 0.27530 0.10600
N 	N 	0.61040 0.23545 0.30063 -0.19500
C 	C 	0.72932 0.42311 0.25055 -0.07500
H 	H 	0.76550 0.42350 0.21970 0.03700
H 	H 	0.76490 0.42420 0.28170 0.04200
C 	C 	0.65473 0.30707 0.29803 -0.01000
H 	H 	0.67020 0.33330 0.32940 0.00100
C 	C 	0.67837 0.34345 0.25070 0.00200
C 	C 	0.65612 0.30372 0.20438 -0.04200
H 	H 	0.67130 0.32660 0.17200 0.02800
C 	C 	0.61111 0.22969 0.20646 -0.08400
H 	H 	0.59590 0.20180 0.17560 0.04700
C 	C 	0.58927 0.19821 0.25513 0.03700
H 	H 	0.55840 0.14870 0.25650 -0.01100
H 	H 	0.13960 0.99840 0.77530 0.09600
N 	N 	0.11040 0.73545 0.80063 -0.19500
C 	C 	0.22932 0.92311 0.75055 -0.08300
H 	H 	0.26550 0.92350 0.71970 0.03800
H 	H 	0.26490 0.92420 0.78170 0.04200
C 	C 	0.15473 0.80707 0.79803 -0.01200
H 	H 	0.17020 0.83330 0.82940 0.00100
C 	C 	0.17837 0.84345 0.75070 0.00400
C 	C 	0.15612 0.80372 0.70438 -0.04500
H 	H 	0.17130 0.82660 0.67200 0.02700
C 	C 	0.11111 0.72969 0.70646 -0.08300
H 	H 	0.09590 0.70180 0.67560 0.04600
C 	C 	0.08927 0.69821 0.75513 0.03600
H 	H 	0.05840 0.64870 0.75650 -0.01200
H 	H 	0.86040 0.50160 0.77530 0.10600
N 	N 	0.88960 0.76455 0.80063 -0.19500
C 	C 	0.77068 0.57689 0.75055 -0.07400
H 	H 	0.73450 0.57650 0.71970 0.03700
H 	H 	0.73510 0.57580 0.78170 0.04200
C 	C 	0.84527 0.69293 0.79803 -0.01000
H 	H 	0.82980 0.66670 0.82940 0.00100
C 	C 	0.82163 0.65655 0.75070 0.00200
C 	C 	0.84388 0.69628 0.70438 -0.04200
H 	H 	0.82870 0.67340 0.67200 0.02700
C 	C 	0.88889 0.77031 0.70646 -0.08500
H 	H 	0.90410 0.79820 0.67560 0.04600
C 	C 	0.91073 0.80179 0.75513 0.03700
H 	H 	0.94160 0.85130 0.75650 -0.01400
H 	H 	0.36040 0.00160 0.27530 0.10700
N 	N 	0.38960 0.26455 0.30063 -0.19500
C 	C 	0.27068 0.07689 0.25055 -0.07800
H 	H 	0.23450 0.07650 0.21970 0.04000
H 	H 	0.23510 0.07580 0.28170 0.04400
C 	C 	0.34527 0.19293 0.29803 -0.01100
H 	H 	0.32980 0.16670 0.32940 0.00200
C 	C 	0.32163 0.15655 0.25070 0.00500
C 	C 	0.34388 0.19628 0.20438 -0.04300
H 	H 	0.32870 0.17340 0.17200 0.02900
C 	C 	0.38889 0.27031 0.20646 -0.08300
H 	H 	0.40410 0.29820 0.17560 0.04600
C 	C 	0.41073 0.30179 0.25513 0.03700
H 	H 	0.44160 0.35130 0.25650 -0.01200
Ag	Ag	0.93192 0.81808 0.87500 0.47500
Ag	Ag	0.43192 0.31808 0.37500 0.47600
Ag	Ag	0.56808 0.18192 0.37500 0.47700
Ag	Ag	0.06808 0.68192 0.87500 0.47600
Ag	Ag	0.93192 0.18192 0.62500 0.47700
Ag	Ag	0.43192 0.68192 0.12500 0.47600
Ag	Ag	0.56808 0.81808 0.12500 0.47600
Ag	Ag	0.06808 0.31808 0.62500 0.47600
N 	N 	0.25000 0.92574 -0.00000 -0.21100
N 	N 	0.75000 0.42574 0.50000 -0.23500
N 	N 	0.25000 0.07426 0.50000 -0.24700
N 	N 	0.75000 0.57426 -0.00000 -0.22300
N 	N 	0.82426 0.50000 0.75000 -0.23500
N 	N 	0.32426 0.00000 0.25000 -0.22400
N 	N 	0.67574 0.50000 0.25000 -0.23500
N 	N 	0.17574 0.00000 0.75000 -0.22400
