data_crystal

_cell_length_a 15.08300
_cell_length_b 20.53100
_cell_length_c 3.66560
_cell_angle_alpha 90.00000
_cell_angle_beta  90.00000
_cell_angle_gamma 90.00000

_symmetry_space_group_name_	'P 1'
_symmetry_space_group_name_H-M	'P 1'

loop_
_symmetry_equiv_pos_as_xyz
  x,y,z

loop_
_atom_site_label
_atom_site_type_symbol
_atom_site_fract_x
_atom_site_fract_y
_atom_site_fract_z
_atom_site_charge
N 	N 	0.66910 0.58890 0.46580 -0.26200
C 	C 	0.61830 0.63840 0.35740 0.07900
H 	H 	0.56040 0.62950 0.28570 -0.00700
C 	C 	0.64710 0.70150 0.34630 -0.13700
H 	H 	0.60950 0.73430 0.26490 0.08400
C 	C 	0.73190 0.71630 0.45600 0.05600
C 	C 	0.78590 0.66400 0.56790 -0.14000
H 	H 	0.84450 0.67130 0.63650 0.05800
C 	C 	0.75120 0.60240 0.57450 0.07500
H 	H 	0.78650 0.56840 0.65870 -0.05000
N 	N 	0.16910 0.08890 0.46580 -0.26300
C 	C 	0.11830 0.13840 0.35740 0.07900
H 	H 	0.06040 0.12950 0.28570 0.00400
C 	C 	0.14710 0.20150 0.34630 -0.13500
H 	H 	0.10950 0.23430 0.26490 0.09000
C 	C 	0.23190 0.21630 0.45600 0.05800
C 	C 	0.28590 0.16400 0.56790 -0.14300
H 	H 	0.34450 0.17130 0.63650 0.06200
C 	C 	0.25120 0.10240 0.57450 0.07800
H 	H 	0.28650 0.06840 0.65870 -0.05700
N 	N 	0.33090 0.41110 0.46580 -0.26100
C 	C 	0.38170 0.36160 0.35740 0.07900
H 	H 	0.43960 0.37050 0.28570 -0.00800
C 	C 	0.35290 0.29850 0.34630 -0.13700
H 	H 	0.39050 0.26570 0.26490 0.08200
C 	C 	0.26810 0.28370 0.45600 0.05800
C 	C 	0.21410 0.33600 0.56790 -0.14100
H 	H 	0.15550 0.32870 0.63650 0.07000
C 	C 	0.24880 0.39760 0.57450 0.07800
H 	H 	0.21350 0.43160 0.65870 -0.04300
N 	N 	0.83090 0.91110 0.46580 -0.25000
C 	C 	0.88170 0.86160 0.35740 0.07800
H 	H 	0.93960 0.87050 0.28570 -0.01500
C 	C 	0.85290 0.79850 0.34630 -0.13800
H 	H 	0.89050 0.76570 0.26490 0.07500
C 	C 	0.76810 0.78370 0.45600 0.05600
C 	C 	0.71410 0.83600 0.56790 -0.13700
H 	H 	0.65550 0.82870 0.63650 0.06600
C 	C 	0.74880 0.89760 0.57450 0.07600
H 	H 	0.71350 0.93160 0.65870 -0.03200
N 	N 	0.33090 0.58890 0.53420 -0.26300
C 	C 	0.38170 0.63840 0.64260 0.07900
H 	H 	0.43960 0.62950 0.71430 -0.02900
C 	C 	0.35290 0.70150 0.65370 -0.14400
H 	H 	0.39050 0.73430 0.73510 0.06500
C 	C 	0.26810 0.71630 0.54400 0.06000
C 	C 	0.21410 0.66400 0.43210 -0.13900
H 	H 	0.15550 0.67130 0.36350 0.08500
C 	C 	0.24880 0.60240 0.42550 0.08000
H 	H 	0.21350 0.56840 0.34130 -0.02700
N 	N 	0.83090 0.08890 0.53420 -0.27100
C 	C 	0.88170 0.13840 0.64260 0.07700
H 	H 	0.93960 0.12950 0.71430 -0.04700
C 	C 	0.85290 0.20150 0.65370 -0.14700
H 	H 	0.89050 0.23430 0.73510 0.05600
C 	C 	0.76810 0.21630 0.54400 0.05800
C 	C 	0.71410 0.16400 0.43210 -0.14100
H 	H 	0.65550 0.17130 0.36350 0.07600
C 	C 	0.74880 0.10240 0.42550 0.07800
H 	H 	0.71350 0.06840 0.34130 -0.04300
N 	N 	0.66910 0.41110 0.53420 -0.26200
C 	C 	0.61830 0.36160 0.64260 0.07600
H 	H 	0.56040 0.37050 0.71430 -0.02800
C 	C 	0.64710 0.29850 0.65370 -0.13900
H 	H 	0.60950 0.26570 0.73510 0.06100
C 	C 	0.73190 0.28370 0.54400 0.05300
C 	C 	0.78590 0.33600 0.43210 -0.13500
H 	H 	0.84450 0.32870 0.36350 0.07100
C 	C 	0.75120 0.39760 0.42550 0.07500
H 	H 	0.78650 0.43160 0.34130 -0.03400
N 	N 	0.16910 0.91110 0.53420 -0.24600
C 	C 	0.11830 0.86160 0.64260 0.07700
H 	H 	0.06040 0.87050 0.71430 -0.00900
C 	C 	0.14710 0.79850 0.65370 -0.13600
H 	H 	0.10950 0.76570 0.73510 0.06900
C 	C 	0.23190 0.78370 0.54400 0.05500
C 	C 	0.28590 0.83600 0.43210 -0.13200
H 	H 	0.34450 0.82870 0.36350 0.07900
C 	C 	0.25120 0.89760 0.42550 0.07600
H 	H 	0.28650 0.93160 0.34130 -0.01600
Cu	Cu	0.62178 0.50000 0.50000 0.84000
Cu	Cu	0.12178 0.00000 0.50000 0.82700
Cu	Cu	0.37822 0.50000 0.50000 0.84100
Cu	Cu	0.87822 0.00000 0.50000 0.81300
Cl	Cl	0.50000 0.50000 -0.00000 -0.71700
Cl	Cl	-0.00000 0.00000 -0.00000 -0.70700
