data_crystal

_cell_length_a 32.47290
_cell_length_b 32.47290
_cell_length_c 33.09400
_cell_angle_alpha 60.61890
_cell_angle_beta  60.61890
_cell_angle_gamma 90.00000

_symmetry_space_group_name_	'P 1'
_symmetry_space_group_name_H-M	'P 1'

loop_
_symmetry_equiv_pos_as_xyz
  x,y,z

loop_
_atom_site_label
_atom_site_type_symbol
_atom_site_fract_x
_atom_site_fract_y
_atom_site_fract_z
_atom_site_charge
Na	Na	0.87500 0.11556 0.75000 0.59400
Na	Na	0.37500 0.13444 0.75000 0.59400
Na	Na	0.86556 0.62500 0.25000 0.59400
Na	Na	0.88444 0.12500 0.25000 0.59400
Zn	Zn	0.98605 0.11710 0.79528 1.23200
Zn	Zn	0.91645 0.99841 0.86924 1.23300
Zn	Zn	0.87484 0.07331 0.90930 1.22700
Zn	Zn	0.43806 0.54479 0.08974 1.22100
Zn	Zn	0.21867 0.08762 0.79528 1.23100
Zn	Zn	0.21431 0.13235 0.86924 1.23200
Zn	Zn	0.21586 0.01739 0.90930 1.22700
Zn	Zn	0.47219 0.36547 0.08975 1.22100
Zn	Zn	0.86710 0.46867 0.29528 1.23100
Zn	Zn	0.74841 0.46431 0.36924 1.23200
Zn	Zn	0.82331 0.46586 0.40930 1.22700
Zn	Zn	0.29479 0.72220 0.58974 1.22100
Zn	Zn	0.83762 0.23605 0.29528 1.23100
Zn	Zn	0.88235 0.16645 0.36924 1.23200
Zn	Zn	0.76739 0.12484 0.40930 1.22700
Zn	Zn	0.11547 0.68805 0.58975 1.22100
Zn	Zn	0.53133 0.13290 0.70472 1.23100
Zn	Zn	0.53569 0.25159 0.63076 1.23200
Zn	Zn	0.53414 0.17669 0.59070 1.22700
Zn	Zn	0.27780 0.70521 0.41026 1.22100
Zn	Zn	0.76395 0.16238 0.70472 1.23100
Zn	Zn	0.83355 0.11765 0.63076 1.23200
Zn	Zn	0.87516 0.23261 0.59070 1.22700
Zn	Zn	0.31195 0.88453 0.41025 1.22100
Zn	Zn	0.91238 0.78133 0.20472 1.23100
Zn	Zn	0.86765 0.78569 0.13076 1.23100
Zn	Zn	0.98261 0.78414 0.09070 1.22600
Zn	Zn	0.63453 0.52781 0.91025 1.22100
Zn	Zn	0.88290 0.01395 0.20472 1.23100
Zn	Zn	0.00159 0.08355 0.13076 1.23100
Zn	Zn	0.92669 0.12516 0.09070 1.22700
Zn	Zn	0.45521 0.56194 0.91026 1.22100
Zn	Zn	0.43468 0.43468 0.13064 1.23200
Zn	Zn	0.18468 0.68468 0.63064 1.23200
Zn	Zn	0.31532 0.81532 0.36936 1.23200
Zn	Zn	0.56532 0.56532 0.86936 1.23200
Zn	Zn	0.50000 0.50000 -0.00000 1.18500
Zn	Zn	0.25000 0.75000 0.50000 1.18700
H 	H 	0.50150 0.59420 0.99120 0.14700
H 	H 	0.90680 0.07590 0.82820 0.29200
H 	H 	0.52010 0.43980 0.06460 0.30800
H 	H 	0.97280 0.16650 0.63120 0.01900
H 	H 	0.00530 0.22240 0.53980 0.07300
H 	H 	0.11210 0.30010 0.52780 0.07300
H 	H 	0.07960 0.24100 0.61880 0.03000
H 	H 	0.00630 0.31240 0.48720 0.07700
H 	H 	0.11320 0.41380 0.32420 0.06500
H 	H 	0.15000 0.32250 0.42720 0.07000
H 	H 	0.19370 0.46940 0.28760 0.07900
H 	H 	0.27540 0.50590 0.21720 0.02500
H 	H 	0.29690 0.37400 0.26620 0.02700
H 	H 	0.21300 0.33560 0.33100 0.08000
H 	H 	0.96770 0.36690 0.46880 0.07800
H 	H 	0.90480 0.38920 0.45780 0.01800
H 	H 	0.98570 0.42320 0.30320 0.02400
H 	H 	0.04680 0.39610 0.31620 0.07400
H 	H 	0.85490 0.89920 0.84500 0.02900
H 	H 	0.81560 0.86340 0.82200 0.07000
H 	H 	0.76150 0.97770 0.77880 0.07300
H 	H 	0.80090 0.01350 0.80180 0.02500
H 	H 	0.74000 0.82690 0.83180 0.06800
H 	H 	0.73120 0.86460 0.70240 0.06300
H 	H 	0.78760 0.96840 0.70640 0.07500
H 	H 	0.71170 0.93320 0.64880 0.08200
H 	H 	0.72390 0.99730 0.56860 0.01500
H 	H 	0.85200 0.06980 0.52800 0.01700
H 	H 	0.83420 0.00460 0.61520 0.08400
H 	H 	0.75470 0.75480 0.81600 0.08200
H 	H 	0.71680 0.67280 0.85560 0.02000
H 	H 	0.61650 0.70940 0.82420 0.02000
H 	H 	0.65250 0.79090 0.78260 0.07900
H 	H 	0.83200 0.19450 0.77260 0.03200
H 	H 	0.77640 0.23850 0.76760 0.06500
H 	H 	0.71370 0.19920 0.92340 0.06500
H 	H 	0.76480 0.15320 0.93260 0.03700
H 	H 	0.69380 0.22260 0.79520 0.08200
H 	H 	0.59520 0.29260 0.83500 0.07200
H 	H 	0.68960 0.27340 0.88400 0.07200
H 	H 	0.63100 0.37860 0.83140 0.08800
H 	H 	0.58790 0.40710 0.88620 0.01100
H 	H 	0.54660 0.28100 0.02540 0.00500
H 	H 	0.58560 0.24660 0.97520 0.09000
H 	H 	0.63790 0.18000 0.80160 0.07800
H 	H 	0.60730 0.16180 0.75880 0.02400
H 	H 	0.57660 0.29110 0.70780 0.02400
H 	H 	0.60760 0.30710 0.75240 0.06900
H 	H 	0.50730 0.41460 0.99120 0.14700
H 	H 	0.26500 0.09590 0.82820 0.29200
H 	H 	0.41530 0.49560 0.06460 0.30800
H 	H 	0.39600 0.20230 0.63120 0.01900
H 	H 	0.45490 0.23780 0.53980 0.07300
H 	H 	0.36010 0.17210 0.52780 0.07300
H 	H 	0.30160 0.14020 0.61880 0.03000
H 	H 	0.50650 0.20040 0.48720 0.07700
H 	H 	0.56260 0.26200 0.32420 0.06500
H 	H 	0.42280 0.25030 0.42720 0.07000
H 	H 	0.51870 0.24300 0.28760 0.07900
H 	H 	0.50740 0.27690 0.21720 0.02500
H 	H 	0.43690 0.35980 0.26620 0.02700
H 	H 	0.45600 0.33340 0.33100 0.08000
H 	H 	0.56350 0.16430 0.46880 0.07800
H 	H 	0.63740 0.15300 0.45780 0.01800
H 	H 	0.71110 0.27360 0.30320 0.02400
H 	H 	0.63700 0.28770 0.31620 0.07400
H 	H 	0.30010 0.25580 0.84500 0.02900
H 	H 	0.36240 0.31460 0.82200 0.07000
H 	H 	0.45970 0.24350 0.77880 0.07300
H 	H 	0.39730 0.18470 0.80180 0.02500
H 	H 	0.42820 0.34130 0.83180 0.06900
H 	H 	0.56640 0.43300 0.70240 0.06300
H 	H 	0.50600 0.32520 0.70640 0.07500
H 	H 	0.63950 0.41800 0.64880 0.08100
H 	H 	0.70750 0.43410 0.56860 0.01600
H 	H 	0.62000 0.40220 0.52800 0.01700
H 	H 	0.55060 0.38020 0.61520 0.08300
H 	H 	0.42930 0.42920 0.81600 0.08200
H 	H 	0.42760 0.47160 0.85560 0.02000
H 	H 	0.55930 0.46640 0.82420 0.02000
H 	H 	0.56490 0.42650 0.78260 0.07900
H 	H 	0.39540 0.03290 0.77260 0.03400
H 	H 	0.45600 0.99390 0.76760 0.06300
H 	H 	0.36290 0.87740 0.92340 0.06400
H 	H 	0.30260 0.91420 0.93260 0.03800
H 	H 	0.51100 0.98220 0.79520 0.08300
H 	H 	0.56980 0.87240 0.83500 0.07200
H 	H 	0.42640 0.84260 0.88400 0.07300
H 	H 	0.53760 0.79000 0.83140 0.08700
H 	H 	0.52590 0.70670 0.88620 0.01100
H 	H 	0.42800 0.69360 0.02540 0.00600
H 	H 	0.43920 0.77820 0.97520 0.09000
H 	H 	0.56050 0.01840 0.80160 0.07800
H 	H 	0.63390 0.07940 0.75880 0.02400
H 	H 	0.71560 0.00110 0.70780 0.02400
H 	H 	0.64000 0.94050 0.75240 0.06900
H 	H 	0.34420 0.75730 0.49120 0.14200
H 	H 	0.82590 0.51500 0.32820 0.29200
H 	H 	0.18980 0.66530 0.56460 0.30800
H 	H 	0.91650 0.64600 0.13120 0.02200
H 	H 	0.97240 0.70490 0.03980 0.06700
H 	H 	0.05010 0.61010 0.02780 0.06800
H 	H 	0.99100 0.55160 0.11880 0.03200
H 	H 	0.06240 0.75650 0.98720 0.08300
H 	H 	0.16380 0.81260 0.82420 0.06600
H 	H 	0.07250 0.67280 0.92720 0.07500
H 	H 	0.21940 0.76870 0.78760 0.07900
H 	H 	0.25590 0.75740 0.71720 0.02600
H 	H 	0.12400 0.68690 0.76620 0.02700
H 	H 	0.08560 0.70600 0.83100 0.08000
H 	H 	0.11690 0.81350 0.96880 0.07900
H 	H 	0.13920 0.88740 0.95780 0.02100
H 	H 	0.17320 0.96110 0.80320 0.02500
H 	H 	0.14610 0.88700 0.81620 0.07300
H 	H 	0.64920 0.55010 0.34500 0.02900
H 	H 	0.61340 0.61240 0.32200 0.07000
H 	H 	0.72770 0.70970 0.27880 0.07300
H 	H 	0.76350 0.64730 0.30180 0.02500
H 	H 	0.57690 0.67820 0.33180 0.06700
H 	H 	0.61460 0.81640 0.20240 0.06200
H 	H 	0.71840 0.75600 0.20640 0.07400
H 	H 	0.68320 0.88950 0.14880 0.08300
H 	H 	0.74730 0.95750 0.06860 0.01200
H 	H 	0.81980 0.87000 0.02800 0.01300
H 	H 	0.75460 0.80060 0.11520 0.08500
H 	H 	0.50480 0.67930 0.31600 0.08200
H 	H 	0.42280 0.67760 0.35560 0.01900
H 	H 	0.45940 0.80930 0.32420 0.01900
H 	H 	0.54090 0.81490 0.28260 0.07900
H 	H 	0.94450 0.64540 0.27260 0.03200
H 	H 	0.98850 0.70600 0.26760 0.06400
H 	H 	0.94920 0.61290 0.42340 0.06400
H 	H 	0.90320 0.55260 0.43260 0.03600
H 	H 	0.97260 0.76100 0.29520 0.08300
H 	H 	0.04260 0.81980 0.33500 0.07400
H 	H 	0.02340 0.67640 0.38400 0.07300
H 	H 	0.12860 0.78760 0.33140 0.08300
H 	H 	0.15710 0.77590 0.38620 0.01500
H 	H 	0.03100 0.67800 0.52540 0.02100
H 	H 	0.99660 0.68920 0.47520 0.08100
H 	H 	0.93000 0.81050 0.30160 0.07700
H 	H 	0.91180 0.88390 0.25880 0.02400
H 	H 	0.04110 0.96560 0.20780 0.02500
H 	H 	0.05710 0.89000 0.25240 0.06800
H 	H 	0.16460 0.75150 0.49120 0.14200
H 	H 	0.84590 0.15680 0.32820 0.29200
H 	H 	0.24560 0.77010 0.56460 0.30800
H 	H 	0.95230 0.22280 0.13120 0.02200
H 	H 	0.98780 0.25530 0.03980 0.06700
H 	H 	0.92210 0.36210 0.02780 0.06800
H 	H 	0.89020 0.32960 0.11880 0.03200
H 	H 	0.95040 0.25630 0.98720 0.08300
H 	H 	0.01200 0.36320 0.82420 0.06700
H 	H 	0.00030 0.40000 0.92720 0.07700
H 	H 	0.99300 0.44370 0.78760 0.07700
H 	H 	0.02690 0.52540 0.71720 0.02700
H 	H 	0.10980 0.54690 0.76620 0.02800
H 	H 	0.08340 0.46300 0.83100 0.07900
H 	H 	0.91430 0.21770 0.96880 0.07900
H 	H 	0.90300 0.15480 0.95780 0.02100
H 	H 	0.02360 0.23570 0.80320 0.02400
H 	H 	0.03770 0.29680 0.81620 0.07200
H 	H 	0.00580 0.10490 0.34500 0.02900
H 	H 	0.06460 0.06560 0.32200 0.07000
H 	H 	0.99350 0.01150 0.27880 0.07200
H 	H 	0.93470 0.05090 0.30180 0.02500
H 	H 	0.09130 0.99000 0.33180 0.06600
H 	H 	0.18300 0.98120 0.20240 0.06100
H 	H 	0.07520 0.03760 0.20640 0.07200
H 	H 	0.16800 0.96170 0.14880 0.08400
H 	H 	0.18410 0.97390 0.06860 0.01000
H 	H 	0.15220 0.10200 0.02800 0.01000
H 	H 	0.13020 0.08420 0.11520 0.08600
H 	H 	0.17920 0.00470 0.31600 0.07800
H 	H 	0.22160 0.96680 0.35560 0.02000
H 	H 	0.21640 0.86650 0.32420 0.02000
H 	H 	0.17650 0.90250 0.28260 0.07900
H 	H 	0.78290 0.08200 0.27260 0.03200
H 	H 	0.74390 0.02640 0.26760 0.06400
H 	H 	0.62740 0.96370 0.42340 0.06400
H 	H 	0.66420 0.01480 0.43260 0.03600
H 	H 	0.73220 0.94380 0.29520 0.08300
H 	H 	0.62240 0.84520 0.33500 0.07300
H 	H 	0.59260 0.93960 0.38400 0.07300
H 	H 	0.54000 0.88100 0.33140 0.08300
H 	H 	0.45670 0.83790 0.38620 0.01500
H 	H 	0.44360 0.79660 0.52540 0.02000
H 	H 	0.52820 0.83560 0.47520 0.08300
H 	H 	0.76840 0.88790 0.30160 0.07800
H 	H 	0.82940 0.85730 0.25880 0.02400
H 	H 	0.75110 0.82660 0.20780 0.02400
H 	H 	0.69050 0.85760 0.25240 0.06900
H 	H 	0.24270 0.65580 0.50880 0.14200
H 	H 	0.48500 0.17410 0.67180 0.29200
H 	H 	0.33470 0.81020 0.43540 0.30800
H 	H 	0.35400 0.08350 0.86880 0.01600
H 	H 	0.29510 0.02760 0.96020 0.07900
H 	H 	0.38990 0.94990 0.97220 0.07800
H 	H 	0.44840 0.00900 0.88120 0.02700
H 	H 	0.24350 0.93760 0.01280 0.07200
H 	H 	0.18740 0.83620 0.17580 0.06300
H 	H 	0.32720 0.92750 0.07280 0.06500
H 	H 	0.23130 0.78060 0.21240 0.08000
H 	H 	0.24260 0.74410 0.28280 0.02500
H 	H 	0.31310 0.87600 0.23380 0.02600
H 	H 	0.29400 0.91440 0.16900 0.08000
H 	H 	0.18650 0.88310 0.03120 0.07700
H 	H 	0.11260 0.86080 0.04220 0.01600
H 	H 	0.03890 0.82680 0.19680 0.02300
H 	H 	0.11300 0.85390 0.18380 0.07400
H 	H 	0.44990 0.35080 0.65500 0.02900
H 	H 	0.38760 0.38660 0.67800 0.07000
H 	H 	0.29030 0.27230 0.72120 0.07200
H 	H 	0.35270 0.23650 0.69820 0.02500
H 	H 	0.32180 0.42310 0.66820 0.06800
H 	H 	0.18360 0.38540 0.79760 0.06500
H 	H 	0.24400 0.28160 0.79360 0.07600
H 	H 	0.11050 0.31680 0.85120 0.07800
H 	H 	0.04250 0.25270 0.93140 0.02100
H 	H 	0.13000 0.18020 0.97200 0.02300
H 	H 	0.19940 0.24540 0.88480 0.08100
H 	H 	0.32070 0.49520 0.68400 0.08200
H 	H 	0.32240 0.57720 0.64440 0.01900
H 	H 	0.19070 0.54060 0.67580 0.02000
H 	H 	0.18510 0.45910 0.71740 0.07900
H 	H 	0.35460 0.05550 0.72740 0.03200
H 	H 	0.29400 0.01150 0.73240 0.06400
H 	H 	0.38710 0.05080 0.57660 0.06400
H 	H 	0.44740 0.09680 0.56740 0.03600
H 	H 	0.23900 0.02740 0.70480 0.08400
H 	H 	0.18020 0.95740 0.66500 0.07500
H 	H 	0.32360 0.97660 0.61600 0.07300
H 	H 	0.21240 0.87140 0.66860 0.08300
H 	H 	0.22410 0.84290 0.61380 0.01600
H 	H 	0.32200 0.96900 0.47460 0.02200
H 	H 	0.31080 0.00340 0.52480 0.07900
H 	H 	0.18950 0.07000 0.69840 0.07700
H 	H 	0.11610 0.08820 0.74120 0.02400
H 	H 	0.03440 0.95890 0.79220 0.02500
H 	H 	0.11000 0.94290 0.74760 0.06800
H 	H 	0.24850 0.83540 0.50880 0.14200
H 	H 	0.84320 0.15410 0.67180 0.29200
H 	H 	0.22990 0.75440 0.43540 0.30800
H 	H 	0.77720 0.04770 0.86880 0.01600
H 	H 	0.74470 0.01220 0.96020 0.07900
H 	H 	0.63790 0.07790 0.97220 0.07800
H 	H 	0.67040 0.10980 0.88120 0.02700
H 	H 	0.74370 0.04960 0.01280 0.07200
H 	H 	0.63680 0.98800 0.17580 0.06400
H 	H 	0.60000 0.99970 0.07280 0.06900
H 	H 	0.55630 0.00700 0.21240 0.07600
H 	H 	0.47460 0.97310 0.28280 0.02600
H 	H 	0.45310 0.89020 0.23380 0.02700
H 	H 	0.53700 0.91660 0.16900 0.07900
H 	H 	0.78230 0.08570 0.03120 0.07700
H 	H 	0.84520 0.09700 0.04220 0.01600
H 	H 	0.76430 0.97640 0.19680 0.02300
H 	H 	0.70320 0.96230 0.18380 0.07400
H 	H 	0.89510 0.99420 0.65500 0.02900
H 	H 	0.93440 0.93540 0.67800 0.07000
H 	H 	0.98850 0.00650 0.72120 0.07300
H 	H 	0.94910 0.06530 0.69820 0.02500
H 	H 	0.01000 0.90870 0.66820 0.06700
H 	H 	0.01880 0.81700 0.79760 0.06300
H 	H 	0.96240 0.92480 0.79360 0.07500
H 	H 	0.03830 0.83200 0.85120 0.07900
H 	H 	0.02610 0.81590 0.93140 0.01900
H 	H 	0.89800 0.84780 0.97200 0.02100
H 	H 	0.91580 0.86980 0.88480 0.08200
H 	H 	0.99530 0.82080 0.68400 0.07900
H 	H 	0.03320 0.77840 0.64440 0.02000
H 	H 	0.13350 0.78360 0.67580 0.02000
H 	H 	0.09750 0.82350 0.71740 0.07900
H 	H 	0.91800 0.21710 0.72740 0.03200
H 	H 	0.97360 0.25610 0.73240 0.06500
H 	H 	0.03630 0.37260 0.57660 0.06400
H 	H 	0.98520 0.33580 0.56740 0.03600
H 	H 	0.05620 0.26780 0.70480 0.08300
H 	H 	0.15480 0.37760 0.66500 0.07300
H 	H 	0.06040 0.40740 0.61600 0.07300
H 	H 	0.11900 0.46000 0.66860 0.08300
H 	H 	0.16210 0.54330 0.61380 0.01500
H 	H 	0.20340 0.55640 0.47460 0.02000
H 	H 	0.16440 0.47180 0.52480 0.08300
H 	H 	0.11210 0.23160 0.69840 0.07800
H 	H 	0.14270 0.17060 0.74120 0.02400
H 	H 	0.17340 0.24890 0.79220 0.02400
H 	H 	0.14240 0.30950 0.74760 0.06900
H 	H 	0.58540 0.49270 0.00880 0.13800
H 	H 	0.90410 0.73500 0.17180 0.29200
H 	H 	0.50440 0.58470 0.93540 0.30800
H 	H 	0.79770 0.60400 0.36880 0.01900
H 	H 	0.76220 0.54510 0.46020 0.07300
H 	H 	0.82790 0.63990 0.47220 0.07300
H 	H 	0.85980 0.69840 0.38120 0.03000
H 	H 	0.79960 0.49350 0.51280 0.07700
H 	H 	0.73800 0.43740 0.67580 0.06500
H 	H 	0.74970 0.57720 0.57280 0.07000
H 	H 	0.75700 0.48130 0.71240 0.07900
H 	H 	0.72310 0.49260 0.78280 0.02500
H 	H 	0.64020 0.56310 0.73380 0.02700
H 	H 	0.66660 0.54400 0.66900 0.08000
H 	H 	0.83570 0.43650 0.53120 0.07800
H 	H 	0.84700 0.36260 0.54220 0.01800
H 	H 	0.72640 0.28890 0.69680 0.02400
H 	H 	0.71230 0.36300 0.68380 0.07400
H 	H 	0.74420 0.69990 0.15500 0.02800
H 	H 	0.68540 0.63760 0.17800 0.07000
H 	H 	0.75650 0.54030 0.22120 0.07300
H 	H 	0.81530 0.60270 0.19820 0.02500
H 	H 	0.65870 0.57180 0.16820 0.06700
H 	H 	0.56700 0.43360 0.29760 0.06300
H 	H 	0.67480 0.49400 0.29360 0.07500
H 	H 	0.58200 0.36050 0.35120 0.08100
H 	H 	0.56590 0.29250 0.43140 0.01600
H 	H 	0.59780 0.38000 0.47200 0.01700
H 	H 	0.61980 0.44940 0.38480 0.08400
H 	H 	0.57080 0.57070 0.18400 0.08100
H 	H 	0.52840 0.57240 0.14440 0.01800
H 	H 	0.53360 0.44070 0.17580 0.01900
H 	H 	0.57350 0.43510 0.21740 0.07900
H 	H 	0.96710 0.60460 0.22740 0.03300
H 	H 	0.00610 0.54400 0.23240 0.06400
H 	H 	0.12260 0.63710 0.07660 0.06300
H 	H 	0.08580 0.69740 0.06740 0.03400
H 	H 	0.01780 0.48900 0.20480 0.08300
H 	H 	0.12760 0.43020 0.16500 0.07400
H 	H 	0.15740 0.57360 0.11600 0.07300
H 	H 	0.21000 0.46240 0.16860 0.07900
H 	H 	0.29330 0.47410 0.11380 0.01900
H 	H 	0.30640 0.57200 0.97460 0.03500
H 	H 	0.22180 0.56080 0.02480 0.07500
H 	H 	0.98160 0.43950 0.19840 0.07700
H 	H 	0.92060 0.36610 0.24120 0.02400
H 	H 	0.99890 0.28440 0.29220 0.02400
H 	H 	0.05950 0.36000 0.24760 0.06900
H 	H 	0.40580 0.49850 0.00880 0.13800
H 	H 	0.92410 0.09320 0.17180 0.29200
H 	H 	0.56020 0.47990 0.93540 0.30800
H 	H 	0.83350 0.02720 0.36880 0.01800
H 	H 	0.77760 0.99470 0.46020 0.07300
H 	H 	0.69990 0.88790 0.47220 0.07300
H 	H 	0.75900 0.92040 0.38120 0.03000
H 	H 	0.68760 0.99370 0.51280 0.07800
H 	H 	0.58620 0.88680 0.67580 0.06500
H 	H 	0.67750 0.85000 0.57280 0.07000
H 	H 	0.53060 0.80630 0.71240 0.07900
H 	H 	0.49410 0.72460 0.78280 0.02600
H 	H 	0.62600 0.70310 0.73380 0.02700
H 	H 	0.66440 0.78700 0.66900 0.08000
H 	H 	0.63310 0.03230 0.53120 0.07800
H 	H 	0.61080 0.09520 0.54220 0.01800
H 	H 	0.57680 0.01430 0.69680 0.02400
H 	H 	0.60390 0.95320 0.68380 0.07300
H 	H 	0.10080 0.14510 0.15500 0.02900
H 	H 	0.13660 0.18440 0.17800 0.06900
H 	H 	0.02230 0.23850 0.22120 0.07200
H 	H 	0.98650 0.19910 0.19820 0.02600
H 	H 	0.17310 0.26000 0.16820 0.06700
H 	H 	0.13540 0.26880 0.29760 0.06300
H 	H 	0.03160 0.21240 0.29360 0.07500
H 	H 	0.06680 0.28830 0.35120 0.08100
H 	H 	0.00270 0.27610 0.43140 0.01600
H 	H 	0.93020 0.14800 0.47200 0.01700
H 	H 	0.99540 0.16580 0.38480 0.08300
H 	H 	0.24520 0.24530 0.18400 0.08100
H 	H 	0.32720 0.28320 0.14440 0.01800
H 	H 	0.29060 0.38350 0.17580 0.01900
H 	H 	0.20910 0.34750 0.21740 0.07900
H 	H 	0.80550 0.16800 0.22740 0.03200
H 	H 	0.76150 0.22360 0.23240 0.06400
H 	H 	0.80080 0.28630 0.07660 0.06300
H 	H 	0.84680 0.23520 0.06740 0.03400
H 	H 	0.77740 0.30620 0.20480 0.08300
H 	H 	0.70740 0.40480 0.16500 0.07400
H 	H 	0.72660 0.31040 0.11600 0.07300
H 	H 	0.62140 0.36900 0.16860 0.08000
H 	H 	0.59290 0.41210 0.11380 0.01900
H 	H 	0.71900 0.45340 0.97460 0.03400
H 	H 	0.75340 0.41440 0.02480 0.07500
H 	H 	0.82000 0.36210 0.19840 0.07700
H 	H 	0.83820 0.39270 0.24120 0.02400
H 	H 	0.70890 0.42340 0.29220 0.02400
H 	H 	0.69290 0.39240 0.24760 0.06900
C 	C 	0.99979 0.15949 0.69682 0.34400
C 	C 	0.02300 0.19680 0.63426 -0.11600
C 	C 	0.00128 0.19321 0.60998 0.05300
C 	C 	0.01990 0.22747 0.55586 -0.11900
C 	C 	0.06021 0.27014 0.52252 0.04800
C 	C 	0.08385 0.27355 0.54830 -0.11600
C 	C 	0.06462 0.23802 0.60216 0.05100
C 	C 	0.07677 0.31259 0.46466 0.04300
C 	C 	0.03962 0.32732 0.45696 -0.11000
C 	C 	0.05279 0.36432 0.40376 0.03200
C 	C 	0.10433 0.38743 0.35934 -0.10300
C 	C 	0.14155 0.37255 0.36630 0.03100
C 	C 	0.12620 0.33362 0.42056 -0.10800
C 	C 	0.19546 0.39916 0.31868 0.06400
C 	C 	0.21388 0.44958 0.28324 -0.13800
C 	C 	0.26339 0.47149 0.24202 0.06000
C 	C 	0.29640 0.44320 0.23460 -0.13500
C 	C 	0.27592 0.39332 0.26936 0.07000
C 	C 	0.22629 0.37009 0.30962 -0.13900
C 	C 	0.35116 0.46856 0.18968 0.38500
C 	C 	0.01566 0.37966 0.39388 0.05900
C 	C 	0.97176 0.37796 0.43488 -0.13100
C 	C 	0.93307 0.39057 0.42886 0.07100
C 	C 	0.93667 0.40827 0.37926 -0.15800
C 	C 	0.98130 0.41040 0.33760 0.06800
C 	C 	0.01858 0.39528 0.34504 -0.12700
C 	C 	0.95616 0.14856 0.87048 0.40800
C 	C 	0.86083 0.98583 0.83514 0.36000
C 	C 	0.83176 0.95988 0.82574 -0.11700
C 	C 	0.83619 0.91494 0.83178 0.04600
C 	C 	0.81266 0.89351 0.81796 -0.11100
C 	C 	0.78469 0.91701 0.79812 0.04700
C 	C 	0.78026 0.96195 0.79208 -0.11000
C 	C 	0.80379 0.98338 0.80590 0.04100
C 	C 	0.76651 0.89943 0.77312 0.04300
C 	C 	0.74556 0.85078 0.79724 -0.10500
C 	C 	0.73102 0.83582 0.77156 0.02700
C 	C 	0.74067 0.87387 0.71986 -0.09700
C 	C 	0.76223 0.92361 0.69358 0.02800
C 	C 	0.77460 0.93499 0.72142 -0.10700
C 	C 	0.76994 0.96155 0.64172 0.07500
C 	C 	0.73954 0.96114 0.62552 -0.15300
C 	C 	0.74756 0.99916 0.57628 0.09000
C 	C 	0.79031 0.04101 0.53718 -0.17200
C 	C 	0.82314 0.04284 0.55212 0.07400
C 	C 	0.81202 0.00332 0.60536 -0.14000
C 	C 	0.70767 0.78247 0.79686 0.07100
C 	C 	0.72588 0.74648 0.81824 -0.14300
C 	C 	0.70376 0.69686 0.84068 0.08100
C 	C 	0.66385 0.68180 0.84316 -0.15700
C 	C 	0.64522 0.71907 0.82152 0.08300
C 	C 	0.66602 0.76762 0.79796 -0.14300
C 	C 	0.49569 0.50879 0.13342 0.40300
C 	C 	0.83758 0.13721 0.85898 0.33900
C 	C 	0.80371 0.16886 0.85274 -0.09200
C 	C 	0.80758 0.19421 0.80340 0.02100
C 	C 	0.77377 0.22029 0.80146 -0.09000
C 	C 	0.73584 0.22069 0.84692 0.03200
C 	C 	0.73547 0.19657 0.89386 -0.09700
C 	C 	0.76734 0.17064 0.89892 0.02700
C 	C 	0.69719 0.24259 0.84202 0.05500
C 	C 	0.67880 0.23730 0.81460 -0.12700
C 	C 	0.64083 0.25363 0.81394 0.05200
C 	C 	0.61947 0.27907 0.83846 -0.11700
C 	C 	0.63635 0.28435 0.86690 0.03700
C 	C 	0.67670 0.26751 0.86700 -0.11600
C 	C 	0.61279 0.30903 0.89822 0.07900
C 	C 	0.61498 0.35835 0.87004 -0.16200
C 	C 	0.58618 0.37378 0.90444 0.10400
C 	C 	0.55960 0.34789 0.96200 -0.19500
C 	C 	0.56236 0.30031 0.98668 0.11400
C 	C 	0.58643 0.27963 0.95634 -0.16000
C 	C 	0.47544 0.63894 0.99332 0.44800
C 	C 	0.62225 0.24265 0.78610 0.04900
C 	C 	0.62459 0.20189 0.78422 -0.11900
C 	C 	0.60635 0.19095 0.75770 0.06300
C 	C 	0.58838 0.22498 0.73004 -0.16300
C 	C 	0.58869 0.26829 0.72622 0.06600
C 	C 	0.60635 0.27715 0.75530 -0.11500
C 	C 	0.02480 0.03790 0.79400 0.42600
C 	C 	0.79954 0.08184 0.48392 0.44400
C 	C 	0.30339 0.14369 0.69682 0.34400
C 	C 	0.34274 0.16894 0.63426 -0.11600
C 	C 	0.38874 0.19681 0.60998 0.05300
C 	C 	0.42424 0.21667 0.55586 -0.11900
C 	C 	0.41727 0.20734 0.52252 0.04800
C 	C 	0.36785 0.17815 0.54830 -0.11600
C 	C 	0.33322 0.15982 0.60216 0.05200
C 	C 	0.45857 0.22275 0.46466 0.04300
C 	C 	0.50342 0.21572 0.45696 -0.11000
C 	C 	0.54345 0.23192 0.40376 0.03200
C 	C 	0.53633 0.25323 0.35934 -0.10300
C 	C 	0.49215 0.26115 0.36630 0.03100
C 	C 	0.45324 0.24582 0.42056 -0.10800
C 	C 	0.48586 0.28216 0.31868 0.06400
C 	C 	0.50288 0.26718 0.28324 -0.13800
C 	C 	0.49459 0.28649 0.24202 0.06000
C 	C 	0.46900 0.32220 0.23460 -0.13500
C 	C 	0.45472 0.33732 0.26936 0.07000
C 	C 	0.46409 0.32029 0.30962 -0.13900
C 	C 	0.45916 0.34176 0.18968 0.38500
C 	C 	0.59046 0.22646 0.39388 0.05900
C 	C 	0.59336 0.18716 0.43488 -0.13100
C 	C 	0.63807 0.18057 0.42886 0.07100
C 	C 	0.68407 0.21247 0.37926 -0.15800
C 	C 	0.68110 0.25200 0.33760 0.06800
C 	C 	0.63638 0.25968 0.34504 -0.12600
C 	C 	0.17336 0.98096 0.87048 0.41000
C 	C 	0.30403 0.17903 0.83514 0.36000
C 	C 	0.34250 0.21438 0.82574 -0.11700
C 	C 	0.33203 0.25328 0.83178 0.04600
C 	C 	0.36938 0.28853 0.81796 -0.11100
C 	C 	0.41719 0.28487 0.79812 0.04700
C 	C 	0.42766 0.24597 0.79208 -0.11000
C 	C 	0.39031 0.21072 0.80590 0.04100
C 	C 	0.46037 0.32745 0.77312 0.04300
C 	C 	0.45720 0.35198 0.79724 -0.10500
C 	C 	0.49742 0.39262 0.77156 0.02700
C 	C 	0.53947 0.40627 0.71986 -0.09700
C 	C 	0.54419 0.38281 0.69358 0.02800
C 	C 	0.50398 0.34359 0.72142 -0.10700
C 	C 	0.58834 0.39673 0.64172 0.07300
C 	C 	0.63494 0.41334 0.62552 -0.15100
C 	C 	0.67616 0.42456 0.57628 0.08800
C 	C 	0.67251 0.42181 0.53718 -0.17100
C 	C 	0.62474 0.40504 0.55212 0.07300
C 	C 	0.58262 0.39132 0.60536 -0.13800
C 	C 	0.49547 0.42067 0.79686 0.07100
C 	C 	0.45588 0.43528 0.81824 -0.14200
C 	C 	0.45556 0.46246 0.84068 0.08100
C 	C 	0.49299 0.47504 0.84316 -0.15700
C 	C 	0.53326 0.45941 0.82152 0.08300
C 	C 	0.53602 0.43442 0.79796 -0.14300
C 	C 	0.37089 0.35779 0.13342 0.40300
C 	C 	0.30344 0.00381 0.85898 0.33600
C 	C 	0.34355 0.97840 0.85274 -0.08700
C 	C 	0.38902 0.00239 0.80340 0.01500
C 	C 	0.42477 0.97825 0.80146 -0.08500
C 	C 	0.41724 0.93239 0.84692 0.02900
C 	C 	0.37067 0.90957 0.89386 -0.09400
C 	C 	0.33374 0.93044 0.89892 0.02300
C 	C 	0.46079 0.91539 0.84202 0.05700
C 	C 	0.50660 0.94810 0.81460 -0.12800
C 	C 	0.54523 0.93243 0.81394 0.05200
C 	C 	0.54207 0.88247 0.83846 -0.11700
C 	C 	0.49675 0.84875 0.86690 0.03800
C 	C 	0.45630 0.86549 0.86700 -0.11700
C 	C 	0.48899 0.79275 0.89822 0.07800
C 	C 	0.51498 0.77161 0.87004 -0.16100
C 	C 	0.50938 0.72178 0.90444 0.10400
C 	C 	0.47840 0.69011 0.96200 -0.19400
C 	C 	0.45096 0.71301 0.98668 0.11200
C 	C 	0.45723 0.76403 0.95634 -0.15900
C 	C 	0.53124 0.36774 0.99332 0.44900
C 	C 	0.59165 0.97125 0.78610 0.04900
C 	C 	0.59119 0.01389 0.78422 -0.12000
C 	C 	0.63595 0.05135 0.75770 0.06300
C 	C 	0.68158 0.04498 0.73004 -0.16300
C 	C 	0.68509 0.00549 0.72622 0.06500
C 	C 	0.63835 0.96755 0.75530 -0.11500
C 	C 	0.18120 0.16810 0.79400 0.42600
C 	C 	0.71654 0.43424 0.48392 0.44400
C 	C 	0.90949 0.55339 0.19682 0.34200
C 	C 	0.94680 0.59274 0.13426 -0.10900
C 	C 	0.94321 0.63874 0.10998 0.04300
C 	C 	0.97747 0.67424 0.05586 -0.10700
C 	C 	0.02014 0.66727 0.02252 0.03100
C 	C 	0.02355 0.61785 0.04830 -0.10600
C 	C 	0.98802 0.58322 0.10216 0.04300
C 	C 	0.06259 0.70857 0.96466 0.06000
C 	C 	0.07732 0.75342 0.95696 -0.11900
C 	C 	0.11432 0.79345 0.90376 0.03800
C 	C 	0.13743 0.78633 0.85934 -0.10800
C 	C 	0.12255 0.74215 0.86630 0.03700
C 	C 	0.08362 0.70324 0.92056 -0.11700
C 	C 	0.14916 0.73586 0.81868 0.06100
C 	C 	0.19958 0.75288 0.78324 -0.13500
C 	C 	0.22149 0.74459 0.74202 0.05900
C 	C 	0.19320 0.71900 0.73460 -0.13400
C 	C 	0.14332 0.70472 0.76936 0.06900
C 	C 	0.12009 0.71409 0.80962 -0.13600
C 	C 	0.21856 0.70916 0.68968 0.38500
C 	C 	0.12966 0.84046 0.89388 0.05600
C 	C 	0.12796 0.84336 0.93488 -0.12700
C 	C 	0.14057 0.88807 0.92886 0.07000
C 	C 	0.15827 0.93407 0.87926 -0.15600
C 	C 	0.16040 0.93110 0.83760 0.06600
C 	C 	0.14528 0.88638 0.84504 -0.12400
C 	C 	0.89856 0.42336 0.37048 0.40900
C 	C 	0.73583 0.55403 0.33514 0.36000
C 	C 	0.70988 0.59250 0.32574 -0.11800
C 	C 	0.66494 0.58203 0.33178 0.04600
C 	C 	0.64351 0.61938 0.31796 -0.11200
C 	C 	0.66701 0.66719 0.29812 0.04700
C 	C 	0.71195 0.67766 0.29208 -0.11100
C 	C 	0.73338 0.64031 0.30590 0.04100
C 	C 	0.64943 0.71037 0.27312 0.04100
C 	C 	0.60078 0.70720 0.29724 -0.10400
C 	C 	0.58582 0.74742 0.27156 0.02500
C 	C 	0.62387 0.78947 0.21986 -0.09500
C 	C 	0.67361 0.79419 0.19358 0.02500
C 	C 	0.68499 0.75398 0.22142 -0.10500
C 	C 	0.71155 0.83834 0.14172 0.07800
C 	C 	0.71114 0.88494 0.12552 -0.15700
C 	C 	0.74916 0.92616 0.07628 0.09500
C 	C 	0.79101 0.92251 0.03718 -0.18100
C 	C 	0.79284 0.87474 0.05212 0.07900
C 	C 	0.75332 0.83262 0.10536 -0.14400
C 	C 	0.53247 0.74547 0.29686 0.07200
C 	C 	0.49648 0.70588 0.31824 -0.14400
C 	C 	0.44686 0.70556 0.34068 0.08200
C 	C 	0.43180 0.74299 0.34316 -0.15800
C 	C 	0.46907 0.78326 0.32152 0.08400
C 	C 	0.51762 0.78602 0.29796 -0.14400
C 	C 	0.25879 0.62089 0.63342 0.40300
C 	C 	0.88721 0.55344 0.35898 0.34000
C 	C 	0.91886 0.59355 0.35274 -0.09300
C 	C 	0.94421 0.63902 0.30340 0.02100
C 	C 	0.97029 0.67477 0.30146 -0.08900
C 	C 	0.97069 0.66724 0.34692 0.03100
C 	C 	0.94657 0.62067 0.39386 -0.09700
C 	C 	0.92064 0.58374 0.39892 0.02600
C 	C 	0.99259 0.71079 0.34202 0.05700
C 	C 	0.98730 0.75660 0.31460 -0.13100
C 	C 	0.00363 0.79523 0.31394 0.05700
C 	C 	0.02907 0.79207 0.33846 -0.12200
C 	C 	0.03435 0.74675 0.36690 0.04300
C 	C 	0.01751 0.70630 0.36700 -0.11900
C 	C 	0.05903 0.73899 0.39822 0.06700
C 	C 	0.10835 0.76498 0.37004 -0.14900
C 	C 	0.12378 0.75938 0.40444 0.09000
C 	C 	0.09789 0.72840 0.46200 -0.17700
C 	C 	0.05031 0.70096 0.48668 0.08300
C 	C 	0.02963 0.70723 0.45634 -0.14000
C 	C 	0.38894 0.78124 0.49332 0.43100
C 	C 	0.99265 0.84165 0.28610 0.04500
C 	C 	0.95189 0.84119 0.28422 -0.11700
C 	C 	0.94095 0.88595 0.25770 0.06100
C 	C 	0.97498 0.93158 0.23004 -0.16300
C 	C 	0.01829 0.93509 0.22622 0.06600
C 	C 	0.02715 0.88835 0.25530 -0.11200
C 	C 	0.78790 0.43120 0.29400 0.42600
C 	C 	0.83184 0.96654 0.98392 0.45100
C 	C 	0.89369 0.24979 0.19682 0.34200
C 	C 	0.91894 0.27300 0.13426 -0.11000
C 	C 	0.94681 0.25128 0.10998 0.04400
C 	C 	0.96667 0.26990 0.05586 -0.10700
C 	C 	0.95734 0.31021 0.02252 0.03200
C 	C 	0.92815 0.33385 0.04830 -0.10600
C 	C 	0.90982 0.31462 0.10216 0.04300
C 	C 	0.97275 0.32677 0.96466 0.06000
C 	C 	0.96572 0.28962 0.95696 -0.12000
C 	C 	0.98192 0.30279 0.90376 0.03800
C 	C 	0.00323 0.35433 0.85934 -0.10800
C 	C 	0.01115 0.39155 0.86630 0.03900
C 	C 	0.99582 0.37620 0.92056 -0.12000
C 	C 	0.03216 0.44546 0.81868 0.05900
C 	C 	0.01718 0.46388 0.78324 -0.13200
C 	C 	0.03649 0.51339 0.74202 0.05700
C 	C 	0.07220 0.54640 0.73460 -0.13200
C 	C 	0.08732 0.52592 0.76936 0.06700
C 	C 	0.07029 0.47629 0.80962 -0.13400
C 	C 	0.09176 0.60116 0.68968 0.38400
C 	C 	0.97646 0.26566 0.89388 0.05500
C 	C 	0.93716 0.22176 0.93488 -0.12700
C 	C 	0.93057 0.18307 0.92886 0.06900
C 	C 	0.96247 0.18667 0.87926 -0.15600
C 	C 	0.00200 0.23130 0.83760 0.06600
C 	C 	0.00968 0.26858 0.84504 -0.12300
C 	C 	0.73096 0.20616 0.37048 0.40900
C 	C 	0.92903 0.11083 0.33514 0.36000
C 	C 	0.96438 0.08176 0.32574 -0.11700
C 	C 	0.00328 0.08619 0.33178 0.04500
C 	C 	0.03853 0.06266 0.31796 -0.11200
C 	C 	0.03487 0.03469 0.29812 0.04700
C 	C 	0.99597 0.03026 0.29208 -0.10900
C 	C 	0.96072 0.05379 0.30590 0.04000
C 	C 	0.07745 0.01651 0.27312 0.03600
C 	C 	0.10198 0.99556 0.29724 -0.09800
C 	C 	0.14262 0.98102 0.27156 0.02300
C 	C 	0.15627 0.99067 0.21986 -0.08900
C 	C 	0.13281 0.01223 0.19358 0.01900
C 	C 	0.09359 0.02460 0.22142 -0.10100
C 	C 	0.14673 0.01994 0.14172 0.08000
C 	C 	0.16334 0.98954 0.12552 -0.16000
C 	C 	0.17456 0.99756 0.07628 0.10200
C 	C 	0.17181 0.04031 0.03718 -0.19000
C 	C 	0.15504 0.07314 0.05212 0.08300
C 	C 	0.14132 0.06202 0.10536 -0.14800
C 	C 	0.17067 0.95767 0.29686 0.07000
C 	C 	0.18528 0.97588 0.31824 -0.13800
C 	C 	0.21246 0.95376 0.34068 0.07800
C 	C 	0.22504 0.91385 0.34316 -0.15600
C 	C 	0.20941 0.89522 0.32152 0.08200
C 	C 	0.18442 0.91602 0.29796 -0.14200
C 	C 	0.10779 0.74569 0.63342 0.40300
C 	C 	0.75381 0.08758 0.35898 0.34000
C 	C 	0.72840 0.05371 0.35274 -0.09300
C 	C 	0.75239 0.05758 0.30340 0.02100
C 	C 	0.72825 0.02377 0.30146 -0.09000
C 	C 	0.68239 0.98584 0.34692 0.03200
C 	C 	0.65957 0.98547 0.39386 -0.09600
C 	C 	0.68044 0.01734 0.39892 0.02500
C 	C 	0.66539 0.94719 0.34202 0.05700
C 	C 	0.69810 0.92880 0.31460 -0.12900
C 	C 	0.68243 0.89083 0.31394 0.05300
C 	C 	0.63247 0.86947 0.33846 -0.12000
C 	C 	0.59875 0.88635 0.36690 0.04100
C 	C 	0.61549 0.92670 0.36700 -0.11800
C 	C 	0.54275 0.86279 0.39822 0.06800
C 	C 	0.52161 0.86498 0.37004 -0.15000
C 	C 	0.47178 0.83618 0.40444 0.09100
C 	C 	0.44011 0.80960 0.46200 -0.17800
C 	C 	0.46301 0.81236 0.48668 0.08400
C 	C 	0.51403 0.83643 0.45634 -0.14200
C 	C 	0.11774 0.72544 0.49332 0.43100
C 	C 	0.72125 0.87225 0.28610 0.04800
C 	C 	0.76389 0.87459 0.28422 -0.11900
C 	C 	0.80135 0.85635 0.25770 0.06200
C 	C 	0.79498 0.83838 0.23004 -0.16300
C 	C 	0.75549 0.83869 0.22622 0.06500
C 	C 	0.71755 0.85635 0.25530 -0.11500
C 	C 	0.91810 0.27480 0.29400 0.42600
C 	C 	0.18424 0.04954 0.98392 0.45600
C 	C 	0.44661 0.09051 0.80318 0.34600
C 	C 	0.40726 0.05320 0.86574 -0.12200
C 	C 	0.36126 0.05679 0.89002 0.06300
C 	C 	0.32576 0.02253 0.94414 -0.13100
C 	C 	0.33273 0.97986 0.97748 0.06400
C 	C 	0.38215 0.97645 0.95170 -0.12500
C 	C 	0.41678 0.01198 0.89784 0.05900
C 	C 	0.29143 0.93741 0.03534 0.02900
C 	C 	0.24658 0.92268 0.04304 -0.10200
C 	C 	0.20655 0.88568 0.09624 0.02600
C 	C 	0.21367 0.86257 0.14066 -0.09800
C 	C 	0.25785 0.87745 0.13370 0.02600
C 	C 	0.29676 0.91638 0.07944 -0.10000
C 	C 	0.26414 0.85084 0.18132 0.06700
C 	C 	0.24712 0.80042 0.21676 -0.14000
C 	C 	0.25541 0.77851 0.25798 0.06200
C 	C 	0.28100 0.80680 0.26540 -0.13600
C 	C 	0.29528 0.85668 0.23064 0.07100
C 	C 	0.28591 0.87991 0.19038 -0.14100
C 	C 	0.29084 0.78144 0.31032 0.38500
C 	C 	0.15954 0.87034 0.10612 0.06200
C 	C 	0.15664 0.87204 0.06512 -0.13400
C 	C 	0.11193 0.85943 0.07114 0.07300
C 	C 	0.06593 0.84173 0.12074 -0.16000
C 	C 	0.06890 0.83960 0.16240 0.07000
C 	C 	0.11362 0.85472 0.15496 -0.12900
C 	C 	0.57664 0.10144 0.62952 0.40900
C 	C 	0.44597 0.26417 0.66486 0.36000
C 	C 	0.40750 0.29012 0.67426 -0.11800
C 	C 	0.41797 0.33506 0.66822 0.04600
C 	C 	0.38062 0.35649 0.68204 -0.11100
C 	C 	0.33281 0.33299 0.70188 0.04600
C 	C 	0.32234 0.28805 0.70792 -0.11000
C 	C 	0.35969 0.26662 0.69410 0.04100
C 	C 	0.28963 0.35057 0.72688 0.04400
C 	C 	0.29280 0.39922 0.70276 -0.10600
C 	C 	0.25258 0.41418 0.72844 0.02800
C 	C 	0.21053 0.37613 0.78014 -0.10000
C 	C 	0.20581 0.32639 0.80642 0.03300
C 	C 	0.24602 0.31501 0.77858 -0.11000
C 	C 	0.16166 0.28845 0.85828 0.06600
C 	C 	0.11506 0.28886 0.87448 -0.14200
C 	C 	0.07384 0.25084 0.92372 0.07800
C 	C 	0.07749 0.20899 0.96282 -0.15500
C 	C 	0.12526 0.20716 0.94788 0.06300
C 	C 	0.16738 0.24668 0.89464 -0.13000
C 	C 	0.25453 0.46753 0.70314 0.07000
C 	C 	0.29412 0.50352 0.68176 -0.14200
C 	C 	0.29444 0.55314 0.65932 0.08100
C 	C 	0.25701 0.56820 0.65684 -0.15800
C 	C 	0.21674 0.53093 0.67848 0.08300
C 	C 	0.21398 0.48238 0.70204 -0.14200
C 	C 	0.37911 0.74121 0.36658 0.40300
C 	C 	0.44656 0.11279 0.64102 0.34000
C 	C 	0.40645 0.08114 0.64726 -0.09200
C 	C 	0.36098 0.05579 0.69660 0.02000
C 	C 	0.32523 0.02971 0.69854 -0.08900
C 	C 	0.33276 0.02931 0.65308 0.03000
C 	C 	0.37933 0.05343 0.60614 -0.09600
C 	C 	0.41626 0.07936 0.60108 0.02600
C 	C 	0.28921 0.00741 0.65798 0.05800
C 	C 	0.24340 0.01270 0.68540 -0.13400
C 	C 	0.20477 0.99637 0.68606 0.06000
C 	C 	0.20793 0.97093 0.66154 -0.12400
C 	C 	0.25325 0.96565 0.63310 0.04400
C 	C 	0.29370 0.98249 0.63300 -0.11900
C 	C 	0.26101 0.94097 0.60178 0.06500
C 	C 	0.23502 0.89165 0.62996 -0.14800
C 	C 	0.24062 0.87622 0.59556 0.08900
C 	C 	0.27160 0.90211 0.53800 -0.17600
C 	C 	0.29904 0.94969 0.51332 0.08100
C 	C 	0.29277 0.97037 0.54366 -0.13700
C 	C 	0.21876 0.61106 0.50668 0.43100
C 	C 	0.15835 0.00735 0.71390 0.04200
C 	C 	0.15881 0.04811 0.71578 -0.11600
C 	C 	0.11405 0.05905 0.74230 0.06000
C 	C 	0.06842 0.02502 0.76996 -0.16300
C 	C 	0.06491 0.98171 0.77378 0.06600
C 	C 	0.11165 0.97285 0.74470 -0.11000
C 	C 	0.56880 0.21210 0.70600 0.42600
C 	C 	0.03346 0.16816 0.01608 0.43100
C 	C 	0.75021 0.10631 0.80318 0.34600
C 	C 	0.72700 0.08106 0.86574 -0.12200
C 	C 	0.74872 0.05319 0.89002 0.06200
C 	C 	0.73010 0.03333 0.94414 -0.12900
C 	C 	0.68979 0.04266 0.97748 0.06300
C 	C 	0.66615 0.07185 0.95170 -0.12600
C 	C 	0.68538 0.09018 0.89784 0.06000
C 	C 	0.67323 0.02725 0.03534 0.03100
C 	C 	0.71038 0.03428 0.04304 -0.10300
C 	C 	0.69721 0.01808 0.09624 0.02600
C 	C 	0.64567 0.99677 0.14066 -0.09900
C 	C 	0.60845 0.98885 0.13370 0.03100
C 	C 	0.62380 0.00418 0.07944 -0.10700
C 	C 	0.55454 0.96784 0.18132 0.06200
C 	C 	0.53612 0.98282 0.21676 -0.13300
C 	C 	0.48661 0.96351 0.25798 0.05700
C 	C 	0.45360 0.92780 0.26540 -0.13300
C 	C 	0.47408 0.91268 0.23064 0.06800
C 	C 	0.52371 0.92971 0.19038 -0.13700
C 	C 	0.39884 0.90824 0.31032 0.38400
C 	C 	0.73434 0.02354 0.10612 0.06000
C 	C 	0.77824 0.06284 0.06512 -0.13300
C 	C 	0.81693 0.06943 0.07114 0.07300
C 	C 	0.81333 0.03753 0.12074 -0.16100
C 	C 	0.76870 0.99800 0.16240 0.07000
C 	C 	0.73142 0.99032 0.15496 -0.12700
C 	C 	0.79384 0.26904 0.62952 0.40900
C 	C 	0.88917 0.07097 0.66486 0.36000
C 	C 	0.91824 0.03562 0.67426 -0.11800
C 	C 	0.91381 0.99672 0.66822 0.04600
C 	C 	0.93734 0.96147 0.68204 -0.11200
C 	C 	0.96531 0.96513 0.70188 0.04700
C 	C 	0.96974 0.00403 0.70792 -0.11100
C 	C 	0.94621 0.03928 0.69410 0.04100
C 	C 	0.98349 0.92255 0.72688 0.04000
C 	C 	0.00444 0.89802 0.70276 -0.10100
C 	C 	0.01898 0.85738 0.72844 0.02600
C 	C 	0.00933 0.84373 0.78014 -0.09500
C 	C 	0.98777 0.86719 0.80642 0.02800
C 	C 	0.97540 0.90641 0.77858 -0.10600
C 	C 	0.98006 0.85327 0.85828 0.06900
C 	C 	0.01046 0.83666 0.87448 -0.14400
C 	C 	0.00244 0.82544 0.92372 0.08400
C 	C 	0.95969 0.82819 0.96282 -0.16200
C 	C 	0.92686 0.84496 0.94788 0.06700
C 	C 	0.93798 0.85868 0.89464 -0.13400
C 	C 	0.04233 0.82933 0.70314 0.07000
C 	C 	0.02412 0.81472 0.68176 -0.13900
C 	C 	0.04624 0.78754 0.65932 0.07900
C 	C 	0.08615 0.77496 0.65684 -0.15600
C 	C 	0.10478 0.79059 0.67848 0.08200
C 	C 	0.08398 0.81558 0.70204 -0.14200
C 	C 	0.25431 0.89221 0.36658 0.40200
C 	C 	0.91242 0.24619 0.64102 0.34000
C 	C 	0.94629 0.27160 0.64726 -0.09300
C 	C 	0.94242 0.24761 0.69660 0.02100
C 	C 	0.97623 0.27175 0.69854 -0.09000
C 	C 	0.01416 0.31761 0.65308 0.03100
C 	C 	0.01453 0.34043 0.60614 -0.09700
C 	C 	0.98266 0.31956 0.60108 0.02600
C 	C 	0.05281 0.33461 0.65798 0.05700
C 	C 	0.07120 0.30190 0.68540 -0.12900
C 	C 	0.10917 0.31757 0.68606 0.05300
C 	C 	0.13053 0.36753 0.66154 -0.12000
C 	C 	0.11365 0.40125 0.63310 0.04100
C 	C 	0.07330 0.38451 0.63300 -0.11800
C 	C 	0.13721 0.45725 0.60178 0.06800
C 	C 	0.13502 0.47839 0.62996 -0.15000
C 	C 	0.16382 0.52822 0.59556 0.09100
C 	C 	0.19040 0.55989 0.53800 -0.17800
C 	C 	0.18764 0.53699 0.51332 0.08400
C 	C 	0.16357 0.48597 0.54366 -0.14200
C 	C 	0.27456 0.88226 0.50668 0.43000
C 	C 	0.12775 0.27875 0.71390 0.04800
C 	C 	0.12541 0.23611 0.71578 -0.11900
C 	C 	0.14365 0.19865 0.74230 0.06200
C 	C 	0.16162 0.20502 0.76996 -0.16200
C 	C 	0.16131 0.24451 0.77378 0.06500
C 	C 	0.14365 0.28245 0.74470 -0.11500
C 	C 	0.72520 0.08190 0.70600 0.42600
C 	C 	0.95046 0.81576 0.01608 0.43600
C 	C 	0.85631 0.69661 0.30318 0.34400
C 	C 	0.83106 0.65726 0.36574 -0.11600
C 	C 	0.80319 0.61126 0.39002 0.05300
C 	C 	0.78333 0.57576 0.44414 -0.11900
C 	C 	0.79266 0.58273 0.47748 0.04800
C 	C 	0.82185 0.63215 0.45170 -0.11600
C 	C 	0.84018 0.66678 0.39784 0.05200
C 	C 	0.77725 0.54143 0.53534 0.04300
C 	C 	0.78428 0.49658 0.54304 -0.11000
C 	C 	0.76808 0.45655 0.59624 0.03200
C 	C 	0.74677 0.46367 0.64066 -0.10300
C 	C 	0.73885 0.50785 0.63370 0.03100
C 	C 	0.75418 0.54676 0.57944 -0.10800
C 	C 	0.71784 0.51414 0.68132 0.06400
C 	C 	0.73282 0.49712 0.71676 -0.13700
C 	C 	0.71351 0.50541 0.75798 0.06000
C 	C 	0.67780 0.53100 0.76540 -0.13500
C 	C 	0.66268 0.54528 0.73064 0.07000
C 	C 	0.67971 0.53591 0.69038 -0.13800
C 	C 	0.65824 0.54084 0.81032 0.38500
C 	C 	0.77354 0.40954 0.60612 0.05900
C 	C 	0.81284 0.40664 0.56512 -0.13100
C 	C 	0.81943 0.36193 0.57114 0.07100
C 	C 	0.78753 0.31593 0.62074 -0.15800
C 	C 	0.74800 0.31890 0.66240 0.06800
C 	C 	0.74032 0.36362 0.65496 -0.12600
C 	C 	0.01904 0.82664 0.12952 0.41000
C 	C 	0.82097 0.69597 0.16486 0.36000
C 	C 	0.78562 0.65750 0.17426 -0.11800
C 	C 	0.74672 0.66797 0.16822 0.04600
C 	C 	0.71147 0.63062 0.18204 -0.11200
C 	C 	0.71513 0.58281 0.20188 0.04700
C 	C 	0.75403 0.57234 0.20792 -0.11100
C 	C 	0.78928 0.60969 0.19410 0.04100
C 	C 	0.67255 0.53963 0.22688 0.04200
C 	C 	0.64802 0.54280 0.20276 -0.10400
C 	C 	0.60738 0.50258 0.22844 0.02600
C 	C 	0.59373 0.46053 0.28014 -0.09700
C 	C 	0.61719 0.45581 0.30642 0.02800
C 	C 	0.65641 0.49602 0.27858 -0.10700
C 	C 	0.60327 0.41166 0.35828 0.07300
C 	C 	0.58666 0.36506 0.37448 -0.15100
C 	C 	0.57544 0.32384 0.42372 0.08800
C 	C 	0.57819 0.32749 0.46282 -0.17100
C 	C 	0.59496 0.37526 0.44788 0.07300
C 	C 	0.60868 0.41738 0.39464 -0.13900
C 	C 	0.57933 0.50453 0.20314 0.07100
C 	C 	0.56472 0.54412 0.18176 -0.14400
C 	C 	0.53754 0.54444 0.15932 0.08200
C 	C 	0.52496 0.50701 0.15684 -0.15900
C 	C 	0.54059 0.46674 0.17848 0.08400
C 	C 	0.56558 0.46398 0.20204 -0.14400
C 	C 	0.64221 0.62911 0.86658 0.40300
C 	C 	0.99619 0.69656 0.14102 0.33900
C 	C 	0.02160 0.65645 0.14726 -0.09200
C 	C 	0.99761 0.61098 0.19660 0.02000
C 	C 	0.02175 0.57523 0.19854 -0.08800
C 	C 	0.06761 0.58276 0.15308 0.03000
C 	C 	0.09043 0.62933 0.10614 -0.09600
C 	C 	0.06956 0.66626 0.10108 0.02600
C 	C 	0.08461 0.53921 0.15798 0.05800
C 	C 	0.05190 0.49340 0.18540 -0.13100
C 	C 	0.06757 0.45477 0.18606 0.05500
C 	C 	0.11753 0.45793 0.16154 -0.12300
C 	C 	0.15125 0.50325 0.13310 0.04600
C 	C 	0.13451 0.54370 0.13300 -0.12200
C 	C 	0.20725 0.51101 0.10178 0.05700
C 	C 	0.22839 0.48502 0.12996 -0.13900
C 	C 	0.27822 0.49062 0.09556 0.07700
C 	C 	0.30989 0.52160 0.03800 -0.16100
C 	C 	0.28699 0.54904 0.01332 0.05600
C 	C 	0.23597 0.54277 0.04366 -0.12500
C 	C 	0.63226 0.46876 0.00668 0.41500
C 	C 	0.02875 0.40835 0.21390 0.04600
C 	C 	0.98611 0.40881 0.21578 -0.11800
C 	C 	0.94865 0.36405 0.24230 0.06100
C 	C 	0.95502 0.31842 0.26996 -0.16200
C 	C 	0.99451 0.31491 0.27378 0.06500
C 	C 	0.03245 0.36165 0.24470 -0.11400
C 	C 	0.83190 0.81880 0.20600 0.42600
C 	C 	0.56576 0.28346 0.51608 0.44400
C 	C 	0.84051 0.00021 0.30318 0.34300
C 	C 	0.80320 0.97700 0.36574 -0.11600
C 	C 	0.80679 0.99872 0.39002 0.05500
C 	C 	0.77253 0.98010 0.44414 -0.12000
C 	C 	0.72986 0.93979 0.47748 0.04800
C 	C 	0.72645 0.91615 0.45170 -0.11700
C 	C 	0.76198 0.93538 0.39784 0.05200
C 	C 	0.68741 0.92323 0.53534 0.04300
C 	C 	0.67268 0.96038 0.54304 -0.11000
C 	C 	0.63568 0.94721 0.59624 0.03200
C 	C 	0.61257 0.89567 0.64066 -0.10300
C 	C 	0.62745 0.85845 0.63370 0.03100
C 	C 	0.66638 0.87380 0.57944 -0.10800
C 	C 	0.60084 0.80454 0.68132 0.06400
C 	C 	0.55042 0.78612 0.71676 -0.13700
C 	C 	0.52851 0.73661 0.75798 0.06000
C 	C 	0.55680 0.70360 0.76540 -0.13500
C 	C 	0.60668 0.72408 0.73064 0.07000
C 	C 	0.62991 0.77371 0.69038 -0.13800
C 	C 	0.53144 0.64884 0.81032 0.38500
C 	C 	0.62034 0.98434 0.60612 0.06000
C 	C 	0.62204 0.02824 0.56512 -0.13200
C 	C 	0.60943 0.06693 0.57114 0.07100
C 	C 	0.59173 0.06333 0.62074 -0.15800
C 	C 	0.58960 0.01870 0.66240 0.06700
C 	C 	0.60472 0.98142 0.65496 -0.12600
C 	C 	0.85144 0.04384 0.12952 0.41000
C 	C 	0.01417 0.13917 0.16486 0.35800
C 	C 	0.04012 0.16824 0.17426 -0.11700
C 	C 	0.08506 0.16381 0.16822 0.04500
C 	C 	0.10649 0.18734 0.18204 -0.11100
C 	C 	0.08299 0.21531 0.20188 0.04600
C 	C 	0.03805 0.21974 0.20792 -0.10900
C 	C 	0.01662 0.19621 0.19410 0.03800
C 	C 	0.10057 0.23349 0.22688 0.04300
C 	C 	0.14922 0.25444 0.20276 -0.10500
C 	C 	0.16418 0.26898 0.22844 0.02600
C 	C 	0.12613 0.25933 0.28014 -0.09700
C 	C 	0.07639 0.23777 0.30642 0.02900
C 	C 	0.06501 0.22540 0.27858 -0.10800
C 	C 	0.03845 0.23006 0.35828 0.07200
C 	C 	0.03886 0.26046 0.37448 -0.15000
C 	C 	0.00084 0.25244 0.42372 0.08700
C 	C 	0.95899 0.20969 0.46282 -0.17000
C 	C 	0.95716 0.17686 0.44788 0.07200
C 	C 	0.99668 0.18798 0.39464 -0.13700
C 	C 	0.21753 0.29233 0.20314 0.07100
C 	C 	0.25352 0.27412 0.18176 -0.14400
C 	C 	0.30314 0.29624 0.15932 0.08100
C 	C 	0.31820 0.33615 0.15684 -0.15900
C 	C 	0.28093 0.35478 0.17848 0.08400
C 	C 	0.23238 0.33398 0.20204 -0.14400
C 	C 	0.49121 0.50431 0.86658 0.40300
C 	C 	0.86279 0.16242 0.14102 0.34000
C 	C 	0.83114 0.19629 0.14726 -0.09300
C 	C 	0.80579 0.19242 0.19660 0.02100
C 	C 	0.77971 0.22623 0.19854 -0.08900
C 	C 	0.77931 0.26416 0.15308 0.03000
C 	C 	0.80343 0.26453 0.10614 -0.09700
C 	C 	0.82936 0.23266 0.10108 0.02700
C 	C 	0.75741 0.30281 0.15798 0.05800
C 	C 	0.76270 0.32120 0.18540 -0.13000
C 	C 	0.74637 0.35917 0.18606 0.05500
C 	C 	0.72093 0.38053 0.16154 -0.12300
C 	C 	0.71565 0.36365 0.13310 0.04500
C 	C 	0.73249 0.32330 0.13300 -0.12100
C 	C 	0.69097 0.38721 0.10178 0.05800
C 	C 	0.64165 0.38502 0.12996 -0.13900
C 	C 	0.62622 0.41382 0.09556 0.07800
C 	C 	0.65211 0.44040 0.03800 -0.16200
C 	C 	0.69969 0.43764 0.01332 0.05700
C 	C 	0.72037 0.41357 0.04366 -0.12600
C 	C 	0.36106 0.52456 0.00668 0.41400
C 	C 	0.75735 0.37775 0.21390 0.04700
C 	C 	0.79811 0.37541 0.21578 -0.11800
C 	C 	0.80905 0.39365 0.24230 0.06100
C 	C 	0.77502 0.41162 0.26996 -0.16200
C 	C 	0.73171 0.41131 0.27378 0.06500
C 	C 	0.72285 0.39365 0.24470 -0.11400
C 	C 	0.96210 0.97520 0.20600 0.42600
C 	C 	0.91816 0.20046 0.51608 0.44300
O 	O 	0.02418 0.16841 0.71556 -0.44000
O 	O 	0.96031 0.12930 0.72532 -0.40700
O 	O 	0.37745 0.44057 0.19104 -0.45100
O 	O 	0.36678 0.51523 0.15424 -0.45800
O 	O 	0.92080 0.10852 0.91296 -0.49300
O 	O 	0.98451 0.15867 0.82182 -0.50400
O 	O 	0.88443 0.96277 0.85428 -0.46000
O 	O 	0.86075 0.02879 0.82372 -0.38700
O 	O 	0.48021 0.54387 0.11766 -0.48900
O 	O 	0.48622 0.46959 0.13398 -0.45800
O 	O 	0.83174 0.11471 0.90542 -0.46200
O 	O 	0.88517 0.20152 0.68092 -0.38200
O 	O 	0.44327 0.61399 0.04672 -0.49300
O 	O 	0.50686 0.62491 0.96856 -0.51300
O 	O 	0.98468 0.00459 0.82062 -0.50700
O 	O 	0.02821 0.07433 0.79744 -0.50400
O 	O 	0.91929 0.06697 0.84736 -0.93500
O 	O 	0.49434 0.43513 0.06464 -0.91900
O 	O 	0.82923 0.00705 0.97562 -0.51600
O 	O 	0.86818 0.95917 0.95100 -0.50700
O 	O 	0.26026 0.11603 0.71556 -0.44000
O 	O 	0.31437 0.14538 0.72532 -0.40700
O 	O 	0.43151 0.36839 0.19104 -0.45100
O 	O 	0.47898 0.33053 0.15424 -0.45800
O 	O 	0.16624 0.97852 0.91296 -0.49300
O 	O 	0.19367 0.01951 0.82182 -0.50500
O 	O 	0.26129 0.18295 0.85428 -0.46000
O 	O 	0.31553 0.14749 0.82372 -0.38700
O 	O 	0.40213 0.33847 0.11766 -0.48900
O 	O 	0.37980 0.39643 0.13398 -0.45800
O 	O 	0.26284 0.97987 0.90542 -0.46000
O 	O 	0.43391 0.11756 0.68092 -0.38200
O 	O 	0.51001 0.33929 0.04672 -0.49300
O 	O 	0.52458 0.40653 0.96856 -0.51300
O 	O 	0.19470 0.17479 0.82062 -0.50700
O 	O 	0.17435 0.12823 0.79744 -0.50400
O 	O 	0.23335 0.08567 0.84736 -0.93500
O 	O 	0.44102 0.50023 0.06464 -0.91800
O 	O 	0.19515 0.01733 0.97562 -0.51800
O 	O 	0.18082 0.08983 0.95100 -0.50800
O 	O 	0.91841 0.51026 0.21556 -0.44000
O 	O 	0.87930 0.56437 0.22532 -0.40600
O 	O 	0.19057 0.68151 0.69104 -0.45000
O 	O 	0.26523 0.72898 0.65424 -0.45800
O 	O 	0.85852 0.41624 0.41296 -0.49500
O 	O 	0.90867 0.44367 0.32182 -0.50400
O 	O 	0.71277 0.51129 0.35428 -0.46100
O 	O 	0.77879 0.56553 0.32372 -0.38700
O 	O 	0.29387 0.65213 0.61766 -0.48800
O 	O 	0.21959 0.62980 0.63398 -0.45800
O 	O 	0.86471 0.51284 0.40542 -0.46300
O 	O 	0.95152 0.68391 0.18092 -0.38200
O 	O 	0.36399 0.76001 0.54672 -0.48400
O 	O 	0.37491 0.77458 0.46856 -0.50700
O 	O 	0.75459 0.44470 0.32062 -0.50800
O 	O 	0.82433 0.42435 0.29744 -0.50400
O 	O 	0.81697 0.48335 0.34736 -0.93500
O 	O 	0.18513 0.69102 0.56464 -0.91700
O 	O 	0.75705 0.44515 0.47562 -0.51700
O 	O 	0.70917 0.43082 0.45100 -0.50700
O 	O 	0.86603 0.27418 0.21556 -0.44000
O 	O 	0.89538 0.21031 0.22532 -0.40600
O 	O 	0.11839 0.62745 0.69104 -0.45000
O 	O 	0.08053 0.61678 0.65424 -0.45800
O 	O 	0.72852 0.17080 0.41296 -0.49500
O 	O 	0.76951 0.23451 0.32182 -0.50400
O 	O 	0.93295 0.13443 0.35428 -0.46100
O 	O 	0.89749 0.11075 0.32372 -0.38700
O 	O 	0.08847 0.73021 0.61766 -0.48800
O 	O 	0.14643 0.73622 0.63398 -0.45800
O 	O 	0.72987 0.08174 0.40542 -0.46300
O 	O 	0.86756 0.13517 0.18092 -0.38200
O 	O 	0.08929 0.69327 0.54672 -0.48400
O 	O 	0.15653 0.75686 0.46856 -0.50600
O 	O 	0.92479 0.23468 0.32062 -0.50800
O 	O 	0.87823 0.27821 0.29744 -0.50400
O 	O 	0.83567 0.16929 0.34736 -0.93500
O 	O 	0.25023 0.74434 0.56464 -0.91700
O 	O 	0.76733 0.07923 0.47562 -0.51700
O 	O 	0.83983 0.11818 0.45100 -0.50700
O 	O 	0.48974 0.08159 0.78444 -0.44000
O 	O 	0.43563 0.12070 0.77468 -0.40800
O 	O 	0.31849 0.80943 0.30896 -0.45100
O 	O 	0.27102 0.73477 0.34576 -0.45800
O 	O 	0.58376 0.14148 0.58704 -0.49500
O 	O 	0.55633 0.09133 0.67818 -0.50400
O 	O 	0.48871 0.28723 0.64572 -0.46100
O 	O 	0.43447 0.22121 0.67628 -0.38700
O 	O 	0.34787 0.70613 0.38234 -0.48800
O 	O 	0.37020 0.78041 0.36602 -0.45800
O 	O 	0.48716 0.13529 0.59458 -0.46300
O 	O 	0.31609 0.04848 0.81908 -0.38100
O 	O 	0.23999 0.63601 0.45328 -0.48400
O 	O 	0.22542 0.62509 0.53144 -0.50700
O 	O 	0.55530 0.24541 0.67938 -0.50800
O 	O 	0.57565 0.17567 0.70256 -0.50400
O 	O 	0.51665 0.18303 0.65264 -0.93500
O 	O 	0.30898 0.81487 0.43536 -0.91700
O 	O 	0.55485 0.24295 0.52438 -0.51700
O 	O 	0.56918 0.29083 0.54900 -0.50700
O 	O 	0.72582 0.13397 0.78444 -0.44000
O 	O 	0.78969 0.10462 0.77468 -0.40800
O 	O 	0.37255 0.88161 0.30896 -0.45100
O 	O 	0.38322 0.91947 0.34576 -0.45800
O 	O 	0.82920 0.27148 0.58704 -0.49500
O 	O 	0.76549 0.23049 0.67818 -0.50400
O 	O 	0.86557 0.06705 0.64572 -0.46100
O 	O 	0.88925 0.10251 0.67628 -0.38700
O 	O 	0.26979 0.91153 0.38234 -0.48800
O 	O 	0.26378 0.85357 0.36602 -0.45800
O 	O 	0.91826 0.27013 0.59458 -0.46300
O 	O 	0.86483 0.13244 0.81908 -0.38200
O 	O 	0.30673 0.91071 0.45328 -0.48400
O 	O 	0.24314 0.84347 0.53144 -0.50600
O 	O 	0.76532 0.07521 0.67938 -0.50800
O 	O 	0.72179 0.12177 0.70256 -0.50400
O 	O 	0.83071 0.16433 0.65264 -0.93500
O 	O 	0.25566 0.74977 0.43536 -0.91700
O 	O 	0.92077 0.23267 0.52438 -0.51700
O 	O 	0.88182 0.16017 0.54900 -0.50700
O 	O 	0.88397 0.73974 0.28444 -0.44000
O 	O 	0.85462 0.68563 0.27468 -0.40700
O 	O 	0.63161 0.56849 0.80896 -0.45100
O 	O 	0.66947 0.52102 0.84576 -0.45800
O 	O 	0.02148 0.83376 0.08704 -0.49600
O 	O 	0.98049 0.80633 0.17818 -0.50500
O 	O 	0.81705 0.73871 0.14572 -0.46100
O 	O 	0.85251 0.68447 0.17628 -0.38700
O 	O 	0.66153 0.59787 0.88234 -0.48700
O 	O 	0.60357 0.62020 0.86602 -0.45700
O 	O 	0.02013 0.73716 0.09458 -0.46400
O 	O 	0.88244 0.56609 0.31908 -0.38200
O 	O 	0.66071 0.48999 0.95328 -0.47500
O 	O 	0.59347 0.47542 0.03144 -0.50100
O 	O 	0.82521 0.80530 0.17938 -0.50800
O 	O 	0.87177 0.82565 0.20256 -0.50400
O 	O 	0.91433 0.76665 0.15264 -0.93600
O 	O 	0.49977 0.55898 0.93536 -0.91500
O 	O 	0.98267 0.80485 0.02438 -0.51800
O 	O 	0.91017 0.81918 0.04900 -0.50700
O 	O 	0.83159 0.97582 0.28444 -0.43900
O 	O 	0.87070 0.03969 0.27468 -0.40700
O 	O 	0.55943 0.62255 0.80896 -0.45100
O 	O 	0.48477 0.63322 0.84576 -0.45800
O 	O 	0.89148 0.07920 0.08704 -0.49700
O 	O 	0.84133 0.01549 0.17818 -0.50500
O 	O 	0.03723 0.11557 0.14572 -0.46100
O 	O 	0.97121 0.13925 0.17628 -0.38600
O 	O 	0.45613 0.51979 0.88234 -0.48700
O 	O 	0.53041 0.51378 0.86602 -0.45700
O 	O 	0.88529 0.16826 0.09458 -0.46500
O 	O 	0.79848 0.11483 0.31908 -0.38200
O 	O 	0.38601 0.55673 0.95328 -0.47500
O 	O 	0.37509 0.49314 0.03144 -0.50000
O 	O 	0.99541 0.01532 0.17938 -0.50800
O 	O 	0.92567 0.97179 0.20256 -0.50400
O 	O 	0.93303 0.08071 0.15264 -0.93500
O 	O 	0.56487 0.50566 0.93536 -0.91500
O 	O 	0.99295 0.17077 0.02438 -0.51600
O 	O 	0.04083 0.13182 0.04900 -0.50600
