data_crystal

_cell_length_a 12.26180
_cell_length_b 25.73280
_cell_length_c 25.73280
_cell_angle_alpha 62.47360
_cell_angle_beta  80.86070
_cell_angle_gamma 99.13930

_symmetry_space_group_name_	'P 1'
_symmetry_space_group_name_H-M	'P 1'

loop_
_symmetry_equiv_pos_as_xyz
  x,y,z

loop_
_atom_site_label
_atom_site_type_symbol
_atom_site_fract_x
_atom_site_fract_y
_atom_site_fract_z
_atom_site_charge
Cu	Cu	0.59513 0.54069 0.45931 0.90500
Cu	Cu	0.05444 0.45931 -0.00000 0.88700
Cu	Cu	0.05444 1.00000 0.54069 0.90700
Cu	Cu	0.94556 0.00000 0.45931 0.90500
Cu	Cu	0.94556 0.54069 -0.00000 0.88900
Cu	Cu	0.40487 0.45931 0.54069 0.90700
H 	H 	0.48380 0.43085 0.70490 0.04600
H 	H 	0.79192 0.55983 0.57239 0.04100
H 	H 	0.18869 0.70490 0.86426 0.04900
H 	H 	0.36564 0.57263 0.86731 0.04500
H 	H 	0.05295 0.86425 0.43085 0.04400
H 	H 	0.23295 0.86731 0.56007 0.04100
H 	H 	0.81131 0.86426 0.70490 0.04700
H 	H 	0.63569 0.86778 0.57239 0.04100
H 	H 	0.94705 0.43085 0.86425 0.05000
H 	H 	0.76705 0.56007 0.86731 0.04600
H 	H 	0.51620 0.70490 0.43085 0.04400
H 	H 	0.20699 0.57263 0.56007 0.04100
H 	H 	0.51620 0.56915 0.29510 0.04300
H 	H 	0.20699 0.43993 0.42737 0.04100
H 	H 	0.81131 0.29510 0.13574 0.04100
H 	H 	0.63569 0.42761 0.13222 0.03700
H 	H 	0.94705 0.13575 0.56915 0.04600
H 	H 	0.76705 0.13269 0.43993 0.04000
H 	H 	0.18869 0.13574 0.29510 0.04300
H 	H 	0.36564 0.13269 0.42737 0.04000
H 	H 	0.05295 0.56915 0.13575 0.04000
H 	H 	0.23295 0.43993 0.13269 0.03600
H 	H 	0.48380 0.29510 0.56915 0.04600
H 	H 	0.79301 0.42737 0.43993 0.04100
C 	C 	0.63286 0.49707 0.63394 -0.10500
C 	C 	0.57286 0.46143 0.69265 0.03400
C 	C 	0.61569 0.46027 0.74000 -0.05000
C 	C 	0.72349 0.49457 0.72795 0.02600
C 	C 	0.78464 0.52979 0.66867 -0.06000
C 	C 	0.73874 0.53050 0.62168 0.03400
C 	C 	0.58328 0.49731 0.58369 0.37400
C 	C 	0.56010 0.41390 0.80160 0.09500
C 	C 	0.26680 0.63394 0.86899 -0.10000
C 	C 	0.26551 0.69265 0.84592 0.03400
C 	C 	0.35569 0.74000 0.79973 -0.04800
C 	C 	0.45144 0.72795 0.77748 0.02600
C 	C 	0.45331 0.66867 0.80154 -0.05800
C 	C 	0.36042 0.62168 0.84782 0.03400
C 	C 	0.16697 0.58369 0.91900 0.37100
C 	C 	0.36170 0.80160 0.78450 0.09600
C 	C 	0.13579 0.86899 0.49707 -0.10600
C 	C 	0.11143 0.84592 0.46143 0.03300
C 	C 	0.15542 0.79973 0.46027 -0.05100
C 	C 	0.22892 0.77748 0.49457 0.02600
C 	C 	0.25485 0.80154 0.52979 -0.06000
C 	C 	0.20824 0.84782 0.53050 0.03400
C 	C 	0.08597 0.91900 0.49731 0.37400
C 	C 	0.14620 0.78450 0.41390 0.09100
C 	C 	0.73320 0.86899 0.63394 -0.10400
C 	C 	0.73449 0.84592 0.69265 0.03400
C 	C 	0.64431 0.79973 0.74000 -0.04900
C 	C 	0.54856 0.77748 0.72795 0.02600
C 	C 	0.54669 0.80154 0.66867 -0.06000
C 	C 	0.63958 0.84782 0.62168 0.03400
C 	C 	0.83303 0.91900 0.58369 0.37400
C 	C 	0.63830 0.78450 0.80160 0.09600
C 	C 	0.86421 0.49707 0.86899 -0.09900
C 	C 	0.88857 0.46143 0.84592 0.03400
C 	C 	0.84458 0.46027 0.79973 -0.04800
C 	C 	0.77108 0.49457 0.77748 0.02600
C 	C 	0.74515 0.52979 0.80154 -0.05800
C 	C 	0.79176 0.53050 0.84782 0.03400
C 	C 	0.91403 0.49731 0.91900 0.37100
C 	C 	0.85380 0.41390 0.78450 0.09600
C 	C 	0.36714 0.63394 0.49707 -0.10600
C 	C 	0.42714 0.69265 0.46143 0.03300
C 	C 	0.38431 0.74000 0.46027 -0.05000
C 	C 	0.27651 0.72795 0.49457 0.02600
C 	C 	0.21536 0.66867 0.52979 -0.06000
C 	C 	0.26126 0.62168 0.53050 0.03400
C 	C 	0.41672 0.58369 0.49731 0.37400
C 	C 	0.43990 0.80160 0.41390 0.09100
C 	C 	0.36714 0.50293 0.36606 -0.10600
C 	C 	0.42714 0.53857 0.30735 0.03300
C 	C 	0.38431 0.53973 0.26000 -0.05100
C 	C 	0.27651 0.50543 0.27205 0.02500
C 	C 	0.21536 0.47021 0.33133 -0.06000
C 	C 	0.26126 0.46950 0.37832 0.03300
C 	C 	0.41672 0.50269 0.41631 0.37400
C 	C 	0.43990 0.58610 0.19840 0.08900
C 	C 	0.73320 0.36606 0.13101 -0.11000
C 	C 	0.73449 0.30735 0.15408 0.03200
C 	C 	0.64431 0.26000 0.20027 -0.05200
C 	C 	0.54856 0.27205 0.22252 0.02500
C 	C 	0.54669 0.33133 0.19846 -0.06200
C 	C 	0.63958 0.37832 0.15218 0.03300
C 	C 	0.83303 0.41631 0.08100 0.37400
C 	C 	0.63830 0.19840 0.21550 0.08900
C 	C 	0.86421 0.13101 0.50293 -0.10600
C 	C 	0.88857 0.15408 0.53857 0.03400
C 	C 	0.84458 0.20027 0.53973 -0.05000
C 	C 	0.77108 0.22252 0.50543 0.02600
C 	C 	0.74515 0.19846 0.47021 -0.06000
C 	C 	0.79176 0.15218 0.46950 0.03400
C 	C 	0.91403 0.08100 0.50269 0.37400
C 	C 	0.85380 0.21550 0.58610 0.09300
C 	C 	0.26680 0.13101 0.36606 -0.10600
C 	C 	0.26551 0.15408 0.30735 0.03300
C 	C 	0.35569 0.20027 0.26000 -0.05100
C 	C 	0.45144 0.22252 0.27205 0.02500
C 	C 	0.45331 0.19846 0.33133 -0.06000
C 	C 	0.36042 0.15218 0.37832 0.03400
C 	C 	0.16697 0.08100 0.41631 0.37400
C 	C 	0.36170 0.21550 0.19840 0.08900
C 	C 	0.13579 0.50293 0.13101 -0.11000
C 	C 	0.11143 0.53857 0.15408 0.03300
C 	C 	0.15542 0.53973 0.20027 -0.05200
C 	C 	0.22892 0.50543 0.22252 0.02600
C 	C 	0.25485 0.47021 0.19846 -0.06200
C 	C 	0.20824 0.46950 0.15218 0.03300
C 	C 	0.08597 0.50269 0.08100 0.37400
C 	C 	0.14620 0.58610 0.21550 0.08900
C 	C 	0.63286 0.36606 0.50293 -0.10500
C 	C 	0.57286 0.30735 0.53857 0.03400
C 	C 	0.61569 0.26000 0.53973 -0.05000
C 	C 	0.72349 0.27205 0.50543 0.02600
C 	C 	0.78464 0.33133 0.47021 -0.06000
C 	C 	0.73874 0.37832 0.46950 0.03400
C 	C 	0.58328 0.41631 0.50269 0.37400
C 	C 	0.56010 0.19840 0.58610 0.09300
N 	N 	0.51120 0.37860 0.85300 -0.10300
N 	N 	0.36420 0.85300 0.76840 -0.10600
N 	N 	0.13260 0.76840 0.37860 -0.11200
N 	N 	0.63580 0.76840 0.85300 -0.10200
N 	N 	0.86740 0.37860 0.76840 -0.10600
N 	N 	0.48880 0.85300 0.37860 -0.11100
N 	N 	0.48880 0.62140 0.14700 -0.11600
N 	N 	0.63580 0.14700 0.23160 -0.11300
N 	N 	0.86740 0.23160 0.62140 -0.10700
N 	N 	0.36420 0.23160 0.14700 -0.11700
N 	N 	0.13260 0.62140 0.23160 -0.11300
N 	N 	0.51120 0.14700 0.62140 -0.10800
O 	O 	0.64543 0.53164 0.53093 -0.41100
O 	O 	0.48517 0.46333 0.59954 -0.40800
O 	O 	0.17636 0.53093 0.93743 -0.39200
O 	O 	0.08471 0.59954 0.93713 -0.39100
O 	O 	0.11379 0.93743 0.53164 -0.41000
O 	O 	0.02184 0.93713 0.46333 -0.40900
O 	O 	0.82364 0.93743 0.53093 -0.40900
O 	O 	0.91529 0.93713 0.59954 -0.40600
O 	O 	0.88621 0.53164 0.93743 -0.39100
O 	O 	0.97816 0.46333 0.93713 -0.38900
O 	O 	0.35457 0.53093 0.53164 -0.41100
O 	O 	0.51483 0.59954 0.46333 -0.41000
O 	O 	0.35457 0.46836 0.46907 -0.41100
O 	O 	0.51483 0.53667 0.40046 -0.41000
O 	O 	0.82364 0.46907 0.06257 -0.42100
O 	O 	0.91529 0.40046 0.06287 -0.41900
O 	O 	0.88621 0.06257 0.46836 -0.41200
O 	O 	0.97816 0.06287 0.53667 -0.41000
O 	O 	0.17636 0.06257 0.46907 -0.41200
O 	O 	0.08471 0.06287 0.40046 -0.41100
O 	O 	0.11379 0.46836 0.06257 -0.42100
O 	O 	0.02184 0.53667 0.06287 -0.42000
O 	O 	0.64543 0.46907 0.46836 -0.41100
O 	O 	0.48517 0.40046 0.53667 -0.40900
H 	H 	0.87471 0.55940 0.65640 0.04800
H 	H 	0.53111 0.65640 0.78420 0.04900
H 	H 	0.31531 0.78420 0.55940 0.04800
H 	H 	0.46889 0.78420 0.65640 0.04800
H 	H 	0.68469 0.55940 0.78420 0.04900
H 	H 	0.12529 0.65640 0.55940 0.04700
H 	H 	0.12529 0.44060 0.34360 0.04700
H 	H 	0.46889 0.34360 0.21580 0.04600
H 	H 	0.68469 0.21580 0.44060 0.04700
H 	H 	0.53111 0.21580 0.34360 0.04700
H 	H 	0.31531 0.44060 0.21580 0.04600
H 	H 	0.87471 0.34360 0.44060 0.04800
