data_crystal

_cell_length_a 30.17860
_cell_length_b 39.40190
_cell_length_c 26.50770
_cell_angle_alpha 90.00000
_cell_angle_beta  120.93100
_cell_angle_gamma 90.00000

_symmetry_space_group_name_	'P 1'
_symmetry_space_group_name_H-M	'P 1'

loop_
_symmetry_equiv_pos_as_xyz
  x,y,z

loop_
_atom_site_label
_atom_site_type_symbol
_atom_site_fract_x
_atom_site_fract_y
_atom_site_fract_z
_atom_site_charge
Cu	Cu	0.11461 0.27343 0.62683 0.92100
Cu	Cu	0.14620 0.22044 0.70021 0.92100
I 	I 	0.28962 0.30109 0.98953 -0.08600
I 	I 	0.20690 0.42150 0.81220 -0.07400
I 	I 	0.36185 0.38087 0.91656 -0.07400
I 	I 	0.16631 0.37847 0.94796 -0.08000
I 	I 	0.59761 0.37615 0.36844 -0.07500
I 	I 	0.57534 0.42319 0.50230 -0.08500
I 	I 	0.40597 0.18577 0.75430 -0.08100
I 	I 	0.31462 0.28931 0.55110 -0.06400
I 	I 	0.44546 0.29866 0.77245 -0.07600
I 	I 	0.35135 0.19414 0.55918 -0.08000
O 	O 	0.14717 0.29978 0.69962 -0.39400
O 	O 	0.17541 0.25586 0.76117 -0.38800
O 	O 	0.31741 0.46489 0.10401 -0.39400
O 	O 	0.38609 0.46505 0.09331 -0.40200
O 	O 	0.45111 0.46516 0.21351 -0.40000
O 	O 	0.38191 0.46497 0.22398 -0.39800
O 	O 	0.61294 0.30472 0.62553 -0.40700
O 	O 	0.58566 0.26051 0.56459 -0.39700
O 	O 	0.18330 0.26594 0.63648 -0.39500
O 	O 	0.20988 0.22234 0.69747 -0.40000
O 	O 	0.57955 0.27318 0.69435 -0.40000
O 	O 	0.55157 0.22942 0.63149 -0.38800
C 	C 	0.19630 0.31142 0.80070 -0.02100
C 	C 	0.22330 0.29937 0.85780 -0.06900
H 	H 	0.22540 0.27590 0.86490 0.08700
C 	C 	0.24700 0.32138 0.90410 0.06600
C 	C 	0.24380 0.35632 0.89420 -0.01600
C 	C 	0.21570 0.36803 0.83730 0.06200
C 	C 	0.19290 0.34536 0.79120 -0.06700
H 	H 	0.17470 0.35360 0.75250 0.08600
C 	C 	0.17141 0.28696 0.74960 0.34200
C 	C 	0.31750 0.42831 0.03367 -0.02800
C 	C 	0.26920 0.41651 0.01660 -0.06700
H 	H 	0.25220 0.42480 0.03530 0.08200
C 	C 	0.24480 0.39276 0.97250 0.05700
C 	C 	0.26990 0.38142 0.94410 -0.01200
C 	C 	0.31840 0.39398 0.96070 0.05900
C 	C 	0.34320 0.41703 0.00600 -0.06300
H 	H 	0.37650 0.42490 0.01770 0.08500
C 	C 	0.34270 0.45509 0.08113 0.34500
C 	C 	0.45240 0.42922 0.28446 -0.06000
C 	C 	0.50020 0.41721 0.30100 -0.03700
H 	H 	0.51680 0.42450 0.28110 0.07700
C 	C 	0.52490 0.39404 0.34730 0.04300
C 	C 	0.50223 0.38281 0.37764 0.01200
C 	C 	0.45310 0.39498 0.35940 -0.06300
H 	H 	0.43600 0.38710 0.37850 0.06600
C 	C 	0.42860 0.41811 0.31450 0.00500
H 	H 	0.39580 0.42640 0.30420 0.05000
C 	C 	0.42640 0.45536 0.23680 0.35000
C 	C 	0.56982 0.31509 0.52414 -0.07100
C 	C 	0.57957 0.34923 0.53326 -0.03000
H 	H 	0.60030 0.35760 0.57170 0.06600
C 	C 	0.55869 0.37169 0.48546 0.03700
C 	C 	0.52748 0.35956 0.42862 0.02100
C 	C 	0.51824 0.32516 0.42063 -0.07300
H 	H 	0.49750 0.31660 0.38230 0.07400
C 	C 	0.53867 0.30291 0.46741 0.01500
H 	H 	0.53150 0.27960 0.46090 0.05200
C 	C 	0.59135 0.29175 0.57584 0.36100
C 	C 	0.26559 0.24379 0.66820 -0.02800
C 	C 	0.30440 0.22233 0.70240 -0.06000
H 	H 	0.30040 0.20720 0.72730 0.08400
C 	C 	0.34950 0.22204 0.70170 0.06300
C 	C 	0.35850 0.24451 0.66940 -0.01100
C 	C 	0.32020 0.26850 0.63810 0.05700
C 	C 	0.27400 0.26699 0.63600 -0.05800
H 	H 	0.24760 0.28230 0.61190 0.08700
C 	C 	0.21534 0.24361 0.66770 0.36100
C 	C 	0.49796 0.24896 0.66530 -0.02500
C 	C 	0.45970 0.22782 0.62910 -0.06200
H 	H 	0.46420 0.21360 0.60360 0.08100
C 	C 	0.41330 0.22670 0.62910 0.05700
C 	C 	0.40740 0.24585 0.66870 -0.01000
C 	C 	0.44720 0.26750 0.70540 0.05900
C 	C 	0.49210 0.26886 0.70250 -0.06500
H 	H 	0.51860 0.28400 0.72700 0.08200
C 	C 	0.54757 0.25080 0.66400 0.33500
N 	N 	0.09617 0.31608 0.57012 -0.19600
C 	C 	0.10270 0.34680 0.58460 0.08600
C 	C 	0.09510 0.37690 0.55710 -0.02400
C 	C 	0.09190 0.37280 0.50330 -0.00900
C 	C 	0.09950 0.33970 0.48860 0.00600
C 	C 	0.10330 0.31150 0.52340 0.04500
C 	C 	0.06740 0.37000 0.49760 0.03400
C 	C 	0.03740 0.34010 0.47750 -0.01900
C 	C 	0.05200 0.31250 0.51620 0.04000
N 	N 	0.16618 0.17775 0.75729 -0.22200
C 	C 	0.18160 0.14860 0.74440 0.11700
H 	H 	0.18430 0.14680 0.71070 0.00300
C 	C 	0.19350 0.12100 0.78280 -0.20400
H 	H 	0.20130 0.10010 0.77220 0.10700
C 	C 	0.19420 0.12280 0.83300 0.19000
H 	H 	0.21220 0.10760 0.86440 -0.02300
C 	C 	0.16750 0.14760 0.83340 -0.25100
H 	H 	0.15250 0.14640 0.85690 0.13200
C 	C 	0.16010 0.17590 0.80040 0.18000
H 	H 	0.14970 0.19580 0.81100 -0.01300
C 	C 	0.25510 0.47200 0.18570 0.07700
H 	H 	0.26740 0.45100 0.18090 0.01300
C 	C 	0.21640 0.46940 0.20030 -0.14000
H 	H 	0.20460 0.44880 0.20690 0.09000
Cu	Cu	0.61461 0.77343 0.62683 0.92200
Cu	Cu	0.64620 0.72044 0.70021 0.92200
I 	I 	0.78962 0.80109 0.98953 -0.08500
I 	I 	0.70690 0.92150 0.81220 -0.07000
I 	I 	0.86185 0.88087 0.91656 -0.07200
I 	I 	0.66631 0.87847 0.94796 -0.07700
I 	I 	0.09761 0.87615 0.36844 -0.07300
I 	I 	0.07534 0.92319 0.50230 -0.08100
I 	I 	0.90597 0.68577 0.75430 -0.07900
I 	I 	0.81462 0.78931 0.55110 -0.06300
I 	I 	0.94546 0.79866 0.77245 -0.07400
I 	I 	0.85135 0.69414 0.55918 -0.07900
O 	O 	0.64717 0.79978 0.69962 -0.39300
O 	O 	0.67541 0.75586 0.76117 -0.38700
O 	O 	0.81741 0.96489 0.10401 -0.39000
O 	O 	0.88609 0.96505 0.09331 -0.39800
O 	O 	0.95111 0.96516 0.21351 -0.39600
O 	O 	0.88191 0.96497 0.22398 -0.39400
O 	O 	0.11294 0.80472 0.62553 -0.40600
O 	O 	0.08566 0.76051 0.56459 -0.39600
O 	O 	0.68330 0.76594 0.63648 -0.39400
O 	O 	0.70988 0.72234 0.69747 -0.39900
O 	O 	0.07955 0.77318 0.69435 -0.39900
O 	O 	0.05157 0.72942 0.63149 -0.38700
C 	C 	0.69630 0.81142 0.80070 -0.02000
C 	C 	0.72330 0.79937 0.85780 -0.06800
H 	H 	0.72540 0.77590 0.86490 0.08800
C 	C 	0.74700 0.82138 0.90410 0.06700
C 	C 	0.74380 0.85632 0.89420 -0.01400
C 	C 	0.71570 0.86803 0.83730 0.06300
C 	C 	0.69290 0.84536 0.79120 -0.06500
H 	H 	0.67470 0.85360 0.75250 0.08700
C 	C 	0.67141 0.78696 0.74960 0.34300
C 	C 	0.81750 0.92831 0.03367 -0.02600
C 	C 	0.76920 0.91651 0.01660 -0.06700
H 	H 	0.75220 0.92480 0.03530 0.08400
C 	C 	0.74480 0.89276 0.97250 0.05900
C 	C 	0.76990 0.88142 0.94410 -0.01100
C 	C 	0.81840 0.89398 0.96070 0.05900
C 	C 	0.84320 0.91703 0.00600 -0.06400
H 	H 	0.87650 0.92490 0.01770 0.08600
C 	C 	0.84270 0.95509 0.08113 0.34500
C 	C 	0.95240 0.92922 0.28446 -0.06000
C 	C 	0.00020 0.91721 0.30100 -0.03700
H 	H 	0.01680 0.92450 0.28110 0.07800
C 	C 	0.02490 0.89404 0.34730 0.04400
C 	C 	0.00223 0.88281 0.37764 0.01100
C 	C 	0.95310 0.89498 0.35940 -0.06200
H 	H 	0.93600 0.88710 0.37850 0.06600
C 	C 	0.92860 0.91811 0.31450 0.00500
H 	H 	0.89580 0.92640 0.30420 0.05100
C 	C 	0.92640 0.95536 0.23680 0.34900
C 	C 	0.06982 0.81509 0.52414 -0.07100
C 	C 	0.07957 0.84923 0.53326 -0.03000
H 	H 	0.10030 0.85760 0.57170 0.06600
C 	C 	0.05869 0.87169 0.48546 0.03700
C 	C 	0.02748 0.85956 0.42862 0.02100
C 	C 	0.01824 0.82516 0.42063 -0.07300
H 	H 	0.99750 0.81660 0.38230 0.07400
C 	C 	0.03867 0.80291 0.46741 0.01500
H 	H 	0.03150 0.77960 0.46090 0.05200
C 	C 	0.09135 0.79175 0.57584 0.36100
C 	C 	0.76559 0.74379 0.66820 -0.02800
C 	C 	0.80440 0.72233 0.70240 -0.06000
H 	H 	0.80040 0.70720 0.72730 0.08400
C 	C 	0.84950 0.72204 0.70170 0.06300
C 	C 	0.85850 0.74451 0.66940 -0.01100
C 	C 	0.82020 0.76850 0.63810 0.05700
C 	C 	0.77400 0.76699 0.63600 -0.05800
H 	H 	0.74760 0.78230 0.61190 0.08700
C 	C 	0.71534 0.74361 0.66770 0.36100
C 	C 	0.99796 0.74896 0.66530 -0.02500
C 	C 	0.95970 0.72782 0.62910 -0.06200
H 	H 	0.96420 0.71360 0.60360 0.08200
C 	C 	0.91330 0.72670 0.62910 0.05700
C 	C 	0.90740 0.74585 0.66870 -0.01000
C 	C 	0.94720 0.76750 0.70540 0.05800
C 	C 	0.99210 0.76886 0.70250 -0.06400
H 	H 	0.01860 0.78400 0.72700 0.08200
C 	C 	0.04757 0.75080 0.66400 0.33500
N 	N 	0.59617 0.81608 0.57012 -0.19600
C 	C 	0.60270 0.84680 0.58460 0.08600
C 	C 	0.59510 0.87690 0.55710 -0.02400
C 	C 	0.59190 0.87280 0.50330 -0.01100
C 	C 	0.59950 0.83970 0.48860 0.00700
C 	C 	0.60330 0.81150 0.52340 0.04500
C 	C 	0.56740 0.87000 0.49760 0.03600
C 	C 	0.53740 0.84010 0.47750 -0.02000
C 	C 	0.55200 0.81250 0.51620 0.04000
N 	N 	0.66618 0.67775 0.75729 -0.22200
C 	C 	0.68160 0.64860 0.74440 0.11700
H 	H 	0.68430 0.64680 0.71070 0.00300
C 	C 	0.69350 0.62100 0.78280 -0.20400
H 	H 	0.70130 0.60010 0.77220 0.10700
C 	C 	0.69420 0.62280 0.83300 0.19000
H 	H 	0.71220 0.60760 0.86440 -0.02300
C 	C 	0.66750 0.64760 0.83340 -0.25100
H 	H 	0.65250 0.64640 0.85690 0.13200
C 	C 	0.66010 0.67590 0.80040 0.18000
H 	H 	0.64970 0.69580 0.81100 -0.01300
C 	C 	0.75510 0.97200 0.18570 0.07900
H 	H 	0.76740 0.95100 0.18090 0.01300
C 	C 	0.71640 0.96940 0.20030 -0.12500
H 	H 	0.70460 0.94880 0.20690 0.08600
Cu	Cu	0.11461 0.72657 0.62683 0.92200
Cu	Cu	0.14620 0.77956 0.70021 0.92200
I 	I 	0.28962 0.69891 0.98953 -0.08500
I 	I 	0.20690 0.57850 0.81220 -0.07300
I 	I 	0.36185 0.61913 0.91656 -0.07300
I 	I 	0.16631 0.62153 0.94796 -0.07900
I 	I 	0.59761 0.62385 0.36844 -0.07400
I 	I 	0.57534 0.57681 0.50230 -0.08400
I 	I 	0.40597 0.81423 0.75430 -0.07800
I 	I 	0.31462 0.71069 0.55110 -0.06300
I 	I 	0.44546 0.70134 0.77245 -0.07500
I 	I 	0.35135 0.80586 0.55918 -0.07900
O 	O 	0.14717 0.70022 0.69962 -0.39300
O 	O 	0.17541 0.74414 0.76117 -0.38700
O 	O 	0.31741 0.53511 0.10401 -0.39300
O 	O 	0.38609 0.53495 0.09331 -0.40100
O 	O 	0.45111 0.53484 0.21351 -0.39900
O 	O 	0.38191 0.53503 0.22398 -0.39700
O 	O 	0.61294 0.69528 0.62553 -0.40600
O 	O 	0.58566 0.73949 0.56459 -0.39600
O 	O 	0.18330 0.73406 0.63648 -0.39400
O 	O 	0.20988 0.77766 0.69747 -0.39900
O 	O 	0.57955 0.72682 0.69435 -0.39900
O 	O 	0.55157 0.77058 0.63149 -0.38700
C 	C 	0.19630 0.68858 0.80070 -0.02000
C 	C 	0.22330 0.70063 0.85780 -0.06800
H 	H 	0.22540 0.72410 0.86490 0.08800
C 	C 	0.24700 0.67862 0.90410 0.06700
C 	C 	0.24380 0.64368 0.89420 -0.01500
C 	C 	0.21570 0.63197 0.83730 0.06300
C 	C 	0.19290 0.65464 0.79120 -0.06600
H 	H 	0.17470 0.64640 0.75250 0.08700
C 	C 	0.17141 0.71304 0.74960 0.34300
C 	C 	0.31750 0.57169 0.03367 -0.02700
C 	C 	0.26920 0.58349 0.01660 -0.06600
H 	H 	0.25220 0.57520 0.03530 0.08300
C 	C 	0.24480 0.60724 0.97250 0.05800
C 	C 	0.26990 0.61858 0.94410 -0.01100
C 	C 	0.31840 0.60602 0.96070 0.05900
C 	C 	0.34320 0.58297 0.00600 -0.06300
H 	H 	0.37650 0.57510 0.01770 0.08500
C 	C 	0.34270 0.54491 0.08113 0.34500
C 	C 	0.45240 0.57078 0.28446 -0.06000
C 	C 	0.50020 0.58279 0.30100 -0.03700
H 	H 	0.51680 0.57550 0.28110 0.07700
C 	C 	0.52490 0.60596 0.34730 0.04300
C 	C 	0.50223 0.61719 0.37764 0.01200
C 	C 	0.45310 0.60502 0.35940 -0.06300
H 	H 	0.43600 0.61290 0.37850 0.06600
C 	C 	0.42860 0.58189 0.31450 0.00500
H 	H 	0.39580 0.57360 0.30420 0.05000
C 	C 	0.42640 0.54464 0.23680 0.35000
C 	C 	0.56982 0.68491 0.52414 -0.07100
C 	C 	0.57957 0.65077 0.53326 -0.03000
H 	H 	0.60030 0.64240 0.57170 0.06600
C 	C 	0.55869 0.62831 0.48546 0.03700
C 	C 	0.52748 0.64044 0.42862 0.02100
C 	C 	0.51824 0.67484 0.42063 -0.07300
H 	H 	0.49750 0.68340 0.38230 0.07400
C 	C 	0.53867 0.69709 0.46741 0.01500
H 	H 	0.53150 0.72040 0.46090 0.05200
C 	C 	0.59135 0.70825 0.57584 0.36100
C 	C 	0.26559 0.75621 0.66820 -0.02800
C 	C 	0.30440 0.77767 0.70240 -0.06000
H 	H 	0.30040 0.79280 0.72730 0.08400
C 	C 	0.34950 0.77796 0.70170 0.06300
C 	C 	0.35850 0.75549 0.66940 -0.01100
C 	C 	0.32020 0.73150 0.63810 0.05700
C 	C 	0.27400 0.73301 0.63600 -0.05800
H 	H 	0.24760 0.71770 0.61190 0.08700
C 	C 	0.21534 0.75639 0.66770 0.36100
C 	C 	0.49796 0.75104 0.66530 -0.02500
C 	C 	0.45970 0.77218 0.62910 -0.06200
H 	H 	0.46420 0.78640 0.60360 0.08200
C 	C 	0.41330 0.77330 0.62910 0.05700
C 	C 	0.40740 0.75415 0.66870 -0.01000
C 	C 	0.44720 0.73250 0.70540 0.05900
C 	C 	0.49210 0.73114 0.70250 -0.06500
H 	H 	0.51860 0.71600 0.72700 0.08200
C 	C 	0.54757 0.74920 0.66400 0.33500
N 	N 	0.09617 0.68392 0.57012 -0.19600
C 	C 	0.10270 0.65320 0.58460 0.08600
C 	C 	0.09510 0.62310 0.55710 -0.02400
C 	C 	0.09190 0.62720 0.50330 -0.00900
C 	C 	0.09950 0.66030 0.48860 0.00600
C 	C 	0.10330 0.68850 0.52340 0.04500
C 	C 	0.06740 0.63000 0.49760 0.03400
C 	C 	0.03740 0.65990 0.47750 -0.01900
C 	C 	0.05200 0.68750 0.51620 0.04000
N 	N 	0.16618 0.82225 0.75729 -0.22200
C 	C 	0.18160 0.85140 0.74440 0.11700
H 	H 	0.18430 0.85320 0.71070 0.00300
C 	C 	0.19350 0.87900 0.78280 -0.20400
H 	H 	0.20130 0.89990 0.77220 0.10700
C 	C 	0.19420 0.87720 0.83300 0.19000
H 	H 	0.21220 0.89240 0.86440 -0.02300
C 	C 	0.16750 0.85240 0.83340 -0.25100
H 	H 	0.15250 0.85360 0.85690 0.13200
C 	C 	0.16010 0.82410 0.80040 0.18000
H 	H 	0.14970 0.80420 0.81100 -0.01300
C 	C 	0.25510 0.52800 0.18570 0.07700
H 	H 	0.26740 0.54900 0.18090 0.01300
C 	C 	0.21640 0.53060 0.20030 -0.14000
H 	H 	0.20460 0.55120 0.20690 0.09000
Cu	Cu	0.61461 0.22657 0.62683 0.92200
Cu	Cu	0.64620 0.27956 0.70021 0.92200
I 	I 	0.78962 0.19891 0.98953 -0.08500
I 	I 	0.70690 0.07850 0.81220 -0.07600
I 	I 	0.86185 0.11913 0.91656 -0.07400
I 	I 	0.66631 0.12153 0.94796 -0.08000
I 	I 	0.09761 0.12385 0.36844 -0.07500
I 	I 	0.07534 0.07681 0.50230 -0.08600
I 	I 	0.90597 0.31423 0.75430 -0.07900
I 	I 	0.81462 0.21069 0.55110 -0.06300
I 	I 	0.94546 0.20134 0.77245 -0.07500
I 	I 	0.85135 0.30586 0.55918 -0.07900
O 	O 	0.64717 0.20022 0.69962 -0.39300
O 	O 	0.67541 0.24414 0.76117 -0.38700
O 	O 	0.81741 0.03511 0.10401 -0.39500
O 	O 	0.88609 0.03495 0.09331 -0.40300
O 	O 	0.95111 0.03484 0.21351 -0.40100
O 	O 	0.88191 0.03503 0.22398 -0.39800
O 	O 	0.11294 0.19528 0.62553 -0.40600
O 	O 	0.08566 0.23949 0.56459 -0.39600
O 	O 	0.68330 0.23406 0.63648 -0.39400
O 	O 	0.70988 0.27766 0.69747 -0.39900
O 	O 	0.07955 0.22682 0.69435 -0.39900
O 	O 	0.05157 0.27058 0.63149 -0.38700
C 	C 	0.69630 0.18858 0.80070 -0.02000
C 	C 	0.72330 0.20063 0.85780 -0.06800
H 	H 	0.72540 0.22410 0.86490 0.08800
C 	C 	0.74700 0.17862 0.90410 0.06700
C 	C 	0.74380 0.14368 0.89420 -0.01500
C 	C 	0.71570 0.13197 0.83730 0.06300
C 	C 	0.69290 0.15464 0.79120 -0.06600
H 	H 	0.67470 0.14640 0.75250 0.08700
C 	C 	0.67141 0.21304 0.74960 0.34300
C 	C 	0.81750 0.07169 0.03367 -0.02700
C 	C 	0.76920 0.08349 0.01660 -0.06600
H 	H 	0.75220 0.07520 0.03530 0.08300
C 	C 	0.74480 0.10724 0.97250 0.05800
C 	C 	0.76990 0.11858 0.94410 -0.01100
C 	C 	0.81840 0.10602 0.96070 0.05900
C 	C 	0.84320 0.08297 0.00600 -0.06400
H 	H 	0.87650 0.07510 0.01770 0.08400
C 	C 	0.84270 0.04491 0.08113 0.34500
C 	C 	0.95240 0.07078 0.28446 -0.06100
C 	C 	0.00020 0.08279 0.30100 -0.03600
H 	H 	0.01680 0.07550 0.28110 0.07600
C 	C 	0.02490 0.10596 0.34730 0.04300
C 	C 	0.00223 0.11719 0.37764 0.01200
C 	C 	0.95310 0.10502 0.35940 -0.06300
H 	H 	0.93600 0.11290 0.37850 0.06700
C 	C 	0.92860 0.08189 0.31450 0.00600
H 	H 	0.89580 0.07360 0.30420 0.05000
C 	C 	0.92640 0.04464 0.23680 0.35000
C 	C 	0.06982 0.18491 0.52414 -0.07000
C 	C 	0.07957 0.15077 0.53326 -0.03100
H 	H 	0.10030 0.14240 0.57170 0.06600
C 	C 	0.05869 0.12831 0.48546 0.03800
C 	C 	0.02748 0.14044 0.42862 0.02100
C 	C 	0.01824 0.17484 0.42063 -0.07300
H 	H 	0.99750 0.18340 0.38230 0.07400
C 	C 	0.03867 0.19709 0.46741 0.01500
H 	H 	0.03150 0.22040 0.46090 0.05200
C 	C 	0.09135 0.20825 0.57584 0.36100
C 	C 	0.76559 0.25621 0.66820 -0.02800
C 	C 	0.80440 0.27767 0.70240 -0.06000
H 	H 	0.80040 0.29280 0.72730 0.08400
C 	C 	0.84950 0.27796 0.70170 0.06300
C 	C 	0.85850 0.25549 0.66940 -0.01100
C 	C 	0.82020 0.23150 0.63810 0.05700
C 	C 	0.77400 0.23301 0.63600 -0.05800
H 	H 	0.74760 0.21770 0.61190 0.08700
C 	C 	0.71534 0.25639 0.66770 0.36100
C 	C 	0.99796 0.25104 0.66530 -0.02500
C 	C 	0.95970 0.27218 0.62910 -0.06200
H 	H 	0.96420 0.28640 0.60360 0.08200
C 	C 	0.91330 0.27330 0.62910 0.05700
C 	C 	0.90740 0.25415 0.66870 -0.01000
C 	C 	0.94720 0.23250 0.70540 0.05900
C 	C 	0.99210 0.23114 0.70250 -0.06400
H 	H 	0.01860 0.21600 0.72700 0.08200
C 	C 	0.04757 0.24920 0.66400 0.33500
N 	N 	0.59617 0.18392 0.57012 -0.19600
C 	C 	0.60270 0.15320 0.58460 0.08600
C 	C 	0.59510 0.12310 0.55710 -0.02500
C 	C 	0.59190 0.12720 0.50330 -0.00800
C 	C 	0.59950 0.16030 0.48860 0.00600
C 	C 	0.60330 0.18850 0.52340 0.04500
C 	C 	0.56740 0.13000 0.49760 0.03200
C 	C 	0.53740 0.15990 0.47750 -0.01900
C 	C 	0.55200 0.18750 0.51620 0.04000
N 	N 	0.66618 0.32225 0.75729 -0.22200
C 	C 	0.68160 0.35140 0.74440 0.11700
H 	H 	0.68430 0.35320 0.71070 0.00300
C 	C 	0.69350 0.37900 0.78280 -0.20400
H 	H 	0.70130 0.39990 0.77220 0.10700
C 	C 	0.69420 0.37720 0.83300 0.19000
H 	H 	0.71220 0.39240 0.86440 -0.02300
C 	C 	0.66750 0.35240 0.83340 -0.25100
H 	H 	0.65250 0.35360 0.85690 0.13200
C 	C 	0.66010 0.32410 0.80040 0.18000
H 	H 	0.64970 0.30420 0.81100 -0.01300
C 	C 	0.75510 0.02800 0.18570 0.07100
H 	H 	0.76740 0.04900 0.18090 0.01400
C 	C 	0.71640 0.03060 0.20030 -0.13000
H 	H 	0.70460 0.05120 0.20690 0.08600
Cu	Cu	0.42514 0.50000 0.15228 0.90900
Cu	Cu	0.34339 0.50000 0.16526 0.92000
N 	N 	0.27800 0.50000 0.17720 -0.18500
C 	C 	0.19850 0.50000 0.20390 0.07900
H 	H 	0.17010 0.50000 0.20940 0.01800
Cu	Cu	0.92514 0.00000 0.15228 0.90600
Cu	Cu	0.84339 0.00000 0.16526 0.91800
N 	N 	0.77800 0.00000 0.17720 -0.18700
C 	C 	0.69850 0.00000 0.20390 0.06100
H 	H 	0.67010 0.00000 0.20940 0.02200
Cu	Cu	0.88539 0.27343 0.37317 0.92200
Cu	Cu	0.85380 0.22044 0.29979 0.92200
I 	I 	0.71038 0.30109 0.01047 -0.08500
I 	I 	0.79310 0.42150 0.18780 -0.07300
I 	I 	0.63815 0.38087 0.08344 -0.07300
I 	I 	0.83369 0.37847 0.05204 -0.07900
I 	I 	0.40239 0.37615 0.63156 -0.07400
I 	I 	0.42466 0.42319 0.49770 -0.08400
I 	I 	0.59403 0.18577 0.24570 -0.08000
I 	I 	0.68538 0.28931 0.44890 -0.06300
I 	I 	0.55454 0.29866 0.22755 -0.07500
I 	I 	0.64865 0.19414 0.44082 -0.07900
O 	O 	0.85283 0.29978 0.30038 -0.39300
O 	O 	0.82459 0.25586 0.23883 -0.38700
O 	O 	0.68259 0.46489 0.89599 -0.39300
O 	O 	0.61391 0.46505 0.90669 -0.40100
O 	O 	0.54889 0.46516 0.78649 -0.39900
O 	O 	0.61809 0.46497 0.77602 -0.39700
O 	O 	0.38706 0.30472 0.37447 -0.40600
O 	O 	0.41434 0.26051 0.43541 -0.39600
O 	O 	0.81670 0.26594 0.36352 -0.39400
O 	O 	0.79012 0.22234 0.30253 -0.39900
O 	O 	0.42045 0.27318 0.30565 -0.39900
O 	O 	0.44843 0.22942 0.36851 -0.38700
C 	C 	0.80370 0.31142 0.19930 -0.02000
C 	C 	0.77670 0.29937 0.14220 -0.06800
H 	H 	0.77460 0.27590 0.13510 0.08800
C 	C 	0.75300 0.32138 0.09590 0.06700
C 	C 	0.75620 0.35632 0.10580 -0.01500
C 	C 	0.78430 0.36803 0.16270 0.06300
C 	C 	0.80710 0.34536 0.20880 -0.06600
H 	H 	0.82530 0.35360 0.24750 0.08700
C 	C 	0.82859 0.28696 0.25040 0.34300
C 	C 	0.68250 0.42831 0.96633 -0.02700
C 	C 	0.73080 0.41651 0.98340 -0.06600
H 	H 	0.74780 0.42480 0.96470 0.08300
C 	C 	0.75520 0.39276 0.02750 0.05800
C 	C 	0.73010 0.38142 0.05590 -0.01100
C 	C 	0.68160 0.39398 0.03930 0.05900
C 	C 	0.65680 0.41703 0.99400 -0.06300
H 	H 	0.62350 0.42490 0.98230 0.08500
C 	C 	0.65730 0.45509 0.91887 0.34500
C 	C 	0.54760 0.42922 0.71554 -0.06000
C 	C 	0.49980 0.41721 0.69900 -0.03700
H 	H 	0.48320 0.42450 0.71890 0.07700
C 	C 	0.47510 0.39404 0.65270 0.04300
C 	C 	0.49777 0.38281 0.62236 0.01200
C 	C 	0.54690 0.39498 0.64060 -0.06300
H 	H 	0.56400 0.38710 0.62150 0.06600
C 	C 	0.57140 0.41811 0.68550 0.00500
H 	H 	0.60420 0.42640 0.69580 0.05000
C 	C 	0.57360 0.45536 0.76320 0.35000
C 	C 	0.43018 0.31509 0.47586 -0.07100
C 	C 	0.42043 0.34923 0.46674 -0.03000
H 	H 	0.39970 0.35760 0.42830 0.06600
C 	C 	0.44131 0.37169 0.51454 0.03700
C 	C 	0.47252 0.35956 0.57138 0.02100
C 	C 	0.48176 0.32516 0.57937 -0.07300
H 	H 	0.50250 0.31660 0.61770 0.07400
C 	C 	0.46133 0.30291 0.53259 0.01500
H 	H 	0.46850 0.27960 0.53910 0.05200
C 	C 	0.40865 0.29175 0.42416 0.36100
C 	C 	0.73441 0.24379 0.33180 -0.02800
C 	C 	0.69560 0.22233 0.29760 -0.06000
H 	H 	0.69960 0.20720 0.27270 0.08400
C 	C 	0.65050 0.22204 0.29830 0.06300
C 	C 	0.64150 0.24451 0.33060 -0.01100
C 	C 	0.67980 0.26850 0.36190 0.05700
C 	C 	0.72600 0.26699 0.36400 -0.05800
H 	H 	0.75240 0.28230 0.38810 0.08700
C 	C 	0.78466 0.24361 0.33230 0.36100
C 	C 	0.50204 0.24896 0.33470 -0.02500
C 	C 	0.54030 0.22782 0.37090 -0.06200
H 	H 	0.53580 0.21360 0.39640 0.08100
C 	C 	0.58670 0.22670 0.37090 0.05700
C 	C 	0.59260 0.24585 0.33130 -0.01000
C 	C 	0.55280 0.26750 0.29460 0.05900
C 	C 	0.50790 0.26886 0.29750 -0.06500
H 	H 	0.48140 0.28400 0.27300 0.08200
C 	C 	0.45243 0.25080 0.33600 0.33500
N 	N 	0.90383 0.31608 0.42988 -0.19600
C 	C 	0.89730 0.34680 0.41540 0.08600
C 	C 	0.90490 0.37690 0.44290 -0.02400
C 	C 	0.90810 0.37280 0.49670 -0.00900
C 	C 	0.90050 0.33970 0.51140 0.00600
C 	C 	0.89670 0.31150 0.47660 0.04500
C 	C 	0.93260 0.37000 0.50240 0.03400
C 	C 	0.96260 0.34010 0.52250 -0.01900
C 	C 	0.94800 0.31250 0.48380 0.04000
N 	N 	0.83382 0.17775 0.24271 -0.22200
C 	C 	0.81840 0.14860 0.25560 0.11700
H 	H 	0.81570 0.14680 0.28930 0.00300
C 	C 	0.80650 0.12100 0.21720 -0.20400
H 	H 	0.79870 0.10010 0.22780 0.10700
C 	C 	0.80580 0.12280 0.16700 0.19000
H 	H 	0.78780 0.10760 0.13560 -0.02300
C 	C 	0.83250 0.14760 0.16660 -0.25100
H 	H 	0.84750 0.14640 0.14310 0.13200
C 	C 	0.83990 0.17590 0.19960 0.18000
H 	H 	0.85030 0.19580 0.18900 -0.01300
C 	C 	0.74490 0.47200 0.81430 0.07700
H 	H 	0.73260 0.45100 0.81910 0.01300
C 	C 	0.78360 0.46940 0.79970 -0.14000
H 	H 	0.79540 0.44880 0.79310 0.09000
Cu	Cu	0.38539 0.77343 0.37317 0.92200
Cu	Cu	0.35380 0.72044 0.29979 0.92200
I 	I 	0.21038 0.80109 0.01047 -0.08500
I 	I 	0.29310 0.92150 0.18780 -0.07000
I 	I 	0.13815 0.88087 0.08344 -0.07200
I 	I 	0.33369 0.87847 0.05204 -0.07700
I 	I 	0.90239 0.87615 0.63156 -0.07300
I 	I 	0.92466 0.92319 0.49770 -0.08100
I 	I 	0.09403 0.68577 0.24570 -0.07900
I 	I 	0.18538 0.78931 0.44890 -0.06300
I 	I 	0.05454 0.79866 0.22755 -0.07400
I 	I 	0.14865 0.69414 0.44082 -0.07900
O 	O 	0.35283 0.79978 0.30038 -0.39300
O 	O 	0.32459 0.75586 0.23883 -0.38700
O 	O 	0.18259 0.96489 0.89599 -0.39000
O 	O 	0.11391 0.96505 0.90669 -0.39800
O 	O 	0.04889 0.96516 0.78649 -0.39600
O 	O 	0.11809 0.96497 0.77602 -0.39400
O 	O 	0.88706 0.80472 0.37447 -0.40600
O 	O 	0.91434 0.76051 0.43541 -0.39600
O 	O 	0.31670 0.76594 0.36352 -0.39400
O 	O 	0.29012 0.72234 0.30253 -0.39900
O 	O 	0.92045 0.77318 0.30565 -0.39900
O 	O 	0.94843 0.72942 0.36851 -0.38700
C 	C 	0.30370 0.81142 0.19930 -0.02000
C 	C 	0.27670 0.79937 0.14220 -0.06800
H 	H 	0.27460 0.77590 0.13510 0.08800
C 	C 	0.25300 0.82138 0.09590 0.06700
C 	C 	0.25620 0.85632 0.10580 -0.01400
C 	C 	0.28430 0.86803 0.16270 0.06300
C 	C 	0.30710 0.84536 0.20880 -0.06500
H 	H 	0.32530 0.85360 0.24750 0.08700
C 	C 	0.32859 0.78696 0.25040 0.34300
C 	C 	0.18250 0.92831 0.96633 -0.02600
C 	C 	0.23080 0.91651 0.98340 -0.06700
H 	H 	0.24780 0.92480 0.96470 0.08400
C 	C 	0.25520 0.89276 0.02750 0.05900
C 	C 	0.23010 0.88142 0.05590 -0.01100
C 	C 	0.18160 0.89398 0.03930 0.05900
C 	C 	0.15680 0.91703 0.99400 -0.06400
H 	H 	0.12350 0.92490 0.98230 0.08600
C 	C 	0.15730 0.95509 0.91887 0.34500
C 	C 	0.04760 0.92922 0.71554 -0.06000
C 	C 	0.99980 0.91721 0.69900 -0.03700
H 	H 	0.98320 0.92450 0.71890 0.07800
C 	C 	0.97510 0.89404 0.65270 0.04400
C 	C 	0.99777 0.88281 0.62236 0.01100
C 	C 	0.04690 0.89498 0.64060 -0.06200
H 	H 	0.06400 0.88710 0.62150 0.06600
C 	C 	0.07140 0.91811 0.68550 0.00500
H 	H 	0.10420 0.92640 0.69580 0.05100
C 	C 	0.07360 0.95536 0.76320 0.34900
C 	C 	0.93018 0.81509 0.47586 -0.07100
C 	C 	0.92043 0.84923 0.46674 -0.03000
H 	H 	0.89970 0.85760 0.42830 0.06600
C 	C 	0.94131 0.87169 0.51454 0.03700
C 	C 	0.97252 0.85956 0.57138 0.02100
C 	C 	0.98176 0.82516 0.57937 -0.07300
H 	H 	0.00250 0.81660 0.61770 0.07400
C 	C 	0.96133 0.80291 0.53259 0.01500
H 	H 	0.96850 0.77960 0.53910 0.05200
C 	C 	0.90865 0.79175 0.42416 0.36100
C 	C 	0.23441 0.74379 0.33180 -0.02800
C 	C 	0.19560 0.72233 0.29760 -0.06000
H 	H 	0.19960 0.70720 0.27270 0.08400
C 	C 	0.15050 0.72204 0.29830 0.06300
C 	C 	0.14150 0.74451 0.33060 -0.01100
C 	C 	0.17980 0.76850 0.36190 0.05700
C 	C 	0.22600 0.76699 0.36400 -0.05800
H 	H 	0.25240 0.78230 0.38810 0.08700
C 	C 	0.28466 0.74361 0.33230 0.36100
C 	C 	0.00204 0.74896 0.33470 -0.02500
C 	C 	0.04030 0.72782 0.37090 -0.06200
H 	H 	0.03580 0.71360 0.39640 0.08200
C 	C 	0.08670 0.72670 0.37090 0.05700
C 	C 	0.09260 0.74585 0.33130 -0.01000
C 	C 	0.05280 0.76750 0.29460 0.05800
C 	C 	0.00790 0.76886 0.29750 -0.06400
H 	H 	0.98140 0.78400 0.27300 0.08200
C 	C 	0.95243 0.75080 0.33600 0.33500
N 	N 	0.40383 0.81608 0.42988 -0.19600
C 	C 	0.39730 0.84680 0.41540 0.08600
C 	C 	0.40490 0.87690 0.44290 -0.02400
C 	C 	0.40810 0.87280 0.49670 -0.01100
C 	C 	0.40050 0.83970 0.51140 0.00700
C 	C 	0.39670 0.81150 0.47660 0.04500
C 	C 	0.43260 0.87000 0.50240 0.03600
C 	C 	0.46260 0.84010 0.52250 -0.02000
C 	C 	0.44800 0.81250 0.48380 0.04000
N 	N 	0.33382 0.67775 0.24271 -0.22200
C 	C 	0.31840 0.64860 0.25560 0.11700
H 	H 	0.31570 0.64680 0.28930 0.00300
C 	C 	0.30650 0.62100 0.21720 -0.20400
H 	H 	0.29870 0.60010 0.22780 0.10700
C 	C 	0.30580 0.62280 0.16700 0.19000
H 	H 	0.28780 0.60760 0.13560 -0.02300
C 	C 	0.33250 0.64760 0.16660 -0.25100
H 	H 	0.34750 0.64640 0.14310 0.13200
C 	C 	0.33990 0.67590 0.19960 0.18000
H 	H 	0.35030 0.69580 0.18900 -0.01300
C 	C 	0.24490 0.97200 0.81430 0.07900
H 	H 	0.23260 0.95100 0.81910 0.01300
C 	C 	0.28360 0.96940 0.79970 -0.12500
H 	H 	0.29540 0.94880 0.79310 0.08600
Cu	Cu	0.88539 0.72657 0.37317 0.92200
Cu	Cu	0.85380 0.77956 0.29979 0.92200
I 	I 	0.71038 0.69891 0.01047 -0.08500
I 	I 	0.79310 0.57850 0.18780 -0.07300
I 	I 	0.63815 0.61913 0.08344 -0.07300
I 	I 	0.83369 0.62153 0.05204 -0.07900
I 	I 	0.40239 0.62385 0.63156 -0.07400
I 	I 	0.42466 0.57681 0.49770 -0.08400
I 	I 	0.59403 0.81423 0.24570 -0.07800
I 	I 	0.68538 0.71069 0.44890 -0.06300
I 	I 	0.55454 0.70134 0.22755 -0.07500
I 	I 	0.64865 0.80586 0.44082 -0.07900
O 	O 	0.85283 0.70022 0.30038 -0.39300
O 	O 	0.82459 0.74414 0.23883 -0.38700
O 	O 	0.68259 0.53511 0.89599 -0.39300
O 	O 	0.61391 0.53495 0.90669 -0.40100
O 	O 	0.54889 0.53484 0.78649 -0.39900
O 	O 	0.61809 0.53503 0.77602 -0.39700
O 	O 	0.38706 0.69528 0.37447 -0.40600
O 	O 	0.41434 0.73949 0.43541 -0.39600
O 	O 	0.81670 0.73406 0.36352 -0.39400
O 	O 	0.79012 0.77766 0.30253 -0.39900
O 	O 	0.42045 0.72682 0.30565 -0.39900
O 	O 	0.44843 0.77058 0.36851 -0.38700
C 	C 	0.80370 0.68858 0.19930 -0.02000
C 	C 	0.77670 0.70063 0.14220 -0.06800
H 	H 	0.77460 0.72410 0.13510 0.08800
C 	C 	0.75300 0.67862 0.09590 0.06700
C 	C 	0.75620 0.64368 0.10580 -0.01500
C 	C 	0.78430 0.63197 0.16270 0.06300
C 	C 	0.80710 0.65464 0.20880 -0.06600
H 	H 	0.82530 0.64640 0.24750 0.08700
C 	C 	0.82859 0.71304 0.25040 0.34300
C 	C 	0.68250 0.57169 0.96633 -0.02700
C 	C 	0.73080 0.58349 0.98340 -0.06600
H 	H 	0.74780 0.57520 0.96470 0.08300
C 	C 	0.75520 0.60724 0.02750 0.05800
C 	C 	0.73010 0.61858 0.05590 -0.01100
C 	C 	0.68160 0.60602 0.03930 0.05900
C 	C 	0.65680 0.58297 0.99400 -0.06300
H 	H 	0.62350 0.57510 0.98230 0.08500
C 	C 	0.65730 0.54491 0.91887 0.34500
C 	C 	0.54760 0.57078 0.71554 -0.06000
C 	C 	0.49980 0.58279 0.69900 -0.03700
H 	H 	0.48320 0.57550 0.71890 0.07700
C 	C 	0.47510 0.60596 0.65270 0.04300
C 	C 	0.49777 0.61719 0.62236 0.01200
C 	C 	0.54690 0.60502 0.64060 -0.06300
H 	H 	0.56400 0.61290 0.62150 0.06600
C 	C 	0.57140 0.58189 0.68550 0.00500
H 	H 	0.60420 0.57360 0.69580 0.05000
C 	C 	0.57360 0.54464 0.76320 0.35000
C 	C 	0.43018 0.68491 0.47586 -0.07100
C 	C 	0.42043 0.65077 0.46674 -0.03000
H 	H 	0.39970 0.64240 0.42830 0.06600
C 	C 	0.44131 0.62831 0.51454 0.03700
C 	C 	0.47252 0.64044 0.57138 0.02100
C 	C 	0.48176 0.67484 0.57937 -0.07300
H 	H 	0.50250 0.68340 0.61770 0.07400
C 	C 	0.46133 0.69709 0.53259 0.01500
H 	H 	0.46850 0.72040 0.53910 0.05200
C 	C 	0.40865 0.70825 0.42416 0.36100
C 	C 	0.73441 0.75621 0.33180 -0.02800
C 	C 	0.69560 0.77767 0.29760 -0.06000
H 	H 	0.69960 0.79280 0.27270 0.08400
C 	C 	0.65050 0.77796 0.29830 0.06300
C 	C 	0.64150 0.75549 0.33060 -0.01100
C 	C 	0.67980 0.73150 0.36190 0.05700
C 	C 	0.72600 0.73301 0.36400 -0.05800
H 	H 	0.75240 0.71770 0.38810 0.08700
C 	C 	0.78466 0.75639 0.33230 0.36100
C 	C 	0.50204 0.75104 0.33470 -0.02500
C 	C 	0.54030 0.77218 0.37090 -0.06200
H 	H 	0.53580 0.78640 0.39640 0.08200
C 	C 	0.58670 0.77330 0.37090 0.05700
C 	C 	0.59260 0.75415 0.33130 -0.01000
C 	C 	0.55280 0.73250 0.29460 0.05900
C 	C 	0.50790 0.73114 0.29750 -0.06500
H 	H 	0.48140 0.71600 0.27300 0.08200
C 	C 	0.45243 0.74920 0.33600 0.33500
N 	N 	0.90383 0.68392 0.42988 -0.19600
C 	C 	0.89730 0.65320 0.41540 0.08600
C 	C 	0.90490 0.62310 0.44290 -0.02400
C 	C 	0.90810 0.62720 0.49670 -0.00900
C 	C 	0.90050 0.66030 0.51140 0.00600
C 	C 	0.89670 0.68850 0.47660 0.04500
C 	C 	0.93260 0.63000 0.50240 0.03400
C 	C 	0.96260 0.65990 0.52250 -0.01900
C 	C 	0.94800 0.68750 0.48380 0.04000
N 	N 	0.83382 0.82225 0.24271 -0.22200
C 	C 	0.81840 0.85140 0.25560 0.11700
H 	H 	0.81570 0.85320 0.28930 0.00300
C 	C 	0.80650 0.87900 0.21720 -0.20400
H 	H 	0.79870 0.89990 0.22780 0.10700
C 	C 	0.80580 0.87720 0.16700 0.19000
H 	H 	0.78780 0.89240 0.13560 -0.02300
C 	C 	0.83250 0.85240 0.16660 -0.25100
H 	H 	0.84750 0.85360 0.14310 0.13200
C 	C 	0.83990 0.82410 0.19960 0.18000
H 	H 	0.85030 0.80420 0.18900 -0.01300
C 	C 	0.74490 0.52800 0.81430 0.07700
H 	H 	0.73260 0.54900 0.81910 0.01300
C 	C 	0.78360 0.53060 0.79970 -0.14000
H 	H 	0.79540 0.55120 0.79310 0.09000
Cu	Cu	0.38539 0.22657 0.37317 0.92200
Cu	Cu	0.35380 0.27956 0.29979 0.92200
I 	I 	0.21038 0.19891 0.01047 -0.08500
I 	I 	0.29310 0.07850 0.18780 -0.07600
I 	I 	0.13815 0.11913 0.08344 -0.07400
I 	I 	0.33369 0.12153 0.05204 -0.08000
I 	I 	0.90239 0.12385 0.63156 -0.07500
I 	I 	0.92466 0.07681 0.49770 -0.08600
I 	I 	0.09403 0.31423 0.24570 -0.07900
I 	I 	0.18538 0.21069 0.44890 -0.06300
I 	I 	0.05454 0.20134 0.22755 -0.07500
I 	I 	0.14865 0.30586 0.44082 -0.07900
O 	O 	0.35283 0.20022 0.30038 -0.39300
O 	O 	0.32459 0.24414 0.23883 -0.38700
O 	O 	0.18259 0.03511 0.89599 -0.39500
O 	O 	0.11391 0.03495 0.90669 -0.40300
O 	O 	0.04889 0.03484 0.78649 -0.40100
O 	O 	0.11809 0.03503 0.77602 -0.39800
O 	O 	0.88706 0.19528 0.37447 -0.40600
O 	O 	0.91434 0.23949 0.43541 -0.39600
O 	O 	0.31670 0.23406 0.36352 -0.39400
O 	O 	0.29012 0.27766 0.30253 -0.39900
O 	O 	0.92045 0.22682 0.30565 -0.39900
O 	O 	0.94843 0.27058 0.36851 -0.38700
C 	C 	0.30370 0.18858 0.19930 -0.02000
C 	C 	0.27670 0.20063 0.14220 -0.06800
H 	H 	0.27460 0.22410 0.13510 0.08800
C 	C 	0.25300 0.17862 0.09590 0.06700
C 	C 	0.25620 0.14368 0.10580 -0.01500
C 	C 	0.28430 0.13197 0.16270 0.06300
C 	C 	0.30710 0.15464 0.20880 -0.06600
H 	H 	0.32530 0.14640 0.24750 0.08700
C 	C 	0.32859 0.21304 0.25040 0.34300
C 	C 	0.18250 0.07169 0.96633 -0.02700
C 	C 	0.23080 0.08349 0.98340 -0.06600
H 	H 	0.24780 0.07520 0.96470 0.08300
C 	C 	0.25520 0.10724 0.02750 0.05800
C 	C 	0.23010 0.11858 0.05590 -0.01100
C 	C 	0.18160 0.10602 0.03930 0.05900
C 	C 	0.15680 0.08297 0.99400 -0.06400
H 	H 	0.12350 0.07510 0.98230 0.08400
C 	C 	0.15730 0.04491 0.91887 0.34500
C 	C 	0.04760 0.07078 0.71554 -0.06100
C 	C 	0.99980 0.08279 0.69900 -0.03600
H 	H 	0.98320 0.07550 0.71890 0.07600
C 	C 	0.97510 0.10596 0.65270 0.04300
C 	C 	0.99777 0.11719 0.62236 0.01200
C 	C 	0.04690 0.10502 0.64060 -0.06300
H 	H 	0.06400 0.11290 0.62150 0.06700
C 	C 	0.07140 0.08189 0.68550 0.00600
H 	H 	0.10420 0.07360 0.69580 0.05000
C 	C 	0.07360 0.04464 0.76320 0.35000
C 	C 	0.93018 0.18491 0.47586 -0.07000
C 	C 	0.92043 0.15077 0.46674 -0.03100
H 	H 	0.89970 0.14240 0.42830 0.06600
C 	C 	0.94131 0.12831 0.51454 0.03800
C 	C 	0.97252 0.14044 0.57138 0.02100
C 	C 	0.98176 0.17484 0.57937 -0.07300
H 	H 	0.00250 0.18340 0.61770 0.07400
C 	C 	0.96133 0.19709 0.53259 0.01500
H 	H 	0.96850 0.22040 0.53910 0.05200
C 	C 	0.90865 0.20825 0.42416 0.36100
C 	C 	0.23441 0.25621 0.33180 -0.02800
C 	C 	0.19560 0.27767 0.29760 -0.06000
H 	H 	0.19960 0.29280 0.27270 0.08400
C 	C 	0.15050 0.27796 0.29830 0.06300
C 	C 	0.14150 0.25549 0.33060 -0.01100
C 	C 	0.17980 0.23150 0.36190 0.05700
C 	C 	0.22600 0.23301 0.36400 -0.05800
H 	H 	0.25240 0.21770 0.38810 0.08700
C 	C 	0.28466 0.25639 0.33230 0.36100
C 	C 	0.00204 0.25104 0.33470 -0.02500
C 	C 	0.04030 0.27218 0.37090 -0.06200
H 	H 	0.03580 0.28640 0.39640 0.08200
C 	C 	0.08670 0.27330 0.37090 0.05700
C 	C 	0.09260 0.25415 0.33130 -0.01000
C 	C 	0.05280 0.23250 0.29460 0.05900
C 	C 	0.00790 0.23114 0.29750 -0.06400
H 	H 	0.98140 0.21600 0.27300 0.08200
C 	C 	0.95243 0.24920 0.33600 0.33500
N 	N 	0.40383 0.18392 0.42988 -0.19600
C 	C 	0.39730 0.15320 0.41540 0.08600
C 	C 	0.40490 0.12310 0.44290 -0.02500
C 	C 	0.40810 0.12720 0.49670 -0.00800
C 	C 	0.40050 0.16030 0.51140 0.00600
C 	C 	0.39670 0.18850 0.47660 0.04500
C 	C 	0.43260 0.13000 0.50240 0.03200
C 	C 	0.46260 0.15990 0.52250 -0.01900
C 	C 	0.44800 0.18750 0.48380 0.04000
N 	N 	0.33382 0.32225 0.24271 -0.22200
C 	C 	0.31840 0.35140 0.25560 0.11700
H 	H 	0.31570 0.35320 0.28930 0.00300
C 	C 	0.30650 0.37900 0.21720 -0.20400
H 	H 	0.29870 0.39990 0.22780 0.10700
C 	C 	0.30580 0.37720 0.16700 0.19000
H 	H 	0.28780 0.39240 0.13560 -0.02300
C 	C 	0.33250 0.35240 0.16660 -0.25100
H 	H 	0.34750 0.35360 0.14310 0.13200
C 	C 	0.33990 0.32410 0.19960 0.18000
H 	H 	0.35030 0.30420 0.18900 -0.01300
C 	C 	0.24490 0.02800 0.81430 0.07100
H 	H 	0.23260 0.04900 0.81910 0.01400
C 	C 	0.28360 0.03060 0.79970 -0.13000
H 	H 	0.29540 0.05120 0.79310 0.08600
Cu	Cu	0.57486 0.50000 0.84772 0.90900
Cu	Cu	0.65661 0.50000 0.83474 0.92000
N 	N 	0.72200 0.50000 0.82280 -0.18500
C 	C 	0.80150 0.50000 0.79610 0.07900
H 	H 	0.82990 0.50000 0.79060 0.01800
Cu	Cu	0.07486 -0.00000 0.84772 0.90600
Cu	Cu	0.15661 -0.00000 0.83474 0.91800
N 	N 	0.22200 -0.00000 0.82280 -0.18700
C 	C 	0.30150 0.00000 0.79610 0.06100
H 	H 	0.32990 0.00000 0.79060 0.02200
