data_crystal

_cell_length_a 10.46930
_cell_length_b 26.97830
_cell_length_c 26.97830
_cell_angle_alpha 61.64710
_cell_angle_beta  82.56770
_cell_angle_gamma 97.43230

_symmetry_space_group_name_	'P 1'
_symmetry_space_group_name_H-M	'P 1'

loop_
_symmetry_equiv_pos_as_xyz
  x,y,z

loop_
_atom_site_label
_atom_site_type_symbol
_atom_site_fract_x
_atom_site_fract_y
_atom_site_fract_z
_atom_site_charge
Cu	Cu	0.42073 1.00000 0.46571 0.90300
Cu	Cu	0.88644 0.46571 0.53429 0.90100
Cu	Cu	0.42073 0.53429 -0.00000 0.88300
Cu	Cu	0.11356 0.53429 0.46571 0.90000
Cu	Cu	0.57927 -0.00000 0.53429 0.89900
Cu	Cu	0.57927 0.46571 -0.00000 0.88300
H 	H 	0.44750 0.12590 0.57310 0.10200
H 	H 	0.25710 0.14320 0.45000 0.07500
H 	H 	0.34030 0.23550 0.59390 0.23600
H 	H 	0.47020 0.21240 0.59360 0.23000
H 	H 	0.33720 0.17000 0.63490 0.22300
H 	H 	0.02060 0.57310 0.30100 0.09700
H 	H 	0.70710 0.45000 0.40680 0.07400
H 	H 	0.93420 0.59390 0.17060 0.22400
H 	H 	0.06380 0.59360 0.19400 0.21800
H 	H 	0.97210 0.63490 0.19510 0.21100
H 	H 	0.32160 0.30100 0.12590 0.09600
H 	H 	0.11390 0.40680 0.14320 0.07100
H 	H 	0.10480 0.17060 0.23550 0.22800
H 	H 	0.25780 0.19400 0.21240 0.22100
H 	H 	0.16720 0.19510 0.17000 0.21100
H 	H 	0.97940 0.30100 0.57310 0.10300
H 	H 	0.29290 0.40680 0.45000 0.07500
H 	H 	0.06580 0.17060 0.59390 0.23600
H 	H 	0.93620 0.19400 0.59360 0.23000
H 	H 	0.02790 0.19510 0.63490 0.22300
H 	H 	0.67840 0.12590 0.30100 0.09900
H 	H 	0.88610 0.14320 0.40680 0.07400
H 	H 	0.89520 0.23550 0.17060 0.22600
H 	H 	0.74220 0.21240 0.19400 0.22000
H 	H 	0.83280 0.17000 0.19510 0.21200
H 	H 	0.55250 0.57310 0.12590 0.09600
H 	H 	0.74290 0.45000 0.14320 0.07200
H 	H 	0.65970 0.59390 0.23550 0.22900
H 	H 	0.52980 0.59360 0.21240 0.22200
H 	H 	0.66280 0.63490 0.17000 0.21300
H 	H 	0.55250 0.87410 0.42690 0.10100
H 	H 	0.74290 0.85680 0.55000 0.07500
H 	H 	0.65970 0.76450 0.40610 0.23200
H 	H 	0.52980 0.78760 0.40640 0.22600
H 	H 	0.66280 0.83000 0.36510 0.21800
H 	H 	0.97940 0.42690 0.69900 0.10400
H 	H 	0.29290 0.55000 0.59320 0.07500
H 	H 	0.06580 0.40610 0.82940 0.24300
H 	H 	0.93620 0.40640 0.80600 0.23700
H 	H 	0.02790 0.36510 0.80490 0.22900
H 	H 	0.67840 0.69900 0.87410 0.10800
H 	H 	0.88610 0.59320 0.85680 0.07900
H 	H 	0.89520 0.82940 0.76450 0.24100
H 	H 	0.74220 0.80600 0.78760 0.23600
H 	H 	0.83280 0.80490 0.83000 0.23000
H 	H 	0.02060 0.69900 0.42690 0.09800
H 	H 	0.70710 0.59320 0.55000 0.07400
H 	H 	0.93420 0.82940 0.40610 0.23100
H 	H 	0.06380 0.80600 0.40640 0.22400
H 	H 	0.97210 0.80490 0.36510 0.21600
H 	H 	0.32160 0.87410 0.69900 0.10400
H 	H 	0.11390 0.85680 0.59320 0.07500
H 	H 	0.10480 0.76450 0.82940 0.24300
H 	H 	0.25780 0.78760 0.80600 0.23700
H 	H 	0.16720 0.83000 0.80490 0.22900
H 	H 	0.44750 0.42690 0.87410 0.10800
H 	H 	0.25710 0.55000 0.85680 0.07900
H 	H 	0.34030 0.40610 0.76450 0.24000
H 	H 	0.47020 0.40640 0.78760 0.23400
H 	H 	0.33720 0.36510 0.83000 0.22900
C 	C 	0.35843 0.12638 0.51169 0.01300
C 	C 	0.39285 0.14441 0.54886 -0.19400
C 	C 	0.34734 0.19032 0.55130 0.22900
C 	C 	0.26691 0.21741 0.51488 -0.09100
C 	C 	0.22952 0.19910 0.47764 0.03700
C 	C 	0.27883 0.15443 0.47614 -0.09800
C 	C 	0.41020 0.07786 0.50946 0.31800
C 	C 	0.37641 0.20323 0.59760 -0.71600
C 	C 	0.87012 0.51169 0.36193 0.00800
C 	C 	0.94171 0.54886 0.30673 -0.18500
C 	C 	0.89864 0.55130 0.25838 0.21800
C 	C 	0.78179 0.51488 0.26771 -0.08700
C 	C 	0.70716 0.47764 0.32326 0.03500
C 	C 	0.75497 0.47614 0.36943 -0.09400
C 	C 	0.91966 0.50946 0.41268 0.32000
C 	C 	0.97401 0.59760 0.19917 -0.68800
C 	C 	0.23205 0.36193 0.12638 0.00500
C 	C 	0.24844 0.30673 0.14441 -0.18800
C 	C 	0.15702 0.25838 0.19032 0.21900
C 	C 	0.04950 0.26771 0.21741 -0.08800
C 	C 	0.03042 0.32326 0.19910 0.03300
C 	C 	0.12440 0.36943 0.15443 -0.09400
C 	C 	0.33234 0.41268 0.07786 0.31900
C 	C 	0.17318 0.19917 0.20323 -0.69500
C 	C 	0.12988 0.36193 0.51169 0.01300
C 	C 	0.05829 0.30673 0.54886 -0.19500
C 	C 	0.10136 0.25838 0.55130 0.23000
C 	C 	0.21821 0.26771 0.51488 -0.09100
C 	C 	0.29284 0.32326 0.47764 0.03700
C 	C 	0.24503 0.36943 0.47614 -0.09800
C 	C 	0.08034 0.41268 0.50946 0.31700
C 	C 	0.02599 0.19917 0.59760 -0.71600
C 	C 	0.76795 0.12638 0.36193 0.00900
C 	C 	0.75156 0.14441 0.30673 -0.18900
C 	C 	0.84298 0.19032 0.25838 0.22100
C 	C 	0.95050 0.21741 0.26771 -0.08800
C 	C 	0.96958 0.19910 0.32326 0.03600
C 	C 	0.87560 0.15443 0.36943 -0.09600
C 	C 	0.66766 0.07786 0.41268 0.31900
C 	C 	0.82682 0.20323 0.19917 -0.69500
C 	C 	0.64157 0.51169 0.12638 0.00500
C 	C 	0.60715 0.54886 0.14441 -0.18900
C 	C 	0.65266 0.55130 0.19032 0.22000
C 	C 	0.73309 0.51488 0.21741 -0.08900
C 	C 	0.77048 0.47764 0.19910 0.03400
C 	C 	0.72117 0.47614 0.15443 -0.09500
C 	C 	0.58980 0.50946 0.07786 0.31900
C 	C 	0.62359 0.59760 0.20323 -0.69800
C 	C 	0.64157 0.87362 0.48831 0.01200
C 	C 	0.60715 0.85559 0.45114 -0.19200
C 	C 	0.65266 0.80968 0.44870 0.22600
C 	C 	0.73309 0.78259 0.48512 -0.09100
C 	C 	0.77048 0.80090 0.52236 0.03700
C 	C 	0.72117 0.84557 0.52386 -0.09700
C 	C 	0.58980 0.92214 0.49054 0.31800
C 	C 	0.62359 0.79677 0.40240 -0.70700
C 	C 	0.12988 0.48831 0.63807 0.01500
C 	C 	0.05829 0.45114 0.69327 -0.19800
C 	C 	0.10136 0.44870 0.74162 0.23500
C 	C 	0.21821 0.48512 0.73229 -0.09300
C 	C 	0.29284 0.52236 0.67674 0.03800
C 	C 	0.24503 0.52386 0.63057 -0.09900
C 	C 	0.08034 0.49054 0.58732 0.31700
C 	C 	0.02599 0.40240 0.80083 -0.72900
C 	C 	0.76795 0.63807 0.87362 0.02200
C 	C 	0.75156 0.69327 0.85559 -0.20000
C 	C 	0.84298 0.74162 0.80968 0.23700
C 	C 	0.95050 0.73229 0.78259 -0.09400
C 	C 	0.96958 0.67674 0.80090 0.04200
C 	C 	0.87560 0.63057 0.84557 -0.10200
C 	C 	0.66766 0.58732 0.92214 0.31400
C 	C 	0.82682 0.80083 0.79677 -0.72900
C 	C 	0.87012 0.63807 0.48831 0.00900
C 	C 	0.94171 0.69327 0.45114 -0.18800
C 	C 	0.89864 0.74162 0.44870 0.22200
C 	C 	0.78179 0.73229 0.48512 -0.08900
C 	C 	0.70716 0.67674 0.52236 0.03600
C 	C 	0.75497 0.63057 0.52386 -0.09600
C 	C 	0.91966 0.58732 0.49054 0.32000
C 	C 	0.97401 0.80083 0.40240 -0.70000
C 	C 	0.23205 0.87362 0.63807 0.01500
C 	C 	0.24844 0.85559 0.69327 -0.19800
C 	C 	0.15702 0.80968 0.74162 0.23500
C 	C 	0.04950 0.78259 0.73229 -0.09300
C 	C 	0.03042 0.80090 0.67674 0.03800
C 	C 	0.12440 0.84557 0.63057 -0.09900
C 	C 	0.33234 0.92214 0.58732 0.31700
C 	C 	0.17318 0.79677 0.80083 -0.72900
C 	C 	0.35843 0.48831 0.87362 0.02100
C 	C 	0.39285 0.45114 0.85559 -0.19900
C 	C 	0.34734 0.44870 0.80968 0.23600
C 	C 	0.26691 0.48512 0.78259 -0.09400
C 	C 	0.22952 0.52236 0.80090 0.04100
C 	C 	0.27883 0.52386 0.84557 -0.10200
C 	C 	0.41020 0.49054 0.92214 0.31400
C 	C 	0.37641 0.40240 0.79677 -0.72600
O 	O 	0.36297 0.06001 0.47880 -0.40600
O 	O 	0.49671 0.05936 0.53770 -0.40700
O 	O 	0.84177 0.47880 0.46119 -0.40500
O 	O 	0.03441 0.53770 0.40294 -0.40800
O 	O 	0.30296 0.46119 0.06001 -0.41500
O 	O 	0.43735 0.40294 0.05936 -0.41600
O 	O 	0.15823 0.46119 0.47880 -0.40500
O 	O 	0.96559 0.40294 0.53770 -0.40500
O 	O 	0.69704 0.06001 0.46119 -0.40600
O 	O 	0.56265 0.05936 0.40294 -0.40800
O 	O 	0.63703 0.47880 0.06001 -0.41400
O 	O 	0.50329 0.53770 0.05936 -0.41600
O 	O 	0.63703 0.93999 0.52120 -0.40300
O 	O 	0.50329 0.94064 0.46230 -0.40600
O 	O 	0.15823 0.52120 0.53881 -0.40500
O 	O 	0.96559 0.46230 0.59706 -0.40500
O 	O 	0.69704 0.53881 0.93999 -0.38700
O 	O 	0.56265 0.59706 0.94064 -0.38800
O 	O 	0.84177 0.53881 0.52120 -0.40500
O 	O 	0.03441 0.59706 0.46230 -0.40800
O 	O 	0.30296 0.93999 0.53881 -0.40400
O 	O 	0.43735 0.94064 0.59706 -0.40400
O 	O 	0.36297 0.52120 0.93999 -0.38700
O 	O 	0.49671 0.46230 0.94064 -0.38800
