data_crystal

_cell_length_a 15.58040
_cell_length_b 25.57210
_cell_length_c 40.85700
_cell_angle_alpha 90.00000
_cell_angle_beta  96.39700
_cell_angle_gamma 90.00000

_symmetry_space_group_name_	'P 1'
_symmetry_space_group_name_H-M	'P 1'

loop_
_symmetry_equiv_pos_as_xyz
  x,y,z

loop_
_atom_site_label
_atom_site_type_symbol
_atom_site_fract_x
_atom_site_fract_y
_atom_site_fract_z
_atom_site_charge
Cu	Cu	0.24577 0.11813 0.17109 0.74900
Cu	Cu	0.56396 0.63594 0.08911 0.74600
Cu	Cu	0.06249 0.09474 0.15668 0.74100
Cu	Cu	0.17542 0.21428 0.13084 0.75900
Cu	Cu	0.25151 0.08821 0.09673 0.76600
Cu	Cu	0.70687 0.98831 0.16948 0.84100
Cu	Cu	0.37683 0.87771 0.99395 0.84100
Cu	Cu	0.66580 0.52851 0.93131 0.82600
N 	N 	0.39580 0.30330 0.23735 -0.23700
N 	N 	0.17030 0.16180 0.19473 -0.26800
N 	N 	0.08570 0.14690 0.18832 -0.27300
N 	N 	0.76030 0.18430 0.18520 -0.13300
N 	N 	0.60470 0.04390 0.16416 -0.22700
N 	N 	0.33150 0.16030 0.14605 -0.25800
N 	N 	0.29460 0.20590 0.13364 -0.26900
N 	N 	0.32550 0.38890 0.08180 -0.25700
N 	N 	0.26490 0.98620 0.28073 -0.23800
N 	N 	0.25970 0.04480 0.15988 -0.26200
N 	N 	0.27450 0.03500 0.12803 -0.25700
N 	N 	0.35000 0.91310 0.03568 -0.24400
N 	N 	0.63430 0.52490 0.97572 -0.26700
N 	N 	0.55720 0.56040 0.09322 -0.27700
N 	N 	0.54570 0.54340 0.12419 -0.27200
N 	N 	0.52150 0.39850 0.21063 -0.23600
N 	N 	0.21700 0.64510 0.04062 -0.25700
N 	N 	0.50390 0.69350 0.10867 -0.26300
N 	N 	0.55820 0.72990 0.12484 -0.26200
N 	N 	0.63440 0.91760 0.15989 -0.23200
N 	N 	0.45630 0.80980 0.00634 -0.22300
N 	N 	0.65410 0.66560 0.06072 -0.25100
N 	N 	0.72760 0.63600 0.06235 -0.26400
N 	N 	0.01170 0.57970 0.02030 -0.23100
C 	C 	0.33280 0.22220 0.21710 -0.11100
H 	H 	0.34160 0.18880 0.20910 0.02400
C 	C 	0.40230 0.25520 0.22490 0.05600
H 	H 	0.45690 0.24330 0.22140 -0.00900
C 	C 	0.31610 0.31780 0.24220 0.06000
H 	H 	0.30910 0.35050 0.25150 -0.01500
C 	C 	0.24320 0.28760 0.23450 -0.11800
H 	H 	0.18920 0.30020 0.23830 0.06400
C 	C 	0.25120 0.23860 0.22104 0.01200
C 	C 	0.17200 0.20790 0.21120 0.04300
C 	C 	0.08770 0.22260 0.21510 -0.12700
H 	H 	0.07030 0.25230 0.22570 0.06700
C 	C 	0.03510 0.18400 0.19994 0.04400
C 	C 	0.94100 0.18210 0.19500 0.03300
C 	C 	0.89440 0.22810 0.19580 -0.11900
H 	H 	0.92380 0.25940 0.20030 0.06900
C 	C 	0.80700 0.22870 0.19030 0.06500
H 	H 	0.77830 0.26060 0.19000 0.00900
C 	C 	0.80410 0.14130 0.18360 0.06800
H 	H 	0.77400 0.11030 0.17900 -0.01400
C 	C 	0.89560 0.13940 0.18830 -0.12700
H 	H 	0.92370 0.10760 0.18660 0.01200
C 	C 	0.46840 0.08130 0.17290 -0.11200
H 	H 	0.41860 0.07880 0.18340 0.03200
C 	C 	0.53370 0.04390 0.17860 0.06600
H 	H 	0.52640 0.01740 0.19370 -0.00900
C 	C 	0.61490 0.08270 0.14290 0.04900
H 	H 	0.66400 0.08290 0.13190 -0.01500
C 	C 	0.55480 0.12260 0.13670 -0.10800
H 	H 	0.56560 0.14990 0.12270 0.06200
C 	C 	0.47870 0.12190 0.15130 0.00500
C 	C 	0.41690 0.16390 0.14340 0.06300
C 	C 	0.43460 0.21130 0.13000 -0.13900
H 	H 	0.48830 0.22390 0.12580 0.07200
C 	C 	0.35670 0.23650 0.12410 0.05500
C 	C 	0.34140 0.28900 0.10970 0.05400
C 	C 	0.40120 0.32520 0.11480 -0.17800
H 	H 	0.45140 0.31870 0.12870 0.08500
C 	C 	0.38860 0.37370 0.09900 0.12800
H 	H 	0.43440 0.39720 0.10230 -0.05100
C 	C 	0.26520 0.35550 0.07850 0.09200
H 	H 	0.21340 0.36550 0.06670 -0.02500
C 	C 	0.27020 0.30300 0.09170 -0.15200
H 	H 	0.22430 0.27980 0.08750 0.02900
C 	C 	0.21530 0.02670 0.22930 -0.10700
H 	H 	0.17930 0.05150 0.21830 0.00200
C 	C 	0.21780 0.02150 0.26280 0.05100
H 	H 	0.18430 0.04420 0.27380 -0.01700
C 	C 	0.31030 0.95340 0.26350 0.04600
H 	H 	0.34270 0.92720 0.27480 -0.00800
C 	C 	0.31100 0.95650 0.23030 -0.10500
H 	H 	0.34250 0.93220 0.21960 0.06000
C 	C 	0.26570 0.99540 0.21201 -0.00400
C 	C 	0.27140 0.99980 0.17689 0.07100
C 	C 	0.29370 0.96070 0.15609 -0.14000
H 	H 	0.30530 0.92580 0.16140 0.07300
C 	C 	0.29510 0.98440 0.12558 0.07200
C 	C 	0.31400 0.96010 0.09412 0.01100
C 	C 	0.29200 0.90920 0.08735 -0.12100
H 	H 	0.26500 0.88950 0.10240 0.06200
C 	C 	0.31050 0.88710 0.05770 0.05900
H 	H 	0.29440 0.85260 0.05330 -0.02400
C 	C 	0.37220 0.96300 0.04250 0.05000
H 	H 	0.40030 0.98190 0.02740 -0.01200
C 	C 	0.35460 0.98710 0.07130 -0.11900
H 	H 	0.37040 0.02180 0.07530 0.02900
C 	C 	0.56650 0.56310 0.02046 -0.11700
H 	H 	0.53560 0.59090 0.02800 0.02200
C 	C 	0.59030 0.56330 0.98860 0.06000
H 	H 	0.57450 0.59210 0.97540 -0.01700
C 	C 	0.65270 0.48450 0.99530 0.08300
H 	H 	0.68130 0.45650 0.98690 -0.04900
C 	C 	0.63350 0.48050 0.02660 -0.14100
H 	H 	0.64940 0.45070 0.03880 0.06900
C 	C 	0.58980 0.52070 0.04074 0.00300
C 	C 	0.57040 0.51760 0.07508 0.03000
C 	C 	0.57010 0.47290 0.09457 -0.15100
H 	H 	0.57940 0.43860 0.08830 0.06800
C 	C 	0.55320 0.49040 0.12525 0.04800
C 	C 	0.54210 0.46020 0.15519 0.00900
C 	C 	0.58090 0.41090 0.15978 -0.12000
H 	H 	0.61490 0.39760 0.14440 0.06400
C 	C 	0.56780 0.38230 0.18750 0.06400
H 	H 	0.59340 0.34950 0.19000 -0.01700
C 	C 	0.48240 0.44520 0.20550 0.04900
H 	H 	0.44660 0.45680 0.22070 -0.01900
C 	C 	0.49280 0.47660 0.17880 -0.12600
H 	H 	0.46610 0.50910 0.17690 0.01800
C 	C 	0.33120 0.63750 0.08430 -0.14600
H 	H 	0.36210 0.61570 0.09960 0.03200
C 	C 	0.26170 0.61770 0.06350 0.08200
H 	H 	0.24630 0.58290 0.06610 -0.05300
C 	C 	0.23740 0.69500 0.03930 0.06500
H 	H 	0.20450 0.71600 0.02410 -0.02700
C 	C 	0.30370 0.71800 0.05880 -0.12700
H 	H 	0.31540 0.75340 0.05630 0.06300
C 	C 	0.35400 0.68860 0.08250 0.01800
C 	C 	0.42530 0.71520 0.10256 0.06600
C 	C 	0.42690 0.76600 0.11450 -0.13400
H 	H 	0.38120 0.78960 0.11350 0.07200
C 	C 	0.51140 0.77430 0.12845 0.06600
C 	C 	0.55240 0.82300 0.14072 0.01600
C 	C 	0.51440 0.87060 0.13470 -0.12800
H 	H 	0.45910 0.87220 0.12350 0.07100
C 	C 	0.55500 0.91540 0.14470 0.07100
H 	H 	0.52530 0.94670 0.14050 -0.01200
C 	C 	0.67230 0.87220 0.16530 0.06200
H 	H 	0.72890 0.87180 0.17540 -0.02100
C 	C 	0.63380 0.82550 0.15710 -0.11400
H 	H 	0.66350 0.79470 0.16270 0.00900
C 	C 	0.55140 0.76450 0.04630 -0.11800
H 	H 	0.57390 0.76130 0.06820 0.03800
C 	C 	0.49030 0.80180 0.03750 0.05900
H 	H 	0.47150 0.82270 0.05390 -0.01000
C 	C 	0.48210 0.77800 0.98400 0.06800
H 	H 	0.45760 0.78140 0.96230 -0.01300
C 	C 	0.54500 0.73930 0.99160 -0.12000
H 	H 	0.56300 0.71870 0.97480 0.06700
C 	C 	0.57990 0.73170 0.02332 0.01500
C 	C 	0.64920 0.69270 0.03210 0.06500
C 	C 	0.71890 0.67990 0.01525 -0.14300
H 	H 	0.73070 0.69250 0.99490 0.08000
C 	C 	0.76670 0.64470 0.03520 0.07200
C 	C 	0.85060 0.62110 0.03074 0.00800
C 	C 	0.86460 0.59740 0.00090 -0.11200
H 	H 	0.81970 0.59440 0.98400 0.04300
C 	C 	0.94520 0.57850 0.99670 0.05100
H 	H 	0.95390 0.56420 0.97650 -0.01000
C 	C 	0.99590 0.59770 0.04890 0.07600
H 	H 	0.04040 0.59640 0.06610 -0.03000
C 	C 	0.91790 0.61860 0.05570 -0.13900
H 	H 	0.91090 0.63070 0.07670 0.04400
N 	N 	0.30420 0.49810 0.10910 -0.22100
C 	C 	0.27750 0.49910 0.13400 -0.18800
N 	N 	0.72250 0.50090 0.86600 -0.20600
C 	C 	0.69580 0.50190 0.89090 -0.20800
Cu	Cu	0.74577 0.61813 0.17109 0.75000
Cu	Cu	0.06396 0.13594 0.08911 0.74600
Cu	Cu	0.56249 0.59474 0.15668 0.74300
Cu	Cu	0.67542 0.71428 0.13084 0.75900
Cu	Cu	0.75151 0.58821 0.09673 0.76600
Cu	Cu	0.20687 0.48831 0.16948 0.84100
Cu	Cu	0.87683 0.37771 0.99395 0.84200
Cu	Cu	0.16580 0.02851 0.93131 0.82500
N 	N 	0.89580 0.80330 0.23735 -0.23500
N 	N 	0.67030 0.66180 0.19473 -0.26800
N 	N 	0.58570 0.64690 0.18832 -0.27400
N 	N 	0.26030 0.68430 0.18520 -0.13100
N 	N 	0.10470 0.54390 0.16416 -0.22600
N 	N 	0.83150 0.66030 0.14605 -0.25700
N 	N 	0.79460 0.70590 0.13364 -0.26900
N 	N 	0.82550 0.88890 0.08180 -0.25700
N 	N 	0.76490 0.48620 0.28073 -0.23800
N 	N 	0.75970 0.54480 0.15988 -0.26200
N 	N 	0.77450 0.53500 0.12803 -0.25700
N 	N 	0.85000 0.41310 0.03568 -0.24400
N 	N 	0.13430 0.02490 0.97572 -0.26700
N 	N 	0.05720 0.06040 0.09322 -0.27700
N 	N 	0.04570 0.04340 0.12419 -0.27400
N 	N 	0.02150 0.89850 0.21063 -0.23900
N 	N 	0.71700 0.14510 0.04062 -0.25700
N 	N 	0.00390 0.19350 0.10867 -0.26700
N 	N 	0.05820 0.22990 0.12484 -0.26000
N 	N 	0.13440 0.41760 0.15989 -0.23700
N 	N 	0.95630 0.30980 0.00634 -0.22900
N 	N 	0.15410 0.16560 0.06072 -0.25100
N 	N 	0.22760 0.13600 0.06235 -0.26500
N 	N 	0.51170 0.07970 0.02030 -0.21600
C 	C 	0.83280 0.72220 0.21710 -0.10900
H 	H 	0.84160 0.68880 0.20910 0.02400
C 	C 	0.90230 0.75520 0.22490 0.05600
H 	H 	0.95690 0.74330 0.22140 -0.00600
C 	C 	0.81610 0.81780 0.24220 0.06000
H 	H 	0.80910 0.85050 0.25150 -0.01500
C 	C 	0.74320 0.78760 0.23450 -0.11700
H 	H 	0.68920 0.80020 0.23830 0.06500
C 	C 	0.75120 0.73860 0.22104 0.01100
C 	C 	0.67200 0.70790 0.21120 0.04600
C 	C 	0.58770 0.72260 0.21510 -0.13400
H 	H 	0.57030 0.75230 0.22570 0.07200
C 	C 	0.53510 0.68400 0.19994 0.05900
C 	C 	0.44100 0.68210 0.19500 0.01500
C 	C 	0.39440 0.72810 0.19580 -0.10900
H 	H 	0.42380 0.75940 0.20030 0.06300
C 	C 	0.30700 0.72870 0.19030 0.05900
H 	H 	0.27830 0.76060 0.19000 0.01000
C 	C 	0.30410 0.64130 0.18360 0.06200
H 	H 	0.27400 0.61030 0.17900 -0.01200
C 	C 	0.39560 0.63940 0.18830 -0.11600
H 	H 	0.42370 0.60760 0.18660 0.00600
C 	C 	0.96840 0.58130 0.17290 -0.10100
H 	H 	0.91860 0.57880 0.18340 0.03000
C 	C 	0.03370 0.54390 0.17860 0.05400
H 	H 	0.02640 0.51740 0.19370 -0.00800
C 	C 	0.11490 0.58270 0.14290 0.05200
H 	H 	0.16400 0.58290 0.13190 -0.01600
C 	C 	0.05480 0.62260 0.13670 -0.12000
H 	H 	0.06560 0.64990 0.12270 0.06300
C 	C 	0.97870 0.62190 0.15130 0.01200
C 	C 	0.91690 0.66390 0.14340 0.06200
C 	C 	0.93460 0.71130 0.13000 -0.13800
H 	H 	0.98830 0.72390 0.12580 0.07400
C 	C 	0.85670 0.73650 0.12410 0.05500
C 	C 	0.84140 0.78900 0.10970 0.05400
C 	C 	0.90120 0.82520 0.11480 -0.17700
H 	H 	0.95140 0.81870 0.12870 0.08700
C 	C 	0.88860 0.87370 0.09900 0.12800
H 	H 	0.93440 0.89720 0.10230 -0.04800
C 	C 	0.76520 0.85550 0.07850 0.09200
H 	H 	0.71340 0.86550 0.06670 -0.02400
C 	C 	0.77020 0.80300 0.09170 -0.15100
H 	H 	0.72430 0.77980 0.08750 0.02900
C 	C 	0.71530 0.52670 0.22930 -0.10700
H 	H 	0.67930 0.55150 0.21830 0.00300
C 	C 	0.71780 0.52150 0.26280 0.05100
H 	H 	0.68430 0.54420 0.27380 -0.01700
C 	C 	0.81030 0.45340 0.26350 0.04700
H 	H 	0.84270 0.42720 0.27480 -0.00800
C 	C 	0.81100 0.45650 0.23030 -0.10500
H 	H 	0.84250 0.43220 0.21960 0.06100
C 	C 	0.76570 0.49540 0.21201 -0.00300
C 	C 	0.77140 0.49980 0.17689 0.07100
C 	C 	0.79370 0.46070 0.15609 -0.14000
H 	H 	0.80530 0.42580 0.16140 0.07400
C 	C 	0.79510 0.48440 0.12558 0.07200
C 	C 	0.81400 0.46010 0.09412 0.01100
C 	C 	0.79200 0.40920 0.08735 -0.12100
H 	H 	0.76500 0.38950 0.10240 0.06200
C 	C 	0.81050 0.38710 0.05770 0.06000
H 	H 	0.79440 0.35260 0.05330 -0.02400
C 	C 	0.87220 0.46300 0.04250 0.05100
H 	H 	0.90030 0.48190 0.02740 -0.01100
C 	C 	0.85460 0.48710 0.07130 -0.11800
H 	H 	0.87040 0.52180 0.07530 0.03000
C 	C 	0.06650 0.06310 0.02046 -0.11700
H 	H 	0.03560 0.09090 0.02800 0.02000
C 	C 	0.09030 0.06330 0.98860 0.05800
H 	H 	0.07450 0.09210 0.97540 -0.01800
C 	C 	0.15270 0.98450 0.99530 0.08100
H 	H 	0.18130 0.95650 0.98690 -0.04900
C 	C 	0.13350 0.98050 0.02660 -0.14200
H 	H 	0.14940 0.95070 0.03880 0.06900
C 	C 	0.08980 0.02070 0.04074 0.00200
C 	C 	0.07040 0.01760 0.07508 0.03000
C 	C 	0.07010 0.97290 0.09457 -0.15300
H 	H 	0.07940 0.93860 0.08830 0.06800
C 	C 	0.05320 0.99040 0.12525 0.05000
C 	C 	0.04210 0.96020 0.15519 -0.00400
C 	C 	0.08090 0.91090 0.15978 -0.11500
H 	H 	0.11490 0.89760 0.14440 0.06200
C 	C 	0.06780 0.88230 0.18750 0.05900
H 	H 	0.09340 0.84950 0.19000 -0.01700
C 	C 	0.98240 0.94520 0.20550 0.05200
H 	H 	0.94660 0.95680 0.22070 -0.01800
C 	C 	0.99280 0.97660 0.17880 -0.11200
H 	H 	0.96610 0.00910 0.17690 0.01600
C 	C 	0.83120 0.13750 0.08430 -0.14600
H 	H 	0.86210 0.11570 0.09960 0.03400
C 	C 	0.76170 0.11770 0.06350 0.08300
H 	H 	0.74630 0.08290 0.06610 -0.05300
C 	C 	0.73740 0.19500 0.03930 0.06600
H 	H 	0.70450 0.21600 0.02410 -0.02700
C 	C 	0.80370 0.21800 0.05880 -0.12700
H 	H 	0.81540 0.25340 0.05630 0.06400
C 	C 	0.85400 0.18860 0.08250 0.02000
C 	C 	0.92530 0.21520 0.10256 0.06800
C 	C 	0.92690 0.26600 0.11450 -0.11900
H 	H 	0.88120 0.28960 0.11350 0.06700
C 	C 	0.01140 0.27430 0.12845 0.04800
C 	C 	0.05240 0.32300 0.14072 0.03300
C 	C 	0.01440 0.37060 0.13470 -0.16000
H 	H 	0.95910 0.37220 0.12350 0.08700
C 	C 	0.05500 0.41540 0.14470 0.08700
H 	H 	0.02530 0.44670 0.14050 -0.02000
C 	C 	0.17230 0.37220 0.16530 0.07000
H 	H 	0.22890 0.37180 0.17540 -0.02400
C 	C 	0.13380 0.32550 0.15710 -0.12700
H 	H 	0.16350 0.29470 0.16270 0.01400
C 	C 	0.05140 0.26450 0.04630 -0.14600
H 	H 	0.07390 0.26130 0.06820 0.04600
C 	C 	0.99030 0.30180 0.03750 0.08300
H 	H 	0.97150 0.32270 0.05390 -0.01600
C 	C 	0.98210 0.27800 0.98400 0.09000
H 	H 	0.95760 0.28140 0.96230 -0.01800
C 	C 	0.04500 0.23930 0.99160 -0.14600
H 	H 	0.06300 0.21870 0.97480 0.07400
C 	C 	0.07990 0.23170 0.02332 0.03200
C 	C 	0.14920 0.19270 0.03210 0.05900
C 	C 	0.21890 0.17990 0.01525 -0.14200
H 	H 	0.23070 0.19250 0.99490 0.07900
C 	C 	0.26670 0.14470 0.03520 0.07600
C 	C 	0.35060 0.12110 0.03074 -0.00400
C 	C 	0.36460 0.09740 0.00090 -0.10000
H 	H 	0.31970 0.09440 0.98400 0.03900
C 	C 	0.44520 0.07850 0.99670 0.03500
H 	H 	0.45390 0.06420 0.97650 -0.00700
C 	C 	0.49590 0.09770 0.04890 0.04100
H 	H 	0.54040 0.09640 0.06610 -0.01400
C 	C 	0.41790 0.11860 0.05570 -0.11900
H 	H 	0.41090 0.13070 0.07670 0.03500
N 	N 	0.80420 0.99810 0.10910 -0.22000
C 	C 	0.77750 0.99910 0.13400 -0.18700
N 	N 	0.22250 0.00090 0.86600 -0.20600
C 	C 	0.19580 0.00190 0.89090 -0.21000
Cu	Cu	0.75423 0.11813 0.32891 0.75000
Cu	Cu	0.43604 0.63594 0.41089 0.74700
Cu	Cu	0.93751 0.09474 0.34332 0.74500
Cu	Cu	0.82458 0.21428 0.36916 0.76000
Cu	Cu	0.74849 0.08821 0.40327 0.76600
Cu	Cu	0.29313 0.98831 0.33052 0.84100
Cu	Cu	0.62317 0.87771 0.50605 0.84100
Cu	Cu	0.33420 0.52851 0.56869 0.82600
N 	N 	0.60420 0.30330 0.26265 -0.23700
N 	N 	0.82970 0.16180 0.30527 -0.26800
N 	N 	0.91430 0.14690 0.31168 -0.27500
N 	N 	0.23970 0.18430 0.31480 -0.12900
N 	N 	0.39530 0.04390 0.33584 -0.22700
N 	N 	0.66850 0.16030 0.35395 -0.25800
N 	N 	0.70540 0.20590 0.36636 -0.26900
N 	N 	0.67450 0.38890 0.41820 -0.25700
N 	N 	0.73510 0.98620 0.21927 -0.23800
N 	N 	0.74030 0.04480 0.34012 -0.26200
N 	N 	0.72550 0.03500 0.37197 -0.25700
N 	N 	0.65000 0.91310 0.46432 -0.24400
N 	N 	0.36570 0.52490 0.52428 -0.26700
N 	N 	0.44280 0.56040 0.40678 -0.27600
N 	N 	0.45430 0.54340 0.37581 -0.27200
N 	N 	0.47850 0.39850 0.28937 -0.23600
N 	N 	0.78300 0.64510 0.45938 -0.25700
N 	N 	0.49610 0.69350 0.39133 -0.26300
N 	N 	0.44180 0.72990 0.37516 -0.26200
N 	N 	0.36560 0.91760 0.34011 -0.23200
N 	N 	0.54370 0.80980 0.49366 -0.22300
N 	N 	0.34590 0.66560 0.43928 -0.25200
N 	N 	0.27240 0.63600 0.43765 -0.26600
N 	N 	0.98830 0.57970 0.47970 -0.20100
C 	C 	0.66720 0.22220 0.28290 -0.10900
H 	H 	0.65840 0.18880 0.29090 0.02400
C 	C 	0.59770 0.25520 0.27510 0.05500
H 	H 	0.54310 0.24330 0.27860 -0.00900
C 	C 	0.68390 0.31780 0.25780 0.05900
H 	H 	0.69090 0.35050 0.24850 -0.01500
C 	C 	0.75680 0.28760 0.26550 -0.11700
H 	H 	0.81080 0.30020 0.26170 0.06500
C 	C 	0.74880 0.23860 0.27896 0.01000
C 	C 	0.82800 0.20790 0.28880 0.04900
C 	C 	0.91230 0.22260 0.28490 -0.14000
H 	H 	0.92970 0.25230 0.27430 0.07600
C 	C 	0.96490 0.18400 0.30006 0.07300
C 	C 	0.05900 0.18210 0.30500 -0.00300
C 	C 	0.10560 0.22810 0.30420 -0.09900
H 	H 	0.07620 0.25940 0.29970 0.05700
C 	C 	0.19300 0.22870 0.30970 0.05200
H 	H 	0.22170 0.26060 0.31000 0.01300
C 	C 	0.19590 0.14130 0.31640 0.05600
H 	H 	0.22600 0.11030 0.32100 -0.01000
C 	C 	0.10440 0.13940 0.31170 -0.10500
H 	H 	0.07630 0.10760 0.31340 -0.00000
C 	C 	0.53160 0.08130 0.32710 -0.11200
H 	H 	0.58140 0.07880 0.31660 0.03200
C 	C 	0.46630 0.04390 0.32140 0.06600
H 	H 	0.47360 0.01740 0.30630 -0.00900
C 	C 	0.38510 0.08270 0.35710 0.04900
H 	H 	0.33600 0.08290 0.36810 -0.01500
C 	C 	0.44520 0.12260 0.36330 -0.10800
H 	H 	0.43440 0.14990 0.37730 0.06200
C 	C 	0.52130 0.12190 0.34870 0.00500
C 	C 	0.58310 0.16390 0.35660 0.06300
C 	C 	0.56540 0.21130 0.37000 -0.13900
H 	H 	0.51170 0.22390 0.37420 0.07200
C 	C 	0.64330 0.23650 0.37590 0.05500
C 	C 	0.65860 0.28900 0.39030 0.05400
C 	C 	0.59880 0.32520 0.38520 -0.17800
H 	H 	0.54860 0.31870 0.37130 0.08500
C 	C 	0.61140 0.37370 0.40100 0.12700
H 	H 	0.56560 0.39720 0.39770 -0.05100
C 	C 	0.73480 0.35550 0.42150 0.09200
H 	H 	0.78660 0.36550 0.43330 -0.02400
C 	C 	0.72980 0.30300 0.40830 -0.15100
H 	H 	0.77570 0.27980 0.41250 0.02900
C 	C 	0.78470 0.02670 0.27070 -0.10600
H 	H 	0.82070 0.05150 0.28170 0.00300
C 	C 	0.78220 0.02150 0.23720 0.05100
H 	H 	0.81570 0.04420 0.22620 -0.01700
C 	C 	0.68970 0.95340 0.23650 0.04700
H 	H 	0.65730 0.92720 0.22520 -0.00800
C 	C 	0.68900 0.95650 0.26970 -0.10500
H 	H 	0.65750 0.93220 0.28040 0.06000
C 	C 	0.73430 0.99540 0.28799 -0.00300
C 	C 	0.72860 0.99980 0.32311 0.07100
C 	C 	0.70630 0.96070 0.34391 -0.14000
H 	H 	0.69470 0.92580 0.33860 0.07400
C 	C 	0.70490 0.98440 0.37442 0.07200
C 	C 	0.68600 0.96010 0.40588 0.01100
C 	C 	0.70800 0.90920 0.41265 -0.12100
H 	H 	0.73500 0.88950 0.39760 0.06200
C 	C 	0.68950 0.88710 0.44230 0.05900
H 	H 	0.70560 0.85260 0.44670 -0.02300
C 	C 	0.62780 0.96300 0.45750 0.05000
H 	H 	0.59970 0.98190 0.47260 -0.01200
C 	C 	0.64540 0.98710 0.42870 -0.11900
H 	H 	0.62960 0.02180 0.42470 0.02900
C 	C 	0.43350 0.56310 0.47954 -0.11700
H 	H 	0.46440 0.59090 0.47200 0.02200
C 	C 	0.40970 0.56330 0.51140 0.06000
H 	H 	0.42550 0.59210 0.52460 -0.01700
C 	C 	0.34730 0.48450 0.50470 0.08300
H 	H 	0.31870 0.45650 0.51310 -0.04900
C 	C 	0.36650 0.48050 0.47340 -0.14200
H 	H 	0.35060 0.45070 0.46120 0.07000
C 	C 	0.41020 0.52070 0.45926 0.00400
C 	C 	0.42960 0.51760 0.42492 0.03000
C 	C 	0.42990 0.47290 0.40543 -0.15000
H 	H 	0.42060 0.43860 0.41170 0.06800
C 	C 	0.44680 0.49040 0.37475 0.04800
C 	C 	0.45790 0.46020 0.34481 0.00900
C 	C 	0.41910 0.41090 0.34022 -0.12000
H 	H 	0.38510 0.39760 0.35560 0.06400
C 	C 	0.43220 0.38230 0.31250 0.06400
H 	H 	0.40660 0.34950 0.31000 -0.01700
C 	C 	0.51760 0.44520 0.29450 0.04900
H 	H 	0.55340 0.45680 0.27930 -0.01900
C 	C 	0.50720 0.47660 0.32120 -0.12600
H 	H 	0.53390 0.50910 0.32310 0.01800
C 	C 	0.66880 0.63750 0.41570 -0.14600
H 	H 	0.63790 0.61570 0.40040 0.03200
C 	C 	0.73830 0.61770 0.43650 0.08200
H 	H 	0.75370 0.58290 0.43390 -0.05300
C 	C 	0.76260 0.69500 0.46070 0.06600
H 	H 	0.79550 0.71600 0.47590 -0.02600
C 	C 	0.69630 0.71800 0.44120 -0.12700
H 	H 	0.68460 0.75340 0.44370 0.06400
C 	C 	0.64600 0.68860 0.41750 0.01800
C 	C 	0.57470 0.71520 0.39744 0.06600
C 	C 	0.57310 0.76600 0.38550 -0.13400
H 	H 	0.61880 0.78960 0.38650 0.07200
C 	C 	0.48860 0.77430 0.37155 0.06600
C 	C 	0.44760 0.82300 0.35928 0.01600
C 	C 	0.48560 0.87060 0.36530 -0.12800
H 	H 	0.54090 0.87220 0.37650 0.07100
C 	C 	0.44500 0.91540 0.35530 0.07100
H 	H 	0.47470 0.94670 0.35950 -0.01200
C 	C 	0.32770 0.87220 0.33470 0.06300
H 	H 	0.27110 0.87180 0.32460 -0.02100
C 	C 	0.36620 0.82550 0.34290 -0.11400
H 	H 	0.33650 0.79470 0.33730 0.00900
C 	C 	0.44860 0.76450 0.45370 -0.11700
H 	H 	0.42610 0.76130 0.43180 0.03800
C 	C 	0.50970 0.80180 0.46250 0.05800
H 	H 	0.52850 0.82270 0.44610 -0.01000
C 	C 	0.51790 0.77800 0.51600 0.06800
H 	H 	0.54240 0.78140 0.53770 -0.01300
C 	C 	0.45500 0.73930 0.50840 -0.11900
H 	H 	0.43700 0.71870 0.52520 0.06700
C 	C 	0.42010 0.73170 0.47668 0.01400
C 	C 	0.35080 0.69270 0.46790 0.06700
C 	C 	0.28110 0.67990 0.48475 -0.14900
H 	H 	0.26930 0.69250 0.50510 0.08200
C 	C 	0.23330 0.64470 0.46480 0.08200
C 	C 	0.14940 0.62110 0.46926 -0.01800
C 	C 	0.13540 0.59740 0.49910 -0.08700
H 	H 	0.18030 0.59440 0.51600 0.03400
C 	C 	0.05480 0.57850 0.50330 0.01900
H 	H 	0.04610 0.56420 0.52350 -0.00400
C 	C 	0.00410 0.59770 0.45110 0.00600
H 	H 	0.95960 0.59640 0.43390 0.00300
C 	C 	0.08210 0.61860 0.44430 -0.09800
H 	H 	0.08910 0.63070 0.42330 0.02700
N 	N 	0.69580 0.49810 0.39090 -0.22100
C 	C 	0.72250 0.49910 0.36600 -0.18700
N 	N 	0.27750 0.50090 0.63400 -0.20600
C 	C 	0.30420 0.50190 0.60910 -0.20800
Cu	Cu	0.25423 0.61813 0.32891 0.75000
Cu	Cu	0.93604 0.13594 0.41089 0.74800
Cu	Cu	0.43751 0.59474 0.34332 0.74300
Cu	Cu	0.32458 0.71428 0.36916 0.75900
Cu	Cu	0.24849 0.58821 0.40327 0.76600
Cu	Cu	0.79313 0.48831 0.33052 0.84100
Cu	Cu	0.12317 0.37771 0.50605 0.84100
Cu	Cu	0.83420 0.02851 0.56869 0.82600
N 	N 	0.10420 0.80330 0.26265 -0.23800
N 	N 	0.32970 0.66180 0.30527 -0.26800
N 	N 	0.41430 0.64690 0.31168 -0.27400
N 	N 	0.73970 0.68430 0.31480 -0.13000
N 	N 	0.89530 0.54390 0.33584 -0.22800
N 	N 	0.16850 0.66030 0.35395 -0.25800
N 	N 	0.20540 0.70590 0.36636 -0.26900
N 	N 	0.17450 0.88890 0.41820 -0.25700
N 	N 	0.23510 0.48620 0.21927 -0.23800
N 	N 	0.24030 0.54480 0.34012 -0.26200
N 	N 	0.22550 0.53500 0.37197 -0.25800
N 	N 	0.15000 0.41310 0.46432 -0.24400
N 	N 	0.86570 0.02490 0.52428 -0.26600
N 	N 	0.94280 0.06040 0.40678 -0.27600
N 	N 	0.95430 0.04340 0.37581 -0.27000
N 	N 	0.97850 0.89850 0.28937 -0.23100
N 	N 	0.28300 0.14510 0.45938 -0.25700
N 	N 	0.99610 0.19350 0.39133 -0.25900
N 	N 	0.94180 0.22990 0.37516 -0.26400
N 	N 	0.86560 0.41760 0.34011 -0.22700
N 	N 	0.04370 0.30980 0.49366 -0.21700
N 	N 	0.84590 0.16560 0.43928 -0.25300
N 	N 	0.77240 0.13600 0.43765 -0.26500
N 	N 	0.48830 0.07970 0.47970 -0.21600
C 	C 	0.16720 0.72220 0.28290 -0.11100
H 	H 	0.15840 0.68880 0.29090 0.02400
C 	C 	0.09770 0.75520 0.27510 0.05500
H 	H 	0.04310 0.74330 0.27860 -0.01100
C 	C 	0.18390 0.81780 0.25780 0.05900
H 	H 	0.19090 0.85050 0.24850 -0.01500
C 	C 	0.25680 0.78760 0.26550 -0.11700
H 	H 	0.31080 0.80020 0.26170 0.06500
C 	C 	0.24880 0.73860 0.27896 0.01100
C 	C 	0.32800 0.70790 0.28880 0.04600
C 	C 	0.41230 0.72260 0.28490 -0.13400
H 	H 	0.42970 0.75230 0.27430 0.07200
C 	C 	0.46490 0.68400 0.30006 0.05900
C 	C 	0.55900 0.68210 0.30500 0.01500
C 	C 	0.60560 0.72810 0.30420 -0.10900
H 	H 	0.57620 0.75940 0.29970 0.06300
C 	C 	0.69300 0.72870 0.30970 0.05900
H 	H 	0.72170 0.76060 0.31000 0.01100
C 	C 	0.69590 0.64130 0.31640 0.06200
H 	H 	0.72600 0.61030 0.32100 -0.01200
C 	C 	0.60440 0.63940 0.31170 -0.11600
H 	H 	0.57630 0.60760 0.31340 0.00600
C 	C 	0.03160 0.58130 0.32710 -0.12300
H 	H 	0.08140 0.57880 0.31660 0.03400
C 	C 	0.96630 0.54390 0.32140 0.07800
H 	H 	0.97360 0.51740 0.30630 -0.01100
C 	C 	0.88510 0.58270 0.35710 0.04600
H 	H 	0.83600 0.58290 0.36810 -0.01400
C 	C 	0.94520 0.62260 0.36330 -0.09600
H 	H 	0.93440 0.64990 0.37730 0.06000
C 	C 	0.02130 0.62190 0.34870 -0.00200
C 	C 	0.08310 0.66390 0.35660 0.06400
C 	C 	0.06540 0.71130 0.37000 -0.14000
H 	H 	0.01170 0.72390 0.37420 0.07000
C 	C 	0.14330 0.73650 0.37590 0.05400
C 	C 	0.15860 0.78900 0.39030 0.05300
C 	C 	0.09880 0.82520 0.38520 -0.17800
H 	H 	0.04860 0.81870 0.37130 0.08300
C 	C 	0.11140 0.87370 0.40100 0.12700
H 	H 	0.06560 0.89720 0.39770 -0.05300
C 	C 	0.23480 0.85550 0.42150 0.09100
H 	H 	0.28660 0.86550 0.43330 -0.02400
C 	C 	0.22980 0.80300 0.40830 -0.15100
H 	H 	0.27570 0.77980 0.41250 0.02900
C 	C 	0.28470 0.52670 0.27070 -0.10700
H 	H 	0.32070 0.55150 0.28170 0.00200
C 	C 	0.28220 0.52150 0.23720 0.05100
H 	H 	0.31570 0.54420 0.22620 -0.01700
C 	C 	0.18970 0.45340 0.23650 0.04600
H 	H 	0.15730 0.42720 0.22520 -0.00900
C 	C 	0.18900 0.45650 0.26970 -0.10500
H 	H 	0.15750 0.43220 0.28040 0.05900
C 	C 	0.23430 0.49540 0.28799 -0.00400
C 	C 	0.22860 0.49980 0.32311 0.07000
C 	C 	0.20630 0.46070 0.34391 -0.14100
H 	H 	0.19470 0.42580 0.33860 0.07300
C 	C 	0.20490 0.48440 0.37442 0.07100
C 	C 	0.18600 0.46010 0.40588 0.01000
C 	C 	0.20800 0.40920 0.41265 -0.12100
H 	H 	0.23500 0.38950 0.39760 0.06200
C 	C 	0.18950 0.38710 0.44230 0.05900
H 	H 	0.20560 0.35260 0.44670 -0.02400
C 	C 	0.12780 0.46300 0.45750 0.04900
H 	H 	0.09970 0.48190 0.47260 -0.01300
C 	C 	0.14540 0.48710 0.42870 -0.11900
H 	H 	0.12960 0.52180 0.42470 0.02800
C 	C 	0.93350 0.06310 0.47954 -0.11700
H 	H 	0.96440 0.09090 0.47200 0.02300
C 	C 	0.90970 0.06330 0.51140 0.06100
H 	H 	0.92550 0.09210 0.52460 -0.01600
C 	C 	0.84730 0.98450 0.50470 0.08400
H 	H 	0.81870 0.95650 0.51310 -0.04800
C 	C 	0.86650 0.98050 0.47340 -0.14200
H 	H 	0.85060 0.95070 0.46120 0.07000
C 	C 	0.91020 0.02070 0.45926 0.00500
C 	C 	0.92960 0.01760 0.42492 0.03100
C 	C 	0.92990 0.97290 0.40543 -0.14800
H 	H 	0.92060 0.93860 0.41170 0.06900
C 	C 	0.94680 0.99040 0.37475 0.04600
C 	C 	0.95790 0.96020 0.34481 0.02200
C 	C 	0.91910 0.91090 0.34022 -0.12500
H 	H 	0.88510 0.89760 0.35560 0.06700
C 	C 	0.93220 0.88230 0.31250 0.06900
H 	H 	0.90660 0.84950 0.31000 -0.01700
C 	C 	0.01760 0.94520 0.29450 0.04500
H 	H 	0.05340 0.95680 0.27930 -0.01900
C 	C 	0.00720 0.97660 0.32120 -0.14000
H 	H 	0.03390 0.00910 0.32310 0.02100
C 	C 	0.16880 0.13750 0.41570 -0.14600
H 	H 	0.13790 0.11570 0.40040 0.03000
C 	C 	0.23830 0.11770 0.43650 0.08200
H 	H 	0.25370 0.08290 0.43390 -0.05300
C 	C 	0.26260 0.19500 0.46070 0.06500
H 	H 	0.29550 0.21600 0.47590 -0.02700
C 	C 	0.19630 0.21800 0.44120 -0.12700
H 	H 	0.18460 0.25340 0.44370 0.06300
C 	C 	0.14600 0.18860 0.41750 0.01700
C 	C 	0.07470 0.21520 0.39744 0.06300
C 	C 	0.07310 0.26600 0.38550 -0.14900
H 	H 	0.11880 0.28960 0.38650 0.07600
C 	C 	0.98860 0.27430 0.37155 0.08400
C 	C 	0.94760 0.32300 0.35928 -0.00100
C 	C 	0.98560 0.37060 0.36530 -0.09600
H 	H 	0.04090 0.37220 0.37650 0.05400
C 	C 	0.94500 0.41540 0.35530 0.05500
H 	H 	0.97470 0.44670 0.35950 -0.00400
C 	C 	0.82770 0.37220 0.33470 0.05500
H 	H 	0.77110 0.37180 0.32460 -0.01800
C 	C 	0.86620 0.32550 0.34290 -0.10200
H 	H 	0.83650 0.29470 0.33730 0.00500
C 	C 	0.94860 0.26450 0.45370 -0.08900
H 	H 	0.92610 0.26130 0.43180 0.02900
C 	C 	0.00970 0.30180 0.46250 0.03400
H 	H 	0.02850 0.32270 0.44610 -0.00400
C 	C 	0.01790 0.27800 0.51600 0.04600
H 	H 	0.04240 0.28140 0.53770 -0.00800
C 	C 	0.95500 0.23930 0.50840 -0.09400
H 	H 	0.93700 0.21870 0.52520 0.05900
C 	C 	0.92010 0.23170 0.47668 -0.00300
C 	C 	0.85080 0.19270 0.46790 0.07300
C 	C 	0.78110 0.17990 0.48475 -0.15000
H 	H 	0.76930 0.19250 0.50510 0.08300
C 	C 	0.73330 0.14470 0.46480 0.07900
C 	C 	0.64940 0.12110 0.46926 -0.00600
C 	C 	0.63540 0.09740 0.49910 -0.09900
H 	H 	0.68030 0.09440 0.51600 0.03900
C 	C 	0.55480 0.07850 0.50330 0.03500
H 	H 	0.54610 0.06420 0.52350 -0.00700
C 	C 	0.50410 0.09770 0.45110 0.04100
H 	H 	0.45960 0.09640 0.43390 -0.01300
C 	C 	0.58210 0.11860 0.44430 -0.11800
H 	H 	0.58910 0.13070 0.42330 0.03500
N 	N 	0.19580 0.99810 0.39090 -0.22100
C 	C 	0.22250 0.99910 0.36600 -0.18800
N 	N 	0.77750 0.00090 0.63400 -0.20600
C 	C 	0.80420 0.00190 0.60910 -0.20700
Cu	Cu	0.75423 0.88187 0.82891 0.75000
Cu	Cu	0.43604 0.36406 0.91089 0.74700
Cu	Cu	0.93751 0.90526 0.84332 0.74500
Cu	Cu	0.82458 0.78572 0.86916 0.76000
Cu	Cu	0.74849 0.91179 0.90327 0.76600
Cu	Cu	0.29313 0.01169 0.83052 0.84300
Cu	Cu	0.62317 0.12229 0.00605 0.84200
Cu	Cu	0.33420 0.47149 0.06869 0.82700
N 	N 	0.60420 0.69670 0.76265 -0.23700
N 	N 	0.82970 0.83820 0.80527 -0.26800
N 	N 	0.91430 0.85310 0.81168 -0.27500
N 	N 	0.23970 0.81570 0.81480 -0.12900
N 	N 	0.39530 0.95610 0.83584 -0.22700
N 	N 	0.66850 0.83970 0.85395 -0.25800
N 	N 	0.70540 0.79410 0.86636 -0.26900
N 	N 	0.67450 0.61110 0.91820 -0.25700
N 	N 	0.73510 0.01380 0.71927 -0.23800
N 	N 	0.74030 0.95520 0.84012 -0.26200
N 	N 	0.72550 0.96500 0.87197 -0.25800
N 	N 	0.65000 0.08690 0.96432 -0.24400
N 	N 	0.36570 0.47510 0.02428 -0.26700
N 	N 	0.44280 0.43960 0.90678 -0.27600
N 	N 	0.45430 0.45660 0.87581 -0.27200
N 	N 	0.47850 0.60150 0.78937 -0.23600
N 	N 	0.78300 0.35490 0.95938 -0.25700
N 	N 	0.49610 0.30650 0.89133 -0.26300
N 	N 	0.44180 0.27010 0.87516 -0.26200
N 	N 	0.36560 0.08240 0.84011 -0.23200
N 	N 	0.54370 0.19020 0.99366 -0.22300
N 	N 	0.34590 0.33440 0.93928 -0.25200
N 	N 	0.27240 0.36400 0.93765 -0.26600
N 	N 	0.98830 0.42030 0.97970 -0.20100
C 	C 	0.66720 0.77780 0.78290 -0.10900
H 	H 	0.65840 0.81120 0.79090 0.02400
C 	C 	0.59770 0.74480 0.77510 0.05500
H 	H 	0.54310 0.75670 0.77860 -0.00900
C 	C 	0.68390 0.68220 0.75780 0.05900
H 	H 	0.69090 0.64950 0.74850 -0.01500
C 	C 	0.75680 0.71240 0.76550 -0.11700
H 	H 	0.81080 0.69980 0.76170 0.06500
C 	C 	0.74880 0.76140 0.77896 0.01000
C 	C 	0.82800 0.79210 0.78880 0.04900
C 	C 	0.91230 0.77740 0.78490 -0.14000
H 	H 	0.92970 0.74770 0.77430 0.07600
C 	C 	0.96490 0.81600 0.80006 0.07300
C 	C 	0.05900 0.81790 0.80500 -0.00300
C 	C 	0.10560 0.77190 0.80420 -0.09900
H 	H 	0.07620 0.74060 0.79970 0.05700
C 	C 	0.19300 0.77130 0.80970 0.05200
H 	H 	0.22170 0.73940 0.81000 0.01300
C 	C 	0.19590 0.85870 0.81640 0.05500
H 	H 	0.22600 0.88970 0.82100 -0.01000
C 	C 	0.10440 0.86060 0.81170 -0.10500
H 	H 	0.07630 0.89240 0.81340 -0.00000
C 	C 	0.53160 0.91870 0.82710 -0.11200
H 	H 	0.58140 0.92120 0.81660 0.03200
C 	C 	0.46630 0.95610 0.82140 0.06600
H 	H 	0.47360 0.98260 0.80630 -0.00900
C 	C 	0.38510 0.91730 0.85710 0.05000
H 	H 	0.33600 0.91710 0.86810 -0.01400
C 	C 	0.44520 0.87740 0.86330 -0.10800
H 	H 	0.43440 0.85010 0.87730 0.06200
C 	C 	0.52130 0.87810 0.84870 0.00600
C 	C 	0.58310 0.83610 0.85660 0.06300
C 	C 	0.56540 0.78870 0.87000 -0.13900
H 	H 	0.51170 0.77610 0.87420 0.07200
C 	C 	0.64330 0.76350 0.87590 0.05500
C 	C 	0.65860 0.71100 0.89030 0.05300
C 	C 	0.59880 0.67480 0.88520 -0.17700
H 	H 	0.54860 0.68130 0.87130 0.08400
C 	C 	0.61140 0.62630 0.90100 0.12700
H 	H 	0.56560 0.60280 0.89770 -0.05000
C 	C 	0.73480 0.64450 0.92150 0.09100
H 	H 	0.78660 0.63450 0.93330 -0.02400
C 	C 	0.72980 0.69700 0.90830 -0.15100
H 	H 	0.77570 0.72020 0.91250 0.02900
C 	C 	0.78470 0.97330 0.77070 -0.10700
H 	H 	0.82070 0.94850 0.78170 0.00300
C 	C 	0.78220 0.97850 0.73720 0.05100
H 	H 	0.81570 0.95580 0.72620 -0.01600
C 	C 	0.68970 0.04660 0.73650 0.04700
H 	H 	0.65730 0.07280 0.72520 -0.00800
C 	C 	0.68900 0.04350 0.76970 -0.10500
H 	H 	0.65750 0.06780 0.78040 0.06000
C 	C 	0.73430 0.00460 0.78799 -0.00300
C 	C 	0.72860 0.00020 0.82311 0.07100
C 	C 	0.70630 0.03930 0.84391 -0.14100
H 	H 	0.69470 0.07420 0.83860 0.07400
C 	C 	0.70490 0.01560 0.87442 0.07200
C 	C 	0.68600 0.03990 0.90588 0.01000
C 	C 	0.70800 0.09080 0.91265 -0.12100
H 	H 	0.73500 0.11050 0.89760 0.06200
C 	C 	0.68950 0.11290 0.94230 0.05900
H 	H 	0.70560 0.14740 0.94670 -0.02300
C 	C 	0.62780 0.03700 0.95750 0.05000
H 	H 	0.59970 0.01810 0.97260 -0.01200
C 	C 	0.64540 0.01290 0.92870 -0.11900
H 	H 	0.62960 0.97820 0.92470 0.02900
C 	C 	0.43350 0.43690 0.97954 -0.11700
H 	H 	0.46440 0.40910 0.97200 0.02200
C 	C 	0.40970 0.43670 0.01140 0.06000
H 	H 	0.42550 0.40790 0.02460 -0.01700
C 	C 	0.34730 0.51550 0.00470 0.08300
H 	H 	0.31870 0.54350 0.01310 -0.04900
C 	C 	0.36650 0.51950 0.97340 -0.14200
H 	H 	0.35060 0.54930 0.96120 0.07000
C 	C 	0.41020 0.47930 0.95926 0.00400
C 	C 	0.42960 0.48240 0.92492 0.03000
C 	C 	0.42990 0.52710 0.90543 -0.15000
H 	H 	0.42060 0.56140 0.91170 0.06800
C 	C 	0.44680 0.50960 0.87475 0.04800
C 	C 	0.45790 0.53980 0.84481 0.00900
C 	C 	0.41910 0.58910 0.84022 -0.12000
H 	H 	0.38510 0.60240 0.85560 0.06400
C 	C 	0.43220 0.61770 0.81250 0.06400
H 	H 	0.40660 0.65050 0.81000 -0.01700
C 	C 	0.51760 0.55480 0.79450 0.04900
H 	H 	0.55340 0.54320 0.77930 -0.01900
C 	C 	0.50720 0.52340 0.82120 -0.12500
H 	H 	0.53390 0.49090 0.82310 0.01900
C 	C 	0.66880 0.36250 0.91570 -0.14600
H 	H 	0.63790 0.38430 0.90040 0.03200
C 	C 	0.73830 0.38230 0.93650 0.08200
H 	H 	0.75370 0.41710 0.93390 -0.05300
C 	C 	0.76260 0.30500 0.96070 0.06600
H 	H 	0.79550 0.28400 0.97590 -0.02600
C 	C 	0.69630 0.28200 0.94120 -0.12700
H 	H 	0.68460 0.24660 0.94370 0.06400
C 	C 	0.64600 0.31140 0.91750 0.01900
C 	C 	0.57470 0.28480 0.89744 0.06600
C 	C 	0.57310 0.23400 0.88550 -0.13400
H 	H 	0.61880 0.21040 0.88650 0.07200
C 	C 	0.48860 0.22570 0.87155 0.06600
C 	C 	0.44760 0.17700 0.85928 0.01600
C 	C 	0.48560 0.12940 0.86530 -0.12800
H 	H 	0.54090 0.12780 0.87650 0.07100
C 	C 	0.44500 0.08460 0.85530 0.07100
H 	H 	0.47470 0.05330 0.85950 -0.01200
C 	C 	0.32770 0.12780 0.83470 0.06300
H 	H 	0.27110 0.12820 0.82460 -0.02100
C 	C 	0.36620 0.17450 0.84290 -0.11500
H 	H 	0.33650 0.20530 0.83730 0.01000
C 	C 	0.44860 0.23550 0.95370 -0.11700
H 	H 	0.42610 0.23870 0.93180 0.03800
C 	C 	0.50970 0.19820 0.96250 0.05800
H 	H 	0.52850 0.17730 0.94610 -0.01000
C 	C 	0.51790 0.22200 0.01600 0.06800
H 	H 	0.54240 0.21860 0.03770 -0.01300
C 	C 	0.45500 0.26070 0.00840 -0.11900
H 	H 	0.43700 0.28130 0.02520 0.06700
C 	C 	0.42010 0.26830 0.97668 0.01400
C 	C 	0.35080 0.30730 0.96790 0.06700
C 	C 	0.28110 0.32010 0.98475 -0.14900
H 	H 	0.26930 0.30750 0.00510 0.08200
C 	C 	0.23330 0.35530 0.96480 0.08200
C 	C 	0.14940 0.37890 0.96926 -0.01800
C 	C 	0.13540 0.40260 0.99910 -0.08700
H 	H 	0.18030 0.40560 0.01600 0.03400
C 	C 	0.05480 0.42150 0.00330 0.01900
H 	H 	0.04610 0.43580 0.02350 -0.00400
C 	C 	0.00410 0.40230 0.95110 0.00600
H 	H 	0.95960 0.40360 0.93390 0.00300
C 	C 	0.08210 0.38140 0.94430 -0.09800
H 	H 	0.08910 0.36930 0.92330 0.02700
Cu	Cu	0.25423 0.38187 0.82891 0.75000
Cu	Cu	0.93604 0.86406 0.91089 0.74800
Cu	Cu	0.43751 0.40526 0.84332 0.74300
Cu	Cu	0.32458 0.28572 0.86916 0.75900
Cu	Cu	0.24849 0.41179 0.90327 0.76600
Cu	Cu	0.79313 0.51169 0.83052 0.84400
Cu	Cu	0.12317 0.62229 0.00605 0.84100
Cu	Cu	0.83420 0.97149 0.06869 0.82800
N 	N 	0.10420 0.19670 0.76265 -0.23800
N 	N 	0.32970 0.33820 0.80527 -0.26800
N 	N 	0.41430 0.35310 0.81168 -0.27400
N 	N 	0.73970 0.31570 0.81480 -0.13000
N 	N 	0.89530 0.45610 0.83584 -0.22700
N 	N 	0.16850 0.33970 0.85395 -0.25800
N 	N 	0.20540 0.29410 0.86636 -0.26900
N 	N 	0.17450 0.11110 0.91820 -0.25700
N 	N 	0.23510 0.51380 0.71927 -0.23800
N 	N 	0.24030 0.45520 0.84012 -0.26200
N 	N 	0.22550 0.46500 0.87197 -0.25800
N 	N 	0.15000 0.58690 0.96432 -0.24400
N 	N 	0.86570 0.97510 0.02428 -0.26600
N 	N 	0.94280 0.93960 0.90678 -0.27600
N 	N 	0.95430 0.95660 0.87581 -0.27000
N 	N 	0.97850 0.10150 0.78937 -0.23100
N 	N 	0.28300 0.85490 0.95938 -0.25700
N 	N 	0.99610 0.80650 0.89133 -0.25900
N 	N 	0.94180 0.77010 0.87516 -0.26400
N 	N 	0.86560 0.58240 0.84011 -0.22700
N 	N 	0.04370 0.69020 0.99366 -0.21700
N 	N 	0.84590 0.83440 0.93928 -0.25300
N 	N 	0.77240 0.86400 0.93765 -0.26500
N 	N 	0.48830 0.92030 0.97970 -0.21600
C 	C 	0.16720 0.27780 0.78290 -0.11100
H 	H 	0.15840 0.31120 0.79090 0.02400
C 	C 	0.09770 0.24480 0.77510 0.05500
H 	H 	0.04310 0.25670 0.77860 -0.01100
C 	C 	0.18390 0.18220 0.75780 0.05900
H 	H 	0.19090 0.14950 0.74850 -0.01500
C 	C 	0.25680 0.21240 0.76550 -0.11700
H 	H 	0.31080 0.19980 0.76170 0.06500
C 	C 	0.24880 0.26140 0.77896 0.01100
C 	C 	0.32800 0.29210 0.78880 0.04600
C 	C 	0.41230 0.27740 0.78490 -0.13400
H 	H 	0.42970 0.24770 0.77430 0.07200
C 	C 	0.46490 0.31600 0.80006 0.05900
C 	C 	0.55900 0.31790 0.80500 0.01400
C 	C 	0.60560 0.27190 0.80420 -0.10900
H 	H 	0.57620 0.24060 0.79970 0.06300
C 	C 	0.69300 0.27130 0.80970 0.05900
H 	H 	0.72170 0.23940 0.81000 0.01100
C 	C 	0.69590 0.35870 0.81640 0.06200
H 	H 	0.72600 0.38970 0.82100 -0.01100
C 	C 	0.60440 0.36060 0.81170 -0.11600
H 	H 	0.57630 0.39240 0.81340 0.00600
C 	C 	0.03160 0.41870 0.82710 -0.12300
H 	H 	0.08140 0.42120 0.81660 0.03400
C 	C 	0.96630 0.45610 0.82140 0.07800
H 	H 	0.97360 0.48260 0.80630 -0.01100
C 	C 	0.88510 0.41730 0.85710 0.04700
H 	H 	0.83600 0.41710 0.86810 -0.01300
C 	C 	0.94520 0.37740 0.86330 -0.09600
H 	H 	0.93440 0.35010 0.87730 0.06000
C 	C 	0.02130 0.37810 0.84870 -0.00200
C 	C 	0.08310 0.33610 0.85660 0.06400
C 	C 	0.06540 0.28870 0.87000 -0.14000
H 	H 	0.01170 0.27610 0.87420 0.07000
C 	C 	0.14330 0.26350 0.87590 0.05500
C 	C 	0.15860 0.21100 0.89030 0.05300
C 	C 	0.09880 0.17480 0.88520 -0.17700
H 	H 	0.04860 0.18130 0.87130 0.08300
C 	C 	0.11140 0.12630 0.90100 0.12700
H 	H 	0.06560 0.10280 0.89770 -0.05300
C 	C 	0.23480 0.14450 0.92150 0.09100
H 	H 	0.28660 0.13450 0.93330 -0.02400
C 	C 	0.22980 0.19700 0.90830 -0.15100
H 	H 	0.27570 0.22020 0.91250 0.02900
C 	C 	0.28470 0.47330 0.77070 -0.10700
H 	H 	0.32070 0.44850 0.78170 0.00200
C 	C 	0.28220 0.47850 0.73720 0.05100
H 	H 	0.31570 0.45580 0.72620 -0.01700
C 	C 	0.18970 0.54660 0.73650 0.04600
H 	H 	0.15730 0.57280 0.72520 -0.00900
C 	C 	0.18900 0.54350 0.76970 -0.10500
H 	H 	0.15750 0.56780 0.78040 0.05900
C 	C 	0.23430 0.50460 0.78799 -0.00400
C 	C 	0.22860 0.50020 0.82311 0.07000
C 	C 	0.20630 0.53930 0.84391 -0.14100
H 	H 	0.19470 0.57420 0.83860 0.07300
C 	C 	0.20490 0.51560 0.87442 0.07100
C 	C 	0.18600 0.53990 0.90588 0.01000
C 	C 	0.20800 0.59080 0.91265 -0.12100
H 	H 	0.23500 0.61050 0.89760 0.06200
C 	C 	0.18950 0.61290 0.94230 0.05900
H 	H 	0.20560 0.64740 0.94670 -0.02400
C 	C 	0.12780 0.53700 0.95750 0.04900
H 	H 	0.09970 0.51810 0.97260 -0.01300
C 	C 	0.14540 0.51290 0.92870 -0.11900
H 	H 	0.12960 0.47820 0.92470 0.02800
C 	C 	0.93350 0.93690 0.97954 -0.11700
H 	H 	0.96440 0.90910 0.97200 0.02300
C 	C 	0.90970 0.93670 0.01140 0.06200
H 	H 	0.92550 0.90790 0.02460 -0.01600
C 	C 	0.84730 0.01550 0.00470 0.08500
H 	H 	0.81870 0.04350 0.01310 -0.04800
C 	C 	0.86650 0.01950 0.97340 -0.14200
H 	H 	0.85060 0.04930 0.96120 0.07000
C 	C 	0.91020 0.97930 0.95926 0.00500
C 	C 	0.92960 0.98240 0.92492 0.03100
C 	C 	0.92990 0.02710 0.90543 -0.14800
H 	H 	0.92060 0.06140 0.91170 0.06900
C 	C 	0.94680 0.00960 0.87475 0.04600
C 	C 	0.95790 0.03980 0.84481 0.02200
C 	C 	0.91910 0.08910 0.84022 -0.12400
H 	H 	0.88510 0.10240 0.85560 0.06700
C 	C 	0.93220 0.11770 0.81250 0.06900
H 	H 	0.90660 0.15050 0.81000 -0.01700
C 	C 	0.01760 0.05480 0.79450 0.04500
H 	H 	0.05340 0.04320 0.77930 -0.01900
C 	C 	0.00720 0.02340 0.82120 -0.13900
H 	H 	0.03390 0.99090 0.82310 0.02100
C 	C 	0.16880 0.86250 0.91570 -0.14600
H 	H 	0.13790 0.88430 0.90040 0.03000
C 	C 	0.23830 0.88230 0.93650 0.08200
H 	H 	0.25370 0.91710 0.93390 -0.05400
C 	C 	0.26260 0.80500 0.96070 0.06500
H 	H 	0.29550 0.78400 0.97590 -0.02700
C 	C 	0.19630 0.78200 0.94120 -0.12700
H 	H 	0.18460 0.74660 0.94370 0.06300
C 	C 	0.14600 0.81140 0.91750 0.01700
C 	C 	0.07470 0.78480 0.89744 0.06300
C 	C 	0.07310 0.73400 0.88550 -0.14900
H 	H 	0.11880 0.71040 0.88650 0.07600
C 	C 	0.98860 0.72570 0.87155 0.08300
C 	C 	0.94760 0.67700 0.85928 -0.00100
C 	C 	0.98560 0.62940 0.86530 -0.09600
H 	H 	0.04090 0.62780 0.87650 0.05400
C 	C 	0.94500 0.58460 0.85530 0.05500
H 	H 	0.97470 0.55330 0.85950 -0.00400
C 	C 	0.82770 0.62780 0.83470 0.05600
H 	H 	0.77110 0.62820 0.82460 -0.01800
C 	C 	0.86620 0.67450 0.84290 -0.10200
H 	H 	0.83650 0.70530 0.83730 0.00500
C 	C 	0.94860 0.73550 0.95370 -0.08900
H 	H 	0.92610 0.73870 0.93180 0.02900
C 	C 	0.00970 0.69820 0.96250 0.03400
H 	H 	0.02850 0.67730 0.94610 -0.00400
C 	C 	0.01790 0.72200 0.01600 0.04600
H 	H 	0.04240 0.71860 0.03770 -0.00800
C 	C 	0.95500 0.76070 0.00840 -0.09300
H 	H 	0.93700 0.78130 0.02520 0.05900
C 	C 	0.92010 0.76830 0.97668 -0.00300
C 	C 	0.85080 0.80730 0.96790 0.07300
C 	C 	0.78110 0.82010 0.98475 -0.15100
H 	H 	0.76930 0.80750 0.00510 0.08300
C 	C 	0.73330 0.85530 0.96480 0.07900
C 	C 	0.64940 0.87890 0.96926 -0.00500
C 	C 	0.63540 0.90260 0.99910 -0.10000
H 	H 	0.68030 0.90560 0.01600 0.03900
C 	C 	0.55480 0.92150 0.00330 0.03500
H 	H 	0.54610 0.93580 0.02350 -0.00700
C 	C 	0.50410 0.90230 0.95110 0.04100
H 	H 	0.45960 0.90360 0.93390 -0.01300
C 	C 	0.58210 0.88140 0.94430 -0.11800
H 	H 	0.58910 0.86930 0.92330 0.03500
Cu	Cu	0.24577 0.88187 0.67109 0.75000
Cu	Cu	0.56396 0.36406 0.58911 0.74700
Cu	Cu	0.06249 0.90526 0.65668 0.74200
Cu	Cu	0.17542 0.78572 0.63084 0.75900
Cu	Cu	0.25151 0.91179 0.59673 0.76600
Cu	Cu	0.70687 0.01169 0.66948 0.84400
Cu	Cu	0.37683 0.12229 0.49395 0.84100
Cu	Cu	0.66580 0.47149 0.43131 0.82700
N 	N 	0.39580 0.69670 0.73735 -0.23700
N 	N 	0.17030 0.83820 0.69473 -0.26800
N 	N 	0.08570 0.85310 0.68832 -0.27300
N 	N 	0.76030 0.81570 0.68520 -0.13300
N 	N 	0.60470 0.95610 0.66416 -0.22700
N 	N 	0.33150 0.83970 0.64605 -0.25800
N 	N 	0.29460 0.79410 0.63364 -0.26900
N 	N 	0.32550 0.61110 0.58180 -0.25700
N 	N 	0.26490 0.01380 0.78073 -0.23800
N 	N 	0.25970 0.95520 0.65988 -0.26200
N 	N 	0.27450 0.96500 0.62803 -0.25700
N 	N 	0.35000 0.08690 0.53568 -0.24400
N 	N 	0.63430 0.47510 0.47572 -0.26700
N 	N 	0.55720 0.43960 0.59322 -0.27700
N 	N 	0.54570 0.45660 0.62419 -0.27200
N 	N 	0.52150 0.60150 0.71063 -0.23600
N 	N 	0.21700 0.35490 0.54062 -0.25700
N 	N 	0.50390 0.30650 0.60867 -0.26300
N 	N 	0.55820 0.27010 0.62484 -0.26200
N 	N 	0.63440 0.08240 0.65989 -0.23200
N 	N 	0.45630 0.19020 0.50634 -0.22300
N 	N 	0.65410 0.33440 0.56072 -0.25100
N 	N 	0.72760 0.36400 0.56235 -0.26400
N 	N 	0.01170 0.42030 0.52030 -0.23100
C 	C 	0.33280 0.77780 0.71710 -0.11100
H 	H 	0.34160 0.81120 0.70910 0.02400
C 	C 	0.40230 0.74480 0.72490 0.05600
H 	H 	0.45690 0.75670 0.72140 -0.00900
C 	C 	0.31610 0.68220 0.74220 0.06000
H 	H 	0.30910 0.64950 0.75150 -0.01500
C 	C 	0.24320 0.71240 0.73450 -0.11800
H 	H 	0.18920 0.69980 0.73830 0.06400
C 	C 	0.25120 0.76140 0.72104 0.01200
C 	C 	0.17200 0.79210 0.71120 0.04400
C 	C 	0.08770 0.77740 0.71510 -0.12700
H 	H 	0.07030 0.74770 0.72570 0.06700
C 	C 	0.03510 0.81600 0.69994 0.04500
C 	C 	0.94100 0.81790 0.69500 0.03200
C 	C 	0.89440 0.77190 0.69580 -0.11900
H 	H 	0.92380 0.74060 0.70030 0.06900
C 	C 	0.80700 0.77130 0.69030 0.06500
H 	H 	0.77830 0.73940 0.69000 0.00900
C 	C 	0.80410 0.85870 0.68360 0.06800
H 	H 	0.77400 0.88970 0.67900 -0.01300
C 	C 	0.89560 0.86060 0.68830 -0.12700
H 	H 	0.92370 0.89240 0.68660 0.01200
C 	C 	0.46840 0.91870 0.67290 -0.11200
H 	H 	0.41860 0.92120 0.68340 0.03200
C 	C 	0.53370 0.95610 0.67860 0.06600
H 	H 	0.52640 0.98260 0.69370 -0.00900
C 	C 	0.61490 0.91730 0.64290 0.05000
H 	H 	0.66400 0.91710 0.63190 -0.01400
C 	C 	0.55480 0.87740 0.63670 -0.10800
H 	H 	0.56560 0.85010 0.62270 0.06200
C 	C 	0.47870 0.87810 0.65130 0.00600
C 	C 	0.41690 0.83610 0.64340 0.06300
C 	C 	0.43460 0.78870 0.63000 -0.13900
H 	H 	0.48830 0.77610 0.62580 0.07200
C 	C 	0.35670 0.76350 0.62410 0.05500
C 	C 	0.34140 0.71100 0.60970 0.05300
C 	C 	0.40120 0.67480 0.61480 -0.17700
H 	H 	0.45140 0.68130 0.62870 0.08400
C 	C 	0.38860 0.62630 0.59900 0.12700
H 	H 	0.43440 0.60280 0.60230 -0.05000
C 	C 	0.26520 0.64450 0.57850 0.09200
H 	H 	0.21340 0.63450 0.56670 -0.02400
C 	C 	0.27020 0.69700 0.59170 -0.15100
H 	H 	0.22430 0.72020 0.58750 0.02800
C 	C 	0.21530 0.97330 0.72930 -0.10700
H 	H 	0.17930 0.94850 0.71830 0.00200
C 	C 	0.21780 0.97850 0.76280 0.05100
H 	H 	0.18430 0.95580 0.77380 -0.01700
C 	C 	0.31030 0.04660 0.76350 0.04600
H 	H 	0.34270 0.07280 0.77480 -0.00800
C 	C 	0.31100 0.04350 0.73030 -0.10500
H 	H 	0.34250 0.06780 0.71960 0.06000
C 	C 	0.26570 0.00460 0.71201 -0.00300
C 	C 	0.27140 0.00020 0.67689 0.07100
C 	C 	0.29370 0.03930 0.65609 -0.14000
H 	H 	0.30530 0.07420 0.66140 0.07300
C 	C 	0.29510 0.01560 0.62558 0.07200
C 	C 	0.31400 0.03990 0.59412 0.01000
C 	C 	0.29200 0.09080 0.58735 -0.12100
H 	H 	0.26500 0.11050 0.60240 0.06200
C 	C 	0.31050 0.11290 0.55770 0.05900
H 	H 	0.29440 0.14740 0.55330 -0.02400
C 	C 	0.37220 0.03700 0.54250 0.05000
H 	H 	0.40030 0.01810 0.52740 -0.01200
C 	C 	0.35460 0.01290 0.57130 -0.11900
H 	H 	0.37040 0.97820 0.57530 0.02900
C 	C 	0.56650 0.43690 0.52046 -0.11700
H 	H 	0.53560 0.40910 0.52800 0.02200
C 	C 	0.59030 0.43670 0.48860 0.06000
H 	H 	0.57450 0.40790 0.47540 -0.01700
C 	C 	0.65270 0.51550 0.49530 0.08300
H 	H 	0.68130 0.54350 0.48690 -0.04900
C 	C 	0.63350 0.51950 0.52660 -0.14200
H 	H 	0.64940 0.54930 0.53880 0.07000
C 	C 	0.58980 0.47930 0.54074 0.00400
C 	C 	0.57040 0.48240 0.57508 0.03000
C 	C 	0.57010 0.52710 0.59457 -0.15000
H 	H 	0.57940 0.56140 0.58830 0.06800
C 	C 	0.55320 0.50960 0.62525 0.04800
C 	C 	0.54210 0.53980 0.65519 0.00900
C 	C 	0.58090 0.58910 0.65978 -0.12000
H 	H 	0.61490 0.60240 0.64440 0.06400
C 	C 	0.56780 0.61770 0.68750 0.06400
H 	H 	0.59340 0.65050 0.69000 -0.01700
C 	C 	0.48240 0.55480 0.70550 0.04900
H 	H 	0.44660 0.54320 0.72070 -0.01900
C 	C 	0.49280 0.52340 0.67880 -0.12500
H 	H 	0.46610 0.49090 0.67690 0.01900
C 	C 	0.33120 0.36250 0.58430 -0.14700
H 	H 	0.36210 0.38430 0.59960 0.03200
C 	C 	0.26170 0.38230 0.56350 0.08200
H 	H 	0.24630 0.41710 0.56610 -0.05400
C 	C 	0.23740 0.30500 0.53930 0.06500
H 	H 	0.20450 0.28400 0.52410 -0.02700
C 	C 	0.30370 0.28200 0.55880 -0.12700
H 	H 	0.31540 0.24660 0.55630 0.06300
C 	C 	0.35400 0.31140 0.58250 0.01800
C 	C 	0.42530 0.28480 0.60256 0.06600
C 	C 	0.42690 0.23400 0.61450 -0.13400
H 	H 	0.38120 0.21040 0.61350 0.07200
C 	C 	0.51140 0.22570 0.62845 0.06600
C 	C 	0.55240 0.17700 0.64072 0.01600
C 	C 	0.51440 0.12940 0.63470 -0.12800
H 	H 	0.45910 0.12780 0.62350 0.07100
C 	C 	0.55500 0.08460 0.64470 0.07100
H 	H 	0.52530 0.05330 0.64050 -0.01200
C 	C 	0.67230 0.12780 0.66530 0.06300
H 	H 	0.72890 0.12820 0.67540 -0.02100
C 	C 	0.63380 0.17450 0.65710 -0.11500
H 	H 	0.66350 0.20530 0.66270 0.01000
C 	C 	0.55140 0.23550 0.54630 -0.11800
H 	H 	0.57390 0.23870 0.56820 0.03800
C 	C 	0.49030 0.19820 0.53750 0.05900
H 	H 	0.47150 0.17730 0.55390 -0.01000
C 	C 	0.48210 0.22200 0.48400 0.06800
H 	H 	0.45760 0.21860 0.46230 -0.01300
C 	C 	0.54500 0.26070 0.49160 -0.12000
H 	H 	0.56300 0.28130 0.47480 0.06700
C 	C 	0.57990 0.26830 0.52332 0.01500
C 	C 	0.64920 0.30730 0.53210 0.06500
C 	C 	0.71890 0.32010 0.51525 -0.14300
H 	H 	0.73070 0.30750 0.49490 0.08000
C 	C 	0.76670 0.35530 0.53520 0.07200
C 	C 	0.85060 0.37890 0.53074 0.00800
C 	C 	0.86460 0.40260 0.50090 -0.11200
H 	H 	0.81970 0.40560 0.48400 0.04400
C 	C 	0.94520 0.42150 0.49670 0.05200
H 	H 	0.95390 0.43580 0.47650 -0.01000
C 	C 	0.99590 0.40230 0.54890 0.07600
H 	H 	0.04040 0.40360 0.56610 -0.03000
C 	C 	0.91790 0.38140 0.55570 -0.13900
H 	H 	0.91090 0.36930 0.57670 0.04400
Cu	Cu	0.74577 0.38187 0.67109 0.75000
Cu	Cu	0.06396 0.86406 0.58911 0.74600
Cu	Cu	0.56249 0.40526 0.65668 0.74300
Cu	Cu	0.67542 0.28572 0.63084 0.75900
Cu	Cu	0.75151 0.41179 0.59673 0.76600
Cu	Cu	0.20687 0.51169 0.66948 0.84300
Cu	Cu	0.87683 0.62229 0.49395 0.84200
Cu	Cu	0.16580 0.97149 0.43131 0.82600
N 	N 	0.89580 0.19670 0.73735 -0.23500
N 	N 	0.67030 0.33820 0.69473 -0.26800
N 	N 	0.58570 0.35310 0.68832 -0.27400
N 	N 	0.26030 0.31570 0.68520 -0.13100
N 	N 	0.10470 0.45610 0.66416 -0.22600
N 	N 	0.83150 0.33970 0.64605 -0.25700
N 	N 	0.79460 0.29410 0.63364 -0.26900
N 	N 	0.82550 0.11110 0.58180 -0.25700
N 	N 	0.76490 0.51380 0.78073 -0.23800
N 	N 	0.75970 0.45520 0.65988 -0.26200
N 	N 	0.77450 0.46500 0.62803 -0.25700
N 	N 	0.85000 0.58690 0.53568 -0.24400
N 	N 	0.13430 0.97510 0.47572 -0.26700
N 	N 	0.05720 0.93960 0.59322 -0.27700
N 	N 	0.04570 0.95660 0.62419 -0.27400
N 	N 	0.02150 0.10150 0.71063 -0.23900
N 	N 	0.71700 0.85490 0.54062 -0.25700
N 	N 	0.00390 0.80650 0.60867 -0.26700
N 	N 	0.05820 0.77010 0.62484 -0.26000
N 	N 	0.13440 0.58240 0.65989 -0.23600
N 	N 	0.95630 0.69020 0.50634 -0.22900
N 	N 	0.15410 0.83440 0.56072 -0.25100
N 	N 	0.22760 0.86400 0.56235 -0.26500
N 	N 	0.51170 0.92030 0.52030 -0.21600
C 	C 	0.83280 0.27780 0.71710 -0.10900
H 	H 	0.84160 0.31120 0.70910 0.02400
C 	C 	0.90230 0.24480 0.72490 0.05600
H 	H 	0.95690 0.25670 0.72140 -0.00600
C 	C 	0.81610 0.18220 0.74220 0.06000
H 	H 	0.80910 0.14950 0.75150 -0.01400
C 	C 	0.74320 0.21240 0.73450 -0.11700
H 	H 	0.68920 0.19980 0.73830 0.06500
C 	C 	0.75120 0.26140 0.72104 0.01100
C 	C 	0.67200 0.29210 0.71120 0.04600
C 	C 	0.58770 0.27740 0.71510 -0.13400
H 	H 	0.57030 0.24770 0.72570 0.07200
C 	C 	0.53510 0.31600 0.69994 0.05900
C 	C 	0.44100 0.31790 0.69500 0.01500
C 	C 	0.39440 0.27190 0.69580 -0.10900
H 	H 	0.42380 0.24060 0.70030 0.06300
C 	C 	0.30700 0.27130 0.69030 0.05900
H 	H 	0.27830 0.23940 0.69000 0.01000
C 	C 	0.30410 0.35870 0.68360 0.06200
H 	H 	0.27400 0.38970 0.67900 -0.01200
C 	C 	0.39560 0.36060 0.68830 -0.11600
H 	H 	0.42370 0.39240 0.68660 0.00600
C 	C 	0.96840 0.41870 0.67290 -0.10100
H 	H 	0.91860 0.42120 0.68340 0.03000
C 	C 	0.03370 0.45610 0.67860 0.05400
H 	H 	0.02640 0.48260 0.69370 -0.00800
C 	C 	0.11490 0.41730 0.64290 0.05300
H 	H 	0.16400 0.41710 0.63190 -0.01600
C 	C 	0.05480 0.37740 0.63670 -0.12000
H 	H 	0.06560 0.35010 0.62270 0.06300
C 	C 	0.97870 0.37810 0.65130 0.01300
C 	C 	0.91690 0.33610 0.64340 0.06200
C 	C 	0.93460 0.28870 0.63000 -0.13800
H 	H 	0.98830 0.27610 0.62580 0.07400
C 	C 	0.85670 0.26350 0.62410 0.05500
C 	C 	0.84140 0.21100 0.60970 0.05400
C 	C 	0.90120 0.17480 0.61480 -0.17600
H 	H 	0.95140 0.18130 0.62870 0.08600
C 	C 	0.88860 0.12630 0.59900 0.12700
H 	H 	0.93440 0.10280 0.60230 -0.04800
C 	C 	0.76520 0.14450 0.57850 0.09200
H 	H 	0.71340 0.13450 0.56670 -0.02400
C 	C 	0.77020 0.19700 0.59170 -0.15100
H 	H 	0.72430 0.22020 0.58750 0.02900
C 	C 	0.71530 0.47330 0.72930 -0.10700
H 	H 	0.67930 0.44850 0.71830 0.00300
C 	C 	0.71780 0.47850 0.76280 0.05100
H 	H 	0.68430 0.45580 0.77380 -0.01700
C 	C 	0.81030 0.54660 0.76350 0.04700
H 	H 	0.84270 0.57280 0.77480 -0.00800
C 	C 	0.81100 0.54350 0.73030 -0.10500
H 	H 	0.84250 0.56780 0.71960 0.06100
C 	C 	0.76570 0.50460 0.71201 -0.00300
C 	C 	0.77140 0.50020 0.67689 0.07100
C 	C 	0.79370 0.53930 0.65609 -0.14000
H 	H 	0.80530 0.57420 0.66140 0.07400
C 	C 	0.79510 0.51560 0.62558 0.07200
C 	C 	0.81400 0.53990 0.59412 0.01100
C 	C 	0.79200 0.59080 0.58735 -0.12100
H 	H 	0.76500 0.61050 0.60240 0.06200
C 	C 	0.81050 0.61290 0.55770 0.06000
H 	H 	0.79440 0.64740 0.55330 -0.02400
C 	C 	0.87220 0.53700 0.54250 0.05100
H 	H 	0.90030 0.51810 0.52740 -0.01100
C 	C 	0.85460 0.51290 0.57130 -0.11800
H 	H 	0.87040 0.47820 0.57530 0.03000
C 	C 	0.06650 0.93690 0.52046 -0.11700
H 	H 	0.03560 0.90910 0.52800 0.02000
C 	C 	0.09030 0.93670 0.48860 0.05800
H 	H 	0.07450 0.90790 0.47540 -0.01800
C 	C 	0.15270 0.01550 0.49530 0.08200
H 	H 	0.18130 0.04350 0.48690 -0.04900
C 	C 	0.13350 0.01950 0.52660 -0.14200
H 	H 	0.14940 0.04930 0.53880 0.06900
C 	C 	0.08980 0.97930 0.54074 0.00200
C 	C 	0.07040 0.98240 0.57508 0.03000
C 	C 	0.07010 0.02710 0.59457 -0.15300
H 	H 	0.07940 0.06140 0.58830 0.06800
C 	C 	0.05320 0.00960 0.62525 0.05000
C 	C 	0.04210 0.03980 0.65519 -0.00400
C 	C 	0.08090 0.08910 0.65978 -0.11500
H 	H 	0.11490 0.10240 0.64440 0.06200
C 	C 	0.06780 0.11770 0.68750 0.05900
H 	H 	0.09340 0.15050 0.69000 -0.01700
C 	C 	0.98240 0.05480 0.70550 0.05200
H 	H 	0.94660 0.04320 0.72070 -0.01800
C 	C 	0.99280 0.02340 0.67880 -0.11100
H 	H 	0.96610 0.99090 0.67690 0.01600
C 	C 	0.83120 0.86250 0.58430 -0.14600
H 	H 	0.86210 0.88430 0.59960 0.03400
C 	C 	0.76170 0.88230 0.56350 0.08300
H 	H 	0.74630 0.91710 0.56610 -0.05400
C 	C 	0.73740 0.80500 0.53930 0.06600
H 	H 	0.70450 0.78400 0.52410 -0.02700
C 	C 	0.80370 0.78200 0.55880 -0.12700
H 	H 	0.81540 0.74660 0.55630 0.06400
C 	C 	0.85400 0.81140 0.58250 0.02000
C 	C 	0.92530 0.78480 0.60256 0.06800
C 	C 	0.92690 0.73400 0.61450 -0.11900
H 	H 	0.88120 0.71040 0.61350 0.06700
C 	C 	0.01140 0.72570 0.62845 0.04800
C 	C 	0.05240 0.67700 0.64072 0.03300
C 	C 	0.01440 0.62940 0.63470 -0.16000
H 	H 	0.95910 0.62780 0.62350 0.08700
C 	C 	0.05500 0.58460 0.64470 0.08700
H 	H 	0.02530 0.55330 0.64050 -0.02000
C 	C 	0.17230 0.62780 0.66530 0.07000
H 	H 	0.22890 0.62820 0.67540 -0.02300
C 	C 	0.13380 0.67450 0.65710 -0.12700
H 	H 	0.16350 0.70530 0.66270 0.01400
C 	C 	0.05140 0.73550 0.54630 -0.14600
H 	H 	0.07390 0.73870 0.56820 0.04600
C 	C 	0.99030 0.69820 0.53750 0.08200
H 	H 	0.97150 0.67730 0.55390 -0.01600
C 	C 	0.98210 0.72200 0.48400 0.09000
H 	H 	0.95760 0.71860 0.46230 -0.01800
C 	C 	0.04500 0.76070 0.49160 -0.14600
H 	H 	0.06300 0.78130 0.47480 0.07400
C 	C 	0.07990 0.76830 0.52332 0.03200
C 	C 	0.14920 0.80730 0.53210 0.05900
C 	C 	0.21890 0.82010 0.51525 -0.14200
H 	H 	0.23070 0.80750 0.49490 0.07900
C 	C 	0.26670 0.85530 0.53520 0.07600
C 	C 	0.35060 0.87890 0.53074 -0.00400
C 	C 	0.36460 0.90260 0.50090 -0.10000
H 	H 	0.31970 0.90560 0.48400 0.03900
C 	C 	0.44520 0.92150 0.49670 0.03500
H 	H 	0.45390 0.93580 0.47650 -0.00700
C 	C 	0.49590 0.90230 0.54890 0.04100
H 	H 	0.54040 0.90360 0.56610 -0.01400
C 	C 	0.41790 0.88140 0.55570 -0.11900
H 	H 	0.41090 0.86930 0.57670 0.03500
Cu	Cu	0.50000 0.35106 0.25000 0.84700
Cu	Cu	0.00000 0.85106 0.25000 0.84300
Cu	Cu	0.50000 0.64894 0.75000 0.84700
Cu	Cu	0.00000 0.14894 0.75000 0.84300
