data_crystal

_cell_length_a 11.10750
_cell_length_b 11.10750
_cell_length_c 19.09250
_cell_angle_alpha 90.00000
_cell_angle_beta  90.00000
_cell_angle_gamma 120.00000

_symmetry_space_group_name_	'P 1'
_symmetry_space_group_name_H-M	'P 1'

loop_
_symmetry_equiv_pos_as_xyz
  x,y,z

loop_
_atom_site_label
_atom_site_type_symbol
_atom_site_fract_x
_atom_site_fract_y
_atom_site_fract_z
_atom_site_charge
O 	O 	0.65250 0.55260 0.82550 -0.39900
C 	C 	0.39420 0.37920 0.96610 0.07400
N 	N 	0.26060 0.28290 0.92760 -0.05900
O 	O 	0.44740 0.09990 0.82550 -0.39900
C 	C 	0.62080 0.01500 0.96610 0.07300
N 	N 	0.71710 0.97770 0.92760 -0.05800
O 	O 	0.90010 0.34750 0.82550 -0.39900
C 	C 	0.98500 0.60580 0.96610 0.07400
N 	N 	0.02230 0.73940 0.92760 -0.05800
O 	O 	0.34750 0.44740 0.32550 -0.39900
C 	C 	0.60580 0.62080 0.46610 0.07400
N 	N 	0.73940 0.71710 0.42760 -0.05900
O 	O 	0.55260 0.90010 0.32550 -0.39900
C 	C 	0.37920 0.98500 0.46610 0.07400
N 	N 	0.28290 0.02230 0.42760 -0.05900
O 	O 	0.09990 0.65250 0.32550 -0.39900
C 	C 	0.01500 0.39420 0.46610 0.07400
N 	N 	0.97770 0.26060 0.42760 -0.05900
O 	O 	0.55260 0.65250 0.17450 -0.39900
C 	C 	0.37920 0.39420 0.03390 0.07400
N 	N 	0.28290 0.26060 0.07240 -0.05900
O 	O 	0.09990 0.44740 0.17450 -0.39900
C 	C 	0.01500 0.62080 0.03390 0.07300
N 	N 	0.97770 0.71710 0.07240 -0.05800
O 	O 	0.34750 0.90010 0.17450 -0.39900
C 	C 	0.60580 0.98500 0.03390 0.07400
N 	N 	0.73940 0.02230 0.07240 -0.05800
O 	O 	0.44740 0.34750 0.67450 -0.39900
C 	C 	0.62080 0.60580 0.53390 0.07400
N 	N 	0.71710 0.73940 0.57240 -0.05900
O 	O 	0.90010 0.55260 0.67450 -0.39900
C 	C 	0.98500 0.37920 0.53390 0.07400
N 	N 	0.02230 0.28290 0.57240 -0.05900
O 	O 	0.65250 0.09990 0.67450 -0.39900
C 	C 	0.39420 0.01500 0.53390 0.07400
N 	N 	0.26060 0.97770 0.57240 -0.05900
O 	O 	0.34750 0.44740 0.17450 -0.39900
C 	C 	0.60580 0.62080 0.03390 0.07400
N 	N 	0.73940 0.71710 0.07240 -0.05900
O 	O 	0.55260 0.90010 0.17450 -0.39900
C 	C 	0.37920 0.98500 0.03390 0.07300
N 	N 	0.28290 0.02230 0.07240 -0.05800
O 	O 	0.09990 0.65250 0.17450 -0.39900
C 	C 	0.01500 0.39420 0.03390 0.07400
N 	N 	0.97770 0.26060 0.07240 -0.05800
O 	O 	0.65250 0.55260 0.67450 -0.39900
C 	C 	0.39420 0.37920 0.53390 0.07400
N 	N 	0.26060 0.28290 0.57240 -0.05900
O 	O 	0.44740 0.09990 0.67450 -0.39900
C 	C 	0.62080 0.01500 0.53390 0.07400
N 	N 	0.71710 0.97770 0.57240 -0.05900
O 	O 	0.90010 0.34750 0.67450 -0.39900
C 	C 	0.98500 0.60580 0.53390 0.07400
N 	N 	0.02230 0.73940 0.57240 -0.05900
O 	O 	0.44740 0.34750 0.82550 -0.39900
C 	C 	0.62080 0.60580 0.96610 0.07400
N 	N 	0.71710 0.73940 0.92760 -0.05900
O 	O 	0.90010 0.55260 0.82550 -0.39900
C 	C 	0.98500 0.37920 0.96610 0.07300
N 	N 	0.02230 0.28290 0.92760 -0.05800
O 	O 	0.65250 0.09990 0.82550 -0.39900
C 	C 	0.39420 0.01500 0.96610 0.07400
N 	N 	0.26060 0.97770 0.92760 -0.05800
O 	O 	0.55260 0.65250 0.32550 -0.39900
C 	C 	0.37920 0.39420 0.46610 0.07400
N 	N 	0.28290 0.26060 0.42760 -0.05900
O 	O 	0.09990 0.44740 0.32550 -0.39900
C 	C 	0.01500 0.62080 0.46610 0.07400
N 	N 	0.97770 0.71710 0.42760 -0.05900
O 	O 	0.34750 0.90010 0.32550 -0.39900
C 	C 	0.60580 0.98500 0.46610 0.07400
N 	N 	0.73940 0.02230 0.42760 -0.05900
Fe	Fe	0.76720 0.53440 0.75000 1.22900
Fe	Fe	0.46560 0.23280 0.75000 1.22900
Fe	Fe	0.76720 0.23280 0.75000 1.22900
Fe	Fe	0.23280 0.46560 0.25000 1.22900
Fe	Fe	0.53440 0.76720 0.25000 1.22900
Fe	Fe	0.23280 0.76720 0.25000 1.22900
O 	O 	0.66667 0.33333 0.75000 -0.64700
O 	O 	0.33333 0.66667 0.25000 -0.64700
C 	C 	0.53990 0.46010 0.85550 0.36300
C 	C 	0.51215 0.48785 0.92780 -0.10200
C 	C 	0.53990 0.07980 0.85550 0.36300
C 	C 	0.51215 0.02430 0.92780 -0.10200
C 	C 	0.92020 0.46010 0.85550 0.36300
C 	C 	0.97570 0.48785 0.92780 -0.10200
C 	C 	0.46010 0.53990 0.35550 0.36300
C 	C 	0.48785 0.51215 0.42780 -0.10200
C 	C 	0.46010 0.92020 0.35550 0.36300
C 	C 	0.48785 0.97570 0.42780 -0.10200
C 	C 	0.07980 0.53990 0.35550 0.36300
C 	C 	0.02430 0.51215 0.42780 -0.10200
C 	C 	0.46010 0.53990 0.14450 0.36300
C 	C 	0.48785 0.51215 0.07220 -0.10200
C 	C 	0.07980 0.53990 0.14450 0.36300
C 	C 	0.02430 0.51215 0.07220 -0.10200
C 	C 	0.46010 0.92020 0.14450 0.36300
C 	C 	0.48785 0.97570 0.07220 -0.10200
C 	C 	0.53990 0.46010 0.64450 0.36300
C 	C 	0.51215 0.48785 0.57220 -0.10200
C 	C 	0.92020 0.46010 0.64450 0.36300
C 	C 	0.97570 0.48785 0.57220 -0.10200
C 	C 	0.53990 0.07980 0.64450 0.36300
C 	C 	0.51215 0.02430 0.57220 -0.10200
