data_crystal

_cell_length_a 26.12400
_cell_length_b 26.12400
_cell_length_c 26.12400
_cell_angle_alpha 90.00000
_cell_angle_beta  90.00000
_cell_angle_gamma 90.00000

_symmetry_space_group_name_	'P 1'
_symmetry_space_group_name_H-M	'P 1'

loop_
_symmetry_equiv_pos_as_xyz
  x,y,z

loop_
_atom_site_label
_atom_site_type_symbol
_atom_site_fract_x
_atom_site_fract_y
_atom_site_fract_z
_atom_site_charge
C 	C 	0.00330 0.36750 0.05360 -0.63800
H 	H 	0.03230 0.38260 0.07120 0.20800
H 	H 	0.97250 0.38490 0.06480 0.29400
C 	C 	0.00960 0.37330 0.99730 0.59900
O 	O 	0.01440 0.41730 0.97690 -0.43300
O 	O 	0.00890 0.33380 0.96990 -0.40300
C 	C 	0.00330 0.86750 0.55360 -0.46600
H 	H 	0.03230 0.88260 0.57120 0.17200
H 	H 	0.97250 0.88490 0.56480 0.25800
C 	C 	0.00960 0.87330 0.49730 0.45300
O 	O 	0.01440 0.91730 0.47690 -0.41400
O 	O 	0.00890 0.83380 0.46990 -0.41300
C 	C 	0.50330 0.36750 0.55360 -0.28900
H 	H 	0.53230 0.38260 0.57120 0.12800
H 	H 	0.47250 0.38490 0.56480 0.13000
C 	C 	0.50960 0.37330 0.49730 0.41100
O 	O 	0.51440 0.41730 0.47690 -0.39700
O 	O 	0.50890 0.33380 0.46990 -0.37800
C 	C 	0.50330 0.86750 0.05360 -0.44600
H 	H 	0.53230 0.88260 0.07120 0.16700
H 	H 	0.47250 0.88490 0.06480 0.16900
C 	C 	0.50960 0.87330 0.99730 0.54100
O 	O 	0.51440 0.91730 0.97690 -0.35300
O 	O 	0.50890 0.83380 0.96990 -0.35700
C 	C 	0.24670 0.38250 0.55360 -0.28900
H 	H 	0.21770 0.36740 0.57120 0.12700
H 	H 	0.27750 0.36510 0.56480 0.13000
C 	C 	0.24040 0.37670 0.49730 0.41100
O 	O 	0.23560 0.33270 0.47690 -0.39800
O 	O 	0.24110 0.41620 0.46990 -0.37800
C 	C 	0.24670 0.88250 0.05360 -0.42900
H 	H 	0.21770 0.86740 0.07120 0.15800
H 	H 	0.27750 0.86510 0.06480 0.16100
C 	C 	0.24040 0.87670 0.99730 0.53400
O 	O 	0.23560 0.83270 0.97690 -0.37700
O 	O 	0.24110 0.91620 0.96990 -0.32100
C 	C 	0.74670 0.38250 0.05360 -0.45000
H 	H 	0.71770 0.36740 0.07120 0.16400
H 	H 	0.77750 0.36510 0.06480 0.16600
C 	C 	0.74040 0.37670 0.99730 0.54800
O 	O 	0.73560 0.33270 0.97690 -0.38300
O 	O 	0.74110 0.41620 0.96990 -0.36100
C 	C 	0.74670 0.88250 0.55360 -0.27200
H 	H 	0.71770 0.86740 0.57120 0.12300
H 	H 	0.77750 0.86510 0.56480 0.12900
C 	C 	0.74040 0.87670 0.49730 0.40100
O 	O 	0.73560 0.83270 0.47690 -0.39000
O 	O 	0.74110 0.91620 0.46990 -0.33500
C 	C 	0.74670 0.86750 0.19640 -0.28900
H 	H 	0.71770 0.88260 0.17880 0.13100
H 	H 	0.77750 0.88490 0.18520 0.13600
C 	C 	0.74040 0.87330 0.25270 0.40800
O 	O 	0.73560 0.91730 0.27310 -0.36400
O 	O 	0.74110 0.83380 0.28010 -0.37100
C 	C 	0.74670 0.36750 0.69640 -0.29000
H 	H 	0.71770 0.38260 0.67880 0.12800
H 	H 	0.77750 0.38490 0.68520 0.13200
C 	C 	0.74040 0.37330 0.75270 0.41200
O 	O 	0.73560 0.41730 0.77310 -0.39500
O 	O 	0.74110 0.33380 0.78010 -0.37400
C 	C 	0.24670 0.86750 0.69640 -0.28700
H 	H 	0.21770 0.88260 0.67880 0.13000
H 	H 	0.27750 0.88490 0.68520 0.13500
C 	C 	0.24040 0.87330 0.75270 0.40600
O 	O 	0.23560 0.91730 0.77310 -0.36400
O 	O 	0.24110 0.83380 0.78010 -0.37000
C 	C 	0.24670 0.36750 0.19640 -0.28800
H 	H 	0.21770 0.38260 0.17880 0.12600
H 	H 	0.27750 0.38490 0.18520 0.12900
C 	C 	0.24040 0.37330 0.25270 0.41000
O 	O 	0.23560 0.41730 0.27310 -0.39700
O 	O 	0.24110 0.33380 0.28010 -0.37800
C 	C 	0.50330 0.88250 0.69640 -0.27100
H 	H 	0.53230 0.86740 0.67880 0.12300
H 	H 	0.47250 0.86510 0.68520 0.12700
C 	C 	0.50960 0.87670 0.75270 0.40000
O 	O 	0.51440 0.83270 0.77310 -0.38900
O 	O 	0.50890 0.91620 0.78010 -0.33400
C 	C 	0.50330 0.38250 0.19640 -0.28900
H 	H 	0.53230 0.36740 0.17880 0.12700
H 	H 	0.47250 0.36510 0.18520 0.12900
C 	C 	0.50960 0.37670 0.25270 0.41100
O 	O 	0.51440 0.33270 0.27310 -0.39700
O 	O 	0.50890 0.41620 0.28010 -0.37800
C 	C 	0.00330 0.88250 0.19640 -0.45200
H 	H 	0.03230 0.86740 0.17880 0.16500
H 	H 	0.97250 0.86510 0.18520 0.25100
C 	C 	0.00960 0.87670 0.25270 0.44600
O 	O 	0.01440 0.83270 0.27310 -0.44000
O 	O 	0.00890 0.91620 0.28010 -0.37600
C 	C 	0.00330 0.38250 0.69640 -0.47200
H 	H 	0.03230 0.36740 0.67880 0.17000
H 	H 	0.97250 0.36510 0.68520 0.25600
C 	C 	0.00960 0.37670 0.75270 0.45800
O 	O 	0.01440 0.33270 0.77310 -0.44500
O 	O 	0.00890 0.41620 0.78010 -0.41600
C 	C 	0.05360 0.00330 0.36750 -0.63900
H 	H 	0.07120 0.03230 0.38260 0.20800
H 	H 	0.06480 0.97250 0.38490 0.29400
C 	C 	0.99730 0.00960 0.37330 0.59900
O 	O 	0.97690 0.01440 0.41730 -0.43300
O 	O 	0.96990 0.00890 0.33380 -0.40300
C 	C 	0.05360 0.50330 0.86750 -0.44600
H 	H 	0.07120 0.53230 0.88260 0.16700
H 	H 	0.06480 0.47250 0.88490 0.16900
C 	C 	0.99730 0.50960 0.87330 0.54100
O 	O 	0.97690 0.51440 0.91730 -0.35300
O 	O 	0.96990 0.50890 0.83380 -0.35700
C 	C 	0.55360 0.00330 0.86750 -0.46600
H 	H 	0.57120 0.03230 0.88260 0.17200
H 	H 	0.56480 0.97250 0.88490 0.25800
C 	C 	0.49730 0.00960 0.87330 0.45300
O 	O 	0.47690 0.01440 0.91730 -0.41400
O 	O 	0.46990 0.00890 0.83380 -0.41300
C 	C 	0.55360 0.50330 0.36750 -0.28900
H 	H 	0.57120 0.53230 0.38260 0.12800
H 	H 	0.56480 0.47250 0.38490 0.13000
C 	C 	0.49730 0.50960 0.37330 0.41100
O 	O 	0.47690 0.51440 0.41730 -0.39700
O 	O 	0.46990 0.50890 0.33380 -0.37800
C 	C 	0.55360 0.24670 0.38250 -0.28900
H 	H 	0.57120 0.21770 0.36740 0.12700
H 	H 	0.56480 0.27750 0.36510 0.13000
C 	C 	0.49730 0.24040 0.37670 0.41100
O 	O 	0.47690 0.23560 0.33270 -0.39800
O 	O 	0.46990 0.24110 0.41620 -0.37800
C 	C 	0.55360 0.74670 0.88250 -0.27200
H 	H 	0.57120 0.71770 0.86740 0.12300
H 	H 	0.56480 0.77750 0.86510 0.12900
C 	C 	0.49730 0.74040 0.87670 0.40100
O 	O 	0.47690 0.73560 0.83270 -0.39000
O 	O 	0.46990 0.74110 0.91620 -0.33500
C 	C 	0.05360 0.24670 0.88250 -0.42900
H 	H 	0.07120 0.21770 0.86740 0.15800
H 	H 	0.06480 0.27750 0.86510 0.16100
C 	C 	0.99730 0.24040 0.87670 0.53400
O 	O 	0.97690 0.23560 0.83270 -0.37700
O 	O 	0.96990 0.24110 0.91620 -0.32100
C 	C 	0.05360 0.74670 0.38250 -0.45000
H 	H 	0.07120 0.71770 0.36740 0.16400
H 	H 	0.06480 0.77750 0.36510 0.16600
C 	C 	0.99730 0.74040 0.37670 0.54800
O 	O 	0.97690 0.73560 0.33270 -0.38300
O 	O 	0.96990 0.74110 0.41620 -0.36100
C 	C 	0.19640 0.74670 0.86750 -0.28900
H 	H 	0.17880 0.71770 0.88260 0.13100
H 	H 	0.18520 0.77750 0.88490 0.13600
C 	C 	0.25270 0.74040 0.87330 0.40800
O 	O 	0.27310 0.73560 0.91730 -0.36400
O 	O 	0.28010 0.74110 0.83380 -0.37100
C 	C 	0.19640 0.24670 0.36750 -0.28800
H 	H 	0.17880 0.21770 0.38260 0.12600
H 	H 	0.18520 0.27750 0.38490 0.12900
C 	C 	0.25270 0.24040 0.37330 0.41000
O 	O 	0.27310 0.23560 0.41730 -0.39700
O 	O 	0.28010 0.24110 0.33380 -0.37800
C 	C 	0.69640 0.74670 0.36750 -0.29000
H 	H 	0.67880 0.71770 0.38260 0.12800
H 	H 	0.68520 0.77750 0.38490 0.13200
C 	C 	0.75270 0.74040 0.37330 0.41200
O 	O 	0.77310 0.73560 0.41730 -0.39500
O 	O 	0.78010 0.74110 0.33380 -0.37400
C 	C 	0.69640 0.24670 0.86750 -0.28700
H 	H 	0.67880 0.21770 0.88260 0.13000
H 	H 	0.68520 0.27750 0.88490 0.13500
C 	C 	0.75270 0.24040 0.87330 0.40600
O 	O 	0.77310 0.23560 0.91730 -0.36400
O 	O 	0.78010 0.24110 0.83380 -0.37000
C 	C 	0.69640 0.50330 0.88250 -0.27100
H 	H 	0.67880 0.53230 0.86740 0.12300
H 	H 	0.68520 0.47250 0.86510 0.12700
C 	C 	0.75270 0.50960 0.87670 0.40000
O 	O 	0.77310 0.51440 0.83270 -0.38900
O 	O 	0.78010 0.50890 0.91620 -0.33400
C 	C 	0.69640 0.00330 0.38250 -0.47200
H 	H 	0.67880 0.03230 0.36740 0.17000
H 	H 	0.68520 0.97250 0.36510 0.25600
C 	C 	0.75270 0.00960 0.37670 0.45800
O 	O 	0.77310 0.01440 0.33270 -0.44500
O 	O 	0.78010 0.00890 0.41620 -0.41600
C 	C 	0.19640 0.50330 0.38250 -0.28900
H 	H 	0.17880 0.53230 0.36740 0.12700
H 	H 	0.18520 0.47250 0.36510 0.12900
C 	C 	0.25270 0.50960 0.37670 0.41100
O 	O 	0.27310 0.51440 0.33270 -0.39700
O 	O 	0.28010 0.50890 0.41620 -0.37800
C 	C 	0.19640 0.00330 0.88250 -0.45200
H 	H 	0.17880 0.03230 0.86740 0.16500
H 	H 	0.18520 0.97250 0.86510 0.25100
C 	C 	0.25270 0.00960 0.87670 0.44600
O 	O 	0.27310 0.01440 0.83270 -0.44000
O 	O 	0.28010 0.00890 0.91620 -0.37600
C 	C 	0.36750 0.05360 0.00330 -0.63900
H 	H 	0.38260 0.07120 0.03230 0.20800
H 	H 	0.38490 0.06480 0.97250 0.29400
C 	C 	0.37330 0.99730 0.00960 0.59900
O 	O 	0.41730 0.97690 0.01440 -0.43300
O 	O 	0.33380 0.96990 0.00890 -0.40300
C 	C 	0.36750 0.55360 0.50330 -0.28900
H 	H 	0.38260 0.57120 0.53230 0.12800
H 	H 	0.38490 0.56480 0.47250 0.13000
C 	C 	0.37330 0.49730 0.50960 0.41100
O 	O 	0.41730 0.47690 0.51440 -0.39700
O 	O 	0.33380 0.46990 0.50890 -0.37800
C 	C 	0.86750 0.05360 0.50330 -0.44600
H 	H 	0.88260 0.07120 0.53230 0.16700
H 	H 	0.88490 0.06480 0.47250 0.16900
C 	C 	0.87330 0.99730 0.50960 0.54100
O 	O 	0.91730 0.97690 0.51440 -0.35300
O 	O 	0.83380 0.96990 0.50890 -0.35700
C 	C 	0.86750 0.55360 0.00330 -0.46600
H 	H 	0.88260 0.57120 0.03230 0.17200
H 	H 	0.88490 0.56480 0.97250 0.25800
C 	C 	0.87330 0.49730 0.00960 0.45300
O 	O 	0.91730 0.47690 0.01440 -0.41400
O 	O 	0.83380 0.46990 0.00890 -0.41300
C 	C 	0.38250 0.55360 0.24670 -0.28900
H 	H 	0.36740 0.57120 0.21770 0.12700
H 	H 	0.36510 0.56480 0.27750 0.13000
C 	C 	0.37670 0.49730 0.24040 0.41100
O 	O 	0.33270 0.47690 0.23560 -0.39800
O 	O 	0.41620 0.46990 0.24110 -0.37800
C 	C 	0.38250 0.05360 0.74670 -0.45000
H 	H 	0.36740 0.07120 0.71770 0.16400
H 	H 	0.36510 0.06480 0.77750 0.16600
C 	C 	0.37670 0.99730 0.74040 0.54800
O 	O 	0.33270 0.97690 0.73560 -0.38300
O 	O 	0.41620 0.96990 0.74110 -0.36100
C 	C 	0.88250 0.55360 0.74670 -0.27200
H 	H 	0.86740 0.57120 0.71770 0.12300
H 	H 	0.86510 0.56480 0.77750 0.12900
C 	C 	0.87670 0.49730 0.74040 0.40100
O 	O 	0.83270 0.47690 0.73560 -0.39000
O 	O 	0.91620 0.46990 0.74110 -0.33500
C 	C 	0.88250 0.05360 0.24670 -0.42900
H 	H 	0.86740 0.07120 0.21770 0.15800
H 	H 	0.86510 0.06480 0.27750 0.16100
C 	C 	0.87670 0.99730 0.24040 0.53400
O 	O 	0.83270 0.97690 0.23560 -0.37700
O 	O 	0.91620 0.96990 0.24110 -0.32100
C 	C 	0.86750 0.19640 0.74670 -0.28900
H 	H 	0.88260 0.17880 0.71770 0.13100
H 	H 	0.88490 0.18520 0.77750 0.13600
C 	C 	0.87330 0.25270 0.74040 0.40800
O 	O 	0.91730 0.27310 0.73560 -0.36400
O 	O 	0.83380 0.28010 0.74110 -0.37100
C 	C 	0.86750 0.69640 0.24670 -0.28700
H 	H 	0.88260 0.67880 0.21770 0.13000
H 	H 	0.88490 0.68520 0.27750 0.13500
C 	C 	0.87330 0.75270 0.24040 0.40600
O 	O 	0.91730 0.77310 0.23560 -0.36400
O 	O 	0.83380 0.78010 0.24110 -0.37000
C 	C 	0.36750 0.19640 0.24670 -0.28800
H 	H 	0.38260 0.17880 0.21770 0.12600
H 	H 	0.38490 0.18520 0.27750 0.12900
C 	C 	0.37330 0.25270 0.24040 0.41000
O 	O 	0.41730 0.27310 0.23560 -0.39700
O 	O 	0.33380 0.28010 0.24110 -0.37800
C 	C 	0.36750 0.69640 0.74670 -0.29000
H 	H 	0.38260 0.67880 0.71770 0.12800
H 	H 	0.38490 0.68520 0.77750 0.13200
C 	C 	0.37330 0.75270 0.74040 0.41200
O 	O 	0.41730 0.77310 0.73560 -0.39500
O 	O 	0.33380 0.78010 0.74110 -0.37400
C 	C 	0.88250 0.69640 0.50330 -0.27100
H 	H 	0.86740 0.67880 0.53230 0.12300
H 	H 	0.86510 0.68520 0.47250 0.12700
C 	C 	0.87670 0.75270 0.50960 0.40000
O 	O 	0.83270 0.77310 0.51440 -0.38900
O 	O 	0.91620 0.78010 0.50890 -0.33400
C 	C 	0.88250 0.19640 0.00330 -0.45200
H 	H 	0.86740 0.17880 0.03230 0.16500
H 	H 	0.86510 0.18520 0.97250 0.25100
C 	C 	0.87670 0.25270 0.00960 0.44600
O 	O 	0.83270 0.27310 0.01440 -0.44000
O 	O 	0.91620 0.28010 0.00890 -0.37600
C 	C 	0.38250 0.69640 0.00330 -0.47200
H 	H 	0.36740 0.67880 0.03230 0.17000
H 	H 	0.36510 0.68520 0.97250 0.25600
C 	C 	0.37670 0.75270 0.00960 0.45800
O 	O 	0.33270 0.77310 0.01440 -0.44500
O 	O 	0.41620 0.78010 0.00890 -0.41600
C 	C 	0.38250 0.19640 0.50330 -0.28900
H 	H 	0.36740 0.17880 0.53230 0.12700
H 	H 	0.36510 0.18520 0.47250 0.12900
C 	C 	0.37670 0.25270 0.50960 0.41100
O 	O 	0.33270 0.27310 0.51440 -0.39700
O 	O 	0.41620 0.28010 0.50890 -0.37800
C 	C 	0.11750 0.25330 0.94640 -0.14100
H 	H 	0.13260 0.28230 0.92880 0.09900
H 	H 	0.13490 0.22250 0.93520 0.09800
C 	C 	0.12330 0.25960 0.00270 0.27700
O 	O 	0.16730 0.26440 0.02310 -0.40400
O 	O 	0.08380 0.25890 0.03010 -0.39100
C 	C 	0.11750 0.75330 0.44640 -0.30700
H 	H 	0.13260 0.78230 0.42880 0.13400
H 	H 	0.13490 0.72250 0.43520 0.13400
C 	C 	0.12330 0.75960 0.50270 0.41900
O 	O 	0.16730 0.76440 0.52310 -0.40100
O 	O 	0.08380 0.75890 0.53010 -0.39100
C 	C 	0.61750 0.25330 0.44640 -0.28900
H 	H 	0.63260 0.28230 0.42880 0.12800
H 	H 	0.63490 0.22250 0.43520 0.12900
C 	C 	0.62330 0.25960 0.50270 0.41100
O 	O 	0.66730 0.26440 0.52310 -0.39800
O 	O 	0.58380 0.25890 0.53010 -0.37900
C 	C 	0.61750 0.75330 0.94640 -0.13300
H 	H 	0.63260 0.78230 0.92880 0.09700
H 	H 	0.63490 0.72250 0.93520 0.09700
C 	C 	0.62330 0.75960 0.00270 0.27700
O 	O 	0.66730 0.76440 0.02310 -0.39900
O 	O 	0.58380 0.75890 0.03010 -0.37600
C 	C 	0.13250 0.49670 0.44640 -0.29000
H 	H 	0.11740 0.46770 0.42880 0.12600
H 	H 	0.11510 0.52750 0.43520 0.12800
C 	C 	0.12670 0.49040 0.50270 0.41300
O 	O 	0.08270 0.48560 0.52310 -0.41800
O 	O 	0.16620 0.49110 0.53010 -0.38200
C 	C 	0.13250 0.99670 0.94640 0.26700
H 	H 	0.11740 0.96770 0.92880 -0.00600
H 	H 	0.11510 0.02750 0.93520 -0.08600
C 	C 	0.12670 0.99040 0.00270 0.16800
O 	O 	0.08270 0.98560 0.02310 -0.34000
O 	O 	0.16620 0.99110 0.03010 -0.29300
C 	C 	0.63250 0.49670 0.94640 -0.12900
H 	H 	0.61740 0.46770 0.92880 0.09500
H 	H 	0.61510 0.52750 0.93520 0.09600
C 	C 	0.62670 0.49040 0.00270 0.27400
O 	O 	0.58270 0.48560 0.02310 -0.39900
O 	O 	0.66620 0.49110 0.03010 -0.37600
C 	C 	0.63250 0.99670 0.44640 0.11900
H 	H 	0.61740 0.96770 0.42880 0.02600
H 	H 	0.61510 0.02750 0.43520 -0.05500
C 	C 	0.62670 0.99040 0.50270 0.29800
O 	O 	0.58270 0.98560 0.52310 -0.31800
O 	O 	0.66620 0.99110 0.53010 -0.29100
C 	C 	0.61750 0.99670 0.80360 0.10800
H 	H 	0.63260 0.96770 0.82120 0.03100
H 	H 	0.63490 0.02750 0.81480 -0.04900
C 	C 	0.62330 0.99040 0.74730 0.30100
O 	O 	0.66730 0.98560 0.72690 -0.32000
O 	O 	0.58380 0.99110 0.71990 -0.29200
C 	C 	0.61750 0.49670 0.30360 -0.29000
H 	H 	0.63260 0.46770 0.32120 0.12800
H 	H 	0.63490 0.52750 0.31480 0.13000
C 	C 	0.62330 0.49040 0.24730 0.41100
O 	O 	0.66730 0.48560 0.22690 -0.39900
O 	O 	0.58380 0.49110 0.21990 -0.38000
C 	C 	0.11750 0.99670 0.30360 0.11100
H 	H 	0.13260 0.96770 0.32120 0.02900
H 	H 	0.13490 0.02750 0.31480 -0.05600
C 	C 	0.12330 0.99040 0.24730 0.30200
O 	O 	0.16730 0.98560 0.22690 -0.32200
O 	O 	0.08380 0.99110 0.21990 -0.30400
C 	C 	0.11750 0.49670 0.80360 -0.30800
H 	H 	0.13260 0.46770 0.82120 0.13500
H 	H 	0.13490 0.52750 0.81480 0.13500
C 	C 	0.12330 0.49040 0.74730 0.41900
O 	O 	0.16730 0.48560 0.72690 -0.40200
O 	O 	0.08380 0.49110 0.71990 -0.39200
C 	C 	0.63250 0.75330 0.30360 -0.29100
H 	H 	0.61740 0.78230 0.32120 0.13000
H 	H 	0.61510 0.72250 0.31480 0.13000
C 	C 	0.62670 0.75960 0.24730 0.41200
O 	O 	0.58270 0.76440 0.22690 -0.39900
O 	O 	0.66620 0.75890 0.21990 -0.38000
C 	C 	0.63250 0.25330 0.80360 -0.29100
H 	H 	0.61740 0.28230 0.82120 0.13000
H 	H 	0.61510 0.22250 0.81480 0.13100
C 	C 	0.62670 0.25960 0.74730 0.41100
O 	O 	0.58270 0.26440 0.72690 -0.39900
O 	O 	0.66620 0.25890 0.71990 -0.37900
C 	C 	0.13250 0.75330 0.80360 -0.29400
H 	H 	0.11740 0.78230 0.82120 0.13000
H 	H 	0.11510 0.72250 0.81480 0.13000
C 	C 	0.12670 0.75960 0.74730 0.41500
O 	O 	0.08270 0.76440 0.72690 -0.41800
O 	O 	0.16620 0.75890 0.71990 -0.38200
C 	C 	0.13250 0.25330 0.30360 -0.29000
H 	H 	0.11740 0.28230 0.32120 0.12600
H 	H 	0.11510 0.22250 0.31480 0.12700
C 	C 	0.12670 0.25960 0.24730 0.41300
O 	O 	0.08270 0.26440 0.22690 -0.42100
O 	O 	0.16620 0.25890 0.21990 -0.38500
C 	C 	0.75330 0.30360 0.63250 -0.29100
H 	H 	0.78230 0.32120 0.61740 0.13000
H 	H 	0.72250 0.31480 0.61510 0.13000
C 	C 	0.75960 0.24730 0.62670 0.41200
O 	O 	0.76440 0.22690 0.58270 -0.39900
O 	O 	0.75890 0.21990 0.66620 -0.38000
C 	C 	0.75330 0.80360 0.13250 -0.29400
H 	H 	0.78230 0.82120 0.11740 0.13000
H 	H 	0.72250 0.81480 0.11510 0.13000
C 	C 	0.75960 0.74730 0.12670 0.41500
O 	O 	0.76440 0.72690 0.08270 -0.41800
O 	O 	0.75890 0.71990 0.16620 -0.38200
C 	C 	0.25330 0.30360 0.13250 -0.29000
H 	H 	0.28230 0.32120 0.11740 0.12600
H 	H 	0.22250 0.31480 0.11510 0.12700
C 	C 	0.25960 0.24730 0.12670 0.41300
O 	O 	0.26440 0.22690 0.08270 -0.42100
O 	O 	0.25890 0.21990 0.16620 -0.38500
C 	C 	0.25330 0.80360 0.63250 -0.29100
H 	H 	0.28230 0.82120 0.61740 0.13000
H 	H 	0.22250 0.81480 0.61510 0.13100
C 	C 	0.25960 0.74730 0.62670 0.41100
O 	O 	0.26440 0.72690 0.58270 -0.39900
O 	O 	0.25890 0.71990 0.66620 -0.37900
C 	C 	0.99670 0.80360 0.61750 0.10800
H 	H 	0.96770 0.82120 0.63260 0.03100
H 	H 	0.02750 0.81480 0.63490 -0.04900
C 	C 	0.99040 0.74730 0.62330 0.30100
O 	O 	0.98560 0.72690 0.66730 -0.32000
O 	O 	0.99110 0.71990 0.58380 -0.29200
C 	C 	0.99670 0.30360 0.11750 0.11100
H 	H 	0.96770 0.32120 0.13260 0.02900
H 	H 	0.02750 0.31480 0.13490 -0.05600
C 	C 	0.99040 0.24730 0.12330 0.30200
O 	O 	0.98560 0.22690 0.16730 -0.32200
O 	O 	0.99110 0.21990 0.08380 -0.30400
C 	C 	0.49670 0.80360 0.11750 -0.30800
H 	H 	0.46770 0.82120 0.13260 0.13500
H 	H 	0.52750 0.81480 0.13490 0.13500
C 	C 	0.49040 0.74730 0.12330 0.41900
O 	O 	0.48560 0.72690 0.16730 -0.40200
O 	O 	0.49110 0.71990 0.08380 -0.39200
C 	C 	0.49670 0.30360 0.61750 -0.29000
H 	H 	0.46770 0.32120 0.63260 0.12800
H 	H 	0.52750 0.31480 0.63490 0.13000
C 	C 	0.49040 0.24730 0.62330 0.41100
O 	O 	0.48560 0.22690 0.66730 -0.39900
O 	O 	0.49110 0.21990 0.58380 -0.38000
C 	C 	0.49670 0.44640 0.13250 -0.29000
H 	H 	0.46770 0.42880 0.11740 0.12600
H 	H 	0.52750 0.43520 0.11510 0.12800
C 	C 	0.49040 0.50270 0.12670 0.41300
O 	O 	0.48560 0.52310 0.08270 -0.41800
O 	O 	0.49110 0.53010 0.16620 -0.38200
C 	C 	0.49670 0.94640 0.63250 -0.12900
H 	H 	0.46770 0.92880 0.61740 0.09500
H 	H 	0.52750 0.93520 0.61510 0.09600
C 	C 	0.49040 0.00270 0.62670 0.27400
O 	O 	0.48560 0.02310 0.58270 -0.39900
O 	O 	0.49110 0.03010 0.66620 -0.37600
C 	C 	0.99670 0.44640 0.63250 0.11900
H 	H 	0.96770 0.42880 0.61740 0.02600
H 	H 	0.02750 0.43520 0.61510 -0.05500
C 	C 	0.99040 0.50270 0.62670 0.29800
O 	O 	0.98560 0.52310 0.58270 -0.31800
O 	O 	0.99110 0.53010 0.66620 -0.29100
C 	C 	0.99670 0.94640 0.13250 0.26700
H 	H 	0.96770 0.92880 0.11740 -0.00600
H 	H 	0.02750 0.93520 0.11510 -0.08600
C 	C 	0.99040 0.00270 0.12670 0.16800
O 	O 	0.98560 0.02310 0.08270 -0.34000
O 	O 	0.99110 0.03010 0.16620 -0.29300
C 	C 	0.25330 0.94640 0.11750 -0.14100
H 	H 	0.28230 0.92880 0.13260 0.09900
H 	H 	0.22250 0.93520 0.13490 0.09800
C 	C 	0.25960 0.00270 0.12330 0.27700
O 	O 	0.26440 0.02310 0.16730 -0.40400
O 	O 	0.25890 0.03010 0.08380 -0.39100
C 	C 	0.25330 0.44640 0.61750 -0.28900
H 	H 	0.28230 0.42880 0.63260 0.12800
H 	H 	0.22250 0.43520 0.63490 0.12900
C 	C 	0.25960 0.50270 0.62330 0.41100
O 	O 	0.26440 0.52310 0.66730 -0.39800
O 	O 	0.25890 0.53010 0.58380 -0.37900
C 	C 	0.75330 0.94640 0.61750 -0.13300
H 	H 	0.78230 0.92880 0.63260 0.09700
H 	H 	0.72250 0.93520 0.63490 0.09700
C 	C 	0.75960 0.00270 0.62330 0.27700
O 	O 	0.76440 0.02310 0.66730 -0.39900
O 	O 	0.75890 0.03010 0.58380 -0.37600
C 	C 	0.75330 0.44640 0.11750 -0.30700
H 	H 	0.78230 0.42880 0.13260 0.13400
H 	H 	0.72250 0.43520 0.13490 0.13400
C 	C 	0.75960 0.50270 0.12330 0.41900
O 	O 	0.76440 0.52310 0.16730 -0.40100
O 	O 	0.75890 0.53010 0.08380 -0.39100
C 	C 	0.80360 0.61750 0.99670 0.10800
H 	H 	0.82120 0.63260 0.96770 0.03100
H 	H 	0.81480 0.63490 0.02750 -0.04900
C 	C 	0.74730 0.62330 0.99040 0.30100
O 	O 	0.72690 0.66730 0.98560 -0.32000
O 	O 	0.71990 0.58380 0.99110 -0.29200
C 	C 	0.80360 0.11750 0.49670 -0.30800
H 	H 	0.82120 0.13260 0.46770 0.13500
H 	H 	0.81480 0.13490 0.52750 0.13500
C 	C 	0.74730 0.12330 0.49040 0.41900
O 	O 	0.72690 0.16730 0.48560 -0.40200
O 	O 	0.71990 0.08380 0.49110 -0.39200
C 	C 	0.30360 0.61750 0.49670 -0.29000
H 	H 	0.32120 0.63260 0.46770 0.12800
H 	H 	0.31480 0.63490 0.52750 0.13000
C 	C 	0.24730 0.62330 0.49040 0.41100
O 	O 	0.22690 0.66730 0.48560 -0.39900
O 	O 	0.21990 0.58380 0.49110 -0.38000
C 	C 	0.30360 0.11750 0.99670 0.11100
H 	H 	0.32120 0.13260 0.96770 0.02900
H 	H 	0.31480 0.13490 0.02750 -0.05600
C 	C 	0.24730 0.12330 0.99040 0.30200
O 	O 	0.22690 0.16730 0.98560 -0.32200
O 	O 	0.21990 0.08380 0.99110 -0.30400
C 	C 	0.30360 0.63250 0.75330 -0.29100
H 	H 	0.32120 0.61740 0.78230 0.13000
H 	H 	0.31480 0.61510 0.72250 0.13000
C 	C 	0.24730 0.62670 0.75960 0.41200
O 	O 	0.22690 0.58270 0.76440 -0.39900
O 	O 	0.21990 0.66620 0.75890 -0.38000
C 	C 	0.30360 0.13250 0.25330 -0.29000
H 	H 	0.32120 0.11740 0.28230 0.12600
H 	H 	0.31480 0.11510 0.22250 0.12700
C 	C 	0.24730 0.12670 0.25960 0.41300
O 	O 	0.22690 0.08270 0.26440 -0.42100
O 	O 	0.21990 0.16620 0.25890 -0.38500
C 	C 	0.80360 0.63250 0.25330 -0.29100
H 	H 	0.82120 0.61740 0.28230 0.13000
H 	H 	0.81480 0.61510 0.22250 0.13100
C 	C 	0.74730 0.62670 0.25960 0.41100
O 	O 	0.72690 0.58270 0.26440 -0.39900
O 	O 	0.71990 0.66620 0.25890 -0.37900
C 	C 	0.80360 0.13250 0.75330 -0.29400
H 	H 	0.82120 0.11740 0.78230 0.13000
H 	H 	0.81480 0.11510 0.72250 0.13000
C 	C 	0.74730 0.12670 0.75960 0.41500
O 	O 	0.72690 0.08270 0.76440 -0.41800
O 	O 	0.71990 0.16620 0.75890 -0.38200
C 	C 	0.94640 0.11750 0.25330 -0.14100
H 	H 	0.92880 0.13260 0.28230 0.09900
H 	H 	0.93520 0.13490 0.22250 0.09800
C 	C 	0.00270 0.12330 0.25960 0.27700
O 	O 	0.02310 0.16730 0.26440 -0.40400
O 	O 	0.03010 0.08380 0.25890 -0.39100
C 	C 	0.94640 0.61750 0.75330 -0.13300
H 	H 	0.92880 0.63260 0.78230 0.09700
H 	H 	0.93520 0.63490 0.72250 0.09700
C 	C 	0.00270 0.62330 0.75960 0.27700
O 	O 	0.02310 0.66730 0.76440 -0.39900
O 	O 	0.03010 0.58380 0.75890 -0.37600
C 	C 	0.44640 0.11750 0.75330 -0.30700
H 	H 	0.42880 0.13260 0.78230 0.13400
H 	H 	0.43520 0.13490 0.72250 0.13400
C 	C 	0.50270 0.12330 0.75960 0.41900
O 	O 	0.52310 0.16730 0.76440 -0.40100
O 	O 	0.53010 0.08380 0.75890 -0.39100
C 	C 	0.44640 0.61750 0.25330 -0.28900
H 	H 	0.42880 0.63260 0.28230 0.12800
H 	H 	0.43520 0.63490 0.22250 0.12900
C 	C 	0.50270 0.62330 0.25960 0.41100
O 	O 	0.52310 0.66730 0.26440 -0.39800
O 	O 	0.53010 0.58380 0.25890 -0.37900
C 	C 	0.44640 0.13250 0.49670 -0.29000
H 	H 	0.42880 0.11740 0.46770 0.12600
H 	H 	0.43520 0.11510 0.52750 0.12800
C 	C 	0.50270 0.12670 0.49040 0.41300
O 	O 	0.52310 0.08270 0.48560 -0.41800
O 	O 	0.53010 0.16620 0.49110 -0.38200
C 	C 	0.44640 0.63250 0.99670 0.11900
H 	H 	0.42880 0.61740 0.96770 0.02600
H 	H 	0.43520 0.61510 0.02750 -0.05500
C 	C 	0.50270 0.62670 0.99040 0.29800
O 	O 	0.52310 0.58270 0.98560 -0.31800
O 	O 	0.53010 0.66620 0.99110 -0.29100
C 	C 	0.94640 0.13250 0.99670 0.26700
H 	H 	0.92880 0.11740 0.96770 -0.00600
H 	H 	0.93520 0.11510 0.02750 -0.08600
C 	C 	0.00270 0.12670 0.99040 0.16800
O 	O 	0.02310 0.08270 0.98560 -0.34000
O 	O 	0.03010 0.16620 0.99110 -0.29300
C 	C 	0.94640 0.63250 0.49670 -0.12900
H 	H 	0.92880 0.61740 0.46770 0.09500
H 	H 	0.93520 0.61510 0.52750 0.09600
C 	C 	0.00270 0.62670 0.49040 0.27400
O 	O 	0.02310 0.58270 0.48560 -0.39900
O 	O 	0.03010 0.66620 0.49110 -0.37600
C 	C 	0.99670 0.63250 0.94640 0.25800
H 	H 	0.96770 0.61740 0.92880 -0.00200
H 	H 	0.02750 0.61510 0.93520 -0.08000
C 	C 	0.99040 0.62670 0.00270 0.16900
O 	O 	0.98560 0.58270 0.02310 -0.32100
O 	O 	0.99110 0.66620 0.03010 -0.29100
C 	C 	0.99670 0.13250 0.44640 0.12500
H 	H 	0.96770 0.11740 0.42880 0.02300
H 	H 	0.02750 0.11510 0.43520 -0.06000
C 	C 	0.99040 0.12670 0.50270 0.29800
O 	O 	0.98560 0.08270 0.52310 -0.33700
O 	O 	0.99110 0.16620 0.53010 -0.29300
C 	C 	0.49670 0.63250 0.44640 -0.28900
H 	H 	0.46770 0.61740 0.42880 0.12800
H 	H 	0.52750 0.61510 0.43520 0.13000
C 	C 	0.49040 0.62670 0.50270 0.41100
O 	O 	0.48560 0.58270 0.52310 -0.39800
O 	O 	0.49110 0.66620 0.53010 -0.37800
C 	C 	0.49670 0.13250 0.94640 -0.12800
H 	H 	0.46770 0.11740 0.92880 0.09200
H 	H 	0.52750 0.11510 0.93520 0.09400
C 	C 	0.49040 0.12670 0.00270 0.27400
O 	O 	0.48560 0.08270 0.02310 -0.42000
O 	O 	0.49110 0.16620 0.03010 -0.38000
C 	C 	0.75330 0.61750 0.44640 -0.29100
H 	H 	0.78230 0.63260 0.42880 0.12900
H 	H 	0.72250 0.63490 0.43520 0.13000
C 	C 	0.75960 0.62330 0.50270 0.41200
O 	O 	0.76440 0.66730 0.52310 -0.39800
O 	O 	0.75890 0.58380 0.53010 -0.37800
C 	C 	0.75330 0.11750 0.94640 -0.14600
H 	H 	0.78230 0.13260 0.92880 0.10100
H 	H 	0.72250 0.13490 0.93520 0.10000
C 	C 	0.75960 0.12330 0.00270 0.28200
O 	O 	0.76440 0.16730 0.02310 -0.40300
O 	O 	0.75890 0.08380 0.03010 -0.38900
C 	C 	0.25330 0.61750 0.94640 -0.12800
H 	H 	0.28230 0.63260 0.92880 0.09400
H 	H 	0.22250 0.63490 0.93520 0.09500
C 	C 	0.25960 0.62330 0.00270 0.27200
O 	O 	0.26440 0.66730 0.02310 -0.40000
O 	O 	0.25890 0.58380 0.03010 -0.37700
C 	C 	0.25330 0.11750 0.44640 -0.30600
H 	H 	0.28230 0.13260 0.42880 0.13200
H 	H 	0.22250 0.13490 0.43520 0.13300
C 	C 	0.25960 0.12330 0.50270 0.41700
O 	O 	0.26440 0.16730 0.52310 -0.40200
O 	O 	0.25890 0.08380 0.53010 -0.39300
C 	C 	0.25330 0.13250 0.80360 -0.29200
H 	H 	0.28230 0.11740 0.82120 0.12800
H 	H 	0.22250 0.11510 0.81480 0.12900
C 	C 	0.25960 0.12670 0.74730 0.41400
O 	O 	0.26440 0.08270 0.72690 -0.41900
O 	O 	0.25890 0.16620 0.71990 -0.38300
C 	C 	0.25330 0.63250 0.30360 -0.28900
H 	H 	0.28230 0.61740 0.32120 0.12800
H 	H 	0.22250 0.61510 0.31480 0.12900
C 	C 	0.25960 0.62670 0.24730 0.41100
O 	O 	0.26440 0.58270 0.22690 -0.40000
O 	O 	0.25890 0.66620 0.21990 -0.38100
C 	C 	0.75330 0.13250 0.30360 -0.29200
H 	H 	0.78230 0.11740 0.32120 0.12700
H 	H 	0.72250 0.11510 0.31480 0.12800
C 	C 	0.75960 0.12670 0.24730 0.41400
O 	O 	0.76440 0.08270 0.22690 -0.41900
O 	O 	0.75890 0.16620 0.21990 -0.38400
C 	C 	0.75330 0.63250 0.80360 -0.29300
H 	H 	0.78230 0.61740 0.82120 0.13200
H 	H 	0.72250 0.61510 0.81480 0.13200
C 	C 	0.75960 0.62670 0.74730 0.41300
O 	O 	0.76440 0.58270 0.72690 -0.39800
O 	O 	0.75890 0.66620 0.71990 -0.37800
C 	C 	0.49670 0.11750 0.30360 -0.30600
H 	H 	0.46770 0.13260 0.32120 0.13300
H 	H 	0.52750 0.13490 0.31480 0.13300
C 	C 	0.49040 0.12330 0.24730 0.41800
O 	O 	0.48560 0.16730 0.22690 -0.40300
O 	O 	0.49110 0.08380 0.21990 -0.39300
C 	C 	0.49670 0.61750 0.80360 -0.29200
H 	H 	0.46770 0.63260 0.82120 0.13000
H 	H 	0.52750 0.63490 0.81480 0.13100
C 	C 	0.49040 0.62330 0.74730 0.41200
O 	O 	0.48560 0.66730 0.72690 -0.39800
O 	O 	0.49110 0.58380 0.71990 -0.37800
C 	C 	0.99670 0.11750 0.80360 0.09900
H 	H 	0.96770 0.13260 0.82120 0.03400
H 	H 	0.02750 0.13490 0.81480 -0.04900
C 	C 	0.99040 0.12330 0.74730 0.30600
O 	O 	0.98560 0.16730 0.72690 -0.32200
O 	O 	0.99110 0.08380 0.71990 -0.30500
C 	C 	0.99670 0.61750 0.30360 0.12100
H 	H 	0.96770 0.63260 0.32120 0.02600
H 	H 	0.02750 0.63490 0.31480 -0.05600
C 	C 	0.99040 0.62330 0.24730 0.29700
O 	O 	0.98560 0.66730 0.22690 -0.32000
O 	O 	0.99110 0.58380 0.21990 -0.29200
C 	C 	0.94640 0.99670 0.63250 0.25800
H 	H 	0.92880 0.96770 0.61740 -0.00200
H 	H 	0.93520 0.02750 0.61510 -0.08000
C 	C 	0.00270 0.99040 0.62670 0.16900
O 	O 	0.02310 0.98560 0.58270 -0.32100
O 	O 	0.03010 0.99110 0.66620 -0.29100
C 	C 	0.94640 0.49670 0.13250 -0.12800
H 	H 	0.92880 0.46770 0.11740 0.09200
H 	H 	0.93520 0.52750 0.11510 0.09400
C 	C 	0.00270 0.49040 0.12670 0.27400
O 	O 	0.02310 0.48560 0.08270 -0.42000
O 	O 	0.03010 0.49110 0.16620 -0.38000
C 	C 	0.44640 0.99670 0.13250 0.12500
H 	H 	0.42880 0.96770 0.11740 0.02300
H 	H 	0.43520 0.02750 0.11510 -0.06000
C 	C 	0.50270 0.99040 0.12670 0.29800
O 	O 	0.52310 0.98560 0.08270 -0.33700
O 	O 	0.53010 0.99110 0.16620 -0.29300
C 	C 	0.44640 0.49670 0.63250 -0.28900
H 	H 	0.42880 0.46770 0.61740 0.12800
H 	H 	0.43520 0.52750 0.61510 0.13000
C 	C 	0.50270 0.49040 0.62670 0.41100
O 	O 	0.52310 0.48560 0.58270 -0.39800
O 	O 	0.53010 0.49110 0.66620 -0.37800
C 	C 	0.44640 0.75330 0.61750 -0.29100
H 	H 	0.42880 0.78230 0.63260 0.12900
H 	H 	0.43520 0.72250 0.63490 0.13000
C 	C 	0.50270 0.75960 0.62330 0.41200
O 	O 	0.52310 0.76440 0.66730 -0.39800
O 	O 	0.53010 0.75890 0.58380 -0.37800
C 	C 	0.44640 0.25330 0.11750 -0.30600
H 	H 	0.42880 0.28230 0.13260 0.13200
H 	H 	0.43520 0.22250 0.13490 0.13300
C 	C 	0.50270 0.25960 0.12330 0.41700
O 	O 	0.52310 0.26440 0.16730 -0.40200
O 	O 	0.53010 0.25890 0.08380 -0.39300
C 	C 	0.94640 0.75330 0.11750 -0.14600
H 	H 	0.92880 0.78230 0.13260 0.10100
H 	H 	0.93520 0.72250 0.13490 0.10000
C 	C 	0.00270 0.75960 0.12330 0.28200
O 	O 	0.02310 0.76440 0.16730 -0.40300
O 	O 	0.03010 0.75890 0.08380 -0.38900
C 	C 	0.94640 0.25330 0.61750 -0.12800
H 	H 	0.92880 0.28230 0.63260 0.09400
H 	H 	0.93520 0.22250 0.63490 0.09500
C 	C 	0.00270 0.25960 0.62330 0.27200
O 	O 	0.02310 0.26440 0.66730 -0.40000
O 	O 	0.03010 0.25890 0.58380 -0.37700
C 	C 	0.80360 0.25330 0.13250 -0.29200
H 	H 	0.82120 0.28230 0.11740 0.12800
H 	H 	0.81480 0.22250 0.11510 0.12900
C 	C 	0.74730 0.25960 0.12670 0.41400
O 	O 	0.72690 0.26440 0.08270 -0.41900
O 	O 	0.71990 0.25890 0.16620 -0.38300
C 	C 	0.80360 0.75330 0.63250 -0.29300
H 	H 	0.82120 0.78230 0.61740 0.13200
H 	H 	0.81480 0.72250 0.61510 0.13200
C 	C 	0.74730 0.75960 0.62670 0.41300
O 	O 	0.72690 0.76440 0.58270 -0.39800
O 	O 	0.71990 0.75890 0.66620 -0.37800
C 	C 	0.30360 0.25330 0.63250 -0.28900
H 	H 	0.32120 0.28230 0.61740 0.12800
H 	H 	0.31480 0.22250 0.61510 0.12900
C 	C 	0.24730 0.25960 0.62670 0.41100
O 	O 	0.22690 0.26440 0.58270 -0.40000
O 	O 	0.21990 0.25890 0.66620 -0.38100
C 	C 	0.30360 0.75330 0.13250 -0.29200
H 	H 	0.32120 0.78230 0.11740 0.12700
H 	H 	0.31480 0.72250 0.11510 0.12800
C 	C 	0.24730 0.75960 0.12670 0.41400
O 	O 	0.22690 0.76440 0.08270 -0.41900
O 	O 	0.21990 0.75890 0.16620 -0.38400
C 	C 	0.30360 0.49670 0.11750 -0.30600
H 	H 	0.32120 0.46770 0.13260 0.13300
H 	H 	0.31480 0.52750 0.13490 0.13300
C 	C 	0.24730 0.49040 0.12330 0.41800
O 	O 	0.22690 0.48560 0.16730 -0.40300
O 	O 	0.21990 0.49110 0.08380 -0.39300
C 	C 	0.30360 0.99670 0.61750 0.12100
H 	H 	0.32120 0.96770 0.63260 0.02600
H 	H 	0.31480 0.02750 0.63490 -0.05600
C 	C 	0.24730 0.99040 0.62330 0.29700
O 	O 	0.22690 0.98560 0.66730 -0.32000
O 	O 	0.21990 0.99110 0.58380 -0.29200
C 	C 	0.80360 0.49670 0.61750 -0.29200
H 	H 	0.82120 0.46770 0.63260 0.13000
H 	H 	0.81480 0.52750 0.63490 0.13100
C 	C 	0.74730 0.49040 0.62330 0.41200
O 	O 	0.72690 0.48560 0.66730 -0.39800
O 	O 	0.71990 0.49110 0.58380 -0.37800
C 	C 	0.80360 0.99670 0.11750 0.09900
H 	H 	0.82120 0.96770 0.13260 0.03400
H 	H 	0.81480 0.02750 0.13490 -0.04900
C 	C 	0.74730 0.99040 0.12330 0.30600
O 	O 	0.72690 0.98560 0.16730 -0.32200
O 	O 	0.71990 0.99110 0.08380 -0.30500
C 	C 	0.63250 0.94640 0.99670 0.25800
H 	H 	0.61740 0.92880 0.96770 -0.00200
H 	H 	0.61510 0.93520 0.02750 -0.08000
C 	C 	0.62670 0.00270 0.99040 0.16900
O 	O 	0.58270 0.02310 0.98560 -0.32100
O 	O 	0.66620 0.03010 0.99110 -0.29100
C 	C 	0.63250 0.44640 0.49670 -0.28900
H 	H 	0.61740 0.42880 0.46770 0.12800
H 	H 	0.61510 0.43520 0.52750 0.13000
C 	C 	0.62670 0.50270 0.49040 0.41100
O 	O 	0.58270 0.52310 0.48560 -0.39800
O 	O 	0.66620 0.53010 0.49110 -0.37800
C 	C 	0.13250 0.94640 0.49670 -0.12800
H 	H 	0.11740 0.92880 0.46770 0.09200
H 	H 	0.11510 0.93520 0.52750 0.09400
C 	C 	0.12670 0.00270 0.49040 0.27400
O 	O 	0.08270 0.02310 0.48560 -0.42000
O 	O 	0.16620 0.03010 0.49110 -0.38000
C 	C 	0.13250 0.44640 0.99670 0.12500
H 	H 	0.11740 0.42880 0.96770 0.02300
H 	H 	0.11510 0.43520 0.02750 -0.06000
C 	C 	0.12670 0.50270 0.99040 0.29800
O 	O 	0.08270 0.52310 0.98560 -0.33700
O 	O 	0.16620 0.53010 0.99110 -0.29300
C 	C 	0.61750 0.44640 0.75330 -0.29100
H 	H 	0.63260 0.42880 0.78230 0.12900
H 	H 	0.63490 0.43520 0.72250 0.13000
C 	C 	0.62330 0.50270 0.75960 0.41200
O 	O 	0.66730 0.52310 0.76440 -0.39800
O 	O 	0.58380 0.53010 0.75890 -0.37800
C 	C 	0.61750 0.94640 0.25330 -0.12800
H 	H 	0.63260 0.92880 0.28230 0.09400
H 	H 	0.63490 0.93520 0.22250 0.09500
C 	C 	0.62330 0.00270 0.25960 0.27200
O 	O 	0.66730 0.02310 0.26440 -0.40000
O 	O 	0.58380 0.03010 0.25890 -0.37700
C 	C 	0.11750 0.44640 0.25330 -0.30600
H 	H 	0.13260 0.42880 0.28230 0.13200
H 	H 	0.13490 0.43520 0.22250 0.13300
C 	C 	0.12330 0.50270 0.25960 0.41700
O 	O 	0.16730 0.52310 0.26440 -0.40200
O 	O 	0.08380 0.53010 0.25890 -0.39300
C 	C 	0.11750 0.94640 0.75330 -0.14600
H 	H 	0.13260 0.92880 0.78230 0.10100
H 	H 	0.13490 0.93520 0.72250 0.10000
C 	C 	0.12330 0.00270 0.75960 0.28200
O 	O 	0.16730 0.02310 0.76440 -0.40300
O 	O 	0.08380 0.03010 0.75890 -0.38900
C 	C 	0.13250 0.80360 0.25330 -0.29200
H 	H 	0.11740 0.82120 0.28230 0.12800
H 	H 	0.11510 0.81480 0.22250 0.12900
C 	C 	0.12670 0.74730 0.25960 0.41400
O 	O 	0.08270 0.72690 0.26440 -0.41900
O 	O 	0.16620 0.71990 0.25890 -0.38300
C 	C 	0.13250 0.30360 0.75330 -0.29200
H 	H 	0.11740 0.32120 0.78230 0.12700
H 	H 	0.11510 0.31480 0.72250 0.12800
C 	C 	0.12670 0.24730 0.75960 0.41400
O 	O 	0.08270 0.22690 0.76440 -0.41900
O 	O 	0.16620 0.21990 0.75890 -0.38400
C 	C 	0.63250 0.80360 0.75330 -0.29300
H 	H 	0.61740 0.82120 0.78230 0.13200
H 	H 	0.61510 0.81480 0.72250 0.13200
C 	C 	0.62670 0.74730 0.75960 0.41300
O 	O 	0.58270 0.72690 0.76440 -0.39800
O 	O 	0.66620 0.71990 0.75890 -0.37800
C 	C 	0.63250 0.30360 0.25330 -0.28900
H 	H 	0.61740 0.32120 0.28230 0.12800
H 	H 	0.61510 0.31480 0.22250 0.12900
C 	C 	0.62670 0.24730 0.25960 0.41100
O 	O 	0.58270 0.22690 0.26440 -0.40000
O 	O 	0.66620 0.21990 0.25890 -0.38100
C 	C 	0.11750 0.30360 0.49670 -0.30600
H 	H 	0.13260 0.32120 0.46770 0.13300
H 	H 	0.13490 0.31480 0.52750 0.13300
C 	C 	0.12330 0.24730 0.49040 0.41800
O 	O 	0.16730 0.22690 0.48560 -0.40300
O 	O 	0.08380 0.21990 0.49110 -0.39300
C 	C 	0.11750 0.80360 0.99670 0.09900
H 	H 	0.13260 0.82120 0.96770 0.03400
H 	H 	0.13490 0.81480 0.02750 -0.04900
C 	C 	0.12330 0.74730 0.99040 0.30600
O 	O 	0.16730 0.72690 0.98560 -0.32200
O 	O 	0.08380 0.71990 0.99110 -0.30500
C 	C 	0.61750 0.30360 0.99670 0.12100
H 	H 	0.63260 0.32120 0.96770 0.02600
H 	H 	0.63490 0.31480 0.02750 -0.05600
C 	C 	0.62330 0.24730 0.99040 0.29700
O 	O 	0.66730 0.22690 0.98560 -0.32000
O 	O 	0.58380 0.21990 0.99110 -0.29200
C 	C 	0.61750 0.80360 0.49670 -0.29200
H 	H 	0.63260 0.82120 0.46770 0.13000
H 	H 	0.63490 0.81480 0.52750 0.13100
C 	C 	0.62330 0.74730 0.49040 0.41200
O 	O 	0.66730 0.72690 0.48560 -0.39800
O 	O 	0.58380 0.71990 0.49110 -0.37800
C 	C 	0.88250 0.74670 0.05360 -0.42700
H 	H 	0.86740 0.71770 0.07120 0.15900
H 	H 	0.86510 0.77750 0.06480 0.16200
C 	C 	0.87670 0.74040 0.99730 0.53300
O 	O 	0.83270 0.73560 0.97690 -0.37700
O 	O 	0.91620 0.74110 0.96990 -0.32100
C 	C 	0.88250 0.24670 0.55360 -0.27000
H 	H 	0.86740 0.21770 0.57120 0.12200
H 	H 	0.86510 0.27750 0.56480 0.12700
C 	C 	0.87670 0.24040 0.49730 0.39900
O 	O 	0.83270 0.23560 0.47690 -0.39100
O 	O 	0.91620 0.24110 0.46990 -0.33600
C 	C 	0.38250 0.74670 0.55360 -0.29100
H 	H 	0.36740 0.71770 0.57120 0.12800
H 	H 	0.36510 0.77750 0.56480 0.13200
C 	C 	0.37670 0.74040 0.49730 0.41200
O 	O 	0.33270 0.73560 0.47690 -0.39700
O 	O 	0.41620 0.74110 0.46990 -0.37700
C 	C 	0.38250 0.24670 0.05360 -0.45200
H 	H 	0.36740 0.21770 0.07120 0.16400
H 	H 	0.36510 0.27750 0.06480 0.16500
C 	C 	0.37670 0.24040 0.99730 0.55000
O 	O 	0.33270 0.23560 0.97690 -0.38300
O 	O 	0.41620 0.24110 0.96990 -0.36200
C 	C 	0.86750 0.50330 0.55360 -0.28800
H 	H 	0.88260 0.53230 0.57120 0.13100
H 	H 	0.88490 0.47250 0.56480 0.13500
C 	C 	0.87330 0.50960 0.49730 0.40700
O 	O 	0.91730 0.51440 0.47690 -0.36500
O 	O 	0.83380 0.50890 0.46990 -0.37200
C 	C 	0.86750 0.00330 0.05360 -0.62700
H 	H 	0.88260 0.03230 0.07120 0.20900
H 	H 	0.88490 0.97250 0.06480 0.29400
C 	C 	0.87330 0.00960 0.99730 0.58900
O 	O 	0.91730 0.01440 0.97690 -0.40100
O 	O 	0.83380 0.00890 0.96990 -0.39700
C 	C 	0.36750 0.50330 0.05360 -0.45200
H 	H 	0.38260 0.53230 0.07120 0.16500
H 	H 	0.38490 0.47250 0.06480 0.16500
C 	C 	0.37330 0.50960 0.99730 0.54900
O 	O 	0.41730 0.51440 0.97690 -0.38400
O 	O 	0.33380 0.50890 0.96990 -0.36200
C 	C 	0.36750 0.00330 0.55360 -0.47300
H 	H 	0.38260 0.03230 0.57120 0.17000
H 	H 	0.38490 0.97250 0.56480 0.25700
C 	C 	0.37330 0.00960 0.49730 0.45900
O 	O 	0.41730 0.01440 0.47690 -0.44800
O 	O 	0.33380 0.00890 0.46990 -0.41900
C 	C 	0.38250 0.00330 0.19640 -0.47500
H 	H 	0.36740 0.03230 0.17880 0.17000
H 	H 	0.36510 0.97250 0.18520 0.25800
C 	C 	0.37670 0.00960 0.25270 0.45900
O 	O 	0.33270 0.01440 0.27310 -0.44800
O 	O 	0.41620 0.00890 0.28010 -0.41900
C 	C 	0.38250 0.50330 0.69640 -0.28900
H 	H 	0.36740 0.53230 0.67880 0.12800
H 	H 	0.36510 0.47250 0.68520 0.13000
C 	C 	0.37670 0.50960 0.75270 0.41100
O 	O 	0.33270 0.51440 0.77310 -0.39500
O 	O 	0.41620 0.50890 0.78010 -0.37500
C 	C 	0.88250 0.00330 0.69640 -0.44900
H 	H 	0.86740 0.03230 0.67880 0.16400
H 	H 	0.86510 0.97250 0.68520 0.25000
C 	C 	0.87670 0.00960 0.75270 0.44600
O 	O 	0.83270 0.01440 0.77310 -0.43700
O 	O 	0.91620 0.00890 0.78010 -0.37400
C 	C 	0.88250 0.50330 0.19640 -0.27000
H 	H 	0.86740 0.53230 0.17880 0.12200
H 	H 	0.86510 0.47250 0.18520 0.12600
C 	C 	0.87670 0.50960 0.25270 0.39900
O 	O 	0.83270 0.51440 0.27310 -0.39100
O 	O 	0.91620 0.50890 0.28010 -0.33500
C 	C 	0.36750 0.24670 0.69640 -0.28800
H 	H 	0.38260 0.21770 0.67880 0.12700
H 	H 	0.38490 0.27750 0.68520 0.13000
C 	C 	0.37330 0.24040 0.75270 0.41100
O 	O 	0.41730 0.23560 0.77310 -0.39500
O 	O 	0.33380 0.24110 0.78010 -0.37500
C 	C 	0.36750 0.74670 0.19640 -0.29000
H 	H 	0.38260 0.71770 0.17880 0.12700
H 	H 	0.38490 0.77750 0.18520 0.13100
C 	C 	0.37330 0.74040 0.25270 0.41200
O 	O 	0.41730 0.73560 0.27310 -0.39600
O 	O 	0.33380 0.74110 0.28010 -0.37600
C 	C 	0.86750 0.24670 0.19640 -0.28700
H 	H 	0.88260 0.21770 0.17880 0.13000
H 	H 	0.88490 0.27750 0.18520 0.13500
C 	C 	0.87330 0.24040 0.25270 0.40600
O 	O 	0.91730 0.23560 0.27310 -0.36500
O 	O 	0.83380 0.24110 0.28010 -0.37200
C 	C 	0.86750 0.74670 0.69640 -0.28900
H 	H 	0.88260 0.71770 0.67880 0.13100
H 	H 	0.88490 0.77750 0.68520 0.13700
C 	C 	0.87330 0.74040 0.75270 0.40800
O 	O 	0.91730 0.73560 0.77310 -0.36400
O 	O 	0.83380 0.74110 0.78010 -0.36900
C 	C 	0.24670 0.69640 0.36750 -0.28800
H 	H 	0.21770 0.67880 0.38260 0.12700
H 	H 	0.27750 0.68520 0.38490 0.13000
C 	C 	0.24040 0.75270 0.37330 0.41100
O 	O 	0.23560 0.77310 0.41730 -0.39500
O 	O 	0.24110 0.78010 0.33380 -0.37500
C 	C 	0.24670 0.19640 0.86750 -0.28700
H 	H 	0.21770 0.17880 0.88260 0.13000
H 	H 	0.27750 0.18520 0.88490 0.13500
C 	C 	0.24040 0.25270 0.87330 0.40600
O 	O 	0.23560 0.27310 0.91730 -0.36500
O 	O 	0.24110 0.28010 0.83380 -0.37200
C 	C 	0.74670 0.69640 0.86750 -0.28900
H 	H 	0.71770 0.67880 0.88260 0.13100
H 	H 	0.77750 0.68520 0.88490 0.13700
C 	C 	0.74040 0.75270 0.87330 0.40800
O 	O 	0.73560 0.77310 0.91730 -0.36400
O 	O 	0.74110 0.78010 0.83380 -0.36900
C 	C 	0.74670 0.19640 0.36750 -0.29000
H 	H 	0.71770 0.17880 0.38260 0.12700
H 	H 	0.77750 0.18520 0.38490 0.13100
C 	C 	0.74040 0.25270 0.37330 0.41200
O 	O 	0.73560 0.27310 0.41730 -0.39600
O 	O 	0.74110 0.28010 0.33380 -0.37600
C 	C 	0.00330 0.19640 0.38250 -0.47500
H 	H 	0.03230 0.17880 0.36740 0.17000
H 	H 	0.97250 0.18520 0.36510 0.25800
C 	C 	0.00960 0.25270 0.37670 0.45900
O 	O 	0.01440 0.27310 0.33270 -0.44800
O 	O 	0.00890 0.28010 0.41620 -0.41900
C 	C 	0.00330 0.69640 0.88250 -0.44900
H 	H 	0.03230 0.67880 0.86740 0.16400
H 	H 	0.97250 0.68520 0.86510 0.25000
C 	C 	0.00960 0.75270 0.87670 0.44600
O 	O 	0.01440 0.77310 0.83270 -0.43700
O 	O 	0.00890 0.78010 0.91620 -0.37400
C 	C 	0.50330 0.19640 0.88250 -0.27000
H 	H 	0.53230 0.17880 0.86740 0.12200
H 	H 	0.47250 0.18520 0.86510 0.12600
C 	C 	0.50960 0.25270 0.87670 0.39900
O 	O 	0.51440 0.27310 0.83270 -0.39100
O 	O 	0.50890 0.28010 0.91620 -0.33500
C 	C 	0.50330 0.69640 0.38250 -0.28900
H 	H 	0.53230 0.67880 0.36740 0.12800
H 	H 	0.47250 0.68520 0.36510 0.13000
C 	C 	0.50960 0.75270 0.37670 0.41100
O 	O 	0.51440 0.77310 0.33270 -0.39500
O 	O 	0.50890 0.78010 0.41620 -0.37500
C 	C 	0.50330 0.55360 0.86750 -0.28800
H 	H 	0.53230 0.57120 0.88260 0.13100
H 	H 	0.47250 0.56480 0.88490 0.13500
C 	C 	0.50960 0.49730 0.87330 0.40700
O 	O 	0.51440 0.47690 0.91730 -0.36500
O 	O 	0.50890 0.46990 0.83380 -0.37200
C 	C 	0.50330 0.05360 0.36750 -0.45200
H 	H 	0.53230 0.07120 0.38260 0.16500
H 	H 	0.47250 0.06480 0.38490 0.16500
C 	C 	0.50960 0.99730 0.37330 0.54900
O 	O 	0.51440 0.97690 0.41730 -0.38400
O 	O 	0.50890 0.96990 0.33380 -0.36200
C 	C 	0.00330 0.55360 0.36750 -0.47300
H 	H 	0.03230 0.57120 0.38260 0.17000
H 	H 	0.97250 0.56480 0.38490 0.25700
C 	C 	0.00960 0.49730 0.37330 0.45900
O 	O 	0.01440 0.47690 0.41730 -0.44800
O 	O 	0.00890 0.46990 0.33380 -0.41900
C 	C 	0.00330 0.05360 0.86750 -0.62700
H 	H 	0.03230 0.07120 0.88260 0.20900
H 	H 	0.97250 0.06480 0.88490 0.29400
C 	C 	0.00960 0.99730 0.87330 0.58900
O 	O 	0.01440 0.97690 0.91730 -0.40100
O 	O 	0.00890 0.96990 0.83380 -0.39700
C 	C 	0.74670 0.05360 0.88250 -0.42700
H 	H 	0.71770 0.07120 0.86740 0.15900
H 	H 	0.77750 0.06480 0.86510 0.16200
C 	C 	0.74040 0.99730 0.87670 0.53300
O 	O 	0.73560 0.97690 0.83270 -0.37700
O 	O 	0.74110 0.96990 0.91620 -0.32100
C 	C 	0.74670 0.55360 0.38250 -0.29100
H 	H 	0.71770 0.57120 0.36740 0.12800
H 	H 	0.77750 0.56480 0.36510 0.13200
C 	C 	0.74040 0.49730 0.37670 0.41200
O 	O 	0.73560 0.47690 0.33270 -0.39700
O 	O 	0.74110 0.46990 0.41620 -0.37700
C 	C 	0.24670 0.05360 0.38250 -0.45200
H 	H 	0.21770 0.07120 0.36740 0.16400
H 	H 	0.27750 0.06480 0.36510 0.16500
C 	C 	0.24040 0.99730 0.37670 0.55000
O 	O 	0.23560 0.97690 0.33270 -0.38300
O 	O 	0.24110 0.96990 0.41620 -0.36200
C 	C 	0.24670 0.55360 0.88250 -0.27000
H 	H 	0.21770 0.57120 0.86740 0.12200
H 	H 	0.27750 0.56480 0.86510 0.12700
C 	C 	0.24040 0.49730 0.87670 0.39900
O 	O 	0.23560 0.47690 0.83270 -0.39100
O 	O 	0.24110 0.46990 0.91620 -0.33600
C 	C 	0.19640 0.38250 0.00330 -0.47500
H 	H 	0.17880 0.36740 0.03230 0.17000
H 	H 	0.18520 0.36510 0.97250 0.25800
C 	C 	0.25270 0.37670 0.00960 0.45900
O 	O 	0.27310 0.33270 0.01440 -0.44800
O 	O 	0.28010 0.41620 0.00890 -0.41900
C 	C 	0.19640 0.88250 0.50330 -0.27000
H 	H 	0.17880 0.86740 0.53230 0.12200
H 	H 	0.18520 0.86510 0.47250 0.12600
C 	C 	0.25270 0.87670 0.50960 0.39900
O 	O 	0.27310 0.83270 0.51440 -0.39100
O 	O 	0.28010 0.91620 0.50890 -0.33500
C 	C 	0.69640 0.38250 0.50330 -0.28900
H 	H 	0.67880 0.36740 0.53230 0.12800
H 	H 	0.68520 0.36510 0.47250 0.13000
C 	C 	0.75270 0.37670 0.50960 0.41100
O 	O 	0.77310 0.33270 0.51440 -0.39500
O 	O 	0.78010 0.41620 0.50890 -0.37500
C 	C 	0.69640 0.88250 0.00330 -0.44900
H 	H 	0.67880 0.86740 0.03230 0.16400
H 	H 	0.68520 0.86510 0.97250 0.25000
C 	C 	0.75270 0.87670 0.00960 0.44600
O 	O 	0.77310 0.83270 0.01440 -0.43700
O 	O 	0.78010 0.91620 0.00890 -0.37400
C 	C 	0.69640 0.36750 0.24670 -0.28800
H 	H 	0.67880 0.38260 0.21770 0.12700
H 	H 	0.68520 0.38490 0.27750 0.13000
C 	C 	0.75270 0.37330 0.24040 0.41100
O 	O 	0.77310 0.41730 0.23560 -0.39500
O 	O 	0.78010 0.33380 0.24110 -0.37500
C 	C 	0.69640 0.86750 0.74670 -0.28900
H 	H 	0.67880 0.88260 0.71770 0.13100
H 	H 	0.68520 0.88490 0.77750 0.13700
C 	C 	0.75270 0.87330 0.74040 0.40800
O 	O 	0.77310 0.91730 0.73560 -0.36400
O 	O 	0.78010 0.83380 0.74110 -0.36900
C 	C 	0.19640 0.36750 0.74670 -0.29000
H 	H 	0.17880 0.38260 0.71770 0.12700
H 	H 	0.18520 0.38490 0.77750 0.13100
C 	C 	0.25270 0.37330 0.74040 0.41200
O 	O 	0.27310 0.41730 0.73560 -0.39600
O 	O 	0.28010 0.33380 0.74110 -0.37600
C 	C 	0.19640 0.86750 0.24670 -0.28700
H 	H 	0.17880 0.88260 0.21770 0.13000
H 	H 	0.18520 0.88490 0.27750 0.13500
C 	C 	0.25270 0.87330 0.24040 0.40600
O 	O 	0.27310 0.91730 0.23560 -0.36500
O 	O 	0.28010 0.83380 0.24110 -0.37200
C 	C 	0.05360 0.88250 0.74670 -0.42700
H 	H 	0.07120 0.86740 0.71770 0.15900
H 	H 	0.06480 0.86510 0.77750 0.16200
C 	C 	0.99730 0.87670 0.74040 0.53300
O 	O 	0.97690 0.83270 0.73560 -0.37700
O 	O 	0.96990 0.91620 0.74110 -0.32100
C 	C 	0.05360 0.38250 0.24670 -0.45200
H 	H 	0.07120 0.36740 0.21770 0.16400
H 	H 	0.06480 0.36510 0.27750 0.16500
C 	C 	0.99730 0.37670 0.24040 0.55000
O 	O 	0.97690 0.33270 0.23560 -0.38300
O 	O 	0.96990 0.41620 0.24110 -0.36200
C 	C 	0.55360 0.88250 0.24670 -0.27000
H 	H 	0.57120 0.86740 0.21770 0.12200
H 	H 	0.56480 0.86510 0.27750 0.12700
C 	C 	0.49730 0.87670 0.24040 0.39900
O 	O 	0.47690 0.83270 0.23560 -0.39100
O 	O 	0.46990 0.91620 0.24110 -0.33600
C 	C 	0.55360 0.38250 0.74670 -0.29100
H 	H 	0.57120 0.36740 0.71770 0.12800
H 	H 	0.56480 0.36510 0.77750 0.13200
C 	C 	0.49730 0.37670 0.74040 0.41200
O 	O 	0.47690 0.33270 0.73560 -0.39700
O 	O 	0.46990 0.41620 0.74110 -0.37700
C 	C 	0.55360 0.86750 0.50330 -0.28800
H 	H 	0.57120 0.88260 0.53230 0.13100
H 	H 	0.56480 0.88490 0.47250 0.13500
C 	C 	0.49730 0.87330 0.50960 0.40700
O 	O 	0.47690 0.91730 0.51440 -0.36500
O 	O 	0.46990 0.83380 0.50890 -0.37200
C 	C 	0.55360 0.36750 0.00330 -0.47300
H 	H 	0.57120 0.38260 0.03230 0.17000
H 	H 	0.56480 0.38490 0.97250 0.25700
C 	C 	0.49730 0.37330 0.00960 0.45900
O 	O 	0.47690 0.41730 0.01440 -0.44800
O 	O 	0.46990 0.33380 0.00890 -0.41900
C 	C 	0.05360 0.86750 0.00330 -0.62700
H 	H 	0.07120 0.88260 0.03230 0.20900
H 	H 	0.06480 0.88490 0.97250 0.29400
C 	C 	0.99730 0.87330 0.00960 0.58900
O 	O 	0.97690 0.91730 0.01440 -0.40100
O 	O 	0.96990 0.83380 0.00890 -0.39700
C 	C 	0.05360 0.36750 0.50330 -0.45200
H 	H 	0.07120 0.38260 0.53230 0.16500
H 	H 	0.06480 0.38490 0.47250 0.16500
C 	C 	0.99730 0.37330 0.50960 0.54900
O 	O 	0.97690 0.41730 0.51440 -0.38400
O 	O 	0.96990 0.33380 0.50890 -0.36200
Tm	Tm	0.00000 0.25000 -0.00000 1.46500
Tm	Tm	0.25000 0.50000 0.50000 1.59500
Tm	Tm	0.75000 0.75000 0.25000 1.59500
Tm	Tm	0.50000 -0.00000 0.75000 1.53100
Tm	Tm	0.00000 0.00000 0.25000 1.46500
Tm	Tm	0.00000 0.50000 0.75000 1.53200
Tm	Tm	0.50000 0.25000 0.50000 1.59500
Tm	Tm	0.50000 0.75000 -0.00000 1.53200
Tm	Tm	0.25000 0.75000 0.75000 1.59500
Tm	Tm	0.25000 0.25000 0.25000 1.59500
Tm	Tm	0.75000 0.50000 -0.00000 1.53100
Tm	Tm	0.75000 0.00000 0.50000 1.53200
Tm	Tm	0.25000 0.00000 -0.00000 1.46500
Tm	Tm	0.50000 0.50000 0.25000 1.59500
Tm	Tm	0.75000 0.25000 0.75000 1.59500
Tm	Tm	0.00000 0.75000 0.50000 1.53100
Tm	Tm	0.00000 0.75000 -0.00000 1.46700
Tm	Tm	0.75000 0.50000 0.50000 1.59500
Tm	Tm	0.25000 0.25000 0.75000 1.59500
Tm	Tm	0.50000 0.00000 0.25000 1.53000
Tm	Tm	0.00000 -0.00000 0.75000 1.46700
Tm	Tm	0.00000 0.50000 0.25000 1.53000
Tm	Tm	0.50000 0.75000 0.50000 1.59500
Tm	Tm	0.50000 0.25000 -0.00000 1.53000
Tm	Tm	0.75000 0.25000 0.25000 1.59500
Tm	Tm	0.75000 0.75000 0.75000 1.59500
Tm	Tm	0.25000 0.50000 -0.00000 1.53000
Tm	Tm	0.25000 0.00000 0.50000 1.53000
Tm	Tm	0.75000 0.00000 -0.00000 1.46700
Tm	Tm	0.50000 0.50000 0.75000 1.59500
Tm	Tm	0.25000 0.75000 0.25000 1.59500
Tm	Tm	0.00000 0.25000 0.50000 1.53000
Cd	Cd	0.00000 0.50000 -0.00000 1.18800
Cd	Cd	0.25000 0.25000 0.50000 1.25700
Cd	Cd	0.75000 0.00000 0.25000 1.22300
Cd	Cd	0.50000 0.75000 0.75000 1.25700
Cd	Cd	0.00000 0.00000 0.50000 1.18800
Cd	Cd	0.50000 0.25000 0.25000 1.25700
Cd	Cd	0.25000 0.75000 -0.00000 1.22300
Cd	Cd	0.75000 0.50000 0.75000 1.25700
Cd	Cd	0.50000 0.00000 -0.00000 1.18800
Cd	Cd	0.50000 0.50000 0.50000 1.25700
Cd	Cd	0.25000 0.50000 0.25000 1.25700
Cd	Cd	0.00000 0.25000 0.75000 1.22300
Cd	Cd	0.75000 0.75000 0.50000 1.25700
Cd	Cd	0.25000 0.25000 -0.00000 1.22200
Cd	Cd	0.00000 0.50000 0.50000 1.22300
Cd	Cd	-0.00000 0.00000 -0.00000 1.15300
Cd	Cd	0.75000 -0.00000 0.75000 1.22300
Cd	Cd	0.50000 0.75000 0.25000 1.25700
Cd	Cd	0.75000 0.25000 0.50000 1.25700
Cd	Cd	0.00000 0.75000 0.75000 1.22300
Cd	Cd	0.50000 0.50000 -0.00000 1.22300
Cd	Cd	0.25000 0.00000 0.25000 1.22200
Cd	Cd	0.75000 0.75000 -0.00000 1.22300
Cd	Cd	0.25000 0.50000 0.75000 1.25700
Cd	Cd	0.00000 0.25000 0.25000 1.22200
Cd	Cd	0.50000 0.00000 0.50000 1.22300
Cd	Cd	0.25000 -0.00000 0.75000 1.22300
Cd	Cd	0.75000 0.25000 -0.00000 1.22300
Cd	Cd	0.00000 0.75000 0.25000 1.22300
Cd	Cd	0.50000 0.25000 0.75000 1.25700
Cd	Cd	0.25000 0.75000 0.50000 1.25700
Cd	Cd	0.75000 0.50000 0.25000 1.25700
O 	O 	0.00000 0.31540 0.06540 -0.25400
O 	O 	0.50000 0.31540 0.56540 -0.16000
O 	O 	0.25000 0.43460 0.56540 -0.16100
O 	O 	0.75000 0.43460 0.06540 -0.14000
O 	O 	0.75000 0.81540 0.18460 -0.15900
O 	O 	0.75000 0.31540 0.68460 -0.15900
O 	O 	0.25000 0.81540 0.68460 -0.16000
O 	O 	0.50000 0.93460 0.68460 -0.16600
O 	O 	-0.00000 0.93460 0.18460 -0.27400
O 	O 	0.06540 0.00000 0.31540 -0.25400
O 	O 	0.06540 0.50000 0.81540 -0.14000
O 	O 	0.56540 0.25000 0.43460 -0.16100
O 	O 	0.56540 0.75000 0.93460 -0.16500
O 	O 	0.18460 0.75000 0.81540 -0.15900
O 	O 	0.18460 0.25000 0.31540 -0.16100
O 	O 	0.68460 0.75000 0.31540 -0.15900
O 	O 	0.68460 0.50000 0.93460 -0.16600
O 	O 	0.68460 0.00000 0.43460 -0.27200
O 	O 	0.18460 0.00000 0.93460 -0.27400
O 	O 	0.31540 0.06540 -0.00000 -0.25400
O 	O 	0.31540 0.56540 0.50000 -0.16000
O 	O 	0.43460 0.56540 0.25000 -0.16100
O 	O 	0.43460 0.06540 0.75000 -0.14000
O 	O 	0.81540 0.18460 0.75000 -0.15900
O 	O 	0.81540 0.68460 0.25000 -0.16000
O 	O 	0.31540 0.68460 0.75000 -0.15900
O 	O 	0.93460 0.68460 0.50000 -0.16600
O 	O 	0.93460 0.18460 -0.00000 -0.27400
O 	O 	0.06540 0.25000 0.93460 -0.14700
O 	O 	0.06540 0.75000 0.43460 -0.14000
O 	O 	0.18460 0.50000 0.43460 -0.16100
O 	O 	0.56540 -0.00000 0.81540 -0.26900
O 	O 	0.56540 0.50000 0.31540 -0.16000
O 	O 	0.68460 0.25000 0.81540 -0.16000
O 	O 	0.25000 0.31540 0.18460 -0.16100
O 	O 	-0.00000 0.81540 0.56540 -0.26900
O 	O 	0.50000 0.81540 0.06540 -0.14000
O 	O 	0.50000 0.43460 0.18460 -0.16100
O 	O 	0.00000 0.43460 0.68460 -0.27200
O 	O 	0.25000 0.93460 0.06540 -0.14700
O 	O 	0.75000 0.93460 0.56540 -0.16500
O 	O 	0.81540 0.56540 -0.00000 -0.26900
O 	O 	0.81540 0.06540 0.50000 -0.14000
O 	O 	0.31540 0.18460 0.25000 -0.16100
O 	O 	0.93460 0.06540 0.25000 -0.14700
O 	O 	0.93460 0.56540 0.75000 -0.16500
O 	O 	0.43460 0.18460 0.50000 -0.16100
O 	O 	0.43460 0.68460 -0.00000 -0.27200
O 	O 	0.00000 0.68460 0.93460 -0.27200
O 	O 	0.50000 0.68460 0.43460 -0.16000
O 	O 	0.75000 0.56540 0.43460 -0.15900
O 	O 	0.75000 0.06540 0.93460 -0.14600
O 	O 	0.25000 0.56540 0.93460 -0.16600
O 	O 	0.25000 0.18460 0.81540 -0.16000
O 	O 	0.75000 0.18460 0.31540 -0.16000
O 	O 	0.50000 0.06540 0.31540 -0.14000
O 	O 	0.00000 0.06540 0.81540 -0.25100
O 	O 	0.00000 0.56540 0.31540 -0.27200
O 	O 	0.93460 0.00000 0.68460 -0.27200
O 	O 	0.93460 0.50000 0.18460 -0.16600
O 	O 	0.43460 0.75000 0.56540 -0.15900
O 	O 	0.43460 0.25000 0.06540 -0.14100
O 	O 	0.93460 0.75000 0.06540 -0.14600
O 	O 	0.81540 0.25000 0.18460 -0.16000
O 	O 	0.81540 0.75000 0.68460 -0.15800
O 	O 	0.31540 0.50000 0.06540 -0.14000
O 	O 	0.31540 0.00000 0.56540 -0.27200
O 	O 	0.68460 0.93460 -0.00000 -0.27200
O 	O 	0.68460 0.43460 0.50000 -0.16000
O 	O 	0.56540 0.43460 0.75000 -0.15900
O 	O 	0.56540 0.93460 0.25000 -0.16600
O 	O 	0.06540 0.93460 0.75000 -0.14600
O 	O 	0.18460 0.81540 0.25000 -0.16000
O 	O 	0.18460 0.31540 0.75000 -0.16000
O 	O 	0.06540 0.31540 0.50000 -0.14000
O 	O 	0.06540 0.81540 -0.00000 -0.25100
O 	O 	0.56540 0.31540 -0.00000 -0.27200
O 	O 	0.93460 0.25000 0.56540 -0.16600
O 	O 	0.81540 0.50000 0.56540 -0.15900
O 	O 	0.81540 0.00000 0.06540 -0.25100
O 	O 	0.43460 -0.00000 0.18460 -0.27400
O 	O 	0.43460 0.50000 0.68460 -0.16000
O 	O 	0.31540 0.25000 0.68460 -0.16100
O 	O 	0.31540 0.75000 0.18460 -0.16000
O 	O 	0.25000 0.68460 0.31540 -0.16100
O 	O 	0.75000 0.68460 0.81540 -0.15800
O 	O 	0.00000 0.18460 0.43460 -0.27400
O 	O 	0.50000 0.18460 0.93460 -0.16600
O 	O 	0.50000 0.56540 0.81540 -0.15900
O 	O 	0.25000 0.06540 0.43460 -0.14100
O 	O 	0.18460 0.43460 -0.00000 -0.27400
O 	O 	0.18460 0.93460 0.50000 -0.16600
O 	O 	0.68460 0.31540 0.25000 -0.16100
O 	O 	0.68460 0.81540 0.75000 -0.15800
O 	O 	0.06540 0.43460 0.25000 -0.14100
O 	O 	0.56540 0.81540 0.50000 -0.15900
