data_crystal

_cell_length_a 14.32900
_cell_length_b 14.32900
_cell_length_c 44.55400
_cell_angle_alpha 90.00000
_cell_angle_beta  90.00000
_cell_angle_gamma 90.00000

_symmetry_space_group_name_	'P 1'
_symmetry_space_group_name_H-M	'P 1'

loop_
_symmetry_equiv_pos_as_xyz
  x,y,z

loop_
_atom_site_label
_atom_site_type_symbol
_atom_site_fract_x
_atom_site_fract_y
_atom_site_fract_z
_atom_site_charge
N 	N 	0.43093 0.32087 0.55079 -0.24100
N 	N 	0.38603 0.44426 0.52370 -0.09500
N 	N 	0.35463 0.36349 0.51098 -0.10200
N 	N 	0.14068 0.37139 0.40482 -0.10600
N 	N 	0.11380 0.45179 0.39113 -0.09800
N 	N 	0.06473 0.32718 0.36528 -0.24700
C 	C 	0.43070 0.41489 0.54756 0.08700
H 	H 	0.46030 0.45590 0.56140 -0.00800
C 	C 	0.38188 0.29107 0.52731 0.09000
H 	H 	0.36840 0.22760 0.52290 -0.00700
C 	C 	0.29987 0.36550 0.48377 0.02400
C 	C 	0.34715 0.36739 0.45646 0.01000
C 	C 	0.44595 0.36514 0.45384 -0.05900
H 	H 	0.48320 0.36100 0.47140 0.06300
C 	C 	0.48805 0.36886 0.42635 -0.02800
H 	H 	0.55410 0.36560 0.42490 0.04100
C 	C 	0.43370 0.37753 0.40009 -0.04600
H 	H 	0.46390 0.38300 0.38120 0.04300
C 	C 	0.33947 0.37815 0.40127 -0.04600
H 	H 	0.30450 0.38270 0.38320 0.05100
C 	C 	0.29165 0.37209 0.42949 -0.01200
C 	C 	0.19494 0.37160 0.43212 0.04800
C 	C 	0.14802 0.37083 0.45951 -0.03400
C 	C 	0.04860 0.37500 0.46197 0.01100
H 	H 	0.01130 0.37590 0.44430 0.02500
C 	C 	0.00740 0.37740 0.48925 -0.14400
H 	H 	0.94130 0.38000 0.49060 0.10200
C 	C 	0.06160 0.37630 0.51590 0.03000
H 	H 	0.03120 0.37900 0.53480 0.01100
C 	C 	0.15590 0.37140 0.51485 -0.09600
H 	H 	0.19090 0.36990 0.53290 0.06900
C 	C 	0.20302 0.36856 0.48647 0.02800
C 	C 	0.11075 0.29821 0.38925 0.08900
H 	H 	0.12090 0.23480 0.39450 -0.01600
C 	C 	0.06890 0.42144 0.36740 0.08600
H 	H 	0.04160 0.46200 0.35300 -0.01400
N 	N 	0.93093 0.82087 0.05079 -0.23200
N 	N 	0.88603 0.94426 0.02370 -0.08900
N 	N 	0.85463 0.86349 0.01098 -0.10000
N 	N 	0.64068 0.87139 0.90482 -0.10500
N 	N 	0.61380 0.95179 0.89113 -0.09500
N 	N 	0.56473 0.82718 0.86528 -0.24200
C 	C 	0.93070 0.91489 0.04756 0.09000
H 	H 	0.96030 0.95590 0.06140 0.00100
C 	C 	0.88188 0.79107 0.02731 0.09400
H 	H 	0.86840 0.72760 0.02290 -0.00200
C 	C 	0.79987 0.86550 0.98377 0.02400
C 	C 	0.84715 0.86739 0.95646 0.03700
C 	C 	0.94595 0.86514 0.95384 -0.11500
H 	H 	0.98320 0.86100 0.97140 0.09300
C 	C 	0.98805 0.86886 0.92635 0.08400
H 	H 	0.05410 0.86560 0.92490 -0.01600
C 	C 	0.93370 0.87753 0.90009 -0.10800
H 	H 	0.96390 0.88300 0.88120 0.07500
C 	C 	0.83947 0.87815 0.90127 -0.00500
H 	H 	0.80450 0.88270 0.88320 0.03900
C 	C 	0.79165 0.87209 0.92949 -0.03000
C 	C 	0.69494 0.87160 0.93212 0.04900
C 	C 	0.64802 0.87083 0.95951 -0.00900
C 	C 	0.54860 0.87500 0.96197 -0.04200
H 	H 	0.51130 0.87590 0.94430 0.05300
C 	C 	0.50740 0.87740 0.98925 -0.03800
H 	H 	0.44130 0.88000 0.99060 0.04700
C 	C 	0.56160 0.87630 0.01590 -0.02700
H 	H 	0.53120 0.87900 0.03480 0.04100
C 	C 	0.65590 0.87140 0.01485 -0.05700
H 	H 	0.69090 0.86990 0.03290 0.05800
C 	C 	0.70302 0.86856 0.98647 0.01100
C 	C 	0.61075 0.79821 0.88925 0.09200
H 	H 	0.62090 0.73480 0.89450 -0.01100
C 	C 	0.56890 0.92144 0.86740 0.08900
H 	H 	0.54160 0.96200 0.85300 -0.00900
N 	N 	0.06907 0.67913 0.05079 -0.24500
N 	N 	0.11397 0.55574 0.02370 -0.09700
N 	N 	0.14537 0.63651 0.01098 -0.10600
N 	N 	0.35932 0.62861 0.90482 -0.10100
N 	N 	0.38620 0.54821 0.89113 -0.09600
N 	N 	0.43527 0.67282 0.86528 -0.24200
C 	C 	0.06930 0.58511 0.04756 0.08500
H 	H 	0.03970 0.54410 0.06140 -0.01700
C 	C 	0.11812 0.70893 0.02731 0.08900
H 	H 	0.13160 0.77240 0.02290 -0.01200
C 	C 	0.20013 0.63450 0.98377 0.04900
C 	C 	0.15285 0.63261 0.95646 -0.03300
C 	C 	0.05405 0.63486 0.95384 0.00800
H 	H 	0.01680 0.63900 0.97140 0.02800
C 	C 	0.01195 0.63114 0.92635 -0.14900
H 	H 	0.94590 0.63440 0.92490 0.10000
C 	C 	0.06630 0.62247 0.90009 0.02600
H 	H 	0.03610 0.61700 0.88120 0.00800
C 	C 	0.16053 0.62185 0.90127 -0.09900
H 	H 	0.19550 0.61730 0.88320 0.06800
C 	C 	0.20835 0.62791 0.92949 0.02500
C 	C 	0.30506 0.62840 0.93212 0.02400
C 	C 	0.35198 0.62917 0.95951 0.00800
C 	C 	0.45140 0.62500 0.96197 -0.05500
H 	H 	0.48870 0.62410 0.94430 0.05800
C 	C 	0.49260 0.62260 0.98925 -0.02700
H 	H 	0.55870 0.62000 0.99060 0.04400
C 	C 	0.43840 0.62370 0.01590 -0.03800
H 	H 	0.46880 0.62100 0.03480 0.04500
C 	C 	0.34410 0.62860 0.01485 -0.04500
H 	H 	0.30910 0.63010 0.03290 0.05400
C 	C 	0.29698 0.63144 0.98647 -0.00800
C 	C 	0.38925 0.70179 0.88925 0.09000
H 	H 	0.37910 0.76520 0.89450 -0.01000
C 	C 	0.43110 0.57856 0.86740 0.08800
H 	H 	0.45840 0.53800 0.85300 -0.00900
N 	N 	0.56907 0.17913 0.55079 -0.24100
N 	N 	0.61397 0.05574 0.52370 -0.09300
N 	N 	0.64537 0.13651 0.51098 -0.10400
N 	N 	0.85932 0.12861 0.40482 -0.10000
N 	N 	0.88620 0.04821 0.39113 -0.09200
N 	N 	0.93527 0.17282 0.36528 -0.23400
C 	C 	0.56930 0.08511 0.54756 0.08800
H 	H 	0.53970 0.04410 0.56140 -0.00900
C 	C 	0.61812 0.20893 0.52731 0.09300
H 	H 	0.63160 0.27240 0.52290 -0.00700
C 	C 	0.70013 0.13450 0.48377 0.04800
C 	C 	0.65285 0.13261 0.45646 -0.00700
C 	C 	0.55405 0.13486 0.45384 -0.04700
H 	H 	0.51680 0.13900 0.47140 0.05800
C 	C 	0.51195 0.13114 0.42635 -0.03700
H 	H 	0.44590 0.13440 0.42490 0.04300
C 	C 	0.56630 0.12247 0.40009 -0.03600
H 	H 	0.53610 0.11700 0.38120 0.04000
C 	C 	0.66053 0.12185 0.40127 -0.05800
H 	H 	0.69550 0.11730 0.38320 0.05600
C 	C 	0.70835 0.12791 0.42949 0.00700
C 	C 	0.80506 0.12840 0.43212 0.02500
C 	C 	0.85198 0.12917 0.45951 0.03400
C 	C 	0.95140 0.12500 0.46197 -0.10900
H 	H 	0.98870 0.12410 0.44430 0.08700
C 	C 	0.99260 0.12260 0.48925 0.07900
H 	H 	0.05870 0.12000 0.49060 -0.01100
C 	C 	0.93840 0.12370 0.51590 -0.09500
H 	H 	0.96880 0.12100 0.53480 0.07600
C 	C 	0.84410 0.12860 0.51485 -0.00600
H 	H 	0.80910 0.13010 0.53290 0.04300
C 	C 	0.79698 0.13144 0.48647 -0.02500
C 	C 	0.88925 0.20179 0.38925 0.09300
H 	H 	0.87910 0.26520 0.39450 -0.00400
C 	C 	0.93110 0.07856 0.36740 0.09100
H 	H 	0.95840 0.03800 0.35300 -0.00200
N 	N 	0.42913 0.68093 0.80079 -0.24000
N 	N 	0.30574 0.63603 0.77370 -0.09400
N 	N 	0.38651 0.60463 0.76098 -0.10300
N 	N 	0.37861 0.39068 0.65482 -0.10300
N 	N 	0.29821 0.36380 0.64113 -0.09800
N 	N 	0.42282 0.31473 0.61528 -0.24200
C 	C 	0.33511 0.68070 0.79756 0.08700
H 	H 	0.29410 0.71030 0.81140 -0.00900
C 	C 	0.45893 0.63188 0.77731 0.09100
H 	H 	0.52240 0.61840 0.77290 -0.00700
C 	C 	0.38450 0.54987 0.73377 0.03600
C 	C 	0.38261 0.59715 0.70646 0.00100
C 	C 	0.38486 0.69595 0.70384 -0.05400
H 	H 	0.38900 0.73320 0.72140 0.06100
C 	C 	0.38114 0.73805 0.67635 -0.03300
H 	H 	0.38440 0.80410 0.67490 0.04200
C 	C 	0.37247 0.68370 0.65009 -0.04100
H 	H 	0.36700 0.71390 0.63120 0.04100
C 	C 	0.37185 0.58947 0.65127 -0.05200
H 	H 	0.36730 0.55450 0.63320 0.05300
C 	C 	0.37791 0.54165 0.67949 -0.00300
C 	C 	0.37840 0.44494 0.68212 0.03600
C 	C 	0.37917 0.39802 0.70951 -0.00100
C 	C 	0.37500 0.29860 0.71197 -0.04900
H 	H 	0.37410 0.26130 0.69430 0.05500
C 	C 	0.37260 0.25740 0.73925 -0.03300
H 	H 	0.37000 0.19130 0.74060 0.04600
C 	C 	0.37370 0.31160 0.76590 -0.03200
H 	H 	0.37100 0.28120 0.78480 0.04300
C 	C 	0.37860 0.40590 0.76485 -0.05200
H 	H 	0.38010 0.44090 0.78290 0.05500
C 	C 	0.38144 0.45302 0.73647 0.00100
C 	C 	0.45179 0.36075 0.63925 0.09100
H 	H 	0.51520 0.37090 0.64450 -0.01000
C 	C 	0.32856 0.31890 0.61740 0.08800
H 	H 	0.28800 0.29160 0.60300 -0.01100
N 	N 	0.92913 0.18093 0.30079 -0.24100
N 	N 	0.80574 0.13603 0.27370 -0.09300
N 	N 	0.88651 0.10463 0.26098 -0.11200
N 	N 	0.87861 0.89068 0.15482 -0.11200
N 	N 	0.79821 0.86380 0.14113 -0.09500
N 	N 	0.92282 0.81473 0.11528 -0.24300
C 	C 	0.83511 0.18070 0.29756 0.08800
H 	H 	0.79410 0.21030 0.31140 -0.00600
C 	C 	0.95893 0.13188 0.27731 0.14900
H 	H 	0.02240 0.11840 0.27290 -0.04700
C 	C 	0.88450 0.04987 0.23377 0.04400
C 	C 	0.88261 0.09715 0.20646 0.00300
C 	C 	0.88486 0.19595 0.20384 -0.04800
H 	H 	0.88900 0.23320 0.22140 0.06400
C 	C 	0.88114 0.23805 0.17635 -0.03000
H 	H 	0.88440 0.30410 0.17490 0.04700
C 	C 	0.87247 0.18370 0.15009 -0.03600
H 	H 	0.86700 0.21390 0.13120 0.04300
C 	C 	0.87185 0.08947 0.15127 -0.04800
H 	H 	0.86730 0.05450 0.13320 0.05500
C 	C 	0.87791 0.04165 0.17949 -0.00000
C 	C 	0.87840 0.94494 0.18212 0.04300
C 	C 	0.87917 0.89802 0.20951 0.00200
C 	C 	0.87500 0.79860 0.21197 -0.04500
H 	H 	0.87410 0.76130 0.19430 0.05800
C 	C 	0.87260 0.75740 0.23925 -0.02900
H 	H 	0.87000 0.69130 0.24060 0.05000
C 	C 	0.87370 0.81160 0.26590 -0.03000
H 	H 	0.87100 0.78120 0.28480 0.04800
C 	C 	0.87860 0.90590 0.26485 -0.04700
H 	H 	0.88010 0.94090 0.28290 0.05700
C 	C 	0.88144 0.95302 0.23647 0.00200
C 	C 	0.95179 0.86075 0.13925 0.14900
H 	H 	0.01520 0.87090 0.14450 -0.05100
C 	C 	0.82856 0.81890 0.11740 0.08800
H 	H 	0.78800 0.79160 0.10300 -0.00700
N 	N 	0.07087 0.31907 0.30079 -0.23500
N 	N 	0.19426 0.36397 0.27370 -0.09400
N 	N 	0.11349 0.39537 0.26098 -0.09300
N 	N 	0.12139 0.60932 0.15482 -0.09400
N 	N 	0.20179 0.63620 0.14113 -0.09500
N 	N 	0.07718 0.68527 0.11528 -0.23700
C 	C 	0.16489 0.31930 0.29756 0.08800
H 	H 	0.20590 0.28970 0.31140 -0.01000
C 	C 	0.04107 0.36812 0.27731 0.03400
H 	H 	0.97760 0.38160 0.27290 0.03400
C 	C 	0.11550 0.45013 0.23377 0.03000
C 	C 	0.11739 0.40285 0.20646 0.00000
C 	C 	0.11514 0.30405 0.20384 -0.05800
H 	H 	0.11100 0.26680 0.22140 0.05800
C 	C 	0.11886 0.26195 0.17635 -0.03500
H 	H 	0.11560 0.19590 0.17490 0.03700
C 	C 	0.12753 0.31630 0.15009 -0.04500
H 	H 	0.13300 0.28610 0.13120 0.03900
C 	C 	0.12815 0.41053 0.15127 -0.05600
H 	H 	0.13270 0.44550 0.13320 0.05200
C 	C 	0.12209 0.45835 0.17949 -0.00400
C 	C 	0.12160 0.55506 0.18212 0.03000
C 	C 	0.12083 0.60198 0.20951 -0.00200
C 	C 	0.12500 0.70140 0.21197 -0.05300
H 	H 	0.12590 0.73870 0.19430 0.05300
C 	C 	0.12740 0.74260 0.23925 -0.03600
H 	H 	0.13000 0.80870 0.24060 0.04100
C 	C 	0.12630 0.68840 0.26590 -0.03500
H 	H 	0.12900 0.71880 0.28480 0.03900
C 	C 	0.12140 0.59410 0.26485 -0.05500
H 	H 	0.11990 0.55910 0.28290 0.05400
C 	C 	0.11856 0.54698 0.23647 0.00000
C 	C 	0.04821 0.63925 0.13925 0.03200
H 	H 	0.98480 0.62910 0.14450 0.03100
C 	C 	0.17144 0.68110 0.11740 0.08900
H 	H 	0.21200 0.70840 0.10300 -0.01000
N 	N 	0.57087 0.81907 0.80079 -0.24000
N 	N 	0.69426 0.86397 0.77370 -0.09200
N 	N 	0.61349 0.89537 0.76098 -0.10300
N 	N 	0.62139 0.10932 0.65482 -0.10300
N 	N 	0.70179 0.13620 0.64113 -0.09300
N 	N 	0.57718 0.18527 0.61528 -0.24200
C 	C 	0.66489 0.81930 0.79756 0.08800
H 	H 	0.70590 0.78970 0.81140 -0.00800
C 	C 	0.54107 0.86812 0.77731 0.09100
H 	H 	0.47760 0.88160 0.77290 -0.00700
C 	C 	0.61550 0.95013 0.73377 0.03700
C 	C 	0.61739 0.90285 0.70646 0.00200
C 	C 	0.61514 0.80405 0.70384 -0.05300
H 	H 	0.61100 0.76680 0.72140 0.06000
C 	C 	0.61886 0.76195 0.67635 -0.03200
H 	H 	0.61560 0.69590 0.67490 0.04200
C 	C 	0.62753 0.81630 0.65009 -0.04000
H 	H 	0.63300 0.78610 0.63120 0.04200
C 	C 	0.62815 0.91053 0.65127 -0.05100
H 	H 	0.63270 0.94550 0.63320 0.05400
C 	C 	0.62209 0.95835 0.67949 -0.00100
C 	C 	0.62160 0.05506 0.68212 0.03700
C 	C 	0.62083 0.10198 0.70951 0.00100
C 	C 	0.62500 0.20140 0.71197 -0.04900
H 	H 	0.62590 0.23870 0.69430 0.05600
C 	C 	0.62740 0.24260 0.73925 -0.03200
H 	H 	0.63000 0.30870 0.74060 0.04500
C 	C 	0.62630 0.18840 0.76590 -0.03200
H 	H 	0.62900 0.21880 0.78480 0.04300
C 	C 	0.62140 0.09410 0.76485 -0.05000
H 	H 	0.61990 0.05910 0.78290 0.05600
C 	C 	0.61856 0.04698 0.73647 0.00100
C 	C 	0.54821 0.13925 0.63925 0.09100
H 	H 	0.48480 0.12910 0.64450 -0.01100
C 	C 	0.67144 0.18110 0.61740 0.08900
H 	H 	0.71200 0.20840 0.60300 -0.00600
Cu	Cu	0.50000 0.25000 0.58329 0.85100
Cu	Cu	0.00000 0.75000 0.08329 0.83800
Cu	Cu	0.50000 0.75000 0.83329 0.85100
Cu	Cu	0.00000 0.25000 0.33329 0.83800
N 	N 	0.56907 0.67913 0.44921 -0.24100
N 	N 	0.61397 0.55574 0.47630 -0.09300
N 	N 	0.64537 0.63651 0.48902 -0.10400
N 	N 	0.85932 0.62861 0.59518 -0.10000
N 	N 	0.88620 0.54821 0.60887 -0.09200
N 	N 	0.93527 0.67282 0.63472 -0.23400
C 	C 	0.56930 0.58511 0.45244 0.08800
H 	H 	0.53970 0.54410 0.43860 -0.00800
C 	C 	0.61812 0.70893 0.47269 0.09300
H 	H 	0.63160 0.77240 0.47710 -0.00700
C 	C 	0.70013 0.63450 0.51623 0.04900
C 	C 	0.65285 0.63261 0.54354 -0.00700
C 	C 	0.55405 0.63486 0.54616 -0.04700
H 	H 	0.51680 0.63900 0.52860 0.05800
C 	C 	0.51195 0.63114 0.57365 -0.03700
H 	H 	0.44590 0.63440 0.57510 0.04300
C 	C 	0.56630 0.62247 0.59991 -0.03600
H 	H 	0.53610 0.61700 0.61880 0.04000
C 	C 	0.66053 0.62185 0.59873 -0.05800
H 	H 	0.69550 0.61730 0.61680 0.05600
C 	C 	0.70835 0.62791 0.57051 0.00700
C 	C 	0.80506 0.62840 0.56788 0.02500
C 	C 	0.85198 0.62917 0.54049 0.03400
C 	C 	0.95140 0.62500 0.53803 -0.10900
H 	H 	0.98870 0.62410 0.55570 0.08700
C 	C 	0.99260 0.62260 0.51075 0.08000
H 	H 	0.05870 0.62000 0.50940 -0.01100
C 	C 	0.93840 0.62370 0.48410 -0.09500
H 	H 	0.96880 0.62100 0.46520 0.07600
C 	C 	0.84410 0.62860 0.48515 -0.00600
H 	H 	0.80910 0.63010 0.46710 0.04300
C 	C 	0.79698 0.63144 0.51353 -0.02500
C 	C 	0.88925 0.70179 0.61075 0.09300
H 	H 	0.87910 0.76520 0.60550 -0.00400
C 	C 	0.93110 0.57856 0.63260 0.09100
H 	H 	0.95840 0.53800 0.64700 -0.00200
N 	N 	0.06907 0.17913 0.94921 -0.24500
N 	N 	0.11397 0.05574 0.97630 -0.09700
N 	N 	0.14537 0.13651 0.98902 -0.10500
N 	N 	0.35932 0.12861 0.09518 -0.10100
N 	N 	0.38620 0.04821 0.10887 -0.09600
N 	N 	0.43527 0.17282 0.13472 -0.24200
C 	C 	0.06930 0.08511 0.95244 0.08500
H 	H 	0.03970 0.04410 0.93860 -0.01700
C 	C 	0.11812 0.20893 0.97269 0.08900
H 	H 	0.13160 0.27240 0.97710 -0.01200
C 	C 	0.20013 0.13450 0.01623 0.04900
C 	C 	0.15285 0.13261 0.04354 -0.03300
C 	C 	0.05405 0.13486 0.04616 0.00800
H 	H 	0.01680 0.13900 0.02860 0.02800
C 	C 	0.01195 0.13114 0.07365 -0.14800
H 	H 	0.94590 0.13440 0.07510 0.09900
C 	C 	0.06630 0.12247 0.09991 0.02500
H 	H 	0.03610 0.11700 0.11880 0.00800
C 	C 	0.16053 0.12185 0.09873 -0.09800
H 	H 	0.19550 0.11730 0.11680 0.06800
C 	C 	0.20835 0.12791 0.07051 0.02500
C 	C 	0.30506 0.12840 0.06788 0.02400
C 	C 	0.35198 0.12917 0.04049 0.00800
C 	C 	0.45140 0.12500 0.03803 -0.05500
H 	H 	0.48870 0.12410 0.05570 0.05800
C 	C 	0.49260 0.12260 0.01075 -0.02700
H 	H 	0.55870 0.12000 0.00940 0.04400
C 	C 	0.43840 0.12370 0.98410 -0.03800
H 	H 	0.46880 0.12100 0.96520 0.04500
C 	C 	0.34410 0.12860 0.98515 -0.04500
H 	H 	0.30910 0.13010 0.96710 0.05400
C 	C 	0.29698 0.13144 0.01353 -0.00800
C 	C 	0.38925 0.20179 0.11075 0.09000
H 	H 	0.37910 0.26520 0.10550 -0.01000
C 	C 	0.43110 0.07856 0.13260 0.08800
H 	H 	0.45840 0.03800 0.14700 -0.00900
N 	N 	0.93093 0.32087 0.94921 -0.23200
N 	N 	0.88603 0.44426 0.97630 -0.08900
N 	N 	0.85463 0.36349 0.98902 -0.10000
N 	N 	0.64068 0.37139 0.09518 -0.10500
N 	N 	0.61380 0.45179 0.10887 -0.09500
N 	N 	0.56473 0.32718 0.13472 -0.24200
C 	C 	0.93070 0.41489 0.95244 0.09000
H 	H 	0.96030 0.45590 0.93860 0.00200
C 	C 	0.88188 0.29107 0.97269 0.09400
H 	H 	0.86840 0.22760 0.97710 -0.00200
C 	C 	0.79987 0.36550 0.01623 0.02400
C 	C 	0.84715 0.36739 0.04354 0.03700
C 	C 	0.94595 0.36514 0.04616 -0.11600
H 	H 	0.98320 0.36100 0.02860 0.09400
C 	C 	0.98805 0.36886 0.07365 0.08500
H 	H 	0.05410 0.36560 0.07510 -0.01600
C 	C 	0.93370 0.37753 0.09991 -0.10800
H 	H 	0.96390 0.38300 0.11880 0.07600
C 	C 	0.83947 0.37815 0.09873 -0.00500
H 	H 	0.80450 0.38270 0.11680 0.03900
C 	C 	0.79165 0.37209 0.07051 -0.03000
C 	C 	0.69494 0.37160 0.06788 0.04900
C 	C 	0.64802 0.37083 0.04049 -0.00900
C 	C 	0.54860 0.37500 0.03803 -0.04200
H 	H 	0.51130 0.37590 0.05570 0.05300
C 	C 	0.50740 0.37740 0.01075 -0.03800
H 	H 	0.44130 0.38000 0.00940 0.04700
C 	C 	0.56160 0.37630 0.98410 -0.02700
H 	H 	0.53120 0.37900 0.96520 0.04100
C 	C 	0.65590 0.37140 0.98515 -0.05700
H 	H 	0.69090 0.36990 0.96710 0.05900
C 	C 	0.70302 0.36856 0.01353 0.01100
C 	C 	0.61075 0.29821 0.11075 0.09200
H 	H 	0.62090 0.23480 0.10550 -0.01100
C 	C 	0.56890 0.42144 0.13260 0.08900
H 	H 	0.54160 0.46200 0.14700 -0.00800
N 	N 	0.43093 0.82087 0.44921 -0.24000
N 	N 	0.38603 0.94426 0.47630 -0.09400
N 	N 	0.35463 0.86349 0.48902 -0.10100
N 	N 	0.14068 0.87139 0.59518 -0.10600
N 	N 	0.11380 0.95179 0.60887 -0.09800
N 	N 	0.06473 0.82718 0.63472 -0.24700
C 	C 	0.43070 0.91489 0.45244 0.08700
H 	H 	0.46030 0.95590 0.43860 -0.00800
C 	C 	0.38188 0.79107 0.47269 0.09000
H 	H 	0.36840 0.72760 0.47710 -0.00700
C 	C 	0.29987 0.86550 0.51623 0.02400
C 	C 	0.34715 0.86739 0.54354 0.01000
C 	C 	0.44595 0.86514 0.54616 -0.05900
H 	H 	0.48320 0.86100 0.52860 0.06300
C 	C 	0.48805 0.86886 0.57365 -0.02800
H 	H 	0.55410 0.86560 0.57510 0.04100
C 	C 	0.43370 0.87753 0.59991 -0.04600
H 	H 	0.46390 0.88300 0.61880 0.04300
C 	C 	0.33947 0.87815 0.59873 -0.04600
H 	H 	0.30450 0.88270 0.61680 0.05100
C 	C 	0.29165 0.87209 0.57051 -0.01200
C 	C 	0.19494 0.87160 0.56788 0.04800
C 	C 	0.14802 0.87083 0.54049 -0.03400
C 	C 	0.04860 0.87500 0.53803 0.01100
H 	H 	0.01130 0.87590 0.55570 0.02500
C 	C 	0.00740 0.87740 0.51075 -0.14300
H 	H 	0.94130 0.88000 0.50940 0.10200
C 	C 	0.06160 0.87630 0.48410 0.02900
H 	H 	0.03120 0.87900 0.46520 0.01100
C 	C 	0.15590 0.87140 0.48515 -0.09500
H 	H 	0.19090 0.86990 0.46710 0.06800
C 	C 	0.20302 0.86856 0.51353 0.02700
C 	C 	0.11075 0.79821 0.61075 0.08900
H 	H 	0.12090 0.73480 0.60550 -0.01600
C 	C 	0.06890 0.92144 0.63260 0.08600
H 	H 	0.04160 0.96200 0.64700 -0.01400
N 	N 	0.57087 0.31907 0.19921 -0.24000
N 	N 	0.69426 0.36397 0.22630 -0.09200
N 	N 	0.61349 0.39537 0.23902 -0.10300
N 	N 	0.62139 0.60932 0.34518 -0.10300
N 	N 	0.70179 0.63620 0.35887 -0.09300
N 	N 	0.57718 0.68527 0.38472 -0.24200
C 	C 	0.66489 0.31930 0.20244 0.08800
H 	H 	0.70590 0.28970 0.18860 -0.00800
C 	C 	0.54107 0.36812 0.22269 0.09100
H 	H 	0.47760 0.38160 0.22710 -0.00700
C 	C 	0.61550 0.45013 0.26623 0.03700
C 	C 	0.61739 0.40285 0.29354 0.00200
C 	C 	0.61514 0.30405 0.29616 -0.05300
H 	H 	0.61100 0.26680 0.27860 0.06100
C 	C 	0.61886 0.26195 0.32365 -0.03200
H 	H 	0.61560 0.19590 0.32510 0.04200
C 	C 	0.62753 0.31630 0.34991 -0.04000
H 	H 	0.63300 0.28610 0.36880 0.04200
C 	C 	0.62815 0.41053 0.34873 -0.05100
H 	H 	0.63270 0.44550 0.36680 0.05400
C 	C 	0.62209 0.45835 0.32051 -0.00200
C 	C 	0.62160 0.55506 0.31788 0.03800
C 	C 	0.62083 0.60198 0.29049 0.00000
C 	C 	0.62500 0.70140 0.28803 -0.04800
H 	H 	0.62590 0.73870 0.30570 0.05600
C 	C 	0.62740 0.74260 0.26075 -0.03200
H 	H 	0.63000 0.80870 0.25940 0.04500
C 	C 	0.62630 0.68840 0.23410 -0.03200
H 	H 	0.62900 0.71880 0.21520 0.04300
C 	C 	0.62140 0.59410 0.23515 -0.05100
H 	H 	0.61990 0.55910 0.21710 0.05600
C 	C 	0.61856 0.54698 0.26353 0.00200
C 	C 	0.54821 0.63925 0.36075 0.09100
H 	H 	0.48480 0.62910 0.35550 -0.01100
C 	C 	0.67144 0.68110 0.38260 0.08900
H 	H 	0.71200 0.70840 0.39700 -0.00600
N 	N 	0.07087 0.81907 0.69921 -0.23600
N 	N 	0.19426 0.86397 0.72630 -0.09400
N 	N 	0.11349 0.89537 0.73902 -0.09400
N 	N 	0.12139 0.10932 0.84518 -0.09400
N 	N 	0.20179 0.13620 0.85887 -0.09500
N 	N 	0.07718 0.18527 0.88472 -0.23700
C 	C 	0.16489 0.81930 0.70244 0.08800
H 	H 	0.20590 0.78970 0.68860 -0.01000
C 	C 	0.04107 0.86812 0.72269 0.03400
H 	H 	0.97760 0.88160 0.72710 0.03400
C 	C 	0.11550 0.95013 0.76623 0.03000
C 	C 	0.11739 0.90285 0.79354 0.00000
C 	C 	0.11514 0.80405 0.79616 -0.05800
H 	H 	0.11100 0.76680 0.77860 0.05800
C 	C 	0.11886 0.76195 0.82365 -0.03500
H 	H 	0.11560 0.69590 0.82510 0.03700
C 	C 	0.12753 0.81630 0.84991 -0.04500
H 	H 	0.13300 0.78610 0.86880 0.03900
C 	C 	0.12815 0.91053 0.84873 -0.05600
H 	H 	0.13270 0.94550 0.86680 0.05200
C 	C 	0.12209 0.95835 0.82051 -0.00400
C 	C 	0.12160 0.05506 0.81788 0.03000
C 	C 	0.12083 0.10198 0.79049 -0.00200
C 	C 	0.12500 0.20140 0.78803 -0.05300
H 	H 	0.12590 0.23870 0.80570 0.05300
C 	C 	0.12740 0.24260 0.76075 -0.03500
H 	H 	0.13000 0.30870 0.75940 0.04100
C 	C 	0.12630 0.18840 0.73410 -0.03500
H 	H 	0.12900 0.21880 0.71520 0.03900
C 	C 	0.12140 0.09410 0.73515 -0.05500
H 	H 	0.11990 0.05910 0.71710 0.05400
C 	C 	0.11856 0.04698 0.76353 -0.00000
C 	C 	0.04821 0.13925 0.86075 0.03300
H 	H 	0.98480 0.12910 0.85550 0.03000
C 	C 	0.17144 0.18110 0.88260 0.08900
H 	H 	0.21200 0.20840 0.89700 -0.01000
N 	N 	0.92913 0.68093 0.69921 -0.24200
N 	N 	0.80574 0.63603 0.72630 -0.09300
N 	N 	0.88651 0.60463 0.73902 -0.11200
N 	N 	0.87861 0.39068 0.84518 -0.11300
N 	N 	0.79821 0.36380 0.85887 -0.09500
N 	N 	0.92282 0.31473 0.88472 -0.24400
C 	C 	0.83511 0.68070 0.70244 0.08800
H 	H 	0.79410 0.71030 0.68860 -0.00600
C 	C 	0.95893 0.63188 0.72269 0.14900
H 	H 	0.02240 0.61840 0.72710 -0.04800
C 	C 	0.88450 0.54987 0.76623 0.04300
C 	C 	0.88261 0.59715 0.79354 0.00300
C 	C 	0.88486 0.69595 0.79616 -0.04900
H 	H 	0.88900 0.73320 0.77860 0.06400
C 	C 	0.88114 0.73805 0.82365 -0.03000
H 	H 	0.88440 0.80410 0.82510 0.04600
C 	C 	0.87247 0.68370 0.84991 -0.03600
H 	H 	0.86700 0.71390 0.86880 0.04300
C 	C 	0.87185 0.58947 0.84873 -0.04800
H 	H 	0.86730 0.55450 0.86680 0.05500
C 	C 	0.87791 0.54165 0.82051 -0.00100
C 	C 	0.87840 0.44494 0.81788 0.04300
C 	C 	0.87917 0.39802 0.79049 0.00200
C 	C 	0.87500 0.29860 0.78803 -0.04500
H 	H 	0.87410 0.26130 0.80570 0.05800
C 	C 	0.87260 0.25740 0.76075 -0.02900
H 	H 	0.87000 0.19130 0.75940 0.05000
C 	C 	0.87370 0.31160 0.73410 -0.03000
H 	H 	0.87100 0.28120 0.71520 0.04700
C 	C 	0.87860 0.40590 0.73515 -0.04700
H 	H 	0.88010 0.44090 0.71710 0.05800
C 	C 	0.88144 0.45302 0.76353 0.00300
C 	C 	0.95179 0.36075 0.86075 0.15000
H 	H 	0.01520 0.37090 0.85550 -0.05100
C 	C 	0.82856 0.31890 0.88260 0.08800
H 	H 	0.78800 0.29160 0.89700 -0.00700
N 	N 	0.42913 0.18093 0.19921 -0.24000
N 	N 	0.30574 0.13603 0.22630 -0.09400
N 	N 	0.38651 0.10463 0.23902 -0.10300
N 	N 	0.37861 0.89068 0.34518 -0.10300
N 	N 	0.29821 0.86380 0.35887 -0.09800
N 	N 	0.42282 0.81473 0.38472 -0.24200
C 	C 	0.33511 0.18070 0.20244 0.08800
H 	H 	0.29410 0.21030 0.18860 -0.00900
C 	C 	0.45893 0.13188 0.22269 0.09100
H 	H 	0.52240 0.11840 0.22710 -0.00700
C 	C 	0.38450 0.04987 0.26623 0.03600
C 	C 	0.38261 0.09715 0.29354 0.00100
C 	C 	0.38486 0.19595 0.29616 -0.05400
H 	H 	0.38900 0.23320 0.27860 0.06100
C 	C 	0.38114 0.23805 0.32365 -0.03300
H 	H 	0.38440 0.30410 0.32510 0.04200
C 	C 	0.37247 0.18370 0.34991 -0.04100
H 	H 	0.36700 0.21390 0.36880 0.04100
C 	C 	0.37185 0.08947 0.34873 -0.05300
H 	H 	0.36730 0.05450 0.36680 0.05300
C 	C 	0.37791 0.04165 0.32051 -0.00300
C 	C 	0.37840 0.94494 0.31788 0.03600
C 	C 	0.37917 0.89802 0.29049 -0.00000
C 	C 	0.37500 0.79860 0.28803 -0.04900
H 	H 	0.37410 0.76130 0.30570 0.05500
C 	C 	0.37260 0.75740 0.26075 -0.03300
H 	H 	0.37000 0.69130 0.25940 0.04500
C 	C 	0.37370 0.81160 0.23410 -0.03300
H 	H 	0.37100 0.78120 0.21520 0.04300
C 	C 	0.37860 0.90590 0.23515 -0.05100
H 	H 	0.38010 0.94090 0.21710 0.05500
C 	C 	0.38144 0.95302 0.26353 0.00000
C 	C 	0.45179 0.86075 0.36075 0.09100
H 	H 	0.51520 0.87090 0.35550 -0.01000
C 	C 	0.32856 0.81890 0.38260 0.08800
H 	H 	0.28800 0.79160 0.39700 -0.01100
Cu	Cu	0.50000 0.75000 0.41671 0.85100
Cu	Cu	0.00000 0.25000 0.91671 0.83800
Cu	Cu	0.50000 0.25000 0.16671 0.85100
Cu	Cu	0.00000 0.75000 0.66671 0.83800
