data_crystal

_cell_length_a 8.96000
_cell_length_b 28.43700
_cell_length_c 56.80000
_cell_angle_alpha 90.00000
_cell_angle_beta  90.00000
_cell_angle_gamma 90.00000

_symmetry_space_group_name_	'P 1'
_symmetry_space_group_name_H-M	'P 1'

loop_
_symmetry_equiv_pos_as_xyz
  x,y,z

loop_
_atom_site_label
_atom_site_type_symbol
_atom_site_fract_x
_atom_site_fract_y
_atom_site_fract_z
_atom_site_charge
C 	C 	0.17600 0.03160 0.18100 0.05100
H 	H 	0.24780 0.05610 0.18090 0.00400
N 	N 	0.11730 0.00920 0.20137 -0.12800
C 	C 	0.01360 0.97450 0.19390 0.00000
H 	H 	0.95760 0.95420 0.20380 0.02900
C 	C 	0.00830 0.97550 0.16890 -0.00400
H 	H 	0.94820 0.95600 0.15920 0.01200
N 	N 	0.10870 0.01070 0.16095 -0.27500
C 	C 	0.27740 0.06570 0.25340 -0.07100
H 	H 	0.30980 0.09600 0.25820 0.05800
C 	C 	0.22440 0.05870 0.23065 -0.07500
H 	H 	0.22060 0.08420 0.21990 0.05800
C 	C 	0.17710 0.01430 0.22364 0.09000
C 	C 	0.18270 0.97690 0.23940 -0.07600
H 	H 	0.15040 0.94650 0.23460 0.05600
C 	C 	0.23570 0.98390 0.26210 -0.07100
H 	H 	0.23960 0.95830 0.27290 0.05500
C 	C 	0.28310 0.02830 0.26911 0.08000
C 	C 	0.30230 0.23240 0.35090 0.00400
H 	H 	0.40480 0.23670 0.34720 0.04600
C 	C 	0.21180 0.26400 0.36390 0.00100
H 	H 	0.24300 0.29320 0.37040 0.01200
N 	N 	0.06630 0.24450 0.36548 -0.25900
C 	C 	0.06690 0.20080 0.35340 0.05500
H 	H 	0.98430 0.18010 0.35170 0.01000
N 	N 	0.21280 0.19330 0.34439 -0.13500
C 	C 	0.38380 0.13710 0.33333 -0.10000
H 	H 	0.45560 0.15110 0.34350 0.10400
C 	C 	0.24080 0.15590 0.33190 0.12200
C 	C 	0.13580 0.13550 0.31710 -0.10000
H 	H 	0.03810 0.14830 0.31610 0.06600
C 	C 	0.17380 0.09640 0.30365 -0.05700
H 	H 	0.10200 0.08250 0.29350 0.05800
C 	C 	0.31680 0.07770 0.30508 0.06600
C 	C 	0.42180 0.09800 0.31990 -0.04600
H 	H 	0.51960 0.08530 0.32090 0.06200
C 	C 	0.59600 0.86530 0.35390 0.13700
H 	H 	0.50300 0.87510 0.36010 -0.03100
C 	C 	0.80700 0.83110 0.35050 -0.02400
H 	H 	0.89300 0.81270 0.35340 0.02500
C 	C 	0.79300 0.86970 0.33310 0.02100
H 	H 	0.86110 0.87990 0.32140 0.02100
C 	C 	0.59020 0.92990 0.30177 -0.05800
H 	H 	0.64810 0.90840 0.29280 0.05100
C 	C 	0.52000 0.96750 0.29071 -0.08500
H 	H 	0.53000 0.97170 0.27420 0.06500
C 	C 	0.43520 0.99900 0.30381 0.09200
C 	C 	0.42050 0.99290 0.32798 -0.08700
H 	H 	0.36260 0.01440 0.33690 0.06700
C 	C 	0.49070 0.95530 0.33904 -0.06800
H 	H 	0.48060 0.95110 0.35560 0.04900
C 	C 	0.57550 0.92380 0.32594 0.06600
N 	N 	0.21260 0.97890 0.11077 -0.27000
C 	C 	0.11580 0.94150 0.10440 -0.03100
H 	H 	0.01500 0.93790 0.10930 0.01700
C 	C 	0.19610 0.91030 0.08955 0.05000
N 	N 	0.34250 0.92850 0.08667 -0.11800
C 	C 	0.35270 0.97090 0.09978 0.05400
H 	H 	0.43830 0.99050 0.10100 0.01100
C 	C 	0.02350 0.84480 0.09017 -0.02200
H 	H 	0.99120 0.85430 0.10540 0.03000
C 	C 	0.95920 0.80590 0.07941 -0.11500
H 	H 	0.88310 0.78870 0.08730 0.07200
C 	C 	0.00640 0.79200 0.05716 0.10400
C 	C 	0.11780 0.81710 0.04566 -0.11600
H 	H 	0.15000 0.80760 0.03040 0.07600
C 	C 	0.18200 0.85610 0.05641 -0.00500
H 	H 	0.25820 0.87320 0.04860 0.04000
C 	C 	0.13490 0.86990 0.07867 -0.02900
C 	C 	0.75730 0.64290 0.08800 0.09300
C 	C 	0.69450 0.65750 0.06600 -0.06500
H 	H 	0.61140 0.64070 0.05990 0.05400
C 	C 	0.75040 0.69560 0.05300 -0.09700
H 	H 	0.69800 0.70710 0.03970 0.07200
C 	C 	0.87670 0.71520 0.05970 0.10700
C 	C 	0.95330 0.70070 0.07970 -0.08000
H 	H 	0.04350 0.71600 0.08390 0.07800
C 	C 	0.89930 0.66330 0.09390 -0.07300
H 	H 	0.95540 0.65210 0.10690 0.10600
C 	C 	0.00940 0.68870 0.99065 -0.06700
H 	H 	0.04250 0.65860 0.98570 0.05500
C 	C 	0.99720 0.69870 0.01454 -0.08300
H 	H 	0.02210 0.67530 0.02590 0.06300
C 	C 	0.94870 0.74270 0.02185 0.09200
C 	C 	0.91230 0.77680 0.00529 -0.08200
H 	H 	0.87910 0.80690 0.01030 0.06100
C 	C 	0.92440 0.76690 0.98141 -0.07100
H 	H 	0.89950 0.79020 0.97010 0.05500
C 	C 	0.97290 0.72280 0.97409 0.08100
C 	C 	0.91560 0.73710 0.93230 0.05600
H 	H 	0.84920 0.76290 0.93410 0.00000
N 	N 	0.00020 0.71570 0.95054 -0.12600
C 	C 	0.08470 0.67850 0.94047 0.00400
H 	H 	0.15110 0.65830 0.94870 0.03200
C 	C 	0.05230 0.67690 0.91601 -0.00400
H 	H 	0.09340 0.65550 0.90500 0.01300
N 	N 	0.94790 0.71310 0.91096 -0.27200
Cl	Cl	0.34120 0.08133 0.12813 -0.55600
Cl	Cl	0.70490 0.78641 0.87460 -0.54800
N 	N 	0.35250 0.03480 0.29200 -0.14400
N 	N 	0.65970 0.88590 0.33840 -0.15700
N 	N 	0.66870 0.82690 0.36170 -0.28200
N 	N 	0.93540 0.75080 0.04620 -0.15800
N 	N 	0.52880 0.55820 0.11741 -0.26300
C 	C 	0.67220 0.53740 0.11963 -0.00300
H 	H 	0.69380 0.50820 0.12700 0.01000
C 	C 	0.77750 0.56780 0.10880 0.00100
H 	H 	0.88200 0.56250 0.10770 0.05800
N 	N 	0.69920 0.60740 0.09989 -0.12800
C 	C 	0.54550 0.60140 0.10521 0.05900
H 	H 	0.46750 0.62270 0.10130 0.01000
Zn	Zn	0.15630 0.03105 0.12988 1.20400
Zn	Zn	0.88020 0.73021 0.87964 1.19400
C 	C 	0.32400 0.46840 0.68100 0.05200
H 	H 	0.25220 0.44390 0.68090 0.00500
N 	N 	0.38270 0.49080 0.70137 -0.12700
C 	C 	0.48640 0.52550 0.69390 0.00200
H 	H 	0.54240 0.54580 0.70380 0.02900
C 	C 	0.49170 0.52450 0.66890 -0.00100
H 	H 	0.55180 0.54400 0.65920 0.01100
N 	N 	0.39130 0.48930 0.66095 -0.27400
C 	C 	0.22260 0.43430 0.75340 -0.07000
H 	H 	0.19020 0.40400 0.75820 0.05900
C 	C 	0.27560 0.44130 0.73065 -0.07600
H 	H 	0.27940 0.41580 0.71990 0.05900
C 	C 	0.32290 0.48570 0.72364 0.09100
C 	C 	0.31730 0.52310 0.73940 -0.07700
H 	H 	0.34960 0.55350 0.73460 0.05600
C 	C 	0.26430 0.51610 0.76210 -0.07200
H 	H 	0.26040 0.54170 0.77290 0.05500
C 	C 	0.21690 0.47170 0.76911 0.08000
C 	C 	0.19770 0.26760 0.85090 0.00400
H 	H 	0.09520 0.26330 0.84720 0.04600
C 	C 	0.28820 0.23600 0.86390 0.00100
H 	H 	0.25700 0.20680 0.87040 0.01200
N 	N 	0.43370 0.25550 0.86548 -0.25900
C 	C 	0.43310 0.29920 0.85340 0.05100
H 	H 	0.51570 0.31990 0.85170 0.01300
N 	N 	0.28720 0.30670 0.84439 -0.13400
C 	C 	0.11620 0.36290 0.83333 -0.10100
H 	H 	0.04440 0.34890 0.84350 0.10500
C 	C 	0.25920 0.34410 0.83190 0.12200
C 	C 	0.36420 0.36450 0.81710 -0.10100
H 	H 	0.46190 0.35170 0.81610 0.06500
C 	C 	0.32620 0.40360 0.80365 -0.05600
H 	H 	0.39800 0.41750 0.79350 0.05700
C 	C 	0.18320 0.42230 0.80508 0.06500
C 	C 	0.07820 0.40200 0.81990 -0.04400
H 	H 	0.98040 0.41470 0.82090 0.06100
C 	C 	0.90400 0.63470 0.85390 0.13700
H 	H 	0.99700 0.62490 0.86010 -0.03200
C 	C 	0.69300 0.66890 0.85050 -0.02400
H 	H 	0.60700 0.68730 0.85340 0.02500
C 	C 	0.70700 0.63030 0.83310 0.02100
H 	H 	0.63890 0.62010 0.82140 0.02100
C 	C 	0.90980 0.57010 0.80177 -0.05600
H 	H 	0.85190 0.59160 0.79280 0.05000
C 	C 	0.98000 0.53250 0.79071 -0.08800
H 	H 	0.97000 0.52830 0.77420 0.06600
C 	C 	0.06480 0.50100 0.80381 0.09400
C 	C 	0.07950 0.50710 0.82798 -0.08900
H 	H 	0.13740 0.48560 0.83690 0.06800
C 	C 	0.00930 0.54470 0.83904 -0.06400
H 	H 	0.01940 0.54890 0.85560 0.04800
C 	C 	0.92450 0.57620 0.82594 0.06300
N 	N 	0.28740 0.52110 0.61077 -0.27000
C 	C 	0.38420 0.55850 0.60440 -0.03100
H 	H 	0.48500 0.56210 0.60930 0.01800
C 	C 	0.30390 0.58970 0.58955 0.05100
N 	N 	0.15750 0.57150 0.58667 -0.11900
C 	C 	0.14730 0.52910 0.59978 0.05400
H 	H 	0.06170 0.50950 0.60100 0.01100
C 	C 	0.47650 0.65520 0.59017 -0.01600
H 	H 	0.50880 0.64570 0.60540 0.02700
C 	C 	0.54080 0.69410 0.57941 -0.12000
H 	H 	0.61690 0.71130 0.58730 0.07400
C 	C 	0.49360 0.70800 0.55716 0.10700
C 	C 	0.38220 0.68290 0.54566 -0.11900
H 	H 	0.35000 0.69240 0.53040 0.07600
C 	C 	0.31800 0.64390 0.55641 -0.00300
H 	H 	0.24180 0.62680 0.54860 0.03900
C 	C 	0.36510 0.63010 0.57867 -0.03200
C 	C 	0.74270 0.85710 0.58800 0.09300
C 	C 	0.80550 0.84250 0.56600 -0.06500
H 	H 	0.88860 0.85930 0.55990 0.05400
C 	C 	0.74960 0.80440 0.55300 -0.09700
H 	H 	0.80200 0.79290 0.53970 0.07300
C 	C 	0.62330 0.78480 0.55970 0.10800
C 	C 	0.54670 0.79930 0.57970 -0.08100
H 	H 	0.45650 0.78400 0.58390 0.07900
C 	C 	0.60070 0.83670 0.59390 -0.07300
H 	H 	0.54460 0.84790 0.60690 0.10600
C 	C 	0.49060 0.81130 0.49065 -0.07300
H 	H 	0.45750 0.84140 0.48570 0.05700
C 	C 	0.50280 0.80130 0.51454 -0.07800
H 	H 	0.47790 0.82470 0.52590 0.06200
C 	C 	0.55130 0.75730 0.52185 0.09000
C 	C 	0.58770 0.72320 0.50529 -0.07900
H 	H 	0.62090 0.69310 0.51030 0.06000
C 	C 	0.57560 0.73310 0.48141 -0.07400
H 	H 	0.60050 0.70980 0.47010 0.05600
C 	C 	0.52710 0.77720 0.47409 0.08600
C 	C 	0.58440 0.76290 0.43230 0.05800
H 	H 	0.65080 0.73710 0.43410 -0.00000
N 	N 	0.49980 0.78430 0.45054 -0.12800
C 	C 	0.41530 0.82150 0.44047 0.00500
H 	H 	0.34890 0.84170 0.44870 0.03200
C 	C 	0.44770 0.82310 0.41601 -0.00700
H 	H 	0.40660 0.84450 0.40500 0.01300
N 	N 	0.55210 0.78690 0.41096 -0.27100
Cl	Cl	0.15880 0.41867 0.62813 -0.55600
Cl	Cl	0.79510 0.71359 0.37460 -0.54800
N 	N 	0.14750 0.46520 0.79200 -0.14400
N 	N 	0.84030 0.61410 0.83840 -0.15600
N 	N 	0.83130 0.67310 0.86170 -0.28200
N 	N 	0.56460 0.74920 0.54620 -0.15800
N 	N 	0.97120 0.94180 0.61741 -0.26300
C 	C 	0.82780 0.96260 0.61963 -0.00300
H 	H 	0.80620 0.99180 0.62700 0.01100
C 	C 	0.72250 0.93220 0.60880 0.00100
H 	H 	0.61800 0.93750 0.60770 0.05700
N 	N 	0.80080 0.89260 0.59989 -0.12800
C 	C 	0.95450 0.89860 0.60521 0.06300
H 	H 	0.03250 0.87730 0.60130 0.00700
Zn	Zn	0.34370 0.46895 0.62988 1.20400
Zn	Zn	0.61980 0.76979 0.37964 1.19500
C 	C 	0.17600 0.96840 0.68100 0.05200
H 	H 	0.24780 0.94390 0.68090 0.00500
N 	N 	0.11730 0.99080 0.70137 -0.12700
C 	C 	0.01360 0.02550 0.69390 0.00100
H 	H 	0.95760 0.04580 0.70380 0.03000
C 	C 	0.00830 0.02450 0.66890 -0.00300
H 	H 	0.94820 0.04400 0.65920 0.01300
N 	N 	0.10870 0.98930 0.66095 -0.27400
C 	C 	0.27740 0.93430 0.75340 -0.07000
H 	H 	0.30980 0.90400 0.75820 0.05900
C 	C 	0.22440 0.94130 0.73065 -0.07500
H 	H 	0.22060 0.91580 0.71990 0.05800
C 	C 	0.17710 0.98570 0.72364 0.09000
C 	C 	0.18270 0.02310 0.73940 -0.07600
H 	H 	0.15040 0.05350 0.73460 0.05600
C 	C 	0.23570 0.01610 0.76210 -0.07100
H 	H 	0.23960 0.04170 0.77290 0.05500
C 	C 	0.28310 0.97170 0.76911 0.08000
C 	C 	0.30230 0.76760 0.85090 0.00400
H 	H 	0.40480 0.76330 0.84720 0.04600
C 	C 	0.21180 0.73600 0.86390 0.00100
H 	H 	0.24300 0.70680 0.87040 0.01200
N 	N 	0.06630 0.75550 0.86548 -0.25900
C 	C 	0.06690 0.79920 0.85340 0.05500
H 	H 	0.98430 0.81990 0.85170 0.01000
N 	N 	0.21280 0.80670 0.84439 -0.13500
C 	C 	0.38380 0.86290 0.83333 -0.10000
H 	H 	0.45560 0.84890 0.84350 0.10400
C 	C 	0.24080 0.84410 0.83190 0.12200
C 	C 	0.13580 0.86450 0.81710 -0.10000
H 	H 	0.03810 0.85170 0.81610 0.06600
C 	C 	0.17380 0.90360 0.80365 -0.05700
H 	H 	0.10200 0.91750 0.79350 0.05800
C 	C 	0.31680 0.92230 0.80508 0.06600
C 	C 	0.42180 0.90200 0.81990 -0.04600
H 	H 	0.51960 0.91470 0.82090 0.06200
C 	C 	0.59600 0.13470 0.85390 0.13700
H 	H 	0.50300 0.12490 0.86010 -0.03100
C 	C 	0.80700 0.16890 0.85050 -0.02400
H 	H 	0.89300 0.18730 0.85340 0.02500
C 	C 	0.79300 0.13030 0.83310 0.02100
H 	H 	0.86110 0.12010 0.82140 0.02100
C 	C 	0.59020 0.07010 0.80177 -0.05800
H 	H 	0.64810 0.09160 0.79280 0.05100
C 	C 	0.52000 0.03250 0.79071 -0.08500
H 	H 	0.53000 0.02830 0.77420 0.06500
C 	C 	0.43520 0.00100 0.80381 0.09200
C 	C 	0.42050 0.00710 0.82798 -0.08700
H 	H 	0.36260 0.98560 0.83690 0.06700
C 	C 	0.49070 0.04470 0.83904 -0.06800
H 	H 	0.48060 0.04890 0.85560 0.04900
C 	C 	0.57550 0.07620 0.82594 0.06600
N 	N 	0.21260 0.02110 0.61077 -0.27000
C 	C 	0.11580 0.05850 0.60440 -0.03100
H 	H 	0.01500 0.06210 0.60930 0.01700
C 	C 	0.19610 0.08970 0.58955 0.05000
N 	N 	0.34250 0.07150 0.58667 -0.11800
C 	C 	0.35270 0.02910 0.59978 0.05400
H 	H 	0.43830 0.00950 0.60100 0.01100
C 	C 	0.02350 0.15520 0.59017 -0.02100
H 	H 	0.99120 0.14570 0.60540 0.03000
C 	C 	0.95920 0.19410 0.57941 -0.11500
H 	H 	0.88310 0.21130 0.58730 0.07200
C 	C 	0.00640 0.20800 0.55716 0.10400
C 	C 	0.11780 0.18290 0.54566 -0.11600
H 	H 	0.15000 0.19240 0.53040 0.07600
C 	C 	0.18200 0.14390 0.55641 -0.00500
H 	H 	0.25820 0.12680 0.54860 0.04000
C 	C 	0.13490 0.13010 0.57867 -0.02900
C 	C 	0.75730 0.35710 0.58800 0.09300
C 	C 	0.69450 0.34250 0.56600 -0.06500
H 	H 	0.61140 0.35930 0.55990 0.05400
C 	C 	0.75040 0.30440 0.55300 -0.09700
H 	H 	0.69800 0.29290 0.53970 0.07200
C 	C 	0.87670 0.28480 0.55970 0.10700
C 	C 	0.95330 0.29930 0.57970 -0.08000
H 	H 	0.04350 0.28400 0.58390 0.07800
C 	C 	0.89930 0.33670 0.59390 -0.07300
H 	H 	0.95540 0.34790 0.60690 0.10600
C 	C 	0.00940 0.31130 0.49065 -0.06700
H 	H 	0.04250 0.34140 0.48570 0.05500
C 	C 	0.99720 0.30130 0.51454 -0.08300
H 	H 	0.02210 0.32470 0.52590 0.06300
C 	C 	0.94870 0.25730 0.52185 0.09200
C 	C 	0.91230 0.22320 0.50529 -0.08200
H 	H 	0.87910 0.19310 0.51030 0.06100
C 	C 	0.92440 0.23310 0.48141 -0.07100
H 	H 	0.89950 0.20980 0.47010 0.05500
C 	C 	0.97290 0.27720 0.47409 0.08100
C 	C 	0.91560 0.26290 0.43230 0.05600
H 	H 	0.84920 0.23710 0.43410 0.00000
N 	N 	0.00020 0.28430 0.45054 -0.12600
C 	C 	0.08470 0.32150 0.44047 0.00400
H 	H 	0.15110 0.34170 0.44870 0.03200
C 	C 	0.05230 0.32310 0.41601 -0.00400
H 	H 	0.09340 0.34450 0.40500 0.01300
N 	N 	0.94790 0.28690 0.41096 -0.27200
Cl	Cl	0.34120 0.91867 0.62813 -0.55600
Cl	Cl	0.70490 0.21359 0.37460 -0.54800
N 	N 	0.35250 0.96520 0.79200 -0.14400
N 	N 	0.65970 0.11410 0.83840 -0.15700
N 	N 	0.66870 0.17310 0.86170 -0.28200
N 	N 	0.93540 0.24920 0.54620 -0.15800
N 	N 	0.52880 0.44180 0.61741 -0.26300
C 	C 	0.67220 0.46260 0.61963 -0.00300
H 	H 	0.69380 0.49180 0.62700 0.01000
C 	C 	0.77750 0.43220 0.60880 0.00100
H 	H 	0.88200 0.43750 0.60770 0.05800
N 	N 	0.69920 0.39260 0.59989 -0.12800
C 	C 	0.54550 0.39860 0.60521 0.05900
H 	H 	0.46750 0.37730 0.60130 0.01000
Zn	Zn	0.15630 0.96895 0.62988 1.20400
Zn	Zn	0.88020 0.26979 0.37964 1.19400
C 	C 	0.32400 0.53160 0.18100 0.05200
H 	H 	0.25220 0.55610 0.18090 0.00500
N 	N 	0.38270 0.50920 0.20137 -0.12700
C 	C 	0.48640 0.47450 0.19390 0.00200
H 	H 	0.54240 0.45420 0.20380 0.02900
C 	C 	0.49170 0.47550 0.16890 -0.00100
H 	H 	0.55180 0.45600 0.15920 0.01100
N 	N 	0.39130 0.51070 0.16095 -0.27400
C 	C 	0.22260 0.56570 0.25340 -0.07000
H 	H 	0.19020 0.59600 0.25820 0.05900
C 	C 	0.27560 0.55870 0.23065 -0.07600
H 	H 	0.27940 0.58420 0.21990 0.05900
C 	C 	0.32290 0.51430 0.22364 0.09100
C 	C 	0.31730 0.47690 0.23940 -0.07700
H 	H 	0.34960 0.44650 0.23460 0.05600
C 	C 	0.26430 0.48390 0.26210 -0.07200
H 	H 	0.26040 0.45830 0.27290 0.05500
C 	C 	0.21690 0.52830 0.26911 0.08000
C 	C 	0.19770 0.73240 0.35090 0.00400
H 	H 	0.09520 0.73670 0.34720 0.04600
C 	C 	0.28820 0.76400 0.36390 0.00100
H 	H 	0.25700 0.79320 0.37040 0.01200
N 	N 	0.43370 0.74450 0.36548 -0.25900
C 	C 	0.43310 0.70080 0.35340 0.05100
H 	H 	0.51570 0.68010 0.35170 0.01300
N 	N 	0.28720 0.69330 0.34439 -0.13400
C 	C 	0.11620 0.63710 0.33333 -0.10100
H 	H 	0.04440 0.65110 0.34350 0.10500
C 	C 	0.25920 0.65590 0.33190 0.12200
C 	C 	0.36420 0.63550 0.31710 -0.10100
H 	H 	0.46190 0.64830 0.31610 0.06500
C 	C 	0.32620 0.59640 0.30365 -0.05600
H 	H 	0.39800 0.58250 0.29350 0.05700
C 	C 	0.18320 0.57770 0.30508 0.06500
C 	C 	0.07820 0.59800 0.31990 -0.04400
H 	H 	0.98040 0.58530 0.32090 0.06100
C 	C 	0.90400 0.36530 0.35390 0.13700
H 	H 	0.99700 0.37510 0.36010 -0.03200
C 	C 	0.69300 0.33110 0.35050 -0.02400
H 	H 	0.60700 0.31270 0.35340 0.02500
C 	C 	0.70700 0.36970 0.33310 0.02100
H 	H 	0.63890 0.37990 0.32140 0.02100
C 	C 	0.90980 0.42990 0.30177 -0.05600
H 	H 	0.85190 0.40840 0.29280 0.05000
C 	C 	0.98000 0.46750 0.29071 -0.08800
H 	H 	0.97000 0.47170 0.27420 0.06600
C 	C 	0.06480 0.49900 0.30381 0.09400
C 	C 	0.07950 0.49290 0.32798 -0.08900
H 	H 	0.13740 0.51440 0.33690 0.06800
C 	C 	0.00930 0.45530 0.33904 -0.06400
H 	H 	0.01940 0.45110 0.35560 0.04800
C 	C 	0.92450 0.42380 0.32594 0.06300
N 	N 	0.28740 0.47890 0.11077 -0.27000
C 	C 	0.38420 0.44150 0.10440 -0.03100
H 	H 	0.48500 0.43790 0.10930 0.01800
C 	C 	0.30390 0.41030 0.08955 0.05100
N 	N 	0.15750 0.42850 0.08667 -0.11900
C 	C 	0.14730 0.47090 0.09978 0.05400
H 	H 	0.06170 0.49050 0.10100 0.01100
C 	C 	0.47650 0.34480 0.09017 -0.01600
H 	H 	0.50880 0.35430 0.10540 0.02700
C 	C 	0.54080 0.30590 0.07941 -0.12000
H 	H 	0.61690 0.28870 0.08730 0.07400
C 	C 	0.49360 0.29200 0.05716 0.10700
C 	C 	0.38220 0.31710 0.04566 -0.11900
H 	H 	0.35000 0.30760 0.03040 0.07600
C 	C 	0.31800 0.35610 0.05641 -0.00300
H 	H 	0.24180 0.37320 0.04860 0.03900
C 	C 	0.36510 0.36990 0.07867 -0.03200
C 	C 	0.74270 0.14290 0.08800 0.09300
C 	C 	0.80550 0.15750 0.06600 -0.06500
H 	H 	0.88860 0.14070 0.05990 0.05400
C 	C 	0.74960 0.19560 0.05300 -0.09700
H 	H 	0.80200 0.20710 0.03970 0.07300
C 	C 	0.62330 0.21520 0.05970 0.10800
C 	C 	0.54670 0.20070 0.07970 -0.08100
H 	H 	0.45650 0.21600 0.08390 0.07900
C 	C 	0.60070 0.16330 0.09390 -0.07300
H 	H 	0.54460 0.15210 0.10690 0.10600
C 	C 	0.49060 0.18870 0.99065 -0.07300
H 	H 	0.45750 0.15860 0.98570 0.05700
C 	C 	0.50280 0.19870 0.01454 -0.07800
H 	H 	0.47790 0.17530 0.02590 0.06200
C 	C 	0.55130 0.24270 0.02185 0.09000
C 	C 	0.58770 0.27680 0.00529 -0.07900
H 	H 	0.62090 0.30690 0.01030 0.06000
C 	C 	0.57560 0.26690 0.98141 -0.07400
H 	H 	0.60050 0.29020 0.97010 0.05600
C 	C 	0.52710 0.22280 0.97409 0.08600
C 	C 	0.58440 0.23710 0.93230 0.05800
H 	H 	0.65080 0.26290 0.93410 -0.00000
N 	N 	0.49980 0.21570 0.95054 -0.12800
C 	C 	0.41530 0.17850 0.94047 0.00500
H 	H 	0.34890 0.15830 0.94870 0.03200
C 	C 	0.44770 0.17690 0.91601 -0.00700
H 	H 	0.40660 0.15550 0.90500 0.01300
N 	N 	0.55210 0.21310 0.91096 -0.27100
Cl	Cl	0.15880 0.58133 0.12813 -0.55600
Cl	Cl	0.79510 0.28641 0.87460 -0.54800
N 	N 	0.14750 0.53480 0.29200 -0.14400
N 	N 	0.84030 0.38590 0.33840 -0.15600
N 	N 	0.83130 0.32690 0.36170 -0.28200
N 	N 	0.56460 0.25080 0.04620 -0.15800
N 	N 	0.97120 0.05820 0.11741 -0.26300
C 	C 	0.82780 0.03740 0.11963 -0.00300
H 	H 	0.80620 0.00820 0.12700 0.01100
C 	C 	0.72250 0.06780 0.10880 0.00100
H 	H 	0.61800 0.06250 0.10770 0.05700
N 	N 	0.80080 0.10740 0.09989 -0.12800
C 	C 	0.95450 0.10140 0.10521 0.06300
H 	H 	0.03250 0.12270 0.10130 0.00700
Zn	Zn	0.34370 0.53105 0.12988 1.20400
Zn	Zn	0.61980 0.23021 0.87964 1.19500
C 	C 	0.82400 0.03160 0.31900 0.05200
H 	H 	0.75220 0.05610 0.31910 0.00500
N 	N 	0.88270 0.00920 0.29863 -0.12700
C 	C 	0.98640 0.97450 0.30610 0.00100
H 	H 	0.04240 0.95420 0.29620 0.03000
C 	C 	0.99170 0.97550 0.33110 -0.00300
H 	H 	0.05180 0.95600 0.34080 0.01300
N 	N 	0.89130 0.01070 0.33905 -0.27400
C 	C 	0.72260 0.06570 0.24660 -0.07000
H 	H 	0.69020 0.09600 0.24180 0.05900
C 	C 	0.77560 0.05870 0.26935 -0.07500
H 	H 	0.77940 0.08420 0.28010 0.05800
C 	C 	0.82290 0.01430 0.27636 0.09000
C 	C 	0.81730 0.97690 0.26060 -0.07600
H 	H 	0.84960 0.94650 0.26540 0.05600
C 	C 	0.76430 0.98390 0.23790 -0.07100
H 	H 	0.76040 0.95830 0.22710 0.05500
C 	C 	0.71690 0.02830 0.23089 0.08000
C 	C 	0.69770 0.23240 0.14910 0.00400
H 	H 	0.59520 0.23670 0.15280 0.04600
C 	C 	0.78820 0.26400 0.13610 0.00100
H 	H 	0.75700 0.29320 0.12960 0.01200
N 	N 	0.93370 0.24450 0.13452 -0.25900
C 	C 	0.93310 0.20080 0.14660 0.05500
H 	H 	0.01570 0.18010 0.14830 0.01000
N 	N 	0.78720 0.19330 0.15561 -0.13500
C 	C 	0.61620 0.13710 0.16667 -0.10000
H 	H 	0.54440 0.15110 0.15650 0.10400
C 	C 	0.75920 0.15590 0.16810 0.12200
C 	C 	0.86420 0.13550 0.18290 -0.10000
H 	H 	0.96190 0.14830 0.18390 0.06600
C 	C 	0.82620 0.09640 0.19635 -0.05700
H 	H 	0.89800 0.08250 0.20650 0.05800
C 	C 	0.68320 0.07770 0.19492 0.06600
C 	C 	0.57820 0.09800 0.18010 -0.04600
H 	H 	0.48040 0.08530 0.17910 0.06200
C 	C 	0.40400 0.86530 0.14610 0.13700
H 	H 	0.49700 0.87510 0.13990 -0.03100
C 	C 	0.19300 0.83110 0.14950 -0.02400
H 	H 	0.10700 0.81270 0.14660 0.02500
C 	C 	0.20700 0.86970 0.16690 0.02100
H 	H 	0.13890 0.87990 0.17860 0.02100
C 	C 	0.40980 0.92990 0.19823 -0.05800
H 	H 	0.35190 0.90840 0.20720 0.05100
C 	C 	0.48000 0.96750 0.20929 -0.08500
H 	H 	0.47000 0.97170 0.22580 0.06500
C 	C 	0.56480 0.99900 0.19619 0.09200
C 	C 	0.57950 0.99290 0.17202 -0.08700
H 	H 	0.63740 0.01440 0.16310 0.06700
C 	C 	0.50930 0.95530 0.16096 -0.06800
H 	H 	0.51940 0.95110 0.14440 0.04900
C 	C 	0.42450 0.92380 0.17406 0.06600
N 	N 	0.78740 0.97890 0.38923 -0.27000
C 	C 	0.88420 0.94150 0.39560 -0.03100
H 	H 	0.98500 0.93790 0.39070 0.01700
C 	C 	0.80390 0.91030 0.41045 0.05000
N 	N 	0.65750 0.92850 0.41333 -0.11800
C 	C 	0.64730 0.97090 0.40022 0.05400
H 	H 	0.56170 0.99050 0.39900 0.01100
C 	C 	0.97650 0.84480 0.40983 -0.02100
H 	H 	0.00880 0.85430 0.39460 0.03000
C 	C 	0.04080 0.80590 0.42059 -0.11500
H 	H 	0.11690 0.78870 0.41270 0.07200
C 	C 	0.99360 0.79200 0.44284 0.10400
C 	C 	0.88220 0.81710 0.45434 -0.11600
H 	H 	0.85000 0.80760 0.46960 0.07600
C 	C 	0.81800 0.85610 0.44359 -0.00500
H 	H 	0.74180 0.87320 0.45140 0.04000
C 	C 	0.86510 0.86990 0.42133 -0.02900
C 	C 	0.24270 0.64290 0.41200 0.09300
C 	C 	0.30550 0.65750 0.43400 -0.06500
H 	H 	0.38860 0.64070 0.44010 0.05400
C 	C 	0.24960 0.69560 0.44700 -0.09700
H 	H 	0.30200 0.70710 0.46030 0.07200
C 	C 	0.12330 0.71520 0.44030 0.10700
C 	C 	0.04670 0.70070 0.42030 -0.08000
H 	H 	0.95650 0.71600 0.41610 0.07800
C 	C 	0.10070 0.66330 0.40610 -0.07300
H 	H 	0.04460 0.65210 0.39310 0.10600
C 	C 	0.99060 0.68870 0.50935 -0.06700
H 	H 	0.95750 0.65860 0.51430 0.05500
C 	C 	0.00280 0.69870 0.48546 -0.08300
H 	H 	0.97790 0.67530 0.47410 0.06300
C 	C 	0.05130 0.74270 0.47815 0.09200
C 	C 	0.08770 0.77680 0.49471 -0.08200
H 	H 	0.12090 0.80690 0.48970 0.06100
C 	C 	0.07560 0.76690 0.51859 -0.07100
H 	H 	0.10050 0.79020 0.52990 0.05500
C 	C 	0.02710 0.72280 0.52591 0.08100
C 	C 	0.08440 0.73710 0.56770 0.05600
H 	H 	0.15080 0.76290 0.56590 0.00000
N 	N 	0.99980 0.71570 0.54946 -0.12600
C 	C 	0.91530 0.67850 0.55953 0.00400
H 	H 	0.84890 0.65830 0.55130 0.03200
C 	C 	0.94770 0.67690 0.58399 -0.00400
H 	H 	0.90660 0.65550 0.59500 0.01300
N 	N 	0.05210 0.71310 0.58904 -0.27200
Cl	Cl	0.65880 0.08133 0.37187 -0.55600
Cl	Cl	0.29510 0.78641 0.62540 -0.54800
N 	N 	0.64750 0.03480 0.20800 -0.14400
N 	N 	0.34030 0.88590 0.16160 -0.15700
N 	N 	0.33130 0.82690 0.13830 -0.28200
N 	N 	0.06460 0.75080 0.45380 -0.15800
N 	N 	0.47120 0.55820 0.38259 -0.26300
C 	C 	0.32780 0.53740 0.38037 -0.00300
H 	H 	0.30620 0.50820 0.37300 0.01000
C 	C 	0.22250 0.56780 0.39120 0.00100
H 	H 	0.11800 0.56250 0.39230 0.05800
N 	N 	0.30080 0.60740 0.40011 -0.12800
C 	C 	0.45450 0.60140 0.39479 0.05900
H 	H 	0.53250 0.62270 0.39870 0.01000
Zn	Zn	0.84370 0.03105 0.37012 1.20400
Zn	Zn	0.11980 0.73021 0.62036 1.19400
C 	C 	0.67600 0.46840 0.81900 0.05200
H 	H 	0.74780 0.44390 0.81910 0.00500
N 	N 	0.61730 0.49080 0.79863 -0.12700
C 	C 	0.51360 0.52550 0.80610 0.00200
H 	H 	0.45760 0.54580 0.79620 0.02900
C 	C 	0.50830 0.52450 0.83110 -0.00100
H 	H 	0.44820 0.54400 0.84080 0.01100
N 	N 	0.60870 0.48930 0.83905 -0.27400
C 	C 	0.77740 0.43430 0.74660 -0.07000
H 	H 	0.80980 0.40400 0.74180 0.05900
C 	C 	0.72440 0.44130 0.76935 -0.07600
H 	H 	0.72060 0.41580 0.78010 0.05900
C 	C 	0.67710 0.48570 0.77636 0.09100
C 	C 	0.68270 0.52310 0.76060 -0.07700
H 	H 	0.65040 0.55350 0.76540 0.05600
C 	C 	0.73570 0.51610 0.73790 -0.07200
H 	H 	0.73960 0.54170 0.72710 0.05500
C 	C 	0.78310 0.47170 0.73089 0.08000
C 	C 	0.80230 0.26760 0.64910 0.00400
H 	H 	0.90480 0.26330 0.65280 0.04600
C 	C 	0.71180 0.23600 0.63610 0.00100
H 	H 	0.74300 0.20680 0.62960 0.01200
N 	N 	0.56630 0.25550 0.63452 -0.25900
C 	C 	0.56690 0.29920 0.64660 0.05100
H 	H 	0.48430 0.31990 0.64830 0.01300
N 	N 	0.71280 0.30670 0.65561 -0.13400
C 	C 	0.88380 0.36290 0.66667 -0.10100
H 	H 	0.95560 0.34890 0.65650 0.10500
C 	C 	0.74080 0.34410 0.66810 0.12200
C 	C 	0.63580 0.36450 0.68290 -0.10100
H 	H 	0.53810 0.35170 0.68390 0.06500
C 	C 	0.67380 0.40360 0.69635 -0.05600
H 	H 	0.60200 0.41750 0.70650 0.05700
C 	C 	0.81680 0.42230 0.69492 0.06500
C 	C 	0.92180 0.40200 0.68010 -0.04400
H 	H 	0.01960 0.41470 0.67910 0.06100
C 	C 	0.09600 0.63470 0.64610 0.13700
H 	H 	0.00300 0.62490 0.63990 -0.03200
C 	C 	0.30700 0.66890 0.64950 -0.02400
H 	H 	0.39300 0.68730 0.64660 0.02500
C 	C 	0.29300 0.63030 0.66690 0.02100
H 	H 	0.36110 0.62010 0.67860 0.02100
C 	C 	0.09020 0.57010 0.69823 -0.05600
H 	H 	0.14810 0.59160 0.70720 0.05000
C 	C 	0.02000 0.53250 0.70929 -0.08800
H 	H 	0.03000 0.52830 0.72580 0.06600
C 	C 	0.93520 0.50100 0.69619 0.09400
C 	C 	0.92050 0.50710 0.67202 -0.08900
H 	H 	0.86260 0.48560 0.66310 0.06800
C 	C 	0.99070 0.54470 0.66096 -0.06400
H 	H 	0.98060 0.54890 0.64440 0.04800
C 	C 	0.07550 0.57620 0.67406 0.06300
N 	N 	0.71260 0.52110 0.88923 -0.27000
C 	C 	0.61580 0.55850 0.89560 -0.03100
H 	H 	0.51500 0.56210 0.89070 0.01800
C 	C 	0.69610 0.58970 0.91045 0.05100
N 	N 	0.84250 0.57150 0.91333 -0.11900
C 	C 	0.85270 0.52910 0.90022 0.05400
H 	H 	0.93830 0.50950 0.89900 0.01100
C 	C 	0.52350 0.65520 0.90983 -0.01600
H 	H 	0.49120 0.64570 0.89460 0.02700
C 	C 	0.45920 0.69410 0.92059 -0.12000
H 	H 	0.38310 0.71130 0.91270 0.07400
C 	C 	0.50640 0.70800 0.94284 0.10700
C 	C 	0.61780 0.68290 0.95434 -0.11900
H 	H 	0.65000 0.69240 0.96960 0.07600
C 	C 	0.68200 0.64390 0.94359 -0.00300
H 	H 	0.75820 0.62680 0.95140 0.03900
C 	C 	0.63490 0.63010 0.92133 -0.03200
C 	C 	0.25730 0.85710 0.91200 0.09300
C 	C 	0.19450 0.84250 0.93400 -0.06500
H 	H 	0.11140 0.85930 0.94010 0.05400
C 	C 	0.25040 0.80440 0.94700 -0.09700
H 	H 	0.19800 0.79290 0.96030 0.07300
C 	C 	0.37670 0.78480 0.94030 0.10800
C 	C 	0.45330 0.79930 0.92030 -0.08100
H 	H 	0.54350 0.78400 0.91610 0.07900
C 	C 	0.39930 0.83670 0.90610 -0.07300
H 	H 	0.45540 0.84790 0.89310 0.10600
C 	C 	0.50940 0.81130 0.00935 -0.07300
H 	H 	0.54250 0.84140 0.01430 0.05700
C 	C 	0.49720 0.80130 0.98546 -0.07800
H 	H 	0.52210 0.82470 0.97410 0.06200
C 	C 	0.44870 0.75730 0.97815 0.09000
C 	C 	0.41230 0.72320 0.99471 -0.07900
H 	H 	0.37910 0.69310 0.98970 0.06000
C 	C 	0.42440 0.73310 0.01859 -0.07400
H 	H 	0.39950 0.70980 0.02990 0.05600
C 	C 	0.47290 0.77720 0.02591 0.08600
C 	C 	0.41560 0.76290 0.06770 0.05800
H 	H 	0.34920 0.73710 0.06590 -0.00000
N 	N 	0.50020 0.78430 0.04946 -0.12800
C 	C 	0.58470 0.82150 0.05953 0.00500
H 	H 	0.65110 0.84170 0.05130 0.03200
C 	C 	0.55230 0.82310 0.08399 -0.00700
H 	H 	0.59340 0.84450 0.09500 0.01300
N 	N 	0.44790 0.78690 0.08904 -0.27100
Cl	Cl	0.84120 0.41867 0.87187 -0.55600
Cl	Cl	0.20490 0.71359 0.12540 -0.54800
N 	N 	0.85250 0.46520 0.70800 -0.14400
N 	N 	0.15970 0.61410 0.66160 -0.15600
N 	N 	0.16870 0.67310 0.63830 -0.28200
N 	N 	0.43540 0.74920 0.95380 -0.15800
N 	N 	0.02880 0.94180 0.88259 -0.26300
C 	C 	0.17220 0.96260 0.88037 -0.00300
H 	H 	0.19380 0.99180 0.87300 0.01100
C 	C 	0.27750 0.93220 0.89120 0.00100
H 	H 	0.38200 0.93750 0.89230 0.05700
N 	N 	0.19920 0.89260 0.90011 -0.12800
C 	C 	0.04550 0.89860 0.89479 0.06300
H 	H 	0.96750 0.87730 0.89870 0.00700
Zn	Zn	0.65630 0.46895 0.87012 1.20400
Zn	Zn	0.38020 0.76979 0.12036 1.19500
C 	C 	0.82400 0.96840 0.81900 0.05200
H 	H 	0.75220 0.94390 0.81910 0.00500
N 	N 	0.88270 0.99080 0.79863 -0.12700
C 	C 	0.98640 0.02550 0.80610 0.00100
H 	H 	0.04240 0.04580 0.79620 0.03000
C 	C 	0.99170 0.02450 0.83110 -0.00300
H 	H 	0.05180 0.04400 0.84080 0.01300
N 	N 	0.89130 0.98930 0.83905 -0.27400
C 	C 	0.72260 0.93430 0.74660 -0.07000
H 	H 	0.69020 0.90400 0.74180 0.05900
C 	C 	0.77560 0.94130 0.76935 -0.07500
H 	H 	0.77940 0.91580 0.78010 0.05800
C 	C 	0.82290 0.98570 0.77636 0.09000
C 	C 	0.81730 0.02310 0.76060 -0.07600
H 	H 	0.84960 0.05350 0.76540 0.05600
C 	C 	0.76430 0.01610 0.73790 -0.07100
H 	H 	0.76040 0.04170 0.72710 0.05500
C 	C 	0.71690 0.97170 0.73089 0.08000
C 	C 	0.69770 0.76760 0.64910 0.00400
H 	H 	0.59520 0.76330 0.65280 0.04600
C 	C 	0.78820 0.73600 0.63610 0.00100
H 	H 	0.75700 0.70680 0.62960 0.01200
N 	N 	0.93370 0.75550 0.63452 -0.25900
C 	C 	0.93310 0.79920 0.64660 0.05500
H 	H 	0.01570 0.81990 0.64830 0.01000
N 	N 	0.78720 0.80670 0.65561 -0.13500
C 	C 	0.61620 0.86290 0.66667 -0.10000
H 	H 	0.54440 0.84890 0.65650 0.10400
C 	C 	0.75920 0.84410 0.66810 0.12200
C 	C 	0.86420 0.86450 0.68290 -0.10000
H 	H 	0.96190 0.85170 0.68390 0.06600
C 	C 	0.82620 0.90360 0.69635 -0.05700
H 	H 	0.89800 0.91750 0.70650 0.05800
C 	C 	0.68320 0.92230 0.69492 0.06600
C 	C 	0.57820 0.90200 0.68010 -0.04600
H 	H 	0.48040 0.91470 0.67910 0.06200
C 	C 	0.40400 0.13470 0.64610 0.13700
H 	H 	0.49700 0.12490 0.63990 -0.03100
C 	C 	0.19300 0.16890 0.64950 -0.02400
H 	H 	0.10700 0.18730 0.64660 0.02500
C 	C 	0.20700 0.13030 0.66690 0.02100
H 	H 	0.13890 0.12010 0.67860 0.02100
C 	C 	0.40980 0.07010 0.69823 -0.05800
H 	H 	0.35190 0.09160 0.70720 0.05100
C 	C 	0.48000 0.03250 0.70929 -0.08500
H 	H 	0.47000 0.02830 0.72580 0.06500
C 	C 	0.56480 0.00100 0.69619 0.09200
C 	C 	0.57950 0.00710 0.67202 -0.08700
H 	H 	0.63740 0.98560 0.66310 0.06700
C 	C 	0.50930 0.04470 0.66096 -0.06800
H 	H 	0.51940 0.04890 0.64440 0.04900
C 	C 	0.42450 0.07620 0.67406 0.06600
N 	N 	0.78740 0.02110 0.88923 -0.27000
C 	C 	0.88420 0.05850 0.89560 -0.03100
H 	H 	0.98500 0.06210 0.89070 0.01700
C 	C 	0.80390 0.08970 0.91045 0.05000
N 	N 	0.65750 0.07150 0.91333 -0.11800
C 	C 	0.64730 0.02910 0.90022 0.05400
H 	H 	0.56170 0.00950 0.89900 0.01100
C 	C 	0.97650 0.15520 0.90983 -0.02200
H 	H 	0.00880 0.14570 0.89460 0.03000
C 	C 	0.04080 0.19410 0.92059 -0.11500
H 	H 	0.11690 0.21130 0.91270 0.07200
C 	C 	0.99360 0.20800 0.94284 0.10400
C 	C 	0.88220 0.18290 0.95434 -0.11600
H 	H 	0.85000 0.19240 0.96960 0.07600
C 	C 	0.81800 0.14390 0.94359 -0.00500
H 	H 	0.74180 0.12680 0.95140 0.04000
C 	C 	0.86510 0.13010 0.92133 -0.02900
C 	C 	0.24270 0.35710 0.91200 0.09300
C 	C 	0.30550 0.34250 0.93400 -0.06500
H 	H 	0.38860 0.35930 0.94010 0.05400
C 	C 	0.24960 0.30440 0.94700 -0.09700
H 	H 	0.30200 0.29290 0.96030 0.07200
C 	C 	0.12330 0.28480 0.94030 0.10700
C 	C 	0.04670 0.29930 0.92030 -0.08000
H 	H 	0.95650 0.28400 0.91610 0.07800
C 	C 	0.10070 0.33670 0.90610 -0.07300
H 	H 	0.04460 0.34790 0.89310 0.10600
C 	C 	0.99060 0.31130 0.00935 -0.06700
H 	H 	0.95750 0.34140 0.01430 0.05500
C 	C 	0.00280 0.30130 0.98546 -0.08300
H 	H 	0.97790 0.32470 0.97410 0.06300
C 	C 	0.05130 0.25730 0.97815 0.09200
C 	C 	0.08770 0.22320 0.99471 -0.08200
H 	H 	0.12090 0.19310 0.98970 0.06100
C 	C 	0.07560 0.23310 0.01859 -0.07100
H 	H 	0.10050 0.20980 0.02990 0.05500
C 	C 	0.02710 0.27720 0.02591 0.08100
C 	C 	0.08440 0.26290 0.06770 0.05600
H 	H 	0.15080 0.23710 0.06590 0.00000
N 	N 	0.99980 0.28430 0.04946 -0.12600
C 	C 	0.91530 0.32150 0.05953 0.00400
H 	H 	0.84890 0.34170 0.05130 0.03200
C 	C 	0.94770 0.32310 0.08399 -0.00400
H 	H 	0.90660 0.34450 0.09500 0.01300
N 	N 	0.05210 0.28690 0.08904 -0.27200
Cl	Cl	0.65880 0.91867 0.87187 -0.55600
Cl	Cl	0.29510 0.21359 0.12540 -0.54800
N 	N 	0.64750 0.96520 0.70800 -0.14400
N 	N 	0.34030 0.11410 0.66160 -0.15700
N 	N 	0.33130 0.17310 0.63830 -0.28200
N 	N 	0.06460 0.24920 0.95380 -0.15800
N 	N 	0.47120 0.44180 0.88259 -0.26300
C 	C 	0.32780 0.46260 0.88037 -0.00300
H 	H 	0.30620 0.49180 0.87300 0.01000
C 	C 	0.22250 0.43220 0.89120 0.00100
H 	H 	0.11800 0.43750 0.89230 0.05800
N 	N 	0.30080 0.39260 0.90011 -0.12800
C 	C 	0.45450 0.39860 0.89479 0.05900
H 	H 	0.53250 0.37730 0.89870 0.01000
Zn	Zn	0.84370 0.96895 0.87012 1.20400
Zn	Zn	0.11980 0.26979 0.12036 1.19400
C 	C 	0.67600 0.53160 0.31900 0.05200
H 	H 	0.74780 0.55610 0.31910 0.00500
N 	N 	0.61730 0.50920 0.29863 -0.12700
C 	C 	0.51360 0.47450 0.30610 0.00200
H 	H 	0.45760 0.45420 0.29620 0.02900
C 	C 	0.50830 0.47550 0.33110 -0.00100
H 	H 	0.44820 0.45600 0.34080 0.01100
N 	N 	0.60870 0.51070 0.33905 -0.27400
C 	C 	0.77740 0.56570 0.24660 -0.07000
H 	H 	0.80980 0.59600 0.24180 0.05900
C 	C 	0.72440 0.55870 0.26935 -0.07600
H 	H 	0.72060 0.58420 0.28010 0.05900
C 	C 	0.67710 0.51430 0.27636 0.09100
C 	C 	0.68270 0.47690 0.26060 -0.07700
H 	H 	0.65040 0.44650 0.26540 0.05600
C 	C 	0.73570 0.48390 0.23790 -0.07200
H 	H 	0.73960 0.45830 0.22710 0.05500
C 	C 	0.78310 0.52830 0.23089 0.08000
C 	C 	0.80230 0.73240 0.14910 0.00400
H 	H 	0.90480 0.73670 0.15280 0.04600
C 	C 	0.71180 0.76400 0.13610 0.00100
H 	H 	0.74300 0.79320 0.12960 0.01200
N 	N 	0.56630 0.74450 0.13452 -0.25900
C 	C 	0.56690 0.70080 0.14660 0.05100
H 	H 	0.48430 0.68010 0.14830 0.01300
N 	N 	0.71280 0.69330 0.15561 -0.13400
C 	C 	0.88380 0.63710 0.16667 -0.10100
H 	H 	0.95560 0.65110 0.15650 0.10500
C 	C 	0.74080 0.65590 0.16810 0.12200
C 	C 	0.63580 0.63550 0.18290 -0.10100
H 	H 	0.53810 0.64830 0.18390 0.06500
C 	C 	0.67380 0.59640 0.19635 -0.05600
H 	H 	0.60200 0.58250 0.20650 0.05700
C 	C 	0.81680 0.57770 0.19492 0.06500
C 	C 	0.92180 0.59800 0.18010 -0.04400
H 	H 	0.01960 0.58530 0.17910 0.06100
C 	C 	0.09600 0.36530 0.14610 0.13700
H 	H 	0.00300 0.37510 0.13990 -0.03200
C 	C 	0.30700 0.33110 0.14950 -0.02400
H 	H 	0.39300 0.31270 0.14660 0.02500
C 	C 	0.29300 0.36970 0.16690 0.02100
H 	H 	0.36110 0.37990 0.17860 0.02100
C 	C 	0.09020 0.42990 0.19823 -0.05600
H 	H 	0.14810 0.40840 0.20720 0.05000
C 	C 	0.02000 0.46750 0.20929 -0.08800
H 	H 	0.03000 0.47170 0.22580 0.06600
C 	C 	0.93520 0.49900 0.19619 0.09400
C 	C 	0.92050 0.49290 0.17202 -0.08900
H 	H 	0.86260 0.51440 0.16310 0.06800
C 	C 	0.99070 0.45530 0.16096 -0.06400
H 	H 	0.98060 0.45110 0.14440 0.04800
C 	C 	0.07550 0.42380 0.17406 0.06300
N 	N 	0.71260 0.47890 0.38923 -0.27000
C 	C 	0.61580 0.44150 0.39560 -0.03100
H 	H 	0.51500 0.43790 0.39070 0.01800
C 	C 	0.69610 0.41030 0.41045 0.05100
N 	N 	0.84250 0.42850 0.41333 -0.11900
C 	C 	0.85270 0.47090 0.40022 0.05400
H 	H 	0.93830 0.49050 0.39900 0.01100
C 	C 	0.52350 0.34480 0.40983 -0.01600
H 	H 	0.49120 0.35430 0.39460 0.02700
C 	C 	0.45920 0.30590 0.42059 -0.12000
H 	H 	0.38310 0.28870 0.41270 0.07400
C 	C 	0.50640 0.29200 0.44284 0.10700
C 	C 	0.61780 0.31710 0.45434 -0.11900
H 	H 	0.65000 0.30760 0.46960 0.07600
C 	C 	0.68200 0.35610 0.44359 -0.00300
H 	H 	0.75820 0.37320 0.45140 0.03900
C 	C 	0.63490 0.36990 0.42133 -0.03200
C 	C 	0.25730 0.14290 0.41200 0.09300
C 	C 	0.19450 0.15750 0.43400 -0.06500
H 	H 	0.11140 0.14070 0.44010 0.05400
C 	C 	0.25040 0.19560 0.44700 -0.09700
H 	H 	0.19800 0.20710 0.46030 0.07300
C 	C 	0.37670 0.21520 0.44030 0.10800
C 	C 	0.45330 0.20070 0.42030 -0.08100
H 	H 	0.54350 0.21600 0.41610 0.07900
C 	C 	0.39930 0.16330 0.40610 -0.07300
H 	H 	0.45540 0.15210 0.39310 0.10600
C 	C 	0.50940 0.18870 0.50935 -0.07300
H 	H 	0.54250 0.15860 0.51430 0.05700
C 	C 	0.49720 0.19870 0.48546 -0.07800
H 	H 	0.52210 0.17530 0.47410 0.06200
C 	C 	0.44870 0.24270 0.47815 0.09000
C 	C 	0.41230 0.27680 0.49471 -0.07900
H 	H 	0.37910 0.30690 0.48970 0.06000
C 	C 	0.42440 0.26690 0.51859 -0.07400
H 	H 	0.39950 0.29020 0.52990 0.05600
C 	C 	0.47290 0.22280 0.52591 0.08600
C 	C 	0.41560 0.23710 0.56770 0.05800
H 	H 	0.34920 0.26290 0.56590 -0.00000
N 	N 	0.50020 0.21570 0.54946 -0.12800
C 	C 	0.58470 0.17850 0.55953 0.00500
H 	H 	0.65110 0.15830 0.55130 0.03200
C 	C 	0.55230 0.17690 0.58399 -0.00700
H 	H 	0.59340 0.15550 0.59500 0.01300
N 	N 	0.44790 0.21310 0.58904 -0.27100
Cl	Cl	0.84120 0.58133 0.37187 -0.55600
Cl	Cl	0.20490 0.28641 0.62540 -0.54800
N 	N 	0.85250 0.53480 0.20800 -0.14400
N 	N 	0.15970 0.38590 0.16160 -0.15600
N 	N 	0.16870 0.32690 0.13830 -0.28200
N 	N 	0.43540 0.25080 0.45380 -0.15800
N 	N 	0.02880 0.05820 0.38259 -0.26300
C 	C 	0.17220 0.03740 0.38037 -0.00300
H 	H 	0.19380 0.00820 0.37300 0.01100
C 	C 	0.27750 0.06780 0.39120 0.00100
H 	H 	0.38200 0.06250 0.39230 0.05700
N 	N 	0.19920 0.10740 0.40011 -0.12800
C 	C 	0.04550 0.10140 0.39479 0.06300
H 	H 	0.96750 0.12270 0.39870 0.00700
Zn	Zn	0.65630 0.53105 0.37012 1.20400
Zn	Zn	0.38020 0.23021 0.62036 1.19500
