data_crystal

_cell_length_a 10.64660
_cell_length_b 12.05020
_cell_length_c 12.79260
_cell_angle_alpha 90.00000
_cell_angle_beta  92.32000
_cell_angle_gamma 90.00000

_symmetry_space_group_name_	'P 1'
_symmetry_space_group_name_H-M	'P 1'

loop_
_symmetry_equiv_pos_as_xyz
  x,y,z

loop_
_atom_site_label
_atom_site_type_symbol
_atom_site_fract_x
_atom_site_fract_y
_atom_site_fract_z
_atom_site_charge
Cu	Cu	0.12299 0.62973 0.49520 0.87400
N 	N 	0.13800 0.78060 0.42982 -0.19400
N 	N 	0.06800 0.87310 0.45450 -0.09700
N 	N 	0.20740 0.91920 0.34346 -0.10600
N 	N 	0.28350 0.98010 0.28005 -0.10200
N 	N 	0.43900 0.08090 0.22901 -0.09700
N 	N 	0.35390 0.06140 0.14541 -0.19700
N 	N 	0.15200 0.48119 0.56360 -0.20000
N 	N 	0.09170 0.38198 0.53656 -0.16000
N 	N 	0.23680 0.35180 0.65679 -0.10500
N 	N 	0.31380 0.29610 0.72826 -0.10800
N 	N 	0.46870 0.19990 0.79520 -0.09700
N 	N 	0.37270 0.20290 0.86475 -0.19600
C 	C 	0.22050 0.81000 0.36390 0.09800
H 	H 	0.27940 0.76330 0.33510 -0.00400
C 	C 	0.11180 0.95530 0.40200 0.09300
H 	H 	0.08240 0.02790 0.40400 0.01800
C 	C 	0.39470 0.03070 0.30910 0.09100
H 	H 	0.43250 0.02920 0.37600 0.01400
C 	C 	0.26210 0.00160 0.17750 0.09300
H 	H 	0.19300 0.97760 0.13670 -0.00300
C 	C 	0.23870 0.46100 0.63550 0.09700
H 	H 	0.29270 0.51300 0.66670 -0.00700
C 	C 	0.14560 0.30520 0.59380 0.09000
H 	H 	0.12500 0.23020 0.59190 0.01300
C 	C 	0.43000 0.25570 0.71370 0.09600
H 	H 	0.47550 0.26630 0.65400 0.00700
C 	C 	0.28050 0.26020 0.82270 0.10100
H 	H 	0.20410 0.27420 0.85290 -0.00700
Cu	Cu	0.37701 0.12973 0.00480 0.87300
N 	N 	0.36200 0.28060 0.07018 -0.19500
N 	N 	0.43200 0.37310 0.04550 -0.09800
N 	N 	0.29260 0.41920 0.15654 -0.10600
N 	N 	0.21650 0.48010 0.21995 -0.10600
N 	N 	0.06100 0.58090 0.27099 -0.09800
N 	N 	0.14610 0.56140 0.35459 -0.19800
N 	N 	0.34800 0.98119 0.93640 -0.20000
N 	N 	0.40830 0.88198 0.96344 -0.16000
N 	N 	0.26320 0.85180 0.84321 -0.10500
N 	N 	0.18620 0.79610 0.77174 -0.10800
N 	N 	0.03130 0.69990 0.70480 -0.09800
N 	N 	0.12730 0.70290 0.63525 -0.19700
C 	C 	0.27950 0.31000 0.13610 0.09800
H 	H 	0.22060 0.26330 0.16490 -0.00400
C 	C 	0.38820 0.45530 0.09800 0.08900
H 	H 	0.41760 0.52790 0.09600 0.02100
C 	C 	0.10530 0.53070 0.19090 0.09300
H 	H 	0.06750 0.52920 0.12400 0.01400
C 	C 	0.23790 0.50160 0.32250 0.10100
H 	H 	0.30700 0.47760 0.36330 -0.00800
C 	C 	0.26130 0.96100 0.86450 0.09500
H 	H 	0.20730 0.01300 0.83330 -0.00500
C 	C 	0.35440 0.80520 0.90620 0.09000
H 	H 	0.37500 0.73020 0.90810 0.01400
C 	C 	0.07000 0.75570 0.78630 0.09600
H 	H 	0.02450 0.76630 0.84600 0.00700
C 	C 	0.21950 0.76020 0.67730 0.10100
H 	H 	0.29590 0.77420 0.64710 -0.00800
Cu	Cu	0.87701 0.37027 0.50480 0.87300
N 	N 	0.86200 0.21940 0.57018 -0.19500
N 	N 	0.93200 0.12690 0.54550 -0.09800
N 	N 	0.79260 0.08080 0.65654 -0.10700
N 	N 	0.71650 0.01990 0.71995 -0.10300
N 	N 	0.56100 0.91910 0.77099 -0.09800
N 	N 	0.64610 0.93860 0.85459 -0.19700
N 	N 	0.84800 0.51881 0.43640 -0.20000
N 	N 	0.90830 0.61802 0.46344 -0.16000
N 	N 	0.76320 0.64820 0.34321 -0.10500
N 	N 	0.68620 0.70390 0.27174 -0.10800
N 	N 	0.53130 0.80010 0.20480 -0.09700
N 	N 	0.62730 0.79710 0.13525 -0.19600
C 	C 	0.77950 0.19000 0.63610 0.09800
H 	H 	0.72060 0.23670 0.66490 -0.00400
C 	C 	0.88820 0.04470 0.59800 0.09300
H 	H 	0.91760 0.97210 0.59600 0.01800
C 	C 	0.60530 0.96930 0.69090 0.09100
H 	H 	0.56750 0.97080 0.62400 0.01400
C 	C 	0.73790 0.99840 0.82250 0.09300
H 	H 	0.80700 0.02240 0.86330 -0.00300
C 	C 	0.76130 0.53900 0.36450 0.09700
H 	H 	0.70730 0.48700 0.33330 -0.00700
C 	C 	0.85440 0.69480 0.40620 0.09000
H 	H 	0.87500 0.76980 0.40810 0.01300
C 	C 	0.57000 0.74430 0.28630 0.09600
H 	H 	0.52450 0.73370 0.34600 0.00700
C 	C 	0.71950 0.73980 0.17730 0.10100
H 	H 	0.79590 0.72580 0.14710 -0.00700
Cu	Cu	0.62299 0.87027 0.99520 0.87300
N 	N 	0.63800 0.71940 0.92982 -0.19500
N 	N 	0.56800 0.62690 0.95450 -0.09800
N 	N 	0.70740 0.58080 0.84346 -0.10600
N 	N 	0.78350 0.51990 0.78005 -0.10600
N 	N 	0.93900 0.41910 0.72901 -0.09800
N 	N 	0.85390 0.43860 0.64541 -0.19800
N 	N 	0.65200 0.01881 0.06360 -0.20000
N 	N 	0.59170 0.11802 0.03656 -0.16000
N 	N 	0.73680 0.14820 0.15679 -0.10500
N 	N 	0.81380 0.20390 0.22826 -0.10800
N 	N 	0.96870 0.30010 0.29520 -0.09800
N 	N 	0.87270 0.29710 0.36475 -0.19700
C 	C 	0.72050 0.69000 0.86390 0.09800
H 	H 	0.77940 0.73670 0.83510 -0.00400
C 	C 	0.61180 0.54470 0.90200 0.08900
H 	H 	0.58240 0.47210 0.90400 0.02100
C 	C 	0.89470 0.46930 0.80910 0.09300
H 	H 	0.93250 0.47080 0.87600 0.01400
C 	C 	0.76210 0.49840 0.67750 0.10100
H 	H 	0.69300 0.52240 0.63670 -0.00800
C 	C 	0.73870 0.03900 0.13550 0.09500
H 	H 	0.79270 0.98700 0.16670 -0.00500
C 	C 	0.64560 0.19480 0.09380 0.09000
H 	H 	0.62500 0.26980 0.09190 0.01400
C 	C 	0.93000 0.24430 0.21370 0.09600
H 	H 	0.97550 0.23370 0.15400 0.00700
C 	C 	0.78050 0.23980 0.32270 0.10100
H 	H 	0.70410 0.22580 0.35290 -0.00800
