data_crystal

_cell_length_a 11.15140
_cell_length_b 11.15140
_cell_length_c 102.57800
_cell_angle_alpha 90.00000
_cell_angle_beta  90.00000
_cell_angle_gamma 120.00000

_symmetry_space_group_name_	'P 1'
_symmetry_space_group_name_H-M	'P 1'

loop_
_symmetry_equiv_pos_as_xyz
  x,y,z

loop_
_atom_site_label
_atom_site_type_symbol
_atom_site_fract_x
_atom_site_fract_y
_atom_site_fract_z
_atom_site_charge
N 	N 	0.13890 0.20130 0.01193 -0.20800
N 	N 	0.09360 0.28090 0.01832 -0.11300
N 	N 	0.29520 0.32990 0.02566 -0.10500
N 	N 	0.41490 0.38600 0.03306 -0.10700
N 	N 	0.63120 0.50700 0.03852 -0.10100
N 	N 	0.55640 0.41260 0.04843 -0.19700
N 	N 	0.65440 0.49580 0.07670 -0.20600
N 	N 	0.61540 0.96740 0.08784 -0.07700
C 	C 	0.25840 0.23150 0.01638 0.09200
H 	H 	0.31080 0.19220 0.01370 -0.00200
C 	C 	0.18990 0.35710 0.02648 0.09000
H 	H 	0.18740 0.42130 0.03210 0.01100
C 	C 	0.54260 0.48780 0.02952 0.09700
H 	H 	0.56340 0.53680 0.02170 0.02000
C 	C 	0.42890 0.34220 0.04487 0.10400
H 	H 	0.35770 0.27210 0.04970 -0.01000
C 	C 	0.64600 0.60240 0.07285 0.10000
H 	H 	0.62870 0.61920 0.06440 0.00400
C 	C 	0.58320 0.84060 0.09020 0.09900
H 	H 	0.51320 0.78060 0.09580 0.01500
N 	N 	0.80557 0.53463 0.34526 -0.19900
N 	N 	0.76027 0.61423 0.35165 -0.10100
N 	N 	0.96187 0.66323 0.35899 -0.08700
N 	N 	0.08157 0.71933 0.36639 -0.12300
N 	N 	0.29787 0.84033 0.37185 -0.09800
N 	N 	0.22307 0.74593 0.38176 -0.19800
N 	N 	0.32107 0.82913 0.41003 -0.21100
N 	N 	0.28207 0.30073 0.42117 -0.10300
C 	C 	0.92507 0.56483 0.34971 0.10000
H 	H 	0.97747 0.52553 0.34703 0.01400
C 	C 	0.85657 0.69043 0.35981 0.09900
H 	H 	0.85407 0.75463 0.36543 0.02700
C 	C 	0.20927 0.82113 0.36285 0.09700
H 	H 	0.23007 0.87013 0.35503 0.02200
C 	C 	0.09557 0.67553 0.37820 0.10300
H 	H 	0.02437 0.60543 0.38303 -0.01800
C 	C 	0.31267 0.93573 0.40618 0.12800
H 	H 	0.29537 0.95253 0.39773 -0.00300
C 	C 	0.24987 0.17393 0.42353 0.08800
H 	H 	0.17987 0.11393 0.42913 -0.00100
N 	N 	0.47223 0.86797 0.67860 -0.19800
N 	N 	0.42693 0.94757 0.68499 -0.06500
N 	N 	0.62853 0.99657 0.69233 -0.06100
N 	N 	0.74823 0.05267 0.69973 -0.11100
N 	N 	0.96453 0.17367 0.70519 -0.09300
N 	N 	0.88973 0.07927 0.71510 -0.18200
N 	N 	0.98773 0.16247 0.74337 -0.19400
N 	N 	0.94873 0.63407 0.75451 -0.08700
C 	C 	0.59173 0.89817 0.68305 0.10200
H 	H 	0.64413 0.85887 0.68037 0.00900
C 	C 	0.52323 0.02377 0.69315 0.00100
H 	H 	0.52073 0.08797 0.69877 0.04200
C 	C 	0.87593 0.15447 0.69619 0.09600
H 	H 	0.89673 0.20347 0.68837 0.02300
C 	C 	0.76223 0.00887 0.71154 0.02400
H 	H 	0.69103 0.93877 0.71637 0.04900
C 	C 	0.97933 0.26907 0.73952 0.14500
H 	H 	0.96203 0.28587 0.73107 -0.00400
C 	C 	0.91653 0.50727 0.75687 0.14100
H 	H 	0.84653 0.44727 0.76247 0.00400
N 	N 	0.79870 0.93760 0.01193 -0.16500
N 	N 	0.71910 0.81270 0.01832 -0.10000
N 	N 	0.67010 0.96530 0.02566 -0.06900
N 	N 	0.61400 0.02890 0.03306 -0.12100
N 	N 	0.49300 0.12420 0.03852 -0.10700
N 	N 	0.58740 0.14380 0.04843 -0.19900
N 	N 	0.50420 0.15860 0.07670 -0.20300
N 	N 	0.03260 0.64800 0.08784 -0.11700
C 	C 	0.76850 0.02690 0.01638 0.02600
H 	H 	0.80780 0.11860 0.01370 0.02800
C 	C 	0.64290 0.83280 0.02648 0.09900
H 	H 	0.57870 0.76610 0.03210 0.02000
C 	C 	0.51220 0.05480 0.02952 0.09300
H 	H 	0.46320 0.02660 0.02170 0.00800
C 	C 	0.65780 0.08670 0.04487 0.10100
H 	H 	0.72790 0.08560 0.04970 -0.00900
C 	C 	0.39760 0.04360 0.07285 0.05700
H 	H 	0.38080 0.00950 0.06440 0.00300
C 	C 	0.15940 0.74260 0.09020 0.09500
H 	H 	0.21940 0.73260 0.09580 0.01300
N 	N 	0.46537 0.27093 0.34526 -0.20200
N 	N 	0.38577 0.14603 0.35165 -0.11000
N 	N 	0.33677 0.29863 0.35899 -0.10700
N 	N 	0.28067 0.36223 0.36639 -0.10900
N 	N 	0.15967 0.45753 0.37185 -0.10900
N 	N 	0.25407 0.47713 0.38176 -0.19900
N 	N 	0.17087 0.49193 0.41003 -0.20300
N 	N 	0.69927 0.98133 0.42117 -0.07300
C 	C 	0.43517 0.36023 0.34971 0.09300
H 	H 	0.47447 0.45193 0.34703 0.00300
C 	C 	0.30957 0.16613 0.35981 0.08900
H 	H 	0.24537 0.09943 0.36543 0.00400
C 	C 	0.17887 0.38813 0.36285 0.09200
H 	H 	0.12987 0.35993 0.35503 0.00700
C 	C 	0.32447 0.42003 0.37820 0.10100
H 	H 	0.39457 0.41893 0.38303 -0.00500
C 	C 	0.06427 0.37693 0.40618 0.05600
H 	H 	0.04747 0.34283 0.39773 0.00300
C 	C 	0.82607 0.07593 0.42353 0.06600
H 	H 	0.88607 0.06593 0.42913 0.02400
N 	N 	0.13203 0.60427 0.67860 -0.20200
N 	N 	0.05243 0.47937 0.68499 -0.13700
N 	N 	0.00343 0.63197 0.69233 -0.14100
N 	N 	0.94733 0.69557 0.69973 -0.10200
N 	N 	0.82633 0.79087 0.70519 -0.09400
N 	N 	0.92073 0.81047 0.71510 -0.19300
N 	N 	0.83753 0.82527 0.74337 -0.18900
N 	N 	0.36593 0.31467 0.75451 -0.10400
C 	C 	0.10183 0.69357 0.68305 0.09200
H 	H 	0.14113 0.78527 0.68037 0.00500
C 	C 	0.97623 0.49947 0.69315 0.17300
H 	H 	0.91203 0.43277 0.69877 -0.00400
C 	C 	0.84553 0.72147 0.69619 0.10200
H 	H 	0.79653 0.69327 0.68837 0.02400
C 	C 	0.99113 0.75337 0.71154 0.18300
H 	H 	0.06123 0.75227 0.71637 -0.04700
C 	C 	0.73093 0.71027 0.73952 0.10100
H 	H 	0.71413 0.67617 0.73107 0.00500
C 	C 	0.49273 0.40927 0.75687 0.09400
H 	H 	0.55273 0.39927 0.76247 0.01200
N 	N 	0.06240 0.86110 0.01193 -0.22000
N 	N 	0.18730 0.90640 0.01832 -0.09400
N 	N 	0.03470 0.70480 0.02566 -0.13700
N 	N 	0.97110 0.58510 0.03306 -0.09300
N 	N 	0.87580 0.36880 0.03852 -0.10000
N 	N 	0.85620 0.44360 0.04843 -0.19600
N 	N 	0.84140 0.34560 0.07670 -0.21000
N 	N 	0.35200 0.38460 0.08784 -0.10100
C 	C 	0.97310 0.74160 0.01638 0.16400
H 	H 	0.88140 0.68920 0.01370 -0.01500
C 	C 	0.16720 0.81010 0.02648 0.09300
H 	H 	0.23390 0.81260 0.03210 0.02100
C 	C 	0.94520 0.45740 0.02952 0.09900
H 	H 	0.97340 0.43660 0.02170 0.02800
C 	C 	0.91330 0.57110 0.04487 0.10700
H 	H 	0.91440 0.64230 0.04970 0.00300
C 	C 	0.95640 0.35400 0.07285 0.12900
H 	H 	0.99050 0.37130 0.06440 0.00000
C 	C 	0.25740 0.41680 0.09020 0.08900
H 	H 	0.26740 0.48680 0.09580 0.01100
N 	N 	0.72907 0.19443 0.34526 -0.20100
N 	N 	0.85397 0.23973 0.35165 -0.09600
N 	N 	0.70137 0.03813 0.35899 -0.11700
N 	N 	0.63777 0.91843 0.36639 -0.09300
N 	N 	0.54247 0.70213 0.37185 -0.10200
N 	N 	0.52287 0.77693 0.38176 -0.19600
N 	N 	0.50807 0.67893 0.41003 -0.20600
N 	N 	0.01867 0.71793 0.42117 -0.13300
C 	C 	0.63977 0.07493 0.34971 0.09400
H 	H 	0.54807 0.02253 0.34703 -0.00700
C 	C 	0.83387 0.14343 0.35981 0.09400
H 	H 	0.90057 0.14593 0.36543 0.02300
C 	C 	0.61187 0.79073 0.36285 0.09900
H 	H 	0.64007 0.76993 0.35503 0.02400
C 	C 	0.57997 0.90443 0.37820 0.10700
H 	H 	0.58107 0.97563 0.38303 0.00500
C 	C 	0.62307 0.68733 0.40618 0.10100
H 	H 	0.65717 0.70463 0.39773 0.00600
C 	C 	0.92407 0.75013 0.42353 0.13800
H 	H 	0.93407 0.82013 0.42913 0.01400
N 	N 	0.39573 0.52777 0.67860 -0.20100
N 	N 	0.52063 0.57307 0.68499 -0.10200
N 	N 	0.36803 0.37147 0.69233 -0.10700
N 	N 	0.30443 0.25177 0.69973 -0.10800
N 	N 	0.20913 0.03547 0.70519 -0.12100
N 	N 	0.18953 0.11027 0.71510 -0.20800
N 	N 	0.17473 0.01227 0.74337 -0.23100
N 	N 	0.68533 0.05127 0.75451 -0.11300
C 	C 	0.30643 0.40827 0.68305 0.09400
H 	H 	0.21473 0.35587 0.68037 -0.00500
C 	C 	0.50053 0.47677 0.69315 0.09400
H 	H 	0.56723 0.47927 0.69877 0.01700
C 	C 	0.27853 0.12407 0.69619 0.09100
H 	H 	0.30673 0.10327 0.68837 0.00700
C 	C 	0.24663 0.23777 0.71154 0.09800
H 	H 	0.24773 0.30897 0.71637 -0.01000
C 	C 	0.28973 0.02067 0.73952 0.08800
H 	H 	0.32383 0.03797 0.73107 -0.00400
C 	C 	0.59073 0.08347 0.75687 0.08600
H 	H 	0.60073 0.15347 0.76247 0.01300
N 	N 	0.20130 0.13890 0.48807 -0.20900
N 	N 	0.28090 0.09360 0.48168 -0.11400
N 	N 	0.32990 0.29520 0.47434 -0.10600
N 	N 	0.38600 0.41490 0.46694 -0.10800
N 	N 	0.50700 0.63120 0.46148 -0.10100
N 	N 	0.41260 0.55640 0.45157 -0.19700
N 	N 	0.49580 0.65440 0.42330 -0.20600
N 	N 	0.96740 0.61540 0.41216 -0.07700
C 	C 	0.23150 0.25840 0.48362 0.09200
H 	H 	0.19220 0.31080 0.48630 -0.00200
C 	C 	0.35710 0.18990 0.47352 0.09000
H 	H 	0.42130 0.18740 0.46790 0.01100
C 	C 	0.48780 0.54260 0.47048 0.09700
H 	H 	0.53680 0.56340 0.47830 0.02000
C 	C 	0.34220 0.42890 0.45513 0.10400
H 	H 	0.27210 0.35770 0.45030 -0.01000
C 	C 	0.60240 0.64600 0.42715 0.10000
H 	H 	0.61920 0.62870 0.43560 0.00400
C 	C 	0.84060 0.58320 0.40980 0.09900
H 	H 	0.78060 0.51320 0.40420 0.01500
N 	N 	0.86797 0.47223 0.82140 -0.19800
N 	N 	0.94757 0.42693 0.81501 -0.06500
N 	N 	0.99657 0.62853 0.80767 -0.06100
N 	N 	0.05267 0.74823 0.80027 -0.11100
N 	N 	0.17367 0.96453 0.79481 -0.09300
N 	N 	0.07927 0.88973 0.78490 -0.18200
N 	N 	0.16247 0.98773 0.75663 -0.19400
N 	N 	0.63407 0.94873 0.74549 -0.08700
C 	C 	0.89817 0.59173 0.81695 0.10200
H 	H 	0.85887 0.64413 0.81963 0.00900
C 	C 	0.02377 0.52323 0.80685 0.00100
H 	H 	0.08797 0.52073 0.80123 0.04200
C 	C 	0.15447 0.87593 0.80381 0.09600
H 	H 	0.20347 0.89673 0.81163 0.02300
C 	C 	0.00887 0.76223 0.78846 0.02400
H 	H 	0.93877 0.69103 0.78363 0.04900
C 	C 	0.26907 0.97933 0.76048 0.14500
H 	H 	0.28587 0.96203 0.76893 -0.00400
C 	C 	0.50727 0.91653 0.74313 0.14100
H 	H 	0.44727 0.84653 0.73753 0.00400
N 	N 	0.53463 0.80557 0.15474 -0.19900
N 	N 	0.61423 0.76027 0.14835 -0.10100
N 	N 	0.66323 0.96187 0.14101 -0.08700
N 	N 	0.71933 0.08157 0.13361 -0.12300
N 	N 	0.84033 0.29787 0.12815 -0.09800
N 	N 	0.74593 0.22307 0.11824 -0.19800
N 	N 	0.82913 0.32107 0.08997 -0.21100
N 	N 	0.30073 0.28207 0.07883 -0.10300
C 	C 	0.56483 0.92507 0.15029 0.10000
H 	H 	0.52553 0.97747 0.15297 0.01400
C 	C 	0.69043 0.85657 0.14019 0.09900
H 	H 	0.75463 0.85407 0.13457 0.02700
C 	C 	0.82113 0.20927 0.13715 0.09700
H 	H 	0.87013 0.23007 0.14497 0.02200
C 	C 	0.67553 0.09557 0.12180 0.10300
H 	H 	0.60543 0.02437 0.11697 -0.01800
C 	C 	0.93573 0.31267 0.09382 0.12800
H 	H 	0.95253 0.29537 0.10227 -0.00300
C 	C 	0.17393 0.24987 0.07647 0.08800
H 	H 	0.11393 0.17987 0.07087 -0.00100
N 	N 	0.93760 0.79870 0.48807 -0.16500
N 	N 	0.81270 0.71910 0.48168 -0.10000
N 	N 	0.96530 0.67010 0.47434 -0.06900
N 	N 	0.02890 0.61400 0.46694 -0.12100
N 	N 	0.12420 0.49300 0.46148 -0.10700
N 	N 	0.14380 0.58740 0.45157 -0.19900
N 	N 	0.15860 0.50420 0.42330 -0.20300
N 	N 	0.64800 0.03260 0.41216 -0.11700
C 	C 	0.02690 0.76850 0.48362 0.02600
H 	H 	0.11860 0.80780 0.48630 0.02800
C 	C 	0.83280 0.64290 0.47352 0.09900
H 	H 	0.76610 0.57870 0.46790 0.02000
C 	C 	0.05480 0.51220 0.47048 0.09300
H 	H 	0.02660 0.46320 0.47830 0.00800
C 	C 	0.08670 0.65780 0.45513 0.10100
H 	H 	0.08560 0.72790 0.45030 -0.00900
C 	C 	0.04360 0.39760 0.42715 0.05700
H 	H 	0.00950 0.38080 0.43560 0.00300
C 	C 	0.74260 0.15940 0.40980 0.09500
H 	H 	0.73260 0.21940 0.40420 0.01300
N 	N 	0.60427 0.13203 0.82140 -0.20200
N 	N 	0.47937 0.05243 0.81501 -0.13700
N 	N 	0.63197 0.00343 0.80767 -0.14100
N 	N 	0.69557 0.94733 0.80027 -0.10200
N 	N 	0.79087 0.82633 0.79481 -0.09400
N 	N 	0.81047 0.92073 0.78490 -0.19300
N 	N 	0.82527 0.83753 0.75663 -0.18900
N 	N 	0.31467 0.36593 0.74549 -0.10400
C 	C 	0.69357 0.10183 0.81695 0.09200
H 	H 	0.78527 0.14113 0.81963 0.00500
C 	C 	0.49947 0.97623 0.80685 0.17300
H 	H 	0.43277 0.91203 0.80123 -0.00400
C 	C 	0.72147 0.84553 0.80381 0.10200
H 	H 	0.69327 0.79653 0.81163 0.02400
C 	C 	0.75337 0.99113 0.78846 0.18300
H 	H 	0.75227 0.06123 0.78363 -0.04700
C 	C 	0.71027 0.73093 0.76048 0.10100
H 	H 	0.67617 0.71413 0.76893 0.00500
C 	C 	0.40927 0.49273 0.74313 0.09400
H 	H 	0.39927 0.55273 0.73753 0.01200
N 	N 	0.27093 0.46537 0.15474 -0.20200
N 	N 	0.14603 0.38577 0.14835 -0.11000
N 	N 	0.29863 0.33677 0.14101 -0.10700
N 	N 	0.36223 0.28067 0.13361 -0.10900
N 	N 	0.45753 0.15967 0.12815 -0.10900
N 	N 	0.47713 0.25407 0.11824 -0.19900
N 	N 	0.49193 0.17087 0.08997 -0.20300
N 	N 	0.98133 0.69927 0.07883 -0.07300
C 	C 	0.36023 0.43517 0.15029 0.09300
H 	H 	0.45193 0.47447 0.15297 0.00300
C 	C 	0.16613 0.30957 0.14019 0.08900
H 	H 	0.09943 0.24537 0.13457 0.00400
C 	C 	0.38813 0.17887 0.13715 0.09200
H 	H 	0.35993 0.12987 0.14497 0.00700
C 	C 	0.42003 0.32447 0.12180 0.10100
H 	H 	0.41893 0.39457 0.11697 -0.00500
C 	C 	0.37693 0.06427 0.09382 0.05600
H 	H 	0.34283 0.04747 0.10227 0.00300
C 	C 	0.07593 0.82607 0.07647 0.06600
H 	H 	0.06593 0.88607 0.07087 0.02400
N 	N 	0.86110 0.06240 0.48807 -0.22000
N 	N 	0.90640 0.18730 0.48168 -0.09400
N 	N 	0.70480 0.03470 0.47434 -0.13700
N 	N 	0.58510 0.97110 0.46694 -0.09300
N 	N 	0.36880 0.87580 0.46148 -0.10000
N 	N 	0.44360 0.85620 0.45157 -0.19600
N 	N 	0.34560 0.84140 0.42330 -0.21000
N 	N 	0.38460 0.35200 0.41216 -0.10100
C 	C 	0.74160 0.97310 0.48362 0.16400
H 	H 	0.68920 0.88140 0.48630 -0.01500
C 	C 	0.81010 0.16720 0.47352 0.09300
H 	H 	0.81260 0.23390 0.46790 0.02100
C 	C 	0.45740 0.94520 0.47048 0.09900
H 	H 	0.43660 0.97340 0.47830 0.02800
C 	C 	0.57110 0.91330 0.45513 0.10700
H 	H 	0.64230 0.91440 0.45030 0.00300
C 	C 	0.35400 0.95640 0.42715 0.12900
H 	H 	0.37130 0.99050 0.43560 0.00000
C 	C 	0.41680 0.25740 0.40980 0.08900
H 	H 	0.48680 0.26740 0.40420 0.01100
N 	N 	0.52777 0.39573 0.82140 -0.20100
N 	N 	0.57307 0.52063 0.81501 -0.10200
N 	N 	0.37147 0.36803 0.80767 -0.10700
N 	N 	0.25177 0.30443 0.80027 -0.10800
N 	N 	0.03547 0.20913 0.79481 -0.12100
N 	N 	0.11027 0.18953 0.78490 -0.20800
N 	N 	0.01227 0.17473 0.75663 -0.23100
N 	N 	0.05127 0.68533 0.74549 -0.11300
C 	C 	0.40827 0.30643 0.81695 0.09400
H 	H 	0.35587 0.21473 0.81963 -0.00500
C 	C 	0.47677 0.50053 0.80685 0.09400
H 	H 	0.47927 0.56723 0.80123 0.01700
C 	C 	0.12407 0.27853 0.80381 0.09100
H 	H 	0.10327 0.30673 0.81163 0.00700
C 	C 	0.23777 0.24663 0.78846 0.09800
H 	H 	0.30897 0.24773 0.78363 -0.01000
C 	C 	0.02067 0.28973 0.76048 0.08800
H 	H 	0.03797 0.32383 0.76893 -0.00400
C 	C 	0.08347 0.59073 0.74313 0.08600
H 	H 	0.15347 0.60073 0.73753 0.01300
N 	N 	0.19443 0.72907 0.15474 -0.20100
N 	N 	0.23973 0.85397 0.14835 -0.09600
N 	N 	0.03813 0.70137 0.14101 -0.11700
N 	N 	0.91843 0.63777 0.13361 -0.09300
N 	N 	0.70213 0.54247 0.12815 -0.10200
N 	N 	0.77693 0.52287 0.11824 -0.19600
N 	N 	0.67893 0.50807 0.08997 -0.20600
N 	N 	0.71793 0.01867 0.07883 -0.13300
C 	C 	0.07493 0.63977 0.15029 0.09400
H 	H 	0.02253 0.54807 0.15297 -0.00700
C 	C 	0.14343 0.83387 0.14019 0.09400
H 	H 	0.14593 0.90057 0.13457 0.02300
C 	C 	0.79073 0.61187 0.13715 0.09900
H 	H 	0.76993 0.64007 0.14497 0.02400
C 	C 	0.90443 0.57997 0.12180 0.10700
H 	H 	0.97563 0.58107 0.11697 0.00500
C 	C 	0.68733 0.62307 0.09382 0.10100
H 	H 	0.70463 0.65717 0.10227 0.00600
C 	C 	0.75013 0.92407 0.07647 0.13800
H 	H 	0.82013 0.93407 0.07087 0.01400
N 	N 	0.86110 0.79870 0.98807 -0.18900
N 	N 	0.90640 0.71910 0.98168 -0.09200
N 	N 	0.70480 0.67010 0.97434 -0.10400
N 	N 	0.58510 0.61400 0.96694 -0.10600
N 	N 	0.36880 0.49300 0.96148 -0.10400
N 	N 	0.44360 0.58740 0.95157 -0.19700
N 	N 	0.34560 0.50420 0.92330 -0.20700
N 	N 	0.38460 0.03260 0.91216 -0.11900
C 	C 	0.74160 0.76850 0.98362 0.09900
H 	H 	0.68920 0.80780 0.98630 0.00800
C 	C 	0.81010 0.64290 0.97352 0.09800
H 	H 	0.81260 0.57870 0.96790 0.02400
C 	C 	0.45740 0.51220 0.97048 0.09600
H 	H 	0.43660 0.46320 0.97830 0.01800
C 	C 	0.57110 0.65780 0.95513 0.10500
H 	H 	0.64230 0.72790 0.95030 -0.00100
C 	C 	0.35400 0.39760 0.92715 0.09700
H 	H 	0.37130 0.38080 0.93560 0.00000
C 	C 	0.41680 0.15940 0.90980 0.08900
H 	H 	0.48680 0.21940 0.90420 0.01100
N 	N 	0.52777 0.13203 0.32140 -0.20300
N 	N 	0.57307 0.05243 0.31501 -0.13500
N 	N 	0.37147 0.00343 0.30767 -0.14400
N 	N 	0.25177 0.94733 0.30027 -0.10400
N 	N 	0.03547 0.82633 0.29481 -0.11200
N 	N 	0.11027 0.92073 0.28490 -0.20600
N 	N 	0.01227 0.83753 0.25663 -0.21500
N 	N 	0.05127 0.36593 0.24549 -0.11900
C 	C 	0.40827 0.10183 0.31695 0.09000
H 	H 	0.35587 0.14113 0.31963 -0.00400
C 	C 	0.47677 0.97623 0.30685 0.17400
H 	H 	0.47927 0.91203 0.30123 -0.00400
C 	C 	0.12407 0.84553 0.30381 0.09700
H 	H 	0.10327 0.79653 0.31163 0.01300
C 	C 	0.23777 0.99113 0.28846 0.18400
H 	H 	0.30897 0.06123 0.28363 -0.05700
C 	C 	0.02067 0.73093 0.26048 0.09100
H 	H 	0.03797 0.71413 0.26893 -0.00200
C 	C 	0.08347 0.49273 0.24313 0.08600
H 	H 	0.15347 0.55273 0.23753 0.01100
N 	N 	0.19443 0.46537 0.65474 -0.20200
N 	N 	0.23973 0.38577 0.64835 -0.10500
N 	N 	0.03813 0.33677 0.64101 -0.12000
N 	N 	0.91843 0.28067 0.63361 -0.09400
N 	N 	0.70213 0.15967 0.62815 -0.10900
N 	N 	0.77693 0.25407 0.61824 -0.19700
N 	N 	0.67893 0.17087 0.58997 -0.20200
N 	N 	0.71793 0.69927 0.57883 -0.09800
C 	C 	0.07493 0.43517 0.65029 0.09100
H 	H 	0.02253 0.47447 0.65297 -0.00700
C 	C 	0.14343 0.30957 0.64019 0.08900
H 	H 	0.14593 0.24537 0.63457 0.00700
C 	C 	0.79073 0.17887 0.63715 0.09500
H 	H 	0.76993 0.12987 0.64497 0.01300
C 	C 	0.90443 0.32447 0.62180 0.10400
H 	H 	0.97563 0.39457 0.61697 0.00500
C 	C 	0.68733 0.06427 0.59382 0.06100
H 	H 	0.70463 0.04747 0.60227 0.00600
C 	C 	0.75013 0.82607 0.57647 0.10000
H 	H 	0.82013 0.88607 0.57087 0.02600
N 	N 	0.20130 0.06240 0.98807 -0.23400
N 	N 	0.28090 0.18730 0.98168 -0.10600
N 	N 	0.32990 0.03470 0.97434 -0.14100
N 	N 	0.38600 0.97110 0.96694 -0.09300
N 	N 	0.50700 0.87580 0.96148 -0.09900
N 	N 	0.41260 0.85620 0.95157 -0.19600
N 	N 	0.49580 0.84140 0.92330 -0.20900
N 	N 	0.96740 0.35200 0.91216 -0.07600
C 	C 	0.23150 0.97310 0.98362 0.16700
H 	H 	0.19220 0.88140 0.98630 -0.02200
C 	C 	0.35710 0.16720 0.97352 0.08900
H 	H 	0.42130 0.23390 0.96790 0.01500
C 	C 	0.48780 0.94520 0.97048 0.09900
H 	H 	0.53680 0.97340 0.97830 0.02900
C 	C 	0.34220 0.91330 0.95513 0.10600
H 	H 	0.27210 0.91440 0.95030 -0.00200
C 	C 	0.60240 0.95640 0.92715 0.12900
H 	H 	0.61920 0.99050 0.93560 0.00200
C 	C 	0.84060 0.25740 0.90980 0.09500
H 	H 	0.78060 0.26740 0.90420 0.01400
N 	N 	0.86797 0.39573 0.32140 -0.19900
N 	N 	0.94757 0.52063 0.31501 -0.06400
N 	N 	0.99657 0.36803 0.30767 -0.06100
N 	N 	0.05267 0.30443 0.30027 -0.11200
N 	N 	0.17367 0.20913 0.29481 -0.11100
N 	N 	0.07927 0.18953 0.28490 -0.19400
N 	N 	0.16247 0.17473 0.25663 -0.21700
N 	N 	0.63407 0.68533 0.24549 -0.09500
C 	C 	0.89817 0.30643 0.31695 0.10100
H 	H 	0.85887 0.21473 0.31963 0.00300
C 	C 	0.02377 0.50053 0.30685 -0.00000
H 	H 	0.08797 0.56723 0.30123 0.04300
C 	C 	0.15447 0.27853 0.30381 0.09000
H 	H 	0.20347 0.30673 0.31163 0.01200
C 	C 	0.00887 0.24663 0.28846 0.01300
H 	H 	0.93877 0.24773 0.28363 0.04800
C 	C 	0.26907 0.28973 0.26048 0.09600
H 	H 	0.28587 0.32383 0.26893 0.00000
C 	C 	0.50727 0.59073 0.24313 0.09500
H 	H 	0.44727 0.60073 0.23753 0.01400
N 	N 	0.53463 0.72907 0.65474 -0.20000
N 	N 	0.61423 0.85397 0.64835 -0.09500
N 	N 	0.66323 0.70137 0.64101 -0.10300
N 	N 	0.71933 0.63777 0.63361 -0.10500
N 	N 	0.84033 0.54247 0.62815 -0.09800
N 	N 	0.74593 0.52287 0.61824 -0.19600
N 	N 	0.82913 0.50807 0.58997 -0.20900
N 	N 	0.30073 0.01867 0.57883 -0.13800
C 	C 	0.56483 0.63977 0.65029 0.09800
H 	H 	0.52553 0.54807 0.65297 0.00200
C 	C 	0.69043 0.83387 0.64019 0.09800
H 	H 	0.75463 0.90057 0.63457 0.03100
C 	C 	0.82113 0.61187 0.63715 0.10000
H 	H 	0.87013 0.64007 0.64497 0.02800
C 	C 	0.67553 0.57997 0.62180 0.10700
H 	H 	0.60543 0.58107 0.61697 -0.00500
C 	C 	0.93573 0.62307 0.59382 0.12900
H 	H 	0.95253 0.65717 0.60227 0.00200
C 	C 	0.17393 0.92407 0.57647 0.13700
H 	H 	0.11393 0.93407 0.57087 0.00200
N 	N 	0.93760 0.13890 0.98807 -0.17100
N 	N 	0.81270 0.09360 0.98168 -0.11000
N 	N 	0.96530 0.29520 0.97434 -0.06700
N 	N 	0.02890 0.41490 0.96694 -0.12300
N 	N 	0.12420 0.63120 0.96148 -0.10600
N 	N 	0.14380 0.55640 0.95157 -0.19900
N 	N 	0.15860 0.65440 0.92330 -0.20300
N 	N 	0.64800 0.61540 0.91216 -0.10000
C 	C 	0.02690 0.25840 0.98362 0.01600
H 	H 	0.11860 0.31080 0.98630 0.02500
C 	C 	0.83280 0.18990 0.97352 0.09600
H 	H 	0.76610 0.18740 0.96790 0.01400
C 	C 	0.05480 0.54260 0.97048 0.09300
H 	H 	0.02660 0.56340 0.97830 0.00900
C 	C 	0.08670 0.42890 0.95513 0.10100
H 	H 	0.08560 0.35770 0.95030 -0.01500
C 	C 	0.04360 0.64600 0.92715 0.06000
H 	H 	0.00950 0.62870 0.93560 0.00500
C 	C 	0.74260 0.58320 0.90980 0.09900
H 	H 	0.73260 0.51320 0.90420 0.01500
N 	N 	0.60427 0.47223 0.32140 -0.20000
N 	N 	0.47937 0.42693 0.31501 -0.10400
N 	N 	0.63197 0.62853 0.30767 -0.10300
N 	N 	0.69557 0.74823 0.30027 -0.10500
N 	N 	0.79087 0.96453 0.29481 -0.08500
N 	N 	0.81047 0.88973 0.28490 -0.18200
N 	N 	0.82527 0.98773 0.25663 -0.18300
N 	N 	0.31467 0.94873 0.24549 -0.09000
C 	C 	0.69357 0.59173 0.31695 0.09700
H 	H 	0.78527 0.64413 0.31963 0.01000
C 	C 	0.49947 0.52323 0.30685 0.09400
H 	H 	0.43277 0.52073 0.30123 0.01700
C 	C 	0.72147 0.87593 0.30381 0.10200
H 	H 	0.69327 0.89673 0.31163 0.02800
C 	C 	0.75337 0.76223 0.28846 0.11000
H 	H 	0.75227 0.69103 0.28363 0.00100
C 	C 	0.71027 0.97933 0.26048 0.14400
H 	H 	0.67617 0.96203 0.26893 -0.00100
C 	C 	0.40927 0.91653 0.24313 0.14000
H 	H 	0.39927 0.84653 0.23753 0.00300
N 	N 	0.27093 0.80557 0.65474 -0.20000
N 	N 	0.14603 0.76027 0.64835 -0.10700
N 	N 	0.29863 0.96187 0.64101 -0.08700
N 	N 	0.36223 0.08157 0.63361 -0.12500
N 	N 	0.45753 0.29787 0.62815 -0.10400
N 	N 	0.47713 0.22307 0.61824 -0.19900
N 	N 	0.49193 0.32107 0.58997 -0.20800
N 	N 	0.98133 0.28207 0.57883 -0.07300
C 	C 	0.36023 0.92507 0.65029 0.09900
H 	H 	0.45193 0.97747 0.65297 0.01500
C 	C 	0.16613 0.85657 0.64019 0.09600
H 	H 	0.09943 0.85407 0.63457 0.01600
C 	C 	0.38813 0.20927 0.63715 0.09300
H 	H 	0.35993 0.23007 0.64497 0.01200
C 	C 	0.42003 0.09557 0.62180 0.10000
H 	H 	0.41893 0.02437 0.61697 -0.01900
C 	C 	0.37693 0.31267 0.59382 0.09500
H 	H 	0.34283 0.29537 0.60227 -0.00200
C 	C 	0.07593 0.24987 0.57647 0.05600
H 	H 	0.06593 0.17987 0.57087 0.00900
N 	N 	0.79870 0.86110 0.51193 -0.18900
N 	N 	0.71910 0.90640 0.51832 -0.09200
N 	N 	0.67010 0.70480 0.52566 -0.10400
N 	N 	0.61400 0.58510 0.53306 -0.10600
N 	N 	0.49300 0.36880 0.53852 -0.10400
N 	N 	0.58740 0.44360 0.54843 -0.19700
N 	N 	0.50420 0.34560 0.57670 -0.20700
N 	N 	0.03260 0.38460 0.58784 -0.11900
C 	C 	0.76850 0.74160 0.51638 0.09900
H 	H 	0.80780 0.68920 0.51370 0.00800
C 	C 	0.64290 0.81010 0.52648 0.09800
H 	H 	0.57870 0.81260 0.53210 0.02400
C 	C 	0.51220 0.45740 0.52952 0.09600
H 	H 	0.46320 0.43660 0.52170 0.01800
C 	C 	0.65780 0.57110 0.54487 0.10500
H 	H 	0.72790 0.64230 0.54970 -0.00100
C 	C 	0.39760 0.35400 0.57285 0.09700
H 	H 	0.38080 0.37130 0.56440 0.00000
C 	C 	0.15940 0.41680 0.59020 0.08900
H 	H 	0.21940 0.48680 0.59580 0.01100
N 	N 	0.46537 0.19443 0.84526 -0.20200
N 	N 	0.38577 0.23973 0.85165 -0.10500
N 	N 	0.33677 0.03813 0.85899 -0.12000
N 	N 	0.28067 0.91843 0.86639 -0.09400
N 	N 	0.15967 0.70213 0.87185 -0.10900
N 	N 	0.25407 0.77693 0.88176 -0.19700
N 	N 	0.17087 0.67893 0.91003 -0.20200
N 	N 	0.69927 0.71793 0.92117 -0.09800
C 	C 	0.43517 0.07493 0.84971 0.09100
H 	H 	0.47447 0.02253 0.84703 -0.00700
C 	C 	0.30957 0.14343 0.85981 0.08900
H 	H 	0.24537 0.14593 0.86543 0.00700
C 	C 	0.17887 0.79073 0.86285 0.09500
H 	H 	0.12987 0.76993 0.85503 0.01300
C 	C 	0.32447 0.90443 0.87820 0.10400
H 	H 	0.39457 0.97563 0.88303 0.00500
C 	C 	0.06427 0.68733 0.90618 0.06100
H 	H 	0.04747 0.70463 0.89773 0.00600
C 	C 	0.82607 0.75013 0.92353 0.10000
H 	H 	0.88607 0.82013 0.92913 0.02600
N 	N 	0.13203 0.52777 0.17860 -0.20300
N 	N 	0.05243 0.57307 0.18499 -0.13500
N 	N 	0.00343 0.37147 0.19233 -0.14400
N 	N 	0.94733 0.25177 0.19973 -0.10400
N 	N 	0.82633 0.03547 0.20519 -0.11200
N 	N 	0.92073 0.11027 0.21510 -0.20600
N 	N 	0.83753 0.01227 0.24337 -0.21500
N 	N 	0.36593 0.05127 0.25451 -0.11900
C 	C 	0.10183 0.40827 0.18305 0.09000
H 	H 	0.14113 0.35587 0.18037 -0.00400
C 	C 	0.97623 0.47677 0.19315 0.17400
H 	H 	0.91203 0.47927 0.19877 -0.00400
C 	C 	0.84553 0.12407 0.19619 0.09700
H 	H 	0.79653 0.10327 0.18837 0.01300
C 	C 	0.99113 0.23777 0.21154 0.18400
H 	H 	0.06123 0.30897 0.21637 -0.05700
C 	C 	0.73093 0.02067 0.23952 0.09100
H 	H 	0.71413 0.03797 0.23107 -0.00200
C 	C 	0.49273 0.08347 0.25687 0.08600
H 	H 	0.55273 0.15347 0.26247 0.01100
N 	N 	0.06240 0.20130 0.51193 -0.23400
N 	N 	0.18730 0.28090 0.51832 -0.10600
N 	N 	0.03470 0.32990 0.52566 -0.14100
N 	N 	0.97110 0.38600 0.53306 -0.09300
N 	N 	0.87580 0.50700 0.53852 -0.09900
N 	N 	0.85620 0.41260 0.54843 -0.19600
N 	N 	0.84140 0.49580 0.57670 -0.20900
N 	N 	0.35200 0.96740 0.58784 -0.07600
C 	C 	0.97310 0.23150 0.51638 0.16700
H 	H 	0.88140 0.19220 0.51370 -0.02200
C 	C 	0.16720 0.35710 0.52648 0.08900
H 	H 	0.23390 0.42130 0.53210 0.01500
C 	C 	0.94520 0.48780 0.52952 0.09900
H 	H 	0.97340 0.53680 0.52170 0.02900
C 	C 	0.91330 0.34220 0.54487 0.10600
H 	H 	0.91440 0.27210 0.54970 -0.00200
C 	C 	0.95640 0.60240 0.57285 0.12900
H 	H 	0.99050 0.61920 0.56440 0.00200
C 	C 	0.25740 0.84060 0.59020 0.09500
H 	H 	0.26740 0.78060 0.59580 0.01400
N 	N 	0.72907 0.53463 0.84526 -0.20000
N 	N 	0.85397 0.61423 0.85165 -0.09500
N 	N 	0.70137 0.66323 0.85899 -0.10300
N 	N 	0.63777 0.71933 0.86639 -0.10500
N 	N 	0.54247 0.84033 0.87185 -0.09800
N 	N 	0.52287 0.74593 0.88176 -0.19600
N 	N 	0.50807 0.82913 0.91003 -0.20900
N 	N 	0.01867 0.30073 0.92117 -0.13800
C 	C 	0.63977 0.56483 0.84971 0.09800
H 	H 	0.54807 0.52553 0.84703 0.00200
C 	C 	0.83387 0.69043 0.85981 0.09800
H 	H 	0.90057 0.75463 0.86543 0.03100
C 	C 	0.61187 0.82113 0.86285 0.10000
H 	H 	0.64007 0.87013 0.85503 0.02800
C 	C 	0.57997 0.67553 0.87820 0.10700
H 	H 	0.58107 0.60543 0.88303 -0.00500
C 	C 	0.62307 0.93573 0.90618 0.12900
H 	H 	0.65717 0.95253 0.89773 0.00200
C 	C 	0.92407 0.17393 0.92353 0.13700
H 	H 	0.93407 0.11393 0.92913 0.00200
N 	N 	0.39573 0.86797 0.17860 -0.19900
N 	N 	0.52063 0.94757 0.18499 -0.06400
N 	N 	0.36803 0.99657 0.19233 -0.06100
N 	N 	0.30443 0.05267 0.19973 -0.11200
N 	N 	0.20913 0.17367 0.20519 -0.11100
N 	N 	0.18953 0.07927 0.21510 -0.19400
N 	N 	0.17473 0.16247 0.24337 -0.21700
N 	N 	0.68533 0.63407 0.25451 -0.09500
C 	C 	0.30643 0.89817 0.18305 0.10100
H 	H 	0.21473 0.85887 0.18037 0.00300
C 	C 	0.50053 0.02377 0.19315 -0.00000
H 	H 	0.56723 0.08797 0.19877 0.04300
C 	C 	0.27853 0.15447 0.19619 0.09000
H 	H 	0.30673 0.20347 0.18837 0.01200
C 	C 	0.24663 0.00887 0.21154 0.01300
H 	H 	0.24773 0.93877 0.21637 0.04800
C 	C 	0.28973 0.26907 0.23952 0.09600
H 	H 	0.32383 0.28587 0.23107 0.00000
C 	C 	0.59073 0.50727 0.25687 0.09500
H 	H 	0.60073 0.44727 0.26247 0.01400
N 	N 	0.13890 0.93760 0.51193 -0.17100
N 	N 	0.09360 0.81270 0.51832 -0.11000
N 	N 	0.29520 0.96530 0.52566 -0.06700
N 	N 	0.41490 0.02890 0.53306 -0.12300
N 	N 	0.63120 0.12420 0.53852 -0.10600
N 	N 	0.55640 0.14380 0.54843 -0.19900
N 	N 	0.65440 0.15860 0.57670 -0.20300
N 	N 	0.61540 0.64800 0.58784 -0.10000
C 	C 	0.25840 0.02690 0.51638 0.01600
H 	H 	0.31080 0.11860 0.51370 0.02500
C 	C 	0.18990 0.83280 0.52648 0.09600
H 	H 	0.18740 0.76610 0.53210 0.01400
C 	C 	0.54260 0.05480 0.52952 0.09300
H 	H 	0.56340 0.02660 0.52170 0.00900
C 	C 	0.42890 0.08670 0.54487 0.10100
H 	H 	0.35770 0.08560 0.54970 -0.01500
C 	C 	0.64600 0.04360 0.57285 0.06000
H 	H 	0.62870 0.00950 0.56440 0.00500
C 	C 	0.58320 0.74260 0.59020 0.09900
H 	H 	0.51320 0.73260 0.59580 0.01500
N 	N 	0.80557 0.27093 0.84526 -0.20000
N 	N 	0.76027 0.14603 0.85165 -0.10700
N 	N 	0.96187 0.29863 0.85899 -0.08700
N 	N 	0.08157 0.36223 0.86639 -0.12500
N 	N 	0.29787 0.45753 0.87185 -0.10400
N 	N 	0.22307 0.47713 0.88176 -0.19900
N 	N 	0.32107 0.49193 0.91003 -0.20800
N 	N 	0.28207 0.98133 0.92117 -0.07300
C 	C 	0.92507 0.36023 0.84971 0.09900
H 	H 	0.97747 0.45193 0.84703 0.01500
C 	C 	0.85657 0.16613 0.85981 0.09600
H 	H 	0.85407 0.09943 0.86543 0.01600
C 	C 	0.20927 0.38813 0.86285 0.09300
H 	H 	0.23007 0.35993 0.85503 0.01200
C 	C 	0.09557 0.42003 0.87820 0.10000
H 	H 	0.02437 0.41893 0.88303 -0.01900
C 	C 	0.31267 0.37693 0.90618 0.09500
H 	H 	0.29537 0.34283 0.89773 -0.00200
C 	C 	0.24987 0.07593 0.92353 0.05600
H 	H 	0.17987 0.06593 0.92913 0.00900
N 	N 	0.47223 0.60427 0.17860 -0.20000
N 	N 	0.42693 0.47937 0.18499 -0.10400
N 	N 	0.62853 0.63197 0.19233 -0.10300
N 	N 	0.74823 0.69557 0.19973 -0.10500
N 	N 	0.96453 0.79087 0.20519 -0.08500
N 	N 	0.88973 0.81047 0.21510 -0.18200
N 	N 	0.98773 0.82527 0.24337 -0.18300
N 	N 	0.94873 0.31467 0.25451 -0.09000
C 	C 	0.59173 0.69357 0.18305 0.09700
H 	H 	0.64413 0.78527 0.18037 0.01000
C 	C 	0.52323 0.49947 0.19315 0.09400
H 	H 	0.52073 0.43277 0.19877 0.01700
C 	C 	0.87593 0.72147 0.19619 0.10200
H 	H 	0.89673 0.69327 0.18837 0.02800
C 	C 	0.76223 0.75337 0.21154 0.11000
H 	H 	0.69103 0.75227 0.21637 0.00100
C 	C 	0.97933 0.71027 0.23952 0.14400
H 	H 	0.96203 0.67617 0.23107 -0.00100
C 	C 	0.91653 0.40927 0.25687 0.14000
H 	H 	0.84653 0.39927 0.26247 0.00300
Cd	Cd	-0.00000 0.00000 -0.00000 1.17700
Cd	Cd	0.66667 0.33333 0.33333 1.19900
Cd	Cd	0.33333 0.66667 0.66667 1.19900
Cd	Cd	-0.00000 0.00000 0.50000 1.17700
Cd	Cd	0.66667 0.33333 0.83333 1.19900
Cd	Cd	0.33333 0.66667 0.16667 1.19900
Cd	Cd	0.66667 0.33333 0.06313 1.19000
Cd	Cd	0.33333 0.66667 0.39647 1.19000
Cd	Cd	0.00000 0.00000 0.72980 1.16400
Cd	Cd	0.33333 0.66667 0.43687 1.19000
Cd	Cd	0.00000 0.00000 0.77020 1.16400
Cd	Cd	0.66667 0.33333 0.10353 1.19000
Cd	Cd	0.33333 0.66667 0.93687 1.19000
Cd	Cd	0.00000 0.00000 0.27020 1.16400
Cd	Cd	0.66667 0.33333 0.60353 1.19000
Cd	Cd	0.66667 0.33333 0.56313 1.19000
Cd	Cd	0.33333 0.66667 0.89647 1.19000
Cd	Cd	-0.00000 0.00000 0.22980 1.16400
N 	N 	0.66667 0.68528 0.08333 -0.10000
N 	N 	0.66667 0.80878 0.08333 -0.10900
N 	N 	0.31472 0.98138 0.08333 -0.06300
N 	N 	0.19122 0.85788 0.08333 -0.09900
N 	N 	0.01862 0.33333 0.08333 -0.13500
N 	N 	0.14212 0.33333 0.08333 -0.10900
N 	N 	0.68528 0.66667 0.41667 -0.10000
N 	N 	0.80878 0.66667 0.41667 -0.10900
N 	N 	0.35195 0.00000 0.75000 -0.12700
N 	N 	0.47545 0.00000 0.75000 -0.13000
N 	N 	0.98138 0.31472 0.41667 -0.06300
N 	N 	0.85788 0.19122 0.41667 -0.09900
N 	N 	0.64805 0.64805 0.75000 -0.10200
N 	N 	0.52455 0.52455 0.75000 -0.10500
N 	N 	0.33333 0.01862 0.41667 -0.13500
N 	N 	0.33333 0.14212 0.41667 -0.10900
N 	N 	-0.00000 0.35195 0.75000 -0.12700
N 	N 	0.00000 0.47545 0.75000 -0.13000
N 	N 	0.33333 0.31472 0.91667 -0.10500
N 	N 	0.33333 0.19122 0.91667 -0.10300
N 	N 	0.00000 0.64805 0.25000 -0.12500
N 	N 	0.00000 0.52455 0.25000 -0.12900
N 	N 	0.68528 0.01862 0.91667 -0.13000
N 	N 	0.80878 0.14212 0.91667 -0.11200
N 	N 	0.35195 0.35195 0.25000 -0.10300
N 	N 	0.47545 0.47545 0.25000 -0.10600
N 	N 	0.98138 0.66667 0.91667 -0.06300
N 	N 	0.85788 0.66667 0.91667 -0.10200
N 	N 	0.64805 0.00000 0.25000 -0.12500
N 	N 	0.52455 0.00000 0.25000 -0.12900
N 	N 	0.31472 0.33333 0.58333 -0.10500
N 	N 	0.19122 0.33333 0.58333 -0.10300
N 	N 	0.01862 0.68528 0.58333 -0.13000
N 	N 	0.14212 0.80878 0.58333 -0.11200
N 	N 	0.66667 0.98138 0.58333 -0.06300
N 	N 	0.66667 0.85788 0.58333 -0.10200
