data_crystal

_cell_length_a 12.74710
_cell_length_b 12.74710
_cell_length_c 22.54500
_cell_angle_alpha 90.00000
_cell_angle_beta  90.00000
_cell_angle_gamma 90.00000

_symmetry_space_group_name_	'P 1'
_symmetry_space_group_name_H-M	'P 1'

loop_
_symmetry_equiv_pos_as_xyz
  x,y,z

loop_
_atom_site_label
_atom_site_type_symbol
_atom_site_fract_x
_atom_site_fract_y
_atom_site_fract_z
_atom_site_charge
N 	N 	0.12980 0.12610 0.99410 -0.23400
N 	N 	0.11150 0.21430 0.95877 -0.14700
N 	N 	0.25330 0.23840 0.00952 -0.12300
N 	N 	0.34100 0.28600 0.03331 -0.10700
N 	N 	0.50150 0.33560 0.04677 -0.10000
N 	N 	0.43700 0.38690 0.08735 -0.20400
N 	N 	0.34730 0.60570 0.16350 -0.19700
N 	N 	0.25480 0.57980 0.13580 -0.11500
N 	N 	0.23190 0.72240 0.18510 -0.11100
N 	N 	0.18670 0.81220 0.20933 -0.11000
N 	N 	0.10070 0.91410 0.26711 -0.19400
N 	N 	0.15280 0.97640 0.22660 -0.08700
C 	C 	0.21490 0.14350 0.02480 0.04900
H 	H 	0.24410 0.09820 0.05260 -0.03200
C 	C 	0.18710 0.27930 0.96840 0.11300
H 	H 	0.19510 0.34410 0.95010 0.00200
C 	C 	0.44150 0.27770 0.01513 0.04700
H 	H 	0.46410 0.23560 0.98390 0.03800
C 	C 	0.34150 0.35640 0.07855 0.09000
H 	H 	0.28300 0.37890 0.09960 -0.01500
C 	C 	0.18790 0.65140 0.14890 0.09600
H 	H 	0.11910 0.65370 0.13520 -0.01300
C 	C 	0.33160 0.69140 0.19320 0.09500
H 	H 	0.38130 0.72570 0.21640 0.00900
C 	C 	0.20470 0.91160 0.19260 0.08900
H 	H 	0.24780 0.93150 0.16140 0.03300
C 	C 	0.12150 0.81640 0.25630 0.09300
H 	H 	0.09570 0.75910 0.27730 -0.02000
N 	N 	0.62980 0.62610 0.49410 -0.21800
N 	N 	0.61150 0.71430 0.45877 -0.11300
N 	N 	0.75330 0.73840 0.50952 -0.10000
N 	N 	0.84100 0.78600 0.53331 -0.11900
N 	N 	0.00150 0.83560 0.54677 -0.19700
N 	N 	0.93700 0.88690 0.58735 -0.11800
N 	N 	0.84730 0.10570 0.66350 -0.19000
N 	N 	0.75480 0.07980 0.63580 -0.13000
N 	N 	0.73190 0.22240 0.68510 -0.10900
N 	N 	0.68670 0.31220 0.70933 -0.10900
N 	N 	0.60070 0.41410 0.76711 -0.20300
N 	N 	0.65280 0.47640 0.72660 -0.11100
C 	C 	0.71490 0.64350 0.52480 0.09700
H 	H 	0.74410 0.59820 0.55260 0.00200
C 	C 	0.68710 0.77930 0.46840 0.10000
H 	H 	0.69510 0.84410 0.45010 0.03500
C 	C 	0.94150 0.77770 0.51513 0.23200
H 	H 	0.96410 0.73560 0.48390 0.00600
C 	C 	0.84150 0.85640 0.57855 0.11200
H 	H 	0.78300 0.87890 0.59960 0.02100
C 	C 	0.68790 0.15140 0.64890 0.09400
H 	H 	0.61910 0.15370 0.63520 -0.00600
C 	C 	0.83160 0.19140 0.69320 0.09200
H 	H 	0.88130 0.22570 0.71640 0.03200
C 	C 	0.70470 0.41160 0.69260 0.09000
H 	H 	0.74780 0.43150 0.66140 0.02000
C 	C 	0.62150 0.31640 0.75630 0.09800
H 	H 	0.59570 0.25910 0.77730 -0.01000
N 	N 	0.87020 0.87390 0.99410 -0.15400
N 	N 	0.88850 0.78570 0.95877 -0.08900
N 	N 	0.74670 0.76160 0.00952 -0.11200
N 	N 	0.65900 0.71400 0.03331 -0.09700
N 	N 	0.49850 0.66440 0.04677 -0.09600
N 	N 	0.56300 0.61310 0.08735 -0.20000
N 	N 	0.65270 0.39430 0.16350 -0.19800
N 	N 	0.74520 0.42020 0.13580 -0.10200
N 	N 	0.76810 0.27760 0.18510 -0.10800
N 	N 	0.81330 0.18780 0.20933 -0.10800
N 	N 	0.89930 0.08590 0.26711 -0.19300
N 	N 	0.84720 0.02360 0.22660 -0.13600
C 	C 	0.78510 0.85650 0.02480 0.08400
H 	H 	0.75590 0.90180 0.05260 0.03600
C 	C 	0.81290 0.72070 0.96840 0.12800
H 	H 	0.80490 0.65590 0.95010 0.02200
C 	C 	0.55850 0.72230 0.01513 0.05900
H 	H 	0.53590 0.76440 0.98390 0.05300
C 	C 	0.65850 0.64360 0.07855 0.09900
H 	H 	0.71700 0.62110 0.09960 0.00500
C 	C 	0.81210 0.34860 0.14890 0.10100
H 	H 	0.88090 0.34630 0.13520 0.02900
C 	C 	0.66840 0.30860 0.19320 0.09500
H 	H 	0.61870 0.27430 0.21640 -0.00600
C 	C 	0.79530 0.08840 0.19260 0.08500
H 	H 	0.75220 0.06850 0.16140 -0.00900
C 	C 	0.87850 0.18360 0.25630 0.09900
H 	H 	0.90430 0.24090 0.27730 0.02200
N 	N 	0.37020 0.37390 0.49410 -0.22200
N 	N 	0.38850 0.28570 0.45877 -0.12300
N 	N 	0.24670 0.26160 0.50952 -0.11300
N 	N 	0.15900 0.21400 0.53331 -0.09300
N 	N 	0.99850 0.16440 0.54677 0.00800
N 	N 	0.06300 0.11310 0.58735 -0.27200
N 	N 	0.15270 0.89430 0.66350 -0.18400
N 	N 	0.24520 0.92020 0.63580 -0.08000
N 	N 	0.26810 0.77760 0.68510 -0.11000
N 	N 	0.31330 0.68780 0.70933 -0.10800
N 	N 	0.39930 0.58590 0.76711 -0.20300
N 	N 	0.34720 0.52360 0.72660 -0.11800
C 	C 	0.28510 0.35650 0.52480 0.08900
H 	H 	0.25590 0.40180 0.55260 -0.01300
C 	C 	0.31290 0.22070 0.46840 0.09300
H 	H 	0.30490 0.15590 0.45010 -0.00300
C 	C 	0.05850 0.22230 0.51513 -0.04500
H 	H 	0.03590 0.26440 0.48390 0.02500
C 	C 	0.15850 0.14360 0.57855 0.08100
H 	H 	0.21700 0.12110 0.59960 -0.02700
C 	C 	0.31210 0.84860 0.64890 0.10500
H 	H 	0.38090 0.84630 0.63520 0.02400
C 	C 	0.16840 0.80860 0.69320 0.10000
H 	H 	0.11870 0.77430 0.71640 -0.02300
C 	C 	0.29530 0.58840 0.69260 0.08300
H 	H 	0.25220 0.56850 0.66140 0.00300
C 	C 	0.37850 0.68360 0.75630 0.09400
H 	H 	0.40430 0.74090 0.77730 0.00900
N 	N 	0.12610 0.87020 0.00590 -0.22900
N 	N 	0.21430 0.88850 0.04123 -0.09700
N 	N 	0.23840 0.74670 0.99048 -0.09700
N 	N 	0.28600 0.65900 0.96669 -0.11300
N 	N 	0.33560 0.49850 0.95323 -0.10700
N 	N 	0.38690 0.56300 0.91265 -0.20000
N 	N 	0.60570 0.65270 0.83650 -0.19500
N 	N 	0.57980 0.74520 0.86420 -0.10000
N 	N 	0.72240 0.76810 0.81490 -0.10300
N 	N 	0.81220 0.81330 0.79067 -0.10300
N 	N 	0.91410 0.89930 0.73289 -0.15300
N 	N 	0.97640 0.84720 0.77340 -0.06400
C 	C 	0.14350 0.78510 0.97520 0.12000
H 	H 	0.09820 0.75590 0.94740 -0.03300
C 	C 	0.27930 0.81290 0.03160 0.07500
H 	H 	0.34410 0.80490 0.04990 0.03000
C 	C 	0.27770 0.55850 0.98487 0.14100
H 	H 	0.23560 0.53590 0.01610 -0.02600
C 	C 	0.35640 0.65850 0.92145 0.09600
H 	H 	0.37890 0.71700 0.90040 0.00400
C 	C 	0.65140 0.81210 0.85110 0.10300
H 	H 	0.65370 0.88090 0.86480 0.03600
C 	C 	0.69140 0.66840 0.80680 0.09900
H 	H 	0.72570 0.61870 0.78360 0.00900
C 	C 	0.91160 0.79530 0.80740 0.10500
H 	H 	0.93150 0.75220 0.83860 0.03800
C 	C 	0.81640 0.87850 0.74370 0.11200
H 	H 	0.75910 0.90430 0.72270 0.02500
N 	N 	0.62610 0.37020 0.50590 -0.22000
N 	N 	0.71430 0.38850 0.54123 -0.11400
N 	N 	0.73840 0.24670 0.49048 -0.10700
N 	N 	0.78600 0.15900 0.46669 -0.08900
N 	N 	0.83560 0.99850 0.45323 0.01500
N 	N 	0.88690 0.06300 0.41265 -0.22400
N 	N 	0.10570 0.15270 0.33650 -0.22900
N 	N 	0.07980 0.24520 0.36420 -0.13600
N 	N 	0.22240 0.26810 0.31490 -0.11500
N 	N 	0.31220 0.31330 0.29067 -0.11300
N 	N 	0.41410 0.39930 0.23289 -0.20500
N 	N 	0.47640 0.34720 0.27340 -0.11700
C 	C 	0.64350 0.28510 0.47520 0.09300
H 	H 	0.59820 0.25590 0.44740 -0.01300
C 	C 	0.77930 0.31290 0.53160 0.09800
H 	H 	0.84410 0.30490 0.54990 0.03500
C 	C 	0.77770 0.05850 0.48487 -0.02500
H 	H 	0.73560 0.03590 0.51610 0.02400
C 	C 	0.85640 0.15850 0.42145 0.10100
H 	H 	0.87890 0.21700 0.40040 0.01800
C 	C 	0.15140 0.31210 0.35110 0.09000
H 	H 	0.15370 0.38090 0.36480 -0.00500
C 	C 	0.19140 0.16840 0.30680 0.08300
H 	H 	0.22570 0.11870 0.28360 -0.03300
C 	C 	0.41160 0.29530 0.30740 0.08100
H 	H 	0.43150 0.25220 0.33860 0.00300
C 	C 	0.31640 0.37850 0.24370 0.09100
H 	H 	0.25910 0.40430 0.22270 -0.01300
N 	N 	0.87390 0.12980 0.00590 -0.22300
N 	N 	0.78570 0.11150 0.04123 -0.13100
N 	N 	0.76160 0.25330 0.99048 -0.09400
N 	N 	0.71400 0.34100 0.96669 -0.11000
N 	N 	0.66440 0.50150 0.95323 -0.10300
N 	N 	0.61310 0.43700 0.91265 -0.19900
N 	N 	0.39430 0.34730 0.83650 -0.19700
N 	N 	0.42020 0.25480 0.86420 -0.11200
N 	N 	0.27760 0.23190 0.81490 -0.11600
N 	N 	0.18780 0.18670 0.79067 -0.11400
N 	N 	0.08590 0.10070 0.73289 -0.23900
N 	N 	0.02360 0.15280 0.77340 -0.16200
C 	C 	0.85650 0.21490 0.97520 0.11900
H 	H 	0.90180 0.24410 0.94740 0.01700
C 	C 	0.72070 0.18710 0.03160 0.06800
H 	H 	0.65590 0.19510 0.04990 0.01100
C 	C 	0.72230 0.44150 0.98487 0.14600
H 	H 	0.76440 0.46410 0.01610 -0.00700
C 	C 	0.64360 0.34150 0.92145 0.10400
H 	H 	0.62110 0.28300 0.90040 -0.01000
C 	C 	0.34860 0.18790 0.85110 0.09600
H 	H 	0.34630 0.11910 0.86480 -0.01400
C 	C 	0.30860 0.33160 0.80680 0.09200
H 	H 	0.27430 0.38130 0.78360 -0.00600
C 	C 	0.08840 0.20470 0.80740 0.06900
H 	H 	0.06850 0.24780 0.83860 -0.01300
C 	C 	0.18360 0.12150 0.74370 0.08000
H 	H 	0.24090 0.09570 0.72270 -0.02500
N 	N 	0.37390 0.62980 0.50590 -0.22000
N 	N 	0.28570 0.61150 0.54123 -0.12300
N 	N 	0.26160 0.75330 0.49048 -0.10600
N 	N 	0.21400 0.84100 0.46669 -0.12500
N 	N 	0.16440 0.00150 0.45323 -0.22300
N 	N 	0.11310 0.93700 0.41265 -0.15500
N 	N 	0.89430 0.84730 0.33650 -0.15100
N 	N 	0.92020 0.75480 0.36420 -0.07800
N 	N 	0.77760 0.73190 0.31490 -0.10500
N 	N 	0.68780 0.68670 0.29067 -0.10400
N 	N 	0.58590 0.60070 0.23289 -0.20100
N 	N 	0.52360 0.65280 0.27340 -0.11200
C 	C 	0.35650 0.71490 0.47520 0.09300
H 	H 	0.40180 0.74410 0.44740 0.00200
C 	C 	0.22070 0.68710 0.53160 0.09400
H 	H 	0.15590 0.69510 0.54990 -0.00100
C 	C 	0.22230 0.94150 0.48487 0.23400
H 	H 	0.26440 0.96410 0.51610 0.00300
C 	C 	0.14360 0.84150 0.42145 0.09400
H 	H 	0.12110 0.78300 0.40040 -0.02100
C 	C 	0.84860 0.68790 0.35110 0.10800
H 	H 	0.84630 0.61910 0.36480 0.02300
C 	C 	0.80860 0.83160 0.30680 0.10700
H 	H 	0.77430 0.88130 0.28360 0.03700
C 	C 	0.58840 0.70470 0.30740 0.09100
H 	H 	0.56850 0.74780 0.33860 0.02000
C 	C 	0.68360 0.62150 0.24370 0.10100
H 	H 	0.74090 0.59570 0.22270 0.01000
Cd	Cd	-0.00000 0.00000 -0.00000 1.09000
Cd	Cd	0.50000 0.50000 0.50000 1.17000
Cd	Cd	0.50000 0.50000 0.16042 1.19800
Cd	Cd	0.00000 0.00000 0.66042 1.12500
Cd	Cd	0.50000 0.50000 0.83958 1.19900
Cd	Cd	0.00000 0.00000 0.33958 1.12300
