data_crystal

_cell_length_a 12.75590
_cell_length_b 12.75590
_cell_length_c 17.74100
_cell_angle_alpha 90.00000
_cell_angle_beta  90.00000
_cell_angle_gamma 120.00000

_symmetry_space_group_name_	'P 1'
_symmetry_space_group_name_H-M	'P 1'

loop_
_symmetry_equiv_pos_as_xyz
  x,y,z

loop_
_atom_site_label
_atom_site_type_symbol
_atom_site_fract_x
_atom_site_fract_y
_atom_site_fract_z
_atom_site_charge
O 	O 	0.94450 0.35110 0.08520 -0.45800
O 	O 	0.82020 0.38480 0.15290 -0.53700
C 	C 	0.87550 0.32900 0.14040 0.43300
C 	C 	0.82600 0.20000 0.17600 -0.24600
H 	H 	0.76120 0.13720 0.14610 0.07600
H 	H 	0.88950 0.18010 0.18310 0.14400
C 	C 	0.90000 0.27800 0.21000 0.03500
H 	H 	0.92430 0.21940 0.19770 -0.05000
H 	H 	0.96260 0.34190 0.24070 0.05000
O 	O 	0.64890 0.59340 0.08520 -0.49100
O 	O 	0.61520 0.43540 0.15290 -0.55200
C 	C 	0.67100 0.54650 0.14040 0.44400
C 	C 	0.80000 0.62600 0.17600 -0.09500
H 	H 	0.86280 0.62400 0.14610 0.07000
H 	H 	0.81990 0.70940 0.18310 0.03400
C 	C 	0.72200 0.62200 0.21000 -0.12700
H 	H 	0.78060 0.70490 0.19770 0.06900
H 	H 	0.65810 0.62070 0.24070 0.04500
O 	O 	0.40660 0.05550 0.08520 -0.53000
O 	O 	0.56460 0.17980 0.15290 -0.55900
C 	C 	0.45350 0.12450 0.14040 0.42700
C 	C 	0.37400 0.17400 0.17600 -0.06900
H 	H 	0.37600 0.23880 0.14610 0.03100
H 	H 	0.29060 0.11050 0.18310 -0.00700
C 	C 	0.37800 0.10000 0.21000 -0.11800
H 	H 	0.29510 0.07570 0.19770 0.05600
H 	H 	0.37930 0.03740 0.24070 -0.00500
O 	O 	0.05550 0.64890 0.08520 -0.52400
O 	O 	0.17980 0.61520 0.15290 -0.56000
C 	C 	0.12450 0.67100 0.14040 0.43600
C 	C 	0.17400 0.80000 0.17600 -0.02600
H 	H 	0.23880 0.86280 0.14610 0.04300
H 	H 	0.11050 0.81990 0.18310 -0.03000
C 	C 	0.10000 0.72200 0.21000 -0.17600
H 	H 	0.07570 0.78060 0.19770 0.10100
H 	H 	0.03740 0.65810 0.24070 0.01000
O 	O 	0.35110 0.40660 0.08520 -0.50300
O 	O 	0.38480 0.56460 0.15290 -0.54900
C 	C 	0.32900 0.45350 0.14040 0.42700
C 	C 	0.20000 0.37400 0.17600 -0.17900
H 	H 	0.13720 0.37600 0.14610 0.04800
H 	H 	0.18010 0.29060 0.18310 0.08000
C 	C 	0.27800 0.37800 0.21000 -0.01400
H 	H 	0.21940 0.29510 0.19770 -0.01900
H 	H 	0.34190 0.37930 0.24070 0.01500
O 	O 	0.59340 0.94450 0.08520 -0.45300
O 	O 	0.43540 0.82020 0.15290 -0.54000
C 	C 	0.54650 0.87550 0.14040 0.44100
C 	C 	0.62600 0.82600 0.17600 -0.20500
H 	H 	0.62400 0.76120 0.14610 0.08600
H 	H 	0.70940 0.88950 0.18310 0.12000
C 	C 	0.62200 0.90000 0.21000 -0.02200
H 	H 	0.70490 0.92430 0.19770 -0.00600
H 	H 	0.62070 0.96260 0.24070 0.06400
O 	O 	0.35110 0.94450 0.41480 -0.41100
O 	O 	0.38480 0.82020 0.34710 -0.52200
C 	C 	0.32900 0.87550 0.35960 0.42900
C 	C 	0.20000 0.82600 0.32400 -0.23500
H 	H 	0.13720 0.76120 0.35390 0.08500
H 	H 	0.18010 0.88950 0.31690 0.14400
C 	C 	0.27800 0.90000 0.29000 0.02400
H 	H 	0.21940 0.92430 0.30230 -0.04300
H 	H 	0.34190 0.96260 0.25930 0.05500
O 	O 	0.59340 0.64890 0.41480 -0.44300
O 	O 	0.43540 0.61520 0.34710 -0.53600
C 	C 	0.54650 0.67100 0.35960 0.44100
C 	C 	0.62600 0.80000 0.32400 -0.08200
H 	H 	0.62400 0.86280 0.35390 0.08000
H 	H 	0.70940 0.81990 0.31690 0.03400
C 	C 	0.62200 0.72200 0.29000 -0.13800
H 	H 	0.70490 0.78060 0.30230 0.07600
H 	H 	0.62070 0.65810 0.25930 0.05100
O 	O 	0.05550 0.40660 0.41480 -0.48200
O 	O 	0.17980 0.56460 0.34710 -0.54200
C 	C 	0.12450 0.45350 0.35960 0.42400
C 	C 	0.17400 0.37400 0.32400 -0.05500
H 	H 	0.23880 0.37600 0.35390 0.04100
H 	H 	0.11050 0.29060 0.31690 -0.00700
C 	C 	0.10000 0.37800 0.29000 -0.13000
H 	H 	0.07570 0.29510 0.30230 0.06300
H 	H 	0.03740 0.37930 0.25930 0.00100
O 	O 	0.64890 0.05550 0.41480 -0.47600
O 	O 	0.61520 0.17980 0.34710 -0.54400
C 	C 	0.67100 0.12450 0.35960 0.43300
C 	C 	0.80000 0.17400 0.32400 -0.01300
H 	H 	0.86280 0.23880 0.35390 0.05200
H 	H 	0.81990 0.11050 0.31690 -0.03000
C 	C 	0.72200 0.10000 0.29000 -0.18700
H 	H 	0.78060 0.07570 0.30230 0.10700
H 	H 	0.65810 0.03740 0.25930 0.01600
O 	O 	0.40660 0.35110 0.41480 -0.45400
O 	O 	0.56460 0.38480 0.34710 -0.53300
C 	C 	0.45350 0.32900 0.35960 0.42400
C 	C 	0.37400 0.20000 0.32400 -0.16600
H 	H 	0.37600 0.13720 0.35390 0.05800
H 	H 	0.29060 0.18010 0.31690 0.08000
C 	C 	0.37800 0.27800 0.29000 -0.02600
H 	H 	0.29510 0.21940 0.30230 -0.01200
H 	H 	0.37930 0.34190 0.25930 0.02100
O 	O 	0.94450 0.59340 0.41480 -0.40600
O 	O 	0.82020 0.43540 0.34710 -0.52400
C 	C 	0.87550 0.54650 0.35960 0.43800
C 	C 	0.82600 0.62600 0.32400 -0.19200
H 	H 	0.76120 0.62400 0.35390 0.09500
H 	H 	0.88950 0.70940 0.31690 0.12000
C 	C 	0.90000 0.62200 0.29000 -0.03300
H 	H 	0.92430 0.70490 0.30230 0.00100
H 	H 	0.96260 0.62070 0.25930 0.07000
O 	O 	0.05550 0.64890 0.91480 -0.40600
O 	O 	0.17980 0.61520 0.84710 -0.52100
C 	C 	0.12450 0.67100 0.85960 0.42500
C 	C 	0.17400 0.80000 0.82400 0.00700
H 	H 	0.23880 0.86280 0.85390 0.06200
H 	H 	0.11050 0.81990 0.81690 -0.03400
C 	C 	0.10000 0.72200 0.79000 -0.20000
H 	H 	0.07570 0.78060 0.80230 0.11900
H 	H 	0.03740 0.65810 0.75930 0.02000
O 	O 	0.35110 0.40660 0.91480 -0.38300
O 	O 	0.38480 0.56460 0.84710 -0.51000
C 	C 	0.32900 0.45350 0.85960 0.41600
C 	C 	0.20000 0.37400 0.82400 -0.14300
H 	H 	0.13720 0.37600 0.85390 0.06800
H 	H 	0.18010 0.29060 0.81690 0.07500
C 	C 	0.27800 0.37800 0.79000 -0.04300
H 	H 	0.21940 0.29510 0.80230 0.00300
H 	H 	0.34190 0.37930 0.75930 0.02600
O 	O 	0.59340 0.94450 0.91480 -0.33800
O 	O 	0.43540 0.82020 0.84710 -0.50100
C 	C 	0.54650 0.87550 0.85960 0.43000
C 	C 	0.62600 0.82600 0.82400 -0.16900
H 	H 	0.62400 0.76120 0.85390 0.10500
H 	H 	0.70940 0.88950 0.81690 0.11400
C 	C 	0.62200 0.90000 0.79000 -0.05000
H 	H 	0.70490 0.92430 0.80230 0.01500
H 	H 	0.62070 0.96260 0.75930 0.07400
O 	O 	0.94450 0.35110 0.91480 -0.34300
O 	O 	0.82020 0.38480 0.84710 -0.50000
C 	C 	0.87550 0.32900 0.85960 0.42200
C 	C 	0.82600 0.20000 0.82400 -0.21100
H 	H 	0.76120 0.13720 0.85390 0.09400
H 	H 	0.88950 0.18010 0.81690 0.13700
C 	C 	0.90000 0.27800 0.79000 0.00600
H 	H 	0.92430 0.21940 0.80230 -0.02800
H 	H 	0.96260 0.34190 0.75930 0.05900
O 	O 	0.64890 0.59340 0.91480 -0.37300
O 	O 	0.61520 0.43540 0.84710 -0.51300
C 	C 	0.67100 0.54650 0.85960 0.43300
C 	C 	0.80000 0.62600 0.82400 -0.06200
H 	H 	0.86280 0.62400 0.85390 0.08900
H 	H 	0.81990 0.70940 0.81690 0.02900
C 	C 	0.72200 0.62200 0.79000 -0.15200
H 	H 	0.78060 0.70490 0.80230 0.08800
H 	H 	0.65810 0.62070 0.75930 0.05500
O 	O 	0.40660 0.05550 0.91480 -0.41000
O 	O 	0.56460 0.17980 0.84710 -0.52000
C 	C 	0.45350 0.12450 0.85960 0.41700
C 	C 	0.37400 0.17400 0.82400 -0.03500
H 	H 	0.37600 0.23880 0.85390 0.05200
H 	H 	0.29060 0.11050 0.81690 -0.01100
C 	C 	0.37800 0.10000 0.79000 -0.14500
H 	H 	0.29510 0.07570 0.80230 0.07600
H 	H 	0.37930 0.03740 0.75930 0.00600
O 	O 	0.64890 0.05550 0.58520 -0.47600
O 	O 	0.61520 0.17980 0.65290 -0.54500
C 	C 	0.67100 0.12450 0.64040 0.43300
C 	C 	0.80000 0.17400 0.67600 -0.01000
H 	H 	0.86280 0.23880 0.64610 0.05100
H 	H 	0.81990 0.11050 0.68310 -0.03300
C 	C 	0.72200 0.10000 0.71000 -0.18900
H 	H 	0.78060 0.07570 0.69770 0.11100
H 	H 	0.65810 0.03740 0.74070 0.01400
O 	O 	0.40660 0.35110 0.58520 -0.45400
O 	O 	0.56460 0.38480 0.65290 -0.53400
C 	C 	0.45350 0.32900 0.64040 0.42400
C 	C 	0.37400 0.20000 0.67600 -0.16000
H 	H 	0.37600 0.13720 0.64610 0.05600
H 	H 	0.29060 0.18010 0.68310 0.07600
C 	C 	0.37800 0.27800 0.71000 -0.03000
H 	H 	0.29510 0.21940 0.69770 -0.00600
H 	H 	0.37930 0.34190 0.74070 0.01900
O 	O 	0.94450 0.59340 0.58520 -0.40600
O 	O 	0.82020 0.43540 0.65290 -0.52500
C 	C 	0.87550 0.54650 0.64040 0.43700
C 	C 	0.82600 0.62600 0.67600 -0.18600
H 	H 	0.76120 0.62400 0.64610 0.09400
H 	H 	0.88950 0.70940 0.68310 0.11600
C 	C 	0.90000 0.62200 0.71000 -0.03800
H 	H 	0.92430 0.70490 0.69770 0.00700
H 	H 	0.96260 0.62070 0.74070 0.06800
O 	O 	0.35110 0.94450 0.58520 -0.41200
O 	O 	0.38480 0.82020 0.65290 -0.52300
C 	C 	0.32900 0.87550 0.64040 0.42900
C 	C 	0.20000 0.82600 0.67600 -0.22700
H 	H 	0.13720 0.76120 0.64610 0.08300
H 	H 	0.18010 0.88950 0.68310 0.13800
C 	C 	0.27800 0.90000 0.71000 0.01800
H 	H 	0.21940 0.92430 0.69770 -0.03600
H 	H 	0.34190 0.96260 0.74070 0.05200
O 	O 	0.59340 0.64890 0.58520 -0.44300
O 	O 	0.43540 0.61520 0.65290 -0.53700
C 	C 	0.54650 0.67100 0.64040 0.44100
C 	C 	0.62600 0.80000 0.67600 -0.07800
H 	H 	0.62400 0.86280 0.64610 0.07800
H 	H 	0.70940 0.81990 0.68310 0.03100
C 	C 	0.62200 0.72200 0.71000 -0.14100
H 	H 	0.70490 0.78060 0.69770 0.08000
H 	H 	0.62070 0.65810 0.74070 0.04900
O 	O 	0.05550 0.40660 0.58520 -0.48200
O 	O 	0.17980 0.56460 0.65290 -0.54400
C 	C 	0.12450 0.45350 0.64040 0.42400
C 	C 	0.17400 0.37400 0.67600 -0.05200
H 	H 	0.23880 0.37600 0.64610 0.04000
H 	H 	0.11050 0.29060 0.68310 -0.00900
C 	C 	0.10000 0.37800 0.71000 -0.13200
H 	H 	0.07570 0.29510 0.69770 0.06700
H 	H 	0.03740 0.37930 0.74070 -0.00000
Nd	Nd	0.66667 0.33333 0.25000 2.45300
Nd	Nd	0.33333 0.66667 0.25000 2.45300
Nd	Nd	0.33333 0.66667 0.75000 2.46300
Nd	Nd	0.66667 0.33333 0.75000 2.46300
Cd	Cd	-0.00000 0.50000 -0.00000 1.14100
Cd	Cd	0.50000 0.50000 -0.00000 1.16800
Cd	Cd	0.50000 0.00000 -0.00000 1.14100
Cd	Cd	0.50000 0.00000 0.50000 1.19800
Cd	Cd	0.50000 0.50000 0.50000 1.22600
Cd	Cd	0.00000 0.50000 0.50000 1.19800
O 	O 	0.78030 0.21970 0.25000 -0.30200
O 	O 	0.78030 0.56060 0.25000 -0.29300
O 	O 	0.43940 0.21970 0.25000 -0.31000
O 	O 	0.21970 0.78030 0.25000 -0.30200
O 	O 	0.21970 0.43940 0.25000 -0.31000
O 	O 	0.56060 0.78030 0.25000 -0.29300
O 	O 	0.21970 0.78030 0.75000 -0.30300
O 	O 	0.21970 0.43940 0.75000 -0.31100
O 	O 	0.56060 0.78030 0.75000 -0.29500
O 	O 	0.78030 0.21970 0.75000 -0.30300
O 	O 	0.78030 0.56060 0.75000 -0.29500
O 	O 	0.43940 0.21970 0.75000 -0.31200
