data_crystal

_cell_length_a 26.16000
_cell_length_b 26.16000
_cell_length_c 26.16000
_cell_angle_alpha 90.00000
_cell_angle_beta  90.00000
_cell_angle_gamma 90.00000

_symmetry_space_group_name_	'P 1'
_symmetry_space_group_name_H-M	'P 1'

loop_
_symmetry_equiv_pos_as_xyz
  x,y,z

loop_
_atom_site_label
_atom_site_type_symbol
_atom_site_fract_x
_atom_site_fract_y
_atom_site_fract_z
_atom_site_charge
O 	O 	0.01410 0.41690 0.97730 -0.43400
O 	O 	0.00890 0.33430 0.96990 -0.39800
C 	C 	0.00870 0.37330 0.99870 0.60100
C 	C 	0.00340 0.36720 0.05420 -0.61600
H 	H 	0.03280 0.38190 0.07140 0.19700
H 	H 	0.97300 0.38480 0.06600 0.28200
O 	O 	0.01410 0.91690 0.47730 -0.41400
O 	O 	0.00890 0.83430 0.46990 -0.42500
C 	C 	0.00870 0.87330 0.49870 0.45200
C 	C 	0.00340 0.86720 0.55420 -0.42900
H 	H 	0.03280 0.88190 0.57140 0.15800
H 	H 	0.97300 0.88480 0.56600 0.24200
O 	O 	0.51410 0.41690 0.47730 -0.39700
O 	O 	0.50890 0.33430 0.46990 -0.40700
C 	C 	0.50870 0.37330 0.49870 0.41200
C 	C 	0.50340 0.36720 0.55420 -0.24400
H 	H 	0.53280 0.38190 0.57140 0.11000
H 	H 	0.47300 0.38480 0.56600 0.11100
O 	O 	0.51410 0.91690 0.97730 -0.35300
O 	O 	0.50890 0.83430 0.96990 -0.37000
C 	C 	0.50870 0.87330 0.99870 0.54600
C 	C 	0.50340 0.86720 0.05420 -0.41500
H 	H 	0.53280 0.88190 0.07140 0.15400
H 	H 	0.47300 0.88480 0.06600 0.15600
O 	O 	0.23590 0.33310 0.47730 -0.39700
O 	O 	0.24110 0.41570 0.46990 -0.40700
C 	C 	0.24130 0.37670 0.49870 0.41100
C 	C 	0.24660 0.38280 0.55420 -0.24300
H 	H 	0.21720 0.36810 0.57140 0.10900
H 	H 	0.27700 0.36520 0.56600 0.11100
O 	O 	0.23590 0.83310 0.97730 -0.37700
O 	O 	0.24110 0.91570 0.96990 -0.31600
C 	C 	0.24130 0.87670 0.99870 0.53700
C 	C 	0.24660 0.88280 0.05420 -0.40400
H 	H 	0.21720 0.86810 0.07140 0.14700
H 	H 	0.27700 0.86520 0.06600 0.14900
O 	O 	0.73590 0.33310 0.97730 -0.38300
O 	O 	0.74110 0.41570 0.96990 -0.37500
C 	C 	0.74130 0.37670 0.99870 0.55300
C 	C 	0.74660 0.38280 0.05420 -0.42000
H 	H 	0.71720 0.36810 0.07140 0.15100
H 	H 	0.77700 0.36520 0.06600 0.15200
O 	O 	0.73590 0.83310 0.47730 -0.38900
O 	O 	0.74110 0.91570 0.46990 -0.34700
C 	C 	0.74130 0.87670 0.49870 0.40000
C 	C 	0.74660 0.88280 0.55420 -0.23300
H 	H 	0.71720 0.86810 0.57140 0.10800
H 	H 	0.77700 0.86520 0.56600 0.11200
O 	O 	0.73590 0.91690 0.27270 -0.36400
O 	O 	0.74110 0.83430 0.28010 -0.40100
C 	C 	0.74130 0.87330 0.25130 0.40900
C 	C 	0.74660 0.86720 0.19580 -0.24400
H 	H 	0.71720 0.88190 0.17860 0.11300
H 	H 	0.77700 0.88480 0.18400 0.11800
O 	O 	0.73590 0.41690 0.77270 -0.39400
O 	O 	0.74110 0.33430 0.78010 -0.40300
C 	C 	0.74130 0.37330 0.75130 0.41300
C 	C 	0.74660 0.36720 0.69580 -0.24500
H 	H 	0.71720 0.38190 0.67860 0.11000
H 	H 	0.77700 0.38480 0.68400 0.11300
O 	O 	0.23590 0.91690 0.77270 -0.36300
O 	O 	0.24110 0.83430 0.78010 -0.39900
C 	C 	0.24130 0.87330 0.75130 0.40700
C 	C 	0.24660 0.86720 0.69580 -0.24200
H 	H 	0.21720 0.88190 0.67860 0.11200
H 	H 	0.27700 0.88480 0.68400 0.11700
O 	O 	0.23590 0.41690 0.27270 -0.39700
O 	O 	0.24110 0.33430 0.28010 -0.40700
C 	C 	0.24130 0.37330 0.25130 0.41100
C 	C 	0.24660 0.36720 0.19580 -0.24300
H 	H 	0.21720 0.38190 0.17860 0.10800
H 	H 	0.27700 0.38480 0.18400 0.11000
O 	O 	0.51410 0.83310 0.77270 -0.38800
O 	O 	0.50890 0.91570 0.78010 -0.34600
C 	C 	0.50870 0.87670 0.75130 0.39900
C 	C 	0.50340 0.88280 0.69580 -0.23100
H 	H 	0.53280 0.86810 0.67860 0.10700
H 	H 	0.47300 0.86520 0.68400 0.11000
O 	O 	0.51410 0.33310 0.27270 -0.39700
O 	O 	0.50890 0.41570 0.28010 -0.40700
C 	C 	0.50870 0.37670 0.25130 0.41200
C 	C 	0.50340 0.38280 0.19580 -0.24300
H 	H 	0.53280 0.36810 0.17860 0.10900
H 	H 	0.47300 0.36520 0.18400 0.11100
O 	O 	0.01410 0.83310 0.27270 -0.43800
O 	O 	0.00890 0.91570 0.28010 -0.36900
C 	C 	0.00870 0.87670 0.25130 0.44400
C 	C 	0.00340 0.88280 0.19580 -0.41900
H 	H 	0.03280 0.86810 0.17860 0.15200
H 	H 	0.97300 0.86520 0.18400 0.23700
O 	O 	0.01410 0.33310 0.77270 -0.44300
O 	O 	0.00890 0.41570 0.78010 -0.42700
C 	C 	0.00870 0.37670 0.75130 0.45700
C 	C 	0.00340 0.38280 0.69580 -0.43200
H 	H 	0.03280 0.36810 0.67860 0.15500
H 	H 	0.97300 0.36520 0.68400 0.24000
O 	O 	0.97730 0.01410 0.41690 -0.43300
O 	O 	0.96990 0.00890 0.33430 -0.39700
C 	C 	0.99870 0.00870 0.37330 0.60200
C 	C 	0.05420 0.00340 0.36720 -0.61500
H 	H 	0.07140 0.03280 0.38190 0.19800
H 	H 	0.06600 0.97300 0.38480 0.28300
O 	O 	0.97730 0.51410 0.91690 -0.35300
O 	O 	0.96990 0.50890 0.83430 -0.37000
C 	C 	0.99870 0.50870 0.87330 0.54600
C 	C 	0.05420 0.50340 0.86720 -0.41500
H 	H 	0.07140 0.53280 0.88190 0.15400
H 	H 	0.06600 0.47300 0.88480 0.15600
O 	O 	0.47730 0.01410 0.91690 -0.41300
O 	O 	0.46990 0.00890 0.83430 -0.42400
C 	C 	0.49870 0.00870 0.87330 0.45300
C 	C 	0.55420 0.00340 0.86720 -0.42800
H 	H 	0.57140 0.03280 0.88190 0.15800
H 	H 	0.56600 0.97300 0.88480 0.24200
O 	O 	0.47730 0.51410 0.41690 -0.39700
O 	O 	0.46990 0.50890 0.33430 -0.40700
C 	C 	0.49870 0.50870 0.37330 0.41200
C 	C 	0.55420 0.50340 0.36720 -0.24400
H 	H 	0.57140 0.53280 0.38190 0.11000
H 	H 	0.56600 0.47300 0.38480 0.11100
O 	O 	0.47730 0.23590 0.33310 -0.39700
O 	O 	0.46990 0.24110 0.41570 -0.40700
C 	C 	0.49870 0.24130 0.37670 0.41100
C 	C 	0.55420 0.24660 0.38280 -0.24300
H 	H 	0.57140 0.21720 0.36810 0.10900
H 	H 	0.56600 0.27700 0.36520 0.11100
O 	O 	0.47730 0.73590 0.83310 -0.38900
O 	O 	0.46990 0.74110 0.91570 -0.34700
C 	C 	0.49870 0.74130 0.87670 0.40000
C 	C 	0.55420 0.74660 0.88280 -0.23300
H 	H 	0.57140 0.71720 0.86810 0.10800
H 	H 	0.56600 0.77700 0.86520 0.11200
O 	O 	0.97730 0.23590 0.83310 -0.37700
O 	O 	0.96990 0.24110 0.91570 -0.31600
C 	C 	0.99870 0.24130 0.87670 0.53700
C 	C 	0.05420 0.24660 0.88280 -0.40400
H 	H 	0.07140 0.21720 0.86810 0.14700
H 	H 	0.06600 0.27700 0.86520 0.14900
O 	O 	0.97730 0.73590 0.33310 -0.38300
O 	O 	0.96990 0.74110 0.41570 -0.37500
C 	C 	0.99870 0.74130 0.37670 0.55300
C 	C 	0.05420 0.74660 0.38280 -0.42000
H 	H 	0.07140 0.71720 0.36810 0.15100
H 	H 	0.06600 0.77700 0.36520 0.15200
O 	O 	0.27270 0.73590 0.91690 -0.36400
O 	O 	0.28010 0.74110 0.83430 -0.40100
C 	C 	0.25130 0.74130 0.87330 0.40900
C 	C 	0.19580 0.74660 0.86720 -0.24400
H 	H 	0.17860 0.71720 0.88190 0.11300
H 	H 	0.18400 0.77700 0.88480 0.11800
O 	O 	0.27270 0.23590 0.41690 -0.39700
O 	O 	0.28010 0.24110 0.33430 -0.40700
C 	C 	0.25130 0.24130 0.37330 0.41100
C 	C 	0.19580 0.24660 0.36720 -0.24300
H 	H 	0.17860 0.21720 0.38190 0.10800
H 	H 	0.18400 0.27700 0.38480 0.11000
O 	O 	0.77270 0.73590 0.41690 -0.39400
O 	O 	0.78010 0.74110 0.33430 -0.40300
C 	C 	0.75130 0.74130 0.37330 0.41300
C 	C 	0.69580 0.74660 0.36720 -0.24500
H 	H 	0.67860 0.71720 0.38190 0.11000
H 	H 	0.68400 0.77700 0.38480 0.11300
O 	O 	0.77270 0.23590 0.91690 -0.36300
O 	O 	0.78010 0.24110 0.83430 -0.39900
C 	C 	0.75130 0.24130 0.87330 0.40700
C 	C 	0.69580 0.24660 0.86720 -0.24200
H 	H 	0.67860 0.21720 0.88190 0.11200
H 	H 	0.68400 0.27700 0.88480 0.11700
O 	O 	0.77270 0.51410 0.83310 -0.38800
O 	O 	0.78010 0.50890 0.91570 -0.34600
C 	C 	0.75130 0.50870 0.87670 0.39900
C 	C 	0.69580 0.50340 0.88280 -0.23100
H 	H 	0.67860 0.53280 0.86810 0.10700
H 	H 	0.68400 0.47300 0.86520 0.11000
O 	O 	0.77270 0.01410 0.33310 -0.44300
O 	O 	0.78010 0.00890 0.41570 -0.42700
C 	C 	0.75130 0.00870 0.37670 0.45700
C 	C 	0.69580 0.00340 0.38280 -0.43200
H 	H 	0.67860 0.03280 0.36810 0.15500
H 	H 	0.68400 0.97300 0.36520 0.24000
O 	O 	0.27270 0.51410 0.33310 -0.39700
O 	O 	0.28010 0.50890 0.41570 -0.40700
C 	C 	0.25130 0.50870 0.37670 0.41200
C 	C 	0.19580 0.50340 0.38280 -0.24300
H 	H 	0.17860 0.53280 0.36810 0.10900
H 	H 	0.18400 0.47300 0.36520 0.11100
O 	O 	0.27270 0.01410 0.83310 -0.43800
O 	O 	0.28010 0.00890 0.91570 -0.36900
C 	C 	0.25130 0.00870 0.87670 0.44400
C 	C 	0.19580 0.00340 0.88280 -0.41900
H 	H 	0.17860 0.03280 0.86810 0.15200
H 	H 	0.18400 0.97300 0.86520 0.23700
O 	O 	0.41690 0.97730 0.01410 -0.43300
O 	O 	0.33430 0.96990 0.00890 -0.39700
C 	C 	0.37330 0.99870 0.00870 0.60200
C 	C 	0.36720 0.05420 0.00340 -0.61500
H 	H 	0.38190 0.07140 0.03280 0.19800
H 	H 	0.38480 0.06600 0.97300 0.28300
O 	O 	0.41690 0.47730 0.51410 -0.39700
O 	O 	0.33430 0.46990 0.50890 -0.40700
C 	C 	0.37330 0.49870 0.50870 0.41200
C 	C 	0.36720 0.55420 0.50340 -0.24400
H 	H 	0.38190 0.57140 0.53280 0.11000
H 	H 	0.38480 0.56600 0.47300 0.11100
O 	O 	0.91690 0.97730 0.51410 -0.35300
O 	O 	0.83430 0.96990 0.50890 -0.37000
C 	C 	0.87330 0.99870 0.50870 0.54600
C 	C 	0.86720 0.05420 0.50340 -0.41500
H 	H 	0.88190 0.07140 0.53280 0.15400
H 	H 	0.88480 0.06600 0.47300 0.15600
O 	O 	0.91690 0.47730 0.01410 -0.41300
O 	O 	0.83430 0.46990 0.00890 -0.42400
C 	C 	0.87330 0.49870 0.00870 0.45300
C 	C 	0.86720 0.55420 0.00340 -0.42800
H 	H 	0.88190 0.57140 0.03280 0.15800
H 	H 	0.88480 0.56600 0.97300 0.24200
O 	O 	0.33310 0.47730 0.23590 -0.39700
O 	O 	0.41570 0.46990 0.24110 -0.40700
C 	C 	0.37670 0.49870 0.24130 0.41100
C 	C 	0.38280 0.55420 0.24660 -0.24300
H 	H 	0.36810 0.57140 0.21720 0.10900
H 	H 	0.36520 0.56600 0.27700 0.11100
O 	O 	0.33310 0.97730 0.73590 -0.38300
O 	O 	0.41570 0.96990 0.74110 -0.37500
C 	C 	0.37670 0.99870 0.74130 0.55300
C 	C 	0.38280 0.05420 0.74660 -0.42000
H 	H 	0.36810 0.07140 0.71720 0.15100
H 	H 	0.36520 0.06600 0.77700 0.15200
O 	O 	0.83310 0.47730 0.73590 -0.38900
O 	O 	0.91570 0.46990 0.74110 -0.34700
C 	C 	0.87670 0.49870 0.74130 0.40000
C 	C 	0.88280 0.55420 0.74660 -0.23300
H 	H 	0.86810 0.57140 0.71720 0.10800
H 	H 	0.86520 0.56600 0.77700 0.11200
O 	O 	0.83310 0.97730 0.23590 -0.37700
O 	O 	0.91570 0.96990 0.24110 -0.31600
C 	C 	0.87670 0.99870 0.24130 0.53700
C 	C 	0.88280 0.05420 0.24660 -0.40400
H 	H 	0.86810 0.07140 0.21720 0.14700
H 	H 	0.86520 0.06600 0.27700 0.14900
O 	O 	0.91690 0.27270 0.73590 -0.36400
O 	O 	0.83430 0.28010 0.74110 -0.40100
C 	C 	0.87330 0.25130 0.74130 0.40900
C 	C 	0.86720 0.19580 0.74660 -0.24400
H 	H 	0.88190 0.17860 0.71720 0.11300
H 	H 	0.88480 0.18400 0.77700 0.11800
O 	O 	0.91690 0.77270 0.23590 -0.36300
O 	O 	0.83430 0.78010 0.24110 -0.39900
C 	C 	0.87330 0.75130 0.24130 0.40700
C 	C 	0.86720 0.69580 0.24660 -0.24200
H 	H 	0.88190 0.67860 0.21720 0.11200
H 	H 	0.88480 0.68400 0.27700 0.11700
O 	O 	0.41690 0.27270 0.23590 -0.39700
O 	O 	0.33430 0.28010 0.24110 -0.40700
C 	C 	0.37330 0.25130 0.24130 0.41100
C 	C 	0.36720 0.19580 0.24660 -0.24300
H 	H 	0.38190 0.17860 0.21720 0.10800
H 	H 	0.38480 0.18400 0.27700 0.11000
O 	O 	0.41690 0.77270 0.73590 -0.39400
O 	O 	0.33430 0.78010 0.74110 -0.40300
C 	C 	0.37330 0.75130 0.74130 0.41300
C 	C 	0.36720 0.69580 0.74660 -0.24500
H 	H 	0.38190 0.67860 0.71720 0.11000
H 	H 	0.38480 0.68400 0.77700 0.11300
O 	O 	0.83310 0.77270 0.51410 -0.38800
O 	O 	0.91570 0.78010 0.50890 -0.34600
C 	C 	0.87670 0.75130 0.50870 0.39900
C 	C 	0.88280 0.69580 0.50340 -0.23100
H 	H 	0.86810 0.67860 0.53280 0.10700
H 	H 	0.86520 0.68400 0.47300 0.11000
O 	O 	0.83310 0.27270 0.01410 -0.43800
O 	O 	0.91570 0.28010 0.00890 -0.36900
C 	C 	0.87670 0.25130 0.00870 0.44400
C 	C 	0.88280 0.19580 0.00340 -0.41900
H 	H 	0.86810 0.17860 0.03280 0.15200
H 	H 	0.86520 0.18400 0.97300 0.23700
O 	O 	0.33310 0.77270 0.01410 -0.44300
O 	O 	0.41570 0.78010 0.00890 -0.42700
C 	C 	0.37670 0.75130 0.00870 0.45700
C 	C 	0.38280 0.69580 0.00340 -0.43200
H 	H 	0.36810 0.67860 0.03280 0.15500
H 	H 	0.36520 0.68400 0.97300 0.24000
O 	O 	0.33310 0.27270 0.51410 -0.39700
O 	O 	0.41570 0.28010 0.50890 -0.40700
C 	C 	0.37670 0.25130 0.50870 0.41200
C 	C 	0.38280 0.19580 0.50340 -0.24300
H 	H 	0.36810 0.17860 0.53280 0.10900
H 	H 	0.36520 0.18400 0.47300 0.11100
O 	O 	0.16690 0.26410 0.02270 -0.40000
O 	O 	0.08430 0.25890 0.03010 -0.38200
C 	C 	0.12330 0.25870 0.00130 0.26800
C 	C 	0.11720 0.25340 0.94580 -0.10200
H 	H 	0.13190 0.28280 0.92860 0.08400
H 	H 	0.13480 0.22300 0.93400 0.08300
O 	O 	0.16690 0.76410 0.52270 -0.40000
O 	O 	0.08430 0.75890 0.53010 -0.40300
C 	C 	0.12330 0.75870 0.50130 0.41700
C 	C 	0.11720 0.75340 0.44580 -0.26900
H 	H 	0.13190 0.78280 0.42860 0.11900
H 	H 	0.13480 0.72300 0.43400 0.11800
O 	O 	0.66690 0.26410 0.52270 -0.39800
O 	O 	0.58430 0.25890 0.53010 -0.40800
C 	C 	0.62330 0.25870 0.50130 0.41100
C 	C 	0.61720 0.25340 0.44580 -0.24400
H 	H 	0.63190 0.28280 0.42860 0.11000
H 	H 	0.63480 0.22300 0.43400 0.11000
O 	O 	0.66690 0.76410 0.02270 -0.39600
O 	O 	0.58430 0.75890 0.03010 -0.38600
C 	C 	0.62330 0.75870 0.00130 0.27000
C 	C 	0.61720 0.75340 0.94580 -0.08600
H 	H 	0.63190 0.78280 0.92860 0.07900
H 	H 	0.63480 0.72300 0.93400 0.07900
O 	O 	0.08310 0.48590 0.52270 -0.41700
O 	O 	0.16570 0.49110 0.53010 -0.41100
C 	C 	0.12670 0.49130 0.50130 0.41400
C 	C 	0.13280 0.49660 0.44580 -0.24500
H 	H 	0.11810 0.46720 0.42860 0.10800
H 	H 	0.11520 0.52700 0.43400 0.10900
O 	O 	0.08310 0.98590 0.02270 -0.33600
O 	O 	0.16570 0.99110 0.03010 -0.28400
C 	C 	0.12670 0.99130 0.00130 0.15500
C 	C 	0.13280 0.99660 0.94580 0.31400
H 	H 	0.11810 0.96720 0.92860 -0.02300
H 	H 	0.11520 0.02700 0.93400 -0.10400
O 	O 	0.58310 0.48590 0.02270 -0.39700
O 	O 	0.66570 0.49110 0.03010 -0.38600
C 	C 	0.62670 0.49130 0.00130 0.26700
C 	C 	0.63280 0.49660 0.94580 -0.08300
H 	H 	0.61810 0.46720 0.92860 0.07700
H 	H 	0.61520 0.52700 0.93400 0.07800
O 	O 	0.58310 0.98590 0.52270 -0.31600
O 	O 	0.66570 0.99110 0.53010 -0.30300
C 	C 	0.62670 0.99130 0.50130 0.29300
C 	C 	0.63280 0.99660 0.44580 0.16500
H 	H 	0.61810 0.96720 0.42860 0.00900
H 	H 	0.61520 0.02700 0.43400 -0.07300
O 	O 	0.66690 0.98590 0.72730 -0.31800
O 	O 	0.58430 0.99110 0.71990 -0.30400
C 	C 	0.62330 0.99130 0.74870 0.29600
C 	C 	0.61720 0.99660 0.80420 0.15400
H 	H 	0.63190 0.96720 0.82140 0.01400
H 	H 	0.63480 0.02700 0.81600 -0.06700
O 	O 	0.66690 0.48590 0.22730 -0.39900
O 	O 	0.58430 0.49110 0.21990 -0.40900
C 	C 	0.62330 0.49130 0.24870 0.41200
C 	C 	0.61720 0.49660 0.30420 -0.24400
H 	H 	0.63190 0.46720 0.32140 0.11000
H 	H 	0.63480 0.52700 0.31600 0.11100
O 	O 	0.16690 0.98590 0.22730 -0.31900
O 	O 	0.08430 0.99110 0.21990 -0.29700
C 	C 	0.12330 0.99130 0.24870 0.29500
C 	C 	0.11720 0.99660 0.30420 0.15000
H 	H 	0.13190 0.96720 0.32140 0.01400
H 	H 	0.13480 0.02700 0.31600 -0.07100
O 	O 	0.16690 0.48590 0.72730 -0.40100
O 	O 	0.08430 0.49110 0.71990 -0.40300
C 	C 	0.12330 0.49130 0.74870 0.41800
C 	C 	0.11720 0.49660 0.80420 -0.27000
H 	H 	0.13190 0.46720 0.82140 0.12000
H 	H 	0.13480 0.52700 0.81600 0.11900
O 	O 	0.58310 0.76410 0.22730 -0.39900
O 	O 	0.66570 0.75890 0.21990 -0.40900
C 	C 	0.62670 0.75870 0.24870 0.41300
C 	C 	0.63280 0.75340 0.30420 -0.24600
H 	H 	0.61810 0.78280 0.32140 0.11200
H 	H 	0.61520 0.72300 0.31600 0.11100
O 	O 	0.58310 0.26410 0.72730 -0.39800
O 	O 	0.66570 0.25890 0.71990 -0.40900
C 	C 	0.62670 0.25870 0.74870 0.41200
C 	C 	0.63280 0.25340 0.80420 -0.24600
H 	H 	0.61810 0.28280 0.82140 0.11300
H 	H 	0.61520 0.22300 0.81600 0.11200
O 	O 	0.08310 0.76410 0.72730 -0.41700
O 	O 	0.16570 0.75890 0.71990 -0.41100
C 	C 	0.12670 0.75870 0.74870 0.41600
C 	C 	0.13280 0.75340 0.80420 -0.24900
H 	H 	0.11810 0.78280 0.82140 0.11200
H 	H 	0.11520 0.72300 0.81600 0.11100
O 	O 	0.08310 0.26410 0.22730 -0.42000
O 	O 	0.16570 0.25890 0.21990 -0.41400
C 	C 	0.12670 0.25870 0.24870 0.41300
C 	C 	0.13280 0.25340 0.30420 -0.24500
H 	H 	0.11810 0.28280 0.32140 0.10800
H 	H 	0.11520 0.22300 0.31600 0.10800
O 	O 	0.76410 0.22730 0.58310 -0.39900
O 	O 	0.75890 0.21990 0.66570 -0.40900
C 	C 	0.75870 0.24870 0.62670 0.41300
C 	C 	0.75340 0.30420 0.63280 -0.24600
H 	H 	0.78280 0.32140 0.61810 0.11200
H 	H 	0.72300 0.31600 0.61520 0.11100
O 	O 	0.76410 0.72730 0.08310 -0.41700
O 	O 	0.75890 0.71990 0.16570 -0.41100
C 	C 	0.75870 0.74870 0.12670 0.41600
C 	C 	0.75340 0.80420 0.13280 -0.24900
H 	H 	0.78280 0.82140 0.11810 0.11200
H 	H 	0.72300 0.81600 0.11520 0.11100
O 	O 	0.26410 0.22730 0.08310 -0.42000
O 	O 	0.25890 0.21990 0.16570 -0.41400
C 	C 	0.25870 0.24870 0.12670 0.41300
C 	C 	0.25340 0.30420 0.13280 -0.24500
H 	H 	0.28280 0.32140 0.11810 0.10800
H 	H 	0.22300 0.31600 0.11520 0.10800
O 	O 	0.26410 0.72730 0.58310 -0.39800
O 	O 	0.25890 0.71990 0.66570 -0.40900
C 	C 	0.25870 0.74870 0.62670 0.41200
C 	C 	0.25340 0.80420 0.63280 -0.24600
H 	H 	0.28280 0.82140 0.61810 0.11300
H 	H 	0.22300 0.81600 0.61520 0.11200
O 	O 	0.98590 0.72730 0.66690 -0.31800
O 	O 	0.99110 0.71990 0.58430 -0.30400
C 	C 	0.99130 0.74870 0.62330 0.29600
C 	C 	0.99660 0.80420 0.61720 0.15400
H 	H 	0.96720 0.82140 0.63190 0.01400
H 	H 	0.02700 0.81600 0.63480 -0.06700
O 	O 	0.98590 0.22730 0.16690 -0.31900
O 	O 	0.99110 0.21990 0.08430 -0.29700
C 	C 	0.99130 0.24870 0.12330 0.29500
C 	C 	0.99660 0.30420 0.11720 0.15000
H 	H 	0.96720 0.32140 0.13190 0.01400
H 	H 	0.02700 0.31600 0.13480 -0.07100
O 	O 	0.48590 0.72730 0.16690 -0.40100
O 	O 	0.49110 0.71990 0.08430 -0.40300
C 	C 	0.49130 0.74870 0.12330 0.41800
C 	C 	0.49660 0.80420 0.11720 -0.27000
H 	H 	0.46720 0.82140 0.13190 0.12000
H 	H 	0.52700 0.81600 0.13480 0.11900
O 	O 	0.48590 0.22730 0.66690 -0.39900
O 	O 	0.49110 0.21990 0.58430 -0.40900
C 	C 	0.49130 0.24870 0.62330 0.41200
C 	C 	0.49660 0.30420 0.61720 -0.24400
H 	H 	0.46720 0.32140 0.63190 0.11000
H 	H 	0.52700 0.31600 0.63480 0.11100
O 	O 	0.48590 0.52270 0.08310 -0.41700
O 	O 	0.49110 0.53010 0.16570 -0.41100
C 	C 	0.49130 0.50130 0.12670 0.41400
C 	C 	0.49660 0.44580 0.13280 -0.24500
H 	H 	0.46720 0.42860 0.11810 0.10800
H 	H 	0.52700 0.43400 0.11520 0.10900
O 	O 	0.48590 0.02270 0.58310 -0.39700
O 	O 	0.49110 0.03010 0.66570 -0.38600
C 	C 	0.49130 0.00130 0.62670 0.26700
C 	C 	0.49660 0.94580 0.63280 -0.08300
H 	H 	0.46720 0.92860 0.61810 0.07700
H 	H 	0.52700 0.93400 0.61520 0.07800
O 	O 	0.98590 0.52270 0.58310 -0.31600
O 	O 	0.99110 0.53010 0.66570 -0.30300
C 	C 	0.99130 0.50130 0.62670 0.29300
C 	C 	0.99660 0.44580 0.63280 0.16500
H 	H 	0.96720 0.42860 0.61810 0.00900
H 	H 	0.02700 0.43400 0.61520 -0.07300
O 	O 	0.98590 0.02270 0.08310 -0.33600
O 	O 	0.99110 0.03010 0.16570 -0.28400
C 	C 	0.99130 0.00130 0.12670 0.15500
C 	C 	0.99660 0.94580 0.13280 0.31400
H 	H 	0.96720 0.92860 0.11810 -0.02300
H 	H 	0.02700 0.93400 0.11520 -0.10400
O 	O 	0.26410 0.02270 0.16690 -0.40000
O 	O 	0.25890 0.03010 0.08430 -0.38200
C 	C 	0.25870 0.00130 0.12330 0.26800
C 	C 	0.25340 0.94580 0.11720 -0.10200
H 	H 	0.28280 0.92860 0.13190 0.08400
H 	H 	0.22300 0.93400 0.13480 0.08300
O 	O 	0.26410 0.52270 0.66690 -0.39800
O 	O 	0.25890 0.53010 0.58430 -0.40800
C 	C 	0.25870 0.50130 0.62330 0.41100
C 	C 	0.25340 0.44580 0.61720 -0.24400
H 	H 	0.28280 0.42860 0.63190 0.11000
H 	H 	0.22300 0.43400 0.63480 0.11000
O 	O 	0.76410 0.02270 0.66690 -0.39600
O 	O 	0.75890 0.03010 0.58430 -0.38600
C 	C 	0.75870 0.00130 0.62330 0.27000
C 	C 	0.75340 0.94580 0.61720 -0.08600
H 	H 	0.78280 0.92860 0.63190 0.07900
H 	H 	0.72300 0.93400 0.63480 0.07900
O 	O 	0.76410 0.52270 0.16690 -0.40000
O 	O 	0.75890 0.53010 0.08430 -0.40300
C 	C 	0.75870 0.50130 0.12330 0.41700
C 	C 	0.75340 0.44580 0.11720 -0.26900
H 	H 	0.78280 0.42860 0.13190 0.11900
H 	H 	0.72300 0.43400 0.13480 0.11800
O 	O 	0.72730 0.66690 0.98590 -0.31800
O 	O 	0.71990 0.58430 0.99110 -0.30400
C 	C 	0.74870 0.62330 0.99130 0.29600
C 	C 	0.80420 0.61720 0.99660 0.15400
H 	H 	0.82140 0.63190 0.96720 0.01400
H 	H 	0.81600 0.63480 0.02700 -0.06700
O 	O 	0.72730 0.16690 0.48590 -0.40100
O 	O 	0.71990 0.08430 0.49110 -0.40300
C 	C 	0.74870 0.12330 0.49130 0.41800
C 	C 	0.80420 0.11720 0.49660 -0.27000
H 	H 	0.82140 0.13190 0.46720 0.12000
H 	H 	0.81600 0.13480 0.52700 0.11900
O 	O 	0.22730 0.66690 0.48590 -0.39900
O 	O 	0.21990 0.58430 0.49110 -0.40900
C 	C 	0.24870 0.62330 0.49130 0.41200
C 	C 	0.30420 0.61720 0.49660 -0.24400
H 	H 	0.32140 0.63190 0.46720 0.11000
H 	H 	0.31600 0.63480 0.52700 0.11100
O 	O 	0.22730 0.16690 0.98590 -0.31900
O 	O 	0.21990 0.08430 0.99110 -0.29700
C 	C 	0.24870 0.12330 0.99130 0.29500
C 	C 	0.30420 0.11720 0.99660 0.15000
H 	H 	0.32140 0.13190 0.96720 0.01400
H 	H 	0.31600 0.13480 0.02700 -0.07100
O 	O 	0.22730 0.58310 0.76410 -0.39900
O 	O 	0.21990 0.66570 0.75890 -0.40900
C 	C 	0.24870 0.62670 0.75870 0.41300
C 	C 	0.30420 0.63280 0.75340 -0.24600
H 	H 	0.32140 0.61810 0.78280 0.11200
H 	H 	0.31600 0.61520 0.72300 0.11100
O 	O 	0.22730 0.08310 0.26410 -0.42000
O 	O 	0.21990 0.16570 0.25890 -0.41400
C 	C 	0.24870 0.12670 0.25870 0.41300
C 	C 	0.30420 0.13280 0.25340 -0.24500
H 	H 	0.32140 0.11810 0.28280 0.10800
H 	H 	0.31600 0.11520 0.22300 0.10800
O 	O 	0.72730 0.58310 0.26410 -0.39800
O 	O 	0.71990 0.66570 0.25890 -0.40900
C 	C 	0.74870 0.62670 0.25870 0.41200
C 	C 	0.80420 0.63280 0.25340 -0.24600
H 	H 	0.82140 0.61810 0.28280 0.11300
H 	H 	0.81600 0.61520 0.22300 0.11200
O 	O 	0.72730 0.08310 0.76410 -0.41700
O 	O 	0.71990 0.16570 0.75890 -0.41100
C 	C 	0.74870 0.12670 0.75870 0.41600
C 	C 	0.80420 0.13280 0.75340 -0.24900
H 	H 	0.82140 0.11810 0.78280 0.11200
H 	H 	0.81600 0.11520 0.72300 0.11100
O 	O 	0.02270 0.16690 0.26410 -0.40000
O 	O 	0.03010 0.08430 0.25890 -0.38200
C 	C 	0.00130 0.12330 0.25870 0.26800
C 	C 	0.94580 0.11720 0.25340 -0.10200
H 	H 	0.92860 0.13190 0.28280 0.08400
H 	H 	0.93400 0.13480 0.22300 0.08300
O 	O 	0.02270 0.66690 0.76410 -0.39600
O 	O 	0.03010 0.58430 0.75890 -0.38600
C 	C 	0.00130 0.62330 0.75870 0.27000
C 	C 	0.94580 0.61720 0.75340 -0.08600
H 	H 	0.92860 0.63190 0.78280 0.07900
H 	H 	0.93400 0.63480 0.72300 0.07900
O 	O 	0.52270 0.16690 0.76410 -0.40000
O 	O 	0.53010 0.08430 0.75890 -0.40300
C 	C 	0.50130 0.12330 0.75870 0.41700
C 	C 	0.44580 0.11720 0.75340 -0.26900
H 	H 	0.42860 0.13190 0.78280 0.11900
H 	H 	0.43400 0.13480 0.72300 0.11800
O 	O 	0.52270 0.66690 0.26410 -0.39800
O 	O 	0.53010 0.58430 0.25890 -0.40800
C 	C 	0.50130 0.62330 0.25870 0.41100
C 	C 	0.44580 0.61720 0.25340 -0.24400
H 	H 	0.42860 0.63190 0.28280 0.11000
H 	H 	0.43400 0.63480 0.22300 0.11000
O 	O 	0.52270 0.08310 0.48590 -0.41700
O 	O 	0.53010 0.16570 0.49110 -0.41100
C 	C 	0.50130 0.12670 0.49130 0.41400
C 	C 	0.44580 0.13280 0.49660 -0.24500
H 	H 	0.42860 0.11810 0.46720 0.10800
H 	H 	0.43400 0.11520 0.52700 0.10900
O 	O 	0.52270 0.58310 0.98590 -0.31600
O 	O 	0.53010 0.66570 0.99110 -0.30300
C 	C 	0.50130 0.62670 0.99130 0.29300
C 	C 	0.44580 0.63280 0.99660 0.16500
H 	H 	0.42860 0.61810 0.96720 0.00900
H 	H 	0.43400 0.61520 0.02700 -0.07300
O 	O 	0.02270 0.08310 0.98590 -0.33600
O 	O 	0.03010 0.16570 0.99110 -0.28400
C 	C 	0.00130 0.12670 0.99130 0.15500
C 	C 	0.94580 0.13280 0.99660 0.31400
H 	H 	0.92860 0.11810 0.96720 -0.02300
H 	H 	0.93400 0.11520 0.02700 -0.10400
O 	O 	0.02270 0.58310 0.48590 -0.39700
O 	O 	0.03010 0.66570 0.49110 -0.38600
C 	C 	0.00130 0.62670 0.49130 0.26700
C 	C 	0.94580 0.63280 0.49660 -0.08300
H 	H 	0.92860 0.61810 0.46720 0.07700
H 	H 	0.93400 0.61520 0.52700 0.07800
O 	O 	0.98590 0.58310 0.02270 -0.31700
O 	O 	0.99110 0.66570 0.03010 -0.28300
C 	C 	0.99130 0.62670 0.00130 0.15700
C 	C 	0.99660 0.63280 0.94580 0.30600
H 	H 	0.96720 0.61810 0.92860 -0.01900
H 	H 	0.02700 0.61520 0.93400 -0.09800
O 	O 	0.98590 0.08310 0.52270 -0.33500
O 	O 	0.99110 0.16570 0.53010 -0.30400
C 	C 	0.99130 0.12670 0.50130 0.29300
C 	C 	0.99660 0.13280 0.44580 0.17200
H 	H 	0.96720 0.11810 0.42860 0.00500
H 	H 	0.02700 0.11520 0.43400 -0.07800
O 	O 	0.48590 0.58310 0.52270 -0.39700
O 	O 	0.49110 0.66570 0.53010 -0.40800
C 	C 	0.49130 0.62670 0.50130 0.41200
C 	C 	0.49660 0.63280 0.44580 -0.24400
H 	H 	0.46720 0.61810 0.42860 0.11000
H 	H 	0.52700 0.61520 0.43400 0.11100
O 	O 	0.48590 0.08310 0.02270 -0.41700
O 	O 	0.49110 0.16570 0.03010 -0.38900
C 	C 	0.49130 0.12670 0.00130 0.26700
C 	C 	0.49660 0.13280 0.94580 -0.08100
H 	H 	0.46720 0.11810 0.92860 0.07500
H 	H 	0.52700 0.11520 0.93400 0.07500
O 	O 	0.76410 0.66690 0.52270 -0.39700
O 	O 	0.75890 0.58430 0.53010 -0.40700
C 	C 	0.75870 0.62330 0.50130 0.41300
C 	C 	0.75340 0.61720 0.44580 -0.24500
H 	H 	0.78280 0.63190 0.42860 0.11200
H 	H 	0.72300 0.63480 0.43400 0.11100
O 	O 	0.76410 0.16690 0.02270 -0.39900
O 	O 	0.75890 0.08430 0.03010 -0.38100
C 	C 	0.75870 0.12330 0.00130 0.27300
C 	C 	0.75340 0.11720 0.94580 -0.10700
H 	H 	0.78280 0.13190 0.92860 0.08600
H 	H 	0.72300 0.13480 0.93400 0.08400
O 	O 	0.26410 0.66690 0.02270 -0.39700
O 	O 	0.25890 0.58430 0.03010 -0.38700
C 	C 	0.25870 0.62330 0.00130 0.26600
C 	C 	0.25340 0.61720 0.94580 -0.08100
H 	H 	0.28280 0.63190 0.92860 0.07700
H 	H 	0.22300 0.63480 0.93400 0.07700
O 	O 	0.26410 0.16690 0.52270 -0.40100
O 	O 	0.25890 0.08430 0.53010 -0.40300
C 	C 	0.25870 0.12330 0.50130 0.41600
C 	C 	0.25340 0.11720 0.44580 -0.26800
H 	H 	0.28280 0.13190 0.42860 0.11700
H 	H 	0.22300 0.13480 0.43400 0.11700
O 	O 	0.26410 0.08310 0.72730 -0.41800
O 	O 	0.25890 0.16570 0.71990 -0.41200
C 	C 	0.25870 0.12670 0.74870 0.41400
C 	C 	0.25340 0.13280 0.80420 -0.24700
H 	H 	0.28280 0.11810 0.82140 0.11100
H 	H 	0.22300 0.11520 0.81600 0.11000
O 	O 	0.26410 0.58310 0.22730 -0.40000
O 	O 	0.25890 0.66570 0.21990 -0.41000
C 	C 	0.25870 0.62670 0.24870 0.41100
C 	C 	0.25340 0.63280 0.30420 -0.24400
H 	H 	0.28280 0.61810 0.32140 0.11000
H 	H 	0.22300 0.61520 0.31600 0.11000
O 	O 	0.76410 0.08310 0.22730 -0.41900
O 	O 	0.75890 0.16570 0.21990 -0.41300
C 	C 	0.75870 0.12670 0.24870 0.41500
C 	C 	0.75340 0.13280 0.30420 -0.24700
H 	H 	0.78280 0.11810 0.32140 0.11000
H 	H 	0.72300 0.11520 0.31600 0.10900
O 	O 	0.76410 0.58310 0.72730 -0.39800
O 	O 	0.75890 0.66570 0.71990 -0.40800
C 	C 	0.75870 0.62670 0.74870 0.41400
C 	C 	0.75340 0.63280 0.80420 -0.24800
H 	H 	0.78280 0.61810 0.82140 0.11400
H 	H 	0.72300 0.61520 0.81600 0.11300
O 	O 	0.48590 0.16690 0.22730 -0.40200
O 	O 	0.49110 0.08430 0.21990 -0.40400
C 	C 	0.49130 0.12330 0.24870 0.41700
C 	C 	0.49660 0.11720 0.30420 -0.26800
H 	H 	0.46720 0.13190 0.32140 0.11700
H 	H 	0.52700 0.13480 0.31600 0.11700
O 	O 	0.48590 0.66690 0.72730 -0.39800
O 	O 	0.49110 0.58430 0.71990 -0.40800
C 	C 	0.49130 0.62330 0.74870 0.41300
C 	C 	0.49660 0.61720 0.80420 -0.24700
H 	H 	0.46720 0.63190 0.82140 0.11300
H 	H 	0.52700 0.63480 0.81600 0.11300
O 	O 	0.98590 0.16690 0.72730 -0.32000
O 	O 	0.99110 0.08430 0.71990 -0.29800
C 	C 	0.99130 0.12330 0.74870 0.29900
C 	C 	0.99660 0.11720 0.80420 0.13700
H 	H 	0.96720 0.13190 0.82140 0.01900
H 	H 	0.02700 0.13480 0.81600 -0.06400
O 	O 	0.98590 0.66690 0.22730 -0.31700
O 	O 	0.99110 0.58430 0.21990 -0.30300
C 	C 	0.99130 0.62330 0.24870 0.29200
C 	C 	0.99660 0.61720 0.30420 0.16800
H 	H 	0.96720 0.63190 0.32140 0.00800
H 	H 	0.02700 0.63480 0.31600 -0.07400
O 	O 	0.02270 0.98590 0.58310 -0.31700
O 	O 	0.03010 0.99110 0.66570 -0.28300
C 	C 	0.00130 0.99130 0.62670 0.15700
C 	C 	0.94580 0.99660 0.63280 0.30600
H 	H 	0.92860 0.96720 0.61810 -0.01900
H 	H 	0.93400 0.02700 0.61520 -0.09800
O 	O 	0.02270 0.48590 0.08310 -0.41700
O 	O 	0.03010 0.49110 0.16570 -0.38900
C 	C 	0.00130 0.49130 0.12670 0.26700
C 	C 	0.94580 0.49660 0.13280 -0.08100
H 	H 	0.92860 0.46720 0.11810 0.07500
H 	H 	0.93400 0.52700 0.11520 0.07500
O 	O 	0.52270 0.98590 0.08310 -0.33500
O 	O 	0.53010 0.99110 0.16570 -0.30400
C 	C 	0.50130 0.99130 0.12670 0.29300
C 	C 	0.44580 0.99660 0.13280 0.17200
H 	H 	0.42860 0.96720 0.11810 0.00500
H 	H 	0.43400 0.02700 0.11520 -0.07800
O 	O 	0.52270 0.48590 0.58310 -0.39700
O 	O 	0.53010 0.49110 0.66570 -0.40800
C 	C 	0.50130 0.49130 0.62670 0.41200
C 	C 	0.44580 0.49660 0.63280 -0.24400
H 	H 	0.42860 0.46720 0.61810 0.11000
H 	H 	0.43400 0.52700 0.61520 0.11100
O 	O 	0.52270 0.76410 0.66690 -0.39700
O 	O 	0.53010 0.75890 0.58430 -0.40700
C 	C 	0.50130 0.75870 0.62330 0.41300
C 	C 	0.44580 0.75340 0.61720 -0.24500
H 	H 	0.42860 0.78280 0.63190 0.11200
H 	H 	0.43400 0.72300 0.63480 0.11100
O 	O 	0.52270 0.26410 0.16690 -0.40100
O 	O 	0.53010 0.25890 0.08430 -0.40300
C 	C 	0.50130 0.25870 0.12330 0.41600
C 	C 	0.44580 0.25340 0.11720 -0.26800
H 	H 	0.42860 0.28280 0.13190 0.11700
H 	H 	0.43400 0.22300 0.13480 0.11700
O 	O 	0.02270 0.76410 0.16690 -0.39900
O 	O 	0.03010 0.75890 0.08430 -0.38100
C 	C 	0.00130 0.75870 0.12330 0.27300
C 	C 	0.94580 0.75340 0.11720 -0.10700
H 	H 	0.92860 0.78280 0.13190 0.08600
H 	H 	0.93400 0.72300 0.13480 0.08400
O 	O 	0.02270 0.26410 0.66690 -0.39700
O 	O 	0.03010 0.25890 0.58430 -0.38700
C 	C 	0.00130 0.25870 0.62330 0.26600
C 	C 	0.94580 0.25340 0.61720 -0.08100
H 	H 	0.92860 0.28280 0.63190 0.07700
H 	H 	0.93400 0.22300 0.63480 0.07700
O 	O 	0.72730 0.26410 0.08310 -0.41800
O 	O 	0.71990 0.25890 0.16570 -0.41200
C 	C 	0.74870 0.25870 0.12670 0.41400
C 	C 	0.80420 0.25340 0.13280 -0.24700
H 	H 	0.82140 0.28280 0.11810 0.11100
H 	H 	0.81600 0.22300 0.11520 0.11000
O 	O 	0.72730 0.76410 0.58310 -0.39800
O 	O 	0.71990 0.75890 0.66570 -0.40800
C 	C 	0.74870 0.75870 0.62670 0.41400
C 	C 	0.80420 0.75340 0.63280 -0.24800
H 	H 	0.82140 0.78280 0.61810 0.11400
H 	H 	0.81600 0.72300 0.61520 0.11300
O 	O 	0.22730 0.26410 0.58310 -0.40000
O 	O 	0.21990 0.25890 0.66570 -0.41000
C 	C 	0.24870 0.25870 0.62670 0.41100
C 	C 	0.30420 0.25340 0.63280 -0.24400
H 	H 	0.32140 0.28280 0.61810 0.11000
H 	H 	0.31600 0.22300 0.61520 0.11000
O 	O 	0.22730 0.76410 0.08310 -0.41900
O 	O 	0.21990 0.75890 0.16570 -0.41300
C 	C 	0.24870 0.75870 0.12670 0.41500
C 	C 	0.30420 0.75340 0.13280 -0.24700
H 	H 	0.32140 0.78280 0.11810 0.11000
H 	H 	0.31600 0.72300 0.11520 0.10900
O 	O 	0.22730 0.48590 0.16690 -0.40200
O 	O 	0.21990 0.49110 0.08430 -0.40400
C 	C 	0.24870 0.49130 0.12330 0.41700
C 	C 	0.30420 0.49660 0.11720 -0.26800
H 	H 	0.32140 0.46720 0.13190 0.11700
H 	H 	0.31600 0.52700 0.13480 0.11700
O 	O 	0.22730 0.98590 0.66690 -0.31700
O 	O 	0.21990 0.99110 0.58430 -0.30300
C 	C 	0.24870 0.99130 0.62330 0.29200
C 	C 	0.30420 0.99660 0.61720 0.16800
H 	H 	0.32140 0.96720 0.63190 0.00800
H 	H 	0.31600 0.02700 0.63480 -0.07400
O 	O 	0.72730 0.48590 0.66690 -0.39800
O 	O 	0.71990 0.49110 0.58430 -0.40800
C 	C 	0.74870 0.49130 0.62330 0.41300
C 	C 	0.80420 0.49660 0.61720 -0.24700
H 	H 	0.82140 0.46720 0.63190 0.11300
H 	H 	0.81600 0.52700 0.63480 0.11300
O 	O 	0.72730 0.98590 0.16690 -0.32000
O 	O 	0.71990 0.99110 0.08430 -0.29800
C 	C 	0.74870 0.99130 0.12330 0.29900
C 	C 	0.80420 0.99660 0.11720 0.13700
H 	H 	0.82140 0.96720 0.13190 0.01900
H 	H 	0.81600 0.02700 0.13480 -0.06400
O 	O 	0.58310 0.02270 0.98590 -0.31700
O 	O 	0.66570 0.03010 0.99110 -0.28300
C 	C 	0.62670 0.00130 0.99130 0.15700
C 	C 	0.63280 0.94580 0.99660 0.30600
H 	H 	0.61810 0.92860 0.96720 -0.01900
H 	H 	0.61520 0.93400 0.02700 -0.09800
O 	O 	0.58310 0.52270 0.48590 -0.39700
O 	O 	0.66570 0.53010 0.49110 -0.40800
C 	C 	0.62670 0.50130 0.49130 0.41200
C 	C 	0.63280 0.44580 0.49660 -0.24400
H 	H 	0.61810 0.42860 0.46720 0.11000
H 	H 	0.61520 0.43400 0.52700 0.11100
O 	O 	0.08310 0.02270 0.48590 -0.41700
O 	O 	0.16570 0.03010 0.49110 -0.38900
C 	C 	0.12670 0.00130 0.49130 0.26700
C 	C 	0.13280 0.94580 0.49660 -0.08100
H 	H 	0.11810 0.92860 0.46720 0.07500
H 	H 	0.11520 0.93400 0.52700 0.07500
O 	O 	0.08310 0.52270 0.98590 -0.33500
O 	O 	0.16570 0.53010 0.99110 -0.30400
C 	C 	0.12670 0.50130 0.99130 0.29300
C 	C 	0.13280 0.44580 0.99660 0.17200
H 	H 	0.11810 0.42860 0.96720 0.00500
H 	H 	0.11520 0.43400 0.02700 -0.07800
O 	O 	0.66690 0.52270 0.76410 -0.39700
O 	O 	0.58430 0.53010 0.75890 -0.40700
C 	C 	0.62330 0.50130 0.75870 0.41300
C 	C 	0.61720 0.44580 0.75340 -0.24500
H 	H 	0.63190 0.42860 0.78280 0.11200
H 	H 	0.63480 0.43400 0.72300 0.11100
O 	O 	0.66690 0.02270 0.26410 -0.39700
O 	O 	0.58430 0.03010 0.25890 -0.38700
C 	C 	0.62330 0.00130 0.25870 0.26600
C 	C 	0.61720 0.94580 0.25340 -0.08100
H 	H 	0.63190 0.92860 0.28280 0.07700
H 	H 	0.63480 0.93400 0.22300 0.07700
O 	O 	0.16690 0.52270 0.26410 -0.40100
O 	O 	0.08430 0.53010 0.25890 -0.40300
C 	C 	0.12330 0.50130 0.25870 0.41600
C 	C 	0.11720 0.44580 0.25340 -0.26800
H 	H 	0.13190 0.42860 0.28280 0.11700
H 	H 	0.13480 0.43400 0.22300 0.11700
O 	O 	0.16690 0.02270 0.76410 -0.39900
O 	O 	0.08430 0.03010 0.75890 -0.38100
C 	C 	0.12330 0.00130 0.75870 0.27300
C 	C 	0.11720 0.94580 0.75340 -0.10700
H 	H 	0.13190 0.92860 0.78280 0.08600
H 	H 	0.13480 0.93400 0.72300 0.08400
O 	O 	0.08310 0.72730 0.26410 -0.41800
O 	O 	0.16570 0.71990 0.25890 -0.41200
C 	C 	0.12670 0.74870 0.25870 0.41400
C 	C 	0.13280 0.80420 0.25340 -0.24700
H 	H 	0.11810 0.82140 0.28280 0.11100
H 	H 	0.11520 0.81600 0.22300 0.11000
O 	O 	0.08310 0.22730 0.76410 -0.41900
O 	O 	0.16570 0.21990 0.75890 -0.41300
C 	C 	0.12670 0.24870 0.75870 0.41500
C 	C 	0.13280 0.30420 0.75340 -0.24700
H 	H 	0.11810 0.32140 0.78280 0.11000
H 	H 	0.11520 0.31600 0.72300 0.10900
O 	O 	0.58310 0.72730 0.76410 -0.39800
O 	O 	0.66570 0.71990 0.75890 -0.40800
C 	C 	0.62670 0.74870 0.75870 0.41400
C 	C 	0.63280 0.80420 0.75340 -0.24800
H 	H 	0.61810 0.82140 0.78280 0.11400
H 	H 	0.61520 0.81600 0.72300 0.11300
O 	O 	0.58310 0.22730 0.26410 -0.40000
O 	O 	0.66570 0.21990 0.25890 -0.41000
C 	C 	0.62670 0.24870 0.25870 0.41100
C 	C 	0.63280 0.30420 0.25340 -0.24400
H 	H 	0.61810 0.32140 0.28280 0.11000
H 	H 	0.61520 0.31600 0.22300 0.11000
O 	O 	0.16690 0.22730 0.48590 -0.40200
O 	O 	0.08430 0.21990 0.49110 -0.40400
C 	C 	0.12330 0.24870 0.49130 0.41700
C 	C 	0.11720 0.30420 0.49660 -0.26800
H 	H 	0.13190 0.32140 0.46720 0.11700
H 	H 	0.13480 0.31600 0.52700 0.11700
O 	O 	0.16690 0.72730 0.98590 -0.32000
O 	O 	0.08430 0.71990 0.99110 -0.29800
C 	C 	0.12330 0.74870 0.99130 0.29900
C 	C 	0.11720 0.80420 0.99660 0.13700
H 	H 	0.13190 0.82140 0.96720 0.01900
H 	H 	0.13480 0.81600 0.02700 -0.06400
O 	O 	0.66690 0.22730 0.98590 -0.31700
O 	O 	0.58430 0.21990 0.99110 -0.30300
C 	C 	0.62330 0.24870 0.99130 0.29200
C 	C 	0.61720 0.30420 0.99660 0.16800
H 	H 	0.63190 0.32140 0.96720 0.00800
H 	H 	0.63480 0.31600 0.02700 -0.07400
O 	O 	0.66690 0.72730 0.48590 -0.39800
O 	O 	0.58430 0.71990 0.49110 -0.40800
C 	C 	0.62330 0.74870 0.49130 0.41300
C 	C 	0.61720 0.80420 0.49660 -0.24700
H 	H 	0.63190 0.82140 0.46720 0.11300
H 	H 	0.63480 0.81600 0.52700 0.11300
O 	O 	0.83310 0.73590 0.97730 -0.37600
O 	O 	0.91570 0.74110 0.96990 -0.31700
C 	C 	0.87670 0.74130 0.99870 0.53600
C 	C 	0.88280 0.74660 0.05420 -0.40200
H 	H 	0.86810 0.71720 0.07140 0.14800
H 	H 	0.86520 0.77700 0.06600 0.15000
O 	O 	0.83310 0.23590 0.47730 -0.39000
O 	O 	0.91570 0.24110 0.46990 -0.34700
C 	C 	0.87670 0.24130 0.49870 0.39800
C 	C 	0.88280 0.24660 0.55420 -0.23000
H 	H 	0.86810 0.21720 0.57140 0.10600
H 	H 	0.86520 0.27700 0.56600 0.11000
O 	O 	0.33310 0.73590 0.47730 -0.39600
O 	O 	0.41570 0.74110 0.46990 -0.40600
C 	C 	0.37670 0.74130 0.49870 0.41300
C 	C 	0.38280 0.74660 0.55420 -0.24500
H 	H 	0.36810 0.71720 0.57140 0.11000
H 	H 	0.36520 0.77700 0.56600 0.11300
O 	O 	0.33310 0.23590 0.97730 -0.38400
O 	O 	0.41570 0.24110 0.96990 -0.37500
C 	C 	0.37670 0.24130 0.99870 0.55500
C 	C 	0.38280 0.24660 0.05420 -0.42200
H 	H 	0.36810 0.21720 0.07140 0.15100
H 	H 	0.36520 0.27700 0.06600 0.15100
O 	O 	0.91690 0.51410 0.47730 -0.36500
O 	O 	0.83430 0.50890 0.46990 -0.40200
C 	C 	0.87330 0.50870 0.49870 0.40800
C 	C 	0.86720 0.50340 0.55420 -0.24300
H 	H 	0.88190 0.53280 0.57140 0.11300
H 	H 	0.88480 0.47300 0.56600 0.11700
O 	O 	0.91690 0.01410 0.97730 -0.40100
O 	O 	0.83430 0.00890 0.96990 -0.39200
C 	C 	0.87330 0.00870 0.99870 0.59200
C 	C 	0.86720 0.00340 0.05420 -0.60300
H 	H 	0.88190 0.03280 0.07140 0.19900
H 	H 	0.88480 0.97300 0.06600 0.28300
O 	O 	0.41690 0.51410 0.97730 -0.38400
O 	O 	0.33430 0.50890 0.96990 -0.37500
C 	C 	0.37330 0.50870 0.99870 0.55400
C 	C 	0.36720 0.50340 0.05420 -0.42100
H 	H 	0.38190 0.53280 0.07140 0.15200
H 	H 	0.38480 0.47300 0.06600 0.15100
O 	O 	0.41690 0.01410 0.47730 -0.44600
O 	O 	0.33430 0.00890 0.46990 -0.43000
C 	C 	0.37330 0.00870 0.49870 0.45800
C 	C 	0.36720 0.00340 0.55420 -0.43400
H 	H 	0.38190 0.03280 0.57140 0.15500
H 	H 	0.38480 0.97300 0.56600 0.24000
O 	O 	0.33310 0.01410 0.27270 -0.44700
O 	O 	0.41570 0.00890 0.28010 -0.43000
C 	C 	0.37670 0.00870 0.25130 0.45800
C 	C 	0.38280 0.00340 0.19580 -0.43600
H 	H 	0.36810 0.03280 0.17860 0.15500
H 	H 	0.36520 0.97300 0.18400 0.24200
O 	O 	0.33310 0.51410 0.77270 -0.39500
O 	O 	0.41570 0.50890 0.78010 -0.40500
C 	C 	0.37670 0.50870 0.75130 0.41200
C 	C 	0.38280 0.50340 0.69580 -0.24400
H 	H 	0.36810 0.53280 0.67860 0.11000
H 	H 	0.36520 0.47300 0.68400 0.11100
O 	O 	0.83310 0.01410 0.77270 -0.43500
O 	O 	0.91570 0.00890 0.78010 -0.36800
C 	C 	0.87670 0.00870 0.75130 0.44400
C 	C 	0.88280 0.00340 0.69580 -0.41600
H 	H 	0.86810 0.03280 0.67860 0.15100
H 	H 	0.86520 0.97300 0.68400 0.23500
O 	O 	0.83310 0.51410 0.27270 -0.39000
O 	O 	0.91570 0.50890 0.28010 -0.34700
C 	C 	0.87670 0.50870 0.25130 0.39900
C 	C 	0.88280 0.50340 0.19580 -0.23100
H 	H 	0.86810 0.53280 0.17860 0.10700
H 	H 	0.86520 0.47300 0.18400 0.11000
O 	O 	0.41690 0.23590 0.77270 -0.39500
O 	O 	0.33430 0.24110 0.78010 -0.40500
C 	C 	0.37330 0.24130 0.75130 0.41100
C 	C 	0.36720 0.24660 0.69580 -0.24300
H 	H 	0.38190 0.21720 0.67860 0.10900
H 	H 	0.38480 0.27700 0.68400 0.11100
O 	O 	0.41690 0.73590 0.27270 -0.39600
O 	O 	0.33430 0.74110 0.28010 -0.40600
C 	C 	0.37330 0.74130 0.25130 0.41300
C 	C 	0.36720 0.74660 0.19580 -0.24500
H 	H 	0.38190 0.71720 0.17860 0.11000
H 	H 	0.38480 0.77700 0.18400 0.11300
O 	O 	0.91690 0.23590 0.27270 -0.36500
O 	O 	0.83430 0.24110 0.28010 -0.40200
C 	C 	0.87330 0.24130 0.25130 0.40700
C 	C 	0.86720 0.24660 0.19580 -0.24200
H 	H 	0.88190 0.21720 0.17860 0.11200
H 	H 	0.88480 0.27700 0.18400 0.11600
O 	O 	0.91690 0.73590 0.77270 -0.36300
O 	O 	0.83430 0.74110 0.78010 -0.39800
C 	C 	0.87330 0.74130 0.75130 0.40900
C 	C 	0.86720 0.74660 0.69580 -0.24400
H 	H 	0.88190 0.71720 0.67860 0.11400
H 	H 	0.88480 0.77700 0.68400 0.11900
O 	O 	0.23590 0.77270 0.41690 -0.39500
O 	O 	0.24110 0.78010 0.33430 -0.40500
C 	C 	0.24130 0.75130 0.37330 0.41100
C 	C 	0.24660 0.69580 0.36720 -0.24300
H 	H 	0.21720 0.67860 0.38190 0.10900
H 	H 	0.27700 0.68400 0.38480 0.11100
O 	O 	0.23590 0.27270 0.91690 -0.36500
O 	O 	0.24110 0.28010 0.83430 -0.40200
C 	C 	0.24130 0.25130 0.87330 0.40700
C 	C 	0.24660 0.19580 0.86720 -0.24200
H 	H 	0.21720 0.17860 0.88190 0.11200
H 	H 	0.27700 0.18400 0.88480 0.11600
O 	O 	0.73590 0.77270 0.91690 -0.36300
O 	O 	0.74110 0.78010 0.83430 -0.39800
C 	C 	0.74130 0.75130 0.87330 0.40900
C 	C 	0.74660 0.69580 0.86720 -0.24400
H 	H 	0.71720 0.67860 0.88190 0.11400
H 	H 	0.77700 0.68400 0.88480 0.11900
O 	O 	0.73590 0.27270 0.41690 -0.39600
O 	O 	0.74110 0.28010 0.33430 -0.40600
C 	C 	0.74130 0.25130 0.37330 0.41300
C 	C 	0.74660 0.19580 0.36720 -0.24500
H 	H 	0.71720 0.17860 0.38190 0.11000
H 	H 	0.77700 0.18400 0.38480 0.11300
O 	O 	0.01410 0.27270 0.33310 -0.44700
O 	O 	0.00890 0.28010 0.41570 -0.43000
C 	C 	0.00870 0.25130 0.37670 0.45800
C 	C 	0.00340 0.19580 0.38280 -0.43600
H 	H 	0.03280 0.17860 0.36810 0.15500
H 	H 	0.97300 0.18400 0.36520 0.24200
O 	O 	0.01410 0.77270 0.83310 -0.43500
O 	O 	0.00890 0.78010 0.91570 -0.36800
C 	C 	0.00870 0.75130 0.87670 0.44400
C 	C 	0.00340 0.69580 0.88280 -0.41600
H 	H 	0.03280 0.67860 0.86810 0.15100
H 	H 	0.97300 0.68400 0.86520 0.23500
O 	O 	0.51410 0.27270 0.83310 -0.39000
O 	O 	0.50890 0.28010 0.91570 -0.34700
C 	C 	0.50870 0.25130 0.87670 0.39900
C 	C 	0.50340 0.19580 0.88280 -0.23100
H 	H 	0.53280 0.17860 0.86810 0.10700
H 	H 	0.47300 0.18400 0.86520 0.11000
O 	O 	0.51410 0.77270 0.33310 -0.39500
O 	O 	0.50890 0.78010 0.41570 -0.40500
C 	C 	0.50870 0.75130 0.37670 0.41200
C 	C 	0.50340 0.69580 0.38280 -0.24400
H 	H 	0.53280 0.67860 0.36810 0.11000
H 	H 	0.47300 0.68400 0.36520 0.11100
O 	O 	0.51410 0.47730 0.91690 -0.36500
O 	O 	0.50890 0.46990 0.83430 -0.40200
C 	C 	0.50870 0.49870 0.87330 0.40800
C 	C 	0.50340 0.55420 0.86720 -0.24300
H 	H 	0.53280 0.57140 0.88190 0.11300
H 	H 	0.47300 0.56600 0.88480 0.11700
O 	O 	0.51410 0.97730 0.41690 -0.38400
O 	O 	0.50890 0.96990 0.33430 -0.37500
C 	C 	0.50870 0.99870 0.37330 0.55400
C 	C 	0.50340 0.05420 0.36720 -0.42100
H 	H 	0.53280 0.07140 0.38190 0.15200
H 	H 	0.47300 0.06600 0.38480 0.15100
O 	O 	0.01410 0.47730 0.41690 -0.44600
O 	O 	0.00890 0.46990 0.33430 -0.43000
C 	C 	0.00870 0.49870 0.37330 0.45800
C 	C 	0.00340 0.55420 0.36720 -0.43400
H 	H 	0.03280 0.57140 0.38190 0.15500
H 	H 	0.97300 0.56600 0.38480 0.24000
O 	O 	0.01410 0.97730 0.91690 -0.40100
O 	O 	0.00890 0.96990 0.83430 -0.39200
C 	C 	0.00870 0.99870 0.87330 0.59200
C 	C 	0.00340 0.05420 0.86720 -0.60300
H 	H 	0.03280 0.07140 0.88190 0.19900
H 	H 	0.97300 0.06600 0.88480 0.28300
O 	O 	0.73590 0.97730 0.83310 -0.37600
O 	O 	0.74110 0.96990 0.91570 -0.31700
C 	C 	0.74130 0.99870 0.87670 0.53600
C 	C 	0.74660 0.05420 0.88280 -0.40200
H 	H 	0.71720 0.07140 0.86810 0.14800
H 	H 	0.77700 0.06600 0.86520 0.15000
O 	O 	0.73590 0.47730 0.33310 -0.39600
O 	O 	0.74110 0.46990 0.41570 -0.40600
C 	C 	0.74130 0.49870 0.37670 0.41300
C 	C 	0.74660 0.55420 0.38280 -0.24500
H 	H 	0.71720 0.57140 0.36810 0.11000
H 	H 	0.77700 0.56600 0.36520 0.11300
O 	O 	0.23590 0.97730 0.33310 -0.38400
O 	O 	0.24110 0.96990 0.41570 -0.37500
C 	C 	0.24130 0.99870 0.37670 0.55500
C 	C 	0.24660 0.05420 0.38280 -0.42200
H 	H 	0.21720 0.07140 0.36810 0.15100
H 	H 	0.27700 0.06600 0.36520 0.15100
O 	O 	0.23590 0.47730 0.83310 -0.39000
O 	O 	0.24110 0.46990 0.91570 -0.34700
C 	C 	0.24130 0.49870 0.87670 0.39800
C 	C 	0.24660 0.55420 0.88280 -0.23000
H 	H 	0.21720 0.57140 0.86810 0.10600
H 	H 	0.27700 0.56600 0.86520 0.11000
O 	O 	0.27270 0.33310 0.01410 -0.44700
O 	O 	0.28010 0.41570 0.00890 -0.43000
C 	C 	0.25130 0.37670 0.00870 0.45800
C 	C 	0.19580 0.38280 0.00340 -0.43600
H 	H 	0.17860 0.36810 0.03280 0.15500
H 	H 	0.18400 0.36520 0.97300 0.24200
O 	O 	0.27270 0.83310 0.51410 -0.39000
O 	O 	0.28010 0.91570 0.50890 -0.34700
C 	C 	0.25130 0.87670 0.50870 0.39900
C 	C 	0.19580 0.88280 0.50340 -0.23100
H 	H 	0.17860 0.86810 0.53280 0.10700
H 	H 	0.18400 0.86520 0.47300 0.11000
O 	O 	0.77270 0.33310 0.51410 -0.39500
O 	O 	0.78010 0.41570 0.50890 -0.40500
C 	C 	0.75130 0.37670 0.50870 0.41200
C 	C 	0.69580 0.38280 0.50340 -0.24400
H 	H 	0.67860 0.36810 0.53280 0.11000
H 	H 	0.68400 0.36520 0.47300 0.11100
O 	O 	0.77270 0.83310 0.01410 -0.43500
O 	O 	0.78010 0.91570 0.00890 -0.36800
C 	C 	0.75130 0.87670 0.00870 0.44400
C 	C 	0.69580 0.88280 0.00340 -0.41600
H 	H 	0.67860 0.86810 0.03280 0.15100
H 	H 	0.68400 0.86520 0.97300 0.23500
O 	O 	0.77270 0.41690 0.23590 -0.39500
O 	O 	0.78010 0.33430 0.24110 -0.40500
C 	C 	0.75130 0.37330 0.24130 0.41100
C 	C 	0.69580 0.36720 0.24660 -0.24300
H 	H 	0.67860 0.38190 0.21720 0.10900
H 	H 	0.68400 0.38480 0.27700 0.11100
O 	O 	0.77270 0.91690 0.73590 -0.36300
O 	O 	0.78010 0.83430 0.74110 -0.39800
C 	C 	0.75130 0.87330 0.74130 0.40900
C 	C 	0.69580 0.86720 0.74660 -0.24400
H 	H 	0.67860 0.88190 0.71720 0.11400
H 	H 	0.68400 0.88480 0.77700 0.11900
O 	O 	0.27270 0.41690 0.73590 -0.39600
O 	O 	0.28010 0.33430 0.74110 -0.40600
C 	C 	0.25130 0.37330 0.74130 0.41300
C 	C 	0.19580 0.36720 0.74660 -0.24500
H 	H 	0.17860 0.38190 0.71720 0.11000
H 	H 	0.18400 0.38480 0.77700 0.11300
O 	O 	0.27270 0.91690 0.23590 -0.36500
O 	O 	0.28010 0.83430 0.24110 -0.40200
C 	C 	0.25130 0.87330 0.24130 0.40700
C 	C 	0.19580 0.86720 0.24660 -0.24200
H 	H 	0.17860 0.88190 0.21720 0.11200
H 	H 	0.18400 0.88480 0.27700 0.11600
O 	O 	0.97730 0.83310 0.73590 -0.37600
O 	O 	0.96990 0.91570 0.74110 -0.31700
C 	C 	0.99870 0.87670 0.74130 0.53600
C 	C 	0.05420 0.88280 0.74660 -0.40200
H 	H 	0.07140 0.86810 0.71720 0.14800
H 	H 	0.06600 0.86520 0.77700 0.15000
O 	O 	0.97730 0.33310 0.23590 -0.38400
O 	O 	0.96990 0.41570 0.24110 -0.37500
C 	C 	0.99870 0.37670 0.24130 0.55500
C 	C 	0.05420 0.38280 0.24660 -0.42200
H 	H 	0.07140 0.36810 0.21720 0.15100
H 	H 	0.06600 0.36520 0.27700 0.15100
O 	O 	0.47730 0.83310 0.23590 -0.39000
O 	O 	0.46990 0.91570 0.24110 -0.34700
C 	C 	0.49870 0.87670 0.24130 0.39800
C 	C 	0.55420 0.88280 0.24660 -0.23000
H 	H 	0.57140 0.86810 0.21720 0.10600
H 	H 	0.56600 0.86520 0.27700 0.11000
O 	O 	0.47730 0.33310 0.73590 -0.39600
O 	O 	0.46990 0.41570 0.74110 -0.40600
C 	C 	0.49870 0.37670 0.74130 0.41300
C 	C 	0.55420 0.38280 0.74660 -0.24500
H 	H 	0.57140 0.36810 0.71720 0.11000
H 	H 	0.56600 0.36520 0.77700 0.11300
O 	O 	0.47730 0.91690 0.51410 -0.36500
O 	O 	0.46990 0.83430 0.50890 -0.40200
C 	C 	0.49870 0.87330 0.50870 0.40800
C 	C 	0.55420 0.86720 0.50340 -0.24300
H 	H 	0.57140 0.88190 0.53280 0.11300
H 	H 	0.56600 0.88480 0.47300 0.11700
O 	O 	0.47730 0.41690 0.01410 -0.44600
O 	O 	0.46990 0.33430 0.00890 -0.43000
C 	C 	0.49870 0.37330 0.00870 0.45800
C 	C 	0.55420 0.36720 0.00340 -0.43400
H 	H 	0.57140 0.38190 0.03280 0.15500
H 	H 	0.56600 0.38480 0.97300 0.24000
O 	O 	0.97730 0.91690 0.01410 -0.40100
O 	O 	0.96990 0.83430 0.00890 -0.39200
C 	C 	0.99870 0.87330 0.00870 0.59200
C 	C 	0.05420 0.86720 0.00340 -0.60300
H 	H 	0.07140 0.88190 0.03280 0.19900
H 	H 	0.06600 0.88480 0.97300 0.28300
O 	O 	0.97730 0.41690 0.51410 -0.38400
O 	O 	0.96990 0.33430 0.50890 -0.37500
C 	C 	0.99870 0.37330 0.50870 0.55400
C 	C 	0.05420 0.36720 0.50340 -0.42100
H 	H 	0.07140 0.38190 0.53280 0.15200
H 	H 	0.06600 0.38480 0.47300 0.15100
Er	Er	-0.00000 0.25000 -0.00000 1.42200
Er	Er	0.00000 0.75000 0.50000 1.64800
Er	Er	0.50000 0.25000 0.50000 1.86400
Er	Er	0.25000 0.50000 0.50000 1.86400
Er	Er	0.75000 0.00000 0.50000 1.64900
Er	Er	0.75000 0.75000 0.25000 1.86500
Er	Er	0.50000 0.00000 0.75000 1.64800
Er	Er	0.00000 0.00000 0.25000 1.42200
Er	Er	-0.00000 0.50000 0.75000 1.64900
Er	Er	0.50000 0.50000 0.25000 1.86400
Er	Er	0.50000 0.75000 -0.00000 1.64900
Er	Er	0.25000 0.75000 0.75000 1.86500
Er	Er	0.25000 0.25000 0.25000 1.86300
Er	Er	0.75000 0.50000 -0.00000 1.64800
Er	Er	0.25000 0.00000 -0.00000 1.42200
Er	Er	0.75000 0.25000 0.75000 1.86500
Er	Er	-0.00000 0.75000 -0.00000 1.43200
Er	Er	0.75000 0.50000 0.50000 1.86400
Er	Er	0.25000 0.25000 0.75000 1.86400
Er	Er	0.75000 0.75000 0.75000 1.86500
Er	Er	0.50000 0.00000 0.25000 1.64400
Er	Er	0.00000 0.00000 0.75000 1.43200
Er	Er	0.00000 0.50000 0.25000 1.64300
Er	Er	0.50000 0.75000 0.50000 1.86400
Er	Er	0.50000 0.25000 -0.00000 1.64300
Er	Er	0.75000 0.25000 0.25000 1.86400
Er	Er	0.25000 0.50000 -0.00000 1.64400
Er	Er	0.25000 0.00000 0.50000 1.64300
Er	Er	0.75000 0.00000 -0.00000 1.43200
Er	Er	0.50000 0.50000 0.75000 1.86400
Er	Er	0.25000 0.75000 0.25000 1.86400
Er	Er	0.00000 0.25000 0.50000 1.64400
Cd	Cd	-0.00000 0.50000 -0.00000 1.18500
Cd	Cd	0.50000 0.50000 0.50000 1.25400
Cd	Cd	0.25000 0.25000 0.50000 1.25400
Cd	Cd	0.25000 0.75000 -0.00000 1.22000
Cd	Cd	0.75000 0.00000 0.25000 1.22000
Cd	Cd	0.50000 0.75000 0.75000 1.25400
Cd	Cd	0.00000 0.25000 0.75000 1.22000
Cd	Cd	0.00000 0.00000 0.50000 1.18500
Cd	Cd	0.50000 0.25000 0.25000 1.25400
Cd	Cd	0.75000 0.50000 0.75000 1.25400
Cd	Cd	0.50000 0.00000 -0.00000 1.18500
Cd	Cd	0.25000 0.50000 0.25000 1.25400
Cd	Cd	0.75000 0.75000 0.50000 1.25400
Cd	Cd	0.25000 0.25000 -0.00000 1.21900
Cd	Cd	0.00000 0.50000 0.50000 1.21900
Cd	Cd	-0.00000 0.00000 -0.00000 1.15100
Cd	Cd	0.75000 0.00000 0.75000 1.22000
Cd	Cd	0.50000 0.75000 0.25000 1.25400
Cd	Cd	0.00000 0.75000 0.75000 1.22000
Cd	Cd	0.00000 0.25000 0.25000 1.21900
Cd	Cd	0.75000 0.25000 0.50000 1.25400
Cd	Cd	0.75000 0.75000 -0.00000 1.22000
Cd	Cd	0.50000 0.50000 -0.00000 1.21900
Cd	Cd	0.25000 0.00000 0.25000 1.21900
Cd	Cd	0.25000 0.50000 0.75000 1.25400
Cd	Cd	0.50000 0.00000 0.50000 1.21900
Cd	Cd	0.25000 0.00000 0.75000 1.22000
Cd	Cd	0.75000 0.25000 -0.00000 1.22000
Cd	Cd	0.00000 0.75000 0.25000 1.22000
Cd	Cd	0.25000 0.75000 0.50000 1.25400
Cd	Cd	0.75000 0.50000 0.25000 1.25400
Cd	Cd	0.50000 0.25000 0.75000 1.25400
O 	O 	-0.00000 0.31540 0.06540 -0.26500
O 	O 	-0.00000 0.81540 0.56540 -0.30000
O 	O 	0.50000 0.31540 0.56540 -0.20800
O 	O 	0.25000 0.43460 0.56540 -0.20900
O 	O 	0.75000 0.43460 0.06540 -0.16800
O 	O 	0.75000 0.81540 0.18460 -0.20600
O 	O 	0.25000 0.81540 0.68460 -0.20700
O 	O 	0.50000 0.93460 0.68460 -0.19800
O 	O 	0.00000 0.93460 0.18460 -0.28900
O 	O 	0.00000 0.43460 0.68460 -0.30300
O 	O 	0.06540 0.00000 0.31540 -0.26500
O 	O 	0.06540 0.50000 0.81540 -0.16800
O 	O 	0.56540 0.00000 0.81540 -0.30000
O 	O 	0.56540 0.25000 0.43460 -0.20900
O 	O 	0.56540 0.75000 0.93460 -0.19700
O 	O 	0.06540 0.75000 0.43460 -0.16800
O 	O 	0.18460 0.75000 0.81540 -0.20600
O 	O 	0.18460 0.25000 0.31540 -0.20900
O 	O 	0.68460 0.50000 0.93460 -0.19800
O 	O 	0.68460 0.00000 0.43460 -0.30300
O 	O 	0.31540 0.06540 -0.00000 -0.26500
O 	O 	0.31540 0.56540 0.50000 -0.20800
O 	O 	0.81540 0.56540 -0.00000 -0.30000
O 	O 	0.43460 0.56540 0.25000 -0.20900
O 	O 	0.43460 0.06540 0.75000 -0.16800
O 	O 	0.81540 0.18460 0.75000 -0.20600
O 	O 	0.81540 0.68460 0.25000 -0.20700
O 	O 	0.93460 0.68460 0.50000 -0.19800
O 	O 	0.93460 0.18460 -0.00000 -0.28900
O 	O 	0.43460 0.68460 -0.00000 -0.30300
O 	O 	0.06540 0.25000 0.93460 -0.15800
O 	O 	0.18460 0.50000 0.43460 -0.20800
O 	O 	0.18460 0.00000 0.93460 -0.28900
O 	O 	0.56540 0.50000 0.31540 -0.20800
O 	O 	0.68460 0.75000 0.31540 -0.20700
O 	O 	0.68460 0.25000 0.81540 -0.20700
O 	O 	0.75000 0.31540 0.68460 -0.20700
O 	O 	0.25000 0.31540 0.18460 -0.20900
O 	O 	0.50000 0.81540 0.06540 -0.16800
O 	O 	0.50000 0.43460 0.18460 -0.20800
O 	O 	0.25000 0.93460 0.06540 -0.15800
O 	O 	0.75000 0.93460 0.56540 -0.19700
O 	O 	0.81540 0.06540 0.50000 -0.16800
O 	O 	0.31540 0.68460 0.75000 -0.20700
O 	O 	0.31540 0.18460 0.25000 -0.20900
O 	O 	0.93460 0.06540 0.25000 -0.15800
O 	O 	0.93460 0.56540 0.75000 -0.19700
O 	O 	0.43460 0.18460 0.50000 -0.20800
O 	O 	-0.00000 0.68460 0.93460 -0.28800
O 	O 	0.00000 0.18460 0.43460 -0.30500
O 	O 	0.50000 0.68460 0.43460 -0.20800
O 	O 	0.75000 0.56540 0.43460 -0.20700
O 	O 	0.25000 0.56540 0.93460 -0.19800
O 	O 	0.25000 0.18460 0.81540 -0.20800
O 	O 	0.75000 0.18460 0.31540 -0.20700
O 	O 	0.75000 0.68460 0.81540 -0.20600
O 	O 	0.50000 0.06540 0.31540 -0.16800
O 	O 	-0.00000 0.06540 0.81540 -0.26300
O 	O 	0.93460 0.00000 0.68460 -0.28800
O 	O 	0.93460 0.50000 0.18460 -0.19800
O 	O 	0.43460 0.00000 0.18460 -0.30500
O 	O 	0.43460 0.75000 0.56540 -0.20700
O 	O 	0.43460 0.25000 0.06540 -0.16800
O 	O 	0.81540 0.25000 0.18460 -0.20800
O 	O 	0.81540 0.75000 0.68460 -0.20600
O 	O 	0.31540 0.50000 0.06540 -0.16800
O 	O 	0.31540 0.00000 0.56540 -0.30400
O 	O 	0.81540 0.00000 0.06540 -0.26300
O 	O 	0.68460 0.93460 -0.00000 -0.28800
O 	O 	0.68460 0.43460 0.50000 -0.20800
O 	O 	0.18460 0.43460 -0.00000 -0.30500
O 	O 	0.56540 0.43460 0.75000 -0.20700
O 	O 	0.56540 0.93460 0.25000 -0.19800
O 	O 	0.18460 0.81540 0.25000 -0.20800
O 	O 	0.18460 0.31540 0.75000 -0.20700
O 	O 	0.68460 0.81540 0.75000 -0.20600
O 	O 	0.06540 0.31540 0.50000 -0.16800
O 	O 	0.06540 0.81540 -0.00000 -0.26300
O 	O 	0.93460 0.75000 0.06540 -0.15800
O 	O 	0.93460 0.25000 0.56540 -0.19800
O 	O 	0.81540 0.50000 0.56540 -0.20700
O 	O 	0.43460 0.50000 0.68460 -0.20800
O 	O 	0.31540 0.25000 0.68460 -0.20900
O 	O 	0.31540 0.75000 0.18460 -0.20700
O 	O 	0.25000 0.68460 0.31540 -0.20900
O 	O 	0.50000 0.18460 0.93460 -0.19800
O 	O 	0.50000 0.56540 0.81540 -0.20700
O 	O 	0.00000 0.56540 0.31540 -0.30400
O 	O 	0.75000 0.06540 0.93460 -0.15800
O 	O 	0.25000 0.06540 0.43460 -0.16800
O 	O 	0.18460 0.93460 0.50000 -0.19800
O 	O 	0.68460 0.31540 0.25000 -0.20900
O 	O 	0.06540 0.93460 0.75000 -0.15800
O 	O 	0.06540 0.43460 0.25000 -0.16800
O 	O 	0.56540 0.81540 0.50000 -0.20700
O 	O 	0.56540 0.31540 -0.00000 -0.30400
