data_crystal

_cell_length_a 26.25220
_cell_length_b 26.25220
_cell_length_c 26.25220
_cell_angle_alpha 90.00000
_cell_angle_beta  90.00000
_cell_angle_gamma 90.00000

_symmetry_space_group_name_	'P 1'
_symmetry_space_group_name_H-M	'P 1'

loop_
_symmetry_equiv_pos_as_xyz
  x,y,z

loop_
_atom_site_label
_atom_site_type_symbol
_atom_site_fract_x
_atom_site_fract_y
_atom_site_fract_z
_atom_site_charge
O 	O 	0.00890 0.97030 0.33490 -0.41500
O 	O 	0.01430 0.97860 0.41740 -0.44200
C 	C 	0.00350 0.05460 0.36720 -0.58500
H 	H 	0.97290 0.06590 0.38460 0.27500
H 	H 	0.03240 0.07220 0.38200 0.18700
C 	C 	0.00980 0.99780 0.37370 0.60600
O 	O 	0.00890 0.47030 0.83490 -0.44600
O 	O 	0.01430 0.47860 0.91740 -0.42500
C 	C 	0.00350 0.55460 0.86720 -0.41000
H 	H 	0.97290 0.56590 0.88460 0.23800
H 	H 	0.03240 0.57220 0.88200 0.15000
C 	C 	0.00980 0.49780 0.87370 0.46500
O 	O 	0.50890 0.97030 0.83490 -0.38800
O 	O 	0.51430 0.97860 0.91740 -0.36100
C 	C 	0.50350 0.05460 0.86720 -0.38500
H 	H 	0.47290 0.06590 0.88460 0.14600
H 	H 	0.53240 0.07220 0.88200 0.14400
C 	C 	0.50980 0.99780 0.87370 0.55300
O 	O 	0.50890 0.47030 0.33490 -0.42900
O 	O 	0.51430 0.47860 0.41740 -0.40900
C 	C 	0.50350 0.55460 0.36720 -0.22500
H 	H 	0.47290 0.56590 0.38460 0.10500
H 	H 	0.53240 0.57220 0.38200 0.10400
C 	C 	0.50980 0.49780 0.37370 0.42800
O 	O 	0.24110 0.77970 0.83490 -0.42100
O 	O 	0.23570 0.77140 0.91740 -0.37400
C 	C 	0.24650 0.69540 0.86720 -0.22300
H 	H 	0.27710 0.68410 0.88460 0.11100
H 	H 	0.21760 0.67780 0.88200 0.10600
C 	C 	0.24020 0.75220 0.87370 0.42300
O 	O 	0.24110 0.27970 0.33490 -0.42900
O 	O 	0.23570 0.27140 0.41740 -0.40900
C 	C 	0.24650 0.19540 0.36720 -0.22400
H 	H 	0.27710 0.18410 0.38460 0.10500
H 	H 	0.21760 0.17780 0.38200 0.10300
C 	C 	0.24020 0.25220 0.37370 0.42800
O 	O 	0.74110 0.77970 0.33490 -0.42500
O 	O 	0.73570 0.77140 0.41740 -0.40600
C 	C 	0.74650 0.69540 0.36720 -0.22600
H 	H 	0.77710 0.68410 0.38460 0.10700
H 	H 	0.71760 0.67780 0.38200 0.10400
C 	C 	0.74020 0.75220 0.37370 0.42900
O 	O 	0.74110 0.27970 0.83490 -0.42200
O 	O 	0.73570 0.27140 0.91740 -0.37500
C 	C 	0.74650 0.19540 0.86720 -0.22500
H 	H 	0.77710 0.18410 0.88460 0.11200
H 	H 	0.71760 0.17780 0.88200 0.10700
C 	C 	0.74020 0.25220 0.87370 0.42400
O 	O 	0.74110 0.47030 0.91510 -0.36700
O 	O 	0.73570 0.47860 0.83260 -0.40000
C 	C 	0.74650 0.55460 0.88280 -0.21500
H 	H 	0.77710 0.56590 0.86540 0.10700
H 	H 	0.71760 0.57220 0.86800 0.10200
C 	C 	0.74020 0.49780 0.87630 0.41500
O 	O 	0.74110 0.97030 0.41510 -0.39200
O 	O 	0.73570 0.97860 0.33260 -0.39100
C 	C 	0.74650 0.05460 0.38280 -0.38900
H 	H 	0.77710 0.06590 0.36540 0.14300
H 	H 	0.71760 0.07220 0.36800 0.14200
C 	C 	0.74020 0.99780 0.37630 0.56100
O 	O 	0.24110 0.47030 0.41510 -0.42900
O 	O 	0.23570 0.47860 0.33260 -0.40900
C 	C 	0.24650 0.55460 0.38280 -0.22500
H 	H 	0.27710 0.56590 0.36540 0.10500
H 	H 	0.21760 0.57220 0.36800 0.10300
C 	C 	0.24020 0.49780 0.37630 0.42800
O 	O 	0.24110 0.97030 0.91510 -0.33100
O 	O 	0.23570 0.97860 0.83260 -0.38400
C 	C 	0.24650 0.05460 0.88280 -0.37500
H 	H 	0.27710 0.06590 0.86540 0.14000
H 	H 	0.21760 0.07220 0.86800 0.13900
C 	C 	0.24020 0.99780 0.87630 0.54400
O 	O 	0.50890 0.27970 0.41510 -0.42900
O 	O 	0.51430 0.27140 0.33260 -0.40900
C 	C 	0.50350 0.19540 0.38280 -0.22500
H 	H 	0.47290 0.18410 0.36540 0.10500
H 	H 	0.53240 0.17780 0.36800 0.10300
C 	C 	0.50980 0.25220 0.37630 0.42800
O 	O 	0.50890 0.77970 0.91510 -0.36500
O 	O 	0.51430 0.77140 0.83260 -0.39900
C 	C 	0.50350 0.69540 0.88280 -0.21300
H 	H 	0.47290 0.68410 0.86540 0.10500
H 	H 	0.53240 0.67780 0.86800 0.10200
C 	C 	0.50980 0.75220 0.87630 0.41400
O 	O 	0.00890 0.27970 0.91510 -0.38800
O 	O 	0.01430 0.27140 0.83260 -0.45000
C 	C 	0.00350 0.19540 0.88280 -0.40200
H 	H 	0.97290 0.18410 0.86540 0.23500
H 	H 	0.03240 0.17780 0.86800 0.14700
C 	C 	0.00980 0.25220 0.87630 0.45700
O 	O 	0.00890 0.77970 0.41510 -0.44800
O 	O 	0.01430 0.77140 0.33260 -0.45600
C 	C 	0.00350 0.69540 0.38280 -0.41400
H 	H 	0.97290 0.68410 0.36540 0.23700
H 	H 	0.03240 0.67780 0.36800 0.14800
C 	C 	0.00980 0.75220 0.37630 0.47100
O 	O 	0.33490 0.00890 0.97030 -0.41400
O 	O 	0.41740 0.01430 0.97860 -0.44100
C 	C 	0.36720 0.00350 0.05460 -0.58400
H 	H 	0.38460 0.97290 0.06590 0.27600
H 	H 	0.38200 0.03240 0.07220 0.18800
C 	C 	0.37370 0.00980 0.99780 0.60700
O 	O 	0.33490 0.50890 0.47030 -0.42900
O 	O 	0.41740 0.51430 0.47860 -0.40900
C 	C 	0.36720 0.50350 0.55460 -0.22500
H 	H 	0.38460 0.47290 0.56590 0.10500
H 	H 	0.38200 0.53240 0.57220 0.10400
C 	C 	0.37370 0.50980 0.49780 0.42800
O 	O 	0.83490 0.00890 0.47030 -0.44500
O 	O 	0.91740 0.01430 0.47860 -0.42400
C 	C 	0.86720 0.00350 0.55460 -0.40900
H 	H 	0.88460 0.97290 0.56590 0.23900
H 	H 	0.88200 0.03240 0.57220 0.15100
C 	C 	0.87370 0.00980 0.49780 0.46600
O 	O 	0.83490 0.50890 0.97030 -0.38700
O 	O 	0.91740 0.51430 0.97860 -0.36000
C 	C 	0.86720 0.50350 0.05460 -0.38500
H 	H 	0.88460 0.47290 0.06590 0.14600
H 	H 	0.88200 0.53240 0.07220 0.14400
C 	C 	0.87370 0.50980 0.99780 0.55300
O 	O 	0.83490 0.24110 0.77970 -0.42100
O 	O 	0.91740 0.23570 0.77140 -0.37400
C 	C 	0.86720 0.24650 0.69540 -0.22300
H 	H 	0.88460 0.27710 0.68410 0.11100
H 	H 	0.88200 0.21760 0.67780 0.10600
C 	C 	0.87370 0.24020 0.75220 0.42300
O 	O 	0.83490 0.74110 0.27970 -0.42200
O 	O 	0.91740 0.73570 0.27140 -0.37500
C 	C 	0.86720 0.74650 0.19540 -0.22500
H 	H 	0.88460 0.77710 0.18410 0.11200
H 	H 	0.88200 0.71760 0.17780 0.10700
C 	C 	0.87370 0.74020 0.25220 0.42400
O 	O 	0.33490 0.24110 0.27970 -0.42900
O 	O 	0.41740 0.23570 0.27140 -0.40900
C 	C 	0.36720 0.24650 0.19540 -0.22400
H 	H 	0.38460 0.27710 0.18410 0.10500
H 	H 	0.38200 0.21760 0.17780 0.10300
C 	C 	0.37370 0.24020 0.25220 0.42800
O 	O 	0.33490 0.74110 0.77970 -0.42500
O 	O 	0.41740 0.73570 0.77140 -0.40600
C 	C 	0.36720 0.74650 0.69540 -0.22600
H 	H 	0.38460 0.77710 0.68410 0.10700
H 	H 	0.38200 0.71760 0.67780 0.10400
C 	C 	0.37370 0.74020 0.75220 0.42900
O 	O 	0.91510 0.74110 0.47030 -0.36700
O 	O 	0.83260 0.73570 0.47860 -0.40000
C 	C 	0.88280 0.74650 0.55460 -0.21500
H 	H 	0.86540 0.77710 0.56590 0.10700
H 	H 	0.86800 0.71760 0.57220 0.10200
C 	C 	0.87630 0.74020 0.49780 0.41500
O 	O 	0.91510 0.24110 0.97030 -0.33100
O 	O 	0.83260 0.23570 0.97860 -0.38400
C 	C 	0.88280 0.24650 0.05460 -0.37500
H 	H 	0.86540 0.27710 0.06590 0.14000
H 	H 	0.86800 0.21760 0.07220 0.13900
C 	C 	0.87630 0.24020 0.99780 0.54400
O 	O 	0.41510 0.74110 0.97030 -0.39200
O 	O 	0.33260 0.73570 0.97860 -0.39100
C 	C 	0.38280 0.74650 0.05460 -0.38900
H 	H 	0.36540 0.77710 0.06590 0.14300
H 	H 	0.36800 0.71760 0.07220 0.14200
C 	C 	0.37630 0.74020 0.99780 0.56100
O 	O 	0.41510 0.24110 0.47030 -0.42900
O 	O 	0.33260 0.23570 0.47860 -0.40900
C 	C 	0.38280 0.24650 0.55460 -0.22500
H 	H 	0.36540 0.27710 0.56590 0.10500
H 	H 	0.36800 0.21760 0.57220 0.10300
C 	C 	0.37630 0.24020 0.49780 0.42800
O 	O 	0.41510 0.50890 0.27970 -0.42900
O 	O 	0.33260 0.51430 0.27140 -0.40900
C 	C 	0.38280 0.50350 0.19540 -0.22500
H 	H 	0.36540 0.47290 0.18410 0.10500
H 	H 	0.36800 0.53240 0.17780 0.10300
C 	C 	0.37630 0.50980 0.25220 0.42800
O 	O 	0.41510 0.00890 0.77970 -0.44800
O 	O 	0.33260 0.01430 0.77140 -0.45600
C 	C 	0.38280 0.00350 0.69540 -0.41400
H 	H 	0.36540 0.97290 0.68410 0.23700
H 	H 	0.36800 0.03240 0.67780 0.14800
C 	C 	0.37630 0.00980 0.75220 0.47100
O 	O 	0.91510 0.50890 0.77970 -0.36500
O 	O 	0.83260 0.51430 0.77140 -0.39900
C 	C 	0.88280 0.50350 0.69540 -0.21300
H 	H 	0.86540 0.47290 0.68410 0.10500
H 	H 	0.86800 0.53240 0.67780 0.10200
C 	C 	0.87630 0.50980 0.75220 0.41400
O 	O 	0.91510 0.00890 0.27970 -0.38800
O 	O 	0.83260 0.01430 0.27140 -0.45000
C 	C 	0.88280 0.00350 0.19540 -0.40200
H 	H 	0.86540 0.97290 0.18410 0.23500
H 	H 	0.86800 0.03240 0.17780 0.14700
C 	C 	0.87630 0.00980 0.25220 0.45700
O 	O 	0.97030 0.33490 0.00890 -0.41400
O 	O 	0.97860 0.41740 0.01430 -0.44100
C 	C 	0.05460 0.36720 0.00350 -0.58400
H 	H 	0.06590 0.38460 0.97290 0.27600
H 	H 	0.07220 0.38200 0.03240 0.18800
C 	C 	0.99780 0.37370 0.00980 0.60700
O 	O 	0.97030 0.83490 0.50890 -0.38700
O 	O 	0.97860 0.91740 0.51430 -0.36000
C 	C 	0.05460 0.86720 0.50350 -0.38500
H 	H 	0.06590 0.88460 0.47290 0.14600
H 	H 	0.07220 0.88200 0.53240 0.14400
C 	C 	0.99780 0.87370 0.50980 0.55300
O 	O 	0.47030 0.33490 0.50890 -0.42900
O 	O 	0.47860 0.41740 0.51430 -0.40900
C 	C 	0.55460 0.36720 0.50350 -0.22500
H 	H 	0.56590 0.38460 0.47290 0.10500
H 	H 	0.57220 0.38200 0.53240 0.10400
C 	C 	0.49780 0.37370 0.50980 0.42800
O 	O 	0.47030 0.83490 0.00890 -0.44500
O 	O 	0.47860 0.91740 0.01430 -0.42400
C 	C 	0.55460 0.86720 0.00350 -0.40900
H 	H 	0.56590 0.88460 0.97290 0.23900
H 	H 	0.57220 0.88200 0.03240 0.15100
C 	C 	0.49780 0.87370 0.00980 0.46600
O 	O 	0.77970 0.83490 0.24110 -0.42100
O 	O 	0.77140 0.91740 0.23570 -0.37400
C 	C 	0.69540 0.86720 0.24650 -0.22300
H 	H 	0.68410 0.88460 0.27710 0.11100
H 	H 	0.67780 0.88200 0.21760 0.10600
C 	C 	0.75220 0.87370 0.24020 0.42300
O 	O 	0.77970 0.33490 0.74110 -0.42500
O 	O 	0.77140 0.41740 0.73570 -0.40600
C 	C 	0.69540 0.36720 0.74650 -0.22600
H 	H 	0.68410 0.38460 0.77710 0.10700
H 	H 	0.67780 0.38200 0.71760 0.10400
C 	C 	0.75220 0.37370 0.74020 0.42900
O 	O 	0.27970 0.83490 0.74110 -0.42200
O 	O 	0.27140 0.91740 0.73570 -0.37500
C 	C 	0.19540 0.86720 0.74650 -0.22500
H 	H 	0.18410 0.88460 0.77710 0.11200
H 	H 	0.17780 0.88200 0.71760 0.10700
C 	C 	0.25220 0.87370 0.74020 0.42400
O 	O 	0.27970 0.33490 0.24110 -0.42900
O 	O 	0.27140 0.41740 0.23570 -0.40900
C 	C 	0.19540 0.36720 0.24650 -0.22400
H 	H 	0.18410 0.38460 0.27710 0.10500
H 	H 	0.17780 0.38200 0.21760 0.10300
C 	C 	0.25220 0.37370 0.24020 0.42800
O 	O 	0.47030 0.91510 0.74110 -0.36700
O 	O 	0.47860 0.83260 0.73570 -0.40000
C 	C 	0.55460 0.88280 0.74650 -0.21500
H 	H 	0.56590 0.86540 0.77710 0.10700
H 	H 	0.57220 0.86800 0.71760 0.10200
C 	C 	0.49780 0.87630 0.74020 0.41500
O 	O 	0.47030 0.41510 0.24110 -0.42900
O 	O 	0.47860 0.33260 0.23570 -0.40900
C 	C 	0.55460 0.38280 0.24650 -0.22500
H 	H 	0.56590 0.36540 0.27710 0.10500
H 	H 	0.57220 0.36800 0.21760 0.10300
C 	C 	0.49780 0.37630 0.24020 0.42800
O 	O 	0.97030 0.91510 0.24110 -0.33100
O 	O 	0.97860 0.83260 0.23570 -0.38400
C 	C 	0.05460 0.88280 0.24650 -0.37500
H 	H 	0.06590 0.86540 0.27710 0.14000
H 	H 	0.07220 0.86800 0.21760 0.13900
C 	C 	0.99780 0.87630 0.24020 0.54400
O 	O 	0.97030 0.41510 0.74110 -0.39200
O 	O 	0.97860 0.33260 0.73570 -0.39100
C 	C 	0.05460 0.38280 0.74650 -0.38900
H 	H 	0.06590 0.36540 0.77710 0.14300
H 	H 	0.07220 0.36800 0.71760 0.14200
C 	C 	0.99780 0.37630 0.74020 0.56100
O 	O 	0.27970 0.41510 0.50890 -0.42900
O 	O 	0.27140 0.33260 0.51430 -0.40900
C 	C 	0.19540 0.38280 0.50350 -0.22500
H 	H 	0.18410 0.36540 0.47290 0.10500
H 	H 	0.17780 0.36800 0.53240 0.10300
C 	C 	0.25220 0.37630 0.50980 0.42800
O 	O 	0.27970 0.91510 0.00890 -0.38800
O 	O 	0.27140 0.83260 0.01430 -0.45000
C 	C 	0.19540 0.88280 0.00350 -0.40200
H 	H 	0.18410 0.86540 0.97290 0.23500
H 	H 	0.17780 0.86800 0.03240 0.14700
C 	C 	0.25220 0.87630 0.00980 0.45700
O 	O 	0.77970 0.41510 0.00890 -0.44800
O 	O 	0.77140 0.33260 0.01430 -0.45600
C 	C 	0.69540 0.38280 0.00350 -0.41400
H 	H 	0.68410 0.36540 0.97290 0.23700
H 	H 	0.67780 0.36800 0.03240 0.14800
C 	C 	0.75220 0.37630 0.00980 0.47100
O 	O 	0.77970 0.91510 0.50890 -0.36500
O 	O 	0.77140 0.83260 0.51430 -0.39900
C 	C 	0.69540 0.88280 0.50350 -0.21300
H 	H 	0.68410 0.86540 0.47290 0.10500
H 	H 	0.67780 0.86800 0.53240 0.10200
C 	C 	0.75220 0.87630 0.50980 0.41400
O 	O 	0.72030 0.25890 0.66510 -0.43100
O 	O 	0.72860 0.26430 0.58260 -0.41100
C 	C 	0.80460 0.25350 0.63280 -0.22800
H 	H 	0.81590 0.22290 0.61540 0.10600
H 	H 	0.82220 0.28240 0.61800 0.10700
C 	C 	0.74780 0.25980 0.62630 0.42900
O 	O 	0.72030 0.75890 0.16510 -0.43400
O 	O 	0.72860 0.76430 0.08260 -0.43000
C 	C 	0.80460 0.75350 0.13280 -0.23100
H 	H 	0.81590 0.72290 0.11540 0.10600
H 	H 	0.82220 0.78240 0.11800 0.10700
C 	C 	0.74780 0.75980 0.12630 0.43300
O 	O 	0.22030 0.25890 0.16510 -0.43600
O 	O 	0.22860 0.26430 0.08260 -0.43300
C 	C 	0.30460 0.25350 0.13280 -0.22700
H 	H 	0.31590 0.22290 0.11540 0.10200
H 	H 	0.32220 0.28240 0.11800 0.10200
C 	C 	0.24780 0.25980 0.12630 0.43100
O 	O 	0.22030 0.75890 0.66510 -0.43100
O 	O 	0.22860 0.76430 0.58260 -0.41100
C 	C 	0.30460 0.75350 0.63280 -0.22700
H 	H 	0.31590 0.72290 0.61540 0.10500
H 	H 	0.32220 0.78240 0.61800 0.10600
C 	C 	0.24780 0.75980 0.62630 0.42900
O 	O 	0.52970 0.49110 0.16510 -0.43400
O 	O 	0.52140 0.48570 0.08260 -0.43100
C 	C 	0.44540 0.49650 0.13280 -0.22700
H 	H 	0.43410 0.52710 0.11540 0.10300
H 	H 	0.42780 0.46760 0.11800 0.10200
C 	C 	0.50220 0.49020 0.12630 0.43100
O 	O 	0.52970 0.99110 0.66510 -0.32100
O 	O 	0.52140 0.98570 0.58260 -0.32600
C 	C 	0.44540 0.99650 0.63280 0.18900
H 	H 	0.43410 0.02710 0.61540 -0.08300
H 	H 	0.42780 0.96760 0.61800 0.00200
C 	C 	0.50220 0.99020 0.62630 0.31100
O 	O 	0.02970 0.49110 0.66510 -0.40900
O 	O 	0.02140 0.48570 0.58260 -0.41100
C 	C 	0.94540 0.49650 0.63280 -0.07400
H 	H 	0.93410 0.52710 0.61540 0.07600
H 	H 	0.92780 0.46760 0.61800 0.07500
C 	C 	0.00220 0.49020 0.62630 0.28900
O 	O 	0.02970 0.99110 0.16510 -0.30300
O 	O 	0.02140 0.98570 0.08260 -0.34900
C 	C 	0.94540 0.99650 0.13280 0.32700
H 	H 	0.93410 0.02710 0.11540 -0.10900
H 	H 	0.92780 0.96760 0.11800 -0.02600
C 	C 	0.00220 0.99020 0.12630 0.18000
O 	O 	0.22030 0.99110 0.08490 -0.31400
O 	O 	0.22860 0.98570 0.16740 -0.32800
C 	C 	0.30460 0.99650 0.11720 0.17600
H 	H 	0.31590 0.02710 0.13460 -0.08100
H 	H 	0.32220 0.96760 0.13200 0.00700
C 	C 	0.24780 0.99020 0.12370 0.31200
O 	O 	0.22030 0.49110 0.58490 -0.43100
O 	O 	0.22860 0.48570 0.66740 -0.41100
C 	C 	0.30460 0.49650 0.61720 -0.22500
H 	H 	0.31590 0.52710 0.63460 0.10500
H 	H 	0.32220 0.46760 0.63200 0.10400
C 	C 	0.24780 0.49020 0.62370 0.42800
O 	O 	0.72030 0.99110 0.58490 -0.32200
O 	O 	0.72860 0.98570 0.66740 -0.32800
C 	C 	0.80460 0.99650 0.61720 0.17800
H 	H 	0.81590 0.02710 0.63460 -0.07700
H 	H 	0.82220 0.96760 0.63200 0.00700
C 	C 	0.74780 0.99020 0.62370 0.31400
O 	O 	0.72030 0.49110 0.08490 -0.42400
O 	O 	0.72860 0.48570 0.16740 -0.41200
C 	C 	0.80460 0.49650 0.11720 -0.24900
H 	H 	0.81590 0.52710 0.13460 0.11300
H 	H 	0.82220 0.46760 0.13200 0.11400
C 	C 	0.74780 0.49020 0.12370 0.43300
O 	O 	0.02970 0.75890 0.58490 -0.40900
O 	O 	0.02140 0.76430 0.66740 -0.41100
C 	C 	0.94540 0.75350 0.61720 -0.07800
H 	H 	0.93410 0.72290 0.63460 0.07600
H 	H 	0.92780 0.78240 0.63200 0.07700
C 	C 	0.00220 0.75980 0.62370 0.29200
O 	O 	0.02970 0.25890 0.08490 -0.40300
O 	O 	0.02140 0.26430 0.16740 -0.41400
C 	C 	0.94540 0.25350 0.11720 -0.09200
H 	H 	0.93410 0.22290 0.13460 0.08000
H 	H 	0.92780 0.28240 0.13200 0.08100
C 	C 	0.00220 0.25980 0.12370 0.28900
O 	O 	0.52970 0.75890 0.08490 -0.42300
O 	O 	0.52140 0.76430 0.16740 -0.41200
C 	C 	0.44540 0.75350 0.11720 -0.24800
H 	H 	0.43410 0.72290 0.13460 0.11100
H 	H 	0.42780 0.78240 0.13200 0.11200
C 	C 	0.50220 0.75980 0.12370 0.43200
O 	O 	0.52970 0.25890 0.58490 -0.43100
O 	O 	0.52140 0.26430 0.66740 -0.41000
C 	C 	0.44540 0.25350 0.61720 -0.22500
H 	H 	0.43410 0.22290 0.63460 0.10400
H 	H 	0.42780 0.28240 0.63200 0.10400
C 	C 	0.50220 0.25980 0.62370 0.42800
O 	O 	0.75890 0.58490 0.02970 -0.40900
O 	O 	0.76430 0.66740 0.02140 -0.41100
C 	C 	0.75350 0.61720 0.94540 -0.07800
H 	H 	0.72290 0.63460 0.93410 0.07600
H 	H 	0.78240 0.63200 0.92780 0.07700
C 	C 	0.75980 0.62370 0.00220 0.29200
O 	O 	0.75890 0.08490 0.52970 -0.42300
O 	O 	0.76430 0.16740 0.52140 -0.41200
C 	C 	0.75350 0.11720 0.44540 -0.24800
H 	H 	0.72290 0.13460 0.43410 0.11100
H 	H 	0.78240 0.13200 0.42780 0.11200
C 	C 	0.75980 0.12370 0.50220 0.43200
O 	O 	0.25890 0.58490 0.52970 -0.43100
O 	O 	0.26430 0.66740 0.52140 -0.41000
C 	C 	0.25350 0.61720 0.44540 -0.22500
H 	H 	0.22290 0.63460 0.43410 0.10400
H 	H 	0.28240 0.63200 0.42780 0.10400
C 	C 	0.25980 0.62370 0.50220 0.42800
O 	O 	0.25890 0.08490 0.02970 -0.40300
O 	O 	0.26430 0.16740 0.02140 -0.41400
C 	C 	0.25350 0.11720 0.94540 -0.09200
H 	H 	0.22290 0.13460 0.93410 0.08000
H 	H 	0.28240 0.13200 0.92780 0.08100
C 	C 	0.25980 0.12370 0.00220 0.28900
O 	O 	0.99110 0.08490 0.22030 -0.31400
O 	O 	0.98570 0.16740 0.22860 -0.32800
C 	C 	0.99650 0.11720 0.30460 0.17600
H 	H 	0.02710 0.13460 0.31590 -0.08100
H 	H 	0.96760 0.13200 0.32220 0.00700
C 	C 	0.99020 0.12370 0.24780 0.31200
O 	O 	0.99110 0.58490 0.72030 -0.32200
O 	O 	0.98570 0.66740 0.72860 -0.32800
C 	C 	0.99650 0.61720 0.80460 0.17800
H 	H 	0.02710 0.63460 0.81590 -0.07700
H 	H 	0.96760 0.63200 0.82220 0.00700
C 	C 	0.99020 0.62370 0.74780 0.31400
O 	O 	0.49110 0.08490 0.72030 -0.42400
O 	O 	0.48570 0.16740 0.72860 -0.41200
C 	C 	0.49650 0.11720 0.80460 -0.24900
H 	H 	0.52710 0.13460 0.81590 0.11300
H 	H 	0.46760 0.13200 0.82220 0.11400
C 	C 	0.49020 0.12370 0.74780 0.43300
O 	O 	0.49110 0.58490 0.22030 -0.43100
O 	O 	0.48570 0.66740 0.22860 -0.41100
C 	C 	0.49650 0.61720 0.30460 -0.22500
H 	H 	0.52710 0.63460 0.31590 0.10500
H 	H 	0.46760 0.63200 0.32220 0.10400
C 	C 	0.49020 0.62370 0.24780 0.42800
O 	O 	0.49110 0.16510 0.52970 -0.43400
O 	O 	0.48570 0.08260 0.52140 -0.43100
C 	C 	0.49650 0.13280 0.44540 -0.22700
H 	H 	0.52710 0.11540 0.43410 0.10300
H 	H 	0.46760 0.11800 0.42780 0.10200
C 	C 	0.49020 0.12630 0.50220 0.43100
O 	O 	0.49110 0.66510 0.02970 -0.40900
O 	O 	0.48570 0.58260 0.02140 -0.41100
C 	C 	0.49650 0.63280 0.94540 -0.07400
H 	H 	0.52710 0.61540 0.93410 0.07600
H 	H 	0.46760 0.61800 0.92780 0.07500
C 	C 	0.49020 0.62630 0.00220 0.28900
O 	O 	0.99110 0.16510 0.02970 -0.30300
O 	O 	0.98570 0.08260 0.02140 -0.34900
C 	C 	0.99650 0.13280 0.94540 0.32700
H 	H 	0.02710 0.11540 0.93410 -0.10900
H 	H 	0.96760 0.11800 0.92780 -0.02600
C 	C 	0.99020 0.12630 0.00220 0.18000
O 	O 	0.99110 0.66510 0.52970 -0.32100
O 	O 	0.98570 0.58260 0.52140 -0.32600
C 	C 	0.99650 0.63280 0.44540 0.18900
H 	H 	0.02710 0.61540 0.43410 -0.08300
H 	H 	0.96760 0.61800 0.42780 0.00200
C 	C 	0.99020 0.62630 0.50220 0.31100
O 	O 	0.25890 0.66510 0.72030 -0.43100
O 	O 	0.26430 0.58260 0.72860 -0.41100
C 	C 	0.25350 0.63280 0.80460 -0.22800
H 	H 	0.22290 0.61540 0.81590 0.10600
H 	H 	0.28240 0.61800 0.82220 0.10700
C 	C 	0.25980 0.62630 0.74780 0.42900
O 	O 	0.25890 0.16510 0.22030 -0.43600
O 	O 	0.26430 0.08260 0.22860 -0.43300
C 	C 	0.25350 0.13280 0.30460 -0.22700
H 	H 	0.22290 0.11540 0.31590 0.10200
H 	H 	0.28240 0.11800 0.32220 0.10200
C 	C 	0.25980 0.12630 0.24780 0.43100
O 	O 	0.75890 0.66510 0.22030 -0.43100
O 	O 	0.76430 0.58260 0.22860 -0.41100
C 	C 	0.75350 0.63280 0.30460 -0.22700
H 	H 	0.72290 0.61540 0.31590 0.10500
H 	H 	0.78240 0.61800 0.32220 0.10600
C 	C 	0.75980 0.62630 0.24780 0.42900
O 	O 	0.75890 0.16510 0.72030 -0.43400
O 	O 	0.76430 0.08260 0.72860 -0.43000
C 	C 	0.75350 0.13280 0.80460 -0.23100
H 	H 	0.72290 0.11540 0.81590 0.10600
H 	H 	0.78240 0.11800 0.82220 0.10700
C 	C 	0.75980 0.12630 0.74780 0.43300
O 	O 	0.08490 0.22030 0.99110 -0.31400
O 	O 	0.16740 0.22860 0.98570 -0.32800
C 	C 	0.11720 0.30460 0.99650 0.17600
H 	H 	0.13460 0.31590 0.02710 -0.08100
H 	H 	0.13200 0.32220 0.96760 0.00700
C 	C 	0.12370 0.24780 0.99020 0.31200
O 	O 	0.08490 0.72030 0.49110 -0.42400
O 	O 	0.16740 0.72860 0.48570 -0.41200
C 	C 	0.11720 0.80460 0.49650 -0.24900
H 	H 	0.13460 0.81590 0.52710 0.11300
H 	H 	0.13200 0.82220 0.46760 0.11400
C 	C 	0.12370 0.74780 0.49020 0.43300
O 	O 	0.58490 0.22030 0.49110 -0.43100
O 	O 	0.66740 0.22860 0.48570 -0.41100
C 	C 	0.61720 0.30460 0.49650 -0.22500
H 	H 	0.63460 0.31590 0.52710 0.10500
H 	H 	0.63200 0.32220 0.46760 0.10400
C 	C 	0.62370 0.24780 0.49020 0.42800
O 	O 	0.58490 0.72030 0.99110 -0.32200
O 	O 	0.66740 0.72860 0.98570 -0.32800
C 	C 	0.61720 0.80460 0.99650 0.17800
H 	H 	0.63460 0.81590 0.02710 -0.07700
H 	H 	0.63200 0.82220 0.96760 0.00700
C 	C 	0.62370 0.74780 0.99020 0.31400
O 	O 	0.58490 0.02970 0.75890 -0.40900
O 	O 	0.66740 0.02140 0.76430 -0.41100
C 	C 	0.61720 0.94540 0.75350 -0.07800
H 	H 	0.63460 0.93410 0.72290 0.07600
H 	H 	0.63200 0.92780 0.78240 0.07700
C 	C 	0.62370 0.00220 0.75980 0.29200
O 	O 	0.58490 0.52970 0.25890 -0.43100
O 	O 	0.66740 0.52140 0.26430 -0.41000
C 	C 	0.61720 0.44540 0.25350 -0.22500
H 	H 	0.63460 0.43410 0.22290 0.10400
H 	H 	0.63200 0.42780 0.28240 0.10400
C 	C 	0.62370 0.50220 0.25980 0.42800
O 	O 	0.08490 0.02970 0.25890 -0.40300
O 	O 	0.16740 0.02140 0.26430 -0.41400
C 	C 	0.11720 0.94540 0.25350 -0.09200
H 	H 	0.13460 0.93410 0.22290 0.08000
H 	H 	0.13200 0.92780 0.28240 0.08100
C 	C 	0.12370 0.00220 0.25980 0.28900
O 	O 	0.08490 0.52970 0.75890 -0.42300
O 	O 	0.16740 0.52140 0.76430 -0.41200
C 	C 	0.11720 0.44540 0.75350 -0.24800
H 	H 	0.13460 0.43410 0.72290 0.11100
H 	H 	0.13200 0.42780 0.78240 0.11200
C 	C 	0.12370 0.50220 0.75980 0.43200
O 	O 	0.66510 0.72030 0.25890 -0.43100
O 	O 	0.58260 0.72860 0.26430 -0.41100
C 	C 	0.63280 0.80460 0.25350 -0.22800
H 	H 	0.61540 0.81590 0.22290 0.10600
H 	H 	0.61800 0.82220 0.28240 0.10700
C 	C 	0.62630 0.74780 0.25980 0.42900
O 	O 	0.66510 0.22030 0.75890 -0.43100
O 	O 	0.58260 0.22860 0.76430 -0.41100
C 	C 	0.63280 0.30460 0.75350 -0.22700
H 	H 	0.61540 0.31590 0.72290 0.10500
H 	H 	0.61800 0.32220 0.78240 0.10600
C 	C 	0.62630 0.24780 0.75980 0.42900
O 	O 	0.16510 0.72030 0.75890 -0.43400
O 	O 	0.08260 0.72860 0.76430 -0.43000
C 	C 	0.13280 0.80460 0.75350 -0.23100
H 	H 	0.11540 0.81590 0.72290 0.10600
H 	H 	0.11800 0.82220 0.78240 0.10700
C 	C 	0.12630 0.74780 0.75980 0.43300
O 	O 	0.16510 0.22030 0.25890 -0.43600
O 	O 	0.08260 0.22860 0.26430 -0.43300
C 	C 	0.13280 0.30460 0.25350 -0.22700
H 	H 	0.11540 0.31590 0.22290 0.10200
H 	H 	0.11800 0.32220 0.28240 0.10200
C 	C 	0.12630 0.24780 0.25980 0.43100
O 	O 	0.16510 0.52970 0.49110 -0.43400
O 	O 	0.08260 0.52140 0.48570 -0.43100
C 	C 	0.13280 0.44540 0.49650 -0.22700
H 	H 	0.11540 0.43410 0.52710 0.10300
H 	H 	0.11800 0.42780 0.46760 0.10200
C 	C 	0.12630 0.50220 0.49020 0.43100
O 	O 	0.16510 0.02970 0.99110 -0.30300
O 	O 	0.08260 0.02140 0.98570 -0.34900
C 	C 	0.13280 0.94540 0.99650 0.32700
H 	H 	0.11540 0.93410 0.02710 -0.10900
H 	H 	0.11800 0.92780 0.96760 -0.02600
C 	C 	0.12630 0.00220 0.99020 0.18000
O 	O 	0.66510 0.52970 0.99110 -0.32100
O 	O 	0.58260 0.52140 0.98570 -0.32600
C 	C 	0.63280 0.44540 0.99650 0.18900
H 	H 	0.61540 0.43410 0.02710 -0.08300
H 	H 	0.61800 0.42780 0.96760 0.00200
C 	C 	0.62630 0.50220 0.99020 0.31100
O 	O 	0.66510 0.02970 0.49110 -0.40900
O 	O 	0.58260 0.02140 0.48570 -0.41100
C 	C 	0.63280 0.94540 0.49650 -0.07400
H 	H 	0.61540 0.93410 0.52710 0.07600
H 	H 	0.61800 0.92780 0.46760 0.07500
C 	C 	0.62630 0.00220 0.49020 0.28900
O 	O 	0.99110 0.02970 0.66510 -0.30200
O 	O 	0.98570 0.02140 0.58260 -0.32900
C 	C 	0.99650 0.94540 0.63280 0.32000
H 	H 	0.02710 0.93410 0.61540 -0.10400
H 	H 	0.96760 0.92780 0.61800 -0.02200
C 	C 	0.99020 0.00220 0.62630 0.18000
O 	O 	0.99110 0.52970 0.16510 -0.32300
O 	O 	0.98570 0.52140 0.08260 -0.34600
C 	C 	0.99650 0.44540 0.13280 0.19500
H 	H 	0.02710 0.43410 0.11540 -0.08700
H 	H 	0.96760 0.42780 0.11800 -0.00200
C 	C 	0.99020 0.50220 0.12630 0.31200
O 	O 	0.49110 0.02970 0.16510 -0.41200
O 	O 	0.48570 0.02140 0.08260 -0.43200
C 	C 	0.49650 0.94540 0.13280 -0.07400
H 	H 	0.52710 0.93410 0.11540 0.07400
H 	H 	0.46760 0.92780 0.11800 0.07200
C 	C 	0.49020 0.00220 0.12630 0.29000
O 	O 	0.49110 0.52970 0.66510 -0.43000
O 	O 	0.48570 0.52140 0.58260 -0.41000
C 	C 	0.49650 0.44540 0.63280 -0.22500
H 	H 	0.52710 0.43410 0.61540 0.10500
H 	H 	0.46760 0.42780 0.61800 0.10400
C 	C 	0.49020 0.50220 0.62630 0.42800
O 	O 	0.75890 0.22030 0.16510 -0.43500
O 	O 	0.76430 0.22860 0.08260 -0.43200
C 	C 	0.75350 0.30460 0.13280 -0.22800
H 	H 	0.72290 0.31590 0.11540 0.10400
H 	H 	0.78240 0.32220 0.11800 0.10400
C 	C 	0.75980 0.24780 0.12630 0.43200
O 	O 	0.75890 0.72030 0.66510 -0.43000
O 	O 	0.76430 0.72860 0.58260 -0.41000
C 	C 	0.75350 0.80460 0.63280 -0.22900
H 	H 	0.72290 0.81590 0.61540 0.10700
H 	H 	0.78240 0.82220 0.61800 0.10800
C 	C 	0.75980 0.74780 0.62630 0.43000
O 	O 	0.25890 0.22030 0.66510 -0.43200
O 	O 	0.26430 0.22860 0.58260 -0.41200
C 	C 	0.25350 0.30460 0.63280 -0.22500
H 	H 	0.22290 0.31590 0.61540 0.10400
H 	H 	0.28240 0.32220 0.61800 0.10400
C 	C 	0.25980 0.24780 0.62630 0.42800
O 	O 	0.25890 0.72030 0.16510 -0.43500
O 	O 	0.26430 0.72860 0.08260 -0.43200
C 	C 	0.25350 0.80460 0.13280 -0.22900
H 	H 	0.22290 0.81590 0.11540 0.10500
H 	H 	0.28240 0.82220 0.11800 0.10500
C 	C 	0.25980 0.74780 0.12630 0.43100
O 	O 	0.25890 0.52970 0.08490 -0.42400
O 	O 	0.26430 0.52140 0.16740 -0.41300
C 	C 	0.25350 0.44540 0.11720 -0.24700
H 	H 	0.22290 0.43410 0.13460 0.11000
H 	H 	0.28240 0.42780 0.13200 0.11100
C 	C 	0.25980 0.50220 0.12370 0.43100
O 	O 	0.25890 0.02970 0.58490 -0.40900
O 	O 	0.26430 0.02140 0.66740 -0.41200
C 	C 	0.25350 0.94540 0.61720 -0.07300
H 	H 	0.22290 0.93410 0.63460 0.07500
H 	H 	0.28240 0.92780 0.63200 0.07400
C 	C 	0.25980 0.00220 0.62370 0.28800
O 	O 	0.75890 0.52970 0.58490 -0.43000
O 	O 	0.76430 0.52140 0.66740 -0.40900
C 	C 	0.75350 0.44540 0.61720 -0.22700
H 	H 	0.72290 0.43410 0.63460 0.10500
H 	H 	0.78240 0.42780 0.63200 0.10600
C 	C 	0.75980 0.50220 0.62370 0.42900
O 	O 	0.75890 0.02970 0.08490 -0.40300
O 	O 	0.76430 0.02140 0.16740 -0.41300
C 	C 	0.75350 0.94540 0.11720 -0.09700
H 	H 	0.72290 0.93410 0.13460 0.08200
H 	H 	0.78240 0.92780 0.13200 0.08300
C 	C 	0.75980 0.00220 0.12370 0.29400
O 	O 	0.49110 0.72030 0.58490 -0.43000
O 	O 	0.48570 0.72860 0.66740 -0.41000
C 	C 	0.49650 0.80460 0.61720 -0.22800
H 	H 	0.52710 0.81590 0.63460 0.10700
H 	H 	0.46760 0.82220 0.63200 0.10700
C 	C 	0.49020 0.74780 0.62370 0.42900
O 	O 	0.49110 0.22030 0.08490 -0.42500
O 	O 	0.48570 0.22860 0.16740 -0.41400
C 	C 	0.49650 0.30460 0.11720 -0.24700
H 	H 	0.52710 0.31590 0.13460 0.11100
H 	H 	0.46760 0.32220 0.13200 0.11100
C 	C 	0.49020 0.24780 0.12370 0.43200
O 	O 	0.99110 0.72030 0.08490 -0.31500
O 	O 	0.98570 0.72860 0.16740 -0.32900
C 	C 	0.99650 0.80460 0.11720 0.16300
H 	H 	0.02710 0.81590 0.13460 -0.07400
H 	H 	0.96760 0.82220 0.13200 0.01200
C 	C 	0.99020 0.74780 0.12370 0.31600
O 	O 	0.99110 0.22030 0.58490 -0.32100
O 	O 	0.98570 0.22860 0.66740 -0.32700
C 	C 	0.99650 0.30460 0.61720 0.19100
H 	H 	0.02710 0.31590 0.63460 -0.08400
H 	H 	0.96760 0.32220 0.63200 0.00100
C 	C 	0.99020 0.24780 0.62370 0.31000
O 	O 	0.66510 0.99110 0.02970 -0.30200
O 	O 	0.58260 0.98570 0.02140 -0.32900
C 	C 	0.63280 0.99650 0.94540 0.32000
H 	H 	0.61540 0.02710 0.93410 -0.10400
H 	H 	0.61800 0.96760 0.92780 -0.02200
C 	C 	0.62630 0.99020 0.00220 0.18000
O 	O 	0.66510 0.49110 0.52970 -0.43000
O 	O 	0.58260 0.48570 0.52140 -0.41000
C 	C 	0.63280 0.49650 0.44540 -0.22500
H 	H 	0.61540 0.52710 0.43410 0.10500
H 	H 	0.61800 0.46760 0.42780 0.10400
C 	C 	0.62630 0.49020 0.50220 0.42800
O 	O 	0.16510 0.99110 0.52970 -0.32300
O 	O 	0.08260 0.98570 0.52140 -0.34600
C 	C 	0.13280 0.99650 0.44540 0.19500
H 	H 	0.11540 0.02710 0.43410 -0.08700
H 	H 	0.11800 0.96760 0.42780 -0.00200
C 	C 	0.12630 0.99020 0.50220 0.31200
O 	O 	0.16510 0.49110 0.02970 -0.41200
O 	O 	0.08260 0.48570 0.02140 -0.43200
C 	C 	0.13280 0.49650 0.94540 -0.07400
H 	H 	0.11540 0.52710 0.93410 0.07400
H 	H 	0.11800 0.46760 0.92780 0.07200
C 	C 	0.12630 0.49020 0.00220 0.29000
O 	O 	0.16510 0.75890 0.22030 -0.43500
O 	O 	0.08260 0.76430 0.22860 -0.43200
C 	C 	0.13280 0.75350 0.30460 -0.22800
H 	H 	0.11540 0.72290 0.31590 0.10400
H 	H 	0.11800 0.78240 0.32220 0.10400
C 	C 	0.12630 0.75980 0.24780 0.43200
O 	O 	0.16510 0.25890 0.72030 -0.43500
O 	O 	0.08260 0.26430 0.72860 -0.43200
C 	C 	0.13280 0.25350 0.80460 -0.22900
H 	H 	0.11540 0.22290 0.81590 0.10500
H 	H 	0.11800 0.28240 0.82220 0.10500
C 	C 	0.12630 0.25980 0.74780 0.43100
O 	O 	0.66510 0.75890 0.72030 -0.43000
O 	O 	0.58260 0.76430 0.72860 -0.41000
C 	C 	0.63280 0.75350 0.80460 -0.22900
H 	H 	0.61540 0.72290 0.81590 0.10700
H 	H 	0.61800 0.78240 0.82220 0.10800
C 	C 	0.62630 0.75980 0.74780 0.43000
O 	O 	0.66510 0.25890 0.22030 -0.43200
O 	O 	0.58260 0.26430 0.22860 -0.41200
C 	C 	0.63280 0.25350 0.30460 -0.22500
H 	H 	0.61540 0.22290 0.31590 0.10400
H 	H 	0.61800 0.28240 0.32220 0.10400
C 	C 	0.62630 0.25980 0.24780 0.42800
O 	O 	0.08490 0.25890 0.52970 -0.42400
O 	O 	0.16740 0.26430 0.52140 -0.41300
C 	C 	0.11720 0.25350 0.44540 -0.24700
H 	H 	0.13460 0.22290 0.43410 0.11000
H 	H 	0.13200 0.28240 0.42780 0.11100
C 	C 	0.12370 0.25980 0.50220 0.43100
O 	O 	0.08490 0.75890 0.02970 -0.40300
O 	O 	0.16740 0.76430 0.02140 -0.41300
C 	C 	0.11720 0.75350 0.94540 -0.09700
H 	H 	0.13460 0.72290 0.93410 0.08200
H 	H 	0.13200 0.78240 0.92780 0.08300
C 	C 	0.12370 0.75980 0.00220 0.29400
O 	O 	0.58490 0.25890 0.02970 -0.40900
O 	O 	0.66740 0.26430 0.02140 -0.41200
C 	C 	0.61720 0.25350 0.94540 -0.07300
H 	H 	0.63460 0.22290 0.93410 0.07500
H 	H 	0.63200 0.28240 0.92780 0.07400
C 	C 	0.62370 0.25980 0.00220 0.28800
O 	O 	0.58490 0.75890 0.52970 -0.43000
O 	O 	0.66740 0.76430 0.52140 -0.40900
C 	C 	0.61720 0.75350 0.44540 -0.22700
H 	H 	0.63460 0.72290 0.43410 0.10500
H 	H 	0.63200 0.78240 0.42780 0.10600
C 	C 	0.62370 0.75980 0.50220 0.42900
O 	O 	0.58490 0.49110 0.72030 -0.43000
O 	O 	0.66740 0.48570 0.72860 -0.41000
C 	C 	0.61720 0.49650 0.80460 -0.22800
H 	H 	0.63460 0.52710 0.81590 0.10700
H 	H 	0.63200 0.46760 0.82220 0.10700
C 	C 	0.62370 0.49020 0.74780 0.42900
O 	O 	0.58490 0.99110 0.22030 -0.32100
O 	O 	0.66740 0.98570 0.22860 -0.32700
C 	C 	0.61720 0.99650 0.30460 0.19100
H 	H 	0.63460 0.02710 0.31590 -0.08400
H 	H 	0.63200 0.96760 0.32220 0.00100
C 	C 	0.62370 0.99020 0.24780 0.31000
O 	O 	0.08490 0.49110 0.22030 -0.42500
O 	O 	0.16740 0.48570 0.22860 -0.41400
C 	C 	0.11720 0.49650 0.30460 -0.24700
H 	H 	0.13460 0.52710 0.31590 0.11100
H 	H 	0.13200 0.46760 0.32220 0.11100
C 	C 	0.12370 0.49020 0.24780 0.43200
O 	O 	0.08490 0.99110 0.72030 -0.31500
O 	O 	0.16740 0.98570 0.72860 -0.32900
C 	C 	0.11720 0.99650 0.80460 0.16300
H 	H 	0.13460 0.02710 0.81590 -0.07400
H 	H 	0.13200 0.96760 0.82220 0.01200
C 	C 	0.12370 0.99020 0.74780 0.31600
O 	O 	0.02970 0.66510 0.99110 -0.30200
O 	O 	0.02140 0.58260 0.98570 -0.32900
C 	C 	0.94540 0.63280 0.99650 0.32000
H 	H 	0.93410 0.61540 0.02710 -0.10400
H 	H 	0.92780 0.61800 0.96760 -0.02200
C 	C 	0.00220 0.62630 0.99020 0.18000
O 	O 	0.02970 0.16510 0.49110 -0.41200
O 	O 	0.02140 0.08260 0.48570 -0.43200
C 	C 	0.94540 0.13280 0.49650 -0.07400
H 	H 	0.93410 0.11540 0.52710 0.07400
H 	H 	0.92780 0.11800 0.46760 0.07200
C 	C 	0.00220 0.12630 0.49020 0.29000
O 	O 	0.52970 0.66510 0.49110 -0.43000
O 	O 	0.52140 0.58260 0.48570 -0.41000
C 	C 	0.44540 0.63280 0.49650 -0.22500
H 	H 	0.43410 0.61540 0.52710 0.10500
H 	H 	0.42780 0.61800 0.46760 0.10400
C 	C 	0.50220 0.62630 0.49020 0.42800
O 	O 	0.52970 0.16510 0.99110 -0.32300
O 	O 	0.52140 0.08260 0.98570 -0.34600
C 	C 	0.44540 0.13280 0.99650 0.19500
H 	H 	0.43410 0.11540 0.02710 -0.08700
H 	H 	0.42780 0.11800 0.96760 -0.00200
C 	C 	0.50220 0.12630 0.99020 0.31200
O 	O 	0.22030 0.16510 0.75890 -0.43500
O 	O 	0.22860 0.08260 0.76430 -0.43200
C 	C 	0.30460 0.13280 0.75350 -0.22800
H 	H 	0.31590 0.11540 0.72290 0.10400
H 	H 	0.32220 0.11800 0.78240 0.10400
C 	C 	0.24780 0.12630 0.75980 0.43200
O 	O 	0.22030 0.66510 0.25890 -0.43200
O 	O 	0.22860 0.58260 0.26430 -0.41200
C 	C 	0.30460 0.63280 0.25350 -0.22500
H 	H 	0.31590 0.61540 0.22290 0.10400
H 	H 	0.32220 0.61800 0.28240 0.10400
C 	C 	0.24780 0.62630 0.25980 0.42800
O 	O 	0.72030 0.16510 0.25890 -0.43500
O 	O 	0.72860 0.08260 0.26430 -0.43200
C 	C 	0.80460 0.13280 0.25350 -0.22900
H 	H 	0.81590 0.11540 0.22290 0.10500
H 	H 	0.82220 0.11800 0.28240 0.10500
C 	C 	0.74780 0.12630 0.25980 0.43100
O 	O 	0.72030 0.66510 0.75890 -0.43000
O 	O 	0.72860 0.58260 0.76430 -0.41000
C 	C 	0.80460 0.63280 0.75350 -0.22900
H 	H 	0.81590 0.61540 0.72290 0.10700
H 	H 	0.82220 0.61800 0.78240 0.10800
C 	C 	0.74780 0.62630 0.75980 0.43000
O 	O 	0.52970 0.08490 0.25890 -0.42400
O 	O 	0.52140 0.16740 0.26430 -0.41300
C 	C 	0.44540 0.11720 0.25350 -0.24700
H 	H 	0.43410 0.13460 0.22290 0.11000
H 	H 	0.42780 0.13200 0.28240 0.11100
C 	C 	0.50220 0.12370 0.25980 0.43100
O 	O 	0.52970 0.58490 0.75890 -0.43000
O 	O 	0.52140 0.66740 0.76430 -0.40900
C 	C 	0.44540 0.61720 0.75350 -0.22700
H 	H 	0.43410 0.63460 0.72290 0.10500
H 	H 	0.42780 0.63200 0.78240 0.10600
C 	C 	0.50220 0.62370 0.75980 0.42900
O 	O 	0.02970 0.08490 0.75890 -0.40300
O 	O 	0.02140 0.16740 0.76430 -0.41300
C 	C 	0.94540 0.11720 0.75350 -0.09700
H 	H 	0.93410 0.13460 0.72290 0.08200
H 	H 	0.92780 0.13200 0.78240 0.08300
C 	C 	0.00220 0.12370 0.75980 0.29400
O 	O 	0.02970 0.58490 0.25890 -0.40900
O 	O 	0.02140 0.66740 0.26430 -0.41200
C 	C 	0.94540 0.61720 0.25350 -0.07300
H 	H 	0.93410 0.63460 0.22290 0.07500
H 	H 	0.92780 0.63200 0.28240 0.07400
C 	C 	0.00220 0.62370 0.25980 0.28800
O 	O 	0.72030 0.58490 0.49110 -0.43000
O 	O 	0.72860 0.66740 0.48570 -0.41000
C 	C 	0.80460 0.61720 0.49650 -0.22800
H 	H 	0.81590 0.63460 0.52710 0.10700
H 	H 	0.82220 0.63200 0.46760 0.10700
C 	C 	0.74780 0.62370 0.49020 0.42900
O 	O 	0.72030 0.08490 0.99110 -0.31500
O 	O 	0.72860 0.16740 0.98570 -0.32900
C 	C 	0.80460 0.11720 0.99650 0.16300
H 	H 	0.81590 0.13460 0.02710 -0.07400
H 	H 	0.82220 0.13200 0.96760 0.01200
C 	C 	0.74780 0.12370 0.99020 0.31600
O 	O 	0.22030 0.58490 0.99110 -0.32100
O 	O 	0.22860 0.66740 0.98570 -0.32700
C 	C 	0.30460 0.61720 0.99650 0.19100
H 	H 	0.31590 0.63460 0.02710 -0.08400
H 	H 	0.32220 0.63200 0.96760 0.00100
C 	C 	0.24780 0.62370 0.99020 0.31000
O 	O 	0.22030 0.08490 0.49110 -0.42500
O 	O 	0.22860 0.16740 0.48570 -0.41400
C 	C 	0.30460 0.11720 0.49650 -0.24700
H 	H 	0.31590 0.13460 0.52710 0.11100
H 	H 	0.32220 0.13200 0.46760 0.11100
C 	C 	0.24780 0.12370 0.49020 0.43200
O 	O 	0.27970 0.74110 0.33490 -0.42800
O 	O 	0.27140 0.73570 0.41740 -0.40800
C 	C 	0.19540 0.74650 0.36720 -0.22600
H 	H 	0.18410 0.77710 0.38460 0.10700
H 	H 	0.17780 0.71760 0.38200 0.10400
C 	C 	0.25220 0.74020 0.37370 0.42900
O 	O 	0.27970 0.24110 0.83490 -0.42300
O 	O 	0.27140 0.23570 0.91740 -0.37500
C 	C 	0.19540 0.24650 0.86720 -0.22300
H 	H 	0.18410 0.27710 0.88460 0.11000
H 	H 	0.17780 0.21760 0.88200 0.10600
C 	C 	0.25220 0.24020 0.87370 0.42200
O 	O 	0.77970 0.74110 0.83490 -0.41900
O 	O 	0.77140 0.73570 0.91740 -0.37300
C 	C 	0.69540 0.74650 0.86720 -0.22500
H 	H 	0.68410 0.77710 0.88460 0.11200
H 	H 	0.67780 0.71760 0.88200 0.10700
C 	C 	0.75220 0.74020 0.87370 0.42400
O 	O 	0.77970 0.24110 0.33490 -0.42700
O 	O 	0.77140 0.23570 0.41740 -0.40700
C 	C 	0.69540 0.24650 0.36720 -0.22400
H 	H 	0.68410 0.27710 0.38460 0.10500
H 	H 	0.67780 0.21760 0.38200 0.10300
C 	C 	0.75220 0.24020 0.37370 0.42700
O 	O 	0.47030 0.50890 0.83490 -0.42300
O 	O 	0.47860 0.51430 0.91740 -0.37500
C 	C 	0.55460 0.50350 0.86720 -0.22400
H 	H 	0.56590 0.47290 0.88460 0.11100
H 	H 	0.57220 0.53240 0.88200 0.10700
C 	C 	0.49780 0.50980 0.87370 0.42300
O 	O 	0.47030 0.00890 0.33490 -0.45100
O 	O 	0.47860 0.01430 0.41740 -0.45900
C 	C 	0.55460 0.00350 0.36720 -0.41600
H 	H 	0.56590 0.97290 0.38460 0.23800
H 	H 	0.57220 0.03240 0.38200 0.14900
C 	C 	0.49780 0.00980 0.37370 0.47200
O 	O 	0.97030 0.50890 0.33490 -0.39200
O 	O 	0.97860 0.51430 0.41740 -0.39200
C 	C 	0.05460 0.50350 0.36720 -0.39100
H 	H 	0.06590 0.47290 0.38460 0.14100
H 	H 	0.07220 0.53240 0.38200 0.14200
C 	C 	0.99780 0.50980 0.37370 0.56200
O 	O 	0.97030 0.00890 0.83490 -0.40800
O 	O 	0.97860 0.01430 0.91740 -0.40800
C 	C 	0.05460 0.00350 0.86720 -0.57300
H 	H 	0.06590 0.97290 0.88460 0.27600
H 	H 	0.07220 0.03240 0.88200 0.18900
C 	C 	0.99780 0.00980 0.87370 0.59700
O 	O 	0.77970 0.00890 0.91510 -0.38600
O 	O 	0.77140 0.01430 0.83260 -0.44700
C 	C 	0.69540 0.00350 0.88280 -0.39900
H 	H 	0.68410 0.97290 0.86540 0.23300
H 	H 	0.67780 0.03240 0.86800 0.14600
C 	C 	0.75220 0.00980 0.87630 0.45700
O 	O 	0.77970 0.50890 0.41510 -0.42700
O 	O 	0.77140 0.51430 0.33260 -0.40700
C 	C 	0.69540 0.50350 0.38280 -0.22500
H 	H 	0.68410 0.47290 0.36540 0.10500
H 	H 	0.67780 0.53240 0.36800 0.10400
C 	C 	0.75220 0.50980 0.37630 0.42800
O 	O 	0.27970 0.00890 0.41510 -0.45200
O 	O 	0.27140 0.01430 0.33260 -0.45900
C 	C 	0.19540 0.00350 0.38280 -0.41800
H 	H 	0.18410 0.97290 0.36540 0.23900
H 	H 	0.17780 0.03240 0.36800 0.14900
C 	C 	0.25220 0.00980 0.37630 0.47200
O 	O 	0.27970 0.50890 0.91510 -0.36700
O 	O 	0.27140 0.51430 0.83260 -0.40100
C 	C 	0.19540 0.50350 0.88280 -0.21300
H 	H 	0.18410 0.47290 0.86540 0.10500
H 	H 	0.17780 0.53240 0.86800 0.10200
C 	C 	0.25220 0.50980 0.87630 0.41400
O 	O 	0.97030 0.24110 0.41510 -0.39200
O 	O 	0.97860 0.23570 0.33260 -0.39200
C 	C 	0.05460 0.24650 0.38280 -0.39100
H 	H 	0.06590 0.27710 0.36540 0.14200
H 	H 	0.07220 0.21760 0.36800 0.14100
C 	C 	0.99780 0.24020 0.37630 0.56300
O 	O 	0.97030 0.74110 0.91510 -0.33200
O 	O 	0.97860 0.73570 0.83260 -0.38400
C 	C 	0.05460 0.74650 0.88280 -0.37300
H 	H 	0.06590 0.77710 0.86540 0.14100
H 	H 	0.07220 0.71760 0.86800 0.13900
C 	C 	0.99780 0.74020 0.87630 0.54300
O 	O 	0.47030 0.24110 0.91510 -0.36700
O 	O 	0.47860 0.23570 0.83260 -0.40100
C 	C 	0.55460 0.24650 0.88280 -0.21300
H 	H 	0.56590 0.27710 0.86540 0.10500
H 	H 	0.57220 0.21760 0.86800 0.10100
C 	C 	0.49780 0.24020 0.87630 0.41400
O 	O 	0.47030 0.74110 0.41510 -0.42800
O 	O 	0.47860 0.73570 0.33260 -0.40800
C 	C 	0.55460 0.74650 0.38280 -0.22600
H 	H 	0.56590 0.77710 0.36540 0.10700
H 	H 	0.57220 0.71760 0.36800 0.10400
C 	C 	0.49780 0.74020 0.37630 0.42900
O 	O 	0.24110 0.41510 0.97030 -0.39200
O 	O 	0.23570 0.33260 0.97860 -0.39200
C 	C 	0.24650 0.38280 0.05460 -0.39100
H 	H 	0.27710 0.36540 0.06590 0.14200
H 	H 	0.21760 0.36800 0.07220 0.14100
C 	C 	0.24020 0.37630 0.99780 0.56300
O 	O 	0.24110 0.91510 0.47030 -0.36700
O 	O 	0.23570 0.83260 0.47860 -0.40100
C 	C 	0.24650 0.88280 0.55460 -0.21300
H 	H 	0.27710 0.86540 0.56590 0.10500
H 	H 	0.21760 0.86800 0.57220 0.10100
C 	C 	0.24020 0.87630 0.49780 0.41400
O 	O 	0.74110 0.41510 0.47030 -0.42800
O 	O 	0.73570 0.33260 0.47860 -0.40800
C 	C 	0.74650 0.38280 0.55460 -0.22600
H 	H 	0.77710 0.36540 0.56590 0.10700
H 	H 	0.71760 0.36800 0.57220 0.10400
C 	C 	0.74020 0.37630 0.49780 0.42900
O 	O 	0.74110 0.91510 0.97030 -0.33200
O 	O 	0.73570 0.83260 0.97860 -0.38400
C 	C 	0.74650 0.88280 0.05460 -0.37300
H 	H 	0.77710 0.86540 0.06590 0.14100
H 	H 	0.71760 0.86800 0.07220 0.13900
C 	C 	0.74020 0.87630 0.99780 0.54300
O 	O 	0.00890 0.91510 0.77970 -0.38600
O 	O 	0.01430 0.83260 0.77140 -0.44700
C 	C 	0.00350 0.88280 0.69540 -0.39900
H 	H 	0.97290 0.86540 0.68410 0.23300
H 	H 	0.03240 0.86800 0.67780 0.14600
C 	C 	0.00980 0.87630 0.75220 0.45700
O 	O 	0.00890 0.41510 0.27970 -0.45200
O 	O 	0.01430 0.33260 0.27140 -0.45900
C 	C 	0.00350 0.38280 0.19540 -0.41800
H 	H 	0.97290 0.36540 0.18410 0.23900
H 	H 	0.03240 0.36800 0.17780 0.14900
C 	C 	0.00980 0.37630 0.25220 0.47200
O 	O 	0.50890 0.91510 0.27970 -0.36700
O 	O 	0.51430 0.83260 0.27140 -0.40100
C 	C 	0.50350 0.88280 0.19540 -0.21300
H 	H 	0.47290 0.86540 0.18410 0.10500
H 	H 	0.53240 0.86800 0.17780 0.10200
C 	C 	0.50980 0.87630 0.25220 0.41400
O 	O 	0.50890 0.41510 0.77970 -0.42700
O 	O 	0.51430 0.33260 0.77140 -0.40700
C 	C 	0.50350 0.38280 0.69540 -0.22500
H 	H 	0.47290 0.36540 0.68410 0.10500
H 	H 	0.53240 0.36800 0.67780 0.10400
C 	C 	0.50980 0.37630 0.75220 0.42800
O 	O 	0.50890 0.83490 0.47030 -0.42300
O 	O 	0.51430 0.91740 0.47860 -0.37500
C 	C 	0.50350 0.86720 0.55460 -0.22400
H 	H 	0.47290 0.88460 0.56590 0.11100
H 	H 	0.53240 0.88200 0.57220 0.10700
C 	C 	0.50980 0.87370 0.49780 0.42300
O 	O 	0.50890 0.33490 0.97030 -0.39200
O 	O 	0.51430 0.41740 0.97860 -0.39200
C 	C 	0.50350 0.36720 0.05460 -0.39100
H 	H 	0.47290 0.38460 0.06590 0.14100
H 	H 	0.53240 0.38200 0.07220 0.14200
C 	C 	0.50980 0.37370 0.99780 0.56200
O 	O 	0.00890 0.83490 0.97030 -0.40800
O 	O 	0.01430 0.91740 0.97860 -0.40800
C 	C 	0.00350 0.86720 0.05460 -0.57300
H 	H 	0.97290 0.88460 0.06590 0.27600
H 	H 	0.03240 0.88200 0.07220 0.18900
C 	C 	0.00980 0.87370 0.99780 0.59700
O 	O 	0.00890 0.33490 0.47030 -0.45100
O 	O 	0.01430 0.41740 0.47860 -0.45900
C 	C 	0.00350 0.36720 0.55460 -0.41600
H 	H 	0.97290 0.38460 0.56590 0.23800
H 	H 	0.03240 0.38200 0.57220 0.14900
C 	C 	0.00980 0.37370 0.49780 0.47200
O 	O 	0.74110 0.33490 0.27970 -0.42800
O 	O 	0.73570 0.41740 0.27140 -0.40800
C 	C 	0.74650 0.36720 0.19540 -0.22600
H 	H 	0.77710 0.38460 0.18410 0.10700
H 	H 	0.71760 0.38200 0.17780 0.10400
C 	C 	0.74020 0.37370 0.25220 0.42900
O 	O 	0.74110 0.83490 0.77970 -0.41900
O 	O 	0.73570 0.91740 0.77140 -0.37300
C 	C 	0.74650 0.86720 0.69540 -0.22500
H 	H 	0.77710 0.88460 0.68410 0.11200
H 	H 	0.71760 0.88200 0.67780 0.10700
C 	C 	0.74020 0.87370 0.75220 0.42400
O 	O 	0.24110 0.33490 0.77970 -0.42700
O 	O 	0.23570 0.41740 0.77140 -0.40700
C 	C 	0.24650 0.36720 0.69540 -0.22400
H 	H 	0.27710 0.38460 0.68410 0.10500
H 	H 	0.21760 0.38200 0.67780 0.10300
C 	C 	0.24020 0.37370 0.75220 0.42700
O 	O 	0.24110 0.83490 0.27970 -0.42300
O 	O 	0.23570 0.91740 0.27140 -0.37500
C 	C 	0.24650 0.86720 0.19540 -0.22300
H 	H 	0.27710 0.88460 0.18410 0.11000
H 	H 	0.21760 0.88200 0.17780 0.10600
C 	C 	0.24020 0.87370 0.25220 0.42200
O 	O 	0.91510 0.77970 0.00890 -0.38600
O 	O 	0.83260 0.77140 0.01430 -0.44700
C 	C 	0.88280 0.69540 0.00350 -0.39900
H 	H 	0.86540 0.68410 0.97290 0.23300
H 	H 	0.86800 0.67780 0.03240 0.14600
C 	C 	0.87630 0.75220 0.00980 0.45700
O 	O 	0.91510 0.27970 0.50890 -0.36700
O 	O 	0.83260 0.27140 0.51430 -0.40100
C 	C 	0.88280 0.19540 0.50350 -0.21300
H 	H 	0.86540 0.18410 0.47290 0.10500
H 	H 	0.86800 0.17780 0.53240 0.10200
C 	C 	0.87630 0.25220 0.50980 0.41400
O 	O 	0.41510 0.77970 0.50890 -0.42700
O 	O 	0.33260 0.77140 0.51430 -0.40700
C 	C 	0.38280 0.69540 0.50350 -0.22500
H 	H 	0.36540 0.68410 0.47290 0.10500
H 	H 	0.36800 0.67780 0.53240 0.10400
C 	C 	0.37630 0.75220 0.50980 0.42800
O 	O 	0.41510 0.27970 0.00890 -0.45200
O 	O 	0.33260 0.27140 0.01430 -0.45900
C 	C 	0.38280 0.19540 0.00350 -0.41800
H 	H 	0.36540 0.18410 0.97290 0.23900
H 	H 	0.36800 0.17780 0.03240 0.14900
C 	C 	0.37630 0.25220 0.00980 0.47200
O 	O 	0.41510 0.97030 0.24110 -0.39200
O 	O 	0.33260 0.97860 0.23570 -0.39200
C 	C 	0.38280 0.05460 0.24650 -0.39100
H 	H 	0.36540 0.06590 0.27710 0.14200
H 	H 	0.36800 0.07220 0.21760 0.14100
C 	C 	0.37630 0.99780 0.24020 0.56300
O 	O 	0.41510 0.47030 0.74110 -0.42800
O 	O 	0.33260 0.47860 0.73570 -0.40800
C 	C 	0.38280 0.55460 0.74650 -0.22600
H 	H 	0.36540 0.56590 0.77710 0.10700
H 	H 	0.36800 0.57220 0.71760 0.10400
C 	C 	0.37630 0.49780 0.74020 0.42900
O 	O 	0.91510 0.97030 0.74110 -0.33200
O 	O 	0.83260 0.97860 0.73570 -0.38400
C 	C 	0.88280 0.05460 0.74650 -0.37300
H 	H 	0.86540 0.06590 0.77710 0.14100
H 	H 	0.86800 0.07220 0.71760 0.13900
C 	C 	0.87630 0.99780 0.74020 0.54300
O 	O 	0.91510 0.47030 0.24110 -0.36700
O 	O 	0.83260 0.47860 0.23570 -0.40100
C 	C 	0.88280 0.55460 0.24650 -0.21300
H 	H 	0.86540 0.56590 0.27710 0.10500
H 	H 	0.86800 0.57220 0.21760 0.10100
C 	C 	0.87630 0.49780 0.24020 0.41400
O 	O 	0.33490 0.27970 0.74110 -0.42800
O 	O 	0.41740 0.27140 0.73570 -0.40800
C 	C 	0.36720 0.19540 0.74650 -0.22600
H 	H 	0.38460 0.18410 0.77710 0.10700
H 	H 	0.38200 0.17780 0.71760 0.10400
C 	C 	0.37370 0.25220 0.74020 0.42900
O 	O 	0.33490 0.77970 0.24110 -0.42700
O 	O 	0.41740 0.77140 0.23570 -0.40700
C 	C 	0.36720 0.69540 0.24650 -0.22400
H 	H 	0.38460 0.68410 0.27710 0.10500
H 	H 	0.38200 0.67780 0.21760 0.10300
C 	C 	0.37370 0.75220 0.24020 0.42700
O 	O 	0.83490 0.27970 0.24110 -0.42300
O 	O 	0.91740 0.27140 0.23570 -0.37500
C 	C 	0.86720 0.19540 0.24650 -0.22300
H 	H 	0.88460 0.18410 0.27710 0.11000
H 	H 	0.88200 0.17780 0.21760 0.10600
C 	C 	0.87370 0.25220 0.24020 0.42200
O 	O 	0.83490 0.77970 0.74110 -0.41900
O 	O 	0.91740 0.77140 0.73570 -0.37300
C 	C 	0.86720 0.69540 0.74650 -0.22500
H 	H 	0.88460 0.68410 0.77710 0.11200
H 	H 	0.88200 0.67780 0.71760 0.10700
C 	C 	0.87370 0.75220 0.74020 0.42400
O 	O 	0.83490 0.47030 0.50890 -0.42300
O 	O 	0.91740 0.47860 0.51430 -0.37500
C 	C 	0.86720 0.55460 0.50350 -0.22400
H 	H 	0.88460 0.56590 0.47290 0.11100
H 	H 	0.88200 0.57220 0.53240 0.10700
C 	C 	0.87370 0.49780 0.50980 0.42300
O 	O 	0.83490 0.97030 0.00890 -0.40800
O 	O 	0.91740 0.97860 0.01430 -0.40800
C 	C 	0.86720 0.05460 0.00350 -0.57300
H 	H 	0.88460 0.06590 0.97290 0.27600
H 	H 	0.88200 0.07220 0.03240 0.18900
C 	C 	0.87370 0.99780 0.00980 0.59700
O 	O 	0.33490 0.47030 0.00890 -0.45100
O 	O 	0.41740 0.47860 0.01430 -0.45900
C 	C 	0.36720 0.55460 0.00350 -0.41600
H 	H 	0.38460 0.56590 0.97290 0.23800
H 	H 	0.38200 0.57220 0.03240 0.14900
C 	C 	0.37370 0.49780 0.00980 0.47200
O 	O 	0.33490 0.97030 0.50890 -0.39200
O 	O 	0.41740 0.97860 0.51430 -0.39200
C 	C 	0.36720 0.05460 0.50350 -0.39100
H 	H 	0.38460 0.06590 0.47290 0.14100
H 	H 	0.38200 0.07220 0.53240 0.14200
C 	C 	0.37370 0.99780 0.50980 0.56200
Dy	Dy	0.00000 0.00000 0.25000 1.49900
Dy	Dy	-0.00000 0.50000 0.75000 1.73900
Dy	Dy	0.50000 0.00000 0.75000 1.74000
Dy	Dy	0.50000 0.50000 0.25000 1.96900
Dy	Dy	0.25000 0.75000 0.75000 1.97000
Dy	Dy	0.25000 0.25000 0.25000 1.96800
Dy	Dy	0.75000 0.50000 -0.00000 1.74000
Dy	Dy	0.75000 0.00000 0.50000 1.73900
Dy	Dy	0.50000 0.25000 0.50000 1.96900
Dy	Dy	0.50000 0.75000 -0.00000 1.73900
Dy	Dy	0.25000 0.00000 -0.00000 1.49900
Dy	Dy	0.25000 0.50000 0.50000 1.96900
Dy	Dy	0.75000 0.25000 0.75000 1.97000
Dy	Dy	-0.00000 0.75000 0.50000 1.74000
Dy	Dy	-0.00000 0.25000 -0.00000 1.49900
Dy	Dy	0.75000 0.75000 0.25000 1.97000
Dy	Dy	-0.00000 0.00000 0.75000 1.50800
Dy	Dy	-0.00000 0.50000 0.25000 1.73400
Dy	Dy	0.75000 0.25000 0.25000 1.96900
Dy	Dy	0.75000 0.75000 0.75000 1.97100
Dy	Dy	0.25000 0.50000 -0.00000 1.73400
Dy	Dy	0.25000 0.00000 0.50000 1.73400
Dy	Dy	0.50000 0.75000 0.50000 1.97000
Dy	Dy	0.50000 0.25000 -0.00000 1.73400
Dy	Dy	0.75000 0.00000 -0.00000 1.50800
Dy	Dy	0.25000 0.75000 0.25000 1.96900
Dy	Dy	-0.00000 0.25000 0.50000 1.73400
Dy	Dy	0.50000 0.50000 0.75000 1.97000
Dy	Dy	-0.00000 0.75000 -0.00000 1.50800
Dy	Dy	0.25000 0.25000 0.75000 1.96900
Dy	Dy	0.50000 0.00000 0.25000 1.73400
Dy	Dy	0.75000 0.50000 0.50000 1.97000
Cd	Cd	0.00000 0.00000 0.50000 1.18700
Cd	Cd	0.50000 0.50000 0.50000 1.25900
Cd	Cd	0.25000 0.75000 -0.00000 1.22300
Cd	Cd	0.75000 0.50000 0.75000 1.25900
Cd	Cd	0.75000 0.00000 0.25000 1.22300
Cd	Cd	0.50000 0.25000 0.25000 1.25900
Cd	Cd	0.00000 0.25000 0.75000 1.22300
Cd	Cd	0.50000 0.00000 -0.00000 1.18700
Cd	Cd	0.75000 0.75000 0.50000 1.25900
Cd	Cd	0.25000 0.50000 0.25000 1.25900
Cd	Cd	-0.00000 0.50000 -0.00000 1.18700
Cd	Cd	0.50000 0.75000 0.75000 1.25900
Cd	Cd	0.25000 0.25000 0.50000 1.25900
Cd	Cd	0.75000 0.25000 0.50000 1.25900
Cd	Cd	0.75000 0.75000 -0.00000 1.22400
Cd	Cd	0.25000 0.25000 -0.00000 1.22300
Cd	Cd	0.50000 0.50000 -0.00000 1.22300
Cd	Cd	0.25000 0.00000 0.25000 1.22300
Cd	Cd	0.00000 0.75000 0.75000 1.22400
Cd	Cd	0.00000 0.25000 0.25000 1.22300
Cd	Cd	0.50000 0.00000 0.50000 1.22300
Cd	Cd	0.25000 0.50000 0.75000 1.25900
Cd	Cd	0.75000 0.00000 0.75000 1.22400
Cd	Cd	0.50000 0.75000 0.25000 1.25900
Cd	Cd	0.00000 0.50000 0.50000 1.22300
Cd	Cd	-0.00000 0.00000 -0.00000 1.15200
Cd	Cd	0.75000 0.25000 -0.00000 1.22400
Cd	Cd	0.00000 0.75000 0.25000 1.22400
Cd	Cd	0.25000 0.00000 0.75000 1.22400
Cd	Cd	0.25000 0.75000 0.50000 1.25900
Cd	Cd	0.75000 0.50000 0.25000 1.25900
Cd	Cd	0.50000 0.25000 0.75000 1.25900
O 	O 	0.00000 0.06580 0.31580 -0.28500
O 	O 	-0.00000 0.56580 0.81580 -0.31900
O 	O 	0.50000 0.06580 0.81580 -0.18400
O 	O 	0.50000 0.56580 0.31580 -0.22300
O 	O 	0.25000 0.68420 0.81580 -0.22200
O 	O 	0.25000 0.18420 0.31580 -0.22400
O 	O 	0.75000 0.68420 0.31580 -0.22200
O 	O 	0.75000 0.18420 0.81580 -0.22100
O 	O 	0.75000 0.56580 0.93420 -0.20800
O 	O 	0.75000 0.06580 0.43420 -0.18400
O 	O 	0.25000 0.56580 0.43420 -0.22400
O 	O 	0.25000 0.06580 0.93420 -0.17100
O 	O 	0.50000 0.18420 0.43420 -0.22300
O 	O 	0.50000 0.68420 0.93420 -0.20900
O 	O 	0.00000 0.18420 0.93420 -0.30400
O 	O 	-0.00000 0.68420 0.43420 -0.32200
O 	O 	0.31580 0.00000 0.06580 -0.28500
O 	O 	0.31580 0.50000 0.56580 -0.22300
O 	O 	0.81580 0.00000 0.56580 -0.31900
O 	O 	0.81580 0.50000 0.06580 -0.18400
O 	O 	0.81580 0.25000 0.68420 -0.22200
O 	O 	0.81580 0.75000 0.18420 -0.22100
O 	O 	0.31580 0.25000 0.18420 -0.22400
O 	O 	0.31580 0.75000 0.68420 -0.22200
O 	O 	0.93420 0.75000 0.56580 -0.20800
O 	O 	0.93420 0.25000 0.06580 -0.17100
O 	O 	0.43420 0.75000 0.06580 -0.18400
O 	O 	0.43420 0.25000 0.56580 -0.22400
O 	O 	0.43420 0.50000 0.18420 -0.22300
O 	O 	0.43420 0.00000 0.68420 -0.32200
O 	O 	0.93420 0.50000 0.68420 -0.20900
O 	O 	0.93420 0.00000 0.18420 -0.30400
O 	O 	0.06580 0.31580 -0.00000 -0.28500
O 	O 	0.06580 0.81580 0.50000 -0.18400
O 	O 	0.56580 0.31580 0.50000 -0.22300
O 	O 	0.56580 0.81580 -0.00000 -0.31900
O 	O 	0.68420 0.81580 0.25000 -0.22200
O 	O 	0.68420 0.31580 0.75000 -0.22200
O 	O 	0.18420 0.81580 0.75000 -0.22100
O 	O 	0.18420 0.31580 0.25000 -0.22400
O 	O 	0.56580 0.93420 0.75000 -0.20800
O 	O 	0.56580 0.43420 0.25000 -0.22400
O 	O 	0.06580 0.93420 0.25000 -0.17100
O 	O 	0.06580 0.43420 0.75000 -0.18400
O 	O 	0.18420 0.43420 0.50000 -0.22300
O 	O 	0.18420 0.93420 -0.00000 -0.30400
O 	O 	0.68420 0.43420 -0.00000 -0.32200
O 	O 	0.68420 0.93420 0.50000 -0.20900
O 	O 	0.00000 0.93420 0.68420 -0.30300
O 	O 	0.00000 0.43420 0.18420 -0.32300
O 	O 	0.50000 0.93420 0.18420 -0.20900
O 	O 	0.50000 0.43420 0.68420 -0.22300
O 	O 	0.75000 0.31580 0.18420 -0.22200
O 	O 	0.75000 0.81580 0.68420 -0.22100
O 	O 	0.25000 0.31580 0.68420 -0.22400
O 	O 	0.25000 0.81580 0.18420 -0.22200
O 	O 	0.25000 0.43420 0.06580 -0.18500
O 	O 	0.25000 0.93420 0.56580 -0.20900
O 	O 	0.75000 0.43420 0.56580 -0.22200
O 	O 	0.75000 0.93420 0.06580 -0.17100
O 	O 	0.50000 0.81580 0.56580 -0.22200
O 	O 	0.50000 0.31580 0.06580 -0.18400
O 	O 	0.00000 0.81580 0.06580 -0.28200
O 	O 	0.00000 0.31580 0.56580 -0.32200
O 	O 	0.68420 0.00000 0.93420 -0.30300
O 	O 	0.68420 0.50000 0.43420 -0.22300
O 	O 	0.18420 0.00000 0.43420 -0.32300
O 	O 	0.18420 0.50000 0.93420 -0.20900
O 	O 	0.18420 0.75000 0.31580 -0.22200
O 	O 	0.18420 0.25000 0.81580 -0.22200
O 	O 	0.68420 0.75000 0.81580 -0.22100
O 	O 	0.68420 0.25000 0.31580 -0.22400
O 	O 	0.06580 0.25000 0.43420 -0.18500
O 	O 	0.06580 0.75000 0.93420 -0.17100
O 	O 	0.56580 0.25000 0.93420 -0.20900
O 	O 	0.56580 0.75000 0.43420 -0.22200
O 	O 	0.56580 0.50000 0.81580 -0.22200
O 	O 	0.56580 0.00000 0.31580 -0.32200
O 	O 	0.06580 0.50000 0.31580 -0.18400
O 	O 	0.06580 0.00000 0.81580 -0.28200
O 	O 	0.93420 0.68420 -0.00000 -0.30300
O 	O 	0.93420 0.18420 0.50000 -0.20900
O 	O 	0.43420 0.68420 0.50000 -0.22300
O 	O 	0.43420 0.18420 -0.00000 -0.32300
O 	O 	0.31580 0.18420 0.75000 -0.22200
O 	O 	0.31580 0.68420 0.25000 -0.22400
O 	O 	0.81580 0.18420 0.25000 -0.22200
O 	O 	0.81580 0.68420 0.75000 -0.22100
O 	O 	0.43420 0.06580 0.25000 -0.18500
O 	O 	0.43420 0.56580 0.75000 -0.22200
O 	O 	0.93420 0.06580 0.75000 -0.17100
O 	O 	0.93420 0.56580 0.25000 -0.20900
O 	O 	0.81580 0.56580 0.50000 -0.22200
O 	O 	0.81580 0.06580 -0.00000 -0.28200
O 	O 	0.31580 0.56580 -0.00000 -0.32200
O 	O 	0.31580 0.06580 0.50000 -0.18400
