data_crystal

_cell_length_a 26.17900
_cell_length_b 26.17900
_cell_length_c 26.17900
_cell_angle_alpha 90.00000
_cell_angle_beta  90.00000
_cell_angle_gamma 90.00000

_symmetry_space_group_name_	'P 1'
_symmetry_space_group_name_H-M	'P 1'

loop_
_symmetry_equiv_pos_as_xyz
  x,y,z

loop_
_atom_site_label
_atom_site_type_symbol
_atom_site_fract_x
_atom_site_fract_y
_atom_site_fract_z
_atom_site_charge
O 	O 	0.01420 0.41750 0.97780 -0.43100
O 	O 	0.00890 0.33430 0.97000 -0.39800
C 	C 	0.00870 0.37360 0.99880 0.58900
C 	C 	0.00310 0.36740 0.05460 -0.60100
H 	H 	0.03210 0.38240 0.07200 0.19300
H 	H 	0.97240 0.38470 0.06620 0.27800
O 	O 	0.01420 0.91750 0.47780 -0.41200
O 	O 	0.00890 0.83430 0.47000 -0.42800
C 	C 	0.00870 0.87360 0.49880 0.44100
C 	C 	0.00310 0.86740 0.55460 -0.41500
H 	H 	0.03210 0.88240 0.57200 0.15300
H 	H 	0.97240 0.88470 0.56620 0.23800
O 	O 	0.51420 0.41750 0.47780 -0.39700
O 	O 	0.50890 0.33430 0.47000 -0.41200
C 	C 	0.50870 0.37360 0.49880 0.40200
C 	C 	0.50310 0.36740 0.55460 -0.23000
H 	H 	0.53210 0.38240 0.57200 0.10500
H 	H 	0.47240 0.38470 0.56620 0.10600
O 	O 	0.51420 0.91750 0.97780 -0.35100
O 	O 	0.50890 0.83430 0.97000 -0.37200
C 	C 	0.50870 0.87360 0.99880 0.53500
C 	C 	0.50310 0.86740 0.05460 -0.40000
H 	H 	0.53210 0.88240 0.07200 0.14900
H 	H 	0.47240 0.88470 0.06620 0.15000
O 	O 	0.23580 0.33250 0.47780 -0.39700
O 	O 	0.24110 0.41570 0.47000 -0.41200
C 	C 	0.24130 0.37640 0.49880 0.40100
C 	C 	0.24690 0.38260 0.55460 -0.23000
H 	H 	0.21790 0.36760 0.57200 0.10400
H 	H 	0.27760 0.36530 0.56620 0.10600
O 	O 	0.23580 0.83250 0.97780 -0.37500
O 	O 	0.24110 0.91570 0.97000 -0.31700
C 	C 	0.24130 0.87640 0.99880 0.52700
C 	C 	0.24690 0.88260 0.05460 -0.39000
H 	H 	0.21790 0.86760 0.07200 0.14300
H 	H 	0.27760 0.86530 0.06620 0.14400
O 	O 	0.73580 0.33250 0.97780 -0.38100
O 	O 	0.74110 0.41570 0.97000 -0.37600
C 	C 	0.74130 0.37640 0.99880 0.54300
C 	C 	0.74690 0.38260 0.05460 -0.40400
H 	H 	0.71790 0.36760 0.07200 0.14700
H 	H 	0.77760 0.36530 0.06620 0.14700
O 	O 	0.73580 0.83250 0.47780 -0.38800
O 	O 	0.74110 0.91570 0.47000 -0.35000
C 	C 	0.74130 0.87640 0.49880 0.39200
C 	C 	0.74690 0.88260 0.55460 -0.21900
H 	H 	0.71790 0.86760 0.57200 0.10400
H 	H 	0.77760 0.86530 0.56620 0.10800
O 	O 	0.73580 0.91750 0.27220 -0.36200
O 	O 	0.74110 0.83430 0.28000 -0.40400
C 	C 	0.74130 0.87360 0.25120 0.40000
C 	C 	0.74690 0.86740 0.19540 -0.22900
H 	H 	0.71790 0.88240 0.17800 0.11000
H 	H 	0.77760 0.88470 0.18380 0.11400
O 	O 	0.73580 0.41750 0.77220 -0.39300
O 	O 	0.74110 0.33430 0.78000 -0.40700
C 	C 	0.74130 0.37360 0.75120 0.40400
C 	C 	0.74690 0.36740 0.69540 -0.23000
H 	H 	0.71790 0.38240 0.67800 0.10600
H 	H 	0.77760 0.38470 0.68380 0.10900
O 	O 	0.23580 0.91750 0.77220 -0.36100
O 	O 	0.24110 0.83430 0.78000 -0.40300
C 	C 	0.24130 0.87360 0.75120 0.39900
C 	C 	0.24690 0.86740 0.69540 -0.22800
H 	H 	0.21790 0.88240 0.67800 0.10900
H 	H 	0.27760 0.88470 0.68380 0.11200
O 	O 	0.23580 0.41750 0.27220 -0.39600
O 	O 	0.24110 0.33430 0.28000 -0.41100
C 	C 	0.24130 0.37360 0.25120 0.40200
C 	C 	0.24690 0.36740 0.19540 -0.22800
H 	H 	0.21790 0.38240 0.17800 0.10500
H 	H 	0.27760 0.38470 0.18380 0.10600
O 	O 	0.51420 0.83250 0.77220 -0.38700
O 	O 	0.50890 0.91570 0.78000 -0.34900
C 	C 	0.50870 0.87640 0.75120 0.39100
C 	C 	0.50310 0.88260 0.69540 -0.21800
H 	H 	0.53210 0.86760 0.67800 0.10400
H 	H 	0.47240 0.86530 0.68380 0.10700
O 	O 	0.51420 0.33250 0.27220 -0.39600
O 	O 	0.50890 0.41570 0.28000 -0.41100
C 	C 	0.50870 0.37640 0.25120 0.40300
C 	C 	0.50310 0.38260 0.19540 -0.22900
H 	H 	0.53210 0.36760 0.17800 0.10600
H 	H 	0.47240 0.36530 0.18380 0.10600
O 	O 	0.01420 0.83250 0.27220 -0.43700
O 	O 	0.00890 0.91570 0.28000 -0.37100
C 	C 	0.00870 0.87640 0.25120 0.43400
C 	C 	0.00310 0.88260 0.19540 -0.40700
H 	H 	0.03210 0.86760 0.17800 0.14900
H 	H 	0.97240 0.86530 0.18380 0.23500
O 	O 	0.01420 0.33250 0.77220 -0.44200
O 	O 	0.00890 0.41570 0.78000 -0.43000
C 	C 	0.00870 0.37640 0.75120 0.44700
C 	C 	0.00310 0.38260 0.69540 -0.41900
H 	H 	0.03210 0.36760 0.67800 0.15100
H 	H 	0.97240 0.36530 0.68380 0.23700
O 	O 	0.97780 0.01420 0.41750 -0.43000
O 	O 	0.97000 0.00890 0.33430 -0.39700
C 	C 	0.99880 0.00870 0.37360 0.59000
C 	C 	0.05460 0.00310 0.36740 -0.60000
H 	H 	0.07200 0.03210 0.38240 0.19400
H 	H 	0.06620 0.97240 0.38470 0.27900
O 	O 	0.97780 0.51420 0.91750 -0.35000
O 	O 	0.97000 0.50890 0.83430 -0.37100
C 	C 	0.99880 0.50870 0.87360 0.53600
C 	C 	0.05460 0.50310 0.86740 -0.39900
H 	H 	0.07200 0.53210 0.88240 0.15000
H 	H 	0.06620 0.47240 0.88470 0.15100
O 	O 	0.47780 0.01420 0.91750 -0.41100
O 	O 	0.47000 0.00890 0.83430 -0.42700
C 	C 	0.49880 0.00870 0.87360 0.44200
C 	C 	0.55460 0.00310 0.86740 -0.41400
H 	H 	0.57200 0.03210 0.88240 0.15400
H 	H 	0.56620 0.97240 0.88470 0.23900
O 	O 	0.47780 0.51420 0.41750 -0.39600
O 	O 	0.47000 0.50890 0.33430 -0.41100
C 	C 	0.49880 0.50870 0.37360 0.40300
C 	C 	0.55460 0.50310 0.36740 -0.22900
H 	H 	0.57200 0.53210 0.38240 0.10600
H 	H 	0.56620 0.47240 0.38470 0.10700
O 	O 	0.47780 0.23580 0.33250 -0.39600
O 	O 	0.47000 0.24110 0.41570 -0.41100
C 	C 	0.49880 0.24130 0.37640 0.40200
C 	C 	0.55460 0.24690 0.38260 -0.22900
H 	H 	0.57200 0.21790 0.36760 0.10500
H 	H 	0.56620 0.27760 0.36530 0.10700
O 	O 	0.47780 0.73580 0.83250 -0.38800
O 	O 	0.47000 0.74110 0.91570 -0.35000
C 	C 	0.49880 0.74130 0.87640 0.39200
C 	C 	0.55460 0.74690 0.88260 -0.21900
H 	H 	0.57200 0.71790 0.86760 0.10400
H 	H 	0.56620 0.77760 0.86530 0.10800
O 	O 	0.97780 0.23580 0.83250 -0.37400
O 	O 	0.97000 0.24110 0.91570 -0.31600
C 	C 	0.99880 0.24130 0.87640 0.52800
C 	C 	0.05460 0.24690 0.88260 -0.38900
H 	H 	0.07200 0.21790 0.86760 0.14400
H 	H 	0.06620 0.27760 0.86530 0.14500
O 	O 	0.97780 0.73580 0.33250 -0.38000
O 	O 	0.97000 0.74110 0.41570 -0.37600
C 	C 	0.99880 0.74130 0.37640 0.54300
C 	C 	0.05460 0.74690 0.38260 -0.40400
H 	H 	0.07200 0.71790 0.36760 0.14700
H 	H 	0.06620 0.77760 0.36530 0.14700
O 	O 	0.27220 0.73580 0.91750 -0.36200
O 	O 	0.28000 0.74110 0.83430 -0.40400
C 	C 	0.25120 0.74130 0.87360 0.40000
C 	C 	0.19540 0.74690 0.86740 -0.22900
H 	H 	0.17800 0.71790 0.88240 0.11000
H 	H 	0.18380 0.77760 0.88470 0.11400
O 	O 	0.27220 0.23580 0.41750 -0.39600
O 	O 	0.28000 0.24110 0.33430 -0.41100
C 	C 	0.25120 0.24130 0.37360 0.40200
C 	C 	0.19540 0.24690 0.36740 -0.22800
H 	H 	0.17800 0.21790 0.38240 0.10500
H 	H 	0.18380 0.27760 0.38470 0.10600
O 	O 	0.77220 0.73580 0.41750 -0.39300
O 	O 	0.78000 0.74110 0.33430 -0.40700
C 	C 	0.75120 0.74130 0.37360 0.40400
C 	C 	0.69540 0.74690 0.36740 -0.23000
H 	H 	0.67800 0.71790 0.38240 0.10600
H 	H 	0.68380 0.77760 0.38470 0.10900
O 	O 	0.77220 0.23580 0.91750 -0.36100
O 	O 	0.78000 0.24110 0.83430 -0.40300
C 	C 	0.75120 0.24130 0.87360 0.39900
C 	C 	0.69540 0.24690 0.86740 -0.22800
H 	H 	0.67800 0.21790 0.88240 0.10900
H 	H 	0.68380 0.27760 0.88470 0.11200
O 	O 	0.77220 0.51420 0.83250 -0.38700
O 	O 	0.78000 0.50890 0.91570 -0.34900
C 	C 	0.75120 0.50870 0.87640 0.39100
C 	C 	0.69540 0.50310 0.88260 -0.21800
H 	H 	0.67800 0.53210 0.86760 0.10400
H 	H 	0.68380 0.47240 0.86530 0.10700
O 	O 	0.77220 0.01420 0.33250 -0.44200
O 	O 	0.78000 0.00890 0.41570 -0.43000
C 	C 	0.75120 0.00870 0.37640 0.44700
C 	C 	0.69540 0.00310 0.38260 -0.41900
H 	H 	0.67800 0.03210 0.36760 0.15100
H 	H 	0.68380 0.97240 0.36530 0.23700
O 	O 	0.27220 0.51420 0.33250 -0.39600
O 	O 	0.28000 0.50890 0.41570 -0.41100
C 	C 	0.25120 0.50870 0.37640 0.40300
C 	C 	0.19540 0.50310 0.38260 -0.22900
H 	H 	0.17800 0.53210 0.36760 0.10600
H 	H 	0.18380 0.47240 0.36530 0.10600
O 	O 	0.27220 0.01420 0.83250 -0.43700
O 	O 	0.28000 0.00890 0.91570 -0.37100
C 	C 	0.25120 0.00870 0.87640 0.43400
C 	C 	0.19540 0.00310 0.88260 -0.40700
H 	H 	0.17800 0.03210 0.86760 0.14900
H 	H 	0.18380 0.97240 0.86530 0.23500
O 	O 	0.41750 0.97780 0.01420 -0.43000
O 	O 	0.33430 0.97000 0.00890 -0.39700
C 	C 	0.37360 0.99880 0.00870 0.59000
C 	C 	0.36740 0.05460 0.00310 -0.60000
H 	H 	0.38240 0.07200 0.03210 0.19400
H 	H 	0.38470 0.06620 0.97240 0.27900
O 	O 	0.41750 0.47780 0.51420 -0.39600
O 	O 	0.33430 0.47000 0.50890 -0.41100
C 	C 	0.37360 0.49880 0.50870 0.40300
C 	C 	0.36740 0.55460 0.50310 -0.22900
H 	H 	0.38240 0.57200 0.53210 0.10600
H 	H 	0.38470 0.56620 0.47240 0.10700
O 	O 	0.91750 0.97780 0.51420 -0.35000
O 	O 	0.83430 0.97000 0.50890 -0.37100
C 	C 	0.87360 0.99880 0.50870 0.53600
C 	C 	0.86740 0.05460 0.50310 -0.39900
H 	H 	0.88240 0.07200 0.53210 0.15000
H 	H 	0.88470 0.06620 0.47240 0.15100
O 	O 	0.91750 0.47780 0.01420 -0.41100
O 	O 	0.83430 0.47000 0.00890 -0.42700
C 	C 	0.87360 0.49880 0.00870 0.44200
C 	C 	0.86740 0.55460 0.00310 -0.41400
H 	H 	0.88240 0.57200 0.03210 0.15400
H 	H 	0.88470 0.56620 0.97240 0.23900
O 	O 	0.33250 0.47780 0.23580 -0.39600
O 	O 	0.41570 0.47000 0.24110 -0.41100
C 	C 	0.37640 0.49880 0.24130 0.40200
C 	C 	0.38260 0.55460 0.24690 -0.22900
H 	H 	0.36760 0.57200 0.21790 0.10500
H 	H 	0.36530 0.56620 0.27760 0.10700
O 	O 	0.33250 0.97780 0.73580 -0.38000
O 	O 	0.41570 0.97000 0.74110 -0.37600
C 	C 	0.37640 0.99880 0.74130 0.54300
C 	C 	0.38260 0.05460 0.74690 -0.40400
H 	H 	0.36760 0.07200 0.71790 0.14700
H 	H 	0.36530 0.06620 0.77760 0.14700
O 	O 	0.83250 0.47780 0.73580 -0.38800
O 	O 	0.91570 0.47000 0.74110 -0.35000
C 	C 	0.87640 0.49880 0.74130 0.39200
C 	C 	0.88260 0.55460 0.74690 -0.21900
H 	H 	0.86760 0.57200 0.71790 0.10400
H 	H 	0.86530 0.56620 0.77760 0.10800
O 	O 	0.83250 0.97780 0.23580 -0.37400
O 	O 	0.91570 0.97000 0.24110 -0.31600
C 	C 	0.87640 0.99880 0.24130 0.52800
C 	C 	0.88260 0.05460 0.24690 -0.38900
H 	H 	0.86760 0.07200 0.21790 0.14400
H 	H 	0.86530 0.06620 0.27760 0.14500
O 	O 	0.91750 0.27220 0.73580 -0.36200
O 	O 	0.83430 0.28000 0.74110 -0.40400
C 	C 	0.87360 0.25120 0.74130 0.40000
C 	C 	0.86740 0.19540 0.74690 -0.22900
H 	H 	0.88240 0.17800 0.71790 0.11000
H 	H 	0.88470 0.18380 0.77760 0.11400
O 	O 	0.91750 0.77220 0.23580 -0.36100
O 	O 	0.83430 0.78000 0.24110 -0.40300
C 	C 	0.87360 0.75120 0.24130 0.39900
C 	C 	0.86740 0.69540 0.24690 -0.22800
H 	H 	0.88240 0.67800 0.21790 0.10900
H 	H 	0.88470 0.68380 0.27760 0.11200
O 	O 	0.41750 0.27220 0.23580 -0.39600
O 	O 	0.33430 0.28000 0.24110 -0.41100
C 	C 	0.37360 0.25120 0.24130 0.40200
C 	C 	0.36740 0.19540 0.24690 -0.22800
H 	H 	0.38240 0.17800 0.21790 0.10500
H 	H 	0.38470 0.18380 0.27760 0.10600
O 	O 	0.41750 0.77220 0.73580 -0.39300
O 	O 	0.33430 0.78000 0.74110 -0.40700
C 	C 	0.37360 0.75120 0.74130 0.40400
C 	C 	0.36740 0.69540 0.74690 -0.23000
H 	H 	0.38240 0.67800 0.71790 0.10600
H 	H 	0.38470 0.68380 0.77760 0.10900
O 	O 	0.83250 0.77220 0.51420 -0.38700
O 	O 	0.91570 0.78000 0.50890 -0.34900
C 	C 	0.87640 0.75120 0.50870 0.39100
C 	C 	0.88260 0.69540 0.50310 -0.21800
H 	H 	0.86760 0.67800 0.53210 0.10400
H 	H 	0.86530 0.68380 0.47240 0.10700
O 	O 	0.83250 0.27220 0.01420 -0.43700
O 	O 	0.91570 0.28000 0.00890 -0.37100
C 	C 	0.87640 0.25120 0.00870 0.43400
C 	C 	0.88260 0.19540 0.00310 -0.40700
H 	H 	0.86760 0.17800 0.03210 0.14900
H 	H 	0.86530 0.18380 0.97240 0.23500
O 	O 	0.33250 0.77220 0.01420 -0.44200
O 	O 	0.41570 0.78000 0.00890 -0.43000
C 	C 	0.37640 0.75120 0.00870 0.44700
C 	C 	0.38260 0.69540 0.00310 -0.41900
H 	H 	0.36760 0.67800 0.03210 0.15100
H 	H 	0.36530 0.68380 0.97240 0.23700
O 	O 	0.33250 0.27220 0.51420 -0.39600
O 	O 	0.41570 0.28000 0.50890 -0.41100
C 	C 	0.37640 0.25120 0.50870 0.40300
C 	C 	0.38260 0.19540 0.50310 -0.22900
H 	H 	0.36760 0.17800 0.53210 0.10600
H 	H 	0.36530 0.18380 0.47240 0.10600
O 	O 	0.16750 0.26420 0.02220 -0.40000
O 	O 	0.08430 0.25890 0.03000 -0.38500
C 	C 	0.12360 0.25870 0.00120 0.26000
C 	C 	0.11740 0.25310 0.94540 -0.08900
H 	H 	0.13240 0.28210 0.92800 0.08100
H 	H 	0.13470 0.22240 0.93380 0.07900
O 	O 	0.16750 0.76420 0.52220 -0.39900
O 	O 	0.08430 0.75890 0.53000 -0.40600
C 	C 	0.12360 0.75870 0.50120 0.40800
C 	C 	0.11740 0.75310 0.44540 -0.25400
H 	H 	0.13240 0.78210 0.42800 0.11500
H 	H 	0.13470 0.72240 0.43380 0.11300
O 	O 	0.66750 0.26420 0.52220 -0.39700
O 	O 	0.58430 0.25890 0.53000 -0.41200
C 	C 	0.62360 0.25870 0.50120 0.40200
C 	C 	0.61740 0.25310 0.44540 -0.22900
H 	H 	0.63240 0.28210 0.42800 0.10600
H 	H 	0.63470 0.22240 0.43380 0.10600
O 	O 	0.66750 0.76420 0.02220 -0.39600
O 	O 	0.58430 0.75890 0.03000 -0.39100
C 	C 	0.62360 0.75870 0.00120 0.26200
C 	C 	0.61740 0.75310 0.94540 -0.07400
H 	H 	0.63240 0.78210 0.92800 0.07600
H 	H 	0.63470 0.72240 0.93380 0.07500
O 	O 	0.08250 0.48580 0.52220 -0.41700
O 	O 	0.16570 0.49110 0.53000 -0.41500
C 	C 	0.12640 0.49130 0.50120 0.40500
C 	C 	0.13260 0.49690 0.44540 -0.23000
H 	H 	0.11760 0.46790 0.42800 0.10400
H 	H 	0.11530 0.52760 0.43380 0.10500
O 	O 	0.08250 0.98580 0.02220 -0.33600
O 	O 	0.16570 0.99110 0.03000 -0.28700
C 	C 	0.12640 0.99130 0.00120 0.15000
C 	C 	0.13260 0.99690 0.94540 0.32900
H 	H 	0.11760 0.96790 0.92800 -0.02700
H 	H 	0.11530 0.02760 0.93380 -0.10800
O 	O 	0.58250 0.48580 0.02220 -0.39700
O 	O 	0.66570 0.49110 0.03000 -0.39100
C 	C 	0.62640 0.49130 0.00120 0.25900
C 	C 	0.63260 0.49690 0.94540 -0.07000
H 	H 	0.61760 0.46790 0.92800 0.07400
H 	H 	0.61530 0.52760 0.93380 0.07400
O 	O 	0.58250 0.98580 0.52220 -0.31500
O 	O 	0.66570 0.99110 0.53000 -0.30600
C 	C 	0.62640 0.99130 0.50120 0.28700
C 	C 	0.63260 0.99690 0.44540 0.18200
H 	H 	0.61760 0.96790 0.42800 0.00400
H 	H 	0.61530 0.02760 0.43380 -0.07800
O 	O 	0.66750 0.98580 0.72780 -0.31700
O 	O 	0.58430 0.99110 0.72000 -0.30700
C 	C 	0.62360 0.99130 0.74880 0.29000
C 	C 	0.61740 0.99690 0.80460 0.17100
H 	H 	0.63240 0.96790 0.82200 0.00900
H 	H 	0.63470 0.02760 0.81620 -0.07300
O 	O 	0.66750 0.48580 0.22780 -0.39800
O 	O 	0.58430 0.49110 0.22000 -0.41300
C 	C 	0.62360 0.49130 0.24880 0.40300
C 	C 	0.61740 0.49690 0.30460 -0.23000
H 	H 	0.63240 0.46790 0.32200 0.10600
H 	H 	0.63470 0.52760 0.31620 0.10600
O 	O 	0.16750 0.98580 0.22780 -0.31800
O 	O 	0.08430 0.99110 0.22000 -0.29900
C 	C 	0.12360 0.99130 0.24880 0.28900
C 	C 	0.11740 0.99690 0.30460 0.16800
H 	H 	0.13240 0.96790 0.32200 0.01000
H 	H 	0.13470 0.02760 0.31620 -0.07600
O 	O 	0.16750 0.48580 0.72780 -0.39900
O 	O 	0.08430 0.49110 0.72000 -0.40600
C 	C 	0.12360 0.49130 0.74880 0.40800
C 	C 	0.11740 0.49690 0.80460 -0.25500
H 	H 	0.13240 0.46790 0.82200 0.11600
H 	H 	0.13470 0.52760 0.81620 0.11500
O 	O 	0.58250 0.76420 0.22780 -0.39800
O 	O 	0.66570 0.75890 0.22000 -0.41300
C 	C 	0.62640 0.75870 0.24880 0.40400
C 	C 	0.63260 0.75310 0.30460 -0.23100
H 	H 	0.61760 0.78210 0.32200 0.10800
H 	H 	0.61530 0.72240 0.31620 0.10700
O 	O 	0.58250 0.26420 0.72780 -0.39700
O 	O 	0.66570 0.25890 0.72000 -0.41300
C 	C 	0.62640 0.25870 0.74880 0.40300
C 	C 	0.63260 0.25310 0.80460 -0.23200
H 	H 	0.61760 0.28210 0.82200 0.10900
H 	H 	0.61530 0.22240 0.81620 0.10800
O 	O 	0.08250 0.76420 0.72780 -0.41700
O 	O 	0.16570 0.75890 0.72000 -0.41500
C 	C 	0.12640 0.75870 0.74880 0.40700
C 	C 	0.13260 0.75310 0.80460 -0.23400
H 	H 	0.11760 0.78210 0.82200 0.10900
H 	H 	0.11530 0.72240 0.81620 0.10700
O 	O 	0.08250 0.26420 0.22780 -0.41900
O 	O 	0.16570 0.25890 0.22000 -0.41800
C 	C 	0.12640 0.25870 0.24880 0.40400
C 	C 	0.13260 0.25310 0.30460 -0.23000
H 	H 	0.11760 0.28210 0.32200 0.10400
H 	H 	0.11530 0.22240 0.31620 0.10400
O 	O 	0.76420 0.22780 0.58250 -0.39800
O 	O 	0.75890 0.22000 0.66570 -0.41300
C 	C 	0.75870 0.24880 0.62640 0.40400
C 	C 	0.75310 0.30460 0.63260 -0.23100
H 	H 	0.78210 0.32200 0.61760 0.10800
H 	H 	0.72240 0.31620 0.61530 0.10700
O 	O 	0.76420 0.72780 0.08250 -0.41700
O 	O 	0.75890 0.72000 0.16570 -0.41500
C 	C 	0.75870 0.74880 0.12640 0.40700
C 	C 	0.75310 0.80460 0.13260 -0.23400
H 	H 	0.78210 0.82200 0.11760 0.10900
H 	H 	0.72240 0.81620 0.11530 0.10700
O 	O 	0.26420 0.22780 0.08250 -0.41900
O 	O 	0.25890 0.22000 0.16570 -0.41800
C 	C 	0.25870 0.24880 0.12640 0.40400
C 	C 	0.25310 0.30460 0.13260 -0.23000
H 	H 	0.28210 0.32200 0.11760 0.10400
H 	H 	0.22240 0.31620 0.11530 0.10400
O 	O 	0.26420 0.72780 0.58250 -0.39700
O 	O 	0.25890 0.72000 0.66570 -0.41300
C 	C 	0.25870 0.74880 0.62640 0.40300
C 	C 	0.25310 0.80460 0.63260 -0.23200
H 	H 	0.28210 0.82200 0.61760 0.10900
H 	H 	0.22240 0.81620 0.61530 0.10800
O 	O 	0.98580 0.72780 0.66750 -0.31700
O 	O 	0.99110 0.72000 0.58430 -0.30700
C 	C 	0.99130 0.74880 0.62360 0.29000
C 	C 	0.99690 0.80460 0.61740 0.17100
H 	H 	0.96790 0.82200 0.63240 0.00900
H 	H 	0.02760 0.81620 0.63470 -0.07300
O 	O 	0.98580 0.22780 0.16750 -0.31800
O 	O 	0.99110 0.22000 0.08430 -0.29900
C 	C 	0.99130 0.24880 0.12360 0.28900
C 	C 	0.99690 0.30460 0.11740 0.16800
H 	H 	0.96790 0.32200 0.13240 0.01000
H 	H 	0.02760 0.31620 0.13470 -0.07600
O 	O 	0.48580 0.72780 0.16750 -0.39900
O 	O 	0.49110 0.72000 0.08430 -0.40600
C 	C 	0.49130 0.74880 0.12360 0.40800
C 	C 	0.49690 0.80460 0.11740 -0.25500
H 	H 	0.46790 0.82200 0.13240 0.11600
H 	H 	0.52760 0.81620 0.13470 0.11500
O 	O 	0.48580 0.22780 0.66750 -0.39800
O 	O 	0.49110 0.22000 0.58430 -0.41300
C 	C 	0.49130 0.24880 0.62360 0.40300
C 	C 	0.49690 0.30460 0.61740 -0.23000
H 	H 	0.46790 0.32200 0.63240 0.10600
H 	H 	0.52760 0.31620 0.63470 0.10600
O 	O 	0.48580 0.52220 0.08250 -0.41700
O 	O 	0.49110 0.53000 0.16570 -0.41500
C 	C 	0.49130 0.50120 0.12640 0.40500
C 	C 	0.49690 0.44540 0.13260 -0.23000
H 	H 	0.46790 0.42800 0.11760 0.10400
H 	H 	0.52760 0.43380 0.11530 0.10500
O 	O 	0.48580 0.02220 0.58250 -0.39700
O 	O 	0.49110 0.03000 0.66570 -0.39100
C 	C 	0.49130 0.00120 0.62640 0.25900
C 	C 	0.49690 0.94540 0.63260 -0.07000
H 	H 	0.46790 0.92800 0.61760 0.07400
H 	H 	0.52760 0.93380 0.61530 0.07400
O 	O 	0.98580 0.52220 0.58250 -0.31500
O 	O 	0.99110 0.53000 0.66570 -0.30600
C 	C 	0.99130 0.50120 0.62640 0.28700
C 	C 	0.99690 0.44540 0.63260 0.18200
H 	H 	0.96790 0.42800 0.61760 0.00400
H 	H 	0.02760 0.43380 0.61530 -0.07800
O 	O 	0.98580 0.02220 0.08250 -0.33600
O 	O 	0.99110 0.03000 0.16570 -0.28700
C 	C 	0.99130 0.00120 0.12640 0.15000
C 	C 	0.99690 0.94540 0.13260 0.32900
H 	H 	0.96790 0.92800 0.11760 -0.02700
H 	H 	0.02760 0.93380 0.11530 -0.10800
O 	O 	0.26420 0.02220 0.16750 -0.40000
O 	O 	0.25890 0.03000 0.08430 -0.38500
C 	C 	0.25870 0.00120 0.12360 0.26000
C 	C 	0.25310 0.94540 0.11740 -0.08900
H 	H 	0.28210 0.92800 0.13240 0.08100
H 	H 	0.22240 0.93380 0.13470 0.07900
O 	O 	0.26420 0.52220 0.66750 -0.39700
O 	O 	0.25890 0.53000 0.58430 -0.41200
C 	C 	0.25870 0.50120 0.62360 0.40200
C 	C 	0.25310 0.44540 0.61740 -0.22900
H 	H 	0.28210 0.42800 0.63240 0.10600
H 	H 	0.22240 0.43380 0.63470 0.10600
O 	O 	0.76420 0.02220 0.66750 -0.39600
O 	O 	0.75890 0.03000 0.58430 -0.39100
C 	C 	0.75870 0.00120 0.62360 0.26200
C 	C 	0.75310 0.94540 0.61740 -0.07400
H 	H 	0.78210 0.92800 0.63240 0.07600
H 	H 	0.72240 0.93380 0.63470 0.07500
O 	O 	0.76420 0.52220 0.16750 -0.39900
O 	O 	0.75890 0.53000 0.08430 -0.40600
C 	C 	0.75870 0.50120 0.12360 0.40800
C 	C 	0.75310 0.44540 0.11740 -0.25400
H 	H 	0.78210 0.42800 0.13240 0.11500
H 	H 	0.72240 0.43380 0.13470 0.11300
O 	O 	0.72780 0.66750 0.98580 -0.31700
O 	O 	0.72000 0.58430 0.99110 -0.30700
C 	C 	0.74880 0.62360 0.99130 0.29000
C 	C 	0.80460 0.61740 0.99690 0.17100
H 	H 	0.82200 0.63240 0.96790 0.00900
H 	H 	0.81620 0.63470 0.02760 -0.07300
O 	O 	0.72780 0.16750 0.48580 -0.39900
O 	O 	0.72000 0.08430 0.49110 -0.40600
C 	C 	0.74880 0.12360 0.49130 0.40800
C 	C 	0.80460 0.11740 0.49690 -0.25500
H 	H 	0.82200 0.13240 0.46790 0.11600
H 	H 	0.81620 0.13470 0.52760 0.11500
O 	O 	0.22780 0.66750 0.48580 -0.39800
O 	O 	0.22000 0.58430 0.49110 -0.41300
C 	C 	0.24880 0.62360 0.49130 0.40300
C 	C 	0.30460 0.61740 0.49690 -0.23000
H 	H 	0.32200 0.63240 0.46790 0.10600
H 	H 	0.31620 0.63470 0.52760 0.10600
O 	O 	0.22780 0.16750 0.98580 -0.31800
O 	O 	0.22000 0.08430 0.99110 -0.29900
C 	C 	0.24880 0.12360 0.99130 0.28900
C 	C 	0.30460 0.11740 0.99690 0.16800
H 	H 	0.32200 0.13240 0.96790 0.01000
H 	H 	0.31620 0.13470 0.02760 -0.07600
O 	O 	0.22780 0.58250 0.76420 -0.39800
O 	O 	0.22000 0.66570 0.75890 -0.41300
C 	C 	0.24880 0.62640 0.75870 0.40400
C 	C 	0.30460 0.63260 0.75310 -0.23100
H 	H 	0.32200 0.61760 0.78210 0.10800
H 	H 	0.31620 0.61530 0.72240 0.10700
O 	O 	0.22780 0.08250 0.26420 -0.41900
O 	O 	0.22000 0.16570 0.25890 -0.41800
C 	C 	0.24880 0.12640 0.25870 0.40400
C 	C 	0.30460 0.13260 0.25310 -0.23000
H 	H 	0.32200 0.11760 0.28210 0.10400
H 	H 	0.31620 0.11530 0.22240 0.10400
O 	O 	0.72780 0.58250 0.26420 -0.39700
O 	O 	0.72000 0.66570 0.25890 -0.41300
C 	C 	0.74880 0.62640 0.25870 0.40300
C 	C 	0.80460 0.63260 0.25310 -0.23200
H 	H 	0.82200 0.61760 0.28210 0.10900
H 	H 	0.81620 0.61530 0.22240 0.10800
O 	O 	0.72780 0.08250 0.76420 -0.41700
O 	O 	0.72000 0.16570 0.75890 -0.41500
C 	C 	0.74880 0.12640 0.75870 0.40700
C 	C 	0.80460 0.13260 0.75310 -0.23400
H 	H 	0.82200 0.11760 0.78210 0.10900
H 	H 	0.81620 0.11530 0.72240 0.10700
O 	O 	0.02220 0.16750 0.26420 -0.40000
O 	O 	0.03000 0.08430 0.25890 -0.38500
C 	C 	0.00120 0.12360 0.25870 0.26000
C 	C 	0.94540 0.11740 0.25310 -0.08900
H 	H 	0.92800 0.13240 0.28210 0.08100
H 	H 	0.93380 0.13470 0.22240 0.07900
O 	O 	0.02220 0.66750 0.76420 -0.39600
O 	O 	0.03000 0.58430 0.75890 -0.39100
C 	C 	0.00120 0.62360 0.75870 0.26200
C 	C 	0.94540 0.61740 0.75310 -0.07400
H 	H 	0.92800 0.63240 0.78210 0.07600
H 	H 	0.93380 0.63470 0.72240 0.07500
O 	O 	0.52220 0.16750 0.76420 -0.39900
O 	O 	0.53000 0.08430 0.75890 -0.40600
C 	C 	0.50120 0.12360 0.75870 0.40800
C 	C 	0.44540 0.11740 0.75310 -0.25400
H 	H 	0.42800 0.13240 0.78210 0.11500
H 	H 	0.43380 0.13470 0.72240 0.11300
O 	O 	0.52220 0.66750 0.26420 -0.39700
O 	O 	0.53000 0.58430 0.25890 -0.41200
C 	C 	0.50120 0.62360 0.25870 0.40200
C 	C 	0.44540 0.61740 0.25310 -0.22900
H 	H 	0.42800 0.63240 0.28210 0.10600
H 	H 	0.43380 0.63470 0.22240 0.10600
O 	O 	0.52220 0.08250 0.48580 -0.41700
O 	O 	0.53000 0.16570 0.49110 -0.41500
C 	C 	0.50120 0.12640 0.49130 0.40500
C 	C 	0.44540 0.13260 0.49690 -0.23000
H 	H 	0.42800 0.11760 0.46790 0.10400
H 	H 	0.43380 0.11530 0.52760 0.10500
O 	O 	0.52220 0.58250 0.98580 -0.31500
O 	O 	0.53000 0.66570 0.99110 -0.30600
C 	C 	0.50120 0.62640 0.99130 0.28700
C 	C 	0.44540 0.63260 0.99690 0.18200
H 	H 	0.42800 0.61760 0.96790 0.00400
H 	H 	0.43380 0.61530 0.02760 -0.07800
O 	O 	0.02220 0.08250 0.98580 -0.33600
O 	O 	0.03000 0.16570 0.99110 -0.28700
C 	C 	0.00120 0.12640 0.99130 0.15000
C 	C 	0.94540 0.13260 0.99690 0.32900
H 	H 	0.92800 0.11760 0.96790 -0.02700
H 	H 	0.93380 0.11530 0.02760 -0.10800
O 	O 	0.02220 0.58250 0.48580 -0.39700
O 	O 	0.03000 0.66570 0.49110 -0.39100
C 	C 	0.00120 0.62640 0.49130 0.25900
C 	C 	0.94540 0.63260 0.49690 -0.07000
H 	H 	0.92800 0.61760 0.46790 0.07400
H 	H 	0.93380 0.61530 0.52760 0.07400
O 	O 	0.98580 0.58250 0.02220 -0.31700
O 	O 	0.99110 0.66570 0.03000 -0.28600
C 	C 	0.99130 0.62640 0.00120 0.15200
C 	C 	0.99690 0.63260 0.94540 0.32100
H 	H 	0.96790 0.61760 0.92800 -0.02300
H 	H 	0.02760 0.61530 0.93380 -0.10300
O 	O 	0.98580 0.08250 0.52220 -0.33500
O 	O 	0.99110 0.16570 0.53000 -0.30800
C 	C 	0.99130 0.12640 0.50120 0.28700
C 	C 	0.99690 0.13260 0.44540 0.18800
H 	H 	0.96790 0.11760 0.42800 0.00100
H 	H 	0.02760 0.11530 0.43380 -0.08300
O 	O 	0.48580 0.58250 0.52220 -0.39600
O 	O 	0.49110 0.66570 0.53000 -0.41200
C 	C 	0.49130 0.62640 0.50120 0.40300
C 	C 	0.49690 0.63260 0.44540 -0.22900
H 	H 	0.46790 0.61760 0.42800 0.10600
H 	H 	0.52760 0.61530 0.43380 0.10700
O 	O 	0.48580 0.08250 0.02220 -0.41700
O 	O 	0.49110 0.16570 0.03000 -0.39400
C 	C 	0.49130 0.12640 0.00120 0.26000
C 	C 	0.49690 0.13260 0.94540 -0.06900
H 	H 	0.46790 0.11760 0.92800 0.07100
H 	H 	0.52760 0.11530 0.93380 0.07200
O 	O 	0.76420 0.66750 0.52220 -0.39600
O 	O 	0.75890 0.58430 0.53000 -0.41100
C 	C 	0.75870 0.62360 0.50120 0.40400
C 	C 	0.75310 0.61740 0.44540 -0.23100
H 	H 	0.78210 0.63240 0.42800 0.10800
H 	H 	0.72240 0.63470 0.43380 0.10700
O 	O 	0.76420 0.16750 0.02220 -0.39900
O 	O 	0.75890 0.08430 0.03000 -0.38500
C 	C 	0.75870 0.12360 0.00120 0.26400
C 	C 	0.75310 0.11740 0.94540 -0.09400
H 	H 	0.78210 0.13240 0.92800 0.08300
H 	H 	0.72240 0.13470 0.93380 0.08100
O 	O 	0.26420 0.66750 0.02220 -0.39700
O 	O 	0.25890 0.58430 0.03000 -0.39100
C 	C 	0.25870 0.62360 0.00120 0.25800
C 	C 	0.25310 0.61740 0.94540 -0.06800
H 	H 	0.28210 0.63240 0.92800 0.07400
H 	H 	0.22240 0.63470 0.93380 0.07300
O 	O 	0.26420 0.16750 0.52220 -0.40000
O 	O 	0.25890 0.08430 0.53000 -0.40600
C 	C 	0.25870 0.12360 0.50120 0.40600
C 	C 	0.25310 0.11740 0.44540 -0.25200
H 	H 	0.28210 0.13240 0.42800 0.11300
H 	H 	0.22240 0.13470 0.43380 0.11200
O 	O 	0.26420 0.08250 0.72780 -0.41800
O 	O 	0.25890 0.16570 0.72000 -0.41700
C 	C 	0.25870 0.12640 0.74880 0.40500
C 	C 	0.25310 0.13260 0.80460 -0.23300
H 	H 	0.28210 0.11760 0.82200 0.10700
H 	H 	0.22240 0.11530 0.81620 0.10600
O 	O 	0.26420 0.58250 0.22780 -0.39800
O 	O 	0.25890 0.66570 0.22000 -0.41400
C 	C 	0.25870 0.62640 0.24880 0.40200
C 	C 	0.25310 0.63260 0.30460 -0.22900
H 	H 	0.28210 0.61760 0.32200 0.10600
H 	H 	0.22240 0.61530 0.31620 0.10600
O 	O 	0.76420 0.08250 0.22780 -0.41800
O 	O 	0.75890 0.16570 0.22000 -0.41700
C 	C 	0.75870 0.12640 0.24880 0.40600
C 	C 	0.75310 0.13260 0.30460 -0.23200
H 	H 	0.78210 0.11760 0.32200 0.10600
H 	H 	0.72240 0.11530 0.31620 0.10500
O 	O 	0.76420 0.58250 0.72780 -0.39600
O 	O 	0.75890 0.66570 0.72000 -0.41200
C 	C 	0.75870 0.62640 0.74880 0.40500
C 	C 	0.75310 0.63260 0.80460 -0.23300
H 	H 	0.78210 0.61760 0.82200 0.11100
H 	H 	0.72240 0.61530 0.81620 0.10900
O 	O 	0.48580 0.16750 0.22780 -0.40000
O 	O 	0.49110 0.08430 0.22000 -0.40700
C 	C 	0.49130 0.12360 0.24880 0.40700
C 	C 	0.49690 0.11740 0.30460 -0.25300
H 	H 	0.46790 0.13240 0.32200 0.11400
H 	H 	0.52760 0.13470 0.31620 0.11300
O 	O 	0.48580 0.66750 0.72780 -0.39700
O 	O 	0.49110 0.58430 0.72000 -0.41200
C 	C 	0.49130 0.62360 0.74880 0.40400
C 	C 	0.49690 0.61740 0.80460 -0.23200
H 	H 	0.46790 0.63240 0.82200 0.10900
H 	H 	0.52760 0.63470 0.81620 0.10800
O 	O 	0.98580 0.16750 0.72780 -0.31800
O 	O 	0.99110 0.08430 0.72000 -0.30000
C 	C 	0.99130 0.12360 0.74880 0.29200
C 	C 	0.99690 0.11740 0.80460 0.15500
H 	H 	0.96790 0.13240 0.82200 0.01500
H 	H 	0.02760 0.13470 0.81620 -0.06900
O 	O 	0.98580 0.66750 0.22780 -0.31600
O 	O 	0.99110 0.58430 0.22000 -0.30600
C 	C 	0.99130 0.62360 0.24880 0.28600
C 	C 	0.99690 0.61740 0.30460 0.18500
H 	H 	0.96790 0.63240 0.32200 0.00400
H 	H 	0.02760 0.63470 0.31620 -0.07900
O 	O 	0.02220 0.98580 0.58250 -0.31700
O 	O 	0.03000 0.99110 0.66570 -0.28600
C 	C 	0.00120 0.99130 0.62640 0.15200
C 	C 	0.94540 0.99690 0.63260 0.32100
H 	H 	0.92800 0.96790 0.61760 -0.02300
H 	H 	0.93380 0.02760 0.61530 -0.10300
O 	O 	0.02220 0.48580 0.08250 -0.41700
O 	O 	0.03000 0.49110 0.16570 -0.39400
C 	C 	0.00120 0.49130 0.12640 0.26000
C 	C 	0.94540 0.49690 0.13260 -0.06900
H 	H 	0.92800 0.46790 0.11760 0.07100
H 	H 	0.93380 0.52760 0.11530 0.07200
O 	O 	0.52220 0.98580 0.08250 -0.33500
O 	O 	0.53000 0.99110 0.16570 -0.30800
C 	C 	0.50120 0.99130 0.12640 0.28700
C 	C 	0.44540 0.99690 0.13260 0.18800
H 	H 	0.42800 0.96790 0.11760 0.00100
H 	H 	0.43380 0.02760 0.11530 -0.08300
O 	O 	0.52220 0.48580 0.58250 -0.39600
O 	O 	0.53000 0.49110 0.66570 -0.41200
C 	C 	0.50120 0.49130 0.62640 0.40300
C 	C 	0.44540 0.49690 0.63260 -0.22900
H 	H 	0.42800 0.46790 0.61760 0.10600
H 	H 	0.43380 0.52760 0.61530 0.10700
O 	O 	0.52220 0.76420 0.66750 -0.39600
O 	O 	0.53000 0.75890 0.58430 -0.41100
C 	C 	0.50120 0.75870 0.62360 0.40400
C 	C 	0.44540 0.75310 0.61740 -0.23100
H 	H 	0.42800 0.78210 0.63240 0.10800
H 	H 	0.43380 0.72240 0.63470 0.10700
O 	O 	0.52220 0.26420 0.16750 -0.40000
O 	O 	0.53000 0.25890 0.08430 -0.40600
C 	C 	0.50120 0.25870 0.12360 0.40600
C 	C 	0.44540 0.25310 0.11740 -0.25200
H 	H 	0.42800 0.28210 0.13240 0.11300
H 	H 	0.43380 0.22240 0.13470 0.11200
O 	O 	0.02220 0.76420 0.16750 -0.39900
O 	O 	0.03000 0.75890 0.08430 -0.38500
C 	C 	0.00120 0.75870 0.12360 0.26400
C 	C 	0.94540 0.75310 0.11740 -0.09400
H 	H 	0.92800 0.78210 0.13240 0.08300
H 	H 	0.93380 0.72240 0.13470 0.08100
O 	O 	0.02220 0.26420 0.66750 -0.39700
O 	O 	0.03000 0.25890 0.58430 -0.39100
C 	C 	0.00120 0.25870 0.62360 0.25800
C 	C 	0.94540 0.25310 0.61740 -0.06800
H 	H 	0.92800 0.28210 0.63240 0.07400
H 	H 	0.93380 0.22240 0.63470 0.07300
O 	O 	0.72780 0.26420 0.08250 -0.41800
O 	O 	0.72000 0.25890 0.16570 -0.41700
C 	C 	0.74880 0.25870 0.12640 0.40500
C 	C 	0.80460 0.25310 0.13260 -0.23300
H 	H 	0.82200 0.28210 0.11760 0.10700
H 	H 	0.81620 0.22240 0.11530 0.10600
O 	O 	0.72780 0.76420 0.58250 -0.39600
O 	O 	0.72000 0.75890 0.66570 -0.41200
C 	C 	0.74880 0.75870 0.62640 0.40500
C 	C 	0.80460 0.75310 0.63260 -0.23300
H 	H 	0.82200 0.78210 0.61760 0.11100
H 	H 	0.81620 0.72240 0.61530 0.10900
O 	O 	0.22780 0.26420 0.58250 -0.39800
O 	O 	0.22000 0.25890 0.66570 -0.41400
C 	C 	0.24880 0.25870 0.62640 0.40200
C 	C 	0.30460 0.25310 0.63260 -0.22900
H 	H 	0.32200 0.28210 0.61760 0.10600
H 	H 	0.31620 0.22240 0.61530 0.10600
O 	O 	0.22780 0.76420 0.08250 -0.41800
O 	O 	0.22000 0.75890 0.16570 -0.41700
C 	C 	0.24880 0.75870 0.12640 0.40600
C 	C 	0.30460 0.75310 0.13260 -0.23200
H 	H 	0.32200 0.78210 0.11760 0.10600
H 	H 	0.31620 0.72240 0.11530 0.10500
O 	O 	0.22780 0.48580 0.16750 -0.40000
O 	O 	0.22000 0.49110 0.08430 -0.40700
C 	C 	0.24880 0.49130 0.12360 0.40700
C 	C 	0.30460 0.49690 0.11740 -0.25300
H 	H 	0.32200 0.46790 0.13240 0.11400
H 	H 	0.31620 0.52760 0.13470 0.11300
O 	O 	0.22780 0.98580 0.66750 -0.31600
O 	O 	0.22000 0.99110 0.58430 -0.30600
C 	C 	0.24880 0.99130 0.62360 0.28600
C 	C 	0.30460 0.99690 0.61740 0.18500
H 	H 	0.32200 0.96790 0.63240 0.00400
H 	H 	0.31620 0.02760 0.63470 -0.07900
O 	O 	0.72780 0.48580 0.66750 -0.39700
O 	O 	0.72000 0.49110 0.58430 -0.41200
C 	C 	0.74880 0.49130 0.62360 0.40400
C 	C 	0.80460 0.49690 0.61740 -0.23200
H 	H 	0.82200 0.46790 0.63240 0.10900
H 	H 	0.81620 0.52760 0.63470 0.10800
O 	O 	0.72780 0.98580 0.16750 -0.31800
O 	O 	0.72000 0.99110 0.08430 -0.30000
C 	C 	0.74880 0.99130 0.12360 0.29200
C 	C 	0.80460 0.99690 0.11740 0.15500
H 	H 	0.82200 0.96790 0.13240 0.01500
H 	H 	0.81620 0.02760 0.13470 -0.06900
O 	O 	0.58250 0.02220 0.98580 -0.31700
O 	O 	0.66570 0.03000 0.99110 -0.28600
C 	C 	0.62640 0.00120 0.99130 0.15200
C 	C 	0.63260 0.94540 0.99690 0.32100
H 	H 	0.61760 0.92800 0.96790 -0.02300
H 	H 	0.61530 0.93380 0.02760 -0.10300
O 	O 	0.58250 0.52220 0.48580 -0.39600
O 	O 	0.66570 0.53000 0.49110 -0.41200
C 	C 	0.62640 0.50120 0.49130 0.40300
C 	C 	0.63260 0.44540 0.49690 -0.22900
H 	H 	0.61760 0.42800 0.46790 0.10600
H 	H 	0.61530 0.43380 0.52760 0.10700
O 	O 	0.08250 0.02220 0.48580 -0.41700
O 	O 	0.16570 0.03000 0.49110 -0.39400
C 	C 	0.12640 0.00120 0.49130 0.26000
C 	C 	0.13260 0.94540 0.49690 -0.06900
H 	H 	0.11760 0.92800 0.46790 0.07100
H 	H 	0.11530 0.93380 0.52760 0.07200
O 	O 	0.08250 0.52220 0.98580 -0.33500
O 	O 	0.16570 0.53000 0.99110 -0.30800
C 	C 	0.12640 0.50120 0.99130 0.28700
C 	C 	0.13260 0.44540 0.99690 0.18800
H 	H 	0.11760 0.42800 0.96790 0.00100
H 	H 	0.11530 0.43380 0.02760 -0.08300
O 	O 	0.66750 0.52220 0.76420 -0.39600
O 	O 	0.58430 0.53000 0.75890 -0.41100
C 	C 	0.62360 0.50120 0.75870 0.40400
C 	C 	0.61740 0.44540 0.75310 -0.23100
H 	H 	0.63240 0.42800 0.78210 0.10800
H 	H 	0.63470 0.43380 0.72240 0.10700
O 	O 	0.66750 0.02220 0.26420 -0.39700
O 	O 	0.58430 0.03000 0.25890 -0.39100
C 	C 	0.62360 0.00120 0.25870 0.25800
C 	C 	0.61740 0.94540 0.25310 -0.06800
H 	H 	0.63240 0.92800 0.28210 0.07400
H 	H 	0.63470 0.93380 0.22240 0.07300
O 	O 	0.16750 0.52220 0.26420 -0.40000
O 	O 	0.08430 0.53000 0.25890 -0.40600
C 	C 	0.12360 0.50120 0.25870 0.40600
C 	C 	0.11740 0.44540 0.25310 -0.25200
H 	H 	0.13240 0.42800 0.28210 0.11300
H 	H 	0.13470 0.43380 0.22240 0.11200
O 	O 	0.16750 0.02220 0.76420 -0.39900
O 	O 	0.08430 0.03000 0.75890 -0.38500
C 	C 	0.12360 0.00120 0.75870 0.26400
C 	C 	0.11740 0.94540 0.75310 -0.09400
H 	H 	0.13240 0.92800 0.78210 0.08300
H 	H 	0.13470 0.93380 0.72240 0.08100
O 	O 	0.08250 0.72780 0.26420 -0.41800
O 	O 	0.16570 0.72000 0.25890 -0.41700
C 	C 	0.12640 0.74880 0.25870 0.40500
C 	C 	0.13260 0.80460 0.25310 -0.23300
H 	H 	0.11760 0.82200 0.28210 0.10700
H 	H 	0.11530 0.81620 0.22240 0.10600
O 	O 	0.08250 0.22780 0.76420 -0.41800
O 	O 	0.16570 0.22000 0.75890 -0.41700
C 	C 	0.12640 0.24880 0.75870 0.40600
C 	C 	0.13260 0.30460 0.75310 -0.23200
H 	H 	0.11760 0.32200 0.78210 0.10600
H 	H 	0.11530 0.31620 0.72240 0.10500
O 	O 	0.58250 0.72780 0.76420 -0.39600
O 	O 	0.66570 0.72000 0.75890 -0.41200
C 	C 	0.62640 0.74880 0.75870 0.40500
C 	C 	0.63260 0.80460 0.75310 -0.23300
H 	H 	0.61760 0.82200 0.78210 0.11100
H 	H 	0.61530 0.81620 0.72240 0.10900
O 	O 	0.58250 0.22780 0.26420 -0.39800
O 	O 	0.66570 0.22000 0.25890 -0.41400
C 	C 	0.62640 0.24880 0.25870 0.40200
C 	C 	0.63260 0.30460 0.25310 -0.22900
H 	H 	0.61760 0.32200 0.28210 0.10600
H 	H 	0.61530 0.31620 0.22240 0.10600
O 	O 	0.16750 0.22780 0.48580 -0.40000
O 	O 	0.08430 0.22000 0.49110 -0.40700
C 	C 	0.12360 0.24880 0.49130 0.40700
C 	C 	0.11740 0.30460 0.49690 -0.25300
H 	H 	0.13240 0.32200 0.46790 0.11400
H 	H 	0.13470 0.31620 0.52760 0.11300
O 	O 	0.16750 0.72780 0.98580 -0.31800
O 	O 	0.08430 0.72000 0.99110 -0.30000
C 	C 	0.12360 0.74880 0.99130 0.29200
C 	C 	0.11740 0.80460 0.99690 0.15500
H 	H 	0.13240 0.82200 0.96790 0.01500
H 	H 	0.13470 0.81620 0.02760 -0.06900
O 	O 	0.66750 0.22780 0.98580 -0.31600
O 	O 	0.58430 0.22000 0.99110 -0.30600
C 	C 	0.62360 0.24880 0.99130 0.28600
C 	C 	0.61740 0.30460 0.99690 0.18500
H 	H 	0.63240 0.32200 0.96790 0.00400
H 	H 	0.63470 0.31620 0.02760 -0.07900
O 	O 	0.66750 0.72780 0.48580 -0.39700
O 	O 	0.58430 0.72000 0.49110 -0.41200
C 	C 	0.62360 0.74880 0.49130 0.40400
C 	C 	0.61740 0.80460 0.49690 -0.23200
H 	H 	0.63240 0.82200 0.46790 0.10900
H 	H 	0.63470 0.81620 0.52760 0.10800
O 	O 	0.83250 0.73580 0.97780 -0.37400
O 	O 	0.91570 0.74110 0.97000 -0.31700
C 	C 	0.87640 0.74130 0.99880 0.52600
C 	C 	0.88260 0.74690 0.05460 -0.38700
H 	H 	0.86760 0.71790 0.07200 0.14400
H 	H 	0.86530 0.77760 0.06620 0.14600
O 	O 	0.83250 0.23580 0.47780 -0.38900
O 	O 	0.91570 0.24110 0.47000 -0.35000
C 	C 	0.87640 0.24130 0.49880 0.39000
C 	C 	0.88260 0.24690 0.55460 -0.21700
H 	H 	0.86760 0.21790 0.57200 0.10300
H 	H 	0.86530 0.27760 0.56620 0.10600
O 	O 	0.33250 0.73580 0.47780 -0.39500
O 	O 	0.41570 0.74110 0.47000 -0.41000
C 	C 	0.37640 0.74130 0.49880 0.40400
C 	C 	0.38260 0.74690 0.55460 -0.23100
H 	H 	0.36760 0.71790 0.57200 0.10600
H 	H 	0.36530 0.77760 0.56620 0.10900
O 	O 	0.33250 0.23580 0.97780 -0.38100
O 	O 	0.41570 0.24110 0.97000 -0.37600
C 	C 	0.37640 0.24130 0.99880 0.54500
C 	C 	0.38260 0.24690 0.05460 -0.40600
H 	H 	0.36760 0.21790 0.07200 0.14700
H 	H 	0.36530 0.27760 0.06620 0.14600
O 	O 	0.91750 0.51420 0.47780 -0.36300
O 	O 	0.83430 0.50890 0.47000 -0.40600
C 	C 	0.87360 0.50870 0.49880 0.39900
C 	C 	0.86740 0.50310 0.55460 -0.22900
H 	H 	0.88240 0.53210 0.57200 0.11000
H 	H 	0.88470 0.47240 0.56620 0.11200
O 	O 	0.91750 0.01420 0.97780 -0.39700
O 	O 	0.83430 0.00890 0.97000 -0.39200
C 	C 	0.87360 0.00870 0.99880 0.58100
C 	C 	0.86740 0.00310 0.05460 -0.58800
H 	H 	0.88240 0.03210 0.07200 0.19500
H 	H 	0.88470 0.97240 0.06620 0.27900
O 	O 	0.41750 0.51420 0.97780 -0.38100
O 	O 	0.33430 0.50890 0.97000 -0.37600
C 	C 	0.37360 0.50870 0.99880 0.54400
C 	C 	0.36740 0.50310 0.05460 -0.40500
H 	H 	0.38240 0.53210 0.07200 0.14800
H 	H 	0.38470 0.47240 0.06620 0.14600
O 	O 	0.41750 0.01420 0.47780 -0.44500
O 	O 	0.33430 0.00890 0.47000 -0.43300
C 	C 	0.37360 0.00870 0.49880 0.44700
C 	C 	0.36740 0.00310 0.55460 -0.42100
H 	H 	0.38240 0.03210 0.57200 0.15200
H 	H 	0.38470 0.97240 0.56620 0.23700
O 	O 	0.33250 0.01420 0.27220 -0.44500
O 	O 	0.41570 0.00890 0.28000 -0.43300
C 	C 	0.37640 0.00870 0.25120 0.44800
C 	C 	0.38260 0.00310 0.19540 -0.42300
H 	H 	0.36760 0.03210 0.17800 0.15200
H 	H 	0.36530 0.97240 0.18380 0.23900
O 	O 	0.33250 0.51420 0.77220 -0.39400
O 	O 	0.41570 0.50890 0.78000 -0.40900
C 	C 	0.37640 0.50870 0.75120 0.40300
C 	C 	0.38260 0.50310 0.69540 -0.22900
H 	H 	0.36760 0.53210 0.67800 0.10600
H 	H 	0.36530 0.47240 0.68380 0.10700
O 	O 	0.83250 0.01420 0.77220 -0.43400
O 	O 	0.91570 0.00890 0.78000 -0.37000
C 	C 	0.87640 0.00870 0.75120 0.43400
C 	C 	0.88260 0.00310 0.69540 -0.40400
H 	H 	0.86760 0.03210 0.67800 0.14800
H 	H 	0.86530 0.97240 0.68380 0.23300
O 	O 	0.83250 0.51420 0.27220 -0.38900
O 	O 	0.91570 0.50890 0.28000 -0.35000
C 	C 	0.87640 0.50870 0.25120 0.39000
C 	C 	0.88260 0.50310 0.19540 -0.21700
H 	H 	0.86760 0.53210 0.17800 0.10400
H 	H 	0.86530 0.47240 0.18380 0.10600
O 	O 	0.41750 0.23580 0.77220 -0.39400
O 	O 	0.33430 0.24110 0.78000 -0.40900
C 	C 	0.37360 0.24130 0.75120 0.40200
C 	C 	0.36740 0.24690 0.69540 -0.22800
H 	H 	0.38240 0.21790 0.67800 0.10500
H 	H 	0.38470 0.27760 0.68380 0.10700
O 	O 	0.41750 0.73580 0.27220 -0.39500
O 	O 	0.33430 0.74110 0.28000 -0.41000
C 	C 	0.37360 0.74130 0.25120 0.40400
C 	C 	0.36740 0.74690 0.19540 -0.23000
H 	H 	0.38240 0.71790 0.17800 0.10600
H 	H 	0.38470 0.77760 0.18380 0.10800
O 	O 	0.91750 0.23580 0.27220 -0.36300
O 	O 	0.83430 0.24110 0.28000 -0.40600
C 	C 	0.87360 0.24130 0.25120 0.39800
C 	C 	0.86740 0.24690 0.19540 -0.22700
H 	H 	0.88240 0.21790 0.17800 0.10900
H 	H 	0.88470 0.27760 0.18380 0.11200
O 	O 	0.91750 0.73580 0.77220 -0.36100
O 	O 	0.83430 0.74110 0.78000 -0.40200
C 	C 	0.87360 0.74130 0.75120 0.40000
C 	C 	0.86740 0.74690 0.69540 -0.23000
H 	H 	0.88240 0.71790 0.67800 0.11000
H 	H 	0.88470 0.77760 0.68380 0.11400
O 	O 	0.23580 0.77220 0.41750 -0.39400
O 	O 	0.24110 0.78000 0.33430 -0.40900
C 	C 	0.24130 0.75120 0.37360 0.40200
C 	C 	0.24690 0.69540 0.36740 -0.22800
H 	H 	0.21790 0.67800 0.38240 0.10500
H 	H 	0.27760 0.68380 0.38470 0.10700
O 	O 	0.23580 0.27220 0.91750 -0.36300
O 	O 	0.24110 0.28000 0.83430 -0.40600
C 	C 	0.24130 0.25120 0.87360 0.39800
C 	C 	0.24690 0.19540 0.86740 -0.22700
H 	H 	0.21790 0.17800 0.88240 0.10900
H 	H 	0.27760 0.18380 0.88470 0.11200
O 	O 	0.73580 0.77220 0.91750 -0.36100
O 	O 	0.74110 0.78000 0.83430 -0.40200
C 	C 	0.74130 0.75120 0.87360 0.40000
C 	C 	0.74690 0.69540 0.86740 -0.23000
H 	H 	0.71790 0.67800 0.88240 0.11000
H 	H 	0.77760 0.68380 0.88470 0.11400
O 	O 	0.73580 0.27220 0.41750 -0.39500
O 	O 	0.74110 0.28000 0.33430 -0.41000
C 	C 	0.74130 0.25120 0.37360 0.40400
C 	C 	0.74690 0.19540 0.36740 -0.23000
H 	H 	0.71790 0.17800 0.38240 0.10600
H 	H 	0.77760 0.18380 0.38470 0.10800
O 	O 	0.01420 0.27220 0.33250 -0.44500
O 	O 	0.00890 0.28000 0.41570 -0.43300
C 	C 	0.00870 0.25120 0.37640 0.44800
C 	C 	0.00310 0.19540 0.38260 -0.42300
H 	H 	0.03210 0.17800 0.36760 0.15200
H 	H 	0.97240 0.18380 0.36530 0.23900
O 	O 	0.01420 0.77220 0.83250 -0.43400
O 	O 	0.00890 0.78000 0.91570 -0.37000
C 	C 	0.00870 0.75120 0.87640 0.43400
C 	C 	0.00310 0.69540 0.88260 -0.40400
H 	H 	0.03210 0.67800 0.86760 0.14800
H 	H 	0.97240 0.68380 0.86530 0.23300
O 	O 	0.51420 0.27220 0.83250 -0.38900
O 	O 	0.50890 0.28000 0.91570 -0.35000
C 	C 	0.50870 0.25120 0.87640 0.39000
C 	C 	0.50310 0.19540 0.88260 -0.21700
H 	H 	0.53210 0.17800 0.86760 0.10400
H 	H 	0.47240 0.18380 0.86530 0.10600
O 	O 	0.51420 0.77220 0.33250 -0.39400
O 	O 	0.50890 0.78000 0.41570 -0.40900
C 	C 	0.50870 0.75120 0.37640 0.40300
C 	C 	0.50310 0.69540 0.38260 -0.22900
H 	H 	0.53210 0.67800 0.36760 0.10600
H 	H 	0.47240 0.68380 0.36530 0.10700
O 	O 	0.51420 0.47780 0.91750 -0.36300
O 	O 	0.50890 0.47000 0.83430 -0.40600
C 	C 	0.50870 0.49880 0.87360 0.39900
C 	C 	0.50310 0.55460 0.86740 -0.22900
H 	H 	0.53210 0.57200 0.88240 0.11000
H 	H 	0.47240 0.56620 0.88470 0.11200
O 	O 	0.51420 0.97780 0.41750 -0.38100
O 	O 	0.50890 0.97000 0.33430 -0.37600
C 	C 	0.50870 0.99880 0.37360 0.54400
C 	C 	0.50310 0.05460 0.36740 -0.40500
H 	H 	0.53210 0.07200 0.38240 0.14800
H 	H 	0.47240 0.06620 0.38470 0.14600
O 	O 	0.01420 0.47780 0.41750 -0.44500
O 	O 	0.00890 0.47000 0.33430 -0.43300
C 	C 	0.00870 0.49880 0.37360 0.44700
C 	C 	0.00310 0.55460 0.36740 -0.42100
H 	H 	0.03210 0.57200 0.38240 0.15200
H 	H 	0.97240 0.56620 0.38470 0.23700
O 	O 	0.01420 0.97780 0.91750 -0.39700
O 	O 	0.00890 0.97000 0.83430 -0.39200
C 	C 	0.00870 0.99880 0.87360 0.58100
C 	C 	0.00310 0.05460 0.86740 -0.58800
H 	H 	0.03210 0.07200 0.88240 0.19500
H 	H 	0.97240 0.06620 0.88470 0.27900
O 	O 	0.73580 0.97780 0.83250 -0.37400
O 	O 	0.74110 0.97000 0.91570 -0.31700
C 	C 	0.74130 0.99880 0.87640 0.52600
C 	C 	0.74690 0.05460 0.88260 -0.38700
H 	H 	0.71790 0.07200 0.86760 0.14400
H 	H 	0.77760 0.06620 0.86530 0.14600
O 	O 	0.73580 0.47780 0.33250 -0.39500
O 	O 	0.74110 0.47000 0.41570 -0.41000
C 	C 	0.74130 0.49880 0.37640 0.40400
C 	C 	0.74690 0.55460 0.38260 -0.23100
H 	H 	0.71790 0.57200 0.36760 0.10600
H 	H 	0.77760 0.56620 0.36530 0.10900
O 	O 	0.23580 0.97780 0.33250 -0.38100
O 	O 	0.24110 0.97000 0.41570 -0.37600
C 	C 	0.24130 0.99880 0.37640 0.54500
C 	C 	0.24690 0.05460 0.38260 -0.40600
H 	H 	0.21790 0.07200 0.36760 0.14700
H 	H 	0.27760 0.06620 0.36530 0.14600
O 	O 	0.23580 0.47780 0.83250 -0.38900
O 	O 	0.24110 0.47000 0.91570 -0.35000
C 	C 	0.24130 0.49880 0.87640 0.39000
C 	C 	0.24690 0.55460 0.88260 -0.21700
H 	H 	0.21790 0.57200 0.86760 0.10300
H 	H 	0.27760 0.56620 0.86530 0.10600
O 	O 	0.27220 0.33250 0.01420 -0.44500
O 	O 	0.28000 0.41570 0.00890 -0.43300
C 	C 	0.25120 0.37640 0.00870 0.44800
C 	C 	0.19540 0.38260 0.00310 -0.42300
H 	H 	0.17800 0.36760 0.03210 0.15200
H 	H 	0.18380 0.36530 0.97240 0.23900
O 	O 	0.27220 0.83250 0.51420 -0.38900
O 	O 	0.28000 0.91570 0.50890 -0.35000
C 	C 	0.25120 0.87640 0.50870 0.39000
C 	C 	0.19540 0.88260 0.50310 -0.21700
H 	H 	0.17800 0.86760 0.53210 0.10400
H 	H 	0.18380 0.86530 0.47240 0.10600
O 	O 	0.77220 0.33250 0.51420 -0.39400
O 	O 	0.78000 0.41570 0.50890 -0.40900
C 	C 	0.75120 0.37640 0.50870 0.40300
C 	C 	0.69540 0.38260 0.50310 -0.22900
H 	H 	0.67800 0.36760 0.53210 0.10600
H 	H 	0.68380 0.36530 0.47240 0.10700
O 	O 	0.77220 0.83250 0.01420 -0.43400
O 	O 	0.78000 0.91570 0.00890 -0.37000
C 	C 	0.75120 0.87640 0.00870 0.43400
C 	C 	0.69540 0.88260 0.00310 -0.40400
H 	H 	0.67800 0.86760 0.03210 0.14800
H 	H 	0.68380 0.86530 0.97240 0.23300
O 	O 	0.77220 0.41750 0.23580 -0.39400
O 	O 	0.78000 0.33430 0.24110 -0.40900
C 	C 	0.75120 0.37360 0.24130 0.40200
C 	C 	0.69540 0.36740 0.24690 -0.22800
H 	H 	0.67800 0.38240 0.21790 0.10500
H 	H 	0.68380 0.38470 0.27760 0.10700
O 	O 	0.77220 0.91750 0.73580 -0.36100
O 	O 	0.78000 0.83430 0.74110 -0.40200
C 	C 	0.75120 0.87360 0.74130 0.40000
C 	C 	0.69540 0.86740 0.74690 -0.23000
H 	H 	0.67800 0.88240 0.71790 0.11000
H 	H 	0.68380 0.88470 0.77760 0.11400
O 	O 	0.27220 0.41750 0.73580 -0.39500
O 	O 	0.28000 0.33430 0.74110 -0.41000
C 	C 	0.25120 0.37360 0.74130 0.40400
C 	C 	0.19540 0.36740 0.74690 -0.23000
H 	H 	0.17800 0.38240 0.71790 0.10600
H 	H 	0.18380 0.38470 0.77760 0.10800
O 	O 	0.27220 0.91750 0.23580 -0.36300
O 	O 	0.28000 0.83430 0.24110 -0.40600
C 	C 	0.25120 0.87360 0.24130 0.39800
C 	C 	0.19540 0.86740 0.24690 -0.22700
H 	H 	0.17800 0.88240 0.21790 0.10900
H 	H 	0.18380 0.88470 0.27760 0.11200
O 	O 	0.97780 0.83250 0.73580 -0.37400
O 	O 	0.97000 0.91570 0.74110 -0.31700
C 	C 	0.99880 0.87640 0.74130 0.52600
C 	C 	0.05460 0.88260 0.74690 -0.38700
H 	H 	0.07200 0.86760 0.71790 0.14400
H 	H 	0.06620 0.86530 0.77760 0.14600
O 	O 	0.97780 0.33250 0.23580 -0.38100
O 	O 	0.97000 0.41570 0.24110 -0.37600
C 	C 	0.99880 0.37640 0.24130 0.54500
C 	C 	0.05460 0.38260 0.24690 -0.40600
H 	H 	0.07200 0.36760 0.21790 0.14700
H 	H 	0.06620 0.36530 0.27760 0.14600
O 	O 	0.47780 0.83250 0.23580 -0.38900
O 	O 	0.47000 0.91570 0.24110 -0.35000
C 	C 	0.49880 0.87640 0.24130 0.39000
C 	C 	0.55460 0.88260 0.24690 -0.21700
H 	H 	0.57200 0.86760 0.21790 0.10300
H 	H 	0.56620 0.86530 0.27760 0.10600
O 	O 	0.47780 0.33250 0.73580 -0.39500
O 	O 	0.47000 0.41570 0.74110 -0.41000
C 	C 	0.49880 0.37640 0.74130 0.40400
C 	C 	0.55460 0.38260 0.74690 -0.23100
H 	H 	0.57200 0.36760 0.71790 0.10600
H 	H 	0.56620 0.36530 0.77760 0.10900
O 	O 	0.47780 0.91750 0.51420 -0.36300
O 	O 	0.47000 0.83430 0.50890 -0.40600
C 	C 	0.49880 0.87360 0.50870 0.39900
C 	C 	0.55460 0.86740 0.50310 -0.22900
H 	H 	0.57200 0.88240 0.53210 0.11000
H 	H 	0.56620 0.88470 0.47240 0.11200
O 	O 	0.47780 0.41750 0.01420 -0.44500
O 	O 	0.47000 0.33430 0.00890 -0.43300
C 	C 	0.49880 0.37360 0.00870 0.44700
C 	C 	0.55460 0.36740 0.00310 -0.42100
H 	H 	0.57200 0.38240 0.03210 0.15200
H 	H 	0.56620 0.38470 0.97240 0.23700
O 	O 	0.97780 0.91750 0.01420 -0.39700
O 	O 	0.97000 0.83430 0.00890 -0.39200
C 	C 	0.99880 0.87360 0.00870 0.58100
C 	C 	0.05460 0.86740 0.00310 -0.58800
H 	H 	0.07200 0.88240 0.03210 0.19500
H 	H 	0.06620 0.88470 0.97240 0.27900
O 	O 	0.97780 0.41750 0.51420 -0.38100
O 	O 	0.97000 0.33430 0.50890 -0.37600
C 	C 	0.99880 0.37360 0.50870 0.54400
C 	C 	0.05460 0.36740 0.50310 -0.40500
H 	H 	0.07200 0.38240 0.53210 0.14800
H 	H 	0.06620 0.38470 0.47240 0.14600
Ho	Ho	-0.00000 0.25000 -0.00000 1.46400
Ho	Ho	0.00000 0.75000 0.50000 1.69900
Ho	Ho	0.50000 0.25000 0.50000 1.92400
Ho	Ho	0.25000 0.50000 0.50000 1.92400
Ho	Ho	0.75000 0.00000 0.50000 1.70000
Ho	Ho	0.75000 0.75000 0.25000 1.92400
Ho	Ho	0.50000 0.00000 0.75000 1.69900
Ho	Ho	0.00000 0.00000 0.25000 1.46400
Ho	Ho	0.00000 0.50000 0.75000 1.70000
Ho	Ho	0.50000 0.50000 0.25000 1.92400
Ho	Ho	0.50000 0.75000 -0.00000 1.70000
Ho	Ho	0.25000 0.75000 0.75000 1.92400
Ho	Ho	0.25000 0.25000 0.25000 1.92300
Ho	Ho	0.75000 0.50000 -0.00000 1.69900
Ho	Ho	0.25000 0.00000 -0.00000 1.46400
Ho	Ho	0.75000 0.25000 0.75000 1.92400
Ho	Ho	0.00000 0.75000 -0.00000 1.47400
Ho	Ho	0.75000 0.50000 0.50000 1.92400
Ho	Ho	0.25000 0.25000 0.75000 1.92400
Ho	Ho	0.75000 0.75000 0.75000 1.92500
Ho	Ho	0.50000 0.00000 0.25000 1.69500
Ho	Ho	0.00000 0.00000 0.75000 1.47400
Ho	Ho	0.00000 0.50000 0.25000 1.69400
Ho	Ho	0.50000 0.75000 0.50000 1.92400
Ho	Ho	0.50000 0.25000 -0.00000 1.69400
Ho	Ho	0.75000 0.25000 0.25000 1.92400
Ho	Ho	0.25000 0.50000 -0.00000 1.69500
Ho	Ho	0.25000 0.00000 0.50000 1.69400
Ho	Ho	0.75000 0.00000 -0.00000 1.47400
Ho	Ho	0.50000 0.50000 0.75000 1.92400
Ho	Ho	0.25000 0.75000 0.25000 1.92400
Ho	Ho	0.00000 0.25000 0.50000 1.69500
Cd	Cd	-0.00000 0.50000 -0.00000 1.18700
Cd	Cd	0.50000 0.50000 0.50000 1.25700
Cd	Cd	0.25000 0.25000 0.50000 1.25700
Cd	Cd	0.25000 0.75000 -0.00000 1.22200
Cd	Cd	0.75000 0.00000 0.25000 1.22200
Cd	Cd	0.50000 0.75000 0.75000 1.25700
Cd	Cd	0.00000 0.25000 0.75000 1.22200
Cd	Cd	0.00000 0.00000 0.50000 1.18700
Cd	Cd	0.50000 0.25000 0.25000 1.25700
Cd	Cd	0.75000 0.50000 0.75000 1.25700
Cd	Cd	0.50000 0.00000 -0.00000 1.18700
Cd	Cd	0.25000 0.50000 0.25000 1.25700
Cd	Cd	0.75000 0.75000 0.50000 1.25700
Cd	Cd	0.25000 0.25000 -0.00000 1.22100
Cd	Cd	0.00000 0.50000 0.50000 1.22200
Cd	Cd	-0.00000 0.00000 -0.00000 1.15100
Cd	Cd	0.75000 0.00000 0.75000 1.22300
Cd	Cd	0.50000 0.75000 0.25000 1.25700
Cd	Cd	0.00000 0.75000 0.75000 1.22300
Cd	Cd	0.00000 0.25000 0.25000 1.22100
Cd	Cd	0.75000 0.25000 0.50000 1.25700
Cd	Cd	0.75000 0.75000 -0.00000 1.22300
Cd	Cd	0.50000 0.50000 -0.00000 1.22200
Cd	Cd	0.25000 0.00000 0.25000 1.22100
Cd	Cd	0.25000 0.50000 0.75000 1.25700
Cd	Cd	0.50000 0.00000 0.50000 1.22200
Cd	Cd	0.25000 0.00000 0.75000 1.22200
Cd	Cd	0.75000 0.25000 -0.00000 1.22200
Cd	Cd	0.00000 0.75000 0.25000 1.22200
Cd	Cd	0.25000 0.75000 0.50000 1.25700
Cd	Cd	0.75000 0.50000 0.25000 1.25700
Cd	Cd	0.50000 0.25000 0.75000 1.25700
O 	O 	0.00000 0.31560 0.06560 -0.27700
O 	O 	0.00000 0.81560 0.56560 -0.31200
O 	O 	0.50000 0.31560 0.56560 -0.21900
O 	O 	0.25000 0.43440 0.56560 -0.21900
O 	O 	0.75000 0.43440 0.06560 -0.17800
O 	O 	0.75000 0.81560 0.18440 -0.21700
O 	O 	0.25000 0.81560 0.68440 -0.21800
O 	O 	0.50000 0.93440 0.68440 -0.20700
O 	O 	0.00000 0.93440 0.18440 -0.29900
O 	O 	-0.00000 0.43440 0.68440 -0.31500
O 	O 	0.06560 0.00000 0.31560 -0.27700
O 	O 	0.06560 0.50000 0.81560 -0.17800
O 	O 	0.56560 0.00000 0.81560 -0.31200
O 	O 	0.56560 0.25000 0.43440 -0.21900
O 	O 	0.56560 0.75000 0.93440 -0.20500
O 	O 	0.06560 0.75000 0.43440 -0.17800
O 	O 	0.18440 0.75000 0.81560 -0.21700
O 	O 	0.18440 0.25000 0.31560 -0.21900
O 	O 	0.68440 0.50000 0.93440 -0.20700
O 	O 	0.68440 0.00000 0.43440 -0.31500
O 	O 	0.31560 0.06560 -0.00000 -0.27700
O 	O 	0.31560 0.56560 0.50000 -0.21900
O 	O 	0.81560 0.56560 -0.00000 -0.31200
O 	O 	0.43440 0.56560 0.25000 -0.21900
O 	O 	0.43440 0.06560 0.75000 -0.17800
O 	O 	0.81560 0.18440 0.75000 -0.21700
O 	O 	0.81560 0.68440 0.25000 -0.21800
O 	O 	0.93440 0.68440 0.50000 -0.20700
O 	O 	0.93440 0.18440 -0.00000 -0.29900
O 	O 	0.43440 0.68440 -0.00000 -0.31500
O 	O 	0.06560 0.25000 0.93440 -0.16700
O 	O 	0.18440 0.50000 0.43440 -0.21900
O 	O 	0.18440 0.00000 0.93440 -0.29900
O 	O 	0.56560 0.50000 0.31560 -0.21900
O 	O 	0.68440 0.75000 0.31560 -0.21800
O 	O 	0.68440 0.25000 0.81560 -0.21800
O 	O 	0.75000 0.31560 0.68440 -0.21800
O 	O 	0.25000 0.31560 0.18440 -0.21900
O 	O 	0.50000 0.81560 0.06560 -0.17800
O 	O 	0.50000 0.43440 0.18440 -0.21900
O 	O 	0.25000 0.93440 0.06560 -0.16700
O 	O 	0.75000 0.93440 0.56560 -0.20500
O 	O 	0.81560 0.06560 0.50000 -0.17800
O 	O 	0.31560 0.68440 0.75000 -0.21800
O 	O 	0.31560 0.18440 0.25000 -0.21900
O 	O 	0.93440 0.06560 0.25000 -0.16700
O 	O 	0.93440 0.56560 0.75000 -0.20500
O 	O 	0.43440 0.18440 0.50000 -0.21900
O 	O 	0.00000 0.68440 0.93440 -0.29800
O 	O 	-0.00000 0.18440 0.43440 -0.31600
O 	O 	0.50000 0.68440 0.43440 -0.21900
O 	O 	0.75000 0.56560 0.43440 -0.21800
O 	O 	0.25000 0.56560 0.93440 -0.20700
O 	O 	0.25000 0.18440 0.81560 -0.21800
O 	O 	0.75000 0.18440 0.31560 -0.21800
O 	O 	0.75000 0.68440 0.81560 -0.21700
O 	O 	0.50000 0.06560 0.31560 -0.17800
O 	O 	0.00000 0.06560 0.81560 -0.27400
O 	O 	0.93440 0.00000 0.68440 -0.29800
O 	O 	0.93440 0.50000 0.18440 -0.20600
O 	O 	0.43440 0.00000 0.18440 -0.31600
O 	O 	0.43440 0.75000 0.56560 -0.21800
O 	O 	0.43440 0.25000 0.06560 -0.17900
O 	O 	0.81560 0.25000 0.18440 -0.21800
O 	O 	0.81560 0.75000 0.68440 -0.21700
O 	O 	0.31560 0.50000 0.06560 -0.17800
O 	O 	0.31560 0.00000 0.56560 -0.31500
O 	O 	0.81560 0.00000 0.06560 -0.27400
O 	O 	0.68440 0.93440 -0.00000 -0.29800
O 	O 	0.68440 0.43440 0.50000 -0.21900
O 	O 	0.18440 0.43440 -0.00000 -0.31600
O 	O 	0.56560 0.43440 0.75000 -0.21800
O 	O 	0.56560 0.93440 0.25000 -0.20700
O 	O 	0.18440 0.81560 0.25000 -0.21800
O 	O 	0.18440 0.31560 0.75000 -0.21800
O 	O 	0.68440 0.81560 0.75000 -0.21700
O 	O 	0.06560 0.31560 0.50000 -0.17800
O 	O 	0.06560 0.81560 -0.00000 -0.27400
O 	O 	0.93440 0.75000 0.06560 -0.16700
O 	O 	0.93440 0.25000 0.56560 -0.20700
O 	O 	0.81560 0.50000 0.56560 -0.21700
O 	O 	0.43440 0.50000 0.68440 -0.21900
O 	O 	0.31560 0.25000 0.68440 -0.21900
O 	O 	0.31560 0.75000 0.18440 -0.21800
O 	O 	0.25000 0.68440 0.31560 -0.21900
O 	O 	0.50000 0.18440 0.93440 -0.20600
O 	O 	0.50000 0.56560 0.81560 -0.21700
O 	O 	0.00000 0.56560 0.31560 -0.31500
O 	O 	0.75000 0.06560 0.93440 -0.16700
O 	O 	0.25000 0.06560 0.43440 -0.17900
O 	O 	0.18440 0.93440 0.50000 -0.20600
O 	O 	0.68440 0.31560 0.25000 -0.21900
O 	O 	0.06560 0.93440 0.75000 -0.16700
O 	O 	0.06560 0.43440 0.25000 -0.17900
O 	O 	0.56560 0.81560 0.50000 -0.21700
O 	O 	0.56560 0.31560 -0.00000 -0.31500
