data_crystal

_cell_length_a 6.97500
_cell_length_b 12.90100
_cell_length_c 13.55100
_cell_angle_alpha 90.00000
_cell_angle_beta  100.72900
_cell_angle_gamma 90.00000

_symmetry_space_group_name_	'P 1'
_symmetry_space_group_name_H-M	'P 1'

loop_
_symmetry_equiv_pos_as_xyz
  x,y,z

loop_
_atom_site_label
_atom_site_type_symbol
_atom_site_fract_x
_atom_site_fract_y
_atom_site_fract_z
_atom_site_charge
Ce	Ce	0.20663 0.96012 0.04123 2.13700
Ce	Ce	0.41472 0.03765 0.55864 2.15600
S 	S 	0.74170 0.94140 0.81170 0.06700
S 	S 	0.36710 0.70820 0.20100 0.10500
S 	S 	0.40310 0.69260 0.94770 0.13300
O 	O 	0.34600 0.00430 0.89040 -0.43100
O 	O 	0.36030 0.00550 0.72990 -0.47700
O 	O 	0.07800 0.09280 0.57300 -0.43900
O 	O 	0.75700 0.08870 0.53530 -0.40100
O 	O 	0.25960 0.02890 0.21480 -0.34700
O 	O 	0.32900 0.02490 0.37990 -0.39900
O 	O 	0.58500 0.88800 0.50750 -0.50100
O 	O 	0.61500 0.71720 0.50940 -0.44400
O 	O 	0.57800 0.97270 0.09700 -0.46300
O 	O 	0.88740 0.94110 0.09180 -0.50100
O 	O 	0.07300 0.78010 0.00520 -0.45000
O 	O 	0.00000 0.61540 0.00890 -0.41400
N 	N 	0.97500 0.95250 0.84960 -0.20500
N 	N 	0.73100 0.98930 0.70020 -0.23100
N 	N 	0.31400 0.83210 0.19880 -0.20700
N 	N 	0.46300 0.70170 0.31540 -0.19200
N 	N 	0.45300 0.80630 0.99490 -0.19300
N 	N 	0.62500 0.65640 0.95380 -0.17900
C 	C 	0.04500 0.98690 0.77390 -0.10300
C 	C 	0.90900 0.01370 0.68930 0.02100
C 	C 	0.26200 0.00200 0.79730 0.42500
C 	C 	0.92800 0.06910 0.59280 0.32100
C 	C 	0.37300 0.87150 0.28730 -0.01800
C 	C 	0.45900 0.79550 0.35780 -0.07400
C 	C 	0.32300 0.98060 0.29670 0.24400
C 	C 	0.55700 0.80040 0.46590 0.36800
C 	C 	0.64400 0.82010 0.01560 -0.04800
C 	C 	0.74600 0.73310 0.99240 -0.05600
C 	C 	0.71300 0.92010 0.07210 0.40300
C 	C 	0.95900 0.71130 0.00580 0.35500
Ce	Ce	0.79337 0.46012 0.95877 2.14100
Ce	Ce	0.58528 0.53765 0.44136 2.14300
S 	S 	0.25830 0.44140 0.18830 0.11000
S 	S 	0.63290 0.20820 0.79900 0.10500
S 	S 	0.59690 0.19260 0.05230 0.14700
O 	O 	0.65400 0.50430 0.10960 -0.45400
O 	O 	0.63970 0.50550 0.27010 -0.49400
O 	O 	0.92200 0.59280 0.42700 -0.53200
O 	O 	0.24300 0.58870 0.46470 -0.42600
O 	O 	0.74040 0.52890 0.78520 -0.44300
O 	O 	0.67100 0.52490 0.62010 -0.48100
O 	O 	0.41500 0.38800 0.49250 -0.47100
O 	O 	0.38500 0.21720 0.49060 -0.43500
O 	O 	0.42200 0.47270 0.90300 -0.43100
O 	O 	0.11260 0.44110 0.90820 -0.44900
O 	O 	0.92700 0.28010 0.99480 -0.53700
O 	O 	0.00000 0.11540 0.99110 -0.43400
N 	N 	0.02500 0.45250 0.15040 -0.15800
N 	N 	0.26900 0.48930 0.29980 -0.19800
N 	N 	0.68600 0.33210 0.80120 -0.20100
N 	N 	0.53700 0.20170 0.68460 -0.19300
N 	N 	0.54700 0.30630 0.00510 -0.19000
N 	N 	0.37500 0.15640 0.04620 -0.16500
C 	C 	0.95500 0.48690 0.22610 -0.11300
C 	C 	0.09100 0.51370 0.31070 -0.01400
C 	C 	0.73800 0.50200 0.20270 0.38600
C 	C 	0.07200 0.56910 0.40720 0.42800
C 	C 	0.62700 0.37150 0.71270 -0.05600
C 	C 	0.54100 0.29550 0.64220 -0.05200
C 	C 	0.67700 0.48060 0.70330 0.38000
C 	C 	0.44300 0.30040 0.53410 0.36000
C 	C 	0.35600 0.32010 0.98440 -0.03700
C 	C 	0.25400 0.23310 0.00760 -0.06800
C 	C 	0.28700 0.42010 0.92790 0.39400
C 	C 	0.04100 0.21130 0.99420 0.47600
