data_crystal

_cell_length_a 6.78980
_cell_length_b 15.09630
_cell_length_c 15.09630
_cell_angle_alpha 62.20660
_cell_angle_beta  81.37750
_cell_angle_gamma 98.62250

_symmetry_space_group_name_	'P 1'
_symmetry_space_group_name_H-M	'P 1'

loop_
_symmetry_equiv_pos_as_xyz
  x,y,z

loop_
_atom_site_label
_atom_site_type_symbol
_atom_site_fract_x
_atom_site_fract_y
_atom_site_fract_z
_atom_site_charge
Co	Co	0.40030 0.58330 0.71740 1.16300
Co	Co	0.81700 0.69930 0.58330 1.17400
Co	Co	0.11770 0.71740 0.69930 1.14800
Co	Co	0.40030 0.28260 0.41670 1.16400
Co	Co	0.11770 0.30070 0.28260 1.15000
Co	Co	0.81700 0.41670 0.30070 1.17400
H 	H 	0.24470 0.00000 0.48390 0.13200
H 	H 	0.53470 0.42310 -0.00000 -0.01800
H 	H 	0.72860 0.48390 0.51610 0.13800
H 	H 	0.24470 0.51610 -0.00000 0.13000
H 	H 	0.53470 0.00000 0.57690 -0.02000
H 	H 	0.11160 0.57690 0.42310 -0.02800
C 	C 	0.72970 0.41500 0.09390 -0.35100
C 	C 	0.94440 0.90810 0.56030 0.42500
C 	C 	0.31470 0.58500 0.50890 -0.35500
C 	C 	0.50470 0.46840 0.43970 0.39100
C 	C 	0.20260 0.64430 0.54150 0.42400
C 	C 	0.58170 0.50355 0.49645 -0.39400
C 	C 	0.94440 0.43970 0.09190 0.43300
C 	C 	0.72970 0.90610 0.58500 -0.36600
C 	C 	0.03630 0.09190 0.46840 0.35300
C 	C 	0.07815 0.00000 0.50355 -0.42500
C 	C 	0.82360 0.09390 0.49110 -0.30700
C 	C 	0.50470 0.56030 0.53160 0.39100
C 	C 	0.68075 -0.00000 0.55875 0.24100
C 	C 	0.74410 0.54150 0.81420 0.41300
C 	C 	0.82360 0.50890 0.90610 -0.30300
C 	C 	0.68075 0.44125 -0.00000 0.22500
C 	C 	0.55830 0.81420 0.64430 0.43200
C 	C 	0.20260 0.45850 0.35570 0.42500
C 	C 	0.03630 0.53160 0.90810 0.34600
C 	C 	0.55830 0.35570 0.18580 0.42900
C 	C 	0.31470 0.49110 0.41500 -0.35400
C 	C 	0.23950 0.55875 0.44125 0.23200
C 	C 	0.74410 0.18580 0.45850 0.41600
C 	C 	0.07815 0.49645 -0.00000 -0.42900
O 	O 	0.59800 0.34130 0.27460 -0.59600
O 	O 	0.57970 0.58490 0.59670 -0.55100
O 	O 	0.17640 0.18160 0.40330 -0.55500
O 	O 	0.55680 0.17620 0.49900 -0.44600
O 	O 	0.25670 0.65870 0.61590 -0.60500
O 	O 	0.05580 0.67520 0.50100 -0.47300
O 	O 	0.38060 0.32480 0.17620 -0.45500
O 	O 	0.05580 0.49900 0.32480 -0.47200
O 	O 	0.87260 0.27460 0.38410 -0.57300
O 	O 	0.38060 0.82380 0.67520 -0.46200
O 	O 	0.17640 0.59670 0.81840 -0.55600
O 	O 	0.59800 0.72540 0.65870 -0.59700
O 	O 	0.25670 0.38410 0.34130 -0.60400
O 	O 	0.99480 0.41510 0.18160 -0.54100
O 	O 	0.99480 0.81840 0.58490 -0.54100
O 	O 	0.57970 0.40330 0.41510 -0.55100
O 	O 	0.55680 0.50100 0.82380 -0.44800
O 	O 	0.87260 0.61590 0.72540 -0.57300
