data_crystal

_cell_length_a 6.80300
_cell_length_b 15.11440
_cell_length_c 15.11440
_cell_angle_alpha 62.20980
_cell_angle_beta  81.37120
_cell_angle_gamma 98.62880

_symmetry_space_group_name_	'P 1'
_symmetry_space_group_name_H-M	'P 1'

loop_
_symmetry_equiv_pos_as_xyz
  x,y,z

loop_
_atom_site_label
_atom_site_type_symbol
_atom_site_fract_x
_atom_site_fract_y
_atom_site_fract_z
_atom_site_charge
Co	Co	0.10110 0.71690 0.70060 1.14400
Co	Co	0.80170 0.70060 0.58250 1.17900
Co	Co	0.10110 0.29940 0.28310 1.14600
Co	Co	0.38420 0.58250 0.71690 1.16500
Co	Co	0.80170 0.41750 0.29940 1.17900
Co	Co	0.38420 0.28310 0.41750 1.16600
H 	H 	0.53850 0.00000 0.56850 -0.04000
H 	H 	0.10700 0.56850 0.43150 -0.05300
H 	H 	0.23975 0.00000 0.48375 0.15100
H 	H 	0.53850 0.43150 -0.00000 -0.03500
H 	H 	0.72350 0.48375 0.51625 0.15800
H 	H 	0.23975 0.51625 -0.00000 0.15000
C 	C 	0.72810 0.41480 0.09460 -0.34600
C 	C 	0.94570 0.90570 0.56210 0.39000
C 	C 	0.04000 0.09430 0.46780 0.29600
C 	C 	0.82270 0.50940 0.90540 -0.28300
C 	C 	0.20320 0.45580 0.35810 0.44400
C 	C 	0.04000 0.53220 0.90570 0.29200
C 	C 	0.56130 0.81390 0.64190 0.45000
C 	C 	0.74740 0.54420 0.81390 0.42600
C 	C 	0.94570 0.43790 0.09430 0.39800
C 	C 	0.72810 0.90540 0.58520 -0.36100
C 	C 	0.67155 0.44305 -0.00000 0.22100
C 	C 	0.08780 0.00000 0.49920 -0.40500
C 	C 	0.56130 0.35810 0.18610 0.44600
C 	C 	0.31330 0.49060 0.41480 -0.35400
C 	C 	0.74740 0.18610 0.45580 0.42900
C 	C 	0.50780 0.46780 0.43790 0.34800
C 	C 	0.31330 0.58520 0.50940 -0.35400
C 	C 	0.22850 0.55695 0.44305 0.24000
C 	C 	0.58700 0.49920 0.50080 -0.36400
C 	C 	0.50780 0.56210 0.53220 0.34800
C 	C 	0.08780 0.50080 -0.00000 -0.41400
C 	C 	0.67155 0.00000 0.55695 0.24200
C 	C 	0.82270 0.09460 0.49060 -0.28900
C 	C 	0.20320 0.64190 0.54420 0.44400
O 	O 	0.55970 0.17950 0.49240 -0.43900
O 	O 	0.05210 0.67190 0.50760 -0.47400
O 	O 	0.25570 0.38450 0.34050 -0.61700
O 	O 	0.99790 0.81740 0.58150 -0.52600
O 	O 	0.55970 0.50760 0.82050 -0.43900
O 	O 	0.18050 0.60110 0.81740 -0.54700
O 	O 	0.05210 0.49240 0.32810 -0.47300
O 	O 	0.59620 0.34050 0.27500 -0.60500
O 	O 	0.38020 0.32810 0.17950 -0.45100
O 	O 	0.57940 0.58150 0.60110 -0.54100
O 	O 	0.87120 0.61550 0.72500 -0.57400
O 	O 	0.87120 0.27500 0.38450 -0.57400
O 	O 	0.57940 0.39890 0.41850 -0.54100
O 	O 	0.99790 0.41850 0.18260 -0.52600
O 	O 	0.25570 0.65950 0.61550 -0.61700
O 	O 	0.59620 0.72500 0.65950 -0.60700
O 	O 	0.38020 0.82050 0.67190 -0.45700
O 	O 	0.18050 0.18260 0.39890 -0.54600
