data_crystal

_cell_length_a 6.80390
_cell_length_b 15.11330
_cell_length_c 15.11330
_cell_angle_alpha 62.21070
_cell_angle_beta  81.36940
_cell_angle_gamma 98.63060

_symmetry_space_group_name_	'P 1'
_symmetry_space_group_name_H-M	'P 1'

loop_
_symmetry_equiv_pos_as_xyz
  x,y,z

loop_
_atom_site_label
_atom_site_type_symbol
_atom_site_fract_x
_atom_site_fract_y
_atom_site_fract_z
_atom_site_charge
Co	Co	0.11660 0.30250 0.27870 1.14900
Co	Co	0.39530 0.27870 0.41880 1.16200
Co	Co	0.11660 0.72130 0.69750 1.14700
Co	Co	0.39530 0.58120 0.72130 1.16200
Co	Co	0.81410 0.69750 0.58120 1.17300
Co	Co	0.81410 0.41880 0.30250 1.17300
H 	H 	0.23705 0.51715 -0.00000 0.15800
H 	H 	0.71990 0.48285 0.51715 0.16300
H 	H 	0.52805 0.00000 0.57585 -0.01600
H 	H 	0.10390 0.57585 0.42415 -0.02500
H 	H 	0.52805 0.42415 -0.00000 -0.01500
H 	H 	0.23705 0.00000 0.48285 0.15900
C 	C 	0.50780 0.46780 0.43940 0.40000
C 	C 	0.68315 0.44245 -0.00000 0.22800
C 	C 	0.20410 0.45640 0.35780 0.45900
C 	C 	0.74770 0.54360 0.81420 0.44700
C 	C 	0.72890 0.90520 0.58530 -0.38300
C 	C 	0.04000 0.09280 0.46780 0.36300
C 	C 	0.56190 0.81420 0.64220 0.46600
C 	C 	0.31420 0.49050 0.41470 -0.37100
C 	C 	0.82370 0.09480 0.49050 -0.32500
C 	C 	0.94720 0.43940 0.09280 0.44100
C 	C 	0.04000 0.53220 0.90720 0.35600
C 	C 	0.74770 0.18580 0.45640 0.44900
C 	C 	0.31420 0.58530 0.50950 -0.37100
C 	C 	0.58540 0.50160 0.49840 -0.43100
C 	C 	0.24070 0.55755 0.44245 0.23400
C 	C 	0.50780 0.56060 0.53220 0.40000
C 	C 	0.82370 0.50950 0.90520 -0.32200
C 	C 	0.72890 0.41470 0.09480 -0.36800
C 	C 	0.20410 0.64220 0.54360 0.45900
C 	C 	0.56190 0.35780 0.18580 0.46300
C 	C 	0.94720 0.90720 0.56060 0.43300
C 	C 	0.08380 0.49840 -0.00000 -0.46600
C 	C 	0.08380 0.00000 0.50160 -0.46100
C 	C 	0.68315 -0.00000 0.55755 0.24400
O 	O 	0.57720 0.40150 0.41690 -0.55700
O 	O 	0.05810 0.67250 0.50460 -0.48900
O 	O 	0.17570 0.59850 0.81840 -0.56200
O 	O 	0.25520 0.38420 0.34110 -0.60400
O 	O 	0.25520 0.65890 0.61580 -0.60500
O 	O 	0.87100 0.61580 0.72530 -0.57300
O 	O 	0.87100 0.27470 0.38420 -0.57300
O 	O 	0.59630 0.72530 0.65890 -0.59700
O 	O 	0.99410 0.81840 0.58310 -0.54700
O 	O 	0.59630 0.34110 0.27470 -0.59600
O 	O 	0.38560 0.82290 0.67250 -0.47800
O 	O 	0.17570 0.18160 0.40150 -0.56200
O 	O 	0.56270 0.17710 0.49540 -0.46300
O 	O 	0.57720 0.58310 0.59850 -0.55700
O 	O 	0.99410 0.41690 0.18160 -0.54700
O 	O 	0.38560 0.32750 0.17710 -0.47200
O 	O 	0.05810 0.49540 0.32750 -0.48800
O 	O 	0.56270 0.50460 0.82290 -0.46400
