data_crystal

_cell_length_a 6.79040
_cell_length_b 15.11810
_cell_length_c 15.11810
_cell_angle_alpha 62.20070
_cell_angle_beta  81.38930
_cell_angle_gamma 98.61070

_symmetry_space_group_name_	'P 1'
_symmetry_space_group_name_H-M	'P 1'

loop_
_symmetry_equiv_pos_as_xyz
  x,y,z

loop_
_atom_site_label
_atom_site_type_symbol
_atom_site_fract_x
_atom_site_fract_y
_atom_site_fract_z
_atom_site_charge
Co	Co	0.11537 0.71983 0.70272 1.13900
Co	Co	0.11537 0.29728 0.28017 1.14100
Co	Co	0.39554 0.57745 0.71983 1.15600
Co	Co	0.39554 0.28017 0.42255 1.15600
Co	Co	0.81809 0.42255 0.29728 1.16900
Co	Co	0.81809 0.70272 0.57745 1.16900
H 	H 	0.72900 0.46350 0.53650 0.10200
H 	H 	0.52300 0.00000 0.56100 0.00000
H 	H 	0.52300 0.43900 -0.00000 0.00100
H 	H 	0.08400 0.56100 0.43900 -0.01200
H 	H 	0.26550 -0.00000 0.46350 0.09300
H 	H 	0.26550 0.53650 -0.00000 0.09100
C 	C 	0.83030 0.50540 0.90650 -0.27500
C 	C 	0.73680 0.41190 0.09350 -0.33600
C 	C 	0.83030 0.09350 0.49460 -0.28200
C 	C 	0.68630 0.43990 -0.00000 0.18700
C 	C 	0.74530 0.53980 0.81490 0.41800
C 	C 	0.09560 -0.00000 0.49620 -0.31400
C 	C 	0.68630 0.00000 0.56010 0.20200
C 	C 	0.56020 0.81490 0.64530 0.43800
C 	C 	0.20550 0.64530 0.53980 0.43400
C 	C 	0.20550 0.46020 0.35470 0.43400
C 	C 	0.50530 0.46560 0.43870 0.33300
C 	C 	0.94400 0.43870 0.09570 0.37300
C 	C 	0.09560 0.50380 -0.00000 -0.31900
C 	C 	0.73680 0.90650 0.58810 -0.34600
C 	C 	0.74530 0.18510 0.46020 0.42000
C 	C 	0.94400 0.90430 0.56130 0.37000
C 	C 	0.24640 0.56010 0.43990 0.20400
C 	C 	0.03970 0.53440 0.90430 0.28000
C 	C 	0.56020 0.35470 0.18510 0.43600
C 	C 	0.03970 0.09570 0.46560 0.28200
C 	C 	0.50530 0.56130 0.53440 0.33300
C 	C 	0.32490 0.49460 0.41190 -0.34300
C 	C 	0.59180 0.49620 0.50380 -0.27900
C 	C 	0.32490 0.58810 0.50540 -0.34300
O 	O 	0.86340 0.61300 0.72880 -0.55500
O 	O 	0.99710 0.81780 0.58550 -0.53500
O 	O 	0.25040 0.38700 0.34180 -0.59100
O 	O 	0.58260 0.58550 0.59670 -0.54800
O 	O 	0.05070 0.67130 0.50220 -0.48100
O 	O 	0.58260 0.40330 0.41450 -0.54800
O 	O 	0.25040 0.65820 0.61300 -0.59200
O 	O 	0.05070 0.49780 0.32870 -0.48000
O 	O 	0.37940 0.82650 0.67130 -0.46500
O 	O 	0.55290 0.50220 0.82650 -0.45100
O 	O 	0.17930 0.59670 0.81780 -0.55000
O 	O 	0.59220 0.72880 0.65820 -0.58200
O 	O 	0.55290 0.17350 0.49780 -0.45100
O 	O 	0.86340 0.27120 0.38700 -0.55500
O 	O 	0.37940 0.32870 0.17350 -0.46200
O 	O 	0.99710 0.41450 0.18220 -0.53500
O 	O 	0.17930 0.18220 0.40330 -0.55000
O 	O 	0.59220 0.34180 0.27120 -0.58100
