data_crystal

_cell_length_a 6.81050
_cell_length_b 15.12520
_cell_length_c 15.12520
_cell_angle_alpha 62.21150
_cell_angle_beta  81.36780
_cell_angle_gamma 98.63220

_symmetry_space_group_name_	'P 1'
_symmetry_space_group_name_H-M	'P 1'

loop_
_symmetry_equiv_pos_as_xyz
  x,y,z

loop_
_atom_site_label
_atom_site_type_symbol
_atom_site_fract_x
_atom_site_fract_y
_atom_site_fract_z
_atom_site_charge
Co	Co	0.10690 0.71630 0.70060 1.15000
Co	Co	0.39060 0.28370 0.41690 1.17000
Co	Co	0.39060 0.58310 0.71630 1.17000
Co	Co	0.80750 0.70060 0.58310 1.18300
Co	Co	0.80750 0.41690 0.29940 1.18300
Co	Co	0.10690 0.29940 0.28370 1.15200
H 	H 	0.24405 0.00000 0.48585 0.16000
H 	H 	0.72990 0.48585 0.51415 0.16600
H 	H 	0.24405 0.51415 -0.00000 0.15800
H 	H 	0.11260 0.56940 0.43060 -0.05300
H 	H 	0.54320 0.43060 -0.00000 -0.03700
H 	H 	0.54320 0.00000 0.56940 -0.04100
C 	C 	0.67785 0.44425 -0.00000 0.22700
C 	C 	0.94970 0.90620 0.56020 0.39300
C 	C 	0.31610 0.58330 0.51080 -0.35900
C 	C 	0.50990 0.56020 0.53360 0.35300
C 	C 	0.23360 0.55575 0.44425 0.24500
C 	C 	0.82690 0.51080 0.90590 -0.29100
C 	C 	0.94970 0.43980 0.09380 0.40000
C 	C 	0.20340 0.45350 0.36060 0.45600
C 	C 	0.67785 -0.00000 0.55575 0.24700
C 	C 	0.04350 0.09380 0.46640 0.30300
C 	C 	0.74990 0.54650 0.81410 0.43800
C 	C 	0.73280 0.41670 0.09410 -0.35100
C 	C 	0.73280 0.90590 0.58330 -0.36600
C 	C 	0.59360 0.49860 0.50140 -0.37700
C 	C 	0.56400 0.81410 0.63940 0.46100
C 	C 	0.09500 0.00000 0.49860 -0.41600
C 	C 	0.74990 0.18590 0.45350 0.44100
C 	C 	0.56400 0.36060 0.18590 0.45800
C 	C 	0.04350 0.53360 0.90620 0.29900
C 	C 	0.09500 0.50140 -0.00000 -0.42400
C 	C 	0.50990 0.46640 0.43980 0.35300
C 	C 	0.31610 0.48920 0.41670 -0.35900
C 	C 	0.82690 0.09410 0.48920 -0.29700
C 	C 	0.20340 0.63940 0.54650 0.45500
O 	O 	0.25640 0.38240 0.34380 -0.62400
O 	O 	0.56440 0.18060 0.49020 -0.44800
O 	O 	0.18190 0.60340 0.81730 -0.54600
O 	O 	0.57850 0.39660 0.42070 -0.54000
O 	O 	0.38380 0.81940 0.67080 -0.46500
O 	O 	0.87400 0.61760 0.72620 -0.58300
O 	O 	0.60020 0.34380 0.27380 -0.61300
O 	O 	0.05460 0.49020 0.32920 -0.48100
O 	O 	0.38380 0.32920 0.18060 -0.45900
O 	O 	0.60020 0.72620 0.65620 -0.61500
O 	O 	0.25640 0.65620 0.61760 -0.62500
O 	O 	0.87400 0.27380 0.38240 -0.58400
O 	O 	0.99920 0.81730 0.57930 -0.52600
O 	O 	0.05460 0.67080 0.50980 -0.48200
O 	O 	0.18190 0.18270 0.39660 -0.54500
O 	O 	0.57850 0.57930 0.60340 -0.54000
O 	O 	0.56440 0.50980 0.81940 -0.44800
O 	O 	0.99920 0.42070 0.18270 -0.52600
