data_crystal

_cell_length_a 6.86870
_cell_length_b 15.11090
_cell_length_c 15.11090
_cell_angle_alpha 62.25330
_cell_angle_beta  81.28510
_cell_angle_gamma 98.71490

_symmetry_space_group_name_	'P 1'
_symmetry_space_group_name_H-M	'P 1'

loop_
_symmetry_equiv_pos_as_xyz
  x,y,z

loop_
_atom_site_label
_atom_site_type_symbol
_atom_site_fract_x
_atom_site_fract_y
_atom_site_fract_z
_atom_site_charge
Co	Co	0.77930 0.25940 0.32410 1.16000
Co	Co	0.51990 0.41650 0.25940 1.16000
Co	Co	0.10340 0.32410 0.41650 1.15900
Co	Co	0.89660 0.67590 0.58350 1.15900
Co	Co	0.48010 0.58350 0.74060 1.15900
Co	Co	0.22070 0.74060 0.67590 1.15900
H 	H 	0.79920 0.47230 0.55260 0.09900
H 	H 	0.67310 0.02490 0.52770 0.09900
H 	H 	0.64820 0.44740 0.02490 0.10000
H 	H 	0.32690 0.97510 0.47230 0.09900
H 	H 	0.35180 0.55260 0.97510 0.10000
H 	H 	0.20080 0.52770 0.44740 0.09900
C 	C 	0.61110 0.45140 0.46140 -0.17900
C 	C 	0.43860 0.47040 0.42310 0.24100
C 	C 	0.15970 0.08720 0.45140 -0.18000
C 	C 	0.78140 0.46360 0.01530 -0.14000
C 	C 	0.38890 0.54860 0.53860 -0.17900
C 	C 	0.18200 0.43900 0.17790 0.43900
C 	C 	0.20330 0.98470 0.47890 -0.13900
C 	C 	0.31780 0.52110 0.46360 -0.13900
C 	C 	0.25700 0.61690 0.56100 0.43900
C 	C 	0.96820 0.10650 0.47040 0.24200
C 	C 	0.64010 0.82210 0.61690 0.43900
C 	C 	0.13830 0.57690 0.89350 0.24000
C 	C 	0.56140 0.52960 0.57690 0.24100
C 	C 	0.92750 0.53860 0.91280 -0.17800
C 	C 	0.03180 0.89350 0.52960 0.24200
C 	C 	0.86170 0.42310 0.10650 0.24000
C 	C 	0.35990 0.17790 0.38310 0.43900
C 	C 	0.21860 0.53640 0.98470 -0.14000
C 	C 	0.74300 0.38310 0.43900 0.43900
C 	C 	0.79670 0.01530 0.52110 -0.13900
C 	C 	0.07250 0.46140 0.08720 -0.17800
C 	C 	0.84030 0.91280 0.54860 -0.18000
C 	C 	0.68220 0.47890 0.53640 -0.13900
C 	C 	0.81800 0.56100 0.82210 0.43900
O 	O 	0.90450 0.37880 0.46680 -0.49400
O 	O 	0.08180 0.80930 0.55880 -0.54600
O 	O 	0.34330 0.26630 0.35120 -0.58000
O 	O 	0.09550 0.62120 0.53320 -0.49400
O 	O 	0.30550 0.64880 0.61750 -0.58000
O 	O 	0.72750 0.36810 0.19070 -0.54600
O 	O 	0.65670 0.73370 0.64880 -0.58000
O 	O 	0.62870 0.53320 0.84560 -0.49400
O 	O 	0.91820 0.19070 0.44120 -0.54600
O 	O 	0.47430 0.84560 0.62120 -0.49500
O 	O 	0.27250 0.63190 0.80930 -0.54600
O 	O 	0.07700 0.38250 0.26630 -0.58000
O 	O 	0.35940 0.44120 0.36810 -0.54600
O 	O 	0.37130 0.46680 0.15440 -0.49400
O 	O 	0.64060 0.55880 0.63190 -0.54600
O 	O 	0.52570 0.15440 0.37880 -0.49500
O 	O 	0.92300 0.61750 0.73370 -0.58000
O 	O 	0.69450 0.35120 0.38250 -0.58000
