data_crystal

_cell_length_a 6.72920
_cell_length_b 15.06190
_cell_length_c 15.06190
_cell_angle_alpha 62.17760
_cell_angle_beta  81.43540
_cell_angle_gamma 98.56460

_symmetry_space_group_name_	'P 1'
_symmetry_space_group_name_H-M	'P 1'

loop_
_symmetry_equiv_pos_as_xyz
  x,y,z

loop_
_atom_site_label
_atom_site_type_symbol
_atom_site_fract_x
_atom_site_fract_y
_atom_site_fract_z
_atom_site_charge
Ni	Ni	0.11630 0.71870 0.70420 1.08100
Ni	Ni	0.11630 0.29580 0.28130 1.08300
Ni	Ni	0.82050 0.42290 0.29580 1.10700
Ni	Ni	0.82050 0.70420 0.57710 1.10700
Ni	Ni	0.39760 0.28130 0.42290 1.09600
Ni	Ni	0.39760 0.57710 0.71870 1.09600
H 	H 	0.53440 0.00000 0.57180 -0.02500
H 	H 	0.25950 0.51850 -0.00000 0.11100
H 	H 	0.74100 0.48150 0.51850 0.12000
H 	H 	0.25950 0.00000 0.48150 0.11200
H 	H 	0.53440 0.42820 -0.00000 -0.02300
H 	H 	0.10620 0.57180 0.42820 -0.03600
C 	C 	0.55690 0.35490 0.18620 0.44800
C 	C 	0.74310 0.18620 0.45890 0.43600
C 	C 	0.58830 0.50145 0.49855 -0.32600
C 	C 	0.20200 0.64510 0.54110 0.44800
C 	C 	0.20200 0.45890 0.35490 0.44800
C 	C 	0.74310 0.54110 0.81380 0.43300
C 	C 	0.73070 0.41310 0.09200 -0.36600
C 	C 	0.68590 0.44170 -0.00000 0.25600
C 	C 	0.04110 0.53610 0.90180 0.34200
C 	C 	0.94290 0.43790 0.09820 0.42100
C 	C 	0.08685 0.49855 -0.00000 -0.36400
C 	C 	0.82270 0.09200 0.49490 -0.32500
C 	C 	0.68590 0.00000 0.55830 0.27400
C 	C 	0.04110 0.09820 0.46390 0.34500
C 	C 	0.08685 0.00000 0.50145 -0.36100
C 	C 	0.73070 0.90800 0.58690 -0.37600
C 	C 	0.31760 0.58690 0.50510 -0.37700
C 	C 	0.24420 0.55830 0.44170 0.28000
C 	C 	0.55690 0.81380 0.64510 0.45100
C 	C 	0.94290 0.90180 0.56210 0.42100
C 	C 	0.31760 0.49490 0.41310 -0.37700
C 	C 	0.82270 0.50510 0.90800 -0.31400
C 	C 	0.50500 0.46390 0.43790 0.38700
C 	C 	0.50500 0.56210 0.53610 0.38700
O 	O 	0.58200 0.40560 0.41260 -0.55400
O 	O 	0.59390 0.72750 0.65780 -0.56700
O 	O 	0.17640 0.18180 0.40560 -0.55600
O 	O 	0.55320 0.50100 0.82740 -0.44400
O 	O 	0.86640 0.61470 0.72750 -0.54200
O 	O 	0.05220 0.67160 0.50100 -0.47100
O 	O 	0.17640 0.59440 0.81820 -0.55600
O 	O 	0.58200 0.58740 0.59440 -0.55400
O 	O 	0.25170 0.65780 0.61470 -0.57600
O 	O 	0.55320 0.17260 0.49900 -0.44500
O 	O 	0.25170 0.38530 0.34220 -0.57600
O 	O 	0.38060 0.32840 0.17260 -0.45400
O 	O 	0.99460 0.81820 0.58740 -0.54400
O 	O 	0.59390 0.34220 0.27250 -0.56600
O 	O 	0.99460 0.41260 0.18180 -0.54400
O 	O 	0.86640 0.27250 0.38530 -0.54300
O 	O 	0.38060 0.82740 0.67160 -0.45700
O 	O 	0.05220 0.49900 0.32840 -0.47100
