data_crystal

_cell_length_a 6.76130
_cell_length_b 15.06630
_cell_length_c 15.06630
_cell_angle_alpha 62.19690
_cell_angle_beta  81.39690
_cell_angle_gamma 98.60310

_symmetry_space_group_name_	'P 1'
_symmetry_space_group_name_H-M	'P 1'

loop_
_symmetry_equiv_pos_as_xyz
  x,y,z

loop_
_atom_site_label
_atom_site_type_symbol
_atom_site_fract_x
_atom_site_fract_y
_atom_site_fract_z
_atom_site_charge
Ni	Ni	0.11620 0.71900 0.69940 1.09000
Ni	Ni	0.81560 0.69940 0.58160 1.10500
Ni	Ni	0.39720 0.58160 0.71900 1.09800
Ni	Ni	0.39720 0.28100 0.41840 1.09900
Ni	Ni	0.11620 0.30060 0.28100 1.09400
Ni	Ni	0.81560 0.41840 0.30060 1.10600
H 	H 	0.72400 0.49500 0.50500 0.26800
H 	H 	0.52800 0.43000 -0.00000 -0.02800
H 	H 	0.52800 0.00000 0.57000 -0.03000
H 	H 	0.22900 0.50500 -0.00000 0.26200
H 	H 	0.22900 0.00000 0.49500 0.26400
H 	H 	0.09800 0.57000 0.43000 -0.03400
C 	C 	0.05050 0.09350 0.46100 0.59700
C 	C 	0.19490 0.45540 0.35770 0.42400
C 	C 	0.73950 0.18690 0.45540 0.42300
C 	C 	0.51150 0.55450 0.53900 0.61600
C 	C 	0.19490 0.64230 0.54460 0.42300
C 	C 	0.23960 0.55290 0.44710 0.30300
C 	C 	0.73950 0.54460 0.81310 0.42100
C 	C 	0.29610 0.57470 0.51540 -0.39200
C 	C 	0.68670 0.00000 0.55290 0.32500
C 	C 	0.05050 0.53900 0.90650 0.57900
C 	C 	0.81150 0.51540 0.90990 -0.37900
C 	C 	0.81150 0.09010 0.48460 -0.37500
C 	C 	0.72140 0.42530 0.09010 -0.38900
C 	C 	0.08790 0.00000 0.49230 -0.70400
C 	C 	0.08790 0.50770 -0.00000 -0.70100
C 	C 	0.95700 0.90650 0.55450 0.62100
C 	C 	0.55260 0.81310 0.64230 0.42900
C 	C 	0.95700 0.44550 0.09350 0.63100
C 	C 	0.58020 0.49230 0.50770 -0.70300
C 	C 	0.51150 0.46100 0.44550 0.61600
C 	C 	0.72140 0.90990 0.57470 -0.41000
C 	C 	0.55260 0.35770 0.18690 0.42600
C 	C 	0.29610 0.48460 0.42530 -0.39200
C 	C 	0.68670 0.44710 -0.00000 0.31200
O 	O 	0.15970 0.59360 0.82550 -0.63900
O 	O 	0.37290 0.82780 0.66810 -0.46000
O 	O 	0.37290 0.33190 0.17220 -0.45000
O 	O 	0.54510 0.50410 0.82780 -0.45200
O 	O 	0.98520 0.82550 0.58090 -0.63500
O 	O 	0.98520 0.41910 0.17450 -0.63500
O 	O 	0.87960 0.27020 0.38240 -0.56300
O 	O 	0.60940 0.34740 0.27020 -0.57400
O 	O 	0.56610 0.58090 0.59360 -0.64000
O 	O 	0.54510 0.17220 0.49590 -0.44700
O 	O 	0.56610 0.40640 0.41910 -0.64000
O 	O 	0.26200 0.38240 0.34740 -0.57900
O 	O 	0.04100 0.49590 0.33190 -0.46000
O 	O 	0.04100 0.66810 0.50410 -0.46100
O 	O 	0.15970 0.17450 0.40640 -0.64000
O 	O 	0.26200 0.65260 0.61760 -0.58000
O 	O 	0.87960 0.61760 0.72980 -0.56300
O 	O 	0.60940 0.72980 0.65260 -0.57700
