data_crystal

_cell_length_a 6.77670
_cell_length_b 15.09990
_cell_length_c 15.09990
_cell_angle_alpha 62.19710
_cell_angle_beta  81.39650
_cell_angle_gamma 98.60350

_symmetry_space_group_name_	'P 1'
_symmetry_space_group_name_H-M	'P 1'

loop_
_symmetry_equiv_pos_as_xyz
  x,y,z

loop_
_atom_site_label
_atom_site_type_symbol
_atom_site_fract_x
_atom_site_fract_y
_atom_site_fract_z
_atom_site_charge
Co	Co	0.39250 0.57800 0.72050 1.16300
Co	Co	0.81450 0.42200 0.29850 1.17500
Co	Co	0.11300 0.29850 0.27950 1.14900
Co	Co	0.11300 0.72050 0.70150 1.14700
Co	Co	0.81450 0.70150 0.57800 1.17600
Co	Co	0.39250 0.27950 0.42200 1.16400
H 	H 	0.53650 0.00000 0.57150 -0.02700
H 	H 	0.53650 0.42850 -0.00000 -0.02400
H 	H 	0.24285 0.51955 -0.00000 0.12500
H 	H 	0.10800 0.57150 0.42850 -0.03700
H 	H 	0.72330 0.48045 0.51955 0.13300
H 	H 	0.24285 0.00000 0.48045 0.12700
C 	C 	0.55170 0.35480 0.18790 0.40200
C 	C 	0.31660 0.58820 0.50460 -0.32400
C 	C 	0.94050 0.43860 0.09410 0.37600
C 	C 	0.82120 0.50460 0.90720 -0.26500
C 	C 	0.31660 0.49540 0.41180 -0.32300
C 	C 	0.73960 0.18790 0.45730 0.39000
C 	C 	0.67500 0.00000 0.55680 0.22600
C 	C 	0.82120 0.09280 0.49540 -0.27100
C 	C 	0.73960 0.54270 0.81210 0.38700
C 	C 	0.23180 0.55680 0.44320 0.22400
C 	C 	0.94050 0.90590 0.56140 0.37100
C 	C 	0.50190 0.56140 0.53270 0.33700
C 	C 	0.67500 0.44320 -0.00000 0.20700
C 	C 	0.19690 0.64520 0.54270 0.39800
C 	C 	0.72840 0.41180 0.09280 -0.31600
C 	C 	0.55170 0.81210 0.64520 0.40400
C 	C 	0.03460 0.53270 0.90590 0.28900
C 	C 	0.08235 0.50305 -0.00000 -0.37100
C 	C 	0.72840 0.90720 0.58820 -0.33000
C 	C 	0.03460 0.09410 0.46730 0.29300
C 	C 	0.50190 0.46730 0.43860 0.33700
C 	C 	0.19690 0.45730 0.35480 0.39800
C 	C 	0.08235 0.00000 0.49695 -0.36600
C 	C 	0.57930 0.49695 0.50305 -0.33400
O 	O 	0.54800 0.17880 0.49920 -0.44800
O 	O 	0.17840 0.59830 0.81790 -0.54300
O 	O 	0.59440 0.34250 0.27370 -0.57700
O 	O 	0.17840 0.18210 0.40170 -0.54200
O 	O 	0.59440 0.72630 0.65750 -0.57800
O 	O 	0.99630 0.81790 0.58380 -0.52700
O 	O 	0.25190 0.38380 0.34250 -0.58600
O 	O 	0.86810 0.61620 0.72630 -0.55200
O 	O 	0.04720 0.67800 0.50080 -0.47500
O 	O 	0.86810 0.27370 0.38380 -0.55300
O 	O 	0.54800 0.50080 0.82120 -0.44800
O 	O 	0.36920 0.32200 0.17880 -0.45700
O 	O 	0.58010 0.40170 0.41620 -0.53800
O 	O 	0.36920 0.82120 0.67800 -0.46100
O 	O 	0.25190 0.65750 0.61620 -0.58600
O 	O 	0.04720 0.49920 0.32200 -0.47400
O 	O 	0.99630 0.41620 0.18210 -0.52600
O 	O 	0.58010 0.58380 0.59830 -0.53900
