data_crystal

_cell_length_a 15.74500
_cell_length_b 26.50600
_cell_length_c 27.76500
_cell_angle_alpha 86.97600
_cell_angle_beta  84.13900
_cell_angle_gamma 88.30200

_symmetry_space_group_name_	'P 1'
_symmetry_space_group_name_H-M	'P 1'

loop_
_symmetry_equiv_pos_as_xyz
  x,y,z

loop_
_atom_site_label
_atom_site_type_symbol
_atom_site_fract_x
_atom_site_fract_y
_atom_site_fract_z
_atom_site_charge
Mo	Mo	0.27954 0.34579 0.30859 1.05400
Mo	Mo	0.19386 0.39765 0.37546 1.05600
Mo	Mo	0.56797 0.32511 0.41324 1.10500
Mo	Mo	0.49992 0.49372 0.25165 1.05700
Mo	Mo	0.45790 0.40227 0.23768 1.05400
Mo	Mo	0.28656 0.42446 0.48428 1.05600
Mo	Mo	0.48520 0.30225 0.31731 1.10500
Mo	Mo	0.39628 0.56817 0.33712 1.10800
Mo	Mo	0.23804 0.51875 0.40113 1.10000
Mo	Mo	0.44320 0.39393 0.49542 1.14800
Mo	Mo	0.59391 0.52060 0.36014 1.05000
Mo	Mo	0.61798 0.44819 0.42531 1.04000
Mo	Mo	0.78216 0.83215 0.10182 1.04800
Mo	Mo	0.70086 0.80124 0.18397 1.05500
Mo	Mo	0.48288 0.80570 0.20825 1.10700
Mo	Mo	0.79472 0.95548 0.06072 1.09500
Mo	Mo	0.59426 0.89124 0.26340 1.05900
Mo	Mo	0.66508 0.88132 0.00338 1.03800
Mo	Mo	0.39490 0.97546 0.09299 1.04300
Mo	Mo	0.59861 0.98705 0.23739 1.06000
Mo	Mo	0.70043 0.03534 0.13065 1.10100
Mo	Mo	0.48138 0.03641 0.13947 1.04400
Mo	Mo	0.49812 0.88670 0.01629 1.04000
Mo	Mo	0.37881 0.84834 0.12199 1.10400
Zn	Zn	0.34789 0.30713 0.42449 1.22400
Zn	Zn	0.27609 0.48316 0.28166 1.22300
Zn	Zn	0.63795 0.39759 0.30772 1.22000
Zn	Zn	0.42696 0.52829 0.45733 1.21000
Zn	Zn	0.60148 0.00870 0.02681 1.19900
Zn	Zn	0.39870 0.92919 0.21538 1.22300
Zn	Zn	0.56848 0.78421 0.08931 1.22100
Zn	Zn	0.78892 0.92782 0.18548 1.21800
C 	C 	0.98440 0.08680 0.47820 0.02000
C 	C 	0.97630 0.05770 0.43850 -0.10000
H 	H 	0.01040 0.06390 0.40960 0.05800
C 	C 	0.91590 0.01840 0.44240 0.03200
C 	C 	0.87260 0.00710 0.48400 -0.09700
H 	H 	0.83790 0.97910 0.48650 0.05600
C 	C 	0.87610 0.03540 0.52490 0.01000
C 	C 	0.93380 0.07710 0.51970 -0.09100
H 	H 	0.93620 0.09780 0.54550 0.05300
C 	C 	0.04430 0.13000 0.47430 0.06400
C 	C 	0.02080 0.17390 0.49500 -0.14700
H 	H 	0.96710 0.17680 0.51200 0.06400
C 	C 	0.07390 0.21450 0.49160 0.05700
H 	H 	0.05510 0.24470 0.50510 0.00200
C 	C 	0.15470 0.21030 0.46830 -0.14600
C 	C 	0.17840 0.16440 0.44610 0.06700
H 	H 	0.23170 0.16130 0.42860 0.00300
C 	C 	0.12630 0.12610 0.44990 -0.15500
H 	H 	0.14430 0.09590 0.43620 0.07900
C 	C 	0.21000 0.25600 0.46330 0.35100
C 	C 	0.90960 0.98970 0.39820 0.03600
C 	C 	0.88700 0.93990 0.40030 -0.11300
H 	H 	0.88040 0.92290 0.43060 0.06400
C 	C 	0.87330 0.91320 0.36020 0.01700
H 	H 	0.85880 0.87930 0.36310 0.02100
C 	C 	0.88240 0.94020 0.31450 -0.11800
C 	C 	0.90810 0.98840 0.31000 0.02500
H 	H 	0.91480 0.00570 0.27990 0.01000
C 	C 	0.92440 0.01180 0.35260 -0.11400
H 	H 	0.94660 0.04410 0.34950 0.05400
C 	C 	0.85690 0.91420 0.27140 0.31700
C 	C 	0.82600 0.02560 0.57250 0.08200
C 	C 	0.74930 0.00430 0.57730 -0.16500
H 	H 	0.72740 0.99270 0.55020 0.07300
C 	C 	0.70190 0.99910 0.62220 0.07600
H 	H 	0.64920 0.98380 0.62460 -0.00900
C 	C 	0.73140 0.01630 0.66320 -0.17000
C 	C 	0.81060 0.03460 0.65850 0.09100
H 	H 	0.83340 0.04480 0.68590 -0.00200
C 	C 	0.85910 0.03870 0.61440 -0.16800
H 	H 	0.91450 0.05030 0.61270 0.08700
C 	C 	0.67520 0.01520 0.71030 0.37200
C 	C 	0.04700 0.58710 0.95040 0.03100
C 	C 	0.96800 0.61330 0.95660 -0.10500
H 	H 	0.94660 0.63000 0.93000 0.05800
C 	C 	0.92260 0.61450 0.00050 0.01700
C 	C 	0.95780 0.59040 0.04060 -0.10300
H 	H 	0.92710 0.59060 0.07110 0.05500
C 	C 	0.03770 0.56630 0.03550 0.02800
C 	C 	0.07990 0.56350 0.98960 -0.10700
H 	H 	0.13120 0.54520 0.98530 0.06300
C 	C 	0.09360 0.58520 0.90050 0.04800
C 	C 	0.12980 0.53890 0.88560 -0.12000
H 	H 	0.12290 0.50980 0.90580 0.06800
C 	C 	0.17630 0.53720 0.84010 0.03500
H 	H 	0.19740 0.50620 0.82940 0.01700
C 	C 	0.19170 0.57980 0.81090 -0.12300
C 	C 	0.15540 0.62480 0.82670 0.03400
H 	H 	0.16350 0.65410 0.80700 0.01100
C 	C 	0.10630 0.62750 0.87190 -0.12400
H 	H 	0.08280 0.65830 0.88190 0.05600
C 	C 	0.24320 0.57610 0.76230 0.32600
C 	C 	0.83360 0.63620 0.00710 0.06800
C 	C 	0.77320 0.62740 0.97780 -0.16500
H 	H 	0.78710 0.60620 0.95230 0.08000
C 	C 	0.69380 0.64790 0.98340 0.08500
H 	H 	0.65670 0.64260 0.96020 0.00000
C 	C 	0.66530 0.67680 0.02280 -0.18300
C 	C 	0.72970 0.68630 0.05210 0.08500
H 	H 	0.71560 0.70760 0.07740 -0.03900
C 	C 	0.80950 0.66760 0.04710 -0.16600
H 	H 	0.84840 0.67470 0.06870 0.05600
C 	C 	0.57890 0.69820 0.02780 0.34600
C 	C 	0.07400 0.54160 0.07860 0.04900
C 	C 	0.06450 0.56290 0.12290 -0.12600
H 	H 	0.03160 0.59250 0.12650 0.05500
C 	C 	0.10190 0.54200 0.16220 0.05000
H 	H 	0.09180 0.55610 0.19230 0.00700
C 	C 	0.15250 0.50170 0.15660 -0.12400
C 	C 	0.16470 0.47820 0.11340 0.04500
H 	H 	0.19830 0.44880 0.11060 0.01500
C 	C 	0.12700 0.49860 0.07480 -0.12300
H 	H 	0.13680 0.48350 0.04520 0.07100
C 	C 	0.20140 0.48020 0.19780 0.31800
O 	O 	0.63820 0.45080 0.35370 -0.73100
O 	O 	0.39170 0.46100 0.48550 -0.75700
O 	O 	0.46090 0.30090 0.38880 -0.71100
O 	O 	0.35440 0.54710 0.40680 -0.70800
O 	O 	0.58260 0.33850 0.34070 -0.70600
O 	O 	0.34860 0.36100 0.47110 -0.70700
O 	O 	0.29160 0.52890 0.33240 -0.71400
O 	O 	0.55740 0.42840 0.26260 -0.71500
O 	O 	0.26970 0.33880 0.37920 -0.72200
O 	O 	0.55690 0.42820 0.49040 -0.67700
O 	O 	0.23870 0.41690 0.30910 -0.72000
O 	O 	0.64430 0.37450 0.41810 -0.59900
O 	O 	0.59770 0.52100 0.28440 -0.48300
O 	O 	0.54180 0.50720 0.42640 -0.74600
O 	O 	0.33800 0.36900 0.24210 -0.47800
O 	O 	0.42980 0.38000 0.55500 -0.28600
O 	O 	0.24000 0.49180 0.46280 -0.61800
O 	O 	0.19120 0.39380 0.44960 -0.48900
O 	O 	0.50200 0.57410 0.35690 -0.57400
O 	O 	0.43140 0.55370 0.27510 -0.59500
O 	O 	0.38840 0.46390 0.24850 -0.71700
O 	O 	0.50900 0.33070 0.47240 -0.55200
O 	O 	0.16990 0.47160 0.37920 -0.59700
O 	O 	0.50810 0.33480 0.25740 -0.57900
O 	O 	0.37170 0.29280 0.31240 -0.58700
O 	O 	0.28890 0.24730 0.44460 -0.48300
O 	O 	0.18260 0.29560 0.47630 -0.34800
O 	O 	0.26170 0.53260 0.74890 -0.33400
O 	O 	0.26700 0.61690 0.74060 -0.48200
O 	O 	0.20150 0.50780 0.23390 -0.47700
O 	O 	0.23860 0.43710 0.19570 -0.31200
O 	O 	0.49690 0.01390 0.07360 -0.77700
O 	O 	0.50570 0.93960 0.24470 -0.71900
O 	O 	0.41390 0.94540 0.02810 -0.72800
O 	O 	0.58550 0.93900 0.00810 -0.77500
O 	O 	0.69940 0.00780 0.06460 -0.73000
O 	O 	0.50560 0.83980 0.26030 -0.59200
O 	O 	0.40200 0.86230 0.19020 -0.70900
O 	O 	0.68590 0.93360 0.23240 -0.71800
O 	O 	0.67800 0.79290 0.11630 -0.72800
O 	O 	0.68530 0.02790 0.19650 -0.59400
O 	O 	0.50760 0.03510 0.21120 -0.48600
O 	O 	0.47480 0.80110 0.13750 -0.70900
O 	O 	0.33180 0.91280 0.11730 -0.59400
O 	O 	0.41360 0.84360 0.05820 -0.59900
O 	O 	0.75480 0.83090 0.03050 -0.51000
O 	O 	0.84570 0.89550 0.08180 -0.59700
O 	O 	0.57990 0.83500 0.03460 -0.74300
O 	O 	0.40670 0.98080 0.16150 -0.73500
O 	O 	0.75380 0.93350 0.00690 -0.62600
O 	O 	0.77810 0.85630 0.16650 -0.73100
O 	O 	0.58760 0.77290 0.20090 -0.59300
O 	O 	0.59650 0.06580 0.12420 -0.61700
O 	O 	0.78160 0.97470 0.13000 -0.71800
O 	O 	0.68160 0.83380 0.25180 -0.47400
O 	O 	0.68960 0.05180 0.73590 -0.49700
O 	O 	0.62290 0.98290 0.72130 -0.34400
O 	O 	0.55140 0.71900 0.06760 -0.48500
O 	O 	0.51740 0.67430 0.01070 -0.11700
O 	O 	0.82320 0.87070 0.27590 -0.30900
O 	O 	0.87020 0.93800 0.23090 -0.48400
O 	O 	0.47900 0.38070 0.54820 -0.24200
O 	O 	0.53280 0.69550 0.99070 -0.19500
Mo	Mo	0.72046 0.65421 0.69141 1.05300
Mo	Mo	0.80614 0.60235 0.62454 1.05500
Mo	Mo	0.43203 0.67489 0.58676 1.10500
Mo	Mo	0.50008 0.50628 0.74835 1.05700
Mo	Mo	0.54210 0.59773 0.76232 1.05400
Mo	Mo	0.71344 0.57554 0.51572 1.05600
Mo	Mo	0.51480 0.69775 0.68269 1.10500
Mo	Mo	0.60372 0.43183 0.66288 1.10800
Mo	Mo	0.76196 0.48125 0.59887 1.10000
Mo	Mo	0.55680 0.60607 0.50458 1.14800
Mo	Mo	0.40609 0.47940 0.63986 1.05000
Mo	Mo	0.38202 0.55181 0.57469 1.04000
Mo	Mo	0.21784 0.16785 0.89818 1.04800
Mo	Mo	0.29914 0.19876 0.81603 1.05500
Mo	Mo	0.51712 0.19430 0.79175 1.10700
Mo	Mo	0.20528 0.04452 0.93928 1.09500
Mo	Mo	0.40574 0.10876 0.73660 1.05900
Mo	Mo	0.33492 0.11868 0.99662 1.03800
Mo	Mo	0.60510 0.02454 0.90701 1.04300
Mo	Mo	0.40139 0.01295 0.76261 1.06000
Mo	Mo	0.29957 0.96466 0.86935 1.10100
Mo	Mo	0.51862 0.96359 0.86053 1.04400
Mo	Mo	0.50188 0.11330 0.98371 1.04000
Mo	Mo	0.62119 0.15166 0.87801 1.10400
Zn	Zn	0.65211 0.69287 0.57551 1.22400
Zn	Zn	0.72391 0.51684 0.71834 1.22300
Zn	Zn	0.36205 0.60241 0.69228 1.22000
Zn	Zn	0.57304 0.47171 0.54267 1.21000
Zn	Zn	0.39852 0.99130 0.97319 1.19900
Zn	Zn	0.60130 0.07081 0.78462 1.22300
Zn	Zn	0.43152 0.21579 0.91069 1.22100
Zn	Zn	0.21108 0.07218 0.81452 1.21800
C 	C 	0.01560 0.91320 0.52180 0.02000
C 	C 	0.02370 0.94230 0.56150 -0.10000
H 	H 	0.98960 0.93610 0.59040 0.05800
C 	C 	0.08410 0.98160 0.55760 0.03200
C 	C 	0.12740 0.99290 0.51600 -0.09700
H 	H 	0.16210 0.02090 0.51350 0.05600
C 	C 	0.12390 0.96460 0.47510 0.01000
C 	C 	0.06620 0.92290 0.48030 -0.09100
H 	H 	0.06380 0.90220 0.45450 0.05300
C 	C 	0.95570 0.87000 0.52570 0.06400
C 	C 	0.97920 0.82610 0.50500 -0.14700
H 	H 	0.03290 0.82320 0.48800 0.06400
C 	C 	0.92610 0.78550 0.50840 0.05700
H 	H 	0.94490 0.75530 0.49490 0.00200
C 	C 	0.84530 0.78970 0.53170 -0.14600
C 	C 	0.82160 0.83560 0.55390 0.06700
H 	H 	0.76830 0.83870 0.57140 0.00300
C 	C 	0.87370 0.87390 0.55010 -0.15500
H 	H 	0.85570 0.90410 0.56380 0.07900
C 	C 	0.79000 0.74400 0.53670 0.35100
C 	C 	0.09040 0.01030 0.60180 0.03600
C 	C 	0.11300 0.06010 0.59970 -0.11300
H 	H 	0.11960 0.07710 0.56940 0.06400
C 	C 	0.12670 0.08680 0.63980 0.01700
H 	H 	0.14120 0.12070 0.63690 0.02100
C 	C 	0.11760 0.05980 0.68550 -0.11800
C 	C 	0.09190 0.01160 0.69000 0.02500
H 	H 	0.08520 0.99430 0.72010 0.01000
C 	C 	0.07560 0.98820 0.64740 -0.11400
H 	H 	0.05340 0.95590 0.65050 0.05400
C 	C 	0.14310 0.08580 0.72860 0.31700
C 	C 	0.17400 0.97440 0.42750 0.08200
C 	C 	0.25070 0.99570 0.42270 -0.16500
H 	H 	0.27260 0.00730 0.44980 0.07300
C 	C 	0.29810 0.00090 0.37780 0.07600
H 	H 	0.35080 0.01620 0.37540 -0.00900
C 	C 	0.26860 0.98370 0.33680 -0.17000
C 	C 	0.18940 0.96540 0.34150 0.09100
H 	H 	0.16660 0.95520 0.31410 -0.00200
C 	C 	0.14090 0.96130 0.38560 -0.16800
H 	H 	0.08550 0.94970 0.38730 0.08700
C 	C 	0.32480 0.98480 0.28970 0.37200
C 	C 	0.95300 0.41290 0.04960 0.03100
C 	C 	0.03200 0.38670 0.04340 -0.10500
H 	H 	0.05340 0.37000 0.07000 0.05800
C 	C 	0.07740 0.38550 0.99950 0.01700
C 	C 	0.04220 0.40960 0.95940 -0.10300
H 	H 	0.07290 0.40940 0.92890 0.05500
C 	C 	0.96230 0.43370 0.96450 0.02800
C 	C 	0.92010 0.43650 0.01040 -0.10700
H 	H 	0.86880 0.45480 0.01470 0.06300
C 	C 	0.90640 0.41480 0.09950 0.04800
C 	C 	0.87020 0.46110 0.11440 -0.12000
H 	H 	0.87710 0.49020 0.09420 0.06800
C 	C 	0.82370 0.46280 0.15990 0.03500
H 	H 	0.80260 0.49380 0.17060 0.01700
C 	C 	0.80830 0.42020 0.18910 -0.12300
C 	C 	0.84460 0.37520 0.17330 0.03400
H 	H 	0.83650 0.34590 0.19300 0.01100
C 	C 	0.89370 0.37250 0.12810 -0.12400
H 	H 	0.91720 0.34170 0.11810 0.05600
C 	C 	0.75680 0.42390 0.23770 0.32600
C 	C 	0.16640 0.36380 0.99290 0.06800
C 	C 	0.22680 0.37260 0.02220 -0.16500
H 	H 	0.21290 0.39380 0.04770 0.08000
C 	C 	0.30620 0.35210 0.01660 0.08500
H 	H 	0.34330 0.35740 0.03980 0.00000
C 	C 	0.33470 0.32320 0.97720 -0.18300
C 	C 	0.27030 0.31370 0.94790 0.08500
H 	H 	0.28440 0.29240 0.92260 -0.03900
C 	C 	0.19050 0.33240 0.95290 -0.16600
H 	H 	0.15160 0.32530 0.93130 0.05600
C 	C 	0.42110 0.30180 0.97220 0.34600
C 	C 	0.92600 0.45840 0.92140 0.04900
C 	C 	0.93550 0.43710 0.87710 -0.12600
H 	H 	0.96840 0.40750 0.87350 0.05500
C 	C 	0.89810 0.45800 0.83780 0.05000
H 	H 	0.90820 0.44390 0.80770 0.00700
C 	C 	0.84750 0.49830 0.84340 -0.12400
C 	C 	0.83530 0.52180 0.88660 0.04500
H 	H 	0.80170 0.55120 0.88940 0.01500
C 	C 	0.87300 0.50140 0.92520 -0.12300
H 	H 	0.86320 0.51650 0.95480 0.07100
C 	C 	0.79860 0.51980 0.80220 0.31800
O 	O 	0.36180 0.54920 0.64630 -0.73100
O 	O 	0.60830 0.53900 0.51450 -0.75700
O 	O 	0.53910 0.69910 0.61120 -0.71100
O 	O 	0.64560 0.45290 0.59320 -0.70800
O 	O 	0.41740 0.66150 0.65930 -0.70600
O 	O 	0.65140 0.63900 0.52890 -0.70700
O 	O 	0.70840 0.47110 0.66760 -0.71400
O 	O 	0.44260 0.57160 0.73740 -0.71500
O 	O 	0.73030 0.66120 0.62080 -0.72200
O 	O 	0.44310 0.57180 0.50960 -0.67700
O 	O 	0.76130 0.58310 0.69090 -0.72000
O 	O 	0.35570 0.62550 0.58190 -0.59900
O 	O 	0.40230 0.47900 0.71560 -0.48300
O 	O 	0.45820 0.49280 0.57360 -0.74600
O 	O 	0.66200 0.63100 0.75790 -0.47800
O 	O 	0.57020 0.62000 0.44500 -0.28600
O 	O 	0.76000 0.50820 0.53720 -0.61800
O 	O 	0.80880 0.60620 0.55040 -0.48900
O 	O 	0.49800 0.42590 0.64310 -0.57400
O 	O 	0.56860 0.44630 0.72490 -0.59500
O 	O 	0.61160 0.53610 0.75150 -0.71700
O 	O 	0.49100 0.66930 0.52760 -0.55200
O 	O 	0.83010 0.52840 0.62080 -0.59700
O 	O 	0.49190 0.66520 0.74260 -0.57900
O 	O 	0.62830 0.70720 0.68760 -0.58700
O 	O 	0.71110 0.75270 0.55540 -0.48300
O 	O 	0.81740 0.70440 0.52370 -0.34800
O 	O 	0.73830 0.46740 0.25110 -0.33400
O 	O 	0.73300 0.38310 0.25940 -0.48200
O 	O 	0.79850 0.49220 0.76610 -0.47700
O 	O 	0.76140 0.56290 0.80430 -0.31200
O 	O 	0.50310 0.98610 0.92640 -0.77700
O 	O 	0.49430 0.06040 0.75530 -0.71900
O 	O 	0.58610 0.05460 0.97190 -0.72800
O 	O 	0.41450 0.06100 0.99190 -0.77500
O 	O 	0.30060 0.99220 0.93540 -0.73000
O 	O 	0.49440 0.16020 0.73970 -0.59200
O 	O 	0.59800 0.13770 0.80980 -0.70900
O 	O 	0.31410 0.06640 0.76760 -0.71800
O 	O 	0.32200 0.20710 0.88370 -0.72800
O 	O 	0.31470 0.97210 0.80350 -0.59400
O 	O 	0.49240 0.96490 0.78880 -0.48600
O 	O 	0.52520 0.19890 0.86250 -0.70900
O 	O 	0.66820 0.08720 0.88270 -0.59400
O 	O 	0.58640 0.15640 0.94180 -0.59900
O 	O 	0.24520 0.16910 0.96950 -0.51000
O 	O 	0.15430 0.10450 0.91820 -0.59700
O 	O 	0.42010 0.16500 0.96540 -0.74300
O 	O 	0.59330 0.01920 0.83850 -0.73500
O 	O 	0.24620 0.06650 0.99310 -0.62600
O 	O 	0.22190 0.14370 0.83350 -0.73100
O 	O 	0.41240 0.22710 0.79910 -0.59300
O 	O 	0.40350 0.93420 0.87580 -0.61700
O 	O 	0.21840 0.02530 0.87000 -0.71800
O 	O 	0.31840 0.16620 0.74820 -0.47400
O 	O 	0.31040 0.94820 0.26410 -0.49700
O 	O 	0.37710 0.01710 0.27870 -0.34400
O 	O 	0.44860 0.28100 0.93240 -0.48500
O 	O 	0.48260 0.32570 0.98930 -0.11700
O 	O 	0.17680 0.12930 0.72410 -0.30900
O 	O 	0.12980 0.06200 0.76910 -0.48400
O 	O 	0.52100 0.61930 0.45180 -0.24200
O 	O 	0.46720 0.30450 0.00930 -0.19500
