data_crystal

_cell_length_a 18.36900
_cell_length_b 17.30500
_cell_length_c 28.13300
_cell_angle_alpha 90.00000
_cell_angle_beta  91.08300
_cell_angle_gamma 90.00000

_symmetry_space_group_name_	'P 1'
_symmetry_space_group_name_H-M	'P 1'

loop_
_symmetry_equiv_pos_as_xyz
  x,y,z

loop_
_atom_site_label
_atom_site_type_symbol
_atom_site_fract_x
_atom_site_fract_y
_atom_site_fract_z
_atom_site_charge
Cd	Cd	0.44030 0.73761 0.52442 1.21700
Cl	Cl	0.54095 0.62699 0.53146 -0.45800
Cl	Cl	0.34791 0.85010 0.51819 -0.48900
O 	O 	0.58714 0.89425 0.30385 -0.16700
O 	O 	0.77485 0.08448 0.29757 -0.16900
O 	O 	0.76135 0.88547 0.24634 -0.16600
O 	O 	0.58901 0.09099 0.25017 -0.16600
N 	N 	0.51130 0.80560 0.46946 -0.23700
N 	N 	0.88700 0.16510 0.46217 -0.23400
N 	N 	0.86670 0.82120 0.08055 -0.23500
N 	N 	0.50631 0.19810 0.08476 -0.23700
C 	C 	0.47590 0.16000 0.11997 0.11300
H 	H 	0.42590 0.16430 0.12350 -0.01200
C 	C 	0.51440 0.11410 0.15176 -0.19200
H 	H 	0.49060 0.08990 0.17660 0.11500
C 	C 	0.58980 0.10450 0.14626 0.13800
C 	C 	0.57880 0.19190 0.08047 0.10200
H 	H 	0.60130 0.22020 0.05680 -0.00100
C 	C 	0.62110 0.14600 0.10923 -0.18300
H 	H 	0.67090 0.14240 0.10420 0.10100
C 	C 	0.51790 0.88200 0.47479 0.10900
H 	H 	0.49300 0.90590 0.49920 -0.00900
C 	C 	0.56020 0.92710 0.44546 -0.19600
H 	H 	0.56550 0.97970 0.45130 0.11400
C 	C 	0.59440 0.89320 0.40770 0.14900
C 	C 	0.58640 0.81400 0.40172 -0.19200
H 	H 	0.60840 0.78900 0.37650 0.10800
C 	C 	0.54580 0.77280 0.43346 0.11300
H 	H 	0.54220 0.71960 0.42960 -0.00800
C 	C 	0.64090 0.94180 0.37710 -0.09500
C 	C 	0.69290 0.98850 0.39933 0.01300
H 	H 	0.69680 0.98830 0.43230 0.04900
C 	C 	0.73950 0.03570 0.37364 -0.08700
C 	C 	0.73280 0.03620 0.32426 0.13000
C 	C 	0.63590 0.94200 0.32777 0.13000
C 	C 	0.68070 0.98860 0.30097 -0.04600
C 	C 	0.51150 0.91630 0.30876 -0.25900
H 	H 	0.50060 0.92110 0.34190 0.11800
H 	H 	0.48080 0.87760 0.29450 0.12100
H 	H 	0.50320 0.96500 0.29320 0.12400
C 	C 	0.84770 0.05510 0.29053 -0.24200
H 	H 	0.87180 0.04820 0.32080 0.11300
H 	H 	0.87470 0.09120 0.27190 0.10800
H 	H 	0.84500 0.00640 0.27430 0.11800
C 	C 	0.79430 0.08180 0.40128 0.15000
C 	C 	0.83640 0.04530 0.43649 -0.18100
H 	H 	0.83400 0.99200 0.44030 0.12300
C 	C 	0.88140 0.08850 0.46537 0.11300
H 	H 	0.90950 0.06310 0.48840 0.01300
C 	C 	0.84820 0.20020 0.42749 0.10600
H 	H 	0.85240 0.25350 0.42430 -0.01100
C 	C 	0.80240 0.16080 0.39616 -0.17500
H 	H 	0.77750 0.18710 0.37210 0.10400
C 	C 	0.67710 0.98980 0.24813 -0.04700
C 	C 	0.71990 0.93990 0.22193 0.12500
C 	C 	0.72330 0.94520 0.17242 -0.09300
C 	C 	0.67990 0.00060 0.14973 0.00800
H 	H 	0.68160 0.00480 0.11680 0.03300
C 	C 	0.63420 0.04980 0.17450 -0.10000
C 	C 	0.63400 0.04450 0.22383 0.12700
C 	C 	0.61260 0.16910 0.25511 -0.22700
H 	H 	0.65750 0.17060 0.27310 0.11100
H 	H 	0.57630 0.19840 0.27130 0.10600
H 	H 	0.62000 0.19100 0.22420 0.10600
C 	C 	0.72810 0.80960 0.24640 -0.24300
H 	H 	0.68050 0.81290 0.25970 0.11900
H 	H 	0.75770 0.77490 0.26510 0.11000
H 	H 	0.72420 0.79070 0.21440 0.10900
C 	C 	0.77250 0.89780 0.14277 0.13100
C 	C 	0.84420 0.87960 0.15663 -0.17900
H 	H 	0.86170 0.89220 0.18690 0.10300
C 	C 	0.88830 0.84270 0.12465 0.10300
H 	H 	0.93610 0.83200 0.13410 -0.01200
C 	C 	0.79720 0.83590 0.06825 0.09600
H 	H 	0.78020 0.81940 0.03860 0.01000
C 	C 	0.74970 0.87430 0.09741 -0.17500
H 	H 	0.70240 0.88460 0.08680 0.10800
Cd	Cd	0.94030 0.23761 0.52442 1.21800
Cl	Cl	0.04095 0.12699 0.53146 -0.45700
Cl	Cl	0.84791 0.35010 0.51819 -0.48700
O 	O 	0.08714 0.39425 0.30385 -0.16700
O 	O 	0.27485 0.58448 0.29757 -0.16900
O 	O 	0.26135 0.38547 0.24634 -0.16600
O 	O 	0.08901 0.59099 0.25017 -0.16600
N 	N 	0.01130 0.30560 0.46946 -0.23700
N 	N 	0.38700 0.66510 0.46217 -0.23400
N 	N 	0.36670 0.32120 0.08055 -0.23400
N 	N 	0.00631 0.69810 0.08476 -0.23500
C 	C 	0.97590 0.66000 0.11997 0.10900
H 	H 	0.92590 0.66430 0.12350 -0.01000
C 	C 	0.01440 0.61410 0.15176 -0.18700
H 	H 	0.99060 0.58990 0.17660 0.11300
C 	C 	0.08980 0.60450 0.14626 0.13500
C 	C 	0.07880 0.69190 0.08047 0.10000
H 	H 	0.10130 0.72020 0.05680 -0.00100
C 	C 	0.12110 0.64600 0.10923 -0.18100
H 	H 	0.17090 0.64240 0.10420 0.10000
C 	C 	0.01790 0.38200 0.47479 0.10900
H 	H 	0.99300 0.40590 0.49920 -0.00900
C 	C 	0.06020 0.42710 0.44546 -0.19600
H 	H 	0.06550 0.47970 0.45130 0.11400
C 	C 	0.09440 0.39320 0.40770 0.14900
C 	C 	0.08640 0.31400 0.40172 -0.19200
H 	H 	0.10840 0.28900 0.37650 0.10800
C 	C 	0.04580 0.27280 0.43346 0.11300
H 	H 	0.04220 0.21960 0.42960 -0.00800
C 	C 	0.14090 0.44180 0.37710 -0.09500
C 	C 	0.19290 0.48850 0.39933 0.01300
H 	H 	0.19680 0.48830 0.43230 0.04900
C 	C 	0.23950 0.53570 0.37364 -0.08700
C 	C 	0.23280 0.53620 0.32426 0.13000
C 	C 	0.13590 0.44200 0.32777 0.13000
C 	C 	0.18070 0.48860 0.30097 -0.04600
C 	C 	0.01150 0.41630 0.30876 -0.25700
H 	H 	0.00060 0.42110 0.34190 0.11800
H 	H 	0.98080 0.37760 0.29450 0.12000
H 	H 	0.00320 0.46500 0.29320 0.12300
C 	C 	0.34770 0.55510 0.29053 -0.24200
H 	H 	0.37180 0.54820 0.32080 0.11300
H 	H 	0.37470 0.59120 0.27190 0.10800
H 	H 	0.34500 0.50640 0.27430 0.11800
C 	C 	0.29430 0.58180 0.40128 0.15000
C 	C 	0.33640 0.54530 0.43649 -0.18100
H 	H 	0.33400 0.49200 0.44030 0.12300
C 	C 	0.38140 0.58850 0.46537 0.11300
H 	H 	0.40950 0.56310 0.48840 0.01300
C 	C 	0.34820 0.70020 0.42749 0.10600
H 	H 	0.35240 0.75350 0.42430 -0.01100
C 	C 	0.30240 0.66080 0.39616 -0.17500
H 	H 	0.27750 0.68710 0.37210 0.10400
C 	C 	0.17710 0.48980 0.24813 -0.04700
C 	C 	0.21990 0.43990 0.22193 0.12400
C 	C 	0.22330 0.44520 0.17242 -0.09200
C 	C 	0.17990 0.50060 0.14973 0.00700
H 	H 	0.18160 0.50480 0.11680 0.03400
C 	C 	0.13420 0.54980 0.17450 -0.09800
C 	C 	0.13400 0.54450 0.22383 0.12600
C 	C 	0.11260 0.66910 0.25511 -0.22800
H 	H 	0.15750 0.67060 0.27310 0.11100
H 	H 	0.07630 0.69840 0.27130 0.10600
H 	H 	0.12000 0.69100 0.22420 0.10600
C 	C 	0.22810 0.30960 0.24640 -0.24300
H 	H 	0.18050 0.31290 0.25970 0.11900
H 	H 	0.25770 0.27490 0.26510 0.11000
H 	H 	0.22420 0.29070 0.21440 0.10900
C 	C 	0.27250 0.39780 0.14277 0.13100
C 	C 	0.34420 0.37960 0.15663 -0.17900
H 	H 	0.36170 0.39220 0.18690 0.10300
C 	C 	0.38830 0.34270 0.12465 0.10400
H 	H 	0.43610 0.33200 0.13410 -0.01100
C 	C 	0.29720 0.33590 0.06825 0.09600
H 	H 	0.28020 0.31940 0.03860 0.01000
C 	C 	0.24970 0.37430 0.09741 -0.17500
H 	H 	0.20240 0.38460 0.08680 0.10800
Cd	Cd	0.44030 0.26239 0.02442 1.21800
Cl	Cl	0.54095 0.37301 0.03146 -0.45700
Cl	Cl	0.34791 0.14990 0.01819 -0.48700
O 	O 	0.58714 0.10575 0.80385 -0.16600
O 	O 	0.77485 0.91552 0.79757 -0.16900
O 	O 	0.76135 0.11453 0.74634 -0.16600
O 	O 	0.58901 0.90901 0.75017 -0.16600
N 	N 	0.51130 0.19440 0.96946 -0.23700
N 	N 	0.88700 0.83490 0.96217 -0.23400
N 	N 	0.86670 0.17880 0.58055 -0.23400
N 	N 	0.50631 0.80190 0.58476 -0.23700
C 	C 	0.47590 0.84000 0.61997 0.11300
H 	H 	0.42590 0.83570 0.62350 -0.01200
C 	C 	0.51440 0.88590 0.65176 -0.19200
H 	H 	0.49060 0.91010 0.67660 0.11500
C 	C 	0.58980 0.89550 0.64626 0.13800
C 	C 	0.57880 0.80810 0.58047 0.10200
H 	H 	0.60130 0.77980 0.55680 -0.00100
C 	C 	0.62110 0.85400 0.60923 -0.18300
H 	H 	0.67090 0.85760 0.60420 0.10100
C 	C 	0.51790 0.11800 0.97479 0.10900
H 	H 	0.49300 0.09410 0.99920 -0.00900
C 	C 	0.56020 0.07290 0.94546 -0.19600
H 	H 	0.56550 0.02030 0.95130 0.11400
C 	C 	0.59440 0.10680 0.90770 0.14900
C 	C 	0.58640 0.18600 0.90172 -0.19200
H 	H 	0.60840 0.21100 0.87650 0.10800
C 	C 	0.54580 0.22720 0.93346 0.11300
H 	H 	0.54220 0.28040 0.92960 -0.00800
C 	C 	0.64090 0.05820 0.87710 -0.09500
C 	C 	0.69290 0.01150 0.89933 0.01300
H 	H 	0.69680 0.01170 0.93230 0.04900
C 	C 	0.73950 0.96430 0.87364 -0.08700
C 	C 	0.73280 0.96380 0.82426 0.13000
C 	C 	0.63590 0.05800 0.82777 0.13000
C 	C 	0.68070 0.01140 0.80097 -0.04600
C 	C 	0.51150 0.08370 0.80876 -0.25900
H 	H 	0.50060 0.07890 0.84190 0.11800
H 	H 	0.48080 0.12240 0.79450 0.12100
H 	H 	0.50320 0.03500 0.79320 0.12400
C 	C 	0.84770 0.94490 0.79053 -0.24200
H 	H 	0.87180 0.95180 0.82080 0.11300
H 	H 	0.87470 0.90880 0.77190 0.10900
H 	H 	0.84500 0.99360 0.77430 0.11800
C 	C 	0.79430 0.91820 0.90128 0.15000
C 	C 	0.83640 0.95470 0.93649 -0.18000
H 	H 	0.83400 0.00800 0.94030 0.12300
C 	C 	0.88140 0.91150 0.96537 0.11300
H 	H 	0.90950 0.93690 0.98840 0.01400
C 	C 	0.84820 0.79980 0.92749 0.10600
H 	H 	0.85240 0.74650 0.92430 -0.01100
C 	C 	0.80240 0.83920 0.89616 -0.17500
H 	H 	0.77750 0.81290 0.87210 0.10400
C 	C 	0.67710 0.01020 0.74813 -0.04700
C 	C 	0.71990 0.06010 0.72193 0.12400
C 	C 	0.72330 0.05480 0.67242 -0.09200
C 	C 	0.67990 0.99940 0.64973 0.00700
H 	H 	0.68160 0.99520 0.61680 0.03400
C 	C 	0.63420 0.95020 0.67450 -0.09900
C 	C 	0.63400 0.95550 0.72383 0.12700
C 	C 	0.61260 0.83090 0.75511 -0.22700
H 	H 	0.65750 0.82940 0.77310 0.11100
H 	H 	0.57630 0.80160 0.77130 0.10600
H 	H 	0.62000 0.80900 0.72420 0.10600
C 	C 	0.72810 0.19040 0.74640 -0.24300
H 	H 	0.68050 0.18710 0.75970 0.11900
H 	H 	0.75770 0.22510 0.76510 0.11000
H 	H 	0.72420 0.20930 0.71440 0.10900
C 	C 	0.77250 0.10220 0.64277 0.13100
C 	C 	0.84420 0.12040 0.65663 -0.17900
H 	H 	0.86170 0.10780 0.68690 0.10300
C 	C 	0.88830 0.15730 0.62465 0.10400
H 	H 	0.93610 0.16800 0.63410 -0.01100
C 	C 	0.79720 0.16410 0.56825 0.09600
H 	H 	0.78020 0.18060 0.53860 0.01000
C 	C 	0.74970 0.12570 0.59741 -0.17500
H 	H 	0.70240 0.11540 0.58680 0.10800
Cd	Cd	0.94030 0.76239 0.02442 1.21700
Cl	Cl	0.04095 0.87301 0.03146 -0.45700
Cl	Cl	0.84791 0.64990 0.01819 -0.48800
O 	O 	0.08714 0.60575 0.80385 -0.16600
O 	O 	0.27485 0.41552 0.79757 -0.16900
O 	O 	0.26135 0.61453 0.74634 -0.16600
O 	O 	0.08901 0.40901 0.75017 -0.16600
N 	N 	0.01130 0.69440 0.96946 -0.23600
N 	N 	0.38700 0.33490 0.96217 -0.23400
N 	N 	0.36670 0.67880 0.58055 -0.23400
N 	N 	0.00631 0.30190 0.58476 -0.23700
C 	C 	0.97590 0.34000 0.61997 0.11500
H 	H 	0.92590 0.33570 0.62350 -0.01200
C 	C 	0.01440 0.38590 0.65176 -0.19400
H 	H 	0.99060 0.41010 0.67660 0.11600
C 	C 	0.08980 0.39550 0.64626 0.13800
C 	C 	0.07880 0.30810 0.58047 0.10200
H 	H 	0.10130 0.27980 0.55680 -0.00200
C 	C 	0.12110 0.35400 0.60923 -0.18400
H 	H 	0.17090 0.35760 0.60420 0.10100
C 	C 	0.01790 0.61800 0.97479 0.10500
H 	H 	0.99300 0.59410 0.99920 -0.00600
C 	C 	0.06020 0.57290 0.94546 -0.19400
H 	H 	0.06550 0.52030 0.95130 0.11300
C 	C 	0.09440 0.60680 0.90770 0.14700
C 	C 	0.08640 0.68600 0.90172 -0.19100
H 	H 	0.10840 0.71100 0.87650 0.10800
C 	C 	0.04580 0.72720 0.93346 0.11200
H 	H 	0.04220 0.78040 0.92960 -0.00800
C 	C 	0.14090 0.55820 0.87710 -0.09500
C 	C 	0.19290 0.51150 0.89933 0.01300
H 	H 	0.19680 0.51170 0.93230 0.04900
C 	C 	0.23950 0.46430 0.87364 -0.08700
C 	C 	0.23280 0.46380 0.82426 0.13000
C 	C 	0.13590 0.55800 0.82777 0.12900
C 	C 	0.18070 0.51140 0.80097 -0.04600
C 	C 	0.01150 0.58370 0.80876 -0.26200
H 	H 	0.00060 0.57890 0.84190 0.11900
H 	H 	0.98080 0.62240 0.79450 0.12200
H 	H 	0.00320 0.53500 0.79320 0.12500
C 	C 	0.34770 0.44490 0.79053 -0.24200
H 	H 	0.37180 0.45180 0.82080 0.11300
H 	H 	0.37470 0.40880 0.77190 0.10800
H 	H 	0.34500 0.49360 0.77430 0.11800
C 	C 	0.29430 0.41820 0.90128 0.15000
C 	C 	0.33640 0.45470 0.93649 -0.18100
H 	H 	0.33400 0.50800 0.94030 0.12300
C 	C 	0.38140 0.41150 0.96537 0.11300
H 	H 	0.40950 0.43690 0.98840 0.01300
C 	C 	0.34820 0.29980 0.92749 0.10600
H 	H 	0.35240 0.24650 0.92430 -0.01100
C 	C 	0.30240 0.33920 0.89616 -0.17500
H 	H 	0.27750 0.31290 0.87210 0.10400
C 	C 	0.17710 0.51020 0.74813 -0.04700
C 	C 	0.21990 0.56010 0.72193 0.12500
C 	C 	0.22330 0.55480 0.67242 -0.09200
C 	C 	0.17990 0.49940 0.64973 0.00800
H 	H 	0.18160 0.49520 0.61680 0.03300
C 	C 	0.13420 0.45020 0.67450 -0.10000
C 	C 	0.13400 0.45550 0.72383 0.12700
C 	C 	0.11260 0.33090 0.75511 -0.22700
H 	H 	0.15750 0.32940 0.77310 0.11100
H 	H 	0.07630 0.30160 0.77130 0.10600
H 	H 	0.12000 0.30900 0.72420 0.10600
C 	C 	0.22810 0.69040 0.74640 -0.24300
H 	H 	0.18050 0.68710 0.75970 0.11900
H 	H 	0.25770 0.72510 0.76510 0.11000
H 	H 	0.22420 0.70930 0.71440 0.10900
C 	C 	0.27250 0.60220 0.64277 0.13100
C 	C 	0.34420 0.62040 0.65663 -0.17900
H 	H 	0.36170 0.60780 0.68690 0.10300
C 	C 	0.38830 0.65730 0.62465 0.10400
H 	H 	0.43610 0.66800 0.63410 -0.01100
C 	C 	0.29720 0.66410 0.56825 0.09600
H 	H 	0.28020 0.68060 0.53860 0.01000
C 	C 	0.24970 0.62570 0.59741 -0.17500
H 	H 	0.20240 0.61540 0.58680 0.10800
Cd	Cd	0.55970 0.73761 0.97558 1.21800
Cl	Cl	0.45905 0.62699 0.96854 -0.45700
Cl	Cl	0.65209 0.85010 0.98181 -0.48700
O 	O 	0.41286 0.89425 0.19615 -0.16600
O 	O 	0.22515 0.08448 0.20243 -0.16900
O 	O 	0.23865 0.88547 0.25366 -0.16600
O 	O 	0.41099 0.09099 0.24983 -0.16600
N 	N 	0.48870 0.80560 0.03054 -0.23700
N 	N 	0.11300 0.16510 0.03783 -0.23400
N 	N 	0.13330 0.82120 0.41945 -0.23400
N 	N 	0.49369 0.19810 0.41524 -0.23700
C 	C 	0.52410 0.16000 0.38003 0.11300
H 	H 	0.57410 0.16430 0.37650 -0.01200
C 	C 	0.48560 0.11410 0.34824 -0.19200
H 	H 	0.50940 0.08990 0.32340 0.11500
C 	C 	0.41020 0.10450 0.35374 0.13800
C 	C 	0.42120 0.19190 0.41953 0.10200
H 	H 	0.39870 0.22020 0.44320 -0.00100
C 	C 	0.37890 0.14600 0.39077 -0.18300
H 	H 	0.32910 0.14240 0.39580 0.10100
C 	C 	0.48210 0.88200 0.02521 0.10900
H 	H 	0.50700 0.90590 0.00080 -0.00900
C 	C 	0.43980 0.92710 0.05454 -0.19600
H 	H 	0.43450 0.97970 0.04870 0.11400
C 	C 	0.40560 0.89320 0.09230 0.14900
C 	C 	0.41360 0.81400 0.09828 -0.19200
H 	H 	0.39160 0.78900 0.12350 0.10800
C 	C 	0.45420 0.77280 0.06654 0.11300
H 	H 	0.45780 0.71960 0.07040 -0.00800
C 	C 	0.35910 0.94180 0.12290 -0.09500
C 	C 	0.30710 0.98850 0.10067 0.01300
H 	H 	0.30320 0.98830 0.06770 0.04900
C 	C 	0.26050 0.03570 0.12636 -0.08700
C 	C 	0.26720 0.03620 0.17574 0.13000
C 	C 	0.36410 0.94200 0.17223 0.13000
C 	C 	0.31930 0.98860 0.19903 -0.04600
C 	C 	0.48850 0.91630 0.19124 -0.25900
H 	H 	0.49940 0.92110 0.15810 0.11800
H 	H 	0.51920 0.87760 0.20550 0.12100
H 	H 	0.49680 0.96500 0.20680 0.12400
C 	C 	0.15230 0.05510 0.20947 -0.24200
H 	H 	0.12820 0.04820 0.17920 0.11300
H 	H 	0.12530 0.09120 0.22810 0.10900
H 	H 	0.15500 0.00640 0.22570 0.11800
C 	C 	0.20570 0.08180 0.09872 0.15000
C 	C 	0.16360 0.04530 0.06351 -0.18000
H 	H 	0.16600 0.99200 0.05970 0.12300
C 	C 	0.11860 0.08850 0.03463 0.11300
H 	H 	0.09050 0.06310 0.01160 0.01400
C 	C 	0.15180 0.20020 0.07251 0.10600
H 	H 	0.14760 0.25350 0.07570 -0.01100
C 	C 	0.19760 0.16080 0.10384 -0.17500
H 	H 	0.22250 0.18710 0.12790 0.10400
C 	C 	0.32290 0.98980 0.25187 -0.04700
C 	C 	0.28010 0.93990 0.27807 0.12400
C 	C 	0.27670 0.94520 0.32758 -0.09200
C 	C 	0.32010 0.00060 0.35027 0.00700
H 	H 	0.31840 0.00480 0.38320 0.03400
C 	C 	0.36580 0.04980 0.32550 -0.09900
C 	C 	0.36600 0.04450 0.27617 0.12700
C 	C 	0.38740 0.16910 0.24489 -0.22700
H 	H 	0.34250 0.17060 0.22690 0.11100
H 	H 	0.42370 0.19840 0.22870 0.10600
H 	H 	0.38000 0.19100 0.27580 0.10600
C 	C 	0.27190 0.80960 0.25360 -0.24300
H 	H 	0.31950 0.81290 0.24030 0.11900
H 	H 	0.24230 0.77490 0.23490 0.11000
H 	H 	0.27580 0.79070 0.28560 0.10900
C 	C 	0.22750 0.89780 0.35723 0.13100
C 	C 	0.15580 0.87960 0.34337 -0.17900
H 	H 	0.13830 0.89220 0.31310 0.10300
C 	C 	0.11170 0.84270 0.37535 0.10400
H 	H 	0.06390 0.83200 0.36590 -0.01100
C 	C 	0.20280 0.83590 0.43175 0.09600
H 	H 	0.21980 0.81940 0.46140 0.01000
C 	C 	0.25030 0.87430 0.40259 -0.17500
H 	H 	0.29760 0.88460 0.41320 0.10800
Cd	Cd	0.05970 0.23761 0.97558 1.21700
Cl	Cl	0.95905 0.12699 0.96854 -0.45700
Cl	Cl	0.15209 0.35010 0.98181 -0.48800
O 	O 	0.91286 0.39425 0.19615 -0.16600
O 	O 	0.72515 0.58448 0.20243 -0.16900
O 	O 	0.73865 0.38547 0.25366 -0.16600
O 	O 	0.91099 0.59099 0.24983 -0.16600
N 	N 	0.98870 0.30560 0.03054 -0.23600
N 	N 	0.61300 0.66510 0.03783 -0.23400
N 	N 	0.63330 0.32120 0.41945 -0.23400
N 	N 	0.99369 0.69810 0.41524 -0.23700
C 	C 	0.02410 0.66000 0.38003 0.11500
H 	H 	0.07410 0.66430 0.37650 -0.01200
C 	C 	0.98560 0.61410 0.34824 -0.19400
H 	H 	0.00940 0.58990 0.32340 0.11600
C 	C 	0.91020 0.60450 0.35374 0.13800
C 	C 	0.92120 0.69190 0.41953 0.10200
H 	H 	0.89870 0.72020 0.44320 -0.00200
C 	C 	0.87890 0.64600 0.39077 -0.18400
H 	H 	0.82910 0.64240 0.39580 0.10100
C 	C 	0.98210 0.38200 0.02521 0.10500
H 	H 	0.00700 0.40590 0.00080 -0.00600
C 	C 	0.93980 0.42710 0.05454 -0.19400
H 	H 	0.93450 0.47970 0.04870 0.11300
C 	C 	0.90560 0.39320 0.09230 0.14700
C 	C 	0.91360 0.31400 0.09828 -0.19100
H 	H 	0.89160 0.28900 0.12350 0.10800
C 	C 	0.95420 0.27280 0.06654 0.11200
H 	H 	0.95780 0.21960 0.07040 -0.00800
C 	C 	0.85910 0.44180 0.12290 -0.09500
C 	C 	0.80710 0.48850 0.10067 0.01300
H 	H 	0.80320 0.48830 0.06770 0.04900
C 	C 	0.76050 0.53570 0.12636 -0.08700
C 	C 	0.76720 0.53620 0.17574 0.13000
C 	C 	0.86410 0.44200 0.17223 0.12900
C 	C 	0.81930 0.48860 0.19903 -0.04600
C 	C 	0.98850 0.41630 0.19124 -0.26200
H 	H 	0.99940 0.42110 0.15810 0.11900
H 	H 	0.01920 0.37760 0.20550 0.12200
H 	H 	0.99680 0.46500 0.20680 0.12500
C 	C 	0.65230 0.55510 0.20947 -0.24200
H 	H 	0.62820 0.54820 0.17920 0.11300
H 	H 	0.62530 0.59120 0.22810 0.10800
H 	H 	0.65500 0.50640 0.22570 0.11800
C 	C 	0.70570 0.58180 0.09872 0.15000
C 	C 	0.66360 0.54530 0.06351 -0.18100
H 	H 	0.66600 0.49200 0.05970 0.12300
C 	C 	0.61860 0.58850 0.03463 0.11300
H 	H 	0.59050 0.56310 0.01160 0.01300
C 	C 	0.65180 0.70020 0.07251 0.10600
H 	H 	0.64760 0.75350 0.07570 -0.01100
C 	C 	0.69760 0.66080 0.10384 -0.17500
H 	H 	0.72250 0.68710 0.12790 0.10400
C 	C 	0.82290 0.48980 0.25187 -0.04700
C 	C 	0.78010 0.43990 0.27807 0.12500
C 	C 	0.77670 0.44520 0.32758 -0.09200
C 	C 	0.82010 0.50060 0.35027 0.00800
H 	H 	0.81840 0.50480 0.38320 0.03300
C 	C 	0.86580 0.54980 0.32550 -0.10000
C 	C 	0.86600 0.54450 0.27617 0.12700
C 	C 	0.88740 0.66910 0.24489 -0.22700
H 	H 	0.84250 0.67060 0.22690 0.11100
H 	H 	0.92370 0.69840 0.22870 0.10600
H 	H 	0.88000 0.69100 0.27580 0.10600
C 	C 	0.77190 0.30960 0.25360 -0.24300
H 	H 	0.81950 0.31290 0.24030 0.11900
H 	H 	0.74230 0.27490 0.23490 0.11000
H 	H 	0.77580 0.29070 0.28560 0.10900
C 	C 	0.72750 0.39780 0.35723 0.13100
C 	C 	0.65580 0.37960 0.34337 -0.17900
H 	H 	0.63830 0.39220 0.31310 0.10300
C 	C 	0.61170 0.34270 0.37535 0.10400
H 	H 	0.56390 0.33200 0.36590 -0.01100
C 	C 	0.70280 0.33590 0.43175 0.09600
H 	H 	0.71980 0.31940 0.46140 0.01000
C 	C 	0.75030 0.37430 0.40259 -0.17500
H 	H 	0.79760 0.38460 0.41320 0.10800
Cd	Cd	0.55970 0.26239 0.47558 1.21800
Cl	Cl	0.45905 0.37301 0.46854 -0.45700
Cl	Cl	0.65209 0.14990 0.48181 -0.48800
O 	O 	0.41286 0.10575 0.69615 -0.16600
O 	O 	0.22515 0.91552 0.70243 -0.16900
O 	O 	0.23865 0.11453 0.75366 -0.16600
O 	O 	0.41099 0.90901 0.74983 -0.16600
N 	N 	0.48870 0.19440 0.53054 -0.23700
N 	N 	0.11300 0.83490 0.53783 -0.23400
N 	N 	0.13330 0.17880 0.91945 -0.23500
N 	N 	0.49369 0.80190 0.91524 -0.23700
C 	C 	0.52410 0.84000 0.88003 0.11300
H 	H 	0.57410 0.83570 0.87650 -0.01200
C 	C 	0.48560 0.88590 0.84824 -0.19200
H 	H 	0.50940 0.91010 0.82340 0.11500
C 	C 	0.41020 0.89550 0.85374 0.13800
C 	C 	0.42120 0.80810 0.91953 0.10200
H 	H 	0.39870 0.77980 0.94320 -0.00100
C 	C 	0.37890 0.85400 0.89077 -0.18300
H 	H 	0.32910 0.85760 0.89580 0.10100
C 	C 	0.48210 0.11800 0.52521 0.10900
H 	H 	0.50700 0.09410 0.50080 -0.00900
C 	C 	0.43980 0.07290 0.55454 -0.19600
H 	H 	0.43450 0.02030 0.54870 0.11400
C 	C 	0.40560 0.10680 0.59230 0.14900
C 	C 	0.41360 0.18600 0.59828 -0.19200
H 	H 	0.39160 0.21100 0.62350 0.10800
C 	C 	0.45420 0.22720 0.56654 0.11300
H 	H 	0.45780 0.28040 0.57040 -0.00800
C 	C 	0.35910 0.05820 0.62290 -0.09500
C 	C 	0.30710 0.01150 0.60067 0.01300
H 	H 	0.30320 0.01170 0.56770 0.04900
C 	C 	0.26050 0.96430 0.62636 -0.08700
C 	C 	0.26720 0.96380 0.67574 0.13000
C 	C 	0.36410 0.05800 0.67223 0.13000
C 	C 	0.31930 0.01140 0.69903 -0.04600
C 	C 	0.48850 0.08370 0.69124 -0.25900
H 	H 	0.49940 0.07890 0.65810 0.11800
H 	H 	0.51920 0.12240 0.70550 0.12100
H 	H 	0.49680 0.03500 0.70680 0.12400
C 	C 	0.15230 0.94490 0.70947 -0.24200
H 	H 	0.12820 0.95180 0.67920 0.11300
H 	H 	0.12530 0.90880 0.72810 0.10800
H 	H 	0.15500 0.99360 0.72570 0.11800
C 	C 	0.20570 0.91820 0.59872 0.15000
C 	C 	0.16360 0.95470 0.56351 -0.18100
H 	H 	0.16600 0.00800 0.55970 0.12300
C 	C 	0.11860 0.91150 0.53463 0.11300
H 	H 	0.09050 0.93690 0.51160 0.01300
C 	C 	0.15180 0.79980 0.57251 0.10600
H 	H 	0.14760 0.74650 0.57570 -0.01100
C 	C 	0.19760 0.83920 0.60384 -0.17500
H 	H 	0.22250 0.81290 0.62790 0.10400
C 	C 	0.32290 0.01020 0.75187 -0.04700
C 	C 	0.28010 0.06010 0.77807 0.12500
C 	C 	0.27670 0.05480 0.82758 -0.09300
C 	C 	0.32010 0.99940 0.85027 0.00800
H 	H 	0.31840 0.99520 0.88320 0.03300
C 	C 	0.36580 0.95020 0.82550 -0.10000
C 	C 	0.36600 0.95550 0.77617 0.12700
C 	C 	0.38740 0.83090 0.74489 -0.22700
H 	H 	0.34250 0.82940 0.72690 0.11100
H 	H 	0.42370 0.80160 0.72870 0.10600
H 	H 	0.38000 0.80900 0.77580 0.10600
C 	C 	0.27190 0.19040 0.75360 -0.24300
H 	H 	0.31950 0.18710 0.74030 0.11900
H 	H 	0.24230 0.22510 0.73490 0.11000
H 	H 	0.27580 0.20930 0.78560 0.10900
C 	C 	0.22750 0.10220 0.85723 0.13100
C 	C 	0.15580 0.12040 0.84337 -0.17900
H 	H 	0.13830 0.10780 0.81310 0.10300
C 	C 	0.11170 0.15730 0.87535 0.10300
H 	H 	0.06390 0.16800 0.86590 -0.01200
C 	C 	0.20280 0.16410 0.93175 0.09600
H 	H 	0.21980 0.18060 0.96140 0.01000
C 	C 	0.25030 0.12570 0.90259 -0.17500
H 	H 	0.29760 0.11540 0.91320 0.10800
Cd	Cd	0.05970 0.76239 0.47558 1.21800
Cl	Cl	0.95905 0.87301 0.46854 -0.45700
Cl	Cl	0.15209 0.64990 0.48181 -0.48700
O 	O 	0.91286 0.60575 0.69615 -0.16700
O 	O 	0.72515 0.41552 0.70243 -0.16900
O 	O 	0.73865 0.61453 0.75366 -0.16600
O 	O 	0.91099 0.40901 0.74983 -0.16600
N 	N 	0.98870 0.69440 0.53054 -0.23700
N 	N 	0.61300 0.33490 0.53783 -0.23400
N 	N 	0.63330 0.67880 0.91945 -0.23400
N 	N 	0.99369 0.30190 0.91524 -0.23500
C 	C 	0.02410 0.34000 0.88003 0.10900
H 	H 	0.07410 0.33570 0.87650 -0.01000
C 	C 	0.98560 0.38590 0.84824 -0.18700
H 	H 	0.00940 0.41010 0.82340 0.11300
C 	C 	0.91020 0.39550 0.85374 0.13500
C 	C 	0.92120 0.30810 0.91953 0.10000
H 	H 	0.89870 0.27980 0.94320 -0.00100
C 	C 	0.87890 0.35400 0.89077 -0.18100
H 	H 	0.82910 0.35760 0.89580 0.10000
C 	C 	0.98210 0.61800 0.52521 0.10900
H 	H 	0.00700 0.59410 0.50080 -0.00900
C 	C 	0.93980 0.57290 0.55454 -0.19600
H 	H 	0.93450 0.52030 0.54870 0.11400
C 	C 	0.90560 0.60680 0.59230 0.14900
C 	C 	0.91360 0.68600 0.59828 -0.19200
H 	H 	0.89160 0.71100 0.62350 0.10800
C 	C 	0.95420 0.72720 0.56654 0.11300
H 	H 	0.95780 0.78040 0.57040 -0.00800
C 	C 	0.85910 0.55820 0.62290 -0.09500
C 	C 	0.80710 0.51150 0.60067 0.01300
H 	H 	0.80320 0.51170 0.56770 0.04900
C 	C 	0.76050 0.46430 0.62636 -0.08700
C 	C 	0.76720 0.46380 0.67574 0.13000
C 	C 	0.86410 0.55800 0.67223 0.13000
C 	C 	0.81930 0.51140 0.69903 -0.04600
C 	C 	0.98850 0.58370 0.69124 -0.25700
H 	H 	0.99940 0.57890 0.65810 0.11800
H 	H 	0.01920 0.62240 0.70550 0.12000
H 	H 	0.99680 0.53500 0.70680 0.12300
C 	C 	0.65230 0.44490 0.70947 -0.24200
H 	H 	0.62820 0.45180 0.67920 0.11300
H 	H 	0.62530 0.40880 0.72810 0.10800
H 	H 	0.65500 0.49360 0.72570 0.11800
C 	C 	0.70570 0.41820 0.59872 0.15000
C 	C 	0.66360 0.45470 0.56351 -0.18100
H 	H 	0.66600 0.50800 0.55970 0.12300
C 	C 	0.61860 0.41150 0.53463 0.11300
H 	H 	0.59050 0.43690 0.51160 0.01300
C 	C 	0.65180 0.29980 0.57251 0.10600
H 	H 	0.64760 0.24650 0.57570 -0.01100
C 	C 	0.69760 0.33920 0.60384 -0.17500
H 	H 	0.72250 0.31290 0.62790 0.10400
C 	C 	0.82290 0.51020 0.75187 -0.04700
C 	C 	0.78010 0.56010 0.77807 0.12400
C 	C 	0.77670 0.55480 0.82758 -0.09200
C 	C 	0.82010 0.49940 0.85027 0.00700
H 	H 	0.81840 0.49520 0.88320 0.03400
C 	C 	0.86580 0.45020 0.82550 -0.09800
C 	C 	0.86600 0.45550 0.77617 0.12600
C 	C 	0.88740 0.33090 0.74489 -0.22800
H 	H 	0.84250 0.32940 0.72690 0.11100
H 	H 	0.92370 0.30160 0.72870 0.10600
H 	H 	0.88000 0.30900 0.77580 0.10600
C 	C 	0.77190 0.69040 0.75360 -0.24300
H 	H 	0.81950 0.68710 0.74030 0.11900
H 	H 	0.74230 0.72510 0.73490 0.11000
H 	H 	0.77580 0.70930 0.78560 0.10900
C 	C 	0.72750 0.60220 0.85723 0.13100
C 	C 	0.65580 0.62040 0.84337 -0.17900
H 	H 	0.63830 0.60780 0.81310 0.10300
C 	C 	0.61170 0.65730 0.87535 0.10400
H 	H 	0.56390 0.66800 0.86590 -0.01100
C 	C 	0.70280 0.66410 0.93175 0.09600
H 	H 	0.71980 0.68060 0.96140 0.01000
C 	C 	0.75030 0.62570 0.90259 -0.17500
H 	H 	0.79760 0.61540 0.91320 0.10800
