data_crystal

_cell_length_a 17.09800
_cell_length_b 26.43500
_cell_length_c 12.83800
_cell_angle_alpha 90.00000
_cell_angle_beta  129.16600
_cell_angle_gamma 90.00000

_symmetry_space_group_name_	'P 1'
_symmetry_space_group_name_H-M	'P 1'

loop_
_symmetry_equiv_pos_as_xyz
  x,y,z

loop_
_atom_site_label
_atom_site_type_symbol
_atom_site_fract_x
_atom_site_fract_y
_atom_site_fract_z
_atom_site_charge
O 	O 	0.17940 0.81790 0.40820 -0.16800
O 	O 	0.01650 0.76190 0.08020 -0.18300
N 	N 	0.35820 0.98590 0.60520 -0.20100
N 	N 	0.01070 0.58790 0.89660 -0.21500
C 	C 	0.35320 0.95050 0.52730 0.09700
H 	H 	0.40900 0.94580 0.53150 -0.01200
C 	C 	0.26810 0.92000 0.43920 -0.18900
H 	H 	0.26830 0.89570 0.38700 0.10500
C 	C 	0.18520 0.92630 0.43070 0.14200
C 	C 	0.19010 0.96440 0.50920 -0.19900
H 	H 	0.13410 0.97110 0.50340 0.09500
C 	C 	0.27560 0.99210 0.59420 0.10400
H 	H 	0.27670 0.01660 0.64720 -0.02100
C 	C 	0.09090 0.89730 0.33470 -0.09800
C 	C 	0.09000 0.84460 0.33150 0.12800
C 	C 	0.00890 0.73520 0.16320 0.14300
C 	C 	0.11660 0.76330 0.12020 -0.21200
H 	H 	0.16300 0.77660 0.20960 0.10400
H 	H 	0.11650 0.78450 0.05940 0.09600
H 	H 	0.13680 0.72970 0.11810 0.09500
C 	C 	0.21880 0.80910 0.54330 -0.23300
H 	H 	0.23460 0.84080 0.58900 0.10400
H 	H 	0.27880 0.78890 0.58890 0.11400
H 	H 	0.16940 0.79150 0.54290 0.11100
C 	C 	0.07550 0.58120 0.02820 0.11600
H 	H 	0.12030 0.55420 0.06240 -0.02300
C 	C 	0.07880 0.61180 0.11410 -0.21100
H 	H 	0.12730 0.60600 0.20590 0.09800
C 	C 	0.01290 0.65160 0.07170 0.12800
C 	C 	0.94690 0.66010 0.93110 -0.17300
H 	H 	0.90300 0.68760 0.89460 0.10000
C 	C 	0.94860 0.62770 0.85000 0.11800
H 	H 	0.90440 0.63340 0.75780 -0.02000
C 	C 	0.00790 0.68210 0.16330 -0.11200
O 	O 	0.67940 0.31790 0.40820 -0.16600
O 	O 	0.51650 0.26190 0.08020 -0.17800
N 	N 	0.85820 0.48590 0.60520 -0.19800
N 	N 	0.51070 0.08790 0.89660 -0.20800
C 	C 	0.85320 0.45050 0.52730 0.09800
H 	H 	0.90900 0.44580 0.53150 -0.00700
C 	C 	0.76810 0.42000 0.43920 -0.19000
H 	H 	0.76830 0.39570 0.38700 0.10700
C 	C 	0.68520 0.42630 0.43070 0.14700
C 	C 	0.69010 0.46440 0.50920 -0.20100
H 	H 	0.63410 0.47110 0.50340 0.09800
C 	C 	0.77560 0.49210 0.59420 0.10700
H 	H 	0.77670 0.51660 0.64720 -0.01900
C 	C 	0.59090 0.39730 0.33470 -0.10500
C 	C 	0.59000 0.34460 0.33150 0.13000
C 	C 	0.50890 0.23520 0.16320 0.14900
C 	C 	0.61660 0.26330 0.12020 -0.22200
H 	H 	0.66300 0.27660 0.20960 0.10800
H 	H 	0.61650 0.28450 0.05940 0.10200
H 	H 	0.63680 0.22970 0.11810 0.10100
C 	C 	0.71880 0.30910 0.54330 -0.24200
H 	H 	0.73460 0.34080 0.58900 0.10800
H 	H 	0.77880 0.28890 0.58890 0.11900
H 	H 	0.66940 0.29150 0.54290 0.11700
C 	C 	0.57550 0.08120 0.02820 0.13000
H 	H 	0.62030 0.05420 0.06240 -0.02500
C 	C 	0.57880 0.11180 0.11410 -0.22500
H 	H 	0.62730 0.10600 0.20590 0.10500
C 	C 	0.51290 0.15160 0.07170 0.16100
C 	C 	0.44690 0.16010 0.93110 -0.20400
H 	H 	0.40300 0.18760 0.89460 0.10600
C 	C 	0.44860 0.12770 0.85000 0.11000
H 	H 	0.40440 0.13340 0.75780 -0.02200
C 	C 	0.50790 0.18210 0.16330 -0.12800
O 	O 	0.82060 0.81790 0.09180 -0.16400
O 	O 	0.98350 0.76190 0.41980 -0.17300
N 	N 	0.64180 0.98590 0.89480 -0.20200
N 	N 	0.98930 0.58790 0.60340 -0.19200
C 	C 	0.64680 0.95050 0.97270 0.09200
H 	H 	0.59100 0.94580 0.96850 -0.01200
C 	C 	0.73190 0.92000 0.06080 -0.18400
H 	H 	0.73170 0.89570 0.11300 0.10400
C 	C 	0.81480 0.92630 0.06930 0.14500
C 	C 	0.80990 0.96440 0.99080 -0.20200
H 	H 	0.86590 0.97110 0.99660 0.10200
C 	C 	0.72440 0.99210 0.90580 0.10700
H 	H 	0.72330 0.01660 0.85280 -0.02000
C 	C 	0.90910 0.89730 0.16530 -0.08200
C 	C 	0.91000 0.84460 0.16850 0.14300
C 	C 	0.99110 0.73520 0.33680 0.16300
C 	C 	0.88340 0.76330 0.37980 -0.22400
H 	H 	0.83700 0.77660 0.29040 0.10900
H 	H 	0.88350 0.78450 0.44060 0.10500
H 	H 	0.86320 0.72970 0.38190 0.10100
C 	C 	0.78120 0.80910 0.95670 -0.25100
H 	H 	0.76540 0.84080 0.91100 0.11000
H 	H 	0.72120 0.78890 0.91110 0.11900
H 	H 	0.83060 0.79150 0.95710 0.12300
C 	C 	0.92450 0.58120 0.47180 0.13000
H 	H 	0.87970 0.55420 0.43760 -0.02500
C 	C 	0.92120 0.61180 0.38590 -0.22300
H 	H 	0.87270 0.60600 0.29410 0.10600
C 	C 	0.98710 0.65160 0.42830 0.17200
C 	C 	0.05310 0.66010 0.56890 -0.21700
H 	H 	0.09700 0.68760 0.60540 0.10600
C 	C 	0.05140 0.62770 0.65000 0.09300
H 	H 	0.09560 0.63340 0.74220 -0.01900
C 	C 	0.99210 0.68210 0.33670 -0.10500
O 	O 	0.32060 0.31790 0.09180 -0.16600
O 	O 	0.48350 0.26190 0.41980 -0.18000
N 	N 	0.14180 0.48590 0.89480 -0.20500
N 	N 	0.48930 0.08790 0.60340 -0.20500
C 	C 	0.14680 0.45050 0.97270 0.09500
H 	H 	0.09100 0.44580 0.96850 -0.01800
C 	C 	0.23190 0.42000 0.06080 -0.19100
H 	H 	0.23170 0.39570 0.11300 0.10600
C 	C 	0.31480 0.42630 0.06930 0.15200
C 	C 	0.30990 0.46440 0.99080 -0.20800
H 	H 	0.36590 0.47110 0.99660 0.09900
C 	C 	0.22440 0.49210 0.90580 0.10800
H 	H 	0.22330 0.51660 0.85280 -0.02300
C 	C 	0.40910 0.39730 0.16530 -0.10600
C 	C 	0.41000 0.34460 0.16850 0.13100
C 	C 	0.49110 0.23520 0.33680 0.14800
C 	C 	0.38340 0.26330 0.37980 -0.21500
H 	H 	0.33700 0.27660 0.29040 0.10400
H 	H 	0.38350 0.28450 0.44060 0.09800
H 	H 	0.36320 0.22970 0.38190 0.09600
C 	C 	0.28120 0.30910 0.95670 -0.24400
H 	H 	0.26540 0.34080 0.91100 0.10700
H 	H 	0.22120 0.28890 0.91110 0.11600
H 	H 	0.33060 0.29150 0.95710 0.11600
C 	C 	0.42450 0.08120 0.47180 0.12200
H 	H 	0.37970 0.05420 0.43760 -0.02500
C 	C 	0.42120 0.11180 0.38590 -0.22000
H 	H 	0.37270 0.10600 0.29410 0.10200
C 	C 	0.48710 0.15160 0.42830 0.15400
C 	C 	0.55310 0.16010 0.56890 -0.19600
H 	H 	0.59700 0.18760 0.60540 0.10400
C 	C 	0.55140 0.12770 0.65000 0.10600
H 	H 	0.59560 0.13340 0.74220 -0.01900
C 	C 	0.49210 0.18210 0.33670 -0.12600
Ag	Ag	0.50000 0.03243 0.75000 0.54200
Ag	Ag	0.00000 0.53243 0.75000 0.53200
C 	C 	0.00000 0.92240 0.25000 -0.01100
H 	H 	-0.00000 0.95760 0.25000 0.02700
C 	C 	0.00000 0.81730 0.25000 -0.05900
C 	C 	0.00000 0.76050 0.25000 -0.08200
C 	C 	0.00000 0.65840 0.25000 0.00900
H 	H 	0.00000 0.62320 0.25000 0.01900
C 	C 	0.50000 0.42240 0.25000 0.02100
H 	H 	0.50000 0.45760 0.25000 0.02200
C 	C 	0.50000 0.31730 0.25000 -0.04300
C 	C 	0.50000 0.26050 0.25000 -0.06700
C 	C 	0.50000 0.15840 0.25000 0.04600
H 	H 	0.50000 0.12320 0.25000 0.01300
O 	O 	0.82060 0.18210 0.59180 -0.16700
O 	O 	0.98350 0.23810 0.91980 -0.17300
N 	N 	0.64180 0.01410 0.39480 -0.20200
N 	N 	0.98930 0.41210 0.10340 -0.18800
C 	C 	0.64680 0.04950 0.47270 0.09600
H 	H 	0.59100 0.05420 0.46850 -0.01300
C 	C 	0.73190 0.08000 0.56080 -0.18800
H 	H 	0.73170 0.10430 0.61300 0.10500
C 	C 	0.81480 0.07370 0.56930 0.14200
C 	C 	0.80990 0.03560 0.49080 -0.19700
H 	H 	0.86590 0.02890 0.49660 0.10200
C 	C 	0.72440 0.00790 0.40580 0.10500
H 	H 	0.72330 0.98340 0.35280 -0.01900
C 	C 	0.90910 0.10270 0.66530 -0.08300
C 	C 	0.91000 0.15540 0.66850 0.14300
C 	C 	0.99110 0.26480 0.83680 0.16000
C 	C 	0.88340 0.23670 0.87980 -0.22200
H 	H 	0.83700 0.22340 0.79040 0.10800
H 	H 	0.88350 0.21550 0.94060 0.10400
H 	H 	0.86320 0.27030 0.88190 0.10000
C 	C 	0.78120 0.19090 0.45670 -0.24400
H 	H 	0.76540 0.15920 0.41100 0.10900
H 	H 	0.72120 0.21110 0.41110 0.11800
H 	H 	0.83060 0.20850 0.45710 0.12200
C 	C 	0.92450 0.41880 0.97180 0.12000
H 	H 	0.87970 0.44580 0.93760 -0.02300
C 	C 	0.92120 0.38820 0.88590 -0.21500
H 	H 	0.87270 0.39400 0.79410 0.10300
C 	C 	0.98710 0.34840 0.92830 0.16200
C 	C 	0.05310 0.33990 0.06890 -0.20700
H 	H 	0.09700 0.31240 0.10540 0.10300
C 	C 	0.05140 0.37230 0.15000 0.08800
H 	H 	0.09560 0.36660 0.24220 -0.01700
C 	C 	0.99210 0.31790 0.83670 -0.10100
O 	O 	0.32060 0.68210 0.59180 -0.16900
O 	O 	0.48350 0.73810 0.91980 -0.18100
N 	N 	0.14180 0.51410 0.39480 -0.20500
N 	N 	0.48930 0.91210 0.10340 -0.20200
C 	C 	0.14680 0.54950 0.47270 0.09900
H 	H 	0.09100 0.55420 0.46850 -0.01900
C 	C 	0.23190 0.58000 0.56080 -0.19500
H 	H 	0.23170 0.60430 0.61300 0.10600
C 	C 	0.31480 0.57370 0.56930 0.14900
C 	C 	0.30990 0.53560 0.49080 -0.20300
H 	H 	0.36590 0.52890 0.49660 0.09900
C 	C 	0.22440 0.50790 0.40580 0.10700
H 	H 	0.22330 0.48340 0.35280 -0.02200
C 	C 	0.40910 0.60270 0.66530 -0.10600
C 	C 	0.41000 0.65540 0.66850 0.13100
C 	C 	0.49110 0.76480 0.83680 0.14600
C 	C 	0.38340 0.73670 0.87980 -0.21300
H 	H 	0.33700 0.72340 0.79040 0.10300
H 	H 	0.38350 0.71550 0.94060 0.09700
H 	H 	0.36320 0.77030 0.88190 0.09500
C 	C 	0.28120 0.69090 0.45670 -0.23800
H 	H 	0.26540 0.65920 0.41100 0.10700
H 	H 	0.22120 0.71110 0.41110 0.11500
H 	H 	0.33060 0.70850 0.45710 0.11600
C 	C 	0.42450 0.91880 0.97180 0.11500
H 	H 	0.37970 0.94580 0.93760 -0.02400
C 	C 	0.42120 0.88820 0.88590 -0.21400
H 	H 	0.37270 0.89400 0.79410 0.10000
C 	C 	0.48710 0.84840 0.92830 0.14600
C 	C 	0.55310 0.83990 0.06890 -0.18800
H 	H 	0.59700 0.81240 0.10540 0.10200
C 	C 	0.55140 0.87230 0.15000 0.10300
H 	H 	0.59560 0.86660 0.24220 -0.01800
C 	C 	0.49210 0.81790 0.83670 -0.12300
O 	O 	0.17940 0.18210 0.90820 -0.17200
O 	O 	0.01650 0.23810 0.58020 -0.18500
N 	N 	0.35820 0.01410 0.10520 -0.20200
N 	N 	0.01070 0.41210 0.39660 -0.21300
C 	C 	0.35320 0.04950 0.02730 0.10100
H 	H 	0.40900 0.05420 0.03150 -0.01400
C 	C 	0.26810 0.08000 0.93920 -0.19400
H 	H 	0.26830 0.10430 0.88700 0.10600
C 	C 	0.18520 0.07370 0.93070 0.13900
C 	C 	0.19010 0.03560 0.00920 -0.19500
H 	H 	0.13410 0.02890 0.00340 0.09400
C 	C 	0.27560 0.00790 0.09420 0.10300
H 	H 	0.27670 0.98340 0.14720 -0.02000
C 	C 	0.09090 0.10270 0.83470 -0.09800
C 	C 	0.09000 0.15540 0.83150 0.12900
C 	C 	0.00890 0.26480 0.66320 0.14100
C 	C 	0.11660 0.23670 0.62020 -0.21100
H 	H 	0.16300 0.22340 0.70960 0.10300
H 	H 	0.11650 0.21550 0.55940 0.09500
H 	H 	0.13680 0.27030 0.61810 0.09400
C 	C 	0.21880 0.19090 0.04330 -0.22800
H 	H 	0.23460 0.15920 0.08900 0.10300
H 	H 	0.27880 0.21110 0.08890 0.11300
H 	H 	0.16940 0.20850 0.04290 0.11000
C 	C 	0.07550 0.41880 0.52820 0.10900
H 	H 	0.12030 0.44580 0.56240 -0.02200
C 	C 	0.07880 0.38820 0.61410 -0.20400
H 	H 	0.12730 0.39400 0.70590 0.09600
C 	C 	0.01290 0.34840 0.57170 0.12000
C 	C 	0.94690 0.33990 0.43110 -0.16400
H 	H 	0.90300 0.31240 0.39460 0.09800
C 	C 	0.94860 0.37230 0.35000 0.11500
H 	H 	0.90440 0.36660 0.25780 -0.01800
C 	C 	0.00790 0.31790 0.66330 -0.10800
O 	O 	0.67940 0.68210 0.90820 -0.16900
O 	O 	0.51650 0.73810 0.58020 -0.17800
N 	N 	0.85820 0.51410 0.10520 -0.19800
N 	N 	0.51070 0.91210 0.39660 -0.20500
C 	C 	0.85320 0.54950 0.02730 0.10300
H 	H 	0.90900 0.55420 0.03150 -0.00800
C 	C 	0.76810 0.58000 0.93920 -0.19500
H 	H 	0.76830 0.60430 0.88700 0.10800
C 	C 	0.68520 0.57370 0.93070 0.14400
C 	C 	0.69010 0.53560 0.00920 -0.19600
H 	H 	0.63410 0.52890 0.00340 0.09800
C 	C 	0.77560 0.50790 0.09420 0.10500
H 	H 	0.77670 0.48340 0.14720 -0.01800
C 	C 	0.59090 0.60270 0.83470 -0.10500
C 	C 	0.59000 0.65540 0.83150 0.13000
C 	C 	0.50890 0.76480 0.66320 0.14600
C 	C 	0.61660 0.73670 0.62020 -0.22000
H 	H 	0.66300 0.72340 0.70960 0.10700
H 	H 	0.61650 0.71550 0.55940 0.10100
H 	H 	0.63680 0.77030 0.61810 0.09900
C 	C 	0.71880 0.69090 0.04330 -0.23600
H 	H 	0.73460 0.65920 0.08900 0.10700
H 	H 	0.77880 0.71110 0.08890 0.11800
H 	H 	0.66940 0.70850 0.04290 0.11600
C 	C 	0.57550 0.91880 0.52820 0.12200
H 	H 	0.62030 0.94580 0.56240 -0.02400
C 	C 	0.57880 0.88820 0.61410 -0.21900
H 	H 	0.62730 0.89400 0.70590 0.10200
C 	C 	0.51290 0.84840 0.57170 0.15300
C 	C 	0.44690 0.83990 0.43110 -0.19500
H 	H 	0.40300 0.81240 0.39460 0.10400
C 	C 	0.44860 0.87230 0.35000 0.10600
H 	H 	0.40440 0.86660 0.25780 -0.02000
C 	C 	0.50790 0.81790 0.66330 -0.12400
Ag	Ag	0.50000 0.96757 0.25000 0.54200
Ag	Ag	0.00000 0.46757 0.25000 0.53200
C 	C 	0.00000 0.07760 0.75000 -0.01100
H 	H 	0.00000 0.04240 0.75000 0.02600
C 	C 	0.00000 0.18270 0.75000 -0.06000
C 	C 	0.00000 0.23950 0.75000 -0.08100
C 	C 	0.00000 0.34160 0.75000 0.00600
H 	H 	0.00000 0.37680 0.75000 0.02000
C 	C 	0.50000 0.57760 0.75000 0.02000
H 	H 	0.50000 0.54240 0.75000 0.02200
C 	C 	0.50000 0.68270 0.75000 -0.04400
C 	C 	0.50000 0.73950 0.75000 -0.06600
C 	C 	0.50000 0.84160 0.75000 0.04100
H 	H 	0.50000 0.87680 0.75000 0.01400
