data_crystal

_cell_length_a 12.71600
_cell_length_b 12.71600
_cell_length_c 62.07800
_cell_angle_alpha 90.00000
_cell_angle_beta  90.00000
_cell_angle_gamma 90.00000

_symmetry_space_group_name_	'P 1'
_symmetry_space_group_name_H-M	'P 1'

loop_
_symmetry_equiv_pos_as_xyz
  x,y,z

loop_
_atom_site_label
_atom_site_type_symbol
_atom_site_fract_x
_atom_site_fract_y
_atom_site_fract_z
_atom_site_charge
I 	I 	0.80180 0.94362 0.90087 -0.46400
I 	I 	0.16220 0.95407 0.90979 -0.44800
Cu	Cu	0.97011 0.94923 0.92531 0.78900
Cu	Cu	0.99524 0.94477 0.88466 0.78700
O 	O 	0.75790 0.46890 0.04154 -0.17700
O 	O 	0.13110 0.44460 0.04215 -0.17600
O 	O 	0.95020 0.26310 0.01923 -0.18000
O 	O 	0.94100 0.64020 0.01689 -0.19100
N 	N 	0.57290 0.50240 0.11434 -0.25100
N 	N 	0.31690 0.48610 0.11505 -0.25100
N 	N 	0.95160 0.07490 0.94607 -0.24300
N 	N 	0.96020 0.81800 0.94408 -0.25700
C 	C 	0.94550 0.45680 0.04227 -0.06200
C 	C 	0.85060 0.46900 0.05372 0.13700
C 	C 	0.85140 0.47730 0.07568 -0.09500
C 	C 	0.94430 0.47770 0.08605 0.02000
H 	H 	0.94360 0.48570 0.10130 0.03200
C 	C 	0.04140 0.46700 0.07592 -0.09000
C 	C 	0.03700 0.45340 0.05359 0.14800
C 	C 	0.75160 0.48580 0.08870 0.13700
C 	C 	0.74050 0.56560 0.10422 -0.18900
H 	H 	0.79420 0.61670 0.10610 0.10800
C 	C 	0.65210 0.56890 0.11642 0.10300
H 	H 	0.64680 0.62220 0.12710 -0.02400
C 	C 	0.58210 0.42690 0.09926 0.09700
H 	H 	0.52640 0.37780 0.09770 -0.02100
C 	C 	0.66720 0.41740 0.08616 -0.17800
H 	H 	0.66900 0.36460 0.07540 0.10000
C 	C 	0.13830 0.47140 0.08856 0.14200
C 	C 	0.15160 0.41070 0.10703 -0.18100
H 	H 	0.09950 0.36050 0.11080 0.10200
C 	C 	0.23890 0.42240 0.11991 0.09900
H 	H 	0.24310 0.38280 0.13290 -0.02400
C 	C 	0.30790 0.54350 0.09686 0.09400
H 	H 	0.36200 0.59190 0.09330 -0.02000
C 	C 	0.22280 0.53390 0.08335 -0.17400
H 	H 	0.22240 0.57130 0.07010 0.09800
C 	C 	0.70770 0.56890 0.03944 -0.16400
H 	H 	0.67730 0.58940 0.05330 0.08500
H 	H 	0.65180 0.56430 0.02860 0.08500
H 	H 	0.75950 0.62150 0.03500 0.09300
C 	C 	0.17700 0.33990 0.04378 -0.17700
H 	H 	0.18330 0.32020 0.05900 0.09200
H 	H 	0.24690 0.33990 0.03710 0.08900
H 	H 	0.13180 0.28910 0.03630 0.10100
C 	C 	0.94480 0.45140 0.01806 -0.04400
C 	C 	0.94400 0.35640 0.00746 0.12400
C 	C 	0.93990 0.35170 0.98477 -0.08600
C 	C 	0.94220 0.44370 0.97359 0.00300
H 	H 	0.94250 0.44070 0.95830 0.02500
C 	C 	0.94400 0.54240 0.98349 -0.08900
C 	C 	0.94200 0.54460 0.00594 0.12600
C 	C 	0.94220 0.25130 0.97273 0.10600
C 	C 	0.01480 0.17330 0.97657 -0.14400
H 	H 	0.06200 0.17770 0.98840 0.09000
C 	C 	0.01700 0.08620 0.96238 0.08600
H 	H 	0.06830 0.03320 0.96470 -0.00700
C 	C 	0.87980 0.14850 0.94262 0.07400
H 	H 	0.83240 0.14050 0.93090 -0.01100
C 	C 	0.87200 0.23650 0.95556 -0.15900
H 	H 	0.81890 0.28730 0.95280 0.08100
C 	C 	0.94800 0.64050 0.97042 0.10700
C 	C 	0.01670 0.64390 0.95309 -0.15200
H 	H 	0.05990 0.58510 0.94980 0.08300
C 	C 	0.02140 0.73360 0.94075 0.09200
H 	H 	0.07060 0.73590 0.92930 -0.02300
C 	C 	0.89180 0.81190 0.96057 0.08300
H 	H 	0.84600 0.86970 0.96300 -0.01400
C 	C 	0.88470 0.72730 0.97398 -0.16500
H 	H 	0.83660 0.72790 0.98570 0.09300
C 	C 	0.84860 0.22170 0.02550 -0.16400
H 	H 	0.81070 0.27460 0.03400 0.09600
H 	H 	0.85850 0.15810 0.03420 0.08200
H 	H 	0.80780 0.20440 0.01260 0.08400
C 	C 	0.04170 0.68230 0.02135 -0.13000
H 	H 	0.08690 0.62700 0.02730 0.08700
H 	H 	0.03500 0.73950 0.03180 0.07800
H 	H 	0.07280 0.70950 0.00800 0.07600
I 	I 	0.19820 0.05638 0.40087 -0.46500
I 	I 	0.83780 0.04593 0.40979 -0.44900
Cu	Cu	0.02989 0.05077 0.42531 0.78800
Cu	Cu	0.00476 0.05523 0.38466 0.78700
O 	O 	0.24210 0.53110 0.54154 -0.17700
O 	O 	0.86890 0.55540 0.54215 -0.17600
O 	O 	0.04980 0.73690 0.51923 -0.18000
O 	O 	0.05900 0.35980 0.51689 -0.19100
N 	N 	0.42710 0.49760 0.61434 -0.25100
N 	N 	0.68310 0.51390 0.61505 -0.25100
N 	N 	0.04840 0.92510 0.44607 -0.24300
N 	N 	0.03980 0.18200 0.44408 -0.25700
C 	C 	0.05450 0.54320 0.54227 -0.06200
C 	C 	0.14940 0.53100 0.55372 0.13700
C 	C 	0.14860 0.52270 0.57568 -0.09500
C 	C 	0.05570 0.52230 0.58605 0.02000
H 	H 	0.05640 0.51430 0.60130 0.03200
C 	C 	0.95860 0.53300 0.57592 -0.09000
C 	C 	0.96300 0.54660 0.55359 0.14800
C 	C 	0.24840 0.51420 0.58870 0.13700
C 	C 	0.25950 0.43440 0.60422 -0.18900
H 	H 	0.20580 0.38330 0.60610 0.10800
C 	C 	0.34790 0.43110 0.61642 0.10300
H 	H 	0.35320 0.37780 0.62710 -0.02400
C 	C 	0.41790 0.57310 0.59926 0.09700
H 	H 	0.47360 0.62220 0.59770 -0.02100
C 	C 	0.33280 0.58260 0.58616 -0.17800
H 	H 	0.33100 0.63540 0.57540 0.10000
C 	C 	0.86170 0.52860 0.58856 0.14200
C 	C 	0.84840 0.58930 0.60703 -0.18100
H 	H 	0.90050 0.63950 0.61080 0.10200
C 	C 	0.76110 0.57760 0.61991 0.09900
H 	H 	0.75690 0.61720 0.63290 -0.02400
C 	C 	0.69210 0.45650 0.59686 0.09400
H 	H 	0.63800 0.40810 0.59330 -0.02000
C 	C 	0.77720 0.46610 0.58335 -0.17400
H 	H 	0.77760 0.42870 0.57010 0.09800
C 	C 	0.29230 0.43110 0.53944 -0.16400
H 	H 	0.32270 0.41060 0.55330 0.08500
H 	H 	0.34820 0.43570 0.52860 0.08500
H 	H 	0.24050 0.37850 0.53500 0.09300
C 	C 	0.82300 0.66010 0.54378 -0.17700
H 	H 	0.81670 0.67980 0.55900 0.09200
H 	H 	0.75310 0.66010 0.53710 0.08900
H 	H 	0.86820 0.71090 0.53630 0.10100
C 	C 	0.05520 0.54860 0.51806 -0.04400
C 	C 	0.05600 0.64360 0.50746 0.12400
C 	C 	0.06010 0.64830 0.48477 -0.08600
C 	C 	0.05780 0.55630 0.47359 0.00300
H 	H 	0.05750 0.55930 0.45830 0.02500
C 	C 	0.05600 0.45760 0.48349 -0.08900
C 	C 	0.05800 0.45540 0.50594 0.12600
C 	C 	0.05780 0.74870 0.47273 0.10600
C 	C 	0.98520 0.82670 0.47657 -0.14400
H 	H 	0.93800 0.82230 0.48840 0.09000
C 	C 	0.98300 0.91380 0.46238 0.08600
H 	H 	0.93170 0.96680 0.46470 -0.00700
C 	C 	0.12020 0.85150 0.44262 0.07400
H 	H 	0.16760 0.85950 0.43090 -0.01100
C 	C 	0.12800 0.76350 0.45556 -0.15900
H 	H 	0.18110 0.71270 0.45280 0.08100
C 	C 	0.05200 0.35950 0.47042 0.10700
C 	C 	0.98330 0.35610 0.45309 -0.15200
H 	H 	0.94010 0.41490 0.44980 0.08300
C 	C 	0.97860 0.26640 0.44075 0.09200
H 	H 	0.92940 0.26410 0.42930 -0.02300
C 	C 	0.10820 0.18810 0.46057 0.08300
H 	H 	0.15400 0.13030 0.46300 -0.01400
C 	C 	0.11530 0.27270 0.47398 -0.16500
H 	H 	0.16340 0.27210 0.48570 0.09300
C 	C 	0.15140 0.77830 0.52550 -0.16400
H 	H 	0.18930 0.72540 0.53400 0.09600
H 	H 	0.14150 0.84190 0.53420 0.08200
H 	H 	0.19220 0.79560 0.51260 0.08400
C 	C 	0.95830 0.31770 0.52135 -0.13000
H 	H 	0.91310 0.37300 0.52730 0.08700
H 	H 	0.96500 0.26050 0.53180 0.07800
H 	H 	0.92720 0.29050 0.50800 0.07600
I 	I 	0.55638 0.30180 0.65087 -0.45600
I 	I 	0.54593 0.66220 0.65979 -0.45400
Cu	Cu	0.55077 0.47011 0.67531 0.79600
Cu	Cu	0.55523 0.49524 0.63466 0.79500
O 	O 	0.03110 0.25790 0.79154 -0.17600
O 	O 	0.05540 0.63110 0.79215 -0.17500
O 	O 	0.23690 0.45020 0.76923 -0.17800
O 	O 	0.85980 0.44100 0.76689 -0.18100
N 	N 	0.99760 0.07290 0.86434 -0.25500
N 	N 	0.01390 0.81690 0.86505 -0.24200
N 	N 	0.42510 0.45160 0.69607 -0.24400
N 	N 	0.68200 0.46020 0.69408 -0.24800
C 	C 	0.04320 0.44550 0.79227 -0.05300
C 	C 	0.03100 0.35060 0.80372 0.14000
C 	C 	0.02270 0.35140 0.82568 -0.10400
C 	C 	0.02230 0.44430 0.83605 0.04000
H 	H 	0.01430 0.44360 0.85130 0.03000
C 	C 	0.03300 0.54140 0.82592 -0.10400
C 	C 	0.04660 0.53700 0.80359 0.14300
C 	C 	0.01420 0.25160 0.83870 0.15500
C 	C 	0.93440 0.24050 0.85422 -0.20600
H 	H 	0.88330 0.29420 0.85610 0.11200
C 	C 	0.93110 0.15210 0.86642 0.11000
H 	H 	0.87780 0.14680 0.87710 -0.02500
C 	C 	0.07310 0.08210 0.84926 0.11100
H 	H 	0.12220 0.02640 0.84770 -0.02400
C 	C 	0.08260 0.16720 0.83616 -0.19000
H 	H 	0.13540 0.16900 0.82540 0.10400
C 	C 	0.02860 0.63830 0.83856 0.16200
C 	C 	0.08930 0.65160 0.85703 -0.19000
H 	H 	0.13950 0.59950 0.86080 0.10400
C 	C 	0.07760 0.73890 0.86991 0.10600
H 	H 	0.11720 0.74310 0.88290 -0.02400
C 	C 	0.95650 0.80790 0.84686 0.08500
H 	H 	0.90810 0.86200 0.84330 -0.02000
C 	C 	0.96610 0.72280 0.83335 -0.19300
H 	H 	0.92870 0.72240 0.82010 0.10100
C 	C 	0.93110 0.20770 0.78944 -0.17100
H 	H 	0.91060 0.17730 0.80330 0.08600
H 	H 	0.93570 0.15180 0.77860 0.08600
H 	H 	0.87850 0.25950 0.78500 0.09400
C 	C 	0.16010 0.67700 0.79378 -0.17600
H 	H 	0.17980 0.68330 0.80900 0.09200
H 	H 	0.16010 0.74690 0.78710 0.09000
H 	H 	0.21090 0.63180 0.78630 0.09900
C 	C 	0.04860 0.44480 0.76806 -0.04100
C 	C 	0.14360 0.44400 0.75746 0.12800
C 	C 	0.14830 0.43990 0.73477 -0.09100
C 	C 	0.05630 0.44220 0.72359 0.01300
H 	H 	0.05930 0.44250 0.70830 0.02500
C 	C 	0.95760 0.44400 0.73349 -0.09400
C 	C 	0.95540 0.44200 0.75594 0.12400
C 	C 	0.24870 0.44220 0.72273 0.12100
C 	C 	0.32670 0.51480 0.72657 -0.16100
H 	H 	0.32230 0.56200 0.73840 0.09200
C 	C 	0.41380 0.51700 0.71238 0.08200
H 	H 	0.46680 0.56830 0.71470 -0.01000
C 	C 	0.35150 0.37980 0.69262 0.07800
H 	H 	0.35950 0.33240 0.68090 -0.01600
C 	C 	0.26350 0.37200 0.70556 -0.16600
H 	H 	0.21270 0.31890 0.70280 0.08300
C 	C 	0.85950 0.44800 0.72042 0.12800
C 	C 	0.85610 0.51670 0.70309 -0.17200
H 	H 	0.91490 0.55990 0.69980 0.08600
C 	C 	0.76640 0.52140 0.69075 0.08200
H 	H 	0.76410 0.57060 0.67930 -0.02300
C 	C 	0.68810 0.39180 0.71057 0.09100
H 	H 	0.63030 0.34600 0.71300 -0.01300
C 	C 	0.77270 0.38470 0.72398 -0.17200
H 	H 	0.77210 0.33660 0.73570 0.09600
C 	C 	0.27830 0.34860 0.77550 -0.16200
H 	H 	0.22540 0.31070 0.78400 0.09500
H 	H 	0.34190 0.35850 0.78420 0.08000
H 	H 	0.29560 0.30780 0.76260 0.08200
C 	C 	0.81770 0.54170 0.77135 -0.15100
H 	H 	0.87300 0.58690 0.77730 0.08800
H 	H 	0.76050 0.53500 0.78180 0.08000
H 	H 	0.79050 0.57280 0.75800 0.07900
I 	I 	0.44362 0.69820 0.15087 -0.45600
I 	I 	0.45407 0.33780 0.15979 -0.45400
Cu	Cu	0.44923 0.52989 0.17531 0.79600
Cu	Cu	0.44477 0.50476 0.13466 0.79500
O 	O 	0.96890 0.74210 0.29154 -0.17600
O 	O 	0.94460 0.36890 0.29215 -0.17500
O 	O 	0.76310 0.54980 0.26923 -0.17800
O 	O 	0.14020 0.55900 0.26689 -0.18100
N 	N 	0.00240 0.92710 0.36434 -0.25500
N 	N 	0.98610 0.18310 0.36505 -0.24200
N 	N 	0.57490 0.54840 0.19607 -0.24400
N 	N 	0.31800 0.53980 0.19408 -0.24800
C 	C 	0.95680 0.55450 0.29227 -0.05300
C 	C 	0.96900 0.64940 0.30372 0.14000
C 	C 	0.97730 0.64860 0.32568 -0.10400
C 	C 	0.97770 0.55570 0.33605 0.04000
H 	H 	0.98570 0.55640 0.35130 0.03000
C 	C 	0.96700 0.45860 0.32592 -0.10400
C 	C 	0.95340 0.46300 0.30359 0.14300
C 	C 	0.98580 0.74840 0.33870 0.15500
C 	C 	0.06560 0.75950 0.35422 -0.20600
H 	H 	0.11670 0.70580 0.35610 0.11200
C 	C 	0.06890 0.84790 0.36642 0.11000
H 	H 	0.12220 0.85320 0.37710 -0.02500
C 	C 	0.92690 0.91790 0.34926 0.11100
H 	H 	0.87780 0.97360 0.34770 -0.02400
C 	C 	0.91740 0.83280 0.33616 -0.19000
H 	H 	0.86460 0.83100 0.32540 0.10400
C 	C 	0.97140 0.36170 0.33856 0.16200
C 	C 	0.91070 0.34840 0.35703 -0.19000
H 	H 	0.86050 0.40050 0.36080 0.10400
C 	C 	0.92240 0.26110 0.36991 0.10600
H 	H 	0.88280 0.25690 0.38290 -0.02400
C 	C 	0.04350 0.19210 0.34686 0.08500
H 	H 	0.09190 0.13800 0.34330 -0.02000
C 	C 	0.03390 0.27720 0.33335 -0.19300
H 	H 	0.07130 0.27760 0.32010 0.10100
C 	C 	0.06890 0.79230 0.28944 -0.17100
H 	H 	0.08940 0.82270 0.30330 0.08600
H 	H 	0.06430 0.84820 0.27860 0.08600
H 	H 	0.12150 0.74050 0.28500 0.09400
C 	C 	0.83990 0.32300 0.29378 -0.17600
H 	H 	0.82020 0.31670 0.30900 0.09200
H 	H 	0.83990 0.25310 0.28710 0.09000
H 	H 	0.78910 0.36820 0.28630 0.09900
C 	C 	0.95140 0.55520 0.26806 -0.04100
C 	C 	0.85640 0.55600 0.25746 0.12800
C 	C 	0.85170 0.56010 0.23477 -0.09100
C 	C 	0.94370 0.55780 0.22359 0.01300
H 	H 	0.94070 0.55750 0.20830 0.02500
C 	C 	0.04240 0.55600 0.23349 -0.09400
C 	C 	0.04460 0.55800 0.25594 0.12400
C 	C 	0.75130 0.55780 0.22273 0.12100
C 	C 	0.67330 0.48520 0.22657 -0.16100
H 	H 	0.67770 0.43800 0.23840 0.09200
C 	C 	0.58620 0.48300 0.21238 0.08200
H 	H 	0.53320 0.43170 0.21470 -0.01000
C 	C 	0.64850 0.62020 0.19262 0.07800
H 	H 	0.64050 0.66760 0.18090 -0.01600
C 	C 	0.73650 0.62800 0.20556 -0.16600
H 	H 	0.78730 0.68110 0.20280 0.08300
C 	C 	0.14050 0.55200 0.22042 0.12800
C 	C 	0.14390 0.48330 0.20309 -0.17200
H 	H 	0.08510 0.44010 0.19980 0.08600
C 	C 	0.23360 0.47860 0.19075 0.08200
H 	H 	0.23590 0.42940 0.17930 -0.02300
C 	C 	0.31190 0.60820 0.21057 0.09100
H 	H 	0.36970 0.65400 0.21300 -0.01300
C 	C 	0.22730 0.61530 0.22398 -0.17200
H 	H 	0.22790 0.66340 0.23570 0.09600
C 	C 	0.72170 0.65140 0.27550 -0.16200
H 	H 	0.77460 0.68930 0.28400 0.09500
H 	H 	0.65810 0.64150 0.28420 0.08000
H 	H 	0.70440 0.69220 0.26260 0.08200
C 	C 	0.18230 0.45830 0.27135 -0.15100
H 	H 	0.12700 0.41310 0.27730 0.08800
H 	H 	0.23950 0.46500 0.28180 0.08000
H 	H 	0.20950 0.42720 0.25800 0.07900
I 	I 	0.69820 0.44362 0.84913 -0.45600
I 	I 	0.33780 0.45407 0.84021 -0.45400
Cu	Cu	0.52989 0.44923 0.82470 0.79600
Cu	Cu	0.50476 0.44477 0.86534 0.79500
O 	O 	0.74210 0.96890 0.70846 -0.17600
O 	O 	0.36890 0.94460 0.70785 -0.17500
O 	O 	0.54980 0.76310 0.73077 -0.17800
O 	O 	0.55900 0.14020 0.73311 -0.18100
N 	N 	0.92710 0.00240 0.63566 -0.25500
N 	N 	0.18310 0.98610 0.63495 -0.24200
N 	N 	0.54840 0.57490 0.80393 -0.24400
N 	N 	0.53980 0.31800 0.80592 -0.24800
C 	C 	0.55450 0.95680 0.70773 -0.05300
C 	C 	0.64940 0.96900 0.69628 0.14000
C 	C 	0.64860 0.97730 0.67432 -0.10400
C 	C 	0.55570 0.97770 0.66395 0.04000
H 	H 	0.55640 0.98570 0.64870 0.03000
C 	C 	0.45860 0.96700 0.67408 -0.10400
C 	C 	0.46300 0.95340 0.69641 0.14300
C 	C 	0.74840 0.98580 0.66130 0.15500
C 	C 	0.75950 0.06560 0.64578 -0.20600
H 	H 	0.70580 0.11670 0.64390 0.11200
C 	C 	0.84790 0.06890 0.63358 0.11000
H 	H 	0.85320 0.12220 0.62290 -0.02500
C 	C 	0.91790 0.92690 0.65074 0.11100
H 	H 	0.97360 0.87780 0.65230 -0.02400
C 	C 	0.83280 0.91740 0.66384 -0.19000
H 	H 	0.83100 0.86460 0.67460 0.10400
C 	C 	0.36170 0.97140 0.66144 0.16200
C 	C 	0.34840 0.91070 0.64297 -0.19000
H 	H 	0.40050 0.86050 0.63920 0.10400
C 	C 	0.26110 0.92240 0.63009 0.10600
H 	H 	0.25690 0.88280 0.61710 -0.02400
C 	C 	0.19210 0.04350 0.65314 0.08500
H 	H 	0.13800 0.09190 0.65670 -0.02000
C 	C 	0.27720 0.03390 0.66665 -0.19300
H 	H 	0.27760 0.07130 0.67990 0.10100
C 	C 	0.79230 0.06890 0.71056 -0.17100
H 	H 	0.82270 0.08940 0.69670 0.08600
H 	H 	0.84820 0.06430 0.72140 0.08600
H 	H 	0.74050 0.12150 0.71500 0.09400
C 	C 	0.32300 0.83990 0.70622 -0.17600
H 	H 	0.31670 0.82020 0.69100 0.09200
H 	H 	0.25310 0.83990 0.71290 0.09000
H 	H 	0.36820 0.78910 0.71370 0.09900
C 	C 	0.55520 0.95140 0.73194 -0.04100
C 	C 	0.55600 0.85640 0.74254 0.12800
C 	C 	0.56010 0.85170 0.76523 -0.09100
C 	C 	0.55780 0.94370 0.77641 0.01300
H 	H 	0.55750 0.94070 0.79170 0.02500
C 	C 	0.55600 0.04240 0.76651 -0.09400
C 	C 	0.55800 0.04460 0.74406 0.12400
C 	C 	0.55780 0.75130 0.77727 0.12100
C 	C 	0.48520 0.67330 0.77343 -0.16100
H 	H 	0.43800 0.67770 0.76160 0.09200
C 	C 	0.48300 0.58620 0.78762 0.08200
H 	H 	0.43170 0.53320 0.78530 -0.01000
C 	C 	0.62020 0.64850 0.80738 0.07800
H 	H 	0.66760 0.64050 0.81910 -0.01600
C 	C 	0.62800 0.73650 0.79444 -0.16600
H 	H 	0.68110 0.78730 0.79720 0.08300
C 	C 	0.55200 0.14050 0.77958 0.12800
C 	C 	0.48330 0.14390 0.79691 -0.17200
H 	H 	0.44010 0.08510 0.80020 0.08600
C 	C 	0.47860 0.23360 0.80925 0.08200
H 	H 	0.42940 0.23590 0.82070 -0.02300
C 	C 	0.60820 0.31190 0.78943 0.09100
H 	H 	0.65400 0.36970 0.78700 -0.01300
C 	C 	0.61530 0.22730 0.77602 -0.17200
H 	H 	0.66340 0.22790 0.76430 0.09600
C 	C 	0.65140 0.72170 0.72450 -0.16200
H 	H 	0.68930 0.77460 0.71600 0.09500
H 	H 	0.64150 0.65810 0.71580 0.08000
H 	H 	0.69220 0.70440 0.73740 0.08200
C 	C 	0.45830 0.18230 0.72865 -0.15100
H 	H 	0.41310 0.12700 0.72270 0.08800
H 	H 	0.46500 0.23950 0.71820 0.08000
H 	H 	0.42720 0.20950 0.74200 0.07900
I 	I 	0.30180 0.55638 0.34913 -0.45600
I 	I 	0.66220 0.54593 0.34021 -0.45400
Cu	Cu	0.47011 0.55077 0.32470 0.79600
Cu	Cu	0.49524 0.55523 0.36534 0.79500
O 	O 	0.25790 0.03110 0.20846 -0.17600
O 	O 	0.63110 0.05540 0.20785 -0.17500
O 	O 	0.45020 0.23690 0.23077 -0.17800
O 	O 	0.44100 0.85980 0.23311 -0.18100
N 	N 	0.07290 0.99760 0.13566 -0.25500
N 	N 	0.81690 0.01390 0.13495 -0.24200
N 	N 	0.45160 0.42510 0.30393 -0.24400
N 	N 	0.46020 0.68200 0.30592 -0.24800
C 	C 	0.44550 0.04320 0.20773 -0.05300
C 	C 	0.35060 0.03100 0.19628 0.14000
C 	C 	0.35140 0.02270 0.17432 -0.10400
C 	C 	0.44430 0.02230 0.16395 0.04000
H 	H 	0.44360 0.01430 0.14870 0.03000
C 	C 	0.54140 0.03300 0.17408 -0.10400
C 	C 	0.53700 0.04660 0.19641 0.14300
C 	C 	0.25160 0.01420 0.16130 0.15500
C 	C 	0.24050 0.93440 0.14578 -0.20600
H 	H 	0.29420 0.88330 0.14390 0.11200
C 	C 	0.15210 0.93110 0.13358 0.11000
H 	H 	0.14680 0.87780 0.12290 -0.02500
C 	C 	0.08210 0.07310 0.15074 0.11100
H 	H 	0.02640 0.12220 0.15230 -0.02400
C 	C 	0.16720 0.08260 0.16384 -0.19000
H 	H 	0.16900 0.13540 0.17460 0.10400
C 	C 	0.63830 0.02860 0.16144 0.16200
C 	C 	0.65160 0.08930 0.14297 -0.19000
H 	H 	0.59950 0.13950 0.13920 0.10400
C 	C 	0.73890 0.07760 0.13009 0.10600
H 	H 	0.74310 0.11720 0.11710 -0.02400
C 	C 	0.80790 0.95650 0.15314 0.08500
H 	H 	0.86200 0.90810 0.15670 -0.02000
C 	C 	0.72280 0.96610 0.16665 -0.19300
H 	H 	0.72240 0.92870 0.17990 0.10100
C 	C 	0.20770 0.93110 0.21056 -0.17100
H 	H 	0.17730 0.91060 0.19670 0.08600
H 	H 	0.15180 0.93570 0.22140 0.08600
H 	H 	0.25950 0.87850 0.21500 0.09400
C 	C 	0.67700 0.16010 0.20622 -0.17600
H 	H 	0.68330 0.17980 0.19100 0.09200
H 	H 	0.74690 0.16010 0.21290 0.09000
H 	H 	0.63180 0.21090 0.21370 0.09900
C 	C 	0.44480 0.04860 0.23194 -0.04100
C 	C 	0.44400 0.14360 0.24254 0.12800
C 	C 	0.43990 0.14830 0.26523 -0.09100
C 	C 	0.44220 0.05630 0.27641 0.01300
H 	H 	0.44250 0.05930 0.29170 0.02500
C 	C 	0.44400 0.95760 0.26651 -0.09400
C 	C 	0.44200 0.95540 0.24406 0.12400
C 	C 	0.44220 0.24870 0.27727 0.12100
C 	C 	0.51480 0.32670 0.27343 -0.16100
H 	H 	0.56200 0.32230 0.26160 0.09200
C 	C 	0.51700 0.41380 0.28762 0.08200
H 	H 	0.56830 0.46680 0.28530 -0.01000
C 	C 	0.37980 0.35150 0.30738 0.07800
H 	H 	0.33240 0.35950 0.31910 -0.01600
C 	C 	0.37200 0.26350 0.29444 -0.16600
H 	H 	0.31890 0.21270 0.29720 0.08300
C 	C 	0.44800 0.85950 0.27958 0.12800
C 	C 	0.51670 0.85610 0.29691 -0.17200
H 	H 	0.55990 0.91490 0.30020 0.08600
C 	C 	0.52140 0.76640 0.30925 0.08200
H 	H 	0.57060 0.76410 0.32070 -0.02300
C 	C 	0.39180 0.68810 0.28943 0.09100
H 	H 	0.34600 0.63030 0.28700 -0.01300
C 	C 	0.38470 0.77270 0.27602 -0.17200
H 	H 	0.33660 0.77210 0.26430 0.09600
C 	C 	0.34860 0.27830 0.22450 -0.16200
H 	H 	0.31070 0.22540 0.21600 0.09500
H 	H 	0.35850 0.34190 0.21580 0.08000
H 	H 	0.30780 0.29560 0.23740 0.08200
C 	C 	0.54170 0.81770 0.22865 -0.15100
H 	H 	0.58690 0.87300 0.22270 0.08800
H 	H 	0.53500 0.76050 0.21820 0.08000
H 	H 	0.57280 0.79050 0.24200 0.07900
I 	I 	0.94362 0.80180 0.09913 -0.46500
I 	I 	0.95407 0.16220 0.09021 -0.44900
Cu	Cu	0.94923 0.97011 0.07470 0.78800
Cu	Cu	0.94477 0.99524 0.11534 0.78700
O 	O 	0.46890 0.75790 0.95846 -0.17700
O 	O 	0.44460 0.13110 0.95785 -0.17600
O 	O 	0.26310 0.95020 0.98077 -0.18000
O 	O 	0.64020 0.94100 0.98311 -0.19100
N 	N 	0.50240 0.57290 0.88566 -0.25100
N 	N 	0.48610 0.31690 0.88495 -0.25100
N 	N 	0.07490 0.95160 0.05393 -0.24300
N 	N 	0.81800 0.96020 0.05592 -0.25700
C 	C 	0.45680 0.94550 0.95773 -0.06200
C 	C 	0.46900 0.85060 0.94628 0.13700
C 	C 	0.47730 0.85140 0.92432 -0.09500
C 	C 	0.47770 0.94430 0.91395 0.02000
H 	H 	0.48570 0.94360 0.89870 0.03200
C 	C 	0.46700 0.04140 0.92408 -0.09000
C 	C 	0.45340 0.03700 0.94641 0.14800
C 	C 	0.48580 0.75160 0.91130 0.13700
C 	C 	0.56560 0.74050 0.89578 -0.18900
H 	H 	0.61670 0.79420 0.89390 0.10800
C 	C 	0.56890 0.65210 0.88358 0.10300
H 	H 	0.62220 0.64680 0.87290 -0.02400
C 	C 	0.42690 0.58210 0.90074 0.09700
H 	H 	0.37780 0.52640 0.90230 -0.02100
C 	C 	0.41740 0.66720 0.91384 -0.17800
H 	H 	0.36460 0.66900 0.92460 0.10000
C 	C 	0.47140 0.13830 0.91144 0.14200
C 	C 	0.41070 0.15160 0.89297 -0.18100
H 	H 	0.36050 0.09950 0.88920 0.10200
C 	C 	0.42240 0.23890 0.88009 0.09900
H 	H 	0.38280 0.24310 0.86710 -0.02400
C 	C 	0.54350 0.30790 0.90314 0.09400
H 	H 	0.59190 0.36200 0.90670 -0.02000
C 	C 	0.53390 0.22280 0.91665 -0.17400
H 	H 	0.57130 0.22240 0.92990 0.09800
C 	C 	0.56890 0.70770 0.96056 -0.16400
H 	H 	0.58940 0.67730 0.94670 0.08500
H 	H 	0.56430 0.65180 0.97140 0.08500
H 	H 	0.62150 0.75950 0.96500 0.09300
C 	C 	0.33990 0.17700 0.95622 -0.17700
H 	H 	0.32020 0.18330 0.94100 0.09200
H 	H 	0.33990 0.24690 0.96290 0.08900
H 	H 	0.28910 0.13180 0.96370 0.10100
C 	C 	0.45140 0.94480 0.98194 -0.04400
C 	C 	0.35640 0.94400 0.99254 0.12400
C 	C 	0.35170 0.93990 0.01523 -0.08600
C 	C 	0.44370 0.94220 0.02641 0.00300
H 	H 	0.44070 0.94250 0.04170 0.02500
C 	C 	0.54240 0.94400 0.01651 -0.08900
C 	C 	0.54460 0.94200 0.99406 0.12600
C 	C 	0.25130 0.94220 0.02727 0.10600
C 	C 	0.17330 0.01480 0.02343 -0.14400
H 	H 	0.17770 0.06200 0.01160 0.09000
C 	C 	0.08620 0.01700 0.03762 0.08600
H 	H 	0.03320 0.06830 0.03530 -0.00700
C 	C 	0.14850 0.87980 0.05738 0.07400
H 	H 	0.14050 0.83240 0.06910 -0.01100
C 	C 	0.23650 0.87200 0.04444 -0.15900
H 	H 	0.28730 0.81890 0.04720 0.08100
C 	C 	0.64050 0.94800 0.02958 0.10700
C 	C 	0.64390 0.01670 0.04691 -0.15200
H 	H 	0.58510 0.05990 0.05020 0.08300
C 	C 	0.73360 0.02140 0.05925 0.09200
H 	H 	0.73590 0.07060 0.07070 -0.02300
C 	C 	0.81190 0.89180 0.03943 0.08300
H 	H 	0.86970 0.84600 0.03700 -0.01400
C 	C 	0.72730 0.88470 0.02602 -0.16500
H 	H 	0.72790 0.83660 0.01430 0.09300
C 	C 	0.22170 0.84860 0.97450 -0.16400
H 	H 	0.27460 0.81070 0.96600 0.09600
H 	H 	0.15810 0.85850 0.96580 0.08200
H 	H 	0.20440 0.80780 0.98740 0.08400
C 	C 	0.68230 0.04170 0.97865 -0.13000
H 	H 	0.62700 0.08690 0.97270 0.08700
H 	H 	0.73950 0.03500 0.96820 0.07800
H 	H 	0.70950 0.07280 0.99200 0.07600
I 	I 	0.05638 0.19820 0.59913 -0.46500
I 	I 	0.04593 0.83780 0.59021 -0.44900
Cu	Cu	0.05077 0.02989 0.57470 0.78800
Cu	Cu	0.05523 0.00476 0.61534 0.78700
O 	O 	0.53110 0.24210 0.45846 -0.17700
O 	O 	0.55540 0.86890 0.45785 -0.17600
O 	O 	0.73690 0.04980 0.48077 -0.18000
O 	O 	0.35980 0.05900 0.48311 -0.19100
N 	N 	0.49760 0.42710 0.38566 -0.25100
N 	N 	0.51390 0.68310 0.38495 -0.25100
N 	N 	0.92510 0.04840 0.55393 -0.24300
N 	N 	0.18200 0.03980 0.55592 -0.25700
C 	C 	0.54320 0.05450 0.45773 -0.06200
C 	C 	0.53100 0.14940 0.44628 0.13700
C 	C 	0.52270 0.14860 0.42432 -0.09500
C 	C 	0.52230 0.05570 0.41395 0.02000
H 	H 	0.51430 0.05640 0.39870 0.03200
C 	C 	0.53300 0.95860 0.42408 -0.09000
C 	C 	0.54660 0.96300 0.44641 0.14800
C 	C 	0.51420 0.24840 0.41130 0.13700
C 	C 	0.43440 0.25950 0.39578 -0.18900
H 	H 	0.38330 0.20580 0.39390 0.10800
C 	C 	0.43110 0.34790 0.38358 0.10300
H 	H 	0.37780 0.35320 0.37290 -0.02400
C 	C 	0.57310 0.41790 0.40074 0.09700
H 	H 	0.62220 0.47360 0.40230 -0.02100
C 	C 	0.58260 0.33280 0.41384 -0.17800
H 	H 	0.63540 0.33100 0.42460 0.10000
C 	C 	0.52860 0.86170 0.41144 0.14200
C 	C 	0.58930 0.84840 0.39297 -0.18100
H 	H 	0.63950 0.90050 0.38920 0.10200
C 	C 	0.57760 0.76110 0.38009 0.09900
H 	H 	0.61720 0.75690 0.36710 -0.02400
C 	C 	0.45650 0.69210 0.40314 0.09400
H 	H 	0.40810 0.63800 0.40670 -0.02000
C 	C 	0.46610 0.77720 0.41665 -0.17400
H 	H 	0.42870 0.77760 0.42990 0.09800
C 	C 	0.43110 0.29230 0.46056 -0.16400
H 	H 	0.41060 0.32270 0.44670 0.08500
H 	H 	0.43570 0.34820 0.47140 0.08500
H 	H 	0.37850 0.24050 0.46500 0.09300
C 	C 	0.66010 0.82300 0.45622 -0.17700
H 	H 	0.67980 0.81670 0.44100 0.09200
H 	H 	0.66010 0.75310 0.46290 0.08900
H 	H 	0.71090 0.86820 0.46370 0.10100
C 	C 	0.54860 0.05520 0.48194 -0.04400
C 	C 	0.64360 0.05600 0.49254 0.12400
C 	C 	0.64830 0.06010 0.51523 -0.08600
C 	C 	0.55630 0.05780 0.52641 0.00300
H 	H 	0.55930 0.05750 0.54170 0.02600
C 	C 	0.45760 0.05600 0.51651 -0.08900
C 	C 	0.45540 0.05800 0.49406 0.12600
C 	C 	0.74870 0.05780 0.52727 0.10600
C 	C 	0.82670 0.98520 0.52343 -0.14400
H 	H 	0.82230 0.93800 0.51160 0.09000
C 	C 	0.91380 0.98300 0.53762 0.08600
H 	H 	0.96680 0.93170 0.53530 -0.00700
C 	C 	0.85150 0.12020 0.55738 0.07400
H 	H 	0.85950 0.16760 0.56910 -0.01100
C 	C 	0.76350 0.12800 0.54444 -0.15900
H 	H 	0.71270 0.18110 0.54720 0.08100
C 	C 	0.35950 0.05200 0.52958 0.10700
C 	C 	0.35610 0.98330 0.54691 -0.15200
H 	H 	0.41490 0.94010 0.55020 0.08300
C 	C 	0.26640 0.97860 0.55925 0.09200
H 	H 	0.26410 0.92940 0.57070 -0.02300
C 	C 	0.18810 0.10820 0.53943 0.08300
H 	H 	0.13030 0.15400 0.53700 -0.01400
C 	C 	0.27270 0.11530 0.52602 -0.16500
H 	H 	0.27210 0.16340 0.51430 0.09300
C 	C 	0.77830 0.15140 0.47450 -0.16400
H 	H 	0.72540 0.18930 0.46600 0.09600
H 	H 	0.84190 0.14150 0.46580 0.08200
H 	H 	0.79560 0.19220 0.48740 0.08400
C 	C 	0.31770 0.95830 0.47865 -0.13000
H 	H 	0.37300 0.91310 0.47270 0.08700
H 	H 	0.26050 0.96500 0.46820 0.07800
H 	H 	0.29050 0.92720 0.49200 0.07600
