data_crystal

_cell_length_a 33.97000
_cell_length_b 33.97000
_cell_length_c 33.97000
_cell_angle_alpha 90.00000
_cell_angle_beta  90.00000
_cell_angle_gamma 90.00000

_symmetry_space_group_name_	'P 1'
_symmetry_space_group_name_H-M	'P 1'

loop_
_symmetry_equiv_pos_as_xyz
  x,y,z

loop_
_atom_site_label
_atom_site_type_symbol
_atom_site_fract_x
_atom_site_fract_y
_atom_site_fract_z
_atom_site_charge
Cu	Cu	-0.00000 0.46110 -0.00000 0.89300
Cu	Cu	0.50000 0.50000 0.78218 0.90500
Cu	Cu	0.78218 0.50000 0.50000 0.90500
Cu	Cu	0.50000 0.50000 0.29502 0.90300
Cu	Cu	0.21782 0.50000 0.50000 0.90400
Cu	Cu	0.50000 0.50000 0.21782 0.90400
Cu	Cu	-0.00000 -0.00000 0.46110 0.89200
Cu	Cu	0.70498 0.50000 0.50000 0.90300
Cu	Cu	0.50000 0.70498 0.50000 0.90300
Cu	Cu	0.29502 0.50000 0.50000 0.90300
Cu	Cu	0.50000 0.21782 0.50000 0.90400
Cu	Cu	-0.00000 0.53890 -0.00000 0.89200
Cu	Cu	-0.00000 -0.00000 0.53890 0.89200
Cu	Cu	0.46110 0.00000 -0.00000 0.89200
Cu	Cu	0.50000 0.50000 0.70498 0.90300
Cu	Cu	0.50000 0.78218 0.50000 0.90400
Cu	Cu	0.50000 0.29502 0.50000 0.90300
Cu	Cu	0.53890 0.00000 -0.00000 0.89200
H 	H 	0.80540 0.50000 0.69200 0.08600
H 	H 	0.19460 0.50000 0.30800 0.08400
H 	H 	0.19460 0.69200 0.50000 0.08500
H 	H 	0.15540 0.54980 0.79970 0.02800
H 	H 	0.44080 0.08840 0.08840 0.02800
H 	H 	0.45020 0.15540 0.79970 0.02700
H 	H 	0.20500 0.24770 0.54990 0.06300
H 	H 	0.91160 0.91160 0.55920 0.03300
H 	H 	0.50000 0.62440 0.80340 0.02700
H 	H 	0.54990 0.20500 0.24770 0.06300
H 	H 	0.84460 0.54980 0.79970 0.02900
H 	H 	0.24770 0.54990 0.20500 0.06300
H 	H 	0.91160 0.44080 0.91160 0.03300
H 	H 	0.68490 0.37430 0.50000 0.04900
H 	H 	0.79500 0.75230 0.54990 0.06400
H 	H 	0.80340 0.62440 0.50000 0.02700
H 	H 	0.79500 0.54990 0.24770 0.06300
H 	H 	0.79970 0.84460 0.54980 0.02900
H 	H 	0.19660 0.37560 0.50000 0.02600
H 	H 	0.50000 0.30800 0.19460 0.08400
H 	H 	0.86320 0.44170 0.86320 0.07300
H 	H 	0.54990 0.75230 0.79500 0.06400
H 	H 	0.79500 0.24770 0.54990 0.06300
H 	H 	0.62570 0.68490 0.50000 0.04900
H 	H 	0.50000 0.80340 0.37560 0.02700
H 	H 	0.45010 0.24770 0.20500 0.06300
H 	H 	0.79970 0.15540 0.45020 0.02700
H 	H 	0.15540 0.45020 0.79970 0.02700
H 	H 	0.91160 0.08840 0.44080 0.03000
H 	H 	0.19460 0.50000 0.69200 0.08500
H 	H 	0.50000 0.19660 0.37560 0.02600
H 	H 	0.62570 0.50000 0.68490 0.04900
H 	H 	0.62440 0.50000 0.80340 0.02700
H 	H 	0.44080 0.08840 0.91160 0.03000
H 	H 	0.50000 0.62440 0.19660 0.02600
H 	H 	0.50000 0.37560 0.80340 0.02700
H 	H 	0.08840 0.91160 0.55920 0.03100
H 	H 	0.13680 0.13680 0.55830 0.07200
H 	H 	0.55830 0.13680 0.13680 0.07200
H 	H 	0.84460 0.54980 0.20030 0.02800
H 	H 	0.15540 0.79970 0.45020 0.02700
H 	H 	0.45010 0.75230 0.79500 0.06400
H 	H 	0.55920 0.91160 0.91160 0.03300
H 	H 	0.55920 0.08840 0.91160 0.03100
H 	H 	0.45010 0.79500 0.75230 0.06400
H 	H 	0.50000 0.69200 0.19460 0.08500
H 	H 	0.54980 0.79970 0.84460 0.02900
H 	H 	0.20030 0.15540 0.54980 0.02700
H 	H 	0.31510 0.37430 0.50000 0.04900
H 	H 	0.50000 0.37430 0.68490 0.04900
H 	H 	0.24770 0.20500 0.45010 0.06300
H 	H 	0.15540 0.45020 0.20030 0.02700
H 	H 	0.79500 0.75230 0.45010 0.06400
H 	H 	0.20030 0.45020 0.84460 0.02800
H 	H 	0.79970 0.54980 0.15540 0.02800
H 	H 	0.19660 0.50000 0.37560 0.02600
H 	H 	0.91160 0.55920 0.08840 0.03100
H 	H 	0.13680 0.86320 0.44170 0.07200
H 	H 	0.20500 0.54990 0.75230 0.06300
H 	H 	0.15540 0.79970 0.54980 0.02800
H 	H 	0.75230 0.45010 0.20500 0.06300
H 	H 	0.50000 0.31510 0.62570 0.04900
H 	H 	0.30800 0.80540 0.50000 0.08500
H 	H 	0.54990 0.24770 0.20500 0.06300
H 	H 	0.62570 0.31510 0.50000 0.04900
H 	H 	0.15540 0.20030 0.45020 0.02700
H 	H 	0.84460 0.45020 0.20030 0.02800
H 	H 	0.75230 0.54990 0.20500 0.06300
H 	H 	0.20030 0.84460 0.45020 0.02800
H 	H 	0.24770 0.45010 0.20500 0.06300
H 	H 	0.20500 0.75230 0.54990 0.06300
H 	H 	0.86320 0.44170 0.13680 0.07200
H 	H 	0.80540 0.30800 0.50000 0.08500
H 	H 	0.44170 0.13680 0.13680 0.07200
H 	H 	0.45010 0.24770 0.79500 0.06300
H 	H 	0.54990 0.79500 0.75230 0.06400
H 	H 	0.69200 0.19460 0.50000 0.08500
H 	H 	0.45020 0.79970 0.15540 0.02700
H 	H 	0.62440 0.19660 0.50000 0.02600
H 	H 	0.91160 0.08840 0.55920 0.03100
H 	H 	0.50000 0.80540 0.30800 0.08500
H 	H 	0.75230 0.54990 0.79500 0.06400
H 	H 	0.31510 0.50000 0.62570 0.04900
H 	H 	0.13680 0.13680 0.44170 0.07200
H 	H 	0.45010 0.20500 0.75230 0.06300
H 	H 	0.54980 0.20030 0.15540 0.02700
H 	H 	0.37430 0.31510 0.50000 0.04900
H 	H 	0.79970 0.54980 0.84460 0.02900
H 	H 	0.50000 0.62570 0.68490 0.04900
H 	H 	0.08840 0.55920 0.08840 0.02800
H 	H 	0.79970 0.45020 0.84460 0.02900
H 	H 	0.13680 0.44170 0.13680 0.07200
H 	H 	0.20500 0.75230 0.45010 0.06300
H 	H 	0.24770 0.79500 0.54990 0.06300
H 	H 	0.50000 0.37560 0.19660 0.02600
H 	H 	0.37560 0.19660 0.50000 0.02600
H 	H 	0.75230 0.45010 0.79500 0.06400
H 	H 	0.45020 0.79970 0.84460 0.02900
H 	H 	0.19660 0.62440 0.50000 0.02600
H 	H 	0.55830 0.86320 0.13680 0.07200
H 	H 	0.50000 0.19460 0.69200 0.08500
H 	H 	0.69200 0.80540 0.50000 0.08600
H 	H 	0.75230 0.20500 0.54990 0.06300
H 	H 	0.86320 0.55830 0.13680 0.07200
H 	H 	0.44170 0.86320 0.13680 0.07200
H 	H 	0.50000 0.30800 0.80540 0.08500
H 	H 	0.79970 0.45020 0.15540 0.02700
H 	H 	0.62440 0.80340 0.50000 0.02700
H 	H 	0.20030 0.54980 0.15540 0.02700
H 	H 	0.79500 0.45010 0.24770 0.06300
H 	H 	0.31510 0.62570 0.50000 0.04900
H 	H 	0.50000 0.19460 0.30800 0.08400
H 	H 	0.08840 0.44080 0.08840 0.02800
H 	H 	0.84460 0.20030 0.45020 0.02800
H 	H 	0.54980 0.20030 0.84460 0.02800
H 	H 	0.86320 0.13680 0.55830 0.07200
H 	H 	0.91160 0.44080 0.08840 0.03000
H 	H 	0.80540 0.50000 0.30800 0.08500
H 	H 	0.24770 0.79500 0.45010 0.06300
H 	H 	0.45020 0.84460 0.79970 0.02900
H 	H 	0.69200 0.50000 0.80540 0.08600
H 	H 	0.20030 0.54980 0.84460 0.02800
H 	H 	0.24770 0.20500 0.54990 0.06300
H 	H 	0.54980 0.15540 0.79970 0.02800
H 	H 	0.13680 0.86320 0.55830 0.07200
H 	H 	0.15540 0.54980 0.20030 0.02700
H 	H 	0.86320 0.55830 0.86320 0.07300
H 	H 	0.37430 0.68490 0.50000 0.04900
H 	H 	0.30800 0.50000 0.19460 0.08400
H 	H 	0.54980 0.15540 0.20030 0.02700
H 	H 	0.50000 0.68490 0.62570 0.04900
H 	H 	0.45020 0.84460 0.20030 0.02800
H 	H 	0.62570 0.50000 0.31510 0.04900
H 	H 	0.37560 0.80340 0.50000 0.02700
H 	H 	0.80340 0.50000 0.62440 0.02700
H 	H 	0.45020 0.15540 0.20030 0.02700
H 	H 	0.50000 0.37430 0.31510 0.04900
H 	H 	0.20500 0.54990 0.24770 0.06300
H 	H 	0.84460 0.79970 0.54980 0.02900
H 	H 	0.69200 0.50000 0.19460 0.08500
H 	H 	0.24770 0.45010 0.79500 0.06300
H 	H 	0.84460 0.79970 0.45020 0.02900
H 	H 	0.20500 0.24770 0.45010 0.06300
H 	H 	0.54990 0.20500 0.75230 0.06300
H 	H 	0.86320 0.86320 0.55830 0.07300
H 	H 	0.50000 0.80340 0.62440 0.02700
H 	H 	0.13680 0.55830 0.13680 0.07200
H 	H 	0.62440 0.50000 0.19660 0.02600
H 	H 	0.54980 0.79970 0.15540 0.02800
H 	H 	0.55920 0.08840 0.08840 0.02800
H 	H 	0.54990 0.24770 0.79500 0.06300
H 	H 	0.55830 0.13680 0.86320 0.07200
H 	H 	0.79500 0.24770 0.45010 0.06300
H 	H 	0.50000 0.69200 0.80540 0.08600
H 	H 	0.80340 0.37560 0.50000 0.02700
H 	H 	0.86320 0.86320 0.44170 0.07300
H 	H 	0.50000 0.19660 0.62440 0.02600
H 	H 	0.44080 0.91160 0.91160 0.03300
H 	H 	0.15540 0.20030 0.54980 0.02700
H 	H 	0.45020 0.20030 0.15540 0.02700
H 	H 	0.20030 0.84460 0.54980 0.02800
H 	H 	0.79970 0.15540 0.54980 0.02800
H 	H 	0.08840 0.44080 0.91160 0.03000
H 	H 	0.45010 0.20500 0.24770 0.06300
H 	H 	0.30800 0.50000 0.80540 0.08500
H 	H 	0.55830 0.86320 0.86320 0.07300
H 	H 	0.54980 0.84460 0.79970 0.02900
H 	H 	0.84460 0.45020 0.79970 0.02900
H 	H 	0.44080 0.91160 0.08840 0.03000
H 	H 	0.50000 0.68490 0.37430 0.04900
H 	H 	0.30800 0.19460 0.50000 0.08400
H 	H 	0.13680 0.44170 0.86320 0.07200
H 	H 	0.75230 0.79500 0.54990 0.06400
H 	H 	0.37430 0.50000 0.68490 0.04900
H 	H 	0.20500 0.45010 0.24770 0.06300
H 	H 	0.20500 0.45010 0.75230 0.06300
H 	H 	0.13680 0.55830 0.86320 0.07200
H 	H 	0.08840 0.55920 0.91160 0.03100
H 	H 	0.68490 0.50000 0.37430 0.04900
H 	H 	0.86320 0.13680 0.44170 0.07200
H 	H 	0.68490 0.50000 0.62570 0.04900
H 	H 	0.45010 0.75230 0.20500 0.06300
H 	H 	0.20030 0.15540 0.45020 0.02700
H 	H 	0.45010 0.79500 0.24770 0.06300
H 	H 	0.55920 0.91160 0.08840 0.03100
H 	H 	0.31510 0.50000 0.37430 0.04900
H 	H 	0.44170 0.86320 0.86320 0.07300
H 	H 	0.19460 0.30800 0.50000 0.08400
H 	H 	0.79500 0.45010 0.75230 0.06400
H 	H 	0.75230 0.20500 0.45010 0.06300
H 	H 	0.37430 0.50000 0.31510 0.04900
H 	H 	0.37560 0.50000 0.19660 0.02600
H 	H 	0.80540 0.69200 0.50000 0.08600
H 	H 	0.84460 0.20030 0.54980 0.02800
H 	H 	0.91160 0.91160 0.44080 0.03300
H 	H 	0.54990 0.75230 0.20500 0.06300
H 	H 	0.50000 0.31510 0.37430 0.04900
H 	H 	0.08840 0.08840 0.44080 0.02800
H 	H 	0.50000 0.62570 0.31510 0.04900
H 	H 	0.08840 0.08840 0.55920 0.02800
H 	H 	0.50000 0.80540 0.69200 0.08600
H 	H 	0.79970 0.84460 0.45020 0.02900
H 	H 	0.45020 0.20030 0.84460 0.02800
H 	H 	0.19660 0.50000 0.62440 0.02600
H 	H 	0.75230 0.79500 0.45010 0.06400
H 	H 	0.24770 0.54990 0.79500 0.06300
H 	H 	0.20030 0.45020 0.15540 0.02700
H 	H 	0.08840 0.91160 0.44080 0.03000
H 	H 	0.54990 0.79500 0.24770 0.06300
H 	H 	0.79500 0.54990 0.75230 0.06400
H 	H 	0.54980 0.84460 0.20030 0.02800
H 	H 	0.80340 0.50000 0.37560 0.02700
H 	H 	0.37560 0.50000 0.80340 0.02700
H 	H 	0.44170 0.13680 0.86320 0.07200
H 	H 	0.91160 0.55920 0.91160 0.03300
H 	H 	0.68490 0.62570 0.50000 0.04900
C 	C 	0.23042 0.76958 0.50000 0.16000
C 	C 	0.52962 0.22935 0.79632 -0.09200
C 	C 	0.78139 0.50000 0.67879 -0.15200
C 	C 	0.52977 0.79934 0.82588 -0.00400
C 	C 	0.78139 0.32121 0.50000 -0.15200
C 	C 	0.17412 0.79934 0.47023 -0.00400
C 	C 	0.67879 0.78139 0.50000 -0.15200
C 	C 	0.76958 0.50000 0.76958 0.16000
C 	C 	0.52962 0.77065 0.20368 -0.09200
C 	C 	0.50000 0.22005 0.63859 0.05400
C 	C 	0.25621 0.50000 0.57439 0.36200
C 	C 	0.23042 0.23042 0.50000 0.16100
C 	C 	0.52977 0.82588 0.20066 -0.00400
C 	C 	0.94784 0.94784 0.50000 0.34500
C 	C 	0.87291 0.53461 0.12709 -0.12700
C 	C 	0.22005 0.50000 0.36141 0.05400
C 	C 	0.17273 0.82727 0.50000 -0.03900
C 	C 	0.74381 0.61808 0.50000 -0.10500
C 	C 	0.20066 0.17412 0.52977 -0.00300
C 	C 	0.50000 0.29117 0.36101 0.00100
C 	C 	0.50000 0.05216 0.05216 0.34600
C 	C 	0.77065 0.47038 0.79632 -0.09200
C 	C 	0.12709 0.53461 0.12709 -0.12900
C 	C 	0.47023 0.79934 0.17412 -0.00400
C 	C 	0.20066 0.47023 0.17412 -0.00300
C 	C 	0.36101 0.50000 0.29117 0.00100
C 	C 	0.52962 0.20368 0.22935 -0.09200
C 	C 	0.38192 0.50000 0.25619 -0.10600
C 	C 	0.47023 0.17412 0.20066 -0.00300
C 	C 	0.85836 0.50000 0.14164 0.07700
C 	C 	0.05216 0.50000 0.94784 0.34500
C 	C 	0.77065 0.79632 0.47038 -0.09200
C 	C 	0.50000 0.22005 0.36141 0.05400
C 	C 	0.79934 0.17412 0.52977 -0.00400
C 	C 	0.29117 0.50000 0.36101 0.00100
C 	C 	0.50000 0.29047 0.67954 -0.02900
C 	C 	0.50000 0.25361 0.69929 0.10800
C 	C 	0.50000 0.36141 0.77995 0.05400
C 	C 	0.63899 0.29117 0.50000 0.00100
C 	C 	0.79934 0.82588 0.47023 -0.00400
C 	C 	0.17273 0.50000 0.82727 -0.03900
C 	C 	0.78139 0.50000 0.32121 -0.15200
C 	C 	0.09793 0.09793 0.46456 0.04300
C 	C 	0.50000 0.82727 0.82727 -0.03800
C 	C 	0.94784 0.05216 0.50000 0.34500
C 	C 	0.20368 0.22935 0.47038 -0.09200
C 	C 	0.38192 0.25619 0.50000 -0.10600
C 	C 	0.50000 0.25621 0.42561 0.36200
C 	C 	0.77065 0.52962 0.79632 -0.09200
C 	C 	0.22935 0.52962 0.79632 -0.09200
C 	C 	0.63899 0.70883 0.50000 0.00100
C 	C 	0.22935 0.20368 0.47038 -0.09200
C 	C 	0.61808 0.74381 0.50000 -0.10500
C 	C 	0.22005 0.63859 0.50000 0.05400
C 	C 	0.42561 0.74379 0.50000 0.36200
C 	C 	0.23042 0.50000 0.76958 0.16000
C 	C 	0.79632 0.22935 0.52962 -0.09200
C 	C 	0.50000 0.70883 0.63899 0.00100
C 	C 	0.50000 0.74639 0.69929 0.10800
C 	C 	0.50000 0.36101 0.29117 0.00100
C 	C 	0.74379 0.42561 0.50000 0.36200
C 	C 	0.52977 0.17412 0.20066 -0.00300
C 	C 	0.05216 0.94784 0.50000 0.34500
C 	C 	0.50000 0.08375 0.91625 -0.10300
C 	C 	0.12709 0.53461 0.87291 -0.12700
C 	C 	0.32046 0.50000 0.29047 -0.02900
C 	C 	0.25619 0.38192 0.50000 -0.10600
C 	C 	0.14164 0.85836 0.50000 0.07700
C 	C 	0.67954 0.70953 0.50000 -0.02800
C 	C 	0.50000 0.25621 0.57439 0.36200
C 	C 	0.20368 0.47038 0.77065 -0.09200
C 	C 	0.50000 0.32121 0.78139 -0.15200
C 	C 	0.36141 0.77995 0.50000 0.05400
C 	C 	0.90207 0.46456 0.09793 0.04200
C 	C 	0.53544 0.90207 0.90207 0.04100
C 	C 	0.69929 0.74639 0.50000 0.10800
C 	C 	0.50000 0.74381 0.38192 -0.10500
C 	C 	0.82727 0.17273 0.50000 -0.03900
C 	C 	0.22935 0.20368 0.52962 -0.09200
C 	C 	0.17412 0.47023 0.20066 -0.00300
C 	C 	0.50000 0.21861 0.67879 -0.15200
C 	C 	0.70883 0.36101 0.50000 0.00100
C 	C 	0.36141 0.50000 0.77995 0.05400
C 	C 	0.29117 0.50000 0.63899 0.00100
C 	C 	0.74639 0.69929 0.50000 0.10800
C 	C 	0.25361 0.50000 0.30071 0.10700
C 	C 	0.50000 0.36141 0.22005 0.05400
C 	C 	0.25619 0.61808 0.50000 -0.10600
C 	C 	0.63859 0.77995 0.50000 0.05400
C 	C 	0.91625 0.50000 0.91625 -0.10000
C 	C 	0.53544 0.09793 0.90207 0.04200
C 	C 	0.22935 0.52962 0.20368 -0.09200
C 	C 	0.50000 0.57439 0.25621 0.36200
C 	C 	0.09793 0.46456 0.09793 0.04300
C 	C 	0.20066 0.17412 0.47023 -0.00300
C 	C 	0.32121 0.21861 0.50000 -0.15200
C 	C 	0.09793 0.90207 0.46456 0.04200
C 	C 	0.46456 0.09793 0.90207 0.04200
C 	C 	0.57439 0.50000 0.74379 0.36200
C 	C 	0.50000 0.23042 0.23042 0.16100
C 	C 	0.67879 0.21861 0.50000 -0.15200
C 	C 	0.50000 0.82727 0.17273 -0.03900
C 	C 	0.52962 0.79632 0.22935 -0.09200
C 	C 	0.82588 0.20066 0.47023 -0.00400
C 	C 	0.50000 0.94784 0.05216 0.34500
C 	C 	0.82727 0.82727 0.50000 -0.03800
C 	C 	0.47038 0.77065 0.20368 -0.09200
C 	C 	0.90207 0.53544 0.90207 0.04100
C 	C 	0.79632 0.47038 0.22935 -0.09200
C 	C 	0.77065 0.20368 0.52962 -0.09200
C 	C 	0.50000 0.67879 0.21861 -0.15200
C 	C 	0.82588 0.79934 0.47023 -0.00400
C 	C 	0.50000 0.70883 0.36101 0.00100
C 	C 	0.17412 0.52977 0.20066 -0.00300
C 	C 	0.50000 0.67879 0.78139 -0.15200
C 	C 	0.09793 0.09793 0.53544 0.04300
C 	C 	0.77065 0.52962 0.20368 -0.09200
C 	C 	0.46539 0.87291 0.12709 -0.12700
C 	C 	0.50000 0.30071 0.25361 0.10700
C 	C 	0.47023 0.20066 0.82588 -0.00400
C 	C 	0.74379 0.57439 0.50000 0.36200
C 	C 	0.87291 0.46539 0.12709 -0.12700
C 	C 	0.82588 0.52977 0.79934 -0.00400
C 	C 	0.79632 0.77065 0.47038 -0.09200
C 	C 	0.77065 0.47038 0.20368 -0.09200
C 	C 	0.52977 0.20066 0.82588 -0.00400
C 	C 	0.77065 0.20368 0.47038 -0.09200
C 	C 	0.50000 0.63899 0.70883 0.00100
C 	C 	0.20368 0.52962 0.22935 -0.09200
C 	C 	0.94784 0.50000 0.05216 0.34500
C 	C 	0.32121 0.50000 0.21861 -0.15200
C 	C 	0.32121 0.78139 0.50000 -0.15200
C 	C 	0.50000 0.38192 0.74381 -0.10500
C 	C 	0.87291 0.87291 0.46539 -0.12500
C 	C 	0.36101 0.70883 0.50000 0.00100
C 	C 	0.67954 0.29047 0.50000 -0.02900
C 	C 	0.90207 0.90207 0.53544 0.04100
C 	C 	0.50000 0.63859 0.77995 0.05400
C 	C 	0.50000 0.70953 0.67954 -0.02800
C 	C 	0.47023 0.17412 0.79934 -0.00400
C 	C 	0.50000 0.67954 0.70953 -0.02800
C 	C 	0.50000 0.67954 0.29047 -0.02900
C 	C 	0.79632 0.77065 0.52962 -0.09200
C 	C 	0.82588 0.52977 0.20066 -0.00400
C 	C 	0.79934 0.52977 0.17412 -0.00400
C 	C 	0.25361 0.50000 0.69929 0.10800
C 	C 	0.50000 0.57439 0.74379 0.36200
C 	C 	0.29117 0.36101 0.50000 0.00100
C 	C 	0.61808 0.50000 0.25619 -0.10600
C 	C 	0.12709 0.12709 0.46539 -0.12900
C 	C 	0.53544 0.90207 0.09793 0.04200
C 	C 	0.47038 0.79632 0.77065 -0.09200
C 	C 	0.50000 0.78139 0.67879 -0.15200
C 	C 	0.50000 0.85836 0.14164 0.07700
C 	C 	0.25621 0.42561 0.50000 0.36200
C 	C 	0.23042 0.50000 0.23042 0.16100
C 	C 	0.20066 0.82588 0.47023 -0.00400
C 	C 	0.53461 0.12709 0.87291 -0.12700
C 	C 	0.17412 0.52977 0.79934 -0.00400
C 	C 	0.36101 0.50000 0.70883 0.00100
C 	C 	0.69929 0.25361 0.50000 0.10800
C 	C 	0.50000 0.91625 0.08375 -0.10300
C 	C 	0.42561 0.25621 0.50000 0.36200
C 	C 	0.47023 0.79934 0.82588 -0.00400
C 	C 	0.79632 0.52962 0.22935 -0.09200
C 	C 	0.20368 0.77065 0.47038 -0.09200
C 	C 	0.47038 0.20368 0.22935 -0.09200
C 	C 	0.20066 0.47023 0.82588 -0.00400
C 	C 	0.87291 0.53461 0.87291 -0.12500
C 	C 	0.79934 0.47023 0.17412 -0.00400
C 	C 	0.91625 0.08375 0.50000 -0.10300
C 	C 	0.67954 0.50000 0.70953 -0.02800
C 	C 	0.47023 0.82588 0.20066 -0.00400
C 	C 	0.50000 0.29047 0.32046 -0.02900
C 	C 	0.50000 0.74381 0.61808 -0.10500
C 	C 	0.42561 0.50000 0.25621 0.36200
C 	C 	0.47038 0.20368 0.77065 -0.09200
C 	C 	0.12709 0.87291 0.53461 -0.12700
C 	C 	0.12709 0.46539 0.87291 -0.12700
C 	C 	0.50000 0.25619 0.61808 -0.10600
C 	C 	0.20368 0.52962 0.77065 -0.09200
C 	C 	0.32046 0.50000 0.70953 -0.02900
C 	C 	0.77995 0.63859 0.50000 0.05400
C 	C 	0.29117 0.63899 0.50000 0.00100
C 	C 	0.70883 0.50000 0.63899 0.00100
C 	C 	0.22935 0.79632 0.47038 -0.09200
C 	C 	0.08375 0.50000 0.08375 -0.10700
C 	C 	0.50000 0.36101 0.70883 0.00100
C 	C 	0.25621 0.57439 0.50000 0.36200
C 	C 	0.21861 0.67879 0.50000 -0.15200
C 	C 	0.52977 0.20066 0.17412 -0.00300
C 	C 	0.67879 0.50000 0.21861 -0.15200
C 	C 	0.50000 0.14164 0.85836 0.07700
C 	C 	0.91625 0.50000 0.08375 -0.10300
C 	C 	0.17412 0.20066 0.52977 -0.00300
C 	C 	0.67954 0.50000 0.29047 -0.02900
C 	C 	0.50000 0.42561 0.25621 0.36200
C 	C 	0.53461 0.87291 0.12709 -0.12700
C 	C 	0.74381 0.38192 0.50000 -0.10500
C 	C 	0.21861 0.50000 0.67879 -0.15200
C 	C 	0.67879 0.50000 0.78139 -0.15200
C 	C 	0.50000 0.29117 0.63899 0.00100
C 	C 	0.50000 0.69929 0.74639 0.10800
C 	C 	0.52962 0.77065 0.79632 -0.09200
C 	C 	0.50000 0.74379 0.57439 0.36200
C 	C 	0.74381 0.50000 0.38192 -0.10500
C 	C 	0.52962 0.20368 0.77065 -0.09200
C 	C 	0.50000 0.76958 0.23042 0.16000
C 	C 	0.36141 0.22005 0.50000 0.05400
C 	C 	0.46539 0.12709 0.87291 -0.12700
C 	C 	0.50000 0.23042 0.76958 0.16000
C 	C 	0.77995 0.50000 0.36141 0.05400
C 	C 	0.50000 0.14164 0.14164 0.07800
C 	C 	0.05216 0.50000 0.05216 0.34600
C 	C 	0.21861 0.50000 0.32121 -0.15200
C 	C 	0.63899 0.50000 0.70883 0.00100
C 	C 	0.50000 0.61808 0.74381 -0.10500
C 	C 	0.52977 0.17412 0.79934 -0.00400
C 	C 	0.29047 0.50000 0.67954 -0.02900
C 	C 	0.50000 0.08375 0.08375 -0.10700
C 	C 	0.57439 0.50000 0.25621 0.36200
C 	C 	0.52962 0.22935 0.20368 -0.09200
C 	C 	0.90207 0.90207 0.46456 0.04100
C 	C 	0.82727 0.50000 0.17273 -0.03900
C 	C 	0.09793 0.90207 0.53544 0.04200
C 	C 	0.82588 0.20066 0.52977 -0.00400
C 	C 	0.79934 0.47023 0.82588 -0.00400
C 	C 	0.47038 0.22935 0.20368 -0.09200
C 	C 	0.17412 0.20066 0.47023 -0.00300
C 	C 	0.57439 0.25621 0.50000 0.36200
C 	C 	0.79934 0.52977 0.82588 -0.00400
C 	C 	0.47023 0.82588 0.79934 -0.00400
C 	C 	0.50000 0.94784 0.94784 0.34500
C 	C 	0.38192 0.74381 0.50000 -0.10500
C 	C 	0.50000 0.91625 0.91625 -0.10000
C 	C 	0.50000 0.30071 0.74639 0.10800
C 	C 	0.63859 0.22005 0.50000 0.05400
C 	C 	0.82588 0.47023 0.79934 -0.00400
C 	C 	0.70953 0.32046 0.50000 -0.02900
C 	C 	0.42561 0.50000 0.74379 0.36200
C 	C 	0.76958 0.23042 0.50000 0.16000
C 	C 	0.50000 0.42561 0.74379 0.36200
C 	C 	0.50000 0.74379 0.42561 0.36200
C 	C 	0.74379 0.50000 0.57439 0.36200
C 	C 	0.47038 0.79632 0.22935 -0.09200
C 	C 	0.46539 0.12709 0.12709 -0.12900
C 	C 	0.53461 0.87291 0.87291 -0.12500
C 	C 	0.77995 0.50000 0.63859 0.05400
C 	C 	0.50000 0.63899 0.29117 0.00100
C 	C 	0.50000 0.25619 0.38192 -0.10600
C 	C 	0.50000 0.78139 0.32121 -0.15200
C 	C 	0.70883 0.50000 0.36101 0.00100
C 	C 	0.08375 0.91625 0.50000 -0.10300
C 	C 	0.50000 0.17273 0.17273 -0.04000
C 	C 	0.74379 0.50000 0.42561 0.36200
C 	C 	0.76958 0.76958 0.50000 0.16000
C 	C 	0.91625 0.91625 0.50000 -0.10000
C 	C 	0.30071 0.50000 0.74639 0.10800
C 	C 	0.08375 0.50000 0.91625 -0.10300
C 	C 	0.20066 0.52977 0.82588 -0.00400
C 	C 	0.22935 0.47038 0.20368 -0.09200
C 	C 	0.70953 0.50000 0.67954 -0.02800
C 	C 	0.47023 0.20066 0.17412 -0.00300
C 	C 	0.38192 0.50000 0.74381 -0.10500
C 	C 	0.29047 0.67954 0.50000 -0.02900
C 	C 	0.50000 0.85836 0.85836 0.07600
C 	C 	0.46456 0.09793 0.09793 0.04300
C 	C 	0.52977 0.82588 0.79934 -0.00400
C 	C 	0.46456 0.90207 0.90207 0.04100
C 	C 	0.74639 0.50000 0.69929 0.10800
C 	C 	0.87291 0.46539 0.87291 -0.12500
C 	C 	0.90207 0.09793 0.53544 0.04200
C 	C 	0.20066 0.82588 0.52977 -0.00400
C 	C 	0.50000 0.38192 0.25619 -0.10600
C 	C 	0.20368 0.47038 0.22935 -0.09200
C 	C 	0.46456 0.90207 0.09793 0.04200
C 	C 	0.61808 0.25619 0.50000 -0.10600
C 	C 	0.46539 0.87291 0.87291 -0.12500
C 	C 	0.63899 0.50000 0.29117 0.00100
C 	C 	0.85836 0.14164 0.50000 0.07700
C 	C 	0.22005 0.50000 0.63859 0.05400
C 	C 	0.82727 0.50000 0.82727 -0.03800
C 	C 	0.85836 0.85836 0.50000 0.07600
C 	C 	0.50000 0.32121 0.21861 -0.15200
C 	C 	0.36141 0.50000 0.22005 0.05400
C 	C 	0.78139 0.67879 0.50000 -0.15200
C 	C 	0.90207 0.53544 0.09793 0.04200
C 	C 	0.50000 0.05216 0.94784 0.34500
C 	C 	0.50000 0.76958 0.76958 0.16000
C 	C 	0.63859 0.50000 0.77995 0.05400
C 	C 	0.50000 0.70953 0.32046 -0.02900
C 	C 	0.90207 0.09793 0.46456 0.04200
C 	C 	0.36101 0.29117 0.50000 0.00100
C 	C 	0.53461 0.12709 0.12709 -0.12900
C 	C 	0.25361 0.30071 0.50000 0.10700
C 	C 	0.53544 0.09793 0.09793 0.04300
C 	C 	0.30071 0.74639 0.50000 0.10800
C 	C 	0.17412 0.47023 0.79934 -0.00400
C 	C 	0.25619 0.50000 0.61808 -0.10600
C 	C 	0.20368 0.22935 0.52962 -0.09200
C 	C 	0.79934 0.17412 0.47023 -0.00400
C 	C 	0.09793 0.53544 0.90207 0.04200
C 	C 	0.76958 0.50000 0.23042 0.16000
C 	C 	0.17273 0.50000 0.17273 -0.04000
C 	C 	0.87291 0.12709 0.46539 -0.12700
C 	C 	0.32046 0.70953 0.50000 -0.02900
C 	C 	0.82588 0.79934 0.52977 -0.00400
C 	C 	0.22935 0.79632 0.52962 -0.09200
C 	C 	0.22935 0.47038 0.79632 -0.09200
C 	C 	0.50000 0.32046 0.29047 -0.02900
C 	C 	0.77065 0.79632 0.52962 -0.09200
C 	C 	0.50000 0.74639 0.30071 0.10800
C 	C 	0.79632 0.22935 0.47038 -0.09200
C 	C 	0.70883 0.63899 0.50000 0.00100
C 	C 	0.50000 0.32046 0.70953 -0.02900
C 	C 	0.32046 0.29047 0.50000 -0.02900
C 	C 	0.47038 0.22935 0.79632 -0.09200
C 	C 	0.63859 0.50000 0.22005 0.05400
C 	C 	0.87291 0.12709 0.53461 -0.12700
C 	C 	0.17273 0.17273 0.50000 -0.04000
C 	C 	0.20368 0.77065 0.52962 -0.09200
C 	C 	0.79632 0.52962 0.77065 -0.09200
C 	C 	0.29047 0.32046 0.50000 -0.02900
C 	C 	0.74381 0.50000 0.61808 -0.10500
C 	C 	0.12709 0.12709 0.53461 -0.12900
C 	C 	0.90207 0.46456 0.90207 0.04100
C 	C 	0.32121 0.50000 0.78139 -0.15200
C 	C 	0.17412 0.79934 0.52977 -0.00400
C 	C 	0.57439 0.74379 0.50000 0.36200
C 	C 	0.79632 0.47038 0.77065 -0.09200
C 	C 	0.50000 0.77995 0.36141 0.05400
C 	C 	0.52977 0.79934 0.17412 -0.00400
C 	C 	0.70953 0.50000 0.32046 -0.02900
C 	C 	0.50000 0.69929 0.25361 0.10800
C 	C 	0.12709 0.87291 0.46539 -0.12700
C 	C 	0.09793 0.46456 0.90207 0.04200
C 	C 	0.85836 0.50000 0.85836 0.07600
C 	C 	0.09793 0.53544 0.09793 0.04300
C 	C 	0.50000 0.21861 0.32121 -0.15200
C 	C 	0.29047 0.50000 0.32046 -0.02900
C 	C 	0.50000 0.61808 0.25619 -0.10600
C 	C 	0.08375 0.08375 0.50000 -0.10700
C 	C 	0.69929 0.50000 0.25361 0.10800
C 	C 	0.74639 0.50000 0.30071 0.10800
C 	C 	0.14164 0.50000 0.14164 0.07800
C 	C 	0.50000 0.17273 0.82727 -0.03900
C 	C 	0.14164 0.50000 0.85836 0.07700
C 	C 	0.30071 0.50000 0.25361 0.10700
C 	C 	0.12709 0.46539 0.12709 -0.12900
C 	C 	0.50000 0.77995 0.63859 0.05400
C 	C 	0.87291 0.87291 0.53461 -0.12500
C 	C 	0.22005 0.36141 0.50000 0.05400
C 	C 	0.69929 0.50000 0.74639 0.10800
C 	C 	0.21861 0.32121 0.50000 -0.15200
C 	C 	0.94784 0.50000 0.94784 0.34500
C 	C 	0.77995 0.36141 0.50000 0.05400
C 	C 	0.25361 0.69929 0.50000 0.10800
C 	C 	0.82588 0.47023 0.20066 -0.00400
C 	C 	0.20066 0.52977 0.17412 -0.00300
C 	C 	0.25619 0.50000 0.38192 -0.10600
C 	C 	0.30071 0.25361 0.50000 0.10700
C 	C 	0.05216 0.05216 0.50000 0.34600
C 	C 	0.79934 0.82588 0.52977 -0.00400
C 	C 	0.74639 0.30071 0.50000 0.10800
C 	C 	0.70953 0.67954 0.50000 -0.02800
C 	C 	0.50000 0.25361 0.30071 0.10700
C 	C 	0.25621 0.50000 0.42561 0.36200
C 	C 	0.52962 0.79632 0.77065 -0.09200
C 	C 	0.47038 0.77065 0.79632 -0.09200
C 	C 	0.50000 0.63859 0.22005 0.05400
C 	C 	0.14164 0.14164 0.50000 0.07800
C 	C 	0.61808 0.50000 0.74381 -0.10500
N 	N 	0.73948 0.50000 0.26052 -0.17100
N 	N 	0.50000 0.26052 0.26052 -0.17100
N 	N 	0.26052 0.50000 0.26052 -0.17100
N 	N 	0.73948 0.73948 0.50000 -0.17000
N 	N 	0.26052 0.26052 0.50000 -0.17100
N 	N 	0.50000 0.73948 0.26052 -0.17100
N 	N 	0.26052 0.50000 0.73948 -0.17100
N 	N 	0.26052 0.73948 0.50000 -0.17100
N 	N 	0.50000 0.26052 0.73948 -0.17100
N 	N 	0.73948 0.50000 0.73948 -0.17000
N 	N 	0.50000 0.73948 0.73948 -0.17000
N 	N 	0.73948 0.26052 0.50000 -0.17100
O 	O 	0.44266 0.77665 0.50000 -0.40900
O 	O 	0.50000 0.28931 0.44260 -0.40600
O 	O 	0.53355 0.95935 0.04065 -0.40100
O 	O 	0.71069 0.44260 0.50000 -0.40600
O 	O 	0.46645 0.04065 0.04065 -0.40900
O 	O 	0.46645 0.95935 0.04065 -0.40200
O 	O 	0.46645 0.04065 0.95935 -0.40200
O 	O 	0.95935 0.46645 0.95935 -0.39500
O 	O 	0.55734 0.22335 0.50000 -0.41000
O 	O 	0.55740 0.71069 0.50000 -0.40600
O 	O 	0.95935 0.95935 0.53355 -0.39500
O 	O 	0.04065 0.95935 0.53355 -0.40100
O 	O 	0.55734 0.50000 0.22335 -0.41000
O 	O 	0.53355 0.04065 0.04065 -0.40800
O 	O 	0.04065 0.53355 0.04065 -0.40800
O 	O 	0.71069 0.50000 0.44260 -0.40600
O 	O 	0.95935 0.04065 0.53355 -0.40100
O 	O 	0.22335 0.50000 0.55734 -0.41000
O 	O 	0.28931 0.44260 0.50000 -0.40600
O 	O 	0.77665 0.50000 0.44266 -0.40900
O 	O 	0.50000 0.55734 0.22335 -0.41000
O 	O 	0.22335 0.50000 0.44266 -0.41000
O 	O 	0.50000 0.71069 0.55740 -0.40600
O 	O 	0.44266 0.22335 0.50000 -0.41000
O 	O 	0.55740 0.28931 0.50000 -0.40600
O 	O 	0.04065 0.46645 0.04065 -0.40900
O 	O 	0.28931 0.50000 0.44260 -0.40600
O 	O 	0.50000 0.55740 0.71069 -0.40600
O 	O 	0.44266 0.50000 0.77665 -0.40900
O 	O 	0.95935 0.53355 0.95935 -0.39500
O 	O 	0.44260 0.71069 0.50000 -0.40600
O 	O 	0.95935 0.04065 0.46645 -0.40200
O 	O 	0.28931 0.55740 0.50000 -0.40600
O 	O 	0.55734 0.77665 0.50000 -0.40900
O 	O 	0.95935 0.46645 0.04065 -0.40200
O 	O 	0.77665 0.50000 0.55734 -0.40900
O 	O 	0.04065 0.95935 0.46645 -0.40200
O 	O 	0.50000 0.44266 0.77665 -0.40900
O 	O 	0.71069 0.55740 0.50000 -0.40600
O 	O 	0.04065 0.04065 0.53355 -0.40800
O 	O 	0.53355 0.95935 0.95935 -0.39500
O 	O 	0.50000 0.77665 0.44266 -0.40900
O 	O 	0.50000 0.44260 0.28931 -0.40600
O 	O 	0.46645 0.95935 0.95935 -0.39500
O 	O 	0.55734 0.50000 0.77665 -0.40900
O 	O 	0.50000 0.28931 0.55740 -0.40600
O 	O 	0.50000 0.77665 0.55734 -0.40900
O 	O 	0.44260 0.50000 0.71069 -0.40600
O 	O 	0.04065 0.04065 0.46645 -0.40900
O 	O 	0.50000 0.55740 0.28931 -0.40600
O 	O 	0.22335 0.55734 0.50000 -0.41000
O 	O 	0.50000 0.44260 0.71069 -0.40600
O 	O 	0.28931 0.50000 0.55740 -0.40600
O 	O 	0.77665 0.55734 0.50000 -0.40900
O 	O 	0.95935 0.53355 0.04065 -0.40100
O 	O 	0.50000 0.55734 0.77665 -0.40900
O 	O 	0.55740 0.50000 0.71069 -0.40600
O 	O 	0.04065 0.46645 0.95935 -0.40200
O 	O 	0.50000 0.71069 0.44260 -0.40600
O 	O 	0.44266 0.50000 0.22335 -0.41000
O 	O 	0.71069 0.50000 0.55740 -0.40600
O 	O 	0.44260 0.28931 0.50000 -0.40600
O 	O 	0.53355 0.04065 0.95935 -0.40100
O 	O 	0.95935 0.95935 0.46645 -0.39500
O 	O 	0.44260 0.50000 0.28931 -0.40600
O 	O 	0.50000 0.22335 0.55734 -0.41000
O 	O 	0.55740 0.50000 0.28931 -0.40600
O 	O 	0.04065 0.53355 0.95935 -0.40100
O 	O 	0.77665 0.44266 0.50000 -0.40900
O 	O 	0.50000 0.44266 0.22335 -0.41000
O 	O 	0.50000 0.22335 0.44266 -0.41000
O 	O 	0.22335 0.44266 0.50000 -0.41000
