data_crystal

_cell_length_a 32.72100
_cell_length_b 32.72100
_cell_length_c 9.31600
_cell_angle_alpha 90.00000
_cell_angle_beta  90.00000
_cell_angle_gamma 120.00000

_symmetry_space_group_name_	'P 1'
_symmetry_space_group_name_H-M	'P 1'

loop_
_symmetry_equiv_pos_as_xyz
  x,y,z

loop_
_atom_site_label
_atom_site_type_symbol
_atom_site_fract_x
_atom_site_fract_y
_atom_site_fract_z
_atom_site_charge
N 	N 	0.53316 0.99786 0.82120 -0.25300
N 	N 	0.44174 0.94325 0.92910 -0.26400
N 	N 	0.24045 0.86321 0.23820 -0.23500
C 	C 	0.58079 0.02505 0.79480 0.09700
C 	C 	0.59308 0.00873 0.66680 -0.09800
H 	H 	0.62370 0.02150 0.62590 0.06100
C 	C 	0.55316 0.97208 0.61670 -0.05400
H 	H 	0.55010 0.95410 0.53320 0.05000
C 	C 	0.51575 0.96502 0.71280 0.08300
C 	C 	0.46936 0.92796 0.70060 -0.09200
C 	C 	0.43496 0.91847 0.80360 0.08100
C 	C 	0.38605 0.88202 0.78970 -0.05800
H 	H 	0.37250 0.86000 0.71340 0.05000
C 	C 	0.36346 0.88532 0.90500 -0.10400
H 	H 	0.33080 0.86610 0.92540 0.07400
C 	C 	0.39767 0.92327 0.99250 0.13100
C 	C 	0.38685 0.93837 0.11920 -0.18000
C 	C 	0.33615 0.91301 0.16330 0.15100
C 	C 	0.31991 0.87996 0.27290 -0.19400
H 	H 	0.34120 0.87370 0.32470 0.09200
C 	C 	0.27236 0.85627 0.30570 0.10000
H 	H 	0.26180 0.83360 0.38100 -0.01800
C 	C 	0.25642 0.89519 0.13340 0.10100
H 	H 	0.23440 0.90080 0.08380 -0.01500
C 	C 	0.30325 0.92068 0.09250 -0.19300
H 	H 	0.31280 0.94310 0.01690 0.09100
C 	C 	0.45581 0.89620 0.57190 0.00000
C 	C 	0.44225 0.84905 0.58560 0.00400
H 	H 	0.44190 0.83650 0.67780 0.02400
C 	C 	0.42905 0.81956 0.46520 -0.18800
H 	H 	0.42000 0.78730 0.47670 0.08100
C 	C 	0.42897 0.83682 0.32970 0.21400
C 	C 	0.44251 0.88404 0.31670 -0.18200
H 	H 	0.44260 0.89650 0.22450 0.08200
C 	C 	0.45592 0.91348 0.43500 0.00400
H 	H 	0.46530 0.94580 0.42290 0.03300
C 	C 	0.41604 0.80554 0.19740 -0.56200
H 	H 	0.40330 0.81740 0.12350 0.17400
H 	H 	0.39220 0.77320 0.22300 0.16700
H 	H 	0.44420 0.80590 0.16050 0.17800
N 	N 	0.46684 0.00214 0.17880 -0.27300
N 	N 	0.55826 0.05675 0.07090 -0.26700
N 	N 	0.75955 0.13679 0.76180 -0.23200
C 	C 	0.41921 0.97495 0.20520 0.11600
C 	C 	0.40692 0.99127 0.33320 -0.07500
H 	H 	0.37630 0.97850 0.37410 0.05900
C 	C 	0.44684 0.02792 0.38330 -0.08500
H 	H 	0.44990 0.04590 0.46680 0.05900
C 	C 	0.48425 0.03498 0.28720 0.08700
C 	C 	0.53064 0.07204 0.29940 -0.09800
C 	C 	0.56504 0.08153 0.19640 0.08300
C 	C 	0.61395 0.11798 0.21030 -0.07400
H 	H 	0.62750 0.14000 0.28660 0.05300
C 	C 	0.63654 0.11468 0.09500 -0.08300
H 	H 	0.66920 0.13390 0.07460 0.05600
C 	C 	0.60233 0.07673 0.00750 0.07500
C 	C 	0.61315 0.06163 0.88080 -0.13100
C 	C 	0.66385 0.08699 0.83670 0.13800
C 	C 	0.68009 0.12004 0.72710 -0.18400
H 	H 	0.65880 0.12630 0.67530 0.08900
C 	C 	0.72764 0.14373 0.69430 0.09600
H 	H 	0.73820 0.16640 0.61900 -0.01700
C 	C 	0.74358 0.10481 0.86660 0.09800
H 	H 	0.76560 0.09920 0.91620 -0.00900
C 	C 	0.69675 0.07932 0.90750 -0.18000
H 	H 	0.68720 0.05690 0.98310 0.09500
C 	C 	0.54419 0.10380 0.42810 -0.00400
C 	C 	0.55775 0.15095 0.41440 0.01000
H 	H 	0.55810 0.16350 0.32220 0.01900
C 	C 	0.57095 0.18044 0.53480 -0.19700
H 	H 	0.58000 0.21270 0.52330 0.08200
C 	C 	0.57103 0.16318 0.67030 0.22500
C 	C 	0.55749 0.11596 0.68330 -0.19200
H 	H 	0.55740 0.10350 0.77550 0.08900
C 	C 	0.54408 0.08652 0.56500 0.01100
H 	H 	0.53470 0.05420 0.57710 0.02700
C 	C 	0.58396 0.19446 0.80260 -0.58100
H 	H 	0.59670 0.18260 0.87650 0.18700
H 	H 	0.60780 0.22680 0.77700 0.17400
H 	H 	0.55580 0.19410 0.83950 0.18700
Co	Co	0.50000 0.00000 -0.00000 1.12500
N 	N 	0.19983 0.33119 0.15453 -0.26400
N 	N 	0.10841 0.27658 0.26243 -0.26600
N 	N 	0.90712 0.19654 0.57153 -0.22700
C 	C 	0.24746 0.35838 0.12813 0.13200
C 	C 	0.25975 0.34206 0.00013 -0.17700
H 	H 	0.29037 0.35483 0.95923 0.10300
C 	C 	0.21983 0.30541 0.95003 0.01700
H 	H 	0.21677 0.28743 0.86653 0.02800
C 	C 	0.18242 0.29835 0.04613 0.04700
C 	C 	0.13603 0.26129 0.03393 -0.09100
C 	C 	0.10163 0.25180 0.13693 0.07400
C 	C 	0.05272 0.21535 0.12303 -0.05600
H 	H 	0.03917 0.19333 0.04673 0.04000
C 	C 	0.03013 0.21865 0.23833 -0.11500
H 	H 	0.99747 0.19943 0.25873 0.07700
C 	C 	0.06434 0.25660 0.32583 0.10400
C 	C 	0.05352 0.27170 0.45253 -0.14600
C 	C 	0.00282 0.24634 0.49663 0.10800
C 	C 	0.98658 0.21329 0.60623 -0.14400
H 	H 	0.00787 0.20703 0.65803 0.07200
C 	C 	0.93903 0.18960 0.63903 0.07800
H 	H 	0.92847 0.16693 0.71433 -0.00900
C 	C 	0.92309 0.22852 0.46673 0.08600
H 	H 	0.90107 0.23413 0.41713 -0.00800
C 	C 	0.96992 0.25401 0.42583 -0.15800
H 	H 	0.97947 0.27643 0.35023 0.08500
C 	C 	0.12248 0.22953 0.90523 -0.00600
C 	C 	0.10892 0.18238 0.91893 0.04300
H 	H 	0.10857 0.16983 0.01113 -0.00200
C 	C 	0.09572 0.15289 0.79853 -0.21200
H 	H 	0.08667 0.12063 0.81003 0.08900
C 	C 	0.09564 0.17015 0.66303 0.22900
C 	C 	0.10918 0.21737 0.65003 -0.19500
H 	H 	0.10927 0.22983 0.55783 0.08700
C 	C 	0.12259 0.24681 0.76833 0.01500
H 	H 	0.13197 0.27913 0.75623 0.02900
C 	C 	0.08271 0.13887 0.53073 -0.57700
H 	H 	0.06997 0.15073 0.45683 0.18100
H 	H 	0.05887 0.10653 0.55633 0.17000
H 	H 	0.11087 0.13923 0.49383 0.18400
N 	N 	0.13351 0.33547 0.51213 -0.26400
N 	N 	0.22493 0.39008 0.40423 -0.26800
N 	N 	0.42622 0.47012 0.09513 -0.22900
C 	C 	0.08588 0.30828 0.53853 0.10200
C 	C 	0.07359 0.32460 0.66653 -0.08200
H 	H 	0.04297 0.31183 0.70743 0.05900
C 	C 	0.11351 0.36125 0.71663 -0.07000
H 	H 	0.11657 0.37923 0.80013 0.05800
C 	C 	0.15092 0.36831 0.62053 0.08600
C 	C 	0.19731 0.40537 0.63273 -0.09400
C 	C 	0.23171 0.41486 0.52973 0.08200
C 	C 	0.28062 0.45131 0.54363 -0.06600
H 	H 	0.29417 0.47333 0.61993 0.05300
C 	C 	0.30321 0.44801 0.42833 -0.09500
H 	H 	0.33587 0.46723 0.40793 0.06600
C 	C 	0.26900 0.41006 0.34083 0.10600
C 	C 	0.27982 0.39496 0.21413 -0.16500
C 	C 	0.33052 0.42032 0.17003 0.13800
C 	C 	0.34676 0.45337 0.06043 -0.17200
H 	H 	0.32547 0.45963 0.00863 0.08000
C 	C 	0.39431 0.47706 0.02763 0.05800
H 	H 	0.40487 0.49973 0.95233 0.00800
C 	C 	0.41025 0.43814 0.19993 0.09500
H 	H 	0.43227 0.43253 0.24953 -0.01100
C 	C 	0.36342 0.41265 0.24083 -0.18300
H 	H 	0.35387 0.39023 0.31643 0.09100
C 	C 	0.21086 0.43713 0.76143 -0.00300
C 	C 	0.22442 0.48428 0.74773 -0.00000
H 	H 	0.22477 0.49683 0.65553 0.02500
C 	C 	0.23762 0.51377 0.86813 -0.16400
H 	H 	0.24667 0.54603 0.85663 0.07700
C 	C 	0.23770 0.49651 0.00363 0.19800
C 	C 	0.22416 0.44929 0.01663 -0.20500
H 	H 	0.22407 0.43683 0.10883 0.08900
C 	C 	0.21075 0.41985 0.89833 0.03200
H 	H 	0.20137 0.38753 0.91043 0.02800
C 	C 	0.25063 0.52779 0.13593 -0.55400
H 	H 	0.26337 0.51593 0.20983 0.17600
H 	H 	0.27447 0.56013 0.11033 0.16300
H 	H 	0.22247 0.52743 0.17283 0.17600
Co	Co	0.16667 0.33333 0.33333 1.13600
N 	N 	0.86649 0.66453 0.48787 -0.26500
N 	N 	0.77507 0.60992 0.59577 -0.26600
N 	N 	0.57378 0.52988 0.90487 -0.23600
C 	C 	0.91412 0.69172 0.46147 0.11100
C 	C 	0.92641 0.67540 0.33347 -0.09000
H 	H 	0.95703 0.68817 0.29257 0.06200
C 	C 	0.88649 0.63875 0.28337 -0.06700
H 	H 	0.88343 0.62077 0.19987 0.05100
C 	C 	0.84908 0.63169 0.37947 0.08400
C 	C 	0.80269 0.59463 0.36727 -0.09600
C 	C 	0.76829 0.58514 0.47027 0.08200
C 	C 	0.71938 0.54869 0.45637 -0.06700
H 	H 	0.70583 0.52667 0.38007 0.05000
C 	C 	0.69679 0.55199 0.57167 -0.09200
H 	H 	0.66413 0.53277 0.59207 0.06400
C 	C 	0.73100 0.58994 0.65917 0.09900
C 	C 	0.72018 0.60504 0.78587 -0.14600
C 	C 	0.66948 0.57968 0.82997 0.15000
C 	C 	0.65324 0.54663 0.93957 -0.20500
H 	H 	0.67453 0.54037 0.99137 0.10100
C 	C 	0.60569 0.52294 0.97237 0.13600
H 	H 	0.59513 0.50027 0.04767 -0.04100
C 	C 	0.58975 0.56186 0.80007 0.10400
H 	H 	0.56773 0.56747 0.75047 -0.01200
C 	C 	0.63658 0.58735 0.75917 -0.18900
H 	H 	0.64613 0.60977 0.68357 0.09400
C 	C 	0.78914 0.56287 0.23857 0.00000
C 	C 	0.77558 0.51572 0.25227 0.01300
H 	H 	0.77523 0.50317 0.34447 0.01900
C 	C 	0.76238 0.48623 0.13187 -0.21800
H 	H 	0.75333 0.45397 0.14337 0.08500
C 	C 	0.76230 0.50349 0.99637 0.24000
C 	C 	0.77584 0.55071 0.98337 -0.17000
H 	H 	0.77593 0.56317 0.89117 0.08100
C 	C 	0.78925 0.58015 0.10167 -0.01500
H 	H 	0.79863 0.61247 0.08957 0.03200
C 	C 	0.74937 0.47221 0.86407 -0.58700
H 	H 	0.73663 0.48407 0.79017 0.18500
H 	H 	0.72553 0.43987 0.88967 0.17800
H 	H 	0.77753 0.47257 0.82717 0.18900
N 	N 	0.80017 0.66881 0.84547 -0.26500
N 	N 	0.89159 0.72342 0.73757 -0.26800
N 	N 	0.09288 0.80346 0.42847 -0.24000
C 	C 	0.75254 0.64162 0.87187 0.08300
C 	C 	0.74025 0.65794 0.99987 0.00200
H 	H 	0.70963 0.64517 0.04077 0.02000
C 	C 	0.78017 0.69459 0.04997 -0.15100
H 	H 	0.78323 0.71257 0.13347 0.08000
C 	C 	0.81758 0.70165 0.95387 0.12100
C 	C 	0.86397 0.73871 0.96607 -0.09900
C 	C 	0.89837 0.74820 0.86307 0.09000
C 	C 	0.94728 0.78465 0.87697 -0.07700
H 	H 	0.96083 0.80667 0.95327 0.06200
C 	C 	0.96987 0.78135 0.76167 -0.07300
H 	H 	0.00253 0.80057 0.74127 0.05300
C 	C 	0.93566 0.74340 0.67417 0.10100
C 	C 	0.94648 0.72830 0.54747 -0.16500
C 	C 	0.99718 0.75366 0.50337 0.18100
C 	C 	0.01342 0.78671 0.39377 -0.23500
H 	H 	0.99213 0.79297 0.34197 0.11000
C 	C 	0.06097 0.81040 0.36097 0.11800
H 	H 	0.07153 0.83307 0.28567 -0.02600
C 	C 	0.07691 0.77148 0.53327 0.11300
H 	H 	0.09893 0.76587 0.58287 -0.01600
C 	C 	0.03008 0.74599 0.57417 -0.21500
H 	H 	0.02053 0.72357 0.64977 0.10000
C 	C 	0.87752 0.77047 0.09477 0.00200
C 	C 	0.89108 0.81762 0.08107 -0.02800
H 	H 	0.89143 0.83017 0.98887 0.04400
C 	C 	0.90428 0.84711 0.20147 -0.17400
H 	H 	0.91333 0.87937 0.18997 0.07400
C 	C 	0.90436 0.82985 0.33697 0.21100
C 	C 	0.89082 0.78263 0.34997 -0.18000
H 	H 	0.89073 0.77017 0.44217 0.08300
C 	C 	0.87741 0.75319 0.23167 0.00000
H 	H 	0.86803 0.72087 0.24377 0.03000
C 	C 	0.91729 0.86113 0.46927 -0.56600
H 	H 	0.93003 0.84927 0.54317 0.18100
H 	H 	0.94113 0.89347 0.44367 0.17200
H 	H 	0.88913 0.86077 0.50617 0.18200
Co	Co	0.83333 0.66667 0.66667 1.13700
N 	N 	0.00214 0.53530 0.82120 -0.26400
N 	N 	0.05675 0.49849 0.92910 -0.26600
N 	N 	0.13679 0.37724 0.23820 -0.23400
C 	C 	0.97495 0.55574 0.79480 0.10400
C 	C 	0.99127 0.58435 0.66680 -0.06600
H 	H 	0.97850 0.60220 0.62590 0.05600
C 	C 	0.02792 0.58108 0.61670 -0.08700
H 	H 	0.04590 0.59600 0.53320 0.06000
C 	C 	0.03498 0.55073 0.71280 0.08900
C 	C 	0.07204 0.54140 0.70060 -0.09700
C 	C 	0.08153 0.51649 0.80360 0.08100
C 	C 	0.11798 0.50403 0.78970 -0.06000
H 	H 	0.14000 0.51250 0.71340 0.05000
C 	C 	0.11468 0.47814 0.90500 -0.10400
H 	H 	0.13390 0.46470 0.92540 0.07400
C 	C 	0.07673 0.47440 0.99250 0.12900
C 	C 	0.06163 0.44848 0.11920 -0.18000
C 	C 	0.08699 0.42314 0.16330 0.15000
C 	C 	0.12004 0.43995 0.27290 -0.19400
H 	H 	0.12630 0.46750 0.32470 0.09200
C 	C 	0.14373 0.41609 0.30570 0.09900
H 	H 	0.16640 0.42820 0.38100 -0.01800
C 	C 	0.10481 0.36123 0.13340 0.09900
H 	H 	0.09920 0.33360 0.08380 -0.01500
C 	C 	0.07932 0.38257 0.09250 -0.19300
H 	H 	0.05690 0.36970 0.01690 0.08800
C 	C 	0.10380 0.55961 0.57190 0.00100
C 	C 	0.15095 0.59320 0.58560 0.00400
H 	H 	0.16350 0.60540 0.67780 0.02500
C 	C 	0.18044 0.60949 0.46520 -0.18800
H 	H 	0.21270 0.63270 0.47670 0.08100
C 	C 	0.16318 0.59215 0.32970 0.21400
C 	C 	0.11596 0.55847 0.31670 -0.18200
H 	H 	0.10350 0.54610 0.22450 0.08100
C 	C 	0.08652 0.54244 0.43500 0.00400
H 	H 	0.05420 0.51950 0.42290 0.02900
C 	C 	0.19446 0.61050 0.19740 -0.56200
H 	H 	0.18260 0.58590 0.12350 0.17400
H 	H 	0.22680 0.61900 0.22300 0.16700
H 	H 	0.19410 0.63830 0.16050 0.17800
N 	N 	0.99786 0.46470 0.17880 -0.26100
N 	N 	0.94325 0.50151 0.07090 -0.26400
N 	N 	0.86321 0.62276 0.76180 -0.23200
C 	C 	0.02505 0.44426 0.20520 0.11000
C 	C 	0.00873 0.41565 0.33320 -0.10600
H 	H 	0.02150 0.39780 0.37410 0.06500
C 	C 	0.97208 0.41892 0.38330 -0.05000
H 	H 	0.95410 0.40400 0.46680 0.04900
C 	C 	0.96502 0.44927 0.28720 0.08000
C 	C 	0.92796 0.45860 0.29940 -0.09200
C 	C 	0.91847 0.48351 0.19640 0.08300
C 	C 	0.88202 0.49597 0.21030 -0.07300
H 	H 	0.86000 0.48750 0.28660 0.05300
C 	C 	0.88532 0.52186 0.09500 -0.08400
H 	H 	0.86610 0.53530 0.07460 0.05600
C 	C 	0.92327 0.52560 0.00750 0.07800
C 	C 	0.93837 0.55152 0.88080 -0.13100
C 	C 	0.91301 0.57686 0.83670 0.14000
C 	C 	0.87996 0.56005 0.72710 -0.18400
H 	H 	0.87370 0.53250 0.67530 0.08900
C 	C 	0.85627 0.58391 0.69430 0.09600
H 	H 	0.83360 0.57180 0.61900 -0.01700
C 	C 	0.89519 0.63877 0.86660 0.10000
H 	H 	0.90080 0.66640 0.91620 -0.00900
C 	C 	0.92068 0.61743 0.90750 -0.18000
H 	H 	0.94310 0.63030 0.98310 0.09800
C 	C 	0.89620 0.44039 0.42810 -0.00400
C 	C 	0.84905 0.40680 0.41440 0.01000
H 	H 	0.83650 0.39460 0.32220 0.01900
C 	C 	0.81956 0.39051 0.53480 -0.19700
H 	H 	0.78730 0.36730 0.52330 0.08200
C 	C 	0.83682 0.40785 0.67030 0.22500
C 	C 	0.88404 0.44153 0.68330 -0.19200
H 	H 	0.89650 0.45390 0.77550 0.08900
C 	C 	0.91348 0.45756 0.56500 0.01100
H 	H 	0.94580 0.48050 0.57710 0.03000
C 	C 	0.80554 0.38950 0.80260 -0.58100
H 	H 	0.81740 0.41410 0.87650 0.18700
H 	H 	0.77320 0.38100 0.77700 0.17400
H 	H 	0.80590 0.36170 0.83950 0.18700
Co	Co	-0.00000 0.50000 -0.00000 1.12500
N 	N 	0.66881 0.86863 0.15453 -0.26400
N 	N 	0.72342 0.83182 0.26243 -0.26600
N 	N 	0.80346 0.71057 0.57153 -0.23300
C 	C 	0.64162 0.88907 0.12813 0.13100
C 	C 	0.65794 0.91768 0.00013 -0.17500
H 	H 	0.64517 0.93553 0.95923 0.10300
C 	C 	0.69459 0.91441 0.95003 0.01500
H 	H 	0.71257 0.92933 0.86653 0.02900
C 	C 	0.70165 0.88406 0.04613 0.04800
C 	C 	0.73871 0.87473 0.03393 -0.09100
C 	C 	0.74820 0.84982 0.13693 0.07700
C 	C 	0.78465 0.83736 0.12303 -0.06500
H 	H 	0.80667 0.84583 0.04673 0.04600
C 	C 	0.78135 0.81147 0.23833 -0.09600
H 	H 	0.80057 0.79803 0.25873 0.06400
C 	C 	0.74340 0.80773 0.32583 0.10300
C 	C 	0.72830 0.78181 0.45253 -0.15600
C 	C 	0.75366 0.75647 0.49663 0.14500
C 	C 	0.78671 0.77328 0.60623 -0.18900
H 	H 	0.79297 0.80083 0.65803 0.09200
C 	C 	0.81040 0.74942 0.63903 0.09800
H 	H 	0.83307 0.76153 0.71433 -0.01700
C 	C 	0.77148 0.69456 0.46673 0.10000
H 	H 	0.76587 0.66693 0.41713 -0.01300
C 	C 	0.74599 0.71590 0.42583 -0.18700
H 	H 	0.72357 0.70303 0.35023 0.09200
C 	C 	0.77047 0.89294 0.90523 -0.00700
C 	C 	0.81762 0.92653 0.91893 0.04600
H 	H 	0.83017 0.93873 0.01113 0.00000
C 	C 	0.84711 0.94282 0.79853 -0.21500
H 	H 	0.87937 0.96603 0.81003 0.09400
C 	C 	0.82985 0.92548 0.66303 0.23700
C 	C 	0.78263 0.89180 0.65003 -0.20000
H 	H 	0.77017 0.87943 0.55783 0.08900
C 	C 	0.75319 0.87577 0.76833 0.01800
H 	H 	0.72087 0.85283 0.75623 0.02800
C 	C 	0.86113 0.94383 0.53073 -0.59000
H 	H 	0.84927 0.91923 0.45683 0.18700
H 	H 	0.89347 0.95233 0.55633 0.17900
H 	H 	0.86077 0.97163 0.49383 0.19000
N 	N 	0.66453 0.79803 0.51213 -0.26400
N 	N 	0.60992 0.83484 0.40423 -0.26800
N 	N 	0.52988 0.95609 0.09513 -0.22700
C 	C 	0.69172 0.77759 0.53853 0.10700
C 	C 	0.67540 0.74898 0.66653 -0.08500
H 	H 	0.68817 0.73113 0.70743 0.06200
C 	C 	0.63875 0.75225 0.71663 -0.06800
H 	H 	0.62077 0.73733 0.80013 0.05800
C 	C 	0.63169 0.78260 0.62053 0.08500
C 	C 	0.59463 0.79193 0.63273 -0.09400
C 	C 	0.58514 0.81684 0.52973 0.08200
C 	C 	0.54869 0.82930 0.54363 -0.06600
H 	H 	0.52667 0.82083 0.61993 0.05300
C 	C 	0.55199 0.85519 0.42833 -0.09500
H 	H 	0.53277 0.86863 0.40793 0.06600
C 	C 	0.58994 0.85893 0.34083 0.10600
C 	C 	0.60504 0.88485 0.21413 -0.16400
C 	C 	0.57968 0.91019 0.17003 0.13900
C 	C 	0.54663 0.89338 0.06043 -0.17200
H 	H 	0.54037 0.86583 0.00863 0.08000
C 	C 	0.52294 0.91724 0.02763 0.05900
H 	H 	0.50027 0.90513 0.95233 0.00800
C 	C 	0.56186 0.97210 0.19993 0.09600
H 	H 	0.56747 0.99973 0.24953 -0.00800
C 	C 	0.58735 0.95076 0.24083 -0.18200
H 	H 	0.60977 0.96363 0.31643 0.09300
C 	C 	0.56287 0.77372 0.76143 -0.00300
C 	C 	0.51572 0.74013 0.74773 -0.00000
H 	H 	0.50317 0.72793 0.65553 0.02500
C 	C 	0.48623 0.72384 0.86813 -0.16400
H 	H 	0.45397 0.70063 0.85663 0.07700
C 	C 	0.50349 0.74118 0.00363 0.19800
C 	C 	0.55071 0.77486 0.01663 -0.20500
H 	H 	0.56317 0.78723 0.10883 0.08900
C 	C 	0.58015 0.79089 0.89833 0.03100
H 	H 	0.61247 0.81383 0.91043 0.02800
C 	C 	0.47221 0.72283 0.13593 -0.55400
H 	H 	0.48407 0.74743 0.20983 0.17600
H 	H 	0.43987 0.71433 0.11033 0.16300
H 	H 	0.47257 0.69503 0.17283 0.17600
Co	Co	0.66667 0.83333 0.33333 1.13600
N 	N 	0.33547 0.20197 0.48787 -0.26400
N 	N 	0.39008 0.16516 0.59577 -0.26600
N 	N 	0.47012 0.04391 0.90487 -0.23700
C 	C 	0.30828 0.22241 0.46147 0.10600
C 	C 	0.32460 0.25102 0.33347 -0.08700
H 	H 	0.31183 0.26887 0.29257 0.05900
C 	C 	0.36125 0.24775 0.28337 -0.07000
H 	H 	0.37923 0.26267 0.19987 0.05200
C 	C 	0.36831 0.21740 0.37947 0.08500
C 	C 	0.40537 0.20807 0.36727 -0.09700
C 	C 	0.41486 0.18316 0.47027 0.08200
C 	C 	0.45131 0.17070 0.45637 -0.06800
H 	H 	0.47333 0.17917 0.38007 0.05000
C 	C 	0.44801 0.14481 0.57167 -0.09200
H 	H 	0.46723 0.13137 0.59207 0.06400
C 	C 	0.41006 0.14107 0.65917 0.09900
C 	C 	0.39496 0.11515 0.78587 -0.14600
C 	C 	0.42032 0.08981 0.82997 0.15000
C 	C 	0.45337 0.10662 0.93957 -0.20500
H 	H 	0.45963 0.13417 0.99137 0.10100
C 	C 	0.47706 0.08276 0.97237 0.13600
H 	H 	0.49973 0.09487 0.04767 -0.04100
C 	C 	0.43814 0.02790 0.80007 0.10300
H 	H 	0.43253 0.00027 0.75047 -0.01500
C 	C 	0.41265 0.04924 0.75917 -0.19000
H 	H 	0.39023 0.03637 0.68357 0.09300
C 	C 	0.43713 0.22628 0.23857 0.00100
C 	C 	0.48428 0.25987 0.25227 0.01300
H 	H 	0.49683 0.27207 0.34447 0.01900
C 	C 	0.51377 0.27616 0.13187 -0.21800
H 	H 	0.54603 0.29937 0.14337 0.08500
C 	C 	0.49651 0.25882 0.99637 0.24000
C 	C 	0.44929 0.22514 0.98337 -0.16900
H 	H 	0.43683 0.21277 0.89117 0.08100
C 	C 	0.41985 0.20911 0.10167 -0.01500
H 	H 	0.38753 0.18617 0.08957 0.03200
C 	C 	0.52779 0.27717 0.86407 -0.58700
H 	H 	0.51593 0.25257 0.79017 0.18500
H 	H 	0.56013 0.28567 0.88967 0.17800
H 	H 	0.52743 0.30497 0.82717 0.18900
N 	N 	0.33119 0.13137 0.84547 -0.26500
N 	N 	0.27658 0.16818 0.73757 -0.26800
N 	N 	0.19654 0.28943 0.42847 -0.23300
C 	C 	0.35838 0.11093 0.87187 0.08100
C 	C 	0.34206 0.08232 0.99987 0.00400
H 	H 	0.35483 0.06447 0.04077 0.01700
C 	C 	0.30541 0.08559 0.04997 -0.15400
H 	H 	0.28743 0.07067 0.13347 0.08000
C 	C 	0.29835 0.11594 0.95387 0.12200
C 	C 	0.26129 0.12527 0.96607 -0.09900
C 	C 	0.25180 0.15018 0.86307 0.08700
C 	C 	0.21535 0.16264 0.87697 -0.06800
H 	H 	0.19333 0.15417 0.95327 0.05700
C 	C 	0.21865 0.18853 0.76167 -0.09100
H 	H 	0.19943 0.20197 0.74127 0.06500
C 	C 	0.25660 0.19227 0.67417 0.10200
C 	C 	0.27170 0.21819 0.54747 -0.15500
C 	C 	0.24634 0.24353 0.50337 0.14400
C 	C 	0.21329 0.22672 0.39377 -0.18900
H 	H 	0.20703 0.19917 0.34197 0.08900
C 	C 	0.18960 0.25058 0.36097 0.09700
H 	H 	0.16693 0.23847 0.28567 -0.01800
C 	C 	0.22852 0.30544 0.53327 0.10000
H 	H 	0.23413 0.33307 0.58287 -0.01100
C 	C 	0.25401 0.28410 0.57417 -0.18600
H 	H 	0.27643 0.29697 0.64977 0.09300
C 	C 	0.22953 0.10706 0.09477 0.00500
C 	C 	0.18238 0.07347 0.08107 -0.03400
H 	H 	0.16983 0.06127 0.98887 0.04400
C 	C 	0.15289 0.05718 0.20147 -0.16900
H 	H 	0.12063 0.03397 0.18997 0.06800
C 	C 	0.17015 0.07452 0.33697 0.20200
C 	C 	0.21737 0.10820 0.34997 -0.17400
H 	H 	0.22983 0.12057 0.44217 0.08000
C 	C 	0.24681 0.12423 0.23167 -0.00400
H 	H 	0.27913 0.14717 0.24377 0.03200
C 	C 	0.13887 0.05617 0.46927 -0.55200
H 	H 	0.15073 0.08077 0.54317 0.17500
H 	H 	0.10653 0.04767 0.44367 0.16300
H 	H 	0.13923 0.02837 0.50617 0.17500
Co	Co	0.33333 0.16667 0.66667 1.13700
N 	N 	0.46470 0.46684 0.82120 -0.25900
N 	N 	0.50151 0.55826 0.92910 -0.26500
N 	N 	0.62276 0.75955 0.23820 -0.23400
C 	C 	0.44426 0.41921 0.79480 0.10100
C 	C 	0.41565 0.40692 0.66680 -0.08100
H 	H 	0.39780 0.37630 0.62590 0.05900
C 	C 	0.41892 0.44684 0.61670 -0.07000
H 	H 	0.40400 0.44990 0.53320 0.05600
C 	C 	0.44927 0.48425 0.71280 0.08600
C 	C 	0.45860 0.53064 0.70060 -0.09500
C 	C 	0.48351 0.56504 0.80360 0.08100
C 	C 	0.49597 0.61395 0.78970 -0.05900
H 	H 	0.48750 0.62750 0.71340 0.05000
C 	C 	0.52186 0.63654 0.90500 -0.10400
H 	H 	0.53530 0.66920 0.92540 0.07400
C 	C 	0.52560 0.60233 0.99250 0.13000
C 	C 	0.55152 0.61315 0.11920 -0.18000
C 	C 	0.57686 0.66385 0.16330 0.15000
C 	C 	0.56005 0.68009 0.27290 -0.19400
H 	H 	0.53250 0.65880 0.32470 0.09200
C 	C 	0.58391 0.72764 0.30570 0.09900
H 	H 	0.57180 0.73820 0.38100 -0.01800
C 	C 	0.63877 0.74358 0.13340 0.10000
H 	H 	0.66640 0.76560 0.08380 -0.01500
C 	C 	0.61743 0.69675 0.09250 -0.19300
H 	H 	0.63030 0.68720 0.01690 0.08900
C 	C 	0.44039 0.54419 0.57190 0.00100
C 	C 	0.40680 0.55775 0.58560 0.00400
H 	H 	0.39460 0.55810 0.67780 0.02500
C 	C 	0.39051 0.57095 0.46520 -0.18800
H 	H 	0.36730 0.58000 0.47670 0.08100
C 	C 	0.40785 0.57103 0.32970 0.21400
C 	C 	0.44153 0.55749 0.31670 -0.18200
H 	H 	0.45390 0.55740 0.22450 0.08100
C 	C 	0.45756 0.54408 0.43500 0.00400
H 	H 	0.48050 0.53470 0.42290 0.03100
C 	C 	0.38950 0.58396 0.19740 -0.56200
H 	H 	0.41410 0.59670 0.12350 0.17400
H 	H 	0.38100 0.60780 0.22300 0.16700
H 	H 	0.36170 0.55580 0.16050 0.17800
N 	N 	0.53530 0.53316 0.17880 -0.26800
N 	N 	0.49849 0.44174 0.07090 -0.26600
N 	N 	0.37724 0.24045 0.76180 -0.23200
C 	C 	0.55574 0.58079 0.20520 0.11300
C 	C 	0.58435 0.59308 0.33320 -0.09100
H 	H 	0.60220 0.62370 0.37410 0.06200
C 	C 	0.58108 0.55316 0.38330 -0.06700
H 	H 	0.59600 0.55010 0.46680 0.05400
C 	C 	0.55073 0.51575 0.28720 0.08400
C 	C 	0.54140 0.46936 0.29940 -0.09500
C 	C 	0.51649 0.43496 0.19640 0.08300
C 	C 	0.50403 0.38605 0.21030 -0.07400
H 	H 	0.51250 0.37250 0.28660 0.05300
C 	C 	0.47814 0.36346 0.09500 -0.08400
H 	H 	0.46470 0.33080 0.07460 0.05600
C 	C 	0.47440 0.39767 0.00750 0.07600
C 	C 	0.44848 0.38685 0.88080 -0.13100
C 	C 	0.42314 0.33615 0.83670 0.13900
C 	C 	0.43995 0.31991 0.72710 -0.18400
H 	H 	0.46750 0.34120 0.67530 0.08900
C 	C 	0.41609 0.27236 0.69430 0.09600
H 	H 	0.42820 0.26180 0.61900 -0.01700
C 	C 	0.36123 0.25642 0.86660 0.09900
H 	H 	0.33360 0.23440 0.91620 -0.00900
C 	C 	0.38257 0.30325 0.90750 -0.18000
H 	H 	0.36970 0.31280 0.98310 0.09600
C 	C 	0.55961 0.45581 0.42810 -0.00400
C 	C 	0.59320 0.44225 0.41440 0.01000
H 	H 	0.60540 0.44190 0.32220 0.01900
C 	C 	0.60949 0.42905 0.53480 -0.19700
H 	H 	0.63270 0.42000 0.52330 0.08200
C 	C 	0.59215 0.42897 0.67030 0.22500
C 	C 	0.55847 0.44251 0.68330 -0.19200
H 	H 	0.54610 0.44260 0.77550 0.08900
C 	C 	0.54244 0.45592 0.56500 0.01100
H 	H 	0.51950 0.46530 0.57710 0.02900
C 	C 	0.61050 0.41604 0.80260 -0.58100
H 	H 	0.58590 0.40330 0.87650 0.18700
H 	H 	0.61900 0.39220 0.77700 0.17400
H 	H 	0.63830 0.44420 0.83950 0.18700
Co	Co	0.50000 0.50000 -0.00000 1.12900
N 	N 	0.13137 0.80017 0.15453 -0.26400
N 	N 	0.16818 0.89159 0.26243 -0.26600
N 	N 	0.28943 0.09288 0.57153 -0.24000
C 	C 	0.11093 0.75254 0.12813 0.13100
C 	C 	0.08232 0.74025 0.00013 -0.17700
H 	H 	0.06447 0.70963 0.95923 0.10100
C 	C 	0.08559 0.78017 0.95003 0.01500
H 	H 	0.07067 0.78323 0.86653 0.02800
C 	C 	0.11594 0.81758 0.04613 0.04800
C 	C 	0.12527 0.86397 0.03393 -0.09300
C 	C 	0.15018 0.89837 0.13693 0.08100
C 	C 	0.16264 0.94728 0.12303 -0.07500
H 	H 	0.15417 0.96083 0.04673 0.05100
C 	C 	0.18853 0.96987 0.23833 -0.07600
H 	H 	0.20197 0.00253 0.25873 0.05200
C 	C 	0.19227 0.93566 0.32583 0.10100
C 	C 	0.21819 0.94648 0.45253 -0.16500
C 	C 	0.24353 0.99718 0.49663 0.18200
C 	C 	0.22672 0.01342 0.60623 -0.23500
H 	H 	0.19917 0.99213 0.65803 0.11300
C 	C 	0.25058 0.06097 0.63903 0.12000
H 	H 	0.23847 0.07153 0.71433 -0.02500
C 	C 	0.30544 0.07691 0.46673 0.11400
H 	H 	0.33307 0.09893 0.41713 -0.01700
C 	C 	0.28410 0.03008 0.42583 -0.21600
H 	H 	0.29697 0.02053 0.35023 0.09900
C 	C 	0.10706 0.87752 0.90523 -0.00500
C 	C 	0.07347 0.89108 0.91893 0.04300
H 	H 	0.06127 0.89143 0.01113 -0.00100
C 	C 	0.05718 0.90428 0.79853 -0.21200
H 	H 	0.03397 0.91333 0.81003 0.09000
C 	C 	0.07452 0.90436 0.66303 0.23200
C 	C 	0.10820 0.89082 0.65003 -0.19600
H 	H 	0.12057 0.89073 0.55783 0.08800
C 	C 	0.12423 0.87741 0.76833 0.01600
H 	H 	0.14717 0.86803 0.75623 0.02900
C 	C 	0.05617 0.91729 0.53073 -0.58200
H 	H 	0.08077 0.93003 0.45683 0.18400
H 	H 	0.04767 0.94113 0.55633 0.17400
H 	H 	0.02837 0.88913 0.49383 0.18300
N 	N 	0.20197 0.86649 0.51213 -0.26500
N 	N 	0.16516 0.77507 0.40423 -0.26800
N 	N 	0.04391 0.57378 0.09513 -0.23000
C 	C 	0.22241 0.91412 0.53853 0.11200
C 	C 	0.25102 0.92641 0.66653 -0.08800
H 	H 	0.26887 0.95703 0.70743 0.06500
C 	C 	0.24775 0.88649 0.71663 -0.06600
H 	H 	0.26267 0.88343 0.80013 0.05700
C 	C 	0.21740 0.84908 0.62053 0.08400
C 	C 	0.20807 0.80269 0.63273 -0.09300
C 	C 	0.18316 0.76829 0.52973 0.08200
C 	C 	0.17070 0.71938 0.54363 -0.06600
H 	H 	0.17917 0.70583 0.61993 0.05300
C 	C 	0.14481 0.69679 0.42833 -0.09500
H 	H 	0.13137 0.66413 0.40793 0.06500
C 	C 	0.14107 0.73100 0.34083 0.10600
C 	C 	0.11515 0.72018 0.21413 -0.16500
C 	C 	0.08981 0.66948 0.17003 0.13800
C 	C 	0.10662 0.65324 0.06043 -0.17200
H 	H 	0.13417 0.67453 0.00863 0.08000
C 	C 	0.08276 0.60569 0.02763 0.05700
H 	H 	0.09487 0.59513 0.95233 0.00800
C 	C 	0.02790 0.58975 0.19993 0.09400
H 	H 	0.00027 0.56773 0.24953 -0.01400
C 	C 	0.04924 0.63658 0.24083 -0.18400
H 	H 	0.03637 0.64613 0.31643 0.09000
C 	C 	0.22628 0.78914 0.76143 -0.00400
C 	C 	0.25987 0.77558 0.74773 0.00000
H 	H 	0.27207 0.77523 0.65553 0.02500
C 	C 	0.27616 0.76238 0.86813 -0.16400
H 	H 	0.29937 0.75333 0.85663 0.07700
C 	C 	0.25882 0.76230 0.00363 0.19800
C 	C 	0.22514 0.77584 0.01663 -0.20500
H 	H 	0.21277 0.77593 0.10883 0.08900
C 	C 	0.20911 0.78925 0.89833 0.03100
H 	H 	0.18617 0.79863 0.91043 0.02800
C 	C 	0.27717 0.74937 0.13593 -0.55400
H 	H 	0.25257 0.73663 0.20983 0.17600
H 	H 	0.28567 0.72553 0.11033 0.16300
H 	H 	0.30497 0.77753 0.17283 0.17600
Co	Co	0.16667 0.83333 0.33333 1.13600
N 	N 	0.79803 0.13351 0.48787 -0.26400
N 	N 	0.83484 0.22493 0.59577 -0.26600
N 	N 	0.95609 0.42622 0.90487 -0.23400
C 	C 	0.77759 0.08588 0.46147 0.10200
C 	C 	0.74898 0.07359 0.33347 -0.08400
H 	H 	0.73113 0.04297 0.29257 0.05600
C 	C 	0.75225 0.11351 0.28337 -0.07200
H 	H 	0.73733 0.11657 0.19987 0.05200
C 	C 	0.78260 0.15092 0.37947 0.08500
C 	C 	0.79193 0.19731 0.36727 -0.09700
C 	C 	0.81684 0.23171 0.47027 0.08200
C 	C 	0.82930 0.28062 0.45637 -0.06700
H 	H 	0.82083 0.29417 0.38007 0.05000
C 	C 	0.85519 0.30321 0.57167 -0.09200
H 	H 	0.86863 0.33587 0.59207 0.06400
C 	C 	0.85893 0.26900 0.65917 0.09900
C 	C 	0.88485 0.27982 0.78587 -0.14600
C 	C 	0.91019 0.33052 0.82997 0.15100
C 	C 	0.89338 0.34676 0.93957 -0.20500
H 	H 	0.86583 0.32547 0.99137 0.10100
C 	C 	0.91724 0.39431 0.97237 0.13600
H 	H 	0.90513 0.40487 0.04767 -0.04100
C 	C 	0.97210 0.41025 0.80007 0.10500
H 	H 	0.99973 0.43227 0.75047 -0.00900
C 	C 	0.95076 0.36342 0.75917 -0.18900
H 	H 	0.96363 0.35387 0.68357 0.09600
C 	C 	0.77372 0.21086 0.23857 0.00100
C 	C 	0.74013 0.22442 0.25227 0.01300
H 	H 	0.72793 0.22477 0.34447 0.01900
C 	C 	0.72384 0.23762 0.13187 -0.21800
H 	H 	0.70063 0.24667 0.14337 0.08500
C 	C 	0.74118 0.23770 0.99637 0.24000
C 	C 	0.77486 0.22416 0.98337 -0.17000
H 	H 	0.78723 0.22407 0.89117 0.08100
C 	C 	0.79089 0.21075 0.10167 -0.01500
H 	H 	0.81383 0.20137 0.08957 0.03200
C 	C 	0.72283 0.25063 0.86407 -0.58700
H 	H 	0.74743 0.26337 0.79017 0.18500
H 	H 	0.71433 0.27447 0.88967 0.17800
H 	H 	0.69503 0.22247 0.82717 0.18900
N 	N 	0.86863 0.19983 0.84547 -0.26500
N 	N 	0.83182 0.10841 0.73757 -0.26700
N 	N 	0.71057 0.90712 0.42847 -0.22600
C 	C 	0.88907 0.24746 0.87187 0.08300
C 	C 	0.91768 0.25975 0.99987 0.00100
H 	H 	0.93553 0.29037 0.04077 0.02200
C 	C 	0.91441 0.21983 0.04997 -0.14900
H 	H 	0.92933 0.21677 0.13347 0.08100
C 	C 	0.88406 0.18242 0.95387 0.12000
C 	C 	0.87473 0.13603 0.96607 -0.09700
C 	C 	0.84982 0.10163 0.86307 0.08300
C 	C 	0.83736 0.05272 0.87697 -0.05800
H 	H 	0.84583 0.03917 0.95327 0.05200
C 	C 	0.81147 0.03013 0.76167 -0.11000
H 	H 	0.79803 0.99747 0.74127 0.07700
C 	C 	0.80773 0.06434 0.67417 0.10300
C 	C 	0.78181 0.05352 0.54747 -0.14500
C 	C 	0.75647 0.00282 0.50337 0.10700
C 	C 	0.77328 0.98658 0.39377 -0.14300
H 	H 	0.80083 0.00787 0.34197 0.06900
C 	C 	0.74942 0.93903 0.36097 0.07600
H 	H 	0.76153 0.92847 0.28567 -0.01000
C 	C 	0.69456 0.92309 0.53327 0.08500
H 	H 	0.66693 0.90107 0.58287 -0.00600
C 	C 	0.71590 0.96992 0.57417 -0.15700
H 	H 	0.70303 0.97947 0.64977 0.08700
C 	C 	0.89294 0.12248 0.09477 0.00200
C 	C 	0.92653 0.10892 0.08107 -0.02900
H 	H 	0.93873 0.10857 0.98887 0.04400
C 	C 	0.94282 0.09572 0.20147 -0.17300
H 	H 	0.96603 0.08667 0.18997 0.07300
C 	C 	0.92548 0.09564 0.33697 0.20800
C 	C 	0.89180 0.10918 0.34997 -0.17800
H 	H 	0.87943 0.10927 0.44217 0.08200
C 	C 	0.87577 0.12259 0.23167 -0.00100
H 	H 	0.85283 0.13197 0.24377 0.03000
C 	C 	0.94383 0.08271 0.46927 -0.56200
H 	H 	0.91923 0.06997 0.54317 0.17700
H 	H 	0.95233 0.05887 0.44367 0.16700
H 	H 	0.97163 0.11087 0.50617 0.18200
Co	Co	0.83333 0.16667 0.66667 1.13700
