data_crystal

_cell_length_a 32.42500
_cell_length_b 32.42500
_cell_length_c 9.34000
_cell_angle_alpha 90.00000
_cell_angle_beta  90.00000
_cell_angle_gamma 120.00000

_symmetry_space_group_name_	'P 1'
_symmetry_space_group_name_H-M	'P 1'

loop_
_symmetry_equiv_pos_as_xyz
  x,y,z

loop_
_atom_site_label
_atom_site_type_symbol
_atom_site_fract_x
_atom_site_fract_y
_atom_site_fract_z
_atom_site_charge
N 	N 	0.53513 0.00209 0.17830 -0.27600
N 	N 	0.49889 0.05760 0.06950 -0.26700
N 	N 	0.37640 0.13728 0.75830 -0.24100
C 	C 	0.55621 0.97521 0.20430 0.12200
C 	C 	0.58430 0.99130 0.33370 -0.07800
H 	H 	0.60170 0.97800 0.37600 0.06000
C 	C 	0.58130 0.02830 0.38250 -0.08300
H 	H 	0.59670 0.04680 0.46500 0.05800
C 	C 	0.55063 0.03496 0.28740 0.08500
C 	C 	0.54196 0.07351 0.29790 -0.09400
C 	C 	0.51674 0.08223 0.19600 0.08300
C 	C 	0.50457 0.11940 0.20910 -0.07400
H 	H 	0.51310 0.14170 0.28510 0.05300
C 	C 	0.47875 0.11620 0.09190 -0.08400
H 	H 	0.46570 0.13600 0.07000 0.05400
C 	C 	0.47461 0.07770 0.00660 0.07000
C 	C 	0.44812 0.06209 0.87940 -0.12900
C 	C 	0.42338 0.08813 0.83530 0.15000
C 	C 	0.43960 0.12060 0.72650 -0.19900
H 	H 	0.46730 0.12690 0.67450 0.09400
C 	C 	0.41540 0.14408 0.69310 0.10900
H 	H 	0.42760 0.16680 0.61770 -0.02100
C 	C 	0.36070 0.10560 0.86580 0.10200
H 	H 	0.33300 0.10020 0.91640 -0.00900
C 	C 	0.38255 0.08040 0.90610 -0.18600
H 	H 	0.36980 0.05790 0.98200 0.09900
C 	C 	0.55982 0.10466 0.42780 -0.01000
C 	C 	0.54303 0.08740 0.56290 0.02000
H 	H 	0.51970 0.05480 0.57410 0.02400
C 	C 	0.55930 0.11650 0.68350 -0.20900
H 	H 	0.54810 0.10290 0.77540 0.09600
C 	C 	0.59060 0.16370 0.67290 0.23900
C 	C 	0.60780 0.18120 0.53670 -0.20400
H 	H 	0.63060 0.21400 0.52620 0.08300
C 	C 	0.59290 0.15250 0.41520 0.01800
H 	H 	0.60550 0.16580 0.32400 0.01500
C 	C 	0.60880 0.19480 0.80560 -0.59100
H 	H 	0.58270 0.18480 0.87470 0.19100
H 	H 	0.62080 0.22810 0.77900 0.17700
H 	H 	0.63460 0.19160 0.84880 0.19000
N 	N 	0.20180 0.33542 0.51163 -0.26500
N 	N 	0.16556 0.39093 0.40283 -0.26500
N 	N 	0.04307 0.47061 0.09163 -0.23200
C 	C 	0.22288 0.30854 0.53763 0.11100
C 	C 	0.25097 0.32463 0.66703 -0.08700
H 	H 	0.26837 0.31133 0.70933 0.06400
C 	C 	0.24797 0.36163 0.71583 -0.06600
H 	H 	0.26337 0.38013 0.79833 0.05800
C 	C 	0.21730 0.36829 0.62073 0.08300
C 	C 	0.20863 0.40684 0.63123 -0.09000
C 	C 	0.18341 0.41556 0.52933 0.08200
C 	C 	0.17124 0.45273 0.54243 -0.06700
H 	H 	0.17977 0.47503 0.61843 0.05300
C 	C 	0.14542 0.44953 0.42523 -0.09200
H 	H 	0.13237 0.46933 0.40333 0.06400
C 	C 	0.14128 0.41103 0.33993 0.09900
C 	C 	0.11479 0.39542 0.21273 -0.14500
C 	C 	0.09005 0.42146 0.16863 0.12800
C 	C 	0.10627 0.45393 0.05983 -0.16900
H 	H 	0.13397 0.46023 0.00783 0.07600
C 	C 	0.08207 0.47741 0.02643 0.04900
H 	H 	0.09427 0.50013 0.95103 0.01500
C 	C 	0.02737 0.43893 0.19913 0.07200
H 	H 	0.99967 0.43353 0.24973 0.00200
C 	C 	0.04922 0.41373 0.23943 -0.17000
H 	H 	0.03647 0.39123 0.31533 0.08400
C 	C 	0.22649 0.43799 0.76113 -0.01000
C 	C 	0.20970 0.42073 0.89623 0.04700
H 	H 	0.18637 0.38813 0.90743 0.02400
C 	C 	0.22597 0.44983 0.01683 -0.22600
H 	H 	0.21477 0.43623 0.10873 0.09600
C 	C 	0.25727 0.49703 0.00623 0.20300
C 	C 	0.27447 0.51453 0.87003 -0.16200
H 	H 	0.29727 0.54733 0.85953 0.07800
C 	C 	0.25957 0.48583 0.74853 0.00500
H 	H 	0.27217 0.49913 0.65733 0.02300
C 	C 	0.27547 0.52813 0.13893 -0.55700
H 	H 	0.24937 0.51813 0.20803 0.17600
H 	H 	0.28747 0.56143 0.11233 0.16200
H 	H 	0.30127 0.52493 0.18213 0.17600
N 	N 	0.86846 0.66876 0.84497 -0.27000
N 	N 	0.83222 0.72427 0.73617 -0.26600
N 	N 	0.70973 0.80395 0.42497 -0.24300
C 	C 	0.88954 0.64188 0.87097 0.13800
C 	C 	0.91763 0.65797 0.00037 -0.11300
H 	H 	0.93503 0.64467 0.04267 0.06500
C 	C 	0.91463 0.69497 0.04917 -0.08400
H 	H 	0.93003 0.71347 0.13167 0.05800
C 	C 	0.88396 0.70163 0.95407 0.10300
C 	C 	0.87529 0.74018 0.96457 -0.08300
C 	C 	0.85007 0.74890 0.86267 0.08200
C 	C 	0.83790 0.78607 0.87577 -0.06300
H 	H 	0.84643 0.80837 0.95177 0.05700
C 	C 	0.81208 0.78287 0.75857 -0.09600
H 	H 	0.79903 0.80267 0.73667 0.06600
C 	C 	0.80794 0.74437 0.67327 0.10600
C 	C 	0.78145 0.72876 0.54607 -0.16100
C 	C 	0.75671 0.75480 0.50197 0.15800
C 	C 	0.77293 0.78727 0.39317 -0.20700
H 	H 	0.80063 0.79357 0.34117 0.09500
C 	C 	0.74873 0.81075 0.35977 0.11000
H 	H 	0.76093 0.83347 0.28437 -0.02300
C 	C 	0.69403 0.77227 0.53247 0.10300
H 	H 	0.66633 0.76687 0.58307 -0.01300
C 	C 	0.71588 0.74707 0.57277 -0.19400
H 	H 	0.70313 0.72457 0.64867 0.09600
C 	C 	0.89315 0.77133 0.09447 -0.00900
C 	C 	0.87636 0.75407 0.22957 0.01000
H 	H 	0.85303 0.72147 0.24077 0.02600
C 	C 	0.89263 0.78317 0.35017 -0.19400
H 	H 	0.88143 0.76957 0.44207 0.08800
C 	C 	0.92393 0.83037 0.33957 0.22000
C 	C 	0.94113 0.84787 0.20337 -0.17500
H 	H 	0.96393 0.88067 0.19287 0.07400
C 	C 	0.92623 0.81917 0.08187 -0.03000
H 	H 	0.93883 0.83247 0.99067 0.04900
C 	C 	0.94213 0.86147 0.47227 -0.57200
H 	H 	0.91603 0.85147 0.54137 0.18100
H 	H 	0.95413 0.89477 0.44567 0.17200
H 	H 	0.96793 0.85827 0.51547 0.18500
N 	N 	0.99791 0.53304 0.17830 -0.26300
N 	N 	0.94240 0.44129 0.06950 -0.26300
N 	N 	0.86272 0.23912 0.75830 -0.24100
C 	C 	0.02479 0.58100 0.20430 0.11600
C 	C 	0.00870 0.59300 0.33370 -0.11000
H 	H 	0.02200 0.62370 0.37600 0.06700
C 	C 	0.97170 0.55300 0.38250 -0.04800
H 	H 	0.95320 0.54990 0.46500 0.04900
C 	C 	0.96504 0.51567 0.28740 0.07800
C 	C 	0.92649 0.46845 0.29790 -0.08900
C 	C 	0.91777 0.43451 0.19600 0.08200
C 	C 	0.88060 0.38517 0.20910 -0.07300
H 	H 	0.85830 0.37140 0.28510 0.05300
C 	C 	0.88380 0.36255 0.09190 -0.08500
H 	H 	0.86400 0.32970 0.07000 0.05400
C 	C 	0.92230 0.39691 0.00660 0.07300
C 	C 	0.93791 0.38603 0.87940 -0.12900
C 	C 	0.91187 0.33525 0.83530 0.15100
C 	C 	0.87940 0.31900 0.72650 -0.20000
H 	H 	0.87310 0.34040 0.67450 0.09400
C 	C 	0.85592 0.27132 0.69310 0.11000
H 	H 	0.83320 0.26080 0.61770 -0.02100
C 	C 	0.89440 0.25510 0.86580 0.10300
H 	H 	0.89980 0.23280 0.91640 -0.00900
C 	C 	0.91960 0.30215 0.90610 -0.18600
H 	H 	0.94210 0.31190 0.98200 0.10100
C 	C 	0.89534 0.45516 0.42780 -0.01100
C 	C 	0.91260 0.45563 0.56290 0.02000
H 	H 	0.94520 0.46490 0.57410 0.02800
C 	C 	0.88350 0.44280 0.68350 -0.20800
H 	H 	0.89710 0.44520 0.77540 0.09600
C 	C 	0.83630 0.42690 0.67290 0.23900
C 	C 	0.81880 0.42660 0.53670 -0.20500
H 	H 	0.78600 0.41660 0.52620 0.08300
C 	C 	0.84750 0.44040 0.41520 0.01800
H 	H 	0.83420 0.43970 0.32400 0.01500
C 	C 	0.80520 0.41400 0.80560 -0.59100
H 	H 	0.81520 0.39790 0.87470 0.19000
H 	H 	0.77190 0.39270 0.77900 0.17700
H 	H 	0.80840 0.44300 0.84880 0.19000
N 	N 	0.66458 0.86637 0.51163 -0.26500
N 	N 	0.60907 0.77462 0.40283 -0.26500
N 	N 	0.52939 0.57245 0.09163 -0.23500
C 	C 	0.69146 0.91433 0.53763 0.11600
C 	C 	0.67537 0.92633 0.66703 -0.09000
H 	H 	0.68867 0.95703 0.70933 0.06700
C 	C 	0.63837 0.88633 0.71583 -0.06400
H 	H 	0.61987 0.88323 0.79833 0.05800
C 	C 	0.63171 0.84900 0.62073 0.08300
C 	C 	0.59316 0.80178 0.63123 -0.09000
C 	C 	0.58444 0.76784 0.52933 0.08200
C 	C 	0.54727 0.71850 0.54243 -0.06600
H 	H 	0.52497 0.70473 0.61843 0.05300
C 	C 	0.55047 0.69588 0.42523 -0.09300
H 	H 	0.53067 0.66303 0.40333 0.06500
C 	C 	0.58897 0.73024 0.33993 0.10000
C 	C 	0.60458 0.71936 0.21273 -0.14700
C 	C 	0.57854 0.66858 0.16863 0.13500
C 	C 	0.54607 0.65233 0.05983 -0.17300
H 	H 	0.53977 0.67373 0.00783 0.07800
C 	C 	0.52259 0.60465 0.02643 0.05300
H 	H 	0.49987 0.59413 0.95103 0.01400
C 	C 	0.56107 0.58843 0.19913 0.09300
H 	H 	0.56647 0.56613 0.24973 -0.01100
C 	C 	0.58627 0.63548 0.23943 -0.18100
H 	H 	0.60877 0.64523 0.31533 0.09000
C 	C 	0.56201 0.78849 0.76113 -0.01000
C 	C 	0.57927 0.78896 0.89623 0.04700
H 	H 	0.61187 0.79823 0.90743 0.02400
C 	C 	0.55017 0.77613 0.01683 -0.22600
H 	H 	0.56377 0.77853 0.10873 0.09600
C 	C 	0.50297 0.76023 0.00623 0.20300
C 	C 	0.48547 0.75993 0.87003 -0.16200
H 	H 	0.45267 0.74993 0.85953 0.07800
C 	C 	0.51417 0.77373 0.74853 0.00500
H 	H 	0.50087 0.77303 0.65733 0.02300
C 	C 	0.47187 0.74733 0.13893 -0.55700
H 	H 	0.48187 0.73123 0.20803 0.17600
H 	H 	0.43857 0.72603 0.11233 0.16200
H 	H 	0.47507 0.77633 0.18213 0.17600
N 	N 	0.33124 0.19971 0.84497 -0.27000
N 	N 	0.27573 0.10796 0.73617 -0.26500
N 	N 	0.19605 0.90579 0.42497 -0.23600
C 	C 	0.35812 0.24767 0.87097 0.13700
C 	C 	0.34203 0.25967 0.00037 -0.11300
H 	H 	0.35533 0.29037 0.04267 0.06300
C 	C 	0.30503 0.21967 0.04917 -0.08600
H 	H 	0.28653 0.21657 0.13167 0.05800
C 	C 	0.29837 0.18234 0.95407 0.10400
C 	C 	0.25982 0.13512 0.96457 -0.08300
C 	C 	0.25110 0.10118 0.86267 0.08000
C 	C 	0.21393 0.05184 0.87577 -0.05500
H 	H 	0.19163 0.03807 0.95177 0.05200
C 	C 	0.21713 0.02922 0.75857 -0.11400
H 	H 	0.19733 0.99637 0.73667 0.07800
C 	C 	0.25563 0.06358 0.67327 0.10600
C 	C 	0.27124 0.05270 0.54607 -0.15000
C 	C 	0.24520 0.00192 0.50197 0.11800
C 	C 	0.21273 0.98567 0.39317 -0.15800
H 	H 	0.20643 0.00707 0.34117 0.07300
C 	C 	0.18925 0.93799 0.35977 0.08700
H 	H 	0.16653 0.92747 0.28437 -0.01400
C 	C 	0.22773 0.92177 0.53247 0.08800
H 	H 	0.23313 0.89947 0.58307 -0.00800
C 	C 	0.25293 0.96882 0.57277 -0.16300
H 	H 	0.27543 0.97857 0.64867 0.08900
C 	C 	0.22867 0.12183 0.09447 -0.00600
C 	C 	0.24593 0.12230 0.22957 0.00500
H 	H 	0.27853 0.13157 0.24077 0.02800
C 	C 	0.21683 0.10947 0.35017 -0.18700
H 	H 	0.23043 0.11187 0.44207 0.08600
C 	C 	0.16963 0.09357 0.33957 0.21000
C 	C 	0.15213 0.09327 0.20337 -0.16900
H 	H 	0.11933 0.08327 0.19287 0.06700
C 	C 	0.18083 0.10707 0.08187 -0.03700
H 	H 	0.16753 0.10637 0.99067 0.04900
C 	C 	0.13853 0.08067 0.47227 -0.55700
H 	H 	0.14853 0.06457 0.54137 0.17500
H 	H 	0.10523 0.05937 0.44567 0.16300
H 	H 	0.14173 0.10967 0.51547 0.17800
N 	N 	0.46696 0.46487 0.17830 -0.27000
N 	N 	0.55871 0.50111 0.06950 -0.26500
N 	N 	0.76088 0.62360 0.75830 -0.24100
C 	C 	0.41900 0.44379 0.20430 0.11900
C 	C 	0.40700 0.41570 0.33370 -0.09400
H 	H 	0.37630 0.39830 0.37600 0.06300
C 	C 	0.44700 0.41870 0.38250 -0.06500
H 	H 	0.45010 0.40330 0.46500 0.05300
C 	C 	0.48433 0.44937 0.28740 0.08100
C 	C 	0.53155 0.45804 0.29790 -0.09200
C 	C 	0.56549 0.48326 0.19600 0.08200
C 	C 	0.61483 0.49543 0.20910 -0.07400
H 	H 	0.62860 0.48690 0.28510 0.05300
C 	C 	0.63745 0.52125 0.09190 -0.08400
H 	H 	0.67030 0.53430 0.07000 0.05400
C 	C 	0.60309 0.52539 0.00660 0.07100
C 	C 	0.61397 0.55188 0.87940 -0.12900
C 	C 	0.66475 0.57662 0.83530 0.15000
C 	C 	0.68100 0.56040 0.72650 -0.20000
H 	H 	0.65960 0.53270 0.67450 0.09400
C 	C 	0.72868 0.58460 0.69310 0.10900
H 	H 	0.73920 0.57240 0.61770 -0.02100
C 	C 	0.74490 0.63930 0.86580 0.10200
H 	H 	0.76720 0.66700 0.91640 -0.00900
C 	C 	0.69785 0.61745 0.90610 -0.18600
H 	H 	0.68810 0.63020 0.98200 0.10000
C 	C 	0.54484 0.44018 0.42780 -0.01000
C 	C 	0.54437 0.45697 0.56290 0.02000
H 	H 	0.53510 0.48030 0.57410 0.02600
C 	C 	0.55720 0.44070 0.68350 -0.20800
H 	H 	0.55480 0.45190 0.77540 0.09600
C 	C 	0.57310 0.40940 0.67290 0.23900
C 	C 	0.57340 0.39220 0.53670 -0.20400
H 	H 	0.58340 0.36940 0.52620 0.08300
C 	C 	0.55960 0.40710 0.41520 0.01800
H 	H 	0.56030 0.39450 0.32400 0.01500
C 	C 	0.58600 0.39120 0.80560 -0.59100
H 	H 	0.60210 0.41730 0.87470 0.19000
H 	H 	0.60730 0.37920 0.77900 0.17700
H 	H 	0.55700 0.36540 0.84880 0.19000
N 	N 	0.13363 0.79820 0.51163 -0.26400
N 	N 	0.22538 0.83444 0.40283 -0.26500
N 	N 	0.42755 0.95693 0.09163 -0.23700
C 	C 	0.08567 0.77712 0.53763 0.10600
C 	C 	0.07367 0.74903 0.66703 -0.08400
H 	H 	0.04297 0.73163 0.70933 0.06100
C 	C 	0.11367 0.75203 0.71583 -0.06900
H 	H 	0.11677 0.73663 0.79833 0.05900
C 	C 	0.15100 0.78270 0.62073 0.08400
C 	C 	0.19822 0.79137 0.63123 -0.09000
C 	C 	0.23216 0.81659 0.52933 0.08200
C 	C 	0.28150 0.82876 0.54243 -0.06600
H 	H 	0.29527 0.82023 0.61843 0.05300
C 	C 	0.30412 0.85458 0.42523 -0.09300
H 	H 	0.33697 0.86763 0.40333 0.06500
C 	C 	0.26976 0.85872 0.33993 0.10100
C 	C 	0.28064 0.88521 0.21273 -0.14900
C 	C 	0.33142 0.90995 0.16863 0.14000
C 	C 	0.34767 0.89373 0.05983 -0.17700
H 	H 	0.32627 0.86603 0.00783 0.07900
C 	C 	0.39535 0.91793 0.02643 0.05600
H 	H 	0.40587 0.90573 0.95103 0.01300
C 	C 	0.41157 0.97263 0.19913 0.11300
H 	H 	0.43387 0.00033 0.24973 -0.02300
C 	C 	0.36452 0.95078 0.23943 -0.19100
H 	H 	0.35477 0.96353 0.31533 0.09600
C 	C 	0.21151 0.77351 0.76113 -0.01000
C 	C 	0.21104 0.79030 0.89623 0.04700
H 	H 	0.20177 0.81363 0.90743 0.02400
C 	C 	0.22387 0.77403 0.01683 -0.22600
H 	H 	0.22147 0.78523 0.10873 0.09600
C 	C 	0.23977 0.74273 0.00623 0.20300
C 	C 	0.24007 0.72553 0.87003 -0.16200
H 	H 	0.25007 0.70273 0.85953 0.07800
C 	C 	0.22627 0.74043 0.74853 0.00500
H 	H 	0.22697 0.72783 0.65733 0.02300
C 	C 	0.25267 0.72453 0.13893 -0.55600
H 	H 	0.26877 0.75063 0.20803 0.17600
H 	H 	0.27397 0.71253 0.11233 0.16200
H 	H 	0.22367 0.69873 0.18213 0.17600
N 	N 	0.80029 0.13154 0.84497 -0.27000
N 	N 	0.89204 0.16778 0.73617 -0.26600
N 	N 	0.09421 0.29027 0.42497 -0.25000
C 	C 	0.75233 0.11046 0.87097 0.13500
C 	C 	0.74033 0.08237 0.00037 -0.11200
H 	H 	0.70963 0.06497 0.04267 0.06100
C 	C 	0.78033 0.08537 0.04917 -0.08700
H 	H 	0.78343 0.06997 0.13167 0.05700
C 	C 	0.81766 0.11604 0.95407 0.10500
C 	C 	0.86488 0.12471 0.96457 -0.08500
C 	C 	0.89882 0.14993 0.86267 0.08600
C 	C 	0.94816 0.16210 0.87577 -0.07200
H 	H 	0.96193 0.15357 0.95177 0.06200
C 	C 	0.97078 0.18792 0.75857 -0.07800
H 	H 	0.00363 0.20097 0.73667 0.05500
C 	C 	0.93642 0.19206 0.67327 0.10500
C 	C 	0.94730 0.21855 0.54607 -0.17200
C 	C 	0.99808 0.24329 0.50197 0.19700
C 	C 	0.01433 0.22707 0.39317 -0.25500
H 	H 	0.99293 0.19937 0.34117 0.11600
C 	C 	0.06201 0.25127 0.35977 0.13300
H 	H 	0.07253 0.23907 0.28437 -0.03100
C 	C 	0.07823 0.30597 0.53247 0.11800
H 	H 	0.10053 0.33367 0.58307 -0.01800
C 	C 	0.03118 0.28412 0.57277 -0.22500
H 	H 	0.02143 0.29687 0.64867 0.10300
C 	C 	0.87817 0.10685 0.09447 -0.00600
C 	C 	0.87770 0.12364 0.22957 0.00700
H 	H 	0.86843 0.14697 0.24077 0.02700
C 	C 	0.89053 0.10737 0.35017 -0.19000
H 	H 	0.88813 0.11857 0.44207 0.08700
C 	C 	0.90643 0.07607 0.33957 0.21400
C 	C 	0.90673 0.05887 0.20337 -0.17100
H 	H 	0.91673 0.03607 0.19287 0.06900
C 	C 	0.89293 0.07377 0.08187 -0.03500
H 	H 	0.89363 0.06117 0.99067 0.04800
C 	C 	0.91933 0.05787 0.47227 -0.56200
H 	H 	0.93543 0.08397 0.54137 0.17900
H 	H 	0.94063 0.04587 0.44567 0.16700
H 	H 	0.89033 0.03207 0.51547 0.17800
N 	N 	0.46487 0.99791 0.82170 -0.25100
N 	N 	0.50111 0.94240 0.93050 -0.26200
N 	N 	0.62360 0.86272 0.24170 -0.24500
C 	C 	0.44379 0.02479 0.79570 0.10000
C 	C 	0.41570 0.00870 0.66630 -0.09800
H 	H 	0.39830 0.02200 0.62400 0.06300
C 	C 	0.41870 0.97170 0.61750 -0.05200
H 	H 	0.40330 0.95320 0.53500 0.05100
C 	C 	0.44937 0.96504 0.71260 0.08100
C 	C 	0.45804 0.92649 0.70210 -0.08900
C 	C 	0.48326 0.91777 0.80400 0.07900
C 	C 	0.49543 0.88060 0.79090 -0.05400
H 	H 	0.48690 0.85830 0.71490 0.04800
C 	C 	0.52125 0.88380 0.90810 -0.11100
H 	H 	0.53430 0.86400 0.93000 0.07800
C 	C 	0.52539 0.92230 0.99340 0.14200
C 	C 	0.55188 0.93791 0.12060 -0.19300
C 	C 	0.57662 0.91187 0.16470 0.16600
C 	C 	0.56040 0.87940 0.27350 -0.21400
H 	H 	0.53270 0.87310 0.32550 0.09900
C 	C 	0.58460 0.85592 0.30690 0.11500
H 	H 	0.57240 0.83320 0.38230 -0.02300
C 	C 	0.63930 0.89440 0.13420 0.10500
H 	H 	0.66700 0.89980 0.08360 -0.01800
C 	C 	0.61745 0.91960 0.09390 -0.20400
H 	H 	0.63020 0.94210 0.01800 0.09300
C 	C 	0.44018 0.89534 0.57220 -0.00400
C 	C 	0.45697 0.91260 0.43710 0.01100
H 	H 	0.48030 0.94520 0.42590 0.03100
C 	C 	0.44070 0.88350 0.31650 -0.19400
H 	H 	0.45190 0.89710 0.22460 0.08600
C 	C 	0.40940 0.83630 0.32710 0.22300
C 	C 	0.39220 0.81880 0.46330 -0.19200
H 	H 	0.36940 0.78600 0.47380 0.08100
C 	C 	0.40710 0.84750 0.58480 0.01000
H 	H 	0.39450 0.83420 0.67600 0.02300
C 	C 	0.39120 0.80520 0.19440 -0.56400
H 	H 	0.41730 0.81520 0.12530 0.17300
H 	H 	0.37920 0.77190 0.22100 0.16700
H 	H 	0.36540 0.80840 0.15120 0.17700
N 	N 	0.13154 0.33124 0.15503 -0.26000
N 	N 	0.16778 0.27573 0.26383 -0.26600
N 	N 	0.29027 0.19605 0.57503 -0.24300
C 	C 	0.11046 0.35812 0.12903 0.08100
C 	C 	0.08237 0.34203 0.99963 -0.06100
H 	H 	0.06497 0.35533 0.95733 0.05800
C 	C 	0.08537 0.30503 0.95083 -0.05000
H 	H 	0.06997 0.28653 0.86833 0.05000
C 	C 	0.11604 0.29837 0.04593 0.06200
C 	C 	0.12471 0.25982 0.03543 -0.10100
C 	C 	0.14993 0.25110 0.13733 0.08100
C 	C 	0.16210 0.21393 0.12423 -0.06600
H 	H 	0.15357 0.19163 0.04823 0.04400
C 	C 	0.18792 0.21713 0.24143 -0.09900
H 	H 	0.20097 0.19733 0.26333 0.06500
C 	C 	0.19206 0.25563 0.32673 0.10500
C 	C 	0.21855 0.27124 0.45393 -0.16100
C 	C 	0.24329 0.24520 0.49803 0.15900
C 	C 	0.22707 0.21273 0.60683 -0.20700
H 	H 	0.19937 0.20643 0.65883 0.09800
C 	C 	0.25127 0.18925 0.64023 0.11300
H 	H 	0.23907 0.16653 0.71563 -0.02100
C 	C 	0.30597 0.22773 0.46753 0.10300
H 	H 	0.33367 0.23313 0.41693 -0.01400
C 	C 	0.28412 0.25293 0.42723 -0.19500
H 	H 	0.29687 0.27543 0.35133 0.09500
C 	C 	0.10685 0.22867 0.90553 -0.00500
C 	C 	0.12364 0.24593 0.77043 0.02100
H 	H 	0.14697 0.27853 0.75923 0.02900
C 	C 	0.10737 0.21683 0.64983 -0.20900
H 	H 	0.11857 0.23043 0.55793 0.09300
C 	C 	0.07607 0.16963 0.66043 0.24300
C 	C 	0.05887 0.15213 0.79663 -0.22300
H 	H 	0.03607 0.11933 0.80713 0.09100
C 	C 	0.07377 0.18083 0.91813 0.06000
H 	H 	0.06117 0.16753 0.00933 -0.01200
C 	C 	0.05787 0.13853 0.52773 -0.58400
H 	H 	0.08397 0.14853 0.45863 0.18300
H 	H 	0.04587 0.10523 0.55433 0.17200
H 	H 	0.03207 0.14173 0.48453 0.18300
N 	N 	0.79820 0.66458 0.48837 -0.26500
N 	N 	0.83444 0.60907 0.59717 -0.26700
N 	N 	0.95693 0.52939 0.90837 -0.25000
C 	C 	0.77712 0.69146 0.46237 0.11000
C 	C 	0.74903 0.67537 0.33297 -0.08900
H 	H 	0.73163 0.68867 0.29067 0.05800
C 	C 	0.75203 0.63837 0.28417 -0.06900
H 	H 	0.73663 0.61987 0.20167 0.05000
C 	C 	0.78270 0.63171 0.37927 0.08300
C 	C 	0.79137 0.59316 0.36877 -0.09400
C 	C 	0.81659 0.58444 0.47067 0.08100
C 	C 	0.82876 0.54727 0.45757 -0.06300
H 	H 	0.82023 0.52497 0.38157 0.04800
C 	C 	0.85458 0.55047 0.57477 -0.10100
H 	H 	0.86763 0.53067 0.59667 0.06700
C 	C 	0.85872 0.58897 0.66007 0.11200
C 	C 	0.88521 0.60458 0.78727 -0.17600
C 	C 	0.90995 0.57854 0.83137 0.18600
C 	C 	0.89373 0.54607 0.94017 -0.24200
H 	H 	0.86603 0.53977 0.99217 0.11500
C 	C 	0.91793 0.52259 0.97357 0.17000
H 	H 	0.90573 0.49987 0.04897 -0.05600
C 	C 	0.97263 0.56107 0.80087 0.13200
H 	H 	0.00033 0.56647 0.75027 -0.02700
C 	C 	0.95078 0.58627 0.76057 -0.21700
H 	H 	0.96353 0.60877 0.68467 0.10600
C 	C 	0.77351 0.56201 0.23887 -0.00300
C 	C 	0.79030 0.57927 0.10377 -0.01500
H 	H 	0.81363 0.61187 0.09257 0.03100
C 	C 	0.77403 0.55017 0.98317 -0.17800
H 	H 	0.78523 0.56377 0.89127 0.08500
C 	C 	0.74273 0.50297 0.99377 0.25600
C 	C 	0.72553 0.48547 0.12997 -0.23100
H 	H 	0.70273 0.45267 0.14047 0.08600
C 	C 	0.74043 0.51417 0.25147 0.02100
H 	H 	0.72783 0.50087 0.34267 0.01600
C 	C 	0.72453 0.47187 0.86107 -0.59700
H 	H 	0.75063 0.48187 0.79197 0.18700
H 	H 	0.71253 0.43857 0.88767 0.18100
H 	H 	0.69873 0.47507 0.81787 0.19100
N 	N 	0.00209 0.46696 0.82170 -0.26200
N 	N 	0.05760 0.55871 0.93050 -0.26500
N 	N 	0.13728 0.76088 0.24170 -0.24500
C 	C 	0.97521 0.41900 0.79570 0.10600
C 	C 	0.99130 0.40700 0.66630 -0.06700
H 	H 	0.97800 0.37630 0.62400 0.05600
C 	C 	0.02830 0.44700 0.61750 -0.08700
H 	H 	0.04680 0.45010 0.53500 0.06000
C 	C 	0.03496 0.48433 0.71260 0.08800
C 	C 	0.07351 0.53155 0.70210 -0.09300
C 	C 	0.08223 0.56549 0.80400 0.08100
C 	C 	0.11940 0.61483 0.79090 -0.05600
H 	H 	0.14170 0.62860 0.71490 0.04900
C 	C 	0.11620 0.63745 0.90810 -0.11000
H 	H 	0.13600 0.67030 0.93000 0.07800
C 	C 	0.07770 0.60309 0.99340 0.14100
C 	C 	0.06209 0.61397 0.12060 -0.19400
C 	C 	0.08813 0.66475 0.16470 0.16500
C 	C 	0.12060 0.68100 0.27350 -0.21400
H 	H 	0.12690 0.65960 0.32550 0.09900
C 	C 	0.14408 0.72868 0.30690 0.11400
H 	H 	0.16680 0.73920 0.38230 -0.02300
C 	C 	0.10560 0.74490 0.13420 0.10300
H 	H 	0.10020 0.76720 0.08360 -0.01800
C 	C 	0.08040 0.69785 0.09390 -0.20300
H 	H 	0.05790 0.68810 0.01800 0.08900
C 	C 	0.10466 0.54484 0.57220 -0.00300
C 	C 	0.08740 0.54437 0.43710 0.01000
H 	H 	0.05480 0.53510 0.42590 0.02800
C 	C 	0.11650 0.55720 0.31650 -0.19500
H 	H 	0.10290 0.55480 0.22460 0.08500
C 	C 	0.16370 0.57310 0.32710 0.22300
C 	C 	0.18120 0.57340 0.46330 -0.19200
H 	H 	0.21400 0.58340 0.47380 0.08100
C 	C 	0.15250 0.55960 0.58480 0.00900
H 	H 	0.16580 0.56030 0.67600 0.02300
C 	C 	0.19480 0.58600 0.19440 -0.56400
H 	H 	0.18480 0.60210 0.12530 0.17300
H 	H 	0.22810 0.60730 0.22100 0.16700
H 	H 	0.19160 0.55700 0.15120 0.17700
N 	N 	0.66876 0.80029 0.15503 -0.26000
N 	N 	0.72427 0.89204 0.26383 -0.26600
N 	N 	0.80395 0.09421 0.57503 -0.25100
C 	C 	0.64188 0.75233 0.12903 0.08300
C 	C 	0.65797 0.74033 0.99963 -0.06200
H 	H 	0.64467 0.70963 0.95733 0.05900
C 	C 	0.69497 0.78033 0.95083 -0.05000
H 	H 	0.71347 0.78343 0.86833 0.05100
C 	C 	0.70163 0.81766 0.04593 0.06200
C 	C 	0.74018 0.86488 0.03543 -0.10100
C 	C 	0.74890 0.89882 0.13733 0.08300
C 	C 	0.78607 0.94816 0.12423 -0.07400
H 	H 	0.80837 0.96193 0.04823 0.05000
C 	C 	0.78287 0.97078 0.24143 -0.08000
H 	H 	0.80267 0.00363 0.26333 0.05400
C 	C 	0.74437 0.93642 0.32673 0.10500
C 	C 	0.72876 0.94730 0.45393 -0.17200
C 	C 	0.75480 0.99808 0.49803 0.19800
C 	C 	0.78727 0.01433 0.60683 -0.25500
H 	H 	0.79357 0.99293 0.65883 0.12000
C 	C 	0.81075 0.06201 0.64023 0.13600
H 	H 	0.83347 0.07253 0.71563 -0.03000
C 	C 	0.77227 0.07823 0.46753 0.11800
H 	H 	0.76687 0.10053 0.41693 -0.01900
C 	C 	0.74707 0.03118 0.42723 -0.22500
H 	H 	0.72457 0.02143 0.35133 0.10200
C 	C 	0.77133 0.87817 0.90553 -0.00700
C 	C 	0.75407 0.87770 0.77043 0.02400
H 	H 	0.72147 0.86843 0.75923 0.02800
C 	C 	0.78317 0.89053 0.64983 -0.21500
H 	H 	0.76957 0.88813 0.55793 0.09500
C 	C 	0.83037 0.90643 0.66043 0.25100
C 	C 	0.84787 0.90673 0.79663 -0.22600
H 	H 	0.88067 0.91673 0.80713 0.09700
C 	C 	0.81917 0.89293 0.91813 0.06300
H 	H 	0.83247 0.89363 0.00933 -0.01000
C 	C 	0.86147 0.91933 0.52773 -0.59800
H 	H 	0.85147 0.93543 0.45863 0.18900
H 	H 	0.89477 0.94063 0.55433 0.18100
H 	H 	0.85827 0.89033 0.48453 0.19000
N 	N 	0.33542 0.13363 0.48837 -0.26400
N 	N 	0.39093 0.22538 0.59717 -0.26700
N 	N 	0.47061 0.42755 0.90837 -0.24900
C 	C 	0.30854 0.08567 0.46237 0.10500
C 	C 	0.32463 0.07367 0.33297 -0.08600
H 	H 	0.31133 0.04297 0.29067 0.05500
C 	C 	0.36163 0.11367 0.28417 -0.07100
H 	H 	0.38013 0.11677 0.20167 0.05100
C 	C 	0.36829 0.15100 0.37927 0.08400
C 	C 	0.40684 0.19822 0.36877 -0.09400
C 	C 	0.41556 0.23216 0.47067 0.08100
C 	C 	0.45273 0.28150 0.45757 -0.06300
H 	H 	0.47503 0.29527 0.38157 0.04800
C 	C 	0.44953 0.30412 0.57477 -0.10100
H 	H 	0.46933 0.33697 0.59667 0.06700
C 	C 	0.41103 0.26976 0.66007 0.11100
C 	C 	0.39542 0.28064 0.78727 -0.17500
C 	C 	0.42146 0.33142 0.83137 0.18100
C 	C 	0.45393 0.34767 0.94017 -0.23900
H 	H 	0.46023 0.32627 0.99217 0.11500
C 	C 	0.47741 0.39535 0.97357 0.16800
H 	H 	0.50013 0.40587 0.04897 -0.05600
C 	C 	0.43893 0.41157 0.80087 0.11300
H 	H 	0.43353 0.43387 0.75027 -0.01600
C 	C 	0.41373 0.36452 0.76057 -0.20800
H 	H 	0.39123 0.35477 0.68467 0.10100
C 	C 	0.43799 0.21151 0.23887 -0.00300
C 	C 	0.42073 0.21104 0.10377 -0.01600
H 	H 	0.38813 0.20177 0.09257 0.03100
C 	C 	0.44983 0.22387 0.98317 -0.17700
H 	H 	0.43623 0.22147 0.89127 0.08500
C 	C 	0.49703 0.23977 0.99377 0.25600
C 	C 	0.51453 0.24007 0.12997 -0.23100
H 	H 	0.54733 0.25007 0.14047 0.08600
C 	C 	0.48583 0.22627 0.25147 0.02100
H 	H 	0.49913 0.22697 0.34267 0.01600
C 	C 	0.52813 0.25267 0.86107 -0.59700
H 	H 	0.51813 0.26877 0.79197 0.18700
H 	H 	0.56143 0.27397 0.88767 0.18100
H 	H 	0.52493 0.22367 0.81787 0.19100
N 	N 	0.53304 0.53513 0.82170 -0.25800
N 	N 	0.44129 0.49889 0.93050 -0.26400
N 	N 	0.23912 0.37640 0.24170 -0.24500
C 	C 	0.58100 0.55621 0.79570 0.10300
C 	C 	0.59300 0.58430 0.66630 -0.08200
H 	H 	0.62370 0.60170 0.62400 0.05900
C 	C 	0.55300 0.58130 0.61750 -0.07000
H 	H 	0.54990 0.59670 0.53500 0.05500
C 	C 	0.51567 0.55063 0.71260 0.08500
C 	C 	0.46845 0.54196 0.70210 -0.09100
C 	C 	0.43451 0.51674 0.80400 0.08000
C 	C 	0.38517 0.50457 0.79090 -0.05500
H 	H 	0.37140 0.51310 0.71490 0.04900
C 	C 	0.36255 0.47875 0.90810 -0.11000
H 	H 	0.32970 0.46570 0.93000 0.07800
C 	C 	0.39691 0.47461 0.99340 0.14200
C 	C 	0.38603 0.44812 0.12060 -0.19400
C 	C 	0.33525 0.42338 0.16470 0.16600
C 	C 	0.31900 0.43960 0.27350 -0.21400
H 	H 	0.34040 0.46730 0.32550 0.09900
C 	C 	0.27132 0.41540 0.30690 0.11400
H 	H 	0.26080 0.42760 0.38230 -0.02300
C 	C 	0.25510 0.36070 0.13420 0.10400
H 	H 	0.23280 0.33300 0.08360 -0.01800
C 	C 	0.30215 0.38255 0.09390 -0.20400
H 	H 	0.31190 0.36980 0.01800 0.09100
C 	C 	0.45516 0.55982 0.57220 -0.00300
C 	C 	0.45563 0.54303 0.43710 0.01000
H 	H 	0.46490 0.51970 0.42590 0.02900
C 	C 	0.44280 0.55930 0.31650 -0.19400
H 	H 	0.44520 0.54810 0.22460 0.08600
C 	C 	0.42690 0.59060 0.32710 0.22300
C 	C 	0.42660 0.60780 0.46330 -0.19200
H 	H 	0.41660 0.63060 0.47380 0.08100
C 	C 	0.44040 0.59290 0.58480 0.00900
H 	H 	0.43970 0.60550 0.67600 0.02300
C 	C 	0.41400 0.60880 0.19440 -0.56400
H 	H 	0.39790 0.58270 0.12530 0.17300
H 	H 	0.39270 0.62080 0.22100 0.16700
H 	H 	0.44300 0.63460 0.15120 0.17700
N 	N 	0.19971 0.86846 0.15503 -0.26000
N 	N 	0.10796 0.83222 0.26383 -0.26500
N 	N 	0.90579 0.70973 0.57503 -0.23600
C 	C 	0.24767 0.88954 0.12903 0.08500
C 	C 	0.25967 0.91763 0.99963 -0.06300
H 	H 	0.29037 0.93503 0.95733 0.06100
C 	C 	0.21967 0.91463 0.95083 -0.04800
H 	H 	0.21657 0.93003 0.86833 0.05100
C 	C 	0.18234 0.88396 0.04593 0.06100
C 	C 	0.13512 0.87529 0.03543 -0.09900
C 	C 	0.10118 0.85007 0.13733 0.07700
C 	C 	0.05184 0.83790 0.12423 -0.05700
H 	H 	0.03807 0.84643 0.04823 0.03900
C 	C 	0.02922 0.81208 0.24143 -0.11700
H 	H 	0.99637 0.79903 0.26333 0.07700
C 	C 	0.06358 0.80794 0.32673 0.10600
C 	C 	0.05270 0.78145 0.45393 -0.15100
C 	C 	0.00192 0.75671 0.49803 0.12000
C 	C 	0.98567 0.77293 0.60683 -0.16000
H 	H 	0.00707 0.80063 0.65883 0.07800
C 	C 	0.93799 0.74873 0.64023 0.09100
H 	H 	0.92747 0.76093 0.71563 -0.01300
C 	C 	0.92177 0.69403 0.46753 0.08900
H 	H 	0.89947 0.66633 0.41693 -0.00900
C 	C 	0.96882 0.71588 0.42723 -0.16500
H 	H 	0.97857 0.70313 0.35133 0.08800
C 	C 	0.12183 0.89315 0.90553 -0.00700
C 	C 	0.12230 0.87636 0.77043 0.02400
H 	H 	0.13157 0.85303 0.75923 0.02800
C 	C 	0.10947 0.89263 0.64983 -0.21300
H 	H 	0.11187 0.88143 0.55793 0.09500
C 	C 	0.09357 0.92393 0.66043 0.24800
C 	C 	0.09327 0.94113 0.79663 -0.22600
H 	H 	0.08327 0.96393 0.80713 0.09600
C 	C 	0.10707 0.92623 0.91813 0.06400
H 	H 	0.10637 0.93883 0.00933 -0.01100
C 	C 	0.08067 0.94213 0.52773 -0.59400
H 	H 	0.06457 0.91603 0.45863 0.18500
H 	H 	0.05937 0.95413 0.55433 0.17700
H 	H 	0.10967 0.96793 0.48453 0.19000
N 	N 	0.86637 0.20180 0.48837 -0.26600
N 	N 	0.77462 0.16556 0.59717 -0.26600
N 	N 	0.57245 0.04307 0.90837 -0.24600
C 	C 	0.91433 0.22288 0.46237 0.11600
C 	C 	0.92633 0.25097 0.33297 -0.09300
H 	H 	0.95703 0.26837 0.29067 0.06200
C 	C 	0.88633 0.24797 0.28417 -0.06600
H 	H 	0.88323 0.26337 0.20167 0.05000
C 	C 	0.84900 0.21730 0.37927 0.08200
C 	C 	0.80178 0.20863 0.36877 -0.09300
C 	C 	0.76784 0.18341 0.47067 0.08100
C 	C 	0.71850 0.17124 0.45757 -0.06300
H 	H 	0.70473 0.17977 0.38157 0.04800
C 	C 	0.69588 0.14542 0.57477 -0.10100
H 	H 	0.66303 0.13237 0.59667 0.06600
C 	C 	0.73024 0.14128 0.66007 0.11000
C 	C 	0.71936 0.11479 0.78727 -0.17300
C 	C 	0.66858 0.09005 0.83137 0.17500
C 	C 	0.65233 0.10627 0.94017 -0.23500
H 	H 	0.67373 0.13397 0.99217 0.11300
C 	C 	0.60465 0.08207 0.97357 0.16500
H 	H 	0.59413 0.09427 0.04897 -0.05500
C 	C 	0.58843 0.02737 0.80087 0.09400
H 	H 	0.56613 0.99967 0.75027 -0.00300
C 	C 	0.63548 0.04922 0.76057 -0.19700
H 	H 	0.64523 0.03647 0.68467 0.09500
C 	C 	0.78849 0.22649 0.23887 -0.00300
C 	C 	0.78896 0.20970 0.10377 -0.01500
H 	H 	0.79823 0.18637 0.09257 0.03100
C 	C 	0.77613 0.22597 0.98317 -0.17800
H 	H 	0.77853 0.21477 0.89127 0.08500
C 	C 	0.76023 0.25727 0.99377 0.25600
C 	C 	0.75993 0.27447 0.12997 -0.23100
H 	H 	0.74993 0.29727 0.14047 0.08600
C 	C 	0.77373 0.25957 0.25147 0.02100
H 	H 	0.77303 0.27217 0.34267 0.01600
C 	C 	0.74733 0.27547 0.86107 -0.59700
H 	H 	0.73123 0.24937 0.79197 0.18700
H 	H 	0.72603 0.28747 0.88767 0.18100
H 	H 	0.77633 0.30127 0.81787 0.19100
Co	Co	0.50000 0.00000 -0.00000 1.12700
Co	Co	0.16667 0.33333 0.33333 1.14100
Co	Co	0.83333 0.66667 0.66667 1.14100
Co	Co	0.00000 0.50000 -0.00000 1.12700
Co	Co	0.66667 0.83333 0.33333 1.14100
Co	Co	0.33333 0.16667 0.66667 1.14100
Co	Co	0.50000 0.50000 -0.00000 1.13000
Co	Co	0.16667 0.83333 0.33333 1.14000
Co	Co	0.83333 0.16667 0.66667 1.14100
