data_crystal

_cell_length_a 26.29200
_cell_length_b 26.29200
_cell_length_c 26.29200
_cell_angle_alpha 90.00000
_cell_angle_beta  90.00000
_cell_angle_gamma 90.00000

_symmetry_space_group_name_	'P 1'
_symmetry_space_group_name_H-M	'P 1'

loop_
_symmetry_equiv_pos_as_xyz
  x,y,z

loop_
_atom_site_label
_atom_site_type_symbol
_atom_site_fract_x
_atom_site_fract_y
_atom_site_fract_z
_atom_site_charge
Li	Li	0.74464 0.60960 0.89129 0.54400
B 	B 	0.74894 0.59999 0.10198 0.91600
N 	N 	0.75752 0.62182 0.04809 -0.28900
N 	N 	0.75276 0.63373 0.96430 -0.23000
C 	C 	0.73868 0.60470 0.00334 0.11000
H 	H 	0.71780 0.57540 0.00020 -0.03200
C 	C 	0.78211 0.67209 0.98536 0.18500
C 	C 	0.78459 0.66533 0.03631 -0.08200
H 	H 	0.80190 0.68670 0.05980 0.03000
C 	C 	0.80416 0.71301 0.95410 -0.55000
H 	H 	0.77740 0.72850 0.93330 0.16700
H 	H 	0.83050 0.69880 0.93190 0.16300
H 	H 	0.81920 0.73890 0.97630 0.16100
N 	N 	0.72468 0.54629 0.09824 -0.29100
N 	N 	0.71594 0.46214 0.10300 -0.23100
C 	C 	0.74646 0.50132 0.10859 0.11600
H 	H 	0.78090 0.49810 0.11900 -0.03300
C 	C 	0.67014 0.48341 0.08795 0.16600
C 	C 	0.67547 0.53456 0.08558 -0.06700
H 	H 	0.64960 0.55820 0.07670 0.02500
C 	C 	0.62489 0.45026 0.07747 -0.52000
H 	H 	0.63180 0.42880 0.04780 0.15700
H 	H 	0.59510 0.47160 0.07070 0.15200
H 	H 	0.61820 0.42870 0.10710 0.15800
N 	N 	0.80094 0.59650 0.12766 -0.30100
N 	N 	0.86293 0.60121 0.18538 -0.23600
C 	C 	0.81418 0.60941 0.17475 0.12500
H 	H 	0.79090 0.62330 0.19860 -0.04300
C 	C 	0.88368 0.58142 0.14106 0.16900
C 	C 	0.84530 0.57793 0.10542 -0.06900
H 	H 	0.84860 0.56520 0.07180 0.02600
C 	C 	0.93819 0.56694 0.13529 -0.52900
H 	H 	0.95890 0.59770 0.13190 0.16100
H 	H 	0.94230 0.54580 0.10490 0.15500
H 	H 	0.94920 0.54780 0.16530 0.16100
N 	N 	0.71222 0.63427 0.13078 -0.29700
N 	N 	0.65709 0.69725 0.14561 -0.23900
C 	C 	0.69029 0.67719 0.11415 0.11200
H 	H 	0.69810 0.69190 0.08210 -0.03600
C 	C 	0.65661 0.66457 0.18676 0.19700
C 	C 	0.68908 0.62611 0.17827 -0.09400
H 	H 	0.69530 0.59830 0.20050 0.03400
C 	C 	0.62427 0.67411 0.23093 -0.56500
H 	H 	0.62770 0.64600 0.25510 0.16400
H 	H 	0.58870 0.67680 0.22000 0.16600
H 	H 	0.63470 0.70590 0.24730 0.17100
Li	Li	0.25536 0.39040 0.89129 0.54400
B 	B 	0.25106 0.40001 0.10198 0.91600
N 	N 	0.24248 0.37818 0.04809 -0.28900
N 	N 	0.24724 0.36627 0.96430 -0.23000
C 	C 	0.26132 0.39530 0.00334 0.11000
H 	H 	0.28220 0.42460 0.00020 -0.03200
C 	C 	0.21789 0.32791 0.98536 0.18500
C 	C 	0.21541 0.33467 0.03631 -0.08200
H 	H 	0.19810 0.31330 0.05980 0.03000
C 	C 	0.19584 0.28699 0.95410 -0.55000
H 	H 	0.22260 0.27150 0.93330 0.16700
H 	H 	0.16950 0.30120 0.93190 0.16300
H 	H 	0.18080 0.26110 0.97630 0.16100
N 	N 	0.27532 0.45371 0.09824 -0.29100
N 	N 	0.28406 0.53786 0.10300 -0.23100
C 	C 	0.25354 0.49868 0.10859 0.11600
H 	H 	0.21910 0.50190 0.11900 -0.03300
C 	C 	0.32986 0.51659 0.08795 0.16600
C 	C 	0.32453 0.46544 0.08558 -0.06700
H 	H 	0.35040 0.44180 0.07670 0.02500
C 	C 	0.37511 0.54974 0.07747 -0.52000
H 	H 	0.36820 0.57120 0.04780 0.15700
H 	H 	0.40490 0.52840 0.07070 0.15200
H 	H 	0.38180 0.57130 0.10710 0.15800
N 	N 	0.19906 0.40350 0.12766 -0.30100
N 	N 	0.13707 0.39879 0.18538 -0.23600
C 	C 	0.18582 0.39059 0.17475 0.12600
H 	H 	0.20910 0.37670 0.19860 -0.04200
C 	C 	0.11632 0.41858 0.14106 0.17000
C 	C 	0.15470 0.42207 0.10542 -0.06800
H 	H 	0.15140 0.43480 0.07180 0.02700
C 	C 	0.06181 0.43306 0.13529 -0.52800
H 	H 	0.04110 0.40230 0.13190 0.16200
H 	H 	0.05770 0.45420 0.10490 0.15600
H 	H 	0.05080 0.45220 0.16530 0.16200
N 	N 	0.28778 0.36573 0.13078 -0.29600
N 	N 	0.34291 0.30275 0.14561 -0.23800
C 	C 	0.30971 0.32281 0.11415 0.11300
H 	H 	0.30190 0.30810 0.08210 -0.03500
C 	C 	0.34339 0.33543 0.18676 0.19800
C 	C 	0.31092 0.37389 0.17827 -0.09300
H 	H 	0.30470 0.40170 0.20050 0.03500
C 	C 	0.37573 0.32589 0.23093 -0.56400
H 	H 	0.37230 0.35400 0.25510 0.16500
H 	H 	0.41130 0.32320 0.22000 0.16700
H 	H 	0.36530 0.29410 0.24730 0.17200
Li	Li	0.25536 0.60960 0.10871 0.54500
B 	B 	0.25106 0.59999 0.89802 0.91700
N 	N 	0.24248 0.62182 0.95191 -0.28800
N 	N 	0.24724 0.63373 0.03570 -0.22900
C 	C 	0.26132 0.60470 0.99666 0.11100
H 	H 	0.28220 0.57540 0.99980 -0.03100
C 	C 	0.21789 0.67209 0.01464 0.18600
C 	C 	0.21541 0.66533 0.96369 -0.08100
H 	H 	0.19810 0.68670 0.94020 0.03100
C 	C 	0.19584 0.71301 0.04590 -0.54900
H 	H 	0.22260 0.72850 0.06670 0.16800
H 	H 	0.16950 0.69880 0.06810 0.16400
H 	H 	0.18080 0.73890 0.02370 0.16200
N 	N 	0.27532 0.54629 0.90176 -0.29000
N 	N 	0.28406 0.46214 0.89700 -0.23000
C 	C 	0.25354 0.50132 0.89141 0.11700
H 	H 	0.21910 0.49810 0.88100 -0.03200
C 	C 	0.32986 0.48341 0.91205 0.16700
C 	C 	0.32453 0.53456 0.91442 -0.06600
H 	H 	0.35040 0.55820 0.92330 0.02600
C 	C 	0.37511 0.45026 0.92253 -0.51900
H 	H 	0.36820 0.42880 0.95220 0.15800
H 	H 	0.40490 0.47160 0.92930 0.15300
H 	H 	0.38180 0.42870 0.89290 0.15900
N 	N 	0.19906 0.59650 0.87234 -0.30000
N 	N 	0.13707 0.60121 0.81462 -0.23500
C 	C 	0.18582 0.60941 0.82525 0.12600
H 	H 	0.20910 0.62330 0.80140 -0.04200
C 	C 	0.11632 0.58142 0.85894 0.17000
C 	C 	0.15470 0.57793 0.89458 -0.06800
H 	H 	0.15140 0.56520 0.92820 0.02700
C 	C 	0.06181 0.56694 0.86471 -0.52800
H 	H 	0.04110 0.59770 0.86810 0.16200
H 	H 	0.05770 0.54580 0.89510 0.15600
H 	H 	0.05080 0.54780 0.83470 0.16200
N 	N 	0.28778 0.63427 0.86922 -0.29600
N 	N 	0.34291 0.69725 0.85439 -0.23800
C 	C 	0.30971 0.67719 0.88585 0.11300
H 	H 	0.30190 0.69190 0.91790 -0.03500
C 	C 	0.34339 0.66457 0.81324 0.19800
C 	C 	0.31092 0.62611 0.82173 -0.09300
H 	H 	0.30470 0.59830 0.79950 0.03500
C 	C 	0.37573 0.67411 0.76907 -0.56400
H 	H 	0.37230 0.64600 0.74490 0.16500
H 	H 	0.41130 0.67680 0.78000 0.16700
H 	H 	0.36530 0.70590 0.75270 0.17200
Li	Li	0.74464 0.39040 0.10871 0.54500
B 	B 	0.74894 0.40001 0.89802 0.91700
N 	N 	0.75752 0.37818 0.95191 -0.28800
N 	N 	0.75276 0.36627 0.03570 -0.22900
C 	C 	0.73868 0.39530 0.99666 0.11100
H 	H 	0.71780 0.42460 0.99980 -0.03100
C 	C 	0.78211 0.32791 0.01464 0.18600
C 	C 	0.78459 0.33467 0.96369 -0.08100
H 	H 	0.80190 0.31330 0.94020 0.03100
C 	C 	0.80416 0.28699 0.04590 -0.54900
H 	H 	0.77740 0.27150 0.06670 0.16800
H 	H 	0.83050 0.30120 0.06810 0.16400
H 	H 	0.81920 0.26110 0.02370 0.16200
N 	N 	0.72468 0.45371 0.90176 -0.29000
N 	N 	0.71594 0.53786 0.89700 -0.23000
C 	C 	0.74646 0.49868 0.89141 0.11700
H 	H 	0.78090 0.50190 0.88100 -0.03200
C 	C 	0.67014 0.51659 0.91205 0.16700
C 	C 	0.67547 0.46544 0.91442 -0.06600
H 	H 	0.64960 0.44180 0.92330 0.02600
C 	C 	0.62489 0.54974 0.92253 -0.51900
H 	H 	0.63180 0.57120 0.95220 0.15800
H 	H 	0.59510 0.52840 0.92930 0.15300
H 	H 	0.61820 0.57130 0.89290 0.15900
N 	N 	0.80094 0.40350 0.87234 -0.30000
N 	N 	0.86293 0.39879 0.81462 -0.23500
C 	C 	0.81418 0.39059 0.82525 0.12600
H 	H 	0.79090 0.37670 0.80140 -0.04200
C 	C 	0.88368 0.41858 0.85894 0.17000
C 	C 	0.84530 0.42207 0.89458 -0.06800
H 	H 	0.84860 0.43480 0.92820 0.02700
C 	C 	0.93819 0.43306 0.86471 -0.52800
H 	H 	0.95890 0.40230 0.86810 0.16200
H 	H 	0.94230 0.45420 0.89510 0.15600
H 	H 	0.94920 0.45220 0.83470 0.16200
N 	N 	0.71222 0.36573 0.86922 -0.29600
N 	N 	0.65709 0.30275 0.85439 -0.23800
C 	C 	0.69029 0.32281 0.88585 0.11300
H 	H 	0.69810 0.30810 0.91790 -0.03500
C 	C 	0.65661 0.33543 0.81324 0.19800
C 	C 	0.68908 0.37389 0.82173 -0.09300
H 	H 	0.69530 0.40170 0.79950 0.03500
C 	C 	0.62427 0.32589 0.76907 -0.56400
H 	H 	0.62770 0.35400 0.74490 0.16500
H 	H 	0.58870 0.32320 0.78000 0.16700
H 	H 	0.63470 0.29410 0.75270 0.17200
Li	Li	0.89129 0.74464 0.60960 0.54500
B 	B 	0.10198 0.74894 0.59999 0.91700
N 	N 	0.04809 0.75752 0.62182 -0.28800
N 	N 	0.96430 0.75276 0.63373 -0.22900
C 	C 	0.00334 0.73868 0.60470 0.11100
H 	H 	0.00020 0.71780 0.57540 -0.03100
C 	C 	0.98536 0.78211 0.67209 0.18600
C 	C 	0.03631 0.78459 0.66533 -0.08100
H 	H 	0.05980 0.80190 0.68670 0.03100
C 	C 	0.95410 0.80416 0.71301 -0.54900
H 	H 	0.93330 0.77740 0.72850 0.16800
H 	H 	0.93190 0.83050 0.69880 0.16400
H 	H 	0.97630 0.81920 0.73890 0.16200
N 	N 	0.09824 0.72468 0.54629 -0.29000
N 	N 	0.10300 0.71594 0.46214 -0.23000
C 	C 	0.10859 0.74646 0.50132 0.11700
H 	H 	0.11900 0.78090 0.49810 -0.03200
C 	C 	0.08795 0.67014 0.48341 0.16700
C 	C 	0.08558 0.67547 0.53456 -0.06600
H 	H 	0.07670 0.64960 0.55820 0.02600
C 	C 	0.07747 0.62489 0.45026 -0.51900
H 	H 	0.04780 0.63180 0.42880 0.15800
H 	H 	0.07070 0.59510 0.47160 0.15300
H 	H 	0.10710 0.61820 0.42870 0.15900
N 	N 	0.12766 0.80094 0.59650 -0.30000
N 	N 	0.18538 0.86293 0.60121 -0.23500
C 	C 	0.17475 0.81418 0.60941 0.12600
H 	H 	0.19860 0.79090 0.62330 -0.04200
C 	C 	0.14106 0.88368 0.58142 0.17000
C 	C 	0.10542 0.84530 0.57793 -0.06800
H 	H 	0.07180 0.84860 0.56520 0.02700
C 	C 	0.13529 0.93819 0.56694 -0.52800
H 	H 	0.13190 0.95890 0.59770 0.16200
H 	H 	0.10490 0.94230 0.54580 0.15600
H 	H 	0.16530 0.94920 0.54780 0.16200
N 	N 	0.13078 0.71222 0.63427 -0.29600
N 	N 	0.14561 0.65709 0.69725 -0.23800
C 	C 	0.11415 0.69029 0.67719 0.11300
H 	H 	0.08210 0.69810 0.69190 -0.03500
C 	C 	0.18676 0.65661 0.66457 0.19800
C 	C 	0.17827 0.68908 0.62611 -0.09300
H 	H 	0.20050 0.69530 0.59830 0.03500
C 	C 	0.23093 0.62427 0.67411 -0.56400
H 	H 	0.25510 0.62770 0.64600 0.16500
H 	H 	0.22000 0.58870 0.67680 0.16700
H 	H 	0.24730 0.63470 0.70590 0.17200
Li	Li	0.89129 0.25536 0.39040 0.54500
B 	B 	0.10198 0.25106 0.40001 0.91700
N 	N 	0.04809 0.24248 0.37818 -0.28800
N 	N 	0.96430 0.24724 0.36627 -0.22900
C 	C 	0.00334 0.26132 0.39530 0.11100
H 	H 	0.00020 0.28220 0.42460 -0.03100
C 	C 	0.98536 0.21789 0.32791 0.18600
C 	C 	0.03631 0.21541 0.33467 -0.08100
H 	H 	0.05980 0.19810 0.31330 0.03100
C 	C 	0.95410 0.19584 0.28699 -0.54900
H 	H 	0.93330 0.22260 0.27150 0.16800
H 	H 	0.93190 0.16950 0.30120 0.16400
H 	H 	0.97630 0.18080 0.26110 0.16200
N 	N 	0.09824 0.27532 0.45371 -0.29000
N 	N 	0.10300 0.28406 0.53786 -0.23000
C 	C 	0.10859 0.25354 0.49868 0.11700
H 	H 	0.11900 0.21910 0.50190 -0.03200
C 	C 	0.08795 0.32986 0.51659 0.16700
C 	C 	0.08558 0.32453 0.46544 -0.06600
H 	H 	0.07670 0.35040 0.44180 0.02600
C 	C 	0.07747 0.37511 0.54974 -0.51900
H 	H 	0.04780 0.36820 0.57120 0.15800
H 	H 	0.07070 0.40490 0.52840 0.15300
H 	H 	0.10710 0.38180 0.57130 0.15900
N 	N 	0.12766 0.19906 0.40350 -0.30000
N 	N 	0.18538 0.13707 0.39879 -0.23500
C 	C 	0.17475 0.18582 0.39059 0.12600
H 	H 	0.19860 0.20910 0.37670 -0.04200
C 	C 	0.14106 0.11632 0.41858 0.17000
C 	C 	0.10542 0.15470 0.42207 -0.06800
H 	H 	0.07180 0.15140 0.43480 0.02700
C 	C 	0.13529 0.06181 0.43306 -0.52800
H 	H 	0.13190 0.04110 0.40230 0.16200
H 	H 	0.10490 0.05770 0.45420 0.15600
H 	H 	0.16530 0.05080 0.45220 0.16200
N 	N 	0.13078 0.28778 0.36573 -0.29600
N 	N 	0.14561 0.34291 0.30275 -0.23800
C 	C 	0.11415 0.30971 0.32281 0.11300
H 	H 	0.08210 0.30190 0.30810 -0.03500
C 	C 	0.18676 0.34339 0.33543 0.19800
C 	C 	0.17827 0.31092 0.37389 -0.09300
H 	H 	0.20050 0.30470 0.40170 0.03500
C 	C 	0.23093 0.37573 0.32589 -0.56400
H 	H 	0.25510 0.37230 0.35400 0.16500
H 	H 	0.22000 0.41130 0.32320 0.16700
H 	H 	0.24730 0.36530 0.29410 0.17200
Li	Li	0.10871 0.25536 0.60960 0.54500
B 	B 	0.89802 0.25106 0.59999 0.91700
N 	N 	0.95191 0.24248 0.62182 -0.28800
N 	N 	0.03570 0.24724 0.63373 -0.22900
C 	C 	0.99666 0.26132 0.60470 0.11100
H 	H 	0.99980 0.28220 0.57540 -0.03100
C 	C 	0.01464 0.21789 0.67209 0.18600
C 	C 	0.96369 0.21541 0.66533 -0.08100
H 	H 	0.94020 0.19810 0.68670 0.03100
C 	C 	0.04590 0.19584 0.71301 -0.54900
H 	H 	0.06670 0.22260 0.72850 0.16800
H 	H 	0.06810 0.16950 0.69880 0.16400
H 	H 	0.02370 0.18080 0.73890 0.16200
N 	N 	0.90176 0.27532 0.54629 -0.29000
N 	N 	0.89700 0.28406 0.46214 -0.23000
C 	C 	0.89141 0.25354 0.50132 0.11700
H 	H 	0.88100 0.21910 0.49810 -0.03200
C 	C 	0.91205 0.32986 0.48341 0.16700
C 	C 	0.91442 0.32453 0.53456 -0.06600
H 	H 	0.92330 0.35040 0.55820 0.02600
C 	C 	0.92253 0.37511 0.45026 -0.51900
H 	H 	0.95220 0.36820 0.42880 0.15800
H 	H 	0.92930 0.40490 0.47160 0.15300
H 	H 	0.89290 0.38180 0.42870 0.15900
N 	N 	0.87234 0.19906 0.59650 -0.30000
N 	N 	0.81462 0.13707 0.60121 -0.23500
C 	C 	0.82525 0.18582 0.60941 0.12600
H 	H 	0.80140 0.20910 0.62330 -0.04200
C 	C 	0.85894 0.11632 0.58142 0.17000
C 	C 	0.89458 0.15470 0.57793 -0.06800
H 	H 	0.92820 0.15140 0.56520 0.02700
C 	C 	0.86471 0.06181 0.56694 -0.52800
H 	H 	0.86810 0.04110 0.59770 0.16200
H 	H 	0.89510 0.05770 0.54580 0.15600
H 	H 	0.83470 0.05080 0.54780 0.16200
N 	N 	0.86922 0.28778 0.63427 -0.29600
N 	N 	0.85439 0.34291 0.69725 -0.23800
C 	C 	0.88585 0.30971 0.67719 0.11300
H 	H 	0.91790 0.30190 0.69190 -0.03500
C 	C 	0.81324 0.34339 0.66457 0.19800
C 	C 	0.82173 0.31092 0.62611 -0.09300
H 	H 	0.79950 0.30470 0.59830 0.03500
C 	C 	0.76907 0.37573 0.67411 -0.56400
H 	H 	0.74490 0.37230 0.64600 0.16500
H 	H 	0.78000 0.41130 0.67680 0.16700
H 	H 	0.75270 0.36530 0.70590 0.17200
Li	Li	0.10871 0.74464 0.39040 0.54500
B 	B 	0.89802 0.74894 0.40001 0.91700
N 	N 	0.95191 0.75752 0.37818 -0.28800
N 	N 	0.03570 0.75276 0.36627 -0.22900
C 	C 	0.99666 0.73868 0.39530 0.11100
H 	H 	0.99980 0.71780 0.42460 -0.03100
C 	C 	0.01464 0.78211 0.32791 0.18600
C 	C 	0.96369 0.78459 0.33467 -0.08100
H 	H 	0.94020 0.80190 0.31330 0.03100
C 	C 	0.04590 0.80416 0.28699 -0.54900
H 	H 	0.06670 0.77740 0.27150 0.16800
H 	H 	0.06810 0.83050 0.30120 0.16400
H 	H 	0.02370 0.81920 0.26110 0.16200
N 	N 	0.90176 0.72468 0.45371 -0.29000
N 	N 	0.89700 0.71594 0.53786 -0.23000
C 	C 	0.89141 0.74646 0.49868 0.11700
H 	H 	0.88100 0.78090 0.50190 -0.03200
C 	C 	0.91205 0.67014 0.51659 0.16700
C 	C 	0.91442 0.67547 0.46544 -0.06600
H 	H 	0.92330 0.64960 0.44180 0.02600
C 	C 	0.92253 0.62489 0.54974 -0.51900
H 	H 	0.95220 0.63180 0.57120 0.15800
H 	H 	0.92930 0.59510 0.52840 0.15300
H 	H 	0.89290 0.61820 0.57130 0.15900
N 	N 	0.87234 0.80094 0.40350 -0.30000
N 	N 	0.81462 0.86293 0.39879 -0.23500
C 	C 	0.82525 0.81418 0.39059 0.12600
H 	H 	0.80140 0.79090 0.37670 -0.04200
C 	C 	0.85894 0.88368 0.41858 0.17000
C 	C 	0.89458 0.84530 0.42207 -0.06800
H 	H 	0.92820 0.84860 0.43480 0.02700
C 	C 	0.86471 0.93819 0.43306 -0.52800
H 	H 	0.86810 0.95890 0.40230 0.16200
H 	H 	0.89510 0.94230 0.45420 0.15600
H 	H 	0.83470 0.94920 0.45220 0.16200
N 	N 	0.86922 0.71222 0.36573 -0.29600
N 	N 	0.85439 0.65709 0.30275 -0.23800
C 	C 	0.88585 0.69029 0.32281 0.11300
H 	H 	0.91790 0.69810 0.30810 -0.03500
C 	C 	0.81324 0.65661 0.33543 0.19800
C 	C 	0.82173 0.68908 0.37389 -0.09300
H 	H 	0.79950 0.69530 0.40170 0.03500
C 	C 	0.76907 0.62427 0.32589 -0.56400
H 	H 	0.74490 0.62770 0.35400 0.16500
H 	H 	0.78000 0.58870 0.32320 0.16700
H 	H 	0.75270 0.63470 0.29410 0.17200
Li	Li	0.60960 0.89129 0.74464 0.54500
B 	B 	0.59999 0.10198 0.74894 0.91700
N 	N 	0.62182 0.04809 0.75752 -0.28800
N 	N 	0.63373 0.96430 0.75276 -0.22900
C 	C 	0.60470 0.00334 0.73868 0.11100
H 	H 	0.57540 0.00020 0.71780 -0.03100
C 	C 	0.67209 0.98536 0.78211 0.18600
C 	C 	0.66533 0.03631 0.78459 -0.08100
H 	H 	0.68670 0.05980 0.80190 0.03100
C 	C 	0.71301 0.95410 0.80416 -0.54900
H 	H 	0.72850 0.93330 0.77740 0.16800
H 	H 	0.69880 0.93190 0.83050 0.16400
H 	H 	0.73890 0.97630 0.81920 0.16200
N 	N 	0.54629 0.09824 0.72468 -0.29000
N 	N 	0.46214 0.10300 0.71594 -0.23000
C 	C 	0.50132 0.10859 0.74646 0.11700
H 	H 	0.49810 0.11900 0.78090 -0.03200
C 	C 	0.48341 0.08795 0.67014 0.16700
C 	C 	0.53456 0.08558 0.67547 -0.06600
H 	H 	0.55820 0.07670 0.64960 0.02600
C 	C 	0.45026 0.07747 0.62489 -0.51900
H 	H 	0.42880 0.04780 0.63180 0.15800
H 	H 	0.47160 0.07070 0.59510 0.15300
H 	H 	0.42870 0.10710 0.61820 0.15900
N 	N 	0.59650 0.12766 0.80094 -0.30000
N 	N 	0.60121 0.18538 0.86293 -0.23500
C 	C 	0.60941 0.17475 0.81418 0.12600
H 	H 	0.62330 0.19860 0.79090 -0.04200
C 	C 	0.58142 0.14106 0.88368 0.17000
C 	C 	0.57793 0.10542 0.84530 -0.06800
H 	H 	0.56520 0.07180 0.84860 0.02700
C 	C 	0.56694 0.13529 0.93819 -0.52800
H 	H 	0.59770 0.13190 0.95890 0.16200
H 	H 	0.54580 0.10490 0.94230 0.15600
H 	H 	0.54780 0.16530 0.94920 0.16200
N 	N 	0.63427 0.13078 0.71222 -0.29600
N 	N 	0.69725 0.14561 0.65709 -0.23800
C 	C 	0.67719 0.11415 0.69029 0.11300
H 	H 	0.69190 0.08210 0.69810 -0.03500
C 	C 	0.66457 0.18676 0.65661 0.19800
C 	C 	0.62611 0.17827 0.68908 -0.09300
H 	H 	0.59830 0.20050 0.69530 0.03500
C 	C 	0.67411 0.23093 0.62427 -0.56400
H 	H 	0.64600 0.25510 0.62770 0.16500
H 	H 	0.67680 0.22000 0.58870 0.16700
H 	H 	0.70590 0.24730 0.63470 0.17200
Li	Li	0.39040 0.89129 0.25536 0.54500
B 	B 	0.40001 0.10198 0.25106 0.91700
N 	N 	0.37818 0.04809 0.24248 -0.28800
N 	N 	0.36627 0.96430 0.24724 -0.22900
C 	C 	0.39530 0.00334 0.26132 0.11100
H 	H 	0.42460 0.00020 0.28220 -0.03100
C 	C 	0.32791 0.98536 0.21789 0.18600
C 	C 	0.33467 0.03631 0.21541 -0.08100
H 	H 	0.31330 0.05980 0.19810 0.03100
C 	C 	0.28699 0.95410 0.19584 -0.54900
H 	H 	0.27150 0.93330 0.22260 0.16800
H 	H 	0.30120 0.93190 0.16950 0.16400
H 	H 	0.26110 0.97630 0.18080 0.16200
N 	N 	0.45371 0.09824 0.27532 -0.29000
N 	N 	0.53786 0.10300 0.28406 -0.23000
C 	C 	0.49868 0.10859 0.25354 0.11700
H 	H 	0.50190 0.11900 0.21910 -0.03200
C 	C 	0.51659 0.08795 0.32986 0.16700
C 	C 	0.46544 0.08558 0.32453 -0.06600
H 	H 	0.44180 0.07670 0.35040 0.02600
C 	C 	0.54974 0.07747 0.37511 -0.51900
H 	H 	0.57120 0.04780 0.36820 0.15800
H 	H 	0.52840 0.07070 0.40490 0.15300
H 	H 	0.57130 0.10710 0.38180 0.15900
N 	N 	0.40350 0.12766 0.19906 -0.30000
N 	N 	0.39879 0.18538 0.13707 -0.23500
C 	C 	0.39059 0.17475 0.18582 0.12600
H 	H 	0.37670 0.19860 0.20910 -0.04200
C 	C 	0.41858 0.14106 0.11632 0.17000
C 	C 	0.42207 0.10542 0.15470 -0.06800
H 	H 	0.43480 0.07180 0.15140 0.02700
C 	C 	0.43306 0.13529 0.06181 -0.52800
H 	H 	0.40230 0.13190 0.04110 0.16200
H 	H 	0.45420 0.10490 0.05770 0.15600
H 	H 	0.45220 0.16530 0.05080 0.16200
N 	N 	0.36573 0.13078 0.28778 -0.29600
N 	N 	0.30275 0.14561 0.34291 -0.23800
C 	C 	0.32281 0.11415 0.30971 0.11300
H 	H 	0.30810 0.08210 0.30190 -0.03500
C 	C 	0.33543 0.18676 0.34339 0.19800
C 	C 	0.37389 0.17827 0.31092 -0.09300
H 	H 	0.40170 0.20050 0.30470 0.03500
C 	C 	0.32589 0.23093 0.37573 -0.56400
H 	H 	0.35400 0.25510 0.37230 0.16500
H 	H 	0.32320 0.22000 0.41130 0.16700
H 	H 	0.29410 0.24730 0.36530 0.17200
Li	Li	0.60960 0.10871 0.25536 0.54500
B 	B 	0.59999 0.89802 0.25106 0.91700
N 	N 	0.62182 0.95191 0.24248 -0.28800
N 	N 	0.63373 0.03570 0.24724 -0.22900
C 	C 	0.60470 0.99666 0.26132 0.11100
H 	H 	0.57540 0.99980 0.28220 -0.03100
C 	C 	0.67209 0.01464 0.21789 0.18600
C 	C 	0.66533 0.96369 0.21541 -0.08100
H 	H 	0.68670 0.94020 0.19810 0.03100
C 	C 	0.71301 0.04590 0.19584 -0.54900
H 	H 	0.72850 0.06670 0.22260 0.16800
H 	H 	0.69880 0.06810 0.16950 0.16400
H 	H 	0.73890 0.02370 0.18080 0.16200
N 	N 	0.54629 0.90176 0.27532 -0.29000
N 	N 	0.46214 0.89700 0.28406 -0.23000
C 	C 	0.50132 0.89141 0.25354 0.11700
H 	H 	0.49810 0.88100 0.21910 -0.03200
C 	C 	0.48341 0.91205 0.32986 0.16700
C 	C 	0.53456 0.91442 0.32453 -0.06600
H 	H 	0.55820 0.92330 0.35040 0.02600
C 	C 	0.45026 0.92253 0.37511 -0.51900
H 	H 	0.42880 0.95220 0.36820 0.15800
H 	H 	0.47160 0.92930 0.40490 0.15300
H 	H 	0.42870 0.89290 0.38180 0.15900
N 	N 	0.59650 0.87234 0.19906 -0.30000
N 	N 	0.60121 0.81462 0.13707 -0.23500
C 	C 	0.60941 0.82525 0.18582 0.12600
H 	H 	0.62330 0.80140 0.20910 -0.04200
C 	C 	0.58142 0.85894 0.11632 0.17000
C 	C 	0.57793 0.89458 0.15470 -0.06800
H 	H 	0.56520 0.92820 0.15140 0.02700
C 	C 	0.56694 0.86471 0.06181 -0.52800
H 	H 	0.59770 0.86810 0.04110 0.16200
H 	H 	0.54580 0.89510 0.05770 0.15600
H 	H 	0.54780 0.83470 0.05080 0.16200
N 	N 	0.63427 0.86922 0.28778 -0.29600
N 	N 	0.69725 0.85439 0.34291 -0.23800
C 	C 	0.67719 0.88585 0.30971 0.11300
H 	H 	0.69190 0.91790 0.30190 -0.03500
C 	C 	0.66457 0.81324 0.34339 0.19800
C 	C 	0.62611 0.82173 0.31092 -0.09300
H 	H 	0.59830 0.79950 0.30470 0.03500
C 	C 	0.67411 0.76907 0.37573 -0.56400
H 	H 	0.64600 0.74490 0.37230 0.16500
H 	H 	0.67680 0.78000 0.41130 0.16700
H 	H 	0.70590 0.75270 0.36530 0.17200
Li	Li	0.39040 0.10871 0.74464 0.54500
B 	B 	0.40001 0.89802 0.74894 0.91700
N 	N 	0.37818 0.95191 0.75752 -0.28800
N 	N 	0.36627 0.03570 0.75276 -0.22900
C 	C 	0.39530 0.99666 0.73868 0.11100
H 	H 	0.42460 0.99980 0.71780 -0.03100
C 	C 	0.32791 0.01464 0.78211 0.18600
C 	C 	0.33467 0.96369 0.78459 -0.08100
H 	H 	0.31330 0.94020 0.80190 0.03100
C 	C 	0.28699 0.04590 0.80416 -0.54900
H 	H 	0.27150 0.06670 0.77740 0.16800
H 	H 	0.30120 0.06810 0.83050 0.16400
H 	H 	0.26110 0.02370 0.81920 0.16200
N 	N 	0.45371 0.90176 0.72468 -0.29000
N 	N 	0.53786 0.89700 0.71594 -0.23000
C 	C 	0.49868 0.89141 0.74646 0.11700
H 	H 	0.50190 0.88100 0.78090 -0.03200
C 	C 	0.51659 0.91205 0.67014 0.16700
C 	C 	0.46544 0.91442 0.67547 -0.06600
H 	H 	0.44180 0.92330 0.64960 0.02600
C 	C 	0.54974 0.92253 0.62489 -0.51900
H 	H 	0.57120 0.95220 0.63180 0.15800
H 	H 	0.52840 0.92930 0.59510 0.15300
H 	H 	0.57130 0.89290 0.61820 0.15900
N 	N 	0.40350 0.87234 0.80094 -0.30000
N 	N 	0.39879 0.81462 0.86293 -0.23500
C 	C 	0.39059 0.82525 0.81418 0.12600
H 	H 	0.37670 0.80140 0.79090 -0.04200
C 	C 	0.41858 0.85894 0.88368 0.17000
C 	C 	0.42207 0.89458 0.84530 -0.06800
H 	H 	0.43480 0.92820 0.84860 0.02700
C 	C 	0.43306 0.86471 0.93819 -0.52800
H 	H 	0.40230 0.86810 0.95890 0.16200
H 	H 	0.45420 0.89510 0.94230 0.15600
H 	H 	0.45220 0.83470 0.94920 0.16200
N 	N 	0.36573 0.86922 0.71222 -0.29600
N 	N 	0.30275 0.85439 0.65709 -0.23800
C 	C 	0.32281 0.88585 0.69029 0.11300
H 	H 	0.30810 0.91790 0.69810 -0.03500
C 	C 	0.33543 0.81324 0.65661 0.19800
C 	C 	0.37389 0.82173 0.68908 -0.09300
H 	H 	0.40170 0.79950 0.69530 0.03500
C 	C 	0.32589 0.76907 0.62427 -0.56400
H 	H 	0.35400 0.74490 0.62770 0.16500
H 	H 	0.32320 0.78000 0.58870 0.16700
H 	H 	0.29410 0.75270 0.63470 0.17200
Li	Li	0.60960 0.74464 0.10871 0.54500
B 	B 	0.59999 0.74894 0.89802 0.91700
N 	N 	0.62182 0.75752 0.95191 -0.28800
N 	N 	0.63373 0.75276 0.03570 -0.22900
C 	C 	0.60470 0.73868 0.99666 0.11100
H 	H 	0.57540 0.71780 0.99980 -0.03100
C 	C 	0.67209 0.78211 0.01464 0.18600
C 	C 	0.66533 0.78459 0.96369 -0.08100
H 	H 	0.68670 0.80190 0.94020 0.03100
C 	C 	0.71301 0.80416 0.04590 -0.54900
H 	H 	0.72850 0.77740 0.06670 0.16800
H 	H 	0.69880 0.83050 0.06810 0.16400
H 	H 	0.73890 0.81920 0.02370 0.16200
N 	N 	0.54629 0.72468 0.90176 -0.29000
N 	N 	0.46214 0.71594 0.89700 -0.23000
C 	C 	0.50132 0.74646 0.89141 0.11700
H 	H 	0.49810 0.78090 0.88100 -0.03200
C 	C 	0.48341 0.67014 0.91205 0.16700
C 	C 	0.53456 0.67547 0.91442 -0.06600
H 	H 	0.55820 0.64960 0.92330 0.02600
C 	C 	0.45026 0.62489 0.92253 -0.51900
H 	H 	0.42880 0.63180 0.95220 0.15800
H 	H 	0.47160 0.59510 0.92930 0.15300
H 	H 	0.42870 0.61820 0.89290 0.15900
N 	N 	0.59650 0.80094 0.87234 -0.30000
N 	N 	0.60121 0.86293 0.81462 -0.23500
C 	C 	0.60941 0.81418 0.82525 0.12600
H 	H 	0.62330 0.79090 0.80140 -0.04200
C 	C 	0.58142 0.88368 0.85894 0.17000
C 	C 	0.57793 0.84530 0.89458 -0.06800
H 	H 	0.56520 0.84860 0.92820 0.02700
C 	C 	0.56694 0.93819 0.86471 -0.52800
H 	H 	0.59770 0.95890 0.86810 0.16200
H 	H 	0.54580 0.94230 0.89510 0.15600
H 	H 	0.54780 0.94920 0.83470 0.16200
N 	N 	0.63427 0.71222 0.86922 -0.29600
N 	N 	0.69725 0.65709 0.85439 -0.23800
C 	C 	0.67719 0.69029 0.88585 0.11300
H 	H 	0.69190 0.69810 0.91790 -0.03500
C 	C 	0.66457 0.65661 0.81324 0.19800
C 	C 	0.62611 0.68908 0.82173 -0.09300
H 	H 	0.59830 0.69530 0.79950 0.03500
C 	C 	0.67411 0.62427 0.76907 -0.56400
H 	H 	0.64600 0.62770 0.74490 0.16500
H 	H 	0.67680 0.58870 0.78000 0.16700
H 	H 	0.70590 0.63470 0.75270 0.17200
Li	Li	0.39040 0.25536 0.10871 0.54500
B 	B 	0.40001 0.25106 0.89802 0.91700
N 	N 	0.37818 0.24248 0.95191 -0.28800
N 	N 	0.36627 0.24724 0.03570 -0.22900
C 	C 	0.39530 0.26132 0.99666 0.11100
H 	H 	0.42460 0.28220 0.99980 -0.03100
C 	C 	0.32791 0.21789 0.01464 0.18600
C 	C 	0.33467 0.21541 0.96369 -0.08100
H 	H 	0.31330 0.19810 0.94020 0.03100
C 	C 	0.28699 0.19584 0.04590 -0.54900
H 	H 	0.27150 0.22260 0.06670 0.16800
H 	H 	0.30120 0.16950 0.06810 0.16400
H 	H 	0.26110 0.18080 0.02370 0.16200
N 	N 	0.45371 0.27532 0.90176 -0.29000
N 	N 	0.53786 0.28406 0.89700 -0.23000
C 	C 	0.49868 0.25354 0.89141 0.11700
H 	H 	0.50190 0.21910 0.88100 -0.03200
C 	C 	0.51659 0.32986 0.91205 0.16700
C 	C 	0.46544 0.32453 0.91442 -0.06600
H 	H 	0.44180 0.35040 0.92330 0.02600
C 	C 	0.54974 0.37511 0.92253 -0.51900
H 	H 	0.57120 0.36820 0.95220 0.15800
H 	H 	0.52840 0.40490 0.92930 0.15300
H 	H 	0.57130 0.38180 0.89290 0.15900
N 	N 	0.40350 0.19906 0.87234 -0.30000
N 	N 	0.39879 0.13707 0.81462 -0.23500
C 	C 	0.39059 0.18582 0.82525 0.12600
H 	H 	0.37670 0.20910 0.80140 -0.04200
C 	C 	0.41858 0.11632 0.85894 0.17000
C 	C 	0.42207 0.15470 0.89458 -0.06800
H 	H 	0.43480 0.15140 0.92820 0.02700
C 	C 	0.43306 0.06181 0.86471 -0.52800
H 	H 	0.40230 0.04110 0.86810 0.16200
H 	H 	0.45420 0.05770 0.89510 0.15600
H 	H 	0.45220 0.05080 0.83470 0.16200
N 	N 	0.36573 0.28778 0.86922 -0.29600
N 	N 	0.30275 0.34291 0.85439 -0.23800
C 	C 	0.32281 0.30971 0.88585 0.11300
H 	H 	0.30810 0.30190 0.91790 -0.03500
C 	C 	0.33543 0.34339 0.81324 0.19800
C 	C 	0.37389 0.31092 0.82173 -0.09300
H 	H 	0.40170 0.30470 0.79950 0.03500
C 	C 	0.32589 0.37573 0.76907 -0.56400
H 	H 	0.35400 0.37230 0.74490 0.16500
H 	H 	0.32320 0.41130 0.78000 0.16700
H 	H 	0.29410 0.36530 0.75270 0.17200
Li	Li	0.60960 0.25536 0.89129 0.54500
B 	B 	0.59999 0.25106 0.10198 0.91700
N 	N 	0.62182 0.24248 0.04809 -0.28800
N 	N 	0.63373 0.24724 0.96430 -0.22900
C 	C 	0.60470 0.26132 0.00334 0.11100
H 	H 	0.57540 0.28220 0.00020 -0.03100
C 	C 	0.67209 0.21789 0.98536 0.18600
C 	C 	0.66533 0.21541 0.03631 -0.08100
H 	H 	0.68670 0.19810 0.05980 0.03100
C 	C 	0.71301 0.19584 0.95410 -0.54900
H 	H 	0.72850 0.22260 0.93330 0.16800
H 	H 	0.69880 0.16950 0.93190 0.16400
H 	H 	0.73890 0.18080 0.97630 0.16200
N 	N 	0.54629 0.27532 0.09824 -0.29000
N 	N 	0.46214 0.28406 0.10300 -0.23000
C 	C 	0.50132 0.25354 0.10859 0.11700
H 	H 	0.49810 0.21910 0.11900 -0.03200
C 	C 	0.48341 0.32986 0.08795 0.16700
C 	C 	0.53456 0.32453 0.08558 -0.06600
H 	H 	0.55820 0.35040 0.07670 0.02600
C 	C 	0.45026 0.37511 0.07747 -0.51900
H 	H 	0.42880 0.36820 0.04780 0.15800
H 	H 	0.47160 0.40490 0.07070 0.15300
H 	H 	0.42870 0.38180 0.10710 0.15900
N 	N 	0.59650 0.19906 0.12766 -0.30000
N 	N 	0.60121 0.13707 0.18538 -0.23500
C 	C 	0.60941 0.18582 0.17475 0.12600
H 	H 	0.62330 0.20910 0.19860 -0.04200
C 	C 	0.58142 0.11632 0.14106 0.17000
C 	C 	0.57793 0.15470 0.10542 -0.06800
H 	H 	0.56520 0.15140 0.07180 0.02700
C 	C 	0.56694 0.06181 0.13529 -0.52800
H 	H 	0.59770 0.04110 0.13190 0.16200
H 	H 	0.54580 0.05770 0.10490 0.15600
H 	H 	0.54780 0.05080 0.16530 0.16200
N 	N 	0.63427 0.28778 0.13078 -0.29600
N 	N 	0.69725 0.34291 0.14561 -0.23800
C 	C 	0.67719 0.30971 0.11415 0.11300
H 	H 	0.69190 0.30190 0.08210 -0.03500
C 	C 	0.66457 0.34339 0.18676 0.19800
C 	C 	0.62611 0.31092 0.17827 -0.09300
H 	H 	0.59830 0.30470 0.20050 0.03500
C 	C 	0.67411 0.37573 0.23093 -0.56400
H 	H 	0.64600 0.37230 0.25510 0.16500
H 	H 	0.67680 0.41130 0.22000 0.16700
H 	H 	0.70590 0.36530 0.24730 0.17200
Li	Li	0.39040 0.74464 0.89129 0.54500
B 	B 	0.40001 0.74894 0.10198 0.91700
N 	N 	0.37818 0.75752 0.04809 -0.28800
N 	N 	0.36627 0.75276 0.96430 -0.22900
C 	C 	0.39530 0.73868 0.00334 0.11100
H 	H 	0.42460 0.71780 0.00020 -0.03100
C 	C 	0.32791 0.78211 0.98536 0.18600
C 	C 	0.33467 0.78459 0.03631 -0.08100
H 	H 	0.31330 0.80190 0.05980 0.03100
C 	C 	0.28699 0.80416 0.95410 -0.54900
H 	H 	0.27150 0.77740 0.93330 0.16800
H 	H 	0.30120 0.83050 0.93190 0.16400
H 	H 	0.26110 0.81920 0.97630 0.16200
N 	N 	0.45371 0.72468 0.09824 -0.29000
N 	N 	0.53786 0.71594 0.10300 -0.23000
C 	C 	0.49868 0.74646 0.10859 0.11700
H 	H 	0.50190 0.78090 0.11900 -0.03200
C 	C 	0.51659 0.67014 0.08795 0.16700
C 	C 	0.46544 0.67547 0.08558 -0.06600
H 	H 	0.44180 0.64960 0.07670 0.02600
C 	C 	0.54974 0.62489 0.07747 -0.51900
H 	H 	0.57120 0.63180 0.04780 0.15800
H 	H 	0.52840 0.59510 0.07070 0.15300
H 	H 	0.57130 0.61820 0.10710 0.15900
N 	N 	0.40350 0.80094 0.12766 -0.30000
N 	N 	0.39879 0.86293 0.18538 -0.23500
C 	C 	0.39059 0.81418 0.17475 0.12600
H 	H 	0.37670 0.79090 0.19860 -0.04200
C 	C 	0.41858 0.88368 0.14106 0.17000
C 	C 	0.42207 0.84530 0.10542 -0.06800
H 	H 	0.43480 0.84860 0.07180 0.02700
C 	C 	0.43306 0.93819 0.13529 -0.52800
H 	H 	0.40230 0.95890 0.13190 0.16200
H 	H 	0.45420 0.94230 0.10490 0.15600
H 	H 	0.45220 0.94920 0.16530 0.16200
N 	N 	0.36573 0.71222 0.13078 -0.29600
N 	N 	0.30275 0.65709 0.14561 -0.23800
C 	C 	0.32281 0.69029 0.11415 0.11300
H 	H 	0.30810 0.69810 0.08210 -0.03500
C 	C 	0.33543 0.65661 0.18676 0.19800
C 	C 	0.37389 0.68908 0.17827 -0.09300
H 	H 	0.40170 0.69530 0.20050 0.03500
C 	C 	0.32589 0.62427 0.23093 -0.56400
H 	H 	0.35400 0.62770 0.25510 0.16500
H 	H 	0.32320 0.58870 0.22000 0.16700
H 	H 	0.29410 0.63470 0.24730 0.17200
Li	Li	0.74464 0.89129 0.39040 0.54500
B 	B 	0.74894 0.10198 0.40001 0.91700
N 	N 	0.75752 0.04809 0.37818 -0.28800
N 	N 	0.75276 0.96430 0.36627 -0.22900
C 	C 	0.73868 0.00334 0.39530 0.11100
H 	H 	0.71780 0.00020 0.42460 -0.03100
C 	C 	0.78211 0.98536 0.32791 0.18600
C 	C 	0.78459 0.03631 0.33467 -0.08100
H 	H 	0.80190 0.05980 0.31330 0.03100
C 	C 	0.80416 0.95410 0.28699 -0.54900
H 	H 	0.77740 0.93330 0.27150 0.16800
H 	H 	0.83050 0.93190 0.30120 0.16400
H 	H 	0.81920 0.97630 0.26110 0.16200
N 	N 	0.72468 0.09824 0.45371 -0.29000
N 	N 	0.71594 0.10300 0.53786 -0.23000
C 	C 	0.74646 0.10859 0.49868 0.11700
H 	H 	0.78090 0.11900 0.50190 -0.03200
C 	C 	0.67014 0.08795 0.51659 0.16700
C 	C 	0.67547 0.08558 0.46544 -0.06600
H 	H 	0.64960 0.07670 0.44180 0.02600
C 	C 	0.62489 0.07747 0.54974 -0.51900
H 	H 	0.63180 0.04780 0.57120 0.15800
H 	H 	0.59510 0.07070 0.52840 0.15300
H 	H 	0.61820 0.10710 0.57130 0.15900
N 	N 	0.80094 0.12766 0.40350 -0.30000
N 	N 	0.86293 0.18538 0.39879 -0.23500
C 	C 	0.81418 0.17475 0.39059 0.12600
H 	H 	0.79090 0.19860 0.37670 -0.04200
C 	C 	0.88368 0.14106 0.41858 0.17000
C 	C 	0.84530 0.10542 0.42207 -0.06800
H 	H 	0.84860 0.07180 0.43480 0.02700
C 	C 	0.93819 0.13529 0.43306 -0.52800
H 	H 	0.95890 0.13190 0.40230 0.16200
H 	H 	0.94230 0.10490 0.45420 0.15600
H 	H 	0.94920 0.16530 0.45220 0.16200
N 	N 	0.71222 0.13078 0.36573 -0.29600
N 	N 	0.65709 0.14561 0.30275 -0.23800
C 	C 	0.69029 0.11415 0.32281 0.11300
H 	H 	0.69810 0.08210 0.30810 -0.03500
C 	C 	0.65661 0.18676 0.33543 0.19800
C 	C 	0.68908 0.17827 0.37389 -0.09300
H 	H 	0.69530 0.20050 0.40170 0.03500
C 	C 	0.62427 0.23093 0.32589 -0.56400
H 	H 	0.62770 0.25510 0.35400 0.16500
H 	H 	0.58870 0.22000 0.32320 0.16700
H 	H 	0.63470 0.24730 0.29410 0.17200
Li	Li	0.25536 0.89129 0.60960 0.54500
B 	B 	0.25106 0.10198 0.59999 0.91700
N 	N 	0.24248 0.04809 0.62182 -0.28800
N 	N 	0.24724 0.96430 0.63373 -0.22900
C 	C 	0.26132 0.00334 0.60470 0.11100
H 	H 	0.28220 0.00020 0.57540 -0.03100
C 	C 	0.21789 0.98536 0.67209 0.18600
C 	C 	0.21541 0.03631 0.66533 -0.08100
H 	H 	0.19810 0.05980 0.68670 0.03100
C 	C 	0.19584 0.95410 0.71301 -0.54900
H 	H 	0.22260 0.93330 0.72850 0.16800
H 	H 	0.16950 0.93190 0.69880 0.16400
H 	H 	0.18080 0.97630 0.73890 0.16200
N 	N 	0.27532 0.09824 0.54629 -0.29000
N 	N 	0.28406 0.10300 0.46214 -0.23000
C 	C 	0.25354 0.10859 0.50132 0.11700
H 	H 	0.21910 0.11900 0.49810 -0.03200
C 	C 	0.32986 0.08795 0.48341 0.16700
C 	C 	0.32453 0.08558 0.53456 -0.06600
H 	H 	0.35040 0.07670 0.55820 0.02600
C 	C 	0.37511 0.07747 0.45026 -0.51900
H 	H 	0.36820 0.04780 0.42880 0.15800
H 	H 	0.40490 0.07070 0.47160 0.15300
H 	H 	0.38180 0.10710 0.42870 0.15900
N 	N 	0.19906 0.12766 0.59650 -0.30000
N 	N 	0.13707 0.18538 0.60121 -0.23500
C 	C 	0.18582 0.17475 0.60941 0.12600
H 	H 	0.20910 0.19860 0.62330 -0.04200
C 	C 	0.11632 0.14106 0.58142 0.17000
C 	C 	0.15470 0.10542 0.57793 -0.06800
H 	H 	0.15140 0.07180 0.56520 0.02700
C 	C 	0.06181 0.13529 0.56694 -0.52800
H 	H 	0.04110 0.13190 0.59770 0.16200
H 	H 	0.05770 0.10490 0.54580 0.15600
H 	H 	0.05080 0.16530 0.54780 0.16200
N 	N 	0.28778 0.13078 0.63427 -0.29600
N 	N 	0.34291 0.14561 0.69725 -0.23800
C 	C 	0.30971 0.11415 0.67719 0.11300
H 	H 	0.30190 0.08210 0.69190 -0.03500
C 	C 	0.34339 0.18676 0.66457 0.19800
C 	C 	0.31092 0.17827 0.62611 -0.09300
H 	H 	0.30470 0.20050 0.59830 0.03500
C 	C 	0.37573 0.23093 0.67411 -0.56400
H 	H 	0.37230 0.25510 0.64600 0.16500
H 	H 	0.41130 0.22000 0.67680 0.16700
H 	H 	0.36530 0.24730 0.70590 0.17200
Li	Li	0.25536 0.10871 0.39040 0.54500
B 	B 	0.25106 0.89802 0.40001 0.91700
N 	N 	0.24248 0.95191 0.37818 -0.28800
N 	N 	0.24724 0.03570 0.36627 -0.22900
C 	C 	0.26132 0.99666 0.39530 0.11100
H 	H 	0.28220 0.99980 0.42460 -0.03100
C 	C 	0.21789 0.01464 0.32791 0.18600
C 	C 	0.21541 0.96369 0.33467 -0.08100
H 	H 	0.19810 0.94020 0.31330 0.03100
C 	C 	0.19584 0.04590 0.28699 -0.54900
H 	H 	0.22260 0.06670 0.27150 0.16800
H 	H 	0.16950 0.06810 0.30120 0.16400
H 	H 	0.18080 0.02370 0.26110 0.16200
N 	N 	0.27532 0.90176 0.45371 -0.29000
N 	N 	0.28406 0.89700 0.53786 -0.23000
C 	C 	0.25354 0.89141 0.49868 0.11700
H 	H 	0.21910 0.88100 0.50190 -0.03200
C 	C 	0.32986 0.91205 0.51659 0.16700
C 	C 	0.32453 0.91442 0.46544 -0.06600
H 	H 	0.35040 0.92330 0.44180 0.02600
C 	C 	0.37511 0.92253 0.54974 -0.51900
H 	H 	0.36820 0.95220 0.57120 0.15800
H 	H 	0.40490 0.92930 0.52840 0.15300
H 	H 	0.38180 0.89290 0.57130 0.15900
N 	N 	0.19906 0.87234 0.40350 -0.30000
N 	N 	0.13707 0.81462 0.39879 -0.23500
C 	C 	0.18582 0.82525 0.39059 0.12600
H 	H 	0.20910 0.80140 0.37670 -0.04200
C 	C 	0.11632 0.85894 0.41858 0.17000
C 	C 	0.15470 0.89458 0.42207 -0.06800
H 	H 	0.15140 0.92820 0.43480 0.02700
C 	C 	0.06181 0.86471 0.43306 -0.52800
H 	H 	0.04110 0.86810 0.40230 0.16200
H 	H 	0.05770 0.89510 0.45420 0.15600
H 	H 	0.05080 0.83470 0.45220 0.16200
N 	N 	0.28778 0.86922 0.36573 -0.29600
N 	N 	0.34291 0.85439 0.30275 -0.23800
C 	C 	0.30971 0.88585 0.32281 0.11300
H 	H 	0.30190 0.91790 0.30810 -0.03500
C 	C 	0.34339 0.81324 0.33543 0.19800
C 	C 	0.31092 0.82173 0.37389 -0.09300
H 	H 	0.30470 0.79950 0.40170 0.03500
C 	C 	0.37573 0.76907 0.32589 -0.56400
H 	H 	0.37230 0.74490 0.35400 0.16500
H 	H 	0.41130 0.78000 0.32320 0.16700
H 	H 	0.36530 0.75270 0.29410 0.17200
Li	Li	0.74464 0.10871 0.60960 0.54500
B 	B 	0.74894 0.89802 0.59999 0.91700
N 	N 	0.75752 0.95191 0.62182 -0.28800
N 	N 	0.75276 0.03570 0.63373 -0.22900
C 	C 	0.73868 0.99666 0.60470 0.11100
H 	H 	0.71780 0.99980 0.57540 -0.03100
C 	C 	0.78211 0.01464 0.67209 0.18600
C 	C 	0.78459 0.96369 0.66533 -0.08100
H 	H 	0.80190 0.94020 0.68670 0.03100
C 	C 	0.80416 0.04590 0.71301 -0.54900
H 	H 	0.77740 0.06670 0.72850 0.16800
H 	H 	0.83050 0.06810 0.69880 0.16400
H 	H 	0.81920 0.02370 0.73890 0.16200
N 	N 	0.72468 0.90176 0.54629 -0.29000
N 	N 	0.71594 0.89700 0.46214 -0.23000
C 	C 	0.74646 0.89141 0.50132 0.11700
H 	H 	0.78090 0.88100 0.49810 -0.03200
C 	C 	0.67014 0.91205 0.48341 0.16700
C 	C 	0.67547 0.91442 0.53456 -0.06600
H 	H 	0.64960 0.92330 0.55820 0.02600
C 	C 	0.62489 0.92253 0.45026 -0.51900
H 	H 	0.63180 0.95220 0.42880 0.15800
H 	H 	0.59510 0.92930 0.47160 0.15300
H 	H 	0.61820 0.89290 0.42870 0.15900
N 	N 	0.80094 0.87234 0.59650 -0.30000
N 	N 	0.86293 0.81462 0.60121 -0.23500
C 	C 	0.81418 0.82525 0.60941 0.12600
H 	H 	0.79090 0.80140 0.62330 -0.04200
C 	C 	0.88368 0.85894 0.58142 0.17000
C 	C 	0.84530 0.89458 0.57793 -0.06800
H 	H 	0.84860 0.92820 0.56520 0.02700
C 	C 	0.93819 0.86471 0.56694 -0.52800
H 	H 	0.95890 0.86810 0.59770 0.16200
H 	H 	0.94230 0.89510 0.54580 0.15600
H 	H 	0.94920 0.83470 0.54780 0.16200
N 	N 	0.71222 0.86922 0.63427 -0.29600
N 	N 	0.65709 0.85439 0.69725 -0.23800
C 	C 	0.69029 0.88585 0.67719 0.11300
H 	H 	0.69810 0.91790 0.69190 -0.03500
C 	C 	0.65661 0.81324 0.66457 0.19800
C 	C 	0.68908 0.82173 0.62611 -0.09300
H 	H 	0.69530 0.79950 0.59830 0.03500
C 	C 	0.62427 0.76907 0.67411 -0.56400
H 	H 	0.62770 0.74490 0.64600 0.16500
H 	H 	0.58870 0.78000 0.67680 0.16700
H 	H 	0.63470 0.75270 0.70590 0.17200
Li	Li	0.89129 0.60960 0.25536 0.54500
B 	B 	0.10198 0.59999 0.25106 0.91700
N 	N 	0.04809 0.62182 0.24248 -0.28800
N 	N 	0.96430 0.63373 0.24724 -0.22900
C 	C 	0.00334 0.60470 0.26132 0.11100
H 	H 	0.00020 0.57540 0.28220 -0.03100
C 	C 	0.98536 0.67209 0.21789 0.18600
C 	C 	0.03631 0.66533 0.21541 -0.08100
H 	H 	0.05980 0.68670 0.19810 0.03100
C 	C 	0.95410 0.71301 0.19584 -0.54900
H 	H 	0.93330 0.72850 0.22260 0.16800
H 	H 	0.93190 0.69880 0.16950 0.16400
H 	H 	0.97630 0.73890 0.18080 0.16200
N 	N 	0.09824 0.54629 0.27532 -0.29000
N 	N 	0.10300 0.46214 0.28406 -0.23000
C 	C 	0.10859 0.50132 0.25354 0.11700
H 	H 	0.11900 0.49810 0.21910 -0.03200
C 	C 	0.08795 0.48341 0.32986 0.16700
C 	C 	0.08558 0.53456 0.32453 -0.06600
H 	H 	0.07670 0.55820 0.35040 0.02600
C 	C 	0.07747 0.45026 0.37511 -0.51900
H 	H 	0.04780 0.42880 0.36820 0.15800
H 	H 	0.07070 0.47160 0.40490 0.15300
H 	H 	0.10710 0.42870 0.38180 0.15900
N 	N 	0.12766 0.59650 0.19906 -0.30000
N 	N 	0.18538 0.60121 0.13707 -0.23500
C 	C 	0.17475 0.60941 0.18582 0.12600
H 	H 	0.19860 0.62330 0.20910 -0.04200
C 	C 	0.14106 0.58142 0.11632 0.17000
C 	C 	0.10542 0.57793 0.15470 -0.06800
H 	H 	0.07180 0.56520 0.15140 0.02700
C 	C 	0.13529 0.56694 0.06181 -0.52800
H 	H 	0.13190 0.59770 0.04110 0.16200
H 	H 	0.10490 0.54580 0.05770 0.15600
H 	H 	0.16530 0.54780 0.05080 0.16200
N 	N 	0.13078 0.63427 0.28778 -0.29600
N 	N 	0.14561 0.69725 0.34291 -0.23800
C 	C 	0.11415 0.67719 0.30971 0.11300
H 	H 	0.08210 0.69190 0.30190 -0.03500
C 	C 	0.18676 0.66457 0.34339 0.19800
C 	C 	0.17827 0.62611 0.31092 -0.09300
H 	H 	0.20050 0.59830 0.30470 0.03500
C 	C 	0.23093 0.67411 0.37573 -0.56400
H 	H 	0.25510 0.64600 0.37230 0.16500
H 	H 	0.22000 0.67680 0.41130 0.16700
H 	H 	0.24730 0.70590 0.36530 0.17200
Li	Li	0.89129 0.39040 0.74464 0.54500
B 	B 	0.10198 0.40001 0.74894 0.91700
N 	N 	0.04809 0.37818 0.75752 -0.28800
N 	N 	0.96430 0.36627 0.75276 -0.22900
C 	C 	0.00334 0.39530 0.73868 0.11100
H 	H 	0.00020 0.42460 0.71780 -0.03100
C 	C 	0.98536 0.32791 0.78211 0.18600
C 	C 	0.03631 0.33467 0.78459 -0.08100
H 	H 	0.05980 0.31330 0.80190 0.03100
C 	C 	0.95410 0.28699 0.80416 -0.54900
H 	H 	0.93330 0.27150 0.77740 0.16800
H 	H 	0.93190 0.30120 0.83050 0.16400
H 	H 	0.97630 0.26110 0.81920 0.16200
N 	N 	0.09824 0.45371 0.72468 -0.29000
N 	N 	0.10300 0.53786 0.71594 -0.23000
C 	C 	0.10859 0.49868 0.74646 0.11700
H 	H 	0.11900 0.50190 0.78090 -0.03200
C 	C 	0.08795 0.51659 0.67014 0.16700
C 	C 	0.08558 0.46544 0.67547 -0.06600
H 	H 	0.07670 0.44180 0.64960 0.02600
C 	C 	0.07747 0.54974 0.62489 -0.51900
H 	H 	0.04780 0.57120 0.63180 0.15800
H 	H 	0.07070 0.52840 0.59510 0.15300
H 	H 	0.10710 0.57130 0.61820 0.15900
N 	N 	0.12766 0.40350 0.80094 -0.30000
N 	N 	0.18538 0.39879 0.86293 -0.23500
C 	C 	0.17475 0.39059 0.81418 0.12600
H 	H 	0.19860 0.37670 0.79090 -0.04200
C 	C 	0.14106 0.41858 0.88368 0.17000
C 	C 	0.10542 0.42207 0.84530 -0.06800
H 	H 	0.07180 0.43480 0.84860 0.02700
C 	C 	0.13529 0.43306 0.93819 -0.52800
H 	H 	0.13190 0.40230 0.95890 0.16200
H 	H 	0.10490 0.45420 0.94230 0.15600
H 	H 	0.16530 0.45220 0.94920 0.16200
N 	N 	0.13078 0.36573 0.71222 -0.29600
N 	N 	0.14561 0.30275 0.65709 -0.23800
C 	C 	0.11415 0.32281 0.69029 0.11300
H 	H 	0.08210 0.30810 0.69810 -0.03500
C 	C 	0.18676 0.33543 0.65661 0.19800
C 	C 	0.17827 0.37389 0.68908 -0.09300
H 	H 	0.20050 0.40170 0.69530 0.03500
C 	C 	0.23093 0.32589 0.62427 -0.56400
H 	H 	0.25510 0.35400 0.62770 0.16500
H 	H 	0.22000 0.32320 0.58870 0.16700
H 	H 	0.24730 0.29410 0.63470 0.17200
Li	Li	0.10871 0.60960 0.74464 0.54500
B 	B 	0.89802 0.59999 0.74894 0.91700
N 	N 	0.95191 0.62182 0.75752 -0.28800
N 	N 	0.03570 0.63373 0.75276 -0.22900
C 	C 	0.99666 0.60470 0.73868 0.11100
H 	H 	0.99980 0.57540 0.71780 -0.03100
C 	C 	0.01464 0.67209 0.78211 0.18600
C 	C 	0.96369 0.66533 0.78459 -0.08100
H 	H 	0.94020 0.68670 0.80190 0.03100
C 	C 	0.04590 0.71301 0.80416 -0.54900
H 	H 	0.06670 0.72850 0.77740 0.16800
H 	H 	0.06810 0.69880 0.83050 0.16400
H 	H 	0.02370 0.73890 0.81920 0.16200
N 	N 	0.90176 0.54629 0.72468 -0.29000
N 	N 	0.89700 0.46214 0.71594 -0.23000
C 	C 	0.89141 0.50132 0.74646 0.11700
H 	H 	0.88100 0.49810 0.78090 -0.03200
C 	C 	0.91205 0.48341 0.67014 0.16700
C 	C 	0.91442 0.53456 0.67547 -0.06600
H 	H 	0.92330 0.55820 0.64960 0.02600
C 	C 	0.92253 0.45026 0.62489 -0.51900
H 	H 	0.95220 0.42880 0.63180 0.15800
H 	H 	0.92930 0.47160 0.59510 0.15300
H 	H 	0.89290 0.42870 0.61820 0.15900
N 	N 	0.87234 0.59650 0.80094 -0.30000
N 	N 	0.81462 0.60121 0.86293 -0.23500
C 	C 	0.82525 0.60941 0.81418 0.12600
H 	H 	0.80140 0.62330 0.79090 -0.04200
C 	C 	0.85894 0.58142 0.88368 0.17000
C 	C 	0.89458 0.57793 0.84530 -0.06800
H 	H 	0.92820 0.56520 0.84860 0.02700
C 	C 	0.86471 0.56694 0.93819 -0.52800
H 	H 	0.86810 0.59770 0.95890 0.16200
H 	H 	0.89510 0.54580 0.94230 0.15600
H 	H 	0.83470 0.54780 0.94920 0.16200
N 	N 	0.86922 0.63427 0.71222 -0.29600
N 	N 	0.85439 0.69725 0.65709 -0.23800
C 	C 	0.88585 0.67719 0.69029 0.11300
H 	H 	0.91790 0.69190 0.69810 -0.03500
C 	C 	0.81324 0.66457 0.65661 0.19800
C 	C 	0.82173 0.62611 0.68908 -0.09300
H 	H 	0.79950 0.59830 0.69530 0.03500
C 	C 	0.76907 0.67411 0.62427 -0.56400
H 	H 	0.74490 0.64600 0.62770 0.16500
H 	H 	0.78000 0.67680 0.58870 0.16700
H 	H 	0.75270 0.70590 0.63470 0.17200
Li	Li	0.10871 0.39040 0.25536 0.54500
B 	B 	0.89802 0.40001 0.25106 0.91700
N 	N 	0.95191 0.37818 0.24248 -0.28800
N 	N 	0.03570 0.36627 0.24724 -0.22900
C 	C 	0.99666 0.39530 0.26132 0.11100
H 	H 	0.99980 0.42460 0.28220 -0.03100
C 	C 	0.01464 0.32791 0.21789 0.18600
C 	C 	0.96369 0.33467 0.21541 -0.08100
H 	H 	0.94020 0.31330 0.19810 0.03100
C 	C 	0.04590 0.28699 0.19584 -0.54900
H 	H 	0.06670 0.27150 0.22260 0.16800
H 	H 	0.06810 0.30120 0.16950 0.16400
H 	H 	0.02370 0.26110 0.18080 0.16200
N 	N 	0.90176 0.45371 0.27532 -0.29000
N 	N 	0.89700 0.53786 0.28406 -0.23000
C 	C 	0.89141 0.49868 0.25354 0.11700
H 	H 	0.88100 0.50190 0.21910 -0.03200
C 	C 	0.91205 0.51659 0.32986 0.16700
C 	C 	0.91442 0.46544 0.32453 -0.06600
H 	H 	0.92330 0.44180 0.35040 0.02600
C 	C 	0.92253 0.54974 0.37511 -0.51900
H 	H 	0.95220 0.57120 0.36820 0.15800
H 	H 	0.92930 0.52840 0.40490 0.15300
H 	H 	0.89290 0.57130 0.38180 0.15900
N 	N 	0.87234 0.40350 0.19906 -0.30000
N 	N 	0.81462 0.39879 0.13707 -0.23500
C 	C 	0.82525 0.39059 0.18582 0.12600
H 	H 	0.80140 0.37670 0.20910 -0.04200
C 	C 	0.85894 0.41858 0.11632 0.17000
C 	C 	0.89458 0.42207 0.15470 -0.06800
H 	H 	0.92820 0.43480 0.15140 0.02700
C 	C 	0.86471 0.43306 0.06181 -0.52800
H 	H 	0.86810 0.40230 0.04110 0.16200
H 	H 	0.89510 0.45420 0.05770 0.15600
H 	H 	0.83470 0.45220 0.05080 0.16200
N 	N 	0.86922 0.36573 0.28778 -0.29600
N 	N 	0.85439 0.30275 0.34291 -0.23800
C 	C 	0.88585 0.32281 0.30971 0.11300
H 	H 	0.91790 0.30810 0.30190 -0.03500
C 	C 	0.81324 0.33543 0.34339 0.19800
C 	C 	0.82173 0.37389 0.31092 -0.09300
H 	H 	0.79950 0.40170 0.30470 0.03500
C 	C 	0.76907 0.32589 0.37573 -0.56400
H 	H 	0.74490 0.35400 0.37230 0.16500
H 	H 	0.78000 0.32320 0.41130 0.16700
H 	H 	0.75270 0.29410 0.36530 0.17200
