data_crystal

_cell_length_a 26.81520
_cell_length_b 26.81520
_cell_length_c 26.81520
_cell_angle_alpha 90.00000
_cell_angle_beta  90.00000
_cell_angle_gamma 90.00000

_symmetry_space_group_name_	'P 1'
_symmetry_space_group_name_H-M	'P 1'

loop_
_symmetry_equiv_pos_as_xyz
  x,y,z

loop_
_atom_site_label
_atom_site_type_symbol
_atom_site_fract_x
_atom_site_fract_y
_atom_site_fract_z
_atom_site_charge
Cu	Cu	0.75328 0.61049 0.89158 0.84600
Cu	Cu	0.24672 0.38951 0.89158 0.84600
Cu	Cu	0.24672 0.61049 0.10842 0.84600
Cu	Cu	0.75328 0.38951 0.10842 0.84600
Cu	Cu	0.89158 0.75328 0.61049 0.84600
Cu	Cu	0.89158 0.24672 0.38951 0.84600
Cu	Cu	0.10842 0.24672 0.61049 0.84600
Cu	Cu	0.10842 0.75328 0.38951 0.84600
Cu	Cu	0.61049 0.89158 0.75328 0.84600
Cu	Cu	0.38951 0.89158 0.24672 0.84600
Cu	Cu	0.61049 0.10842 0.24672 0.84600
Cu	Cu	0.38951 0.10842 0.75328 0.84600
Cu	Cu	0.61049 0.75328 0.10842 0.84600
Cu	Cu	0.38951 0.24672 0.10842 0.84600
Cu	Cu	0.61049 0.24672 0.89158 0.84600
Cu	Cu	0.38951 0.75328 0.89158 0.84600
Cu	Cu	0.75328 0.89158 0.38951 0.84600
Cu	Cu	0.24672 0.89158 0.61049 0.84600
Cu	Cu	0.24672 0.10842 0.38951 0.84600
Cu	Cu	0.75328 0.10842 0.61049 0.84600
Cu	Cu	0.89158 0.61049 0.24672 0.84600
Cu	Cu	0.89158 0.38951 0.75328 0.84600
Cu	Cu	0.10842 0.61049 0.75328 0.84600
Cu	Cu	0.10842 0.38951 0.24672 0.84600
B 	B 	0.90110 0.59886 0.75092 0.90300
B 	B 	0.09890 0.40114 0.75092 0.90300
B 	B 	0.09890 0.59886 0.24908 0.90300
B 	B 	0.90110 0.40114 0.24908 0.90300
B 	B 	0.75092 0.90110 0.59886 0.90300
B 	B 	0.75092 0.09890 0.40114 0.90300
B 	B 	0.24908 0.09890 0.59886 0.90300
B 	B 	0.24908 0.90110 0.40114 0.90300
B 	B 	0.59886 0.75092 0.90110 0.90300
B 	B 	0.40114 0.75092 0.09890 0.90300
B 	B 	0.59886 0.24908 0.09890 0.90300
B 	B 	0.40114 0.24908 0.90110 0.90300
B 	B 	0.59886 0.90110 0.24908 0.90300
B 	B 	0.40114 0.09890 0.24908 0.90300
B 	B 	0.59886 0.09890 0.75092 0.90300
B 	B 	0.40114 0.90110 0.75092 0.90300
B 	B 	0.90110 0.75092 0.40114 0.90300
B 	B 	0.09890 0.75092 0.59886 0.90300
B 	B 	0.09890 0.24908 0.40114 0.90300
B 	B 	0.90110 0.24908 0.59886 0.90300
B 	B 	0.75092 0.59886 0.09890 0.90300
B 	B 	0.75092 0.40114 0.90110 0.90300
B 	B 	0.24908 0.59886 0.90110 0.90300
B 	B 	0.24908 0.40114 0.09890 0.90300
H 	H 	0.81390 0.57320 0.80410 -0.03900
H 	H 	0.89690 0.69590 0.80180 0.02200
H 	H 	0.83780 0.75270 0.86170 0.14800
H 	H 	0.78510 0.72800 0.87490 0.14200
H 	H 	0.83270 0.71700 0.90930 0.14300
H 	H 	0.92920 0.49900 0.77560 -0.04300
H 	H 	0.81620 0.55730 0.69930 0.02800
H 	H 	0.76690 0.47400 0.68020 0.15500
H 	H 	0.80630 0.42980 0.67210 0.14700
H 	H 	0.77590 0.43370 0.72330 0.15300
H 	H 	0.87790 0.69710 0.71220 -0.05600
H 	H 	0.93130 0.57290 0.65140 0.02700
H 	H 	0.94680 0.60420 0.56070 0.15500
H 	H 	0.90200 0.64080 0.54590 0.15400
H 	H 	0.95600 0.66310 0.55820 0.15200
H 	H 	0.99930 0.62030 0.71720 -0.04500
H 	H 	0.94540 0.57430 0.84700 0.02600
H 	H 	0.07120 0.60620 0.87610 0.15300
H 	H 	0.03050 0.56850 0.89780 0.15400
H 	H 	0.07280 0.54860 0.86080 0.15200
H 	H 	0.18610 0.42680 0.80410 -0.03900
H 	H 	0.10310 0.30410 0.80180 0.02200
H 	H 	0.16220 0.24730 0.86170 0.14800
H 	H 	0.21490 0.27200 0.87490 0.14200
H 	H 	0.16730 0.28300 0.90930 0.14300
H 	H 	0.07080 0.50100 0.77560 -0.04300
H 	H 	0.18380 0.44270 0.69930 0.02800
H 	H 	0.23310 0.52600 0.68020 0.15500
H 	H 	0.19370 0.57020 0.67210 0.14700
H 	H 	0.22410 0.56630 0.72330 0.15300
H 	H 	0.12210 0.30290 0.71220 -0.05600
H 	H 	0.06870 0.42710 0.65140 0.02700
H 	H 	0.05320 0.39580 0.56070 0.15500
H 	H 	0.09800 0.35920 0.54590 0.15400
H 	H 	0.04400 0.33690 0.55820 0.15200
H 	H 	0.00070 0.37970 0.71720 -0.04500
H 	H 	0.05460 0.42570 0.84700 0.02600
H 	H 	0.92880 0.39380 0.87610 0.15300
H 	H 	0.96950 0.43150 0.89780 0.15400
H 	H 	0.92720 0.45140 0.86080 0.15200
H 	H 	0.18610 0.57320 0.19590 -0.03900
H 	H 	0.10310 0.69590 0.19820 0.02200
H 	H 	0.16220 0.75270 0.13830 0.14800
H 	H 	0.21490 0.72800 0.12510 0.14200
H 	H 	0.16730 0.71700 0.09070 0.14300
H 	H 	0.07080 0.49900 0.22440 -0.04300
H 	H 	0.18380 0.55730 0.30070 0.02800
H 	H 	0.23310 0.47400 0.31980 0.15500
H 	H 	0.19370 0.42980 0.32790 0.14700
H 	H 	0.22410 0.43370 0.27670 0.15300
H 	H 	0.12210 0.69710 0.28780 -0.05600
H 	H 	0.06870 0.57290 0.34860 0.02700
H 	H 	0.05320 0.60420 0.43930 0.15500
H 	H 	0.09800 0.64080 0.45410 0.15400
H 	H 	0.04400 0.66310 0.44180 0.15200
H 	H 	0.00070 0.62030 0.28280 -0.04500
H 	H 	0.05460 0.57430 0.15300 0.02600
H 	H 	0.92880 0.60620 0.12390 0.15300
H 	H 	0.96950 0.56850 0.10220 0.15400
H 	H 	0.92720 0.54860 0.13920 0.15200
H 	H 	0.81390 0.42680 0.19590 -0.03900
H 	H 	0.89690 0.30410 0.19820 0.02200
H 	H 	0.83780 0.24730 0.13830 0.14800
H 	H 	0.78510 0.27200 0.12510 0.14200
H 	H 	0.83270 0.28300 0.09070 0.14300
H 	H 	0.92920 0.50100 0.22440 -0.04300
H 	H 	0.81620 0.44270 0.30070 0.02800
H 	H 	0.76690 0.52600 0.31980 0.15500
H 	H 	0.80630 0.57020 0.32790 0.14700
H 	H 	0.77590 0.56630 0.27670 0.15300
H 	H 	0.87790 0.30290 0.28780 -0.05600
H 	H 	0.93130 0.42710 0.34860 0.02700
H 	H 	0.94680 0.39580 0.43930 0.15600
H 	H 	0.90200 0.35920 0.45410 0.15500
H 	H 	0.95600 0.33690 0.44180 0.15300
H 	H 	0.99930 0.37970 0.28280 -0.04400
H 	H 	0.94540 0.42570 0.15300 0.02700
H 	H 	0.07120 0.39380 0.12390 0.15400
H 	H 	0.03050 0.43150 0.10220 0.15500
H 	H 	0.07280 0.45140 0.13920 0.15300
H 	H 	0.80410 0.81390 0.57320 -0.03800
H 	H 	0.80180 0.89690 0.69590 0.02300
H 	H 	0.86170 0.83780 0.75270 0.14900
H 	H 	0.87490 0.78510 0.72800 0.14300
H 	H 	0.90930 0.83270 0.71700 0.14400
H 	H 	0.77560 0.92920 0.49900 -0.04200
H 	H 	0.69930 0.81620 0.55730 0.02900
H 	H 	0.68020 0.76690 0.47400 0.15600
H 	H 	0.67210 0.80630 0.42980 0.14800
H 	H 	0.72330 0.77590 0.43370 0.15400
H 	H 	0.71220 0.87790 0.69710 -0.05500
H 	H 	0.65140 0.93130 0.57290 0.02800
H 	H 	0.56070 0.94680 0.60420 0.15600
H 	H 	0.54590 0.90200 0.64080 0.15500
H 	H 	0.55820 0.95600 0.66310 0.15300
H 	H 	0.71720 0.99930 0.62030 -0.04400
H 	H 	0.84700 0.94540 0.57430 0.02700
H 	H 	0.87610 0.07120 0.60620 0.15400
H 	H 	0.89780 0.03050 0.56850 0.15500
H 	H 	0.86080 0.07280 0.54860 0.15300
H 	H 	0.80410 0.18610 0.42680 -0.03800
H 	H 	0.80180 0.10310 0.30410 0.02300
H 	H 	0.86170 0.16220 0.24730 0.14900
H 	H 	0.87490 0.21490 0.27200 0.14300
H 	H 	0.90930 0.16730 0.28300 0.14400
H 	H 	0.77560 0.07080 0.50100 -0.04200
H 	H 	0.69930 0.18380 0.44270 0.02900
H 	H 	0.68020 0.23310 0.52600 0.15600
H 	H 	0.67210 0.19370 0.57020 0.14800
H 	H 	0.72330 0.22410 0.56630 0.15400
H 	H 	0.71220 0.12210 0.30290 -0.05500
H 	H 	0.65140 0.06870 0.42710 0.02800
H 	H 	0.56070 0.05320 0.39580 0.15600
H 	H 	0.54590 0.09800 0.35920 0.15500
H 	H 	0.55820 0.04400 0.33690 0.15300
H 	H 	0.71720 0.00070 0.37970 -0.04400
H 	H 	0.84700 0.05460 0.42570 0.02700
H 	H 	0.87610 0.92880 0.39380 0.15400
H 	H 	0.89780 0.96950 0.43150 0.15500
H 	H 	0.86080 0.92720 0.45140 0.15300
H 	H 	0.19590 0.18610 0.57320 -0.03800
H 	H 	0.19820 0.10310 0.69590 0.02300
H 	H 	0.13830 0.16220 0.75270 0.14900
H 	H 	0.12510 0.21490 0.72800 0.14300
H 	H 	0.09070 0.16730 0.71700 0.14400
H 	H 	0.22440 0.07080 0.49900 -0.04200
H 	H 	0.30070 0.18380 0.55730 0.02900
H 	H 	0.31980 0.23310 0.47400 0.15600
H 	H 	0.32790 0.19370 0.42980 0.14800
H 	H 	0.27670 0.22410 0.43370 0.15400
H 	H 	0.28780 0.12210 0.69710 -0.05500
H 	H 	0.34860 0.06870 0.57290 0.02800
H 	H 	0.43930 0.05320 0.60420 0.15600
H 	H 	0.45410 0.09800 0.64080 0.15500
H 	H 	0.44180 0.04400 0.66310 0.15300
H 	H 	0.28280 0.00070 0.62030 -0.04400
H 	H 	0.15300 0.05460 0.57430 0.02700
H 	H 	0.12390 0.92880 0.60620 0.15400
H 	H 	0.10220 0.96950 0.56850 0.15500
H 	H 	0.13920 0.92720 0.54860 0.15300
H 	H 	0.19590 0.81390 0.42680 -0.03800
H 	H 	0.19820 0.89690 0.30410 0.02300
H 	H 	0.13830 0.83780 0.24730 0.14900
H 	H 	0.12510 0.78510 0.27200 0.14300
H 	H 	0.09070 0.83270 0.28300 0.14400
H 	H 	0.22440 0.92920 0.50100 -0.04200
H 	H 	0.30070 0.81620 0.44270 0.02900
H 	H 	0.31980 0.76690 0.52600 0.15600
H 	H 	0.32790 0.80630 0.57020 0.14800
H 	H 	0.27670 0.77590 0.56630 0.15400
H 	H 	0.28780 0.87790 0.30290 -0.05500
H 	H 	0.34860 0.93130 0.42710 0.02800
H 	H 	0.43930 0.94680 0.39580 0.15600
H 	H 	0.45410 0.90200 0.35920 0.15500
H 	H 	0.44180 0.95600 0.33690 0.15300
H 	H 	0.28280 0.99930 0.37970 -0.04400
H 	H 	0.15300 0.94540 0.42570 0.02700
H 	H 	0.12390 0.07120 0.39380 0.15400
H 	H 	0.10220 0.03050 0.43150 0.15500
H 	H 	0.13920 0.07280 0.45140 0.15300
H 	H 	0.57320 0.80410 0.81390 -0.03800
H 	H 	0.69590 0.80180 0.89690 0.02300
H 	H 	0.75270 0.86170 0.83780 0.14900
H 	H 	0.72800 0.87490 0.78510 0.14300
H 	H 	0.71700 0.90930 0.83270 0.14400
H 	H 	0.49900 0.77560 0.92920 -0.04200
H 	H 	0.55730 0.69930 0.81620 0.02900
H 	H 	0.47400 0.68020 0.76690 0.15600
H 	H 	0.42980 0.67210 0.80630 0.14800
H 	H 	0.43370 0.72330 0.77590 0.15400
H 	H 	0.69710 0.71220 0.87790 -0.05500
H 	H 	0.57290 0.65140 0.93130 0.02800
H 	H 	0.60420 0.56070 0.94680 0.15600
H 	H 	0.64080 0.54590 0.90200 0.15500
H 	H 	0.66310 0.55820 0.95600 0.15300
H 	H 	0.62030 0.71720 0.99930 -0.04400
H 	H 	0.57430 0.84700 0.94540 0.02700
H 	H 	0.60620 0.87610 0.07120 0.15400
H 	H 	0.56850 0.89780 0.03050 0.15500
H 	H 	0.54860 0.86080 0.07280 0.15300
H 	H 	0.42680 0.80410 0.18610 -0.03800
H 	H 	0.30410 0.80180 0.10310 0.02300
H 	H 	0.24730 0.86170 0.16220 0.14900
H 	H 	0.27200 0.87490 0.21490 0.14300
H 	H 	0.28300 0.90930 0.16730 0.14400
H 	H 	0.50100 0.77560 0.07080 -0.04200
H 	H 	0.44270 0.69930 0.18380 0.02900
H 	H 	0.52600 0.68020 0.23310 0.15600
H 	H 	0.57020 0.67210 0.19370 0.14800
H 	H 	0.56630 0.72330 0.22410 0.15400
H 	H 	0.30290 0.71220 0.12210 -0.05500
H 	H 	0.42710 0.65140 0.06870 0.02800
H 	H 	0.39580 0.56070 0.05320 0.15600
H 	H 	0.35920 0.54590 0.09800 0.15500
H 	H 	0.33690 0.55820 0.04400 0.15300
H 	H 	0.37970 0.71720 0.00070 -0.04400
H 	H 	0.42570 0.84700 0.05460 0.02700
H 	H 	0.39380 0.87610 0.92880 0.15400
H 	H 	0.43150 0.89780 0.96950 0.15500
H 	H 	0.45140 0.86080 0.92720 0.15300
H 	H 	0.57320 0.19590 0.18610 -0.03800
H 	H 	0.69590 0.19820 0.10310 0.02300
H 	H 	0.75270 0.13830 0.16220 0.14900
H 	H 	0.72800 0.12510 0.21490 0.14300
H 	H 	0.71700 0.09070 0.16730 0.14400
H 	H 	0.49900 0.22440 0.07080 -0.04200
H 	H 	0.55730 0.30070 0.18380 0.02900
H 	H 	0.47400 0.31980 0.23310 0.15600
H 	H 	0.42980 0.32790 0.19370 0.14800
H 	H 	0.43370 0.27670 0.22410 0.15400
H 	H 	0.69710 0.28780 0.12210 -0.05500
H 	H 	0.57290 0.34860 0.06870 0.02800
H 	H 	0.60420 0.43930 0.05320 0.15600
H 	H 	0.64080 0.45410 0.09800 0.15500
H 	H 	0.66310 0.44180 0.04400 0.15300
H 	H 	0.62030 0.28280 0.00070 -0.04400
H 	H 	0.57430 0.15300 0.05460 0.02700
H 	H 	0.60620 0.12390 0.92880 0.15400
H 	H 	0.56850 0.10220 0.96950 0.15500
H 	H 	0.54860 0.13920 0.92720 0.15300
H 	H 	0.42680 0.19590 0.81390 -0.03800
H 	H 	0.30410 0.19820 0.89690 0.02300
H 	H 	0.24730 0.13830 0.83780 0.14900
H 	H 	0.27200 0.12510 0.78510 0.14300
H 	H 	0.28300 0.09070 0.83270 0.14400
H 	H 	0.50100 0.22440 0.92920 -0.04200
H 	H 	0.44270 0.30070 0.81620 0.02900
H 	H 	0.52600 0.31980 0.76690 0.15600
H 	H 	0.57020 0.32790 0.80630 0.14800
H 	H 	0.56630 0.27670 0.77590 0.15400
H 	H 	0.30290 0.28780 0.87790 -0.05500
H 	H 	0.42710 0.34860 0.93130 0.02800
H 	H 	0.39580 0.43930 0.94680 0.15600
H 	H 	0.35920 0.45410 0.90200 0.15500
H 	H 	0.33690 0.44180 0.95600 0.15300
H 	H 	0.37970 0.28280 0.99930 -0.04400
H 	H 	0.42570 0.15300 0.94540 0.02700
H 	H 	0.39380 0.12390 0.07120 0.15400
H 	H 	0.43150 0.10220 0.03050 0.15500
H 	H 	0.45140 0.13920 0.07280 0.15300
H 	H 	0.57320 0.81390 0.19590 -0.03800
H 	H 	0.69590 0.89690 0.19820 0.02300
H 	H 	0.75270 0.83780 0.13830 0.14900
H 	H 	0.72800 0.78510 0.12510 0.14300
H 	H 	0.71700 0.83270 0.09070 0.14400
H 	H 	0.49900 0.92920 0.22440 -0.04200
H 	H 	0.55730 0.81620 0.30070 0.02900
H 	H 	0.47400 0.76690 0.31980 0.15600
H 	H 	0.42980 0.80630 0.32790 0.14800
H 	H 	0.43370 0.77590 0.27670 0.15400
H 	H 	0.69710 0.87790 0.28780 -0.05500
H 	H 	0.57290 0.93130 0.34860 0.02800
H 	H 	0.60420 0.94680 0.43930 0.15600
H 	H 	0.64080 0.90200 0.45410 0.15500
H 	H 	0.66310 0.95600 0.44180 0.15300
H 	H 	0.62030 0.99930 0.28280 -0.04400
H 	H 	0.57430 0.94540 0.15300 0.02700
H 	H 	0.60620 0.07120 0.12390 0.15400
H 	H 	0.56850 0.03050 0.10220 0.15500
H 	H 	0.54860 0.07280 0.13920 0.15300
H 	H 	0.42680 0.18610 0.19590 -0.03800
H 	H 	0.30410 0.10310 0.19820 0.02300
H 	H 	0.24730 0.16220 0.13830 0.14900
H 	H 	0.27200 0.21490 0.12510 0.14300
H 	H 	0.28300 0.16730 0.09070 0.14400
H 	H 	0.50100 0.07080 0.22440 -0.04200
H 	H 	0.44270 0.18380 0.30070 0.02900
H 	H 	0.52600 0.23310 0.31980 0.15600
H 	H 	0.57020 0.19370 0.32790 0.14800
H 	H 	0.56630 0.22410 0.27670 0.15400
H 	H 	0.30290 0.12210 0.28780 -0.05500
H 	H 	0.42710 0.06870 0.34860 0.02800
H 	H 	0.39580 0.05320 0.43930 0.15600
H 	H 	0.35920 0.09800 0.45410 0.15500
H 	H 	0.33690 0.04400 0.44180 0.15300
H 	H 	0.37970 0.00070 0.28280 -0.04400
H 	H 	0.42570 0.05460 0.15300 0.02700
H 	H 	0.39380 0.92880 0.12390 0.15400
H 	H 	0.43150 0.96950 0.10220 0.15500
H 	H 	0.45140 0.92720 0.13920 0.15300
H 	H 	0.57320 0.18610 0.80410 -0.03800
H 	H 	0.69590 0.10310 0.80180 0.02300
H 	H 	0.75270 0.16220 0.86170 0.14900
H 	H 	0.72800 0.21490 0.87490 0.14300
H 	H 	0.71700 0.16730 0.90930 0.14400
H 	H 	0.49900 0.07080 0.77560 -0.04200
H 	H 	0.55730 0.18380 0.69930 0.02900
H 	H 	0.47400 0.23310 0.68020 0.15600
H 	H 	0.42980 0.19370 0.67210 0.14800
H 	H 	0.43370 0.22410 0.72330 0.15400
H 	H 	0.69710 0.12210 0.71220 -0.05500
H 	H 	0.57290 0.06870 0.65140 0.02800
H 	H 	0.60420 0.05320 0.56070 0.15600
H 	H 	0.64080 0.09800 0.54590 0.15500
H 	H 	0.66310 0.04400 0.55820 0.15300
H 	H 	0.62030 0.00070 0.71720 -0.04400
H 	H 	0.57430 0.05460 0.84700 0.02700
H 	H 	0.60620 0.92880 0.87610 0.15400
H 	H 	0.56850 0.96950 0.89780 0.15500
H 	H 	0.54860 0.92720 0.86080 0.15300
H 	H 	0.42680 0.81390 0.80410 -0.03800
H 	H 	0.30410 0.89690 0.80180 0.02300
H 	H 	0.24730 0.83780 0.86170 0.14900
H 	H 	0.27200 0.78510 0.87490 0.14300
H 	H 	0.28300 0.83270 0.90930 0.14400
H 	H 	0.50100 0.92920 0.77560 -0.04200
H 	H 	0.44270 0.81620 0.69930 0.02900
H 	H 	0.52600 0.76690 0.68020 0.15600
H 	H 	0.57020 0.80630 0.67210 0.14800
H 	H 	0.56630 0.77590 0.72330 0.15400
H 	H 	0.30290 0.87790 0.71220 -0.05500
H 	H 	0.42710 0.93130 0.65140 0.02800
H 	H 	0.39580 0.94680 0.56070 0.15600
H 	H 	0.35920 0.90200 0.54590 0.15500
H 	H 	0.33690 0.95600 0.55820 0.15300
H 	H 	0.37970 0.99930 0.71720 -0.04400
H 	H 	0.42570 0.94540 0.84700 0.02700
H 	H 	0.39380 0.07120 0.87610 0.15400
H 	H 	0.43150 0.03050 0.89780 0.15500
H 	H 	0.45140 0.07280 0.86080 0.15300
H 	H 	0.81390 0.80410 0.42680 -0.03800
H 	H 	0.89690 0.80180 0.30410 0.02300
H 	H 	0.83780 0.86170 0.24730 0.14900
H 	H 	0.78510 0.87490 0.27200 0.14300
H 	H 	0.83270 0.90930 0.28300 0.14400
H 	H 	0.92920 0.77560 0.50100 -0.04200
H 	H 	0.81620 0.69930 0.44270 0.02900
H 	H 	0.76690 0.68020 0.52600 0.15600
H 	H 	0.80630 0.67210 0.57020 0.14800
H 	H 	0.77590 0.72330 0.56630 0.15400
H 	H 	0.87790 0.71220 0.30290 -0.05500
H 	H 	0.93130 0.65140 0.42710 0.02800
H 	H 	0.94680 0.56070 0.39580 0.15600
H 	H 	0.90200 0.54590 0.35920 0.15500
H 	H 	0.95600 0.55820 0.33690 0.15300
H 	H 	0.99930 0.71720 0.37970 -0.04400
H 	H 	0.94540 0.84700 0.42570 0.02700
H 	H 	0.07120 0.87610 0.39380 0.15400
H 	H 	0.03050 0.89780 0.43150 0.15500
H 	H 	0.07280 0.86080 0.45140 0.15300
H 	H 	0.18610 0.80410 0.57320 -0.03800
H 	H 	0.10310 0.80180 0.69590 0.02300
H 	H 	0.16220 0.86170 0.75270 0.14900
H 	H 	0.21490 0.87490 0.72800 0.14300
H 	H 	0.16730 0.90930 0.71700 0.14400
H 	H 	0.07080 0.77560 0.49900 -0.04200
H 	H 	0.18380 0.69930 0.55730 0.02900
H 	H 	0.23310 0.68020 0.47400 0.15600
H 	H 	0.19370 0.67210 0.42980 0.14800
H 	H 	0.22410 0.72330 0.43370 0.15400
H 	H 	0.12210 0.71220 0.69710 -0.05500
H 	H 	0.06870 0.65140 0.57290 0.02800
H 	H 	0.05320 0.56070 0.60420 0.15600
H 	H 	0.09800 0.54590 0.64080 0.15500
H 	H 	0.04400 0.55820 0.66310 0.15300
H 	H 	0.00070 0.71720 0.62030 -0.04400
H 	H 	0.05460 0.84700 0.57430 0.02700
H 	H 	0.92880 0.87610 0.60620 0.15400
H 	H 	0.96950 0.89780 0.56850 0.15500
H 	H 	0.92720 0.86080 0.54860 0.15300
H 	H 	0.18610 0.19590 0.42680 -0.03800
H 	H 	0.10310 0.19820 0.30410 0.02300
H 	H 	0.16220 0.13830 0.24730 0.14900
H 	H 	0.21490 0.12510 0.27200 0.14300
H 	H 	0.16730 0.09070 0.28300 0.14400
H 	H 	0.07080 0.22440 0.50100 -0.04200
H 	H 	0.18380 0.30070 0.44270 0.02900
H 	H 	0.23310 0.31980 0.52600 0.15600
H 	H 	0.19370 0.32790 0.57020 0.14800
H 	H 	0.22410 0.27670 0.56630 0.15400
H 	H 	0.12210 0.28780 0.30290 -0.05500
H 	H 	0.06870 0.34860 0.42710 0.02800
H 	H 	0.05320 0.43930 0.39580 0.15600
H 	H 	0.09800 0.45410 0.35920 0.15500
H 	H 	0.04400 0.44180 0.33690 0.15300
H 	H 	0.00070 0.28280 0.37970 -0.04400
H 	H 	0.05460 0.15300 0.42570 0.02700
H 	H 	0.92880 0.12390 0.39380 0.15400
H 	H 	0.96950 0.10220 0.43150 0.15500
H 	H 	0.92720 0.13920 0.45140 0.15300
H 	H 	0.81390 0.19590 0.57320 -0.03800
H 	H 	0.89690 0.19820 0.69590 0.02300
H 	H 	0.83780 0.13830 0.75270 0.14900
H 	H 	0.78510 0.12510 0.72800 0.14300
H 	H 	0.83270 0.09070 0.71700 0.14400
H 	H 	0.92920 0.22440 0.49900 -0.04200
H 	H 	0.81620 0.30070 0.55730 0.02900
H 	H 	0.76690 0.31980 0.47400 0.15600
H 	H 	0.80630 0.32790 0.42980 0.14800
H 	H 	0.77590 0.27670 0.43370 0.15400
H 	H 	0.87790 0.28780 0.69710 -0.05500
H 	H 	0.93130 0.34860 0.57290 0.02800
H 	H 	0.94680 0.43930 0.60420 0.15600
H 	H 	0.90200 0.45410 0.64080 0.15500
H 	H 	0.95600 0.44180 0.66310 0.15300
H 	H 	0.99930 0.28280 0.62030 -0.04400
H 	H 	0.94540 0.15300 0.57430 0.02700
H 	H 	0.07120 0.12390 0.60620 0.15400
H 	H 	0.03050 0.10220 0.56850 0.15500
H 	H 	0.07280 0.13920 0.54860 0.15300
H 	H 	0.80410 0.57320 0.18610 -0.03800
H 	H 	0.80180 0.69590 0.10310 0.02300
H 	H 	0.86170 0.75270 0.16220 0.14900
H 	H 	0.87490 0.72800 0.21490 0.14300
H 	H 	0.90930 0.71700 0.16730 0.14400
H 	H 	0.77560 0.49900 0.07080 -0.04200
H 	H 	0.69930 0.55730 0.18380 0.02900
H 	H 	0.68020 0.47400 0.23310 0.15600
H 	H 	0.67210 0.42980 0.19370 0.14800
H 	H 	0.72330 0.43370 0.22410 0.15400
H 	H 	0.71220 0.69710 0.12210 -0.05500
H 	H 	0.65140 0.57290 0.06870 0.02800
H 	H 	0.56070 0.60420 0.05320 0.15600
H 	H 	0.54590 0.64080 0.09800 0.15500
H 	H 	0.55820 0.66310 0.04400 0.15300
H 	H 	0.71720 0.62030 0.00070 -0.04400
H 	H 	0.84700 0.57430 0.05460 0.02700
H 	H 	0.87610 0.60620 0.92880 0.15400
H 	H 	0.89780 0.56850 0.96950 0.15500
H 	H 	0.86080 0.54860 0.92720 0.15300
H 	H 	0.80410 0.42680 0.81390 -0.03800
H 	H 	0.80180 0.30410 0.89690 0.02300
H 	H 	0.86170 0.24730 0.83780 0.14900
H 	H 	0.87490 0.27200 0.78510 0.14300
H 	H 	0.90930 0.28300 0.83270 0.14400
H 	H 	0.77560 0.50100 0.92920 -0.04200
H 	H 	0.69930 0.44270 0.81620 0.02900
H 	H 	0.68020 0.52600 0.76690 0.15600
H 	H 	0.67210 0.57020 0.80630 0.14800
H 	H 	0.72330 0.56630 0.77590 0.15400
H 	H 	0.71220 0.30290 0.87790 -0.05500
H 	H 	0.65140 0.42710 0.93130 0.02800
H 	H 	0.56070 0.39580 0.94680 0.15600
H 	H 	0.54590 0.35920 0.90200 0.15500
H 	H 	0.55820 0.33690 0.95600 0.15300
H 	H 	0.71720 0.37970 0.99930 -0.04400
H 	H 	0.84700 0.42570 0.94540 0.02700
H 	H 	0.87610 0.39380 0.07120 0.15400
H 	H 	0.89780 0.43150 0.03050 0.15500
H 	H 	0.86080 0.45140 0.07280 0.15300
H 	H 	0.19590 0.57320 0.81390 -0.03800
H 	H 	0.19820 0.69590 0.89690 0.02300
H 	H 	0.13830 0.75270 0.83780 0.14900
H 	H 	0.12510 0.72800 0.78510 0.14300
H 	H 	0.09070 0.71700 0.83270 0.14400
H 	H 	0.22440 0.49900 0.92920 -0.04200
H 	H 	0.30070 0.55730 0.81620 0.02900
H 	H 	0.31980 0.47400 0.76690 0.15600
H 	H 	0.32790 0.42980 0.80630 0.14800
H 	H 	0.27670 0.43370 0.77590 0.15400
H 	H 	0.28780 0.69710 0.87790 -0.05500
H 	H 	0.34860 0.57290 0.93130 0.02800
H 	H 	0.43930 0.60420 0.94680 0.15600
H 	H 	0.45410 0.64080 0.90200 0.15500
H 	H 	0.44180 0.66310 0.95600 0.15300
H 	H 	0.28280 0.62030 0.99930 -0.04400
H 	H 	0.15300 0.57430 0.94540 0.02700
H 	H 	0.12390 0.60620 0.07120 0.15400
H 	H 	0.10220 0.56850 0.03050 0.15500
H 	H 	0.13920 0.54860 0.07280 0.15300
H 	H 	0.19590 0.42680 0.18610 -0.03800
H 	H 	0.19820 0.30410 0.10310 0.02300
H 	H 	0.13830 0.24730 0.16220 0.14900
H 	H 	0.12510 0.27200 0.21490 0.14300
H 	H 	0.09070 0.28300 0.16730 0.14400
H 	H 	0.22440 0.50100 0.07080 -0.04200
H 	H 	0.30070 0.44270 0.18380 0.02900
H 	H 	0.31980 0.52600 0.23310 0.15600
H 	H 	0.32790 0.57020 0.19370 0.14800
H 	H 	0.27670 0.56630 0.22410 0.15400
H 	H 	0.28780 0.30290 0.12210 -0.05500
H 	H 	0.34860 0.42710 0.06870 0.02800
H 	H 	0.43930 0.39580 0.05320 0.15600
H 	H 	0.45410 0.35920 0.09800 0.15500
H 	H 	0.44180 0.33690 0.04400 0.15300
H 	H 	0.28280 0.37970 0.00070 -0.04400
H 	H 	0.15300 0.42570 0.05460 0.02700
H 	H 	0.12390 0.39380 0.92880 0.15400
H 	H 	0.10220 0.43150 0.96950 0.15500
H 	H 	0.13920 0.45140 0.92720 0.15300
C 	C 	0.82623 0.60562 0.81131 0.10200
C 	C 	0.83414 0.67855 0.84319 0.15100
C 	C 	0.87163 0.67229 0.80944 -0.06100
C 	C 	0.82130 0.72290 0.87510 -0.50600
C 	C 	0.89912 0.50225 0.75706 0.12000
C 	C 	0.83197 0.48471 0.71801 0.16800
C 	C 	0.83779 0.53442 0.71560 -0.07500
C 	C 	0.79180 0.45280 0.69660 -0.52800
C 	C 	0.89082 0.67402 0.68864 0.12300
C 	C 	0.91768 0.64164 0.62079 0.16200
C 	C 	0.91985 0.60615 0.65600 -0.07100
C 	C 	0.93190 0.63700 0.56668 -0.52300
C 	C 	0.99713 0.60912 0.75079 0.12000
C 	C 	0.01741 0.58753 0.82460 0.16500
C 	C 	0.96751 0.58416 0.82114 -0.07100
C 	C 	0.05090 0.57680 0.86870 -0.52300
C 	C 	0.17377 0.39438 0.81131 0.10200
C 	C 	0.16586 0.32145 0.84319 0.15100
C 	C 	0.12837 0.32771 0.80944 -0.06100
C 	C 	0.17870 0.27710 0.87510 -0.50600
C 	C 	0.10088 0.49775 0.75706 0.12000
C 	C 	0.16803 0.51529 0.71801 0.16800
C 	C 	0.16221 0.46558 0.71560 -0.07500
C 	C 	0.20820 0.54720 0.69660 -0.52800
C 	C 	0.10918 0.32598 0.68864 0.12300
C 	C 	0.08232 0.35836 0.62079 0.16200
C 	C 	0.08015 0.39385 0.65600 -0.07100
C 	C 	0.06810 0.36300 0.56668 -0.52300
C 	C 	0.00287 0.39088 0.75079 0.12000
C 	C 	0.98259 0.41247 0.82460 0.16500
C 	C 	0.03249 0.41584 0.82114 -0.07100
C 	C 	0.94910 0.42320 0.86870 -0.52300
C 	C 	0.17377 0.60562 0.18869 0.10200
C 	C 	0.16586 0.67855 0.15681 0.15100
C 	C 	0.12837 0.67229 0.19056 -0.06100
C 	C 	0.17870 0.72290 0.12490 -0.50600
C 	C 	0.10088 0.50225 0.24294 0.12000
C 	C 	0.16803 0.48471 0.28199 0.16800
C 	C 	0.16221 0.53442 0.28440 -0.07500
C 	C 	0.20820 0.45280 0.30340 -0.52800
C 	C 	0.10918 0.67402 0.31136 0.12300
C 	C 	0.08232 0.64164 0.37921 0.16200
C 	C 	0.08015 0.60615 0.34400 -0.07100
C 	C 	0.06810 0.63700 0.43332 -0.52300
C 	C 	0.00287 0.60912 0.24921 0.12000
C 	C 	0.98259 0.58753 0.17540 0.16500
C 	C 	0.03249 0.58416 0.17886 -0.07100
C 	C 	0.94910 0.57680 0.13130 -0.52300
C 	C 	0.82623 0.39438 0.18869 0.10200
C 	C 	0.83414 0.32145 0.15681 0.15100
C 	C 	0.87163 0.32771 0.19056 -0.06100
C 	C 	0.82130 0.27710 0.12490 -0.50600
C 	C 	0.89912 0.49775 0.24294 0.12000
C 	C 	0.83197 0.51529 0.28199 0.16800
C 	C 	0.83779 0.46558 0.28440 -0.07500
C 	C 	0.79180 0.54720 0.30340 -0.52800
C 	C 	0.89082 0.32598 0.31136 0.12300
C 	C 	0.91768 0.35836 0.37921 0.16200
C 	C 	0.91985 0.39385 0.34400 -0.07100
C 	C 	0.93190 0.36300 0.43332 -0.52300
C 	C 	0.99713 0.39088 0.24921 0.12000
C 	C 	0.01741 0.41247 0.17540 0.16500
C 	C 	0.96751 0.41584 0.17886 -0.07100
C 	C 	0.05090 0.42320 0.13130 -0.52300
C 	C 	0.81131 0.82623 0.60562 0.10200
C 	C 	0.84319 0.83414 0.67855 0.15100
C 	C 	0.80944 0.87163 0.67229 -0.06100
C 	C 	0.87510 0.82130 0.72290 -0.50600
C 	C 	0.75706 0.89912 0.50225 0.12000
C 	C 	0.71801 0.83197 0.48471 0.16800
C 	C 	0.71560 0.83779 0.53442 -0.07500
C 	C 	0.69660 0.79180 0.45280 -0.52800
C 	C 	0.68864 0.89082 0.67402 0.12300
C 	C 	0.62079 0.91768 0.64164 0.16200
C 	C 	0.65600 0.91985 0.60615 -0.07100
C 	C 	0.56668 0.93190 0.63700 -0.52300
C 	C 	0.75079 0.99713 0.60912 0.12000
C 	C 	0.82460 0.01741 0.58753 0.16500
C 	C 	0.82114 0.96751 0.58416 -0.07100
C 	C 	0.86870 0.05090 0.57680 -0.52300
C 	C 	0.81131 0.17377 0.39438 0.10200
C 	C 	0.84319 0.16586 0.32145 0.15100
C 	C 	0.80944 0.12837 0.32771 -0.06100
C 	C 	0.87510 0.17870 0.27710 -0.50600
C 	C 	0.75706 0.10088 0.49775 0.12000
C 	C 	0.71801 0.16803 0.51529 0.16800
C 	C 	0.71560 0.16221 0.46558 -0.07500
C 	C 	0.69660 0.20820 0.54720 -0.52800
C 	C 	0.68864 0.10918 0.32598 0.12300
C 	C 	0.62079 0.08232 0.35836 0.16200
C 	C 	0.65600 0.08015 0.39385 -0.07100
C 	C 	0.56668 0.06810 0.36300 -0.52300
C 	C 	0.75079 0.00287 0.39088 0.12000
C 	C 	0.82460 0.98259 0.41247 0.16500
C 	C 	0.82114 0.03249 0.41584 -0.07100
C 	C 	0.86870 0.94910 0.42320 -0.52300
C 	C 	0.18869 0.17377 0.60562 0.10200
C 	C 	0.15681 0.16586 0.67855 0.15100
C 	C 	0.19056 0.12837 0.67229 -0.06100
C 	C 	0.12490 0.17870 0.72290 -0.50600
C 	C 	0.24294 0.10088 0.50225 0.12000
C 	C 	0.28199 0.16803 0.48471 0.16800
C 	C 	0.28440 0.16221 0.53442 -0.07500
C 	C 	0.30340 0.20820 0.45280 -0.52800
C 	C 	0.31136 0.10918 0.67402 0.12300
C 	C 	0.37921 0.08232 0.64164 0.16200
C 	C 	0.34400 0.08015 0.60615 -0.07100
C 	C 	0.43332 0.06810 0.63700 -0.52300
C 	C 	0.24921 0.00287 0.60912 0.12000
C 	C 	0.17540 0.98259 0.58753 0.16500
C 	C 	0.17886 0.03249 0.58416 -0.07100
C 	C 	0.13130 0.94910 0.57680 -0.52300
C 	C 	0.18869 0.82623 0.39438 0.10200
C 	C 	0.15681 0.83414 0.32145 0.15100
C 	C 	0.19056 0.87163 0.32771 -0.06100
C 	C 	0.12490 0.82130 0.27710 -0.50600
C 	C 	0.24294 0.89912 0.49775 0.12000
C 	C 	0.28199 0.83197 0.51529 0.16800
C 	C 	0.28440 0.83779 0.46558 -0.07500
C 	C 	0.30340 0.79180 0.54720 -0.52800
C 	C 	0.31136 0.89082 0.32598 0.12300
C 	C 	0.37921 0.91768 0.35836 0.16200
C 	C 	0.34400 0.91985 0.39385 -0.07100
C 	C 	0.43332 0.93190 0.36300 -0.52300
C 	C 	0.24921 0.99713 0.39088 0.12000
C 	C 	0.17540 0.01741 0.41247 0.16500
C 	C 	0.17886 0.96751 0.41584 -0.07100
C 	C 	0.13130 0.05090 0.42320 -0.52300
C 	C 	0.60562 0.81131 0.82623 0.10200
C 	C 	0.67855 0.84319 0.83414 0.15100
C 	C 	0.67229 0.80944 0.87163 -0.06100
C 	C 	0.72290 0.87510 0.82130 -0.50600
C 	C 	0.50225 0.75706 0.89912 0.12000
C 	C 	0.48471 0.71801 0.83197 0.16800
C 	C 	0.53442 0.71560 0.83779 -0.07500
C 	C 	0.45280 0.69660 0.79180 -0.52800
C 	C 	0.67402 0.68864 0.89082 0.12300
C 	C 	0.64164 0.62079 0.91768 0.16200
C 	C 	0.60615 0.65600 0.91985 -0.07100
C 	C 	0.63700 0.56668 0.93190 -0.52300
C 	C 	0.60912 0.75079 0.99713 0.12000
C 	C 	0.58753 0.82460 0.01741 0.16500
C 	C 	0.58416 0.82114 0.96751 -0.07100
C 	C 	0.57680 0.86870 0.05090 -0.52300
C 	C 	0.39438 0.81131 0.17377 0.10200
C 	C 	0.32145 0.84319 0.16586 0.15100
C 	C 	0.32771 0.80944 0.12837 -0.06100
C 	C 	0.27710 0.87510 0.17870 -0.50600
C 	C 	0.49775 0.75706 0.10088 0.12000
C 	C 	0.51529 0.71801 0.16803 0.16800
C 	C 	0.46558 0.71560 0.16221 -0.07500
C 	C 	0.54720 0.69660 0.20820 -0.52800
C 	C 	0.32598 0.68864 0.10918 0.12300
C 	C 	0.35836 0.62079 0.08232 0.16200
C 	C 	0.39385 0.65600 0.08015 -0.07100
C 	C 	0.36300 0.56668 0.06810 -0.52300
C 	C 	0.39088 0.75079 0.00287 0.12000
C 	C 	0.41247 0.82460 0.98259 0.16500
C 	C 	0.41584 0.82114 0.03249 -0.07100
C 	C 	0.42320 0.86870 0.94910 -0.52300
C 	C 	0.60562 0.18869 0.17377 0.10200
C 	C 	0.67855 0.15681 0.16586 0.15100
C 	C 	0.67229 0.19056 0.12837 -0.06100
C 	C 	0.72290 0.12490 0.17870 -0.50600
C 	C 	0.50225 0.24294 0.10088 0.12000
C 	C 	0.48471 0.28199 0.16803 0.16800
C 	C 	0.53442 0.28440 0.16221 -0.07500
C 	C 	0.45280 0.30340 0.20820 -0.52800
C 	C 	0.67402 0.31136 0.10918 0.12300
C 	C 	0.64164 0.37921 0.08232 0.16200
C 	C 	0.60615 0.34400 0.08015 -0.07100
C 	C 	0.63700 0.43332 0.06810 -0.52300
C 	C 	0.60912 0.24921 0.00287 0.12000
C 	C 	0.58753 0.17540 0.98259 0.16500
C 	C 	0.58416 0.17886 0.03249 -0.07100
C 	C 	0.57680 0.13130 0.94910 -0.52300
C 	C 	0.39438 0.18869 0.82623 0.10200
C 	C 	0.32145 0.15681 0.83414 0.15100
C 	C 	0.32771 0.19056 0.87163 -0.06100
C 	C 	0.27710 0.12490 0.82130 -0.50600
C 	C 	0.49775 0.24294 0.89912 0.12000
C 	C 	0.51529 0.28199 0.83197 0.16800
C 	C 	0.46558 0.28440 0.83779 -0.07500
C 	C 	0.54720 0.30340 0.79180 -0.52800
C 	C 	0.32598 0.31136 0.89082 0.12300
C 	C 	0.35836 0.37921 0.91768 0.16200
C 	C 	0.39385 0.34400 0.91985 -0.07100
C 	C 	0.36300 0.43332 0.93190 -0.52300
C 	C 	0.39088 0.24921 0.99713 0.12000
C 	C 	0.41247 0.17540 0.01741 0.16500
C 	C 	0.41584 0.17886 0.96751 -0.07100
C 	C 	0.42320 0.13130 0.05090 -0.52300
C 	C 	0.60562 0.82623 0.18869 0.10200
C 	C 	0.67855 0.83414 0.15681 0.15100
C 	C 	0.67229 0.87163 0.19056 -0.06100
C 	C 	0.72290 0.82130 0.12490 -0.50600
C 	C 	0.50225 0.89912 0.24294 0.12000
C 	C 	0.48471 0.83197 0.28199 0.16800
C 	C 	0.53442 0.83779 0.28440 -0.07500
C 	C 	0.45280 0.79180 0.30340 -0.52800
C 	C 	0.67402 0.89082 0.31136 0.12300
C 	C 	0.64164 0.91768 0.37921 0.16200
C 	C 	0.60615 0.91985 0.34400 -0.07100
C 	C 	0.63700 0.93190 0.43332 -0.52300
C 	C 	0.60912 0.99713 0.24921 0.12000
C 	C 	0.58753 0.01741 0.17540 0.16500
C 	C 	0.58416 0.96751 0.17886 -0.07100
C 	C 	0.57680 0.05090 0.13130 -0.52300
C 	C 	0.39438 0.17377 0.18869 0.10200
C 	C 	0.32145 0.16586 0.15681 0.15100
C 	C 	0.32771 0.12837 0.19056 -0.06100
C 	C 	0.27710 0.17870 0.12490 -0.50600
C 	C 	0.49775 0.10088 0.24294 0.12000
C 	C 	0.51529 0.16803 0.28199 0.16800
C 	C 	0.46558 0.16221 0.28440 -0.07500
C 	C 	0.54720 0.20820 0.30340 -0.52800
C 	C 	0.32598 0.10918 0.31136 0.12300
C 	C 	0.35836 0.08232 0.37921 0.16200
C 	C 	0.39385 0.08015 0.34400 -0.07100
C 	C 	0.36300 0.06810 0.43332 -0.52300
C 	C 	0.39088 0.00287 0.24921 0.12000
C 	C 	0.41247 0.98259 0.17540 0.16500
C 	C 	0.41584 0.03249 0.17886 -0.07100
C 	C 	0.42320 0.94910 0.13130 -0.52300
C 	C 	0.60562 0.17377 0.81131 0.10200
C 	C 	0.67855 0.16586 0.84319 0.15100
C 	C 	0.67229 0.12837 0.80944 -0.06100
C 	C 	0.72290 0.17870 0.87510 -0.50600
C 	C 	0.50225 0.10088 0.75706 0.12000
C 	C 	0.48471 0.16803 0.71801 0.16800
C 	C 	0.53442 0.16221 0.71560 -0.07500
C 	C 	0.45280 0.20820 0.69660 -0.52800
C 	C 	0.67402 0.10918 0.68864 0.12300
C 	C 	0.64164 0.08232 0.62079 0.16200
C 	C 	0.60615 0.08015 0.65600 -0.07100
C 	C 	0.63700 0.06810 0.56668 -0.52300
C 	C 	0.60912 0.00287 0.75079 0.12000
C 	C 	0.58753 0.98259 0.82460 0.16500
C 	C 	0.58416 0.03249 0.82114 -0.07100
C 	C 	0.57680 0.94910 0.86870 -0.52300
C 	C 	0.39438 0.82623 0.81131 0.10200
C 	C 	0.32145 0.83414 0.84319 0.15100
C 	C 	0.32771 0.87163 0.80944 -0.06100
C 	C 	0.27710 0.82130 0.87510 -0.50600
C 	C 	0.49775 0.89912 0.75706 0.12000
C 	C 	0.51529 0.83197 0.71801 0.16800
C 	C 	0.46558 0.83779 0.71560 -0.07500
C 	C 	0.54720 0.79180 0.69660 -0.52800
C 	C 	0.32598 0.89082 0.68864 0.12300
C 	C 	0.35836 0.91768 0.62079 0.16200
C 	C 	0.39385 0.91985 0.65600 -0.07100
C 	C 	0.36300 0.93190 0.56668 -0.52300
C 	C 	0.39088 0.99713 0.75079 0.12000
C 	C 	0.41247 0.01741 0.82460 0.16500
C 	C 	0.41584 0.96751 0.82114 -0.07100
C 	C 	0.42320 0.05090 0.86870 -0.52300
C 	C 	0.82623 0.81131 0.39438 0.10200
C 	C 	0.83414 0.84319 0.32145 0.15100
C 	C 	0.87163 0.80944 0.32771 -0.06100
C 	C 	0.82130 0.87510 0.27710 -0.50600
C 	C 	0.89912 0.75706 0.49775 0.12000
C 	C 	0.83197 0.71801 0.51529 0.16800
C 	C 	0.83779 0.71560 0.46558 -0.07500
C 	C 	0.79180 0.69660 0.54720 -0.52800
C 	C 	0.89082 0.68864 0.32598 0.12300
C 	C 	0.91768 0.62079 0.35836 0.16200
C 	C 	0.91985 0.65600 0.39385 -0.07100
C 	C 	0.93190 0.56668 0.36300 -0.52300
C 	C 	0.99713 0.75079 0.39088 0.12000
C 	C 	0.01741 0.82460 0.41247 0.16500
C 	C 	0.96751 0.82114 0.41584 -0.07100
C 	C 	0.05090 0.86870 0.42320 -0.52300
C 	C 	0.17377 0.81131 0.60562 0.10200
C 	C 	0.16586 0.84319 0.67855 0.15100
C 	C 	0.12837 0.80944 0.67229 -0.06100
C 	C 	0.17870 0.87510 0.72290 -0.50600
C 	C 	0.10088 0.75706 0.50225 0.12000
C 	C 	0.16803 0.71801 0.48471 0.16800
C 	C 	0.16221 0.71560 0.53442 -0.07500
C 	C 	0.20820 0.69660 0.45280 -0.52800
C 	C 	0.10918 0.68864 0.67402 0.12300
C 	C 	0.08232 0.62079 0.64164 0.16200
C 	C 	0.08015 0.65600 0.60615 -0.07100
C 	C 	0.06810 0.56668 0.63700 -0.52300
C 	C 	0.00287 0.75079 0.60912 0.12000
C 	C 	0.98259 0.82460 0.58753 0.16500
C 	C 	0.03249 0.82114 0.58416 -0.07100
C 	C 	0.94910 0.86870 0.57680 -0.52300
C 	C 	0.17377 0.18869 0.39438 0.10200
C 	C 	0.16586 0.15681 0.32145 0.15100
C 	C 	0.12837 0.19056 0.32771 -0.06100
C 	C 	0.17870 0.12490 0.27710 -0.50600
C 	C 	0.10088 0.24294 0.49775 0.12000
C 	C 	0.16803 0.28199 0.51529 0.16800
C 	C 	0.16221 0.28440 0.46558 -0.07500
C 	C 	0.20820 0.30340 0.54720 -0.52800
C 	C 	0.10918 0.31136 0.32598 0.12300
C 	C 	0.08232 0.37921 0.35836 0.16200
C 	C 	0.08015 0.34400 0.39385 -0.07100
C 	C 	0.06810 0.43332 0.36300 -0.52300
C 	C 	0.00287 0.24921 0.39088 0.12000
C 	C 	0.98259 0.17540 0.41247 0.16500
C 	C 	0.03249 0.17886 0.41584 -0.07100
C 	C 	0.94910 0.13130 0.42320 -0.52300
C 	C 	0.82623 0.18869 0.60562 0.10200
C 	C 	0.83414 0.15681 0.67855 0.15100
C 	C 	0.87163 0.19056 0.67229 -0.06100
C 	C 	0.82130 0.12490 0.72290 -0.50600
C 	C 	0.89912 0.24294 0.50225 0.12000
C 	C 	0.83197 0.28199 0.48471 0.16800
C 	C 	0.83779 0.28440 0.53442 -0.07500
C 	C 	0.79180 0.30340 0.45280 -0.52800
C 	C 	0.89082 0.31136 0.67402 0.12300
C 	C 	0.91768 0.37921 0.64164 0.16200
C 	C 	0.91985 0.34400 0.60615 -0.07100
C 	C 	0.93190 0.43332 0.63700 -0.52300
C 	C 	0.99713 0.24921 0.60912 0.12000
C 	C 	0.01741 0.17540 0.58753 0.16500
C 	C 	0.96751 0.17886 0.58416 -0.07100
C 	C 	0.05090 0.13130 0.57680 -0.52300
C 	C 	0.81131 0.60562 0.17377 0.10200
C 	C 	0.84319 0.67855 0.16586 0.15100
C 	C 	0.80944 0.67229 0.12837 -0.06100
C 	C 	0.87510 0.72290 0.17870 -0.50600
C 	C 	0.75706 0.50225 0.10088 0.12000
C 	C 	0.71801 0.48471 0.16803 0.16800
C 	C 	0.71560 0.53442 0.16221 -0.07500
C 	C 	0.69660 0.45280 0.20820 -0.52800
C 	C 	0.68864 0.67402 0.10918 0.12300
C 	C 	0.62079 0.64164 0.08232 0.16200
C 	C 	0.65600 0.60615 0.08015 -0.07100
C 	C 	0.56668 0.63700 0.06810 -0.52300
C 	C 	0.75079 0.60912 0.00287 0.12000
C 	C 	0.82460 0.58753 0.98259 0.16500
C 	C 	0.82114 0.58416 0.03249 -0.07100
C 	C 	0.86870 0.57680 0.94910 -0.52300
C 	C 	0.81131 0.39438 0.82623 0.10200
C 	C 	0.84319 0.32145 0.83414 0.15100
C 	C 	0.80944 0.32771 0.87163 -0.06100
C 	C 	0.87510 0.27710 0.82130 -0.50600
C 	C 	0.75706 0.49775 0.89912 0.12000
C 	C 	0.71801 0.51529 0.83197 0.16800
C 	C 	0.71560 0.46558 0.83779 -0.07500
C 	C 	0.69660 0.54720 0.79180 -0.52800
C 	C 	0.68864 0.32598 0.89082 0.12300
C 	C 	0.62079 0.35836 0.91768 0.16200
C 	C 	0.65600 0.39385 0.91985 -0.07100
C 	C 	0.56668 0.36300 0.93190 -0.52300
C 	C 	0.75079 0.39088 0.99713 0.12000
C 	C 	0.82460 0.41247 0.01741 0.16500
C 	C 	0.82114 0.41584 0.96751 -0.07100
C 	C 	0.86870 0.42320 0.05090 -0.52300
C 	C 	0.18869 0.60562 0.82623 0.10200
C 	C 	0.15681 0.67855 0.83414 0.15100
C 	C 	0.19056 0.67229 0.87163 -0.06100
C 	C 	0.12490 0.72290 0.82130 -0.50600
C 	C 	0.24294 0.50225 0.89912 0.12000
C 	C 	0.28199 0.48471 0.83197 0.16800
C 	C 	0.28440 0.53442 0.83779 -0.07500
C 	C 	0.30340 0.45280 0.79180 -0.52800
C 	C 	0.31136 0.67402 0.89082 0.12300
C 	C 	0.37921 0.64164 0.91768 0.16200
C 	C 	0.34400 0.60615 0.91985 -0.07100
C 	C 	0.43332 0.63700 0.93190 -0.52300
C 	C 	0.24921 0.60912 0.99713 0.12000
C 	C 	0.17540 0.58753 0.01741 0.16500
C 	C 	0.17886 0.58416 0.96751 -0.07100
C 	C 	0.13130 0.57680 0.05090 -0.52300
C 	C 	0.18869 0.39438 0.17377 0.10200
C 	C 	0.15681 0.32145 0.16586 0.15100
C 	C 	0.19056 0.32771 0.12837 -0.06100
C 	C 	0.12490 0.27710 0.17870 -0.50600
C 	C 	0.24294 0.49775 0.10088 0.12000
C 	C 	0.28199 0.51529 0.16803 0.16800
C 	C 	0.28440 0.46558 0.16221 -0.07500
C 	C 	0.30340 0.54720 0.20820 -0.52800
C 	C 	0.31136 0.32598 0.10918 0.12300
C 	C 	0.37921 0.35836 0.08232 0.16200
C 	C 	0.34400 0.39385 0.08015 -0.07100
C 	C 	0.43332 0.36300 0.06810 -0.52300
C 	C 	0.24921 0.39088 0.00287 0.12000
C 	C 	0.17540 0.41247 0.98259 0.16500
C 	C 	0.17886 0.41584 0.03249 -0.07100
C 	C 	0.13130 0.42320 0.94910 -0.52300
N 	N 	0.86647 0.62586 0.78843 -0.28800
N 	N 	0.80589 0.63575 0.84477 -0.27300
N 	N 	0.88111 0.54625 0.74121 -0.29400
N 	N 	0.87111 0.46422 0.74447 -0.26500
N 	N 	0.90242 0.62637 0.70006 -0.28900
N 	N 	0.89913 0.68513 0.64179 -0.27700
N 	N 	0.95406 0.59770 0.77313 -0.29300
N 	N 	0.03609 0.60340 0.77982 -0.26800
N 	N 	0.13353 0.37414 0.78843 -0.28800
N 	N 	0.19411 0.36425 0.84477 -0.27300
N 	N 	0.11889 0.45375 0.74121 -0.29400
N 	N 	0.12889 0.53578 0.74447 -0.26500
N 	N 	0.09758 0.37363 0.70006 -0.28900
N 	N 	0.10087 0.31487 0.64179 -0.27700
N 	N 	0.04594 0.40230 0.77313 -0.29300
N 	N 	0.96391 0.39660 0.77982 -0.26800
N 	N 	0.13353 0.62586 0.21157 -0.28800
N 	N 	0.19411 0.63575 0.15523 -0.27300
N 	N 	0.11889 0.54625 0.25879 -0.29400
N 	N 	0.12889 0.46422 0.25553 -0.26500
N 	N 	0.09758 0.62637 0.29994 -0.28900
N 	N 	0.10087 0.68513 0.35821 -0.27700
N 	N 	0.04594 0.59770 0.22687 -0.29300
N 	N 	0.96391 0.60340 0.22018 -0.26800
N 	N 	0.86647 0.37414 0.21157 -0.28800
N 	N 	0.80589 0.36425 0.15523 -0.27300
N 	N 	0.88111 0.45375 0.25879 -0.29400
N 	N 	0.87111 0.53578 0.25553 -0.26500
N 	N 	0.90242 0.37363 0.29994 -0.28900
N 	N 	0.89913 0.31487 0.35821 -0.27700
N 	N 	0.95406 0.40230 0.22687 -0.29300
N 	N 	0.03609 0.39660 0.22018 -0.26800
N 	N 	0.78843 0.86647 0.62586 -0.28800
N 	N 	0.84477 0.80589 0.63575 -0.27300
N 	N 	0.74121 0.88111 0.54625 -0.29400
N 	N 	0.74447 0.87111 0.46422 -0.26500
N 	N 	0.70006 0.90242 0.62637 -0.28900
N 	N 	0.64179 0.89913 0.68513 -0.27700
N 	N 	0.77313 0.95406 0.59770 -0.29300
N 	N 	0.77982 0.03609 0.60340 -0.26800
N 	N 	0.78843 0.13353 0.37414 -0.28800
N 	N 	0.84477 0.19411 0.36425 -0.27300
N 	N 	0.74121 0.11889 0.45375 -0.29400
N 	N 	0.74447 0.12889 0.53578 -0.26500
N 	N 	0.70006 0.09758 0.37363 -0.28900
N 	N 	0.64179 0.10087 0.31487 -0.27700
N 	N 	0.77313 0.04594 0.40230 -0.29300
N 	N 	0.77982 0.96391 0.39660 -0.26800
N 	N 	0.21157 0.13353 0.62586 -0.28800
N 	N 	0.15523 0.19411 0.63575 -0.27300
N 	N 	0.25879 0.11889 0.54625 -0.29400
N 	N 	0.25553 0.12889 0.46422 -0.26500
N 	N 	0.29994 0.09758 0.62637 -0.28900
N 	N 	0.35821 0.10087 0.68513 -0.27700
N 	N 	0.22687 0.04594 0.59770 -0.29300
N 	N 	0.22018 0.96391 0.60340 -0.26800
N 	N 	0.21157 0.86647 0.37414 -0.28800
N 	N 	0.15523 0.80589 0.36425 -0.27300
N 	N 	0.25879 0.88111 0.45375 -0.29400
N 	N 	0.25553 0.87111 0.53578 -0.26500
N 	N 	0.29994 0.90242 0.37363 -0.28900
N 	N 	0.35821 0.89913 0.31487 -0.27700
N 	N 	0.22687 0.95406 0.40230 -0.29300
N 	N 	0.22018 0.03609 0.39660 -0.26800
N 	N 	0.62586 0.78843 0.86647 -0.28800
N 	N 	0.63575 0.84477 0.80589 -0.27300
N 	N 	0.54625 0.74121 0.88111 -0.29400
N 	N 	0.46422 0.74447 0.87111 -0.26500
N 	N 	0.62637 0.70006 0.90242 -0.28900
N 	N 	0.68513 0.64179 0.89913 -0.27700
N 	N 	0.59770 0.77313 0.95406 -0.29300
N 	N 	0.60340 0.77982 0.03609 -0.26800
N 	N 	0.37414 0.78843 0.13353 -0.28800
N 	N 	0.36425 0.84477 0.19411 -0.27300
N 	N 	0.45375 0.74121 0.11889 -0.29400
N 	N 	0.53578 0.74447 0.12889 -0.26500
N 	N 	0.37363 0.70006 0.09758 -0.28900
N 	N 	0.31487 0.64179 0.10087 -0.27700
N 	N 	0.40230 0.77313 0.04594 -0.29300
N 	N 	0.39660 0.77982 0.96391 -0.26800
N 	N 	0.62586 0.21157 0.13353 -0.28800
N 	N 	0.63575 0.15523 0.19411 -0.27300
N 	N 	0.54625 0.25879 0.11889 -0.29400
N 	N 	0.46422 0.25553 0.12889 -0.26500
N 	N 	0.62637 0.29994 0.09758 -0.28900
N 	N 	0.68513 0.35821 0.10087 -0.27700
N 	N 	0.59770 0.22687 0.04594 -0.29300
N 	N 	0.60340 0.22018 0.96391 -0.26800
N 	N 	0.37414 0.21157 0.86647 -0.28800
N 	N 	0.36425 0.15523 0.80589 -0.27300
N 	N 	0.45375 0.25879 0.88111 -0.29400
N 	N 	0.53578 0.25553 0.87111 -0.26500
N 	N 	0.37363 0.29994 0.90242 -0.28900
N 	N 	0.31487 0.35821 0.89913 -0.27700
N 	N 	0.40230 0.22687 0.95406 -0.29300
N 	N 	0.39660 0.22018 0.03609 -0.26800
N 	N 	0.62586 0.86647 0.21157 -0.28800
N 	N 	0.63575 0.80589 0.15523 -0.27300
N 	N 	0.54625 0.88111 0.25879 -0.29400
N 	N 	0.46422 0.87111 0.25553 -0.26500
N 	N 	0.62637 0.90242 0.29994 -0.28900
N 	N 	0.68513 0.89913 0.35821 -0.27700
N 	N 	0.59770 0.95406 0.22687 -0.29300
N 	N 	0.60340 0.03609 0.22018 -0.26800
N 	N 	0.37414 0.13353 0.21157 -0.28800
N 	N 	0.36425 0.19411 0.15523 -0.27300
N 	N 	0.45375 0.11889 0.25879 -0.29400
N 	N 	0.53578 0.12889 0.25553 -0.26500
N 	N 	0.37363 0.09758 0.29994 -0.28900
N 	N 	0.31487 0.10087 0.35821 -0.27700
N 	N 	0.40230 0.04594 0.22687 -0.29300
N 	N 	0.39660 0.96391 0.22018 -0.26800
N 	N 	0.62586 0.13353 0.78843 -0.28800
N 	N 	0.63575 0.19411 0.84477 -0.27300
N 	N 	0.54625 0.11889 0.74121 -0.29400
N 	N 	0.46422 0.12889 0.74447 -0.26500
N 	N 	0.62637 0.09758 0.70006 -0.28900
N 	N 	0.68513 0.10087 0.64179 -0.27700
N 	N 	0.59770 0.04594 0.77313 -0.29300
N 	N 	0.60340 0.96391 0.77982 -0.26800
N 	N 	0.37414 0.86647 0.78843 -0.28800
N 	N 	0.36425 0.80589 0.84477 -0.27300
N 	N 	0.45375 0.88111 0.74121 -0.29400
N 	N 	0.53578 0.87111 0.74447 -0.26500
N 	N 	0.37363 0.90242 0.70006 -0.28900
N 	N 	0.31487 0.89913 0.64179 -0.27700
N 	N 	0.40230 0.95406 0.77313 -0.29300
N 	N 	0.39660 0.03609 0.77982 -0.26800
N 	N 	0.86647 0.78843 0.37414 -0.28800
N 	N 	0.80589 0.84477 0.36425 -0.27300
N 	N 	0.88111 0.74121 0.45375 -0.29400
N 	N 	0.87111 0.74447 0.53578 -0.26500
N 	N 	0.90242 0.70006 0.37363 -0.28900
N 	N 	0.89913 0.64179 0.31487 -0.27700
N 	N 	0.95406 0.77313 0.40230 -0.29300
N 	N 	0.03609 0.77982 0.39660 -0.26800
N 	N 	0.13353 0.78843 0.62586 -0.28800
N 	N 	0.19411 0.84477 0.63575 -0.27300
N 	N 	0.11889 0.74121 0.54625 -0.29400
N 	N 	0.12889 0.74447 0.46422 -0.26500
N 	N 	0.09758 0.70006 0.62637 -0.28900
N 	N 	0.10087 0.64179 0.68513 -0.27700
N 	N 	0.04594 0.77313 0.59770 -0.29300
N 	N 	0.96391 0.77982 0.60340 -0.26800
N 	N 	0.13353 0.21157 0.37414 -0.28800
N 	N 	0.19411 0.15523 0.36425 -0.27300
N 	N 	0.11889 0.25879 0.45375 -0.29400
N 	N 	0.12889 0.25553 0.53578 -0.26500
N 	N 	0.09758 0.29994 0.37363 -0.28900
N 	N 	0.10087 0.35821 0.31487 -0.27700
N 	N 	0.04594 0.22687 0.40230 -0.29300
N 	N 	0.96391 0.22018 0.39660 -0.26800
N 	N 	0.86647 0.21157 0.62586 -0.28800
N 	N 	0.80589 0.15523 0.63575 -0.27300
N 	N 	0.88111 0.25879 0.54625 -0.29400
N 	N 	0.87111 0.25553 0.46422 -0.26500
N 	N 	0.90242 0.29994 0.62637 -0.28900
N 	N 	0.89913 0.35821 0.68513 -0.27700
N 	N 	0.95406 0.22687 0.59770 -0.29300
N 	N 	0.03609 0.22018 0.60340 -0.26800
N 	N 	0.78843 0.62586 0.13353 -0.28800
N 	N 	0.84477 0.63575 0.19411 -0.27300
N 	N 	0.74121 0.54625 0.11889 -0.29400
N 	N 	0.74447 0.46422 0.12889 -0.26500
N 	N 	0.70006 0.62637 0.09758 -0.28900
N 	N 	0.64179 0.68513 0.10087 -0.27700
N 	N 	0.77313 0.59770 0.04594 -0.29300
N 	N 	0.77982 0.60340 0.96391 -0.26800
N 	N 	0.78843 0.37414 0.86647 -0.28800
N 	N 	0.84477 0.36425 0.80589 -0.27300
N 	N 	0.74121 0.45375 0.88111 -0.29400
N 	N 	0.74447 0.53578 0.87111 -0.26500
N 	N 	0.70006 0.37363 0.90242 -0.28900
N 	N 	0.64179 0.31487 0.89913 -0.27700
N 	N 	0.77313 0.40230 0.95406 -0.29300
N 	N 	0.77982 0.39660 0.03609 -0.26800
N 	N 	0.21157 0.62586 0.86647 -0.28800
N 	N 	0.15523 0.63575 0.80589 -0.27300
N 	N 	0.25879 0.54625 0.88111 -0.29400
N 	N 	0.25553 0.46422 0.87111 -0.26500
N 	N 	0.29994 0.62637 0.90242 -0.28900
N 	N 	0.35821 0.68513 0.89913 -0.27700
N 	N 	0.22687 0.59770 0.95406 -0.29300
N 	N 	0.22018 0.60340 0.03609 -0.26800
N 	N 	0.21157 0.37414 0.13353 -0.28800
N 	N 	0.15523 0.36425 0.19411 -0.27300
N 	N 	0.25879 0.45375 0.11889 -0.29400
N 	N 	0.25553 0.53578 0.12889 -0.26500
N 	N 	0.29994 0.37363 0.09758 -0.28900
N 	N 	0.35821 0.31487 0.10087 -0.27700
N 	N 	0.22687 0.40230 0.04594 -0.29300
N 	N 	0.22018 0.39660 0.96391 -0.26800
