data_crystal

_cell_length_a 14.46000
_cell_length_b 13.06300
_cell_length_c 22.05400
_cell_angle_alpha 90.00000
_cell_angle_beta  125.16000
_cell_angle_gamma 90.00000

_symmetry_space_group_name_	'P 1'
_symmetry_space_group_name_H-M	'P 1'

loop_
_symmetry_equiv_pos_as_xyz
  x,y,z

loop_
_atom_site_label
_atom_site_type_symbol
_atom_site_fract_x
_atom_site_fract_y
_atom_site_fract_z
_atom_site_charge
Mn	Mn	0.22733 0.55772 0.72707 1.30200
Mn	Mn	0.29507 0.72915 0.86879 1.20700
O 	O 	0.23680 0.58910 0.88545 -0.50200
O 	O 	0.15520 0.50210 0.77930 -0.47700
O 	O 	0.85330 0.25940 0.74144 -0.52200
O 	O 	0.90290 0.16000 0.83760 -0.46800
O 	O 	0.20300 0.05690 0.14976 -0.40200
O 	O 	0.35690 0.08180 0.26108 -0.35800
O 	O 	0.64410 0.34350 0.28180 -0.37700
O 	O 	0.62870 0.36210 0.17728 -0.56400
C 	C 	0.18340 0.51410 0.84430 0.40500
C 	C 	0.15130 0.42900 0.87480 -0.13300
C 	C 	0.22410 0.40240 0.94900 0.00500
H 	H 	0.28830 0.44180 0.98030 0.02700
C 	C 	0.20270 0.31750 0.97790 -0.03000
C 	C 	0.10170 0.26450 0.92990 0.00400
H 	H 	0.08480 0.20820 0.94770 0.04100
C 	C 	0.02560 0.29370 0.85600 -0.13400
C 	C 	0.91820 0.23340 0.80740 0.41200
C 	C 	0.05190 0.37390 0.82790 0.06500
H 	H 	0.00360 0.39110 0.77800 0.01200
C 	C 	0.28430 0.28380 0.05540 0.00700
C 	C 	0.39620 0.31840 0.09720 -0.04000
H 	H 	0.42030 0.36120 0.07520 0.02900
C 	C 	0.47220 0.29010 0.17080 -0.10800
C 	C 	0.58840 0.33250 0.21320 0.31700
C 	C 	0.43850 0.22480 0.20420 0.00900
H 	H 	0.48840 0.20790 0.25410 0.04200
C 	C 	0.32920 0.18430 0.16230 -0.07200
C 	C 	0.29510 0.10380 0.19390 0.29800
C 	C 	0.25380 0.21560 0.08960 -0.04400
H 	H 	0.18030 0.19020 0.06260 0.05900
Mn	Mn	0.77267 0.05772 0.77293 1.30100
Mn	Mn	0.70493 0.22915 0.63121 1.20600
O 	O 	0.76320 0.08910 0.61455 -0.50300
O 	O 	0.84480 0.00210 0.72070 -0.47900
O 	O 	0.14670 0.75940 0.75856 -0.52300
O 	O 	0.09710 0.66000 0.66240 -0.46900
O 	O 	0.79700 0.55690 0.35024 -0.40400
O 	O 	0.64310 0.58180 0.23892 -0.35900
O 	O 	0.35590 0.84350 0.21820 -0.37800
O 	O 	0.37130 0.86210 0.32272 -0.56500
C 	C 	0.81660 0.01410 0.65570 0.40200
C 	C 	0.84870 0.92900 0.62520 -0.13100
C 	C 	0.77590 0.90240 0.55100 0.00300
H 	H 	0.71170 0.94180 0.51970 0.02700
C 	C 	0.79730 0.81750 0.52210 -0.02900
C 	C 	0.89830 0.76450 0.57010 0.00300
H 	H 	0.91520 0.70820 0.55230 0.04100
C 	C 	0.97440 0.79370 0.64400 -0.13300
C 	C 	0.08180 0.73340 0.69260 0.41100
C 	C 	0.94810 0.87390 0.67210 0.06400
H 	H 	0.99640 0.89110 0.72200 0.01300
C 	C 	0.71570 0.78380 0.44460 0.00600
C 	C 	0.60380 0.81840 0.40280 -0.03900
H 	H 	0.57970 0.86120 0.42480 0.02900
C 	C 	0.52780 0.79010 0.32920 -0.10800
C 	C 	0.41160 0.83250 0.28680 0.31700
C 	C 	0.56150 0.72480 0.29580 0.01000
H 	H 	0.51160 0.70790 0.24590 0.04200
C 	C 	0.67080 0.68430 0.33770 -0.07200
C 	C 	0.70490 0.60380 0.30610 0.29800
C 	C 	0.74620 0.71560 0.41040 -0.04400
H 	H 	0.81970 0.69020 0.43740 0.05900
Mn	Mn	0.77267 0.44228 0.27293 1.30100
Mn	Mn	0.70493 0.27085 0.13121 1.20600
O 	O 	0.76320 0.41090 0.11455 -0.50300
O 	O 	0.84480 0.49790 0.22070 -0.47800
O 	O 	0.14670 0.74060 0.25856 -0.52300
O 	O 	0.09710 0.84000 0.16240 -0.46900
O 	O 	0.79700 0.94310 0.85024 -0.40300
O 	O 	0.64310 0.91820 0.73892 -0.35900
O 	O 	0.35590 0.65650 0.71820 -0.37800
O 	O 	0.37130 0.63790 0.82272 -0.56500
C 	C 	0.81660 0.48590 0.15570 0.40400
C 	C 	0.84870 0.57100 0.12520 -0.13400
C 	C 	0.77590 0.59760 0.05100 0.00500
H 	H 	0.71170 0.55820 0.01970 0.02700
C 	C 	0.79730 0.68250 0.02210 -0.03000
C 	C 	0.89830 0.73550 0.07010 0.00400
H 	H 	0.91520 0.79180 0.05230 0.04100
C 	C 	0.97440 0.70630 0.14400 -0.13400
C 	C 	0.08180 0.76660 0.19260 0.41200
C 	C 	0.94810 0.62610 0.17210 0.06500
H 	H 	0.99640 0.60890 0.22200 0.01200
C 	C 	0.71570 0.71620 0.94460 0.00700
C 	C 	0.60380 0.68160 0.90280 -0.04000
H 	H 	0.57970 0.63880 0.92480 0.02900
C 	C 	0.52780 0.70990 0.82920 -0.10800
C 	C 	0.41160 0.66750 0.78680 0.31700
C 	C 	0.56150 0.77520 0.79580 0.00900
H 	H 	0.51160 0.79210 0.74590 0.04200
C 	C 	0.67080 0.81570 0.83770 -0.07200
C 	C 	0.70490 0.89620 0.80610 0.29800
C 	C 	0.74620 0.78440 0.91040 -0.04400
H 	H 	0.81970 0.80980 0.93740 0.05900
Mn	Mn	0.22733 0.94228 0.22707 1.30100
Mn	Mn	0.29507 0.77085 0.36879 1.20600
O 	O 	0.23680 0.91090 0.38545 -0.50300
O 	O 	0.15520 0.99790 0.27930 -0.47900
O 	O 	0.85330 0.24060 0.24144 -0.52300
O 	O 	0.90290 0.34000 0.33760 -0.46900
O 	O 	0.20300 0.44310 0.64976 -0.40400
O 	O 	0.35690 0.41820 0.76108 -0.35900
O 	O 	0.64410 0.15650 0.78180 -0.37800
O 	O 	0.62870 0.13790 0.67728 -0.56500
C 	C 	0.18340 0.98590 0.34430 0.40200
C 	C 	0.15130 0.07100 0.37480 -0.13100
C 	C 	0.22410 0.09760 0.44900 0.00300
H 	H 	0.28830 0.05820 0.48030 0.02700
C 	C 	0.20270 0.18250 0.47790 -0.02900
C 	C 	0.10170 0.23550 0.42990 0.00300
H 	H 	0.08480 0.29180 0.44770 0.04100
C 	C 	0.02560 0.20630 0.35600 -0.13300
C 	C 	0.91820 0.26660 0.30740 0.41100
C 	C 	0.05190 0.12610 0.32790 0.06400
H 	H 	0.00360 0.10890 0.27800 0.01300
C 	C 	0.28430 0.21620 0.55540 0.00600
C 	C 	0.39620 0.18160 0.59720 -0.03900
H 	H 	0.42030 0.13880 0.57520 0.02900
C 	C 	0.47220 0.20990 0.67080 -0.10800
C 	C 	0.58840 0.16750 0.71320 0.31700
C 	C 	0.43850 0.27520 0.70420 0.01000
H 	H 	0.48840 0.29210 0.75410 0.04200
C 	C 	0.32920 0.31570 0.66230 -0.07200
C 	C 	0.29510 0.39620 0.69390 0.29800
C 	C 	0.25380 0.28440 0.58960 -0.04400
H 	H 	0.18030 0.30980 0.56260 0.05900
