data_crystal

_cell_length_a 13.15300
_cell_length_b 13.98600
_cell_length_c 21.68300
_cell_angle_alpha 90.00000
_cell_angle_beta  121.05600
_cell_angle_gamma 90.00000

_symmetry_space_group_name_	'P 1'
_symmetry_space_group_name_H-M	'P 1'

loop_
_symmetry_equiv_pos_as_xyz
  x,y,z

loop_
_atom_site_label
_atom_site_type_symbol
_atom_site_fract_x
_atom_site_fract_y
_atom_site_fract_z
_atom_site_charge
Mn	Mn	0.72526 0.54571 0.72526 1.30000
Mn	Mn	0.77625 0.70394 0.86040 1.26100
O 	O 	0.59070 0.64330 0.66140 -0.46000
O 	O 	0.63650 0.73710 0.75500 -0.50200
O 	O 	0.35960 0.00230 0.72000 -0.47500
O 	O 	0.26810 0.07130 0.61200 -0.47300
O 	O 	0.30680 0.55880 0.35630 -0.39000
O 	O 	0.15640 0.58700 0.24830 -0.37400
O 	O 	0.87760 0.86720 0.22120 -0.37300
O 	O 	0.87160 0.88180 0.32010 -0.53700
N 	N 	0.93850 0.72020 0.97130 -0.22000
N 	N 	0.87030 0.83980 0.85810 -0.22800
C 	C 	0.57320 0.71370 0.68950 0.40400
C 	C 	0.47050 0.77790 0.64210 -0.12300
C 	C 	0.44630 0.85770 0.66980 0.05500
H 	H 	0.49180 0.87070 0.71880 0.02400
C 	C 	0.35380 0.91880 0.62440 -0.11800
C 	C 	0.32490 0.00390 0.65440 0.39100
C 	C 	0.28680 0.89820 0.55070 0.00200
H 	H 	0.22860 0.94120 0.51990 0.04200
C 	C 	0.30470 0.81620 0.52260 -0.01700
C 	C 	0.40000 0.75610 0.56980 0.00200
H 	H 	0.41540 0.70100 0.55190 0.04600
C 	C 	0.22700 0.78940 0.44480 0.02000
C 	C 	0.25780 0.71750 0.41360 -0.04200
H 	H 	0.32970 0.68590 0.44150 0.06200
C 	C 	0.18490 0.69110 0.34200 -0.06400
C 	C 	0.21700 0.60940 0.31250 0.29800
C 	C 	0.07720 0.73980 0.29940 0.01000
H 	H 	0.02970 0.72560 0.25070 0.05100
C 	C 	0.04270 0.80810 0.32980 -0.08100
C 	C 	0.92350 0.85490 0.28660 0.32400
C 	C 	0.11590 0.83380 0.40220 -0.03800
H 	H 	0.09090 0.88030 0.42220 0.05200
C 	C 	0.83830 0.89240 0.79990 0.04300
H 	H 	0.77040 0.87730 0.75640 0.01000
C 	C 	0.91110 0.97410 0.80520 -0.08600
H 	H 	0.89030 0.01020 0.76430 0.06900
C 	C 	0.00390 0.99730 0.86580 -0.01200
H 	H 	0.04900 0.04990 0.86820 0.04500
C 	C 	0.03630 0.94480 0.92670 -0.00500
C 	C 	0.13610 0.96640 0.99400 -0.02300
H 	H 	0.18190 0.01950 0.99850 0.03200
C 	C 	0.16830 0.90980 0.05460 -0.08600
H 	H 	0.23280 0.92770 0.09890 0.06000
C 	C 	0.10310 0.82380 0.04970 0.04500
C 	C 	0.13390 0.77270 0.10430 -0.06800
H 	H 	0.19740 0.79080 0.14900 0.05900
C 	C 	0.06810 0.68360 0.09670 -0.05900
H 	H 	0.09020 0.64340 0.13580 0.07000
C 	C 	0.96700 0.66090 0.02560 0.02700
H 	H 	0.92320 0.60550 0.01840 0.01500
C 	C 	0.00160 0.80180 0.98090 0.00300
C 	C 	0.96770 0.86420 0.91830 0.03800
Mn	Mn	0.27474 0.04571 0.77474 1.29900
Mn	Mn	0.22375 0.20394 0.63960 1.26000
O 	O 	0.40930 0.14330 0.83860 -0.46100
O 	O 	0.36350 0.23710 0.74500 -0.50300
O 	O 	0.64040 0.50230 0.78000 -0.47600
O 	O 	0.73190 0.57130 0.88800 -0.47400
O 	O 	0.69320 0.05880 0.14370 -0.39000
O 	O 	0.84360 0.08700 0.25170 -0.37400
O 	O 	0.12240 0.36720 0.27880 -0.37400
O 	O 	0.12840 0.38180 0.17990 -0.53800
N 	N 	0.06150 0.22020 0.52870 -0.22200
N 	N 	0.12970 0.33980 0.64190 -0.22400
C 	C 	0.42680 0.21370 0.81050 0.40500
C 	C 	0.52950 0.27790 0.85790 -0.12400
C 	C 	0.55370 0.35770 0.83020 0.05700
H 	H 	0.50820 0.37070 0.78120 0.02300
C 	C 	0.64620 0.41880 0.87560 -0.12100
C 	C 	0.67510 0.50390 0.84560 0.39300
C 	C 	0.71320 0.39820 0.94930 0.00400
H 	H 	0.77140 0.44120 0.98010 0.04000
C 	C 	0.69530 0.31620 0.97740 -0.02000
C 	C 	0.60000 0.25610 0.93020 0.00400
H 	H 	0.58460 0.20100 0.94810 0.04500
C 	C 	0.77300 0.28940 0.05520 0.02100
C 	C 	0.74220 0.21750 0.08640 -0.04200
H 	H 	0.67030 0.18590 0.05850 0.06300
C 	C 	0.81510 0.19110 0.15800 -0.06400
C 	C 	0.78300 0.10940 0.18750 0.29800
C 	C 	0.92280 0.23980 0.20060 0.01000
H 	H 	0.97030 0.22560 0.24930 0.05000
C 	C 	0.95730 0.30810 0.17020 -0.08200
C 	C 	0.07650 0.35490 0.21340 0.32500
C 	C 	0.88410 0.33380 0.09780 -0.03800
H 	H 	0.90910 0.38030 0.07780 0.05200
C 	C 	0.16170 0.39240 0.70010 0.03100
H 	H 	0.22960 0.37730 0.74360 0.01400
C 	C 	0.08890 0.47410 0.69480 -0.06000
H 	H 	0.10970 0.51020 0.73570 0.06000
C 	C 	0.99610 0.49730 0.63420 -0.04600
H 	H 	0.95100 0.54990 0.63180 0.05900
C 	C 	0.96370 0.44480 0.57330 0.01500
C 	C 	0.86390 0.46640 0.50600 -0.04900
H 	H 	0.81810 0.51950 0.50150 0.04400
C 	C 	0.83170 0.40980 0.44540 -0.06900
H 	H 	0.76720 0.42770 0.40110 0.05400
C 	C 	0.89690 0.32380 0.45030 0.03800
C 	C 	0.86610 0.27270 0.39570 -0.06200
H 	H 	0.80260 0.29080 0.35100 0.05800
C 	C 	0.93190 0.18360 0.40330 -0.06200
H 	H 	0.90980 0.14340 0.36420 0.07100
C 	C 	0.03300 0.16090 0.47440 0.03000
H 	H 	0.07680 0.10550 0.48160 0.01400
C 	C 	0.99840 0.30180 0.51910 0.00600
C 	C 	0.03230 0.36420 0.58170 0.03100
Mn	Mn	0.27474 0.45429 0.27474 1.29900
Mn	Mn	0.22375 0.29606 0.13960 1.26000
O 	O 	0.40930 0.35670 0.33860 -0.46100
O 	O 	0.36350 0.26290 0.24500 -0.50300
O 	O 	0.64040 0.99770 0.28000 -0.47600
O 	O 	0.73190 0.92870 0.38800 -0.47400
O 	O 	0.69320 0.44120 0.64370 -0.39100
O 	O 	0.84360 0.41300 0.75170 -0.37500
O 	O 	0.12240 0.13280 0.77880 -0.37400
O 	O 	0.12840 0.11820 0.67990 -0.53800
N 	N 	0.06150 0.27980 0.02870 -0.22000
N 	N 	0.12970 0.16020 0.14190 -0.22800
C 	C 	0.42680 0.28630 0.31050 0.40400
C 	C 	0.52950 0.22210 0.35790 -0.12300
C 	C 	0.55370 0.14230 0.33020 0.05500
H 	H 	0.50820 0.12930 0.28120 0.02400
C 	C 	0.64620 0.08120 0.37560 -0.11800
C 	C 	0.67510 0.99610 0.34560 0.39100
C 	C 	0.71320 0.10180 0.44930 0.00200
H 	H 	0.77140 0.05880 0.48010 0.04200
C 	C 	0.69530 0.18380 0.47740 -0.01700
C 	C 	0.60000 0.24390 0.43020 0.00200
H 	H 	0.58460 0.29900 0.44810 0.04600
C 	C 	0.77300 0.21060 0.55520 0.02000
C 	C 	0.74220 0.28250 0.58640 -0.04200
H 	H 	0.67030 0.31410 0.55850 0.06200
C 	C 	0.81510 0.30890 0.65800 -0.06400
C 	C 	0.78300 0.39060 0.68750 0.29800
C 	C 	0.92280 0.26020 0.70060 0.01000
H 	H 	0.97030 0.27440 0.74930 0.05100
C 	C 	0.95730 0.19190 0.67020 -0.08100
C 	C 	0.07650 0.14510 0.71340 0.32400
C 	C 	0.88410 0.16620 0.59780 -0.03800
H 	H 	0.90910 0.11970 0.57780 0.05200
C 	C 	0.16170 0.10760 0.20010 0.04300
H 	H 	0.22960 0.12270 0.24360 0.01000
C 	C 	0.08890 0.02590 0.19480 -0.08600
H 	H 	0.10970 0.98980 0.23570 0.06900
C 	C 	0.99610 0.00270 0.13420 -0.01200
H 	H 	0.95100 0.95010 0.13180 0.04500
C 	C 	0.96370 0.05520 0.07330 -0.00500
C 	C 	0.86390 0.03360 0.00600 -0.02300
H 	H 	0.81810 0.98050 0.00150 0.03200
C 	C 	0.83170 0.09020 0.94540 -0.08600
H 	H 	0.76720 0.07230 0.90110 0.06000
C 	C 	0.89690 0.17620 0.95030 0.04500
C 	C 	0.86610 0.22730 0.89570 -0.06800
H 	H 	0.80260 0.20920 0.85100 0.05900
C 	C 	0.93190 0.31640 0.90330 -0.05900
H 	H 	0.90980 0.35660 0.86420 0.07000
C 	C 	0.03300 0.33910 0.97440 0.02700
H 	H 	0.07680 0.39450 0.98160 0.01500
C 	C 	0.99840 0.19820 0.01910 0.00300
C 	C 	0.03230 0.13580 0.08170 0.03800
Mn	Mn	0.72526 0.95429 0.22526 1.29900
Mn	Mn	0.77625 0.79606 0.36040 1.26000
O 	O 	0.59070 0.85670 0.16140 -0.46100
O 	O 	0.63650 0.76290 0.25500 -0.50300
O 	O 	0.35960 0.49770 0.22000 -0.47600
O 	O 	0.26810 0.42870 0.11200 -0.47400
O 	O 	0.30680 0.94120 0.85630 -0.39000
O 	O 	0.15640 0.91300 0.74830 -0.37400
O 	O 	0.87760 0.63280 0.72120 -0.37400
O 	O 	0.87160 0.61820 0.82010 -0.53800
N 	N 	0.93850 0.77980 0.47130 -0.22200
N 	N 	0.87030 0.66020 0.35810 -0.22400
C 	C 	0.57320 0.78630 0.18950 0.40500
C 	C 	0.47050 0.72210 0.14210 -0.12400
C 	C 	0.44630 0.64230 0.16980 0.05700
H 	H 	0.49180 0.62930 0.21880 0.02300
C 	C 	0.35380 0.58120 0.12440 -0.12100
C 	C 	0.32490 0.49610 0.15440 0.39300
C 	C 	0.28680 0.60180 0.05070 0.00400
H 	H 	0.22860 0.55880 0.01990 0.04000
C 	C 	0.30470 0.68380 0.02260 -0.02000
C 	C 	0.40000 0.74390 0.06980 0.00400
H 	H 	0.41540 0.79900 0.05190 0.04500
C 	C 	0.22700 0.71060 0.94480 0.02100
C 	C 	0.25780 0.78250 0.91360 -0.04200
H 	H 	0.32970 0.81410 0.94150 0.06300
C 	C 	0.18490 0.80890 0.84200 -0.06400
C 	C 	0.21700 0.89060 0.81250 0.29800
C 	C 	0.07720 0.76020 0.79940 0.01000
H 	H 	0.02970 0.77440 0.75070 0.05000
C 	C 	0.04270 0.69190 0.82980 -0.08200
C 	C 	0.92350 0.64510 0.78660 0.32500
C 	C 	0.11590 0.66620 0.90220 -0.03800
H 	H 	0.09090 0.61970 0.92220 0.05200
C 	C 	0.83830 0.60760 0.29990 0.03100
H 	H 	0.77040 0.62270 0.25640 0.01400
C 	C 	0.91110 0.52590 0.30520 -0.06000
H 	H 	0.89030 0.48980 0.26430 0.06000
C 	C 	0.00390 0.50270 0.36580 -0.04600
H 	H 	0.04900 0.45010 0.36820 0.05900
C 	C 	0.03630 0.55520 0.42670 0.01500
C 	C 	0.13610 0.53360 0.49400 -0.04900
H 	H 	0.18190 0.48050 0.49850 0.04400
C 	C 	0.16830 0.59020 0.55460 -0.06900
H 	H 	0.23280 0.57230 0.59890 0.05400
C 	C 	0.10310 0.67620 0.54970 0.03800
C 	C 	0.13390 0.72730 0.60430 -0.06200
H 	H 	0.19740 0.70920 0.64900 0.05800
C 	C 	0.06810 0.81640 0.59670 -0.06200
H 	H 	0.09020 0.85660 0.63580 0.07100
C 	C 	0.96700 0.83910 0.52560 0.03000
H 	H 	0.92320 0.89450 0.51840 0.01400
C 	C 	0.00160 0.69820 0.48090 0.00600
C 	C 	0.96770 0.63580 0.41830 0.03100
