data_crystal

_cell_length_a 13.28800
_cell_length_b 13.91900
_cell_length_c 18.47700
_cell_angle_alpha 90.00000
_cell_angle_beta  96.31800
_cell_angle_gamma 90.00000

_symmetry_space_group_name_	'P 1'
_symmetry_space_group_name_H-M	'P 1'

loop_
_symmetry_equiv_pos_as_xyz
  x,y,z

loop_
_atom_site_label
_atom_site_type_symbol
_atom_site_fract_x
_atom_site_fract_y
_atom_site_fract_z
_atom_site_charge
Mn	Mn	0.98705 0.05414 0.22259 1.29700
Mn	Mn	0.06664 0.20730 0.36906 1.26200
C 	C 	0.16550 0.01030 0.33820 0.39100
C 	C 	0.23280 0.92890 0.36710 -0.12000
C 	C 	0.28540 0.87430 0.32110 0.06000
H 	H 	0.28140 0.88930 0.27180 0.02400
C 	C 	0.34350 0.79790 0.34830 -0.12400
C 	C 	0.34590 0.77380 0.42160 0.00300
H 	H 	0.38430 0.72140 0.43940 0.04400
C 	C 	0.29220 0.82660 0.46910 -0.02000
C 	C 	0.23850 0.90600 0.44030 0.00600
H 	H 	0.20550 0.94490 0.47120 0.03800
C 	C 	0.40320 0.73750 0.30020 0.41300
C 	C 	0.28360 0.73820 0.69170 0.00700
H 	H 	0.28350 0.72080 0.74030 0.05200
C 	C 	0.22310 0.81120 0.66330 -0.08300
C 	C 	0.22500 0.83970 0.59150 -0.03700
H 	H 	0.18200 0.88830 0.57250 0.04800
C 	C 	0.29100 0.79610 0.54730 0.02100
C 	C 	0.34780 0.72000 0.57590 -0.04400
H 	H 	0.38920 0.68780 0.54650 0.06100
C 	C 	0.34600 0.68940 0.64750 -0.06000
C 	C 	0.40150 0.60190 0.67500 0.29600
C 	C 	0.14920 0.85610 0.70860 0.31500
C 	C 	0.93700 0.40350 0.33700 0.11000
H 	H 	0.95360 0.39540 0.28980 -0.01500
C 	C 	0.87960 0.48250 0.35050 -0.18600
H 	H 	0.85690 0.52490 0.31340 0.10900
C 	C 	0.85760 0.49630 0.41840 0.10700
H 	H 	0.82130 0.55040 0.42980 -0.00700
C 	C 	0.88820 0.43150 0.47060 -0.16000
H 	H 	0.87180 0.44020 0.51780 0.08300
C 	C 	0.94350 0.35280 0.45400 0.07300
C 	C 	0.97610 0.27760 0.50720 0.02200
C 	C 	0.96250 0.28460 0.58220 -0.09500
H 	H 	0.93310 0.33840 0.60110 0.06300
C 	C 	0.99550 0.20680 0.62620 0.03300
H 	H 	0.98900 0.20910 0.67580 0.02900
C 	C 	0.03760 0.12650 0.59790 -0.12500
H 	H 	0.05810 0.07440 0.62740 0.08600
C 	C 	0.04820 0.12550 0.52550 0.08200
H 	H 	0.07700 0.07150 0.50640 -0.00500
N 	N 	0.97020 0.33820 0.38570 -0.25000
N 	N 	0.02050 0.19570 0.48160 -0.23500
O 	O 	0.15010 0.07650 0.38142 -0.47400
O 	O 	0.12800 0.00530 0.27203 -0.46000
O 	O 	0.39970 0.75970 0.23466 -0.49600
O 	O 	0.45190 0.66860 0.33007 -0.47000
O 	O 	0.44500 0.54980 0.63239 -0.38200
O 	O 	0.40330 0.58040 0.74129 -0.38200
O 	O 	0.06210 0.88240 0.67677 -0.53800
O 	O 	0.17060 0.86680 0.77530 -0.37100
Mn	Mn	0.51295 0.55414 0.27741 1.30000
Mn	Mn	0.43336 0.70730 0.13094 1.26000
C 	C 	0.33450 0.51030 0.16180 0.38700
C 	C 	0.26720 0.42890 0.13290 -0.11700
C 	C 	0.21460 0.37430 0.17890 0.05700
H 	H 	0.21860 0.38930 0.22820 0.02500
C 	C 	0.15650 0.29790 0.15170 -0.12300
C 	C 	0.15410 0.27380 0.07840 0.00200
H 	H 	0.11570 0.22140 0.06060 0.04500
C 	C 	0.20780 0.32660 0.03090 -0.02000
C 	C 	0.26150 0.40600 0.05970 0.00400
H 	H 	0.29450 0.44490 0.02880 0.04000
C 	C 	0.09680 0.23750 0.19980 0.41200
C 	C 	0.21640 0.23820 0.80830 0.00600
H 	H 	0.21650 0.22080 0.75970 0.05300
C 	C 	0.27690 0.31120 0.83670 -0.08200
C 	C 	0.27500 0.33970 0.90850 -0.03900
H 	H 	0.31800 0.38830 0.92750 0.05000
C 	C 	0.20900 0.29610 0.95270 0.02200
C 	C 	0.15220 0.22000 0.92410 -0.04500
H 	H 	0.11080 0.18780 0.95350 0.06200
C 	C 	0.15400 0.18940 0.85250 -0.05800
C 	C 	0.09850 0.10190 0.82500 0.29500
C 	C 	0.35080 0.35610 0.79140 0.31400
C 	C 	0.56300 0.90350 0.16300 0.10800
H 	H 	0.54640 0.89540 0.21020 -0.01300
C 	C 	0.62040 0.98250 0.14950 -0.18000
H 	H 	0.64310 0.02490 0.18660 0.10400
C 	C 	0.64240 0.99630 0.08160 0.11200
H 	H 	0.67870 0.05040 0.07020 -0.01200
C 	C 	0.61180 0.93150 0.02940 -0.15800
H 	H 	0.62820 0.94020 0.98220 0.08100
C 	C 	0.55650 0.85280 0.04600 0.07300
C 	C 	0.52390 0.77760 0.99280 0.02400
C 	C 	0.53750 0.78460 0.91780 -0.09900
H 	H 	0.56690 0.83840 0.89890 0.06400
C 	C 	0.50450 0.70680 0.87380 0.04300
H 	H 	0.51100 0.70910 0.82420 0.02700
C 	C 	0.46240 0.62650 0.90210 -0.13500
H 	H 	0.44190 0.57440 0.87260 0.08700
C 	C 	0.45180 0.62550 0.97450 0.08400
H 	H 	0.42300 0.57150 0.99360 -0.00700
N 	N 	0.52980 0.83820 0.11430 -0.24900
N 	N 	0.47950 0.69570 0.01840 -0.23700
O 	O 	0.34990 0.57650 0.11858 -0.47500
O 	O 	0.37200 0.50530 0.22797 -0.46100
O 	O 	0.10030 0.25970 0.26534 -0.49500
O 	O 	0.04810 0.16860 0.16993 -0.46800
O 	O 	0.05500 0.04980 0.86761 -0.37900
O 	O 	0.09670 0.08040 0.75871 -0.37900
O 	O 	0.43790 0.38240 0.82323 -0.53500
O 	O 	0.32940 0.36680 0.72470 -0.36900
Mn	Mn	0.01295 0.94586 0.77741 1.29600
Mn	Mn	0.93336 0.79270 0.63094 1.26100
C 	C 	0.83450 0.98970 0.66180 0.39000
C 	C 	0.76720 0.07110 0.63290 -0.12100
C 	C 	0.71460 0.12570 0.67890 0.06000
H 	H 	0.71860 0.11070 0.72820 0.02400
C 	C 	0.65650 0.20210 0.65170 -0.12400
C 	C 	0.65410 0.22620 0.57840 0.00300
H 	H 	0.61570 0.27860 0.56060 0.04400
C 	C 	0.70780 0.17340 0.53090 -0.02000
C 	C 	0.76150 0.09400 0.55970 0.00600
H 	H 	0.79450 0.05510 0.52880 0.03800
C 	C 	0.59680 0.26250 0.69980 0.41300
C 	C 	0.71640 0.26180 0.30830 0.00700
H 	H 	0.71650 0.27920 0.25970 0.05200
C 	C 	0.77690 0.18880 0.33670 -0.08300
C 	C 	0.77500 0.16030 0.40850 -0.03700
H 	H 	0.81800 0.11170 0.42750 0.04800
C 	C 	0.70900 0.20390 0.45270 0.02100
C 	C 	0.65220 0.28000 0.42410 -0.04400
H 	H 	0.61080 0.31220 0.45350 0.06100
C 	C 	0.65400 0.31060 0.35250 -0.06000
C 	C 	0.59850 0.39810 0.32500 0.29600
C 	C 	0.85080 0.14390 0.29140 0.31500
C 	C 	0.06300 0.59650 0.66300 0.11000
H 	H 	0.04640 0.60460 0.71020 -0.01500
C 	C 	0.12040 0.51750 0.64950 -0.18600
H 	H 	0.14310 0.47510 0.68660 0.10900
C 	C 	0.14240 0.50370 0.58160 0.10700
H 	H 	0.17870 0.44960 0.57020 -0.00700
C 	C 	0.11180 0.56850 0.52940 -0.16000
H 	H 	0.12820 0.55980 0.48220 0.08300
C 	C 	0.05650 0.64720 0.54600 0.07300
C 	C 	0.02390 0.72240 0.49280 0.02200
C 	C 	0.03750 0.71540 0.41780 -0.09500
H 	H 	0.06690 0.66160 0.39890 0.06300
C 	C 	0.00450 0.79320 0.37380 0.03300
H 	H 	0.01100 0.79090 0.32420 0.02900
C 	C 	0.96240 0.87350 0.40210 -0.12500
H 	H 	0.94190 0.92560 0.37260 0.08600
C 	C 	0.95180 0.87450 0.47450 0.08200
H 	H 	0.92300 0.92850 0.49360 -0.00500
N 	N 	0.02980 0.66180 0.61430 -0.25000
N 	N 	0.97950 0.80430 0.51840 -0.23500
O 	O 	0.84990 0.92350 0.61858 -0.47400
O 	O 	0.87200 0.99470 0.72797 -0.46000
O 	O 	0.60030 0.24030 0.76534 -0.49600
O 	O 	0.54810 0.33140 0.66993 -0.47000
O 	O 	0.55500 0.45020 0.36761 -0.38200
O 	O 	0.59670 0.41960 0.25871 -0.38200
O 	O 	0.93790 0.11760 0.32323 -0.53800
O 	O 	0.82940 0.13320 0.22470 -0.37100
Mn	Mn	0.48705 0.44586 0.72259 1.30000
Mn	Mn	0.56664 0.29270 0.86906 1.26000
C 	C 	0.66550 0.48970 0.83820 0.38700
C 	C 	0.73280 0.57110 0.86710 -0.11700
C 	C 	0.78540 0.62570 0.82110 0.05700
H 	H 	0.78140 0.61070 0.77180 0.02500
C 	C 	0.84350 0.70210 0.84830 -0.12300
C 	C 	0.84590 0.72620 0.92160 0.00200
H 	H 	0.88430 0.77860 0.93940 0.04500
C 	C 	0.79220 0.67340 0.96910 -0.02000
C 	C 	0.73850 0.59400 0.94030 0.00400
H 	H 	0.70550 0.55510 0.97120 0.04000
C 	C 	0.90320 0.76250 0.80020 0.41200
C 	C 	0.78360 0.76180 0.19170 0.00600
H 	H 	0.78350 0.77920 0.24030 0.05300
C 	C 	0.72310 0.68880 0.16330 -0.08200
C 	C 	0.72500 0.66030 0.09150 -0.03900
H 	H 	0.68200 0.61170 0.07250 0.05000
C 	C 	0.79100 0.70390 0.04730 0.02200
C 	C 	0.84780 0.78000 0.07590 -0.04500
H 	H 	0.88920 0.81220 0.04650 0.06200
C 	C 	0.84600 0.81060 0.14750 -0.05800
C 	C 	0.90150 0.89810 0.17500 0.29500
C 	C 	0.64920 0.64390 0.20860 0.31400
C 	C 	0.43700 0.09650 0.83700 0.10800
H 	H 	0.45360 0.10460 0.78980 -0.01300
C 	C 	0.37960 0.01750 0.85050 -0.18000
H 	H 	0.35690 0.97510 0.81340 0.10400
C 	C 	0.35760 0.00370 0.91840 0.11200
H 	H 	0.32130 0.94960 0.92980 -0.01200
C 	C 	0.38820 0.06850 0.97060 -0.15800
H 	H 	0.37180 0.05980 0.01780 0.08100
C 	C 	0.44350 0.14720 0.95400 0.07300
C 	C 	0.47610 0.22240 0.00720 0.02400
C 	C 	0.46250 0.21540 0.08220 -0.09900
H 	H 	0.43310 0.16160 0.10110 0.06400
C 	C 	0.49550 0.29320 0.12620 0.04300
H 	H 	0.48900 0.29090 0.17580 0.02700
C 	C 	0.53760 0.37350 0.09790 -0.13500
H 	H 	0.55810 0.42560 0.12740 0.08700
C 	C 	0.54820 0.37450 0.02550 0.08400
H 	H 	0.57700 0.42850 0.00640 -0.00700
N 	N 	0.47020 0.16180 0.88570 -0.24900
N 	N 	0.52050 0.30430 0.98160 -0.23700
O 	O 	0.65010 0.42350 0.88142 -0.47500
O 	O 	0.62800 0.49470 0.77203 -0.46100
O 	O 	0.89970 0.74030 0.73466 -0.49500
O 	O 	0.95190 0.83140 0.83007 -0.46800
O 	O 	0.94500 0.95020 0.13239 -0.37900
O 	O 	0.90330 0.91960 0.24129 -0.37900
O 	O 	0.56210 0.61760 0.17677 -0.53500
O 	O 	0.67060 0.63320 0.27530 -0.36900
