data_crystal

_cell_length_a 13.66900
_cell_length_b 15.92500
_cell_length_c 14.63300
_cell_angle_alpha 90.00000
_cell_angle_beta  90.00000
_cell_angle_gamma 90.00000

_symmetry_space_group_name_	'P 1'
_symmetry_space_group_name_H-M	'P 1'

loop_
_symmetry_equiv_pos_as_xyz
  x,y,z

loop_
_atom_site_label
_atom_site_type_symbol
_atom_site_fract_x
_atom_site_fract_y
_atom_site_fract_z
_atom_site_charge
Co	Co	0.20609 0.49710 0.23316 1.18700
Co	Co	0.06400 0.41669 0.03015 1.16500
C 	C 	0.26440 0.39540 0.11120 0.32000
C 	C 	0.29440 0.32840 0.04420 -0.06900
C 	C 	0.28700 0.33490 0.94850 -0.09100
C 	C 	0.24010 0.40780 0.89960 0.35500
C 	C 	0.31790 0.26720 0.89580 0.02300
H 	H 	0.31630 0.27190 0.83250 0.04300
C 	C 	0.35110 0.19250 0.93440 -0.09400
C 	C 	0.37700 0.12270 0.86850 0.37800
C 	C 	0.35430 0.18520 0.02920 -0.09200
C 	C 	0.37420 0.10350 0.07860 0.37900
C 	C 	0.32730 0.25400 0.08280 0.01400
H 	H 	0.33140 0.24980 0.14610 0.03900
O 	O 	0.32650 0.43330 0.15760 -0.34400
O 	O 	0.17330 0.40930 0.12500 -0.51200
O 	O 	0.17020 0.44660 0.93540 -0.44500
O 	O 	0.27290 0.42420 0.82080 -0.41000
O 	O 	0.30900 0.10160 0.81660 -0.42000
O 	O 	0.46170 0.09290 0.86730 -0.45400
O 	O 	0.44280 0.05450 0.05320 -0.52600
O 	O 	0.31690 0.08890 0.14240 -0.44200
Co	Co	0.29391 0.00290 0.73316 1.18500
Co	Co	0.43600 0.08331 0.53015 1.16500
C 	C 	0.23560 0.10460 0.61120 0.32200
C 	C 	0.20560 0.17160 0.54420 -0.07400
C 	C 	0.21300 0.16510 0.44850 -0.08600
C 	C 	0.25990 0.09220 0.39960 0.35400
C 	C 	0.18210 0.23280 0.39580 0.01800
H 	H 	0.18370 0.22810 0.33250 0.04500
C 	C 	0.14890 0.30750 0.43440 -0.08500
C 	C 	0.12300 0.37730 0.36850 0.37600
C 	C 	0.14570 0.31480 0.52920 -0.10100
C 	C 	0.12580 0.39650 0.57860 0.38200
C 	C 	0.17270 0.24600 0.58280 0.01900
H 	H 	0.16860 0.25020 0.64610 0.03700
O 	O 	0.17350 0.06670 0.65760 -0.34500
O 	O 	0.32670 0.09070 0.62500 -0.51200
O 	O 	0.32980 0.05340 0.43540 -0.44500
O 	O 	0.22710 0.07580 0.32080 -0.40800
O 	O 	0.19100 0.39840 0.31660 -0.41900
O 	O 	0.03830 0.40710 0.36730 -0.45200
O 	O 	0.05720 0.44550 0.55320 -0.53200
O 	O 	0.18310 0.41110 0.64240 -0.44600
Co	Co	0.79391 0.49710 0.26684 1.18700
Co	Co	0.93600 0.41669 0.46985 1.16500
C 	C 	0.73560 0.39540 0.38880 0.32200
C 	C 	0.70560 0.32840 0.45580 -0.07400
C 	C 	0.71300 0.33490 0.55150 -0.08700
C 	C 	0.75990 0.40780 0.60040 0.35400
C 	C 	0.68210 0.26720 0.60420 0.01800
H 	H 	0.68370 0.27190 0.66750 0.04500
C 	C 	0.64890 0.19250 0.56560 -0.08500
C 	C 	0.62300 0.12270 0.63150 0.37600
C 	C 	0.64570 0.18520 0.47080 -0.10100
C 	C 	0.62580 0.10350 0.42140 0.38200
C 	C 	0.67270 0.25400 0.41720 0.01900
H 	H 	0.66860 0.24980 0.35390 0.03700
O 	O 	0.67350 0.43330 0.34240 -0.34500
O 	O 	0.82670 0.40930 0.37500 -0.51100
O 	O 	0.82980 0.44660 0.56460 -0.44600
O 	O 	0.72710 0.42420 0.67920 -0.41000
O 	O 	0.69100 0.10160 0.68340 -0.41900
O 	O 	0.53830 0.09290 0.63270 -0.45200
O 	O 	0.55720 0.05450 0.44680 -0.53100
O 	O 	0.68310 0.08890 0.35760 -0.44400
Co	Co	0.70609 0.00290 0.76684 1.18500
Co	Co	0.56400 0.08331 0.96985 1.16000
C 	C 	0.76440 0.10460 0.88880 0.32700
C 	C 	0.79440 0.17160 0.95580 -0.09200
C 	C 	0.78700 0.16510 0.05150 -0.06800
C 	C 	0.74010 0.09220 0.10040 0.34900
C 	C 	0.81790 0.23280 0.10420 0.00500
H 	H 	0.81630 0.22810 0.16750 0.05000
C 	C 	0.85110 0.30750 0.06560 -0.06800
C 	C 	0.87700 0.37730 0.13150 0.37200
C 	C 	0.85430 0.31480 0.97080 -0.11700
C 	C 	0.87420 0.39650 0.92140 0.38700
C 	C 	0.82730 0.24600 0.91720 0.03200
H 	H 	0.83140 0.25020 0.85390 0.03200
O 	O 	0.82650 0.06670 0.84240 -0.34900
O 	O 	0.67330 0.09070 0.87500 -0.51500
O 	O 	0.67020 0.05340 0.06460 -0.43900
O 	O 	0.77290 0.07580 0.17920 -0.40600
O 	O 	0.80900 0.39840 0.18340 -0.41700
O 	O 	0.96170 0.40710 0.13270 -0.44700
O 	O 	0.94280 0.44550 0.94680 -0.53500
O 	O 	0.81690 0.41110 0.85760 -0.44700
Co	Co	0.79391 0.50290 0.76684 1.18600
Co	Co	0.93600 0.58331 0.96985 1.16400
C 	C 	0.73560 0.60460 0.88880 0.32000
C 	C 	0.70560 0.67160 0.95580 -0.06900
C 	C 	0.71300 0.66510 0.05150 -0.09100
C 	C 	0.75990 0.59220 0.10040 0.35500
C 	C 	0.68210 0.73280 0.10420 0.02300
H 	H 	0.68370 0.72810 0.16750 0.04300
C 	C 	0.64890 0.80750 0.06560 -0.09400
C 	C 	0.62300 0.87730 0.13150 0.37800
C 	C 	0.64570 0.81480 0.97080 -0.09200
C 	C 	0.62580 0.89650 0.92140 0.37900
C 	C 	0.67270 0.74600 0.91720 0.01400
H 	H 	0.66860 0.75020 0.85390 0.03900
O 	O 	0.67350 0.56670 0.84240 -0.34400
O 	O 	0.82670 0.59070 0.87500 -0.51200
O 	O 	0.82980 0.55340 0.06460 -0.44500
O 	O 	0.72710 0.57580 0.17920 -0.41000
O 	O 	0.69100 0.89840 0.18340 -0.42000
O 	O 	0.53830 0.90710 0.13270 -0.45400
O 	O 	0.55720 0.94550 0.94680 -0.52600
O 	O 	0.68310 0.91110 0.85760 -0.44200
Co	Co	0.70609 0.99710 0.26684 1.18500
Co	Co	0.56400 0.91669 0.46985 1.16500
C 	C 	0.76440 0.89540 0.38880 0.32200
C 	C 	0.79440 0.82840 0.45580 -0.07400
C 	C 	0.78700 0.83490 0.55150 -0.08600
C 	C 	0.74010 0.90780 0.60040 0.35400
C 	C 	0.81790 0.76720 0.60420 0.01800
H 	H 	0.81630 0.77190 0.66750 0.04500
C 	C 	0.85110 0.69250 0.56560 -0.08500
C 	C 	0.87700 0.62270 0.63150 0.37600
C 	C 	0.85430 0.68520 0.47080 -0.10100
C 	C 	0.87420 0.60350 0.42140 0.38200
C 	C 	0.82730 0.75400 0.41720 0.01900
H 	H 	0.83140 0.74980 0.35390 0.03700
O 	O 	0.82650 0.93330 0.34240 -0.34500
O 	O 	0.67330 0.90930 0.37500 -0.51200
O 	O 	0.67020 0.94660 0.56460 -0.44500
O 	O 	0.77290 0.92420 0.67920 -0.40800
O 	O 	0.80900 0.60160 0.68340 -0.41900
O 	O 	0.96170 0.59290 0.63270 -0.45200
O 	O 	0.94280 0.55450 0.44680 -0.53200
O 	O 	0.81690 0.58890 0.35760 -0.44600
Co	Co	0.20609 0.50290 0.73316 1.18700
Co	Co	0.06400 0.58331 0.53015 1.16500
C 	C 	0.26440 0.60460 0.61120 0.32200
C 	C 	0.29440 0.67160 0.54420 -0.07400
C 	C 	0.28700 0.66510 0.44850 -0.08700
C 	C 	0.24010 0.59220 0.39960 0.35400
C 	C 	0.31790 0.73280 0.39580 0.01800
H 	H 	0.31630 0.72810 0.33250 0.04500
C 	C 	0.35110 0.80750 0.43440 -0.08500
C 	C 	0.37700 0.87730 0.36850 0.37600
C 	C 	0.35430 0.81480 0.52920 -0.10100
C 	C 	0.37420 0.89650 0.57860 0.38200
C 	C 	0.32730 0.74600 0.58280 0.01900
H 	H 	0.33140 0.75020 0.64610 0.03700
O 	O 	0.32650 0.56670 0.65760 -0.34500
O 	O 	0.17330 0.59070 0.62500 -0.51100
O 	O 	0.17020 0.55340 0.43540 -0.44600
O 	O 	0.27290 0.57580 0.32080 -0.41000
O 	O 	0.30900 0.89840 0.31660 -0.41900
O 	O 	0.46170 0.90710 0.36730 -0.45200
O 	O 	0.44280 0.94550 0.55320 -0.53100
O 	O 	0.31690 0.91110 0.64240 -0.44400
Co	Co	0.29391 0.99710 0.23316 1.18500
Co	Co	0.43600 0.91669 0.03015 1.16000
C 	C 	0.23560 0.89540 0.11120 0.32700
C 	C 	0.20560 0.82840 0.04420 -0.09200
C 	C 	0.21300 0.83490 0.94850 -0.06800
C 	C 	0.25990 0.90780 0.89960 0.34900
C 	C 	0.18210 0.76720 0.89580 0.00500
H 	H 	0.18370 0.77190 0.83250 0.05000
C 	C 	0.14890 0.69250 0.93440 -0.06800
C 	C 	0.12300 0.62270 0.86850 0.37200
C 	C 	0.14570 0.68520 0.02920 -0.11700
C 	C 	0.12580 0.60350 0.07860 0.38700
C 	C 	0.17270 0.75400 0.08280 0.03200
H 	H 	0.16860 0.74980 0.14610 0.03200
O 	O 	0.17350 0.93330 0.15760 -0.34900
O 	O 	0.32670 0.90930 0.12500 -0.51500
O 	O 	0.32980 0.94660 0.93540 -0.43900
O 	O 	0.22710 0.92420 0.82080 -0.40600
O 	O 	0.19100 0.60160 0.81660 -0.41700
O 	O 	0.03830 0.59290 0.86730 -0.44700
O 	O 	0.05720 0.55450 0.05320 -0.53500
O 	O 	0.18310 0.58890 0.14240 -0.44700
