data_crystal

_cell_length_a 28.70510
_cell_length_b 28.70510
_cell_length_c 35.19970
_cell_angle_alpha 90.00000
_cell_angle_beta  90.00000
_cell_angle_gamma 120.00000

_symmetry_space_group_name_	'P 1'
_symmetry_space_group_name_H-M	'P 1'

loop_
_symmetry_equiv_pos_as_xyz
  x,y,z

loop_
_atom_site_label
_atom_site_type_symbol
_atom_site_fract_x
_atom_site_fract_y
_atom_site_fract_z
_atom_site_charge
Eu	Eu	0.28334 0.45440 0.47450 1.50500
Eu	Eu	0.14264 0.52303 0.37746 1.50600
Eu	Eu	0.38416 0.49039 0.63594 1.50800
Eu	Eu	0.14887 0.46341 0.20556 1.50600
O 	O 	0.31693 0.47467 0.53936 -0.47600
O 	O 	0.32788 0.51428 0.59606 -0.45600
O 	O 	0.22194 0.47962 0.44556 -0.46600
O 	O 	0.18120 0.52862 0.44167 -0.45800
N 	N 	0.25424 0.50996 0.51469 -0.18200
C 	C 	0.27090 0.52186 0.55091 -0.07600
C 	C 	0.25470 0.55040 0.57469 -0.01500
C 	C 	0.21920 0.56560 0.55982 -0.06800
C 	C 	0.20209 0.55360 0.52240 -0.01300
C 	C 	0.22103 0.52599 0.50052 -0.07500
C 	C 	0.30824 0.50250 0.56356 0.36000
C 	C 	0.20669 0.51088 0.45949 0.35700
O 	O 	0.15591 0.51326 0.31021 -0.46600
O 	O 	0.16422 0.53817 0.24908 -0.45800
O 	O 	0.15667 0.60504 0.40796 -0.47500
O 	O 	0.30955 0.48376 0.40773 -0.45200
N 	N 	0.17021 0.60482 0.33445 -0.18300
C 	C 	0.17755 0.60240 0.29702 -0.07200
C 	C 	0.19580 0.64700 0.27332 -0.01400
C 	C 	0.20510 0.69520 0.28907 -0.06800
C 	C 	0.19640 0.69780 0.32765 -0.01400
C 	C 	0.17929 0.65171 0.34960 -0.07500
C 	C 	0.16515 0.54728 0.28376 0.35800
C 	C 	0.16936 0.64947 0.39157 0.35600
O 	O 	0.29882 0.46413 0.66727 -0.46700
O 	O 	0.48277 0.55330 0.64026 -0.45800
O 	O 	0.42953 0.43821 0.63507 -0.47500
O 	O 	0.07095 0.43515 0.35310 -0.45200
N 	N 	0.33600 0.39850 0.66850 -0.18400
C 	C 	0.28839 0.38049 0.68621 -0.07200
C 	C 	0.26260 0.33210 0.70615 -0.01500
C 	C 	0.28700 0.30090 0.70703 -0.06800
C 	C 	0.33590 0.31840 0.68858 -0.01400
C 	C 	0.35938 0.36760 0.66958 -0.07600
C 	C 	0.26671 0.41868 0.68225 0.35800
C 	C 	0.41200 0.39140 0.64915 0.35400
O 	O 	0.13277 0.52690 0.17040 -0.47600
O 	O 	0.20971 0.42543 0.20825 -0.45100
O 	O 	0.09844 0.36601 0.19847 -0.46700
O 	O 	0.28957 0.37683 0.49964 -0.45800
N 	N 	0.07474 0.42422 0.15503 -0.18300
C 	C 	0.06317 0.45708 0.13484 -0.07400
C 	C 	0.02120 0.43760 0.10825 -0.01400
C 	C 	0.99090 0.38190 0.10286 -0.06900
C 	C 	0.00270 0.34810 0.12360 -0.01000
C 	C 	0.04520 0.37059 0.14926 -0.07400
C 	C 	0.09847 0.51558 0.14397 0.35500
C 	C 	0.06329 0.33901 0.17324 0.35900
H 	H 	0.26838 0.55972 0.60083 0.01700
H 	H 	0.20613 0.58432 0.57607 0.02200
H 	H 	0.17746 0.56452 0.51162 0.00900
H 	H 	0.20170 0.64420 0.24611 0.01000
H 	H 	0.21802 0.72738 0.27307 0.02200
H 	H 	0.20207 0.73135 0.33918 0.01700
H 	H 	0.22821 0.32033 0.71891 0.01000
H 	H 	0.27005 0.26673 0.72091 0.02200
H 	H 	0.35323 0.29643 0.68857 0.01700
H 	H 	0.01356 0.46209 0.09371 0.01700
H 	H 	0.96106 0.36698 0.08461 0.02300
H 	H 	0.98152 0.30893 0.12011 0.00800
Eu	Eu	0.95001 0.78773 0.80783 1.50600
Eu	Eu	0.80931 0.85636 0.71079 1.50700
Eu	Eu	0.05083 0.82372 0.96927 1.50700
Eu	Eu	0.81554 0.79675 0.53890 1.50700
O 	O 	0.98360 0.80800 0.87269 -0.47500
O 	O 	0.99455 0.84761 0.92939 -0.45400
O 	O 	0.88861 0.81295 0.77889 -0.46500
O 	O 	0.84787 0.86195 0.77500 -0.45700
N 	N 	0.92091 0.84329 0.84802 -0.18100
C 	C 	0.93757 0.85519 0.88424 -0.07500
C 	C 	0.92137 0.88373 0.90802 -0.01400
C 	C 	0.88587 0.89893 0.89315 -0.06700
C 	C 	0.86876 0.88693 0.85573 -0.01200
C 	C 	0.88770 0.85932 0.83385 -0.07400
C 	C 	0.97491 0.83583 0.89689 0.36100
C 	C 	0.87336 0.84421 0.79282 0.35800
O 	O 	0.82258 0.84659 0.64354 -0.46500
O 	O 	0.83089 0.87150 0.58241 -0.45700
O 	O 	0.82334 0.93837 0.74129 -0.47400
O 	O 	0.97622 0.81709 0.74106 -0.45100
N 	N 	0.83688 0.93815 0.66778 -0.18200
C 	C 	0.84422 0.93573 0.63035 -0.07100
C 	C 	0.86247 0.98033 0.60665 -0.01300
C 	C 	0.87177 0.02853 0.62240 -0.06700
C 	C 	0.86307 0.03113 0.66098 -0.01300
C 	C 	0.84596 0.98504 0.68293 -0.07400
C 	C 	0.83182 0.88061 0.61709 0.35900
C 	C 	0.83603 0.98280 0.72490 0.35700
O 	O 	0.96549 0.79746 0.00060 -0.46600
O 	O 	0.14944 0.88663 0.97359 -0.45700
O 	O 	0.09620 0.77154 0.96840 -0.47400
O 	O 	0.73762 0.76848 0.68643 -0.45000
N 	N 	0.00267 0.73183 0.00183 -0.18300
C 	C 	0.95506 0.71382 0.01954 -0.07100
C 	C 	0.92927 0.66543 0.03948 -0.01400
C 	C 	0.95367 0.63423 0.04036 -0.06700
C 	C 	0.00257 0.65173 0.02191 -0.01300
C 	C 	0.02605 0.70093 0.00291 -0.07500
C 	C 	0.93338 0.75201 0.01558 0.35900
C 	C 	0.07867 0.72473 0.98248 0.35400
O 	O 	0.79944 0.86023 0.50373 -0.47500
O 	O 	0.87638 0.75876 0.54158 -0.45000
O 	O 	0.76511 0.69934 0.53180 -0.46600
O 	O 	0.95624 0.71016 0.83297 -0.45700
N 	N 	0.74141 0.75755 0.48836 -0.18200
C 	C 	0.72984 0.79041 0.46817 -0.07300
C 	C 	0.68787 0.77093 0.44158 -0.01500
C 	C 	0.65757 0.71523 0.43619 -0.06700
C 	C 	0.66937 0.68143 0.45693 -0.01200
C 	C 	0.71187 0.70392 0.48259 -0.07400
C 	C 	0.76514 0.84891 0.47730 0.35500
C 	C 	0.72996 0.67234 0.50657 0.35900
H 	H 	0.93505 0.89305 0.93416 0.01700
H 	H 	0.87280 0.91765 0.90940 0.02200
H 	H 	0.84413 0.89785 0.84495 0.00900
H 	H 	0.86837 0.97753 0.57944 0.01000
H 	H 	0.88469 0.06071 0.60640 0.02200
H 	H 	0.86874 0.06468 0.67251 0.01700
H 	H 	0.89488 0.65366 0.05224 0.01000
H 	H 	0.93672 0.60006 0.05424 0.02200
H 	H 	0.01990 0.62976 0.02190 0.01700
H 	H 	0.68023 0.79542 0.42704 0.01700
H 	H 	0.62773 0.70031 0.41794 0.02300
H 	H 	0.64819 0.64226 0.45344 0.00900
Eu	Eu	0.61667 0.12107 0.14116 1.50600
Eu	Eu	0.47598 0.18970 0.04413 1.50700
Eu	Eu	0.71749 0.15706 0.30261 1.50900
Eu	Eu	0.48221 0.13008 0.87223 1.50700
O 	O 	0.65026 0.14134 0.20603 -0.47500
O 	O 	0.66121 0.18095 0.26273 -0.45500
O 	O 	0.55527 0.14629 0.11223 -0.46500
O 	O 	0.51453 0.19529 0.10834 -0.45700
N 	N 	0.58757 0.17663 0.18136 -0.18100
C 	C 	0.60423 0.18853 0.21758 -0.07500
C 	C 	0.58803 0.21707 0.24136 -0.01400
C 	C 	0.55253 0.23227 0.22649 -0.06700
C 	C 	0.53542 0.22027 0.18907 -0.01200
C 	C 	0.55436 0.19266 0.16719 -0.07400
C 	C 	0.64157 0.16917 0.23023 0.36100
C 	C 	0.54002 0.17755 0.12616 0.35800
O 	O 	0.48924 0.17993 0.97688 -0.46500
O 	O 	0.49755 0.20484 0.91575 -0.45700
O 	O 	0.49000 0.27171 0.07463 -0.47400
O 	O 	0.64288 0.15043 0.07440 -0.45200
N 	N 	0.50354 0.27149 0.00112 -0.18200
C 	C 	0.51088 0.26907 0.96369 -0.07100
C 	C 	0.52913 0.31367 0.93999 -0.01300
C 	C 	0.53843 0.36187 0.95574 -0.06700
C 	C 	0.52973 0.36447 0.99432 -0.01300
C 	C 	0.51262 0.31838 0.01627 -0.07500
C 	C 	0.49848 0.21395 0.95043 0.35900
C 	C 	0.50269 0.31614 0.05824 0.35700
O 	O 	0.63215 0.13080 0.33394 -0.46600
O 	O 	0.81610 0.21997 0.30693 -0.45700
O 	O 	0.76286 0.10488 0.30174 -0.47400
O 	O 	0.40428 0.10182 0.01977 -0.45100
N 	N 	0.66933 0.06517 0.33517 -0.18300
C 	C 	0.62172 0.04716 0.35288 -0.07100
C 	C 	0.59593 0.99877 0.37282 -0.01400
C 	C 	0.62033 0.96757 0.37370 -0.06700
C 	C 	0.66923 0.98507 0.35525 -0.01300
C 	C 	0.69271 0.03427 0.33625 -0.07500
C 	C 	0.60004 0.08535 0.34892 0.35900
C 	C 	0.74533 0.05807 0.31582 0.35500
O 	O 	0.46610 0.19357 0.83707 -0.47500
O 	O 	0.54304 0.09210 0.87492 -0.45000
O 	O 	0.43177 0.03268 0.86514 -0.46600
O 	O 	0.62290 0.04350 0.16631 -0.45700
N 	N 	0.40807 0.09089 0.82170 -0.18200
C 	C 	0.39650 0.12375 0.80151 -0.07300
C 	C 	0.35453 0.10427 0.77492 -0.01500
C 	C 	0.32423 0.04857 0.76953 -0.06700
C 	C 	0.33603 0.01477 0.79027 -0.01100
C 	C 	0.37853 0.03726 0.81593 -0.07400
C 	C 	0.43180 0.18225 0.81064 0.35500
C 	C 	0.39662 0.00568 0.83991 0.35900
H 	H 	0.60171 0.22639 0.26750 0.01700
H 	H 	0.53946 0.25099 0.24274 0.02200
H 	H 	0.51079 0.23119 0.17829 0.00900
H 	H 	0.53503 0.31087 0.91278 0.01000
H 	H 	0.55135 0.39405 0.93974 0.02200
H 	H 	0.53540 0.39802 0.00585 0.01700
H 	H 	0.56154 0.98700 0.38558 0.01000
H 	H 	0.60338 0.93340 0.38758 0.02200
H 	H 	0.68656 0.96310 0.35524 0.01700
H 	H 	0.34689 0.12876 0.76038 0.01700
H 	H 	0.29439 0.03365 0.75128 0.02300
H 	H 	0.31485 0.97560 0.78678 0.00900
Eu	Eu	0.54560 0.82894 0.47450 1.50600
Eu	Eu	0.47697 0.61961 0.37746 1.50700
Eu	Eu	0.50961 0.89377 0.63594 1.50900
Eu	Eu	0.53659 0.68546 0.20556 1.50700
O 	O 	0.52533 0.84226 0.53936 -0.47500
O 	O 	0.48572 0.81360 0.59606 -0.45500
O 	O 	0.52038 0.74232 0.44556 -0.46500
O 	O 	0.47138 0.65258 0.44167 -0.45700
N 	N 	0.49004 0.74428 0.51469 -0.18100
C 	C 	0.47814 0.74904 0.55091 -0.07500
C 	C 	0.44960 0.70430 0.57469 -0.01400
C 	C 	0.43440 0.65360 0.55982 -0.06700
C 	C 	0.44640 0.64849 0.52240 -0.01200
C 	C 	0.47401 0.69504 0.50052 -0.07400
C 	C 	0.49750 0.80574 0.56356 0.36100
C 	C 	0.48912 0.69581 0.45949 0.35800
O 	O 	0.48674 0.64265 0.31021 -0.46500
O 	O 	0.46183 0.62605 0.24908 -0.45700
O 	O 	0.39496 0.55163 0.40796 -0.47400
O 	O 	0.51624 0.82579 0.40773 -0.45100
N 	N 	0.39518 0.56539 0.33445 -0.18200
C 	C 	0.39760 0.57515 0.29702 -0.07100
C 	C 	0.35300 0.54880 0.27332 -0.01300
C 	C 	0.30480 0.50990 0.28907 -0.06700
C 	C 	0.30220 0.49860 0.32765 -0.01300
C 	C 	0.34829 0.52758 0.34960 -0.07400
C 	C 	0.45272 0.61787 0.28376 0.35900
C 	C 	0.35053 0.51989 0.39157 0.35700
O 	O 	0.53587 0.83469 0.66727 -0.46600
O 	O 	0.44670 0.92947 0.64026 -0.45700
O 	O 	0.56179 0.99132 0.63507 -0.47400
O 	O 	0.56485 0.63580 0.35310 -0.45000
N 	N 	0.60150 0.93750 0.66850 -0.18300
C 	C 	0.61951 0.90790 0.68621 -0.07100
C 	C 	0.66790 0.93050 0.70615 -0.01400
C 	C 	0.69910 0.98610 0.70703 -0.06700
C 	C 	0.68160 0.01750 0.68858 -0.01300
C 	C 	0.63240 0.99178 0.66958 -0.07500
C 	C 	0.58132 0.84803 0.68225 0.35900
C 	C 	0.60860 0.02060 0.64915 0.35500
O 	O 	0.47310 0.60587 0.17040 -0.47500
O 	O 	0.57457 0.78428 0.20825 -0.45000
O 	O 	0.63399 0.73243 0.19847 -0.46600
O 	O 	0.62317 0.91274 0.49964 -0.45700
N 	N 	0.57578 0.65052 0.15503 -0.18200
C 	C 	0.54292 0.60609 0.13484 -0.07300
C 	C 	0.56240 0.58360 0.10825 -0.01500
C 	C 	0.61810 0.60900 0.10286 -0.06700
C 	C 	0.65190 0.65460 0.12360 -0.01100
C 	C 	0.62941 0.67461 0.14926 -0.07400
C 	C 	0.48442 0.58289 0.14397 0.35500
C 	C 	0.66099 0.72428 0.17324 0.35900
H 	H 	0.44028 0.70866 0.60083 0.01700
H 	H 	0.41568 0.62181 0.57607 0.02200
H 	H 	0.43548 0.61294 0.51162 0.00900
H 	H 	0.35580 0.55750 0.24611 0.01000
H 	H 	0.27262 0.49064 0.27307 0.02200
H 	H 	0.26865 0.47072 0.33918 0.01700
H 	H 	0.67967 0.90788 0.71891 0.01000
H 	H 	0.73327 0.00332 0.72091 0.02200
H 	H 	0.70357 0.05680 0.68857 0.01700
H 	H 	0.53791 0.55147 0.09371 0.01700
H 	H 	0.63302 0.59408 0.08461 0.02300
H 	H 	0.69107 0.67259 0.12011 0.00900
Eu	Eu	0.21227 0.16227 0.80783 1.50600
Eu	Eu	0.14364 0.95295 0.71079 1.50700
Eu	Eu	0.17628 0.22710 0.96927 1.50800
Eu	Eu	0.20325 0.01879 0.53890 1.50700
O 	O 	0.19200 0.17559 0.87269 -0.47500
O 	O 	0.15239 0.14693 0.92939 -0.45500
O 	O 	0.18705 0.07565 0.77889 -0.46500
O 	O 	0.13805 0.98591 0.77500 -0.45700
N 	N 	0.15671 0.07761 0.84802 -0.18100
C 	C 	0.14481 0.08237 0.88424 -0.07500
C 	C 	0.11627 0.03763 0.90802 -0.01300
C 	C 	0.10107 0.98693 0.89315 -0.06800
C 	C 	0.11307 0.98182 0.85573 -0.01200
C 	C 	0.14068 0.02837 0.83385 -0.07300
C 	C 	0.16417 0.13907 0.89689 0.36100
C 	C 	0.15579 0.02914 0.79282 0.35900
O 	O 	0.15341 0.97598 0.64354 -0.46500
O 	O 	0.12850 0.95938 0.58241 -0.45700
O 	O 	0.06163 0.88496 0.74129 -0.47400
O 	O 	0.18291 0.15912 0.74106 -0.45100
N 	N 	0.06185 0.89872 0.66778 -0.18200
C 	C 	0.06427 0.90848 0.63035 -0.07100
C 	C 	0.01967 0.88213 0.60665 -0.01400
C 	C 	0.97147 0.84323 0.62240 -0.06700
C 	C 	0.96887 0.83193 0.66098 -0.01300
C 	C 	0.01496 0.86091 0.68293 -0.07500
C 	C 	0.11939 0.95120 0.61709 0.35900
C 	C 	0.01720 0.85322 0.72490 0.35700
O 	O 	0.20254 0.16802 0.00060 -0.46600
O 	O 	0.11337 0.26280 0.97359 -0.45700
O 	O 	0.22846 0.32465 0.96840 -0.47400
O 	O 	0.23152 0.96913 0.68643 -0.45100
N 	N 	0.26817 0.27083 0.00183 -0.18300
C 	C 	0.28618 0.24123 0.01954 -0.07100
C 	C 	0.33457 0.26383 0.03948 -0.01400
C 	C 	0.36577 0.31943 0.04036 -0.06700
C 	C 	0.34827 0.35083 0.02191 -0.01300
C 	C 	0.29907 0.32511 0.00291 -0.07500
C 	C 	0.24799 0.18136 0.01558 0.35900
C 	C 	0.27527 0.35393 0.98248 0.35500
O 	O 	0.13977 0.93920 0.50373 -0.47500
O 	O 	0.24124 0.11761 0.54158 -0.45000
O 	O 	0.30066 0.06576 0.53180 -0.46600
O 	O 	0.28984 0.24607 0.83297 -0.45700
N 	N 	0.24245 0.98385 0.48836 -0.18200
C 	C 	0.20959 0.93942 0.46817 -0.07300
C 	C 	0.22907 0.91693 0.44158 -0.01500
C 	C 	0.28477 0.94233 0.43619 -0.06700
C 	C 	0.31857 0.98793 0.45693 -0.01200
C 	C 	0.29608 0.00794 0.48259 -0.07300
C 	C 	0.15109 0.91622 0.47730 0.35500
C 	C 	0.32766 0.05761 0.50657 0.35900
H 	H 	0.10695 0.04199 0.93416 0.01700
H 	H 	0.08235 0.95514 0.90940 0.02200
H 	H 	0.10215 0.94627 0.84495 0.00900
H 	H 	0.02247 0.89083 0.57944 0.01000
H 	H 	0.93929 0.82397 0.60640 0.02200
H 	H 	0.93532 0.80405 0.67251 0.01700
H 	H 	0.34634 0.24121 0.05224 0.01000
H 	H 	0.39994 0.33665 0.05424 0.02200
H 	H 	0.37024 0.39013 0.02190 0.01700
H 	H 	0.20458 0.88480 0.42704 0.01700
H 	H 	0.29969 0.92741 0.41794 0.02200
H 	H 	0.35774 0.00592 0.45344 0.00900
Eu	Eu	0.87893 0.49561 0.14116 1.50600
Eu	Eu	0.81030 0.28628 0.04413 1.50700
Eu	Eu	0.84294 0.56044 0.30261 1.50900
Eu	Eu	0.86992 0.35213 0.87223 1.50700
O 	O 	0.85866 0.50893 0.20603 -0.47500
O 	O 	0.81905 0.48027 0.26273 -0.45500
O 	O 	0.85371 0.40899 0.11223 -0.46500
O 	O 	0.80471 0.31925 0.10834 -0.45700
N 	N 	0.82337 0.41095 0.18136 -0.18100
C 	C 	0.81147 0.41571 0.21758 -0.07500
C 	C 	0.78293 0.37097 0.24136 -0.01400
C 	C 	0.76773 0.32027 0.22649 -0.06700
C 	C 	0.77973 0.31516 0.18907 -0.01200
C 	C 	0.80734 0.36171 0.16719 -0.07400
C 	C 	0.83083 0.47241 0.23023 0.36100
C 	C 	0.82245 0.36248 0.12616 0.35800
O 	O 	0.82007 0.30932 0.97688 -0.46500
O 	O 	0.79516 0.29272 0.91575 -0.45700
O 	O 	0.72829 0.21830 0.07463 -0.47400
O 	O 	0.84957 0.49246 0.07440 -0.45200
N 	N 	0.72851 0.23206 0.00112 -0.18200
C 	C 	0.73093 0.24182 0.96369 -0.07100
C 	C 	0.68633 0.21547 0.93999 -0.01300
C 	C 	0.63813 0.17657 0.95574 -0.06700
C 	C 	0.63553 0.16527 0.99432 -0.01200
C 	C 	0.68162 0.19425 0.01627 -0.07500
C 	C 	0.78605 0.28454 0.95043 0.35900
C 	C 	0.68386 0.18656 0.05824 0.35700
O 	O 	0.86920 0.50136 0.33394 -0.46600
O 	O 	0.78003 0.59614 0.30693 -0.45700
O 	O 	0.89512 0.65799 0.30174 -0.47400
O 	O 	0.89818 0.30247 0.01977 -0.45100
N 	N 	0.93483 0.60417 0.33517 -0.18300
C 	C 	0.95284 0.57457 0.35288 -0.07100
C 	C 	0.00123 0.59717 0.37282 -0.01400
C 	C 	0.03243 0.65277 0.37370 -0.06700
C 	C 	0.01493 0.68417 0.35525 -0.01300
C 	C 	0.96573 0.65845 0.33625 -0.07500
C 	C 	0.91465 0.51470 0.34892 0.35900
C 	C 	0.94193 0.68727 0.31582 0.35500
O 	O 	0.80643 0.27254 0.83707 -0.47500
O 	O 	0.90790 0.45095 0.87492 -0.45000
O 	O 	0.96732 0.39910 0.86514 -0.46600
O 	O 	0.95650 0.57941 0.16631 -0.45700
N 	N 	0.90911 0.31719 0.82170 -0.18200
C 	C 	0.87625 0.27276 0.80151 -0.07300
C 	C 	0.89573 0.25027 0.77492 -0.01500
C 	C 	0.95143 0.27567 0.76953 -0.06700
C 	C 	0.98523 0.32127 0.79027 -0.01100
C 	C 	0.96274 0.34128 0.81593 -0.07400
C 	C 	0.81775 0.24956 0.81064 0.35500
C 	C 	0.99432 0.39095 0.83991 0.35900
H 	H 	0.77361 0.37533 0.26750 0.01700
H 	H 	0.74901 0.28848 0.24274 0.02200
H 	H 	0.76881 0.27961 0.17829 0.00900
H 	H 	0.68913 0.22417 0.91278 0.01000
H 	H 	0.60595 0.15731 0.93974 0.02200
H 	H 	0.60198 0.13739 0.00585 0.01600
H 	H 	0.01300 0.57455 0.38558 0.01000
H 	H 	0.06660 0.66999 0.38758 0.02200
H 	H 	0.03690 0.72347 0.35524 0.01700
H 	H 	0.87124 0.21814 0.76038 0.01700
H 	H 	0.96635 0.26075 0.75128 0.02200
H 	H 	0.02440 0.33926 0.78678 0.00900
Eu	Eu	0.17106 0.71666 0.47450 1.50600
Eu	Eu	0.38039 0.85736 0.37746 1.50700
Eu	Eu	0.10623 0.61584 0.63594 1.50900
Eu	Eu	0.31454 0.85113 0.20556 1.50700
O 	O 	0.15774 0.68307 0.53936 -0.47500
O 	O 	0.18640 0.67212 0.59606 -0.45500
O 	O 	0.25768 0.77806 0.44556 -0.46500
O 	O 	0.34742 0.81880 0.44167 -0.45700
N 	N 	0.25572 0.74576 0.51469 -0.18100
C 	C 	0.25096 0.72910 0.55091 -0.07500
C 	C 	0.29570 0.74530 0.57469 -0.01400
C 	C 	0.34640 0.78080 0.55982 -0.06700
C 	C 	0.35151 0.79791 0.52240 -0.01200
C 	C 	0.30496 0.77897 0.50052 -0.07400
C 	C 	0.19426 0.69176 0.56356 0.36100
C 	C 	0.30419 0.79331 0.45949 0.35800
O 	O 	0.35735 0.84409 0.31021 -0.46500
O 	O 	0.37395 0.83578 0.24908 -0.45700
O 	O 	0.44837 0.84333 0.40796 -0.47400
O 	O 	0.17421 0.69045 0.40773 -0.45100
N 	N 	0.43461 0.82979 0.33445 -0.18200
C 	C 	0.42485 0.82245 0.29702 -0.07100
C 	C 	0.45120 0.80420 0.27332 -0.01300
C 	C 	0.49010 0.79490 0.28907 -0.06700
C 	C 	0.50140 0.80360 0.32765 -0.01300
C 	C 	0.47242 0.82071 0.34960 -0.07400
C 	C 	0.38213 0.83485 0.28376 0.35900
C 	C 	0.48011 0.83064 0.39157 0.35700
O 	O 	0.16531 0.70118 0.66727 -0.46600
O 	O 	0.07053 0.51723 0.64026 -0.45700
O 	O 	0.00868 0.57047 0.63507 -0.47400
O 	O 	0.36420 0.92905 0.35310 -0.45000
N 	N 	0.06250 0.66400 0.66850 -0.18300
C 	C 	0.09210 0.71161 0.68621 -0.07100
C 	C 	0.06950 0.73740 0.70615 -0.01300
C 	C 	0.01390 0.71300 0.70703 -0.06800
C 	C 	0.98250 0.66410 0.68858 -0.01200
C 	C 	0.00822 0.64062 0.66958 -0.07600
C 	C 	0.15197 0.73329 0.68225 0.35900
C 	C 	0.97940 0.58800 0.64915 0.35500
O 	O 	0.39413 0.86723 0.17040 -0.47500
O 	O 	0.21572 0.79029 0.20825 -0.45000
O 	O 	0.26757 0.90156 0.19847 -0.46600
O 	O 	0.08726 0.71043 0.49964 -0.45700
N 	N 	0.34948 0.92526 0.15503 -0.18200
C 	C 	0.39391 0.93683 0.13484 -0.07300
C 	C 	0.41640 0.97880 0.10825 -0.01400
C 	C 	0.39100 0.00910 0.10286 -0.06800
C 	C 	0.34540 0.99730 0.12360 -0.01100
C 	C 	0.32539 0.95480 0.14926 -0.07400
C 	C 	0.41711 0.90153 0.14397 0.35500
C 	C 	0.27572 0.93671 0.17324 0.35900
H 	H 	0.29134 0.73162 0.60083 0.01700
H 	H 	0.37819 0.79387 0.57607 0.02200
H 	H 	0.38706 0.82254 0.51162 0.00900
H 	H 	0.44250 0.79830 0.24611 0.01000
H 	H 	0.50936 0.78198 0.27307 0.02200
H 	H 	0.52928 0.79793 0.33918 0.01700
H 	H 	0.09212 0.77179 0.71891 0.00900
H 	H 	0.99668 0.72995 0.72091 0.02300
H 	H 	0.94320 0.64677 0.68857 0.01700
H 	H 	0.44853 0.98644 0.09371 0.01700
H 	H 	0.40592 0.03894 0.08461 0.02300
H 	H 	0.32741 0.01848 0.12011 0.00900
Eu	Eu	0.83773 0.04999 0.80783 1.50600
Eu	Eu	0.04705 0.19069 0.71079 1.50700
Eu	Eu	0.77290 0.94917 0.96927 1.50800
Eu	Eu	0.98121 0.18446 0.53890 1.50600
O 	O 	0.82441 0.01640 0.87269 -0.47500
O 	O 	0.85307 0.00545 0.92939 -0.45500
O 	O 	0.92435 0.11139 0.77889 -0.46500
O 	O 	0.01409 0.15213 0.77500 -0.45700
N 	N 	0.92239 0.07909 0.84802 -0.18100
C 	C 	0.91763 0.06243 0.88424 -0.07500
C 	C 	0.96237 0.07863 0.90802 -0.01400
C 	C 	0.01307 0.11413 0.89315 -0.06700
C 	C 	0.01818 0.13124 0.85573 -0.01200
C 	C 	0.97163 0.11230 0.83385 -0.07400
C 	C 	0.86093 0.02509 0.89689 0.36100
C 	C 	0.97086 0.12664 0.79282 0.35800
O 	O 	0.02402 0.17742 0.64354 -0.46500
O 	O 	0.04062 0.16911 0.58241 -0.45700
O 	O 	0.11504 0.17666 0.74129 -0.47400
O 	O 	0.84088 0.02378 0.74106 -0.45200
N 	N 	0.10128 0.16312 0.66778 -0.18200
C 	C 	0.09152 0.15578 0.63035 -0.07100
C 	C 	0.11787 0.13753 0.60665 -0.01300
C 	C 	0.15677 0.12823 0.62240 -0.06700
C 	C 	0.16807 0.13693 0.66098 -0.01300
C 	C 	0.13909 0.15404 0.68293 -0.07400
C 	C 	0.04880 0.16818 0.61709 0.35900
C 	C 	0.14678 0.16397 0.72490 0.35700
O 	O 	0.83198 0.03451 0.00060 -0.46600
O 	O 	0.73720 0.85056 0.97359 -0.45700
O 	O 	0.67535 0.90380 0.96840 -0.47400
O 	O 	0.03087 0.26238 0.68643 -0.45100
N 	N 	0.72917 0.99733 0.00183 -0.18300
C 	C 	0.75877 0.04494 0.01954 -0.07100
C 	C 	0.73617 0.07073 0.03948 -0.01400
C 	C 	0.68057 0.04633 0.04036 -0.06800
C 	C 	0.64917 0.99743 0.02191 -0.01300
C 	C 	0.67489 0.97395 0.00291 -0.07500
C 	C 	0.81864 0.06662 0.01558 0.35900
C 	C 	0.64607 0.92133 0.98248 0.35500
O 	O 	0.06080 0.20056 0.50373 -0.47500
O 	O 	0.88239 0.12362 0.54158 -0.45000
O 	O 	0.93424 0.23489 0.53180 -0.46600
O 	O 	0.75393 0.04376 0.83297 -0.45700
N 	N 	0.01615 0.25859 0.48836 -0.18200
C 	C 	0.06058 0.27016 0.46817 -0.07300
C 	C 	0.08307 0.31213 0.44158 -0.01500
C 	C 	0.05767 0.34243 0.43619 -0.06700
C 	C 	0.01207 0.33063 0.45693 -0.01100
C 	C 	0.99206 0.28813 0.48259 -0.07400
C 	C 	0.08378 0.23486 0.47730 0.35500
C 	C 	0.94239 0.27004 0.50657 0.35900
H 	H 	0.95801 0.06495 0.93416 0.01700
H 	H 	0.04486 0.12720 0.90940 0.02200
H 	H 	0.05373 0.15587 0.84495 0.00900
H 	H 	0.10917 0.13163 0.57944 0.01000
H 	H 	0.17603 0.11531 0.60640 0.02200
H 	H 	0.19595 0.13126 0.67251 0.01700
H 	H 	0.75879 0.10512 0.05224 0.00900
H 	H 	0.66335 0.06328 0.05424 0.02300
H 	H 	0.60987 0.98010 0.02190 0.01700
H 	H 	0.11520 0.31977 0.42704 0.01700
H 	H 	0.07259 0.37227 0.41794 0.02300
H 	H 	0.99408 0.35181 0.45344 0.00900
Eu	Eu	0.50439 0.38333 0.14116 1.50600
Eu	Eu	0.71372 0.52402 0.04413 1.50700
Eu	Eu	0.43956 0.28251 0.30261 1.50900
Eu	Eu	0.64787 0.51779 0.87223 1.50700
O 	O 	0.49107 0.34974 0.20603 -0.47500
O 	O 	0.51973 0.33879 0.26273 -0.45500
O 	O 	0.59101 0.44473 0.11223 -0.46500
O 	O 	0.68075 0.48547 0.10834 -0.45700
N 	N 	0.58905 0.41243 0.18136 -0.18100
C 	C 	0.58429 0.39577 0.21758 -0.07500
C 	C 	0.62903 0.41197 0.24136 -0.01400
C 	C 	0.67973 0.44747 0.22649 -0.06700
C 	C 	0.68484 0.46458 0.18907 -0.01200
C 	C 	0.63829 0.44564 0.16719 -0.07400
C 	C 	0.52759 0.35843 0.23023 0.36100
C 	C 	0.63752 0.45998 0.12616 0.35800
O 	O 	0.69068 0.51076 0.97688 -0.46500
O 	O 	0.70728 0.50245 0.91575 -0.45700
O 	O 	0.78170 0.51000 0.07463 -0.47400
O 	O 	0.50754 0.35712 0.07440 -0.45200
N 	N 	0.76794 0.49646 0.00112 -0.18200
C 	C 	0.75818 0.48912 0.96369 -0.07100
C 	C 	0.78453 0.47087 0.93999 -0.01300
C 	C 	0.82343 0.46157 0.95574 -0.06700
C 	C 	0.83473 0.47027 0.99432 -0.01200
C 	C 	0.80575 0.48738 0.01627 -0.07500
C 	C 	0.71546 0.50152 0.95043 0.35900
C 	C 	0.81344 0.49731 0.05824 0.35700
O 	O 	0.49864 0.36785 0.33394 -0.46600
O 	O 	0.40386 0.18390 0.30693 -0.45700
O 	O 	0.34201 0.23714 0.30174 -0.47400
O 	O 	0.69753 0.59572 0.01977 -0.45000
N 	N 	0.39583 0.33067 0.33517 -0.18300
C 	C 	0.42543 0.37828 0.35288 -0.07100
C 	C 	0.40283 0.40407 0.37282 -0.01400
C 	C 	0.34723 0.37967 0.37370 -0.06700
C 	C 	0.31583 0.33077 0.35525 -0.01300
C 	C 	0.34155 0.30729 0.33625 -0.07500
C 	C 	0.48530 0.39996 0.34892 0.35900
C 	C 	0.31273 0.25467 0.31582 0.35500
O 	O 	0.72746 0.53390 0.83707 -0.47500
O 	O 	0.54905 0.45696 0.87492 -0.45000
O 	O 	0.60090 0.56823 0.86514 -0.46600
O 	O 	0.42059 0.37710 0.16631 -0.45700
N 	N 	0.68281 0.59193 0.82170 -0.18200
C 	C 	0.72724 0.60350 0.80151 -0.07300
C 	C 	0.74973 0.64547 0.77492 -0.01500
C 	C 	0.72433 0.67577 0.76953 -0.06700
C 	C 	0.67873 0.66397 0.79027 -0.01100
C 	C 	0.65872 0.62147 0.81593 -0.07400
C 	C 	0.75044 0.56820 0.81064 0.35500
C 	C 	0.60905 0.60338 0.83991 0.35900
H 	H 	0.62467 0.39829 0.26750 0.01700
H 	H 	0.71152 0.46054 0.24274 0.02200
H 	H 	0.72039 0.48921 0.17829 0.00900
H 	H 	0.77583 0.46497 0.91278 0.01000
H 	H 	0.84269 0.44865 0.93974 0.02200
H 	H 	0.86261 0.46460 0.00585 0.01600
H 	H 	0.42545 0.43846 0.38558 0.01000
H 	H 	0.33001 0.39662 0.38758 0.02200
H 	H 	0.27653 0.31344 0.35524 0.01700
H 	H 	0.78186 0.65311 0.76038 0.01700
H 	H 	0.73925 0.70561 0.75128 0.02300
H 	H 	0.66074 0.68515 0.78678 0.00900
Eu	Eu	0.71666 0.54560 0.52550 1.50600
Eu	Eu	0.85736 0.47697 0.62254 1.50700
Eu	Eu	0.61584 0.50961 0.36406 1.50900
Eu	Eu	0.85113 0.53659 0.79444 1.50700
O 	O 	0.68307 0.52533 0.46064 -0.47500
O 	O 	0.67212 0.48572 0.40394 -0.45500
O 	O 	0.77806 0.52038 0.55444 -0.46500
O 	O 	0.81880 0.47138 0.55833 -0.45700
N 	N 	0.74576 0.49004 0.48531 -0.18100
C 	C 	0.72910 0.47814 0.44909 -0.07500
C 	C 	0.74530 0.44960 0.42531 -0.01400
C 	C 	0.78080 0.43440 0.44018 -0.06700
C 	C 	0.79791 0.44640 0.47760 -0.01200
C 	C 	0.77897 0.47401 0.49948 -0.07400
C 	C 	0.69176 0.49750 0.43644 0.36100
C 	C 	0.79331 0.48912 0.54051 0.35800
O 	O 	0.84409 0.48674 0.68979 -0.46500
O 	O 	0.83578 0.46183 0.75092 -0.45700
O 	O 	0.84333 0.39496 0.59204 -0.47400
O 	O 	0.69045 0.51624 0.59227 -0.45100
N 	N 	0.82979 0.39518 0.66555 -0.18200
C 	C 	0.82245 0.39760 0.70298 -0.07100
C 	C 	0.80420 0.35300 0.72668 -0.01300
C 	C 	0.79490 0.30480 0.71093 -0.06700
C 	C 	0.80360 0.30220 0.67235 -0.01300
C 	C 	0.82071 0.34829 0.65040 -0.07400
C 	C 	0.83485 0.45272 0.71624 0.35900
C 	C 	0.83064 0.35053 0.60843 0.35700
O 	O 	0.70118 0.53587 0.33273 -0.46600
O 	O 	0.51723 0.44670 0.35974 -0.45700
O 	O 	0.57047 0.56179 0.36493 -0.47400
O 	O 	0.92905 0.56485 0.64690 -0.45100
N 	N 	0.66400 0.60150 0.33150 -0.18300
C 	C 	0.71161 0.61951 0.31379 -0.07100
C 	C 	0.73740 0.66790 0.29385 -0.01400
C 	C 	0.71300 0.69910 0.29297 -0.06700
C 	C 	0.66410 0.68160 0.31142 -0.01300
C 	C 	0.64062 0.63240 0.33042 -0.07500
C 	C 	0.73329 0.58132 0.31775 0.35900
C 	C 	0.58800 0.60860 0.35085 0.35500
O 	O 	0.86723 0.47310 0.82960 -0.47500
O 	O 	0.79029 0.57457 0.79175 -0.45000
O 	O 	0.90156 0.63399 0.80153 -0.46600
O 	O 	0.71043 0.62317 0.50036 -0.45700
N 	N 	0.92526 0.57578 0.84497 -0.18200
C 	C 	0.93683 0.54292 0.86516 -0.07300
C 	C 	0.97880 0.56240 0.89175 -0.01400
C 	C 	0.00910 0.61810 0.89714 -0.06900
C 	C 	0.99730 0.65190 0.87640 -0.01000
C 	C 	0.95480 0.62941 0.85074 -0.07400
C 	C 	0.90153 0.48442 0.85603 0.35500
C 	C 	0.93671 0.66099 0.82676 0.35900
H 	H 	0.73162 0.44028 0.39917 0.01700
H 	H 	0.79387 0.41568 0.42393 0.02200
H 	H 	0.82254 0.43548 0.48838 0.00900
H 	H 	0.79830 0.35580 0.75389 0.01000
H 	H 	0.78198 0.27262 0.72693 0.02200
H 	H 	0.79793 0.26865 0.66082 0.01700
H 	H 	0.77179 0.67967 0.28109 0.01000
H 	H 	0.72995 0.73327 0.27909 0.02200
H 	H 	0.64677 0.70357 0.31143 0.01700
H 	H 	0.98644 0.53791 0.90629 0.01700
H 	H 	0.03894 0.63302 0.91539 0.02300
H 	H 	0.01848 0.69107 0.87989 0.00800
Eu	Eu	0.38333 0.87893 0.85884 1.50600
Eu	Eu	0.52402 0.81030 0.95587 1.50700
Eu	Eu	0.28251 0.84294 0.69739 1.50900
Eu	Eu	0.51779 0.86992 0.12777 1.50700
O 	O 	0.34974 0.85866 0.79397 -0.47500
O 	O 	0.33879 0.81905 0.73727 -0.45500
O 	O 	0.44473 0.85371 0.88777 -0.46500
O 	O 	0.48547 0.80471 0.89166 -0.45700
N 	N 	0.41243 0.82337 0.81864 -0.18100
C 	C 	0.39577 0.81147 0.78242 -0.07500
C 	C 	0.41197 0.78293 0.75864 -0.01400
C 	C 	0.44747 0.76773 0.77351 -0.06700
C 	C 	0.46458 0.77973 0.81093 -0.01200
C 	C 	0.44564 0.80734 0.83281 -0.07400
C 	C 	0.35843 0.83083 0.76977 0.36100
C 	C 	0.45998 0.82245 0.87384 0.35800
O 	O 	0.51076 0.82007 0.02312 -0.46500
O 	O 	0.50245 0.79516 0.08425 -0.45700
O 	O 	0.51000 0.72829 0.92537 -0.47400
O 	O 	0.35712 0.84957 0.92560 -0.45200
N 	N 	0.49646 0.72851 0.99888 -0.18200
C 	C 	0.48912 0.73093 0.03631 -0.07100
C 	C 	0.47087 0.68633 0.06001 -0.01300
C 	C 	0.46157 0.63813 0.04426 -0.06700
C 	C 	0.47027 0.63553 0.00568 -0.01300
C 	C 	0.48738 0.68162 0.98373 -0.07500
C 	C 	0.50152 0.78605 0.04957 0.35900
C 	C 	0.49731 0.68386 0.94176 0.35700
O 	O 	0.36785 0.86920 0.66606 -0.46600
O 	O 	0.18390 0.78003 0.69307 -0.45700
O 	O 	0.23714 0.89512 0.69826 -0.47400
O 	O 	0.59572 0.89818 0.98023 -0.45100
N 	N 	0.33067 0.93483 0.66483 -0.18300
C 	C 	0.37828 0.95284 0.64712 -0.07100
C 	C 	0.40407 0.00123 0.62718 -0.01400
C 	C 	0.37967 0.03243 0.62630 -0.06700
C 	C 	0.33077 0.01493 0.64475 -0.01300
C 	C 	0.30729 0.96573 0.66375 -0.07500
C 	C 	0.39996 0.91465 0.65108 0.35900
C 	C 	0.25467 0.94193 0.68418 0.35500
O 	O 	0.53390 0.80643 0.16293 -0.47500
O 	O 	0.45696 0.90790 0.12508 -0.45000
O 	O 	0.56823 0.96732 0.13486 -0.46600
O 	O 	0.37710 0.95650 0.83369 -0.45700
N 	N 	0.59193 0.90911 0.17830 -0.18200
C 	C 	0.60350 0.87625 0.19849 -0.07300
C 	C 	0.64547 0.89573 0.22508 -0.01500
C 	C 	0.67577 0.95143 0.23047 -0.06700
C 	C 	0.66397 0.98523 0.20973 -0.01100
C 	C 	0.62147 0.96274 0.18407 -0.07400
C 	C 	0.56820 0.81775 0.18936 0.35500
C 	C 	0.60338 0.99432 0.16009 0.35900
H 	H 	0.39829 0.77361 0.73250 0.01700
H 	H 	0.46054 0.74901 0.75726 0.02200
H 	H 	0.48921 0.76881 0.82171 0.00900
H 	H 	0.46497 0.68913 0.08722 0.01000
H 	H 	0.44865 0.60595 0.06026 0.02200
H 	H 	0.46460 0.60198 0.99415 0.01700
H 	H 	0.43846 0.01300 0.61442 0.01000
H 	H 	0.39662 0.06660 0.61242 0.02200
H 	H 	0.31344 0.03690 0.64476 0.01700
H 	H 	0.65311 0.87124 0.23962 0.01700
H 	H 	0.70561 0.96635 0.24872 0.02300
H 	H 	0.68515 0.02440 0.21322 0.00900
Eu	Eu	0.04999 0.21227 0.19217 1.50600
Eu	Eu	0.19069 0.14364 0.28921 1.50700
Eu	Eu	0.94917 0.17628 0.03073 1.50700
Eu	Eu	0.18446 0.20325 0.46110 1.50700
O 	O 	0.01640 0.19200 0.12731 -0.47500
O 	O 	0.00545 0.15239 0.07061 -0.45400
O 	O 	0.11139 0.18705 0.22111 -0.46500
O 	O 	0.15213 0.13805 0.22500 -0.45700
N 	N 	0.07909 0.15671 0.15198 -0.18100
C 	C 	0.06243 0.14481 0.11576 -0.07500
C 	C 	0.07863 0.11627 0.09198 -0.01400
C 	C 	0.11413 0.10107 0.10685 -0.06700
C 	C 	0.13124 0.11307 0.14427 -0.01200
C 	C 	0.11230 0.14068 0.16615 -0.07400
C 	C 	0.02509 0.16417 0.10311 0.36100
C 	C 	0.12664 0.15579 0.20718 0.35800
O 	O 	0.17742 0.15341 0.35646 -0.46500
O 	O 	0.16911 0.12850 0.41759 -0.45700
O 	O 	0.17666 0.06163 0.25871 -0.47400
O 	O 	0.02378 0.18291 0.25894 -0.45100
N 	N 	0.16312 0.06185 0.33222 -0.18200
C 	C 	0.15578 0.06427 0.36965 -0.07100
C 	C 	0.13753 0.01967 0.39335 -0.01300
C 	C 	0.12823 0.97147 0.37760 -0.06700
C 	C 	0.13693 0.96887 0.33902 -0.01300
C 	C 	0.15404 0.01496 0.31707 -0.07400
C 	C 	0.16818 0.11939 0.38291 0.35900
C 	C 	0.16397 0.01720 0.27510 0.35700
O 	O 	0.03451 0.20254 0.99940 -0.46600
O 	O 	0.85056 0.11337 0.02641 -0.45700
O 	O 	0.90380 0.22846 0.03160 -0.47400
O 	O 	0.26238 0.23152 0.31357 -0.45000
N 	N 	0.99733 0.26817 0.99817 -0.18300
C 	C 	0.04494 0.28618 0.98046 -0.07100
C 	C 	0.07073 0.33457 0.96052 -0.01400
C 	C 	0.04633 0.36577 0.95964 -0.06700
C 	C 	0.99743 0.34827 0.97809 -0.01300
C 	C 	0.97395 0.29907 0.99709 -0.07500
C 	C 	0.06662 0.24799 0.98442 0.35900
C 	C 	0.92133 0.27527 0.01752 0.35400
O 	O 	0.20056 0.13977 0.49627 -0.47500
O 	O 	0.12362 0.24124 0.45842 -0.45000
O 	O 	0.23489 0.30066 0.46820 -0.46600
O 	O 	0.04376 0.28984 0.16703 -0.45700
N 	N 	0.25859 0.24245 0.51164 -0.18200
C 	C 	0.27016 0.20959 0.53183 -0.07300
C 	C 	0.31213 0.22907 0.55842 -0.01500
C 	C 	0.34243 0.28477 0.56381 -0.06700
C 	C 	0.33063 0.31857 0.54307 -0.01200
C 	C 	0.28813 0.29608 0.51741 -0.07400
C 	C 	0.23486 0.15109 0.52270 0.35500
C 	C 	0.27004 0.32766 0.49343 0.35900
H 	H 	0.06495 0.10695 0.06584 0.01700
H 	H 	0.12720 0.08235 0.09060 0.02200
H 	H 	0.15587 0.10215 0.15505 0.00900
H 	H 	0.13163 0.02247 0.42056 0.01000
H 	H 	0.11531 0.93929 0.39360 0.02200
H 	H 	0.13126 0.93532 0.32749 0.01700
H 	H 	0.10512 0.34634 0.94776 0.01000
H 	H 	0.06328 0.39994 0.94576 0.02200
H 	H 	0.98010 0.37024 0.97810 0.01700
H 	H 	0.31977 0.20458 0.57296 0.01700
H 	H 	0.37227 0.29969 0.58206 0.02300
H 	H 	0.35181 0.35774 0.54656 0.00900
Eu	Eu	0.45440 0.17106 0.52550 1.50600
Eu	Eu	0.52303 0.38039 0.62254 1.50700
Eu	Eu	0.49039 0.10623 0.36406 1.50900
Eu	Eu	0.46341 0.31454 0.79444 1.50700
O 	O 	0.47467 0.15774 0.46064 -0.47500
O 	O 	0.51428 0.18640 0.40394 -0.45500
O 	O 	0.47962 0.25768 0.55444 -0.46500
O 	O 	0.52862 0.34742 0.55833 -0.45700
N 	N 	0.50996 0.25572 0.48531 -0.18100
C 	C 	0.52186 0.25096 0.44909 -0.07500
C 	C 	0.55040 0.29570 0.42531 -0.01400
C 	C 	0.56560 0.34640 0.44018 -0.06700
C 	C 	0.55360 0.35151 0.47760 -0.01200
C 	C 	0.52599 0.30496 0.49948 -0.07400
C 	C 	0.50250 0.19426 0.43644 0.36100
C 	C 	0.51088 0.30419 0.54051 0.35800
O 	O 	0.51326 0.35735 0.68979 -0.46500
O 	O 	0.53817 0.37395 0.75092 -0.45700
O 	O 	0.60504 0.44837 0.59204 -0.47400
O 	O 	0.48376 0.17421 0.59227 -0.45100
N 	N 	0.60482 0.43461 0.66555 -0.18200
C 	C 	0.60240 0.42485 0.70298 -0.07100
C 	C 	0.64700 0.45120 0.72668 -0.01300
C 	C 	0.69520 0.49010 0.71093 -0.06700
C 	C 	0.69780 0.50140 0.67235 -0.01300
C 	C 	0.65171 0.47242 0.65040 -0.07400
C 	C 	0.54728 0.38213 0.71624 0.35900
C 	C 	0.64947 0.48011 0.60843 0.35700
O 	O 	0.46413 0.16531 0.33273 -0.46600
O 	O 	0.55330 0.07053 0.35974 -0.45700
O 	O 	0.43821 0.00868 0.36493 -0.47400
O 	O 	0.43515 0.36420 0.64690 -0.45000
N 	N 	0.39850 0.06250 0.33150 -0.18300
C 	C 	0.38049 0.09210 0.31379 -0.07100
C 	C 	0.33210 0.06950 0.29385 -0.01400
C 	C 	0.30090 0.01390 0.29297 -0.06700
C 	C 	0.31840 0.98250 0.31142 -0.01300
C 	C 	0.36760 0.00822 0.33042 -0.07500
C 	C 	0.41868 0.15197 0.31775 0.35900
C 	C 	0.39140 0.97940 0.35085 0.35500
O 	O 	0.52690 0.39413 0.82960 -0.47500
O 	O 	0.42543 0.21572 0.79175 -0.45000
O 	O 	0.36601 0.26757 0.80153 -0.46600
O 	O 	0.37683 0.08726 0.50036 -0.45700
N 	N 	0.42422 0.34948 0.84497 -0.18200
C 	C 	0.45708 0.39391 0.86516 -0.07300
C 	C 	0.43760 0.41640 0.89175 -0.01500
C 	C 	0.38190 0.39100 0.89714 -0.06700
C 	C 	0.34810 0.34540 0.87640 -0.01100
C 	C 	0.37059 0.32539 0.85074 -0.07400
C 	C 	0.51558 0.41711 0.85603 0.35500
C 	C 	0.33901 0.27572 0.82676 0.35900
H 	H 	0.55972 0.29134 0.39917 0.01700
H 	H 	0.58432 0.37819 0.42393 0.02200
H 	H 	0.56452 0.38706 0.48838 0.00900
H 	H 	0.64420 0.44250 0.75389 0.01000
H 	H 	0.72738 0.50936 0.72693 0.02200
H 	H 	0.73135 0.52928 0.66082 0.01700
H 	H 	0.32033 0.09212 0.28109 0.01000
H 	H 	0.26673 0.99668 0.27909 0.02200
H 	H 	0.29643 0.94320 0.31143 0.01700
H 	H 	0.46209 0.44853 0.90629 0.01700
H 	H 	0.36698 0.40592 0.91539 0.02300
H 	H 	0.30893 0.32741 0.87989 0.00900
Eu	Eu	0.12107 0.50439 0.85884 1.50600
Eu	Eu	0.18970 0.71372 0.95587 1.50700
Eu	Eu	0.15706 0.43956 0.69739 1.50900
Eu	Eu	0.13008 0.64787 0.12777 1.50700
O 	O 	0.14134 0.49107 0.79397 -0.47500
O 	O 	0.18095 0.51973 0.73727 -0.45500
O 	O 	0.14629 0.59101 0.88777 -0.46500
O 	O 	0.19529 0.68075 0.89166 -0.45700
N 	N 	0.17663 0.58905 0.81864 -0.18100
C 	C 	0.18853 0.58429 0.78242 -0.07500
C 	C 	0.21707 0.62903 0.75864 -0.01400
C 	C 	0.23227 0.67973 0.77351 -0.06700
C 	C 	0.22027 0.68484 0.81093 -0.01200
C 	C 	0.19266 0.63829 0.83281 -0.07400
C 	C 	0.16917 0.52759 0.76977 0.36100
C 	C 	0.17755 0.63752 0.87384 0.35800
O 	O 	0.17993 0.69068 0.02312 -0.46500
O 	O 	0.20484 0.70728 0.08425 -0.45700
O 	O 	0.27171 0.78170 0.92537 -0.47400
O 	O 	0.15043 0.50754 0.92560 -0.45200
N 	N 	0.27149 0.76794 0.99888 -0.18200
C 	C 	0.26907 0.75818 0.03631 -0.07100
C 	C 	0.31367 0.78453 0.06001 -0.01300
C 	C 	0.36187 0.82343 0.04426 -0.06700
C 	C 	0.36447 0.83473 0.00568 -0.01200
C 	C 	0.31838 0.80575 0.98373 -0.07500
C 	C 	0.21395 0.71546 0.04957 0.35900
C 	C 	0.31614 0.81344 0.94176 0.35700
O 	O 	0.13080 0.49864 0.66606 -0.46600
O 	O 	0.21997 0.40386 0.69307 -0.45700
O 	O 	0.10488 0.34201 0.69826 -0.47400
O 	O 	0.10182 0.69753 0.98023 -0.45100
N 	N 	0.06517 0.39583 0.66483 -0.18300
C 	C 	0.04716 0.42543 0.64712 -0.07100
C 	C 	0.99877 0.40283 0.62718 -0.01400
C 	C 	0.96757 0.34723 0.62630 -0.06700
C 	C 	0.98507 0.31583 0.64475 -0.01300
C 	C 	0.03427 0.34155 0.66375 -0.07500
C 	C 	0.08535 0.48530 0.65108 0.35900
C 	C 	0.05807 0.31273 0.68418 0.35500
O 	O 	0.19357 0.72746 0.16293 -0.47500
O 	O 	0.09210 0.54905 0.12508 -0.45000
O 	O 	0.03268 0.60090 0.13486 -0.46600
O 	O 	0.04350 0.42059 0.83369 -0.45700
N 	N 	0.09089 0.68281 0.17830 -0.18200
C 	C 	0.12375 0.72724 0.19849 -0.07300
C 	C 	0.10427 0.74973 0.22508 -0.01500
C 	C 	0.04857 0.72433 0.23047 -0.06700
C 	C 	0.01477 0.67873 0.20973 -0.01100
C 	C 	0.03726 0.65872 0.18407 -0.07400
C 	C 	0.18225 0.75044 0.18936 0.35500
C 	C 	0.00568 0.60905 0.16009 0.35900
H 	H 	0.22639 0.62467 0.73250 0.01700
H 	H 	0.25099 0.71152 0.75726 0.02200
H 	H 	0.23119 0.72039 0.82171 0.00900
H 	H 	0.31087 0.77583 0.08722 0.01000
H 	H 	0.39405 0.84269 0.06026 0.02200
H 	H 	0.39802 0.86261 0.99415 0.01600
H 	H 	0.98700 0.42545 0.61442 0.01000
H 	H 	0.93340 0.33001 0.61242 0.02200
H 	H 	0.96310 0.27653 0.64476 0.01700
H 	H 	0.12876 0.78186 0.23962 0.01700
H 	H 	0.03365 0.73925 0.24872 0.02200
H 	H 	0.97560 0.66074 0.21322 0.00900
Eu	Eu	0.78773 0.83773 0.19217 1.50600
Eu	Eu	0.85636 0.04705 0.28921 1.50700
Eu	Eu	0.82372 0.77290 0.03073 1.50800
Eu	Eu	0.79675 0.98121 0.46110 1.50700
O 	O 	0.80800 0.82441 0.12731 -0.47500
O 	O 	0.84761 0.85307 0.07061 -0.45500
O 	O 	0.81295 0.92435 0.22111 -0.46500
O 	O 	0.86195 0.01409 0.22500 -0.45700
N 	N 	0.84329 0.92239 0.15198 -0.18100
C 	C 	0.85519 0.91763 0.11576 -0.07500
C 	C 	0.88373 0.96237 0.09198 -0.01300
C 	C 	0.89893 0.01307 0.10685 -0.06800
C 	C 	0.88693 0.01818 0.14427 -0.01200
C 	C 	0.85932 0.97163 0.16615 -0.07300
C 	C 	0.83583 0.86093 0.10311 0.36100
C 	C 	0.84421 0.97086 0.20718 0.35900
O 	O 	0.84659 0.02402 0.35646 -0.46500
O 	O 	0.87150 0.04062 0.41759 -0.45700
O 	O 	0.93837 0.11504 0.25871 -0.47400
O 	O 	0.81709 0.84088 0.25894 -0.45100
N 	N 	0.93815 0.10128 0.33222 -0.18200
C 	C 	0.93573 0.09152 0.36965 -0.07100
C 	C 	0.98033 0.11787 0.39335 -0.01400
C 	C 	0.02853 0.15677 0.37760 -0.06700
C 	C 	0.03113 0.16807 0.33902 -0.01300
C 	C 	0.98504 0.13909 0.31707 -0.07500
C 	C 	0.88061 0.04880 0.38291 0.35900
C 	C 	0.98280 0.14678 0.27510 0.35700
O 	O 	0.79746 0.83198 0.99940 -0.46600
O 	O 	0.88663 0.73720 0.02641 -0.45700
O 	O 	0.77154 0.67535 0.03160 -0.47400
O 	O 	0.76848 0.03087 0.31357 -0.45100
N 	N 	0.73183 0.72917 0.99817 -0.18300
C 	C 	0.71382 0.75877 0.98046 -0.07100
C 	C 	0.66543 0.73617 0.96052 -0.01400
C 	C 	0.63423 0.68057 0.95964 -0.06700
C 	C 	0.65173 0.64917 0.97809 -0.01300
C 	C 	0.70093 0.67489 0.99709 -0.07500
C 	C 	0.75201 0.81864 0.98442 0.35900
C 	C 	0.72473 0.64607 0.01752 0.35500
O 	O 	0.86023 0.06080 0.49627 -0.47500
O 	O 	0.75876 0.88239 0.45842 -0.45000
O 	O 	0.69934 0.93424 0.46820 -0.46600
O 	O 	0.71016 0.75393 0.16703 -0.45700
N 	N 	0.75755 0.01615 0.51164 -0.18200
C 	C 	0.79041 0.06058 0.53183 -0.07300
C 	C 	0.77093 0.08307 0.55842 -0.01500
C 	C 	0.71523 0.05767 0.56381 -0.06700
C 	C 	0.68143 0.01207 0.54307 -0.01200
C 	C 	0.70392 0.99206 0.51741 -0.07300
C 	C 	0.84891 0.08378 0.52270 0.35500
C 	C 	0.67234 0.94239 0.49343 0.35900
H 	H 	0.89305 0.95801 0.06584 0.01700
H 	H 	0.91765 0.04486 0.09060 0.02200
H 	H 	0.89785 0.05373 0.15505 0.00900
H 	H 	0.97753 0.10917 0.42056 0.01000
H 	H 	0.06071 0.17603 0.39360 0.02200
H 	H 	0.06468 0.19595 0.32749 0.01700
H 	H 	0.65366 0.75879 0.94776 0.01000
H 	H 	0.60006 0.66335 0.94576 0.02200
H 	H 	0.62976 0.60987 0.97810 0.01700
H 	H 	0.79542 0.11520 0.57296 0.01700
H 	H 	0.70031 0.07259 0.58206 0.02200
H 	H 	0.64226 0.99408 0.54656 0.00900
Eu	Eu	0.82894 0.28334 0.52550 1.50600
Eu	Eu	0.61961 0.14264 0.62254 1.50700
Eu	Eu	0.89377 0.38416 0.36406 1.50900
Eu	Eu	0.68546 0.14887 0.79444 1.50700
O 	O 	0.84226 0.31693 0.46064 -0.47500
O 	O 	0.81360 0.32788 0.40394 -0.45500
O 	O 	0.74232 0.22194 0.55444 -0.46500
O 	O 	0.65258 0.18120 0.55833 -0.45700
N 	N 	0.74428 0.25424 0.48531 -0.18100
C 	C 	0.74904 0.27090 0.44909 -0.07500
C 	C 	0.70430 0.25470 0.42531 -0.01400
C 	C 	0.65360 0.21920 0.44018 -0.06700
C 	C 	0.64849 0.20209 0.47760 -0.01200
C 	C 	0.69504 0.22103 0.49948 -0.07400
C 	C 	0.80574 0.30824 0.43644 0.36100
C 	C 	0.69581 0.20669 0.54051 0.35800
O 	O 	0.64265 0.15591 0.68979 -0.46500
O 	O 	0.62605 0.16422 0.75092 -0.45700
O 	O 	0.55163 0.15667 0.59204 -0.47400
O 	O 	0.82579 0.30955 0.59227 -0.45100
N 	N 	0.56539 0.17021 0.66555 -0.18200
C 	C 	0.57515 0.17755 0.70298 -0.07100
C 	C 	0.54880 0.19580 0.72668 -0.01300
C 	C 	0.50990 0.20510 0.71093 -0.06700
C 	C 	0.49860 0.19640 0.67235 -0.01300
C 	C 	0.52758 0.17929 0.65040 -0.07400
C 	C 	0.61787 0.16515 0.71624 0.35900
C 	C 	0.51989 0.16936 0.60843 0.35700
O 	O 	0.83469 0.29882 0.33273 -0.46600
O 	O 	0.92947 0.48277 0.35974 -0.45700
O 	O 	0.99132 0.42953 0.36493 -0.47400
O 	O 	0.63580 0.07095 0.64690 -0.45000
N 	N 	0.93750 0.33600 0.33150 -0.18300
C 	C 	0.90790 0.28839 0.31379 -0.07100
C 	C 	0.93050 0.26260 0.29385 -0.01300
C 	C 	0.98610 0.28700 0.29297 -0.06800
C 	C 	0.01750 0.33590 0.31142 -0.01200
C 	C 	0.99178 0.35938 0.33042 -0.07600
C 	C 	0.84803 0.26671 0.31775 0.35900
C 	C 	0.02060 0.41200 0.35085 0.35500
O 	O 	0.60587 0.13277 0.82960 -0.47500
O 	O 	0.78428 0.20971 0.79175 -0.45000
O 	O 	0.73243 0.09844 0.80153 -0.46600
O 	O 	0.91274 0.28957 0.50036 -0.45700
N 	N 	0.65052 0.07474 0.84497 -0.18200
C 	C 	0.60609 0.06317 0.86516 -0.07300
C 	C 	0.58360 0.02120 0.89175 -0.01400
C 	C 	0.60900 0.99090 0.89714 -0.06800
C 	C 	0.65460 0.00270 0.87640 -0.01100
C 	C 	0.67461 0.04520 0.85074 -0.07400
C 	C 	0.58289 0.09847 0.85603 0.35500
C 	C 	0.72428 0.06329 0.82676 0.35900
H 	H 	0.70866 0.26838 0.39917 0.01700
H 	H 	0.62181 0.20613 0.42393 0.02200
H 	H 	0.61294 0.17746 0.48838 0.00900
H 	H 	0.55750 0.20170 0.75389 0.01000
H 	H 	0.49064 0.21802 0.72693 0.02200
H 	H 	0.47072 0.20207 0.66082 0.01700
H 	H 	0.90788 0.22821 0.28109 0.00900
H 	H 	0.00332 0.27005 0.27909 0.02300
H 	H 	0.05680 0.35323 0.31143 0.01700
H 	H 	0.55147 0.01356 0.90629 0.01700
H 	H 	0.59408 0.96106 0.91539 0.02300
H 	H 	0.67259 0.98152 0.87989 0.00900
Eu	Eu	0.49561 0.61667 0.85884 1.50600
Eu	Eu	0.28628 0.47598 0.95587 1.50700
Eu	Eu	0.56044 0.71749 0.69739 1.50900
Eu	Eu	0.35213 0.48221 0.12777 1.50700
O 	O 	0.50893 0.65026 0.79397 -0.47500
O 	O 	0.48027 0.66121 0.73727 -0.45500
O 	O 	0.40899 0.55527 0.88777 -0.46500
O 	O 	0.31925 0.51453 0.89166 -0.45700
N 	N 	0.41095 0.58757 0.81864 -0.18100
C 	C 	0.41571 0.60423 0.78242 -0.07500
C 	C 	0.37097 0.58803 0.75864 -0.01400
C 	C 	0.32027 0.55253 0.77351 -0.06700
C 	C 	0.31516 0.53542 0.81093 -0.01200
C 	C 	0.36171 0.55436 0.83281 -0.07400
C 	C 	0.47241 0.64157 0.76977 0.36100
C 	C 	0.36248 0.54002 0.87384 0.35800
O 	O 	0.30932 0.48924 0.02312 -0.46500
O 	O 	0.29272 0.49755 0.08425 -0.45700
O 	O 	0.21830 0.49000 0.92537 -0.47400
O 	O 	0.49246 0.64288 0.92560 -0.45200
N 	N 	0.23206 0.50354 0.99888 -0.18200
C 	C 	0.24182 0.51088 0.03631 -0.07100
C 	C 	0.21547 0.52913 0.06001 -0.01300
C 	C 	0.17657 0.53843 0.04426 -0.06700
C 	C 	0.16527 0.52973 0.00568 -0.01200
C 	C 	0.19425 0.51262 0.98373 -0.07500
C 	C 	0.28454 0.49848 0.04957 0.35900
C 	C 	0.18656 0.50269 0.94176 0.35700
O 	O 	0.50136 0.63215 0.66606 -0.46600
O 	O 	0.59614 0.81610 0.69307 -0.45700
O 	O 	0.65799 0.76286 0.69826 -0.47400
O 	O 	0.30247 0.40428 0.98023 -0.45000
N 	N 	0.60417 0.66933 0.66483 -0.18300
C 	C 	0.57457 0.62172 0.64712 -0.07100
C 	C 	0.59717 0.59593 0.62718 -0.01400
C 	C 	0.65277 0.62033 0.62630 -0.06700
C 	C 	0.68417 0.66923 0.64475 -0.01300
C 	C 	0.65845 0.69271 0.66375 -0.07500
C 	C 	0.51470 0.60004 0.65108 0.35900
C 	C 	0.68727 0.74533 0.68418 0.35500
O 	O 	0.27254 0.46610 0.16293 -0.47500
O 	O 	0.45095 0.54304 0.12508 -0.45000
O 	O 	0.39910 0.43177 0.13486 -0.46600
O 	O 	0.57941 0.62290 0.83369 -0.45700
N 	N 	0.31719 0.40807 0.17830 -0.18200
C 	C 	0.27276 0.39650 0.19849 -0.07300
C 	C 	0.25027 0.35453 0.22508 -0.01500
C 	C 	0.27567 0.32423 0.23047 -0.06700
C 	C 	0.32127 0.33603 0.20973 -0.01100
C 	C 	0.34128 0.37853 0.18407 -0.07400
C 	C 	0.24956 0.43180 0.18936 0.35500
C 	C 	0.39095 0.39662 0.16009 0.35900
H 	H 	0.37533 0.60171 0.73250 0.01700
H 	H 	0.28848 0.53946 0.75726 0.02200
H 	H 	0.27961 0.51079 0.82171 0.00900
H 	H 	0.22417 0.53503 0.08722 0.01000
H 	H 	0.15731 0.55135 0.06026 0.02200
H 	H 	0.13739 0.53540 0.99415 0.01600
H 	H 	0.57455 0.56154 0.61442 0.01000
H 	H 	0.66999 0.60338 0.61242 0.02200
H 	H 	0.72347 0.68656 0.64476 0.01700
H 	H 	0.21814 0.34689 0.23962 0.01700
H 	H 	0.26075 0.29439 0.24872 0.02300
H 	H 	0.33926 0.31485 0.21322 0.00900
Eu	Eu	0.16227 0.95001 0.19217 1.50600
Eu	Eu	0.95295 0.80931 0.28921 1.50700
Eu	Eu	0.22710 0.05083 0.03073 1.50800
Eu	Eu	0.01879 0.81554 0.46110 1.50600
O 	O 	0.17559 0.98360 0.12731 -0.47500
O 	O 	0.14693 0.99455 0.07061 -0.45500
O 	O 	0.07565 0.88861 0.22111 -0.46500
O 	O 	0.98591 0.84787 0.22500 -0.45700
N 	N 	0.07761 0.92091 0.15198 -0.18100
C 	C 	0.08237 0.93757 0.11576 -0.07500
C 	C 	0.03763 0.92137 0.09198 -0.01400
C 	C 	0.98693 0.88587 0.10685 -0.06700
C 	C 	0.98182 0.86876 0.14427 -0.01200
C 	C 	0.02837 0.88770 0.16615 -0.07400
C 	C 	0.13907 0.97491 0.10311 0.36100
C 	C 	0.02914 0.87336 0.20718 0.35800
O 	O 	0.97598 0.82258 0.35646 -0.46500
O 	O 	0.95938 0.83089 0.41759 -0.45700
O 	O 	0.88496 0.82334 0.25871 -0.47400
O 	O 	0.15912 0.97622 0.25894 -0.45200
N 	N 	0.89872 0.83688 0.33222 -0.18200
C 	C 	0.90848 0.84422 0.36965 -0.07100
C 	C 	0.88213 0.86247 0.39335 -0.01300
C 	C 	0.84323 0.87177 0.37760 -0.06700
C 	C 	0.83193 0.86307 0.33902 -0.01300
C 	C 	0.86091 0.84596 0.31707 -0.07400
C 	C 	0.95120 0.83182 0.38291 0.35900
C 	C 	0.85322 0.83603 0.27510 0.35700
O 	O 	0.16802 0.96549 0.99940 -0.46600
O 	O 	0.26280 0.14944 0.02641 -0.45700
O 	O 	0.32465 0.09620 0.03160 -0.47400
O 	O 	0.96913 0.73762 0.31357 -0.45100
N 	N 	0.27083 0.00267 0.99817 -0.18300
C 	C 	0.24123 0.95506 0.98046 -0.07100
C 	C 	0.26383 0.92927 0.96052 -0.01400
C 	C 	0.31943 0.95367 0.95964 -0.06800
C 	C 	0.35083 0.00257 0.97809 -0.01300
C 	C 	0.32511 0.02605 0.99709 -0.07500
C 	C 	0.18136 0.93338 0.98442 0.35900
C 	C 	0.35393 0.07867 0.01752 0.35500
O 	O 	0.93920 0.79944 0.49627 -0.47500
O 	O 	0.11761 0.87638 0.45842 -0.45000
O 	O 	0.06576 0.76511 0.46820 -0.46600
O 	O 	0.24607 0.95624 0.16703 -0.45700
N 	N 	0.98385 0.74141 0.51164 -0.18200
C 	C 	0.93942 0.72984 0.53183 -0.07300
C 	C 	0.91693 0.68787 0.55842 -0.01500
C 	C 	0.94233 0.65757 0.56381 -0.06700
C 	C 	0.98793 0.66937 0.54307 -0.01100
C 	C 	0.00794 0.71187 0.51741 -0.07400
C 	C 	0.91622 0.76514 0.52270 0.35500
C 	C 	0.05761 0.72996 0.49343 0.35900
H 	H 	0.04199 0.93505 0.06584 0.01700
H 	H 	0.95514 0.87280 0.09060 0.02200
H 	H 	0.94627 0.84413 0.15505 0.00900
H 	H 	0.89083 0.86837 0.42056 0.01000
H 	H 	0.82397 0.88469 0.39360 0.02200
H 	H 	0.80405 0.86874 0.32749 0.01700
H 	H 	0.24121 0.89488 0.94776 0.00900
H 	H 	0.33665 0.93672 0.94576 0.02300
H 	H 	0.39013 0.01990 0.97810 0.01700
H 	H 	0.88480 0.68023 0.57296 0.01700
H 	H 	0.92741 0.62773 0.58206 0.02300
H 	H 	0.00592 0.64819 0.54656 0.00900
