data_crystal

_cell_length_a 37.01100
_cell_length_b 8.59520
_cell_length_c 26.72900
_cell_angle_alpha 90.00000
_cell_angle_beta  129.23100
_cell_angle_gamma 90.00000

_symmetry_space_group_name_	'P 1'
_symmetry_space_group_name_H-M	'P 1'

loop_
_symmetry_equiv_pos_as_xyz
  x,y,z

loop_
_atom_site_label
_atom_site_type_symbol
_atom_site_fract_x
_atom_site_fract_y
_atom_site_fract_z
_atom_site_charge
C 	C 	0.86414 0.66710 0.85498 0.01100
H 	H 	0.84690 0.70960 0.81380 0.02500
C 	C 	0.91078 0.63900 0.88788 -0.02400
H 	H 	0.92420 0.66120 0.86870 0.03700
C 	C 	0.91534 0.54080 0.97300 -0.11800
H 	H 	0.93160 0.49510 0.01350 0.06600
C 	C 	0.86827 0.57080 0.93703 0.04900
H 	H 	0.85370 0.54370 0.95410 -0.00400
C 	C 	0.65562 0.67600 0.68743 0.00700
H 	H 	0.66940 0.74080 0.67590 0.00300
C 	C 	0.60796 0.65580 0.64480 -0.10500
H 	H 	0.59070 0.70790 0.60540 0.05600
C 	C 	0.58485 0.56120 0.65823 0.02200
C 	C 	0.61325 0.48910 0.71711 -0.06900
H 	H 	0.59990 0.42290 0.72890 0.05800
C 	C 	0.66105 0.51100 0.75977 -0.01300
H 	H 	0.67870 0.46020 0.79940 0.02400
C 	C 	0.53444 0.54170 0.61250 -0.04100
H 	H 	0.51880 0.62190 0.58250 0.04000
C 	C 	0.50904 0.44010 0.60624 -0.07700
H 	H 	0.52460 0.35600 0.63410 0.05100
C 	C 	0.45847 0.42770 0.56250 0.04500
C 	C 	0.42932 0.52680 0.51138 -0.08600
H 	H 	0.44240 0.60660 0.50400 0.05200
C 	C 	0.38125 0.51230 0.47044 0.03600
H 	H 	0.36290 0.58540 0.43800 0.01700
C 	C 	0.38787 0.30040 0.52830 0.00300
H 	H 	0.37420 0.22510 0.53660 0.03900
C 	C 	0.43565 0.31380 0.56919 -0.06900
H 	H 	0.45330 0.24280 0.60280 0.05000
Mn	Mn	0.76283 0.62795 0.81378 1.27000
S 	S 	0.83614 0.58718 0.67211 0.37900
O 	O 	0.76326 0.61480 0.73236 -0.45500
O 	O 	0.74128 0.37080 0.70301 -0.50000
O 	O 	0.86062 0.50750 0.73236 -0.25400
O 	O 	0.85615 0.72390 0.66780 -0.24800
O 	O 	0.76696 0.59410 0.42944 -0.29500
O 	O 	0.76957 0.35310 0.40087 -0.43800
N 	N 	0.78576 0.63680 0.64889 -0.18000
H 	H 	0.77730 0.73270 0.64130 0.14500
N 	N 	0.68279 0.60460 0.74529 -0.22400
N 	N 	0.36061 0.39340 0.47690 -0.13300
N 	N 	0.84270 0.63750 0.87831 -0.22700
C 	C 	0.75375 0.49870 0.69723 0.44600
C 	C 	0.75434 0.51650 0.64087 -0.28600
H 	H 	0.72290 0.53990 0.60220 0.13100
H 	H 	0.76310 0.41750 0.63400 0.12500
C 	C 	0.82586 0.44830 0.61481 -0.07000
C 	C 	0.83517 0.29370 0.63080 0.00700
H 	H 	0.84770 0.26020 0.67200 0.04000
C 	C 	0.82561 0.18770 0.58440 -0.08400
H 	H 	0.83190 0.08260 0.59480 0.06900
C 	C 	0.80671 0.23770 0.52288 0.02200
H 	H 	0.80050 0.16640 0.49210 0.03400
C 	C 	0.79702 0.39480 0.50722 -0.09500
C 	C 	0.80655 0.50100 0.55364 0.01700
H 	H 	0.80000 0.60610 0.54360 0.05000
C 	C 	0.77585 0.45250 0.44043 0.34200
C 	C 	0.93799 0.57700 0.95020 0.08700
C 	C 	0.98720 0.53930 0.98640 -0.08400
H 	H 	0.00070 0.62490 0.98270 0.05500
C 	C 	0.15301 0.77790 0.21101 0.04400
C 	C 	0.10533 0.79680 0.17371 -0.02300
C 	C 	0.08528 0.93700 0.16929 0.02700
C 	C 	0.11666 0.05520 0.20486 -0.04100
C 	C 	0.16425 0.03480 0.24204 0.03800
C 	C 	0.03513 0.95720 0.13012 -0.02700
C 	C 	0.00498 0.01150 0.07671 -0.04100
C 	C 	0.95590 0.04230 0.04354 0.05300
C 	C 	0.92458 0.07830 0.97885 -0.07800
C 	C 	0.87800 0.10730 0.94725 0.02400
C 	C 	0.89002 0.06730 0.04199 0.04600
C 	C 	0.93666 0.03780 0.07373 -0.09600
C 	C 	0.35888 0.93550 0.35207 0.03800
C 	C 	0.40537 0.96660 0.38532 -0.12500
C 	C 	0.42110 0.85190 0.47624 -0.03900
C 	C 	0.37386 0.82410 0.44013 0.00500
H 	H 	0.16480 0.68100 0.21240 0.00600
H 	H 	0.08600 0.71200 0.15070 0.03700
H 	H 	0.10540 0.15290 0.20380 0.04200
H 	H 	0.18400 0.11850 0.26540 -0.00100
H 	H 	0.02350 0.92070 0.15020 0.04100
H 	H 	0.01490 0.03750 0.05340 0.03500
H 	H 	0.93530 0.08330 0.95540 0.04700
H 	H 	0.85840 0.12810 0.90320 0.02300
H 	H 	0.87840 0.06090 0.06420 0.02000
H 	H 	0.95590 0.01380 0.11750 0.06100
H 	H 	0.33770 0.96700 0.30920 0.00800
H 	H 	0.41510 0.01630 0.36480 0.07500
H 	H 	0.44150 0.82080 0.51920 0.03700
H 	H 	0.36340 0.77620 0.46010 0.01900
C 	C 	0.36414 0.16710 0.85498 0.00900
H 	H 	0.34690 0.20960 0.81380 0.02700
C 	C 	0.41078 0.13900 0.88788 -0.02300
H 	H 	0.42420 0.16120 0.86870 0.03800
C 	C 	0.41534 0.04080 0.97300 -0.11800
H 	H 	0.43160 0.99510 0.01350 0.06800
C 	C 	0.36827 0.07080 0.93703 0.04700
H 	H 	0.35370 0.04370 0.95410 -0.00300
C 	C 	0.15562 0.17600 0.68743 0.00900
H 	H 	0.16940 0.24080 0.67590 0.00300
C 	C 	0.10796 0.15580 0.64480 -0.10100
H 	H 	0.09070 0.20790 0.60540 0.05600
C 	C 	0.08485 0.06120 0.65823 0.02100
C 	C 	0.11325 0.98910 0.71711 -0.06600
H 	H 	0.09990 0.92290 0.72890 0.05800
C 	C 	0.16105 0.01100 0.75977 -0.00600
H 	H 	0.17870 0.96020 0.79940 0.02300
C 	C 	0.03444 0.04170 0.61250 -0.04200
H 	H 	0.01880 0.12190 0.58250 0.04100
C 	C 	0.00904 0.94010 0.60624 -0.07400
H 	H 	0.02460 0.85600 0.63410 0.05000
C 	C 	0.95847 0.92770 0.56250 0.04700
C 	C 	0.92932 0.02680 0.51138 -0.08900
H 	H 	0.94240 0.10660 0.50400 0.05300
C 	C 	0.88125 0.01230 0.47044 0.03400
H 	H 	0.86290 0.08540 0.43800 0.01700
C 	C 	0.88787 0.80040 0.52830 0.00400
H 	H 	0.87420 0.72510 0.53660 0.03800
C 	C 	0.93565 0.81380 0.56919 -0.07100
H 	H 	0.95330 0.74280 0.60280 0.05000
Mn	Mn	0.26283 0.12795 0.81378 1.27000
S 	S 	0.33614 0.08718 0.67211 0.38400
O 	O 	0.26326 0.11480 0.73236 -0.45300
O 	O 	0.24128 0.87080 0.70301 -0.49800
O 	O 	0.36062 0.00750 0.73236 -0.25400
O 	O 	0.35615 0.22390 0.66780 -0.24900
O 	O 	0.26696 0.09410 0.42944 -0.29400
O 	O 	0.26957 0.85310 0.40087 -0.43800
N 	N 	0.28576 0.13680 0.64889 -0.18200
H 	H 	0.27730 0.23270 0.64130 0.14500
N 	N 	0.18279 0.10460 0.74529 -0.22400
N 	N 	0.86061 0.89340 0.47690 -0.13300
N 	N 	0.34270 0.13750 0.87831 -0.22700
C 	C 	0.25375 0.99870 0.69723 0.44200
C 	C 	0.25434 0.01650 0.64087 -0.27900
H 	H 	0.22290 0.03990 0.60220 0.12900
H 	H 	0.26310 0.91750 0.63400 0.12100
C 	C 	0.32586 0.94830 0.61481 -0.08000
C 	C 	0.33517 0.79370 0.63080 0.01400
H 	H 	0.34770 0.76020 0.67200 0.03800
C 	C 	0.32561 0.68770 0.58440 -0.09000
H 	H 	0.33190 0.58260 0.59480 0.07200
C 	C 	0.30671 0.73770 0.52288 0.02800
H 	H 	0.30050 0.66640 0.49210 0.03200
C 	C 	0.29702 0.89480 0.50722 -0.10200
C 	C 	0.30655 0.00100 0.55364 0.02900
H 	H 	0.30000 0.10610 0.54360 0.04600
C 	C 	0.27585 0.95250 0.44043 0.34200
C 	C 	0.43799 0.07700 0.95020 0.08700
C 	C 	0.48720 0.03930 0.98640 -0.08400
H 	H 	0.50070 0.12490 0.98270 0.05600
C 	C 	0.65301 0.27790 0.21101 0.04500
C 	C 	0.60533 0.29680 0.17371 -0.02100
C 	C 	0.58528 0.43700 0.16929 0.02700
C 	C 	0.61666 0.55520 0.20486 -0.03900
C 	C 	0.66425 0.53480 0.24204 0.04700
C 	C 	0.53513 0.45720 0.13012 -0.02600
C 	C 	0.50498 0.51150 0.07671 -0.04100
C 	C 	0.45590 0.54230 0.04354 0.05500
C 	C 	0.42458 0.57830 0.97885 -0.08200
C 	C 	0.37800 0.60730 0.94725 0.02300
C 	C 	0.39002 0.56730 0.04199 0.04600
C 	C 	0.43666 0.53780 0.07373 -0.09800
C 	C 	0.85888 0.43550 0.35207 0.03500
C 	C 	0.90537 0.46660 0.38532 -0.12600
C 	C 	0.92110 0.35190 0.47624 -0.03800
C 	C 	0.87386 0.32410 0.44013 0.00200
H 	H 	0.66480 0.18100 0.21240 0.00500
H 	H 	0.58600 0.21200 0.15070 0.03600
H 	H 	0.60540 0.65290 0.20380 0.04100
H 	H 	0.68400 0.61850 0.26540 -0.00400
H 	H 	0.52350 0.42070 0.15020 0.04200
H 	H 	0.51490 0.53750 0.05340 0.03500
H 	H 	0.43530 0.58330 0.95540 0.04800
H 	H 	0.35840 0.62810 0.90320 0.02300
H 	H 	0.37840 0.56090 0.06420 0.02000
H 	H 	0.45590 0.51380 0.11750 0.06100
H 	H 	0.83770 0.46700 0.30920 0.00900
H 	H 	0.91510 0.51630 0.36480 0.07600
H 	H 	0.94150 0.32080 0.51920 0.03700
H 	H 	0.86340 0.27620 0.46010 0.02000
C 	C 	0.13586 0.66710 0.64502 0.01200
H 	H 	0.15310 0.70960 0.68620 0.02600
C 	C 	0.08922 0.63900 0.61212 -0.02300
H 	H 	0.07580 0.66120 0.63130 0.03800
C 	C 	0.08466 0.54080 0.52700 -0.11700
H 	H 	0.06840 0.49510 0.48650 0.06700
C 	C 	0.13173 0.57080 0.56297 0.05000
H 	H 	0.14630 0.54370 0.54590 -0.00300
C 	C 	0.34438 0.67600 0.81257 0.00800
H 	H 	0.33060 0.74080 0.82410 0.00300
C 	C 	0.39204 0.65580 0.85520 -0.10300
H 	H 	0.40930 0.70790 0.89460 0.05700
C 	C 	0.41515 0.56120 0.84177 0.02200
C 	C 	0.38675 0.48910 0.78289 -0.06900
H 	H 	0.40010 0.42290 0.77110 0.05800
C 	C 	0.33895 0.51100 0.74023 -0.01300
H 	H 	0.32130 0.46020 0.70060 0.02400
C 	C 	0.46556 0.54170 0.88750 -0.04100
H 	H 	0.48120 0.62190 0.91750 0.04000
C 	C 	0.49096 0.44010 0.89376 -0.07700
H 	H 	0.47540 0.35600 0.86590 0.05100
C 	C 	0.54153 0.42770 0.93750 0.04500
C 	C 	0.57068 0.52680 0.98862 -0.08600
H 	H 	0.55760 0.60660 0.99600 0.05200
C 	C 	0.61875 0.51230 0.02956 0.03700
H 	H 	0.63710 0.58540 0.06200 0.01700
C 	C 	0.61213 0.30040 0.97170 0.00400
H 	H 	0.62580 0.22510 0.96340 0.03800
C 	C 	0.56435 0.31380 0.93081 -0.07000
H 	H 	0.54670 0.24280 0.89720 0.05000
Mn	Mn	0.23717 0.62795 0.68622 1.27000
S 	S 	0.16386 0.58718 0.82789 0.37900
O 	O 	0.23674 0.61480 0.76764 -0.45500
O 	O 	0.25872 0.37080 0.79699 -0.50000
O 	O 	0.13938 0.50750 0.76764 -0.25400
O 	O 	0.14385 0.72390 0.83220 -0.24800
O 	O 	0.23304 0.59410 0.07056 -0.29500
O 	O 	0.23043 0.35310 0.09913 -0.43800
N 	N 	0.21424 0.63680 0.85111 -0.18000
H 	H 	0.22270 0.73270 0.85870 0.14500
N 	N 	0.31721 0.60460 0.75471 -0.22400
N 	N 	0.63939 0.39340 0.02310 -0.13300
N 	N 	0.15730 0.63750 0.62169 -0.22800
C 	C 	0.24625 0.49870 0.80277 0.44600
C 	C 	0.24566 0.51650 0.85913 -0.28600
H 	H 	0.27710 0.53990 0.89780 0.13100
H 	H 	0.23690 0.41750 0.86600 0.12500
C 	C 	0.17414 0.44830 0.88519 -0.07100
C 	C 	0.16483 0.29370 0.86920 0.00700
H 	H 	0.15230 0.26020 0.82800 0.04000
C 	C 	0.17439 0.18770 0.91560 -0.08400
H 	H 	0.16810 0.08260 0.90520 0.06900
C 	C 	0.19329 0.23770 0.97712 0.02200
H 	H 	0.19950 0.16640 0.00790 0.03400
C 	C 	0.20298 0.39480 0.99278 -0.09500
C 	C 	0.19345 0.50100 0.94636 0.01700
H 	H 	0.20000 0.60610 0.95640 0.05000
C 	C 	0.22415 0.45250 0.05957 0.34200
C 	C 	0.06201 0.57700 0.54980 0.08700
C 	C 	0.01280 0.53930 0.51360 -0.08400
H 	H 	0.99930 0.62490 0.51730 0.05600
C 	C 	0.84699 0.77790 0.28899 0.04400
C 	C 	0.89467 0.79680 0.32629 -0.02300
C 	C 	0.91472 0.93700 0.33071 0.02700
C 	C 	0.88334 0.05520 0.29514 -0.04100
C 	C 	0.83575 0.03480 0.25796 0.03800
C 	C 	0.96487 0.95720 0.36988 -0.02700
C 	C 	0.99502 0.01150 0.42329 -0.04200
C 	C 	0.04410 0.04230 0.45646 0.05400
C 	C 	0.07542 0.07830 0.52115 -0.07800
C 	C 	0.12200 0.10730 0.55275 0.02400
C 	C 	0.10998 0.06730 0.45801 0.04800
C 	C 	0.06334 0.03780 0.42627 -0.09800
C 	C 	0.64112 0.93550 0.14793 0.03800
C 	C 	0.59463 0.96660 0.11468 -0.12400
C 	C 	0.57890 0.85190 0.02376 -0.03900
C 	C 	0.62614 0.82410 0.05987 0.00500
H 	H 	0.83520 0.68100 0.28760 0.00600
H 	H 	0.91400 0.71200 0.34930 0.03700
H 	H 	0.89460 0.15290 0.29620 0.04200
H 	H 	0.81600 0.11850 0.23460 -0.00100
H 	H 	0.97650 0.92070 0.34980 0.04100
H 	H 	0.98510 0.03750 0.44660 0.03600
H 	H 	0.06470 0.08330 0.54460 0.04700
H 	H 	0.14160 0.12810 0.59680 0.02300
H 	H 	0.12160 0.06090 0.43580 0.02000
H 	H 	0.04410 0.01380 0.38250 0.06200
H 	H 	0.66230 0.96700 0.19080 0.00800
H 	H 	0.58490 0.01630 0.13520 0.07400
H 	H 	0.55850 0.82080 0.98080 0.03700
H 	H 	0.63660 0.77620 0.03990 0.01900
C 	C 	0.63586 0.16710 0.64502 0.00900
H 	H 	0.65310 0.20960 0.68620 0.02700
C 	C 	0.58922 0.13900 0.61212 -0.02300
H 	H 	0.57580 0.16120 0.63130 0.03800
C 	C 	0.58466 0.04080 0.52700 -0.11800
H 	H 	0.56840 0.99510 0.48650 0.06800
C 	C 	0.63173 0.07080 0.56297 0.04700
H 	H 	0.64630 0.04370 0.54590 -0.00300
C 	C 	0.84438 0.17600 0.81257 0.00900
H 	H 	0.83060 0.24080 0.82410 0.00300
C 	C 	0.89204 0.15580 0.85520 -0.10100
H 	H 	0.90930 0.20790 0.89460 0.05600
C 	C 	0.91515 0.06120 0.84177 0.02100
C 	C 	0.88675 0.98910 0.78289 -0.06600
H 	H 	0.90010 0.92290 0.77110 0.05800
C 	C 	0.83895 0.01100 0.74023 -0.00600
H 	H 	0.82130 0.96020 0.70060 0.02300
C 	C 	0.96556 0.04170 0.88750 -0.04200
H 	H 	0.98120 0.12190 0.91750 0.04100
C 	C 	0.99096 0.94010 0.89376 -0.07400
H 	H 	0.97540 0.85600 0.86590 0.05100
C 	C 	0.04153 0.92770 0.93750 0.04600
C 	C 	0.07068 0.02680 0.98862 -0.08900
H 	H 	0.05760 0.10660 0.99600 0.05300
C 	C 	0.11875 0.01230 0.02956 0.03300
H 	H 	0.13710 0.08540 0.06200 0.01700
C 	C 	0.11213 0.80040 0.97170 0.00400
H 	H 	0.12580 0.72510 0.96340 0.03800
C 	C 	0.06435 0.81380 0.93081 -0.07100
H 	H 	0.04670 0.74280 0.89720 0.05000
Mn	Mn	0.73717 0.12795 0.68622 1.27000
S 	S 	0.66386 0.08718 0.82789 0.38400
O 	O 	0.73674 0.11480 0.76764 -0.45300
O 	O 	0.75872 0.87080 0.79699 -0.49800
O 	O 	0.63938 0.00750 0.76764 -0.25400
O 	O 	0.64385 0.22390 0.83220 -0.24900
O 	O 	0.73304 0.09410 0.07056 -0.29500
O 	O 	0.73043 0.85310 0.09913 -0.43800
N 	N 	0.71424 0.13680 0.85111 -0.18200
H 	H 	0.72270 0.23270 0.85870 0.14500
N 	N 	0.81721 0.10460 0.75471 -0.22400
N 	N 	0.13939 0.89340 0.02310 -0.13200
N 	N 	0.65730 0.13750 0.62169 -0.22800
C 	C 	0.74625 0.99870 0.80277 0.44100
C 	C 	0.74566 0.01650 0.85913 -0.27900
H 	H 	0.77710 0.03990 0.89780 0.12900
H 	H 	0.73690 0.91750 0.86600 0.12100
C 	C 	0.67414 0.94830 0.88519 -0.08100
C 	C 	0.66483 0.79370 0.86920 0.01500
H 	H 	0.65230 0.76020 0.82800 0.03800
C 	C 	0.67439 0.68770 0.91560 -0.09100
H 	H 	0.66810 0.58260 0.90520 0.07200
C 	C 	0.69329 0.73770 0.97712 0.02900
H 	H 	0.69950 0.66640 0.00790 0.03200
C 	C 	0.70298 0.89480 0.99278 -0.10300
C 	C 	0.69345 0.00100 0.94636 0.03000
H 	H 	0.70000 0.10610 0.95640 0.04600
C 	C 	0.72415 0.95250 0.05957 0.34300
C 	C 	0.56201 0.07700 0.54980 0.08700
C 	C 	0.51280 0.03930 0.51360 -0.08400
H 	H 	0.49930 0.12490 0.51730 0.05600
C 	C 	0.34699 0.27790 0.28899 0.04500
C 	C 	0.39467 0.29680 0.32629 -0.02100
C 	C 	0.41472 0.43700 0.33071 0.02700
C 	C 	0.38334 0.55520 0.29514 -0.03900
C 	C 	0.33575 0.53480 0.25796 0.04700
C 	C 	0.46487 0.45720 0.36988 -0.02600
C 	C 	0.49502 0.51150 0.42329 -0.04100
C 	C 	0.54410 0.54230 0.45646 0.05500
C 	C 	0.57542 0.57830 0.52115 -0.08200
C 	C 	0.62200 0.60730 0.55275 0.02300
C 	C 	0.60998 0.56730 0.45801 0.04700
C 	C 	0.56334 0.53780 0.42627 -0.09900
C 	C 	0.14112 0.43550 0.14793 0.03500
C 	C 	0.09463 0.46660 0.11468 -0.12600
C 	C 	0.07890 0.35190 0.02376 -0.03800
C 	C 	0.12614 0.32410 0.05987 0.00100
H 	H 	0.33520 0.18100 0.28760 0.00500
H 	H 	0.41400 0.21200 0.34930 0.03600
H 	H 	0.39460 0.65290 0.29620 0.04100
H 	H 	0.31600 0.61850 0.23460 -0.00400
H 	H 	0.47650 0.42070 0.34980 0.04200
H 	H 	0.48510 0.53750 0.44660 0.03500
H 	H 	0.56470 0.58330 0.54460 0.04800
H 	H 	0.64160 0.62810 0.59680 0.02300
H 	H 	0.62160 0.56090 0.43580 0.02000
H 	H 	0.54410 0.51380 0.38250 0.06100
H 	H 	0.16230 0.46700 0.19080 0.00900
H 	H 	0.08490 0.51630 0.13520 0.07600
H 	H 	0.05850 0.32080 0.98080 0.03700
H 	H 	0.13660 0.27620 0.03990 0.02000
C 	C 	0.13586 0.33290 0.14502 0.01200
H 	H 	0.15310 0.29040 0.18620 0.02600
C 	C 	0.08922 0.36100 0.11212 -0.02300
H 	H 	0.07580 0.33880 0.13130 0.03800
C 	C 	0.08466 0.45920 0.02700 -0.11700
H 	H 	0.06840 0.50490 0.98650 0.06700
C 	C 	0.13173 0.42920 0.06297 0.05000
H 	H 	0.14630 0.45630 0.04590 -0.00300
C 	C 	0.34438 0.32400 0.31257 0.00800
H 	H 	0.33060 0.25920 0.32410 0.00400
C 	C 	0.39204 0.34420 0.35520 -0.10400
H 	H 	0.40930 0.29210 0.39460 0.05700
C 	C 	0.41515 0.43880 0.34177 0.02200
C 	C 	0.38675 0.51090 0.28289 -0.06900
H 	H 	0.40010 0.57710 0.27110 0.05800
C 	C 	0.33895 0.48900 0.24023 -0.01300
H 	H 	0.32130 0.53980 0.20060 0.02400
C 	C 	0.46556 0.45830 0.38750 -0.04100
H 	H 	0.48120 0.37810 0.41750 0.04000
C 	C 	0.49096 0.55990 0.39376 -0.07700
H 	H 	0.47540 0.64400 0.36590 0.05100
C 	C 	0.54153 0.57230 0.43750 0.04500
C 	C 	0.57068 0.47320 0.48862 -0.08600
H 	H 	0.55760 0.39340 0.49600 0.05200
C 	C 	0.61875 0.48770 0.52956 0.03600
H 	H 	0.63710 0.41460 0.56200 0.01700
C 	C 	0.61213 0.69960 0.47170 0.00300
H 	H 	0.62580 0.77490 0.46340 0.03900
C 	C 	0.56435 0.68620 0.43081 -0.06900
H 	H 	0.54670 0.75720 0.39720 0.05000
Mn	Mn	0.23717 0.37205 0.18622 1.27000
S 	S 	0.16386 0.41282 0.32789 0.37900
O 	O 	0.23674 0.38520 0.26764 -0.45500
O 	O 	0.25872 0.62920 0.29699 -0.50000
O 	O 	0.13938 0.49250 0.26764 -0.25400
O 	O 	0.14385 0.27610 0.33220 -0.24800
O 	O 	0.23304 0.40590 0.57056 -0.29500
O 	O 	0.23043 0.64690 0.59913 -0.43800
N 	N 	0.21424 0.36320 0.35111 -0.18000
H 	H 	0.22270 0.26730 0.35870 0.14500
N 	N 	0.31721 0.39540 0.25471 -0.22400
N 	N 	0.63939 0.60660 0.52310 -0.13300
N 	N 	0.15730 0.36250 0.12169 -0.22700
C 	C 	0.24625 0.50130 0.30277 0.44600
C 	C 	0.24566 0.48350 0.35913 -0.28600
H 	H 	0.27710 0.46010 0.39780 0.13100
H 	H 	0.23690 0.58250 0.36600 0.12500
C 	C 	0.17414 0.55170 0.38519 -0.07000
C 	C 	0.16483 0.70630 0.36920 0.00700
H 	H 	0.15230 0.73980 0.32800 0.04000
C 	C 	0.17439 0.81230 0.41560 -0.08400
H 	H 	0.16810 0.91740 0.40520 0.06900
C 	C 	0.19329 0.76230 0.47712 0.02200
H 	H 	0.19950 0.83360 0.50790 0.03400
C 	C 	0.20298 0.60520 0.49278 -0.09500
C 	C 	0.19345 0.49900 0.44636 0.01700
H 	H 	0.20000 0.39390 0.45640 0.05000
C 	C 	0.22415 0.54750 0.55957 0.34200
C 	C 	0.06201 0.42300 0.04980 0.08700
C 	C 	0.01280 0.46070 0.01360 -0.08400
H 	H 	0.99930 0.37510 0.01730 0.05500
C 	C 	0.84699 0.22210 0.78899 0.04400
C 	C 	0.89467 0.20320 0.82629 -0.02300
C 	C 	0.91472 0.06300 0.83071 0.02700
C 	C 	0.88334 0.94480 0.79514 -0.04100
C 	C 	0.83575 0.96520 0.75796 0.03800
C 	C 	0.96487 0.04280 0.86988 -0.02700
C 	C 	0.99502 0.98850 0.92329 -0.04100
C 	C 	0.04410 0.95770 0.95646 0.05300
C 	C 	0.07542 0.92170 0.02115 -0.07800
C 	C 	0.12200 0.89270 0.05275 0.02400
C 	C 	0.10998 0.93270 0.95801 0.04600
C 	C 	0.06334 0.96220 0.92627 -0.09600
C 	C 	0.64112 0.06450 0.64793 0.03800
C 	C 	0.59463 0.03340 0.61468 -0.12500
C 	C 	0.57890 0.14810 0.52376 -0.03900
C 	C 	0.62614 0.17590 0.55987 0.00500
H 	H 	0.83520 0.31900 0.78760 0.00600
H 	H 	0.91400 0.28800 0.84930 0.03700
H 	H 	0.89460 0.84710 0.79620 0.04200
H 	H 	0.81600 0.88150 0.73460 -0.00100
H 	H 	0.97650 0.07930 0.84980 0.04100
H 	H 	0.98510 0.96250 0.94660 0.03500
H 	H 	0.06470 0.91670 0.04460 0.04700
H 	H 	0.14160 0.87190 0.09680 0.02300
H 	H 	0.12160 0.93910 0.93580 0.02000
H 	H 	0.04410 0.98620 0.88250 0.06100
H 	H 	0.66230 0.03300 0.69080 0.00800
H 	H 	0.58490 0.98370 0.63520 0.07500
H 	H 	0.55850 0.17920 0.48080 0.03700
H 	H 	0.63660 0.22380 0.53990 0.01900
C 	C 	0.63586 0.83290 0.14502 0.00900
H 	H 	0.65310 0.79040 0.18620 0.02700
C 	C 	0.58922 0.86100 0.11212 -0.02300
H 	H 	0.57580 0.83880 0.13130 0.03800
C 	C 	0.58466 0.95920 0.02700 -0.11800
H 	H 	0.56840 0.00490 0.98650 0.06800
C 	C 	0.63173 0.92920 0.06297 0.04700
H 	H 	0.64630 0.95630 0.04590 -0.00300
C 	C 	0.84438 0.82400 0.31257 0.00900
H 	H 	0.83060 0.75920 0.32410 0.00300
C 	C 	0.89204 0.84420 0.35520 -0.10100
H 	H 	0.90930 0.79210 0.39460 0.05600
C 	C 	0.91515 0.93880 0.34177 0.02100
C 	C 	0.88675 0.01090 0.28289 -0.06600
H 	H 	0.90010 0.07710 0.27110 0.05800
C 	C 	0.83895 0.98900 0.24023 -0.00600
H 	H 	0.82130 0.03980 0.20060 0.02300
C 	C 	0.96556 0.95830 0.38750 -0.04200
H 	H 	0.98120 0.87810 0.41750 0.04100
C 	C 	0.99096 0.05990 0.39376 -0.07400
H 	H 	0.97540 0.14400 0.36590 0.05000
C 	C 	0.04153 0.07230 0.43750 0.04700
C 	C 	0.07068 0.97320 0.48862 -0.08900
H 	H 	0.05760 0.89340 0.49600 0.05300
C 	C 	0.11875 0.98770 0.52956 0.03400
H 	H 	0.13710 0.91460 0.56200 0.01700
C 	C 	0.11213 0.19960 0.47170 0.00400
H 	H 	0.12580 0.27490 0.46340 0.03800
C 	C 	0.06435 0.18620 0.43081 -0.07100
H 	H 	0.04670 0.25720 0.39720 0.05000
Mn	Mn	0.73717 0.87205 0.18622 1.27000
S 	S 	0.66386 0.91282 0.32789 0.38400
O 	O 	0.73674 0.88520 0.26764 -0.45300
O 	O 	0.75872 0.12920 0.29699 -0.49800
O 	O 	0.63938 0.99250 0.26764 -0.25400
O 	O 	0.64385 0.77610 0.33220 -0.24900
O 	O 	0.73304 0.90590 0.57056 -0.29400
O 	O 	0.73043 0.14690 0.59913 -0.43800
N 	N 	0.71424 0.86320 0.35111 -0.18200
H 	H 	0.72270 0.76730 0.35870 0.14500
N 	N 	0.81721 0.89540 0.25471 -0.22400
N 	N 	0.13939 0.10660 0.52310 -0.13300
N 	N 	0.65730 0.86250 0.12169 -0.22700
C 	C 	0.74625 0.00130 0.30277 0.44200
C 	C 	0.74566 0.98350 0.35913 -0.27900
H 	H 	0.77710 0.96010 0.39780 0.12900
H 	H 	0.73690 0.08250 0.36600 0.12100
C 	C 	0.67414 0.05170 0.38519 -0.08000
C 	C 	0.66483 0.20630 0.36920 0.01400
H 	H 	0.65230 0.23980 0.32800 0.03800
C 	C 	0.67439 0.31230 0.41560 -0.09000
H 	H 	0.66810 0.41740 0.40520 0.07200
C 	C 	0.69329 0.26230 0.47712 0.02800
H 	H 	0.69950 0.33360 0.50790 0.03200
C 	C 	0.70298 0.10520 0.49278 -0.10200
C 	C 	0.69345 0.99900 0.44636 0.02900
H 	H 	0.70000 0.89390 0.45640 0.04600
C 	C 	0.72415 0.04750 0.55957 0.34200
C 	C 	0.56201 0.92300 0.04980 0.08700
C 	C 	0.51280 0.96070 0.01360 -0.08400
H 	H 	0.49930 0.87510 0.01730 0.05600
C 	C 	0.34699 0.72210 0.78899 0.04500
C 	C 	0.39467 0.70320 0.82629 -0.02100
C 	C 	0.41472 0.56300 0.83071 0.02700
C 	C 	0.38334 0.44480 0.79514 -0.03900
C 	C 	0.33575 0.46520 0.75796 0.04700
C 	C 	0.46487 0.54280 0.86988 -0.02600
C 	C 	0.49502 0.48850 0.92329 -0.04100
C 	C 	0.54410 0.45770 0.95646 0.05500
C 	C 	0.57542 0.42170 0.02115 -0.08200
C 	C 	0.62200 0.39270 0.05275 0.02300
C 	C 	0.60998 0.43270 0.95801 0.04600
C 	C 	0.56334 0.46220 0.92627 -0.09800
C 	C 	0.14112 0.56450 0.64793 0.03500
C 	C 	0.09463 0.53340 0.61468 -0.12600
C 	C 	0.07890 0.64810 0.52376 -0.03800
C 	C 	0.12614 0.67590 0.55987 0.00200
H 	H 	0.33520 0.81900 0.78760 0.00500
H 	H 	0.41400 0.78800 0.84930 0.03600
H 	H 	0.39460 0.34710 0.79620 0.04100
H 	H 	0.31600 0.38150 0.73460 -0.00400
H 	H 	0.47650 0.57930 0.84980 0.04200
H 	H 	0.48510 0.46250 0.94660 0.03500
H 	H 	0.56470 0.41670 0.04460 0.04800
H 	H 	0.64160 0.37190 0.09680 0.02300
H 	H 	0.62160 0.43910 0.93580 0.02000
H 	H 	0.54410 0.48620 0.88250 0.06100
H 	H 	0.16230 0.53300 0.69080 0.00900
H 	H 	0.08490 0.48370 0.63520 0.07600
H 	H 	0.05850 0.67920 0.48080 0.03700
H 	H 	0.13660 0.72380 0.53990 0.02000
C 	C 	0.86414 0.33290 0.35498 0.01200
H 	H 	0.84690 0.29040 0.31380 0.02600
C 	C 	0.91078 0.36100 0.38788 -0.02300
H 	H 	0.92420 0.33880 0.36870 0.03800
C 	C 	0.91534 0.45920 0.47300 -0.11700
H 	H 	0.93160 0.50490 0.51350 0.06700
C 	C 	0.86827 0.42920 0.43703 0.05000
H 	H 	0.85370 0.45630 0.45410 -0.00300
C 	C 	0.65562 0.32400 0.18743 0.00800
H 	H 	0.66940 0.25920 0.17590 0.00300
C 	C 	0.60796 0.34420 0.14480 -0.10300
H 	H 	0.59070 0.29210 0.10540 0.05700
C 	C 	0.58485 0.43880 0.15823 0.02200
C 	C 	0.61325 0.51090 0.21711 -0.06900
H 	H 	0.59990 0.57710 0.22890 0.05800
C 	C 	0.66105 0.48900 0.25977 -0.01300
H 	H 	0.67870 0.53980 0.29940 0.02400
C 	C 	0.53444 0.45830 0.11250 -0.04100
H 	H 	0.51880 0.37810 0.08250 0.04000
C 	C 	0.50904 0.55990 0.10624 -0.07700
H 	H 	0.52460 0.64400 0.13410 0.05100
C 	C 	0.45847 0.57230 0.06250 0.04500
C 	C 	0.42932 0.47320 0.01138 -0.08600
H 	H 	0.44240 0.39340 0.00400 0.05200
C 	C 	0.38125 0.48770 0.97044 0.03700
H 	H 	0.36290 0.41460 0.93800 0.01700
C 	C 	0.38787 0.69960 0.02830 0.00400
H 	H 	0.37420 0.77490 0.03660 0.03800
C 	C 	0.43565 0.68620 0.06919 -0.07000
H 	H 	0.45330 0.75720 0.10280 0.05000
Mn	Mn	0.76283 0.37205 0.31378 1.27000
S 	S 	0.83614 0.41282 0.17211 0.37900
O 	O 	0.76326 0.38520 0.23236 -0.45500
O 	O 	0.74128 0.62920 0.20301 -0.50000
O 	O 	0.86062 0.49250 0.23236 -0.25400
O 	O 	0.85615 0.27610 0.16780 -0.24800
O 	O 	0.76696 0.40590 0.92944 -0.29500
O 	O 	0.76957 0.64690 0.90087 -0.43800
N 	N 	0.78576 0.36320 0.14889 -0.18000
H 	H 	0.77730 0.26730 0.14130 0.14500
N 	N 	0.68279 0.39540 0.24529 -0.22400
N 	N 	0.36061 0.60660 0.97690 -0.13300
N 	N 	0.84270 0.36250 0.37831 -0.22800
C 	C 	0.75375 0.50130 0.19723 0.44600
C 	C 	0.75434 0.48350 0.14087 -0.28600
H 	H 	0.72290 0.46010 0.10220 0.13100
H 	H 	0.76310 0.58250 0.13400 0.12500
C 	C 	0.82586 0.55170 0.11481 -0.07100
C 	C 	0.83517 0.70630 0.13080 0.00700
H 	H 	0.84770 0.73980 0.17200 0.04000
C 	C 	0.82561 0.81230 0.08440 -0.08400
H 	H 	0.83190 0.91740 0.09480 0.06900
C 	C 	0.80671 0.76230 0.02288 0.02200
H 	H 	0.80050 0.83360 0.99210 0.03400
C 	C 	0.79702 0.60520 0.00722 -0.09500
C 	C 	0.80655 0.49900 0.05364 0.01700
H 	H 	0.80000 0.39390 0.04360 0.05000
C 	C 	0.77585 0.54750 0.94043 0.34200
C 	C 	0.93799 0.42300 0.45020 0.08700
C 	C 	0.98720 0.46070 0.48640 -0.08400
H 	H 	0.00070 0.37510 0.48270 0.05600
C 	C 	0.15301 0.22210 0.71101 0.04400
C 	C 	0.10533 0.20320 0.67371 -0.02300
C 	C 	0.08528 0.06300 0.66929 0.02700
C 	C 	0.11666 0.94480 0.70486 -0.04100
C 	C 	0.16425 0.96520 0.74204 0.03800
C 	C 	0.03513 0.04280 0.63012 -0.02700
C 	C 	0.00498 0.98850 0.57671 -0.04200
C 	C 	0.95590 0.95770 0.54354 0.05400
C 	C 	0.92458 0.92170 0.47885 -0.07800
C 	C 	0.87800 0.89270 0.44725 0.02400
C 	C 	0.89002 0.93270 0.54199 0.04800
C 	C 	0.93666 0.96220 0.57373 -0.09800
C 	C 	0.35888 0.06450 0.85207 0.03800
C 	C 	0.40537 0.03340 0.88532 -0.12400
C 	C 	0.42110 0.14810 0.97624 -0.03900
C 	C 	0.37386 0.17590 0.94013 0.00500
H 	H 	0.16480 0.31900 0.71240 0.00600
H 	H 	0.08600 0.28800 0.65070 0.03700
H 	H 	0.10540 0.84710 0.70380 0.04200
H 	H 	0.18400 0.88150 0.76540 -0.00100
H 	H 	0.02350 0.07930 0.65020 0.04100
H 	H 	0.01490 0.96250 0.55340 0.03600
H 	H 	0.93530 0.91670 0.45540 0.04700
H 	H 	0.85840 0.87190 0.40320 0.02300
H 	H 	0.87840 0.93910 0.56420 0.02000
H 	H 	0.95590 0.98620 0.61750 0.06200
H 	H 	0.33770 0.03300 0.80920 0.00800
H 	H 	0.41510 0.98370 0.86480 0.07400
H 	H 	0.44150 0.17920 0.01920 0.03700
H 	H 	0.36340 0.22380 0.96010 0.01900
C 	C 	0.36414 0.83290 0.35498 0.00900
H 	H 	0.34690 0.79040 0.31380 0.02700
C 	C 	0.41078 0.86100 0.38788 -0.02300
H 	H 	0.42420 0.83880 0.36870 0.03800
C 	C 	0.41534 0.95920 0.47300 -0.11800
H 	H 	0.43160 0.00490 0.51350 0.06800
C 	C 	0.36827 0.92920 0.43703 0.04700
H 	H 	0.35370 0.95630 0.45410 -0.00300
C 	C 	0.15562 0.82400 0.18743 0.00900
H 	H 	0.16940 0.75920 0.17590 0.00300
C 	C 	0.10796 0.84420 0.14480 -0.10100
H 	H 	0.09070 0.79210 0.10540 0.05600
C 	C 	0.08485 0.93880 0.15823 0.02100
C 	C 	0.11325 0.01090 0.21711 -0.06600
H 	H 	0.09990 0.07710 0.22890 0.05800
C 	C 	0.16105 0.98900 0.25977 -0.00600
H 	H 	0.17870 0.03980 0.29940 0.02300
C 	C 	0.03444 0.95830 0.11250 -0.04200
H 	H 	0.01880 0.87810 0.08250 0.04100
C 	C 	0.00904 0.05990 0.10624 -0.07400
H 	H 	0.02460 0.14400 0.13410 0.05100
C 	C 	0.95847 0.07230 0.06250 0.04600
C 	C 	0.92932 0.97320 0.01138 -0.08900
H 	H 	0.94240 0.89340 0.00400 0.05300
C 	C 	0.88125 0.98770 0.97044 0.03300
H 	H 	0.86290 0.91460 0.93800 0.01700
C 	C 	0.88787 0.19960 0.02830 0.00400
H 	H 	0.87420 0.27490 0.03660 0.03800
C 	C 	0.93565 0.18620 0.06919 -0.07100
H 	H 	0.95330 0.25720 0.10280 0.05000
Mn	Mn	0.26283 0.87205 0.31378 1.27000
S 	S 	0.33614 0.91282 0.17211 0.38400
O 	O 	0.26326 0.88520 0.23236 -0.45300
O 	O 	0.24128 0.12920 0.20301 -0.49800
O 	O 	0.36062 0.99250 0.23236 -0.25400
O 	O 	0.35615 0.77610 0.16780 -0.24900
O 	O 	0.26696 0.90590 0.92944 -0.29500
O 	O 	0.26957 0.14690 0.90087 -0.43800
N 	N 	0.28576 0.86320 0.14889 -0.18200
H 	H 	0.27730 0.76730 0.14130 0.14500
N 	N 	0.18279 0.89540 0.24529 -0.22400
N 	N 	0.86061 0.10660 0.97690 -0.13200
N 	N 	0.34270 0.86250 0.37831 -0.22800
C 	C 	0.25375 0.00130 0.19723 0.44100
C 	C 	0.25434 0.98350 0.14087 -0.27900
H 	H 	0.22290 0.96010 0.10220 0.12900
H 	H 	0.26310 0.08250 0.13400 0.12100
C 	C 	0.32586 0.05170 0.11481 -0.08100
C 	C 	0.33517 0.20630 0.13080 0.01500
H 	H 	0.34770 0.23980 0.17200 0.03800
C 	C 	0.32561 0.31230 0.08440 -0.09100
H 	H 	0.33190 0.41740 0.09480 0.07200
C 	C 	0.30671 0.26230 0.02288 0.02900
H 	H 	0.30050 0.33360 0.99210 0.03200
C 	C 	0.29702 0.10520 0.00722 -0.10300
C 	C 	0.30655 0.99900 0.05364 0.03000
H 	H 	0.30000 0.89390 0.04360 0.04600
C 	C 	0.27585 0.04750 0.94043 0.34300
C 	C 	0.43799 0.92300 0.45020 0.08700
C 	C 	0.48720 0.96070 0.48640 -0.08400
H 	H 	0.50070 0.87510 0.48270 0.05600
C 	C 	0.65301 0.72210 0.71101 0.04500
C 	C 	0.60533 0.70320 0.67371 -0.02100
C 	C 	0.58528 0.56300 0.66929 0.02700
C 	C 	0.61666 0.44480 0.70486 -0.03900
C 	C 	0.66425 0.46520 0.74204 0.04700
C 	C 	0.53513 0.54280 0.63012 -0.02600
C 	C 	0.50498 0.48850 0.57671 -0.04100
C 	C 	0.45590 0.45770 0.54354 0.05500
C 	C 	0.42458 0.42170 0.47885 -0.08200
C 	C 	0.37800 0.39270 0.44725 0.02300
C 	C 	0.39002 0.43270 0.54199 0.04700
C 	C 	0.43666 0.46220 0.57373 -0.09900
C 	C 	0.85888 0.56450 0.85207 0.03500
C 	C 	0.90537 0.53340 0.88532 -0.12600
C 	C 	0.92110 0.64810 0.97624 -0.03800
C 	C 	0.87386 0.67590 0.94013 0.00100
H 	H 	0.66480 0.81900 0.71240 0.00500
H 	H 	0.58600 0.78800 0.65070 0.03600
H 	H 	0.60540 0.34710 0.70380 0.04100
H 	H 	0.68400 0.38150 0.76540 -0.00400
H 	H 	0.52350 0.57930 0.65020 0.04200
H 	H 	0.51490 0.46250 0.55340 0.03500
H 	H 	0.43530 0.41670 0.45540 0.04800
H 	H 	0.35840 0.37190 0.40320 0.02300
H 	H 	0.37840 0.43910 0.56420 0.02000
H 	H 	0.45590 0.48620 0.61750 0.06100
H 	H 	0.83770 0.53300 0.80920 0.00900
H 	H 	0.91510 0.48370 0.86480 0.07600
H 	H 	0.94150 0.67920 0.01920 0.03700
H 	H 	0.86340 0.72380 0.96010 0.02000
