data_crystal

_cell_length_a 28.47270
_cell_length_b 28.47270
_cell_length_c 28.47270
_cell_angle_alpha 96.52940
_cell_angle_beta  116.30500
_cell_angle_gamma 116.30500

_symmetry_space_group_name_	'P 1'
_symmetry_space_group_name_H-M	'P 1'

loop_
_symmetry_equiv_pos_as_xyz
  x,y,z

loop_
_atom_site_label
_atom_site_type_symbol
_atom_site_fract_x
_atom_site_fract_y
_atom_site_fract_z
_atom_site_charge
Zn	Zn	0.28133 0.07016 0.46156 1.13700
Zn	Zn	0.36618 0.10926 0.39496 1.18600
Zn	Zn	0.39047 0.14227 0.61238 1.18700
Zn	Zn	0.20303 0.91933 0.42664 1.17900
Zn	Zn	0.16857 0.11005 0.41637 1.18000
Zn	Zn	0.78133 0.31977 0.21116 1.13700
Zn	Zn	0.86618 0.47122 0.25692 1.18600
Zn	Zn	0.89047 0.27808 0.24820 1.18700
Zn	Zn	0.70303 0.27639 0.28370 1.17900
Zn	Zn	0.66856 0.25219 0.05852 1.18100
H 	H 	0.58700 0.27350 0.34770 0.05100
H 	H 	0.51420 0.24250 0.37090 0.04400
H 	H 	0.47540 0.08680 0.32120 0.04300
H 	H 	0.54810 0.11780 0.29790 0.05300
H 	H 	0.43470 0.20570 0.79900 0.05200
H 	H 	0.49470 0.22950 0.89460 0.04600
H 	H 	0.61620 0.20940 0.87740 0.03800
H 	H 	0.55610 0.18550 0.78160 0.05700
H 	H 	0.01970 0.00140 0.34910 0.06600
H 	H 	0.93160 0.91100 0.31040 0.03300
H 	H 	0.94200 0.83560 0.31600 0.03800
H 	H 	0.04040 0.85060 0.36020 0.06800
H 	H 	0.52380 0.20770 0.48390 0.06700
H 	H 	0.62190 0.27090 0.56760 0.03300
H 	H 	0.63240 0.28210 0.65450 0.03400
H 	H 	0.54480 0.23000 0.65760 0.07000
H 	H 	0.40730 0.05790 0.68560 0.06500
H 	H 	0.39300 0.97680 0.70260 0.03600
H 	H 	0.31790 0.88870 0.62900 0.04000
H 	H 	0.25710 0.88180 0.53830 0.05700
H 	H 	0.33090 0.18060 0.31070 0.06800
H 	H 	0.27930 0.21810 0.25880 0.03300
H 	H 	0.19820 0.21400 0.26220 0.03700
H 	H 	0.16870 0.17240 0.31750 0.07000
H 	H 	0.20460 0.21700 0.51660 0.06200
H 	H 	0.25100 0.28330 0.60430 0.03200
H 	H 	0.33700 0.29610 0.68330 0.03400
H 	H 	0.37640 0.24240 0.67440 0.06900
H 	H 	0.19860 0.84780 0.31980 0.06200
H 	H 	0.22120 0.82940 0.25400 0.03000
H 	H 	0.28730 0.90370 0.24200 0.03400
H 	H 	0.33090 0.99640 0.29590 0.07600
H 	H 	0.08700 0.73930 0.31350 0.05100
H 	H 	0.01420 0.64330 0.27170 0.04400
H 	H 	0.97540 0.65420 0.38860 0.04300
H 	H 	0.04810 0.75020 0.43030 0.05300
H 	H 	0.93470 0.13570 0.22900 0.05200
H 	H 	0.99470 0.10010 0.26520 0.04700
H 	H 	0.11620 0.23880 0.40680 0.03900
H 	H 	0.05610 0.27450 0.37060 0.05600
H 	H 	0.51970 0.17060 0.01830 0.06300
H 	H 	0.43160 0.12120 0.02060 0.03400
H 	H 	0.44200 0.12600 0.10640 0.03800
H 	H 	0.54040 0.18020 0.18980 0.06800
H 	H 	0.02380 0.53990 0.31610 0.06700
H 	H 	0.12190 0.55430 0.35100 0.03300
H 	H 	0.13240 0.47790 0.35030 0.03300
H 	H 	0.04480 0.38720 0.31480 0.07000
H 	H 	0.90730 0.22170 0.34940 0.06500
H 	H 	0.89300 0.19040 0.41620 0.03500
H 	H 	0.81790 0.18890 0.42920 0.04000
H 	H 	0.75710 0.21880 0.37530 0.05700
H 	H 	0.83090 0.52020 0.15030 0.06800
H 	H 	0.77930 0.52050 0.06120 0.03400
H 	H 	0.69820 0.43600 0.98420 0.03500
H 	H 	0.66870 0.35120 0.99630 0.06900
H 	H 	0.70460 0.18800 0.98760 0.06000
H 	H 	0.75100 0.14670 0.96770 0.02900
H 	H 	0.83700 0.15370 0.04090 0.03500
H 	H 	0.87640 0.20200 0.13400 0.06900
H 	H 	0.69860 0.37880 0.35080 0.06200
H 	H 	0.72120 0.46720 0.39180 0.03000
H 	H 	0.78730 0.54530 0.38360 0.03400
H 	H 	0.83090 0.53500 0.33450 0.07700
C 	C 	0.57426 0.19851 0.32059 -0.05600
C 	C 	0.56423 0.23555 0.34232 -0.03500
C 	C 	0.52110 0.21716 0.35612 -0.00300
C 	C 	0.48807 0.16181 0.34828 -0.09300
C 	C 	0.49812 0.12478 0.32656 -0.00200
C 	C 	0.54122 0.14315 0.31273 -0.03900
C 	C 	0.62250 0.21980 0.30550 0.31600
C 	C 	0.43830 0.14080 0.36310 0.39200
C 	C 	0.48976 0.19335 0.78129 -0.06600
C 	C 	0.47156 0.20642 0.81490 -0.02700
C 	C 	0.50718 0.22059 0.87173 -0.01400
C 	C 	0.56104 0.22169 0.89495 -0.08300
C 	C 	0.57926 0.20862 0.86136 -0.00600
C 	C 	0.54364 0.19447 0.80453 -0.03200
C 	C 	0.45020 0.17580 0.71760 0.34300
C 	C 	0.60010 0.23614 0.95844 0.34900
C 	C 	0.08873 0.93490 0.38103 0.06300
C 	C 	0.08255 0.97991 0.37768 0.06200
C 	C 	0.02386 0.97098 0.35132 -0.12400
C 	C 	0.97135 0.91708 0.32829 -0.00900
C 	C 	0.97754 0.87209 0.33163 -0.02000
C 	C 	0.03623 0.88100 0.35801 -0.11100
C 	C 	0.48193 0.18775 0.57280 0.06700
C 	C 	0.47566 0.18106 0.52072 0.06900
C 	C 	0.52808 0.21221 0.51875 -0.11500
C 	C 	0.58679 0.25003 0.56884 -0.01900
C 	C 	0.59308 0.25674 0.62092 -0.01700
C 	C 	0.54064 0.22559 0.62287 -0.11900
C 	C 	0.29583 0.96559 0.55772 0.06100
C 	C 	0.34071 0.01823 0.60170 0.06700
C 	C 	0.37702 0.02243 0.65587 -0.11500
C 	C 	0.36847 0.97400 0.66607 -0.01400
C 	C 	0.32358 0.92141 0.62203 -0.02100
C 	C 	0.28729 0.91719 0.56790 -0.11200
C 	C 	0.23208 0.15164 0.34706 0.06600
C 	C 	0.28047 0.15410 0.34505 0.06800
C 	C 	0.29812 0.17893 0.31209 -0.12000
C 	C 	0.26740 0.20131 0.28115 -0.01300
C 	C 	0.21902 0.19885 0.28317 -0.02100
C 	C 	0.20135 0.17402 0.31611 -0.11000
C 	C 	0.31400 0.19760 0.59022 0.07300
C 	C 	0.26271 0.19003 0.54310 0.06100
C 	C 	0.23925 0.22214 0.54845 -0.11700
C 	C 	0.26700 0.26182 0.60088 -0.02300
C 	C 	0.31828 0.26938 0.64796 -0.01900
C 	C 	0.34177 0.23725 0.64262 -0.11700
C 	C 	0.29067 0.97736 0.33997 0.07100
C 	C 	0.25115 0.93295 0.34708 0.06300
C 	C 	0.22517 0.87764 0.31493 -0.11900
C 	C 	0.23872 0.86672 0.27564 -0.02100
C 	C 	0.27822 0.91112 0.26852 -0.01800
C 	C 	0.30420 0.96643 0.30067 -0.11700
C 	C 	0.07426 0.75367 0.37575 -0.05600
C 	C 	0.06423 0.72191 0.32868 -0.03500
C 	C 	0.02110 0.66498 0.30394 -0.00500
C 	C 	0.98807 0.63979 0.32626 -0.09200
C 	C 	0.99812 0.67156 0.37334 -0.00000
C 	C 	0.04122 0.72849 0.39807 -0.04000
C 	C 	0.12250 0.81700 0.40270 0.31600
C 	C 	0.93830 0.57520 0.29750 0.39200
C 	C 	0.98976 0.20847 0.29641 -0.06700
C 	C 	0.97156 0.15666 0.26514 -0.02600
C 	C 	0.00718 0.13545 0.28659 -0.01600
C 	C 	0.06104 0.16609 0.33935 -0.08100
C 	C 	0.07926 0.21790 0.37064 -0.00700
C 	C 	0.04364 0.23911 0.34917 -0.03200
C 	C 	0.95020 0.23260 0.27440 0.34300
C 	C 	0.10010 0.14166 0.36396 0.34900
C 	C 	0.58873 0.20770 0.15383 0.06400
C 	C 	0.58255 0.20487 0.10264 0.06000
C 	C 	0.52386 0.17254 0.05288 -0.11700
C 	C 	0.47135 0.14306 0.05427 -0.01400
C 	C 	0.47754 0.14591 0.10545 -0.02000
C 	C 	0.53623 0.17822 0.15523 -0.11000
C 	C 	0.98193 0.40913 0.29418 0.06700
C 	C 	0.97566 0.45494 0.29460 0.06900
C 	C 	0.02808 0.50933 0.31587 -0.11700
C 	C 	0.08679 0.51795 0.33676 -0.01900
C 	C 	0.09308 0.47216 0.33634 -0.01700
C 	C 	0.04064 0.41777 0.31505 -0.12000
C 	C 	0.79583 0.23811 0.33024 0.06100
C 	C 	0.84071 0.23901 0.32248 0.06700
C 	C 	0.87702 0.22115 0.35459 -0.11500
C 	C 	0.86847 0.20240 0.39447 -0.01400
C 	C 	0.82358 0.20155 0.40217 -0.02100
C 	C 	0.78729 0.21939 0.37010 -0.11200
C 	C 	0.73208 0.38502 0.08044 0.06600
C 	C 	0.78047 0.43542 0.12637 0.06800
C 	C 	0.79812 0.48603 0.11919 -0.11900
C 	C 	0.76740 0.48625 0.06609 -0.01400
C 	C 	0.71902 0.43585 0.02017 -0.01900
C 	C 	0.70135 0.38524 0.02733 -0.10900
C 	C 	0.81400 0.22378 0.11640 0.07200
C 	C 	0.76271 0.21961 0.07268 0.06100
C 	C 	0.73925 0.19080 0.01711 -0.11600
C 	C 	0.76700 0.16612 0.00518 -0.02000
C 	C 	0.81828 0.17032 0.04890 -0.02100
C 	C 	0.84177 0.19915 0.10452 -0.11600
C 	C 	0.79067 0.45070 0.31331 0.07100
C 	C 	0.75115 0.40407 0.31820 0.06300
C 	C 	0.72517 0.41024 0.34753 -0.11800
C 	C 	0.73872 0.46308 0.37200 -0.02200
C 	C 	0.77822 0.50970 0.36710 -0.01700
C 	C 	0.80420 0.50353 0.33777 -0.11800
N 	N 	0.14047 0.02796 0.40141 -0.24700
N 	N 	0.18073 0.01265 0.41958 -0.20600
N 	N 	0.42451 0.15514 0.56185 -0.23900
N 	N 	0.15124 0.95672 0.40786 -0.22900
N 	N 	0.38473 0.12851 0.50572 -0.20200
N 	N 	0.41531 0.14278 0.48033 -0.24400
N 	N 	0.34021 0.05760 0.57917 -0.24600
N 	N 	0.29811 0.02941 0.52424 -0.19900
N 	N 	0.26930 0.97365 0.50949 -0.24700
N 	N 	0.30181 0.12956 0.37881 -0.24300
N 	N 	0.26679 0.11248 0.40043 -0.19800
N 	N 	0.22423 0.12532 0.38215 -0.22100
N 	N 	0.32667 0.16097 0.57332 -0.24600
N 	N 	0.28396 0.13228 0.51708 -0.20500
N 	N 	0.24527 0.14932 0.49845 -0.24000
N 	N 	0.30856 0.02585 0.37655 -0.24000
N 	N 	0.28072 0.01150 0.40426 -0.20500
N 	N 	0.24643 0.95549 0.38776 -0.24300
N 	N 	0.64047 0.23906 0.11251 -0.24700
N 	N 	0.68073 0.26115 0.16808 -0.20600
N 	N 	0.92451 0.36266 0.26937 -0.24000
N 	N 	0.65124 0.24338 0.19452 -0.22900
N 	N 	0.88473 0.37901 0.25622 -0.20200
N 	N 	0.91531 0.43498 0.27253 -0.24400
N 	N 	0.84021 0.26104 0.28261 -0.24600
N 	N 	0.79811 0.27387 0.26870 -0.19900
N 	N 	0.76930 0.25981 0.29565 -0.24700
N 	N 	0.80181 0.42300 0.17225 -0.24300
N 	N 	0.76679 0.36636 0.15431 -0.19800
N 	N 	0.72423 0.34208 0.09891 -0.22100
N 	N 	0.82667 0.25335 0.16570 -0.24600
N 	N 	0.78396 0.26688 0.15168 -0.20500
N 	N 	0.74527 0.24682 0.09595 -0.24000
N 	N 	0.80856 0.43201 0.28271 -0.24000
N 	N 	0.78072 0.37646 0.26922 -0.20600
N 	N 	0.74643 0.35867 0.29094 -0.24300
O 	O 	0.63810 0.18928 0.29218 -0.36800
O 	O 	0.64463 0.26906 0.30599 -0.47100
O 	O 	0.41758 0.09563 0.36625 -0.46000
O 	O 	0.42496 0.17208 0.37672 -0.45100
O 	O 	0.47031 0.17210 0.68881 -0.46300
O 	O 	0.39516 0.16277 0.69413 -0.39900
O 	O 	0.65108 0.24022 0.97912 -0.46100
O 	O 	0.58249 0.24340 0.98801 -0.41900
O 	O 	0.13810 0.84592 0.44882 -0.36800
O 	O 	0.14463 0.83864 0.37557 -0.47200
O 	O 	0.91758 0.55133 0.32195 -0.46000
O 	O 	0.92496 0.54824 0.25288 -0.45100
O 	O 	0.97031 0.28150 0.29821 -0.46300
O 	O 	0.89516 0.20103 0.23239 -0.39900
O 	O 	0.15108 0.17196 0.41086 -0.46000
O 	O 	0.08249 0.09448 0.33909 -0.41800
Zn	Zn	0.21867 0.68023 0.78884 1.13800
Zn	Zn	0.13382 0.52878 0.74308 1.18700
Zn	Zn	0.10953 0.72192 0.75180 1.18800
Zn	Zn	0.29697 0.72361 0.71630 1.18000
Zn	Zn	0.33144 0.74781 0.94148 1.18200
Zn	Zn	0.71867 0.92984 0.53844 1.13800
Zn	Zn	0.63382 0.89074 0.60504 1.18700
Zn	Zn	0.60953 0.85773 0.38762 1.18800
Zn	Zn	0.79697 0.08067 0.57336 1.18000
Zn	Zn	0.83144 0.88996 0.58364 1.18100
H 	H 	0.91300 0.26070 0.68650 0.05100
H 	H 	0.98580 0.35670 0.72830 0.04400
H 	H 	0.02460 0.34580 0.61140 0.04300
H 	H 	0.95190 0.24980 0.56970 0.05300
H 	H 	0.06530 0.86430 0.77100 0.05200
H 	H 	0.00530 0.89990 0.73480 0.04700
H 	H 	0.88380 0.76120 0.59320 0.03900
H 	H 	0.94390 0.72550 0.62940 0.05600
H 	H 	0.48030 0.82940 0.98170 0.06300
H 	H 	0.56840 0.87880 0.97940 0.03400
H 	H 	0.55800 0.87400 0.89360 0.03800
H 	H 	0.45960 0.81980 0.81020 0.06800
H 	H 	0.97620 0.46010 0.68390 0.06700
H 	H 	0.87810 0.44570 0.64900 0.03300
H 	H 	0.86760 0.52210 0.64970 0.03300
H 	H 	0.95520 0.61280 0.68520 0.07000
H 	H 	0.09270 0.77830 0.65060 0.06500
H 	H 	0.10700 0.80960 0.58380 0.03500
H 	H 	0.18210 0.81110 0.57080 0.04000
H 	H 	0.24290 0.78120 0.62470 0.05700
H 	H 	0.16910 0.47980 0.84970 0.06800
H 	H 	0.22070 0.47950 0.93880 0.03400
H 	H 	0.30180 0.56400 0.01580 0.03500
H 	H 	0.33130 0.64880 0.00370 0.06900
H 	H 	0.29540 0.81200 0.01240 0.06000
H 	H 	0.24900 0.85330 0.03230 0.02900
H 	H 	0.16300 0.84630 0.95910 0.03500
H 	H 	0.12360 0.79800 0.86600 0.06900
H 	H 	0.30140 0.62120 0.64920 0.06200
H 	H 	0.27880 0.53280 0.60820 0.03000
H 	H 	0.21270 0.45470 0.61640 0.03400
H 	H 	0.16910 0.46500 0.66550 0.07700
H 	H 	0.41300 0.72650 0.65230 0.05100
H 	H 	0.48580 0.75750 0.62910 0.04400
H 	H 	0.52460 0.91320 0.67880 0.04300
H 	H 	0.45190 0.88220 0.70210 0.05300
H 	H 	0.56530 0.79430 0.20100 0.05200
H 	H 	0.50530 0.77050 0.10540 0.04600
H 	H 	0.38380 0.79060 0.12260 0.03800
H 	H 	0.44390 0.81450 0.21840 0.05700
H 	H 	0.98030 0.99860 0.65090 0.06600
H 	H 	0.06840 0.08900 0.68960 0.03300
H 	H 	0.05800 0.16440 0.68400 0.03800
H 	H 	0.95960 0.14940 0.63980 0.06800
H 	H 	0.47620 0.79230 0.51610 0.06700
H 	H 	0.37810 0.72910 0.43240 0.03300
H 	H 	0.36760 0.71790 0.34550 0.03400
H 	H 	0.45520 0.77000 0.34240 0.07000
H 	H 	0.59270 0.94210 0.31440 0.06500
H 	H 	0.60700 0.02320 0.29740 0.03600
H 	H 	0.68210 0.11130 0.37100 0.04000
H 	H 	0.74290 0.11820 0.46170 0.05700
H 	H 	0.66910 0.81940 0.68930 0.06800
H 	H 	0.72070 0.78190 0.74120 0.03300
H 	H 	0.80180 0.78600 0.73780 0.03700
H 	H 	0.83130 0.82760 0.68250 0.07000
H 	H 	0.79540 0.78300 0.48340 0.06200
H 	H 	0.74900 0.71670 0.39570 0.03200
H 	H 	0.66300 0.70390 0.31670 0.03400
H 	H 	0.62360 0.75760 0.32560 0.06900
H 	H 	0.80140 0.15220 0.68020 0.06200
H 	H 	0.77880 0.17060 0.74600 0.03000
H 	H 	0.71270 0.09630 0.75800 0.03400
H 	H 	0.66910 0.00360 0.70410 0.07600
C 	C 	0.92574 0.24633 0.62425 -0.05600
C 	C 	0.93577 0.27809 0.67132 -0.03500
C 	C 	0.97890 0.33502 0.69606 -0.00500
C 	C 	0.01193 0.36021 0.67374 -0.09200
C 	C 	0.00188 0.32844 0.62666 -0.00000
C 	C 	0.95878 0.27151 0.60193 -0.04000
C 	C 	0.87750 0.18300 0.59730 0.31600
C 	C 	0.06170 0.42480 0.70250 0.39200
C 	C 	0.01024 0.79153 0.70359 -0.06700
C 	C 	0.02844 0.84334 0.73486 -0.02600
C 	C 	0.99282 0.86455 0.71341 -0.01600
C 	C 	0.93896 0.83391 0.66065 -0.08100
C 	C 	0.92074 0.78210 0.62936 -0.00700
C 	C 	0.95636 0.76089 0.65083 -0.03200
C 	C 	0.04980 0.76740 0.72560 0.34300
C 	C 	0.89990 0.85834 0.63604 0.34900
C 	C 	0.41127 0.79230 0.84617 0.06400
C 	C 	0.41745 0.79513 0.89736 0.06000
C 	C 	0.47614 0.82746 0.94712 -0.11700
C 	C 	0.52865 0.85694 0.94573 -0.01400
C 	C 	0.52246 0.85409 0.89455 -0.02000
C 	C 	0.46377 0.82178 0.84477 -0.11000
C 	C 	0.01807 0.59087 0.70582 0.06700
C 	C 	0.02434 0.54506 0.70540 0.06900
C 	C 	0.97192 0.49067 0.68413 -0.11700
C 	C 	0.91321 0.48205 0.66324 -0.01900
C 	C 	0.90692 0.52784 0.66366 -0.01700
C 	C 	0.95936 0.58223 0.68495 -0.12000
C 	C 	0.20417 0.76189 0.66976 0.06100
C 	C 	0.15929 0.76099 0.67752 0.06700
C 	C 	0.12298 0.77885 0.64541 -0.11500
C 	C 	0.13153 0.79760 0.60553 -0.01400
C 	C 	0.17642 0.79845 0.59783 -0.02100
C 	C 	0.21271 0.78061 0.62990 -0.11200
C 	C 	0.26792 0.61498 0.91956 0.06600
C 	C 	0.21953 0.56458 0.87363 0.06800
C 	C 	0.20188 0.51397 0.88081 -0.11900
C 	C 	0.23260 0.51375 0.93391 -0.01400
C 	C 	0.28098 0.56415 0.97983 -0.01900
C 	C 	0.29865 0.61476 0.97267 -0.10900
C 	C 	0.18600 0.77622 0.88360 0.07200
C 	C 	0.23729 0.78039 0.92732 0.06100
C 	C 	0.26075 0.80920 0.98289 -0.11600
C 	C 	0.23300 0.83388 0.99482 -0.02000
C 	C 	0.18172 0.82968 0.95110 -0.02100
C 	C 	0.15823 0.80085 0.89548 -0.11600
C 	C 	0.20933 0.54930 0.68669 0.07100
C 	C 	0.24885 0.59593 0.68180 0.06300
C 	C 	0.27483 0.58976 0.65247 -0.11800
C 	C 	0.26128 0.53692 0.62800 -0.02200
C 	C 	0.22178 0.49030 0.63290 -0.01700
C 	C 	0.19580 0.49647 0.66223 -0.11800
C 	C 	0.42574 0.80149 0.67941 -0.05600
C 	C 	0.43577 0.76445 0.65768 -0.03500
C 	C 	0.47890 0.78284 0.64388 -0.00300
C 	C 	0.51193 0.83819 0.65172 -0.09300
C 	C 	0.50188 0.87522 0.67344 -0.00200
C 	C 	0.45878 0.85685 0.68727 -0.03900
C 	C 	0.37750 0.78020 0.69450 0.31600
C 	C 	0.56170 0.85920 0.63690 0.39200
C 	C 	0.51024 0.80665 0.21871 -0.06600
C 	C 	0.52844 0.79358 0.18510 -0.02700
C 	C 	0.49282 0.77941 0.12827 -0.01400
C 	C 	0.43896 0.77831 0.10505 -0.08300
C 	C 	0.42074 0.79138 0.13864 -0.00600
C 	C 	0.45636 0.80553 0.19547 -0.03200
C 	C 	0.54980 0.82420 0.28240 0.34300
C 	C 	0.39990 0.76386 0.04156 0.34900
C 	C 	0.91127 0.06510 0.61897 0.06300
C 	C 	0.91745 0.02009 0.62232 0.06200
C 	C 	0.97614 0.02902 0.64868 -0.12400
C 	C 	0.02865 0.08292 0.67171 -0.00900
C 	C 	0.02246 0.12791 0.66837 -0.02000
C 	C 	0.96377 0.11900 0.64199 -0.11100
C 	C 	0.51807 0.81225 0.42720 0.06700
C 	C 	0.52434 0.81894 0.47928 0.06900
C 	C 	0.47192 0.78779 0.48125 -0.11500
C 	C 	0.41321 0.74997 0.43116 -0.01900
C 	C 	0.40692 0.74326 0.37908 -0.01700
C 	C 	0.45936 0.77441 0.37713 -0.11900
C 	C 	0.70417 0.03441 0.44228 0.06100
C 	C 	0.65929 0.98177 0.39830 0.06700
C 	C 	0.62298 0.97757 0.34413 -0.11500
C 	C 	0.63153 0.02600 0.33393 -0.01400
C 	C 	0.67642 0.07859 0.37797 -0.02100
C 	C 	0.71271 0.08281 0.43210 -0.11200
C 	C 	0.76792 0.84836 0.65294 0.06600
C 	C 	0.71953 0.84590 0.65495 0.06800
C 	C 	0.70188 0.82107 0.68791 -0.12000
C 	C 	0.73260 0.79869 0.71885 -0.01300
C 	C 	0.78098 0.80115 0.71683 -0.02100
C 	C 	0.79865 0.82598 0.68389 -0.11000
C 	C 	0.68600 0.80240 0.40978 0.07300
C 	C 	0.73729 0.80997 0.45690 0.06100
C 	C 	0.76075 0.77786 0.45155 -0.11700
C 	C 	0.73300 0.73818 0.39912 -0.02300
C 	C 	0.68172 0.73062 0.35204 -0.01900
C 	C 	0.65823 0.76275 0.35738 -0.11700
C 	C 	0.70933 0.02264 0.66003 0.07100
C 	C 	0.74885 0.06705 0.65292 0.06300
C 	C 	0.77483 0.12236 0.68507 -0.11900
C 	C 	0.76128 0.13328 0.72436 -0.02100
C 	C 	0.72178 0.08888 0.73148 -0.01800
C 	C 	0.69580 0.03357 0.69933 -0.11700
N 	N 	0.35953 0.76094 0.88749 -0.24700
N 	N 	0.31927 0.73885 0.83192 -0.20600
N 	N 	0.07549 0.63734 0.73063 -0.24000
N 	N 	0.34876 0.75662 0.80548 -0.22900
N 	N 	0.11527 0.62099 0.74378 -0.20200
N 	N 	0.08469 0.56502 0.72747 -0.24400
N 	N 	0.15979 0.73896 0.71739 -0.24600
N 	N 	0.20189 0.72613 0.73130 -0.19900
N 	N 	0.23070 0.74019 0.70435 -0.24700
N 	N 	0.19819 0.57700 0.82775 -0.24300
N 	N 	0.23321 0.63364 0.84569 -0.19800
N 	N 	0.27577 0.65792 0.90109 -0.22100
N 	N 	0.17333 0.74665 0.83430 -0.24600
N 	N 	0.21604 0.73312 0.84832 -0.20500
N 	N 	0.25473 0.75318 0.90405 -0.24000
N 	N 	0.19144 0.56799 0.71729 -0.24000
N 	N 	0.21928 0.62354 0.73078 -0.20600
N 	N 	0.25357 0.64133 0.70906 -0.24300
N 	N 	0.85953 0.97204 0.59859 -0.24700
N 	N 	0.81927 0.98735 0.58042 -0.20600
N 	N 	0.57549 0.84486 0.43815 -0.23900
N 	N 	0.84876 0.04328 0.59214 -0.22900
N 	N 	0.61527 0.87149 0.49428 -0.20200
N 	N 	0.58469 0.85722 0.51967 -0.24400
N 	N 	0.65979 0.94240 0.42083 -0.24600
N 	N 	0.70189 0.97059 0.47576 -0.19900
N 	N 	0.73070 0.02635 0.49051 -0.24700
N 	N 	0.69819 0.87044 0.62119 -0.24300
N 	N 	0.73321 0.88752 0.59957 -0.19800
N 	N 	0.77577 0.87468 0.61785 -0.22100
N 	N 	0.67333 0.83903 0.42668 -0.24600
N 	N 	0.71604 0.86772 0.48292 -0.20500
N 	N 	0.75473 0.85068 0.50155 -0.24000
N 	N 	0.69144 0.97415 0.62345 -0.24000
N 	N 	0.71928 0.98850 0.59574 -0.20500
N 	N 	0.75357 0.04451 0.61224 -0.24300
O 	O 	0.86190 0.15408 0.55118 -0.36800
O 	O 	0.85537 0.16136 0.62443 -0.47200
O 	O 	0.08242 0.44867 0.67805 -0.46000
O 	O 	0.07504 0.45176 0.74712 -0.45100
O 	O 	0.02969 0.71850 0.70179 -0.46300
O 	O 	0.10484 0.79897 0.76761 -0.39900
O 	O 	0.84892 0.82804 0.58914 -0.46000
O 	O 	0.91751 0.90552 0.66091 -0.41800
O 	O 	0.36190 0.81072 0.70782 -0.36800
O 	O 	0.35537 0.73094 0.69401 -0.47100
O 	O 	0.58242 0.90437 0.63375 -0.46000
O 	O 	0.57504 0.82792 0.62328 -0.45100
O 	O 	0.52969 0.82790 0.31119 -0.46300
O 	O 	0.60484 0.83723 0.30587 -0.39900
O 	O 	0.34892 0.75978 0.02088 -0.46100
O 	O 	0.41751 0.75660 0.01199 -0.41900
Zn	Zn	0.39139 0.46156 0.68022 1.13800
Zn	Zn	0.28570 0.39496 0.52878 1.18700
Zn	Zn	0.47011 0.61238 0.72191 1.18800
Zn	Zn	0.50731 0.42664 0.72361 1.18000
Zn	Zn	0.30633 0.41637 0.74781 1.18100
Zn	Zn	0.89139 0.21116 0.92983 1.13800
Zn	Zn	0.78570 0.25692 0.89074 1.18700
Zn	Zn	0.97011 0.24820 0.85772 1.18700
Zn	Zn	0.00731 0.28370 0.08067 1.18000
Zn	Zn	0.80633 0.05853 0.88996 1.18100
H 	H 	0.07420 0.34770 0.26070 0.05100
H 	H 	0.12840 0.37090 0.35670 0.04400
H 	H 	0.23440 0.32120 0.34580 0.04300
H 	H 	0.18010 0.29790 0.24980 0.05300
H 	H 	0.59330 0.79900 0.86430 0.05200
H 	H 	0.66510 0.89460 0.89990 0.04700
H 	H 	0.66800 0.87740 0.76120 0.03900
H 	H 	0.59610 0.78160 0.72550 0.05600
H 	H 	0.34770 0.34910 0.82940 0.06300
H 	H 	0.39940 0.31040 0.87880 0.03500
H 	H 	0.48040 0.31600 0.87400 0.03700
H 	H 	0.50960 0.36020 0.81980 0.06800
H 	H 	0.27620 0.48390 0.46010 0.06700
H 	H 	0.29670 0.56760 0.44570 0.03300
H 	H 	0.37240 0.65450 0.52210 0.03400
H 	H 	0.42760 0.65760 0.61280 0.07000
H 	H 	0.62770 0.68560 0.77830 0.06500
H 	H 	0.72580 0.70260 0.80960 0.03500
H 	H 	0.74030 0.62900 0.81110 0.04000
H 	H 	0.65650 0.53830 0.78120 0.05700
H 	H 	0.13010 0.31070 0.47980 0.06800
H 	H 	0.04070 0.25880 0.47950 0.03300
H 	H 	0.04820 0.26220 0.56400 0.03700
H 	H 	0.14510 0.31750 0.64880 0.07000
H 	H 	0.29960 0.51660 0.81200 0.06200
H 	H 	0.32100 0.60430 0.85330 0.03200
H 	H 	0.38720 0.68330 0.84630 0.03400
H 	H 	0.43200 0.67440 0.79800 0.06900
H 	H 	0.47200 0.31980 0.62120 0.06200
H 	H 	0.42460 0.25400 0.53280 0.03000
H 	H 	0.33830 0.24200 0.45470 0.03400
H 	H 	0.29950 0.29590 0.46500 0.07700
H 	H 	0.57420 0.31350 0.72650 0.05200
H 	H 	0.62840 0.27170 0.75750 0.04400
H 	H 	0.73440 0.38860 0.91320 0.04200
H 	H 	0.68010 0.43030 0.88220 0.05300
H 	H 	0.09330 0.22900 0.79430 0.05200
H 	H 	0.16510 0.26520 0.77050 0.04700
H 	H 	0.16800 0.40680 0.79060 0.03800
H 	H 	0.09610 0.37060 0.81450 0.05700
H 	H 	0.84770 0.01830 0.99860 0.05900
H 	H 	0.89940 0.02060 0.08900 0.03600
H 	H 	0.98040 0.10640 0.16440 0.03800
H 	H 	0.00960 0.18980 0.14940 0.06700
H 	H 	0.77620 0.31610 0.79230 0.06700
H 	H 	0.79670 0.35100 0.72910 0.03300
H 	H 	0.87240 0.35030 0.71790 0.03400
H 	H 	0.92760 0.31480 0.77000 0.06900
H 	H 	0.12770 0.34940 0.94210 0.06500
H 	H 	0.22580 0.41620 0.02320 0.03600
H 	H 	0.24030 0.42920 0.11130 0.03900
H 	H 	0.15650 0.37530 0.11820 0.05700
H 	H 	0.63010 0.15030 0.81940 0.06800
H 	H 	0.54070 0.06120 0.78190 0.03300
H 	H 	0.54820 0.98420 0.78600 0.03700
H 	H 	0.64510 0.99630 0.82760 0.07100
H 	H 	0.79960 0.98760 0.78300 0.06300
H 	H 	0.82100 0.96770 0.71670 0.03300
H 	H 	0.88720 0.04090 0.70390 0.03300
H 	H 	0.93200 0.13400 0.75760 0.06900
H 	H 	0.97200 0.35080 0.15220 0.06200
H 	H 	0.92460 0.39180 0.17060 0.03000
H 	H 	0.83830 0.38360 0.09630 0.03300
H 	H 	0.79950 0.33450 0.00360 0.07700
C 	C 	0.12208 0.32059 0.24633 -0.05600
C 	C 	0.10677 0.34232 0.27809 -0.03500
C 	C 	0.13896 0.35612 0.33502 -0.00300
C 	C 	0.18647 0.34828 0.36021 -0.09300
C 	C 	0.20178 0.32656 0.32844 -0.00200
C 	C 	0.16958 0.31273 0.27151 -0.03900
C 	C 	0.08570 0.30550 0.18300 0.31600
C 	C 	0.22230 0.36310 0.42480 0.39200
C 	C 	0.58794 0.78129 0.79153 -0.06600
C 	C 	0.60848 0.81490 0.84334 -0.02700
C 	C 	0.65114 0.87173 0.86455 -0.01400
C 	C 	0.67326 0.89495 0.83391 -0.08200
C 	C 	0.65274 0.86136 0.78210 -0.00700
C 	C 	0.61006 0.80453 0.76089 -0.03200
C 	C 	0.54180 0.71760 0.76740 0.34300
C 	C 	0.72230 0.95844 0.85834 0.34900
C 	C 	0.44613 0.38103 0.79230 0.06400
C 	C 	0.39777 0.37768 0.79513 0.06000
C 	C 	0.38034 0.35132 0.82746 -0.11700
C 	C 	0.41121 0.32829 0.85694 -0.01400
C 	C 	0.45954 0.33163 0.85409 -0.02000
C 	C 	0.47701 0.35801 0.82178 -0.11000
C 	C 	0.38505 0.57280 0.59087 0.06700
C 	C 	0.33966 0.52072 0.54506 0.06900
C 	C 	0.30654 0.51875 0.49067 -0.11500
C 	C 	0.31881 0.56884 0.48205 -0.01900
C 	C 	0.36418 0.62092 0.52784 -0.01700
C 	C 	0.39728 0.62287 0.58223 -0.11900
C 	C 	0.59213 0.55772 0.76189 0.06100
C 	C 	0.58347 0.60170 0.76099 0.06600
C 	C 	0.63344 0.65587 0.77885 -0.11500
C 	C 	0.69207 0.66607 0.79760 -0.01400
C 	C 	0.70062 0.62203 0.79845 -0.02100
C 	C 	0.65071 0.56790 0.78061 -0.11200
C 	C 	0.19542 0.34706 0.61498 0.06600
C 	C 	0.19095 0.34505 0.56458 0.06800
C 	C 	0.13316 0.31209 0.51397 -0.12000
C 	C 	0.07984 0.28115 0.51375 -0.01200
C 	C 	0.08432 0.28317 0.56415 -0.02100
C 	C 	0.14209 0.31611 0.61476 -0.10900
C 	C 	0.39262 0.59022 0.77622 0.07300
C 	C 	0.35307 0.54310 0.78039 0.06100
C 	C 	0.32631 0.54845 0.80920 -0.11700
C 	C 	0.33906 0.60088 0.83388 -0.02300
C 	C 	0.37858 0.64796 0.82968 -0.01900
C 	C 	0.40537 0.64262 0.80085 -0.11700
C 	C 	0.36261 0.33997 0.54930 0.07100
C 	C 	0.41413 0.34708 0.59593 0.06300
C 	C 	0.43729 0.31493 0.58976 -0.11800
C 	C 	0.40892 0.27564 0.53692 -0.02200
C 	C 	0.35740 0.26852 0.49030 -0.01700
C 	C 	0.33424 0.30067 0.49647 -0.11800
C 	C 	0.62208 0.37575 0.80149 -0.05600
C 	C 	0.60677 0.32868 0.76445 -0.03600
C 	C 	0.63896 0.30394 0.78284 -0.00300
C 	C 	0.68647 0.32626 0.83819 -0.09400
C 	C 	0.70178 0.37334 0.87522 -0.00100
C 	C 	0.66958 0.39807 0.85685 -0.03900
C 	C 	0.58570 0.40270 0.78020 0.31600
C 	C 	0.72230 0.29750 0.85920 0.39300
C 	C 	0.08794 0.29641 0.80665 -0.06600
C 	C 	0.10848 0.26514 0.79358 -0.02700
C 	C 	0.15114 0.28659 0.77941 -0.01400
C 	C 	0.17326 0.33935 0.77831 -0.08200
C 	C 	0.15274 0.37064 0.79138 -0.00600
C 	C 	0.11006 0.34917 0.80553 -0.03300
C 	C 	0.04180 0.27440 0.82420 0.34200
C 	C 	0.22230 0.36396 0.76386 0.34900
C 	C 	0.94613 0.15383 0.06510 0.06400
C 	C 	0.89777 0.10264 0.02009 0.06000
C 	C 	0.88034 0.05288 0.02902 -0.11200
C 	C 	0.91121 0.05427 0.08292 -0.01700
C 	C 	0.95954 0.10545 0.12791 -0.01900
C 	C 	0.97701 0.15523 0.11900 -0.10800
C 	C 	0.88505 0.29418 0.81225 0.06600
C 	C 	0.83966 0.29460 0.81894 0.06800
C 	C 	0.80654 0.31587 0.78779 -0.11600
C 	C 	0.81881 0.33676 0.74997 -0.01900
C 	C 	0.86418 0.33634 0.74326 -0.01700
C 	C 	0.89728 0.31505 0.77441 -0.11900
C 	C 	0.09213 0.33024 0.03441 0.05900
C 	C 	0.08347 0.32248 0.98177 0.06800
C 	C 	0.13344 0.35459 0.97757 -0.11200
C 	C 	0.19207 0.39447 0.02600 -0.01800
C 	C 	0.20062 0.40217 0.07859 -0.01900
C 	C 	0.15071 0.37010 0.08281 -0.11200
C 	C 	0.69542 0.08044 0.84836 0.06600
C 	C 	0.69095 0.12637 0.84590 0.06800
C 	C 	0.63316 0.11919 0.82107 -0.12000
C 	C 	0.57984 0.06609 0.79869 -0.01300
C 	C 	0.58432 0.02017 0.80115 -0.02100
C 	C 	0.64209 0.02733 0.82598 -0.11100
C 	C 	0.89262 0.11640 0.80240 0.07200
C 	C 	0.85307 0.07268 0.80997 0.06100
C 	C 	0.82631 0.01711 0.77786 -0.11800
C 	C 	0.83906 0.00518 0.73818 -0.02500
C 	C 	0.87858 0.04890 0.73062 -0.01800
C 	C 	0.90537 0.10452 0.76275 -0.11700
C 	C 	0.86261 0.31331 0.02264 0.07400
C 	C 	0.91413 0.31820 0.06705 0.06200
C 	C 	0.93729 0.34753 0.12236 -0.11700
C 	C 	0.90892 0.37200 0.13328 -0.02200
C 	C 	0.85740 0.36710 0.08888 -0.01600
C 	C 	0.83424 0.33777 0.03357 -0.11900
N 	N 	0.37345 0.40141 0.76094 -0.24700
N 	N 	0.40693 0.41958 0.73885 -0.20600
N 	N 	0.40671 0.56185 0.63734 -0.23900
N 	N 	0.45114 0.40786 0.75662 -0.22900
N 	N 	0.37721 0.50572 0.62099 -0.20200
N 	N 	0.33755 0.48033 0.56502 -0.24400
N 	N 	0.52157 0.57917 0.73896 -0.24600
N 	N 	0.49483 0.52424 0.72613 -0.19900
N 	N 	0.53584 0.50949 0.74019 -0.24700
N 	N 	0.24925 0.37881 0.57700 -0.24300
N 	N 	0.28795 0.40043 0.63364 -0.19800
N 	N 	0.25683 0.38215 0.65792 -0.22100
N 	N 	0.41235 0.57332 0.74665 -0.24600
N 	N 	0.38480 0.51708 0.73312 -0.20500
N 	N 	0.34913 0.49845 0.75318 -0.24000
N 	N 	0.35070 0.37655 0.56799 -0.24000
N 	N 	0.39276 0.40426 0.62354 -0.20600
N 	N 	0.43227 0.38776 0.64133 -0.24300
N 	N 	0.87345 0.11251 0.97204 -0.24800
N 	N 	0.90693 0.16808 0.98735 -0.20800
N 	N 	0.90671 0.26937 0.84486 -0.24000
N 	N 	0.95114 0.19452 0.04328 -0.22800
N 	N 	0.87721 0.25622 0.87149 -0.20200
N 	N 	0.83755 0.27253 0.85722 -0.24400
N 	N 	0.02157 0.28261 0.94240 -0.24500
N 	N 	0.99483 0.26870 0.97059 -0.20100
N 	N 	0.03584 0.29565 0.02635 -0.24700
N 	N 	0.74925 0.17225 0.87044 -0.24300
N 	N 	0.78795 0.15431 0.88752 -0.19800
N 	N 	0.75683 0.09891 0.87468 -0.22200
N 	N 	0.91235 0.16570 0.83903 -0.24700
N 	N 	0.88480 0.15168 0.86772 -0.20500
N 	N 	0.84913 0.09595 0.85068 -0.24000
N 	N 	0.85070 0.28271 0.97415 -0.24100
N 	N 	0.89276 0.26922 0.98850 -0.20700
N 	N 	0.93227 0.29094 0.04451 -0.24100
O 	O 	0.10290 0.29218 0.15408 -0.36900
O 	O 	0.03693 0.30599 0.16136 -0.47200
O 	O 	0.27062 0.36625 0.44867 -0.46000
O 	O 	0.20464 0.37672 0.45176 -0.45100
O 	O 	0.51671 0.68881 0.71850 -0.46300
O 	O 	0.53136 0.69413 0.79897 -0.39900
O 	O 	0.73890 0.97912 0.82804 -0.46000
O 	O 	0.74461 0.98801 0.90552 -0.41800
O 	O 	0.60290 0.44882 0.81072 -0.36800
O 	O 	0.53693 0.37557 0.73094 -0.47100
O 	O 	0.77062 0.32195 0.90437 -0.46100
O 	O 	0.70464 0.25288 0.82792 -0.45100
O 	O 	0.01671 0.29821 0.82790 -0.46200
O 	O 	0.03136 0.23239 0.83723 -0.39800
O 	O 	0.23890 0.41086 0.75978 -0.46000
O 	O 	0.24461 0.33909 0.75660 -0.41800
Zn	Zn	0.10861 0.78884 0.07017 1.13800
Zn	Zn	0.21430 0.74308 0.10926 1.18700
Zn	Zn	0.02989 0.75180 0.14228 1.18700
Zn	Zn	0.99269 0.71630 0.91933 1.18000
Zn	Zn	0.19367 0.94147 0.11004 1.18100
Zn	Zn	0.60861 0.53844 0.31978 1.13800
Zn	Zn	0.71430 0.60504 0.47122 1.18700
Zn	Zn	0.52989 0.38762 0.27809 1.18800
Zn	Zn	0.49269 0.57336 0.27639 1.18000
Zn	Zn	0.69367 0.58363 0.25219 1.18100
H 	H 	0.42580 0.68650 0.27350 0.05200
H 	H 	0.37160 0.72830 0.24250 0.04400
H 	H 	0.26560 0.61140 0.08680 0.04200
H 	H 	0.31990 0.56970 0.11780 0.05300
H 	H 	0.90670 0.77100 0.20570 0.05200
H 	H 	0.83490 0.73480 0.22950 0.04700
H 	H 	0.83200 0.59320 0.20940 0.03800
H 	H 	0.90390 0.62940 0.18550 0.05700
H 	H 	0.15230 0.98170 0.00140 0.05900
H 	H 	0.10060 0.97940 0.91100 0.03600
H 	H 	0.01960 0.89360 0.83560 0.03800
H 	H 	0.99040 0.81020 0.85060 0.06700
H 	H 	0.22380 0.68390 0.20770 0.06700
H 	H 	0.20330 0.64900 0.27090 0.03300
H 	H 	0.12760 0.64970 0.28210 0.03400
H 	H 	0.07240 0.68520 0.23000 0.06900
H 	H 	0.87230 0.65060 0.05790 0.06500
H 	H 	0.77420 0.58380 0.97680 0.03600
H 	H 	0.75970 0.57080 0.88870 0.03900
H 	H 	0.84350 0.62470 0.88180 0.05700
H 	H 	0.36990 0.84970 0.18060 0.06800
H 	H 	0.45930 0.93880 0.21810 0.03300
H 	H 	0.45180 0.01580 0.21400 0.03700
H 	H 	0.35490 0.00370 0.17240 0.07100
H 	H 	0.20040 0.01240 0.21700 0.06300
H 	H 	0.17900 0.03230 0.28330 0.03300
H 	H 	0.11280 0.95910 0.29610 0.03300
H 	H 	0.06800 0.86600 0.24240 0.06900
H 	H 	0.02800 0.64920 0.84780 0.06200
H 	H 	0.07540 0.60820 0.82940 0.03000
H 	H 	0.16170 0.61640 0.90370 0.03300
H 	H 	0.20050 0.66550 0.99640 0.07700
H 	H 	0.92580 0.65230 0.73930 0.05100
H 	H 	0.87160 0.62910 0.64330 0.04400
H 	H 	0.76560 0.67880 0.65420 0.04300
H 	H 	0.81990 0.70210 0.75020 0.05300
H 	H 	0.40670 0.20100 0.13570 0.05200
H 	H 	0.33490 0.10540 0.10010 0.04700
H 	H 	0.33200 0.12260 0.23880 0.03900
H 	H 	0.40390 0.21840 0.27450 0.05600
H 	H 	0.65230 0.65090 0.17060 0.06300
H 	H 	0.60060 0.68960 0.12120 0.03500
H 	H 	0.51960 0.68400 0.12600 0.03700
H 	H 	0.49040 0.63980 0.18020 0.06800
H 	H 	0.72380 0.51610 0.53990 0.06700
H 	H 	0.70330 0.43240 0.55430 0.03300
H 	H 	0.62760 0.34550 0.47790 0.03400
H 	H 	0.57240 0.34240 0.38720 0.07000
H 	H 	0.37230 0.31440 0.22170 0.06500
H 	H 	0.27420 0.29740 0.19040 0.03500
H 	H 	0.25970 0.37100 0.18890 0.04000
H 	H 	0.34350 0.46170 0.21880 0.05700
H 	H 	0.86990 0.68930 0.52020 0.06800
H 	H 	0.95930 0.74120 0.52050 0.03300
H 	H 	0.95180 0.73780 0.43600 0.03700
H 	H 	0.85490 0.68250 0.35120 0.07000
H 	H 	0.70040 0.48340 0.18800 0.06200
H 	H 	0.67900 0.39570 0.14670 0.03200
H 	H 	0.61280 0.31670 0.15370 0.03400
H 	H 	0.56800 0.32560 0.20200 0.06900
H 	H 	0.52800 0.68020 0.37880 0.06200
H 	H 	0.57540 0.74600 0.46720 0.03000
H 	H 	0.66170 0.75800 0.54530 0.03400
H 	H 	0.70050 0.70410 0.53500 0.07700
C 	C 	0.37792 0.62425 0.19851 -0.05600
C 	C 	0.39323 0.67132 0.23555 -0.03600
C 	C 	0.36104 0.69606 0.21716 -0.00300
C 	C 	0.31353 0.67374 0.16181 -0.09400
C 	C 	0.29822 0.62666 0.12478 -0.00100
C 	C 	0.33042 0.60193 0.14315 -0.03900
C 	C 	0.41430 0.59730 0.21980 0.31600
C 	C 	0.27770 0.70250 0.14080 0.39300
C 	C 	0.91206 0.70359 0.19335 -0.06600
C 	C 	0.89152 0.73486 0.20642 -0.02700
C 	C 	0.84886 0.71341 0.22059 -0.01400
C 	C 	0.82674 0.66065 0.22169 -0.08200
C 	C 	0.84726 0.62936 0.20862 -0.00600
C 	C 	0.88994 0.65083 0.19447 -0.03300
C 	C 	0.95820 0.72560 0.17580 0.34200
C 	C 	0.77770 0.63604 0.23614 0.34900
C 	C 	0.05387 0.84617 0.93490 0.06400
C 	C 	0.10223 0.89736 0.97991 0.06000
C 	C 	0.11966 0.94712 0.97098 -0.11200
C 	C 	0.08879 0.94573 0.91708 -0.01700
C 	C 	0.04046 0.89455 0.87209 -0.01900
C 	C 	0.02299 0.84477 0.88100 -0.10800
C 	C 	0.11495 0.70582 0.18775 0.06600
C 	C 	0.16034 0.70540 0.18106 0.06800
C 	C 	0.19346 0.68413 0.21221 -0.11600
C 	C 	0.18119 0.66324 0.25003 -0.01900
C 	C 	0.13582 0.66366 0.25674 -0.01700
C 	C 	0.10272 0.68495 0.22559 -0.11900
C 	C 	0.90787 0.66976 0.96559 0.05900
C 	C 	0.91653 0.67752 0.01823 0.06800
C 	C 	0.86656 0.64541 0.02243 -0.11200
C 	C 	0.80793 0.60553 0.97400 -0.01800
C 	C 	0.79938 0.59783 0.92141 -0.01900
C 	C 	0.84929 0.62990 0.91719 -0.11200
C 	C 	0.30458 0.91956 0.15164 0.06600
C 	C 	0.30905 0.87363 0.15410 0.06800
C 	C 	0.36684 0.88081 0.17893 -0.12000
C 	C 	0.42016 0.93391 0.20131 -0.01300
C 	C 	0.41568 0.97983 0.19885 -0.02100
C 	C 	0.35791 0.97267 0.17402 -0.11100
C 	C 	0.10738 0.88360 0.19760 0.07200
C 	C 	0.14693 0.92732 0.19003 0.06100
C 	C 	0.17369 0.98289 0.22214 -0.11800
C 	C 	0.16094 0.99482 0.26182 -0.02500
C 	C 	0.12142 0.95110 0.26938 -0.01800
C 	C 	0.09463 0.89548 0.23725 -0.11700
C 	C 	0.13739 0.68669 0.97736 0.07400
C 	C 	0.08587 0.68180 0.93295 0.06200
C 	C 	0.06271 0.65247 0.87764 -0.11700
C 	C 	0.09108 0.62800 0.86672 -0.02200
C 	C 	0.14260 0.63290 0.91112 -0.01600
C 	C 	0.16576 0.66223 0.96643 -0.11900
C 	C 	0.87792 0.67941 0.75367 -0.05600
C 	C 	0.89323 0.65768 0.72191 -0.03500
C 	C 	0.86104 0.64388 0.66498 -0.00300
C 	C 	0.81353 0.65172 0.63979 -0.09300
C 	C 	0.79822 0.67344 0.67156 -0.00200
C 	C 	0.83042 0.68727 0.72849 -0.03900
C 	C 	0.91430 0.69450 0.81700 0.31600
C 	C 	0.77770 0.63690 0.57520 0.39200
C 	C 	0.41206 0.21871 0.20847 -0.06600
C 	C 	0.39152 0.18510 0.15666 -0.02700
C 	C 	0.34886 0.12827 0.13545 -0.01400
C 	C 	0.32674 0.10505 0.16609 -0.08200
C 	C 	0.34726 0.13864 0.21790 -0.00700
C 	C 	0.38994 0.19547 0.23911 -0.03200
C 	C 	0.45820 0.28240 0.23260 0.34300
C 	C 	0.27770 0.04156 0.14166 0.34900
C 	C 	0.55387 0.61897 0.20770 0.06400
C 	C 	0.60223 0.62232 0.20487 0.06000
C 	C 	0.61966 0.64868 0.17254 -0.11700
C 	C 	0.58879 0.67171 0.14306 -0.01400
C 	C 	0.54046 0.66837 0.14591 -0.02000
C 	C 	0.52299 0.64199 0.17822 -0.11000
C 	C 	0.61495 0.42720 0.40913 0.06700
C 	C 	0.66034 0.47928 0.45494 0.06900
C 	C 	0.69346 0.48125 0.50933 -0.11500
C 	C 	0.68119 0.43116 0.51795 -0.01900
C 	C 	0.63582 0.37908 0.47216 -0.01700
C 	C 	0.60272 0.37713 0.41777 -0.11900
C 	C 	0.40787 0.44228 0.23811 0.06100
C 	C 	0.41653 0.39830 0.23901 0.06600
C 	C 	0.36656 0.34413 0.22115 -0.11500
C 	C 	0.30793 0.33393 0.20240 -0.01400
C 	C 	0.29938 0.37797 0.20155 -0.02100
C 	C 	0.34929 0.43210 0.21939 -0.11200
C 	C 	0.80458 0.65294 0.38502 0.06600
C 	C 	0.80905 0.65495 0.43542 0.06800
C 	C 	0.86684 0.68791 0.48603 -0.12000
C 	C 	0.92016 0.71885 0.48625 -0.01200
C 	C 	0.91568 0.71683 0.43585 -0.02100
C 	C 	0.85791 0.68389 0.38524 -0.10900
C 	C 	0.60738 0.40978 0.22378 0.07300
C 	C 	0.64693 0.45690 0.21961 0.06100
C 	C 	0.67369 0.45155 0.19080 -0.11700
C 	C 	0.66094 0.39912 0.16612 -0.02300
C 	C 	0.62142 0.35204 0.17032 -0.01900
C 	C 	0.59463 0.35738 0.19915 -0.11700
C 	C 	0.63739 0.66003 0.45070 0.07100
C 	C 	0.58587 0.65292 0.40407 0.06300
C 	C 	0.56271 0.68507 0.41024 -0.11800
C 	C 	0.59108 0.72436 0.46308 -0.02200
C 	C 	0.64260 0.73148 0.50970 -0.01700
C 	C 	0.66576 0.69933 0.50353 -0.11800
N 	N 	0.12655 0.88749 0.02796 -0.24800
N 	N 	0.09307 0.83192 0.01265 -0.20800
N 	N 	0.09329 0.73063 0.15514 -0.24000
N 	N 	0.04886 0.80548 0.95672 -0.22800
N 	N 	0.12279 0.74378 0.12851 -0.20200
N 	N 	0.16245 0.72747 0.14278 -0.24400
N 	N 	0.97843 0.71739 0.05760 -0.24500
N 	N 	0.00517 0.73130 0.02941 -0.20100
N 	N 	0.96416 0.70435 0.97365 -0.24700
N 	N 	0.25075 0.82775 0.12956 -0.24300
N 	N 	0.21205 0.84569 0.11248 -0.19800
N 	N 	0.24317 0.90109 0.12532 -0.22200
N 	N 	0.08765 0.83430 0.16097 -0.24700
N 	N 	0.11520 0.84832 0.13228 -0.20500
N 	N 	0.15087 0.90405 0.14932 -0.24000
N 	N 	0.14930 0.71729 0.02585 -0.24100
N 	N 	0.10724 0.73078 0.01150 -0.20700
N 	N 	0.06773 0.70906 0.95549 -0.24100
N 	N 	0.62655 0.59859 0.23906 -0.24700
N 	N 	0.59307 0.58042 0.26115 -0.20600
N 	N 	0.59329 0.43815 0.36266 -0.23900
N 	N 	0.54886 0.59214 0.24338 -0.22900
N 	N 	0.62279 0.49428 0.37901 -0.20200
N 	N 	0.66245 0.51967 0.43498 -0.24400
N 	N 	0.47843 0.42083 0.26104 -0.24600
N 	N 	0.50517 0.47576 0.27387 -0.19900
N 	N 	0.46416 0.49051 0.25981 -0.24700
N 	N 	0.75075 0.62119 0.42300 -0.24300
N 	N 	0.71205 0.59957 0.36636 -0.19800
N 	N 	0.74317 0.61785 0.34208 -0.22100
N 	N 	0.58765 0.42668 0.25335 -0.24600
N 	N 	0.61520 0.48292 0.26688 -0.20500
N 	N 	0.65087 0.50155 0.24682 -0.24000
N 	N 	0.64930 0.62345 0.43201 -0.24000
N 	N 	0.60724 0.59574 0.37646 -0.20600
N 	N 	0.56773 0.61224 0.35867 -0.24300
O 	O 	0.39710 0.55118 0.18928 -0.36800
O 	O 	0.46307 0.62443 0.26906 -0.47100
O 	O 	0.22938 0.67805 0.09563 -0.46100
O 	O 	0.29536 0.74712 0.17208 -0.45100
O 	O 	0.98329 0.70179 0.17210 -0.46200
O 	O 	0.96864 0.76761 0.16277 -0.39800
O 	O 	0.76110 0.58914 0.24022 -0.46000
O 	O 	0.75539 0.66091 0.24340 -0.41800
O 	O 	0.89710 0.70782 0.84592 -0.36900
O 	O 	0.96307 0.69401 0.83864 -0.47200
O 	O 	0.72938 0.63375 0.55133 -0.46000
O 	O 	0.79536 0.62328 0.54824 -0.45100
O 	O 	0.48329 0.31119 0.28150 -0.46300
O 	O 	0.46864 0.30587 0.20103 -0.39900
O 	O 	0.26110 0.02088 0.17196 -0.46000
O 	O 	0.25539 0.01199 0.09448 -0.41800
