data_crystal

_cell_length_a 24.66610
_cell_length_b 24.66610
_cell_length_c 24.66610
_cell_angle_alpha 109.47100
_cell_angle_beta  109.47100
_cell_angle_gamma 109.47100

_symmetry_space_group_name_	'P 1'
_symmetry_space_group_name_H-M	'P 1'

loop_
_symmetry_equiv_pos_as_xyz
  x,y,z

loop_
_atom_site_label
_atom_site_type_symbol
_atom_site_fract_x
_atom_site_fract_y
_atom_site_fract_z
_atom_site_charge
Ni	Ni	0.08020 0.08945 0.40686 1.13600
Ni	Ni	0.68259 0.67334 0.59313 1.13600
Ni	Ni	0.31741 0.91055 0.99075 1.12900
Ni	Ni	0.91980 0.32666 0.00926 1.13700
Ni	Ni	0.99075 0.31741 0.91055 1.12900
Ni	Ni	0.00925 0.91979 0.32666 1.13700
Ni	Ni	0.40686 0.08020 0.08945 1.13700
Ni	Ni	0.59314 0.68260 0.67334 1.13700
Ni	Ni	0.67334 0.59314 0.68259 1.13700
Ni	Ni	0.08946 0.40687 0.08021 1.13700
Ni	Ni	0.32666 0.00925 0.91980 1.13800
Ni	Ni	0.91054 0.99074 0.31740 1.13000
H 	H 	0.18280 0.10930 0.59430 0.03300
H 	H 	0.24220 0.11260 0.69420 0.06500
H 	H 	0.20990 0.93350 0.59400 0.06800
H 	H 	0.14810 0.92650 0.49240 0.03100
H 	H 	0.30100 0.11750 0.77970 0.07900
H 	H 	0.33860 0.11150 0.87270 0.00300
H 	H 	0.26250 0.92150 0.77420 0.01300
H 	H 	0.22200 0.91890 0.67250 0.07500
H 	H 	0.12810 0.92030 0.23260 0.06300
H 	H 	0.16570 0.86930 0.15960 0.06200
H 	H 	0.22180 0.12020 0.34360 0.04600
H 	H 	0.51500 0.58850 0.40570 0.03200
H 	H 	0.41840 0.54800 0.30580 0.06400
H 	H 	0.33950 0.61590 0.40600 0.06500
H 	H 	0.43410 0.65570 0.50760 0.02800
H 	H 	0.33780 0.52130 0.22030 0.07800
H 	H 	0.23880 0.46590 0.12730 0.00600
H 	H 	0.14730 0.48830 0.22580 0.01200
H 	H 	0.24640 0.54950 0.32750 0.07200
H 	H 	0.68770 0.89550 0.76740 0.04600
H 	H 	0.70970 0.00610 0.84040 0.04800
H 	H 	0.77660 0.87820 0.65640 0.03400
H 	H 	0.48500 0.89070 0.07350 0.03400
H 	H 	0.58160 0.88740 0.12960 0.06300
H 	H 	0.66050 0.06650 0.27640 0.06200
H 	H 	0.56590 0.07350 0.22160 0.02700
H 	H 	0.66220 0.88250 0.18350 0.07800
H 	H 	0.76120 0.88850 0.22710 0.00600
H 	H 	0.85270 0.07850 0.34100 0.00900
H 	H 	0.75360 0.08110 0.30310 0.07000
H 	H 	0.31230 0.07970 0.20780 0.05500
H 	H 	0.29030 0.13070 0.29640 0.06100
H 	H 	0.22340 0.87980 0.10160 0.04500
H 	H 	0.81720 0.41150 0.92650 0.03000
H 	H 	0.75780 0.45200 0.87040 0.06300
H 	H 	0.79010 0.38410 0.72360 0.06500
H 	H 	0.85190 0.34430 0.77840 0.02700
H 	H 	0.69900 0.47870 0.81650 0.07700
H 	H 	0.66140 0.53410 0.77290 0.00500
H 	H 	0.73750 0.51170 0.65900 0.01100
H 	H 	0.77800 0.45050 0.69690 0.07100
H 	H 	0.87190 0.10450 0.79220 0.06900
H 	H 	0.83430 0.99390 0.70360 0.07100
H 	H 	0.77820 0.12180 0.89840 0.05300
H 	H 	0.07350 0.48500 0.89070 0.03400
H 	H 	0.12960 0.58160 0.88740 0.06300
H 	H 	0.27640 0.66050 0.06650 0.06200
H 	H 	0.22160 0.56590 0.07350 0.02700
H 	H 	0.18350 0.66220 0.88250 0.07800
H 	H 	0.22710 0.76120 0.88850 0.00600
H 	H 	0.34100 0.85270 0.07850 0.00900
H 	H 	0.30310 0.75360 0.08110 0.07000
H 	H 	0.20780 0.31230 0.07970 0.05500
H 	H 	0.29640 0.29030 0.13070 0.06100
H 	H 	0.10160 0.22340 0.87980 0.04500
H 	H 	0.92650 0.81720 0.41150 0.03000
H 	H 	0.87040 0.75780 0.45200 0.06300
H 	H 	0.72360 0.79010 0.38410 0.06500
H 	H 	0.77840 0.85190 0.34430 0.02700
H 	H 	0.81650 0.69900 0.47870 0.07700
H 	H 	0.77290 0.66140 0.53410 0.00500
H 	H 	0.65900 0.73750 0.51170 0.01100
H 	H 	0.69690 0.77800 0.45050 0.07100
H 	H 	0.79220 0.87190 0.10450 0.06900
H 	H 	0.70360 0.83430 0.99390 0.07100
H 	H 	0.89840 0.77820 0.12180 0.05300
H 	H 	0.59430 0.18280 0.10930 0.03300
H 	H 	0.69420 0.24220 0.11260 0.06500
H 	H 	0.59400 0.20990 0.93350 0.06800
H 	H 	0.49240 0.14810 0.92650 0.03100
H 	H 	0.77970 0.30100 0.11750 0.07900
H 	H 	0.87270 0.33860 0.11150 0.00300
H 	H 	0.77420 0.26250 0.92150 0.01300
H 	H 	0.67250 0.22200 0.91890 0.07500
H 	H 	0.23260 0.12810 0.92030 0.06300
H 	H 	0.15960 0.16570 0.86930 0.06200
H 	H 	0.34360 0.22180 0.12020 0.04600
H 	H 	0.40570 0.51500 0.58850 0.03200
H 	H 	0.30580 0.41840 0.54800 0.06400
H 	H 	0.40600 0.33950 0.61590 0.06500
H 	H 	0.50760 0.43410 0.65570 0.02800
H 	H 	0.22030 0.33780 0.52130 0.07800
H 	H 	0.12730 0.23880 0.46590 0.00600
H 	H 	0.22580 0.14730 0.48830 0.01200
H 	H 	0.32750 0.24640 0.54950 0.07200
H 	H 	0.76740 0.68770 0.89550 0.04600
H 	H 	0.84040 0.70970 0.00610 0.04800
H 	H 	0.65640 0.77660 0.87820 0.03400
H 	H 	0.58850 0.40570 0.51500 0.03200
H 	H 	0.54800 0.30580 0.41840 0.06400
H 	H 	0.61590 0.40600 0.33950 0.06500
H 	H 	0.65570 0.50760 0.43410 0.02800
H 	H 	0.52130 0.22030 0.33780 0.07800
H 	H 	0.46590 0.12730 0.23880 0.00600
H 	H 	0.48830 0.22580 0.14730 0.01200
H 	H 	0.54950 0.32750 0.24640 0.07200
H 	H 	0.89550 0.76740 0.68770 0.04600
H 	H 	0.00610 0.84040 0.70970 0.04800
H 	H 	0.87820 0.65640 0.77660 0.03400
H 	H 	0.10930 0.59430 0.18280 0.03300
H 	H 	0.11260 0.69420 0.24220 0.06500
H 	H 	0.93350 0.59400 0.20990 0.06800
H 	H 	0.92650 0.49240 0.14810 0.03100
H 	H 	0.11750 0.77970 0.30100 0.07900
H 	H 	0.11150 0.87270 0.33860 0.00300
H 	H 	0.92150 0.77420 0.26250 0.01300
H 	H 	0.91890 0.67250 0.22200 0.07500
H 	H 	0.92030 0.23260 0.12810 0.06300
H 	H 	0.86930 0.15960 0.16570 0.06200
H 	H 	0.12020 0.34360 0.22180 0.04600
H 	H 	0.41150 0.92650 0.81720 0.03000
H 	H 	0.45200 0.87040 0.75780 0.06300
H 	H 	0.38410 0.72360 0.79010 0.06500
H 	H 	0.34430 0.77840 0.85190 0.02700
H 	H 	0.47870 0.81650 0.69900 0.07700
H 	H 	0.53410 0.77290 0.66140 0.00500
H 	H 	0.51170 0.65900 0.73750 0.01100
H 	H 	0.45050 0.69690 0.77800 0.07100
H 	H 	0.10450 0.79220 0.87190 0.06900
H 	H 	0.99390 0.70360 0.83430 0.07100
H 	H 	0.12180 0.89840 0.77820 0.05300
H 	H 	0.89070 0.07350 0.48500 0.03400
H 	H 	0.88740 0.12960 0.58160 0.06300
H 	H 	0.06650 0.27640 0.66050 0.06200
H 	H 	0.07350 0.22160 0.56590 0.02700
H 	H 	0.88250 0.18350 0.66220 0.07800
H 	H 	0.88850 0.22710 0.76120 0.00600
H 	H 	0.07850 0.34100 0.85270 0.00900
H 	H 	0.08110 0.30310 0.75360 0.07000
H 	H 	0.07970 0.20780 0.31230 0.05500
H 	H 	0.13070 0.29640 0.29030 0.06100
H 	H 	0.87980 0.10160 0.22340 0.04500
C 	C 	0.11786 0.01292 0.47056 0.41400
C 	C 	0.15809 0.01632 0.53385 -0.11800
C 	C 	0.18640 0.07179 0.59297 0.04600
C 	C 	0.22153 0.07339 0.65288 -0.10500
C 	C 	0.22593 0.01936 0.65189 0.05800
C 	C 	0.20265 0.96920 0.59507 -0.12300
C 	C 	0.16623 0.96522 0.53333 0.04000
C 	C 	0.25336 0.01974 0.71612 0.07400
C 	C 	0.29036 0.07540 0.77636 -0.14900
C 	C 	0.31193 0.07103 0.83150 0.10400
C 	C 	0.26850 0.96180 0.77490 0.07300
C 	C 	0.24380 0.95906 0.71338 -0.13800
C 	C 	0.11979 0.01033 0.31846 0.39400
C 	C 	0.16646 0.01714 0.29012 -0.06300
C 	C 	0.15982 0.96312 0.24458 -0.04600
C 	C 	0.20035 0.96908 0.21335 0.01800
C 	C 	0.19372 0.91181 0.16763 -0.08100
C 	C 	0.21608 0.08177 0.31051 0.00700
C 	C 	0.54236 0.64730 0.52944 0.40200
C 	C 	0.48247 0.62424 0.46615 -0.12900
C 	C 	0.47882 0.59343 0.40703 0.04600
C 	C 	0.42051 0.56865 0.34712 -0.10400
C 	C 	0.36747 0.57404 0.34811 0.04500
C 	C 	0.37413 0.60758 0.40493 -0.10900
C 	C 	0.43189 0.63290 0.46667 0.05000
C 	C 	0.30362 0.53724 0.28388 0.06500
C 	C 	0.29904 0.51400 0.22364 -0.14600
C 	C 	0.23953 0.48043 0.16850 0.09900
C 	C 	0.18690 0.49360 0.22510 0.08000
C 	C 	0.24568 0.53042 0.28662 -0.12700
C 	C 	0.69187 0.80133 0.68154 0.39000
C 	C 	0.72702 0.87634 0.70988 -0.10000
C 	C 	0.71854 0.91524 0.75542 -0.00100
C 	C 	0.75573 0.98700 0.78665 -0.03200
C 	C 	0.74418 0.02609 0.83237 -0.03500
C 	C 	0.77126 0.90557 0.68949 0.03700
C 	C 	0.45764 0.98708 0.10494 0.38900
C 	C 	0.51753 0.98368 0.14177 -0.13600
C 	C 	0.52118 0.92821 0.11461 0.04400
C 	C 	0.57949 0.92661 0.14814 -0.10000
C 	C 	0.63253 0.98064 0.20657 0.03100
C 	C 	0.62587 0.03080 0.23345 -0.09300
C 	C 	0.56811 0.03478 0.20101 0.05800
C 	C 	0.69638 0.98026 0.23362 0.05700
C 	C 	0.70096 0.92460 0.21496 -0.14400
C 	C 	0.76047 0.92897 0.24090 0.09600
C 	C 	0.81310 0.03820 0.30670 0.08800
C 	C 	0.75432 0.04094 0.28474 -0.11700
C 	C 	0.30813 0.98967 0.10946 0.37100
C 	C 	0.27298 0.98286 0.14932 -0.08700
C 	C 	0.28146 0.03688 0.19670 -0.01600
C 	C 	0.24427 0.03092 0.23127 0.03200
C 	C 	0.25582 0.08819 0.28191 -0.07800
C 	C 	0.22874 0.91823 0.13431 0.01200
C 	C 	0.88214 0.35270 0.89506 0.40300
C 	C 	0.84191 0.37576 0.85823 -0.13100
C 	C 	0.81360 0.40657 0.88539 0.04600
C 	C 	0.77847 0.43135 0.85186 -0.10600
C 	C 	0.77407 0.42596 0.79343 0.04500
C 	C 	0.79735 0.39242 0.76655 -0.11100
C 	C 	0.83377 0.36710 0.79899 0.05100
C 	C 	0.74664 0.46276 0.76638 0.06300
C 	C 	0.70964 0.48600 0.78504 -0.14600
C 	C 	0.68807 0.51957 0.75910 0.09900
C 	C 	0.73150 0.50640 0.69330 0.08000
C 	C 	0.75620 0.46958 0.71526 -0.12700
C 	C 	0.88021 0.19867 0.89054 0.37600
C 	C 	0.83354 0.12366 0.85068 -0.05500
C 	C 	0.84018 0.08476 0.80330 -0.06300
C 	C 	0.79965 0.01300 0.76873 0.08000
C 	C 	0.80628 0.97391 0.71809 -0.12700
C 	C 	0.78392 0.09443 0.86569 -0.01900
C 	C 	0.10494 0.45764 0.98708 0.38900
C 	C 	0.14177 0.51753 0.98368 -0.13600
C 	C 	0.11461 0.52118 0.92821 0.04400
C 	C 	0.14814 0.57949 0.92661 -0.10000
C 	C 	0.20657 0.63253 0.98064 0.03100
C 	C 	0.23345 0.62587 0.03080 -0.09300
C 	C 	0.20101 0.56811 0.03478 0.05800
C 	C 	0.23362 0.69638 0.98026 0.05700
C 	C 	0.21496 0.70096 0.92460 -0.14400
C 	C 	0.24090 0.76047 0.92897 0.09600
C 	C 	0.30670 0.81310 0.03820 0.08800
C 	C 	0.28474 0.75432 0.04094 -0.11700
C 	C 	0.10946 0.30813 0.98967 0.37100
C 	C 	0.14932 0.27298 0.98286 -0.08700
C 	C 	0.19670 0.28146 0.03688 -0.01600
C 	C 	0.23127 0.24427 0.03092 0.03200
C 	C 	0.28191 0.25582 0.08819 -0.07800
C 	C 	0.13431 0.22874 0.91823 0.01200
C 	C 	0.89506 0.88214 0.35270 0.40300
C 	C 	0.85823 0.84191 0.37576 -0.13100
C 	C 	0.88539 0.81360 0.40657 0.04600
C 	C 	0.85186 0.77847 0.43135 -0.10600
C 	C 	0.79343 0.77407 0.42596 0.04500
C 	C 	0.76655 0.79735 0.39242 -0.11100
C 	C 	0.79899 0.83377 0.36710 0.05100
C 	C 	0.76638 0.74664 0.46276 0.06300
C 	C 	0.78504 0.70964 0.48600 -0.14600
C 	C 	0.75910 0.68807 0.51957 0.09900
C 	C 	0.69330 0.73150 0.50640 0.08000
C 	C 	0.71526 0.75620 0.46958 -0.12700
C 	C 	0.89054 0.88021 0.19867 0.37600
C 	C 	0.85068 0.83354 0.12366 -0.05500
C 	C 	0.80330 0.84018 0.08476 -0.06300
C 	C 	0.76873 0.79965 0.01300 0.08000
C 	C 	0.71809 0.80628 0.97391 -0.12700
C 	C 	0.86569 0.78392 0.09443 -0.01900
C 	C 	0.47056 0.11786 0.01292 0.41400
C 	C 	0.53385 0.15809 0.01632 -0.11800
C 	C 	0.59297 0.18640 0.07179 0.04600
C 	C 	0.65288 0.22153 0.07339 -0.10500
C 	C 	0.65189 0.22593 0.01936 0.05800
C 	C 	0.59507 0.20265 0.96920 -0.12300
C 	C 	0.53333 0.16623 0.96522 0.04000
C 	C 	0.71612 0.25336 0.01974 0.07400
C 	C 	0.77636 0.29036 0.07540 -0.14900
C 	C 	0.83150 0.31193 0.07103 0.10400
C 	C 	0.77490 0.26850 0.96180 0.07300
C 	C 	0.71338 0.24380 0.95906 -0.13800
C 	C 	0.31846 0.11979 0.01033 0.39400
C 	C 	0.29012 0.16646 0.01714 -0.06300
C 	C 	0.24458 0.15982 0.96312 -0.04600
C 	C 	0.21335 0.20035 0.96908 0.01800
C 	C 	0.16763 0.19372 0.91181 -0.08100
C 	C 	0.31051 0.21608 0.08177 0.00700
C 	C 	0.52944 0.54236 0.64730 0.40200
C 	C 	0.46615 0.48247 0.62424 -0.12900
C 	C 	0.40703 0.47882 0.59343 0.04600
C 	C 	0.34712 0.42051 0.56865 -0.10400
C 	C 	0.34811 0.36747 0.57404 0.04500
C 	C 	0.40493 0.37413 0.60758 -0.10900
C 	C 	0.46667 0.43189 0.63290 0.05000
C 	C 	0.28388 0.30362 0.53724 0.06500
C 	C 	0.22364 0.29904 0.51400 -0.14600
C 	C 	0.16850 0.23953 0.48043 0.09900
C 	C 	0.22510 0.18690 0.49360 0.08000
C 	C 	0.28662 0.24568 0.53042 -0.12700
C 	C 	0.68154 0.69187 0.80133 0.39000
C 	C 	0.70988 0.72702 0.87634 -0.10000
C 	C 	0.75542 0.71854 0.91524 -0.00100
C 	C 	0.78665 0.75573 0.98700 -0.03200
C 	C 	0.83237 0.74418 0.02609 -0.03500
C 	C 	0.68949 0.77126 0.90557 0.03700
C 	C 	0.64730 0.52944 0.54236 0.40200
C 	C 	0.62424 0.46615 0.48247 -0.12900
C 	C 	0.59343 0.40703 0.47882 0.04600
C 	C 	0.56865 0.34712 0.42051 -0.10400
C 	C 	0.57404 0.34811 0.36747 0.04500
C 	C 	0.60758 0.40493 0.37413 -0.10900
C 	C 	0.63290 0.46667 0.43189 0.05000
C 	C 	0.53724 0.28388 0.30362 0.06500
C 	C 	0.51400 0.22364 0.29904 -0.14600
C 	C 	0.48043 0.16850 0.23953 0.09900
C 	C 	0.49360 0.22510 0.18690 0.08000
C 	C 	0.53042 0.28662 0.24568 -0.12700
C 	C 	0.80133 0.68154 0.69187 0.39000
C 	C 	0.87634 0.70988 0.72702 -0.10000
C 	C 	0.91524 0.75542 0.71854 -0.00100
C 	C 	0.98700 0.78665 0.75573 -0.03200
C 	C 	0.02609 0.83237 0.74418 -0.03500
C 	C 	0.90557 0.68949 0.77126 0.03700
C 	C 	0.01292 0.47056 0.11786 0.41400
C 	C 	0.01632 0.53385 0.15809 -0.11800
C 	C 	0.07179 0.59297 0.18640 0.04600
C 	C 	0.07339 0.65288 0.22153 -0.10500
C 	C 	0.01936 0.65189 0.22593 0.05800
C 	C 	0.96920 0.59507 0.20265 -0.12300
C 	C 	0.96522 0.53333 0.16623 0.04000
C 	C 	0.01974 0.71612 0.25336 0.07400
C 	C 	0.07540 0.77636 0.29036 -0.14900
C 	C 	0.07103 0.83150 0.31193 0.10400
C 	C 	0.96180 0.77490 0.26850 0.07300
C 	C 	0.95906 0.71338 0.24380 -0.13800
C 	C 	0.01033 0.31846 0.11979 0.39400
C 	C 	0.01714 0.29012 0.16646 -0.06300
C 	C 	0.96312 0.24458 0.15982 -0.04600
C 	C 	0.96908 0.21335 0.20035 0.01800
C 	C 	0.91181 0.16763 0.19372 -0.08100
C 	C 	0.08177 0.31051 0.21608 0.00700
C 	C 	0.35270 0.89506 0.88214 0.40300
C 	C 	0.37576 0.85823 0.84191 -0.13100
C 	C 	0.40657 0.88539 0.81360 0.04600
C 	C 	0.43135 0.85186 0.77847 -0.10600
C 	C 	0.42596 0.79343 0.77407 0.04500
C 	C 	0.39242 0.76655 0.79735 -0.11100
C 	C 	0.36710 0.79899 0.83377 0.05100
C 	C 	0.46276 0.76638 0.74664 0.06300
C 	C 	0.48600 0.78504 0.70964 -0.14600
C 	C 	0.51957 0.75910 0.68807 0.09900
C 	C 	0.50640 0.69330 0.73150 0.08000
C 	C 	0.46958 0.71526 0.75620 -0.12700
C 	C 	0.19867 0.89054 0.88021 0.37600
C 	C 	0.12366 0.85068 0.83354 -0.05500
C 	C 	0.08476 0.80330 0.84018 -0.06300
C 	C 	0.01300 0.76873 0.79965 0.08000
C 	C 	0.97391 0.71809 0.80628 -0.12700
C 	C 	0.09443 0.86569 0.78392 -0.01900
C 	C 	0.98708 0.10494 0.45764 0.38900
C 	C 	0.98368 0.14177 0.51753 -0.13600
C 	C 	0.92821 0.11461 0.52118 0.04400
C 	C 	0.92661 0.14814 0.57949 -0.10000
C 	C 	0.98064 0.20657 0.63253 0.03100
C 	C 	0.03080 0.23345 0.62587 -0.09300
C 	C 	0.03478 0.20101 0.56811 0.05800
C 	C 	0.98026 0.23362 0.69638 0.05700
C 	C 	0.92460 0.21496 0.70096 -0.14400
C 	C 	0.92897 0.24090 0.76047 0.09600
C 	C 	0.03820 0.30670 0.81310 0.08800
C 	C 	0.04094 0.28474 0.75432 -0.11700
C 	C 	0.98967 0.10946 0.30813 0.37100
C 	C 	0.98286 0.14932 0.27298 -0.08700
C 	C 	0.03688 0.19670 0.28146 -0.01600
C 	C 	0.03092 0.23127 0.24427 0.03200
C 	C 	0.08819 0.28191 0.25582 -0.07800
C 	C 	0.91823 0.13431 0.22874 0.01200
N 	N 	0.29967 0.01572 0.83393 -0.20900
N 	N 	0.18179 0.46574 0.16607 -0.21400
N 	N 	0.81821 0.98428 0.28395 -0.22100
N 	N 	0.70033 0.53426 0.71605 -0.21400
N 	N 	0.28395 0.81821 0.98428 -0.22100
N 	N 	0.71605 0.70033 0.53426 -0.21400
N 	N 	0.83393 0.29967 0.01572 -0.20900
N 	N 	0.16607 0.18179 0.46574 -0.21400
N 	N 	0.46574 0.16607 0.18179 -0.21400
N 	N 	0.01572 0.83393 0.29967 -0.20900
N 	N 	0.53426 0.71605 0.70033 -0.21400
N 	N 	0.98428 0.28395 0.81821 -0.22100
O 	O 	0.11724 0.06558 0.47686 -0.41600
O 	O 	0.08809 0.95962 0.41939 -0.43100
O 	O 	0.12996 0.06310 0.35962 -0.41200
O 	O 	0.07448 0.95300 0.29510 -0.41300
O 	O 	0.58872 0.64038 0.52314 -0.41500
O 	O 	0.54023 0.66870 0.58061 -0.42100
O 	O 	0.70348 0.77034 0.64038 -0.41400
O 	O 	0.65790 0.77938 0.70490 -0.40700
O 	O 	0.41128 0.93442 0.05166 -0.40900
O 	O 	0.45977 0.04038 0.12847 -0.41000
O 	O 	0.29652 0.93690 0.06686 -0.40600
O 	O 	0.34210 0.04700 0.12148 -0.39400
O 	O 	0.88276 0.35962 0.94834 -0.42100
O 	O 	0.91191 0.33130 0.87153 -0.42500
O 	O 	0.87004 0.22966 0.93314 -0.41500
O 	O 	0.92552 0.22062 0.87852 -0.40700
O 	O 	0.05166 0.41128 0.93442 -0.40900
O 	O 	0.12847 0.45977 0.04038 -0.41000
O 	O 	0.06686 0.29652 0.93690 -0.40600
O 	O 	0.12148 0.34210 0.04700 -0.39400
O 	O 	0.94834 0.88276 0.35962 -0.42100
O 	O 	0.87153 0.91191 0.33130 -0.42500
O 	O 	0.93314 0.87004 0.22966 -0.41500
O 	O 	0.87852 0.92552 0.22062 -0.40700
O 	O 	0.47686 0.11724 0.06558 -0.41600
O 	O 	0.41939 0.08809 0.95962 -0.43100
O 	O 	0.35962 0.12996 0.06310 -0.41200
O 	O 	0.29510 0.07448 0.95300 -0.41300
O 	O 	0.52314 0.58872 0.64038 -0.41500
O 	O 	0.58061 0.54023 0.66870 -0.42100
O 	O 	0.64038 0.70348 0.77034 -0.41400
O 	O 	0.70490 0.65790 0.77938 -0.40700
O 	O 	0.64038 0.52314 0.58872 -0.41500
O 	O 	0.66870 0.58061 0.54023 -0.42100
O 	O 	0.77034 0.64038 0.70348 -0.41400
O 	O 	0.77938 0.70490 0.65790 -0.40700
O 	O 	0.06558 0.47686 0.11724 -0.41600
O 	O 	0.95962 0.41939 0.08809 -0.43100
O 	O 	0.06310 0.35962 0.12996 -0.41200
O 	O 	0.95300 0.29510 0.07448 -0.41300
O 	O 	0.35962 0.94834 0.88276 -0.42100
O 	O 	0.33130 0.87153 0.91191 -0.42500
O 	O 	0.22966 0.93314 0.87004 -0.41500
O 	O 	0.22062 0.87852 0.92552 -0.40700
O 	O 	0.93442 0.05166 0.41128 -0.40900
O 	O 	0.04038 0.12847 0.45977 -0.41000
O 	O 	0.93690 0.06686 0.29652 -0.40600
O 	O 	0.04700 0.12148 0.34210 -0.39400
O 	O 	-0.00000 -0.00000 0.34858 -0.55300
O 	O 	0.65142 0.65142 0.65142 -0.56700
O 	O 	0.34858 0.00000 -0.00000 -0.55300
O 	O 	0.00000 0.34858 -0.00000 -0.55300
