data_crystal

_cell_length_a 36.13270
_cell_length_b 36.13280
_cell_length_c 36.13280
_cell_angle_alpha 60.14280
_cell_angle_beta  89.75250
_cell_angle_gamma 119.85700

_symmetry_space_group_name_	'P 1'
_symmetry_space_group_name_H-M	'P 1'

loop_
_symmetry_equiv_pos_as_xyz
  x,y,z

loop_
_atom_site_label
_atom_site_type_symbol
_atom_site_fract_x
_atom_site_fract_y
_atom_site_fract_z
_atom_site_charge
Zn	Zn	0.22556 0.33520 0.10110 1.19700
Zn	Zn	0.22086 0.32675 0.94291 1.17900
Zn	Zn	0.06370 0.16480 0.10964 1.19700
Zn	Zn	0.23034 0.17325 0.10589 1.17900
Zn	Zn	0.39036 0.82666 0.27444 1.19700
Zn	Zn	0.39411 0.66377 0.27914 1.17900
Zn	Zn	0.39890 0.67334 0.43630 1.19800
Zn	Zn	0.55709 0.83623 0.26966 1.18000
Zn	Zn	0.18521 0.25000 0.06479 1.13700
Zn	Zn	0.43521 0.75000 0.31479 1.13700
H 	H 	0.27620 0.45880 0.89180 0.04900
H 	H 	0.30810 0.53790 0.88260 0.02700
H 	H 	0.30830 0.54060 0.94530 0.02100
H 	H 	0.27640 0.46410 0.01730 0.06800
H 	H 	0.13660 0.30350 0.89870 0.06900
H 	H 	0.06450 0.26730 0.89320 0.01900
H 	H 	0.00120 0.20290 0.95850 0.03300
H 	H 	0.00990 0.17480 0.02910 0.05000
H 	H 	0.28580 0.51910 0.28050 0.05700
H 	H 	0.26120 0.46940 0.25280 -0.02200
H 	H 	0.37620 0.57570 0.14930 -0.02000
H 	H 	0.40080 0.62540 0.17700 0.07700
H 	H 	0.34800 0.54340 0.11960 0.23500
H 	H 	0.32440 0.49440 0.09120 -0.18500
H 	H 	0.22670 0.37210 0.20860 -0.17200
H 	H 	0.25020 0.42110 0.23710 0.23700
H 	H 	0.28710 0.31170 0.89660 0.06700
H 	H 	0.32890 0.28520 0.88250 0.03100
H 	H 	0.01770 0.18790 0.16880 0.07200
H 	H 	0.00620 0.21330 0.21250 0.03000
H 	H 	0.14940 0.04120 0.18260 0.04900
H 	H 	0.07950 0.96210 0.22980 0.02700
H 	H 	0.01410 0.95940 0.23230 0.02100
H 	H 	0.01860 0.03590 0.18770 0.06900
H 	H 	0.29780 0.19650 0.16690 0.06900
H 	H 	0.33950 0.23270 0.20280 0.01900
H 	H 	0.33860 0.29710 0.20170 0.03300
H 	H 	0.29610 0.32520 0.16490 0.05000
H 	H 	0.70040 0.98090 0.23330 0.05800
H 	H 	0.77780 0.03060 0.20820 -0.02300
H 	H 	0.77500 0.92430 0.19950 -0.02000
H 	H 	0.69760 0.87460 0.22460 0.07700
H 	H 	0.83700 0.95660 0.19540 0.23600
H 	H 	0.91440 0.00560 0.17000 -0.18600
H 	H 	0.91930 0.12790 0.14540 -0.17300
H 	H 	0.84180 0.07890 0.17090 0.23800
H 	H 	0.29170 0.18830 0.02460 0.06700
H 	H 	0.33230 0.21480 0.95630 0.03200
H 	H 	0.14330 0.31210 0.17020 0.07300
H 	H 	0.07420 0.28670 0.20710 0.03100
H 	H 	0.31740 0.66800 0.22380 0.04900
H 	H 	0.27020 0.69070 0.19190 0.02700
H 	H 	0.26770 0.75360 0.19170 0.02100
H 	H 	0.31230 0.79370 0.22360 0.06900
H 	H 	0.33310 0.53530 0.36340 0.06900
H 	H 	0.29720 0.45770 0.43550 0.01900
H 	H 	0.29830 0.45970 0.49880 0.03300
H 	H 	0.33510 0.53900 0.49010 0.05000
H 	H 	0.26670 0.06630 0.21420 0.05800
H 	H 	0.29180 0.01400 0.23880 -0.02300
H 	H 	0.30050 0.02550 0.12380 -0.02000
H 	H 	0.27540 0.07780 0.09920 0.07700
H 	H 	0.30460 0.96760 0.15200 0.23500
H 	H 	0.33000 0.91560 0.17560 -0.18600
H 	H 	0.35460 0.93530 0.27330 -0.17300
H 	H 	0.32910 0.98730 0.24980 0.23700
H 	H 	0.47540 0.68370 0.21290 0.06700
H 	H 	0.54370 0.71140 0.17110 0.03100
H 	H 	0.32980 0.68650 0.48230 0.07300
H 	H 	0.29290 0.71870 0.49380 0.03100
H 	H 	0.60820 0.83200 0.35060 0.04900
H 	H 	0.61740 0.80930 0.42050 0.02700
H 	H 	0.55470 0.74640 0.48590 0.02100
H 	H 	0.48270 0.70630 0.48140 0.06900
H 	H 	0.60130 0.96470 0.20220 0.06900
H 	H 	0.60680 0.04230 0.16050 0.01900
H 	H 	0.54150 0.04030 0.16140 0.03300
H 	H 	0.47090 0.96100 0.20390 0.05000
H 	H 	0.21950 0.43370 0.79960 0.05700
H 	H 	0.24720 0.48600 0.72220 -0.02200
H 	H 	0.35070 0.47450 0.72500 -0.02000
H 	H 	0.32300 0.42220 0.80240 0.07700
H 	H 	0.38040 0.53240 0.66300 0.23500
H 	H 	0.40880 0.58440 0.58560 -0.18500
H 	H 	0.29140 0.56470 0.58070 -0.17300
H 	H 	0.26290 0.51270 0.65820 0.23700
H 	H 	0.60340 0.81630 0.20830 0.06700
H 	H 	0.61750 0.78860 0.16770 0.03100
H 	H 	0.33120 0.81350 0.35670 0.07300
H 	H 	0.28750 0.78130 0.42580 0.03100
C 	C 	0.25736 0.41574 0.99760 0.06900
C 	C 	0.25729 0.41417 0.96004 0.05700
C 	C 	0.27630 0.45989 0.91693 -0.10900
C 	C 	0.29536 0.50723 0.91143 -0.03900
C 	C 	0.29543 0.50879 0.94904 -0.01600
C 	C 	0.27642 0.46305 0.99215 -0.12700
C 	C 	0.11647 0.26090 0.96723 0.07200
C 	C 	0.11122 0.27780 0.92478 -0.13600
C 	C 	0.06800 0.25600 0.92160 -0.00600
C 	C 	0.03010 0.21750 0.96060 -0.04000
C 	C 	0.03524 0.20060 0.00296 -0.09600
C 	C 	0.07842 0.22230 0.00628 0.03900
C 	C 	0.34560 0.57680 0.23140 -0.02200
C 	C 	0.30417 0.53060 0.25383 -0.11200
C 	C 	0.28962 0.50120 0.23738 0.09400
C 	C 	0.31640 0.51790 0.19850 -0.23300
C 	C 	0.35782 0.56420 0.17598 0.09900
C 	C 	0.37237 0.59360 0.19243 -0.11200
C 	C 	0.30125 0.48670 0.18105 0.47000
C 	C 	0.32330 0.50850 0.13780 -0.60100
C 	C 	0.30936 0.47950 0.12094 0.58500
C 	C 	0.27337 0.42870 0.14733 -0.73000
C 	C 	0.25130 0.40690 0.19060 0.59700
C 	C 	0.26526 0.43590 0.20744 -0.60500
C 	C 	0.36144 0.60810 0.24866 0.30100
C 	C 	0.25920 0.39890 0.12930 0.91200
C 	C 	0.26594 0.26854 0.96400 0.07000
C 	C 	0.28890 0.28680 0.92130 -0.12100
C 	C 	0.31430 0.27190 0.91180 -0.02200
C 	C 	0.08513 0.23065 0.14582 0.07700
C 	C 	0.04308 0.21279 0.16991 -0.12300
C 	C 	0.03526 0.22860 0.19534 -0.01500
C 	C 	0.08666 0.08426 0.15838 0.06900
C 	C 	0.12579 0.08583 0.15688 0.05700
C 	C 	0.12318 0.04011 0.18359 -0.10900
C 	C 	0.08134 0.99277 0.21187 -0.03800
C 	C 	0.04217 0.99121 0.21336 -0.01500
C 	C 	0.04480 0.03695 0.18663 -0.12800
C 	C 	0.27187 0.23910 0.14443 0.07200
C 	C 	0.29742 0.22220 0.16658 -0.13600
C 	C 	0.32240 0.24400 0.18800 -0.00600
C 	C 	0.32190 0.28250 0.18740 -0.04000
C 	C 	0.29644 0.29940 0.16536 -0.09500
C 	C 	0.27142 0.27770 0.14388 0.03900
C 	C 	0.69180 0.92320 0.23120 -0.02100
C 	C 	0.71557 0.96940 0.22643 -0.11300
C 	C 	0.76142 0.99880 0.21158 0.09500
C 	C 	0.78360 0.98210 0.20150 -0.23500
C 	C 	0.75982 0.93580 0.20638 0.10100
C 	C 	0.71397 0.90640 0.22123 -0.11400
C 	C 	0.83225 0.01330 0.18545 0.47300
C 	C 	0.85370 0.99150 0.18520 -0.60400
C 	C 	0.89956 0.02050 0.17014 0.58800
C 	C 	0.92397 0.07130 0.15533 -0.73200
C 	C 	0.90250 0.09310 0.15560 0.59900
C 	C 	0.85666 0.06410 0.17064 -0.60800
C 	C 	0.64324 0.89190 0.24666 0.30000
C 	C 	0.97180 0.10110 0.13970 0.91300
C 	C 	0.26746 0.23146 0.00260 0.06900
C 	C 	0.29190 0.21320 0.99790 -0.12000
C 	C 	0.31630 0.22810 0.95760 -0.02300
C 	C 	0.12353 0.26935 0.14552 0.07700
C 	C 	0.11730 0.28721 0.16971 -0.12300
C 	C 	0.07606 0.27140 0.19334 -0.01500
C 	C 	0.34162 0.75496 0.24264 0.06900
C 	C 	0.34312 0.71733 0.24271 0.05700
C 	C 	0.31641 0.69323 0.22370 -0.10900
C 	C 	0.28813 0.70679 0.20464 -0.03900
C 	C 	0.28664 0.74447 0.20457 -0.01600
C 	C 	0.31337 0.76857 0.22358 -0.12700
C 	C 	0.35557 0.58370 0.38353 0.07200
C 	C 	0.33342 0.53600 0.38878 -0.13600
C 	C 	0.31200 0.48960 0.43200 -0.00600
C 	C 	0.31260 0.49070 0.46990 -0.04000
C 	C 	0.33464 0.53820 0.46476 -0.09500
C 	C 	0.35612 0.58470 0.42158 0.03900
C 	C 	0.26880 0.07700 0.15440 -0.02200
C 	C 	0.27357 0.05800 0.19583 -0.11300
C 	C 	0.28842 0.02700 0.21038 0.09500
C 	C 	0.29850 0.01490 0.18360 -0.23400
C 	C 	0.29362 0.03380 0.14218 0.10100
C 	C 	0.27877 0.06480 0.12763 -0.11400
C 	C 	0.31455 0.98230 0.19875 0.47100
C 	C 	0.31480 0.96110 0.17670 -0.60200
C 	C 	0.32986 0.93030 0.19064 0.58600
C 	C 	0.34467 0.92070 0.22663 -0.73100
C 	C 	0.34440 0.94190 0.24870 0.59800
C 	C 	0.32936 0.97270 0.23474 -0.60700
C 	C 	0.25334 0.11010 0.13856 0.30000
C 	C 	0.36030 0.88850 0.24080 0.91300
C 	C 	0.49740 0.72994 0.23406 0.06900
C 	C 	0.50210 0.71020 0.21110 -0.12100
C 	C 	0.54240 0.72610 0.18570 -0.02200
C 	C 	0.35448 0.73095 0.41487 0.07700
C 	C 	0.33029 0.71299 0.45692 -0.12300
C 	C 	0.30666 0.73060 0.46474 -0.01500
C 	C 	0.50240 0.74504 0.41334 0.06900
C 	C 	0.53996 0.78267 0.37421 0.05700
C 	C 	0.58307 0.80677 0.37682 -0.10900
C 	C 	0.58857 0.79321 0.41866 -0.03900
C 	C 	0.55096 0.75553 0.45783 -0.01600
C 	C 	0.50785 0.73143 0.45520 -0.12700
C 	C 	0.53277 0.91630 0.22813 0.07200
C 	C 	0.57522 0.96400 0.20258 -0.13600
C 	C 	0.57840 0.01040 0.17760 -0.00600
C 	C 	0.53940 0.00930 0.17810 -0.04000
C 	C 	0.49704 0.96180 0.20356 -0.09500
C 	C 	0.49372 0.91530 0.22858 0.03900
C 	C 	0.26860 0.42300 0.80820 -0.02200
C 	C 	0.24617 0.44200 0.78443 -0.11200
C 	C 	0.26262 0.47300 0.73858 0.09400
C 	C 	0.30150 0.48510 0.71640 -0.23300
C 	C 	0.32402 0.46620 0.74018 0.09900
C 	C 	0.30757 0.43520 0.78603 -0.11200
C 	C 	0.31895 0.51770 0.66775 0.47000
C 	C 	0.36220 0.53890 0.64630 -0.60100
C 	C 	0.37906 0.56970 0.60044 0.58500
C 	C 	0.35267 0.57930 0.57603 -0.73000
C 	C 	0.30940 0.55810 0.59750 0.59700
C 	C 	0.29256 0.52730 0.64334 -0.60500
C 	C 	0.25134 0.38990 0.85676 0.30100
C 	C 	0.37070 0.61150 0.52820 0.91200
C 	C 	0.53600 0.77006 0.23254 0.06900
C 	C 	0.57870 0.78980 0.20810 -0.12100
C 	C 	0.58820 0.77390 0.18370 -0.02200
C 	C 	0.35418 0.76905 0.37647 0.07700
C 	C 	0.33009 0.78701 0.38270 -0.12300
C 	C 	0.30466 0.76940 0.42394 -0.01500
N 	N 	0.23741 0.36621 0.03418 -0.24200
N 	N 	0.22480 0.33562 0.02010 -0.20500
N 	N 	0.23663 0.36346 0.97429 -0.24300
N 	N 	0.15333 0.27470 0.97997 -0.24500
N 	N 	0.13919 0.24604 0.02421 -0.19500
N 	N 	0.09555 0.21350 0.04195 -0.24200
N 	N 	0.24141 0.27970 0.97669 -0.25100
N 	N 	0.09880 0.22128 0.12176 -0.23700
N 	N 	0.09961 0.13379 0.12880 -0.24200
N 	N 	0.14428 0.16438 0.11082 -0.20500
N 	N 	0.16225 0.13654 0.12683 -0.24300
N 	N 	0.24533 0.22530 0.12137 -0.24500
N 	N 	0.22975 0.25396 0.10685 -0.19500
N 	N 	0.24455 0.28650 0.11795 -0.24100
N 	N 	0.24361 0.22030 0.03829 -0.25100
N 	N 	0.15696 0.27872 0.12248 -0.23700
N 	N 	0.37120 0.77159 0.26259 -0.24200
N 	N 	0.38918 0.74490 0.27520 -0.20500
N 	N 	0.37317 0.71092 0.26337 -0.24300
N 	N 	0.37863 0.63330 0.34667 -0.24500
N 	N 	0.39315 0.66340 0.36081 -0.19500
N 	N 	0.38205 0.63750 0.40445 -0.24100
N 	N 	0.46171 0.71810 0.25859 -0.25100
N 	N 	0.37752 0.72056 0.40120 -0.23700
N 	N 	0.46582 0.72841 0.40039 -0.24200
N 	N 	0.47990 0.75510 0.35572 -0.20500
N 	N 	0.52571 0.78908 0.33775 -0.24300
N 	N 	0.52003 0.86670 0.25467 -0.24500
N 	N 	0.47579 0.83660 0.27025 -0.19500
N 	N 	0.45805 0.86250 0.25545 -0.24100
N 	N 	0.52331 0.78190 0.25639 -0.25100
N 	N 	0.37824 0.77944 0.34304 -0.23700
N 	N 	0.22847 0.25000 0.02153 -0.20200
N 	N 	0.14250 0.25000 0.10750 -0.19900
N 	N 	0.47847 0.75000 0.27153 -0.20200
N 	N 	0.39250 0.75000 0.35750 -0.19900
O 	O 	0.34035 0.59220 0.28645 -0.42300
O 	O 	0.24660 0.39160 0.10940 -0.84800
O 	O 	0.23020 0.33670 0.16690 -0.34100
O 	O 	0.39750 0.65290 0.22600 -0.42000
O 	O 	0.62135 0.90780 0.25185 -0.42300
O 	O 	0.99900 0.10840 0.14500 -0.84900
O 	O 	0.99640 0.16330 0.10650 -0.34000
O 	O 	0.62110 0.84710 0.25540 -0.42000
O 	O 	0.24815 0.12680 0.15965 -0.42300
O 	O 	0.35500 0.85600 0.25340 -0.84900
O 	O 	0.39350 0.89710 0.26980 -0.34100
O 	O 	0.24460 0.12350 0.10250 -0.42000
O 	O 	0.21355 0.37320 0.87865 -0.42300
O 	O 	0.39060 0.64400 0.50100 -0.84800
O 	O 	0.33310 0.60290 0.50360 -0.34100
O 	O 	0.27400 0.37650 0.87890 -0.42000
Zn	Zn	0.77444 0.66480 0.89890 1.19800
Zn	Zn	0.77914 0.67325 0.05709 1.18000
Zn	Zn	0.93630 0.83520 0.89036 1.19800
Zn	Zn	0.76966 0.82675 0.89411 1.18000
Zn	Zn	0.60964 0.17334 0.72556 1.19800
Zn	Zn	0.60589 0.33623 0.72086 1.18000
Zn	Zn	0.60110 0.32666 0.56370 1.19800
Zn	Zn	0.44291 0.16377 0.73034 1.18000
Zn	Zn	0.81479 0.75000 0.93521 1.13700
Zn	Zn	0.56479 0.25000 0.68521 1.13700
H 	H 	0.72380 0.54120 0.10820 0.04900
H 	H 	0.69190 0.46210 0.11740 0.02700
H 	H 	0.69170 0.45940 0.05470 0.02100
H 	H 	0.72360 0.53590 0.98270 0.06800
H 	H 	0.86340 0.69650 0.10130 0.06900
H 	H 	0.93550 0.73270 0.10680 0.01900
H 	H 	0.99880 0.79710 0.04150 0.03300
H 	H 	0.99010 0.82520 0.97090 0.05000
H 	H 	0.71420 0.48090 0.71950 0.05700
H 	H 	0.73880 0.53060 0.74720 -0.02200
H 	H 	0.62380 0.42430 0.85070 -0.02000
H 	H 	0.59920 0.37460 0.82300 0.07700
H 	H 	0.65200 0.45660 0.88040 0.23500
H 	H 	0.67560 0.50560 0.90880 -0.18500
H 	H 	0.77330 0.62790 0.79140 -0.17200
H 	H 	0.74980 0.57890 0.76290 0.23700
H 	H 	0.71290 0.68830 0.10340 0.06700
H 	H 	0.67110 0.71480 0.11750 0.03100
H 	H 	0.98230 0.81210 0.83120 0.07200
H 	H 	0.99380 0.78670 0.78750 0.03000
H 	H 	0.85060 0.95880 0.81740 0.04900
H 	H 	0.92050 0.03790 0.77020 0.02700
H 	H 	0.98590 0.04060 0.76770 0.02100
H 	H 	0.98140 0.96410 0.81230 0.06900
H 	H 	0.70220 0.80350 0.83310 0.06900
H 	H 	0.66050 0.76730 0.79720 0.01900
H 	H 	0.66140 0.70290 0.79830 0.03300
H 	H 	0.70390 0.67480 0.83510 0.05000
H 	H 	0.29960 0.01910 0.76670 0.05800
H 	H 	0.22220 0.96940 0.79180 -0.02300
H 	H 	0.22500 0.07570 0.80050 -0.02000
H 	H 	0.30240 0.12540 0.77540 0.07700
H 	H 	0.16300 0.04340 0.80460 0.23600
H 	H 	0.08560 0.99440 0.83000 -0.18600
H 	H 	0.08070 0.87210 0.85460 -0.17300
H 	H 	0.15820 0.92110 0.82910 0.23800
H 	H 	0.70830 0.81170 0.97540 0.06700
H 	H 	0.66770 0.78520 0.04370 0.03200
H 	H 	0.85670 0.68790 0.82980 0.07300
H 	H 	0.92580 0.71330 0.79290 0.03100
H 	H 	0.68260 0.33200 0.77620 0.04900
H 	H 	0.72980 0.30930 0.80810 0.02700
H 	H 	0.73230 0.24640 0.80830 0.02100
H 	H 	0.68770 0.20630 0.77640 0.06900
H 	H 	0.66690 0.46470 0.63660 0.06900
H 	H 	0.70280 0.54230 0.56450 0.01900
H 	H 	0.70170 0.54030 0.50120 0.03300
H 	H 	0.66490 0.46100 0.50990 0.05000
H 	H 	0.73330 0.93370 0.78580 0.05800
H 	H 	0.70820 0.98600 0.76120 -0.02300
H 	H 	0.69950 0.97450 0.87620 -0.02000
H 	H 	0.72460 0.92220 0.90080 0.07700
H 	H 	0.69540 0.03240 0.84800 0.23500
H 	H 	0.67000 0.08440 0.82440 -0.18600
H 	H 	0.64540 0.06470 0.72670 -0.17300
H 	H 	0.67090 0.01270 0.75020 0.23700
H 	H 	0.52460 0.31630 0.78710 0.06700
H 	H 	0.45630 0.28860 0.82890 0.03100
H 	H 	0.67020 0.31350 0.51770 0.07300
H 	H 	0.70710 0.28130 0.50620 0.03100
H 	H 	0.39180 0.16800 0.64940 0.04900
H 	H 	0.38260 0.19070 0.57950 0.02700
H 	H 	0.44530 0.25360 0.51410 0.02100
H 	H 	0.51730 0.29370 0.51860 0.06900
H 	H 	0.39870 0.03530 0.79780 0.06900
H 	H 	0.39320 0.95770 0.83950 0.01900
H 	H 	0.45850 0.95970 0.83860 0.03300
H 	H 	0.52910 0.03900 0.79610 0.05000
H 	H 	0.78050 0.56630 0.20040 0.05700
H 	H 	0.75280 0.51400 0.27780 -0.02200
H 	H 	0.64930 0.52550 0.27500 -0.02000
H 	H 	0.67700 0.57780 0.19760 0.07700
H 	H 	0.61960 0.46760 0.33700 0.23500
H 	H 	0.59120 0.41560 0.41440 -0.18500
H 	H 	0.70860 0.43530 0.41930 -0.17300
H 	H 	0.73710 0.48730 0.34180 0.23700
H 	H 	0.39660 0.18370 0.79170 0.06700
H 	H 	0.38250 0.21140 0.83230 0.03100
H 	H 	0.66880 0.18650 0.64330 0.07300
H 	H 	0.71250 0.21870 0.57420 0.03100
C 	C 	0.74264 0.58426 0.00240 0.06900
C 	C 	0.74271 0.58583 0.03996 0.05700
C 	C 	0.72370 0.54011 0.08307 -0.10900
C 	C 	0.70464 0.49277 0.08857 -0.03900
C 	C 	0.70457 0.49121 0.05096 -0.01600
C 	C 	0.72358 0.53695 0.00785 -0.12700
C 	C 	0.88353 0.73910 0.03277 0.07200
C 	C 	0.88878 0.72220 0.07522 -0.13600
C 	C 	0.93200 0.74400 0.07840 -0.00600
C 	C 	0.96990 0.78250 0.03940 -0.04000
C 	C 	0.96476 0.79940 0.99704 -0.09600
C 	C 	0.92158 0.77770 0.99372 0.03900
C 	C 	0.65440 0.42320 0.76860 -0.02200
C 	C 	0.69583 0.46940 0.74617 -0.11200
C 	C 	0.71038 0.49880 0.76262 0.09400
C 	C 	0.68360 0.48210 0.80150 -0.23300
C 	C 	0.64218 0.43580 0.82402 0.09900
C 	C 	0.62763 0.40640 0.80757 -0.11200
C 	C 	0.69875 0.51330 0.81895 0.47000
C 	C 	0.67670 0.49150 0.86220 -0.60100
C 	C 	0.69064 0.52050 0.87906 0.58500
C 	C 	0.72663 0.57130 0.85267 -0.73000
C 	C 	0.74870 0.59310 0.80940 0.59700
C 	C 	0.73474 0.56410 0.79256 -0.60500
C 	C 	0.63856 0.39190 0.75134 0.30100
C 	C 	0.74080 0.60110 0.87070 0.91200
C 	C 	0.73406 0.73146 0.03600 0.07000
C 	C 	0.71110 0.71320 0.07870 -0.12100
C 	C 	0.68570 0.72810 0.08820 -0.02200
C 	C 	0.91487 0.76935 0.85418 0.07700
C 	C 	0.95692 0.78721 0.83009 -0.12300
C 	C 	0.96474 0.77140 0.80466 -0.01500
C 	C 	0.91334 0.91574 0.84162 0.06900
C 	C 	0.87421 0.91417 0.84312 0.05700
C 	C 	0.87682 0.95989 0.81641 -0.10900
C 	C 	0.91866 0.00723 0.78813 -0.03800
C 	C 	0.95783 0.00879 0.78664 -0.01500
C 	C 	0.95520 0.96305 0.81337 -0.12800
C 	C 	0.72813 0.76090 0.85557 0.07200
C 	C 	0.70258 0.77780 0.83342 -0.13600
C 	C 	0.67760 0.75600 0.81200 -0.00600
C 	C 	0.67810 0.71750 0.81260 -0.04000
C 	C 	0.70356 0.70060 0.83464 -0.09500
C 	C 	0.72858 0.72230 0.85612 0.03900
C 	C 	0.30820 0.07680 0.76880 -0.02100
C 	C 	0.28443 0.03060 0.77357 -0.11300
C 	C 	0.23858 0.00120 0.78842 0.09500
C 	C 	0.21640 0.01790 0.79850 -0.23500
C 	C 	0.24018 0.06420 0.79362 0.10100
C 	C 	0.28603 0.09360 0.77877 -0.11400
C 	C 	0.16775 0.98670 0.81455 0.47300
C 	C 	0.14630 0.00850 0.81480 -0.60400
C 	C 	0.10044 0.97950 0.82986 0.58800
C 	C 	0.07603 0.92870 0.84467 -0.73200
C 	C 	0.09750 0.90690 0.84440 0.59900
C 	C 	0.14334 0.93590 0.82936 -0.60800
C 	C 	0.35676 0.10810 0.75334 0.30000
C 	C 	0.02820 0.89890 0.86030 0.91300
C 	C 	0.73254 0.76854 0.99740 0.06900
C 	C 	0.70810 0.78680 0.00210 -0.12000
C 	C 	0.68370 0.77190 0.04240 -0.02300
C 	C 	0.87647 0.73065 0.85448 0.07700
C 	C 	0.88270 0.71279 0.83029 -0.12300
C 	C 	0.92394 0.72860 0.80666 -0.01500
C 	C 	0.65838 0.24504 0.75736 0.06900
C 	C 	0.65688 0.28267 0.75729 0.05700
C 	C 	0.68359 0.30677 0.77630 -0.10900
C 	C 	0.71187 0.29321 0.79536 -0.03900
C 	C 	0.71336 0.25553 0.79543 -0.01600
C 	C 	0.68663 0.23143 0.77642 -0.12700
C 	C 	0.64443 0.41630 0.61647 0.07200
C 	C 	0.66658 0.46400 0.61122 -0.13600
C 	C 	0.68800 0.51040 0.56800 -0.00600
C 	C 	0.68740 0.50930 0.53010 -0.04000
C 	C 	0.66536 0.46180 0.53524 -0.09500
C 	C 	0.64388 0.41530 0.57842 0.03900
C 	C 	0.73120 0.92300 0.84560 -0.02200
C 	C 	0.72643 0.94200 0.80417 -0.11300
C 	C 	0.71158 0.97300 0.78962 0.09500
C 	C 	0.70150 0.98510 0.81640 -0.23400
C 	C 	0.70638 0.96620 0.85782 0.10100
C 	C 	0.72123 0.93520 0.87237 -0.11400
C 	C 	0.68545 0.01770 0.80125 0.47100
C 	C 	0.68520 0.03890 0.82330 -0.60200
C 	C 	0.67014 0.06970 0.80936 0.58600
C 	C 	0.65533 0.07930 0.77337 -0.73100
C 	C 	0.65560 0.05810 0.75130 0.59800
C 	C 	0.67064 0.02730 0.76526 -0.60700
C 	C 	0.74666 0.88990 0.86144 0.30000
C 	C 	0.63970 0.11150 0.75920 0.91300
C 	C 	0.50260 0.27006 0.76594 0.06900
C 	C 	0.49790 0.28980 0.78890 -0.12100
C 	C 	0.45760 0.27390 0.81430 -0.02200
C 	C 	0.64552 0.26905 0.58513 0.07700
C 	C 	0.66971 0.28701 0.54308 -0.12300
C 	C 	0.69334 0.26940 0.53526 -0.01500
C 	C 	0.49760 0.25496 0.58666 0.06900
C 	C 	0.46004 0.21733 0.62579 0.05700
C 	C 	0.41693 0.19323 0.62318 -0.10900
C 	C 	0.41143 0.20679 0.58134 -0.03900
C 	C 	0.44904 0.24447 0.54217 -0.01600
C 	C 	0.49215 0.26857 0.54480 -0.12700
C 	C 	0.46723 0.08370 0.77187 0.07200
C 	C 	0.42478 0.03600 0.79742 -0.13600
C 	C 	0.42160 0.98960 0.82240 -0.00600
C 	C 	0.46060 0.99070 0.82190 -0.04000
C 	C 	0.50296 0.03820 0.79644 -0.09500
C 	C 	0.50628 0.08470 0.77142 0.03900
C 	C 	0.73140 0.57700 0.19180 -0.02200
C 	C 	0.75383 0.55800 0.21557 -0.11200
C 	C 	0.73738 0.52700 0.26142 0.09400
C 	C 	0.69850 0.51490 0.28360 -0.23300
C 	C 	0.67598 0.53380 0.25982 0.09900
C 	C 	0.69243 0.56480 0.21397 -0.11200
C 	C 	0.68105 0.48230 0.33225 0.47000
C 	C 	0.63780 0.46110 0.35370 -0.60100
C 	C 	0.62094 0.43030 0.39956 0.58500
C 	C 	0.64733 0.42070 0.42397 -0.73000
C 	C 	0.69060 0.44190 0.40250 0.59700
C 	C 	0.70744 0.47270 0.35666 -0.60500
C 	C 	0.74866 0.61010 0.14324 0.30100
C 	C 	0.62930 0.38850 0.47180 0.91200
C 	C 	0.46400 0.22994 0.76746 0.06900
C 	C 	0.42130 0.21020 0.79190 -0.12100
C 	C 	0.41180 0.22610 0.81630 -0.02200
C 	C 	0.64582 0.23095 0.62353 0.07700
C 	C 	0.66991 0.21299 0.61730 -0.12300
C 	C 	0.69534 0.23060 0.57606 -0.01500
N 	N 	0.76259 0.63379 0.96582 -0.24200
N 	N 	0.77520 0.66438 0.97990 -0.20500
N 	N 	0.76337 0.63654 0.02571 -0.24300
N 	N 	0.84667 0.72530 0.02003 -0.24500
N 	N 	0.86081 0.75396 0.97579 -0.19500
N 	N 	0.90445 0.78650 0.95805 -0.24200
N 	N 	0.75859 0.72030 0.02331 -0.25100
N 	N 	0.90120 0.77872 0.87824 -0.23700
N 	N 	0.90039 0.86621 0.87120 -0.24200
N 	N 	0.85572 0.83562 0.88918 -0.20500
N 	N 	0.83775 0.86346 0.87317 -0.24300
N 	N 	0.75467 0.77470 0.87863 -0.24500
N 	N 	0.77025 0.74604 0.89315 -0.19500
N 	N 	0.75545 0.71350 0.88205 -0.24100
N 	N 	0.75639 0.77970 0.96171 -0.25100
N 	N 	0.84304 0.72128 0.87752 -0.23700
N 	N 	0.62880 0.22841 0.73741 -0.24200
N 	N 	0.61082 0.25510 0.72480 -0.20500
N 	N 	0.62683 0.28908 0.73663 -0.24300
N 	N 	0.62137 0.36670 0.65333 -0.24500
N 	N 	0.60685 0.33660 0.63919 -0.19500
N 	N 	0.61795 0.36250 0.59555 -0.24100
N 	N 	0.53829 0.28190 0.74141 -0.25100
N 	N 	0.62248 0.27944 0.59880 -0.23700
N 	N 	0.53418 0.27159 0.59961 -0.24200
N 	N 	0.52010 0.24490 0.64428 -0.20500
N 	N 	0.47429 0.21092 0.66225 -0.24300
N 	N 	0.47997 0.13330 0.74533 -0.24500
N 	N 	0.52421 0.16340 0.72975 -0.19500
N 	N 	0.54195 0.13750 0.74455 -0.24100
N 	N 	0.47669 0.21810 0.74361 -0.25100
N 	N 	0.62176 0.22056 0.65696 -0.23700
N 	N 	0.77153 0.75000 0.97847 -0.20200
N 	N 	0.85750 0.75000 0.89250 -0.19900
N 	N 	0.52153 0.25000 0.72847 -0.20200
N 	N 	0.60750 0.25000 0.64250 -0.19900
O 	O 	0.65965 0.40780 0.71355 -0.42300
O 	O 	0.75340 0.60840 0.89060 -0.84800
O 	O 	0.76980 0.66330 0.83310 -0.34100
O 	O 	0.60250 0.34710 0.77400 -0.42000
O 	O 	0.37865 0.09220 0.74815 -0.42300
O 	O 	0.00100 0.89160 0.85500 -0.84900
O 	O 	0.00360 0.83670 0.89350 -0.34000
O 	O 	0.37890 0.15290 0.74460 -0.42000
O 	O 	0.75185 0.87320 0.84035 -0.42300
O 	O 	0.64500 0.14400 0.74660 -0.84900
O 	O 	0.60650 0.10290 0.73020 -0.34100
O 	O 	0.75540 0.87650 0.89750 -0.42000
O 	O 	0.78645 0.62680 0.12135 -0.42300
O 	O 	0.60940 0.35600 0.49900 -0.84800
O 	O 	0.66690 0.39710 0.49640 -0.34100
O 	O 	0.72600 0.62350 0.12110 -0.42000
Zn	Zn	0.24416 0.61641 0.87793 1.13400
Zn	Zn	0.20163 0.53192 0.84101 1.12500
Zn	Zn	0.36629 0.70164 0.83059 1.12100
Zn	Zn	0.20947 0.54004 0.99895 1.18000
Zn	Zn	0.19961 0.69357 0.83896 1.17900
Zn	Zn	0.99434 0.11641 0.62775 1.13400
Zn	Zn	0.87293 0.03192 0.66971 1.12500
Zn	Zn	0.03223 0.20164 0.66465 1.12100
Zn	Zn	0.03899 0.04004 0.66943 1.17900
Zn	Zn	0.03253 0.19357 0.50604 1.17900
H 	H 	0.14960 0.56240 0.05040 0.06200
H 	H 	0.11130 0.59590 0.05780 0.02500
H 	H 	0.10560 0.65460 0.99380 0.02300
H 	H 	0.13850 0.68000 0.92230 0.07200
H 	H 	0.41050 0.82780 0.75510 0.01000
H 	H 	0.41640 0.90540 0.70900 0.03500
H 	H 	0.35210 0.90550 0.71400 0.00600
H 	H 	0.28180 0.82800 0.76540 0.06000
H 	H 	0.12200 0.53460 0.79020 0.01600
H 	H 	0.07420 0.55700 0.76120 0.05700
H 	H 	0.07410 0.62060 0.76110 0.02100
H 	H 	0.12170 0.66190 0.79000 0.07100
H 	H 	0.41970 0.68730 0.90860 0.00900
H 	H 	0.43010 0.65740 0.97850 0.03800
H 	H 	0.36790 0.59600 0.04430 0.01400
H 	H 	0.29560 0.56460 0.04040 0.07400
H 	H 	0.28220 0.54840 0.77240 0.02400
H 	H 	0.35270 0.57850 0.73360 0.04400
H 	H 	0.41740 0.64390 0.73110 0.03100
H 	H 	0.41150 0.67920 0.76750 0.02300
H 	H 	0.15120 0.40310 0.92490 0.01800
H 	H 	0.11970 0.32680 0.99670 0.04200
H 	H 	0.12120 0.32970 0.05930 0.02200
H 	H 	0.15420 0.40870 0.05010 0.08000
H 	H 	0.11380 0.26900 0.36300 0.01500
H 	H 	0.14420 0.32490 0.28490 0.07300
H 	H 	0.07680 0.38570 0.28430 0.06500
H 	H 	0.04640 0.32960 0.36240 0.01900
H 	H 	0.11630 0.34090 0.21800 0.08300
H 	H 	0.14670 0.39690 0.14040 0.00900
H 	H 	0.18470 0.51660 0.14750 0.00900
H 	H 	0.15430 0.46060 0.22510 0.06400
H 	H 	0.11280 0.06240 0.58720 0.06200
H 	H 	0.15370 0.09590 0.51540 0.02500
H 	H 	0.14840 0.15460 0.45100 0.02300
H 	H 	0.10230 0.18000 0.45850 0.07200
H 	H 	0.08290 0.32780 0.58270 0.01000
H 	H 	0.11440 0.40540 0.51100 0.03500
H 	H 	0.11950 0.40550 0.44660 0.00600
H 	H 	0.09340 0.32800 0.45380 0.06000
H 	H 	0.82480 0.03460 0.58740 0.01600
H 	H 	0.81820 0.05700 0.51720 0.05700
H 	H 	0.88170 0.12060 0.45350 0.02100
H 	H 	0.95190 0.16190 0.45980 0.07200
H 	H 	0.09590 0.18730 0.73240 0.00900
H 	H 	0.13590 0.15740 0.77270 0.03800
H 	H 	0.14030 0.09600 0.77190 0.01300
H 	H 	0.10500 0.06460 0.73100 0.07400
H 	H 	0.82080 0.04840 0.73380 0.02400
H 	H 	0.81210 0.07850 0.77420 0.04400
H 	H 	0.87500 0.14390 0.77350 0.03100
H 	H 	0.94670 0.17920 0.73230 0.02400
H 	H 	0.82800 0.90310 0.74810 0.01700
H 	H 	0.82350 0.82680 0.79290 0.04200
H 	H 	0.88900 0.82970 0.79150 0.02200
H 	H 	0.95880 0.90870 0.74550 0.08000
H 	H 	0.13200 0.76900 0.84480 0.01500
H 	H 	0.10980 0.82490 0.81930 0.07200
H 	H 	0.17000 0.88570 0.69110 0.06500
H 	H 	0.19200 0.82960 0.71680 0.01900
H 	H 	0.05890 0.84090 0.77540 0.08300
H 	H 	0.03730 0.89690 0.74980 0.00800
H 	H 	0.16410 0.01660 0.66810 0.00900
H 	H 	0.18570 0.96060 0.69370 0.06500
C 	C 	0.16373 0.63640 0.94347 0.06700
C 	C 	0.16712 0.60110 0.98198 0.05000
C 	C 	0.14740 0.58590 0.02490 -0.11100
C 	C 	0.12430 0.60600 0.02930 -0.03100
C 	C 	0.12090 0.64130 0.99080 -0.01800
C 	C 	0.14060 0.65650 0.94790 -0.12800
C 	C 	0.30390 0.78120 0.79110 0.06700
C 	C 	0.34260 0.78120 0.78800 0.02700
C 	C 	0.38485 0.82780 0.75715 -0.09400
C 	C 	0.38850 0.87450 0.72940 -0.05000
C 	C 	0.34970 0.87460 0.73250 -0.00400
C 	C 	0.30751 0.82800 0.76329 -0.12900
C 	C 	0.15024 0.62280 0.80736 0.08900
C 	C 	0.15030 0.58490 0.80740 0.02300
C 	C 	0.12190 0.56030 0.79020 -0.07800
C 	C 	0.09346 0.57370 0.77284 -0.06200
C 	C 	0.09340 0.61160 0.77280 0.02000
C 	C 	0.12179 0.63620 0.79001 -0.15000
C 	C 	0.31420 0.60700 0.97220 0.09200
C 	C 	0.35140 0.64380 0.93280 0.02100
C 	C 	0.39480 0.66270 0.93510 -0.08800
C 	C 	0.40100 0.64470 0.97690 -0.05800
C 	C 	0.36380 0.60810 0.01630 0.01600
C 	C 	0.32044 0.58920 0.01396 -0.14900
C 	C 	0.34334 0.63490 0.79176 0.05600
C 	C 	0.30460 0.59573 0.79327 0.02800
C 	C 	0.30820 0.57470 0.77150 -0.09700
C 	C 	0.35032 0.59270 0.74818 -0.03400
C 	C 	0.38904 0.63180 0.74676 -0.01300
C 	C 	0.38550 0.65280 0.76850 -0.11900
C 	C 	0.17244 0.45324 0.98194 0.09300
C 	C 	0.17152 0.45152 0.94452 0.02300
C 	C 	0.15179 0.40419 0.95006 -0.08600
C 	C 	0.13297 0.35859 0.99302 -0.05500
C 	C 	0.13389 0.36034 0.03043 0.00600
C 	C 	0.15361 0.40762 0.02491 -0.14900
C 	C 	0.07713 0.29384 0.37031 -0.15700
C 	C 	0.10640 0.29246 0.34714 0.06100
C 	C 	0.12461 0.32590 0.30049 -0.13000
C 	C 	0.11350 0.36080 0.27690 0.03900
C 	C 	0.08428 0.36220 0.30012 -0.12800
C 	C 	0.06609 0.32870 0.34681 0.05500
C 	C 	0.13238 0.39535 0.22899 0.06800
C 	C 	0.13010 0.37640 0.20370 -0.15300
C 	C 	0.14830 0.40980 0.15750 0.09500
C 	C 	0.16872 0.46220 0.13648 -0.18300
C 	C 	0.17096 0.48110 0.16174 0.08800
C 	C 	0.15276 0.44770 0.20794 -0.14700
C 	C 	0.05864 0.25975 0.41831 0.36100
C 	C 	0.18702 0.49640 0.08858 0.38600
C 	C 	0.07987 0.13640 0.52733 0.06700
C 	C 	0.08308 0.10110 0.56602 0.05000
C 	C 	0.11080 0.08590 0.56150 -0.11100
C 	C 	0.13530 0.10600 0.51830 -0.03100
C 	C 	0.13210 0.14130 0.47960 -0.01900
C 	C 	0.10440 0.15650 0.48410 -0.12800
C 	C 	0.07230 0.28120 0.52270 0.06700
C 	C 	0.06920 0.28120 0.56140 0.02700
C 	C 	0.08495 0.32780 0.55705 -0.09400
C 	C 	0.10390 0.37450 0.51400 -0.05000
C 	C 	0.10710 0.37460 0.47510 -0.00400
C 	C 	0.09129 0.32800 0.47951 -0.12900
C 	C 	0.93016 0.12280 0.52744 0.08900
C 	C 	0.89230 0.08490 0.56540 0.02300
C 	C 	0.85050 0.06030 0.56160 -0.07800
C 	C 	0.84654 0.07370 0.51976 -0.06200
C 	C 	0.88440 0.11160 0.48180 0.02000
C 	C 	0.92621 0.13620 0.48559 -0.15100
C 	C 	0.07920 0.10700 0.70720 0.09200
C 	C 	0.07660 0.14380 0.70760 0.02100
C 	C 	0.09780 0.16270 0.73210 -0.08800
C 	C 	0.12160 0.14470 0.75630 -0.05800
C 	C 	0.12440 0.10810 0.75570 0.01600
C 	C 	0.10316 0.08920 0.73124 -0.14900
C 	C 	0.92666 0.13490 0.70844 0.05600
C 	C 	0.88900 0.09573 0.70887 0.02800
C 	C 	0.84620 0.07470 0.73350 -0.09700
C 	C 	0.84088 0.09270 0.75762 -0.03400
C 	C 	0.87856 0.13180 0.75724 -0.01300
C 	C 	0.92130 0.15280 0.73270 -0.11900
C 	C 	0.93518 0.95324 0.71920 0.09300
C 	C 	0.89604 0.95152 0.72000 0.02300
C 	C 	0.85425 0.90419 0.74760 -0.08600
C 	C 	0.85161 0.85859 0.77438 -0.05500
C 	C 	0.89077 0.86034 0.77355 0.00600
C 	C 	0.93253 0.90762 0.74599 -0.14900
C 	C 	0.16415 0.79384 0.78329 -0.15700
C 	C 	0.13960 0.79246 0.81394 0.06100
C 	C 	0.12639 0.82590 0.79871 -0.13000
C 	C 	0.13770 0.86080 0.75270 0.03800
C 	C 	0.16232 0.86220 0.72208 -0.12700
C 	C 	0.17551 0.82870 0.73739 0.05400
C 	C 	0.12434 0.89535 0.73703 0.06800
C 	C 	0.08010 0.87640 0.75370 -0.15400
C 	C 	0.06730 0.90980 0.73850 0.09600
C 	C 	0.09868 0.96220 0.70652 -0.18400
C 	C 	0.14284 0.98110 0.68986 0.08900
C 	C 	0.15564 0.94770 0.70506 -0.14800
C 	C 	0.17806 0.75975 0.79889 0.36100
C 	C 	0.08498 0.99640 0.69062 0.38700
N 	N 	0.18700 0.64610 0.90730 -0.24100
N 	N 	0.20282 0.61670 0.92108 -0.21600
N 	N 	0.19168 0.59030 0.96622 -0.24400
N 	N 	0.26804 0.72990 0.81806 -0.24600
N 	N 	0.28569 0.70315 0.83184 -0.19600
N 	N 	0.32953 0.73140 0.81507 -0.26400
N 	N 	0.18059 0.64000 0.82521 -0.25400
N 	N 	0.19661 0.61109 0.83884 -0.20300
N 	N 	0.18105 0.57849 0.82630 -0.26600
N 	N 	0.33484 0.65050 0.89966 -0.25600
N 	N 	0.29082 0.62241 0.91683 -0.20300
N 	N 	0.27705 0.59370 0.96165 -0.25100
N 	N 	0.33078 0.64769 0.81593 -0.25900
N 	N 	0.28571 0.61737 0.83212 -0.20200
N 	N 	0.27026 0.58641 0.81993 -0.25000
N 	N 	0.19345 0.50254 0.96671 -0.24300
N 	N 	0.20534 0.53040 0.92246 -0.20100
N 	N 	0.19196 0.50101 0.90821 -0.25300
N 	N 	0.05340 0.14610 0.54090 -0.24100
N 	N 	0.03778 0.11670 0.58612 -0.21600
N 	N 	0.05652 0.09030 0.60138 -0.24400
N 	N 	0.04796 0.22990 0.53814 -0.24600
N 	N 	0.03499 0.20315 0.58254 -0.19600
N 	N 	0.04647 0.23140 0.59813 -0.26400
N 	N 	0.96521 0.14000 0.54059 -0.25400
N 	N 	0.94993 0.11109 0.58552 -0.20300
N 	N 	0.90479 0.07849 0.60256 -0.26600
N 	N 	0.05016 0.15050 0.68434 -0.25600
N 	N 	0.03924 0.12241 0.66841 -0.20300
N 	N 	0.05535 0.09370 0.68335 -0.25100
N 	N 	0.96362 0.14769 0.68309 -0.25900
N 	N 	0.94949 0.11737 0.66834 -0.20200
N 	N 	0.90634 0.08641 0.68385 -0.25000
N 	N 	0.96925 0.00254 0.69091 -0.24300
N 	N 	0.95286 0.03040 0.67494 -0.20100
N 	N 	0.90922 0.00101 0.69095 -0.25300
O 	O 	0.02717 0.25490 0.43953 -0.38600
O 	O 	0.07275 0.23350 0.44135 -0.46800
O 	O 	0.18170 0.48120 0.06350 -0.48900
O 	O 	0.21050 0.54540 0.06770 -0.36500
O 	O 	0.19443 0.75490 0.77227 -0.38500
O 	O 	0.17485 0.73350 0.83925 -0.46800
O 	O 	0.04470 0.98120 0.70050 -0.48900
O 	O 	0.11310 0.04540 0.66510 -0.36500
Zn	Zn	0.00566 0.88359 0.37225 1.13400
Zn	Zn	0.12707 0.96808 0.33029 1.12500
Zn	Zn	0.96777 0.79836 0.33535 1.12100
Zn	Zn	0.96101 0.95996 0.33057 1.17900
Zn	Zn	0.96747 0.80643 0.49396 1.17900
Zn	Zn	0.75584 0.38359 0.12207 1.13400
Zn	Zn	0.79837 0.46808 0.15899 1.12500
Zn	Zn	0.63371 0.29836 0.16941 1.12100
Zn	Zn	0.79053 0.45996 0.00105 1.18000
Zn	Zn	0.80039 0.30643 0.16104 1.17900
H 	H 	0.88720 0.93760 0.41280 0.06200
H 	H 	0.84630 0.90410 0.48460 0.02500
H 	H 	0.85160 0.84540 0.54900 0.02300
H 	H 	0.89770 0.82000 0.54150 0.07200
H 	H 	0.91710 0.67220 0.41730 0.01000
H 	H 	0.88560 0.59460 0.48900 0.03500
H 	H 	0.88050 0.59450 0.55340 0.00600
H 	H 	0.90660 0.67200 0.54620 0.06000
H 	H 	0.17520 0.96540 0.41260 0.01600
H 	H 	0.18180 0.94300 0.48280 0.05700
H 	H 	0.11830 0.87940 0.54650 0.02100
H 	H 	0.04810 0.83810 0.54020 0.07200
H 	H 	0.90410 0.81270 0.26760 0.00900
H 	H 	0.86410 0.84260 0.22730 0.03800
H 	H 	0.85970 0.90400 0.22810 0.01300
H 	H 	0.89500 0.93540 0.26900 0.07400
H 	H 	0.17920 0.95160 0.26620 0.02400
H 	H 	0.18790 0.92150 0.22580 0.04400
H 	H 	0.12500 0.85610 0.22650 0.03100
H 	H 	0.05330 0.82080 0.26770 0.02400
H 	H 	0.17200 0.09690 0.25190 0.01700
H 	H 	0.17650 0.17320 0.20710 0.04200
H 	H 	0.11100 0.17030 0.20850 0.02200
H 	H 	0.04120 0.09130 0.25450 0.08000
H 	H 	0.86800 0.23100 0.15520 0.01500
H 	H 	0.89020 0.17510 0.18070 0.07200
H 	H 	0.83000 0.11430 0.30890 0.06500
H 	H 	0.80800 0.17040 0.28320 0.01900
H 	H 	0.94110 0.15910 0.22460 0.08300
H 	H 	0.96270 0.10310 0.25020 0.00800
H 	H 	0.83590 0.98340 0.33190 0.00900
H 	H 	0.81430 0.03940 0.30630 0.06500
H 	H 	0.85040 0.43760 0.94960 0.06200
H 	H 	0.88870 0.40410 0.94220 0.02500
H 	H 	0.89440 0.34540 0.00620 0.02300
H 	H 	0.86150 0.32000 0.07770 0.07200
H 	H 	0.58950 0.17220 0.24490 0.01000
H 	H 	0.58360 0.09460 0.29100 0.03500
H 	H 	0.64790 0.09450 0.28600 0.00600
H 	H 	0.71820 0.17200 0.23460 0.06000
H 	H 	0.87800 0.46540 0.20980 0.01600
H 	H 	0.92580 0.44300 0.23880 0.05700
H 	H 	0.92590 0.37940 0.23890 0.02100
H 	H 	0.87830 0.33810 0.21000 0.07100
H 	H 	0.58030 0.31270 0.09140 0.00900
H 	H 	0.56990 0.34260 0.02150 0.03800
H 	H 	0.63210 0.40400 0.95570 0.01400
H 	H 	0.70440 0.43540 0.95960 0.07400
H 	H 	0.71780 0.45160 0.22760 0.02400
H 	H 	0.64730 0.42150 0.26640 0.04400
H 	H 	0.58260 0.35610 0.26890 0.03100
H 	H 	0.58850 0.32080 0.23250 0.02300
H 	H 	0.84880 0.59690 0.07510 0.01800
H 	H 	0.88030 0.67320 0.00330 0.04200
H 	H 	0.87880 0.67030 0.94070 0.02200
H 	H 	0.84580 0.59130 0.94990 0.08000
H 	H 	0.88620 0.73100 0.63700 0.01500
H 	H 	0.85580 0.67510 0.71510 0.07300
H 	H 	0.92320 0.61430 0.71570 0.06500
H 	H 	0.95360 0.67040 0.63760 0.01900
H 	H 	0.88370 0.65910 0.78200 0.08300
H 	H 	0.85330 0.60310 0.85960 0.00900
H 	H 	0.81530 0.48340 0.85250 0.00900
H 	H 	0.84570 0.53940 0.77490 0.06400
C 	C 	0.92013 0.86360 0.47267 0.06700
C 	C 	0.91692 0.89890 0.43398 0.05000
C 	C 	0.88920 0.91410 0.43850 -0.11100
C 	C 	0.86470 0.89400 0.48170 -0.03100
C 	C 	0.86790 0.85870 0.52040 -0.01900
C 	C 	0.89560 0.84350 0.51590 -0.12800
C 	C 	0.92770 0.71880 0.47730 0.06700
C 	C 	0.93080 0.71880 0.43860 0.02700
C 	C 	0.91505 0.67220 0.44295 -0.09400
C 	C 	0.89610 0.62550 0.48600 -0.05000
C 	C 	0.89290 0.62540 0.52490 -0.00400
C 	C 	0.90871 0.67200 0.52049 -0.12900
C 	C 	0.06984 0.87720 0.47256 0.08900
C 	C 	0.10770 0.91510 0.43460 0.02300
C 	C 	0.14950 0.93970 0.43840 -0.07800
C 	C 	0.15346 0.92630 0.48024 -0.06200
C 	C 	0.11560 0.88840 0.51820 0.02000
C 	C 	0.07379 0.86380 0.51441 -0.15100
C 	C 	0.92080 0.89300 0.29280 0.09200
C 	C 	0.92340 0.85620 0.29240 0.02100
C 	C 	0.90220 0.83730 0.26790 -0.08800
C 	C 	0.87840 0.85530 0.24370 -0.05800
C 	C 	0.87560 0.89190 0.24430 0.01600
C 	C 	0.89684 0.91080 0.26876 -0.14900
C 	C 	0.07334 0.86510 0.29156 0.05600
C 	C 	0.11100 0.90427 0.29113 0.02800
C 	C 	0.15380 0.92530 0.26650 -0.09700
C 	C 	0.15912 0.90730 0.24238 -0.03400
C 	C 	0.12144 0.86820 0.24276 -0.01300
C 	C 	0.07870 0.84720 0.26730 -0.11900
C 	C 	0.06482 0.04676 0.28080 0.09300
C 	C 	0.10396 0.04848 0.28000 0.02300
C 	C 	0.14575 0.09581 0.25240 -0.08600
C 	C 	0.14839 0.14141 0.22562 -0.05500
C 	C 	0.10923 0.13966 0.22645 0.00600
C 	C 	0.06747 0.09238 0.25401 -0.14900
C 	C 	0.83585 0.20616 0.21671 -0.15700
C 	C 	0.86040 0.20754 0.18606 0.06100
C 	C 	0.87361 0.17410 0.20129 -0.13000
C 	C 	0.86230 0.13920 0.24730 0.03800
C 	C 	0.83768 0.13780 0.27792 -0.12700
C 	C 	0.82449 0.17130 0.26261 0.05400
C 	C 	0.87566 0.10465 0.26297 0.06800
C 	C 	0.91990 0.12360 0.24630 -0.15400
C 	C 	0.93270 0.09020 0.26150 0.09600
C 	C 	0.90132 0.03780 0.29348 -0.18400
C 	C 	0.85716 0.01890 0.31014 0.08900
C 	C 	0.84436 0.05230 0.29494 -0.14800
C 	C 	0.82194 0.24025 0.20111 0.36100
C 	C 	0.91502 0.00360 0.30938 0.38700
C 	C 	0.83627 0.36360 0.05653 0.06700
C 	C 	0.83288 0.39890 0.01802 0.05000
C 	C 	0.85260 0.41410 0.97510 -0.11100
C 	C 	0.87570 0.39400 0.97070 -0.03100
C 	C 	0.87910 0.35870 0.00920 -0.01800
C 	C 	0.85940 0.34350 0.05210 -0.12800
C 	C 	0.69610 0.21880 0.20890 0.06700
C 	C 	0.65740 0.21880 0.21200 0.02700
C 	C 	0.61515 0.17220 0.24285 -0.09400
C 	C 	0.61150 0.12550 0.27060 -0.05000
C 	C 	0.65030 0.12540 0.26750 -0.00400
C 	C 	0.69249 0.17200 0.23671 -0.12900
C 	C 	0.84976 0.37720 0.19264 0.08900
C 	C 	0.84970 0.41510 0.19260 0.02300
C 	C 	0.87810 0.43970 0.20980 -0.07800
C 	C 	0.90654 0.42630 0.22716 -0.06200
C 	C 	0.90660 0.38840 0.22720 0.02000
C 	C 	0.87821 0.36380 0.20999 -0.15000
C 	C 	0.68580 0.39300 0.02780 0.09200
C 	C 	0.64860 0.35620 0.06720 0.02100
C 	C 	0.60520 0.33730 0.06490 -0.08800
C 	C 	0.59900 0.35530 0.02310 -0.05800
C 	C 	0.63620 0.39190 0.98370 0.01600
C 	C 	0.67956 0.41080 0.98604 -0.14900
C 	C 	0.65666 0.36510 0.20824 0.05600
C 	C 	0.69540 0.40427 0.20673 0.02800
C 	C 	0.69180 0.42530 0.22850 -0.09700
C 	C 	0.64968 0.40730 0.25182 -0.03400
C 	C 	0.61096 0.36820 0.25324 -0.01300
C 	C 	0.61450 0.34720 0.23150 -0.11900
C 	C 	0.82756 0.54676 0.01806 0.09300
C 	C 	0.82848 0.54848 0.05548 0.02300
C 	C 	0.84821 0.59581 0.04994 -0.08600
C 	C 	0.86703 0.64141 0.00698 -0.05500
C 	C 	0.86611 0.63966 0.96957 0.00600
C 	C 	0.84639 0.59238 0.97509 -0.14900
C 	C 	0.92287 0.70616 0.62969 -0.15700
C 	C 	0.89360 0.70754 0.65286 0.06100
C 	C 	0.87539 0.67410 0.69951 -0.13000
C 	C 	0.88650 0.63920 0.72310 0.03900
C 	C 	0.91572 0.63780 0.69988 -0.12800
C 	C 	0.93391 0.67130 0.65319 0.05500
C 	C 	0.86762 0.60465 0.77101 0.06800
C 	C 	0.86990 0.62360 0.79630 -0.15300
C 	C 	0.85170 0.59020 0.84250 0.09500
C 	C 	0.83128 0.53780 0.86352 -0.18300
C 	C 	0.82904 0.51890 0.83826 0.08800
C 	C 	0.84724 0.55230 0.79206 -0.14700
C 	C 	0.94136 0.74025 0.58169 0.36100
C 	C 	0.81298 0.50360 0.91142 0.38600
N 	N 	0.94660 0.85390 0.45910 -0.24100
N 	N 	0.96222 0.88330 0.41388 -0.21600
N 	N 	0.94348 0.90970 0.39862 -0.24400
N 	N 	0.95204 0.77010 0.46186 -0.24600
N 	N 	0.96501 0.79685 0.41746 -0.19600
N 	N 	0.95353 0.76860 0.40187 -0.26400
N 	N 	0.03479 0.86000 0.45941 -0.25400
N 	N 	0.05007 0.88891 0.41448 -0.20300
N 	N 	0.09521 0.92151 0.39744 -0.26600
N 	N 	0.94984 0.84950 0.31566 -0.25600
N 	N 	0.96076 0.87759 0.33159 -0.20300
N 	N 	0.94465 0.90630 0.31665 -0.25100
N 	N 	0.03638 0.85231 0.31691 -0.25900
N 	N 	0.05051 0.88263 0.33166 -0.20200
N 	N 	0.09366 0.91359 0.31615 -0.25000
N 	N 	0.03075 0.99746 0.30909 -0.24300
N 	N 	0.04714 0.96960 0.32506 -0.20100
N 	N 	0.09078 0.99899 0.30905 -0.25300
N 	N 	0.81300 0.35390 0.09270 -0.24100
N 	N 	0.79718 0.38330 0.07892 -0.21600
N 	N 	0.80832 0.40970 0.03378 -0.24400
N 	N 	0.73196 0.27010 0.18194 -0.24600
N 	N 	0.71431 0.29685 0.16816 -0.19600
N 	N 	0.67047 0.26860 0.18493 -0.26400
N 	N 	0.81941 0.36000 0.17479 -0.25400
N 	N 	0.80339 0.38891 0.16116 -0.20300
N 	N 	0.81895 0.42151 0.17370 -0.26600
N 	N 	0.66516 0.34950 0.10034 -0.25600
N 	N 	0.70918 0.37759 0.08317 -0.20300
N 	N 	0.72295 0.40630 0.03835 -0.25100
N 	N 	0.66922 0.35231 0.18407 -0.25900
N 	N 	0.71429 0.38263 0.16788 -0.20200
N 	N 	0.72974 0.41359 0.18007 -0.25000
N 	N 	0.80655 0.49746 0.03329 -0.24300
N 	N 	0.79466 0.46960 0.07754 -0.20100
N 	N 	0.80804 0.49899 0.09179 -0.25300
O 	O 	0.80557 0.24510 0.22773 -0.38500
O 	O 	0.82515 0.26650 0.16075 -0.46800
O 	O 	0.95530 0.01880 0.29950 -0.48900
O 	O 	0.88690 0.95460 0.33490 -0.36500
O 	O 	0.97283 0.74510 0.56047 -0.38600
O 	O 	0.92725 0.76650 0.55865 -0.46800
O 	O 	0.81830 0.51880 0.93650 -0.48900
O 	O 	0.78950 0.45460 0.93230 -0.36500
Zn	Zn	0.12775 0.62209 0.25584 1.13400
Zn	Zn	0.16971 0.54264 0.29837 1.12500
Zn	Zn	0.16465 0.69688 0.13371 1.12100
Zn	Zn	0.16943 0.70842 0.29053 1.18000
Zn	Zn	0.00604 0.53857 0.30039 1.17900
Zn	Zn	0.37793 0.12209 0.50566 1.13400
Zn	Zn	0.34101 0.04264 0.62707 1.12500
Zn	Zn	0.33059 0.19688 0.46777 1.12100
Zn	Zn	0.49895 0.20842 0.46101 1.18000
Zn	Zn	0.33896 0.03857 0.46747 1.17900
H 	H 	0.08720 0.70000 0.35040 0.06200
H 	H 	0.01540 0.66910 0.38870 0.02500
H 	H 	0.95100 0.59940 0.39440 0.02300
H 	H 	0.95850 0.56080 0.36150 0.07200
H 	H 	0.08270 0.66560 0.08950 0.01000
H 	H 	0.01100 0.62540 0.08360 0.03500
H 	H 	0.94660 0.56610 0.14790 0.00600
H 	H 	0.95380 0.54720 0.21820 0.06000
H 	H 	0.08740 0.41220 0.37800 0.01600
H 	H 	0.01720 0.33540 0.42580 0.05700
H 	H 	0.95350 0.33520 0.42590 0.02100
H 	H 	0.95980 0.41170 0.37830 0.07100
H 	H 	0.23240 0.82830 0.08030 0.00900
H 	H 	0.27270 0.90860 0.06990 0.03800
H 	H 	0.27190 0.91220 0.13210 0.01400
H 	H 	0.23100 0.83600 0.20440 0.07400
H 	H 	0.23380 0.55460 0.21780 0.02400
H 	H 	0.27420 0.58630 0.14730 0.04400
H 	H 	0.27350 0.64850 0.08260 0.03100
H 	H 	0.23230 0.67900 0.08850 0.02400
H 	H 	0.24810 0.57610 0.34880 0.01800
H 	H 	0.29290 0.61640 0.38030 0.04200
H 	H 	0.29150 0.68050 0.37880 0.02200
H 	H 	0.24550 0.70430 0.34580 0.08000
H 	H 	0.34480 0.97680 0.38620 0.01500
H 	H 	0.31930 0.92910 0.35580 0.07300
H 	H 	0.19110 0.86110 0.42320 0.06500
H 	H 	0.21680 0.90880 0.45360 0.01900
H 	H 	0.27540 0.83430 0.38370 0.08300
H 	H 	0.24980 0.78710 0.35330 0.00900
H 	H 	0.16810 0.83220 0.31530 0.00900
H 	H 	0.19370 0.87940 0.34570 0.06400
H 	H 	0.55040 0.20000 0.38720 0.06200
H 	H 	0.55780 0.16910 0.34630 0.02500
H 	H 	0.49380 0.09940 0.35160 0.02300
H 	H 	0.42230 0.06080 0.39770 0.07200
H 	H 	0.25510 0.16560 0.41710 0.01000
H 	H 	0.20900 0.12540 0.38560 0.03500
H 	H 	0.21400 0.06610 0.38050 0.00600
H 	H 	0.26540 0.04720 0.40660 0.06000
H 	H 	0.29020 0.91220 0.67520 0.01600
H 	H 	0.26120 0.83540 0.68180 0.05700
H 	H 	0.26110 0.83520 0.61830 0.02100
H 	H 	0.29000 0.91170 0.54810 0.07100
H 	H 	0.40860 0.32830 0.40410 0.00900
H 	H 	0.47850 0.40860 0.36410 0.03800
H 	H 	0.54430 0.41220 0.35970 0.01400
H 	H 	0.54040 0.33600 0.39500 0.07400
H 	H 	0.27240 0.05460 0.67920 0.02400
H 	H 	0.23360 0.08630 0.68790 0.04400
H 	H 	0.23110 0.14850 0.62500 0.03100
H 	H 	0.26750 0.17900 0.55330 0.02300
H 	H 	0.42490 0.07610 0.67200 0.01800
H 	H 	0.49670 0.11640 0.67650 0.04200
H 	H 	0.55930 0.18050 0.61100 0.02200
H 	H 	0.55010 0.20430 0.54120 0.08000
H 	H 	0.86300 0.47680 0.36800 0.01500
H 	H 	0.78490 0.42910 0.39020 0.07300
H 	H 	0.78430 0.36110 0.33000 0.06500
H 	H 	0.86240 0.40880 0.30800 0.01900
H 	H 	0.71800 0.33430 0.44110 0.08300
H 	H 	0.64040 0.28710 0.46270 0.00900
H 	H 	0.64750 0.33220 0.33590 0.00900
H 	H 	0.72510 0.37940 0.31430 0.06400
C 	C 	0.02733 0.60720 0.33627 0.06700
C 	C 	0.06602 0.64910 0.33288 0.05000
C 	C 	0.06150 0.67230 0.35260 -0.11100
C 	C 	0.01830 0.65360 0.37570 -0.03100
C 	C 	0.97960 0.61170 0.37910 -0.01900
C 	C 	0.98410 0.58850 0.35940 -0.12800
C 	C 	0.02270 0.59500 0.19610 0.06700
C 	C 	0.06140 0.63060 0.15740 0.02700
C 	C 	0.05705 0.64200 0.11515 -0.09400
C 	C 	0.01400 0.61790 0.11150 -0.05000
C 	C 	0.97510 0.58220 0.15030 -0.00400
C 	C 	0.97951 0.57080 0.19249 -0.12900
C 	C 	0.02744 0.45760 0.34976 0.08900
C 	C 	0.06540 0.45770 0.34970 0.02300
C 	C 	0.06160 0.41210 0.37810 -0.07800
C 	C 	0.01976 0.36630 0.40654 -0.06200
C 	C 	0.98180 0.36620 0.40660 0.02000
C 	C 	0.98559 0.41180 0.37821 -0.15100
C 	C 	0.20720 0.78640 0.18580 0.09200
C 	C 	0.20760 0.78420 0.14860 0.02100
C 	C 	0.23210 0.82990 0.10520 -0.08800
C 	C 	0.25630 0.87790 0.09900 -0.05800
C 	C 	0.25570 0.88010 0.13620 0.01600
C 	C 	0.23124 0.83440 0.17956 -0.14900
C 	C 	0.20844 0.63510 0.15666 0.05600
C 	C 	0.20887 0.59787 0.19540 0.02800
C 	C 	0.23350 0.57970 0.19180 -0.09700
C 	C 	0.25762 0.59850 0.14968 -0.03400
C 	C 	0.25724 0.63580 0.11096 -0.01300
C 	C 	0.23270 0.65400 0.11450 -0.11900
C 	C 	0.21920 0.65438 0.32756 0.09300
C 	C 	0.22000 0.61604 0.32848 0.02300
C 	C 	0.24760 0.60185 0.34821 -0.08600
C 	C 	0.27438 0.62599 0.36703 -0.05500
C 	C 	0.27355 0.66432 0.36611 0.00600
C 	C 	0.24599 0.67852 0.34639 -0.14900
C 	C 	0.28329 0.94744 0.42287 -0.15700
C 	C 	0.31394 0.95354 0.39360 0.06100
C 	C 	0.29871 0.92510 0.37539 -0.13000
C 	C 	0.25270 0.89040 0.38650 0.03900
C 	C 	0.22208 0.88440 0.41572 -0.12800
C 	C 	0.23739 0.91290 0.43391 0.05500
C 	C 	0.23703 0.86137 0.36762 0.06800
C 	C 	0.25370 0.83380 0.36990 -0.15300
C 	C 	0.23850 0.80580 0.35170 0.09500
C 	C 	0.20652 0.80520 0.33128 -0.18300
C 	C 	0.18986 0.83270 0.32904 0.08800
C 	C 	0.20506 0.86070 0.34724 -0.14700
C 	C 	0.29889 0.97695 0.44136 0.36100
C 	C 	0.19062 0.77560 0.31298 0.38600
C 	C 	0.44347 0.10720 0.42013 0.06700
C 	C 	0.48198 0.14910 0.41692 0.05000
C 	C 	0.52490 0.17230 0.38920 -0.11100
C 	C 	0.52930 0.15360 0.36470 -0.03100
C 	C 	0.49080 0.11170 0.36790 -0.01900
C 	C 	0.44790 0.08850 0.39560 -0.12800
C 	C 	0.29110 0.09500 0.42770 0.06700
C 	C 	0.28800 0.13060 0.43080 0.02700
C 	C 	0.25715 0.14200 0.41505 -0.09400
C 	C 	0.22940 0.11790 0.39610 -0.05000
C 	C 	0.23250 0.08220 0.39290 -0.00400
C 	C 	0.26329 0.07080 0.40871 -0.12900
C 	C 	0.30736 0.95760 0.56984 0.08900
C 	C 	0.30740 0.95770 0.60770 0.02300
C 	C 	0.29020 0.91210 0.64950 -0.07800
C 	C 	0.27284 0.86630 0.65346 -0.06200
C 	C 	0.27280 0.86620 0.61560 0.02000
C 	C 	0.29001 0.91180 0.57379 -0.15100
C 	C 	0.47220 0.28640 0.42080 0.09200
C 	C 	0.43280 0.28420 0.42340 0.02100
C 	C 	0.43510 0.32990 0.40220 -0.08800
C 	C 	0.47690 0.37790 0.37840 -0.05800
C 	C 	0.51630 0.38010 0.37560 0.01600
C 	C 	0.51396 0.33440 0.39684 -0.14900
C 	C 	0.29176 0.13510 0.57334 0.05600
C 	C 	0.29327 0.09787 0.61100 0.02700
C 	C 	0.27150 0.07970 0.65380 -0.09700
C 	C 	0.24818 0.09850 0.65912 -0.03400
C 	C 	0.24676 0.13580 0.62144 -0.01300
C 	C 	0.26850 0.15400 0.57870 -0.11900
C 	C 	0.48194 0.15438 0.56482 0.09300
C 	C 	0.44452 0.11604 0.60396 0.02300
C 	C 	0.45006 0.10185 0.64575 -0.08600
C 	C 	0.49302 0.12599 0.64839 -0.05500
C 	C 	0.53043 0.16432 0.60923 0.00600
C 	C 	0.52491 0.17852 0.56747 -0.14900
C 	C 	0.87031 0.44744 0.33585 -0.15700
C 	C 	0.84714 0.45354 0.36040 0.06100
C 	C 	0.80049 0.42510 0.37361 -0.13000
C 	C 	0.77690 0.39040 0.36230 0.03900
C 	C 	0.80012 0.38440 0.33768 -0.12800
C 	C 	0.84681 0.41290 0.32449 0.05400
C 	C 	0.72899 0.36137 0.37566 0.06800
C 	C 	0.70370 0.33380 0.41990 -0.15300
C 	C 	0.65750 0.30580 0.43270 0.09500
C 	C 	0.63648 0.30520 0.40132 -0.18300
C 	C 	0.66174 0.33270 0.35716 0.08800
C 	C 	0.70794 0.36070 0.34436 -0.14700
C 	C 	0.91831 0.47695 0.32194 0.36100
C 	C 	0.58858 0.27560 0.41502 0.38600
N 	N 	0.04090 0.59430 0.31300 -0.24100
N 	N 	0.08612 0.62390 0.29718 -0.21600
N 	N 	0.10138 0.65790 0.30832 -0.24400
N 	N 	0.03814 0.58610 0.23196 -0.24500
N 	N 	0.08254 0.61753 0.21431 -0.19600
N 	N 	0.09813 0.64460 0.17047 -0.26400
N 	N 	0.04059 0.50580 0.31941 -0.25400
N 	N 	0.08552 0.53545 0.30339 -0.20300
N 	N 	0.10256 0.50735 0.31895 -0.26600
N 	N 	0.18434 0.73450 0.16516 -0.25600
N 	N 	0.16841 0.70765 0.20918 -0.20300
N 	N 	0.18335 0.73870 0.22295 -0.25100
N 	N 	0.18309 0.64671 0.16922 -0.25900
N 	N 	0.16834 0.61783 0.21429 -0.20200
N 	N 	0.18385 0.59019 0.22974 -0.25000
N 	N 	0.19091 0.66016 0.30655 -0.24300
N 	N 	0.17494 0.62780 0.29466 -0.20100
N 	N 	0.19095 0.60017 0.30804 -0.25300
N 	N 	0.40730 0.09430 0.44660 -0.24100
N 	N 	0.42108 0.12390 0.46222 -0.21600
N 	N 	0.46622 0.15790 0.44348 -0.24400
N 	N 	0.31806 0.08610 0.45204 -0.24600
N 	N 	0.33184 0.11753 0.46501 -0.19600
N 	N 	0.31507 0.14460 0.45353 -0.26400
N 	N 	0.32521 0.00580 0.53479 -0.25500
N 	N 	0.33884 0.03545 0.55007 -0.20300
N 	N 	0.32630 0.00735 0.59521 -0.26600
N 	N 	0.39966 0.23450 0.44984 -0.25600
N 	N 	0.41683 0.20765 0.46076 -0.20300
N 	N 	0.46165 0.23870 0.44465 -0.25100
N 	N 	0.31593 0.14671 0.53638 -0.25900
N 	N 	0.33212 0.11783 0.55051 -0.20200
N 	N 	0.31993 0.09019 0.59366 -0.25000
N 	N 	0.46671 0.16016 0.53075 -0.24300
N 	N 	0.42246 0.12780 0.54714 -0.20100
N 	N 	0.40821 0.10017 0.59078 -0.25300
O 	O 	0.27227 0.96670 0.47283 -0.38600
O 	O 	0.33925 0.01410 0.42725 -0.46800
O 	O 	0.20050 0.74520 0.31830 -0.48900
O 	O 	0.16510 0.77820 0.28950 -0.36500
O 	O 	0.93953 0.46670 0.30557 -0.38500
O 	O 	0.94135 0.51410 0.32515 -0.46800
O 	O 	0.56350 0.24520 0.45530 -0.48900
O 	O 	0.56770 0.27820 0.38690 -0.36500
Zn	Zn	0.62207 0.87791 0.49434 1.13400
Zn	Zn	0.65899 0.95736 0.37293 1.12500
Zn	Zn	0.66941 0.80312 0.53223 1.12100
Zn	Zn	0.50105 0.79158 0.53899 1.18000
Zn	Zn	0.66104 0.96143 0.53253 1.17900
Zn	Zn	0.87225 0.37791 0.74416 1.13400
Zn	Zn	0.83029 0.45736 0.70163 1.12500
Zn	Zn	0.83535 0.30312 0.86629 1.12100
Zn	Zn	0.83057 0.29158 0.70947 1.18000
Zn	Zn	0.99396 0.46143 0.69961 1.17900
H 	H 	0.44960 0.80000 0.61280 0.06200
H 	H 	0.44220 0.83090 0.65370 0.02500
H 	H 	0.50620 0.90060 0.64840 0.02300
H 	H 	0.57770 0.93920 0.60230 0.07200
H 	H 	0.74490 0.83440 0.58290 0.01000
H 	H 	0.79100 0.87460 0.61440 0.03500
H 	H 	0.78600 0.93390 0.61950 0.00600
H 	H 	0.73460 0.95280 0.59340 0.06000
H 	H 	0.70980 0.08780 0.32480 0.01600
H 	H 	0.73880 0.16460 0.31820 0.05700
H 	H 	0.73890 0.16480 0.38170 0.02100
H 	H 	0.71000 0.08830 0.45190 0.07100
H 	H 	0.59140 0.67170 0.59590 0.00900
H 	H 	0.52150 0.59140 0.63590 0.03800
H 	H 	0.45570 0.58780 0.64030 0.01400
H 	H 	0.45960 0.66400 0.60500 0.07400
H 	H 	0.72760 0.94540 0.32080 0.02400
H 	H 	0.76640 0.91370 0.31210 0.04400
H 	H 	0.76890 0.85150 0.37500 0.03100
H 	H 	0.73250 0.82100 0.44670 0.02300
H 	H 	0.57510 0.92390 0.32800 0.01800
H 	H 	0.50330 0.88360 0.32350 0.04200
H 	H 	0.44070 0.81950 0.38900 0.02200
H 	H 	0.44990 0.79570 0.45880 0.08000
H 	H 	0.13700 0.52320 0.63200 0.01500
H 	H 	0.21510 0.57090 0.60980 0.07300
H 	H 	0.21570 0.63890 0.67000 0.06500
H 	H 	0.13760 0.59120 0.69200 0.01900
H 	H 	0.28200 0.66570 0.55890 0.08300
H 	H 	0.35960 0.71290 0.53730 0.00900
H 	H 	0.35250 0.66780 0.66410 0.00900
H 	H 	0.27490 0.62060 0.68570 0.06400
H 	H 	0.91280 0.30000 0.64960 0.06200
H 	H 	0.98460 0.33090 0.61130 0.02500
H 	H 	0.04900 0.40060 0.60560 0.02300
H 	H 	0.04150 0.43920 0.63850 0.07200
H 	H 	0.91730 0.33440 0.91050 0.01000
H 	H 	0.98900 0.37460 0.91640 0.03500
H 	H 	0.05340 0.43390 0.85210 0.00600
H 	H 	0.04620 0.45280 0.78180 0.06000
H 	H 	0.91260 0.58780 0.62200 0.01600
H 	H 	0.98280 0.66460 0.57420 0.05700
H 	H 	0.04650 0.66480 0.57410 0.02100
H 	H 	0.04020 0.58830 0.62170 0.07100
H 	H 	0.76760 0.17170 0.91970 0.00900
H 	H 	0.72730 0.09140 0.93010 0.03800
H 	H 	0.72810 0.08780 0.86790 0.01400
H 	H 	0.76900 0.16400 0.79560 0.07400
H 	H 	0.76620 0.44540 0.78220 0.02400
H 	H 	0.72580 0.41370 0.85270 0.04400
H 	H 	0.72650 0.35150 0.91740 0.03100
H 	H 	0.76770 0.32100 0.91150 0.02400
H 	H 	0.75190 0.42390 0.65120 0.01800
H 	H 	0.70710 0.38360 0.61970 0.04200
H 	H 	0.70850 0.31950 0.62120 0.02200
H 	H 	0.75450 0.29570 0.65420 0.08000
H 	H 	0.65520 0.02320 0.61380 0.01500
H 	H 	0.68070 0.07090 0.64420 0.07300
H 	H 	0.80890 0.13890 0.57680 0.06500
H 	H 	0.78320 0.09120 0.54640 0.01900
H 	H 	0.72460 0.16570 0.61630 0.08300
H 	H 	0.75020 0.21290 0.64670 0.00900
H 	H 	0.83190 0.16780 0.68470 0.00900
H 	H 	0.80630 0.12060 0.65430 0.06400
C 	C 	0.55653 0.89280 0.57987 0.06700
C 	C 	0.51802 0.85090 0.58308 0.05000
C 	C 	0.47510 0.82770 0.61080 -0.11100
C 	C 	0.47070 0.84640 0.63530 -0.03100
C 	C 	0.50920 0.88830 0.63210 -0.01900
C 	C 	0.55210 0.91150 0.60440 -0.12800
C 	C 	0.70890 0.90500 0.57230 0.06700
C 	C 	0.71200 0.86940 0.56920 0.02700
C 	C 	0.74285 0.85800 0.58495 -0.09400
C 	C 	0.77060 0.88210 0.60390 -0.05000
C 	C 	0.76750 0.91780 0.60710 -0.00400
C 	C 	0.73671 0.92920 0.59129 -0.12900
C 	C 	0.69264 0.04240 0.43016 0.08900
C 	C 	0.69260 0.04230 0.39230 0.02300
C 	C 	0.70980 0.08790 0.35050 -0.07800
C 	C 	0.72716 0.13370 0.34654 -0.06200
C 	C 	0.72720 0.13380 0.38440 0.02000
C 	C 	0.70999 0.08820 0.42621 -0.15100
C 	C 	0.52780 0.71360 0.57920 0.09200
C 	C 	0.56720 0.71580 0.57660 0.02100
C 	C 	0.56490 0.67010 0.59780 -0.08800
C 	C 	0.52310 0.62210 0.62160 -0.05800
C 	C 	0.48370 0.61990 0.62440 0.01600
C 	C 	0.48604 0.66560 0.60316 -0.14900
C 	C 	0.70824 0.86490 0.42666 0.05600
C 	C 	0.70673 0.90213 0.38900 0.02700
C 	C 	0.72850 0.92030 0.34620 -0.09700
C 	C 	0.75182 0.90150 0.34088 -0.03400
C 	C 	0.75324 0.86420 0.37856 -0.01300
C 	C 	0.73150 0.84600 0.42130 -0.11900
C 	C 	0.51806 0.84562 0.43518 0.09300
C 	C 	0.55548 0.88396 0.39604 0.02300
C 	C 	0.54994 0.89815 0.35425 -0.08600
C 	C 	0.50698 0.87401 0.35161 -0.05500
C 	C 	0.46957 0.83568 0.39077 0.00600
C 	C 	0.47509 0.82148 0.43253 -0.14900
C 	C 	0.12969 0.55256 0.66415 -0.15700
C 	C 	0.15286 0.54646 0.63960 0.06100
C 	C 	0.19951 0.57490 0.62639 -0.13000
C 	C 	0.22310 0.60960 0.63770 0.03900
C 	C 	0.19988 0.61560 0.66232 -0.12800
C 	C 	0.15319 0.58710 0.67551 0.05400
C 	C 	0.27101 0.63863 0.62434 0.06800
C 	C 	0.29630 0.66620 0.58010 -0.15300
C 	C 	0.34250 0.69420 0.56730 0.09500
C 	C 	0.36352 0.69480 0.59868 -0.18300
C 	C 	0.33826 0.66730 0.64284 0.08800
C 	C 	0.29206 0.63930 0.65564 -0.14700
C 	C 	0.08169 0.52305 0.67806 0.36100
C 	C 	0.41142 0.72440 0.58498 0.38600
C 	C 	0.97267 0.39280 0.66373 0.06700
C 	C 	0.93398 0.35090 0.66712 0.05000
C 	C 	0.93850 0.32770 0.64740 -0.11100
C 	C 	0.98170 0.34640 0.62430 -0.03100
C 	C 	0.02040 0.38830 0.62090 -0.01900
C 	C 	0.01590 0.41150 0.64060 -0.12800
C 	C 	0.97730 0.40500 0.80390 0.06700
C 	C 	0.93860 0.36940 0.84260 0.02700
C 	C 	0.94295 0.35800 0.88485 -0.09400
C 	C 	0.98600 0.38210 0.88850 -0.05000
C 	C 	0.02490 0.41780 0.84970 -0.00400
C 	C 	0.02049 0.42920 0.80751 -0.12900
C 	C 	0.97256 0.54240 0.65024 0.08900
C 	C 	0.93460 0.54230 0.65030 0.02300
C 	C 	0.93840 0.58790 0.62190 -0.07800
C 	C 	0.98024 0.63370 0.59346 -0.06200
C 	C 	0.01820 0.63380 0.59340 0.02000
C 	C 	0.01441 0.58820 0.62179 -0.15100
C 	C 	0.79280 0.21360 0.81420 0.09200
C 	C 	0.79240 0.21580 0.85140 0.02100
C 	C 	0.76790 0.17010 0.89480 -0.08800
C 	C 	0.74370 0.12210 0.90100 -0.05800
C 	C 	0.74430 0.11990 0.86380 0.01600
C 	C 	0.76876 0.16560 0.82044 -0.14900
C 	C 	0.79156 0.36490 0.84334 0.05600
C 	C 	0.79113 0.40213 0.80460 0.02800
C 	C 	0.76650 0.42030 0.80820 -0.09700
C 	C 	0.74238 0.40150 0.85032 -0.03400
C 	C 	0.74276 0.36420 0.88904 -0.01300
C 	C 	0.76730 0.34600 0.88550 -0.11900
C 	C 	0.78080 0.34562 0.67244 0.09300
C 	C 	0.78000 0.38396 0.67152 0.02300
C 	C 	0.75240 0.39815 0.65179 -0.08600
C 	C 	0.72562 0.37401 0.63297 -0.05500
C 	C 	0.72645 0.33568 0.63389 0.00600
C 	C 	0.75401 0.32148 0.65361 -0.14900
C 	C 	0.71671 0.05256 0.57713 -0.15700
C 	C 	0.68606 0.04646 0.60640 0.06100
C 	C 	0.70129 0.07490 0.62461 -0.13000
C 	C 	0.74730 0.10960 0.61350 0.03900
C 	C 	0.77792 0.11560 0.58428 -0.12800
C 	C 	0.76261 0.08710 0.56609 0.05500
C 	C 	0.76297 0.13863 0.63238 0.06800
C 	C 	0.74630 0.16620 0.63010 -0.15300
C 	C 	0.76150 0.19420 0.64830 0.09500
C 	C 	0.79348 0.19480 0.66872 -0.18300
C 	C 	0.81014 0.16730 0.67096 0.08800
C 	C 	0.79494 0.13930 0.65276 -0.14700
C 	C 	0.70111 0.02305 0.55864 0.36100
C 	C 	0.80938 0.22440 0.68702 0.38600
N 	N 	0.59270 0.90570 0.55340 -0.24100
N 	N 	0.57892 0.87610 0.53778 -0.21600
N 	N 	0.53378 0.84210 0.55652 -0.24400
N 	N 	0.68194 0.91390 0.54796 -0.24600
N 	N 	0.66816 0.88247 0.53499 -0.19600
N 	N 	0.68493 0.85540 0.54647 -0.26400
N 	N 	0.67479 0.99420 0.46521 -0.25500
N 	N 	0.66116 0.96455 0.44993 -0.20300
N 	N 	0.67370 0.99265 0.40479 -0.26600
N 	N 	0.60034 0.76550 0.55016 -0.25600
N 	N 	0.58317 0.79235 0.53924 -0.20300
N 	N 	0.53835 0.76130 0.55535 -0.25100
N 	N 	0.68407 0.85329 0.46362 -0.25900
N 	N 	0.66788 0.88217 0.44949 -0.20200
N 	N 	0.68007 0.90981 0.40634 -0.25000
N 	N 	0.53329 0.83984 0.46925 -0.24300
N 	N 	0.57754 0.87220 0.45286 -0.20100
N 	N 	0.59179 0.89983 0.40922 -0.25300
N 	N 	0.95910 0.40570 0.68700 -0.24100
N 	N 	0.91388 0.37610 0.70282 -0.21600
N 	N 	0.89862 0.34210 0.69168 -0.24400
N 	N 	0.96186 0.41390 0.76804 -0.24500
N 	N 	0.91746 0.38247 0.78569 -0.19600
N 	N 	0.90187 0.35540 0.82953 -0.26400
N 	N 	0.95941 0.49420 0.68059 -0.25400
N 	N 	0.91448 0.46455 0.69661 -0.20300
N 	N 	0.89744 0.49265 0.68105 -0.26600
N 	N 	0.81566 0.26550 0.83484 -0.25600
N 	N 	0.83159 0.29235 0.79082 -0.20300
N 	N 	0.81665 0.26130 0.77705 -0.25100
N 	N 	0.81691 0.35329 0.83078 -0.25900
N 	N 	0.83166 0.38217 0.78571 -0.20200
N 	N 	0.81615 0.40981 0.77026 -0.25000
N 	N 	0.80909 0.33984 0.69345 -0.24300
N 	N 	0.82506 0.37220 0.70534 -0.20100
N 	N 	0.80905 0.39983 0.69196 -0.25300
O 	O 	0.06047 0.53330 0.69443 -0.38500
O 	O 	0.05865 0.48590 0.67485 -0.46800
O 	O 	0.43650 0.75480 0.54470 -0.48900
O 	O 	0.43230 0.72180 0.61310 -0.36500
O 	O 	0.72773 0.03330 0.52717 -0.38600
O 	O 	0.66075 0.98590 0.57275 -0.46800
O 	O 	0.79950 0.25480 0.68170 -0.48900
O 	O 	0.83490 0.22180 0.71050 -0.36500
