data_crystal

_cell_length_a 24.74800
_cell_length_b 32.35400
_cell_length_c 21.71200
_cell_angle_alpha 90.00000
_cell_angle_beta  90.00000
_cell_angle_gamma 90.00000

_symmetry_space_group_name_	'P 1'
_symmetry_space_group_name_H-M	'P 1'

loop_
_symmetry_equiv_pos_as_xyz
  x,y,z

loop_
_atom_site_label
_atom_site_type_symbol
_atom_site_fract_x
_atom_site_fract_y
_atom_site_fract_z
_atom_site_charge
C 	C 	0.59140 0.32290 0.20890 -0.12100
C 	C 	0.56850 0.30930 0.26280 0.06300
H 	H 	0.54280 0.28840 0.26150 0.04600
C 	C 	0.58320 0.32630 0.32010 -0.12400
C 	C 	0.62480 0.35650 0.32100 0.05400
H 	H 	0.63970 0.36540 0.35800 0.03800
C 	C 	0.64250 0.37230 0.26550 -0.09400
C 	C 	0.62550 0.35780 0.21040 0.05500
H 	H 	0.63610 0.37070 0.17410 0.03900
C 	C 	0.57070 0.30670 0.14980 0.37200
C 	C 	0.56550 0.30970 0.38200 0.42200
C 	C 	0.82540 0.44430 0.63170 0.42700
C 	C 	0.81640 0.43880 0.40060 0.34900
C 	C 	0.87390 0.39180 0.45960 0.07300
H 	H 	0.88110 0.37860 0.42250 0.03600
C 	C 	0.84090 0.42470 0.45930 -0.12600
C 	C 	0.82320 0.44130 0.51340 0.06700
H 	H 	0.79920 0.46340 0.51300 0.04600
C 	C 	0.84120 0.42480 0.57020 -0.12700
C 	C 	0.88300 0.39400 0.56970 0.06800
H 	H 	0.89970 0.38610 0.60620 0.03000
C 	C 	0.89820 0.37630 0.51390 -0.12400
O 	O 	0.54330 0.27450 0.15090 -0.38500
O 	O 	0.59380 0.32230 0.10190 -0.41200
O 	O 	0.69100 0.43290 0.20880 -0.32900
O 	O 	0.74430 0.38681 0.27310 -0.34000
O 	O 	0.68580 0.43730 0.32040 -0.32400
O 	O 	0.55160 0.26726 0.01370 -0.52300
O 	O 	0.45920 0.22908 0.01240 -0.52000
O 	O 	0.78580 0.47010 0.40120 -0.36700
O 	O 	0.83160 0.42210 0.67620 -0.44700
O 	O 	0.79710 0.47570 0.63030 -0.40500
O 	O 	0.53320 0.27990 0.38090 -0.40000
O 	O 	0.57510 0.33190 0.42530 -0.44700
O 	O 	0.83940 0.42330 0.35130 -0.39700
O 	O 	0.93900 0.31160 0.56820 -0.31800
O 	O 	0.99700 0.35730 0.51750 -0.36800
S 	S 	0.69501 0.41073 0.26680 0.48500
S 	S 	0.94647 0.33648 0.51320 0.57200
Cu	Cu	0.50808 0.24579 0.94505 0.95700
Cu	Cu	0.82347 0.42376 0.26319 0.91300
Cu	Cu	0.57767 0.32398 0.01391 0.90600
Cu	Cu	0.50600 0.24623 0.08346 0.93100
O 	O 	0.93920 0.31540 0.45880 -0.32800
C 	C 	0.59140 0.82290 0.70890 -0.11600
C 	C 	0.56850 0.80930 0.76280 0.06100
H 	H 	0.54280 0.78840 0.76150 0.04900
C 	C 	0.58320 0.82630 0.82010 -0.11600
C 	C 	0.62480 0.85650 0.82100 0.05100
H 	H 	0.63970 0.86540 0.85800 0.04500
C 	C 	0.64250 0.87230 0.76550 -0.08800
C 	C 	0.62550 0.85780 0.71040 0.05300
H 	H 	0.63610 0.87070 0.67410 0.04400
C 	C 	0.57070 0.80670 0.64980 0.37200
C 	C 	0.56550 0.80970 0.88200 0.42000
C 	C 	0.82540 0.94430 0.13170 0.42200
C 	C 	0.81640 0.93880 0.90060 0.34000
C 	C 	0.87390 0.89180 0.95960 0.10400
H 	H 	0.88110 0.87860 0.92250 0.03400
C 	C 	0.84090 0.92470 0.95930 -0.07700
C 	C 	0.82320 0.94130 0.01340 0.00500
H 	H 	0.79920 0.96340 0.01300 0.05600
C 	C 	0.84120 0.92480 0.07020 -0.11400
C 	C 	0.88300 0.89400 0.06970 0.06500
H 	H 	0.89970 0.88610 0.10620 0.03200
C 	C 	0.89820 0.87630 0.01390 -0.15000
O 	O 	0.54330 0.77450 0.65090 -0.38200
O 	O 	0.59380 0.82230 0.60190 -0.40600
O 	O 	0.69100 0.93290 0.70880 -0.32500
O 	O 	0.74430 0.88681 0.77310 -0.33600
O 	O 	0.68580 0.93730 0.82040 -0.31800
O 	O 	0.55160 0.76726 0.51370 -0.50400
O 	O 	0.45920 0.72908 0.51240 -0.50100
O 	O 	0.78580 0.97010 0.90120 -0.35400
O 	O 	0.83160 0.92210 0.17620 -0.44800
O 	O 	0.79710 0.97570 0.13030 -0.40600
O 	O 	0.53320 0.77990 0.88090 -0.39400
O 	O 	0.57510 0.83190 0.92530 -0.42800
O 	O 	0.83940 0.92330 0.85130 -0.39100
O 	O 	0.93900 0.81160 0.06820 -0.31200
O 	O 	0.99700 0.85730 0.01750 -0.36900
S 	S 	0.69501 0.91073 0.76680 0.48300
S 	S 	0.94647 0.83648 0.01320 0.52100
Cu	Cu	0.50808 0.74579 0.44505 0.94300
Cu	Cu	0.82347 0.92376 0.76319 0.91400
Cu	Cu	0.57767 0.82398 0.51391 0.91800
Cu	Cu	0.50600 0.74623 0.58346 0.93200
O 	O 	0.93920 0.81540 0.95880 -0.28600
C 	C 	0.09140 0.32290 0.70890 -0.11600
C 	C 	0.06850 0.30930 0.76280 0.06100
H 	H 	0.04280 0.28840 0.76150 0.04900
C 	C 	0.08320 0.32630 0.82010 -0.11600
C 	C 	0.12480 0.35650 0.82100 0.05100
H 	H 	0.13970 0.36540 0.85800 0.04500
C 	C 	0.14250 0.37230 0.76550 -0.08800
C 	C 	0.12550 0.35780 0.71040 0.05300
H 	H 	0.13610 0.37070 0.67410 0.04400
C 	C 	0.07070 0.30670 0.64980 0.37200
C 	C 	0.06550 0.30970 0.88200 0.42000
C 	C 	0.32540 0.44430 0.13170 0.42200
C 	C 	0.31640 0.43880 0.90060 0.34000
C 	C 	0.37390 0.39180 0.95960 0.10400
H 	H 	0.38110 0.37860 0.92250 0.03300
C 	C 	0.34090 0.42470 0.95930 -0.07700
C 	C 	0.32320 0.44130 0.01340 0.00400
H 	H 	0.29920 0.46340 0.01300 0.05600
C 	C 	0.34120 0.42480 0.07020 -0.11400
C 	C 	0.38300 0.39400 0.06970 0.06500
H 	H 	0.39970 0.38610 0.10620 0.03200
C 	C 	0.39820 0.37630 0.01390 -0.15000
O 	O 	0.04330 0.27450 0.65090 -0.38200
O 	O 	0.09380 0.32230 0.60190 -0.40600
O 	O 	0.19100 0.43290 0.70880 -0.32500
O 	O 	0.24430 0.38681 0.77310 -0.33600
O 	O 	0.18580 0.43730 0.82040 -0.31800
O 	O 	0.05160 0.26726 0.51370 -0.50400
O 	O 	0.95920 0.22908 0.51240 -0.50100
O 	O 	0.28580 0.47010 0.90120 -0.35400
O 	O 	0.33160 0.42210 0.17620 -0.44800
O 	O 	0.29710 0.47570 0.13030 -0.40600
O 	O 	0.03320 0.27990 0.88090 -0.39400
O 	O 	0.07510 0.33190 0.92530 -0.42800
O 	O 	0.33940 0.42330 0.85130 -0.39100
O 	O 	0.43900 0.31160 0.06820 -0.31200
O 	O 	0.49700 0.35730 0.01750 -0.36900
S 	S 	0.19501 0.41073 0.76680 0.48300
S 	S 	0.44647 0.33648 0.01320 0.52000
Cu	Cu	0.00808 0.24579 0.44505 0.94300
Cu	Cu	0.32347 0.42376 0.76319 0.91400
Cu	Cu	0.07767 0.32398 0.51391 0.91800
Cu	Cu	0.00600 0.24623 0.58346 0.93200
O 	O 	0.43920 0.31540 0.95880 -0.28500
C 	C 	0.09140 0.82290 0.20890 -0.12000
C 	C 	0.06850 0.80930 0.26280 0.06400
H 	H 	0.04280 0.78840 0.26150 0.04700
C 	C 	0.08320 0.82630 0.32010 -0.12300
C 	C 	0.12480 0.85650 0.32100 0.05500
H 	H 	0.13970 0.86540 0.35800 0.03900
C 	C 	0.14250 0.87230 0.26550 -0.09300
C 	C 	0.12550 0.85780 0.21040 0.05600
H 	H 	0.13610 0.87070 0.17410 0.04000
C 	C 	0.07070 0.80670 0.14980 0.37300
C 	C 	0.06550 0.80970 0.38200 0.42300
C 	C 	0.32540 0.94430 0.63170 0.42800
C 	C 	0.31640 0.93880 0.40060 0.35000
C 	C 	0.37390 0.89180 0.45960 0.07400
H 	H 	0.38110 0.87860 0.42250 0.03700
C 	C 	0.34090 0.92470 0.45930 -0.12500
C 	C 	0.32320 0.94130 0.51340 0.06800
H 	H 	0.29920 0.96340 0.51300 0.04700
C 	C 	0.34120 0.92480 0.57020 -0.12600
C 	C 	0.38300 0.89400 0.56970 0.06900
H 	H 	0.39970 0.88610 0.60620 0.03100
C 	C 	0.39820 0.87630 0.51390 -0.12300
O 	O 	0.04330 0.77450 0.15090 -0.38400
O 	O 	0.09380 0.82230 0.10190 -0.41100
O 	O 	0.19100 0.93290 0.20880 -0.32700
O 	O 	0.24430 0.88681 0.27310 -0.33900
O 	O 	0.18580 0.93730 0.32040 -0.32300
O 	O 	0.05160 0.76726 0.01370 -0.52200
O 	O 	0.95920 0.72908 0.01240 -0.52000
O 	O 	0.28580 0.97010 0.40120 -0.36700
O 	O 	0.33160 0.92210 0.67620 -0.44700
O 	O 	0.29710 0.97570 0.63030 -0.40500
O 	O 	0.03320 0.77990 0.38090 -0.40000
O 	O 	0.07510 0.83190 0.42530 -0.44700
O 	O 	0.33940 0.92330 0.35130 -0.39700
O 	O 	0.43900 0.81160 0.56820 -0.31800
O 	O 	0.49700 0.85730 0.51750 -0.36800
S 	S 	0.19501 0.91073 0.26680 0.48500
S 	S 	0.44647 0.83648 0.51320 0.57200
Cu	Cu	0.00808 0.74579 0.94505 0.95700
Cu	Cu	0.32347 0.92376 0.26319 0.91300
Cu	Cu	0.07767 0.82398 0.01391 0.90600
Cu	Cu	0.00600 0.74623 0.08346 0.93100
O 	O 	0.43920 0.81540 0.45880 -0.32800
C 	C 	0.40860 0.67710 0.20890 -0.12000
C 	C 	0.43150 0.69070 0.26280 0.06400
H 	H 	0.45720 0.71160 0.26150 0.04700
C 	C 	0.41680 0.67370 0.32010 -0.12300
C 	C 	0.37520 0.64350 0.32100 0.05500
H 	H 	0.36030 0.63460 0.35800 0.03900
C 	C 	0.35750 0.62770 0.26550 -0.09300
C 	C 	0.37450 0.64220 0.21040 0.05600
H 	H 	0.36390 0.62930 0.17410 0.04000
C 	C 	0.42930 0.69330 0.14980 0.37300
C 	C 	0.43450 0.69030 0.38200 0.42300
C 	C 	0.17460 0.55570 0.63170 0.42800
C 	C 	0.18360 0.56120 0.40060 0.35000
C 	C 	0.12610 0.60820 0.45960 0.07400
H 	H 	0.11890 0.62140 0.42250 0.03700
C 	C 	0.15910 0.57530 0.45930 -0.12500
C 	C 	0.17680 0.55870 0.51340 0.06800
H 	H 	0.20080 0.53660 0.51300 0.04700
C 	C 	0.15880 0.57520 0.57020 -0.12600
C 	C 	0.11700 0.60600 0.56970 0.06900
H 	H 	0.10030 0.61390 0.60620 0.03100
C 	C 	0.10180 0.62370 0.51390 -0.12300
O 	O 	0.45670 0.72550 0.15090 -0.38400
O 	O 	0.40620 0.67770 0.10190 -0.41100
O 	O 	0.30900 0.56710 0.20880 -0.32800
O 	O 	0.25570 0.61319 0.27310 -0.33900
O 	O 	0.31420 0.56270 0.32040 -0.32300
O 	O 	0.44840 0.73274 0.01370 -0.52200
O 	O 	0.54080 0.77092 0.01240 -0.52000
O 	O 	0.21420 0.52990 0.40120 -0.36700
O 	O 	0.16840 0.57790 0.67620 -0.44700
O 	O 	0.20290 0.52430 0.63030 -0.40500
O 	O 	0.46680 0.72010 0.38090 -0.40000
O 	O 	0.42490 0.66810 0.42530 -0.44700
O 	O 	0.16060 0.57670 0.35130 -0.39700
O 	O 	0.06100 0.68840 0.56820 -0.31800
O 	O 	0.00300 0.64270 0.51750 -0.36800
S 	S 	0.30499 0.58927 0.26680 0.48500
S 	S 	0.05353 0.66352 0.51320 0.57200
Cu	Cu	0.49192 0.75421 0.94505 0.95700
Cu	Cu	0.17653 0.57624 0.26319 0.91300
Cu	Cu	0.42233 0.67602 0.01391 0.90600
Cu	Cu	0.49400 0.75377 0.08346 0.93100
O 	O 	0.06080 0.68460 0.45880 -0.32800
C 	C 	0.40860 0.17710 0.70890 -0.11600
C 	C 	0.43150 0.19070 0.76280 0.06100
H 	H 	0.45720 0.21160 0.76150 0.04900
C 	C 	0.41680 0.17370 0.82010 -0.11600
C 	C 	0.37520 0.14350 0.82100 0.05100
H 	H 	0.36030 0.13460 0.85800 0.04500
C 	C 	0.35750 0.12770 0.76550 -0.08800
C 	C 	0.37450 0.14220 0.71040 0.05300
H 	H 	0.36390 0.12930 0.67410 0.04400
C 	C 	0.42930 0.19330 0.64980 0.37200
C 	C 	0.43450 0.19030 0.88200 0.42000
C 	C 	0.17460 0.05570 0.13170 0.42200
C 	C 	0.18360 0.06120 0.90060 0.34000
C 	C 	0.12610 0.10820 0.95960 0.10400
H 	H 	0.11890 0.12140 0.92250 0.03400
C 	C 	0.15910 0.07530 0.95930 -0.07700
C 	C 	0.17680 0.05870 0.01340 0.00500
H 	H 	0.20080 0.03660 0.01300 0.05600
C 	C 	0.15880 0.07520 0.07020 -0.11400
C 	C 	0.11700 0.10600 0.06970 0.06500
H 	H 	0.10030 0.11390 0.10620 0.03200
C 	C 	0.10180 0.12370 0.01390 -0.15000
O 	O 	0.45670 0.22550 0.65090 -0.38200
O 	O 	0.40620 0.17770 0.60190 -0.40600
O 	O 	0.30900 0.06710 0.70880 -0.32500
O 	O 	0.25570 0.11319 0.77310 -0.33600
O 	O 	0.31420 0.06270 0.82040 -0.31800
O 	O 	0.44840 0.23274 0.51370 -0.50400
O 	O 	0.54080 0.27092 0.51240 -0.50100
O 	O 	0.21420 0.02990 0.90120 -0.35400
O 	O 	0.16840 0.07790 0.17620 -0.44800
O 	O 	0.20290 0.02430 0.13030 -0.40600
O 	O 	0.46680 0.22010 0.88090 -0.39400
O 	O 	0.42490 0.16810 0.92530 -0.42800
O 	O 	0.16060 0.07670 0.85130 -0.39100
O 	O 	0.06100 0.18840 0.06820 -0.31200
O 	O 	0.00300 0.14270 0.01750 -0.36900
S 	S 	0.30499 0.08927 0.76680 0.48300
S 	S 	0.05353 0.16352 0.01320 0.52100
Cu	Cu	0.49192 0.25421 0.44505 0.94300
Cu	Cu	0.17653 0.07624 0.76319 0.91400
Cu	Cu	0.42233 0.17602 0.51391 0.91800
Cu	Cu	0.49400 0.25377 0.58346 0.93200
O 	O 	0.06080 0.18460 0.95880 -0.28600
C 	C 	0.90860 0.67710 0.70890 -0.11600
C 	C 	0.93150 0.69070 0.76280 0.06100
H 	H 	0.95720 0.71160 0.76150 0.04900
C 	C 	0.91680 0.67370 0.82010 -0.11600
C 	C 	0.87520 0.64350 0.82100 0.05100
H 	H 	0.86030 0.63460 0.85800 0.04500
C 	C 	0.85750 0.62770 0.76550 -0.08800
C 	C 	0.87450 0.64220 0.71040 0.05300
H 	H 	0.86390 0.62930 0.67410 0.04400
C 	C 	0.92930 0.69330 0.64980 0.37200
C 	C 	0.93450 0.69030 0.88200 0.42000
C 	C 	0.67460 0.55570 0.13170 0.42200
C 	C 	0.68360 0.56120 0.90060 0.34000
C 	C 	0.62610 0.60820 0.95960 0.10400
H 	H 	0.61890 0.62140 0.92250 0.03300
C 	C 	0.65910 0.57530 0.95930 -0.07700
C 	C 	0.67680 0.55870 0.01340 0.00400
H 	H 	0.70080 0.53660 0.01300 0.05600
C 	C 	0.65880 0.57520 0.07020 -0.11400
C 	C 	0.61700 0.60600 0.06970 0.06500
H 	H 	0.60030 0.61390 0.10620 0.03200
C 	C 	0.60180 0.62370 0.01390 -0.15000
O 	O 	0.95670 0.72550 0.65090 -0.38200
O 	O 	0.90620 0.67770 0.60190 -0.40600
O 	O 	0.80900 0.56710 0.70880 -0.32500
O 	O 	0.75570 0.61319 0.77310 -0.33600
O 	O 	0.81420 0.56270 0.82040 -0.31800
O 	O 	0.94840 0.73274 0.51370 -0.50400
O 	O 	0.04080 0.77092 0.51240 -0.50100
O 	O 	0.71420 0.52990 0.90120 -0.35400
O 	O 	0.66840 0.57790 0.17620 -0.44800
O 	O 	0.70290 0.52430 0.13030 -0.40600
O 	O 	0.96680 0.72010 0.88090 -0.39400
O 	O 	0.92490 0.66810 0.92530 -0.42800
O 	O 	0.66060 0.57670 0.85130 -0.39100
O 	O 	0.56100 0.68840 0.06820 -0.31200
O 	O 	0.50300 0.64270 0.01750 -0.36900
S 	S 	0.80499 0.58927 0.76680 0.48300
S 	S 	0.55353 0.66352 0.01320 0.52000
Cu	Cu	0.99192 0.75421 0.44505 0.94300
Cu	Cu	0.67653 0.57624 0.76319 0.91400
Cu	Cu	0.92233 0.67602 0.51391 0.91800
Cu	Cu	0.99400 0.75377 0.58346 0.93200
O 	O 	0.56080 0.68460 0.95880 -0.28500
C 	C 	0.90860 0.17710 0.20890 -0.12000
C 	C 	0.93150 0.19070 0.26280 0.06400
H 	H 	0.95720 0.21160 0.26150 0.04700
C 	C 	0.91680 0.17370 0.32010 -0.12300
C 	C 	0.87520 0.14350 0.32100 0.05500
H 	H 	0.86030 0.13460 0.35800 0.03900
C 	C 	0.85750 0.12770 0.26550 -0.09300
C 	C 	0.87450 0.14220 0.21040 0.05600
H 	H 	0.86390 0.12930 0.17410 0.04000
C 	C 	0.92930 0.19330 0.14980 0.37300
C 	C 	0.93450 0.19030 0.38200 0.42300
C 	C 	0.67460 0.05570 0.63170 0.42800
C 	C 	0.68360 0.06120 0.40060 0.35000
C 	C 	0.62610 0.10820 0.45960 0.07400
H 	H 	0.61890 0.12140 0.42250 0.03700
C 	C 	0.65910 0.07530 0.45930 -0.12500
C 	C 	0.67680 0.05870 0.51340 0.06800
H 	H 	0.70080 0.03660 0.51300 0.04700
C 	C 	0.65880 0.07520 0.57020 -0.12600
C 	C 	0.61700 0.10600 0.56970 0.06900
H 	H 	0.60030 0.11390 0.60620 0.03100
C 	C 	0.60180 0.12370 0.51390 -0.12300
O 	O 	0.95670 0.22550 0.15090 -0.38400
O 	O 	0.90620 0.17770 0.10190 -0.41100
O 	O 	0.80900 0.06710 0.20880 -0.32700
O 	O 	0.75570 0.11319 0.27310 -0.33900
O 	O 	0.81420 0.06270 0.32040 -0.32300
O 	O 	0.94840 0.23274 0.01370 -0.52200
O 	O 	0.04080 0.27092 0.01240 -0.52000
O 	O 	0.71420 0.02990 0.40120 -0.36700
O 	O 	0.66840 0.07790 0.67620 -0.44700
O 	O 	0.70290 0.02430 0.63030 -0.40500
O 	O 	0.96680 0.22010 0.38090 -0.40000
O 	O 	0.92490 0.16810 0.42530 -0.44700
O 	O 	0.66060 0.07670 0.35130 -0.39700
O 	O 	0.56100 0.18840 0.56820 -0.31800
O 	O 	0.50300 0.14270 0.51750 -0.36800
S 	S 	0.80499 0.08927 0.26680 0.48500
S 	S 	0.55353 0.16352 0.51320 0.57200
Cu	Cu	0.99192 0.25421 0.94505 0.95700
Cu	Cu	0.67653 0.07624 0.26319 0.91300
Cu	Cu	0.92233 0.17602 0.01391 0.90600
Cu	Cu	0.99400 0.25377 0.08346 0.93100
O 	O 	0.56080 0.18460 0.45880 -0.32800
C 	C 	0.84140 0.92710 0.45890 -0.11800
C 	C 	0.81850 0.94070 0.51280 0.06300
H 	H 	0.79280 0.96160 0.51150 0.04800
C 	C 	0.83320 0.92370 0.57010 -0.12100
C 	C 	0.87480 0.89350 0.57100 0.05400
H 	H 	0.88970 0.88460 0.60800 0.04000
C 	C 	0.89250 0.87770 0.51550 -0.09100
C 	C 	0.87550 0.89220 0.46040 0.05400
H 	H 	0.88610 0.87930 0.42410 0.04300
C 	C 	0.82070 0.94330 0.39980 0.37200
C 	C 	0.81550 0.94030 0.63200 0.42200
C 	C 	0.07540 0.80570 0.88170 0.42600
C 	C 	0.06640 0.81120 0.65060 0.34900
C 	C 	0.12390 0.85820 0.70960 0.07200
H 	H 	0.13110 0.87140 0.67250 0.03800
C 	C 	0.09090 0.82530 0.70930 -0.12200
C 	C 	0.07320 0.80870 0.76340 0.06500
H 	H 	0.04920 0.78660 0.76300 0.04800
C 	C 	0.09120 0.82520 0.82020 -0.12100
C 	C 	0.13300 0.85600 0.81970 0.06700
H 	H 	0.14970 0.86390 0.85620 0.03700
C 	C 	0.14820 0.87370 0.76390 -0.11900
O 	O 	0.79330 0.97550 0.40090 -0.38300
O 	O 	0.84380 0.92770 0.35190 -0.40700
O 	O 	0.94100 0.81710 0.45880 -0.32600
O 	O 	0.99430 0.86319 0.52310 -0.33800
O 	O 	0.93580 0.81270 0.57040 -0.32200
O 	O 	0.80160 0.98274 0.26370 -0.50400
O 	O 	0.70920 0.02092 0.26240 -0.50200
O 	O 	0.03580 0.77990 0.65120 -0.36700
O 	O 	0.08160 0.82790 0.92620 -0.42800
O 	O 	0.04710 0.77430 0.88030 -0.39900
O 	O 	0.78320 0.97010 0.63090 -0.40000
O 	O 	0.82510 0.91810 0.67530 -0.44700
O 	O 	0.08940 0.82670 0.60130 -0.39600
O 	O 	0.18900 0.93840 0.81820 -0.31400
O 	O 	0.24700 0.89270 0.76750 -0.36600
S 	S 	0.94501 0.83927 0.51680 0.48400
S 	S 	0.19647 0.91352 0.76320 0.57000
Cu	Cu	0.75808 0.00421 0.19505 0.94300
Cu	Cu	0.07347 0.82624 0.51319 0.91300
Cu	Cu	0.82767 0.92602 0.26391 0.91700
Cu	Cu	0.75600 0.00377 0.33346 0.93200
O 	O 	0.18920 0.93460 0.70880 -0.32700
C 	C 	0.84140 0.42710 0.95890 -0.07600
C 	C 	0.81850 0.44070 0.01280 0.00500
H 	H 	0.79280 0.46160 0.01150 0.05500
C 	C 	0.83320 0.42370 0.07010 -0.11300
C 	C 	0.87480 0.39350 0.07100 0.05800
H 	H 	0.88970 0.38460 0.10800 0.03700
C 	C 	0.89250 0.37770 0.01550 -0.13100
C 	C 	0.87550 0.39220 0.96040 0.09800
H 	H 	0.88610 0.37930 0.92410 0.03400
C 	C 	0.82070 0.44330 0.89980 0.36400
C 	C 	0.81550 0.44030 0.13200 0.41700
C 	C 	0.07540 0.30570 0.38170 0.42900
C 	C 	0.06640 0.31120 0.15060 0.35100
C 	C 	0.12390 0.35820 0.20960 0.07600
H 	H 	0.13110 0.37140 0.17250 0.03500
C 	C 	0.09090 0.32530 0.20930 -0.12700
C 	C 	0.07320 0.30870 0.26340 0.06900
H 	H 	0.04920 0.28660 0.26300 0.04600
C 	C 	0.09120 0.32520 0.32020 -0.12700
C 	C 	0.13300 0.35600 0.31970 0.07000
H 	H 	0.14970 0.36390 0.35620 0.03100
C 	C 	0.14820 0.37370 0.26390 -0.12500
O 	O 	0.79330 0.47550 0.90090 -0.37000
O 	O 	0.84380 0.42770 0.85190 -0.40200
O 	O 	0.94100 0.31710 0.95880 -0.28900
O 	O 	0.99430 0.36319 0.02310 -0.34200
O 	O 	0.93580 0.31270 0.07040 -0.31800
O 	O 	0.80160 0.48274 0.76370 -0.50300
O 	O 	0.70920 0.52092 0.76240 -0.50100
O 	O 	0.03580 0.27990 0.15120 -0.36800
O 	O 	0.08160 0.32790 0.42620 -0.44800
O 	O 	0.04710 0.27430 0.38030 -0.40500
O 	O 	0.78320 0.47010 0.13090 -0.40200
O 	O 	0.82510 0.41810 0.17530 -0.44700
O 	O 	0.08940 0.32670 0.10130 -0.40100
O 	O 	0.18900 0.43840 0.31820 -0.31900
O 	O 	0.24700 0.39270 0.26750 -0.36900
S 	S 	0.94501 0.33927 0.01680 0.44400
S 	S 	0.19647 0.41352 0.26320 0.57300
Cu	Cu	0.75808 0.50421 0.69505 0.94300
Cu	Cu	0.07347 0.32624 0.01319 0.90200
Cu	Cu	0.82767 0.42602 0.76391 0.91800
Cu	Cu	0.75600 0.50377 0.83346 0.93200
O 	O 	0.18920 0.43460 0.20880 -0.33000
C 	C 	0.34140 0.92710 0.95890 -0.07700
C 	C 	0.31850 0.94070 0.01280 0.00500
H 	H 	0.29280 0.96160 0.01150 0.05500
C 	C 	0.33320 0.92370 0.07010 -0.11300
C 	C 	0.37480 0.89350 0.07100 0.05800
H 	H 	0.38970 0.88460 0.10800 0.03700
C 	C 	0.39250 0.87770 0.01550 -0.13100
C 	C 	0.37550 0.89220 0.96040 0.09900
H 	H 	0.38610 0.87930 0.92410 0.03400
C 	C 	0.32070 0.94330 0.89980 0.36400
C 	C 	0.31550 0.94030 0.13200 0.41700
C 	C 	0.57540 0.80570 0.38170 0.42900
C 	C 	0.56640 0.81120 0.15060 0.35100
C 	C 	0.62390 0.85820 0.20960 0.07600
H 	H 	0.63110 0.87140 0.17250 0.03500
C 	C 	0.59090 0.82530 0.20930 -0.12700
C 	C 	0.57320 0.80870 0.26340 0.06900
H 	H 	0.54920 0.78660 0.26300 0.04600
C 	C 	0.59120 0.82520 0.32020 -0.12700
C 	C 	0.63300 0.85600 0.31970 0.07000
H 	H 	0.64970 0.86390 0.35620 0.03100
C 	C 	0.64820 0.87370 0.26390 -0.12500
O 	O 	0.29330 0.97550 0.90090 -0.37000
O 	O 	0.34380 0.92770 0.85190 -0.40200
O 	O 	0.44100 0.81710 0.95880 -0.28800
O 	O 	0.49430 0.86319 0.02310 -0.34200
O 	O 	0.43580 0.81270 0.07040 -0.31800
O 	O 	0.30160 0.98274 0.76370 -0.50300
O 	O 	0.20920 0.02092 0.76240 -0.50100
O 	O 	0.53580 0.77990 0.15120 -0.36800
O 	O 	0.58160 0.82790 0.42620 -0.44800
O 	O 	0.54710 0.77430 0.38030 -0.40500
O 	O 	0.28320 0.97010 0.13090 -0.40200
O 	O 	0.32510 0.91810 0.17530 -0.44700
O 	O 	0.58940 0.82670 0.10130 -0.40100
O 	O 	0.68900 0.93840 0.31820 -0.31900
O 	O 	0.74700 0.89270 0.26750 -0.36900
S 	S 	0.44501 0.83927 0.01680 0.44400
S 	S 	0.69647 0.91352 0.26320 0.57300
Cu	Cu	0.25808 0.00421 0.69505 0.94300
Cu	Cu	0.57347 0.82624 0.01319 0.90200
Cu	Cu	0.32767 0.92602 0.76391 0.91800
Cu	Cu	0.25600 0.00377 0.83346 0.93300
O 	O 	0.68920 0.93460 0.20880 -0.33000
C 	C 	0.34140 0.42710 0.45890 -0.11800
C 	C 	0.31850 0.44070 0.51280 0.06300
H 	H 	0.29280 0.46160 0.51150 0.04800
C 	C 	0.33320 0.42370 0.57010 -0.12100
C 	C 	0.37480 0.39350 0.57100 0.05400
H 	H 	0.38970 0.38460 0.60800 0.04000
C 	C 	0.39250 0.37770 0.51550 -0.09200
C 	C 	0.37550 0.39220 0.46040 0.05400
H 	H 	0.38610 0.37930 0.42410 0.04300
C 	C 	0.32070 0.44330 0.39980 0.37200
C 	C 	0.31550 0.44030 0.63200 0.42200
C 	C 	0.57540 0.30570 0.88170 0.42500
C 	C 	0.56640 0.31120 0.65060 0.34900
C 	C 	0.62390 0.35820 0.70960 0.07200
H 	H 	0.63110 0.37140 0.67250 0.03800
C 	C 	0.59090 0.32530 0.70930 -0.12200
C 	C 	0.57320 0.30870 0.76340 0.06500
H 	H 	0.54920 0.28660 0.76300 0.04800
C 	C 	0.59120 0.32520 0.82020 -0.12100
C 	C 	0.63300 0.35600 0.81970 0.06700
H 	H 	0.64970 0.36390 0.85620 0.03700
C 	C 	0.64820 0.37370 0.76390 -0.11900
O 	O 	0.29330 0.47550 0.40090 -0.38300
O 	O 	0.34380 0.42770 0.35190 -0.40700
O 	O 	0.44100 0.31710 0.45880 -0.32600
O 	O 	0.49430 0.36319 0.52310 -0.33800
O 	O 	0.43580 0.31270 0.57040 -0.32200
O 	O 	0.30160 0.48274 0.26370 -0.50400
O 	O 	0.20920 0.52092 0.26240 -0.50200
O 	O 	0.53580 0.27990 0.65120 -0.36700
O 	O 	0.58160 0.32790 0.92620 -0.42800
O 	O 	0.54710 0.27430 0.88030 -0.39800
O 	O 	0.28320 0.47010 0.63090 -0.40000
O 	O 	0.32510 0.41810 0.67530 -0.44700
O 	O 	0.58940 0.32670 0.60130 -0.39600
O 	O 	0.68900 0.43840 0.81820 -0.31400
O 	O 	0.74700 0.39270 0.76750 -0.36600
S 	S 	0.44501 0.33927 0.51680 0.48400
S 	S 	0.69647 0.41352 0.76320 0.57000
Cu	Cu	0.25808 0.50421 0.19505 0.94300
Cu	Cu	0.57347 0.32624 0.51319 0.91300
Cu	Cu	0.32767 0.42602 0.26391 0.91700
Cu	Cu	0.25600 0.50377 0.33346 0.93200
O 	O 	0.68920 0.43460 0.70880 -0.32700
C 	C 	0.65860 0.57290 0.45890 -0.11800
C 	C 	0.68150 0.55930 0.51280 0.06300
H 	H 	0.70720 0.53840 0.51150 0.04800
C 	C 	0.66680 0.57630 0.57010 -0.12100
C 	C 	0.62520 0.60650 0.57100 0.05400
H 	H 	0.61030 0.61540 0.60800 0.04000
C 	C 	0.60750 0.62230 0.51550 -0.09200
C 	C 	0.62450 0.60780 0.46040 0.05400
H 	H 	0.61390 0.62070 0.42410 0.04300
C 	C 	0.67930 0.55670 0.39980 0.37200
C 	C 	0.68450 0.55970 0.63200 0.42200
C 	C 	0.42460 0.69430 0.88170 0.42500
C 	C 	0.43360 0.68880 0.65060 0.34900
C 	C 	0.37610 0.64180 0.70960 0.07200
H 	H 	0.36890 0.62860 0.67250 0.03800
C 	C 	0.40910 0.67470 0.70930 -0.12200
C 	C 	0.42680 0.69130 0.76340 0.06500
H 	H 	0.45080 0.71340 0.76300 0.04800
C 	C 	0.40880 0.67480 0.82020 -0.12100
C 	C 	0.36700 0.64400 0.81970 0.06700
H 	H 	0.35030 0.63610 0.85620 0.03700
C 	C 	0.35180 0.62630 0.76390 -0.11900
O 	O 	0.70670 0.52450 0.40090 -0.38300
O 	O 	0.65620 0.57230 0.35190 -0.40700
O 	O 	0.55900 0.68290 0.45880 -0.32600
O 	O 	0.50570 0.63681 0.52310 -0.33800
O 	O 	0.56420 0.68730 0.57040 -0.32200
O 	O 	0.69840 0.51726 0.26370 -0.50400
O 	O 	0.79080 0.47908 0.26240 -0.50200
O 	O 	0.46420 0.72010 0.65120 -0.36700
O 	O 	0.41840 0.67210 0.92620 -0.42800
O 	O 	0.45290 0.72570 0.88030 -0.39800
O 	O 	0.71680 0.52990 0.63090 -0.40000
O 	O 	0.67490 0.58190 0.67530 -0.44700
O 	O 	0.41060 0.67330 0.60130 -0.39600
O 	O 	0.31100 0.56160 0.81820 -0.31400
O 	O 	0.25300 0.60730 0.76750 -0.36600
S 	S 	0.55499 0.66073 0.51680 0.48400
S 	S 	0.30353 0.58648 0.76320 0.57000
Cu	Cu	0.74192 0.49579 0.19505 0.94300
Cu	Cu	0.42653 0.67376 0.51319 0.91300
Cu	Cu	0.67233 0.57398 0.26391 0.91700
Cu	Cu	0.74400 0.49623 0.33346 0.93200
O 	O 	0.31080 0.56540 0.70880 -0.32700
C 	C 	0.65860 0.07290 0.95890 -0.07700
C 	C 	0.68150 0.05930 0.01280 0.00500
H 	H 	0.70720 0.03840 0.01150 0.05500
C 	C 	0.66680 0.07630 0.07010 -0.11300
C 	C 	0.62520 0.10650 0.07100 0.05800
H 	H 	0.61030 0.11540 0.10800 0.03700
C 	C 	0.60750 0.12230 0.01550 -0.13100
C 	C 	0.62450 0.10780 0.96040 0.09900
H 	H 	0.61390 0.12070 0.92410 0.03400
C 	C 	0.67930 0.05670 0.89980 0.36400
C 	C 	0.68450 0.05970 0.13200 0.41700
C 	C 	0.42460 0.19430 0.38170 0.42900
C 	C 	0.43360 0.18880 0.15060 0.35100
C 	C 	0.37610 0.14180 0.20960 0.07600
H 	H 	0.36890 0.12860 0.17250 0.03500
C 	C 	0.40910 0.17470 0.20930 -0.12700
C 	C 	0.42680 0.19130 0.26340 0.06900
H 	H 	0.45080 0.21340 0.26300 0.04600
C 	C 	0.40880 0.17480 0.32020 -0.12700
C 	C 	0.36700 0.14400 0.31970 0.07000
H 	H 	0.35030 0.13610 0.35620 0.03100
C 	C 	0.35180 0.12630 0.26390 -0.12500
O 	O 	0.70670 0.02450 0.90090 -0.37000
O 	O 	0.65620 0.07230 0.85190 -0.40200
O 	O 	0.55900 0.18290 0.95880 -0.28800
O 	O 	0.50570 0.13681 0.02310 -0.34200
O 	O 	0.56420 0.18730 0.07040 -0.31800
O 	O 	0.69840 0.01726 0.76370 -0.50300
O 	O 	0.79080 0.97908 0.76240 -0.50100
O 	O 	0.46420 0.22010 0.15120 -0.36800
O 	O 	0.41840 0.17210 0.42620 -0.44800
O 	O 	0.45290 0.22570 0.38030 -0.40500
O 	O 	0.71680 0.02990 0.13090 -0.40200
O 	O 	0.67490 0.08190 0.17530 -0.44700
O 	O 	0.41060 0.17330 0.10130 -0.40100
O 	O 	0.31100 0.06160 0.31820 -0.31900
O 	O 	0.25300 0.10730 0.26750 -0.36900
S 	S 	0.55499 0.16073 0.01680 0.44400
S 	S 	0.30353 0.08648 0.26320 0.57300
Cu	Cu	0.74192 0.99579 0.69505 0.94300
Cu	Cu	0.42653 0.17376 0.01319 0.90200
Cu	Cu	0.67233 0.07398 0.76391 0.91800
Cu	Cu	0.74400 0.99623 0.83346 0.93300
O 	O 	0.31080 0.06540 0.20880 -0.33000
C 	C 	0.15860 0.57290 0.95890 -0.07600
C 	C 	0.18150 0.55930 0.01280 0.00500
H 	H 	0.20720 0.53840 0.01150 0.05500
C 	C 	0.16680 0.57630 0.07010 -0.11300
C 	C 	0.12520 0.60650 0.07100 0.05800
H 	H 	0.11030 0.61540 0.10800 0.03700
C 	C 	0.10750 0.62230 0.01550 -0.13100
C 	C 	0.12450 0.60780 0.96040 0.09800
H 	H 	0.11390 0.62070 0.92410 0.03400
C 	C 	0.17930 0.55670 0.89980 0.36400
C 	C 	0.18450 0.55970 0.13200 0.41700
C 	C 	0.92460 0.69430 0.38170 0.42900
C 	C 	0.93360 0.68880 0.15060 0.35100
C 	C 	0.87610 0.64180 0.20960 0.07600
H 	H 	0.86890 0.62860 0.17250 0.03500
C 	C 	0.90910 0.67470 0.20930 -0.12700
C 	C 	0.92680 0.69130 0.26340 0.06900
H 	H 	0.95080 0.71340 0.26300 0.04600
C 	C 	0.90880 0.67480 0.32020 -0.12700
C 	C 	0.86700 0.64400 0.31970 0.07000
H 	H 	0.85030 0.63610 0.35620 0.03100
C 	C 	0.85180 0.62630 0.26390 -0.12500
O 	O 	0.20670 0.52450 0.90090 -0.37000
O 	O 	0.15620 0.57230 0.85190 -0.40200
O 	O 	0.05900 0.68290 0.95880 -0.28900
O 	O 	0.00570 0.63681 0.02310 -0.34200
O 	O 	0.06420 0.68730 0.07040 -0.31800
O 	O 	0.19840 0.51726 0.76370 -0.50300
O 	O 	0.29080 0.47908 0.76240 -0.50100
O 	O 	0.96420 0.72010 0.15120 -0.36800
O 	O 	0.91840 0.67210 0.42620 -0.44800
O 	O 	0.95290 0.72570 0.38030 -0.40500
O 	O 	0.21680 0.52990 0.13090 -0.40200
O 	O 	0.17490 0.58190 0.17530 -0.44700
O 	O 	0.91060 0.67330 0.10130 -0.40100
O 	O 	0.81100 0.56160 0.31820 -0.31900
O 	O 	0.75300 0.60730 0.26750 -0.36900
S 	S 	0.05499 0.66073 0.01680 0.44400
S 	S 	0.80353 0.58648 0.26320 0.57300
Cu	Cu	0.24192 0.49579 0.69505 0.94300
Cu	Cu	0.92653 0.67376 0.01319 0.90200
Cu	Cu	0.17233 0.57398 0.76391 0.91800
Cu	Cu	0.24400 0.49623 0.83346 0.93200
O 	O 	0.81080 0.56540 0.20880 -0.33000
C 	C 	0.15860 0.07290 0.45890 -0.11800
C 	C 	0.18150 0.05930 0.51280 0.06300
H 	H 	0.20720 0.03840 0.51150 0.04800
C 	C 	0.16680 0.07630 0.57010 -0.12100
C 	C 	0.12520 0.10650 0.57100 0.05400
H 	H 	0.11030 0.11540 0.60800 0.04000
C 	C 	0.10750 0.12230 0.51550 -0.09100
C 	C 	0.12450 0.10780 0.46040 0.05400
H 	H 	0.11390 0.12070 0.42410 0.04300
C 	C 	0.17930 0.05670 0.39980 0.37200
C 	C 	0.18450 0.05970 0.63200 0.42200
C 	C 	0.92460 0.19430 0.88170 0.42600
C 	C 	0.93360 0.18880 0.65060 0.34900
C 	C 	0.87610 0.14180 0.70960 0.07200
H 	H 	0.86890 0.12860 0.67250 0.03800
C 	C 	0.90910 0.17470 0.70930 -0.12200
C 	C 	0.92680 0.19130 0.76340 0.06500
H 	H 	0.95080 0.21340 0.76300 0.04800
C 	C 	0.90880 0.17480 0.82020 -0.12100
C 	C 	0.86700 0.14400 0.81970 0.06700
H 	H 	0.85030 0.13610 0.85620 0.03700
C 	C 	0.85180 0.12630 0.76390 -0.11900
O 	O 	0.20670 0.02450 0.40090 -0.38300
O 	O 	0.15620 0.07230 0.35190 -0.40700
O 	O 	0.05900 0.18290 0.45880 -0.32600
O 	O 	0.00570 0.13681 0.52310 -0.33800
O 	O 	0.06420 0.18730 0.57040 -0.32200
O 	O 	0.19840 0.01726 0.26370 -0.50400
O 	O 	0.29080 0.97908 0.26240 -0.50200
O 	O 	0.96420 0.22010 0.65120 -0.36700
O 	O 	0.91840 0.17210 0.92620 -0.42800
O 	O 	0.95290 0.22570 0.88030 -0.39900
O 	O 	0.21680 0.02990 0.63090 -0.40000
O 	O 	0.17490 0.08190 0.67530 -0.44700
O 	O 	0.91060 0.17330 0.60130 -0.39600
O 	O 	0.81100 0.06160 0.81820 -0.31400
O 	O 	0.75300 0.10730 0.76750 -0.36600
S 	S 	0.05499 0.16073 0.51680 0.48400
S 	S 	0.80353 0.08648 0.76320 0.57000
Cu	Cu	0.24192 0.99579 0.19505 0.94300
Cu	Cu	0.92653 0.17376 0.51319 0.91300
Cu	Cu	0.17233 0.07398 0.26391 0.91700
Cu	Cu	0.24400 0.99623 0.33346 0.93200
O 	O 	0.81080 0.06540 0.70880 -0.32700
