data_crystal

_cell_length_a 15.80220
_cell_length_b 24.02900
_cell_length_c 21.31080
_cell_angle_alpha 90.00000
_cell_angle_beta  90.00000
_cell_angle_gamma 90.00000

_symmetry_space_group_name_	'P 1'
_symmetry_space_group_name_H-M	'P 1'

loop_
_symmetry_equiv_pos_as_xyz
  x,y,z

loop_
_atom_site_label
_atom_site_type_symbol
_atom_site_fract_x
_atom_site_fract_y
_atom_site_fract_z
_atom_site_charge
Cu	Cu	0.40677 0.20975 0.57925 0.91700
N 	N 	0.26153 0.13809 0.59180 -0.19100
N 	N 	0.32340 0.16535 0.62457 -0.18800
N 	N 	0.24320 0.12172 0.69080 -0.16800
C 	C 	0.21360 0.11280 0.63234 0.12400
H 	H 	0.16610 0.09170 0.62250 0.01600
C 	C 	0.31170 0.15490 0.68405 0.12300
H 	H 	0.34530 0.16810 0.71670 0.01000
C 	C 	0.20680 0.10126 0.74865 0.21400
C 	C 	0.25300 0.06650 0.78655 -0.24300
H 	H 	0.30820 0.05700 0.77610 0.12200
C 	C 	0.21620 0.04593 0.84044 0.13200
H 	H 	0.24630 0.02180 0.86630 -0.01700
C 	C 	0.13440 0.06116 0.85612 -0.20000
C 	C 	0.12620 0.11800 0.76420 -0.24700
H 	H 	0.09650 0.14240 0.73850 0.16000
C 	C 	0.09030 0.09780 0.81850 0.13800
H 	H 	0.03600 0.10890 0.82980 0.01100
C 	C 	0.09180 0.03810 0.91296 0.37800
O 	O 	0.11860 0.99316 0.93525 -0.41900
O 	O 	0.02976 0.06547 0.93381 -0.41000
N 	N 	0.49350 0.24993 0.53182 -0.19000
C 	C 	0.56100 0.27657 0.54990 0.18800
H 	H 	0.57640 0.28280 0.59150 -0.03200
Cl	Cl	0.42380 0.26706 0.66317 -0.43900
C 	C 	0.68820 0.31930 0.48020 0.67800
C 	C 	0.84780 0.36160 0.46680 -1.74500
C 	C 	0.73090 0.31100 0.42450 -0.52400
H 	H 	0.70570 0.29150 0.39170 0.18500
C 	C 	0.81140 0.33210 0.41840 0.69700
H 	H 	0.84140 0.32640 0.38150 -0.19500
O 	O 	0.97970 0.36780 0.41100 -0.62000
C 	C 	0.94120 0.37860 0.46180 1.17300
C 	C 	0.72200 0.34840 0.47080 -1.12000
H 	H 	0.69160 0.35360 0.43390 0.38900
C 	C 	0.80320 0.37020 0.47760 1.38500
H 	H 	0.82760 0.39040 0.44500 0.08700
O 	O 	0.98640 0.35150 0.37520 0.16200
Cu	Cu	0.90677 0.70975 0.57925 0.91800
N 	N 	0.76153 0.63809 0.59180 -0.19000
N 	N 	0.82340 0.66535 0.62457 -0.18700
N 	N 	0.74320 0.62172 0.69080 -0.16700
C 	C 	0.71360 0.61280 0.63234 0.12500
H 	H 	0.66610 0.59170 0.62250 0.01700
C 	C 	0.81170 0.65490 0.68405 0.12400
H 	H 	0.84530 0.66810 0.71670 0.01100
C 	C 	0.70680 0.60126 0.74865 0.21500
C 	C 	0.75300 0.56650 0.78655 -0.24200
H 	H 	0.80820 0.55700 0.77610 0.12300
C 	C 	0.71620 0.54593 0.84044 0.13300
H 	H 	0.74630 0.52180 0.86630 -0.01600
C 	C 	0.63440 0.56116 0.85612 -0.19900
C 	C 	0.62620 0.61800 0.76420 -0.24600
H 	H 	0.59650 0.64240 0.73850 0.16100
C 	C 	0.59030 0.59780 0.81850 0.13900
H 	H 	0.53600 0.60890 0.82980 0.01200
C 	C 	0.59180 0.53810 0.91296 0.37800
O 	O 	0.61860 0.49316 0.93525 -0.41900
O 	O 	0.52976 0.56547 0.93381 -0.41000
N 	N 	0.99350 0.74993 0.53182 -0.19000
C 	C 	0.06100 0.77657 0.54990 0.18800
H 	H 	0.07640 0.78280 0.59150 -0.03200
Cl	Cl	0.92380 0.76706 0.66317 -0.43900
C 	C 	0.18820 0.81930 0.48020 0.67800
C 	C 	0.34780 0.86160 0.46680 -1.74500
C 	C 	0.23090 0.81100 0.42450 -0.52400
H 	H 	0.20570 0.79150 0.39170 0.18500
C 	C 	0.31140 0.83210 0.41840 0.69700
H 	H 	0.34140 0.82640 0.38150 -0.19500
O 	O 	0.47970 0.86780 0.41100 -0.61900
C 	C 	0.44120 0.87860 0.46180 1.17300
C 	C 	0.22200 0.84840 0.47080 -1.11900
H 	H 	0.19160 0.85360 0.43390 0.38900
C 	C 	0.30320 0.87020 0.47760 1.38500
H 	H 	0.32760 0.89040 0.44500 0.08700
O 	O 	0.48640 0.85150 0.37520 0.16200
Cu	Cu	0.59323 0.79025 0.57925 0.91800
N 	N 	0.73847 0.86191 0.59180 -0.19000
N 	N 	0.67660 0.83465 0.62457 -0.18700
N 	N 	0.75680 0.87828 0.69080 -0.16700
C 	C 	0.78640 0.88720 0.63234 0.12500
H 	H 	0.83390 0.90830 0.62250 0.01700
C 	C 	0.68830 0.84510 0.68405 0.12400
H 	H 	0.65470 0.83190 0.71670 0.01100
C 	C 	0.79320 0.89874 0.74865 0.21500
C 	C 	0.74700 0.93350 0.78655 -0.24200
H 	H 	0.69180 0.94300 0.77610 0.12300
C 	C 	0.78380 0.95407 0.84044 0.13300
H 	H 	0.75370 0.97820 0.86630 -0.01600
C 	C 	0.86560 0.93884 0.85612 -0.19900
C 	C 	0.87380 0.88200 0.76420 -0.24600
H 	H 	0.90350 0.85760 0.73850 0.16100
C 	C 	0.90970 0.90220 0.81850 0.13900
H 	H 	0.96400 0.89110 0.82980 0.01200
C 	C 	0.90820 0.96190 0.91296 0.37800
O 	O 	0.88140 0.00684 0.93525 -0.41900
O 	O 	0.97024 0.93453 0.93381 -0.41000
N 	N 	0.50650 0.75007 0.53182 -0.19000
C 	C 	0.43900 0.72343 0.54990 0.18800
H 	H 	0.42360 0.71720 0.59150 -0.03200
Cl	Cl	0.57620 0.73294 0.66317 -0.43900
C 	C 	0.31180 0.68070 0.48020 0.67800
C 	C 	0.15220 0.63840 0.46680 -1.74500
C 	C 	0.26910 0.68900 0.42450 -0.52400
H 	H 	0.29430 0.70850 0.39170 0.18500
C 	C 	0.18860 0.66790 0.41840 0.69700
H 	H 	0.15860 0.67360 0.38150 -0.19500
O 	O 	0.02030 0.63220 0.41100 -0.62000
C 	C 	0.05880 0.62140 0.46180 1.17300
C 	C 	0.27800 0.65160 0.47080 -1.12000
H 	H 	0.30840 0.64640 0.43390 0.38900
C 	C 	0.19680 0.62980 0.47760 1.38500
H 	H 	0.17240 0.60960 0.44500 0.08700
O 	O 	0.01360 0.64850 0.37520 0.16200
Cu	Cu	0.09323 0.29025 0.57925 0.91800
N 	N 	0.23847 0.36191 0.59180 -0.19000
N 	N 	0.17660 0.33465 0.62457 -0.18700
N 	N 	0.25680 0.37828 0.69080 -0.16700
C 	C 	0.28640 0.38720 0.63234 0.12500
H 	H 	0.33390 0.40830 0.62250 0.01700
C 	C 	0.18830 0.34510 0.68405 0.12400
H 	H 	0.15470 0.33190 0.71670 0.01100
C 	C 	0.29320 0.39874 0.74865 0.21500
C 	C 	0.24700 0.43350 0.78655 -0.24200
H 	H 	0.19180 0.44300 0.77610 0.12300
C 	C 	0.28380 0.45407 0.84044 0.13300
H 	H 	0.25370 0.47820 0.86630 -0.01600
C 	C 	0.36560 0.43884 0.85612 -0.19900
C 	C 	0.37380 0.38200 0.76420 -0.24600
H 	H 	0.40350 0.35760 0.73850 0.16100
C 	C 	0.40970 0.40220 0.81850 0.13900
H 	H 	0.46400 0.39110 0.82980 0.01200
C 	C 	0.40820 0.46190 0.91296 0.37800
O 	O 	0.38140 0.50684 0.93525 -0.41900
O 	O 	0.47024 0.43453 0.93381 -0.41000
N 	N 	0.00650 0.25007 0.53182 -0.19000
C 	C 	0.93900 0.22343 0.54990 0.18800
H 	H 	0.92360 0.21720 0.59150 -0.03200
Cl	Cl	0.07620 0.23294 0.66317 -0.43900
C 	C 	0.81180 0.18070 0.48020 0.67800
C 	C 	0.65220 0.13840 0.46680 -1.74500
C 	C 	0.76910 0.18900 0.42450 -0.52400
H 	H 	0.79430 0.20850 0.39170 0.18500
C 	C 	0.68860 0.16790 0.41840 0.69700
H 	H 	0.65860 0.17360 0.38150 -0.19500
O 	O 	0.52030 0.13220 0.41100 -0.61900
C 	C 	0.55880 0.12140 0.46180 1.17300
C 	C 	0.77800 0.15160 0.47080 -1.11900
H 	H 	0.80840 0.14640 0.43390 0.38900
C 	C 	0.69680 0.12980 0.47760 1.38500
H 	H 	0.67240 0.10960 0.44500 0.08700
O 	O 	0.51360 0.14850 0.37520 0.16200
Cu	Cu	0.59323 0.20975 0.92075 0.91000
N 	N 	0.73847 0.13809 0.90820 -0.20000
N 	N 	0.67660 0.16535 0.87543 -0.19100
N 	N 	0.75680 0.12172 0.80920 -0.16700
C 	C 	0.78640 0.11280 0.86766 0.12300
H 	H 	0.83390 0.09170 0.87750 0.01300
C 	C 	0.68830 0.15490 0.81595 0.12400
H 	H 	0.65470 0.16810 0.78330 0.01100
C 	C 	0.79320 0.10126 0.75135 0.21300
C 	C 	0.74700 0.06650 0.71345 -0.23900
H 	H 	0.69180 0.05700 0.72390 0.12200
C 	C 	0.78380 0.04593 0.65956 0.12800
H 	H 	0.75370 0.02180 0.63370 -0.01200
C 	C 	0.86560 0.06116 0.64388 -0.19400
C 	C 	0.87380 0.11800 0.73580 -0.24300
H 	H 	0.90350 0.14240 0.76150 0.16000
C 	C 	0.90970 0.09780 0.68150 0.13500
H 	H 	0.96400 0.10890 0.67020 0.01400
C 	C 	0.90820 0.03810 0.58704 0.37300
O 	O 	0.88140 0.99316 0.56475 -0.40500
O 	O 	0.97024 0.06547 0.56619 -0.39500
N 	N 	0.50650 0.24993 0.96818 -0.19900
C 	C 	0.43900 0.27657 0.95010 0.14700
H 	H 	0.42360 0.28280 0.90850 -0.01800
Cl	Cl	0.57620 0.26706 0.83683 -0.44200
C 	C 	0.31180 0.31930 0.01980 0.60200
C 	C 	0.15220 0.36160 0.03320 -1.57800
C 	C 	0.26910 0.31100 0.07550 -0.50700
H 	H 	0.29430 0.29150 0.10830 0.18600
C 	C 	0.18860 0.33210 0.08160 0.62200
H 	H 	0.15860 0.32640 0.11850 -0.16700
O 	O 	0.02030 0.36780 0.08900 -0.58700
C 	C 	0.05880 0.37860 0.03820 1.09700
C 	C 	0.27800 0.34840 0.02920 -0.90200
H 	H 	0.30840 0.35360 0.06610 0.32600
C 	C 	0.19680 0.37020 0.02240 1.28000
H 	H 	0.17240 0.39040 0.05500 0.07600
O 	O 	0.01360 0.35150 0.12480 0.14300
Cu	Cu	0.09323 0.70975 0.92075 0.91000
N 	N 	0.23847 0.63809 0.90820 -0.20000
N 	N 	0.17660 0.66535 0.87543 -0.19100
N 	N 	0.25680 0.62172 0.80920 -0.16700
C 	C 	0.28640 0.61280 0.86766 0.12300
H 	H 	0.33390 0.59170 0.87750 0.01300
C 	C 	0.18830 0.65490 0.81595 0.12400
H 	H 	0.15470 0.66810 0.78330 0.01100
C 	C 	0.29320 0.60126 0.75135 0.21300
C 	C 	0.24700 0.56650 0.71345 -0.23900
H 	H 	0.19180 0.55700 0.72390 0.12200
C 	C 	0.28380 0.54593 0.65956 0.12700
H 	H 	0.25370 0.52180 0.63370 -0.01200
C 	C 	0.36560 0.56116 0.64388 -0.19400
C 	C 	0.37380 0.61800 0.73580 -0.24300
H 	H 	0.40350 0.64240 0.76150 0.16000
C 	C 	0.40970 0.59780 0.68150 0.13500
H 	H 	0.46400 0.60890 0.67020 0.01500
C 	C 	0.40820 0.53810 0.58704 0.37300
O 	O 	0.38140 0.49316 0.56475 -0.40500
O 	O 	0.47024 0.56547 0.56619 -0.39500
N 	N 	0.00650 0.74993 0.96818 -0.19900
C 	C 	0.93900 0.77657 0.95010 0.14800
H 	H 	0.92360 0.78280 0.90850 -0.01800
Cl	Cl	0.07620 0.76706 0.83683 -0.44300
C 	C 	0.81180 0.81930 0.01980 0.60200
C 	C 	0.65220 0.86160 0.03320 -1.57600
C 	C 	0.76910 0.81100 0.07550 -0.50600
H 	H 	0.79430 0.79150 0.10830 0.18600
C 	C 	0.68860 0.83210 0.08160 0.62100
H 	H 	0.65860 0.82640 0.11850 -0.16700
O 	O 	0.52030 0.86780 0.08900 -0.58600
C 	C 	0.55880 0.87860 0.03820 1.09700
C 	C 	0.77800 0.84840 0.02920 -0.90300
H 	H 	0.80840 0.85360 0.06610 0.32700
C 	C 	0.69680 0.87020 0.02240 1.27900
H 	H 	0.67240 0.89040 0.05500 0.07500
O 	O 	0.51360 0.85150 0.12480 0.14300
Cu	Cu	0.40677 0.79025 0.92075 0.91000
N 	N 	0.26153 0.86191 0.90820 -0.20000
N 	N 	0.32340 0.83465 0.87543 -0.19100
N 	N 	0.24320 0.87828 0.80920 -0.16700
C 	C 	0.21360 0.88720 0.86766 0.12300
H 	H 	0.16610 0.90830 0.87750 0.01300
C 	C 	0.31170 0.84510 0.81595 0.12400
H 	H 	0.34530 0.83190 0.78330 0.01100
C 	C 	0.20680 0.89874 0.75135 0.21300
C 	C 	0.25300 0.93350 0.71345 -0.23900
H 	H 	0.30820 0.94300 0.72390 0.12200
C 	C 	0.21620 0.95407 0.65956 0.12800
H 	H 	0.24630 0.97820 0.63370 -0.01200
C 	C 	0.13440 0.93884 0.64388 -0.19400
C 	C 	0.12620 0.88200 0.73580 -0.24300
H 	H 	0.09650 0.85760 0.76150 0.16000
C 	C 	0.09030 0.90220 0.68150 0.13500
H 	H 	0.03600 0.89110 0.67020 0.01400
C 	C 	0.09180 0.96190 0.58704 0.37300
O 	O 	0.11860 0.00684 0.56475 -0.40500
O 	O 	0.02976 0.93453 0.56619 -0.39500
N 	N 	0.49350 0.75007 0.96818 -0.19900
C 	C 	0.56100 0.72343 0.95010 0.14700
H 	H 	0.57640 0.71720 0.90850 -0.01800
Cl	Cl	0.42380 0.73294 0.83683 -0.44200
C 	C 	0.68820 0.68070 0.01980 0.60200
C 	C 	0.84780 0.63840 0.03320 -1.57800
C 	C 	0.73090 0.68900 0.07550 -0.50700
H 	H 	0.70570 0.70850 0.10830 0.18600
C 	C 	0.81140 0.66790 0.08160 0.62200
H 	H 	0.84140 0.67360 0.11850 -0.16700
O 	O 	0.97970 0.63220 0.08900 -0.58700
C 	C 	0.94120 0.62140 0.03820 1.09700
C 	C 	0.72200 0.65160 0.02920 -0.90200
H 	H 	0.69160 0.64640 0.06610 0.32600
C 	C 	0.80320 0.62980 0.02240 1.28000
H 	H 	0.82760 0.60960 0.05500 0.07600
O 	O 	0.98640 0.64850 0.12480 0.14300
Cu	Cu	0.90677 0.29025 0.92075 0.91000
N 	N 	0.76153 0.36191 0.90820 -0.20000
N 	N 	0.82340 0.33465 0.87543 -0.19100
N 	N 	0.74320 0.37828 0.80920 -0.16700
C 	C 	0.71360 0.38720 0.86766 0.12300
H 	H 	0.66610 0.40830 0.87750 0.01300
C 	C 	0.81170 0.34510 0.81595 0.12400
H 	H 	0.84530 0.33190 0.78330 0.01100
C 	C 	0.70680 0.39874 0.75135 0.21300
C 	C 	0.75300 0.43350 0.71345 -0.23900
H 	H 	0.80820 0.44300 0.72390 0.12200
C 	C 	0.71620 0.45407 0.65956 0.12700
H 	H 	0.74630 0.47820 0.63370 -0.01200
C 	C 	0.63440 0.43884 0.64388 -0.19400
C 	C 	0.62620 0.38200 0.73580 -0.24300
H 	H 	0.59650 0.35760 0.76150 0.16000
C 	C 	0.59030 0.40220 0.68150 0.13500
H 	H 	0.53600 0.39110 0.67020 0.01500
C 	C 	0.59180 0.46190 0.58704 0.37300
O 	O 	0.61860 0.50684 0.56475 -0.40500
O 	O 	0.52976 0.43453 0.56619 -0.39500
N 	N 	0.99350 0.25007 0.96818 -0.19900
C 	C 	0.06100 0.22343 0.95010 0.14800
H 	H 	0.07640 0.21720 0.90850 -0.01800
Cl	Cl	0.92380 0.23294 0.83683 -0.44300
C 	C 	0.18820 0.18070 0.01980 0.60200
C 	C 	0.34780 0.13840 0.03320 -1.57600
C 	C 	0.23090 0.18900 0.07550 -0.50600
H 	H 	0.20570 0.20850 0.10830 0.18600
C 	C 	0.31140 0.16790 0.08160 0.62100
H 	H 	0.34140 0.17360 0.11850 -0.16700
O 	O 	0.47970 0.13220 0.08900 -0.58600
C 	C 	0.44120 0.12140 0.03820 1.09700
C 	C 	0.22200 0.15160 0.02920 -0.90300
H 	H 	0.19160 0.14640 0.06610 0.32700
C 	C 	0.30320 0.12980 0.02240 1.27900
H 	H 	0.32760 0.10960 0.05500 0.07500
O 	O 	0.48640 0.14850 0.12480 0.14300
Cu	Cu	0.59323 0.79025 0.42075 0.91800
N 	N 	0.73847 0.86191 0.40820 -0.19000
N 	N 	0.67660 0.83465 0.37543 -0.18700
N 	N 	0.75680 0.87828 0.30920 -0.16600
C 	C 	0.78640 0.88720 0.36766 0.12500
H 	H 	0.83390 0.90830 0.37750 0.01700
C 	C 	0.68830 0.84510 0.31595 0.12400
H 	H 	0.65470 0.83190 0.28330 0.01100
C 	C 	0.79320 0.89874 0.25135 0.21300
C 	C 	0.74700 0.93350 0.21345 -0.23800
H 	H 	0.69180 0.94300 0.22390 0.12200
C 	C 	0.78380 0.95407 0.15956 0.12800
H 	H 	0.75370 0.97820 0.13370 -0.01000
C 	C 	0.86560 0.93884 0.14388 -0.19100
C 	C 	0.87380 0.88200 0.23580 -0.24200
H 	H 	0.90350 0.85760 0.26150 0.16000
C 	C 	0.90970 0.90220 0.18150 0.13500
H 	H 	0.96400 0.89110 0.17020 0.01500
C 	C 	0.90820 0.96190 0.08704 0.37400
O 	O 	0.88140 0.00684 0.06475 -0.39900
O 	O 	0.97024 0.93453 0.06619 -0.39000
N 	N 	0.50650 0.75007 0.46818 -0.19000
C 	C 	0.43900 0.72343 0.45010 0.18800
H 	H 	0.42360 0.71720 0.40850 -0.03200
Cl	Cl	0.57620 0.73294 0.33683 -0.43900
C 	C 	0.31180 0.68070 0.51980 0.67800
C 	C 	0.15220 0.63840 0.53320 -1.74500
C 	C 	0.26910 0.68900 0.57550 -0.52400
H 	H 	0.29430 0.70850 0.60830 0.18500
C 	C 	0.18860 0.66790 0.58160 0.69700
H 	H 	0.15860 0.67360 0.61850 -0.19500
O 	O 	0.02030 0.63220 0.58900 -0.62000
C 	C 	0.05880 0.62140 0.53820 1.17300
C 	C 	0.27800 0.65160 0.52920 -1.12000
H 	H 	0.30840 0.64640 0.56610 0.38900
C 	C 	0.19680 0.62980 0.52240 1.38500
H 	H 	0.17240 0.60960 0.55500 0.08700
O 	O 	0.01360 0.64850 0.62480 0.16200
Cu	Cu	0.09323 0.29025 0.42075 0.91800
N 	N 	0.23847 0.36191 0.40820 -0.19000
N 	N 	0.17660 0.33465 0.37543 -0.18700
N 	N 	0.25680 0.37828 0.30920 -0.16600
C 	C 	0.28640 0.38720 0.36766 0.12500
H 	H 	0.33390 0.40830 0.37750 0.01700
C 	C 	0.18830 0.34510 0.31595 0.12400
H 	H 	0.15470 0.33190 0.28330 0.01100
C 	C 	0.29320 0.39874 0.25135 0.21300
C 	C 	0.24700 0.43350 0.21345 -0.23800
H 	H 	0.19180 0.44300 0.22390 0.12200
C 	C 	0.28380 0.45407 0.15956 0.12800
H 	H 	0.25370 0.47820 0.13370 -0.00900
C 	C 	0.36560 0.43884 0.14388 -0.19100
C 	C 	0.37380 0.38200 0.23580 -0.24200
H 	H 	0.40350 0.35760 0.26150 0.16000
C 	C 	0.40970 0.40220 0.18150 0.13500
H 	H 	0.46400 0.39110 0.17020 0.01500
C 	C 	0.40820 0.46190 0.08704 0.37400
O 	O 	0.38140 0.50684 0.06475 -0.39900
O 	O 	0.47024 0.43453 0.06619 -0.39000
N 	N 	0.00650 0.25007 0.46818 -0.19000
C 	C 	0.93900 0.22343 0.45010 0.18800
H 	H 	0.92360 0.21720 0.40850 -0.03200
Cl	Cl	0.07620 0.23294 0.33683 -0.43900
C 	C 	0.81180 0.18070 0.51980 0.67800
C 	C 	0.65220 0.13840 0.53320 -1.74500
C 	C 	0.76910 0.18900 0.57550 -0.52400
H 	H 	0.79430 0.20850 0.60830 0.18500
C 	C 	0.68860 0.16790 0.58160 0.69700
H 	H 	0.65860 0.17360 0.61850 -0.19500
O 	O 	0.52030 0.13220 0.58900 -0.61900
C 	C 	0.55880 0.12140 0.53820 1.17300
C 	C 	0.77800 0.15160 0.52920 -1.11900
H 	H 	0.80840 0.14640 0.56610 0.38900
C 	C 	0.69680 0.12980 0.52240 1.38500
H 	H 	0.67240 0.10960 0.55500 0.08700
O 	O 	0.51360 0.14850 0.62480 0.16200
Cu	Cu	0.40677 0.20975 0.42075 0.91800
N 	N 	0.26153 0.13809 0.40820 -0.19000
N 	N 	0.32340 0.16535 0.37543 -0.18700
N 	N 	0.24320 0.12172 0.30920 -0.16600
C 	C 	0.21360 0.11280 0.36766 0.12500
H 	H 	0.16610 0.09170 0.37750 0.01700
C 	C 	0.31170 0.15490 0.31595 0.12400
H 	H 	0.34530 0.16810 0.28330 0.01100
C 	C 	0.20680 0.10126 0.25135 0.21300
C 	C 	0.25300 0.06650 0.21345 -0.23800
H 	H 	0.30820 0.05700 0.22390 0.12200
C 	C 	0.21620 0.04593 0.15956 0.12800
H 	H 	0.24630 0.02180 0.13370 -0.01000
C 	C 	0.13440 0.06116 0.14388 -0.19100
C 	C 	0.12620 0.11800 0.23580 -0.24200
H 	H 	0.09650 0.14240 0.26150 0.16000
C 	C 	0.09030 0.09780 0.18150 0.13500
H 	H 	0.03600 0.10890 0.17020 0.01500
C 	C 	0.09180 0.03810 0.08704 0.37400
O 	O 	0.11860 0.99316 0.06475 -0.39900
O 	O 	0.02976 0.06547 0.06619 -0.39000
N 	N 	0.49350 0.24993 0.46818 -0.19000
C 	C 	0.56100 0.27657 0.45010 0.18800
H 	H 	0.57640 0.28280 0.40850 -0.03200
Cl	Cl	0.42380 0.26706 0.33683 -0.43900
C 	C 	0.68820 0.31930 0.51980 0.67800
C 	C 	0.84780 0.36160 0.53320 -1.74500
C 	C 	0.73090 0.31100 0.57550 -0.52400
H 	H 	0.70570 0.29150 0.60830 0.18500
C 	C 	0.81140 0.33210 0.58160 0.69700
H 	H 	0.84140 0.32640 0.61850 -0.19500
O 	O 	0.97970 0.36780 0.58900 -0.62000
C 	C 	0.94120 0.37860 0.53820 1.17300
C 	C 	0.72200 0.34840 0.52920 -1.12000
H 	H 	0.69160 0.35360 0.56610 0.38900
C 	C 	0.80320 0.37020 0.52240 1.38500
H 	H 	0.82760 0.39040 0.55500 0.08700
O 	O 	0.98640 0.35150 0.62480 0.16200
Cu	Cu	0.90677 0.70975 0.42075 0.91800
N 	N 	0.76153 0.63809 0.40820 -0.19000
N 	N 	0.82340 0.66535 0.37543 -0.18700
N 	N 	0.74320 0.62172 0.30920 -0.16600
C 	C 	0.71360 0.61280 0.36766 0.12500
H 	H 	0.66610 0.59170 0.37750 0.01700
C 	C 	0.81170 0.65490 0.31595 0.12400
H 	H 	0.84530 0.66810 0.28330 0.01100
C 	C 	0.70680 0.60126 0.25135 0.21300
C 	C 	0.75300 0.56650 0.21345 -0.23800
H 	H 	0.80820 0.55700 0.22390 0.12200
C 	C 	0.71620 0.54593 0.15956 0.12800
H 	H 	0.74630 0.52180 0.13370 -0.00900
C 	C 	0.63440 0.56116 0.14388 -0.19100
C 	C 	0.62620 0.61800 0.23580 -0.24200
H 	H 	0.59650 0.64240 0.26150 0.16000
C 	C 	0.59030 0.59780 0.18150 0.13500
H 	H 	0.53600 0.60890 0.17020 0.01500
C 	C 	0.59180 0.53810 0.08704 0.37400
O 	O 	0.61860 0.49316 0.06475 -0.39900
O 	O 	0.52976 0.56547 0.06619 -0.39000
N 	N 	0.99350 0.74993 0.46818 -0.19000
C 	C 	0.06100 0.77657 0.45010 0.18800
H 	H 	0.07640 0.78280 0.40850 -0.03200
Cl	Cl	0.92380 0.76706 0.33683 -0.43900
C 	C 	0.18820 0.81930 0.51980 0.67800
C 	C 	0.34780 0.86160 0.53320 -1.74500
C 	C 	0.23090 0.81100 0.57550 -0.52400
H 	H 	0.20570 0.79150 0.60830 0.18500
C 	C 	0.31140 0.83210 0.58160 0.69700
H 	H 	0.34140 0.82640 0.61850 -0.19500
O 	O 	0.47970 0.86780 0.58900 -0.61900
C 	C 	0.44120 0.87860 0.53820 1.17300
C 	C 	0.22200 0.84840 0.52920 -1.11900
H 	H 	0.19160 0.85360 0.56610 0.38900
C 	C 	0.30320 0.87020 0.52240 1.38500
H 	H 	0.32760 0.89040 0.55500 0.08700
O 	O 	0.48640 0.85150 0.62480 0.16200
Cu	Cu	0.40677 0.79025 0.07925 0.91900
N 	N 	0.26153 0.86191 0.09180 -0.19000
N 	N 	0.32340 0.83465 0.12457 -0.18800
N 	N 	0.24320 0.87828 0.19080 -0.16700
C 	C 	0.21360 0.88720 0.13234 0.12600
H 	H 	0.16610 0.90830 0.12250 0.01600
C 	C 	0.31170 0.84510 0.18405 0.12500
H 	H 	0.34530 0.83190 0.21670 0.01100
C 	C 	0.20680 0.89874 0.24865 0.21300
C 	C 	0.25300 0.93350 0.28655 -0.24000
H 	H 	0.30820 0.94300 0.27610 0.12300
C 	C 	0.21620 0.95407 0.34044 0.12800
H 	H 	0.24630 0.97820 0.36630 -0.01200
C 	C 	0.13440 0.93884 0.35612 -0.19500
C 	C 	0.12620 0.88200 0.26420 -0.24400
H 	H 	0.09650 0.85760 0.23850 0.16000
C 	C 	0.09030 0.90220 0.31850 0.13500
H 	H 	0.03600 0.89110 0.32980 0.01400
C 	C 	0.09180 0.96190 0.41296 0.37300
O 	O 	0.11860 0.00684 0.43525 -0.40500
O 	O 	0.02976 0.93453 0.43381 -0.39500
N 	N 	0.49350 0.75007 0.03182 -0.17800
C 	C 	0.56100 0.72343 0.04990 0.18600
H 	H 	0.57640 0.71720 0.09150 -0.02800
Cl	Cl	0.42380 0.73294 0.16317 -0.43900
C 	C 	0.68820 0.68070 0.98020 0.62800
C 	C 	0.84780 0.63840 0.96680 -1.60600
C 	C 	0.73090 0.68900 0.92450 -0.46400
H 	H 	0.70570 0.70850 0.89170 0.16200
C 	C 	0.81140 0.66790 0.91840 0.64200
H 	H 	0.84140 0.67360 0.88150 -0.17600
O 	O 	0.97970 0.63220 0.91100 -0.57200
C 	C 	0.94120 0.62140 0.96180 1.04300
C 	C 	0.72200 0.65160 0.97080 -1.13700
H 	H 	0.69160 0.64640 0.93390 0.39200
C 	C 	0.80320 0.62980 0.97760 1.24000
H 	H 	0.82760 0.60960 0.94500 0.09300
O 	O 	0.98640 0.64850 0.87520 0.13200
Cu	Cu	0.90677 0.29025 0.07925 0.91900
N 	N 	0.76153 0.36191 0.09180 -0.19000
N 	N 	0.82340 0.33465 0.12457 -0.18800
N 	N 	0.74320 0.37828 0.19080 -0.16700
C 	C 	0.71360 0.38720 0.13234 0.12600
H 	H 	0.66610 0.40830 0.12250 0.01600
C 	C 	0.81170 0.34510 0.18405 0.12500
H 	H 	0.84530 0.33190 0.21670 0.01100
C 	C 	0.70680 0.39874 0.24865 0.21300
C 	C 	0.75300 0.43350 0.28655 -0.23900
H 	H 	0.80820 0.44300 0.27610 0.12200
C 	C 	0.71620 0.45407 0.34044 0.12800
H 	H 	0.74630 0.47820 0.36630 -0.01200
C 	C 	0.63440 0.43884 0.35612 -0.19500
C 	C 	0.62620 0.38200 0.26420 -0.24400
H 	H 	0.59650 0.35760 0.23850 0.16000
C 	C 	0.59030 0.40220 0.31850 0.13500
H 	H 	0.53600 0.39110 0.32980 0.01400
C 	C 	0.59180 0.46190 0.41296 0.37300
O 	O 	0.61860 0.50684 0.43525 -0.40500
O 	O 	0.52976 0.43453 0.43381 -0.39500
N 	N 	0.99350 0.25007 0.03182 -0.17900
C 	C 	0.06100 0.22343 0.04990 0.18600
H 	H 	0.07640 0.21720 0.09150 -0.02800
Cl	Cl	0.92380 0.23294 0.16317 -0.43900
C 	C 	0.18820 0.18070 0.98020 0.62800
C 	C 	0.34780 0.13840 0.96680 -1.60500
C 	C 	0.23090 0.18900 0.92450 -0.46400
H 	H 	0.20570 0.20850 0.89170 0.16200
C 	C 	0.31140 0.16790 0.91840 0.64200
H 	H 	0.34140 0.17360 0.88150 -0.17600
O 	O 	0.47970 0.13220 0.91100 -0.57200
C 	C 	0.44120 0.12140 0.96180 1.04200
C 	C 	0.22200 0.15160 0.97080 -1.13600
H 	H 	0.19160 0.14640 0.93390 0.39200
C 	C 	0.30320 0.12980 0.97760 1.23900
H 	H 	0.32760 0.10960 0.94500 0.09300
O 	O 	0.48640 0.14850 0.87520 0.13200
Cu	Cu	0.59323 0.20975 0.07925 0.91900
N 	N 	0.73847 0.13809 0.09180 -0.19000
N 	N 	0.67660 0.16535 0.12457 -0.18800
N 	N 	0.75680 0.12172 0.19080 -0.16700
C 	C 	0.78640 0.11280 0.13234 0.12600
H 	H 	0.83390 0.09170 0.12250 0.01600
C 	C 	0.68830 0.15490 0.18405 0.12500
H 	H 	0.65470 0.16810 0.21670 0.01100
C 	C 	0.79320 0.10126 0.24865 0.21300
C 	C 	0.74700 0.06650 0.28655 -0.24000
H 	H 	0.69180 0.05700 0.27610 0.12300
C 	C 	0.78380 0.04593 0.34044 0.12800
H 	H 	0.75370 0.02180 0.36630 -0.01200
C 	C 	0.86560 0.06116 0.35612 -0.19500
C 	C 	0.87380 0.11800 0.26420 -0.24400
H 	H 	0.90350 0.14240 0.23850 0.16000
C 	C 	0.90970 0.09780 0.31850 0.13500
H 	H 	0.96400 0.10890 0.32980 0.01400
C 	C 	0.90820 0.03810 0.41296 0.37300
O 	O 	0.88140 0.99316 0.43525 -0.40500
O 	O 	0.97024 0.06547 0.43381 -0.39500
N 	N 	0.50650 0.24993 0.03182 -0.17800
C 	C 	0.43900 0.27657 0.04990 0.18600
H 	H 	0.42360 0.28280 0.09150 -0.02800
Cl	Cl	0.57620 0.26706 0.16317 -0.43900
C 	C 	0.31180 0.31930 0.98020 0.62800
C 	C 	0.15220 0.36160 0.96680 -1.60600
C 	C 	0.26910 0.31100 0.92450 -0.46400
H 	H 	0.29430 0.29150 0.89170 0.16200
C 	C 	0.18860 0.33210 0.91840 0.64200
H 	H 	0.15860 0.32640 0.88150 -0.17600
O 	O 	0.02030 0.36780 0.91100 -0.57200
C 	C 	0.05880 0.37860 0.96180 1.04300
C 	C 	0.27800 0.34840 0.97080 -1.13700
H 	H 	0.30840 0.35360 0.93390 0.39200
C 	C 	0.19680 0.37020 0.97760 1.24000
H 	H 	0.17240 0.39040 0.94500 0.09300
O 	O 	0.01360 0.35150 0.87520 0.13200
Cu	Cu	0.09323 0.70975 0.07925 0.91900
N 	N 	0.23847 0.63809 0.09180 -0.19000
N 	N 	0.17660 0.66535 0.12457 -0.18800
N 	N 	0.25680 0.62172 0.19080 -0.16700
C 	C 	0.28640 0.61280 0.13234 0.12600
H 	H 	0.33390 0.59170 0.12250 0.01600
C 	C 	0.18830 0.65490 0.18405 0.12500
H 	H 	0.15470 0.66810 0.21670 0.01100
C 	C 	0.29320 0.60126 0.24865 0.21300
C 	C 	0.24700 0.56650 0.28655 -0.23900
H 	H 	0.19180 0.55700 0.27610 0.12200
C 	C 	0.28380 0.54593 0.34044 0.12800
H 	H 	0.25370 0.52180 0.36630 -0.01200
C 	C 	0.36560 0.56116 0.35612 -0.19500
C 	C 	0.37380 0.61800 0.26420 -0.24400
H 	H 	0.40350 0.64240 0.23850 0.16000
C 	C 	0.40970 0.59780 0.31850 0.13500
H 	H 	0.46400 0.60890 0.32980 0.01400
C 	C 	0.40820 0.53810 0.41296 0.37300
O 	O 	0.38140 0.49316 0.43525 -0.40500
O 	O 	0.47024 0.56547 0.43381 -0.39500
N 	N 	0.00650 0.74993 0.03182 -0.17900
C 	C 	0.93900 0.77657 0.04990 0.18600
H 	H 	0.92360 0.78280 0.09150 -0.02800
Cl	Cl	0.07620 0.76706 0.16317 -0.43900
C 	C 	0.81180 0.81930 0.98020 0.62800
C 	C 	0.65220 0.86160 0.96680 -1.60500
C 	C 	0.76910 0.81100 0.92450 -0.46400
H 	H 	0.79430 0.79150 0.89170 0.16200
C 	C 	0.68860 0.83210 0.91840 0.64200
H 	H 	0.65860 0.82640 0.88150 -0.17600
O 	O 	0.52030 0.86780 0.91100 -0.57200
C 	C 	0.55880 0.87860 0.96180 1.04200
C 	C 	0.77800 0.84840 0.97080 -1.13600
H 	H 	0.80840 0.85360 0.93390 0.39200
C 	C 	0.69680 0.87020 0.97760 1.23900
H 	H 	0.67240 0.89040 0.94500 0.09300
O 	O 	0.51360 0.85150 0.87520 0.13200
Cu	Cu	0.05001 0.04399 0.50000 0.93500
Cu	Cu	0.25872 0.14218 0.50000 0.91600
Cl	Cl	0.11491 0.13375 0.50000 -0.53400
O 	O 	0.38220 0.16586 0.50000 -0.70400
N 	N 	0.60490 0.29360 0.50000 -0.34200
O 	O 	0.97510 0.40120 0.50000 -1.05600
H 	H 	0.41500 0.13800 0.50000 0.31300
Cu	Cu	0.55001 0.54399 0.50000 0.93500
Cu	Cu	0.75872 0.64218 0.50000 0.91600
Cl	Cl	0.61491 0.63375 0.50000 -0.53400
O 	O 	0.88220 0.66586 0.50000 -0.70400
N 	N 	0.10490 0.79360 0.50000 -0.34200
O 	O 	0.47510 0.90120 0.50000 -1.05600
H 	H 	0.91500 0.63800 0.50000 0.31300
Cu	Cu	0.94999 0.95601 0.50000 0.93500
Cu	Cu	0.74128 0.85782 0.50000 0.91600
Cl	Cl	0.88509 0.86625 0.50000 -0.53400
O 	O 	0.61780 0.83414 0.50000 -0.70400
N 	N 	0.39510 0.70640 0.50000 -0.34200
O 	O 	0.02490 0.59880 0.50000 -1.05600
H 	H 	0.58500 0.86200 0.50000 0.31300
Cu	Cu	0.44999 0.45601 0.50000 0.93500
Cu	Cu	0.24128 0.35782 0.50000 0.91600
Cl	Cl	0.38509 0.36625 0.50000 -0.53400
O 	O 	0.11780 0.33414 0.50000 -0.70400
N 	N 	0.89510 0.20640 0.50000 -0.34200
O 	O 	0.52490 0.09880 0.50000 -1.05600
H 	H 	0.08500 0.36200 0.50000 0.31300
Cu	Cu	0.94999 0.04399 -0.00000 0.94600
Cu	Cu	0.74128 0.14218 -0.00000 0.92200
Cl	Cl	0.88509 0.13375 -0.00000 -0.51500
O 	O 	0.61780 0.16586 -0.00000 -0.69200
N 	N 	0.39510 0.29360 -0.00000 -0.30000
O 	O 	0.02490 0.40120 -0.00000 -0.96000
H 	H 	0.58500 0.13800 -0.00000 0.31400
Cu	Cu	0.44999 0.54399 -0.00000 0.94600
Cu	Cu	0.24128 0.64218 -0.00000 0.92200
Cl	Cl	0.38509 0.63375 -0.00000 -0.51400
O 	O 	0.11780 0.66586 -0.00000 -0.69200
N 	N 	0.89510 0.79360 -0.00000 -0.30000
O 	O 	0.52490 0.90120 -0.00000 -0.95900
H 	H 	0.08500 0.63800 -0.00000 0.31400
Cu	Cu	0.05001 0.95601 -0.00000 0.94600
Cu	Cu	0.25872 0.85782 -0.00000 0.92200
Cl	Cl	0.11491 0.86625 -0.00000 -0.51500
O 	O 	0.38220 0.83414 -0.00000 -0.69200
N 	N 	0.60490 0.70640 -0.00000 -0.30000
O 	O 	0.97510 0.59880 -0.00000 -0.96000
H 	H 	0.41500 0.86200 -0.00000 0.31400
Cu	Cu	0.55001 0.45601 -0.00000 0.94600
Cu	Cu	0.75872 0.35782 -0.00000 0.92200
Cl	Cl	0.61491 0.36625 -0.00000 -0.51400
O 	O 	0.88220 0.33414 -0.00000 -0.69200
N 	N 	0.10490 0.20640 -0.00000 -0.30000
O 	O 	0.47510 0.09880 -0.00000 -0.95900
H 	H 	0.91500 0.36200 -0.00000 0.31400
Cl	Cl	0.25000 0.25000 0.50000 -0.60100
Cl	Cl	0.75000 0.75000 0.50000 -0.60100
Cl	Cl	0.75000 0.25000 -0.00000 -0.58500
Cl	Cl	0.25000 0.75000 -0.00000 -0.58500
