data_crystal

_cell_length_a 26.03380
_cell_length_b 26.34150
_cell_length_c 27.53270
_cell_angle_alpha 90.00000
_cell_angle_beta  97.83600
_cell_angle_gamma 90.00000

_symmetry_space_group_name_	'P 1'
_symmetry_space_group_name_H-M	'P 1'

loop_
_symmetry_equiv_pos_as_xyz
  x,y,z

loop_
_atom_site_label
_atom_site_type_symbol
_atom_site_fract_x
_atom_site_fract_y
_atom_site_fract_z
_atom_site_charge
C 	C 	0.79067 0.31630 0.14808 0.41100
C 	C 	0.83598 0.34219 0.13135 -0.19100
C 	C 	0.86380 0.32030 0.09780 0.12300
H 	H 	0.85470 0.28730 0.08580 0.00500
C 	C 	0.90480 0.34550 0.08130 -0.21100
H 	H 	0.92350 0.33000 0.05790 0.11500
C 	C 	0.91840 0.39411 0.09934 0.20300
C 	C 	0.89090 0.41562 0.13403 -0.21800
H 	H 	0.90030 0.44810 0.14720 0.10200
C 	C 	0.84967 0.38955 0.14933 0.12300
H 	H 	0.83060 0.40470 0.17260 0.00300
C 	C 	0.98910 0.41690 0.04985 0.20000
C 	C 	0.10244 0.17350 0.64298 0.41100
C 	C 	0.06710 0.14610 0.60518 -0.18400
C 	C 	0.08160 0.09950 0.58818 0.12000
H 	H 	0.11180 0.08310 0.60420 0.00800
C 	C 	0.05270 0.07630 0.54820 -0.20600
H 	H 	0.06310 0.04430 0.53690 0.11500
C 	C 	0.00890 0.10000 0.52481 0.19900
C 	C 	0.99210 0.14570 0.54385 -0.21000
H 	H 	0.96070 0.16100 0.52940 0.09600
C 	C 	0.02130 0.16810 0.58336 0.12000
H 	H 	0.01000 0.19920 0.59590 0.00200
C 	C 	0.15520 0.65954 0.12388 0.42200
C 	C 	0.13790 0.61452 0.09253 -0.18700
C 	C 	0.09070 0.59205 0.09730 0.12000
H 	H 	0.06970 0.60600 0.11960 0.00700
C 	C 	0.07360 0.54980 0.07020 -0.20600
H 	H 	0.04080 0.53530 0.07350 0.11500
C 	C 	0.10450 0.52835 0.03793 0.20100
C 	C 	0.15031 0.55338 0.03080 -0.21600
H 	H 	0.17010 0.54140 0.00660 0.10200
C 	C 	0.16672 0.59469 0.05825 0.12800
H 	H 	0.19870 0.61030 0.05380 0.00300
C 	C 	0.05310 0.45050 0.01350 0.19900
C 	C 	0.18880 0.84250 0.30050 0.41700
C 	C 	0.16360 0.87610 0.33398 -0.20600
C 	C 	0.13940 0.91900 0.31777 0.14700
H 	H 	0.13890 0.92870 0.28450 -0.00500
C 	C 	0.11510 0.94950 0.34880 -0.23300
H 	H 	0.09820 0.97980 0.33660 0.11800
C 	C 	0.11540 0.93630 0.39743 0.22900
C 	C 	0.13940 0.89370 0.41409 -0.24400
H 	H 	0.14090 0.88500 0.44770 0.10500
C 	C 	0.16220 0.86160 0.38260 0.13700
H 	H 	0.17680 0.83010 0.39420 -0.01300
C 	C 	0.79410 0.15335 0.23780 0.40300
C 	C 	0.83405 0.11690 0.25880 -0.19500
C 	C 	0.83860 0.10640 0.30890 0.11800
H 	H 	0.81510 0.12170 0.32800 -0.01500
C 	C 	0.87670 0.07430 0.33120 -0.21100
H 	H 	0.87850 0.06710 0.36520 0.10900
C 	C 	0.91260 0.05240 0.30386 0.20100
C 	C 	0.90610 0.06060 0.25363 -0.21400
H 	H 	0.92820 0.04390 0.23410 0.10000
C 	C 	0.86732 0.09310 0.23120 0.12200
H 	H 	0.86400 0.09890 0.19690 0.00400
C 	C 	0.97960 0.02150 0.37037 0.20000
C 	C 	0.99430 0.05000 0.44730 0.20000
C 	C 	0.04910 0.99530 0.42000 0.19900
C 	C 	0.11366 0.29700 0.78977 0.39000
C 	C 	0.08581 0.30774 0.83232 -0.16700
C 	C 	0.03424 0.29279 0.83358 0.10100
H 	H 	0.01590 0.27530 0.80640 0.02000
C 	C 	0.00985 0.30327 0.87403 -0.19600
H 	H 	0.97490 0.29310 0.87440 0.09800
C 	C 	0.03641 0.32870 0.91418 0.18600
C 	C 	0.08818 0.34330 0.91343 -0.19700
H 	H 	0.10680 0.36050 0.94060 0.10400
C 	C 	0.11173 0.33239 0.87261 0.10400
H 	H 	0.14680 0.34210 0.87230 0.00000
C 	C 	0.01710 0.37660 0.98723 0.19400
N 	N 	0.95866 0.42313 0.08632 -0.24500
H 	H 	0.96600 0.45030 0.10460 0.13100
N 	N 	0.98465 0.37625 0.02170 -0.17800
N 	N 	0.02281 0.45594 0.04836 -0.17800
N 	N 	0.98010 0.08270 0.48123 -0.24300
H 	H 	0.94840 0.09480 0.47490 0.12600
N 	N 	0.09078 0.48556 0.00907 -0.24500
H 	H 	0.10890 0.48050 0.98480 0.13200
N 	N 	0.09280 0.96690 0.43019 -0.25000
H 	H 	0.10840 0.96780 0.46060 0.13100
N 	N 	0.95316 0.02150 0.32369 -0.24600
H 	H 	0.96340 0.99880 0.30360 0.13200
N 	N 	0.96283 0.05060 0.40452 -0.18200
N 	N 	0.03740 0.02300 0.45787 -0.17900
N 	N 	0.02229 0.99370 0.37452 -0.17800
N 	N 	0.01075 0.33690 0.95536 -0.24200
H 	H 	0.98810 0.31370 0.96110 0.13100
N 	N 	0.05206 0.41236 0.98129 -0.18000
O 	O 	0.78214 0.26989 0.13624 -0.49600
O 	O 	0.76512 0.34184 0.17451 -0.52100
O 	O 	0.14664 0.15311 0.65657 -0.49500
O 	O 	0.08780 0.21461 0.65957 -0.50300
O 	O 	0.12604 0.67298 0.15422 -0.50900
O 	O 	0.19813 0.67925 0.11908 -0.49600
O 	O 	0.19764 0.86259 0.26061 -0.51100
O 	O 	0.19660 0.79704 0.31232 -0.52400
O 	O 	0.79574 0.16968 0.19460 -0.48900
O 	O 	0.75912 0.16502 0.26228 -0.51900
O 	O 	0.08759 0.27886 0.75094 -0.47000
O 	O 	0.16055 0.30856 0.79306 -0.48500
O 	O 	0.70014 0.25091 0.21252 -0.95400
Zn	Zn	0.74273 0.21856 0.16981 1.21000
Zn	Zn	0.70441 0.32245 0.20383 1.21100
Zn	Zn	0.72724 0.23276 0.28301 1.17700
Zn	Zn	0.62854 0.23228 0.19771 1.21700
C 	C 	0.29067 0.81630 0.14808 0.41000
C 	C 	0.33598 0.84219 0.13135 -0.19200
C 	C 	0.36380 0.82030 0.09780 0.12200
H 	H 	0.35470 0.78730 0.08580 0.00400
C 	C 	0.40480 0.84550 0.08130 -0.21200
H 	H 	0.42350 0.83000 0.05790 0.11400
C 	C 	0.41840 0.89411 0.09934 0.20200
C 	C 	0.39090 0.91562 0.13403 -0.21900
H 	H 	0.40030 0.94810 0.14720 0.10100
C 	C 	0.34967 0.88955 0.14933 0.12200
H 	H 	0.33060 0.90470 0.17260 0.00200
C 	C 	0.48910 0.91690 0.04985 0.19800
C 	C 	0.60244 0.67350 0.64298 0.41000
C 	C 	0.56710 0.64610 0.60518 -0.18500
C 	C 	0.58160 0.59950 0.58818 0.11900
H 	H 	0.61180 0.58310 0.60420 0.00700
C 	C 	0.55270 0.57630 0.54820 -0.20700
H 	H 	0.56310 0.54430 0.53690 0.11400
C 	C 	0.50890 0.60000 0.52481 0.19900
C 	C 	0.49210 0.64570 0.54385 -0.21000
H 	H 	0.46070 0.66100 0.52940 0.09600
C 	C 	0.52130 0.66810 0.58336 0.12000
H 	H 	0.51000 0.69920 0.59590 0.00200
C 	C 	0.65520 0.15954 0.12388 0.42200
C 	C 	0.63790 0.11452 0.09253 -0.18700
C 	C 	0.59070 0.09205 0.09730 0.12000
H 	H 	0.56970 0.10600 0.11960 0.00700
C 	C 	0.57360 0.04980 0.07020 -0.20600
H 	H 	0.54080 0.03530 0.07350 0.11500
C 	C 	0.60450 0.02835 0.03793 0.20100
C 	C 	0.65031 0.05338 0.03080 -0.21600
H 	H 	0.67010 0.04140 0.00660 0.10200
C 	C 	0.66672 0.09469 0.05825 0.12800
H 	H 	0.69870 0.11030 0.05380 0.00300
C 	C 	0.55310 0.95050 0.01350 0.19900
C 	C 	0.68880 0.34250 0.30050 0.41700
C 	C 	0.66360 0.37610 0.33398 -0.20600
C 	C 	0.63940 0.41900 0.31777 0.14700
H 	H 	0.63890 0.42870 0.28450 -0.00500
C 	C 	0.61510 0.44950 0.34880 -0.23300
H 	H 	0.59820 0.47980 0.33660 0.11800
C 	C 	0.61540 0.43630 0.39743 0.22900
C 	C 	0.63940 0.39370 0.41409 -0.24400
H 	H 	0.64090 0.38500 0.44770 0.10500
C 	C 	0.66220 0.36160 0.38260 0.13700
H 	H 	0.67680 0.33010 0.39420 -0.01300
C 	C 	0.29410 0.65335 0.23780 0.40300
C 	C 	0.33405 0.61690 0.25880 -0.19500
C 	C 	0.33860 0.60640 0.30890 0.11800
H 	H 	0.31510 0.62170 0.32800 -0.01500
C 	C 	0.37670 0.57430 0.33120 -0.21100
H 	H 	0.37850 0.56710 0.36520 0.10900
C 	C 	0.41260 0.55240 0.30386 0.20100
C 	C 	0.40610 0.56060 0.25363 -0.21400
H 	H 	0.42820 0.54390 0.23410 0.10000
C 	C 	0.36732 0.59310 0.23120 0.12200
H 	H 	0.36400 0.59890 0.19690 0.00400
C 	C 	0.47960 0.52150 0.37037 0.20000
C 	C 	0.49430 0.55000 0.44730 0.20100
C 	C 	0.54910 0.49530 0.42000 0.19900
C 	C 	0.61366 0.79700 0.78977 0.39000
C 	C 	0.58581 0.80774 0.83232 -0.16700
C 	C 	0.53424 0.79279 0.83358 0.10200
H 	H 	0.51590 0.77530 0.80640 0.02000
C 	C 	0.50985 0.80327 0.87403 -0.19600
H 	H 	0.47490 0.79310 0.87440 0.09900
C 	C 	0.53641 0.82870 0.91418 0.18600
C 	C 	0.58818 0.84330 0.91343 -0.19800
H 	H 	0.60680 0.86050 0.94060 0.10400
C 	C 	0.61173 0.83239 0.87261 0.10400
H 	H 	0.64680 0.84210 0.87230 -0.00000
C 	C 	0.51710 0.87660 0.98723 0.19400
N 	N 	0.45866 0.92313 0.08632 -0.24500
H 	H 	0.46600 0.95030 0.10460 0.13100
N 	N 	0.48465 0.87625 0.02170 -0.17800
N 	N 	0.52281 0.95594 0.04836 -0.17800
N 	N 	0.48010 0.58270 0.48123 -0.24300
H 	H 	0.44840 0.59480 0.47490 0.12600
N 	N 	0.59078 0.98556 0.00907 -0.24400
H 	H 	0.60890 0.98050 0.98480 0.13100
N 	N 	0.59280 0.46690 0.43019 -0.25000
H 	H 	0.60840 0.46780 0.46060 0.13100
N 	N 	0.45316 0.52150 0.32369 -0.24600
H 	H 	0.46340 0.49880 0.30360 0.13200
N 	N 	0.46283 0.55060 0.40452 -0.18200
N 	N 	0.53740 0.52300 0.45787 -0.17900
N 	N 	0.52229 0.49370 0.37452 -0.17800
N 	N 	0.51075 0.83690 0.95536 -0.24200
H 	H 	0.48810 0.81370 0.96110 0.13200
N 	N 	0.55206 0.91236 0.98129 -0.18000
O 	O 	0.28214 0.76989 0.13624 -0.49600
O 	O 	0.26512 0.84184 0.17451 -0.52100
O 	O 	0.64664 0.65311 0.65657 -0.49500
O 	O 	0.58780 0.71461 0.65957 -0.50300
O 	O 	0.62604 0.17298 0.15422 -0.50900
O 	O 	0.69813 0.17925 0.11908 -0.49600
O 	O 	0.69764 0.36259 0.26061 -0.51100
O 	O 	0.69660 0.29704 0.31232 -0.52400
O 	O 	0.29574 0.66968 0.19460 -0.48900
O 	O 	0.25912 0.66502 0.26228 -0.51900
O 	O 	0.58759 0.77886 0.75094 -0.47000
O 	O 	0.66055 0.80856 0.79306 -0.48500
O 	O 	0.20014 0.75091 0.21252 -0.95400
Zn	Zn	0.24273 0.71856 0.16981 1.21000
Zn	Zn	0.20441 0.82245 0.20383 1.21100
Zn	Zn	0.22724 0.73276 0.28301 1.17700
Zn	Zn	0.12854 0.73228 0.19771 1.21700
C 	C 	0.79067 0.68370 0.64808 0.41000
C 	C 	0.83598 0.65781 0.63135 -0.19200
C 	C 	0.86380 0.67970 0.59780 0.12200
H 	H 	0.85470 0.71270 0.58580 0.00400
C 	C 	0.90480 0.65450 0.58130 -0.21200
H 	H 	0.92350 0.67000 0.55790 0.11400
C 	C 	0.91840 0.60589 0.59934 0.20200
C 	C 	0.89090 0.58438 0.63403 -0.21900
H 	H 	0.90030 0.55190 0.64720 0.10100
C 	C 	0.84967 0.61045 0.64933 0.12200
H 	H 	0.83060 0.59530 0.67260 0.00200
C 	C 	0.98910 0.58310 0.54985 0.19800
C 	C 	0.10244 0.82650 0.14298 0.41000
C 	C 	0.06710 0.85390 0.10518 -0.18500
C 	C 	0.08160 0.90050 0.08818 0.11800
H 	H 	0.11180 0.91690 0.10420 0.00700
C 	C 	0.05270 0.92370 0.04820 -0.20600
H 	H 	0.06310 0.95570 0.03690 0.11400
C 	C 	0.00890 0.90000 0.02481 0.19800
C 	C 	0.99210 0.85430 0.04385 -0.20800
H 	H 	0.96070 0.83900 0.02940 0.09600
C 	C 	0.02130 0.83190 0.08336 0.11900
H 	H 	0.01000 0.80080 0.09590 0.00200
C 	C 	0.15520 0.34046 0.62388 0.42200
C 	C 	0.13790 0.38548 0.59253 -0.18700
C 	C 	0.09070 0.40795 0.59730 0.12000
H 	H 	0.06970 0.39400 0.61960 0.00700
C 	C 	0.07360 0.45020 0.57020 -0.20600
H 	H 	0.04080 0.46470 0.57350 0.11500
C 	C 	0.10450 0.47165 0.53793 0.20100
C 	C 	0.15031 0.44662 0.53080 -0.21600
H 	H 	0.17010 0.45860 0.50660 0.10200
C 	C 	0.16672 0.40531 0.55825 0.12800
H 	H 	0.19870 0.38970 0.55380 0.00300
C 	C 	0.05310 0.54950 0.51350 0.19900
C 	C 	0.18880 0.15750 0.80050 0.41700
C 	C 	0.16360 0.12390 0.83398 -0.20600
C 	C 	0.13940 0.08100 0.81777 0.14700
H 	H 	0.13890 0.07130 0.78450 -0.00500
C 	C 	0.11510 0.05050 0.84880 -0.23300
H 	H 	0.09820 0.02020 0.83660 0.11800
C 	C 	0.11540 0.06370 0.89743 0.22900
C 	C 	0.13940 0.10630 0.91409 -0.24400
H 	H 	0.14090 0.11500 0.94770 0.10500
C 	C 	0.16220 0.13840 0.88260 0.13700
H 	H 	0.17680 0.16990 0.89420 -0.01300
C 	C 	0.79410 0.84665 0.73780 0.40300
C 	C 	0.83405 0.88310 0.75880 -0.19500
C 	C 	0.83860 0.89360 0.80890 0.11800
H 	H 	0.81510 0.87830 0.82800 -0.01500
C 	C 	0.87670 0.92570 0.83120 -0.21100
H 	H 	0.87850 0.93290 0.86520 0.10900
C 	C 	0.91260 0.94760 0.80386 0.20100
C 	C 	0.90610 0.93940 0.75363 -0.21400
H 	H 	0.92820 0.95610 0.73410 0.10000
C 	C 	0.86732 0.90690 0.73120 0.12200
H 	H 	0.86400 0.90110 0.69690 0.00400
C 	C 	0.97960 0.97850 0.87037 0.20000
C 	C 	0.99430 0.95000 0.94730 0.20000
C 	C 	0.04910 0.00470 0.92000 0.19900
C 	C 	0.11366 0.70300 0.28977 0.39000
C 	C 	0.08581 0.69226 0.33232 -0.16700
C 	C 	0.03424 0.70721 0.33358 0.10200
H 	H 	0.01590 0.72470 0.30640 0.02000
C 	C 	0.00985 0.69673 0.37403 -0.19700
H 	H 	0.97490 0.70690 0.37440 0.09900
C 	C 	0.03641 0.67130 0.41418 0.18600
C 	C 	0.08818 0.65670 0.41343 -0.19800
H 	H 	0.10680 0.63950 0.44060 0.10400
C 	C 	0.11173 0.66761 0.37261 0.10400
H 	H 	0.14680 0.65790 0.37230 -0.00000
C 	C 	0.01710 0.62340 0.48723 0.19400
N 	N 	0.95866 0.57687 0.58632 -0.24500
H 	H 	0.96600 0.54970 0.60460 0.13100
N 	N 	0.98465 0.62375 0.52170 -0.17800
N 	N 	0.02281 0.54406 0.54836 -0.17800
N 	N 	0.98010 0.91730 0.98123 -0.24300
H 	H 	0.94840 0.90520 0.97490 0.12500
N 	N 	0.09078 0.51444 0.50907 -0.24400
H 	H 	0.10890 0.51950 0.48480 0.13100
N 	N 	0.09280 0.03310 0.93019 -0.25000
H 	H 	0.10840 0.03220 0.96060 0.13100
N 	N 	0.95316 0.97850 0.82369 -0.24500
H 	H 	0.96340 0.00120 0.80360 0.13200
N 	N 	0.96283 0.94940 0.90452 -0.18200
N 	N 	0.03740 0.97700 0.95787 -0.17800
N 	N 	0.02229 0.00630 0.87452 -0.17800
N 	N 	0.01075 0.66310 0.45536 -0.24200
H 	H 	0.98810 0.68630 0.46110 0.13200
N 	N 	0.05206 0.58764 0.48129 -0.18000
O 	O 	0.78214 0.73011 0.63624 -0.49600
O 	O 	0.76512 0.65816 0.67451 -0.52100
O 	O 	0.14664 0.84689 0.15657 -0.49500
O 	O 	0.08780 0.78539 0.15957 -0.50300
O 	O 	0.12604 0.32702 0.65422 -0.50900
O 	O 	0.19813 0.32075 0.61908 -0.49600
O 	O 	0.19764 0.13741 0.76061 -0.51100
O 	O 	0.19660 0.20296 0.81232 -0.52400
O 	O 	0.79574 0.83032 0.69460 -0.48900
O 	O 	0.75912 0.83498 0.76228 -0.51900
O 	O 	0.08759 0.72114 0.25094 -0.47000
O 	O 	0.16055 0.69144 0.29306 -0.48500
O 	O 	0.70014 0.74909 0.71252 -0.95400
Zn	Zn	0.74273 0.78144 0.66981 1.21000
Zn	Zn	0.70441 0.67755 0.70383 1.21100
Zn	Zn	0.72724 0.76724 0.78301 1.17700
Zn	Zn	0.62854 0.76772 0.69771 1.21700
C 	C 	0.29067 0.18370 0.64808 0.41000
C 	C 	0.33598 0.15781 0.63135 -0.19200
C 	C 	0.36380 0.17970 0.59780 0.12200
H 	H 	0.35470 0.21270 0.58580 0.00400
C 	C 	0.40480 0.15450 0.58130 -0.21200
H 	H 	0.42350 0.17000 0.55790 0.11400
C 	C 	0.41840 0.10589 0.59934 0.20200
C 	C 	0.39090 0.08438 0.63403 -0.21900
H 	H 	0.40030 0.05190 0.64720 0.10100
C 	C 	0.34967 0.11045 0.64933 0.12200
H 	H 	0.33060 0.09530 0.67260 0.00200
C 	C 	0.48910 0.08310 0.54985 0.19800
C 	C 	0.60244 0.32650 0.14298 0.41000
C 	C 	0.56710 0.35390 0.10518 -0.18500
C 	C 	0.58160 0.40050 0.08818 0.11900
H 	H 	0.61180 0.41690 0.10420 0.00700
C 	C 	0.55270 0.42370 0.04820 -0.20700
H 	H 	0.56310 0.45570 0.03690 0.11400
C 	C 	0.50890 0.40000 0.02481 0.19900
C 	C 	0.49210 0.35430 0.04385 -0.20900
H 	H 	0.46070 0.33900 0.02940 0.09600
C 	C 	0.52130 0.33190 0.08336 0.12000
H 	H 	0.51000 0.30080 0.09590 0.00200
C 	C 	0.65520 0.84046 0.62388 0.42200
C 	C 	0.63790 0.88548 0.59253 -0.18700
C 	C 	0.59070 0.90795 0.59730 0.12000
H 	H 	0.56970 0.89400 0.61960 0.00700
C 	C 	0.57360 0.95020 0.57020 -0.20600
H 	H 	0.54080 0.96470 0.57350 0.11500
C 	C 	0.60450 0.97165 0.53793 0.20100
C 	C 	0.65031 0.94662 0.53080 -0.21600
H 	H 	0.67010 0.95860 0.50660 0.10200
C 	C 	0.66672 0.90531 0.55825 0.12800
H 	H 	0.69870 0.88970 0.55380 0.00300
C 	C 	0.55310 0.04950 0.51350 0.19900
C 	C 	0.68880 0.65750 0.80050 0.41700
C 	C 	0.66360 0.62390 0.83398 -0.20600
C 	C 	0.63940 0.58100 0.81777 0.14700
H 	H 	0.63890 0.57130 0.78450 -0.00500
C 	C 	0.61510 0.55050 0.84880 -0.23300
H 	H 	0.59820 0.52020 0.83660 0.11800
C 	C 	0.61540 0.56370 0.89743 0.22900
C 	C 	0.63940 0.60630 0.91409 -0.24400
H 	H 	0.64090 0.61500 0.94770 0.10500
C 	C 	0.66220 0.63840 0.88260 0.13700
H 	H 	0.67680 0.66990 0.89420 -0.01300
C 	C 	0.29410 0.34665 0.73780 0.40300
C 	C 	0.33405 0.38310 0.75880 -0.19500
C 	C 	0.33860 0.39360 0.80890 0.11800
H 	H 	0.31510 0.37830 0.82800 -0.01500
C 	C 	0.37670 0.42570 0.83120 -0.21100
H 	H 	0.37850 0.43290 0.86520 0.10900
C 	C 	0.41260 0.44760 0.80386 0.20100
C 	C 	0.40610 0.43940 0.75363 -0.21400
H 	H 	0.42820 0.45610 0.73410 0.10000
C 	C 	0.36732 0.40690 0.73120 0.12200
H 	H 	0.36400 0.40110 0.69690 0.00400
C 	C 	0.47960 0.47850 0.87037 0.20000
C 	C 	0.49430 0.45000 0.94730 0.20100
C 	C 	0.54910 0.50470 0.92000 0.19900
C 	C 	0.61366 0.20300 0.28977 0.39000
C 	C 	0.58581 0.19226 0.33232 -0.16700
C 	C 	0.53424 0.20721 0.33358 0.10200
H 	H 	0.51590 0.22470 0.30640 0.02000
C 	C 	0.50985 0.19673 0.37403 -0.19600
H 	H 	0.47490 0.20690 0.37440 0.09900
C 	C 	0.53641 0.17130 0.41418 0.18600
C 	C 	0.58818 0.15670 0.41343 -0.19800
H 	H 	0.60680 0.13950 0.44060 0.10400
C 	C 	0.61173 0.16761 0.37261 0.10400
H 	H 	0.64680 0.15790 0.37230 -0.00000
C 	C 	0.51710 0.12340 0.48723 0.19500
N 	N 	0.45866 0.07687 0.58632 -0.24500
H 	H 	0.46600 0.04970 0.60460 0.13100
N 	N 	0.48465 0.12375 0.52170 -0.17800
N 	N 	0.52281 0.04406 0.54836 -0.17800
N 	N 	0.48010 0.41730 0.98123 -0.24300
H 	H 	0.44840 0.40520 0.97490 0.12600
N 	N 	0.59078 0.01444 0.50907 -0.24400
H 	H 	0.60890 0.01950 0.48480 0.13100
N 	N 	0.59280 0.53310 0.93019 -0.25000
H 	H 	0.60840 0.53220 0.96060 0.13100
N 	N 	0.45316 0.47850 0.82369 -0.24600
H 	H 	0.46340 0.50120 0.80360 0.13200
N 	N 	0.46283 0.44940 0.90452 -0.18200
N 	N 	0.53740 0.47700 0.95787 -0.17900
N 	N 	0.52229 0.50630 0.87452 -0.17800
N 	N 	0.51075 0.16310 0.45536 -0.24200
H 	H 	0.48810 0.18630 0.46110 0.13200
N 	N 	0.55206 0.08764 0.48129 -0.18000
O 	O 	0.28214 0.23011 0.63624 -0.49600
O 	O 	0.26512 0.15816 0.67451 -0.52100
O 	O 	0.64664 0.34689 0.15657 -0.49500
O 	O 	0.58780 0.28539 0.15957 -0.50300
O 	O 	0.62604 0.82702 0.65422 -0.50900
O 	O 	0.69813 0.82075 0.61908 -0.49600
O 	O 	0.69764 0.63741 0.76061 -0.51100
O 	O 	0.69660 0.70296 0.81232 -0.52400
O 	O 	0.29574 0.33032 0.69460 -0.48900
O 	O 	0.25912 0.33498 0.76228 -0.51900
O 	O 	0.58759 0.22114 0.25094 -0.47000
O 	O 	0.66055 0.19144 0.29306 -0.48500
O 	O 	0.20014 0.24909 0.71252 -0.95400
Zn	Zn	0.24273 0.28144 0.66981 1.21000
Zn	Zn	0.20441 0.17755 0.70383 1.21100
Zn	Zn	0.22724 0.26724 0.78301 1.17700
Zn	Zn	0.12854 0.26772 0.69771 1.21700
C 	C 	0.20933 0.31630 0.35192 0.41000
C 	C 	0.16402 0.34219 0.36865 -0.19200
C 	C 	0.13620 0.32030 0.40220 0.12200
H 	H 	0.14530 0.28730 0.41420 0.00400
C 	C 	0.09520 0.34550 0.41870 -0.21200
H 	H 	0.07650 0.33000 0.44210 0.11400
C 	C 	0.08160 0.39411 0.40066 0.20200
C 	C 	0.10910 0.41562 0.36597 -0.21900
H 	H 	0.09970 0.44810 0.35280 0.10100
C 	C 	0.15033 0.38955 0.35067 0.12200
H 	H 	0.16940 0.40470 0.32740 0.00200
C 	C 	0.01090 0.41690 0.45015 0.19800
C 	C 	0.89756 0.17350 0.85702 0.41000
C 	C 	0.93290 0.14610 0.89482 -0.18500
C 	C 	0.91840 0.09950 0.91182 0.11800
H 	H 	0.88820 0.08310 0.89580 0.00700
C 	C 	0.94730 0.07630 0.95180 -0.20600
H 	H 	0.93690 0.04430 0.96310 0.11400
C 	C 	0.99110 0.10000 0.97519 0.19800
C 	C 	0.00790 0.14570 0.95615 -0.20800
H 	H 	0.03930 0.16100 0.97060 0.09600
C 	C 	0.97870 0.16810 0.91664 0.11900
H 	H 	0.99000 0.19920 0.90410 0.00200
C 	C 	0.84480 0.65954 0.37612 0.42200
C 	C 	0.86210 0.61452 0.40747 -0.18700
C 	C 	0.90930 0.59205 0.40270 0.12000
H 	H 	0.93030 0.60600 0.38040 0.00700
C 	C 	0.92640 0.54980 0.42980 -0.20600
H 	H 	0.95920 0.53530 0.42650 0.11500
C 	C 	0.89550 0.52835 0.46207 0.20100
C 	C 	0.84969 0.55338 0.46920 -0.21600
H 	H 	0.82990 0.54140 0.49340 0.10200
C 	C 	0.83328 0.59469 0.44175 0.12800
H 	H 	0.80130 0.61030 0.44620 0.00300
C 	C 	0.94690 0.45050 0.48650 0.19900
C 	C 	0.81120 0.84250 0.19950 0.41700
C 	C 	0.83640 0.87610 0.16602 -0.20600
C 	C 	0.86060 0.91900 0.18223 0.14700
H 	H 	0.86110 0.92870 0.21550 -0.00500
C 	C 	0.88490 0.94950 0.15120 -0.23300
H 	H 	0.90180 0.97980 0.16340 0.11800
C 	C 	0.88460 0.93630 0.10257 0.22900
C 	C 	0.86060 0.89370 0.08591 -0.24400
H 	H 	0.85910 0.88500 0.05230 0.10500
C 	C 	0.83780 0.86160 0.11740 0.13700
H 	H 	0.82320 0.83010 0.10580 -0.01300
C 	C 	0.20590 0.15335 0.26220 0.40300
C 	C 	0.16595 0.11690 0.24120 -0.19500
C 	C 	0.16140 0.10640 0.19110 0.11800
H 	H 	0.18490 0.12170 0.17200 -0.01500
C 	C 	0.12330 0.07430 0.16880 -0.21100
H 	H 	0.12150 0.06710 0.13480 0.10900
C 	C 	0.08740 0.05240 0.19614 0.20100
C 	C 	0.09390 0.06060 0.24637 -0.21400
H 	H 	0.07180 0.04390 0.26590 0.10000
C 	C 	0.13268 0.09310 0.26880 0.12200
H 	H 	0.13600 0.09890 0.30310 0.00400
C 	C 	0.02040 0.02150 0.12963 0.20000
C 	C 	0.00570 0.05000 0.05270 0.20000
C 	C 	0.95090 0.99530 0.08000 0.19900
C 	C 	0.88634 0.29700 0.71023 0.39000
C 	C 	0.91419 0.30774 0.66768 -0.16700
C 	C 	0.96576 0.29279 0.66642 0.10200
H 	H 	0.98410 0.27530 0.69360 0.02000
C 	C 	0.99015 0.30327 0.62597 -0.19700
H 	H 	0.02510 0.29310 0.62560 0.09900
C 	C 	0.96359 0.32870 0.58582 0.18600
C 	C 	0.91182 0.34330 0.58657 -0.19800
H 	H 	0.89320 0.36050 0.55940 0.10400
C 	C 	0.88827 0.33239 0.62739 0.10400
H 	H 	0.85320 0.34210 0.62770 -0.00000
C 	C 	0.98290 0.37660 0.51277 0.19400
N 	N 	0.04134 0.42313 0.41368 -0.24500
H 	H 	0.03400 0.45030 0.39540 0.13100
N 	N 	0.01535 0.37625 0.47830 -0.17800
N 	N 	0.97719 0.45594 0.45164 -0.17800
N 	N 	0.01990 0.08270 0.01877 -0.24300
H 	H 	0.05160 0.09480 0.02510 0.12500
N 	N 	0.90922 0.48556 0.49093 -0.24400
H 	H 	0.89110 0.48050 0.51520 0.13100
N 	N 	0.90720 0.96690 0.06981 -0.25000
H 	H 	0.89160 0.96780 0.03940 0.13100
N 	N 	0.04684 0.02150 0.17631 -0.24500
H 	H 	0.03660 0.99880 0.19640 0.13200
N 	N 	0.03717 0.05060 0.09548 -0.18200
N 	N 	0.96260 0.02300 0.04213 -0.17800
N 	N 	0.97771 0.99370 0.12548 -0.17800
N 	N 	0.98925 0.33690 0.54464 -0.24200
H 	H 	0.01190 0.31370 0.53890 0.13200
N 	N 	0.94794 0.41236 0.51871 -0.18000
O 	O 	0.21786 0.26989 0.36376 -0.49600
O 	O 	0.23488 0.34184 0.32549 -0.52100
O 	O 	0.85336 0.15311 0.84343 -0.49500
O 	O 	0.91220 0.21461 0.84043 -0.50300
O 	O 	0.87396 0.67298 0.34578 -0.50900
O 	O 	0.80187 0.67925 0.38092 -0.49600
O 	O 	0.80236 0.86259 0.23939 -0.51100
O 	O 	0.80340 0.79704 0.18768 -0.52400
O 	O 	0.20426 0.16968 0.30540 -0.48900
O 	O 	0.24088 0.16502 0.23772 -0.51900
O 	O 	0.91241 0.27886 0.74906 -0.47000
O 	O 	0.83945 0.30856 0.70694 -0.48500
O 	O 	0.29986 0.25091 0.28748 -0.95400
Zn	Zn	0.25727 0.21856 0.33019 1.21000
Zn	Zn	0.29559 0.32245 0.29617 1.21100
Zn	Zn	0.27276 0.23276 0.21699 1.17700
Zn	Zn	0.37146 0.23228 0.30229 1.21700
C 	C 	0.70933 0.81630 0.35192 0.41000
C 	C 	0.66402 0.84219 0.36865 -0.19200
C 	C 	0.63620 0.82030 0.40220 0.12200
H 	H 	0.64530 0.78730 0.41420 0.00400
C 	C 	0.59520 0.84550 0.41870 -0.21200
H 	H 	0.57650 0.83000 0.44210 0.11400
C 	C 	0.58160 0.89411 0.40066 0.20200
C 	C 	0.60910 0.91562 0.36597 -0.21900
H 	H 	0.59970 0.94810 0.35280 0.10100
C 	C 	0.65033 0.88955 0.35067 0.12200
H 	H 	0.66940 0.90470 0.32740 0.00200
C 	C 	0.51090 0.91690 0.45015 0.19800
C 	C 	0.39756 0.67350 0.85702 0.41000
C 	C 	0.43290 0.64610 0.89482 -0.18500
C 	C 	0.41840 0.59950 0.91182 0.11900
H 	H 	0.38820 0.58310 0.89580 0.00700
C 	C 	0.44730 0.57630 0.95180 -0.20700
H 	H 	0.43690 0.54430 0.96310 0.11400
C 	C 	0.49110 0.60000 0.97519 0.19900
C 	C 	0.50790 0.64570 0.95615 -0.20900
H 	H 	0.53930 0.66100 0.97060 0.09600
C 	C 	0.47870 0.66810 0.91664 0.12000
H 	H 	0.49000 0.69920 0.90410 0.00200
C 	C 	0.34480 0.15954 0.37612 0.42200
C 	C 	0.36210 0.11452 0.40747 -0.18700
C 	C 	0.40930 0.09205 0.40270 0.12000
H 	H 	0.43030 0.10600 0.38040 0.00700
C 	C 	0.42640 0.04980 0.42980 -0.20600
H 	H 	0.45920 0.03530 0.42650 0.11500
C 	C 	0.39550 0.02835 0.46207 0.20100
C 	C 	0.34969 0.05338 0.46920 -0.21600
H 	H 	0.32990 0.04140 0.49340 0.10200
C 	C 	0.33328 0.09469 0.44175 0.12800
H 	H 	0.30130 0.11030 0.44620 0.00300
C 	C 	0.44690 0.95050 0.48650 0.19900
C 	C 	0.31120 0.34250 0.19950 0.41700
C 	C 	0.33640 0.37610 0.16602 -0.20600
C 	C 	0.36060 0.41900 0.18223 0.14700
H 	H 	0.36110 0.42870 0.21550 -0.00500
C 	C 	0.38490 0.44950 0.15120 -0.23300
H 	H 	0.40180 0.47980 0.16340 0.11800
C 	C 	0.38460 0.43630 0.10257 0.22900
C 	C 	0.36060 0.39370 0.08591 -0.24400
H 	H 	0.35910 0.38500 0.05230 0.10500
C 	C 	0.33780 0.36160 0.11740 0.13700
H 	H 	0.32320 0.33010 0.10580 -0.01300
C 	C 	0.70590 0.65335 0.26220 0.40300
C 	C 	0.66595 0.61690 0.24120 -0.19500
C 	C 	0.66140 0.60640 0.19110 0.11800
H 	H 	0.68490 0.62170 0.17200 -0.01500
C 	C 	0.62330 0.57430 0.16880 -0.21100
H 	H 	0.62150 0.56710 0.13480 0.10900
C 	C 	0.58740 0.55240 0.19614 0.20100
C 	C 	0.59390 0.56060 0.24637 -0.21400
H 	H 	0.57180 0.54390 0.26590 0.10000
C 	C 	0.63268 0.59310 0.26880 0.12200
H 	H 	0.63600 0.59890 0.30310 0.00400
C 	C 	0.52040 0.52150 0.12963 0.20000
C 	C 	0.50570 0.55000 0.05270 0.20100
C 	C 	0.45090 0.49530 0.08000 0.19900
C 	C 	0.38634 0.79700 0.71023 0.39000
C 	C 	0.41419 0.80774 0.66768 -0.16700
C 	C 	0.46576 0.79279 0.66642 0.10200
H 	H 	0.48410 0.77530 0.69360 0.02000
C 	C 	0.49015 0.80327 0.62597 -0.19600
H 	H 	0.52510 0.79310 0.62560 0.09900
C 	C 	0.46359 0.82870 0.58582 0.18600
C 	C 	0.41182 0.84330 0.58657 -0.19800
H 	H 	0.39320 0.86050 0.55940 0.10400
C 	C 	0.38827 0.83239 0.62739 0.10400
H 	H 	0.35320 0.84210 0.62770 -0.00000
C 	C 	0.48290 0.87660 0.51277 0.19500
N 	N 	0.54134 0.92313 0.41368 -0.24500
H 	H 	0.53400 0.95030 0.39540 0.13100
N 	N 	0.51535 0.87625 0.47830 -0.17800
N 	N 	0.47719 0.95594 0.45164 -0.17800
N 	N 	0.51990 0.58270 0.01877 -0.24300
H 	H 	0.55160 0.59480 0.02510 0.12600
N 	N 	0.40922 0.98556 0.49093 -0.24400
H 	H 	0.39110 0.98050 0.51520 0.13100
N 	N 	0.40720 0.46690 0.06981 -0.25000
H 	H 	0.39160 0.46780 0.03940 0.13100
N 	N 	0.54684 0.52150 0.17631 -0.24600
H 	H 	0.53660 0.49880 0.19640 0.13200
N 	N 	0.53717 0.55060 0.09548 -0.18200
N 	N 	0.46260 0.52300 0.04213 -0.17900
N 	N 	0.47771 0.49370 0.12548 -0.17800
N 	N 	0.48925 0.83690 0.54464 -0.24200
H 	H 	0.51190 0.81370 0.53890 0.13200
N 	N 	0.44794 0.91236 0.51871 -0.18000
O 	O 	0.71786 0.76989 0.36376 -0.49600
O 	O 	0.73488 0.84184 0.32549 -0.52100
O 	O 	0.35336 0.65311 0.84343 -0.49500
O 	O 	0.41220 0.71461 0.84043 -0.50300
O 	O 	0.37396 0.17298 0.34578 -0.50900
O 	O 	0.30187 0.17925 0.38092 -0.49600
O 	O 	0.30236 0.36259 0.23939 -0.51100
O 	O 	0.30340 0.29704 0.18768 -0.52400
O 	O 	0.70426 0.66968 0.30540 -0.48900
O 	O 	0.74088 0.66502 0.23772 -0.51900
O 	O 	0.41241 0.77886 0.74906 -0.47000
O 	O 	0.33945 0.80856 0.70694 -0.48500
O 	O 	0.79986 0.75091 0.28748 -0.95400
Zn	Zn	0.75727 0.71856 0.33019 1.21000
Zn	Zn	0.79559 0.82245 0.29617 1.21100
Zn	Zn	0.77276 0.73276 0.21699 1.17700
Zn	Zn	0.87146 0.73228 0.30229 1.21700
C 	C 	0.20933 0.68370 0.85192 0.41000
C 	C 	0.16402 0.65781 0.86865 -0.19200
C 	C 	0.13620 0.67970 0.90220 0.12200
H 	H 	0.14530 0.71270 0.91420 0.00400
C 	C 	0.09520 0.65450 0.91870 -0.21200
H 	H 	0.07650 0.67000 0.94210 0.11400
C 	C 	0.08160 0.60589 0.90066 0.20200
C 	C 	0.10910 0.58438 0.86597 -0.21900
H 	H 	0.09970 0.55190 0.85280 0.10100
C 	C 	0.15033 0.61045 0.85067 0.12200
H 	H 	0.16940 0.59530 0.82740 0.00200
C 	C 	0.01090 0.58310 0.95015 0.19900
C 	C 	0.89756 0.82650 0.35702 0.41000
C 	C 	0.93290 0.85390 0.39482 -0.18500
C 	C 	0.91840 0.90050 0.41182 0.11900
H 	H 	0.88820 0.91690 0.39580 0.00700
C 	C 	0.94730 0.92370 0.45180 -0.20700
H 	H 	0.93690 0.95570 0.46310 0.11400
C 	C 	0.99110 0.90000 0.47519 0.19900
C 	C 	0.00790 0.85430 0.45615 -0.21000
H 	H 	0.03930 0.83900 0.47060 0.09600
C 	C 	0.97870 0.83190 0.41664 0.12000
H 	H 	0.99000 0.80080 0.40410 0.00200
C 	C 	0.84480 0.34046 0.87612 0.42200
C 	C 	0.86210 0.38548 0.90747 -0.18700
C 	C 	0.90930 0.40795 0.90270 0.12000
H 	H 	0.93030 0.39400 0.88040 0.00700
C 	C 	0.92640 0.45020 0.92980 -0.20600
H 	H 	0.95920 0.46470 0.92650 0.11500
C 	C 	0.89550 0.47165 0.96207 0.20100
C 	C 	0.84969 0.44662 0.96920 -0.21600
H 	H 	0.82990 0.45860 0.99340 0.10200
C 	C 	0.83328 0.40531 0.94175 0.12800
H 	H 	0.80130 0.38970 0.94620 0.00300
C 	C 	0.94690 0.54950 0.98650 0.19900
C 	C 	0.81120 0.15750 0.69950 0.41700
C 	C 	0.83640 0.12390 0.66602 -0.20600
C 	C 	0.86060 0.08100 0.68223 0.14700
H 	H 	0.86110 0.07130 0.71550 -0.00500
C 	C 	0.88490 0.05050 0.65120 -0.23300
H 	H 	0.90180 0.02020 0.66340 0.11800
C 	C 	0.88460 0.06370 0.60257 0.22900
C 	C 	0.86060 0.10630 0.58591 -0.24400
H 	H 	0.85910 0.11500 0.55230 0.10500
C 	C 	0.83780 0.13840 0.61740 0.13700
H 	H 	0.82320 0.16990 0.60580 -0.01300
C 	C 	0.20590 0.84665 0.76220 0.40300
C 	C 	0.16595 0.88310 0.74120 -0.19500
C 	C 	0.16140 0.89360 0.69110 0.11800
H 	H 	0.18490 0.87830 0.67200 -0.01500
C 	C 	0.12330 0.92570 0.66880 -0.21100
H 	H 	0.12150 0.93290 0.63480 0.10900
C 	C 	0.08740 0.94760 0.69614 0.20100
C 	C 	0.09390 0.93940 0.74637 -0.21400
H 	H 	0.07180 0.95610 0.76590 0.10000
C 	C 	0.13268 0.90690 0.76880 0.12200
H 	H 	0.13600 0.90110 0.80310 0.00400
C 	C 	0.02040 0.97850 0.62963 0.20000
C 	C 	0.00570 0.95000 0.55270 0.20000
C 	C 	0.95090 0.00470 0.58000 0.19900
C 	C 	0.88634 0.70300 0.21023 0.39000
C 	C 	0.91419 0.69226 0.16768 -0.16700
C 	C 	0.96576 0.70721 0.16642 0.10100
H 	H 	0.98410 0.72470 0.19360 0.02000
C 	C 	0.99015 0.69673 0.12597 -0.19600
H 	H 	0.02510 0.70690 0.12560 0.09800
C 	C 	0.96359 0.67130 0.08582 0.18600
C 	C 	0.91182 0.65670 0.08657 -0.19700
H 	H 	0.89320 0.63950 0.05940 0.10400
C 	C 	0.88827 0.66761 0.12739 0.10400
H 	H 	0.85320 0.65790 0.12770 0.00000
C 	C 	0.98290 0.62340 0.01277 0.19400
N 	N 	0.04134 0.57687 0.91368 -0.24500
H 	H 	0.03400 0.54970 0.89540 0.13100
N 	N 	0.01535 0.62375 0.97830 -0.17800
N 	N 	0.97719 0.54406 0.95164 -0.17800
N 	N 	0.01990 0.91730 0.51877 -0.24300
H 	H 	0.05160 0.90520 0.52510 0.12600
N 	N 	0.90922 0.51444 0.99093 -0.24500
H 	H 	0.89110 0.51950 0.01520 0.13200
N 	N 	0.90720 0.03310 0.56981 -0.25000
H 	H 	0.89160 0.03220 0.53940 0.13100
N 	N 	0.04684 0.97850 0.67631 -0.24600
H 	H 	0.03660 0.00120 0.69640 0.13200
N 	N 	0.03717 0.94940 0.59548 -0.18200
N 	N 	0.96260 0.97700 0.54213 -0.17900
N 	N 	0.97771 0.00630 0.62548 -0.17800
N 	N 	0.98925 0.66310 0.04464 -0.24200
H 	H 	0.01190 0.68630 0.03890 0.13100
N 	N 	0.94794 0.58764 0.01871 -0.18000
O 	O 	0.21786 0.73011 0.86376 -0.49600
O 	O 	0.23488 0.65816 0.82549 -0.52100
O 	O 	0.85336 0.84689 0.34343 -0.49500
O 	O 	0.91220 0.78539 0.34043 -0.50300
O 	O 	0.87396 0.32702 0.84578 -0.50900
O 	O 	0.80187 0.32075 0.88092 -0.49600
O 	O 	0.80236 0.13741 0.73939 -0.51100
O 	O 	0.80340 0.20296 0.68768 -0.52400
O 	O 	0.20426 0.83032 0.80540 -0.48900
O 	O 	0.24088 0.83498 0.73772 -0.51900
O 	O 	0.91241 0.72114 0.24906 -0.47000
O 	O 	0.83945 0.69144 0.20694 -0.48500
O 	O 	0.29986 0.74909 0.78748 -0.95400
Zn	Zn	0.25727 0.78144 0.83019 1.21000
Zn	Zn	0.29559 0.67755 0.79617 1.21100
Zn	Zn	0.27276 0.76724 0.71699 1.17700
Zn	Zn	0.37146 0.76772 0.80229 1.21700
C 	C 	0.70933 0.18370 0.85192 0.41000
C 	C 	0.66402 0.15781 0.86865 -0.19200
C 	C 	0.63620 0.17970 0.90220 0.12200
H 	H 	0.64530 0.21270 0.91420 0.00400
C 	C 	0.59520 0.15450 0.91870 -0.21200
H 	H 	0.57650 0.17000 0.94210 0.11400
C 	C 	0.58160 0.10589 0.90066 0.20200
C 	C 	0.60910 0.08438 0.86597 -0.21900
H 	H 	0.59970 0.05190 0.85280 0.10100
C 	C 	0.65033 0.11045 0.85067 0.12200
H 	H 	0.66940 0.09530 0.82740 0.00200
C 	C 	0.51090 0.08310 0.95015 0.19800
C 	C 	0.39756 0.32650 0.35702 0.41000
C 	C 	0.43290 0.35390 0.39482 -0.18500
C 	C 	0.41840 0.40050 0.41182 0.11900
H 	H 	0.38820 0.41690 0.39580 0.00700
C 	C 	0.44730 0.42370 0.45180 -0.20700
H 	H 	0.43690 0.45570 0.46310 0.11400
C 	C 	0.49110 0.40000 0.47519 0.19900
C 	C 	0.50790 0.35430 0.45615 -0.21000
H 	H 	0.53930 0.33900 0.47060 0.09600
C 	C 	0.47870 0.33190 0.41664 0.12000
H 	H 	0.49000 0.30080 0.40410 0.00200
C 	C 	0.34480 0.84046 0.87612 0.42200
C 	C 	0.36210 0.88548 0.90747 -0.18700
C 	C 	0.40930 0.90795 0.90270 0.12000
H 	H 	0.43030 0.89400 0.88040 0.00700
C 	C 	0.42640 0.95020 0.92980 -0.20600
H 	H 	0.45920 0.96470 0.92650 0.11500
C 	C 	0.39550 0.97165 0.96207 0.20100
C 	C 	0.34969 0.94662 0.96920 -0.21600
H 	H 	0.32990 0.95860 0.99340 0.10200
C 	C 	0.33328 0.90531 0.94175 0.12800
H 	H 	0.30130 0.88970 0.94620 0.00300
C 	C 	0.44690 0.04950 0.98650 0.19900
C 	C 	0.31120 0.65750 0.69950 0.41700
C 	C 	0.33640 0.62390 0.66602 -0.20600
C 	C 	0.36060 0.58100 0.68223 0.14700
H 	H 	0.36110 0.57130 0.71550 -0.00500
C 	C 	0.38490 0.55050 0.65120 -0.23300
H 	H 	0.40180 0.52020 0.66340 0.11800
C 	C 	0.38460 0.56370 0.60257 0.22900
C 	C 	0.36060 0.60630 0.58591 -0.24400
H 	H 	0.35910 0.61500 0.55230 0.10500
C 	C 	0.33780 0.63840 0.61740 0.13700
H 	H 	0.32320 0.66990 0.60580 -0.01300
C 	C 	0.70590 0.34665 0.76220 0.40300
C 	C 	0.66595 0.38310 0.74120 -0.19500
C 	C 	0.66140 0.39360 0.69110 0.11800
H 	H 	0.68490 0.37830 0.67200 -0.01500
C 	C 	0.62330 0.42570 0.66880 -0.21100
H 	H 	0.62150 0.43290 0.63480 0.10900
C 	C 	0.58740 0.44760 0.69614 0.20100
C 	C 	0.59390 0.43940 0.74637 -0.21400
H 	H 	0.57180 0.45610 0.76590 0.10000
C 	C 	0.63268 0.40690 0.76880 0.12200
H 	H 	0.63600 0.40110 0.80310 0.00400
C 	C 	0.52040 0.47850 0.62963 0.20000
C 	C 	0.50570 0.45000 0.55270 0.20100
C 	C 	0.45090 0.50470 0.58000 0.19900
C 	C 	0.38634 0.20300 0.21023 0.39000
C 	C 	0.41419 0.19226 0.16768 -0.16700
C 	C 	0.46576 0.20721 0.16642 0.10200
H 	H 	0.48410 0.22470 0.19360 0.02000
C 	C 	0.49015 0.19673 0.12597 -0.19600
H 	H 	0.52510 0.20690 0.12560 0.09900
C 	C 	0.46359 0.17130 0.08582 0.18600
C 	C 	0.41182 0.15670 0.08657 -0.19800
H 	H 	0.39320 0.13950 0.05940 0.10400
C 	C 	0.38827 0.16761 0.12739 0.10400
H 	H 	0.35320 0.15790 0.12770 -0.00000
C 	C 	0.48290 0.12340 0.01277 0.19400
N 	N 	0.54134 0.07687 0.91368 -0.24500
H 	H 	0.53400 0.04970 0.89540 0.13100
N 	N 	0.51535 0.12375 0.97830 -0.17800
N 	N 	0.47719 0.04406 0.95164 -0.17800
N 	N 	0.51990 0.41730 0.51877 -0.24300
H 	H 	0.55160 0.40520 0.52510 0.12600
N 	N 	0.40922 0.01444 0.99093 -0.24400
H 	H 	0.39110 0.01950 0.01520 0.13100
N 	N 	0.40720 0.53310 0.56981 -0.25000
H 	H 	0.39160 0.53220 0.53940 0.13100
N 	N 	0.54684 0.47850 0.67631 -0.24600
H 	H 	0.53660 0.50120 0.69640 0.13200
N 	N 	0.53717 0.44940 0.59548 -0.18200
N 	N 	0.46260 0.47700 0.54213 -0.17900
N 	N 	0.47771 0.50630 0.62548 -0.17800
N 	N 	0.48925 0.16310 0.04464 -0.24200
H 	H 	0.51190 0.18630 0.03890 0.13200
N 	N 	0.44794 0.08764 0.01871 -0.18000
O 	O 	0.71786 0.23011 0.86376 -0.49600
O 	O 	0.73488 0.15816 0.82549 -0.52100
O 	O 	0.35336 0.34689 0.34343 -0.49500
O 	O 	0.41220 0.28539 0.34043 -0.50300
O 	O 	0.37396 0.82702 0.84578 -0.50900
O 	O 	0.30187 0.82075 0.88092 -0.49600
O 	O 	0.30236 0.63741 0.73939 -0.51100
O 	O 	0.30340 0.70296 0.68768 -0.52400
O 	O 	0.70426 0.33032 0.80540 -0.48900
O 	O 	0.74088 0.33498 0.73772 -0.51900
O 	O 	0.41241 0.22114 0.24906 -0.47000
O 	O 	0.33945 0.19144 0.20694 -0.48500
O 	O 	0.79986 0.24909 0.78748 -0.95400
Zn	Zn	0.75727 0.28144 0.83019 1.21000
Zn	Zn	0.79559 0.17755 0.79617 1.21100
Zn	Zn	0.77276 0.26724 0.71699 1.17700
Zn	Zn	0.87146 0.26772 0.80229 1.21700
