data_crystal

_cell_length_a 21.49800
_cell_length_b 36.91000
_cell_length_c 20.05900
_cell_angle_alpha 90.00000
_cell_angle_beta  106.85200
_cell_angle_gamma 90.00000

_symmetry_space_group_name_	'P 1'
_symmetry_space_group_name_H-M	'P 1'

loop_
_symmetry_equiv_pos_as_xyz
  x,y,z

loop_
_atom_site_label
_atom_site_type_symbol
_atom_site_fract_x
_atom_site_fract_y
_atom_site_fract_z
_atom_site_charge
Co	Co	0.35708 0.03840 0.04073 1.12500
Co	Co	0.19038 0.03894 0.92905 1.15200
Co	Co	0.30017 0.06009 0.86095 1.17200
Co	Co	0.30594 0.12278 0.09394 1.17700
Co	Co	0.22177 0.04333 0.09676 1.16900
C 	C 	0.25600 0.98839 0.84340 0.38400
C 	C 	0.25740 0.94977 0.82150 -0.14200
C 	C 	0.30650 0.93729 0.79570 0.06400
H 	H 	0.34030 0.95320 0.79240 0.02600
C 	C 	0.30640 0.90113 0.77430 -0.13800
H 	H 	0.34050 0.89240 0.75740 0.08400
C 	C 	0.25710 0.87824 0.77760 0.09000
C 	C 	0.20860 0.89117 0.80380 -0.14200
H 	H 	0.17380 0.87560 0.80520 0.07800
C 	C 	0.20960 0.92562 0.82760 0.07200
H 	H 	0.17740 0.93330 0.84850 0.01700
C 	C 	0.25410 0.84148 0.75300 -0.03000
C 	C 	0.25000 0.81063 0.73320 -0.03500
C 	C 	0.24290 0.77322 0.71510 0.10300
C 	C 	0.29810 0.75209 0.72160 -0.15300
H 	H 	0.34000 0.76270 0.73770 0.08500
C 	C 	0.29170 0.71475 0.70410 0.09800
C 	C 	0.23040 0.69964 0.68290 -0.15500
H 	H 	0.22590 0.67440 0.67340 0.09000
C 	C 	0.18190 0.75740 0.69100 -0.15400
H 	H 	0.14430 0.77200 0.68530 0.09000
C 	C 	0.34670 0.69319 0.70450 -0.04200
C 	C 	0.38930 0.67370 0.69860 -0.02400
C 	C 	0.43760 0.64880 0.69070 0.07400
C 	C 	0.42030 0.61220 0.67670 -0.12300
H 	H 	0.37960 0.60330 0.67910 0.07600
C 	C 	0.41280 0.11255 0.03270 0.37600
C 	C 	0.47210 0.13568 0.03800 -0.14700
C 	C 	0.46820 0.17243 0.04150 0.07400
H 	H 	0.42740 0.18380 0.03610 0.01200
C 	C 	0.52460 0.19333 0.05320 -0.14700
H 	H 	0.52150 0.21900 0.05480 0.08200
C 	C 	0.58470 0.17742 0.06230 0.10200
C 	C 	0.58740 0.14093 0.05740 -0.15400
H 	H 	0.62780 0.12930 0.06230 0.08700
C 	C 	0.53060 0.12043 0.04500 0.08100
H 	H 	0.53340 0.09480 0.04150 0.01700
C 	C 	0.64220 0.19887 0.07700 -0.04200
C 	C 	0.69230 0.21575 0.09490 -0.02200
C 	C 	0.75340 0.23404 0.12030 0.07600
C 	C 	0.75690 0.27115 0.13140 -0.12600
H 	H 	0.71830 0.28530 0.11870 0.08000
C 	C 	0.81700 0.28789 0.16130 0.07300
C 	C 	0.87440 0.26834 0.17770 -0.11100
H 	H 	0.91510 0.28000 0.19690 0.07200
C 	C 	0.87080 0.23014 0.16470 0.03500
C 	C 	0.81060 0.21376 0.13800 -0.11200
H 	H 	0.80830 0.18820 0.13170 0.07300
C 	C 	0.81840 0.32599 0.17700 -0.00900
C 	C 	0.81990 0.35608 0.19980 -0.06400
C 	C 	0.81910 0.38990 0.23290 0.14800
C 	C 	0.92930 0.21007 0.17680 0.05800
C 	C 	0.97820 0.19269 0.18160 -0.19500
C 	C 	0.25630 0.98015 0.02720 0.40400
C 	C 	0.23680 0.94136 0.02230 -0.17200
C 	C 	0.28380 0.91516 0.03380 0.09500
H 	H 	0.32800 0.92210 0.04240 0.00900
C 	C 	0.26830 0.87960 0.03310 -0.16000
H 	H 	0.30210 0.86210 0.04430 0.08800
C 	C 	0.20430 0.86806 0.01650 0.09700
C 	C 	0.15560 0.89468 0.00330 -0.15100
H 	H 	0.11120 0.88790 0.99210 0.08000
C 	C 	0.17280 0.93096 0.00650 0.08700
H 	H 	0.13970 0.94890 0.99780 0.00800
C 	C 	0.18870 0.83012 0.01500 -0.03800
C 	C 	0.18290 0.79835 0.01460 -0.02500
C 	C 	0.17980 0.75965 0.01660 0.09300
C 	C 	0.23630 0.73942 0.04540 -0.14600
H 	H 	0.27640 0.75160 0.06490 0.08900
C 	C 	0.23460 0.70206 0.04590 0.09700
C 	C 	0.17590 0.68386 0.01320 -0.14600
H 	H 	0.17490 0.65810 0.01140 0.08700
C 	C 	0.11920 0.70377 0.98320 0.09500
C 	C 	0.11990 0.74073 0.98480 -0.14500
H 	H 	0.08100 0.75400 0.96490 0.08600
C 	C 	0.82870 0.58787 0.69780 0.39700
C 	C 	0.87730 0.60962 0.75280 -0.13800
C 	C 	0.93560 0.61946 0.74220 0.06900
H 	H 	0.94400 0.61280 0.69990 0.02100
C 	C 	0.98090 0.63833 0.79050 -0.14000
H 	H 	0.02100 0.64440 0.78220 0.07800
C 	C 	0.96940 0.64880 0.85150 0.08700
C 	C 	0.91050 0.64010 0.86320 -0.13100
H 	H 	0.90170 0.64790 0.90470 0.07900
C 	C 	0.86420 0.61970 0.81400 0.06100
H 	H 	0.82440 0.61300 0.82240 0.02700
C 	C 	0.01940 0.66878 0.90410 -0.03000
C 	C 	0.06060 0.68485 0.94180 -0.03200
C 	C 	0.82910 0.60791 0.50530 0.40800
C 	C 	0.89000 0.62852 0.54020 -0.16600
C 	C 	0.95020 0.61173 0.55190 0.08500
H 	H 	0.95280 0.58700 0.54000 0.00400
C 	C 	0.00510 0.63111 0.58030 -0.15400
H 	H 	0.04600 0.61930 0.58900 0.08300
C 	C 	0.00400 0.66783 0.59740 0.09700
C 	C 	0.94440 0.68392 0.58670 -0.15300
H 	H 	0.94160 0.70860 0.59920 0.08400
C 	C 	0.88850 0.66410 0.55760 0.09000
H 	H 	0.84750 0.67570 0.54950 0.01300
C 	C 	0.06210 0.68834 0.62630 -0.03500
C 	C 	0.11240 0.70429 0.64970 -0.03300
C 	C 	0.17470 0.72097 0.67520 0.10300
C 	C 	0.58270 0.60825 0.27980 0.36600
C 	C 	0.51680 0.62193 0.23350 -0.12500
C 	C 	0.48500 0.64740 0.25850 0.06100
H 	H 	0.50280 0.65620 0.30460 0.02400
C 	C 	0.42530 0.66110 0.21680 -0.14200
H 	H 	0.40290 0.67860 0.23580 0.08000
C 	C 	0.39960 0.65015 0.15210 0.09200
C 	C 	0.33960 0.66651 0.10920 -0.03000
C 	C 	0.29120 0.68198 0.07850 -0.03300
C 	C 	0.80250 0.48910 0.33620 0.27700
C 	C 	0.80830 0.45430 0.29960 -0.13100
C 	C 	0.86520 0.43970 0.30240 0.09500
H 	H 	0.90340 0.45120 0.33060 0.01200
C 	C 	0.87200 0.40940 0.26720 -0.18300
H 	H 	0.91400 0.40170 0.26650 0.09200
C 	C 	0.76590 0.40150 0.23750 -0.18300
H 	H 	0.72890 0.38630 0.22150 0.09500
C 	C 	0.75700 0.43650 0.26540 0.08400
H 	H 	0.71470 0.44620 0.25900 0.02100
C 	C 	0.03430 0.17210 0.18300 0.44700
C 	C 	0.09040 0.18550 0.19850 -0.47200
H 	H 	0.09610 0.20990 0.21460 0.18800
C 	C 	0.14800 0.16520 0.19310 0.42200
H 	H 	0.18830 0.17750 0.20040 -0.09300
C 	C 	0.08600 0.12010 0.15930 0.40500
H 	H 	0.08010 0.09640 0.13990 -0.08800
C 	C 	0.03100 0.13920 0.16490 -0.48700
H 	H 	0.99030 0.12710 0.15480 0.19200
C 	C 	0.49640 0.66210 0.68360 -0.12400
H 	H 	0.50700 0.68710 0.68930 0.07600
C 	C 	0.46510 0.58930 0.65900 0.05200
H 	H 	0.45420 0.56470 0.64810 0.02400
C 	C 	0.48810 0.60830 0.16890 0.06000
H 	H 	0.50870 0.58910 0.15180 0.02800
C 	C 	0.42960 0.62190 0.12730 -0.13500
H 	H 	0.41010 0.61210 0.08230 0.08100
C 	C 	0.57220 0.57610 0.63610 0.39400
C 	C 	0.52440 0.60220 0.65720 -0.12200
C 	C 	0.53890 0.63720 0.66760 0.05800
H 	H 	0.57960 0.64560 0.66400 0.03100
C 	C 	0.20060 0.11280 0.17020 0.53700
C 	C 	0.14460 0.13340 0.17960 -0.48900
O 	O 	0.28454 0.05965 0.95280 -0.62000
O 	O 	0.30530 0.06599 0.10030 -0.59000
O 	O 	0.31420 0.98828 0.04120 -0.49100
O 	O 	0.42239 0.07898 0.04040 -0.45900
O 	O 	0.21030 0.00421 0.01400 -0.55700
O 	O 	0.83310 0.57430 0.49700 -0.54200
O 	O 	0.21280 0.99779 0.87020 -0.47300
O 	O 	0.84447 0.57686 0.64790 -0.47000
O 	O 	0.29900 0.00921 0.83200 -0.46200
O 	O 	0.62690 0.58782 0.64890 -0.46900
O 	O 	0.77270 0.58319 0.70820 -0.44900
O 	O 	0.60830 0.62659 0.33070 -0.43600
O 	O 	0.24780 0.12994 0.16190 -0.46100
O 	O 	0.77700 0.62568 0.48840 -0.44900
O 	O 	0.35759 0.12752 0.02000 -0.42200
O 	O 	0.85210 0.50472 0.37740 -0.32500
O 	O 	0.19460 0.07946 0.16490 -0.44900
O 	O 	0.74370 0.50339 0.32350 -0.34600
O 	O 	0.60600 0.58041 0.25830 -0.26800
O 	O 	0.55130 0.54640 0.61240 -0.32800
Co	Co	0.64292 0.53840 0.45927 1.12400
Co	Co	0.80962 0.53894 0.57095 1.15200
Co	Co	0.69983 0.56009 0.63905 1.17200
Co	Co	0.69406 0.62278 0.40606 1.17700
Co	Co	0.77823 0.54333 0.40324 1.16900
C 	C 	0.74400 0.48839 0.65660 0.38400
C 	C 	0.74260 0.44977 0.67850 -0.14100
C 	C 	0.69350 0.43729 0.70430 0.06400
H 	H 	0.65970 0.45320 0.70760 0.02600
C 	C 	0.69360 0.40113 0.72570 -0.13800
H 	H 	0.65950 0.39240 0.74260 0.08400
C 	C 	0.74290 0.37824 0.72240 0.09000
C 	C 	0.79140 0.39117 0.69620 -0.14200
H 	H 	0.82620 0.37560 0.69480 0.07800
C 	C 	0.79040 0.42562 0.67240 0.07200
H 	H 	0.82260 0.43330 0.65150 0.01700
C 	C 	0.74590 0.34148 0.74700 -0.02900
C 	C 	0.75000 0.31063 0.76680 -0.03500
C 	C 	0.75710 0.27322 0.78490 0.10400
C 	C 	0.70190 0.25209 0.77840 -0.15300
H 	H 	0.66000 0.26270 0.76230 0.08500
C 	C 	0.70830 0.21475 0.79590 0.09800
C 	C 	0.76960 0.19964 0.81710 -0.15500
H 	H 	0.77410 0.17440 0.82660 0.09000
C 	C 	0.81810 0.25740 0.80900 -0.15400
H 	H 	0.85570 0.27200 0.81470 0.09000
C 	C 	0.65330 0.19319 0.79550 -0.04200
C 	C 	0.61070 0.17370 0.80140 -0.02400
C 	C 	0.56240 0.14880 0.80930 0.07400
C 	C 	0.57970 0.11220 0.82330 -0.12300
H 	H 	0.62040 0.10330 0.82090 0.07600
C 	C 	0.58720 0.61255 0.46730 0.37600
C 	C 	0.52790 0.63568 0.46200 -0.14700
C 	C 	0.53180 0.67243 0.45850 0.07400
H 	H 	0.57260 0.68380 0.46390 0.01200
C 	C 	0.47540 0.69333 0.44680 -0.14700
H 	H 	0.47850 0.71900 0.44520 0.08200
C 	C 	0.41530 0.67742 0.43770 0.10200
C 	C 	0.41260 0.64093 0.44260 -0.15400
H 	H 	0.37220 0.62930 0.43770 0.08700
C 	C 	0.46940 0.62043 0.45500 0.08100
H 	H 	0.46660 0.59480 0.45850 0.01700
C 	C 	0.35780 0.69887 0.42300 -0.04200
C 	C 	0.30770 0.71575 0.40510 -0.02200
C 	C 	0.24660 0.73404 0.37970 0.07700
C 	C 	0.24310 0.77115 0.36860 -0.12700
H 	H 	0.28170 0.78530 0.38130 0.08000
C 	C 	0.18300 0.78789 0.33870 0.07300
C 	C 	0.12560 0.76834 0.32230 -0.11100
H 	H 	0.08490 0.78000 0.30310 0.07300
C 	C 	0.12920 0.73014 0.33530 0.03500
C 	C 	0.18940 0.71376 0.36200 -0.11300
H 	H 	0.19170 0.68820 0.36830 0.07300
C 	C 	0.18160 0.82599 0.32300 -0.00900
C 	C 	0.18010 0.85608 0.30020 -0.06400
C 	C 	0.18090 0.88990 0.26710 0.14800
C 	C 	0.07070 0.71007 0.32320 0.05800
C 	C 	0.02180 0.69269 0.31840 -0.19400
C 	C 	0.74370 0.48015 0.47280 0.40400
C 	C 	0.76320 0.44136 0.47770 -0.17200
C 	C 	0.71620 0.41516 0.46620 0.09500
H 	H 	0.67200 0.42210 0.45760 0.00900
C 	C 	0.73170 0.37960 0.46690 -0.16100
H 	H 	0.69790 0.36210 0.45570 0.08800
C 	C 	0.79570 0.36806 0.48350 0.09800
C 	C 	0.84440 0.39468 0.49670 -0.15200
H 	H 	0.88880 0.38790 0.50790 0.08100
C 	C 	0.82720 0.43096 0.49350 0.08700
H 	H 	0.86030 0.44890 0.50220 0.00900
C 	C 	0.81130 0.33012 0.48500 -0.03900
C 	C 	0.81710 0.29835 0.48540 -0.02500
C 	C 	0.82020 0.25965 0.48340 0.09200
C 	C 	0.76370 0.23942 0.45460 -0.14600
H 	H 	0.72360 0.25160 0.43510 0.08900
C 	C 	0.76540 0.20206 0.45410 0.09700
C 	C 	0.82410 0.18386 0.48680 -0.14800
H 	H 	0.82510 0.15810 0.48860 0.08800
C 	C 	0.88080 0.20377 0.51680 0.09600
C 	C 	0.88010 0.24073 0.51520 -0.14500
H 	H 	0.91900 0.25400 0.53510 0.08700
C 	C 	0.17130 0.08787 0.80220 0.39700
C 	C 	0.12270 0.10962 0.74720 -0.13800
C 	C 	0.06440 0.11946 0.75780 0.07100
H 	H 	0.05600 0.11280 0.80010 0.02000
C 	C 	0.01910 0.13833 0.70950 -0.14300
H 	H 	0.97900 0.14440 0.71780 0.08000
C 	C 	0.03060 0.14880 0.64850 0.08600
C 	C 	0.08950 0.14010 0.63680 -0.13100
H 	H 	0.09830 0.14790 0.59530 0.07900
C 	C 	0.13580 0.11970 0.68600 0.06100
H 	H 	0.17560 0.11300 0.67760 0.02700
C 	C 	0.98060 0.16878 0.59590 -0.02900
C 	C 	0.93940 0.18485 0.55820 -0.03300
C 	C 	0.17090 0.10791 0.99470 0.40400
C 	C 	0.11000 0.12852 0.95980 -0.16500
C 	C 	0.04980 0.11173 0.94810 0.08200
H 	H 	0.04720 0.08700 0.96000 0.00400
C 	C 	0.99490 0.13111 0.91970 -0.15100
H 	H 	0.95400 0.11930 0.91100 0.08200
C 	C 	0.99600 0.16783 0.90260 0.09800
C 	C 	0.05560 0.18392 0.91330 -0.15500
H 	H 	0.05840 0.20860 0.90080 0.08400
C 	C 	0.11150 0.16410 0.94240 0.08900
H 	H 	0.15250 0.17570 0.95050 0.01300
C 	C 	0.93790 0.18834 0.87370 -0.03500
C 	C 	0.88760 0.20429 0.85030 -0.03200
C 	C 	0.82530 0.22097 0.82480 0.10300
C 	C 	0.41730 0.10825 0.22020 0.36600
C 	C 	0.48320 0.12193 0.26650 -0.12500
C 	C 	0.51500 0.14740 0.24150 0.06100
H 	H 	0.49720 0.15620 0.19540 0.02400
C 	C 	0.57470 0.16110 0.28320 -0.14200
H 	H 	0.59710 0.17860 0.26420 0.08000
C 	C 	0.60040 0.15015 0.34790 0.09200
C 	C 	0.66040 0.16651 0.39080 -0.03000
C 	C 	0.70880 0.18198 0.42150 -0.03400
C 	C 	0.19750 0.98910 0.16380 0.27600
C 	C 	0.19170 0.95430 0.20040 -0.13000
C 	C 	0.13480 0.93970 0.19760 0.09400
H 	H 	0.09660 0.95120 0.16940 0.01200
C 	C 	0.12800 0.90940 0.23280 -0.18200
H 	H 	0.08600 0.90170 0.23350 0.09200
C 	C 	0.23410 0.90150 0.26250 -0.18300
H 	H 	0.27110 0.88630 0.27850 0.09500
C 	C 	0.24300 0.93650 0.23460 0.08400
H 	H 	0.28530 0.94620 0.24100 0.02100
C 	C 	0.96570 0.67210 0.31700 0.44800
C 	C 	0.90960 0.68550 0.30150 -0.47200
H 	H 	0.90390 0.70990 0.28540 0.18800
C 	C 	0.85200 0.66520 0.30690 0.42300
H 	H 	0.81170 0.67750 0.29960 -0.09400
C 	C 	0.91400 0.62010 0.34070 0.40800
H 	H 	0.91990 0.59640 0.36010 -0.08900
C 	C 	0.96900 0.63920 0.33510 -0.49100
H 	H 	0.00970 0.62710 0.34520 0.19500
C 	C 	0.50360 0.16210 0.81640 -0.12400
H 	H 	0.49300 0.18710 0.81070 0.07600
C 	C 	0.53490 0.08930 0.84100 0.05200
H 	H 	0.54580 0.06470 0.85190 0.02400
C 	C 	0.51190 0.10830 0.33110 0.06000
H 	H 	0.49130 0.08910 0.34820 0.02800
C 	C 	0.57040 0.12190 0.37270 -0.13500
H 	H 	0.58990 0.11210 0.41770 0.08100
C 	C 	0.42780 0.07610 0.86390 0.39400
C 	C 	0.47560 0.10220 0.84280 -0.12300
C 	C 	0.46110 0.13720 0.83240 0.05800
H 	H 	0.42040 0.14560 0.83600 0.03000
C 	C 	0.79940 0.61280 0.32980 0.53800
C 	C 	0.85540 0.63340 0.32040 -0.49100
O 	O 	0.71546 0.55965 0.54720 -0.62000
O 	O 	0.69470 0.56599 0.39970 -0.59000
O 	O 	0.68580 0.48828 0.45880 -0.49100
O 	O 	0.57761 0.57898 0.45960 -0.45900
O 	O 	0.78970 0.50421 0.48600 -0.55800
O 	O 	0.16690 0.07430 0.00300 -0.54000
O 	O 	0.78720 0.49779 0.62980 -0.47200
O 	O 	0.15553 0.07686 0.85210 -0.47100
O 	O 	0.70100 0.50921 0.66800 -0.46200
O 	O 	0.37310 0.08782 0.85110 -0.46900
O 	O 	0.22730 0.08319 0.79180 -0.44900
O 	O 	0.39170 0.12659 0.16930 -0.43600
O 	O 	0.75220 0.62994 0.33810 -0.46200
O 	O 	0.22300 0.12568 0.01160 -0.44700
O 	O 	0.64241 0.62752 0.48000 -0.42200
O 	O 	0.14790 0.00472 0.12260 -0.32500
O 	O 	0.80540 0.57946 0.33510 -0.44900
O 	O 	0.25630 0.00339 0.17650 -0.34600
O 	O 	0.39400 0.08041 0.24170 -0.26800
O 	O 	0.44870 0.04640 0.88760 -0.32900
Co	Co	0.64292 0.96160 0.95927 1.12400
Co	Co	0.80962 0.96107 0.07095 1.15200
Co	Co	0.69983 0.93991 0.13905 1.17200
Co	Co	0.69406 0.87722 0.90606 1.17700
Co	Co	0.77823 0.95667 0.90324 1.16900
C 	C 	0.74400 0.01161 0.15660 0.38400
C 	C 	0.74260 0.05023 0.17850 -0.14200
C 	C 	0.69350 0.06271 0.20430 0.06400
H 	H 	0.65970 0.04680 0.20760 0.02600
C 	C 	0.69360 0.09887 0.22570 -0.13800
H 	H 	0.65950 0.10760 0.24260 0.08400
C 	C 	0.74290 0.12176 0.22240 0.09000
C 	C 	0.79140 0.10883 0.19620 -0.14200
H 	H 	0.82620 0.12440 0.19480 0.07800
C 	C 	0.79040 0.07438 0.17240 0.07200
H 	H 	0.82260 0.06670 0.15150 0.01700
C 	C 	0.74590 0.15852 0.24700 -0.03000
C 	C 	0.75000 0.18937 0.26680 -0.03500
C 	C 	0.75710 0.22678 0.28490 0.10300
C 	C 	0.70190 0.24791 0.27840 -0.15300
H 	H 	0.66000 0.23730 0.26230 0.08500
C 	C 	0.70830 0.28525 0.29590 0.09800
C 	C 	0.76960 0.30036 0.31710 -0.15500
H 	H 	0.77410 0.32560 0.32660 0.09000
C 	C 	0.81810 0.24260 0.30900 -0.15400
H 	H 	0.85570 0.22800 0.31470 0.09000
C 	C 	0.65330 0.30681 0.29550 -0.04200
C 	C 	0.61070 0.32630 0.30140 -0.02400
C 	C 	0.56240 0.35120 0.30930 0.07400
C 	C 	0.57970 0.38780 0.32330 -0.12300
H 	H 	0.62040 0.39670 0.32090 0.07600
C 	C 	0.58720 0.88745 0.96730 0.37600
C 	C 	0.52790 0.86432 0.96200 -0.14700
C 	C 	0.53180 0.82757 0.95850 0.07400
H 	H 	0.57260 0.81620 0.96390 0.01200
C 	C 	0.47540 0.80667 0.94680 -0.14700
H 	H 	0.47850 0.78100 0.94520 0.08200
C 	C 	0.41530 0.82258 0.93770 0.10200
C 	C 	0.41260 0.85907 0.94260 -0.15400
H 	H 	0.37220 0.87070 0.93770 0.08700
C 	C 	0.46940 0.87957 0.95500 0.08100
H 	H 	0.46660 0.90520 0.95850 0.01700
C 	C 	0.35780 0.80113 0.92300 -0.04200
C 	C 	0.30770 0.78425 0.90510 -0.02200
C 	C 	0.24660 0.76596 0.87970 0.07600
C 	C 	0.24310 0.72885 0.86860 -0.12600
H 	H 	0.28170 0.71470 0.88130 0.08000
C 	C 	0.18300 0.71211 0.83870 0.07300
C 	C 	0.12560 0.73166 0.82230 -0.11100
H 	H 	0.08490 0.72000 0.80310 0.07200
C 	C 	0.12920 0.76986 0.83530 0.03500
C 	C 	0.18940 0.78624 0.86200 -0.11200
H 	H 	0.19170 0.81180 0.86830 0.07300
C 	C 	0.18160 0.67401 0.82300 -0.00900
C 	C 	0.18010 0.64392 0.80020 -0.06400
C 	C 	0.18090 0.61010 0.76710 0.14800
C 	C 	0.07070 0.78993 0.82320 0.05800
C 	C 	0.02180 0.80731 0.81840 -0.19500
C 	C 	0.74370 0.01985 0.97280 0.40400
C 	C 	0.76320 0.05864 0.97770 -0.17200
C 	C 	0.71620 0.08484 0.96620 0.09500
H 	H 	0.67200 0.07790 0.95760 0.00900
C 	C 	0.73170 0.12040 0.96690 -0.16000
H 	H 	0.69790 0.13790 0.95570 0.08800
C 	C 	0.79570 0.13194 0.98350 0.09700
C 	C 	0.84440 0.10532 0.99670 -0.15100
H 	H 	0.88880 0.11210 0.00790 0.08000
C 	C 	0.82720 0.06904 0.99350 0.08700
H 	H 	0.86030 0.05110 0.00220 0.00800
C 	C 	0.81130 0.16988 0.98500 -0.03800
C 	C 	0.81710 0.20165 0.98540 -0.02500
C 	C 	0.82020 0.24035 0.98340 0.09300
C 	C 	0.76370 0.26058 0.95460 -0.14600
H 	H 	0.72360 0.24840 0.93510 0.08900
C 	C 	0.76540 0.29794 0.95410 0.09700
C 	C 	0.82410 0.31614 0.98680 -0.14600
H 	H 	0.82510 0.34190 0.98860 0.08700
C 	C 	0.88080 0.29623 0.01680 0.09500
C 	C 	0.88010 0.25927 0.01520 -0.14500
H 	H 	0.91900 0.24600 0.03510 0.08600
C 	C 	0.17130 0.41213 0.30220 0.39700
C 	C 	0.12270 0.39038 0.24720 -0.13800
C 	C 	0.06440 0.38054 0.25780 0.06900
H 	H 	0.05600 0.38720 0.30010 0.02100
C 	C 	0.01910 0.36167 0.20950 -0.14000
H 	H 	0.97900 0.35560 0.21780 0.07800
C 	C 	0.03060 0.35120 0.14850 0.08700
C 	C 	0.08950 0.35990 0.13680 -0.13100
H 	H 	0.09830 0.35210 0.09530 0.07900
C 	C 	0.13580 0.38030 0.18600 0.06100
H 	H 	0.17560 0.38700 0.17760 0.02700
C 	C 	0.98060 0.33122 0.09590 -0.03000
C 	C 	0.93940 0.31515 0.05820 -0.03200
C 	C 	0.17090 0.39209 0.49470 0.40800
C 	C 	0.11000 0.37148 0.45980 -0.16600
C 	C 	0.04980 0.38827 0.44810 0.08500
H 	H 	0.04720 0.41300 0.46000 0.00400
C 	C 	0.99490 0.36889 0.41970 -0.15400
H 	H 	0.95400 0.38070 0.41100 0.08300
C 	C 	0.99600 0.33217 0.40260 0.09700
C 	C 	0.05560 0.31608 0.41330 -0.15300
H 	H 	0.05840 0.29140 0.40080 0.08400
C 	C 	0.11150 0.33590 0.44240 0.09000
H 	H 	0.15250 0.32430 0.45050 0.01300
C 	C 	0.93790 0.31166 0.37370 -0.03500
C 	C 	0.88760 0.29571 0.35030 -0.03300
C 	C 	0.82530 0.27903 0.32480 0.10300
C 	C 	0.41730 0.39175 0.72020 0.36600
C 	C 	0.48320 0.37807 0.76650 -0.12500
C 	C 	0.51500 0.35260 0.74150 0.06100
H 	H 	0.49720 0.34380 0.69540 0.02400
C 	C 	0.57470 0.33890 0.78320 -0.14200
H 	H 	0.59710 0.32140 0.76420 0.08000
C 	C 	0.60040 0.34985 0.84790 0.09200
C 	C 	0.66040 0.33349 0.89080 -0.03000
C 	C 	0.70880 0.31802 0.92150 -0.03300
C 	C 	0.19750 0.51090 0.66380 0.27700
C 	C 	0.19170 0.54570 0.70040 -0.13100
C 	C 	0.13480 0.56030 0.69760 0.09500
H 	H 	0.09660 0.54880 0.66940 0.01200
C 	C 	0.12800 0.59060 0.73280 -0.18300
H 	H 	0.08600 0.59830 0.73350 0.09200
C 	C 	0.23410 0.59850 0.76250 -0.18300
H 	H 	0.27110 0.61370 0.77850 0.09500
C 	C 	0.24300 0.56350 0.73460 0.08400
H 	H 	0.28530 0.55380 0.74100 0.02100
C 	C 	0.96570 0.82790 0.81700 0.44700
C 	C 	0.90960 0.81450 0.80150 -0.47200
H 	H 	0.90390 0.79010 0.78540 0.18800
C 	C 	0.85200 0.83480 0.80690 0.42200
H 	H 	0.81170 0.82250 0.79960 -0.09300
C 	C 	0.91400 0.87990 0.84070 0.40500
H 	H 	0.91990 0.90360 0.86010 -0.08800
C 	C 	0.96900 0.86080 0.83510 -0.48700
H 	H 	0.00970 0.87290 0.84520 0.19200
C 	C 	0.50360 0.33790 0.31640 -0.12400
H 	H 	0.49300 0.31290 0.31070 0.07600
C 	C 	0.53490 0.41070 0.34100 0.05200
H 	H 	0.54580 0.43530 0.35190 0.02400
C 	C 	0.51190 0.39170 0.83110 0.06000
H 	H 	0.49130 0.41090 0.84820 0.02800
C 	C 	0.57040 0.37810 0.87270 -0.13500
H 	H 	0.58990 0.38790 0.91770 0.08100
C 	C 	0.42780 0.42390 0.36390 0.39400
C 	C 	0.47560 0.39780 0.34280 -0.12200
C 	C 	0.46110 0.36280 0.33240 0.05800
H 	H 	0.42040 0.35440 0.33600 0.03100
C 	C 	0.79940 0.88720 0.82980 0.53700
C 	C 	0.85540 0.86660 0.82040 -0.48900
O 	O 	0.71546 0.94035 0.04720 -0.62000
O 	O 	0.69470 0.93401 0.89970 -0.59000
O 	O 	0.68580 0.01172 0.95880 -0.49100
O 	O 	0.57761 0.92102 0.95960 -0.45900
O 	O 	0.78970 0.99579 0.98600 -0.55700
O 	O 	0.16690 0.42570 0.50300 -0.54200
O 	O 	0.78720 0.00221 0.12980 -0.47300
O 	O 	0.15553 0.42314 0.35210 -0.47000
O 	O 	0.70100 0.99079 0.16800 -0.46200
O 	O 	0.37310 0.41218 0.35110 -0.46900
O 	O 	0.22730 0.41681 0.29180 -0.44900
O 	O 	0.39170 0.37341 0.66930 -0.43600
O 	O 	0.75220 0.87006 0.83810 -0.46100
O 	O 	0.22300 0.37432 0.51160 -0.44900
O 	O 	0.64241 0.87248 0.98000 -0.42200
O 	O 	0.14790 0.49528 0.62260 -0.32500
O 	O 	0.80540 0.92054 0.83510 -0.44900
O 	O 	0.25630 0.49661 0.67650 -0.34600
O 	O 	0.39400 0.41959 0.74170 -0.26800
O 	O 	0.44870 0.45360 0.38760 -0.32800
Co	Co	0.35708 0.46160 0.54073 1.12400
Co	Co	0.19038 0.46107 0.42905 1.15200
Co	Co	0.30017 0.43991 0.36095 1.17200
Co	Co	0.30594 0.37722 0.59394 1.17700
Co	Co	0.22177 0.45667 0.59676 1.16900
C 	C 	0.25600 0.51161 0.34340 0.38400
C 	C 	0.25740 0.55023 0.32150 -0.14100
C 	C 	0.30650 0.56271 0.29570 0.06400
H 	H 	0.34030 0.54680 0.29240 0.02600
C 	C 	0.30640 0.59887 0.27430 -0.13800
H 	H 	0.34050 0.60760 0.25740 0.08400
C 	C 	0.25710 0.62176 0.27760 0.09000
C 	C 	0.20860 0.60883 0.30380 -0.14200
H 	H 	0.17380 0.62440 0.30520 0.07800
C 	C 	0.20960 0.57438 0.32760 0.07200
H 	H 	0.17740 0.56670 0.34850 0.01700
C 	C 	0.25410 0.65852 0.25300 -0.02900
C 	C 	0.25000 0.68937 0.23320 -0.03500
C 	C 	0.24290 0.72678 0.21510 0.10400
C 	C 	0.29810 0.74791 0.22160 -0.15300
H 	H 	0.34000 0.73730 0.23770 0.08500
C 	C 	0.29170 0.78525 0.20410 0.09800
C 	C 	0.23040 0.80036 0.18290 -0.15500
H 	H 	0.22590 0.82560 0.17340 0.09000
C 	C 	0.18190 0.74260 0.19100 -0.15400
H 	H 	0.14430 0.72800 0.18530 0.09000
C 	C 	0.34670 0.80681 0.20450 -0.04200
C 	C 	0.38930 0.82630 0.19860 -0.02400
C 	C 	0.43760 0.85120 0.19070 0.07400
C 	C 	0.42030 0.88780 0.17670 -0.12300
H 	H 	0.37960 0.89670 0.17910 0.07600
C 	C 	0.41280 0.38745 0.53270 0.37600
C 	C 	0.47210 0.36432 0.53800 -0.14700
C 	C 	0.46820 0.32757 0.54150 0.07400
H 	H 	0.42740 0.31620 0.53610 0.01200
C 	C 	0.52460 0.30667 0.55320 -0.14700
H 	H 	0.52150 0.28100 0.55480 0.08200
C 	C 	0.58470 0.32258 0.56230 0.10200
C 	C 	0.58740 0.35907 0.55740 -0.15400
H 	H 	0.62780 0.37070 0.56230 0.08700
C 	C 	0.53060 0.37957 0.54500 0.08100
H 	H 	0.53340 0.40520 0.54150 0.01700
C 	C 	0.64220 0.30113 0.57700 -0.04200
C 	C 	0.69230 0.28425 0.59490 -0.02200
C 	C 	0.75340 0.26596 0.62030 0.07700
C 	C 	0.75690 0.22885 0.63140 -0.12700
H 	H 	0.71830 0.21470 0.61870 0.08000
C 	C 	0.81700 0.21211 0.66130 0.07300
C 	C 	0.87440 0.23166 0.67770 -0.11100
H 	H 	0.91510 0.22000 0.69690 0.07300
C 	C 	0.87080 0.26986 0.66470 0.03500
C 	C 	0.81060 0.28624 0.63800 -0.11300
H 	H 	0.80830 0.31180 0.63170 0.07300
C 	C 	0.81840 0.17401 0.67700 -0.00900
C 	C 	0.81990 0.14392 0.69980 -0.06400
C 	C 	0.81910 0.11010 0.73290 0.14800
C 	C 	0.92930 0.28993 0.67680 0.05800
C 	C 	0.97820 0.30731 0.68160 -0.19400
C 	C 	0.25630 0.51985 0.52720 0.40400
C 	C 	0.23680 0.55864 0.52230 -0.17200
C 	C 	0.28380 0.58484 0.53380 0.09500
H 	H 	0.32800 0.57790 0.54240 0.00900
C 	C 	0.26830 0.62040 0.53310 -0.16100
H 	H 	0.30210 0.63790 0.54430 0.08800
C 	C 	0.20430 0.63194 0.51650 0.09800
C 	C 	0.15560 0.60532 0.50330 -0.15200
H 	H 	0.11120 0.61210 0.49210 0.08100
C 	C 	0.17280 0.56904 0.50650 0.08700
H 	H 	0.13970 0.55110 0.49780 0.00900
C 	C 	0.18870 0.66988 0.51500 -0.03900
C 	C 	0.18290 0.70165 0.51460 -0.02500
C 	C 	0.17980 0.74035 0.51660 0.09200
C 	C 	0.23630 0.76058 0.54540 -0.14600
H 	H 	0.27640 0.74840 0.56490 0.08900
C 	C 	0.23460 0.79794 0.54590 0.09700
C 	C 	0.17590 0.81614 0.51320 -0.14800
H 	H 	0.17490 0.84190 0.51140 0.08800
C 	C 	0.11920 0.79623 0.48320 0.09600
C 	C 	0.11990 0.75927 0.48480 -0.14500
H 	H 	0.08100 0.74600 0.46490 0.08700
C 	C 	0.82870 0.91213 0.19780 0.39700
C 	C 	0.87730 0.89038 0.25280 -0.13800
C 	C 	0.93560 0.88054 0.24220 0.07100
H 	H 	0.94400 0.88720 0.19990 0.02000
C 	C 	0.98090 0.86167 0.29050 -0.14300
H 	H 	0.02100 0.85560 0.28220 0.08000
C 	C 	0.96940 0.85120 0.35150 0.08600
C 	C 	0.91050 0.85990 0.36320 -0.13100
H 	H 	0.90170 0.85210 0.40470 0.07900
C 	C 	0.86420 0.88030 0.31400 0.06100
H 	H 	0.82440 0.88700 0.32240 0.02700
C 	C 	0.01940 0.83122 0.40410 -0.02900
C 	C 	0.06060 0.81515 0.44180 -0.03300
C 	C 	0.82910 0.89209 0.00530 0.40400
C 	C 	0.89000 0.87148 0.04020 -0.16500
C 	C 	0.95020 0.88827 0.05190 0.08200
H 	H 	0.95280 0.91300 0.04000 0.00400
C 	C 	0.00510 0.86889 0.08030 -0.15100
H 	H 	0.04600 0.88070 0.08900 0.08200
C 	C 	0.00400 0.83217 0.09740 0.09800
C 	C 	0.94440 0.81608 0.08670 -0.15500
H 	H 	0.94160 0.79140 0.09920 0.08400
C 	C 	0.88850 0.83590 0.05760 0.08900
H 	H 	0.84750 0.82430 0.04950 0.01300
C 	C 	0.06210 0.81166 0.12630 -0.03500
C 	C 	0.11240 0.79571 0.14970 -0.03200
C 	C 	0.17470 0.77903 0.17520 0.10300
C 	C 	0.58270 0.89175 0.77980 0.36600
C 	C 	0.51680 0.87807 0.73350 -0.12500
C 	C 	0.48500 0.85260 0.75850 0.06100
H 	H 	0.50280 0.84380 0.80460 0.02400
C 	C 	0.42530 0.83890 0.71680 -0.14200
H 	H 	0.40290 0.82140 0.73580 0.08000
C 	C 	0.39960 0.84985 0.65210 0.09200
C 	C 	0.33960 0.83349 0.60920 -0.03000
C 	C 	0.29120 0.81802 0.57850 -0.03400
C 	C 	0.80250 0.01090 0.83620 0.27600
C 	C 	0.80830 0.04570 0.79960 -0.13000
C 	C 	0.86520 0.06030 0.80240 0.09400
H 	H 	0.90340 0.04880 0.83060 0.01200
C 	C 	0.87200 0.09060 0.76720 -0.18200
H 	H 	0.91400 0.09830 0.76650 0.09200
C 	C 	0.76590 0.09850 0.73750 -0.18300
H 	H 	0.72890 0.11370 0.72150 0.09500
C 	C 	0.75700 0.06350 0.76540 0.08400
H 	H 	0.71470 0.05380 0.75900 0.02100
C 	C 	0.03430 0.32790 0.68300 0.44800
C 	C 	0.09040 0.31450 0.69850 -0.47200
H 	H 	0.09610 0.29010 0.71460 0.18800
C 	C 	0.14800 0.33480 0.69310 0.42300
H 	H 	0.18830 0.32250 0.70040 -0.09400
C 	C 	0.08600 0.37990 0.65930 0.40800
H 	H 	0.08010 0.40360 0.63990 -0.08900
C 	C 	0.03100 0.36080 0.66490 -0.49100
H 	H 	0.99030 0.37290 0.65480 0.19500
C 	C 	0.49640 0.83790 0.18360 -0.12400
H 	H 	0.50700 0.81290 0.18930 0.07600
C 	C 	0.46510 0.91070 0.15900 0.05200
H 	H 	0.45420 0.93530 0.14810 0.02400
C 	C 	0.48810 0.89170 0.66890 0.06000
H 	H 	0.50870 0.91090 0.65180 0.02800
C 	C 	0.42960 0.87810 0.62730 -0.13500
H 	H 	0.41010 0.88790 0.58230 0.08100
C 	C 	0.57220 0.92390 0.13610 0.39400
C 	C 	0.52440 0.89780 0.15720 -0.12300
C 	C 	0.53890 0.86280 0.16760 0.05800
H 	H 	0.57960 0.85440 0.16400 0.03000
C 	C 	0.20060 0.38720 0.67020 0.53800
C 	C 	0.14460 0.36660 0.67960 -0.49100
O 	O 	0.28454 0.44035 0.45280 -0.61900
O 	O 	0.30530 0.43401 0.60030 -0.59000
O 	O 	0.31420 0.51172 0.54120 -0.49100
O 	O 	0.42239 0.42102 0.54040 -0.45900
O 	O 	0.21030 0.49579 0.51400 -0.55800
O 	O 	0.83310 0.92570 0.99700 -0.54000
O 	O 	0.21280 0.50221 0.37020 -0.47200
O 	O 	0.84447 0.92314 0.14790 -0.47100
O 	O 	0.29900 0.49079 0.33200 -0.46200
O 	O 	0.62690 0.91218 0.14890 -0.46900
O 	O 	0.77270 0.91681 0.20820 -0.44900
O 	O 	0.60830 0.87341 0.83070 -0.43600
O 	O 	0.24780 0.37006 0.66190 -0.46200
O 	O 	0.77700 0.87432 0.98840 -0.44700
O 	O 	0.35759 0.37248 0.52000 -0.42200
O 	O 	0.85210 0.99528 0.87740 -0.32500
O 	O 	0.19460 0.42054 0.66490 -0.44900
O 	O 	0.74370 0.99661 0.82350 -0.34600
O 	O 	0.60600 0.91959 0.75830 -0.26800
O 	O 	0.55130 0.95360 0.11240 -0.32900
