data_crystal

_cell_length_a 25.05600
_cell_length_b 36.88400
_cell_length_c 19.66900
_cell_angle_alpha 90.00000
_cell_angle_beta  123.27200
_cell_angle_gamma 90.00000

_symmetry_space_group_name_	'P 1'
_symmetry_space_group_name_H-M	'P 1'

loop_
_symmetry_equiv_pos_as_xyz
  x,y,z

loop_
_atom_site_label
_atom_site_type_symbol
_atom_site_fract_x
_atom_site_fract_y
_atom_site_fract_z
_atom_site_charge
Co	Co	0.59880 0.21395 0.75703 1.16000
Co	Co	0.50174 0.17635 0.58080 1.17300
O 	O 	0.49531 0.22727 0.54152 -0.42800
O 	O 	0.56700 0.25160 0.66395 -0.44300
O 	O 	0.04758 0.65103 0.06380 -0.35200
O 	O 	0.08360 0.65498 0.98990 -0.47600
O 	O 	0.85946 0.67818 0.64253 -0.44000
O 	O 	0.91402 0.62625 0.68420 -0.48800
O 	O 	0.08310 0.65746 0.60298 -0.47500
O 	O 	0.15088 0.68313 0.72381 -0.45800
O 	O 	0.55182 0.24561 0.80058 -0.39900
O 	O 	0.51278 0.18554 0.68706 -0.60900
C 	C 	0.52646 0.25368 0.58830 0.38300
C 	C 	0.51399 0.29049 0.54970 -0.13200
C 	C 	0.47210 0.29545 0.46810 0.06400
H 	H 	0.45040 0.27510 0.43440 0.02800
C 	C 	0.46080 0.32957 0.43350 -0.13400
H 	H 	0.43170 0.33230 0.37650 0.07800
C 	C 	0.49087 0.35932 0.48020 0.08100
C 	C 	0.53510 0.35444 0.56460 -0.12700
H 	H 	0.55760 0.37470 0.59820 0.07500
C 	C 	0.54570 0.32017 0.59810 0.06100
H 	H 	0.57510 0.31700 0.65490 0.02300
C 	C 	0.48076 0.39566 0.44740 -0.02900
C 	C 	0.47521 0.42659 0.42640 -0.03500
C 	C 	0.47267 0.46479 0.40923 0.10300
C 	C 	0.41438 0.48309 0.36700 -0.15400
H 	H 	0.37560 0.47020 0.34600 0.08900
C 	C 	0.41353 0.52040 0.35583 0.09800
C 	C 	0.47055 0.53912 0.38710 -0.15200
H 	H 	0.46970 0.56460 0.37970 0.08700
C 	C 	0.52867 0.52120 0.42890 0.09800
C 	C 	0.52938 0.48367 0.43960 -0.14900
H 	H 	0.56890 0.47100 0.46780 0.08800
C 	C 	0.35468 0.54018 0.30920 -0.03700
C 	C 	0.30858 0.55857 0.26910 -0.03400
C 	C 	0.25290 0.58058 0.21620 0.09400
C 	C 	0.20770 0.58753 0.23390 -0.14600
H 	H 	0.21240 0.57790 0.28170 0.08100
C 	C 	0.15490 0.60893 0.18060 0.07800
H 	H 	0.12450 0.61440 0.19360 0.01800
C 	C 	0.14620 0.62210 0.11070 -0.15700
C 	C 	0.19000 0.61390 0.09270 0.07900
H 	H 	0.18390 0.62250 0.04330 0.02200
C 	C 	0.24300 0.59342 0.14480 -0.14800
H 	H 	0.27310 0.58810 0.13100 0.08300
C 	C 	0.08860 0.64475 0.05150 0.41300
C 	C 	0.58712 0.54118 0.46120 -0.02700
C 	C 	0.63396 0.55938 0.48780 -0.04400
C 	C 	0.69072 0.58118 0.52250 0.11400
C 	C 	0.68840 0.61798 0.52080 -0.16900
H 	H 	0.64820 0.62990 0.49370 0.09000
C 	C 	0.74420 0.63855 0.55830 0.09700
H 	H 	0.74110 0.66420 0.55570 0.00800
C 	C 	0.80280 0.62292 0.59860 -0.17200
C 	C 	0.80440 0.58561 0.59760 0.09700
H 	H 	0.84440 0.57350 0.62470 0.00900
C 	C 	0.74930 0.56579 0.55830 -0.17000
H 	H 	0.75220 0.54020 0.55580 0.08900
C 	C 	0.86290 0.64425 0.64440 0.40700
C 	C 	0.44278 0.32132 0.70510 0.05800
H 	H 	0.40360 0.30850 0.67420 0.01500
C 	C 	0.44257 0.35895 0.70520 -0.13300
H 	H 	0.40350 0.37190 0.67480 0.07600
C 	C 	0.44327 0.50728 0.72010 -0.15400
H 	H 	0.40430 0.49440 0.69810 0.08900
C 	C 	0.44358 0.54510 0.72230 0.10200
C 	C 	0.38677 0.56487 0.70060 -0.03600
C 	C 	0.34150 0.58150 0.68890 -0.03000
C 	C 	0.29016 0.60209 0.68200 0.08700
C 	C 	0.23140 0.60404 0.60960 -0.13700
H 	H 	0.22460 0.59200 0.56280 0.07900
C 	C 	0.13762 0.66263 0.66630 0.39800
C 	C 	0.19126 0.64183 0.67070 -0.14300
C 	C 	0.25032 0.63980 0.74430 0.06700
H 	H 	0.25700 0.65210 0.79080 0.02100
C 	C 	0.29889 0.61995 0.74960 -0.13700
H 	H 	0.33890 0.61840 0.80010 0.07900
C 	C 	0.18210 0.62348 0.60500 0.06800
H 	H 	0.14130 0.62400 0.55530 0.02400
Co	Co	0.09880 0.71395 0.75703 1.15900
Co	Co	0.00174 0.67635 0.58080 1.16200
O 	O 	0.99531 0.72727 0.54152 -0.40800
O 	O 	0.06700 0.75160 0.66395 -0.44400
O 	O 	0.54758 0.15103 0.06380 -0.34400
O 	O 	0.58360 0.15498 0.98990 -0.47200
O 	O 	0.35946 0.17818 0.64253 -0.44300
O 	O 	0.41402 0.12625 0.68420 -0.49700
O 	O 	0.58310 0.15746 0.60298 -0.47000
O 	O 	0.65088 0.18313 0.72381 -0.45800
O 	O 	0.05182 0.74561 0.80058 -0.39900
O 	O 	0.01278 0.68554 0.68706 -0.61900
C 	C 	0.02646 0.75368 0.58830 0.37400
C 	C 	0.01399 0.79049 0.54970 -0.18600
C 	C 	0.97210 0.79545 0.46810 0.13300
H 	H 	0.95040 0.77510 0.43440 0.01000
C 	C 	0.96080 0.82957 0.43350 -0.18400
H 	H 	0.93170 0.83230 0.37650 0.09800
C 	C 	0.99087 0.85932 0.48020 0.13900
C 	C 	0.03510 0.85444 0.56460 -0.19300
H 	H 	0.05760 0.87470 0.59820 0.09300
C 	C 	0.04570 0.82017 0.59810 0.10700
H 	H 	0.07510 0.81700 0.65490 0.00700
C 	C 	0.98076 0.89566 0.44740 -0.04100
C 	C 	0.97521 0.92659 0.42640 -0.02400
C 	C 	0.97267 0.96479 0.40923 0.12100
C 	C 	0.91438 0.98309 0.36700 -0.15500
H 	H 	0.87560 0.97020 0.34600 0.08900
C 	C 	0.91353 0.02040 0.35583 0.09100
C 	C 	0.97055 0.03912 0.38710 -0.12000
H 	H 	0.96970 0.06460 0.37970 0.08400
C 	C 	0.02867 0.02120 0.42890 0.07700
C 	C 	0.02938 0.98367 0.43960 -0.16900
H 	H 	0.06890 0.97100 0.46780 0.09100
C 	C 	0.85468 0.04018 0.30920 -0.03200
C 	C 	0.80858 0.05857 0.26910 -0.03400
C 	C 	0.75290 0.08058 0.21620 0.09600
C 	C 	0.70770 0.08753 0.23390 -0.14500
H 	H 	0.71240 0.07790 0.28170 0.08200
C 	C 	0.65490 0.10893 0.18060 0.07800
H 	H 	0.62450 0.11440 0.19360 0.02100
C 	C 	0.64620 0.12210 0.11070 -0.15500
C 	C 	0.69000 0.11390 0.09270 0.07900
H 	H 	0.68390 0.12250 0.04330 0.02400
C 	C 	0.74300 0.09342 0.14480 -0.14800
H 	H 	0.77310 0.08810 0.13100 0.08400
C 	C 	0.58860 0.14475 0.05150 0.41300
C 	C 	0.08712 0.04118 0.46120 -0.02100
C 	C 	0.13396 0.05938 0.48780 -0.05000
C 	C 	0.19072 0.08118 0.52250 0.11800
C 	C 	0.18840 0.11798 0.52080 -0.17200
H 	H 	0.14820 0.12990 0.49370 0.09000
C 	C 	0.24420 0.13855 0.55830 0.09900
H 	H 	0.24110 0.16420 0.55570 0.00700
C 	C 	0.30280 0.12292 0.59860 -0.17500
C 	C 	0.30440 0.08561 0.59760 0.10000
H 	H 	0.34440 0.07350 0.62470 0.00600
C 	C 	0.24930 0.06579 0.55830 -0.17300
H 	H 	0.25220 0.04020 0.55580 0.08900
C 	C 	0.36290 0.14425 0.64440 0.40900
C 	C 	0.94278 0.82132 0.70510 0.07200
H 	H 	0.90360 0.80850 0.67420 0.01200
C 	C 	0.94257 0.85895 0.70520 -0.10800
H 	H 	0.90350 0.87190 0.67480 0.07100
C 	C 	0.94327 0.00728 0.72010 -0.13400
H 	H 	0.90430 0.99440 0.69810 0.08500
C 	C 	0.94358 0.04510 0.72230 0.12100
C 	C 	0.88677 0.06487 0.70060 -0.03900
C 	C 	0.84150 0.08150 0.68890 -0.02500
C 	C 	0.79016 0.10209 0.68200 0.08500
C 	C 	0.73140 0.10404 0.60960 -0.13400
H 	H 	0.72460 0.09200 0.56280 0.07900
C 	C 	0.63762 0.16263 0.66630 0.39700
C 	C 	0.69126 0.14183 0.67070 -0.13900
C 	C 	0.75032 0.13980 0.74430 0.06500
H 	H 	0.75700 0.15210 0.79080 0.02200
C 	C 	0.79889 0.11995 0.74960 -0.13400
H 	H 	0.83890 0.11840 0.80010 0.07900
C 	C 	0.68210 0.12348 0.60500 0.06600
H 	H 	0.64130 0.12400 0.55530 0.02800
Co	Co	0.40120 0.21395 0.74297 1.15900
Co	Co	0.49826 0.17635 0.91920 1.17100
O 	O 	0.50469 0.22727 0.95848 -0.43200
O 	O 	0.43300 0.25160 0.83605 -0.44500
O 	O 	0.95242 0.65103 0.43620 -0.33500
O 	O 	0.91640 0.65498 0.51010 -0.46000
O 	O 	0.14054 0.67818 0.85747 -0.44500
O 	O 	0.08598 0.62625 0.81580 -0.50200
O 	O 	0.91690 0.65746 0.89702 -0.46500
O 	O 	0.84912 0.68313 0.77619 -0.45700
O 	O 	0.44818 0.24561 0.69942 -0.40000
O 	O 	0.48722 0.18554 0.81294 -0.61000
C 	C 	0.47354 0.25368 0.91170 0.38600
C 	C 	0.48601 0.29049 0.95030 -0.14300
C 	C 	0.52790 0.29545 0.03190 0.07700
H 	H 	0.54960 0.27510 0.06560 0.02500
C 	C 	0.53920 0.32957 0.06650 -0.14300
H 	H 	0.56830 0.33230 0.12350 0.08200
C 	C 	0.50913 0.35932 0.01980 0.09100
C 	C 	0.46490 0.35444 0.93540 -0.13800
H 	H 	0.44240 0.37470 0.90180 0.07800
C 	C 	0.45430 0.32017 0.90190 0.06900
H 	H 	0.42490 0.31700 0.84510 0.02000
C 	C 	0.51924 0.39566 0.05260 -0.03200
C 	C 	0.52479 0.42659 0.07360 -0.03200
C 	C 	0.52733 0.46479 0.09077 0.10200
C 	C 	0.58562 0.48309 0.13300 -0.15400
H 	H 	0.62440 0.47020 0.15400 0.09000
C 	C 	0.58647 0.52040 0.14417 0.09900
C 	C 	0.52945 0.53912 0.11290 -0.15200
H 	H 	0.53030 0.56460 0.12030 0.08700
C 	C 	0.47133 0.52120 0.07110 0.09900
C 	C 	0.47062 0.48367 0.06040 -0.14800
H 	H 	0.43110 0.47100 0.03220 0.08800
C 	C 	0.64532 0.54018 0.19080 -0.03700
C 	C 	0.69142 0.55857 0.23090 -0.03100
C 	C 	0.74710 0.58058 0.28380 0.09200
C 	C 	0.79230 0.58753 0.26610 -0.14000
H 	H 	0.78760 0.57790 0.21830 0.08200
C 	C 	0.84510 0.60893 0.31940 0.07300
H 	H 	0.87550 0.61440 0.30640 0.02500
C 	C 	0.85380 0.62210 0.38930 -0.14800
C 	C 	0.81000 0.61390 0.40730 0.07400
H 	H 	0.81610 0.62250 0.45670 0.02500
C 	C 	0.75700 0.59342 0.35520 -0.14300
H 	H 	0.72690 0.58810 0.36900 0.08100
C 	C 	0.91140 0.64475 0.44850 0.40400
C 	C 	0.41288 0.54118 0.03880 -0.02700
C 	C 	0.36604 0.55938 0.01220 -0.04200
C 	C 	0.30928 0.58118 0.97750 0.11500
C 	C 	0.31160 0.61798 0.97920 -0.17700
H 	H 	0.35180 0.62990 0.00630 0.09500
C 	C 	0.25580 0.63855 0.94170 0.10200
H 	H 	0.25890 0.66420 0.94430 0.00500
C 	C 	0.19720 0.62292 0.90140 -0.17800
C 	C 	0.19560 0.58561 0.90240 0.10000
H 	H 	0.15560 0.57350 0.87530 0.00400
C 	C 	0.25070 0.56579 0.94170 -0.17300
H 	H 	0.24780 0.54020 0.94420 0.08700
C 	C 	0.13710 0.64425 0.85560 0.41000
C 	C 	0.55722 0.32132 0.79490 0.05700
H 	H 	0.59640 0.30850 0.82580 0.01400
C 	C 	0.55743 0.35895 0.79480 -0.13300
H 	H 	0.59650 0.37190 0.82520 0.07600
C 	C 	0.55673 0.50728 0.77990 -0.15500
H 	H 	0.59570 0.49440 0.80190 0.08900
C 	C 	0.55642 0.54510 0.77770 0.10200
C 	C 	0.61323 0.56487 0.79940 -0.03600
C 	C 	0.65850 0.58150 0.81110 -0.02900
C 	C 	0.70984 0.60209 0.81800 0.08600
C 	C 	0.76860 0.60404 0.89040 -0.13400
H 	H 	0.77540 0.59200 0.93720 0.07900
C 	C 	0.86238 0.66263 0.83370 0.39700
C 	C 	0.80874 0.64183 0.82930 -0.13800
C 	C 	0.74968 0.63980 0.75570 0.06500
H 	H 	0.74300 0.65210 0.70920 0.02200
C 	C 	0.70111 0.61995 0.75040 -0.13400
H 	H 	0.66110 0.61840 0.69990 0.07900
C 	C 	0.81790 0.62348 0.89500 0.06600
H 	H 	0.85870 0.62400 0.94470 0.02900
Co	Co	0.90120 0.71395 0.74297 1.16000
Co	Co	0.99826 0.67635 0.91920 1.18000
O 	O 	0.00469 0.72727 0.95848 -0.45000
O 	O 	0.93300 0.75160 0.83605 -0.44300
O 	O 	0.45242 0.15103 0.43620 -0.34400
O 	O 	0.41640 0.15498 0.51010 -0.46800
O 	O 	0.64054 0.17818 0.85747 -0.44400
O 	O 	0.58598 0.12625 0.81580 -0.49800
O 	O 	0.41690 0.15746 0.89702 -0.47000
O 	O 	0.34912 0.18313 0.77619 -0.45800
O 	O 	0.94818 0.74561 0.69942 -0.38100
O 	O 	0.98722 0.68554 0.81294 -0.59900
C 	C 	0.97354 0.75368 0.91170 0.39300
C 	C 	0.98601 0.79049 0.95030 -0.08900
C 	C 	0.02790 0.79545 0.03190 0.01000
H 	H 	0.04960 0.77510 0.06560 0.04300
C 	C 	0.03920 0.82957 0.06650 -0.09400
H 	H 	0.06830 0.83230 0.12350 0.06300
C 	C 	0.00913 0.85932 0.01980 0.03400
C 	C 	0.96490 0.85444 0.93540 -0.07400
H 	H 	0.94240 0.87470 0.90180 0.06100
C 	C 	0.95430 0.82017 0.90190 0.02500
H 	H 	0.92490 0.81700 0.84510 0.03700
C 	C 	0.01924 0.89566 0.05260 -0.02000
C 	C 	0.02479 0.92659 0.07360 -0.04200
C 	C 	0.02733 0.96479 0.09077 0.08300
C 	C 	0.08562 0.98309 0.13300 -0.15300
H 	H 	0.12440 0.97020 0.15400 0.09000
C 	C 	0.08647 0.02040 0.14417 0.10600
C 	C 	0.02945 0.03912 0.11290 -0.18400
H 	H 	0.03030 0.06460 0.12030 0.09200
C 	C 	0.97133 0.02120 0.07110 0.12400
C 	C 	0.97062 0.98367 0.06040 -0.12700
H 	H 	0.93110 0.97100 0.03220 0.08600
C 	C 	0.14532 0.04018 0.19080 -0.04200
C 	C 	0.19142 0.05857 0.23090 -0.03100
C 	C 	0.24710 0.08058 0.28380 0.09100
C 	C 	0.29230 0.08753 0.26610 -0.14200
H 	H 	0.28760 0.07790 0.21830 0.08100
C 	C 	0.34510 0.10893 0.31940 0.07400
H 	H 	0.37550 0.11440 0.30640 0.02200
C 	C 	0.35380 0.12210 0.38930 -0.15200
C 	C 	0.31000 0.11390 0.40730 0.07500
H 	H 	0.31610 0.12250 0.45670 0.02300
C 	C 	0.25700 0.09342 0.35520 -0.14500
H 	H 	0.22690 0.08810 0.36900 0.08100
C 	C 	0.41140 0.14475 0.44850 0.40700
C 	C 	0.91288 0.04118 0.03880 -0.03100
C 	C 	0.86604 0.05938 0.01220 -0.03400
C 	C 	0.80928 0.08118 0.97750 0.11100
C 	C 	0.81160 0.11798 0.97920 -0.17900
H 	H 	0.85180 0.12990 0.00630 0.09900
C 	C 	0.75580 0.13855 0.94170 0.10200
H 	H 	0.75890 0.16420 0.94430 0.00500
C 	C 	0.69720 0.12292 0.90140 -0.17600
C 	C 	0.69560 0.08561 0.90240 0.09800
H 	H 	0.65560 0.07350 0.87530 0.00600
C 	C 	0.75070 0.06579 0.94170 -0.17000
H 	H 	0.74780 0.04020 0.94420 0.08600
C 	C 	0.63710 0.14425 0.85560 0.40900
C 	C 	0.05722 0.82132 0.79490 0.05500
H 	H 	0.09640 0.80850 0.82580 0.01500
C 	C 	0.05743 0.85895 0.79480 -0.12600
H 	H 	0.09650 0.87190 0.82520 0.07300
C 	C 	0.05673 0.00728 0.77990 -0.15100
H 	H 	0.09570 0.99440 0.80190 0.08800
C 	C 	0.05642 0.04510 0.77770 0.10600
C 	C 	0.11323 0.06487 0.79940 -0.03900
C 	C 	0.15850 0.08150 0.81110 -0.02900
C 	C 	0.20984 0.10209 0.81800 0.08500
C 	C 	0.26860 0.10404 0.89040 -0.13500
H 	H 	0.27540 0.09200 0.93720 0.07800
C 	C 	0.36238 0.16263 0.83370 0.39700
C 	C 	0.30874 0.14183 0.82930 -0.14000
C 	C 	0.24968 0.13980 0.75570 0.06500
H 	H 	0.24300 0.15210 0.70920 0.02100
C 	C 	0.20111 0.11995 0.75040 -0.13500
H 	H 	0.16110 0.11840 0.69990 0.07900
C 	C 	0.31790 0.12348 0.89500 0.06700
H 	H 	0.35870 0.12400 0.94470 0.02600
Co	Co	0.50000 0.14626 0.75000 1.14700
C 	C 	0.50000 0.26144 0.75000 0.35400
C 	C 	0.50000 0.30221 0.75000 -0.12700
C 	C 	0.50000 0.37737 0.75000 0.08100
C 	C 	0.50000 0.41699 0.75000 -0.02900
C 	C 	0.50000 0.44933 0.75000 -0.03600
C 	C 	0.50000 0.48842 0.75000 0.10500
C 	C 	0.50000 0.56395 0.75000 -0.15600
H 	H 	0.50000 0.58970 0.75000 0.09000
Co	Co	0.00000 0.64626 0.75000 1.13800
C 	C 	0.00000 0.76144 0.75000 0.33300
C 	C 	0.00000 0.80221 0.75000 -0.14200
C 	C 	0.00000 0.87737 0.75000 0.05500
C 	C 	0.00000 0.91699 0.75000 -0.03000
C 	C 	0.00000 0.94933 0.75000 -0.03900
C 	C 	0.00000 0.98842 0.75000 0.08300
C 	C 	0.00000 0.06395 0.75000 -0.18300
H 	H 	0.00000 0.08970 0.75000 0.09300
Co	Co	0.40120 0.78605 0.24297 1.15900
Co	Co	0.49826 0.82365 0.41920 1.17200
O 	O 	0.50469 0.77273 0.45848 -0.42900
O 	O 	0.43300 0.74840 0.33605 -0.44400
O 	O 	0.95242 0.34897 0.93620 -0.33500
O 	O 	0.91640 0.34502 0.01010 -0.45300
O 	O 	0.14054 0.32182 0.35747 -0.44500
O 	O 	0.08598 0.37375 0.31580 -0.50200
O 	O 	0.91690 0.34254 0.39702 -0.46300
O 	O 	0.84912 0.31687 0.27619 -0.45700
O 	O 	0.44818 0.75439 0.19942 -0.40000
O 	O 	0.48722 0.81446 0.31294 -0.61000
C 	C 	0.47354 0.74632 0.41170 0.38300
C 	C 	0.48601 0.70951 0.45030 -0.13200
C 	C 	0.52790 0.70455 0.53190 0.06400
H 	H 	0.54960 0.72490 0.56560 0.02800
C 	C 	0.53920 0.67043 0.56650 -0.13400
H 	H 	0.56830 0.66770 0.62350 0.07800
C 	C 	0.50913 0.64068 0.51980 0.08100
C 	C 	0.46490 0.64556 0.43540 -0.12700
H 	H 	0.44240 0.62530 0.40180 0.07500
C 	C 	0.45430 0.67983 0.40190 0.06000
H 	H 	0.42490 0.68300 0.34510 0.02300
C 	C 	0.51924 0.60434 0.55260 -0.02900
C 	C 	0.52479 0.57341 0.57360 -0.03500
C 	C 	0.52733 0.53521 0.59077 0.10300
C 	C 	0.58562 0.51691 0.63300 -0.15500
H 	H 	0.62440 0.52980 0.65400 0.09000
C 	C 	0.58647 0.47960 0.64417 0.09900
C 	C 	0.52945 0.46088 0.61290 -0.15200
H 	H 	0.53030 0.43540 0.62030 0.08700
C 	C 	0.47133 0.47880 0.57110 0.09800
C 	C 	0.47062 0.51633 0.56040 -0.14900
H 	H 	0.43110 0.52900 0.53220 0.08800
C 	C 	0.64532 0.45982 0.69080 -0.03800
C 	C 	0.69142 0.44143 0.73090 -0.03100
C 	C 	0.74710 0.41942 0.78380 0.09000
C 	C 	0.79230 0.41247 0.76610 -0.13900
H 	H 	0.78760 0.42210 0.71830 0.08100
C 	C 	0.84510 0.39107 0.81940 0.07100
H 	H 	0.87550 0.38560 0.80640 0.02500
C 	C 	0.85380 0.37790 0.88930 -0.14600
C 	C 	0.81000 0.38610 0.90730 0.07200
H 	H 	0.81610 0.37750 0.95670 0.02300
C 	C 	0.75700 0.40658 0.85520 -0.14200
H 	H 	0.72690 0.41190 0.86900 0.08000
C 	C 	0.91140 0.35525 0.94850 0.39600
C 	C 	0.41288 0.45882 0.53880 -0.02600
C 	C 	0.36604 0.44062 0.51220 -0.04600
C 	C 	0.30928 0.41882 0.47750 0.11600
C 	C 	0.31160 0.38202 0.47920 -0.17200
H 	H 	0.35180 0.37010 0.50630 0.09100
C 	C 	0.25580 0.36145 0.44170 0.09900
H 	H 	0.25890 0.33580 0.44430 0.00700
C 	C 	0.19720 0.37708 0.40140 -0.17600
C 	C 	0.19560 0.41439 0.40240 0.10000
H 	H 	0.15560 0.42650 0.37530 0.00400
C 	C 	0.25070 0.43421 0.44170 -0.17300
H 	H 	0.24780 0.45980 0.44420 0.08800
C 	C 	0.13710 0.35575 0.35560 0.41000
C 	C 	0.55722 0.67868 0.29490 0.05700
H 	H 	0.59640 0.69150 0.32580 0.01500
C 	C 	0.55743 0.64105 0.29480 -0.13300
H 	H 	0.59650 0.62810 0.32520 0.07600
C 	C 	0.55673 0.49272 0.27990 -0.15500
H 	H 	0.59570 0.50560 0.30190 0.09000
C 	C 	0.55642 0.45490 0.27770 0.10300
C 	C 	0.61323 0.43513 0.29940 -0.03600
C 	C 	0.65850 0.41850 0.31110 -0.02800
C 	C 	0.70984 0.39791 0.31800 0.08600
C 	C 	0.76860 0.39596 0.39040 -0.13300
H 	H 	0.77540 0.40800 0.43720 0.08000
C 	C 	0.86238 0.33737 0.33370 0.39600
C 	C 	0.80874 0.35817 0.32930 -0.13700
C 	C 	0.74968 0.36020 0.25570 0.06400
H 	H 	0.74300 0.34790 0.20920 0.02200
C 	C 	0.70111 0.38005 0.25040 -0.13400
H 	H 	0.66110 0.38160 0.19990 0.07900
C 	C 	0.81790 0.37652 0.39500 0.06600
H 	H 	0.85870 0.37600 0.44470 0.03100
Co	Co	0.90120 0.28605 0.24297 1.16000
Co	Co	0.99826 0.32365 0.41920 1.18200
O 	O 	0.00469 0.27273 0.45848 -0.45100
O 	O 	0.93300 0.24840 0.33605 -0.44200
O 	O 	0.45242 0.84897 0.93620 -0.34500
O 	O 	0.41640 0.84502 0.01010 -0.46400
O 	O 	0.64054 0.82182 0.35747 -0.44300
O 	O 	0.58598 0.87375 0.31580 -0.49700
O 	O 	0.41690 0.84254 0.39702 -0.47000
O 	O 	0.34912 0.81687 0.27619 -0.45800
O 	O 	0.94818 0.25439 0.19942 -0.37900
O 	O 	0.98722 0.31446 0.31294 -0.59700
C 	C 	0.97354 0.24632 0.41170 0.39200
C 	C 	0.98601 0.20951 0.45030 -0.07700
C 	C 	0.02790 0.20455 0.53190 -0.00500
H 	H 	0.04960 0.22490 0.56560 0.04700
C 	C 	0.03920 0.17043 0.56650 -0.08300
H 	H 	0.06830 0.16770 0.62350 0.06000
C 	C 	0.00913 0.14068 0.51980 0.02200
C 	C 	0.96490 0.14556 0.43540 -0.06000
H 	H 	0.94240 0.12530 0.40180 0.05800
C 	C 	0.95430 0.17983 0.40190 0.01500
H 	H 	0.92490 0.18300 0.34510 0.04000
C 	C 	0.01924 0.10434 0.55260 -0.01500
C 	C 	0.02479 0.07341 0.57360 -0.04500
C 	C 	0.02733 0.03521 0.59077 0.08600
C 	C 	0.08562 0.01691 0.63300 -0.15400
H 	H 	0.12440 0.02980 0.65400 0.09000
C 	C 	0.08647 0.97960 0.64417 0.10600
C 	C 	0.02945 0.96088 0.61290 -0.18200
H 	H 	0.03030 0.93540 0.62030 0.09100
C 	C 	0.97133 0.97880 0.57110 0.12100
C 	C 	0.97062 0.01633 0.56040 -0.13000
H 	H 	0.93110 0.02900 0.53220 0.08600
C 	C 	0.14532 0.95982 0.69080 -0.04200
C 	C 	0.19142 0.94143 0.73090 -0.03100
C 	C 	0.24710 0.91942 0.78380 0.09000
C 	C 	0.29230 0.91247 0.76610 -0.14100
H 	H 	0.28760 0.92210 0.71830 0.08000
C 	C 	0.34510 0.89107 0.81940 0.07300
H 	H 	0.37550 0.88560 0.80640 0.02200
C 	C 	0.35380 0.87790 0.88930 -0.15100
C 	C 	0.31000 0.88610 0.90730 0.07400
H 	H 	0.31610 0.87750 0.95670 0.02300
C 	C 	0.25700 0.90658 0.85520 -0.14400
H 	H 	0.22690 0.91190 0.86900 0.08100
C 	C 	0.41140 0.85525 0.94850 0.40200
C 	C 	0.91288 0.95882 0.53880 -0.03000
C 	C 	0.86604 0.94062 0.51220 -0.03900
C 	C 	0.80928 0.91882 0.47750 0.11400
C 	C 	0.81160 0.88202 0.47920 -0.16900
H 	H 	0.85180 0.87010 0.50630 0.09200
C 	C 	0.75580 0.86145 0.44170 0.09700
H 	H 	0.75890 0.83580 0.44430 0.00800
C 	C 	0.69720 0.87708 0.40140 -0.17300
C 	C 	0.69560 0.91439 0.40240 0.09800
H 	H 	0.65560 0.92650 0.37530 0.00700
C 	C 	0.75070 0.93421 0.44170 -0.17000
H 	H 	0.74780 0.95980 0.44420 0.08800
C 	C 	0.63710 0.85575 0.35560 0.40900
C 	C 	0.05722 0.17868 0.29490 0.05500
H 	H 	0.09640 0.19150 0.32580 0.01500
C 	C 	0.05743 0.14105 0.29480 -0.12500
H 	H 	0.09650 0.12810 0.32520 0.07300
C 	C 	0.05673 0.99272 0.27990 -0.15200
H 	H 	0.09570 0.00560 0.30190 0.08900
C 	C 	0.05642 0.95490 0.27770 0.10700
C 	C 	0.11323 0.93513 0.29940 -0.04000
C 	C 	0.15850 0.91850 0.31110 -0.02800
C 	C 	0.20984 0.89791 0.31800 0.08500
C 	C 	0.26860 0.89596 0.39040 -0.13500
H 	H 	0.27540 0.90800 0.43720 0.07900
C 	C 	0.36238 0.83737 0.33370 0.39700
C 	C 	0.30874 0.85817 0.32930 -0.14000
C 	C 	0.24968 0.86020 0.25570 0.06500
H 	H 	0.24300 0.84790 0.20920 0.02100
C 	C 	0.20111 0.88005 0.25040 -0.13500
H 	H 	0.16110 0.88160 0.19990 0.07900
C 	C 	0.31790 0.87652 0.39500 0.06600
H 	H 	0.35870 0.87600 0.44470 0.02700
Co	Co	0.59880 0.78605 0.25703 1.15900
Co	Co	0.50174 0.82365 0.08080 1.17200
O 	O 	0.49531 0.77273 0.04152 -0.42700
O 	O 	0.56700 0.74840 0.16395 -0.44300
O 	O 	0.04758 0.34897 0.56380 -0.35400
O 	O 	0.08360 0.34502 0.48990 -0.47600
O 	O 	0.85946 0.32182 0.14253 -0.44000
O 	O 	0.91402 0.37375 0.18420 -0.48800
O 	O 	0.08310 0.34254 0.10298 -0.47500
O 	O 	0.15088 0.31687 0.22381 -0.45900
O 	O 	0.55182 0.75439 0.30058 -0.40000
O 	O 	0.51278 0.81446 0.18706 -0.61000
C 	C 	0.52646 0.74632 0.08830 0.37900
C 	C 	0.51399 0.70951 0.04970 -0.12100
C 	C 	0.47210 0.70455 0.96810 0.05100
H 	H 	0.45040 0.72490 0.93440 0.03100
C 	C 	0.46080 0.67043 0.93350 -0.12400
H 	H 	0.43170 0.66770 0.87650 0.07500
C 	C 	0.49087 0.64068 0.98020 0.07000
C 	C 	0.53510 0.64556 0.06460 -0.11500
H 	H 	0.55760 0.62530 0.09820 0.07200
C 	C 	0.54570 0.67983 0.09810 0.05100
H 	H 	0.57510 0.68300 0.15490 0.02700
C 	C 	0.48076 0.60434 0.94740 -0.02600
C 	C 	0.47521 0.57341 0.92640 -0.03800
C 	C 	0.47267 0.53521 0.90923 0.10300
C 	C 	0.41438 0.51691 0.86700 -0.15500
H 	H 	0.37560 0.52980 0.84600 0.08900
C 	C 	0.41353 0.47960 0.85583 0.09800
C 	C 	0.47055 0.46088 0.88710 -0.15200
H 	H 	0.46970 0.43540 0.87970 0.08600
C 	C 	0.52867 0.47880 0.92890 0.09700
C 	C 	0.52938 0.51633 0.93960 -0.14900
H 	H 	0.56890 0.52900 0.96780 0.08800
C 	C 	0.35468 0.45982 0.80920 -0.03800
C 	C 	0.30858 0.44143 0.76910 -0.03400
C 	C 	0.25290 0.41942 0.71620 0.09400
C 	C 	0.20770 0.41247 0.73390 -0.14500
H 	H 	0.21240 0.42210 0.78170 0.08000
C 	C 	0.15490 0.39107 0.68060 0.07700
H 	H 	0.12450 0.38560 0.69360 0.01800
C 	C 	0.14620 0.37790 0.61070 -0.15700
C 	C 	0.19000 0.38610 0.59270 0.07800
H 	H 	0.18390 0.37750 0.54330 0.02200
C 	C 	0.24300 0.40658 0.64480 -0.14800
H 	H 	0.27310 0.41190 0.63100 0.08200
C 	C 	0.08860 0.35525 0.55150 0.41000
C 	C 	0.58712 0.45882 0.96120 -0.02600
C 	C 	0.63396 0.44062 0.98780 -0.04900
C 	C 	0.69072 0.41882 0.02250 0.11600
C 	C 	0.68840 0.38202 0.02080 -0.16100
H 	H 	0.64820 0.37010 0.99370 0.08400
C 	C 	0.74420 0.36145 0.05830 0.09200
H 	H 	0.74110 0.33580 0.05570 0.01000
C 	C 	0.80280 0.37708 0.09860 -0.16900
C 	C 	0.80440 0.41439 0.09760 0.09600
H 	H 	0.84440 0.42650 0.12470 0.01100
C 	C 	0.74930 0.43421 0.05830 -0.16900
H 	H 	0.75220 0.45980 0.05580 0.09000
C 	C 	0.86290 0.35575 0.14440 0.40600
C 	C 	0.44278 0.67868 0.20510 0.05800
H 	H 	0.40360 0.69150 0.17420 0.01500
C 	C 	0.44257 0.64105 0.20520 -0.13300
H 	H 	0.40350 0.62810 0.17480 0.07600
C 	C 	0.44327 0.49272 0.22010 -0.15500
H 	H 	0.40430 0.50560 0.19810 0.09000
C 	C 	0.44358 0.45490 0.22230 0.10200
C 	C 	0.38677 0.43513 0.20060 -0.03600
C 	C 	0.34150 0.41850 0.18890 -0.03000
C 	C 	0.29016 0.39791 0.18200 0.08700
C 	C 	0.23140 0.39596 0.10960 -0.13700
H 	H 	0.22460 0.40800 0.06280 0.07900
C 	C 	0.13762 0.33737 0.16630 0.39800
C 	C 	0.19126 0.35817 0.17070 -0.14200
C 	C 	0.25032 0.36020 0.24430 0.06700
H 	H 	0.25700 0.34790 0.29080 0.02100
C 	C 	0.29889 0.38005 0.24960 -0.13700
H 	H 	0.33890 0.38160 0.30010 0.07900
C 	C 	0.18210 0.37652 0.10500 0.06800
H 	H 	0.14130 0.37600 0.05530 0.02400
Co	Co	0.09880 0.28605 0.25703 1.15800
Co	Co	0.00174 0.32365 0.08080 1.16200
O 	O 	0.99531 0.27273 0.04152 -0.40300
O 	O 	0.06700 0.24840 0.16395 -0.44200
O 	O 	0.54758 0.84897 0.56380 -0.34500
O 	O 	0.58360 0.84502 0.48990 -0.46800
O 	O 	0.35946 0.82182 0.14253 -0.44300
O 	O 	0.41402 0.87375 0.18420 -0.49700
O 	O 	0.58310 0.84254 0.10298 -0.46900
O 	O 	0.65088 0.81687 0.22381 -0.45700
O 	O 	0.05182 0.25439 0.30058 -0.39900
O 	O 	0.01278 0.31446 0.18706 -0.62000
C 	C 	0.02646 0.24632 0.08830 0.36800
C 	C 	0.01399 0.20951 0.04970 -0.17300
C 	C 	0.97210 0.20455 0.96810 0.11600
H 	H 	0.95040 0.22490 0.93440 0.01300
C 	C 	0.96080 0.17043 0.93350 -0.17300
H 	H 	0.93170 0.16770 0.87650 0.09300
C 	C 	0.99087 0.14068 0.98020 0.12600
C 	C 	0.03510 0.14556 0.06460 -0.17900
H 	H 	0.05760 0.12530 0.09820 0.08900
C 	C 	0.04570 0.17983 0.09810 0.09500
H 	H 	0.07510 0.18300 0.15490 0.01100
C 	C 	0.98076 0.10434 0.94740 -0.03800
C 	C 	0.97521 0.07341 0.92640 -0.02700
C 	C 	0.97267 0.03521 0.90923 0.11900
C 	C 	0.91438 0.01691 0.86700 -0.15500
H 	H 	0.87560 0.02980 0.84600 0.08900
C 	C 	0.91353 0.97960 0.85583 0.09200
C 	C 	0.97055 0.96088 0.88710 -0.12300
H 	H 	0.96970 0.93540 0.87970 0.08400
C 	C 	0.02867 0.97880 0.92890 0.07800
C 	C 	0.02938 0.01633 0.93960 -0.16600
H 	H 	0.06890 0.02900 0.96780 0.09000
C 	C 	0.85468 0.95982 0.80920 -0.03400
C 	C 	0.80858 0.94143 0.76910 -0.03400
C 	C 	0.75290 0.91942 0.71620 0.09500
C 	C 	0.70770 0.91247 0.73390 -0.14400
H 	H 	0.71240 0.92210 0.78170 0.08100
C 	C 	0.65490 0.89107 0.68060 0.07600
H 	H 	0.62450 0.88560 0.69360 0.02100
C 	C 	0.64620 0.87790 0.61070 -0.15300
C 	C 	0.69000 0.88610 0.59270 0.07700
H 	H 	0.68390 0.87750 0.54330 0.02300
C 	C 	0.74300 0.90658 0.64480 -0.14700
H 	H 	0.77310 0.91190 0.63100 0.08300
C 	C 	0.58860 0.85525 0.55150 0.40800
C 	C 	0.08712 0.95882 0.96120 -0.02100
C 	C 	0.13396 0.94062 0.98780 -0.05200
C 	C 	0.19072 0.91882 0.02250 0.11900
C 	C 	0.18840 0.88202 0.02080 -0.16800
H 	H 	0.14820 0.87010 0.99370 0.08700
C 	C 	0.24420 0.86145 0.05830 0.09700
H 	H 	0.24110 0.83580 0.05570 0.00800
C 	C 	0.30280 0.87708 0.09860 -0.17400
C 	C 	0.30440 0.91439 0.09760 0.09900
H 	H 	0.34440 0.92650 0.12470 0.00700
C 	C 	0.24930 0.93421 0.05830 -0.17300
H 	H 	0.25220 0.95980 0.05580 0.08900
C 	C 	0.36290 0.85575 0.14440 0.40900
C 	C 	0.94278 0.17868 0.20510 0.07300
H 	H 	0.90360 0.19150 0.17420 0.01300
C 	C 	0.94257 0.14105 0.20520 -0.10500
H 	H 	0.90350 0.12810 0.17480 0.07100
C 	C 	0.94327 0.99272 0.22010 -0.13200
H 	H 	0.90430 0.00560 0.19810 0.08500
C 	C 	0.94358 0.95490 0.22230 0.12300
C 	C 	0.88677 0.93513 0.20060 -0.03900
C 	C 	0.84150 0.91850 0.18890 -0.02400
C 	C 	0.79016 0.89791 0.18200 0.08500
C 	C 	0.73140 0.89596 0.10960 -0.13300
H 	H 	0.72460 0.90800 0.06280 0.08000
C 	C 	0.63762 0.83737 0.16630 0.39700
C 	C 	0.69126 0.85817 0.17070 -0.13800
C 	C 	0.75032 0.86020 0.24430 0.06400
H 	H 	0.75700 0.84790 0.29080 0.02200
C 	C 	0.79889 0.88005 0.24960 -0.13300
H 	H 	0.83890 0.88160 0.30010 0.07900
C 	C 	0.68210 0.87652 0.10500 0.06600
H 	H 	0.64130 0.87600 0.05530 0.02800
Co	Co	0.50000 0.85374 0.25000 1.14700
C 	C 	0.50000 0.73856 0.25000 0.35400
C 	C 	0.50000 0.69779 0.25000 -0.12700
C 	C 	0.50000 0.62263 0.25000 0.08100
C 	C 	0.50000 0.58301 0.25000 -0.02900
C 	C 	0.50000 0.55067 0.25000 -0.03600
C 	C 	0.50000 0.51158 0.25000 0.10600
C 	C 	0.50000 0.43605 0.25000 -0.15600
H 	H 	0.50000 0.41030 0.25000 0.09000
Co	Co	0.00000 0.35374 0.25000 1.13700
C 	C 	0.00000 0.23856 0.25000 0.33000
C 	C 	0.00000 0.19779 0.25000 -0.14300
C 	C 	0.00000 0.12263 0.25000 0.05200
C 	C 	-0.00000 0.08301 0.25000 -0.03000
C 	C 	0.00000 0.05067 0.25000 -0.03900
C 	C 	0.00000 0.01158 0.25000 0.08100
C 	C 	0.00000 0.93605 0.25000 -0.18700
H 	H 	0.00000 0.91030 0.25000 0.09300
