data_crystal

_cell_length_a 46.33000
_cell_length_b 10.72700
_cell_length_c 23.71400
_cell_angle_alpha 90.00000
_cell_angle_beta  95.87200
_cell_angle_gamma 90.00000

_symmetry_space_group_name_	'P 1'
_symmetry_space_group_name_H-M	'P 1'

loop_
_symmetry_equiv_pos_as_xyz
  x,y,z

loop_
_atom_site_label
_atom_site_type_symbol
_atom_site_fract_x
_atom_site_fract_y
_atom_site_fract_z
_atom_site_charge
C 	C 	0.96536 0.24580 0.00762 0.35800
C 	C 	0.93969 0.18600 0.97441 -0.22100
C 	C 	0.90251 0.18170 0.89718 -0.32700
H 	H 	0.89220 0.22080 0.86640 0.16100
C 	C 	0.89628 0.06170 0.91107 0.34500
C 	C 	0.93237 0.06570 0.98902 0.19500
H 	H 	0.94240 0.02700 0.02030 -0.01600
C 	C 	0.91025 0.00320 0.95717 -0.33300
H 	H 	0.90500 0.92300 0.96700 0.15600
C 	C 	0.92442 0.24410 0.92977 0.19600
H 	H 	0.92870 0.32610 0.92120 -0.03200
C 	C 	0.82867 0.70840 0.93031 -0.26900
C 	C 	0.86151 0.89960 0.89500 0.39000
C 	C 	0.84323 0.92060 0.93470 -0.39600
H 	H 	0.84150 0.00040 0.94920 0.18000
C 	C 	0.86390 0.78690 0.87166 -0.38700
H 	H 	0.87650 0.77350 0.84420 0.17900
C 	C 	0.84701 0.69020 0.88961 0.24300
H 	H 	0.84830 0.61160 0.87350 -0.03600
C 	C 	0.82726 0.82510 0.95368 0.25600
H 	H 	0.81540 0.83910 0.98240 -0.04100
C 	C 	0.81027 0.60340 0.94887 0.41300
C 	C 	0.76232 0.23740 0.12012 0.35000
C 	C 	0.78956 0.28950 0.15004 -0.22000
C 	C 	0.80483 0.22360 0.19302 0.19000
H 	H 	0.79840 0.14510 0.20270 -0.01600
C 	C 	0.79952 0.40220 0.13581 0.19100
H 	H 	0.78940 0.44670 0.10640 -0.01600
C 	C 	0.83914 0.38840 0.20702 0.33600
C 	C 	0.82972 0.27300 0.22212 -0.31800
H 	H 	0.83990 0.22850 0.25140 0.15500
C 	C 	0.82485 0.45400 0.16435 -0.32600
H 	H 	0.83160 0.53160 0.15410 0.15700
C 	C 	0.93684 0.52710 0.22180 0.18200
H 	H 	0.95110 0.57750 0.24030 -0.01200
C 	C 	0.94286 0.46100 0.17419 -0.21500
C 	C 	0.89375 0.38520 0.16580 -0.33600
H 	H 	0.87900 0.33940 0.14590 0.15700
C 	C 	0.88858 0.44750 0.21384 0.33100
C 	C 	0.97223 0.46330 0.15247 0.39400
C 	C 	0.91002 0.51970 0.24241 -0.31000
H 	H 	0.90650 0.56270 0.27510 0.14600
C 	C 	0.92094 0.39000 0.14666 0.19600
H 	H 	0.92450 0.34470 0.11470 -0.02000
C 	C 	0.06705 0.07330 0.20704 0.34800
C 	C 	0.05143 0.26920 0.17036 0.20200
H 	H 	0.05250 0.35550 0.17350 -0.05800
C 	C 	0.06783 0.19980 0.21029 -0.34200
H 	H 	0.07940 0.23900 0.23940 0.15800
C 	C 	0.03384 0.10090 0.12481 0.19100
H 	H 	0.02260 0.06460 0.09440 -0.03400
C 	C 	0.04889 0.02270 0.16342 -0.31600
H 	H 	0.04680 0.93670 0.16010 0.16100
C 	C 	0.10135 0.04270 0.28628 0.02700
H 	H 	0.09160 0.10230 0.30860 0.03700
H 	H 	0.11720 0.08470 0.27030 0.04400
C 	C 	0.02922 0.75540 0.45765 0.17000
H 	H 	0.00980 0.77860 0.45140 -0.03000
C 	C 	0.06505 0.65400 0.51022 0.17300
H 	H 	0.07130 0.60510 0.54150 -0.04900
C 	C 	0.08454 0.68230 0.47365 -0.29700
H 	H 	0.10360 0.65400 0.48020 0.14700
C 	C 	0.04689 0.79000 0.41776 -0.28900
H 	H 	0.03980 0.83590 0.38610 0.14500
C 	C 	0.07587 0.75420 0.42607 0.30000
C 	C 	0.08723 0.88200 0.34971 0.01000
H 	H 	0.07730 0.94900 0.36730 0.04800
H 	H 	0.07370 0.84510 0.32050 0.04800
C 	C 	0.12668 0.83690 0.28835 0.03000
H 	H 	0.13500 0.77060 0.31270 0.03500
H 	H 	0.11240 0.80110 0.26010 0.04100
C 	C 	0.11279 0.93480 0.32289 0.00800
C 	C 	0.13647 0.97900 0.36780 0.02200
H 	H 	0.14270 0.90990 0.39250 0.04500
H 	H 	0.15310 0.00740 0.34950 0.04100
C 	C 	0.17679 0.66320 0.17204 0.16900
H 	H 	0.17500 0.57830 0.16460 -0.01500
C 	C 	0.16326 0.83730 0.22508 0.31800
C 	C 	0.19675 0.84630 0.15546 0.17000
H 	H 	0.20940 0.89390 0.13620 -0.02900
C 	C 	0.16083 0.71200 0.21318 -0.30400
H 	H 	0.14880 0.66130 0.23230 0.15200
C 	C 	0.18213 0.90660 0.19552 -0.28100
H 	H 	0.18480 0.99140 0.20250 0.14900
C 	C 	0.15653 0.28730 0.50885 0.17900
H 	H 	0.14970 0.35060 0.53080 -0.03800
C 	C 	0.14606 0.13330 0.43777 0.33400
C 	C 	0.13705 0.22690 0.47039 -0.32400
H 	H 	0.11760 0.25040 0.46670 0.15700
C 	C 	0.17467 0.10070 0.44502 -0.33100
H 	H 	0.18180 0.03640 0.42410 0.15400
C 	C 	0.19254 0.16600 0.48430 0.18400
H 	H 	0.21200 0.14260 0.48910 -0.05100
Co	Co	0.00854 0.33105 0.06911 1.13600
Co	Co	0.71490 0.15164 0.07469 1.14200
N 	N 	0.03733 0.69150 0.50475 -0.28300
N 	N 	0.18474 0.25940 0.51605 -0.29000
N 	N 	0.03426 0.22260 0.12791 -0.29500
N 	N 	0.19441 0.72830 0.14228 -0.26900
O 	O 	0.74815 0.29807 0.08169 -0.40700
O 	O 	0.75372 0.13046 0.13415 -0.38600
O 	O 	0.97763 0.37051 0.12293 -0.42400
O 	O 	0.98889 0.55155 0.16421 -0.29400
O 	O 	0.98100 0.18032 0.04303 -0.38900
O 	O 	0.97132 0.35876 0.99970 -0.39400
O 	O 	0.80818 0.50827 0.91864 -0.44900
O 	O 	0.79819 0.61910 0.99293 -0.30200
O 	O 	0.87618 0.00029 0.87326 -0.33200
O 	O 	0.86324 0.43980 0.23925 -0.33700
O 	O 	0.08142 0.99262 0.24222 -0.26600
O 	O 	0.12621 0.07824 0.40072 -0.26700
O 	O 	0.09613 0.78881 0.39189 -0.24900
O 	O 	0.14870 0.89930 0.26183 -0.26000
C 	C 	0.46536 0.74580 0.00762 0.35700
C 	C 	0.43969 0.68600 0.97441 -0.22200
C 	C 	0.40251 0.68170 0.89718 -0.32800
H 	H 	0.39220 0.72080 0.86640 0.16000
C 	C 	0.39628 0.56170 0.91107 0.34600
C 	C 	0.43237 0.56570 0.98902 0.19500
H 	H 	0.44240 0.52700 0.02030 -0.01500
C 	C 	0.41025 0.50320 0.95717 -0.33400
H 	H 	0.40500 0.42300 0.96700 0.15700
C 	C 	0.42442 0.74410 0.92977 0.19600
H 	H 	0.42870 0.82610 0.92120 -0.03300
C 	C 	0.32867 0.20840 0.93031 -0.26900
C 	C 	0.36151 0.39960 0.89500 0.39000
C 	C 	0.34323 0.42060 0.93470 -0.39500
H 	H 	0.34150 0.50040 0.94920 0.17900
C 	C 	0.36390 0.28690 0.87166 -0.38700
H 	H 	0.37650 0.27350 0.84420 0.17900
C 	C 	0.34701 0.19020 0.88961 0.24200
H 	H 	0.34830 0.11160 0.87350 -0.03500
C 	C 	0.32726 0.32510 0.95368 0.25600
H 	H 	0.31540 0.33910 0.98240 -0.04100
C 	C 	0.31027 0.10340 0.94887 0.41300
C 	C 	0.26232 0.73740 0.12012 0.35000
C 	C 	0.28956 0.78950 0.15004 -0.21900
C 	C 	0.30483 0.72360 0.19302 0.18900
H 	H 	0.29840 0.64510 0.20270 -0.01600
C 	C 	0.29952 0.90220 0.13581 0.19100
H 	H 	0.28940 0.94670 0.10640 -0.01600
C 	C 	0.33914 0.88840 0.20702 0.33600
C 	C 	0.32972 0.77300 0.22212 -0.31700
H 	H 	0.33990 0.72850 0.25140 0.15500
C 	C 	0.32485 0.95400 0.16435 -0.32500
H 	H 	0.33160 0.03160 0.15410 0.15700
C 	C 	0.43684 0.02710 0.22180 0.18200
H 	H 	0.45110 0.07750 0.24030 -0.01200
C 	C 	0.44286 0.96100 0.17419 -0.21500
C 	C 	0.39375 0.88520 0.16580 -0.33600
H 	H 	0.37900 0.83940 0.14590 0.15700
C 	C 	0.38858 0.94750 0.21384 0.33100
C 	C 	0.47223 0.96330 0.15247 0.39400
C 	C 	0.41002 0.01970 0.24241 -0.31000
H 	H 	0.40650 0.06270 0.27510 0.14600
C 	C 	0.42094 0.89000 0.14666 0.19600
H 	H 	0.42450 0.84470 0.11470 -0.02000
C 	C 	0.56705 0.57330 0.20704 0.34800
C 	C 	0.55143 0.76920 0.17036 0.20200
H 	H 	0.55250 0.85550 0.17350 -0.05800
C 	C 	0.56783 0.69980 0.21029 -0.34200
H 	H 	0.57940 0.73900 0.23940 0.15800
C 	C 	0.53384 0.60090 0.12481 0.19000
H 	H 	0.52260 0.56460 0.09440 -0.03400
C 	C 	0.54889 0.52270 0.16342 -0.31500
H 	H 	0.54680 0.43670 0.16010 0.16000
C 	C 	0.60135 0.54270 0.28628 0.02800
H 	H 	0.59160 0.60230 0.30860 0.03700
H 	H 	0.61720 0.58470 0.27030 0.04300
C 	C 	0.52922 0.25540 0.45765 0.17000
H 	H 	0.50980 0.27860 0.45140 -0.03000
C 	C 	0.56505 0.15400 0.51022 0.17300
H 	H 	0.57130 0.10510 0.54150 -0.04900
C 	C 	0.58454 0.18230 0.47365 -0.29700
H 	H 	0.60360 0.15400 0.48020 0.14700
C 	C 	0.54689 0.29000 0.41776 -0.28900
H 	H 	0.53980 0.33590 0.38610 0.14500
C 	C 	0.57587 0.25420 0.42607 0.30000
C 	C 	0.58723 0.38200 0.34971 0.01000
H 	H 	0.57730 0.44900 0.36730 0.04800
H 	H 	0.57370 0.34510 0.32050 0.04800
C 	C 	0.62668 0.33690 0.28835 0.03000
H 	H 	0.63500 0.27060 0.31270 0.03500
H 	H 	0.61240 0.30110 0.26010 0.04100
C 	C 	0.61279 0.43480 0.32289 0.00700
C 	C 	0.63647 0.47900 0.36780 0.02100
H 	H 	0.64270 0.40990 0.39250 0.04500
H 	H 	0.65310 0.50740 0.34950 0.04200
C 	C 	0.67679 0.16320 0.17204 0.16900
H 	H 	0.67500 0.07830 0.16460 -0.01600
C 	C 	0.66326 0.33730 0.22508 0.31800
C 	C 	0.69675 0.34630 0.15546 0.17000
H 	H 	0.70940 0.39390 0.13620 -0.02900
C 	C 	0.66083 0.21200 0.21318 -0.30400
H 	H 	0.64880 0.16130 0.23230 0.15100
C 	C 	0.68213 0.40660 0.19552 -0.28100
H 	H 	0.68480 0.49140 0.20250 0.14900
C 	C 	0.65653 0.78730 0.50885 0.17900
H 	H 	0.64970 0.85060 0.53080 -0.03800
C 	C 	0.64606 0.63330 0.43777 0.33400
C 	C 	0.63705 0.72690 0.47039 -0.32400
H 	H 	0.61760 0.75040 0.46670 0.15700
C 	C 	0.67467 0.60070 0.44502 -0.33000
H 	H 	0.68180 0.53640 0.42410 0.15400
C 	C 	0.69254 0.66600 0.48430 0.18400
H 	H 	0.71200 0.64260 0.48910 -0.05100
Co	Co	0.50854 0.83105 0.06911 1.13600
Co	Co	0.21490 0.65164 0.07469 1.14200
N 	N 	0.53733 0.19150 0.50475 -0.28300
N 	N 	0.68474 0.75940 0.51605 -0.29000
N 	N 	0.53426 0.72260 0.12791 -0.29500
N 	N 	0.69441 0.22830 0.14228 -0.26900
O 	O 	0.24815 0.79807 0.08169 -0.40700
O 	O 	0.25372 0.63046 0.13415 -0.38600
O 	O 	0.47763 0.87051 0.12293 -0.42400
O 	O 	0.48889 0.05155 0.16421 -0.29400
O 	O 	0.48100 0.68032 0.04303 -0.38900
O 	O 	0.47132 0.85876 0.99970 -0.39500
O 	O 	0.30818 0.00827 0.91864 -0.44900
O 	O 	0.29819 0.11910 0.99293 -0.30200
O 	O 	0.37618 0.50029 0.87326 -0.33200
O 	O 	0.36324 0.93980 0.23925 -0.33700
O 	O 	0.58142 0.49262 0.24222 -0.26600
O 	O 	0.62621 0.57824 0.40072 -0.26600
O 	O 	0.59613 0.28881 0.39189 -0.24900
O 	O 	0.64870 0.39930 0.26183 -0.26000
C 	C 	0.03464 0.24580 0.49238 0.35700
C 	C 	0.06031 0.18600 0.52559 -0.22200
C 	C 	0.09749 0.18170 0.60282 -0.32800
H 	H 	0.10780 0.22080 0.63360 0.16000
C 	C 	0.10372 0.06170 0.58893 0.34600
C 	C 	0.06763 0.06570 0.51098 0.19500
H 	H 	0.05760 0.02700 0.47970 -0.01600
C 	C 	0.08975 0.00320 0.54283 -0.33400
H 	H 	0.09500 0.92300 0.53300 0.15700
C 	C 	0.07558 0.24410 0.57023 0.19600
H 	H 	0.07130 0.32610 0.57880 -0.03200
C 	C 	0.17133 0.70840 0.56969 -0.26900
C 	C 	0.13849 0.89960 0.60500 0.39000
C 	C 	0.15677 0.92060 0.56530 -0.39500
H 	H 	0.15850 0.00040 0.55080 0.17900
C 	C 	0.13610 0.78690 0.62834 -0.38700
H 	H 	0.12350 0.77350 0.65580 0.17900
C 	C 	0.15299 0.69020 0.61039 0.24200
H 	H 	0.15170 0.61160 0.62650 -0.03600
C 	C 	0.17274 0.82510 0.54632 0.25600
H 	H 	0.18460 0.83910 0.51760 -0.04100
C 	C 	0.18973 0.60340 0.55113 0.41300
C 	C 	0.23768 0.23740 0.37988 0.35000
C 	C 	0.21044 0.28950 0.34996 -0.22000
C 	C 	0.19517 0.22360 0.30698 0.19000
H 	H 	0.20160 0.14510 0.29730 -0.01600
C 	C 	0.20048 0.40220 0.36419 0.19100
H 	H 	0.21060 0.44670 0.39360 -0.01600
C 	C 	0.16086 0.38840 0.29298 0.33600
C 	C 	0.17028 0.27300 0.27788 -0.31800
H 	H 	0.16010 0.22850 0.24860 0.15500
C 	C 	0.17515 0.45400 0.33565 -0.32600
H 	H 	0.16840 0.53160 0.34590 0.15700
C 	C 	0.06316 0.52710 0.27820 0.18200
H 	H 	0.04890 0.57750 0.25970 -0.01200
C 	C 	0.05714 0.46100 0.32581 -0.21500
C 	C 	0.10625 0.38520 0.33420 -0.33600
H 	H 	0.12100 0.33940 0.35410 0.15700
C 	C 	0.11142 0.44750 0.28616 0.33100
C 	C 	0.02777 0.46330 0.34753 0.39400
C 	C 	0.08998 0.51970 0.25759 -0.31000
H 	H 	0.09350 0.56270 0.22490 0.14600
C 	C 	0.07906 0.39000 0.35334 0.19600
H 	H 	0.07550 0.34470 0.38530 -0.02000
C 	C 	0.93295 0.07330 0.29296 0.34800
C 	C 	0.94857 0.26920 0.32964 0.20200
H 	H 	0.94750 0.35550 0.32650 -0.05800
C 	C 	0.93217 0.19980 0.28971 -0.34200
H 	H 	0.92060 0.23900 0.26060 0.15800
C 	C 	0.96616 0.10090 0.37519 0.19100
H 	H 	0.97740 0.06460 0.40560 -0.03400
C 	C 	0.95111 0.02270 0.33658 -0.31600
H 	H 	0.95320 0.93670 0.33990 0.16000
C 	C 	0.89865 0.04270 0.21372 0.02700
H 	H 	0.90840 0.10230 0.19140 0.03700
H 	H 	0.88280 0.08470 0.22970 0.04400
C 	C 	0.97078 0.75540 0.04235 0.17100
H 	H 	0.99020 0.77860 0.04860 -0.03000
C 	C 	0.93495 0.65400 0.98978 0.17300
H 	H 	0.92870 0.60510 0.95850 -0.04900
C 	C 	0.91546 0.68230 0.02635 -0.29700
H 	H 	0.89640 0.65400 0.01980 0.14600
C 	C 	0.95311 0.79000 0.08224 -0.28900
H 	H 	0.96020 0.83590 0.11390 0.14500
C 	C 	0.92413 0.75420 0.07393 0.30000
C 	C 	0.91277 0.88200 0.15029 0.01000
H 	H 	0.92270 0.94900 0.13270 0.04800
H 	H 	0.92630 0.84510 0.17950 0.04800
C 	C 	0.87332 0.83690 0.21165 0.03000
H 	H 	0.86500 0.77060 0.18730 0.03500
H 	H 	0.88760 0.80110 0.23990 0.04100
C 	C 	0.88721 0.93480 0.17711 0.00700
C 	C 	0.86353 0.97900 0.13220 0.02300
H 	H 	0.85730 0.90990 0.10750 0.04500
H 	H 	0.84690 0.00740 0.15050 0.04100
C 	C 	0.82321 0.66320 0.32796 0.16900
H 	H 	0.82500 0.57830 0.33540 -0.01500
C 	C 	0.83674 0.83730 0.27492 0.31800
C 	C 	0.80325 0.84630 0.34454 0.17000
H 	H 	0.79060 0.89390 0.36380 -0.02900
C 	C 	0.83917 0.71200 0.28682 -0.30400
H 	H 	0.85120 0.66130 0.26770 0.15200
C 	C 	0.81787 0.90660 0.30448 -0.28100
H 	H 	0.81520 0.99140 0.29750 0.14900
C 	C 	0.84347 0.28730 0.99115 0.17900
H 	H 	0.85030 0.35060 0.96920 -0.03800
C 	C 	0.85394 0.13330 0.06223 0.33400
C 	C 	0.86295 0.22690 0.02961 -0.32400
H 	H 	0.88240 0.25040 0.03330 0.15700
C 	C 	0.82533 0.10070 0.05498 -0.33100
H 	H 	0.81820 0.03640 0.07590 0.15400
C 	C 	0.80746 0.16600 0.01570 0.18300
H 	H 	0.78800 0.14260 0.01090 -0.05100
Co	Co	0.99146 0.33105 0.43089 1.13600
Co	Co	0.28510 0.15164 0.42531 1.14200
N 	N 	0.96267 0.69150 0.99525 -0.28300
N 	N 	0.81526 0.25940 0.98395 -0.29000
N 	N 	0.96574 0.22260 0.37209 -0.29500
N 	N 	0.80559 0.72830 0.35772 -0.26900
O 	O 	0.25185 0.29807 0.41831 -0.40700
O 	O 	0.24628 0.13046 0.36585 -0.38600
O 	O 	0.02237 0.37051 0.37707 -0.42400
O 	O 	0.01111 0.55155 0.33579 -0.29400
O 	O 	0.01900 0.18032 0.45697 -0.38900
O 	O 	0.02868 0.35876 0.50030 -0.39400
O 	O 	0.19182 0.50827 0.58136 -0.44900
O 	O 	0.20181 0.61910 0.50707 -0.30200
O 	O 	0.12382 0.00029 0.62674 -0.33200
O 	O 	0.13676 0.43980 0.26075 -0.33700
O 	O 	0.91858 0.99262 0.25778 -0.26600
O 	O 	0.87379 0.07824 0.09928 -0.26700
O 	O 	0.90387 0.78881 0.10811 -0.24900
O 	O 	0.85130 0.89930 0.23817 -0.26000
C 	C 	0.53464 0.74580 0.49238 0.35700
C 	C 	0.56031 0.68600 0.52559 -0.22200
C 	C 	0.59749 0.68170 0.60282 -0.32800
H 	H 	0.60780 0.72080 0.63360 0.16000
C 	C 	0.60372 0.56170 0.58893 0.34500
C 	C 	0.56763 0.56570 0.51098 0.19400
H 	H 	0.55760 0.52700 0.47970 -0.01500
C 	C 	0.58975 0.50320 0.54283 -0.33300
H 	H 	0.59500 0.42300 0.53300 0.15700
C 	C 	0.57558 0.74410 0.57023 0.19600
H 	H 	0.57130 0.82610 0.57880 -0.03200
C 	C 	0.67133 0.20840 0.56969 -0.26900
C 	C 	0.63849 0.39960 0.60500 0.39000
C 	C 	0.65677 0.42060 0.56530 -0.39500
H 	H 	0.65850 0.50040 0.55080 0.17900
C 	C 	0.63610 0.28690 0.62834 -0.38700
H 	H 	0.62350 0.27350 0.65580 0.17900
C 	C 	0.65299 0.19020 0.61039 0.24200
H 	H 	0.65170 0.11160 0.62650 -0.03600
C 	C 	0.67274 0.32510 0.54632 0.25600
H 	H 	0.68460 0.33910 0.51760 -0.04100
C 	C 	0.68973 0.10340 0.55113 0.41300
C 	C 	0.73768 0.73740 0.37988 0.35000
C 	C 	0.71044 0.78950 0.34996 -0.21900
C 	C 	0.69517 0.72360 0.30698 0.19000
H 	H 	0.70160 0.64510 0.29730 -0.01600
C 	C 	0.70048 0.90220 0.36419 0.19100
H 	H 	0.71060 0.94670 0.39360 -0.01600
C 	C 	0.66086 0.88840 0.29298 0.33600
C 	C 	0.67028 0.77300 0.27788 -0.31700
H 	H 	0.66010 0.72850 0.24860 0.15500
C 	C 	0.67515 0.95400 0.33565 -0.32500
H 	H 	0.66840 0.03160 0.34590 0.15700
C 	C 	0.56316 0.02710 0.27820 0.18200
H 	H 	0.54890 0.07750 0.25970 -0.01200
C 	C 	0.55714 0.96100 0.32581 -0.21500
C 	C 	0.60625 0.88520 0.33420 -0.33700
H 	H 	0.62100 0.83940 0.35410 0.15700
C 	C 	0.61142 0.94750 0.28616 0.33100
C 	C 	0.52777 0.96330 0.34753 0.39400
C 	C 	0.58998 0.01970 0.25759 -0.31000
H 	H 	0.59350 0.06270 0.22490 0.14600
C 	C 	0.57906 0.89000 0.35334 0.19600
H 	H 	0.57550 0.84470 0.38530 -0.02000
C 	C 	0.43295 0.57330 0.29296 0.34800
C 	C 	0.44857 0.76920 0.32964 0.20200
H 	H 	0.44750 0.85550 0.32650 -0.05800
C 	C 	0.43217 0.69980 0.28971 -0.34200
H 	H 	0.42060 0.73900 0.26060 0.15800
C 	C 	0.46616 0.60090 0.37519 0.19000
H 	H 	0.47740 0.56460 0.40560 -0.03400
C 	C 	0.45111 0.52270 0.33658 -0.31500
H 	H 	0.45320 0.43670 0.33990 0.16000
C 	C 	0.39865 0.54270 0.21372 0.02800
H 	H 	0.40840 0.60230 0.19140 0.03700
H 	H 	0.38280 0.58470 0.22970 0.04300
C 	C 	0.47078 0.25540 0.04235 0.17000
H 	H 	0.49020 0.27860 0.04860 -0.03000
C 	C 	0.43495 0.15400 0.98978 0.17300
H 	H 	0.42870 0.10510 0.95850 -0.04900
C 	C 	0.41546 0.18230 0.02635 -0.29800
H 	H 	0.39640 0.15400 0.01980 0.14700
C 	C 	0.45311 0.29000 0.08224 -0.28900
H 	H 	0.46020 0.33590 0.11390 0.14500
C 	C 	0.42413 0.25420 0.07393 0.30000
C 	C 	0.41277 0.38200 0.15029 0.01000
H 	H 	0.42270 0.44900 0.13270 0.04800
H 	H 	0.42630 0.34510 0.17950 0.04800
C 	C 	0.37332 0.33690 0.21165 0.03000
H 	H 	0.36500 0.27060 0.18730 0.03500
H 	H 	0.38760 0.30110 0.23990 0.04100
C 	C 	0.38721 0.43480 0.17711 0.00700
C 	C 	0.36353 0.47900 0.13220 0.02100
H 	H 	0.35730 0.40990 0.10750 0.04500
H 	H 	0.34690 0.50740 0.15050 0.04200
C 	C 	0.32321 0.16320 0.32796 0.16900
H 	H 	0.32500 0.07830 0.33540 -0.01500
C 	C 	0.33674 0.33730 0.27492 0.31800
C 	C 	0.30325 0.34630 0.34454 0.17000
H 	H 	0.29060 0.39390 0.36380 -0.02900
C 	C 	0.33917 0.21200 0.28682 -0.30400
H 	H 	0.35120 0.16130 0.26770 0.15100
C 	C 	0.31787 0.40660 0.30448 -0.28100
H 	H 	0.31520 0.49140 0.29750 0.14900
C 	C 	0.34347 0.78730 0.99115 0.17900
H 	H 	0.35030 0.85060 0.96920 -0.03800
C 	C 	0.35394 0.63330 0.06223 0.33400
C 	C 	0.36295 0.72690 0.02961 -0.32400
H 	H 	0.38240 0.75040 0.03330 0.15700
C 	C 	0.32533 0.60070 0.05498 -0.33000
H 	H 	0.31820 0.53640 0.07590 0.15400
C 	C 	0.30746 0.66600 0.01570 0.18400
H 	H 	0.28800 0.64260 0.01090 -0.05100
Co	Co	0.49146 0.83105 0.43089 1.13600
Co	Co	0.78510 0.65164 0.42531 1.14200
N 	N 	0.46267 0.19150 0.99525 -0.28300
N 	N 	0.31526 0.75940 0.98395 -0.29000
N 	N 	0.46574 0.72260 0.37209 -0.29500
N 	N 	0.30559 0.22830 0.35772 -0.26900
O 	O 	0.75185 0.79807 0.41831 -0.40700
O 	O 	0.74628 0.63046 0.36585 -0.38600
O 	O 	0.52237 0.87051 0.37707 -0.42400
O 	O 	0.51111 0.05155 0.33579 -0.29400
O 	O 	0.51900 0.68032 0.45697 -0.38900
O 	O 	0.52868 0.85876 0.50030 -0.39400
O 	O 	0.69182 0.00827 0.58136 -0.44900
O 	O 	0.70181 0.11910 0.50707 -0.30200
O 	O 	0.62382 0.50029 0.62674 -0.33200
O 	O 	0.63676 0.93980 0.26075 -0.33700
O 	O 	0.41858 0.49262 0.25778 -0.26600
O 	O 	0.37379 0.57824 0.09928 -0.26600
O 	O 	0.40387 0.28881 0.10811 -0.24900
O 	O 	0.35130 0.39930 0.23817 -0.26000
C 	C 	0.03464 0.75420 0.99238 0.35700
C 	C 	0.06031 0.81400 0.02559 -0.22200
C 	C 	0.09749 0.81830 0.10282 -0.32800
H 	H 	0.10780 0.77920 0.13360 0.16000
C 	C 	0.10372 0.93830 0.08893 0.34500
C 	C 	0.06763 0.93430 0.01098 0.19500
H 	H 	0.05760 0.97300 0.97970 -0.01600
C 	C 	0.08975 0.99680 0.04283 -0.33300
H 	H 	0.09500 0.07700 0.03300 0.15600
C 	C 	0.07558 0.75590 0.07023 0.19600
H 	H 	0.07130 0.67390 0.07880 -0.03200
C 	C 	0.17133 0.29160 0.06969 -0.26900
C 	C 	0.13849 0.10040 0.10500 0.39000
C 	C 	0.15677 0.07940 0.06530 -0.39600
H 	H 	0.15850 0.99960 0.05080 0.18000
C 	C 	0.13610 0.21310 0.12834 -0.38700
H 	H 	0.12350 0.22650 0.15580 0.17900
C 	C 	0.15299 0.30980 0.11039 0.24300
H 	H 	0.15170 0.38840 0.12650 -0.03600
C 	C 	0.17274 0.17490 0.04632 0.25600
H 	H 	0.18460 0.16090 0.01760 -0.04100
C 	C 	0.18973 0.39660 0.05113 0.41300
C 	C 	0.23768 0.76260 0.87988 0.35000
C 	C 	0.21044 0.71050 0.84996 -0.22000
C 	C 	0.19517 0.77640 0.80698 0.19000
H 	H 	0.20160 0.85490 0.79730 -0.01600
C 	C 	0.20048 0.59780 0.86419 0.19100
H 	H 	0.21060 0.55330 0.89360 -0.01600
C 	C 	0.16086 0.61160 0.79298 0.33600
C 	C 	0.17028 0.72700 0.77788 -0.31800
H 	H 	0.16010 0.77150 0.74860 0.15500
C 	C 	0.17515 0.54600 0.83565 -0.32600
H 	H 	0.16840 0.46840 0.84590 0.15700
C 	C 	0.06316 0.47290 0.77820 0.18200
H 	H 	0.04890 0.42250 0.75970 -0.01200
C 	C 	0.05714 0.53900 0.82581 -0.21500
C 	C 	0.10625 0.61480 0.83420 -0.33600
H 	H 	0.12100 0.66060 0.85410 0.15700
C 	C 	0.11142 0.55250 0.78616 0.33100
C 	C 	0.02777 0.53670 0.84753 0.39400
C 	C 	0.08998 0.48030 0.75759 -0.31000
H 	H 	0.09350 0.43730 0.72490 0.14600
C 	C 	0.07906 0.61000 0.85334 0.19600
H 	H 	0.07550 0.65530 0.88530 -0.02000
C 	C 	0.93295 0.92670 0.79296 0.34800
C 	C 	0.94857 0.73080 0.82964 0.20200
H 	H 	0.94750 0.64450 0.82650 -0.05800
C 	C 	0.93217 0.80020 0.78971 -0.34200
H 	H 	0.92060 0.76100 0.76060 0.15800
C 	C 	0.96616 0.89910 0.87519 0.19100
H 	H 	0.97740 0.93540 0.90560 -0.03400
C 	C 	0.95111 0.97730 0.83658 -0.31600
H 	H 	0.95320 0.06330 0.83990 0.16100
C 	C 	0.89865 0.95730 0.71372 0.02700
H 	H 	0.90840 0.89770 0.69140 0.03700
H 	H 	0.88280 0.91530 0.72970 0.04400
C 	C 	0.97078 0.24460 0.54235 0.17000
H 	H 	0.99020 0.22140 0.54860 -0.03000
C 	C 	0.93495 0.34600 0.48978 0.17300
H 	H 	0.92870 0.39490 0.45850 -0.04900
C 	C 	0.91546 0.31770 0.52635 -0.29700
H 	H 	0.89640 0.34600 0.51980 0.14700
C 	C 	0.95311 0.21000 0.58224 -0.28900
H 	H 	0.96020 0.16410 0.61390 0.14500
C 	C 	0.92413 0.24580 0.57393 0.30000
C 	C 	0.91277 0.11800 0.65029 0.01000
H 	H 	0.92270 0.05100 0.63270 0.04800
H 	H 	0.92630 0.15490 0.67950 0.04800
C 	C 	0.87332 0.16310 0.71165 0.03000
H 	H 	0.86500 0.22940 0.68730 0.03500
H 	H 	0.88760 0.19890 0.73990 0.04100
C 	C 	0.88721 0.06520 0.67711 0.00800
C 	C 	0.86353 0.02100 0.63220 0.02200
H 	H 	0.85730 0.09010 0.60750 0.04500
H 	H 	0.84690 0.99260 0.65050 0.04100
C 	C 	0.82321 0.33680 0.82796 0.16900
H 	H 	0.82500 0.42170 0.83540 -0.01500
C 	C 	0.83674 0.16270 0.77492 0.31800
C 	C 	0.80325 0.15370 0.84454 0.17000
H 	H 	0.79060 0.10610 0.86380 -0.02900
C 	C 	0.83917 0.28800 0.78682 -0.30400
H 	H 	0.85120 0.33870 0.76770 0.15200
C 	C 	0.81787 0.09340 0.80448 -0.28100
H 	H 	0.81520 0.00860 0.79750 0.14900
C 	C 	0.84347 0.71270 0.49115 0.17900
H 	H 	0.85030 0.64940 0.46920 -0.03800
C 	C 	0.85394 0.86670 0.56223 0.33400
C 	C 	0.86295 0.77310 0.52961 -0.32400
H 	H 	0.88240 0.74960 0.53330 0.15700
C 	C 	0.82533 0.89930 0.55498 -0.33100
H 	H 	0.81820 0.96360 0.57590 0.15400
C 	C 	0.80746 0.83400 0.51570 0.18400
H 	H 	0.78800 0.85740 0.51090 -0.05100
Co	Co	0.99146 0.66895 0.93089 1.13600
Co	Co	0.28510 0.84836 0.92531 1.14200
N 	N 	0.96267 0.30850 0.49525 -0.28300
N 	N 	0.81526 0.74060 0.48395 -0.29000
N 	N 	0.96574 0.77740 0.87209 -0.29500
N 	N 	0.80559 0.27170 0.85772 -0.26900
O 	O 	0.25185 0.70193 0.91831 -0.40700
O 	O 	0.24628 0.86954 0.86585 -0.38600
O 	O 	0.02237 0.62949 0.87707 -0.42400
O 	O 	0.01111 0.44845 0.83579 -0.29400
O 	O 	0.01900 0.81968 0.95697 -0.38900
O 	O 	0.02868 0.64124 0.00030 -0.39400
O 	O 	0.19182 0.49173 0.08136 -0.44900
O 	O 	0.20181 0.38090 0.00707 -0.30200
O 	O 	0.12382 0.99971 0.12674 -0.33200
O 	O 	0.13676 0.56020 0.76075 -0.33700
O 	O 	0.91858 0.00738 0.75778 -0.26600
O 	O 	0.87379 0.92176 0.59928 -0.26700
O 	O 	0.90387 0.21119 0.60811 -0.24900
O 	O 	0.85130 0.10070 0.73817 -0.26000
C 	C 	0.53464 0.25420 0.99238 0.35700
C 	C 	0.56031 0.31400 0.02559 -0.22200
C 	C 	0.59749 0.31830 0.10282 -0.32800
H 	H 	0.60780 0.27920 0.13360 0.16000
C 	C 	0.60372 0.43830 0.08893 0.34600
C 	C 	0.56763 0.43430 0.01098 0.19500
H 	H 	0.55760 0.47300 0.97970 -0.01500
C 	C 	0.58975 0.49680 0.04283 -0.33400
H 	H 	0.59500 0.57700 0.03300 0.15700
C 	C 	0.57558 0.25590 0.07023 0.19600
H 	H 	0.57130 0.17390 0.07880 -0.03300
C 	C 	0.67133 0.79160 0.06969 -0.26900
C 	C 	0.63849 0.60040 0.10500 0.39000
C 	C 	0.65677 0.57940 0.06530 -0.39500
H 	H 	0.65850 0.49960 0.05080 0.17900
C 	C 	0.63610 0.71310 0.12834 -0.38700
H 	H 	0.62350 0.72650 0.15580 0.17900
C 	C 	0.65299 0.80980 0.11039 0.24200
H 	H 	0.65170 0.88840 0.12650 -0.03500
C 	C 	0.67274 0.67490 0.04632 0.25600
H 	H 	0.68460 0.66090 0.01760 -0.04100
C 	C 	0.68973 0.89660 0.05113 0.41300
C 	C 	0.73768 0.26260 0.87988 0.35000
C 	C 	0.71044 0.21050 0.84996 -0.21900
C 	C 	0.69517 0.27640 0.80698 0.18900
H 	H 	0.70160 0.35490 0.79730 -0.01600
C 	C 	0.70048 0.09780 0.86419 0.19100
H 	H 	0.71060 0.05330 0.89360 -0.01600
C 	C 	0.66086 0.11160 0.79298 0.33600
C 	C 	0.67028 0.22700 0.77788 -0.31700
H 	H 	0.66010 0.27150 0.74860 0.15500
C 	C 	0.67515 0.04600 0.83565 -0.32500
H 	H 	0.66840 0.96840 0.84590 0.15700
C 	C 	0.56316 0.97290 0.77820 0.18200
H 	H 	0.54890 0.92250 0.75970 -0.01200
C 	C 	0.55714 0.03900 0.82581 -0.21500
C 	C 	0.60625 0.11480 0.83420 -0.33600
H 	H 	0.62100 0.16060 0.85410 0.15700
C 	C 	0.61142 0.05250 0.78616 0.33100
C 	C 	0.52777 0.03670 0.84753 0.39400
C 	C 	0.58998 0.98030 0.75759 -0.31000
H 	H 	0.59350 0.93730 0.72490 0.14600
C 	C 	0.57906 0.11000 0.85334 0.19600
H 	H 	0.57550 0.15530 0.88530 -0.02000
C 	C 	0.43295 0.42670 0.79296 0.34800
C 	C 	0.44857 0.23080 0.82964 0.20200
H 	H 	0.44750 0.14450 0.82650 -0.05800
C 	C 	0.43217 0.30020 0.78971 -0.34200
H 	H 	0.42060 0.26100 0.76060 0.15800
C 	C 	0.46616 0.39910 0.87519 0.19000
H 	H 	0.47740 0.43540 0.90560 -0.03400
C 	C 	0.45111 0.47730 0.83658 -0.31500
H 	H 	0.45320 0.56330 0.83990 0.16000
C 	C 	0.39865 0.45730 0.71372 0.02800
H 	H 	0.40840 0.39770 0.69140 0.03700
H 	H 	0.38280 0.41530 0.72970 0.04300
C 	C 	0.47078 0.74460 0.54235 0.17000
H 	H 	0.49020 0.72140 0.54860 -0.03000
C 	C 	0.43495 0.84600 0.48978 0.17300
H 	H 	0.42870 0.89490 0.45850 -0.04900
C 	C 	0.41546 0.81770 0.52635 -0.29700
H 	H 	0.39640 0.84600 0.51980 0.14700
C 	C 	0.45311 0.71000 0.58224 -0.28900
H 	H 	0.46020 0.66410 0.61390 0.14500
C 	C 	0.42413 0.74580 0.57393 0.30000
C 	C 	0.41277 0.61800 0.65029 0.01000
H 	H 	0.42270 0.55100 0.63270 0.04800
H 	H 	0.42630 0.65490 0.67950 0.04800
C 	C 	0.37332 0.66310 0.71165 0.03000
H 	H 	0.36500 0.72940 0.68730 0.03500
H 	H 	0.38760 0.69890 0.73990 0.04100
C 	C 	0.38721 0.56520 0.67711 0.00700
C 	C 	0.36353 0.52100 0.63220 0.02100
H 	H 	0.35730 0.59010 0.60750 0.04500
H 	H 	0.34690 0.49260 0.65050 0.04200
C 	C 	0.32321 0.83680 0.82796 0.16900
H 	H 	0.32500 0.92170 0.83540 -0.01600
C 	C 	0.33674 0.66270 0.77492 0.31800
C 	C 	0.30325 0.65370 0.84454 0.17000
H 	H 	0.29060 0.60610 0.86380 -0.02900
C 	C 	0.33917 0.78800 0.78682 -0.30400
H 	H 	0.35120 0.83870 0.76770 0.15100
C 	C 	0.31787 0.59340 0.80448 -0.28100
H 	H 	0.31520 0.50860 0.79750 0.14900
C 	C 	0.34347 0.21270 0.49115 0.17900
H 	H 	0.35030 0.14940 0.46920 -0.03800
C 	C 	0.35394 0.36670 0.56223 0.33400
C 	C 	0.36295 0.27310 0.52961 -0.32400
H 	H 	0.38240 0.24960 0.53330 0.15700
C 	C 	0.32533 0.39930 0.55498 -0.33000
H 	H 	0.31820 0.46360 0.57590 0.15400
C 	C 	0.30746 0.33400 0.51570 0.18400
H 	H 	0.28800 0.35740 0.51090 -0.05100
Co	Co	0.49146 0.16895 0.93089 1.13600
Co	Co	0.78510 0.34836 0.92531 1.14200
N 	N 	0.46267 0.80850 0.49525 -0.28300
N 	N 	0.31526 0.24060 0.48395 -0.29000
N 	N 	0.46574 0.27740 0.87209 -0.29500
N 	N 	0.30559 0.77170 0.85772 -0.26900
O 	O 	0.75185 0.20193 0.91831 -0.40700
O 	O 	0.74628 0.36954 0.86585 -0.38600
O 	O 	0.52237 0.12949 0.87707 -0.42400
O 	O 	0.51111 0.94845 0.83579 -0.29400
O 	O 	0.51900 0.31968 0.95697 -0.38900
O 	O 	0.52868 0.14124 0.00030 -0.39500
O 	O 	0.69182 0.99173 0.08136 -0.44900
O 	O 	0.70181 0.88090 0.00707 -0.30200
O 	O 	0.62382 0.49971 0.12674 -0.33200
O 	O 	0.63676 0.06020 0.76075 -0.33700
O 	O 	0.41858 0.50738 0.75778 -0.26600
O 	O 	0.37379 0.42176 0.59928 -0.26600
O 	O 	0.40387 0.71119 0.60811 -0.24900
O 	O 	0.35130 0.60070 0.73817 -0.26000
C 	C 	0.96536 0.75420 0.50762 0.35700
C 	C 	0.93969 0.81400 0.47441 -0.22200
C 	C 	0.90251 0.81830 0.39718 -0.32800
H 	H 	0.89220 0.77920 0.36640 0.16000
C 	C 	0.89628 0.93830 0.41107 0.34600
C 	C 	0.93237 0.93430 0.48902 0.19500
H 	H 	0.94240 0.97300 0.52030 -0.01600
C 	C 	0.91025 0.99680 0.45717 -0.33400
H 	H 	0.90500 0.07700 0.46700 0.15700
C 	C 	0.92442 0.75590 0.42977 0.19600
H 	H 	0.92870 0.67390 0.42120 -0.03200
C 	C 	0.82867 0.29160 0.43031 -0.26900
C 	C 	0.86151 0.10040 0.39500 0.39000
C 	C 	0.84323 0.07940 0.43470 -0.39500
H 	H 	0.84150 0.99960 0.44920 0.17900
C 	C 	0.86390 0.21310 0.37166 -0.38700
H 	H 	0.87650 0.22650 0.34420 0.17900
C 	C 	0.84701 0.30980 0.38961 0.24200
H 	H 	0.84830 0.38840 0.37350 -0.03600
C 	C 	0.82726 0.17490 0.45368 0.25600
H 	H 	0.81540 0.16090 0.48240 -0.04100
C 	C 	0.81027 0.39660 0.44887 0.41300
C 	C 	0.76232 0.76260 0.62012 0.35000
C 	C 	0.78956 0.71050 0.65004 -0.22000
C 	C 	0.80483 0.77640 0.69302 0.19000
H 	H 	0.79840 0.85490 0.70270 -0.01600
C 	C 	0.79952 0.59780 0.63581 0.19100
H 	H 	0.78940 0.55330 0.60640 -0.01600
C 	C 	0.83914 0.61160 0.70702 0.33600
C 	C 	0.82972 0.72700 0.72212 -0.31800
H 	H 	0.83990 0.77150 0.75140 0.15500
C 	C 	0.82485 0.54600 0.66435 -0.32600
H 	H 	0.83160 0.46840 0.65410 0.15700
C 	C 	0.93684 0.47290 0.72180 0.18200
H 	H 	0.95110 0.42250 0.74030 -0.01200
C 	C 	0.94286 0.53900 0.67419 -0.21500
C 	C 	0.89375 0.61480 0.66580 -0.33600
H 	H 	0.87900 0.66060 0.64590 0.15700
C 	C 	0.88858 0.55250 0.71384 0.33100
C 	C 	0.97223 0.53670 0.65247 0.39400
C 	C 	0.91002 0.48030 0.74241 -0.31000
H 	H 	0.90650 0.43730 0.77510 0.14600
C 	C 	0.92094 0.61000 0.64666 0.19600
H 	H 	0.92450 0.65530 0.61470 -0.02000
C 	C 	0.06705 0.92670 0.70704 0.34800
C 	C 	0.05143 0.73080 0.67036 0.20200
H 	H 	0.05250 0.64450 0.67350 -0.05800
C 	C 	0.06783 0.80020 0.71029 -0.34200
H 	H 	0.07940 0.76100 0.73940 0.15800
C 	C 	0.03384 0.89910 0.62481 0.19100
H 	H 	0.02260 0.93540 0.59440 -0.03400
C 	C 	0.04889 0.97730 0.66342 -0.31600
H 	H 	0.04680 0.06330 0.66010 0.16000
C 	C 	0.10135 0.95730 0.78628 0.02700
H 	H 	0.09160 0.89770 0.80860 0.03700
H 	H 	0.11720 0.91530 0.77030 0.04400
C 	C 	0.02922 0.24460 0.95765 0.17100
H 	H 	0.00980 0.22140 0.95140 -0.03000
C 	C 	0.06505 0.34600 0.01022 0.17300
H 	H 	0.07130 0.39490 0.04150 -0.04900
C 	C 	0.08454 0.31770 0.97365 -0.29700
H 	H 	0.10360 0.34600 0.98020 0.14600
C 	C 	0.04689 0.21000 0.91776 -0.28900
H 	H 	0.03980 0.16410 0.88610 0.14500
C 	C 	0.07587 0.24580 0.92607 0.30000
C 	C 	0.08723 0.11800 0.84971 0.01000
H 	H 	0.07730 0.05100 0.86730 0.04800
H 	H 	0.07370 0.15490 0.82050 0.04800
C 	C 	0.12668 0.16310 0.78835 0.03000
H 	H 	0.13500 0.22940 0.81270 0.03500
H 	H 	0.11240 0.19890 0.76010 0.04100
C 	C 	0.11279 0.06520 0.82289 0.00700
C 	C 	0.13647 0.02100 0.86780 0.02300
H 	H 	0.14270 0.09010 0.89250 0.04500
H 	H 	0.15310 0.99260 0.84950 0.04100
C 	C 	0.17679 0.33680 0.67204 0.16900
H 	H 	0.17500 0.42170 0.66460 -0.01500
C 	C 	0.16326 0.16270 0.72508 0.31800
C 	C 	0.19675 0.15370 0.65546 0.17000
H 	H 	0.20940 0.10610 0.63620 -0.02900
C 	C 	0.16083 0.28800 0.71318 -0.30400
H 	H 	0.14880 0.33870 0.73230 0.15200
C 	C 	0.18213 0.09340 0.69552 -0.28100
H 	H 	0.18480 0.00860 0.70250 0.14900
C 	C 	0.15653 0.71270 0.00885 0.17900
H 	H 	0.14970 0.64940 0.03080 -0.03800
C 	C 	0.14606 0.86670 0.93777 0.33400
C 	C 	0.13705 0.77310 0.97039 -0.32400
H 	H 	0.11760 0.74960 0.96670 0.15700
C 	C 	0.17467 0.89930 0.94502 -0.33100
H 	H 	0.18180 0.96360 0.92410 0.15400
C 	C 	0.19254 0.83400 0.98430 0.18300
H 	H 	0.21200 0.85740 0.98910 -0.05100
Co	Co	0.00854 0.66895 0.56911 1.13600
Co	Co	0.71490 0.84836 0.57469 1.14200
N 	N 	0.03733 0.30850 0.00475 -0.28300
N 	N 	0.18474 0.74060 0.01605 -0.29000
N 	N 	0.03426 0.77740 0.62791 -0.29500
N 	N 	0.19441 0.27170 0.64228 -0.26900
O 	O 	0.74815 0.70193 0.58169 -0.40700
O 	O 	0.75372 0.86954 0.63415 -0.38600
O 	O 	0.97763 0.62949 0.62293 -0.42400
O 	O 	0.98889 0.44845 0.66421 -0.29400
O 	O 	0.98100 0.81968 0.54303 -0.38900
O 	O 	0.97132 0.64124 0.49970 -0.39400
O 	O 	0.80818 0.49173 0.41864 -0.44900
O 	O 	0.79819 0.38090 0.49293 -0.30200
O 	O 	0.87618 0.99971 0.37326 -0.33200
O 	O 	0.86324 0.56020 0.73925 -0.33700
O 	O 	0.08142 0.00738 0.74222 -0.26600
O 	O 	0.12621 0.92176 0.90072 -0.26700
O 	O 	0.09613 0.21119 0.89189 -0.24900
O 	O 	0.14870 0.10070 0.76183 -0.26000
C 	C 	0.46536 0.25420 0.50762 0.35700
C 	C 	0.43969 0.31400 0.47441 -0.22200
C 	C 	0.40251 0.31830 0.39718 -0.32800
H 	H 	0.39220 0.27920 0.36640 0.16000
C 	C 	0.39628 0.43830 0.41107 0.34500
C 	C 	0.43237 0.43430 0.48902 0.19400
H 	H 	0.44240 0.47300 0.52030 -0.01500
C 	C 	0.41025 0.49680 0.45717 -0.33300
H 	H 	0.40500 0.57700 0.46700 0.15700
C 	C 	0.42442 0.25590 0.42977 0.19600
H 	H 	0.42870 0.17390 0.42120 -0.03200
C 	C 	0.32867 0.79160 0.43031 -0.26900
C 	C 	0.36151 0.60040 0.39500 0.39000
C 	C 	0.34323 0.57940 0.43470 -0.39500
H 	H 	0.34150 0.49960 0.44920 0.17900
C 	C 	0.36390 0.71310 0.37166 -0.38700
H 	H 	0.37650 0.72650 0.34420 0.17900
C 	C 	0.34701 0.80980 0.38961 0.24200
H 	H 	0.34830 0.88840 0.37350 -0.03600
C 	C 	0.32726 0.67490 0.45368 0.25600
H 	H 	0.31540 0.66090 0.48240 -0.04100
C 	C 	0.31027 0.89660 0.44887 0.41300
C 	C 	0.26232 0.26260 0.62012 0.35000
C 	C 	0.28956 0.21050 0.65004 -0.21900
C 	C 	0.30483 0.27640 0.69302 0.19000
H 	H 	0.29840 0.35490 0.70270 -0.01600
C 	C 	0.29952 0.09780 0.63581 0.19100
H 	H 	0.28940 0.05330 0.60640 -0.01600
C 	C 	0.33914 0.11160 0.70702 0.33600
C 	C 	0.32972 0.22700 0.72212 -0.31700
H 	H 	0.33990 0.27150 0.75140 0.15500
C 	C 	0.32485 0.04600 0.66435 -0.32500
H 	H 	0.33160 0.96840 0.65410 0.15700
C 	C 	0.43684 0.97290 0.72180 0.18200
H 	H 	0.45110 0.92250 0.74030 -0.01200
C 	C 	0.44286 0.03900 0.67419 -0.21500
C 	C 	0.39375 0.11480 0.66580 -0.33700
H 	H 	0.37900 0.16060 0.64590 0.15700
C 	C 	0.38858 0.05250 0.71384 0.33100
C 	C 	0.47223 0.03670 0.65247 0.39400
C 	C 	0.41002 0.98030 0.74241 -0.31000
H 	H 	0.40650 0.93730 0.77510 0.14600
C 	C 	0.42094 0.11000 0.64666 0.19600
H 	H 	0.42450 0.15530 0.61470 -0.02000
C 	C 	0.56705 0.42670 0.70704 0.34800
C 	C 	0.55143 0.23080 0.67036 0.20200
H 	H 	0.55250 0.14450 0.67350 -0.05800
C 	C 	0.56783 0.30020 0.71029 -0.34200
H 	H 	0.57940 0.26100 0.73940 0.15800
C 	C 	0.53384 0.39910 0.62481 0.19000
H 	H 	0.52260 0.43540 0.59440 -0.03400
C 	C 	0.54889 0.47730 0.66342 -0.31500
H 	H 	0.54680 0.56330 0.66010 0.16000
C 	C 	0.60135 0.45730 0.78628 0.02800
H 	H 	0.59160 0.39770 0.80860 0.03700
H 	H 	0.61720 0.41530 0.77030 0.04300
C 	C 	0.52922 0.74460 0.95765 0.17000
H 	H 	0.50980 0.72140 0.95140 -0.03000
C 	C 	0.56505 0.84600 0.01022 0.17300
H 	H 	0.57130 0.89490 0.04150 -0.04900
C 	C 	0.58454 0.81770 0.97365 -0.29800
H 	H 	0.60360 0.84600 0.98020 0.14700
C 	C 	0.54689 0.71000 0.91776 -0.28900
H 	H 	0.53980 0.66410 0.88610 0.14500
C 	C 	0.57587 0.74580 0.92607 0.30000
C 	C 	0.58723 0.61800 0.84971 0.01000
H 	H 	0.57730 0.55100 0.86730 0.04800
H 	H 	0.57370 0.65490 0.82050 0.04800
C 	C 	0.62668 0.66310 0.78835 0.03000
H 	H 	0.63500 0.72940 0.81270 0.03500
H 	H 	0.61240 0.69890 0.76010 0.04100
C 	C 	0.61279 0.56520 0.82289 0.00700
C 	C 	0.63647 0.52100 0.86780 0.02100
H 	H 	0.64270 0.59010 0.89250 0.04500
H 	H 	0.65310 0.49260 0.84950 0.04200
C 	C 	0.67679 0.83680 0.67204 0.16900
H 	H 	0.67500 0.92170 0.66460 -0.01500
C 	C 	0.66326 0.66270 0.72508 0.31800
C 	C 	0.69675 0.65370 0.65546 0.17000
H 	H 	0.70940 0.60610 0.63620 -0.02900
C 	C 	0.66083 0.78800 0.71318 -0.30400
H 	H 	0.64880 0.83870 0.73230 0.15100
C 	C 	0.68213 0.59340 0.69552 -0.28100
H 	H 	0.68480 0.50860 0.70250 0.14900
C 	C 	0.65653 0.21270 0.00885 0.17900
H 	H 	0.64970 0.14940 0.03080 -0.03800
C 	C 	0.64606 0.36670 0.93777 0.33400
C 	C 	0.63705 0.27310 0.97039 -0.32400
H 	H 	0.61760 0.24960 0.96670 0.15700
C 	C 	0.67467 0.39930 0.94502 -0.33000
H 	H 	0.68180 0.46360 0.92410 0.15400
C 	C 	0.69254 0.33400 0.98430 0.18400
H 	H 	0.71200 0.35740 0.98910 -0.05100
Co	Co	0.50854 0.16895 0.56911 1.13600
Co	Co	0.21490 0.34836 0.57469 1.14200
N 	N 	0.53733 0.80850 0.00475 -0.28300
N 	N 	0.68474 0.24060 0.01605 -0.29000
N 	N 	0.53426 0.27740 0.62791 -0.29500
N 	N 	0.69441 0.77170 0.64228 -0.26900
O 	O 	0.24815 0.20193 0.58169 -0.40700
O 	O 	0.25372 0.36954 0.63415 -0.38600
O 	O 	0.47763 0.12949 0.62293 -0.42400
O 	O 	0.48889 0.94845 0.66421 -0.29400
O 	O 	0.48100 0.31968 0.54303 -0.38900
O 	O 	0.47132 0.14124 0.49970 -0.39400
O 	O 	0.30818 0.99173 0.41864 -0.44900
O 	O 	0.29819 0.88090 0.49293 -0.30200
O 	O 	0.37618 0.49971 0.37326 -0.33200
O 	O 	0.36324 0.06020 0.73925 -0.33700
O 	O 	0.58142 0.50738 0.74222 -0.26600
O 	O 	0.62621 0.42176 0.90072 -0.26600
O 	O 	0.59613 0.71119 0.89189 -0.24900
O 	O 	0.64870 0.60070 0.76183 -0.26000
