data_crystal

_cell_length_a 12.61760
_cell_length_b 14.19800
_cell_length_c 14.89600
_cell_angle_alpha 69.22100
_cell_angle_beta  67.59800
_cell_angle_gamma 78.39500

_symmetry_space_group_name_	'P 1'
_symmetry_space_group_name_H-M	'P 1'

loop_
_symmetry_equiv_pos_as_xyz
  x,y,z

loop_
_atom_site_label
_atom_site_type_symbol
_atom_site_fract_x
_atom_site_fract_y
_atom_site_fract_z
_atom_site_charge
Gd	Gd	0.06449 0.51862 0.59596 1.57700
Gd	Gd	0.44884 0.94610 0.90664 1.58800
O 	O 	0.05540 0.49130 0.77700 -0.36200
O 	O 	0.69560 0.04690 0.93540 -0.44000
O 	O 	0.63050 0.01160 0.83200 -0.44400
O 	O 	0.96980 0.39550 0.55940 -0.49600
O 	O 	0.57040 0.82020 0.82380 -0.37200
O 	O 	0.80860 0.56250 0.51920 -0.44000
O 	O 	0.86350 0.58170 0.63760 -0.42400
O 	O 	0.49170 0.95110 0.73180 -0.39100
O 	O 	0.46310 0.14440 0.97470 -0.47000
N 	N 	0.23540 0.63880 0.48200 -0.18400
O 	O 	0.99370 0.34550 0.70900 -0.37600
O 	O 	0.21250 0.44010 0.67030 -0.37900
C 	C 	0.84060 0.18160 0.74960 0.10600
H 	H 	0.80880 0.21040 0.80220 0.00700
C 	C 	0.70080 0.04710 0.84880 0.45300
C 	C 	0.80000 0.09330 0.75860 -0.18700
N 	N 	0.05450 0.68500 0.63580 -0.19200
C 	C 	0.96570 0.32780 0.64490 0.38700
O 	O 	0.39960 0.12400 0.86450 -0.43700
C 	C 	0.92920 0.22690 0.66150 -0.17300
C 	C 	0.40230 0.17380 0.91800 0.43900
C 	C 	0.60640 0.82810 0.65230 -0.12500
N 	N 	0.25260 0.97500 0.87480 -0.18900
C 	C 	0.28250 0.31760 0.83780 0.07300
H 	H 	0.30480 0.29240 0.78300 0.02600
C 	C 	0.32630 0.27010 0.91700 -0.16600
C 	C 	0.98360 0.17990 0.58700 0.09600
H 	H 	0.04380 0.20920 0.52930 -0.00600
N 	N 	0.33130 0.79120 0.97970 -0.19600
C 	C 	0.14240 0.74660 0.58670 0.03700
C 	C 	0.23450 0.72400 0.50310 0.03700
C 	C 	0.85220 0.04850 0.68170 0.10600
H 	H 	0.82330 0.99150 0.68540 0.00000
C 	C 	0.15500 0.44780 0.75720 0.32900
C 	C 	0.68000 0.74260 0.65650 0.07500
H 	H 	0.70040 0.71060 0.71460 0.02300
C 	C 	0.94800 0.08840 0.59900 -0.16600
H 	H 	0.98800 0.05380 0.55190 0.08900
C 	C 	0.20600 0.40190 0.84040 -0.12000
C 	C 	0.80360 0.60730 0.57980 0.42600
C 	C 	0.55220 0.86900 0.74110 0.33000
C 	C 	0.29830 0.31030 0.99630 0.07200
H 	H 	0.33060 0.28030 0.04750 0.01700
C 	C 	0.18160 0.89750 0.92300 0.03500
C 	C 	0.72480 0.70270 0.57510 -0.15900
C 	C 	0.17460 0.44050 0.92180 0.04800
H 	H 	0.12180 0.49640 0.92460 0.02600
C 	C 	0.22230 0.80240 0.97850 0.03500
C 	C 	0.32180 0.79220 0.44520 0.01000
C 	C 	0.57750 0.87680 0.56450 0.05500
H 	H 	0.52760 0.93490 0.56100 0.02200
C 	C 	0.69410 0.75200 0.48910 0.07800
H 	H 	0.72250 0.72540 0.43480 0.01800
C 	C 	0.31890 0.62190 0.40290 0.07200
H 	H 	0.31800 0.56470 0.38660 0.01600
C 	C 	0.22250 0.39500 0.99910 -0.12800
H 	H 	0.20330 0.42180 0.05240 0.07900
C 	C 	0.96790 0.70490 0.71440 0.06700
H 	H 	0.90650 0.66420 0.74710 0.01000
C 	C 	0.14180 0.83240 0.61410 0.00300
C 	C 	0.06880 0.91250 0.91940 0.00300
C 	C 	0.14720 0.72300 0.03070 0.01000
C 	C 	0.36710 0.70090 0.03350 0.07300
H 	H 	0.44170 0.69160 0.03490 0.00600
C 	C 	0.31690 0.87910 0.47450 -0.05600
H 	H 	0.37370 0.92430 0.43580 0.06300
C 	C 	0.29700 0.62090 0.08720 -0.09700
H 	H 	0.32550 0.55990 0.12370 0.06800
C 	C 	0.41080 0.76960 0.36140 -0.02500
H 	H 	0.46930 0.81270 0.32070 0.05300
C 	C 	0.40960 0.68420 0.34100 -0.08900
H 	H 	0.46790 0.66710 0.28690 0.06800
C 	C 	0.23450 0.89720 0.55460 -0.05100
H 	H 	0.23630 0.95280 0.57290 0.05200
C 	C 	0.21410 0.06420 0.82240 0.07700
H 	H 	0.26270 0.11650 0.78850 0.01100
C 	C 	0.62300 0.83860 0.48190 -0.13800
H 	H 	0.60520 0.87180 0.42270 0.08500
C 	C 	0.19070 0.63010 0.08720 -0.01800
H 	H 	0.14450 0.57610 0.12400 0.05000
C 	C 	0.03530 0.74040 0.02430 -0.03500
H 	H 	0.98690 0.68790 0.05760 0.05700
C 	C 	0.96580 0.78440 0.74950 -0.08900
H 	H 	0.90680 0.79340 0.80740 0.06300
C 	C 	0.05110 0.84860 0.69810 -0.03300
H 	H 	0.04880 0.90350 0.71910 0.04500
C 	C 	0.03030 0.00890 0.86600 -0.02300
H 	H 	0.95540 0.02190 0.86490 0.05300
C 	C 	0.10510 0.08140 0.81660 -0.09800
H 	H 	0.08280 0.14420 0.77790 0.07700
C 	C 	0.99700 0.82920 0.97260 -0.06400
H 	H 	0.92280 0.83750 0.97080 0.05600
Gd	Gd	0.93551 0.48138 0.40404 1.57800
Gd	Gd	0.55116 0.05390 0.09336 1.58900
O 	O 	0.94460 0.50870 0.22300 -0.36200
O 	O 	0.30440 0.95310 0.06460 -0.44000
O 	O 	0.36950 0.98840 0.16800 -0.44400
O 	O 	0.03020 0.60450 0.44060 -0.49600
O 	O 	0.42960 0.17980 0.17620 -0.37200
O 	O 	0.19140 0.43750 0.48080 -0.44000
O 	O 	0.13650 0.41830 0.36240 -0.42400
O 	O 	0.50830 0.04890 0.26820 -0.39100
O 	O 	0.53690 0.85560 0.02530 -0.47000
N 	N 	0.76460 0.36120 0.51800 -0.18400
O 	O 	0.00630 0.65450 0.29100 -0.37600
O 	O 	0.78750 0.55990 0.32970 -0.37900
C 	C 	0.15940 0.81840 0.25040 0.10600
H 	H 	0.19120 0.78960 0.19780 0.00700
C 	C 	0.29920 0.95290 0.15120 0.45300
C 	C 	0.20000 0.90670 0.24140 -0.18700
N 	N 	0.94550 0.31500 0.36420 -0.19200
C 	C 	0.03430 0.67220 0.35510 0.38700
O 	O 	0.60040 0.87600 0.13550 -0.43700
C 	C 	0.07080 0.77310 0.33850 -0.17300
C 	C 	0.59770 0.82620 0.08200 0.43900
C 	C 	0.39360 0.17190 0.34770 -0.12500
N 	N 	0.74740 0.02500 0.12520 -0.18900
C 	C 	0.71750 0.68240 0.16220 0.07300
H 	H 	0.69520 0.70760 0.21700 0.02600
C 	C 	0.67370 0.72990 0.08300 -0.16600
C 	C 	0.01640 0.82010 0.41300 0.09600
H 	H 	0.95620 0.79080 0.47070 -0.00600
N 	N 	0.66870 0.20880 0.02030 -0.19600
C 	C 	0.85760 0.25340 0.41330 0.03700
C 	C 	0.76550 0.27600 0.49690 0.03700
C 	C 	0.14780 0.95150 0.31830 0.10600
H 	H 	0.17670 0.00850 0.31460 0.00000
C 	C 	0.84500 0.55220 0.24280 0.32900
C 	C 	0.32000 0.25740 0.34350 0.07500
H 	H 	0.29960 0.28940 0.28540 0.02300
C 	C 	0.05200 0.91160 0.40100 -0.16600
H 	H 	0.01200 0.94620 0.44810 0.08900
C 	C 	0.79400 0.59810 0.15960 -0.12000
C 	C 	0.19640 0.39270 0.42020 0.42600
C 	C 	0.44780 0.13100 0.25890 0.33000
C 	C 	0.70170 0.68970 0.00370 0.07200
H 	H 	0.66940 0.71970 0.95250 0.01700
C 	C 	0.81840 0.10250 0.07700 0.03500
C 	C 	0.27520 0.29730 0.42490 -0.15900
C 	C 	0.82540 0.55950 0.07820 0.04800
H 	H 	0.87820 0.50360 0.07540 0.02600
C 	C 	0.77770 0.19760 0.02150 0.03500
C 	C 	0.67820 0.20780 0.55480 0.01000
C 	C 	0.42250 0.12320 0.43550 0.05500
H 	H 	0.47240 0.06510 0.43900 0.02200
C 	C 	0.30590 0.24800 0.51090 0.07800
H 	H 	0.27750 0.27460 0.56520 0.01800
C 	C 	0.68110 0.37810 0.59710 0.07200
H 	H 	0.68200 0.43530 0.61340 0.01600
C 	C 	0.77750 0.60500 0.00090 -0.12800
H 	H 	0.79670 0.57820 0.94760 0.07900
C 	C 	0.03210 0.29510 0.28560 0.06700
H 	H 	0.09350 0.33580 0.25290 0.01000
C 	C 	0.85820 0.16760 0.38590 0.00300
C 	C 	0.93120 0.08750 0.08060 0.00300
C 	C 	0.85280 0.27700 0.96930 0.01000
C 	C 	0.63290 0.29910 0.96650 0.07300
H 	H 	0.55830 0.30840 0.96510 0.00600
C 	C 	0.68310 0.12090 0.52550 -0.05600
H 	H 	0.62630 0.07570 0.56420 0.06300
C 	C 	0.70300 0.37910 0.91280 -0.09700
H 	H 	0.67450 0.44010 0.87630 0.06800
C 	C 	0.58920 0.23040 0.63860 -0.02500
H 	H 	0.53070 0.18730 0.67930 0.05300
C 	C 	0.59040 0.31580 0.65900 -0.08900
H 	H 	0.53210 0.33290 0.71310 0.06800
C 	C 	0.76550 0.10280 0.44540 -0.05100
H 	H 	0.76370 0.04720 0.42710 0.05200
C 	C 	0.78590 0.93580 0.17760 0.07700
H 	H 	0.73730 0.88350 0.21150 0.01100
C 	C 	0.37700 0.16140 0.51810 -0.13800
H 	H 	0.39480 0.12820 0.57730 0.08500
C 	C 	0.80930 0.36990 0.91280 -0.01800
H 	H 	0.85550 0.42390 0.87600 0.05000
C 	C 	0.96470 0.25960 0.97570 -0.03500
H 	H 	0.01310 0.31210 0.94240 0.05700
C 	C 	0.03420 0.21560 0.25050 -0.08900
H 	H 	0.09320 0.20660 0.19260 0.06300
C 	C 	0.94890 0.15140 0.30190 -0.03300
H 	H 	0.95120 0.09650 0.28090 0.04500
C 	C 	0.96970 0.99110 0.13400 -0.02300
H 	H 	0.04460 0.97810 0.13510 0.05300
C 	C 	0.89490 0.91860 0.18340 -0.09800
H 	H 	0.91720 0.85580 0.22210 0.07700
C 	C 	0.00300 0.17080 0.02740 -0.06400
H 	H 	0.07720 0.16250 0.02920 0.05600
