data_crystal

_cell_length_a 9.28230
_cell_length_b 14.57500
_cell_length_c 19.37100
_cell_angle_alpha 90.00000
_cell_angle_beta  98.05000
_cell_angle_gamma 90.00000

_symmetry_space_group_name_	'P 1'
_symmetry_space_group_name_H-M	'P 1'

loop_
_symmetry_equiv_pos_as_xyz
  x,y,z

loop_
_atom_site_label
_atom_site_type_symbol
_atom_site_fract_x
_atom_site_fract_y
_atom_site_fract_z
_atom_site_charge
W 	W 	0.22714 0.31095 0.34990 0.34900
Cu	Cu	0.11694 0.14224 0.31144 0.82200
Cu	Cu	0.20178 0.36407 0.21391 0.82700
Cu	Cu	0.24557 0.26692 0.48306 0.81400
S 	S 	0.03373 0.28398 0.27103 -0.49700
S 	S 	0.30570 0.17558 0.39802 -0.52200
S 	S 	0.39869 0.37476 0.30001 -0.32000
S 	S 	0.16465 0.39880 0.43416 -0.33800
N 	N 	0.24120 0.08810 0.23260 -0.23200
N 	N 	0.25000 0.30390 0.12980 -0.20200
N 	N 	0.90340 0.98320 0.31290 -0.19500
N 	N 	0.39780 0.94220 0.01950 -0.09300
N 	N 	0.54130 0.07760 0.03720 -0.10600
C 	C 	0.97860 0.04530 0.31810 -0.19700
C 	C 	0.25610 0.27320 0.07580 -0.21300
C 	C 	0.17600 0.03340 0.18260 0.07600
H 	H 	0.08450 0.01060 0.18760 -0.01800
C 	C 	0.23520 0.00830 0.12410 -0.15100
H 	H 	0.18480 0.97070 0.09020 0.08800
C 	C 	0.37230 0.04100 0.11770 0.06500
C 	C 	0.44260 0.09620 0.16920 -0.14900
H 	H 	0.53580 0.11800 0.16650 0.07800
C 	C 	0.37260 0.11830 0.22460 0.06900
H 	H 	0.42000 0.15680 0.25880 -0.02100
C 	C 	0.44220 0.01950 0.05450 0.06600
W 	W 	0.77286 0.81095 0.15010 0.35100
Cu	Cu	0.88306 0.64224 0.18856 0.82300
Cu	Cu	0.79822 0.86407 0.28609 0.82800
Cu	Cu	0.75443 0.76692 0.01694 0.81500
S 	S 	0.96627 0.78398 0.22897 -0.49800
S 	S 	0.69430 0.67558 0.10198 -0.52200
S 	S 	0.60131 0.87476 0.19999 -0.32000
S 	S 	0.83535 0.89880 0.06584 -0.34100
N 	N 	0.75880 0.58810 0.26740 -0.23200
N 	N 	0.75000 0.80390 0.37020 -0.20200
N 	N 	0.09660 0.48320 0.18710 -0.19300
N 	N 	0.60220 0.44220 0.48050 -0.09300
N 	N 	0.45870 0.57760 0.46280 -0.10700
C 	C 	0.02140 0.54530 0.18190 -0.19900
C 	C 	0.74390 0.77320 0.42420 -0.21400
C 	C 	0.82400 0.53340 0.31740 0.07600
H 	H 	0.91550 0.51060 0.31240 -0.01800
C 	C 	0.76480 0.50830 0.37590 -0.15100
H 	H 	0.81520 0.47070 0.40980 0.08800
C 	C 	0.62770 0.54100 0.38230 0.06500
C 	C 	0.55740 0.59620 0.33080 -0.14900
H 	H 	0.46420 0.61800 0.33350 0.07800
C 	C 	0.62740 0.61830 0.27540 0.06900
H 	H 	0.58000 0.65680 0.24120 -0.02100
C 	C 	0.55780 0.51950 0.44550 0.06500
W 	W 	0.77286 0.68905 0.65010 0.35000
Cu	Cu	0.88306 0.85776 0.68856 0.82300
Cu	Cu	0.79822 0.63593 0.78609 0.82800
Cu	Cu	0.75443 0.73308 0.51694 0.81500
S 	S 	0.96627 0.71602 0.72897 -0.49700
S 	S 	0.69430 0.82442 0.60198 -0.52200
S 	S 	0.60131 0.62524 0.69999 -0.32000
S 	S 	0.83535 0.60120 0.56584 -0.33800
N 	N 	0.75880 0.91190 0.76740 -0.23200
N 	N 	0.75000 0.69610 0.87020 -0.20200
N 	N 	0.09660 0.01680 0.68710 -0.19500
N 	N 	0.60220 0.05780 0.98050 -0.09300
N 	N 	0.45870 0.92240 0.96280 -0.10600
C 	C 	0.02140 0.95470 0.68190 -0.19700
C 	C 	0.74390 0.72680 0.92420 -0.21300
C 	C 	0.82400 0.96660 0.81740 0.07600
H 	H 	0.91550 0.98940 0.81240 -0.01800
C 	C 	0.76480 0.99170 0.87590 -0.15100
H 	H 	0.81520 0.02930 0.90980 0.08800
C 	C 	0.62770 0.95900 0.88230 0.06500
C 	C 	0.55740 0.90380 0.83080 -0.14900
H 	H 	0.46420 0.88200 0.83350 0.07800
C 	C 	0.62740 0.88170 0.77540 0.06900
H 	H 	0.58000 0.84320 0.74120 -0.02100
C 	C 	0.55780 0.98050 0.94550 0.06600
W 	W 	0.22714 0.18905 0.84990 0.35100
Cu	Cu	0.11694 0.35776 0.81144 0.82300
Cu	Cu	0.20178 0.13593 0.71391 0.82800
Cu	Cu	0.24557 0.23308 0.98306 0.81500
S 	S 	0.03373 0.21602 0.77103 -0.49800
S 	S 	0.30570 0.32442 0.89802 -0.52200
S 	S 	0.39869 0.12524 0.80001 -0.32000
S 	S 	0.16465 0.10120 0.93416 -0.34100
N 	N 	0.24120 0.41190 0.73260 -0.23200
N 	N 	0.25000 0.19610 0.62980 -0.20200
N 	N 	0.90340 0.51680 0.81290 -0.19300
N 	N 	0.39780 0.55780 0.51950 -0.09300
N 	N 	0.54130 0.42240 0.53720 -0.10700
C 	C 	0.97860 0.45470 0.81810 -0.19900
C 	C 	0.25610 0.22680 0.57580 -0.21400
C 	C 	0.17600 0.46660 0.68260 0.07600
H 	H 	0.08450 0.48940 0.68760 -0.01800
C 	C 	0.23520 0.49170 0.62410 -0.15100
H 	H 	0.18480 0.52930 0.59020 0.08800
C 	C 	0.37230 0.45900 0.61770 0.06500
C 	C 	0.44260 0.40380 0.66920 -0.14900
H 	H 	0.53580 0.38200 0.66650 0.07800
C 	C 	0.37260 0.38170 0.72460 0.06900
H 	H 	0.42000 0.34320 0.75880 -0.02100
C 	C 	0.44220 0.48050 0.55450 0.06500
