data_crystal

_cell_length_a 29.55500
_cell_length_b 28.85600
_cell_length_c 17.71900
_cell_angle_alpha 90.00000
_cell_angle_beta  90.00000
_cell_angle_gamma 90.00000

_symmetry_space_group_name_	'P 1'
_symmetry_space_group_name_H-M	'P 1'

loop_
_symmetry_equiv_pos_as_xyz
  x,y,z

loop_
_atom_site_label
_atom_site_type_symbol
_atom_site_fract_x
_atom_site_fract_y
_atom_site_fract_z
_atom_site_charge
Zn	Zn	0.83755 0.75680 0.95392 1.22500
O 	O 	0.82912 0.75689 0.83680 -0.81600
C 	C 	0.89490 0.67190 0.91220 0.32500
Zn	Zn	0.81599 0.82151 0.81071 1.19600
O 	O 	0.83840 0.75030 0.07400 0.46100
C 	C 	0.91130 0.62940 0.95350 -1.46100
Zn	Zn	0.87561 0.72392 0.77922 0.88300
N 	N 	0.96100 0.74430 0.30900 -85.45200
C 	C 	0.91840 0.58780 0.91380 0.38300
H 	H 	0.91370 0.58670 0.86080 -0.75300
C 	C 	0.93210 0.54840 0.95210 -1.86700
Zn	Zn	0.93798 0.43988 0.79534 0.10100
C 	C 	0.94010 0.50370 0.91100 0.37400
Zn	Zn	0.96421 0.86499 0.28738 2.52600
C 	C 	0.93820 0.55030 0.02930 0.51200
H 	H 	0.94810 0.52330 0.05510 -1.49400
Zn	Zn	0.94304 0.92624 0.31588 -0.20900
C 	C 	0.93030 0.59090 0.07090 -1.99900
C 	C 	0.93380 0.59200 0.15480 0.53000
C 	C 	0.91720 0.63050 0.03080 0.36400
H 	H 	0.91210 0.65870 0.05740 -0.73500
O 	O 	0.88884 0.70699 0.95000 -1.30500
C 	C 	0.87930 0.85170 0.92210 0.49500
O 	O 	0.88780 0.66803 0.84150 -1.22400
C 	C 	0.90140 0.88920 0.96500 -1.60800
O 	O 	0.93238 0.50228 0.84070 -2.08900
C 	C 	0.91340 0.88100 0.03980 0.88100
H 	H 	0.90910 0.85120 0.06140 -1.31600
O 	O 	0.95181 0.46939 0.95000 -3.34100
C 	C 	0.93200 0.91730 0.08310 -2.77200
O 	O 	0.93150 0.55281 0.18710 -2.10100
C 	C 	0.94290 0.90920 0.16520 1.69000
O 	O 	0.93880 0.62869 0.18750 -3.05800
C 	C 	0.93840 0.96080 0.05060 0.96300
H 	H 	0.95040 0.98550 0.07990 -1.68000
O 	O 	0.88268 0.81115 0.94690 -1.38400
C 	C 	0.92740 0.96810 0.97610 -1.98400
O 	O 	0.85645 0.86374 0.86370 -0.87000
C 	C 	0.93870 0.01390 0.93870 0.57800
O 	O 	0.94590 0.87058 0.19140 -3.94600
C 	C 	0.90930 0.93310 0.93260 0.64100
H 	H 	0.90220 0.93850 0.88110 -0.71500
O 	O 	0.93230 0.94430 0.21130 0.73300
C 	C 	0.75110 0.70370 0.92890 0.35000
O 	O 	0.95240 0.04599 0.98150 -3.48000
C 	C 	0.70870 0.68810 0.96760 -0.08300
O 	O 	0.93460 0.01674 0.86930 -2.47100
C 	C 	0.67070 0.67550 0.92670 0.05000
H 	H 	0.67180 0.67590 0.87310 0.06800
O 	O 	0.78588 0.70871 0.96930 -0.35700
C 	C 	0.63050 0.66200 0.96320 -0.04600
O 	O 	0.74949 0.71170 0.86020 -0.24000
C 	C 	0.59050 0.64590 0.91930 0.40800
O 	O 	0.90750 0.85520 0.35030 -10.83600
C 	C 	0.62810 0.66350 0.04120 0.05400
H 	H 	0.60050 0.65690 0.06630 0.04900
O 	O 	0.94702 0.85265 0.45150 -7.57200
C 	C 	0.66720 0.67500 0.08310 -0.10300
O 	O 	0.62700 0.68580 0.19920 -0.38200
C 	C 	0.66310 0.67570 0.16770 0.35900
O 	O 	0.80103 0.83194 0.70500 -0.63300
C 	C 	0.70680 0.68700 0.04740 0.06200
H 	H 	0.73290 0.69450 0.07630 0.04200
O 	O 	0.78457 0.80793 0.96850 -0.40300
C 	C 	0.75240 0.82280 0.92730 0.39600
O 	O 	0.75588 0.83272 0.85900 -0.46000
C 	C 	0.70730 0.82890 0.96280 -0.13600
O 	O 	0.89808 0.39873 0.85430 -1.49200
C 	C 	0.67250 0.84940 0.92260 0.08300
H 	H 	0.67780 0.86060 0.87290 0.03800
O 	O 	0.05246 0.36942 0.93780 0.49300
C 	C 	0.62950 0.85370 0.95490 -0.14200
O 	O 	0.88970 0.69610 0.67580 -1.93900
C 	C 	0.90880 0.37570 0.91200 1.82900
O 	O 	0.81910 0.71230 0.68720 -0.55800
C 	C 	0.62190 0.83790 0.02860 0.08400
H 	H 	0.59250 0.84050 0.05010 0.04200
C 	C 	0.65660 0.81860 0.07030 -0.12200
C 	C 	0.70010 0.81330 0.03590 0.08500
H 	H 	0.72410 0.79910 0.06310 0.02600
C 	C 	0.85190 0.69700 0.64900 0.77200
C 	C 	0.97620 0.78910 0.29590 347.66900
C 	C 	0.91700 0.72940 0.30930 68.83600
N 	N 	0.82100 0.69720 0.16880 0.47400
C 	C 	0.83740 0.70930 0.09700 -0.36600
C 	C 	0.80210 0.72530 0.21750 1.96800
H 	H 	0.79380 0.70790 0.26300 -2.00500
H 	H 	0.77490 0.73900 0.19510 -0.74400
H 	H 	0.82350 0.74990 0.23090 -0.08600
C 	C 	0.81710 0.64750 0.18870 -5.04600
H 	H 	0.83210 0.62870 0.15000 1.67900
H 	H 	0.78500 0.63890 0.19150 1.43600
H 	H 	0.83150 0.64200 0.23770 1.18300
O 	O 	0.89910 0.88130 0.35740 3.97600
H 	H 	0.10330 0.75620 0.30930 -26.69200
H 	H 	0.08870 0.71050 0.26430 -14.09400
H 	H 	0.08850 0.71070 0.35460 -22.12700
N 	N 	0.84790 0.73200 0.18380 -3.55200
O 	O 	0.85120 0.76530 0.06750 -1.46400
O 	O 	0.95800 0.94180 0.19960 -4.15400
C 	C 	0.83150 0.74380 0.11690 0.81900
C 	C 	0.89430 0.74660 0.20340 30.40000
H 	H 	0.90250 0.73410 0.25300 -18.95100
H 	H 	0.89580 0.78050 0.20490 -15.02700
H 	H 	0.91550 0.73490 0.16540 -12.88200
C 	C 	0.82520 0.70440 0.24020 -2.67700
H 	H 	0.84550 0.69920 0.28300 1.51400
H 	H 	0.81650 0.67450 0.21820 2.27200
H 	H 	0.79800 0.72070 0.25750 1.91100
Zn	Zn	0.33755 0.25680 0.95392 1.24000
O 	O 	0.32912 0.25689 0.83680 -0.67500
C 	C 	0.39490 0.17190 0.91220 0.38400
Zn	Zn	0.31599 0.32151 0.81071 1.22400
O 	O 	0.33840 0.25030 0.07400 0.81000
C 	C 	0.41130 0.12940 0.95350 -0.12400
Zn	Zn	0.37561 0.22392 0.77922 1.19900
N 	N 	0.46100 0.24430 0.30900 3.47100
C 	C 	0.41840 0.08780 0.91380 0.05700
H 	H 	0.41370 0.08670 0.86080 0.03200
C 	C 	0.43210 0.04840 0.95210 -0.13300
Zn	Zn	0.43798 0.93988 0.79534 1.22800
C 	C 	0.44010 0.00370 0.91100 0.37400
Zn	Zn	0.46421 0.36499 0.28738 0.96100
C 	C 	0.43820 0.05030 0.02930 0.04700
H 	H 	0.44810 0.02330 0.05510 0.03200
Zn	Zn	0.44304 0.42624 0.31588 1.16900
C 	C 	0.43030 0.09090 0.07090 -0.10800
C 	C 	0.43380 0.09200 0.15480 0.34900
C 	C 	0.41720 0.13050 0.03080 0.04900
H 	H 	0.41210 0.15870 0.05740 0.05100
O 	O 	0.38884 0.20699 0.95000 -0.44800
C 	C 	0.37930 0.35170 0.92210 0.37500
O 	O 	0.38780 0.16803 0.84150 -0.48100
C 	C 	0.40140 0.38920 0.96500 -0.11800
O 	O 	0.43238 0.00228 0.84070 -0.47900
C 	C 	0.41340 0.38100 0.03980 0.04300
H 	H 	0.40910 0.35120 0.06140 0.08700
O 	O 	0.45181 0.96939 0.95000 -0.47900
C 	C 	0.43200 0.41730 0.08310 -0.12400
O 	O 	0.43150 0.05281 0.18710 -0.46300
C 	C 	0.44290 0.40920 0.16520 0.43800
O 	O 	0.43880 0.12869 0.18750 -0.29700
C 	C 	0.43840 0.46080 0.05060 0.06100
H 	H 	0.45040 0.48550 0.07990 0.03800
O 	O 	0.38268 0.31115 0.94690 -0.42700
C 	C 	0.42740 0.46810 0.97610 -0.13700
O 	O 	0.35645 0.36374 0.86370 -0.48600
C 	C 	0.43870 0.51390 0.93870 0.40300
O 	O 	0.44590 0.37058 0.19140 -0.56600
C 	C 	0.40930 0.43310 0.93260 0.06300
H 	H 	0.40220 0.43850 0.88110 0.03200
O 	O 	0.43230 0.44430 0.21130 -0.27000
C 	C 	0.25110 0.20370 0.92890 0.44000
O 	O 	0.45240 0.54599 0.98150 -0.46200
C 	C 	0.20870 0.18810 0.96760 -0.38100
O 	O 	0.43460 0.51674 0.86930 -0.49300
C 	C 	0.17070 0.17550 0.92670 0.48400
H 	H 	0.17180 0.17590 0.87310 -0.52700
O 	O 	0.28588 0.20871 0.96930 -0.45400
C 	C 	0.13050 0.16200 0.96320 -1.83300
O 	O 	0.24949 0.21170 0.86020 -0.35400
C 	C 	0.09050 0.14590 0.91930 0.62900
O 	O 	0.40750 0.35520 0.35030 0.06400
C 	C 	0.12810 0.16350 0.04120 0.41000
H 	H 	0.10050 0.15690 0.06630 0.18600
O 	O 	0.44702 0.35265 0.45150 -0.35900
C 	C 	0.16720 0.17500 0.08310 -0.20900
O 	O 	0.12700 0.18580 0.19920 0.23700
C 	C 	0.16310 0.17570 0.16770 0.28000
O 	O 	0.30103 0.33194 0.70500 -0.50000
C 	C 	0.20680 0.18700 0.04740 0.15600
H 	H 	0.23290 0.19450 0.07630 -0.00600
O 	O 	0.28457 0.30793 0.96850 -0.41600
C 	C 	0.25240 0.32280 0.92730 0.31800
O 	O 	0.25588 0.33272 0.85900 -0.43000
C 	C 	0.20730 0.32890 0.96280 0.03500
O 	O 	0.39808 0.89873 0.85430 -0.47300
C 	C 	0.17250 0.34940 0.92260 -0.04900
H 	H 	0.17780 0.36060 0.87290 0.09100
O 	O 	0.55246 0.86942 0.93780 -0.43200
C 	C 	0.12950 0.35370 0.95490 0.62500
O 	O 	0.38970 0.19610 0.67580 -0.44300
C 	C 	0.40880 0.87570 0.91200 0.37000
O 	O 	0.31910 0.21230 0.68720 -0.37900
C 	C 	0.12190 0.33790 0.02860 -0.49300
H 	H 	0.09250 0.34050 0.05010 0.67500
C 	C 	0.15660 0.31860 0.07030 0.29800
C 	C 	0.20010 0.31330 0.03590 -0.22900
H 	H 	0.22410 0.29910 0.06310 0.11500
C 	C 	0.35190 0.19700 0.64900 0.35200
C 	C 	0.47620 0.28910 0.29590 -15.13100
C 	C 	0.41700 0.22940 0.30930 -3.28500
N 	N 	0.32100 0.19720 0.16880 -0.14700
C 	C 	0.33740 0.20930 0.09700 -0.12400
C 	C 	0.30210 0.22530 0.21750 -1.14900
H 	H 	0.29380 0.20790 0.26300 1.04300
H 	H 	0.27490 0.23900 0.19510 0.46400
H 	H 	0.32350 0.24990 0.23090 0.30100
C 	C 	0.31710 0.14750 0.18870 1.49700
H 	H 	0.33210 0.12870 0.15000 -0.43900
H 	H 	0.28500 0.13890 0.19150 -0.36900
H 	H 	0.33150 0.14200 0.23770 -0.27100
O 	O 	0.39910 0.38130 0.35740 -0.50500
H 	H 	0.60330 0.25620 0.30930 1.24500
H 	H 	0.58870 0.21050 0.26430 0.68500
H 	H 	0.58850 0.21070 0.35460 1.11600
N 	N 	0.34790 0.23200 0.18380 -0.02500
O 	O 	0.35120 0.26530 0.06750 -0.96800
O 	O 	0.45800 0.44180 0.19960 -0.30900
C 	C 	0.33150 0.24380 0.11690 -0.09300
C 	C 	0.39430 0.24660 0.20340 -1.68100
H 	H 	0.40250 0.23410 0.25300 1.00100
H 	H 	0.39580 0.28050 0.20490 0.79200
H 	H 	0.41550 0.23490 0.16540 0.69600
C 	C 	0.32520 0.20440 0.24020 1.90800
H 	H 	0.34550 0.19920 0.28300 -0.60600
H 	H 	0.31650 0.17450 0.21820 -0.99200
H 	H 	0.29800 0.22070 0.25750 -1.11200
Zn	Zn	0.16245 0.24320 0.45392 1.25100
O 	O 	0.17088 0.24311 0.33680 -0.56800
C 	C 	0.10510 0.32810 0.41220 0.50700
Zn	Zn	0.18401 0.17849 0.31071 1.25000
O 	O 	0.16160 0.24970 0.57400 1.45000
C 	C 	0.08870 0.37060 0.45350 0.80100
Zn	Zn	0.12439 0.27608 0.27922 1.42500
N 	N 	0.03900 0.25570 0.80900 -84.13200
C 	C 	0.08160 0.41220 0.41380 0.01000
H 	H 	0.08630 0.41330 0.36080 0.65900
C 	C 	0.06790 0.45160 0.45210 1.18600
Zn	Zn	0.06202 0.56012 0.29534 1.38800
C 	C 	0.05990 0.49630 0.41100 0.67400
Zn	Zn	0.03579 0.13501 0.78738 4.55200
C 	C 	0.06180 0.44970 0.52930 0.04600
H 	H 	0.05190 0.47670 0.55510 1.29900
Zn	Zn	0.05696 0.07376 0.81588 1.10000
C 	C 	0.06970 0.40910 0.57090 1.07700
C 	C 	0.06620 0.40800 0.65480 0.56300
C 	C 	0.08280 0.36950 0.53080 -0.06300
H 	H 	0.08790 0.34130 0.55740 0.43600
O 	O 	0.11116 0.29301 0.45000 0.00700
C 	C 	0.12070 0.14830 0.42210 0.48400
O 	O 	0.11220 0.33197 0.34150 0.11800
C 	C 	0.09860 0.11080 0.46500 0.53800
O 	O 	0.06762 0.49772 0.34070 0.51000
C 	C 	0.08660 0.11900 0.53980 0.12400
H 	H 	0.09090 0.14880 0.56140 -0.04300
O 	O 	0.04819 0.53061 0.45000 0.99900
C 	C 	0.06800 0.08270 0.58310 0.94200
O 	O 	0.06850 0.44719 0.68710 0.48900
C 	C 	0.05710 0.09080 0.66520 0.65100
O 	O 	0.06120 0.37131 0.68750 0.34300
C 	C 	0.06160 0.03920 0.55060 0.15800
H 	H 	0.04960 0.01450 0.57990 1.34300
O 	O 	0.11732 0.18885 0.44690 0.02200
C 	C 	0.07260 0.03190 0.47610 0.97000
O 	O 	0.14355 0.13626 0.36370 -0.23000
C 	C 	0.06130 0.98610 0.43870 0.53700
O 	O 	0.05410 0.12942 0.69140 -0.51700
C 	C 	0.09070 0.06690 0.43260 0.06000
H 	H 	0.09780 0.06150 0.38110 0.49600
O 	O 	0.06770 0.05570 0.71130 -2.46800
C 	C 	0.24890 0.29630 0.42890 0.35500
O 	O 	0.04760 0.95401 0.48150 1.08200
C 	C 	0.29130 0.31190 0.46760 -0.13500
O 	O 	0.06540 0.98326 0.36930 0.37900
C 	C 	0.32930 0.32450 0.42670 0.05400
H 	H 	0.32820 0.32410 0.37310 0.04900
O 	O 	0.21412 0.29129 0.46930 -0.47600
C 	C 	0.36950 0.33800 0.46320 -0.07500
O 	O 	0.25051 0.28830 0.36020 -0.28900
C 	C 	0.40950 0.35410 0.41930 0.40500
O 	O 	0.09250 0.14480 0.85030 -10.24100
C 	C 	0.37190 0.33650 0.54120 0.05000
H 	H 	0.39950 0.34310 0.56630 0.04200
O 	O 	0.05298 0.14735 0.95150 -2.71800
C 	C 	0.33280 0.32500 0.58310 -0.12900
O 	O 	0.37300 0.31420 0.69920 -0.39500
C 	C 	0.33690 0.32430 0.66770 0.35200
O 	O 	0.19897 0.16806 0.20500 -0.38200
C 	C 	0.29320 0.31300 0.54740 0.05300
H 	H 	0.26710 0.30550 0.57630 0.01800
O 	O 	0.21543 0.19207 0.46850 -0.48400
C 	C 	0.24760 0.17720 0.42730 0.38100
O 	O 	0.24412 0.16728 0.35900 -0.49200
C 	C 	0.29270 0.17110 0.46280 -0.17100
O 	O 	0.10192 0.60127 0.35430 -0.43100
C 	C 	0.32750 0.15060 0.42260 0.07700
H 	H 	0.32220 0.13940 0.37290 0.02500
O 	O 	0.94754 0.63058 0.43780 -4.67000
C 	C 	0.37050 0.14630 0.45490 -0.16500
O 	O 	0.11030 0.30390 0.17580 0.40500
C 	C 	0.09120 0.62430 0.41200 0.61000
O 	O 	0.18090 0.28770 0.18720 -0.25200
C 	C 	0.37810 0.16210 0.52860 0.07700
H 	H 	0.40750 0.15950 0.55010 0.03700
C 	C 	0.34340 0.18140 0.57030 -0.14200
C 	C 	0.29990 0.18670 0.53590 0.06800
H 	H 	0.27590 0.20090 0.56310 0.01000
C 	C 	0.14810 0.30300 0.14900 0.01000
C 	C 	0.02380 0.21090 0.79590 363.63400
C 	C 	0.08300 0.27060 0.80930 69.44600
N 	N 	0.17900 0.30280 0.66880 0.44400
C 	C 	0.16260 0.29070 0.59700 -0.18000
C 	C 	0.19790 0.27470 0.71750 1.97900
H 	H 	0.20620 0.29210 0.76300 -2.05800
H 	H 	0.22510 0.26100 0.69510 -0.74300
H 	H 	0.17650 0.25010 0.73090 -0.12400
C 	C 	0.18290 0.35250 0.68870 -4.63400
H 	H 	0.16790 0.37130 0.65000 1.43200
H 	H 	0.21500 0.36110 0.69150 1.28300
H 	H 	0.16850 0.35800 0.73770 1.06900
O 	O 	0.10090 0.11870 0.85740 4.22400
H 	H 	0.89670 0.24380 0.80930 -26.33500
H 	H 	0.91130 0.28950 0.76430 -14.68600
H 	H 	0.91150 0.28930 0.85460 -22.93900
N 	N 	0.15210 0.26800 0.68380 -3.27800
O 	O 	0.14880 0.23470 0.56750 -1.75200
O 	O 	0.04200 0.05820 0.69960 3.82900
C 	C 	0.16850 0.25620 0.61690 -0.02100
C 	C 	0.10570 0.25340 0.70340 29.74600
H 	H 	0.09750 0.26590 0.75300 -18.98300
H 	H 	0.10420 0.21950 0.70490 -14.59600
H 	H 	0.08450 0.26510 0.66540 -11.20400
C 	C 	0.17480 0.29560 0.74020 -2.63800
H 	H 	0.15450 0.30080 0.78300 1.53500
H 	H 	0.18350 0.32550 0.71820 2.14500
H 	H 	0.20200 0.27930 0.75750 1.95400
Zn	Zn	0.66245 0.74320 0.45392 1.24800
O 	O 	0.67088 0.74311 0.33680 -0.65800
C 	C 	0.60510 0.82810 0.41220 0.39200
Zn	Zn	0.68401 0.67849 0.31071 1.23200
O 	O 	0.66160 0.74970 0.57400 0.86300
C 	C 	0.58870 0.87060 0.45350 -0.12100
Zn	Zn	0.62439 0.77608 0.27922 1.20400
N 	N 	0.53900 0.75570 0.80900 3.47400
C 	C 	0.58160 0.91220 0.41380 0.07000
H 	H 	0.58630 0.91330 0.36080 0.04100
C 	C 	0.56790 0.95160 0.45210 -0.13000
Zn	Zn	0.56202 0.06012 0.29534 1.23200
C 	C 	0.55990 0.99630 0.41100 0.38300
Zn	Zn	0.53579 0.63501 0.78738 0.96200
C 	C 	0.56180 0.94970 0.52930 0.06900
H 	H 	0.55190 0.97670 0.55510 0.03600
Zn	Zn	0.55696 0.57376 0.81588 1.17300
C 	C 	0.56970 0.90910 0.57090 -0.10700
C 	C 	0.56620 0.90800 0.65480 0.35400
C 	C 	0.58280 0.86950 0.53080 0.07200
H 	H 	0.58790 0.84130 0.55740 0.05200
O 	O 	0.61116 0.79301 0.45000 -0.43700
C 	C 	0.62070 0.64830 0.42210 0.38200
O 	O 	0.61220 0.83197 0.34150 -0.46400
C 	C 	0.59860 0.61080 0.46500 -0.11100
O 	O 	0.56762 0.99772 0.34070 -0.46300
C 	C 	0.58660 0.61900 0.53980 0.06600
H 	H 	0.59090 0.64880 0.56140 0.09300
O 	O 	0.54819 0.03061 0.45000 -0.47000
C 	C 	0.56800 0.58270 0.58310 -0.12100
O 	O 	0.56850 0.94719 0.68710 -0.44800
C 	C 	0.55710 0.59080 0.66520 0.44600
O 	O 	0.56120 0.87131 0.68750 -0.29200
C 	C 	0.56160 0.53920 0.55060 0.08100
H 	H 	0.54960 0.51450 0.57990 0.04100
O 	O 	0.61732 0.68885 0.44690 -0.41400
C 	C 	0.57260 0.53190 0.47610 -0.13000
O 	O 	0.64355 0.63626 0.36370 -0.46200
C 	C 	0.56130 0.48610 0.43870 0.41100
O 	O 	0.55410 0.62942 0.69140 -0.55900
C 	C 	0.59070 0.56690 0.43260 0.07400
H 	H 	0.59780 0.56150 0.38110 0.04400
O 	O 	0.56770 0.55570 0.71130 -0.24400
C 	C 	0.74890 0.79630 0.42890 0.64500
O 	O 	0.54760 0.45401 0.48150 -0.45300
C 	C 	0.79130 0.81190 0.46760 -0.93700
O 	O 	0.56540 0.48326 0.36930 -0.48000
C 	C 	0.82930 0.82450 0.42670 1.25900
H 	H 	0.82820 0.82410 0.37310 -0.76800
O 	O 	0.71412 0.79129 0.46930 -0.48100
C 	C 	0.86950 0.83800 0.46320 -3.28700
O 	O 	0.75051 0.78830 0.36020 -0.38700
C 	C 	0.90950 0.85410 0.41930 2.01000
O 	O 	0.59250 0.64480 0.85030 0.06200
C 	C 	0.87190 0.83650 0.54120 1.45500
H 	H 	0.89950 0.84310 0.56630 -1.58600
O 	O 	0.55298 0.64735 0.95150 -0.35200
C 	C 	0.83280 0.82500 0.58310 -1.30300
O 	O 	0.87300 0.81420 0.69920 -1.60400
C 	C 	0.83690 0.82430 0.66770 0.83300
O 	O 	0.69897 0.66806 0.20500 -0.47400
C 	C 	0.79320 0.81300 0.54740 0.85400
H 	H 	0.76710 0.80550 0.57630 -0.22300
O 	O 	0.71543 0.69207 0.46850 -0.44900
C 	C 	0.74760 0.67720 0.42730 0.55200
O 	O 	0.74412 0.66728 0.35900 -0.46900
C 	C 	0.79270 0.67110 0.46280 -0.59600
O 	O 	0.60192 0.10127 0.35430 -0.45900
C 	C 	0.82750 0.65060 0.42260 0.82300
H 	H 	0.82220 0.63940 0.37290 -0.18700
O 	O 	0.44754 0.13058 0.43780 -0.43900
C 	C 	0.87050 0.64630 0.45490 -0.86800
O 	O 	0.61030 0.80390 0.17580 -0.43100
C 	C 	0.59120 0.12430 0.41200 0.38000
O 	O 	0.68090 0.78770 0.18720 -0.35500
C 	C 	0.87810 0.66210 0.52860 0.67300
H 	H 	0.90750 0.65950 0.55010 -1.35200
C 	C 	0.84340 0.68140 0.57030 -1.03400
C 	C 	0.79990 0.68670 0.53590 0.53900
H 	H 	0.77590 0.70090 0.56310 -0.13400
C 	C 	0.64810 0.80300 0.14900 0.35800
C 	C 	0.52380 0.71090 0.79590 -15.12800
C 	C 	0.58300 0.77060 0.80930 -3.28900
N 	N 	0.67900 0.80280 0.66880 -0.13500
C 	C 	0.66260 0.79070 0.59700 -0.09500
C 	C 	0.69790 0.77470 0.71750 -1.17400
H 	H 	0.70620 0.79210 0.76300 1.06800
H 	H 	0.72510 0.76100 0.69510 0.50200
H 	H 	0.67650 0.75010 0.73090 0.32000
C 	C 	0.68290 0.85250 0.68870 1.48000
H 	H 	0.66790 0.87130 0.65000 -0.41700
H 	H 	0.71500 0.86110 0.69150 -0.35400
H 	H 	0.66850 0.85800 0.73770 -0.25900
O 	O 	0.60090 0.61870 0.85740 -0.48200
H 	H 	0.39670 0.74380 0.80930 1.23800
H 	H 	0.41130 0.78950 0.76430 0.68100
H 	H 	0.41150 0.78930 0.85460 1.11100
N 	N 	0.65210 0.76800 0.68380 -0.01800
O 	O 	0.64880 0.73470 0.56750 -0.98100
O 	O 	0.54200 0.55820 0.69960 -0.32300
C 	C 	0.66850 0.75620 0.61690 -0.11600
C 	C 	0.60570 0.75340 0.70340 -1.67800
H 	H 	0.59750 0.76590 0.75300 1.00000
H 	H 	0.60420 0.71950 0.70490 0.80100
H 	H 	0.58450 0.76510 0.66540 0.70000
C 	C 	0.67480 0.79560 0.74020 1.91200
H 	H 	0.65450 0.80080 0.78300 -0.60200
H 	H 	0.68350 0.82550 0.71820 -0.98400
H 	H 	0.70200 0.77930 0.75750 -1.11800
Zn	Zn	0.83755 0.24320 0.45392 1.22100
O 	O 	0.82912 0.24311 0.33680 -0.81700
C 	C 	0.89490 0.32810 0.41220 0.31400
Zn	Zn	0.81599 0.17849 0.31071 1.19500
O 	O 	0.83840 0.24970 0.57400 0.43600
C 	C 	0.91130 0.37060 0.45350 -1.45000
Zn	Zn	0.87561 0.27608 0.27922 0.88300
N 	N 	0.96100 0.25570 0.80900 -85.40200
C 	C 	0.91840 0.41220 0.41380 0.35900
H 	H 	0.91370 0.41330 0.36080 -0.74600
C 	C 	0.93210 0.45160 0.45210 -1.85900
Zn	Zn	0.93798 0.56012 0.29534 0.09900
C 	C 	0.94010 0.49630 0.41100 0.36400
Zn	Zn	0.96421 0.13501 0.78738 2.52700
C 	C 	0.93820 0.44970 0.52930 0.44600
H 	H 	0.94810 0.47670 0.55510 -1.50100
Zn	Zn	0.94304 0.07376 0.81588 -0.20500
C 	C 	0.93030 0.40910 0.57090 -1.98600
C 	C 	0.93380 0.40800 0.65480 0.51400
C 	C 	0.91720 0.36950 0.53080 0.30300
H 	H 	0.91210 0.34130 0.55740 -0.73000
O 	O 	0.88884 0.29301 0.45000 -1.31800
C 	C 	0.87930 0.14830 0.42210 0.49300
O 	O 	0.88780 0.33197 0.34150 -1.22300
C 	C 	0.90140 0.11080 0.46500 -1.61800
O 	O 	0.93238 0.49772 0.34070 -2.09000
C 	C 	0.91340 0.11900 0.53980 0.84800
H 	H 	0.90910 0.14880 0.56140 -1.32000
O 	O 	0.95181 0.53061 0.45000 -3.38000
C 	C 	0.93200 0.08270 0.58310 -2.78100
O 	O 	0.93150 0.44719 0.68710 -2.10700
C 	C 	0.94290 0.09080 0.66520 1.68300
O 	O 	0.93880 0.37131 0.68750 -3.06400
C 	C 	0.93840 0.03920 0.55060 0.93500
H 	H 	0.95040 0.01450 0.57990 -1.69400
O 	O 	0.88268 0.18885 0.44690 -1.39900
C 	C 	0.92740 0.03190 0.47610 -2.00900
O 	O 	0.85645 0.13626 0.36370 -0.87000
C 	C 	0.93870 0.98610 0.43870 0.58000
O 	O 	0.94590 0.12942 0.69140 -3.95700
C 	C 	0.90930 0.06690 0.43260 0.63800
H 	H 	0.90220 0.06150 0.38110 -0.71600
O 	O 	0.93230 0.05570 0.71130 0.74500
C 	C 	0.75110 0.29630 0.42890 0.35100
O 	O 	0.95240 0.95401 0.48150 -3.53200
C 	C 	0.70870 0.31190 0.46760 -0.09100
O 	O 	0.93460 0.98326 0.36930 -2.48100
C 	C 	0.67070 0.32450 0.42670 0.05200
H 	H 	0.67180 0.32410 0.37310 0.06700
O 	O 	0.78588 0.29129 0.46930 -0.36600
C 	C 	0.63050 0.33800 0.46320 -0.05200
O 	O 	0.74949 0.28830 0.36020 -0.24000
C 	C 	0.59050 0.35410 0.41930 0.40800
O 	O 	0.90750 0.14480 0.85030 -10.82800
C 	C 	0.62810 0.33650 0.54120 0.05100
H 	H 	0.60050 0.34310 0.56630 0.05000
O 	O 	0.94702 0.14735 0.95150 -7.52600
C 	C 	0.66720 0.32500 0.58310 -0.10300
O 	O 	0.62700 0.31420 0.69920 -0.38100
C 	C 	0.66310 0.32430 0.66770 0.35800
O 	O 	0.80103 0.16806 0.20500 -0.63200
C 	C 	0.70680 0.31300 0.54740 0.05500
H 	H 	0.73290 0.30550 0.57630 0.04200
O 	O 	0.78457 0.19207 0.46850 -0.41300
C 	C 	0.75240 0.17720 0.42730 0.39600
O 	O 	0.75588 0.16728 0.35900 -0.46200
C 	C 	0.70730 0.17110 0.46280 -0.14400
O 	O 	0.89808 0.60127 0.35430 -1.49700
C 	C 	0.67250 0.15060 0.42260 0.08400
H 	H 	0.67780 0.13940 0.37290 0.03600
O 	O 	0.05246 0.63058 0.43780 0.51700
C 	C 	0.62950 0.14630 0.45490 -0.14700
O 	O 	0.88970 0.30390 0.17580 -1.93000
C 	C 	0.90880 0.62430 0.41200 1.83100
O 	O 	0.81910 0.28770 0.18720 -0.55800
C 	C 	0.62190 0.16210 0.52860 0.08100
H 	H 	0.59250 0.15950 0.55010 0.04400
C 	C 	0.65660 0.18140 0.57030 -0.12100
C 	C 	0.70010 0.18670 0.53590 0.07700
H 	H 	0.72410 0.20090 0.56310 0.02500
C 	C 	0.85190 0.30300 0.14900 0.77900
C 	C 	0.97620 0.21090 0.79590 347.49200
C 	C 	0.91700 0.27060 0.80930 68.79900
N 	N 	0.82100 0.30280 0.66880 0.47500
C 	C 	0.83740 0.29070 0.59700 -0.38200
C 	C 	0.80210 0.27470 0.71750 1.97600
H 	H 	0.79380 0.29210 0.76300 -2.00900
H 	H 	0.77490 0.26100 0.69510 -0.74800
H 	H 	0.82350 0.25010 0.73090 -0.08700
C 	C 	0.81710 0.35250 0.68870 -5.06100
H 	H 	0.83210 0.37130 0.65000 1.68100
H 	H 	0.78500 0.36110 0.69150 1.43900
H 	H 	0.83150 0.35800 0.73770 1.18600
O 	O 	0.89910 0.11870 0.85740 3.97600
H 	H 	0.10330 0.24380 0.80930 -26.68000
H 	H 	0.08870 0.28950 0.76430 -14.08700
H 	H 	0.08850 0.28930 0.85460 -22.11900
N 	N 	0.84790 0.26800 0.68380 -3.55600
O 	O 	0.85120 0.23470 0.56750 -1.46300
O 	O 	0.95800 0.05820 0.69960 -4.17700
C 	C 	0.83150 0.25620 0.61690 0.84400
C 	C 	0.89430 0.25340 0.70340 30.40200
H 	H 	0.90250 0.26590 0.75300 -18.94900
H 	H 	0.89580 0.21950 0.70490 -15.02800
H 	H 	0.91550 0.26510 0.66540 -12.89100
C 	C 	0.82520 0.29560 0.74020 -2.69300
H 	H 	0.84550 0.30080 0.78300 1.51800
H 	H 	0.81650 0.32550 0.71820 2.28100
H 	H 	0.79800 0.27930 0.75750 1.91700
Zn	Zn	0.33755 0.74320 0.45392 1.24100
O 	O 	0.32912 0.74311 0.33680 -0.67500
C 	C 	0.39490 0.82810 0.41220 0.38900
Zn	Zn	0.31599 0.67849 0.31071 1.22400
O 	O 	0.33840 0.74970 0.57400 0.81900
C 	C 	0.41130 0.87060 0.45350 -0.13600
Zn	Zn	0.37561 0.77608 0.27922 1.19800
N 	N 	0.46100 0.75570 0.80900 3.47200
C 	C 	0.41840 0.91220 0.41380 0.06900
H 	H 	0.41370 0.91330 0.36080 0.02800
C 	C 	0.43210 0.95160 0.45210 -0.14500
Zn	Zn	0.43798 0.06012 0.29534 1.22800
C 	C 	0.44010 0.99630 0.41100 0.37900
Zn	Zn	0.46421 0.63501 0.78738 0.96100
C 	C 	0.43820 0.94970 0.52930 0.06800
H 	H 	0.44810 0.97670 0.55510 0.02800
Zn	Zn	0.44304 0.57376 0.81588 1.16900
C 	C 	0.43030 0.90910 0.57090 -0.11900
C 	C 	0.43380 0.90800 0.65480 0.35400
C 	C 	0.41720 0.86950 0.53080 0.07200
H 	H 	0.41210 0.84130 0.55740 0.04700
O 	O 	0.38884 0.79301 0.45000 -0.44800
C 	C 	0.37930 0.64830 0.42210 0.38000
O 	O 	0.38780 0.83197 0.34150 -0.48200
C 	C 	0.40140 0.61080 0.46500 -0.12900
O 	O 	0.43238 0.99772 0.34070 -0.48100
C 	C 	0.41340 0.61900 0.53980 0.06500
H 	H 	0.40910 0.64880 0.56140 0.08400
O 	O 	0.45181 0.03061 0.45000 -0.47900
C 	C 	0.43200 0.58270 0.58310 -0.13400
O 	O 	0.43150 0.94719 0.68710 -0.46300
C 	C 	0.44290 0.59080 0.66520 0.44300
O 	O 	0.43880 0.87131 0.68750 -0.29800
C 	C 	0.43840 0.53920 0.55060 0.08100
H 	H 	0.45040 0.51450 0.57990 0.03400
O 	O 	0.38268 0.68885 0.44690 -0.42700
C 	C 	0.42740 0.53190 0.47610 -0.14700
O 	O 	0.35645 0.63626 0.36370 -0.48600
C 	C 	0.43870 0.48610 0.43870 0.40800
O 	O 	0.44590 0.62942 0.69140 -0.56600
C 	C 	0.40930 0.56690 0.43260 0.07400
H 	H 	0.40220 0.56150 0.38110 0.02900
O 	O 	0.43230 0.55570 0.71130 -0.26900
C 	C 	0.25110 0.79630 0.42890 0.44800
O 	O 	0.45240 0.45401 0.48150 -0.46200
C 	C 	0.20870 0.81190 0.46760 -0.39900
O 	O 	0.43460 0.48326 0.36930 -0.49400
C 	C 	0.17070 0.82450 0.42670 0.50300
H 	H 	0.17180 0.82410 0.37310 -0.53300
O 	O 	0.28588 0.79129 0.46930 -0.45200
C 	C 	0.13050 0.83800 0.46320 -1.84900
O 	O 	0.24949 0.78830 0.36020 -0.35600
C 	C 	0.09050 0.85410 0.41930 0.63300
O 	O 	0.40750 0.64480 0.85030 0.06700
C 	C 	0.12810 0.83650 0.54120 0.46500
H 	H 	0.10050 0.84310 0.56630 0.18800
O 	O 	0.44702 0.64735 0.95150 -0.35700
C 	C 	0.16720 0.82500 0.58310 -0.23000
O 	O 	0.12700 0.81420 0.69920 0.24100
C 	C 	0.16310 0.82430 0.66770 0.29000
O 	O 	0.30103 0.66806 0.20500 -0.50000
C 	C 	0.20680 0.81300 0.54740 0.20200
H 	H 	0.23290 0.80550 0.57630 -0.01600
O 	O 	0.28457 0.69207 0.46850 -0.41300
C 	C 	0.25240 0.67720 0.42730 0.32900
O 	O 	0.25588 0.66728 0.35900 -0.43200
C 	C 	0.20730 0.67110 0.46280 0.01000
O 	O 	0.39808 0.10127 0.35430 -0.47500
C 	C 	0.17250 0.65060 0.42260 -0.02400
H 	H 	0.17780 0.63940 0.37290 0.08300
O 	O 	0.55246 0.13058 0.43780 -0.43400
C 	C 	0.12950 0.64630 0.45490 0.60200
O 	O 	0.38970 0.80390 0.17580 -0.44200
C 	C 	0.40880 0.12430 0.41200 0.37700
O 	O 	0.31910 0.78770 0.18720 -0.37800
C 	C 	0.12190 0.66210 0.52860 -0.42900
H 	H 	0.09250 0.65950 0.55010 0.67800
C 	C 	0.15660 0.68140 0.57030 0.27600
C 	C 	0.20010 0.68670 0.53590 -0.17400
H 	H 	0.22410 0.70090 0.56310 0.10500
C 	C 	0.35190 0.80300 0.14900 0.34300
C 	C 	0.47620 0.71090 0.79590 -15.13400
C 	C 	0.41700 0.77060 0.80930 -3.28600
N 	N 	0.32100 0.80280 0.66880 -0.14800
C 	C 	0.33740 0.79070 0.59700 -0.11400
C 	C 	0.30210 0.77470 0.71750 -1.15600
H 	H 	0.29380 0.79210 0.76300 1.04800
H 	H 	0.27490 0.76100 0.69510 0.46800
H 	H 	0.32350 0.75010 0.73090 0.30300
C 	C 	0.31710 0.85250 0.68870 1.50600
H 	H 	0.33210 0.87130 0.65000 -0.43900
H 	H 	0.28500 0.86110 0.69150 -0.36900
H 	H 	0.33150 0.85800 0.73770 -0.27300
O 	O 	0.39910 0.61870 0.85740 -0.50600
H 	H 	0.60330 0.74380 0.80930 1.24600
H 	H 	0.58870 0.78950 0.76430 0.68500
H 	H 	0.58850 0.78930 0.85460 1.11700
N 	N 	0.34790 0.76800 0.68380 -0.02500
O 	O 	0.35120 0.73470 0.56750 -0.96500
O 	O 	0.45800 0.55820 0.69960 -0.31100
C 	C 	0.33150 0.75620 0.61690 -0.10200
C 	C 	0.39430 0.75340 0.70340 -1.68200
H 	H 	0.40250 0.76590 0.75300 1.00100
H 	H 	0.39580 0.71950 0.70490 0.79300
H 	H 	0.41550 0.76510 0.66540 0.69700
C 	C 	0.32520 0.79560 0.74020 1.92100
H 	H 	0.34550 0.80080 0.78300 -0.61000
H 	H 	0.31650 0.82550 0.71820 -0.99800
H 	H 	0.29800 0.77930 0.75750 -1.11800
Zn	Zn	0.16245 0.75680 0.95392 1.25000
O 	O 	0.17088 0.75689 0.83680 -0.56800
C 	C 	0.10510 0.67190 0.91220 0.48900
Zn	Zn	0.18401 0.82151 0.81071 1.25000
O 	O 	0.16160 0.75030 0.07400 1.41800
C 	C 	0.08870 0.62940 0.95350 0.83600
Zn	Zn	0.12439 0.72392 0.77922 1.42500
N 	N 	0.03900 0.74430 0.30900 -84.17500
C 	C 	0.08160 0.58780 0.91380 -0.03200
H 	H 	0.08630 0.58670 0.86080 0.67200
C 	C 	0.06790 0.54840 0.95210 1.21800
Zn	Zn	0.06202 0.43988 0.79534 1.38900
C 	C 	0.05990 0.50370 0.91100 0.65400
Zn	Zn	0.03579 0.86499 0.28738 4.55200
C 	C 	0.06180 0.55030 0.02930 -0.04900
H 	H 	0.05190 0.52330 0.05510 1.29800
Zn	Zn	0.05696 0.92624 0.31588 1.09900
C 	C 	0.06970 0.59090 0.07090 1.10600
C 	C 	0.06620 0.59200 0.15480 0.54000
C 	C 	0.08280 0.63050 0.03080 -0.15300
H 	H 	0.08790 0.65870 0.05740 0.44700
O 	O 	0.11116 0.70699 0.95000 -0.00000
C 	C 	0.12070 0.85170 0.92210 0.47300
O 	O 	0.11220 0.66803 0.84150 0.12200
C 	C 	0.09860 0.88920 0.96500 0.55500
O 	O 	0.06762 0.50228 0.84070 0.51400
C 	C 	0.08660 0.88100 0.03980 0.05800
H 	H 	0.09090 0.85120 0.06140 -0.04100
O 	O 	0.04819 0.46939 0.95000 0.97500
C 	C 	0.06800 0.91730 0.08310 0.95200
O 	O 	0.06850 0.55281 0.18710 0.48200
C 	C 	0.05710 0.90920 0.16520 0.63700
O 	O 	0.06120 0.62869 0.18750 0.33600
C 	C 	0.06160 0.96080 0.05060 0.09400
H 	H 	0.04960 0.98550 0.07990 1.33800
O 	O 	0.11732 0.81115 0.94690 0.01200
C 	C 	0.07260 0.96810 0.97610 0.97600
O 	O 	0.14355 0.86374 0.86370 -0.22900
C 	C 	0.06130 0.01390 0.93870 0.52600
O 	O 	0.05410 0.87058 0.19140 -0.52900
C 	C 	0.09070 0.93310 0.93260 0.03500
H 	H 	0.09780 0.93850 0.88110 0.50300
O 	O 	0.06770 0.94430 0.21130 -2.45700
C 	C 	0.24890 0.70370 0.92890 0.34900
O 	O 	0.04760 0.04599 0.98150 1.04800
C 	C 	0.29130 0.68810 0.96760 -0.11900
O 	O 	0.06540 0.01674 0.86930 0.37800
C 	C 	0.32930 0.67550 0.92670 0.03800
H 	H 	0.32820 0.67590 0.87310 0.05400
O 	O 	0.21412 0.70871 0.96930 -0.47900
C 	C 	0.36950 0.66200 0.96320 -0.05700
O 	O 	0.25051 0.71170 0.86020 -0.28700
C 	C 	0.40950 0.64590 0.91930 0.39800
O 	O 	0.09250 0.85520 0.35030 -10.24500
C 	C 	0.37190 0.66350 0.04120 0.01700
H 	H 	0.39950 0.65690 0.06630 0.04800
O 	O 	0.05298 0.85265 0.45150 -2.69300
C 	C 	0.33280 0.67500 0.08310 -0.11200
O 	O 	0.37300 0.68580 0.19920 -0.39400
C 	C 	0.33690 0.67570 0.16770 0.34500
O 	O 	0.19897 0.83194 0.70500 -0.38300
C 	C 	0.29320 0.68700 0.04740 0.01600
H 	H 	0.26710 0.69450 0.07630 0.02400
O 	O 	0.21543 0.80793 0.96850 -0.48900
C 	C 	0.24760 0.82280 0.92730 0.37300
O 	O 	0.24412 0.83272 0.85900 -0.49000
C 	C 	0.29270 0.82890 0.96280 -0.15100
O 	O 	0.10192 0.39873 0.85430 -0.43100
C 	C 	0.32750 0.84940 0.92260 0.05800
H 	H 	0.32220 0.86060 0.87290 0.03100
O 	O 	0.94754 0.36942 0.93780 -4.63000
C 	C 	0.37050 0.85370 0.95490 -0.14400
O 	O 	0.11030 0.69610 0.67580 0.41300
C 	C 	0.09120 0.37570 0.91200 0.60400
O 	O 	0.18090 0.71230 0.68720 -0.25300
C 	C 	0.37810 0.83790 0.02860 0.04000
H 	H 	0.40750 0.84050 0.05010 0.04400
C 	C 	0.34340 0.81860 0.07030 -0.12400
C 	C 	0.29990 0.81330 0.03590 0.02800
H 	H 	0.27590 0.79910 0.06310 0.01600
C 	C 	0.14810 0.69700 0.64900 0.02200
C 	C 	0.02380 0.78910 0.29590 363.82300
C 	C 	0.08300 0.72940 0.30930 69.48400
N 	N 	0.17900 0.69720 0.16880 0.44600
C 	C 	0.16260 0.70930 0.09700 -0.20300
C 	C 	0.19790 0.72530 0.21750 1.99300
H 	H 	0.20620 0.70790 0.26300 -2.06700
H 	H 	0.22510 0.73900 0.19510 -0.75100
H 	H 	0.17650 0.74990 0.23090 -0.12700
C 	C 	0.18290 0.64750 0.18870 -4.66100
H 	H 	0.16790 0.62870 0.15000 1.43700
H 	H 	0.21500 0.63890 0.19150 1.28800
H 	H 	0.16850 0.64200 0.23770 1.07400
O 	O 	0.10090 0.88130 0.35740 4.22700
H 	H 	0.89670 0.75620 0.30930 -26.35100
H 	H 	0.91130 0.71050 0.26430 -14.69500
H 	H 	0.91150 0.71070 0.35460 -22.95600
N 	N 	0.15210 0.73200 0.18380 -3.28600
O 	O 	0.14880 0.76530 0.06750 -1.75400
O 	O 	0.04200 0.94180 0.19960 3.80600
C 	C 	0.16850 0.74380 0.11690 0.01200
C 	C 	0.10570 0.74660 0.20340 29.78000
H 	H 	0.09750 0.73410 0.25300 -19.00100
H 	H 	0.10420 0.78050 0.20490 -14.61500
H 	H 	0.08450 0.73490 0.16540 -11.22800
C 	C 	0.17480 0.70440 0.24020 -2.66500
H 	H 	0.15450 0.69920 0.28300 1.54400
H 	H 	0.18350 0.67450 0.21820 2.16100
H 	H 	0.20200 0.72070 0.25750 1.96500
Zn	Zn	0.66245 0.25680 0.95392 1.24900
O 	O 	0.67088 0.25689 0.83680 -0.65800
C 	C 	0.60510 0.17190 0.91220 0.39200
Zn	Zn	0.68401 0.32151 0.81071 1.23200
O 	O 	0.66160 0.25030 0.07400 0.86700
C 	C 	0.58870 0.12940 0.95350 -0.12000
Zn	Zn	0.62439 0.22392 0.77922 1.20400
N 	N 	0.53900 0.24430 0.30900 3.47300
C 	C 	0.58160 0.08780 0.91380 0.07000
H 	H 	0.58630 0.08670 0.86080 0.04100
C 	C 	0.56790 0.04840 0.95210 -0.12800
Zn	Zn	0.56202 0.93988 0.79534 1.23200
C 	C 	0.55990 0.00370 0.91100 0.38300
Zn	Zn	0.53579 0.36499 0.28738 0.96200
C 	C 	0.56180 0.05030 0.02930 0.07300
H 	H 	0.55190 0.02330 0.05510 0.03600
Zn	Zn	0.55696 0.42624 0.31588 1.17300
C 	C 	0.56970 0.09090 0.07090 -0.10800
C 	C 	0.56620 0.09200 0.15480 0.35500
C 	C 	0.58280 0.13050 0.03080 0.07700
H 	H 	0.58790 0.15870 0.05740 0.05200
O 	O 	0.61116 0.20699 0.95000 -0.43500
C 	C 	0.62070 0.35170 0.92210 0.38100
O 	O 	0.61220 0.16803 0.84150 -0.46300
C 	C 	0.59860 0.38920 0.96500 -0.10400
O 	O 	0.56762 0.00228 0.84070 -0.46200
C 	C 	0.58660 0.38100 0.03980 0.06500
H 	H 	0.59090 0.35120 0.06140 0.09400
O 	O 	0.54819 0.96939 0.95000 -0.46700
C 	C 	0.56800 0.41730 0.08310 -0.11800
O 	O 	0.56850 0.05281 0.18710 -0.44700
C 	C 	0.55710 0.40920 0.16520 0.44600
O 	O 	0.56120 0.12869 0.18750 -0.29300
C 	C 	0.56160 0.46080 0.05060 0.07700
H 	H 	0.54960 0.48550 0.07990 0.04200
O 	O 	0.61732 0.31115 0.94690 -0.41100
C 	C 	0.57260 0.46810 0.97610 -0.12200
O 	O 	0.64355 0.36374 0.86370 -0.46100
C 	C 	0.56130 0.51390 0.93870 0.40900
O 	O 	0.55410 0.37058 0.19140 -0.55900
C 	C 	0.59070 0.43310 0.93260 0.07100
H 	H 	0.59780 0.43850 0.88110 0.04600
O 	O 	0.56770 0.44430 0.21130 -0.24300
C 	C 	0.74890 0.20370 0.92890 0.64800
O 	O 	0.54760 0.54599 0.98150 -0.44900
C 	C 	0.79130 0.18810 0.96760 -0.94100
O 	O 	0.56540 0.51674 0.86930 -0.47900
C 	C 	0.82930 0.17550 0.92670 1.26600
H 	H 	0.82820 0.17590 0.87310 -0.77000
O 	O 	0.71412 0.20871 0.96930 -0.47600
C 	C 	0.86950 0.16200 0.96320 -3.28500
O 	O 	0.75051 0.21170 0.86020 -0.38800
C 	C 	0.90950 0.14590 0.91930 2.00500
O 	O 	0.59250 0.35520 0.35030 0.06200
C 	C 	0.87190 0.16350 0.04120 1.49000
H 	H 	0.89950 0.15690 0.06630 -1.57900
O 	O 	0.55298 0.35265 0.45150 -0.35400
C 	C 	0.83280 0.17500 0.08310 -1.31300
O 	O 	0.87300 0.18580 0.19920 -1.59900
C 	C 	0.83690 0.17570 0.16770 0.83900
O 	O 	0.69897 0.33194 0.70500 -0.47500
C 	C 	0.79320 0.18700 0.04740 0.88300
H 	H 	0.76710 0.19450 0.07630 -0.22800
O 	O 	0.71543 0.30793 0.96850 -0.44400
C 	C 	0.74760 0.32280 0.92730 0.55700
O 	O 	0.74412 0.33272 0.85900 -0.47000
C 	C 	0.79270 0.32890 0.96280 -0.60400
O 	O 	0.60192 0.89873 0.85430 -0.45800
C 	C 	0.82750 0.34940 0.92260 0.83400
H 	H 	0.82220 0.36060 0.87290 -0.19000
O 	O 	0.44754 0.86942 0.93780 -0.43600
C 	C 	0.87050 0.35370 0.95490 -0.87300
O 	O 	0.61030 0.19610 0.67580 -0.43000
C 	C 	0.59120 0.87570 0.91200 0.38000
O 	O 	0.68090 0.21230 0.68720 -0.35500
C 	C 	0.87810 0.33790 0.02860 0.71600
H 	H 	0.90750 0.34050 0.05010 -1.34300
C 	C 	0.84340 0.31860 0.07030 -1.04500
C 	C 	0.79990 0.31330 0.03590 0.57200
H 	H 	0.77590 0.29910 0.06310 -0.14100
C 	C 	0.64810 0.19700 0.64900 0.35700
C 	C 	0.52380 0.28910 0.29590 -15.12500
C 	C 	0.58300 0.22940 0.30930 -3.28800
N 	N 	0.67900 0.19720 0.16880 -0.13500
C 	C 	0.66260 0.20930 0.09700 -0.09000
C 	C 	0.69790 0.22530 0.21750 -1.18000
H 	H 	0.70620 0.20790 0.26300 1.07200
H 	H 	0.72510 0.23900 0.19510 0.50500
H 	H 	0.67650 0.24990 0.23090 0.32200
C 	C 	0.68290 0.14750 0.18870 1.48500
H 	H 	0.66790 0.12870 0.15000 -0.41700
H 	H 	0.71500 0.13890 0.19150 -0.35300
H 	H 	0.66850 0.14200 0.23770 -0.25900
O 	O 	0.60090 0.38130 0.35740 -0.48300
H 	H 	0.39670 0.25620 0.30930 1.23800
H 	H 	0.41130 0.21050 0.26430 0.68100
H 	H 	0.41150 0.21070 0.35460 1.11000
N 	N 	0.65210 0.23200 0.18380 -0.01800
O 	O 	0.64880 0.26530 0.06750 -0.97900
O 	O 	0.54200 0.44180 0.19960 -0.32400
C 	C 	0.66850 0.24380 0.11690 -0.11900
C 	C 	0.60570 0.24660 0.20340 -1.67700
H 	H 	0.59750 0.23410 0.25300 1.00000
H 	H 	0.60420 0.28050 0.20490 0.80100
H 	H 	0.58450 0.23490 0.16540 0.70000
C 	C 	0.67480 0.20440 0.24020 1.92100
H 	H 	0.65450 0.19920 0.28300 -0.60400
H 	H 	0.68350 0.17450 0.21820 -0.98900
H 	H 	0.70200 0.22070 0.25750 -1.12300
Zn	Zn	-0.00000 0.41670 0.94125 3.14200
O 	O 	-0.00000 0.41850 0.82060 3.12500
O 	O 	0.00000 0.91030 0.34720 5.03800
Zn	Zn	-0.00000 0.90040 0.46382 3.13400
O 	O 	-0.00000 0.80210 0.29220 -503.61800
C 	C 	0.00000 0.70740 0.31100 14.46900
Zn	Zn	0.50000 0.91670 0.94125 1.21900
O 	O 	0.50000 0.91850 0.82060 -0.63000
O 	O 	0.50000 0.41030 0.34720 -1.14100
Zn	Zn	0.50000 0.40040 0.46382 1.21400
O 	O 	0.50000 0.30210 0.29220 21.13600
C 	C 	0.50000 0.20740 0.31100 -0.26300
Zn	Zn	0.00000 0.58330 0.44125 3.16900
O 	O 	-0.00000 0.58150 0.32060 3.13300
O 	O 	0.00000 0.08970 0.84720 5.01900
Zn	Zn	0.00000 0.09960 0.96382 3.10300
O 	O 	0.00000 0.19790 0.79220 -503.35700
C 	C 	0.00000 0.29260 0.81100 14.45300
Zn	Zn	0.50000 0.08330 0.44125 1.21900
O 	O 	0.50000 0.08150 0.32060 -0.63000
O 	O 	0.50000 0.58970 0.84720 -1.14100
Zn	Zn	0.50000 0.59960 0.96382 1.21400
O 	O 	0.50000 0.69790 0.79220 21.14100
C 	C 	0.50000 0.79260 0.81100 -0.26300
