data_crystal

_cell_length_a 41.60400
_cell_length_b 41.60400
_cell_length_c 40.24600
_cell_angle_alpha 90.00000
_cell_angle_beta  90.00000
_cell_angle_gamma 120.00000

_symmetry_space_group_name_	'P 1'
_symmetry_space_group_name_H-M	'P 1'

loop_
_symmetry_equiv_pos_as_xyz
  x,y,z

loop_
_atom_site_label
_atom_site_type_symbol
_atom_site_fract_x
_atom_site_fract_y
_atom_site_fract_z
_atom_site_charge
Eu	Eu	0.62701 0.09120 0.78837 2.72900
In	In	0.86088 0.30441 0.13661 1.97100
O 	O 	0.65686 0.14908 0.77182 -0.54800
O 	O 	0.61173 0.13110 0.80662 -0.56400
O 	O 	0.61558 0.07164 0.83896 -0.61500
O 	O 	0.67040 0.11149 0.82791 -0.55600
O 	O 	0.62496 0.92422 0.11118 -0.55200
O 	O 	0.57227 0.90914 0.08900 -0.55000
O 	O 	0.59380 0.08110 0.74241 -0.55100
O 	O 	0.56830 0.05378 0.78780 -0.58300
O 	O 	0.84110 0.25520 0.11800 -0.65400
O 	O 	0.82480 0.28360 0.08870 -0.59600
O 	O 	0.33480 0.88940 0.51790 -0.52500
O 	O 	0.38970 0.92940 0.50780 -0.49000
O 	O 	0.24870 0.98870 0.78440 -0.64700
O 	O 	0.24360 0.01440 0.74030 -0.40200
C 	C 	0.63710 0.15560 0.79030 0.40000
C 	C 	0.64370 0.19229 0.79150 -0.18400
C 	C 	0.62090 0.20040 0.80960 0.13000
H 	H 	0.60130 0.18220 0.82190 0.00900
C 	C 	0.62770 0.23630 0.80920 -0.21800
H 	H 	0.61290 0.24230 0.82210 0.11000
C 	C 	0.65520 0.26340 0.79070 0.16200
C 	C 	0.67770 0.25400 0.77280 -0.21700
H 	H 	0.69730 0.27210 0.76040 0.10700
C 	C 	0.67180 0.21890 0.77310 0.13400
H 	H 	0.68690 0.21290 0.76070 0.01000
C 	C 	0.66040 0.29830 0.79050 -0.10000
C 	C 	0.63350 0.30480 0.79090 0.03100
H 	H 	0.60950 0.28460 0.79160 0.02000
C 	C 	0.64550 0.09080 0.84830 0.48100
C 	C 	0.65710 0.09460 0.88050 -0.17500
C 	C 	0.69230 0.11780 0.89090 0.07400
H 	H 	0.71090 0.13190 0.87570 0.02800
C 	C 	0.70050 0.12030 0.92560 -0.10700
H 	H 	0.72450 0.13590 0.93300 0.07300
C 	C 	0.67350 0.10010 0.94740 -0.00300
C 	C 	0.63670 0.07720 0.93710 -0.09600
H 	H 	0.61810 0.06380 0.95250 0.06500
C 	C 	0.62850 0.07490 0.90340 0.06200
H 	H 	0.60410 0.06040 0.89610 0.03700
C 	C 	0.68170 0.10030 0.98130 0.18100
C 	C 	0.70460 0.13030 0.99680 -0.27200
H 	H 	0.71300 0.15290 0.98610 0.12500
C 	C 	0.71650 0.13000 0.02760 0.19800
C 	C 	0.69890 0.09940 0.04390 -0.25500
H 	H 	0.70470 0.09960 0.06630 0.11700
C 	C 	0.67220 0.06690 0.03030 0.16000
C 	C 	0.66390 0.06820 0.99790 -0.23900
H 	H 	0.64590 0.04690 0.98730 0.11500
C 	C 	0.65620 0.03250 0.04750 -0.01400
C 	C 	0.67420 0.02380 0.06840 -0.07400
H 	H 	0.69880 0.04140 0.07280 0.05800
C 	C 	0.65970 0.99120 0.08430 0.01500
H 	H 	0.67350 0.98540 0.09880 0.05000
C 	C 	0.62270 0.96670 0.07740 -0.09300
C 	C 	0.60390 0.97470 0.05770 0.03300
H 	H 	0.57870 0.95800 0.05480 0.04600
C 	C 	0.61960 0.00630 0.04130 -0.08500
H 	H 	0.60620 0.01110 0.02550 0.05900
C 	C 	0.60550 0.93110 0.09460 0.36900
C 	C 	0.74190 0.16160 0.04250 -0.04000
C 	C 	0.74910 0.19660 0.03210 -0.07600
H 	H 	0.73840 0.19930 0.01270 0.05400
C 	C 	0.77280 0.22790 0.05140 0.05300
H 	H 	0.77440 0.25060 0.04710 0.02800
C 	C 	0.79370 0.22520 0.07660 -0.16800
C 	C 	0.78870 0.19030 0.08550 0.03600
H 	H 	0.80180 0.18800 0.10330 0.03400
C 	C 	0.76400 0.15900 0.06730 -0.07400
H 	H 	0.76220 0.13620 0.07170 0.05400
C 	C 	0.82230 0.25730 0.09620 0.54900
C 	C 	0.56590 0.06040 0.75910 0.41400
C 	C 	0.53070 0.04270 0.74390 -0.15600
C 	C 	0.49930 0.02270 0.76080 0.09400
H 	H 	0.50090 0.01970 0.78350 0.02200
C 	C 	0.46770 0.00780 0.74780 -0.12900
H 	H 	0.44700 0.99500 0.76140 0.07300
C 	C 	0.46280 0.00980 0.71460 -0.00200
C 	C 	0.49390 0.03140 0.69630 -0.10900
H 	H 	0.49180 0.03550 0.67380 0.07100
C 	C 	0.52740 0.04690 0.71080 0.06600
H 	H 	0.54860 0.06060 0.69800 0.03100
C 	C 	0.42780 0.99410 0.69870 0.20700
C 	C 	0.39950 0.99780 0.71570 -0.32500
H 	H 	0.40340 0.00890 0.73660 0.14500
C 	C 	0.36770 0.98440 0.69970 0.30700
C 	C 	0.36220 0.97080 0.67120 -0.45200
H 	H 	0.33940 0.96340 0.66130 0.19300
C 	C 	0.38730 0.96600 0.65370 0.37800
C 	C 	0.42250 0.97920 0.66840 -0.34700
H 	H 	0.44130 0.97750 0.65740 0.15500
C 	C 	0.38070 0.95000 0.62210 -0.39100
C 	C 	0.34910 0.92710 0.61110 0.31200
H 	H 	0.32860 0.91950 0.62500 -0.07900
C 	C 	0.34350 0.91340 0.58040 -0.30700
H 	H 	0.32010 0.89400 0.57480 0.14900
C 	C 	0.36870 0.92560 0.55890 0.11500
C 	C 	0.40290 0.95270 0.56870 -0.28000
H 	H 	0.42300 0.96250 0.55420 0.14600
C 	C 	0.40630 0.96440 0.60000 0.28500
H 	H 	0.42890 0.98460 0.60630 -0.07300
C 	C 	0.36300 0.91350 0.52750 0.30700
C 	C 	0.32880 0.97760 0.74650 -0.09300
H 	H 	0.34130 0.96790 0.75820 0.06100
C 	C 	0.33680 0.98700 0.71330 -0.04100
C 	C 	0.31810 0.00070 0.69480 -0.09400
H 	H 	0.32460 0.00790 0.67280 0.06500
C 	C 	0.28860 0.00330 0.71030 0.09600
H 	H 	0.27420 0.01020 0.69800 0.02400
C 	C 	0.28180 0.99530 0.74390 -0.25000
C 	C 	0.30120 0.98280 0.76250 0.10200
H 	H 	0.29640 0.97790 0.78500 0.02500
C 	C 	0.25630 0.00030 0.75910 0.61200
Eu	Eu	0.29368 0.42453 0.12171 2.73000
In	In	0.52755 0.63774 0.46994 1.97200
O 	O 	0.32353 0.48241 0.10515 -0.54800
O 	O 	0.27840 0.46443 0.13995 -0.56300
O 	O 	0.28225 0.40497 0.17229 -0.61400
O 	O 	0.33707 0.44482 0.16124 -0.55600
O 	O 	0.29163 0.25755 0.44451 -0.55200
O 	O 	0.23894 0.24247 0.42233 -0.54900
O 	O 	0.26047 0.41443 0.07574 -0.55000
O 	O 	0.23497 0.38711 0.12113 -0.58200
O 	O 	0.50777 0.58853 0.45133 -0.65300
O 	O 	0.49147 0.61693 0.42203 -0.59600
O 	O 	0.00147 0.22273 0.85123 -0.52400
O 	O 	0.05637 0.26273 0.84113 -0.48900
O 	O 	0.91537 0.32203 0.11773 -0.64600
O 	O 	0.91027 0.34773 0.07363 -0.40200
C 	C 	0.30377 0.48893 0.12363 0.40100
C 	C 	0.31037 0.52562 0.12483 -0.18300
C 	C 	0.28757 0.53373 0.14293 0.13100
H 	H 	0.26797 0.51553 0.15523 0.01000
C 	C 	0.29437 0.56963 0.14253 -0.21700
H 	H 	0.27957 0.57563 0.15543 0.11100
C 	C 	0.32187 0.59673 0.12403 0.16300
C 	C 	0.34437 0.58733 0.10613 -0.21600
H 	H 	0.36397 0.60543 0.09373 0.10800
C 	C 	0.33847 0.55223 0.10643 0.13500
H 	H 	0.35357 0.54623 0.09403 0.01100
C 	C 	0.32707 0.63163 0.12383 -0.09900
C 	C 	0.30017 0.63813 0.12423 0.03100
H 	H 	0.27617 0.61793 0.12493 0.02000
C 	C 	0.31217 0.42413 0.18163 0.48300
C 	C 	0.32377 0.42793 0.21383 -0.17700
C 	C 	0.35897 0.45113 0.22423 0.07700
H 	H 	0.37757 0.46523 0.20903 0.02700
C 	C 	0.36717 0.45363 0.25893 -0.11100
H 	H 	0.39117 0.46923 0.26633 0.07400
C 	C 	0.34017 0.43343 0.28073 0.00300
C 	C 	0.30337 0.41053 0.27043 -0.10000
H 	H 	0.28477 0.39713 0.28583 0.06600
C 	C 	0.29517 0.40823 0.23673 0.06500
H 	H 	0.27077 0.39373 0.22943 0.03600
C 	C 	0.34837 0.43363 0.31463 0.17300
C 	C 	0.37127 0.46363 0.33013 -0.26200
H 	H 	0.37967 0.48623 0.31943 0.12100
C 	C 	0.38317 0.46333 0.36093 0.18900
C 	C 	0.36557 0.43273 0.37723 -0.24500
H 	H 	0.37137 0.43293 0.39963 0.11400
C 	C 	0.33887 0.40023 0.36363 0.15100
C 	C 	0.33057 0.40153 0.33123 -0.23000
H 	H 	0.31257 0.38023 0.32063 0.11200
C 	C 	0.32287 0.36583 0.38083 -0.00500
C 	C 	0.34087 0.35713 0.40173 -0.08200
H 	H 	0.36547 0.37473 0.40613 0.06100
C 	C 	0.32637 0.32453 0.41763 0.02200
H 	H 	0.34017 0.31873 0.43213 0.04800
C 	C 	0.28937 0.30003 0.41073 -0.09900
C 	C 	0.27057 0.30803 0.39103 0.04000
H 	H 	0.24537 0.29133 0.38813 0.04300
C 	C 	0.28627 0.33963 0.37463 -0.09300
H 	H 	0.27287 0.34443 0.35883 0.06200
C 	C 	0.27217 0.26443 0.42793 0.37200
C 	C 	0.40857 0.49493 0.37583 -0.03400
C 	C 	0.41577 0.52993 0.36543 -0.08000
H 	H 	0.40507 0.53263 0.34603 0.05500
C 	C 	0.43947 0.56123 0.38473 0.05600
H 	H 	0.44107 0.58393 0.38043 0.02700
C 	C 	0.46037 0.55853 0.40993 -0.17000
C 	C 	0.45537 0.52363 0.41883 0.03900
H 	H 	0.46847 0.52133 0.43663 0.03300
C 	C 	0.43067 0.49233 0.40063 -0.07800
H 	H 	0.42887 0.46953 0.40503 0.05500
C 	C 	0.48897 0.59063 0.42953 0.55000
C 	C 	0.23257 0.39373 0.09243 0.41300
C 	C 	0.19737 0.37603 0.07723 -0.15500
C 	C 	0.16597 0.35603 0.09413 0.09300
H 	H 	0.16757 0.35303 0.11683 0.02200
C 	C 	0.13437 0.34113 0.08113 -0.12800
H 	H 	0.11367 0.32833 0.09473 0.07300
C 	C 	0.12947 0.34313 0.04793 -0.00200
C 	C 	0.16057 0.36473 0.02963 -0.10800
H 	H 	0.15847 0.36883 0.00713 0.07100
C 	C 	0.19407 0.38023 0.04413 0.06500
H 	H 	0.21527 0.39393 0.03133 0.03100
C 	C 	0.09447 0.32743 0.03203 0.20700
C 	C 	0.06617 0.33113 0.04903 -0.32500
H 	H 	0.07007 0.34223 0.06993 0.14600
C 	C 	0.03437 0.31773 0.03303 0.30700
C 	C 	0.02887 0.30413 0.00453 -0.45200
H 	H 	0.00607 0.29673 0.99463 0.19300
C 	C 	0.05397 0.29933 0.98703 0.37800
C 	C 	0.08917 0.31253 0.00173 -0.34700
H 	H 	0.10797 0.31083 0.99073 0.15500
C 	C 	0.04737 0.28333 0.95543 -0.39100
C 	C 	0.01577 0.26043 0.94443 0.31200
H 	H 	0.99527 0.25283 0.95833 -0.07900
C 	C 	0.01017 0.24673 0.91373 -0.30700
H 	H 	0.98677 0.22733 0.90813 0.14900
C 	C 	0.03537 0.25893 0.89223 0.11400
C 	C 	0.06957 0.28603 0.90203 -0.28000
H 	H 	0.08967 0.29583 0.88753 0.14600
C 	C 	0.07297 0.29773 0.93333 0.28400
H 	H 	0.09557 0.31793 0.93963 -0.07300
C 	C 	0.02967 0.24683 0.86083 0.30700
C 	C 	0.99547 0.31093 0.07983 -0.09400
H 	H 	0.00797 0.30123 0.09153 0.06200
C 	C 	0.00347 0.32033 0.04663 -0.04000
C 	C 	0.98477 0.33403 0.02813 -0.09500
H 	H 	0.99127 0.34123 0.00613 0.06500
C 	C 	0.95527 0.33663 0.04363 0.09800
H 	H 	0.94087 0.34353 0.03133 0.02400
C 	C 	0.94847 0.32863 0.07723 -0.25100
C 	C 	0.96787 0.31613 0.09583 0.10300
H 	H 	0.96307 0.31123 0.11833 0.02400
C 	C 	0.92297 0.33363 0.09243 0.61300
Eu	Eu	0.96034 0.75786 0.45504 2.72900
In	In	0.19421 0.97108 0.80328 1.97200
O 	O 	0.99019 0.81575 0.43849 -0.54700
O 	O 	0.94506 0.79777 0.47329 -0.56300
O 	O 	0.94891 0.73831 0.50563 -0.61400
O 	O 	0.00373 0.77816 0.49458 -0.55600
O 	O 	0.95829 0.59089 0.77785 -0.55300
O 	O 	0.90560 0.57581 0.75567 -0.55000
O 	O 	0.92713 0.74777 0.40908 -0.55000
O 	O 	0.90163 0.72045 0.45447 -0.58200
O 	O 	0.17443 0.92187 0.78467 -0.65400
O 	O 	0.15813 0.95027 0.75537 -0.59600
O 	O 	0.66813 0.55607 0.18457 -0.52400
O 	O 	0.72303 0.59607 0.17447 -0.48900
O 	O 	0.58203 0.65537 0.45107 -0.64600
O 	O 	0.57693 0.68107 0.40697 -0.40100
C 	C 	0.97043 0.82227 0.45697 0.40100
C 	C 	0.97703 0.85896 0.45817 -0.18100
C 	C 	0.95423 0.86707 0.47627 0.12800
H 	H 	0.93463 0.84887 0.48857 0.01000
C 	C 	0.96103 0.90297 0.47587 -0.21500
H 	H 	0.94623 0.90897 0.48877 0.11000
C 	C 	0.98853 0.93007 0.45737 0.16000
C 	C 	0.01103 0.92067 0.43947 -0.21300
H 	H 	0.03063 0.93877 0.42707 0.10700
C 	C 	0.00513 0.88557 0.43977 0.13300
H 	H 	0.02023 0.87957 0.42737 0.01200
C 	C 	0.99373 0.96497 0.45717 -0.09500
C 	C 	0.96683 0.97147 0.45757 0.02600
H 	H 	0.94283 0.95127 0.45827 0.02200
C 	C 	0.97883 0.75747 0.51497 0.48400
C 	C 	0.99043 0.76127 0.54717 -0.18200
C 	C 	0.02563 0.78447 0.55757 0.08200
H 	H 	0.04423 0.79857 0.54237 0.02600
C 	C 	0.03383 0.78697 0.59227 -0.11800
H 	H 	0.05783 0.80257 0.59967 0.07700
C 	C 	0.00683 0.76677 0.61407 0.01200
C 	C 	0.97003 0.74387 0.60377 -0.10700
H 	H 	0.95143 0.73047 0.61917 0.06900
C 	C 	0.96183 0.74157 0.57007 0.07000
H 	H 	0.93743 0.72707 0.56277 0.03400
C 	C 	0.01503 0.76697 0.64797 0.15800
C 	C 	0.03793 0.79697 0.66347 -0.24600
H 	H 	0.04633 0.81957 0.65277 0.11600
C 	C 	0.04983 0.79667 0.69427 0.17400
C 	C 	0.03223 0.76607 0.71057 -0.22900
H 	H 	0.03803 0.76627 0.73297 0.10900
C 	C 	0.00553 0.73357 0.69697 0.13600
C 	C 	0.99723 0.73487 0.66457 -0.21600
H 	H 	0.97923 0.71357 0.65397 0.10600
C 	C 	0.98953 0.69917 0.71417 0.00900
C 	C 	0.00753 0.69047 0.73507 -0.09600
H 	H 	0.03213 0.70807 0.73947 0.06600
C 	C 	0.99303 0.65787 0.75097 0.03400
H 	H 	0.00683 0.65207 0.76547 0.04400
C 	C 	0.95603 0.63337 0.74407 -0.10900
C 	C 	0.93723 0.64137 0.72437 0.05400
H 	H 	0.91203 0.62467 0.72147 0.03900
C 	C 	0.95293 0.67297 0.70797 -0.10700
H 	H 	0.93953 0.67777 0.69217 0.06700
C 	C 	0.93883 0.59777 0.76127 0.37600
C 	C 	0.07523 0.82827 0.70917 -0.02400
C 	C 	0.08243 0.86327 0.69877 -0.08700
H 	H 	0.07173 0.86597 0.67937 0.05800
C 	C 	0.10613 0.89457 0.71807 0.06000
H 	H 	0.10773 0.91727 0.71377 0.02600
C 	C 	0.12703 0.89187 0.74327 -0.17300
C 	C 	0.12203 0.85697 0.75217 0.04300
H 	H 	0.13513 0.85467 0.76997 0.03100
C 	C 	0.09733 0.82567 0.73397 -0.08400
H 	H 	0.09553 0.80287 0.73837 0.05700
C 	C 	0.15563 0.92397 0.76287 0.55200
C 	C 	0.89923 0.72707 0.42577 0.41300
C 	C 	0.86403 0.70937 0.41057 -0.15500
C 	C 	0.83263 0.68937 0.42747 0.09300
H 	H 	0.83423 0.68637 0.45017 0.02300
C 	C 	0.80103 0.67447 0.41447 -0.12800
H 	H 	0.78033 0.66167 0.42807 0.07200
C 	C 	0.79613 0.67647 0.38127 -0.00300
C 	C 	0.82723 0.69807 0.36297 -0.10800
H 	H 	0.82513 0.70217 0.34047 0.07100
C 	C 	0.86073 0.71357 0.37747 0.06500
H 	H 	0.88193 0.72727 0.36467 0.03100
C 	C 	0.76113 0.66077 0.36537 0.20700
C 	C 	0.73283 0.66447 0.38237 -0.32500
H 	H 	0.73673 0.67557 0.40327 0.14600
C 	C 	0.70103 0.65107 0.36637 0.30700
C 	C 	0.69553 0.63747 0.33787 -0.45200
H 	H 	0.67273 0.63007 0.32797 0.19300
C 	C 	0.72063 0.63267 0.32037 0.37800
C 	C 	0.75583 0.64587 0.33507 -0.34700
H 	H 	0.77463 0.64417 0.32407 0.15500
C 	C 	0.71403 0.61667 0.28877 -0.39000
C 	C 	0.68243 0.59377 0.27777 0.31100
H 	H 	0.66193 0.58617 0.29167 -0.07900
C 	C 	0.67683 0.58007 0.24707 -0.30600
H 	H 	0.65343 0.56067 0.24147 0.14900
C 	C 	0.70203 0.59227 0.22557 0.11400
C 	C 	0.73623 0.61937 0.23537 -0.27900
H 	H 	0.75633 0.62917 0.22087 0.14600
C 	C 	0.73963 0.63107 0.26667 0.28400
H 	H 	0.76223 0.65127 0.27297 -0.07300
C 	C 	0.69633 0.58017 0.19417 0.30700
C 	C 	0.66213 0.64427 0.41317 -0.09300
H 	H 	0.67463 0.63457 0.42487 0.06100
C 	C 	0.67013 0.65367 0.37997 -0.04100
C 	C 	0.65143 0.66737 0.36147 -0.09400
H 	H 	0.65793 0.67457 0.33947 0.06500
C 	C 	0.62193 0.66997 0.37697 0.09700
H 	H 	0.60753 0.67687 0.36467 0.02400
C 	C 	0.61513 0.66197 0.41057 -0.25000
C 	C 	0.63453 0.64947 0.42917 0.10200
H 	H 	0.62973 0.64457 0.45167 0.02500
C 	C 	0.58963 0.66697 0.42577 0.61300
Eu	Eu	0.90880 0.53582 0.78837 2.73000
In	In	0.69559 0.55647 0.13661 1.97200
O 	O 	0.85092 0.50778 0.77182 -0.54700
O 	O 	0.86890 0.48063 0.80662 -0.56300
O 	O 	0.92836 0.54394 0.83896 -0.61400
O 	O 	0.88851 0.55891 0.82791 -0.55500
O 	O 	0.07578 0.70074 0.11118 -0.55100
O 	O 	0.09086 0.66313 0.08900 -0.54900
O 	O 	0.91890 0.51270 0.74241 -0.55000
O 	O 	0.94622 0.51452 0.78780 -0.58200
O 	O 	0.74480 0.58590 0.11800 -0.65300
O 	O 	0.71640 0.54120 0.08870 -0.59500
O 	O 	0.11060 0.44540 0.51790 -0.52400
O 	O 	0.07060 0.46030 0.50780 -0.48900
O 	O 	0.01130 0.26000 0.78440 -0.64600
O 	O 	0.98560 0.22920 0.74030 -0.40100
C 	C 	0.84440 0.48150 0.79030 0.40100
C 	C 	0.80771 0.45141 0.79150 -0.18300
C 	C 	0.79960 0.42050 0.80960 0.13100
H 	H 	0.81780 0.41910 0.82190 0.01000
C 	C 	0.76370 0.39140 0.80920 -0.21700
H 	H 	0.75770 0.37060 0.82210 0.11100
C 	C 	0.73660 0.39180 0.79070 0.16300
C 	C 	0.74600 0.42370 0.77280 -0.21600
H 	H 	0.72790 0.42520 0.76040 0.10800
C 	C 	0.78110 0.45290 0.77310 0.13500
H 	H 	0.78710 0.47400 0.76070 0.01100
C 	C 	0.70170 0.36210 0.79050 -0.09900
C 	C 	0.69520 0.32870 0.79090 0.03100
H 	H 	0.71540 0.32490 0.79160 0.02000
C 	C 	0.90920 0.55470 0.84830 0.48200
C 	C 	0.90540 0.56250 0.88050 -0.17500
C 	C 	0.88220 0.57450 0.89090 0.07400
H 	H 	0.86810 0.57900 0.87570 0.02800
C 	C 	0.87970 0.58020 0.92560 -0.10700
H 	H 	0.86410 0.58860 0.93300 0.07300
C 	C 	0.89990 0.57340 0.94740 -0.00200
C 	C 	0.92280 0.55950 0.93710 -0.09600
H 	H 	0.93620 0.55430 0.95250 0.06500
C 	C 	0.92510 0.55360 0.90340 0.06300
H 	H 	0.93960 0.54370 0.89610 0.03700
C 	C 	0.89970 0.58140 0.98130 0.18100
C 	C 	0.86970 0.57430 0.99680 -0.27100
H 	H 	0.84710 0.56010 0.98610 0.12400
C 	C 	0.87000 0.58650 0.02760 0.19800
C 	C 	0.90060 0.59950 0.04390 -0.25400
H 	H 	0.90040 0.60510 0.06630 0.11700
C 	C 	0.93310 0.60530 0.03030 0.15900
C 	C 	0.93180 0.59570 0.99790 -0.23800
H 	H 	0.95310 0.59900 0.98730 0.11400
C 	C 	0.96750 0.62370 0.04750 -0.01300
C 	C 	0.97620 0.65040 0.06840 -0.07400
H 	H 	0.95860 0.65740 0.07280 0.05800
C 	C 	0.00880 0.66850 0.08430 0.01600
H 	H 	0.01460 0.68810 0.09880 0.05000
C 	C 	0.03330 0.65600 0.07740 -0.09300
C 	C 	0.02530 0.62920 0.05770 0.03300
H 	H 	0.04200 0.62070 0.05480 0.04600
C 	C 	0.99370 0.61330 0.04130 -0.08600
H 	H 	0.98890 0.59510 0.02550 0.05900
C 	C 	0.06890 0.67440 0.09460 0.37000
C 	C 	0.83840 0.58030 0.04250 -0.03900
C 	C 	0.80340 0.55250 0.03210 -0.07600
H 	H 	0.80070 0.53910 0.01270 0.05400
C 	C 	0.77210 0.54490 0.05140 0.05300
H 	H 	0.74940 0.52380 0.04710 0.02800
C 	C 	0.77480 0.56850 0.07660 -0.16800
C 	C 	0.80970 0.59840 0.08550 0.03600
H 	H 	0.81200 0.61380 0.10330 0.03400
C 	C 	0.84100 0.60500 0.06730 -0.07400
H 	H 	0.86380 0.62600 0.07170 0.05400
C 	C 	0.74270 0.56500 0.09620 0.55000
C 	C 	0.93960 0.50550 0.75910 0.41400
C 	C 	0.95730 0.48800 0.74390 -0.15600
C 	C 	0.97730 0.47660 0.76080 0.09400
H 	H 	0.98030 0.48120 0.78350 0.02200
C 	C 	0.99220 0.45990 0.74780 -0.13000
H 	H 	0.00500 0.45200 0.76140 0.07300
C 	C 	0.99020 0.45300 0.71460 -0.00200
C 	C 	0.96860 0.46250 0.69630 -0.10900
H 	H 	0.96450 0.45630 0.67380 0.07100
C 	C 	0.95310 0.48050 0.71080 0.06600
H 	H 	0.93940 0.48800 0.69800 0.03100
C 	C 	0.00590 0.43370 0.69870 0.20700
C 	C 	0.00220 0.40170 0.71570 -0.32500
H 	H 	0.99110 0.39450 0.73660 0.14500
C 	C 	0.01560 0.38330 0.69970 0.30700
C 	C 	0.02920 0.39140 0.67120 -0.45200
H 	H 	0.03660 0.37600 0.66130 0.19300
C 	C 	0.03400 0.42130 0.65370 0.37800
C 	C 	0.02080 0.44330 0.66840 -0.34700
H 	H 	0.02250 0.46380 0.65740 0.15500
C 	C 	0.05000 0.43070 0.62210 -0.39100
C 	C 	0.07290 0.42200 0.61110 0.31200
H 	H 	0.08050 0.40910 0.62500 -0.07900
C 	C 	0.08660 0.43010 0.58040 -0.30700
H 	H 	0.10600 0.42610 0.57480 0.14900
C 	C 	0.07440 0.44310 0.55890 0.11500
C 	C 	0.04730 0.45020 0.56870 -0.28000
H 	H 	0.03750 0.46050 0.55420 0.14600
C 	C 	0.03560 0.44190 0.60000 0.28500
H 	H 	0.01540 0.44430 0.60630 -0.07300
C 	C 	0.08650 0.44950 0.52750 0.30700
C 	C 	0.02240 0.35120 0.74650 -0.09300
H 	H 	0.03210 0.37340 0.75820 0.06100
C 	C 	0.01300 0.34980 0.71330 -0.04100
C 	C 	0.99930 0.31740 0.69480 -0.09400
H 	H 	0.99210 0.31670 0.67280 0.06500
C 	C 	0.99670 0.28530 0.71030 0.09600
H 	H 	0.98980 0.26400 0.69800 0.02400
C 	C 	0.00470 0.28650 0.74390 -0.25000
C 	C 	0.01720 0.31840 0.76250 0.10200
H 	H 	0.02210 0.31850 0.78500 0.02500
C 	C 	0.99970 0.25600 0.75910 0.61200
Eu	Eu	0.57547 0.86915 0.12171 2.73000
In	In	0.36226 0.88980 0.46994 1.97200
O 	O 	0.51759 0.84111 0.10515 -0.54800
O 	O 	0.53557 0.81396 0.13995 -0.56300
O 	O 	0.59503 0.87727 0.17229 -0.61400
O 	O 	0.55518 0.89224 0.16124 -0.55600
O 	O 	0.74245 0.03407 0.44451 -0.55200
O 	O 	0.75753 0.99646 0.42233 -0.54900
O 	O 	0.58557 0.84603 0.07574 -0.55000
O 	O 	0.61289 0.84785 0.12113 -0.58200
O 	O 	0.41147 0.91923 0.45133 -0.65300
O 	O 	0.38307 0.87453 0.42203 -0.59600
O 	O 	0.77727 0.77873 0.85123 -0.52400
O 	O 	0.73727 0.79363 0.84113 -0.48900
O 	O 	0.67797 0.59333 0.11773 -0.64600
O 	O 	0.65227 0.56253 0.07363 -0.40100
C 	C 	0.51107 0.81483 0.12363 0.40100
C 	C 	0.47438 0.78474 0.12483 -0.18300
C 	C 	0.46627 0.75383 0.14293 0.13100
H 	H 	0.48447 0.75243 0.15523 0.01000
C 	C 	0.43037 0.72473 0.14253 -0.21700
H 	H 	0.42437 0.70393 0.15543 0.11100
C 	C 	0.40327 0.72513 0.12403 0.16300
C 	C 	0.41267 0.75703 0.10613 -0.21600
H 	H 	0.39457 0.75853 0.09373 0.10800
C 	C 	0.44777 0.78623 0.10643 0.13500
H 	H 	0.45377 0.80733 0.09403 0.01100
C 	C 	0.36837 0.69543 0.12383 -0.09900
C 	C 	0.36187 0.66203 0.12423 0.03100
H 	H 	0.38207 0.65823 0.12493 0.02000
C 	C 	0.57587 0.88803 0.18163 0.48400
C 	C 	0.57207 0.89583 0.21383 -0.18000
C 	C 	0.54887 0.90783 0.22423 0.07900
H 	H 	0.53477 0.91233 0.20903 0.02700
C 	C 	0.54637 0.91353 0.25893 -0.11500
H 	H 	0.53077 0.92193 0.26633 0.07600
C 	C 	0.56657 0.90673 0.28073 0.00800
C 	C 	0.58947 0.89283 0.27043 -0.10300
H 	H 	0.60287 0.88763 0.28583 0.06800
C 	C 	0.59177 0.88693 0.23673 0.06800
H 	H 	0.60627 0.87703 0.22943 0.03500
C 	C 	0.56637 0.91473 0.31463 0.16500
C 	C 	0.53637 0.90763 0.33013 -0.25300
H 	H 	0.51377 0.89343 0.31943 0.11800
C 	C 	0.53667 0.91983 0.36093 0.18000
C 	C 	0.56727 0.93283 0.37723 -0.23600
H 	H 	0.56707 0.93843 0.39963 0.11100
C 	C 	0.59977 0.93863 0.36363 0.14300
C 	C 	0.59847 0.92903 0.33123 -0.22200
H 	H 	0.61977 0.93233 0.32063 0.10900
C 	C 	0.63417 0.95703 0.38083 0.00200
C 	C 	0.64287 0.98373 0.40173 -0.08900
H 	H 	0.62527 0.99073 0.40613 0.06300
C 	C 	0.67547 0.00183 0.41763 0.02800
H 	H 	0.68127 0.02143 0.43213 0.04600
C 	C 	0.69997 0.98933 0.41073 -0.10300
C 	C 	0.69197 0.96253 0.39103 0.04700
H 	H 	0.70867 0.95403 0.38813 0.04100
C 	C 	0.66037 0.94663 0.37463 -0.10000
H 	H 	0.65557 0.92843 0.35883 0.06400
C 	C 	0.73557 0.00773 0.42793 0.37300
C 	C 	0.50507 0.91363 0.37583 -0.02900
C 	C 	0.47007 0.88583 0.36543 -0.08400
H 	H 	0.46737 0.87243 0.34603 0.05700
C 	C 	0.43877 0.87823 0.38473 0.05800
H 	H 	0.41607 0.85713 0.38043 0.02600
C 	C 	0.44147 0.90183 0.40993 -0.17200
C 	C 	0.47637 0.93173 0.41883 0.04100
H 	H 	0.47867 0.94713 0.43663 0.03200
C 	C 	0.50767 0.93833 0.40063 -0.08100
H 	H 	0.53047 0.95933 0.40503 0.05600
C 	C 	0.40937 0.89833 0.42953 0.55100
C 	C 	0.60627 0.83883 0.09243 0.41300
C 	C 	0.62397 0.82133 0.07723 -0.15500
C 	C 	0.64397 0.80993 0.09413 0.09200
H 	H 	0.64697 0.81453 0.11683 0.02300
C 	C 	0.65887 0.79323 0.08113 -0.12800
H 	H 	0.67167 0.78533 0.09473 0.07200
C 	C 	0.65687 0.78633 0.04793 -0.00300
C 	C 	0.63527 0.79583 0.02963 -0.10800
H 	H 	0.63117 0.78963 0.00713 0.07100
C 	C 	0.61977 0.81383 0.04413 0.06500
H 	H 	0.60607 0.82133 0.03133 0.03100
C 	C 	0.67257 0.76703 0.03203 0.20700
C 	C 	0.66887 0.73503 0.04903 -0.32500
H 	H 	0.65777 0.72783 0.06993 0.14600
C 	C 	0.68227 0.71663 0.03303 0.30800
C 	C 	0.69587 0.72473 0.00453 -0.45200
H 	H 	0.70327 0.70933 0.99463 0.19300
C 	C 	0.70067 0.75463 0.98703 0.37800
C 	C 	0.68747 0.77663 0.00173 -0.34700
H 	H 	0.68917 0.79713 0.99073 0.15500
C 	C 	0.71667 0.76403 0.95543 -0.39000
C 	C 	0.73957 0.75533 0.94443 0.31100
H 	H 	0.74717 0.74243 0.95833 -0.07900
C 	C 	0.75327 0.76343 0.91373 -0.30600
H 	H 	0.77267 0.75943 0.90813 0.14900
C 	C 	0.74107 0.77643 0.89223 0.11400
C 	C 	0.71397 0.78353 0.90203 -0.27900
H 	H 	0.70417 0.79383 0.88753 0.14600
C 	C 	0.70227 0.77523 0.93333 0.28400
H 	H 	0.68207 0.77763 0.93963 -0.07300
C 	C 	0.75317 0.78283 0.86083 0.30700
C 	C 	0.68907 0.68453 0.07983 -0.09300
H 	H 	0.69877 0.70673 0.09153 0.06100
C 	C 	0.67967 0.68313 0.04663 -0.04100
C 	C 	0.66597 0.65073 0.02813 -0.09400
H 	H 	0.65877 0.65003 0.00613 0.06500
C 	C 	0.66337 0.61863 0.04363 0.09700
H 	H 	0.65647 0.59733 0.03133 0.02400
C 	C 	0.67137 0.61983 0.07723 -0.25000
C 	C 	0.68387 0.65173 0.09583 0.10200
H 	H 	0.68877 0.65183 0.11833 0.02500
C 	C 	0.66637 0.58933 0.09243 0.61300
Eu	Eu	0.24214 0.20248 0.45504 2.73000
In	In	0.02892 0.22314 0.80328 1.97200
O 	O 	0.18425 0.17445 0.43849 -0.54700
O 	O 	0.20223 0.14730 0.47329 -0.56300
O 	O 	0.26169 0.21061 0.50563 -0.61400
O 	O 	0.22184 0.22558 0.49458 -0.55500
O 	O 	0.40911 0.36741 0.77785 -0.55200
O 	O 	0.42419 0.32980 0.75567 -0.54900
O 	O 	0.25223 0.17937 0.40908 -0.55000
O 	O 	0.27955 0.18119 0.45447 -0.58200
O 	O 	0.07813 0.25257 0.78467 -0.65300
O 	O 	0.04973 0.20787 0.75537 -0.59600
O 	O 	0.44393 0.11207 0.18457 -0.52400
O 	O 	0.40393 0.12697 0.17447 -0.48900
O 	O 	0.34463 0.92667 0.45107 -0.64600
O 	O 	0.31893 0.89587 0.40697 -0.40100
C 	C 	0.17773 0.14817 0.45697 0.40000
C 	C 	0.14104 0.11808 0.45817 -0.18100
C 	C 	0.13293 0.08717 0.47627 0.12800
H 	H 	0.15113 0.08577 0.48857 0.01000
C 	C 	0.09703 0.05807 0.47587 -0.21500
H 	H 	0.09103 0.03727 0.48877 0.11000
C 	C 	0.06993 0.05847 0.45737 0.16000
C 	C 	0.07933 0.09037 0.43947 -0.21400
H 	H 	0.06123 0.09187 0.42707 0.10700
C 	C 	0.11443 0.11957 0.43977 0.13300
H 	H 	0.12043 0.14067 0.42737 0.01200
C 	C 	0.03503 0.02877 0.45717 -0.09500
C 	C 	0.02853 0.99537 0.45757 0.02700
H 	H 	0.04873 0.99157 0.45827 0.02200
C 	C 	0.24253 0.22137 0.51497 0.48300
C 	C 	0.23873 0.22917 0.54717 -0.17800
C 	C 	0.21553 0.24117 0.55757 0.07700
H 	H 	0.20143 0.24567 0.54237 0.02700
C 	C 	0.21303 0.24687 0.59227 -0.11100
H 	H 	0.19743 0.25527 0.59967 0.07400
C 	C 	0.23323 0.24007 0.61407 0.00300
C 	C 	0.25613 0.22617 0.60377 -0.10000
H 	H 	0.26953 0.22097 0.61917 0.06600
C 	C 	0.25843 0.22027 0.57007 0.06500
H 	H 	0.27293 0.21037 0.56277 0.03600
C 	C 	0.23303 0.24807 0.64797 0.17300
C 	C 	0.20303 0.24097 0.66347 -0.26200
H 	H 	0.18043 0.22677 0.65277 0.12100
C 	C 	0.20333 0.25317 0.69427 0.18900
C 	C 	0.23393 0.26617 0.71057 -0.24500
H 	H 	0.23373 0.27177 0.73297 0.11400
C 	C 	0.26643 0.27197 0.69697 0.15100
C 	C 	0.26513 0.26237 0.66457 -0.23000
H 	H 	0.28643 0.26567 0.65397 0.11200
C 	C 	0.30083 0.29037 0.71417 -0.00500
C 	C 	0.30953 0.31707 0.73507 -0.08200
H 	H 	0.29193 0.32407 0.73947 0.06100
C 	C 	0.34213 0.33517 0.75097 0.02200
H 	H 	0.34793 0.35477 0.76547 0.04800
C 	C 	0.36663 0.32267 0.74407 -0.09900
C 	C 	0.35863 0.29587 0.72437 0.04000
H 	H 	0.37533 0.28737 0.72147 0.04300
C 	C 	0.32703 0.27997 0.70797 -0.09300
H 	H 	0.32223 0.26177 0.69217 0.06200
C 	C 	0.40223 0.34107 0.76127 0.37200
C 	C 	0.17173 0.24697 0.70917 -0.03400
C 	C 	0.13673 0.21917 0.69877 -0.08000
H 	H 	0.13403 0.20577 0.67937 0.05500
C 	C 	0.10543 0.21157 0.71807 0.05600
H 	H 	0.08273 0.19047 0.71377 0.02700
C 	C 	0.10813 0.23517 0.74327 -0.17000
C 	C 	0.14303 0.26507 0.75217 0.03900
H 	H 	0.14533 0.28047 0.76997 0.03300
C 	C 	0.17433 0.27167 0.73397 -0.07800
H 	H 	0.19713 0.29267 0.73837 0.05500
C 	C 	0.07603 0.23167 0.76287 0.55000
C 	C 	0.27293 0.17217 0.42577 0.41300
C 	C 	0.29063 0.15467 0.41057 -0.15400
C 	C 	0.31063 0.14327 0.42747 0.09200
H 	H 	0.31363 0.14787 0.45017 0.02300
C 	C 	0.32553 0.12657 0.41447 -0.12700
H 	H 	0.33833 0.11867 0.42807 0.07200
C 	C 	0.32353 0.11967 0.38127 -0.00300
C 	C 	0.30193 0.12917 0.36297 -0.10800
H 	H 	0.29783 0.12297 0.34047 0.07100
C 	C 	0.28643 0.14717 0.37747 0.06500
H 	H 	0.27273 0.15467 0.36467 0.03100
C 	C 	0.33923 0.10037 0.36537 0.20700
C 	C 	0.33553 0.06837 0.38237 -0.32500
H 	H 	0.32443 0.06117 0.40327 0.14600
C 	C 	0.34893 0.04997 0.36637 0.30800
C 	C 	0.36253 0.05807 0.33787 -0.45200
H 	H 	0.36993 0.04267 0.32797 0.19300
C 	C 	0.36733 0.08797 0.32037 0.37800
C 	C 	0.35413 0.10997 0.33507 -0.34700
H 	H 	0.35583 0.13047 0.32407 0.15500
C 	C 	0.38333 0.09737 0.28877 -0.39000
C 	C 	0.40623 0.08867 0.27777 0.31100
H 	H 	0.41383 0.07577 0.29167 -0.07900
C 	C 	0.41993 0.09677 0.24707 -0.30700
H 	H 	0.43933 0.09277 0.24147 0.14900
C 	C 	0.40773 0.10977 0.22557 0.11400
C 	C 	0.38063 0.11687 0.23537 -0.27900
H 	H 	0.37083 0.12717 0.22087 0.14600
C 	C 	0.36893 0.10857 0.26667 0.28400
H 	H 	0.34873 0.11097 0.27297 -0.07300
C 	C 	0.41983 0.11617 0.19417 0.30700
C 	C 	0.35573 0.01787 0.41317 -0.09300
H 	H 	0.36543 0.04007 0.42487 0.06100
C 	C 	0.34633 0.01647 0.37997 -0.04200
C 	C 	0.33263 0.98407 0.36147 -0.09400
H 	H 	0.32543 0.98337 0.33947 0.06500
C 	C 	0.33003 0.95197 0.37697 0.09700
H 	H 	0.32313 0.93067 0.36467 0.02400
C 	C 	0.33803 0.95317 0.41057 -0.25000
C 	C 	0.35053 0.98507 0.42917 0.10200
H 	H 	0.35543 0.98517 0.45167 0.02500
C 	C 	0.33303 0.92267 0.42577 0.61200
Eu	Eu	0.46418 0.37299 0.78837 2.73000
In	In	0.44353 0.13912 0.13661 1.97200
O 	O 	0.49222 0.34314 0.77182 -0.54700
O 	O 	0.51937 0.38827 0.80662 -0.56300
O 	O 	0.45606 0.38442 0.83896 -0.61400
O 	O 	0.44109 0.32960 0.82791 -0.55600
O 	O 	0.29926 0.37504 0.11118 -0.55200
O 	O 	0.33687 0.42773 0.08900 -0.54900
O 	O 	0.48730 0.40620 0.74241 -0.55000
O 	O 	0.48548 0.43170 0.78780 -0.58200
O 	O 	0.41410 0.15890 0.11800 -0.65300
O 	O 	0.45880 0.17520 0.08870 -0.59600
O 	O 	0.55460 0.66520 0.51790 -0.52400
O 	O 	0.53970 0.61030 0.50780 -0.48900
O 	O 	0.74000 0.75130 0.78440 -0.64600
O 	O 	0.77080 0.75640 0.74030 -0.40100
C 	C 	0.51850 0.36290 0.79030 0.40100
C 	C 	0.54859 0.35630 0.79150 -0.18300
C 	C 	0.57950 0.37910 0.80960 0.13100
H 	H 	0.58090 0.39870 0.82190 0.01000
C 	C 	0.60860 0.37230 0.80920 -0.21700
H 	H 	0.62940 0.38710 0.82210 0.11100
C 	C 	0.60820 0.34480 0.79070 0.16300
C 	C 	0.57630 0.32230 0.77280 -0.21600
H 	H 	0.57480 0.30270 0.76040 0.10800
C 	C 	0.54710 0.32820 0.77310 0.13500
H 	H 	0.52600 0.31310 0.76070 0.01100
C 	C 	0.63790 0.33960 0.79050 -0.09900
C 	C 	0.67130 0.36650 0.79090 0.03100
H 	H 	0.67510 0.39050 0.79160 0.02000
C 	C 	0.44530 0.35450 0.84830 0.48300
C 	C 	0.43750 0.34290 0.88050 -0.17700
C 	C 	0.42550 0.30770 0.89090 0.07600
H 	H 	0.42100 0.28910 0.87570 0.02800
C 	C 	0.41980 0.29950 0.92560 -0.11100
H 	H 	0.41140 0.27550 0.93300 0.07400
C 	C 	0.42660 0.32650 0.94740 0.00200
C 	C 	0.44050 0.36330 0.93710 -0.10000
H 	H 	0.44570 0.38190 0.95250 0.06600
C 	C 	0.44640 0.37150 0.90340 0.06500
H 	H 	0.45630 0.39590 0.89610 0.03600
C 	C 	0.41860 0.31830 0.98130 0.17300
C 	C 	0.42570 0.29540 0.99680 -0.26300
H 	H 	0.43990 0.28700 0.98610 0.12200
C 	C 	0.41350 0.28350 0.02760 0.19000
C 	C 	0.40050 0.30110 0.04390 -0.24600
H 	H 	0.39490 0.29530 0.06630 0.11400
C 	C 	0.39470 0.32780 0.03030 0.15200
C 	C 	0.40430 0.33610 0.99790 -0.23100
H 	H 	0.40100 0.35410 0.98730 0.11200
C 	C 	0.37630 0.34380 0.04750 -0.00600
C 	C 	0.34960 0.32580 0.06840 -0.08100
H 	H 	0.34260 0.30120 0.07280 0.06100
C 	C 	0.33150 0.34030 0.08430 0.02200
H 	H 	0.31190 0.32650 0.09880 0.04800
C 	C 	0.34400 0.37730 0.07740 -0.09800
C 	C 	0.37080 0.39610 0.05770 0.03900
H 	H 	0.37930 0.42130 0.05480 0.04400
C 	C 	0.38670 0.38040 0.04130 -0.09200
H 	H 	0.40490 0.39380 0.02550 0.06100
C 	C 	0.32560 0.39450 0.09460 0.37100
C 	C 	0.41970 0.25810 0.04250 -0.03400
C 	C 	0.44750 0.25090 0.03210 -0.08000
H 	H 	0.46090 0.26160 0.01270 0.05500
C 	C 	0.45510 0.22720 0.05140 0.05600
H 	H 	0.47620 0.22560 0.04710 0.02700
C 	C 	0.43150 0.20630 0.07660 -0.17000
C 	C 	0.40160 0.21130 0.08550 0.03800
H 	H 	0.38620 0.19820 0.10330 0.03300
C 	C 	0.39500 0.23600 0.06730 -0.07800
H 	H 	0.37400 0.23780 0.07170 0.05500
C 	C 	0.43500 0.17770 0.09620 0.55000
C 	C 	0.49450 0.43410 0.75910 0.41300
C 	C 	0.51200 0.46930 0.74390 -0.15500
C 	C 	0.52340 0.50070 0.76080 0.09300
H 	H 	0.51880 0.49910 0.78350 0.02300
C 	C 	0.54010 0.53230 0.74780 -0.12800
H 	H 	0.54800 0.55300 0.76140 0.07200
C 	C 	0.54700 0.53720 0.71460 -0.00300
C 	C 	0.53750 0.50610 0.69630 -0.10800
H 	H 	0.54370 0.50820 0.67380 0.07100
C 	C 	0.51950 0.47260 0.71080 0.06500
H 	H 	0.51200 0.45140 0.69800 0.03100
C 	C 	0.56630 0.57220 0.69870 0.20700
C 	C 	0.59830 0.60050 0.71570 -0.32500
H 	H 	0.60550 0.59660 0.73660 0.14600
C 	C 	0.61670 0.63230 0.69970 0.30700
C 	C 	0.60860 0.63780 0.67120 -0.45200
H 	H 	0.62400 0.66060 0.66130 0.19300
C 	C 	0.57870 0.61270 0.65370 0.37800
C 	C 	0.55670 0.57750 0.66840 -0.34700
H 	H 	0.53620 0.55870 0.65740 0.15500
C 	C 	0.56930 0.61930 0.62210 -0.39000
C 	C 	0.57800 0.65090 0.61110 0.31100
H 	H 	0.59090 0.67140 0.62500 -0.07900
C 	C 	0.56990 0.65650 0.58040 -0.30600
H 	H 	0.57390 0.67990 0.57480 0.14900
C 	C 	0.55690 0.63130 0.55890 0.11400
C 	C 	0.54980 0.59710 0.56870 -0.27900
H 	H 	0.53950 0.57700 0.55420 0.14600
C 	C 	0.55810 0.59370 0.60000 0.28400
H 	H 	0.55570 0.57110 0.60630 -0.07300
C 	C 	0.55050 0.63700 0.52750 0.30700
C 	C 	0.64880 0.67120 0.74650 -0.09300
H 	H 	0.62660 0.65870 0.75820 0.06100
C 	C 	0.65020 0.66320 0.71330 -0.04100
C 	C 	0.68260 0.68190 0.69480 -0.09400
H 	H 	0.68330 0.67540 0.67280 0.06500
C 	C 	0.71470 0.71140 0.71030 0.09700
H 	H 	0.73600 0.72580 0.69800 0.02400
C 	C 	0.71350 0.71820 0.74390 -0.25000
C 	C 	0.68160 0.69880 0.76250 0.10200
H 	H 	0.68150 0.70360 0.78500 0.02500
C 	C 	0.74400 0.74370 0.75910 0.61200
Eu	Eu	0.13085 0.70632 0.12171 2.73000
In	In	0.11020 0.47245 0.46994 1.97200
O 	O 	0.15889 0.67647 0.10515 -0.54700
O 	O 	0.18604 0.72160 0.13995 -0.56300
O 	O 	0.12273 0.71775 0.17229 -0.61400
O 	O 	0.10776 0.66293 0.16124 -0.55600
O 	O 	0.96593 0.70837 0.44451 -0.55200
O 	O 	0.00354 0.76106 0.42233 -0.54900
O 	O 	0.15397 0.73953 0.07574 -0.55000
O 	O 	0.15215 0.76503 0.12113 -0.58200
O 	O 	0.08077 0.49223 0.45133 -0.65300
O 	O 	0.12547 0.50853 0.42203 -0.59600
O 	O 	0.22127 0.99853 0.85123 -0.52400
O 	O 	0.20637 0.94363 0.84113 -0.48900
O 	O 	0.40667 0.08463 0.11773 -0.64600
O 	O 	0.43747 0.08973 0.07363 -0.40200
C 	C 	0.18517 0.69623 0.12363 0.40100
C 	C 	0.21526 0.68963 0.12483 -0.18300
C 	C 	0.24617 0.71243 0.14293 0.13100
H 	H 	0.24757 0.73203 0.15523 0.01000
C 	C 	0.27527 0.70563 0.14253 -0.21700
H 	H 	0.29607 0.72043 0.15543 0.11100
C 	C 	0.27487 0.67813 0.12403 0.16300
C 	C 	0.24297 0.65563 0.10613 -0.21600
H 	H 	0.24147 0.63603 0.09373 0.10800
C 	C 	0.21377 0.66153 0.10643 0.13500
H 	H 	0.19267 0.64643 0.09403 0.01100
C 	C 	0.30457 0.67293 0.12383 -0.09900
C 	C 	0.33797 0.69983 0.12423 0.03100
H 	H 	0.34177 0.72383 0.12493 0.02000
C 	C 	0.11197 0.68783 0.18163 0.48400
C 	C 	0.10417 0.67623 0.21383 -0.17900
C 	C 	0.09217 0.64103 0.22423 0.07900
H 	H 	0.08767 0.62243 0.20903 0.02700
C 	C 	0.08647 0.63283 0.25893 -0.11500
H 	H 	0.07807 0.60883 0.26633 0.07600
C 	C 	0.09327 0.65983 0.28073 0.00700
C 	C 	0.10717 0.69663 0.27043 -0.10300
H 	H 	0.11237 0.71523 0.28583 0.06800
C 	C 	0.11307 0.70483 0.23673 0.06800
H 	H 	0.12297 0.72923 0.22943 0.03500
C 	C 	0.08527 0.65163 0.31463 0.16500
C 	C 	0.09237 0.62873 0.33013 -0.25400
H 	H 	0.10657 0.62033 0.31943 0.11800
C 	C 	0.08017 0.61683 0.36093 0.18100
C 	C 	0.06717 0.63443 0.37723 -0.23700
H 	H 	0.06157 0.62863 0.39963 0.11100
C 	C 	0.06137 0.66113 0.36363 0.14300
C 	C 	0.07097 0.66943 0.33123 -0.22300
H 	H 	0.06767 0.68743 0.32063 0.10900
C 	C 	0.04297 0.67713 0.38083 0.00200
C 	C 	0.01627 0.65913 0.40173 -0.08800
H 	H 	0.00927 0.63453 0.40613 0.06300
C 	C 	0.99817 0.67363 0.41763 0.02700
H 	H 	0.97857 0.65983 0.43213 0.04600
C 	C 	0.01067 0.71063 0.41073 -0.10300
C 	C 	0.03747 0.72943 0.39103 0.04600
H 	H 	0.04597 0.75463 0.38813 0.04100
C 	C 	0.05337 0.71373 0.37463 -0.10000
H 	H 	0.07157 0.72713 0.35883 0.06400
C 	C 	0.99227 0.72783 0.42793 0.37300
C 	C 	0.08637 0.59143 0.37583 -0.02900
C 	C 	0.11417 0.58423 0.36543 -0.08300
H 	H 	0.12757 0.59493 0.34603 0.05600
C 	C 	0.12177 0.56053 0.38473 0.05800
H 	H 	0.14287 0.55893 0.38043 0.02600
C 	C 	0.09817 0.53963 0.40993 -0.17100
C 	C 	0.06827 0.54463 0.41883 0.04100
H 	H 	0.05287 0.53153 0.43663 0.03200
C 	C 	0.06167 0.56933 0.40063 -0.08100
H 	H 	0.04067 0.57113 0.40503 0.05600
C 	C 	0.10167 0.51103 0.42953 0.55100
C 	C 	0.16117 0.76743 0.09243 0.41300
C 	C 	0.17867 0.80263 0.07723 -0.15500
C 	C 	0.19007 0.83403 0.09413 0.09300
H 	H 	0.18547 0.83243 0.11683 0.02200
C 	C 	0.20677 0.86563 0.08113 -0.12800
H 	H 	0.21467 0.88633 0.09473 0.07300
C 	C 	0.21367 0.87053 0.04793 -0.00200
C 	C 	0.20417 0.83943 0.02963 -0.10800
H 	H 	0.21037 0.84153 0.00713 0.07100
C 	C 	0.18617 0.80593 0.04413 0.06500
H 	H 	0.17867 0.78473 0.03133 0.03100
C 	C 	0.23297 0.90553 0.03203 0.20700
C 	C 	0.26497 0.93383 0.04903 -0.32500
H 	H 	0.27217 0.92993 0.06993 0.14600
C 	C 	0.28337 0.96563 0.03303 0.30700
C 	C 	0.27527 0.97113 0.00453 -0.45200
H 	H 	0.29067 0.99393 0.99463 0.19300
C 	C 	0.24537 0.94603 0.98703 0.37800
C 	C 	0.22337 0.91083 0.00173 -0.34700
H 	H 	0.20287 0.89203 0.99073 0.15500
C 	C 	0.23597 0.95263 0.95543 -0.39100
C 	C 	0.24467 0.98423 0.94443 0.31200
H 	H 	0.25757 0.00473 0.95833 -0.07900
C 	C 	0.23657 0.98983 0.91373 -0.30700
H 	H 	0.24057 0.01323 0.90813 0.14900
C 	C 	0.22357 0.96463 0.89223 0.11500
C 	C 	0.21647 0.93043 0.90203 -0.28000
H 	H 	0.20617 0.91033 0.88753 0.14600
C 	C 	0.22477 0.92703 0.93333 0.28500
H 	H 	0.22237 0.90443 0.93963 -0.07300
C 	C 	0.21717 0.97033 0.86083 0.30700
C 	C 	0.31547 0.00453 0.07983 -0.09400
H 	H 	0.29327 0.99203 0.09153 0.06200
C 	C 	0.31687 0.99653 0.04663 -0.04000
C 	C 	0.34927 0.01523 0.02813 -0.09500
H 	H 	0.34997 0.00873 0.00613 0.06500
C 	C 	0.38137 0.04473 0.04363 0.09800
H 	H 	0.40267 0.05913 0.03133 0.02400
C 	C 	0.38017 0.05153 0.07723 -0.25100
C 	C 	0.34827 0.03213 0.09583 0.10300
H 	H 	0.34817 0.03693 0.11833 0.02400
C 	C 	0.41067 0.07703 0.09243 0.61300
Eu	Eu	0.79752 0.03966 0.45504 2.73000
In	In	0.77686 0.80579 0.80328 1.97200
O 	O 	0.82555 0.00981 0.43849 -0.54700
O 	O 	0.85270 0.05494 0.47329 -0.56300
O 	O 	0.78939 0.05109 0.50563 -0.61500
O 	O 	0.77442 0.99627 0.49458 -0.55600
O 	O 	0.63259 0.04171 0.77785 -0.55300
O 	O 	0.67020 0.09440 0.75567 -0.55000
O 	O 	0.82063 0.07287 0.40908 -0.55000
O 	O 	0.81881 0.09837 0.45447 -0.58200
O 	O 	0.74743 0.82557 0.78467 -0.65400
O 	O 	0.79213 0.84187 0.75537 -0.59600
O 	O 	0.88793 0.33187 0.18457 -0.52400
O 	O 	0.87303 0.27697 0.17447 -0.48900
O 	O 	0.07333 0.41797 0.45107 -0.64600
O 	O 	0.10413 0.42307 0.40697 -0.40200
C 	C 	0.85183 0.02957 0.45697 0.40100
C 	C 	0.88192 0.02297 0.45817 -0.18100
C 	C 	0.91283 0.04577 0.47627 0.12800
H 	H 	0.91423 0.06537 0.48857 0.01000
C 	C 	0.94193 0.03897 0.47587 -0.21500
H 	H 	0.96273 0.05377 0.48877 0.11000
C 	C 	0.94153 0.01147 0.45737 0.16000
C 	C 	0.90963 0.98897 0.43947 -0.21300
H 	H 	0.90813 0.96937 0.42707 0.10700
C 	C 	0.88043 0.99487 0.43977 0.13300
H 	H 	0.85933 0.97977 0.42737 0.01200
C 	C 	0.97123 0.00627 0.45717 -0.09500
C 	C 	0.00463 0.03317 0.45757 0.02700
H 	H 	0.00843 0.05717 0.45827 0.02200
C 	C 	0.77863 0.02117 0.51497 0.48400
C 	C 	0.77083 0.00957 0.54717 -0.18200
C 	C 	0.75883 0.97437 0.55757 0.08200
H 	H 	0.75433 0.95577 0.54237 0.02600
C 	C 	0.75313 0.96617 0.59227 -0.11900
H 	H 	0.74473 0.94217 0.59967 0.07700
C 	C 	0.75993 0.99317 0.61407 0.01300
C 	C 	0.77383 0.02997 0.60377 -0.10700
H 	H 	0.77903 0.04857 0.61917 0.06900
C 	C 	0.77973 0.03817 0.57007 0.07000
H 	H 	0.78963 0.06257 0.56277 0.03400
C 	C 	0.75193 0.98497 0.64797 0.15800
C 	C 	0.75903 0.96207 0.66347 -0.24500
H 	H 	0.77323 0.95367 0.65277 0.11600
C 	C 	0.74683 0.95017 0.69427 0.17300
C 	C 	0.73383 0.96777 0.71057 -0.22900
H 	H 	0.72823 0.96197 0.73297 0.10800
C 	C 	0.72803 0.99447 0.69697 0.13500
C 	C 	0.73763 0.00277 0.66457 -0.21600
H 	H 	0.73433 0.02077 0.65397 0.10600
C 	C 	0.70963 0.01047 0.71417 0.01000
C 	C 	0.68293 0.99247 0.73507 -0.09600
H 	H 	0.67593 0.96787 0.73947 0.06600
C 	C 	0.66483 0.00697 0.75097 0.03500
H 	H 	0.64523 0.99317 0.76547 0.04300
C 	C 	0.67733 0.04397 0.74407 -0.11000
C 	C 	0.70413 0.06277 0.72437 0.05500
H 	H 	0.71263 0.08797 0.72147 0.03800
C 	C 	0.72003 0.04707 0.70797 -0.10800
H 	H 	0.73823 0.06047 0.69217 0.06700
C 	C 	0.65893 0.06117 0.76127 0.37600
C 	C 	0.75303 0.92477 0.70917 -0.02400
C 	C 	0.78083 0.91757 0.69877 -0.08700
H 	H 	0.79423 0.92827 0.67937 0.05800
C 	C 	0.78843 0.89387 0.71807 0.06100
H 	H 	0.80953 0.89227 0.71377 0.02600
C 	C 	0.76483 0.87297 0.74327 -0.17300
C 	C 	0.73493 0.87797 0.75217 0.04300
H 	H 	0.71953 0.86487 0.76997 0.03100
C 	C 	0.72833 0.90267 0.73397 -0.08500
H 	H 	0.70733 0.90447 0.73837 0.05800
C 	C 	0.76833 0.84437 0.76287 0.55200
C 	C 	0.82783 0.10077 0.42577 0.41300
C 	C 	0.84533 0.13597 0.41057 -0.15400
C 	C 	0.85673 0.16737 0.42747 0.09200
H 	H 	0.85213 0.16577 0.45017 0.02300
C 	C 	0.87343 0.19897 0.41447 -0.12800
H 	H 	0.88133 0.21967 0.42807 0.07200
C 	C 	0.88033 0.20387 0.38127 -0.00300
C 	C 	0.87083 0.17277 0.36297 -0.10800
H 	H 	0.87703 0.17487 0.34047 0.07100
C 	C 	0.85283 0.13927 0.37747 0.06500
H 	H 	0.84533 0.11807 0.36467 0.03100
C 	C 	0.89963 0.23887 0.36537 0.20700
C 	C 	0.93163 0.26717 0.38237 -0.32500
H 	H 	0.93883 0.26327 0.40327 0.14600
C 	C 	0.95003 0.29897 0.36637 0.30800
C 	C 	0.94193 0.30447 0.33787 -0.45200
H 	H 	0.95733 0.32727 0.32797 0.19300
C 	C 	0.91203 0.27937 0.32037 0.37800
C 	C 	0.89003 0.24417 0.33507 -0.34700
H 	H 	0.86953 0.22537 0.32407 0.15500
C 	C 	0.90263 0.28597 0.28877 -0.39000
C 	C 	0.91133 0.31757 0.27777 0.31100
H 	H 	0.92423 0.33807 0.29167 -0.07900
C 	C 	0.90323 0.32317 0.24707 -0.30700
H 	H 	0.90723 0.34657 0.24147 0.14900
C 	C 	0.89023 0.29797 0.22557 0.11400
C 	C 	0.88313 0.26377 0.23537 -0.27900
H 	H 	0.87283 0.24367 0.22087 0.14600
C 	C 	0.89143 0.26037 0.26667 0.28400
H 	H 	0.88903 0.23777 0.27297 -0.07300
C 	C 	0.88383 0.30367 0.19417 0.30700
C 	C 	0.98213 0.33787 0.41317 -0.09300
H 	H 	0.95993 0.32537 0.42487 0.06100
C 	C 	0.98353 0.32987 0.37997 -0.04200
C 	C 	0.01593 0.34857 0.36147 -0.09400
H 	H 	0.01663 0.34207 0.33947 0.06500
C 	C 	0.04803 0.37807 0.37697 0.09700
H 	H 	0.06933 0.39247 0.36467 0.02400
C 	C 	0.04683 0.38487 0.41057 -0.25000
C 	C 	0.01493 0.36547 0.42917 0.10300
H 	H 	0.01483 0.37027 0.45167 0.02500
C 	C 	0.07733 0.41037 0.42577 0.61300
Eu	Eu	0.37299 0.90881 0.21163 2.73000
In	In	0.13912 0.69559 0.86339 1.97200
O 	O 	0.34314 0.85092 0.22818 -0.54800
O 	O 	0.38827 0.86890 0.19338 -0.56300
O 	O 	0.38442 0.92836 0.16104 -0.61400
O 	O 	0.32960 0.88851 0.17209 -0.55600
O 	O 	0.37504 0.07578 0.88882 -0.55200
O 	O 	0.42773 0.09086 0.91100 -0.54900
O 	O 	0.40620 0.91890 0.25759 -0.55000
O 	O 	0.43170 0.94622 0.21220 -0.58200
O 	O 	0.15890 0.74480 0.88200 -0.65300
O 	O 	0.17520 0.71640 0.91130 -0.59600
O 	O 	0.66520 0.11060 0.48210 -0.52400
O 	O 	0.61030 0.07060 0.49220 -0.48900
O 	O 	0.75130 0.01130 0.21560 -0.64600
O 	O 	0.75640 0.98560 0.25970 -0.40200
C 	C 	0.36290 0.84440 0.20970 0.40100
C 	C 	0.35630 0.80771 0.20850 -0.18300
C 	C 	0.37910 0.79960 0.19040 0.13100
H 	H 	0.39870 0.81780 0.17810 0.01000
C 	C 	0.37230 0.76370 0.19080 -0.21700
H 	H 	0.38710 0.75770 0.17790 0.11100
C 	C 	0.34480 0.73660 0.20930 0.16300
C 	C 	0.32230 0.74600 0.22720 -0.21600
H 	H 	0.30270 0.72790 0.23960 0.10800
C 	C 	0.32820 0.78110 0.22690 0.13500
H 	H 	0.31310 0.78710 0.23930 0.01100
C 	C 	0.33960 0.70170 0.20950 -0.09900
C 	C 	0.36650 0.69520 0.20910 0.03100
H 	H 	0.39050 0.71540 0.20840 0.02000
C 	C 	0.35450 0.90920 0.15170 0.48300
C 	C 	0.34290 0.90540 0.11950 -0.17900
C 	C 	0.30770 0.88220 0.10910 0.07800
H 	H 	0.28910 0.86810 0.12430 0.02700
C 	C 	0.29950 0.87970 0.07440 -0.11400
H 	H 	0.27550 0.86410 0.06700 0.07500
C 	C 	0.32650 0.89990 0.05260 0.00600
C 	C 	0.36330 0.92280 0.06290 -0.10200
H 	H 	0.38190 0.93620 0.04750 0.06700
C 	C 	0.37150 0.92510 0.09660 0.06700
H 	H 	0.39590 0.93960 0.10390 0.03500
C 	C 	0.31830 0.89970 0.01870 0.16700
C 	C 	0.29540 0.86970 0.00320 -0.25600
H 	H 	0.28700 0.84710 0.01390 0.11900
C 	C 	0.28350 0.87000 0.97240 0.18300
C 	C 	0.30110 0.90060 0.95610 -0.23900
H 	H 	0.29530 0.90040 0.93370 0.11200
C 	C 	0.32780 0.93310 0.96970 0.14500
C 	C 	0.33610 0.93180 0.00210 -0.22500
H 	H 	0.35410 0.95310 0.01270 0.11000
C 	C 	0.34380 0.96750 0.95250 -0.00000
C 	C 	0.32580 0.97620 0.93160 -0.08600
H 	H 	0.30120 0.95860 0.92720 0.06300
C 	C 	0.34030 0.00880 0.91570 0.02600
H 	H 	0.32650 0.01460 0.90120 0.04600
C 	C 	0.37730 0.03330 0.92260 -0.10200
C 	C 	0.39610 0.02530 0.94230 0.04500
H 	H 	0.42130 0.04200 0.94520 0.04200
C 	C 	0.38040 0.99370 0.95870 -0.09800
H 	H 	0.39380 0.98890 0.97450 0.06300
C 	C 	0.39450 0.06890 0.90540 0.37300
C 	C 	0.25810 0.83840 0.95750 -0.03000
C 	C 	0.25090 0.80340 0.96790 -0.08200
H 	H 	0.26160 0.80070 0.98730 0.05600
C 	C 	0.22720 0.77210 0.94860 0.05800
H 	H 	0.22560 0.74940 0.95290 0.02700
C 	C 	0.20630 0.77480 0.92340 -0.17100
C 	C 	0.21130 0.80970 0.91450 0.04000
H 	H 	0.19820 0.81200 0.89670 0.03200
C 	C 	0.23600 0.84100 0.93270 -0.08000
H 	H 	0.23780 0.86380 0.92830 0.05600
C 	C 	0.17770 0.74270 0.90380 0.55100
C 	C 	0.43410 0.93960 0.24090 0.41300
C 	C 	0.46930 0.95730 0.25610 -0.15300
C 	C 	0.50070 0.97730 0.23920 0.09100
H 	H 	0.49910 0.98030 0.21650 0.02300
C 	C 	0.53230 0.99220 0.25220 -0.12600
H 	H 	0.55300 0.00500 0.23860 0.07200
C 	C 	0.53720 0.99020 0.28540 -0.00400
C 	C 	0.50610 0.96860 0.30370 -0.10700
H 	H 	0.50820 0.96450 0.32620 0.07100
C 	C 	0.47260 0.95310 0.28920 0.06400
H 	H 	0.45140 0.93940 0.30200 0.03100
C 	C 	0.57220 0.00590 0.30130 0.20800
C 	C 	0.60050 0.00220 0.28430 -0.32600
H 	H 	0.59660 0.99110 0.26340 0.14600
C 	C 	0.63230 0.01560 0.30030 0.30800
C 	C 	0.63780 0.02920 0.32880 -0.45200
H 	H 	0.66060 0.03660 0.33870 0.19300
C 	C 	0.61270 0.03400 0.34630 0.37800
C 	C 	0.57750 0.02080 0.33160 -0.34700
H 	H 	0.55870 0.02250 0.34260 0.15500
C 	C 	0.61930 0.05000 0.37790 -0.39000
C 	C 	0.65090 0.07290 0.38890 0.31000
H 	H 	0.67140 0.08050 0.37500 -0.07800
C 	C 	0.65650 0.08660 0.41960 -0.30600
H 	H 	0.67990 0.10600 0.42520 0.14900
C 	C 	0.63130 0.07440 0.44110 0.11300
C 	C 	0.59710 0.04730 0.43130 -0.27900
H 	H 	0.57700 0.03750 0.44580 0.14600
C 	C 	0.59370 0.03560 0.40000 0.28300
H 	H 	0.57110 0.01540 0.39370 -0.07300
C 	C 	0.63700 0.08650 0.47250 0.30700
C 	C 	0.67120 0.02240 0.25350 -0.09300
H 	H 	0.65870 0.03210 0.24180 0.06100
C 	C 	0.66320 0.01300 0.28670 -0.04200
C 	C 	0.68190 0.99930 0.30520 -0.09400
H 	H 	0.67540 0.99210 0.32720 0.06500
C 	C 	0.71140 0.99670 0.28970 0.09800
H 	H 	0.72580 0.98980 0.30200 0.02400
C 	C 	0.71820 0.00470 0.25610 -0.25100
C 	C 	0.69880 0.01720 0.23750 0.10300
H 	H 	0.70360 0.02210 0.21500 0.02500
C 	C 	0.74370 0.99970 0.24090 0.61300
Eu	Eu	0.03966 0.24214 0.54496 2.72900
In	In	0.80579 0.02892 0.19672 1.97200
O 	O 	0.00981 0.18425 0.56151 -0.54800
O 	O 	0.05494 0.20223 0.52671 -0.56300
O 	O 	0.05109 0.26169 0.49437 -0.61300
O 	O 	0.99627 0.22184 0.50542 -0.55500
O 	O 	0.04171 0.40911 0.22215 -0.55000
O 	O 	0.09440 0.42419 0.24433 -0.54800
O 	O 	0.07287 0.25223 0.59092 -0.55000
O 	O 	0.09837 0.27955 0.54553 -0.58200
O 	O 	0.82557 0.07813 0.21533 -0.65300
O 	O 	0.84187 0.04973 0.24463 -0.59500
O 	O 	0.33187 0.44393 0.81543 -0.52400
O 	O 	0.27697 0.40393 0.82553 -0.48900
O 	O 	0.41797 0.34463 0.54893 -0.64600
O 	O 	0.42307 0.31893 0.59303 -0.40100
C 	C 	0.02957 0.17773 0.54303 0.40200
C 	C 	0.02297 0.14104 0.54183 -0.18400
C 	C 	0.04577 0.13293 0.52373 0.13300
H 	H 	0.06537 0.15113 0.51143 0.00900
C 	C 	0.03897 0.09703 0.52413 -0.22000
H 	H 	0.05377 0.09103 0.51123 0.11200
C 	C 	0.01147 0.06993 0.54263 0.16700
C 	C 	0.98897 0.07933 0.56053 -0.21900
H 	H 	0.96937 0.06123 0.57293 0.10900
C 	C 	0.99487 0.11443 0.56023 0.13700
H 	H 	0.97977 0.12043 0.57263 0.01100
C 	C 	0.00627 0.03503 0.54283 -0.10400
C 	C 	0.03317 0.02853 0.54243 0.03500
H 	H 	0.05717 0.04873 0.54173 0.01900
C 	C 	0.02117 0.24253 0.48503 0.48000
C 	C 	0.00957 0.23873 0.45283 -0.17200
C 	C 	0.97437 0.21553 0.44243 0.07000
H 	H 	0.95577 0.20143 0.45763 0.03000
C 	C 	0.96617 0.21303 0.40773 -0.10300
H 	H 	0.94217 0.19743 0.40033 0.07100
C 	C 	0.99317 0.23323 0.38593 -0.00900
C 	C 	0.02997 0.25613 0.39623 -0.09200
H 	H 	0.04857 0.26953 0.38083 0.06300
C 	C 	0.03817 0.25843 0.42993 0.05900
H 	H 	0.06257 0.27293 0.43723 0.03800
C 	C 	0.98497 0.23303 0.35203 0.19000
C 	C 	0.96207 0.20303 0.33653 -0.28100
H 	H 	0.95367 0.18043 0.34723 0.12800
C 	C 	0.95017 0.20333 0.30573 0.20800
C 	C 	0.96777 0.23393 0.28943 -0.26400
H 	H 	0.96197 0.23373 0.26703 0.12100
C 	C 	0.99447 0.26643 0.30303 0.16900
C 	C 	0.00277 0.26513 0.33543 -0.24700
H 	H 	0.02077 0.28643 0.34603 0.11800
C 	C 	0.01047 0.30083 0.28583 -0.02300
C 	C 	0.99247 0.30953 0.26493 -0.06500
H 	H 	0.96787 0.29193 0.26053 0.05500
C 	C 	0.00697 0.34213 0.24903 0.00800
H 	H 	0.99317 0.34793 0.23453 0.05200
C 	C 	0.04397 0.36663 0.25593 -0.08600
C 	C 	0.06277 0.35863 0.27563 0.02400
H 	H 	0.08797 0.37533 0.27853 0.04900
C 	C 	0.04707 0.32703 0.29203 -0.07600
H 	H 	0.06047 0.32223 0.30783 0.05600
C 	C 	0.06117 0.40223 0.23873 0.36700
C 	C 	0.92477 0.17173 0.29083 -0.04600
C 	C 	0.91757 0.13673 0.30123 -0.07200
H 	H 	0.92827 0.13403 0.32063 0.05200
C 	C 	0.89387 0.10543 0.28193 0.05100
H 	H 	0.89227 0.08273 0.28623 0.02900
C 	C 	0.87297 0.10813 0.25673 -0.16600
C 	C 	0.87797 0.14303 0.24783 0.03300
H 	H 	0.86487 0.14533 0.23003 0.03400
C 	C 	0.90267 0.17433 0.26603 -0.07000
H 	H 	0.90447 0.19713 0.26163 0.05200
C 	C 	0.84437 0.07603 0.23713 0.54900
C 	C 	0.10077 0.27293 0.57423 0.41300
C 	C 	0.13597 0.29063 0.58943 -0.15500
C 	C 	0.16737 0.31063 0.57253 0.09300
H 	H 	0.16577 0.31363 0.54983 0.02300
C 	C 	0.19897 0.32553 0.58553 -0.12800
H 	H 	0.21967 0.33833 0.57193 0.07300
C 	C 	0.20387 0.32353 0.61873 -0.00300
C 	C 	0.17277 0.30193 0.63703 -0.10800
H 	H 	0.17487 0.29783 0.65953 0.07100
C 	C 	0.13927 0.28643 0.62253 0.06500
H 	H 	0.11807 0.27273 0.63533 0.03100
C 	C 	0.23887 0.33923 0.63463 0.20700
C 	C 	0.26717 0.33553 0.61763 -0.32500
H 	H 	0.26327 0.32443 0.59673 0.14600
C 	C 	0.29897 0.34893 0.63363 0.30700
C 	C 	0.30447 0.36253 0.66213 -0.45200
H 	H 	0.32727 0.36993 0.67203 0.19300
C 	C 	0.27937 0.36733 0.67963 0.37800
C 	C 	0.24417 0.35413 0.66493 -0.34700
H 	H 	0.22537 0.35583 0.67593 0.15500
C 	C 	0.28597 0.38333 0.71123 -0.39000
C 	C 	0.31757 0.40623 0.72223 0.31100
H 	H 	0.33807 0.41383 0.70833 -0.07900
C 	C 	0.32317 0.41993 0.75293 -0.30600
H 	H 	0.34657 0.43933 0.75853 0.14900
C 	C 	0.29797 0.40773 0.77443 0.11400
C 	C 	0.26377 0.38063 0.76463 -0.27900
H 	H 	0.24367 0.37083 0.77913 0.14600
C 	C 	0.26037 0.36893 0.73333 0.28400
H 	H 	0.23777 0.34873 0.72703 -0.07300
C 	C 	0.30367 0.41983 0.80583 0.30700
C 	C 	0.33787 0.35573 0.58683 -0.09300
H 	H 	0.32537 0.36543 0.57513 0.06100
C 	C 	0.32987 0.34633 0.62003 -0.04100
C 	C 	0.34857 0.33263 0.63853 -0.09400
H 	H 	0.34207 0.32543 0.66053 0.06500
C 	C 	0.37807 0.33003 0.62303 0.09700
H 	H 	0.39247 0.32313 0.63533 0.02400
C 	C 	0.38487 0.33803 0.58943 -0.25000
C 	C 	0.36547 0.35053 0.57083 0.10200
H 	H 	0.37027 0.35543 0.54833 0.02500
C 	C 	0.41037 0.33303 0.57423 0.61300
Eu	Eu	0.70632 0.57547 0.87829 2.73000
In	In	0.47245 0.36226 0.53006 1.97200
O 	O 	0.67647 0.51759 0.89485 -0.54800
O 	O 	0.72160 0.53557 0.86005 -0.56300
O 	O 	0.71775 0.59503 0.82771 -0.61400
O 	O 	0.66293 0.55518 0.83876 -0.55600
O 	O 	0.70837 0.74245 0.55549 -0.55200
O 	O 	0.76106 0.75753 0.57767 -0.54900
O 	O 	0.73953 0.58557 0.92426 -0.55000
O 	O 	0.76503 0.61289 0.87887 -0.58200
O 	O 	0.49223 0.41147 0.54867 -0.65300
O 	O 	0.50853 0.38307 0.57797 -0.59600
O 	O 	0.99853 0.77727 0.14877 -0.52400
O 	O 	0.94363 0.73727 0.15887 -0.48900
O 	O 	0.08463 0.67797 0.88227 -0.64600
O 	O 	0.08973 0.65227 0.92637 -0.40100
C 	C 	0.69623 0.51107 0.87637 0.40100
C 	C 	0.68963 0.47438 0.87517 -0.18300
C 	C 	0.71243 0.46627 0.85707 0.13100
H 	H 	0.73203 0.48447 0.84477 0.01000
C 	C 	0.70563 0.43037 0.85747 -0.21700
H 	H 	0.72043 0.42437 0.84457 0.11100
C 	C 	0.67813 0.40327 0.87597 0.16300
C 	C 	0.65563 0.41267 0.89387 -0.21600
H 	H 	0.63603 0.39457 0.90627 0.10800
C 	C 	0.66153 0.44777 0.89357 0.13500
H 	H 	0.64643 0.45377 0.90597 0.01100
C 	C 	0.67293 0.36837 0.87617 -0.09900
C 	C 	0.69983 0.36187 0.87577 0.03100
H 	H 	0.72383 0.38207 0.87507 0.02000
C 	C 	0.68783 0.57587 0.81837 0.48300
C 	C 	0.67623 0.57207 0.78617 -0.17700
C 	C 	0.64103 0.54887 0.77577 0.07700
H 	H 	0.62243 0.53477 0.79097 0.02700
C 	C 	0.63283 0.54637 0.74107 -0.11100
H 	H 	0.60883 0.53077 0.73367 0.07400
C 	C 	0.65983 0.56657 0.71927 0.00300
C 	C 	0.69663 0.58947 0.72957 -0.10000
H 	H 	0.71523 0.60287 0.71417 0.06600
C 	C 	0.70483 0.59177 0.76327 0.06500
H 	H 	0.72923 0.60627 0.77057 0.03600
C 	C 	0.65163 0.56637 0.68537 0.17300
C 	C 	0.62873 0.53637 0.66987 -0.26200
H 	H 	0.62033 0.51377 0.68057 0.12100
C 	C 	0.61683 0.53667 0.63907 0.18900
C 	C 	0.63443 0.56727 0.62277 -0.24500
H 	H 	0.62863 0.56707 0.60037 0.11400
C 	C 	0.66113 0.59977 0.63637 0.15100
C 	C 	0.66943 0.59847 0.66877 -0.23000
H 	H 	0.68743 0.61977 0.67937 0.11200
C 	C 	0.67713 0.63417 0.61917 -0.00500
C 	C 	0.65913 0.64287 0.59827 -0.08200
H 	H 	0.63453 0.62527 0.59387 0.06100
C 	C 	0.67363 0.67547 0.58237 0.02200
H 	H 	0.65983 0.68127 0.56787 0.04800
C 	C 	0.71063 0.69997 0.58927 -0.09900
C 	C 	0.72943 0.69197 0.60897 0.04000
H 	H 	0.75463 0.70867 0.61187 0.04300
C 	C 	0.71373 0.66037 0.62537 -0.09300
H 	H 	0.72713 0.65557 0.64117 0.06200
C 	C 	0.72783 0.73557 0.57207 0.37200
C 	C 	0.59143 0.50507 0.62417 -0.03400
C 	C 	0.58423 0.47007 0.63457 -0.08000
H 	H 	0.59493 0.46737 0.65397 0.05500
C 	C 	0.56053 0.43877 0.61527 0.05600
H 	H 	0.55893 0.41607 0.61957 0.02700
C 	C 	0.53963 0.44147 0.59007 -0.17000
C 	C 	0.54463 0.47637 0.58117 0.03900
H 	H 	0.53153 0.47867 0.56337 0.03300
C 	C 	0.56933 0.50767 0.59937 -0.07800
H 	H 	0.57113 0.53047 0.59497 0.05500
C 	C 	0.51103 0.40937 0.57047 0.55000
C 	C 	0.76743 0.60627 0.90757 0.41300
C 	C 	0.80263 0.62397 0.92277 -0.15500
C 	C 	0.83403 0.64397 0.90587 0.09300
H 	H 	0.83243 0.64697 0.88317 0.02300
C 	C 	0.86563 0.65887 0.91887 -0.12800
H 	H 	0.88633 0.67167 0.90527 0.07200
C 	C 	0.87053 0.65687 0.95207 -0.00300
C 	C 	0.83943 0.63527 0.97037 -0.10800
H 	H 	0.84153 0.63117 0.99287 0.07100
C 	C 	0.80593 0.61977 0.95587 0.06500
H 	H 	0.78473 0.60607 0.96867 0.03100
C 	C 	0.90553 0.67257 0.96797 0.20700
C 	C 	0.93383 0.66887 0.95097 -0.32500
H 	H 	0.92993 0.65777 0.93007 0.14600
C 	C 	0.96563 0.68227 0.96697 0.30800
C 	C 	0.97113 0.69587 0.99547 -0.45200
H 	H 	0.99393 0.70327 0.00537 0.19300
C 	C 	0.94603 0.70067 0.01297 0.37800
C 	C 	0.91083 0.68747 0.99827 -0.34700
H 	H 	0.89203 0.68917 0.00927 0.15400
C 	C 	0.95263 0.71667 0.04457 -0.39000
C 	C 	0.98423 0.73957 0.05557 0.31100
H 	H 	0.00473 0.74717 0.04167 -0.07900
C 	C 	0.98983 0.75327 0.08627 -0.30700
H 	H 	0.01323 0.77267 0.09187 0.14900
C 	C 	0.96463 0.74107 0.10777 0.11500
C 	C 	0.93043 0.71397 0.09797 -0.28000
H 	H 	0.91033 0.70417 0.11247 0.14600
C 	C 	0.92703 0.70227 0.06667 0.28400
H 	H 	0.90443 0.68207 0.06037 -0.07300
C 	C 	0.97033 0.75317 0.13917 0.30700
C 	C 	0.00453 0.68907 0.92017 -0.09200
H 	H 	0.99203 0.69877 0.90847 0.06000
C 	C 	0.99653 0.67967 0.95337 -0.04200
C 	C 	0.01523 0.66597 0.97187 -0.09300
H 	H 	0.00873 0.65877 0.99387 0.06400
C 	C 	0.04473 0.66337 0.95637 0.09600
H 	H 	0.05913 0.65647 0.96867 0.02400
C 	C 	0.05153 0.67137 0.92277 -0.25000
C 	C 	0.03213 0.68387 0.90417 0.10200
H 	H 	0.03693 0.68877 0.88167 0.02500
C 	C 	0.07703 0.66637 0.90757 0.61200
Eu	Eu	0.09120 0.46418 0.21163 2.73000
In	In	0.30441 0.44353 0.86339 1.97200
O 	O 	0.14908 0.49222 0.22818 -0.54800
O 	O 	0.13110 0.51937 0.19338 -0.56300
O 	O 	0.07164 0.45606 0.16104 -0.61400
O 	O 	0.11149 0.44109 0.17209 -0.55600
O 	O 	0.92422 0.29926 0.88882 -0.55200
O 	O 	0.90914 0.33687 0.91100 -0.55000
O 	O 	0.08110 0.48730 0.25759 -0.55000
O 	O 	0.05378 0.48548 0.21220 -0.58200
O 	O 	0.25520 0.41410 0.88200 -0.65300
O 	O 	0.28360 0.45880 0.91130 -0.59600
O 	O 	0.88940 0.55460 0.48210 -0.52400
O 	O 	0.92940 0.53970 0.49220 -0.48900
O 	O 	0.98870 0.74000 0.21560 -0.64700
O 	O 	0.01440 0.77080 0.25970 -0.40200
C 	C 	0.15560 0.51850 0.20970 0.40100
C 	C 	0.19229 0.54859 0.20850 -0.18300
C 	C 	0.20040 0.57950 0.19040 0.13100
H 	H 	0.18220 0.58090 0.17810 0.01000
C 	C 	0.23630 0.60860 0.19080 -0.21700
H 	H 	0.24230 0.62940 0.17790 0.11100
C 	C 	0.26340 0.60820 0.20930 0.16300
C 	C 	0.25400 0.57630 0.22720 -0.21600
H 	H 	0.27210 0.57480 0.23960 0.10800
C 	C 	0.21890 0.54710 0.22690 0.13500
H 	H 	0.21290 0.52600 0.23930 0.01100
C 	C 	0.29830 0.63790 0.20950 -0.09900
C 	C 	0.30480 0.67130 0.20910 0.03100
H 	H 	0.28460 0.67510 0.20840 0.02000
C 	C 	0.09080 0.44530 0.15170 0.48300
C 	C 	0.09460 0.43750 0.11950 -0.17900
C 	C 	0.11780 0.42550 0.10910 0.07900
H 	H 	0.13190 0.42100 0.12430 0.02700
C 	C 	0.12030 0.41980 0.07440 -0.11400
H 	H 	0.13590 0.41140 0.06700 0.07500
C 	C 	0.10010 0.42660 0.05260 0.00600
C 	C 	0.07720 0.44050 0.06290 -0.10200
H 	H 	0.06380 0.44570 0.04750 0.06700
C 	C 	0.07490 0.44640 0.09660 0.06700
H 	H 	0.06040 0.45630 0.10390 0.03500
C 	C 	0.10030 0.41860 0.01870 0.16700
C 	C 	0.13030 0.42570 0.00320 -0.25500
H 	H 	0.15290 0.43990 0.01390 0.11900
C 	C 	0.13000 0.41350 0.97240 0.18300
C 	C 	0.09940 0.40050 0.95610 -0.23800
H 	H 	0.09960 0.39490 0.93370 0.11200
C 	C 	0.06690 0.39470 0.96970 0.14500
C 	C 	0.06820 0.40430 0.00210 -0.22400
H 	H 	0.04690 0.40100 0.01270 0.10900
C 	C 	0.03250 0.37630 0.95250 0.00100
C 	C 	0.02380 0.34960 0.93160 -0.08700
H 	H 	0.04140 0.34260 0.92720 0.06300
C 	C 	0.99120 0.33150 0.91570 0.02700
H 	H 	0.98540 0.31190 0.90120 0.04600
C 	C 	0.96670 0.34400 0.92260 -0.10300
C 	C 	0.97470 0.37080 0.94230 0.04500
H 	H 	0.95800 0.37930 0.94520 0.04200
C 	C 	0.00630 0.38670 0.95870 -0.09900
H 	H 	0.01110 0.40490 0.97450 0.06400
C 	C 	0.93110 0.32560 0.90540 0.37300
C 	C 	0.16160 0.41970 0.95750 -0.03000
C 	C 	0.19660 0.44750 0.96790 -0.08300
H 	H 	0.19930 0.46090 0.98730 0.05600
C 	C 	0.22790 0.45510 0.94860 0.05800
H 	H 	0.25060 0.47620 0.95290 0.02600
C 	C 	0.22520 0.43150 0.92340 -0.17100
C 	C 	0.19030 0.40160 0.91450 0.04000
H 	H 	0.18800 0.38620 0.89670 0.03200
C 	C 	0.15900 0.39500 0.93270 -0.08100
H 	H 	0.13620 0.37400 0.92830 0.05600
C 	C 	0.25730 0.43500 0.90380 0.55100
C 	C 	0.06040 0.49450 0.24090 0.41300
C 	C 	0.04270 0.51200 0.25610 -0.15300
C 	C 	0.02270 0.52340 0.23920 0.09100
H 	H 	0.01970 0.51880 0.21650 0.02300
C 	C 	0.00780 0.54010 0.25220 -0.12600
H 	H 	0.99500 0.54800 0.23860 0.07200
C 	C 	0.00980 0.54700 0.28540 -0.00400
C 	C 	0.03140 0.53750 0.30370 -0.10700
H 	H 	0.03550 0.54370 0.32620 0.07100
C 	C 	0.04690 0.51950 0.28920 0.06400
H 	H 	0.06060 0.51200 0.30200 0.03100
C 	C 	0.99410 0.56630 0.30130 0.20800
C 	C 	0.99780 0.59830 0.28430 -0.32600
H 	H 	0.00890 0.60550 0.26340 0.14600
C 	C 	0.98440 0.61670 0.30030 0.30800
C 	C 	0.97080 0.60860 0.32880 -0.45200
H 	H 	0.96340 0.62400 0.33870 0.19300
C 	C 	0.96600 0.57870 0.34630 0.37800
C 	C 	0.97920 0.55670 0.33160 -0.34700
H 	H 	0.97750 0.53620 0.34260 0.15500
C 	C 	0.95000 0.56930 0.37790 -0.39000
C 	C 	0.92710 0.57800 0.38890 0.31000
H 	H 	0.91950 0.59090 0.37500 -0.07800
C 	C 	0.91340 0.56990 0.41960 -0.30600
H 	H 	0.89400 0.57390 0.42520 0.14900
C 	C 	0.92560 0.55690 0.44110 0.11300
C 	C 	0.95270 0.54980 0.43130 -0.27900
H 	H 	0.96250 0.53950 0.44580 0.14600
C 	C 	0.96440 0.55810 0.40000 0.28300
H 	H 	0.98460 0.55570 0.39370 -0.07300
C 	C 	0.91350 0.55050 0.47250 0.30700
C 	C 	0.97760 0.64880 0.25350 -0.09300
H 	H 	0.96790 0.62660 0.24180 0.06100
C 	C 	0.98700 0.65020 0.28670 -0.04200
C 	C 	0.00070 0.68260 0.30520 -0.09400
H 	H 	0.00790 0.68330 0.32720 0.06500
C 	C 	0.00330 0.71470 0.28970 0.09800
H 	H 	0.01020 0.73600 0.30200 0.02400
C 	C 	0.99530 0.71350 0.25610 -0.25100
C 	C 	0.98280 0.68160 0.23750 0.10300
H 	H 	0.97790 0.68150 0.21500 0.02500
C 	C 	0.00030 0.74400 0.24090 0.61300
Eu	Eu	0.75786 0.79752 0.54496 2.73000
In	In	0.97108 0.77686 0.19672 1.97200
O 	O 	0.81575 0.82555 0.56151 -0.54800
O 	O 	0.79777 0.85270 0.52671 -0.56300
O 	O 	0.73831 0.78939 0.49437 -0.61400
O 	O 	0.77816 0.77442 0.50542 -0.55500
O 	O 	0.59089 0.63259 0.22215 -0.55200
O 	O 	0.57581 0.67020 0.24433 -0.54900
O 	O 	0.74777 0.82063 0.59092 -0.55000
O 	O 	0.72045 0.81881 0.54553 -0.58200
O 	O 	0.92187 0.74743 0.21533 -0.65300
O 	O 	0.95027 0.79213 0.24463 -0.59600
O 	O 	0.55607 0.88793 0.81543 -0.52400
O 	O 	0.59607 0.87303 0.82553 -0.48900
O 	O 	0.65537 0.07333 0.54893 -0.64600
O 	O 	0.68107 0.10413 0.59303 -0.40100
C 	C 	0.82227 0.85183 0.54303 0.40200
C 	C 	0.85896 0.88192 0.54183 -0.18400
C 	C 	0.86707 0.91283 0.52373 0.13300
H 	H 	0.84887 0.91423 0.51143 0.00900
C 	C 	0.90297 0.94193 0.52413 -0.22000
H 	H 	0.90897 0.96273 0.51123 0.11200
C 	C 	0.93007 0.94153 0.54263 0.16700
C 	C 	0.92067 0.90963 0.56053 -0.21900
H 	H 	0.93877 0.90813 0.57293 0.10900
C 	C 	0.88557 0.88043 0.56023 0.13700
H 	H 	0.87957 0.85933 0.57263 0.01100
C 	C 	0.96497 0.97123 0.54283 -0.10300
C 	C 	0.97147 0.00463 0.54243 0.03500
H 	H 	0.95127 0.00843 0.54173 0.01900
C 	C 	0.75747 0.77863 0.48503 0.48300
C 	C 	0.76127 0.77083 0.45283 -0.17800
C 	C 	0.78447 0.75883 0.44243 0.07700
H 	H 	0.79857 0.75433 0.45763 0.02700
C 	C 	0.78697 0.75313 0.40773 -0.11100
H 	H 	0.80257 0.74473 0.40033 0.07400
C 	C 	0.76677 0.75993 0.38593 0.00300
C 	C 	0.74387 0.77383 0.39623 -0.10000
H 	H 	0.73047 0.77903 0.38083 0.06600
C 	C 	0.74157 0.77973 0.42993 0.06500
H 	H 	0.72707 0.78963 0.43723 0.03600
C 	C 	0.76697 0.75193 0.35203 0.17300
C 	C 	0.79697 0.75903 0.33653 -0.26200
H 	H 	0.81957 0.77323 0.34723 0.12100
C 	C 	0.79667 0.74683 0.30573 0.18900
C 	C 	0.76607 0.73383 0.28943 -0.24500
H 	H 	0.76627 0.72823 0.26703 0.11400
C 	C 	0.73357 0.72803 0.30303 0.15100
C 	C 	0.73487 0.73763 0.33543 -0.23000
H 	H 	0.71357 0.73433 0.34603 0.11200
C 	C 	0.69917 0.70963 0.28583 -0.00500
C 	C 	0.69047 0.68293 0.26493 -0.08200
H 	H 	0.70807 0.67593 0.26053 0.06100
C 	C 	0.65787 0.66483 0.24903 0.02200
H 	H 	0.65207 0.64523 0.23453 0.04800
C 	C 	0.63337 0.67733 0.25593 -0.09900
C 	C 	0.64137 0.70413 0.27563 0.04000
H 	H 	0.62467 0.71263 0.27853 0.04300
C 	C 	0.67297 0.72003 0.29203 -0.09300
H 	H 	0.67777 0.73823 0.30783 0.06200
C 	C 	0.59777 0.65893 0.23873 0.37200
C 	C 	0.82827 0.75303 0.29083 -0.03400
C 	C 	0.86327 0.78083 0.30123 -0.08000
H 	H 	0.86597 0.79423 0.32063 0.05500
C 	C 	0.89457 0.78843 0.28193 0.05600
H 	H 	0.91727 0.80953 0.28623 0.02700
C 	C 	0.89187 0.76483 0.25673 -0.17000
C 	C 	0.85697 0.73493 0.24783 0.03900
H 	H 	0.85467 0.71953 0.23003 0.03300
C 	C 	0.82567 0.72833 0.26603 -0.07800
H 	H 	0.80287 0.70733 0.26163 0.05500
C 	C 	0.92397 0.76833 0.23713 0.55000
C 	C 	0.72707 0.82783 0.57423 0.41300
C 	C 	0.70937 0.84533 0.58943 -0.15400
C 	C 	0.68937 0.85673 0.57253 0.09200
H 	H 	0.68637 0.85213 0.54983 0.02300
C 	C 	0.67447 0.87343 0.58553 -0.12800
H 	H 	0.66167 0.88133 0.57193 0.07200
C 	C 	0.67647 0.88033 0.61873 -0.00300
C 	C 	0.69807 0.87083 0.63703 -0.10800
H 	H 	0.70217 0.87703 0.65953 0.07100
C 	C 	0.71357 0.85283 0.62253 0.06500
H 	H 	0.72727 0.84533 0.63533 0.03100
C 	C 	0.66077 0.89963 0.63463 0.20700
C 	C 	0.66447 0.93163 0.61763 -0.32500
H 	H 	0.67557 0.93883 0.59673 0.14600
C 	C 	0.65107 0.95003 0.63363 0.30700
C 	C 	0.63747 0.94193 0.66213 -0.45200
H 	H 	0.63007 0.95733 0.67203 0.19300
C 	C 	0.63267 0.91203 0.67963 0.37800
C 	C 	0.64587 0.89003 0.66493 -0.34700
H 	H 	0.64417 0.86953 0.67593 0.15500
C 	C 	0.61667 0.90263 0.71123 -0.39000
C 	C 	0.59377 0.91133 0.72223 0.31100
H 	H 	0.58617 0.92423 0.70833 -0.07900
C 	C 	0.58007 0.90323 0.75293 -0.30600
H 	H 	0.56067 0.90723 0.75853 0.14900
C 	C 	0.59227 0.89023 0.77443 0.11400
C 	C 	0.61937 0.88313 0.76463 -0.27900
H 	H 	0.62917 0.87283 0.77913 0.14600
C 	C 	0.63107 0.89143 0.73333 0.28400
H 	H 	0.65127 0.88903 0.72703 -0.07300
C 	C 	0.58017 0.88383 0.80583 0.30700
C 	C 	0.64427 0.98213 0.58683 -0.09200
H 	H 	0.63457 0.95993 0.57513 0.06100
C 	C 	0.65367 0.98353 0.62003 -0.04100
C 	C 	0.66737 0.01593 0.63853 -0.09400
H 	H 	0.67457 0.01663 0.66053 0.06500
C 	C 	0.66997 0.04803 0.62303 0.09700
H 	H 	0.67687 0.06933 0.63533 0.02400
C 	C 	0.66197 0.04683 0.58943 -0.25000
C 	C 	0.64947 0.01493 0.57083 0.10200
H 	H 	0.64457 0.01483 0.54833 0.02500
C 	C 	0.66697 0.07733 0.57423 0.61200
Eu	Eu	0.42453 0.13085 0.87829 2.73000
In	In	0.63774 0.11020 0.53006 1.97200
O 	O 	0.48241 0.15889 0.89485 -0.54700
O 	O 	0.46443 0.18604 0.86005 -0.56300
O 	O 	0.40497 0.12273 0.82771 -0.61400
O 	O 	0.44482 0.10776 0.83876 -0.55600
O 	O 	0.25755 0.96593 0.55549 -0.55200
O 	O 	0.24247 0.00354 0.57767 -0.54900
O 	O 	0.41443 0.15397 0.92426 -0.55000
O 	O 	0.38711 0.15215 0.87887 -0.58200
O 	O 	0.58853 0.08077 0.54867 -0.65300
O 	O 	0.61693 0.12547 0.57797 -0.59500
O 	O 	0.22273 0.22127 0.14877 -0.52400
O 	O 	0.26273 0.20637 0.15887 -0.48900
O 	O 	0.32203 0.40667 0.88227 -0.64600
O 	O 	0.34773 0.43747 0.92637 -0.40100
C 	C 	0.48893 0.18517 0.87637 0.40100
C 	C 	0.52562 0.21526 0.87517 -0.18300
C 	C 	0.53373 0.24617 0.85707 0.13100
H 	H 	0.51553 0.24757 0.84477 0.01000
C 	C 	0.56963 0.27527 0.85747 -0.21700
H 	H 	0.57563 0.29607 0.84457 0.11100
C 	C 	0.59673 0.27487 0.87597 0.16300
C 	C 	0.58733 0.24297 0.89387 -0.21600
H 	H 	0.60543 0.24147 0.90627 0.10800
C 	C 	0.55223 0.21377 0.89357 0.13500
H 	H 	0.54623 0.19267 0.90597 0.01100
C 	C 	0.63163 0.30457 0.87617 -0.09900
C 	C 	0.63813 0.33797 0.87577 0.03100
H 	H 	0.61793 0.34177 0.87507 0.02000
C 	C 	0.42413 0.11197 0.81837 0.48200
C 	C 	0.42793 0.10417 0.78617 -0.17600
C 	C 	0.45113 0.09217 0.77577 0.07400
H 	H 	0.46523 0.08767 0.79097 0.02800
C 	C 	0.45363 0.08647 0.74107 -0.10800
H 	H 	0.46923 0.07807 0.73367 0.07300
C 	C 	0.43343 0.09327 0.71927 -0.00200
C 	C 	0.41053 0.10717 0.72957 -0.09700
H 	H 	0.39713 0.11237 0.71417 0.06500
C 	C 	0.40823 0.11307 0.76327 0.06300
H 	H 	0.39373 0.12297 0.77057 0.03600
C 	C 	0.43363 0.08527 0.68537 0.18000
C 	C 	0.46363 0.09237 0.66987 -0.27000
H 	H 	0.48623 0.10657 0.68057 0.12400
C 	C 	0.46333 0.08017 0.63907 0.19700
C 	C 	0.43273 0.06717 0.62277 -0.25300
H 	H 	0.43293 0.06157 0.60037 0.11700
C 	C 	0.40023 0.06137 0.63637 0.15800
C 	C 	0.40153 0.07097 0.66877 -0.23700
H 	H 	0.38023 0.06767 0.67937 0.11400
C 	C 	0.36583 0.04297 0.61917 -0.01200
C 	C 	0.35713 0.01627 0.59827 -0.07600
H 	H 	0.37473 0.00927 0.59387 0.05900
C 	C 	0.32453 0.99817 0.58237 0.01800
H 	H 	0.31873 0.97857 0.56787 0.04900
C 	C 	0.30003 0.01067 0.58927 -0.09500
C 	C 	0.30803 0.03747 0.60897 0.03500
H 	H 	0.29133 0.04597 0.61187 0.04500
C 	C 	0.33963 0.05337 0.62537 -0.08700
H 	H 	0.34443 0.07157 0.64117 0.06000
C 	C 	0.26443 0.99227 0.57207 0.37000
C 	C 	0.49493 0.08637 0.62417 -0.03900
C 	C 	0.52993 0.11417 0.63457 -0.07700
H 	H 	0.53263 0.12757 0.65397 0.05400
C 	C 	0.56123 0.12177 0.61527 0.05400
H 	H 	0.58393 0.14287 0.61957 0.02800
C 	C 	0.55853 0.09817 0.59007 -0.16800
C 	C 	0.52363 0.06827 0.58117 0.03600
H 	H 	0.52133 0.05287 0.56337 0.03300
C 	C 	0.49233 0.06167 0.59937 -0.07500
H 	H 	0.46953 0.04067 0.59497 0.05400
C 	C 	0.59063 0.10167 0.57047 0.55000
C 	C 	0.39373 0.16117 0.90757 0.41300
C 	C 	0.37603 0.17867 0.92277 -0.15500
C 	C 	0.35603 0.19007 0.90587 0.09300
H 	H 	0.35303 0.18547 0.88317 0.02200
C 	C 	0.34113 0.20677 0.91887 -0.12800
H 	H 	0.32833 0.21467 0.90527 0.07300
C 	C 	0.34313 0.21367 0.95207 -0.00200
C 	C 	0.36473 0.20417 0.97037 -0.10800
H 	H 	0.36883 0.21037 0.99287 0.07100
C 	C 	0.38023 0.18617 0.95587 0.06500
H 	H 	0.39393 0.17867 0.96867 0.03100
C 	C 	0.32743 0.23297 0.96797 0.20700
C 	C 	0.33113 0.26497 0.95097 -0.32500
H 	H 	0.34223 0.27217 0.93007 0.14600
C 	C 	0.31773 0.28337 0.96697 0.30700
C 	C 	0.30413 0.27527 0.99547 -0.45200
H 	H 	0.29673 0.29067 0.00537 0.19300
C 	C 	0.29933 0.24537 0.01297 0.37800
C 	C 	0.31253 0.22337 0.99827 -0.34700
H 	H 	0.31083 0.20287 0.00927 0.15400
C 	C 	0.28333 0.23597 0.04457 -0.39100
C 	C 	0.26043 0.24467 0.05557 0.31200
H 	H 	0.25283 0.25757 0.04167 -0.07900
C 	C 	0.24673 0.23657 0.08627 -0.30700
H 	H 	0.22733 0.24057 0.09187 0.14900
C 	C 	0.25893 0.22357 0.10777 0.11500
C 	C 	0.28603 0.21647 0.09797 -0.28000
H 	H 	0.29583 0.20617 0.11247 0.14600
C 	C 	0.29773 0.22477 0.06667 0.28500
H 	H 	0.31793 0.22237 0.06037 -0.07300
C 	C 	0.24683 0.21717 0.13917 0.30700
C 	C 	0.31093 0.31547 0.92017 -0.09300
H 	H 	0.30123 0.29327 0.90847 0.06100
C 	C 	0.32033 0.31687 0.95337 -0.04100
C 	C 	0.33403 0.34927 0.97187 -0.09400
H 	H 	0.34123 0.34997 0.99387 0.06500
C 	C 	0.33663 0.38137 0.95637 0.09700
H 	H 	0.34353 0.40267 0.96867 0.02400
C 	C 	0.32863 0.38017 0.92277 -0.25000
C 	C 	0.31613 0.34827 0.90417 0.10200
H 	H 	0.31123 0.34817 0.88167 0.02500
C 	C 	0.33363 0.41067 0.90757 0.61300
Eu	Eu	0.53582 0.62701 0.21163 2.73000
In	In	0.55647 0.86088 0.86339 1.97200
O 	O 	0.50778 0.65686 0.22818 -0.54700
O 	O 	0.48063 0.61173 0.19338 -0.56300
O 	O 	0.54394 0.61558 0.16104 -0.61400
O 	O 	0.55891 0.67040 0.17209 -0.55600
O 	O 	0.70074 0.62496 0.88882 -0.55200
O 	O 	0.66313 0.57227 0.91100 -0.54900
O 	O 	0.51270 0.59380 0.25759 -0.55000
O 	O 	0.51452 0.56830 0.21220 -0.58200
O 	O 	0.58590 0.84110 0.88200 -0.65300
O 	O 	0.54120 0.82480 0.91130 -0.59600
O 	O 	0.44540 0.33480 0.48210 -0.52400
O 	O 	0.46030 0.38970 0.49220 -0.48900
O 	O 	0.26000 0.24870 0.21560 -0.64600
O 	O 	0.22920 0.24360 0.25970 -0.40100
C 	C 	0.48150 0.63710 0.20970 0.40100
C 	C 	0.45141 0.64370 0.20850 -0.18300
C 	C 	0.42050 0.62090 0.19040 0.13100
H 	H 	0.41910 0.60130 0.17810 0.01000
C 	C 	0.39140 0.62770 0.19080 -0.21700
H 	H 	0.37060 0.61290 0.17790 0.11100
C 	C 	0.39180 0.65520 0.20930 0.16300
C 	C 	0.42370 0.67770 0.22720 -0.21600
H 	H 	0.42520 0.69730 0.23960 0.10800
C 	C 	0.45290 0.67180 0.22690 0.13500
H 	H 	0.47400 0.68690 0.23930 0.01100
C 	C 	0.36210 0.66040 0.20950 -0.09900
C 	C 	0.32870 0.63350 0.20910 0.03100
H 	H 	0.32490 0.60950 0.20840 0.02000
C 	C 	0.55470 0.64550 0.15170 0.48300
C 	C 	0.56250 0.65710 0.11950 -0.17800
C 	C 	0.57450 0.69230 0.10910 0.07700
H 	H 	0.57900 0.71090 0.12430 0.02700
C 	C 	0.58020 0.70050 0.07440 -0.11200
H 	H 	0.58860 0.72450 0.06700 0.07500
C 	C 	0.57340 0.67350 0.05260 0.00300
C 	C 	0.55950 0.63670 0.06290 -0.10000
H 	H 	0.55430 0.61810 0.04750 0.06700
C 	C 	0.55360 0.62850 0.09660 0.06600
H 	H 	0.54370 0.60410 0.10390 0.03600
C 	C 	0.58140 0.68170 0.01870 0.17200
C 	C 	0.57430 0.70460 0.00320 -0.26100
H 	H 	0.56010 0.71300 0.01390 0.12100
C 	C 	0.58650 0.71650 0.97240 0.18800
C 	C 	0.59950 0.69890 0.95610 -0.24400
H 	H 	0.60510 0.70470 0.93370 0.11400
C 	C 	0.60530 0.67220 0.96970 0.15000
C 	C 	0.59570 0.66390 0.00210 -0.22900
H 	H 	0.59900 0.64590 0.01270 0.11100
C 	C 	0.62370 0.65620 0.95250 -0.00400
C 	C 	0.65040 0.67420 0.93160 -0.08300
H 	H 	0.65740 0.69880 0.92720 0.06200
C 	C 	0.66850 0.65970 0.91570 0.02400
H 	H 	0.68810 0.67350 0.90120 0.04700
C 	C 	0.65600 0.62270 0.92260 -0.10000
C 	C 	0.62920 0.60390 0.94230 0.04200
H 	H 	0.62070 0.57870 0.94520 0.04300
C 	C 	0.61330 0.61960 0.95870 -0.09500
H 	H 	0.59510 0.60620 0.97450 0.06200
C 	C 	0.67440 0.60550 0.90540 0.37200
C 	C 	0.58030 0.74190 0.95750 -0.03300
C 	C 	0.55250 0.74910 0.96790 -0.08100
H 	H 	0.53910 0.73840 0.98730 0.05500
C 	C 	0.54490 0.77280 0.94860 0.05600
H 	H 	0.52380 0.77440 0.95290 0.02700
C 	C 	0.56850 0.79370 0.92340 -0.17000
C 	C 	0.59840 0.78870 0.91450 0.03900
H 	H 	0.61380 0.80180 0.89670 0.03300
C 	C 	0.60500 0.76400 0.93270 -0.07800
H 	H 	0.62600 0.76220 0.92830 0.05500
C 	C 	0.56500 0.82230 0.90380 0.55000
C 	C 	0.50550 0.56590 0.24090 0.41300
C 	C 	0.48800 0.53070 0.25610 -0.15500
C 	C 	0.47660 0.49930 0.23920 0.09300
H 	H 	0.48120 0.50090 0.21650 0.02300
C 	C 	0.45990 0.46770 0.25220 -0.12800
H 	H 	0.45200 0.44700 0.23860 0.07200
C 	C 	0.45300 0.46280 0.28540 -0.00300
C 	C 	0.46250 0.49390 0.30370 -0.10800
H 	H 	0.45630 0.49180 0.32620 0.07100
C 	C 	0.48050 0.52740 0.28920 0.06500
H 	H 	0.48800 0.54860 0.30200 0.03100
C 	C 	0.43370 0.42780 0.30130 0.20700
C 	C 	0.40170 0.39950 0.28430 -0.32500
H 	H 	0.39450 0.40340 0.26340 0.14600
C 	C 	0.38330 0.36770 0.30030 0.30700
C 	C 	0.39140 0.36220 0.32880 -0.45200
H 	H 	0.37600 0.33940 0.33870 0.19300
C 	C 	0.42130 0.38730 0.34630 0.37800
C 	C 	0.44330 0.42250 0.33160 -0.34700
H 	H 	0.46380 0.44130 0.34260 0.15500
C 	C 	0.43070 0.38070 0.37790 -0.39000
C 	C 	0.42200 0.34910 0.38890 0.31100
H 	H 	0.40910 0.32860 0.37500 -0.07900
C 	C 	0.43010 0.34350 0.41960 -0.30600
H 	H 	0.42610 0.32010 0.42520 0.14900
C 	C 	0.44310 0.36870 0.44110 0.11400
C 	C 	0.45020 0.40290 0.43130 -0.27900
H 	H 	0.46050 0.42300 0.44580 0.14600
C 	C 	0.44190 0.40630 0.40000 0.28400
H 	H 	0.44430 0.42890 0.39370 -0.07300
C 	C 	0.44950 0.36300 0.47250 0.30700
C 	C 	0.35120 0.32880 0.25350 -0.09300
H 	H 	0.37340 0.34130 0.24180 0.06100
C 	C 	0.34980 0.33680 0.28670 -0.04100
C 	C 	0.31740 0.31810 0.30520 -0.09400
H 	H 	0.31670 0.32460 0.32720 0.06500
C 	C 	0.28530 0.28860 0.28970 0.09700
H 	H 	0.26400 0.27420 0.30200 0.02400
C 	C 	0.28650 0.28180 0.25610 -0.25000
C 	C 	0.31840 0.30120 0.23750 0.10200
H 	H 	0.31850 0.29640 0.21500 0.02500
C 	C 	0.25600 0.25630 0.24090 0.61200
Eu	Eu	0.20248 0.96034 0.54496 2.73000
In	In	0.22314 0.19421 0.19672 1.97200
O 	O 	0.17445 0.99019 0.56151 -0.54800
O 	O 	0.14730 0.94506 0.52671 -0.56300
O 	O 	0.21061 0.94891 0.49437 -0.61300
O 	O 	0.22558 0.00373 0.50542 -0.55500
O 	O 	0.36741 0.95829 0.22215 -0.55100
O 	O 	0.32980 0.90560 0.24433 -0.54800
O 	O 	0.17937 0.92713 0.59092 -0.55000
O 	O 	0.18119 0.90163 0.54553 -0.58200
O 	O 	0.25257 0.17443 0.21533 -0.65300
O 	O 	0.20787 0.15813 0.24463 -0.59500
O 	O 	0.11207 0.66813 0.81543 -0.52400
O 	O 	0.12697 0.72303 0.82553 -0.48900
O 	O 	0.92667 0.58203 0.54893 -0.64600
O 	O 	0.89587 0.57693 0.59303 -0.40100
C 	C 	0.14817 0.97043 0.54303 0.40200
C 	C 	0.11808 0.97703 0.54183 -0.18400
C 	C 	0.08717 0.95423 0.52373 0.13300
H 	H 	0.08577 0.93463 0.51143 0.00900
C 	C 	0.05807 0.96103 0.52413 -0.22000
H 	H 	0.03727 0.94623 0.51123 0.11200
C 	C 	0.05847 0.98853 0.54263 0.16700
C 	C 	0.09037 0.01103 0.56053 -0.21900
H 	H 	0.09187 0.03063 0.57293 0.10900
C 	C 	0.11957 0.00513 0.56023 0.13700
H 	H 	0.14067 0.02023 0.57263 0.01100
C 	C 	0.02877 0.99373 0.54283 -0.10300
C 	C 	0.99537 0.96683 0.54243 0.03500
H 	H 	0.99157 0.94283 0.54173 0.01900
C 	C 	0.22137 0.97883 0.48503 0.48100
C 	C 	0.22917 0.99043 0.45283 -0.17300
C 	C 	0.24117 0.02563 0.44243 0.07100
H 	H 	0.24567 0.04423 0.45763 0.02900
C 	C 	0.24687 0.03383 0.40773 -0.10300
H 	H 	0.25527 0.05783 0.40033 0.07100
C 	C 	0.24007 0.00683 0.38593 -0.00800
C 	C 	0.22617 0.97003 0.39623 -0.09200
H 	H 	0.22097 0.95143 0.38083 0.06400
C 	C 	0.22027 0.96183 0.42993 0.06000
H 	H 	0.21037 0.93743 0.43723 0.03800
C 	C 	0.24807 0.01503 0.35203 0.18800
C 	C 	0.24097 0.03793 0.33653 -0.27900
H 	H 	0.22677 0.04633 0.34723 0.12700
C 	C 	0.25317 0.04983 0.30573 0.20600
C 	C 	0.26617 0.03223 0.28943 -0.26200
H 	H 	0.27177 0.03803 0.26703 0.12000
C 	C 	0.27197 0.00553 0.30303 0.16700
C 	C 	0.26237 0.99723 0.33543 -0.24600
H 	H 	0.26567 0.97923 0.34603 0.11700
C 	C 	0.29037 0.98953 0.28583 -0.02100
C 	C 	0.31707 0.00753 0.26493 -0.06700
H 	H 	0.32407 0.03213 0.26053 0.05600
C 	C 	0.33517 0.99303 0.24903 0.01000
H 	H 	0.35477 0.00683 0.23453 0.05200
C 	C 	0.32267 0.95603 0.25593 -0.08700
C 	C 	0.29587 0.93723 0.27563 0.02500
H 	H 	0.28737 0.91203 0.27853 0.04900
C 	C 	0.27997 0.95293 0.29203 -0.07800
H 	H 	0.26177 0.93953 0.30783 0.05600
C 	C 	0.34107 0.93883 0.23873 0.36700
C 	C 	0.24697 0.07523 0.29083 -0.04500
C 	C 	0.21917 0.08243 0.30123 -0.07300
H 	H 	0.20577 0.07173 0.32063 0.05200
C 	C 	0.21157 0.10613 0.28193 0.05100
H 	H 	0.19047 0.10773 0.28623 0.02900
C 	C 	0.23517 0.12703 0.25673 -0.16600
C 	C 	0.26507 0.12203 0.24783 0.03400
H 	H 	0.28047 0.13513 0.23003 0.03400
C 	C 	0.27167 0.09733 0.26603 -0.07100
H 	H 	0.29267 0.09553 0.26163 0.05200
C 	C 	0.23167 0.15563 0.23713 0.54900
C 	C 	0.17217 0.89923 0.57423 0.41300
C 	C 	0.15467 0.86403 0.58943 -0.15500
C 	C 	0.14327 0.83263 0.57253 0.09300
H 	H 	0.14787 0.83423 0.54983 0.02300
C 	C 	0.12657 0.80103 0.58553 -0.12800
H 	H 	0.11867 0.78033 0.57193 0.07300
C 	C 	0.11967 0.79613 0.61873 -0.00300
C 	C 	0.12917 0.82723 0.63703 -0.10800
H 	H 	0.12297 0.82513 0.65953 0.07100
C 	C 	0.14717 0.86073 0.62253 0.06500
H 	H 	0.15467 0.88193 0.63533 0.03100
C 	C 	0.10037 0.76113 0.63463 0.20700
C 	C 	0.06837 0.73283 0.61763 -0.32500
H 	H 	0.06117 0.73673 0.59673 0.14600
C 	C 	0.04997 0.70103 0.63363 0.30700
C 	C 	0.05807 0.69553 0.66213 -0.45200
H 	H 	0.04267 0.67273 0.67203 0.19300
C 	C 	0.08797 0.72063 0.67963 0.37800
C 	C 	0.10997 0.75583 0.66493 -0.34700
H 	H 	0.13047 0.77463 0.67593 0.15500
C 	C 	0.09737 0.71403 0.71123 -0.39000
C 	C 	0.08867 0.68243 0.72223 0.31100
H 	H 	0.07577 0.66193 0.70833 -0.07900
C 	C 	0.09677 0.67683 0.75293 -0.30600
H 	H 	0.09277 0.65343 0.75853 0.14900
C 	C 	0.10977 0.70203 0.77443 0.11400
C 	C 	0.11687 0.73623 0.76463 -0.27900
H 	H 	0.12717 0.75633 0.77913 0.14600
C 	C 	0.10857 0.73963 0.73333 0.28400
H 	H 	0.11097 0.76223 0.72703 -0.07300
C 	C 	0.11617 0.69633 0.80583 0.30700
C 	C 	0.01787 0.66213 0.58683 -0.09200
H 	H 	0.04007 0.67463 0.57513 0.06100
C 	C 	0.01647 0.67013 0.62003 -0.04100
C 	C 	0.98407 0.65143 0.63853 -0.09400
H 	H 	0.98337 0.65793 0.66053 0.06500
C 	C 	0.95197 0.62193 0.62303 0.09700
H 	H 	0.93067 0.60753 0.63533 0.02400
C 	C 	0.95317 0.61513 0.58943 -0.25000
C 	C 	0.98507 0.63453 0.57083 0.10200
H 	H 	0.98517 0.62973 0.54833 0.02500
C 	C 	0.92267 0.58963 0.57423 0.61200
Eu	Eu	0.86915 0.29368 0.87829 2.73000
In	In	0.88980 0.52755 0.53006 1.97200
O 	O 	0.84111 0.32353 0.89485 -0.54700
O 	O 	0.81396 0.27840 0.86005 -0.56300
O 	O 	0.87727 0.28225 0.82771 -0.61400
O 	O 	0.89224 0.33707 0.83876 -0.55500
O 	O 	0.03407 0.29163 0.55549 -0.55100
O 	O 	0.99646 0.23894 0.57767 -0.54900
O 	O 	0.84603 0.26047 0.92426 -0.55000
O 	O 	0.84785 0.23497 0.87887 -0.58200
O 	O 	0.91923 0.50777 0.54867 -0.65300
O 	O 	0.87453 0.49147 0.57797 -0.59500
O 	O 	0.77873 0.00147 0.14877 -0.52400
O 	O 	0.79363 0.05637 0.15887 -0.48900
O 	O 	0.59333 0.91537 0.88227 -0.64600
O 	O 	0.56253 0.91027 0.92637 -0.40100
C 	C 	0.81483 0.30377 0.87637 0.40100
C 	C 	0.78474 0.31037 0.87517 -0.18300
C 	C 	0.75383 0.28757 0.85707 0.13100
H 	H 	0.75243 0.26797 0.84477 0.01000
C 	C 	0.72473 0.29437 0.85747 -0.21700
H 	H 	0.70393 0.27957 0.84457 0.11100
C 	C 	0.72513 0.32187 0.87597 0.16300
C 	C 	0.75703 0.34437 0.89387 -0.21600
H 	H 	0.75853 0.36397 0.90627 0.10800
C 	C 	0.78623 0.33847 0.89357 0.13500
H 	H 	0.80733 0.35357 0.90597 0.01100
C 	C 	0.69543 0.32707 0.87617 -0.09900
C 	C 	0.66203 0.30017 0.87577 0.03100
H 	H 	0.65823 0.27617 0.87507 0.02000
C 	C 	0.88803 0.31217 0.81837 0.48200
C 	C 	0.89583 0.32377 0.78617 -0.17500
C 	C 	0.90783 0.35897 0.77577 0.07400
H 	H 	0.91233 0.37757 0.79097 0.02800
C 	C 	0.91353 0.36717 0.74107 -0.10700
H 	H 	0.92193 0.39117 0.73367 0.07300
C 	C 	0.90673 0.34017 0.71927 -0.00200
C 	C 	0.89283 0.30337 0.72957 -0.09600
H 	H 	0.88763 0.28477 0.71417 0.06500
C 	C 	0.88693 0.29517 0.76327 0.06300
H 	H 	0.87703 0.27077 0.77057 0.03700
C 	C 	0.91473 0.34837 0.68537 0.18100
C 	C 	0.90763 0.37127 0.66987 -0.27100
H 	H 	0.89343 0.37967 0.68057 0.12400
C 	C 	0.91983 0.38317 0.63907 0.19800
C 	C 	0.93283 0.36557 0.62277 -0.25400
H 	H 	0.93843 0.37137 0.60037 0.11700
C 	C 	0.93863 0.33887 0.63637 0.15900
C 	C 	0.92903 0.33057 0.66877 -0.23800
H 	H 	0.93233 0.31257 0.67937 0.11400
C 	C 	0.95703 0.32287 0.61917 -0.01300
C 	C 	0.98373 0.34087 0.59827 -0.07500
H 	H 	0.99073 0.36547 0.59387 0.05900
C 	C 	0.00183 0.32637 0.58237 0.01700
H 	H 	0.02143 0.34017 0.56787 0.04900
C 	C 	0.98933 0.28937 0.58927 -0.09500
C 	C 	0.96253 0.27057 0.60897 0.03400
H 	H 	0.95403 0.24537 0.61187 0.04500
C 	C 	0.94663 0.28627 0.62537 -0.08600
H 	H 	0.92843 0.27287 0.64117 0.05900
C 	C 	0.00773 0.27217 0.57207 0.37000
C 	C 	0.91363 0.40857 0.62417 -0.03900
C 	C 	0.88583 0.41577 0.63457 -0.07600
H 	H 	0.87243 0.40507 0.65397 0.05400
C 	C 	0.87823 0.43947 0.61527 0.05300
H 	H 	0.85713 0.44107 0.61957 0.02800
C 	C 	0.90183 0.46037 0.59007 -0.16800
C 	C 	0.93173 0.45537 0.58117 0.03600
H 	H 	0.94713 0.46847 0.56337 0.03400
C 	C 	0.93833 0.43067 0.59937 -0.07400
H 	H 	0.95933 0.42887 0.59497 0.05400
C 	C 	0.89833 0.48897 0.57047 0.55000
C 	C 	0.83883 0.23257 0.90757 0.41300
C 	C 	0.82133 0.19737 0.92277 -0.15500
C 	C 	0.80993 0.16597 0.90587 0.09300
H 	H 	0.81453 0.16757 0.88317 0.02200
C 	C 	0.79323 0.13437 0.91887 -0.12800
H 	H 	0.78533 0.11367 0.90527 0.07300
C 	C 	0.78633 0.12947 0.95207 -0.00200
C 	C 	0.79583 0.16057 0.97037 -0.10800
H 	H 	0.78963 0.15847 0.99287 0.07100
C 	C 	0.81383 0.19407 0.95587 0.06500
H 	H 	0.82133 0.21527 0.96867 0.03100
C 	C 	0.76703 0.09447 0.96797 0.20700
C 	C 	0.73503 0.06617 0.95097 -0.32500
H 	H 	0.72783 0.07007 0.93007 0.14600
C 	C 	0.71663 0.03437 0.96697 0.30800
C 	C 	0.72473 0.02887 0.99547 -0.45200
H 	H 	0.70933 0.00607 0.00537 0.19300
C 	C 	0.75463 0.05397 0.01297 0.37800
C 	C 	0.77663 0.08917 0.99827 -0.34700
H 	H 	0.79713 0.10797 0.00927 0.15400
C 	C 	0.76403 0.04737 0.04457 -0.39100
C 	C 	0.75533 0.01577 0.05557 0.31200
H 	H 	0.74243 0.99527 0.04167 -0.07900
C 	C 	0.76343 0.01017 0.08627 -0.30800
H 	H 	0.75943 0.98677 0.09187 0.14900
C 	C 	0.77643 0.03537 0.10777 0.11500
C 	C 	0.78353 0.06957 0.09797 -0.28000
H 	H 	0.79383 0.08967 0.11247 0.14600
C 	C 	0.77523 0.07297 0.06667 0.28500
H 	H 	0.77763 0.09557 0.06037 -0.07300
C 	C 	0.78283 0.02967 0.13917 0.30700
C 	C 	0.68453 0.99547 0.92017 -0.09200
H 	H 	0.70673 0.00797 0.90847 0.06000
C 	C 	0.68313 0.00347 0.95337 -0.04200
C 	C 	0.65073 0.98477 0.97187 -0.09400
H 	H 	0.65003 0.99127 0.99387 0.06500
C 	C 	0.61863 0.95527 0.95637 0.09600
H 	H 	0.59733 0.94087 0.96867 0.02400
C 	C 	0.61983 0.94847 0.92277 -0.25000
C 	C 	0.65173 0.96787 0.90417 0.10200
H 	H 	0.65183 0.96307 0.88167 0.02500
C 	C 	0.58933 0.92297 0.90757 0.61200
