data_crystal

_cell_length_a 22.49410
_cell_length_b 11.13770
_cell_length_c 9.81010
_cell_angle_alpha 90.00000
_cell_angle_beta  103.10000
_cell_angle_gamma 90.00000

_symmetry_space_group_name_	'P 1'
_symmetry_space_group_name_H-M	'P 1'

loop_
_symmetry_equiv_pos_as_xyz
  x,y,z

loop_
_atom_site_label
_atom_site_type_symbol
_atom_site_fract_x
_atom_site_fract_y
_atom_site_fract_z
_atom_site_charge
Cd	Cd	0.39214 0.08592 0.07167 1.22000
P 	P 	0.45423 0.13320 0.40657 0.44100
O 	O 	0.43986 0.03330 0.29750 -0.55300
O 	O 	0.42950 0.10170 0.53520 -0.52700
O 	O 	0.52073 0.16910 0.45030 -0.47900
O 	O 	0.20556 0.46450 0.02840 -0.41700
O 	O 	0.16699 0.33220 0.14870 -0.40700
N 	N 	0.36294 0.24725 0.20846 -0.13900
C 	C 	0.41714 0.26884 0.32337 -0.27400
H 	H 	0.44640 0.31400 0.28700 0.09600
H 	H 	0.40510 0.31720 0.39350 0.10900
C 	C 	0.30954 0.20413 0.26099 -0.09100
H 	H 	0.32200 0.13640 0.32130 0.04700
H 	H 	0.27860 0.17700 0.18280 0.04800
C 	C 	0.28189 0.29832 0.34078 -0.04800
H 	H 	0.31040 0.31670 0.42700 0.04000
H 	H 	0.24560 0.26640 0.36330 0.04800
C 	C 	0.26594 0.41363 0.25533 -0.13300
H 	H 	0.25700 0.47400 0.31770 0.07200
C 	C 	0.32094 0.45747 0.20250 -0.05300
H 	H 	0.35240 0.48340 0.28030 0.03300
H 	H 	0.30920 0.52480 0.14120 0.04800
C 	C 	0.34548 0.35755 0.12423 -0.08300
H 	H 	0.31490 0.33730 0.04210 0.05100
H 	H 	0.38050 0.38700 0.09410 0.03000
C 	C 	0.20914 0.40098 0.13533 0.32000
Cd	Cd	0.89214 0.58592 0.07167 1.22400
P 	P 	0.95423 0.63320 0.40657 0.50700
O 	O 	0.93986 0.53330 0.29750 -0.53500
O 	O 	0.92950 0.60170 0.53520 -0.51300
O 	O 	0.02073 0.66910 0.45030 -0.54000
O 	O 	0.70556 0.96450 0.02840 -0.41400
O 	O 	0.66699 0.83220 0.14870 -0.40300
N 	N 	0.86294 0.74725 0.20846 -0.13500
C 	C 	0.91714 0.76884 0.32337 -0.29500
H 	H 	0.94640 0.81400 0.28700 0.12400
H 	H 	0.90510 0.81720 0.39350 0.12400
C 	C 	0.80954 0.70413 0.26099 -0.09200
H 	H 	0.82200 0.63640 0.32130 0.04700
H 	H 	0.77860 0.67700 0.18280 0.05000
C 	C 	0.78189 0.79832 0.34078 -0.04800
H 	H 	0.81040 0.81670 0.42700 0.04100
H 	H 	0.74560 0.76640 0.36330 0.04900
C 	C 	0.76594 0.91363 0.25533 -0.13400
H 	H 	0.75700 0.97400 0.31770 0.07300
C 	C 	0.82094 0.95747 0.20250 -0.04600
H 	H 	0.85240 0.98340 0.28030 0.03700
H 	H 	0.80920 0.02480 0.14120 0.04600
C 	C 	0.84548 0.85755 0.12423 -0.09000
H 	H 	0.81490 0.83730 0.04210 0.05500
H 	H 	0.88050 0.88700 0.09410 0.04100
C 	C 	0.70914 0.90098 0.13533 0.32000
Cd	Cd	0.60786 0.08592 0.42833 1.22100
P 	P 	0.54577 0.13320 0.09343 0.44100
O 	O 	0.56014 0.03330 0.20250 -0.55200
O 	O 	0.57050 0.10170 0.96480 -0.52600
O 	O 	0.47927 0.16910 0.04970 -0.47900
O 	O 	0.79444 0.46450 0.47160 -0.41500
O 	O 	0.83301 0.33220 0.35130 -0.39900
N 	N 	0.63706 0.24725 0.29154 -0.13900
C 	C 	0.58286 0.26884 0.17663 -0.27400
H 	H 	0.55360 0.31400 0.21300 0.09600
H 	H 	0.59490 0.31720 0.10650 0.10800
C 	C 	0.69046 0.20413 0.23901 -0.08900
H 	H 	0.67800 0.13640 0.17870 0.04600
H 	H 	0.72140 0.17700 0.31720 0.04800
C 	C 	0.71811 0.29832 0.15922 -0.05000
H 	H 	0.68960 0.31670 0.07300 0.04100
H 	H 	0.75440 0.26640 0.13670 0.05000
C 	C 	0.73406 0.41363 0.24467 -0.13000
H 	H 	0.74300 0.47400 0.18230 0.07100
C 	C 	0.67906 0.45747 0.29750 -0.05400
H 	H 	0.64760 0.48340 0.21970 0.03400
H 	H 	0.69080 0.52480 0.35880 0.04800
C 	C 	0.65452 0.35755 0.37577 -0.08200
H 	H 	0.68510 0.33730 0.45790 0.05100
H 	H 	0.61950 0.38700 0.40590 0.03000
C 	C 	0.79086 0.40098 0.36467 0.31800
Cd	Cd	0.10786 0.58592 0.42833 1.22000
P 	P 	0.04577 0.63320 0.09343 0.37800
O 	O 	0.06014 0.53330 0.20250 -0.56000
O 	O 	0.07050 0.60170 0.96480 -0.53400
O 	O 	0.97927 0.66910 0.04970 -0.41100
O 	O 	0.29444 0.96450 0.47160 -0.41600
O 	O 	0.33301 0.83220 0.35130 -0.40400
N 	N 	0.13706 0.74725 0.29154 -0.14200
C 	C 	0.08286 0.76884 0.17663 -0.25400
H 	H 	0.05360 0.81400 0.21300 0.06900
H 	H 	0.09490 0.81720 0.10650 0.09500
C 	C 	0.19046 0.70413 0.23901 -0.09100
H 	H 	0.17800 0.63640 0.17870 0.04800
H 	H 	0.22140 0.67700 0.31720 0.04900
C 	C 	0.21811 0.79832 0.15922 -0.04700
H 	H 	0.18960 0.81670 0.07300 0.04000
H 	H 	0.25440 0.76640 0.13670 0.04900
C 	C 	0.23406 0.91363 0.24467 -0.13400
H 	H 	0.24300 0.97400 0.18230 0.07300
C 	C 	0.17906 0.95747 0.29750 -0.04900
H 	H 	0.14760 0.98340 0.21970 0.02800
H 	H 	0.19080 0.02480 0.35880 0.04400
C 	C 	0.15452 0.85755 0.37577 -0.08100
H 	H 	0.18510 0.83730 0.45790 0.05000
H 	H 	0.11950 0.88700 0.40590 0.02300
C 	C 	0.29086 0.90098 0.36467 0.32100
Cd	Cd	0.60786 0.91408 0.92833 1.22000
P 	P 	0.54577 0.86680 0.59343 0.44200
O 	O 	0.56014 0.96670 0.70250 -0.55200
O 	O 	0.57050 0.89830 0.46480 -0.52600
O 	O 	0.47927 0.83090 0.54970 -0.47800
O 	O 	0.79444 0.53550 0.97160 -0.41700
O 	O 	0.83301 0.66780 0.85130 -0.40100
N 	N 	0.63706 0.75275 0.79154 -0.14000
C 	C 	0.58286 0.73116 0.67663 -0.27400
H 	H 	0.55360 0.68600 0.71300 0.09600
H 	H 	0.59490 0.68280 0.60650 0.10800
C 	C 	0.69046 0.79587 0.73901 -0.08900
H 	H 	0.67800 0.86360 0.67870 0.04600
H 	H 	0.72140 0.82300 0.81720 0.04700
C 	C 	0.71811 0.70168 0.65922 -0.05000
H 	H 	0.68960 0.68330 0.57300 0.04100
H 	H 	0.75440 0.73360 0.63670 0.05000
C 	C 	0.73406 0.58637 0.74467 -0.13000
H 	H 	0.74300 0.52600 0.68230 0.07100
C 	C 	0.67906 0.54253 0.79750 -0.05500
H 	H 	0.64760 0.51660 0.71970 0.03400
H 	H 	0.69080 0.47520 0.85880 0.04800
C 	C 	0.65452 0.64245 0.87577 -0.08100
H 	H 	0.68510 0.66270 0.95790 0.04900
H 	H 	0.61950 0.61300 0.90590 0.02900
C 	C 	0.79086 0.59902 0.86467 0.31800
Cd	Cd	0.10786 0.41408 0.92833 1.22000
P 	P 	0.04577 0.36680 0.59343 0.37700
O 	O 	0.06014 0.46670 0.70250 -0.56000
O 	O 	0.07050 0.39830 0.46480 -0.53300
O 	O 	0.97927 0.33090 0.54970 -0.41200
O 	O 	0.29444 0.03550 0.97160 -0.41500
O 	O 	0.33301 0.16780 0.85130 -0.40400
N 	N 	0.13706 0.25275 0.79154 -0.14100
C 	C 	0.08286 0.23116 0.67663 -0.25400
H 	H 	0.05360 0.18600 0.71300 0.06900
H 	H 	0.09490 0.18280 0.60650 0.09500
C 	C 	0.19046 0.29587 0.73901 -0.09300
H 	H 	0.17800 0.36360 0.67870 0.04800
H 	H 	0.22140 0.32300 0.81720 0.04900
C 	C 	0.21811 0.20168 0.65922 -0.04300
H 	H 	0.18960 0.18330 0.57300 0.03800
H 	H 	0.25440 0.23360 0.63670 0.04700
C 	C 	0.23406 0.08637 0.74467 -0.13800
H 	H 	0.24300 0.02600 0.68230 0.07300
C 	C 	0.17906 0.04253 0.79750 -0.04100
H 	H 	0.14760 0.01660 0.71970 0.02600
H 	H 	0.19080 0.97520 0.85880 0.04000
C 	C 	0.15452 0.14245 0.87577 -0.08500
H 	H 	0.18510 0.16270 0.95790 0.05100
H 	H 	0.11950 0.11300 0.90590 0.02400
C 	C 	0.29086 0.09902 0.86467 0.32100
Cd	Cd	0.39214 0.91408 0.57167 1.22100
P 	P 	0.45423 0.86680 0.90657 0.43900
O 	O 	0.43986 0.96670 0.79750 -0.55200
O 	O 	0.42950 0.89830 0.03520 -0.52300
O 	O 	0.52073 0.83090 0.95030 -0.47900
O 	O 	0.20556 0.53550 0.52840 -0.41700
O 	O 	0.16699 0.66780 0.64870 -0.40700
N 	N 	0.36294 0.75275 0.70846 -0.13900
C 	C 	0.41714 0.73116 0.82337 -0.27400
H 	H 	0.44640 0.68600 0.78700 0.09600
H 	H 	0.40510 0.68280 0.89350 0.10800
C 	C 	0.30954 0.79587 0.76099 -0.09100
H 	H 	0.32200 0.86360 0.82130 0.04600
H 	H 	0.27860 0.82300 0.68280 0.04800
C 	C 	0.28189 0.70168 0.84078 -0.04700
H 	H 	0.31040 0.68330 0.92700 0.03900
H 	H 	0.24560 0.73360 0.86330 0.04700
C 	C 	0.26594 0.58637 0.75533 -0.13300
H 	H 	0.25700 0.52600 0.81770 0.07200
C 	C 	0.32094 0.54253 0.70250 -0.05200
H 	H 	0.35240 0.51660 0.78030 0.03300
H 	H 	0.30920 0.47520 0.64120 0.04700
C 	C 	0.34548 0.64245 0.62423 -0.08300
H 	H 	0.31490 0.66270 0.54210 0.05100
H 	H 	0.38050 0.61300 0.59410 0.03000
C 	C 	0.20914 0.59902 0.63533 0.32100
Cd	Cd	0.89214 0.41408 0.57167 1.22300
P 	P 	0.95423 0.36680 0.90657 0.50400
O 	O 	0.93986 0.46670 0.79750 -0.53500
O 	O 	0.92950 0.39830 0.03520 -0.51100
O 	O 	0.02073 0.33090 0.95030 -0.53900
O 	O 	0.70556 0.03550 0.52840 -0.41600
O 	O 	0.66699 0.16780 0.64870 -0.40400
N 	N 	0.86294 0.25275 0.70846 -0.13600
C 	C 	0.91714 0.23116 0.82337 -0.29400
H 	H 	0.94640 0.18600 0.78700 0.12400
H 	H 	0.90510 0.18280 0.89350 0.12300
C 	C 	0.80954 0.29587 0.76099 -0.09100
H 	H 	0.82200 0.36360 0.82130 0.04600
H 	H 	0.77860 0.32300 0.68280 0.04900
C 	C 	0.78189 0.20168 0.84078 -0.04900
H 	H 	0.81040 0.18330 0.92700 0.04200
H 	H 	0.74560 0.23360 0.86330 0.04900
C 	C 	0.76594 0.08637 0.75533 -0.13200
H 	H 	0.75700 0.02600 0.81770 0.07200
C 	C 	0.82094 0.04253 0.70250 -0.05100
H 	H 	0.85240 0.01660 0.78030 0.03800
H 	H 	0.80920 0.97520 0.64120 0.04800
C 	C 	0.84548 0.14245 0.62423 -0.08700
H 	H 	0.81490 0.16270 0.54210 0.05300
H 	H 	0.88050 0.11300 0.59410 0.03900
C 	C 	0.70914 0.09902 0.63533 0.32000
Cd	Cd	0.50000 0.88001 0.25000 1.18400
Cd	Cd	0.00000 0.38001 0.25000 1.15600
Cd	Cd	0.50000 0.11999 0.75000 1.18300
Cd	Cd	0.00000 0.61999 0.75000 1.15600
