data_crystal

_cell_length_a 40.53700
_cell_length_b 10.19200
_cell_length_c 18.23120
_cell_angle_alpha 90.00000
_cell_angle_beta  95.18800
_cell_angle_gamma 90.00000

_symmetry_space_group_name_	'P 1'
_symmetry_space_group_name_H-M	'P 1'

loop_
_symmetry_equiv_pos_as_xyz
  x,y,z

loop_
_atom_site_label
_atom_site_type_symbol
_atom_site_fract_x
_atom_site_fract_y
_atom_site_fract_z
_atom_site_charge
Cd	Cd	0.66300 0.20986 0.72892 1.20800
Cd	Cd	0.83750 0.36213 0.77079 1.21300
Cd	Cd	0.75041 0.28616 0.74979 1.24600
O 	O 	0.72815 0.32690 0.63650 -0.44600
O 	O 	0.67413 0.35890 0.64290 -0.43200
O 	O 	0.71470 0.65290 0.30010 -0.42000
O 	O 	0.66310 0.72490 0.32260 -0.44800
C 	C 	0.69800 0.45510 0.54330 -0.09000
C 	C 	0.72490 0.45480 0.49940 -0.01100
H 	H 	0.74470 0.40860 0.51450 0.04400
C 	C 	0.72170 0.52280 0.43460 -0.02900
H 	H 	0.73970 0.52420 0.40470 0.05400
C 	C 	0.69450 0.58600 0.41230 -0.05100
C 	C 	0.66780 0.58710 0.45950 -0.04400
H 	H 	0.64830 0.63600 0.44580 0.04300
C 	C 	0.67060 0.51890 0.52270 0.00500
H 	H 	0.65260 0.51680 0.55270 0.03500
C 	C 	0.70140 0.37130 0.61320 0.37500
C 	C 	0.68980 0.66750 0.33990 0.32600
O 	O 	0.66608 0.34350 0.82540 -0.45900
O 	O 	0.71516 0.41850 0.80350 -0.45200
O 	O 	0.67413 0.72270 0.14230 -0.45300
O 	O 	0.72814 0.74220 0.13620 -0.42100
C 	C 	0.69310 0.48110 0.91200 -0.10100
C 	C 	0.66700 0.48650 0.95350 -0.00400
H 	H 	0.64690 0.44400 0.93670 0.03600
C 	C 	0.66930 0.55240 0.01930 -0.01800
H 	H 	0.65100 0.55030 0.04850 0.04400
C 	C 	0.69810 0.62340 0.04490 -0.09500
C 	C 	0.72340 0.61470 0.00470 -0.00300
H 	H 	0.74380 0.65300 0.02330 0.04800
C 	C 	0.72200 0.55300 0.93630 -0.01400
H 	H 	0.74000 0.55820 0.90670 0.04900
C 	C 	0.69160 0.41320 0.84050 0.40200
C 	C 	0.69900 0.69840 0.11430 0.39400
O 	O 	0.78651 0.45850 0.73700 -0.52100
O 	O 	0.81685 0.56530 0.82300 -0.38000
O 	O 	0.68350 0.00370 0.67710 -0.39200
O 	O 	0.71313 0.11270 0.76300 -0.50100
C 	C 	0.76950 0.67820 0.76460 -0.05800
C 	C 	0.74850 0.67560 0.70300 -0.03000
H 	H 	0.74660 0.60360 0.66980 0.05100
C 	C 	0.72880 0.79790 0.69290 -0.00800
H 	H 	0.71380 0.80280 0.64980 0.05300
C 	C 	0.72970 0.90020 0.73690 -0.06500
C 	C 	0.75390 0.88590 0.79800 -0.00800
H 	H 	0.75640 0.95800 0.83100 0.05400
C 	C 	0.77290 0.78620 0.81350 -0.02700
H 	H 	0.78830 0.78520 0.85590 0.05600
C 	C 	0.79180 0.55570 0.77680 0.32500
C 	C 	0.70710 0.00650 0.72360 0.29700
Cu	Cu	0.48436 0.08270 0.55980 0.84200
O 	O 	0.52170 0.19210 0.55010 -0.36100
N 	N 	0.61200 0.20300 0.67030 -0.01300
N 	N 	0.51180 0.96300 0.62500 -0.24000
C 	C 	0.59240 0.09700 0.67280 0.07400
H 	H 	0.60070 0.02200 0.69910 -0.04200
C 	C 	0.55970 0.09370 0.63740 -0.18900
C 	C 	0.54960 0.19900 0.58570 0.21700
C 	C 	0.57410 0.30550 0.57920 -0.06500
C 	C 	0.60250 0.30430 0.62470 -0.10400
H 	H 	0.61660 0.37870 0.62470 0.05400
C 	C 	0.56390 0.42400 0.53420 -0.09700
H 	H 	0.57320 0.50310 0.55910 0.05100
H 	H 	0.53970 0.43050 0.52860 0.06200
H 	H 	0.57220 0.41700 0.48560 0.04400
C 	C 	0.54010 0.98650 0.65090 0.12700
H 	H 	0.54990 0.92320 0.68440 -0.01000
C 	C 	0.49640 0.83840 0.65930 -0.07900
H 	H 	0.51250 0.78100 0.68890 0.04200
C 	C 	0.47140 0.91060 0.70410 0.01600
H 	H 	0.47110 0.87010 0.75340 0.01900
H 	H 	0.47780 0.00390 0.71070 -0.02900
C 	C 	0.43690 0.90050 0.66180 -0.23300
H 	H 	0.42200 0.84600 0.68930 0.07600
H 	H 	0.42690 0.98870 0.65410 0.07900
C 	C 	0.44240 0.83650 0.58770 0.15000
C 	C 	0.41190 0.76290 0.56760 -0.50900
H 	H 	0.39320 0.80840 0.58670 0.17000
H 	H 	0.41390 0.67460 0.58880 0.15900
H 	H 	0.40820 0.75660 0.51380 0.17100
C 	C 	0.47410 0.76970 0.60390 0.10200
C 	C 	0.46990 0.63110 0.63570 -0.43100
H 	H 	0.48500 0.62010 0.68040 0.13400
H 	H 	0.47490 0.56530 0.59910 0.13700
H 	H 	0.44700 0.61980 0.64770 0.13100
C 	C 	0.49020 0.74900 0.53130 -0.33100
H 	H 	0.50860 0.81040 0.52880 0.10300
H 	H 	0.47370 0.76370 0.48950 0.09200
H 	H 	0.49860 0.65860 0.52950 0.10500
Cu	Cu	0.99701 0.55220 0.01710 0.56900
C 	C 	0.00630 0.77300 0.21370 -0.49900
C 	C 	0.97350 0.83600 0.09280 -0.21600
C 	C 	0.96620 0.96600 0.13110 -0.10600
H 	H 	0.94250 0.98600 0.12270 0.05700
H 	H 	0.97900 0.03670 0.11090 0.02000
H 	H 	0.97240 0.95800 0.18410 0.04600
C 	C 	0.99940 0.87000 0.03880 0.65300
H 	H 	0.98830 0.88030 0.98910 -0.36100
H 	H 	0.01570 0.79860 0.03870 -0.10700
H 	H 	0.01060 0.95150 0.05420 -0.10100
O 	O 	0.98060 0.44500 0.93710 -0.23000
N 	N 	0.89060 0.39900 0.82550 0.17600
N 	N 	0.95480 0.64220 0.01630 -0.19200
C 	C 	0.89510 0.47800 0.87710 -0.35100
H 	H 	0.87630 0.52700 0.88920 0.13100
C 	C 	0.92640 0.50520 0.92120 0.15000
C 	C 	0.95170 0.41600 0.90660 -0.13500
C 	C 	0.94560 0.31700 0.85870 0.19200
C 	C 	0.91320 0.31900 0.81870 -0.20000
H 	H 	0.90870 0.25210 0.78300 0.06200
C 	C 	0.97300 0.22100 0.85200 -0.52900
H 	H 	0.96400 0.14080 0.82740 0.15800
H 	H 	0.98330 0.19850 0.90080 0.18400
H 	H 	0.98950 0.25930 0.82230 0.17200
C 	C 	0.93070 0.61900 0.96330 -0.06800
H 	H 	0.91480 0.68660 0.95320 0.05400
C 	C 	0.94320 0.77600 0.04770 0.07800
H 	H 	0.92890 0.83540 0.01460 0.00600
C 	C 	0.92770 0.70300 0.10960 -0.09500
H 	H 	0.91710 0.62090 0.09040 0.05200
H 	H 	0.91060 0.75830 0.12990 0.04300
C 	C 	0.95560 0.67200 0.16970 -0.18500
H 	H 	0.95690 0.57660 0.17900 0.07000
H 	H 	0.95160 0.71730 0.21620 0.07100
C 	C 	0.98810 0.72200 0.14100 0.19500
H 	H 	0.99050 0.81870 0.24230 0.15700
H 	H 	0.02380 0.83400 0.20250 0.16500
H 	H 	0.01600 0.69900 0.24230 0.15600
O 	O 	0.03120 0.41150 0.02320 -0.23000
N 	N 	0.11490 0.37300 0.16070 -0.39600
N 	N 	0.01570 0.64900 0.10100 -0.22000
C 	C 	0.09720 0.48100 0.16870 0.32700
H 	H 	0.10450 0.54500 0.20450 -0.11900
C 	C 	0.06580 0.50100 0.12110 -0.20200
C 	C 	0.05730 0.40700 0.06640 0.27600
C 	C 	0.07950 0.29200 0.05460 -0.07500
C 	C 	0.10700 0.29000 0.10480 0.15400
H 	H 	0.12240 0.22160 0.09900 -0.01900
C 	C 	0.06540 0.19300 0.99920 -0.30400
H 	H 	0.04200 0.21350 0.98540 0.11500
H 	H 	0.06730 0.10540 0.02070 0.10500
H 	H 	0.07770 0.19710 0.95540 0.10400
C 	C 	0.04650 0.61800 0.13670 0.08800
H 	H 	0.05570 0.67660 0.17370 -0.00700
O 	O 	0.46620 0.22600 0.49960 -0.20700
N 	N 	0.38420 0.18400 0.34550 -0.20700
N 	N 	0.44410 0.95740 0.53470 -0.24000
C 	C 	0.39430 0.07800 0.38390 -0.03500
H 	H 	0.38450 0.99500 0.37330 0.05300
C 	C 	0.42000 0.09300 0.44070 -0.06500
C 	C 	0.43570 0.21400 0.45620 -0.01400
C 	C 	0.43240 0.31700 0.39940 0.06900
C 	C 	0.40590 0.30700 0.34840 0.06200
H 	H 	0.40080 0.37670 0.31450 -0.01800
C 	C 	0.44630 0.45200 0.41310 -0.18200
H 	H 	0.46420 0.44880 0.45320 0.03400
H 	H 	0.42880 0.51110 0.42700 0.03100
H 	H 	0.45520 0.48500 0.36830 0.06100
C 	C 	0.42440 0.97740 0.48330 0.08200
H 	H 	0.40970 0.90710 0.46940 -0.00300
Cd	Cd	0.16300 0.70986 0.72892 1.21000
Cd	Cd	0.33750 0.86213 0.77079 1.22000
Cd	Cd	0.25041 0.78616 0.74979 1.24700
O 	O 	0.22815 0.82690 0.63650 -0.44100
O 	O 	0.17413 0.85890 0.64290 -0.42500
O 	O 	0.21470 0.15290 0.30010 -0.42400
O 	O 	0.16310 0.22490 0.32260 -0.45100
C 	C 	0.19800 0.95510 0.54330 -0.05800
C 	C 	0.22490 0.95480 0.49940 0.02500
H 	H 	0.24470 0.90860 0.51450 0.03900
C 	C 	0.22170 0.02280 0.43460 -0.07200
H 	H 	0.23970 0.02420 0.40470 0.06000
C 	C 	0.19450 0.08600 0.41230 -0.04700
C 	C 	0.16780 0.08710 0.45950 -0.03400
H 	H 	0.14830 0.13600 0.44580 0.03600
C 	C 	0.17060 0.01890 0.52270 -0.04300
H 	H 	0.15260 0.01680 0.55270 0.04000
C 	C 	0.20140 0.87130 0.61320 0.37000
C 	C 	0.18980 0.16750 0.33990 0.32200
O 	O 	0.16608 0.84350 0.82540 -0.45400
O 	O 	0.21516 0.91850 0.80350 -0.44100
O 	O 	0.17413 0.22270 0.14230 -0.46300
O 	O 	0.22814 0.24220 0.13620 -0.42800
C 	C 	0.19310 0.98110 0.91200 -0.07700
C 	C 	0.16700 0.98650 0.95350 0.03000
H 	H 	0.14690 0.94400 0.93670 0.03000
C 	C 	0.16930 0.05240 0.01930 -0.05700
H 	H 	0.15100 0.05030 0.04850 0.04800
C 	C 	0.19810 0.12340 0.04490 -0.09700
C 	C 	0.22340 0.11470 0.00470 0.00400
H 	H 	0.24380 0.15300 0.02330 0.04100
C 	C 	0.22200 0.05300 0.93630 -0.05300
H 	H 	0.24000 0.05820 0.90670 0.05300
C 	C 	0.19160 0.91320 0.84050 0.39700
C 	C 	0.19900 0.19840 0.11430 0.39100
O 	O 	0.28651 0.95850 0.73700 -0.48900
O 	O 	0.31685 0.06530 0.82300 -0.38200
O 	O 	0.18350 0.50370 0.67710 -0.39200
O 	O 	0.21313 0.61270 0.76300 -0.50500
C 	C 	0.26950 0.17820 0.76460 -0.03300
C 	C 	0.24850 0.17560 0.70300 -0.06400
H 	H 	0.24660 0.10360 0.66980 0.05100
C 	C 	0.22880 0.29790 0.69290 0.02800
H 	H 	0.21380 0.30280 0.64980 0.03300
C 	C 	0.22970 0.40020 0.73690 -0.13000
C 	C 	0.25390 0.38590 0.79800 0.03300
H 	H 	0.25640 0.45800 0.83100 0.02900
C 	C 	0.27290 0.28620 0.81350 -0.06800
H 	H 	0.28830 0.28520 0.85590 0.06400
C 	C 	0.29180 0.05570 0.77680 0.28000
C 	C 	0.20710 0.50650 0.72360 0.34300
Cu	Cu	0.98436 0.58270 0.55980 0.85400
O 	O 	0.02170 0.69210 0.55010 -0.35000
N 	N 	0.11200 0.70300 0.67030 -0.05300
N 	N 	0.01180 0.46300 0.62500 -0.24000
C 	C 	0.09240 0.59700 0.67280 0.02700
H 	H 	0.10070 0.52200 0.69910 -0.01500
C 	C 	0.05970 0.59370 0.63740 -0.13200
C 	C 	0.04960 0.69900 0.58570 0.19700
C 	C 	0.07410 0.80550 0.57920 -0.05500
C 	C 	0.10250 0.80430 0.62470 -0.07400
H 	H 	0.11660 0.87870 0.62470 0.05000
C 	C 	0.06390 0.92400 0.53420 -0.07600
H 	H 	0.07320 0.00310 0.55910 0.03300
H 	H 	0.03970 0.93050 0.52860 0.05500
H 	H 	0.07220 0.91700 0.48560 0.04800
C 	C 	0.04010 0.48650 0.65090 0.06700
H 	H 	0.04990 0.42320 0.68440 -0.00100
C 	C 	0.99640 0.33840 0.65930 -0.05500
H 	H 	0.01250 0.28100 0.68890 0.03200
C 	C 	0.97140 0.41060 0.70410 -0.06600
H 	H 	0.97110 0.37010 0.75340 0.03900
H 	H 	0.97780 0.50390 0.71070 0.01700
C 	C 	0.93690 0.40050 0.66180 -0.19400
H 	H 	0.92200 0.34600 0.68930 0.06500
H 	H 	0.92690 0.48870 0.65410 0.05800
C 	C 	0.94240 0.33650 0.58770 0.13800
C 	C 	0.91190 0.26290 0.56760 -0.49200
H 	H 	0.89320 0.30840 0.58670 0.16300
H 	H 	0.91390 0.17460 0.58880 0.15300
H 	H 	0.90820 0.25660 0.51380 0.16300
C 	C 	0.97410 0.26970 0.60390 0.09200
C 	C 	0.96990 0.13110 0.63570 -0.41300
H 	H 	0.98500 0.12010 0.68040 0.12500
H 	H 	0.97490 0.06530 0.59910 0.12400
H 	H 	0.94700 0.11980 0.64770 0.12400
C 	C 	0.99020 0.24900 0.53130 -0.32100
H 	H 	0.00860 0.31040 0.52880 0.09800
H 	H 	0.97370 0.26370 0.48950 0.08900
H 	H 	0.99860 0.15860 0.52950 0.09900
Cu	Cu	0.49701 0.05220 0.01710 0.56100
C 	C 	0.50630 0.27300 0.21370 -0.48300
C 	C 	0.47350 0.33600 0.09280 -0.20000
C 	C 	0.46620 0.46600 0.13110 -0.19000
H 	H 	0.44250 0.48600 0.12270 0.07400
H 	H 	0.47900 0.53670 0.11090 0.06300
H 	H 	0.47240 0.45800 0.18410 0.06400
C 	C 	0.49940 0.37000 0.03880 0.66600
H 	H 	0.48830 0.38030 0.98910 -0.36900
H 	H 	0.51570 0.29860 0.03870 -0.11100
H 	H 	0.51060 0.45150 0.05420 -0.11400
O 	O 	0.48060 0.94500 0.93710 -0.18400
N 	N 	0.39060 0.89900 0.82550 0.38500
N 	N 	0.45480 0.14220 0.01630 -0.18000
C 	C 	0.39510 0.97800 0.87710 -0.53500
H 	H 	0.37630 0.02700 0.88920 0.17200
C 	C 	0.42640 0.00520 0.92120 0.33000
C 	C 	0.45170 0.91600 0.90660 -0.21800
C 	C 	0.44560 0.81700 0.85870 0.29400
C 	C 	0.41320 0.81900 0.81870 -0.32900
H 	H 	0.40870 0.75210 0.78300 0.10700
C 	C 	0.47300 0.72100 0.85200 -0.63200
H 	H 	0.46400 0.64080 0.82740 0.19000
H 	H 	0.48330 0.69850 0.90080 0.21700
H 	H 	0.48950 0.75930 0.82230 0.20600
C 	C 	0.43070 0.11900 0.96330 -0.15800
H 	H 	0.41480 0.18660 0.95320 0.08000
C 	C 	0.44320 0.27600 0.04770 0.07300
H 	H 	0.42890 0.33540 0.01460 0.00400
C 	C 	0.42770 0.20300 0.10960 -0.09600
H 	H 	0.41710 0.12090 0.09040 0.04700
H 	H 	0.41060 0.25830 0.12990 0.04100
C 	C 	0.45560 0.17200 0.16970 -0.17900
H 	H 	0.45690 0.07660 0.17900 0.06100
H 	H 	0.45160 0.21730 0.21620 0.06700
C 	C 	0.48810 0.22200 0.14100 0.18500
H 	H 	0.49050 0.31870 0.24230 0.14800
H 	H 	0.52380 0.33400 0.20250 0.15400
H 	H 	0.51600 0.19900 0.24230 0.14800
O 	O 	0.53120 0.91150 0.02320 -0.26000
N 	N 	0.61490 0.87300 0.16070 -0.61500
N 	N 	0.51570 0.14900 0.10100 -0.23600
C 	C 	0.59720 0.98100 0.16870 0.55600
H 	H 	0.60450 0.04500 0.20450 -0.21500
C 	C 	0.56580 0.00100 0.12110 -0.42800
C 	C 	0.55730 0.90700 0.06640 0.39000
C 	C 	0.57950 0.79200 0.05460 -0.18200
C 	C 	0.60700 0.79000 0.10480 0.32900
H 	H 	0.62240 0.72160 0.09900 -0.07100
C 	C 	0.56540 0.69300 0.99920 -0.21000
H 	H 	0.54200 0.71350 0.98540 0.09100
H 	H 	0.56730 0.60540 0.02070 0.08500
H 	H 	0.57770 0.69710 0.95540 0.08500
C 	C 	0.54650 0.11800 0.13670 0.16600
H 	H 	0.55570 0.17660 0.17370 -0.03600
O 	O 	0.96620 0.72600 0.49960 -0.20600
N 	N 	0.88420 0.68400 0.34550 -0.16600
N 	N 	0.94410 0.45740 0.53470 -0.23900
C 	C 	0.89430 0.57800 0.38390 0.02100
H 	H 	0.88450 0.49500 0.37330 0.01100
C 	C 	0.92000 0.59300 0.44070 -0.06000
C 	C 	0.93570 0.71400 0.45620 -0.00200
C 	C 	0.93240 0.81700 0.39940 0.04900
C 	C 	0.90590 0.80700 0.34840 0.04200
H 	H 	0.90080 0.87670 0.31450 -0.00800
C 	C 	0.94630 0.95200 0.41310 -0.14600
H 	H 	0.96420 0.94880 0.45320 0.03500
H 	H 	0.92880 0.01110 0.42700 0.01600
H 	H 	0.95520 0.98500 0.36830 0.06100
C 	C 	0.92440 0.47740 0.48330 0.05000
H 	H 	0.90970 0.40710 0.46940 0.00300
Cd	Cd	0.33700 0.20986 0.27108 1.20900
Cd	Cd	0.16250 0.36213 0.22921 1.21400
Cd	Cd	0.24959 0.28616 0.25021 1.24600
O 	O 	0.27185 0.32690 0.36350 -0.44600
O 	O 	0.32587 0.35890 0.35710 -0.43200
O 	O 	0.28530 0.65290 0.69990 -0.42000
O 	O 	0.33690 0.72490 0.67740 -0.44800
C 	C 	0.30200 0.45510 0.45670 -0.09000
C 	C 	0.27510 0.45480 0.50060 -0.01100
H 	H 	0.25530 0.40860 0.48550 0.04400
C 	C 	0.27830 0.52280 0.56540 -0.02900
H 	H 	0.26030 0.52420 0.59530 0.05400
C 	C 	0.30550 0.58600 0.58770 -0.05100
C 	C 	0.33220 0.58710 0.54050 -0.04400
H 	H 	0.35170 0.63600 0.55420 0.04300
C 	C 	0.32940 0.51890 0.47730 0.00500
H 	H 	0.34740 0.51680 0.44730 0.03500
C 	C 	0.29860 0.37130 0.38680 0.37500
C 	C 	0.31020 0.66750 0.66010 0.32600
O 	O 	0.33392 0.34350 0.17460 -0.45900
O 	O 	0.28484 0.41850 0.19650 -0.45200
O 	O 	0.32587 0.72270 0.85770 -0.45300
O 	O 	0.27186 0.74220 0.86380 -0.42100
C 	C 	0.30690 0.48110 0.08800 -0.10100
C 	C 	0.33300 0.48650 0.04650 -0.00400
H 	H 	0.35310 0.44400 0.06330 0.03600
C 	C 	0.33070 0.55240 0.98070 -0.01800
H 	H 	0.34900 0.55030 0.95150 0.04400
C 	C 	0.30190 0.62340 0.95510 -0.09500
C 	C 	0.27660 0.61470 0.99530 -0.00300
H 	H 	0.25620 0.65300 0.97670 0.04800
C 	C 	0.27800 0.55300 0.06370 -0.01400
H 	H 	0.26000 0.55820 0.09330 0.04900
C 	C 	0.30840 0.41320 0.15950 0.40200
C 	C 	0.30100 0.69840 0.88570 0.39400
O 	O 	0.21349 0.45850 0.26300 -0.52100
O 	O 	0.18315 0.56530 0.17700 -0.38000
O 	O 	0.31650 0.00370 0.32290 -0.39200
O 	O 	0.28687 0.11270 0.23700 -0.50100
C 	C 	0.23050 0.67820 0.23540 -0.05800
C 	C 	0.25150 0.67560 0.29700 -0.03000
H 	H 	0.25340 0.60360 0.33020 0.05100
C 	C 	0.27120 0.79790 0.30710 -0.00800
H 	H 	0.28620 0.80280 0.35020 0.05300
C 	C 	0.27030 0.90020 0.26310 -0.06500
C 	C 	0.24610 0.88590 0.20200 -0.00800
H 	H 	0.24360 0.95800 0.16900 0.05400
C 	C 	0.22710 0.78620 0.18650 -0.02700
H 	H 	0.21170 0.78520 0.14410 0.05600
C 	C 	0.20820 0.55570 0.22320 0.32500
C 	C 	0.29290 0.00650 0.27640 0.29700
Cu	Cu	0.51564 0.08270 0.44020 0.84200
O 	O 	0.47830 0.19210 0.44990 -0.36100
N 	N 	0.38800 0.20300 0.32970 -0.01300
N 	N 	0.48820 0.96300 0.37500 -0.24000
C 	C 	0.40760 0.09700 0.32720 0.07400
H 	H 	0.39930 0.02200 0.30090 -0.04200
C 	C 	0.44030 0.09370 0.36260 -0.18900
C 	C 	0.45040 0.19900 0.41430 0.21700
C 	C 	0.42590 0.30550 0.42080 -0.06500
C 	C 	0.39750 0.30430 0.37530 -0.10400
H 	H 	0.38340 0.37870 0.37530 0.05400
C 	C 	0.43610 0.42400 0.46580 -0.09700
H 	H 	0.42680 0.50310 0.44090 0.05100
H 	H 	0.46030 0.43050 0.47140 0.06200
H 	H 	0.42780 0.41700 0.51440 0.04400
C 	C 	0.45990 0.98650 0.34910 0.12700
H 	H 	0.45010 0.92320 0.31560 -0.01000
C 	C 	0.50360 0.83840 0.34070 -0.07900
H 	H 	0.48750 0.78100 0.31110 0.04200
C 	C 	0.52860 0.91060 0.29590 0.01600
H 	H 	0.52890 0.87010 0.24660 0.01900
H 	H 	0.52220 0.00390 0.28930 -0.02900
C 	C 	0.56310 0.90050 0.33820 -0.23300
H 	H 	0.57800 0.84600 0.31070 0.07600
H 	H 	0.57310 0.98870 0.34590 0.07900
C 	C 	0.55760 0.83650 0.41230 0.15000
C 	C 	0.58810 0.76290 0.43240 -0.50900
H 	H 	0.60680 0.80840 0.41330 0.17000
H 	H 	0.58610 0.67460 0.41120 0.15900
H 	H 	0.59180 0.75660 0.48620 0.17100
C 	C 	0.52590 0.76970 0.39610 0.10200
C 	C 	0.53010 0.63110 0.36430 -0.43100
H 	H 	0.51500 0.62010 0.31960 0.13400
H 	H 	0.52510 0.56530 0.40090 0.13700
H 	H 	0.55300 0.61980 0.35230 0.13100
C 	C 	0.50980 0.74900 0.46870 -0.33100
H 	H 	0.49140 0.81040 0.47120 0.10300
H 	H 	0.52630 0.76370 0.51050 0.09200
H 	H 	0.50140 0.65860 0.47050 0.10500
Cu	Cu	0.00299 0.55220 0.98290 0.56900
C 	C 	0.99370 0.77300 0.78630 -0.49900
C 	C 	0.02650 0.83600 0.90720 -0.21600
C 	C 	0.03380 0.96600 0.86890 -0.10600
H 	H 	0.05750 0.98600 0.87730 0.05700
H 	H 	0.02100 0.03670 0.88910 0.02000
H 	H 	0.02760 0.95800 0.81590 0.04600
C 	C 	0.00060 0.87000 0.96120 0.65300
H 	H 	0.01170 0.88030 0.01090 -0.36100
H 	H 	0.98430 0.79860 0.96130 -0.10700
H 	H 	0.98940 0.95150 0.94580 -0.10100
O 	O 	0.01940 0.44500 0.06290 -0.23000
N 	N 	0.10940 0.39900 0.17450 0.17600
N 	N 	0.04520 0.64220 0.98370 -0.19200
C 	C 	0.10490 0.47800 0.12290 -0.35100
H 	H 	0.12370 0.52700 0.11080 0.13100
C 	C 	0.07360 0.50520 0.07880 0.15000
C 	C 	0.04830 0.41600 0.09340 -0.13500
C 	C 	0.05440 0.31700 0.14130 0.19200
C 	C 	0.08680 0.31900 0.18130 -0.20000
H 	H 	0.09130 0.25210 0.21700 0.06200
C 	C 	0.02700 0.22100 0.14800 -0.52900
H 	H 	0.03600 0.14080 0.17260 0.15800
H 	H 	0.01670 0.19850 0.09920 0.18400
H 	H 	0.01050 0.25930 0.17770 0.17200
C 	C 	0.06930 0.61900 0.03670 -0.06800
H 	H 	0.08520 0.68660 0.04680 0.05400
C 	C 	0.05680 0.77600 0.95230 0.07800
H 	H 	0.07110 0.83540 0.98540 0.00600
C 	C 	0.07230 0.70300 0.89040 -0.09500
H 	H 	0.08290 0.62090 0.90960 0.05200
H 	H 	0.08940 0.75830 0.87010 0.04300
C 	C 	0.04440 0.67200 0.83030 -0.18500
H 	H 	0.04310 0.57660 0.82100 0.07000
H 	H 	0.04840 0.71730 0.78380 0.07100
C 	C 	0.01190 0.72200 0.85900 0.19500
H 	H 	0.00950 0.81870 0.75770 0.15700
H 	H 	0.97620 0.83400 0.79750 0.16500
H 	H 	0.98400 0.69900 0.75770 0.15600
O 	O 	0.96880 0.41150 0.97680 -0.23000
N 	N 	0.88510 0.37300 0.83930 -0.39600
N 	N 	0.98430 0.64900 0.89900 -0.22000
C 	C 	0.90280 0.48100 0.83130 0.32700
H 	H 	0.89550 0.54500 0.79550 -0.11900
C 	C 	0.93420 0.50100 0.87890 -0.20200
C 	C 	0.94270 0.40700 0.93360 0.27600
C 	C 	0.92050 0.29200 0.94540 -0.07500
C 	C 	0.89300 0.29000 0.89520 0.15400
H 	H 	0.87760 0.22160 0.90100 -0.01900
C 	C 	0.93460 0.19300 0.00080 -0.30400
H 	H 	0.95800 0.21350 0.01460 0.11500
H 	H 	0.93270 0.10540 0.97930 0.10500
H 	H 	0.92230 0.19710 0.04460 0.10400
C 	C 	0.95350 0.61800 0.86330 0.08800
H 	H 	0.94430 0.67660 0.82630 -0.00700
O 	O 	0.53380 0.22600 0.50040 -0.20700
N 	N 	0.61580 0.18400 0.65450 -0.20700
N 	N 	0.55590 0.95740 0.46530 -0.24000
C 	C 	0.60570 0.07800 0.61610 -0.03500
H 	H 	0.61550 0.99500 0.62670 0.05300
C 	C 	0.58000 0.09300 0.55930 -0.06500
C 	C 	0.56430 0.21400 0.54380 -0.01400
C 	C 	0.56760 0.31700 0.60060 0.06900
C 	C 	0.59410 0.30700 0.65160 0.06200
H 	H 	0.59920 0.37670 0.68550 -0.01800
C 	C 	0.55370 0.45200 0.58690 -0.18200
H 	H 	0.53580 0.44880 0.54680 0.03400
H 	H 	0.57120 0.51110 0.57300 0.03100
H 	H 	0.54480 0.48500 0.63170 0.06100
C 	C 	0.57560 0.97740 0.51670 0.08200
H 	H 	0.59030 0.90710 0.53060 -0.00300
Cd	Cd	0.83700 0.70986 0.27108 1.21000
Cd	Cd	0.66250 0.86213 0.22921 1.22000
Cd	Cd	0.74959 0.78616 0.25021 1.24700
O 	O 	0.77185 0.82690 0.36350 -0.44100
O 	O 	0.82587 0.85890 0.35710 -0.42500
O 	O 	0.78530 0.15290 0.69990 -0.42400
O 	O 	0.83690 0.22490 0.67740 -0.45100
C 	C 	0.80200 0.95510 0.45670 -0.05800
C 	C 	0.77510 0.95480 0.50060 0.02500
H 	H 	0.75530 0.90860 0.48550 0.03900
C 	C 	0.77830 0.02280 0.56540 -0.07200
H 	H 	0.76030 0.02420 0.59530 0.06000
C 	C 	0.80550 0.08600 0.58770 -0.04700
C 	C 	0.83220 0.08710 0.54050 -0.03400
H 	H 	0.85170 0.13600 0.55420 0.03600
C 	C 	0.82940 0.01890 0.47730 -0.04300
H 	H 	0.84740 0.01680 0.44730 0.04000
C 	C 	0.79860 0.87130 0.38680 0.37000
C 	C 	0.81020 0.16750 0.66010 0.32200
O 	O 	0.83392 0.84350 0.17460 -0.45400
O 	O 	0.78484 0.91850 0.19650 -0.44100
O 	O 	0.82587 0.22270 0.85770 -0.46300
O 	O 	0.77186 0.24220 0.86380 -0.42800
C 	C 	0.80690 0.98110 0.08800 -0.07700
C 	C 	0.83300 0.98650 0.04650 0.03000
H 	H 	0.85310 0.94400 0.06330 0.03000
C 	C 	0.83070 0.05240 0.98070 -0.05700
H 	H 	0.84900 0.05030 0.95150 0.04800
C 	C 	0.80190 0.12340 0.95510 -0.09700
C 	C 	0.77660 0.11470 0.99530 0.00400
H 	H 	0.75620 0.15300 0.97670 0.04100
C 	C 	0.77800 0.05300 0.06370 -0.05300
H 	H 	0.76000 0.05820 0.09330 0.05300
C 	C 	0.80840 0.91320 0.15950 0.39700
C 	C 	0.80100 0.19840 0.88570 0.39100
O 	O 	0.71349 0.95850 0.26300 -0.48900
O 	O 	0.68315 0.06530 0.17700 -0.38200
O 	O 	0.81650 0.50370 0.32290 -0.39200
O 	O 	0.78687 0.61270 0.23700 -0.50500
C 	C 	0.73050 0.17820 0.23540 -0.03300
C 	C 	0.75150 0.17560 0.29700 -0.06400
H 	H 	0.75340 0.10360 0.33020 0.05100
C 	C 	0.77120 0.29790 0.30710 0.02800
H 	H 	0.78620 0.30280 0.35020 0.03300
C 	C 	0.77030 0.40020 0.26310 -0.13000
C 	C 	0.74610 0.38590 0.20200 0.03300
H 	H 	0.74360 0.45800 0.16900 0.02900
C 	C 	0.72710 0.28620 0.18650 -0.06800
H 	H 	0.71170 0.28520 0.14410 0.06400
C 	C 	0.70820 0.05570 0.22320 0.28000
C 	C 	0.79290 0.50650 0.27640 0.34300
Cu	Cu	0.01564 0.58270 0.44020 0.85400
O 	O 	0.97830 0.69210 0.44990 -0.35000
N 	N 	0.88800 0.70300 0.32970 -0.05300
N 	N 	0.98820 0.46300 0.37500 -0.24000
C 	C 	0.90760 0.59700 0.32720 0.02700
H 	H 	0.89930 0.52200 0.30090 -0.01500
C 	C 	0.94030 0.59370 0.36260 -0.13200
C 	C 	0.95040 0.69900 0.41430 0.19700
C 	C 	0.92590 0.80550 0.42080 -0.05500
C 	C 	0.89750 0.80430 0.37530 -0.07400
H 	H 	0.88340 0.87870 0.37530 0.05000
C 	C 	0.93610 0.92400 0.46580 -0.07600
H 	H 	0.92680 0.00310 0.44090 0.03300
H 	H 	0.96030 0.93050 0.47140 0.05500
H 	H 	0.92780 0.91700 0.51440 0.04800
C 	C 	0.95990 0.48650 0.34910 0.06700
H 	H 	0.95010 0.42320 0.31560 -0.00100
C 	C 	0.00360 0.33840 0.34070 -0.05500
H 	H 	0.98750 0.28100 0.31110 0.03200
C 	C 	0.02860 0.41060 0.29590 -0.06600
H 	H 	0.02890 0.37010 0.24660 0.03900
H 	H 	0.02220 0.50390 0.28930 0.01700
C 	C 	0.06310 0.40050 0.33820 -0.19400
H 	H 	0.07800 0.34600 0.31070 0.06500
H 	H 	0.07310 0.48870 0.34590 0.05800
C 	C 	0.05760 0.33650 0.41230 0.13800
C 	C 	0.08810 0.26290 0.43240 -0.49200
H 	H 	0.10680 0.30840 0.41330 0.16300
H 	H 	0.08610 0.17460 0.41120 0.15300
H 	H 	0.09180 0.25660 0.48620 0.16300
C 	C 	0.02590 0.26970 0.39610 0.09200
C 	C 	0.03010 0.13110 0.36430 -0.41300
H 	H 	0.01500 0.12010 0.31960 0.12500
H 	H 	0.02510 0.06530 0.40090 0.12400
H 	H 	0.05300 0.11980 0.35230 0.12400
C 	C 	0.00980 0.24900 0.46870 -0.32100
H 	H 	0.99140 0.31040 0.47120 0.09800
H 	H 	0.02630 0.26370 0.51050 0.08900
H 	H 	0.00140 0.15860 0.47050 0.09900
Cu	Cu	0.50299 0.05220 0.98290 0.56100
C 	C 	0.49370 0.27300 0.78630 -0.48300
C 	C 	0.52650 0.33600 0.90720 -0.20000
C 	C 	0.53380 0.46600 0.86890 -0.19000
H 	H 	0.55750 0.48600 0.87730 0.07400
H 	H 	0.52100 0.53670 0.88910 0.06300
H 	H 	0.52760 0.45800 0.81590 0.06400
C 	C 	0.50060 0.37000 0.96120 0.66600
H 	H 	0.51170 0.38030 0.01090 -0.36900
H 	H 	0.48430 0.29860 0.96130 -0.11100
H 	H 	0.48940 0.45150 0.94580 -0.11400
O 	O 	0.51940 0.94500 0.06290 -0.18400
N 	N 	0.60940 0.89900 0.17450 0.38500
N 	N 	0.54520 0.14220 0.98370 -0.18000
C 	C 	0.60490 0.97800 0.12290 -0.53500
H 	H 	0.62370 0.02700 0.11080 0.17200
C 	C 	0.57360 0.00520 0.07880 0.33000
C 	C 	0.54830 0.91600 0.09340 -0.21800
C 	C 	0.55440 0.81700 0.14130 0.29400
C 	C 	0.58680 0.81900 0.18130 -0.32900
H 	H 	0.59130 0.75210 0.21700 0.10700
C 	C 	0.52700 0.72100 0.14800 -0.63200
H 	H 	0.53600 0.64080 0.17260 0.19000
H 	H 	0.51670 0.69850 0.09920 0.21700
H 	H 	0.51050 0.75930 0.17770 0.20600
C 	C 	0.56930 0.11900 0.03670 -0.15800
H 	H 	0.58520 0.18660 0.04680 0.08000
C 	C 	0.55680 0.27600 0.95230 0.07300
H 	H 	0.57110 0.33540 0.98540 0.00400
C 	C 	0.57230 0.20300 0.89040 -0.09600
H 	H 	0.58290 0.12090 0.90960 0.04700
H 	H 	0.58940 0.25830 0.87010 0.04100
C 	C 	0.54440 0.17200 0.83030 -0.17900
H 	H 	0.54310 0.07660 0.82100 0.06100
H 	H 	0.54840 0.21730 0.78380 0.06700
C 	C 	0.51190 0.22200 0.85900 0.18500
H 	H 	0.50950 0.31870 0.75770 0.14800
H 	H 	0.47620 0.33400 0.79750 0.15400
H 	H 	0.48400 0.19900 0.75770 0.14800
O 	O 	0.46880 0.91150 0.97680 -0.26000
N 	N 	0.38510 0.87300 0.83930 -0.61500
N 	N 	0.48430 0.14900 0.89900 -0.23600
C 	C 	0.40280 0.98100 0.83130 0.55600
H 	H 	0.39550 0.04500 0.79550 -0.21500
C 	C 	0.43420 0.00100 0.87890 -0.42800
C 	C 	0.44270 0.90700 0.93360 0.39000
C 	C 	0.42050 0.79200 0.94540 -0.18200
C 	C 	0.39300 0.79000 0.89520 0.32900
H 	H 	0.37760 0.72160 0.90100 -0.07100
C 	C 	0.43460 0.69300 0.00080 -0.21000
H 	H 	0.45800 0.71350 0.01460 0.09100
H 	H 	0.43270 0.60540 0.97930 0.08500
H 	H 	0.42230 0.69710 0.04460 0.08500
C 	C 	0.45350 0.11800 0.86330 0.16600
H 	H 	0.44430 0.17660 0.82630 -0.03600
O 	O 	0.03380 0.72600 0.50040 -0.20600
N 	N 	0.11580 0.68400 0.65450 -0.16600
N 	N 	0.05590 0.45740 0.46530 -0.23900
C 	C 	0.10570 0.57800 0.61610 0.02100
H 	H 	0.11550 0.49500 0.62670 0.01100
C 	C 	0.08000 0.59300 0.55930 -0.06000
C 	C 	0.06430 0.71400 0.54380 -0.00200
C 	C 	0.06760 0.81700 0.60060 0.04900
C 	C 	0.09410 0.80700 0.65160 0.04200
H 	H 	0.09920 0.87670 0.68550 -0.00800
C 	C 	0.05370 0.95200 0.58690 -0.14600
H 	H 	0.03580 0.94880 0.54680 0.03500
H 	H 	0.07120 0.01110 0.57300 0.01600
H 	H 	0.04480 0.98500 0.63170 0.06100
C 	C 	0.07560 0.47740 0.51670 0.05000
H 	H 	0.09030 0.40710 0.53060 0.00300
