data_crystal

_cell_length_a 14.26970
_cell_length_b 40.36300
_cell_length_c 30.93100
_cell_angle_alpha 90.00000
_cell_angle_beta  102.62300
_cell_angle_gamma 90.00000

_symmetry_space_group_name_	'P 1'
_symmetry_space_group_name_H-M	'P 1'

loop_
_symmetry_equiv_pos_as_xyz
  x,y,z

loop_
_atom_site_label
_atom_site_type_symbol
_atom_site_fract_x
_atom_site_fract_y
_atom_site_fract_z
_atom_site_charge
Co	Co	0.60056 0.60493 0.27734 1.15900
Co	Co	0.82856 0.35353 0.22755 1.16400
Co	Co	0.60224 0.69814 0.77751 1.16400
Co	Co	0.33024 0.44819 0.72924 1.15900
Cd	Cd	0.75289 0.52549 0.00659 1.20400
Cd	Cd	0.24810 0.27534 0.50239 1.21200
N 	N 	0.49860 0.62070 0.29610 -0.32900
N 	N 	0.51430 0.58820 0.23020 -0.29900
N 	N 	0.70770 0.36517 0.20280 -0.30300
N 	N 	0.77160 0.34010 0.27220 -0.30200
N 	N 	0.50650 0.71150 0.72720 -0.28100
N 	N 	0.49350 0.68452 0.80160 -0.29300
N 	N 	0.27880 0.46720 0.77310 -0.31100
N 	N 	0.20590 0.42900 0.70380 -0.29700
O 	O 	0.71750 0.72272 0.48023 -0.46100
O 	O 	0.56000 0.71915 0.45660 -0.46000
O 	O 	0.69370 0.61872 0.32770 -0.50200
O 	O 	0.70610 0.59286 0.25296 -0.51600
O 	O 	0.64110 0.54382 0.05250 -0.49700
O 	O 	0.79620 0.54330 0.07350 -0.46700
O 	O 	0.65080 0.47050 0.04360 -0.44300
O 	O 	0.81440 0.47500 0.03540 -0.38400
O 	O 	0.88040 0.36715 0.18207 -0.54900
O 	O 	0.95810 0.34092 0.25894 -0.51000
O 	O 	0.18730 0.28650 0.43920 -0.47400
O 	O 	0.04260 0.29590 0.45710 -0.56100
O 	O 	0.80200 0.75690 0.57780 -0.45400
O 	O 	0.64660 0.76030 0.55610 -0.52400
O 	O 	0.69990 0.70990 0.75330 -0.52500
O 	O 	0.68580 0.68516 0.82700 -0.51700
O 	O 	0.55590 0.58070 0.95570 -0.42000
O 	O 	0.72220 0.57910 0.97890 -0.43500
O 	O 	0.54220 0.50275 0.95934 -0.59300
O 	O 	0.67720 0.50630 0.93840 -0.50600
O 	O 	0.44790 0.45789 0.75601 -0.55700
O 	O 	0.38430 0.43440 0.67880 -0.47800
O 	O 	0.28340 0.33090 0.52870 -0.47900
O 	O 	0.13660 0.33930 0.53850 -0.55900
C 	C 	0.64160 0.71137 0.45450 0.42700
C 	C 	0.65320 0.68073 0.42568 -0.25300
C 	C 	0.74340 0.66789 0.42542 0.25400
H 	H 	0.79680 0.67510 0.44620 -0.08300
C 	C 	0.75380 0.64427 0.39410 -0.46800
C 	C 	0.67400 0.63351 0.36300 0.36700
C 	C 	0.58370 0.64635 0.36328 -0.28600
C 	C 	0.57330 0.66996 0.39461 0.17100
H 	H 	0.51290 0.67860 0.39480 -0.02300
C 	C 	0.84190 0.58746 0.40180 -1.29700
H 	H 	0.80930 0.58090 0.42440 0.37900
H 	H 	0.90500 0.57780 0.40770 0.37100
H 	H 	0.80630 0.57990 0.37350 0.38500
C 	C 	0.85030 0.62572 0.40120 0.92000
C 	C 	0.89840 0.63420 0.36240 -1.30400
H 	H 	0.90400 0.65780 0.36010 0.39500
H 	H 	0.86000 0.62570 0.33520 0.40000
H 	H 	0.96120 0.62440 0.36760 0.37300
C 	C 	0.92610 0.63550 0.44300 -1.30600
H 	H 	0.93210 0.65920 0.44450 0.39700
H 	H 	0.98690 0.62580 0.44170 0.37700
H 	H 	0.90630 0.62750 0.46890 0.38200
C 	C 	0.50650 0.63680 0.33040 0.13800
H 	H 	0.44790 0.64410 0.33530 -0.02700
C 	C 	0.40740 0.61230 0.26740 0.02500
H 	H 	0.40440 0.62920 0.24440 -0.01600
C 	C 	0.31370 0.61920 0.28110 -0.15600
H 	H 	0.31170 0.64210 0.29030 0.05100
H 	H 	0.30810 0.60510 0.30580 0.04700
C 	C 	0.22820 0.61210 0.24030 -0.07500
H 	H 	0.16770 0.61240 0.24980 -0.00900
H 	H 	0.22600 0.62910 0.21800 0.01400
C 	C 	0.24320 0.57880 0.22140 -0.05100
H 	H 	0.18610 0.57270 0.19950 -0.00300
H 	H 	0.25250 0.56240 0.24490 0.00200
C 	C 	0.33030 0.57840 0.19970 -0.16000
H 	H 	0.32840 0.59690 0.17940 0.07700
H 	H 	0.33400 0.55780 0.18400 0.05700
C 	C 	0.41660 0.58190 0.24120 -0.00100
H 	H 	0.41990 0.56230 0.26000 -0.01900
C 	C 	0.52710 0.57650 0.19270 0.11400
H 	H 	0.47400 0.56930 0.17170 -0.00600
C 	C 	0.62170 0.57445 0.18249 -0.26600
C 	C 	0.70610 0.58132 0.21324 0.39300
C 	C 	0.79420 0.57780 0.20155 -0.50100
C 	C 	0.79800 0.56740 0.15910 0.28400
H 	H 	0.85700 0.56500 0.15130 -0.09100
C 	C 	0.71350 0.56050 0.12837 -0.27900
C 	C 	0.62540 0.56405 0.14005 0.18000
H 	H 	0.56890 0.55950 0.11950 -0.02000
C 	C 	0.88920 0.58437 0.23604 1.01000
C 	C 	0.89480 0.56540 0.27980 -1.43900
H 	H 	0.95510 0.57000 0.29970 0.41800
H 	H 	0.88970 0.54200 0.27380 0.43800
H 	H 	0.84320 0.57230 0.29310 0.44200
C 	C 	0.97510 0.57610 0.21520 -1.41500
H 	H 	0.03380 0.57910 0.23690 0.41200
H 	H 	0.97460 0.59050 0.19050 0.42900
H 	H 	0.97040 0.55350 0.20530 0.44000
C 	C 	0.90210 0.62118 0.24990 -1.39600
H 	H 	0.96060 0.62380 0.27190 0.40500
H 	H 	0.84880 0.62820 0.26200 0.43100
H 	H 	0.90490 0.63450 0.22450 0.41200
C 	C 	0.71870 0.55060 0.08300 0.41200
C 	C 	0.73470 0.45740 0.04590 0.24000
C 	C 	0.77400 0.43121 0.08241 -0.22100
C 	C 	0.71640 0.41974 0.11010 0.13900
H 	H 	0.65400 0.42760 0.10690 -0.04300
C 	C 	0.75210 0.39650 0.14270 -0.28000
C 	C 	0.84540 0.38470 0.14760 0.41300
C 	C 	0.90290 0.39620 0.11990 -0.52500
C 	C 	0.86720 0.41943 0.08730 0.24900
H 	H 	0.90580 0.42710 0.06870 -0.08200
C 	C 	0.99270 0.37674 0.11490 1.09500
C 	C 	0.06680 0.38900 0.15580 -1.50800
H 	H 	0.04540 0.38340 0.18220 0.45700
H 	H 	0.07350 0.41260 0.15410 0.44600
H 	H 	0.12770 0.37870 0.15650 0.42400
C 	C 	0.97920 0.33890 0.11090 -1.44100
H 	H 	0.95200 0.33100 0.13480 0.43000
H 	H 	0.04040 0.32850 0.11240 0.39500
H 	H 	0.93700 0.33370 0.08310 0.41300
C 	C 	0.03620 0.38690 0.07610 -1.57200
H 	H 	0.04940 0.41020 0.07770 0.46200
H 	H 	0.99180 0.38190 0.04880 0.45900
H 	H 	0.09490 0.37490 0.07740 0.43900
C 	C 	0.68730 0.38620 0.16740 0.08300
H 	H 	0.62480 0.39410 0.15910 -0.02200
C 	C 	0.62980 0.35120 0.22230 -0.02000
H 	H 	0.62470 0.32830 0.21190 -0.00700
C 	C 	0.53730 0.36200 0.21260 -0.10300
H 	H 	0.51200 0.35970 0.18100 0.02500
H 	H 	0.53640 0.38540 0.21990 0.02600
C 	C 	0.47100 0.34340 0.23720 -0.10600
H 	H 	0.46730 0.32020 0.22870 0.01400
H 	H 	0.40680 0.35270 0.22940 0.00000
C 	C 	0.51060 0.34640 0.28750 -0.01600
H 	H 	0.50690 0.36920 0.29710 0.00200
H 	H 	0.47470 0.33240 0.30360 -0.01600
C 	C 	0.61470 0.33510 0.29500 -0.23200
H 	H 	0.64450 0.33910 0.32590 0.09700
H 	H 	0.61450 0.31130 0.29050 0.07000
C 	C 	0.66840 0.34780 0.27170 0.08800
H 	H 	0.67210 0.37100 0.28150 -0.01500
C 	C 	0.82540 0.32680 0.31270 0.10000
H 	H 	0.78980 0.31960 0.33270 -0.00400
C 	C 	0.92390 0.32328 0.32601 -0.30200
C 	C 	0.98650 0.32897 0.29814 0.44400
C 	C 	0.08450 0.32400 0.31348 -0.53700
C 	C 	0.11990 0.31330 0.35670 0.33700
H 	H 	0.18550 0.31000 0.36700 -0.11100
C 	C 	0.05730 0.30760 0.38457 -0.37400
C 	C 	0.95920 0.31261 0.36923 0.24300
H 	H 	0.91730 0.30880 0.38790 -0.04300
C 	C 	0.15330 0.32824 0.28110 0.96700
C 	C 	0.16130 0.36390 0.26470 -1.34600
H 	H 	0.20600 0.36450 0.24560 0.38000
H 	H 	0.18330 0.37820 0.28970 0.39100
H 	H 	0.09940 0.37120 0.24870 0.40600
C 	C 	0.11560 0.31170 0.23520 -1.31700
H 	H 	0.16070 0.31540 0.21680 0.37700
H 	H 	0.05480 0.32130 0.22140 0.40200
H 	H 	0.10790 0.28840 0.23910 0.39900
C 	C 	0.25170 0.31200 0.30070 -1.41800
H 	H 	0.29410 0.31550 0.28090 0.41900
H 	H 	0.24320 0.28870 0.30440 0.44000
H 	H 	0.27900 0.32190 0.32890 0.42800
C 	C 	0.09240 0.29940 0.42740 0.40600
C 	C 	0.72000 0.75510 0.58316 0.46600
C 	C 	0.70950 0.74415 0.62823 -0.26700
C 	C 	0.79470 0.73879 0.65918 0.25700
H 	H 	0.85330 0.74270 0.65160 -0.07400
C 	C 	0.79220 0.72760 0.70141 -0.46600
C 	C 	0.70450 0.72170 0.71269 0.36100
C 	C 	0.61940 0.72710 0.68174 -0.25100
C 	C 	0.62180 0.73831 0.63951 0.17000
H 	H 	0.56490 0.74190 0.61880 -0.01300
C 	C 	0.88790 0.72483 0.73500 0.90400
C 	C 	0.97710 0.73780 0.71980 -1.27200
H 	H 	0.97940 0.72820 0.69160 0.39000
H 	H 	0.03400 0.73180 0.74120 0.36700
H 	H 	0.97350 0.76150 0.71700 0.38700
C 	C 	0.90210 0.68697 0.74200 -1.30300
H 	H 	0.90010 0.67640 0.71400 0.39200
H 	H 	0.85180 0.67820 0.75480 0.40300
H 	H 	0.96310 0.68280 0.76150 0.37500
C 	C 	0.23570 0.70620 0.70860 -0.15100
H 	H 	0.18510 0.72050 0.69260 0.03000
H 	H 	0.22690 0.68410 0.69620 0.04900
C 	C 	0.89400 0.74210 0.78070 -1.27600
H 	H 	0.84020 0.73540 0.79270 0.38600
H 	H 	0.89290 0.76570 0.77690 0.38000
H 	H 	0.95250 0.73570 0.80080 0.36700
C 	C 	0.52740 0.72300 0.69110 0.09900
H 	H 	0.47560 0.72920 0.66870 -0.00000
C 	C 	0.40760 0.70330 0.73166 -0.02500
H 	H 	0.39770 0.68040 0.72120 0.01000
C 	C 	0.33510 0.71990 0.70730 -0.07700
H 	H 	0.34210 0.71990 0.67680 0.04800
H 	H 	0.33870 0.74270 0.71730 0.01500
C 	C 	0.23720 0.70590 0.75730 0.01500
H 	H 	0.17790 0.69590 0.76130 -0.03300
H 	H 	0.23750 0.72870 0.76730 -0.01700
C 	C 	0.32050 0.68790 0.78720 -0.21100
H 	H 	0.31720 0.69060 0.81800 0.06600
H 	H 	0.31760 0.66440 0.78030 0.06400
C 	C 	0.40590 0.70150 0.77993 0.05400
H 	H 	0.41010 0.72420 0.79130 -0.03000
C 	C 	0.49520 0.66543 0.83270 0.09400
H 	H 	0.43710 0.65960 0.83950 -0.01700
C 	C 	0.58750 0.65065 0.86082 -0.23600
C 	C 	0.67750 0.66419 0.86187 0.35100
C 	C 	0.75580 0.65467 0.89470 -0.51100
C 	C 	0.74410 0.63160 0.92650 0.26200
H 	H 	0.79650 0.62530 0.94850 -0.08600
C 	C 	0.65410 0.61809 0.92540 -0.23100
C 	C 	0.57570 0.62760 0.89261 0.13900
H 	H 	0.51550 0.61850 0.89190 -0.00900
C 	C 	0.85620 0.67098 0.89913 1.11900
C 	C 	0.84030 0.70910 0.90010 -1.48200
H 	H 	0.90090 0.72030 0.90340 0.42400
H 	H 	0.81200 0.71470 0.92470 0.43400
H 	H 	0.79820 0.71600 0.87300 0.45200
C 	C 	0.90230 0.66130 0.86100 -1.60700
H 	H 	0.96380 0.67190 0.86470 0.46300
H 	H 	0.86180 0.66820 0.83350 0.49200
H 	H 	0.91050 0.63770 0.86080 0.47900
C 	C 	0.92630 0.66160 0.94200 -1.59900
H 	H 	0.98610 0.67290 0.94350 0.46600
H 	H 	0.93680 0.63810 0.94260 0.48400
H 	H 	0.90000 0.66790 0.96680 0.47800
C 	C 	0.59250 0.50410 0.93142 0.49100
C 	C 	0.64400 0.59168 0.95960 0.37100
C 	C 	0.55300 0.49237 0.88252 -0.29700
C 	C 	0.45490 0.48734 0.86744 0.18500
H 	H 	0.41320 0.49140 0.88610 -0.02400
C 	C 	0.41920 0.47620 0.82447 -0.29400
C 	C 	0.48150 0.47010 0.79658 0.41500
C 	C 	0.57960 0.47510 0.81166 -0.54100
C 	C 	0.61530 0.48627 0.85463 0.30500
H 	H 	0.68090 0.48960 0.86470 -0.09700
C 	C 	0.75900 0.47640 0.80520 -1.50500
H 	H 	0.80020 0.47020 0.78580 0.44500
H 	H 	0.77900 0.46520 0.83300 0.44900
H 	H 	0.76250 0.49990 0.81000 0.45900
C 	C 	0.65430 0.46654 0.78380 1.08800
C 	C 	0.65060 0.42897 0.77460 -1.53700
H 	H 	0.58610 0.42270 0.76070 0.47900
H 	H 	0.67050 0.41720 0.80200 0.45300
H 	H 	0.69280 0.42370 0.75530 0.44400
C 	C 	0.63490 0.48540 0.73980 -1.51700
H 	H 	0.57090 0.48080 0.72360 0.46200
H 	H 	0.68010 0.47850 0.72270 0.43800
H 	H 	0.64170 0.50880 0.74550 0.46000
C 	C 	0.31510 0.47210 0.81150 0.16700
H 	H 	0.27760 0.47320 0.83250 -0.02300
C 	C 	0.11510 0.47460 0.79660 -0.08400
H 	H 	0.12650 0.45890 0.82080 0.05600
H 	H 	0.13240 0.49670 0.80820 0.03500
C 	C 	0.97370 0.44300 0.74380 0.06300
H 	H 	0.90560 0.44580 0.73140 -0.04700
H 	H 	0.98060 0.42420 0.76390 -0.02100
C 	C 	0.02220 0.43400 0.70580 -0.21700
H 	H 	0.00750 0.45000 0.68190 0.05700
H 	H 	0.00360 0.41200 0.69420 0.06500
C 	C 	0.17530 0.41450 0.66930 0.10600
H 	H 	0.10980 0.41050 0.65980 -0.02900
C 	C 	0.17300 0.46490 0.76010 -0.01900
H 	H 	0.15710 0.48320 0.73900 -0.00900
C 	C 	0.00950 0.47350 0.77050 -0.21300
H 	H 	0.96900 0.47680 0.79160 0.05400
H 	H 	0.99930 0.49220 0.75050 0.06200
C 	C 	0.13850 0.43530 0.73160 0.02300
H 	H 	0.14680 0.41660 0.75230 -0.02800
C 	C 	0.24660 0.40237 0.64097 -0.25800
C 	C 	0.33820 0.41538 0.64471 0.34900
C 	C 	0.39320 0.40607 0.61480 -0.46700
C 	C 	0.35660 0.38370 0.58110 0.27200
H 	H 	0.39350 0.37750 0.56110 -0.09300
C 	C 	0.26500 0.37073 0.57736 -0.30900
C 	C 	0.21000 0.38004 0.60729 0.17200
H 	H 	0.14870 0.37130 0.60480 -0.04600
C 	C 	0.56450 0.41650 0.65240 -1.34600
H 	H 	0.62610 0.42360 0.64810 0.38100
H 	H 	0.56640 0.39320 0.65870 0.40700
H 	H 	0.54910 0.42850 0.67670 0.41500
C 	C 	0.48760 0.42343 0.61010 0.93700
C 	C 	0.51630 0.41850 0.56520 -1.36900
H 	H 	0.57600 0.42960 0.56570 0.39100
H 	H 	0.46730 0.42760 0.54190 0.39700
H 	H 	0.52330 0.39530 0.56000 0.41100
C 	C 	0.48130 0.46136 0.61460 -1.26700
H 	H 	0.54140 0.47120 0.61250 0.36100
H 	H 	0.46750 0.46670 0.64280 0.38300
H 	H 	0.43110 0.46980 0.59140 0.36800
C 	C 	0.22650 0.34250 0.54880 0.48200
Co	Co	0.10056 0.10493 0.27734 1.15500
Co	Co	0.32856 0.85353 0.22755 1.16500
Co	Co	0.10224 0.19814 0.77751 1.16200
Co	Co	0.83024 0.94819 0.72924 1.16200
Cd	Cd	0.25289 0.02549 0.00659 1.20400
Cd	Cd	0.74810 0.77534 0.50239 1.21300
N 	N 	0.99860 0.12070 0.29610 -0.29900
N 	N 	0.01430 0.08820 0.23020 -0.30200
N 	N 	0.20770 0.86517 0.20280 -0.32000
N 	N 	0.27160 0.84010 0.27220 -0.28100
N 	N 	0.00650 0.21150 0.72720 -0.28600
N 	N 	0.99350 0.18452 0.80160 -0.29000
N 	N 	0.77880 0.96720 0.77310 -0.31800
N 	N 	0.70590 0.92900 0.70380 -0.29300
O 	O 	0.21750 0.22272 0.48023 -0.46300
O 	O 	0.06000 0.21915 0.45660 -0.46600
O 	O 	0.19370 0.11872 0.32770 -0.49800
O 	O 	0.20610 0.09286 0.25296 -0.51700
O 	O 	0.14110 0.04382 0.05250 -0.50200
O 	O 	0.29620 0.04330 0.07350 -0.47100
O 	O 	0.15080 0.97050 0.04360 -0.44400
O 	O 	0.31440 0.97500 0.03540 -0.38500
O 	O 	0.38040 0.86715 0.18207 -0.54700
O 	O 	0.45810 0.84092 0.25894 -0.50800
O 	O 	0.68730 0.78650 0.43920 -0.47000
O 	O 	0.54260 0.79590 0.45710 -0.55000
O 	O 	0.30200 0.25690 0.57780 -0.45700
O 	O 	0.14660 0.26030 0.55610 -0.52900
O 	O 	0.19990 0.20990 0.75330 -0.52500
O 	O 	0.18580 0.18516 0.82700 -0.52000
O 	O 	0.05590 0.08070 0.95570 -0.42600
O 	O 	0.22220 0.07910 0.97890 -0.43700
O 	O 	0.04220 0.00275 0.95934 -0.60300
O 	O 	0.17720 0.00630 0.93840 -0.51100
O 	O 	0.94790 0.95789 0.75601 -0.55600
O 	O 	0.88430 0.93440 0.67880 -0.47600
O 	O 	0.78340 0.83090 0.52870 -0.47700
O 	O 	0.63660 0.83930 0.53850 -0.55500
C 	C 	0.14160 0.21137 0.45450 0.42400
C 	C 	0.15320 0.18073 0.42568 -0.24400
C 	C 	0.24340 0.16789 0.42542 0.24100
H 	H 	0.29680 0.17510 0.44620 -0.08000
C 	C 	0.25380 0.14427 0.39410 -0.45200
C 	C 	0.17400 0.13351 0.36300 0.34900
C 	C 	0.08370 0.14635 0.36328 -0.25500
C 	C 	0.07330 0.16996 0.39461 0.15000
H 	H 	0.01290 0.17860 0.39480 -0.02100
C 	C 	0.34190 0.08746 0.40180 -1.26400
H 	H 	0.30930 0.08090 0.42440 0.36600
H 	H 	0.40500 0.07780 0.40770 0.35900
H 	H 	0.30630 0.07990 0.37350 0.37300
C 	C 	0.35030 0.12572 0.40120 0.89400
C 	C 	0.39840 0.13420 0.36240 -1.27400
H 	H 	0.40400 0.15780 0.36010 0.38500
H 	H 	0.36000 0.12570 0.33520 0.39000
H 	H 	0.46120 0.12440 0.36760 0.36200
C 	C 	0.42610 0.13550 0.44300 -1.27100
H 	H 	0.43210 0.15920 0.44450 0.38400
H 	H 	0.48690 0.12580 0.44170 0.36300
H 	H 	0.40630 0.12750 0.46890 0.36800
C 	C 	0.00650 0.13680 0.33040 0.06700
H 	H 	0.94790 0.14410 0.33530 0.00800
C 	C 	0.90740 0.11230 0.26740 0.01600
H 	H 	0.90440 0.12920 0.24440 -0.01100
C 	C 	0.81370 0.11920 0.28110 -0.14900
H 	H 	0.81170 0.14210 0.29030 0.04900
H 	H 	0.80810 0.10510 0.30580 0.04700
C 	C 	0.72820 0.11210 0.24030 -0.08000
H 	H 	0.66770 0.11240 0.24980 -0.00600
H 	H 	0.72600 0.12910 0.21800 0.01600
C 	C 	0.74320 0.07880 0.22140 -0.04600
H 	H 	0.68610 0.07270 0.19950 -0.00400
H 	H 	0.75250 0.06240 0.24490 0.00100
C 	C 	0.83030 0.07840 0.19970 -0.16700
H 	H 	0.82840 0.09690 0.17940 0.08000
H 	H 	0.83400 0.05780 0.18400 0.05900
C 	C 	0.91660 0.08190 0.24120 0.01300
H 	H 	0.91990 0.06230 0.26000 -0.02000
C 	C 	0.02710 0.07650 0.19270 0.07900
H 	H 	0.97400 0.06930 0.17170 0.01700
C 	C 	0.12170 0.07445 0.18249 -0.25800
C 	C 	0.20610 0.08132 0.21324 0.39100
C 	C 	0.29420 0.07780 0.20155 -0.50700
C 	C 	0.29800 0.06740 0.15910 0.28700
H 	H 	0.35700 0.06500 0.15130 -0.09500
C 	C 	0.21350 0.06050 0.12837 -0.28200
C 	C 	0.12540 0.06405 0.14005 0.17500
H 	H 	0.06890 0.05950 0.11950 -0.02500
C 	C 	0.38920 0.08437 0.23604 1.02700
C 	C 	0.39480 0.06540 0.27980 -1.45000
H 	H 	0.45510 0.07000 0.29970 0.41700
H 	H 	0.38970 0.04200 0.27380 0.43600
H 	H 	0.34320 0.07230 0.29310 0.44500
C 	C 	0.47510 0.07610 0.21520 -1.48000
H 	H 	0.53380 0.07910 0.23690 0.44100
H 	H 	0.47460 0.09050 0.19050 0.44300
H 	H 	0.47040 0.05350 0.20530 0.45300
C 	C 	0.40210 0.12118 0.24990 -1.40800
H 	H 	0.46060 0.12380 0.27190 0.40500
H 	H 	0.34880 0.12820 0.26200 0.43400
H 	H 	0.40490 0.13450 0.22450 0.41300
C 	C 	0.21870 0.05060 0.08300 0.41200
C 	C 	0.23470 0.95740 0.04590 0.23800
C 	C 	0.27400 0.93121 0.08241 -0.21500
C 	C 	0.21640 0.91974 0.11010 0.13400
H 	H 	0.15400 0.92760 0.10690 -0.04300
C 	C 	0.25210 0.89650 0.14270 -0.27500
C 	C 	0.34540 0.88470 0.14760 0.40300
C 	C 	0.40290 0.89620 0.11990 -0.49900
C 	C 	0.36720 0.91943 0.08730 0.23400
H 	H 	0.40580 0.92710 0.06870 -0.07900
C 	C 	0.49270 0.87674 0.11490 1.01100
C 	C 	0.56680 0.88900 0.15580 -1.41600
H 	H 	0.54540 0.88340 0.18220 0.43500
H 	H 	0.57350 0.91260 0.15410 0.42300
H 	H 	0.62770 0.87870 0.15650 0.39900
C 	C 	0.47920 0.83890 0.11090 -1.41900
H 	H 	0.45200 0.83100 0.13480 0.42000
H 	H 	0.54040 0.82850 0.11240 0.40000
H 	H 	0.43700 0.83370 0.08310 0.40300
C 	C 	0.53620 0.88690 0.07610 -1.40900
H 	H 	0.54940 0.91020 0.07770 0.41900
H 	H 	0.49180 0.88190 0.04880 0.40000
H 	H 	0.59490 0.87490 0.07740 0.39500
C 	C 	0.18730 0.88620 0.16740 0.08500
H 	H 	0.12480 0.89410 0.15910 -0.02700
C 	C 	0.12980 0.85120 0.22230 0.10400
H 	H 	0.12470 0.82830 0.21190 -0.04200
C 	C 	0.03730 0.86200 0.21260 -0.28800
H 	H 	0.01200 0.85970 0.18100 0.07600
H 	H 	0.03640 0.88540 0.21990 0.07500
C 	C 	0.97100 0.84340 0.23720 0.10500
H 	H 	0.96730 0.82020 0.22870 -0.04200
H 	H 	0.90680 0.85270 0.22940 -0.06000
C 	C 	0.01060 0.84640 0.28750 -0.25300
H 	H 	0.00690 0.86920 0.29710 0.06700
H 	H 	0.97470 0.83240 0.30360 0.06800
C 	C 	0.11470 0.83510 0.29500 -0.01100
H 	H 	0.14450 0.83910 0.32590 0.03100
H 	H 	0.11450 0.81130 0.29050 0.00500
C 	C 	0.16840 0.84780 0.27170 -0.05800
H 	H 	0.17210 0.87100 0.28150 0.02400
C 	C 	0.32540 0.82680 0.31270 0.08100
H 	H 	0.28980 0.81960 0.33270 0.00700
C 	C 	0.42390 0.82328 0.32601 -0.27100
C 	C 	0.48650 0.82897 0.29814 0.40600
C 	C 	0.58450 0.82400 0.31348 -0.50200
C 	C 	0.61990 0.81330 0.35670 0.30500
H 	H 	0.68550 0.81000 0.36700 -0.09900
C 	C 	0.55730 0.80760 0.38457 -0.32700
C 	C 	0.45920 0.81261 0.36923 0.19100
H 	H 	0.41730 0.80880 0.38790 -0.02800
C 	C 	0.65330 0.82824 0.28110 0.96400
C 	C 	0.66130 0.86390 0.26470 -1.35100
H 	H 	0.70600 0.86450 0.24560 0.38500
H 	H 	0.68330 0.87820 0.28970 0.39500
H 	H 	0.59940 0.87120 0.24870 0.41300
C 	C 	0.61560 0.81170 0.23520 -1.32200
H 	H 	0.66070 0.81540 0.21680 0.38200
H 	H 	0.55480 0.82130 0.22140 0.40900
H 	H 	0.60790 0.78840 0.23910 0.40300
C 	C 	0.75170 0.81200 0.30070 -1.41700
H 	H 	0.79410 0.81550 0.28090 0.42000
H 	H 	0.74320 0.78870 0.30440 0.44000
H 	H 	0.77900 0.82190 0.32890 0.42800
C 	C 	0.59240 0.79940 0.42740 0.38900
C 	C 	0.22000 0.25510 0.58316 0.46800
C 	C 	0.20950 0.24415 0.62823 -0.27000
C 	C 	0.29470 0.23879 0.65918 0.26400
H 	H 	0.35330 0.24270 0.65160 -0.07800
C 	C 	0.29220 0.22760 0.70141 -0.47700
C 	C 	0.20450 0.22170 0.71269 0.36100
C 	C 	0.11940 0.22710 0.68174 -0.24300
C 	C 	0.12180 0.23831 0.63951 0.16600
H 	H 	0.06490 0.24190 0.61880 -0.01800
C 	C 	0.38790 0.22483 0.73500 0.93400
C 	C 	0.47710 0.23780 0.71980 -1.34900
H 	H 	0.47940 0.22820 0.69160 0.40900
H 	H 	0.53400 0.23180 0.74120 0.40100
H 	H 	0.47350 0.26150 0.71700 0.40900
C 	C 	0.40210 0.18697 0.74200 -1.32700
H 	H 	0.40010 0.17640 0.71400 0.39600
H 	H 	0.35180 0.17820 0.75480 0.41000
H 	H 	0.46310 0.18280 0.76150 0.37900
C 	C 	0.73570 0.20620 0.70860 -0.13100
H 	H 	0.68510 0.22050 0.69260 0.02400
H 	H 	0.72690 0.18410 0.69620 0.04400
C 	C 	0.39400 0.24210 0.78070 -1.30600
H 	H 	0.34020 0.23540 0.79270 0.39500
H 	H 	0.39290 0.26570 0.77690 0.39100
H 	H 	0.45250 0.23570 0.80080 0.37300
C 	C 	0.02740 0.22300 0.69110 0.06600
H 	H 	0.97560 0.22920 0.66870 0.02100
C 	C 	0.90760 0.20330 0.73166 0.00000
H 	H 	0.89770 0.18040 0.72120 0.00500
C 	C 	0.83510 0.21990 0.70730 -0.10300
H 	H 	0.84210 0.21990 0.67680 0.05700
H 	H 	0.83870 0.24270 0.71730 0.02400
C 	C 	0.73720 0.20590 0.75730 -0.00200
H 	H 	0.67790 0.19590 0.76130 -0.02700
H 	H 	0.73750 0.22870 0.76730 -0.01100
C 	C 	0.82050 0.18790 0.78720 -0.19600
H 	H 	0.81720 0.19060 0.81800 0.06300
H 	H 	0.81760 0.16440 0.78030 0.06100
C 	C 	0.90590 0.20150 0.77993 0.04300
H 	H 	0.91010 0.22420 0.79130 -0.02400
C 	C 	0.99520 0.16543 0.83270 0.11800
H 	H 	0.93710 0.15960 0.83950 -0.02100
C 	C 	0.08750 0.15065 0.86082 -0.25700
C 	C 	0.17750 0.16419 0.86187 0.35600
C 	C 	0.25580 0.15467 0.89470 -0.51000
C 	C 	0.24410 0.13160 0.92650 0.26300
H 	H 	0.29650 0.12530 0.94850 -0.08700
C 	C 	0.15410 0.11809 0.92540 -0.23800
C 	C 	0.07570 0.12760 0.89261 0.15000
H 	H 	0.01550 0.11850 0.89190 -0.01900
C 	C 	0.35620 0.17098 0.89913 1.10300
C 	C 	0.34030 0.20910 0.90010 -1.46200
H 	H 	0.40090 0.22030 0.90340 0.41600
H 	H 	0.31200 0.21470 0.92470 0.42600
H 	H 	0.29820 0.21600 0.87300 0.44500
C 	C 	0.40230 0.16130 0.86100 -1.58500
H 	H 	0.46380 0.17190 0.86470 0.45400
H 	H 	0.36180 0.16820 0.83350 0.48500
H 	H 	0.41050 0.13770 0.86080 0.47100
C 	C 	0.42630 0.16160 0.94200 -1.57300
H 	H 	0.48610 0.17290 0.94350 0.45500
H 	H 	0.43680 0.13810 0.94260 0.47400
H 	H 	0.40000 0.16790 0.96680 0.46800
C 	C 	0.09250 0.00410 0.93142 0.49600
C 	C 	0.14400 0.09168 0.95960 0.37200
C 	C 	0.05300 0.99237 0.88252 -0.32500
C 	C 	0.95490 0.98734 0.86744 0.22300
H 	H 	0.91320 0.99140 0.88610 -0.03300
C 	C 	0.91920 0.97620 0.82447 -0.31400
C 	C 	0.98150 0.97010 0.79658 0.44400
C 	C 	0.07960 0.97510 0.81166 -0.56400
C 	C 	0.11530 0.98627 0.85463 0.32500
H 	H 	0.18090 0.98960 0.86470 -0.10300
C 	C 	0.25900 0.97640 0.80520 -1.49600
H 	H 	0.30020 0.97020 0.78580 0.44200
H 	H 	0.27900 0.96520 0.83300 0.44500
H 	H 	0.26250 0.99990 0.81000 0.45800
C 	C 	0.15430 0.96654 0.78380 1.07900
C 	C 	0.15060 0.92897 0.77460 -1.52200
H 	H 	0.08610 0.92270 0.76070 0.47100
H 	H 	0.17050 0.91720 0.80200 0.44600
H 	H 	0.19280 0.92370 0.75530 0.43700
C 	C 	0.13490 0.98540 0.73980 -1.48300
H 	H 	0.07090 0.98080 0.72360 0.44700
H 	H 	0.18010 0.97850 0.72270 0.42600
H 	H 	0.14170 0.00880 0.74550 0.44500
C 	C 	0.81510 0.97210 0.81150 0.18000
H 	H 	0.77760 0.97320 0.83250 -0.02800
C 	C 	0.61510 0.97460 0.79660 -0.17100
H 	H 	0.62650 0.95890 0.82080 0.08400
H 	H 	0.63240 0.99670 0.80820 0.06600
C 	C 	0.47370 0.94300 0.74380 -0.07300
H 	H 	0.40560 0.94580 0.73140 -0.00800
H 	H 	0.48060 0.92420 0.76390 0.01300
C 	C 	0.52220 0.93400 0.70580 -0.13600
H 	H 	0.50750 0.95000 0.68190 0.03800
H 	H 	0.50360 0.91200 0.69420 0.04400
C 	C 	0.67530 0.91450 0.66930 0.10800
H 	H 	0.60980 0.91050 0.65980 -0.02700
C 	C 	0.67300 0.96490 0.76010 0.01300
H 	H 	0.65710 0.98320 0.73900 -0.01500
C 	C 	0.50950 0.97350 0.77050 -0.04600
H 	H 	0.46900 0.97680 0.79160 -0.00500
H 	H 	0.49930 0.99220 0.75050 0.00300
C 	C 	0.63850 0.93530 0.73160 -0.00400
H 	H 	0.64680 0.91660 0.75230 -0.01900
C 	C 	0.74660 0.90237 0.64097 -0.26300
C 	C 	0.83820 0.91538 0.64471 0.36200
C 	C 	0.89320 0.90607 0.61480 -0.49200
C 	C 	0.85660 0.88370 0.58110 0.28700
H 	H 	0.89350 0.87750 0.56110 -0.09600
C 	C 	0.76500 0.87073 0.57736 -0.31400
C 	C 	0.71000 0.88004 0.60729 0.17700
H 	H 	0.64870 0.87130 0.60480 -0.04600
C 	C 	0.06450 0.91650 0.65240 -1.44900
H 	H 	0.12610 0.92360 0.64810 0.40900
H 	H 	0.06640 0.89320 0.65870 0.43600
H 	H 	0.04910 0.92850 0.67670 0.44200
C 	C 	0.98760 0.92343 0.61010 1.02000
C 	C 	0.01630 0.91850 0.56520 -1.53000
H 	H 	0.07600 0.92960 0.56570 0.43500
H 	H 	0.96730 0.92760 0.54190 0.45600
H 	H 	0.02330 0.89530 0.56000 0.45400
C 	C 	0.98130 0.96136 0.61460 -1.28500
H 	H 	0.04140 0.97120 0.61250 0.35600
H 	H 	0.96750 0.96670 0.64280 0.39300
H 	H 	0.93110 0.96980 0.59140 0.37700
C 	C 	0.72650 0.84250 0.54880 0.48400
Co	Co	0.39944 0.60493 0.72266 1.16000
Co	Co	0.17144 0.35353 0.77245 1.16400
Co	Co	0.39776 0.69814 0.22249 1.16500
Co	Co	0.66976 0.44819 0.27076 1.16000
Cd	Cd	0.24711 0.52549 0.99341 1.22100
Cd	Cd	0.75190 0.27534 0.49761 1.21300
N 	N 	0.50140 0.62070 0.70390 -0.32800
N 	N 	0.48570 0.58820 0.76980 -0.29800
N 	N 	0.29230 0.36517 0.79720 -0.30200
N 	N 	0.22840 0.34010 0.72780 -0.29700
N 	N 	0.49350 0.71150 0.27280 -0.28200
N 	N 	0.50650 0.68452 0.19840 -0.29200
N 	N 	0.72120 0.46720 0.22690 -0.32000
N 	N 	0.79410 0.42900 0.29620 -0.28900
O 	O 	0.28250 0.72272 0.51977 -0.46400
O 	O 	0.44000 0.71915 0.54340 -0.46000
O 	O 	0.30630 0.61872 0.67230 -0.50000
O 	O 	0.29390 0.59286 0.74704 -0.51900
O 	O 	0.35890 0.54382 0.94750 -0.48200
O 	O 	0.20380 0.54330 0.92650 -0.46200
O 	O 	0.34920 0.47050 0.95640 -0.42900
O 	O 	0.18560 0.47500 0.96460 -0.37400
O 	O 	0.11960 0.36715 0.81793 -0.54800
O 	O 	0.04190 0.34092 0.74106 -0.50500
O 	O 	0.81270 0.28650 0.56080 -0.46700
O 	O 	0.95740 0.29590 0.54290 -0.53600
O 	O 	0.19800 0.75690 0.42220 -0.46000
O 	O 	0.35340 0.76030 0.44390 -0.52600
O 	O 	0.30010 0.70990 0.24670 -0.52800
O 	O 	0.31420 0.68516 0.17300 -0.51200
O 	O 	0.44410 0.58070 0.04430 -0.43500
O 	O 	0.27780 0.57910 0.02110 -0.46100
O 	O 	0.45780 0.50275 0.04066 -0.61700
O 	O 	0.32280 0.50630 0.06160 -0.52800
O 	O 	0.55210 0.45789 0.24399 -0.55700
O 	O 	0.61570 0.43440 0.32120 -0.47700
O 	O 	0.71660 0.33090 0.47130 -0.47700
O 	O 	0.86340 0.33930 0.46150 -0.54900
C 	C 	0.35840 0.71137 0.54550 0.42600
C 	C 	0.34680 0.68073 0.57432 -0.25000
C 	C 	0.25660 0.66789 0.57458 0.24600
H 	H 	0.20320 0.67510 0.55380 -0.08200
C 	C 	0.24620 0.64427 0.60590 -0.45500
C 	C 	0.32600 0.63351 0.63700 0.36100
C 	C 	0.41630 0.64635 0.63672 -0.28200
C 	C 	0.42670 0.66996 0.60539 0.16800
H 	H 	0.48710 0.67860 0.60520 -0.02100
C 	C 	0.15810 0.58746 0.59820 -1.25400
H 	H 	0.19070 0.58090 0.57560 0.36400
H 	H 	0.09500 0.57780 0.59230 0.35400
H 	H 	0.19370 0.57990 0.62650 0.37100
C 	C 	0.14970 0.62572 0.59880 0.88500
C 	C 	0.10160 0.63420 0.63760 -1.26100
H 	H 	0.09600 0.65780 0.63990 0.37900
H 	H 	0.14000 0.62570 0.66480 0.38600
H 	H 	0.03880 0.62440 0.63240 0.35500
C 	C 	0.07390 0.63550 0.55700 -1.25400
H 	H 	0.06790 0.65920 0.55550 0.37600
H 	H 	0.01310 0.62580 0.55830 0.35300
H 	H 	0.09370 0.62750 0.53110 0.36000
C 	C 	0.49350 0.63680 0.66960 0.13600
H 	H 	0.55210 0.64410 0.66470 -0.02600
C 	C 	0.59260 0.61230 0.73260 0.02600
H 	H 	0.59560 0.62920 0.75560 -0.01700
C 	C 	0.68630 0.61920 0.71890 -0.15800
H 	H 	0.68830 0.64210 0.70970 0.05200
H 	H 	0.69190 0.60510 0.69420 0.04900
C 	C 	0.77180 0.61210 0.75970 -0.07200
H 	H 	0.83230 0.61240 0.75020 -0.00800
H 	H 	0.77400 0.62910 0.78200 0.01300
C 	C 	0.75680 0.57880 0.77860 -0.05400
H 	H 	0.81390 0.57270 0.80050 -0.00000
H 	H 	0.74750 0.56240 0.75510 0.00300
C 	C 	0.66970 0.57840 0.80030 -0.15800
H 	H 	0.67160 0.59690 0.82060 0.07700
H 	H 	0.66600 0.55780 0.81600 0.05700
C 	C 	0.58340 0.58190 0.75880 -0.00200
H 	H 	0.58010 0.56230 0.74000 -0.01900
C 	C 	0.47290 0.57650 0.80730 0.11600
H 	H 	0.52600 0.56930 0.82830 -0.00600
C 	C 	0.37830 0.57445 0.81751 -0.27100
C 	C 	0.29390 0.58132 0.78676 0.40100
C 	C 	0.20580 0.57780 0.79845 -0.52000
C 	C 	0.20200 0.56740 0.84090 0.29700
H 	H 	0.14300 0.56500 0.84870 -0.09800
C 	C 	0.28650 0.56050 0.87163 -0.28300
C 	C 	0.37460 0.56405 0.85995 0.18600
H 	H 	0.43110 0.55950 0.88050 -0.02100
C 	C 	0.11080 0.58437 0.76396 1.05700
C 	C 	0.10520 0.56540 0.72020 -1.47700
H 	H 	0.04490 0.57000 0.70030 0.42100
H 	H 	0.11030 0.54200 0.72620 0.44200
H 	H 	0.15680 0.57230 0.70690 0.45300
C 	C 	0.02490 0.57610 0.78480 -1.55700
H 	H 	0.96620 0.57910 0.76310 0.47300
H 	H 	0.02540 0.59050 0.80950 0.46300
H 	H 	0.02960 0.55350 0.79470 0.47300
C 	C 	0.09790 0.62118 0.75010 -1.43200
H 	H 	0.03940 0.62380 0.72810 0.40800
H 	H 	0.15120 0.62820 0.73800 0.44100
H 	H 	0.09510 0.63450 0.77550 0.41800
C 	C 	0.28130 0.55060 0.91700 0.41400
C 	C 	0.26530 0.45740 0.95410 0.24300
C 	C 	0.22600 0.43121 0.91759 -0.20500
C 	C 	0.28360 0.41974 0.88990 0.13000
H 	H 	0.34600 0.42760 0.89310 -0.03600
C 	C 	0.24790 0.39650 0.85730 -0.26600
C 	C 	0.15460 0.38470 0.85240 0.39800
C 	C 	0.09710 0.39620 0.88010 -0.48700
C 	C 	0.13280 0.41943 0.91270 0.22700
H 	H 	0.09420 0.42710 0.93130 -0.07300
C 	C 	0.00730 0.37674 0.88510 0.97500
C 	C 	0.93320 0.38900 0.84420 -1.37100
H 	H 	0.95460 0.38340 0.81780 0.42800
H 	H 	0.92650 0.41260 0.84590 0.41400
H 	H 	0.87230 0.37870 0.84350 0.38800
C 	C 	0.02080 0.33890 0.88910 -1.45400
H 	H 	0.04800 0.33100 0.86520 0.42800
H 	H 	0.95960 0.32850 0.88760 0.42500
H 	H 	0.06300 0.33370 0.91690 0.41900
C 	C 	0.96380 0.38690 0.92390 -1.32600
H 	H 	0.95060 0.41020 0.92230 0.40400
H 	H 	0.00820 0.38190 0.95120 0.37700
H 	H 	0.90510 0.37490 0.92260 0.38100
C 	C 	0.31270 0.38620 0.83260 0.07900
H 	H 	0.37520 0.39410 0.84090 -0.01800
C 	C 	0.37020 0.35120 0.77770 -0.01700
H 	H 	0.37530 0.32830 0.78810 -0.00600
C 	C 	0.46270 0.36200 0.78740 -0.10700
H 	H 	0.48800 0.35970 0.81900 0.02900
H 	H 	0.46360 0.38540 0.78010 0.02800
C 	C 	0.52900 0.34340 0.76280 -0.10400
H 	H 	0.53270 0.32020 0.77130 0.01500
H 	H 	0.59320 0.35270 0.77060 0.00100
C 	C 	0.48940 0.34640 0.71250 -0.01800
H 	H 	0.49310 0.36920 0.70290 0.00200
H 	H 	0.52530 0.33240 0.69640 -0.01400
C 	C 	0.38530 0.33510 0.70500 -0.22800
H 	H 	0.35550 0.33910 0.67410 0.09600
H 	H 	0.38550 0.31130 0.70950 0.06900
C 	C 	0.33160 0.34780 0.72830 0.08500
H 	H 	0.32790 0.37100 0.71850 -0.01400
C 	C 	0.17460 0.32680 0.68730 0.07100
H 	H 	0.21020 0.31960 0.66730 0.00600
C 	C 	0.07610 0.32328 0.67399 -0.24400
C 	C 	0.01350 0.32897 0.70186 0.37000
C 	C 	0.91550 0.32400 0.68652 -0.46500
C 	C 	0.88010 0.31330 0.64330 0.27300
H 	H 	0.81450 0.31000 0.63300 -0.08800
C 	C 	0.94270 0.30760 0.61543 -0.28200
C 	C 	0.04080 0.31261 0.63077 0.14200
H 	H 	0.08270 0.30880 0.61210 -0.01400
C 	C 	0.84670 0.32824 0.71890 0.94800
C 	C 	0.83870 0.36390 0.73530 -1.33700
H 	H 	0.79400 0.36450 0.75440 0.38000
H 	H 	0.81670 0.37820 0.71030 0.39100
H 	H 	0.90060 0.37120 0.75130 0.41300
C 	C 	0.88440 0.31170 0.76480 -1.31400
H 	H 	0.83930 0.31540 0.78320 0.38000
H 	H 	0.94520 0.32130 0.77860 0.41200
H 	H 	0.89210 0.28840 0.76090 0.40300
C 	C 	0.74830 0.31200 0.69930 -1.39900
H 	H 	0.70590 0.31550 0.71910 0.41400
H 	H 	0.75680 0.28870 0.69560 0.43400
H 	H 	0.72100 0.32190 0.67110 0.42100
C 	C 	0.90760 0.29940 0.57260 0.37200
C 	C 	0.28000 0.75510 0.41684 0.47200
C 	C 	0.29050 0.74415 0.37177 -0.27700
C 	C 	0.20530 0.73879 0.34082 0.27700
H 	H 	0.14670 0.74270 0.34840 -0.08400
C 	C 	0.20780 0.72760 0.29859 -0.49300
C 	C 	0.29550 0.72170 0.28731 0.37300
C 	C 	0.38060 0.72710 0.31826 -0.25900
C 	C 	0.37820 0.73831 0.36049 0.17900
H 	H 	0.43510 0.74190 0.38120 -0.01600
C 	C 	0.11210 0.72483 0.26500 0.96800
C 	C 	0.02290 0.73780 0.28020 -1.43300
H 	H 	0.02060 0.72820 0.30840 0.42900
H 	H 	0.96600 0.73180 0.25880 0.43600
H 	H 	0.02650 0.76150 0.28300 0.43300
C 	C 	0.09790 0.68697 0.25800 -1.35500
H 	H 	0.09990 0.67640 0.28600 0.40200
H 	H 	0.14820 0.67820 0.24520 0.41800
H 	H 	0.03690 0.68280 0.23850 0.38300
C 	C 	0.76430 0.70620 0.29140 -0.15000
H 	H 	0.81490 0.72050 0.30740 0.03100
H 	H 	0.77310 0.68410 0.30380 0.05000
C 	C 	0.10600 0.74210 0.21930 -1.33700
H 	H 	0.15980 0.73540 0.20730 0.40500
H 	H 	0.10710 0.76570 0.22310 0.40200
H 	H 	0.04750 0.73570 0.19920 0.37900
C 	C 	0.47260 0.72300 0.30890 0.10300
H 	H 	0.52440 0.72920 0.33130 -0.00100
C 	C 	0.59240 0.70330 0.26834 -0.02400
H 	H 	0.60230 0.68040 0.27880 0.01000
C 	C 	0.66490 0.71990 0.29270 -0.07800
H 	H 	0.65790 0.71990 0.32320 0.04900
H 	H 	0.66130 0.74270 0.28270 0.01600
C 	C 	0.76280 0.70590 0.24270 0.01200
H 	H 	0.82210 0.69590 0.23870 -0.03100
H 	H 	0.76250 0.72870 0.23270 -0.01500
C 	C 	0.67950 0.68790 0.21280 -0.20700
H 	H 	0.68280 0.69060 0.18200 0.06400
H 	H 	0.68240 0.66440 0.21970 0.06400
C 	C 	0.59410 0.70150 0.22007 0.05200
H 	H 	0.58990 0.72420 0.20870 -0.03000
C 	C 	0.50480 0.66543 0.16730 0.09000
H 	H 	0.56290 0.65960 0.16050 -0.01700
C 	C 	0.41250 0.65065 0.13918 -0.23100
C 	C 	0.32250 0.66419 0.13813 0.33600
C 	C 	0.24420 0.65467 0.10530 -0.47900
C 	C 	0.25590 0.63160 0.07350 0.24200
H 	H 	0.20350 0.62530 0.05150 -0.08700
C 	C 	0.34590 0.61809 0.07460 -0.23000
C 	C 	0.42430 0.62760 0.10739 0.13200
H 	H 	0.48450 0.61850 0.10810 -0.00900
C 	C 	0.14380 0.67098 0.10087 1.02300
C 	C 	0.15970 0.70910 0.09990 -1.36900
H 	H 	0.09910 0.72030 0.09660 0.38100
H 	H 	0.18800 0.71470 0.07530 0.39100
H 	H 	0.20180 0.71600 0.12700 0.41500
C 	C 	0.09770 0.66130 0.13900 -1.49100
H 	H 	0.03620 0.67190 0.13530 0.42100
H 	H 	0.13820 0.66820 0.16650 0.45600
H 	H 	0.08950 0.63770 0.13920 0.44000
C 	C 	0.07370 0.66160 0.05800 -1.44600
H 	H 	0.01390 0.67290 0.05650 0.40100
H 	H 	0.06320 0.63810 0.05740 0.42400
H 	H 	0.10000 0.66790 0.03320 0.41300
C 	C 	0.40750 0.50410 0.06858 0.49800
C 	C 	0.35600 0.59168 0.04040 0.36700
C 	C 	0.44700 0.49237 0.11748 -0.30300
C 	C 	0.54510 0.48734 0.13256 0.18700
H 	H 	0.58680 0.49140 0.11390 -0.02600
C 	C 	0.58080 0.47620 0.17553 -0.29600
C 	C 	0.51850 0.47010 0.20342 0.41400
C 	C 	0.42040 0.47510 0.18834 -0.53800
C 	C 	0.38470 0.48627 0.14537 0.30500
H 	H 	0.31910 0.48960 0.13530 -0.10000
C 	C 	0.24100 0.47640 0.19480 -1.48400
H 	H 	0.19980 0.47020 0.21420 0.43800
H 	H 	0.22100 0.46520 0.16700 0.43800
H 	H 	0.23750 0.49990 0.19000 0.45200
C 	C 	0.34570 0.46654 0.21620 1.07300
C 	C 	0.34940 0.42897 0.22540 -1.51700
H 	H 	0.41390 0.42270 0.23930 0.47300
H 	H 	0.32950 0.41720 0.19800 0.44400
H 	H 	0.30720 0.42370 0.24470 0.43600
C 	C 	0.36510 0.48540 0.26020 -1.50100
H 	H 	0.42910 0.48080 0.27640 0.45700
H 	H 	0.31990 0.47850 0.27730 0.43100
H 	H 	0.35830 0.50880 0.25450 0.45500
C 	C 	0.68490 0.47210 0.18850 0.17100
H 	H 	0.72240 0.47320 0.16750 -0.02500
C 	C 	0.88490 0.47460 0.20340 -0.26400
H 	H 	0.87350 0.45890 0.17920 0.11300
H 	H 	0.86760 0.49670 0.19180 0.09600
C 	C 	0.02630 0.44300 0.25620 -0.22000
H 	H 	0.09440 0.44580 0.26860 0.03500
H 	H 	0.01940 0.42420 0.23610 0.05000
C 	C 	0.97780 0.43400 0.29420 -0.04900
H 	H 	0.99250 0.45000 0.31810 0.01700
H 	H 	0.99640 0.41200 0.30580 0.02200
C 	C 	0.82470 0.41450 0.33070 0.10300
H 	H 	0.89020 0.41050 0.34020 -0.02400
C 	C 	0.82700 0.46490 0.23990 0.04800
H 	H 	0.84290 0.48320 0.26100 -0.02400
C 	C 	0.99050 0.47350 0.22950 0.13500
H 	H 	0.03100 0.47680 0.20840 -0.06900
H 	H 	0.00070 0.49220 0.24950 -0.06200
C 	C 	0.86150 0.43530 0.26840 -0.03400
H 	H 	0.85320 0.41660 0.24770 -0.01000
C 	C 	0.75340 0.40237 0.35903 -0.25400
C 	C 	0.66180 0.41538 0.35529 0.34700
C 	C 	0.60680 0.40607 0.38520 -0.46400
C 	C 	0.64340 0.38370 0.41890 0.26900
H 	H 	0.60650 0.37750 0.43890 -0.09200
C 	C 	0.73500 0.37073 0.42264 -0.30400
C 	C 	0.79000 0.38004 0.39271 0.17000
H 	H 	0.85130 0.37130 0.39520 -0.04100
C 	C 	0.43550 0.41650 0.34760 -1.34100
H 	H 	0.37390 0.42360 0.35190 0.37700
H 	H 	0.43360 0.39320 0.34130 0.40500
H 	H 	0.45090 0.42850 0.32330 0.41300
C 	C 	0.51240 0.42343 0.38990 0.93400
C 	C 	0.48370 0.41850 0.43480 -1.36400
H 	H 	0.42400 0.42960 0.43430 0.38800
H 	H 	0.53270 0.42760 0.45810 0.39600
H 	H 	0.47670 0.39530 0.44000 0.40900
C 	C 	0.51870 0.46136 0.38540 -1.26400
H 	H 	0.45860 0.47120 0.38750 0.36000
H 	H 	0.53250 0.46670 0.35720 0.38300
H 	H 	0.56890 0.46980 0.40860 0.36800
C 	C 	0.77350 0.34250 0.45120 0.48000
Co	Co	0.89944 0.10493 0.72266 1.16400
Co	Co	0.67144 0.85353 0.77245 1.16500
Co	Co	0.89776 0.19814 0.22249 1.16900
Co	Co	0.16976 0.94819 0.27076 1.15900
Cd	Cd	0.74711 0.02549 0.99341 1.22100
Cd	Cd	0.25190 0.77534 0.49761 1.21200
N 	N 	0.00140 0.12070 0.70390 -0.35500
N 	N 	0.98570 0.08820 0.76980 -0.29500
N 	N 	0.79230 0.86517 0.79720 -0.28700
N 	N 	0.72840 0.84010 0.72780 -0.31700
N 	N 	0.99350 0.21150 0.27280 -0.27500
N 	N 	0.00650 0.18452 0.19840 -0.29500
N 	N 	0.22120 0.96720 0.22690 -0.31200
N 	N 	0.29410 0.92900 0.29620 -0.29300
O 	O 	0.78250 0.22272 0.51977 -0.46200
O 	O 	0.94000 0.21915 0.54340 -0.45300
O 	O 	0.80630 0.11872 0.67230 -0.50300
O 	O 	0.79390 0.09286 0.74704 -0.51900
O 	O 	0.85890 0.04382 0.94750 -0.47800
O 	O 	0.70380 0.04330 0.92650 -0.46100
O 	O 	0.84920 0.97050 0.95640 -0.42400
O 	O 	0.68560 0.97500 0.96460 -0.37000
O 	O 	0.61960 0.86715 0.81793 -0.54900
O 	O 	0.54190 0.84092 0.74106 -0.50700
O 	O 	0.31270 0.78650 0.56080 -0.47200
O 	O 	0.45740 0.79590 0.54290 -0.55000
O 	O 	0.69800 0.25690 0.42220 -0.45700
O 	O 	0.85340 0.26030 0.44390 -0.52000
O 	O 	0.80010 0.20990 0.24670 -0.52700
O 	O 	0.81420 0.18516 0.17300 -0.50900
O 	O 	0.94410 0.08070 0.04430 -0.42700
O 	O 	0.77780 0.07910 0.02110 -0.45800
O 	O 	0.95780 0.00275 0.04066 -0.60500
O 	O 	0.82280 0.00630 0.06160 -0.52400
O 	O 	0.05210 0.95789 0.24399 -0.55500
O 	O 	0.11570 0.93440 0.32120 -0.47900
O 	O 	0.21660 0.83090 0.47130 -0.48000
O 	O 	0.36340 0.83930 0.46150 -0.55500
C 	C 	0.85840 0.21137 0.54550 0.42700
C 	C 	0.84680 0.18073 0.57432 -0.25800
C 	C 	0.75660 0.16789 0.57458 0.25700
H 	H 	0.70320 0.17510 0.55380 -0.08500
C 	C 	0.74620 0.14427 0.60590 -0.46800
C 	C 	0.82600 0.13351 0.63700 0.37700
C 	C 	0.91630 0.14635 0.63672 -0.31100
C 	C 	0.92670 0.16996 0.60539 0.18800
H 	H 	0.98710 0.17860 0.60520 -0.02200
C 	C 	0.65810 0.08746 0.59820 -1.27900
H 	H 	0.69070 0.08090 0.57560 0.37200
H 	H 	0.59500 0.07780 0.59230 0.36300
H 	H 	0.69370 0.07990 0.62650 0.37900
C 	C 	0.64970 0.12572 0.59880 0.90700
C 	C 	0.60160 0.13420 0.63760 -1.28600
H 	H 	0.59600 0.15780 0.63990 0.38800
H 	H 	0.64000 0.12570 0.66480 0.39400
H 	H 	0.53880 0.12440 0.63240 0.36500
C 	C 	0.57390 0.13550 0.55700 -1.28400
H 	H 	0.56790 0.15920 0.55550 0.38800
H 	H 	0.51310 0.12580 0.55830 0.36500
H 	H 	0.59370 0.12750 0.53110 0.37300
C 	C 	0.99350 0.13680 0.66960 0.20400
H 	H 	0.05210 0.14410 0.66470 -0.06000
C 	C 	0.09260 0.11230 0.73260 0.03500
H 	H 	0.09560 0.12920 0.75560 -0.02200
C 	C 	0.18630 0.11920 0.71890 -0.16300
H 	H 	0.18830 0.14210 0.70970 0.05300
H 	H 	0.19190 0.10510 0.69420 0.04800
C 	C 	0.27180 0.11210 0.75970 -0.06800
H 	H 	0.33230 0.11240 0.75020 -0.01000
H 	H 	0.27400 0.12910 0.78200 0.01100
C 	C 	0.25680 0.07880 0.77860 -0.05800
H 	H 	0.31390 0.07270 0.80050 -0.00000
H 	H 	0.24750 0.06240 0.75510 0.00300
C 	C 	0.16970 0.07840 0.80030 -0.15100
H 	H 	0.17160 0.09690 0.82060 0.07400
H 	H 	0.16600 0.05780 0.81600 0.05300
C 	C 	0.08340 0.08190 0.75880 -0.01600
H 	H 	0.08010 0.06230 0.74000 -0.01900
C 	C 	0.97290 0.07650 0.80730 0.14800
H 	H 	0.02600 0.06930 0.82830 -0.02800
C 	C 	0.87830 0.07445 0.81751 -0.27900
C 	C 	0.79390 0.08132 0.78676 0.40200
C 	C 	0.70580 0.07780 0.79845 -0.51200
C 	C 	0.70200 0.06740 0.84090 0.29200
H 	H 	0.64300 0.06500 0.84870 -0.09500
C 	C 	0.78650 0.06050 0.87163 -0.28200
C 	C 	0.87460 0.06405 0.85995 0.19000
H 	H 	0.93110 0.05950 0.88050 -0.01700
C 	C 	0.61080 0.08437 0.76396 1.03200
C 	C 	0.60520 0.06540 0.72020 -1.45500
H 	H 	0.54490 0.07000 0.70030 0.41800
H 	H 	0.61030 0.04200 0.72620 0.43800
H 	H 	0.65680 0.07230 0.70690 0.44600
C 	C 	0.52490 0.07610 0.78480 -1.48600
H 	H 	0.46620 0.07910 0.76310 0.44200
H 	H 	0.52540 0.09050 0.80950 0.44600
H 	H 	0.52960 0.05350 0.79470 0.45500
C 	C 	0.59790 0.12118 0.75010 -1.41400
H 	H 	0.53940 0.12380 0.72810 0.40600
H 	H 	0.65120 0.12820 0.73800 0.43600
H 	H 	0.59510 0.13450 0.77550 0.41600
C 	C 	0.78130 0.05060 0.91700 0.41300
C 	C 	0.76530 0.95740 0.95410 0.24500
C 	C 	0.72600 0.93121 0.91759 -0.21000
C 	C 	0.78360 0.91974 0.88990 0.13400
H 	H 	0.84600 0.92760 0.89310 -0.03600
C 	C 	0.74790 0.89650 0.85730 -0.26900
C 	C 	0.65460 0.88470 0.85240 0.40700
C 	C 	0.59710 0.89620 0.88010 -0.51100
C 	C 	0.63280 0.91943 0.91270 0.24100
H 	H 	0.59420 0.92710 0.93130 -0.07600
C 	C 	0.50730 0.87674 0.88510 1.05300
C 	C 	0.43320 0.88900 0.84420 -1.45800
H 	H 	0.45460 0.88340 0.81780 0.44800
H 	H 	0.42650 0.91260 0.84590 0.43600
H 	H 	0.37230 0.87870 0.84350 0.41100
C 	C 	0.52080 0.83890 0.88910 -1.47500
H 	H 	0.54800 0.83100 0.86520 0.43800
H 	H 	0.45960 0.82850 0.88760 0.42000
H 	H 	0.56300 0.83370 0.91690 0.42800
C 	C 	0.46380 0.88690 0.92390 -1.47800
H 	H 	0.45060 0.91020 0.92230 0.44600
H 	H 	0.50820 0.88190 0.95120 0.43300
H 	H 	0.40510 0.87490 0.92260 0.42200
C 	C 	0.81270 0.88620 0.83260 0.07700
H 	H 	0.87520 0.89410 0.84090 -0.01300
C 	C 	0.87020 0.85120 0.77770 -0.13500
H 	H 	0.87530 0.82830 0.78810 0.02800
C 	C 	0.96270 0.86200 0.78740 0.07000
H 	H 	0.98800 0.85970 0.81900 -0.01900
H 	H 	0.96360 0.88540 0.78010 -0.01900
C 	C 	0.02900 0.84340 0.76280 -0.30600
H 	H 	0.03270 0.82020 0.77130 0.06900
H 	H 	0.09320 0.85270 0.77060 0.06000
C 	C 	0.98940 0.84640 0.71250 0.21000
H 	H 	0.99310 0.86920 0.70290 -0.06100
H 	H 	0.02530 0.83240 0.69640 -0.09500
C 	C 	0.88530 0.83510 0.70500 -0.44000
H 	H 	0.85550 0.83910 0.67410 0.15900
H 	H 	0.88550 0.81130 0.70950 0.13100
C 	C 	0.83160 0.84780 0.72830 0.22500
H 	H 	0.82790 0.87100 0.71850 -0.05100
C 	C 	0.67460 0.82680 0.68730 0.08900
H 	H 	0.71020 0.81960 0.66730 -0.00300
C 	C 	0.57610 0.82328 0.67399 -0.27400
C 	C 	0.51350 0.82897 0.70186 0.40700
C 	C 	0.41550 0.82400 0.68652 -0.49900
C 	C 	0.38010 0.81330 0.64330 0.30400
H 	H 	0.31450 0.81000 0.63300 -0.10000
C 	C 	0.44270 0.80760 0.61543 -0.32800
C 	C 	0.54080 0.81261 0.63077 0.19300
H 	H 	0.58270 0.80880 0.61210 -0.02900
C 	C 	0.34670 0.82824 0.71890 0.95200
C 	C 	0.33870 0.86390 0.73530 -1.33300
H 	H 	0.29400 0.86450 0.75440 0.37600
H 	H 	0.31670 0.87820 0.71030 0.38800
H 	H 	0.40060 0.87120 0.75130 0.40700
C 	C 	0.38440 0.81170 0.76480 -1.31000
H 	H 	0.33930 0.81540 0.78320 0.37700
H 	H 	0.44520 0.82130 0.77860 0.40500
H 	H 	0.39210 0.78840 0.76090 0.40000
C 	C 	0.24830 0.81200 0.69930 -1.40100
H 	H 	0.20590 0.81550 0.71910 0.41400
H 	H 	0.25680 0.78870 0.69560 0.43400
H 	H 	0.22100 0.82190 0.67110 0.42100
C 	C 	0.40760 0.79940 0.57260 0.38900
C 	C 	0.78000 0.25510 0.41684 0.46900
C 	C 	0.79050 0.24415 0.37177 -0.27300
C 	C 	0.70530 0.23879 0.34082 0.27000
H 	H 	0.64670 0.24270 0.34840 -0.07900
C 	C 	0.70780 0.22760 0.29859 -0.48200
C 	C 	0.79550 0.22170 0.28731 0.37200
C 	C 	0.88060 0.22710 0.31826 -0.26600
C 	C 	0.87820 0.23831 0.36049 0.18200
H 	H 	0.93510 0.24190 0.38120 -0.01100
C 	C 	0.61210 0.22483 0.26500 0.93700
C 	C 	0.52290 0.23780 0.28020 -1.35100
H 	H 	0.52060 0.22820 0.30840 0.41000
H 	H 	0.46600 0.23180 0.25880 0.40100
H 	H 	0.52650 0.26150 0.28300 0.41000
C 	C 	0.59790 0.18697 0.25800 -1.33000
H 	H 	0.59990 0.17640 0.28600 0.39700
H 	H 	0.64820 0.17820 0.24520 0.41100
H 	H 	0.53690 0.18280 0.23850 0.38000
C 	C 	0.26430 0.20620 0.29140 -0.17100
H 	H 	0.31490 0.22050 0.30740 0.03700
H 	H 	0.27310 0.18410 0.30380 0.05600
C 	C 	0.60600 0.24210 0.21930 -1.30700
H 	H 	0.65980 0.23540 0.20730 0.39600
H 	H 	0.60710 0.26570 0.22310 0.39100
H 	H 	0.54750 0.23570 0.19920 0.37200
C 	C 	0.97260 0.22300 0.30890 0.13700
H 	H 	0.02440 0.22920 0.33130 -0.02300
C 	C 	0.09240 0.20330 0.26834 -0.05000
H 	H 	0.10230 0.18040 0.27880 0.01500
C 	C 	0.16490 0.21990 0.29270 -0.05100
H 	H 	0.15790 0.21990 0.32320 0.04000
H 	H 	0.16130 0.24270 0.28270 0.00600
C 	C 	0.26280 0.20590 0.24270 0.03000
H 	H 	0.32210 0.19590 0.23870 -0.03800
H 	H 	0.26250 0.22870 0.23270 -0.02200
C 	C 	0.17950 0.18790 0.21280 -0.22300
H 	H 	0.18280 0.19060 0.18200 0.06600
H 	H 	0.18240 0.16440 0.21970 0.06700
C 	C 	0.09410 0.20150 0.22007 0.06500
H 	H 	0.08990 0.22420 0.20870 -0.03700
C 	C 	0.00480 0.16543 0.16730 0.06500
H 	H 	0.06290 0.15960 0.16050 -0.01300
C 	C 	0.91250 0.15065 0.13918 -0.20800
C 	C 	0.82250 0.16419 0.13813 0.33100
C 	C 	0.74420 0.15467 0.10530 -0.47900
C 	C 	0.75590 0.13160 0.07350 0.24000
H 	H 	0.70350 0.12530 0.05150 -0.08500
C 	C 	0.84590 0.11809 0.07460 -0.22200
C 	C 	0.92430 0.12760 0.10739 0.12000
H 	H 	0.98450 0.11850 0.10810 0.00100
C 	C 	0.64380 0.17098 0.10087 1.03900
C 	C 	0.65970 0.20910 0.09990 -1.39000
H 	H 	0.59910 0.22030 0.09660 0.38900
H 	H 	0.68800 0.21470 0.07530 0.39900
H 	H 	0.70180 0.21600 0.12700 0.42300
C 	C 	0.59770 0.16130 0.13900 -1.51300
H 	H 	0.53620 0.17190 0.13530 0.43000
H 	H 	0.63820 0.16820 0.16650 0.46300
H 	H 	0.58950 0.13770 0.13920 0.44800
C 	C 	0.57370 0.16160 0.05800 -1.47200
H 	H 	0.51390 0.17290 0.05650 0.41200
H 	H 	0.56320 0.13810 0.05740 0.43400
H 	H 	0.60000 0.16790 0.03320 0.42400
C 	C 	0.90750 0.00410 0.06858 0.48200
C 	C 	0.85600 0.09168 0.04040 0.36400
C 	C 	0.94700 0.99237 0.11748 -0.25600
C 	C 	0.04510 0.98734 0.13256 0.13700
H 	H 	0.08680 0.99140 0.11390 -0.01000
C 	C 	0.08080 0.97620 0.17553 -0.26800
C 	C 	0.01850 0.97010 0.20342 0.37700
C 	C 	0.92040 0.97510 0.18834 -0.49800
C 	C 	0.88470 0.98627 0.14537 0.27300
H 	H 	0.81910 0.98960 0.13530 -0.08700
C 	C 	0.74100 0.97640 0.19480 -1.47200
H 	H 	0.69980 0.97020 0.21420 0.43600
H 	H 	0.72100 0.96520 0.16700 0.43600
H 	H 	0.73750 0.99990 0.19000 0.45000
C 	C 	0.84570 0.96654 0.21620 1.05700
C 	C 	0.84940 0.92897 0.22540 -1.50700
H 	H 	0.91390 0.92270 0.23930 0.47300
H 	H 	0.82950 0.91720 0.19800 0.44400
H 	H 	0.80720 0.92370 0.24470 0.43500
C 	C 	0.86510 0.98540 0.26020 -1.47600
H 	H 	0.92910 0.98080 0.27640 0.45600
H 	H 	0.81990 0.97850 0.27730 0.42800
H 	H 	0.85830 0.00880 0.25450 0.44700
C 	C 	0.18490 0.97210 0.18850 0.15500
H 	H 	0.22240 0.97320 0.16750 -0.01900
C 	C 	0.38490 0.97460 0.20340 -0.17000
H 	H 	0.37350 0.95890 0.17920 0.08400
H 	H 	0.36760 0.99670 0.19180 0.06600
C 	C 	0.52630 0.94300 0.25620 -0.07300
H 	H 	0.59440 0.94580 0.26860 -0.00600
H 	H 	0.51940 0.92420 0.23610 0.01300
C 	C 	0.47780 0.93400 0.29420 -0.13600
H 	H 	0.49250 0.95000 0.31810 0.03900
H 	H 	0.49640 0.91200 0.30580 0.04500
C 	C 	0.32470 0.91450 0.33070 0.10200
H 	H 	0.39020 0.91050 0.34020 -0.02500
C 	C 	0.32700 0.96490 0.23990 0.01200
H 	H 	0.34290 0.98320 0.26100 -0.01500
C 	C 	0.49050 0.97350 0.22950 -0.04600
H 	H 	0.53100 0.97680 0.20840 -0.00500
H 	H 	0.50070 0.99220 0.24950 0.00400
C 	C 	0.36150 0.93530 0.26840 -0.00400
H 	H 	0.35320 0.91660 0.24770 -0.02000
C 	C 	0.25340 0.90237 0.35903 -0.25100
C 	C 	0.16180 0.91538 0.35529 0.33600
C 	C 	0.10680 0.90607 0.38520 -0.44100
C 	C 	0.14340 0.88370 0.41890 0.25600
H 	H 	0.10650 0.87750 0.43890 -0.08900
C 	C 	0.23500 0.87073 0.42264 -0.29900
C 	C 	0.29000 0.88004 0.39271 0.16600
H 	H 	0.35130 0.87130 0.39520 -0.04200
C 	C 	0.93550 0.91650 0.34760 -1.24400
H 	H 	0.87390 0.92360 0.35190 0.35200
H 	H 	0.93360 0.89320 0.34130 0.37800
H 	H 	0.95090 0.92850 0.32330 0.38900
C 	C 	0.01240 0.92343 0.38990 0.85600
C 	C 	0.98370 0.91850 0.43480 -1.20800
H 	H 	0.92400 0.92960 0.43430 0.34600
H 	H 	0.03270 0.92760 0.45810 0.33900
H 	H 	0.97670 0.89530 0.44000 0.36800
C 	C 	0.01870 0.96136 0.38540 -1.25800
H 	H 	0.95860 0.97120 0.38750 0.37000
H 	H 	0.03250 0.96670 0.35720 0.37700
H 	H 	0.06890 0.96980 0.40860 0.36400
C 	C 	0.27350 0.84250 0.45120 0.47900
Cd	Cd	0.50000 0.54700 -0.00000 1.22900
Cd	Cd	0.50000 0.45968 -0.00000 1.16700
Cd	Cd	0.00000 0.04700 -0.00000 1.22400
Cd	Cd	0.00000 0.95968 -0.00000 1.16300
Cd	Cd	0.00000 0.33960 0.50000 1.20100
Cd	Cd	-0.00000 0.25270 0.50000 1.22700
Cd	Cd	0.50000 0.83960 0.50000 1.20600
Cd	Cd	0.50000 0.75270 0.50000 1.23300
