data_crystal

_cell_length_a 10.23940
_cell_length_b 37.78630
_cell_length_c 10.07310
_cell_angle_alpha 90.00000
_cell_angle_beta  97.14400
_cell_angle_gamma 90.00000

_symmetry_space_group_name_	'P 1'
_symmetry_space_group_name_H-M	'P 1'

loop_
_symmetry_equiv_pos_as_xyz
  x,y,z

loop_
_atom_site_label
_atom_site_type_symbol
_atom_site_fract_x
_atom_site_fract_y
_atom_site_fract_z
_atom_site_charge
Pb	Pb	0.75179 0.53078 0.99423 1.25900
Pb	Pb	0.26797 0.21713 0.52425 1.26300
O 	O 	0.02160 0.40539 0.90100 -0.18100
O 	O 	0.80640 0.47924 0.88240 -0.40600
O 	O 	0.02470 0.47790 0.87880 -0.40100
O 	O 	0.17640 0.34192 0.22720 -0.20000
O 	O 	0.15990 0.26920 0.45000 -0.41100
O 	O 	0.16250 0.26862 0.22800 -0.41400
O 	O 	0.46970 0.41372 0.11260 -0.20300
O 	O 	0.68710 0.48700 0.13560 -0.40600
O 	O 	0.46790 0.48605 0.12980 -0.39500
O 	O 	0.32790 0.33610 0.81140 -0.20400
O 	O 	0.40750 0.26033 0.62670 -0.39600
O 	O 	0.40850 0.26760 0.84730 -0.37800
C 	C 	0.00460 0.36864 0.89510 0.03000
C 	C 	0.03830 0.35118 0.78150 0.05300
C 	C 	0.01880 0.31469 0.77210 -0.12500
H 	H 	0.04120 0.30230 0.69600 0.07300
C 	C 	0.96750 0.29637 0.87180 -0.03000
H 	H 	0.95120 0.27170 0.86240 0.03700
C 	C 	0.93970 0.31384 0.98600 -0.11300
H 	H 	0.90820 0.30080 0.05600 0.05900
C 	C 	0.95740 0.35031 0.99950 0.04700
C 	C 	0.15780 0.37819 0.23980 0.02100
C 	C 	0.03430 0.39202 0.19270 0.05500
C 	C 	0.01310 0.42803 0.20830 -0.13600
H 	H 	0.92970 0.43790 0.17630 0.07600
C 	C 	0.11000 0.44954 0.26900 -0.01400
H 	H 	0.09310 0.47400 0.28070 0.03200
C 	C 	0.23340 0.43560 0.31350 -0.15100
H 	H 	0.30110 0.45080 0.35330 0.07200
C 	C 	0.25930 0.39950 0.30050 0.05700
C 	C 	0.48960 0.37722 0.13400 0.02000
C 	C 	0.45930 0.36311 0.25400 0.05700
C 	C 	0.49310 0.32816 0.28360 -0.13600
H 	H 	0.47460 0.31810 0.36570 0.07600
C 	C 	0.55290 0.30795 0.19570 -0.00400
H 	H 	0.57970 0.28440 0.21860 0.03800
C 	C 	0.57390 0.32197 0.07360 -0.14800
H 	H 	0.61160 0.30740 0.01180 0.07600
C 	C 	0.54180 0.35662 0.03820 0.04700
C 	C 	0.33340 0.37231 0.78370 0.02200
C 	C 	0.45040 0.38989 0.82630 0.06000
C 	C 	0.46170 0.42522 0.79160 -0.14200
H 	H 	0.54150 0.43760 0.81830 0.08100
C 	C 	0.35850 0.44240 0.71930 -0.00100
H 	H 	0.36770 0.46640 0.69420 0.03200
C 	C 	0.24180 0.42497 0.68290 -0.14000
H 	H 	0.17060 0.43750 0.63470 0.07500
C 	C 	0.22460 0.38940 0.71460 0.05800
C 	C 	0.92700 0.36821 0.12680 -0.19500
H 	H 	0.90890 0.34970 0.19160 0.08800
H 	H 	0.84570 0.38240 0.10600 0.08000
C 	C 	0.39460 0.38583 0.35150 -0.20000
H 	H 	0.45250 0.40630 0.37710 0.09100
H 	H 	0.38840 0.37180 0.43350 0.08600
C 	C 	0.56440 0.37042 0.90280 -0.18900
H 	H 	0.64130 0.38650 0.91460 0.08100
H 	H 	0.58760 0.35020 0.84780 0.09200
C 	C 	0.09460 0.37136 0.67320 -0.19700
H 	H 	0.10560 0.35480 0.59930 0.08300
H 	H 	0.02990 0.38950 0.63760 0.09000
C 	C 	0.90000 0.42387 0.86890 -0.20100
H 	H 	0.86220 0.41770 0.77650 0.09600
H 	H 	0.83720 0.41590 0.93000 0.09200
C 	C 	0.91560 0.46374 0.87980 0.38000
C 	C 	0.15850 0.32384 0.34880 -0.19600
H 	H 	0.22850 0.33130 0.41990 0.08900
H 	H 	0.07290 0.33100 0.37660 0.09300
C 	C 	0.16180 0.28365 0.33620 0.38100
C 	C 	0.59190 0.43193 0.13910 -0.20100
H 	H 	0.63450 0.42520 0.22930 0.09700
H 	H 	0.65050 0.42440 0.07330 0.09000
C 	C 	0.57670 0.47146 0.13260 0.38000
C 	C 	0.33940 0.31493 0.69580 -0.21000
H 	H 	0.25220 0.31340 0.64130 0.09500
H 	H 	0.40050 0.32670 0.64090 0.10000
C 	C 	0.38860 0.27818 0.72940 0.37200
Pb	Pb	0.73203 0.71713 0.97575 1.25700
Pb	Pb	0.24821 0.03078 0.50576 1.25900
O 	O 	0.97840 0.90539 0.59900 -0.18600
O 	O 	0.19360 0.97924 0.61760 -0.40800
O 	O 	0.97530 0.97790 0.62120 -0.40700
O 	O 	0.82360 0.84192 0.27280 -0.19700
O 	O 	0.84010 0.76920 0.05000 -0.40200
O 	O 	0.83750 0.76862 0.27200 -0.41000
O 	O 	0.53030 0.91372 0.38740 -0.20000
O 	O 	0.31290 0.98700 0.36440 -0.40800
O 	O 	0.53210 0.98605 0.37020 -0.39500
O 	O 	0.67210 0.83610 0.68860 -0.20700
O 	O 	0.59250 0.76033 0.87330 -0.40000
O 	O 	0.59150 0.76760 0.65270 -0.38300
C 	C 	0.99540 0.86864 0.60490 0.01700
C 	C 	0.96170 0.85118 0.71850 0.06200
C 	C 	0.98120 0.81469 0.72790 -0.14600
H 	H 	0.95880 0.80230 0.80400 0.07700
C 	C 	0.03250 0.79637 0.62820 -0.00400
H 	H 	0.04880 0.77170 0.63760 0.02700
C 	C 	0.06030 0.81384 0.51400 -0.14600
H 	H 	0.09180 0.80080 0.44400 0.07500
C 	C 	0.04260 0.85031 0.50050 0.05800
C 	C 	0.84220 0.87819 0.26020 0.02100
C 	C 	0.96570 0.89202 0.30730 0.06000
C 	C 	0.98690 0.92803 0.29170 -0.12700
H 	H 	0.07030 0.93790 0.32370 0.07100
C 	C 	0.89000 0.94954 0.23100 -0.01600
H 	H 	0.90690 0.97400 0.21930 0.03400
C 	C 	0.76660 0.93560 0.18650 -0.15000
H 	H 	0.69890 0.95080 0.14670 0.07200
C 	C 	0.74070 0.89950 0.19950 0.06000
C 	C 	0.51040 0.87722 0.36600 0.01400
C 	C 	0.54070 0.86311 0.24600 0.06400
C 	C 	0.50690 0.82816 0.21640 -0.14200
H 	H 	0.52540 0.81810 0.13430 0.08000
C 	C 	0.44710 0.80795 0.30430 0.00600
H 	H 	0.42030 0.78440 0.28140 0.03600
C 	C 	0.42610 0.82197 0.42640 -0.15800
H 	H 	0.38840 0.80740 0.48820 0.08300
C 	C 	0.45820 0.85662 0.46180 0.06300
C 	C 	0.66660 0.87231 0.71630 0.01800
C 	C 	0.54960 0.88989 0.67370 0.06400
C 	C 	0.53830 0.92522 0.70840 -0.14600
H 	H 	0.45850 0.93760 0.68170 0.08200
C 	C 	0.64150 0.94240 0.78070 0.00100
H 	H 	0.63230 0.96640 0.80580 0.03100
C 	C 	0.75820 0.92497 0.81710 -0.14300
H 	H 	0.82940 0.93750 0.86530 0.07400
C 	C 	0.77540 0.88940 0.78540 0.05900
C 	C 	0.07300 0.86821 0.37320 -0.20100
H 	H 	0.09110 0.84970 0.30840 0.09000
H 	H 	0.15430 0.88240 0.39400 0.08300
C 	C 	0.60540 0.88583 0.14850 -0.20600
H 	H 	0.54750 0.90630 0.12290 0.09400
H 	H 	0.61160 0.87180 0.06650 0.09000
C 	C 	0.43560 0.87042 0.59720 -0.20700
H 	H 	0.35870 0.88650 0.58540 0.08400
H 	H 	0.41240 0.85020 0.65220 0.09400
C 	C 	0.90540 0.87136 0.82680 -0.20000
H 	H 	0.89440 0.85480 0.90070 0.08000
H 	H 	0.97010 0.88950 0.86240 0.08800
C 	C 	0.10000 0.92387 0.63110 -0.19800
H 	H 	0.13780 0.91770 0.72350 0.09500
H 	H 	0.16280 0.91590 0.57000 0.08900
C 	C 	0.08440 0.96374 0.62020 0.38400
C 	C 	0.84150 0.82384 0.15120 -0.19900
H 	H 	0.77150 0.83130 0.08010 0.09400
H 	H 	0.92710 0.83100 0.12340 0.09700
C 	C 	0.83820 0.78365 0.16380 0.38100
C 	C 	0.40810 0.93193 0.36090 -0.20300
H 	H 	0.36550 0.92520 0.27070 0.09800
H 	H 	0.34950 0.92440 0.42670 0.09200
C 	C 	0.42330 0.97146 0.36740 0.38100
C 	C 	0.66060 0.81493 0.80420 -0.20800
H 	H 	0.74780 0.81340 0.85870 0.09100
H 	H 	0.59950 0.82670 0.85910 0.09600
C 	C 	0.61140 0.77818 0.77060 0.37100
O 	O 	0.97840 0.59461 0.09900 -0.18200
O 	O 	0.19360 0.52076 0.11760 -0.40700
O 	O 	0.97530 0.52210 0.12120 -0.40100
O 	O 	0.82360 0.65808 0.77280 -0.20000
O 	O 	0.84010 0.73080 0.55000 -0.41100
O 	O 	0.83750 0.73138 0.77200 -0.41400
O 	O 	0.53030 0.58628 0.88740 -0.20300
O 	O 	0.31290 0.51300 0.86440 -0.40600
O 	O 	0.53210 0.51395 0.87020 -0.39500
O 	O 	0.67210 0.66390 0.18860 -0.20400
O 	O 	0.59250 0.73967 0.37330 -0.39600
O 	O 	0.59150 0.73240 0.15270 -0.37800
C 	C 	0.99540 0.63136 0.10490 0.03000
C 	C 	0.96170 0.64882 0.21850 0.05300
C 	C 	0.98120 0.68531 0.22790 -0.12500
H 	H 	0.95880 0.69770 0.30400 0.07300
C 	C 	0.03250 0.70363 0.12820 -0.03000
H 	H 	0.04880 0.72830 0.13760 0.03700
C 	C 	0.06030 0.68616 0.01400 -0.11300
H 	H 	0.09180 0.69920 0.94400 0.05900
C 	C 	0.04260 0.64969 0.00050 0.04700
C 	C 	0.84220 0.62181 0.76020 0.02100
C 	C 	0.96570 0.60798 0.80730 0.05500
C 	C 	0.98690 0.57197 0.79170 -0.13600
H 	H 	0.07030 0.56210 0.82370 0.07600
C 	C 	0.89000 0.55046 0.73100 -0.01400
H 	H 	0.90690 0.52600 0.71930 0.03200
C 	C 	0.76660 0.56440 0.68650 -0.15100
H 	H 	0.69890 0.54920 0.64670 0.07200
C 	C 	0.74070 0.60050 0.69950 0.05700
C 	C 	0.51040 0.62278 0.86600 0.02000
C 	C 	0.54070 0.63689 0.74600 0.05700
C 	C 	0.50690 0.67184 0.71640 -0.13600
H 	H 	0.52540 0.68190 0.63430 0.07600
C 	C 	0.44710 0.69205 0.80430 -0.00400
H 	H 	0.42030 0.71560 0.78140 0.03800
C 	C 	0.42610 0.67803 0.92640 -0.14800
H 	H 	0.38840 0.69260 0.98820 0.07600
C 	C 	0.45820 0.64338 0.96180 0.04700
C 	C 	0.66660 0.62769 0.21630 0.02200
C 	C 	0.54960 0.61011 0.17370 0.06000
C 	C 	0.53830 0.57478 0.20840 -0.14200
H 	H 	0.45850 0.56240 0.18170 0.08100
C 	C 	0.64150 0.55760 0.28070 -0.00100
H 	H 	0.63230 0.53360 0.30580 0.03200
C 	C 	0.75820 0.57503 0.31710 -0.14000
H 	H 	0.82940 0.56250 0.36530 0.07500
C 	C 	0.77540 0.61060 0.28540 0.05800
C 	C 	0.07300 0.63179 0.87320 -0.19500
H 	H 	0.09110 0.65030 0.80840 0.08800
H 	H 	0.15430 0.61760 0.89400 0.08000
C 	C 	0.60540 0.61417 0.64850 -0.20000
H 	H 	0.54750 0.59370 0.62290 0.09100
H 	H 	0.61160 0.62820 0.56650 0.08600
C 	C 	0.43560 0.62958 0.09720 -0.18900
H 	H 	0.35870 0.61350 0.08540 0.08100
H 	H 	0.41240 0.64980 0.15220 0.09200
C 	C 	0.90540 0.62864 0.32680 -0.19700
H 	H 	0.89440 0.64520 0.40070 0.08300
H 	H 	0.97010 0.61050 0.36240 0.09000
C 	C 	0.10000 0.57613 0.13110 -0.20100
H 	H 	0.13780 0.58230 0.22350 0.09600
H 	H 	0.16280 0.58410 0.07000 0.09200
C 	C 	0.08440 0.53626 0.12020 0.38000
C 	C 	0.84150 0.67616 0.65120 -0.19600
H 	H 	0.77150 0.66870 0.58010 0.08900
H 	H 	0.92710 0.66900 0.62340 0.09300
C 	C 	0.83820 0.71635 0.66380 0.38100
C 	C 	0.40810 0.56807 0.86090 -0.20100
H 	H 	0.36550 0.57480 0.77070 0.09700
H 	H 	0.34950 0.57560 0.92670 0.09000
C 	C 	0.42330 0.52854 0.86740 0.38000
C 	C 	0.66060 0.68507 0.30420 -0.21000
H 	H 	0.74780 0.68660 0.35870 0.09500
H 	H 	0.59950 0.67330 0.35910 0.10000
C 	C 	0.61140 0.72182 0.27060 0.37200
Pb	Pb	0.24821 0.46922 0.00577 1.25800
Pb	Pb	0.73203 0.78287 0.47575 1.26200
O 	O 	0.02160 0.09461 0.40100 -0.18600
O 	O 	0.80640 0.02076 0.38240 -0.40800
O 	O 	0.02470 0.02210 0.37880 -0.40700
O 	O 	0.17640 0.15808 0.72720 -0.19700
O 	O 	0.15990 0.23080 0.95000 -0.40200
O 	O 	0.16250 0.23138 0.72800 -0.41000
O 	O 	0.46970 0.08628 0.61260 -0.20000
O 	O 	0.68710 0.01300 0.63560 -0.40800
O 	O 	0.46790 0.01395 0.62980 -0.39500
O 	O 	0.32790 0.16390 0.31140 -0.20700
O 	O 	0.40750 0.23967 0.12670 -0.40000
O 	O 	0.40850 0.23240 0.34730 -0.38300
C 	C 	0.00460 0.13136 0.39510 0.01700
C 	C 	0.03830 0.14882 0.28150 0.06200
C 	C 	0.01880 0.18531 0.27210 -0.14600
H 	H 	0.04120 0.19770 0.19600 0.07700
C 	C 	0.96750 0.20363 0.37180 -0.00400
H 	H 	0.95120 0.22830 0.36240 0.02700
C 	C 	0.93970 0.18616 0.48600 -0.14600
H 	H 	0.90820 0.19920 0.55600 0.07500
C 	C 	0.95740 0.14969 0.49950 0.05800
C 	C 	0.15780 0.12181 0.73980 0.02100
C 	C 	0.03430 0.10798 0.69270 0.06000
C 	C 	0.01310 0.07197 0.70830 -0.12700
H 	H 	0.92970 0.06210 0.67630 0.07100
C 	C 	0.11000 0.05046 0.76900 -0.01600
H 	H 	0.09310 0.02600 0.78070 0.03400
C 	C 	0.23340 0.06440 0.81350 -0.15000
H 	H 	0.30110 0.04920 0.85330 0.07200
C 	C 	0.25930 0.10050 0.80050 0.06000
C 	C 	0.48960 0.12278 0.63400 0.01400
C 	C 	0.45930 0.13689 0.75400 0.06400
C 	C 	0.49310 0.17184 0.78360 -0.14200
H 	H 	0.47460 0.18190 0.86570 0.08000
C 	C 	0.55290 0.19205 0.69570 0.00600
H 	H 	0.57970 0.21560 0.71860 0.03600
C 	C 	0.57390 0.17803 0.57360 -0.15800
H 	H 	0.61160 0.19260 0.51180 0.08300
C 	C 	0.54180 0.14338 0.53820 0.06300
C 	C 	0.33340 0.12769 0.28370 0.01800
C 	C 	0.45040 0.11011 0.32630 0.06400
C 	C 	0.46170 0.07478 0.29160 -0.14600
H 	H 	0.54150 0.06240 0.31830 0.08200
C 	C 	0.35850 0.05760 0.21930 0.00100
H 	H 	0.36770 0.03360 0.19420 0.03100
C 	C 	0.24180 0.07503 0.18290 -0.14300
H 	H 	0.17060 0.06250 0.13470 0.07400
C 	C 	0.22460 0.11060 0.21460 0.05900
C 	C 	0.92700 0.13179 0.62680 -0.20100
H 	H 	0.90890 0.15030 0.69160 0.09000
H 	H 	0.84570 0.11760 0.60600 0.08300
C 	C 	0.39460 0.11417 0.85150 -0.20600
H 	H 	0.45250 0.09370 0.87710 0.09400
H 	H 	0.38840 0.12820 0.93350 0.09000
C 	C 	0.56440 0.12958 0.40280 -0.20700
H 	H 	0.64130 0.11350 0.41460 0.08400
H 	H 	0.58760 0.14980 0.34780 0.09400
C 	C 	0.09460 0.12864 0.17320 -0.20000
H 	H 	0.10560 0.14520 0.09930 0.08000
H 	H 	0.02990 0.11050 0.13760 0.08800
C 	C 	0.90000 0.07613 0.36890 -0.19800
H 	H 	0.86220 0.08230 0.27650 0.09500
H 	H 	0.83720 0.08410 0.43000 0.08900
C 	C 	0.91560 0.03626 0.37980 0.38400
C 	C 	0.15850 0.17616 0.84880 -0.19900
H 	H 	0.22850 0.16870 0.91990 0.09400
H 	H 	0.07290 0.16900 0.87660 0.09700
C 	C 	0.16180 0.21635 0.83620 0.38100
C 	C 	0.59190 0.06807 0.63910 -0.20300
H 	H 	0.63450 0.07480 0.72930 0.09800
H 	H 	0.65050 0.07560 0.57330 0.09200
C 	C 	0.57670 0.02854 0.63260 0.38100
C 	C 	0.33940 0.18507 0.19580 -0.20800
H 	H 	0.25220 0.18660 0.14130 0.09100
H 	H 	0.40050 0.17330 0.14090 0.09600
C 	C 	0.38860 0.22182 0.22940 0.37100
Pb	Pb	0.26797 0.28287 0.02425 1.25700
Pb	Pb	0.75179 0.96922 0.49424 1.25900
