data_crystal

_cell_length_a 15.45600
_cell_length_b 33.89800
_cell_length_c 17.97600
_cell_angle_alpha 90.00000
_cell_angle_beta  96.03800
_cell_angle_gamma 90.00000

_symmetry_space_group_name_	'P 1'
_symmetry_space_group_name_H-M	'P 1'

loop_
_symmetry_equiv_pos_as_xyz
  x,y,z

loop_
_atom_site_label
_atom_site_type_symbol
_atom_site_fract_x
_atom_site_fract_y
_atom_site_fract_z
_atom_site_charge
C 	C 	0.69500 0.14510 0.65200 0.09500
C 	C 	0.66810 0.10670 0.61700 -0.02900
C 	C 	0.67720 0.09090 0.54690 0.03900
C 	C 	0.65800 0.05140 0.53250 -0.11700
H 	H 	0.66410 0.04090 0.48550 0.07100
C 	C 	0.62980 0.02770 0.58820 0.05600
C 	C 	0.62100 0.04340 0.65830 -0.09800
H 	H 	0.60190 0.02760 0.69560 0.05900
C 	C 	0.63990 0.08290 0.67270 -0.01600
H 	H 	0.63380 0.09350 0.71960 0.04900
C 	C 	0.89730 0.24120 0.62940 0.33300
C 	C 	0.98450 0.24650 0.60210 -0.12000
C 	C 	0.04920 0.22290 0.62640 0.05800
H 	H 	0.04130 0.20440 0.66330 0.02900
C 	C 	0.12960 0.22530 0.59730 -0.13300
H 	H 	0.17520 0.20910 0.61650 0.08200
C 	C 	0.14210 0.25140 0.54020 0.09200
C 	C 	0.07440 0.27670 0.51720 -0.13300
H 	H 	0.08120 0.29550 0.48050 0.08700
C 	C 	0.99570 0.27420 0.54880 0.06100
H 	H 	0.95060 0.29150 0.53330 0.03200
C 	C 	0.22090 0.25530 0.49980 -0.02100
C 	C 	0.56060 0.27430 0.61510 0.10100
H 	H 	0.52990 0.25950 0.64720 0.00300
C 	C 	0.66000 0.29220 0.55030 0.09800
H 	H 	0.71080 0.29370 0.52700 0.01300
C 	C 	0.58510 0.35120 0.49570 0.00000
H 	H 	0.53640 0.34740 0.45770 0.05800
H 	H 	0.63690 0.35470 0.47030 0.05500
C 	C 	0.56990 0.38780 0.53850 -0.13000
C 	C 	0.63580 0.40420 0.58480 0.21200
C 	C 	0.62870 0.43990 0.62400 -0.19800
C 	C 	0.54630 0.45700 0.61660 0.10300
H 	H 	0.53760 0.47970 0.64410 -0.02000
C 	C 	0.47770 0.44210 0.57090 -0.19300
C 	C 	0.49140 0.40700 0.53350 0.20300
C 	C 	0.38910 0.46050 0.56480 0.28400
H 	H 	0.35980 0.45330 0.51570 -0.03900
C 	C 	0.36420 0.36690 0.52030 0.19000
H 	H 	0.39260 0.35590 0.56640 0.00400
H 	H 	0.34510 0.34520 0.48740 0.00000
C 	C 	0.33700 0.44140 0.62410 -0.18000
C 	C 	0.33690 0.45740 0.69370 0.10800
H 	H 	0.36560 0.48120 0.70460 -0.02000
C 	C 	0.29500 0.43890 0.74830 -0.18900
C 	C 	0.25340 0.40370 0.73140 0.22000
C 	C 	0.25070 0.38710 0.66180 -0.11800
C 	C 	0.29410 0.40660 0.60750 0.20500
C 	C 	0.70230 0.45690 0.67240 0.31000
H 	H 	0.75510 0.44770 0.65210 -0.04100
C 	C 	0.26190 0.36370 0.84050 0.22300
H 	H 	0.31490 0.35510 0.82090 -0.01200
H 	H 	0.23030 0.34020 0.85270 -0.00300
N 	N 	0.59520 0.31690 0.54090 -0.09200
N 	N 	0.52940 0.30620 0.58190 -0.08700
N 	N 	0.64140 0.26450 0.59890 -0.22900
O 	O 	0.70100 0.16590 0.71350 -0.30800
O 	O 	0.71400 0.16640 0.59600 0.06500
O 	O 	0.83920 0.26550 0.60890 -0.36600
O 	O 	0.88340 0.21130 0.66590 -0.39700
O 	O 	0.71520 0.38510 0.59280 -0.25000
O 	O 	0.42390 0.39062 0.48590 -0.25000
O 	O 	0.28930 0.38998 0.53660 -0.24600
O 	O 	0.21140 0.38440 0.78440 -0.25600
Cd	Cd	0.73753 0.22121 0.66190 1.23200
C 	C 	0.19890 0.35040 0.64160 -0.00900
H 	H 	0.14150 0.35300 0.65850 0.05400
H 	H 	0.19160 0.34740 0.58770 0.05800
C 	C 	0.33440 0.27200 0.70140 0.10600
H 	H 	0.38560 0.25750 0.70280 -0.00400
C 	C 	0.20920 0.28910 0.72020 0.09000
H 	H 	0.15410 0.28980 0.73650 0.00400
N 	N 	0.24090 0.31590 0.67500 -0.08800
N 	N 	0.32120 0.30510 0.66230 -0.08800
N 	N 	0.26860 0.26170 0.73790 -0.24400
C 	C 	0.59200 0.98670 0.58300 -0.02600
C 	C 	0.58400 0.96350 0.52200 -0.03100
C 	C 	0.52700 0.92730 0.52210 0.08800
C 	C 	0.44510 0.91840 0.54270 -0.13900
H 	H 	0.42350 0.93200 0.58160 0.09000
C 	C 	0.42750 0.86850 0.44680 -0.08900
C 	C 	0.50940 0.87750 0.42630 0.03500
H 	H 	0.53100 0.86380 0.38730 0.03700
C 	C 	0.55920 0.90680 0.46390 -0.12400
H 	H 	0.61410 0.91280 0.45010 0.08500
C 	C 	0.39530 0.88900 0.50500 0.08600
C 	C 	0.70600 0.50160 0.67040 -0.80700
H 	H 	0.75540 0.51060 0.70280 0.27100
H 	H 	0.65380 0.51230 0.68700 0.26700
H 	H 	0.71120 0.51020 0.62020 0.27200
C 	C 	0.37650 0.83480 0.40950 0.25000
O 	O 	0.40110 0.81800 0.35420 -0.30300
C 	C 	0.39070 0.50590 0.56880 -0.78400
H 	H 	0.33220 0.51570 0.56520 0.26600
H 	H 	0.41960 0.51610 0.52820 0.26400
H 	H 	0.42140 0.51400 0.61540 0.26100
O 	O 	0.29400 0.82860 0.42930 -0.39900
C 	C 	0.19500 0.64510 0.65200 0.09600
C 	C 	0.16810 0.60670 0.61700 -0.02800
C 	C 	0.17720 0.59090 0.54690 0.04000
C 	C 	0.15800 0.55140 0.53250 -0.11600
H 	H 	0.16410 0.54090 0.48550 0.07200
C 	C 	0.12980 0.52770 0.58820 0.05700
C 	C 	0.12100 0.54340 0.65830 -0.09700
H 	H 	0.10190 0.52760 0.69560 0.06000
C 	C 	0.13990 0.58290 0.67270 -0.01600
H 	H 	0.13380 0.59350 0.71960 0.05000
C 	C 	0.39730 0.74120 0.62940 0.33500
C 	C 	0.48450 0.74650 0.60210 -0.12000
C 	C 	0.54920 0.72290 0.62640 0.06000
H 	H 	0.54130 0.70440 0.66330 0.03000
C 	C 	0.62960 0.72530 0.59730 -0.13300
H 	H 	0.67520 0.70910 0.61650 0.08200
C 	C 	0.64210 0.75140 0.54020 0.09300
C 	C 	0.57440 0.77670 0.51720 -0.13300
H 	H 	0.58120 0.79550 0.48050 0.08700
C 	C 	0.49570 0.77420 0.54880 0.06100
H 	H 	0.45060 0.79150 0.53330 0.03200
C 	C 	0.72090 0.75530 0.49980 -0.02100
C 	C 	0.06060 0.77430 0.61510 0.10100
H 	H 	0.02990 0.75950 0.64720 0.00300
C 	C 	0.16000 0.79220 0.55030 0.09800
H 	H 	0.21080 0.79370 0.52700 0.01300
C 	C 	0.08510 0.85120 0.49570 0.00000
H 	H 	0.03640 0.84740 0.45770 0.05800
H 	H 	0.13690 0.85470 0.47030 0.05500
C 	C 	0.06990 0.88780 0.53850 -0.13000
C 	C 	0.13580 0.90420 0.58480 0.21200
C 	C 	0.12870 0.93990 0.62400 -0.19800
C 	C 	0.04630 0.95700 0.61660 0.10200
H 	H 	0.03760 0.97970 0.64410 -0.02000
C 	C 	0.97770 0.94210 0.57090 -0.19300
C 	C 	0.99140 0.90700 0.53350 0.20300
C 	C 	0.88910 0.96050 0.56480 0.28400
H 	H 	0.85980 0.95330 0.51570 -0.03900
C 	C 	0.86420 0.86690 0.52030 0.19000
H 	H 	0.89260 0.85590 0.56640 0.00400
H 	H 	0.84510 0.84520 0.48740 0.00000
C 	C 	0.83700 0.94140 0.62410 -0.17900
C 	C 	0.83690 0.95740 0.69370 0.10800
H 	H 	0.86560 0.98120 0.70460 -0.02000
C 	C 	0.79500 0.93890 0.74830 -0.18900
C 	C 	0.75340 0.90370 0.73140 0.22000
C 	C 	0.75070 0.88710 0.66180 -0.11800
C 	C 	0.79410 0.90660 0.60750 0.20500
C 	C 	0.20230 0.95690 0.67240 0.30900
H 	H 	0.25510 0.94770 0.65210 -0.04100
C 	C 	0.76190 0.86370 0.84050 0.22200
H 	H 	0.81490 0.85510 0.82090 -0.01200
H 	H 	0.73030 0.84020 0.85270 -0.00200
N 	N 	0.09520 0.81690 0.54090 -0.09200
N 	N 	0.02940 0.80620 0.58190 -0.08700
N 	N 	0.14140 0.76450 0.59890 -0.22900
O 	O 	0.20100 0.66590 0.71350 -0.30800
O 	O 	0.21400 0.66640 0.59600 0.06500
O 	O 	0.33920 0.76550 0.60890 -0.36600
O 	O 	0.38340 0.71130 0.66590 -0.39700
O 	O 	0.21520 0.88510 0.59280 -0.25000
O 	O 	0.92390 0.89062 0.48590 -0.25000
O 	O 	0.78930 0.88998 0.53660 -0.24600
O 	O 	0.71140 0.88440 0.78440 -0.25600
Cd	Cd	0.23753 0.72121 0.66190 1.23200
C 	C 	0.69890 0.85040 0.64160 -0.00900
H 	H 	0.64150 0.85300 0.65850 0.05400
H 	H 	0.69160 0.84740 0.58770 0.05900
C 	C 	0.83440 0.77200 0.70140 0.10600
H 	H 	0.88560 0.75750 0.70280 -0.00300
C 	C 	0.70920 0.78910 0.72020 0.09000
H 	H 	0.65410 0.78980 0.73650 0.00400
N 	N 	0.74090 0.81590 0.67500 -0.08800
N 	N 	0.82120 0.80510 0.66230 -0.08800
N 	N 	0.76860 0.76170 0.73790 -0.24400
C 	C 	0.09200 0.48670 0.58300 -0.02600
C 	C 	0.08400 0.46350 0.52200 -0.03100
C 	C 	0.02700 0.42730 0.52210 0.08700
C 	C 	0.94510 0.41840 0.54270 -0.13900
H 	H 	0.92350 0.43200 0.58160 0.09000
C 	C 	0.92750 0.36850 0.44680 -0.08900
C 	C 	0.00940 0.37750 0.42630 0.03500
H 	H 	0.03100 0.36380 0.38730 0.03700
C 	C 	0.05920 0.40680 0.46390 -0.12400
H 	H 	0.11410 0.41280 0.45010 0.08500
C 	C 	0.89530 0.38900 0.50500 0.08600
C 	C 	0.20600 0.00160 0.67040 -0.80700
H 	H 	0.25540 0.01060 0.70280 0.27000
H 	H 	0.15380 0.01230 0.68700 0.26700
H 	H 	0.21120 0.01020 0.62020 0.27200
C 	C 	0.87650 0.33480 0.40950 0.25000
O 	O 	0.90110 0.31800 0.35420 -0.30400
C 	C 	0.89070 0.00590 0.56880 -0.78400
H 	H 	0.83220 0.01570 0.56520 0.26600
H 	H 	0.91960 0.01610 0.52820 0.26400
H 	H 	0.92140 0.01400 0.61540 0.26100
O 	O 	0.79400 0.32860 0.42930 -0.39900
C 	C 	0.30500 0.14510 0.84800 0.09600
C 	C 	0.33190 0.10670 0.88300 -0.02800
C 	C 	0.32280 0.09090 0.95310 0.04000
C 	C 	0.34200 0.05140 0.96750 -0.11700
H 	H 	0.33590 0.04090 0.01450 0.07200
C 	C 	0.37020 0.02770 0.91180 0.05800
C 	C 	0.37900 0.04340 0.84170 -0.09700
H 	H 	0.39810 0.02760 0.80440 0.06000
C 	C 	0.36010 0.08290 0.82730 -0.01500
H 	H 	0.36620 0.09350 0.78040 0.05000
C 	C 	0.10270 0.24120 0.87060 0.33500
C 	C 	0.01550 0.24650 0.89790 -0.12100
C 	C 	0.95080 0.22290 0.87360 0.06200
H 	H 	0.95870 0.20440 0.83670 0.03000
C 	C 	0.87040 0.22530 0.90270 -0.13500
H 	H 	0.82480 0.20910 0.88350 0.08300
C 	C 	0.85790 0.25140 0.95980 0.09400
C 	C 	0.92560 0.27670 0.98280 -0.13000
H 	H 	0.91880 0.29550 0.01950 0.08500
C 	C 	0.00430 0.27420 0.95120 0.05900
H 	H 	0.04940 0.29150 0.96670 0.03200
C 	C 	0.77910 0.25530 0.00020 -0.02600
C 	C 	0.43940 0.27430 0.88490 0.10100
H 	H 	0.47010 0.25950 0.85280 0.00300
C 	C 	0.34000 0.29220 0.94970 0.09800
H 	H 	0.28920 0.29370 0.97300 0.01300
C 	C 	0.41490 0.35120 0.00430 0.00100
H 	H 	0.46360 0.34740 0.04230 0.05800
H 	H 	0.36310 0.35470 0.02970 0.05500
C 	C 	0.43010 0.38780 0.96150 -0.13000
C 	C 	0.36420 0.40420 0.91520 0.21200
C 	C 	0.37130 0.43990 0.87600 -0.19800
C 	C 	0.45370 0.45700 0.88340 0.10300
H 	H 	0.46240 0.47970 0.85590 -0.02000
C 	C 	0.52230 0.44210 0.92910 -0.19300
C 	C 	0.50860 0.40700 0.96650 0.20400
C 	C 	0.61090 0.46050 0.93520 0.28400
H 	H 	0.64020 0.45330 0.98430 -0.03900
C 	C 	0.63580 0.36690 0.97970 0.19100
H 	H 	0.60740 0.35590 0.93360 0.00300
H 	H 	0.65490 0.34520 0.01260 -0.00000
C 	C 	0.66300 0.44140 0.87590 -0.18000
C 	C 	0.66310 0.45740 0.80630 0.10800
H 	H 	0.63440 0.48120 0.79540 -0.02000
C 	C 	0.70500 0.43890 0.75170 -0.18900
C 	C 	0.74660 0.40370 0.76860 0.22000
C 	C 	0.74930 0.38710 0.83820 -0.11800
C 	C 	0.70590 0.40660 0.89250 0.20500
C 	C 	0.29770 0.45690 0.82760 0.31000
H 	H 	0.24490 0.44770 0.84790 -0.04100
C 	C 	0.73810 0.36370 0.65950 0.22300
H 	H 	0.68510 0.35510 0.67910 -0.01200
H 	H 	0.76970 0.34020 0.64730 -0.00200
N 	N 	0.40480 0.31690 0.95910 -0.09200
N 	N 	0.47060 0.30620 0.91810 -0.08700
N 	N 	0.35860 0.26450 0.90110 -0.22900
O 	O 	0.29900 0.16590 0.78650 -0.30800
O 	O 	0.28600 0.16640 0.90400 0.06500
O 	O 	0.16080 0.26550 0.89110 -0.36600
O 	O 	0.11660 0.21130 0.83410 -0.39800
O 	O 	0.28480 0.38510 0.90720 -0.25100
O 	O 	0.57610 0.39062 0.01410 -0.25000
O 	O 	0.71070 0.38998 0.96340 -0.24600
O 	O 	0.78860 0.38440 0.71560 -0.25600
Cd	Cd	0.26247 0.22121 0.83810 1.23200
C 	C 	0.80110 0.35040 0.85840 -0.01000
H 	H 	0.85850 0.35300 0.84150 0.05400
H 	H 	0.80840 0.34740 0.91230 0.05900
C 	C 	0.66560 0.27200 0.79860 0.10600
H 	H 	0.61440 0.25750 0.79720 -0.00400
C 	C 	0.79080 0.28910 0.77980 0.09000
H 	H 	0.84590 0.28980 0.76350 0.00400
N 	N 	0.75910 0.31590 0.82500 -0.08800
N 	N 	0.67880 0.30510 0.83770 -0.08800
N 	N 	0.73140 0.26170 0.76210 -0.24400
C 	C 	0.40800 0.98670 0.91700 -0.02600
C 	C 	0.41600 0.96350 0.97800 -0.03100
C 	C 	0.47300 0.92730 0.97790 0.08700
C 	C 	0.55490 0.91840 0.95730 -0.13900
H 	H 	0.57650 0.93200 0.91840 0.09000
C 	C 	0.57250 0.86850 0.05320 -0.08900
C 	C 	0.49060 0.87750 0.07370 0.03500
H 	H 	0.46900 0.86380 0.11270 0.03700
C 	C 	0.44080 0.90680 0.03610 -0.12300
H 	H 	0.38590 0.91280 0.04990 0.08500
C 	C 	0.60470 0.88900 0.99500 0.08600
C 	C 	0.29400 0.50160 0.82960 -0.80700
H 	H 	0.24460 0.51060 0.79720 0.27000
H 	H 	0.34620 0.51230 0.81300 0.26700
H 	H 	0.28880 0.51020 0.87980 0.27200
C 	C 	0.62350 0.83480 0.09050 0.25000
O 	O 	0.59890 0.81800 0.14580 -0.30300
C 	C 	0.60930 0.50590 0.93120 -0.78400
H 	H 	0.66780 0.51570 0.93480 0.26600
H 	H 	0.58040 0.51610 0.97180 0.26400
H 	H 	0.57860 0.51400 0.88460 0.26100
O 	O 	0.70600 0.82860 0.07070 -0.39900
C 	C 	0.80500 0.64510 0.84800 0.09600
C 	C 	0.83190 0.60670 0.88300 -0.02800
C 	C 	0.82280 0.59090 0.95310 0.04000
C 	C 	0.84200 0.55140 0.96750 -0.11400
H 	H 	0.83590 0.54090 0.01450 0.07100
C 	C 	0.87020 0.52770 0.91180 0.05600
C 	C 	0.87900 0.54340 0.84170 -0.09700
H 	H 	0.89810 0.52760 0.80440 0.06000
C 	C 	0.86010 0.58290 0.82730 -0.01600
H 	H 	0.86620 0.59350 0.78040 0.05100
C 	C 	0.60270 0.74120 0.87060 0.33400
C 	C 	0.51550 0.74650 0.89790 -0.11900
C 	C 	0.45080 0.72290 0.87360 0.05800
H 	H 	0.45870 0.70440 0.83670 0.03100
C 	C 	0.37040 0.72530 0.90270 -0.13100
H 	H 	0.32480 0.70910 0.88350 0.08100
C 	C 	0.35790 0.75140 0.95980 0.08900
C 	C 	0.42560 0.77670 0.98280 -0.13200
H 	H 	0.41880 0.79550 0.01950 0.08600
C 	C 	0.50430 0.77420 0.95120 0.06000
H 	H 	0.54940 0.79150 0.96670 0.03200
C 	C 	0.27910 0.75530 0.00020 -0.01600
C 	C 	0.93940 0.77430 0.88490 0.10100
H 	H 	0.97010 0.75950 0.85280 0.00300
C 	C 	0.84000 0.79220 0.94970 0.09800
H 	H 	0.78920 0.79370 0.97300 0.01400
C 	C 	0.91490 0.85120 0.00430 -0.00300
H 	H 	0.96360 0.84740 0.04230 0.05900
H 	H 	0.86310 0.85470 0.02970 0.05600
C 	C 	0.93010 0.88780 0.96150 -0.12600
C 	C 	0.86420 0.90420 0.91520 0.21100
C 	C 	0.87130 0.93990 0.87600 -0.19800
C 	C 	0.95370 0.95700 0.88340 0.10300
H 	H 	0.96240 0.97970 0.85590 -0.02000
C 	C 	0.02230 0.94210 0.92910 -0.19300
C 	C 	0.00860 0.90700 0.96650 0.20000
C 	C 	0.11090 0.96050 0.93520 0.28300
H 	H 	0.14020 0.95330 0.98430 -0.03900
C 	C 	0.13580 0.86690 0.97970 0.18500
H 	H 	0.10740 0.85590 0.93360 0.00500
H 	H 	0.15490 0.84520 0.01260 0.00200
C 	C 	0.16300 0.94140 0.87590 -0.17900
C 	C 	0.16310 0.95740 0.80630 0.10800
H 	H 	0.13440 0.98120 0.79540 -0.02000
C 	C 	0.20500 0.93890 0.75170 -0.18900
C 	C 	0.24660 0.90370 0.76860 0.22000
C 	C 	0.24930 0.88710 0.83820 -0.11800
C 	C 	0.20590 0.90660 0.89250 0.20400
C 	C 	0.79770 0.95690 0.82760 0.30900
H 	H 	0.74490 0.94770 0.84790 -0.04100
C 	C 	0.23810 0.86370 0.65950 0.22300
H 	H 	0.18510 0.85510 0.67910 -0.01200
H 	H 	0.26970 0.84020 0.64730 -0.00200
N 	N 	0.90480 0.81690 0.95910 -0.09100
N 	N 	0.97060 0.80620 0.91810 -0.08700
N 	N 	0.85860 0.76450 0.90110 -0.22900
O 	O 	0.79900 0.66590 0.78650 -0.30800
O 	O 	0.78600 0.66640 0.90400 0.06600
O 	O 	0.66080 0.76550 0.89110 -0.36600
O 	O 	0.61660 0.71130 0.83410 -0.39700
O 	O 	0.78480 0.88510 0.90720 -0.25000
O 	O 	0.07610 0.89062 0.01410 -0.24700
O 	O 	0.21070 0.88998 0.96340 -0.24500
O 	O 	0.28860 0.88440 0.71560 -0.25600
Cd	Cd	0.76247 0.72121 0.83810 1.23200
C 	C 	0.30110 0.85040 0.85840 -0.00900
H 	H 	0.35850 0.85300 0.84150 0.05400
H 	H 	0.30840 0.84740 0.91230 0.05800
C 	C 	0.16560 0.77200 0.79860 0.10600
H 	H 	0.11440 0.75750 0.79720 -0.00400
C 	C 	0.29080 0.78910 0.77980 0.09000
H 	H 	0.34590 0.78980 0.76350 0.00400
N 	N 	0.25910 0.81590 0.82500 -0.08800
N 	N 	0.17880 0.80510 0.83770 -0.08800
N 	N 	0.23140 0.76170 0.76210 -0.24400
C 	C 	0.90800 0.48670 0.91700 -0.02500
C 	C 	0.91600 0.46350 0.97800 -0.03100
C 	C 	0.97300 0.42730 0.97790 0.09000
C 	C 	0.05490 0.41840 0.95730 -0.14100
H 	H 	0.07650 0.43200 0.91840 0.09000
C 	C 	0.07250 0.36850 0.05320 -0.08700
C 	C 	0.99060 0.37750 0.07370 0.03400
H 	H 	0.96900 0.36380 0.11270 0.03700
C 	C 	0.94080 0.40680 0.03610 -0.12600
H 	H 	0.88590 0.41280 0.04990 0.08500
C 	C 	0.10470 0.38900 0.99500 0.08500
C 	C 	0.79400 0.00160 0.82960 -0.80700
H 	H 	0.74460 0.01060 0.79720 0.27100
H 	H 	0.84620 0.01230 0.81300 0.26700
H 	H 	0.78880 0.01020 0.87980 0.27200
C 	C 	0.12350 0.33480 0.09050 0.25000
O 	O 	0.09890 0.31800 0.14580 -0.30300
C 	C 	0.10930 0.00590 0.93120 -0.78300
H 	H 	0.16780 0.01570 0.93480 0.26600
H 	H 	0.08040 0.01610 0.97180 0.26300
H 	H 	0.07860 0.01400 0.88460 0.26000
O 	O 	0.20600 0.32860 0.07070 -0.39900
C 	C 	0.30500 0.85490 0.34800 0.09600
C 	C 	0.33190 0.89330 0.38300 -0.02800
C 	C 	0.32280 0.90910 0.45310 0.04000
C 	C 	0.34200 0.94860 0.46750 -0.11600
H 	H 	0.33590 0.95910 0.51450 0.07200
C 	C 	0.37020 0.97230 0.41180 0.05700
C 	C 	0.37900 0.95660 0.34170 -0.09700
H 	H 	0.39810 0.97240 0.30440 0.06000
C 	C 	0.36010 0.91710 0.32730 -0.01500
H 	H 	0.36620 0.90650 0.28040 0.05000
C 	C 	0.10270 0.75880 0.37060 0.33400
C 	C 	0.01550 0.75350 0.39790 -0.11900
C 	C 	0.95080 0.77710 0.37360 0.05900
H 	H 	0.95870 0.79560 0.33670 0.03000
C 	C 	0.87040 0.77470 0.40270 -0.13300
H 	H 	0.82480 0.79090 0.38350 0.08200
C 	C 	0.85790 0.74860 0.45980 0.09200
C 	C 	0.92560 0.72330 0.48280 -0.13300
H 	H 	0.91880 0.70450 0.51950 0.08700
C 	C 	0.00430 0.72580 0.45120 0.06100
H 	H 	0.04940 0.70850 0.46670 0.03200
C 	C 	0.77910 0.74470 0.50020 -0.02100
C 	C 	0.43940 0.72570 0.38490 0.10100
H 	H 	0.47010 0.74050 0.35280 0.00300
C 	C 	0.34000 0.70780 0.44970 0.09800
H 	H 	0.28920 0.70630 0.47300 0.01300
C 	C 	0.41490 0.64880 0.50430 0.00000
H 	H 	0.46360 0.65260 0.54230 0.05800
H 	H 	0.36310 0.64530 0.52970 0.05500
C 	C 	0.43010 0.61220 0.46150 -0.13000
C 	C 	0.36420 0.59580 0.41520 0.21200
C 	C 	0.37130 0.56010 0.37600 -0.19800
C 	C 	0.45370 0.54300 0.38340 0.10300
H 	H 	0.46240 0.52030 0.35590 -0.02000
C 	C 	0.52230 0.55790 0.42910 -0.19300
C 	C 	0.50860 0.59300 0.46650 0.20300
C 	C 	0.61090 0.53950 0.43520 0.28400
H 	H 	0.64020 0.54670 0.48430 -0.03900
C 	C 	0.63580 0.63310 0.47970 0.19000
H 	H 	0.60740 0.64410 0.43360 0.00400
H 	H 	0.65490 0.65480 0.51260 0.00000
C 	C 	0.66300 0.55860 0.37590 -0.18000
C 	C 	0.66310 0.54260 0.30630 0.10800
H 	H 	0.63440 0.51880 0.29540 -0.02000
C 	C 	0.70500 0.56110 0.25170 -0.18900
C 	C 	0.74660 0.59630 0.26860 0.22000
C 	C 	0.74930 0.61290 0.33820 -0.11800
C 	C 	0.70590 0.59340 0.39250 0.20500
C 	C 	0.29770 0.54310 0.32760 0.31000
H 	H 	0.24490 0.55230 0.34790 -0.04100
C 	C 	0.73810 0.63630 0.15950 0.22300
H 	H 	0.68510 0.64490 0.17910 -0.01200
H 	H 	0.76970 0.65980 0.14730 -0.00300
N 	N 	0.40480 0.68310 0.45910 -0.09200
N 	N 	0.47060 0.69380 0.41810 -0.08700
N 	N 	0.35860 0.73550 0.40110 -0.22900
O 	O 	0.29900 0.83410 0.28650 -0.30800
O 	O 	0.28600 0.83360 0.40400 0.06500
O 	O 	0.16080 0.73450 0.39110 -0.36600
O 	O 	0.11660 0.78870 0.33410 -0.39700
O 	O 	0.28480 0.61490 0.40720 -0.25000
O 	O 	0.57610 0.60938 0.51410 -0.25000
O 	O 	0.71070 0.61002 0.46340 -0.24600
O 	O 	0.78860 0.61560 0.21560 -0.25600
Cd	Cd	0.26247 0.77879 0.33810 1.23200
C 	C 	0.80110 0.64960 0.35840 -0.00900
H 	H 	0.85850 0.64700 0.34150 0.05400
H 	H 	0.80840 0.65260 0.41230 0.05800
C 	C 	0.66560 0.72800 0.29860 0.10600
H 	H 	0.61440 0.74250 0.29720 -0.00400
C 	C 	0.79080 0.71090 0.27980 0.09000
H 	H 	0.84590 0.71020 0.26350 0.00400
N 	N 	0.75910 0.68410 0.32500 -0.08800
N 	N 	0.67880 0.69490 0.33770 -0.08800
N 	N 	0.73140 0.73830 0.26210 -0.24400
C 	C 	0.40800 0.01330 0.41700 -0.02600
C 	C 	0.41600 0.03650 0.47800 -0.03100
C 	C 	0.47300 0.07270 0.47790 0.08800
C 	C 	0.55490 0.08160 0.45730 -0.13900
H 	H 	0.57650 0.06800 0.41840 0.09000
C 	C 	0.57250 0.13150 0.55320 -0.08900
C 	C 	0.49060 0.12250 0.57370 0.03500
H 	H 	0.46900 0.13620 0.61270 0.03700
C 	C 	0.44080 0.09320 0.53610 -0.12400
H 	H 	0.38590 0.08720 0.54990 0.08500
C 	C 	0.60470 0.11100 0.49500 0.08600
C 	C 	0.29400 0.49840 0.32960 -0.80700
H 	H 	0.24460 0.48940 0.29720 0.27100
H 	H 	0.34620 0.48770 0.31300 0.26700
H 	H 	0.28880 0.48980 0.37980 0.27200
C 	C 	0.62350 0.16520 0.59050 0.25000
O 	O 	0.59890 0.18200 0.64580 -0.30300
C 	C 	0.60930 0.49410 0.43120 -0.78400
H 	H 	0.66780 0.48430 0.43480 0.26600
H 	H 	0.58040 0.48390 0.47180 0.26400
H 	H 	0.57860 0.48600 0.38460 0.26100
O 	O 	0.70600 0.17140 0.57070 -0.39900
C 	C 	0.80500 0.35490 0.34800 0.09600
C 	C 	0.83190 0.39330 0.38300 -0.02800
C 	C 	0.82280 0.40910 0.45310 0.04000
C 	C 	0.84200 0.44860 0.46750 -0.11600
H 	H 	0.83590 0.45910 0.51450 0.07200
C 	C 	0.87020 0.47230 0.41180 0.05700
C 	C 	0.87900 0.45660 0.34170 -0.09700
H 	H 	0.89810 0.47240 0.30440 0.06000
C 	C 	0.86010 0.41710 0.32730 -0.01600
H 	H 	0.86620 0.40650 0.28040 0.05000
C 	C 	0.60270 0.25880 0.37060 0.33500
C 	C 	0.51550 0.25350 0.39790 -0.12000
C 	C 	0.45080 0.27710 0.37360 0.06000
H 	H 	0.45870 0.29560 0.33670 0.03000
C 	C 	0.37040 0.27470 0.40270 -0.13300
H 	H 	0.32480 0.29090 0.38350 0.08200
C 	C 	0.35790 0.24860 0.45980 0.09300
C 	C 	0.42560 0.22330 0.48280 -0.13300
H 	H 	0.41880 0.20450 0.51950 0.08700
C 	C 	0.50430 0.22580 0.45120 0.06100
H 	H 	0.54940 0.20850 0.46670 0.03200
C 	C 	0.27910 0.24470 0.50020 -0.02100
C 	C 	0.93940 0.22570 0.38490 0.10100
H 	H 	0.97010 0.24050 0.35280 0.00300
C 	C 	0.84000 0.20780 0.44970 0.09800
H 	H 	0.78920 0.20630 0.47300 0.01300
C 	C 	0.91490 0.14880 0.50430 0.00000
H 	H 	0.96360 0.15260 0.54230 0.05800
H 	H 	0.86310 0.14530 0.52970 0.05500
C 	C 	0.93010 0.11220 0.46150 -0.13000
C 	C 	0.86420 0.09580 0.41520 0.21200
C 	C 	0.87130 0.06010 0.37600 -0.19800
C 	C 	0.95370 0.04300 0.38340 0.10200
H 	H 	0.96240 0.02030 0.35590 -0.02000
C 	C 	0.02230 0.05790 0.42910 -0.19300
C 	C 	0.00860 0.09300 0.46650 0.20300
C 	C 	0.11090 0.03950 0.43520 0.28400
H 	H 	0.14020 0.04670 0.48430 -0.03900
C 	C 	0.13580 0.13310 0.47970 0.19000
H 	H 	0.10740 0.14410 0.43360 0.00400
H 	H 	0.15490 0.15480 0.51260 0.00000
C 	C 	0.16300 0.05860 0.37590 -0.17900
C 	C 	0.16310 0.04260 0.30630 0.10800
H 	H 	0.13440 0.01880 0.29540 -0.02000
C 	C 	0.20500 0.06110 0.25170 -0.18900
C 	C 	0.24660 0.09630 0.26860 0.22000
C 	C 	0.24930 0.11290 0.33820 -0.11800
C 	C 	0.20590 0.09340 0.39250 0.20500
C 	C 	0.79770 0.04310 0.32760 0.30900
H 	H 	0.74490 0.05230 0.34790 -0.04100
C 	C 	0.23810 0.13630 0.15950 0.22200
H 	H 	0.18510 0.14490 0.17910 -0.01200
H 	H 	0.26970 0.15980 0.14730 -0.00200
N 	N 	0.90480 0.18310 0.45910 -0.09200
N 	N 	0.97060 0.19380 0.41810 -0.08700
N 	N 	0.85860 0.23550 0.40110 -0.22900
O 	O 	0.79900 0.33410 0.28650 -0.30800
O 	O 	0.78600 0.33360 0.40400 0.06500
O 	O 	0.66080 0.23450 0.39110 -0.36600
O 	O 	0.61660 0.28870 0.33410 -0.39700
O 	O 	0.78480 0.11490 0.40720 -0.25000
O 	O 	0.07610 0.10938 0.51410 -0.25000
O 	O 	0.21070 0.11002 0.46340 -0.24600
O 	O 	0.28860 0.11560 0.21560 -0.25600
Cd	Cd	0.76247 0.27879 0.33810 1.23200
C 	C 	0.30110 0.14960 0.35840 -0.00900
H 	H 	0.35850 0.14700 0.34150 0.05400
H 	H 	0.30840 0.15260 0.41230 0.05900
C 	C 	0.16560 0.22800 0.29860 0.10600
H 	H 	0.11440 0.24250 0.29720 -0.00300
C 	C 	0.29080 0.21090 0.27980 0.09000
H 	H 	0.34590 0.21020 0.26350 0.00400
N 	N 	0.25910 0.18410 0.32500 -0.08800
N 	N 	0.17880 0.19490 0.33770 -0.08800
N 	N 	0.23140 0.23830 0.26210 -0.24400
C 	C 	0.90800 0.51330 0.41700 -0.02600
C 	C 	0.91600 0.53650 0.47800 -0.03100
C 	C 	0.97300 0.57270 0.47790 0.08700
C 	C 	0.05490 0.58160 0.45730 -0.13900
H 	H 	0.07650 0.56800 0.41840 0.09000
C 	C 	0.07250 0.63150 0.55320 -0.08900
C 	C 	0.99060 0.62250 0.57370 0.03500
H 	H 	0.96900 0.63620 0.61270 0.03700
C 	C 	0.94080 0.59320 0.53610 -0.12400
H 	H 	0.88590 0.58720 0.54990 0.08500
C 	C 	0.10470 0.61100 0.49500 0.08600
C 	C 	0.79400 0.99840 0.32960 -0.80700
H 	H 	0.74460 0.98940 0.29720 0.27000
H 	H 	0.84620 0.98770 0.31300 0.26700
H 	H 	0.78880 0.98980 0.37980 0.27200
C 	C 	0.12350 0.66520 0.59050 0.25000
O 	O 	0.09890 0.68200 0.64580 -0.30400
C 	C 	0.10930 0.99410 0.43120 -0.78400
H 	H 	0.16780 0.98430 0.43480 0.26600
H 	H 	0.08040 0.98390 0.47180 0.26400
H 	H 	0.07860 0.98600 0.38460 0.26100
O 	O 	0.20600 0.67140 0.57070 -0.39900
C 	C 	0.69500 0.85490 0.15200 0.09600
C 	C 	0.66810 0.89330 0.11700 -0.02800
C 	C 	0.67720 0.90910 0.04690 0.04000
C 	C 	0.65800 0.94860 0.03250 -0.11700
H 	H 	0.66410 0.95910 0.98550 0.07200
C 	C 	0.62980 0.97230 0.08820 0.05800
C 	C 	0.62100 0.95660 0.15830 -0.09700
H 	H 	0.60190 0.97240 0.19560 0.06000
C 	C 	0.63990 0.91710 0.17270 -0.01500
H 	H 	0.63380 0.90650 0.21960 0.05000
C 	C 	0.89730 0.75880 0.12940 0.33500
C 	C 	0.98450 0.75350 0.10210 -0.12100
C 	C 	0.04920 0.77710 0.12640 0.06200
H 	H 	0.04130 0.79560 0.16330 0.03000
C 	C 	0.12960 0.77470 0.09730 -0.13500
H 	H 	0.17520 0.79090 0.11650 0.08300
C 	C 	0.14210 0.74860 0.04020 0.09400
C 	C 	0.07440 0.72330 0.01720 -0.13000
H 	H 	0.08120 0.70450 0.98050 0.08500
C 	C 	0.99570 0.72580 0.04880 0.05900
H 	H 	0.95060 0.70850 0.03330 0.03200
C 	C 	0.22090 0.74470 0.99980 -0.02600
C 	C 	0.56060 0.72570 0.11510 0.10100
H 	H 	0.52990 0.74050 0.14720 0.00300
C 	C 	0.66000 0.70780 0.05030 0.09800
H 	H 	0.71080 0.70630 0.02700 0.01300
C 	C 	0.58510 0.64880 0.99570 0.00100
H 	H 	0.53640 0.65260 0.95770 0.05800
H 	H 	0.63690 0.64530 0.97030 0.05500
C 	C 	0.56990 0.61220 0.03850 -0.13000
C 	C 	0.63580 0.59580 0.08480 0.21200
C 	C 	0.62870 0.56010 0.12400 -0.19800
C 	C 	0.54630 0.54300 0.11660 0.10300
H 	H 	0.53760 0.52030 0.14410 -0.02000
C 	C 	0.47770 0.55790 0.07090 -0.19300
C 	C 	0.49140 0.59300 0.03350 0.20400
C 	C 	0.38910 0.53950 0.06480 0.28400
H 	H 	0.35980 0.54670 0.01570 -0.03900
C 	C 	0.36420 0.63310 0.02030 0.19100
H 	H 	0.39260 0.64410 0.06640 0.00300
H 	H 	0.34510 0.65480 0.98740 -0.00000
C 	C 	0.33700 0.55860 0.12410 -0.18000
C 	C 	0.33690 0.54260 0.19370 0.10800
H 	H 	0.36560 0.51880 0.20460 -0.02000
C 	C 	0.29500 0.56110 0.24830 -0.18900
C 	C 	0.25340 0.59630 0.23140 0.22000
C 	C 	0.25070 0.61290 0.16180 -0.11800
C 	C 	0.29410 0.59340 0.10750 0.20500
C 	C 	0.70230 0.54310 0.17240 0.31000
H 	H 	0.75510 0.55230 0.15210 -0.04100
C 	C 	0.26190 0.63630 0.34050 0.22300
H 	H 	0.31490 0.64490 0.32090 -0.01200
H 	H 	0.23030 0.65980 0.35270 -0.00200
N 	N 	0.59520 0.68310 0.04090 -0.09200
N 	N 	0.52940 0.69380 0.08190 -0.08700
N 	N 	0.64140 0.73550 0.09890 -0.22900
O 	O 	0.70100 0.83410 0.21350 -0.30800
O 	O 	0.71400 0.83360 0.09600 0.06500
O 	O 	0.83920 0.73450 0.10890 -0.36600
O 	O 	0.88340 0.78870 0.16590 -0.39800
O 	O 	0.71520 0.61490 0.09280 -0.25100
O 	O 	0.42390 0.60938 0.98590 -0.25000
O 	O 	0.28930 0.61002 0.03660 -0.24600
O 	O 	0.21140 0.61560 0.28440 -0.25600
Cd	Cd	0.73753 0.77879 0.16190 1.23200
C 	C 	0.19890 0.64960 0.14160 -0.01000
H 	H 	0.14150 0.64700 0.15850 0.05400
H 	H 	0.19160 0.65260 0.08770 0.05900
C 	C 	0.33440 0.72800 0.20140 0.10600
H 	H 	0.38560 0.74250 0.20280 -0.00400
C 	C 	0.20920 0.71090 0.22020 0.09000
H 	H 	0.15410 0.71020 0.23650 0.00400
N 	N 	0.24090 0.68410 0.17500 -0.08800
N 	N 	0.32120 0.69490 0.16230 -0.08800
N 	N 	0.26860 0.73830 0.23790 -0.24400
C 	C 	0.59200 0.01330 0.08300 -0.02600
C 	C 	0.58400 0.03650 0.02200 -0.03100
C 	C 	0.52700 0.07270 0.02210 0.08700
C 	C 	0.44510 0.08160 0.04270 -0.13900
H 	H 	0.42350 0.06800 0.08160 0.09000
C 	C 	0.42750 0.13150 0.94680 -0.08900
C 	C 	0.50940 0.12250 0.92630 0.03500
H 	H 	0.53100 0.13620 0.88730 0.03700
C 	C 	0.55920 0.09320 0.96390 -0.12300
H 	H 	0.61410 0.08720 0.95010 0.08500
C 	C 	0.39530 0.11100 0.00500 0.08600
C 	C 	0.70600 0.49840 0.17040 -0.80700
H 	H 	0.75540 0.48940 0.20280 0.27000
H 	H 	0.65380 0.48770 0.18700 0.26700
H 	H 	0.71120 0.48980 0.12020 0.27200
C 	C 	0.37650 0.16520 0.90950 0.25000
O 	O 	0.40110 0.18200 0.85420 -0.30300
C 	C 	0.39070 0.49410 0.06880 -0.78400
H 	H 	0.33220 0.48430 0.06520 0.26600
H 	H 	0.41960 0.48390 0.02820 0.26400
H 	H 	0.42140 0.48600 0.11540 0.26100
O 	O 	0.29400 0.17140 0.92930 -0.39900
C 	C 	0.19500 0.35490 0.15200 0.09600
C 	C 	0.16810 0.39330 0.11700 -0.02800
C 	C 	0.17720 0.40910 0.04690 0.04000
C 	C 	0.15800 0.44860 0.03250 -0.11400
H 	H 	0.16410 0.45910 0.98550 0.07100
C 	C 	0.12980 0.47230 0.08820 0.05600
C 	C 	0.12100 0.45660 0.15830 -0.09700
H 	H 	0.10190 0.47240 0.19560 0.06000
C 	C 	0.13990 0.41710 0.17270 -0.01600
H 	H 	0.13380 0.40650 0.21960 0.05100
C 	C 	0.39730 0.25880 0.12940 0.33400
C 	C 	0.48450 0.25350 0.10210 -0.11900
C 	C 	0.54920 0.27710 0.12640 0.05800
H 	H 	0.54130 0.29560 0.16330 0.03100
C 	C 	0.62960 0.27470 0.09730 -0.13100
H 	H 	0.67520 0.29090 0.11650 0.08100
C 	C 	0.64210 0.24860 0.04020 0.08900
C 	C 	0.57440 0.22330 0.01720 -0.13200
H 	H 	0.58120 0.20450 0.98050 0.08600
C 	C 	0.49570 0.22580 0.04880 0.06000
H 	H 	0.45060 0.20850 0.03330 0.03200
C 	C 	0.72090 0.24470 0.99980 -0.01600
C 	C 	0.06060 0.22570 0.11510 0.10100
H 	H 	0.02990 0.24050 0.14720 0.00300
C 	C 	0.16000 0.20780 0.05030 0.09800
H 	H 	0.21080 0.20630 0.02700 0.01400
C 	C 	0.08510 0.14880 0.99570 -0.00300
H 	H 	0.03640 0.15260 0.95770 0.05900
H 	H 	0.13690 0.14530 0.97030 0.05600
C 	C 	0.06990 0.11220 0.03850 -0.12600
C 	C 	0.13580 0.09580 0.08480 0.21100
C 	C 	0.12870 0.06010 0.12400 -0.19800
C 	C 	0.04630 0.04300 0.11660 0.10300
H 	H 	0.03760 0.02030 0.14410 -0.02000
C 	C 	0.97770 0.05790 0.07090 -0.19300
C 	C 	0.99140 0.09300 0.03350 0.20000
C 	C 	0.88910 0.03950 0.06480 0.28300
H 	H 	0.85980 0.04670 0.01570 -0.03900
C 	C 	0.86420 0.13310 0.02030 0.18500
H 	H 	0.89260 0.14410 0.06640 0.00500
H 	H 	0.84510 0.15480 0.98740 0.00200
C 	C 	0.83700 0.05860 0.12410 -0.17900
C 	C 	0.83690 0.04260 0.19370 0.10800
H 	H 	0.86560 0.01880 0.20460 -0.02000
C 	C 	0.79500 0.06110 0.24830 -0.18900
C 	C 	0.75340 0.09630 0.23140 0.22000
C 	C 	0.75070 0.11290 0.16180 -0.11800
C 	C 	0.79410 0.09340 0.10750 0.20400
C 	C 	0.20230 0.04310 0.17240 0.30900
H 	H 	0.25510 0.05230 0.15210 -0.04100
C 	C 	0.76190 0.13630 0.34050 0.22300
H 	H 	0.81490 0.14490 0.32090 -0.01200
H 	H 	0.73030 0.15980 0.35270 -0.00200
N 	N 	0.09520 0.18310 0.04090 -0.09100
N 	N 	0.02940 0.19380 0.08190 -0.08700
N 	N 	0.14140 0.23550 0.09890 -0.22900
O 	O 	0.20100 0.33410 0.21350 -0.30800
O 	O 	0.21400 0.33360 0.09600 0.06600
O 	O 	0.33920 0.23450 0.10890 -0.36600
O 	O 	0.38340 0.28870 0.16590 -0.39700
O 	O 	0.21520 0.11490 0.09280 -0.25000
O 	O 	0.92390 0.10938 0.98590 -0.24700
O 	O 	0.78930 0.11002 0.03660 -0.24500
O 	O 	0.71140 0.11560 0.28440 -0.25600
Cd	Cd	0.23753 0.27879 0.16190 1.23200
C 	C 	0.69890 0.14960 0.14160 -0.00900
H 	H 	0.64150 0.14700 0.15850 0.05400
H 	H 	0.69160 0.15260 0.08770 0.05800
C 	C 	0.83440 0.22800 0.20140 0.10600
H 	H 	0.88560 0.24250 0.20280 -0.00400
C 	C 	0.70920 0.21090 0.22020 0.09000
H 	H 	0.65410 0.21020 0.23650 0.00400
N 	N 	0.74090 0.18410 0.17500 -0.08800
N 	N 	0.82120 0.19490 0.16230 -0.08800
N 	N 	0.76860 0.23830 0.23790 -0.24400
C 	C 	0.09200 0.51330 0.08300 -0.02500
C 	C 	0.08400 0.53650 0.02200 -0.03100
C 	C 	0.02700 0.57270 0.02210 0.09000
C 	C 	0.94510 0.58160 0.04270 -0.14100
H 	H 	0.92350 0.56800 0.08160 0.09000
C 	C 	0.92750 0.63150 0.94680 -0.08700
C 	C 	0.00940 0.62250 0.92630 0.03400
H 	H 	0.03100 0.63620 0.88730 0.03700
C 	C 	0.05920 0.59320 0.96390 -0.12600
H 	H 	0.11410 0.58720 0.95010 0.08500
C 	C 	0.89530 0.61100 0.00500 0.08500
C 	C 	0.20600 0.99840 0.17040 -0.80700
H 	H 	0.25540 0.98940 0.20280 0.27100
H 	H 	0.15380 0.98770 0.18700 0.26700
H 	H 	0.21120 0.98980 0.12020 0.27200
C 	C 	0.87650 0.66520 0.90950 0.25000
O 	O 	0.90110 0.68200 0.85420 -0.30300
C 	C 	0.89070 0.99410 0.06880 -0.78300
H 	H 	0.83220 0.98430 0.06520 0.26600
H 	H 	0.91960 0.98390 0.02820 0.26300
H 	H 	0.92140 0.98600 0.11540 0.26000
O 	O 	0.79400 0.67140 0.92930 -0.39900
