data_crystal

_cell_length_a 17.31700
_cell_length_b 25.39700
_cell_length_c 21.54000
_cell_angle_alpha 90.00000
_cell_angle_beta  94.43100
_cell_angle_gamma 90.00000

_symmetry_space_group_name_	'P 1'
_symmetry_space_group_name_H-M	'P 1'

loop_
_symmetry_equiv_pos_as_xyz
  x,y,z

loop_
_atom_site_label
_atom_site_type_symbol
_atom_site_fract_x
_atom_site_fract_y
_atom_site_fract_z
_atom_site_charge
C 	C 	0.87300 0.81030 0.56560 0.08000
H 	H 	0.82820 0.79280 0.54770 0.00500
C 	C 	0.93150 0.78120 0.59600 -0.10600
H 	H 	0.92700 0.74400 0.59860 0.09100
C 	C 	0.99460 0.80560 0.62180 0.03000
H 	H 	0.03480 0.78570 0.64320 0.04900
C 	C 	0.00090 0.85920 0.61730 -0.07200
H 	H 	0.04590 0.87670 0.63480 0.07200
C 	C 	0.94130 0.88720 0.58730 0.01400
C 	C 	0.94050 0.94560 0.58220 0.17600
C 	C 	0.86570 0.01796 0.54610 0.17600
C 	C 	0.87220 0.04640 0.49130 -0.20100
H 	H 	0.89000 0.02960 0.45570 0.11000
C 	C 	0.85240 0.09940 0.48920 0.11400
H 	H 	0.85790 0.11890 0.45220 0.00500
C 	C 	0.82500 0.12379 0.53950 -0.17500
C 	C 	0.81940 0.09570 0.59420 0.11200
H 	H 	0.80180 0.11280 0.62970 0.01700
C 	C 	0.83910 0.04300 0.59750 -0.19500
H 	H 	0.83450 0.02390 0.63500 0.10600
C 	C 	0.80410 0.18100 0.53560 0.40000
C 	C 	0.07000 0.08620 0.57220 0.07400
H 	H 	0.04970 0.05660 0.54960 0.01000
C 	C 	0.02990 0.10590 0.62040 -0.10400
H 	H 	0.98220 0.09050 0.62980 0.08300
C 	C 	0.05990 0.14770 0.65410 0.03000
H 	H 	0.03320 0.16220 0.68700 0.03300
C 	C 	0.13040 0.16850 0.63930 -0.07800
H 	H 	0.15310 0.19680 0.66300 0.07500
C 	C 	0.16690 0.14810 0.59060 0.01800
C 	C 	0.24130 0.16830 0.57140 0.16700
C 	C 	0.33920 0.15760 0.50260 0.17900
C 	C 	0.40180 0.12890 0.52470 -0.19300
H 	H 	0.39620 0.09970 0.55140 0.10600
C 	C 	0.47680 0.14420 0.50640 0.09600
H 	H 	0.52120 0.12520 0.52240 0.01900
C 	C 	0.48570 0.18490 0.46680 -0.15300
C 	C 	0.42300 0.21230 0.44570 0.10600
H 	H 	0.42840 0.24080 0.41790 0.01500
C 	C 	0.35050 0.19930 0.46410 -0.20500
H 	H 	0.30710 0.22000 0.44940 0.11100
C 	C 	0.56610 0.19990 0.44420 0.39600
C 	C 	0.74120 0.02260 0.91360 0.06500
H 	H 	0.77180 0.04130 0.88630 0.00400
C 	C 	0.69780 0.97990 0.89160 -0.11000
H 	H 	0.69900 0.96940 0.84940 0.07800
C 	C 	0.65370 0.95320 0.92990 0.02900
H 	H 	0.62520 0.92310 0.91540 0.03200
C 	C 	0.65090 0.97060 0.99070 -0.08100
H 	H 	0.61930 0.95290 0.01840 0.07800
C 	C 	0.69410 0.01340 0.01040 0.02500
C 	C 	0.69430 0.03460 0.07370 0.15900
C 	C 	0.74790 0.09990 0.14310 0.19500
C 	C 	0.68420 0.12760 0.16000 -0.20300
H 	H 	0.63800 0.12860 0.13310 0.11500
C 	C 	0.68800 0.15380 0.21640 0.11800
H 	H 	0.64430 0.17290 0.22820 0.01200
C 	C 	0.75700 0.15260 0.25680 -0.18100
C 	C 	0.81520 0.12270 0.23910 0.14400
H 	H 	0.86150 0.12050 0.26570 -0.00600
C 	C 	0.81070 0.09500 0.18430 -0.22900
H 	H 	0.85180 0.07220 0.17510 0.11100
C 	C 	0.76130 0.18190 0.31680 0.40600
Co	Co	0.80604 0.90982 0.51526 1.16700
N 	N 	0.87780 0.86285 0.56070 -0.24900
N 	N 	0.88100 0.96279 0.54730 -0.28900
N 	N 	0.13640 0.10754 0.55650 -0.24600
N 	N 	0.26290 0.14523 0.52050 -0.28700
N 	N 	0.74050 0.03795 0.97360 -0.25200
N 	N 	0.74410 0.07455 0.08370 -0.29100
O 	O 	0.99240 0.97257 0.60890 -0.22600
O 	O 	0.79930 0.20202 0.48270 -0.49200
O 	O 	0.79410 0.20535 0.58500 -0.43900
O 	O 	0.27770 0.20300 0.60210 -0.21500
O 	O 	0.56770 0.22960 0.40080 -0.35400
O 	O 	0.62170 0.18280 0.47390 -0.45000
O 	O 	0.65300 0.01470 0.11250 -0.20300
O 	O 	0.81790 0.20950 0.32980 -0.30600
O 	O 	0.70460 0.17950 0.34800 -0.45700
Zn	Zn	0.70533 0.21700 0.42708 1.24100
C 	C 	0.37300 0.31030 0.56560 0.07800
H 	H 	0.32820 0.29280 0.54770 0.00400
C 	C 	0.43150 0.28120 0.59600 -0.10600
H 	H 	0.42700 0.24400 0.59860 0.09000
C 	C 	0.49460 0.30560 0.62180 0.02800
H 	H 	0.53480 0.28570 0.64320 0.04900
C 	C 	0.50090 0.35920 0.61730 -0.07100
H 	H 	0.54590 0.37670 0.63480 0.07100
C 	C 	0.44130 0.38720 0.58730 0.01200
C 	C 	0.44050 0.44560 0.58220 0.17500
C 	C 	0.36570 0.51796 0.54610 0.17600
C 	C 	0.37220 0.54640 0.49130 -0.20100
H 	H 	0.39000 0.52960 0.45570 0.11000
C 	C 	0.35240 0.59940 0.48920 0.11400
H 	H 	0.35790 0.61890 0.45220 0.00500
C 	C 	0.32500 0.62379 0.53950 -0.17500
C 	C 	0.31940 0.59570 0.59420 0.11200
H 	H 	0.30180 0.61280 0.62970 0.01700
C 	C 	0.33910 0.54300 0.59750 -0.19500
H 	H 	0.33450 0.52390 0.63500 0.10600
C 	C 	0.30410 0.68100 0.53560 0.40000
C 	C 	0.57000 0.58620 0.57220 0.07400
H 	H 	0.54970 0.55660 0.54960 0.01000
C 	C 	0.52990 0.60590 0.62040 -0.10400
H 	H 	0.48220 0.59050 0.62980 0.08300
C 	C 	0.55990 0.64770 0.65410 0.03000
H 	H 	0.53320 0.66220 0.68700 0.03300
C 	C 	0.63040 0.66850 0.63930 -0.07800
H 	H 	0.65310 0.69680 0.66300 0.07500
C 	C 	0.66690 0.64810 0.59060 0.01800
C 	C 	0.74130 0.66830 0.57140 0.16700
C 	C 	0.83920 0.65760 0.50260 0.17900
C 	C 	0.90180 0.62890 0.52470 -0.19300
H 	H 	0.89620 0.59970 0.55140 0.10600
C 	C 	0.97680 0.64420 0.50640 0.09700
H 	H 	0.02120 0.62520 0.52240 0.01900
C 	C 	0.98570 0.68490 0.46680 -0.15300
C 	C 	0.92300 0.71230 0.44570 0.10700
H 	H 	0.92840 0.74080 0.41790 0.01400
C 	C 	0.85050 0.69930 0.46410 -0.20500
H 	H 	0.80710 0.72000 0.44940 0.11100
C 	C 	0.06610 0.69990 0.44420 0.39600
C 	C 	0.24120 0.52260 0.91360 0.06600
H 	H 	0.27180 0.54130 0.88630 0.00400
C 	C 	0.19780 0.47990 0.89160 -0.11100
H 	H 	0.19900 0.46940 0.84940 0.07900
C 	C 	0.15370 0.45320 0.92990 0.03100
H 	H 	0.12520 0.42310 0.91540 0.03100
C 	C 	0.15090 0.47060 0.99070 -0.08500
H 	H 	0.11930 0.45290 0.01840 0.07900
C 	C 	0.19410 0.51340 0.01040 0.02700
C 	C 	0.19430 0.53460 0.07370 0.15900
C 	C 	0.24790 0.59990 0.14310 0.19500
C 	C 	0.18420 0.62760 0.16000 -0.20300
H 	H 	0.13800 0.62860 0.13310 0.11500
C 	C 	0.18800 0.65380 0.21640 0.11800
H 	H 	0.14430 0.67290 0.22820 0.01200
C 	C 	0.25700 0.65260 0.25680 -0.18100
C 	C 	0.31520 0.62270 0.23910 0.14400
H 	H 	0.36150 0.62050 0.26570 -0.00600
C 	C 	0.31070 0.59500 0.18430 -0.22900
H 	H 	0.35180 0.57220 0.17510 0.11100
C 	C 	0.26130 0.68190 0.31680 0.40600
Co	Co	0.30604 0.40982 0.51526 1.16700
N 	N 	0.37780 0.36285 0.56070 -0.24900
N 	N 	0.38100 0.46279 0.54730 -0.28900
N 	N 	0.63640 0.60754 0.55650 -0.24600
N 	N 	0.76290 0.64523 0.52050 -0.28700
N 	N 	0.24050 0.53795 0.97360 -0.25300
N 	N 	0.24410 0.57455 0.08370 -0.29100
O 	O 	0.49240 0.47257 0.60890 -0.22600
O 	O 	0.29930 0.70202 0.48270 -0.49200
O 	O 	0.29410 0.70535 0.58500 -0.43900
O 	O 	0.77770 0.70300 0.60210 -0.21500
O 	O 	0.06770 0.72960 0.40080 -0.35400
O 	O 	0.12170 0.68280 0.47390 -0.45000
O 	O 	0.15300 0.51470 0.11250 -0.20200
O 	O 	0.31790 0.70950 0.32980 -0.30600
O 	O 	0.20460 0.67950 0.34800 -0.45700
Zn	Zn	0.20533 0.71700 0.42708 1.24100
C 	C 	0.12700 0.81030 0.93440 0.07700
H 	H 	0.17180 0.79280 0.95230 0.00500
C 	C 	0.06850 0.78120 0.90400 -0.10300
H 	H 	0.07300 0.74400 0.90140 0.08900
C 	C 	0.00540 0.80560 0.87820 0.02400
H 	H 	0.96520 0.78570 0.85680 0.05000
C 	C 	0.99910 0.85920 0.88270 -0.06800
H 	H 	0.95410 0.87670 0.86520 0.07000
C 	C 	0.05870 0.88720 0.91270 0.01000
C 	C 	0.05950 0.94560 0.91780 0.17600
C 	C 	0.13430 0.01796 0.95390 0.17500
C 	C 	0.12780 0.04640 0.00870 -0.20000
H 	H 	0.11000 0.02960 0.04430 0.11000
C 	C 	0.14760 0.09940 0.01080 0.11500
H 	H 	0.14210 0.11890 0.04780 0.00500
C 	C 	0.17500 0.12379 0.96050 -0.17500
C 	C 	0.18060 0.09570 0.90580 0.11200
H 	H 	0.19820 0.11280 0.87030 0.01700
C 	C 	0.16090 0.04300 0.90250 -0.19500
H 	H 	0.16550 0.02390 0.86500 0.10600
C 	C 	0.19590 0.18100 0.96440 0.39900
C 	C 	0.93000 0.08620 0.92780 0.07300
H 	H 	0.95030 0.05660 0.95040 0.01000
C 	C 	0.97010 0.10590 0.87960 -0.10200
H 	H 	0.01780 0.09050 0.87020 0.08200
C 	C 	0.94010 0.14770 0.84590 0.02900
H 	H 	0.96680 0.16220 0.81300 0.03400
C 	C 	0.86960 0.16850 0.86070 -0.07700
H 	H 	0.84690 0.19680 0.83700 0.07500
C 	C 	0.83310 0.14810 0.90940 0.01800
C 	C 	0.75870 0.16830 0.92860 0.16700
C 	C 	0.66080 0.15760 0.99740 0.18000
C 	C 	0.59820 0.12890 0.97530 -0.19300
H 	H 	0.60380 0.09970 0.94860 0.10600
C 	C 	0.52320 0.14420 0.99360 0.09700
H 	H 	0.47880 0.12520 0.97760 0.01900
C 	C 	0.51430 0.18490 0.03320 -0.15300
C 	C 	0.57700 0.21230 0.05430 0.10700
H 	H 	0.57160 0.24080 0.08210 0.01400
C 	C 	0.64950 0.19930 0.03590 -0.20500
H 	H 	0.69290 0.22000 0.05060 0.11100
C 	C 	0.43390 0.19990 0.05580 0.39600
C 	C 	0.25880 0.02260 0.58640 0.06500
H 	H 	0.22820 0.04130 0.61370 0.00400
C 	C 	0.30220 0.97990 0.60840 -0.11000
H 	H 	0.30100 0.96940 0.65060 0.07800
C 	C 	0.34630 0.95320 0.57010 0.03000
H 	H 	0.37480 0.92310 0.58460 0.03100
C 	C 	0.34910 0.97060 0.50930 -0.08300
H 	H 	0.38070 0.95290 0.48160 0.07800
C 	C 	0.30590 0.01340 0.48960 0.02500
C 	C 	0.30570 0.03460 0.42630 0.15900
C 	C 	0.25210 0.09990 0.35690 0.19500
C 	C 	0.31580 0.12760 0.34000 -0.20300
H 	H 	0.36200 0.12860 0.36690 0.11500
C 	C 	0.31200 0.15380 0.28360 0.11800
H 	H 	0.35570 0.17290 0.27180 0.01200
C 	C 	0.24300 0.15260 0.24320 -0.18100
C 	C 	0.18480 0.12270 0.26090 0.14400
H 	H 	0.13850 0.12050 0.23430 -0.00600
C 	C 	0.18930 0.09500 0.31570 -0.22900
H 	H 	0.14820 0.07220 0.32490 0.11100
C 	C 	0.23870 0.18190 0.18320 0.40600
Co	Co	0.19396 0.90982 0.98474 1.16700
N 	N 	0.12220 0.86285 0.93930 -0.24800
N 	N 	0.11900 0.96279 0.95270 -0.28900
N 	N 	0.86360 0.10754 0.94350 -0.24500
N 	N 	0.73710 0.14523 0.97950 -0.28700
N 	N 	0.25950 0.03795 0.52640 -0.25200
N 	N 	0.25590 0.07455 0.41630 -0.29100
O 	O 	0.00760 0.97257 0.89110 -0.22600
O 	O 	0.20070 0.20202 0.01730 -0.49200
O 	O 	0.20590 0.20535 0.91500 -0.43900
O 	O 	0.72230 0.20300 0.89790 -0.21500
O 	O 	0.43230 0.22960 0.09920 -0.35400
O 	O 	0.37830 0.18280 0.02610 -0.45000
O 	O 	0.34700 0.01470 0.38750 -0.20300
O 	O 	0.18210 0.20950 0.17020 -0.30600
O 	O 	0.29540 0.17950 0.15200 -0.45700
Zn	Zn	0.29467 0.21700 0.07292 1.24100
C 	C 	0.62700 0.31030 0.93440 0.07800
H 	H 	0.67180 0.29280 0.95230 0.00400
C 	C 	0.56850 0.28120 0.90400 -0.10600
H 	H 	0.57300 0.24400 0.90140 0.09000
C 	C 	0.50540 0.30560 0.87820 0.02800
H 	H 	0.46520 0.28570 0.85680 0.04900
C 	C 	0.49910 0.35920 0.88270 -0.07100
H 	H 	0.45410 0.37670 0.86520 0.07100
C 	C 	0.55870 0.38720 0.91270 0.01200
C 	C 	0.55950 0.44560 0.91780 0.17500
C 	C 	0.63430 0.51796 0.95390 0.17600
C 	C 	0.62780 0.54640 0.00870 -0.20100
H 	H 	0.61000 0.52960 0.04430 0.11000
C 	C 	0.64760 0.59940 0.01080 0.11400
H 	H 	0.64210 0.61890 0.04780 0.00500
C 	C 	0.67500 0.62379 0.96050 -0.17400
C 	C 	0.68060 0.59570 0.90580 0.11200
H 	H 	0.69820 0.61280 0.87030 0.01700
C 	C 	0.66090 0.54300 0.90250 -0.19500
H 	H 	0.66550 0.52390 0.86500 0.10600
C 	C 	0.69590 0.68100 0.96440 0.40000
C 	C 	0.43000 0.58620 0.92780 0.07400
H 	H 	0.45030 0.55660 0.95040 0.01000
C 	C 	0.47010 0.60590 0.87960 -0.10400
H 	H 	0.51780 0.59050 0.87020 0.08300
C 	C 	0.44010 0.64770 0.84590 0.03000
H 	H 	0.46680 0.66220 0.81300 0.03300
C 	C 	0.36960 0.66850 0.86070 -0.07800
H 	H 	0.34690 0.69680 0.83700 0.07500
C 	C 	0.33310 0.64810 0.90940 0.01800
C 	C 	0.25870 0.66830 0.92860 0.16700
C 	C 	0.16080 0.65760 0.99740 0.17700
C 	C 	0.09820 0.62890 0.97530 -0.19000
H 	H 	0.10380 0.59970 0.94860 0.10500
C 	C 	0.02320 0.64420 0.99360 0.09200
H 	H 	0.97880 0.62520 0.97760 0.02000
C 	C 	0.01430 0.68490 0.03320 -0.14900
C 	C 	0.07700 0.71230 0.05430 0.10400
H 	H 	0.07160 0.74080 0.08210 0.01600
C 	C 	0.14950 0.69930 0.03590 -0.20200
H 	H 	0.19290 0.72000 0.05060 0.11000
C 	C 	0.93390 0.69990 0.05580 0.39500
C 	C 	0.75880 0.52260 0.58640 0.06500
H 	H 	0.72820 0.54130 0.61370 0.00400
C 	C 	0.80220 0.47990 0.60840 -0.11000
H 	H 	0.80100 0.46940 0.65060 0.07800
C 	C 	0.84630 0.45320 0.57010 0.03000
H 	H 	0.87480 0.42310 0.58460 0.03100
C 	C 	0.84910 0.47060 0.50930 -0.08300
H 	H 	0.88070 0.45290 0.48160 0.07800
C 	C 	0.80590 0.51340 0.48960 0.02500
C 	C 	0.80570 0.53460 0.42630 0.15900
C 	C 	0.75210 0.59990 0.35690 0.19500
C 	C 	0.81580 0.62760 0.34000 -0.20300
H 	H 	0.86200 0.62860 0.36690 0.11500
C 	C 	0.81200 0.65380 0.28360 0.11800
H 	H 	0.85570 0.67290 0.27180 0.01200
C 	C 	0.74300 0.65260 0.24320 -0.18100
C 	C 	0.68480 0.62270 0.26090 0.14400
H 	H 	0.63850 0.62050 0.23430 -0.00600
C 	C 	0.68930 0.59500 0.31570 -0.22900
H 	H 	0.64820 0.57220 0.32490 0.11100
C 	C 	0.73870 0.68190 0.18320 0.40600
Co	Co	0.69396 0.40982 0.98474 1.16800
N 	N 	0.62220 0.36285 0.93930 -0.24900
N 	N 	0.61900 0.46279 0.95270 -0.28900
N 	N 	0.36360 0.60754 0.94350 -0.24600
N 	N 	0.23710 0.64523 0.97950 -0.28600
N 	N 	0.75950 0.53795 0.52640 -0.25200
N 	N 	0.75590 0.57455 0.41630 -0.29100
O 	O 	0.50760 0.47257 0.89110 -0.22600
O 	O 	0.70070 0.70202 0.01730 -0.49200
O 	O 	0.70590 0.70535 0.91500 -0.43900
O 	O 	0.22230 0.70300 0.89790 -0.21500
O 	O 	0.93230 0.72960 0.09920 -0.35300
O 	O 	0.87830 0.68280 0.02610 -0.45000
O 	O 	0.84700 0.51470 0.38750 -0.20300
O 	O 	0.68210 0.70950 0.17020 -0.30600
O 	O 	0.79540 0.67950 0.15200 -0.45700
Zn	Zn	0.79467 0.71700 0.07292 1.24100
C 	C 	0.12700 0.18970 0.43440 0.07900
H 	H 	0.17180 0.20720 0.45230 0.00400
C 	C 	0.06850 0.21880 0.40400 -0.10700
H 	H 	0.07300 0.25600 0.40140 0.09000
C 	C 	0.00540 0.19440 0.37820 0.02900
H 	H 	0.96520 0.21430 0.35680 0.04800
C 	C 	0.99910 0.14080 0.38270 -0.07300
H 	H 	0.95410 0.12330 0.36520 0.07100
C 	C 	0.05870 0.11280 0.41270 0.01300
C 	C 	0.05950 0.05440 0.41780 0.17500
C 	C 	0.13430 0.98204 0.45390 0.17600
C 	C 	0.12780 0.95360 0.50870 -0.20100
H 	H 	0.11000 0.97040 0.54430 0.11000
C 	C 	0.14760 0.90060 0.51080 0.11400
H 	H 	0.14210 0.88110 0.54780 0.00500
C 	C 	0.17500 0.87621 0.46050 -0.17500
C 	C 	0.18060 0.90430 0.40580 0.11200
H 	H 	0.19820 0.88720 0.37030 0.01700
C 	C 	0.16090 0.95700 0.40250 -0.19500
H 	H 	0.16550 0.97610 0.36500 0.10600
C 	C 	0.19590 0.81900 0.46440 0.40000
C 	C 	0.93000 0.91380 0.42780 0.07400
H 	H 	0.95030 0.94340 0.45040 0.01000
C 	C 	0.97010 0.89410 0.37960 -0.10400
H 	H 	0.01780 0.90950 0.37020 0.08300
C 	C 	0.94010 0.85230 0.34590 0.03000
H 	H 	0.96680 0.83780 0.31300 0.03300
C 	C 	0.86960 0.83150 0.36070 -0.07800
H 	H 	0.84690 0.80320 0.33700 0.07500
C 	C 	0.83310 0.85190 0.40940 0.01800
C 	C 	0.75870 0.83170 0.42860 0.16700
C 	C 	0.66080 0.84240 0.49740 0.17900
C 	C 	0.59820 0.87110 0.47530 -0.19300
H 	H 	0.60380 0.90030 0.44860 0.10600
C 	C 	0.52320 0.85580 0.49360 0.09600
H 	H 	0.47880 0.87480 0.47760 0.01900
C 	C 	0.51430 0.81510 0.53320 -0.15300
C 	C 	0.57700 0.78770 0.55430 0.10600
H 	H 	0.57160 0.75920 0.58210 0.01500
C 	C 	0.64950 0.80070 0.53590 -0.20500
H 	H 	0.69290 0.78000 0.55060 0.11100
C 	C 	0.43390 0.80010 0.55580 0.39600
C 	C 	0.25880 0.97740 0.08640 0.06500
H 	H 	0.22820 0.95870 0.11370 0.00400
C 	C 	0.30220 0.02010 0.10840 -0.11000
H 	H 	0.30100 0.03060 0.15060 0.07800
C 	C 	0.34630 0.04680 0.07010 0.02900
H 	H 	0.37480 0.07690 0.08460 0.03200
C 	C 	0.34910 0.02940 0.00930 -0.08100
H 	H 	0.38070 0.04710 0.98160 0.07800
C 	C 	0.30590 0.98660 0.98960 0.02500
C 	C 	0.30570 0.96540 0.92630 0.15900
C 	C 	0.25210 0.90010 0.85690 0.19500
C 	C 	0.31580 0.87240 0.84000 -0.20300
H 	H 	0.36200 0.87140 0.86690 0.11500
C 	C 	0.31200 0.84620 0.78360 0.11800
H 	H 	0.35570 0.82710 0.77180 0.01200
C 	C 	0.24300 0.84740 0.74320 -0.18100
C 	C 	0.18480 0.87730 0.76090 0.14400
H 	H 	0.13850 0.87950 0.73430 -0.00600
C 	C 	0.18930 0.90500 0.81570 -0.22900
H 	H 	0.14820 0.92780 0.82490 0.11100
C 	C 	0.23870 0.81810 0.68320 0.40600
Co	Co	0.19396 0.09018 0.48474 1.16700
N 	N 	0.12220 0.13715 0.43930 -0.24900
N 	N 	0.11900 0.03721 0.45270 -0.28900
N 	N 	0.86360 0.89246 0.44350 -0.24600
N 	N 	0.73710 0.85477 0.47950 -0.28700
N 	N 	0.25950 0.96205 0.02640 -0.25200
N 	N 	0.25590 0.92545 0.91630 -0.29100
O 	O 	0.00760 0.02743 0.39110 -0.22600
O 	O 	0.20070 0.79798 0.51730 -0.49200
O 	O 	0.20590 0.79465 0.41500 -0.43900
O 	O 	0.72230 0.79700 0.39790 -0.21500
O 	O 	0.43230 0.77040 0.59920 -0.35400
O 	O 	0.37830 0.81720 0.52610 -0.45000
O 	O 	0.34700 0.98530 0.88750 -0.20300
O 	O 	0.18210 0.79050 0.67020 -0.30600
O 	O 	0.29540 0.82050 0.65200 -0.45700
Zn	Zn	0.29467 0.78300 0.57292 1.24100
C 	C 	0.62700 0.68970 0.43440 0.07800
H 	H 	0.67180 0.70720 0.45230 0.00400
C 	C 	0.56850 0.71880 0.40400 -0.10600
H 	H 	0.57300 0.75600 0.40140 0.09000
C 	C 	0.50540 0.69440 0.37820 0.02800
H 	H 	0.46520 0.71430 0.35680 0.04900
C 	C 	0.49910 0.64080 0.38270 -0.07100
H 	H 	0.45410 0.62330 0.36520 0.07100
C 	C 	0.55870 0.61280 0.41270 0.01200
C 	C 	0.55950 0.55440 0.41780 0.17500
C 	C 	0.63430 0.48204 0.45390 0.17600
C 	C 	0.62780 0.45360 0.50870 -0.20100
H 	H 	0.61000 0.47040 0.54430 0.11000
C 	C 	0.64760 0.40060 0.51080 0.11400
H 	H 	0.64210 0.38110 0.54780 0.00500
C 	C 	0.67500 0.37621 0.46050 -0.17500
C 	C 	0.68060 0.40430 0.40580 0.11200
H 	H 	0.69820 0.38720 0.37030 0.01700
C 	C 	0.66090 0.45700 0.40250 -0.19500
H 	H 	0.66550 0.47610 0.36500 0.10600
C 	C 	0.69590 0.31900 0.46440 0.40000
C 	C 	0.43000 0.41380 0.42780 0.07400
H 	H 	0.45030 0.44340 0.45040 0.01000
C 	C 	0.47010 0.39410 0.37960 -0.10400
H 	H 	0.51780 0.40950 0.37020 0.08300
C 	C 	0.44010 0.35230 0.34590 0.03000
H 	H 	0.46680 0.33780 0.31300 0.03300
C 	C 	0.36960 0.33150 0.36070 -0.07800
H 	H 	0.34690 0.30320 0.33700 0.07500
C 	C 	0.33310 0.35190 0.40940 0.01800
C 	C 	0.25870 0.33170 0.42860 0.16700
C 	C 	0.16080 0.34240 0.49740 0.17900
C 	C 	0.09820 0.37110 0.47530 -0.19300
H 	H 	0.10380 0.40030 0.44860 0.10600
C 	C 	0.02320 0.35580 0.49360 0.09700
H 	H 	0.97880 0.37480 0.47760 0.01900
C 	C 	0.01430 0.31510 0.53320 -0.15300
C 	C 	0.07700 0.28770 0.55430 0.10700
H 	H 	0.07160 0.25920 0.58210 0.01400
C 	C 	0.14950 0.30070 0.53590 -0.20500
H 	H 	0.19290 0.28000 0.55060 0.11100
C 	C 	0.93390 0.30010 0.55580 0.39600
C 	C 	0.75880 0.47740 0.08640 0.06600
H 	H 	0.72820 0.45870 0.11370 0.00400
C 	C 	0.80220 0.52010 0.10840 -0.11100
H 	H 	0.80100 0.53060 0.15060 0.07900
C 	C 	0.84630 0.54680 0.07010 0.03100
H 	H 	0.87480 0.57690 0.08460 0.03100
C 	C 	0.84910 0.52940 0.00930 -0.08500
H 	H 	0.88070 0.54710 0.98160 0.07900
C 	C 	0.80590 0.48660 0.98960 0.02700
C 	C 	0.80570 0.46540 0.92630 0.15900
C 	C 	0.75210 0.40010 0.85690 0.19500
C 	C 	0.81580 0.37240 0.84000 -0.20300
H 	H 	0.86200 0.37140 0.86690 0.11500
C 	C 	0.81200 0.34620 0.78360 0.11800
H 	H 	0.85570 0.32710 0.77180 0.01200
C 	C 	0.74300 0.34740 0.74320 -0.18100
C 	C 	0.68480 0.37730 0.76090 0.14400
H 	H 	0.63850 0.37950 0.73430 -0.00600
C 	C 	0.68930 0.40500 0.81570 -0.22900
H 	H 	0.64820 0.42780 0.82490 0.11100
C 	C 	0.73870 0.31810 0.68320 0.40600
Co	Co	0.69396 0.59018 0.48474 1.16700
N 	N 	0.62220 0.63715 0.43930 -0.24900
N 	N 	0.61900 0.53721 0.45270 -0.28900
N 	N 	0.36360 0.39246 0.44350 -0.24600
N 	N 	0.23710 0.35477 0.47950 -0.28700
N 	N 	0.75950 0.46205 0.02640 -0.25300
N 	N 	0.75590 0.42545 0.91630 -0.29100
O 	O 	0.50760 0.52743 0.39110 -0.22600
O 	O 	0.70070 0.29798 0.51730 -0.49200
O 	O 	0.70590 0.29465 0.41500 -0.43900
O 	O 	0.22230 0.29700 0.39790 -0.21500
O 	O 	0.93230 0.27040 0.59920 -0.35400
O 	O 	0.87830 0.31720 0.52610 -0.45000
O 	O 	0.84700 0.48530 0.88750 -0.20200
O 	O 	0.68210 0.29050 0.67020 -0.30600
O 	O 	0.79540 0.32050 0.65200 -0.45700
Zn	Zn	0.79467 0.28300 0.57292 1.24100
C 	C 	0.87300 0.18970 0.06560 0.07700
H 	H 	0.82820 0.20720 0.04770 0.00500
C 	C 	0.93150 0.21880 0.09600 -0.10300
H 	H 	0.92700 0.25600 0.09860 0.08900
C 	C 	0.99460 0.19440 0.12180 0.02400
H 	H 	0.03480 0.21430 0.14320 0.05000
C 	C 	0.00090 0.14080 0.11730 -0.06800
H 	H 	0.04590 0.12330 0.13480 0.07000
C 	C 	0.94130 0.11280 0.08730 0.01000
C 	C 	0.94050 0.05440 0.08220 0.17600
C 	C 	0.86570 0.98204 0.04610 0.17500
C 	C 	0.87220 0.95360 0.99130 -0.20000
H 	H 	0.89000 0.97040 0.95570 0.11000
C 	C 	0.85240 0.90060 0.98920 0.11500
H 	H 	0.85790 0.88110 0.95220 0.00500
C 	C 	0.82500 0.87621 0.03950 -0.17500
C 	C 	0.81940 0.90430 0.09420 0.11200
H 	H 	0.80180 0.88720 0.12970 0.01700
C 	C 	0.83910 0.95700 0.09750 -0.19500
H 	H 	0.83450 0.97610 0.13500 0.10600
C 	C 	0.80410 0.81900 0.03560 0.39900
C 	C 	0.07000 0.91380 0.07220 0.07300
H 	H 	0.04970 0.94340 0.04960 0.01000
C 	C 	0.02990 0.89410 0.12040 -0.10200
H 	H 	0.98220 0.90950 0.12980 0.08200
C 	C 	0.05990 0.85230 0.15410 0.02900
H 	H 	0.03320 0.83780 0.18700 0.03400
C 	C 	0.13040 0.83150 0.13930 -0.07700
H 	H 	0.15310 0.80320 0.16300 0.07500
C 	C 	0.16690 0.85190 0.09060 0.01800
C 	C 	0.24130 0.83170 0.07140 0.16700
C 	C 	0.33920 0.84240 0.00260 0.18000
C 	C 	0.40180 0.87110 0.02470 -0.19300
H 	H 	0.39620 0.90030 0.05140 0.10600
C 	C 	0.47680 0.85580 0.00640 0.09700
H 	H 	0.52120 0.87480 0.02240 0.01900
C 	C 	0.48570 0.81510 0.96680 -0.15300
C 	C 	0.42300 0.78770 0.94570 0.10700
H 	H 	0.42840 0.75920 0.91790 0.01400
C 	C 	0.35050 0.80070 0.96410 -0.20500
H 	H 	0.30710 0.78000 0.94940 0.11100
C 	C 	0.56610 0.80010 0.94420 0.39600
C 	C 	0.74120 0.97740 0.41360 0.06500
H 	H 	0.77180 0.95870 0.38630 0.00400
C 	C 	0.69780 0.02010 0.39160 -0.11000
H 	H 	0.69900 0.03060 0.34940 0.07800
C 	C 	0.65370 0.04680 0.42990 0.03000
H 	H 	0.62520 0.07690 0.41540 0.03100
C 	C 	0.65090 0.02940 0.49070 -0.08300
H 	H 	0.61930 0.04710 0.51840 0.07800
C 	C 	0.69410 0.98660 0.51040 0.02500
C 	C 	0.69430 0.96540 0.57370 0.15900
C 	C 	0.74790 0.90010 0.64310 0.19500
C 	C 	0.68420 0.87240 0.66000 -0.20300
H 	H 	0.63800 0.87140 0.63310 0.11500
C 	C 	0.68800 0.84620 0.71640 0.11800
H 	H 	0.64430 0.82710 0.72820 0.01200
C 	C 	0.75700 0.84740 0.75680 -0.18100
C 	C 	0.81520 0.87730 0.73910 0.14400
H 	H 	0.86150 0.87950 0.76570 -0.00600
C 	C 	0.81070 0.90500 0.68430 -0.22900
H 	H 	0.85180 0.92780 0.67510 0.11100
C 	C 	0.76130 0.81810 0.81680 0.40600
Co	Co	0.80604 0.09018 0.01526 1.16700
N 	N 	0.87780 0.13715 0.06070 -0.24800
N 	N 	0.88100 0.03721 0.04730 -0.28900
N 	N 	0.13640 0.89246 0.05650 -0.24500
N 	N 	0.26290 0.85477 0.02050 -0.28700
N 	N 	0.74050 0.96205 0.47360 -0.25200
N 	N 	0.74410 0.92545 0.58370 -0.29100
O 	O 	0.99240 0.02743 0.10890 -0.22600
O 	O 	0.79930 0.79798 0.98270 -0.49200
O 	O 	0.79410 0.79465 0.08500 -0.43900
O 	O 	0.27770 0.79700 0.10210 -0.21500
O 	O 	0.56770 0.77040 0.90080 -0.35400
O 	O 	0.62170 0.81720 0.97390 -0.45000
O 	O 	0.65300 0.98530 0.61250 -0.20300
O 	O 	0.81790 0.79050 0.82980 -0.30600
O 	O 	0.70460 0.82050 0.84800 -0.45700
Zn	Zn	0.70533 0.78300 0.92708 1.24100
C 	C 	0.37300 0.68970 0.06560 0.07800
H 	H 	0.32820 0.70720 0.04770 0.00400
C 	C 	0.43150 0.71880 0.09600 -0.10600
H 	H 	0.42700 0.75600 0.09860 0.09000
C 	C 	0.49460 0.69440 0.12180 0.02800
H 	H 	0.53480 0.71430 0.14320 0.04900
C 	C 	0.50090 0.64080 0.11730 -0.07100
H 	H 	0.54590 0.62330 0.13480 0.07100
C 	C 	0.44130 0.61280 0.08730 0.01200
C 	C 	0.44050 0.55440 0.08220 0.17500
C 	C 	0.36570 0.48204 0.04610 0.17600
C 	C 	0.37220 0.45360 0.99130 -0.20100
H 	H 	0.39000 0.47040 0.95570 0.11000
C 	C 	0.35240 0.40060 0.98920 0.11400
H 	H 	0.35790 0.38110 0.95220 0.00500
C 	C 	0.32500 0.37621 0.03950 -0.17400
C 	C 	0.31940 0.40430 0.09420 0.11200
H 	H 	0.30180 0.38720 0.12970 0.01700
C 	C 	0.33910 0.45700 0.09750 -0.19500
H 	H 	0.33450 0.47610 0.13500 0.10600
C 	C 	0.30410 0.31900 0.03560 0.40000
C 	C 	0.57000 0.41380 0.07220 0.07400
H 	H 	0.54970 0.44340 0.04960 0.01000
C 	C 	0.52990 0.39410 0.12040 -0.10400
H 	H 	0.48220 0.40950 0.12980 0.08300
C 	C 	0.55990 0.35230 0.15410 0.03000
H 	H 	0.53320 0.33780 0.18700 0.03300
C 	C 	0.63040 0.33150 0.13930 -0.07800
H 	H 	0.65310 0.30320 0.16300 0.07500
C 	C 	0.66690 0.35190 0.09060 0.01800
C 	C 	0.74130 0.33170 0.07140 0.16700
C 	C 	0.83920 0.34240 0.00260 0.17700
C 	C 	0.90180 0.37110 0.02470 -0.19000
H 	H 	0.89620 0.40030 0.05140 0.10500
C 	C 	0.97680 0.35580 0.00640 0.09200
H 	H 	0.02120 0.37480 0.02240 0.02000
C 	C 	0.98570 0.31510 0.96680 -0.14900
C 	C 	0.92300 0.28770 0.94570 0.10400
H 	H 	0.92840 0.25920 0.91790 0.01600
C 	C 	0.85050 0.30070 0.96410 -0.20200
H 	H 	0.80710 0.28000 0.94940 0.11000
C 	C 	0.06610 0.30010 0.94420 0.39500
C 	C 	0.24120 0.47740 0.41360 0.06500
H 	H 	0.27180 0.45870 0.38630 0.00400
C 	C 	0.19780 0.52010 0.39160 -0.11000
H 	H 	0.19900 0.53060 0.34940 0.07800
C 	C 	0.15370 0.54680 0.42990 0.03000
H 	H 	0.12520 0.57690 0.41540 0.03100
C 	C 	0.15090 0.52940 0.49070 -0.08300
H 	H 	0.11930 0.54710 0.51840 0.07800
C 	C 	0.19410 0.48660 0.51040 0.02500
C 	C 	0.19430 0.46540 0.57370 0.15900
C 	C 	0.24790 0.40010 0.64310 0.19500
C 	C 	0.18420 0.37240 0.66000 -0.20300
H 	H 	0.13800 0.37140 0.63310 0.11500
C 	C 	0.18800 0.34620 0.71640 0.11800
H 	H 	0.14430 0.32710 0.72820 0.01200
C 	C 	0.25700 0.34740 0.75680 -0.18100
C 	C 	0.31520 0.37730 0.73910 0.14400
H 	H 	0.36150 0.37950 0.76570 -0.00600
C 	C 	0.31070 0.40500 0.68430 -0.22900
H 	H 	0.35180 0.42780 0.67510 0.11100
C 	C 	0.26130 0.31810 0.81680 0.40600
Co	Co	0.30604 0.59018 0.01526 1.16800
N 	N 	0.37780 0.63715 0.06070 -0.24900
N 	N 	0.38100 0.53721 0.04730 -0.28900
N 	N 	0.63640 0.39246 0.05650 -0.24600
N 	N 	0.76290 0.35477 0.02050 -0.28600
N 	N 	0.24050 0.46205 0.47360 -0.25200
N 	N 	0.24410 0.42545 0.58370 -0.29100
O 	O 	0.49240 0.52743 0.10890 -0.22600
O 	O 	0.29930 0.29798 0.98270 -0.49200
O 	O 	0.29410 0.29465 0.08500 -0.43900
O 	O 	0.77770 0.29700 0.10210 -0.21500
O 	O 	0.06770 0.27040 0.90080 -0.35300
O 	O 	0.12170 0.31720 0.97390 -0.45000
O 	O 	0.15300 0.48530 0.61250 -0.20300
O 	O 	0.31790 0.29050 0.82980 -0.30600
O 	O 	0.20460 0.32050 0.84800 -0.45700
Zn	Zn	0.20533 0.28300 0.92708 1.24100
