data_crystal

_cell_length_a 9.75610
_cell_length_b 10.28520
_cell_length_c 11.04650
_cell_angle_alpha 95.12700
_cell_angle_beta  95.10900
_cell_angle_gamma 105.97400

_symmetry_space_group_name_	'P 1'
_symmetry_space_group_name_H-M	'P 1'

loop_
_symmetry_equiv_pos_as_xyz
  x,y,z

loop_
_atom_site_label
_atom_site_type_symbol
_atom_site_fract_x
_atom_site_fract_y
_atom_site_fract_z
_atom_site_charge
U 	U 	0.33279 0.38788 0.36936 0.01400
U 	U 	0.13500 0.17206 0.82735 0.02600
P 	P 	0.05420 0.18340 0.14520 0.39100
P 	P 	0.63270 0.54130 0.29040 0.38900
O 	O 	0.03380 0.16470 0.00700 -0.15500
O 	O 	0.20690 0.26560 0.19640 -0.14900
O 	O 	0.01100 0.04910 0.20040 -0.13900
O 	O 	0.11280 0.27350 0.43650 -0.15900
O 	O 	0.89180 0.18860 0.47980 -0.16100
O 	O 	0.69440 0.68680 0.27350 -0.14600
O 	O 	0.48840 0.47150 0.21210 -0.16400
O 	O 	0.60250 0.52140 0.42240 -0.14500
O 	O 	0.64670 0.40600 0.93810 -0.43300
H 	H 	0.65260 0.44650 0.87720 0.31700
O 	O 	0.73610 0.61000 0.04170 -0.20200
C 	C 	0.94070 0.28640 0.19110 -0.01300
C 	C 	0.87220 0.34140 0.09970 -0.00200
H 	H 	0.88570 0.32340 0.01830 0.07700
C 	C 	0.78320 0.42370 0.13010 -0.05000
C 	C 	0.75360 0.44590 0.25030 0.01200
C 	C 	0.82480 0.38520 0.34150 -0.02800
H 	H 	0.80730 0.39790 0.42250 0.08700
C 	C 	0.91540 0.31120 0.31380 -0.01100
C 	C 	0.98020 0.25700 0.41810 0.27300
C 	C 	0.72140 0.48680 0.03150 0.36800
U 	U 	0.66721 0.61212 0.63064 0.01500
U 	U 	0.86500 0.82794 0.17265 0.02700
P 	P 	0.94580 0.81660 0.85480 0.39200
P 	P 	0.36730 0.45870 0.70960 0.39000
O 	O 	0.96620 0.83530 0.99300 -0.15400
O 	O 	0.79310 0.73440 0.80360 -0.14800
O 	O 	0.98900 0.95090 0.79960 -0.13900
O 	O 	0.88720 0.72650 0.56350 -0.15900
O 	O 	0.10820 0.81140 0.52020 -0.16100
O 	O 	0.30560 0.31320 0.72650 -0.14600
O 	O 	0.51160 0.52850 0.78790 -0.16400
O 	O 	0.39750 0.47860 0.57760 -0.14500
O 	O 	0.35330 0.59400 0.06190 -0.43300
H 	H 	0.34740 0.55350 0.12280 0.31700
O 	O 	0.26390 0.39000 0.95830 -0.20200
C 	C 	0.05930 0.71360 0.80890 -0.01300
C 	C 	0.12780 0.65860 0.90030 -0.00200
H 	H 	0.11430 0.67660 0.98170 0.07700
C 	C 	0.21680 0.57630 0.86990 -0.05000
C 	C 	0.24640 0.55410 0.74970 0.01200
C 	C 	0.17520 0.61480 0.65850 -0.02800
H 	H 	0.19270 0.60210 0.57750 0.08700
C 	C 	0.08460 0.68880 0.68620 -0.01100
C 	C 	0.01980 0.74300 0.58190 0.27300
C 	C 	0.27860 0.51320 0.96850 0.36800
