data_crystal

_cell_length_a 27.10400
_cell_length_b 31.27800
_cell_length_c 34.90000
_cell_angle_alpha 90.00000
_cell_angle_beta  92.10000
_cell_angle_gamma 90.00000

_symmetry_space_group_name_	'P 1'
_symmetry_space_group_name_H-M	'P 1'

loop_
_symmetry_equiv_pos_as_xyz
  x,y,z

loop_
_atom_site_label
_atom_site_type_symbol
_atom_site_fract_x
_atom_site_fract_y
_atom_site_fract_z
_atom_site_charge
Cu	Cu	0.14314 0.25229 0.82340 0.84400
Si	Si	0.89604 0.99091 0.57340 0.83600
C 	C 	0.85520 0.02650 0.54180 -0.32600
C 	C 	0.80590 0.01640 0.53430 0.15500
H 	H 	0.79190 0.99190 0.54570 -0.03700
C 	C 	0.77700 0.04220 0.51000 -0.20300
H 	H 	0.74330 0.03530 0.50480 0.09500
C 	C 	0.79750 0.07800 0.49320 0.13000
C 	C 	0.84680 0.08810 0.50070 -0.20000
H 	H 	0.86080 0.11260 0.48930 0.09700
C 	C 	0.87570 0.06230 0.52500 0.15400
H 	H 	0.90950 0.06920 0.53010 -0.03100
C 	C 	0.76740 0.10610 0.46920 -0.05500
N 	N 	0.67640 0.20810 0.36430 -0.23800
C 	C 	0.72560 0.20680 0.36580 0.07300
H 	H 	0.74340 0.22410 0.34880 -0.02300
C 	C 	0.75170 0.18030 0.39200 -0.14300
H 	H 	0.78670 0.17820 0.39270 0.07600
C 	C 	0.72250 0.15720 0.41710 0.08400
C 	C 	0.67160 0.16000 0.41610 -0.14700
H 	H 	0.65240 0.14390 0.43320 0.07800
C 	C 	0.64940 0.18760 0.38890 0.08100
H 	H 	0.61470 0.19160 0.38820 -0.02100
C 	C 	0.74610 0.12920 0.44720 -0.02200
C 	C 	0.93510 0.02780 0.60490 -0.32700
C 	C 	0.98510 0.02090 0.61250 0.16100
H 	H 	0.00120 0.99740 0.60100 -0.03700
C 	C 	0.01160 0.04820 0.63700 -0.20600
H 	H 	0.04580 0.04340 0.64220 0.09700
C 	C 	0.98810 0.08250 0.65390 0.13500
C 	C 	0.93800 0.08940 0.64630 -0.20100
H 	H 	0.92190 0.11280 0.65790 0.09900
C 	C 	0.91150 0.06210 0.62180 0.15800
H 	H 	0.87730 0.06680 0.61660 -0.03600
C 	C 	0.01580 0.11010 0.67980 -0.05600
N 	N 	0.11120 0.21420 0.78270 -0.24200
C 	C 	0.08320 0.23040 0.75400 0.08100
H 	H 	0.08030 0.26060 0.75250 -0.02200
C 	C 	0.05830 0.20670 0.72630 -0.14500
H 	H 	0.03850 0.21970 0.70650 0.07500
C 	C 	0.06380 0.16200 0.72900 0.08000
C 	C 	0.09330 0.14350 0.75860 -0.14100
H 	H 	0.09790 0.11350 0.76050 0.07700
C 	C 	0.11590 0.17220 0.78550 0.07400
H 	H 	0.13520 0.16080 0.80630 -0.02200
C 	C 	0.03630 0.13350 0.70160 -0.01700
C 	C 	0.85930 0.95620 0.60540 -0.33600
C 	C 	0.84760 0.91450 0.59460 0.16100
H 	H 	0.85890 0.90340 0.57110 -0.03700
C 	C 	0.81930 0.88920 0.61800 -0.20400
H 	H 	0.81130 0.86070 0.61060 0.09700
C 	C 	0.80260 0.90550 0.65220 0.13200
C 	C 	0.81430 0.94710 0.66310 -0.20300
H 	H 	0.80290 0.95830 0.68650 0.09600
C 	C 	0.84260 0.97250 0.63970 0.16100
H 	H 	0.85060 0.00100 0.64710 -0.03800
C 	C 	0.77280 0.88010 0.67800 -0.05500
N 	N 	0.67760 0.78600 0.78080 -0.23200
C 	C 	0.67320 0.82820 0.78110 0.07000
H 	H 	0.65380 0.84170 0.79980 -0.01900
C 	C 	0.69710 0.85330 0.75360 -0.13700
H 	H 	0.69420 0.88350 0.75320 0.07500
C 	C 	0.72530 0.83170 0.72710 0.07600
C 	C 	0.72900 0.78690 0.72670 -0.13400
H 	H 	0.74790 0.77230 0.70830 0.07300
C 	C 	0.70310 0.76460 0.75510 0.06700
H 	H 	0.70400 0.73420 0.75590 -0.01500
C 	C 	0.75140 0.85760 0.69870 -0.02100
C 	C 	0.93420 0.95670 0.54170 -0.33700
C 	C 	0.92740 0.96070 0.50220 0.16000
H 	H 	0.90500 0.98130 0.49170 -0.03500
C 	C 	0.95350 0.93440 0.47790 -0.20700
H 	H 	0.94880 0.93710 0.45090 0.09900
C 	C 	0.98640 0.90430 0.49310 0.14000
C 	C 	0.99320 0.90030 0.53270 -0.21100
H 	H 	0.01560 0.87970 0.54310 0.09900
C 	C 	0.96710 0.92660 0.55690 0.16800
H 	H 	0.97180 0.92390 0.58390 -0.04100
C 	C 	0.01110 0.87380 0.46900 -0.06800
N 	N 	0.10650 0.78090 0.36480 -0.22500
C 	C 	0.05870 0.78450 0.36120 0.06500
H 	H 	0.04150 0.77150 0.34000 -0.01800
C 	C 	0.03210 0.80750 0.38840 -0.11500
H 	H 	0.99720 0.81040 0.38620 0.07000
C 	C 	0.06010 0.82590 0.41910 0.03400
C 	C 	0.11110 0.82190 0.42330 -0.03500
C 	C 	0.13390 0.79770 0.39430 0.01700
H 	H 	0.16860 0.79320 0.39570 0.00200
C 	C 	0.03350 0.85260 0.44760 0.00300
Cu	Cu	0.64314 0.75229 0.82340 0.84500
Si	Si	0.39604 0.49091 0.57340 0.83700
C 	C 	0.35520 0.52650 0.54180 -0.32500
C 	C 	0.30590 0.51640 0.53430 0.15600
H 	H 	0.29190 0.49190 0.54570 -0.03600
C 	C 	0.27700 0.54220 0.51000 -0.20200
H 	H 	0.24330 0.53530 0.50480 0.09600
C 	C 	0.29750 0.57800 0.49320 0.13100
C 	C 	0.34680 0.58810 0.50070 -0.19900
H 	H 	0.36080 0.61260 0.48930 0.09800
C 	C 	0.37570 0.56230 0.52500 0.15500
H 	H 	0.40950 0.56920 0.53010 -0.03000
C 	C 	0.26740 0.60610 0.46920 -0.05400
N 	N 	0.17640 0.70810 0.36430 -0.23700
C 	C 	0.22560 0.70680 0.36580 0.07400
H 	H 	0.24340 0.72410 0.34880 -0.02100
C 	C 	0.25170 0.68030 0.39200 -0.14200
H 	H 	0.28670 0.67820 0.39270 0.07700
C 	C 	0.22250 0.65720 0.41710 0.08400
C 	C 	0.17160 0.66000 0.41610 -0.14700
H 	H 	0.15240 0.64390 0.43320 0.07800
C 	C 	0.14940 0.68760 0.38890 0.08100
H 	H 	0.11470 0.69160 0.38820 -0.02100
C 	C 	0.24610 0.62920 0.44720 -0.02200
C 	C 	0.43510 0.52780 0.60490 -0.32700
C 	C 	0.48510 0.52090 0.61250 0.16100
H 	H 	0.50120 0.49740 0.60100 -0.03700
C 	C 	0.51160 0.54820 0.63700 -0.20600
H 	H 	0.54580 0.54340 0.64220 0.09700
C 	C 	0.48810 0.58250 0.65390 0.13500
C 	C 	0.43800 0.58940 0.64630 -0.20100
H 	H 	0.42190 0.61280 0.65790 0.09900
C 	C 	0.41150 0.56210 0.62180 0.15800
H 	H 	0.37730 0.56680 0.61660 -0.03600
C 	C 	0.51580 0.61010 0.67980 -0.05600
N 	N 	0.61120 0.71420 0.78270 -0.24200
C 	C 	0.58320 0.73040 0.75400 0.08100
H 	H 	0.58030 0.76060 0.75250 -0.02200
C 	C 	0.55830 0.70670 0.72630 -0.14500
H 	H 	0.53850 0.71970 0.70650 0.07500
C 	C 	0.56380 0.66200 0.72900 0.08000
C 	C 	0.59330 0.64350 0.75860 -0.14100
H 	H 	0.59790 0.61350 0.76050 0.07700
C 	C 	0.61590 0.67220 0.78550 0.07400
H 	H 	0.63520 0.66080 0.80630 -0.02200
C 	C 	0.53630 0.63350 0.70160 -0.01700
C 	C 	0.35930 0.45620 0.60540 -0.33600
C 	C 	0.34760 0.41450 0.59460 0.16100
H 	H 	0.35890 0.40340 0.57110 -0.03700
C 	C 	0.31930 0.38920 0.61800 -0.20400
H 	H 	0.31130 0.36070 0.61060 0.09700
C 	C 	0.30260 0.40550 0.65220 0.13200
C 	C 	0.31430 0.44710 0.66310 -0.20400
H 	H 	0.30290 0.45830 0.68650 0.09600
C 	C 	0.34260 0.47250 0.63970 0.16100
H 	H 	0.35060 0.50100 0.64710 -0.03800
C 	C 	0.27280 0.38010 0.67800 -0.05500
N 	N 	0.17760 0.28600 0.78080 -0.23200
C 	C 	0.17320 0.32820 0.78110 0.07000
H 	H 	0.15380 0.34170 0.79980 -0.01900
C 	C 	0.19710 0.35330 0.75360 -0.13700
H 	H 	0.19420 0.38350 0.75320 0.07500
C 	C 	0.22530 0.33170 0.72710 0.07600
C 	C 	0.22900 0.28690 0.72670 -0.13400
H 	H 	0.24790 0.27230 0.70830 0.07300
C 	C 	0.20310 0.26460 0.75510 0.06700
H 	H 	0.20400 0.23420 0.75590 -0.01500
C 	C 	0.25140 0.35760 0.69870 -0.02100
C 	C 	0.43420 0.45670 0.54170 -0.33700
C 	C 	0.42740 0.46070 0.50220 0.16000
H 	H 	0.40500 0.48130 0.49170 -0.03500
C 	C 	0.45350 0.43440 0.47790 -0.20700
H 	H 	0.44880 0.43710 0.45090 0.09900
C 	C 	0.48640 0.40430 0.49310 0.14000
C 	C 	0.49320 0.40030 0.53270 -0.21100
H 	H 	0.51560 0.37970 0.54310 0.09900
C 	C 	0.46710 0.42660 0.55690 0.16800
H 	H 	0.47180 0.42390 0.58390 -0.04100
C 	C 	0.51110 0.37380 0.46900 -0.06800
N 	N 	0.60650 0.28090 0.36480 -0.22500
C 	C 	0.55870 0.28450 0.36120 0.06500
H 	H 	0.54150 0.27150 0.34000 -0.01800
C 	C 	0.53210 0.30750 0.38840 -0.11500
H 	H 	0.49720 0.31040 0.38620 0.07000
C 	C 	0.56010 0.32590 0.41910 0.03400
C 	C 	0.61110 0.32190 0.42330 -0.03500
C 	C 	0.63390 0.29770 0.39430 0.01700
H 	H 	0.66860 0.29320 0.39570 0.00200
C 	C 	0.53350 0.35260 0.44760 0.00300
Cu	Cu	0.14314 0.74771 0.32340 0.84500
Si	Si	0.89604 0.00909 0.07340 0.83600
C 	C 	0.85520 0.97350 0.04180 -0.32400
C 	C 	0.80590 0.98360 0.03430 0.15600
H 	H 	0.79190 0.00810 0.04570 -0.03600
C 	C 	0.77700 0.95780 0.01000 -0.20100
H 	H 	0.74330 0.96470 0.00480 0.09600
C 	C 	0.79750 0.92200 0.99320 0.13000
C 	C 	0.84680 0.91190 0.00070 -0.19800
H 	H 	0.86080 0.88740 0.98930 0.09800
C 	C 	0.87570 0.93770 0.02500 0.15500
H 	H 	0.90950 0.93080 0.03010 -0.03000
C 	C 	0.76740 0.89390 0.96920 -0.05400
N 	N 	0.67640 0.79190 0.86430 -0.23700
C 	C 	0.72560 0.79320 0.86580 0.07400
H 	H 	0.74340 0.77590 0.84880 -0.02200
C 	C 	0.75170 0.81970 0.89200 -0.14200
H 	H 	0.78670 0.82180 0.89270 0.07700
C 	C 	0.72250 0.84280 0.91710 0.08400
C 	C 	0.67160 0.84000 0.91610 -0.14700
H 	H 	0.65240 0.85610 0.93320 0.07800
C 	C 	0.64940 0.81240 0.88890 0.08100
H 	H 	0.61470 0.80840 0.88820 -0.02100
C 	C 	0.74610 0.87080 0.94720 -0.02200
C 	C 	0.93510 0.97220 0.10490 -0.32700
C 	C 	0.98510 0.97910 0.11250 0.16200
H 	H 	0.00120 0.00260 0.10100 -0.03800
C 	C 	0.01160 0.95180 0.13700 -0.20600
H 	H 	0.04580 0.95660 0.14220 0.09700
C 	C 	0.98810 0.91750 0.15390 0.13500
C 	C 	0.93800 0.91060 0.14630 -0.20100
H 	H 	0.92190 0.88720 0.15790 0.09900
C 	C 	0.91150 0.93790 0.12180 0.15800
H 	H 	0.87730 0.93320 0.11660 -0.03600
C 	C 	0.01580 0.88990 0.17980 -0.05600
N 	N 	0.11120 0.78580 0.28270 -0.24200
C 	C 	0.08320 0.76960 0.25400 0.08100
H 	H 	0.08030 0.73940 0.25250 -0.02200
C 	C 	0.05830 0.79330 0.22630 -0.14500
H 	H 	0.03850 0.78030 0.20650 0.07500
C 	C 	0.06380 0.83800 0.22900 0.08000
C 	C 	0.09330 0.85650 0.25860 -0.14100
H 	H 	0.09790 0.88650 0.26050 0.07700
C 	C 	0.11590 0.82780 0.28550 0.07400
H 	H 	0.13520 0.83920 0.30630 -0.02200
C 	C 	0.03630 0.86650 0.20160 -0.01700
C 	C 	0.85930 0.04380 0.10540 -0.33600
C 	C 	0.84760 0.08550 0.09460 0.16100
H 	H 	0.85890 0.09660 0.07110 -0.03700
C 	C 	0.81930 0.11080 0.11800 -0.20400
H 	H 	0.81130 0.13930 0.11060 0.09700
C 	C 	0.80260 0.09450 0.15220 0.13200
C 	C 	0.81430 0.05290 0.16310 -0.20300
H 	H 	0.80290 0.04170 0.18650 0.09600
C 	C 	0.84260 0.02750 0.13970 0.16100
H 	H 	0.85060 0.99900 0.14710 -0.03800
C 	C 	0.77280 0.11990 0.17800 -0.05500
N 	N 	0.67760 0.21400 0.28080 -0.23200
C 	C 	0.67320 0.17180 0.28110 0.07000
H 	H 	0.65380 0.15830 0.29980 -0.01900
C 	C 	0.69710 0.14670 0.25360 -0.13700
H 	H 	0.69420 0.11650 0.25320 0.07500
C 	C 	0.72530 0.16830 0.22710 0.07600
C 	C 	0.72900 0.21310 0.22670 -0.13400
H 	H 	0.74790 0.22770 0.20830 0.07300
C 	C 	0.70310 0.23540 0.25510 0.06700
H 	H 	0.70400 0.26580 0.25590 -0.01500
C 	C 	0.75140 0.14240 0.19870 -0.02100
C 	C 	0.93420 0.04330 0.04170 -0.33600
C 	C 	0.92740 0.03930 0.00220 0.15900
H 	H 	0.90500 0.01870 0.99170 -0.03400
C 	C 	0.95350 0.06560 0.97790 -0.20700
H 	H 	0.94880 0.06290 0.95090 0.09900
C 	C 	0.98640 0.09570 0.99310 0.14000
C 	C 	0.99320 0.09970 0.03270 -0.21100
H 	H 	0.01560 0.12030 0.04310 0.09900
C 	C 	0.96710 0.07340 0.05690 0.16700
H 	H 	0.97180 0.07610 0.08390 -0.04100
C 	C 	0.01110 0.12620 0.96900 -0.06800
N 	N 	0.10650 0.21910 0.86480 -0.22500
C 	C 	0.05870 0.21550 0.86120 0.06500
H 	H 	0.04150 0.22850 0.84000 -0.01800
C 	C 	0.03210 0.19250 0.88840 -0.11500
H 	H 	0.99720 0.18960 0.88620 0.06900
C 	C 	0.06010 0.17410 0.91910 0.03400
C 	C 	0.11110 0.17810 0.92330 -0.03500
C 	C 	0.13390 0.20230 0.89430 0.01700
H 	H 	0.16860 0.20680 0.89570 0.00300
C 	C 	0.03350 0.14740 0.94760 0.00300
Cu	Cu	0.64314 0.24771 0.32340 0.84500
Si	Si	0.39604 0.50909 0.07340 0.83700
C 	C 	0.35520 0.47350 0.04180 -0.32500
C 	C 	0.30590 0.48360 0.03430 0.15600
H 	H 	0.29190 0.50810 0.04570 -0.03600
C 	C 	0.27700 0.45780 0.01000 -0.20200
H 	H 	0.24330 0.46470 0.00480 0.09600
C 	C 	0.29750 0.42200 0.99320 0.13100
C 	C 	0.34680 0.41190 0.00070 -0.19900
H 	H 	0.36080 0.38740 0.98930 0.09800
C 	C 	0.37570 0.43770 0.02500 0.15500
H 	H 	0.40950 0.43080 0.03010 -0.03000
C 	C 	0.26740 0.39390 0.96920 -0.05400
N 	N 	0.17640 0.29190 0.86430 -0.23700
C 	C 	0.22560 0.29320 0.86580 0.07400
H 	H 	0.24340 0.27590 0.84880 -0.02100
C 	C 	0.25170 0.31970 0.89200 -0.14200
H 	H 	0.28670 0.32180 0.89270 0.07700
C 	C 	0.22250 0.34280 0.91710 0.08400
C 	C 	0.17160 0.34000 0.91610 -0.14700
H 	H 	0.15240 0.35610 0.93320 0.07800
C 	C 	0.14940 0.31240 0.88890 0.08100
H 	H 	0.11470 0.30840 0.88820 -0.02100
C 	C 	0.24610 0.37080 0.94720 -0.02200
C 	C 	0.43510 0.47220 0.10490 -0.32700
C 	C 	0.48510 0.47910 0.11250 0.16100
H 	H 	0.50120 0.50260 0.10100 -0.03700
C 	C 	0.51160 0.45180 0.13700 -0.20600
H 	H 	0.54580 0.45660 0.14220 0.09700
C 	C 	0.48810 0.41750 0.15390 0.13500
C 	C 	0.43800 0.41060 0.14630 -0.20100
H 	H 	0.42190 0.38720 0.15790 0.09900
C 	C 	0.41150 0.43790 0.12180 0.15800
H 	H 	0.37730 0.43320 0.11660 -0.03600
C 	C 	0.51580 0.38990 0.17980 -0.05600
N 	N 	0.61120 0.28580 0.28270 -0.24200
C 	C 	0.58320 0.26960 0.25400 0.08100
H 	H 	0.58030 0.23940 0.25250 -0.02200
C 	C 	0.55830 0.29330 0.22630 -0.14500
H 	H 	0.53850 0.28030 0.20650 0.07500
C 	C 	0.56380 0.33800 0.22900 0.08000
C 	C 	0.59330 0.35650 0.25860 -0.14100
H 	H 	0.59790 0.38650 0.26050 0.07700
C 	C 	0.61590 0.32780 0.28550 0.07400
H 	H 	0.63520 0.33920 0.30630 -0.02200
C 	C 	0.53630 0.36650 0.20160 -0.01700
C 	C 	0.35930 0.54380 0.10540 -0.33600
C 	C 	0.34760 0.58550 0.09460 0.16100
H 	H 	0.35890 0.59660 0.07110 -0.03700
C 	C 	0.31930 0.61080 0.11800 -0.20400
H 	H 	0.31130 0.63930 0.11060 0.09700
C 	C 	0.30260 0.59450 0.15220 0.13200
C 	C 	0.31430 0.55290 0.16310 -0.20400
H 	H 	0.30290 0.54170 0.18650 0.09600
C 	C 	0.34260 0.52750 0.13970 0.16100
H 	H 	0.35060 0.49900 0.14710 -0.03800
C 	C 	0.27280 0.61990 0.17800 -0.05500
N 	N 	0.17760 0.71400 0.28080 -0.23200
C 	C 	0.17320 0.67180 0.28110 0.07000
H 	H 	0.15380 0.65830 0.29980 -0.01900
C 	C 	0.19710 0.64670 0.25360 -0.13700
H 	H 	0.19420 0.61650 0.25320 0.07500
C 	C 	0.22530 0.66830 0.22710 0.07600
C 	C 	0.22900 0.71310 0.22670 -0.13400
H 	H 	0.24790 0.72770 0.20830 0.07300
C 	C 	0.20310 0.73540 0.25510 0.06700
H 	H 	0.20400 0.76580 0.25590 -0.01500
C 	C 	0.25140 0.64240 0.19870 -0.02100
C 	C 	0.43420 0.54330 0.04170 -0.33700
C 	C 	0.42740 0.53930 0.00220 0.16000
H 	H 	0.40500 0.51870 0.99170 -0.03500
C 	C 	0.45350 0.56560 0.97790 -0.20700
H 	H 	0.44880 0.56290 0.95090 0.09900
C 	C 	0.48640 0.59570 0.99310 0.14000
C 	C 	0.49320 0.59970 0.03270 -0.21100
H 	H 	0.51560 0.62030 0.04310 0.09900
C 	C 	0.46710 0.57340 0.05690 0.16800
H 	H 	0.47180 0.57610 0.08390 -0.04100
C 	C 	0.51110 0.62620 0.96900 -0.06800
N 	N 	0.60650 0.71910 0.86480 -0.22500
C 	C 	0.55870 0.71550 0.86120 0.06500
H 	H 	0.54150 0.72850 0.84000 -0.01800
C 	C 	0.53210 0.69250 0.88840 -0.11500
H 	H 	0.49720 0.68960 0.88620 0.07000
C 	C 	0.56010 0.67410 0.91910 0.03400
C 	C 	0.61110 0.67810 0.92330 -0.03500
C 	C 	0.63390 0.70230 0.89430 0.01700
H 	H 	0.66860 0.70680 0.89570 0.00200
C 	C 	0.53350 0.64740 0.94760 0.00300
Cu	Cu	0.85686 0.25229 0.67660 0.84500
Si	Si	0.10396 0.99091 0.92660 0.83600
C 	C 	0.14480 0.02650 0.95820 -0.32400
C 	C 	0.19410 0.01640 0.96570 0.15600
H 	H 	0.20810 0.99190 0.95430 -0.03600
C 	C 	0.22300 0.04220 0.99000 -0.20100
H 	H 	0.25670 0.03530 0.99520 0.09600
C 	C 	0.20250 0.07800 0.00680 0.13000
C 	C 	0.15320 0.08810 0.99930 -0.19800
H 	H 	0.13920 0.11260 0.01070 0.09800
C 	C 	0.12430 0.06230 0.97500 0.15500
H 	H 	0.09050 0.06920 0.96990 -0.03000
C 	C 	0.23260 0.10610 0.03080 -0.05400
N 	N 	0.32360 0.20810 0.13570 -0.23700
C 	C 	0.27440 0.20680 0.13420 0.07400
H 	H 	0.25660 0.22410 0.15120 -0.02200
C 	C 	0.24830 0.18030 0.10800 -0.14200
H 	H 	0.21330 0.17820 0.10730 0.07700
C 	C 	0.27750 0.15720 0.08290 0.08400
C 	C 	0.32840 0.16000 0.08390 -0.14700
H 	H 	0.34760 0.14390 0.06680 0.07800
C 	C 	0.35060 0.18760 0.11110 0.08100
H 	H 	0.38530 0.19160 0.11180 -0.02100
C 	C 	0.25390 0.12920 0.05280 -0.02200
C 	C 	0.06490 0.02780 0.89510 -0.32700
C 	C 	0.01490 0.02090 0.88750 0.16200
H 	H 	0.99880 0.99740 0.89900 -0.03800
C 	C 	0.98840 0.04820 0.86300 -0.20600
H 	H 	0.95420 0.04340 0.85780 0.09700
C 	C 	0.01190 0.08250 0.84610 0.13500
C 	C 	0.06200 0.08940 0.85370 -0.20100
H 	H 	0.07810 0.11280 0.84210 0.09900
C 	C 	0.08850 0.06210 0.87820 0.15800
H 	H 	0.12270 0.06680 0.88340 -0.03600
C 	C 	0.98420 0.11010 0.82020 -0.05600
N 	N 	0.88880 0.21420 0.71730 -0.24200
C 	C 	0.91680 0.23040 0.74600 0.08100
H 	H 	0.91970 0.26060 0.74750 -0.02200
C 	C 	0.94170 0.20670 0.77370 -0.14500
H 	H 	0.96150 0.21970 0.79350 0.07500
C 	C 	0.93620 0.16200 0.77100 0.08000
C 	C 	0.90670 0.14350 0.74140 -0.14100
H 	H 	0.90210 0.11350 0.73950 0.07700
C 	C 	0.88410 0.17220 0.71450 0.07400
H 	H 	0.86480 0.16080 0.69370 -0.02200
C 	C 	0.96370 0.13350 0.79840 -0.01700
C 	C 	0.14070 0.95620 0.89460 -0.33600
C 	C 	0.15240 0.91450 0.90540 0.16100
H 	H 	0.14110 0.90340 0.92890 -0.03700
C 	C 	0.18070 0.88920 0.88200 -0.20400
H 	H 	0.18870 0.86070 0.88940 0.09700
C 	C 	0.19740 0.90550 0.84780 0.13200
C 	C 	0.18570 0.94710 0.83690 -0.20300
H 	H 	0.19710 0.95830 0.81350 0.09600
C 	C 	0.15740 0.97250 0.86030 0.16100
H 	H 	0.14940 0.00100 0.85290 -0.03800
C 	C 	0.22720 0.88010 0.82200 -0.05500
N 	N 	0.32240 0.78600 0.71920 -0.23200
C 	C 	0.32680 0.82820 0.71890 0.07000
H 	H 	0.34620 0.84170 0.70020 -0.01900
C 	C 	0.30290 0.85330 0.74640 -0.13700
H 	H 	0.30580 0.88350 0.74680 0.07500
C 	C 	0.27470 0.83170 0.77290 0.07600
C 	C 	0.27100 0.78690 0.77330 -0.13400
H 	H 	0.25210 0.77230 0.79170 0.07300
C 	C 	0.29690 0.76460 0.74490 0.06700
H 	H 	0.29600 0.73420 0.74410 -0.01500
C 	C 	0.24860 0.85760 0.80130 -0.02100
C 	C 	0.06580 0.95670 0.95830 -0.33600
C 	C 	0.07260 0.96070 0.99780 0.15900
H 	H 	0.09500 0.98130 0.00830 -0.03400
C 	C 	0.04650 0.93440 0.02210 -0.20700
H 	H 	0.05120 0.93710 0.04910 0.09900
C 	C 	0.01360 0.90430 0.00690 0.14000
C 	C 	0.00680 0.90030 0.96730 -0.21100
H 	H 	0.98440 0.87970 0.95690 0.09900
C 	C 	0.03290 0.92660 0.94310 0.16700
H 	H 	0.02820 0.92390 0.91610 -0.04100
C 	C 	0.98890 0.87380 0.03100 -0.06800
N 	N 	0.89350 0.78090 0.13520 -0.22500
C 	C 	0.94130 0.78450 0.13880 0.06500
H 	H 	0.95850 0.77150 0.16000 -0.01800
C 	C 	0.96790 0.80750 0.11160 -0.11500
H 	H 	0.00280 0.81040 0.11380 0.06900
C 	C 	0.93990 0.82590 0.08090 0.03400
C 	C 	0.88890 0.82190 0.07670 -0.03500
C 	C 	0.86610 0.79770 0.10570 0.01700
H 	H 	0.83140 0.79320 0.10430 0.00300
C 	C 	0.96650 0.85260 0.05240 0.00300
Cu	Cu	0.35686 0.75229 0.67660 0.84500
Si	Si	0.60396 0.49091 0.92660 0.83700
C 	C 	0.64480 0.52650 0.95820 -0.32500
C 	C 	0.69410 0.51640 0.96570 0.15600
H 	H 	0.70810 0.49190 0.95430 -0.03600
C 	C 	0.72300 0.54220 0.99000 -0.20200
H 	H 	0.75670 0.53530 0.99520 0.09600
C 	C 	0.70250 0.57800 0.00680 0.13100
C 	C 	0.65320 0.58810 0.99930 -0.19900
H 	H 	0.63920 0.61260 0.01070 0.09800
C 	C 	0.62430 0.56230 0.97500 0.15500
H 	H 	0.59050 0.56920 0.96990 -0.03000
C 	C 	0.73260 0.60610 0.03080 -0.05400
N 	N 	0.82360 0.70810 0.13570 -0.23700
C 	C 	0.77440 0.70680 0.13420 0.07400
H 	H 	0.75660 0.72410 0.15120 -0.02100
C 	C 	0.74830 0.68030 0.10800 -0.14200
H 	H 	0.71330 0.67820 0.10730 0.07700
C 	C 	0.77750 0.65720 0.08290 0.08400
C 	C 	0.82840 0.66000 0.08390 -0.14700
H 	H 	0.84760 0.64390 0.06680 0.07800
C 	C 	0.85060 0.68760 0.11110 0.08100
H 	H 	0.88530 0.69160 0.11180 -0.02100
C 	C 	0.75390 0.62920 0.05280 -0.02200
C 	C 	0.56490 0.52780 0.89510 -0.32700
C 	C 	0.51490 0.52090 0.88750 0.16100
H 	H 	0.49880 0.49740 0.89900 -0.03700
C 	C 	0.48840 0.54820 0.86300 -0.20600
H 	H 	0.45420 0.54340 0.85780 0.09700
C 	C 	0.51190 0.58250 0.84610 0.13500
C 	C 	0.56200 0.58940 0.85370 -0.20100
H 	H 	0.57810 0.61280 0.84210 0.09900
C 	C 	0.58850 0.56210 0.87820 0.15800
H 	H 	0.62270 0.56680 0.88340 -0.03600
C 	C 	0.48420 0.61010 0.82020 -0.05600
N 	N 	0.38880 0.71420 0.71730 -0.24200
C 	C 	0.41680 0.73040 0.74600 0.08100
H 	H 	0.41970 0.76060 0.74750 -0.02200
C 	C 	0.44170 0.70670 0.77370 -0.14500
H 	H 	0.46150 0.71970 0.79350 0.07500
C 	C 	0.43620 0.66200 0.77100 0.08000
C 	C 	0.40670 0.64350 0.74140 -0.14100
H 	H 	0.40210 0.61350 0.73950 0.07700
C 	C 	0.38410 0.67220 0.71450 0.07400
H 	H 	0.36480 0.66080 0.69370 -0.02200
C 	C 	0.46370 0.63350 0.79840 -0.01700
C 	C 	0.64070 0.45620 0.89460 -0.33600
C 	C 	0.65240 0.41450 0.90540 0.16100
H 	H 	0.64110 0.40340 0.92890 -0.03700
C 	C 	0.68070 0.38920 0.88200 -0.20400
H 	H 	0.68870 0.36070 0.88940 0.09700
C 	C 	0.69740 0.40550 0.84780 0.13200
C 	C 	0.68570 0.44710 0.83690 -0.20400
H 	H 	0.69710 0.45830 0.81350 0.09600
C 	C 	0.65740 0.47250 0.86030 0.16100
H 	H 	0.64940 0.50100 0.85290 -0.03800
C 	C 	0.72720 0.38010 0.82200 -0.05500
N 	N 	0.82240 0.28600 0.71920 -0.23200
C 	C 	0.82680 0.32820 0.71890 0.07000
H 	H 	0.84620 0.34170 0.70020 -0.01900
C 	C 	0.80290 0.35330 0.74640 -0.13700
H 	H 	0.80580 0.38350 0.74680 0.07500
C 	C 	0.77470 0.33170 0.77290 0.07600
C 	C 	0.77100 0.28690 0.77330 -0.13400
H 	H 	0.75210 0.27230 0.79170 0.07300
C 	C 	0.79690 0.26460 0.74490 0.06700
H 	H 	0.79600 0.23420 0.74410 -0.01500
C 	C 	0.74860 0.35760 0.80130 -0.02100
C 	C 	0.56580 0.45670 0.95830 -0.33700
C 	C 	0.57260 0.46070 0.99780 0.16000
H 	H 	0.59500 0.48130 0.00830 -0.03500
C 	C 	0.54650 0.43440 0.02210 -0.20700
H 	H 	0.55120 0.43710 0.04910 0.09900
C 	C 	0.51360 0.40430 0.00690 0.14000
C 	C 	0.50680 0.40030 0.96730 -0.21100
H 	H 	0.48440 0.37970 0.95690 0.09900
C 	C 	0.53290 0.42660 0.94310 0.16800
H 	H 	0.52820 0.42390 0.91610 -0.04100
C 	C 	0.48890 0.37380 0.03100 -0.06800
N 	N 	0.39350 0.28090 0.13520 -0.22500
C 	C 	0.44130 0.28450 0.13880 0.06500
H 	H 	0.45850 0.27150 0.16000 -0.01800
C 	C 	0.46790 0.30750 0.11160 -0.11500
H 	H 	0.50280 0.31040 0.11380 0.07000
C 	C 	0.43990 0.32590 0.08090 0.03400
C 	C 	0.38890 0.32190 0.07670 -0.03500
C 	C 	0.36610 0.29770 0.10570 0.01700
H 	H 	0.33140 0.29320 0.10430 0.00200
C 	C 	0.46650 0.35260 0.05240 0.00300
Cu	Cu	0.85686 0.74771 0.17660 0.84500
Si	Si	0.10396 0.00909 0.42660 0.83700
C 	C 	0.14480 0.97350 0.45820 -0.32500
C 	C 	0.19410 0.98360 0.46570 0.15600
H 	H 	0.20810 0.00810 0.45430 -0.03600
C 	C 	0.22300 0.95780 0.49000 -0.20200
H 	H 	0.25670 0.96470 0.49520 0.09600
C 	C 	0.20250 0.92200 0.50680 0.13100
C 	C 	0.15320 0.91190 0.49930 -0.19900
H 	H 	0.13920 0.88740 0.51070 0.09800
C 	C 	0.12430 0.93770 0.47500 0.15500
H 	H 	0.09050 0.93080 0.46990 -0.03000
C 	C 	0.23260 0.89390 0.53080 -0.05400
N 	N 	0.32360 0.79190 0.63570 -0.23700
C 	C 	0.27440 0.79320 0.63420 0.07400
H 	H 	0.25660 0.77590 0.65120 -0.02200
C 	C 	0.24830 0.81970 0.60800 -0.14200
H 	H 	0.21330 0.82180 0.60730 0.07700
C 	C 	0.27750 0.84280 0.58290 0.08400
C 	C 	0.32840 0.84000 0.58390 -0.14700
H 	H 	0.34760 0.85610 0.56680 0.07800
C 	C 	0.35060 0.81240 0.61110 0.08100
H 	H 	0.38530 0.80840 0.61180 -0.02100
C 	C 	0.25390 0.87080 0.55280 -0.02200
C 	C 	0.06490 0.97220 0.39510 -0.32700
C 	C 	0.01490 0.97910 0.38750 0.16100
H 	H 	0.99880 0.00260 0.39900 -0.03700
C 	C 	0.98840 0.95180 0.36300 -0.20600
H 	H 	0.95420 0.95660 0.35780 0.09700
C 	C 	0.01190 0.91750 0.34610 0.13500
C 	C 	0.06200 0.91060 0.35370 -0.20100
H 	H 	0.07810 0.88720 0.34210 0.09900
C 	C 	0.08850 0.93790 0.37820 0.15800
H 	H 	0.12270 0.93320 0.38340 -0.03600
C 	C 	0.98420 0.88990 0.32020 -0.05600
N 	N 	0.88880 0.78580 0.21730 -0.24200
C 	C 	0.91680 0.76960 0.24600 0.08100
H 	H 	0.91970 0.73940 0.24750 -0.02200
C 	C 	0.94170 0.79330 0.27370 -0.14500
H 	H 	0.96150 0.78030 0.29350 0.07500
C 	C 	0.93620 0.83800 0.27100 0.08000
C 	C 	0.90670 0.85650 0.24140 -0.14100
H 	H 	0.90210 0.88650 0.23950 0.07700
C 	C 	0.88410 0.82780 0.21450 0.07400
H 	H 	0.86480 0.83920 0.19370 -0.02200
C 	C 	0.96370 0.86650 0.29840 -0.01700
C 	C 	0.14070 0.04380 0.39460 -0.33600
C 	C 	0.15240 0.08550 0.40540 0.16100
H 	H 	0.14110 0.09660 0.42890 -0.03700
C 	C 	0.18070 0.11080 0.38200 -0.20400
H 	H 	0.18870 0.13930 0.38940 0.09700
C 	C 	0.19740 0.09450 0.34780 0.13200
C 	C 	0.18570 0.05290 0.33690 -0.20300
H 	H 	0.19710 0.04170 0.31350 0.09600
C 	C 	0.15740 0.02750 0.36030 0.16100
H 	H 	0.14940 0.99900 0.35290 -0.03800
C 	C 	0.22720 0.11990 0.32200 -0.05500
N 	N 	0.32240 0.21400 0.21920 -0.23200
C 	C 	0.32680 0.17180 0.21890 0.07000
H 	H 	0.34620 0.15830 0.20020 -0.01900
C 	C 	0.30290 0.14670 0.24640 -0.13700
H 	H 	0.30580 0.11650 0.24680 0.07500
C 	C 	0.27470 0.16830 0.27290 0.07600
C 	C 	0.27100 0.21310 0.27330 -0.13400
H 	H 	0.25210 0.22770 0.29170 0.07300
C 	C 	0.29690 0.23540 0.24490 0.06700
H 	H 	0.29600 0.26580 0.24410 -0.01500
C 	C 	0.24860 0.14240 0.30130 -0.02100
C 	C 	0.06580 0.04330 0.45830 -0.33700
C 	C 	0.07260 0.03930 0.49780 0.16000
H 	H 	0.09500 0.01870 0.50830 -0.03500
C 	C 	0.04650 0.06560 0.52210 -0.20700
H 	H 	0.05120 0.06290 0.54910 0.09900
C 	C 	0.01360 0.09570 0.50690 0.14000
C 	C 	0.00680 0.09970 0.46730 -0.21100
H 	H 	0.98440 0.12030 0.45690 0.09900
C 	C 	0.03290 0.07340 0.44310 0.16800
H 	H 	0.02820 0.07610 0.41610 -0.04100
C 	C 	0.98890 0.12620 0.53100 -0.06800
N 	N 	0.89350 0.21910 0.63520 -0.22500
C 	C 	0.94130 0.21550 0.63880 0.06500
H 	H 	0.95850 0.22850 0.66000 -0.01800
C 	C 	0.96790 0.19250 0.61160 -0.11500
H 	H 	0.00280 0.18960 0.61380 0.07000
C 	C 	0.93990 0.17410 0.58090 0.03400
C 	C 	0.88890 0.17810 0.57670 -0.03500
C 	C 	0.86610 0.20230 0.60570 0.01700
H 	H 	0.83140 0.20680 0.60430 0.00200
C 	C 	0.96650 0.14740 0.55240 0.00300
Cu	Cu	0.35686 0.24771 0.17660 0.84500
Si	Si	0.60396 0.50909 0.42660 0.83700
C 	C 	0.64480 0.47350 0.45820 -0.32500
C 	C 	0.69410 0.48360 0.46570 0.15600
H 	H 	0.70810 0.50810 0.45430 -0.03600
C 	C 	0.72300 0.45780 0.49000 -0.20200
H 	H 	0.75670 0.46470 0.49520 0.09600
C 	C 	0.70250 0.42200 0.50680 0.13100
C 	C 	0.65320 0.41190 0.49930 -0.19900
H 	H 	0.63920 0.38740 0.51070 0.09800
C 	C 	0.62430 0.43770 0.47500 0.15500
H 	H 	0.59050 0.43080 0.46990 -0.03000
C 	C 	0.73260 0.39390 0.53080 -0.05400
N 	N 	0.82360 0.29190 0.63570 -0.23700
C 	C 	0.77440 0.29320 0.63420 0.07400
H 	H 	0.75660 0.27590 0.65120 -0.02100
C 	C 	0.74830 0.31970 0.60800 -0.14200
H 	H 	0.71330 0.32180 0.60730 0.07700
C 	C 	0.77750 0.34280 0.58290 0.08400
C 	C 	0.82840 0.34000 0.58390 -0.14700
H 	H 	0.84760 0.35610 0.56680 0.07800
C 	C 	0.85060 0.31240 0.61110 0.08100
H 	H 	0.88530 0.30840 0.61180 -0.02100
C 	C 	0.75390 0.37080 0.55280 -0.02200
C 	C 	0.56490 0.47220 0.39510 -0.32700
C 	C 	0.51490 0.47910 0.38750 0.16100
H 	H 	0.49880 0.50260 0.39900 -0.03700
C 	C 	0.48840 0.45180 0.36300 -0.20600
H 	H 	0.45420 0.45660 0.35780 0.09700
C 	C 	0.51190 0.41750 0.34610 0.13500
C 	C 	0.56200 0.41060 0.35370 -0.20100
H 	H 	0.57810 0.38720 0.34210 0.09900
C 	C 	0.58850 0.43790 0.37820 0.15800
H 	H 	0.62270 0.43320 0.38340 -0.03600
C 	C 	0.48420 0.38990 0.32020 -0.05600
N 	N 	0.38880 0.28580 0.21730 -0.24200
C 	C 	0.41680 0.26960 0.24600 0.08100
H 	H 	0.41970 0.23940 0.24750 -0.02200
C 	C 	0.44170 0.29330 0.27370 -0.14500
H 	H 	0.46150 0.28030 0.29350 0.07500
C 	C 	0.43620 0.33800 0.27100 0.08000
C 	C 	0.40670 0.35650 0.24140 -0.14100
H 	H 	0.40210 0.38650 0.23950 0.07700
C 	C 	0.38410 0.32780 0.21450 0.07400
H 	H 	0.36480 0.33920 0.19370 -0.02200
C 	C 	0.46370 0.36650 0.29840 -0.01700
C 	C 	0.64070 0.54380 0.39460 -0.33600
C 	C 	0.65240 0.58550 0.40540 0.16100
H 	H 	0.64110 0.59660 0.42890 -0.03700
C 	C 	0.68070 0.61080 0.38200 -0.20400
H 	H 	0.68870 0.63930 0.38940 0.09700
C 	C 	0.69740 0.59450 0.34780 0.13200
C 	C 	0.68570 0.55290 0.33690 -0.20400
H 	H 	0.69710 0.54170 0.31350 0.09600
C 	C 	0.65740 0.52750 0.36030 0.16100
H 	H 	0.64940 0.49900 0.35290 -0.03800
C 	C 	0.72720 0.61990 0.32200 -0.05500
N 	N 	0.82240 0.71400 0.21920 -0.23200
C 	C 	0.82680 0.67180 0.21890 0.07000
H 	H 	0.84620 0.65830 0.20020 -0.01900
C 	C 	0.80290 0.64670 0.24640 -0.13700
H 	H 	0.80580 0.61650 0.24680 0.07500
C 	C 	0.77470 0.66830 0.27290 0.07600
C 	C 	0.77100 0.71310 0.27330 -0.13400
H 	H 	0.75210 0.72770 0.29170 0.07300
C 	C 	0.79690 0.73540 0.24490 0.06700
H 	H 	0.79600 0.76580 0.24410 -0.01500
C 	C 	0.74860 0.64240 0.30130 -0.02100
C 	C 	0.56580 0.54330 0.45830 -0.33700
C 	C 	0.57260 0.53930 0.49780 0.16000
H 	H 	0.59500 0.51870 0.50830 -0.03500
C 	C 	0.54650 0.56560 0.52210 -0.20700
H 	H 	0.55120 0.56290 0.54910 0.09900
C 	C 	0.51360 0.59570 0.50690 0.14000
C 	C 	0.50680 0.59970 0.46730 -0.21100
H 	H 	0.48440 0.62030 0.45690 0.09900
C 	C 	0.53290 0.57340 0.44310 0.16800
H 	H 	0.52820 0.57610 0.41610 -0.04100
C 	C 	0.48890 0.62620 0.53100 -0.06800
N 	N 	0.39350 0.71910 0.63520 -0.22500
C 	C 	0.44130 0.71550 0.63880 0.06500
H 	H 	0.45850 0.72850 0.66000 -0.01800
C 	C 	0.46790 0.69250 0.61160 -0.11500
H 	H 	0.50280 0.68960 0.61380 0.07000
C 	C 	0.43990 0.67410 0.58090 0.03400
C 	C 	0.38890 0.67810 0.57670 -0.03500
C 	C 	0.36610 0.70230 0.60570 0.01700
H 	H 	0.33140 0.70680 0.60430 0.00200
C 	C 	0.46650 0.64740 0.55240 0.00300
