data_crystal

_cell_length_a 16.21070
_cell_length_b 14.97810
_cell_length_c 7.95730
_cell_angle_alpha 90.00000
_cell_angle_beta  92.06900
_cell_angle_gamma 90.00000

_symmetry_space_group_name_	'P 1'
_symmetry_space_group_name_H-M	'P 1'

loop_
_symmetry_equiv_pos_as_xyz
  x,y,z

loop_
_atom_site_label
_atom_site_type_symbol
_atom_site_fract_x
_atom_site_fract_y
_atom_site_fract_z
_atom_site_charge
Ag	Ag	0.02724 0.26053 0.39942 0.47700
Tb	Tb	0.54616 0.38364 0.95109 1.97200
C 	C 	0.86760 0.32860 0.54060 -0.00500
H 	H 	0.89410 0.38270 0.52320 -0.01300
C 	C 	0.78985 0.32920 0.60660 -0.02000
H 	H 	0.76500 0.38290 0.63460 0.02800
C 	C 	0.74937 0.24911 0.63060 -0.13500
C 	C 	0.78861 0.17110 0.58860 -0.00300
H 	H 	0.76290 0.11630 0.60300 0.00700
C 	C 	0.86702 0.17520 0.52450 -0.01100
H 	H 	0.89340 0.12230 0.49700 -0.00500
C 	C 	0.66426 0.24908 0.70010 0.46100
C 	C 	0.21140 0.25290 0.29390 -0.00300
H 	H 	0.20890 0.19300 0.32440 -0.00100
C 	C 	0.28536 0.28730 0.24220 -0.02400
H 	H 	0.33170 0.25090 0.23780 0.03200
C 	C 	0.28995 0.37570 0.19740 -0.12200
C 	C 	0.21958 0.42700 0.20410 -0.03900
H 	H 	0.22070 0.48700 0.17430 0.03600
C 	C 	0.14740 0.38850 0.25540 -0.00600
H 	H 	0.10000 0.42350 0.25810 -0.01700
C 	C 	0.36818 0.41850 0.14100 0.45200
C 	C 	0.42970 0.45765 0.71230 0.77200
C 	C 	0.36350 0.49300 0.59490 -1.30800
H 	H 	0.32020 0.44950 0.58190 0.41000
H 	H 	0.34150 0.54710 0.63990 0.41900
H 	H 	0.38620 0.50490 0.48740 0.41700
N 	N 	0.90607 0.25295 0.50100 -0.19100
N 	N 	0.14304 0.30310 0.30140 -0.19600
O 	O 	0.64283 0.31548 0.78170 -0.52200
O 	O 	0.61935 0.18103 0.67200 -0.54700
O 	O 	0.42524 0.36614 0.09800 -0.51700
O 	O 	0.37085 0.50152 0.14190 -0.51800
O 	O 	0.45016 0.50164 0.84250 -0.69900
O 	O 	0.46498 0.38449 0.68690 -0.58800
Ag	Ag	0.97276 0.76053 0.10058 0.47700
Tb	Tb	0.45384 0.88364 0.54891 1.97500
C 	C 	0.13240 0.82860 0.95940 -0.00400
H 	H 	0.10590 0.88270 0.97680 -0.01100
C 	C 	0.21015 0.82920 0.89340 -0.01900
H 	H 	0.23500 0.88290 0.86540 0.02900
C 	C 	0.25063 0.74911 0.86940 -0.13300
C 	C 	0.21139 0.67110 0.91140 -0.00300
H 	H 	0.23710 0.61630 0.89700 0.00900
C 	C 	0.13298 0.67520 0.97550 -0.00700
H 	H 	0.10660 0.62230 0.00300 -0.00700
C 	C 	0.33574 0.74908 0.79990 0.46100
C 	C 	0.78860 0.75290 0.20610 -0.00400
H 	H 	0.79110 0.69300 0.17560 -0.00100
C 	C 	0.71464 0.78730 0.25780 -0.02400
H 	H 	0.66830 0.75090 0.26220 0.03200
C 	C 	0.71005 0.87570 0.30260 -0.12200
C 	C 	0.78042 0.92700 0.29590 -0.03900
H 	H 	0.77930 0.98700 0.32570 0.03500
C 	C 	0.85260 0.88850 0.24460 -0.00700
H 	H 	0.90000 0.92350 0.24190 -0.01800
C 	C 	0.63182 0.91850 0.35900 0.45100
C 	C 	0.57030 0.95765 0.78770 0.77300
C 	C 	0.63650 0.99300 0.90510 -1.30300
H 	H 	0.67980 0.94950 0.91810 0.41000
H 	H 	0.65850 0.04710 0.86010 0.41600
H 	H 	0.61380 0.00490 0.01260 0.41700
N 	N 	0.09393 0.75295 0.99900 -0.19100
N 	N 	0.85696 0.80310 0.19860 -0.19700
O 	O 	0.35717 0.81548 0.71830 -0.52200
O 	O 	0.38065 0.68103 0.82800 -0.54600
O 	O 	0.57476 0.86614 0.40200 -0.51800
O 	O 	0.62915 0.00152 0.35810 -0.51800
O 	O 	0.54984 0.00164 0.65750 -0.70200
O 	O 	0.53502 0.88449 0.81310 -0.58700
Ag	Ag	0.97276 0.73947 0.60058 0.47800
Tb	Tb	0.45384 0.61636 0.04891 1.97300
C 	C 	0.13240 0.67140 0.45940 -0.00400
H 	H 	0.10590 0.61730 0.47680 -0.01200
C 	C 	0.21015 0.67080 0.39340 -0.01900
H 	H 	0.23500 0.61710 0.36540 0.02900
C 	C 	0.25063 0.75089 0.36940 -0.13400
C 	C 	0.21139 0.82890 0.41140 -0.00200
H 	H 	0.23710 0.88370 0.39700 0.00800
C 	C 	0.13298 0.82480 0.47550 -0.01000
H 	H 	0.10660 0.87770 0.50300 -0.00500
C 	C 	0.33574 0.75092 0.29990 0.46100
C 	C 	0.78860 0.74710 0.70610 -0.00300
H 	H 	0.79110 0.80700 0.67560 -0.00100
C 	C 	0.71464 0.71270 0.75780 -0.02400
H 	H 	0.66830 0.74910 0.76220 0.03200
C 	C 	0.71005 0.62430 0.80260 -0.12200
C 	C 	0.78042 0.57300 0.79590 -0.03900
H 	H 	0.77930 0.51300 0.82570 0.03600
C 	C 	0.85260 0.61150 0.74460 -0.00600
H 	H 	0.90000 0.57650 0.74190 -0.01700
C 	C 	0.63182 0.58150 0.85900 0.45200
C 	C 	0.57030 0.54235 0.28770 0.77200
C 	C 	0.63650 0.50700 0.40510 -1.30800
H 	H 	0.67980 0.55050 0.41810 0.41000
H 	H 	0.65850 0.45290 0.36010 0.41900
H 	H 	0.61380 0.49510 0.51260 0.41700
N 	N 	0.09393 0.74705 0.49900 -0.19100
N 	N 	0.85696 0.69690 0.69860 -0.19600
O 	O 	0.35717 0.68452 0.21830 -0.52200
O 	O 	0.38065 0.81897 0.32800 -0.54700
O 	O 	0.57476 0.63386 0.90200 -0.51700
O 	O 	0.62915 0.49848 0.85810 -0.51800
O 	O 	0.54984 0.49836 0.15750 -0.69900
O 	O 	0.53502 0.61551 0.31310 -0.58800
Ag	Ag	0.02724 0.23947 0.89942 0.47700
Tb	Tb	0.54616 0.11636 0.45109 1.97500
C 	C 	0.86760 0.17140 0.04060 -0.00400
H 	H 	0.89410 0.11730 0.02320 -0.01100
C 	C 	0.78985 0.17080 0.10660 -0.01900
H 	H 	0.76500 0.11710 0.13460 0.02900
C 	C 	0.74937 0.25089 0.13060 -0.13300
C 	C 	0.78861 0.32890 0.08860 -0.00300
H 	H 	0.76290 0.38370 0.10300 0.00900
C 	C 	0.86702 0.32480 0.02450 -0.00700
H 	H 	0.89340 0.37770 0.99700 -0.00700
C 	C 	0.66426 0.25092 0.20010 0.46100
C 	C 	0.21140 0.24710 0.79390 -0.00400
H 	H 	0.20890 0.30700 0.82440 -0.00100
C 	C 	0.28536 0.21270 0.74220 -0.02400
H 	H 	0.33170 0.24910 0.73780 0.03200
C 	C 	0.28995 0.12430 0.69740 -0.12200
C 	C 	0.21958 0.07300 0.70410 -0.03900
H 	H 	0.22070 0.01300 0.67430 0.03500
C 	C 	0.14740 0.11150 0.75540 -0.00700
H 	H 	0.10000 0.07650 0.75810 -0.01800
C 	C 	0.36818 0.08150 0.64100 0.45100
C 	C 	0.42970 0.04235 0.21230 0.77300
C 	C 	0.36350 0.00700 0.09490 -1.30300
H 	H 	0.32020 0.05050 0.08190 0.41000
H 	H 	0.34150 0.95290 0.13990 0.41600
H 	H 	0.38620 0.99510 0.98740 0.41700
N 	N 	0.90607 0.24705 0.00100 -0.19100
N 	N 	0.14304 0.19690 0.80140 -0.19700
O 	O 	0.64283 0.18452 0.28170 -0.52200
O 	O 	0.61935 0.31897 0.17200 -0.54600
O 	O 	0.42524 0.13386 0.59800 -0.51800
O 	O 	0.37085 0.99848 0.64190 -0.51800
O 	O 	0.45016 0.99836 0.34250 -0.70200
O 	O 	0.46498 0.11551 0.18690 -0.58700
