data_crystal

_cell_length_a 30.57650
_cell_length_b 28.36300
_cell_length_c 12.27560
_cell_angle_alpha 90.00000
_cell_angle_beta  90.00000
_cell_angle_gamma 90.00000

_symmetry_space_group_name_	'P 1'
_symmetry_space_group_name_H-M	'P 1'

loop_
_symmetry_equiv_pos_as_xyz
  x,y,z

loop_
_atom_site_label
_atom_site_type_symbol
_atom_site_fract_x
_atom_site_fract_y
_atom_site_fract_z
_atom_site_charge
N 	N 	0.42976 0.07759 0.51680 -0.20500
N 	N 	0.58713 0.92533 0.97090 -0.20100
C 	C 	0.41570 0.03707 0.47480 0.10700
H 	H 	0.38800 0.02660 0.49450 -0.02400
C 	C 	0.43967 0.00972 0.40370 -0.21500
H 	H 	0.42790 0.98190 0.37650 0.09400
C 	C 	0.48052 0.02339 0.37330 0.15600
C 	C 	0.49588 0.06498 0.41780 -0.21100
H 	H 	0.52380 0.07570 0.40050 0.09200
C 	C 	0.46982 0.09041 0.48790 0.10900
H 	H 	0.48100 0.11820 0.51670 -0.02500
C 	C 	0.59750 0.96939 0.99990 0.10300
H 	H 	0.62370 0.98190 0.97440 -0.02100
C 	C 	0.57173 0.99733 0.06540 -0.20800
H 	H 	0.58080 0.02760 0.08360 0.09000
C 	C 	0.53245 0.98026 0.10400 0.14700
C 	C 	0.52106 0.93524 0.07170 -0.20700
H 	H 	0.49460 0.92230 0.09430 0.09200
C 	C 	0.54857 0.90955 0.00640 0.10200
H 	H 	0.53990 0.87940 0.98570 -0.02000
C 	C 	0.50853 0.99476 0.29670 -0.17900
H 	H 	0.50090 0.96170 0.30430 0.07500
H 	H 	0.53890 0.99830 0.31760 0.07700
C 	C 	0.50356 0.00887 0.17830 -0.17700
H 	H 	0.51080 0.04200 0.17050 0.07700
H 	H 	0.47330 0.00480 0.15650 0.08000
N 	N 	0.42976 0.57759 0.01680 -0.20400
N 	N 	0.58713 0.42533 0.47090 -0.20000
C 	C 	0.41570 0.53707 0.97480 0.10800
H 	H 	0.38800 0.52660 0.99450 -0.02300
C 	C 	0.43967 0.50972 0.90370 -0.21400
H 	H 	0.42790 0.48190 0.87650 0.09500
C 	C 	0.48052 0.52339 0.87330 0.15700
C 	C 	0.49588 0.56498 0.91780 -0.21000
H 	H 	0.52380 0.57570 0.90050 0.09300
C 	C 	0.46982 0.59041 0.98790 0.11000
H 	H 	0.48100 0.61820 0.01670 -0.02400
C 	C 	0.59750 0.46939 0.49990 0.10400
H 	H 	0.62370 0.48190 0.47440 -0.02000
C 	C 	0.57173 0.49733 0.56540 -0.20600
H 	H 	0.58080 0.52760 0.58360 0.09100
C 	C 	0.53245 0.48026 0.60400 0.14800
C 	C 	0.52106 0.43524 0.57170 -0.20600
H 	H 	0.49460 0.42230 0.59430 0.09300
C 	C 	0.54857 0.40955 0.50640 0.10300
H 	H 	0.53990 0.37940 0.48570 -0.01900
C 	C 	0.50853 0.49476 0.79670 -0.17800
H 	H 	0.50090 0.46170 0.80430 0.07600
H 	H 	0.53890 0.49830 0.81760 0.07800
C 	C 	0.50356 0.50887 0.67830 -0.17600
H 	H 	0.51080 0.54200 0.67050 0.07700
H 	H 	0.47330 0.50480 0.65650 0.08000
N 	N 	0.92976 0.07759 0.01680 -0.20400
N 	N 	0.08713 0.92533 0.47090 -0.20000
C 	C 	0.91570 0.03707 0.97480 0.10700
H 	H 	0.88800 0.02660 0.99450 -0.02200
C 	C 	0.93967 0.00972 0.90370 -0.21300
H 	H 	0.92790 0.98190 0.87650 0.09400
C 	C 	0.98052 0.02339 0.87330 0.15600
C 	C 	0.99588 0.06498 0.91780 -0.20900
H 	H 	0.02380 0.07570 0.90050 0.09200
C 	C 	0.96982 0.09041 0.98790 0.11000
H 	H 	0.98100 0.11820 0.01670 -0.02500
C 	C 	0.09750 0.96939 0.49990 0.10400
H 	H 	0.12370 0.98190 0.47440 -0.02000
C 	C 	0.07173 0.99733 0.56540 -0.20700
H 	H 	0.08080 0.02760 0.58360 0.09100
C 	C 	0.03245 0.98026 0.60400 0.14900
C 	C 	0.02106 0.93524 0.57170 -0.20600
H 	H 	0.99460 0.92230 0.59430 0.09300
C 	C 	0.04857 0.90955 0.50640 0.10300
H 	H 	0.03990 0.87940 0.48570 -0.01900
C 	C 	0.00853 0.99476 0.79670 -0.17700
H 	H 	0.00090 0.96170 0.80430 0.07600
H 	H 	0.03890 0.99830 0.81760 0.07700
C 	C 	0.00356 0.00887 0.67830 -0.17800
H 	H 	0.01080 0.04200 0.67050 0.07700
H 	H 	0.97330 0.00480 0.65650 0.08100
N 	N 	0.92976 0.57759 0.51680 -0.20400
N 	N 	0.08713 0.42533 0.97090 -0.20000
C 	C 	0.91570 0.53707 0.47480 0.10800
H 	H 	0.88800 0.52660 0.49450 -0.02300
C 	C 	0.93967 0.50972 0.40370 -0.21400
H 	H 	0.92790 0.48190 0.37650 0.09500
C 	C 	0.98052 0.52339 0.37330 0.15800
C 	C 	0.99588 0.56498 0.41780 -0.21000
H 	H 	0.02380 0.57570 0.40050 0.09300
C 	C 	0.96982 0.59041 0.48790 0.11000
H 	H 	0.98100 0.61820 0.51670 -0.02500
C 	C 	0.09750 0.46939 0.99990 0.10300
H 	H 	0.12370 0.48190 0.97440 -0.02000
C 	C 	0.07173 0.49733 0.06540 -0.20600
H 	H 	0.08080 0.52760 0.08360 0.09100
C 	C 	0.03245 0.48026 0.10400 0.14800
C 	C 	0.02106 0.43524 0.07170 -0.20600
H 	H 	0.99460 0.42230 0.09430 0.09300
C 	C 	0.04857 0.40955 0.00640 0.10300
H 	H 	0.03990 0.37940 0.98570 -0.01900
C 	C 	0.00853 0.49476 0.29670 -0.17900
H 	H 	0.00090 0.46170 0.30430 0.07700
H 	H 	0.03890 0.49830 0.31760 0.07800
C 	C 	0.00356 0.50887 0.17830 -0.17600
H 	H 	0.01080 0.54200 0.17050 0.07700
H 	H 	0.97330 0.50480 0.15650 0.08000
N 	N 	0.42976 0.67241 0.23320 -0.20400
N 	N 	0.58713 0.82467 0.77910 -0.20000
C 	C 	0.41570 0.71293 0.27520 0.10800
H 	H 	0.38800 0.72340 0.25550 -0.02300
C 	C 	0.43967 0.74028 0.34630 -0.21400
H 	H 	0.42790 0.76810 0.37350 0.09500
C 	C 	0.48052 0.72661 0.37670 0.15700
C 	C 	0.49588 0.68502 0.33220 -0.21000
H 	H 	0.52380 0.67430 0.34950 0.09300
C 	C 	0.46982 0.65959 0.26210 0.11000
H 	H 	0.48100 0.63180 0.23330 -0.02400
C 	C 	0.59750 0.78061 0.75010 0.10400
H 	H 	0.62370 0.76810 0.77560 -0.02000
C 	C 	0.57173 0.75267 0.68460 -0.20600
H 	H 	0.58080 0.72240 0.66640 0.09100
C 	C 	0.53245 0.76974 0.64600 0.14800
C 	C 	0.52106 0.81476 0.67830 -0.20600
H 	H 	0.49460 0.82770 0.65570 0.09300
C 	C 	0.54857 0.84045 0.74360 0.10300
H 	H 	0.53990 0.87060 0.76430 -0.01900
C 	C 	0.50853 0.75524 0.45330 -0.17800
H 	H 	0.50090 0.78830 0.44570 0.07600
H 	H 	0.53890 0.75170 0.43240 0.07800
C 	C 	0.50356 0.74113 0.57170 -0.17600
H 	H 	0.51080 0.70800 0.57950 0.07700
H 	H 	0.47330 0.74520 0.59350 0.08000
N 	N 	0.42976 0.17241 0.73320 -0.20400
N 	N 	0.58713 0.32467 0.27910 -0.20000
C 	C 	0.41570 0.21293 0.77520 0.10800
H 	H 	0.38800 0.22340 0.75550 -0.02300
C 	C 	0.43967 0.24028 0.84630 -0.21400
H 	H 	0.42790 0.26810 0.87350 0.09500
C 	C 	0.48052 0.22661 0.87670 0.15700
C 	C 	0.49588 0.18502 0.83220 -0.21000
H 	H 	0.52380 0.17430 0.84950 0.09300
C 	C 	0.46982 0.15959 0.76210 0.11000
H 	H 	0.48100 0.13180 0.73330 -0.02400
C 	C 	0.59750 0.28061 0.25010 0.10400
H 	H 	0.62370 0.26810 0.27560 -0.02000
C 	C 	0.57173 0.25267 0.18460 -0.20600
H 	H 	0.58080 0.22240 0.16640 0.09100
C 	C 	0.53245 0.26974 0.14600 0.14800
C 	C 	0.52106 0.31476 0.17830 -0.20600
H 	H 	0.49460 0.32770 0.15570 0.09300
C 	C 	0.54857 0.34045 0.24360 0.10300
H 	H 	0.53990 0.37060 0.26430 -0.01900
C 	C 	0.50853 0.25524 0.95330 -0.17800
H 	H 	0.50090 0.28830 0.94570 0.07600
H 	H 	0.53890 0.25170 0.93240 0.07800
C 	C 	0.50356 0.24113 0.07170 -0.17600
H 	H 	0.51080 0.20800 0.07950 0.07700
H 	H 	0.47330 0.24520 0.09350 0.08000
N 	N 	0.92976 0.67241 0.73320 -0.20400
N 	N 	0.08713 0.82467 0.27910 -0.20000
C 	C 	0.91570 0.71293 0.77520 0.10800
H 	H 	0.88800 0.72340 0.75550 -0.02300
C 	C 	0.93967 0.74028 0.84630 -0.21400
H 	H 	0.92790 0.76810 0.87350 0.09500
C 	C 	0.98052 0.72661 0.87670 0.15800
C 	C 	0.99588 0.68502 0.83220 -0.21000
H 	H 	0.02380 0.67430 0.84950 0.09300
C 	C 	0.96982 0.65959 0.76210 0.11000
H 	H 	0.98100 0.63180 0.73330 -0.02500
C 	C 	0.09750 0.78061 0.25010 0.10300
H 	H 	0.12370 0.76810 0.27560 -0.02000
C 	C 	0.07173 0.75267 0.18460 -0.20600
H 	H 	0.08080 0.72240 0.16640 0.09100
C 	C 	0.03245 0.76974 0.14600 0.14700
C 	C 	0.02106 0.81476 0.17830 -0.20400
H 	H 	0.99460 0.82770 0.15570 0.09200
C 	C 	0.04857 0.84045 0.24360 0.10200
H 	H 	0.03990 0.87060 0.26430 -0.01900
C 	C 	0.00853 0.75524 0.95330 -0.18000
H 	H 	0.00090 0.78830 0.94570 0.07700
H 	H 	0.03890 0.75170 0.93240 0.07800
C 	C 	0.00356 0.74113 0.07170 -0.17500
H 	H 	0.01080 0.70800 0.07950 0.07700
H 	H 	0.97330 0.74520 0.09350 0.08000
N 	N 	0.92976 0.17241 0.23320 -0.20400
N 	N 	0.08713 0.32467 0.77910 -0.20000
C 	C 	0.91570 0.21293 0.27520 0.10800
H 	H 	0.88800 0.22340 0.25550 -0.02200
C 	C 	0.93967 0.24028 0.34630 -0.21400
H 	H 	0.92790 0.26810 0.37350 0.09500
C 	C 	0.98052 0.22661 0.37670 0.15700
C 	C 	0.99588 0.18502 0.33220 -0.21000
H 	H 	0.02380 0.17430 0.34950 0.09300
C 	C 	0.96982 0.15959 0.26210 0.11000
H 	H 	0.98100 0.13180 0.23330 -0.02400
C 	C 	0.09750 0.28061 0.75010 0.10400
H 	H 	0.12370 0.26810 0.77560 -0.02000
C 	C 	0.07173 0.25267 0.68460 -0.20700
H 	H 	0.08080 0.22240 0.66640 0.09100
C 	C 	0.03245 0.26974 0.64600 0.14800
C 	C 	0.02106 0.31476 0.67830 -0.20600
H 	H 	0.99460 0.32770 0.65570 0.09300
C 	C 	0.04857 0.34045 0.74360 0.10300
H 	H 	0.03990 0.37060 0.76430 -0.01900
C 	C 	0.00853 0.25524 0.45330 -0.17800
H 	H 	0.00090 0.28830 0.44570 0.07600
H 	H 	0.03890 0.25170 0.43240 0.07800
C 	C 	0.00356 0.24113 0.57170 -0.17700
H 	H 	0.01080 0.20800 0.57950 0.07700
H 	H 	0.97330 0.24520 0.59350 0.08100
N 	N 	0.67976 0.32759 0.48320 -0.20400
N 	N 	0.83713 0.17533 0.02910 -0.20000
C 	C 	0.66570 0.28707 0.52520 0.10800
H 	H 	0.63800 0.27660 0.50550 -0.02300
C 	C 	0.68967 0.25972 0.59630 -0.21400
H 	H 	0.67790 0.23190 0.62350 0.09500
C 	C 	0.73052 0.27339 0.62670 0.15700
C 	C 	0.74588 0.31498 0.58220 -0.21000
H 	H 	0.77380 0.32570 0.59950 0.09300
C 	C 	0.71982 0.34041 0.51210 0.11000
H 	H 	0.73100 0.36820 0.48330 -0.02400
C 	C 	0.84750 0.21939 0.00010 0.10400
H 	H 	0.87370 0.23190 0.02560 -0.02000
C 	C 	0.82173 0.24733 0.93460 -0.20600
H 	H 	0.83080 0.27760 0.91640 0.09100
C 	C 	0.78245 0.23026 0.89600 0.14800
C 	C 	0.77106 0.18524 0.92830 -0.20600
H 	H 	0.74460 0.17230 0.90570 0.09300
C 	C 	0.79857 0.15955 0.99360 0.10300
H 	H 	0.78990 0.12940 0.01430 -0.01900
C 	C 	0.75853 0.24476 0.70330 -0.17800
H 	H 	0.75090 0.21170 0.69570 0.07600
H 	H 	0.78890 0.24830 0.68240 0.07800
C 	C 	0.75356 0.25887 0.82170 -0.17600
H 	H 	0.76080 0.29200 0.82950 0.07700
H 	H 	0.72330 0.25480 0.84350 0.08100
N 	N 	0.67976 0.82759 0.98320 -0.20400
N 	N 	0.83713 0.67533 0.52910 -0.20000
C 	C 	0.66570 0.78707 0.02520 0.10800
H 	H 	0.63800 0.77660 0.00550 -0.02300
C 	C 	0.68967 0.75972 0.09630 -0.21400
H 	H 	0.67790 0.73190 0.12350 0.09500
C 	C 	0.73052 0.77339 0.12670 0.15700
C 	C 	0.74588 0.81498 0.08220 -0.21000
H 	H 	0.77380 0.82570 0.09950 0.09300
C 	C 	0.71982 0.84041 0.01210 0.11000
H 	H 	0.73100 0.86820 0.98330 -0.02400
C 	C 	0.84750 0.71939 0.50010 0.10400
H 	H 	0.87370 0.73190 0.52560 -0.02000
C 	C 	0.82173 0.74733 0.43460 -0.20600
H 	H 	0.83080 0.77760 0.41640 0.09100
C 	C 	0.78245 0.73026 0.39600 0.14800
C 	C 	0.77106 0.68524 0.42830 -0.20600
H 	H 	0.74460 0.67230 0.40570 0.09300
C 	C 	0.79857 0.65955 0.49360 0.10300
H 	H 	0.78990 0.62940 0.51430 -0.01900
C 	C 	0.75853 0.74476 0.20330 -0.17800
H 	H 	0.75090 0.71170 0.19570 0.07600
H 	H 	0.78890 0.74830 0.18240 0.07800
C 	C 	0.75356 0.75887 0.32170 -0.17600
H 	H 	0.76080 0.79200 0.32950 0.07700
H 	H 	0.72330 0.75480 0.34350 0.08000
N 	N 	0.17976 0.32759 0.98320 -0.20400
N 	N 	0.33713 0.17533 0.52910 -0.20000
C 	C 	0.16570 0.28707 0.02520 0.10800
H 	H 	0.13800 0.27660 0.00550 -0.02300
C 	C 	0.18967 0.25972 0.09630 -0.21400
H 	H 	0.17790 0.23190 0.12350 0.09500
C 	C 	0.23052 0.27339 0.12670 0.15800
C 	C 	0.24588 0.31498 0.08220 -0.21000
H 	H 	0.27380 0.32570 0.09950 0.09300
C 	C 	0.21982 0.34041 0.01210 0.11000
H 	H 	0.23100 0.36820 0.98330 -0.02500
C 	C 	0.34750 0.21939 0.50010 0.10400
H 	H 	0.37370 0.23190 0.52560 -0.02000
C 	C 	0.32173 0.24733 0.43460 -0.20600
H 	H 	0.33080 0.27760 0.41640 0.09100
C 	C 	0.28245 0.23026 0.39600 0.14800
C 	C 	0.27106 0.18524 0.42830 -0.20600
H 	H 	0.24460 0.17230 0.40570 0.09300
C 	C 	0.29857 0.15955 0.49360 0.10300
H 	H 	0.28990 0.12940 0.51430 -0.01900
C 	C 	0.25853 0.24476 0.20330 -0.17800
H 	H 	0.25090 0.21170 0.19570 0.07700
H 	H 	0.28890 0.24830 0.18240 0.07800
C 	C 	0.25356 0.25887 0.32170 -0.17600
H 	H 	0.26080 0.29200 0.32950 0.07700
H 	H 	0.22330 0.25480 0.34350 0.08000
N 	N 	0.17976 0.82759 0.48320 -0.20400
N 	N 	0.33713 0.67533 0.02910 -0.20000
C 	C 	0.16570 0.78707 0.52520 0.10800
H 	H 	0.13800 0.77660 0.50550 -0.02300
C 	C 	0.18967 0.75972 0.59630 -0.21400
H 	H 	0.17790 0.73190 0.62350 0.09500
C 	C 	0.23052 0.77339 0.62670 0.15700
C 	C 	0.24588 0.81498 0.58220 -0.21000
H 	H 	0.27380 0.82570 0.59950 0.09300
C 	C 	0.21982 0.84041 0.51210 0.11000
H 	H 	0.23100 0.86820 0.48330 -0.02400
C 	C 	0.34750 0.71939 0.00010 0.10400
H 	H 	0.37370 0.73190 0.02560 -0.02000
C 	C 	0.32173 0.74733 0.93460 -0.20700
H 	H 	0.33080 0.77760 0.91640 0.09100
C 	C 	0.28245 0.73026 0.89600 0.14800
C 	C 	0.27106 0.68524 0.92830 -0.20600
H 	H 	0.24460 0.67230 0.90570 0.09300
C 	C 	0.29857 0.65955 0.99360 0.10300
H 	H 	0.28990 0.62940 0.01430 -0.01900
C 	C 	0.25853 0.74476 0.70330 -0.17800
H 	H 	0.25090 0.71170 0.69570 0.07600
H 	H 	0.28890 0.74830 0.68240 0.07800
C 	C 	0.25356 0.75887 0.82170 -0.17600
H 	H 	0.26080 0.79200 0.82950 0.07700
H 	H 	0.22330 0.75480 0.84350 0.08000
N 	N 	0.67976 0.92241 0.76680 -0.20400
N 	N 	0.83713 0.07467 0.22090 -0.20000
C 	C 	0.66570 0.96293 0.72480 0.10800
H 	H 	0.63800 0.97340 0.74450 -0.02300
C 	C 	0.68967 0.99028 0.65370 -0.21400
H 	H 	0.67790 0.01810 0.62650 0.09500
C 	C 	0.73052 0.97661 0.62330 0.15700
C 	C 	0.74588 0.93502 0.66780 -0.21000
H 	H 	0.77380 0.92430 0.65050 0.09300
C 	C 	0.71982 0.90959 0.73790 0.11000
H 	H 	0.73100 0.88180 0.76670 -0.02400
C 	C 	0.84750 0.03061 0.24990 0.10400
H 	H 	0.87370 0.01810 0.22440 -0.02000
C 	C 	0.82173 0.00267 0.31540 -0.20600
H 	H 	0.83080 0.97240 0.33360 0.09100
C 	C 	0.78245 0.01974 0.35400 0.14800
C 	C 	0.77106 0.06476 0.32170 -0.20600
H 	H 	0.74460 0.07770 0.34430 0.09300
C 	C 	0.79857 0.09045 0.25640 0.10300
H 	H 	0.78990 0.12060 0.23570 -0.01900
C 	C 	0.75853 0.00524 0.54670 -0.17800
H 	H 	0.75090 0.03830 0.55430 0.07600
H 	H 	0.78890 0.00170 0.56760 0.07800
C 	C 	0.75356 0.99113 0.42830 -0.17700
H 	H 	0.76080 0.95800 0.42050 0.07700
H 	H 	0.72330 0.99520 0.40650 0.08100
N 	N 	0.67976 0.42241 0.26680 -0.20400
N 	N 	0.83713 0.57467 0.72090 -0.20000
C 	C 	0.66570 0.46293 0.22480 0.10800
H 	H 	0.63800 0.47340 0.24450 -0.02300
C 	C 	0.68967 0.49028 0.15370 -0.21400
H 	H 	0.67790 0.51810 0.12650 0.09500
C 	C 	0.73052 0.47661 0.12330 0.15700
C 	C 	0.74588 0.43502 0.16780 -0.21000
H 	H 	0.77380 0.42430 0.15050 0.09300
C 	C 	0.71982 0.40959 0.23790 0.11000
H 	H 	0.73100 0.38180 0.26670 -0.02400
C 	C 	0.84750 0.53061 0.74990 0.10400
H 	H 	0.87370 0.51810 0.72440 -0.02000
C 	C 	0.82173 0.50267 0.81540 -0.20600
H 	H 	0.83080 0.47240 0.83360 0.09100
C 	C 	0.78245 0.51974 0.85400 0.14800
C 	C 	0.77106 0.56476 0.82170 -0.20600
H 	H 	0.74460 0.57770 0.84430 0.09300
C 	C 	0.79857 0.59045 0.75640 0.10300
H 	H 	0.78990 0.62060 0.73570 -0.01900
C 	C 	0.75853 0.50524 0.04670 -0.17800
H 	H 	0.75090 0.53830 0.05430 0.07700
H 	H 	0.78890 0.50170 0.06760 0.07800
C 	C 	0.75356 0.49113 0.92830 -0.17600
H 	H 	0.76080 0.45800 0.92050 0.07700
H 	H 	0.72330 0.49520 0.90650 0.08000
N 	N 	0.17976 0.92241 0.26680 -0.20400
N 	N 	0.33713 0.07467 0.72090 -0.20000
C 	C 	0.16570 0.96293 0.22480 0.10800
H 	H 	0.13800 0.97340 0.24450 -0.02200
C 	C 	0.18967 0.99028 0.15370 -0.21400
H 	H 	0.17790 0.01810 0.12650 0.09500
C 	C 	0.23052 0.97661 0.12330 0.15800
C 	C 	0.24588 0.93502 0.16780 -0.21000
H 	H 	0.27380 0.92430 0.15050 0.09300
C 	C 	0.21982 0.90959 0.23790 0.11000
H 	H 	0.23100 0.88180 0.26670 -0.02400
C 	C 	0.34750 0.03061 0.74990 0.10400
H 	H 	0.37370 0.01810 0.72440 -0.02000
C 	C 	0.32173 0.00267 0.81540 -0.20700
H 	H 	0.33080 0.97240 0.83360 0.09100
C 	C 	0.28245 0.01974 0.85400 0.14800
C 	C 	0.27106 0.06476 0.82170 -0.20600
H 	H 	0.24460 0.07770 0.84430 0.09300
C 	C 	0.29857 0.09045 0.75640 0.10300
H 	H 	0.28990 0.12060 0.73570 -0.01900
C 	C 	0.25853 0.00524 0.04670 -0.17900
H 	H 	0.25090 0.03830 0.05430 0.07700
H 	H 	0.28890 0.00170 0.06760 0.07800
C 	C 	0.25356 0.99113 0.92830 -0.17600
H 	H 	0.26080 0.95800 0.92050 0.07700
H 	H 	0.22330 0.99520 0.90650 0.08000
N 	N 	0.17976 0.42241 0.76680 -0.20400
N 	N 	0.33713 0.57467 0.22090 -0.20000
C 	C 	0.16570 0.46293 0.72480 0.10800
H 	H 	0.13800 0.47340 0.74450 -0.02300
C 	C 	0.18967 0.49028 0.65370 -0.21400
H 	H 	0.17790 0.51810 0.62650 0.09500
C 	C 	0.23052 0.47661 0.62330 0.15700
C 	C 	0.24588 0.43502 0.66780 -0.21000
H 	H 	0.27380 0.42430 0.65050 0.09300
C 	C 	0.21982 0.40959 0.73790 0.11000
H 	H 	0.23100 0.38180 0.76670 -0.02400
C 	C 	0.34750 0.53061 0.24990 0.10400
H 	H 	0.37370 0.51810 0.22440 -0.02000
C 	C 	0.32173 0.50267 0.31540 -0.20600
H 	H 	0.33080 0.47240 0.33360 0.09100
C 	C 	0.28245 0.51974 0.35400 0.14800
C 	C 	0.27106 0.56476 0.32170 -0.20600
H 	H 	0.24460 0.57770 0.34430 0.09300
C 	C 	0.29857 0.59045 0.25640 0.10300
H 	H 	0.28990 0.62060 0.23570 -0.01900
C 	C 	0.25853 0.50524 0.54670 -0.17800
H 	H 	0.25090 0.53830 0.55430 0.07600
H 	H 	0.28890 0.50170 0.56760 0.07800
C 	C 	0.25356 0.49113 0.42830 -0.17600
H 	H 	0.26080 0.45800 0.42050 0.07700
H 	H 	0.22330 0.49520 0.40650 0.08000
Ag	Ag	0.38446 0.12500 0.62500 0.53600
Ag	Ag	0.88446 0.12500 0.12500 0.53600
Ag	Ag	0.88446 0.62500 0.62500 0.53600
Ag	Ag	0.38446 0.62500 0.12500 0.53600
Ag	Ag	0.63446 0.37500 0.37500 0.53600
Ag	Ag	0.13446 0.37500 0.87500 0.53600
Ag	Ag	0.63446 0.87500 0.87500 0.53600
Ag	Ag	0.13446 0.87500 0.37500 0.53600
N 	N 	0.32024 0.67241 0.51680 -0.20400
N 	N 	0.16287 0.82467 0.97090 -0.20000
C 	C 	0.33430 0.71293 0.47480 0.10800
H 	H 	0.36200 0.72340 0.49450 -0.02300
C 	C 	0.31033 0.74028 0.40370 -0.21400
H 	H 	0.32210 0.76810 0.37650 0.09500
C 	C 	0.26948 0.72661 0.37330 0.15700
C 	C 	0.25412 0.68502 0.41780 -0.21000
H 	H 	0.22620 0.67430 0.40050 0.09300
C 	C 	0.28018 0.65959 0.48790 0.11000
H 	H 	0.26900 0.63180 0.51670 -0.02400
C 	C 	0.15250 0.78061 0.99990 0.10400
H 	H 	0.12630 0.76810 0.97440 -0.02000
C 	C 	0.17827 0.75267 0.06540 -0.20600
H 	H 	0.16920 0.72240 0.08360 0.09100
C 	C 	0.21755 0.76974 0.10400 0.14800
C 	C 	0.22894 0.81476 0.07170 -0.20600
H 	H 	0.25540 0.82770 0.09430 0.09300
C 	C 	0.20143 0.84045 0.00640 0.10300
H 	H 	0.21010 0.87060 0.98570 -0.01900
C 	C 	0.24147 0.75524 0.29670 -0.17800
H 	H 	0.24910 0.78830 0.30430 0.07600
H 	H 	0.21110 0.75170 0.31760 0.07800
C 	C 	0.24644 0.74113 0.17830 -0.17600
H 	H 	0.23920 0.70800 0.17050 0.07700
H 	H 	0.27670 0.74520 0.15650 0.08100
N 	N 	0.32024 0.17241 0.01680 -0.20400
N 	N 	0.16287 0.32467 0.47090 -0.20000
C 	C 	0.33430 0.21293 0.97480 0.10800
H 	H 	0.36200 0.22340 0.99450 -0.02300
C 	C 	0.31033 0.24028 0.90370 -0.21400
H 	H 	0.32210 0.26810 0.87650 0.09500
C 	C 	0.26948 0.22661 0.87330 0.15700
C 	C 	0.25412 0.18502 0.91780 -0.21000
H 	H 	0.22620 0.17430 0.90050 0.09300
C 	C 	0.28018 0.15959 0.98790 0.11000
H 	H 	0.26900 0.13180 0.01670 -0.02400
C 	C 	0.15250 0.28061 0.49990 0.10400
H 	H 	0.12630 0.26810 0.47440 -0.02000
C 	C 	0.17827 0.25267 0.56540 -0.20600
H 	H 	0.16920 0.22240 0.58360 0.09100
C 	C 	0.21755 0.26974 0.60400 0.14800
C 	C 	0.22894 0.31476 0.57170 -0.20600
H 	H 	0.25540 0.32770 0.59430 0.09300
C 	C 	0.20143 0.34045 0.50640 0.10300
H 	H 	0.21010 0.37060 0.48570 -0.01900
C 	C 	0.24147 0.25524 0.79670 -0.17800
H 	H 	0.24910 0.28830 0.80430 0.07600
H 	H 	0.21110 0.25170 0.81760 0.07800
C 	C 	0.24644 0.24113 0.67830 -0.17600
H 	H 	0.23920 0.20800 0.67050 0.07700
H 	H 	0.27670 0.24520 0.65650 0.08000
N 	N 	0.82024 0.67241 0.01680 -0.20400
N 	N 	0.66287 0.82467 0.47090 -0.20000
C 	C 	0.83430 0.71293 0.97480 0.10800
H 	H 	0.86200 0.72340 0.99450 -0.02300
C 	C 	0.81033 0.74028 0.90370 -0.21400
H 	H 	0.82210 0.76810 0.87650 0.09500
C 	C 	0.76948 0.72661 0.87330 0.15800
C 	C 	0.75412 0.68502 0.91780 -0.21000
H 	H 	0.72620 0.67430 0.90050 0.09300
C 	C 	0.78018 0.65959 0.98790 0.11000
H 	H 	0.76900 0.63180 0.01670 -0.02500
C 	C 	0.65250 0.78061 0.49990 0.10400
H 	H 	0.62630 0.76810 0.47440 -0.02000
C 	C 	0.67827 0.75267 0.56540 -0.20600
H 	H 	0.66920 0.72240 0.58360 0.09100
C 	C 	0.71755 0.76974 0.60400 0.14800
C 	C 	0.72894 0.81476 0.57170 -0.20600
H 	H 	0.75540 0.82770 0.59430 0.09300
C 	C 	0.70143 0.84045 0.50640 0.10300
H 	H 	0.71010 0.87060 0.48570 -0.01900
C 	C 	0.74147 0.75524 0.79670 -0.17800
H 	H 	0.74910 0.78830 0.80430 0.07700
H 	H 	0.71110 0.75170 0.81760 0.07800
C 	C 	0.74644 0.74113 0.67830 -0.17600
H 	H 	0.73920 0.70800 0.67050 0.07700
H 	H 	0.77670 0.74520 0.65650 0.08000
N 	N 	0.82024 0.17241 0.51680 -0.20400
N 	N 	0.66287 0.32467 0.97090 -0.20000
C 	C 	0.83430 0.21293 0.47480 0.10800
H 	H 	0.86200 0.22340 0.49450 -0.02300
C 	C 	0.81033 0.24028 0.40370 -0.21400
H 	H 	0.82210 0.26810 0.37650 0.09500
C 	C 	0.76948 0.22661 0.37330 0.15700
C 	C 	0.75412 0.18502 0.41780 -0.21000
H 	H 	0.72620 0.17430 0.40050 0.09300
C 	C 	0.78018 0.15959 0.48790 0.11000
H 	H 	0.76900 0.13180 0.51670 -0.02400
C 	C 	0.65250 0.28061 0.99990 0.10400
H 	H 	0.62630 0.26810 0.97440 -0.02000
C 	C 	0.67827 0.25267 0.06540 -0.20700
H 	H 	0.66920 0.22240 0.08360 0.09100
C 	C 	0.71755 0.26974 0.10400 0.14800
C 	C 	0.72894 0.31476 0.07170 -0.20600
H 	H 	0.75540 0.32770 0.09430 0.09300
C 	C 	0.70143 0.34045 0.00640 0.10300
H 	H 	0.71010 0.37060 0.98570 -0.01900
C 	C 	0.74147 0.25524 0.29670 -0.17800
H 	H 	0.74910 0.28830 0.30430 0.07600
H 	H 	0.71110 0.25170 0.31760 0.07800
C 	C 	0.74644 0.24113 0.17830 -0.17600
H 	H 	0.73920 0.20800 0.17050 0.07700
H 	H 	0.77670 0.24520 0.15650 0.08000
N 	N 	0.32024 0.07759 0.23320 -0.20400
N 	N 	0.16287 0.92533 0.77910 -0.20000
C 	C 	0.33430 0.03707 0.27520 0.10800
H 	H 	0.36200 0.02660 0.25550 -0.02300
C 	C 	0.31033 0.00972 0.34630 -0.21400
H 	H 	0.32210 0.98190 0.37350 0.09500
C 	C 	0.26948 0.02339 0.37670 0.15700
C 	C 	0.25412 0.06498 0.33220 -0.21000
H 	H 	0.22620 0.07570 0.34950 0.09300
C 	C 	0.28018 0.09041 0.26210 0.11000
H 	H 	0.26900 0.11820 0.23330 -0.02400
C 	C 	0.15250 0.96939 0.75010 0.10400
H 	H 	0.12630 0.98190 0.77560 -0.02000
C 	C 	0.17827 0.99733 0.68460 -0.20600
H 	H 	0.16920 0.02760 0.66640 0.09100
C 	C 	0.21755 0.98026 0.64600 0.14800
C 	C 	0.22894 0.93524 0.67830 -0.20600
H 	H 	0.25540 0.92230 0.65570 0.09300
C 	C 	0.20143 0.90955 0.74360 0.10300
H 	H 	0.21010 0.87940 0.76430 -0.01900
C 	C 	0.24147 0.99476 0.45330 -0.17800
H 	H 	0.24910 0.96170 0.44570 0.07600
H 	H 	0.21110 0.99830 0.43240 0.07800
C 	C 	0.24644 0.00887 0.57170 -0.17700
H 	H 	0.23920 0.04200 0.57950 0.07700
H 	H 	0.27670 0.00480 0.59350 0.08100
N 	N 	0.32024 0.57759 0.73320 -0.20400
N 	N 	0.16287 0.42533 0.27910 -0.20000
C 	C 	0.33430 0.53707 0.77520 0.10800
H 	H 	0.36200 0.52660 0.75550 -0.02300
C 	C 	0.31033 0.50972 0.84630 -0.21400
H 	H 	0.32210 0.48190 0.87350 0.09500
C 	C 	0.26948 0.52339 0.87670 0.15700
C 	C 	0.25412 0.56498 0.83220 -0.21000
H 	H 	0.22620 0.57570 0.84950 0.09300
C 	C 	0.28018 0.59041 0.76210 0.11000
H 	H 	0.26900 0.61820 0.73330 -0.02400
C 	C 	0.15250 0.46939 0.25010 0.10400
H 	H 	0.12630 0.48190 0.27560 -0.02000
C 	C 	0.17827 0.49733 0.18460 -0.20600
H 	H 	0.16920 0.52760 0.16640 0.09100
C 	C 	0.21755 0.48026 0.14600 0.14800
C 	C 	0.22894 0.43524 0.17830 -0.20600
H 	H 	0.25540 0.42230 0.15570 0.09300
C 	C 	0.20143 0.40955 0.24360 0.10300
H 	H 	0.21010 0.37940 0.26430 -0.01900
C 	C 	0.24147 0.49476 0.95330 -0.17800
H 	H 	0.24910 0.46170 0.94570 0.07700
H 	H 	0.21110 0.49830 0.93240 0.07800
C 	C 	0.24644 0.50887 0.07170 -0.17600
H 	H 	0.23920 0.54200 0.07950 0.07700
H 	H 	0.27670 0.50480 0.09350 0.08000
N 	N 	0.82024 0.07759 0.73320 -0.20400
N 	N 	0.66287 0.92533 0.27910 -0.20000
C 	C 	0.83430 0.03707 0.77520 0.10800
H 	H 	0.86200 0.02660 0.75550 -0.02200
C 	C 	0.81033 0.00972 0.84630 -0.21400
H 	H 	0.82210 0.98190 0.87350 0.09500
C 	C 	0.76948 0.02339 0.87670 0.15800
C 	C 	0.75412 0.06498 0.83220 -0.21000
H 	H 	0.72620 0.07570 0.84950 0.09300
C 	C 	0.78018 0.09041 0.76210 0.11000
H 	H 	0.76900 0.11820 0.73330 -0.02400
C 	C 	0.65250 0.96939 0.25010 0.10400
H 	H 	0.62630 0.98190 0.27560 -0.02000
C 	C 	0.67827 0.99733 0.18460 -0.20700
H 	H 	0.66920 0.02760 0.16640 0.09100
C 	C 	0.71755 0.98026 0.14600 0.14800
C 	C 	0.72894 0.93524 0.17830 -0.20600
H 	H 	0.75540 0.92230 0.15570 0.09300
C 	C 	0.70143 0.90955 0.24360 0.10300
H 	H 	0.71010 0.87940 0.26430 -0.01900
C 	C 	0.74147 0.99476 0.95330 -0.17900
H 	H 	0.74910 0.96170 0.94570 0.07700
H 	H 	0.71110 0.99830 0.93240 0.07800
C 	C 	0.74644 0.00887 0.07170 -0.17600
H 	H 	0.73920 0.04200 0.07950 0.07700
H 	H 	0.77670 0.00480 0.09350 0.08000
N 	N 	0.82024 0.57759 0.23320 -0.20400
N 	N 	0.66287 0.42533 0.77910 -0.20000
C 	C 	0.83430 0.53707 0.27520 0.10800
H 	H 	0.86200 0.52660 0.25550 -0.02300
C 	C 	0.81033 0.50972 0.34630 -0.21400
H 	H 	0.82210 0.48190 0.37350 0.09500
C 	C 	0.76948 0.52339 0.37670 0.15700
C 	C 	0.75412 0.56498 0.33220 -0.21000
H 	H 	0.72620 0.57570 0.34950 0.09300
C 	C 	0.78018 0.59041 0.26210 0.11000
H 	H 	0.76900 0.61820 0.23330 -0.02400
C 	C 	0.65250 0.46939 0.75010 0.10400
H 	H 	0.62630 0.48190 0.77560 -0.02000
C 	C 	0.67827 0.49733 0.68460 -0.20600
H 	H 	0.66920 0.52760 0.66640 0.09100
C 	C 	0.71755 0.48026 0.64600 0.14800
C 	C 	0.72894 0.43524 0.67830 -0.20600
H 	H 	0.75540 0.42230 0.65570 0.09300
C 	C 	0.70143 0.40955 0.74360 0.10300
H 	H 	0.71010 0.37940 0.76430 -0.01900
C 	C 	0.74147 0.49476 0.45330 -0.17800
H 	H 	0.74910 0.46170 0.44570 0.07600
H 	H 	0.71110 0.49830 0.43240 0.07800
C 	C 	0.74644 0.50887 0.57170 -0.17600
H 	H 	0.73920 0.54200 0.57950 0.07700
H 	H 	0.77670 0.50480 0.59350 0.08000
N 	N 	0.57024 0.92241 0.48320 -0.20400
N 	N 	0.41287 0.07467 0.02910 -0.20000
C 	C 	0.58430 0.96293 0.52520 0.10800
H 	H 	0.61200 0.97340 0.50550 -0.02300
C 	C 	0.56033 0.99028 0.59630 -0.21400
H 	H 	0.57210 0.01810 0.62350 0.09500
C 	C 	0.51948 0.97661 0.62670 0.15700
C 	C 	0.50412 0.93502 0.58220 -0.21000
H 	H 	0.47620 0.92430 0.59950 0.09300
C 	C 	0.53018 0.90959 0.51210 0.11000
H 	H 	0.51900 0.88180 0.48330 -0.02400
C 	C 	0.40250 0.03061 0.00010 0.10400
H 	H 	0.37630 0.01810 0.02560 -0.02000
C 	C 	0.42827 0.00267 0.93460 -0.20700
H 	H 	0.41920 0.97240 0.91640 0.09100
C 	C 	0.46755 0.01974 0.89600 0.14800
C 	C 	0.47894 0.06476 0.92830 -0.20600
H 	H 	0.50540 0.07770 0.90570 0.09300
C 	C 	0.45143 0.09045 0.99360 0.10300
H 	H 	0.46010 0.12060 0.01430 -0.01900
C 	C 	0.49147 0.00524 0.70330 -0.17800
H 	H 	0.49910 0.03830 0.69570 0.07600
H 	H 	0.46110 0.00170 0.68240 0.07800
C 	C 	0.49644 0.99113 0.82170 -0.17600
H 	H 	0.48920 0.95800 0.82950 0.07700
H 	H 	0.52670 0.99520 0.84350 0.08000
N 	N 	0.57024 0.42241 0.98320 -0.20400
N 	N 	0.41287 0.57467 0.52910 -0.20000
C 	C 	0.58430 0.46293 0.02520 0.10800
H 	H 	0.61200 0.47340 0.00550 -0.02300
C 	C 	0.56033 0.49028 0.09630 -0.21400
H 	H 	0.57210 0.51810 0.12350 0.09500
C 	C 	0.51948 0.47661 0.12670 0.15700
C 	C 	0.50412 0.43502 0.08220 -0.21000
H 	H 	0.47620 0.42430 0.09950 0.09300
C 	C 	0.53018 0.40959 0.01210 0.11000
H 	H 	0.51900 0.38180 0.98330 -0.02400
C 	C 	0.40250 0.53061 0.50010 0.10400
H 	H 	0.37630 0.51810 0.52560 -0.02000
C 	C 	0.42827 0.50267 0.43460 -0.20600
H 	H 	0.41920 0.47240 0.41640 0.09100
C 	C 	0.46755 0.51974 0.39600 0.14800
C 	C 	0.47894 0.56476 0.42830 -0.20600
H 	H 	0.50540 0.57770 0.40570 0.09300
C 	C 	0.45143 0.59045 0.49360 0.10300
H 	H 	0.46010 0.62060 0.51430 -0.01900
C 	C 	0.49147 0.50524 0.20330 -0.17800
H 	H 	0.49910 0.53830 0.19570 0.07600
H 	H 	0.46110 0.50170 0.18240 0.07800
C 	C 	0.49644 0.49113 0.32170 -0.17600
H 	H 	0.48920 0.45800 0.32950 0.07700
H 	H 	0.52670 0.49520 0.34350 0.08000
N 	N 	0.07024 0.92241 0.98320 -0.20400
N 	N 	0.91287 0.07467 0.52910 -0.20000
C 	C 	0.08430 0.96293 0.02520 0.10700
H 	H 	0.11200 0.97340 0.00550 -0.02200
C 	C 	0.06033 0.99028 0.09630 -0.21300
H 	H 	0.07210 0.01810 0.12350 0.09400
C 	C 	0.01948 0.97661 0.12670 0.15600
C 	C 	0.00412 0.93502 0.08220 -0.20900
H 	H 	0.97620 0.92430 0.09950 0.09200
C 	C 	0.03018 0.90959 0.01210 0.11000
H 	H 	0.01900 0.88180 0.98330 -0.02500
C 	C 	0.90250 0.03061 0.50010 0.10400
H 	H 	0.87630 0.01810 0.52560 -0.02000
C 	C 	0.92827 0.00267 0.43460 -0.20700
H 	H 	0.91920 0.97240 0.41640 0.09100
C 	C 	0.96755 0.01974 0.39600 0.14900
C 	C 	0.97894 0.06476 0.42830 -0.20600
H 	H 	0.00540 0.07770 0.40570 0.09300
C 	C 	0.95143 0.09045 0.49360 0.10300
H 	H 	0.96010 0.12060 0.51430 -0.01900
C 	C 	0.99147 0.00524 0.20330 -0.17700
H 	H 	0.99910 0.03830 0.19570 0.07600
H 	H 	0.96110 0.00170 0.18240 0.07700
C 	C 	0.99644 0.99113 0.32170 -0.17800
H 	H 	0.98920 0.95800 0.32950 0.07700
H 	H 	0.02670 0.99520 0.34350 0.08100
N 	N 	0.07024 0.42241 0.48320 -0.20400
N 	N 	0.91287 0.57467 0.02910 -0.20000
C 	C 	0.08430 0.46293 0.52520 0.10800
H 	H 	0.11200 0.47340 0.50550 -0.02300
C 	C 	0.06033 0.49028 0.59630 -0.21400
H 	H 	0.07210 0.51810 0.62350 0.09500
C 	C 	0.01948 0.47661 0.62670 0.15800
C 	C 	0.00412 0.43502 0.58220 -0.21000
H 	H 	0.97620 0.42430 0.59950 0.09300
C 	C 	0.03018 0.40959 0.51210 0.11000
H 	H 	0.01900 0.38180 0.48330 -0.02500
C 	C 	0.90250 0.53061 0.00010 0.10300
H 	H 	0.87630 0.51810 0.02560 -0.02000
C 	C 	0.92827 0.50267 0.93460 -0.20600
H 	H 	0.91920 0.47240 0.91640 0.09100
C 	C 	0.96755 0.51974 0.89600 0.14800
C 	C 	0.97894 0.56476 0.92830 -0.20600
H 	H 	0.00540 0.57770 0.90570 0.09300
C 	C 	0.95143 0.59045 0.99360 0.10300
H 	H 	0.96010 0.62060 0.01430 -0.01900
C 	C 	0.99147 0.50524 0.70330 -0.17900
H 	H 	0.99910 0.53830 0.69570 0.07700
H 	H 	0.96110 0.50170 0.68240 0.07800
C 	C 	0.99644 0.49113 0.82170 -0.17600
H 	H 	0.98920 0.45800 0.82950 0.07700
H 	H 	0.02670 0.49520 0.84350 0.08000
N 	N 	0.57024 0.32759 0.76680 -0.20400
N 	N 	0.41287 0.17533 0.22090 -0.20000
C 	C 	0.58430 0.28707 0.72480 0.10800
H 	H 	0.61200 0.27660 0.74450 -0.02300
C 	C 	0.56033 0.25972 0.65370 -0.21400
H 	H 	0.57210 0.23190 0.62650 0.09500
C 	C 	0.51948 0.27339 0.62330 0.15700
C 	C 	0.50412 0.31498 0.66780 -0.21000
H 	H 	0.47620 0.32570 0.65050 0.09300
C 	C 	0.53018 0.34041 0.73790 0.11000
H 	H 	0.51900 0.36820 0.76670 -0.02400
C 	C 	0.40250 0.21939 0.24990 0.10400
H 	H 	0.37630 0.23190 0.22440 -0.02000
C 	C 	0.42827 0.24733 0.31540 -0.20600
H 	H 	0.41920 0.27760 0.33360 0.09100
C 	C 	0.46755 0.23026 0.35400 0.14800
C 	C 	0.47894 0.18524 0.32170 -0.20600
H 	H 	0.50540 0.17230 0.34430 0.09300
C 	C 	0.45143 0.15955 0.25640 0.10300
H 	H 	0.46010 0.12940 0.23570 -0.01900
C 	C 	0.49147 0.24476 0.54670 -0.17800
H 	H 	0.49910 0.21170 0.55430 0.07600
H 	H 	0.46110 0.24830 0.56760 0.07800
C 	C 	0.49644 0.25887 0.42830 -0.17600
H 	H 	0.48920 0.29200 0.42050 0.07700
H 	H 	0.52670 0.25480 0.40650 0.08000
N 	N 	0.57024 0.82759 0.26680 -0.20400
N 	N 	0.41287 0.67533 0.72090 -0.20000
C 	C 	0.58430 0.78707 0.22480 0.10800
H 	H 	0.61200 0.77660 0.24450 -0.02300
C 	C 	0.56033 0.75972 0.15370 -0.21400
H 	H 	0.57210 0.73190 0.12650 0.09500
C 	C 	0.51948 0.77339 0.12330 0.15700
C 	C 	0.50412 0.81498 0.16780 -0.21000
H 	H 	0.47620 0.82570 0.15050 0.09300
C 	C 	0.53018 0.84041 0.23790 0.11000
H 	H 	0.51900 0.86820 0.26670 -0.02400
C 	C 	0.40250 0.71939 0.74990 0.10400
H 	H 	0.37630 0.73190 0.72440 -0.02000
C 	C 	0.42827 0.74733 0.81540 -0.20600
H 	H 	0.41920 0.77760 0.83360 0.09100
C 	C 	0.46755 0.73026 0.85400 0.14800
C 	C 	0.47894 0.68524 0.82170 -0.20600
H 	H 	0.50540 0.67230 0.84430 0.09300
C 	C 	0.45143 0.65955 0.75640 0.10300
H 	H 	0.46010 0.62940 0.73570 -0.01900
C 	C 	0.49147 0.74476 0.04670 -0.17800
H 	H 	0.49910 0.71170 0.05430 0.07600
H 	H 	0.46110 0.74830 0.06760 0.07800
C 	C 	0.49644 0.75887 0.92830 -0.17600
H 	H 	0.48920 0.79200 0.92050 0.07700
H 	H 	0.52670 0.75480 0.90650 0.08000
N 	N 	0.07024 0.32759 0.26680 -0.20400
N 	N 	0.91287 0.17533 0.72090 -0.20000
C 	C 	0.08430 0.28707 0.22480 0.10800
H 	H 	0.11200 0.27660 0.24450 -0.02300
C 	C 	0.06033 0.25972 0.15370 -0.21400
H 	H 	0.07210 0.23190 0.12650 0.09500
C 	C 	0.01948 0.27339 0.12330 0.15800
C 	C 	0.00412 0.31498 0.16780 -0.21000
H 	H 	0.97620 0.32570 0.15050 0.09300
C 	C 	0.03018 0.34041 0.23790 0.11000
H 	H 	0.01900 0.36820 0.26670 -0.02500
C 	C 	0.90250 0.21939 0.74990 0.10300
H 	H 	0.87630 0.23190 0.72440 -0.02000
C 	C 	0.92827 0.24733 0.81540 -0.20600
H 	H 	0.91920 0.27760 0.83360 0.09100
C 	C 	0.96755 0.23026 0.85400 0.14700
C 	C 	0.97894 0.18524 0.82170 -0.20400
H 	H 	0.00540 0.17230 0.84430 0.09200
C 	C 	0.95143 0.15955 0.75640 0.10200
H 	H 	0.96010 0.12940 0.73570 -0.01900
C 	C 	0.99147 0.24476 0.04670 -0.18000
H 	H 	0.99910 0.21170 0.05430 0.07700
H 	H 	0.96110 0.24830 0.06760 0.07800
C 	C 	0.99644 0.25887 0.92830 -0.17500
H 	H 	0.98920 0.29200 0.92050 0.07700
H 	H 	0.02670 0.25480 0.90650 0.08000
N 	N 	0.07024 0.82759 0.76680 -0.20400
N 	N 	0.91287 0.67533 0.22090 -0.20000
C 	C 	0.08430 0.78707 0.72480 0.10800
H 	H 	0.11200 0.77660 0.74450 -0.02200
C 	C 	0.06033 0.75972 0.65370 -0.21400
H 	H 	0.07210 0.73190 0.62650 0.09500
C 	C 	0.01948 0.77339 0.62330 0.15700
C 	C 	0.00412 0.81498 0.66780 -0.21000
H 	H 	0.97620 0.82570 0.65050 0.09300
C 	C 	0.03018 0.84041 0.73790 0.11000
H 	H 	0.01900 0.86820 0.76670 -0.02400
C 	C 	0.90250 0.71939 0.24990 0.10400
H 	H 	0.87630 0.73190 0.22440 -0.02000
C 	C 	0.92827 0.74733 0.31540 -0.20700
H 	H 	0.91920 0.77760 0.33360 0.09100
C 	C 	0.96755 0.73026 0.35400 0.14800
C 	C 	0.97894 0.68524 0.32170 -0.20600
H 	H 	0.00540 0.67230 0.34430 0.09300
C 	C 	0.95143 0.65955 0.25640 0.10300
H 	H 	0.96010 0.62940 0.23570 -0.01900
C 	C 	0.99147 0.74476 0.54670 -0.17800
H 	H 	0.99910 0.71170 0.55430 0.07600
H 	H 	0.96110 0.74830 0.56760 0.07800
C 	C 	0.99644 0.75887 0.42830 -0.17700
H 	H 	0.98920 0.79200 0.42050 0.07700
H 	H 	0.02670 0.75480 0.40650 0.08100
Ag	Ag	0.36554 0.62500 0.62500 0.53600
Ag	Ag	0.86554 0.62500 0.12500 0.53600
Ag	Ag	0.36554 0.12500 0.12500 0.53600
Ag	Ag	0.86554 0.12500 0.62500 0.53600
Ag	Ag	0.61554 0.87500 0.37500 0.53600
Ag	Ag	0.11554 0.87500 0.87500 0.53600
Ag	Ag	0.61554 0.37500 0.87500 0.53600
Ag	Ag	0.11554 0.37500 0.37500 0.53600
