data_crystal

_cell_length_a 26.53600
_cell_length_b 26.53600
_cell_length_c 26.53600
_cell_angle_alpha 90.00000
_cell_angle_beta  90.00000
_cell_angle_gamma 90.00000

_symmetry_space_group_name_	'P 1'
_symmetry_space_group_name_H-M	'P 1'

loop_
_symmetry_equiv_pos_as_xyz
  x,y,z

loop_
_atom_site_label
_atom_site_type_symbol
_atom_site_fract_x
_atom_site_fract_y
_atom_site_fract_z
_atom_site_charge
O 	O 	0.18667 0.95045 0.25503 -0.46800
O 	O 	0.18667 0.45045 0.75503 -0.50500
O 	O 	0.68667 0.95045 0.75503 -0.45800
O 	O 	0.68667 0.45045 0.25503 -0.50300
O 	O 	0.81333 0.04955 0.25503 -0.52100
O 	O 	0.81333 0.54955 0.75503 -0.49200
O 	O 	0.31333 0.04955 0.75503 -0.52400
O 	O 	0.31333 0.54955 0.25503 -0.50300
O 	O 	0.81333 0.95045 0.74497 -0.45000
O 	O 	0.81333 0.45045 0.24497 -0.49500
O 	O 	0.31333 0.95045 0.24497 -0.46100
O 	O 	0.31333 0.45045 0.74497 -0.49700
O 	O 	0.18667 0.04955 0.74497 -0.52800
O 	O 	0.18667 0.54955 0.24497 -0.50800
O 	O 	0.68667 0.04955 0.24497 -0.52600
O 	O 	0.68667 0.54955 0.74497 -0.49700
O 	O 	0.25503 0.18667 0.95045 -0.46800
O 	O 	0.25503 0.68667 0.45045 -0.50300
O 	O 	0.75503 0.18667 0.45045 -0.50500
O 	O 	0.75503 0.68667 0.95045 -0.45800
O 	O 	0.25503 0.81333 0.04955 -0.52100
O 	O 	0.25503 0.31333 0.54955 -0.50200
O 	O 	0.75503 0.81333 0.54955 -0.49100
O 	O 	0.75503 0.31333 0.04955 -0.52300
O 	O 	0.74497 0.81333 0.95045 -0.44900
O 	O 	0.74497 0.31333 0.45045 -0.49600
O 	O 	0.24497 0.81333 0.45045 -0.49400
O 	O 	0.24497 0.31333 0.95045 -0.46000
O 	O 	0.74497 0.18667 0.04955 -0.52700
O 	O 	0.74497 0.68667 0.54955 -0.49600
O 	O 	0.24497 0.18667 0.54955 -0.50700
O 	O 	0.24497 0.68667 0.04955 -0.52500
O 	O 	0.95045 0.25503 0.18667 -0.46700
O 	O 	0.95045 0.75503 0.68667 -0.45700
O 	O 	0.45045 0.25503 0.68667 -0.50200
O 	O 	0.45045 0.75503 0.18667 -0.50400
O 	O 	0.04955 0.25503 0.81333 -0.52000
O 	O 	0.04955 0.75503 0.31333 -0.52300
O 	O 	0.54955 0.25503 0.31333 -0.50200
O 	O 	0.54955 0.75503 0.81333 -0.49100
O 	O 	0.95045 0.74497 0.81333 -0.44900
O 	O 	0.95045 0.24497 0.31333 -0.46000
O 	O 	0.45045 0.74497 0.31333 -0.49600
O 	O 	0.45045 0.24497 0.81333 -0.49400
O 	O 	0.04955 0.74497 0.18667 -0.52700
O 	O 	0.04955 0.24497 0.68667 -0.52500
O 	O 	0.54955 0.74497 0.68667 -0.49600
O 	O 	0.54955 0.24497 0.18667 -0.50700
O 	O 	0.95045 0.18667 0.74497 -0.46200
O 	O 	0.95045 0.68667 0.24497 -0.46000
O 	O 	0.45045 0.18667 0.24497 -0.50700
O 	O 	0.45045 0.68667 0.74497 -0.49600
O 	O 	0.04955 0.81333 0.74497 -0.51500
O 	O 	0.04955 0.31333 0.24497 -0.52600
O 	O 	0.54955 0.81333 0.24497 -0.49400
O 	O 	0.54955 0.31333 0.74497 -0.49600
O 	O 	0.95045 0.81333 0.25503 -0.45500
O 	O 	0.95045 0.31333 0.75503 -0.45700
O 	O 	0.45045 0.81333 0.75503 -0.49100
O 	O 	0.45045 0.31333 0.25503 -0.50200
O 	O 	0.04955 0.18667 0.25503 -0.53200
O 	O 	0.04955 0.68667 0.75503 -0.52200
O 	O 	0.54955 0.18667 0.75503 -0.50400
O 	O 	0.54955 0.68667 0.25503 -0.50200
O 	O 	0.18667 0.25503 0.04955 -0.53200
O 	O 	0.18667 0.75503 0.54955 -0.50400
O 	O 	0.68667 0.25503 0.54955 -0.50200
O 	O 	0.68667 0.75503 0.04955 -0.52200
O 	O 	0.81333 0.25503 0.95045 -0.45500
O 	O 	0.81333 0.75503 0.45045 -0.49100
O 	O 	0.31333 0.25503 0.45045 -0.50200
O 	O 	0.31333 0.75503 0.95045 -0.45700
O 	O 	0.81333 0.74497 0.04955 -0.51500
O 	O 	0.81333 0.24497 0.54955 -0.49400
O 	O 	0.31333 0.74497 0.54955 -0.49600
O 	O 	0.31333 0.24497 0.04955 -0.52600
O 	O 	0.18667 0.74497 0.95045 -0.46200
O 	O 	0.18667 0.24497 0.45045 -0.50700
O 	O 	0.68667 0.74497 0.45045 -0.49600
O 	O 	0.68667 0.24497 0.95045 -0.46000
O 	O 	0.25503 0.95045 0.81333 -0.45500
O 	O 	0.25503 0.45045 0.31333 -0.50200
O 	O 	0.75503 0.95045 0.31333 -0.45700
O 	O 	0.75503 0.45045 0.81333 -0.49100
O 	O 	0.25503 0.04955 0.18667 -0.53200
O 	O 	0.25503 0.54955 0.68667 -0.50200
O 	O 	0.75503 0.04955 0.68667 -0.52200
O 	O 	0.75503 0.54955 0.18667 -0.50400
O 	O 	0.74497 0.95045 0.18667 -0.46200
O 	O 	0.74497 0.45045 0.68667 -0.49600
O 	O 	0.24497 0.95045 0.68667 -0.46000
O 	O 	0.24497 0.45045 0.18667 -0.50700
O 	O 	0.74497 0.04955 0.81333 -0.51500
O 	O 	0.74497 0.54955 0.31333 -0.49600
O 	O 	0.24497 0.04955 0.31333 -0.52600
O 	O 	0.24497 0.54955 0.81333 -0.49400
O 	O 	0.81333 0.04955 0.74497 -0.51500
O 	O 	0.81333 0.54955 0.24497 -0.49400
O 	O 	0.31333 0.04955 0.24497 -0.52600
O 	O 	0.31333 0.54955 0.74497 -0.49600
O 	O 	0.18667 0.95045 0.74497 -0.46200
O 	O 	0.18667 0.45045 0.24497 -0.50700
O 	O 	0.68667 0.95045 0.24497 -0.46000
O 	O 	0.68667 0.45045 0.74497 -0.49600
O 	O 	0.18667 0.04955 0.25503 -0.53200
O 	O 	0.18667 0.54955 0.75503 -0.50400
O 	O 	0.68667 0.04955 0.75503 -0.52200
O 	O 	0.68667 0.54955 0.25503 -0.50200
O 	O 	0.81333 0.95045 0.25503 -0.45500
O 	O 	0.81333 0.45045 0.75503 -0.49100
O 	O 	0.31333 0.95045 0.75503 -0.45700
O 	O 	0.31333 0.45045 0.25503 -0.50200
O 	O 	0.74497 0.81333 0.04955 -0.51500
O 	O 	0.74497 0.31333 0.54955 -0.49600
O 	O 	0.24497 0.81333 0.54955 -0.49400
O 	O 	0.24497 0.31333 0.04955 -0.52600
O 	O 	0.74497 0.18667 0.95045 -0.46200
O 	O 	0.74497 0.68667 0.45045 -0.49600
O 	O 	0.24497 0.18667 0.45045 -0.50700
O 	O 	0.24497 0.68667 0.95045 -0.46000
O 	O 	0.25503 0.18667 0.04955 -0.53200
O 	O 	0.25503 0.68667 0.54955 -0.50200
O 	O 	0.75503 0.18667 0.54955 -0.50400
O 	O 	0.75503 0.68667 0.04955 -0.52200
O 	O 	0.25503 0.81333 0.95045 -0.45500
O 	O 	0.25503 0.31333 0.45045 -0.50200
O 	O 	0.75503 0.81333 0.45045 -0.49100
O 	O 	0.75503 0.31333 0.95045 -0.45700
O 	O 	0.04955 0.74497 0.81333 -0.51500
O 	O 	0.04955 0.24497 0.31333 -0.52600
O 	O 	0.54955 0.74497 0.31333 -0.49600
O 	O 	0.54955 0.24497 0.81333 -0.49400
O 	O 	0.95045 0.74497 0.18667 -0.46200
O 	O 	0.95045 0.24497 0.68667 -0.46000
O 	O 	0.45045 0.74497 0.68667 -0.49600
O 	O 	0.45045 0.24497 0.18667 -0.50700
O 	O 	0.04955 0.25503 0.18667 -0.53200
O 	O 	0.04955 0.75503 0.68667 -0.52200
O 	O 	0.54955 0.25503 0.68667 -0.50200
O 	O 	0.54955 0.75503 0.18667 -0.50400
O 	O 	0.95045 0.25503 0.81333 -0.45500
O 	O 	0.95045 0.75503 0.31333 -0.45700
O 	O 	0.45045 0.25503 0.31333 -0.50200
O 	O 	0.45045 0.75503 0.81333 -0.49100
O 	O 	0.04955 0.81333 0.25503 -0.52000
O 	O 	0.04955 0.31333 0.75503 -0.52300
O 	O 	0.54955 0.81333 0.75503 -0.49100
O 	O 	0.54955 0.31333 0.25503 -0.50200
O 	O 	0.95045 0.18667 0.25503 -0.46700
O 	O 	0.95045 0.68667 0.75503 -0.45700
O 	O 	0.45045 0.18667 0.75503 -0.50400
O 	O 	0.45045 0.68667 0.25503 -0.50200
O 	O 	0.04955 0.18667 0.74497 -0.52700
O 	O 	0.04955 0.68667 0.24497 -0.52500
O 	O 	0.54955 0.18667 0.24497 -0.50700
O 	O 	0.54955 0.68667 0.74497 -0.49600
O 	O 	0.95045 0.81333 0.74497 -0.44900
O 	O 	0.95045 0.31333 0.24497 -0.46000
O 	O 	0.45045 0.81333 0.24497 -0.49400
O 	O 	0.45045 0.31333 0.74497 -0.49600
O 	O 	0.81333 0.74497 0.95045 -0.44900
O 	O 	0.81333 0.24497 0.45045 -0.49400
O 	O 	0.31333 0.74497 0.45045 -0.49600
O 	O 	0.31333 0.24497 0.95045 -0.46000
O 	O 	0.18667 0.74497 0.04955 -0.52700
O 	O 	0.18667 0.24497 0.54955 -0.50700
O 	O 	0.68667 0.74497 0.54955 -0.49600
O 	O 	0.68667 0.24497 0.04955 -0.52500
O 	O 	0.18667 0.25503 0.95045 -0.46700
O 	O 	0.18667 0.75503 0.45045 -0.50400
O 	O 	0.68667 0.25503 0.45045 -0.50200
O 	O 	0.68667 0.75503 0.95045 -0.45700
O 	O 	0.81333 0.25503 0.04955 -0.52000
O 	O 	0.81333 0.75503 0.54955 -0.49100
O 	O 	0.31333 0.25503 0.54955 -0.50200
O 	O 	0.31333 0.75503 0.04955 -0.52300
O 	O 	0.74497 0.04955 0.18667 -0.52700
O 	O 	0.74497 0.54955 0.68667 -0.49600
O 	O 	0.24497 0.04955 0.68667 -0.52500
O 	O 	0.24497 0.54955 0.18667 -0.50700
O 	O 	0.74497 0.95045 0.81333 -0.44900
O 	O 	0.74497 0.45045 0.31333 -0.49600
O 	O 	0.24497 0.95045 0.31333 -0.46000
O 	O 	0.24497 0.45045 0.81333 -0.49400
O 	O 	0.25503 0.04955 0.81333 -0.52000
O 	O 	0.25503 0.54955 0.31333 -0.50200
O 	O 	0.75503 0.04955 0.31333 -0.52300
O 	O 	0.75503 0.54955 0.81333 -0.49100
O 	O 	0.25503 0.95045 0.18667 -0.46700
O 	O 	0.25503 0.45045 0.68667 -0.50200
O 	O 	0.75503 0.95045 0.68667 -0.45700
O 	O 	0.75503 0.45045 0.18667 -0.50400
C 	C 	0.38741 0.32121 0.32121 -0.14100
C 	C 	0.38741 0.82121 0.82121 -0.12600
C 	C 	0.88741 0.32121 0.82121 -0.12000
C 	C 	0.88741 0.82121 0.32121 -0.12000
C 	C 	0.61259 0.67879 0.32121 -0.13800
C 	C 	0.61259 0.17879 0.82121 -0.13800
C 	C 	0.11259 0.67879 0.82121 -0.14200
C 	C 	0.11259 0.17879 0.32121 -0.15600
C 	C 	0.61259 0.32121 0.67879 -0.13800
C 	C 	0.61259 0.82121 0.17879 -0.13800
C 	C 	0.11259 0.32121 0.17879 -0.15600
C 	C 	0.11259 0.82121 0.67879 -0.14200
C 	C 	0.38741 0.67879 0.67879 -0.13700
C 	C 	0.38741 0.17879 0.17879 -0.15000
C 	C 	0.88741 0.67879 0.17879 -0.12900
C 	C 	0.88741 0.17879 0.67879 -0.12900
C 	C 	0.32121 0.38741 0.32121 -0.14100
C 	C 	0.32121 0.88741 0.82121 -0.12000
C 	C 	0.82121 0.38741 0.82121 -0.12600
C 	C 	0.82121 0.88741 0.32121 -0.12000
C 	C 	0.32121 0.61259 0.67879 -0.13800
C 	C 	0.32121 0.11259 0.17879 -0.15600
C 	C 	0.82121 0.61259 0.17879 -0.13800
C 	C 	0.82121 0.11259 0.67879 -0.14200
C 	C 	0.67879 0.61259 0.32121 -0.13800
C 	C 	0.67879 0.11259 0.82121 -0.14200
C 	C 	0.17879 0.61259 0.82121 -0.13800
C 	C 	0.17879 0.11259 0.32121 -0.15600
C 	C 	0.67879 0.38741 0.67879 -0.13700
C 	C 	0.67879 0.88741 0.17879 -0.12900
C 	C 	0.17879 0.38741 0.17879 -0.15000
C 	C 	0.17879 0.88741 0.67879 -0.12900
C 	C 	0.32121 0.32121 0.38741 -0.14100
C 	C 	0.32121 0.82121 0.88741 -0.12000
C 	C 	0.82121 0.32121 0.88741 -0.12000
C 	C 	0.82121 0.82121 0.38741 -0.12600
C 	C 	0.67879 0.32121 0.61259 -0.13800
C 	C 	0.67879 0.82121 0.11259 -0.14200
C 	C 	0.17879 0.32121 0.11259 -0.15600
C 	C 	0.17879 0.82121 0.61259 -0.13800
C 	C 	0.32121 0.67879 0.61259 -0.13800
C 	C 	0.32121 0.17879 0.11259 -0.15600
C 	C 	0.82121 0.67879 0.11259 -0.14200
C 	C 	0.82121 0.17879 0.61259 -0.13800
C 	C 	0.67879 0.67879 0.38741 -0.13700
C 	C 	0.67879 0.17879 0.88741 -0.12900
C 	C 	0.17879 0.67879 0.88741 -0.12900
C 	C 	0.17879 0.17879 0.38741 -0.15000
C 	C 	0.32121 0.38741 0.67879 -0.13900
C 	C 	0.32121 0.88741 0.17879 -0.13100
C 	C 	0.82121 0.38741 0.17879 -0.13800
C 	C 	0.82121 0.88741 0.67879 -0.11700
C 	C 	0.67879 0.61259 0.67879 -0.13600
C 	C 	0.67879 0.11259 0.17879 -0.15400
C 	C 	0.17879 0.61259 0.17879 -0.14900
C 	C 	0.17879 0.11259 0.67879 -0.15400
C 	C 	0.32121 0.61259 0.32121 -0.14000
C 	C 	0.32121 0.11259 0.82121 -0.14400
C 	C 	0.82121 0.61259 0.82121 -0.12600
C 	C 	0.82121 0.11259 0.32121 -0.14400
C 	C 	0.67879 0.38741 0.32121 -0.13900
C 	C 	0.67879 0.88741 0.82121 -0.11700
C 	C 	0.17879 0.38741 0.82121 -0.13800
C 	C 	0.17879 0.88741 0.32121 -0.13100
C 	C 	0.38741 0.32121 0.67879 -0.13900
C 	C 	0.38741 0.82121 0.17879 -0.13800
C 	C 	0.88741 0.32121 0.17879 -0.13100
C 	C 	0.88741 0.82121 0.67879 -0.11700
C 	C 	0.61259 0.32121 0.32121 -0.14000
C 	C 	0.61259 0.82121 0.82121 -0.12600
C 	C 	0.11259 0.32121 0.82121 -0.14400
C 	C 	0.11259 0.82121 0.32121 -0.14400
C 	C 	0.61259 0.67879 0.67879 -0.13600
C 	C 	0.61259 0.17879 0.17879 -0.14900
C 	C 	0.11259 0.67879 0.17879 -0.15400
C 	C 	0.11259 0.17879 0.67879 -0.15400
C 	C 	0.38741 0.67879 0.32121 -0.13900
C 	C 	0.38741 0.17879 0.82121 -0.13800
C 	C 	0.88741 0.67879 0.82121 -0.11700
C 	C 	0.88741 0.17879 0.32121 -0.13100
C 	C 	0.32121 0.32121 0.61259 -0.14000
C 	C 	0.32121 0.82121 0.11259 -0.14400
C 	C 	0.82121 0.32121 0.11259 -0.14400
C 	C 	0.82121 0.82121 0.61259 -0.12600
C 	C 	0.32121 0.67879 0.38741 -0.13900
C 	C 	0.32121 0.17879 0.88741 -0.13100
C 	C 	0.82121 0.67879 0.88741 -0.11700
C 	C 	0.82121 0.17879 0.38741 -0.13800
C 	C 	0.67879 0.32121 0.38741 -0.13900
C 	C 	0.67879 0.82121 0.88741 -0.11700
C 	C 	0.17879 0.32121 0.88741 -0.13100
C 	C 	0.17879 0.82121 0.38741 -0.13800
C 	C 	0.67879 0.67879 0.61259 -0.13600
C 	C 	0.67879 0.17879 0.11259 -0.15400
C 	C 	0.17879 0.67879 0.11259 -0.15400
C 	C 	0.17879 0.17879 0.61259 -0.14900
C 	C 	0.36499 0.36499 0.30009 0.07800
H 	H 	0.38104 0.38104 0.26618 0.03100
C 	C 	0.36499 0.86499 0.80009 0.07500
H 	H 	0.38104 0.88104 0.76618 0.04500
C 	C 	0.86499 0.36499 0.80009 0.07500
H 	H 	0.88104 0.38104 0.76618 0.04500
C 	C 	0.86499 0.86499 0.30009 0.07400
H 	H 	0.88104 0.88104 0.26618 0.05000
C 	C 	0.63501 0.63501 0.30009 0.07600
H 	H 	0.61896 0.61896 0.26618 0.03200
C 	C 	0.63501 0.13501 0.80009 0.07500
H 	H 	0.61896 0.11896 0.76618 0.02700
C 	C 	0.13501 0.63501 0.80009 0.07500
H 	H 	0.11896 0.61896 0.76618 0.02700
C 	C 	0.13501 0.13501 0.30009 0.07700
H 	H 	0.11896 0.11896 0.26618 0.01500
C 	C 	0.63501 0.36499 0.69991 0.07600
H 	H 	0.61896 0.38104 0.73382 0.03700
C 	C 	0.63501 0.86499 0.19991 0.07500
H 	H 	0.61896 0.88104 0.23382 0.04200
C 	C 	0.13501 0.36499 0.19991 0.07700
H 	H 	0.11896 0.38104 0.23382 0.02400
C 	C 	0.13501 0.86499 0.69991 0.07500
H 	H 	0.11896 0.88104 0.73382 0.03700
C 	C 	0.36499 0.63501 0.69991 0.07600
H 	H 	0.38104 0.61896 0.73382 0.03700
C 	C 	0.36499 0.13501 0.19991 0.07700
H 	H 	0.38104 0.11896 0.23382 0.02400
C 	C 	0.86499 0.63501 0.19991 0.07500
H 	H 	0.88104 0.61896 0.23382 0.04200
C 	C 	0.86499 0.13501 0.69991 0.07500
H 	H 	0.88104 0.11896 0.73382 0.03700
C 	C 	0.30009 0.36499 0.36499 0.07800
H 	H 	0.26618 0.38104 0.38104 0.03100
C 	C 	0.30009 0.86499 0.86499 0.07400
H 	H 	0.26618 0.88104 0.88104 0.05000
C 	C 	0.80009 0.36499 0.86499 0.07500
H 	H 	0.76618 0.38104 0.88104 0.04500
C 	C 	0.80009 0.86499 0.36499 0.07500
H 	H 	0.76618 0.88104 0.38104 0.04500
C 	C 	0.30009 0.63501 0.63501 0.07600
H 	H 	0.26618 0.61896 0.61896 0.03200
C 	C 	0.30009 0.13501 0.13501 0.07700
H 	H 	0.26618 0.11896 0.11896 0.01500
C 	C 	0.80009 0.63501 0.13501 0.07500
H 	H 	0.76618 0.61896 0.11896 0.02700
C 	C 	0.80009 0.13501 0.63501 0.07500
H 	H 	0.76618 0.11896 0.61896 0.02700
C 	C 	0.69991 0.63501 0.36499 0.07600
H 	H 	0.73382 0.61896 0.38104 0.03700
C 	C 	0.69991 0.13501 0.86499 0.07500
H 	H 	0.73382 0.11896 0.88104 0.03700
C 	C 	0.19991 0.63501 0.86499 0.07500
H 	H 	0.23382 0.61896 0.88104 0.04200
C 	C 	0.19991 0.13501 0.36499 0.07700
H 	H 	0.23382 0.11896 0.38104 0.02400
C 	C 	0.69991 0.36499 0.63501 0.07600
H 	H 	0.73382 0.38104 0.61896 0.03700
C 	C 	0.69991 0.86499 0.13501 0.07500
H 	H 	0.73382 0.88104 0.11896 0.03700
C 	C 	0.19991 0.36499 0.13501 0.07700
H 	H 	0.23382 0.38104 0.11896 0.02400
C 	C 	0.19991 0.86499 0.63501 0.07500
H 	H 	0.23382 0.88104 0.61896 0.04200
C 	C 	0.36499 0.30009 0.36499 0.07800
H 	H 	0.38104 0.26618 0.38104 0.03100
C 	C 	0.36499 0.80009 0.86499 0.07500
H 	H 	0.38104 0.76618 0.88104 0.04500
C 	C 	0.86499 0.30009 0.86499 0.07400
H 	H 	0.88104 0.26618 0.88104 0.05000
C 	C 	0.86499 0.80009 0.36499 0.07500
H 	H 	0.88104 0.76618 0.38104 0.04500
C 	C 	0.63501 0.30009 0.63501 0.07600
H 	H 	0.61896 0.26618 0.61896 0.03200
C 	C 	0.63501 0.80009 0.13501 0.07500
H 	H 	0.61896 0.76618 0.11896 0.02700
C 	C 	0.13501 0.30009 0.13501 0.07700
H 	H 	0.11896 0.26618 0.11896 0.01500
C 	C 	0.13501 0.80009 0.63501 0.07500
H 	H 	0.11896 0.76618 0.61896 0.02700
C 	C 	0.36499 0.69991 0.63501 0.07600
H 	H 	0.38104 0.73382 0.61896 0.03700
C 	C 	0.36499 0.19991 0.13501 0.07700
H 	H 	0.38104 0.23382 0.11896 0.02400
C 	C 	0.86499 0.69991 0.13501 0.07500
H 	H 	0.88104 0.73382 0.11896 0.03700
C 	C 	0.86499 0.19991 0.63501 0.07500
H 	H 	0.88104 0.23382 0.61896 0.04200
C 	C 	0.63501 0.69991 0.36499 0.07600
H 	H 	0.61896 0.73382 0.38104 0.03700
C 	C 	0.63501 0.19991 0.86499 0.07500
H 	H 	0.61896 0.23382 0.88104 0.04200
C 	C 	0.13501 0.69991 0.86499 0.07500
H 	H 	0.11896 0.73382 0.88104 0.03700
C 	C 	0.13501 0.19991 0.36499 0.07700
H 	H 	0.11896 0.23382 0.38104 0.02400
C 	C 	0.36499 0.36499 0.69991 0.07700
H 	H 	0.38104 0.38104 0.73382 0.03600
C 	C 	0.36499 0.86499 0.19991 0.07600
H 	H 	0.38104 0.88104 0.23382 0.04200
C 	C 	0.86499 0.36499 0.19991 0.07600
H 	H 	0.88104 0.38104 0.23382 0.04200
C 	C 	0.86499 0.86499 0.69991 0.07300
H 	H 	0.88104 0.88104 0.73382 0.05500
C 	C 	0.63501 0.63501 0.69991 0.07500
H 	H 	0.61896 0.61896 0.73382 0.03700
C 	C 	0.63501 0.13501 0.19991 0.07600
H 	H 	0.61896 0.11896 0.23382 0.02400
C 	C 	0.13501 0.63501 0.19991 0.07600
H 	H 	0.11896 0.61896 0.23382 0.02400
C 	C 	0.13501 0.13501 0.69991 0.07600
H 	H 	0.11896 0.11896 0.73382 0.02000
C 	C 	0.36499 0.63501 0.30009 0.07700
H 	H 	0.38104 0.61896 0.26618 0.03100
C 	C 	0.36499 0.13501 0.80009 0.07600
H 	H 	0.38104 0.11896 0.76618 0.02700
C 	C 	0.86499 0.63501 0.80009 0.07400
H 	H 	0.88104 0.61896 0.76618 0.04500
C 	C 	0.86499 0.13501 0.30009 0.07600
H 	H 	0.88104 0.11896 0.26618 0.03200
C 	C 	0.63501 0.36499 0.30009 0.07700
H 	H 	0.61896 0.38104 0.26618 0.03100
C 	C 	0.63501 0.86499 0.80009 0.07400
H 	H 	0.61896 0.88104 0.76618 0.04500
C 	C 	0.13501 0.36499 0.80009 0.07600
H 	H 	0.11896 0.38104 0.76618 0.02700
C 	C 	0.13501 0.86499 0.30009 0.07600
H 	H 	0.11896 0.88104 0.26618 0.03200
C 	C 	0.36499 0.30009 0.63501 0.07700
H 	H 	0.38104 0.26618 0.61896 0.03100
C 	C 	0.36499 0.80009 0.13501 0.07600
H 	H 	0.38104 0.76618 0.11896 0.02700
C 	C 	0.86499 0.30009 0.13501 0.07600
H 	H 	0.88104 0.26618 0.11896 0.03200
C 	C 	0.86499 0.80009 0.63501 0.07400
H 	H 	0.88104 0.76618 0.61896 0.04500
C 	C 	0.63501 0.30009 0.36499 0.07700
H 	H 	0.61896 0.26618 0.38104 0.03100
C 	C 	0.63501 0.80009 0.86499 0.07400
H 	H 	0.61896 0.76618 0.88104 0.04500
C 	C 	0.13501 0.30009 0.86499 0.07600
H 	H 	0.11896 0.26618 0.88104 0.03200
C 	C 	0.13501 0.80009 0.36499 0.07600
H 	H 	0.11896 0.76618 0.38104 0.02700
C 	C 	0.63501 0.69991 0.63501 0.07500
H 	H 	0.61896 0.73382 0.61896 0.03700
C 	C 	0.63501 0.19991 0.13501 0.07600
H 	H 	0.61896 0.23382 0.11896 0.02400
C 	C 	0.13501 0.69991 0.13501 0.07600
H 	H 	0.11896 0.73382 0.11896 0.02000
C 	C 	0.13501 0.19991 0.63501 0.07600
H 	H 	0.11896 0.23382 0.61896 0.02400
C 	C 	0.36499 0.69991 0.36499 0.07700
H 	H 	0.38104 0.73382 0.38104 0.03600
C 	C 	0.36499 0.19991 0.86499 0.07600
H 	H 	0.38104 0.23382 0.88104 0.04200
C 	C 	0.86499 0.69991 0.86499 0.07300
H 	H 	0.88104 0.73382 0.88104 0.05500
C 	C 	0.86499 0.19991 0.36499 0.07600
H 	H 	0.88104 0.23382 0.38104 0.04200
C 	C 	0.30009 0.36499 0.63501 0.07700
H 	H 	0.26618 0.38104 0.61896 0.03100
C 	C 	0.30009 0.86499 0.13501 0.07600
H 	H 	0.26618 0.88104 0.11896 0.03200
C 	C 	0.80009 0.36499 0.13501 0.07600
H 	H 	0.76618 0.38104 0.11896 0.02700
C 	C 	0.80009 0.86499 0.63501 0.07400
H 	H 	0.76618 0.88104 0.61896 0.04500
C 	C 	0.30009 0.63501 0.36499 0.07700
H 	H 	0.26618 0.61896 0.38104 0.03100
C 	C 	0.30009 0.13501 0.86499 0.07600
H 	H 	0.26618 0.11896 0.88104 0.03200
C 	C 	0.80009 0.63501 0.86499 0.07400
H 	H 	0.76618 0.61896 0.88104 0.04500
C 	C 	0.80009 0.13501 0.36499 0.07600
H 	H 	0.76618 0.11896 0.38104 0.02700
C 	C 	0.69991 0.36499 0.36499 0.07700
H 	H 	0.73382 0.38104 0.38104 0.03600
C 	C 	0.69991 0.86499 0.86499 0.07300
H 	H 	0.73382 0.88104 0.88104 0.05500
C 	C 	0.19991 0.36499 0.86499 0.07600
H 	H 	0.23382 0.38104 0.88104 0.04200
C 	C 	0.19991 0.86499 0.36499 0.07600
H 	H 	0.23382 0.88104 0.38104 0.04200
C 	C 	0.69991 0.63501 0.63501 0.07500
H 	H 	0.73382 0.61896 0.61896 0.03700
C 	C 	0.69991 0.13501 0.13501 0.07600
H 	H 	0.73382 0.11896 0.11896 0.02000
C 	C 	0.19991 0.63501 0.13501 0.07600
H 	H 	0.23382 0.61896 0.11896 0.02400
C 	C 	0.19991 0.13501 0.63501 0.07600
H 	H 	0.23382 0.11896 0.61896 0.02400
Zn	Zn	0.21516 0.00000 0.21516 1.20400
Zn	Zn	0.21516 0.50000 0.71516 1.23400
Zn	Zn	0.71516 -0.00000 0.71516 1.20700
Zn	Zn	0.71516 0.50000 0.21516 1.23400
Zn	Zn	0.78484 0.00000 0.21516 1.20700
Zn	Zn	0.78484 0.50000 0.71516 1.23700
Zn	Zn	0.28484 -0.00000 0.71516 1.20700
Zn	Zn	0.28484 0.50000 0.21516 1.23400
Zn	Zn	0.78484 -0.00000 0.78484 1.21000
Zn	Zn	0.78484 0.50000 0.28484 1.23700
Zn	Zn	0.28484 -0.00000 0.28484 1.20700
Zn	Zn	0.28484 0.50000 0.78484 1.23700
Zn	Zn	0.21516 -0.00000 0.78484 1.20700
Zn	Zn	0.21516 0.50000 0.28484 1.23400
Zn	Zn	0.71516 -0.00000 0.28484 1.20700
Zn	Zn	0.71516 0.50000 0.78484 1.23700
Zn	Zn	0.21516 0.21516 -0.00000 1.20400
Zn	Zn	0.21516 0.71516 0.50000 1.23400
Zn	Zn	0.71516 0.21516 0.50000 1.23400
Zn	Zn	0.71516 0.71516 -0.00000 1.20700
Zn	Zn	0.21516 0.78484 -0.00000 1.20700
Zn	Zn	0.21516 0.28484 0.50000 1.23400
Zn	Zn	0.71516 0.78484 0.50000 1.23700
Zn	Zn	0.71516 0.28484 -0.00000 1.20700
Zn	Zn	0.78484 0.78484 -0.00000 1.21000
Zn	Zn	0.78484 0.28484 0.50000 1.23700
Zn	Zn	0.28484 0.78484 0.50000 1.23700
Zn	Zn	0.28484 0.28484 -0.00000 1.20700
Zn	Zn	0.78484 0.21516 -0.00000 1.20700
Zn	Zn	0.78484 0.71516 0.50000 1.23700
Zn	Zn	0.28484 0.21516 0.50000 1.23400
Zn	Zn	0.28484 0.71516 -0.00000 1.20700
Zn	Zn	0.00000 0.21516 0.21516 1.20400
Zn	Zn	-0.00000 0.71516 0.71516 1.20700
Zn	Zn	0.50000 0.21516 0.71516 1.23400
Zn	Zn	0.50000 0.71516 0.21516 1.23400
Zn	Zn	-0.00000 0.21516 0.78484 1.20700
Zn	Zn	-0.00000 0.71516 0.28484 1.20700
Zn	Zn	0.50000 0.21516 0.28484 1.23400
Zn	Zn	0.50000 0.71516 0.78484 1.23700
Zn	Zn	-0.00000 0.78484 0.78484 1.21000
Zn	Zn	-0.00000 0.28484 0.28484 1.20700
Zn	Zn	0.50000 0.78484 0.28484 1.23700
Zn	Zn	0.50000 0.28484 0.78484 1.23700
Zn	Zn	-0.00000 0.78484 0.21516 1.20700
Zn	Zn	-0.00000 0.28484 0.71516 1.20700
Zn	Zn	0.50000 0.78484 0.71516 1.23700
Zn	Zn	0.50000 0.28484 0.21516 1.23400
C 	C 	0.20435 0.93191 0.29565 0.40200
C 	C 	0.20435 0.43191 0.79565 0.40900
C 	C 	0.79565 0.06809 0.29565 0.41000
C 	C 	0.79565 0.56809 0.79565 0.40800
C 	C 	0.29565 0.56809 0.29565 0.41000
C 	C 	0.79565 0.93191 0.70435 0.40000
C 	C 	0.79565 0.43191 0.20435 0.40900
C 	C 	0.29565 0.93191 0.20435 0.40200
C 	C 	0.20435 0.06809 0.70435 0.40900
C 	C 	0.20435 0.56809 0.20435 0.40900
C 	C 	0.29565 0.20435 0.93191 0.40200
C 	C 	0.29565 0.70435 0.43191 0.40900
C 	C 	0.29565 0.79565 0.06809 0.41000
C 	C 	0.29565 0.29565 0.56809 0.41000
C 	C 	0.70435 0.79565 0.93191 0.40000
C 	C 	0.70435 0.29565 0.43191 0.40900
C 	C 	0.20435 0.29565 0.93191 0.40200
C 	C 	0.70435 0.20435 0.06809 0.40900
C 	C 	0.70435 0.70435 0.56809 0.40700
C 	C 	0.20435 0.20435 0.56809 0.40900
C 	C 	0.93191 0.29565 0.20435 0.40200
C 	C 	0.43191 0.29565 0.70435 0.40900
C 	C 	0.06809 0.29565 0.79565 0.41000
C 	C 	0.56809 0.29565 0.29565 0.41000
C 	C 	0.93191 0.70435 0.79565 0.40000
C 	C 	0.93191 0.20435 0.29565 0.40200
C 	C 	0.43191 0.70435 0.29565 0.40900
C 	C 	0.06809 0.70435 0.20435 0.40900
C 	C 	0.56809 0.70435 0.70435 0.40700
C 	C 	0.56809 0.20435 0.20435 0.40900
C 	C 	0.93191 0.20435 0.70435 0.40100
C 	C 	0.43191 0.20435 0.20435 0.40900
C 	C 	0.06809 0.79565 0.70435 0.40900
C 	C 	0.06809 0.29565 0.20435 0.41000
C 	C 	0.56809 0.79565 0.20435 0.40800
C 	C 	0.93191 0.79565 0.29565 0.40200
C 	C 	0.43191 0.79565 0.79565 0.40800
C 	C 	0.43191 0.29565 0.29565 0.41000
C 	C 	0.06809 0.20435 0.29565 0.41000
C 	C 	0.56809 0.20435 0.79565 0.40800
C 	C 	0.20435 0.29565 0.06809 0.41000
C 	C 	0.20435 0.79565 0.56809 0.40800
C 	C 	0.79565 0.29565 0.93191 0.40200
C 	C 	0.79565 0.79565 0.43191 0.40800
C 	C 	0.29565 0.29565 0.43191 0.41000
C 	C 	0.79565 0.70435 0.06809 0.40900
C 	C 	0.79565 0.20435 0.56809 0.40800
C 	C 	0.29565 0.20435 0.06809 0.41000
C 	C 	0.20435 0.70435 0.93191 0.40100
C 	C 	0.20435 0.20435 0.43191 0.40900
C 	C 	0.29565 0.93191 0.79565 0.40200
C 	C 	0.29565 0.43191 0.29565 0.41000
C 	C 	0.29565 0.06809 0.20435 0.41000
C 	C 	0.29565 0.56809 0.70435 0.40800
C 	C 	0.70435 0.93191 0.20435 0.40100
C 	C 	0.70435 0.43191 0.70435 0.40700
C 	C 	0.20435 0.43191 0.20435 0.40900
C 	C 	0.70435 0.06809 0.79565 0.40900
C 	C 	0.70435 0.56809 0.29565 0.40800
C 	C 	0.20435 0.06809 0.29565 0.41000
C 	C 	0.79565 0.06809 0.70435 0.40900
C 	C 	0.79565 0.56809 0.20435 0.40800
C 	C 	0.20435 0.93191 0.70435 0.40100
C 	C 	0.20435 0.56809 0.79565 0.40800
C 	C 	0.79565 0.93191 0.29565 0.40200
C 	C 	0.79565 0.43191 0.79565 0.40800
C 	C 	0.70435 0.79565 0.06809 0.40900
C 	C 	0.70435 0.29565 0.56809 0.40800
C 	C 	0.70435 0.20435 0.93191 0.40100
C 	C 	0.70435 0.70435 0.43191 0.40700
C 	C 	0.29565 0.70435 0.56809 0.40800
C 	C 	0.29565 0.79565 0.93191 0.40200
C 	C 	0.06809 0.70435 0.79565 0.40900
C 	C 	0.56809 0.70435 0.29565 0.40800
C 	C 	0.93191 0.70435 0.20435 0.40100
C 	C 	0.43191 0.70435 0.70435 0.40700
C 	C 	0.56809 0.29565 0.70435 0.40800
C 	C 	0.93191 0.29565 0.79565 0.40200
C 	C 	0.06809 0.79565 0.29565 0.41000
C 	C 	0.56809 0.79565 0.79565 0.40800
C 	C 	0.43191 0.20435 0.79565 0.40900
C 	C 	0.06809 0.20435 0.70435 0.40900
C 	C 	0.93191 0.79565 0.70435 0.40000
C 	C 	0.43191 0.79565 0.20435 0.40900
C 	C 	0.79565 0.70435 0.93191 0.40000
C 	C 	0.79565 0.20435 0.43191 0.40900
C 	C 	0.20435 0.70435 0.06809 0.40900
C 	C 	0.20435 0.79565 0.43191 0.40900
C 	C 	0.79565 0.29565 0.06809 0.41000
C 	C 	0.79565 0.79565 0.56809 0.40800
C 	C 	0.70435 0.06809 0.20435 0.40900
C 	C 	0.70435 0.56809 0.70435 0.40700
C 	C 	0.70435 0.93191 0.79565 0.40000
C 	C 	0.70435 0.43191 0.29565 0.40900
C 	C 	0.29565 0.06809 0.79565 0.41000
C 	C 	0.29565 0.43191 0.70435 0.40900
