data_crystal

_cell_length_a 13.86200
_cell_length_b 14.47700
_cell_length_c 14.66400
_cell_angle_alpha 95.33100
_cell_angle_beta  106.02100
_cell_angle_gamma 118.08400

_symmetry_space_group_name_	'P 1'
_symmetry_space_group_name_H-M	'P 1'

loop_
_symmetry_equiv_pos_as_xyz
  x,y,z

loop_
_atom_site_label
_atom_site_type_symbol
_atom_site_fract_x
_atom_site_fract_y
_atom_site_fract_z
_atom_site_charge
Cd	Cd	0.62151 0.71356 0.41856 1.22000
Cd	Cd	0.52645 0.72488 0.16923 1.23100
Cd	Cd	0.28356 0.79385 0.13661 1.22900
O 	O 	0.44490 0.97440 0.16310 -0.37000
O 	O 	0.48260 0.85890 0.22820 -0.47000
O 	O 	0.68560 0.88810 0.42480 -0.44300
O 	O 	0.69590 0.86350 0.27770 -0.46000
O 	O 	0.91090 0.10070 0.46470 -0.29100
O 	O 	0.84880 0.14170 0.85320 -0.35000
O 	O 	0.74770 0.16310 0.72290 -0.35000
O 	O 	0.44940 0.52930 0.36480 -0.36100
O 	O 	0.44980 0.64660 0.27960 -0.49200
O 	O 	0.19950 0.61690 0.15300 -0.39200
O 	O 	0.32880 0.64790 0.08120 -0.47800
O 	O 	0.09840 0.41730 0.96370 -0.29400
O 	O 	0.32080 0.36590 0.67990 -0.43300
O 	O 	0.38410 0.36770 0.83540 -0.42800
N 	N 	0.55770 0.73820 0.54580 -0.22200
N 	N 	0.53640 0.75130 0.02230 -0.26700
N 	N 	0.19680 0.76620 0.97200 -0.24000
N 	N 	0.78010 0.72880 0.54190 -0.23300
C 	C 	0.82350 0.11730 0.41020 0.26900
C 	C 	0.71880 0.02990 0.34870 -0.18700
C 	C 	0.69660 0.91770 0.35020 0.41400
C 	C 	0.63390 0.04470 0.28510 0.03100
C 	C 	0.51310 0.95390 0.22070 0.28500
C 	C 	0.66190 0.15290 0.28830 -0.13600
H 	H 	0.60870 0.16590 0.24600 0.09500
C 	C 	0.76700 0.23850 0.35350 0.11700
H 	H 	0.78290 0.30890 0.35640 -0.00900
C 	C 	0.84950 0.22210 0.41470 -0.25100
H 	H 	0.92090 0.28060 0.45810 0.12700
C 	C 	0.93400 0.10780 0.56410 0.26800
C 	C 	0.86390 0.11700 0.61160 -0.20800
H 	H 	0.79800 0.11890 0.57690 0.12900
C 	C 	0.89310 0.12320 0.71170 0.04400
C 	C 	0.82590 0.14140 0.76490 0.25500
C 	C 	0.99180 0.11920 0.76050 -0.13400
H 	H 	0.01270 0.12390 0.82750 0.08400
C 	C 	0.05930 0.10830 0.71160 0.10300
H 	H 	0.12450 0.10480 0.74540 0.00500
C 	C 	0.03020 0.10260 0.61240 -0.24100
H 	H 	0.07540 0.09540 0.57900 0.13200
C 	C 	0.15890 0.39420 0.04140 0.26600
C 	C 	0.24290 0.48000 0.12360 -0.18800
C 	C 	0.25910 0.59000 0.12090 0.37200
C 	C 	0.30160 0.45750 0.20390 0.02900
C 	C 	0.40400 0.54800 0.28890 0.28300
C 	C 	0.27020 0.35300 0.20370 -0.14700
H 	H 	0.30690 0.33800 0.25860 0.09600
C 	C 	0.18420 0.26940 0.12230 0.12900
H 	H 	0.16310 0.19840 0.12310 -0.01300
C 	C 	0.12940 0.28930 0.04070 -0.26600
H 	H 	0.07300 0.23260 0.98530 0.13800
C 	C 	0.11860 0.41000 0.87700 0.27200
C 	C 	0.20830 0.39720 0.86560 -0.20800
H 	H 	0.25960 0.39240 0.91850 0.11700
C 	C 	0.22060 0.39180 0.77680 0.02900
C 	C 	0.31640 0.37370 0.76290 0.34600
C 	C 	0.14570 0.39890 0.69800 -0.13800
H 	H 	0.15540 0.39640 0.63770 0.08600
C 	C 	0.05430 0.40990 0.70980 0.12000
H 	H 	0.00280 0.41480 0.65710 -0.01100
C 	C 	0.04080 0.41340 0.79870 -0.25600
H 	H 	0.97850 0.41810 0.80580 0.14500
C 	C 	0.49130 0.65050 0.57150 0.06900
H 	H 	0.45050 0.58360 0.52570 0.00500
C 	C 	0.47970 0.65300 0.65960 -0.12000
H 	H 	0.43190 0.58880 0.67280 0.07700
C 	C 	0.53800 0.75000 0.73070 0.02600
C 	C 	0.60590 0.84380 0.70490 -0.11600
H 	H 	0.64550 0.91180 0.74890 0.07800
C 	C 	0.61240 0.83290 0.61400 0.06600
H 	H 	0.65820 0.89580 0.59790 0.01300
C 	C 	0.53750 0.75280 0.83100 0.11600
C 	C 	0.45240 0.67380 0.85020 -0.18200
H 	H 	0.39220 0.61350 0.79930 0.09700
C 	C 	0.45130 0.67930 0.94520 0.11200
H 	H 	0.38420 0.62720 0.95320 -0.00800
C 	C 	0.61140 0.83030 0.00180 0.14500
H 	H 	0.66930 0.89060 0.05360 -0.03400
C 	C 	0.61460 0.83490 0.90980 -0.20100
H 	H 	0.67280 0.89760 0.90230 0.10400
C 	C 	0.21840 0.84890 0.93250 0.08900
H 	H 	0.28830 0.91430 0.96630 -0.01000
C 	C 	0.14520 0.84590 0.84500 -0.14500
H 	H 	0.16440 0.90770 0.82200 0.08700
C 	C 	0.04280 0.74850 0.79260 0.07000
C 	C 	0.02220 0.66000 0.83000 -0.14300
H 	H 	0.95580 0.59220 0.79590 0.09200
C 	C 	0.10040 0.67320 0.91730 0.09300
H 	H 	0.08500 0.61200 0.94060 0.00900
C 	C 	0.95460 0.74120 0.70230 0.06200
C 	C 	0.94390 0.82950 0.69180 -0.13100
H 	H 	0.99620 0.89570 0.73870 0.08000
C 	C 	0.85690 0.82080 0.61290 0.08300
H 	H 	0.85100 0.88170 0.60840 -0.00300
C 	C 	0.79440 0.64450 0.55150 0.09200
H 	H 	0.74420 0.58020 0.50200 -0.01000
C 	C 	0.87690 0.64680 0.62850 -0.14400
H 	H 	0.88120 0.58490 0.63150 0.08200
Cd	Cd	0.37849 0.28644 0.58144 1.22100
Cd	Cd	0.47355 0.27512 0.83077 1.23200
Cd	Cd	0.71644 0.20615 0.86339 1.22900
O 	O 	0.55510 0.02560 0.83690 -0.37000
O 	O 	0.51740 0.14110 0.77180 -0.47000
O 	O 	0.31440 0.11190 0.57520 -0.44300
O 	O 	0.30410 0.13650 0.72230 -0.46000
O 	O 	0.08910 0.89930 0.53530 -0.29100
O 	O 	0.15120 0.85830 0.14680 -0.35000
O 	O 	0.25230 0.83690 0.27710 -0.35000
O 	O 	0.55060 0.47070 0.63520 -0.36100
O 	O 	0.55020 0.35340 0.72040 -0.49200
O 	O 	0.80050 0.38310 0.84700 -0.39200
O 	O 	0.67120 0.35210 0.91880 -0.47800
O 	O 	0.90160 0.58270 0.03630 -0.29400
O 	O 	0.67920 0.63410 0.32010 -0.43300
O 	O 	0.61590 0.63230 0.16460 -0.42800
N 	N 	0.44230 0.26180 0.45420 -0.22200
N 	N 	0.46360 0.24870 0.97770 -0.26700
N 	N 	0.80320 0.23380 0.02800 -0.24000
N 	N 	0.21990 0.27120 0.45810 -0.23300
C 	C 	0.17650 0.88270 0.58980 0.26900
C 	C 	0.28120 0.97010 0.65130 -0.18700
C 	C 	0.30340 0.08230 0.64980 0.41400
C 	C 	0.36610 0.95530 0.71490 0.03100
C 	C 	0.48690 0.04610 0.77930 0.28500
C 	C 	0.33810 0.84710 0.71170 -0.13600
H 	H 	0.39130 0.83410 0.75400 0.09500
C 	C 	0.23300 0.76150 0.64650 0.11700
H 	H 	0.21710 0.69110 0.64360 -0.00900
C 	C 	0.15050 0.77790 0.58530 -0.25100
H 	H 	0.07910 0.71940 0.54190 0.12700
C 	C 	0.06600 0.89220 0.43590 0.26800
C 	C 	0.13610 0.88300 0.38840 -0.20800
H 	H 	0.20200 0.88110 0.42310 0.12900
C 	C 	0.10690 0.87680 0.28830 0.04400
C 	C 	0.17410 0.85860 0.23510 0.25500
C 	C 	0.00820 0.88080 0.23950 -0.13400
H 	H 	0.98730 0.87610 0.17250 0.08400
C 	C 	0.94070 0.89170 0.28840 0.10300
H 	H 	0.87550 0.89520 0.25460 0.00500
C 	C 	0.96980 0.89740 0.38760 -0.24100
H 	H 	0.92460 0.90460 0.42100 0.13200
C 	C 	0.84110 0.60580 0.95860 0.26600
C 	C 	0.75710 0.52000 0.87640 -0.18800
C 	C 	0.74090 0.41000 0.87910 0.37200
C 	C 	0.69840 0.54250 0.79610 0.02900
C 	C 	0.59600 0.45200 0.71110 0.28300
C 	C 	0.72980 0.64700 0.79630 -0.14700
H 	H 	0.69310 0.66200 0.74140 0.09600
C 	C 	0.81580 0.73060 0.87770 0.12900
H 	H 	0.83690 0.80160 0.87690 -0.01300
C 	C 	0.87060 0.71070 0.95930 -0.26600
H 	H 	0.92700 0.76740 0.01470 0.13800
C 	C 	0.88140 0.59000 0.12300 0.27200
C 	C 	0.79170 0.60280 0.13440 -0.20800
H 	H 	0.74040 0.60760 0.08150 0.11700
C 	C 	0.77940 0.60820 0.22320 0.02900
C 	C 	0.68360 0.62630 0.23710 0.34600
C 	C 	0.85430 0.60110 0.30200 -0.13800
H 	H 	0.84460 0.60360 0.36230 0.08600
C 	C 	0.94570 0.59010 0.29020 0.12000
H 	H 	0.99720 0.58520 0.34290 -0.01100
C 	C 	0.95920 0.58660 0.20130 -0.25600
H 	H 	0.02150 0.58190 0.19420 0.14500
C 	C 	0.50870 0.34950 0.42850 0.06900
H 	H 	0.54950 0.41640 0.47430 0.00500
C 	C 	0.52030 0.34700 0.34040 -0.12000
H 	H 	0.56810 0.41120 0.32720 0.07700
C 	C 	0.46200 0.25000 0.26930 0.02600
C 	C 	0.39410 0.15620 0.29510 -0.11600
H 	H 	0.35450 0.08820 0.25110 0.07800
C 	C 	0.38760 0.16710 0.38600 0.06600
H 	H 	0.34180 0.10420 0.40210 0.01300
C 	C 	0.46250 0.24720 0.16900 0.11600
C 	C 	0.54760 0.32620 0.14980 -0.18200
H 	H 	0.60780 0.38650 0.20070 0.09700
C 	C 	0.54870 0.32070 0.05480 0.11200
H 	H 	0.61580 0.37280 0.04680 -0.00800
C 	C 	0.38860 0.16970 0.99820 0.14500
H 	H 	0.33070 0.10940 0.94640 -0.03400
C 	C 	0.38540 0.16510 0.09020 -0.20100
H 	H 	0.32720 0.10240 0.09770 0.10400
C 	C 	0.78160 0.15110 0.06750 0.08900
H 	H 	0.71170 0.08570 0.03370 -0.01000
C 	C 	0.85480 0.15410 0.15500 -0.14500
H 	H 	0.83560 0.09230 0.17800 0.08700
C 	C 	0.95720 0.25150 0.20740 0.07000
C 	C 	0.97780 0.34000 0.17000 -0.14300
H 	H 	0.04420 0.40780 0.20410 0.09200
C 	C 	0.89960 0.32680 0.08270 0.09300
H 	H 	0.91500 0.38800 0.05940 0.00900
C 	C 	0.04540 0.25880 0.29770 0.06200
C 	C 	0.05610 0.17050 0.30820 -0.13100
H 	H 	0.00380 0.10430 0.26130 0.08000
C 	C 	0.14310 0.17920 0.38710 0.08300
H 	H 	0.14900 0.11830 0.39160 -0.00300
C 	C 	0.20560 0.35550 0.44850 0.09200
H 	H 	0.25580 0.41980 0.49800 -0.01000
C 	C 	0.12310 0.35320 0.37150 -0.14400
H 	H 	0.11880 0.41510 0.36850 0.08200
