data_crystal

_cell_length_a 34.37600
_cell_length_b 15.08320
_cell_length_c 29.64130
_cell_angle_alpha 90.00000
_cell_angle_beta  100.67500
_cell_angle_gamma 90.00000

_symmetry_space_group_name_	'P 1'
_symmetry_space_group_name_H-M	'P 1'

loop_
_symmetry_equiv_pos_as_xyz
  x,y,z

loop_
_atom_site_label
_atom_site_type_symbol
_atom_site_fract_x
_atom_site_fract_y
_atom_site_fract_z
_atom_site_charge
Zn	Zn	0.32989 0.36640 0.72877 0.64500
I 	I 	0.37474 0.34703 0.80671 -0.54100
I 	I 	0.26932 0.27260 0.70108 0.15600
I 	I 	0.62000 0.73986 0.57062 -0.23600
I 	I 	0.66018 0.55467 0.46695 -0.20100
Zn	Zn	0.63506 0.59310 0.53942 1.16100
Zn	Zn	0.42015 0.87266 0.40726 1.16500
I 	I 	0.38349 0.76154 0.44756 -0.37500
I 	I 	0.47317 0.84334 0.36056 -0.35300
N 	N 	0.36170 0.35160 0.67670 -0.30300
C 	C 	0.39450 0.39650 0.67900 0.09600
H 	H 	0.40030 0.44180 0.70150 -0.02700
C 	C 	0.42090 0.38120 0.65050 -0.13200
H 	H 	0.44450 0.41510 0.65400 0.08800
C 	C 	0.41340 0.31730 0.61690 0.06500
C 	C 	0.37840 0.27100 0.61380 -0.11700
H 	H 	0.37180 0.22620 0.59110 0.07700
C 	C 	0.35310 0.28980 0.64370 0.06400
H 	H 	0.32890 0.25810 0.64090 -0.02000
N 	N 	0.58576 0.51310 0.54080 -0.27400
C 	C 	0.57240 0.50290 0.58000 0.08600
H 	H 	0.58540 0.53430 0.60630 -0.01600
C 	C 	0.54130 0.45040 0.58450 -0.13100
H 	H 	0.53230 0.44690 0.61280 0.09100
C 	C 	0.52315 0.40180 0.54660 0.06100
C 	C 	0.53715 0.41030 0.50670 -0.12800
H 	H 	0.52560 0.37700 0.48040 0.08200
C 	C 	0.56807 0.46730 0.50480 0.08500
H 	H 	0.57700 0.47400 0.47650 -0.01200
N 	N 	0.44073 0.97320 0.45372 -0.26900
C 	C 	0.42126 0.98910 0.48760 0.06800
H 	H 	0.40260 0.94650 0.49390 -0.01200
C 	C 	0.42686 0.06380 0.51380 -0.11500
H 	H 	0.41240 0.07250 0.53780 0.08100
C 	C 	0.45398 0.12750 0.50516 0.05000
C 	C 	0.47553 0.10900 0.47100 -0.11500
H 	H 	0.49510 0.14940 0.46490 0.07300
C 	C 	0.46835 0.03190 0.44610 0.06500
H 	H 	0.48330 0.01960 0.42290 -0.00600
C 	C 	0.43973 0.29990 0.58460 0.08800
N 	N 	0.46853 0.35900 0.58158 -0.13600
C 	C 	0.49044 0.33980 0.55080 0.08700
N 	N 	0.48712 0.26820 0.52366 -0.14800
C 	C 	0.45842 0.21200 0.53139 0.09000
N 	N 	0.43410 0.22470 0.56029 -0.13800
N 	N 	0.67533 0.53300 0.59060 -0.27000
C 	C 	0.69970 0.57970 0.62250 0.06100
H 	H 	0.69740 0.64250 0.62260 0.00500
C 	C 	0.72780 0.53950 0.65510 -0.11400
H 	H 	0.74480 0.57410 0.67730 0.08400
C 	C 	0.73111 0.44810 0.65530 0.04300
C 	C 	0.70600 0.40020 0.62250 -0.11500
H 	H 	0.70750 0.33730 0.62190 0.08200
C 	C 	0.67860 0.44510 0.59070 0.06800
H 	H 	0.66140 0.41190 0.56800 0.00200
N 	N 	0.87716 0.55330 0.86378 -0.26600
C 	C 	0.84999 0.59550 0.83300 0.06000
H 	H 	0.84710 0.65780 0.83580 -0.01600
C 	C 	0.82605 0.55180 0.79730 -0.11900
H 	H 	0.80740 0.58360 0.77560 0.06600
C 	C 	0.82983 0.46050 0.79390 0.05700
C 	C 	0.85562 0.41650 0.82750 -0.11900
H 	H 	0.85770 0.35370 0.82720 0.09200
C 	C 	0.87840 0.46580 0.86190 0.07500
H 	H 	0.89590 0.43530 0.88540 -0.00200
N 	N 	0.81250 0.00070 0.72050 -0.29700
C 	C 	0.83060 0.05310 0.75380 0.06700
H 	H 	0.84840 0.02740 0.77870 -0.01600
C 	C 	0.82470 0.14440 0.75350 -0.12400
H 	H 	0.83790 0.18010 0.77810 0.08700
C 	C 	0.79972 0.18180 0.71750 0.06300
C 	C 	0.78130 0.12840 0.68260 -0.13300
H 	H 	0.76370 0.15250 0.65710 0.08400
C 	C 	0.78910 0.03800 0.68560 0.08300
H 	H 	0.77680 0.00120 0.66100 -0.02000
C 	C 	0.76049 0.40230 0.69060 0.08100
N 	N 	0.77979 0.45290 0.72503 -0.14500
C 	C 	0.80715 0.41000 0.75480 0.09800
N 	N 	0.81582 0.32390 0.75197 -0.13300
C 	C 	0.79361 0.27980 0.71760 0.09600
N 	N 	0.76591 0.31560 0.68563 -0.14400
Zn	Zn	0.31900 0.36560 0.71650 0.65500
I 	I 	0.36120 0.33190 0.79480 0.12500
I 	I 	0.25610 0.28570 0.68340 -0.56500
I 	I 	0.62370 0.73880 0.56320 -0.12200
I 	I 	0.65680 0.56480 0.46650 -0.13900
Zn	Zn	0.82989 0.86640 0.72877 0.64600
I 	I 	0.87474 0.84703 0.80671 -0.54000
I 	I 	0.76932 0.77260 0.70108 0.15700
I 	I 	0.12000 0.23986 0.57062 -0.23500
I 	I 	0.16018 0.05467 0.46695 -0.20000
Zn	Zn	0.13506 0.09310 0.53942 1.16200
Zn	Zn	0.92015 0.37266 0.40726 1.16500
I 	I 	0.88349 0.26154 0.44756 -0.37500
I 	I 	0.97317 0.34334 0.36056 -0.35300
N 	N 	0.86170 0.85160 0.67670 -0.30300
C 	C 	0.89450 0.89650 0.67900 0.09600
H 	H 	0.90030 0.94180 0.70150 -0.02700
C 	C 	0.92090 0.88120 0.65050 -0.13200
H 	H 	0.94450 0.91510 0.65400 0.08800
C 	C 	0.91340 0.81730 0.61690 0.06400
C 	C 	0.87840 0.77100 0.61380 -0.11700
H 	H 	0.87180 0.72620 0.59110 0.07700
C 	C 	0.85310 0.78980 0.64370 0.06400
H 	H 	0.82890 0.75810 0.64090 -0.02000
N 	N 	0.08576 0.01310 0.54080 -0.27400
C 	C 	0.07240 0.00290 0.58000 0.08600
H 	H 	0.08540 0.03430 0.60630 -0.01600
C 	C 	0.04130 0.95040 0.58450 -0.13100
H 	H 	0.03230 0.94690 0.61280 0.09100
C 	C 	0.02315 0.90180 0.54660 0.06100
C 	C 	0.03715 0.91030 0.50670 -0.12800
H 	H 	0.02560 0.87700 0.48040 0.08200
C 	C 	0.06807 0.96730 0.50480 0.08500
H 	H 	0.07700 0.97400 0.47650 -0.01200
N 	N 	0.94073 0.47320 0.45372 -0.26900
C 	C 	0.92126 0.48910 0.48760 0.06800
H 	H 	0.90260 0.44650 0.49390 -0.01200
C 	C 	0.92686 0.56380 0.51380 -0.11500
H 	H 	0.91240 0.57250 0.53780 0.08100
C 	C 	0.95398 0.62750 0.50516 0.05000
C 	C 	0.97553 0.60900 0.47100 -0.11500
H 	H 	0.99510 0.64940 0.46490 0.07300
C 	C 	0.96835 0.53190 0.44610 0.06600
H 	H 	0.98330 0.51960 0.42290 -0.00600
C 	C 	0.93973 0.79990 0.58460 0.08800
N 	N 	0.96853 0.85900 0.58158 -0.13600
C 	C 	0.99044 0.83980 0.55080 0.08700
N 	N 	0.98712 0.76820 0.52366 -0.14800
C 	C 	0.95842 0.71200 0.53139 0.09000
N 	N 	0.93410 0.72470 0.56029 -0.13800
N 	N 	0.17533 0.03300 0.59060 -0.27000
C 	C 	0.19970 0.07970 0.62250 0.06000
H 	H 	0.19740 0.14250 0.62260 0.00500
C 	C 	0.22780 0.03950 0.65510 -0.11400
H 	H 	0.24480 0.07410 0.67730 0.08300
C 	C 	0.23111 0.94810 0.65530 0.04300
C 	C 	0.20600 0.90020 0.62250 -0.11500
H 	H 	0.20750 0.83730 0.62190 0.08200
C 	C 	0.17860 0.94510 0.59070 0.06800
H 	H 	0.16140 0.91190 0.56800 0.00200
N 	N 	0.37716 0.05330 0.86378 -0.26600
C 	C 	0.34999 0.09550 0.83300 0.06000
H 	H 	0.34710 0.15780 0.83580 -0.01600
C 	C 	0.32605 0.05180 0.79730 -0.11900
H 	H 	0.30740 0.08360 0.77560 0.06600
C 	C 	0.32983 0.96050 0.79390 0.05700
C 	C 	0.35562 0.91650 0.82750 -0.11900
H 	H 	0.35770 0.85370 0.82720 0.09200
C 	C 	0.37840 0.96580 0.86190 0.07500
H 	H 	0.39590 0.93530 0.88540 -0.00100
N 	N 	0.31250 0.50070 0.72050 -0.29700
C 	C 	0.33060 0.55310 0.75380 0.06700
H 	H 	0.34840 0.52740 0.77870 -0.01600
C 	C 	0.32470 0.64440 0.75350 -0.12400
H 	H 	0.33790 0.68010 0.77810 0.08700
C 	C 	0.29972 0.68180 0.71750 0.06300
C 	C 	0.28130 0.62840 0.68260 -0.13300
H 	H 	0.26370 0.65250 0.65710 0.08400
C 	C 	0.28910 0.53800 0.68560 0.08300
H 	H 	0.27680 0.50120 0.66100 -0.02000
C 	C 	0.26049 0.90230 0.69060 0.08100
N 	N 	0.27979 0.95290 0.72503 -0.14500
C 	C 	0.30715 0.91000 0.75480 0.09900
N 	N 	0.31582 0.82390 0.75197 -0.13300
C 	C 	0.29361 0.77980 0.71760 0.09600
N 	N 	0.26591 0.81560 0.68563 -0.14400
Zn	Zn	0.81900 0.86560 0.71650 0.65500
I 	I 	0.86120 0.83190 0.79480 0.12500
I 	I 	0.75610 0.78570 0.68340 -0.56500
I 	I 	0.12370 0.23880 0.56320 -0.12200
I 	I 	0.15680 0.06480 0.46650 -0.13900
Zn	Zn	0.32989 0.63360 0.22877 0.64600
I 	I 	0.37474 0.65297 0.30671 -0.54000
I 	I 	0.26932 0.72740 0.20108 0.15700
I 	I 	0.62000 0.26014 0.07062 -0.23500
I 	I 	0.66018 0.44533 0.96695 -0.20000
Zn	Zn	0.63506 0.40690 0.03942 1.16200
Zn	Zn	0.42015 0.12734 0.90726 1.16500
I 	I 	0.38349 0.23846 0.94756 -0.37500
I 	I 	0.47317 0.15666 0.86056 -0.35300
N 	N 	0.36170 0.64840 0.17670 -0.30300
C 	C 	0.39450 0.60350 0.17900 0.09600
H 	H 	0.40030 0.55820 0.20150 -0.02700
C 	C 	0.42090 0.61880 0.15050 -0.13200
H 	H 	0.44450 0.58490 0.15400 0.08800
C 	C 	0.41340 0.68270 0.11690 0.06500
C 	C 	0.37840 0.72900 0.11380 -0.11700
H 	H 	0.37180 0.77380 0.09110 0.07700
C 	C 	0.35310 0.71020 0.14370 0.06400
H 	H 	0.32890 0.74190 0.14090 -0.02000
N 	N 	0.58576 0.48690 0.04080 -0.27400
C 	C 	0.57240 0.49710 0.08000 0.08600
H 	H 	0.58540 0.46570 0.10630 -0.01600
C 	C 	0.54130 0.54960 0.08450 -0.13100
H 	H 	0.53230 0.55310 0.11280 0.09100
C 	C 	0.52315 0.59820 0.04660 0.06100
C 	C 	0.53715 0.58970 0.00670 -0.12800
H 	H 	0.52560 0.62300 0.98040 0.08200
C 	C 	0.56807 0.53270 0.00480 0.08500
H 	H 	0.57700 0.52600 0.97650 -0.01200
N 	N 	0.44073 0.02680 0.95372 -0.26900
C 	C 	0.42126 0.01090 0.98760 0.06800
H 	H 	0.40260 0.05350 0.99390 -0.01200
C 	C 	0.42686 0.93620 0.01380 -0.11500
H 	H 	0.41240 0.92750 0.03780 0.08100
C 	C 	0.45398 0.87250 0.00516 0.05000
C 	C 	0.47553 0.89100 0.97100 -0.11500
H 	H 	0.49510 0.85060 0.96490 0.07300
C 	C 	0.46835 0.96810 0.94610 0.06600
H 	H 	0.48330 0.98040 0.92290 -0.00600
C 	C 	0.43973 0.70010 0.08460 0.08800
N 	N 	0.46853 0.64100 0.08158 -0.13600
C 	C 	0.49044 0.66020 0.05080 0.08700
N 	N 	0.48712 0.73180 0.02366 -0.14800
C 	C 	0.45842 0.78800 0.03139 0.09000
N 	N 	0.43410 0.77530 0.06029 -0.13800
N 	N 	0.67533 0.46700 0.09060 -0.27000
C 	C 	0.69970 0.42030 0.12250 0.06100
H 	H 	0.69740 0.35750 0.12260 0.00500
C 	C 	0.72780 0.46050 0.15510 -0.11400
H 	H 	0.74480 0.42590 0.17730 0.08400
C 	C 	0.73111 0.55190 0.15530 0.04300
C 	C 	0.70600 0.59980 0.12250 -0.11500
H 	H 	0.70750 0.66270 0.12190 0.08200
C 	C 	0.67860 0.55490 0.09070 0.06800
H 	H 	0.66140 0.58810 0.06800 0.00200
N 	N 	0.87716 0.44670 0.36378 -0.26600
C 	C 	0.84999 0.40450 0.33300 0.06000
H 	H 	0.84710 0.34220 0.33580 -0.01600
C 	C 	0.82605 0.44820 0.29730 -0.11900
H 	H 	0.80740 0.41640 0.27560 0.06600
C 	C 	0.82983 0.53950 0.29390 0.05700
C 	C 	0.85562 0.58350 0.32750 -0.11900
H 	H 	0.85770 0.64630 0.32720 0.09200
C 	C 	0.87840 0.53420 0.36190 0.07500
H 	H 	0.89590 0.56470 0.38540 -0.00200
N 	N 	0.81250 0.99930 0.22050 -0.29700
C 	C 	0.83060 0.94690 0.25380 0.06700
H 	H 	0.84840 0.97260 0.27870 -0.01600
C 	C 	0.82470 0.85560 0.25350 -0.12400
H 	H 	0.83790 0.81990 0.27810 0.08700
C 	C 	0.79972 0.81820 0.21750 0.06300
C 	C 	0.78130 0.87160 0.18260 -0.13300
H 	H 	0.76370 0.84750 0.15710 0.08400
C 	C 	0.78910 0.96200 0.18560 0.08300
H 	H 	0.77680 0.99880 0.16100 -0.02000
C 	C 	0.76049 0.59770 0.19060 0.08100
N 	N 	0.77979 0.54710 0.22503 -0.14500
C 	C 	0.80715 0.59000 0.25480 0.09800
N 	N 	0.81582 0.67610 0.25197 -0.13300
C 	C 	0.79361 0.72020 0.21760 0.09600
N 	N 	0.76591 0.68440 0.18563 -0.14400
Zn	Zn	0.31900 0.63440 0.21650 0.65500
I 	I 	0.36120 0.66810 0.29480 0.12500
I 	I 	0.25610 0.71430 0.18340 -0.56500
I 	I 	0.62370 0.26120 0.06320 -0.12200
I 	I 	0.65680 0.43520 0.96650 -0.13900
Zn	Zn	0.82989 0.13360 0.22877 0.64600
I 	I 	0.87474 0.15297 0.30671 -0.54000
I 	I 	0.76932 0.22740 0.20108 0.15700
I 	I 	0.12000 0.76014 0.07062 -0.23500
I 	I 	0.16018 0.94533 0.96695 -0.20000
Zn	Zn	0.13506 0.90690 0.03942 1.16200
Zn	Zn	0.92015 0.62734 0.90726 1.16500
I 	I 	0.88349 0.73846 0.94756 -0.37500
I 	I 	0.97317 0.65666 0.86056 -0.35300
N 	N 	0.86170 0.14840 0.17670 -0.30300
C 	C 	0.89450 0.10350 0.17900 0.09600
H 	H 	0.90030 0.05820 0.20150 -0.02700
C 	C 	0.92090 0.11880 0.15050 -0.13200
H 	H 	0.94450 0.08490 0.15400 0.08800
C 	C 	0.91340 0.18270 0.11690 0.06500
C 	C 	0.87840 0.22900 0.11380 -0.11700
H 	H 	0.87180 0.27380 0.09110 0.07700
C 	C 	0.85310 0.21020 0.14370 0.06400
H 	H 	0.82890 0.24190 0.14090 -0.02000
N 	N 	0.08576 0.98690 0.04080 -0.27400
C 	C 	0.07240 0.99710 0.08000 0.08600
H 	H 	0.08540 0.96570 0.10630 -0.01600
C 	C 	0.04130 0.04960 0.08450 -0.13100
H 	H 	0.03230 0.05310 0.11280 0.09100
C 	C 	0.02315 0.09820 0.04660 0.06100
C 	C 	0.03715 0.08970 0.00670 -0.12800
H 	H 	0.02560 0.12300 0.98040 0.08200
C 	C 	0.06807 0.03270 0.00480 0.08500
H 	H 	0.07700 0.02600 0.97650 -0.01200
N 	N 	0.94073 0.52680 0.95372 -0.26900
C 	C 	0.92126 0.51090 0.98760 0.06800
H 	H 	0.90260 0.55350 0.99390 -0.01200
C 	C 	0.92686 0.43620 0.01380 -0.11500
H 	H 	0.91240 0.42750 0.03780 0.08100
C 	C 	0.95398 0.37250 0.00516 0.05000
C 	C 	0.97553 0.39100 0.97100 -0.11500
H 	H 	0.99510 0.35060 0.96490 0.07300
C 	C 	0.96835 0.46810 0.94610 0.06600
H 	H 	0.98330 0.48040 0.92290 -0.00600
C 	C 	0.93973 0.20010 0.08460 0.08800
N 	N 	0.96853 0.14100 0.08158 -0.13600
C 	C 	0.99044 0.16020 0.05080 0.08700
N 	N 	0.98712 0.23180 0.02366 -0.14700
C 	C 	0.95842 0.28800 0.03139 0.09000
N 	N 	0.93410 0.27530 0.06029 -0.13800
N 	N 	0.17533 0.96700 0.09060 -0.27000
C 	C 	0.19970 0.92030 0.12250 0.06000
H 	H 	0.19740 0.85750 0.12260 0.00500
C 	C 	0.22780 0.96050 0.15510 -0.11400
H 	H 	0.24480 0.92590 0.17730 0.08300
C 	C 	0.23111 0.05190 0.15530 0.04300
C 	C 	0.20600 0.09980 0.12250 -0.11500
H 	H 	0.20750 0.16270 0.12190 0.08200
C 	C 	0.17860 0.05490 0.09070 0.06800
H 	H 	0.16140 0.08810 0.06800 0.00200
N 	N 	0.37716 0.94670 0.36378 -0.26600
C 	C 	0.34999 0.90450 0.33300 0.06000
H 	H 	0.34710 0.84220 0.33580 -0.01600
C 	C 	0.32605 0.94820 0.29730 -0.11900
H 	H 	0.30740 0.91640 0.27560 0.06600
C 	C 	0.32983 0.03950 0.29390 0.05700
C 	C 	0.35562 0.08350 0.32750 -0.11900
H 	H 	0.35770 0.14630 0.32720 0.09200
C 	C 	0.37840 0.03420 0.36190 0.07500
H 	H 	0.39590 0.06470 0.38540 -0.00100
N 	N 	0.31250 0.49930 0.22050 -0.29700
C 	C 	0.33060 0.44690 0.25380 0.06700
H 	H 	0.34840 0.47260 0.27870 -0.01600
C 	C 	0.32470 0.35560 0.25350 -0.12400
H 	H 	0.33790 0.31990 0.27810 0.08700
C 	C 	0.29972 0.31820 0.21750 0.06300
C 	C 	0.28130 0.37160 0.18260 -0.13300
H 	H 	0.26370 0.34750 0.15710 0.08400
C 	C 	0.28910 0.46200 0.18560 0.08300
H 	H 	0.27680 0.49880 0.16100 -0.02000
C 	C 	0.26049 0.09770 0.19060 0.08100
N 	N 	0.27979 0.04710 0.22503 -0.14500
C 	C 	0.30715 0.09000 0.25480 0.09900
N 	N 	0.31582 0.17610 0.25197 -0.13300
C 	C 	0.29361 0.22020 0.21760 0.09600
N 	N 	0.26591 0.18440 0.18563 -0.14400
Zn	Zn	0.81900 0.13440 0.21650 0.65500
I 	I 	0.86120 0.16810 0.29480 0.12500
I 	I 	0.75610 0.21430 0.18340 -0.56500
I 	I 	0.12370 0.76120 0.06320 -0.12200
I 	I 	0.15680 0.93520 0.96650 -0.13900
Zn	Zn	0.67011 0.36640 0.77123 0.64600
I 	I 	0.62526 0.34703 0.69329 -0.54000
I 	I 	0.73068 0.27260 0.79892 0.15700
I 	I 	0.38000 0.73986 0.92938 -0.23500
I 	I 	0.33982 0.55467 0.03305 -0.20000
Zn	Zn	0.36494 0.59310 0.96058 1.16200
Zn	Zn	0.57985 0.87266 0.09274 1.16500
I 	I 	0.61651 0.76154 0.05244 -0.37500
I 	I 	0.52683 0.84334 0.13944 -0.35300
N 	N 	0.63830 0.35160 0.82330 -0.30300
C 	C 	0.60550 0.39650 0.82100 0.09600
H 	H 	0.59970 0.44180 0.79850 -0.02700
C 	C 	0.57910 0.38120 0.84950 -0.13200
H 	H 	0.55550 0.41510 0.84600 0.08800
C 	C 	0.58660 0.31730 0.88310 0.06500
C 	C 	0.62160 0.27100 0.88620 -0.11700
H 	H 	0.62820 0.22620 0.90890 0.07700
C 	C 	0.64690 0.28980 0.85630 0.06400
H 	H 	0.67110 0.25810 0.85910 -0.02000
N 	N 	0.41424 0.51310 0.95920 -0.27400
C 	C 	0.42760 0.50290 0.92000 0.08600
H 	H 	0.41460 0.53430 0.89370 -0.01600
C 	C 	0.45870 0.45040 0.91550 -0.13100
H 	H 	0.46770 0.44690 0.88720 0.09100
C 	C 	0.47685 0.40180 0.95340 0.06100
C 	C 	0.46285 0.41030 0.99330 -0.12800
H 	H 	0.47440 0.37700 0.01960 0.08200
C 	C 	0.43193 0.46730 0.99520 0.08500
H 	H 	0.42300 0.47400 0.02350 -0.01200
N 	N 	0.55927 0.97320 0.04628 -0.26900
C 	C 	0.57874 0.98910 0.01240 0.06800
H 	H 	0.59740 0.94650 0.00610 -0.01200
C 	C 	0.57314 0.06380 0.98620 -0.11500
H 	H 	0.58760 0.07250 0.96220 0.08100
C 	C 	0.54602 0.12750 0.99484 0.05000
C 	C 	0.52447 0.10900 0.02900 -0.11500
H 	H 	0.50490 0.14940 0.03510 0.07300
C 	C 	0.53165 0.03190 0.05390 0.06600
H 	H 	0.51670 0.01960 0.07710 -0.00600
C 	C 	0.56027 0.29990 0.91540 0.08800
N 	N 	0.53147 0.35900 0.91842 -0.13600
C 	C 	0.50956 0.33980 0.94920 0.08700
N 	N 	0.51288 0.26820 0.97634 -0.14800
C 	C 	0.54158 0.21200 0.96861 0.09000
N 	N 	0.56590 0.22470 0.93971 -0.13800
N 	N 	0.32467 0.53300 0.90940 -0.27000
C 	C 	0.30030 0.57970 0.87750 0.06100
H 	H 	0.30260 0.64250 0.87740 0.00500
C 	C 	0.27220 0.53950 0.84490 -0.11400
H 	H 	0.25520 0.57410 0.82270 0.08400
C 	C 	0.26889 0.44810 0.84470 0.04300
C 	C 	0.29400 0.40020 0.87750 -0.11500
H 	H 	0.29250 0.33730 0.87810 0.08200
C 	C 	0.32140 0.44510 0.90930 0.06800
H 	H 	0.33860 0.41190 0.93200 0.00200
N 	N 	0.12284 0.55330 0.63622 -0.26600
C 	C 	0.15001 0.59550 0.66700 0.06000
H 	H 	0.15290 0.65780 0.66420 -0.01600
C 	C 	0.17395 0.55180 0.70270 -0.11900
H 	H 	0.19260 0.58360 0.72440 0.06600
C 	C 	0.17017 0.46050 0.70610 0.05700
C 	C 	0.14438 0.41650 0.67250 -0.11900
H 	H 	0.14230 0.35370 0.67280 0.09200
C 	C 	0.12160 0.46580 0.63810 0.07500
H 	H 	0.10410 0.43530 0.61460 -0.00200
N 	N 	0.18750 0.00070 0.77950 -0.29700
C 	C 	0.16940 0.05310 0.74620 0.06700
H 	H 	0.15160 0.02740 0.72130 -0.01600
C 	C 	0.17530 0.14440 0.74650 -0.12400
H 	H 	0.16210 0.18010 0.72190 0.08700
C 	C 	0.20028 0.18180 0.78250 0.06300
C 	C 	0.21870 0.12840 0.81740 -0.13300
H 	H 	0.23630 0.15250 0.84290 0.08400
C 	C 	0.21090 0.03800 0.81440 0.08300
H 	H 	0.22320 0.00120 0.83900 -0.02000
C 	C 	0.23951 0.40230 0.80940 0.08100
N 	N 	0.22021 0.45290 0.77497 -0.14500
C 	C 	0.19285 0.41000 0.74520 0.09800
N 	N 	0.18418 0.32390 0.74803 -0.13300
C 	C 	0.20639 0.27980 0.78240 0.09600
N 	N 	0.23409 0.31560 0.81437 -0.14400
Zn	Zn	0.68100 0.36560 0.78350 0.65500
I 	I 	0.63880 0.33190 0.70520 0.12500
I 	I 	0.74390 0.28570 0.81660 -0.56500
I 	I 	0.37630 0.73880 0.93680 -0.12200
I 	I 	0.34320 0.56480 0.03350 -0.13900
Zn	Zn	0.17011 0.86640 0.77123 0.64600
I 	I 	0.12526 0.84703 0.69329 -0.54000
I 	I 	0.23068 0.77260 0.79892 0.15700
I 	I 	0.88000 0.23986 0.92938 -0.23500
I 	I 	0.83982 0.05467 0.03305 -0.20000
Zn	Zn	0.86494 0.09310 0.96058 1.16200
Zn	Zn	0.07985 0.37266 0.09274 1.16500
I 	I 	0.11651 0.26154 0.05244 -0.37500
I 	I 	0.02683 0.34334 0.13944 -0.35300
N 	N 	0.13830 0.85160 0.82330 -0.30300
C 	C 	0.10550 0.89650 0.82100 0.09600
H 	H 	0.09970 0.94180 0.79850 -0.02700
C 	C 	0.07910 0.88120 0.84950 -0.13200
H 	H 	0.05550 0.91510 0.84600 0.08800
C 	C 	0.08660 0.81730 0.88310 0.06500
C 	C 	0.12160 0.77100 0.88620 -0.11700
H 	H 	0.12820 0.72620 0.90890 0.07700
C 	C 	0.14690 0.78980 0.85630 0.06400
H 	H 	0.17110 0.75810 0.85910 -0.02000
N 	N 	0.91424 0.01310 0.95920 -0.27400
C 	C 	0.92760 0.00290 0.92000 0.08600
H 	H 	0.91460 0.03430 0.89370 -0.01600
C 	C 	0.95870 0.95040 0.91550 -0.13100
H 	H 	0.96770 0.94690 0.88720 0.09100
C 	C 	0.97685 0.90180 0.95340 0.06100
C 	C 	0.96285 0.91030 0.99330 -0.12800
H 	H 	0.97440 0.87700 0.01960 0.08200
C 	C 	0.93193 0.96730 0.99520 0.08500
H 	H 	0.92300 0.97400 0.02350 -0.01200
N 	N 	0.05927 0.47320 0.04628 -0.26900
C 	C 	0.07874 0.48910 0.01240 0.06800
H 	H 	0.09740 0.44650 0.00610 -0.01200
C 	C 	0.07314 0.56380 0.98620 -0.11500
H 	H 	0.08760 0.57250 0.96220 0.08100
C 	C 	0.04602 0.62750 0.99484 0.05000
C 	C 	0.02447 0.60900 0.02900 -0.11500
H 	H 	0.00490 0.64940 0.03510 0.07300
C 	C 	0.03165 0.53190 0.05390 0.06600
H 	H 	0.01670 0.51960 0.07710 -0.00600
C 	C 	0.06027 0.79990 0.91540 0.08800
N 	N 	0.03147 0.85900 0.91842 -0.13600
C 	C 	0.00956 0.83980 0.94920 0.08700
N 	N 	0.01288 0.76820 0.97634 -0.14700
C 	C 	0.04158 0.71200 0.96861 0.09000
N 	N 	0.06590 0.72470 0.93971 -0.13800
N 	N 	0.82467 0.03300 0.90940 -0.27000
C 	C 	0.80030 0.07970 0.87750 0.06000
H 	H 	0.80260 0.14250 0.87740 0.00500
C 	C 	0.77220 0.03950 0.84490 -0.11400
H 	H 	0.75520 0.07410 0.82270 0.08300
C 	C 	0.76889 0.94810 0.84470 0.04300
C 	C 	0.79400 0.90020 0.87750 -0.11500
H 	H 	0.79250 0.83730 0.87810 0.08200
C 	C 	0.82140 0.94510 0.90930 0.06800
H 	H 	0.83860 0.91190 0.93200 0.00200
N 	N 	0.62284 0.05330 0.63622 -0.26600
C 	C 	0.65001 0.09550 0.66700 0.06000
H 	H 	0.65290 0.15780 0.66420 -0.01600
C 	C 	0.67395 0.05180 0.70270 -0.11900
H 	H 	0.69260 0.08360 0.72440 0.06600
C 	C 	0.67017 0.96050 0.70610 0.05700
C 	C 	0.64438 0.91650 0.67250 -0.11900
H 	H 	0.64230 0.85370 0.67280 0.09200
C 	C 	0.62160 0.96580 0.63810 0.07500
H 	H 	0.60410 0.93530 0.61460 -0.00100
N 	N 	0.68750 0.50070 0.77950 -0.29700
C 	C 	0.66940 0.55310 0.74620 0.06700
H 	H 	0.65160 0.52740 0.72130 -0.01600
C 	C 	0.67530 0.64440 0.74650 -0.12400
H 	H 	0.66210 0.68010 0.72190 0.08700
C 	C 	0.70028 0.68180 0.78250 0.06300
C 	C 	0.71870 0.62840 0.81740 -0.13300
H 	H 	0.73630 0.65250 0.84290 0.08400
C 	C 	0.71090 0.53800 0.81440 0.08300
H 	H 	0.72320 0.50120 0.83900 -0.02000
C 	C 	0.73951 0.90230 0.80940 0.08100
N 	N 	0.72021 0.95290 0.77497 -0.14500
C 	C 	0.69285 0.91000 0.74520 0.09900
N 	N 	0.68418 0.82390 0.74803 -0.13300
C 	C 	0.70639 0.77980 0.78240 0.09600
N 	N 	0.73409 0.81560 0.81437 -0.14400
Zn	Zn	0.18100 0.86560 0.78350 0.65500
I 	I 	0.13880 0.83190 0.70520 0.12500
I 	I 	0.24390 0.78570 0.81660 -0.56500
I 	I 	0.87630 0.23880 0.93680 -0.12200
I 	I 	0.84320 0.06480 0.03350 -0.13900
Zn	Zn	0.67011 0.63360 0.27123 0.64600
I 	I 	0.62526 0.65297 0.19329 -0.54000
I 	I 	0.73068 0.72740 0.29892 0.15700
I 	I 	0.38000 0.26014 0.42938 -0.23500
I 	I 	0.33982 0.44533 0.53305 -0.20000
Zn	Zn	0.36494 0.40690 0.46058 1.16200
Zn	Zn	0.57985 0.12734 0.59274 1.16500
I 	I 	0.61651 0.23846 0.55244 -0.37500
I 	I 	0.52683 0.15666 0.63944 -0.35300
N 	N 	0.63830 0.64840 0.32330 -0.30300
C 	C 	0.60550 0.60350 0.32100 0.09600
H 	H 	0.59970 0.55820 0.29850 -0.02700
C 	C 	0.57910 0.61880 0.34950 -0.13200
H 	H 	0.55550 0.58490 0.34600 0.08800
C 	C 	0.58660 0.68270 0.38310 0.06500
C 	C 	0.62160 0.72900 0.38620 -0.11700
H 	H 	0.62820 0.77380 0.40890 0.07700
C 	C 	0.64690 0.71020 0.35630 0.06400
H 	H 	0.67110 0.74190 0.35910 -0.02000
N 	N 	0.41424 0.48690 0.45920 -0.27400
C 	C 	0.42760 0.49710 0.42000 0.08600
H 	H 	0.41460 0.46570 0.39370 -0.01600
C 	C 	0.45870 0.54960 0.41550 -0.13100
H 	H 	0.46770 0.55310 0.38720 0.09100
C 	C 	0.47685 0.59820 0.45340 0.06100
C 	C 	0.46285 0.58970 0.49330 -0.12800
H 	H 	0.47440 0.62300 0.51960 0.08200
C 	C 	0.43193 0.53270 0.49520 0.08500
H 	H 	0.42300 0.52600 0.52350 -0.01200
N 	N 	0.55927 0.02680 0.54628 -0.26900
C 	C 	0.57874 0.01090 0.51240 0.06800
H 	H 	0.59740 0.05350 0.50610 -0.01200
C 	C 	0.57314 0.93620 0.48620 -0.11500
H 	H 	0.58760 0.92750 0.46220 0.08100
C 	C 	0.54602 0.87250 0.49484 0.05000
C 	C 	0.52447 0.89100 0.52900 -0.11500
H 	H 	0.50490 0.85060 0.53510 0.07300
C 	C 	0.53165 0.96810 0.55390 0.06500
H 	H 	0.51670 0.98040 0.57710 -0.00600
C 	C 	0.56027 0.70010 0.41540 0.08800
N 	N 	0.53147 0.64100 0.41842 -0.13600
C 	C 	0.50956 0.66020 0.44920 0.08700
N 	N 	0.51288 0.73180 0.47634 -0.14800
C 	C 	0.54158 0.78800 0.46861 0.09000
N 	N 	0.56590 0.77530 0.43971 -0.13800
N 	N 	0.32467 0.46700 0.40940 -0.27000
C 	C 	0.30030 0.42030 0.37750 0.06100
H 	H 	0.30260 0.35750 0.37740 0.00500
C 	C 	0.27220 0.46050 0.34490 -0.11400
H 	H 	0.25520 0.42590 0.32270 0.08400
C 	C 	0.26889 0.55190 0.34470 0.04300
C 	C 	0.29400 0.59980 0.37750 -0.11500
H 	H 	0.29250 0.66270 0.37810 0.08200
C 	C 	0.32140 0.55490 0.40930 0.06800
H 	H 	0.33860 0.58810 0.43200 0.00200
N 	N 	0.12284 0.44670 0.13622 -0.26600
C 	C 	0.15001 0.40450 0.16700 0.06000
H 	H 	0.15290 0.34220 0.16420 -0.01600
C 	C 	0.17395 0.44820 0.20270 -0.11900
H 	H 	0.19260 0.41640 0.22440 0.06600
C 	C 	0.17017 0.53950 0.20610 0.05700
C 	C 	0.14438 0.58350 0.17250 -0.11900
H 	H 	0.14230 0.64630 0.17280 0.09200
C 	C 	0.12160 0.53420 0.13810 0.07500
H 	H 	0.10410 0.56470 0.11460 -0.00200
N 	N 	0.18750 0.99930 0.27950 -0.29700
C 	C 	0.16940 0.94690 0.24620 0.06700
H 	H 	0.15160 0.97260 0.22130 -0.01600
C 	C 	0.17530 0.85560 0.24650 -0.12400
H 	H 	0.16210 0.81990 0.22190 0.08700
C 	C 	0.20028 0.81820 0.28250 0.06300
C 	C 	0.21870 0.87160 0.31740 -0.13300
H 	H 	0.23630 0.84750 0.34290 0.08400
C 	C 	0.21090 0.96200 0.31440 0.08300
H 	H 	0.22320 0.99880 0.33900 -0.02000
C 	C 	0.23951 0.59770 0.30940 0.08100
N 	N 	0.22021 0.54710 0.27497 -0.14500
C 	C 	0.19285 0.59000 0.24520 0.09800
N 	N 	0.18418 0.67610 0.24803 -0.13300
C 	C 	0.20639 0.72020 0.28240 0.09600
N 	N 	0.23409 0.68440 0.31437 -0.14400
Zn	Zn	0.68100 0.63440 0.28350 0.65500
I 	I 	0.63880 0.66810 0.20520 0.12500
I 	I 	0.74390 0.71430 0.31660 -0.56500
I 	I 	0.37630 0.26120 0.43680 -0.12200
I 	I 	0.34320 0.43520 0.53350 -0.13900
Zn	Zn	0.17011 0.13360 0.27123 0.64600
I 	I 	0.12526 0.15297 0.19329 -0.54000
I 	I 	0.23068 0.22740 0.29892 0.15700
I 	I 	0.88000 0.76014 0.42938 -0.23500
I 	I 	0.83982 0.94533 0.53305 -0.20000
Zn	Zn	0.86494 0.90690 0.46058 1.16200
Zn	Zn	0.07985 0.62734 0.59274 1.16500
I 	I 	0.11651 0.73846 0.55244 -0.37500
I 	I 	0.02683 0.65666 0.63944 -0.35300
N 	N 	0.13830 0.14840 0.32330 -0.30300
C 	C 	0.10550 0.10350 0.32100 0.09600
H 	H 	0.09970 0.05820 0.29850 -0.02700
C 	C 	0.07910 0.11880 0.34950 -0.13200
H 	H 	0.05550 0.08490 0.34600 0.08800
C 	C 	0.08660 0.18270 0.38310 0.06400
C 	C 	0.12160 0.22900 0.38620 -0.11700
H 	H 	0.12820 0.27380 0.40890 0.07700
C 	C 	0.14690 0.21020 0.35630 0.06400
H 	H 	0.17110 0.24190 0.35910 -0.02000
N 	N 	0.91424 0.98690 0.45920 -0.27400
C 	C 	0.92760 0.99710 0.42000 0.08600
H 	H 	0.91460 0.96570 0.39370 -0.01600
C 	C 	0.95870 0.04960 0.41550 -0.13100
H 	H 	0.96770 0.05310 0.38720 0.09100
C 	C 	0.97685 0.09820 0.45340 0.06100
C 	C 	0.96285 0.08970 0.49330 -0.12800
H 	H 	0.97440 0.12300 0.51960 0.08200
C 	C 	0.93193 0.03270 0.49520 0.08500
H 	H 	0.92300 0.02600 0.52350 -0.01200
N 	N 	0.05927 0.52680 0.54628 -0.26900
C 	C 	0.07874 0.51090 0.51240 0.06800
H 	H 	0.09740 0.55350 0.50610 -0.01200
C 	C 	0.07314 0.43620 0.48620 -0.11500
H 	H 	0.08760 0.42750 0.46220 0.08100
C 	C 	0.04602 0.37250 0.49484 0.05000
C 	C 	0.02447 0.39100 0.52900 -0.11500
H 	H 	0.00490 0.35060 0.53510 0.07300
C 	C 	0.03165 0.46810 0.55390 0.06600
H 	H 	0.01670 0.48040 0.57710 -0.00600
C 	C 	0.06027 0.20010 0.41540 0.08800
N 	N 	0.03147 0.14100 0.41842 -0.13600
C 	C 	0.00956 0.16020 0.44920 0.08700
N 	N 	0.01288 0.23180 0.47634 -0.14800
C 	C 	0.04158 0.28800 0.46861 0.09000
N 	N 	0.06590 0.27530 0.43971 -0.13800
N 	N 	0.82467 0.96700 0.40940 -0.27000
C 	C 	0.80030 0.92030 0.37750 0.06000
H 	H 	0.80260 0.85750 0.37740 0.00500
C 	C 	0.77220 0.96050 0.34490 -0.11400
H 	H 	0.75520 0.92590 0.32270 0.08300
C 	C 	0.76889 0.05190 0.34470 0.04300
C 	C 	0.79400 0.09980 0.37750 -0.11500
H 	H 	0.79250 0.16270 0.37810 0.08200
C 	C 	0.82140 0.05490 0.40930 0.06800
H 	H 	0.83860 0.08810 0.43200 0.00200
N 	N 	0.62284 0.94670 0.13622 -0.26600
C 	C 	0.65001 0.90450 0.16700 0.06000
H 	H 	0.65290 0.84220 0.16420 -0.01600
C 	C 	0.67395 0.94820 0.20270 -0.11900
H 	H 	0.69260 0.91640 0.22440 0.06600
C 	C 	0.67017 0.03950 0.20610 0.05700
C 	C 	0.64438 0.08350 0.17250 -0.11900
H 	H 	0.64230 0.14630 0.17280 0.09200
C 	C 	0.62160 0.03420 0.13810 0.07500
H 	H 	0.60410 0.06470 0.11460 -0.00100
N 	N 	0.68750 0.49930 0.27950 -0.29700
C 	C 	0.66940 0.44690 0.24620 0.06700
H 	H 	0.65160 0.47260 0.22130 -0.01600
C 	C 	0.67530 0.35560 0.24650 -0.12400
H 	H 	0.66210 0.31990 0.22190 0.08700
C 	C 	0.70028 0.31820 0.28250 0.06300
C 	C 	0.71870 0.37160 0.31740 -0.13300
H 	H 	0.73630 0.34750 0.34290 0.08400
C 	C 	0.71090 0.46200 0.31440 0.08300
H 	H 	0.72320 0.49880 0.33900 -0.02000
C 	C 	0.73951 0.09770 0.30940 0.08100
N 	N 	0.72021 0.04710 0.27497 -0.14500
C 	C 	0.69285 0.09000 0.24520 0.09900
N 	N 	0.68418 0.17610 0.24803 -0.13300
C 	C 	0.70639 0.22020 0.28240 0.09600
N 	N 	0.73409 0.18440 0.31437 -0.14400
Zn	Zn	0.18100 0.13440 0.28350 0.65500
I 	I 	0.13880 0.16810 0.20520 0.12500
I 	I 	0.24390 0.21430 0.31660 -0.56500
I 	I 	0.87630 0.76120 0.43680 -0.12200
I 	I 	0.84320 0.93520 0.53350 -0.13900
