data_crystal

_cell_length_a 32.80720
_cell_length_b 14.91230
_cell_length_c 34.90620
_cell_angle_alpha 90.00000
_cell_angle_beta  105.82200
_cell_angle_gamma 90.00000

_symmetry_space_group_name_	'P 1'
_symmetry_space_group_name_H-M	'P 1'

loop_
_symmetry_equiv_pos_as_xyz
  x,y,z

loop_
_atom_site_label
_atom_site_type_symbol
_atom_site_fract_x
_atom_site_fract_y
_atom_site_fract_z
_atom_site_charge
N 	N 	0.93839 0.33630 0.11394 -0.27800
I 	I 	0.95545 0.40680 0.01740 -0.37900
Zn	Zn	0.98081 0.31435 0.08095 1.16100
C 	C 	0.92520 0.42010 0.11870 0.06600
H 	H 	0.93620 0.46860 0.10700 -0.01500
I 	I 	0.05563 0.32989 0.12625 -0.38100
Zn	Zn	0.67121 0.79335 0.15206 1.16300
C 	C 	0.89620 0.43810 0.13990 -0.11500
H 	H 	0.88740 0.49790 0.14250 0.08400
I 	I 	0.70751 0.90029 0.11492 -0.34200
Zn	Zn	0.81949 0.05258 0.36222 1.15600
C 	C 	0.88019 0.36730 0.15738 0.05900
I 	I 	0.64077 0.82307 0.21031 -0.33000
Zn	Zn	0.98981 0.77396 0.58766 1.16300
C 	C 	0.89430 0.28050 0.15270 -0.11900
H 	H 	0.88420 0.23050 0.16430 0.08400
I 	I 	0.75273 0.04586 0.38468 -0.39600
Zn	Zn	0.17471 0.03392 0.65542 1.15400
C 	C 	0.92320 0.26930 0.13070 0.07800
H 	H 	0.93270 0.21030 0.12750 -0.02000
I 	I 	0.85712 0.91324 0.34560 -0.33900
Zn	Zn	0.67739 0.26647 0.62028 1.16200
N 	N 	0.71237 0.68390 0.16686 -0.26600
I 	I 	0.05991 0.80375 0.63906 -0.37600
Zn	Zn	0.30762 0.23771 0.36796 1.16300
C 	C 	0.73250 0.65660 0.14060 0.06700
H 	H 	0.72830 0.68870 0.11640 -0.01200
I 	I 	0.96416 0.87720 0.52737 -0.34700
Zn	Zn	0.48092 0.50521 0.58652 1.16300
C 	C 	0.75930 0.58300 0.14750 -0.11200
H 	H 	0.77340 0.56500 0.12830 0.08000
I 	I 	0.13893 0.01101 0.71087 -0.38900
Zn	Zn	0.30628 0.76691 0.86862 1.16400
C 	C 	0.76524 0.53630 0.18288 0.04700
I 	I 	0.21147 0.91548 0.62446 -0.34400
Zn	Zn	0.17500 0.55409 0.11952 1.16300
C 	C 	0.74410 0.56460 0.21033 -0.10300
H 	H 	0.74750 0.53370 0.23480 0.06300
I 	I 	0.69150 0.32497 0.55607 -0.37200
Zn	Zn	0.49022 0.04434 0.08388 1.15500
C 	C 	0.71791 0.63890 0.20107 0.06200
H 	H 	0.70340 0.65860 0.21970 -0.00600
I 	I 	0.67484 0.37322 0.67500 -0.37500
Zn	Zn	0.80015 0.58765 0.87101 1.16400
N 	N 	0.81339 0.14010 0.31472 -0.27300
I 	I 	0.23792 0.22831 0.38531 -0.38300
C 	C 	0.84090 0.13320 0.29300 0.06500
H 	H 	0.86120 0.08630 0.29900 -0.02200
I 	I 	0.34130 0.38464 0.35487 -0.38100
C 	C 	0.84130 0.19080 0.26240 -0.11200
H 	H 	0.86070 0.18230 0.24690 0.07900
I 	I 	0.45232 0.39826 0.52803 -0.38100
C 	C 	0.81263 0.26190 0.25465 0.04700
I 	I 	0.55352 0.47646 0.63474 -0.37600
C 	C 	0.78380 0.26940 0.27693 -0.11600
H 	H 	0.76350 0.31640 0.27190 0.07000
I 	I 	0.34016 0.91321 0.85442 -0.34500
C 	C 	0.78500 0.20670 0.30686 0.06300
H 	H 	0.76510 0.21150 0.32210 -0.00300
I 	I 	0.23744 0.75298 0.88776 -0.35600
C 	C 	0.84796 0.37990 0.17944 0.11100
I 	I 	0.18092 0.51669 0.04942 -0.36700
N 	N 	0.82367 0.45350 0.17169 -0.13300
I 	I 	0.17772 0.43566 0.17080 -0.37600
C 	C 	0.79305 0.45610 0.19023 0.09900
I 	I 	0.46468 0.95003 0.02095 -0.33700
N 	N 	0.78612 0.39470 0.21582 -0.14700
I 	I 	0.56253 0.02592 0.13325 -0.42900
C 	C 	0.81475 0.32720 0.22331 0.09900
I 	I 	0.72938 0.61250 0.88499 -0.36700
N 	N 	0.84553 0.31650 0.20570 -0.13400
I 	I 	0.82826 0.43390 0.85856 -0.38000
N 	N 	0.86300 0.11720 0.40811 -0.27500
C 	C 	0.89280 0.06930 0.43400 0.06400
H 	H 	0.89430 0.00650 0.43000 -0.02400
C 	C 	0.92140 0.10850 0.46610 -0.12900
H 	H 	0.94240 0.07320 0.48380 0.08600
C 	C 	0.91902 0.19930 0.47215 0.04700
C 	C 	0.88820 0.24940 0.44630 -0.12500
H 	H 	0.88570 0.31200 0.45010 0.08100
C 	C 	0.86080 0.20490 0.41423 0.07100
H 	H 	0.83960 0.23870 0.39600 -0.00400
N 	N 	0.98344 0.64020 0.57246 -0.27500
C 	C 	0.95480 0.60990 0.53987 0.06900
H 	H 	0.93640 0.65150 0.52300 -0.01100
C 	C 	0.95130 0.51980 0.53000 -0.11400
H 	H 	0.93060 0.50040 0.50680 0.07800
C 	C 	0.97814 0.45760 0.55414 0.05500
C 	C 	0.00720 0.49030 0.58848 -0.11800
H 	H 	0.02580 0.45030 0.60620 0.08500
C 	C 	0.00870 0.58070 0.59630 0.06500
H 	H 	0.02850 0.60200 0.61970 -0.01800
N 	N 	0.12608 0.09290 0.61238 -0.25800
C 	C 	0.09010 0.04660 0.59592 -0.03000
H 	H 	0.09020 0.98330 0.59910 0.04600
C 	C 	0.05310 0.08800 0.57467 -0.07200
H 	H 	0.02860 0.05370 0.56260 0.05200
C 	C 	0.05262 0.18040 0.57142 0.03100
C 	C 	0.08980 0.22790 0.58713 -0.10200
H 	H 	0.09060 0.29120 0.58410 0.08600
C 	C 	0.12550 0.18140 0.60718 0.05900
H 	H 	0.15100 0.21400 0.61780 -0.00200
C 	C 	0.95138 0.24260 0.50549 0.08700
N 	N 	0.94628 0.32850 0.51455 -0.13800
C 	C 	0.97788 0.36160 0.54382 0.10600
N 	N 	0.01195 0.31560 0.56396 -0.13500
C 	C 	0.01346 0.23090 0.55183 0.10800
N 	N 	0.98436 0.19070 0.52327 -0.14400
N 	N 	0.94376 0.79180 0.61736 -0.27200
C 	C 	0.93040 0.87610 0.62010 0.07000
H 	H 	0.94200 0.92320 0.60800 -0.00700
C 	C 	0.90080 0.89650 0.63980 -0.11500
H 	H 	0.89170 0.95670 0.64100 0.09200
C 	C 	0.88412 0.82890 0.65802 0.06300
C 	C 	0.89750 0.74130 0.65480 -0.12100
H 	H 	0.88660 0.69300 0.66670 0.08500
C 	C 	0.92700 0.72620 0.63400 0.08100
H 	H 	0.93570 0.66630 0.63130 -0.01500
N 	N 	0.71937 0.16410 0.64294 -0.26800
C 	C 	0.74231 0.12710 0.62091 0.04700
H 	H 	0.74040 0.15160 0.59540 -0.00900
C 	C 	0.76841 0.05530 0.63363 -0.09100
H 	H 	0.78460 0.03100 0.61730 0.05900
C 	C 	0.77086 0.01840 0.67085 -0.01300
C 	C 	0.74732 0.05690 0.69430 -0.08500
H 	H 	0.74840 0.03310 0.71980 0.05800
C 	C 	0.72242 0.13010 0.67962 0.04400
H 	H 	0.70690 0.15780 0.69570 -0.00800
N 	N 	0.80328 0.66200 0.82188 -0.27000
C 	C 	0.83910 0.66020 0.81100 0.07500
H 	H 	0.86190 0.62460 0.82600 -0.01300
C 	C 	0.84440 0.70830 0.77880 -0.10900
H 	H 	0.87040 0.70550 0.77180 0.08500
C 	C 	0.81117 0.76080 0.75678 0.05600
C 	C 	0.77370 0.76150 0.76817 -0.10900
H 	H 	0.75020 0.79610 0.75370 0.07800
C 	C 	0.77100 0.71160 0.80066 0.07100
H 	H 	0.74530 0.71250 0.80820 -0.00600
C 	C 	0.85183 0.85030 0.67892 0.11000
N 	N 	0.82897 0.92420 0.66706 -0.13500
C 	C 	0.79824 0.93880 0.68476 0.14600
N 	N 	0.79043 0.88750 0.71334 -0.14100
C 	C 	0.81679 0.81700 0.72405 0.10300
N 	N 	0.84770 0.79570 0.70788 -0.13600
N 	N 	0.62143 0.19530 0.60109 -0.28400
C 	C 	0.58380 0.23740 0.58930 0.08200
H 	H 	0.58270 0.30030 0.59320 -0.01900
C 	C 	0.54666 0.19210 0.57170 -0.15400
H 	H 	0.52060 0.22350 0.56300 0.09100
C 	C 	0.54829 0.09930 0.56698 0.10700
C 	C 	0.58690 0.05560 0.57950 -0.23500
H 	H 	0.58880 0.99250 0.57660 0.15700
C 	C 	0.62250 0.10610 0.59630 0.11800
H 	H 	0.64900 0.07630 0.60480 -0.03000
N 	N 	0.35288 0.16900 0.41098 -0.28400
C 	C 	0.38100 0.21530 0.43920 0.08200
H 	H 	0.37970 0.27900 0.43880 -0.01500
C 	C 	0.41200 0.17370 0.46880 -0.15300
H 	H 	0.43160 0.20810 0.48830 0.10500
C 	C 	0.41379 0.08010 0.46966 0.09900
C 	C 	0.38431 0.03190 0.44125 -0.23200
H 	H 	0.38450 0.96820 0.44150 0.13600
C 	C 	0.35420 0.07930 0.41215 0.11800
H 	H 	0.33400 0.04660 0.39250 -0.04000
N 	N 	0.47832 0.63600 0.56625 -0.27200
C 	C 	0.50900 0.69230 0.58490 0.06400
H 	H 	0.53150 0.66970 0.60600 -0.01400
C 	C 	0.50950 0.78160 0.57500 -0.11400
H 	H 	0.53230 0.81900 0.58870 0.08600
C 	C 	0.47660 0.81640 0.54500 0.05600
C 	C 	0.44500 0.75800 0.52490 -0.10900
H 	H 	0.42230 0.77890 0.50360 0.07900
C 	C 	0.44700 0.66870 0.53640 0.05900
C 	C 	0.51015 0.04660 0.54699 0.04300
N 	N 	0.47936 0.08860 0.51998 -0.12600
C 	C 	0.44746 0.03490 0.50071 0.03300
N 	N 	0.44434 0.94710 0.50647 -0.11000
C 	C 	0.47653 0.91300 0.53514 0.10800
N 	N 	0.50992 0.96000 0.55639 -0.10500
N 	N 	0.43815 0.49730 0.61987 -0.27500
C 	C 	0.42755 0.41460 0.62890 0.06400
H 	H 	0.44060 0.36420 0.62050 -0.01900
C 	C 	0.39810 0.40100 0.65012 -0.11300
H 	H 	0.39110 0.34180 0.65610 0.08100
C 	C 	0.37901 0.47380 0.66263 0.06000
C 	C 	0.39120 0.55870 0.65410 -0.11900
H 	H 	0.37950 0.61020 0.66310 0.08700
C 	C 	0.42030 0.56800 0.63270 0.07600
H 	H 	0.42810 0.62660 0.62670 -0.01200
N 	N 	0.30437 0.68390 0.82065 -0.27200
C 	C 	0.27440 0.62200 0.80720 0.06800
H 	H 	0.25220 0.61700 0.81980 -0.00600
C 	C 	0.27410 0.56500 0.77600 -0.11900
H 	H 	0.25210 0.52200 0.76720 0.06900
C 	C 	0.30650 0.57190 0.75768 0.04800
C 	C 	0.33720 0.63720 0.77130 -0.11200
H 	H 	0.35940 0.64470 0.75890 0.08600
C 	C 	0.33520 0.69070 0.80260 0.07000
H 	H 	0.35670 0.73430 0.81190 -0.01000
N 	N 	0.21590 0.14230 0.67015 -0.27100
C 	C 	0.21470 0.19740 0.70042 0.05300
H 	H 	0.19660 0.18280 0.71670 -0.00400
C 	C 	0.23910 0.27510 0.70866 -0.10400
H 	H 	0.23760 0.31280 0.73020 0.06600
C 	C 	0.26574 0.29720 0.68518 0.03900
C 	C 	0.26670 0.23970 0.65380 -0.11000
H 	H 	0.28440 0.25270 0.63710 0.07800
C 	C 	0.24160 0.16340 0.64750 0.05700
H 	H 	0.24260 0.12460 0.62620 -0.01700
C 	C 	0.34608 0.46060 0.68381 0.11400
N 	N 	0.34123 0.52360 0.70886 -0.13500
C 	C 	0.31019 0.50910 0.72564 0.10400
N 	N 	0.28311 0.43960 0.71783 -0.14900
C 	C 	0.29204 0.37940 0.69315 0.10600
N 	N 	0.32383 0.38390 0.67598 -0.13200
N 	N 	0.35251 0.70610 0.91323 -0.27200
C 	C 	0.38200 0.75450 0.93940 0.06700
H 	H 	0.38190 0.81780 0.93650 -0.00300
C 	C 	0.41230 0.71560 0.97030 -0.12300
H 	H 	0.43320 0.75140 0.98790 0.09300
C 	C 	0.41171 0.62350 0.97520 0.04900
C 	C 	0.38130 0.57340 0.94900 -0.12200
H 	H 	0.38010 0.51010 0.95180 0.08200
C 	C 	0.35230 0.61820 0.91830 0.07400
H 	H 	0.33130 0.58380 0.90000 -0.00500
N 	N 	0.48180 0.17950 0.06940 -0.28200
C 	C 	0.44990 0.21200 0.04110 0.08900
H 	H 	0.42950 0.17120 0.02610 -0.02400
C 	C 	0.44450 0.30240 0.03230 -0.13800
H 	H 	0.42080 0.32280 0.01190 0.08500
C 	C 	0.47380 0.36160 0.05320 0.07500
C 	C 	0.50750 0.32850 0.08120 -0.13500
H 	H 	0.52900 0.36780 0.09560 0.09100
C 	C 	0.51050 0.23760 0.08860 0.07900
H 	H 	0.53430 0.21580 0.10850 -0.01900
N 	N 	0.61944 0.73260 0.11306 -0.27100
C 	C 	0.61750 0.64340 0.11350 0.06500
H 	H 	0.64210 0.61060 0.12690 0.00100
C 	C 	0.58080 0.59690 0.09510 -0.11600
H 	H 	0.58040 0.53320 0.09600 0.09200
C 	C 	0.54520 0.64310 0.07550 0.05800
C 	C 	0.54770 0.73580 0.07410 -0.12500
H 	H 	0.52380 0.77020 0.06030 0.08200
C 	C 	0.58570 0.77740 0.09320 0.07700
H 	H 	0.58740 0.84090 0.09180 -0.01100
C 	C 	0.44469 0.58100 0.00800 0.08900
N 	N 	0.44052 0.49320 0.01520 -0.13700
C 	C 	0.47240 0.46060 0.04490 0.10000
N 	N 	0.50489 0.50760 0.06661 -0.13500
C 	C 	0.50640 0.59230 0.05560 0.10200
N 	N 	0.47707 0.63340 0.02644 -0.14000
N 	N 	0.30868 0.15820 0.31965 -0.26400
C 	C 	0.27560 0.11030 0.29828 0.04700
H 	H 	0.24960 0.11320 0.30520 -0.00700
C 	C 	0.27790 0.05730 0.26678 -0.07900
H 	H 	0.25410 0.02320 0.25260 0.05100
C 	C 	0.31530 0.05420 0.25591 -0.01500
C 	C 	0.34970 0.10460 0.27740 -0.07400
H 	H 	0.37570 0.10420 0.27050 0.06500
C 	C 	0.34500 0.15510 0.30910 0.04700
H 	H 	0.36840 0.18910 0.32400 -0.00900
N 	N 	0.21811 0.65360 0.14350 -0.27200
C 	C 	0.22190 0.68820 0.17970 0.07200
H 	H 	0.20560 0.66330 0.19580 -0.01200
C 	C 	0.24890 0.75960 0.19429 -0.11300
H 	H 	0.25100 0.78320 0.22000 0.08600
C 	C 	0.27282 0.79580 0.17110 0.05400
C 	C 	0.27000 0.75770 0.13430 -0.11100
H 	H 	0.28680 0.77990 0.11810 0.08000
C 	C 	0.24240 0.68660 0.12140 0.05800
H 	H 	0.24050 0.66050 0.09620 -0.00800
N 	N 	0.44498 0.02210 0.11398 -0.31400
C 	C 	0.43720 0.08030 0.13990 0.10900
H 	H 	0.45240 0.13520 0.14410 -0.03000
C 	C 	0.40770 0.06440 0.16130 -0.20800
H 	H 	0.40330 0.10710 0.17990 0.10800
C 	C 	0.38510 0.98520 0.15470 0.13800
C 	C 	0.39360 0.92390 0.12800 -0.17200
H 	H 	0.37920 0.86800 0.12340 0.10200
C 	C 	0.42300 0.94530 0.10820 0.14300
H 	H 	0.42820 0.90350 0.08950 -0.03100
C 	C 	0.32030 0.99600 0.22307 0.18400
N 	N 	0.29330 0.92700 0.21278 -0.14400
C 	C 	0.30024 0.87590 0.18379 0.10600
N 	N 	0.32924 0.89110 0.16445 -0.14100
C 	C 	0.35360 0.96330 0.17675 0.12500
N 	N 	0.35106 0.01640 0.20640 -0.18400
N 	N 	0.11789 0.62310 0.10637 -0.26800
C 	C 	0.08150 0.57920 0.09190 0.06400
H 	H 	0.08150 0.51550 0.09340 -0.01300
C 	C 	0.04366 0.62270 0.07490 -0.11800
H 	H 	0.01830 0.58950 0.06450 0.07600
C 	C 	0.04332 0.71550 0.07335 0.05400
C 	C 	0.08090 0.76160 0.08950 -0.11400
H 	H 	0.08140 0.82520 0.08990 0.09500
C 	C 	0.11780 0.71260 0.10510 0.06400
H 	H 	0.14380 0.74380 0.11510 0.00300
N 	N 	0.84807 0.64940 0.91322 -0.27300
C 	C 	0.88180 0.60300 0.93489 0.06500
H 	H 	0.88370 0.54080 0.92980 -0.00400
C 	C 	0.91370 0.64290 0.96440 -0.12000
H 	H 	0.93720 0.60870 0.97930 0.09100
C 	C 	0.91083 0.73360 0.97191 0.05300
C 	C 	0.87640 0.78260 0.94909 -0.12000
H 	H 	0.87400 0.84520 0.95310 0.09000
C 	C 	0.84590 0.73730 0.92049 0.07800
H 	H 	0.82220 0.77010 0.90520 -0.01400
N 	N 	0.97259 0.17750 0.06756 -0.30200
C 	C 	0.99580 0.11940 0.09350 0.16700
H 	H 	0.01360 0.14170 0.11790 -0.05400
C 	C 	0.99520 0.02830 0.08660 -0.33200
H 	H 	0.01260 0.98900 0.10560 0.18000
C 	C 	0.96854 0.99480 0.05127 0.23600
C 	C 	0.94320 0.05480 0.02518 -0.25800
H 	H 	0.92380 0.03420 0.00140 0.11900
C 	C 	0.94660 0.14590 0.03410 0.14100
H 	H 	0.92970 0.18700 0.01560 -0.03200
C 	C 	0.00500 0.76690 0.05298 0.10200
N 	N 	0.97631 0.72590 0.02357 -0.14000
C 	C 	0.94371 0.77740 0.00437 0.09200
N 	N 	0.93895 0.86400 0.01201 -0.12300
C 	C 	0.96958 0.89790 0.04208 0.06100
N 	N 	0.00261 0.85190 0.06430 -0.12400
N 	N 	0.06161 0.83630 0.88606 -0.27600
I 	I 	0.04455 0.90680 0.98260 -0.35300
Zn	Zn	0.01919 0.81435 0.91905 1.16200
C 	C 	0.07480 0.92010 0.88130 0.07000
H 	H 	0.06380 0.96860 0.89300 -0.00800
I 	I 	0.94437 0.82989 0.87375 -0.36400
Zn	Zn	0.32879 0.29335 0.84794 1.16200
C 	C 	0.10380 0.93810 0.86010 -0.11400
H 	H 	0.11260 0.99790 0.85750 0.09300
I 	I 	0.29249 0.40029 0.88508 -0.38300
Zn	Zn	0.18051 0.55258 0.63778 1.16300
C 	C 	0.11981 0.86730 0.84262 0.06300
I 	I 	0.35923 0.32307 0.78969 -0.35700
Zn	Zn	0.01019 0.27396 0.41234 1.16300
C 	C 	0.10570 0.78050 0.84730 -0.11800
H 	H 	0.11580 0.73050 0.83570 0.08700
I 	I 	0.24727 0.54586 0.61532 -0.36100
Zn	Zn	0.82529 0.53392 0.34458 1.16200
C 	C 	0.07680 0.76930 0.86930 0.08000
H 	H 	0.06730 0.71030 0.87250 -0.01700
I 	I 	0.14288 0.41324 0.65440 -0.38200
Zn	Zn	0.32261 0.76647 0.37972 1.16300
N 	N 	0.28763 0.18390 0.83314 -0.26100
I 	I 	0.94009 0.30375 0.36094 -0.39200
Zn	Zn	0.69238 0.73771 0.63204 1.16300
C 	C 	0.26750 0.15660 0.85940 0.04600
H 	H 	0.27170 0.18870 0.88360 -0.01000
I 	I 	0.03584 0.37720 0.47263 -0.37500
Zn	Zn	0.51908 0.00521 0.41348 1.14600
C 	C 	0.24070 0.08300 0.85250 -0.08500
H 	H 	0.22660 0.06500 0.87170 0.05600
I 	I 	0.86107 0.51101 0.28913 -0.34300
Zn	Zn	0.69372 0.26691 0.13138 1.16300
C 	C 	0.23476 0.03630 0.81712 -0.01600
I 	I 	0.78853 0.41548 0.37554 -0.38300
Zn	Zn	0.82500 0.05409 0.88048 1.15600
C 	C 	0.25590 0.06460 0.78967 -0.07500
H 	H 	0.25250 0.03370 0.76520 0.04200
I 	I 	0.30850 0.82497 0.44393 -0.34900
Zn	Zn	0.50978 0.54434 0.91612 1.16300
C 	C 	0.28209 0.13890 0.79893 0.04100
H 	H 	0.29660 0.15860 0.78030 -0.00200
I 	I 	0.32516 0.87322 0.32500 -0.34500
Zn	Zn	0.19985 0.08765 0.12899 1.15700
N 	N 	0.18661 0.64010 0.68528 -0.27000
I 	I 	0.76208 0.72831 0.61469 -0.36500
C 	C 	0.15910 0.63320 0.70700 0.06700
H 	H 	0.13880 0.58630 0.70100 -0.01200
I 	I 	0.65870 0.88464 0.64513 -0.35100
C 	C 	0.15870 0.69080 0.73760 -0.11100
H 	H 	0.13930 0.68230 0.75310 0.08300
I 	I 	0.54768 0.89826 0.47197 -0.35100
C 	C 	0.18737 0.76190 0.74535 0.05100
I 	I 	0.44648 0.97646 0.36526 -0.33200
C 	C 	0.21620 0.76940 0.72307 -0.11600
H 	H 	0.23650 0.81640 0.72810 0.07600
I 	I 	0.65984 0.41321 0.14558 -0.38000
C 	C 	0.21500 0.70670 0.69314 0.06500
H 	H 	0.23490 0.71150 0.67790 -0.00200
I 	I 	0.76256 0.25298 0.11224 -0.37000
C 	C 	0.15204 0.87990 0.82056 0.11500
I 	I 	0.81908 0.01669 0.95058 -0.40200
N 	N 	0.17633 0.95350 0.82831 -0.13200
I 	I 	0.82228 0.93566 0.82920 -0.33700
C 	C 	0.20695 0.95610 0.80977 0.14900
I 	I 	0.53532 0.45003 0.97905 -0.37900
N 	N 	0.21388 0.89470 0.78418 -0.14700
I 	I 	0.43747 0.52592 0.86675 -0.39500
C 	C 	0.18525 0.82720 0.77669 0.10400
I 	I 	0.27062 0.11250 0.11501 -0.40400
N 	N 	0.15447 0.81650 0.79430 -0.13300
I 	I 	0.17174 0.93390 0.14144 -0.33900
N 	N 	0.13700 0.61720 0.59189 -0.27200
C 	C 	0.10720 0.56930 0.56600 0.06800
H 	H 	0.10570 0.50650 0.57000 -0.00900
C 	C 	0.07860 0.60850 0.53390 -0.12700
H 	H 	0.05760 0.57320 0.51620 0.09500
C 	C 	0.08098 0.69930 0.52785 0.05100
C 	C 	0.11180 0.74940 0.55370 -0.12600
H 	H 	0.11430 0.81200 0.54990 0.08600
C 	C 	0.13920 0.70490 0.58577 0.07400
H 	H 	0.16040 0.73870 0.60400 -0.00400
N 	N 	0.01656 0.14020 0.42754 -0.27100
C 	C 	0.04520 0.10990 0.46013 0.08100
H 	H 	0.06360 0.15150 0.47700 -0.01800
C 	C 	0.04870 0.01980 0.47000 -0.16800
H 	H 	0.06940 0.00040 0.49320 0.08200
C 	C 	0.02186 0.95760 0.44586 0.08800
C 	C 	0.99280 0.99030 0.41152 -0.06000
H 	H 	0.97420 0.95030 0.39380 0.07600
C 	C 	0.99130 0.08070 0.40370 0.00700
H 	H 	0.97150 0.10200 0.38030 -0.00600
N 	N 	0.87392 0.59290 0.38762 -0.27000
C 	C 	0.90990 0.54660 0.40408 0.06400
H 	H 	0.90980 0.48330 0.40090 -0.01300
C 	C 	0.94690 0.58800 0.42533 -0.12100
H 	H 	0.97140 0.55370 0.43740 0.08200
C 	C 	0.94738 0.68040 0.42858 0.05800
C 	C 	0.91020 0.72790 0.41287 -0.12000
H 	H 	0.90940 0.79120 0.41590 0.09500
C 	C 	0.87450 0.68140 0.39282 0.07300
H 	H 	0.84900 0.71400 0.38220 -0.00400
C 	C 	0.04862 0.74260 0.49451 0.08900
N 	N 	0.05372 0.82850 0.48545 -0.13100
C 	C 	0.02212 0.86160 0.45618 0.10400
N 	N 	0.98805 0.81560 0.43604 -0.13100
C 	C 	0.98654 0.73090 0.44817 0.10500
N 	N 	0.01564 0.69070 0.47673 -0.14200
N 	N 	0.05624 0.29180 0.38264 -0.27300
C 	C 	0.06960 0.37610 0.37990 0.06600
H 	H 	0.05800 0.42320 0.39200 -0.01400
C 	C 	0.09920 0.39650 0.36020 -0.11600
H 	H 	0.10830 0.45670 0.35900 0.08300
C 	C 	0.11588 0.32890 0.34198 0.05900
C 	C 	0.10250 0.24130 0.34520 -0.12100
H 	H 	0.11340 0.19300 0.33330 0.08100
C 	C 	0.07300 0.22620 0.36600 0.07800
H 	H 	0.06430 0.16630 0.36870 -0.01900
N 	N 	0.28063 0.66410 0.35706 -0.27300
C 	C 	0.25769 0.62710 0.37909 0.06900
H 	H 	0.25960 0.65160 0.40460 -0.01100
C 	C 	0.23159 0.55530 0.36637 -0.11900
H 	H 	0.21540 0.53100 0.38270 0.08300
C 	C 	0.22914 0.51840 0.32915 0.05200
C 	C 	0.25268 0.55690 0.30570 -0.11300
H 	H 	0.25160 0.53310 0.28020 0.08200
C 	C 	0.27758 0.63010 0.32038 0.06600
H 	H 	0.29310 0.65780 0.30430 -0.01100
N 	N 	0.19672 0.16200 0.17812 -0.27400
C 	C 	0.16090 0.16020 0.18900 0.07300
H 	H 	0.13810 0.12460 0.17400 -0.02000
C 	C 	0.15560 0.20830 0.22120 -0.11000
H 	H 	0.12960 0.20550 0.22820 0.08200
C 	C 	0.18883 0.26080 0.24322 0.05400
C 	C 	0.22630 0.26150 0.23183 -0.10800
H 	H 	0.24980 0.29610 0.24630 0.07400
C 	C 	0.22900 0.21160 0.19934 0.06900
H 	H 	0.25470 0.21250 0.19180 -0.00900
C 	C 	0.14817 0.35030 0.32108 0.10800
N 	N 	0.17103 0.42420 0.33294 -0.13600
C 	C 	0.20176 0.43880 0.31524 0.09800
N 	N 	0.20957 0.38750 0.28666 -0.13900
C 	C 	0.18321 0.31700 0.27595 0.10200
N 	N 	0.15230 0.29570 0.29212 -0.13700
N 	N 	0.37857 0.69530 0.39891 -0.27100
C 	C 	0.41620 0.73740 0.41070 0.06400
H 	H 	0.41730 0.80030 0.40680 -0.01100
C 	C 	0.45334 0.69210 0.42830 -0.11800
H 	H 	0.47940 0.72350 0.43700 0.08100
C 	C 	0.45171 0.59930 0.43302 0.05400
C 	C 	0.41310 0.55560 0.42050 -0.11700
H 	H 	0.41120 0.49250 0.42340 0.09100
C 	C 	0.37750 0.60610 0.40370 0.06700
H 	H 	0.35100 0.57630 0.39520 -0.00300
N 	N 	0.64712 0.66900 0.58902 -0.27000
C 	C 	0.61900 0.71530 0.56080 0.06500
H 	H 	0.62030 0.77900 0.56120 -0.00800
C 	C 	0.58800 0.67370 0.53120 -0.11700
H 	H 	0.56840 0.70810 0.51170 0.09400
C 	C 	0.58621 0.58010 0.53034 0.04800
C 	C 	0.61569 0.53190 0.55875 -0.11400
H 	H 	0.61550 0.46820 0.55850 0.07200
C 	C 	0.64580 0.57930 0.58785 0.07100
H 	H 	0.66600 0.54660 0.60750 -0.01200
N 	N 	0.52168 0.13600 0.43375 -0.27700
C 	C 	0.49100 0.19230 0.41510 0.06300
H 	H 	0.46850 0.16970 0.39400 -0.02200
C 	C 	0.49050 0.28160 0.42500 -0.11500
H 	H 	0.46770 0.31900 0.41130 0.08300
C 	C 	0.52340 0.31640 0.45500 0.05300
C 	C 	0.55500 0.25800 0.47510 -0.10700
H 	H 	0.57770 0.27890 0.49640 0.07600
C 	C 	0.55300 0.16870 0.46360 0.04900
C 	C 	0.48985 0.54660 0.45301 0.10000
N 	N 	0.52064 0.58860 0.48002 -0.14000
C 	C 	0.55254 0.53490 0.49929 0.09100
N 	N 	0.55566 0.44710 0.49353 -0.13900
C 	C 	0.52347 0.41300 0.46486 0.10300
N 	N 	0.49008 0.46000 0.44361 -0.13400
N 	N 	0.56185 0.99730 0.38013 -0.25100
C 	C 	0.57245 0.91460 0.37110 0.08000
H 	H 	0.55940 0.86420 0.37950 -0.01900
C 	C 	0.60190 0.90100 0.34988 -0.12900
H 	H 	0.60890 0.84180 0.34390 0.09100
C 	C 	0.62099 0.97380 0.33737 0.10900
C 	C 	0.60880 0.05870 0.34590 -0.17100
H 	H 	0.62050 0.11020 0.33690 0.09600
C 	C 	0.57970 0.06800 0.36730 0.05200
H 	H 	0.57190 0.12660 0.37330 -0.01200
N 	N 	0.69563 0.18390 0.17935 -0.27300
C 	C 	0.72560 0.12200 0.19280 0.06700
H 	H 	0.74780 0.11700 0.18020 -0.01000
C 	C 	0.72590 0.06500 0.22400 -0.12800
H 	H 	0.74790 0.02200 0.23280 0.06000
C 	C 	0.69350 0.07190 0.24232 0.05300
C 	C 	0.66280 0.13720 0.22870 -0.11800
H 	H 	0.64060 0.14470 0.24110 0.08400
C 	C 	0.66480 0.19070 0.19740 0.06900
H 	H 	0.64330 0.23430 0.18810 -0.01300
N 	N 	0.78410 0.64230 0.32985 -0.26800
C 	C 	0.78530 0.69740 0.29958 0.05500
H 	H 	0.80340 0.68280 0.28330 -0.00200
C 	C 	0.76090 0.77510 0.29134 -0.10400
H 	H 	0.76240 0.81280 0.26980 0.07100
C 	C 	0.73426 0.79720 0.31482 0.04200
C 	C 	0.73330 0.73970 0.34620 -0.10700
H 	H 	0.71560 0.75270 0.36290 0.08300
C 	C 	0.75840 0.66340 0.35250 0.06000
H 	H 	0.75740 0.62460 0.37380 -0.00800
C 	C 	0.65392 0.96060 0.31619 0.13900
N 	N 	0.65877 0.02360 0.29114 -0.15100
C 	C 	0.68981 0.00910 0.27436 0.06600
N 	N 	0.71689 0.93960 0.28217 -0.12300
C 	C 	0.70796 0.87940 0.30685 0.11400
N 	N 	0.67617 0.88390 0.32402 -0.13100
N 	N 	0.64749 0.20610 0.08677 -0.27500
C 	C 	0.61800 0.25450 0.06060 0.06900
H 	H 	0.61810 0.31780 0.06350 -0.00700
C 	C 	0.58770 0.21560 0.02970 -0.13000
H 	H 	0.56680 0.25140 0.01210 0.09400
C 	C 	0.58829 0.12350 0.02480 0.05600
C 	C 	0.61870 0.07340 0.05100 -0.13100
H 	H 	0.61990 0.01010 0.04820 0.07000
C 	C 	0.64770 0.11820 0.08170 0.07500
H 	H 	0.66870 0.08380 0.10000 -0.01400
N 	N 	0.51820 0.67950 0.93060 -0.27800
C 	C 	0.55010 0.71200 0.95890 0.08700
H 	H 	0.57050 0.67120 0.97390 -0.01600
C 	C 	0.55550 0.80240 0.96770 -0.13100
H 	H 	0.57920 0.82280 0.98810 0.08700
C 	C 	0.52620 0.86160 0.94680 0.06900
C 	C 	0.49250 0.82850 0.91880 -0.12800
H 	H 	0.47100 0.86780 0.90440 0.09700
C 	C 	0.48950 0.73760 0.91140 0.07800
H 	H 	0.46570 0.71580 0.89150 -0.01700
N 	N 	0.38056 0.23260 0.88694 -0.27300
C 	C 	0.38250 0.14340 0.88650 0.06000
H 	H 	0.35790 0.11060 0.87310 -0.00600
C 	C 	0.41920 0.09690 0.90490 -0.11800
H 	H 	0.41960 0.03320 0.90400 0.07900
C 	C 	0.45480 0.14310 0.92450 0.05400
C 	C 	0.45230 0.23580 0.92590 -0.12800
H 	H 	0.47620 0.27020 0.93970 0.08000
C 	C 	0.41430 0.27740 0.90680 0.07600
H 	H 	0.41260 0.34090 0.90820 -0.02000
C 	C 	0.55531 0.08100 0.99200 0.05400
N 	N 	0.55948 0.99320 0.98480 -0.11500
C 	C 	0.52760 0.96060 0.95510 0.13700
N 	N 	0.49511 0.00760 0.93339 -0.16300
C 	C 	0.49360 0.09230 0.94440 0.09400
N 	N 	0.52293 0.13340 0.97356 -0.13800
N 	N 	0.69132 0.65820 0.68035 -0.27100
C 	C 	0.72440 0.61030 0.70172 0.07300
H 	H 	0.75040 0.61320 0.69480 -0.01100
C 	C 	0.72210 0.55730 0.73322 -0.11600
H 	H 	0.74590 0.52320 0.74740 0.07700
C 	C 	0.68470 0.55420 0.74409 0.06000
C 	C 	0.65030 0.60460 0.72260 -0.11000
H 	H 	0.62430 0.60420 0.72950 0.08700
C 	C 	0.65500 0.65510 0.69090 0.07200
H 	H 	0.63160 0.68910 0.67600 -0.01300
N 	N 	0.78189 0.15360 0.85650 -0.27600
C 	C 	0.77810 0.18820 0.82030 0.07000
H 	H 	0.79440 0.16330 0.80420 -0.02000
C 	C 	0.75110 0.25960 0.80571 -0.11600
H 	H 	0.74900 0.28320 0.78000 0.08200
C 	C 	0.72718 0.29580 0.82890 0.05200
C 	C 	0.73000 0.25770 0.86570 -0.11300
H 	H 	0.71320 0.27990 0.88190 0.07700
C 	C 	0.75760 0.18660 0.87860 0.05600
H 	H 	0.75950 0.16050 0.90380 -0.01100
N 	N 	0.55502 0.52210 0.88602 -0.27500
C 	C 	0.56280 0.58030 0.86010 0.07800
H 	H 	0.54760 0.63520 0.85590 -0.01500
C 	C 	0.59230 0.56440 0.83870 -0.11900
H 	H 	0.59670 0.60710 0.82010 0.08700
C 	C 	0.61490 0.48520 0.84530 0.06100
C 	C 	0.60640 0.42390 0.87200 -0.11800
H 	H 	0.62080 0.36800 0.87660 0.08000
C 	C 	0.57700 0.44530 0.89180 0.06700
H 	H 	0.57180 0.40350 0.91050 -0.01400
C 	C 	0.67970 0.49600 0.77693 0.10100
N 	N 	0.70670 0.42700 0.78722 -0.13800
C 	C 	0.69976 0.37590 0.81621 0.09800
N 	N 	0.67076 0.39110 0.83555 -0.14000
C 	C 	0.64640 0.46330 0.82325 0.10700
N 	N 	0.64894 0.51640 0.79360 -0.13600
N 	N 	0.88211 0.12310 0.89363 -0.27200
C 	C 	0.91850 0.07920 0.90810 0.06000
H 	H 	0.91850 0.01550 0.90660 -0.02700
C 	C 	0.95634 0.12270 0.92510 -0.11900
H 	H 	0.98170 0.08950 0.93550 0.06600
C 	C 	0.95668 0.21550 0.92665 0.05000
C 	C 	0.91910 0.26160 0.91050 -0.11300
H 	H 	0.91860 0.32520 0.91010 0.09100
C 	C 	0.88220 0.21260 0.89490 0.06000
H 	H 	0.85620 0.24380 0.88490 0.00300
N 	N 	0.15193 0.14940 0.08678 -0.27600
C 	C 	0.11820 0.10300 0.06511 0.06100
H 	H 	0.11630 0.04080 0.07020 -0.01700
C 	C 	0.08630 0.14290 0.03560 -0.12200
H 	H 	0.06280 0.10870 0.02070 0.08200
C 	C 	0.08917 0.23360 0.02809 0.04800
C 	C 	0.12360 0.28260 0.05091 -0.11900
H 	H 	0.12600 0.34520 0.04690 0.08000
C 	C 	0.15410 0.23730 0.07951 0.07300
H 	H 	0.17780 0.27010 0.09480 -0.01700
N 	N 	0.02741 0.67750 0.93244 -0.27000
C 	C 	0.00420 0.61940 0.90650 0.06500
H 	H 	0.98640 0.64170 0.88210 -0.01400
C 	C 	0.00480 0.52830 0.91340 -0.11700
H 	H 	0.98740 0.48900 0.89440 0.08200
C 	C 	0.03146 0.49480 0.94873 0.05800
C 	C 	0.05680 0.55480 0.97482 -0.11700
H 	H 	0.07620 0.53420 0.99860 0.08300
C 	C 	0.05340 0.64590 0.96590 0.07400
H 	H 	0.07030 0.68700 0.98440 -0.00900
C 	C 	0.99500 0.26690 0.94702 0.10000
N 	N 	0.02369 0.22590 0.97643 -0.14400
C 	C 	0.05629 0.27740 0.99563 0.08900
N 	N 	0.06105 0.36400 0.98799 -0.13700
C 	C 	0.03042 0.39790 0.95792 0.10300
N 	N 	0.99739 0.35190 0.93570 -0.13400
