data_crystal

_cell_length_a 34.14140
_cell_length_b 14.56410
_cell_length_c 34.95970
_cell_angle_alpha 90.00000
_cell_angle_beta  108.63300
_cell_angle_gamma 90.00000

_symmetry_space_group_name_	'P 1'
_symmetry_space_group_name_H-M	'P 1'

loop_
_symmetry_equiv_pos_as_xyz
  x,y,z

loop_
_atom_site_label
_atom_site_type_symbol
_atom_site_fract_x
_atom_site_fract_y
_atom_site_fract_z
_atom_site_charge
Zn	Zn	0.11301 0.07383 0.05483 1.16200
Zn	Zn	0.34960 0.11268 0.42556 1.16300
Zn	Zn	0.33789 0.34611 0.23754 1.16200
I 	I 	0.09620 0.22880 0.08015 -0.38000
I 	I 	0.12400 0.05269 0.98722 -0.36700
I 	I 	0.27586 0.14605 0.42362 -0.37500
I 	I 	0.40331 0.23722 0.43839 -0.37700
I 	I 	0.38148 0.31663 0.31010 -0.38500
I 	I 	0.27341 0.24753 0.20764 -0.37600
N 	N 	0.16190 0.01710 0.09980 -0.27200
C 	C 	0.17950 0.06280 0.13470 0.06500
H 	H 	0.17060 0.12360 0.13750 -0.00700
C 	C 	0.21030 0.02290 0.16650 -0.12300
H 	H 	0.22260 0.05660 0.19060 0.09300
C 	C 	0.22280 0.93470 0.16310 0.05600
C 	C 	0.20450 0.88720 0.12730 -0.12000
H 	H 	0.21240 0.82590 0.12400 0.07600
C 	C 	0.17430 0.93180 0.09660 0.07500
H 	H 	0.16190 0.89980 0.07200 -0.01500
N 	N 	0.34250 0.04440 0.37210 -0.27100
C 	C 	0.34300 0.95340 0.37080 0.07200
H 	H 	0.35230 0.92040 0.39550 -0.00500
C 	C 	0.33060 0.90450 0.33500 -0.12000
H 	H 	0.33260 0.83950 0.33500 0.09100
C 	C 	0.31540 0.95270 0.29920 0.05400
C 	C 	0.31520 0.04770 0.30040 -0.11400
H 	H 	0.30580 0.08200 0.27610 0.07900
C 	C 	0.32880 0.09270 0.33740 0.05600
H 	H 	0.32850 0.15790 0.33820 -0.01000
N 	N 	0.32350 0.48300 0.23100 -0.27500
C 	C 	0.34190 0.54030 0.26170 0.05700
H 	H 	0.36190 0.51590 0.28500 -0.01200
C 	C 	0.33280 0.63310 0.26090 -0.11200
H 	H 	0.34650 0.67150 0.28310 0.08100
C 	C 	0.30310 0.66930 0.22690 0.05300
C 	C 	0.28450 0.61030 0.19460 -0.11700
H 	H 	0.26470 0.63300 0.17070 0.08300
C 	C 	0.29530 0.51930 0.19800 0.07200
H 	H 	0.28230 0.47970 0.17610 -0.01200
C 	C 	0.25420 0.89070 0.19750 0.08900
N 	N 	0.27040 0.94260 0.23030 -0.14000
C 	C 	0.29870 0.89910 0.26080 0.10200
N 	N 	0.31090 0.81400 0.26040 -0.13600
C 	C 	0.29150 0.76750 0.22660 0.10500
N 	N 	0.26320 0.80160 0.19420 -0.13900
N 	N 	0.37530 0.01310 0.46770 -0.27800
C 	C 	0.35460 0.97640 0.49120 0.06800
H 	H 	0.32750 0.99790 0.48800 -0.01000
C 	C 	0.37080 0.91030 0.51900 -0.12400
H 	H 	0.35560 0.88770 0.53540 0.08400
C 	C 	0.41020 0.87550 0.52330 0.05900
C 	C 	0.43060 0.90940 0.49860 -0.12800
H 	H 	0.45690 0.88610 0.49990 0.09000
C 	C 	0.41210 0.97830 0.47160 0.08500
H 	H 	0.42680 0.00210 0.45490 -0.01600
N 	N 	0.37150 0.67170 0.69820 -0.27000
C 	C 	0.38680 0.60110 0.68300 0.06600
H 	H 	0.38420 0.54070 0.69200 -0.01100
C 	C 	0.40630 0.61440 0.65410 -0.11200
H 	H 	0.41820 0.56380 0.64460 0.08300
C 	C 	0.40850 0.70230 0.63940 0.05100
C 	C 	0.39290 0.77390 0.65560 -0.10900
H 	H 	0.39520 0.83500 0.64700 0.07800
C 	C 	0.37380 0.75740 0.68450 0.05600
H 	H 	0.36210 0.80720 0.69480 -0.01300
N 	N 	0.56590 0.51060 0.55890 -0.27100
C 	C 	0.55860 0.51800 0.59480 0.07600
H 	H 	0.57570 0.48440 0.61730 -0.01200
C 	C 	0.52830 0.57110 0.60020 -0.11300
H 	H 	0.52420 0.57410 0.62580 0.08700
C 	C 	0.50310 0.62120 0.56780 0.06200
C 	C 	0.50990 0.61480 0.53120 -0.11800
H 	H 	0.49310 0.64760 0.50840 0.07200
C 	C 	0.54170 0.55970 0.52840 0.08100
H 	H 	0.54670 0.55660 0.50320 -0.00900
C 	C 	0.42630 0.80160 0.55240 0.09700
N 	N 	0.41060 0.78910 0.58250 -0.13700
C 	C 	0.42710 0.71840 0.60690 0.11400
N 	N 	0.45560 0.66300 0.60390 -0.13700
C 	C 	0.46990 0.68040 0.57330 0.10100
N 	N 	0.45670 0.75050 0.54680 -0.13700
Zn	Zn	0.61301 0.57383 0.05483 1.16400
Zn	Zn	0.84960 0.61268 0.42556 1.16400
Zn	Zn	0.83789 0.84611 0.23754 1.16400
I 	I 	0.59620 0.72880 0.08015 -0.37800
I 	I 	0.62400 0.55269 0.98722 -0.36700
I 	I 	0.77586 0.64605 0.42362 -0.37400
I 	I 	0.90331 0.73722 0.43839 -0.37600
I 	I 	0.88148 0.81663 0.31010 -0.38400
I 	I 	0.77341 0.74753 0.20764 -0.37600
N 	N 	0.66190 0.51710 0.09980 -0.27200
C 	C 	0.67950 0.56280 0.13470 0.06400
H 	H 	0.67060 0.62360 0.13750 -0.00700
C 	C 	0.71030 0.52290 0.16650 -0.12200
H 	H 	0.72260 0.55660 0.19060 0.09200
C 	C 	0.72280 0.43470 0.16310 0.05500
C 	C 	0.70450 0.38720 0.12730 -0.12000
H 	H 	0.71240 0.32590 0.12400 0.07600
C 	C 	0.67430 0.43180 0.09660 0.07500
H 	H 	0.66190 0.39980 0.07200 -0.01400
N 	N 	0.84250 0.54440 0.37210 -0.27000
C 	C 	0.84300 0.45340 0.37080 0.07200
H 	H 	0.85230 0.42040 0.39550 -0.00500
C 	C 	0.83060 0.40450 0.33500 -0.11900
H 	H 	0.83260 0.33950 0.33500 0.09100
C 	C 	0.81540 0.45270 0.29920 0.05400
C 	C 	0.81520 0.54770 0.30040 -0.11400
H 	H 	0.80580 0.58200 0.27610 0.07900
C 	C 	0.82880 0.59270 0.33740 0.05600
H 	H 	0.82850 0.65790 0.33820 -0.01000
N 	N 	0.82350 0.98300 0.23100 -0.27500
C 	C 	0.84190 0.04030 0.26170 0.05700
H 	H 	0.86190 0.01590 0.28500 -0.01200
C 	C 	0.83280 0.13310 0.26090 -0.11100
H 	H 	0.84650 0.17150 0.28310 0.08100
C 	C 	0.80310 0.16930 0.22690 0.05300
C 	C 	0.78450 0.11030 0.19460 -0.11700
H 	H 	0.76470 0.13300 0.17070 0.08200
C 	C 	0.79530 0.01930 0.19800 0.07100
H 	H 	0.78230 0.97970 0.17610 -0.01100
C 	C 	0.75420 0.39070 0.19750 0.09000
N 	N 	0.77040 0.44260 0.23030 -0.14000
C 	C 	0.79870 0.39910 0.26080 0.10200
N 	N 	0.81090 0.31400 0.26040 -0.13600
C 	C 	0.79150 0.26750 0.22660 0.10500
N 	N 	0.76320 0.30160 0.19420 -0.13900
N 	N 	0.87530 0.51310 0.46770 -0.27800
C 	C 	0.85460 0.47640 0.49120 0.06800
H 	H 	0.82750 0.49790 0.48800 -0.01000
C 	C 	0.87080 0.41030 0.51900 -0.12400
H 	H 	0.85560 0.38770 0.53540 0.08400
C 	C 	0.91020 0.37550 0.52330 0.05900
C 	C 	0.93060 0.40940 0.49860 -0.12700
H 	H 	0.95690 0.38610 0.49990 0.09000
C 	C 	0.91210 0.47830 0.47160 0.08500
H 	H 	0.92680 0.50210 0.45490 -0.01600
N 	N 	0.87150 0.17170 0.69820 -0.27000
C 	C 	0.88680 0.10110 0.68300 0.06600
H 	H 	0.88420 0.04070 0.69200 -0.01100
C 	C 	0.90630 0.11440 0.65410 -0.11200
H 	H 	0.91820 0.06380 0.64460 0.08300
C 	C 	0.90850 0.20230 0.63940 0.05100
C 	C 	0.89290 0.27390 0.65560 -0.10900
H 	H 	0.89520 0.33500 0.64700 0.07800
C 	C 	0.87380 0.25740 0.68450 0.05600
H 	H 	0.86210 0.30720 0.69480 -0.01300
N 	N 	0.06590 0.01060 0.55890 -0.27100
C 	C 	0.05860 0.01800 0.59480 0.07600
H 	H 	0.07570 0.98440 0.61730 -0.01200
C 	C 	0.02830 0.07110 0.60020 -0.11300
H 	H 	0.02420 0.07410 0.62580 0.08700
C 	C 	0.00310 0.12120 0.56780 0.06200
C 	C 	0.00990 0.11480 0.53120 -0.11800
H 	H 	0.99310 0.14760 0.50840 0.07200
C 	C 	0.04170 0.05970 0.52840 0.08100
H 	H 	0.04670 0.05660 0.50320 -0.00900
C 	C 	0.92630 0.30160 0.55240 0.09700
N 	N 	0.91060 0.28910 0.58250 -0.13700
C 	C 	0.92710 0.21840 0.60690 0.11400
N 	N 	0.95560 0.16300 0.60390 -0.13700
C 	C 	0.96990 0.18040 0.57330 0.10100
N 	N 	0.95670 0.25050 0.54680 -0.13700
Zn	Zn	0.11301 0.92617 0.55483 1.16400
Zn	Zn	0.34960 0.88732 0.92556 1.16400
Zn	Zn	0.33789 0.65389 0.73754 1.16300
I 	I 	0.09620 0.77120 0.58015 -0.37900
I 	I 	0.12400 0.94731 0.48722 -0.36700
I 	I 	0.27586 0.85395 0.92362 -0.37400
I 	I 	0.40331 0.76278 0.93839 -0.37600
I 	I 	0.38148 0.68337 0.81010 -0.38400
I 	I 	0.27341 0.75247 0.70764 -0.37600
N 	N 	0.16190 0.98290 0.59980 -0.27200
C 	C 	0.17950 0.93720 0.63470 0.06400
H 	H 	0.17060 0.87640 0.63750 -0.00700
C 	C 	0.21030 0.97710 0.66650 -0.12300
H 	H 	0.22260 0.94340 0.69060 0.09300
C 	C 	0.22280 0.06530 0.66310 0.05500
C 	C 	0.20450 0.11280 0.62730 -0.12000
H 	H 	0.21240 0.17410 0.62400 0.07600
C 	C 	0.17430 0.06820 0.59660 0.07500
H 	H 	0.16190 0.10020 0.57200 -0.01400
N 	N 	0.34250 0.95560 0.87210 -0.27100
C 	C 	0.34300 0.04660 0.87080 0.07200
H 	H 	0.35230 0.07960 0.89550 -0.00500
C 	C 	0.33060 0.09550 0.83500 -0.12000
H 	H 	0.33260 0.16050 0.83500 0.09100
C 	C 	0.31540 0.04730 0.79920 0.05500
C 	C 	0.31520 0.95230 0.80040 -0.11500
H 	H 	0.30580 0.91800 0.77610 0.07900
C 	C 	0.32880 0.90730 0.83740 0.05600
H 	H 	0.32850 0.84210 0.83820 -0.01000
N 	N 	0.32350 0.51700 0.73100 -0.27500
C 	C 	0.34190 0.45970 0.76170 0.05700
H 	H 	0.36190 0.48410 0.78500 -0.01200
C 	C 	0.33280 0.36690 0.76090 -0.11200
H 	H 	0.34650 0.32850 0.78310 0.08100
C 	C 	0.30310 0.33070 0.72690 0.05300
C 	C 	0.28450 0.38970 0.69460 -0.11700
H 	H 	0.26470 0.36700 0.67070 0.08300
C 	C 	0.29530 0.48070 0.69800 0.07200
H 	H 	0.28230 0.52030 0.67610 -0.01200
C 	C 	0.25420 0.10930 0.69750 0.09000
N 	N 	0.27040 0.05740 0.73030 -0.14000
C 	C 	0.29870 0.10090 0.76080 0.10200
N 	N 	0.31090 0.18600 0.76040 -0.13600
C 	C 	0.29150 0.23250 0.72660 0.10500
N 	N 	0.26320 0.19840 0.69420 -0.13900
N 	N 	0.37530 0.98690 0.96770 -0.27900
C 	C 	0.35460 0.02360 0.99120 0.06900
H 	H 	0.32750 0.00210 0.98800 -0.01000
C 	C 	0.37080 0.08970 0.01900 -0.12500
H 	H 	0.35560 0.11230 0.03540 0.08400
C 	C 	0.41020 0.12450 0.02330 0.05900
C 	C 	0.43060 0.09060 0.99860 -0.12800
H 	H 	0.45690 0.11390 0.99990 0.09000
C 	C 	0.41210 0.02170 0.97160 0.08600
H 	H 	0.42680 0.99790 0.95490 -0.01600
N 	N 	0.37150 0.32830 0.19820 -0.27000
C 	C 	0.38680 0.39890 0.18300 0.06600
H 	H 	0.38420 0.45930 0.19200 -0.01100
C 	C 	0.40630 0.38560 0.15410 -0.11200
H 	H 	0.41820 0.43620 0.14460 0.08300
C 	C 	0.40850 0.29770 0.13940 0.05100
C 	C 	0.39290 0.22610 0.15560 -0.10900
H 	H 	0.39520 0.16500 0.14700 0.07800
C 	C 	0.37380 0.24260 0.18450 0.05600
H 	H 	0.36210 0.19280 0.19480 -0.01300
N 	N 	0.56590 0.48940 0.05890 -0.27100
C 	C 	0.55860 0.48200 0.09480 0.07600
H 	H 	0.57570 0.51560 0.11730 -0.01200
C 	C 	0.52830 0.42890 0.10020 -0.11300
H 	H 	0.52420 0.42590 0.12580 0.08700
C 	C 	0.50310 0.37880 0.06780 0.06200
C 	C 	0.50990 0.38520 0.03120 -0.11800
H 	H 	0.49310 0.35240 0.00840 0.07200
C 	C 	0.54170 0.44030 0.02840 0.08100
H 	H 	0.54670 0.44340 0.00320 -0.00900
C 	C 	0.42630 0.19840 0.05240 0.09700
N 	N 	0.41060 0.21090 0.08250 -0.13700
C 	C 	0.42710 0.28160 0.10690 0.11400
N 	N 	0.45560 0.33700 0.10390 -0.13700
C 	C 	0.46990 0.31960 0.07330 0.10100
N 	N 	0.45670 0.24950 0.04680 -0.13700
Zn	Zn	0.61301 0.42617 0.55483 1.16400
Zn	Zn	0.84960 0.38732 0.92556 1.16400
Zn	Zn	0.83789 0.15389 0.73754 1.16400
I 	I 	0.59620 0.27120 0.58015 -0.37800
I 	I 	0.62400 0.44731 0.48722 -0.36700
I 	I 	0.77586 0.35395 0.92362 -0.37400
I 	I 	0.90331 0.26278 0.93839 -0.37600
I 	I 	0.88148 0.18337 0.81010 -0.38400
I 	I 	0.77341 0.25247 0.70764 -0.37600
N 	N 	0.66190 0.48290 0.59980 -0.27200
C 	C 	0.67950 0.43720 0.63470 0.06400
H 	H 	0.67060 0.37640 0.63750 -0.00700
C 	C 	0.71030 0.47710 0.66650 -0.12200
H 	H 	0.72260 0.44340 0.69060 0.09200
C 	C 	0.72280 0.56530 0.66310 0.05500
C 	C 	0.70450 0.61280 0.62730 -0.12000
H 	H 	0.71240 0.67410 0.62400 0.07600
C 	C 	0.67430 0.56820 0.59660 0.07500
H 	H 	0.66190 0.60020 0.57200 -0.01400
N 	N 	0.84250 0.45560 0.87210 -0.27000
C 	C 	0.84300 0.54660 0.87080 0.07200
H 	H 	0.85230 0.57960 0.89550 -0.00500
C 	C 	0.83060 0.59550 0.83500 -0.11900
H 	H 	0.83260 0.66050 0.83500 0.09100
C 	C 	0.81540 0.54730 0.79920 0.05400
C 	C 	0.81520 0.45230 0.80040 -0.11400
H 	H 	0.80580 0.41800 0.77610 0.07900
C 	C 	0.82880 0.40730 0.83740 0.05600
H 	H 	0.82850 0.34210 0.83820 -0.01000
N 	N 	0.82350 0.01700 0.73100 -0.27500
C 	C 	0.84190 0.95970 0.76170 0.05700
H 	H 	0.86190 0.98410 0.78500 -0.01200
C 	C 	0.83280 0.86690 0.76090 -0.11100
H 	H 	0.84650 0.82850 0.78310 0.08100
C 	C 	0.80310 0.83070 0.72690 0.05300
C 	C 	0.78450 0.88970 0.69460 -0.11700
H 	H 	0.76470 0.86700 0.67070 0.08200
C 	C 	0.79530 0.98070 0.69800 0.07100
H 	H 	0.78230 0.02030 0.67610 -0.01100
C 	C 	0.75420 0.60930 0.69750 0.09000
N 	N 	0.77040 0.55740 0.73030 -0.14000
C 	C 	0.79870 0.60090 0.76080 0.10200
N 	N 	0.81090 0.68600 0.76040 -0.13600
C 	C 	0.79150 0.73250 0.72660 0.10500
N 	N 	0.76320 0.69840 0.69420 -0.13900
N 	N 	0.87530 0.48690 0.96770 -0.27800
C 	C 	0.85460 0.52360 0.99120 0.06800
H 	H 	0.82750 0.50210 0.98800 -0.01000
C 	C 	0.87080 0.58970 0.01900 -0.12400
H 	H 	0.85560 0.61230 0.03540 0.08400
C 	C 	0.91020 0.62450 0.02330 0.05900
C 	C 	0.93060 0.59060 0.99860 -0.12800
H 	H 	0.95690 0.61390 0.99990 0.09000
C 	C 	0.91210 0.52170 0.97160 0.08500
H 	H 	0.92680 0.49790 0.95490 -0.01600
N 	N 	0.87150 0.82830 0.19820 -0.27000
C 	C 	0.88680 0.89890 0.18300 0.06600
H 	H 	0.88420 0.95930 0.19200 -0.01100
C 	C 	0.90630 0.88560 0.15410 -0.11200
H 	H 	0.91820 0.93620 0.14460 0.08300
C 	C 	0.90850 0.79770 0.13940 0.05100
C 	C 	0.89290 0.72610 0.15560 -0.10900
H 	H 	0.89520 0.66500 0.14700 0.07800
C 	C 	0.87380 0.74260 0.18450 0.05600
H 	H 	0.86210 0.69280 0.19480 -0.01300
N 	N 	0.06590 0.98940 0.05890 -0.27100
C 	C 	0.05860 0.98200 0.09480 0.07700
H 	H 	0.07570 0.01560 0.11730 -0.01200
C 	C 	0.02830 0.92890 0.10020 -0.11400
H 	H 	0.02420 0.92590 0.12580 0.08700
C 	C 	0.00310 0.87880 0.06780 0.06200
C 	C 	0.00990 0.88520 0.03120 -0.11900
H 	H 	0.99310 0.85240 0.00840 0.07200
C 	C 	0.04170 0.94030 0.02840 0.08100
H 	H 	0.04670 0.94340 0.00320 -0.00900
C 	C 	0.92630 0.69840 0.05240 0.09700
N 	N 	0.91060 0.71090 0.08250 -0.13700
C 	C 	0.92710 0.78160 0.10690 0.11400
N 	N 	0.95560 0.83700 0.10390 -0.13700
C 	C 	0.96990 0.81960 0.07330 0.10100
N 	N 	0.95670 0.74950 0.04680 -0.13700
Zn	Zn	0.88699 0.07383 0.44517 1.16400
Zn	Zn	0.65040 0.11268 0.07444 1.16400
Zn	Zn	0.66211 0.34611 0.26246 1.16300
I 	I 	0.90380 0.22880 0.41985 -0.37900
I 	I 	0.87600 0.05269 0.51278 -0.36700
I 	I 	0.72414 0.14605 0.07638 -0.37400
I 	I 	0.59669 0.23722 0.06161 -0.37600
I 	I 	0.61852 0.31663 0.18990 -0.38400
I 	I 	0.72659 0.24753 0.29236 -0.37600
N 	N 	0.83810 0.01710 0.40020 -0.27200
C 	C 	0.82050 0.06280 0.36530 0.06400
H 	H 	0.82940 0.12360 0.36250 -0.00700
C 	C 	0.78970 0.02290 0.33350 -0.12300
H 	H 	0.77740 0.05660 0.30940 0.09300
C 	C 	0.77720 0.93470 0.33690 0.05500
C 	C 	0.79550 0.88720 0.37270 -0.12000
H 	H 	0.78760 0.82590 0.37600 0.07600
C 	C 	0.82570 0.93180 0.40340 0.07500
H 	H 	0.83810 0.89980 0.42800 -0.01400
N 	N 	0.65750 0.04440 0.12790 -0.27100
C 	C 	0.65700 0.95340 0.12920 0.07200
H 	H 	0.64770 0.92040 0.10450 -0.00500
C 	C 	0.66940 0.90450 0.16500 -0.12000
H 	H 	0.66740 0.83950 0.16500 0.09100
C 	C 	0.68460 0.95270 0.20080 0.05500
C 	C 	0.68480 0.04770 0.19960 -0.11500
H 	H 	0.69420 0.08200 0.22390 0.07900
C 	C 	0.67120 0.09270 0.16260 0.05600
H 	H 	0.67150 0.15790 0.16180 -0.01000
N 	N 	0.67650 0.48300 0.26900 -0.27500
C 	C 	0.65810 0.54030 0.23830 0.05700
H 	H 	0.63810 0.51590 0.21500 -0.01200
C 	C 	0.66720 0.63310 0.23910 -0.11200
H 	H 	0.65350 0.67150 0.21690 0.08100
C 	C 	0.69690 0.66930 0.27310 0.05300
C 	C 	0.71550 0.61030 0.30540 -0.11700
H 	H 	0.73530 0.63300 0.32930 0.08300
C 	C 	0.70470 0.51930 0.30200 0.07200
H 	H 	0.71770 0.47970 0.32390 -0.01200
C 	C 	0.74580 0.89070 0.30250 0.09000
N 	N 	0.72960 0.94260 0.26970 -0.14000
C 	C 	0.70130 0.89910 0.23920 0.10200
N 	N 	0.68910 0.81400 0.23960 -0.13600
C 	C 	0.70850 0.76750 0.27340 0.10500
N 	N 	0.73680 0.80160 0.30580 -0.13900
N 	N 	0.62470 0.01310 0.03230 -0.27900
C 	C 	0.64540 0.97640 0.00880 0.06900
H 	H 	0.67250 0.99790 0.01200 -0.01000
C 	C 	0.62920 0.91030 0.98100 -0.12500
H 	H 	0.64440 0.88770 0.96460 0.08400
C 	C 	0.58980 0.87550 0.97670 0.05900
C 	C 	0.56940 0.90940 0.00140 -0.12800
H 	H 	0.54310 0.88610 0.00010 0.09000
C 	C 	0.58790 0.97830 0.02840 0.08600
H 	H 	0.57320 0.00210 0.04510 -0.01600
N 	N 	0.62850 0.67170 0.80180 -0.27000
C 	C 	0.61320 0.60110 0.81700 0.06600
H 	H 	0.61580 0.54070 0.80800 -0.01100
C 	C 	0.59370 0.61440 0.84590 -0.11200
H 	H 	0.58180 0.56380 0.85540 0.08300
C 	C 	0.59150 0.70230 0.86060 0.05100
C 	C 	0.60710 0.77390 0.84440 -0.10900
H 	H 	0.60480 0.83500 0.85300 0.07800
C 	C 	0.62620 0.75740 0.81550 0.05600
H 	H 	0.63790 0.80720 0.80520 -0.01300
N 	N 	0.43410 0.51060 0.94110 -0.27100
C 	C 	0.44140 0.51800 0.90520 0.07600
H 	H 	0.42430 0.48440 0.88270 -0.01200
C 	C 	0.47170 0.57110 0.89980 -0.11300
H 	H 	0.47580 0.57410 0.87420 0.08700
C 	C 	0.49690 0.62120 0.93220 0.06200
C 	C 	0.49010 0.61480 0.96880 -0.11800
H 	H 	0.50690 0.64760 0.99160 0.07200
C 	C 	0.45830 0.55970 0.97160 0.08100
H 	H 	0.45330 0.55660 0.99680 -0.00900
C 	C 	0.57370 0.80160 0.94760 0.09700
N 	N 	0.58940 0.78910 0.91750 -0.13700
C 	C 	0.57290 0.71840 0.89310 0.11400
N 	N 	0.54440 0.66300 0.89610 -0.13700
C 	C 	0.53010 0.68040 0.92670 0.10100
N 	N 	0.54330 0.75050 0.95320 -0.13700
Zn	Zn	0.38699 0.57383 0.44517 1.16400
Zn	Zn	0.15040 0.61268 0.07444 1.16400
Zn	Zn	0.16211 0.84611 0.26246 1.16400
I 	I 	0.40380 0.72880 0.41985 -0.37800
I 	I 	0.37600 0.55269 0.51278 -0.36700
I 	I 	0.22414 0.64605 0.07638 -0.37400
I 	I 	0.09669 0.73722 0.06161 -0.37600
I 	I 	0.11852 0.81663 0.18990 -0.38400
I 	I 	0.22659 0.74753 0.29236 -0.37600
N 	N 	0.33810 0.51710 0.40020 -0.27200
C 	C 	0.32050 0.56280 0.36530 0.06400
H 	H 	0.32940 0.62360 0.36250 -0.00700
C 	C 	0.28970 0.52290 0.33350 -0.12200
H 	H 	0.27740 0.55660 0.30940 0.09200
C 	C 	0.27720 0.43470 0.33690 0.05500
C 	C 	0.29550 0.38720 0.37270 -0.12000
H 	H 	0.28760 0.32590 0.37600 0.07600
C 	C 	0.32570 0.43180 0.40340 0.07500
H 	H 	0.33810 0.39980 0.42800 -0.01400
N 	N 	0.15750 0.54440 0.12790 -0.27000
C 	C 	0.15700 0.45340 0.12920 0.07200
H 	H 	0.14770 0.42040 0.10450 -0.00500
C 	C 	0.16940 0.40450 0.16500 -0.11900
H 	H 	0.16740 0.33950 0.16500 0.09100
C 	C 	0.18460 0.45270 0.20080 0.05400
C 	C 	0.18480 0.54770 0.19960 -0.11400
H 	H 	0.19420 0.58200 0.22390 0.07900
C 	C 	0.17120 0.59270 0.16260 0.05600
H 	H 	0.17150 0.65790 0.16180 -0.01000
N 	N 	0.17650 0.98300 0.26900 -0.27500
C 	C 	0.15810 0.04030 0.23830 0.05700
H 	H 	0.13810 0.01590 0.21500 -0.01200
C 	C 	0.16720 0.13310 0.23910 -0.11100
H 	H 	0.15350 0.17150 0.21690 0.08100
C 	C 	0.19690 0.16930 0.27310 0.05300
C 	C 	0.21550 0.11030 0.30540 -0.11700
H 	H 	0.23530 0.13300 0.32930 0.08200
C 	C 	0.20470 0.01930 0.30200 0.07100
H 	H 	0.21770 0.97970 0.32390 -0.01100
C 	C 	0.24580 0.39070 0.30250 0.09000
N 	N 	0.22960 0.44260 0.26970 -0.14000
C 	C 	0.20130 0.39910 0.23920 0.10200
N 	N 	0.18910 0.31400 0.23960 -0.13600
C 	C 	0.20850 0.26750 0.27340 0.10500
N 	N 	0.23680 0.30160 0.30580 -0.13900
N 	N 	0.12470 0.51310 0.03230 -0.27800
C 	C 	0.14540 0.47640 0.00880 0.06800
H 	H 	0.17250 0.49790 0.01200 -0.01000
C 	C 	0.12920 0.41030 0.98100 -0.12400
H 	H 	0.14440 0.38770 0.96460 0.08400
C 	C 	0.08980 0.37550 0.97670 0.05900
C 	C 	0.06940 0.40940 0.00140 -0.12800
H 	H 	0.04310 0.38610 0.00010 0.09000
C 	C 	0.08790 0.47830 0.02840 0.08500
H 	H 	0.07320 0.50210 0.04510 -0.01600
N 	N 	0.12850 0.17170 0.80180 -0.27000
C 	C 	0.11320 0.10110 0.81700 0.06600
H 	H 	0.11580 0.04070 0.80800 -0.01100
C 	C 	0.09370 0.11440 0.84590 -0.11200
H 	H 	0.08180 0.06380 0.85540 0.08300
C 	C 	0.09150 0.20230 0.86060 0.05100
C 	C 	0.10710 0.27390 0.84440 -0.10900
H 	H 	0.10480 0.33500 0.85300 0.07800
C 	C 	0.12620 0.25740 0.81550 0.05600
H 	H 	0.13790 0.30720 0.80520 -0.01300
N 	N 	0.93410 0.01060 0.94110 -0.27100
C 	C 	0.94140 0.01800 0.90520 0.07700
H 	H 	0.92430 0.98440 0.88270 -0.01200
C 	C 	0.97170 0.07110 0.89980 -0.11400
H 	H 	0.97580 0.07410 0.87420 0.08700
C 	C 	0.99690 0.12120 0.93220 0.06200
C 	C 	0.99010 0.11480 0.96880 -0.11900
H 	H 	0.00690 0.14760 0.99160 0.07200
C 	C 	0.95830 0.05970 0.97160 0.08100
H 	H 	0.95330 0.05660 0.99680 -0.00900
C 	C 	0.07370 0.30160 0.94760 0.09700
N 	N 	0.08940 0.28910 0.91750 -0.13700
C 	C 	0.07290 0.21840 0.89310 0.11400
N 	N 	0.04440 0.16300 0.89610 -0.13700
C 	C 	0.03010 0.18040 0.92670 0.10100
N 	N 	0.04330 0.25050 0.95320 -0.13700
Zn	Zn	0.88699 0.92617 0.94517 1.16300
Zn	Zn	0.65040 0.88732 0.57444 1.16400
Zn	Zn	0.66211 0.65389 0.76246 1.16300
I 	I 	0.90380 0.77120 0.91985 -0.37900
I 	I 	0.87600 0.94731 0.01278 -0.36600
I 	I 	0.72414 0.85395 0.57638 -0.37400
I 	I 	0.59669 0.76278 0.56161 -0.37600
I 	I 	0.61852 0.68337 0.68990 -0.38400
I 	I 	0.72659 0.75247 0.79236 -0.37600
N 	N 	0.83810 0.98290 0.90020 -0.27200
C 	C 	0.82050 0.93720 0.86530 0.06500
H 	H 	0.82940 0.87640 0.86250 -0.00700
C 	C 	0.78970 0.97710 0.83350 -0.12300
H 	H 	0.77740 0.94340 0.80940 0.09300
C 	C 	0.77720 0.06530 0.83690 0.05600
C 	C 	0.79550 0.11280 0.87270 -0.12000
H 	H 	0.78760 0.17410 0.87600 0.07600
C 	C 	0.82570 0.06820 0.90340 0.07500
H 	H 	0.83810 0.10020 0.92800 -0.01500
N 	N 	0.65750 0.95560 0.62790 -0.27100
C 	C 	0.65700 0.04660 0.62920 0.07200
H 	H 	0.64770 0.07960 0.60450 -0.00500
C 	C 	0.66940 0.09550 0.66500 -0.12000
H 	H 	0.66740 0.16050 0.66500 0.09100
C 	C 	0.68460 0.04730 0.70080 0.05400
C 	C 	0.68480 0.95230 0.69960 -0.11400
H 	H 	0.69420 0.91800 0.72390 0.07900
C 	C 	0.67120 0.90730 0.66260 0.05600
H 	H 	0.67150 0.84210 0.66180 -0.01000
N 	N 	0.67650 0.51700 0.76900 -0.27500
C 	C 	0.65810 0.45970 0.73830 0.05700
H 	H 	0.63810 0.48410 0.71500 -0.01200
C 	C 	0.66720 0.36690 0.73910 -0.11200
H 	H 	0.65350 0.32850 0.71690 0.08100
C 	C 	0.69690 0.33070 0.77310 0.05300
C 	C 	0.71550 0.38970 0.80540 -0.11700
H 	H 	0.73530 0.36700 0.82930 0.08300
C 	C 	0.70470 0.48070 0.80200 0.07200
H 	H 	0.71770 0.52030 0.82390 -0.01200
C 	C 	0.74580 0.10930 0.80250 0.08900
N 	N 	0.72960 0.05740 0.76970 -0.14000
C 	C 	0.70130 0.10090 0.73920 0.10200
N 	N 	0.68910 0.18600 0.73960 -0.13600
C 	C 	0.70850 0.23250 0.77340 0.10500
N 	N 	0.73680 0.19840 0.80580 -0.13900
N 	N 	0.62470 0.98690 0.53230 -0.27800
C 	C 	0.64540 0.02360 0.50880 0.06800
H 	H 	0.67250 0.00210 0.51200 -0.01000
C 	C 	0.62920 0.08970 0.48100 -0.12400
H 	H 	0.64440 0.11230 0.46460 0.08400
C 	C 	0.58980 0.12450 0.47670 0.05900
C 	C 	0.56940 0.09060 0.50140 -0.12800
H 	H 	0.54310 0.11390 0.50010 0.09000
C 	C 	0.58790 0.02170 0.52840 0.08500
H 	H 	0.57320 0.99790 0.54510 -0.01600
N 	N 	0.62850 0.32830 0.30180 -0.27000
C 	C 	0.61320 0.39890 0.31700 0.06600
H 	H 	0.61580 0.45930 0.30800 -0.01100
C 	C 	0.59370 0.38560 0.34590 -0.11200
H 	H 	0.58180 0.43620 0.35540 0.08300
C 	C 	0.59150 0.29770 0.36060 0.05100
C 	C 	0.60710 0.22610 0.34440 -0.10900
H 	H 	0.60480 0.16500 0.35300 0.07800
C 	C 	0.62620 0.24260 0.31550 0.05600
H 	H 	0.63790 0.19280 0.30520 -0.01300
N 	N 	0.43410 0.48940 0.44110 -0.27100
C 	C 	0.44140 0.48200 0.40520 0.07600
H 	H 	0.42430 0.51560 0.38270 -0.01200
C 	C 	0.47170 0.42890 0.39980 -0.11300
H 	H 	0.47580 0.42590 0.37420 0.08700
C 	C 	0.49690 0.37880 0.43220 0.06200
C 	C 	0.49010 0.38520 0.46880 -0.11800
H 	H 	0.50690 0.35240 0.49160 0.07200
C 	C 	0.45830 0.44030 0.47160 0.08100
H 	H 	0.45330 0.44340 0.49680 -0.00900
C 	C 	0.57370 0.19840 0.44760 0.09700
N 	N 	0.58940 0.21090 0.41750 -0.13700
C 	C 	0.57290 0.28160 0.39310 0.11400
N 	N 	0.54440 0.33700 0.39610 -0.13700
C 	C 	0.53010 0.31960 0.42670 0.10100
N 	N 	0.54330 0.24950 0.45320 -0.13700
Zn	Zn	0.38699 0.42617 0.94517 1.16400
Zn	Zn	0.15040 0.38732 0.57444 1.16400
Zn	Zn	0.16211 0.15389 0.76246 1.16400
I 	I 	0.40380 0.27120 0.91985 -0.37800
I 	I 	0.37600 0.44731 0.01278 -0.36700
I 	I 	0.22414 0.35395 0.57638 -0.37400
I 	I 	0.09669 0.26278 0.56161 -0.37600
I 	I 	0.11852 0.18337 0.68990 -0.38400
I 	I 	0.22659 0.25247 0.79236 -0.37600
N 	N 	0.33810 0.48290 0.90020 -0.27200
C 	C 	0.32050 0.43720 0.86530 0.06400
H 	H 	0.32940 0.37640 0.86250 -0.00700
C 	C 	0.28970 0.47710 0.83350 -0.12200
H 	H 	0.27740 0.44340 0.80940 0.09200
C 	C 	0.27720 0.56530 0.83690 0.05500
C 	C 	0.29550 0.61280 0.87270 -0.12000
H 	H 	0.28760 0.67410 0.87600 0.07600
C 	C 	0.32570 0.56820 0.90340 0.07500
H 	H 	0.33810 0.60020 0.92800 -0.01400
N 	N 	0.15750 0.45560 0.62790 -0.27000
C 	C 	0.15700 0.54660 0.62920 0.07200
H 	H 	0.14770 0.57960 0.60450 -0.00500
C 	C 	0.16940 0.59550 0.66500 -0.11900
H 	H 	0.16740 0.66050 0.66500 0.09100
C 	C 	0.18460 0.54730 0.70080 0.05400
C 	C 	0.18480 0.45230 0.69960 -0.11400
H 	H 	0.19420 0.41800 0.72390 0.07900
C 	C 	0.17120 0.40730 0.66260 0.05600
H 	H 	0.17150 0.34210 0.66180 -0.01000
N 	N 	0.17650 0.01700 0.76900 -0.27500
C 	C 	0.15810 0.95970 0.73830 0.05700
H 	H 	0.13810 0.98410 0.71500 -0.01200
C 	C 	0.16720 0.86690 0.73910 -0.11100
H 	H 	0.15350 0.82850 0.71690 0.08100
C 	C 	0.19690 0.83070 0.77310 0.05300
C 	C 	0.21550 0.88970 0.80540 -0.11700
H 	H 	0.23530 0.86700 0.82930 0.08200
C 	C 	0.20470 0.98070 0.80200 0.07100
H 	H 	0.21770 0.02030 0.82390 -0.01100
C 	C 	0.24580 0.60930 0.80250 0.09000
N 	N 	0.22960 0.55740 0.76970 -0.14000
C 	C 	0.20130 0.60090 0.73920 0.10200
N 	N 	0.18910 0.68600 0.73960 -0.13600
C 	C 	0.20850 0.73250 0.77340 0.10500
N 	N 	0.23680 0.69840 0.80580 -0.13900
N 	N 	0.12470 0.48690 0.53230 -0.27800
C 	C 	0.14540 0.52360 0.50880 0.06800
H 	H 	0.17250 0.50210 0.51200 -0.01000
C 	C 	0.12920 0.58970 0.48100 -0.12400
H 	H 	0.14440 0.61230 0.46460 0.08400
C 	C 	0.08980 0.62450 0.47670 0.05900
C 	C 	0.06940 0.59060 0.50140 -0.12700
H 	H 	0.04310 0.61390 0.50010 0.09000
C 	C 	0.08790 0.52170 0.52840 0.08500
H 	H 	0.07320 0.49790 0.54510 -0.01600
N 	N 	0.12850 0.82830 0.30180 -0.27000
C 	C 	0.11320 0.89890 0.31700 0.06600
H 	H 	0.11580 0.95930 0.30800 -0.01100
C 	C 	0.09370 0.88560 0.34590 -0.11200
H 	H 	0.08180 0.93620 0.35540 0.08300
C 	C 	0.09150 0.79770 0.36060 0.05100
C 	C 	0.10710 0.72610 0.34440 -0.10900
H 	H 	0.10480 0.66500 0.35300 0.07800
C 	C 	0.12620 0.74260 0.31550 0.05600
H 	H 	0.13790 0.69280 0.30520 -0.01300
N 	N 	0.93410 0.98940 0.44110 -0.27100
C 	C 	0.94140 0.98200 0.40520 0.07600
H 	H 	0.92430 0.01560 0.38270 -0.01200
C 	C 	0.97170 0.92890 0.39980 -0.11300
H 	H 	0.97580 0.92590 0.37420 0.08700
C 	C 	0.99690 0.87880 0.43220 0.06200
C 	C 	0.99010 0.88520 0.46880 -0.11800
H 	H 	0.00690 0.85240 0.49160 0.07200
C 	C 	0.95830 0.94030 0.47160 0.08100
H 	H 	0.95330 0.94340 0.49680 -0.00900
C 	C 	0.07370 0.69840 0.44760 0.09700
N 	N 	0.08940 0.71090 0.41750 -0.13700
C 	C 	0.07290 0.78160 0.39310 0.11400
N 	N 	0.04440 0.83700 0.39610 -0.13700
C 	C 	0.03010 0.81960 0.42670 0.10100
N 	N 	0.04330 0.74950 0.45320 -0.13700
