data_crystal

_cell_length_a 34.47460
_cell_length_b 15.02550
_cell_length_c 30.15350
_cell_angle_alpha 90.00000
_cell_angle_beta  99.68100
_cell_angle_gamma 90.00000

_symmetry_space_group_name_	'P 1'
_symmetry_space_group_name_H-M	'P 1'

loop_
_symmetry_equiv_pos_as_xyz
  x,y,z

loop_
_atom_site_label
_atom_site_type_symbol
_atom_site_fract_x
_atom_site_fract_y
_atom_site_fract_z
_atom_site_charge
I 	I 	0.39600 0.72350 0.39820 1.71900
Zn	Zn	0.36863 0.59477 0.44686 1.04100
N 	N 	0.41390 0.50480 0.45000 -0.30000
I 	I 	0.34820 0.61240 0.51740 6.07700
N 	N 	0.32590 0.53200 0.40160 -0.28600
C 	C 	0.30450 0.57570 0.36730 0.04600
C 	C 	0.31850 0.44650 0.40690 0.06800
C 	C 	0.27560 0.53520 0.33710 -0.11600
H 	H 	0.30940 0.63730 0.36370 -0.02300
C 	C 	0.29030 0.39940 0.37750 -0.09500
H 	H 	0.33310 0.41590 0.43180 0.06800
C 	C 	0.26840 0.44480 0.34180 0.04000
H 	H 	0.26070 0.56850 0.31340 0.08100
H 	H 	0.28620 0.33770 0.38190 0.09800
C 	C 	0.23760 0.40180 0.30970 0.08900
N 	N 	0.23150 0.31230 0.31420 -0.13600
N 	N 	0.21800 0.45150 0.27660 -0.14500
C 	C 	0.20340 0.27950 0.28470 0.11400
C 	C 	0.18960 0.41010 0.24920 0.10400
C 	C 	0.19710 0.18010 0.28320 0.06600
N 	N 	0.18070 0.32370 0.25240 -0.14200
C 	C 	0.16650 0.46170 0.21240 0.04900
C 	C 	0.21920 0.12200 0.31230 -0.11600
C 	C 	0.16860 0.14470 0.25090 -0.11700
C 	C 	0.17390 0.54930 0.20540 -0.11900
C 	C 	0.13620 0.42000 0.18370 -0.10400
C 	C 	0.21150 0.03300 0.30930 0.09800
H 	H 	0.23970 0.14390 0.33460 0.10200
C 	C 	0.16360 0.05290 0.24920 0.07600
H 	H 	0.15260 0.18220 0.22990 0.05900
C 	C 	0.15110 0.59350 0.16990 0.07000
H 	H 	0.19440 0.57950 0.22460 0.07400
C 	C 	0.11360 0.46960 0.15090 0.06700
H 	H 	0.13120 0.35830 0.18670 0.05300
N 	N 	0.18480 0.99840 0.27740 -0.27400
H 	H 	0.22600 0.99430 0.33090 0.00900
H 	H 	0.14390 0.02850 0.22660 -0.03100
N 	N 	0.12180 0.55470 0.14270 -0.26700
H 	H 	0.15680 0.65420 0.16490 -0.01200
H 	H 	0.09130 0.44260 0.13330 -0.02100
Zn	Zn	0.17170 0.86050 0.26940 0.60000
Zn	Zn	0.08275 0.62515 0.09529 1.15800
N 	N 	0.13750 0.84470 0.31800 -0.28700
I 	I 	0.12992 0.84010 0.19280 -0.25700
I 	I 	0.23327 0.76630 0.29380 -0.10900
I 	I 	0.02413 0.65350 0.13571 -0.29500
I 	I 	0.11963 0.73530 0.05501 -0.03900
N 	N 	0.06670 0.52080 0.05080 -0.27500
C 	C 	0.14090 0.77540 0.34430 0.11700
C 	C 	0.11260 0.90450 0.32730 0.13400
C 	C 	0.11710 0.75670 0.37490 -0.18500
H 	H 	0.16160 0.73480 0.34200 -0.03800
C 	C 	0.08710 0.88800 0.35660 -0.12900
H 	H 	0.11200 0.96120 0.31330 -0.00900
C 	C 	0.08880 0.81150 0.37980 0.07800
H 	H 	0.12100 0.70410 0.39260 0.05200
H 	H 	0.06800 0.93140 0.36060 0.10900
C 	C 	0.06310 0.79640 0.41430 0.02200
N 	N 	0.07020 0.72220 0.43920 -0.18100
N 	N 	0.03420 0.85430 0.41670 -0.13400
C 	C 	0.04670 0.71080 0.47000 0.05200
C 	C 	0.01220 0.83460 0.44720 0.06500
C 	C 	0.05230 0.63030 0.49800 0.05600
N 	N 	0.01730 0.76570 0.47640 -0.15200
C 	C 	0.97780 0.89380 0.44990 0.05200
C 	C 	0.08460 0.57540 0.49490 -0.11700
C 	C 	0.02780 0.60640 0.52700 -0.13400
C 	C 	0.95850 0.93270 0.41040 -0.15000
C 	C 	0.96270 0.90650 0.48770 -0.10900
C 	C 	0.08970 0.50230 0.52200 0.08100
H 	H 	0.10220 0.58860 0.47470 0.05800
H 	H 	0.00540 0.64170 0.52950 0.07000
C 	C 	0.03560 0.53180 0.55200 0.07800
C 	C 	0.92820 0.98860 0.41310 0.09400
H 	H 	0.96640 0.92040 0.38230 0.08800
C 	C 	0.93080 0.96310 0.48730 0.04600
H 	H 	0.97380 0.87680 0.51460 0.07000
H 	H 	0.11160 0.46500 0.52000 -0.00700
H 	H 	0.01790 0.51590 0.57170 -0.01500
H 	H 	0.91630 0.01820 0.38640 -0.07500
H 	H 	0.92070 0.97240 0.51440 0.06400
I 	I 	0.38490 0.73040 0.41230 -0.56000
I 	I 	0.34420 0.58350 0.52600 -0.93000
Zn	Zn	0.67770 0.36720 0.27570 0.54200
I 	I 	0.73840 0.28510 0.30910 -0.23800
I 	I 	0.63730 0.33780 0.19730 -0.11000
I 	I 	0.53020 0.17400 0.12880 -0.05200
I 	I 	0.63210 0.22050 0.05560 -0.22000
I 	I 	0.38210 0.74320 0.42100 -1.62400
I 	I 	0.34260 0.56000 0.52750 -5.23500
I 	I 	0.89600 0.22350 0.39820 1.71600
Zn	Zn	0.86863 0.09477 0.44686 1.04200
N 	N 	0.91390 0.00480 0.45000 -0.29900
I 	I 	0.84820 0.11240 0.51740 6.06600
N 	N 	0.82590 0.03200 0.40160 -0.28500
C 	C 	0.80450 0.07570 0.36730 0.04700
C 	C 	0.81850 0.94650 0.40690 0.06900
C 	C 	0.77560 0.03520 0.33710 -0.11500
H 	H 	0.80940 0.13730 0.36370 -0.02200
C 	C 	0.79030 0.89940 0.37750 -0.09500
H 	H 	0.83310 0.91590 0.43180 0.06900
C 	C 	0.76840 0.94480 0.34180 0.04200
H 	H 	0.76070 0.06850 0.31340 0.08200
H 	H 	0.78620 0.83770 0.38190 0.09900
C 	C 	0.73760 0.90180 0.30970 0.09000
N 	N 	0.73150 0.81230 0.31420 -0.13500
N 	N 	0.71800 0.95150 0.27660 -0.14400
C 	C 	0.70340 0.77950 0.28470 0.11400
C 	C 	0.68960 0.91010 0.24920 0.10300
C 	C 	0.69710 0.68010 0.28320 0.06600
N 	N 	0.68070 0.82370 0.25240 -0.14200
C 	C 	0.66650 0.96170 0.21240 0.05000
C 	C 	0.71920 0.62200 0.31230 -0.11700
C 	C 	0.66860 0.64470 0.25090 -0.11700
C 	C 	0.67390 0.04930 0.20540 -0.12000
C 	C 	0.63620 0.92000 0.18370 -0.10400
C 	C 	0.71150 0.53300 0.30930 0.09900
H 	H 	0.73970 0.64390 0.33460 0.10200
C 	C 	0.66360 0.55290 0.24920 0.07600
H 	H 	0.65260 0.68220 0.22990 0.05900
C 	C 	0.65110 0.09350 0.16990 0.07000
H 	H 	0.69440 0.07950 0.22460 0.07400
C 	C 	0.61360 0.96960 0.15090 0.06700
H 	H 	0.63120 0.85830 0.18670 0.05400
N 	N 	0.68480 0.49840 0.27740 -0.27400
H 	H 	0.72600 0.49430 0.33090 0.00900
H 	H 	0.64390 0.52850 0.22660 -0.03100
N 	N 	0.62180 0.05470 0.14270 -0.26800
H 	H 	0.65680 0.15420 0.16490 -0.01200
H 	H 	0.59130 0.94260 0.13330 -0.02100
Zn	Zn	0.67170 0.36050 0.26940 0.60000
Zn	Zn	0.58275 0.12515 0.09529 1.15800
N 	N 	0.63750 0.34470 0.31800 -0.28700
I 	I 	0.62992 0.34010 0.19280 -0.25700
I 	I 	0.73327 0.26630 0.29380 -0.10900
I 	I 	0.52413 0.15350 0.13571 -0.29500
I 	I 	0.61963 0.23530 0.05501 -0.04000
N 	N 	0.56670 0.02080 0.05080 -0.27600
C 	C 	0.64090 0.27540 0.34430 0.11700
C 	C 	0.61260 0.40450 0.32730 0.13400
C 	C 	0.61710 0.25670 0.37490 -0.18500
H 	H 	0.66160 0.23480 0.34200 -0.03800
C 	C 	0.58710 0.38800 0.35660 -0.12900
H 	H 	0.61200 0.46120 0.31330 -0.00800
C 	C 	0.58880 0.31150 0.37980 0.07800
H 	H 	0.62100 0.20410 0.39260 0.05200
H 	H 	0.56800 0.43140 0.36060 0.10900
C 	C 	0.56310 0.29640 0.41430 0.02200
N 	N 	0.57020 0.22220 0.43920 -0.18100
N 	N 	0.53420 0.35430 0.41670 -0.13400
C 	C 	0.54670 0.21080 0.47000 0.05200
C 	C 	0.51220 0.33460 0.44720 0.06500
C 	C 	0.55230 0.13030 0.49800 0.05600
N 	N 	0.51730 0.26570 0.47640 -0.15200
C 	C 	0.47780 0.39380 0.44990 0.05200
C 	C 	0.58460 0.07540 0.49490 -0.11600
C 	C 	0.52780 0.10640 0.52700 -0.13400
C 	C 	0.45850 0.43270 0.41040 -0.15000
C 	C 	0.46270 0.40650 0.48770 -0.10800
C 	C 	0.58970 0.00230 0.52200 0.08000
H 	H 	0.60220 0.08860 0.47470 0.05800
H 	H 	0.50540 0.14170 0.52950 0.07000
C 	C 	0.53560 0.03180 0.55200 0.07800
C 	C 	0.42820 0.48860 0.41310 0.09400
H 	H 	0.46640 0.42040 0.38230 0.08800
C 	C 	0.43080 0.46310 0.48730 0.04600
H 	H 	0.47380 0.37680 0.51460 0.07000
H 	H 	0.61160 0.96500 0.52000 -0.00800
H 	H 	0.51790 0.01590 0.57170 -0.01500
H 	H 	0.41630 0.51820 0.38640 -0.07400
H 	H 	0.42070 0.47240 0.51440 0.06500
I 	I 	0.88490 0.23040 0.41230 -0.56000
I 	I 	0.84420 0.08350 0.52600 -0.92800
Zn	Zn	0.17770 0.86720 0.27570 0.54200
I 	I 	0.23840 0.78510 0.30910 -0.23800
I 	I 	0.13730 0.83780 0.19730 -0.11000
I 	I 	0.03020 0.67400 0.12880 -0.05100
I 	I 	0.13210 0.72050 0.05560 -0.22000
I 	I 	0.88210 0.24320 0.42100 -1.62100
I 	I 	0.84260 0.06000 0.52750 -5.22500
I 	I 	0.39600 0.27650 0.89820 1.71900
Zn	Zn	0.36863 0.40523 0.94686 1.04200
N 	N 	0.41390 0.49520 0.95000 -0.29900
I 	I 	0.34820 0.38760 0.01740 6.08200
N 	N 	0.32590 0.46800 0.90160 -0.28500
C 	C 	0.30450 0.42430 0.86730 0.04700
C 	C 	0.31850 0.55350 0.90690 0.06900
C 	C 	0.27560 0.46480 0.83710 -0.11400
H 	H 	0.30940 0.36270 0.86370 -0.02200
C 	C 	0.29030 0.60060 0.87750 -0.09400
H 	H 	0.33310 0.58410 0.93180 0.06900
C 	C 	0.26840 0.55520 0.84180 0.04100
H 	H 	0.26070 0.43150 0.81340 0.08200
H 	H 	0.28620 0.66230 0.88190 0.09900
C 	C 	0.23760 0.59820 0.80970 0.09000
N 	N 	0.23150 0.68770 0.81420 -0.13500
N 	N 	0.21800 0.54850 0.77660 -0.14400
C 	C 	0.20340 0.72050 0.78470 0.11500
C 	C 	0.18960 0.58990 0.74920 0.10400
C 	C 	0.19710 0.81990 0.78320 0.06600
N 	N 	0.18070 0.67630 0.75240 -0.14200
C 	C 	0.16650 0.53830 0.71240 0.04900
C 	C 	0.21920 0.87800 0.81230 -0.11600
C 	C 	0.16860 0.85530 0.75090 -0.11700
C 	C 	0.17390 0.45070 0.70540 -0.11900
C 	C 	0.13620 0.58000 0.68370 -0.10400
C 	C 	0.21150 0.96700 0.80930 0.09700
H 	H 	0.23970 0.85610 0.83460 0.10200
C 	C 	0.16360 0.94710 0.74920 0.07500
H 	H 	0.15260 0.81780 0.72990 0.05900
C 	C 	0.15110 0.40650 0.66990 0.07000
H 	H 	0.19440 0.42050 0.72460 0.07400
C 	C 	0.11360 0.53040 0.65090 0.06700
H 	H 	0.13120 0.64170 0.68670 0.05300
N 	N 	0.18480 0.00160 0.77740 -0.27400
H 	H 	0.22600 0.00570 0.83090 0.01000
H 	H 	0.14390 0.97150 0.72660 -0.03100
N 	N 	0.12180 0.44530 0.64270 -0.26700
H 	H 	0.15680 0.34580 0.66490 -0.01200
H 	H 	0.09130 0.55740 0.63330 -0.02100
Zn	Zn	0.17170 0.13950 0.76940 0.60000
Zn	Zn	0.08275 0.37485 0.59529 1.15800
N 	N 	0.13750 0.15530 0.81800 -0.28700
I 	I 	0.12992 0.15990 0.69280 -0.25700
I 	I 	0.23327 0.23370 0.79380 -0.10900
I 	I 	0.02413 0.34650 0.63571 -0.29500
I 	I 	0.11963 0.26470 0.55501 -0.04000
N 	N 	0.06670 0.47920 0.55080 -0.27500
C 	C 	0.14090 0.22460 0.84430 0.11700
C 	C 	0.11260 0.09550 0.82730 0.13400
C 	C 	0.11710 0.24330 0.87490 -0.18500
H 	H 	0.16160 0.26520 0.84200 -0.03800
C 	C 	0.08710 0.11200 0.85660 -0.12900
H 	H 	0.11200 0.03880 0.81330 -0.00900
C 	C 	0.08880 0.18850 0.87980 0.07800
H 	H 	0.12100 0.29590 0.89260 0.05200
H 	H 	0.06800 0.06860 0.86060 0.10900
C 	C 	0.06310 0.20360 0.91430 0.02200
N 	N 	0.07020 0.27780 0.93920 -0.18100
N 	N 	0.03420 0.14570 0.91670 -0.13400
C 	C 	0.04670 0.28920 0.97000 0.05200
C 	C 	0.01220 0.16540 0.94720 0.06500
C 	C 	0.05230 0.36970 0.99800 0.05600
N 	N 	0.01730 0.23430 0.97640 -0.15200
C 	C 	0.97780 0.10620 0.94990 0.05300
C 	C 	0.08460 0.42460 0.99490 -0.11600
C 	C 	0.02780 0.39360 0.02700 -0.13500
C 	C 	0.95850 0.06730 0.91040 -0.15100
C 	C 	0.96270 0.09350 0.98770 -0.10900
C 	C 	0.08970 0.49770 0.02200 0.08100
H 	H 	0.10220 0.41140 0.97470 0.05900
H 	H 	0.00540 0.35830 0.02950 0.07000
C 	C 	0.03560 0.46820 0.05200 0.07800
C 	C 	0.92820 0.01140 0.91310 0.09600
H 	H 	0.96640 0.07960 0.88230 0.08800
C 	C 	0.93080 0.03690 0.98730 0.04800
H 	H 	0.97380 0.12320 0.01460 0.06900
H 	H 	0.11160 0.53500 0.02000 -0.00700
H 	H 	0.01790 0.48410 0.07170 -0.01500
H 	H 	0.91630 0.98180 0.88640 -0.07500
H 	H 	0.92070 0.02760 0.01440 0.06300
I 	I 	0.38490 0.26960 0.91230 -0.56000
I 	I 	0.34420 0.41650 0.02600 -0.93000
Zn	Zn	0.67770 0.63280 0.77570 0.54200
I 	I 	0.73840 0.71490 0.80910 -0.23800
I 	I 	0.63730 0.66220 0.69730 -0.11000
I 	I 	0.53020 0.82600 0.62880 -0.05200
I 	I 	0.63210 0.77950 0.55560 -0.22000
I 	I 	0.38210 0.25680 0.92100 -1.62400
I 	I 	0.34260 0.44000 0.02750 -5.23900
I 	I 	0.89600 0.77650 0.89820 1.71600
Zn	Zn	0.86863 0.90523 0.94686 1.04200
N 	N 	0.91390 0.99520 0.95000 -0.30000
I 	I 	0.84820 0.88760 0.01740 6.06400
N 	N 	0.82590 0.96800 0.90160 -0.28500
C 	C 	0.80450 0.92430 0.86730 0.04800
C 	C 	0.81850 0.05350 0.90690 0.07000
C 	C 	0.77560 0.96480 0.83710 -0.11600
H 	H 	0.80940 0.86270 0.86370 -0.02200
C 	C 	0.79030 0.10060 0.87750 -0.09500
H 	H 	0.83310 0.08410 0.93180 0.06900
C 	C 	0.76840 0.05520 0.84180 0.04200
H 	H 	0.76070 0.93150 0.81340 0.08200
H 	H 	0.78620 0.16230 0.88190 0.09900
C 	C 	0.73760 0.09820 0.80970 0.09000
N 	N 	0.73150 0.18770 0.81420 -0.13500
N 	N 	0.71800 0.04850 0.77660 -0.14400
C 	C 	0.70340 0.22050 0.78470 0.11400
C 	C 	0.68960 0.08990 0.74920 0.10300
C 	C 	0.69710 0.31990 0.78320 0.06600
N 	N 	0.68070 0.17630 0.75240 -0.14200
C 	C 	0.66650 0.03830 0.71240 0.05000
C 	C 	0.71920 0.37800 0.81230 -0.11700
C 	C 	0.66860 0.35530 0.75090 -0.11700
C 	C 	0.67390 0.95070 0.70540 -0.12000
C 	C 	0.63620 0.08000 0.68370 -0.10400
C 	C 	0.71150 0.46700 0.80930 0.09900
H 	H 	0.73970 0.35610 0.83460 0.10200
C 	C 	0.66360 0.44710 0.74920 0.07600
H 	H 	0.65260 0.31780 0.72990 0.05900
C 	C 	0.65110 0.90650 0.66990 0.07000
H 	H 	0.69440 0.92050 0.72460 0.07400
C 	C 	0.61360 0.03040 0.65090 0.06700
H 	H 	0.63120 0.14170 0.68670 0.05300
N 	N 	0.68480 0.50160 0.77740 -0.27400
H 	H 	0.72600 0.50570 0.83090 0.00900
H 	H 	0.64390 0.47150 0.72660 -0.03100
N 	N 	0.62180 0.94530 0.64270 -0.26800
H 	H 	0.65680 0.84580 0.66490 -0.01200
H 	H 	0.59130 0.05740 0.63330 -0.02100
Zn	Zn	0.67170 0.63950 0.76940 0.60000
Zn	Zn	0.58275 0.87485 0.59529 1.15800
N 	N 	0.63750 0.65530 0.81800 -0.28700
I 	I 	0.62992 0.65990 0.69280 -0.25700
I 	I 	0.73327 0.73370 0.79380 -0.10900
I 	I 	0.52413 0.84650 0.63571 -0.29500
I 	I 	0.61963 0.76470 0.55501 -0.04000
N 	N 	0.56670 0.97920 0.55080 -0.27500
C 	C 	0.64090 0.72460 0.84430 0.11700
C 	C 	0.61260 0.59550 0.82730 0.13400
C 	C 	0.61710 0.74330 0.87490 -0.18500
H 	H 	0.66160 0.76520 0.84200 -0.03800
C 	C 	0.58710 0.61200 0.85660 -0.12900
H 	H 	0.61200 0.53880 0.81330 -0.00800
C 	C 	0.58880 0.68850 0.87980 0.07700
H 	H 	0.62100 0.79590 0.89260 0.05200
H 	H 	0.56800 0.56860 0.86060 0.10900
C 	C 	0.56310 0.70360 0.91430 0.02200
N 	N 	0.57020 0.77780 0.93920 -0.18100
N 	N 	0.53420 0.64570 0.91670 -0.13400
C 	C 	0.54670 0.78920 0.97000 0.05200
C 	C 	0.51220 0.66540 0.94720 0.06500
C 	C 	0.55230 0.86970 0.99800 0.05600
N 	N 	0.51730 0.73430 0.97640 -0.15200
C 	C 	0.47780 0.60620 0.94990 0.05200
C 	C 	0.58460 0.92460 0.99490 -0.11900
C 	C 	0.52780 0.89360 0.02700 -0.13400
C 	C 	0.45850 0.56730 0.91040 -0.15000
C 	C 	0.46270 0.59350 0.98770 -0.10900
C 	C 	0.58970 0.99770 0.02200 0.08400
H 	H 	0.60220 0.91140 0.97470 0.05900
H 	H 	0.50540 0.85830 0.02950 0.07000
C 	C 	0.53560 0.96820 0.05200 0.07900
C 	C 	0.42820 0.51140 0.91310 0.09400
H 	H 	0.46640 0.57960 0.88230 0.08800
C 	C 	0.43080 0.53690 0.98730 0.04700
H 	H 	0.47380 0.62320 0.01460 0.07000
H 	H 	0.61160 0.03500 0.02000 -0.00900
H 	H 	0.51790 0.98410 0.07170 -0.01500
H 	H 	0.41630 0.48180 0.88640 -0.07400
H 	H 	0.42070 0.52760 0.01440 0.06500
I 	I 	0.88490 0.76960 0.91230 -0.55900
I 	I 	0.84420 0.91650 0.02600 -0.92800
Zn	Zn	0.17770 0.13280 0.77570 0.54200
I 	I 	0.23840 0.21490 0.80910 -0.23800
I 	I 	0.13730 0.16220 0.69730 -0.11000
I 	I 	0.03020 0.32600 0.62880 -0.05100
I 	I 	0.13210 0.27950 0.55560 -0.22000
I 	I 	0.88210 0.75680 0.92100 -1.62100
I 	I 	0.84260 0.94000 0.02750 -5.22300
I 	I 	0.60400 0.72350 0.10180 1.71900
Zn	Zn	0.63137 0.59477 0.05314 1.04200
N 	N 	0.58610 0.50480 0.05000 -0.29900
I 	I 	0.65180 0.61240 0.98260 6.08200
N 	N 	0.67410 0.53200 0.09840 -0.28500
C 	C 	0.69550 0.57570 0.13270 0.04700
C 	C 	0.68150 0.44650 0.09310 0.06900
C 	C 	0.72440 0.53520 0.16290 -0.11400
H 	H 	0.69060 0.63730 0.13630 -0.02200
C 	C 	0.70970 0.39940 0.12250 -0.09400
H 	H 	0.66690 0.41590 0.06820 0.06900
C 	C 	0.73160 0.44480 0.15820 0.04100
H 	H 	0.73930 0.56850 0.18660 0.08200
H 	H 	0.71380 0.33770 0.11810 0.09900
C 	C 	0.76240 0.40180 0.19030 0.09000
N 	N 	0.76850 0.31230 0.18580 -0.13500
N 	N 	0.78200 0.45150 0.22340 -0.14400
C 	C 	0.79660 0.27950 0.21530 0.11500
C 	C 	0.81040 0.41010 0.25080 0.10400
C 	C 	0.80290 0.18010 0.21680 0.06600
N 	N 	0.81930 0.32370 0.24760 -0.14200
C 	C 	0.83350 0.46170 0.28760 0.04900
C 	C 	0.78080 0.12200 0.18770 -0.11600
C 	C 	0.83140 0.14470 0.24910 -0.11700
C 	C 	0.82610 0.54930 0.29460 -0.11900
C 	C 	0.86380 0.42000 0.31630 -0.10400
C 	C 	0.78850 0.03300 0.19070 0.09700
H 	H 	0.76030 0.14390 0.16540 0.10200
C 	C 	0.83640 0.05290 0.25080 0.07500
H 	H 	0.84740 0.18220 0.27010 0.05900
C 	C 	0.84890 0.59350 0.33010 0.07000
H 	H 	0.80560 0.57950 0.27540 0.07400
C 	C 	0.88640 0.46960 0.34910 0.06700
H 	H 	0.86880 0.35830 0.31330 0.05300
N 	N 	0.81520 0.99840 0.22260 -0.27400
H 	H 	0.77400 0.99430 0.16910 0.01000
H 	H 	0.85610 0.02850 0.27340 -0.03100
N 	N 	0.87820 0.55470 0.35730 -0.26700
H 	H 	0.84320 0.65420 0.33510 -0.01200
H 	H 	0.90870 0.44260 0.36670 -0.02100
Zn	Zn	0.82830 0.86050 0.23060 0.60000
Zn	Zn	0.91725 0.62515 0.40471 1.15800
N 	N 	0.86250 0.84470 0.18200 -0.28700
I 	I 	0.87008 0.84010 0.30720 -0.25700
I 	I 	0.76673 0.76630 0.20620 -0.10900
I 	I 	0.97587 0.65350 0.36429 -0.29500
I 	I 	0.88037 0.73530 0.44499 -0.04000
N 	N 	0.93330 0.52080 0.44920 -0.27500
C 	C 	0.85910 0.77540 0.15570 0.11700
C 	C 	0.88740 0.90450 0.17270 0.13400
C 	C 	0.88290 0.75670 0.12510 -0.18500
H 	H 	0.83840 0.73480 0.15800 -0.03800
C 	C 	0.91290 0.88800 0.14340 -0.12900
H 	H 	0.88800 0.96120 0.18670 -0.00900
C 	C 	0.91120 0.81150 0.12020 0.07800
H 	H 	0.87900 0.70410 0.10740 0.05200
H 	H 	0.93200 0.93140 0.13940 0.10900
C 	C 	0.93690 0.79640 0.08570 0.02200
N 	N 	0.92980 0.72220 0.06080 -0.18100
N 	N 	0.96580 0.85430 0.08330 -0.13400
C 	C 	0.95330 0.71080 0.03000 0.05200
C 	C 	0.98780 0.83460 0.05280 0.06500
C 	C 	0.94770 0.63030 0.00200 0.05600
N 	N 	0.98270 0.76570 0.02360 -0.15200
C 	C 	0.02220 0.89380 0.05010 0.05300
C 	C 	0.91540 0.57540 0.00510 -0.11600
C 	C 	0.97220 0.60640 0.97300 -0.13500
C 	C 	0.04150 0.93270 0.08960 -0.15100
C 	C 	0.03730 0.90650 0.01230 -0.10900
C 	C 	0.91030 0.50230 0.97800 0.08100
H 	H 	0.89780 0.58860 0.02530 0.05900
H 	H 	0.99460 0.64170 0.97050 0.07000
C 	C 	0.96440 0.53180 0.94800 0.07800
C 	C 	0.07180 0.98860 0.08690 0.09600
H 	H 	0.03360 0.92040 0.11770 0.08800
C 	C 	0.06920 0.96310 0.01270 0.04800
H 	H 	0.02620 0.87680 0.98540 0.06900
H 	H 	0.88840 0.46500 0.98000 -0.00700
H 	H 	0.98210 0.51590 0.92830 -0.01500
H 	H 	0.08370 0.01820 0.11360 -0.07500
H 	H 	0.07930 0.97240 0.98560 0.06300
I 	I 	0.61510 0.73040 0.08770 -0.56000
I 	I 	0.65580 0.58350 0.97400 -0.93000
Zn	Zn	0.32230 0.36720 0.22430 0.54200
I 	I 	0.26160 0.28510 0.19090 -0.23800
I 	I 	0.36270 0.33780 0.30270 -0.11000
I 	I 	0.46980 0.17400 0.37120 -0.05200
I 	I 	0.36790 0.22050 0.44440 -0.22000
I 	I 	0.61790 0.74320 0.07900 -1.62400
I 	I 	0.65740 0.56000 0.97250 -5.23900
I 	I 	0.10400 0.22350 0.10180 1.71600
Zn	Zn	0.13137 0.09477 0.05314 1.04200
N 	N 	0.08610 0.00480 0.05000 -0.30000
I 	I 	0.15180 0.11240 0.98260 6.06400
N 	N 	0.17410 0.03200 0.09840 -0.28500
C 	C 	0.19550 0.07570 0.13270 0.04800
C 	C 	0.18150 0.94650 0.09310 0.07000
C 	C 	0.22440 0.03520 0.16290 -0.11600
H 	H 	0.19060 0.13730 0.13630 -0.02200
C 	C 	0.20970 0.89940 0.12250 -0.09500
H 	H 	0.16690 0.91590 0.06820 0.06900
C 	C 	0.23160 0.94480 0.15820 0.04200
H 	H 	0.23930 0.06850 0.18660 0.08200
H 	H 	0.21380 0.83770 0.11810 0.09900
C 	C 	0.26240 0.90180 0.19030 0.09000
N 	N 	0.26850 0.81230 0.18580 -0.13500
N 	N 	0.28200 0.95150 0.22340 -0.14400
C 	C 	0.29660 0.77950 0.21530 0.11400
C 	C 	0.31040 0.91010 0.25080 0.10300
C 	C 	0.30290 0.68010 0.21680 0.06600
N 	N 	0.31930 0.82370 0.24760 -0.14200
C 	C 	0.33350 0.96170 0.28760 0.05000
C 	C 	0.28080 0.62200 0.18770 -0.11700
C 	C 	0.33140 0.64470 0.24910 -0.11700
C 	C 	0.32610 0.04930 0.29460 -0.12000
C 	C 	0.36380 0.92000 0.31630 -0.10400
C 	C 	0.28850 0.53300 0.19070 0.09900
H 	H 	0.26030 0.64390 0.16540 0.10200
C 	C 	0.33640 0.55290 0.25080 0.07600
H 	H 	0.34740 0.68220 0.27010 0.05900
C 	C 	0.34890 0.09350 0.33010 0.07000
H 	H 	0.30560 0.07950 0.27540 0.07400
C 	C 	0.38640 0.96960 0.34910 0.06700
H 	H 	0.36880 0.85830 0.31330 0.05300
N 	N 	0.31520 0.49840 0.22260 -0.27400
H 	H 	0.27400 0.49430 0.16910 0.00900
H 	H 	0.35610 0.52850 0.27340 -0.03100
N 	N 	0.37820 0.05470 0.35730 -0.26800
H 	H 	0.34320 0.15420 0.33510 -0.01200
H 	H 	0.40870 0.94260 0.36670 -0.02100
Zn	Zn	0.32830 0.36050 0.23060 0.60000
Zn	Zn	0.41725 0.12515 0.40471 1.15800
N 	N 	0.36250 0.34470 0.18200 -0.28700
I 	I 	0.37008 0.34010 0.30720 -0.25700
I 	I 	0.26673 0.26630 0.20620 -0.10900
I 	I 	0.47587 0.15350 0.36429 -0.29500
I 	I 	0.38037 0.23530 0.44499 -0.04000
N 	N 	0.43330 0.02080 0.44920 -0.27500
C 	C 	0.35910 0.27540 0.15570 0.11700
C 	C 	0.38740 0.40450 0.17270 0.13400
C 	C 	0.38290 0.25670 0.12510 -0.18500
H 	H 	0.33840 0.23480 0.15800 -0.03800
C 	C 	0.41290 0.38800 0.14340 -0.12900
H 	H 	0.38800 0.46120 0.18670 -0.00800
C 	C 	0.41120 0.31150 0.12020 0.07700
H 	H 	0.37900 0.20410 0.10740 0.05200
H 	H 	0.43200 0.43140 0.13940 0.10900
C 	C 	0.43690 0.29640 0.08570 0.02200
N 	N 	0.42980 0.22220 0.06080 -0.18100
N 	N 	0.46580 0.35430 0.08330 -0.13400
C 	C 	0.45330 0.21080 0.03000 0.05200
C 	C 	0.48780 0.33460 0.05280 0.06500
C 	C 	0.44770 0.13030 0.00200 0.05600
N 	N 	0.48270 0.26570 0.02360 -0.15200
C 	C 	0.52220 0.39380 0.05010 0.05200
C 	C 	0.41540 0.07540 0.00510 -0.11900
C 	C 	0.47220 0.10640 0.97300 -0.13400
C 	C 	0.54150 0.43270 0.08960 -0.15000
C 	C 	0.53730 0.40650 0.01230 -0.10900
C 	C 	0.41030 0.00230 0.97800 0.08400
H 	H 	0.39780 0.08860 0.02530 0.05900
H 	H 	0.49460 0.14170 0.97050 0.07000
C 	C 	0.46440 0.03180 0.94800 0.07900
C 	C 	0.57180 0.48860 0.08690 0.09400
H 	H 	0.53360 0.42040 0.11770 0.08800
C 	C 	0.56920 0.46310 0.01270 0.04700
H 	H 	0.52620 0.37680 0.98540 0.07000
H 	H 	0.38840 0.96500 0.98000 -0.00900
H 	H 	0.48210 0.01590 0.92830 -0.01500
H 	H 	0.58370 0.51820 0.11360 -0.07400
H 	H 	0.57930 0.47240 0.98560 0.06500
I 	I 	0.11510 0.23040 0.08770 -0.55900
I 	I 	0.15580 0.08350 0.97400 -0.92800
Zn	Zn	0.82230 0.86720 0.22430 0.54200
I 	I 	0.76160 0.78510 0.19090 -0.23800
I 	I 	0.86270 0.83780 0.30270 -0.11000
I 	I 	0.96980 0.67400 0.37120 -0.05100
I 	I 	0.86790 0.72050 0.44440 -0.22000
I 	I 	0.11790 0.24320 0.07900 -1.62100
I 	I 	0.15740 0.06000 0.97250 -5.22300
I 	I 	0.60400 0.27650 0.60180 1.72000
Zn	Zn	0.63137 0.40523 0.55314 1.04200
N 	N 	0.58610 0.49520 0.55000 -0.29900
I 	I 	0.65180 0.38760 0.48260 6.07800
N 	N 	0.67410 0.46800 0.59840 -0.28500
C 	C 	0.69550 0.42430 0.63270 0.04700
C 	C 	0.68150 0.55350 0.59310 0.06900
C 	C 	0.72440 0.46480 0.66290 -0.11500
H 	H 	0.69060 0.36270 0.63630 -0.02200
C 	C 	0.70970 0.60060 0.62250 -0.09400
H 	H 	0.66690 0.58410 0.56820 0.06900
C 	C 	0.73160 0.55520 0.65820 0.04100
H 	H 	0.73930 0.43150 0.68660 0.08200
H 	H 	0.71380 0.66230 0.61810 0.09900
C 	C 	0.76240 0.59820 0.69030 0.09000
N 	N 	0.76850 0.68770 0.68580 -0.13500
N 	N 	0.78200 0.54850 0.72340 -0.14400
C 	C 	0.79660 0.72050 0.71530 0.11500
C 	C 	0.81040 0.58990 0.75080 0.10400
C 	C 	0.80290 0.81990 0.71680 0.06600
N 	N 	0.81930 0.67630 0.74760 -0.14200
C 	C 	0.83350 0.53830 0.78760 0.04900
C 	C 	0.78080 0.87800 0.68770 -0.11600
C 	C 	0.83140 0.85530 0.74910 -0.11700
C 	C 	0.82610 0.45070 0.79460 -0.11900
C 	C 	0.86380 0.58000 0.81630 -0.10400
C 	C 	0.78850 0.96700 0.69070 0.09800
H 	H 	0.76030 0.85610 0.66540 0.10200
C 	C 	0.83640 0.94710 0.75080 0.07600
H 	H 	0.84740 0.81780 0.77010 0.05900
C 	C 	0.84890 0.40650 0.83010 0.07000
H 	H 	0.80560 0.42050 0.77540 0.07400
C 	C 	0.88640 0.53040 0.84910 0.06700
H 	H 	0.86880 0.64170 0.81330 0.05300
N 	N 	0.81520 0.00160 0.72260 -0.27400
H 	H 	0.77400 0.00570 0.66910 0.00900
H 	H 	0.85610 0.97150 0.77340 -0.03100
N 	N 	0.87820 0.44530 0.85730 -0.26700
H 	H 	0.84320 0.34580 0.83510 -0.01200
H 	H 	0.90870 0.55740 0.86670 -0.02100
Zn	Zn	0.82830 0.13950 0.73060 0.60000
Zn	Zn	0.91725 0.37485 0.90471 1.15800
N 	N 	0.86250 0.15530 0.68200 -0.28700
I 	I 	0.87008 0.15990 0.80720 -0.25700
I 	I 	0.76673 0.23370 0.70620 -0.10900
I 	I 	0.97587 0.34650 0.86429 -0.29500
I 	I 	0.88037 0.26470 0.94499 -0.03900
N 	N 	0.93330 0.47920 0.94920 -0.27500
C 	C 	0.85910 0.22460 0.65570 0.11700
C 	C 	0.88740 0.09550 0.67270 0.13400
C 	C 	0.88290 0.24330 0.62510 -0.18500
H 	H 	0.83840 0.26520 0.65800 -0.03800
C 	C 	0.91290 0.11200 0.64340 -0.12900
H 	H 	0.88800 0.03880 0.68670 -0.00900
C 	C 	0.91120 0.18850 0.62020 0.07800
H 	H 	0.87900 0.29590 0.60740 0.05200
H 	H 	0.93200 0.06860 0.63940 0.10900
C 	C 	0.93690 0.20360 0.58570 0.02200
N 	N 	0.92980 0.27780 0.56080 -0.18100
N 	N 	0.96580 0.14570 0.58330 -0.13400
C 	C 	0.95330 0.28920 0.53000 0.05200
C 	C 	0.98780 0.16540 0.55280 0.06500
C 	C 	0.94770 0.36970 0.50200 0.05600
N 	N 	0.98270 0.23430 0.52360 -0.15200
C 	C 	0.02220 0.10620 0.55010 0.05200
C 	C 	0.91540 0.42460 0.50510 -0.11700
C 	C 	0.97220 0.39360 0.47300 -0.13400
C 	C 	0.04150 0.06730 0.58960 -0.15000
C 	C 	0.03730 0.09350 0.51230 -0.10900
C 	C 	0.91030 0.49770 0.47800 0.08100
H 	H 	0.89780 0.41140 0.52530 0.05800
H 	H 	0.99460 0.35830 0.47050 0.07000
C 	C 	0.96440 0.46820 0.44800 0.07800
C 	C 	0.07180 0.01140 0.58690 0.09400
H 	H 	0.03360 0.07960 0.61770 0.08800
C 	C 	0.06920 0.03690 0.51270 0.04600
H 	H 	0.02620 0.12320 0.48540 0.07000
H 	H 	0.88840 0.53500 0.48000 -0.00700
H 	H 	0.98210 0.48410 0.42830 -0.01500
H 	H 	0.08370 0.98180 0.61360 -0.07500
H 	H 	0.07930 0.02760 0.48560 0.06400
I 	I 	0.61510 0.26960 0.58770 -0.56000
I 	I 	0.65580 0.41650 0.47400 -0.93000
Zn	Zn	0.32230 0.63280 0.72430 0.54200
I 	I 	0.26160 0.71490 0.69090 -0.23800
I 	I 	0.36270 0.66220 0.80270 -0.11000
I 	I 	0.46980 0.82600 0.87120 -0.05200
I 	I 	0.36790 0.77950 0.94440 -0.22000
I 	I 	0.61790 0.25680 0.57900 -1.62400
I 	I 	0.65740 0.44000 0.47250 -5.23500
I 	I 	0.10400 0.77650 0.60180 1.71600
Zn	Zn	0.13137 0.90523 0.55314 1.04200
N 	N 	0.08610 0.99520 0.55000 -0.29900
I 	I 	0.15180 0.88760 0.48260 6.06600
N 	N 	0.17410 0.96800 0.59840 -0.28500
C 	C 	0.19550 0.92430 0.63270 0.04700
C 	C 	0.18150 0.05350 0.59310 0.06900
C 	C 	0.22440 0.96480 0.66290 -0.11500
H 	H 	0.19060 0.86270 0.63630 -0.02200
C 	C 	0.20970 0.10060 0.62250 -0.09500
H 	H 	0.16690 0.08410 0.56820 0.06900
C 	C 	0.23160 0.05520 0.65820 0.04200
H 	H 	0.23930 0.93150 0.68660 0.08200
H 	H 	0.21380 0.16230 0.61810 0.09900
C 	C 	0.26240 0.09820 0.69030 0.09000
N 	N 	0.26850 0.18770 0.68580 -0.13500
N 	N 	0.28200 0.04850 0.72340 -0.14400
C 	C 	0.29660 0.22050 0.71530 0.11400
C 	C 	0.31040 0.08990 0.75080 0.10300
C 	C 	0.30290 0.31990 0.71680 0.06600
N 	N 	0.31930 0.17630 0.74760 -0.14200
C 	C 	0.33350 0.03830 0.78760 0.05000
C 	C 	0.28080 0.37800 0.68770 -0.11700
C 	C 	0.33140 0.35530 0.74910 -0.11700
C 	C 	0.32610 0.95070 0.79460 -0.12000
C 	C 	0.36380 0.08000 0.81630 -0.10400
C 	C 	0.28850 0.46700 0.69070 0.09900
H 	H 	0.26030 0.35610 0.66540 0.10200
C 	C 	0.33640 0.44710 0.75080 0.07600
H 	H 	0.34740 0.31780 0.77010 0.05900
C 	C 	0.34890 0.90650 0.83010 0.07000
H 	H 	0.30560 0.92050 0.77540 0.07400
C 	C 	0.38640 0.03040 0.84910 0.06700
H 	H 	0.36880 0.14170 0.81330 0.05400
N 	N 	0.31520 0.50160 0.72260 -0.27400
H 	H 	0.27400 0.50570 0.66910 0.00900
H 	H 	0.35610 0.47150 0.77340 -0.03100
N 	N 	0.37820 0.94530 0.85730 -0.26800
H 	H 	0.34320 0.84580 0.83510 -0.01200
H 	H 	0.40870 0.05740 0.86670 -0.02100
Zn	Zn	0.32830 0.63950 0.73060 0.60000
Zn	Zn	0.41725 0.87485 0.90471 1.15800
N 	N 	0.36250 0.65530 0.68200 -0.28700
I 	I 	0.37008 0.65990 0.80720 -0.25700
I 	I 	0.26673 0.73370 0.70620 -0.10900
I 	I 	0.47587 0.84650 0.86429 -0.29500
I 	I 	0.38037 0.76470 0.94499 -0.04000
N 	N 	0.43330 0.97920 0.94920 -0.27600
C 	C 	0.35910 0.72460 0.65570 0.11700
C 	C 	0.38740 0.59550 0.67270 0.13400
C 	C 	0.38290 0.74330 0.62510 -0.18500
H 	H 	0.33840 0.76520 0.65800 -0.03800
C 	C 	0.41290 0.61200 0.64340 -0.12900
H 	H 	0.38800 0.53880 0.68670 -0.00800
C 	C 	0.41120 0.68850 0.62020 0.07800
H 	H 	0.37900 0.79590 0.60740 0.05200
H 	H 	0.43200 0.56860 0.63940 0.10900
C 	C 	0.43690 0.70360 0.58570 0.02200
N 	N 	0.42980 0.77780 0.56080 -0.18100
N 	N 	0.46580 0.64570 0.58330 -0.13400
C 	C 	0.45330 0.78920 0.53000 0.05200
C 	C 	0.48780 0.66540 0.55280 0.06500
C 	C 	0.44770 0.86970 0.50200 0.05600
N 	N 	0.48270 0.73430 0.52360 -0.15200
C 	C 	0.52220 0.60620 0.55010 0.05200
C 	C 	0.41540 0.92460 0.50510 -0.11600
C 	C 	0.47220 0.89360 0.47300 -0.13400
C 	C 	0.54150 0.56730 0.58960 -0.15000
C 	C 	0.53730 0.59350 0.51230 -0.10800
C 	C 	0.41030 0.99770 0.47800 0.08000
H 	H 	0.39780 0.91140 0.52530 0.05800
H 	H 	0.49460 0.85830 0.47050 0.07000
C 	C 	0.46440 0.96820 0.44800 0.07800
C 	C 	0.57180 0.51140 0.58690 0.09400
H 	H 	0.53360 0.57960 0.61770 0.08800
C 	C 	0.56920 0.53690 0.51270 0.04600
H 	H 	0.52620 0.62320 0.48540 0.07000
H 	H 	0.38840 0.03500 0.48000 -0.00800
H 	H 	0.48210 0.98410 0.42830 -0.01500
H 	H 	0.58370 0.48180 0.61360 -0.07400
H 	H 	0.57930 0.52760 0.48560 0.06500
I 	I 	0.11510 0.76960 0.58770 -0.56000
I 	I 	0.15580 0.91650 0.47400 -0.92800
Zn	Zn	0.82230 0.13280 0.72430 0.54200
I 	I 	0.76160 0.21490 0.69090 -0.23800
I 	I 	0.86270 0.16220 0.80270 -0.11000
I 	I 	0.96980 0.32600 0.87120 -0.05100
I 	I 	0.86790 0.27950 0.94440 -0.22000
I 	I 	0.11790 0.75680 0.57900 -1.62100
I 	I 	0.15740 0.94000 0.47250 -5.22500
