data_crystal

_cell_length_a 36.81160
_cell_length_b 14.69740
_cell_length_c 30.69930
_cell_angle_alpha 90.00000
_cell_angle_beta  103.07000
_cell_angle_gamma 90.00000

_symmetry_space_group_name_	'P 1'
_symmetry_space_group_name_H-M	'P 1'

loop_
_symmetry_equiv_pos_as_xyz
  x,y,z

loop_
_atom_site_label
_atom_site_type_symbol
_atom_site_fract_x
_atom_site_fract_y
_atom_site_fract_z
_atom_site_charge
I 	I 	0.35982 0.60724 0.49890 -0.36800
Zn	Zn	0.38097 0.59965 0.42624 1.16600
I 	I 	0.39957 0.73548 0.38478 -0.38100
N 	N 	0.33845 0.53150 0.38240 -0.26800
N 	N 	0.42483 0.51090 0.43390 -0.27700
C 	C 	0.31640 0.57530 0.34800 0.06500
C 	C 	0.33130 0.44560 0.39020 0.06800
H 	H 	0.32190 0.63660 0.34210 -0.00400
C 	C 	0.28610 0.53420 0.32110 -0.11900
C 	C 	0.30130 0.39840 0.36380 -0.11500
H 	H 	0.34720 0.41490 0.41440 -0.00200
H 	H 	0.27070 0.56700 0.29720 0.08900
C 	C 	0.27799 0.44380 0.32910 0.04200
H 	H 	0.29700 0.33640 0.36980 0.08000
C 	C 	0.24510 0.39930 0.30040 0.08900
N 	N 	0.22368 0.45130 0.26900 -0.14100
N 	N 	0.23838 0.31160 0.30848 -0.14000
C 	C 	0.19250 0.41190 0.24630 0.10300
C 	C 	0.20760 0.27820 0.28130 0.10400
C 	C 	0.16660 0.46640 0.21240 0.05300
N 	N 	0.18327 0.32570 0.25120 -0.13800
C 	C 	0.19891 0.17960 0.28390 0.05400
C 	C 	0.17530 0.55350 0.20030 -0.12600
C 	C 	0.13210 0.42950 0.19240 -0.11500
C 	C 	0.22350 0.11910 0.31040 -0.12200
C 	C 	0.16660 0.14480 0.25680 -0.11800
C 	C 	0.14990 0.59940 0.16730 0.07100
H 	H 	0.19820 0.58120 0.21440 0.07700
H 	H 	0.12520 0.37070 0.20040 0.09000
C 	C 	0.10830 0.48060 0.16050 0.06500
C 	C 	0.21420 0.02760 0.30800 0.07300
H 	H 	0.24590 0.13990 0.32950 0.07800
H 	H 	0.14940 0.18450 0.23830 0.08300
C 	C 	0.15930 0.05360 0.25660 0.06000
N 	N 	0.11742 0.56350 0.14760 -0.27100
H 	H 	0.15610 0.65840 0.15850 -0.01500
H 	H 	0.08440 0.45640 0.14710 -0.00900
N 	N 	0.18323 0.99460 0.28180 -0.27300
H 	H 	0.23090 0.98620 0.32620 -0.01300
H 	H 	0.13680 0.03120 0.23820 -0.01500
Zn	Zn	0.07746 0.62677 0.09806 1.15800
Zn	Zn	0.16959 0.85710 0.27594 1.15700
I 	I 	0.02060 0.65900 0.12890 -0.16000
I 	I 	0.10740 0.74600 0.05850 -0.16600
N 	N 	0.06742 0.51500 0.05460 -0.26900
N 	N 	0.13991 0.84210 0.32470 -0.28100
I 	I 	0.12079 0.83501 0.20039 -0.34800
I 	I 	0.22729 0.75860 0.29347 -0.10500
C 	C 	0.11170 0.89670 0.32590 0.08300
C 	C 	0.14700 0.77570 0.35560 0.07200
C 	C 	0.08760 0.88420 0.35410 -0.12700
H 	H 	0.10760 0.94750 0.30630 -0.02200
H 	H 	0.16840 0.73850 0.35700 -0.01400
C 	C 	0.12490 0.75920 0.38520 -0.12100
H 	H 	0.06700 0.92380 0.35270 0.08600
C 	C 	0.09410 0.81340 0.38400 0.07000
H 	H 	0.13070 0.71100 0.40620 0.08600
C 	C 	0.06870 0.79700 0.41450 0.10600
N 	N 	0.07510 0.72450 0.44150 -0.13400
N 	N 	0.04095 0.85680 0.41300 -0.13500
C 	C 	0.05310 0.71690 0.46980 0.09200
C 	C 	0.01994 0.84140 0.44190 0.09400
C 	C 	0.05800 0.63640 0.49980 0.04600
N 	N 	0.02541 0.77510 0.47270 -0.14800
C 	C 	0.98729 0.90030 0.44000 0.04800
C 	C 	0.03080 0.61200 0.52240 -0.11400
C 	C 	0.09020 0.58430 0.50560 -0.11500
C 	C 	0.97110 0.91180 0.47600 -0.12500
C 	C 	0.97110 0.94440 0.40050 -0.12200
H 	H 	0.00870 0.64700 0.51930 0.06800
C 	C 	0.03660 0.53600 0.54940 0.06600
C 	C 	0.09350 0.50860 0.53300 0.06800
H 	H 	0.10960 0.60030 0.49100 0.07800
H 	H 	0.98080 0.88130 0.50340 0.07900
C 	C 	0.94030 0.96860 0.47150 0.07900
H 	H 	0.98110 0.93790 0.37470 0.08400
C 	C 	0.94000 0.99790 0.39920 0.07400
H 	H 	0.01810 0.51920 0.56500 -0.01000
H 	H 	0.11520 0.47200 0.53650 -0.01600
H 	H 	0.92980 0.97750 0.49670 -0.00700
H 	H 	0.92890 0.02710 0.37180 -0.01600
I 	I 	0.02058 0.64450 0.13063 -0.16000
I 	I 	0.10972 0.74110 0.05806 -0.17200
I 	I 	0.62910 0.33960 0.20890 -0.04700
I 	I 	0.73380 0.26860 0.30350 -0.22800
I 	I 	0.85982 0.10724 0.49890 -0.36900
Zn	Zn	0.88097 0.09965 0.42624 1.16500
I 	I 	0.89957 0.23548 0.38478 -0.38200
N 	N 	0.83845 0.03150 0.38240 -0.26900
N 	N 	0.92483 0.01090 0.43390 -0.27800
C 	C 	0.81640 0.07530 0.34800 0.06400
C 	C 	0.83130 0.94560 0.39020 0.06700
H 	H 	0.82190 0.13660 0.34210 -0.00500
C 	C 	0.78610 0.03420 0.32110 -0.12000
C 	C 	0.80130 0.89840 0.36380 -0.11600
H 	H 	0.84720 0.91490 0.41440 -0.00300
H 	H 	0.77070 0.06700 0.29720 0.08800
C 	C 	0.77799 0.94380 0.32910 0.04100
H 	H 	0.79700 0.83640 0.36980 0.07900
C 	C 	0.74510 0.89930 0.30040 0.08900
N 	N 	0.72368 0.95130 0.26900 -0.14100
N 	N 	0.73838 0.81160 0.30848 -0.14000
C 	C 	0.69250 0.91190 0.24630 0.10300
C 	C 	0.70760 0.77820 0.28130 0.10400
C 	C 	0.66660 0.96640 0.21240 0.05300
N 	N 	0.68327 0.82570 0.25120 -0.13800
C 	C 	0.69891 0.67960 0.28390 0.05400
C 	C 	0.67530 0.05350 0.20030 -0.12600
C 	C 	0.63210 0.92950 0.19240 -0.11500
C 	C 	0.72350 0.61910 0.31040 -0.12200
C 	C 	0.66660 0.64480 0.25680 -0.11800
C 	C 	0.64990 0.09940 0.16730 0.07100
H 	H 	0.69820 0.08120 0.21440 0.07700
H 	H 	0.62520 0.87070 0.20040 0.09000
C 	C 	0.60830 0.98060 0.16050 0.06500
C 	C 	0.71420 0.52760 0.30800 0.07300
H 	H 	0.74590 0.63990 0.32950 0.07800
H 	H 	0.64940 0.68450 0.23830 0.08300
C 	C 	0.65930 0.55360 0.25660 0.06000
N 	N 	0.61742 0.06350 0.14760 -0.27100
H 	H 	0.65610 0.15840 0.15850 -0.01500
H 	H 	0.58440 0.95640 0.14710 -0.00900
N 	N 	0.68323 0.49460 0.28180 -0.27300
H 	H 	0.73090 0.48620 0.32620 -0.01300
H 	H 	0.63680 0.53120 0.23820 -0.01500
Zn	Zn	0.57746 0.12677 0.09806 1.15800
Zn	Zn	0.66959 0.35710 0.27594 1.15700
I 	I 	0.52060 0.15900 0.12890 -0.16000
I 	I 	0.60740 0.24600 0.05850 -0.16600
N 	N 	0.56742 0.01500 0.05460 -0.26900
N 	N 	0.63991 0.34210 0.32470 -0.28100
I 	I 	0.62079 0.33501 0.20039 -0.34800
I 	I 	0.72729 0.25860 0.29347 -0.10500
C 	C 	0.61170 0.39670 0.32590 0.08300
C 	C 	0.64700 0.27570 0.35560 0.07200
C 	C 	0.58760 0.38420 0.35410 -0.12700
H 	H 	0.60760 0.44750 0.30630 -0.02200
H 	H 	0.66840 0.23850 0.35700 -0.01400
C 	C 	0.62490 0.25920 0.38520 -0.12100
H 	H 	0.56700 0.42380 0.35270 0.08600
C 	C 	0.59410 0.31340 0.38400 0.07000
H 	H 	0.63070 0.21100 0.40620 0.08600
C 	C 	0.56870 0.29700 0.41450 0.10600
N 	N 	0.57510 0.22450 0.44150 -0.13400
N 	N 	0.54095 0.35680 0.41300 -0.13500
C 	C 	0.55310 0.21690 0.46980 0.09200
C 	C 	0.51994 0.34140 0.44190 0.09400
C 	C 	0.55800 0.13640 0.49980 0.04600
N 	N 	0.52541 0.27510 0.47270 -0.14800
C 	C 	0.48729 0.40030 0.44000 0.04800
C 	C 	0.53080 0.11200 0.52240 -0.11400
C 	C 	0.59020 0.08430 0.50560 -0.11500
C 	C 	0.47110 0.41180 0.47600 -0.12500
C 	C 	0.47110 0.44440 0.40050 -0.12200
H 	H 	0.50870 0.14700 0.51930 0.06800
C 	C 	0.53660 0.03600 0.54940 0.06600
C 	C 	0.59350 0.00860 0.53300 0.06800
H 	H 	0.60960 0.10030 0.49100 0.07800
H 	H 	0.48080 0.38130 0.50340 0.07900
C 	C 	0.44030 0.46860 0.47150 0.07900
H 	H 	0.48110 0.43790 0.37470 0.08400
C 	C 	0.44000 0.49790 0.39920 0.07400
H 	H 	0.51810 0.01920 0.56500 -0.01000
H 	H 	0.61520 0.97200 0.53650 -0.01600
H 	H 	0.42980 0.47750 0.49670 -0.00700
H 	H 	0.42890 0.52710 0.37180 -0.01600
I 	I 	0.52058 0.14450 0.13063 -0.16000
I 	I 	0.60972 0.24110 0.05806 -0.17200
I 	I 	0.12910 0.83960 0.20890 -0.04700
I 	I 	0.23380 0.76860 0.30350 -0.22800
I 	I 	0.35982 0.39276 0.99890 -0.36900
Zn	Zn	0.38097 0.40035 0.92624 1.16500
I 	I 	0.39957 0.26452 0.88478 -0.38200
N 	N 	0.33845 0.46850 0.88240 -0.26900
N 	N 	0.42483 0.48910 0.93390 -0.27800
C 	C 	0.31640 0.42470 0.84800 0.06400
C 	C 	0.33130 0.55440 0.89020 0.06700
H 	H 	0.32190 0.36340 0.84210 -0.00500
C 	C 	0.28610 0.46580 0.82110 -0.12000
C 	C 	0.30130 0.60160 0.86380 -0.11600
H 	H 	0.34720 0.58510 0.91440 -0.00300
H 	H 	0.27070 0.43300 0.79720 0.08800
C 	C 	0.27799 0.55620 0.82910 0.04100
H 	H 	0.29700 0.66360 0.86980 0.07900
C 	C 	0.24510 0.60070 0.80040 0.08900
N 	N 	0.22368 0.54870 0.76900 -0.14100
N 	N 	0.23838 0.68840 0.80848 -0.14000
C 	C 	0.19250 0.58810 0.74630 0.10300
C 	C 	0.20760 0.72180 0.78130 0.10400
C 	C 	0.16660 0.53360 0.71240 0.05300
N 	N 	0.18327 0.67430 0.75120 -0.13800
C 	C 	0.19891 0.82040 0.78390 0.05400
C 	C 	0.17530 0.44650 0.70030 -0.12600
C 	C 	0.13210 0.57050 0.69240 -0.11500
C 	C 	0.22350 0.88090 0.81040 -0.12200
C 	C 	0.16660 0.85520 0.75680 -0.11800
C 	C 	0.14990 0.40060 0.66730 0.07100
H 	H 	0.19820 0.41880 0.71440 0.07700
H 	H 	0.12520 0.62930 0.70040 0.09000
C 	C 	0.10830 0.51940 0.66050 0.06500
C 	C 	0.21420 0.97240 0.80800 0.07300
H 	H 	0.24590 0.86010 0.82950 0.07800
H 	H 	0.14940 0.81550 0.73830 0.08300
C 	C 	0.15930 0.94640 0.75660 0.06000
N 	N 	0.11742 0.43650 0.64760 -0.27100
H 	H 	0.15610 0.34160 0.65850 -0.01500
H 	H 	0.08440 0.54360 0.64710 -0.00900
N 	N 	0.18323 0.00540 0.78180 -0.27300
H 	H 	0.23090 0.01380 0.82620 -0.01300
H 	H 	0.13680 0.96880 0.73820 -0.01500
Zn	Zn	0.07746 0.37323 0.59806 1.15800
Zn	Zn	0.16959 0.14290 0.77594 1.15700
I 	I 	0.02060 0.34100 0.62890 -0.16000
I 	I 	0.10740 0.25400 0.55850 -0.16600
N 	N 	0.06742 0.48500 0.55460 -0.26900
N 	N 	0.13991 0.15790 0.82470 -0.28100
I 	I 	0.12079 0.16499 0.70039 -0.34800
I 	I 	0.22729 0.24140 0.79347 -0.10500
C 	C 	0.11170 0.10330 0.82590 0.08300
C 	C 	0.14700 0.22430 0.85560 0.07200
C 	C 	0.08760 0.11580 0.85410 -0.12700
H 	H 	0.10760 0.05250 0.80630 -0.02200
H 	H 	0.16840 0.26150 0.85700 -0.01400
C 	C 	0.12490 0.24080 0.88520 -0.12100
H 	H 	0.06700 0.07620 0.85270 0.08600
C 	C 	0.09410 0.18660 0.88400 0.07000
H 	H 	0.13070 0.28900 0.90620 0.08600
C 	C 	0.06870 0.20300 0.91450 0.10600
N 	N 	0.07510 0.27550 0.94150 -0.13400
N 	N 	0.04095 0.14320 0.91300 -0.13500
C 	C 	0.05310 0.28310 0.96980 0.09200
C 	C 	0.01994 0.15860 0.94190 0.09400
C 	C 	0.05800 0.36360 0.99980 0.04500
N 	N 	0.02541 0.22490 0.97270 -0.14800
C 	C 	0.98729 0.09970 0.94000 0.04800
C 	C 	0.03080 0.38800 0.02240 -0.11400
C 	C 	0.09020 0.41570 0.00560 -0.11400
C 	C 	0.97110 0.08820 0.97600 -0.12400
C 	C 	0.97110 0.05560 0.90050 -0.12200
H 	H 	0.00870 0.35300 0.01930 0.06800
C 	C 	0.03660 0.46400 0.04940 0.06600
C 	C 	0.09350 0.49140 0.03300 0.06800
H 	H 	0.10960 0.39970 0.99100 0.07800
H 	H 	0.98080 0.11870 0.00340 0.07900
C 	C 	0.94030 0.03140 0.97150 0.07900
H 	H 	0.98110 0.06210 0.87470 0.08400
C 	C 	0.94000 0.00210 0.89920 0.07400
H 	H 	0.01810 0.48080 0.06500 -0.01000
H 	H 	0.11520 0.52800 0.03650 -0.01600
H 	H 	0.92980 0.02250 0.99670 -0.00700
H 	H 	0.92890 0.97290 0.87180 -0.01600
I 	I 	0.02058 0.35550 0.63063 -0.16000
I 	I 	0.10972 0.25890 0.55806 -0.17200
I 	I 	0.62910 0.66040 0.70890 -0.04700
I 	I 	0.73380 0.73140 0.80350 -0.22800
I 	I 	0.85982 0.89276 0.99890 -0.36900
Zn	Zn	0.88097 0.90035 0.92624 1.16500
I 	I 	0.89957 0.76452 0.88478 -0.38200
N 	N 	0.83845 0.96850 0.88240 -0.26900
N 	N 	0.92483 0.98910 0.93390 -0.27800
C 	C 	0.81640 0.92470 0.84800 0.06400
C 	C 	0.83130 0.05440 0.89020 0.06700
H 	H 	0.82190 0.86340 0.84210 -0.00500
C 	C 	0.78610 0.96580 0.82110 -0.12000
C 	C 	0.80130 0.10160 0.86380 -0.11600
H 	H 	0.84720 0.08510 0.91440 -0.00300
H 	H 	0.77070 0.93300 0.79720 0.08800
C 	C 	0.77799 0.05620 0.82910 0.04100
H 	H 	0.79700 0.16360 0.86980 0.07900
C 	C 	0.74510 0.10070 0.80040 0.08900
N 	N 	0.72368 0.04870 0.76900 -0.14100
N 	N 	0.73838 0.18840 0.80848 -0.14000
C 	C 	0.69250 0.08810 0.74630 0.10300
C 	C 	0.70760 0.22180 0.78130 0.10400
C 	C 	0.66660 0.03360 0.71240 0.05300
N 	N 	0.68327 0.17430 0.75120 -0.13800
C 	C 	0.69891 0.32040 0.78390 0.05400
C 	C 	0.67530 0.94650 0.70030 -0.12600
C 	C 	0.63210 0.07050 0.69240 -0.11500
C 	C 	0.72350 0.38090 0.81040 -0.12200
C 	C 	0.66660 0.35520 0.75680 -0.11800
C 	C 	0.64990 0.90060 0.66730 0.07100
H 	H 	0.69820 0.91880 0.71440 0.07700
H 	H 	0.62520 0.12930 0.70040 0.09000
C 	C 	0.60830 0.01940 0.66050 0.06500
C 	C 	0.71420 0.47240 0.80800 0.07300
H 	H 	0.74590 0.36010 0.82950 0.07800
H 	H 	0.64940 0.31550 0.73830 0.08300
C 	C 	0.65930 0.44640 0.75660 0.06000
N 	N 	0.61742 0.93650 0.64760 -0.27100
H 	H 	0.65610 0.84160 0.65850 -0.01500
H 	H 	0.58440 0.04360 0.64710 -0.00900
N 	N 	0.68323 0.50540 0.78180 -0.27300
H 	H 	0.73090 0.51380 0.82620 -0.01300
H 	H 	0.63680 0.46880 0.73820 -0.01500
Zn	Zn	0.57746 0.87323 0.59806 1.15800
Zn	Zn	0.66959 0.64290 0.77594 1.15700
I 	I 	0.52060 0.84100 0.62890 -0.16000
I 	I 	0.60740 0.75400 0.55850 -0.16600
N 	N 	0.56742 0.98500 0.55460 -0.26900
N 	N 	0.63991 0.65790 0.82470 -0.28100
I 	I 	0.62079 0.66499 0.70039 -0.34800
I 	I 	0.72729 0.74140 0.79347 -0.10500
C 	C 	0.61170 0.60330 0.82590 0.08300
C 	C 	0.64700 0.72430 0.85560 0.07200
C 	C 	0.58760 0.61580 0.85410 -0.12700
H 	H 	0.60760 0.55250 0.80630 -0.02200
H 	H 	0.66840 0.76150 0.85700 -0.01400
C 	C 	0.62490 0.74080 0.88520 -0.12100
H 	H 	0.56700 0.57620 0.85270 0.08600
C 	C 	0.59410 0.68660 0.88400 0.07000
H 	H 	0.63070 0.78900 0.90620 0.08600
C 	C 	0.56870 0.70300 0.91450 0.10600
N 	N 	0.57510 0.77550 0.94150 -0.13400
N 	N 	0.54095 0.64320 0.91300 -0.13500
C 	C 	0.55310 0.78310 0.96980 0.09200
C 	C 	0.51994 0.65860 0.94190 0.09400
C 	C 	0.55800 0.86360 0.99980 0.04600
N 	N 	0.52541 0.72490 0.97270 -0.14800
C 	C 	0.48729 0.59970 0.94000 0.04800
C 	C 	0.53080 0.88800 0.02240 -0.11400
C 	C 	0.59020 0.91570 0.00560 -0.11500
C 	C 	0.47110 0.58820 0.97600 -0.12500
C 	C 	0.47110 0.55560 0.90050 -0.12200
H 	H 	0.50870 0.85300 0.01930 0.06800
C 	C 	0.53660 0.96400 0.04940 0.06600
C 	C 	0.59350 0.99140 0.03300 0.06800
H 	H 	0.60960 0.89970 0.99100 0.07800
H 	H 	0.48080 0.61870 0.00340 0.07900
C 	C 	0.44030 0.53140 0.97150 0.07900
H 	H 	0.48110 0.56210 0.87470 0.08400
C 	C 	0.44000 0.50210 0.89920 0.07400
H 	H 	0.51810 0.98080 0.06500 -0.01000
H 	H 	0.61520 0.02800 0.03650 -0.01600
H 	H 	0.42980 0.52250 0.99670 -0.00700
H 	H 	0.42890 0.47290 0.87180 -0.01600
I 	I 	0.52058 0.85550 0.63063 -0.16000
I 	I 	0.60972 0.75890 0.55806 -0.17200
I 	I 	0.12910 0.16040 0.70890 -0.04700
I 	I 	0.23380 0.23140 0.80350 -0.22800
I 	I 	0.64018 0.60724 0.00110 -0.36900
Zn	Zn	0.61903 0.59965 0.07376 1.16500
I 	I 	0.60043 0.73548 0.11522 -0.38200
N 	N 	0.66155 0.53150 0.11760 -0.26900
N 	N 	0.57517 0.51090 0.06610 -0.27800
C 	C 	0.68360 0.57530 0.15200 0.06400
C 	C 	0.66870 0.44560 0.10980 0.06700
H 	H 	0.67810 0.63660 0.15790 -0.00500
C 	C 	0.71390 0.53420 0.17890 -0.12000
C 	C 	0.69870 0.39840 0.13620 -0.11600
H 	H 	0.65280 0.41490 0.08560 -0.00300
H 	H 	0.72930 0.56700 0.20280 0.08800
C 	C 	0.72201 0.44380 0.17090 0.04100
H 	H 	0.70300 0.33640 0.13020 0.07900
C 	C 	0.75490 0.39930 0.19960 0.08900
N 	N 	0.77632 0.45130 0.23100 -0.14100
N 	N 	0.76162 0.31160 0.19152 -0.14000
C 	C 	0.80750 0.41190 0.25370 0.10300
C 	C 	0.79240 0.27820 0.21870 0.10400
C 	C 	0.83340 0.46640 0.28760 0.05300
N 	N 	0.81673 0.32570 0.24880 -0.13800
C 	C 	0.80109 0.17960 0.21610 0.05400
C 	C 	0.82470 0.55350 0.29970 -0.12600
C 	C 	0.86790 0.42950 0.30760 -0.11500
C 	C 	0.77650 0.11910 0.18960 -0.12200
C 	C 	0.83340 0.14480 0.24320 -0.11800
C 	C 	0.85010 0.59940 0.33270 0.07100
H 	H 	0.80180 0.58120 0.28560 0.07700
H 	H 	0.87480 0.37070 0.29960 0.09000
C 	C 	0.89170 0.48060 0.33950 0.06500
C 	C 	0.78580 0.02760 0.19200 0.07300
H 	H 	0.75410 0.13990 0.17050 0.07800
H 	H 	0.85060 0.18450 0.26170 0.08300
C 	C 	0.84070 0.05360 0.24340 0.06000
N 	N 	0.88258 0.56350 0.35240 -0.27100
H 	H 	0.84390 0.65840 0.34150 -0.01500
H 	H 	0.91560 0.45640 0.35290 -0.00900
N 	N 	0.81677 0.99460 0.21820 -0.27300
H 	H 	0.76910 0.98620 0.17380 -0.01300
H 	H 	0.86320 0.03120 0.26180 -0.01500
Zn	Zn	0.92254 0.62677 0.40194 1.15800
Zn	Zn	0.83041 0.85710 0.22406 1.15700
I 	I 	0.97940 0.65900 0.37110 -0.16000
I 	I 	0.89260 0.74600 0.44150 -0.16600
N 	N 	0.93258 0.51500 0.44540 -0.26900
N 	N 	0.86009 0.84210 0.17530 -0.28100
I 	I 	0.87921 0.83501 0.29961 -0.34800
I 	I 	0.77271 0.75860 0.20653 -0.10500
C 	C 	0.88830 0.89670 0.17410 0.08300
C 	C 	0.85300 0.77570 0.14440 0.07200
C 	C 	0.91240 0.88420 0.14590 -0.12700
H 	H 	0.89240 0.94750 0.19370 -0.02200
H 	H 	0.83160 0.73850 0.14300 -0.01400
C 	C 	0.87510 0.75920 0.11480 -0.12100
H 	H 	0.93300 0.92380 0.14730 0.08600
C 	C 	0.90590 0.81340 0.11600 0.07000
H 	H 	0.86930 0.71100 0.09380 0.08600
C 	C 	0.93130 0.79700 0.08550 0.10600
N 	N 	0.92490 0.72450 0.05850 -0.13400
N 	N 	0.95905 0.85680 0.08700 -0.13500
C 	C 	0.94690 0.71690 0.03020 0.09200
C 	C 	0.98006 0.84140 0.05810 0.09400
C 	C 	0.94200 0.63640 0.00020 0.04500
N 	N 	0.97459 0.77510 0.02730 -0.14800
C 	C 	0.01271 0.90030 0.06000 0.04800
C 	C 	0.96920 0.61200 0.97760 -0.11400
C 	C 	0.90980 0.58430 0.99440 -0.11400
C 	C 	0.02890 0.91180 0.02400 -0.12400
C 	C 	0.02890 0.94440 0.09950 -0.12200
H 	H 	0.99130 0.64700 0.98070 0.06800
C 	C 	0.96340 0.53600 0.95060 0.06600
C 	C 	0.90650 0.50860 0.96700 0.06800
H 	H 	0.89040 0.60030 0.00900 0.07800
H 	H 	0.01920 0.88130 0.99660 0.07900
C 	C 	0.05970 0.96860 0.02850 0.07900
H 	H 	0.01890 0.93790 0.12530 0.08400
C 	C 	0.06000 0.99790 0.10080 0.07400
H 	H 	0.98190 0.51920 0.93500 -0.01000
H 	H 	0.88480 0.47200 0.96350 -0.01600
H 	H 	0.07020 0.97750 0.00330 -0.00700
H 	H 	0.07110 0.02710 0.12820 -0.01600
I 	I 	0.97942 0.64450 0.36937 -0.16000
I 	I 	0.89028 0.74110 0.44194 -0.17200
I 	I 	0.37090 0.33960 0.29110 -0.04700
I 	I 	0.26620 0.26860 0.19650 -0.22800
I 	I 	0.14018 0.10724 0.00110 -0.36900
Zn	Zn	0.11903 0.09965 0.07376 1.16500
I 	I 	0.10043 0.23548 0.11522 -0.38200
N 	N 	0.16155 0.03150 0.11760 -0.26900
N 	N 	0.07517 0.01090 0.06610 -0.27800
C 	C 	0.18360 0.07530 0.15200 0.06400
C 	C 	0.16870 0.94560 0.10980 0.06700
H 	H 	0.17810 0.13660 0.15790 -0.00500
C 	C 	0.21390 0.03420 0.17890 -0.12000
C 	C 	0.19870 0.89840 0.13620 -0.11600
H 	H 	0.15280 0.91490 0.08560 -0.00300
H 	H 	0.22930 0.06700 0.20280 0.08800
C 	C 	0.22201 0.94380 0.17090 0.04100
H 	H 	0.20300 0.83640 0.13020 0.07900
C 	C 	0.25490 0.89930 0.19960 0.08900
N 	N 	0.27632 0.95130 0.23100 -0.14100
N 	N 	0.26162 0.81160 0.19152 -0.14000
C 	C 	0.30750 0.91190 0.25370 0.10300
C 	C 	0.29240 0.77820 0.21870 0.10400
C 	C 	0.33340 0.96640 0.28760 0.05300
N 	N 	0.31673 0.82570 0.24880 -0.13800
C 	C 	0.30109 0.67960 0.21610 0.05400
C 	C 	0.32470 0.05350 0.29970 -0.12600
C 	C 	0.36790 0.92950 0.30760 -0.11500
C 	C 	0.27650 0.61910 0.18960 -0.12200
C 	C 	0.33340 0.64480 0.24320 -0.11800
C 	C 	0.35010 0.09940 0.33270 0.07100
H 	H 	0.30180 0.08120 0.28560 0.07700
H 	H 	0.37480 0.87070 0.29960 0.09000
C 	C 	0.39170 0.98060 0.33950 0.06500
C 	C 	0.28580 0.52760 0.19200 0.07300
H 	H 	0.25410 0.63990 0.17050 0.07800
H 	H 	0.35060 0.68450 0.26170 0.08300
C 	C 	0.34070 0.55360 0.24340 0.06000
N 	N 	0.38258 0.06350 0.35240 -0.27100
H 	H 	0.34390 0.15840 0.34150 -0.01500
H 	H 	0.41560 0.95640 0.35290 -0.00900
N 	N 	0.31677 0.49460 0.21820 -0.27300
H 	H 	0.26910 0.48620 0.17380 -0.01300
H 	H 	0.36320 0.53120 0.26180 -0.01500
Zn	Zn	0.42254 0.12677 0.40194 1.15800
Zn	Zn	0.33041 0.35710 0.22406 1.15700
I 	I 	0.47940 0.15900 0.37110 -0.16000
I 	I 	0.39260 0.24600 0.44150 -0.16600
N 	N 	0.43258 0.01500 0.44540 -0.26900
N 	N 	0.36009 0.34210 0.17530 -0.28100
I 	I 	0.37921 0.33501 0.29961 -0.34800
I 	I 	0.27271 0.25860 0.20653 -0.10500
C 	C 	0.38830 0.39670 0.17410 0.08300
C 	C 	0.35300 0.27570 0.14440 0.07200
C 	C 	0.41240 0.38420 0.14590 -0.12700
H 	H 	0.39240 0.44750 0.19370 -0.02200
H 	H 	0.33160 0.23850 0.14300 -0.01400
C 	C 	0.37510 0.25920 0.11480 -0.12100
H 	H 	0.43300 0.42380 0.14730 0.08600
C 	C 	0.40590 0.31340 0.11600 0.07000
H 	H 	0.36930 0.21100 0.09380 0.08600
C 	C 	0.43130 0.29700 0.08550 0.10600
N 	N 	0.42490 0.22450 0.05850 -0.13400
N 	N 	0.45905 0.35680 0.08700 -0.13500
C 	C 	0.44690 0.21690 0.03020 0.09200
C 	C 	0.48006 0.34140 0.05810 0.09400
C 	C 	0.44200 0.13640 0.00020 0.04600
N 	N 	0.47459 0.27510 0.02730 -0.14800
C 	C 	0.51271 0.40030 0.06000 0.04800
C 	C 	0.46920 0.11200 0.97760 -0.11400
C 	C 	0.40980 0.08430 0.99440 -0.11500
C 	C 	0.52890 0.41180 0.02400 -0.12500
C 	C 	0.52890 0.44440 0.09950 -0.12200
H 	H 	0.49130 0.14700 0.98070 0.06800
C 	C 	0.46340 0.03600 0.95060 0.06600
C 	C 	0.40650 0.00860 0.96700 0.06800
H 	H 	0.39040 0.10030 0.00900 0.07800
H 	H 	0.51920 0.38130 0.99660 0.07900
C 	C 	0.55970 0.46860 0.02850 0.07900
H 	H 	0.51890 0.43790 0.12530 0.08400
C 	C 	0.56000 0.49790 0.10080 0.07400
H 	H 	0.48190 0.01920 0.93500 -0.01000
H 	H 	0.38480 0.97200 0.96350 -0.01600
H 	H 	0.57020 0.47750 0.00330 -0.00700
H 	H 	0.57110 0.52710 0.12820 -0.01600
I 	I 	0.47942 0.14450 0.36937 -0.16000
I 	I 	0.39028 0.24110 0.44194 -0.17200
I 	I 	0.87090 0.83960 0.29110 -0.04700
I 	I 	0.76620 0.76860 0.19650 -0.22800
I 	I 	0.64018 0.39276 0.50110 -0.36900
Zn	Zn	0.61903 0.40035 0.57376 1.16500
I 	I 	0.60043 0.26452 0.61522 -0.38200
N 	N 	0.66155 0.46850 0.61760 -0.26900
N 	N 	0.57517 0.48910 0.56610 -0.27800
C 	C 	0.68360 0.42470 0.65200 0.06400
C 	C 	0.66870 0.55440 0.60980 0.06700
H 	H 	0.67810 0.36340 0.65790 -0.00500
C 	C 	0.71390 0.46580 0.67890 -0.12000
C 	C 	0.69870 0.60160 0.63620 -0.11600
H 	H 	0.65280 0.58510 0.58560 -0.00300
H 	H 	0.72930 0.43300 0.70280 0.08800
C 	C 	0.72201 0.55620 0.67090 0.04100
H 	H 	0.70300 0.66360 0.63020 0.07900
C 	C 	0.75490 0.60070 0.69960 0.08900
N 	N 	0.77632 0.54870 0.73100 -0.14100
N 	N 	0.76162 0.68840 0.69152 -0.14000
C 	C 	0.80750 0.58810 0.75370 0.10300
C 	C 	0.79240 0.72180 0.71870 0.10400
C 	C 	0.83340 0.53360 0.78760 0.05300
N 	N 	0.81673 0.67430 0.74880 -0.13800
C 	C 	0.80109 0.82040 0.71610 0.05400
C 	C 	0.82470 0.44650 0.79970 -0.12600
C 	C 	0.86790 0.57050 0.80760 -0.11500
C 	C 	0.77650 0.88090 0.68960 -0.12200
C 	C 	0.83340 0.85520 0.74320 -0.11800
C 	C 	0.85010 0.40060 0.83270 0.07100
H 	H 	0.80180 0.41880 0.78560 0.07700
H 	H 	0.87480 0.62930 0.79960 0.09000
C 	C 	0.89170 0.51940 0.83950 0.06500
C 	C 	0.78580 0.97240 0.69200 0.07300
H 	H 	0.75410 0.86010 0.67050 0.07800
H 	H 	0.85060 0.81550 0.76170 0.08300
C 	C 	0.84070 0.94640 0.74340 0.06000
N 	N 	0.88258 0.43650 0.85240 -0.27100
H 	H 	0.84390 0.34160 0.84150 -0.01500
H 	H 	0.91560 0.54360 0.85290 -0.00900
N 	N 	0.81677 0.00540 0.71820 -0.27300
H 	H 	0.76910 0.01380 0.67380 -0.01300
H 	H 	0.86320 0.96880 0.76180 -0.01500
Zn	Zn	0.92254 0.37323 0.90194 1.15800
Zn	Zn	0.83041 0.14290 0.72406 1.15700
I 	I 	0.97940 0.34100 0.87110 -0.16000
I 	I 	0.89260 0.25400 0.94150 -0.16600
N 	N 	0.93258 0.48500 0.94540 -0.26900
N 	N 	0.86009 0.15790 0.67530 -0.28100
I 	I 	0.87921 0.16499 0.79961 -0.34800
I 	I 	0.77271 0.24140 0.70653 -0.10500
C 	C 	0.88830 0.10330 0.67410 0.08300
C 	C 	0.85300 0.22430 0.64440 0.07200
C 	C 	0.91240 0.11580 0.64590 -0.12700
H 	H 	0.89240 0.05250 0.69370 -0.02200
H 	H 	0.83160 0.26150 0.64300 -0.01400
C 	C 	0.87510 0.24080 0.61480 -0.12100
H 	H 	0.93300 0.07620 0.64730 0.08600
C 	C 	0.90590 0.18660 0.61600 0.07000
H 	H 	0.86930 0.28900 0.59380 0.08600
C 	C 	0.93130 0.20300 0.58550 0.10600
N 	N 	0.92490 0.27550 0.55850 -0.13400
N 	N 	0.95905 0.14320 0.58700 -0.13500
C 	C 	0.94690 0.28310 0.53020 0.09200
C 	C 	0.98006 0.15860 0.55810 0.09400
C 	C 	0.94200 0.36360 0.50020 0.04600
N 	N 	0.97459 0.22490 0.52730 -0.14800
C 	C 	0.01271 0.09970 0.56000 0.04800
C 	C 	0.96920 0.38800 0.47760 -0.11400
C 	C 	0.90980 0.41570 0.49440 -0.11500
C 	C 	0.02890 0.08820 0.52400 -0.12500
C 	C 	0.02890 0.05560 0.59950 -0.12200
H 	H 	0.99130 0.35300 0.48070 0.06800
C 	C 	0.96340 0.46400 0.45060 0.06600
C 	C 	0.90650 0.49140 0.46700 0.06800
H 	H 	0.89040 0.39970 0.50900 0.07800
H 	H 	0.01920 0.11870 0.49660 0.07900
C 	C 	0.05970 0.03140 0.52850 0.07900
H 	H 	0.01890 0.06210 0.62530 0.08400
C 	C 	0.06000 0.00210 0.60080 0.07400
H 	H 	0.98190 0.48080 0.43500 -0.01000
H 	H 	0.88480 0.52800 0.46350 -0.01600
H 	H 	0.07020 0.02250 0.50330 -0.00700
H 	H 	0.07110 0.97290 0.62820 -0.01600
I 	I 	0.97942 0.35550 0.86937 -0.16000
I 	I 	0.89028 0.25890 0.94194 -0.17200
I 	I 	0.37090 0.66040 0.79110 -0.04700
I 	I 	0.26620 0.73140 0.69650 -0.22800
I 	I 	0.14018 0.89276 0.50110 -0.36900
Zn	Zn	0.11903 0.90035 0.57376 1.16500
I 	I 	0.10043 0.76452 0.61522 -0.38200
N 	N 	0.16155 0.96850 0.61760 -0.26900
N 	N 	0.07517 0.98910 0.56610 -0.27800
C 	C 	0.18360 0.92470 0.65200 0.06400
C 	C 	0.16870 0.05440 0.60980 0.06700
H 	H 	0.17810 0.86340 0.65790 -0.00500
C 	C 	0.21390 0.96580 0.67890 -0.12000
C 	C 	0.19870 0.10160 0.63620 -0.11600
H 	H 	0.15280 0.08510 0.58560 -0.00300
H 	H 	0.22930 0.93300 0.70280 0.08800
C 	C 	0.22201 0.05620 0.67090 0.04100
H 	H 	0.20300 0.16360 0.63020 0.07900
C 	C 	0.25490 0.10070 0.69960 0.08900
N 	N 	0.27632 0.04870 0.73100 -0.14100
N 	N 	0.26162 0.18840 0.69152 -0.14000
C 	C 	0.30750 0.08810 0.75370 0.10300
C 	C 	0.29240 0.22180 0.71870 0.10400
C 	C 	0.33340 0.03360 0.78760 0.05300
N 	N 	0.31673 0.17430 0.74880 -0.13800
C 	C 	0.30109 0.32040 0.71610 0.05400
C 	C 	0.32470 0.94650 0.79970 -0.12600
C 	C 	0.36790 0.07050 0.80760 -0.11500
C 	C 	0.27650 0.38090 0.68960 -0.12200
C 	C 	0.33340 0.35520 0.74320 -0.11800
C 	C 	0.35010 0.90060 0.83270 0.07100
H 	H 	0.30180 0.91880 0.78560 0.07700
H 	H 	0.37480 0.12930 0.79960 0.09000
C 	C 	0.39170 0.01940 0.83950 0.06500
C 	C 	0.28580 0.47240 0.69200 0.07300
H 	H 	0.25410 0.36010 0.67050 0.07800
H 	H 	0.35060 0.31550 0.76170 0.08300
C 	C 	0.34070 0.44640 0.74340 0.06000
N 	N 	0.38258 0.93650 0.85240 -0.27100
H 	H 	0.34390 0.84160 0.84150 -0.01500
H 	H 	0.41560 0.04360 0.85290 -0.00900
N 	N 	0.31677 0.50540 0.71820 -0.27300
H 	H 	0.26910 0.51380 0.67380 -0.01300
H 	H 	0.36320 0.46880 0.76180 -0.01500
Zn	Zn	0.42254 0.87323 0.90194 1.15800
Zn	Zn	0.33041 0.64290 0.72406 1.15700
I 	I 	0.47940 0.84100 0.87110 -0.16000
I 	I 	0.39260 0.75400 0.94150 -0.16600
N 	N 	0.43258 0.98500 0.94540 -0.26900
N 	N 	0.36009 0.65790 0.67530 -0.28100
I 	I 	0.37921 0.66499 0.79961 -0.34800
I 	I 	0.27271 0.74140 0.70653 -0.10500
C 	C 	0.38830 0.60330 0.67410 0.08300
C 	C 	0.35300 0.72430 0.64440 0.07200
C 	C 	0.41240 0.61580 0.64590 -0.12700
H 	H 	0.39240 0.55250 0.69370 -0.02200
H 	H 	0.33160 0.76150 0.64300 -0.01400
C 	C 	0.37510 0.74080 0.61480 -0.12100
H 	H 	0.43300 0.57620 0.64730 0.08600
C 	C 	0.40590 0.68660 0.61600 0.07000
H 	H 	0.36930 0.78900 0.59380 0.08600
C 	C 	0.43130 0.70300 0.58550 0.10600
N 	N 	0.42490 0.77550 0.55850 -0.13400
N 	N 	0.45905 0.64320 0.58700 -0.13500
C 	C 	0.44690 0.78310 0.53020 0.09200
C 	C 	0.48006 0.65860 0.55810 0.09400
C 	C 	0.44200 0.86360 0.50020 0.04600
N 	N 	0.47459 0.72490 0.52730 -0.14800
C 	C 	0.51271 0.59970 0.56000 0.04800
C 	C 	0.46920 0.88800 0.47760 -0.11400
C 	C 	0.40980 0.91570 0.49440 -0.11500
C 	C 	0.52890 0.58820 0.52400 -0.12500
C 	C 	0.52890 0.55560 0.59950 -0.12200
H 	H 	0.49130 0.85300 0.48070 0.06800
C 	C 	0.46340 0.96400 0.45060 0.06600
C 	C 	0.40650 0.99140 0.46700 0.06800
H 	H 	0.39040 0.89970 0.50900 0.07800
H 	H 	0.51920 0.61870 0.49660 0.07900
C 	C 	0.55970 0.53140 0.52850 0.07900
H 	H 	0.51890 0.56210 0.62530 0.08400
C 	C 	0.56000 0.50210 0.60080 0.07400
H 	H 	0.48190 0.98080 0.43500 -0.01000
H 	H 	0.38480 0.02800 0.46350 -0.01600
H 	H 	0.57020 0.52250 0.50330 -0.00700
H 	H 	0.57110 0.47290 0.62820 -0.01600
I 	I 	0.47942 0.85550 0.86937 -0.16000
I 	I 	0.39028 0.75890 0.94194 -0.17200
I 	I 	0.87090 0.16040 0.79110 -0.04700
I 	I 	0.76620 0.23140 0.69650 -0.22800
