data_crystal

_cell_length_a 34.90430
_cell_length_b 14.95500
_cell_length_c 30.34690
_cell_angle_alpha 90.00000
_cell_angle_beta  100.07400
_cell_angle_gamma 90.00000

_symmetry_space_group_name_	'P 1'
_symmetry_space_group_name_H-M	'P 1'

loop_
_symmetry_equiv_pos_as_xyz
  x,y,z

loop_
_atom_site_label
_atom_site_type_symbol
_atom_site_fract_x
_atom_site_fract_y
_atom_site_fract_z
_atom_site_charge
I 	I 	0.97985 0.34520 0.86483 -0.21700
Zn	Zn	0.92055 0.37438 0.90318 1.15200
N 	N 	0.88242 0.44500 0.85569 -0.28400
I 	I 	0.88610 0.26840 0.94117 -0.09600
N 	N 	0.93573 0.48060 0.94700 -0.26900
C 	C 	0.91060 0.50540 0.97250 0.02300
C 	C 	0.96660 0.53210 0.94680 0.00500
H 	H 	0.88830 0.46920 0.97260 -0.05300
C 	C 	0.91500 0.58120 0.99880 -0.12900
C 	C 	0.97308 0.60950 0.97220 -0.11000
H 	H 	0.98510 0.51530 0.92870 -0.05900
C 	C 	0.94695 0.63410 0.99850 0.01800
H 	H 	0.89630 0.59630 0.01690 0.03000
H 	H 	0.99550 0.64500 0.97120 -0.06300
C 	C 	0.95193 0.71660 0.02650 0.07900
N 	N 	0.98157 0.77060 0.02177 -0.17300
N 	N 	0.92766 0.72720 0.05540 -0.14500
C 	C 	0.98578 0.83950 0.05030 0.07400
C 	C 	0.93392 0.80050 0.08090 0.08900
C 	C 	0.02014 0.89800 0.05050 0.02700
N 	N 	0.96286 0.85850 0.07983 -0.15200
C 	C 	0.90822 0.81600 0.11380 0.05900
C 	C 	0.03870 0.90420 0.01620 -0.11600
C 	C 	0.03500 0.94300 0.08840 -0.16200
C 	C 	0.91270 0.88850 0.14120 -0.12100
C 	C 	0.87840 0.76000 0.11730 -0.12500
C 	C 	0.07090 0.95830 0.01850 0.04300
H 	H 	0.02980 0.87100 0.98970 -0.02600
H 	H 	0.02270 0.94000 0.11390 0.06900
C 	C 	0.06810 0.99300 0.08930 0.06300
C 	C 	0.88830 0.90030 0.17150 0.06800
H 	H 	0.93260 0.93090 0.13940 0.05100
C 	C 	0.85540 0.77560 0.14830 0.07600
H 	H 	0.87350 0.70970 0.09800 0.05400
H 	H 	0.08360 0.96160 0.99340 -0.03500
N 	N 	0.08467 0.00560 0.05430 -0.28000
H 	H 	0.07960 0.01990 0.11690 -0.03100
N 	N 	0.86102 0.84370 0.17710 -0.28600
H 	H 	0.89140 0.95270 0.18950 -0.00000
H 	H 	0.83430 0.73600 0.14960 -0.07500
Zn	Zn	0.13142 0.09179 0.05935 1.14800
Zn	Zn	0.83033 0.85665 0.22889 1.15500
I 	I 	0.11095 0.22964 0.09500 -0.13700
I 	I 	0.15695 0.07610 0.98435 -0.36500
N 	N 	0.17261 0.02630 0.10550 -0.28800
I 	I 	0.88059 0.83269 0.30148 -0.31700
N 	N 	0.81684 0.99190 0.22530 -0.28000
I 	I 	0.77132 0.75916 0.20838 -0.13200
C 	C 	0.17740 0.93970 0.10310 0.04500
C 	C 	0.19710 0.07190 0.13610 0.02100
H 	H 	0.16020 0.90720 0.08110 -0.01100
C 	C 	0.20620 0.89290 0.13120 -0.16200
C 	C 	0.22610 0.03130 0.16520 -0.13900
H 	H 	0.19410 0.13490 0.13770 -0.02700
H 	H 	0.20870 0.83000 0.12820 0.07600
C 	C 	0.23109 0.93930 0.16320 0.03200
H 	H 	0.24290 0.06580 0.18670 0.10500
C 	C 	0.26238 0.89520 0.19450 0.09900
N 	N 	0.26802 0.80710 0.18989 -0.14000
N 	N 	0.28270 0.94700 0.22648 -0.13500
C 	C 	0.29668 0.77280 0.21970 0.11900
C 	C 	0.31176 0.90550 0.25320 0.10600
C 	C 	0.30338 0.67460 0.22060 0.07700
N 	N 	0.31999 0.81930 0.25125 -0.12700
C 	C 	0.33586 0.95870 0.28900 0.06200
C 	C 	0.33120 0.63860 0.25360 -0.12600
C 	C 	0.28200 0.61720 0.19140 -0.13300
C 	C 	0.32758 0.04700 0.29680 -0.14800
C 	C 	0.36820 0.91990 0.31420 -0.15800
H 	H 	0.34620 0.67610 0.27530 0.09200
C 	C 	0.33710 0.54720 0.25460 0.08400
C 	C 	0.28980 0.52690 0.19470 0.09400
H 	H 	0.26180 0.63920 0.16880 0.07700
C 	C 	0.35090 0.09240 0.33080 0.04800
H 	H 	0.30610 0.07600 0.27900 0.07400
H 	H 	0.37450 0.85920 0.30960 0.09800
C 	C 	0.39100 0.97080 0.34590 0.07300
H 	H 	0.35650 0.52290 0.27730 -0.02700
H 	H 	0.27470 0.48800 0.17380 -0.03400
H 	H 	0.34450 0.15240 0.33680 -0.01800
H 	H 	0.41410 0.94490 0.36190 -0.05900
I 	I 	0.97794 0.33220 0.86930 -0.15700
I 	I 	0.87530 0.27100 0.94417 -0.31900
I 	I 	0.65412 0.39380 0.48940 -0.13000
I 	I 	0.61487 0.26600 0.60400 -0.27300
I 	I 	0.36870 0.67000 0.79940 -0.10700
I 	I 	0.26310 0.72610 0.69870 -0.26700
I 	I 	0.47985 0.84520 0.86483 -0.21800
Zn	Zn	0.42055 0.87438 0.90318 1.15100
N 	N 	0.38242 0.94500 0.85569 -0.28600
I 	I 	0.38610 0.76840 0.94117 -0.09700
N 	N 	0.43573 0.98060 0.94700 -0.27200
C 	C 	0.41060 0.00540 0.97250 0.02500
C 	C 	0.46660 0.03210 0.94680 0.00600
H 	H 	0.38830 0.96920 0.97260 -0.05600
C 	C 	0.41500 0.08120 0.99880 -0.12900
C 	C 	0.47308 0.10950 0.97220 -0.11300
H 	H 	0.48510 0.01530 0.92870 -0.06000
C 	C 	0.44695 0.13410 0.99850 0.01900
H 	H 	0.39630 0.09630 0.01690 0.02800
H 	H 	0.49550 0.14500 0.97120 -0.06300
C 	C 	0.45193 0.21660 0.02650 0.07700
N 	N 	0.48157 0.27060 0.02177 -0.17300
N 	N 	0.42766 0.22720 0.05540 -0.14500
C 	C 	0.48578 0.33950 0.05030 0.07300
C 	C 	0.43392 0.30050 0.08090 0.08900
C 	C 	0.52014 0.39800 0.05050 0.02600
N 	N 	0.46286 0.35850 0.07983 -0.15300
C 	C 	0.40822 0.31600 0.11380 0.05800
C 	C 	0.53870 0.40420 0.01620 -0.11600
C 	C 	0.53500 0.44300 0.08840 -0.16000
C 	C 	0.41270 0.38850 0.14120 -0.12100
C 	C 	0.37840 0.26000 0.11730 -0.12500
C 	C 	0.57090 0.45830 0.01850 0.04100
H 	H 	0.52980 0.37100 0.98970 -0.02600
H 	H 	0.52270 0.44000 0.11390 0.06800
C 	C 	0.56810 0.49300 0.08930 0.05900
C 	C 	0.38830 0.40030 0.17150 0.06800
H 	H 	0.43260 0.43090 0.13940 0.05000
C 	C 	0.35540 0.27560 0.14830 0.07600
H 	H 	0.37350 0.20970 0.09800 0.05400
H 	H 	0.58360 0.46160 0.99340 -0.03300
N 	N 	0.58467 0.50560 0.05430 -0.27800
H 	H 	0.57960 0.51990 0.11690 -0.02900
N 	N 	0.36102 0.34370 0.17710 -0.28600
H 	H 	0.39140 0.45270 0.18950 -0.00100
H 	H 	0.33430 0.23600 0.14960 -0.07400
Zn	Zn	0.63142 0.59179 0.05935 1.14800
Zn	Zn	0.33033 0.35665 0.22889 1.15500
I 	I 	0.61095 0.72964 0.09500 -0.13700
I 	I 	0.65695 0.57610 0.98435 -0.36600
N 	N 	0.67261 0.52630 0.10550 -0.28700
I 	I 	0.38059 0.33269 0.30148 -0.31700
N 	N 	0.31684 0.49190 0.22530 -0.28100
I 	I 	0.27132 0.25916 0.20838 -0.13300
C 	C 	0.67740 0.43970 0.10310 0.04300
C 	C 	0.69710 0.57190 0.13610 0.02000
H 	H 	0.66020 0.40720 0.08110 -0.01100
C 	C 	0.70620 0.39290 0.13120 -0.16100
C 	C 	0.72610 0.53130 0.16520 -0.13700
H 	H 	0.69410 0.63490 0.13770 -0.02600
H 	H 	0.70870 0.33000 0.12820 0.07500
C 	C 	0.73109 0.43930 0.16320 0.02900
H 	H 	0.74290 0.56580 0.18670 0.10500
C 	C 	0.76238 0.39520 0.19450 0.10000
N 	N 	0.76802 0.30710 0.18989 -0.14000
N 	N 	0.78270 0.44700 0.22648 -0.13500
C 	C 	0.79668 0.27280 0.21970 0.12000
C 	C 	0.81176 0.40550 0.25320 0.10700
C 	C 	0.80338 0.17460 0.22060 0.07600
N 	N 	0.81999 0.31930 0.25125 -0.12700
C 	C 	0.83586 0.45870 0.28900 0.06000
C 	C 	0.83120 0.13860 0.25360 -0.12500
C 	C 	0.78200 0.11720 0.19140 -0.13200
C 	C 	0.82758 0.54700 0.29680 -0.14700
C 	C 	0.86820 0.41990 0.31420 -0.15700
H 	H 	0.84620 0.17610 0.27530 0.09200
C 	C 	0.83710 0.04720 0.25460 0.08300
C 	C 	0.78980 0.02690 0.19470 0.09100
H 	H 	0.76180 0.13920 0.16880 0.07700
C 	C 	0.85090 0.59240 0.33080 0.04800
H 	H 	0.80610 0.57600 0.27900 0.07400
H 	H 	0.87450 0.35920 0.30960 0.09800
C 	C 	0.89100 0.47080 0.34590 0.07200
H 	H 	0.85650 0.02290 0.27730 -0.02700
H 	H 	0.77470 0.98800 0.17380 -0.03300
H 	H 	0.84450 0.65240 0.33680 -0.01800
H 	H 	0.91410 0.44490 0.36190 -0.05900
I 	I 	0.47794 0.83220 0.86930 -0.15700
I 	I 	0.37530 0.77100 0.94417 -0.31900
I 	I 	0.15412 0.89380 0.48940 -0.13000
I 	I 	0.11487 0.76600 0.60400 -0.27300
I 	I 	0.86870 0.17000 0.79940 -0.10700
I 	I 	0.76310 0.22610 0.69870 -0.26700
I 	I 	0.97985 0.65480 0.36483 -0.21700
Zn	Zn	0.92055 0.62562 0.40318 1.15100
N 	N 	0.88242 0.55500 0.35569 -0.28500
I 	I 	0.88610 0.73160 0.44117 -0.09700
N 	N 	0.93573 0.51940 0.44700 -0.27000
C 	C 	0.91060 0.49460 0.47250 0.02200
C 	C 	0.96660 0.46790 0.44680 0.00400
H 	H 	0.88830 0.53080 0.47260 -0.05400
C 	C 	0.91500 0.41880 0.49880 -0.12900
C 	C 	0.97308 0.39050 0.47220 -0.11100
H 	H 	0.98510 0.48470 0.42870 -0.06000
C 	C 	0.94695 0.36590 0.49850 0.01800
H 	H 	0.89630 0.40370 0.51690 0.02900
H 	H 	0.99550 0.35500 0.47120 -0.06400
C 	C 	0.95193 0.28340 0.52650 0.07800
N 	N 	0.98157 0.22940 0.52177 -0.17300
N 	N 	0.92766 0.27280 0.55540 -0.14500
C 	C 	0.98578 0.16050 0.55030 0.07300
C 	C 	0.93392 0.19950 0.58090 0.08900
C 	C 	0.02014 0.10200 0.55050 0.02600
N 	N 	0.96286 0.14150 0.57983 -0.15200
C 	C 	0.90822 0.18400 0.61380 0.05900
C 	C 	0.03870 0.09580 0.51620 -0.11500
C 	C 	0.03500 0.05700 0.58840 -0.16100
C 	C 	0.91270 0.11150 0.64120 -0.12100
C 	C 	0.87840 0.24000 0.61730 -0.12500
C 	C 	0.07090 0.04170 0.51850 0.04100
H 	H 	0.02980 0.12900 0.48970 -0.02600
H 	H 	0.02270 0.06000 0.61390 0.06800
C 	C 	0.06810 0.00700 0.58930 0.06000
C 	C 	0.88830 0.09970 0.67150 0.06800
H 	H 	0.93260 0.06910 0.63940 0.05000
C 	C 	0.85540 0.22440 0.64830 0.07600
H 	H 	0.87350 0.29030 0.59800 0.05400
H 	H 	0.08360 0.03840 0.49340 -0.03300
N 	N 	0.08467 0.99440 0.55430 -0.27900
H 	H 	0.07960 0.98010 0.61690 -0.03000
N 	N 	0.86102 0.15630 0.67710 -0.28600
H 	H 	0.89140 0.04730 0.68950 -0.00000
H 	H 	0.83430 0.26400 0.64960 -0.07500
Zn	Zn	0.13142 0.90821 0.55935 1.14800
Zn	Zn	0.83033 0.14335 0.72889 1.15500
I 	I 	0.11095 0.77036 0.59500 -0.13700
I 	I 	0.15695 0.92390 0.48435 -0.36600
N 	N 	0.17261 0.97370 0.60550 -0.28800
I 	I 	0.88059 0.16731 0.80148 -0.31700
N 	N 	0.81684 0.00810 0.72530 -0.28000
I 	I 	0.77132 0.24084 0.70838 -0.13200
C 	C 	0.17740 0.06030 0.60310 0.04400
C 	C 	0.19710 0.92810 0.63610 0.02000
H 	H 	0.16020 0.09280 0.58110 -0.01100
C 	C 	0.20620 0.10710 0.63120 -0.16100
C 	C 	0.22610 0.96870 0.66520 -0.13800
H 	H 	0.19410 0.86510 0.63770 -0.02700
H 	H 	0.20870 0.17000 0.62820 0.07600
C 	C 	0.23109 0.06070 0.66320 0.03100
H 	H 	0.24290 0.93420 0.68670 0.10500
C 	C 	0.26238 0.10480 0.69450 0.10000
N 	N 	0.26802 0.19290 0.68989 -0.14000
N 	N 	0.28270 0.05300 0.72648 -0.13500
C 	C 	0.29668 0.22720 0.71970 0.11900
C 	C 	0.31176 0.09450 0.75320 0.10600
C 	C 	0.30338 0.32540 0.72060 0.07700
N 	N 	0.31999 0.18070 0.75125 -0.12700
C 	C 	0.33586 0.04130 0.78900 0.06200
C 	C 	0.33120 0.36140 0.75360 -0.12600
C 	C 	0.28200 0.38280 0.69140 -0.13300
C 	C 	0.32758 0.95300 0.79680 -0.14900
C 	C 	0.36820 0.08010 0.81420 -0.15900
H 	H 	0.34620 0.32390 0.77530 0.09200
C 	C 	0.33710 0.45280 0.75460 0.08400
C 	C 	0.28980 0.47310 0.69470 0.09400
H 	H 	0.26180 0.36080 0.66880 0.07700
C 	C 	0.35090 0.90760 0.83080 0.04900
H 	H 	0.30610 0.92400 0.77900 0.07500
H 	H 	0.37450 0.14080 0.80960 0.09900
C 	C 	0.39100 0.02920 0.84590 0.07400
H 	H 	0.35650 0.47710 0.77730 -0.02700
H 	H 	0.27470 0.51200 0.67380 -0.03400
H 	H 	0.34450 0.84760 0.83680 -0.01800
H 	H 	0.41410 0.05510 0.86190 -0.06000
I 	I 	0.97794 0.66780 0.36930 -0.15700
I 	I 	0.87530 0.72900 0.44417 -0.31900
I 	I 	0.65412 0.60620 0.98940 -0.13000
I 	I 	0.61487 0.73400 0.10400 -0.27300
I 	I 	0.36870 0.33000 0.29940 -0.10700
I 	I 	0.26310 0.27390 0.19870 -0.26700
I 	I 	0.47985 0.15480 0.36483 -0.21700
Zn	Zn	0.42055 0.12562 0.40318 1.15100
N 	N 	0.38242 0.05500 0.35569 -0.28600
I 	I 	0.38610 0.23160 0.44117 -0.09700
N 	N 	0.43573 0.01940 0.44700 -0.27000
C 	C 	0.41060 0.99460 0.47250 0.02300
C 	C 	0.46660 0.96790 0.44680 0.00400
H 	H 	0.38830 0.03080 0.47260 -0.05400
C 	C 	0.41500 0.91880 0.49880 -0.12900
C 	C 	0.47308 0.89050 0.47220 -0.11200
H 	H 	0.48510 0.98470 0.42870 -0.06000
C 	C 	0.44695 0.86590 0.49850 0.01800
H 	H 	0.39630 0.90370 0.51690 0.02900
H 	H 	0.49550 0.85500 0.47120 -0.06400
C 	C 	0.45193 0.78340 0.52650 0.07800
N 	N 	0.48157 0.72940 0.52177 -0.17300
N 	N 	0.42766 0.77280 0.55540 -0.14500
C 	C 	0.48578 0.66050 0.55030 0.07300
C 	C 	0.43392 0.69950 0.58090 0.08900
C 	C 	0.52014 0.60200 0.55050 0.02600
N 	N 	0.46286 0.64150 0.57983 -0.15300
C 	C 	0.40822 0.68400 0.61380 0.05800
C 	C 	0.53870 0.59580 0.51620 -0.11500
C 	C 	0.53500 0.55700 0.58840 -0.16000
C 	C 	0.41270 0.61150 0.64120 -0.12100
C 	C 	0.37840 0.74000 0.61730 -0.12500
C 	C 	0.57090 0.54170 0.51850 0.04000
H 	H 	0.52980 0.62900 0.48970 -0.02600
H 	H 	0.52270 0.56000 0.61390 0.06800
C 	C 	0.56810 0.50700 0.58930 0.05900
C 	C 	0.38830 0.59970 0.67150 0.06800
H 	H 	0.43260 0.56910 0.63940 0.05000
C 	C 	0.35540 0.72440 0.64830 0.07600
H 	H 	0.37350 0.79030 0.59800 0.05400
H 	H 	0.58360 0.53840 0.49340 -0.03300
N 	N 	0.58467 0.49440 0.55430 -0.27800
H 	H 	0.57960 0.48010 0.61690 -0.02900
N 	N 	0.36102 0.65630 0.67710 -0.28600
H 	H 	0.39140 0.54730 0.68950 -0.00100
H 	H 	0.33430 0.76400 0.64960 -0.07500
Zn	Zn	0.63142 0.40821 0.55935 1.14800
Zn	Zn	0.33033 0.64335 0.72889 1.15500
I 	I 	0.61095 0.27036 0.59500 -0.13700
I 	I 	0.65695 0.42390 0.48435 -0.36600
N 	N 	0.67261 0.47370 0.60550 -0.28700
I 	I 	0.38059 0.66731 0.80148 -0.31700
N 	N 	0.31684 0.50810 0.72530 -0.28100
I 	I 	0.27132 0.74084 0.70838 -0.13300
C 	C 	0.67740 0.56030 0.60310 0.04300
C 	C 	0.69710 0.42810 0.63610 0.02000
H 	H 	0.66020 0.59280 0.58110 -0.01100
C 	C 	0.70620 0.60710 0.63120 -0.16100
C 	C 	0.72610 0.46870 0.66520 -0.13700
H 	H 	0.69410 0.36510 0.63770 -0.02600
H 	H 	0.70870 0.67000 0.62820 0.07500
C 	C 	0.73109 0.56070 0.66320 0.02900
H 	H 	0.74290 0.43420 0.68670 0.10500
C 	C 	0.76238 0.60480 0.69450 0.10000
N 	N 	0.76802 0.69290 0.68989 -0.14000
N 	N 	0.78270 0.55300 0.72648 -0.13500
C 	C 	0.79668 0.72720 0.71970 0.12000
C 	C 	0.81176 0.59450 0.75320 0.10700
C 	C 	0.80338 0.82540 0.72060 0.07600
N 	N 	0.81999 0.68070 0.75125 -0.12700
C 	C 	0.83586 0.54130 0.78900 0.06000
C 	C 	0.83120 0.86140 0.75360 -0.12500
C 	C 	0.78200 0.88280 0.69140 -0.13200
C 	C 	0.82758 0.45300 0.79680 -0.14700
C 	C 	0.86820 0.58010 0.81420 -0.15700
H 	H 	0.84620 0.82390 0.77530 0.09200
C 	C 	0.83710 0.95280 0.75460 0.08300
C 	C 	0.78980 0.97310 0.69470 0.09200
H 	H 	0.76180 0.86080 0.66880 0.07700
C 	C 	0.85090 0.40760 0.83080 0.04800
H 	H 	0.80610 0.42400 0.77900 0.07400
H 	H 	0.87450 0.64080 0.80960 0.09800
C 	C 	0.89100 0.52920 0.84590 0.07200
H 	H 	0.85650 0.97710 0.77730 -0.02700
H 	H 	0.77470 0.01200 0.67380 -0.03300
H 	H 	0.84450 0.34760 0.83680 -0.01800
H 	H 	0.91410 0.55510 0.86190 -0.05900
I 	I 	0.47794 0.16780 0.36930 -0.15700
I 	I 	0.37530 0.22900 0.44417 -0.31900
I 	I 	0.15412 0.10620 0.98940 -0.12900
I 	I 	0.11487 0.23400 0.10400 -0.27300
I 	I 	0.86870 0.83000 0.29940 -0.10700
I 	I 	0.76310 0.77390 0.19870 -0.26700
I 	I 	0.02015 0.34520 0.63517 -0.21700
Zn	Zn	0.07945 0.37438 0.59682 1.15100
N 	N 	0.11758 0.44500 0.64431 -0.28500
I 	I 	0.11390 0.26840 0.55883 -0.09700
N 	N 	0.06427 0.48060 0.55300 -0.27000
C 	C 	0.08940 0.50540 0.52750 0.02200
C 	C 	0.03340 0.53210 0.55320 0.00400
H 	H 	0.11170 0.46920 0.52740 -0.05400
C 	C 	0.08500 0.58120 0.50120 -0.12900
C 	C 	0.02692 0.60950 0.52780 -0.11100
H 	H 	0.01490 0.51530 0.57130 -0.06000
C 	C 	0.05305 0.63410 0.50150 0.01800
H 	H 	0.10370 0.59630 0.48310 0.02900
H 	H 	0.00450 0.64500 0.52880 -0.06400
C 	C 	0.04807 0.71660 0.47350 0.07800
N 	N 	0.01843 0.77060 0.47823 -0.17300
N 	N 	0.07234 0.72720 0.44460 -0.14500
C 	C 	0.01422 0.83950 0.44970 0.07300
C 	C 	0.06608 0.80050 0.41910 0.08900
C 	C 	0.97986 0.89800 0.44950 0.02600
N 	N 	0.03714 0.85850 0.42017 -0.15200
C 	C 	0.09178 0.81600 0.38620 0.05900
C 	C 	0.96130 0.90420 0.48380 -0.11500
C 	C 	0.96500 0.94300 0.41160 -0.16100
C 	C 	0.08730 0.88850 0.35880 -0.12100
C 	C 	0.12160 0.76000 0.38270 -0.12500
C 	C 	0.92910 0.95830 0.48150 0.04100
H 	H 	0.97020 0.87100 0.51030 -0.02600
H 	H 	0.97730 0.94000 0.38610 0.06800
C 	C 	0.93190 0.99300 0.41070 0.06000
C 	C 	0.11170 0.90030 0.32850 0.06800
H 	H 	0.06740 0.93090 0.36060 0.05000
C 	C 	0.14460 0.77560 0.35170 0.07600
H 	H 	0.12650 0.70970 0.40200 0.05400
H 	H 	0.91640 0.96160 0.50660 -0.03300
N 	N 	0.91533 0.00560 0.44570 -0.27900
H 	H 	0.92040 0.01990 0.38310 -0.03000
N 	N 	0.13898 0.84370 0.32290 -0.28600
H 	H 	0.10860 0.95270 0.31050 -0.00000
H 	H 	0.16570 0.73600 0.35040 -0.07500
Zn	Zn	0.86858 0.09179 0.44065 1.14800
Zn	Zn	0.16967 0.85665 0.27111 1.15500
I 	I 	0.88905 0.22964 0.40500 -0.13700
I 	I 	0.84305 0.07610 0.51565 -0.36600
N 	N 	0.82739 0.02630 0.39450 -0.28800
I 	I 	0.11941 0.83269 0.19852 -0.31700
N 	N 	0.18316 0.99190 0.27470 -0.28000
I 	I 	0.22868 0.75916 0.29162 -0.13200
C 	C 	0.82260 0.93970 0.39690 0.04400
C 	C 	0.80290 0.07190 0.36390 0.02000
H 	H 	0.83980 0.90720 0.41890 -0.01100
C 	C 	0.79380 0.89290 0.36880 -0.16100
C 	C 	0.77390 0.03130 0.33480 -0.13800
H 	H 	0.80590 0.13490 0.36230 -0.02700
H 	H 	0.79130 0.83000 0.37180 0.07600
C 	C 	0.76891 0.93930 0.33680 0.03100
H 	H 	0.75710 0.06580 0.31330 0.10500
C 	C 	0.73762 0.89520 0.30550 0.10000
N 	N 	0.73198 0.80710 0.31011 -0.14000
N 	N 	0.71730 0.94700 0.27352 -0.13500
C 	C 	0.70332 0.77280 0.28030 0.11900
C 	C 	0.68824 0.90550 0.24680 0.10600
C 	C 	0.69662 0.67460 0.27940 0.07700
N 	N 	0.68001 0.81930 0.24875 -0.12700
C 	C 	0.66414 0.95870 0.21100 0.06200
C 	C 	0.66880 0.63860 0.24640 -0.12600
C 	C 	0.71800 0.61720 0.30860 -0.13300
C 	C 	0.67242 0.04700 0.20320 -0.14900
C 	C 	0.63180 0.91990 0.18580 -0.15900
H 	H 	0.65380 0.67610 0.22470 0.09200
C 	C 	0.66290 0.54720 0.24540 0.08400
C 	C 	0.71020 0.52690 0.30530 0.09400
H 	H 	0.73820 0.63920 0.33120 0.07700
C 	C 	0.64910 0.09240 0.16920 0.04900
H 	H 	0.69390 0.07600 0.22100 0.07500
H 	H 	0.62550 0.85920 0.19040 0.09900
C 	C 	0.60900 0.97080 0.15410 0.07400
H 	H 	0.64350 0.52290 0.22270 -0.02700
H 	H 	0.72530 0.48800 0.32620 -0.03400
H 	H 	0.65550 0.15240 0.16320 -0.01800
H 	H 	0.58590 0.94490 0.13810 -0.06000
I 	I 	0.02206 0.33220 0.63070 -0.15700
I 	I 	0.12470 0.27100 0.55583 -0.31900
I 	I 	0.34588 0.39380 0.01060 -0.13000
I 	I 	0.38513 0.26600 0.89600 -0.27300
I 	I 	0.63130 0.67000 0.70060 -0.10700
I 	I 	0.73690 0.72610 0.80130 -0.26700
I 	I 	0.52015 0.84520 0.63517 -0.21700
Zn	Zn	0.57945 0.87438 0.59682 1.15100
N 	N 	0.61758 0.94500 0.64431 -0.28600
I 	I 	0.61390 0.76840 0.55883 -0.09700
N 	N 	0.56427 0.98060 0.55300 -0.27000
C 	C 	0.58940 0.00540 0.52750 0.02300
C 	C 	0.53340 0.03210 0.55320 0.00400
H 	H 	0.61170 0.96920 0.52740 -0.05400
C 	C 	0.58500 0.08120 0.50120 -0.12900
C 	C 	0.52692 0.10950 0.52780 -0.11200
H 	H 	0.51490 0.01530 0.57130 -0.06000
C 	C 	0.55305 0.13410 0.50150 0.01800
H 	H 	0.60370 0.09630 0.48310 0.02900
H 	H 	0.50450 0.14500 0.52880 -0.06400
C 	C 	0.54807 0.21660 0.47350 0.07800
N 	N 	0.51843 0.27060 0.47823 -0.17300
N 	N 	0.57234 0.22720 0.44460 -0.14500
C 	C 	0.51422 0.33950 0.44970 0.07300
C 	C 	0.56608 0.30050 0.41910 0.08900
C 	C 	0.47986 0.39800 0.44950 0.02600
N 	N 	0.53714 0.35850 0.42017 -0.15300
C 	C 	0.59178 0.31600 0.38620 0.05800
C 	C 	0.46130 0.40420 0.48380 -0.11500
C 	C 	0.46500 0.44300 0.41160 -0.16000
C 	C 	0.58730 0.38850 0.35880 -0.12100
C 	C 	0.62160 0.26000 0.38270 -0.12500
C 	C 	0.42910 0.45830 0.48150 0.04000
H 	H 	0.47020 0.37100 0.51030 -0.02600
H 	H 	0.47730 0.44000 0.38610 0.06800
C 	C 	0.43190 0.49300 0.41070 0.05900
C 	C 	0.61170 0.40030 0.32850 0.06800
H 	H 	0.56740 0.43090 0.36060 0.05000
C 	C 	0.64460 0.27560 0.35170 0.07600
H 	H 	0.62650 0.20970 0.40200 0.05400
H 	H 	0.41640 0.46160 0.50660 -0.03300
N 	N 	0.41533 0.50560 0.44570 -0.27800
H 	H 	0.42040 0.51990 0.38310 -0.02900
N 	N 	0.63898 0.34370 0.32290 -0.28600
H 	H 	0.60860 0.45270 0.31050 -0.00100
H 	H 	0.66570 0.23600 0.35040 -0.07500
Zn	Zn	0.36858 0.59179 0.44065 1.14800
Zn	Zn	0.66967 0.35665 0.27111 1.15500
I 	I 	0.38905 0.72964 0.40500 -0.13700
I 	I 	0.34305 0.57610 0.51565 -0.36600
N 	N 	0.32739 0.52630 0.39450 -0.28700
I 	I 	0.61941 0.33269 0.19852 -0.31700
N 	N 	0.68316 0.49190 0.27470 -0.28100
I 	I 	0.72868 0.25916 0.29162 -0.13300
C 	C 	0.32260 0.43970 0.39690 0.04300
C 	C 	0.30290 0.57190 0.36390 0.02000
H 	H 	0.33980 0.40720 0.41890 -0.01100
C 	C 	0.29380 0.39290 0.36880 -0.16100
C 	C 	0.27390 0.53130 0.33480 -0.13700
H 	H 	0.30590 0.63490 0.36230 -0.02600
H 	H 	0.29130 0.33000 0.37180 0.07500
C 	C 	0.26891 0.43930 0.33680 0.02900
H 	H 	0.25710 0.56580 0.31330 0.10500
C 	C 	0.23762 0.39520 0.30550 0.10000
N 	N 	0.23198 0.30710 0.31011 -0.14000
N 	N 	0.21730 0.44700 0.27352 -0.13500
C 	C 	0.20332 0.27280 0.28030 0.12000
C 	C 	0.18824 0.40550 0.24680 0.10700
C 	C 	0.19662 0.17460 0.27940 0.07600
N 	N 	0.18001 0.31930 0.24875 -0.12700
C 	C 	0.16414 0.45870 0.21100 0.06000
C 	C 	0.16880 0.13860 0.24640 -0.12500
C 	C 	0.21800 0.11720 0.30860 -0.13200
C 	C 	0.17242 0.54700 0.20320 -0.14700
C 	C 	0.13180 0.41990 0.18580 -0.15700
H 	H 	0.15380 0.17610 0.22470 0.09200
C 	C 	0.16290 0.04720 0.24540 0.08300
C 	C 	0.21020 0.02690 0.30530 0.09200
H 	H 	0.23820 0.13920 0.33120 0.07700
C 	C 	0.14910 0.59240 0.16920 0.04800
H 	H 	0.19390 0.57600 0.22100 0.07400
H 	H 	0.12550 0.35920 0.19040 0.09800
C 	C 	0.10900 0.47080 0.15410 0.07200
H 	H 	0.14350 0.02290 0.22270 -0.02700
H 	H 	0.22530 0.98800 0.32620 -0.03300
H 	H 	0.15550 0.65240 0.16320 -0.01800
H 	H 	0.08590 0.44490 0.13810 -0.05900
I 	I 	0.52206 0.83220 0.63070 -0.15700
I 	I 	0.62470 0.77100 0.55583 -0.31900
I 	I 	0.84588 0.89380 0.01060 -0.12900
I 	I 	0.88513 0.76600 0.89600 -0.27300
I 	I 	0.13130 0.17000 0.70060 -0.10700
I 	I 	0.23690 0.22610 0.80130 -0.26700
I 	I 	0.02015 0.65480 0.13517 -0.21800
Zn	Zn	0.07945 0.62562 0.09682 1.15100
N 	N 	0.11758 0.55500 0.14431 -0.28500
I 	I 	0.11390 0.73160 0.05883 -0.09700
N 	N 	0.06427 0.51940 0.05300 -0.27000
C 	C 	0.08940 0.49460 0.02750 0.02200
C 	C 	0.03340 0.46790 0.05320 0.00400
H 	H 	0.11170 0.53080 0.02740 -0.05400
C 	C 	0.08500 0.41880 0.00120 -0.13000
C 	C 	0.02692 0.39050 0.02780 -0.11100
H 	H 	0.01490 0.48470 0.07130 -0.06000
C 	C 	0.05305 0.36590 0.00150 0.01700
H 	H 	0.10370 0.40370 0.98310 0.02900
H 	H 	0.00450 0.35500 0.02880 -0.06400
C 	C 	0.04807 0.28340 0.97350 0.07900
N 	N 	0.01843 0.22940 0.97823 -0.17300
N 	N 	0.07234 0.27280 0.94460 -0.14500
C 	C 	0.01422 0.16050 0.94970 0.07400
C 	C 	0.06608 0.19950 0.91910 0.08900
C 	C 	0.97986 0.10200 0.94950 0.02700
N 	N 	0.03714 0.14150 0.92017 -0.15200
C 	C 	0.09178 0.18400 0.88620 0.05900
C 	C 	0.96130 0.09580 0.98380 -0.11600
C 	C 	0.96500 0.05700 0.91160 -0.16200
C 	C 	0.08730 0.11150 0.85880 -0.12100
C 	C 	0.12160 0.24000 0.88270 -0.12500
C 	C 	0.92910 0.04170 0.98150 0.04300
H 	H 	0.97020 0.12900 0.01030 -0.02600
H 	H 	0.97730 0.06000 0.88610 0.06900
C 	C 	0.93190 0.00700 0.91070 0.06300
C 	C 	0.11170 0.09970 0.82850 0.06800
H 	H 	0.06740 0.06910 0.86060 0.05100
C 	C 	0.14460 0.22440 0.85170 0.07600
H 	H 	0.12650 0.29030 0.90200 0.05400
H 	H 	0.91640 0.03840 0.00660 -0.03500
N 	N 	0.91533 0.99440 0.94570 -0.28000
H 	H 	0.92040 0.98010 0.88310 -0.03100
N 	N 	0.13898 0.15630 0.82290 -0.28600
H 	H 	0.10860 0.04730 0.81050 -0.00000
H 	H 	0.16570 0.26400 0.85040 -0.07500
Zn	Zn	0.86858 0.90821 0.94065 1.14800
Zn	Zn	0.16967 0.14335 0.77111 1.15500
I 	I 	0.88905 0.77036 0.90500 -0.13700
I 	I 	0.84305 0.92390 0.01565 -0.36500
N 	N 	0.82739 0.97370 0.89450 -0.28800
I 	I 	0.11941 0.16731 0.69852 -0.31700
N 	N 	0.18316 0.00810 0.77470 -0.28000
I 	I 	0.22868 0.24084 0.79162 -0.13200
C 	C 	0.82260 0.06030 0.89690 0.04500
C 	C 	0.80290 0.92810 0.86390 0.02100
H 	H 	0.83980 0.09280 0.91890 -0.01100
C 	C 	0.79380 0.10710 0.86880 -0.16200
C 	C 	0.77390 0.96870 0.83480 -0.13900
H 	H 	0.80590 0.86510 0.86230 -0.02700
H 	H 	0.79130 0.17000 0.87180 0.07600
C 	C 	0.76891 0.06070 0.83680 0.03200
H 	H 	0.75710 0.93420 0.81330 0.10500
C 	C 	0.73762 0.10480 0.80550 0.09900
N 	N 	0.73198 0.19290 0.81011 -0.14000
N 	N 	0.71730 0.05300 0.77352 -0.13500
C 	C 	0.70332 0.22720 0.78030 0.11900
C 	C 	0.68824 0.09450 0.74680 0.10600
C 	C 	0.69662 0.32540 0.77940 0.07700
N 	N 	0.68001 0.18070 0.74875 -0.12700
C 	C 	0.66414 0.04130 0.71100 0.06200
C 	C 	0.66880 0.36140 0.74640 -0.12600
C 	C 	0.71800 0.38280 0.80860 -0.13300
C 	C 	0.67242 0.95300 0.70320 -0.14800
C 	C 	0.63180 0.08010 0.68580 -0.15800
H 	H 	0.65380 0.32390 0.72470 0.09200
C 	C 	0.66290 0.45280 0.74540 0.08400
C 	C 	0.71020 0.47310 0.80530 0.09400
H 	H 	0.73820 0.36080 0.83120 0.07700
C 	C 	0.64910 0.90760 0.66920 0.04800
H 	H 	0.69390 0.92400 0.72100 0.07400
H 	H 	0.62550 0.14080 0.69040 0.09800
C 	C 	0.60900 0.02920 0.65410 0.07300
H 	H 	0.64350 0.47710 0.72270 -0.02700
H 	H 	0.72530 0.51200 0.82620 -0.03400
H 	H 	0.65550 0.84760 0.66320 -0.01800
H 	H 	0.58590 0.05510 0.63810 -0.05900
I 	I 	0.02206 0.66780 0.13070 -0.15700
I 	I 	0.12470 0.72900 0.05583 -0.31900
I 	I 	0.34588 0.60620 0.51060 -0.13000
I 	I 	0.38513 0.73400 0.39600 -0.27300
I 	I 	0.63130 0.33000 0.20060 -0.10700
I 	I 	0.73690 0.27390 0.30130 -0.26700
I 	I 	0.52015 0.15480 0.13517 -0.21800
Zn	Zn	0.57945 0.12562 0.09682 1.15100
N 	N 	0.61758 0.05500 0.14431 -0.28600
I 	I 	0.61390 0.23160 0.05883 -0.09700
N 	N 	0.56427 0.01940 0.05300 -0.27200
C 	C 	0.58940 0.99460 0.02750 0.02500
C 	C 	0.53340 0.96790 0.05320 0.00600
H 	H 	0.61170 0.03080 0.02740 -0.05600
C 	C 	0.58500 0.91880 0.00120 -0.12900
C 	C 	0.52692 0.89050 0.02780 -0.11300
H 	H 	0.51490 0.98470 0.07130 -0.06000
C 	C 	0.55305 0.86590 0.00150 0.01900
H 	H 	0.60370 0.90370 0.98310 0.02800
H 	H 	0.50450 0.85500 0.02880 -0.06300
C 	C 	0.54807 0.78340 0.97350 0.07700
N 	N 	0.51843 0.72940 0.97823 -0.17300
N 	N 	0.57234 0.77280 0.94460 -0.14500
C 	C 	0.51422 0.66050 0.94970 0.07300
C 	C 	0.56608 0.69950 0.91910 0.08900
C 	C 	0.47986 0.60200 0.94950 0.02600
N 	N 	0.53714 0.64150 0.92017 -0.15300
C 	C 	0.59178 0.68400 0.88620 0.05800
C 	C 	0.46130 0.59580 0.98380 -0.11600
C 	C 	0.46500 0.55700 0.91160 -0.16000
C 	C 	0.58730 0.61150 0.85880 -0.12100
C 	C 	0.62160 0.74000 0.88270 -0.12500
C 	C 	0.42910 0.54170 0.98150 0.04100
H 	H 	0.47020 0.62900 0.01030 -0.02600
H 	H 	0.47730 0.56000 0.88610 0.06800
C 	C 	0.43190 0.50700 0.91070 0.05900
C 	C 	0.61170 0.59970 0.82850 0.06800
H 	H 	0.56740 0.56910 0.86060 0.05000
C 	C 	0.64460 0.72440 0.85170 0.07600
H 	H 	0.62650 0.79030 0.90200 0.05400
H 	H 	0.41640 0.53840 0.00660 -0.03300
N 	N 	0.41533 0.49440 0.94570 -0.27800
H 	H 	0.42040 0.48010 0.88310 -0.02900
N 	N 	0.63898 0.65630 0.82290 -0.28600
H 	H 	0.60860 0.54730 0.81050 -0.00100
H 	H 	0.66570 0.76400 0.85040 -0.07400
Zn	Zn	0.36858 0.40821 0.94065 1.14800
Zn	Zn	0.66967 0.64335 0.77111 1.15500
I 	I 	0.38905 0.27036 0.90500 -0.13700
I 	I 	0.34305 0.42390 0.01565 -0.36600
N 	N 	0.32739 0.47370 0.89450 -0.28700
I 	I 	0.61941 0.66731 0.69852 -0.31700
N 	N 	0.68316 0.50810 0.77470 -0.28100
I 	I 	0.72868 0.74084 0.79162 -0.13300
C 	C 	0.32260 0.56030 0.89690 0.04300
C 	C 	0.30290 0.42810 0.86390 0.02000
H 	H 	0.33980 0.59280 0.91890 -0.01100
C 	C 	0.29380 0.60710 0.86880 -0.16100
C 	C 	0.27390 0.46870 0.83480 -0.13700
H 	H 	0.30590 0.36510 0.86230 -0.02600
H 	H 	0.29130 0.67000 0.87180 0.07500
C 	C 	0.26891 0.56070 0.83680 0.02900
H 	H 	0.25710 0.43420 0.81330 0.10500
C 	C 	0.23762 0.60480 0.80550 0.10000
N 	N 	0.23198 0.69290 0.81011 -0.14000
N 	N 	0.21730 0.55300 0.77352 -0.13500
C 	C 	0.20332 0.72720 0.78030 0.12000
C 	C 	0.18824 0.59450 0.74680 0.10700
C 	C 	0.19662 0.82540 0.77940 0.07600
N 	N 	0.18001 0.68070 0.74875 -0.12700
C 	C 	0.16414 0.54130 0.71100 0.06000
C 	C 	0.16880 0.86140 0.74640 -0.12500
C 	C 	0.21800 0.88280 0.80860 -0.13200
C 	C 	0.17242 0.45300 0.70320 -0.14700
C 	C 	0.13180 0.58010 0.68580 -0.15700
H 	H 	0.15380 0.82390 0.72470 0.09200
C 	C 	0.16290 0.95280 0.74540 0.08300
C 	C 	0.21020 0.97310 0.80530 0.09100
H 	H 	0.23820 0.86080 0.83120 0.07700
C 	C 	0.14910 0.40760 0.66920 0.04800
H 	H 	0.19390 0.42400 0.72100 0.07400
H 	H 	0.12550 0.64080 0.69040 0.09800
C 	C 	0.10900 0.52920 0.65410 0.07200
H 	H 	0.14350 0.97710 0.72270 -0.02700
H 	H 	0.22530 0.01200 0.82620 -0.03300
H 	H 	0.15550 0.34760 0.66320 -0.01800
H 	H 	0.08590 0.55510 0.63810 -0.05900
I 	I 	0.52206 0.16780 0.13070 -0.15700
I 	I 	0.62470 0.22900 0.05583 -0.31900
I 	I 	0.84588 0.10620 0.51060 -0.13000
I 	I 	0.88513 0.23400 0.39600 -0.27300
I 	I 	0.13130 0.83000 0.20060 -0.10700
I 	I 	0.23690 0.77390 0.30130 -0.26700
C 	C 	0.55210 0.77600 0.23200 -0.34300
C 	C 	0.56170 0.69900 0.24980 0.22300
C 	C 	0.59410 0.69180 0.29220 0.07600
C 	C 	0.60810 0.77700 0.31720 0.53600
C 	C 	0.59630 0.85660 0.29470 1.42000
O 	O 	0.56820 0.85360 0.25480 0.72500
C 	C 	0.60970 0.93800 0.30500 -0.18200
C 	C 	0.63270 0.94760 0.35040 -0.04800
C 	C 	0.64260 0.86530 0.37400 0.74400
C 	C 	0.63520 0.77640 0.35760 0.62800
C 	C 	0.52440 0.79700 0.19050 -0.04900
C 	C 	0.50600 0.87830 0.18590 -1.90800
H 	H 	0.51140 0.92210 0.20880 -0.01000
C 	C 	0.47870 0.89610 0.14610 3.94700
H 	H 	0.46810 0.95450 0.14130 -1.00600
C 	C 	0.46710 0.82960 0.11390 -1.44600
C 	C 	0.48440 0.74230 0.12250 -8.81000
C 	C 	0.51400 0.72950 0.15890 3.78300
H 	H 	0.52750 0.67410 0.16220 -3.41400
O 	O 	0.59690 0.61390 0.31040 -0.16400
O 	O 	0.58980 0.00830 0.28860 0.24400
C 	C 	0.59420 0.07600 0.26580 -0.85500
H 	H 	0.57040 0.11250 0.26180 0.77600
H 	H 	0.61610 0.11180 0.28140 1.34200
H 	H 	0.59960 0.05800 0.23650 0.16000
O 	O 	0.63180 0.02200 0.37450 -0.69900
C 	C 	0.66710 0.07200 0.38530 -0.46400
H 	H 	0.66270 0.12470 0.40290 0.15900
H 	H 	0.68730 0.03450 0.40270 4.89800
H 	H 	0.67560 0.09110 0.35760 2.44500
O 	O 	0.44210 0.83670 0.07970 -0.10400
C 	C 	0.41990 0.92300 0.07530 -2.67900
H 	H 	0.40100 0.92210 0.04740 0.82100
H 	H 	0.40630 0.92920 0.10070 0.89000
H 	H 	0.43800 0.97260 0.07490 0.57000
O 	O 	0.47710 0.69020 0.08800 1.82600
C 	C 	0.48600 0.59680 0.09900 -2.97300
H 	H 	0.47970 0.56050 0.07180 0.89000
H 	H 	0.51330 0.59040 0.11200 0.64600
H 	H 	0.46970 0.57660 0.12070 0.61800
O 	O 	0.54230 0.63100 0.23410 -0.22600
C 	C 	0.57260 0.57100 0.21410 -0.10600
H 	H 	0.55970 0.51590 0.20130 0.17300
H 	H 	0.58250 0.60400 0.19080 0.11900
H 	H 	0.59420 0.55470 0.23800 0.07600
O 	O 	0.67190 0.86600 0.41340 -0.29900
C 	C 	0.65120 0.89900 0.44670 -0.25200
H 	H 	0.66890 0.90190 0.47560 0.00800
H 	H 	0.64110 0.95870 0.43830 -0.09400
H 	H 	0.62960 0.85860 0.44920 0.06600
O 	O 	0.65310 0.71660 0.37370 -0.20800
C 	C 	0.64900 0.64500 0.40250 -0.00400
H 	H 	0.67230 0.60860 0.40760 0.02700
H 	H 	0.64370 0.66850 0.43120 0.01500
H 	H 	0.62650 0.60780 0.38890 0.11400
C 	C 	0.48530 0.46200 0.22790 -0.24600
H 	H 	0.48920 0.51550 0.21010 0.00700
H 	H 	0.45840 0.46280 0.23410 0.13800
C 	C 	0.49200 0.37600 0.20140 -0.33400
H 	H 	0.47390 0.37620 0.17220 0.12300
H 	H 	0.51880 0.37430 0.19590 0.30100
C 	C 	0.48340 0.29500 0.22950 -0.00500
H 	H 	0.48360 0.23910 0.21220 0.02400
H 	H 	0.45780 0.30120 0.23900 0.02800
C 	C 	0.59330 0.79000 0.28970 -0.94800
C 	C 	0.58960 0.70860 0.30150 0.10600
C 	C 	0.56620 0.64100 0.26790 0.13300
C 	C 	0.55120 0.67600 0.22060 -0.18700
C 	C 	0.54770 0.76700 0.21690 0.79100
O 	O 	0.56930 0.82290 0.25090 -0.97100
C 	C 	0.52970 0.81200 0.18250 -0.62200
C 	C 	0.50310 0.76000 0.14920 -0.76600
C 	C 	0.50960 0.66400 0.15100 3.49400
C 	C 	0.52590 0.61900 0.19110 0.36600
C 	C 	0.61590 0.86010 0.31790 -1.13600
C 	C 	0.64400 0.84400 0.35430 -0.13400
H 	H 	0.64770 0.78540 0.36670 -0.41100
C 	C 	0.66820 0.91810 0.37380 -0.91800
H 	H 	0.69130 0.90820 0.39490 0.14100
C 	C 	0.65600 0.00570 0.36010 0.83900
C 	C 	0.62890 0.01710 0.31930 0.41500
C 	C 	0.60380 0.94700 0.30420 -0.00200
H 	H 	0.57950 0.95740 0.28530 -0.17100
O 	O 	0.56490 0.55860 0.27930 -0.20800
O 	O 	0.52920 0.89900 0.18380 0.50300
C 	C 	0.51090 0.95400 0.20500 1.08100
H 	H 	0.51770 0.01500 0.19760 -0.39400
H 	H 	0.48280 0.94470 0.19520 -0.29900
H 	H 	0.51800 0.94350 0.23690 -0.24800
O 	O 	0.48210 0.79100 0.11120 7.35700
C 	C 	0.46700 0.88000 0.11400 -6.07100
H 	H 	0.45200 0.89760 0.08470 2.56700
H 	H 	0.44990 0.88190 0.13640 1.07500
H 	H 	0.48850 0.92220 0.12240 0.58300
O 	O 	0.68100 0.06460 0.36940 -2.98700
C 	C 	0.70790 0.06200 0.41200 -11.40900
H 	H 	0.72570 0.11270 0.41400 3.61300
H 	H 	0.69310 0.06430 0.43660 2.33500
H 	H 	0.72280 0.00590 0.41390 2.89800
O 	O 	0.62140 0.09450 0.30060 -1.33600
C 	C 	0.57920 0.10100 0.28160 -1.16200
H 	H 	0.57380 0.15990 0.26750 -0.06400
H 	H 	0.57210 0.05420 0.25910 0.34500
H 	H 	0.56400 0.09400 0.30560 0.40300
O 	O 	0.61760 0.65660 0.32870 -0.11000
C 	C 	0.61350 0.65900 0.37530 -0.37700
H 	H 	0.63370 0.62200 0.39290 0.02500
H 	H 	0.61620 0.72100 0.38610 0.09600
H 	H 	0.58780 0.63630 0.37840 0.23000
O 	O 	0.48290 0.60600 0.12200 0.59700
C 	C 	0.44360 0.63500 0.12200 -1.04800
H 	H 	0.42550 0.59610 0.10260 0.21200
H 	H 	0.43800 0.63330 0.15240 0.31700
H 	H 	0.44060 0.69680 0.11060 0.74000
O 	O 	0.52760 0.54400 0.19170 -0.54500
C 	C 	0.51500 0.46500 0.20980 0.44100
H 	H 	0.52660 0.41310 0.19750 -0.29100
H 	H 	0.52270 0.46570 0.24240 -0.01700
H 	H 	0.48640 0.46100 0.20210 0.04700
C 	C 	0.44790 0.77600 0.26800 -0.34300
C 	C 	0.43830 0.69900 0.25020 0.22400
C 	C 	0.40590 0.69180 0.20780 0.07600
C 	C 	0.39190 0.77700 0.18280 0.53600
C 	C 	0.40370 0.85660 0.20530 1.42000
O 	O 	0.43180 0.85360 0.24520 0.72500
C 	C 	0.39030 0.93800 0.19500 -0.18200
C 	C 	0.36730 0.94760 0.14960 -0.04700
C 	C 	0.35740 0.86530 0.12600 0.74400
C 	C 	0.36480 0.77640 0.14240 0.62800
C 	C 	0.47560 0.79700 0.30950 -0.04900
C 	C 	0.49400 0.87830 0.31410 -1.90800
H 	H 	0.48860 0.92210 0.29120 -0.01100
C 	C 	0.52130 0.89610 0.35390 3.94800
H 	H 	0.53190 0.95450 0.35870 -1.00700
C 	C 	0.53290 0.82960 0.38610 -1.44600
C 	C 	0.51560 0.74230 0.37750 -8.81100
C 	C 	0.48600 0.72950 0.34110 3.78400
H 	H 	0.47250 0.67410 0.33780 -3.41400
O 	O 	0.40310 0.61390 0.18960 -0.16400
O 	O 	0.41020 0.00830 0.21140 0.24300
C 	C 	0.40580 0.07600 0.23420 -0.85500
H 	H 	0.42960 0.11250 0.23820 0.77500
H 	H 	0.38390 0.11180 0.21860 1.34100
H 	H 	0.40040 0.05800 0.26350 0.16000
O 	O 	0.36820 0.02200 0.12550 -0.69800
C 	C 	0.33290 0.07200 0.11470 -0.46400
H 	H 	0.33730 0.12470 0.09710 0.15800
H 	H 	0.31270 0.03450 0.09730 4.89500
H 	H 	0.32440 0.09110 0.14240 2.44200
O 	O 	0.55790 0.83670 0.42030 -0.10400
C 	C 	0.58010 0.92300 0.42470 -2.67900
H 	H 	0.59900 0.92210 0.45260 0.82000
H 	H 	0.59370 0.92920 0.39930 0.89000
H 	H 	0.56200 0.97260 0.42510 0.57000
O 	O 	0.52290 0.69020 0.41200 1.82700
C 	C 	0.51400 0.59680 0.40100 -2.97400
H 	H 	0.52030 0.56050 0.42820 0.89000
H 	H 	0.48670 0.59040 0.38800 0.64600
H 	H 	0.53030 0.57660 0.37930 0.61800
O 	O 	0.45770 0.63100 0.26590 -0.22500
C 	C 	0.42740 0.57100 0.28590 -0.10600
H 	H 	0.44030 0.51590 0.29870 0.17300
H 	H 	0.41750 0.60400 0.30920 0.11900
H 	H 	0.40580 0.55470 0.26200 0.07600
O 	O 	0.32810 0.86600 0.08660 -0.29900
C 	C 	0.34880 0.89900 0.05330 -0.25200
H 	H 	0.33110 0.90190 0.02440 0.00900
H 	H 	0.35890 0.95870 0.06170 -0.09400
H 	H 	0.37040 0.85860 0.05080 0.06600
O 	O 	0.34690 0.71660 0.12630 -0.20800
C 	C 	0.35100 0.64500 0.09750 -0.00400
H 	H 	0.32770 0.60860 0.09240 0.02700
H 	H 	0.35630 0.66850 0.06880 0.01500
H 	H 	0.37350 0.60780 0.11110 0.11400
C 	C 	0.51470 0.46200 0.27210 -0.24700
H 	H 	0.51080 0.51550 0.28990 0.00700
H 	H 	0.54160 0.46280 0.26590 0.13800
C 	C 	0.50800 0.37600 0.29860 -0.33300
H 	H 	0.52610 0.37620 0.32780 0.12300
H 	H 	0.48120 0.37430 0.30410 0.30000
C 	C 	0.51660 0.29500 0.27050 -0.00500
H 	H 	0.51640 0.23910 0.28780 0.02400
H 	H 	0.54220 0.30120 0.26100 0.02800
C 	C 	0.40670 0.79000 0.21030 -0.94900
C 	C 	0.41040 0.70860 0.19850 0.10600
C 	C 	0.43380 0.64100 0.23210 0.13300
C 	C 	0.44880 0.67600 0.27940 -0.18700
C 	C 	0.45230 0.76700 0.28310 0.79100
O 	O 	0.43070 0.82290 0.24910 -0.97100
C 	C 	0.47030 0.81200 0.31750 -0.62200
C 	C 	0.49690 0.76000 0.35080 -0.76600
C 	C 	0.49040 0.66400 0.34900 3.49400
C 	C 	0.47410 0.61900 0.30890 0.36600
C 	C 	0.38410 0.86010 0.18210 -1.13500
C 	C 	0.35600 0.84400 0.14570 -0.13500
H 	H 	0.35230 0.78540 0.13330 -0.41100
C 	C 	0.33180 0.91810 0.12620 -0.91700
H 	H 	0.30870 0.90820 0.10510 0.14100
C 	C 	0.34400 0.00570 0.13990 0.83700
C 	C 	0.37110 0.01710 0.18070 0.41500
C 	C 	0.39620 0.94700 0.19580 -0.00300
H 	H 	0.42050 0.95740 0.21470 -0.17100
O 	O 	0.43510 0.55860 0.22070 -0.20800
O 	O 	0.47080 0.89900 0.31620 0.50300
C 	C 	0.48910 0.95400 0.29500 1.08200
H 	H 	0.48230 0.01500 0.30240 -0.39300
H 	H 	0.51720 0.94470 0.30480 -0.29900
H 	H 	0.48200 0.94350 0.26310 -0.24900
O 	O 	0.51790 0.79100 0.38880 7.35800
C 	C 	0.53300 0.88000 0.38600 -6.07200
H 	H 	0.54800 0.89760 0.41530 2.56800
H 	H 	0.55010 0.88190 0.36360 1.07500
H 	H 	0.51150 0.92220 0.37760 0.58300
O 	O 	0.31900 0.06460 0.13060 -2.98400
C 	C 	0.29210 0.06200 0.08800 -11.40200
H 	H 	0.27430 0.11270 0.08600 3.61100
H 	H 	0.30690 0.06430 0.06340 2.33400
H 	H 	0.27720 0.00590 0.08610 2.89500
O 	O 	0.37860 0.09450 0.19940 -1.33600
C 	C 	0.42080 0.10100 0.21840 -1.16100
H 	H 	0.42620 0.15990 0.23250 -0.06400
H 	H 	0.42790 0.05420 0.24090 0.34500
H 	H 	0.43600 0.09400 0.19440 0.40300
O 	O 	0.38240 0.65660 0.17130 -0.11000
C 	C 	0.38650 0.65900 0.12470 -0.37700
H 	H 	0.36630 0.62200 0.10710 0.02500
H 	H 	0.38380 0.72100 0.11390 0.09500
H 	H 	0.41220 0.63630 0.12160 0.23000
O 	O 	0.51710 0.60600 0.37800 0.59700
C 	C 	0.55640 0.63500 0.37800 -1.04800
H 	H 	0.57450 0.59610 0.39740 0.21200
H 	H 	0.56200 0.63330 0.34760 0.31700
H 	H 	0.55940 0.69680 0.38940 0.74000
O 	O 	0.47240 0.54400 0.30830 -0.54500
C 	C 	0.48500 0.46500 0.29020 0.44100
H 	H 	0.47340 0.41310 0.30250 -0.29100
H 	H 	0.47730 0.46570 0.25760 -0.01700
H 	H 	0.51360 0.46100 0.29790 0.04700
C 	C 	0.05210 0.27600 0.23200 -0.34300
C 	C 	0.06170 0.19900 0.24980 0.22200
C 	C 	0.09410 0.19180 0.29220 0.07600
C 	C 	0.10810 0.27700 0.31720 0.53500
C 	C 	0.09630 0.35660 0.29470 1.41900
O 	O 	0.06820 0.35360 0.25480 0.72400
C 	C 	0.10970 0.43800 0.30500 -0.18200
C 	C 	0.13270 0.44760 0.35040 -0.04900
C 	C 	0.14260 0.36530 0.37400 0.74200
C 	C 	0.13520 0.27640 0.35760 0.62700
C 	C 	0.02440 0.29700 0.19050 -0.04900
C 	C 	0.00600 0.37830 0.18590 -1.91100
H 	H 	0.01140 0.42210 0.20880 -0.01100
C 	C 	0.97870 0.39610 0.14610 3.95300
H 	H 	0.96810 0.45450 0.14130 -1.00800
C 	C 	0.96710 0.32960 0.11390 -1.44800
C 	C 	0.98440 0.24230 0.12250 -8.81700
C 	C 	0.01400 0.22950 0.15890 3.78500
H 	H 	0.02750 0.17410 0.16220 -3.41600
O 	O 	0.09690 0.11390 0.31040 -0.16400
O 	O 	0.08980 0.50830 0.28860 0.24600
C 	C 	0.09420 0.57600 0.26580 -0.85800
H 	H 	0.07040 0.61250 0.26180 0.77800
H 	H 	0.11610 0.61180 0.28140 1.34400
H 	H 	0.09960 0.55800 0.23650 0.16100
O 	O 	0.13180 0.52200 0.37450 -0.69800
C 	C 	0.16710 0.57200 0.38530 -0.46500
H 	H 	0.16270 0.62470 0.40290 0.15900
H 	H 	0.18730 0.53450 0.40270 4.89800
H 	H 	0.17560 0.59110 0.35760 2.44500
O 	O 	0.94210 0.33670 0.07970 -0.10400
C 	C 	0.91990 0.42300 0.07530 -2.68000
H 	H 	0.90100 0.42210 0.04740 0.82100
H 	H 	0.90630 0.42920 0.10070 0.89100
H 	H 	0.93800 0.47260 0.07490 0.57000
O 	O 	0.97710 0.19020 0.08800 1.82800
C 	C 	0.98600 0.09680 0.09900 -2.97400
H 	H 	0.97970 0.06050 0.07180 0.89000
H 	H 	0.01330 0.09040 0.11200 0.64600
H 	H 	0.96970 0.07660 0.12070 0.61800
O 	O 	0.04230 0.13100 0.23410 -0.22700
C 	C 	0.07260 0.07100 0.21410 -0.10500
H 	H 	0.05970 0.01590 0.20130 0.17300
H 	H 	0.08250 0.10400 0.19080 0.11900
H 	H 	0.09420 0.05470 0.23800 0.07500
O 	O 	0.17190 0.36600 0.41340 -0.29900
C 	C 	0.15120 0.39900 0.44670 -0.25100
H 	H 	0.16890 0.40190 0.47560 0.00800
H 	H 	0.14110 0.45870 0.43830 -0.09400
H 	H 	0.12960 0.35860 0.44920 0.06600
O 	O 	0.15310 0.21660 0.37370 -0.20800
C 	C 	0.14900 0.14500 0.40250 -0.00400
H 	H 	0.17230 0.10860 0.40760 0.02700
H 	H 	0.14370 0.16850 0.43120 0.01500
H 	H 	0.12650 0.10780 0.38890 0.11400
C 	C 	0.98530 0.96200 0.22790 -0.24400
H 	H 	0.98920 0.01550 0.21010 0.00500
H 	H 	0.95840 0.96280 0.23410 0.13600
C 	C 	0.99200 0.87600 0.20140 -0.34300
H 	H 	0.97390 0.87620 0.17220 0.12700
H 	H 	0.01880 0.87430 0.19590 0.30800
C 	C 	0.98340 0.79500 0.22950 0.00300
H 	H 	0.98360 0.73910 0.21220 0.02200
H 	H 	0.95780 0.80120 0.23900 0.02600
C 	C 	0.09330 0.29000 0.28970 -0.94600
C 	C 	0.08960 0.20860 0.30150 0.10600
C 	C 	0.06620 0.14100 0.26790 0.13500
C 	C 	0.05120 0.17600 0.22060 -0.18600
C 	C 	0.04770 0.26700 0.21690 0.79200
O 	O 	0.06930 0.32290 0.25090 -0.97100
C 	C 	0.02970 0.31200 0.18250 -0.62100
C 	C 	0.00310 0.26000 0.14920 -0.76600
C 	C 	0.00960 0.16400 0.15100 3.49600
C 	C 	0.02590 0.11900 0.19110 0.36800
C 	C 	0.11590 0.36010 0.31790 -1.13400
C 	C 	0.14400 0.34400 0.35430 -0.13200
H 	H 	0.14770 0.28540 0.36670 -0.41100
C 	C 	0.16820 0.41810 0.37380 -0.91800
H 	H 	0.19130 0.40820 0.39490 0.14000
C 	C 	0.15600 0.50570 0.36010 0.84000
C 	C 	0.12890 0.51710 0.31930 0.41500
C 	C 	0.10380 0.44700 0.30420 -0.00300
H 	H 	0.07950 0.45740 0.28530 -0.17200
O 	O 	0.06490 0.05860 0.27930 -0.20900
O 	O 	0.02920 0.39900 0.18380 0.50400
C 	C 	0.01090 0.45400 0.20500 1.08400
H 	H 	0.01770 0.51500 0.19760 -0.39400
H 	H 	0.98280 0.44470 0.19520 -0.30000
H 	H 	0.01800 0.44350 0.23690 -0.24900
O 	O 	0.98210 0.29100 0.11120 7.36300
C 	C 	0.96700 0.38000 0.11400 -6.07700
H 	H 	0.95200 0.39760 0.08470 2.57000
H 	H 	0.94990 0.38190 0.13640 1.07500
H 	H 	0.98850 0.42220 0.12240 0.58300
O 	O 	0.18100 0.56460 0.36940 -2.98800
C 	C 	0.20790 0.56200 0.41200 -11.41000
H 	H 	0.22570 0.61270 0.41400 3.61300
H 	H 	0.19310 0.56430 0.43660 2.33500
H 	H 	0.22280 0.50590 0.41390 2.89800
O 	O 	0.12140 0.59450 0.30060 -1.33800
C 	C 	0.07920 0.60100 0.28160 -1.16400
H 	H 	0.07380 0.65990 0.26750 -0.06400
H 	H 	0.07210 0.55420 0.25910 0.34600
H 	H 	0.06400 0.59400 0.30560 0.40300
O 	O 	0.11760 0.15660 0.32870 -0.11000
C 	C 	0.11350 0.15900 0.37530 -0.37700
H 	H 	0.13370 0.12200 0.39290 0.02500
H 	H 	0.11620 0.22100 0.38610 0.09600
H 	H 	0.08780 0.13630 0.37840 0.23000
O 	O 	0.98290 0.10600 0.12200 0.59800
C 	C 	0.94360 0.13500 0.12200 -1.04800
H 	H 	0.92550 0.09610 0.10260 0.21200
H 	H 	0.93800 0.13330 0.15240 0.31700
H 	H 	0.94060 0.19680 0.11060 0.74000
O 	O 	0.02760 0.04400 0.19170 -0.54900
C 	C 	0.01500 0.96500 0.20980 0.45400
H 	H 	0.02660 0.91310 0.19750 -0.30000
H 	H 	0.02270 0.96570 0.24240 -0.02100
H 	H 	0.98640 0.96100 0.20210 0.04500
C 	C 	0.94790 0.27600 0.26800 -0.34300
C 	C 	0.93830 0.19900 0.25020 0.22200
C 	C 	0.90590 0.19180 0.20780 0.07600
C 	C 	0.89190 0.27700 0.18280 0.53700
C 	C 	0.90370 0.35660 0.20530 1.42300
O 	O 	0.93180 0.35360 0.24520 0.72700
C 	C 	0.89030 0.43800 0.19500 -0.18300
C 	C 	0.86730 0.44760 0.14960 -0.04900
C 	C 	0.85740 0.36530 0.12600 0.74500
C 	C 	0.86480 0.27640 0.14240 0.62900
C 	C 	0.97560 0.29700 0.30950 -0.04900
C 	C 	0.99400 0.37830 0.31410 -1.90500
H 	H 	0.98860 0.42210 0.29120 -0.01100
C 	C 	0.02130 0.39610 0.35390 3.94600
H 	H 	0.03190 0.45450 0.35870 -1.00600
C 	C 	0.03290 0.32960 0.38610 -1.44600
C 	C 	0.01560 0.24230 0.37750 -8.81400
C 	C 	0.98600 0.22950 0.34110 3.78600
H 	H 	0.97250 0.17410 0.33780 -3.41500
O 	O 	0.90310 0.11390 0.18960 -0.16400
O 	O 	0.91020 0.50830 0.21140 0.24700
C 	C 	0.90580 0.57600 0.23420 -0.85900
H 	H 	0.92960 0.61250 0.23820 0.77800
H 	H 	0.88390 0.61180 0.21860 1.34400
H 	H 	0.90040 0.55800 0.26350 0.16100
O 	O 	0.86820 0.52200 0.12550 -0.69900
C 	C 	0.83290 0.57200 0.11470 -0.46500
H 	H 	0.83730 0.62470 0.09710 0.15900
H 	H 	0.81270 0.53450 0.09730 4.89900
H 	H 	0.82440 0.59110 0.14240 2.44600
O 	O 	0.05790 0.33670 0.42030 -0.10500
C 	C 	0.08010 0.42300 0.42470 -2.67900
H 	H 	0.09900 0.42210 0.45260 0.82000
H 	H 	0.09370 0.42920 0.39930 0.89000
H 	H 	0.06200 0.47260 0.42510 0.56900
O 	O 	0.02290 0.19020 0.41200 1.82700
C 	C 	0.01400 0.09680 0.40100 -2.97500
H 	H 	0.02030 0.06050 0.42820 0.89100
H 	H 	0.98670 0.09040 0.38800 0.64700
H 	H 	0.03030 0.07660 0.37930 0.61800
O 	O 	0.95770 0.13100 0.26590 -0.22600
C 	C 	0.92740 0.07100 0.28590 -0.10600
H 	H 	0.94030 0.01590 0.29870 0.17300
H 	H 	0.91750 0.10400 0.30920 0.11900
H 	H 	0.90580 0.05470 0.26200 0.07600
O 	O 	0.82810 0.36600 0.08660 -0.29900
C 	C 	0.84880 0.39900 0.05330 -0.25100
H 	H 	0.83110 0.40190 0.02440 0.00800
H 	H 	0.85890 0.45870 0.06170 -0.09400
H 	H 	0.87040 0.35860 0.05080 0.06600
O 	O 	0.84690 0.21660 0.12630 -0.20800
C 	C 	0.85100 0.14500 0.09750 -0.00300
H 	H 	0.82770 0.10860 0.09240 0.02700
H 	H 	0.85630 0.16850 0.06880 0.01500
H 	H 	0.87350 0.10780 0.11110 0.11400
C 	C 	0.01470 0.96200 0.27210 -0.25200
H 	H 	0.01080 0.01550 0.28990 0.01000
H 	H 	0.04160 0.96280 0.26590 0.14000
C 	C 	0.00800 0.87600 0.29860 -0.32100
H 	H 	0.02610 0.87620 0.32780 0.11900
H 	H 	0.98120 0.87430 0.30410 0.29000
C 	C 	0.01660 0.79500 0.27050 -0.01400
H 	H 	0.01640 0.73910 0.28780 0.02700
H 	H 	0.04220 0.80120 0.26100 0.03000
C 	C 	0.90670 0.29000 0.21030 -0.95000
C 	C 	0.91040 0.20860 0.19850 0.10700
C 	C 	0.93380 0.14100 0.23210 0.13400
C 	C 	0.94880 0.17600 0.27940 -0.18500
C 	C 	0.95230 0.26700 0.28310 0.79300
O 	O 	0.93070 0.32290 0.24910 -0.97300
C 	C 	0.97030 0.31200 0.31750 -0.62300
C 	C 	0.99690 0.26000 0.35080 -0.76700
C 	C 	0.99040 0.16400 0.34900 3.49600
C 	C 	0.97410 0.11900 0.30890 0.36300
C 	C 	0.88410 0.36010 0.18210 -1.13700
C 	C 	0.85600 0.34400 0.14570 -0.13400
H 	H 	0.85230 0.28540 0.13330 -0.41200
C 	C 	0.83180 0.41810 0.12620 -0.92000
H 	H 	0.80870 0.40820 0.10510 0.14100
C 	C 	0.84400 0.50570 0.13990 0.84000
C 	C 	0.87110 0.51710 0.18070 0.41500
C 	C 	0.89620 0.44700 0.19580 -0.00300
H 	H 	0.92050 0.45740 0.21470 -0.17300
O 	O 	0.93510 0.05860 0.22070 -0.20800
O 	O 	0.97080 0.39900 0.31620 0.50200
C 	C 	0.98910 0.45400 0.29500 1.08100
H 	H 	0.98230 0.51500 0.30240 -0.39300
H 	H 	0.01720 0.44470 0.30480 -0.30000
H 	H 	0.98200 0.44350 0.26310 -0.24800
O 	O 	0.01790 0.29100 0.38880 7.36000
C 	C 	0.03300 0.38000 0.38600 -6.07400
H 	H 	0.04800 0.39760 0.41530 2.56800
H 	H 	0.05010 0.38190 0.36360 1.07600
H 	H 	0.01150 0.42220 0.37760 0.58400
O 	O 	0.81900 0.56460 0.13060 -2.98900
C 	C 	0.79210 0.56200 0.08800 -11.41200
H 	H 	0.77430 0.61270 0.08600 3.61400
H 	H 	0.80690 0.56430 0.06340 2.33600
H 	H 	0.77720 0.50590 0.08610 2.89800
O 	O 	0.87860 0.59450 0.19940 -1.33800
C 	C 	0.92080 0.60100 0.21840 -1.16500
H 	H 	0.92620 0.65990 0.23250 -0.06400
H 	H 	0.92790 0.55420 0.24090 0.34600
H 	H 	0.93600 0.59400 0.19440 0.40400
O 	O 	0.88240 0.15660 0.17130 -0.11000
C 	C 	0.88650 0.15900 0.12470 -0.37600
H 	H 	0.86630 0.12200 0.10710 0.02500
H 	H 	0.88380 0.22100 0.11390 0.09500
H 	H 	0.91220 0.13630 0.12160 0.23000
O 	O 	0.01710 0.10600 0.37800 0.59700
C 	C 	0.05640 0.13500 0.37800 -1.04800
H 	H 	0.07450 0.09610 0.39740 0.21200
H 	H 	0.06200 0.13330 0.34760 0.31700
H 	H 	0.05940 0.19680 0.38940 0.74000
O 	O 	0.97240 0.04400 0.30830 -0.54100
C 	C 	0.98500 0.96500 0.29020 0.42300
H 	H 	0.97340 0.91310 0.30250 -0.27900
H 	H 	0.97730 0.96570 0.25760 -0.01000
H 	H 	0.01360 0.96100 0.29790 0.05200
C 	C 	0.44790 0.22400 0.76800 -0.34300
C 	C 	0.43830 0.30100 0.75020 0.22300
C 	C 	0.40590 0.30820 0.70780 0.07600
C 	C 	0.39190 0.22300 0.68280 0.53600
C 	C 	0.40370 0.14340 0.70530 1.42000
O 	O 	0.43180 0.14640 0.74520 0.72500
C 	C 	0.39030 0.06200 0.69500 -0.18200
C 	C 	0.36730 0.05240 0.64960 -0.04800
C 	C 	0.35740 0.13470 0.62600 0.74400
C 	C 	0.36480 0.22360 0.64240 0.62800
C 	C 	0.47560 0.20300 0.80950 -0.04900
C 	C 	0.49400 0.12170 0.81410 -1.90800
H 	H 	0.48860 0.07790 0.79120 -0.01000
C 	C 	0.52130 0.10390 0.85390 3.94700
H 	H 	0.53190 0.04550 0.85870 -1.00600
C 	C 	0.53290 0.17040 0.88610 -1.44600
C 	C 	0.51560 0.25770 0.87750 -8.81000
C 	C 	0.48600 0.27050 0.84110 3.78300
H 	H 	0.47250 0.32590 0.83780 -3.41400
O 	O 	0.40310 0.38610 0.68960 -0.16400
O 	O 	0.41020 0.99170 0.71140 0.24400
C 	C 	0.40580 0.92400 0.73420 -0.85500
H 	H 	0.42960 0.88750 0.73820 0.77600
H 	H 	0.38390 0.88820 0.71860 1.34200
H 	H 	0.40040 0.94200 0.76350 0.16000
O 	O 	0.36820 0.97800 0.62550 -0.69900
C 	C 	0.33290 0.92800 0.61470 -0.46400
H 	H 	0.33730 0.87530 0.59710 0.15900
H 	H 	0.31270 0.96550 0.59730 4.89800
H 	H 	0.32440 0.90890 0.64240 2.44500
O 	O 	0.55790 0.16330 0.92030 -0.10400
C 	C 	0.58010 0.07700 0.92470 -2.67900
H 	H 	0.59900 0.07790 0.95260 0.82100
H 	H 	0.59370 0.07080 0.89930 0.89000
H 	H 	0.56200 0.02740 0.92510 0.57000
O 	O 	0.52290 0.30980 0.91200 1.82600
C 	C 	0.51400 0.40320 0.90100 -2.97300
H 	H 	0.52030 0.43950 0.92820 0.89000
H 	H 	0.48670 0.40960 0.88800 0.64600
H 	H 	0.53030 0.42340 0.87930 0.61800
O 	O 	0.45770 0.36900 0.76590 -0.22600
C 	C 	0.42740 0.42900 0.78590 -0.10600
H 	H 	0.44030 0.48410 0.79870 0.17300
H 	H 	0.41750 0.39600 0.80920 0.11900
H 	H 	0.40580 0.44530 0.76200 0.07600
O 	O 	0.32810 0.13400 0.58660 -0.29900
C 	C 	0.34880 0.10100 0.55330 -0.25200
H 	H 	0.33110 0.09810 0.52440 0.00800
H 	H 	0.35890 0.04130 0.56170 -0.09400
H 	H 	0.37040 0.14140 0.55080 0.06600
O 	O 	0.34690 0.28340 0.62630 -0.20800
C 	C 	0.35100 0.35500 0.59750 -0.00400
H 	H 	0.32770 0.39140 0.59240 0.02700
H 	H 	0.35630 0.33150 0.56880 0.01500
H 	H 	0.37350 0.39220 0.61110 0.11400
C 	C 	0.51470 0.53800 0.77210 -0.24600
H 	H 	0.51080 0.48450 0.78990 0.00700
H 	H 	0.54160 0.53720 0.76590 0.13800
C 	C 	0.50800 0.62400 0.79860 -0.33400
H 	H 	0.52610 0.62380 0.82780 0.12300
H 	H 	0.48120 0.62570 0.80410 0.30100
C 	C 	0.51660 0.70500 0.77050 -0.00500
H 	H 	0.51640 0.76090 0.78780 0.02400
H 	H 	0.54220 0.69880 0.76100 0.02800
C 	C 	0.40670 0.21000 0.71030 -0.94800
C 	C 	0.41040 0.29140 0.69850 0.10600
C 	C 	0.43380 0.35900 0.73210 0.13300
C 	C 	0.44880 0.32400 0.77940 -0.18700
C 	C 	0.45230 0.23300 0.78310 0.79100
O 	O 	0.43070 0.17710 0.74910 -0.97100
C 	C 	0.47030 0.18800 0.81750 -0.62200
C 	C 	0.49690 0.24000 0.85080 -0.76600
C 	C 	0.49040 0.33600 0.84900 3.49400
C 	C 	0.47410 0.38100 0.80890 0.36600
C 	C 	0.38410 0.13990 0.68210 -1.13600
C 	C 	0.35600 0.15600 0.64570 -0.13400
H 	H 	0.35230 0.21460 0.63330 -0.41100
C 	C 	0.33180 0.08190 0.62620 -0.91800
H 	H 	0.30870 0.09180 0.60510 0.14100
C 	C 	0.34400 0.99430 0.63990 0.83900
C 	C 	0.37110 0.98290 0.68070 0.41500
C 	C 	0.39620 0.05300 0.69580 -0.00200
H 	H 	0.42050 0.04260 0.71470 -0.17100
O 	O 	0.43510 0.44140 0.72070 -0.20800
O 	O 	0.47080 0.10100 0.81620 0.50300
C 	C 	0.48910 0.04600 0.79500 1.08100
H 	H 	0.48230 0.98500 0.80240 -0.39400
H 	H 	0.51720 0.05530 0.80480 -0.29900
H 	H 	0.48200 0.05650 0.76310 -0.24800
O 	O 	0.51790 0.20900 0.88880 7.35700
C 	C 	0.53300 0.12000 0.88600 -6.07100
H 	H 	0.54800 0.10240 0.91530 2.56700
H 	H 	0.55010 0.11810 0.86360 1.07500
H 	H 	0.51150 0.07780 0.87760 0.58300
O 	O 	0.31900 0.93540 0.63060 -2.98700
C 	C 	0.29210 0.93800 0.58800 -11.40900
H 	H 	0.27430 0.88730 0.58600 3.61300
H 	H 	0.30690 0.93570 0.56340 2.33500
H 	H 	0.27720 0.99410 0.58610 2.89800
O 	O 	0.37860 0.90550 0.69940 -1.33600
C 	C 	0.42080 0.89900 0.71840 -1.16200
H 	H 	0.42620 0.84010 0.73250 -0.06400
H 	H 	0.42790 0.94580 0.74090 0.34500
H 	H 	0.43600 0.90600 0.69440 0.40300
O 	O 	0.38240 0.34340 0.67130 -0.11000
C 	C 	0.38650 0.34100 0.62470 -0.37700
H 	H 	0.36630 0.37800 0.60710 0.02500
H 	H 	0.38380 0.27900 0.61390 0.09600
H 	H 	0.41220 0.36370 0.62160 0.23000
O 	O 	0.51710 0.39400 0.87800 0.59700
C 	C 	0.55640 0.36500 0.87800 -1.04800
H 	H 	0.57450 0.40390 0.89740 0.21200
H 	H 	0.56200 0.36670 0.84760 0.31700
H 	H 	0.55940 0.30320 0.88940 0.74000
O 	O 	0.47240 0.45600 0.80830 -0.54500
C 	C 	0.48500 0.53500 0.79020 0.44100
H 	H 	0.47340 0.58690 0.80250 -0.29100
H 	H 	0.47730 0.53430 0.75760 -0.01700
H 	H 	0.51360 0.53900 0.79790 0.04700
C 	C 	0.55210 0.22400 0.73200 -0.34300
C 	C 	0.56170 0.30100 0.74980 0.22400
C 	C 	0.59410 0.30820 0.79220 0.07600
C 	C 	0.60810 0.22300 0.81720 0.53600
C 	C 	0.59630 0.14340 0.79470 1.42000
O 	O 	0.56820 0.14640 0.75480 0.72500
C 	C 	0.60970 0.06200 0.80500 -0.18200
C 	C 	0.63270 0.05240 0.85040 -0.04700
C 	C 	0.64260 0.13470 0.87400 0.74400
C 	C 	0.63520 0.22360 0.85760 0.62800
C 	C 	0.52440 0.20300 0.69050 -0.04900
C 	C 	0.50600 0.12170 0.68590 -1.90800
H 	H 	0.51140 0.07790 0.70880 -0.01100
C 	C 	0.47870 0.10390 0.64610 3.94800
H 	H 	0.46810 0.04550 0.64130 -1.00700
C 	C 	0.46710 0.17040 0.61390 -1.44600
C 	C 	0.48440 0.25770 0.62250 -8.81100
C 	C 	0.51400 0.27050 0.65890 3.78400
H 	H 	0.52750 0.32590 0.66220 -3.41400
O 	O 	0.59690 0.38610 0.81040 -0.16400
O 	O 	0.58980 0.99170 0.78860 0.24300
C 	C 	0.59420 0.92400 0.76580 -0.85500
H 	H 	0.57040 0.88750 0.76180 0.77500
H 	H 	0.61610 0.88820 0.78140 1.34100
H 	H 	0.59960 0.94200 0.73650 0.16000
O 	O 	0.63180 0.97800 0.87450 -0.69800
C 	C 	0.66710 0.92800 0.88530 -0.46400
H 	H 	0.66270 0.87530 0.90290 0.15800
H 	H 	0.68730 0.96550 0.90270 4.89500
H 	H 	0.67560 0.90890 0.85760 2.44200
O 	O 	0.44210 0.16330 0.57970 -0.10400
C 	C 	0.41990 0.07700 0.57530 -2.67900
H 	H 	0.40100 0.07790 0.54740 0.82000
H 	H 	0.40630 0.07080 0.60070 0.89000
H 	H 	0.43800 0.02740 0.57490 0.57000
O 	O 	0.47710 0.30980 0.58800 1.82700
C 	C 	0.48600 0.40320 0.59900 -2.97400
H 	H 	0.47970 0.43950 0.57180 0.89000
H 	H 	0.51330 0.40960 0.61200 0.64600
H 	H 	0.46970 0.42340 0.62070 0.61800
O 	O 	0.54230 0.36900 0.73410 -0.22500
C 	C 	0.57260 0.42900 0.71410 -0.10600
H 	H 	0.55970 0.48410 0.70130 0.17300
H 	H 	0.58250 0.39600 0.69080 0.11900
H 	H 	0.59420 0.44530 0.73800 0.07600
O 	O 	0.67190 0.13400 0.91340 -0.29900
C 	C 	0.65120 0.10100 0.94670 -0.25200
H 	H 	0.66890 0.09810 0.97560 0.00900
H 	H 	0.64110 0.04130 0.93830 -0.09400
H 	H 	0.62960 0.14140 0.94920 0.06600
O 	O 	0.65310 0.28340 0.87370 -0.20800
C 	C 	0.64900 0.35500 0.90250 -0.00400
H 	H 	0.67230 0.39140 0.90760 0.02700
H 	H 	0.64370 0.33150 0.93120 0.01500
H 	H 	0.62650 0.39220 0.88890 0.11400
C 	C 	0.48530 0.53800 0.72790 -0.24700
H 	H 	0.48920 0.48450 0.71010 0.00700
H 	H 	0.45840 0.53720 0.73410 0.13800
C 	C 	0.49200 0.62400 0.70140 -0.33300
H 	H 	0.47390 0.62380 0.67220 0.12300
H 	H 	0.51880 0.62570 0.69590 0.30000
C 	C 	0.48340 0.70500 0.72950 -0.00500
H 	H 	0.48360 0.76090 0.71220 0.02400
H 	H 	0.45780 0.69880 0.73900 0.02800
C 	C 	0.59330 0.21000 0.78970 -0.94900
C 	C 	0.58960 0.29140 0.80150 0.10600
C 	C 	0.56620 0.35900 0.76790 0.13300
C 	C 	0.55120 0.32400 0.72060 -0.18700
C 	C 	0.54770 0.23300 0.71690 0.79100
O 	O 	0.56930 0.17710 0.75090 -0.97100
C 	C 	0.52970 0.18800 0.68250 -0.62200
C 	C 	0.50310 0.24000 0.64920 -0.76600
C 	C 	0.50960 0.33600 0.65100 3.49400
C 	C 	0.52590 0.38100 0.69110 0.36600
C 	C 	0.61590 0.13990 0.81790 -1.13500
C 	C 	0.64400 0.15600 0.85430 -0.13500
H 	H 	0.64770 0.21460 0.86670 -0.41100
C 	C 	0.66820 0.08190 0.87380 -0.91700
H 	H 	0.69130 0.09180 0.89490 0.14100
C 	C 	0.65600 0.99430 0.86010 0.83700
C 	C 	0.62890 0.98290 0.81930 0.41500
C 	C 	0.60380 0.05300 0.80420 -0.00300
H 	H 	0.57950 0.04260 0.78530 -0.17100
O 	O 	0.56490 0.44140 0.77930 -0.20800
O 	O 	0.52920 0.10100 0.68380 0.50300
C 	C 	0.51090 0.04600 0.70500 1.08200
H 	H 	0.51770 0.98500 0.69760 -0.39300
H 	H 	0.48280 0.05530 0.69520 -0.29900
H 	H 	0.51800 0.05650 0.73690 -0.24900
O 	O 	0.48210 0.20900 0.61120 7.35800
C 	C 	0.46700 0.12000 0.61400 -6.07200
H 	H 	0.45200 0.10240 0.58470 2.56800
H 	H 	0.44990 0.11810 0.63640 1.07500
H 	H 	0.48850 0.07780 0.62240 0.58300
O 	O 	0.68100 0.93540 0.86940 -2.98400
C 	C 	0.70790 0.93800 0.91200 -11.40200
H 	H 	0.72570 0.88730 0.91400 3.61100
H 	H 	0.69310 0.93570 0.93660 2.33400
H 	H 	0.72280 0.99410 0.91390 2.89500
O 	O 	0.62140 0.90550 0.80060 -1.33600
C 	C 	0.57920 0.89900 0.78160 -1.16100
H 	H 	0.57380 0.84010 0.76750 -0.06400
H 	H 	0.57210 0.94580 0.75910 0.34500
H 	H 	0.56400 0.90600 0.80560 0.40300
O 	O 	0.61760 0.34340 0.82870 -0.11000
C 	C 	0.61350 0.34100 0.87530 -0.37700
H 	H 	0.63370 0.37800 0.89290 0.02500
H 	H 	0.61620 0.27900 0.88610 0.09500
H 	H 	0.58780 0.36370 0.87840 0.23000
O 	O 	0.48290 0.39400 0.62200 0.59700
C 	C 	0.44360 0.36500 0.62200 -1.04800
H 	H 	0.42550 0.40390 0.60260 0.21200
H 	H 	0.43800 0.36670 0.65240 0.31700
H 	H 	0.44060 0.30320 0.61060 0.74000
O 	O 	0.52760 0.45600 0.69170 -0.54500
C 	C 	0.51500 0.53500 0.70980 0.44100
H 	H 	0.52660 0.58690 0.69750 -0.29100
H 	H 	0.52270 0.53430 0.74240 -0.01700
H 	H 	0.48640 0.53900 0.70210 0.04700
C 	C 	0.94790 0.72400 0.76800 -0.34300
C 	C 	0.93830 0.80100 0.75020 0.22200
C 	C 	0.90590 0.80820 0.70780 0.07600
C 	C 	0.89190 0.72300 0.68280 0.53500
C 	C 	0.90370 0.64340 0.70530 1.41900
O 	O 	0.93180 0.64640 0.74520 0.72400
C 	C 	0.89030 0.56200 0.69500 -0.18200
C 	C 	0.86730 0.55240 0.64960 -0.04900
C 	C 	0.85740 0.63470 0.62600 0.74200
C 	C 	0.86480 0.72360 0.64240 0.62700
C 	C 	0.97560 0.70300 0.80950 -0.04900
C 	C 	0.99400 0.62170 0.81410 -1.91100
H 	H 	0.98860 0.57790 0.79120 -0.01100
C 	C 	0.02130 0.60390 0.85390 3.95300
H 	H 	0.03190 0.54550 0.85870 -1.00800
C 	C 	0.03290 0.67040 0.88610 -1.44800
C 	C 	0.01560 0.75770 0.87750 -8.81700
C 	C 	0.98600 0.77050 0.84110 3.78500
H 	H 	0.97250 0.82590 0.83780 -3.41600
O 	O 	0.90310 0.88610 0.68960 -0.16400
O 	O 	0.91020 0.49170 0.71140 0.24600
C 	C 	0.90580 0.42400 0.73420 -0.85800
H 	H 	0.92960 0.38750 0.73820 0.77800
H 	H 	0.88390 0.38820 0.71860 1.34400
H 	H 	0.90040 0.44200 0.76350 0.16100
O 	O 	0.86820 0.47800 0.62550 -0.69800
C 	C 	0.83290 0.42800 0.61470 -0.46500
H 	H 	0.83730 0.37530 0.59710 0.15900
H 	H 	0.81270 0.46550 0.59730 4.89800
H 	H 	0.82440 0.40890 0.64240 2.44500
O 	O 	0.05790 0.66330 0.92030 -0.10400
C 	C 	0.08010 0.57700 0.92470 -2.68000
H 	H 	0.09900 0.57790 0.95260 0.82100
H 	H 	0.09370 0.57080 0.89930 0.89100
H 	H 	0.06200 0.52740 0.92510 0.57000
O 	O 	0.02290 0.80980 0.91200 1.82800
C 	C 	0.01400 0.90320 0.90100 -2.97400
H 	H 	0.02030 0.93950 0.92820 0.89000
H 	H 	0.98670 0.90960 0.88800 0.64600
H 	H 	0.03030 0.92340 0.87930 0.61800
O 	O 	0.95770 0.86900 0.76590 -0.22700
C 	C 	0.92740 0.92900 0.78590 -0.10500
H 	H 	0.94030 0.98410 0.79870 0.17300
H 	H 	0.91750 0.89600 0.80920 0.11900
H 	H 	0.90580 0.94530 0.76200 0.07500
O 	O 	0.82810 0.63400 0.58660 -0.29900
C 	C 	0.84880 0.60100 0.55330 -0.25100
H 	H 	0.83110 0.59810 0.52440 0.00800
H 	H 	0.85890 0.54130 0.56170 -0.09400
H 	H 	0.87040 0.64140 0.55080 0.06600
O 	O 	0.84690 0.78340 0.62630 -0.20800
C 	C 	0.85100 0.85500 0.59750 -0.00400
H 	H 	0.82770 0.89140 0.59240 0.02700
H 	H 	0.85630 0.83150 0.56880 0.01500
H 	H 	0.87350 0.89220 0.61110 0.11400
C 	C 	0.01470 0.03800 0.77210 -0.24400
H 	H 	0.01080 0.98450 0.78990 0.00500
H 	H 	0.04160 0.03720 0.76590 0.13600
C 	C 	0.00800 0.12400 0.79860 -0.34300
H 	H 	0.02610 0.12380 0.82780 0.12700
H 	H 	0.98120 0.12570 0.80410 0.30800
C 	C 	0.01660 0.20500 0.77050 0.00300
H 	H 	0.01640 0.26090 0.78780 0.02200
H 	H 	0.04220 0.19880 0.76100 0.02600
C 	C 	0.90670 0.71000 0.71030 -0.94600
C 	C 	0.91040 0.79140 0.69850 0.10600
C 	C 	0.93380 0.85900 0.73210 0.13500
C 	C 	0.94880 0.82400 0.77940 -0.18600
C 	C 	0.95230 0.73300 0.78310 0.79200
O 	O 	0.93070 0.67710 0.74910 -0.97100
C 	C 	0.97030 0.68800 0.81750 -0.62100
C 	C 	0.99690 0.74000 0.85080 -0.76600
C 	C 	0.99040 0.83600 0.84900 3.49600
C 	C 	0.97410 0.88100 0.80890 0.36800
C 	C 	0.88410 0.63990 0.68210 -1.13400
C 	C 	0.85600 0.65600 0.64570 -0.13200
H 	H 	0.85230 0.71460 0.63330 -0.41100
C 	C 	0.83180 0.58190 0.62620 -0.91800
H 	H 	0.80870 0.59180 0.60510 0.14000
C 	C 	0.84400 0.49430 0.63990 0.84000
C 	C 	0.87110 0.48290 0.68070 0.41500
C 	C 	0.89620 0.55300 0.69580 -0.00300
H 	H 	0.92050 0.54260 0.71470 -0.17200
O 	O 	0.93510 0.94140 0.72070 -0.20900
O 	O 	0.97080 0.60100 0.81620 0.50400
C 	C 	0.98910 0.54600 0.79500 1.08400
H 	H 	0.98230 0.48500 0.80240 -0.39400
H 	H 	0.01720 0.55530 0.80480 -0.30000
H 	H 	0.98200 0.55650 0.76310 -0.24900
O 	O 	0.01790 0.70900 0.88880 7.36300
C 	C 	0.03300 0.62000 0.88600 -6.07700
H 	H 	0.04800 0.60240 0.91530 2.57000
H 	H 	0.05010 0.61810 0.86360 1.07500
H 	H 	0.01150 0.57780 0.87760 0.58300
O 	O 	0.81900 0.43540 0.63060 -2.98800
C 	C 	0.79210 0.43800 0.58800 -11.41000
H 	H 	0.77430 0.38730 0.58600 3.61300
H 	H 	0.80690 0.43570 0.56340 2.33500
H 	H 	0.77720 0.49410 0.58610 2.89800
O 	O 	0.87860 0.40550 0.69940 -1.33800
C 	C 	0.92080 0.39900 0.71840 -1.16400
H 	H 	0.92620 0.34010 0.73250 -0.06400
H 	H 	0.92790 0.44580 0.74090 0.34600
H 	H 	0.93600 0.40600 0.69440 0.40300
O 	O 	0.88240 0.84340 0.67130 -0.11000
C 	C 	0.88650 0.84100 0.62470 -0.37700
H 	H 	0.86630 0.87800 0.60710 0.02500
H 	H 	0.88380 0.77900 0.61390 0.09600
H 	H 	0.91220 0.86370 0.62160 0.23000
O 	O 	0.01710 0.89400 0.87800 0.59800
C 	C 	0.05640 0.86500 0.87800 -1.04800
H 	H 	0.07450 0.90390 0.89740 0.21200
H 	H 	0.06200 0.86670 0.84760 0.31700
H 	H 	0.05940 0.80320 0.88940 0.74000
O 	O 	0.97240 0.95600 0.80830 -0.54900
C 	C 	0.98500 0.03500 0.79020 0.45400
H 	H 	0.97340 0.08690 0.80250 -0.30000
H 	H 	0.97730 0.03430 0.75760 -0.02100
H 	H 	0.01360 0.03900 0.79790 0.04500
C 	C 	0.05210 0.72400 0.73200 -0.34300
C 	C 	0.06170 0.80100 0.74980 0.22200
C 	C 	0.09410 0.80820 0.79220 0.07600
C 	C 	0.10810 0.72300 0.81720 0.53700
C 	C 	0.09630 0.64340 0.79470 1.42300
O 	O 	0.06820 0.64640 0.75480 0.72700
C 	C 	0.10970 0.56200 0.80500 -0.18300
C 	C 	0.13270 0.55240 0.85040 -0.04900
C 	C 	0.14260 0.63470 0.87400 0.74500
C 	C 	0.13520 0.72360 0.85760 0.62900
C 	C 	0.02440 0.70300 0.69050 -0.04900
C 	C 	0.00600 0.62170 0.68590 -1.90500
H 	H 	0.01140 0.57790 0.70880 -0.01100
C 	C 	0.97870 0.60390 0.64610 3.94600
H 	H 	0.96810 0.54550 0.64130 -1.00600
C 	C 	0.96710 0.67040 0.61390 -1.44600
C 	C 	0.98440 0.75770 0.62250 -8.81400
C 	C 	0.01400 0.77050 0.65890 3.78600
H 	H 	0.02750 0.82590 0.66220 -3.41500
O 	O 	0.09690 0.88610 0.81040 -0.16400
O 	O 	0.08980 0.49170 0.78860 0.24700
C 	C 	0.09420 0.42400 0.76580 -0.85900
H 	H 	0.07040 0.38750 0.76180 0.77800
H 	H 	0.11610 0.38820 0.78140 1.34400
H 	H 	0.09960 0.44200 0.73650 0.16100
O 	O 	0.13180 0.47800 0.87450 -0.69900
C 	C 	0.16710 0.42800 0.88530 -0.46500
H 	H 	0.16270 0.37530 0.90290 0.15900
H 	H 	0.18730 0.46550 0.90270 4.89900
H 	H 	0.17560 0.40890 0.85760 2.44600
O 	O 	0.94210 0.66330 0.57970 -0.10500
C 	C 	0.91990 0.57700 0.57530 -2.67900
H 	H 	0.90100 0.57790 0.54740 0.82000
H 	H 	0.90630 0.57080 0.60070 0.89000
H 	H 	0.93800 0.52740 0.57490 0.56900
O 	O 	0.97710 0.80980 0.58800 1.82700
C 	C 	0.98600 0.90320 0.59900 -2.97500
H 	H 	0.97970 0.93950 0.57180 0.89100
H 	H 	0.01330 0.90960 0.61200 0.64700
H 	H 	0.96970 0.92340 0.62070 0.61800
O 	O 	0.04230 0.86900 0.73410 -0.22600
C 	C 	0.07260 0.92900 0.71410 -0.10600
H 	H 	0.05970 0.98410 0.70130 0.17300
H 	H 	0.08250 0.89600 0.69080 0.11900
H 	H 	0.09420 0.94530 0.73800 0.07600
O 	O 	0.17190 0.63400 0.91340 -0.29900
C 	C 	0.15120 0.60100 0.94670 -0.25100
H 	H 	0.16890 0.59810 0.97560 0.00800
H 	H 	0.14110 0.54130 0.93830 -0.09400
H 	H 	0.12960 0.64140 0.94920 0.06600
O 	O 	0.15310 0.78340 0.87370 -0.20800
C 	C 	0.14900 0.85500 0.90250 -0.00300
H 	H 	0.17230 0.89140 0.90760 0.02700
H 	H 	0.14370 0.83150 0.93120 0.01500
H 	H 	0.12650 0.89220 0.88890 0.11400
C 	C 	0.98530 0.03800 0.72790 -0.25200
H 	H 	0.98920 0.98450 0.71010 0.01000
H 	H 	0.95840 0.03720 0.73410 0.14000
C 	C 	0.99200 0.12400 0.70140 -0.32100
H 	H 	0.97390 0.12380 0.67220 0.11900
H 	H 	0.01880 0.12570 0.69590 0.29000
C 	C 	0.98340 0.20500 0.72950 -0.01400
H 	H 	0.98360 0.26090 0.71220 0.02700
H 	H 	0.95780 0.19880 0.73900 0.03000
C 	C 	0.09330 0.71000 0.78970 -0.95000
C 	C 	0.08960 0.79140 0.80150 0.10700
C 	C 	0.06620 0.85900 0.76790 0.13400
C 	C 	0.05120 0.82400 0.72060 -0.18500
C 	C 	0.04770 0.73300 0.71690 0.79300
O 	O 	0.06930 0.67710 0.75090 -0.97300
C 	C 	0.02970 0.68800 0.68250 -0.62300
C 	C 	0.00310 0.74000 0.64920 -0.76700
C 	C 	0.00960 0.83600 0.65100 3.49600
C 	C 	0.02590 0.88100 0.69110 0.36300
C 	C 	0.11590 0.63990 0.81790 -1.13700
C 	C 	0.14400 0.65600 0.85430 -0.13400
H 	H 	0.14770 0.71460 0.86670 -0.41200
C 	C 	0.16820 0.58190 0.87380 -0.92000
H 	H 	0.19130 0.59180 0.89490 0.14100
C 	C 	0.15600 0.49430 0.86010 0.84000
C 	C 	0.12890 0.48290 0.81930 0.41500
C 	C 	0.10380 0.55300 0.80420 -0.00300
H 	H 	0.07950 0.54260 0.78530 -0.17300
O 	O 	0.06490 0.94140 0.77930 -0.20800
O 	O 	0.02920 0.60100 0.68380 0.50200
C 	C 	0.01090 0.54600 0.70500 1.08100
H 	H 	0.01770 0.48500 0.69760 -0.39300
H 	H 	0.98280 0.55530 0.69520 -0.30000
H 	H 	0.01800 0.55650 0.73690 -0.24800
O 	O 	0.98210 0.70900 0.61120 7.36000
C 	C 	0.96700 0.62000 0.61400 -6.07400
H 	H 	0.95200 0.60240 0.58470 2.56800
H 	H 	0.94990 0.61810 0.63640 1.07600
H 	H 	0.98850 0.57780 0.62240 0.58400
O 	O 	0.18100 0.43540 0.86940 -2.98900
C 	C 	0.20790 0.43800 0.91200 -11.41200
H 	H 	0.22570 0.38730 0.91400 3.61400
H 	H 	0.19310 0.43570 0.93660 2.33600
H 	H 	0.22280 0.49410 0.91390 2.89800
O 	O 	0.12140 0.40550 0.80060 -1.33800
C 	C 	0.07920 0.39900 0.78160 -1.16500
H 	H 	0.07380 0.34010 0.76750 -0.06400
H 	H 	0.07210 0.44580 0.75910 0.34600
H 	H 	0.06400 0.40600 0.80560 0.40400
O 	O 	0.11760 0.84340 0.82870 -0.11000
C 	C 	0.11350 0.84100 0.87530 -0.37600
H 	H 	0.13370 0.87800 0.89290 0.02500
H 	H 	0.11620 0.77900 0.88610 0.09500
H 	H 	0.08780 0.86370 0.87840 0.23000
O 	O 	0.98290 0.89400 0.62200 0.59700
C 	C 	0.94360 0.86500 0.62200 -1.04800
H 	H 	0.92550 0.90390 0.60260 0.21200
H 	H 	0.93800 0.86670 0.65240 0.31700
H 	H 	0.94060 0.80320 0.61060 0.74000
O 	O 	0.02760 0.95600 0.69170 -0.54100
C 	C 	0.01500 0.03500 0.70980 0.42300
H 	H 	0.02660 0.08690 0.69750 -0.27900
H 	H 	0.02270 0.03430 0.74240 -0.01000
H 	H 	0.98640 0.03900 0.70210 0.05200
