data_crystal

_cell_length_a 35.12880
_cell_length_b 14.76700
_cell_length_c 30.86490
_cell_angle_alpha 90.00000
_cell_angle_beta  101.43200
_cell_angle_gamma 90.00000

_symmetry_space_group_name_	'P 1'
_symmetry_space_group_name_H-M	'P 1'

loop_
_symmetry_equiv_pos_as_xyz
  x,y,z

loop_
_atom_site_label
_atom_site_type_symbol
_atom_site_fract_x
_atom_site_fract_y
_atom_site_fract_z
_atom_site_charge
Zn	Zn	0.91529 0.62492 0.90519 1.16000
Zn	Zn	0.82622 0.85392 0.72962 1.15700
N 	N 	0.87747 0.55690 0.85568 -0.27300
C 	C 	0.84519 0.59310 0.83268 0.06300
H 	H 	0.83750 0.65140 0.84060 -0.01500
C 	C 	0.82225 0.54830 0.79724 -0.13000
H 	H 	0.79960 0.57600 0.78070 0.07800
C 	C 	0.83333 0.46170 0.78667 0.05400
C 	C 	0.86661 0.42440 0.81100 -0.12700
H 	H 	0.87450 0.36510 0.80470 0.08700
C 	C 	0.88824 0.47460 0.84450 0.07100
H 	H 	0.91190 0.44980 0.86050 -0.01700
N 	N 	0.66720 0.53400 0.60619 -0.28300
C 	C 	0.67796 0.45020 0.59691 0.06200
H 	H 	0.66460 0.42190 0.57060 -0.00900
C 	C 	0.70761 0.40300 0.62384 -0.11400
H 	H 	0.71430 0.34340 0.61640 0.07900
C 	C 	0.72731 0.44480 0.66187 0.04200
C 	C 	0.71604 0.53160 0.67136 -0.12400
H 	H 	0.72910 0.56190 0.69730 0.08800
C 	C 	0.68593 0.57370 0.64310 0.06600
H 	H 	0.67830 0.63270 0.65010 -0.00900
N 	N 	0.81542 0.99170 0.72085 -0.27300
C 	C 	0.78484 0.02560 0.69311 0.06800
H 	H 	0.76700 0.98510 0.67580 -0.01400
C 	C 	0.77810 0.11780 0.68858 -0.12300
H 	H 	0.75630 0.14000 0.66800 0.07500
C 	C 	0.80333 0.17690 0.71422 0.05100
C 	C 	0.83572 0.14190 0.74210 -0.12000
H 	H 	0.85420 0.18100 0.75940 0.07100
C 	C 	0.84081 0.04980 0.74450 0.05800
H 	H 	0.86320 0.02610 0.76360 -0.02200
C 	C 	0.80953 0.40910 0.75026 0.09500
N 	N 	0.77924 0.45010 0.72487 -0.14300
C 	C 	0.75977 0.39930 0.69253 0.08200
N 	N 	0.76642 0.31100 0.68550 -0.14400
C 	C 	0.79591 0.27650 0.71446 0.09500
N 	N 	0.81971 0.32320 0.74585 -0.13800
N 	N 	0.57774 0.51090 0.55958 -0.28500
C 	C 	0.56260 0.49960 0.59500 0.07900
H 	H 	0.57360 0.53180 0.62120 -0.02800
C 	C 	0.53170 0.44370 0.59600 -0.12800
H 	H 	0.52210 0.43690 0.62240 0.07500
C 	C 	0.51468 0.39730 0.55819 0.04800
C 	C 	0.53133 0.40470 0.52190 -0.12400
H 	H 	0.52160 0.37050 0.49600 0.07300
C 	C 	0.56279 0.46320 0.52350 0.06700
H 	H 	0.57390 0.46930 0.49800 -0.01800
N 	N 	0.35994 0.33290 0.68324 -0.28300
C 	C 	0.39350 0.37560 0.68680 0.07500
H 	H 	0.40110 0.41570 0.71100 -0.03400
C 	C 	0.41790 0.36530 0.65750 -0.12800
H 	H 	0.44140 0.39910 0.66090 0.07200
C 	C 	0.40780 0.30490 0.62270 0.06000
C 	C 	0.37237 0.26060 0.61863 -0.11500
H 	H 	0.36410 0.21910 0.59510 0.08100
C 	C 	0.34934 0.27730 0.64890 0.07200
H 	H 	0.32480 0.24790 0.64530 -0.01600
N 	N 	0.42801 0.98330 0.44826 -0.27200
C 	C 	0.40112 0.01040 0.47100 0.07800
H 	H 	0.37760 0.97680 0.46770 -0.01900
C 	C 	0.40588 0.08410 0.49870 -0.12200
H 	H 	0.38620 0.10130 0.51420 0.07600
C 	C 	0.44043 0.13310 0.50349 0.05700
C 	C 	0.46786 0.10640 0.47963 -0.13600
H 	H 	0.49130 0.13960 0.48190 0.08700
C 	C 	0.46104 0.03170 0.45263 0.08000
H 	H 	0.48020 0.01360 0.43660 -0.02400
C 	C 	0.48144 0.33590 0.55871 0.09000
N 	N 	0.46100 0.35040 0.58979 -0.14100
C 	C 	0.43236 0.29150 0.58974 0.10200
N 	N 	0.42458 0.22000 0.56312 -0.13800
C 	C 	0.44667 0.21320 0.53315 0.08400
N 	N 	0.47502 0.27070 0.52839 -0.14900
Zn	Zn	0.62234 0.60180 0.56550 0.61500
I 	I 	0.64360 0.60175 0.49200 0.00800
I 	I 	0.60365 0.73957 0.60575 -0.37800
I 	I 	0.76604 0.76080 0.70590 -0.11800
I 	I 	0.87093 0.83780 0.80544 -0.20300
I 	I 	0.87310 0.73010 0.94175 -0.19300
I 	I 	0.97260 0.65940 0.87234 -0.14100
I 	I 	0.88129 0.74370 0.94217 -0.15600
I 	I 	0.97499 0.64860 0.86883 -0.21200
Zn	Zn	0.62690 0.59140 0.55650 0.60400
I 	I 	0.64641 0.58040 0.48170 -0.38600
I 	I 	0.61320 0.74198 0.59150 -0.03000
I 	I 	0.75950 0.77120 0.70290 -0.21800
I 	I 	0.86540 0.83540 0.80690 -0.18000
Zn	Zn	0.41529 0.12492 0.90519 1.15900
Zn	Zn	0.32622 0.35392 0.72962 1.15600
N 	N 	0.37747 0.05690 0.85568 -0.27400
C 	C 	0.34519 0.09310 0.83268 0.06200
H 	H 	0.33750 0.15140 0.84060 -0.01600
C 	C 	0.32225 0.04830 0.79724 -0.13100
H 	H 	0.29960 0.07600 0.78070 0.07700
C 	C 	0.33333 0.96170 0.78667 0.05400
C 	C 	0.36661 0.92440 0.81100 -0.12800
H 	H 	0.37450 0.86510 0.80470 0.08700
C 	C 	0.38824 0.97460 0.84450 0.07100
H 	H 	0.41190 0.94980 0.86050 -0.01900
N 	N 	0.16720 0.03400 0.60619 -0.28500
C 	C 	0.17796 0.95020 0.59691 0.06100
H 	H 	0.16460 0.92190 0.57060 -0.01000
C 	C 	0.20761 0.90300 0.62384 -0.11500
H 	H 	0.21430 0.84340 0.61640 0.07800
C 	C 	0.22731 0.94480 0.66187 0.04100
C 	C 	0.21604 0.03160 0.67136 -0.12500
H 	H 	0.22910 0.06190 0.69730 0.08700
C 	C 	0.18593 0.07370 0.64310 0.06600
H 	H 	0.17830 0.13270 0.65010 -0.00900
N 	N 	0.31542 0.49170 0.72085 -0.27400
C 	C 	0.28484 0.52560 0.69311 0.06900
H 	H 	0.26700 0.48510 0.67580 -0.01400
C 	C 	0.27810 0.61780 0.68858 -0.12400
H 	H 	0.25630 0.64000 0.66800 0.07500
C 	C 	0.30333 0.67690 0.71422 0.05100
C 	C 	0.33572 0.64190 0.74210 -0.12000
H 	H 	0.35420 0.68100 0.75940 0.07100
C 	C 	0.34081 0.54980 0.74450 0.05800
H 	H 	0.36320 0.52610 0.76360 -0.02200
C 	C 	0.30953 0.90910 0.75026 0.09500
N 	N 	0.27924 0.95010 0.72487 -0.14300
C 	C 	0.25977 0.89930 0.69253 0.08200
N 	N 	0.26642 0.81100 0.68550 -0.14400
C 	C 	0.29591 0.77650 0.71446 0.09500
N 	N 	0.31971 0.82320 0.74585 -0.13800
N 	N 	0.07774 0.01090 0.55958 -0.28500
C 	C 	0.06260 0.99960 0.59500 0.08000
H 	H 	0.07360 0.03180 0.62120 -0.02800
C 	C 	0.03170 0.94370 0.59600 -0.12800
H 	H 	0.02210 0.93690 0.62240 0.07500
C 	C 	0.01468 0.89730 0.55819 0.04800
C 	C 	0.03133 0.90470 0.52190 -0.12400
H 	H 	0.02160 0.87050 0.49600 0.07300
C 	C 	0.06279 0.96320 0.52350 0.06700
H 	H 	0.07390 0.96930 0.49800 -0.01800
N 	N 	0.85994 0.83290 0.68324 -0.28300
C 	C 	0.89350 0.87560 0.68680 0.07500
H 	H 	0.90110 0.91570 0.71100 -0.03400
C 	C 	0.91790 0.86530 0.65750 -0.12800
H 	H 	0.94140 0.89910 0.66090 0.07200
C 	C 	0.90780 0.80490 0.62270 0.06000
C 	C 	0.87237 0.76060 0.61863 -0.11500
H 	H 	0.86410 0.71910 0.59510 0.08200
C 	C 	0.84934 0.77730 0.64890 0.07200
H 	H 	0.82480 0.74790 0.64530 -0.01600
N 	N 	0.92801 0.48330 0.44826 -0.27200
C 	C 	0.90112 0.51040 0.47100 0.07800
H 	H 	0.87760 0.47680 0.46770 -0.01900
C 	C 	0.90588 0.58410 0.49870 -0.12200
H 	H 	0.88620 0.60130 0.51420 0.07600
C 	C 	0.94043 0.63310 0.50349 0.05700
C 	C 	0.96786 0.60640 0.47963 -0.13600
H 	H 	0.99130 0.63960 0.48190 0.08700
C 	C 	0.96104 0.53170 0.45263 0.08000
H 	H 	0.98020 0.51360 0.43660 -0.02400
C 	C 	0.98144 0.83590 0.55871 0.09000
N 	N 	0.96100 0.85040 0.58979 -0.14100
C 	C 	0.93236 0.79150 0.58974 0.10200
N 	N 	0.92458 0.72000 0.56312 -0.13800
C 	C 	0.94667 0.71320 0.53315 0.08400
N 	N 	0.97502 0.77070 0.52839 -0.14900
Zn	Zn	0.12234 0.10180 0.56550 0.61500
I 	I 	0.14360 0.10175 0.49200 0.00800
I 	I 	0.10365 0.23957 0.60575 -0.37800
I 	I 	0.26604 0.26080 0.70590 -0.11800
I 	I 	0.37093 0.33780 0.80544 -0.20300
I 	I 	0.37310 0.23010 0.94175 -0.19300
I 	I 	0.47260 0.15940 0.87234 -0.14100
I 	I 	0.38129 0.24370 0.94217 -0.15600
I 	I 	0.47499 0.14860 0.86883 -0.21200
Zn	Zn	0.12690 0.09140 0.55650 0.60400
I 	I 	0.14641 0.08040 0.48170 -0.38600
I 	I 	0.11320 0.24198 0.59150 -0.03100
I 	I 	0.25950 0.27120 0.70290 -0.21800
I 	I 	0.36540 0.33540 0.80690 -0.18000
Zn	Zn	0.91529 0.37508 0.40519 1.15900
Zn	Zn	0.82622 0.14608 0.22962 1.15600
N 	N 	0.87747 0.44310 0.35568 -0.27400
C 	C 	0.84519 0.40690 0.33268 0.06200
H 	H 	0.83750 0.34860 0.34060 -0.01600
C 	C 	0.82225 0.45170 0.29724 -0.13100
H 	H 	0.79960 0.42400 0.28070 0.07700
C 	C 	0.83333 0.53830 0.28667 0.05300
C 	C 	0.86661 0.57560 0.31100 -0.12800
H 	H 	0.87450 0.63490 0.30470 0.08600
C 	C 	0.88824 0.52540 0.34450 0.07000
H 	H 	0.91190 0.55020 0.36050 -0.01800
N 	N 	0.66720 0.46600 0.10619 -0.28400
C 	C 	0.67796 0.54980 0.09691 0.06100
H 	H 	0.66460 0.57810 0.07060 -0.01000
C 	C 	0.70761 0.59700 0.12384 -0.11500
H 	H 	0.71430 0.65660 0.11640 0.07800
C 	C 	0.72731 0.55520 0.16187 0.04100
C 	C 	0.71604 0.46840 0.17136 -0.12500
H 	H 	0.72910 0.43810 0.19730 0.08700
C 	C 	0.68593 0.42630 0.14310 0.06600
H 	H 	0.67830 0.36730 0.15010 -0.00900
N 	N 	0.81542 0.00830 0.22085 -0.27300
C 	C 	0.78484 0.97440 0.19311 0.06700
H 	H 	0.76700 0.01490 0.17580 -0.01400
C 	C 	0.77810 0.88220 0.18858 -0.12300
H 	H 	0.75630 0.86000 0.16800 0.07400
C 	C 	0.80333 0.82310 0.21422 0.05100
C 	C 	0.83572 0.85810 0.24210 -0.12000
H 	H 	0.85420 0.81900 0.25940 0.07100
C 	C 	0.84081 0.95020 0.24450 0.05700
H 	H 	0.86320 0.97390 0.26360 -0.02200
C 	C 	0.80953 0.59090 0.25026 0.09500
N 	N 	0.77924 0.54990 0.22487 -0.14300
C 	C 	0.75977 0.60070 0.19253 0.08200
N 	N 	0.76642 0.68900 0.18550 -0.14400
C 	C 	0.79591 0.72350 0.21446 0.09500
N 	N 	0.81971 0.67680 0.24585 -0.13800
N 	N 	0.57774 0.48910 0.05958 -0.28500
C 	C 	0.56260 0.50040 0.09500 0.08000
H 	H 	0.57360 0.46820 0.12120 -0.02800
C 	C 	0.53170 0.55630 0.09600 -0.12800
H 	H 	0.52210 0.56310 0.12240 0.07500
C 	C 	0.51468 0.60270 0.05819 0.04800
C 	C 	0.53133 0.59530 0.02190 -0.12400
H 	H 	0.52160 0.62950 0.99600 0.07300
C 	C 	0.56279 0.53680 0.02350 0.06700
H 	H 	0.57390 0.53070 0.99800 -0.01800
N 	N 	0.35994 0.66710 0.18324 -0.28300
C 	C 	0.39350 0.62440 0.18680 0.07500
H 	H 	0.40110 0.58430 0.21100 -0.03400
C 	C 	0.41790 0.63470 0.15750 -0.12800
H 	H 	0.44140 0.60090 0.16090 0.07200
C 	C 	0.40780 0.69510 0.12270 0.06000
C 	C 	0.37237 0.73940 0.11863 -0.11500
H 	H 	0.36410 0.78090 0.09510 0.08100
C 	C 	0.34934 0.72270 0.14890 0.07200
H 	H 	0.32480 0.75210 0.14530 -0.01600
N 	N 	0.42801 0.01670 0.94826 -0.27200
C 	C 	0.40112 0.98960 0.97100 0.07800
H 	H 	0.37760 0.02320 0.96770 -0.02000
C 	C 	0.40588 0.91590 0.99870 -0.12100
H 	H 	0.38620 0.89870 0.01420 0.07600
C 	C 	0.44043 0.86690 0.00349 0.05500
C 	C 	0.46786 0.89360 0.97963 -0.13500
H 	H 	0.49130 0.86040 0.98190 0.08700
C 	C 	0.46104 0.96830 0.95263 0.08000
H 	H 	0.48020 0.98640 0.93660 -0.02400
C 	C 	0.48144 0.66410 0.05871 0.09000
N 	N 	0.46100 0.64960 0.08979 -0.14100
C 	C 	0.43236 0.70850 0.08974 0.10200
N 	N 	0.42458 0.78000 0.06312 -0.13800
C 	C 	0.44667 0.78680 0.03315 0.08400
N 	N 	0.47502 0.72930 0.02839 -0.14900
Zn	Zn	0.62234 0.39820 0.06550 0.61500
I 	I 	0.64360 0.39825 0.99200 0.00800
I 	I 	0.60365 0.26043 0.10575 -0.37800
I 	I 	0.76604 0.23920 0.20590 -0.11800
I 	I 	0.87093 0.16220 0.30544 -0.20300
I 	I 	0.87310 0.26990 0.44175 -0.19300
I 	I 	0.97260 0.34060 0.37234 -0.14000
I 	I 	0.88129 0.25630 0.44217 -0.15600
I 	I 	0.97499 0.35140 0.36883 -0.21200
Zn	Zn	0.62690 0.40860 0.05650 0.60400
I 	I 	0.64641 0.41960 0.98170 -0.38700
I 	I 	0.61320 0.25802 0.09150 -0.03000
I 	I 	0.75950 0.22880 0.20290 -0.21800
I 	I 	0.86540 0.16460 0.30690 -0.18000
Zn	Zn	0.41529 0.87508 0.40519 1.15900
Zn	Zn	0.32622 0.64608 0.22962 1.15600
N 	N 	0.37747 0.94310 0.35568 -0.27400
C 	C 	0.34519 0.90690 0.33268 0.06200
H 	H 	0.33750 0.84860 0.34060 -0.01600
C 	C 	0.32225 0.95170 0.29724 -0.13100
H 	H 	0.29960 0.92400 0.28070 0.07700
C 	C 	0.33333 0.03830 0.28667 0.05400
C 	C 	0.36661 0.07560 0.31100 -0.12800
H 	H 	0.37450 0.13490 0.30470 0.08600
C 	C 	0.38824 0.02540 0.34450 0.07000
H 	H 	0.41190 0.05020 0.36050 -0.01800
N 	N 	0.16720 0.96600 0.10619 -0.28500
C 	C 	0.17796 0.04980 0.09691 0.06100
H 	H 	0.16460 0.07810 0.07060 -0.01000
C 	C 	0.20761 0.09700 0.12384 -0.11500
H 	H 	0.21430 0.15660 0.11640 0.07800
C 	C 	0.22731 0.05520 0.16187 0.04200
C 	C 	0.21604 0.96840 0.17136 -0.12600
H 	H 	0.22910 0.93810 0.19730 0.08700
C 	C 	0.18593 0.92630 0.14310 0.06600
H 	H 	0.17830 0.86730 0.15010 -0.00900
N 	N 	0.31542 0.50830 0.22085 -0.27400
C 	C 	0.28484 0.47440 0.19311 0.06900
H 	H 	0.26700 0.51490 0.17580 -0.01400
C 	C 	0.27810 0.38220 0.18858 -0.12400
H 	H 	0.25630 0.36000 0.16800 0.07500
C 	C 	0.30333 0.32310 0.21422 0.05100
C 	C 	0.33572 0.35810 0.24210 -0.12000
H 	H 	0.35420 0.31900 0.25940 0.07100
C 	C 	0.34081 0.45020 0.24450 0.05800
H 	H 	0.36320 0.47390 0.26360 -0.02200
C 	C 	0.30953 0.09090 0.25026 0.09500
N 	N 	0.27924 0.04990 0.22487 -0.14300
C 	C 	0.25977 0.10070 0.19253 0.08100
N 	N 	0.26642 0.18900 0.18550 -0.14400
C 	C 	0.29591 0.22350 0.21446 0.09500
N 	N 	0.31971 0.17680 0.24585 -0.13800
N 	N 	0.07774 0.98910 0.05958 -0.28600
C 	C 	0.06260 0.00040 0.09500 0.08100
H 	H 	0.07360 0.96820 0.12120 -0.02800
C 	C 	0.03170 0.05630 0.09600 -0.12900
H 	H 	0.02210 0.06310 0.12240 0.07500
C 	C 	0.01468 0.10270 0.05819 0.04800
C 	C 	0.03133 0.09530 0.02190 -0.12400
H 	H 	0.02160 0.12950 0.99600 0.07200
C 	C 	0.06279 0.03680 0.02350 0.06800
H 	H 	0.07390 0.03070 0.99800 -0.01900
N 	N 	0.85994 0.16710 0.18324 -0.28300
C 	C 	0.89350 0.12440 0.18680 0.07500
H 	H 	0.90110 0.08430 0.21100 -0.03400
C 	C 	0.91790 0.13470 0.15750 -0.12800
H 	H 	0.94140 0.10090 0.16090 0.07200
C 	C 	0.90780 0.19510 0.12270 0.06000
C 	C 	0.87237 0.23940 0.11863 -0.11500
H 	H 	0.86410 0.28090 0.09510 0.08200
C 	C 	0.84934 0.22270 0.14890 0.07200
H 	H 	0.82480 0.25210 0.14530 -0.01600
N 	N 	0.92801 0.51670 0.94826 -0.27200
C 	C 	0.90112 0.48960 0.97100 0.07800
H 	H 	0.87760 0.52320 0.96770 -0.01900
C 	C 	0.90588 0.41590 0.99870 -0.12300
H 	H 	0.88620 0.39870 0.01420 0.07700
C 	C 	0.94043 0.36690 0.00349 0.05700
C 	C 	0.96786 0.39360 0.97963 -0.13700
H 	H 	0.99130 0.36040 0.98190 0.08700
C 	C 	0.96104 0.46830 0.95263 0.08000
H 	H 	0.98020 0.48640 0.93660 -0.02400
C 	C 	0.98144 0.16410 0.05871 0.09000
N 	N 	0.96100 0.14960 0.08979 -0.14100
C 	C 	0.93236 0.20850 0.08974 0.10200
N 	N 	0.92458 0.28000 0.06312 -0.13800
C 	C 	0.94667 0.28680 0.03315 0.08300
N 	N 	0.97502 0.22930 0.02839 -0.14900
Zn	Zn	0.12234 0.89820 0.06550 0.61500
I 	I 	0.14360 0.89825 0.99200 0.00800
I 	I 	0.10365 0.76043 0.10575 -0.37800
I 	I 	0.26604 0.73920 0.20590 -0.11800
I 	I 	0.37093 0.66220 0.30544 -0.20300
I 	I 	0.37310 0.76990 0.44175 -0.19300
I 	I 	0.47260 0.84060 0.37234 -0.14100
I 	I 	0.38129 0.75630 0.44217 -0.15600
I 	I 	0.47499 0.85140 0.36883 -0.21200
Zn	Zn	0.12690 0.90860 0.05650 0.60400
I 	I 	0.14641 0.91960 0.98170 -0.38600
I 	I 	0.11320 0.75802 0.09150 -0.03000
I 	I 	0.25950 0.72880 0.20290 -0.21800
I 	I 	0.36540 0.66460 0.30690 -0.18000
Zn	Zn	0.08471 0.62492 0.59481 1.15900
Zn	Zn	0.17378 0.85392 0.77038 1.15600
N 	N 	0.12253 0.55690 0.64432 -0.27400
C 	C 	0.15481 0.59310 0.66732 0.06200
H 	H 	0.16250 0.65140 0.65940 -0.01600
C 	C 	0.17775 0.54830 0.70276 -0.13100
H 	H 	0.20040 0.57600 0.71930 0.07700
C 	C 	0.16667 0.46170 0.71333 0.05300
C 	C 	0.13339 0.42440 0.68900 -0.12800
H 	H 	0.12550 0.36510 0.69530 0.08600
C 	C 	0.11176 0.47460 0.65550 0.07000
H 	H 	0.08810 0.44980 0.63950 -0.01800
N 	N 	0.33280 0.53400 0.89381 -0.28400
C 	C 	0.32204 0.45020 0.90309 0.06100
H 	H 	0.33540 0.42190 0.92940 -0.01000
C 	C 	0.29239 0.40300 0.87616 -0.11500
H 	H 	0.28570 0.34340 0.88360 0.07800
C 	C 	0.27269 0.44480 0.83813 0.04100
C 	C 	0.28396 0.53160 0.82864 -0.12500
H 	H 	0.27090 0.56190 0.80270 0.08700
C 	C 	0.31407 0.57370 0.85690 0.06600
H 	H 	0.32170 0.63270 0.84990 -0.00900
N 	N 	0.18458 0.99170 0.77915 -0.27300
C 	C 	0.21516 0.02560 0.80689 0.06700
H 	H 	0.23300 0.98510 0.82420 -0.01400
C 	C 	0.22190 0.11780 0.81142 -0.12300
H 	H 	0.24370 0.14000 0.83200 0.07400
C 	C 	0.19667 0.17690 0.78578 0.05100
C 	C 	0.16428 0.14190 0.75790 -0.12000
H 	H 	0.14580 0.18100 0.74060 0.07100
C 	C 	0.15919 0.04980 0.75550 0.05700
H 	H 	0.13680 0.02610 0.73640 -0.02200
C 	C 	0.19047 0.40910 0.74974 0.09500
N 	N 	0.22076 0.45010 0.77513 -0.14300
C 	C 	0.24023 0.39930 0.80747 0.08200
N 	N 	0.23358 0.31100 0.81450 -0.14400
C 	C 	0.20409 0.27650 0.78554 0.09500
N 	N 	0.18029 0.32320 0.75415 -0.13800
N 	N 	0.42226 0.51090 0.94042 -0.28500
C 	C 	0.43740 0.49960 0.90500 0.08000
H 	H 	0.42640 0.53180 0.87880 -0.02800
C 	C 	0.46830 0.44370 0.90400 -0.12800
H 	H 	0.47790 0.43690 0.87760 0.07500
C 	C 	0.48532 0.39730 0.94181 0.04800
C 	C 	0.46867 0.40470 0.97810 -0.12400
H 	H 	0.47840 0.37050 0.00400 0.07300
C 	C 	0.43721 0.46320 0.97650 0.06700
H 	H 	0.42610 0.46930 0.00200 -0.01800
N 	N 	0.64006 0.33290 0.81676 -0.28300
C 	C 	0.60650 0.37560 0.81320 0.07500
H 	H 	0.59890 0.41570 0.78900 -0.03400
C 	C 	0.58210 0.36530 0.84250 -0.12800
H 	H 	0.55860 0.39910 0.83910 0.07200
C 	C 	0.59220 0.30490 0.87730 0.06000
C 	C 	0.62763 0.26060 0.88137 -0.11500
H 	H 	0.63590 0.21910 0.90490 0.08100
C 	C 	0.65066 0.27730 0.85110 0.07200
H 	H 	0.67520 0.24790 0.85470 -0.01600
N 	N 	0.57199 0.98330 0.05174 -0.27200
C 	C 	0.59888 0.01040 0.02900 0.07800
H 	H 	0.62240 0.97680 0.03230 -0.02000
C 	C 	0.59412 0.08410 0.00130 -0.12100
H 	H 	0.61380 0.10130 0.98580 0.07600
C 	C 	0.55957 0.13310 0.99651 0.05500
C 	C 	0.53214 0.10640 0.02037 -0.13500
H 	H 	0.50870 0.13960 0.01810 0.08700
C 	C 	0.53896 0.03170 0.04737 0.08000
H 	H 	0.51980 0.01360 0.06340 -0.02400
C 	C 	0.51856 0.33590 0.94129 0.09000
N 	N 	0.53900 0.35040 0.91021 -0.14100
C 	C 	0.56764 0.29150 0.91026 0.10200
N 	N 	0.57542 0.22000 0.93688 -0.13800
C 	C 	0.55333 0.21320 0.96685 0.08400
N 	N 	0.52498 0.27070 0.97161 -0.14900
Zn	Zn	0.37766 0.60180 0.93450 0.61500
I 	I 	0.35640 0.60175 0.00800 0.00800
I 	I 	0.39635 0.73957 0.89425 -0.37800
I 	I 	0.23396 0.76080 0.79410 -0.11800
I 	I 	0.12907 0.83780 0.69456 -0.20300
I 	I 	0.12690 0.73010 0.55825 -0.19300
I 	I 	0.02740 0.65940 0.62766 -0.14000
I 	I 	0.11871 0.74370 0.55783 -0.15600
I 	I 	0.02501 0.64860 0.63117 -0.21200
Zn	Zn	0.37310 0.59140 0.94350 0.60400
I 	I 	0.35359 0.58040 0.01830 -0.38700
I 	I 	0.38680 0.74198 0.90850 -0.03000
I 	I 	0.24050 0.77120 0.79710 -0.21800
I 	I 	0.13460 0.83540 0.69310 -0.18000
Zn	Zn	0.58471 0.12492 0.59481 1.15900
Zn	Zn	0.67378 0.35392 0.77038 1.15600
N 	N 	0.62253 0.05690 0.64432 -0.27400
C 	C 	0.65481 0.09310 0.66732 0.06200
H 	H 	0.66250 0.15140 0.65940 -0.01600
C 	C 	0.67775 0.04830 0.70276 -0.13100
H 	H 	0.70040 0.07600 0.71930 0.07700
C 	C 	0.66667 0.96170 0.71333 0.05400
C 	C 	0.63339 0.92440 0.68900 -0.12800
H 	H 	0.62550 0.86510 0.69530 0.08600
C 	C 	0.61176 0.97460 0.65550 0.07000
H 	H 	0.58810 0.94980 0.63950 -0.01800
N 	N 	0.83280 0.03400 0.89381 -0.28500
C 	C 	0.82204 0.95020 0.90309 0.06100
H 	H 	0.83540 0.92190 0.92940 -0.01000
C 	C 	0.79239 0.90300 0.87616 -0.11500
H 	H 	0.78570 0.84340 0.88360 0.07800
C 	C 	0.77269 0.94480 0.83813 0.04200
C 	C 	0.78396 0.03160 0.82864 -0.12600
H 	H 	0.77090 0.06190 0.80270 0.08700
C 	C 	0.81407 0.07370 0.85690 0.06600
H 	H 	0.82170 0.13270 0.84990 -0.00900
N 	N 	0.68458 0.49170 0.77915 -0.27400
C 	C 	0.71516 0.52560 0.80689 0.06900
H 	H 	0.73300 0.48510 0.82420 -0.01400
C 	C 	0.72190 0.61780 0.81142 -0.12400
H 	H 	0.74370 0.64000 0.83200 0.07500
C 	C 	0.69667 0.67690 0.78578 0.05100
C 	C 	0.66428 0.64190 0.75790 -0.12000
H 	H 	0.64580 0.68100 0.74060 0.07100
C 	C 	0.65919 0.54980 0.75550 0.05800
H 	H 	0.63680 0.52610 0.73640 -0.02200
C 	C 	0.69047 0.90910 0.74974 0.09500
N 	N 	0.72076 0.95010 0.77513 -0.14300
C 	C 	0.74023 0.89930 0.80747 0.08100
N 	N 	0.73358 0.81100 0.81450 -0.14400
C 	C 	0.70409 0.77650 0.78554 0.09500
N 	N 	0.68029 0.82320 0.75415 -0.13800
N 	N 	0.92226 0.01090 0.94042 -0.28600
C 	C 	0.93740 0.99960 0.90500 0.08100
H 	H 	0.92640 0.03180 0.87880 -0.02800
C 	C 	0.96830 0.94370 0.90400 -0.12900
H 	H 	0.97790 0.93690 0.87760 0.07500
C 	C 	0.98532 0.89730 0.94181 0.04800
C 	C 	0.96867 0.90470 0.97810 -0.12400
H 	H 	0.97840 0.87050 0.00400 0.07200
C 	C 	0.93721 0.96320 0.97650 0.06800
H 	H 	0.92610 0.96930 0.00200 -0.01900
N 	N 	0.14006 0.83290 0.81676 -0.28300
C 	C 	0.10650 0.87560 0.81320 0.07500
H 	H 	0.09890 0.91570 0.78900 -0.03400
C 	C 	0.08210 0.86530 0.84250 -0.12800
H 	H 	0.05860 0.89910 0.83910 0.07200
C 	C 	0.09220 0.80490 0.87730 0.06000
C 	C 	0.12763 0.76060 0.88137 -0.11500
H 	H 	0.13590 0.71910 0.90490 0.08200
C 	C 	0.15066 0.77730 0.85110 0.07200
H 	H 	0.17520 0.74790 0.85470 -0.01600
N 	N 	0.07199 0.48330 0.05174 -0.27200
C 	C 	0.09888 0.51040 0.02900 0.07800
H 	H 	0.12240 0.47680 0.03230 -0.01900
C 	C 	0.09412 0.58410 0.00130 -0.12300
H 	H 	0.11380 0.60130 0.98580 0.07700
C 	C 	0.05957 0.63310 0.99651 0.05700
C 	C 	0.03214 0.60640 0.02037 -0.13700
H 	H 	0.00870 0.63960 0.01810 0.08700
C 	C 	0.03896 0.53170 0.04737 0.08000
H 	H 	0.01980 0.51360 0.06340 -0.02400
C 	C 	0.01856 0.83590 0.94129 0.09000
N 	N 	0.03900 0.85040 0.91021 -0.14100
C 	C 	0.06764 0.79150 0.91026 0.10200
N 	N 	0.07542 0.72000 0.93688 -0.13800
C 	C 	0.05333 0.71320 0.96685 0.08300
N 	N 	0.02498 0.77070 0.97161 -0.14900
Zn	Zn	0.87766 0.10180 0.93450 0.61500
I 	I 	0.85640 0.10175 0.00800 0.00800
I 	I 	0.89635 0.23957 0.89425 -0.37800
I 	I 	0.73396 0.26080 0.79410 -0.11800
I 	I 	0.62907 0.33780 0.69456 -0.20300
I 	I 	0.62690 0.23010 0.55825 -0.19300
I 	I 	0.52740 0.15940 0.62766 -0.14100
I 	I 	0.61871 0.24370 0.55783 -0.15600
I 	I 	0.52501 0.14860 0.63117 -0.21200
Zn	Zn	0.87310 0.09140 0.94350 0.60400
I 	I 	0.85359 0.08040 0.01830 -0.38600
I 	I 	0.88680 0.24198 0.90850 -0.03000
I 	I 	0.74050 0.27120 0.79710 -0.21800
I 	I 	0.63460 0.33540 0.69310 -0.18000
Zn	Zn	0.08471 0.37508 0.09481 1.15900
Zn	Zn	0.17378 0.14608 0.27038 1.15600
N 	N 	0.12253 0.44310 0.14432 -0.27400
C 	C 	0.15481 0.40690 0.16732 0.06200
H 	H 	0.16250 0.34860 0.15940 -0.01600
C 	C 	0.17775 0.45170 0.20276 -0.13100
H 	H 	0.20040 0.42400 0.21930 0.07700
C 	C 	0.16667 0.53830 0.21333 0.05300
C 	C 	0.13339 0.57560 0.18900 -0.12800
H 	H 	0.12550 0.63490 0.19530 0.08600
C 	C 	0.11176 0.52540 0.15550 0.07000
H 	H 	0.08810 0.55020 0.13950 -0.01800
N 	N 	0.33280 0.46600 0.39381 -0.28400
C 	C 	0.32204 0.54980 0.40309 0.06100
H 	H 	0.33540 0.57810 0.42940 -0.01000
C 	C 	0.29239 0.59700 0.37616 -0.11500
H 	H 	0.28570 0.65660 0.38360 0.07800
C 	C 	0.27269 0.55520 0.33813 0.04100
C 	C 	0.28396 0.46840 0.32864 -0.12500
H 	H 	0.27090 0.43810 0.30270 0.08700
C 	C 	0.31407 0.42630 0.35690 0.06600
H 	H 	0.32170 0.36730 0.34990 -0.00900
N 	N 	0.18458 0.00830 0.27915 -0.27300
C 	C 	0.21516 0.97440 0.30689 0.06800
H 	H 	0.23300 0.01490 0.32420 -0.01400
C 	C 	0.22190 0.88220 0.31142 -0.12300
H 	H 	0.24370 0.86000 0.33200 0.07500
C 	C 	0.19667 0.82310 0.28578 0.05100
C 	C 	0.16428 0.85810 0.25790 -0.12000
H 	H 	0.14580 0.81900 0.24060 0.07100
C 	C 	0.15919 0.95020 0.25550 0.05800
H 	H 	0.13680 0.97390 0.23640 -0.02200
C 	C 	0.19047 0.59090 0.24974 0.09500
N 	N 	0.22076 0.54990 0.27513 -0.14300
C 	C 	0.24023 0.60070 0.30747 0.08200
N 	N 	0.23358 0.68900 0.31450 -0.14400
C 	C 	0.20409 0.72350 0.28554 0.09500
N 	N 	0.18029 0.67680 0.25415 -0.13800
N 	N 	0.42226 0.48910 0.44042 -0.28500
C 	C 	0.43740 0.50040 0.40500 0.07900
H 	H 	0.42640 0.46820 0.37880 -0.02800
C 	C 	0.46830 0.55630 0.40400 -0.12800
H 	H 	0.47790 0.56310 0.37760 0.07500
C 	C 	0.48532 0.60270 0.44181 0.04800
C 	C 	0.46867 0.59530 0.47810 -0.12400
H 	H 	0.47840 0.62950 0.50400 0.07300
C 	C 	0.43721 0.53680 0.47650 0.06700
H 	H 	0.42610 0.53070 0.50200 -0.01800
N 	N 	0.64006 0.66710 0.31676 -0.28300
C 	C 	0.60650 0.62440 0.31320 0.07500
H 	H 	0.59890 0.58430 0.28900 -0.03400
C 	C 	0.58210 0.63470 0.34250 -0.12800
H 	H 	0.55860 0.60090 0.33910 0.07200
C 	C 	0.59220 0.69510 0.37730 0.06000
C 	C 	0.62763 0.73940 0.38137 -0.11500
H 	H 	0.63590 0.78090 0.40490 0.08100
C 	C 	0.65066 0.72270 0.35110 0.07200
H 	H 	0.67520 0.75210 0.35470 -0.01600
N 	N 	0.57199 0.01670 0.55174 -0.27200
C 	C 	0.59888 0.98960 0.52900 0.07800
H 	H 	0.62240 0.02320 0.53230 -0.01900
C 	C 	0.59412 0.91590 0.50130 -0.12200
H 	H 	0.61380 0.89870 0.48580 0.07600
C 	C 	0.55957 0.86690 0.49651 0.05700
C 	C 	0.53214 0.89360 0.52037 -0.13600
H 	H 	0.50870 0.86040 0.51810 0.08700
C 	C 	0.53896 0.96830 0.54737 0.08000
H 	H 	0.51980 0.98640 0.56340 -0.02400
C 	C 	0.51856 0.66410 0.44129 0.09000
N 	N 	0.53900 0.64960 0.41021 -0.14100
C 	C 	0.56764 0.70850 0.41026 0.10200
N 	N 	0.57542 0.78000 0.43688 -0.13800
C 	C 	0.55333 0.78680 0.46685 0.08400
N 	N 	0.52498 0.72930 0.47161 -0.14900
Zn	Zn	0.37766 0.39820 0.43450 0.61500
I 	I 	0.35640 0.39825 0.50800 0.00800
I 	I 	0.39635 0.26043 0.39425 -0.37800
I 	I 	0.23396 0.23920 0.29410 -0.11800
I 	I 	0.12907 0.16220 0.19456 -0.20300
I 	I 	0.12690 0.26990 0.05825 -0.19300
I 	I 	0.02740 0.34060 0.12766 -0.14100
I 	I 	0.11871 0.25630 0.05783 -0.15600
I 	I 	0.02501 0.35140 0.13117 -0.21200
Zn	Zn	0.37310 0.40860 0.44350 0.60400
I 	I 	0.35359 0.41960 0.51830 -0.38600
I 	I 	0.38680 0.25802 0.40850 -0.03000
I 	I 	0.24050 0.22880 0.29710 -0.21800
I 	I 	0.13460 0.16460 0.19310 -0.18000
Zn	Zn	0.58471 0.87508 0.09481 1.15900
Zn	Zn	0.67378 0.64608 0.27038 1.15600
N 	N 	0.62253 0.94310 0.14432 -0.27400
C 	C 	0.65481 0.90690 0.16732 0.06200
H 	H 	0.66250 0.84860 0.15940 -0.01600
C 	C 	0.67775 0.95170 0.20276 -0.13100
H 	H 	0.70040 0.92400 0.21930 0.07700
C 	C 	0.66667 0.03830 0.21333 0.05400
C 	C 	0.63339 0.07560 0.18900 -0.12800
H 	H 	0.62550 0.13490 0.19530 0.08700
C 	C 	0.61176 0.02540 0.15550 0.07100
H 	H 	0.58810 0.05020 0.13950 -0.01900
N 	N 	0.83280 0.96600 0.39381 -0.28500
C 	C 	0.82204 0.04980 0.40309 0.06100
H 	H 	0.83540 0.07810 0.42940 -0.01000
C 	C 	0.79239 0.09700 0.37616 -0.11500
H 	H 	0.78570 0.15660 0.38360 0.07800
C 	C 	0.77269 0.05520 0.33813 0.04100
C 	C 	0.78396 0.96840 0.32864 -0.12500
H 	H 	0.77090 0.93810 0.30270 0.08700
C 	C 	0.81407 0.92630 0.35690 0.06600
H 	H 	0.82170 0.86730 0.34990 -0.00900
N 	N 	0.68458 0.50830 0.27915 -0.27400
C 	C 	0.71516 0.47440 0.30689 0.06900
H 	H 	0.73300 0.51490 0.32420 -0.01400
C 	C 	0.72190 0.38220 0.31142 -0.12400
H 	H 	0.74370 0.36000 0.33200 0.07500
C 	C 	0.69667 0.32310 0.28578 0.05100
C 	C 	0.66428 0.35810 0.25790 -0.12000
H 	H 	0.64580 0.31900 0.24060 0.07100
C 	C 	0.65919 0.45020 0.25550 0.05800
H 	H 	0.63680 0.47390 0.23640 -0.02200
C 	C 	0.69047 0.09090 0.24974 0.09500
N 	N 	0.72076 0.04990 0.27513 -0.14300
C 	C 	0.74023 0.10070 0.30747 0.08200
N 	N 	0.73358 0.18900 0.31450 -0.14400
C 	C 	0.70409 0.22350 0.28554 0.09500
N 	N 	0.68029 0.17680 0.25415 -0.13800
N 	N 	0.92226 0.98910 0.44042 -0.28500
C 	C 	0.93740 0.00040 0.40500 0.08000
H 	H 	0.92640 0.96820 0.37880 -0.02800
C 	C 	0.96830 0.05630 0.40400 -0.12800
H 	H 	0.97790 0.06310 0.37760 0.07500
C 	C 	0.98532 0.10270 0.44181 0.04800
C 	C 	0.96867 0.09530 0.47810 -0.12400
H 	H 	0.97840 0.12950 0.50400 0.07300
C 	C 	0.93721 0.03680 0.47650 0.06700
H 	H 	0.92610 0.03070 0.50200 -0.01800
N 	N 	0.14006 0.16710 0.31676 -0.28300
C 	C 	0.10650 0.12440 0.31320 0.07500
H 	H 	0.09890 0.08430 0.28900 -0.03400
C 	C 	0.08210 0.13470 0.34250 -0.12800
H 	H 	0.05860 0.10090 0.33910 0.07200
C 	C 	0.09220 0.19510 0.37730 0.06000
C 	C 	0.12763 0.23940 0.38137 -0.11500
H 	H 	0.13590 0.28090 0.40490 0.08200
C 	C 	0.15066 0.22270 0.35110 0.07200
H 	H 	0.17520 0.25210 0.35470 -0.01600
N 	N 	0.07199 0.51670 0.55174 -0.27200
C 	C 	0.09888 0.48960 0.52900 0.07800
H 	H 	0.12240 0.52320 0.53230 -0.01900
C 	C 	0.09412 0.41590 0.50130 -0.12200
H 	H 	0.11380 0.39870 0.48580 0.07600
C 	C 	0.05957 0.36690 0.49651 0.05700
C 	C 	0.03214 0.39360 0.52037 -0.13600
H 	H 	0.00870 0.36040 0.51810 0.08700
C 	C 	0.03896 0.46830 0.54737 0.08000
H 	H 	0.01980 0.48640 0.56340 -0.02400
C 	C 	0.01856 0.16410 0.44129 0.09000
N 	N 	0.03900 0.14960 0.41021 -0.14100
C 	C 	0.06764 0.20850 0.41026 0.10200
N 	N 	0.07542 0.28000 0.43688 -0.13800
C 	C 	0.05333 0.28680 0.46685 0.08400
N 	N 	0.02498 0.22930 0.47161 -0.14900
Zn	Zn	0.87766 0.89820 0.43450 0.61500
I 	I 	0.85640 0.89825 0.50800 0.00800
I 	I 	0.89635 0.76043 0.39425 -0.37800
I 	I 	0.73396 0.73920 0.29410 -0.11800
I 	I 	0.62907 0.66220 0.19456 -0.20300
I 	I 	0.62690 0.76990 0.05825 -0.19300
I 	I 	0.52740 0.84060 0.12766 -0.14100
I 	I 	0.61871 0.75630 0.05783 -0.15600
I 	I 	0.52501 0.85140 0.13117 -0.21200
Zn	Zn	0.87310 0.90860 0.44350 0.60400
I 	I 	0.85359 0.91960 0.51830 -0.38600
I 	I 	0.88680 0.75802 0.40850 -0.03100
I 	I 	0.74050 0.72880 0.29710 -0.21800
I 	I 	0.63460 0.66460 0.19310 -0.18000
C 	C 	0.45370 0.87000 0.58800 0.16200
H 	H 	0.46870 0.89210 0.56610 0.25100
H 	H 	0.42800 0.90000 0.58080 0.08100
C 	C 	0.47370 0.90500 0.63200 -0.44100
H 	H 	0.45370 0.92010 0.64950 0.16500
H 	H 	0.48740 0.96140 0.62780 0.13600
C 	C 	0.50270 0.84000 0.65960 0.40600
H 	H 	0.49110 0.81100 0.68280 -0.28300
H 	H 	0.52630 0.87330 0.67390 -0.13100
C 	C 	0.51280 0.76900 0.62800 -0.62500
H 	H 	0.53370 0.72890 0.64360 0.23700
H 	H 	0.52250 0.79910 0.60340 0.19800
C 	C 	0.47700 0.71200 0.60800 0.18500
H 	H 	0.48400 0.66080 0.59090 -0.02900
H 	H 	0.46530 0.68590 0.63280 0.03700
C 	C 	0.44690 0.77000 0.57950 -0.25600
H 	H 	0.44740 0.75750 0.54820 0.14300
H 	H 	0.42070 0.75450 0.58450 0.10000
C 	C 	0.38000 0.84700 0.67200 -0.22800
H 	H 	0.35730 0.80940 0.65930 0.09200
H 	H 	0.39790 0.84560 0.65080 0.08800
C 	C 	0.40100 0.80000 0.71500 0.02300
H 	H 	0.38190 0.78840 0.73360 0.02500
H 	H 	0.41100 0.74090 0.70690 0.01400
C 	C 	0.43500 0.85500 0.74100 -0.21200
H 	H 	0.45950 0.82300 0.74130 0.08500
H 	H 	0.43130 0.86260 0.77170 0.09300
C 	C 	0.43600 0.94900 0.71900 0.08800
H 	H 	0.45490 0.98810 0.73860 0.00000
H 	H 	0.44490 0.94200 0.69080 -0.00900
C 	C 	0.39600 0.99800 0.71000 -0.29800
H 	H 	0.38610 0.00290 0.73750 0.13900
H 	H 	0.39900 0.05960 0.69850 0.22100
C 	C 	0.36630 0.94500 0.67500 0.12300
H 	H 	0.34070 0.94490 0.68400 0.00600
H 	H 	0.36340 0.97440 0.64600 0.07600
C 	C 	0.39270 0.02640 0.65200 0.16100
C 	C 	0.35410 0.03400 0.66220 -0.55700
H 	H 	0.33130 0.01020 0.64410 0.19700
C 	C 	0.35430 0.07530 0.69760 0.52200
H 	H 	0.32990 0.08060 0.70620 -0.14900
C 	C 	0.38260 0.11080 0.72320 -0.52300
H 	H 	0.37630 0.14060 0.74810 0.18200
C 	C 	0.42420 0.11390 0.72100 0.13200
H 	H 	0.44430 0.14130 0.74200 -0.02200
C 	C 	0.42870 0.06640 0.67980 -0.26200
H 	H 	0.45330 0.06150 0.67150 0.12200
C 	C 	0.39890 0.97380 0.61260 -0.09800
H 	H 	0.37570 0.95020 0.59530 0.05100
C 	C 	0.42970 0.95420 0.59750 -0.13800
H 	H 	0.45430 0.98040 0.60920 0.08700
C 	C 	0.42420 0.89000 0.56190 -0.03500
H 	H 	0.39940 0.86580 0.54950 0.04700
O 	O 	0.45490 0.86800 0.54810 -0.44600
C 	C 	0.57290 0.63800 0.68990 -0.30000
H 	H 	0.56180 0.63410 0.65790 0.11600
H 	H 	0.60130 0.62830 0.69480 0.11300
C 	C 	0.55310 0.57100 0.71700 0.10600
H 	H 	0.55710 0.50710 0.70870 -0.01800
H 	H 	0.56260 0.57850 0.74920 -0.01700
C 	C 	0.51010 0.59900 0.70300 -0.32900
H 	H 	0.50140 0.63060 0.72770 0.11300
H 	H 	0.49350 0.54520 0.69490 0.11500
C 	C 	0.50690 0.66400 0.66260 0.32400
H 	H 	0.47930 0.67110 0.64830 -0.10600
H 	H 	0.52080 0.63690 0.64070 -0.09100
C 	C 	0.52480 0.75800 0.67800 -0.65300
H 	H 	0.53020 0.79340 0.65240 0.31900
H 	H 	0.50750 0.79340 0.69300 0.36700
C 	C 	0.56280 0.73100 0.70970 0.22000
H 	H 	0.55850 0.72330 0.74030 -0.04300
H 	H 	0.58350 0.77610 0.70960 -0.05000
C 	C 	0.41590 0.61800 0.66600 -0.08500
H 	H 	0.43350 0.60470 0.69450 0.04600
H 	H 	0.39580 0.57050 0.65990 0.04900
C 	C 	0.43950 0.62300 0.62800 -0.05200
H 	H 	0.45690 0.57000 0.62830 0.04100
H 	H 	0.45500 0.67910 0.62930 0.01500
C 	C 	0.40710 0.62200 0.58600 -0.10200
H 	H 	0.40810 0.67730 0.56820 0.04800
H 	H 	0.40970 0.56830 0.56740 0.06500
C 	C 	0.36860 0.61800 0.60380 -0.06300
H 	H 	0.37000 0.56850 0.62600 0.04700
H 	H 	0.34630 0.60530 0.57930 0.05500
C 	C 	0.36340 0.71000 0.62500 -0.10100
H 	H 	0.36610 0.76000 0.60470 0.04600
H 	H 	0.33760 0.71390 0.63340 0.05100
C 	C 	0.39710 0.71200 0.66740 -0.07800
H 	H 	0.38670 0.72000 0.69470 0.04500
H 	H 	0.41580 0.76130 0.66540 0.05600
C 	C 	0.48270 0.30000 0.74470 -0.11900
H 	H 	0.48180 0.23530 0.75350 0.05600
H 	H 	0.46070 0.31210 0.72000 0.03800
C 	C 	0.52100 0.32200 0.73220 -0.01300
H 	H 	0.54220 0.30280 0.75650 0.04500
H 	H 	0.52330 0.28640 0.70570 0.02100
C 	C 	0.52720 0.41900 0.72270 -0.10100
H 	H 	0.55550 0.43040 0.73070 0.03800
H 	H 	0.51970 0.42680 0.69020 0.04000
C 	C 	0.50790 0.49200 0.74310 0.03000
H 	H 	0.49390 0.53170 0.71940 -0.01200
H 	H 	0.52800 0.52890 0.76210 0.00400
C 	C 	0.47960 0.45900 0.77050 -0.10300
H 	H 	0.48330 0.49590 0.79780 0.04700
H 	H 	0.45300 0.47100 0.75380 0.04500
C 	C 	0.48220 0.36200 0.78340 0.04300
H 	H 	0.45970 0.34660 0.79690 0.01100
H 	H 	0.50610 0.35250 0.80600 0.01500
C 	C 	0.54630 0.87000 0.91200 0.16200
H 	H 	0.53130 0.89210 0.93390 0.25100
H 	H 	0.57200 0.90000 0.91920 0.08100
C 	C 	0.52630 0.90500 0.86800 -0.44100
H 	H 	0.54630 0.92010 0.85050 0.16500
H 	H 	0.51260 0.96140 0.87220 0.13600
C 	C 	0.49730 0.84000 0.84040 0.40600
H 	H 	0.50890 0.81100 0.81720 -0.28300
H 	H 	0.47370 0.87330 0.82610 -0.13100
C 	C 	0.48720 0.76900 0.87200 -0.62500
H 	H 	0.46630 0.72890 0.85640 0.23700
H 	H 	0.47750 0.79910 0.89660 0.19800
C 	C 	0.52300 0.71200 0.89200 0.18500
H 	H 	0.51600 0.66080 0.90910 -0.02900
H 	H 	0.53470 0.68590 0.86720 0.03700
C 	C 	0.55310 0.77000 0.92050 -0.25600
H 	H 	0.55260 0.75750 0.95180 0.14300
H 	H 	0.57930 0.75450 0.91550 0.10000
C 	C 	0.62000 0.84700 0.82800 -0.22800
H 	H 	0.64270 0.80940 0.84070 0.09200
H 	H 	0.60210 0.84560 0.84920 0.08800
C 	C 	0.59900 0.80000 0.78500 0.02200
H 	H 	0.61810 0.78840 0.76640 0.02500
H 	H 	0.58900 0.74090 0.79310 0.01400
C 	C 	0.56500 0.85500 0.75900 -0.21200
H 	H 	0.54050 0.82300 0.75870 0.08500
H 	H 	0.56870 0.86260 0.72830 0.09300
C 	C 	0.56400 0.94900 0.78100 0.08800
H 	H 	0.54510 0.98810 0.76140 0.00000
H 	H 	0.55510 0.94200 0.80920 -0.00900
C 	C 	0.60400 0.99800 0.79000 -0.29700
H 	H 	0.61390 0.00290 0.76250 0.13900
H 	H 	0.60100 0.05960 0.80150 0.22000
C 	C 	0.63370 0.94500 0.82500 0.12200
H 	H 	0.65930 0.94490 0.81600 0.00700
H 	H 	0.63660 0.97440 0.85400 0.07600
C 	C 	0.60730 0.02640 0.84800 0.16100
C 	C 	0.64590 0.03400 0.83780 -0.55700
H 	H 	0.66870 0.01020 0.85590 0.19600
C 	C 	0.64570 0.07530 0.80240 0.52100
H 	H 	0.67010 0.08060 0.79380 -0.14900
C 	C 	0.61740 0.11080 0.77680 -0.52200
H 	H 	0.62370 0.14060 0.75190 0.18200
C 	C 	0.57580 0.11390 0.77900 0.13200
H 	H 	0.55570 0.14130 0.75800 -0.02200
C 	C 	0.57130 0.06640 0.82020 -0.26200
H 	H 	0.54670 0.06150 0.82850 0.12200
C 	C 	0.60110 0.97380 0.88740 -0.09700
H 	H 	0.62430 0.95020 0.90470 0.05100
C 	C 	0.57030 0.95420 0.90250 -0.13800
H 	H 	0.54570 0.98040 0.89080 0.08700
C 	C 	0.57580 0.89000 0.93810 -0.03500
H 	H 	0.60060 0.86580 0.95050 0.04700
O 	O 	0.54510 0.86800 0.95190 -0.44600
C 	C 	0.42710 0.63800 0.81010 -0.30000
H 	H 	0.43820 0.63410 0.84210 0.11600
H 	H 	0.39870 0.62830 0.80520 0.11400
C 	C 	0.44690 0.57100 0.78300 0.10600
H 	H 	0.44290 0.50710 0.79130 -0.01800
H 	H 	0.43740 0.57850 0.75080 -0.01700
C 	C 	0.48990 0.59900 0.79700 -0.32900
H 	H 	0.49860 0.63060 0.77230 0.11300
H 	H 	0.50650 0.54520 0.80510 0.11500
C 	C 	0.49310 0.66400 0.83740 0.32400
H 	H 	0.52070 0.67110 0.85170 -0.10600
H 	H 	0.47920 0.63690 0.85930 -0.09100
C 	C 	0.47520 0.75800 0.82200 -0.65300
H 	H 	0.46980 0.79340 0.84760 0.31900
H 	H 	0.49250 0.79340 0.80700 0.36700
C 	C 	0.43720 0.73100 0.79030 0.22100
H 	H 	0.44150 0.72330 0.75970 -0.04300
H 	H 	0.41650 0.77610 0.79040 -0.05000
C 	C 	0.58410 0.61800 0.83400 -0.08500
H 	H 	0.56650 0.60470 0.80550 0.04600
H 	H 	0.60420 0.57050 0.84010 0.04900
C 	C 	0.56050 0.62300 0.87200 -0.05200
H 	H 	0.54310 0.57000 0.87170 0.04100
H 	H 	0.54500 0.67910 0.87070 0.01500
C 	C 	0.59290 0.62200 0.91400 -0.10200
H 	H 	0.59190 0.67730 0.93180 0.04800
H 	H 	0.59030 0.56830 0.93260 0.06500
C 	C 	0.63140 0.61800 0.89620 -0.06300
H 	H 	0.63000 0.56850 0.87400 0.04700
H 	H 	0.65370 0.60530 0.92070 0.05500
C 	C 	0.63660 0.71000 0.87500 -0.10100
H 	H 	0.63390 0.76000 0.89530 0.04700
H 	H 	0.66240 0.71390 0.86660 0.05100
C 	C 	0.60290 0.71200 0.83260 -0.07800
H 	H 	0.61330 0.72000 0.80530 0.04500
H 	H 	0.58420 0.76130 0.83460 0.05600
C 	C 	0.51730 0.30000 0.75530 -0.12000
H 	H 	0.51820 0.23530 0.74650 0.05600
H 	H 	0.53930 0.31210 0.78000 0.03800
C 	C 	0.47900 0.32200 0.76780 -0.01300
H 	H 	0.45780 0.30280 0.74350 0.04500
H 	H 	0.47670 0.28640 0.79430 0.02100
C 	C 	0.47280 0.41900 0.77730 -0.10100
H 	H 	0.44450 0.43040 0.76930 0.03800
H 	H 	0.48030 0.42680 0.80980 0.04000
C 	C 	0.49210 0.49200 0.75690 0.03000
H 	H 	0.50610 0.53170 0.78060 -0.01200
H 	H 	0.47200 0.52890 0.73790 0.00400
C 	C 	0.52040 0.45900 0.72950 -0.10300
H 	H 	0.51670 0.49590 0.70220 0.04700
H 	H 	0.54700 0.47100 0.74620 0.04500
C 	C 	0.51780 0.36200 0.71660 0.04300
H 	H 	0.54030 0.34660 0.70310 0.01100
H 	H 	0.49390 0.35250 0.69400 0.01500
C 	C 	0.95370 0.37000 0.58800 0.16300
H 	H 	0.96870 0.39210 0.56610 0.25100
H 	H 	0.92800 0.40000 0.58080 0.08100
C 	C 	0.97370 0.40500 0.63200 -0.44200
H 	H 	0.95370 0.42010 0.64950 0.16600
H 	H 	0.98740 0.46140 0.62780 0.13600
C 	C 	0.00270 0.34000 0.65960 0.40700
H 	H 	0.99110 0.31100 0.68280 -0.28400
H 	H 	0.02630 0.37330 0.67390 -0.13100
C 	C 	0.01280 0.26900 0.62800 -0.62600
H 	H 	0.03370 0.22890 0.64360 0.23700
H 	H 	0.02250 0.29910 0.60340 0.19900
C 	C 	0.97700 0.21200 0.60800 0.18600
H 	H 	0.98400 0.16080 0.59090 -0.03000
H 	H 	0.96530 0.18590 0.63280 0.03700
C 	C 	0.94690 0.27000 0.57950 -0.25600
H 	H 	0.94740 0.25750 0.54820 0.14300
H 	H 	0.92070 0.25450 0.58450 0.10000
C 	C 	0.88000 0.34700 0.67200 -0.23000
H 	H 	0.85730 0.30940 0.65930 0.09200
H 	H 	0.89790 0.34560 0.65080 0.08900
C 	C 	0.90100 0.30000 0.71500 0.02400
H 	H 	0.88190 0.28840 0.73360 0.02400
H 	H 	0.91100 0.24090 0.70690 0.01300
C 	C 	0.93500 0.35500 0.74100 -0.21300
H 	H 	0.95950 0.32300 0.74130 0.08500
H 	H 	0.93130 0.36260 0.77170 0.09400
C 	C 	0.93600 0.44900 0.71900 0.09000
H 	H 	0.95490 0.48810 0.73860 -0.00100
H 	H 	0.94490 0.44200 0.69080 -0.00900
C 	C 	0.89600 0.49800 0.71000 -0.30000
H 	H 	0.88610 0.50290 0.73750 0.14000
H 	H 	0.89900 0.55960 0.69850 0.22200
C 	C 	0.86630 0.44500 0.67500 0.12400
H 	H 	0.84070 0.44490 0.68400 0.00600
H 	H 	0.86340 0.47440 0.64600 0.07500
C 	C 	0.89270 0.52640 0.65200 0.16200
C 	C 	0.85410 0.53400 0.66220 -0.55900
H 	H 	0.83130 0.51020 0.64410 0.19700
C 	C 	0.85430 0.57530 0.69760 0.52400
H 	H 	0.82990 0.58060 0.70620 -0.14900
C 	C 	0.88260 0.61080 0.72320 -0.52500
H 	H 	0.87630 0.64060 0.74810 0.18300
C 	C 	0.92420 0.61390 0.72100 0.13300
H 	H 	0.94430 0.64130 0.74200 -0.02200
C 	C 	0.92870 0.56640 0.67980 -0.26300
H 	H 	0.95330 0.56150 0.67150 0.12300
C 	C 	0.89890 0.47380 0.61260 -0.09900
H 	H 	0.87570 0.45020 0.59530 0.05200
C 	C 	0.92970 0.45420 0.59750 -0.13700
H 	H 	0.95430 0.48040 0.60920 0.08600
C 	C 	0.92420 0.39000 0.56190 -0.03600
H 	H 	0.89940 0.36580 0.54950 0.04700
O 	O 	0.95490 0.36800 0.54810 -0.44600
C 	C 	0.07290 0.13800 0.68990 -0.30100
H 	H 	0.06180 0.13410 0.65790 0.11700
H 	H 	0.10130 0.12830 0.69480 0.11400
C 	C 	0.05310 0.07100 0.71700 0.10700
H 	H 	0.05710 0.00710 0.70870 -0.01900
H 	H 	0.06260 0.07850 0.74920 -0.01800
C 	C 	0.01010 0.09900 0.70300 -0.33000
H 	H 	0.00140 0.13060 0.72770 0.11300
H 	H 	0.99350 0.04520 0.69490 0.11500
C 	C 	0.00690 0.16400 0.66260 0.32500
H 	H 	0.97930 0.17110 0.64830 -0.10600
H 	H 	0.02080 0.13690 0.64070 -0.09100
C 	C 	0.02480 0.25800 0.67800 -0.65500
H 	H 	0.03020 0.29340 0.65240 0.31900
H 	H 	0.00750 0.29340 0.69300 0.36800
C 	C 	0.06280 0.23100 0.70970 0.22100
H 	H 	0.05850 0.22330 0.74030 -0.04300
H 	H 	0.08350 0.27610 0.70960 -0.05100
C 	C 	0.91590 0.11800 0.66600 -0.08500
H 	H 	0.93350 0.10470 0.69450 0.04600
H 	H 	0.89580 0.07050 0.65990 0.04900
C 	C 	0.93950 0.12300 0.62800 -0.05200
H 	H 	0.95690 0.07000 0.62830 0.04100
H 	H 	0.95500 0.17910 0.62930 0.01500
C 	C 	0.90710 0.12200 0.58600 -0.10200
H 	H 	0.90810 0.17730 0.56820 0.04800
H 	H 	0.90970 0.06830 0.56740 0.06500
C 	C 	0.86860 0.11800 0.60380 -0.06200
H 	H 	0.87000 0.06850 0.62600 0.04700
H 	H 	0.84630 0.10530 0.57930 0.05500
C 	C 	0.86340 0.21000 0.62500 -0.10100
H 	H 	0.86610 0.26000 0.60470 0.04600
H 	H 	0.83760 0.21390 0.63340 0.05100
C 	C 	0.89710 0.21200 0.66740 -0.07800
H 	H 	0.88670 0.22000 0.69470 0.04500
H 	H 	0.91580 0.26130 0.66540 0.05600
C 	C 	0.98270 0.80000 0.74470 -0.12000
H 	H 	0.98180 0.73530 0.75350 0.05600
H 	H 	0.96070 0.81210 0.72000 0.03800
C 	C 	0.02100 0.82200 0.73220 -0.01200
H 	H 	0.04220 0.80280 0.75650 0.04500
H 	H 	0.02330 0.78640 0.70570 0.02100
C 	C 	0.02720 0.91900 0.72270 -0.10300
H 	H 	0.05550 0.93040 0.73070 0.03900
H 	H 	0.01970 0.92680 0.69020 0.04000
C 	C 	0.00790 0.99200 0.74310 0.03100
H 	H 	0.99390 0.03170 0.71940 -0.01200
H 	H 	0.02800 0.02890 0.76210 0.00400
C 	C 	0.97960 0.95900 0.77050 -0.10400
H 	H 	0.98330 0.99590 0.79780 0.04700
H 	H 	0.95300 0.97100 0.75380 0.04600
C 	C 	0.98220 0.86200 0.78340 0.04400
H 	H 	0.95970 0.84660 0.79690 0.01100
H 	H 	0.00610 0.85250 0.80600 0.01400
C 	C 	0.04630 0.37000 0.91200 0.16200
H 	H 	0.03130 0.39210 0.93390 0.25100
H 	H 	0.07200 0.40000 0.91920 0.08100
C 	C 	0.02630 0.40500 0.86800 -0.44000
H 	H 	0.04630 0.42010 0.85050 0.16500
H 	H 	0.01260 0.46140 0.87220 0.13600
C 	C 	0.99730 0.34000 0.84040 0.40500
H 	H 	0.00890 0.31100 0.81720 -0.28300
H 	H 	0.97370 0.37330 0.82610 -0.13100
C 	C 	0.98720 0.26900 0.87200 -0.62500
H 	H 	0.96630 0.22890 0.85640 0.23700
H 	H 	0.97750 0.29910 0.89660 0.19800
C 	C 	0.02300 0.21200 0.89200 0.18500
H 	H 	0.01600 0.16080 0.90910 -0.02900
H 	H 	0.03470 0.18590 0.86720 0.03700
C 	C 	0.05310 0.27000 0.92050 -0.25600
H 	H 	0.05260 0.25750 0.95180 0.14300
H 	H 	0.07930 0.25450 0.91550 0.10000
C 	C 	0.12000 0.34700 0.82800 -0.23000
H 	H 	0.14270 0.30940 0.84070 0.09200
H 	H 	0.10210 0.34560 0.84920 0.08900
C 	C 	0.09900 0.30000 0.78500 0.02400
H 	H 	0.11810 0.28840 0.76640 0.02400
H 	H 	0.08900 0.24090 0.79310 0.01300
C 	C 	0.06500 0.35500 0.75900 -0.21300
H 	H 	0.04050 0.32300 0.75870 0.08500
H 	H 	0.06870 0.36260 0.72830 0.09400
C 	C 	0.06400 0.44900 0.78100 0.09000
H 	H 	0.04510 0.48810 0.76140 -0.00000
H 	H 	0.05510 0.44200 0.80920 -0.00900
C 	C 	0.10400 0.49800 0.79000 -0.30000
H 	H 	0.11390 0.50290 0.76250 0.14000
H 	H 	0.10100 0.55960 0.80150 0.22200
C 	C 	0.13370 0.44500 0.82500 0.12400
H 	H 	0.15930 0.44490 0.81600 0.00600
H 	H 	0.13660 0.47440 0.85400 0.07500
C 	C 	0.10730 0.52640 0.84800 0.16200
C 	C 	0.14590 0.53400 0.83780 -0.55900
H 	H 	0.16870 0.51020 0.85590 0.19700
C 	C 	0.14570 0.57530 0.80240 0.52400
H 	H 	0.17010 0.58060 0.79380 -0.14900
C 	C 	0.11740 0.61080 0.77680 -0.52500
H 	H 	0.12370 0.64060 0.75190 0.18300
C 	C 	0.07580 0.61390 0.77900 0.13300
H 	H 	0.05570 0.64130 0.75800 -0.02200
C 	C 	0.07130 0.56640 0.82020 -0.26300
H 	H 	0.04670 0.56150 0.82850 0.12300
C 	C 	0.10110 0.47380 0.88740 -0.09900
H 	H 	0.12430 0.45020 0.90470 0.05200
C 	C 	0.07030 0.45420 0.90250 -0.13700
H 	H 	0.04570 0.48040 0.89080 0.08600
C 	C 	0.07580 0.39000 0.93810 -0.03600
H 	H 	0.10060 0.36580 0.95050 0.04700
O 	O 	0.04510 0.36800 0.95190 -0.44600
C 	C 	0.92710 0.13800 0.81010 -0.30000
H 	H 	0.93820 0.13410 0.84210 0.11600
H 	H 	0.89870 0.12830 0.80520 0.11300
C 	C 	0.94690 0.07100 0.78300 0.10700
H 	H 	0.94290 0.00710 0.79130 -0.01900
H 	H 	0.93740 0.07850 0.75080 -0.01700
C 	C 	0.98990 0.09900 0.79700 -0.32900
H 	H 	0.99860 0.13060 0.77230 0.11300
H 	H 	0.00650 0.04520 0.80510 0.11500
C 	C 	0.99310 0.16400 0.83740 0.32400
H 	H 	0.02070 0.17110 0.85170 -0.10600
H 	H 	0.97920 0.13690 0.85930 -0.09100
C 	C 	0.97520 0.25800 0.82200 -0.65300
H 	H 	0.96980 0.29340 0.84760 0.31800
H 	H 	0.99250 0.29340 0.80700 0.36700
C 	C 	0.93720 0.23100 0.79030 0.22000
H 	H 	0.94150 0.22330 0.75970 -0.04300
H 	H 	0.91650 0.27610 0.79040 -0.05000
C 	C 	0.08410 0.11800 0.83400 -0.08500
H 	H 	0.06650 0.10470 0.80550 0.04600
H 	H 	0.10420 0.07050 0.84010 0.04900
C 	C 	0.06050 0.12300 0.87200 -0.05200
H 	H 	0.04310 0.07000 0.87170 0.04000
H 	H 	0.04500 0.17910 0.87070 0.01500
C 	C 	0.09290 0.12200 0.91400 -0.10200
H 	H 	0.09190 0.17730 0.93180 0.04800
H 	H 	0.09030 0.06830 0.93260 0.06500
C 	C 	0.13140 0.11800 0.89620 -0.06200
H 	H 	0.13000 0.06850 0.87400 0.04700
H 	H 	0.15370 0.10530 0.92070 0.05400
C 	C 	0.13660 0.21000 0.87500 -0.10100
H 	H 	0.13390 0.26000 0.89530 0.04700
H 	H 	0.16240 0.21390 0.86660 0.05100
C 	C 	0.10290 0.21200 0.83260 -0.07800
H 	H 	0.11330 0.22000 0.80530 0.04500
H 	H 	0.08420 0.26130 0.83460 0.05600
C 	C 	0.01730 0.80000 0.75530 -0.12200
H 	H 	0.01820 0.73530 0.74650 0.05700
H 	H 	0.03930 0.81210 0.78000 0.03800
C 	C 	0.97900 0.82200 0.76780 -0.01200
H 	H 	0.95780 0.80280 0.74350 0.04500
H 	H 	0.97670 0.78640 0.79430 0.02100
C 	C 	0.97280 0.91900 0.77730 -0.10300
H 	H 	0.94450 0.93040 0.76930 0.03900
H 	H 	0.98030 0.92680 0.80980 0.04100
C 	C 	0.99210 0.99200 0.75690 0.03200
H 	H 	0.00610 0.03170 0.78060 -0.01300
H 	H 	0.97200 0.02890 0.73790 0.00300
C 	C 	0.02040 0.95900 0.72950 -0.10400
H 	H 	0.01670 0.99590 0.70220 0.04800
H 	H 	0.04700 0.97100 0.74620 0.04600
C 	C 	0.01780 0.86200 0.71660 0.04500
H 	H 	0.04030 0.84660 0.70310 0.01000
H 	H 	0.99390 0.85250 0.69400 0.01400
C 	C 	0.54630 0.13000 0.41200 0.16200
H 	H 	0.53130 0.10790 0.43390 0.25100
H 	H 	0.57200 0.10000 0.41920 0.08100
C 	C 	0.52630 0.09500 0.36800 -0.44100
H 	H 	0.54630 0.07990 0.35050 0.16500
H 	H 	0.51260 0.03860 0.37220 0.13600
C 	C 	0.49730 0.16000 0.34040 0.40600
H 	H 	0.50890 0.18900 0.31720 -0.28300
H 	H 	0.47370 0.12670 0.32610 -0.13100
C 	C 	0.48720 0.23100 0.37200 -0.62500
H 	H 	0.46630 0.27110 0.35640 0.23700
H 	H 	0.47750 0.20090 0.39660 0.19800
C 	C 	0.52300 0.28800 0.39200 0.18500
H 	H 	0.51600 0.33920 0.40910 -0.02900
H 	H 	0.53470 0.31410 0.36720 0.03700
C 	C 	0.55310 0.23000 0.42050 -0.25600
H 	H 	0.55260 0.24250 0.45180 0.14300
H 	H 	0.57930 0.24550 0.41550 0.10000
C 	C 	0.62000 0.15300 0.32800 -0.22800
H 	H 	0.64270 0.19060 0.34070 0.09200
H 	H 	0.60210 0.15440 0.34920 0.08800
C 	C 	0.59900 0.20000 0.28500 0.02300
H 	H 	0.61810 0.21160 0.26640 0.02500
H 	H 	0.58900 0.25910 0.29310 0.01400
C 	C 	0.56500 0.14500 0.25900 -0.21200
H 	H 	0.54050 0.17700 0.25870 0.08500
H 	H 	0.56870 0.13740 0.22830 0.09300
C 	C 	0.56400 0.05100 0.28100 0.08800
H 	H 	0.54510 0.01190 0.26140 0.00000
H 	H 	0.55510 0.05800 0.30920 -0.00900
C 	C 	0.60400 0.00200 0.29000 -0.29800
H 	H 	0.61390 0.99710 0.26250 0.13900
H 	H 	0.60100 0.94040 0.30150 0.22100
C 	C 	0.63370 0.05500 0.32500 0.12300
H 	H 	0.65930 0.05510 0.31600 0.00600
H 	H 	0.63660 0.02560 0.35400 0.07600
C 	C 	0.60730 0.97360 0.34800 0.16100
C 	C 	0.64590 0.96600 0.33780 -0.55700
H 	H 	0.66870 0.98980 0.35590 0.19700
C 	C 	0.64570 0.92470 0.30240 0.52200
H 	H 	0.67010 0.91940 0.29380 -0.14900
C 	C 	0.61740 0.88920 0.27680 -0.52300
H 	H 	0.62370 0.85940 0.25190 0.18200
C 	C 	0.57580 0.88610 0.27900 0.13200
H 	H 	0.55570 0.85870 0.25800 -0.02200
C 	C 	0.57130 0.93360 0.32020 -0.26200
H 	H 	0.54670 0.93850 0.32850 0.12200
C 	C 	0.60110 0.02620 0.38740 -0.09800
H 	H 	0.62430 0.04980 0.40470 0.05100
C 	C 	0.57030 0.04580 0.40250 -0.13800
H 	H 	0.54570 0.01960 0.39080 0.08700
C 	C 	0.57580 0.11000 0.43810 -0.03500
H 	H 	0.60060 0.13420 0.45050 0.04700
O 	O 	0.54510 0.13200 0.45190 -0.44600
C 	C 	0.42710 0.36200 0.31010 -0.30000
H 	H 	0.43820 0.36590 0.34210 0.11600
H 	H 	0.39870 0.37170 0.30520 0.11300
C 	C 	0.44690 0.42900 0.28300 0.10600
H 	H 	0.44290 0.49290 0.29130 -0.01800
H 	H 	0.43740 0.42150 0.25080 -0.01700
C 	C 	0.48990 0.40100 0.29700 -0.32900
H 	H 	0.49860 0.36940 0.27230 0.11300
H 	H 	0.50650 0.45480 0.30510 0.11500
C 	C 	0.49310 0.33600 0.33740 0.32400
H 	H 	0.52070 0.32890 0.35170 -0.10600
H 	H 	0.47920 0.36310 0.35930 -0.09100
C 	C 	0.47520 0.24200 0.32200 -0.65300
H 	H 	0.46980 0.20660 0.34760 0.31900
H 	H 	0.49250 0.20660 0.30700 0.36700
C 	C 	0.43720 0.26900 0.29030 0.22000
H 	H 	0.44150 0.27670 0.25970 -0.04300
H 	H 	0.41650 0.22390 0.29040 -0.05000
C 	C 	0.58410 0.38200 0.33400 -0.08500
H 	H 	0.56650 0.39530 0.30550 0.04600
H 	H 	0.60420 0.42950 0.34010 0.04900
C 	C 	0.56050 0.37700 0.37200 -0.05200
H 	H 	0.54310 0.43000 0.37170 0.04100
H 	H 	0.54500 0.32090 0.37070 0.01500
C 	C 	0.59290 0.37800 0.41400 -0.10200
H 	H 	0.59190 0.32270 0.43180 0.04800
H 	H 	0.59030 0.43170 0.43260 0.06500
C 	C 	0.63140 0.38200 0.39620 -0.06300
H 	H 	0.63000 0.43150 0.37400 0.04700
H 	H 	0.65370 0.39470 0.42070 0.05500
C 	C 	0.63660 0.29000 0.37500 -0.10100
H 	H 	0.63390 0.24000 0.39530 0.04600
H 	H 	0.66240 0.28610 0.36660 0.05100
C 	C 	0.60290 0.28800 0.33260 -0.07800
H 	H 	0.61330 0.28000 0.30530 0.04500
H 	H 	0.58420 0.23870 0.33460 0.05600
C 	C 	0.51730 0.70000 0.25530 -0.11900
H 	H 	0.51820 0.76470 0.24650 0.05600
H 	H 	0.53930 0.68790 0.28000 0.03800
C 	C 	0.47900 0.67800 0.26780 -0.01300
H 	H 	0.45780 0.69720 0.24350 0.04500
H 	H 	0.47670 0.71360 0.29430 0.02100
C 	C 	0.47280 0.58100 0.27730 -0.10100
H 	H 	0.44450 0.56960 0.26930 0.03800
H 	H 	0.48030 0.57320 0.30980 0.04000
C 	C 	0.49210 0.50800 0.25690 0.03000
H 	H 	0.50610 0.46830 0.28060 -0.01200
H 	H 	0.47200 0.47110 0.23790 0.00400
C 	C 	0.52040 0.54100 0.22950 -0.10300
H 	H 	0.51670 0.50410 0.20220 0.04700
H 	H 	0.54700 0.52900 0.24620 0.04500
C 	C 	0.51780 0.63800 0.21660 0.04300
H 	H 	0.54030 0.65340 0.20310 0.01100
H 	H 	0.49390 0.64750 0.19400 0.01500
C 	C 	0.45370 0.13000 0.08800 0.16200
H 	H 	0.46870 0.10790 0.06610 0.25100
H 	H 	0.42800 0.10000 0.08080 0.08100
C 	C 	0.47370 0.09500 0.13200 -0.44100
H 	H 	0.45370 0.07990 0.14950 0.16500
H 	H 	0.48740 0.03860 0.12780 0.13600
C 	C 	0.50270 0.16000 0.15960 0.40600
H 	H 	0.49110 0.18900 0.18280 -0.28300
H 	H 	0.52630 0.12670 0.17390 -0.13100
C 	C 	0.51280 0.23100 0.12800 -0.62500
H 	H 	0.53370 0.27110 0.14360 0.23700
H 	H 	0.52250 0.20090 0.10340 0.19800
C 	C 	0.47700 0.28800 0.10800 0.18500
H 	H 	0.48400 0.33920 0.09090 -0.02900
H 	H 	0.46530 0.31410 0.13280 0.03700
C 	C 	0.44690 0.23000 0.07950 -0.25600
H 	H 	0.44740 0.24250 0.04820 0.14300
H 	H 	0.42070 0.24550 0.08450 0.10000
C 	C 	0.38000 0.15300 0.17200 -0.22800
H 	H 	0.35730 0.19060 0.15930 0.09200
H 	H 	0.39790 0.15440 0.15080 0.08800
C 	C 	0.40100 0.20000 0.21500 0.02200
H 	H 	0.38190 0.21160 0.23360 0.02500
H 	H 	0.41100 0.25910 0.20690 0.01400
C 	C 	0.43500 0.14500 0.24100 -0.21200
H 	H 	0.45950 0.17700 0.24130 0.08500
H 	H 	0.43130 0.13740 0.27170 0.09300
C 	C 	0.43600 0.05100 0.21900 0.08800
H 	H 	0.45490 0.01190 0.23860 0.00000
H 	H 	0.44490 0.05800 0.19080 -0.00900
C 	C 	0.39600 0.00200 0.21000 -0.29700
H 	H 	0.38610 0.99710 0.23750 0.13900
H 	H 	0.39900 0.94040 0.19850 0.22000
C 	C 	0.36630 0.05500 0.17500 0.12200
H 	H 	0.34070 0.05510 0.18400 0.00700
H 	H 	0.36340 0.02560 0.14600 0.07600
C 	C 	0.39270 0.97360 0.15200 0.16100
C 	C 	0.35410 0.96600 0.16220 -0.55700
H 	H 	0.33130 0.98980 0.14410 0.19600
C 	C 	0.35430 0.92470 0.19760 0.52100
H 	H 	0.32990 0.91940 0.20620 -0.14900
C 	C 	0.38260 0.88920 0.22320 -0.52200
H 	H 	0.37630 0.85940 0.24810 0.18200
C 	C 	0.42420 0.88610 0.22100 0.13200
H 	H 	0.44430 0.85870 0.24200 -0.02200
C 	C 	0.42870 0.93360 0.17980 -0.26200
H 	H 	0.45330 0.93850 0.17150 0.12200
C 	C 	0.39890 0.02620 0.11260 -0.09700
H 	H 	0.37570 0.04980 0.09530 0.05100
C 	C 	0.42970 0.04580 0.09750 -0.13800
H 	H 	0.45430 0.01960 0.10920 0.08700
C 	C 	0.42420 0.11000 0.06190 -0.03500
H 	H 	0.39940 0.13420 0.04950 0.04700
O 	O 	0.45490 0.13200 0.04810 -0.44600
C 	C 	0.57290 0.36200 0.18990 -0.30000
H 	H 	0.56180 0.36590 0.15790 0.11600
H 	H 	0.60130 0.37170 0.19480 0.11400
C 	C 	0.55310 0.42900 0.21700 0.10600
H 	H 	0.55710 0.49290 0.20870 -0.01800
H 	H 	0.56260 0.42150 0.24920 -0.01700
C 	C 	0.51010 0.40100 0.20300 -0.32900
H 	H 	0.50140 0.36940 0.22770 0.11300
H 	H 	0.49350 0.45480 0.19490 0.11500
C 	C 	0.50690 0.33600 0.16260 0.32400
H 	H 	0.47930 0.32890 0.14830 -0.10600
H 	H 	0.52080 0.36310 0.14070 -0.09100
C 	C 	0.52480 0.24200 0.17800 -0.65300
H 	H 	0.53020 0.20660 0.15240 0.31900
H 	H 	0.50750 0.20660 0.19300 0.36700
C 	C 	0.56280 0.26900 0.20970 0.22100
H 	H 	0.55850 0.27670 0.24030 -0.04300
H 	H 	0.58350 0.22390 0.20960 -0.05000
C 	C 	0.41590 0.38200 0.16600 -0.08500
H 	H 	0.43350 0.39530 0.19450 0.04600
H 	H 	0.39580 0.42950 0.15990 0.04900
C 	C 	0.43950 0.37700 0.12800 -0.05200
H 	H 	0.45690 0.43000 0.12830 0.04100
H 	H 	0.45500 0.32090 0.12930 0.01500
C 	C 	0.40710 0.37800 0.08600 -0.10200
H 	H 	0.40810 0.32270 0.06820 0.04800
H 	H 	0.40970 0.43170 0.06740 0.06500
C 	C 	0.36860 0.38200 0.10380 -0.06300
H 	H 	0.37000 0.43150 0.12600 0.04700
H 	H 	0.34630 0.39470 0.07930 0.05500
C 	C 	0.36340 0.29000 0.12500 -0.10100
H 	H 	0.36610 0.24000 0.10470 0.04700
H 	H 	0.33760 0.28610 0.13340 0.05100
C 	C 	0.39710 0.28800 0.16740 -0.07800
H 	H 	0.38670 0.28000 0.19470 0.04500
H 	H 	0.41580 0.23870 0.16540 0.05600
C 	C 	0.48270 0.70000 0.24470 -0.12000
H 	H 	0.48180 0.76470 0.25350 0.05600
H 	H 	0.46070 0.68790 0.22000 0.03800
C 	C 	0.52100 0.67800 0.23220 -0.01300
H 	H 	0.54220 0.69720 0.25650 0.04500
H 	H 	0.52330 0.71360 0.20570 0.02100
C 	C 	0.52720 0.58100 0.22270 -0.10100
H 	H 	0.55550 0.56960 0.23070 0.03800
H 	H 	0.51970 0.57320 0.19020 0.04000
C 	C 	0.50790 0.50800 0.24310 0.03000
H 	H 	0.49390 0.46830 0.21940 -0.01200
H 	H 	0.52800 0.47110 0.26210 0.00400
C 	C 	0.47960 0.54100 0.27050 -0.10300
H 	H 	0.48330 0.50410 0.29780 0.04700
H 	H 	0.45300 0.52900 0.25380 0.04500
C 	C 	0.48220 0.63800 0.28340 0.04300
H 	H 	0.45970 0.65340 0.29690 0.01100
H 	H 	0.50610 0.64750 0.30600 0.01500
C 	C 	0.04630 0.63000 0.41200 0.16300
H 	H 	0.03130 0.60790 0.43390 0.25100
H 	H 	0.07200 0.60000 0.41920 0.08100
C 	C 	0.02630 0.59500 0.36800 -0.44200
H 	H 	0.04630 0.57990 0.35050 0.16600
H 	H 	0.01260 0.53860 0.37220 0.13600
C 	C 	0.99730 0.66000 0.34040 0.40700
H 	H 	0.00890 0.68900 0.31720 -0.28400
H 	H 	0.97370 0.62670 0.32610 -0.13100
C 	C 	0.98720 0.73100 0.37200 -0.62600
H 	H 	0.96630 0.77110 0.35640 0.23700
H 	H 	0.97750 0.70090 0.39660 0.19900
C 	C 	0.02300 0.78800 0.39200 0.18600
H 	H 	0.01600 0.83920 0.40910 -0.03000
H 	H 	0.03470 0.81410 0.36720 0.03700
C 	C 	0.05310 0.73000 0.42050 -0.25600
H 	H 	0.05260 0.74250 0.45180 0.14300
H 	H 	0.07930 0.74550 0.41550 0.10000
C 	C 	0.12000 0.65300 0.32800 -0.23000
H 	H 	0.14270 0.69060 0.34070 0.09200
H 	H 	0.10210 0.65440 0.34920 0.08900
C 	C 	0.09900 0.70000 0.28500 0.02400
H 	H 	0.11810 0.71160 0.26640 0.02400
H 	H 	0.08900 0.75910 0.29310 0.01300
C 	C 	0.06500 0.64500 0.25900 -0.21300
H 	H 	0.04050 0.67700 0.25870 0.08500
H 	H 	0.06870 0.63740 0.22830 0.09400
C 	C 	0.06400 0.55100 0.28100 0.09000
H 	H 	0.04510 0.51190 0.26140 -0.00100
H 	H 	0.05510 0.55800 0.30920 -0.00900
C 	C 	0.10400 0.50200 0.29000 -0.30000
H 	H 	0.11390 0.49710 0.26250 0.14000
H 	H 	0.10100 0.44040 0.30150 0.22200
C 	C 	0.13370 0.55500 0.32500 0.12400
H 	H 	0.15930 0.55510 0.31600 0.00600
H 	H 	0.13660 0.52560 0.35400 0.07500
C 	C 	0.10730 0.47360 0.34800 0.16200
C 	C 	0.14590 0.46600 0.33780 -0.55900
H 	H 	0.16870 0.48980 0.35590 0.19700
C 	C 	0.14570 0.42470 0.30240 0.52400
H 	H 	0.17010 0.41940 0.29380 -0.14900
C 	C 	0.11740 0.38920 0.27680 -0.52500
H 	H 	0.12370 0.35940 0.25190 0.18300
C 	C 	0.07580 0.38610 0.27900 0.13300
H 	H 	0.05570 0.35870 0.25800 -0.02200
C 	C 	0.07130 0.43360 0.32020 -0.26300
H 	H 	0.04670 0.43850 0.32850 0.12300
C 	C 	0.10110 0.52620 0.38740 -0.09900
H 	H 	0.12430 0.54980 0.40470 0.05200
C 	C 	0.07030 0.54580 0.40250 -0.13700
H 	H 	0.04570 0.51960 0.39080 0.08600
C 	C 	0.07580 0.61000 0.43810 -0.03600
H 	H 	0.10060 0.63420 0.45050 0.04700
O 	O 	0.04510 0.63200 0.45190 -0.44600
C 	C 	0.92710 0.86200 0.31010 -0.30100
H 	H 	0.93820 0.86590 0.34210 0.11700
H 	H 	0.89870 0.87170 0.30520 0.11400
C 	C 	0.94690 0.92900 0.28300 0.10700
H 	H 	0.94290 0.99290 0.29130 -0.01900
H 	H 	0.93740 0.92150 0.25080 -0.01800
C 	C 	0.98990 0.90100 0.29700 -0.33000
H 	H 	0.99860 0.86940 0.27230 0.11300
H 	H 	0.00650 0.95480 0.30510 0.11500
C 	C 	0.99310 0.83600 0.33740 0.32500
H 	H 	0.02070 0.82890 0.35170 -0.10600
H 	H 	0.97920 0.86310 0.35930 -0.09100
C 	C 	0.97520 0.74200 0.32200 -0.65500
H 	H 	0.96980 0.70660 0.34760 0.31900
H 	H 	0.99250 0.70660 0.30700 0.36800
C 	C 	0.93720 0.76900 0.29030 0.22100
H 	H 	0.94150 0.77670 0.25970 -0.04300
H 	H 	0.91650 0.72390 0.29040 -0.05100
C 	C 	0.08410 0.88200 0.33400 -0.08500
H 	H 	0.06650 0.89530 0.30550 0.04600
H 	H 	0.10420 0.92950 0.34010 0.04900
C 	C 	0.06050 0.87700 0.37200 -0.05200
H 	H 	0.04310 0.93000 0.37170 0.04100
H 	H 	0.04500 0.82090 0.37070 0.01500
C 	C 	0.09290 0.87800 0.41400 -0.10200
H 	H 	0.09190 0.82270 0.43180 0.04800
H 	H 	0.09030 0.93170 0.43260 0.06500
C 	C 	0.13140 0.88200 0.39620 -0.06200
H 	H 	0.13000 0.93150 0.37400 0.04700
H 	H 	0.15370 0.89470 0.42070 0.05500
C 	C 	0.13660 0.79000 0.37500 -0.10100
H 	H 	0.13390 0.74000 0.39530 0.04600
H 	H 	0.16240 0.78610 0.36660 0.05100
C 	C 	0.10290 0.78800 0.33260 -0.07800
H 	H 	0.11330 0.78000 0.30530 0.04500
H 	H 	0.08420 0.73870 0.33460 0.05600
C 	C 	0.01730 0.20000 0.25530 -0.12000
H 	H 	0.01820 0.26470 0.24650 0.05600
H 	H 	0.03930 0.18790 0.28000 0.03800
C 	C 	0.97900 0.17800 0.26780 -0.01200
H 	H 	0.95780 0.19720 0.24350 0.04500
H 	H 	0.97670 0.21360 0.29430 0.02100
C 	C 	0.97280 0.08100 0.27730 -0.10300
H 	H 	0.94450 0.06960 0.26930 0.03900
H 	H 	0.98030 0.07320 0.30980 0.04000
C 	C 	0.99210 0.00800 0.25690 0.03100
H 	H 	0.00610 0.96830 0.28060 -0.01200
H 	H 	0.97200 0.97110 0.23790 0.00400
C 	C 	0.02040 0.04100 0.22950 -0.10400
H 	H 	0.01670 0.00410 0.20220 0.04700
H 	H 	0.04700 0.02900 0.24620 0.04600
C 	C 	0.01780 0.13800 0.21660 0.04400
H 	H 	0.04030 0.15340 0.20310 0.01100
H 	H 	0.99390 0.14750 0.19400 0.01400
C 	C 	0.95370 0.63000 0.08800 0.16200
H 	H 	0.96870 0.60790 0.06610 0.25100
H 	H 	0.92800 0.60000 0.08080 0.08100
C 	C 	0.97370 0.59500 0.13200 -0.44000
H 	H 	0.95370 0.57990 0.14950 0.16500
H 	H 	0.98740 0.53860 0.12780 0.13600
C 	C 	0.00270 0.66000 0.15960 0.40500
H 	H 	0.99110 0.68900 0.18280 -0.28300
H 	H 	0.02630 0.62670 0.17390 -0.13100
C 	C 	0.01280 0.73100 0.12800 -0.62500
H 	H 	0.03370 0.77110 0.14360 0.23700
H 	H 	0.02250 0.70090 0.10340 0.19800
C 	C 	0.97700 0.78800 0.10800 0.18500
H 	H 	0.98400 0.83920 0.09090 -0.02900
H 	H 	0.96530 0.81410 0.13280 0.03700
C 	C 	0.94690 0.73000 0.07950 -0.25600
H 	H 	0.94740 0.74250 0.04820 0.14300
H 	H 	0.92070 0.74550 0.08450 0.10000
C 	C 	0.88000 0.65300 0.17200 -0.23000
H 	H 	0.85730 0.69060 0.15930 0.09200
H 	H 	0.89790 0.65440 0.15080 0.08900
C 	C 	0.90100 0.70000 0.21500 0.02400
H 	H 	0.88190 0.71160 0.23360 0.02400
H 	H 	0.91100 0.75910 0.20690 0.01300
C 	C 	0.93500 0.64500 0.24100 -0.21300
H 	H 	0.95950 0.67700 0.24130 0.08500
H 	H 	0.93130 0.63740 0.27170 0.09400
C 	C 	0.93600 0.55100 0.21900 0.09000
H 	H 	0.95490 0.51190 0.23860 -0.00000
H 	H 	0.94490 0.55800 0.19080 -0.00900
C 	C 	0.89600 0.50200 0.21000 -0.30000
H 	H 	0.88610 0.49710 0.23750 0.14000
H 	H 	0.89900 0.44040 0.19850 0.22200
C 	C 	0.86630 0.55500 0.17500 0.12400
H 	H 	0.84070 0.55510 0.18400 0.00600
H 	H 	0.86340 0.52560 0.14600 0.07500
C 	C 	0.89270 0.47360 0.15200 0.16200
C 	C 	0.85410 0.46600 0.16220 -0.55900
H 	H 	0.83130 0.48980 0.14410 0.19700
C 	C 	0.85430 0.42470 0.19760 0.52400
H 	H 	0.82990 0.41940 0.20620 -0.14900
C 	C 	0.88260 0.38920 0.22320 -0.52500
H 	H 	0.87630 0.35940 0.24810 0.18300
C 	C 	0.92420 0.38610 0.22100 0.13300
H 	H 	0.94430 0.35870 0.24200 -0.02200
C 	C 	0.92870 0.43360 0.17980 -0.26300
H 	H 	0.95330 0.43850 0.17150 0.12300
C 	C 	0.89890 0.52620 0.11260 -0.09900
H 	H 	0.87570 0.54980 0.09530 0.05200
C 	C 	0.92970 0.54580 0.09750 -0.13700
H 	H 	0.95430 0.51960 0.10920 0.08600
C 	C 	0.92420 0.61000 0.06190 -0.03600
H 	H 	0.89940 0.63420 0.04950 0.04700
O 	O 	0.95490 0.63200 0.04810 -0.44600
C 	C 	0.07290 0.86200 0.18990 -0.30000
H 	H 	0.06180 0.86590 0.15790 0.11600
H 	H 	0.10130 0.87170 0.19480 0.11300
C 	C 	0.05310 0.92900 0.21700 0.10700
H 	H 	0.05710 0.99290 0.20870 -0.01900
H 	H 	0.06260 0.92150 0.24920 -0.01700
C 	C 	0.01010 0.90100 0.20300 -0.32900
H 	H 	0.00140 0.86940 0.22770 0.11300
H 	H 	0.99350 0.95480 0.19490 0.11500
C 	C 	0.00690 0.83600 0.16260 0.32400
H 	H 	0.97930 0.82890 0.14830 -0.10600
H 	H 	0.02080 0.86310 0.14070 -0.09100
C 	C 	0.02480 0.74200 0.17800 -0.65300
H 	H 	0.03020 0.70660 0.15240 0.31800
H 	H 	0.00750 0.70660 0.19300 0.36700
C 	C 	0.06280 0.76900 0.20970 0.22000
H 	H 	0.05850 0.77670 0.24030 -0.04300
H 	H 	0.08350 0.72390 0.20960 -0.05000
C 	C 	0.91590 0.88200 0.16600 -0.08500
H 	H 	0.93350 0.89530 0.19450 0.04600
H 	H 	0.89580 0.92950 0.15990 0.04900
C 	C 	0.93950 0.87700 0.12800 -0.05200
H 	H 	0.95690 0.93000 0.12830 0.04000
H 	H 	0.95500 0.82090 0.12930 0.01500
C 	C 	0.90710 0.87800 0.08600 -0.10200
H 	H 	0.90810 0.82270 0.06820 0.04800
H 	H 	0.90970 0.93170 0.06740 0.06500
C 	C 	0.86860 0.88200 0.10380 -0.06200
H 	H 	0.87000 0.93150 0.12600 0.04700
H 	H 	0.84630 0.89470 0.07930 0.05400
C 	C 	0.86340 0.79000 0.12500 -0.10100
H 	H 	0.86610 0.74000 0.10470 0.04700
H 	H 	0.83760 0.78610 0.13340 0.05100
C 	C 	0.89710 0.78800 0.16740 -0.07800
H 	H 	0.88670 0.78000 0.19470 0.04500
H 	H 	0.91580 0.73870 0.16540 0.05600
C 	C 	0.98270 0.20000 0.24470 -0.12200
H 	H 	0.98180 0.26470 0.25350 0.05700
H 	H 	0.96070 0.18790 0.22000 0.03800
C 	C 	0.02100 0.17800 0.23220 -0.01200
H 	H 	0.04220 0.19720 0.25650 0.04500
H 	H 	0.02330 0.21360 0.20570 0.02100
C 	C 	0.02720 0.08100 0.22270 -0.10300
H 	H 	0.05550 0.06960 0.23070 0.03900
H 	H 	0.01970 0.07320 0.19020 0.04100
C 	C 	0.00790 0.00800 0.24310 0.03200
H 	H 	0.99390 0.96830 0.21940 -0.01300
H 	H 	0.02800 0.97110 0.26210 0.00300
C 	C 	0.97960 0.04100 0.27050 -0.10400
H 	H 	0.98330 0.00410 0.29780 0.04800
H 	H 	0.95300 0.02900 0.25380 0.04600
C 	C 	0.98220 0.13800 0.28340 0.04500
H 	H 	0.95970 0.15340 0.29690 0.01000
H 	H 	0.00610 0.14750 0.30600 0.01400
