data_crystal

_cell_length_a 7.09000
_cell_length_b 20.91000
_cell_length_c 27.82300
_cell_angle_alpha 107.61100
_cell_angle_beta  90.00000
_cell_angle_gamma 90.00000

_symmetry_space_group_name_	'P 1'
_symmetry_space_group_name_H-M	'P 1'

loop_
_symmetry_equiv_pos_as_xyz
  x,y,z

loop_
_atom_site_label
_atom_site_type_symbol
_atom_site_fract_x
_atom_site_fract_y
_atom_site_fract_z
_atom_site_charge
Sm	Sm	0.87277 0.91035 0.66149 2.11700
Sm	Sm	0.08665 0.74695 0.20675 2.08500
Sm	Sm	0.37277 0.08965 0.83851 2.12300
Sm	Sm	0.58665 0.25305 0.29325 2.09500
Sm	Sm	0.12723 0.08965 0.33851 2.11700
Sm	Sm	0.91335 0.25305 0.79325 2.08500
Sm	Sm	0.62723 0.91035 0.16149 2.12200
Sm	Sm	0.41335 0.74695 0.70675 2.09400
P 	P 	0.95937 0.91779 0.27272 0.59400
P 	P 	0.91364 0.75047 0.67951 0.51800
P 	P 	0.37753 0.86332 0.62631 0.55400
P 	P 	0.45937 0.08221 0.22728 0.58600
P 	P 	0.41364 0.24953 0.82049 0.52000
P 	P 	0.87753 0.13668 0.87369 0.55100
P 	P 	0.04063 0.08221 0.72728 0.59400
P 	P 	0.08636 0.24953 0.32049 0.51800
P 	P 	0.62247 0.13668 0.37369 0.55400
P 	P 	0.54063 0.91779 0.77272 0.58600
P 	P 	0.58636 0.75047 0.17951 0.52000
P 	P 	0.12247 0.86332 0.12631 0.55100
H 	H 	0.65010 0.98750 0.32330 0.10600
H 	H 	0.81200 0.62070 0.68620 0.13500
H 	H 	0.01700 0.61960 0.68810 0.14200
H 	H 	0.16050 0.76520 0.58550 0.10300
H 	H 	0.07390 0.79390 0.54960 0.13000
H 	H 	0.88340 0.90310 0.35020 0.12000
H 	H 	0.75200 0.85790 0.30800 0.10600
H 	H 	0.43200 0.98060 0.38260 0.09000
H 	H 	0.44500 0.90300 0.35670 0.08700
H 	H 	0.55150 0.83700 0.40500 0.11100
H 	H 	0.68390 0.82390 0.47790 0.00100
H 	H 	0.81820 0.01820 0.52320 0.01500
H 	H 	0.69870 0.03030 0.44940 0.10300
H 	H 	0.82230 0.65600 0.61490 0.05500
H 	H 	0.04270 0.65790 0.61970 0.05200
H 	H 	0.02930 0.53500 0.61130 0.05700
H 	H 	0.80770 0.53550 0.61050 0.05400
H 	H 	0.63360 0.49330 0.67360 0.08200
H 	H 	0.63620 0.42850 0.72740 0.02300
H 	H 	0.19310 0.40770 0.71170 0.02400
H 	H 	0.19180 0.47310 0.65820 0.07800
H 	H 	0.99140 0.76580 0.38180 0.00200
H 	H 	0.95370 0.74850 0.45960 0.10800
H 	H 	0.29390 0.68080 0.52320 0.05400
H 	H 	0.07430 0.68090 0.51620 0.06000
H 	H 	0.45370 0.79120 0.54600 0.09200
H 	H 	0.31960 0.84860 0.54050 0.09800
H 	H 	0.48000 0.68040 0.45290 0.09300
H 	H 	0.51980 0.69660 0.37470 0.00100
H 	H 	0.45440 0.74990 0.27690 0.31400
H 	H 	0.15010 0.01250 0.17670 0.10300
H 	H 	0.31200 0.37930 0.81380 0.13500
H 	H 	0.51700 0.38040 0.81190 0.13900
H 	H 	0.66050 0.23480 0.91450 0.10200
H 	H 	0.57390 0.20610 0.95040 0.12900
H 	H 	0.38340 0.09690 0.14980 0.11900
H 	H 	0.25200 0.14210 0.19200 0.10500
H 	H 	0.93200 0.01940 0.11740 0.10000
H 	H 	0.94500 0.09700 0.14330 0.09700
H 	H 	0.05150 0.16300 0.09500 0.11200
H 	H 	0.18390 0.17610 0.02210 -0.00000
H 	H 	0.31820 0.98180 0.97680 0.01400
H 	H 	0.19870 0.96970 0.05060 0.10500
H 	H 	0.32230 0.34400 0.88510 0.05400
H 	H 	0.54270 0.34210 0.88030 0.04800
H 	H 	0.52930 0.46500 0.88870 0.05400
H 	H 	0.30770 0.46450 0.88950 0.05300
H 	H 	0.13360 0.50670 0.82640 0.08300
H 	H 	0.13620 0.57150 0.77260 0.02400
H 	H 	0.69310 0.59230 0.78830 0.02500
H 	H 	0.69180 0.52690 0.84180 0.07800
H 	H 	0.49140 0.23420 0.11820 -0.00600
H 	H 	0.45370 0.25150 0.04040 0.11000
H 	H 	0.79390 0.31920 0.97680 0.05500
H 	H 	0.57430 0.31910 0.98380 0.06200
H 	H 	0.95370 0.20880 0.95400 0.09100
H 	H 	0.81960 0.15140 0.95950 0.09800
H 	H 	0.98000 0.31960 0.04710 0.09700
H 	H 	0.01980 0.30340 0.12530 -0.00600
H 	H 	0.95440 0.25010 0.22310 0.31500
H 	H 	0.34990 0.01250 0.67670 0.10600
H 	H 	0.18800 0.37930 0.31380 0.13500
H 	H 	0.98300 0.38040 0.31190 0.14200
H 	H 	0.83950 0.23480 0.41450 0.10300
H 	H 	0.92610 0.20610 0.45040 0.13000
H 	H 	0.11660 0.09690 0.64980 0.12000
H 	H 	0.24800 0.14210 0.69200 0.10600
H 	H 	0.56800 0.01940 0.61740 0.09000
H 	H 	0.55500 0.09700 0.64330 0.08700
H 	H 	0.44850 0.16300 0.59500 0.11100
H 	H 	0.31610 0.17610 0.52210 0.00100
H 	H 	0.18180 0.98180 0.47680 0.01500
H 	H 	0.30130 0.96970 0.55060 0.10300
H 	H 	0.17770 0.34400 0.38510 0.05500
H 	H 	0.95730 0.34210 0.38030 0.05200
H 	H 	0.97070 0.46500 0.38870 0.05700
H 	H 	0.19230 0.46450 0.38950 0.05400
H 	H 	0.36640 0.50670 0.32640 0.08200
H 	H 	0.36380 0.57150 0.27260 0.02300
H 	H 	0.80690 0.59230 0.28830 0.02400
H 	H 	0.80820 0.52690 0.34180 0.07800
H 	H 	0.00860 0.23420 0.61820 0.00200
H 	H 	0.04630 0.25150 0.54040 0.10800
H 	H 	0.70610 0.31920 0.47680 0.05400
H 	H 	0.92570 0.31910 0.48380 0.06000
H 	H 	0.54630 0.20880 0.45400 0.09200
H 	H 	0.68040 0.15140 0.45950 0.09800
H 	H 	0.52000 0.31960 0.54710 0.09300
H 	H 	0.48020 0.30340 0.62530 0.00100
H 	H 	0.54560 0.25010 0.72310 0.31400
H 	H 	0.84990 0.98750 0.82330 0.10300
H 	H 	0.68800 0.62070 0.18620 0.13500
H 	H 	0.48300 0.61960 0.18810 0.13900
H 	H 	0.33950 0.76520 0.08550 0.10200
H 	H 	0.42610 0.79390 0.04960 0.12900
H 	H 	0.61660 0.90310 0.85020 0.11900
H 	H 	0.74800 0.85790 0.80800 0.10500
H 	H 	0.06800 0.98060 0.88260 0.10000
H 	H 	0.05500 0.90300 0.85670 0.09700
H 	H 	0.94850 0.83700 0.90500 0.11200
H 	H 	0.81610 0.82390 0.97790 -0.00000
H 	H 	0.68180 0.01820 0.02320 0.01400
H 	H 	0.80130 0.03030 0.94940 0.10500
H 	H 	0.67770 0.65600 0.11490 0.05400
H 	H 	0.45730 0.65790 0.11970 0.04800
H 	H 	0.47070 0.53500 0.11130 0.05400
H 	H 	0.69230 0.53550 0.11050 0.05300
H 	H 	0.86640 0.49330 0.17360 0.08300
H 	H 	0.86380 0.42850 0.22740 0.02400
H 	H 	0.30690 0.40770 0.21170 0.02500
H 	H 	0.30820 0.47310 0.15820 0.07800
H 	H 	0.50860 0.76580 0.88180 -0.00600
H 	H 	0.54630 0.74850 0.95960 0.11000
H 	H 	0.20610 0.68080 0.02320 0.05500
H 	H 	0.42570 0.68090 0.01620 0.06200
H 	H 	0.04630 0.79120 0.04600 0.09100
H 	H 	0.18040 0.84860 0.04050 0.09800
H 	H 	0.02000 0.68040 0.95290 0.09700
H 	H 	0.98020 0.69660 0.87470 -0.00600
H 	H 	0.04560 0.74990 0.77690 0.31500
C 	C 	0.80860 0.90210 0.32080 -0.24300
C 	C 	0.51830 0.94290 0.37279 -0.16600
C 	C 	0.61000 0.93470 0.41946 0.15700
C 	C 	0.60690 0.87360 0.42840 -0.19800
C 	C 	0.68620 0.86570 0.47250 0.09200
C 	C 	0.76690 0.91940 0.50781 -0.14400
C 	C 	0.76720 0.98120 0.49910 0.08800
C 	C 	0.69300 0.98880 0.45510 -0.18000
C 	C 	0.84480 0.91220 0.55660 0.34100
C 	C 	0.92600 0.66410 0.63870 -0.19700
C 	C 	0.91730 0.54260 0.63240 -0.13100
C 	C 	0.91390 0.49360 0.66310 0.10700
C 	C 	0.74750 0.47780 0.68230 -0.15500
C 	C 	0.74950 0.43880 0.71460 0.06600
C 	C 	0.91540 0.41500 0.72820 -0.12800
C 	C 	0.08060 0.42650 0.70530 0.06800
C 	C 	0.08000 0.46560 0.67320 -0.15000
C 	C 	0.91810 0.37700 0.76590 0.32200
C 	C 	0.27810 0.74510 0.32060 0.48400
C 	C 	0.25950 0.73350 0.37100 -0.20700
C 	C 	0.09060 0.74880 0.39610 0.12600
C 	C 	0.06840 0.73870 0.44280 -0.21200
C 	C 	0.21550 0.71430 0.46430 0.15800
C 	C 	0.18890 0.70610 0.51590 -0.15300
C 	C 	0.34230 0.81740 0.55951 -0.21700
C 	C 	0.38180 0.69810 0.43870 -0.21400
C 	C 	0.40600 0.70760 0.39180 0.12800
C 	C 	0.30860 0.09790 0.17920 -0.24300
C 	C 	0.01830 0.05710 0.12721 -0.18900
C 	C 	0.11000 0.06530 0.08054 0.16500
C 	C 	0.10690 0.12640 0.07160 -0.20400
C 	C 	0.18620 0.13430 0.02750 0.09600
C 	C 	0.26690 0.08060 0.99219 -0.14600
C 	C 	0.26720 0.01880 0.00090 0.09200
C 	C 	0.19300 0.01120 0.04490 -0.18700
C 	C 	0.34480 0.08780 0.94340 0.34200
C 	C 	0.42600 0.33590 0.86130 -0.19100
C 	C 	0.41730 0.45740 0.86760 -0.12600
C 	C 	0.41390 0.50640 0.83690 0.11000
C 	C 	0.24750 0.52220 0.81770 -0.15500
C 	C 	0.24950 0.56120 0.78540 0.06500
C 	C 	0.41540 0.58500 0.77180 -0.12400
C 	C 	0.58060 0.57350 0.79470 0.06200
C 	C 	0.58000 0.53440 0.82680 -0.15300
C 	C 	0.41810 0.62300 0.73410 0.32800
C 	C 	0.77810 0.25490 0.17940 0.48800
C 	C 	0.75950 0.26650 0.12900 -0.21700
C 	C 	0.59060 0.25120 0.10390 0.14100
C 	C 	0.56840 0.26130 0.05720 -0.22000
C 	C 	0.71550 0.28570 0.03570 0.16600
C 	C 	0.68890 0.29390 0.98410 -0.15800
C 	C 	0.84230 0.18260 0.94049 -0.21600
C 	C 	0.88180 0.30190 0.06130 -0.22500
C 	C 	0.90600 0.29240 0.10820 0.14400
C 	C 	0.19140 0.09790 0.67920 -0.24300
C 	C 	0.48170 0.05710 0.62721 -0.16600
C 	C 	0.39000 0.06530 0.58054 0.15700
C 	C 	0.39310 0.12640 0.57160 -0.19800
C 	C 	0.31380 0.13430 0.52750 0.09200
C 	C 	0.23310 0.08060 0.49219 -0.14400
C 	C 	0.23280 0.01880 0.50090 0.08800
C 	C 	0.30700 0.01120 0.54490 -0.18000
C 	C 	0.15520 0.08780 0.44340 0.34100
C 	C 	0.07400 0.33590 0.36130 -0.19700
C 	C 	0.08270 0.45740 0.36760 -0.13100
C 	C 	0.08610 0.50640 0.33690 0.10700
C 	C 	0.25250 0.52220 0.31770 -0.15500
C 	C 	0.25050 0.56120 0.28540 0.06600
C 	C 	0.08460 0.58500 0.27180 -0.12800
C 	C 	0.91940 0.57350 0.29470 0.06800
C 	C 	0.92000 0.53440 0.32680 -0.15000
C 	C 	0.08190 0.62300 0.23410 0.32200
C 	C 	0.72190 0.25490 0.67940 0.48400
C 	C 	0.74050 0.26650 0.62900 -0.20700
C 	C 	0.90940 0.25120 0.60390 0.12600
C 	C 	0.93160 0.26130 0.55720 -0.21200
C 	C 	0.78450 0.28570 0.53570 0.15800
C 	C 	0.81110 0.29390 0.48410 -0.15300
C 	C 	0.65770 0.18260 0.44049 -0.21700
C 	C 	0.61820 0.30190 0.56130 -0.21400
C 	C 	0.59400 0.29240 0.60820 0.12800
C 	C 	0.69140 0.90210 0.82080 -0.24300
C 	C 	0.98170 0.94290 0.87279 -0.18900
C 	C 	0.89000 0.93470 0.91946 0.16500
C 	C 	0.89310 0.87360 0.92840 -0.20400
C 	C 	0.81380 0.86570 0.97250 0.09600
C 	C 	0.73310 0.91940 0.00781 -0.14600
C 	C 	0.73280 0.98120 0.99910 0.09200
C 	C 	0.80700 0.98880 0.95510 -0.18700
C 	C 	0.65520 0.91220 0.05660 0.34200
C 	C 	0.57400 0.66410 0.13870 -0.19100
C 	C 	0.58270 0.54260 0.13240 -0.12600
C 	C 	0.58610 0.49360 0.16310 0.11000
C 	C 	0.75250 0.47780 0.18230 -0.15500
C 	C 	0.75050 0.43880 0.21460 0.06500
C 	C 	0.58460 0.41500 0.22820 -0.12400
C 	C 	0.41940 0.42650 0.20530 0.06200
C 	C 	0.42000 0.46560 0.17320 -0.15300
C 	C 	0.58190 0.37700 0.26590 0.32800
C 	C 	0.22190 0.74510 0.82060 0.48800
C 	C 	0.24050 0.73350 0.87100 -0.21700
C 	C 	0.40940 0.74880 0.89610 0.14100
C 	C 	0.43160 0.73870 0.94280 -0.22000
C 	C 	0.28450 0.71430 0.96430 0.16600
C 	C 	0.31110 0.70610 0.01590 -0.15800
C 	C 	0.15770 0.81740 0.05951 -0.21600
C 	C 	0.11820 0.69810 0.93870 -0.22500
C 	C 	0.09400 0.70760 0.89180 0.14400
N 	N 	0.65710 0.95420 0.33531 -0.13000
N 	N 	0.91730 0.61380 0.66723 -0.22400
N 	N 	0.17700 0.77240 0.55555 -0.19900
N 	N 	0.15710 0.04580 0.16469 -0.12800
N 	N 	0.41730 0.38620 0.83277 -0.22200
N 	N 	0.67700 0.22760 0.94445 -0.19800
N 	N 	0.34290 0.04580 0.66469 -0.13000
N 	N 	0.08270 0.38620 0.33277 -0.22400
N 	N 	0.82300 0.22760 0.44445 -0.19900
N 	N 	0.84290 0.95420 0.83531 -0.12800
N 	N 	0.58270 0.61380 0.16723 -0.22200
N 	N 	0.32300 0.77240 0.05555 -0.19800
O 	O 	0.87490 0.96320 0.59235 -0.42800
O 	O 	0.86970 0.85320 0.55941 -0.38700
O 	O 	0.07210 0.97982 0.29831 -0.52600
O 	O 	0.08730 0.85711 0.25612 -0.50500
O 	O 	0.82930 0.92860 0.23316 -0.51000
O 	O 	0.92720 0.79301 0.64453 -0.52200
O 	O 	0.73170 0.75900 0.70866 -0.53700
O 	O 	0.08120 0.75891 0.71516 -0.50300
O 	O 	0.76610 0.36310 0.78355 -0.41800
O 	O 	0.07290 0.35520 0.77702 -0.41000
O 	O 	0.45340 0.74540 0.30518 -0.53600
O 	O 	0.14110 0.75270 0.29697 -0.48100
O 	O 	0.56060 0.90150 0.63005 -0.48800
O 	O 	0.20760 0.90931 0.64170 -0.46500
O 	O 	0.38090 0.80615 0.64913 -0.54500
O 	O 	0.37490 0.03680 0.90765 -0.42700
O 	O 	0.36970 0.14680 0.94059 -0.38600
O 	O 	0.57210 0.02018 0.20169 -0.52200
O 	O 	0.58730 0.14289 0.24388 -0.50100
O 	O 	0.32930 0.07140 0.26684 -0.51100
O 	O 	0.42720 0.20699 0.85547 -0.52100
O 	O 	0.23170 0.24100 0.79134 -0.53300
O 	O 	0.58120 0.24109 0.78484 -0.50500
O 	O 	0.26610 0.63690 0.71645 -0.41900
O 	O 	0.57290 0.64480 0.72298 -0.41700
O 	O 	0.95340 0.25460 0.19482 -0.53600
O 	O 	0.64110 0.24730 0.20303 -0.48100
O 	O 	0.06060 0.09850 0.86995 -0.48500
O 	O 	0.70760 0.09069 0.85830 -0.46800
O 	O 	0.88090 0.19385 0.85087 -0.54600
O 	O 	0.12510 0.03680 0.40765 -0.42800
O 	O 	0.13030 0.14680 0.44059 -0.38700
O 	O 	0.92790 0.02018 0.70169 -0.52600
O 	O 	0.91270 0.14289 0.74388 -0.50500
O 	O 	0.17070 0.07140 0.76684 -0.51000
O 	O 	0.07280 0.20699 0.35547 -0.52200
O 	O 	0.26830 0.24100 0.29134 -0.53700
O 	O 	0.91880 0.24109 0.28484 -0.50300
O 	O 	0.23390 0.63690 0.21645 -0.41800
O 	O 	0.92710 0.64480 0.22298 -0.41000
O 	O 	0.54660 0.25460 0.69482 -0.53600
O 	O 	0.85890 0.24730 0.70303 -0.48100
O 	O 	0.43940 0.09850 0.36995 -0.48800
O 	O 	0.79240 0.09069 0.35830 -0.46500
O 	O 	0.61910 0.19385 0.35087 -0.54500
O 	O 	0.62510 0.96320 0.09235 -0.42700
O 	O 	0.63030 0.85320 0.05941 -0.38600
O 	O 	0.42790 0.97982 0.79831 -0.52200
O 	O 	0.41270 0.85711 0.75612 -0.50100
O 	O 	0.67070 0.92860 0.73316 -0.51100
O 	O 	0.57280 0.79301 0.14453 -0.52100
O 	O 	0.76830 0.75900 0.20866 -0.53300
O 	O 	0.41880 0.75891 0.21516 -0.50500
O 	O 	0.73390 0.36310 0.28355 -0.41900
O 	O 	0.42710 0.35520 0.27702 -0.41700
O 	O 	0.04660 0.74540 0.80518 -0.53600
O 	O 	0.35890 0.75270 0.79697 -0.48100
O 	O 	0.93940 0.90150 0.13005 -0.48500
O 	O 	0.29240 0.90931 0.14170 -0.46800
O 	O 	0.11910 0.80615 0.14913 -0.54600
