data_crystal

_cell_length_a 35.86910
_cell_length_b 14.88640
_cell_length_c 31.28230
_cell_angle_alpha 90.00000
_cell_angle_beta  102.71100
_cell_angle_gamma 90.00000

_symmetry_space_group_name_	'P 1'
_symmetry_space_group_name_H-M	'P 1'

loop_
_symmetry_equiv_pos_as_xyz
  x,y,z

loop_
_atom_site_label
_atom_site_type_symbol
_atom_site_fract_x
_atom_site_fract_y
_atom_site_fract_z
_atom_site_charge
Zn	Zn	0.37745 0.40154 0.42929 1.15700
N 	N 	0.64160 0.66220 0.32850 -0.27500
C 	C 	0.65360 0.71130 0.36490 0.06500
H 	H 	0.67870 0.73570 0.37090 -0.01100
C 	C 	0.63000 0.72730 0.39390 -0.11000
H 	H 	0.63900 0.76200 0.41960 0.08500
C 	C 	0.59360 0.69240 0.38510 0.06800
C 	C 	0.58150 0.63980 0.34770 -0.11600
H 	H 	0.55680 0.61290 0.34130 0.08700
C 	C 	0.60640 0.62830 0.32060 0.08000
H 	H 	0.59810 0.59420 0.29460 -0.01800
N 	N 	0.42290 0.48970 0.43540 -0.27400
C 	C 	0.43790 0.53280 0.47190 0.07200
H 	H 	0.42660 0.52500 0.49650 -0.00700
C 	C 	0.46880 0.58850 0.47600 -0.13700
H 	H 	0.47880 0.61800 0.50310 0.07400
C 	C 	0.48510 0.60140 0.44100 0.02800
C 	C 	0.46870 0.56120 0.40050 -0.12400
H 	H 	0.47860 0.57190 0.37520 0.07700
C 	C 	0.43750 0.50580 0.39890 0.04500
H 	H 	0.42590 0.47800 0.37190 -0.00900
N 	N 	0.56230 0.01090 0.55590 -0.32300
C 	C 	0.53210 0.95750 0.55130 0.07300
H 	H 	0.51310 0.97060 0.56730 -0.00600
C 	C 	0.52720 0.88330 0.52400 -0.11800
H 	H 	0.50540 0.84600 0.52150 0.06000
C 	C 	0.55480 0.86400 0.50030 0.04300
C 	C 	0.58570 0.91900 0.50480 -0.10400
H 	H 	0.60530 0.90760 0.48930 0.08200
C 	C 	0.58790 0.99380 0.53330 0.05300
H 	H 	0.60910 0.03340 0.53610 -0.02500
C 	C 	0.56780 0.70700 0.41590 0.11600
N 	N 	0.53935 0.64880 0.41310 -0.13400
C 	C 	0.51790 0.66150 0.44240 0.07800
N 	N 	0.52294 0.72700 0.47301 -0.16200
C 	C 	0.55080 0.78400 0.47090 0.09200
N 	N 	0.57450 0.77610 0.44370 -0.12900
N 	N 	0.33670 0.47020 0.38400 -0.27400
C 	C 	0.33090 0.55570 0.38860 0.08100
H 	H 	0.34720 0.58670 0.41200 0.01200
C 	C 	0.30230 0.60340 0.36120 -0.12200
H 	H 	0.29970 0.66620 0.36500 0.10400
C 	C 	0.27750 0.55840 0.32810 0.05000
C 	C 	0.28350 0.46820 0.32270 -0.11600
H 	H 	0.26690 0.43520 0.30030 0.08600
C 	C 	0.31400 0.42590 0.35050 0.06000
H 	H 	0.31900 0.36450 0.34580 -0.00300
N 	N 	0.11370 0.44990 0.14800 -0.32900
C 	C 	0.10740 0.53350 0.15770 0.09600
H 	H 	0.08490 0.56180 0.14190 -0.01700
C 	C 	0.13150 0.58280 0.18950 -0.12900
H 	H 	0.12500 0.64220 0.19620 0.09700
C 	C 	0.16530 0.54420 0.21140 0.06300
C 	C 	0.17160 0.45550 0.20240 -0.12400
H 	H 	0.19350 0.42490 0.21850 0.07600
C 	C 	0.14570 0.41160 0.16970 0.06900
H 	H 	0.15100 0.35160 0.16260 -0.03000
N 	N 	0.18670 0.00820 0.28400 -0.27300
C 	C 	0.16170 0.95230 0.26030 0.07700
H 	H 	0.13820 0.97570 0.24420 -0.01700
C 	C 	0.16860 0.86200 0.25800 -0.12600
H 	H 	0.15050 0.82470 0.23930 0.08500
C 	C 	0.20150 0.82520 0.28260 0.06300
C 	C 	0.22770 0.88220 0.30740 -0.12100
H 	H 	0.25100 0.85960 0.32450 0.08500
C 	C 	0.21970 0.97370 0.30690 0.06700
H 	H 	0.23810 0.01320 0.32350 -0.01000
C 	C 	0.24520 0.60520 0.29910 0.09000
N 	N 	0.22278 0.55400 0.26880 -0.14200
C 	C 	0.19210 0.59610 0.24540 0.10300
N 	N 	0.18361 0.68150 0.25000 -0.13600
C 	C 	0.20890 0.72730 0.27950 0.10300
N 	N 	0.24017 0.69230 0.30560 -0.13800
Zn	Zn	0.67430 0.64340 0.27980 0.60000
Zn	Zn	0.57117 0.11430 0.60168 0.70300
I 	I 	0.73551 0.73180 0.30413 -0.08800
I 	I 	0.62806 0.67220 0.20501 -0.32500
I 	I 	0.39725 0.25970 0.39162 -0.29700
I 	I 	0.35589 0.39860 0.50040 -0.08600
I 	I 	0.60393 0.23754 0.56796 1.01300
I 	I 	0.51377 0.13940 0.63440 -1.27600
Zn	Zn	0.67820 0.64820 0.28880 0.55100
Zn	Zn	0.58610 0.12120 0.59370 0.72100
I 	I 	0.74140 0.72640 0.31640 -0.25600
I 	I 	0.63760 0.68080 0.21380 -0.06400
I 	I 	0.38920 0.26440 0.39770 -0.06200
I 	I 	0.35300 0.41540 0.50350 -0.22000
I 	I 	0.62340 0.23260 0.56040 -1.47600
I 	I 	0.52880 0.15740 0.62490 0.83600
Zn	Zn	0.87745 0.90154 0.42929 1.15800
N 	N 	0.14160 0.16220 0.32850 -0.27400
C 	C 	0.15360 0.21130 0.36490 0.06600
H 	H 	0.17870 0.23570 0.37090 -0.01000
C 	C 	0.13000 0.22730 0.39390 -0.10900
H 	H 	0.13900 0.26200 0.41960 0.08600
C 	C 	0.09360 0.19240 0.38510 0.06900
C 	C 	0.08150 0.13980 0.34770 -0.11500
H 	H 	0.05680 0.11290 0.34130 0.08800
C 	C 	0.10640 0.12830 0.32060 0.08100
H 	H 	0.09810 0.09420 0.29460 -0.01700
N 	N 	0.92290 0.98970 0.43540 -0.27300
C 	C 	0.93790 0.03280 0.47190 0.07200
H 	H 	0.92660 0.02500 0.49650 -0.00600
C 	C 	0.96880 0.08850 0.47600 -0.13600
H 	H 	0.97880 0.11800 0.50310 0.07500
C 	C 	0.98510 0.10140 0.44100 0.02900
C 	C 	0.96870 0.06120 0.40050 -0.12300
H 	H 	0.97860 0.07190 0.37520 0.07700
C 	C 	0.93750 0.00580 0.39890 0.04400
H 	H 	0.92590 0.97800 0.37190 -0.00900
N 	N 	0.06230 0.51090 0.55590 -0.32300
C 	C 	0.03210 0.45750 0.55130 0.07300
H 	H 	0.01310 0.47060 0.56730 -0.00600
C 	C 	0.02720 0.38330 0.52400 -0.11800
H 	H 	0.00540 0.34600 0.52150 0.06000
C 	C 	0.05480 0.36400 0.50030 0.04300
C 	C 	0.08570 0.41900 0.50480 -0.10400
H 	H 	0.10530 0.40760 0.48930 0.08200
C 	C 	0.08790 0.49380 0.53330 0.05300
H 	H 	0.10910 0.53340 0.53610 -0.02500
C 	C 	0.06780 0.20700 0.41590 0.11600
N 	N 	0.03935 0.14880 0.41310 -0.13400
C 	C 	0.01790 0.16150 0.44240 0.07700
N 	N 	0.02294 0.22700 0.47301 -0.16200
C 	C 	0.05080 0.28400 0.47090 0.09200
N 	N 	0.07450 0.27610 0.44370 -0.12900
N 	N 	0.83670 0.97020 0.38400 -0.27400
C 	C 	0.83090 0.05570 0.38860 0.08000
H 	H 	0.84720 0.08670 0.41200 0.01200
C 	C 	0.80230 0.10340 0.36120 -0.12200
H 	H 	0.79970 0.16620 0.36500 0.10400
C 	C 	0.77750 0.05840 0.32810 0.05000
C 	C 	0.78350 0.96820 0.32270 -0.11600
H 	H 	0.76690 0.93520 0.30030 0.08600
C 	C 	0.81400 0.92590 0.35050 0.06000
H 	H 	0.81900 0.86450 0.34580 -0.00300
N 	N 	0.61370 0.94990 0.14800 -0.32900
C 	C 	0.60740 0.03350 0.15770 0.09600
H 	H 	0.58490 0.06180 0.14190 -0.01700
C 	C 	0.63150 0.08280 0.18950 -0.12900
H 	H 	0.62500 0.14220 0.19620 0.09700
C 	C 	0.66530 0.04420 0.21140 0.06300
C 	C 	0.67160 0.95550 0.20240 -0.12400
H 	H 	0.69350 0.92490 0.21850 0.07600
C 	C 	0.64570 0.91160 0.16970 0.06900
H 	H 	0.65100 0.85160 0.16260 -0.03000
N 	N 	0.68670 0.50820 0.28400 -0.27300
C 	C 	0.66170 0.45230 0.26030 0.07700
H 	H 	0.63820 0.47570 0.24420 -0.01700
C 	C 	0.66860 0.36200 0.25800 -0.12600
H 	H 	0.65050 0.32470 0.23930 0.08600
C 	C 	0.70150 0.32520 0.28260 0.06300
C 	C 	0.72770 0.38220 0.30740 -0.12100
H 	H 	0.75100 0.35960 0.32450 0.08500
C 	C 	0.71970 0.47370 0.30690 0.06700
H 	H 	0.73810 0.51320 0.32350 -0.01000
C 	C 	0.74520 0.10520 0.29910 0.09000
N 	N 	0.72278 0.05400 0.26880 -0.14200
C 	C 	0.69210 0.09610 0.24540 0.10300
N 	N 	0.68361 0.18150 0.25000 -0.13600
C 	C 	0.70890 0.22730 0.27950 0.10300
N 	N 	0.74017 0.19230 0.30560 -0.13800
Zn	Zn	0.17430 0.14340 0.27980 0.60000
Zn	Zn	0.07117 0.61430 0.60168 0.70300
I 	I 	0.23551 0.23180 0.30413 -0.08800
I 	I 	0.12806 0.17220 0.20501 -0.32500
I 	I 	0.89725 0.75970 0.39162 -0.29700
I 	I 	0.85589 0.89860 0.50040 -0.08600
I 	I 	0.10393 0.73754 0.56796 1.01300
I 	I 	0.01377 0.63940 0.63440 -1.27600
Zn	Zn	0.17820 0.14820 0.28880 0.55100
Zn	Zn	0.08610 0.62120 0.59370 0.72100
I 	I 	0.24140 0.22640 0.31640 -0.25600
I 	I 	0.13760 0.18080 0.21380 -0.06400
I 	I 	0.88920 0.76440 0.39770 -0.06200
I 	I 	0.85300 0.91540 0.50350 -0.22000
I 	I 	0.12340 0.73260 0.56040 -1.47600
I 	I 	0.02880 0.65740 0.62490 0.83500
Zn	Zn	0.37745 0.59846 0.92929 1.15800
N 	N 	0.64160 0.33780 0.82850 -0.27400
C 	C 	0.65360 0.28870 0.86490 0.06600
H 	H 	0.67870 0.26430 0.87090 -0.01000
C 	C 	0.63000 0.27270 0.89390 -0.10900
H 	H 	0.63900 0.23800 0.91960 0.08600
C 	C 	0.59360 0.30760 0.88510 0.06900
C 	C 	0.58150 0.36020 0.84770 -0.11500
H 	H 	0.55680 0.38710 0.84130 0.08800
C 	C 	0.60640 0.37170 0.82060 0.08100
H 	H 	0.59810 0.40580 0.79460 -0.01700
N 	N 	0.42290 0.51030 0.93540 -0.27300
C 	C 	0.43790 0.46720 0.97190 0.07300
H 	H 	0.42660 0.47500 0.99650 -0.00600
C 	C 	0.46880 0.41150 0.97600 -0.13600
H 	H 	0.47880 0.38200 0.00310 0.07500
C 	C 	0.48510 0.39860 0.94100 0.02900
C 	C 	0.46870 0.43880 0.90050 -0.12300
H 	H 	0.47860 0.42810 0.87520 0.07700
C 	C 	0.43750 0.49420 0.89890 0.04500
H 	H 	0.42590 0.52200 0.87190 -0.00900
N 	N 	0.56230 0.98910 0.05590 -0.32400
C 	C 	0.53210 0.04250 0.05130 0.07300
H 	H 	0.51310 0.02940 0.06730 -0.00600
C 	C 	0.52720 0.11670 0.02400 -0.11800
H 	H 	0.50540 0.15400 0.02150 0.06000
C 	C 	0.55480 0.13600 0.00030 0.04300
C 	C 	0.58570 0.08100 0.00480 -0.10400
H 	H 	0.60530 0.09240 0.98930 0.08200
C 	C 	0.58790 0.00620 0.03330 0.05400
H 	H 	0.60910 0.96660 0.03610 -0.02600
C 	C 	0.56780 0.29300 0.91590 0.11600
N 	N 	0.53935 0.35120 0.91310 -0.13400
C 	C 	0.51790 0.33850 0.94240 0.07700
N 	N 	0.52294 0.27300 0.97301 -0.16200
C 	C 	0.55080 0.21600 0.97090 0.09200
N 	N 	0.57450 0.22390 0.94370 -0.12900
N 	N 	0.33670 0.52980 0.88400 -0.27400
C 	C 	0.33090 0.44430 0.88860 0.08100
H 	H 	0.34720 0.41330 0.91200 0.01200
C 	C 	0.30230 0.39660 0.86120 -0.12200
H 	H 	0.29970 0.33380 0.86500 0.10400
C 	C 	0.27750 0.44160 0.82810 0.05000
C 	C 	0.28350 0.53180 0.82270 -0.11600
H 	H 	0.26690 0.56480 0.80030 0.08600
C 	C 	0.31400 0.57410 0.85050 0.06000
H 	H 	0.31900 0.63550 0.84580 -0.00300
N 	N 	0.11370 0.55010 0.64800 -0.32900
C 	C 	0.10740 0.46650 0.65770 0.09600
H 	H 	0.08490 0.43820 0.64190 -0.01700
C 	C 	0.13150 0.41720 0.68950 -0.12900
H 	H 	0.12500 0.35780 0.69620 0.09700
C 	C 	0.16530 0.45580 0.71140 0.06300
C 	C 	0.17160 0.54450 0.70240 -0.12400
H 	H 	0.19350 0.57510 0.71850 0.07600
C 	C 	0.14570 0.58840 0.66970 0.06900
H 	H 	0.15100 0.64840 0.66260 -0.03000
N 	N 	0.18670 0.99180 0.78400 -0.27300
C 	C 	0.16170 0.04770 0.76030 0.07700
H 	H 	0.13820 0.02430 0.74420 -0.01700
C 	C 	0.16860 0.13800 0.75800 -0.12600
H 	H 	0.15050 0.17530 0.73930 0.08500
C 	C 	0.20150 0.17480 0.78260 0.06300
C 	C 	0.22770 0.11780 0.80740 -0.12100
H 	H 	0.25100 0.14040 0.82450 0.08500
C 	C 	0.21970 0.02630 0.80690 0.06700
H 	H 	0.23810 0.98680 0.82350 -0.01000
C 	C 	0.24520 0.39480 0.79910 0.09000
N 	N 	0.22278 0.44600 0.76880 -0.14200
C 	C 	0.19210 0.40390 0.74540 0.10300
N 	N 	0.18361 0.31850 0.75000 -0.13600
C 	C 	0.20890 0.27270 0.77950 0.10300
N 	N 	0.24017 0.30770 0.80560 -0.13800
Zn	Zn	0.67430 0.35660 0.77980 0.60000
Zn	Zn	0.57117 0.88570 0.10168 0.70300
I 	I 	0.73551 0.26820 0.80413 -0.08900
I 	I 	0.62806 0.32780 0.70501 -0.32500
I 	I 	0.39725 0.74030 0.89162 -0.29700
I 	I 	0.35589 0.60140 0.00040 -0.08600
I 	I 	0.60393 0.76246 0.06796 1.01200
I 	I 	0.51377 0.86060 0.13440 -1.27600
Zn	Zn	0.67820 0.35180 0.78880 0.55100
Zn	Zn	0.58610 0.87880 0.09370 0.72100
I 	I 	0.74140 0.27360 0.81640 -0.25600
I 	I 	0.63760 0.31920 0.71380 -0.06400
I 	I 	0.38920 0.73560 0.89770 -0.06200
I 	I 	0.35300 0.58460 0.00350 -0.22000
I 	I 	0.62340 0.76740 0.06040 -1.47600
I 	I 	0.52880 0.84260 0.12490 0.83600
Zn	Zn	0.87745 0.09846 0.92929 1.15800
N 	N 	0.14160 0.83780 0.82850 -0.27400
C 	C 	0.15360 0.78870 0.86490 0.06600
H 	H 	0.17870 0.76430 0.87090 -0.01000
C 	C 	0.13000 0.77270 0.89390 -0.10900
H 	H 	0.13900 0.73800 0.91960 0.08600
C 	C 	0.09360 0.80760 0.88510 0.06900
C 	C 	0.08150 0.86020 0.84770 -0.11500
H 	H 	0.05680 0.88710 0.84130 0.08800
C 	C 	0.10640 0.87170 0.82060 0.08100
H 	H 	0.09810 0.90580 0.79460 -0.01700
N 	N 	0.92290 0.01030 0.93540 -0.27300
C 	C 	0.93790 0.96720 0.97190 0.07200
H 	H 	0.92660 0.97500 0.99650 -0.00600
C 	C 	0.96880 0.91150 0.97600 -0.13600
H 	H 	0.97880 0.88200 0.00310 0.07500
C 	C 	0.98510 0.89860 0.94100 0.02800
C 	C 	0.96870 0.93880 0.90050 -0.12300
H 	H 	0.97860 0.92810 0.87520 0.07700
C 	C 	0.93750 0.99420 0.89890 0.04500
H 	H 	0.92590 0.02200 0.87190 -0.00900
N 	N 	0.06230 0.48910 0.05590 -0.32300
C 	C 	0.03210 0.54250 0.05130 0.07300
H 	H 	0.01310 0.52940 0.06730 -0.00600
C 	C 	0.02720 0.61670 0.02400 -0.11800
H 	H 	0.00540 0.65400 0.02150 0.06000
C 	C 	0.05480 0.63600 0.00030 0.04300
C 	C 	0.08570 0.58100 0.00480 -0.10400
H 	H 	0.10530 0.59240 0.98930 0.08200
C 	C 	0.08790 0.50620 0.03330 0.05300
H 	H 	0.10910 0.46660 0.03610 -0.02500
C 	C 	0.06780 0.79300 0.91590 0.11600
N 	N 	0.03935 0.85120 0.91310 -0.13400
C 	C 	0.01790 0.83850 0.94240 0.07800
N 	N 	0.02294 0.77300 0.97301 -0.16200
C 	C 	0.05080 0.71600 0.97090 0.09200
N 	N 	0.07450 0.72390 0.94370 -0.12900
N 	N 	0.83670 0.02980 0.88400 -0.27500
C 	C 	0.83090 0.94430 0.88860 0.08100
H 	H 	0.84720 0.91330 0.91200 0.01200
C 	C 	0.80230 0.89660 0.86120 -0.12200
H 	H 	0.79970 0.83380 0.86500 0.10400
C 	C 	0.77750 0.94160 0.82810 0.05000
C 	C 	0.78350 0.03180 0.82270 -0.11600
H 	H 	0.76690 0.06480 0.80030 0.08600
C 	C 	0.81400 0.07410 0.85050 0.06000
H 	H 	0.81900 0.13550 0.84580 -0.00300
N 	N 	0.61370 0.05010 0.64800 -0.32900
C 	C 	0.60740 0.96650 0.65770 0.09600
H 	H 	0.58490 0.93820 0.64190 -0.01700
C 	C 	0.63150 0.91720 0.68950 -0.12900
H 	H 	0.62500 0.85780 0.69620 0.09700
C 	C 	0.66530 0.95580 0.71140 0.06300
C 	C 	0.67160 0.04450 0.70240 -0.12400
H 	H 	0.69350 0.07510 0.71850 0.07600
C 	C 	0.64570 0.08840 0.66970 0.06900
H 	H 	0.65100 0.14840 0.66260 -0.03000
N 	N 	0.68670 0.49180 0.78400 -0.27300
C 	C 	0.66170 0.54770 0.76030 0.07700
H 	H 	0.63820 0.52430 0.74420 -0.01700
C 	C 	0.66860 0.63800 0.75800 -0.12600
H 	H 	0.65050 0.67530 0.73930 0.08600
C 	C 	0.70150 0.67480 0.78260 0.06300
C 	C 	0.72770 0.61780 0.80740 -0.12100
H 	H 	0.75100 0.64040 0.82450 0.08500
C 	C 	0.71970 0.52630 0.80690 0.06700
H 	H 	0.73810 0.48680 0.82350 -0.01000
C 	C 	0.74520 0.89480 0.79910 0.09000
N 	N 	0.72278 0.94600 0.76880 -0.14200
C 	C 	0.69210 0.90390 0.74540 0.10300
N 	N 	0.68361 0.81850 0.75000 -0.13600
C 	C 	0.70890 0.77270 0.77950 0.10300
N 	N 	0.74017 0.80770 0.80560 -0.13800
Zn	Zn	0.17430 0.85660 0.77980 0.60000
Zn	Zn	0.07117 0.38570 0.10168 0.70300
I 	I 	0.23551 0.76820 0.80413 -0.08800
I 	I 	0.12806 0.82780 0.70501 -0.32500
I 	I 	0.89725 0.24030 0.89162 -0.29700
I 	I 	0.85589 0.10140 0.00040 -0.08600
I 	I 	0.10393 0.26246 0.06796 1.01300
I 	I 	0.01377 0.36060 0.13440 -1.27600
Zn	Zn	0.17820 0.85180 0.78880 0.55100
Zn	Zn	0.08610 0.37880 0.09370 0.72100
I 	I 	0.24140 0.77360 0.81640 -0.25600
I 	I 	0.13760 0.81920 0.71380 -0.06400
I 	I 	0.88920 0.23560 0.89770 -0.06200
I 	I 	0.85300 0.08460 0.00350 -0.22000
I 	I 	0.12340 0.26740 0.06040 -1.47600
I 	I 	0.02880 0.34260 0.12490 0.83500
Zn	Zn	0.62255 0.40154 0.07071 1.15800
N 	N 	0.35840 0.66220 0.17150 -0.27400
C 	C 	0.34640 0.71130 0.13510 0.06600
H 	H 	0.32130 0.73570 0.12910 -0.01000
C 	C 	0.37000 0.72730 0.10610 -0.10900
H 	H 	0.36100 0.76200 0.08040 0.08600
C 	C 	0.40640 0.69240 0.11490 0.06900
C 	C 	0.41850 0.63980 0.15230 -0.11500
H 	H 	0.44320 0.61290 0.15870 0.08800
C 	C 	0.39360 0.62830 0.17940 0.08100
H 	H 	0.40190 0.59420 0.20540 -0.01700
N 	N 	0.57710 0.48970 0.06460 -0.27300
C 	C 	0.56210 0.53280 0.02810 0.07300
H 	H 	0.57340 0.52500 0.00350 -0.00600
C 	C 	0.53120 0.58850 0.02400 -0.13600
H 	H 	0.52120 0.61800 0.99690 0.07500
C 	C 	0.51490 0.60140 0.05900 0.02900
C 	C 	0.53130 0.56120 0.09950 -0.12300
H 	H 	0.52140 0.57190 0.12480 0.07700
C 	C 	0.56250 0.50580 0.10110 0.04500
H 	H 	0.57410 0.47800 0.12810 -0.00900
N 	N 	0.43770 0.01090 0.94410 -0.32400
C 	C 	0.46790 0.95750 0.94870 0.07300
H 	H 	0.48690 0.97060 0.93270 -0.00600
C 	C 	0.47280 0.88330 0.97600 -0.11800
H 	H 	0.49460 0.84600 0.97850 0.06000
C 	C 	0.44520 0.86400 0.99970 0.04300
C 	C 	0.41430 0.91900 0.99520 -0.10400
H 	H 	0.39470 0.90760 0.01070 0.08200
C 	C 	0.41210 0.99380 0.96670 0.05400
H 	H 	0.39090 0.03340 0.96390 -0.02600
C 	C 	0.43220 0.70700 0.08410 0.11600
N 	N 	0.46065 0.64880 0.08690 -0.13400
C 	C 	0.48210 0.66150 0.05760 0.07700
N 	N 	0.47706 0.72700 0.02699 -0.16200
C 	C 	0.44920 0.78400 0.02910 0.09200
N 	N 	0.42550 0.77610 0.05630 -0.12900
N 	N 	0.66330 0.47020 0.11600 -0.27400
C 	C 	0.66910 0.55570 0.11140 0.08100
H 	H 	0.65280 0.58670 0.08800 0.01200
C 	C 	0.69770 0.60340 0.13880 -0.12200
H 	H 	0.70030 0.66620 0.13500 0.10400
C 	C 	0.72250 0.55840 0.17190 0.05000
C 	C 	0.71650 0.46820 0.17730 -0.11600
H 	H 	0.73310 0.43520 0.19970 0.08600
C 	C 	0.68600 0.42590 0.14950 0.06000
H 	H 	0.68100 0.36450 0.15420 -0.00300
N 	N 	0.88630 0.44990 0.35200 -0.32900
C 	C 	0.89260 0.53350 0.34230 0.09600
H 	H 	0.91510 0.56180 0.35810 -0.01700
C 	C 	0.86850 0.58280 0.31050 -0.12900
H 	H 	0.87500 0.64220 0.30380 0.09700
C 	C 	0.83470 0.54420 0.28860 0.06300
C 	C 	0.82840 0.45550 0.29760 -0.12400
H 	H 	0.80650 0.42490 0.28150 0.07600
C 	C 	0.85430 0.41160 0.33030 0.06900
H 	H 	0.84900 0.35160 0.33740 -0.03000
N 	N 	0.81330 0.00820 0.21600 -0.27300
C 	C 	0.83830 0.95230 0.23970 0.07700
H 	H 	0.86180 0.97570 0.25580 -0.01700
C 	C 	0.83140 0.86200 0.24200 -0.12600
H 	H 	0.84950 0.82470 0.26070 0.08500
C 	C 	0.79850 0.82520 0.21740 0.06300
C 	C 	0.77230 0.88220 0.19260 -0.12100
H 	H 	0.74900 0.85960 0.17550 0.08500
C 	C 	0.78030 0.97370 0.19310 0.06700
H 	H 	0.76190 0.01320 0.17650 -0.01000
C 	C 	0.75480 0.60520 0.20090 0.09000
N 	N 	0.77722 0.55400 0.23120 -0.14200
C 	C 	0.80790 0.59610 0.25460 0.10300
N 	N 	0.81639 0.68150 0.25000 -0.13600
C 	C 	0.79110 0.72730 0.22050 0.10300
N 	N 	0.75983 0.69230 0.19440 -0.13800
Zn	Zn	0.32570 0.64340 0.22020 0.60000
Zn	Zn	0.42883 0.11430 0.89832 0.70300
I 	I 	0.26449 0.73180 0.19587 -0.08900
I 	I 	0.37194 0.67220 0.29499 -0.32500
I 	I 	0.60275 0.25970 0.10838 -0.29700
I 	I 	0.64411 0.39860 0.99960 -0.08600
I 	I 	0.39607 0.23754 0.93204 1.01200
I 	I 	0.48623 0.13940 0.86560 -1.27600
Zn	Zn	0.32180 0.64820 0.21120 0.55100
Zn	Zn	0.41390 0.12120 0.90630 0.72100
I 	I 	0.25860 0.72640 0.18360 -0.25600
I 	I 	0.36240 0.68080 0.28620 -0.06400
I 	I 	0.61080 0.26440 0.10230 -0.06200
I 	I 	0.64700 0.41540 0.99650 -0.22000
I 	I 	0.37660 0.23260 0.93960 -1.47600
I 	I 	0.47120 0.15740 0.87510 0.83600
Zn	Zn	0.12255 0.90154 0.07071 1.15800
N 	N 	0.85840 0.16220 0.17150 -0.27400
C 	C 	0.84640 0.21130 0.13510 0.06600
H 	H 	0.82130 0.23570 0.12910 -0.01000
C 	C 	0.87000 0.22730 0.10610 -0.10900
H 	H 	0.86100 0.26200 0.08040 0.08600
C 	C 	0.90640 0.19240 0.11490 0.06900
C 	C 	0.91850 0.13980 0.15230 -0.11500
H 	H 	0.94320 0.11290 0.15870 0.08800
C 	C 	0.89360 0.12830 0.17940 0.08100
H 	H 	0.90190 0.09420 0.20540 -0.01700
N 	N 	0.07710 0.98970 0.06460 -0.27300
C 	C 	0.06210 0.03280 0.02810 0.07200
H 	H 	0.07340 0.02500 0.00350 -0.00600
C 	C 	0.03120 0.08850 0.02400 -0.13600
H 	H 	0.02120 0.11800 0.99690 0.07500
C 	C 	0.01490 0.10140 0.05900 0.02800
C 	C 	0.03130 0.06120 0.09950 -0.12300
H 	H 	0.02140 0.07190 0.12480 0.07700
C 	C 	0.06250 0.00580 0.10110 0.04500
H 	H 	0.07410 0.97800 0.12810 -0.00900
N 	N 	0.93770 0.51090 0.94410 -0.32300
C 	C 	0.96790 0.45750 0.94870 0.07300
H 	H 	0.98690 0.47060 0.93270 -0.00600
C 	C 	0.97280 0.38330 0.97600 -0.11800
H 	H 	0.99460 0.34600 0.97850 0.06000
C 	C 	0.94520 0.36400 0.99970 0.04300
C 	C 	0.91430 0.41900 0.99520 -0.10400
H 	H 	0.89470 0.40760 0.01070 0.08200
C 	C 	0.91210 0.49380 0.96670 0.05300
H 	H 	0.89090 0.53340 0.96390 -0.02500
C 	C 	0.93220 0.20700 0.08410 0.11600
N 	N 	0.96065 0.14880 0.08690 -0.13400
C 	C 	0.98210 0.16150 0.05760 0.07800
N 	N 	0.97706 0.22700 0.02699 -0.16200
C 	C 	0.94920 0.28400 0.02910 0.09200
N 	N 	0.92550 0.27610 0.05630 -0.12900
N 	N 	0.16330 0.97020 0.11600 -0.27500
C 	C 	0.16910 0.05570 0.11140 0.08100
H 	H 	0.15280 0.08670 0.08800 0.01200
C 	C 	0.19770 0.10340 0.13880 -0.12200
H 	H 	0.20030 0.16620 0.13500 0.10400
C 	C 	0.22250 0.05840 0.17190 0.05000
C 	C 	0.21650 0.96820 0.17730 -0.11600
H 	H 	0.23310 0.93520 0.19970 0.08600
C 	C 	0.18600 0.92590 0.14950 0.06000
H 	H 	0.18100 0.86450 0.15420 -0.00300
N 	N 	0.38630 0.94990 0.35200 -0.32900
C 	C 	0.39260 0.03350 0.34230 0.09600
H 	H 	0.41510 0.06180 0.35810 -0.01700
C 	C 	0.36850 0.08280 0.31050 -0.12900
H 	H 	0.37500 0.14220 0.30380 0.09700
C 	C 	0.33470 0.04420 0.28860 0.06300
C 	C 	0.32840 0.95550 0.29760 -0.12400
H 	H 	0.30650 0.92490 0.28150 0.07600
C 	C 	0.35430 0.91160 0.33030 0.06900
H 	H 	0.34900 0.85160 0.33740 -0.03000
N 	N 	0.31330 0.50820 0.21600 -0.27300
C 	C 	0.33830 0.45230 0.23970 0.07700
H 	H 	0.36180 0.47570 0.25580 -0.01700
C 	C 	0.33140 0.36200 0.24200 -0.12600
H 	H 	0.34950 0.32470 0.26070 0.08600
C 	C 	0.29850 0.32520 0.21740 0.06300
C 	C 	0.27230 0.38220 0.19260 -0.12100
H 	H 	0.24900 0.35960 0.17550 0.08500
C 	C 	0.28030 0.47370 0.19310 0.06700
H 	H 	0.26190 0.51320 0.17650 -0.01000
C 	C 	0.25480 0.10520 0.20090 0.09000
N 	N 	0.27722 0.05400 0.23120 -0.14200
C 	C 	0.30790 0.09610 0.25460 0.10300
N 	N 	0.31639 0.18150 0.25000 -0.13600
C 	C 	0.29110 0.22730 0.22050 0.10300
N 	N 	0.25983 0.19230 0.19440 -0.13800
Zn	Zn	0.82570 0.14340 0.22020 0.60000
Zn	Zn	0.92883 0.61430 0.89832 0.70300
I 	I 	0.76449 0.23180 0.19587 -0.08800
I 	I 	0.87194 0.17220 0.29499 -0.32500
I 	I 	0.10275 0.75970 0.10838 -0.29700
I 	I 	0.14411 0.89860 0.99960 -0.08600
I 	I 	0.89607 0.73754 0.93204 1.01300
I 	I 	0.98623 0.63940 0.86560 -1.27600
Zn	Zn	0.82180 0.14820 0.21120 0.55100
Zn	Zn	0.91390 0.62120 0.90630 0.72100
I 	I 	0.75860 0.22640 0.18360 -0.25600
I 	I 	0.86240 0.18080 0.28620 -0.06400
I 	I 	0.11080 0.76440 0.10230 -0.06200
I 	I 	0.14700 0.91540 0.99650 -0.22000
I 	I 	0.87660 0.73260 0.93960 -1.47600
I 	I 	0.97120 0.65740 0.87510 0.83500
Zn	Zn	0.62255 0.59846 0.57071 1.15800
N 	N 	0.35840 0.33780 0.67150 -0.27400
C 	C 	0.34640 0.28870 0.63510 0.06600
H 	H 	0.32130 0.26430 0.62910 -0.01000
C 	C 	0.37000 0.27270 0.60610 -0.10900
H 	H 	0.36100 0.23800 0.58040 0.08600
C 	C 	0.40640 0.30760 0.61490 0.06900
C 	C 	0.41850 0.36020 0.65230 -0.11500
H 	H 	0.44320 0.38710 0.65870 0.08800
C 	C 	0.39360 0.37170 0.67940 0.08100
H 	H 	0.40190 0.40580 0.70540 -0.01700
N 	N 	0.57710 0.51030 0.56460 -0.27300
C 	C 	0.56210 0.46720 0.52810 0.07300
H 	H 	0.57340 0.47500 0.50350 -0.00600
C 	C 	0.53120 0.41150 0.52400 -0.13600
H 	H 	0.52120 0.38200 0.49690 0.07500
C 	C 	0.51490 0.39860 0.55900 0.02900
C 	C 	0.53130 0.43880 0.59950 -0.12300
H 	H 	0.52140 0.42810 0.62480 0.07700
C 	C 	0.56250 0.49420 0.60110 0.04500
H 	H 	0.57410 0.52200 0.62810 -0.00900
N 	N 	0.43770 0.98910 0.44410 -0.32300
C 	C 	0.46790 0.04250 0.44870 0.07300
H 	H 	0.48690 0.02940 0.43270 -0.00600
C 	C 	0.47280 0.11670 0.47600 -0.11800
H 	H 	0.49460 0.15400 0.47850 0.06000
C 	C 	0.44520 0.13600 0.49970 0.04300
C 	C 	0.41430 0.08100 0.49520 -0.10400
H 	H 	0.39470 0.09240 0.51070 0.08200
C 	C 	0.41210 0.00620 0.46670 0.05300
H 	H 	0.39090 0.96660 0.46390 -0.02500
C 	C 	0.43220 0.29300 0.58410 0.11600
N 	N 	0.46065 0.35120 0.58690 -0.13400
C 	C 	0.48210 0.33850 0.55760 0.07800
N 	N 	0.47706 0.27300 0.52699 -0.16200
C 	C 	0.44920 0.21600 0.52910 0.09200
N 	N 	0.42550 0.22390 0.55630 -0.12900
N 	N 	0.66330 0.52980 0.61600 -0.27400
C 	C 	0.66910 0.44430 0.61140 0.08100
H 	H 	0.65280 0.41330 0.58800 0.01200
C 	C 	0.69770 0.39660 0.63880 -0.12200
H 	H 	0.70030 0.33380 0.63500 0.10400
C 	C 	0.72250 0.44160 0.67190 0.05000
C 	C 	0.71650 0.53180 0.67730 -0.11600
H 	H 	0.73310 0.56480 0.69970 0.08600
C 	C 	0.68600 0.57410 0.64950 0.06000
H 	H 	0.68100 0.63550 0.65420 -0.00300
N 	N 	0.88630 0.55010 0.85200 -0.32900
C 	C 	0.89260 0.46650 0.84230 0.09600
H 	H 	0.91510 0.43820 0.85810 -0.01700
C 	C 	0.86850 0.41720 0.81050 -0.12900
H 	H 	0.87500 0.35780 0.80380 0.09700
C 	C 	0.83470 0.45580 0.78860 0.06300
C 	C 	0.82840 0.54450 0.79760 -0.12400
H 	H 	0.80650 0.57510 0.78150 0.07600
C 	C 	0.85430 0.58840 0.83030 0.06900
H 	H 	0.84900 0.64840 0.83740 -0.03000
N 	N 	0.81330 0.99180 0.71600 -0.27300
C 	C 	0.83830 0.04770 0.73970 0.07700
H 	H 	0.86180 0.02430 0.75580 -0.01700
C 	C 	0.83140 0.13800 0.74200 -0.12600
H 	H 	0.84950 0.17530 0.76070 0.08500
C 	C 	0.79850 0.17480 0.71740 0.06300
C 	C 	0.77230 0.11780 0.69260 -0.12100
H 	H 	0.74900 0.14040 0.67550 0.08500
C 	C 	0.78030 0.02630 0.69310 0.06700
H 	H 	0.76190 0.98680 0.67650 -0.01000
C 	C 	0.75480 0.39480 0.70090 0.09000
N 	N 	0.77722 0.44600 0.73120 -0.14200
C 	C 	0.80790 0.40390 0.75460 0.10300
N 	N 	0.81639 0.31850 0.75000 -0.13600
C 	C 	0.79110 0.27270 0.72050 0.10300
N 	N 	0.75983 0.30770 0.69440 -0.13800
Zn	Zn	0.32570 0.35660 0.72020 0.60000
Zn	Zn	0.42883 0.88570 0.39832 0.70300
I 	I 	0.26449 0.26820 0.69587 -0.08800
I 	I 	0.37194 0.32780 0.79499 -0.32500
I 	I 	0.60275 0.74030 0.60838 -0.29700
I 	I 	0.64411 0.60140 0.49960 -0.08600
I 	I 	0.39607 0.76246 0.43204 1.01300
I 	I 	0.48623 0.86060 0.36560 -1.27600
Zn	Zn	0.32180 0.35180 0.71120 0.55100
Zn	Zn	0.41390 0.87880 0.40630 0.72100
I 	I 	0.25860 0.27360 0.68360 -0.25600
I 	I 	0.36240 0.31920 0.78620 -0.06400
I 	I 	0.61080 0.73560 0.60230 -0.06200
I 	I 	0.64700 0.58460 0.49650 -0.22000
I 	I 	0.37660 0.76740 0.43960 -1.47600
I 	I 	0.47120 0.84260 0.37510 0.83600
Zn	Zn	0.12255 0.09846 0.57071 1.15800
N 	N 	0.85840 0.83780 0.67150 -0.27400
C 	C 	0.84640 0.78870 0.63510 0.06600
H 	H 	0.82130 0.76430 0.62910 -0.01000
C 	C 	0.87000 0.77270 0.60610 -0.10900
H 	H 	0.86100 0.73800 0.58040 0.08600
C 	C 	0.90640 0.80760 0.61490 0.06900
C 	C 	0.91850 0.86020 0.65230 -0.11500
H 	H 	0.94320 0.88710 0.65870 0.08800
C 	C 	0.89360 0.87170 0.67940 0.08100
H 	H 	0.90190 0.90580 0.70540 -0.01700
N 	N 	0.07710 0.01030 0.56460 -0.27300
C 	C 	0.06210 0.96720 0.52810 0.07200
H 	H 	0.07340 0.97500 0.50350 -0.00600
C 	C 	0.03120 0.91150 0.52400 -0.13600
H 	H 	0.02120 0.88200 0.49690 0.07500
C 	C 	0.01490 0.89860 0.55900 0.02900
C 	C 	0.03130 0.93880 0.59950 -0.12300
H 	H 	0.02140 0.92810 0.62480 0.07700
C 	C 	0.06250 0.99420 0.60110 0.04400
H 	H 	0.07410 0.02200 0.62810 -0.00900
N 	N 	0.93770 0.48910 0.44410 -0.32300
C 	C 	0.96790 0.54250 0.44870 0.07300
H 	H 	0.98690 0.52940 0.43270 -0.00600
C 	C 	0.97280 0.61670 0.47600 -0.11800
H 	H 	0.99460 0.65400 0.47850 0.06000
C 	C 	0.94520 0.63600 0.49970 0.04300
C 	C 	0.91430 0.58100 0.49520 -0.10400
H 	H 	0.89470 0.59240 0.51070 0.08200
C 	C 	0.91210 0.50620 0.46670 0.05300
H 	H 	0.89090 0.46660 0.46390 -0.02500
C 	C 	0.93220 0.79300 0.58410 0.11600
N 	N 	0.96065 0.85120 0.58690 -0.13400
C 	C 	0.98210 0.83850 0.55760 0.07700
N 	N 	0.97706 0.77300 0.52699 -0.16200
C 	C 	0.94920 0.71600 0.52910 0.09200
N 	N 	0.92550 0.72390 0.55630 -0.12900
N 	N 	0.16330 0.02980 0.61600 -0.27400
C 	C 	0.16910 0.94430 0.61140 0.08000
H 	H 	0.15280 0.91330 0.58800 0.01200
C 	C 	0.19770 0.89660 0.63880 -0.12200
H 	H 	0.20030 0.83380 0.63500 0.10400
C 	C 	0.22250 0.94160 0.67190 0.05000
C 	C 	0.21650 0.03180 0.67730 -0.11600
H 	H 	0.23310 0.06480 0.69970 0.08600
C 	C 	0.18600 0.07410 0.64950 0.06000
H 	H 	0.18100 0.13550 0.65420 -0.00300
N 	N 	0.38630 0.05010 0.85200 -0.32900
C 	C 	0.39260 0.96650 0.84230 0.09600
H 	H 	0.41510 0.93820 0.85810 -0.01700
C 	C 	0.36850 0.91720 0.81050 -0.12900
H 	H 	0.37500 0.85780 0.80380 0.09700
C 	C 	0.33470 0.95580 0.78860 0.06300
C 	C 	0.32840 0.04450 0.79760 -0.12400
H 	H 	0.30650 0.07510 0.78150 0.07600
C 	C 	0.35430 0.08840 0.83030 0.06900
H 	H 	0.34900 0.14840 0.83740 -0.03000
N 	N 	0.31330 0.49180 0.71600 -0.27300
C 	C 	0.33830 0.54770 0.73970 0.07700
H 	H 	0.36180 0.52430 0.75580 -0.01700
C 	C 	0.33140 0.63800 0.74200 -0.12600
H 	H 	0.34950 0.67530 0.76070 0.08600
C 	C 	0.29850 0.67480 0.71740 0.06300
C 	C 	0.27230 0.61780 0.69260 -0.12100
H 	H 	0.24900 0.64040 0.67550 0.08500
C 	C 	0.28030 0.52630 0.69310 0.06700
H 	H 	0.26190 0.48680 0.67650 -0.01000
C 	C 	0.25480 0.89480 0.70090 0.09000
N 	N 	0.27722 0.94600 0.73120 -0.14200
C 	C 	0.30790 0.90390 0.75460 0.10300
N 	N 	0.31639 0.81850 0.75000 -0.13600
C 	C 	0.29110 0.77270 0.72050 0.10300
N 	N 	0.25983 0.80770 0.69440 -0.13800
Zn	Zn	0.82570 0.85660 0.72020 0.60000
Zn	Zn	0.92883 0.38570 0.39832 0.70300
I 	I 	0.76449 0.76820 0.69587 -0.08800
I 	I 	0.87194 0.82780 0.79499 -0.32500
I 	I 	0.10275 0.24030 0.60838 -0.29700
I 	I 	0.14411 0.10140 0.49960 -0.08600
I 	I 	0.89607 0.26246 0.43204 1.01300
I 	I 	0.98623 0.36060 0.36560 -1.27600
Zn	Zn	0.82180 0.85180 0.71120 0.55100
Zn	Zn	0.91390 0.37880 0.40630 0.72100
I 	I 	0.75860 0.77360 0.68360 -0.25600
I 	I 	0.86240 0.81920 0.78620 -0.06400
I 	I 	0.11080 0.23560 0.60230 -0.06200
I 	I 	0.14700 0.08460 0.49650 -0.22000
I 	I 	0.87660 0.26740 0.43960 -1.47600
I 	I 	0.97120 0.34260 0.37510 0.83500
