data_crystal

_cell_length_a 34.04650
_cell_length_b 14.92350
_cell_length_c 30.83770
_cell_angle_alpha 90.00000
_cell_angle_beta  100.62900
_cell_angle_gamma 90.00000

_symmetry_space_group_name_	'P 1'
_symmetry_space_group_name_H-M	'P 1'

loop_
_symmetry_equiv_pos_as_xyz
  x,y,z

loop_
_atom_site_label
_atom_site_type_symbol
_atom_site_fract_x
_atom_site_fract_y
_atom_site_fract_z
_atom_site_charge
I 	I 	0.61844 0.32330 0.20124 -0.83300
Zn	Zn	0.66895 0.35080 0.27250 0.65500
I 	I 	0.73171 0.26100 0.29551 0.63000
N 	N 	0.63880 0.33720 0.32480 -0.31400
N 	N 	0.68390 0.48790 0.27730 -0.30500
C 	C 	0.66040 0.54310 0.25090 0.07700
C 	C 	0.71410 0.52380 0.30540 0.06300
C 	C 	0.66580 0.63330 0.25060 -0.12900
H 	H 	0.63840 0.51840 0.23100 -0.01700
C 	C 	0.72240 0.61380 0.30660 -0.12700
H 	H 	0.73060 0.48540 0.32550 -0.00900
C 	C 	0.69740 0.67040 0.27970 0.05700
H 	H 	0.64820 0.67020 0.23070 0.08900
H 	H 	0.74520 0.63650 0.32600 0.07300
C 	C 	0.70430 0.76970 0.27960 0.09400
N 	N 	0.67937 0.81480 0.24900 -0.13200
N 	N 	0.73410 0.80460 0.30820 -0.15100
C 	C 	0.68780 0.90060 0.24630 0.10200
C 	C 	0.73950 0.89320 0.30380 0.07400
C 	C 	0.66210 0.95480 0.21160 0.06400
N 	N 	0.71766 0.94430 0.27250 -0.14600
C 	C 	0.77080 0.94010 0.33500 0.03600
C 	C 	0.62840 0.91620 0.18770 -0.11600
C 	C 	0.67150 0.04150 0.20270 -0.12500
C 	C 	0.77480 0.03070 0.33270 -0.10400
C 	C 	0.79710 0.89490 0.36740 -0.12500
C 	C 	0.60420 0.96620 0.15580 0.07700
H 	H 	0.62180 0.85590 0.19310 0.09400
C 	C 	0.64620 0.08660 0.16910 0.06800
H 	H 	0.69450 0.06990 0.21900 0.05900
H 	H 	0.75790 0.06370 0.31030 0.07400
C 	C 	0.80310 0.07410 0.36270 0.05100
C 	C 	0.82430 0.94290 0.39630 0.08200
H 	H 	0.79620 0.83140 0.36940 0.07800
N 	N 	0.61330 0.05020 0.14610 -0.26500
H 	H 	0.58030 0.94000 0.14020 -0.00600
H 	H 	0.65280 0.14620 0.16230 -0.02100
N 	N 	0.82770 0.03050 0.39460 -0.27600
H 	H 	0.80530 0.13740 0.36080 0.01900
H 	H 	0.84160 0.91140 0.41890 -0.00500
Zn	Zn	0.57189 0.12000 0.10100 0.56000
Zn	Zn	0.86669 0.10780 0.43670 0.60200
I 	I 	0.61032 0.23711 0.06434 -0.13100
N 	N 	0.55840 0.01800 0.05470 -0.26900
I 	I 	0.51207 0.14930 0.13747 -0.23500
N 	N 	0.91650 0.01970 0.44760 -0.28500
I 	I 	0.88279 0.24910 0.39779 -0.33100
I 	I 	0.84414 0.10890 0.50962 0.05600
C 	C 	0.93530 0.01490 0.41460 0.09200
C 	C 	0.92880 0.96920 0.48350 0.07000
C 	C 	0.96740 0.95950 0.41450 -0.13200
H 	H 	0.92650 0.05140 0.38940 -0.02400
C 	C 	0.96160 0.91150 0.48520 -0.12200
H 	H 	0.91530 0.97240 0.50780 -0.00900
H 	H 	0.98030 0.95730 0.38970 0.09200
C 	C 	0.98090 0.90680 0.45110 0.06300
H 	H 	0.97030 0.87570 0.51070 0.08000
C 	C 	0.01350 0.84320 0.45120 0.08200
N 	N 	0.03680 0.85920 0.42180 -0.13700
N 	N 	0.01678 0.77300 0.47860 -0.15000
C 	C 	0.06520 0.79740 0.42070 0.09600
C 	C 	0.04560 0.71670 0.47420 0.08200
N 	N 	0.07110 0.72570 0.44630 -0.14100
C 	C 	0.09120 0.81030 0.38730 0.06900
C 	C 	0.04950 0.63400 0.50240 0.05200
C 	C 	0.12470 0.75910 0.38800 -0.12000
C 	C 	0.08180 0.87690 0.35530 -0.13000
C 	C 	0.08040 0.57590 0.50130 -0.11500
C 	C 	0.02240 0.61310 0.52830 -0.12600
C 	C 	0.14730 0.77420 0.35710 0.06800
H 	H 	0.13190 0.71390 0.40980 0.08300
C 	C 	0.10700 0.88620 0.32520 0.09600
H 	H 	0.05910 0.91430 0.35430 0.08900
H 	H 	0.09890 0.58710 0.48230 0.07800
C 	C 	0.08450 0.50010 0.52830 0.06000
C 	C 	0.02780 0.53580 0.55400 0.08100
H 	H 	0.00000 0.65090 0.52880 0.07400
H 	H 	0.17060 0.73860 0.35800 -0.02100
H 	H 	0.10080 0.93130 0.30320 -0.02500
H 	H 	0.10630 0.46050 0.52800 -0.01400
H 	H 	0.00860 0.52150 0.57180 -0.01200
Zn	Zn	0.68040 0.35150 0.28610 0.67400
I 	I 	0.63750 0.30920 0.21130 0.38600
I 	I 	0.74600 0.27860 0.31680 -1.06500
Zn	Zn	0.36700 0.59480 0.44650 0.59800
I 	I 	0.33560 0.58140 0.51590 -0.40800
I 	I 	0.38358 0.74210 0.41230 -0.01300
Zn	Zn	0.07710 0.62350 0.09700 0.55800
I 	I 	0.01940 0.66140 0.13510 -0.06300
I 	I 	0.11570 0.73610 0.06500 -0.19300
I 	I 	0.11844 0.82330 0.20124 -0.83200
Zn	Zn	0.16895 0.85080 0.27250 0.65600
I 	I 	0.23171 0.76100 0.29551 0.63100
N 	N 	0.13880 0.83720 0.32480 -0.31300
N 	N 	0.18390 0.98790 0.27730 -0.30400
C 	C 	0.16040 0.04310 0.25090 0.07800
C 	C 	0.21410 0.02380 0.30540 0.06400
C 	C 	0.16580 0.13330 0.25060 -0.12800
H 	H 	0.13840 0.01840 0.23100 -0.01600
C 	C 	0.22240 0.11380 0.30660 -0.12500
H 	H 	0.23060 0.98540 0.32550 -0.00800
C 	C 	0.19740 0.17040 0.27970 0.05700
H 	H 	0.14820 0.17020 0.23070 0.08900
H 	H 	0.24520 0.13650 0.32600 0.07400
C 	C 	0.20430 0.26970 0.27960 0.09500
N 	N 	0.17937 0.31480 0.24900 -0.13100
N 	N 	0.23410 0.30460 0.30820 -0.15000
C 	C 	0.18780 0.40060 0.24630 0.10300
C 	C 	0.23950 0.39320 0.30380 0.07500
C 	C 	0.16210 0.45480 0.21160 0.06400
N 	N 	0.21766 0.44430 0.27250 -0.14600
C 	C 	0.27080 0.44010 0.33500 0.03500
C 	C 	0.12840 0.41620 0.18770 -0.11600
C 	C 	0.17150 0.54150 0.20270 -0.12400
C 	C 	0.27480 0.53070 0.33270 -0.10400
C 	C 	0.29710 0.39490 0.36740 -0.12400
C 	C 	0.10420 0.46620 0.15580 0.07700
H 	H 	0.12180 0.35590 0.19310 0.09400
C 	C 	0.14620 0.58660 0.16910 0.06800
H 	H 	0.19450 0.56990 0.21900 0.05800
H 	H 	0.25790 0.56370 0.31030 0.07400
C 	C 	0.30310 0.57410 0.36270 0.05000
C 	C 	0.32430 0.44290 0.39630 0.08200
H 	H 	0.29620 0.33140 0.36940 0.07800
N 	N 	0.11330 0.55020 0.14610 -0.26400
H 	H 	0.08030 0.44000 0.14020 -0.00600
H 	H 	0.15280 0.64620 0.16230 -0.02100
N 	N 	0.32770 0.53050 0.39460 -0.27600
H 	H 	0.30530 0.63740 0.36080 0.01900
H 	H 	0.34160 0.41140 0.41890 -0.00500
Zn	Zn	0.07189 0.62000 0.10100 0.56000
Zn	Zn	0.36669 0.60780 0.43670 0.60200
I 	I 	0.11032 0.73711 0.06434 -0.13100
N 	N 	0.05840 0.51800 0.05470 -0.26800
I 	I 	0.01207 0.64930 0.13747 -0.23500
N 	N 	0.41650 0.51970 0.44760 -0.28500
I 	I 	0.38279 0.74910 0.39779 -0.33100
I 	I 	0.34414 0.60890 0.50962 0.05600
C 	C 	0.43530 0.51490 0.41460 0.09200
C 	C 	0.42880 0.46920 0.48350 0.06900
C 	C 	0.46740 0.45950 0.41450 -0.13000
H 	H 	0.42650 0.55140 0.38940 -0.02400
C 	C 	0.46160 0.41150 0.48520 -0.12000
H 	H 	0.41530 0.47240 0.50780 -0.00900
H 	H 	0.48030 0.45730 0.38970 0.09100
C 	C 	0.48090 0.40680 0.45110 0.06100
H 	H 	0.47030 0.37570 0.51070 0.07900
C 	C 	0.51350 0.34320 0.45120 0.08400
N 	N 	0.53680 0.35920 0.42180 -0.13700
N 	N 	0.51678 0.27300 0.47860 -0.14900
C 	C 	0.56520 0.29740 0.42070 0.09600
C 	C 	0.54560 0.21670 0.47420 0.08200
N 	N 	0.57110 0.22570 0.44630 -0.14100
C 	C 	0.59120 0.31030 0.38730 0.06900
C 	C 	0.54950 0.13400 0.50240 0.05200
C 	C 	0.62470 0.25910 0.38800 -0.12000
C 	C 	0.58180 0.37690 0.35530 -0.13000
C 	C 	0.58040 0.07590 0.50130 -0.11500
C 	C 	0.52240 0.11310 0.52830 -0.12600
C 	C 	0.64730 0.27420 0.35710 0.06800
H 	H 	0.63190 0.21390 0.40980 0.08300
C 	C 	0.60700 0.38620 0.32520 0.09600
H 	H 	0.55910 0.41430 0.35430 0.08900
H 	H 	0.59890 0.08710 0.48230 0.07800
C 	C 	0.58450 0.00010 0.52830 0.06100
C 	C 	0.52780 0.03580 0.55400 0.08200
H 	H 	0.50000 0.15090 0.52880 0.07400
H 	H 	0.67060 0.23860 0.35800 -0.02100
H 	H 	0.60080 0.43130 0.30320 -0.02500
H 	H 	0.60630 0.96050 0.52800 -0.01400
H 	H 	0.50860 0.02150 0.57180 -0.01200
Zn	Zn	0.18040 0.85150 0.28610 0.67400
I 	I 	0.13750 0.80920 0.21130 0.38500
I 	I 	0.24600 0.77860 0.31680 -1.06500
Zn	Zn	0.86700 0.09480 0.44650 0.59800
I 	I 	0.83560 0.08140 0.51590 -0.40800
I 	I 	0.88358 0.24210 0.41230 -0.01300
Zn	Zn	0.57710 0.12350 0.09700 0.55800
I 	I 	0.51940 0.16140 0.13510 -0.06200
I 	I 	0.61570 0.23610 0.06500 -0.19300
I 	I 	0.61844 0.67670 0.70124 -0.83200
Zn	Zn	0.66895 0.64920 0.77250 0.65600
I 	I 	0.73171 0.73900 0.79551 0.63100
N 	N 	0.63880 0.66280 0.82480 -0.31300
N 	N 	0.68390 0.51210 0.77730 -0.30400
C 	C 	0.66040 0.45690 0.75090 0.07800
C 	C 	0.71410 0.47620 0.80540 0.06400
C 	C 	0.66580 0.36670 0.75060 -0.12800
H 	H 	0.63840 0.48160 0.73100 -0.01600
C 	C 	0.72240 0.38620 0.80660 -0.12600
H 	H 	0.73060 0.51460 0.82550 -0.00800
C 	C 	0.69740 0.32960 0.77970 0.05800
H 	H 	0.64820 0.32980 0.73070 0.09000
H 	H 	0.74520 0.36350 0.82600 0.07400
C 	C 	0.70430 0.23030 0.77960 0.09500
N 	N 	0.67937 0.18520 0.74900 -0.13100
N 	N 	0.73410 0.19540 0.80820 -0.15000
C 	C 	0.68780 0.09940 0.74630 0.10300
C 	C 	0.73950 0.10680 0.80380 0.07500
C 	C 	0.66210 0.04520 0.71160 0.06400
N 	N 	0.71766 0.05570 0.77250 -0.14600
C 	C 	0.77080 0.05990 0.83500 0.03600
C 	C 	0.62840 0.08380 0.68770 -0.11600
C 	C 	0.67150 0.95850 0.70270 -0.12500
C 	C 	0.77480 0.96930 0.83270 -0.10500
C 	C 	0.79710 0.10510 0.86740 -0.12500
C 	C 	0.60420 0.03380 0.65580 0.07700
H 	H 	0.62180 0.14410 0.69310 0.09400
C 	C 	0.64620 0.91340 0.66910 0.06800
H 	H 	0.69450 0.93010 0.71900 0.05800
H 	H 	0.75790 0.93630 0.81030 0.07400
C 	C 	0.80310 0.92590 0.86270 0.05100
C 	C 	0.82430 0.05710 0.89630 0.08200
H 	H 	0.79620 0.16860 0.86940 0.07900
N 	N 	0.61330 0.94980 0.64610 -0.26500
H 	H 	0.58030 0.06000 0.64020 -0.00600
H 	H 	0.65280 0.85380 0.66230 -0.02100
N 	N 	0.82770 0.96950 0.89460 -0.27700
H 	H 	0.80530 0.86260 0.86080 0.01900
H 	H 	0.84160 0.08860 0.91890 -0.00500
Zn	Zn	0.57189 0.88000 0.60100 0.56000
Zn	Zn	0.86669 0.89220 0.93670 0.60200
I 	I 	0.61032 0.76289 0.56434 -0.13100
N 	N 	0.55840 0.98200 0.55470 -0.26800
I 	I 	0.51207 0.85070 0.63747 -0.23500
N 	N 	0.91650 0.98030 0.94760 -0.28500
I 	I 	0.88279 0.75090 0.89779 -0.33100
I 	I 	0.84414 0.89110 0.00962 0.05600
C 	C 	0.93530 0.98510 0.91460 0.09200
C 	C 	0.92880 0.03080 0.98350 0.07000
C 	C 	0.96740 0.04050 0.91450 -0.13100
H 	H 	0.92650 0.94860 0.88940 -0.02400
C 	C 	0.96160 0.08850 0.98520 -0.12100
H 	H 	0.91530 0.02760 0.00780 -0.01000
H 	H 	0.98030 0.04270 0.88970 0.09200
C 	C 	0.98090 0.09320 0.95110 0.06300
H 	H 	0.97030 0.12430 0.01070 0.08000
C 	C 	0.01350 0.15680 0.95120 0.08200
N 	N 	0.03680 0.14080 0.92180 -0.13700
N 	N 	0.01678 0.22700 0.97860 -0.15000
C 	C 	0.06520 0.20260 0.92070 0.09600
C 	C 	0.04560 0.28330 0.97420 0.08200
N 	N 	0.07110 0.27430 0.94630 -0.14100
C 	C 	0.09120 0.18970 0.88730 0.06900
C 	C 	0.04950 0.36600 0.00240 0.05200
C 	C 	0.12470 0.24090 0.88800 -0.12000
C 	C 	0.08180 0.12310 0.85530 -0.13000
C 	C 	0.08040 0.42410 0.00130 -0.11500
C 	C 	0.02240 0.38690 0.02830 -0.12600
C 	C 	0.14730 0.22580 0.85710 0.06800
H 	H 	0.13190 0.28610 0.90980 0.08300
C 	C 	0.10700 0.11380 0.82520 0.09600
H 	H 	0.05910 0.08570 0.85430 0.08900
H 	H 	0.09890 0.41290 0.98230 0.07800
C 	C 	0.08450 0.49990 0.02830 0.06000
C 	C 	0.02780 0.46420 0.05400 0.08100
H 	H 	-0.00000 0.34910 0.02880 0.07400
H 	H 	0.17060 0.26140 0.85800 -0.02100
H 	H 	0.10080 0.06870 0.80320 -0.02500
H 	H 	0.10630 0.53950 0.02800 -0.01400
H 	H 	0.00860 0.47850 0.07180 -0.01200
Zn	Zn	0.68040 0.64850 0.78610 0.67400
I 	I 	0.63750 0.69080 0.71130 0.38600
I 	I 	0.74600 0.72140 0.81680 -1.06500
Zn	Zn	0.36700 0.40520 0.94650 0.59900
I 	I 	0.33560 0.41860 0.01590 -0.40800
I 	I 	0.38358 0.25790 0.91230 -0.01300
Zn	Zn	0.07710 0.37650 0.59700 0.55800
I 	I 	0.01940 0.33860 0.63510 -0.06300
I 	I 	0.11570 0.26390 0.56500 -0.19300
I 	I 	0.11844 0.17670 0.70124 -0.83200
Zn	Zn	0.16895 0.14920 0.77250 0.65600
I 	I 	0.23171 0.23900 0.79551 0.63100
N 	N 	0.13880 0.16280 0.82480 -0.31300
N 	N 	0.18390 0.01210 0.77730 -0.30400
C 	C 	0.16040 0.95690 0.75090 0.07800
C 	C 	0.21410 0.97620 0.80540 0.06300
C 	C 	0.16580 0.86670 0.75060 -0.12800
H 	H 	0.13840 0.98160 0.73100 -0.01600
C 	C 	0.22240 0.88620 0.80660 -0.12500
H 	H 	0.23060 0.01460 0.82550 -0.00800
C 	C 	0.19740 0.82960 0.77970 0.05700
H 	H 	0.14820 0.82980 0.73070 0.08900
H 	H 	0.24520 0.86350 0.82600 0.07400
C 	C 	0.20430 0.73030 0.77960 0.09500
N 	N 	0.17937 0.68520 0.74900 -0.13100
N 	N 	0.23410 0.69540 0.80820 -0.15000
C 	C 	0.18780 0.59940 0.74630 0.10300
C 	C 	0.23950 0.60680 0.80380 0.07500
C 	C 	0.16210 0.54520 0.71160 0.06400
N 	N 	0.21766 0.55570 0.77250 -0.14600
C 	C 	0.27080 0.55990 0.83500 0.03500
C 	C 	0.12840 0.58380 0.68770 -0.11600
C 	C 	0.17150 0.45850 0.70270 -0.12400
C 	C 	0.27480 0.46930 0.83270 -0.10400
C 	C 	0.29710 0.60510 0.86740 -0.12400
C 	C 	0.10420 0.53380 0.65580 0.07700
H 	H 	0.12180 0.64410 0.69310 0.09400
C 	C 	0.14620 0.41340 0.66910 0.06800
H 	H 	0.19450 0.43010 0.71900 0.05800
H 	H 	0.25790 0.43630 0.81030 0.07400
C 	C 	0.30310 0.42590 0.86270 0.05000
C 	C 	0.32430 0.55710 0.89630 0.08200
H 	H 	0.29620 0.66860 0.86940 0.07800
N 	N 	0.11330 0.44980 0.64610 -0.26400
H 	H 	0.08030 0.56000 0.64020 -0.00600
H 	H 	0.15280 0.35380 0.66230 -0.02100
N 	N 	0.32770 0.46950 0.89460 -0.27600
H 	H 	0.30530 0.36260 0.86080 0.01900
H 	H 	0.34160 0.58860 0.91890 -0.00500
Zn	Zn	0.07189 0.38000 0.60100 0.56000
Zn	Zn	0.36669 0.39220 0.93670 0.60200
I 	I 	0.11032 0.26289 0.56434 -0.13100
N 	N 	0.05840 0.48200 0.55470 -0.26800
I 	I 	0.01207 0.35070 0.63747 -0.23500
N 	N 	0.41650 0.48030 0.94760 -0.28500
I 	I 	0.38279 0.25090 0.89779 -0.33100
I 	I 	0.34414 0.39110 0.00962 0.05600
C 	C 	0.43530 0.48510 0.91460 0.09200
C 	C 	0.42880 0.53080 0.98350 0.06900
C 	C 	0.46740 0.54050 0.91450 -0.13000
H 	H 	0.42650 0.44860 0.88940 -0.02400
C 	C 	0.46160 0.58850 0.98520 -0.12100
H 	H 	0.41530 0.52760 0.00780 -0.00900
H 	H 	0.48030 0.54270 0.88970 0.09100
C 	C 	0.48090 0.59320 0.95110 0.06100
H 	H 	0.47030 0.62430 0.01070 0.07900
C 	C 	0.51350 0.65680 0.95120 0.08400
N 	N 	0.53680 0.64080 0.92180 -0.13700
N 	N 	0.51678 0.72700 0.97860 -0.14900
C 	C 	0.56520 0.70260 0.92070 0.09600
C 	C 	0.54560 0.78330 0.97420 0.08200
N 	N 	0.57110 0.77430 0.94630 -0.14100
C 	C 	0.59120 0.68970 0.88730 0.06900
C 	C 	0.54950 0.86600 0.00240 0.05200
C 	C 	0.62470 0.74090 0.88800 -0.12000
C 	C 	0.58180 0.62310 0.85530 -0.13000
C 	C 	0.58040 0.92410 0.00130 -0.11500
C 	C 	0.52240 0.88690 0.02830 -0.12700
C 	C 	0.64730 0.72580 0.85710 0.06800
H 	H 	0.63190 0.78610 0.90980 0.08300
C 	C 	0.60700 0.61380 0.82520 0.09600
H 	H 	0.55910 0.58570 0.85430 0.08900
H 	H 	0.59890 0.91290 0.98230 0.07800
C 	C 	0.58450 0.99990 0.02830 0.06100
C 	C 	0.52780 0.96420 0.05400 0.08200
H 	H 	0.50000 0.84910 0.02880 0.07400
H 	H 	0.67060 0.76140 0.85800 -0.02100
H 	H 	0.60080 0.56870 0.80320 -0.02500
H 	H 	0.60630 0.03950 0.02800 -0.01500
H 	H 	0.50860 0.97850 0.07180 -0.01200
Zn	Zn	0.18040 0.14850 0.78610 0.67400
I 	I 	0.13750 0.19080 0.71130 0.38500
I 	I 	0.24600 0.22140 0.81680 -1.06500
Zn	Zn	0.86700 0.90520 0.94650 0.59800
I 	I 	0.83560 0.91860 0.01590 -0.40800
I 	I 	0.88358 0.75790 0.91230 -0.01300
Zn	Zn	0.57710 0.87650 0.59700 0.55800
I 	I 	0.51940 0.83860 0.63510 -0.06200
I 	I 	0.61570 0.76390 0.56500 -0.19300
I 	I 	0.38156 0.32330 0.29876 -0.83200
Zn	Zn	0.33105 0.35080 0.22750 0.65600
I 	I 	0.26829 0.26100 0.20449 0.63100
N 	N 	0.36120 0.33720 0.17520 -0.31300
N 	N 	0.31610 0.48790 0.22270 -0.30400
C 	C 	0.33960 0.54310 0.24910 0.07800
C 	C 	0.28590 0.52380 0.19460 0.06400
C 	C 	0.33420 0.63330 0.24940 -0.12800
H 	H 	0.36160 0.51840 0.26900 -0.01600
C 	C 	0.27760 0.61380 0.19340 -0.12600
H 	H 	0.26940 0.48540 0.17450 -0.00800
C 	C 	0.30260 0.67040 0.22030 0.05800
H 	H 	0.35180 0.67020 0.26930 0.09000
H 	H 	0.25480 0.63650 0.17400 0.07400
C 	C 	0.29570 0.76970 0.22040 0.09500
N 	N 	0.32063 0.81480 0.25100 -0.13100
N 	N 	0.26590 0.80460 0.19180 -0.15000
C 	C 	0.31220 0.90060 0.25370 0.10300
C 	C 	0.26050 0.89320 0.19620 0.07500
C 	C 	0.33790 0.95480 0.28840 0.06400
N 	N 	0.28234 0.94430 0.22750 -0.14600
C 	C 	0.22920 0.94010 0.16500 0.03600
C 	C 	0.37160 0.91620 0.31230 -0.11600
C 	C 	0.32850 0.04150 0.29730 -0.12500
C 	C 	0.22520 0.03070 0.16730 -0.10500
C 	C 	0.20290 0.89490 0.13260 -0.12500
C 	C 	0.39580 0.96620 0.34420 0.07700
H 	H 	0.37820 0.85590 0.30690 0.09400
C 	C 	0.35380 0.08660 0.33090 0.06800
H 	H 	0.30550 0.06990 0.28100 0.05800
H 	H 	0.24210 0.06370 0.18970 0.07400
C 	C 	0.19690 0.07410 0.13730 0.05100
C 	C 	0.17570 0.94290 0.10370 0.08200
H 	H 	0.20380 0.83140 0.13060 0.07900
N 	N 	0.38670 0.05020 0.35390 -0.26500
H 	H 	0.41970 0.94000 0.35980 -0.00600
H 	H 	0.34720 0.14620 0.33770 -0.02100
N 	N 	0.17230 0.03050 0.10540 -0.27700
H 	H 	0.19470 0.13740 0.13920 0.01900
H 	H 	0.15840 0.91140 0.08110 -0.00500
Zn	Zn	0.42811 0.12000 0.39900 0.56000
Zn	Zn	0.13331 0.10780 0.06330 0.60200
I 	I 	0.38968 0.23711 0.43566 -0.13100
N 	N 	0.44160 0.01800 0.44530 -0.26800
I 	I 	0.48793 0.14930 0.36253 -0.23500
N 	N 	0.08350 0.01970 0.05240 -0.28500
I 	I 	0.11721 0.24910 0.10221 -0.33100
I 	I 	0.15586 0.10890 0.99038 0.05600
C 	C 	0.06470 0.01490 0.08540 0.09000
C 	C 	0.07120 0.96920 0.01650 0.06900
C 	C 	0.03260 0.95950 0.08550 -0.12800
H 	H 	0.07350 0.05140 0.11060 -0.02400
C 	C 	0.03840 0.91150 0.01480 -0.11900
H 	H 	0.08470 0.97240 0.99220 -0.00900
H 	H 	0.01970 0.95730 0.11030 0.09000
C 	C 	0.01910 0.90680 0.04890 0.05800
H 	H 	0.02970 0.87570 0.98930 0.07800
C 	C 	0.98650 0.84320 0.04880 0.08600
N 	N 	0.96320 0.85920 0.07820 -0.13700
N 	N 	0.98322 0.77300 0.02140 -0.14900
C 	C 	0.93480 0.79740 0.07930 0.09600
C 	C 	0.95440 0.71670 0.02580 0.08300
N 	N 	0.92890 0.72570 0.05370 -0.14100
C 	C 	0.90880 0.81030 0.11270 0.06900
C 	C 	0.95050 0.63400 0.99760 0.05000
C 	C 	0.87530 0.75910 0.11200 -0.12100
C 	C 	0.91820 0.87690 0.14470 -0.13000
C 	C 	0.91960 0.57590 0.99870 -0.11400
C 	C 	0.97760 0.61310 0.97170 -0.12200
C 	C 	0.85270 0.77420 0.14290 0.06800
H 	H 	0.86810 0.71390 0.09020 0.08300
C 	C 	0.89300 0.88620 0.17480 0.09600
H 	H 	0.94090 0.91430 0.14570 0.09000
H 	H 	0.90110 0.58710 0.01770 0.07800
C 	C 	0.91550 0.50010 0.97170 0.06000
C 	C 	0.97220 0.53580 0.94600 0.08000
H 	H 	0.00000 0.65090 0.97120 0.07200
H 	H 	0.82940 0.73860 0.14200 -0.02100
H 	H 	0.89920 0.93130 0.19680 -0.02500
H 	H 	0.89370 0.46050 0.97200 -0.01400
H 	H 	0.99140 0.52150 0.92820 -0.01100
Zn	Zn	0.31960 0.35150 0.21390 0.67400
I 	I 	0.36250 0.30920 0.28870 0.38600
I 	I 	0.25400 0.27860 0.18320 -1.06500
Zn	Zn	0.63300 0.59480 0.05350 0.59900
I 	I 	0.66440 0.58140 0.98410 -0.40800
I 	I 	0.61642 0.74210 0.08770 -0.01300
Zn	Zn	0.92290 0.62350 0.40300 0.55800
I 	I 	0.98060 0.66140 0.36490 -0.06100
I 	I 	0.88430 0.73610 0.43500 -0.19300
I 	I 	0.88156 0.82330 0.29876 -0.83200
Zn	Zn	0.83105 0.85080 0.22750 0.65600
I 	I 	0.76829 0.76100 0.20449 0.63100
N 	N 	0.86120 0.83720 0.17520 -0.31300
N 	N 	0.81610 0.98790 0.22270 -0.30400
C 	C 	0.83960 0.04310 0.24910 0.07800
C 	C 	0.78590 0.02380 0.19460 0.06300
C 	C 	0.83420 0.13330 0.24940 -0.12800
H 	H 	0.86160 0.01840 0.26900 -0.01500
C 	C 	0.77760 0.11380 0.19340 -0.12500
H 	H 	0.76940 0.98540 0.17450 -0.00800
C 	C 	0.80260 0.17040 0.22030 0.05700
H 	H 	0.85180 0.17020 0.26930 0.09000
H 	H 	0.75480 0.13650 0.17400 0.07400
C 	C 	0.79570 0.26970 0.22040 0.09500
N 	N 	0.82063 0.31480 0.25100 -0.13100
N 	N 	0.76590 0.30460 0.19180 -0.15000
C 	C 	0.81220 0.40060 0.25370 0.10400
C 	C 	0.76050 0.39320 0.19620 0.07500
C 	C 	0.83790 0.45480 0.28840 0.06400
N 	N 	0.78234 0.44430 0.22750 -0.14600
C 	C 	0.72920 0.44010 0.16500 0.03500
C 	C 	0.87160 0.41620 0.31230 -0.11600
C 	C 	0.82850 0.54150 0.29730 -0.12400
C 	C 	0.72520 0.53070 0.16730 -0.10400
C 	C 	0.70290 0.39490 0.13260 -0.12400
C 	C 	0.89580 0.46620 0.34420 0.07700
H 	H 	0.87820 0.35590 0.30690 0.09400
C 	C 	0.85380 0.58660 0.33090 0.06800
H 	H 	0.80550 0.56990 0.28100 0.05800
H 	H 	0.74210 0.56370 0.18970 0.07400
C 	C 	0.69690 0.57410 0.13730 0.05000
C 	C 	0.67570 0.44290 0.10370 0.08200
H 	H 	0.70380 0.33140 0.13060 0.07800
N 	N 	0.88670 0.55020 0.35390 -0.26400
H 	H 	0.91970 0.44000 0.35980 -0.00600
H 	H 	0.84720 0.64620 0.33770 -0.02100
N 	N 	0.67230 0.53050 0.10540 -0.27600
H 	H 	0.69470 0.63740 0.13920 0.01900
H 	H 	0.65840 0.41140 0.08110 -0.00500
Zn	Zn	0.92811 0.62000 0.39900 0.56000
Zn	Zn	0.63331 0.60780 0.06330 0.60200
I 	I 	0.88968 0.73711 0.43566 -0.13000
N 	N 	0.94160 0.51800 0.44530 -0.26800
I 	I 	0.98793 0.64930 0.36253 -0.23400
N 	N 	0.58350 0.51970 0.05240 -0.28500
I 	I 	0.61721 0.74910 0.10221 -0.33100
I 	I 	0.65586 0.60890 0.99038 0.05600
C 	C 	0.56470 0.51490 0.08540 0.09200
C 	C 	0.57120 0.46920 0.01650 0.06900
C 	C 	0.53260 0.45950 0.08550 -0.13000
H 	H 	0.57350 0.55140 0.11060 -0.02400
C 	C 	0.53840 0.41150 0.01480 -0.12100
H 	H 	0.58470 0.47240 0.99220 -0.00900
H 	H 	0.51970 0.45730 0.11030 0.09100
C 	C 	0.51910 0.40680 0.04890 0.06100
H 	H 	0.52970 0.37570 0.98930 0.07900
C 	C 	0.48650 0.34320 0.04880 0.08400
N 	N 	0.46320 0.35920 0.07820 -0.13700
N 	N 	0.48322 0.27300 0.02140 -0.14900
C 	C 	0.43480 0.29740 0.07930 0.09600
C 	C 	0.45440 0.21670 0.02580 0.08200
N 	N 	0.42890 0.22570 0.05370 -0.14100
C 	C 	0.40880 0.31030 0.11270 0.06900
C 	C 	0.45050 0.13400 0.99760 0.05200
C 	C 	0.37530 0.25910 0.11200 -0.12000
C 	C 	0.41820 0.37690 0.14470 -0.13000
C 	C 	0.41960 0.07590 0.99870 -0.11500
C 	C 	0.47760 0.11310 0.97170 -0.12700
C 	C 	0.35270 0.27420 0.14290 0.06800
H 	H 	0.36810 0.21390 0.09020 0.08300
C 	C 	0.39300 0.38620 0.17480 0.09600
H 	H 	0.44090 0.41430 0.14570 0.08900
H 	H 	0.40110 0.08710 0.01770 0.07800
C 	C 	0.41550 0.00010 0.97170 0.06100
C 	C 	0.47220 0.03580 0.94600 0.08200
H 	H 	0.50000 0.15090 0.97120 0.07400
H 	H 	0.32940 0.23860 0.14200 -0.02100
H 	H 	0.39920 0.43130 0.19680 -0.02500
H 	H 	0.39370 0.96050 0.97200 -0.01500
H 	H 	0.49140 0.02150 0.92820 -0.01200
Zn	Zn	0.81960 0.85150 0.21390 0.67400
I 	I 	0.86250 0.80920 0.28870 0.38600
I 	I 	0.75400 0.77860 0.18320 -1.06500
Zn	Zn	0.13300 0.09480 0.05350 0.59800
I 	I 	0.16440 0.08140 0.98410 -0.40800
I 	I 	0.11642 0.24210 0.08770 -0.01300
Zn	Zn	0.42290 0.12350 0.40300 0.55800
I 	I 	0.48060 0.16140 0.36490 -0.06200
I 	I 	0.38430 0.23610 0.43500 -0.19300
I 	I 	0.38156 0.67670 0.79876 -0.83200
Zn	Zn	0.33105 0.64920 0.72750 0.65600
I 	I 	0.26829 0.73900 0.70449 0.63100
N 	N 	0.36120 0.66280 0.67520 -0.31300
N 	N 	0.31610 0.51210 0.72270 -0.30400
C 	C 	0.33960 0.45690 0.74910 0.07800
C 	C 	0.28590 0.47620 0.69460 0.06400
C 	C 	0.33420 0.36670 0.74940 -0.12800
H 	H 	0.36160 0.48160 0.76900 -0.01600
C 	C 	0.27760 0.38620 0.69340 -0.12600
H 	H 	0.26940 0.51460 0.67450 -0.00800
C 	C 	0.30260 0.32960 0.72030 0.05800
H 	H 	0.35180 0.32980 0.76930 0.09000
H 	H 	0.25480 0.36350 0.67400 0.07400
C 	C 	0.29570 0.23030 0.72040 0.09500
N 	N 	0.32063 0.18520 0.75100 -0.13100
N 	N 	0.26590 0.19540 0.69180 -0.15000
C 	C 	0.31220 0.09940 0.75370 0.10300
C 	C 	0.26050 0.10680 0.69620 0.07500
C 	C 	0.33790 0.04520 0.78840 0.06400
N 	N 	0.28234 0.05570 0.72750 -0.14600
C 	C 	0.22920 0.05990 0.66500 0.03600
C 	C 	0.37160 0.08380 0.81230 -0.11600
C 	C 	0.32850 0.95850 0.79730 -0.12500
C 	C 	0.22520 0.96930 0.66730 -0.10400
C 	C 	0.20290 0.10510 0.63260 -0.12500
C 	C 	0.39580 0.03380 0.84420 0.07700
H 	H 	0.37820 0.14410 0.80690 0.09400
C 	C 	0.35380 0.91340 0.83090 0.06800
H 	H 	0.30550 0.93010 0.78100 0.05900
H 	H 	0.24210 0.93630 0.68970 0.07400
C 	C 	0.19690 0.92590 0.63730 0.05000
C 	C 	0.17570 0.05710 0.60370 0.08200
H 	H 	0.20380 0.16860 0.63060 0.07800
N 	N 	0.38670 0.94980 0.85390 -0.26500
H 	H 	0.41970 0.06000 0.85980 -0.00600
H 	H 	0.34720 0.85380 0.83770 -0.02100
N 	N 	0.17230 0.96950 0.60540 -0.27600
H 	H 	0.19470 0.86260 0.63920 0.01900
H 	H 	0.15840 0.08860 0.58110 -0.00500
Zn	Zn	0.42811 0.88000 0.89900 0.56000
Zn	Zn	0.13331 0.89220 0.56330 0.60200
I 	I 	0.38968 0.76289 0.93566 -0.13100
N 	N 	0.44160 0.98200 0.94530 -0.26900
I 	I 	0.48793 0.85070 0.86253 -0.23500
N 	N 	0.08350 0.98030 0.55240 -0.28500
I 	I 	0.11721 0.75090 0.60221 -0.33100
I 	I 	0.15586 0.89110 0.49038 0.05600
C 	C 	0.06470 0.98510 0.58540 0.09100
C 	C 	0.07120 0.03080 0.51650 0.06800
C 	C 	0.03260 0.04050 0.58550 -0.12900
H 	H 	0.07350 0.94860 0.61060 -0.02400
C 	C 	0.03840 0.08850 0.51480 -0.11900
H 	H 	0.08470 0.02760 0.49220 -0.00900
H 	H 	0.01970 0.04270 0.61030 0.09000
C 	C 	0.01910 0.09320 0.54890 0.05800
H 	H 	0.02970 0.12430 0.48930 0.07800
C 	C 	0.98650 0.15680 0.54880 0.08600
N 	N 	0.96320 0.14080 0.57820 -0.13700
N 	N 	0.98322 0.22700 0.52140 -0.14900
C 	C 	0.93480 0.20260 0.57930 0.09600
C 	C 	0.95440 0.28330 0.52580 0.08300
N 	N 	0.92890 0.27430 0.55370 -0.14100
C 	C 	0.90880 0.18970 0.61270 0.06900
C 	C 	0.95050 0.36600 0.49760 0.05000
C 	C 	0.87530 0.24090 0.61200 -0.12100
C 	C 	0.91820 0.12310 0.64470 -0.13000
C 	C 	0.91960 0.42410 0.49870 -0.11400
C 	C 	0.97760 0.38690 0.47170 -0.12200
C 	C 	0.85270 0.22580 0.64290 0.06800
H 	H 	0.86810 0.28610 0.59020 0.08300
C 	C 	0.89300 0.11380 0.67480 0.09600
H 	H 	0.94090 0.08570 0.64570 0.09000
H 	H 	0.90110 0.41290 0.51770 0.07800
C 	C 	0.91550 0.49990 0.47170 0.06000
C 	C 	0.97220 0.46420 0.44600 0.08000
H 	H 	0.00000 0.34910 0.47120 0.07200
H 	H 	0.82940 0.26140 0.64200 -0.02100
H 	H 	0.89920 0.06870 0.69680 -0.02500
H 	H 	0.89370 0.53950 0.47200 -0.01400
H 	H 	0.99140 0.47850 0.42820 -0.01100
Zn	Zn	0.31960 0.64850 0.71390 0.67400
I 	I 	0.36250 0.69080 0.78870 0.38600
I 	I 	0.25400 0.72140 0.68320 -1.06500
Zn	Zn	0.63300 0.40520 0.55350 0.59800
I 	I 	0.66440 0.41860 0.48410 -0.40800
I 	I 	0.61642 0.25790 0.58770 -0.01300
Zn	Zn	0.92290 0.37650 0.90300 0.55800
I 	I 	0.98060 0.33860 0.86490 -0.06100
I 	I 	0.88430 0.26390 0.93500 -0.19300
I 	I 	0.88156 0.17670 0.79876 -0.83200
Zn	Zn	0.83105 0.14920 0.72750 0.65600
I 	I 	0.76829 0.23900 0.70449 0.63100
N 	N 	0.86120 0.16280 0.67520 -0.31300
N 	N 	0.81610 0.01210 0.72270 -0.30400
C 	C 	0.83960 0.95690 0.74910 0.07800
C 	C 	0.78590 0.97620 0.69460 0.06400
C 	C 	0.83420 0.86670 0.74940 -0.12800
H 	H 	0.86160 0.98160 0.76900 -0.01500
C 	C 	0.77760 0.88620 0.69340 -0.12500
H 	H 	0.76940 0.01460 0.67450 -0.00800
C 	C 	0.80260 0.82960 0.72030 0.05700
H 	H 	0.85180 0.82980 0.76930 0.09000
H 	H 	0.75480 0.86350 0.67400 0.07400
C 	C 	0.79570 0.73030 0.72040 0.09500
N 	N 	0.82063 0.68520 0.75100 -0.13100
N 	N 	0.76590 0.69540 0.69180 -0.15000
C 	C 	0.81220 0.59940 0.75370 0.10400
C 	C 	0.76050 0.60680 0.69620 0.07500
C 	C 	0.83790 0.54520 0.78840 0.06400
N 	N 	0.78234 0.55570 0.72750 -0.14600
C 	C 	0.72920 0.55990 0.66500 0.03500
C 	C 	0.87160 0.58380 0.81230 -0.11600
C 	C 	0.82850 0.45850 0.79730 -0.12400
C 	C 	0.72520 0.46930 0.66730 -0.10400
C 	C 	0.70290 0.60510 0.63260 -0.12400
C 	C 	0.89580 0.53380 0.84420 0.07700
H 	H 	0.87820 0.64410 0.80690 0.09400
C 	C 	0.85380 0.41340 0.83090 0.06800
H 	H 	0.80550 0.43010 0.78100 0.05800
H 	H 	0.74210 0.43630 0.68970 0.07400
C 	C 	0.69690 0.42590 0.63730 0.05000
C 	C 	0.67570 0.55710 0.60370 0.08200
H 	H 	0.70380 0.66860 0.63060 0.07800
N 	N 	0.88670 0.44980 0.85390 -0.26400
H 	H 	0.91970 0.56000 0.85980 -0.00600
H 	H 	0.84720 0.35380 0.83770 -0.02100
N 	N 	0.67230 0.46950 0.60540 -0.27600
H 	H 	0.69470 0.36260 0.63920 0.01900
H 	H 	0.65840 0.58860 0.58110 -0.00500
Zn	Zn	0.92811 0.38000 0.89900 0.56000
Zn	Zn	0.63331 0.39220 0.56330 0.60200
I 	I 	0.88968 0.26289 0.93566 -0.13000
N 	N 	0.94160 0.48200 0.94530 -0.26800
I 	I 	0.98793 0.35070 0.86253 -0.23400
N 	N 	0.58350 0.48030 0.55240 -0.28500
I 	I 	0.61721 0.25090 0.60221 -0.33100
I 	I 	0.65586 0.39110 0.49038 0.05600
C 	C 	0.56470 0.48510 0.58540 0.09200
C 	C 	0.57120 0.53080 0.51650 0.06900
C 	C 	0.53260 0.54050 0.58550 -0.13000
H 	H 	0.57350 0.44860 0.61060 -0.02400
C 	C 	0.53840 0.58850 0.51480 -0.12000
H 	H 	0.58470 0.52760 0.49220 -0.00900
H 	H 	0.51970 0.54270 0.61030 0.09100
C 	C 	0.51910 0.59320 0.54890 0.06100
H 	H 	0.52970 0.62430 0.48930 0.07900
C 	C 	0.48650 0.65680 0.54880 0.08400
N 	N 	0.46320 0.64080 0.57820 -0.13700
N 	N 	0.48322 0.72700 0.52140 -0.14900
C 	C 	0.43480 0.70260 0.57930 0.09600
C 	C 	0.45440 0.78330 0.52580 0.08200
N 	N 	0.42890 0.77430 0.55370 -0.14100
C 	C 	0.40880 0.68970 0.61270 0.06900
C 	C 	0.45050 0.86600 0.49760 0.05200
C 	C 	0.37530 0.74090 0.61200 -0.12000
C 	C 	0.41820 0.62310 0.64470 -0.13000
C 	C 	0.41960 0.92410 0.49870 -0.11500
C 	C 	0.47760 0.88690 0.47170 -0.12600
C 	C 	0.35270 0.72580 0.64290 0.06800
H 	H 	0.36810 0.78610 0.59020 0.08300
C 	C 	0.39300 0.61380 0.67480 0.09600
H 	H 	0.44090 0.58570 0.64570 0.08900
H 	H 	0.40110 0.91290 0.51770 0.07800
C 	C 	0.41550 0.99990 0.47170 0.06100
C 	C 	0.47220 0.96420 0.44600 0.08200
H 	H 	0.50000 0.84910 0.47120 0.07400
H 	H 	0.32940 0.76140 0.64200 -0.02100
H 	H 	0.39920 0.56870 0.69680 -0.02500
H 	H 	0.39370 0.03950 0.47200 -0.01400
H 	H 	0.49140 0.97850 0.42820 -0.01200
Zn	Zn	0.81960 0.14850 0.71390 0.67400
I 	I 	0.86250 0.19080 0.78870 0.38600
I 	I 	0.75400 0.22140 0.68320 -1.06500
Zn	Zn	0.13300 0.90520 0.55350 0.59800
I 	I 	0.16440 0.91860 0.48410 -0.40800
I 	I 	0.11642 0.75790 0.58770 -0.01300
Zn	Zn	0.42290 0.87650 0.90300 0.55800
I 	I 	0.48060 0.83860 0.86490 -0.06200
I 	I 	0.38430 0.76390 0.93500 -0.19300
