data_crystal

_cell_length_a 29.68900
_cell_length_b 19.31200
_cell_length_c 29.42400
_cell_angle_alpha 90.00000
_cell_angle_beta  107.29200
_cell_angle_gamma 90.00000

_symmetry_space_group_name_	'P 1'
_symmetry_space_group_name_H-M	'P 1'

loop_
_symmetry_equiv_pos_as_xyz
  x,y,z

loop_
_atom_site_label
_atom_site_type_symbol
_atom_site_fract_x
_atom_site_fract_y
_atom_site_fract_z
_atom_site_charge
C 	C 	0.27789 0.28772 0.29223 0.36200
C 	C 	0.63308 0.92624 0.30891 0.32300
C 	C 	0.39464 0.22310 0.28304 -0.11800
H 	H 	0.40560 0.18810 0.26740 0.07100
C 	C 	0.27614 0.14988 0.36293 0.37800
C 	C 	0.20185 0.19424 0.48980 0.11600
H 	H 	0.19530 0.24140 0.48640 -0.00800
C 	C 	0.32977 0.28245 0.29942 -0.12100
C 	C 	0.61592 0.85864 0.40837 -0.08400
C 	C 	0.61120 0.99414 0.31375 -0.09500
C 	C 	0.64204 0.79828 0.39748 0.29700
C 	C 	0.47498 0.09290 0.44889 0.04800
C 	C 	0.64063 0.91860 0.42723 0.01500
H 	H 	0.67290 0.92130 0.43160 0.04200
C 	C 	0.55155 0.31790 0.31970 0.04000
C 	C 	0.34781 0.14110 0.43396 0.04500
H 	H 	0.32960 0.15610 0.45290 0.02900
C 	C 	0.35457 0.10881 0.35749 0.04400
H 	H 	0.34080 0.10070 0.32520 0.02800
C 	C 	0.21955 0.09538 0.54039 0.14900
C 	C 	0.64971 0.57465 0.31489 0.39300
C 	C 	0.32721 0.13205 0.38517 -0.12100
C 	C 	0.34667 0.23097 0.27565 0.04200
H 	H 	0.32560 0.20170 0.25470 0.02800
C 	C 	0.50428 0.32160 0.31917 -0.10900
H 	H 	0.49030 0.36460 0.31920 0.07200
C 	C 	0.64794 0.21000 0.70140 0.37400
C 	C 	0.56755 0.85590 0.40005 0.01900
H 	H 	0.55080 0.81670 0.38620 0.04600
C 	C 	0.61731 0.97350 0.43938 -0.08900
H 	H 	0.63400 0.01330 0.45210 0.06200
C 	C 	0.42375 0.10700 0.42658 0.04200
C 	C 	0.56911 0.12322 0.31991 0.03400
C 	C 	0.22512 0.99440 0.59315 -0.07400
H 	H 	0.22590 0.96700 0.56740 0.05500
C 	C 	0.20994 0.16486 0.53439 -0.19600
H 	H 	0.20890 0.19200 0.56010 0.10900
C 	C 	0.40255 0.09753 0.37782 -0.11000
H 	H 	0.42080 0.08350 0.35870 0.06700
C 	C 	0.47815 0.26210 0.31856 0.04300
C 	C 	0.42670 0.26762 0.31400 0.04500
C 	C 	0.49970 0.19792 0.31979 -0.10700
H 	H 	0.48240 0.15790 0.32030 0.06700
C 	C 	0.36195 0.32596 0.33109 0.04400
H 	H 	0.35110 0.35980 0.34770 0.02800
C 	C 	0.22420 0.06160 0.58667 -0.10200
H 	H 	0.22660 0.08990 0.61290 0.07500
C 	C 	0.22507 0.95820 0.63680 0.12600
C 	C 	0.49991 0.12650 0.49051 -0.11500
H 	H 	0.48520 0.16120 0.50290 0.07200
C 	C 	0.57187 0.25299 0.31979 -0.11000
H 	H 	0.60300 0.25020 0.31950 0.06900
C 	C 	0.57249 0.13780 0.56131 0.04100
C 	C 	0.39533 0.12780 0.45424 -0.11300
H 	H 	0.40860 0.13290 0.48690 0.07500
C 	C 	0.62161 0.18620 0.65196 -0.11100
C 	C 	0.54703 0.19242 0.32033 0.04500
C 	C 	0.54212 0.06380 0.30640 -0.09800
H 	H 	0.50950 0.06690 0.29910 0.06400
C 	C 	0.49776 0.04350 0.42929 -0.11600
H 	H 	0.48140 0.02170 0.40110 0.07100
C 	C 	0.22053 0.85080 0.67652 0.10400
H 	H 	0.22020 0.80260 0.67590 -0.00100
C 	C 	0.57005 0.20710 0.57303 -0.10800
H 	H 	0.55150 0.23750 0.55070 0.07000
C 	C 	0.22461 0.99078 0.67889 -0.17800
H 	H 	0.22690 0.03870 0.68140 0.10400
C 	C 	0.56244 0.00040 0.30343 0.02300
H 	H 	0.54340 0.96140 0.29450 0.04100
C 	C 	0.56848 0.05900 0.49367 -0.11600
H 	H 	0.59970 0.04740 0.50890 0.07300
C 	C 	0.54405 0.91150 0.41232 -0.09400
H 	H 	0.51160 0.90930 0.40670 0.06800
C 	C 	0.40971 0.31870 0.33764 -0.11500
H 	H 	0.43080 0.34850 0.35820 0.07200
C 	C 	0.56873 0.97070 0.43298 0.02900
C 	C 	0.54631 0.10920 0.51386 0.04700
C 	C 	0.22354 0.05930 0.50104 -0.19200
H 	H 	0.23210 0.01280 0.50390 0.09800
C 	C 	0.22081 0.95203 0.71656 0.10900
H 	H 	0.22050 0.97500 0.74420 -0.00200
C 	C 	0.60086 0.39370 0.28466 -0.12900
H 	H 	0.60140 0.35870 0.26320 0.08200
C 	C 	0.54480 0.02610 0.45126 0.05400
C 	C 	0.60260 0.49640 0.35000 0.05700
H 	H 	0.60410 0.53010 0.37300 0.02600
C 	C 	0.59934 0.09350 0.59577 -0.11200
H 	H 	0.60120 0.04690 0.58840 0.07300
C 	C 	0.57799 0.38294 0.31831 0.05900
C 	C 	0.62338 0.11660 0.64081 0.04100
H 	H 	0.64070 0.08570 0.66360 0.03500
C 	C 	0.21502 0.09190 0.45819 0.11500
H 	H 	0.21770 0.06630 0.43240 -0.00900
C 	C 	0.62442 0.50737 0.31497 -0.12900
C 	C 	0.59516 0.23160 0.61792 0.03900
H 	H 	0.59420 0.27830 0.62510 0.03400
C 	C 	0.61781 0.11570 0.33190 -0.09900
H 	H 	0.63700 0.15420 0.34220 0.06300
C 	C 	0.63835 0.05230 0.32887 0.02400
H 	H 	0.67100 0.04890 0.33720 0.03900
C 	C 	0.62318 0.45620 0.28224 0.06300
H 	H 	0.63730 0.46340 0.25840 0.02300
C 	C 	0.57840 0.43520 0.35050 -0.12300
H 	H 	0.56230 0.42910 0.37290 0.07500
C 	C 	0.22412 0.88590 0.63662 -0.17600
H 	H 	0.22590 0.86150 0.61000 0.09100
Co	Co	0.20092 0.17458 0.26970 1.17600
Co	Co	0.18894 0.19907 0.38114 1.18100
Co	Co	0.19283 0.33214 0.29956 1.17600
N 	N 	0.20301 0.15848 0.45130 -0.23700
N 	N 	0.21756 0.88253 0.71575 -0.22900
O 	O 	0.64772 0.27309 0.71160 -0.39500
O 	O 	0.66839 0.16246 0.72922 -0.43700
O 	O 	0.25145 0.24703 0.26309 -0.44500
O 	O 	0.26324 0.33272 0.31601 -0.44800
O 	O 	0.65564 0.59439 0.27626 -0.41000
O 	O 	0.66284 0.60547 0.35416 -0.44000
O 	O 	0.25619 0.12876 0.32174 -0.43200
O 	O 	0.25801 0.18737 0.38807 -0.45400
O 	O 	0.17484 0.23818 0.31260 -0.58800
O 	O 	0.68593 0.80210 0.40485 -0.40300
O 	O 	0.62067 0.74219 0.38241 -0.34900
O 	O 	0.67763 0.92329 0.32159 -0.41700
O 	O 	0.60845 0.87519 0.29186 -0.30600
C 	C 	0.77789 0.78772 0.29223 0.36300
C 	C 	0.13308 0.42624 0.30891 0.32400
C 	C 	0.89464 0.72310 0.28304 -0.11700
H 	H 	0.90560 0.68810 0.26740 0.07200
C 	C 	0.77614 0.64988 0.36293 0.37900
C 	C 	0.70185 0.69424 0.48980 0.11700
H 	H 	0.69530 0.74140 0.48640 -0.00700
C 	C 	0.82977 0.78245 0.29942 -0.12000
C 	C 	0.11592 0.35864 0.40837 -0.08300
C 	C 	0.11120 0.49414 0.31375 -0.09300
C 	C 	0.14204 0.29828 0.39748 0.29800
C 	C 	0.97498 0.59290 0.44889 0.04900
C 	C 	0.14063 0.41860 0.42723 0.01600
H 	H 	0.17290 0.42130 0.43160 0.04300
C 	C 	0.05155 0.81790 0.31970 0.04000
C 	C 	0.84781 0.64110 0.43396 0.04500
H 	H 	0.82960 0.65610 0.45290 0.02900
C 	C 	0.85457 0.60881 0.35749 0.04400
H 	H 	0.84080 0.60070 0.32520 0.02800
C 	C 	0.71955 0.59538 0.54039 0.14900
C 	C 	0.14971 0.07465 0.31489 0.39300
C 	C 	0.82721 0.63205 0.38517 -0.12100
C 	C 	0.84667 0.73097 0.27565 0.04200
H 	H 	0.82560 0.70170 0.25470 0.02800
C 	C 	0.00428 0.82160 0.31917 -0.11000
H 	H 	0.99030 0.86460 0.31920 0.07200
C 	C 	0.14794 0.71000 0.70140 0.37400
C 	C 	0.06755 0.35590 0.40005 0.01900
H 	H 	0.05080 0.31670 0.38620 0.04600
C 	C 	0.11731 0.47350 0.43938 -0.08900
H 	H 	0.13400 0.51330 0.45210 0.06200
C 	C 	0.92375 0.60700 0.42658 0.04200
C 	C 	0.06911 0.62322 0.31991 0.03300
C 	C 	0.72512 0.49440 0.59315 -0.07400
H 	H 	0.72590 0.46700 0.56740 0.05500
C 	C 	0.70994 0.66486 0.53439 -0.19600
H 	H 	0.70890 0.69200 0.56010 0.10900
C 	C 	0.90255 0.59753 0.37782 -0.11000
H 	H 	0.92080 0.58350 0.35870 0.06700
C 	C 	0.97815 0.76210 0.31856 0.04400
C 	C 	0.92670 0.76762 0.31400 0.04500
C 	C 	0.99970 0.69792 0.31979 -0.10800
H 	H 	0.98240 0.65790 0.32030 0.06700
C 	C 	0.86195 0.82596 0.33109 0.04400
H 	H 	0.85110 0.85980 0.34770 0.02800
C 	C 	0.72420 0.56160 0.58667 -0.10100
H 	H 	0.72660 0.58990 0.61290 0.07500
C 	C 	0.72507 0.45820 0.63680 0.12600
C 	C 	0.99991 0.62650 0.49051 -0.11500
H 	H 	0.98520 0.66120 0.50290 0.07200
C 	C 	0.07187 0.75299 0.31979 -0.11000
H 	H 	0.10300 0.75020 0.31950 0.06900
C 	C 	0.07249 0.63780 0.56131 0.04100
C 	C 	0.89533 0.62780 0.45424 -0.11300
H 	H 	0.90860 0.63290 0.48690 0.07500
C 	C 	0.12161 0.68620 0.65196 -0.11100
C 	C 	0.04703 0.69242 0.32033 0.04500
C 	C 	0.04212 0.56380 0.30640 -0.09800
H 	H 	0.00950 0.56690 0.29910 0.06400
C 	C 	0.99776 0.54350 0.42929 -0.11700
H 	H 	0.98140 0.52170 0.40110 0.07100
C 	C 	0.72053 0.35080 0.67652 0.10400
H 	H 	0.72020 0.30260 0.67590 -0.00100
C 	C 	0.07005 0.70710 0.57303 -0.10800
H 	H 	0.05150 0.73750 0.55070 0.07000
C 	C 	0.72461 0.49078 0.67889 -0.17900
H 	H 	0.72690 0.53870 0.68140 0.10500
C 	C 	0.06244 0.50040 0.30343 0.02300
H 	H 	0.04340 0.46140 0.29450 0.04100
C 	C 	0.06848 0.55900 0.49367 -0.11600
H 	H 	0.09970 0.54740 0.50890 0.07300
C 	C 	0.04405 0.41150 0.41232 -0.09400
H 	H 	0.01160 0.40930 0.40670 0.06800
C 	C 	0.90971 0.81870 0.33764 -0.11500
H 	H 	0.93080 0.84850 0.35820 0.07200
C 	C 	0.06873 0.47070 0.43298 0.02900
C 	C 	0.04631 0.60920 0.51386 0.04700
C 	C 	0.72354 0.55930 0.50104 -0.19200
H 	H 	0.73210 0.51280 0.50390 0.09800
C 	C 	0.72081 0.45203 0.71656 0.11000
H 	H 	0.72050 0.47500 0.74420 -0.00200
C 	C 	0.10086 0.89370 0.28466 -0.12900
H 	H 	0.10140 0.85870 0.26320 0.08200
C 	C 	0.04480 0.52610 0.45126 0.05400
C 	C 	0.10260 0.99640 0.35000 0.05700
H 	H 	0.10410 0.03010 0.37300 0.02700
C 	C 	0.09934 0.59350 0.59577 -0.11200
H 	H 	0.10120 0.54690 0.58840 0.07300
C 	C 	0.07799 0.88294 0.31831 0.05800
C 	C 	0.12338 0.61660 0.64081 0.04100
H 	H 	0.14070 0.58570 0.66360 0.03500
C 	C 	0.71502 0.59190 0.45819 0.11500
H 	H 	0.71770 0.56630 0.43240 -0.00900
C 	C 	0.12442 0.00737 0.31497 -0.12900
C 	C 	0.09516 0.73160 0.61792 0.03900
H 	H 	0.09420 0.77830 0.62510 0.03400
C 	C 	0.11781 0.61570 0.33190 -0.09900
H 	H 	0.13700 0.65420 0.34220 0.06300
C 	C 	0.13835 0.55230 0.32887 0.02400
H 	H 	0.17100 0.54890 0.33720 0.03900
C 	C 	0.12318 0.95620 0.28224 0.06200
H 	H 	0.13730 0.96340 0.25840 0.02300
C 	C 	0.07840 0.93520 0.35050 -0.12300
H 	H 	0.06230 0.92910 0.37290 0.07500
C 	C 	0.72412 0.38590 0.63662 -0.17600
H 	H 	0.72590 0.36150 0.61000 0.09100
Co	Co	0.70092 0.67458 0.26970 1.17600
Co	Co	0.68894 0.69907 0.38114 1.18100
Co	Co	0.69283 0.83214 0.29956 1.17600
N 	N 	0.70301 0.65848 0.45130 -0.23700
N 	N 	0.71756 0.38253 0.71575 -0.22900
O 	O 	0.14772 0.77309 0.71160 -0.39500
O 	O 	0.16839 0.66246 0.72922 -0.43700
O 	O 	0.75145 0.74703 0.26309 -0.44500
O 	O 	0.76324 0.83272 0.31601 -0.44800
O 	O 	0.15564 0.09439 0.27626 -0.41000
O 	O 	0.16284 0.10547 0.35416 -0.43900
O 	O 	0.75619 0.62876 0.32174 -0.43200
O 	O 	0.75801 0.68737 0.38807 -0.45400
O 	O 	0.67484 0.73818 0.31260 -0.58800
O 	O 	0.18593 0.30210 0.40485 -0.40300
O 	O 	0.12067 0.24219 0.38241 -0.34900
O 	O 	0.17763 0.42329 0.32159 -0.41700
O 	O 	0.10845 0.37519 0.29186 -0.30600
C 	C 	0.27789 0.71228 0.79223 0.36300
C 	C 	0.63308 0.07376 0.80891 0.32400
C 	C 	0.39464 0.77690 0.78304 -0.11700
H 	H 	0.40560 0.81190 0.76740 0.07200
C 	C 	0.27614 0.85012 0.86293 0.37900
C 	C 	0.20185 0.80576 0.98980 0.11800
H 	H 	0.19530 0.75860 0.98640 -0.00700
C 	C 	0.32977 0.71755 0.79942 -0.12000
C 	C 	0.61592 0.14136 0.90837 -0.08300
C 	C 	0.61120 0.00586 0.81375 -0.09400
C 	C 	0.64204 0.20172 0.89748 0.29800
C 	C 	0.47498 0.90710 0.94889 0.04800
C 	C 	0.64063 0.08140 0.92723 0.01600
H 	H 	0.67290 0.07870 0.93160 0.04300
C 	C 	0.55155 0.68210 0.81970 0.03900
C 	C 	0.34781 0.85890 0.93396 0.04500
H 	H 	0.32960 0.84390 0.95290 0.02900
C 	C 	0.35457 0.89119 0.85749 0.04400
H 	H 	0.34080 0.89930 0.82520 0.02800
C 	C 	0.21955 0.90462 0.04039 0.14900
C 	C 	0.64971 0.42535 0.81489 0.39300
C 	C 	0.32721 0.86795 0.88517 -0.12100
C 	C 	0.34667 0.76903 0.77565 0.04200
H 	H 	0.32560 0.79830 0.75470 0.02800
C 	C 	0.50428 0.67840 0.81917 -0.10900
H 	H 	0.49030 0.63540 0.81920 0.07200
C 	C 	0.64794 0.79000 0.20140 0.37400
C 	C 	0.56755 0.14410 0.90005 0.01900
H 	H 	0.55080 0.18330 0.88620 0.04600
C 	C 	0.61731 0.02650 0.93938 -0.09000
H 	H 	0.63400 0.98670 0.95210 0.06300
C 	C 	0.42375 0.89300 0.92658 0.04200
C 	C 	0.56911 0.87678 0.81991 0.03400
C 	C 	0.22512 0.00560 0.09315 -0.07400
H 	H 	0.22590 0.03300 0.06740 0.05500
C 	C 	0.20994 0.83514 0.03439 -0.19600
H 	H 	0.20890 0.80800 0.06010 0.10900
C 	C 	0.40255 0.90247 0.87782 -0.11100
H 	H 	0.42080 0.91650 0.85870 0.06700
C 	C 	0.47815 0.73790 0.81856 0.04300
C 	C 	0.42670 0.73238 0.81400 0.04500
C 	C 	0.49970 0.80208 0.81979 -0.10700
H 	H 	0.48240 0.84210 0.82030 0.06700
C 	C 	0.36195 0.67404 0.83109 0.04400
H 	H 	0.35110 0.64020 0.84770 0.02800
C 	C 	0.22420 0.93840 0.08667 -0.10200
H 	H 	0.22660 0.91010 0.11290 0.07500
C 	C 	0.22507 0.04180 0.13680 0.12600
C 	C 	0.49991 0.87350 0.99051 -0.11300
H 	H 	0.48520 0.83880 0.00290 0.07100
C 	C 	0.57187 0.74701 0.81979 -0.11000
H 	H 	0.60300 0.74980 0.81950 0.06900
C 	C 	0.57249 0.86220 0.06131 0.04200
C 	C 	0.39533 0.87220 0.95424 -0.11300
H 	H 	0.40860 0.86710 0.98690 0.07500
C 	C 	0.62161 0.81380 0.15196 -0.11100
C 	C 	0.54703 0.80758 0.82033 0.04500
C 	C 	0.54212 0.93620 0.80640 -0.09800
H 	H 	0.50950 0.93310 0.79910 0.06400
C 	C 	0.49776 0.95650 0.92929 -0.11600
H 	H 	0.48140 0.97830 0.90110 0.07100
C 	C 	0.22053 0.14920 0.17652 0.10400
H 	H 	0.22020 0.19740 0.17590 -0.00100
C 	C 	0.57005 0.79290 0.07303 -0.10900
H 	H 	0.55150 0.76250 0.05070 0.07000
C 	C 	0.22461 0.00922 0.17889 -0.17800
H 	H 	0.22690 0.96130 0.18140 0.10400
C 	C 	0.56244 0.99960 0.80343 0.02400
H 	H 	0.54340 0.03860 0.79450 0.04100
C 	C 	0.56848 0.94100 0.99367 -0.11500
H 	H 	0.59970 0.95260 0.00890 0.07200
C 	C 	0.54405 0.08850 0.91232 -0.09500
H 	H 	0.51160 0.09070 0.90670 0.06800
C 	C 	0.40971 0.68130 0.83764 -0.11500
H 	H 	0.43080 0.65150 0.85820 0.07200
C 	C 	0.56873 0.02930 0.93298 0.02900
C 	C 	0.54631 0.89080 0.01386 0.04600
C 	C 	0.22354 0.94070 0.00104 -0.19300
H 	H 	0.23210 0.98720 0.00390 0.09800
C 	C 	0.22081 0.04797 0.21656 0.10900
H 	H 	0.22050 0.02500 0.24420 -0.00200
C 	C 	0.60086 0.60630 0.78466 -0.12900
H 	H 	0.60140 0.64130 0.76320 0.08200
C 	C 	0.54480 0.97390 0.95126 0.05300
C 	C 	0.60260 0.50360 0.85000 0.05700
H 	H 	0.60410 0.46990 0.87300 0.02600
C 	C 	0.59934 0.90650 0.09577 -0.11300
H 	H 	0.60120 0.95310 0.08840 0.07300
C 	C 	0.57799 0.61706 0.81831 0.05900
C 	C 	0.62338 0.88340 0.14081 0.04100
H 	H 	0.64070 0.91430 0.16360 0.03400
C 	C 	0.21502 0.90810 0.95819 0.11500
H 	H 	0.21770 0.93370 0.93240 -0.00900
C 	C 	0.62442 0.49263 0.81497 -0.12900
C 	C 	0.59516 0.76840 0.11792 0.03900
H 	H 	0.59420 0.72170 0.12510 0.03400
C 	C 	0.61781 0.88430 0.83190 -0.09900
H 	H 	0.63700 0.84580 0.84220 0.06300
C 	C 	0.63835 0.94770 0.82887 0.02400
H 	H 	0.67100 0.95110 0.83720 0.03900
C 	C 	0.62318 0.54380 0.78224 0.06300
H 	H 	0.63730 0.53660 0.75840 0.02300
C 	C 	0.57840 0.56480 0.85050 -0.12300
H 	H 	0.56230 0.57090 0.87290 0.07500
C 	C 	0.22412 0.11410 0.13662 -0.17600
H 	H 	0.22590 0.13850 0.11000 0.09100
Co	Co	0.20092 0.82542 0.76970 1.17600
Co	Co	0.18894 0.80093 0.88114 1.18100
Co	Co	0.19283 0.66786 0.79956 1.17600
N 	N 	0.20301 0.84152 0.95130 -0.23700
N 	N 	0.21756 0.11747 0.21575 -0.22900
O 	O 	0.64772 0.72691 0.21160 -0.39500
O 	O 	0.66839 0.83754 0.22922 -0.43700
O 	O 	0.25145 0.75297 0.76309 -0.44500
O 	O 	0.26324 0.66728 0.81601 -0.44800
O 	O 	0.65564 0.40561 0.77626 -0.41000
O 	O 	0.66284 0.39453 0.85416 -0.44000
O 	O 	0.25619 0.87124 0.82174 -0.43200
O 	O 	0.25801 0.81263 0.88807 -0.45400
O 	O 	0.17484 0.76182 0.81260 -0.58800
O 	O 	0.68593 0.19790 0.90485 -0.40300
O 	O 	0.62067 0.25781 0.88241 -0.34900
O 	O 	0.67763 0.07671 0.82159 -0.41700
O 	O 	0.60845 0.12481 0.79186 -0.30600
C 	C 	0.77789 0.21228 0.79223 0.36300
C 	C 	0.13308 0.57376 0.80891 0.32400
C 	C 	0.89464 0.27690 0.78304 -0.11700
H 	H 	0.90560 0.31190 0.76740 0.07200
C 	C 	0.77614 0.35012 0.86293 0.37900
C 	C 	0.70185 0.30576 0.98980 0.11700
H 	H 	0.69530 0.25860 0.98640 -0.00700
C 	C 	0.82977 0.21755 0.79942 -0.12000
C 	C 	0.11592 0.64136 0.90837 -0.08300
C 	C 	0.11120 0.50586 0.81375 -0.09300
C 	C 	0.14204 0.70172 0.89748 0.29800
C 	C 	0.97498 0.40710 0.94889 0.04900
C 	C 	0.14063 0.58140 0.92723 0.01600
H 	H 	0.17290 0.57870 0.93160 0.04300
C 	C 	0.05155 0.18210 0.81970 0.04000
C 	C 	0.84781 0.35890 0.93396 0.04500
H 	H 	0.82960 0.34390 0.95290 0.02900
C 	C 	0.85457 0.39119 0.85749 0.04400
H 	H 	0.84080 0.39930 0.82520 0.02800
C 	C 	0.71955 0.40462 0.04039 0.14900
C 	C 	0.14971 0.92535 0.81489 0.39300
C 	C 	0.82721 0.36795 0.88517 -0.12100
C 	C 	0.84667 0.26903 0.77565 0.04200
H 	H 	0.82560 0.29830 0.75470 0.02800
C 	C 	0.00428 0.17840 0.81917 -0.11000
H 	H 	0.99030 0.13540 0.81920 0.07200
C 	C 	0.14794 0.29000 0.20140 0.37400
C 	C 	0.06755 0.64410 0.90005 0.01900
H 	H 	0.05080 0.68330 0.88620 0.04600
C 	C 	0.11731 0.52650 0.93938 -0.08900
H 	H 	0.13400 0.48670 0.95210 0.06200
C 	C 	0.92375 0.39300 0.92658 0.04200
C 	C 	0.06911 0.37678 0.81991 0.03300
C 	C 	0.72512 0.50560 0.09315 -0.07400
H 	H 	0.72590 0.53300 0.06740 0.05500
C 	C 	0.70994 0.33514 0.03439 -0.19500
H 	H 	0.70890 0.30800 0.06010 0.10900
C 	C 	0.90255 0.40247 0.87782 -0.11000
H 	H 	0.92080 0.41650 0.85870 0.06700
C 	C 	0.97815 0.23790 0.81856 0.04400
C 	C 	0.92670 0.23238 0.81400 0.04500
C 	C 	0.99970 0.30208 0.81979 -0.10800
H 	H 	0.98240 0.34210 0.82030 0.06700
C 	C 	0.86195 0.17404 0.83109 0.04400
H 	H 	0.85110 0.14020 0.84770 0.02800
C 	C 	0.72420 0.43840 0.08667 -0.10100
H 	H 	0.72660 0.41010 0.11290 0.07400
C 	C 	0.72507 0.54180 0.13680 0.12600
C 	C 	0.99991 0.37350 0.99051 -0.11500
H 	H 	0.98520 0.33880 0.00290 0.07200
C 	C 	0.07187 0.24701 0.81979 -0.11000
H 	H 	0.10300 0.24980 0.81950 0.06900
C 	C 	0.07249 0.36220 0.06131 0.04100
C 	C 	0.89533 0.37220 0.95424 -0.11300
H 	H 	0.90860 0.36710 0.98690 0.07500
C 	C 	0.12161 0.31380 0.15196 -0.11100
C 	C 	0.04703 0.30758 0.82033 0.04500
C 	C 	0.04212 0.43620 0.80640 -0.09800
H 	H 	0.00950 0.43310 0.79910 0.06400
C 	C 	0.99776 0.45650 0.92929 -0.11700
H 	H 	0.98140 0.47830 0.90110 0.07100
C 	C 	0.72053 0.64920 0.17652 0.10400
H 	H 	0.72020 0.69740 0.17590 -0.00100
C 	C 	0.07005 0.29290 0.07303 -0.10800
H 	H 	0.05150 0.26250 0.05070 0.07000
C 	C 	0.72461 0.50922 0.17889 -0.17900
H 	H 	0.72690 0.46130 0.18140 0.10500
C 	C 	0.06244 0.49960 0.80343 0.02300
H 	H 	0.04340 0.53860 0.79450 0.04100
C 	C 	0.06848 0.44100 0.99367 -0.11700
H 	H 	0.09970 0.45260 0.00890 0.07300
C 	C 	0.04405 0.58850 0.91232 -0.09400
H 	H 	0.01160 0.59070 0.90670 0.06800
C 	C 	0.90971 0.18130 0.83764 -0.11500
H 	H 	0.93080 0.15150 0.85820 0.07200
C 	C 	0.06873 0.52930 0.93298 0.02900
C 	C 	0.04631 0.39080 0.01386 0.04800
C 	C 	0.72354 0.44070 0.00104 -0.19200
H 	H 	0.73210 0.48720 0.00390 0.09800
C 	C 	0.72081 0.54797 0.21656 0.11000
H 	H 	0.72050 0.52500 0.24420 -0.00200
C 	C 	0.10086 0.10630 0.78466 -0.12800
H 	H 	0.10140 0.14130 0.76320 0.08200
C 	C 	0.04480 0.47390 0.95126 0.05400
C 	C 	0.10260 0.00360 0.85000 0.05600
H 	H 	0.10410 0.96990 0.87300 0.02700
C 	C 	0.09934 0.40650 0.09577 -0.11200
H 	H 	0.10120 0.45310 0.08840 0.07300
C 	C 	0.07799 0.11706 0.81831 0.05800
C 	C 	0.12338 0.38340 0.14081 0.04100
H 	H 	0.14070 0.41430 0.16360 0.03500
C 	C 	0.71502 0.40810 0.95819 0.11500
H 	H 	0.71770 0.43370 0.93240 -0.00900
C 	C 	0.12442 0.99263 0.81497 -0.12900
C 	C 	0.09516 0.26840 0.11792 0.03900
H 	H 	0.09420 0.22170 0.12510 0.03400
C 	C 	0.11781 0.38430 0.83190 -0.09900
H 	H 	0.13700 0.34580 0.84220 0.06300
C 	C 	0.13835 0.44770 0.82887 0.02400
H 	H 	0.17100 0.45110 0.83720 0.03900
C 	C 	0.12318 0.04380 0.78224 0.06200
H 	H 	0.13730 0.03660 0.75840 0.02300
C 	C 	0.07840 0.06480 0.85050 -0.12300
H 	H 	0.06230 0.07090 0.87290 0.07500
C 	C 	0.72412 0.61410 0.13662 -0.17600
H 	H 	0.72590 0.63850 0.11000 0.09100
Co	Co	0.70092 0.32542 0.76970 1.17600
Co	Co	0.68894 0.30093 0.88114 1.18100
Co	Co	0.69283 0.16786 0.79956 1.17600
N 	N 	0.70301 0.34152 0.95130 -0.23700
N 	N 	0.71756 0.61747 0.21575 -0.22900
O 	O 	0.14772 0.22691 0.21160 -0.39500
O 	O 	0.16839 0.33754 0.22922 -0.43700
O 	O 	0.75145 0.25297 0.76309 -0.44500
O 	O 	0.76324 0.16728 0.81601 -0.44800
O 	O 	0.15564 0.90561 0.77626 -0.40900
O 	O 	0.16284 0.89453 0.85416 -0.43900
O 	O 	0.75619 0.37124 0.82174 -0.43200
O 	O 	0.75801 0.31263 0.88807 -0.45400
O 	O 	0.67484 0.26182 0.81260 -0.58800
O 	O 	0.18593 0.69790 0.90485 -0.40300
O 	O 	0.12067 0.75781 0.88241 -0.34900
O 	O 	0.17763 0.57671 0.82159 -0.41700
O 	O 	0.10845 0.62481 0.79186 -0.30600
C 	C 	0.72211 0.28772 0.20777 0.36300
C 	C 	0.36692 0.92624 0.19109 0.32400
C 	C 	0.60536 0.22310 0.21696 -0.11700
H 	H 	0.59440 0.18810 0.23260 0.07200
C 	C 	0.72386 0.14988 0.13707 0.37900
C 	C 	0.79815 0.19424 0.01020 0.11800
H 	H 	0.80470 0.24140 0.01360 -0.00700
C 	C 	0.67023 0.28245 0.20058 -0.12000
C 	C 	0.38408 0.85864 0.09163 -0.08300
C 	C 	0.38880 0.99414 0.18625 -0.09400
C 	C 	0.35796 0.79828 0.10252 0.29800
C 	C 	0.52502 0.09290 0.05111 0.04800
C 	C 	0.35937 0.91860 0.07277 0.01600
H 	H 	0.32710 0.92130 0.06840 0.04300
C 	C 	0.44845 0.31790 0.18030 0.03900
C 	C 	0.65219 0.14110 0.06604 0.04500
H 	H 	0.67040 0.15610 0.04710 0.02900
C 	C 	0.64543 0.10881 0.14251 0.04400
H 	H 	0.65920 0.10070 0.17480 0.02800
C 	C 	0.78045 0.09538 0.95961 0.14900
C 	C 	0.35029 0.57465 0.18511 0.39300
C 	C 	0.67279 0.13205 0.11483 -0.12100
C 	C 	0.65333 0.23097 0.22435 0.04200
H 	H 	0.67440 0.20170 0.24530 0.02800
C 	C 	0.49572 0.32160 0.18083 -0.10900
H 	H 	0.50970 0.36460 0.18080 0.07200
C 	C 	0.35206 0.21000 0.79860 0.37400
C 	C 	0.43245 0.85590 0.09995 0.01900
H 	H 	0.44920 0.81670 0.11380 0.04600
C 	C 	0.38269 0.97350 0.06062 -0.09000
H 	H 	0.36600 0.01330 0.04790 0.06300
C 	C 	0.57625 0.10700 0.07342 0.04200
C 	C 	0.43089 0.12322 0.18009 0.03400
C 	C 	0.77488 0.99440 0.90685 -0.07400
H 	H 	0.77410 0.96700 0.93260 0.05500
C 	C 	0.79006 0.16486 0.96561 -0.19600
H 	H 	0.79110 0.19200 0.93990 0.10900
C 	C 	0.59745 0.09753 0.12218 -0.11100
H 	H 	0.57920 0.08350 0.14130 0.06700
C 	C 	0.52185 0.26210 0.18144 0.04300
C 	C 	0.57330 0.26762 0.18600 0.04500
C 	C 	0.50030 0.19792 0.18021 -0.10700
H 	H 	0.51760 0.15790 0.17970 0.06700
C 	C 	0.63805 0.32596 0.16891 0.04400
H 	H 	0.64890 0.35980 0.15230 0.02800
C 	C 	0.77580 0.06160 0.91333 -0.10200
H 	H 	0.77340 0.08990 0.88710 0.07500
C 	C 	0.77493 0.95820 0.86320 0.12600
C 	C 	0.50009 0.12650 0.00949 -0.11300
H 	H 	0.51480 0.16120 0.99710 0.07100
C 	C 	0.42813 0.25299 0.18021 -0.11000
H 	H 	0.39700 0.25020 0.18050 0.06900
C 	C 	0.42751 0.13780 0.93869 0.04200
C 	C 	0.60467 0.12780 0.04576 -0.11300
H 	H 	0.59140 0.13290 0.01310 0.07500
C 	C 	0.37839 0.18620 0.84804 -0.11100
C 	C 	0.45297 0.19242 0.17967 0.04500
C 	C 	0.45788 0.06380 0.19360 -0.09800
H 	H 	0.49050 0.06690 0.20090 0.06400
C 	C 	0.50224 0.04350 0.07071 -0.11600
H 	H 	0.51860 0.02170 0.09890 0.07100
C 	C 	0.77947 0.85080 0.82348 0.10400
H 	H 	0.77980 0.80260 0.82410 -0.00100
C 	C 	0.42995 0.20710 0.92697 -0.10900
H 	H 	0.44850 0.23750 0.94930 0.07000
C 	C 	0.77539 0.99078 0.82111 -0.17800
H 	H 	0.77310 0.03870 0.81860 0.10400
C 	C 	0.43756 0.00040 0.19657 0.02400
H 	H 	0.45660 0.96140 0.20550 0.04100
C 	C 	0.43152 0.05900 0.00633 -0.11500
H 	H 	0.40030 0.04740 0.99110 0.07200
C 	C 	0.45595 0.91150 0.08768 -0.09500
H 	H 	0.48840 0.90930 0.09330 0.06800
C 	C 	0.59029 0.31870 0.16236 -0.11500
H 	H 	0.56920 0.34850 0.14180 0.07200
C 	C 	0.43127 0.97070 0.06702 0.02900
C 	C 	0.45369 0.10920 0.98614 0.04600
C 	C 	0.77646 0.05930 0.99896 -0.19300
H 	H 	0.76790 0.01280 0.99610 0.09800
C 	C 	0.77919 0.95203 0.78344 0.10900
H 	H 	0.77950 0.97500 0.75580 -0.00200
C 	C 	0.39914 0.39370 0.21534 -0.12900
H 	H 	0.39860 0.35870 0.23680 0.08200
C 	C 	0.45520 0.02610 0.04874 0.05300
C 	C 	0.39740 0.49640 0.15000 0.05700
H 	H 	0.39590 0.53010 0.12700 0.02600
C 	C 	0.40066 0.09350 0.90423 -0.11300
H 	H 	0.39880 0.04690 0.91160 0.07300
C 	C 	0.42201 0.38294 0.18169 0.05900
C 	C 	0.37662 0.11660 0.85919 0.04100
H 	H 	0.35930 0.08570 0.83640 0.03400
C 	C 	0.78498 0.09190 0.04181 0.11500
H 	H 	0.78230 0.06630 0.06760 -0.00900
C 	C 	0.37558 0.50737 0.18503 -0.12900
C 	C 	0.40484 0.23160 0.88208 0.03900
H 	H 	0.40580 0.27830 0.87490 0.03400
C 	C 	0.38219 0.11570 0.16810 -0.09900
H 	H 	0.36300 0.15420 0.15780 0.06300
C 	C 	0.36165 0.05230 0.17113 0.02400
H 	H 	0.32900 0.04890 0.16280 0.03900
C 	C 	0.37682 0.45620 0.21776 0.06300
H 	H 	0.36270 0.46340 0.24160 0.02300
C 	C 	0.42160 0.43520 0.14950 -0.12300
H 	H 	0.43770 0.42910 0.12710 0.07500
C 	C 	0.77588 0.88590 0.86338 -0.17600
H 	H 	0.77410 0.86150 0.89000 0.09100
Co	Co	0.79908 0.17458 0.23030 1.17600
Co	Co	0.81106 0.19907 0.11886 1.18100
Co	Co	0.80717 0.33214 0.20044 1.17600
N 	N 	0.79699 0.15848 0.04870 -0.23700
N 	N 	0.78244 0.88253 0.78425 -0.22900
O 	O 	0.35228 0.27309 0.78840 -0.39500
O 	O 	0.33161 0.16246 0.77078 -0.43700
O 	O 	0.74855 0.24703 0.23691 -0.44500
O 	O 	0.73676 0.33272 0.18399 -0.44800
O 	O 	0.34436 0.59439 0.22374 -0.41000
O 	O 	0.33716 0.60547 0.14584 -0.44000
O 	O 	0.74381 0.12876 0.17826 -0.43200
O 	O 	0.74199 0.18737 0.11193 -0.45400
O 	O 	0.82516 0.23818 0.18740 -0.58800
O 	O 	0.31407 0.80210 0.09515 -0.40300
O 	O 	0.37933 0.74219 0.11759 -0.34900
O 	O 	0.32237 0.92329 0.17841 -0.41700
O 	O 	0.39155 0.87519 0.20814 -0.30600
C 	C 	0.22211 0.78772 0.20777 0.36300
C 	C 	0.86692 0.42624 0.19109 0.32400
C 	C 	0.10536 0.72310 0.21696 -0.11700
H 	H 	0.09440 0.68810 0.23260 0.07200
C 	C 	0.22386 0.64988 0.13707 0.37900
C 	C 	0.29815 0.69424 0.01020 0.11700
H 	H 	0.30470 0.74140 0.01360 -0.00700
C 	C 	0.17023 0.78245 0.20058 -0.12000
C 	C 	0.88408 0.35864 0.09163 -0.08300
C 	C 	0.88880 0.49414 0.18625 -0.09300
C 	C 	0.85796 0.29828 0.10252 0.29800
C 	C 	0.02502 0.59290 0.05111 0.04900
C 	C 	0.85937 0.41860 0.07277 0.01600
H 	H 	0.82710 0.42130 0.06840 0.04300
C 	C 	0.94845 0.81790 0.18030 0.04000
C 	C 	0.15219 0.64110 0.06604 0.04500
H 	H 	0.17040 0.65610 0.04710 0.02900
C 	C 	0.14543 0.60881 0.14251 0.04400
H 	H 	0.15920 0.60070 0.17480 0.02800
C 	C 	0.28045 0.59538 0.95961 0.14900
C 	C 	0.85029 0.07465 0.18511 0.39300
C 	C 	0.17279 0.63205 0.11483 -0.12100
C 	C 	0.15333 0.73097 0.22435 0.04200
H 	H 	0.17440 0.70170 0.24530 0.02800
C 	C 	0.99572 0.82160 0.18083 -0.11000
H 	H 	0.00970 0.86460 0.18080 0.07200
C 	C 	0.85206 0.71000 0.79860 0.37400
C 	C 	0.93245 0.35590 0.09995 0.01900
H 	H 	0.94920 0.31670 0.11380 0.04600
C 	C 	0.88269 0.47350 0.06062 -0.08900
H 	H 	0.86600 0.51330 0.04790 0.06200
C 	C 	0.07625 0.60700 0.07342 0.04200
C 	C 	0.93089 0.62322 0.18009 0.03300
C 	C 	0.27488 0.49440 0.90685 -0.07400
H 	H 	0.27410 0.46700 0.93260 0.05500
C 	C 	0.29006 0.66486 0.96561 -0.19500
H 	H 	0.29110 0.69200 0.93990 0.10900
C 	C 	0.09745 0.59753 0.12218 -0.11000
H 	H 	0.07920 0.58350 0.14130 0.06700
C 	C 	0.02185 0.76210 0.18144 0.04400
C 	C 	0.07330 0.76762 0.18600 0.04500
C 	C 	0.00030 0.69792 0.18021 -0.10800
H 	H 	0.01760 0.65790 0.17970 0.06700
C 	C 	0.13805 0.82596 0.16891 0.04400
H 	H 	0.14890 0.85980 0.15230 0.02800
C 	C 	0.27580 0.56160 0.91333 -0.10100
H 	H 	0.27340 0.58990 0.88710 0.07400
C 	C 	0.27493 0.45820 0.86320 0.12600
C 	C 	0.00009 0.62650 0.00949 -0.11500
H 	H 	0.01480 0.66120 0.99710 0.07200
C 	C 	0.92813 0.75299 0.18021 -0.11000
H 	H 	0.89700 0.75020 0.18050 0.06900
C 	C 	0.92751 0.63780 0.93869 0.04100
C 	C 	0.10467 0.62780 0.04576 -0.11300
H 	H 	0.09140 0.63290 0.01310 0.07500
C 	C 	0.87839 0.68620 0.84804 -0.11100
C 	C 	0.95297 0.69242 0.17967 0.04500
C 	C 	0.95788 0.56380 0.19360 -0.09800
H 	H 	0.99050 0.56690 0.20090 0.06400
C 	C 	0.00224 0.54350 0.07071 -0.11700
H 	H 	0.01860 0.52170 0.09890 0.07100
C 	C 	0.27947 0.35080 0.82348 0.10400
H 	H 	0.27980 0.30260 0.82410 -0.00100
C 	C 	0.92995 0.70710 0.92697 -0.10800
H 	H 	0.94850 0.73750 0.94930 0.07000
C 	C 	0.27539 0.49078 0.82111 -0.17900
H 	H 	0.27310 0.53870 0.81860 0.10500
C 	C 	0.93756 0.50040 0.19657 0.02300
H 	H 	0.95660 0.46140 0.20550 0.04100
C 	C 	0.93152 0.55900 0.00633 -0.11700
H 	H 	0.90030 0.54740 0.99110 0.07300
C 	C 	0.95595 0.41150 0.08768 -0.09400
H 	H 	0.98840 0.40930 0.09330 0.06800
C 	C 	0.09029 0.81870 0.16236 -0.11500
H 	H 	0.06920 0.84850 0.14180 0.07200
C 	C 	0.93127 0.47070 0.06702 0.02900
C 	C 	0.95369 0.60920 0.98614 0.04800
C 	C 	0.27646 0.55930 0.99896 -0.19200
H 	H 	0.26790 0.51280 0.99610 0.09800
C 	C 	0.27919 0.45203 0.78344 0.11000
H 	H 	0.27950 0.47500 0.75580 -0.00200
C 	C 	0.89914 0.89370 0.21534 -0.12800
H 	H 	0.89860 0.85870 0.23680 0.08200
C 	C 	0.95520 0.52610 0.04874 0.05400
C 	C 	0.89740 0.99640 0.15000 0.05600
H 	H 	0.89590 0.03010 0.12700 0.02700
C 	C 	0.90066 0.59350 0.90423 -0.11200
H 	H 	0.89880 0.54690 0.91160 0.07300
C 	C 	0.92201 0.88294 0.18169 0.05800
C 	C 	0.87662 0.61660 0.85919 0.04100
H 	H 	0.85930 0.58570 0.83640 0.03500
C 	C 	0.28498 0.59190 0.04181 0.11500
H 	H 	0.28230 0.56630 0.06760 -0.00900
C 	C 	0.87558 0.00737 0.18503 -0.12900
C 	C 	0.90484 0.73160 0.88208 0.03900
H 	H 	0.90580 0.77830 0.87490 0.03400
C 	C 	0.88219 0.61570 0.16810 -0.09900
H 	H 	0.86300 0.65420 0.15780 0.06300
C 	C 	0.86165 0.55230 0.17113 0.02400
H 	H 	0.82900 0.54890 0.16280 0.03900
C 	C 	0.87682 0.95620 0.21776 0.06200
H 	H 	0.86270 0.96340 0.24160 0.02300
C 	C 	0.92160 0.93520 0.14950 -0.12300
H 	H 	0.93770 0.92910 0.12710 0.07500
C 	C 	0.27588 0.38590 0.86338 -0.17600
H 	H 	0.27410 0.36150 0.89000 0.09100
Co	Co	0.29908 0.67458 0.23030 1.17600
Co	Co	0.31106 0.69907 0.11886 1.18100
Co	Co	0.30717 0.83214 0.20044 1.17600
N 	N 	0.29699 0.65848 0.04870 -0.23700
N 	N 	0.28244 0.38253 0.78425 -0.22900
O 	O 	0.85228 0.77309 0.78840 -0.39500
O 	O 	0.83161 0.66246 0.77078 -0.43700
O 	O 	0.24855 0.74703 0.23691 -0.44500
O 	O 	0.23676 0.83272 0.18399 -0.44800
O 	O 	0.84436 0.09439 0.22374 -0.40900
O 	O 	0.83716 0.10547 0.14584 -0.43900
O 	O 	0.24381 0.62876 0.17826 -0.43200
O 	O 	0.24199 0.68737 0.11193 -0.45400
O 	O 	0.32516 0.73818 0.18740 -0.58800
O 	O 	0.81407 0.30210 0.09515 -0.40300
O 	O 	0.87933 0.24219 0.11759 -0.34900
O 	O 	0.82237 0.42329 0.17841 -0.41700
O 	O 	0.89155 0.37519 0.20814 -0.30600
C 	C 	0.72211 0.71228 0.70777 0.36300
C 	C 	0.36692 0.07376 0.69109 0.32400
C 	C 	0.60536 0.77690 0.71696 -0.11700
H 	H 	0.59440 0.81190 0.73260 0.07200
C 	C 	0.72386 0.85012 0.63707 0.37900
C 	C 	0.79815 0.80576 0.51020 0.11700
H 	H 	0.80470 0.75860 0.51360 -0.00700
C 	C 	0.67023 0.71755 0.70058 -0.12000
C 	C 	0.38408 0.14136 0.59163 -0.08300
C 	C 	0.38880 0.00586 0.68625 -0.09400
C 	C 	0.35796 0.20172 0.60252 0.29800
C 	C 	0.52502 0.90710 0.55111 0.04900
C 	C 	0.35937 0.08140 0.57277 0.01600
H 	H 	0.32710 0.07870 0.56840 0.04300
C 	C 	0.44845 0.68210 0.68030 0.04000
C 	C 	0.65219 0.85890 0.56604 0.04500
H 	H 	0.67040 0.84390 0.54710 0.02900
C 	C 	0.64543 0.89119 0.64251 0.04400
H 	H 	0.65920 0.89930 0.67480 0.02800
C 	C 	0.78045 0.90462 0.45961 0.14900
C 	C 	0.35029 0.42535 0.68511 0.39300
C 	C 	0.67279 0.86795 0.61483 -0.12100
C 	C 	0.65333 0.76903 0.72435 0.04200
H 	H 	0.67440 0.79830 0.74530 0.02800
C 	C 	0.49572 0.67840 0.68083 -0.10900
H 	H 	0.50970 0.63540 0.68080 0.07200
C 	C 	0.35206 0.79000 0.29860 0.37400
C 	C 	0.43245 0.14410 0.59995 0.01900
H 	H 	0.44920 0.18330 0.61380 0.04600
C 	C 	0.38269 0.02650 0.56062 -0.08900
H 	H 	0.36600 0.98670 0.54790 0.06200
C 	C 	0.57625 0.89300 0.57342 0.04200
C 	C 	0.43089 0.87678 0.68009 0.03400
C 	C 	0.77488 0.00560 0.40685 -0.07400
H 	H 	0.77410 0.03300 0.43260 0.05500
C 	C 	0.79006 0.83514 0.46561 -0.19600
H 	H 	0.79110 0.80800 0.43990 0.10900
C 	C 	0.59745 0.90247 0.62218 -0.11000
H 	H 	0.57920 0.91650 0.64130 0.06700
C 	C 	0.52185 0.73790 0.68144 0.04300
C 	C 	0.57330 0.73238 0.68600 0.04500
C 	C 	0.50030 0.80208 0.68021 -0.10700
H 	H 	0.51760 0.84210 0.67970 0.06700
C 	C 	0.63805 0.67404 0.66891 0.04400
H 	H 	0.64890 0.64020 0.65230 0.02800
C 	C 	0.77580 0.93840 0.41333 -0.10200
H 	H 	0.77340 0.91010 0.38710 0.07500
C 	C 	0.77493 0.04180 0.36320 0.12600
C 	C 	0.50009 0.87350 0.50949 -0.11500
H 	H 	0.51480 0.83880 0.49710 0.07200
C 	C 	0.42813 0.74701 0.68021 -0.11000
H 	H 	0.39700 0.74980 0.68050 0.06900
C 	C 	0.42751 0.86220 0.43869 0.04100
C 	C 	0.60467 0.87220 0.54576 -0.11300
H 	H 	0.59140 0.86710 0.51310 0.07500
C 	C 	0.37839 0.81380 0.34804 -0.11100
C 	C 	0.45297 0.80758 0.67967 0.04500
C 	C 	0.45788 0.93620 0.69360 -0.09800
H 	H 	0.49050 0.93310 0.70090 0.06400
C 	C 	0.50224 0.95650 0.57071 -0.11600
H 	H 	0.51860 0.97830 0.59890 0.07100
C 	C 	0.77947 0.14920 0.32348 0.10400
H 	H 	0.77980 0.19740 0.32410 -0.00100
C 	C 	0.42995 0.79290 0.42697 -0.10800
H 	H 	0.44850 0.76250 0.44930 0.07000
C 	C 	0.77539 0.00922 0.32111 -0.17800
H 	H 	0.77310 0.96130 0.31860 0.10400
C 	C 	0.43756 0.99960 0.69657 0.02300
H 	H 	0.45660 0.03860 0.70550 0.04100
C 	C 	0.43152 0.94100 0.50633 -0.11600
H 	H 	0.40030 0.95260 0.49110 0.07300
C 	C 	0.45595 0.08850 0.58768 -0.09400
H 	H 	0.48840 0.09070 0.59330 0.06800
C 	C 	0.59029 0.68130 0.66236 -0.11500
H 	H 	0.56920 0.65150 0.64180 0.07200
C 	C 	0.43127 0.02930 0.56702 0.02900
C 	C 	0.45369 0.89080 0.48614 0.04700
C 	C 	0.77646 0.94070 0.49896 -0.19200
H 	H 	0.76790 0.98720 0.49610 0.09800
C 	C 	0.77919 0.04797 0.28344 0.10900
H 	H 	0.77950 0.02500 0.25580 -0.00200
C 	C 	0.39914 0.60630 0.71534 -0.12900
H 	H 	0.39860 0.64130 0.73680 0.08200
C 	C 	0.45520 0.97390 0.54874 0.05400
C 	C 	0.39740 0.50360 0.65000 0.05700
H 	H 	0.39590 0.46990 0.62700 0.02600
C 	C 	0.40066 0.90650 0.40423 -0.11200
H 	H 	0.39880 0.95310 0.41160 0.07300
C 	C 	0.42201 0.61706 0.68169 0.05900
C 	C 	0.37662 0.88340 0.35919 0.04100
H 	H 	0.35930 0.91430 0.33640 0.03500
C 	C 	0.78498 0.90810 0.54181 0.11500
H 	H 	0.78230 0.93370 0.56760 -0.00900
C 	C 	0.37558 0.49263 0.68503 -0.12900
C 	C 	0.40484 0.76840 0.38208 0.03900
H 	H 	0.40580 0.72170 0.37490 0.03400
C 	C 	0.38219 0.88430 0.66810 -0.09900
H 	H 	0.36300 0.84580 0.65780 0.06300
C 	C 	0.36165 0.94770 0.67113 0.02400
H 	H 	0.32900 0.95110 0.66280 0.03900
C 	C 	0.37682 0.54380 0.71776 0.06300
H 	H 	0.36270 0.53660 0.74160 0.02300
C 	C 	0.42160 0.56480 0.64950 -0.12300
H 	H 	0.43770 0.57090 0.62710 0.07500
C 	C 	0.77588 0.11410 0.36338 -0.17600
H 	H 	0.77410 0.13850 0.39000 0.09100
Co	Co	0.79908 0.82542 0.73030 1.17600
Co	Co	0.81106 0.80093 0.61886 1.18100
Co	Co	0.80717 0.66786 0.70044 1.17600
N 	N 	0.79699 0.84152 0.54870 -0.23700
N 	N 	0.78244 0.11747 0.28425 -0.22900
O 	O 	0.35228 0.72691 0.28840 -0.39500
O 	O 	0.33161 0.83754 0.27078 -0.43700
O 	O 	0.74855 0.75297 0.73691 -0.44500
O 	O 	0.73676 0.66728 0.68399 -0.44800
O 	O 	0.34436 0.40561 0.72374 -0.41000
O 	O 	0.33716 0.39453 0.64584 -0.44000
O 	O 	0.74381 0.87124 0.67826 -0.43200
O 	O 	0.74199 0.81263 0.61193 -0.45400
O 	O 	0.82516 0.76182 0.68740 -0.58800
O 	O 	0.31407 0.19790 0.59515 -0.40300
O 	O 	0.37933 0.25781 0.61759 -0.34900
O 	O 	0.32237 0.07671 0.67841 -0.41700
O 	O 	0.39155 0.12481 0.70814 -0.30600
C 	C 	0.22211 0.21228 0.70777 0.36300
C 	C 	0.86692 0.57376 0.69109 0.32400
C 	C 	0.10536 0.27690 0.71696 -0.11700
H 	H 	0.09440 0.31190 0.73260 0.07200
C 	C 	0.22386 0.35012 0.63707 0.37900
C 	C 	0.29815 0.30576 0.51020 0.11700
H 	H 	0.30470 0.25860 0.51360 -0.00700
C 	C 	0.17023 0.21755 0.70058 -0.12000
C 	C 	0.88408 0.64136 0.59163 -0.08300
C 	C 	0.88880 0.50586 0.68625 -0.09300
C 	C 	0.85796 0.70172 0.60252 0.29800
C 	C 	0.02502 0.40710 0.55111 0.04900
C 	C 	0.85937 0.58140 0.57277 0.01600
H 	H 	0.82710 0.57870 0.56840 0.04300
C 	C 	0.94845 0.18210 0.68030 0.04000
C 	C 	0.15219 0.35890 0.56604 0.04500
H 	H 	0.17040 0.34390 0.54710 0.02900
C 	C 	0.14543 0.39119 0.64251 0.04400
H 	H 	0.15920 0.39930 0.67480 0.02800
C 	C 	0.28045 0.40462 0.45961 0.14900
C 	C 	0.85029 0.92535 0.68511 0.39300
C 	C 	0.17279 0.36795 0.61483 -0.12100
C 	C 	0.15333 0.26903 0.72435 0.04200
H 	H 	0.17440 0.29830 0.74530 0.02800
C 	C 	0.99572 0.17840 0.68083 -0.11000
H 	H 	0.00970 0.13540 0.68080 0.07200
C 	C 	0.85206 0.29000 0.29860 0.37400
C 	C 	0.93245 0.64410 0.59995 0.01900
H 	H 	0.94920 0.68330 0.61380 0.04600
C 	C 	0.88269 0.52650 0.56062 -0.08900
H 	H 	0.86600 0.48670 0.54790 0.06200
C 	C 	0.07625 0.39300 0.57342 0.04200
C 	C 	0.93089 0.37678 0.68009 0.03300
C 	C 	0.27488 0.50560 0.40685 -0.07400
H 	H 	0.27410 0.53300 0.43260 0.05500
C 	C 	0.29006 0.33514 0.46561 -0.19600
H 	H 	0.29110 0.30800 0.43990 0.10900
C 	C 	0.09745 0.40247 0.62218 -0.11000
H 	H 	0.07920 0.41650 0.64130 0.06700
C 	C 	0.02185 0.23790 0.68144 0.04400
C 	C 	0.07330 0.23238 0.68600 0.04500
C 	C 	0.00030 0.30208 0.68021 -0.10800
H 	H 	0.01760 0.34210 0.67970 0.06700
C 	C 	0.13805 0.17404 0.66891 0.04400
H 	H 	0.14890 0.14020 0.65230 0.02800
C 	C 	0.27580 0.43840 0.41333 -0.10100
H 	H 	0.27340 0.41010 0.38710 0.07500
C 	C 	0.27493 0.54180 0.36320 0.12600
C 	C 	0.00009 0.37350 0.50949 -0.11500
H 	H 	0.01480 0.33880 0.49710 0.07200
C 	C 	0.92813 0.24701 0.68021 -0.11000
H 	H 	0.89700 0.24980 0.68050 0.06900
C 	C 	0.92751 0.36220 0.43869 0.04100
C 	C 	0.10467 0.37220 0.54576 -0.11300
H 	H 	0.09140 0.36710 0.51310 0.07500
C 	C 	0.87839 0.31380 0.34804 -0.11100
C 	C 	0.95297 0.30758 0.67967 0.04500
C 	C 	0.95788 0.43620 0.69360 -0.09800
H 	H 	0.99050 0.43310 0.70090 0.06400
C 	C 	0.00224 0.45650 0.57071 -0.11700
H 	H 	0.01860 0.47830 0.59890 0.07100
C 	C 	0.27947 0.64920 0.32348 0.10400
H 	H 	0.27980 0.69740 0.32410 -0.00100
C 	C 	0.92995 0.29290 0.42697 -0.10800
H 	H 	0.94850 0.26250 0.44930 0.07000
C 	C 	0.27539 0.50922 0.32111 -0.17900
H 	H 	0.27310 0.46130 0.31860 0.10500
C 	C 	0.93756 0.49960 0.69657 0.02300
H 	H 	0.95660 0.53860 0.70550 0.04100
C 	C 	0.93152 0.44100 0.50633 -0.11600
H 	H 	0.90030 0.45260 0.49110 0.07300
C 	C 	0.95595 0.58850 0.58768 -0.09400
H 	H 	0.98840 0.59070 0.59330 0.06800
C 	C 	0.09029 0.18130 0.66236 -0.11500
H 	H 	0.06920 0.15150 0.64180 0.07200
C 	C 	0.93127 0.52930 0.56702 0.02900
C 	C 	0.95369 0.39080 0.48614 0.04700
C 	C 	0.27646 0.44070 0.49896 -0.19200
H 	H 	0.26790 0.48720 0.49610 0.09800
C 	C 	0.27919 0.54797 0.28344 0.11000
H 	H 	0.27950 0.52500 0.25580 -0.00200
C 	C 	0.89914 0.10630 0.71534 -0.12900
H 	H 	0.89860 0.14130 0.73680 0.08200
C 	C 	0.95520 0.47390 0.54874 0.05400
C 	C 	0.89740 0.00360 0.65000 0.05700
H 	H 	0.89590 0.96990 0.62700 0.02700
C 	C 	0.90066 0.40650 0.40423 -0.11200
H 	H 	0.89880 0.45310 0.41160 0.07300
C 	C 	0.92201 0.11706 0.68169 0.05800
C 	C 	0.87662 0.38340 0.35919 0.04100
H 	H 	0.85930 0.41430 0.33640 0.03500
C 	C 	0.28498 0.40810 0.54181 0.11500
H 	H 	0.28230 0.43370 0.56760 -0.00900
C 	C 	0.87558 0.99263 0.68503 -0.12900
C 	C 	0.90484 0.26840 0.38208 0.03900
H 	H 	0.90580 0.22170 0.37490 0.03400
C 	C 	0.88219 0.38430 0.66810 -0.09900
H 	H 	0.86300 0.34580 0.65780 0.06300
C 	C 	0.86165 0.44770 0.67113 0.02400
H 	H 	0.82900 0.45110 0.66280 0.03900
C 	C 	0.87682 0.04380 0.71776 0.06200
H 	H 	0.86270 0.03660 0.74160 0.02300
C 	C 	0.92160 0.06480 0.64950 -0.12300
H 	H 	0.93770 0.07090 0.62710 0.07500
C 	C 	0.27588 0.61410 0.36338 -0.17600
H 	H 	0.27410 0.63850 0.39000 0.09100
Co	Co	0.29908 0.32542 0.73030 1.17600
Co	Co	0.31106 0.30093 0.61886 1.18100
Co	Co	0.30717 0.16786 0.70044 1.17600
N 	N 	0.29699 0.34152 0.54870 -0.23700
N 	N 	0.28244 0.61747 0.28425 -0.22900
O 	O 	0.85228 0.22691 0.28840 -0.39500
O 	O 	0.83161 0.33754 0.27078 -0.43700
O 	O 	0.24855 0.25297 0.73691 -0.44500
O 	O 	0.23676 0.16728 0.68399 -0.44800
O 	O 	0.84436 0.90561 0.72374 -0.41000
O 	O 	0.83716 0.89453 0.64584 -0.43900
O 	O 	0.24381 0.37124 0.67826 -0.43200
O 	O 	0.24199 0.31263 0.61193 -0.45400
O 	O 	0.32516 0.26182 0.68740 -0.58800
O 	O 	0.81407 0.69790 0.59515 -0.40300
O 	O 	0.87933 0.75781 0.61759 -0.34900
O 	O 	0.82237 0.57671 0.67841 -0.41700
O 	O 	0.89155 0.62481 0.70814 -0.30600
