data_crystal

_cell_length_a 24.61650
_cell_length_b 35.85690
_cell_length_c 30.27830
_cell_angle_alpha 90.00000
_cell_angle_beta  90.00000
_cell_angle_gamma 90.00000

_symmetry_space_group_name_	'P 1'
_symmetry_space_group_name_H-M	'P 1'

loop_
_symmetry_equiv_pos_as_xyz
  x,y,z

loop_
_atom_site_label
_atom_site_type_symbol
_atom_site_fract_x
_atom_site_fract_y
_atom_site_fract_z
_atom_site_charge
C 	C 	0.21083 0.92792 0.89910 0.40700
C 	C 	0.23253 0.96192 0.87570 -0.10900
C 	C 	0.19741 0.98545 0.85339 0.00300
H 	H 	0.16020 0.98080 0.85360 0.04300
C 	C 	0.21785 0.01585 0.83082 -0.02800
H 	H 	0.19440 0.03120 0.81500 0.05700
C 	C 	0.27234 0.02359 0.83150 -0.07400
C 	C 	0.30754 0.00034 0.85309 -0.03400
H 	H 	0.34470 0.00500 0.85260 0.04900
C 	C 	0.28671 0.96913 0.87615 0.00500
H 	H 	0.31010 0.95350 0.89160 0.02000
C 	C 	0.29329 0.05773 0.80827 0.38400
C 	C 	0.32250 0.31677 0.89235 0.38600
C 	C 	0.32273 0.27890 0.87027 -0.10100
C 	C 	0.37035 0.25939 0.86462 -0.00400
H 	H 	0.40310 0.26970 0.87380 0.05100
C 	C 	0.16159 0.88379 0.05903 -0.10200
C 	C 	0.19514 0.86454 0.08750 0.00700
H 	H 	0.22200 0.84890 0.07640 0.02700
C 	C 	0.18863 0.86865 0.13282 -0.04100
H 	H 	0.21080 0.85540 0.15210 0.06100
C 	C 	0.14927 0.89242 0.14936 -0.05500
C 	C 	0.11766 0.91251 0.12094 -0.03500
H 	H 	0.09240 0.92950 0.13170 0.06200
C 	C 	0.12388 0.90720 0.07524 0.01000
H 	H 	0.10150 0.92010 0.05580 0.04600
C 	C 	0.16717 0.87739 0.00973 0.39100
C 	C 	0.31847 0.17093 0.81172 0.36900
C 	C 	0.32107 0.20879 0.83348 -0.06500
C 	C 	0.36970 0.22390 0.84504 -0.03200
H 	H 	0.40190 0.21100 0.84010 0.05900
C 	C 	0.27360 0.22821 0.84079 -0.03700
H 	H 	0.24050 0.21720 0.83390 0.05700
C 	C 	0.27452 0.26374 0.85824 0.00000
H 	H 	0.24240 0.27710 0.86170 0.02600
C 	C 	0.14083 0.89539 0.19739 0.33100
C 	C 	0.47223 0.06283 0.82721 0.00600
H 	H 	0.45020 0.04570 0.84170 0.02300
C 	C 	0.02805 0.92539 0.88312 -0.00700
H 	H 	0.05000 0.94230 0.86810 0.03000
Co	Co	0.38001 0.10634 0.77935 1.17200
Co	Co	0.12232 0.88042 0.92383 1.17700
Co	Co	0.26359 0.85973 0.94696 1.09600
N 	N 	0.04588 0.89675 0.90857 -0.23700
N 	N 	0.45447 0.09193 0.80265 -0.23900
O 	O 	0.24237 0.91107 0.92435 -0.49900
O 	O 	0.16229 0.91935 0.89201 -0.47000
O 	O 	0.25931 0.08057 0.79489 -0.45000
O 	O 	0.34384 0.06144 0.80565 -0.45300
O 	O 	0.36993 0.33212 0.89735 -0.45500
O 	O 	0.27897 0.33132 0.90129 -0.51000
O 	O 	0.20610 0.85820 0.99622 -0.49400
O 	O 	0.13073 0.89185 0.98606 -0.46000
O 	O 	0.27545 0.16236 0.79276 -0.42800
O 	O 	0.36144 0.15121 0.81385 -0.44600
O 	O 	0.16759 0.87570 0.22457 -0.48900
O 	O 	0.10471 0.91662 0.21196 -0.36400
O 	O 	0.54485 0.15166 0.75012 -0.17300
O 	O 	0.04459 0.83717 0.96200 -0.16900
C 	C 	0.71083 0.42792 0.89910 0.40600
C 	C 	0.73253 0.46192 0.87570 -0.10900
C 	C 	0.69741 0.48545 0.85339 0.00200
H 	H 	0.66020 0.48080 0.85360 0.04300
C 	C 	0.71785 0.51585 0.83082 -0.02900
H 	H 	0.69440 0.53120 0.81500 0.05600
C 	C 	0.77234 0.52359 0.83150 -0.07500
C 	C 	0.80754 0.50034 0.85309 -0.03400
H 	H 	0.84470 0.50500 0.85260 0.04900
C 	C 	0.78671 0.46913 0.87615 0.00300
H 	H 	0.81010 0.45350 0.89160 0.01900
C 	C 	0.79329 0.55773 0.80827 0.38400
C 	C 	0.82250 0.81677 0.89235 0.38500
C 	C 	0.82273 0.77890 0.87027 -0.10100
C 	C 	0.87035 0.75939 0.86462 -0.00500
H 	H 	0.90310 0.76970 0.87380 0.05100
C 	C 	0.66159 0.38379 0.05903 -0.10300
C 	C 	0.69514 0.36454 0.08750 0.00600
H 	H 	0.72200 0.34890 0.07640 0.02600
C 	C 	0.68863 0.36865 0.13282 -0.04200
H 	H 	0.71080 0.35540 0.15210 0.06000
C 	C 	0.64927 0.39242 0.14936 -0.05600
C 	C 	0.61766 0.41251 0.12094 -0.03600
H 	H 	0.59240 0.42950 0.13170 0.06200
C 	C 	0.62388 0.40720 0.07524 0.00900
H 	H 	0.60150 0.42010 0.05580 0.04600
C 	C 	0.66717 0.37739 0.00973 0.39000
C 	C 	0.81847 0.67093 0.81172 0.36800
C 	C 	0.82107 0.70879 0.83348 -0.06600
C 	C 	0.86970 0.72390 0.84504 -0.03300
H 	H 	0.90190 0.71100 0.84010 0.05900
C 	C 	0.77360 0.72821 0.84079 -0.03800
H 	H 	0.74050 0.71720 0.83390 0.05600
C 	C 	0.77452 0.76374 0.85824 -0.00100
H 	H 	0.74240 0.77710 0.86170 0.02500
C 	C 	0.64083 0.39539 0.19739 0.33000
C 	C 	0.97223 0.56283 0.82721 0.01800
H 	H 	0.95020 0.54570 0.84170 0.01900
C 	C 	0.52805 0.42539 0.88312 0.00500
H 	H 	0.55000 0.44230 0.86810 0.02700
Co	Co	0.88001 0.60634 0.77935 1.17200
Co	Co	0.62232 0.38042 0.92383 1.17800
Co	Co	0.76359 0.35973 0.94696 1.09600
N 	N 	0.54588 0.39675 0.90857 -0.23900
N 	N 	0.95447 0.59193 0.80265 -0.23800
O 	O 	0.74237 0.41107 0.92435 -0.49900
O 	O 	0.66229 0.41935 0.89201 -0.47000
O 	O 	0.75931 0.58057 0.79489 -0.45000
O 	O 	0.84384 0.56144 0.80565 -0.45300
O 	O 	0.86993 0.83212 0.89735 -0.45400
O 	O 	0.77897 0.83132 0.90129 -0.51000
O 	O 	0.70610 0.35820 0.99622 -0.49300
O 	O 	0.63073 0.39185 0.98606 -0.46000
O 	O 	0.77545 0.66236 0.79276 -0.42800
O 	O 	0.86144 0.65121 0.81385 -0.44500
O 	O 	0.66759 0.37570 0.22457 -0.48900
O 	O 	0.60471 0.41662 0.21196 -0.36300
O 	O 	0.04485 0.65166 0.75012 -0.17500
O 	O 	0.54459 0.33717 0.96200 -0.16800
C 	C 	0.78917 0.57208 0.39910 0.40600
C 	C 	0.76747 0.53808 0.37570 -0.10900
C 	C 	0.80259 0.51455 0.35339 0.00200
H 	H 	0.83980 0.51920 0.35360 0.04400
C 	C 	0.78215 0.48415 0.33082 -0.02800
H 	H 	0.80560 0.46880 0.31500 0.05600
C 	C 	0.72766 0.47641 0.33150 -0.07500
C 	C 	0.69246 0.49966 0.35309 -0.03400
H 	H 	0.65530 0.49500 0.35260 0.04800
C 	C 	0.71329 0.53087 0.37615 0.00300
H 	H 	0.68990 0.54650 0.39160 0.01900
C 	C 	0.70671 0.44227 0.30827 0.38400
C 	C 	0.67750 0.18323 0.39235 0.38500
C 	C 	0.67727 0.22110 0.37027 -0.10100
C 	C 	0.62965 0.24061 0.36462 -0.00500
H 	H 	0.59690 0.23030 0.37380 0.05000
C 	C 	0.83841 0.61621 0.55903 -0.10300
C 	C 	0.80486 0.63546 0.58750 0.00600
H 	H 	0.77800 0.65110 0.57640 0.02600
C 	C 	0.81137 0.63135 0.63282 -0.04200
H 	H 	0.78920 0.64460 0.65210 0.06000
C 	C 	0.85073 0.60758 0.64936 -0.05500
C 	C 	0.88234 0.58749 0.62094 -0.03600
H 	H 	0.90760 0.57050 0.63170 0.06300
C 	C 	0.87612 0.59280 0.57524 0.00900
H 	H 	0.89850 0.57990 0.55580 0.04700
C 	C 	0.83283 0.62261 0.50973 0.39000
C 	C 	0.68153 0.32907 0.31172 0.36800
C 	C 	0.67893 0.29121 0.33348 -0.06600
C 	C 	0.63030 0.27610 0.34504 -0.03300
H 	H 	0.59810 0.28900 0.34010 0.05800
C 	C 	0.72640 0.27179 0.34079 -0.03800
H 	H 	0.75950 0.28280 0.33390 0.05600
C 	C 	0.72548 0.23626 0.35824 -0.00100
H 	H 	0.75760 0.22290 0.36170 0.02600
C 	C 	0.85917 0.60461 0.69739 0.33000
C 	C 	0.52777 0.43717 0.32721 0.00600
H 	H 	0.54980 0.45430 0.34170 0.02200
C 	C 	0.97195 0.57461 0.38312 0.01700
H 	H 	0.95000 0.55770 0.36810 0.02500
Co	Co	0.61999 0.39366 0.27935 1.17200
Co	Co	0.87768 0.61958 0.42383 1.17800
Co	Co	0.73641 0.64027 0.44696 1.09600
N 	N 	0.95412 0.60325 0.40857 -0.23700
N 	N 	0.54553 0.40807 0.30265 -0.23900
O 	O 	0.75763 0.58893 0.42435 -0.49900
O 	O 	0.83771 0.58065 0.39201 -0.46900
O 	O 	0.74069 0.41943 0.29489 -0.45000
O 	O 	0.65616 0.43856 0.30565 -0.45300
O 	O 	0.63007 0.16788 0.39735 -0.45500
O 	O 	0.72103 0.16868 0.40129 -0.51000
O 	O 	0.79390 0.64180 0.49622 -0.49300
O 	O 	0.86927 0.60815 0.48606 -0.45900
O 	O 	0.72455 0.33764 0.29276 -0.42800
O 	O 	0.63856 0.34879 0.31385 -0.44600
O 	O 	0.83241 0.62430 0.72457 -0.48800
O 	O 	0.89529 0.58338 0.71196 -0.36200
O 	O 	0.45515 0.34834 0.25012 -0.17300
O 	O 	0.95541 0.66283 0.46200 -0.16300
C 	C 	0.28917 0.07208 0.39910 0.40600
C 	C 	0.26747 0.03808 0.37570 -0.11000
C 	C 	0.30259 0.01455 0.35339 0.00200
H 	H 	0.33980 0.01920 0.35360 0.04300
C 	C 	0.28215 0.98415 0.33082 -0.02900
H 	H 	0.30560 0.96880 0.31500 0.05600
C 	C 	0.22766 0.97641 0.33150 -0.07500
C 	C 	0.19246 0.99966 0.35309 -0.03500
H 	H 	0.15530 0.99500 0.35260 0.04700
C 	C 	0.21329 0.03087 0.37615 0.00300
H 	H 	0.18990 0.04650 0.39160 0.01800
C 	C 	0.20671 0.94227 0.30827 0.38400
C 	C 	0.17750 0.68323 0.39235 0.38500
C 	C 	0.17727 0.72110 0.37027 -0.10200
C 	C 	0.12965 0.74061 0.36462 -0.00500
H 	H 	0.09690 0.73030 0.37380 0.04900
C 	C 	0.33841 0.11621 0.55903 -0.10300
C 	C 	0.30486 0.13546 0.58750 0.00600
H 	H 	0.27800 0.15110 0.57640 0.02500
C 	C 	0.31137 0.13135 0.63282 -0.04200
H 	H 	0.28920 0.14460 0.65210 0.06000
C 	C 	0.35073 0.10758 0.64936 -0.05600
C 	C 	0.38234 0.08749 0.62094 -0.03600
H 	H 	0.40760 0.07050 0.63170 0.06200
C 	C 	0.37612 0.09280 0.57524 0.00900
H 	H 	0.39850 0.07990 0.55580 0.04600
C 	C 	0.33283 0.12261 0.50973 0.39000
C 	C 	0.18153 0.82907 0.31172 0.36800
C 	C 	0.17893 0.79121 0.33348 -0.06600
C 	C 	0.13030 0.77610 0.34504 -0.03300
H 	H 	0.09810 0.78900 0.34010 0.05700
C 	C 	0.22640 0.77179 0.34079 -0.03800
H 	H 	0.25950 0.78280 0.33390 0.05600
C 	C 	0.22548 0.73626 0.35824 -0.00100
H 	H 	0.25760 0.72290 0.36170 0.02500
C 	C 	0.35917 0.10461 0.69739 0.33000
C 	C 	0.02777 0.93717 0.32721 -0.00700
H 	H 	0.04980 0.95430 0.34170 0.02500
C 	C 	0.47195 0.07461 0.38312 0.00500
H 	H 	0.45000 0.05770 0.36810 0.02700
Co	Co	0.11999 0.89366 0.27935 1.17200
Co	Co	0.37768 0.11958 0.42383 1.17800
Co	Co	0.23641 0.14027 0.44696 1.09600
N 	N 	0.45412 0.10325 0.40857 -0.23900
N 	N 	0.04553 0.90807 0.30265 -0.23700
O 	O 	0.25763 0.08893 0.42435 -0.50000
O 	O 	0.33771 0.08065 0.39201 -0.47000
O 	O 	0.24069 0.91943 0.29489 -0.45000
O 	O 	0.15616 0.93856 0.30565 -0.45300
O 	O 	0.13007 0.66788 0.39735 -0.45500
O 	O 	0.22103 0.66868 0.40129 -0.51000
O 	O 	0.29390 0.14180 0.49622 -0.49400
O 	O 	0.36927 0.10815 0.48606 -0.46000
O 	O 	0.22455 0.83764 0.29276 -0.42800
O 	O 	0.13856 0.84879 0.31385 -0.44600
O 	O 	0.33241 0.12430 0.72457 -0.48900
O 	O 	0.39529 0.08338 0.71196 -0.36300
O 	O 	0.95515 0.84834 0.25012 -0.16900
O 	O 	0.45541 0.16283 0.46200 -0.16800
C 	C 	0.78917 0.42792 0.60090 0.40600
C 	C 	0.76747 0.46192 0.62430 -0.10900
C 	C 	0.80259 0.48545 0.64661 0.00200
H 	H 	0.83980 0.48080 0.64640 0.04400
C 	C 	0.78215 0.51585 0.66918 -0.02800
H 	H 	0.80560 0.53120 0.68500 0.05600
C 	C 	0.72766 0.52359 0.66850 -0.07500
C 	C 	0.69246 0.50034 0.64691 -0.03400
H 	H 	0.65530 0.50500 0.64740 0.04800
C 	C 	0.71329 0.46913 0.62385 0.00300
H 	H 	0.68990 0.45350 0.60840 0.01900
C 	C 	0.70671 0.55773 0.69173 0.38400
C 	C 	0.67750 0.81677 0.60765 0.38500
C 	C 	0.67727 0.77890 0.62973 -0.10100
C 	C 	0.62965 0.75939 0.63538 -0.00500
H 	H 	0.59690 0.76970 0.62620 0.05000
C 	C 	0.83841 0.38379 0.44097 -0.10300
C 	C 	0.80486 0.36454 0.41250 0.00600
H 	H 	0.77800 0.34890 0.42360 0.02600
C 	C 	0.81137 0.36865 0.36718 -0.04200
H 	H 	0.78920 0.35540 0.34790 0.06000
C 	C 	0.85073 0.39242 0.35064 -0.05500
C 	C 	0.88234 0.41251 0.37906 -0.03600
H 	H 	0.90760 0.42950 0.36830 0.06300
C 	C 	0.87612 0.40720 0.42476 0.00900
H 	H 	0.89850 0.42010 0.44420 0.04700
C 	C 	0.83283 0.37739 0.49027 0.39000
C 	C 	0.68153 0.67093 0.68828 0.36800
C 	C 	0.67893 0.70879 0.66652 -0.06600
C 	C 	0.63030 0.72390 0.65496 -0.03300
H 	H 	0.59810 0.71100 0.65990 0.05800
C 	C 	0.72640 0.72821 0.65921 -0.03800
H 	H 	0.75950 0.71720 0.66610 0.05600
C 	C 	0.72548 0.76374 0.64176 -0.00100
H 	H 	0.75760 0.77710 0.63830 0.02600
C 	C 	0.85917 0.39539 0.30261 0.33000
C 	C 	0.52777 0.56283 0.67279 0.00600
H 	H 	0.54980 0.54570 0.65830 0.02200
C 	C 	0.97195 0.42539 0.61688 0.01700
H 	H 	0.95000 0.44230 0.63190 0.02500
Co	Co	0.61999 0.60634 0.72065 1.17200
Co	Co	0.87768 0.38042 0.57617 1.17800
Co	Co	0.73641 0.35973 0.55304 1.09600
N 	N 	0.95412 0.39675 0.59143 -0.23700
N 	N 	0.54553 0.59193 0.69735 -0.23900
O 	O 	0.75763 0.41107 0.57565 -0.49900
O 	O 	0.83771 0.41935 0.60799 -0.46900
O 	O 	0.74069 0.58057 0.70511 -0.45000
O 	O 	0.65616 0.56144 0.69435 -0.45300
O 	O 	0.63007 0.83212 0.60265 -0.45500
O 	O 	0.72103 0.83132 0.59871 -0.51000
O 	O 	0.79390 0.35820 0.50378 -0.49300
O 	O 	0.86927 0.39185 0.51394 -0.45900
O 	O 	0.72455 0.66236 0.70724 -0.42800
O 	O 	0.63856 0.65121 0.68615 -0.44600
O 	O 	0.83241 0.37570 0.27543 -0.48800
O 	O 	0.89529 0.41662 0.28804 -0.36200
O 	O 	0.45515 0.65166 0.74988 -0.17300
O 	O 	0.95541 0.33717 0.53800 -0.16300
C 	C 	0.28917 0.92792 0.60090 0.40600
C 	C 	0.26747 0.96192 0.62430 -0.11000
C 	C 	0.30259 0.98545 0.64661 0.00200
H 	H 	0.33980 0.98080 0.64640 0.04300
C 	C 	0.28215 0.01585 0.66918 -0.02900
H 	H 	0.30560 0.03120 0.68500 0.05600
C 	C 	0.22766 0.02359 0.66850 -0.07500
C 	C 	0.19246 0.00034 0.64691 -0.03500
H 	H 	0.15530 0.00500 0.64740 0.04700
C 	C 	0.21329 0.96913 0.62385 0.00300
H 	H 	0.18990 0.95350 0.60840 0.01800
C 	C 	0.20671 0.05773 0.69173 0.38400
C 	C 	0.17750 0.31677 0.60765 0.38500
C 	C 	0.17727 0.27890 0.62973 -0.10200
C 	C 	0.12965 0.25939 0.63538 -0.00500
H 	H 	0.09690 0.26970 0.62620 0.04900
C 	C 	0.33841 0.88379 0.44097 -0.10300
C 	C 	0.30486 0.86454 0.41250 0.00600
H 	H 	0.27800 0.84890 0.42360 0.02500
C 	C 	0.31137 0.86865 0.36718 -0.04200
H 	H 	0.28920 0.85540 0.34790 0.06000
C 	C 	0.35073 0.89242 0.35064 -0.05600
C 	C 	0.38234 0.91251 0.37906 -0.03600
H 	H 	0.40760 0.92950 0.36830 0.06200
C 	C 	0.37612 0.90720 0.42476 0.00900
H 	H 	0.39850 0.92010 0.44420 0.04600
C 	C 	0.33283 0.87739 0.49027 0.39000
C 	C 	0.18153 0.17093 0.68828 0.36800
C 	C 	0.17893 0.20879 0.66652 -0.06600
C 	C 	0.13030 0.22390 0.65496 -0.03300
H 	H 	0.09810 0.21100 0.65990 0.05700
C 	C 	0.22640 0.22821 0.65921 -0.03800
H 	H 	0.25950 0.21720 0.66610 0.05600
C 	C 	0.22548 0.26374 0.64176 -0.00100
H 	H 	0.25760 0.27710 0.63830 0.02500
C 	C 	0.35917 0.89539 0.30261 0.33000
C 	C 	0.02777 0.06283 0.67279 -0.00700
H 	H 	0.04980 0.04570 0.65830 0.02500
C 	C 	0.47195 0.92539 0.61688 0.00500
H 	H 	0.45000 0.94230 0.63190 0.02700
Co	Co	0.11999 0.10634 0.72065 1.17200
Co	Co	0.37768 0.88042 0.57617 1.17800
Co	Co	0.23641 0.85973 0.55304 1.09600
N 	N 	0.45412 0.89675 0.59143 -0.23900
N 	N 	0.04553 0.09193 0.69735 -0.23700
O 	O 	0.25763 0.91107 0.57565 -0.50000
O 	O 	0.33771 0.91935 0.60799 -0.47000
O 	O 	0.24069 0.08057 0.70511 -0.45000
O 	O 	0.15616 0.06144 0.69435 -0.45300
O 	O 	0.13007 0.33212 0.60265 -0.45500
O 	O 	0.22103 0.33132 0.59871 -0.51000
O 	O 	0.29390 0.85820 0.50378 -0.49400
O 	O 	0.36927 0.89185 0.51394 -0.46000
O 	O 	0.22455 0.16236 0.70724 -0.42800
O 	O 	0.13856 0.15121 0.68615 -0.44600
O 	O 	0.33241 0.87570 0.27543 -0.48900
O 	O 	0.39529 0.91662 0.28804 -0.36300
O 	O 	0.95515 0.15166 0.74988 -0.16900
O 	O 	0.45541 0.83717 0.53800 -0.16800
C 	C 	0.21083 0.07208 0.10090 0.40600
C 	C 	0.23253 0.03808 0.12430 -0.11000
C 	C 	0.19741 0.01455 0.14661 0.00200
H 	H 	0.16020 0.01920 0.14640 0.04200
C 	C 	0.21785 0.98415 0.16918 -0.02900
H 	H 	0.19440 0.96880 0.18500 0.05600
C 	C 	0.27234 0.97641 0.16850 -0.07500
C 	C 	0.30754 0.99966 0.14691 -0.03500
H 	H 	0.34470 0.99500 0.14740 0.04800
C 	C 	0.28671 0.03087 0.12385 0.00400
H 	H 	0.31010 0.04650 0.10840 0.01900
C 	C 	0.29329 0.94227 0.19173 0.38300
C 	C 	0.32250 0.68323 0.10765 0.38500
C 	C 	0.32273 0.72110 0.12973 -0.10200
C 	C 	0.37035 0.74061 0.13538 -0.00500
H 	H 	0.40310 0.73030 0.12620 0.05000
C 	C 	0.16159 0.11621 0.94097 -0.10300
C 	C 	0.19514 0.13546 0.91250 0.00600
H 	H 	0.22200 0.15110 0.92360 0.02600
C 	C 	0.18863 0.13135 0.86718 -0.04200
H 	H 	0.21080 0.14460 0.84790 0.06000
C 	C 	0.14927 0.10758 0.85064 -0.05600
C 	C 	0.11766 0.08749 0.87906 -0.03600
H 	H 	0.09240 0.07050 0.86830 0.06100
C 	C 	0.12388 0.09280 0.92476 0.00900
H 	H 	0.10150 0.07990 0.94420 0.04500
C 	C 	0.16717 0.12261 0.99027 0.39000
C 	C 	0.31847 0.82907 0.18828 0.36800
C 	C 	0.32107 0.79121 0.16652 -0.06600
C 	C 	0.36970 0.77610 0.15496 -0.03300
H 	H 	0.40190 0.78900 0.15990 0.05800
C 	C 	0.27360 0.77179 0.15921 -0.03800
H 	H 	0.24050 0.78280 0.16610 0.05600
C 	C 	0.27452 0.73626 0.14176 -0.00100
H 	H 	0.24240 0.72290 0.13830 0.02500
C 	C 	0.14083 0.10461 0.80261 0.33000
C 	C 	0.47223 0.93717 0.17279 0.00500
H 	H 	0.45020 0.95430 0.15830 0.02200
C 	C 	0.02805 0.07461 0.11688 -0.00700
H 	H 	0.05000 0.05770 0.13190 0.03000
Co	Co	0.38001 0.89366 0.22065 1.17200
Co	Co	0.12232 0.11958 0.07617 1.17700
Co	Co	0.26359 0.14027 0.05304 1.09600
N 	N 	0.04588 0.10325 0.09143 -0.23700
N 	N 	0.45447 0.90807 0.19735 -0.23900
O 	O 	0.24237 0.08893 0.07565 -0.49900
O 	O 	0.16229 0.08065 0.10799 -0.47000
O 	O 	0.25931 0.91943 0.20511 -0.45000
O 	O 	0.34384 0.93856 0.19435 -0.45300
O 	O 	0.36993 0.66788 0.10265 -0.45500
O 	O 	0.27897 0.66868 0.09871 -0.51000
O 	O 	0.20610 0.14180 0.00378 -0.49400
O 	O 	0.13073 0.10815 0.01394 -0.46000
O 	O 	0.27545 0.83764 0.20724 -0.42800
O 	O 	0.36144 0.84879 0.18615 -0.44600
O 	O 	0.16759 0.12430 0.77543 -0.48900
O 	O 	0.10471 0.08338 0.78804 -0.36400
O 	O 	0.54485 0.84834 0.24988 -0.17300
O 	O 	0.04459 0.16283 0.03800 -0.16900
C 	C 	0.71083 0.57208 0.10090 0.40600
C 	C 	0.73253 0.53808 0.12430 -0.10900
C 	C 	0.69741 0.51455 0.14661 0.00200
H 	H 	0.66020 0.51920 0.14640 0.04300
C 	C 	0.71785 0.48415 0.16918 -0.02900
H 	H 	0.69440 0.46880 0.18500 0.05600
C 	C 	0.77234 0.47641 0.16850 -0.07500
C 	C 	0.80754 0.49966 0.14691 -0.03400
H 	H 	0.84470 0.49500 0.14740 0.04900
C 	C 	0.78671 0.53087 0.12385 0.00300
H 	H 	0.81010 0.54650 0.10840 0.01900
C 	C 	0.79329 0.44227 0.19173 0.38400
C 	C 	0.82250 0.18323 0.10765 0.38500
C 	C 	0.82273 0.22110 0.12973 -0.10100
C 	C 	0.87035 0.24061 0.13538 -0.00500
H 	H 	0.90310 0.23030 0.12620 0.05100
C 	C 	0.66159 0.61621 0.94097 -0.10300
C 	C 	0.69514 0.63546 0.91250 0.00600
H 	H 	0.72200 0.65110 0.92360 0.02600
C 	C 	0.68863 0.63135 0.86718 -0.04200
H 	H 	0.71080 0.64460 0.84790 0.06000
C 	C 	0.64927 0.60758 0.85064 -0.05600
C 	C 	0.61766 0.58749 0.87906 -0.03600
H 	H 	0.59240 0.57050 0.86830 0.06200
C 	C 	0.62388 0.59280 0.92476 0.00900
H 	H 	0.60150 0.57990 0.94420 0.04600
C 	C 	0.66717 0.62261 0.99027 0.39000
C 	C 	0.81847 0.32907 0.18828 0.36800
C 	C 	0.82107 0.29121 0.16652 -0.06600
C 	C 	0.86970 0.27610 0.15496 -0.03300
H 	H 	0.90190 0.28900 0.15990 0.05900
C 	C 	0.77360 0.27179 0.15921 -0.03800
H 	H 	0.74050 0.28280 0.16610 0.05600
C 	C 	0.77452 0.23626 0.14176 -0.00100
H 	H 	0.74240 0.22290 0.13830 0.02500
C 	C 	0.64083 0.60461 0.80261 0.33000
C 	C 	0.97223 0.43717 0.17279 0.01800
H 	H 	0.95020 0.45430 0.15830 0.01900
C 	C 	0.52805 0.57461 0.11688 0.00500
H 	H 	0.55000 0.55770 0.13190 0.02700
Co	Co	0.88001 0.39366 0.22065 1.17200
Co	Co	0.62232 0.61958 0.07617 1.17800
Co	Co	0.76359 0.64027 0.05304 1.09600
N 	N 	0.54588 0.60325 0.09143 -0.23900
N 	N 	0.95447 0.40807 0.19735 -0.23800
O 	O 	0.74237 0.58893 0.07565 -0.49900
O 	O 	0.66229 0.58065 0.10799 -0.47000
O 	O 	0.75931 0.41943 0.20511 -0.45000
O 	O 	0.84384 0.43856 0.19435 -0.45300
O 	O 	0.86993 0.16788 0.10265 -0.45400
O 	O 	0.77897 0.16868 0.09871 -0.51000
O 	O 	0.70610 0.64180 0.00378 -0.49300
O 	O 	0.63073 0.60815 0.01394 -0.46000
O 	O 	0.77545 0.33764 0.20724 -0.42800
O 	O 	0.86144 0.34879 0.18615 -0.44500
O 	O 	0.66759 0.62430 0.77543 -0.48900
O 	O 	0.60471 0.58338 0.78804 -0.36300
O 	O 	0.04485 0.34834 0.24988 -0.17500
O 	O 	0.54459 0.66283 0.03800 -0.16800
C 	C 	0.78917 0.07208 0.10090 0.40600
C 	C 	0.76747 0.03808 0.12430 -0.10900
C 	C 	0.80259 0.01455 0.14661 0.00200
H 	H 	0.83980 0.01920 0.14640 0.04300
C 	C 	0.78215 0.98415 0.16918 -0.02800
H 	H 	0.80560 0.96880 0.18500 0.05600
C 	C 	0.72766 0.97641 0.16850 -0.07500
C 	C 	0.69246 0.99966 0.14691 -0.03500
H 	H 	0.65530 0.99500 0.14740 0.04800
C 	C 	0.71329 0.03087 0.12385 0.00300
H 	H 	0.68990 0.04650 0.10840 0.01900
C 	C 	0.70671 0.94227 0.19173 0.38400
C 	C 	0.67750 0.68323 0.10765 0.38500
C 	C 	0.67727 0.72110 0.12973 -0.10100
C 	C 	0.62965 0.74061 0.13538 -0.00500
H 	H 	0.59690 0.73030 0.12620 0.05000
C 	C 	0.83841 0.11621 0.94097 -0.10300
C 	C 	0.80486 0.13546 0.91250 0.00600
H 	H 	0.77800 0.15110 0.92360 0.02600
C 	C 	0.81137 0.13135 0.86718 -0.04200
H 	H 	0.78920 0.14460 0.84790 0.06000
C 	C 	0.85073 0.10758 0.85064 -0.05500
C 	C 	0.88234 0.08749 0.87906 -0.03600
H 	H 	0.90760 0.07050 0.86830 0.06300
C 	C 	0.87612 0.09280 0.92476 0.00900
H 	H 	0.89850 0.07990 0.94420 0.04700
C 	C 	0.83283 0.12261 0.99027 0.39000
C 	C 	0.68153 0.82907 0.18828 0.36800
C 	C 	0.67893 0.79121 0.16652 -0.06600
C 	C 	0.63030 0.77610 0.15496 -0.03300
H 	H 	0.59810 0.78900 0.15990 0.05800
C 	C 	0.72640 0.77179 0.15921 -0.03800
H 	H 	0.75950 0.78280 0.16610 0.05600
C 	C 	0.72548 0.73626 0.14176 -0.00100
H 	H 	0.75760 0.72290 0.13830 0.02600
C 	C 	0.85917 0.10461 0.80261 0.33000
C 	C 	0.52777 0.93717 0.17279 0.00500
H 	H 	0.54980 0.95430 0.15830 0.02200
C 	C 	0.97195 0.07461 0.11688 0.01700
H 	H 	0.95000 0.05770 0.13190 0.02500
Co	Co	0.61999 0.89366 0.22065 1.17200
Co	Co	0.87768 0.11958 0.07617 1.17800
Co	Co	0.73641 0.14027 0.05304 1.09600
N 	N 	0.95412 0.10325 0.09143 -0.23700
N 	N 	0.54553 0.90807 0.19735 -0.23900
O 	O 	0.75763 0.08893 0.07565 -0.49900
O 	O 	0.83771 0.08065 0.10799 -0.46900
O 	O 	0.74069 0.91943 0.20511 -0.45000
O 	O 	0.65616 0.93856 0.19435 -0.45300
O 	O 	0.63007 0.66788 0.10265 -0.45500
O 	O 	0.72103 0.66868 0.09871 -0.51000
O 	O 	0.79390 0.14180 0.00378 -0.49300
O 	O 	0.86927 0.10815 0.01394 -0.45900
O 	O 	0.72455 0.83764 0.20724 -0.42800
O 	O 	0.63856 0.84879 0.18615 -0.44600
O 	O 	0.83241 0.12430 0.77543 -0.48800
O 	O 	0.89529 0.08338 0.78804 -0.36200
O 	O 	0.45515 0.84834 0.24988 -0.17300
O 	O 	0.95541 0.16283 0.03800 -0.16300
C 	C 	0.28917 0.57208 0.10090 0.40600
C 	C 	0.26747 0.53808 0.12430 -0.11000
C 	C 	0.30259 0.51455 0.14661 0.00200
H 	H 	0.33980 0.51920 0.14640 0.04300
C 	C 	0.28215 0.48415 0.16918 -0.02800
H 	H 	0.30560 0.46880 0.18500 0.05600
C 	C 	0.22766 0.47641 0.16850 -0.07500
C 	C 	0.19246 0.49966 0.14691 -0.03400
H 	H 	0.15530 0.49500 0.14740 0.04700
C 	C 	0.21329 0.53087 0.12385 0.00300
H 	H 	0.18990 0.54650 0.10840 0.01800
C 	C 	0.20671 0.44227 0.19173 0.38400
C 	C 	0.17750 0.18323 0.10765 0.38500
C 	C 	0.17727 0.22110 0.12973 -0.10200
C 	C 	0.12965 0.24061 0.13538 -0.00500
H 	H 	0.09690 0.23030 0.12620 0.04900
C 	C 	0.33841 0.61621 0.94097 -0.10300
C 	C 	0.30486 0.63546 0.91250 0.00600
H 	H 	0.27800 0.65110 0.92360 0.02500
C 	C 	0.31137 0.63135 0.86718 -0.04200
H 	H 	0.28920 0.64460 0.84790 0.06000
C 	C 	0.35073 0.60758 0.85064 -0.05600
C 	C 	0.38234 0.58749 0.87906 -0.03600
H 	H 	0.40760 0.57050 0.86830 0.06200
C 	C 	0.37612 0.59280 0.92476 0.00900
H 	H 	0.39850 0.57990 0.94420 0.04600
C 	C 	0.33283 0.62261 0.99027 0.39000
C 	C 	0.18153 0.32907 0.18828 0.36800
C 	C 	0.17893 0.29121 0.16652 -0.06600
C 	C 	0.13030 0.27610 0.15496 -0.03300
H 	H 	0.09810 0.28900 0.15990 0.05700
C 	C 	0.22640 0.27179 0.15921 -0.03800
H 	H 	0.25950 0.28280 0.16610 0.05600
C 	C 	0.22548 0.23626 0.14176 -0.00100
H 	H 	0.25760 0.22290 0.13830 0.02500
C 	C 	0.35917 0.60461 0.80261 0.33000
C 	C 	0.02777 0.43717 0.17279 -0.00700
H 	H 	0.04980 0.45430 0.15830 0.02500
C 	C 	0.47195 0.57461 0.11688 0.00500
H 	H 	0.45000 0.55770 0.13190 0.02700
Co	Co	0.11999 0.39366 0.22065 1.17200
Co	Co	0.37768 0.61958 0.07617 1.17800
Co	Co	0.23641 0.64027 0.05304 1.09600
N 	N 	0.45412 0.60325 0.09143 -0.23900
N 	N 	0.04553 0.40807 0.19735 -0.23700
O 	O 	0.25763 0.58893 0.07565 -0.50000
O 	O 	0.33771 0.58065 0.10799 -0.47000
O 	O 	0.24069 0.41943 0.20511 -0.45000
O 	O 	0.15616 0.43856 0.19435 -0.45300
O 	O 	0.13007 0.16788 0.10265 -0.45500
O 	O 	0.22103 0.16868 0.09871 -0.51000
O 	O 	0.29390 0.64180 0.00378 -0.49400
O 	O 	0.36927 0.60815 0.01394 -0.46000
O 	O 	0.22455 0.33764 0.20724 -0.42800
O 	O 	0.13856 0.34879 0.18615 -0.44600
O 	O 	0.33241 0.62430 0.77543 -0.48800
O 	O 	0.39529 0.58338 0.78804 -0.36300
O 	O 	0.95515 0.34834 0.24988 -0.16900
O 	O 	0.45541 0.66283 0.03800 -0.16800
C 	C 	0.21083 0.42792 0.60090 0.40600
C 	C 	0.23253 0.46192 0.62430 -0.11000
C 	C 	0.19741 0.48545 0.64661 0.00200
H 	H 	0.16020 0.48080 0.64640 0.04300
C 	C 	0.21785 0.51585 0.66918 -0.02900
H 	H 	0.19440 0.53120 0.68500 0.05600
C 	C 	0.27234 0.52359 0.66850 -0.07500
C 	C 	0.30754 0.50034 0.64691 -0.03500
H 	H 	0.34470 0.50500 0.64740 0.04800
C 	C 	0.28671 0.46913 0.62385 0.00300
H 	H 	0.31010 0.45350 0.60840 0.01900
C 	C 	0.29329 0.55773 0.69173 0.38400
C 	C 	0.32250 0.81677 0.60765 0.38500
C 	C 	0.32273 0.77890 0.62973 -0.10200
C 	C 	0.37035 0.75939 0.63538 -0.00500
H 	H 	0.40310 0.76970 0.62620 0.05000
C 	C 	0.16159 0.38379 0.44097 -0.10300
C 	C 	0.19514 0.36454 0.41250 0.00600
H 	H 	0.22200 0.34890 0.42360 0.02600
C 	C 	0.18863 0.36865 0.36718 -0.04200
H 	H 	0.21080 0.35540 0.34790 0.06000
C 	C 	0.14927 0.39242 0.35064 -0.05600
C 	C 	0.11766 0.41251 0.37906 -0.03600
H 	H 	0.09240 0.42950 0.36830 0.06100
C 	C 	0.12388 0.40720 0.42476 0.00900
H 	H 	0.10150 0.42010 0.44420 0.04500
C 	C 	0.16717 0.37739 0.49027 0.39000
C 	C 	0.31847 0.67093 0.68828 0.36800
C 	C 	0.32107 0.70879 0.66652 -0.06600
C 	C 	0.36970 0.72390 0.65496 -0.03300
H 	H 	0.40190 0.71100 0.65990 0.05800
C 	C 	0.27360 0.72821 0.65921 -0.03800
H 	H 	0.24050 0.71720 0.66610 0.05600
C 	C 	0.27452 0.76374 0.64176 -0.00100
H 	H 	0.24240 0.77710 0.63830 0.02500
C 	C 	0.14083 0.39539 0.30261 0.33000
C 	C 	0.47223 0.56283 0.67279 0.00600
H 	H 	0.45020 0.54570 0.65830 0.02200
C 	C 	0.02805 0.42539 0.61688 -0.00700
H 	H 	0.05000 0.44230 0.63190 0.03000
Co	Co	0.38001 0.60634 0.72065 1.17200
Co	Co	0.12232 0.38042 0.57617 1.17700
Co	Co	0.26359 0.35973 0.55304 1.09600
N 	N 	0.04588 0.39675 0.59143 -0.23700
N 	N 	0.45447 0.59193 0.69735 -0.23900
O 	O 	0.24237 0.41107 0.57565 -0.49900
O 	O 	0.16229 0.41935 0.60799 -0.47000
O 	O 	0.25931 0.58057 0.70511 -0.45000
O 	O 	0.34384 0.56144 0.69435 -0.45300
O 	O 	0.36993 0.83212 0.60265 -0.45500
O 	O 	0.27897 0.83132 0.59871 -0.51000
O 	O 	0.20610 0.35820 0.50378 -0.49400
O 	O 	0.13073 0.39185 0.51394 -0.46000
O 	O 	0.27545 0.66236 0.70724 -0.42800
O 	O 	0.36144 0.65121 0.68615 -0.44600
O 	O 	0.16759 0.37570 0.27543 -0.48900
O 	O 	0.10471 0.41662 0.28804 -0.36400
O 	O 	0.54485 0.65166 0.74988 -0.17300
O 	O 	0.04459 0.33717 0.53800 -0.16900
C 	C 	0.71083 0.92792 0.60090 0.40600
C 	C 	0.73253 0.96192 0.62430 -0.10900
C 	C 	0.69741 0.98545 0.64661 0.00200
H 	H 	0.66020 0.98080 0.64640 0.04300
C 	C 	0.71785 0.01585 0.66918 -0.02900
H 	H 	0.69440 0.03120 0.68500 0.05600
C 	C 	0.77234 0.02359 0.66850 -0.07500
C 	C 	0.80754 0.00034 0.64691 -0.03400
H 	H 	0.84470 0.00500 0.64740 0.04900
C 	C 	0.78671 0.96913 0.62385 0.00400
H 	H 	0.81010 0.95350 0.60840 0.01900
C 	C 	0.79329 0.05773 0.69173 0.38400
C 	C 	0.82250 0.31677 0.60765 0.38500
C 	C 	0.82273 0.27890 0.62973 -0.10100
C 	C 	0.87035 0.25939 0.63538 -0.00500
H 	H 	0.90310 0.26970 0.62620 0.05100
C 	C 	0.66159 0.88379 0.44097 -0.10300
C 	C 	0.69514 0.86454 0.41250 0.00600
H 	H 	0.72200 0.84890 0.42360 0.02600
C 	C 	0.68863 0.86865 0.36718 -0.04200
H 	H 	0.71080 0.85540 0.34790 0.06000
C 	C 	0.64927 0.89242 0.35064 -0.05600
C 	C 	0.61766 0.91251 0.37906 -0.03600
H 	H 	0.59240 0.92950 0.36830 0.06200
C 	C 	0.62388 0.90720 0.42476 0.00900
H 	H 	0.60150 0.92010 0.44420 0.04600
C 	C 	0.66717 0.87739 0.49027 0.39000
C 	C 	0.81847 0.17093 0.68828 0.36800
C 	C 	0.82107 0.20879 0.66652 -0.06600
C 	C 	0.86970 0.22390 0.65496 -0.03300
H 	H 	0.90190 0.21100 0.65990 0.05900
C 	C 	0.77360 0.22821 0.65921 -0.03800
H 	H 	0.74050 0.21720 0.66610 0.05600
C 	C 	0.77452 0.26374 0.64176 -0.00100
H 	H 	0.74240 0.27710 0.63830 0.02500
C 	C 	0.64083 0.89539 0.30261 0.33000
C 	C 	0.97223 0.06283 0.67279 0.01800
H 	H 	0.95020 0.04570 0.65830 0.01900
C 	C 	0.52805 0.92539 0.61688 0.00500
H 	H 	0.55000 0.94230 0.63190 0.02700
Co	Co	0.88001 0.10634 0.72065 1.17200
Co	Co	0.62232 0.88042 0.57617 1.17800
Co	Co	0.76359 0.85973 0.55304 1.09600
N 	N 	0.54588 0.89675 0.59143 -0.23900
N 	N 	0.95447 0.09193 0.69735 -0.23800
O 	O 	0.74237 0.91107 0.57565 -0.49900
O 	O 	0.66229 0.91935 0.60799 -0.47000
O 	O 	0.75931 0.08057 0.70511 -0.45000
O 	O 	0.84384 0.06144 0.69435 -0.45300
O 	O 	0.86993 0.33212 0.60265 -0.45400
O 	O 	0.77897 0.33132 0.59871 -0.51000
O 	O 	0.70610 0.85820 0.50378 -0.49300
O 	O 	0.63073 0.89185 0.51394 -0.46000
O 	O 	0.77545 0.16236 0.70724 -0.42800
O 	O 	0.86144 0.15121 0.68615 -0.44500
O 	O 	0.66759 0.87570 0.27543 -0.48900
O 	O 	0.60471 0.91662 0.28804 -0.36300
O 	O 	0.04485 0.15166 0.74988 -0.17500
O 	O 	0.54459 0.83717 0.53800 -0.16800
C 	C 	0.21083 0.57208 0.39910 0.40600
C 	C 	0.23253 0.53808 0.37570 -0.11000
C 	C 	0.19741 0.51455 0.35339 0.00200
H 	H 	0.16020 0.51920 0.35360 0.04300
C 	C 	0.21785 0.48415 0.33082 -0.02900
H 	H 	0.19440 0.46880 0.31500 0.05600
C 	C 	0.27234 0.47641 0.33150 -0.07500
C 	C 	0.30754 0.49966 0.35309 -0.03500
H 	H 	0.34470 0.49500 0.35260 0.04800
C 	C 	0.28671 0.53087 0.37615 0.00300
H 	H 	0.31010 0.54650 0.39160 0.01900
C 	C 	0.29329 0.44227 0.30827 0.38400
C 	C 	0.32250 0.18323 0.39235 0.38500
C 	C 	0.32273 0.22110 0.37027 -0.10200
C 	C 	0.37035 0.24061 0.36462 -0.00500
H 	H 	0.40310 0.23030 0.37380 0.05000
C 	C 	0.16159 0.61621 0.55903 -0.10300
C 	C 	0.19514 0.63546 0.58750 0.00600
H 	H 	0.22200 0.65110 0.57640 0.02600
C 	C 	0.18863 0.63135 0.63282 -0.04200
H 	H 	0.21080 0.64460 0.65210 0.06000
C 	C 	0.14927 0.60758 0.64936 -0.05600
C 	C 	0.11766 0.58749 0.62094 -0.03600
H 	H 	0.09240 0.57050 0.63170 0.06100
C 	C 	0.12388 0.59280 0.57524 0.00900
H 	H 	0.10150 0.57990 0.55580 0.04500
C 	C 	0.16717 0.62261 0.50973 0.39000
C 	C 	0.31847 0.32907 0.31172 0.36800
C 	C 	0.32107 0.29121 0.33348 -0.06600
C 	C 	0.36970 0.27610 0.34504 -0.03300
H 	H 	0.40190 0.28900 0.34010 0.05800
C 	C 	0.27360 0.27179 0.34079 -0.03800
H 	H 	0.24050 0.28280 0.33390 0.05600
C 	C 	0.27452 0.23626 0.35824 -0.00100
H 	H 	0.24240 0.22290 0.36170 0.02500
C 	C 	0.14083 0.60461 0.69739 0.33000
C 	C 	0.47223 0.43717 0.32721 0.00600
H 	H 	0.45020 0.45430 0.34170 0.02200
C 	C 	0.02805 0.57461 0.38312 -0.00700
H 	H 	0.05000 0.55770 0.36810 0.03000
Co	Co	0.38001 0.39366 0.27935 1.17200
Co	Co	0.12232 0.61958 0.42383 1.17700
Co	Co	0.26359 0.64027 0.44696 1.09600
N 	N 	0.04588 0.60325 0.40857 -0.23700
N 	N 	0.45447 0.40807 0.30265 -0.23900
O 	O 	0.24237 0.58893 0.42435 -0.49900
O 	O 	0.16229 0.58065 0.39201 -0.47000
O 	O 	0.25931 0.41943 0.29489 -0.45000
O 	O 	0.34384 0.43856 0.30565 -0.45300
O 	O 	0.36993 0.16788 0.39735 -0.45500
O 	O 	0.27897 0.16868 0.40129 -0.51000
O 	O 	0.20610 0.64180 0.49622 -0.49400
O 	O 	0.13073 0.60815 0.48606 -0.46000
O 	O 	0.27545 0.33764 0.29276 -0.42800
O 	O 	0.36144 0.34879 0.31385 -0.44600
O 	O 	0.16759 0.62430 0.72457 -0.48900
O 	O 	0.10471 0.58338 0.71196 -0.36400
O 	O 	0.54485 0.34834 0.25012 -0.17300
O 	O 	0.04459 0.66283 0.46200 -0.16900
C 	C 	0.71083 0.07208 0.39910 0.40600
C 	C 	0.73253 0.03808 0.37570 -0.10900
C 	C 	0.69741 0.01455 0.35339 0.00200
H 	H 	0.66020 0.01920 0.35360 0.04300
C 	C 	0.71785 0.98415 0.33082 -0.02900
H 	H 	0.69440 0.96880 0.31500 0.05600
C 	C 	0.77234 0.97641 0.33150 -0.07500
C 	C 	0.80754 0.99966 0.35309 -0.03400
H 	H 	0.84470 0.99500 0.35260 0.04900
C 	C 	0.78671 0.03087 0.37615 0.00400
H 	H 	0.81010 0.04650 0.39160 0.01900
C 	C 	0.79329 0.94227 0.30827 0.38400
C 	C 	0.82250 0.68323 0.39235 0.38500
C 	C 	0.82273 0.72110 0.37027 -0.10100
C 	C 	0.87035 0.74061 0.36462 -0.00500
H 	H 	0.90310 0.73030 0.37380 0.05100
C 	C 	0.66159 0.11621 0.55903 -0.10300
C 	C 	0.69514 0.13546 0.58750 0.00600
H 	H 	0.72200 0.15110 0.57640 0.02600
C 	C 	0.68863 0.13135 0.63282 -0.04200
H 	H 	0.71080 0.14460 0.65210 0.06000
C 	C 	0.64927 0.10758 0.64936 -0.05600
C 	C 	0.61766 0.08749 0.62094 -0.03600
H 	H 	0.59240 0.07050 0.63170 0.06200
C 	C 	0.62388 0.09280 0.57524 0.00900
H 	H 	0.60150 0.07990 0.55580 0.04600
C 	C 	0.66717 0.12261 0.50973 0.39000
C 	C 	0.81847 0.82907 0.31172 0.36800
C 	C 	0.82107 0.79121 0.33348 -0.06600
C 	C 	0.86970 0.77610 0.34504 -0.03300
H 	H 	0.90190 0.78900 0.34010 0.05900
C 	C 	0.77360 0.77179 0.34079 -0.03800
H 	H 	0.74050 0.78280 0.33390 0.05600
C 	C 	0.77452 0.73626 0.35824 -0.00100
H 	H 	0.74240 0.72290 0.36170 0.02500
C 	C 	0.64083 0.10461 0.69739 0.33000
C 	C 	0.97223 0.93717 0.32721 0.01800
H 	H 	0.95020 0.95430 0.34170 0.01900
C 	C 	0.52805 0.07461 0.38312 0.00500
H 	H 	0.55000 0.05770 0.36810 0.02700
Co	Co	0.88001 0.89366 0.27935 1.17200
Co	Co	0.62232 0.11958 0.42383 1.17800
Co	Co	0.76359 0.14027 0.44696 1.09600
N 	N 	0.54588 0.10325 0.40857 -0.23900
N 	N 	0.95447 0.90807 0.30265 -0.23800
O 	O 	0.74237 0.08893 0.42435 -0.49900
O 	O 	0.66229 0.08065 0.39201 -0.47000
O 	O 	0.75931 0.91943 0.29489 -0.45000
O 	O 	0.84384 0.93856 0.30565 -0.45300
O 	O 	0.86993 0.66788 0.39735 -0.45400
O 	O 	0.77897 0.66868 0.40129 -0.51000
O 	O 	0.70610 0.14180 0.49622 -0.49300
O 	O 	0.63073 0.10815 0.48606 -0.46000
O 	O 	0.77545 0.83764 0.29276 -0.42800
O 	O 	0.86144 0.84879 0.31385 -0.44500
O 	O 	0.66759 0.12430 0.72457 -0.48900
O 	O 	0.60471 0.08338 0.71196 -0.36300
O 	O 	0.04485 0.84834 0.25012 -0.17500
O 	O 	0.54459 0.16283 0.46200 -0.16800
C 	C 	0.78917 0.92792 0.89910 0.40600
C 	C 	0.76747 0.96192 0.87570 -0.10900
C 	C 	0.80259 0.98545 0.85339 0.00200
H 	H 	0.83980 0.98080 0.85360 0.04300
C 	C 	0.78215 0.01585 0.83082 -0.02800
H 	H 	0.80560 0.03120 0.81500 0.05600
C 	C 	0.72766 0.02359 0.83150 -0.07500
C 	C 	0.69246 0.00034 0.85309 -0.03500
H 	H 	0.65530 0.00500 0.85260 0.04800
C 	C 	0.71329 0.96913 0.87615 0.00300
H 	H 	0.68990 0.95350 0.89160 0.01900
C 	C 	0.70671 0.05773 0.80827 0.38400
C 	C 	0.67750 0.31677 0.89235 0.38500
C 	C 	0.67727 0.27890 0.87027 -0.10100
C 	C 	0.62965 0.25939 0.86462 -0.00500
H 	H 	0.59690 0.26970 0.87380 0.05000
C 	C 	0.83841 0.88379 0.05903 -0.10300
C 	C 	0.80486 0.86454 0.08750 0.00600
H 	H 	0.77800 0.84890 0.07640 0.02600
C 	C 	0.81137 0.86865 0.13282 -0.04200
H 	H 	0.78920 0.85540 0.15210 0.06000
C 	C 	0.85073 0.89242 0.14936 -0.05500
C 	C 	0.88234 0.91251 0.12094 -0.03600
H 	H 	0.90760 0.92950 0.13170 0.06300
C 	C 	0.87612 0.90720 0.07524 0.00900
H 	H 	0.89850 0.92010 0.05580 0.04700
C 	C 	0.83283 0.87739 0.00973 0.39000
C 	C 	0.68153 0.17093 0.81172 0.36800
C 	C 	0.67893 0.20879 0.83348 -0.06600
C 	C 	0.63030 0.22390 0.84504 -0.03300
H 	H 	0.59810 0.21100 0.84010 0.05800
C 	C 	0.72640 0.22821 0.84079 -0.03800
H 	H 	0.75950 0.21720 0.83390 0.05600
C 	C 	0.72548 0.26374 0.85824 -0.00100
H 	H 	0.75760 0.27710 0.86170 0.02600
C 	C 	0.85917 0.89539 0.19739 0.33000
C 	C 	0.52777 0.06283 0.82721 0.00500
H 	H 	0.54980 0.04570 0.84170 0.02200
C 	C 	0.97195 0.92539 0.88312 0.01700
H 	H 	0.95000 0.94230 0.86810 0.02500
Co	Co	0.61999 0.10634 0.77935 1.17200
Co	Co	0.87768 0.88042 0.92383 1.17800
Co	Co	0.73641 0.85973 0.94696 1.09600
N 	N 	0.95412 0.89675 0.90857 -0.23700
N 	N 	0.54553 0.09193 0.80265 -0.23900
O 	O 	0.75763 0.91107 0.92435 -0.49900
O 	O 	0.83771 0.91935 0.89201 -0.46900
O 	O 	0.74069 0.08057 0.79489 -0.45000
O 	O 	0.65616 0.06144 0.80565 -0.45300
O 	O 	0.63007 0.33212 0.89735 -0.45500
O 	O 	0.72103 0.33132 0.90129 -0.51000
O 	O 	0.79390 0.85820 0.99622 -0.49300
O 	O 	0.86927 0.89185 0.98606 -0.45900
O 	O 	0.72455 0.16236 0.79276 -0.42800
O 	O 	0.63856 0.15121 0.81385 -0.44600
O 	O 	0.83241 0.87570 0.22457 -0.48800
O 	O 	0.89529 0.91662 0.21196 -0.36200
O 	O 	0.45515 0.15166 0.75012 -0.17300
O 	O 	0.95541 0.83717 0.96200 -0.16300
C 	C 	0.28917 0.42792 0.89910 0.40600
C 	C 	0.26747 0.46192 0.87570 -0.11000
C 	C 	0.30259 0.48545 0.85339 0.00200
H 	H 	0.33980 0.48080 0.85360 0.04300
C 	C 	0.28215 0.51585 0.83082 -0.02800
H 	H 	0.30560 0.53120 0.81500 0.05600
C 	C 	0.22766 0.52359 0.83150 -0.07500
C 	C 	0.19246 0.50034 0.85309 -0.03400
H 	H 	0.15530 0.50500 0.85260 0.04700
C 	C 	0.21329 0.46913 0.87615 0.00300
H 	H 	0.18990 0.45350 0.89160 0.01800
C 	C 	0.20671 0.55773 0.80827 0.38400
C 	C 	0.17750 0.81677 0.89235 0.38500
C 	C 	0.17727 0.77890 0.87027 -0.10200
C 	C 	0.12965 0.75939 0.86462 -0.00500
H 	H 	0.09690 0.76970 0.87380 0.04900
C 	C 	0.33841 0.38379 0.05903 -0.10300
C 	C 	0.30486 0.36454 0.08750 0.00600
H 	H 	0.27800 0.34890 0.07640 0.02500
C 	C 	0.31137 0.36865 0.13282 -0.04200
H 	H 	0.28920 0.35540 0.15210 0.06000
C 	C 	0.35073 0.39242 0.14936 -0.05600
C 	C 	0.38234 0.41251 0.12094 -0.03600
H 	H 	0.40760 0.42950 0.13170 0.06200
C 	C 	0.37612 0.40720 0.07524 0.00900
H 	H 	0.39850 0.42010 0.05580 0.04600
C 	C 	0.33283 0.37739 0.00973 0.39000
C 	C 	0.18153 0.67093 0.81172 0.36800
C 	C 	0.17893 0.70879 0.83348 -0.06600
C 	C 	0.13030 0.72390 0.84504 -0.03300
H 	H 	0.09810 0.71100 0.84010 0.05700
C 	C 	0.22640 0.72821 0.84079 -0.03800
H 	H 	0.25950 0.71720 0.83390 0.05600
C 	C 	0.22548 0.76374 0.85824 -0.00100
H 	H 	0.25760 0.77710 0.86170 0.02500
C 	C 	0.35917 0.39539 0.19739 0.33000
C 	C 	0.02777 0.56283 0.82721 -0.00700
H 	H 	0.04980 0.54570 0.84170 0.02500
C 	C 	0.47195 0.42539 0.88312 0.00500
H 	H 	0.45000 0.44230 0.86810 0.02700
Co	Co	0.11999 0.60634 0.77935 1.17200
Co	Co	0.37768 0.38042 0.92383 1.17800
Co	Co	0.23641 0.35973 0.94696 1.09600
N 	N 	0.45412 0.39675 0.90857 -0.23900
N 	N 	0.04553 0.59193 0.80265 -0.23700
O 	O 	0.25763 0.41107 0.92435 -0.50000
O 	O 	0.33771 0.41935 0.89201 -0.47000
O 	O 	0.24069 0.58057 0.79489 -0.45000
O 	O 	0.15616 0.56144 0.80565 -0.45300
O 	O 	0.13007 0.83212 0.89735 -0.45500
O 	O 	0.22103 0.83132 0.90129 -0.51000
O 	O 	0.29390 0.35820 0.99622 -0.49400
O 	O 	0.36927 0.39185 0.98606 -0.46000
O 	O 	0.22455 0.66236 0.79276 -0.42800
O 	O 	0.13856 0.65121 0.81385 -0.44600
O 	O 	0.33241 0.37570 0.22457 -0.48800
O 	O 	0.39529 0.41662 0.21196 -0.36300
O 	O 	0.95515 0.65166 0.75012 -0.16900
O 	O 	0.45541 0.33717 0.96200 -0.16800
C 	C 	0.50000 0.10732 0.78864 0.15600
N 	N 	0.50000 0.13821 0.76133 -0.03100
C 	C 	0.00000 0.60732 0.78864 0.15000
N 	N 	0.00000 0.63821 0.76133 -0.03400
C 	C 	0.50000 0.39268 0.28864 0.15600
N 	N 	0.50000 0.36179 0.26133 -0.03100
C 	C 	0.00000 0.89268 0.28864 0.15000
N 	N 	-0.00000 0.86179 0.26133 -0.03400
C 	C 	0.50000 0.60732 0.71136 0.15600
N 	N 	0.50000 0.63821 0.73867 -0.03100
C 	C 	-0.00000 0.10732 0.71136 0.15000
N 	N 	0.00000 0.13821 0.73867 -0.03400
C 	C 	0.50000 0.89268 0.21136 0.15600
N 	N 	0.50000 0.86179 0.23867 -0.03100
C 	C 	0.00000 0.39268 0.21136 0.15000
N 	N 	0.00000 0.36179 0.23867 -0.03400
C 	C 	0.00000 0.88067 0.92311 0.14600
N 	N 	0.00000 0.84985 0.95049 -0.02900
C 	C 	0.50000 0.38067 0.92311 0.15200
N 	N 	0.50000 0.34985 0.95049 -0.02700
C 	C 	0.00000 0.61933 0.42311 0.14600
N 	N 	0.00000 0.65015 0.45049 -0.02900
C 	C 	0.50000 0.11933 0.42311 0.15200
N 	N 	0.50000 0.15015 0.45049 -0.02700
C 	C 	-0.00000 0.38067 0.57689 0.14600
N 	N 	-0.00000 0.34985 0.54951 -0.02900
C 	C 	0.50000 0.88067 0.57689 0.15200
N 	N 	0.50000 0.84985 0.54951 -0.02700
C 	C 	0.00000 0.11933 0.07689 0.14600
N 	N 	0.00000 0.15015 0.04951 -0.02900
C 	C 	0.50000 0.61933 0.07689 0.15200
N 	N 	0.50000 0.65015 0.04951 -0.02700
Co	Co	0.25000 0.12250 0.75000 1.19900
Co	Co	0.75000 0.37750 0.25000 1.19900
Co	Co	0.75000 0.62250 0.75000 1.19900
Co	Co	0.25000 0.87750 0.25000 1.19900
Co	Co	0.75000 0.87750 0.25000 1.19900
Co	Co	0.25000 0.62250 0.75000 1.19900
Co	Co	0.25000 0.37750 0.25000 1.19900
Co	Co	0.75000 0.12250 0.75000 1.19900
