data_crystal

_cell_length_a 32.07840
_cell_length_b 18.44910
_cell_length_c 41.24950
_cell_angle_alpha 90.00000
_cell_angle_beta  118.55000
_cell_angle_gamma 90.00000

_symmetry_space_group_name_	'P 1'
_symmetry_space_group_name_H-M	'P 1'

loop_
_symmetry_equiv_pos_as_xyz
  x,y,z

loop_
_atom_site_label
_atom_site_type_symbol
_atom_site_fract_x
_atom_site_fract_y
_atom_site_fract_z
_atom_site_charge
Cu	Cu	0.21781 0.17692 0.22179 0.90200
Cu	Cu	0.27816 0.25088 0.28090 0.90100
Cu	Cu	0.99395 0.96391 0.27988 0.90400
O 	O 	0.26109 0.83350 0.24829 -0.40100
O 	O 	0.31278 0.77020 0.29822 -0.39600
O 	O 	0.23385 0.23170 0.29916 -0.41900
O 	O 	0.30635 0.15320 0.29937 -0.42100
O 	O 	0.04557 0.89100 0.29632 -0.41000
O 	O 	0.18310 0.16850 0.24977 -0.41100
O 	O 	0.25600 0.09330 0.24852 -0.41500
O 	O 	0.05396 0.03580 0.25045 -0.42500
O 	O 	0.04207 0.04020 0.29915 -0.39700
O 	O 	0.05220 0.88790 0.24452 -0.41000
O 	O 	0.23654 0.69840 0.29581 -0.39400
O 	O 	0.18448 0.76090 0.24471 -0.40200
C 	C 	0.06530 0.05540 0.28137 0.36900
C 	C 	0.20119 0.74080 0.27753 0.33000
C 	C 	0.22480 0.74300 0.46139 -0.02700
C 	C 	0.19260 0.21590 0.42408 -0.00000
C 	C 	0.29603 0.82950 0.28019 0.33500
C 	C 	0.31650 0.89870 0.29922 -0.06700
C 	C 	0.16800 0.17590 0.29978 -0.07700
C 	C 	0.28755 0.10020 0.28127 0.37400
C 	C 	0.46940 0.98690 0.46231 -0.02600
C 	C 	0.21950 0.23410 0.46158 -0.02500
C 	C 	0.12867 0.13230 0.28228 0.02100
H 	H 	0.11870 0.11740 0.25810 0.05400
C 	C 	0.29806 0.96390 0.28154 0.00700
H 	H 	0.27470 0.96380 0.25690 0.05900
C 	C 	0.10373 0.11010 0.30023 -0.08100
C 	C 	0.12043 0.79830 0.33202 -0.03600
H 	H 	0.10330 0.81150 0.34400 0.06100
C 	C 	0.06376 0.86970 0.27714 0.36200
C 	C 	0.17410 0.19960 0.39217 -0.03000
C 	C 	0.50150 0.93630 0.48406 0.01200
C 	C 	0.19694 0.19560 0.28124 0.36200
C 	C 	0.35300 0.89860 0.33627 -0.04400
H 	H 	0.36540 0.85520 0.34860 0.06200
C 	C 	0.34950 0.02840 0.33571 -0.04800
H 	H 	0.36010 0.07250 0.34780 0.06500
C 	C 	0.11770 0.13410 0.33629 -0.03100
H 	H 	0.10080 0.12000 0.34830 0.05900
C 	C 	0.10413 0.82060 0.29518 -0.07700
C 	C 	0.24920 0.42350 0.46070 0.02700
C 	C 	0.12950 0.79550 0.27695 0.01000
H 	H 	0.11800 0.80570 0.25200 0.05800
C 	C 	0.43530 0.97520 0.42386 0.00100
C 	C 	0.18330 0.19870 0.33617 -0.03400
H 	H 	0.21060 0.22670 0.34840 0.05800
C 	C 	0.17080 0.75620 0.29569 -0.05600
C 	C 	0.20040 0.75200 0.48130 0.01200
C 	C 	0.31330 0.02730 0.29930 -0.05600
C 	C 	0.37010 0.96470 0.35407 0.03200
C 	C 	0.19940 0.73990 0.42143 0.00300
C 	C 	0.25110 0.29440 0.47395 0.01300
C 	C 	0.50050 0.80570 0.49700 0.01700
C 	C 	0.18590 0.73570 0.33230 -0.04700
H 	H 	0.21290 0.70710 0.34440 0.06400
C 	C 	0.40670 0.96760 0.39215 -0.03400
C 	C 	0.53230 0.81720 0.53340 0.03800
C 	C 	0.53430 0.77350 0.56020 -0.09000
H 	H 	0.55690 0.77990 0.58480 0.06100
C 	C 	0.27900 0.43730 0.49700 0.02100
C 	C 	0.22050 0.19300 0.49087 0.01000
C 	C 	0.33900 0.35600 0.49410 0.01700
C 	C 	0.46865 0.05340 0.47927 0.01300
C 	C 	0.27460 0.74120 0.47993 0.01400
C 	C 	0.63810 0.86680 0.52830 -0.07800
H 	H 	0.65950 0.87230 0.55330 0.06100
C 	C 	0.15710 0.17900 0.35393 0.02200
C 	C 	0.25580 0.34800 0.44711 -0.08800
H 	H 	0.23420 0.33840 0.42100 0.06100
C 	C 	0.13890 0.82960 0.47980 0.02500
C 	C 	0.38500 0.35260 0.50490 -0.06300
H 	H 	0.40650 0.36020 0.52960 0.05200
C 	C 	0.16370 0.83990 0.51890 0.02900
C 	C 	0.10800 0.88660 0.45640 -0.07600
H 	H 	0.09110 0.88290 0.43080 0.05500
C 	C 	0.15480 0.65070 0.54650 -0.06800
H 	H 	0.17200 0.65410 0.57210 0.05700
C 	C 	0.16180 0.75680 0.35091 0.03000
C 	C 	0.18000 0.74350 0.38886 -0.03400
C 	C 	0.16080 0.70560 0.52430 0.02100
C 	C 	0.55800 0.85710 0.47850 0.02200
C 	C 	0.14600 0.75810 0.46570 -0.08700
H 	H 	0.12810 0.75360 0.43880 0.06100
C 	C 	0.50680 0.85970 0.47050 -0.07800
H 	H 	0.48420 0.85110 0.44440 0.05800
C 	C 	0.13550 0.69920 0.48560 0.03300
C 	C 	0.31280 0.37280 0.51630 -0.07700
H 	H 	0.33420 0.38140 0.54260 0.05800
C 	C 	0.27870 0.50350 0.51340 -0.06600
H 	H 	0.30050 0.51380 0.53780 0.05800
C 	C 	0.46780 0.75110 0.48670 -0.06300
H 	H 	0.44590 0.74510 0.46190 0.05300
C 	C 	0.21420 0.47650 0.43910 -0.08000
H 	H 	0.19320 0.46770 0.41430 0.06000
C 	C 	0.57610 0.84090 0.45450 -0.07100
H 	H 	0.55540 0.82950 0.43000 0.05700
C 	C 	0.30880 0.34580 0.45790 0.04000
C 	C 	0.32340 0.33410 0.43230 -0.09700
H 	H 	0.30130 0.32970 0.40740 0.06300
C 	C 	0.56580 0.88130 0.53865 -0.09300
H 	H 	0.58820 0.88990 0.56470 0.06200
C 	C 	0.58960 0.86860 0.51700 0.03400
C 	C 	0.15810 0.89810 0.53390 -0.07900
H 	H 	0.17390 0.90040 0.55950 0.05800
C 	C 	0.24430 0.55270 0.49150 -0.03500
H 	H 	0.24240 0.59700 0.50140 0.04900
C 	C 	0.19390 0.76940 0.53770 -0.08500
H 	H 	0.21170 0.77270 0.56460 0.06000
C 	C 	0.50060 0.71780 0.54940 -0.01900
H 	H 	0.50040 0.68750 0.56740 0.03400
C 	C 	0.46660 0.70620 0.51180 -0.04000
H 	H 	0.44450 0.66900 0.50490 0.04700
C 	C 	0.10630 0.94640 0.47550 -0.03100
H 	H 	0.08730 0.98490 0.46190 0.03800
C 	C 	0.62480 0.84170 0.46700 -0.03000
H 	H 	0.63650 0.83190 0.45070 0.04500
C 	C 	0.36880 0.32910 0.44290 -0.00100
H 	H 	0.37880 0.31960 0.42550 0.02800
C 	C 	0.40240 0.33780 0.47970 -0.05000
H 	H 	0.43480 0.33410 0.48750 0.05000
C 	C 	0.10430 0.64240 0.47000 -0.08000
H 	H 	0.08630 0.63870 0.44450 0.06100
C 	C 	0.10010 0.59130 0.49240 -0.02000
H 	H 	0.07980 0.55240 0.48140 0.04300
C 	C 	0.12530 0.59490 0.53140 -0.03100
H 	H 	0.12130 0.55980 0.54590 0.04600
C 	C 	0.21200 0.53690 0.45440 -0.01500
H 	H 	0.18860 0.57060 0.44050 0.03900
C 	C 	0.65580 0.85700 0.50360 -0.02300
H 	H 	0.68820 0.86070 0.51170 0.04500
C 	C 	0.13230 0.95410 0.51610 -0.02700
H 	H 	0.13040 0.99570 0.52810 0.04100
Cu	Cu	0.71781 0.67692 0.22179 0.90300
Cu	Cu	0.77816 0.75088 0.28090 0.90200
Cu	Cu	0.49395 0.46391 0.27988 0.90600
O 	O 	0.76109 0.33350 0.24829 -0.40000
O 	O 	0.81278 0.27020 0.29822 -0.39500
O 	O 	0.73385 0.73170 0.29916 -0.41800
O 	O 	0.80635 0.65320 0.29937 -0.42000
O 	O 	0.54557 0.39100 0.29632 -0.40900
O 	O 	0.68310 0.66850 0.24977 -0.41100
O 	O 	0.75600 0.59330 0.24852 -0.41500
O 	O 	0.55396 0.53580 0.25045 -0.42500
O 	O 	0.54207 0.54020 0.29915 -0.39700
O 	O 	0.55220 0.38790 0.24452 -0.41000
O 	O 	0.73654 0.19840 0.29581 -0.39400
O 	O 	0.68448 0.26090 0.24471 -0.40200
C 	C 	0.56530 0.55540 0.28137 0.36900
C 	C 	0.70119 0.24080 0.27753 0.33000
C 	C 	0.72480 0.24300 0.46139 -0.02700
C 	C 	0.69260 0.71590 0.42408 -0.00000
C 	C 	0.79603 0.32950 0.28019 0.33500
C 	C 	0.81650 0.39870 0.29922 -0.06700
C 	C 	0.66800 0.67590 0.29978 -0.07700
C 	C 	0.78755 0.60020 0.28127 0.37400
C 	C 	0.96940 0.48690 0.46231 -0.02600
C 	C 	0.71950 0.73410 0.46158 -0.02500
C 	C 	0.62867 0.63230 0.28228 0.02200
H 	H 	0.61870 0.61740 0.25810 0.05300
C 	C 	0.79806 0.46390 0.28154 0.00700
H 	H 	0.77470 0.46380 0.25690 0.05900
C 	C 	0.60373 0.61010 0.30023 -0.08100
C 	C 	0.62043 0.29830 0.33202 -0.03600
H 	H 	0.60330 0.31150 0.34400 0.06100
C 	C 	0.56376 0.36970 0.27714 0.36200
C 	C 	0.67410 0.69960 0.39217 -0.03000
C 	C 	0.00150 0.43630 0.48406 0.01200
C 	C 	0.69694 0.69560 0.28124 0.36200
C 	C 	0.85300 0.39860 0.33627 -0.04400
H 	H 	0.86540 0.35520 0.34860 0.06200
C 	C 	0.84950 0.52840 0.33571 -0.04800
H 	H 	0.86010 0.57250 0.34780 0.06500
C 	C 	0.61770 0.63410 0.33629 -0.03100
H 	H 	0.60080 0.62000 0.34830 0.05900
C 	C 	0.60413 0.32060 0.29518 -0.07700
C 	C 	0.74920 0.92350 0.46070 0.02700
C 	C 	0.62950 0.29550 0.27695 0.01000
H 	H 	0.61800 0.30570 0.25200 0.05800
C 	C 	0.93530 0.47520 0.42386 0.00100
C 	C 	0.68330 0.69870 0.33617 -0.03400
H 	H 	0.71060 0.72670 0.34840 0.05800
C 	C 	0.67080 0.25620 0.29569 -0.05600
C 	C 	0.70040 0.25200 0.48130 0.01200
C 	C 	0.81330 0.52730 0.29930 -0.05600
C 	C 	0.87010 0.46470 0.35407 0.03200
C 	C 	0.69940 0.23990 0.42143 0.00300
C 	C 	0.75110 0.79440 0.47395 0.01300
C 	C 	0.00050 0.30570 0.49700 0.01700
C 	C 	0.68590 0.23570 0.33230 -0.04700
H 	H 	0.71290 0.20710 0.34440 0.06400
C 	C 	0.90670 0.46760 0.39215 -0.03400
C 	C 	0.03230 0.31720 0.53340 0.03800
C 	C 	0.03430 0.27350 0.56020 -0.09000
H 	H 	0.05690 0.27990 0.58480 0.06100
C 	C 	0.77900 0.93730 0.49700 0.02100
C 	C 	0.72050 0.69300 0.49087 0.01000
C 	C 	0.83900 0.85600 0.49410 0.01700
C 	C 	0.96865 0.55340 0.47927 0.01300
C 	C 	0.77460 0.24120 0.47993 0.01400
C 	C 	0.13810 0.36680 0.52830 -0.07800
H 	H 	0.15950 0.37230 0.55330 0.06100
C 	C 	0.65710 0.67900 0.35393 0.02200
C 	C 	0.75580 0.84800 0.44711 -0.08800
H 	H 	0.73420 0.83840 0.42100 0.06100
C 	C 	0.63890 0.32960 0.47980 0.02500
C 	C 	0.88500 0.85260 0.50490 -0.06300
H 	H 	0.90650 0.86020 0.52960 0.05200
C 	C 	0.66370 0.33990 0.51890 0.02900
C 	C 	0.60800 0.38660 0.45640 -0.07600
H 	H 	0.59110 0.38290 0.43080 0.05500
C 	C 	0.65480 0.15070 0.54650 -0.06800
H 	H 	0.67200 0.15410 0.57210 0.05700
C 	C 	0.66180 0.25680 0.35091 0.03000
C 	C 	0.68000 0.24350 0.38886 -0.03400
C 	C 	0.66080 0.20560 0.52430 0.02100
C 	C 	0.05800 0.35710 0.47850 0.02200
C 	C 	0.64600 0.25810 0.46570 -0.08700
H 	H 	0.62810 0.25360 0.43880 0.06100
C 	C 	0.00680 0.35970 0.47050 -0.07800
H 	H 	0.98420 0.35110 0.44440 0.05800
C 	C 	0.63550 0.19920 0.48560 0.03300
C 	C 	0.81280 0.87280 0.51630 -0.07700
H 	H 	0.83420 0.88140 0.54260 0.05800
C 	C 	0.77870 0.00350 0.51340 -0.06600
H 	H 	0.80050 0.01380 0.53780 0.05800
C 	C 	0.96780 0.25110 0.48670 -0.06300
H 	H 	0.94590 0.24510 0.46190 0.05300
C 	C 	0.71420 0.97650 0.43910 -0.08000
H 	H 	0.69320 0.96770 0.41430 0.06000
C 	C 	0.07610 0.34090 0.45450 -0.07100
H 	H 	0.05540 0.32950 0.43000 0.05700
C 	C 	0.80880 0.84580 0.45790 0.04000
C 	C 	0.82340 0.83410 0.43230 -0.09700
H 	H 	0.80130 0.82970 0.40740 0.06300
C 	C 	0.06580 0.38130 0.53865 -0.09300
H 	H 	0.08820 0.38990 0.56470 0.06200
C 	C 	0.08960 0.36860 0.51700 0.03400
C 	C 	0.65810 0.39810 0.53390 -0.07900
H 	H 	0.67390 0.40040 0.55950 0.05800
C 	C 	0.74430 0.05270 0.49150 -0.03500
H 	H 	0.74240 0.09700 0.50140 0.04900
C 	C 	0.69390 0.26940 0.53770 -0.08500
H 	H 	0.71170 0.27270 0.56460 0.06000
C 	C 	0.00060 0.21780 0.54940 -0.01900
H 	H 	0.00040 0.18750 0.56740 0.03400
C 	C 	0.96660 0.20620 0.51180 -0.04000
H 	H 	0.94450 0.16900 0.50490 0.04700
C 	C 	0.60630 0.44640 0.47550 -0.03100
H 	H 	0.58730 0.48490 0.46190 0.03800
C 	C 	0.12480 0.34170 0.46700 -0.02900
H 	H 	0.13650 0.33190 0.45070 0.04500
C 	C 	0.86880 0.82910 0.44290 -0.00200
H 	H 	0.87880 0.81960 0.42550 0.02800
C 	C 	0.90240 0.83780 0.47970 -0.05000
H 	H 	0.93480 0.83410 0.48750 0.05000
C 	C 	0.60430 0.14240 0.47000 -0.08000
H 	H 	0.58630 0.13870 0.44450 0.06100
C 	C 	0.60010 0.09130 0.49240 -0.02000
H 	H 	0.57980 0.05240 0.48140 0.04300
C 	C 	0.62530 0.09490 0.53140 -0.03100
H 	H 	0.62130 0.05980 0.54590 0.04600
C 	C 	0.71200 0.03690 0.45440 -0.01500
H 	H 	0.68860 0.07060 0.44050 0.03900
C 	C 	0.15580 0.35700 0.50360 -0.02300
H 	H 	0.18820 0.36070 0.51170 0.04500
C 	C 	0.63230 0.45410 0.51610 -0.02700
H 	H 	0.63040 0.49570 0.52810 0.04100
Cu	Cu	0.78219 0.17692 0.27821 0.90300
Cu	Cu	0.72184 0.25088 0.21909 0.90200
Cu	Cu	0.00605 0.96391 0.22012 0.90500
O 	O 	0.73891 0.83350 0.25171 -0.40000
O 	O 	0.68722 0.77020 0.20178 -0.39500
O 	O 	0.76615 0.23170 0.20084 -0.41800
O 	O 	0.69365 0.15320 0.20063 -0.42000
O 	O 	0.95443 0.89100 0.20368 -0.40900
O 	O 	0.81690 0.16850 0.25023 -0.41100
O 	O 	0.74400 0.09330 0.25148 -0.41500
O 	O 	0.94604 0.03580 0.24955 -0.42500
O 	O 	0.95793 0.04020 0.20085 -0.39700
O 	O 	0.94780 0.88790 0.25548 -0.41000
O 	O 	0.76346 0.69840 0.20419 -0.39400
O 	O 	0.81552 0.76090 0.25529 -0.40200
C 	C 	0.93470 0.05540 0.21863 0.36900
C 	C 	0.79881 0.74080 0.22247 0.33000
C 	C 	0.77520 0.74300 0.03861 -0.02700
C 	C 	0.80740 0.21590 0.07592 -0.00000
C 	C 	0.70397 0.82950 0.21981 0.33500
C 	C 	0.68350 0.89870 0.20078 -0.06700
C 	C 	0.83200 0.17590 0.20022 -0.07700
C 	C 	0.71245 0.10020 0.21873 0.37400
C 	C 	0.53060 0.98690 0.03769 -0.02600
C 	C 	0.78050 0.23410 0.03842 -0.02500
C 	C 	0.87133 0.13230 0.21772 0.02200
H 	H 	0.88130 0.11740 0.24190 0.05400
C 	C 	0.70194 0.96390 0.21846 0.00700
H 	H 	0.72530 0.96380 0.24310 0.05900
C 	C 	0.89627 0.11010 0.19977 -0.08100
C 	C 	0.87957 0.79830 0.16798 -0.03600
H 	H 	0.89670 0.81150 0.15600 0.06100
C 	C 	0.93624 0.86970 0.22286 0.36200
C 	C 	0.82590 0.19960 0.10783 -0.03000
C 	C 	0.49850 0.93630 0.01594 0.01200
C 	C 	0.80306 0.19560 0.21876 0.36200
C 	C 	0.64700 0.89860 0.16373 -0.04400
H 	H 	0.63460 0.85520 0.15140 0.06200
C 	C 	0.65050 0.02840 0.16429 -0.04800
H 	H 	0.63990 0.07250 0.15220 0.06500
C 	C 	0.88230 0.13410 0.16371 -0.03100
H 	H 	0.89920 0.12000 0.15170 0.05900
C 	C 	0.89587 0.82060 0.20482 -0.07700
C 	C 	0.75080 0.42350 0.03930 0.02700
C 	C 	0.87050 0.79550 0.22305 0.01000
H 	H 	0.88200 0.80570 0.24800 0.05800
C 	C 	0.56470 0.97520 0.07614 0.00100
C 	C 	0.81670 0.19870 0.16383 -0.03400
H 	H 	0.78940 0.22670 0.15160 0.05800
C 	C 	0.82920 0.75620 0.20431 -0.05600
C 	C 	0.79960 0.75200 0.01870 0.01200
C 	C 	0.68670 0.02730 0.20070 -0.05600
C 	C 	0.62990 0.96470 0.14593 0.03200
C 	C 	0.80060 0.73990 0.07857 0.00300
C 	C 	0.74890 0.29440 0.02605 0.01300
C 	C 	0.49950 0.80570 0.00300 0.01700
C 	C 	0.81410 0.73570 0.16770 -0.04700
H 	H 	0.78710 0.70710 0.15560 0.06400
C 	C 	0.59330 0.96760 0.10785 -0.03400
C 	C 	0.46770 0.81720 0.96660 0.03800
C 	C 	0.46570 0.77350 0.93980 -0.09000
H 	H 	0.44310 0.77990 0.91520 0.06100
C 	C 	0.72100 0.43730 0.00300 0.02200
C 	C 	0.77950 0.19300 0.00913 0.01000
C 	C 	0.66100 0.35600 0.00590 0.01700
C 	C 	0.53135 0.05340 0.02073 0.01400
C 	C 	0.72540 0.74120 0.02007 0.01400
C 	C 	0.36190 0.86680 0.97170 -0.07900
H 	H 	0.34050 0.87230 0.94670 0.06100
C 	C 	0.84290 0.17900 0.14607 0.02200
C 	C 	0.74420 0.34800 0.05289 -0.08800
H 	H 	0.76580 0.33840 0.07900 0.06100
C 	C 	0.86110 0.82960 0.02020 0.02500
C 	C 	0.61500 0.35260 0.99510 -0.06300
H 	H 	0.59350 0.36020 0.97040 0.05200
C 	C 	0.83630 0.83990 0.98110 0.02900
C 	C 	0.89200 0.88660 0.04360 -0.07600
H 	H 	0.90890 0.88290 0.06920 0.05500
C 	C 	0.84520 0.65070 0.95350 -0.06800
H 	H 	0.82800 0.65410 0.92790 0.05700
C 	C 	0.83820 0.75680 0.14909 0.03000
C 	C 	0.82000 0.74350 0.11114 -0.03400
C 	C 	0.83920 0.70560 0.97570 0.02200
C 	C 	0.44200 0.85710 0.02150 0.02200
C 	C 	0.85400 0.75810 0.03430 -0.08700
H 	H 	0.87190 0.75360 0.06120 0.06000
C 	C 	0.49320 0.85970 0.02950 -0.07800
H 	H 	0.51580 0.85110 0.05560 0.05800
C 	C 	0.86450 0.69920 0.01440 0.03300
C 	C 	0.68720 0.37280 0.98370 -0.07700
H 	H 	0.66580 0.38140 0.95740 0.05800
C 	C 	0.72130 0.50350 0.98660 -0.06600
H 	H 	0.69950 0.51380 0.96220 0.05800
C 	C 	0.53220 0.75110 0.01330 -0.06300
H 	H 	0.55410 0.74510 0.03810 0.05300
C 	C 	0.78580 0.47650 0.06090 -0.07900
H 	H 	0.80680 0.46770 0.08570 0.06000
C 	C 	0.42390 0.84090 0.04550 -0.07100
H 	H 	0.44460 0.82950 0.07000 0.05700
C 	C 	0.69120 0.34580 0.04210 0.04000
C 	C 	0.67660 0.33410 0.06770 -0.09600
H 	H 	0.69870 0.32970 0.09260 0.06300
C 	C 	0.43420 0.88130 0.96135 -0.09300
H 	H 	0.41180 0.88990 0.93530 0.06200
C 	C 	0.41040 0.86860 0.98300 0.03500
C 	C 	0.84190 0.89810 0.96610 -0.08000
H 	H 	0.82610 0.90040 0.94050 0.05900
C 	C 	0.75570 0.55270 0.00850 -0.03500
H 	H 	0.75760 0.59700 0.99860 0.04900
C 	C 	0.80610 0.76940 0.96230 -0.08500
H 	H 	0.78830 0.77270 0.93540 0.06000
C 	C 	0.49940 0.71780 0.95060 -0.01900
H 	H 	0.49960 0.68750 0.93260 0.03400
C 	C 	0.53340 0.70620 0.98820 -0.04000
H 	H 	0.55550 0.66900 0.99510 0.04700
C 	C 	0.89370 0.94640 0.02450 -0.03100
H 	H 	0.91270 0.98490 0.03810 0.03800
C 	C 	0.37520 0.84170 0.03300 -0.03000
H 	H 	0.36350 0.83190 0.04930 0.04500
C 	C 	0.63120 0.32910 0.05710 -0.00200
H 	H 	0.62120 0.31960 0.07450 0.02800
C 	C 	0.59760 0.33780 0.02030 -0.04900
H 	H 	0.56520 0.33410 0.01250 0.05000
C 	C 	0.89570 0.64240 0.03000 -0.08000
H 	H 	0.91370 0.63870 0.05550 0.06100
C 	C 	0.89990 0.59130 0.00760 -0.02000
H 	H 	0.92020 0.55240 0.01860 0.04300
C 	C 	0.87470 0.59490 0.96860 -0.03100
H 	H 	0.87870 0.55980 0.95410 0.04600
C 	C 	0.78800 0.53690 0.04560 -0.01600
H 	H 	0.81140 0.57060 0.05950 0.03900
C 	C 	0.34420 0.85700 0.99640 -0.02200
H 	H 	0.31180 0.86070 0.98830 0.04400
C 	C 	0.86770 0.95410 0.98390 -0.02600
H 	H 	0.86960 0.99570 0.97190 0.04100
Cu	Cu	0.28219 0.67692 0.27821 0.90300
Cu	Cu	0.22184 0.75088 0.21910 0.90200
Cu	Cu	0.50605 0.46391 0.22012 0.90600
O 	O 	0.23891 0.33350 0.25171 -0.40000
O 	O 	0.18722 0.27020 0.20178 -0.39500
O 	O 	0.26615 0.73170 0.20084 -0.41800
O 	O 	0.19365 0.65320 0.20063 -0.42000
O 	O 	0.45443 0.39100 0.20368 -0.40900
O 	O 	0.31690 0.66850 0.25023 -0.41100
O 	O 	0.24400 0.59330 0.25148 -0.41500
O 	O 	0.44604 0.53580 0.24955 -0.42500
O 	O 	0.45793 0.54020 0.20085 -0.39700
O 	O 	0.44780 0.38790 0.25548 -0.41000
O 	O 	0.26346 0.19840 0.20419 -0.39400
O 	O 	0.31552 0.26090 0.25529 -0.40200
C 	C 	0.43470 0.55540 0.21863 0.36900
C 	C 	0.29881 0.24080 0.22247 0.33000
C 	C 	0.27520 0.24300 0.03861 -0.02700
C 	C 	0.30740 0.71590 0.07592 -0.00000
C 	C 	0.20397 0.32950 0.21981 0.33500
C 	C 	0.18350 0.39870 0.20078 -0.06700
C 	C 	0.33200 0.67590 0.20022 -0.07700
C 	C 	0.21245 0.60020 0.21873 0.37400
C 	C 	0.03060 0.48690 0.03769 -0.02600
C 	C 	0.28050 0.73410 0.03842 -0.02500
C 	C 	0.37133 0.63230 0.21772 0.02200
H 	H 	0.38130 0.61740 0.24190 0.05300
C 	C 	0.20194 0.46390 0.21846 0.00700
H 	H 	0.22530 0.46380 0.24310 0.05900
C 	C 	0.39627 0.61010 0.19977 -0.08100
C 	C 	0.37957 0.29830 0.16798 -0.03600
H 	H 	0.39670 0.31150 0.15600 0.06100
C 	C 	0.43624 0.36970 0.22286 0.36200
C 	C 	0.32590 0.69960 0.10783 -0.03000
C 	C 	0.99850 0.43630 0.01594 0.01200
C 	C 	0.30306 0.69560 0.21876 0.36200
C 	C 	0.14700 0.39860 0.16373 -0.04400
H 	H 	0.13460 0.35520 0.15140 0.06200
C 	C 	0.15050 0.52840 0.16429 -0.04800
H 	H 	0.13990 0.57250 0.15220 0.06500
C 	C 	0.38230 0.63410 0.16371 -0.03100
H 	H 	0.39920 0.62000 0.15170 0.05900
C 	C 	0.39587 0.32060 0.20482 -0.07700
C 	C 	0.25080 0.92350 0.03930 0.02700
C 	C 	0.37050 0.29550 0.22305 0.01000
H 	H 	0.38200 0.30570 0.24800 0.05800
C 	C 	0.06470 0.47520 0.07614 0.00100
C 	C 	0.31670 0.69870 0.16383 -0.03400
H 	H 	0.28940 0.72670 0.15160 0.05800
C 	C 	0.32920 0.25620 0.20431 -0.05600
C 	C 	0.29960 0.25200 0.01870 0.01200
C 	C 	0.18670 0.52730 0.20070 -0.05600
C 	C 	0.12990 0.46470 0.14593 0.03200
C 	C 	0.30060 0.23990 0.07857 0.00300
C 	C 	0.24890 0.79440 0.02605 0.01300
C 	C 	0.99950 0.30570 0.00300 0.01800
C 	C 	0.31410 0.23570 0.16770 -0.04700
H 	H 	0.28710 0.20710 0.15560 0.06400
C 	C 	0.09330 0.46760 0.10785 -0.03400
C 	C 	0.96770 0.31720 0.96660 0.03700
C 	C 	0.96570 0.27350 0.93980 -0.08900
H 	H 	0.94310 0.27990 0.91520 0.06000
C 	C 	0.22100 0.93730 0.00300 0.02100
C 	C 	0.27950 0.69300 0.00913 0.00900
C 	C 	0.16100 0.85600 0.00590 0.01600
C 	C 	0.03135 0.55340 0.02073 0.01300
C 	C 	0.22540 0.24120 0.02007 0.01400
C 	C 	0.86190 0.36680 0.97170 -0.07800
H 	H 	0.84050 0.37230 0.94670 0.06000
C 	C 	0.34290 0.67900 0.14607 0.02200
C 	C 	0.24420 0.84800 0.05289 -0.08900
H 	H 	0.26580 0.83840 0.07900 0.06200
C 	C 	0.36110 0.32960 0.02020 0.02500
C 	C 	0.11500 0.85260 0.99510 -0.06100
H 	H 	0.09350 0.86020 0.97040 0.05100
C 	C 	0.33630 0.33990 0.98110 0.02900
C 	C 	0.39200 0.38660 0.04360 -0.07700
H 	H 	0.40890 0.38290 0.06920 0.05500
C 	C 	0.34520 0.15070 0.95350 -0.06800
H 	H 	0.32800 0.15410 0.92790 0.05700
C 	C 	0.33820 0.25680 0.14909 0.03000
C 	C 	0.32000 0.24350 0.11114 -0.03400
C 	C 	0.33920 0.20560 0.97570 0.02100
C 	C 	0.94200 0.35710 0.02150 0.02300
C 	C 	0.35400 0.25810 0.03430 -0.08700
H 	H 	0.37190 0.25360 0.06120 0.06100
C 	C 	0.99320 0.35970 0.02950 -0.07800
H 	H 	0.01580 0.35110 0.05560 0.05800
C 	C 	0.36450 0.19920 0.01440 0.03300
C 	C 	0.18720 0.87280 0.98370 -0.07600
H 	H 	0.16580 0.88140 0.95740 0.05700
C 	C 	0.22130 0.00350 0.98660 -0.06600
H 	H 	0.19950 0.01380 0.96220 0.05800
C 	C 	0.03220 0.25110 0.01330 -0.06400
H 	H 	0.05410 0.24510 0.03810 0.05300
C 	C 	0.28580 0.97650 0.06090 -0.08000
H 	H 	0.30680 0.96770 0.08570 0.06000
C 	C 	0.92390 0.34090 0.04550 -0.07100
H 	H 	0.94460 0.32950 0.07000 0.05700
C 	C 	0.19120 0.84580 0.04210 0.04100
C 	C 	0.17660 0.83410 0.06770 -0.09800
H 	H 	0.19870 0.82970 0.09260 0.06400
C 	C 	0.93420 0.38130 0.96135 -0.09200
H 	H 	0.91180 0.38990 0.93530 0.06200
C 	C 	0.91040 0.36860 0.98300 0.03400
C 	C 	0.34190 0.39810 0.96610 -0.07900
H 	H 	0.32610 0.40040 0.94050 0.05800
C 	C 	0.25570 0.05270 0.00850 -0.03500
H 	H 	0.25760 0.09700 0.99860 0.04900
C 	C 	0.30610 0.26940 0.96230 -0.08400
H 	H 	0.28830 0.27270 0.93540 0.06000
C 	C 	0.99940 0.21780 0.95060 -0.01900
H 	H 	0.99960 0.18750 0.93260 0.03400
C 	C 	0.03340 0.20620 0.98820 -0.04000
H 	H 	0.05550 0.16900 0.99510 0.04700
C 	C 	0.39370 0.44640 0.02450 -0.03100
H 	H 	0.41270 0.48490 0.03810 0.03800
C 	C 	0.87520 0.34170 0.03300 -0.02900
H 	H 	0.86350 0.33190 0.04930 0.04400
C 	C 	0.13120 0.82910 0.05710 -0.00000
H 	H 	0.12120 0.81960 0.07450 0.02700
C 	C 	0.09760 0.83780 0.02030 -0.05100
H 	H 	0.06520 0.83410 0.01250 0.05000
C 	C 	0.39570 0.14240 0.03000 -0.08100
H 	H 	0.41370 0.13870 0.05550 0.06100
C 	C 	0.39990 0.09130 0.00760 -0.01900
H 	H 	0.42020 0.05240 0.01860 0.04300
C 	C 	0.37470 0.09490 0.96860 -0.03200
H 	H 	0.37870 0.05980 0.95410 0.04600
C 	C 	0.28800 0.03690 0.04560 -0.01500
H 	H 	0.31140 0.07060 0.05950 0.03900
C 	C 	0.84420 0.35700 0.99640 -0.02400
H 	H 	0.81180 0.36070 0.98830 0.04500
C 	C 	0.36770 0.45410 0.98390 -0.02700
H 	H 	0.36960 0.49570 0.97190 0.04100
Cu	Cu	0.78219 0.82308 0.77821 0.90300
Cu	Cu	0.72184 0.74912 0.71910 0.90200
Cu	Cu	0.00605 0.03609 0.72012 0.90500
O 	O 	0.73891 0.16650 0.75171 -0.40000
O 	O 	0.68722 0.22980 0.70178 -0.39500
O 	O 	0.76615 0.76830 0.70084 -0.41800
O 	O 	0.69365 0.84680 0.70063 -0.42000
O 	O 	0.95443 0.10900 0.70368 -0.40900
O 	O 	0.81690 0.83150 0.75023 -0.41100
O 	O 	0.74400 0.90670 0.75148 -0.41500
O 	O 	0.94604 0.96420 0.74955 -0.42500
O 	O 	0.95793 0.95980 0.70085 -0.39700
O 	O 	0.94780 0.11210 0.75548 -0.41000
O 	O 	0.76346 0.30160 0.70419 -0.39400
O 	O 	0.81552 0.23910 0.75529 -0.40200
C 	C 	0.93470 0.94460 0.71863 0.36900
C 	C 	0.79881 0.25920 0.72247 0.33000
C 	C 	0.77520 0.25700 0.53861 -0.02700
C 	C 	0.80740 0.78410 0.57592 -0.00000
C 	C 	0.70397 0.17050 0.71981 0.33500
C 	C 	0.68350 0.10130 0.70078 -0.06700
C 	C 	0.83200 0.82410 0.70022 -0.07700
C 	C 	0.71245 0.89980 0.71873 0.37400
C 	C 	0.53060 0.01310 0.53769 -0.02600
C 	C 	0.78050 0.76590 0.53842 -0.02500
C 	C 	0.87133 0.86770 0.71772 0.02100
H 	H 	0.88130 0.88260 0.74190 0.05400
C 	C 	0.70194 0.03610 0.71846 0.00700
H 	H 	0.72530 0.03620 0.74310 0.05900
C 	C 	0.89627 0.88990 0.69977 -0.08100
C 	C 	0.87957 0.20170 0.66798 -0.03600
H 	H 	0.89670 0.18850 0.65600 0.06100
C 	C 	0.93624 0.13030 0.72286 0.36200
C 	C 	0.82590 0.80040 0.60783 -0.03000
C 	C 	0.49850 0.06370 0.51594 0.01200
C 	C 	0.80306 0.80440 0.71876 0.36200
C 	C 	0.64700 0.10140 0.66373 -0.04400
H 	H 	0.63460 0.14480 0.65140 0.06200
C 	C 	0.65050 0.97160 0.66429 -0.04800
H 	H 	0.63990 0.92750 0.65220 0.06500
C 	C 	0.88230 0.86590 0.66371 -0.03100
H 	H 	0.89920 0.88000 0.65170 0.05900
C 	C 	0.89587 0.17940 0.70482 -0.07700
C 	C 	0.75080 0.57650 0.53930 0.02700
C 	C 	0.87050 0.20450 0.72305 0.01000
H 	H 	0.88200 0.19430 0.74800 0.05800
C 	C 	0.56470 0.02480 0.57614 0.00100
C 	C 	0.81670 0.80130 0.66383 -0.03400
H 	H 	0.78940 0.77330 0.65160 0.05800
C 	C 	0.82920 0.24380 0.70431 -0.05600
C 	C 	0.79960 0.24800 0.51870 0.01200
C 	C 	0.68670 0.97270 0.70070 -0.05600
C 	C 	0.62990 0.03530 0.64593 0.03200
C 	C 	0.80060 0.26010 0.57857 0.00300
C 	C 	0.74890 0.70560 0.52605 0.01300
C 	C 	0.49950 0.19430 0.50300 0.01700
C 	C 	0.81410 0.26430 0.66770 -0.04700
H 	H 	0.78710 0.29290 0.65560 0.06400
C 	C 	0.59330 0.03240 0.60785 -0.03400
C 	C 	0.46770 0.18280 0.46660 0.03800
C 	C 	0.46570 0.22650 0.43980 -0.09000
H 	H 	0.44310 0.22010 0.41520 0.06100
C 	C 	0.72100 0.56270 0.50300 0.02100
C 	C 	0.77950 0.80700 0.50913 0.01000
C 	C 	0.66100 0.64400 0.50590 0.01700
C 	C 	0.53135 0.94660 0.52073 0.01300
C 	C 	0.72540 0.25880 0.52007 0.01400
C 	C 	0.36190 0.13320 0.47170 -0.07800
H 	H 	0.34050 0.12770 0.44670 0.06100
C 	C 	0.84290 0.82100 0.64607 0.02200
C 	C 	0.74420 0.65200 0.55289 -0.08800
H 	H 	0.76580 0.66160 0.57900 0.06100
C 	C 	0.86110 0.17040 0.52020 0.02500
C 	C 	0.61500 0.64740 0.49510 -0.06300
H 	H 	0.59350 0.63980 0.47040 0.05200
C 	C 	0.83630 0.16010 0.48110 0.02900
C 	C 	0.89200 0.11340 0.54360 -0.07600
H 	H 	0.90890 0.11710 0.56920 0.05500
C 	C 	0.84520 0.34930 0.45350 -0.06800
H 	H 	0.82800 0.34590 0.42790 0.05700
C 	C 	0.83820 0.24320 0.64909 0.03000
C 	C 	0.82000 0.25650 0.61114 -0.03400
C 	C 	0.83920 0.29440 0.47570 0.02100
C 	C 	0.44200 0.14290 0.52150 0.02200
C 	C 	0.85400 0.24190 0.53430 -0.08700
H 	H 	0.87190 0.24640 0.56120 0.06100
C 	C 	0.49320 0.14030 0.52950 -0.07800
H 	H 	0.51580 0.14890 0.55560 0.05800
C 	C 	0.86450 0.30080 0.51440 0.03300
C 	C 	0.68720 0.62720 0.48370 -0.07700
H 	H 	0.66580 0.61860 0.45740 0.05800
C 	C 	0.72130 0.49650 0.48660 -0.06600
H 	H 	0.69950 0.48620 0.46220 0.05800
C 	C 	0.53220 0.24890 0.51330 -0.06300
H 	H 	0.55410 0.25490 0.53810 0.05300
C 	C 	0.78580 0.52350 0.56090 -0.08000
H 	H 	0.80680 0.53230 0.58570 0.06000
C 	C 	0.42390 0.15910 0.54550 -0.07100
H 	H 	0.44460 0.17050 0.57000 0.05700
C 	C 	0.69120 0.65420 0.54210 0.04000
C 	C 	0.67660 0.66590 0.56770 -0.09700
H 	H 	0.69870 0.67030 0.59260 0.06300
C 	C 	0.43420 0.11870 0.46135 -0.09300
H 	H 	0.41180 0.11010 0.43530 0.06200
C 	C 	0.41040 0.13140 0.48300 0.03400
C 	C 	0.84190 0.10190 0.46610 -0.07900
H 	H 	0.82610 0.09960 0.44050 0.05800
C 	C 	0.75570 0.44730 0.50850 -0.03500
H 	H 	0.75760 0.40300 0.49860 0.04900
C 	C 	0.80610 0.23060 0.46230 -0.08500
H 	H 	0.78830 0.22730 0.43540 0.06000
C 	C 	0.49940 0.28220 0.45060 -0.01900
H 	H 	0.49960 0.31250 0.43260 0.03400
C 	C 	0.53340 0.29380 0.48820 -0.04000
H 	H 	0.55550 0.33100 0.49510 0.04700
C 	C 	0.89370 0.05360 0.52450 -0.03100
H 	H 	0.91270 0.01510 0.53810 0.03800
C 	C 	0.37520 0.15830 0.53300 -0.03000
H 	H 	0.36350 0.16810 0.54930 0.04500
C 	C 	0.63120 0.67090 0.55710 -0.00100
H 	H 	0.62120 0.68040 0.57450 0.02800
C 	C 	0.59760 0.66220 0.52030 -0.05000
H 	H 	0.56520 0.66590 0.51250 0.05000
C 	C 	0.89570 0.35760 0.53000 -0.08000
H 	H 	0.91370 0.36130 0.55550 0.06100
C 	C 	0.89990 0.40870 0.50760 -0.02000
H 	H 	0.92020 0.44760 0.51860 0.04300
C 	C 	0.87470 0.40510 0.46860 -0.03100
H 	H 	0.87870 0.44020 0.45410 0.04600
C 	C 	0.78800 0.46310 0.54560 -0.01500
H 	H 	0.81140 0.42940 0.55950 0.03900
C 	C 	0.34420 0.14300 0.49640 -0.02300
H 	H 	0.31180 0.13930 0.48830 0.04500
C 	C 	0.86770 0.04590 0.48390 -0.02700
H 	H 	0.86960 0.00430 0.47190 0.04100
Cu	Cu	0.28219 0.32308 0.77821 0.90300
Cu	Cu	0.22184 0.24912 0.71910 0.90200
Cu	Cu	0.50605 0.53609 0.72012 0.90600
O 	O 	0.23891 0.66650 0.75171 -0.40000
O 	O 	0.18722 0.72980 0.70178 -0.39500
O 	O 	0.26615 0.26830 0.70084 -0.41800
O 	O 	0.19365 0.34680 0.70063 -0.42000
O 	O 	0.45443 0.60900 0.70368 -0.40900
O 	O 	0.31690 0.33150 0.75023 -0.41100
O 	O 	0.24400 0.40670 0.75148 -0.41500
O 	O 	0.44604 0.46420 0.74955 -0.42500
O 	O 	0.45793 0.45980 0.70085 -0.39700
O 	O 	0.44780 0.61210 0.75548 -0.41000
O 	O 	0.26346 0.80160 0.70419 -0.39400
O 	O 	0.31552 0.73910 0.75529 -0.40200
C 	C 	0.43470 0.44460 0.71863 0.36900
C 	C 	0.29881 0.75920 0.72247 0.33000
C 	C 	0.27520 0.75700 0.53861 -0.02700
C 	C 	0.30740 0.28410 0.57592 -0.00000
C 	C 	0.20397 0.67050 0.71981 0.33500
C 	C 	0.18350 0.60130 0.70078 -0.06700
C 	C 	0.33200 0.32410 0.70022 -0.07700
C 	C 	0.21245 0.39980 0.71873 0.37400
C 	C 	0.03060 0.51310 0.53769 -0.02600
C 	C 	0.28050 0.26590 0.53842 -0.02500
C 	C 	0.37133 0.36770 0.71772 0.02200
H 	H 	0.38130 0.38260 0.74190 0.05300
C 	C 	0.20194 0.53610 0.71846 0.00700
H 	H 	0.22530 0.53620 0.74310 0.05900
C 	C 	0.39627 0.38990 0.69977 -0.08100
C 	C 	0.37957 0.70170 0.66798 -0.03600
H 	H 	0.39670 0.68850 0.65600 0.06100
C 	C 	0.43624 0.63030 0.72286 0.36200
C 	C 	0.32590 0.30040 0.60783 -0.03000
C 	C 	0.99850 0.56370 0.51594 0.01200
C 	C 	0.30306 0.30440 0.71876 0.36200
C 	C 	0.14700 0.60140 0.66373 -0.04400
H 	H 	0.13460 0.64480 0.65140 0.06200
C 	C 	0.15050 0.47160 0.66429 -0.04800
H 	H 	0.13990 0.42750 0.65220 0.06500
C 	C 	0.38230 0.36590 0.66371 -0.03100
H 	H 	0.39920 0.38000 0.65170 0.05900
C 	C 	0.39587 0.67940 0.70482 -0.07700
C 	C 	0.25080 0.07650 0.53930 0.02700
C 	C 	0.37050 0.70450 0.72305 0.01000
H 	H 	0.38200 0.69430 0.74800 0.05800
C 	C 	0.06470 0.52480 0.57614 0.00100
C 	C 	0.31670 0.30130 0.66383 -0.03400
H 	H 	0.28940 0.27330 0.65160 0.05800
C 	C 	0.32920 0.74380 0.70431 -0.05600
C 	C 	0.29960 0.74800 0.51870 0.01200
C 	C 	0.18670 0.47270 0.70070 -0.05600
C 	C 	0.12990 0.53530 0.64593 0.03200
C 	C 	0.30060 0.76010 0.57857 0.00300
C 	C 	0.24890 0.20560 0.52605 0.01300
C 	C 	0.99950 0.69430 0.50300 0.01700
C 	C 	0.31410 0.76430 0.66770 -0.04700
H 	H 	0.28710 0.79290 0.65560 0.06400
C 	C 	0.09330 0.53240 0.60785 -0.03400
C 	C 	0.96770 0.68280 0.46660 0.03800
C 	C 	0.96570 0.72650 0.43980 -0.09000
H 	H 	0.94310 0.72010 0.41520 0.06100
C 	C 	0.22100 0.06270 0.50300 0.02100
C 	C 	0.27950 0.30700 0.50913 0.01000
C 	C 	0.16100 0.14400 0.50590 0.01700
C 	C 	0.03135 0.44660 0.52073 0.01300
C 	C 	0.22540 0.75880 0.52007 0.01400
C 	C 	0.86190 0.63320 0.47170 -0.07800
H 	H 	0.84050 0.62770 0.44670 0.06100
C 	C 	0.34290 0.32100 0.64607 0.02200
C 	C 	0.24420 0.15200 0.55289 -0.08800
H 	H 	0.26580 0.16160 0.57900 0.06100
C 	C 	0.36110 0.67040 0.52020 0.02500
C 	C 	0.11500 0.14740 0.49510 -0.06300
H 	H 	0.09350 0.13980 0.47040 0.05200
C 	C 	0.33630 0.66010 0.48110 0.02900
C 	C 	0.39200 0.61340 0.54360 -0.07600
H 	H 	0.40890 0.61710 0.56920 0.05500
C 	C 	0.34520 0.84930 0.45350 -0.06800
H 	H 	0.32800 0.84590 0.42790 0.05700
C 	C 	0.33820 0.74320 0.64909 0.03000
C 	C 	0.32000 0.75650 0.61114 -0.03400
C 	C 	0.33920 0.79440 0.47570 0.02100
C 	C 	0.94200 0.64290 0.52150 0.02200
C 	C 	0.35400 0.74190 0.53430 -0.08700
H 	H 	0.37190 0.74640 0.56120 0.06100
C 	C 	0.99320 0.64030 0.52950 -0.07800
H 	H 	0.01580 0.64890 0.55560 0.05800
C 	C 	0.36450 0.80080 0.51440 0.03300
C 	C 	0.18720 0.12720 0.48370 -0.07700
H 	H 	0.16580 0.11860 0.45740 0.05800
C 	C 	0.22130 0.99650 0.48660 -0.06600
H 	H 	0.19950 0.98620 0.46220 0.05800
C 	C 	0.03220 0.74890 0.51330 -0.06300
H 	H 	0.05410 0.75490 0.53810 0.05300
C 	C 	0.28580 0.02350 0.56090 -0.08000
H 	H 	0.30680 0.03230 0.58570 0.06000
C 	C 	0.92390 0.65910 0.54550 -0.07100
H 	H 	0.94460 0.67050 0.57000 0.05700
C 	C 	0.19120 0.15420 0.54210 0.04000
C 	C 	0.17660 0.16590 0.56770 -0.09700
H 	H 	0.19870 0.17030 0.59260 0.06300
C 	C 	0.93420 0.61870 0.46135 -0.09300
H 	H 	0.91180 0.61010 0.43530 0.06200
C 	C 	0.91040 0.63140 0.48300 0.03400
C 	C 	0.34190 0.60190 0.46610 -0.07900
H 	H 	0.32610 0.59960 0.44050 0.05800
C 	C 	0.25570 0.94730 0.50850 -0.03500
H 	H 	0.25760 0.90300 0.49860 0.04900
C 	C 	0.30610 0.73060 0.46230 -0.08500
H 	H 	0.28830 0.72730 0.43540 0.06000
C 	C 	0.99940 0.78220 0.45060 -0.01900
H 	H 	0.99960 0.81250 0.43260 0.03400
C 	C 	0.03340 0.79380 0.48820 -0.04000
H 	H 	0.05550 0.83100 0.49510 0.04700
C 	C 	0.39370 0.55360 0.52450 -0.03100
H 	H 	0.41270 0.51510 0.53810 0.03800
C 	C 	0.87520 0.65830 0.53300 -0.02900
H 	H 	0.86350 0.66810 0.54930 0.04500
C 	C 	0.13120 0.17090 0.55710 -0.00200
H 	H 	0.12120 0.18040 0.57450 0.02800
C 	C 	0.09760 0.16220 0.52030 -0.05000
H 	H 	0.06520 0.16590 0.51250 0.05000
C 	C 	0.39570 0.85760 0.53000 -0.08000
H 	H 	0.41370 0.86130 0.55550 0.06100
C 	C 	0.39990 0.90870 0.50760 -0.02000
H 	H 	0.42020 0.94760 0.51860 0.04300
C 	C 	0.37470 0.90510 0.46860 -0.03100
H 	H 	0.37870 0.94020 0.45410 0.04600
C 	C 	0.28800 0.96310 0.54560 -0.01500
H 	H 	0.31140 0.92940 0.55950 0.03900
C 	C 	0.84420 0.64300 0.49640 -0.02300
H 	H 	0.81180 0.63930 0.48830 0.04500
C 	C 	0.36770 0.54590 0.48390 -0.02700
H 	H 	0.36960 0.50430 0.47190 0.04100
Cu	Cu	0.21781 0.82308 0.72179 0.90300
Cu	Cu	0.27816 0.74912 0.78091 0.90200
Cu	Cu	0.99395 0.03609 0.77988 0.90500
O 	O 	0.26109 0.16650 0.74829 -0.40000
O 	O 	0.31278 0.22980 0.79822 -0.39500
O 	O 	0.23385 0.76830 0.79916 -0.41800
O 	O 	0.30635 0.84680 0.79937 -0.42000
O 	O 	0.04557 0.10900 0.79632 -0.40900
O 	O 	0.18310 0.83150 0.74977 -0.41100
O 	O 	0.25600 0.90670 0.74852 -0.41500
O 	O 	0.05396 0.96420 0.75045 -0.42500
O 	O 	0.04207 0.95980 0.79915 -0.39700
O 	O 	0.05220 0.11210 0.74452 -0.41000
O 	O 	0.23654 0.30160 0.79581 -0.39400
O 	O 	0.18448 0.23910 0.74471 -0.40200
C 	C 	0.06530 0.94460 0.78137 0.36900
C 	C 	0.20119 0.25920 0.77753 0.33000
C 	C 	0.22480 0.25700 0.96139 -0.02700
C 	C 	0.19260 0.78410 0.92408 -0.00000
C 	C 	0.29603 0.17050 0.78019 0.33500
C 	C 	0.31650 0.10130 0.79922 -0.06700
C 	C 	0.16800 0.82410 0.79978 -0.07700
C 	C 	0.28755 0.89980 0.78127 0.37400
C 	C 	0.46940 0.01310 0.96231 -0.02600
C 	C 	0.21950 0.76590 0.96158 -0.02500
C 	C 	0.12867 0.86770 0.78228 0.02200
H 	H 	0.11870 0.88260 0.75810 0.05400
C 	C 	0.29806 0.03610 0.78154 0.00700
H 	H 	0.27470 0.03620 0.75690 0.05900
C 	C 	0.10373 0.88990 0.80023 -0.08100
C 	C 	0.12043 0.20170 0.83202 -0.03600
H 	H 	0.10330 0.18850 0.84400 0.06100
C 	C 	0.06376 0.13030 0.77714 0.36200
C 	C 	0.17410 0.80040 0.89217 -0.03000
C 	C 	0.50150 0.06370 0.98406 0.01200
C 	C 	0.19694 0.80440 0.78124 0.36200
C 	C 	0.35300 0.10140 0.83627 -0.04400
H 	H 	0.36540 0.14480 0.84860 0.06200
C 	C 	0.34950 0.97160 0.83571 -0.04800
H 	H 	0.36010 0.92750 0.84780 0.06500
C 	C 	0.11770 0.86590 0.83629 -0.03100
H 	H 	0.10080 0.88000 0.84830 0.05900
C 	C 	0.10413 0.17940 0.79518 -0.07700
C 	C 	0.24920 0.57650 0.96070 0.02700
C 	C 	0.12950 0.20450 0.77695 0.01000
H 	H 	0.11800 0.19430 0.75200 0.05800
C 	C 	0.43530 0.02480 0.92386 0.00100
C 	C 	0.18330 0.80130 0.83617 -0.03400
H 	H 	0.21060 0.77330 0.84840 0.05800
C 	C 	0.17080 0.24380 0.79569 -0.05600
C 	C 	0.20040 0.24800 0.98130 0.01200
C 	C 	0.31330 0.97270 0.79930 -0.05600
C 	C 	0.37010 0.03530 0.85407 0.03200
C 	C 	0.19940 0.26010 0.92143 0.00300
C 	C 	0.25110 0.70560 0.97395 0.01300
C 	C 	0.50050 0.19430 0.99700 0.01700
C 	C 	0.18590 0.26430 0.83230 -0.04700
H 	H 	0.21290 0.29290 0.84440 0.06400
C 	C 	0.40670 0.03240 0.89215 -0.03400
C 	C 	0.53230 0.18280 0.03340 0.03800
C 	C 	0.53430 0.22650 0.06020 -0.09000
H 	H 	0.55690 0.22010 0.08480 0.06100
C 	C 	0.27900 0.56270 0.99700 0.02200
C 	C 	0.22050 0.80700 0.99087 0.01000
C 	C 	0.33900 0.64400 0.99410 0.01700
C 	C 	0.46865 0.94660 0.97927 0.01400
C 	C 	0.27460 0.25880 0.97993 0.01400
C 	C 	0.63810 0.13320 0.02830 -0.07900
H 	H 	0.65950 0.12770 0.05330 0.06100
C 	C 	0.15710 0.82100 0.85393 0.02200
C 	C 	0.25580 0.65200 0.94711 -0.08800
H 	H 	0.23420 0.66160 0.92100 0.06100
C 	C 	0.13890 0.17040 0.97980 0.02500
C 	C 	0.38500 0.64740 0.00490 -0.06300
H 	H 	0.40650 0.63980 0.02960 0.05200
C 	C 	0.16370 0.16010 0.01890 0.02900
C 	C 	0.10800 0.11340 0.95640 -0.07600
H 	H 	0.09110 0.11710 0.93080 0.05500
C 	C 	0.15480 0.34930 0.04650 -0.06800
H 	H 	0.17200 0.34590 0.07210 0.05700
C 	C 	0.16180 0.24320 0.85091 0.03000
C 	C 	0.18000 0.25650 0.88886 -0.03400
C 	C 	0.16080 0.29440 0.02430 0.02200
C 	C 	0.55800 0.14290 0.97850 0.02200
C 	C 	0.14600 0.24190 0.96570 -0.08700
H 	H 	0.12810 0.24640 0.93880 0.06000
C 	C 	0.50680 0.14030 0.97050 -0.07800
H 	H 	0.48420 0.14890 0.94440 0.05800
C 	C 	0.13550 0.30080 0.98560 0.03300
C 	C 	0.31280 0.62720 0.01630 -0.07700
H 	H 	0.33420 0.61860 0.04260 0.05800
C 	C 	0.27870 0.49650 0.01340 -0.06600
H 	H 	0.30050 0.48620 0.03780 0.05800
C 	C 	0.46780 0.24890 0.98670 -0.06300
H 	H 	0.44590 0.25490 0.96190 0.05300
C 	C 	0.21420 0.52350 0.93910 -0.07900
H 	H 	0.19320 0.53230 0.91430 0.06000
C 	C 	0.57610 0.15910 0.95450 -0.07100
H 	H 	0.55540 0.17050 0.93000 0.05700
C 	C 	0.30880 0.65420 0.95790 0.04000
C 	C 	0.32340 0.66590 0.93230 -0.09600
H 	H 	0.30130 0.67030 0.90740 0.06300
C 	C 	0.56580 0.11870 0.03865 -0.09300
H 	H 	0.58820 0.11010 0.06470 0.06200
C 	C 	0.58960 0.13140 0.01700 0.03500
C 	C 	0.15810 0.10190 0.03390 -0.08000
H 	H 	0.17390 0.09960 0.05950 0.05900
C 	C 	0.24430 0.44730 0.99150 -0.03500
H 	H 	0.24240 0.40300 0.00140 0.04900
C 	C 	0.19390 0.23060 0.03770 -0.08500
H 	H 	0.21170 0.22730 0.06460 0.06000
C 	C 	0.50060 0.28220 0.04940 -0.01900
H 	H 	0.50040 0.31250 0.06740 0.03400
C 	C 	0.46660 0.29380 0.01180 -0.04000
H 	H 	0.44450 0.33100 0.00490 0.04700
C 	C 	0.10630 0.05360 0.97550 -0.03100
H 	H 	0.08730 0.01510 0.96190 0.03800
C 	C 	0.62480 0.15830 0.96700 -0.03000
H 	H 	0.63650 0.16810 0.95070 0.04500
C 	C 	0.36880 0.67090 0.94290 -0.00200
H 	H 	0.37880 0.68040 0.92550 0.02800
C 	C 	0.40240 0.66220 0.97970 -0.04900
H 	H 	0.43480 0.66590 0.98750 0.05000
C 	C 	0.10430 0.35760 0.97000 -0.08000
H 	H 	0.08630 0.36130 0.94450 0.06100
C 	C 	0.10010 0.40870 0.99240 -0.02000
H 	H 	0.07980 0.44760 0.98140 0.04300
C 	C 	0.12530 0.40510 0.03140 -0.03100
H 	H 	0.12130 0.44020 0.04590 0.04600
C 	C 	0.21200 0.46310 0.95440 -0.01600
H 	H 	0.18860 0.42940 0.94050 0.03900
C 	C 	0.65580 0.14300 0.00360 -0.02200
H 	H 	0.68820 0.13930 0.01170 0.04400
C 	C 	0.13230 0.04590 0.01610 -0.02600
H 	H 	0.13040 0.00430 0.02810 0.04100
Cu	Cu	0.71781 0.32308 0.72179 0.90300
Cu	Cu	0.77816 0.24912 0.78090 0.90200
Cu	Cu	0.49395 0.53609 0.77988 0.90600
O 	O 	0.76109 0.66650 0.74829 -0.40000
O 	O 	0.81278 0.72980 0.79822 -0.39500
O 	O 	0.73385 0.26830 0.79916 -0.41800
O 	O 	0.80635 0.34680 0.79937 -0.42000
O 	O 	0.54557 0.60900 0.79632 -0.40900
O 	O 	0.68310 0.33150 0.74977 -0.41100
O 	O 	0.75600 0.40670 0.74852 -0.41500
O 	O 	0.55396 0.46420 0.75045 -0.42500
O 	O 	0.54207 0.45980 0.79915 -0.39700
O 	O 	0.55220 0.61210 0.74452 -0.41000
O 	O 	0.73654 0.80160 0.79581 -0.39400
O 	O 	0.68448 0.73910 0.74471 -0.40200
C 	C 	0.56530 0.44460 0.78137 0.36900
C 	C 	0.70119 0.75920 0.77753 0.33000
C 	C 	0.72480 0.75700 0.96139 -0.02700
C 	C 	0.69260 0.28410 0.92408 -0.00000
C 	C 	0.79603 0.67050 0.78019 0.33500
C 	C 	0.81650 0.60130 0.79922 -0.06700
C 	C 	0.66800 0.32410 0.79978 -0.07700
C 	C 	0.78755 0.39980 0.78127 0.37400
C 	C 	0.96940 0.51310 0.96231 -0.02600
C 	C 	0.71950 0.26590 0.96158 -0.02500
C 	C 	0.62867 0.36770 0.78228 0.02200
H 	H 	0.61870 0.38260 0.75810 0.05300
C 	C 	0.79806 0.53610 0.78154 0.00700
H 	H 	0.77470 0.53620 0.75690 0.05900
C 	C 	0.60373 0.38990 0.80023 -0.08100
C 	C 	0.62043 0.70170 0.83202 -0.03600
H 	H 	0.60330 0.68850 0.84400 0.06100
C 	C 	0.56376 0.63030 0.77714 0.36200
C 	C 	0.67410 0.30040 0.89217 -0.03000
C 	C 	0.00150 0.56370 0.98406 0.01200
C 	C 	0.69694 0.30440 0.78124 0.36200
C 	C 	0.85300 0.60140 0.83627 -0.04400
H 	H 	0.86540 0.64480 0.84860 0.06200
C 	C 	0.84950 0.47160 0.83571 -0.04800
H 	H 	0.86010 0.42750 0.84780 0.06500
C 	C 	0.61770 0.36590 0.83629 -0.03100
H 	H 	0.60080 0.38000 0.84830 0.05900
C 	C 	0.60413 0.67940 0.79518 -0.07700
C 	C 	0.74920 0.07650 0.96070 0.02700
C 	C 	0.62950 0.70450 0.77695 0.01000
H 	H 	0.61800 0.69430 0.75200 0.05800
C 	C 	0.93530 0.52480 0.92386 0.00100
C 	C 	0.68330 0.30130 0.83617 -0.03400
H 	H 	0.71060 0.27330 0.84840 0.05800
C 	C 	0.67080 0.74380 0.79569 -0.05600
C 	C 	0.70040 0.74800 0.98130 0.01200
C 	C 	0.81330 0.47270 0.79930 -0.05600
C 	C 	0.87010 0.53530 0.85407 0.03200
C 	C 	0.69940 0.76010 0.92143 0.00300
C 	C 	0.75110 0.20560 0.97395 0.01300
C 	C 	0.00050 0.69430 0.99700 0.01800
C 	C 	0.68590 0.76430 0.83230 -0.04700
H 	H 	0.71290 0.79290 0.84440 0.06400
C 	C 	0.90670 0.53240 0.89215 -0.03400
C 	C 	0.03230 0.68280 0.03340 0.03700
C 	C 	0.03430 0.72650 0.06020 -0.08900
H 	H 	0.05690 0.72010 0.08480 0.06000
C 	C 	0.77900 0.06270 0.99700 0.02100
C 	C 	0.72050 0.30700 0.99087 0.00900
C 	C 	0.83900 0.14400 0.99410 0.01600
C 	C 	0.96865 0.44660 0.97927 0.01300
C 	C 	0.77460 0.75880 0.97993 0.01400
C 	C 	0.13810 0.63320 0.02830 -0.07800
H 	H 	0.15950 0.62770 0.05330 0.06000
C 	C 	0.65710 0.32100 0.85393 0.02200
C 	C 	0.75580 0.15200 0.94711 -0.08900
H 	H 	0.73420 0.16160 0.92100 0.06200
C 	C 	0.63890 0.67040 0.97980 0.02500
C 	C 	0.88500 0.14740 0.00490 -0.06100
H 	H 	0.90650 0.13980 0.02960 0.05100
C 	C 	0.66370 0.66010 0.01890 0.02900
C 	C 	0.60800 0.61340 0.95640 -0.07700
H 	H 	0.59110 0.61710 0.93080 0.05500
C 	C 	0.65480 0.84930 0.04650 -0.06800
H 	H 	0.67200 0.84590 0.07210 0.05700
C 	C 	0.66180 0.74320 0.85091 0.03000
C 	C 	0.68000 0.75650 0.88886 -0.03400
C 	C 	0.66080 0.79440 0.02430 0.02100
C 	C 	0.05800 0.64290 0.97850 0.02300
C 	C 	0.64600 0.74190 0.96570 -0.08700
H 	H 	0.62810 0.74640 0.93880 0.06100
C 	C 	0.00680 0.64030 0.97050 -0.07800
H 	H 	0.98420 0.64890 0.94440 0.05800
C 	C 	0.63550 0.80080 0.98560 0.03300
C 	C 	0.81280 0.12720 0.01630 -0.07600
H 	H 	0.83420 0.11860 0.04260 0.05700
C 	C 	0.77870 0.99650 0.01340 -0.06600
H 	H 	0.80050 0.98620 0.03780 0.05800
C 	C 	0.96780 0.74890 0.98670 -0.06400
H 	H 	0.94590 0.75490 0.96190 0.05300
C 	C 	0.71420 0.02350 0.93910 -0.08000
H 	H 	0.69320 0.03230 0.91430 0.06000
C 	C 	0.07610 0.65910 0.95450 -0.07100
H 	H 	0.05540 0.67050 0.93000 0.05700
C 	C 	0.80880 0.15420 0.95790 0.04100
C 	C 	0.82340 0.16590 0.93230 -0.09800
H 	H 	0.80130 0.17030 0.90740 0.06400
C 	C 	0.06580 0.61870 0.03865 -0.09200
H 	H 	0.08820 0.61010 0.06470 0.06200
C 	C 	0.08960 0.63140 0.01700 0.03400
C 	C 	0.65810 0.60190 0.03390 -0.07900
H 	H 	0.67390 0.59960 0.05950 0.05800
C 	C 	0.74430 0.94730 0.99150 -0.03500
H 	H 	0.74240 0.90300 0.00140 0.04900
C 	C 	0.69390 0.73060 0.03770 -0.08400
H 	H 	0.71170 0.72730 0.06460 0.06000
C 	C 	0.00060 0.78220 0.04940 -0.01900
H 	H 	0.00040 0.81250 0.06740 0.03400
C 	C 	0.96660 0.79380 0.01180 -0.04000
H 	H 	0.94450 0.83100 0.00490 0.04700
C 	C 	0.60630 0.55360 0.97550 -0.03100
H 	H 	0.58730 0.51510 0.96190 0.03800
C 	C 	0.12480 0.65830 0.96700 -0.02900
H 	H 	0.13650 0.66810 0.95070 0.04400
C 	C 	0.86880 0.17090 0.94290 -0.00000
H 	H 	0.87880 0.18040 0.92550 0.02700
C 	C 	0.90240 0.16220 0.97970 -0.05100
H 	H 	0.93480 0.16590 0.98750 0.05000
C 	C 	0.60430 0.85760 0.97000 -0.08100
H 	H 	0.58630 0.86130 0.94450 0.06100
C 	C 	0.60010 0.90870 0.99240 -0.01900
H 	H 	0.57980 0.94760 0.98140 0.04300
C 	C 	0.62530 0.90510 0.03140 -0.03200
H 	H 	0.62130 0.94020 0.04590 0.04600
C 	C 	0.71200 0.96310 0.95440 -0.01500
H 	H 	0.68860 0.92940 0.94050 0.03900
C 	C 	0.15580 0.64300 0.00360 -0.02400
H 	H 	0.18820 0.63930 0.01170 0.04500
C 	C 	0.63230 0.54590 0.01610 -0.02700
H 	H 	0.63040 0.50430 0.02810 0.04100
