data_crystal

_cell_length_a 30.14200
_cell_length_b 30.14200
_cell_length_c 16.46960
_cell_angle_alpha 90.00000
_cell_angle_beta  90.00000
_cell_angle_gamma 90.00000

_symmetry_space_group_name_	'P 1'
_symmetry_space_group_name_H-M	'P 1'

loop_
_symmetry_equiv_pos_as_xyz
  x,y,z

loop_
_atom_site_label
_atom_site_type_symbol
_atom_site_fract_x
_atom_site_fract_y
_atom_site_fract_z
_atom_site_charge
In	In	0.47637 0.25719 0.38406 2.00400
O 	O 	0.31324 0.46944 0.39779 -0.48300
O 	O 	0.27085 0.47218 0.29050 -0.45300
O 	O 	0.42909 0.29697 0.32285 -0.52500
O 	O 	0.44016 0.36018 0.39265 -0.36900
C 	C 	0.37763 0.35533 0.30560 -0.07200
C 	C 	0.31646 0.34760 0.21240 0.06200
C 	C 	0.35499 0.33174 0.24600 -0.06100
H 	H 	0.36650 0.30410 0.22810 0.06400
C 	C 	0.25975 0.29098 0.17360 0.08100
C 	C 	0.30302 0.33093 0.06710 0.10500
C 	C 	0.29205 0.32227 0.14690 -0.15200
C 	C 	0.32133 0.41151 0.29940 -0.06300
C 	C 	0.36026 0.39538 0.33250 0.00600
H 	H 	0.37510 0.41170 0.37370 0.04100
C 	C 	0.30121 0.45350 0.33020 0.32000
C 	C 	0.29985 0.38829 0.23870 -0.06200
H 	H 	0.27370 0.40010 0.21480 0.06600
C 	C 	0.41891 0.33689 0.34390 0.35000
C 	C 	0.24839 0.28233 0.25680 -0.07500
H 	H 	0.26090 0.29630 0.30330 0.06200
C 	C 	0.33546 0.36339 0.04080 -0.18600
H 	H 	0.35340 0.38140 0.07500 0.08800
O 	O 	0.52540 0.21150 0.43200 -0.57800
O 	O 	0.46367 0.20349 0.29700 -0.45100
O 	O 	0.41955 0.20144 0.40190 -0.41800
C 	C 	0.43561 0.12096 0.24190 -0.08100
H 	H 	0.46240 0.13270 0.22050 0.07300
C 	C 	0.41329 0.14322 0.30470 -0.04200
C 	C 	0.43263 0.18467 0.33720 0.30000
H 	H 	0.44700 0.25720 0.52700 0.03100
In	In	0.52363 0.74281 0.38406 2.00500
O 	O 	0.68676 0.53056 0.39779 -0.48200
O 	O 	0.72915 0.52782 0.29050 -0.45200
O 	O 	0.57091 0.70303 0.32285 -0.52500
O 	O 	0.55984 0.63982 0.39265 -0.36900
C 	C 	0.62237 0.64467 0.30560 -0.07200
C 	C 	0.68354 0.65240 0.21240 0.06200
C 	C 	0.64501 0.66826 0.24600 -0.06100
H 	H 	0.63350 0.69590 0.22810 0.06400
C 	C 	0.74025 0.70902 0.17360 0.08100
C 	C 	0.69698 0.66907 0.06710 0.10500
C 	C 	0.70795 0.67773 0.14690 -0.15200
C 	C 	0.67867 0.58849 0.29940 -0.06300
C 	C 	0.63974 0.60462 0.33250 0.00600
H 	H 	0.62490 0.58830 0.37370 0.04100
C 	C 	0.69879 0.54650 0.33020 0.32000
C 	C 	0.70015 0.61171 0.23870 -0.06200
H 	H 	0.72630 0.59990 0.21480 0.06600
C 	C 	0.58109 0.66311 0.34390 0.35000
C 	C 	0.75161 0.71767 0.25680 -0.07600
H 	H 	0.73910 0.70370 0.30330 0.06200
C 	C 	0.66454 0.63661 0.04080 -0.18600
H 	H 	0.64660 0.61860 0.07500 0.08800
O 	O 	0.47460 0.78850 0.43200 -0.57800
O 	O 	0.53633 0.79651 0.29700 -0.45100
O 	O 	0.58045 0.79856 0.40190 -0.41800
C 	C 	0.56439 0.87904 0.24190 -0.08100
H 	H 	0.53760 0.86730 0.22050 0.07200
C 	C 	0.58671 0.85678 0.30470 -0.04200
C 	C 	0.56737 0.81533 0.33720 0.30000
H 	H 	0.55300 0.74280 0.52700 0.03100
In	In	0.74281 0.47637 0.38406 2.00500
O 	O 	0.53056 0.31324 0.39779 -0.48200
O 	O 	0.52782 0.27085 0.29050 -0.45200
O 	O 	0.70303 0.42909 0.32285 -0.52500
O 	O 	0.63982 0.44016 0.39265 -0.36900
C 	C 	0.64467 0.37763 0.30560 -0.07200
C 	C 	0.65240 0.31646 0.21240 0.06200
C 	C 	0.66826 0.35499 0.24600 -0.06100
H 	H 	0.69590 0.36650 0.22810 0.06400
C 	C 	0.70902 0.25975 0.17360 0.08100
C 	C 	0.66907 0.30302 0.06710 0.10500
C 	C 	0.67773 0.29205 0.14690 -0.15200
C 	C 	0.58849 0.32133 0.29940 -0.06200
C 	C 	0.60462 0.36026 0.33250 0.00600
H 	H 	0.58830 0.37510 0.37370 0.04100
C 	C 	0.54650 0.30121 0.33020 0.32000
C 	C 	0.61171 0.29985 0.23870 -0.06200
H 	H 	0.59990 0.27370 0.21480 0.06600
C 	C 	0.66311 0.41891 0.34390 0.35000
C 	C 	0.71767 0.24839 0.25680 -0.07500
H 	H 	0.70370 0.26090 0.30330 0.06200
C 	C 	0.63661 0.33546 0.04080 -0.18600
H 	H 	0.61860 0.35340 0.07500 0.08800
O 	O 	0.78850 0.52540 0.43200 -0.57800
O 	O 	0.79651 0.46367 0.29700 -0.45100
O 	O 	0.79856 0.41955 0.40190 -0.41800
C 	C 	0.87904 0.43561 0.24190 -0.08100
H 	H 	0.86730 0.46240 0.22050 0.07200
C 	C 	0.85678 0.41329 0.30470 -0.04200
C 	C 	0.81533 0.43263 0.33720 0.30000
H 	H 	0.74280 0.44700 0.52700 0.03100
In	In	0.25719 0.52363 0.38406 2.00500
O 	O 	0.46944 0.68676 0.39779 -0.48200
O 	O 	0.47218 0.72915 0.29050 -0.45200
O 	O 	0.29697 0.57091 0.32285 -0.52500
O 	O 	0.36018 0.55984 0.39265 -0.36900
C 	C 	0.35533 0.62237 0.30560 -0.07200
C 	C 	0.34760 0.68354 0.21240 0.06200
C 	C 	0.33174 0.64501 0.24600 -0.06100
H 	H 	0.30410 0.63350 0.22810 0.06400
C 	C 	0.29098 0.74025 0.17360 0.08100
C 	C 	0.33093 0.69698 0.06710 0.10500
C 	C 	0.32227 0.70795 0.14690 -0.15200
C 	C 	0.41151 0.67867 0.29940 -0.06300
C 	C 	0.39538 0.63974 0.33250 0.00600
H 	H 	0.41170 0.62490 0.37370 0.04100
C 	C 	0.45350 0.69879 0.33020 0.32000
C 	C 	0.38829 0.70015 0.23870 -0.06200
H 	H 	0.40010 0.72630 0.21480 0.06600
C 	C 	0.33689 0.58109 0.34390 0.35000
C 	C 	0.28233 0.75161 0.25680 -0.07600
H 	H 	0.29630 0.73910 0.30330 0.06200
C 	C 	0.36339 0.66454 0.04080 -0.18600
H 	H 	0.38140 0.64660 0.07500 0.08800
O 	O 	0.21150 0.47460 0.43200 -0.57800
O 	O 	0.20349 0.53633 0.29700 -0.45100
O 	O 	0.20144 0.58045 0.40190 -0.41800
C 	C 	0.12096 0.56439 0.24190 -0.08000
H 	H 	0.13270 0.53760 0.22050 0.07300
C 	C 	0.14322 0.58671 0.30470 -0.04200
C 	C 	0.18467 0.56737 0.33720 0.30000
H 	H 	0.25720 0.55300 0.52700 0.03100
In	In	0.02363 0.75719 0.61594 2.00600
O 	O 	0.18676 0.96944 0.60221 -0.48300
O 	O 	0.22915 0.97218 0.70950 -0.44500
O 	O 	0.07091 0.79697 0.67715 -0.51900
O 	O 	0.05984 0.86018 0.60735 -0.36600
C 	C 	0.12237 0.85533 0.69440 -0.06600
C 	C 	0.18354 0.84760 0.78760 0.06200
C 	C 	0.14501 0.83174 0.75400 -0.05900
H 	H 	0.13350 0.80410 0.77190 0.07100
C 	C 	0.24025 0.79098 0.82640 0.08800
C 	C 	0.19698 0.83093 0.93290 0.10400
C 	C 	0.20795 0.82227 0.85310 -0.13600
C 	C 	0.17867 0.91151 0.70060 -0.05800
C 	C 	0.13974 0.89538 0.66750 0.00600
H 	H 	0.12490 0.91170 0.62630 0.04300
C 	C 	0.19879 0.95350 0.66980 0.32000
C 	C 	0.20015 0.88829 0.76130 -0.06100
H 	H 	0.22630 0.90010 0.78520 0.07300
C 	C 	0.08109 0.83689 0.65610 0.35100
C 	C 	0.25161 0.78233 0.74320 -0.07400
H 	H 	0.23910 0.79630 0.69670 0.06200
C 	C 	0.16454 0.86339 0.95920 0.02800
H 	H 	0.14660 0.88140 0.92500 0.04000
O 	O 	0.97460 0.71150 0.56800 -0.57900
O 	O 	0.03633 0.70349 0.70300 -0.44100
O 	O 	0.08045 0.70144 0.59810 -0.41600
C 	C 	0.06439 0.62096 0.75810 -0.08000
H 	H 	0.03760 0.63270 0.77950 0.08100
C 	C 	0.08671 0.64322 0.69530 -0.03600
C 	C 	0.06737 0.68467 0.66280 0.29900
H 	H 	0.05300 0.75720 0.47300 0.03100
In	In	0.97637 0.24281 0.61594 2.00400
O 	O 	0.81324 0.03056 0.60221 -0.47800
O 	O 	0.77085 0.02782 0.70950 -0.44000
O 	O 	0.92909 0.20303 0.67715 -0.52100
O 	O 	0.94016 0.13982 0.60735 -0.36700
C 	C 	0.87763 0.14467 0.69440 -0.06600
C 	C 	0.81646 0.15240 0.78760 0.06200
C 	C 	0.85499 0.16826 0.75400 -0.05900
H 	H 	0.86650 0.19590 0.77190 0.07100
C 	C 	0.75975 0.20902 0.82640 0.08800
C 	C 	0.80302 0.16907 0.93290 0.10400
C 	C 	0.79205 0.17773 0.85310 -0.13600
C 	C 	0.82133 0.08849 0.70060 -0.05600
C 	C 	0.86026 0.10462 0.66750 0.00600
H 	H 	0.87510 0.08830 0.62630 0.04400
C 	C 	0.80121 0.04650 0.66980 0.31900
C 	C 	0.79985 0.11171 0.76130 -0.06100
H 	H 	0.77370 0.09990 0.78520 0.07400
C 	C 	0.91891 0.16311 0.65610 0.35000
C 	C 	0.74839 0.21767 0.74320 -0.07400
H 	H 	0.76090 0.20370 0.69670 0.06200
C 	C 	0.83546 0.13661 0.95920 0.02800
H 	H 	0.85340 0.11860 0.92500 0.04100
O 	O 	0.02540 0.28850 0.56800 -0.57400
O 	O 	0.96367 0.29651 0.70300 -0.44500
O 	O 	0.91955 0.29856 0.59810 -0.41800
C 	C 	0.93561 0.37904 0.75810 -0.07900
H 	H 	0.96240 0.36730 0.77950 0.07900
C 	C 	0.91329 0.35678 0.69530 -0.03800
C 	C 	0.93263 0.31533 0.66280 0.30000
H 	H 	0.94700 0.24280 0.47300 0.03100
In	In	0.75719 0.97637 0.61594 2.00400
O 	O 	0.96944 0.81324 0.60221 -0.48300
O 	O 	0.97218 0.77085 0.70950 -0.44500
O 	O 	0.79697 0.92909 0.67715 -0.52100
O 	O 	0.86018 0.94016 0.60735 -0.36800
C 	C 	0.85533 0.87763 0.69440 -0.06800
C 	C 	0.84760 0.81646 0.78760 0.06100
C 	C 	0.83174 0.85499 0.75400 -0.05900
H 	H 	0.80410 0.86650 0.77190 0.07000
C 	C 	0.79098 0.75975 0.82640 0.08700
C 	C 	0.83093 0.80302 0.93290 0.10400
C 	C 	0.82227 0.79205 0.85310 -0.13600
C 	C 	0.91151 0.82133 0.70060 -0.05800
C 	C 	0.89538 0.86026 0.66750 0.00700
H 	H 	0.91170 0.87510 0.62630 0.04200
C 	C 	0.95350 0.80121 0.66980 0.32100
C 	C 	0.88829 0.79985 0.76130 -0.06000
H 	H 	0.90010 0.77370 0.78520 0.07300
C 	C 	0.83689 0.91891 0.65610 0.35100
C 	C 	0.78233 0.74839 0.74320 -0.07400
H 	H 	0.79630 0.76090 0.69670 0.06200
C 	C 	0.86339 0.83546 0.95920 0.02800
H 	H 	0.88140 0.85340 0.92500 0.04000
O 	O 	0.71150 0.02540 0.56800 -0.57400
O 	O 	0.70349 0.96367 0.70300 -0.44500
O 	O 	0.70144 0.91955 0.59810 -0.41800
C 	C 	0.62096 0.93561 0.75810 -0.07900
H 	H 	0.63270 0.96240 0.77950 0.07900
C 	C 	0.64322 0.91329 0.69530 -0.03800
C 	C 	0.68467 0.93263 0.66280 0.30000
H 	H 	0.75720 0.94700 0.47300 0.03100
In	In	0.24281 0.02363 0.61594 2.00600
O 	O 	0.03056 0.18676 0.60221 -0.47800
O 	O 	0.02782 0.22915 0.70950 -0.44000
O 	O 	0.20303 0.07091 0.67715 -0.51900
O 	O 	0.13982 0.05984 0.60735 -0.36500
C 	C 	0.14467 0.12237 0.69440 -0.06500
C 	C 	0.15240 0.18354 0.78760 0.06300
C 	C 	0.16826 0.14501 0.75400 -0.06000
H 	H 	0.19590 0.13350 0.77190 0.07100
C 	C 	0.20902 0.24025 0.82640 0.08800
C 	C 	0.16907 0.19698 0.93290 0.10400
C 	C 	0.17773 0.20795 0.85310 -0.13600
C 	C 	0.08849 0.17867 0.70060 -0.05500
C 	C 	0.10462 0.13974 0.66750 0.00500
H 	H 	0.08830 0.12490 0.62630 0.04400
C 	C 	0.04650 0.19879 0.66980 0.31900
C 	C 	0.11171 0.20015 0.76130 -0.06200
H 	H 	0.09990 0.22630 0.78520 0.07500
C 	C 	0.16311 0.08109 0.65610 0.35000
C 	C 	0.21767 0.25161 0.74320 -0.07400
H 	H 	0.20370 0.23910 0.69670 0.06200
C 	C 	0.13661 0.16454 0.95920 0.02800
H 	H 	0.11860 0.14660 0.92500 0.04100
O 	O 	0.28850 0.97460 0.56800 -0.57900
O 	O 	0.29651 0.03633 0.70300 -0.44100
O 	O 	0.29856 0.08045 0.59810 -0.41600
C 	C 	0.37904 0.06439 0.75810 -0.08000
H 	H 	0.36730 0.03760 0.77950 0.08100
C 	C 	0.35678 0.08671 0.69530 -0.03600
C 	C 	0.31533 0.06737 0.66280 0.29900
H 	H 	0.24280 0.05300 0.47300 0.03100
In	In	0.52363 0.74281 0.61594 2.00500
O 	O 	0.68676 0.53056 0.60221 -0.48100
O 	O 	0.72915 0.52782 0.70950 -0.44300
O 	O 	0.57091 0.70303 0.67715 -0.52000
O 	O 	0.55984 0.63982 0.60735 -0.36700
C 	C 	0.62237 0.64467 0.69440 -0.06600
C 	C 	0.68354 0.65240 0.78760 0.06200
C 	C 	0.64501 0.66826 0.75400 -0.05900
H 	H 	0.63350 0.69590 0.77190 0.07100
C 	C 	0.74025 0.70902 0.82640 0.08800
C 	C 	0.69698 0.66907 0.93290 0.10400
C 	C 	0.70795 0.67773 0.85310 -0.13600
C 	C 	0.67867 0.58849 0.70060 -0.05700
C 	C 	0.63974 0.60462 0.66750 0.00600
H 	H 	0.62490 0.58830 0.62630 0.04300
C 	C 	0.69879 0.54650 0.66980 0.32000
C 	C 	0.70015 0.61171 0.76130 -0.06100
H 	H 	0.72630 0.59990 0.78520 0.07400
C 	C 	0.58109 0.66311 0.65610 0.35100
C 	C 	0.75161 0.71767 0.74320 -0.07400
H 	H 	0.73910 0.70370 0.69670 0.06200
C 	C 	0.66454 0.63661 0.95920 0.02900
H 	H 	0.64660 0.61860 0.92500 0.04000
O 	O 	0.47460 0.78850 0.56800 -0.57700
O 	O 	0.53633 0.79651 0.70300 -0.44300
O 	O 	0.58045 0.79856 0.59810 -0.41700
C 	C 	0.56439 0.87904 0.75810 -0.08000
H 	H 	0.53760 0.86730 0.77950 0.08000
C 	C 	0.58671 0.85678 0.69530 -0.03700
C 	C 	0.56737 0.81533 0.66280 0.30000
H 	H 	0.55300 0.74280 0.47300 0.03100
In	In	0.47637 0.25719 0.61594 2.00500
O 	O 	0.31324 0.46944 0.60221 -0.48100
O 	O 	0.27085 0.47218 0.70950 -0.44300
O 	O 	0.42909 0.29697 0.67715 -0.52000
O 	O 	0.44016 0.36018 0.60735 -0.36700
C 	C 	0.37763 0.35533 0.69440 -0.06600
C 	C 	0.31646 0.34760 0.78760 0.06200
C 	C 	0.35499 0.33174 0.75400 -0.05900
H 	H 	0.36650 0.30410 0.77190 0.07100
C 	C 	0.25975 0.29098 0.82640 0.08800
C 	C 	0.30302 0.33093 0.93290 0.10400
C 	C 	0.29205 0.32227 0.85310 -0.13600
C 	C 	0.32133 0.41151 0.70060 -0.05700
C 	C 	0.36026 0.39538 0.66750 0.00600
H 	H 	0.37510 0.41170 0.62630 0.04300
C 	C 	0.30121 0.45350 0.66980 0.32000
C 	C 	0.29985 0.38829 0.76130 -0.06100
H 	H 	0.27370 0.40010 0.78520 0.07400
C 	C 	0.41891 0.33689 0.65610 0.35100
C 	C 	0.24839 0.28233 0.74320 -0.07400
H 	H 	0.26090 0.29630 0.69670 0.06200
C 	C 	0.33546 0.36339 0.95920 0.02900
H 	H 	0.35340 0.38140 0.92500 0.04000
O 	O 	0.52540 0.21150 0.56800 -0.57600
O 	O 	0.46367 0.20349 0.70300 -0.44300
O 	O 	0.41955 0.20144 0.59810 -0.41700
C 	C 	0.43561 0.12096 0.75810 -0.07900
H 	H 	0.46240 0.13270 0.77950 0.08000
C 	C 	0.41329 0.14322 0.69530 -0.03700
C 	C 	0.43263 0.18467 0.66280 0.30000
H 	H 	0.44700 0.25720 0.47300 0.03100
In	In	0.25719 0.52363 0.61594 2.00500
O 	O 	0.46944 0.68676 0.60221 -0.48100
O 	O 	0.47218 0.72915 0.70950 -0.44300
O 	O 	0.29697 0.57091 0.67715 -0.52000
O 	O 	0.36018 0.55984 0.60735 -0.36700
C 	C 	0.35533 0.62237 0.69440 -0.06600
C 	C 	0.34760 0.68354 0.78760 0.06200
C 	C 	0.33174 0.64501 0.75400 -0.05900
H 	H 	0.30410 0.63350 0.77190 0.07100
C 	C 	0.29098 0.74025 0.82640 0.08800
C 	C 	0.33093 0.69698 0.93290 0.10400
C 	C 	0.32227 0.70795 0.85310 -0.13600
C 	C 	0.41151 0.67867 0.70060 -0.05700
C 	C 	0.39538 0.63974 0.66750 0.00600
H 	H 	0.41170 0.62490 0.62630 0.04300
C 	C 	0.45350 0.69879 0.66980 0.32000
C 	C 	0.38829 0.70015 0.76130 -0.06100
H 	H 	0.40010 0.72630 0.78520 0.07400
C 	C 	0.33689 0.58109 0.65610 0.35100
C 	C 	0.28233 0.75161 0.74320 -0.07400
H 	H 	0.29630 0.73910 0.69670 0.06200
C 	C 	0.36339 0.66454 0.95920 0.02800
H 	H 	0.38140 0.64660 0.92500 0.04000
O 	O 	0.21150 0.47460 0.56800 -0.57700
O 	O 	0.20349 0.53633 0.70300 -0.44300
O 	O 	0.20144 0.58045 0.59810 -0.41700
C 	C 	0.12096 0.56439 0.75810 -0.07900
H 	H 	0.13270 0.53760 0.77950 0.08000
C 	C 	0.14322 0.58671 0.69530 -0.03700
C 	C 	0.18467 0.56737 0.66280 0.30000
H 	H 	0.25720 0.55300 0.47300 0.03100
In	In	0.74281 0.47637 0.61594 2.00500
O 	O 	0.53056 0.31324 0.60221 -0.48100
O 	O 	0.52782 0.27085 0.70950 -0.44300
O 	O 	0.70303 0.42909 0.67715 -0.52000
O 	O 	0.63982 0.44016 0.60735 -0.36700
C 	C 	0.64467 0.37763 0.69440 -0.06600
C 	C 	0.65240 0.31646 0.78760 0.06200
C 	C 	0.66826 0.35499 0.75400 -0.05900
H 	H 	0.69590 0.36650 0.77190 0.07100
C 	C 	0.70902 0.25975 0.82640 0.08800
C 	C 	0.66907 0.30302 0.93290 0.10400
C 	C 	0.67773 0.29205 0.85310 -0.13600
C 	C 	0.58849 0.32133 0.70060 -0.05700
C 	C 	0.60462 0.36026 0.66750 0.00600
H 	H 	0.58830 0.37510 0.62630 0.04300
C 	C 	0.54650 0.30121 0.66980 0.32000
C 	C 	0.61171 0.29985 0.76130 -0.06100
H 	H 	0.59990 0.27370 0.78520 0.07400
C 	C 	0.66311 0.41891 0.65610 0.35100
C 	C 	0.71767 0.24839 0.74320 -0.07400
H 	H 	0.70370 0.26090 0.69670 0.06200
C 	C 	0.63661 0.33546 0.95920 0.02900
H 	H 	0.61860 0.35340 0.92500 0.04000
O 	O 	0.78850 0.52540 0.56800 -0.57700
O 	O 	0.79651 0.46367 0.70300 -0.44300
O 	O 	0.79856 0.41955 0.59810 -0.41700
C 	C 	0.87904 0.43561 0.75810 -0.08000
H 	H 	0.86730 0.46240 0.77950 0.08000
C 	C 	0.85678 0.41329 0.69530 -0.03700
C 	C 	0.81533 0.43263 0.66280 0.30000
H 	H 	0.74280 0.44700 0.47300 0.03100
In	In	0.97637 0.24281 0.38406 2.00400
O 	O 	0.81324 0.03056 0.39779 -0.48000
O 	O 	0.77085 0.02782 0.29050 -0.44900
O 	O 	0.92909 0.20303 0.32285 -0.52600
O 	O 	0.94016 0.13982 0.39265 -0.37000
C 	C 	0.87763 0.14467 0.30560 -0.07100
C 	C 	0.81646 0.15240 0.21240 0.06200
C 	C 	0.85499 0.16826 0.24600 -0.06100
H 	H 	0.86650 0.19590 0.22810 0.06400
C 	C 	0.75975 0.20902 0.17360 0.08100
C 	C 	0.80302 0.16907 0.06710 0.10500
C 	C 	0.79205 0.17773 0.14690 -0.15200
C 	C 	0.82133 0.08849 0.29940 -0.06200
C 	C 	0.86026 0.10462 0.33250 0.00600
H 	H 	0.87510 0.08830 0.37370 0.04200
C 	C 	0.80121 0.04650 0.33020 0.31900
C 	C 	0.79985 0.11171 0.23870 -0.06300
H 	H 	0.77370 0.09990 0.21480 0.06600
C 	C 	0.91891 0.16311 0.34390 0.35000
C 	C 	0.74839 0.21767 0.25680 -0.07500
H 	H 	0.76090 0.20370 0.30330 0.06200
C 	C 	0.83546 0.13661 0.04080 -0.18500
H 	H 	0.85340 0.11860 0.07500 0.08800
O 	O 	0.02540 0.28850 0.43200 -0.57500
O 	O 	0.96367 0.29651 0.29700 -0.45300
O 	O 	0.91955 0.29856 0.40190 -0.41900
C 	C 	0.93561 0.37904 0.24190 -0.08000
H 	H 	0.96240 0.36730 0.22050 0.07200
C 	C 	0.91329 0.35678 0.30470 -0.04300
C 	C 	0.93263 0.31533 0.33720 0.30000
H 	H 	0.94700 0.24280 0.52700 0.03100
In	In	0.02363 0.75719 0.38406 2.00600
O 	O 	0.18676 0.96944 0.39779 -0.48400
O 	O 	0.22915 0.97218 0.29050 -0.45400
O 	O 	0.07091 0.79697 0.32285 -0.52400
O 	O 	0.05984 0.86018 0.39265 -0.36800
C 	C 	0.12237 0.85533 0.30560 -0.07200
C 	C 	0.18354 0.84760 0.21240 0.06200
C 	C 	0.14501 0.83174 0.24600 -0.06100
H 	H 	0.13350 0.80410 0.22810 0.06500
C 	C 	0.24025 0.79098 0.17360 0.08100
C 	C 	0.19698 0.83093 0.06710 0.10500
C 	C 	0.20795 0.82227 0.14690 -0.15200
C 	C 	0.17867 0.91151 0.29940 -0.06300
C 	C 	0.13974 0.89538 0.33250 0.00600
H 	H 	0.12490 0.91170 0.37370 0.04100
C 	C 	0.19879 0.95350 0.33020 0.32100
C 	C 	0.20015 0.88829 0.23870 -0.06200
H 	H 	0.22630 0.90010 0.21480 0.06500
C 	C 	0.08109 0.83689 0.34390 0.35000
C 	C 	0.25161 0.78233 0.25680 -0.07600
H 	H 	0.23910 0.79630 0.30330 0.06200
C 	C 	0.16454 0.86339 0.04080 -0.18500
H 	H 	0.14660 0.88140 0.07500 0.08700
O 	O 	0.97460 0.71150 0.43200 -0.58000
O 	O 	0.03633 0.70349 0.29700 -0.44900
O 	O 	0.08045 0.70144 0.40190 -0.41700
C 	C 	0.06439 0.62096 0.24190 -0.08100
H 	H 	0.03760 0.63270 0.22050 0.07300
C 	C 	0.08671 0.64322 0.30470 -0.04100
C 	C 	0.06737 0.68467 0.33720 0.30000
H 	H 	0.05300 0.75720 0.52700 0.03100
In	In	0.24281 0.02363 0.38406 2.00600
O 	O 	0.03056 0.18676 0.39779 -0.48000
O 	O 	0.02782 0.22915 0.29050 -0.44900
O 	O 	0.20303 0.07091 0.32285 -0.52400
O 	O 	0.13982 0.05984 0.39265 -0.36700
C 	C 	0.14467 0.12237 0.30560 -0.07000
C 	C 	0.15240 0.18354 0.21240 0.06200
C 	C 	0.16826 0.14501 0.24600 -0.06100
H 	H 	0.19590 0.13350 0.22810 0.06500
C 	C 	0.20902 0.24025 0.17360 0.08100
C 	C 	0.16907 0.19698 0.06710 0.10500
C 	C 	0.17773 0.20795 0.14690 -0.15200
C 	C 	0.08849 0.17867 0.29940 -0.06100
C 	C 	0.10462 0.13974 0.33250 0.00500
H 	H 	0.08830 0.12490 0.37370 0.04200
C 	C 	0.04650 0.19879 0.33020 0.31900
C 	C 	0.11171 0.20015 0.23870 -0.06300
H 	H 	0.09990 0.22630 0.21480 0.06700
C 	C 	0.16311 0.08109 0.34390 0.34900
C 	C 	0.21767 0.25161 0.25680 -0.07500
H 	H 	0.20370 0.23910 0.30330 0.06200
C 	C 	0.13661 0.16454 0.04080 -0.18500
H 	H 	0.11860 0.14660 0.07500 0.08800
O 	O 	0.28850 0.97460 0.43200 -0.58100
O 	O 	0.29651 0.03633 0.29700 -0.44900
O 	O 	0.29856 0.08045 0.40190 -0.41700
C 	C 	0.37904 0.06439 0.24190 -0.08100
H 	H 	0.36730 0.03760 0.22050 0.07300
C 	C 	0.35678 0.08671 0.30470 -0.04100
C 	C 	0.31533 0.06737 0.33720 0.30000
H 	H 	0.24280 0.05300 0.52700 0.03100
In	In	0.75719 0.97637 0.38406 2.00400
O 	O 	0.96944 0.81324 0.39779 -0.48400
O 	O 	0.97218 0.77085 0.29050 -0.45400
O 	O 	0.79697 0.92909 0.32285 -0.52600
O 	O 	0.86018 0.94016 0.39265 -0.37100
C 	C 	0.85533 0.87763 0.30560 -0.07300
C 	C 	0.84760 0.81646 0.21240 0.06100
C 	C 	0.83174 0.85499 0.24600 -0.06000
H 	H 	0.80410 0.86650 0.22810 0.06400
C 	C 	0.79098 0.75975 0.17360 0.08100
C 	C 	0.83093 0.80302 0.06710 0.10400
C 	C 	0.82227 0.79205 0.14690 -0.15200
C 	C 	0.91151 0.82133 0.29940 -0.06400
C 	C 	0.89538 0.86026 0.33250 0.00700
H 	H 	0.91170 0.87510 0.37370 0.04000
C 	C 	0.95350 0.80121 0.33020 0.32100
C 	C 	0.88829 0.79985 0.23870 -0.06200
H 	H 	0.90010 0.77370 0.21480 0.06500
C 	C 	0.83689 0.91891 0.34390 0.35000
C 	C 	0.78233 0.74839 0.25680 -0.07500
H 	H 	0.79630 0.76090 0.30330 0.06200
C 	C 	0.86339 0.83546 0.04080 -0.18600
H 	H 	0.88140 0.85340 0.07500 0.08700
O 	O 	0.71150 0.02540 0.43200 -0.57500
O 	O 	0.70349 0.96367 0.29700 -0.45300
O 	O 	0.70144 0.91955 0.40190 -0.41900
C 	C 	0.62096 0.93561 0.24190 -0.08000
H 	H 	0.63270 0.96240 0.22050 0.07200
C 	C 	0.64322 0.91329 0.30470 -0.04300
C 	C 	0.68467 0.93263 0.33720 0.30100
H 	H 	0.75720 0.94700 0.52700 0.03100
Zn	Zn	0.22694 0.27306 -0.00000 0.79500
N 	N 	0.45172 0.04828 -0.00000 -0.38400
Zn	Zn	0.24453 0.25547 -0.00000 0.79300
Zn	Zn	0.77306 0.72694 -0.00000 0.79400
N 	N 	0.54828 0.95172 -0.00000 -0.38600
Zn	Zn	0.75547 0.74453 -0.00000 0.79300
Zn	Zn	0.72694 0.22694 -0.00000 0.79500
N 	N 	0.95172 0.45172 -0.00000 -0.38600
Zn	Zn	0.74453 0.24453 -0.00000 0.79300
Zn	Zn	0.27306 0.77306 -0.00000 0.79400
N 	N 	0.04828 0.54828 -0.00000 -0.38400
Zn	Zn	0.25547 0.75547 -0.00000 0.79300
N 	N 	0.23476 0.26524 0.12270 -0.35400
C 	C 	0.41826 0.08174 0.21120 0.07800
C 	C 	0.43278 0.06722 0.06610 0.11200
C 	C 	0.47429 0.02571 0.17400 0.08500
C 	C 	0.44300 0.05700 0.14660 -0.16300
C 	C 	0.40087 0.09913 0.04170 -0.18600
H 	H 	0.38300 0.11700 0.07620 0.08000
C 	C 	0.48415 0.01585 0.25580 -0.06900
H 	H 	0.47090 0.02910 0.30220 0.06400
C 	C 	0.37519 0.12481 0.33670 -0.01700
H 	H 	0.36130 0.13870 0.38180 0.06900
N 	N 	0.76524 0.73476 0.12270 -0.35400
C 	C 	0.58174 0.91826 0.21120 0.07800
C 	C 	0.56722 0.93278 0.06610 0.11100
C 	C 	0.52571 0.97429 0.17400 0.08500
C 	C 	0.55700 0.94300 0.14660 -0.16500
C 	C 	0.59913 0.90087 0.04170 -0.18700
H 	H 	0.61700 0.88300 0.07620 0.08000
C 	C 	0.51585 0.98415 0.25580 -0.08900
H 	H 	0.52910 0.97090 0.30220 0.06800
C 	C 	0.62481 0.87519 0.33670 -0.01700
H 	H 	0.63870 0.86130 0.38180 0.06800
N 	N 	0.73476 0.23476 0.12270 -0.35400
C 	C 	0.91826 0.41826 0.21120 0.07800
C 	C 	0.93278 0.43278 0.06610 0.11100
C 	C 	0.97429 0.47429 0.17400 0.08500
C 	C 	0.94300 0.44300 0.14660 -0.16500
C 	C 	0.90087 0.40087 0.04170 -0.18700
H 	H 	0.88300 0.38300 0.07620 0.08000
C 	C 	0.98415 0.48415 0.25580 -0.08900
H 	H 	0.97090 0.47090 0.30220 0.06800
C 	C 	0.87519 0.37519 0.33670 -0.01700
H 	H 	0.86130 0.36130 0.38180 0.06800
N 	N 	0.26524 0.76524 0.12270 -0.35400
C 	C 	0.08174 0.58174 0.21120 0.07800
C 	C 	0.06722 0.56722 0.06610 0.11200
C 	C 	0.02571 0.52571 0.17400 0.08500
C 	C 	0.05700 0.55700 0.14660 -0.16300
C 	C 	0.09913 0.59913 0.04170 -0.18600
H 	H 	0.11700 0.61700 0.07620 0.08000
C 	C 	0.01585 0.51585 0.25580 -0.06900
H 	H 	0.02910 0.52910 0.30220 0.06400
C 	C 	0.12481 0.62481 0.33670 -0.01700
H 	H 	0.13870 0.63870 0.38180 0.06900
N 	N 	0.26524 0.76524 0.87730 -0.33500
C 	C 	0.08174 0.58174 0.78880 0.07800
C 	C 	0.06722 0.56722 0.93390 0.11300
C 	C 	0.02571 0.52571 0.82600 0.09100
C 	C 	0.05700 0.55700 0.85340 -0.14800
C 	C 	0.09913 0.59913 0.95830 0.01300
H 	H 	0.11700 0.61700 0.92380 0.03700
C 	C 	0.01585 0.51585 0.74420 -0.06700
H 	H 	0.02910 0.52910 0.69780 0.06500
C 	C 	0.12481 0.62481 0.66330 -0.01800
H 	H 	0.13870 0.63870 0.61820 0.07000
N 	N 	0.73476 0.23476 0.87730 -0.33500
C 	C 	0.91826 0.41826 0.78880 0.07800
C 	C 	0.93278 0.43278 0.93390 0.11200
C 	C 	0.97429 0.47429 0.82600 0.09200
C 	C 	0.94300 0.44300 0.85340 -0.14900
C 	C 	0.90087 0.40087 0.95830 0.01200
H 	H 	0.88300 0.38300 0.92380 0.03700
C 	C 	0.98415 0.48415 0.74420 -0.08700
H 	H 	0.97090 0.47090 0.69780 0.06900
C 	C 	0.87519 0.37519 0.66330 -0.01800
H 	H 	0.86130 0.36130 0.61820 0.07000
N 	N 	0.76524 0.73476 0.87730 -0.33500
C 	C 	0.58174 0.91826 0.78880 0.07800
C 	C 	0.56722 0.93278 0.93390 0.11200
C 	C 	0.52571 0.97429 0.82600 0.09200
C 	C 	0.55700 0.94300 0.85340 -0.14900
C 	C 	0.59913 0.90087 0.95830 0.01200
H 	H 	0.61700 0.88300 0.92380 0.03700
C 	C 	0.51585 0.98415 0.74420 -0.08700
H 	H 	0.52910 0.97090 0.69780 0.06900
C 	C 	0.62481 0.87519 0.66330 -0.01800
H 	H 	0.63870 0.86130 0.61820 0.07000
N 	N 	0.23476 0.26524 0.87730 -0.33500
C 	C 	0.41826 0.08174 0.78880 0.07800
C 	C 	0.43278 0.06722 0.93390 0.11300
C 	C 	0.47429 0.02571 0.82600 0.09100
C 	C 	0.44300 0.05700 0.85340 -0.14800
C 	C 	0.40087 0.09913 0.95830 0.01300
H 	H 	0.38300 0.11700 0.92380 0.03700
C 	C 	0.48415 0.01585 0.74420 -0.06700
H 	H 	0.47090 0.02910 0.69780 0.06500
C 	C 	0.37519 0.12481 0.66330 -0.01800
H 	H 	0.36130 0.13870 0.61820 0.07000
O 	O 	0.45737 0.27844 0.50000 -1.02700
H 	H 	0.42970 0.28200 0.50000 0.31700
C 	C 	0.53820 0.19920 0.50000 0.56200
H 	H 	0.56100 0.17740 0.50000 -0.11700
Na	Na	0.49144 0.35309 0.50000 0.58500
O 	O 	0.54263 0.72156 0.50000 -1.02700
H 	H 	0.57030 0.71800 0.50000 0.31700
C 	C 	0.46180 0.80080 0.50000 0.56200
H 	H 	0.43900 0.82260 0.50000 -0.11800
Na	Na	0.50856 0.64691 0.50000 0.58500
O 	O 	0.72156 0.45737 0.50000 -1.02700
H 	H 	0.71800 0.42970 0.50000 0.31700
C 	C 	0.80080 0.53820 0.50000 0.56200
H 	H 	0.82260 0.56100 0.50000 -0.11800
Na	Na	0.64691 0.49144 0.50000 0.58500
O 	O 	0.27844 0.54263 0.50000 -1.02700
H 	H 	0.28200 0.57030 0.50000 0.31700
C 	C 	0.19920 0.46180 0.50000 0.56200
H 	H 	0.17740 0.43900 0.50000 -0.11700
Na	Na	0.35309 0.50856 0.50000 0.58500
O 	O 	0.04263 0.77844 0.50000 -1.02500
H 	H 	0.07030 0.78200 0.50000 0.31700
C 	C 	0.96180 0.69920 0.50000 0.56200
H 	H 	0.93900 0.67740 0.50000 -0.11800
Na	Na	0.00856 0.85309 0.50000 0.58500
O 	O 	0.95737 0.22156 0.50000 -1.02900
H 	H 	0.92970 0.21800 0.50000 0.31800
C 	C 	0.03820 0.30080 0.50000 0.56100
H 	H 	0.06100 0.32260 0.50000 -0.11700
Na	Na	0.99144 0.14691 0.50000 0.58400
O 	O 	0.77844 0.95737 0.50000 -1.02900
H 	H 	0.78200 0.92970 0.50000 0.31800
C 	C 	0.69920 0.03820 0.50000 0.56100
H 	H 	0.67740 0.06100 0.50000 -0.11600
Na	Na	0.85309 0.99144 0.50000 0.58400
O 	O 	0.22156 0.04263 0.50000 -1.02400
H 	H 	0.21800 0.07030 0.50000 0.31700
C 	C 	0.30080 0.96180 0.50000 0.56200
H 	H 	0.32260 0.93900 0.50000 -0.11800
Na	Na	0.14691 0.00856 0.50000 0.58600
N 	N 	0.28382 0.31228 -0.00000 -0.37700
N 	N 	0.71618 0.68772 -0.00000 -0.37700
N 	N 	0.68772 0.28382 -0.00000 -0.37700
N 	N 	0.31228 0.71618 -0.00000 -0.37700
N 	N 	0.21618 0.81228 -0.00000 -0.37700
N 	N 	0.78382 0.18772 -0.00000 -0.37700
N 	N 	0.81228 0.78382 -0.00000 -0.37700
N 	N 	0.18772 0.21618 -0.00000 -0.37700
N 	N 	0.50000 0.00000 0.12380 -0.35300
N 	N 	0.00000 0.50000 0.12380 -0.35300
N 	N 	-0.00000 0.50000 0.87620 -0.33400
N 	N 	0.50000 -0.00000 0.87620 -0.33400
Zn	Zn	0.50927 0.00927 -0.00000 0.81300
Zn	Zn	0.49073 0.99073 -0.00000 0.80800
Zn	Zn	0.99073 0.50927 -0.00000 0.80800
Zn	Zn	0.00927 0.49073 -0.00000 0.81300
