data_crystal

_cell_length_a 19.95900
_cell_length_b 46.01900
_cell_length_c 16.27100
_cell_angle_alpha 90.00000
_cell_angle_beta  90.00000
_cell_angle_gamma 90.00000

_symmetry_space_group_name_	'P 1'
_symmetry_space_group_name_H-M	'P 1'

loop_
_symmetry_equiv_pos_as_xyz
  x,y,z

loop_
_atom_site_label
_atom_site_type_symbol
_atom_site_fract_x
_atom_site_fract_y
_atom_site_fract_z
_atom_site_charge
Mn	Mn	0.23948 0.61869 0.88749 1.32600
O 	O 	0.31522 0.55219 0.90033 -0.38300
O 	O 	0.24155 0.57698 0.82539 -0.41600
O 	O 	0.62521 0.88046 0.88900 -0.32400
O 	O 	0.32208 0.63446 0.81590 -0.39700
O 	O 	0.37868 0.61190 0.91230 -0.43200
O 	O 	0.67782 0.85613 0.79390 -0.33200
O 	O 	0.24540 0.66305 0.93890 -0.55900
C 	C 	0.24598 0.52637 0.81080 -0.06200
C 	C 	0.44002 0.65637 0.74650 -0.05800
H 	H 	0.39870 0.66280 0.72400 0.07200
C 	C 	0.19899 0.52614 0.74620 -0.05100
H 	H 	0.18420 0.54400 0.72310 0.06500
C 	C 	0.44004 0.63662 0.81130 -0.05600
C 	C 	0.55958 0.85068 0.79830 0.00600
C 	C 	0.26970 0.55423 0.84790 0.37900
C 	C 	0.55944 0.82909 0.74190 -0.10500
H 	H 	0.60080 0.82210 0.72090 0.08500
C 	C 	0.37520 0.62657 0.84920 0.37600
C 	C 	0.62530 0.86317 0.83080 0.28100
Mn	Mn	0.73948 0.11869 0.88749 1.32700
O 	O 	0.81522 0.05219 0.90033 -0.38300
O 	O 	0.74155 0.07698 0.82539 -0.41600
O 	O 	0.12521 0.38046 0.88900 -0.32400
O 	O 	0.82208 0.13446 0.81590 -0.39800
O 	O 	0.87868 0.11190 0.91230 -0.43400
O 	O 	0.17782 0.35613 0.79390 -0.33200
O 	O 	0.74540 0.16305 0.93890 -0.56000
C 	C 	0.74598 0.02637 0.81080 -0.06300
C 	C 	0.94002 0.15637 0.74650 -0.06200
H 	H 	0.89870 0.16280 0.72400 0.07200
C 	C 	0.69899 0.02614 0.74620 -0.05100
H 	H 	0.68420 0.04400 0.72310 0.06500
C 	C 	0.94004 0.13662 0.81130 -0.06100
C 	C 	0.05958 0.35068 0.79830 0.00600
C 	C 	0.76970 0.05423 0.84790 0.37900
C 	C 	0.05944 0.32909 0.74190 -0.10600
H 	H 	0.10080 0.32210 0.72090 0.08600
C 	C 	0.87520 0.12657 0.84920 0.37700
C 	C 	0.12530 0.36317 0.83080 0.28100
Mn	Mn	0.76052 0.38131 0.88749 1.32700
O 	O 	0.68478 0.44781 0.90033 -0.38300
O 	O 	0.75845 0.42302 0.82539 -0.41600
O 	O 	0.37479 0.11954 0.88900 -0.32400
O 	O 	0.67792 0.36554 0.81590 -0.39700
O 	O 	0.62132 0.38810 0.91230 -0.43200
O 	O 	0.32218 0.14387 0.79390 -0.33200
O 	O 	0.75460 0.33695 0.93890 -0.56000
C 	C 	0.75402 0.47363 0.81080 -0.06300
C 	C 	0.55998 0.34363 0.74650 -0.05800
H 	H 	0.60130 0.33720 0.72400 0.07100
C 	C 	0.80101 0.47386 0.74620 -0.05100
H 	H 	0.81580 0.45600 0.72310 0.06500
C 	C 	0.55996 0.36338 0.81130 -0.05600
C 	C 	0.44042 0.14932 0.79830 0.00600
C 	C 	0.73030 0.44577 0.84790 0.37900
C 	C 	0.44056 0.17091 0.74190 -0.10500
H 	H 	0.39920 0.17790 0.72090 0.08600
C 	C 	0.62480 0.37343 0.84920 0.37600
C 	C 	0.37470 0.13683 0.83080 0.28100
Mn	Mn	0.26052 0.88131 0.88749 1.32700
O 	O 	0.18478 0.94781 0.90033 -0.38300
O 	O 	0.25845 0.92302 0.82539 -0.41600
O 	O 	0.87479 0.61954 0.88900 -0.32600
O 	O 	0.17792 0.86554 0.81590 -0.39700
O 	O 	0.12132 0.88810 0.91230 -0.43200
O 	O 	0.82218 0.64387 0.79390 -0.33300
O 	O 	0.25460 0.83695 0.93890 -0.55900
C 	C 	0.25402 0.97363 0.81080 -0.06300
C 	C 	0.05998 0.84363 0.74650 -0.05800
H 	H 	0.10130 0.83720 0.72400 0.07200
C 	C 	0.30101 0.97386 0.74620 -0.05200
H 	H 	0.31580 0.95600 0.72310 0.06600
C 	C 	0.05996 0.86338 0.81130 -0.05700
C 	C 	0.94042 0.64932 0.79830 0.00200
C 	C 	0.23030 0.94577 0.84790 0.37900
C 	C 	0.94056 0.67091 0.74190 -0.11000
H 	H 	0.89920 0.67790 0.72090 0.08600
C 	C 	0.12480 0.87343 0.84920 0.37700
C 	C 	0.87470 0.63683 0.83080 0.28200
Mn	Mn	0.76052 0.61869 0.11251 1.30700
O 	O 	0.68478 0.55219 0.09967 -0.44200
O 	O 	0.75845 0.57698 0.17461 -0.43400
O 	O 	0.37479 0.88046 0.11100 -0.37700
O 	O 	0.67792 0.63446 0.18410 -0.41200
O 	O 	0.62132 0.61190 0.08770 -0.49900
O 	O 	0.32218 0.85613 0.20610 -0.34200
O 	O 	0.75460 0.66305 0.06110 -0.65600
C 	C 	0.75402 0.52637 0.18920 -0.09000
C 	C 	0.55998 0.65637 0.25350 -0.04500
H 	H 	0.60130 0.66280 0.27600 0.06300
C 	C 	0.80101 0.52614 0.25380 -0.04300
H 	H 	0.81580 0.54400 0.27690 0.05900
C 	C 	0.55996 0.63662 0.18870 -0.08900
C 	C 	0.44042 0.85068 0.20170 -0.02400
C 	C 	0.73030 0.55423 0.15210 0.38500
C 	C 	0.44056 0.82909 0.25810 -0.09300
H 	H 	0.39920 0.82210 0.27910 0.07600
C 	C 	0.62480 0.62657 0.15080 0.39000
C 	C 	0.37470 0.86317 0.16920 0.29000
Mn	Mn	0.26052 0.11869 0.11251 1.30700
O 	O 	0.18478 0.05219 0.09967 -0.44100
O 	O 	0.25845 0.07698 0.17461 -0.43400
O 	O 	0.87479 0.38046 0.11100 -0.37800
O 	O 	0.17792 0.13446 0.18410 -0.41200
O 	O 	0.12132 0.11190 0.08770 -0.49900
O 	O 	0.82218 0.35613 0.20610 -0.34300
O 	O 	0.25460 0.16305 0.06110 -0.65500
C 	C 	0.25402 0.02637 0.18920 -0.09000
C 	C 	0.05998 0.15637 0.25350 -0.04600
H 	H 	0.10130 0.16280 0.27600 0.06300
C 	C 	0.30101 0.02614 0.25380 -0.04300
H 	H 	0.31580 0.04400 0.27690 0.06000
C 	C 	0.05996 0.13662 0.18870 -0.09000
C 	C 	0.94042 0.35068 0.20170 -0.02700
C 	C 	0.23030 0.05423 0.15210 0.38500
C 	C 	0.94056 0.32909 0.25810 -0.09800
H 	H 	0.89920 0.32210 0.27910 0.07700
C 	C 	0.12480 0.12657 0.15080 0.39000
C 	C 	0.87470 0.36317 0.16920 0.29000
Mn	Mn	0.23948 0.38131 0.11251 1.30700
O 	O 	0.31522 0.44781 0.09967 -0.44200
O 	O 	0.24155 0.42302 0.17461 -0.43400
O 	O 	0.62521 0.11954 0.11100 -0.37700
O 	O 	0.32208 0.36554 0.18410 -0.41200
O 	O 	0.37868 0.38810 0.08770 -0.49900
O 	O 	0.67782 0.14387 0.20610 -0.34300
O 	O 	0.24540 0.33695 0.06110 -0.65500
C 	C 	0.24598 0.47363 0.18920 -0.09000
C 	C 	0.44002 0.34363 0.25350 -0.04500
H 	H 	0.39870 0.33720 0.27600 0.06300
C 	C 	0.19899 0.47386 0.25380 -0.04300
H 	H 	0.18420 0.45600 0.27690 0.06000
C 	C 	0.44004 0.36338 0.18870 -0.08900
C 	C 	0.55958 0.14932 0.20170 -0.02400
C 	C 	0.26970 0.44577 0.15210 0.38500
C 	C 	0.55944 0.17091 0.25810 -0.09300
H 	H 	0.60080 0.17790 0.27910 0.07600
C 	C 	0.37520 0.37343 0.15080 0.39000
C 	C 	0.62530 0.13683 0.16920 0.29000
Mn	Mn	0.73948 0.88131 0.11251 1.30700
O 	O 	0.81522 0.94781 0.09967 -0.44200
O 	O 	0.74155 0.92302 0.17461 -0.43400
O 	O 	0.12521 0.61954 0.11100 -0.37700
O 	O 	0.82208 0.86554 0.18410 -0.41200
O 	O 	0.87868 0.88810 0.08770 -0.50000
O 	O 	0.17782 0.64387 0.20610 -0.34200
O 	O 	0.74540 0.83695 0.06110 -0.65600
C 	C 	0.74598 0.97363 0.18920 -0.09100
C 	C 	0.94002 0.84363 0.25350 -0.05000
H 	H 	0.89870 0.83720 0.27600 0.06300
C 	C 	0.69899 0.97386 0.25380 -0.04400
H 	H 	0.68420 0.95600 0.27690 0.05900
C 	C 	0.94004 0.86338 0.18870 -0.09300
C 	C 	0.05958 0.64932 0.20170 -0.02400
C 	C 	0.76970 0.94577 0.15210 0.38500
C 	C 	0.05944 0.67091 0.25810 -0.09400
H 	H 	0.10080 0.67790 0.27910 0.07700
C 	C 	0.87520 0.87343 0.15080 0.39000
C 	C 	0.12530 0.63683 0.16920 0.29000
Mn	Mn	0.76052 0.38131 0.11251 1.30700
O 	O 	0.68478 0.44781 0.09967 -0.44200
O 	O 	0.75845 0.42302 0.17461 -0.43400
O 	O 	0.37479 0.11954 0.11100 -0.37700
O 	O 	0.67792 0.36554 0.18410 -0.41200
O 	O 	0.62132 0.38810 0.08770 -0.49900
O 	O 	0.32218 0.14387 0.20610 -0.34200
O 	O 	0.75460 0.33695 0.06110 -0.65600
C 	C 	0.75402 0.47363 0.18920 -0.09000
C 	C 	0.55998 0.34363 0.25350 -0.04500
H 	H 	0.60130 0.33720 0.27600 0.06300
C 	C 	0.80101 0.47386 0.25380 -0.04300
H 	H 	0.81580 0.45600 0.27690 0.05900
C 	C 	0.55996 0.36338 0.18870 -0.08900
C 	C 	0.44042 0.14932 0.20170 -0.02400
C 	C 	0.73030 0.44577 0.15210 0.38500
C 	C 	0.44056 0.17091 0.25810 -0.09300
H 	H 	0.39920 0.17790 0.27910 0.07600
C 	C 	0.62480 0.37343 0.15080 0.39000
C 	C 	0.37470 0.13683 0.16920 0.29000
Mn	Mn	0.26052 0.88131 0.11251 1.30700
O 	O 	0.18478 0.94781 0.09967 -0.44100
O 	O 	0.25845 0.92302 0.17461 -0.43400
O 	O 	0.87479 0.61954 0.11100 -0.37800
O 	O 	0.17792 0.86554 0.18410 -0.41200
O 	O 	0.12132 0.88810 0.08770 -0.49900
O 	O 	0.82218 0.64387 0.20610 -0.34300
O 	O 	0.25460 0.83695 0.06110 -0.65500
C 	C 	0.25402 0.97363 0.18920 -0.09000
C 	C 	0.05998 0.84363 0.25350 -0.04600
H 	H 	0.10130 0.83720 0.27600 0.06300
C 	C 	0.30101 0.97386 0.25380 -0.04400
H 	H 	0.31580 0.95600 0.27690 0.06000
C 	C 	0.05996 0.86338 0.18870 -0.09000
C 	C 	0.94042 0.64932 0.20170 -0.02700
C 	C 	0.23030 0.94577 0.15210 0.38500
C 	C 	0.94056 0.67091 0.25810 -0.09800
H 	H 	0.89920 0.67790 0.27910 0.07700
C 	C 	0.12480 0.87343 0.15080 0.39000
C 	C 	0.87470 0.63683 0.16920 0.29000
Mn	Mn	0.23948 0.61869 0.11251 1.30700
O 	O 	0.31522 0.55219 0.09967 -0.44200
O 	O 	0.24155 0.57698 0.17461 -0.43400
O 	O 	0.62521 0.88046 0.11100 -0.37700
O 	O 	0.32208 0.63446 0.18410 -0.41200
O 	O 	0.37868 0.61190 0.08770 -0.49900
O 	O 	0.67782 0.85613 0.20610 -0.34300
O 	O 	0.24540 0.66305 0.06110 -0.65500
C 	C 	0.24598 0.52637 0.18920 -0.09000
C 	C 	0.44002 0.65637 0.25350 -0.04500
H 	H 	0.39870 0.66280 0.27600 0.06300
C 	C 	0.19899 0.52614 0.25380 -0.04300
H 	H 	0.18420 0.54400 0.27690 0.06000
C 	C 	0.44004 0.63662 0.18870 -0.08900
C 	C 	0.55958 0.85068 0.20170 -0.02400
C 	C 	0.26970 0.55423 0.15210 0.38500
C 	C 	0.55944 0.82909 0.25810 -0.09300
H 	H 	0.60080 0.82210 0.27910 0.07600
C 	C 	0.37520 0.62657 0.15080 0.39000
C 	C 	0.62530 0.86317 0.16920 0.29000
Mn	Mn	0.73948 0.11869 0.11251 1.30700
O 	O 	0.81522 0.05219 0.09967 -0.44200
O 	O 	0.74155 0.07698 0.17461 -0.43400
O 	O 	0.12521 0.38046 0.11100 -0.37700
O 	O 	0.82208 0.13446 0.18410 -0.41200
O 	O 	0.87868 0.11190 0.08770 -0.50000
O 	O 	0.17782 0.35613 0.20610 -0.34200
O 	O 	0.74540 0.16305 0.06110 -0.65600
C 	C 	0.74598 0.02637 0.18920 -0.09000
C 	C 	0.94002 0.15637 0.25350 -0.05000
H 	H 	0.89870 0.16280 0.27600 0.06300
C 	C 	0.69899 0.02614 0.25380 -0.04300
H 	H 	0.68420 0.04400 0.27690 0.05900
C 	C 	0.94004 0.13662 0.18870 -0.09300
C 	C 	0.05958 0.35068 0.20170 -0.02400
C 	C 	0.76970 0.05423 0.15210 0.38500
C 	C 	0.05944 0.32909 0.25810 -0.09400
H 	H 	0.10080 0.32210 0.27910 0.07700
C 	C 	0.87520 0.12657 0.15080 0.39000
C 	C 	0.12530 0.36317 0.16920 0.29000
Mn	Mn	0.23948 0.38131 0.88749 1.32700
O 	O 	0.31522 0.44781 0.90033 -0.38300
O 	O 	0.24155 0.42302 0.82539 -0.41600
O 	O 	0.62521 0.11954 0.88900 -0.32400
O 	O 	0.32208 0.36554 0.81590 -0.39700
O 	O 	0.37868 0.38810 0.91230 -0.43200
O 	O 	0.67782 0.14387 0.79390 -0.33200
O 	O 	0.24540 0.33695 0.93890 -0.55900
C 	C 	0.24598 0.47363 0.81080 -0.06200
C 	C 	0.44002 0.34363 0.74650 -0.05800
H 	H 	0.39870 0.33720 0.72400 0.07200
C 	C 	0.19899 0.47386 0.74620 -0.05100
H 	H 	0.18420 0.45600 0.72310 0.06500
C 	C 	0.44004 0.36338 0.81130 -0.05600
C 	C 	0.55958 0.14932 0.79830 0.00600
C 	C 	0.26970 0.44577 0.84790 0.37900
C 	C 	0.55944 0.17091 0.74190 -0.10500
H 	H 	0.60080 0.17790 0.72090 0.08600
C 	C 	0.37520 0.37343 0.84920 0.37600
C 	C 	0.62530 0.13683 0.83080 0.28100
Mn	Mn	0.73948 0.88131 0.88749 1.32700
O 	O 	0.81522 0.94781 0.90033 -0.38400
O 	O 	0.74155 0.92302 0.82539 -0.41600
O 	O 	0.12521 0.61954 0.88900 -0.32400
O 	O 	0.82208 0.86554 0.81590 -0.39800
O 	O 	0.87868 0.88810 0.91230 -0.43400
O 	O 	0.17782 0.64387 0.79390 -0.33200
O 	O 	0.74540 0.83695 0.93890 -0.56000
C 	C 	0.74598 0.97363 0.81080 -0.06300
C 	C 	0.94002 0.84363 0.74650 -0.06200
H 	H 	0.89870 0.83720 0.72400 0.07200
C 	C 	0.69899 0.97386 0.74620 -0.05200
H 	H 	0.68420 0.95600 0.72310 0.06500
C 	C 	0.94004 0.86338 0.81130 -0.06100
C 	C 	0.05958 0.64932 0.79830 0.00600
C 	C 	0.76970 0.94577 0.84790 0.37900
C 	C 	0.05944 0.67091 0.74190 -0.10600
H 	H 	0.10080 0.67790 0.72090 0.08600
C 	C 	0.87520 0.87343 0.84920 0.37700
C 	C 	0.12530 0.63683 0.83080 0.28100
Mn	Mn	0.76052 0.61869 0.88749 1.32700
O 	O 	0.68478 0.55219 0.90033 -0.38300
O 	O 	0.75845 0.57698 0.82539 -0.41600
O 	O 	0.37479 0.88046 0.88900 -0.32400
O 	O 	0.67792 0.63446 0.81590 -0.39700
O 	O 	0.62132 0.61190 0.91230 -0.43200
O 	O 	0.32218 0.85613 0.79390 -0.33200
O 	O 	0.75460 0.66305 0.93890 -0.56000
C 	C 	0.75402 0.52637 0.81080 -0.06300
C 	C 	0.55998 0.65637 0.74650 -0.05800
H 	H 	0.60130 0.66280 0.72400 0.07100
C 	C 	0.80101 0.52614 0.74620 -0.05100
H 	H 	0.81580 0.54400 0.72310 0.06500
C 	C 	0.55996 0.63662 0.81130 -0.05600
C 	C 	0.44042 0.85068 0.79830 0.00600
C 	C 	0.73030 0.55423 0.84790 0.37900
C 	C 	0.44056 0.82909 0.74190 -0.10500
H 	H 	0.39920 0.82210 0.72090 0.08600
C 	C 	0.62480 0.62657 0.84920 0.37600
C 	C 	0.37470 0.86317 0.83080 0.28100
Mn	Mn	0.26052 0.11869 0.88749 1.32700
O 	O 	0.18478 0.05219 0.90033 -0.38200
O 	O 	0.25845 0.07698 0.82539 -0.41600
O 	O 	0.87479 0.38046 0.88900 -0.32600
O 	O 	0.17792 0.13446 0.81590 -0.39700
O 	O 	0.12132 0.11190 0.91230 -0.43200
O 	O 	0.82218 0.35613 0.79390 -0.33300
O 	O 	0.25460 0.16305 0.93890 -0.55900
C 	C 	0.25402 0.02637 0.81080 -0.06200
C 	C 	0.05998 0.15637 0.74650 -0.05800
H 	H 	0.10130 0.16280 0.72400 0.07200
C 	C 	0.30101 0.02614 0.74620 -0.05100
H 	H 	0.31580 0.04400 0.72310 0.06500
C 	C 	0.05996 0.13662 0.81130 -0.05700
C 	C 	0.94042 0.35068 0.79830 0.00200
C 	C 	0.23030 0.05423 0.84790 0.37900
C 	C 	0.94056 0.32909 0.74190 -0.11000
H 	H 	0.89920 0.32210 0.72090 0.08600
C 	C 	0.12480 0.12657 0.84920 0.37700
C 	C 	0.87470 0.36317 0.83080 0.28200
Mn	Mn	0.34677 0.57963 -0.00000 1.28300
O 	O 	0.24537 0.59666 -0.00000 -0.67400
O 	O 	0.44384 0.55806 -0.00000 -0.42200
C 	C 	0.24950 0.67180 -0.00000 0.84400
H 	H 	0.25880 0.69210 -0.00000 -0.21800
Mn	Mn	0.84677 0.07963 -0.00000 1.28400
O 	O 	0.74537 0.09666 -0.00000 -0.67400
O 	O 	0.94384 0.05806 -0.00000 -0.42600
C 	C 	0.74950 0.17180 -0.00000 0.84500
H 	H 	0.75880 0.19210 -0.00000 -0.21900
Mn	Mn	0.65323 0.42037 -0.00000 1.28300
O 	O 	0.75463 0.40334 -0.00000 -0.67400
O 	O 	0.55616 0.44194 -0.00000 -0.42200
C 	C 	0.75050 0.32820 -0.00000 0.84500
H 	H 	0.74120 0.30790 -0.00000 -0.21900
Mn	Mn	0.15323 0.92037 -0.00000 1.28400
O 	O 	0.25463 0.90334 -0.00000 -0.67400
O 	O 	0.05616 0.94194 -0.00000 -0.42300
C 	C 	0.25050 0.82820 -0.00000 0.84400
H 	H 	0.24120 0.80790 -0.00000 -0.21800
Mn	Mn	0.65323 0.57963 -0.00000 1.28300
O 	O 	0.75463 0.59666 -0.00000 -0.67400
O 	O 	0.55616 0.55806 -0.00000 -0.42200
C 	C 	0.75050 0.67180 -0.00000 0.84500
H 	H 	0.74120 0.69210 -0.00000 -0.21900
Mn	Mn	0.15323 0.07963 -0.00000 1.28400
O 	O 	0.25463 0.09666 -0.00000 -0.67400
O 	O 	0.05616 0.05806 -0.00000 -0.42200
C 	C 	0.25050 0.17180 -0.00000 0.84400
H 	H 	0.24120 0.19210 -0.00000 -0.21800
Mn	Mn	0.34677 0.42037 -0.00000 1.28300
O 	O 	0.24537 0.40334 -0.00000 -0.67400
O 	O 	0.44384 0.44194 -0.00000 -0.42200
C 	C 	0.24950 0.32820 -0.00000 0.84400
H 	H 	0.25880 0.30790 -0.00000 -0.21800
Mn	Mn	0.84677 0.92037 -0.00000 1.28400
O 	O 	0.74537 0.90334 -0.00000 -0.67400
O 	O 	0.94384 0.94194 -0.00000 -0.42600
C 	C 	0.74950 0.82820 -0.00000 0.84500
H 	H 	0.75880 0.80790 -0.00000 -0.21900
Zn	Zn	0.00000 0.50780 0.50000 0.78600
Zn	Zn	0.50000 0.00780 0.50000 0.78600
Zn	Zn	-0.00000 0.49220 0.50000 0.78600
Zn	Zn	0.50000 0.99220 0.50000 0.78500
Zn	Zn	0.52301 0.74181 0.50000 0.87400
Zn	Zn	0.02301 0.24181 0.50000 0.87500
Zn	Zn	0.47699 0.25819 0.50000 0.87400
Zn	Zn	0.97699 0.75819 0.50000 0.87100
Zn	Zn	0.47699 0.74181 0.50000 0.87400
Zn	Zn	0.97699 0.24181 0.50000 0.87100
Zn	Zn	0.52301 0.25819 0.50000 0.87400
Zn	Zn	0.02301 0.75819 0.50000 0.87500
N 	N 	0.00000 0.50000 0.62570 -0.33600
N 	N 	0.50000 0.00000 0.62570 -0.33900
N 	N 	0.00000 0.50000 0.37430 -0.33600
N 	N 	0.50000 -0.00000 0.37430 -0.33800
N 	N 	0.10270 0.50000 0.50000 -0.33700
N 	N 	0.60270 0.00000 0.50000 -0.33800
N 	N 	0.89730 0.50000 0.50000 -0.33900
N 	N 	0.39730 0.00000 0.50000 -0.33800
N 	N 	0.50000 0.69808 0.50000 -0.36000
N 	N 	0.50000 0.78639 0.50000 -0.36100
N 	N 	0.00000 0.19808 0.50000 -0.35900
N 	N 	0.00000 0.28639 0.50000 -0.36000
N 	N 	0.50000 0.30192 0.50000 -0.36000
N 	N 	0.50000 0.21361 0.50000 -0.36100
N 	N 	0.00000 0.80192 0.50000 -0.35900
N 	N 	-0.00000 0.71361 0.50000 -0.36000
N 	N 	0.50000 0.74216 0.62470 -0.36400
C 	C 	0.50000 0.80361 0.56810 0.08700
C 	C 	0.50000 0.76546 0.67470 0.09600
C 	C 	0.50000 0.66669 0.71440 0.06700
C 	C 	0.50000 0.79458 0.64720 -0.16300
C 	C 	0.50000 0.71789 0.67550 0.07300
C 	C 	0.50000 0.64973 0.54110 -0.07200
H 	H 	0.50000 0.63300 0.57510 0.06300
C 	C 	0.50000 0.81709 0.71440 0.10000
C 	C 	0.50000 0.68868 0.65020 -0.13600
C 	C 	0.50000 0.67933 0.56950 0.07000
C 	C 	0.50000 0.62674 0.84320 0.01000
H 	H 	0.50000 0.61310 0.88710 0.07800
C 	C 	0.50000 0.72686 0.76020 -0.06200
H 	H 	0.50000 0.71460 0.80710 0.07700
C 	C 	0.50000 0.86243 0.82870 -0.05200
H 	H 	0.50000 0.87770 0.86820 0.09900
C 	C 	0.50000 0.83448 0.54000 -0.07600
H 	H 	0.50000 0.85120 0.57430 0.05600
C 	C 	0.50000 0.75658 0.75990 -0.08000
H 	H 	0.50000 0.76900 0.80660 0.08300
N 	N 	0.00000 0.24216 0.62470 -0.36400
C 	C 	-0.00000 0.30361 0.56810 0.08800
C 	C 	0.00000 0.26546 0.67470 0.09700
C 	C 	-0.00000 0.16669 0.71440 0.07200
C 	C 	0.00000 0.29458 0.64720 -0.16400
C 	C 	0.00000 0.21789 0.67550 0.07400
C 	C 	-0.00000 0.14973 0.54110 -0.07200
H 	H 	-0.00000 0.13300 0.57510 0.06400
C 	C 	0.00000 0.31709 0.71440 0.10500
C 	C 	0.00000 0.18868 0.65020 -0.13700
C 	C 	0.00000 0.17933 0.56950 0.07100
C 	C 	0.00000 0.12674 0.84320 0.01600
H 	H 	0.00000 0.11310 0.88710 0.07600
C 	C 	0.00000 0.22686 0.76020 -0.06200
H 	H 	0.00000 0.21460 0.80710 0.07800
C 	C 	0.00000 0.36243 0.82870 -0.04700
H 	H 	0.00000 0.37770 0.86820 0.09800
C 	C 	0.00000 0.33448 0.54000 -0.07600
H 	H 	0.00000 0.35120 0.57430 0.05700
C 	C 	0.00000 0.25658 0.75990 -0.08000
H 	H 	0.00000 0.26900 0.80660 0.08300
N 	N 	0.50000 0.25784 0.62470 -0.36400
C 	C 	0.50000 0.19639 0.56810 0.08700
C 	C 	0.50000 0.23454 0.67470 0.09600
C 	C 	0.50000 0.33331 0.71440 0.06700
C 	C 	0.50000 0.20542 0.64720 -0.16300
C 	C 	0.50000 0.28211 0.67550 0.07300
C 	C 	0.50000 0.35027 0.54110 -0.07200
H 	H 	0.50000 0.36700 0.57510 0.06300
C 	C 	0.50000 0.18291 0.71440 0.10000
C 	C 	0.50000 0.31132 0.65020 -0.13600
C 	C 	0.50000 0.32067 0.56950 0.07000
C 	C 	0.50000 0.37326 0.84320 0.01000
H 	H 	0.50000 0.38690 0.88710 0.07800
C 	C 	0.50000 0.27314 0.76020 -0.06200
H 	H 	0.50000 0.28540 0.80710 0.07700
C 	C 	0.50000 0.13757 0.82870 -0.05200
H 	H 	0.50000 0.12230 0.86820 0.09900
C 	C 	0.50000 0.16552 0.54000 -0.07600
H 	H 	0.50000 0.14880 0.57430 0.05600
C 	C 	0.50000 0.24342 0.75990 -0.08000
H 	H 	0.50000 0.23100 0.80660 0.08300
N 	N 	-0.00000 0.75784 0.62470 -0.36400
C 	C 	0.00000 0.69639 0.56810 0.08800
C 	C 	-0.00000 0.73454 0.67470 0.09700
C 	C 	0.00000 0.83331 0.71440 0.07200
C 	C 	-0.00000 0.70542 0.64720 -0.16400
C 	C 	0.00000 0.78211 0.67550 0.07400
C 	C 	0.00000 0.85027 0.54110 -0.07200
H 	H 	0.00000 0.86700 0.57510 0.06400
C 	C 	0.00000 0.68291 0.71440 0.10500
C 	C 	0.00000 0.81132 0.65020 -0.13700
C 	C 	-0.00000 0.82067 0.56950 0.07100
C 	C 	0.00000 0.87326 0.84320 0.01600
H 	H 	0.00000 0.88690 0.88710 0.07600
C 	C 	0.00000 0.77314 0.76020 -0.06200
H 	H 	-0.00000 0.78540 0.80710 0.07800
C 	C 	0.00000 0.63757 0.82870 -0.04700
H 	H 	-0.00000 0.62230 0.86820 0.09800
C 	C 	-0.00000 0.66552 0.54000 -0.07600
H 	H 	0.00000 0.64880 0.57430 0.05700
C 	C 	0.00000 0.74342 0.75990 -0.08000
H 	H 	0.00000 0.73100 0.80660 0.08300
N 	N 	0.50000 0.74216 0.37530 -0.36400
C 	C 	0.50000 0.80361 0.43190 0.08400
C 	C 	0.50000 0.76546 0.32530 0.08900
C 	C 	0.50000 0.66669 0.28560 0.05200
C 	C 	0.50000 0.79458 0.35280 -0.16000
C 	C 	0.50000 0.71789 0.32450 0.06700
C 	C 	0.50000 0.64973 0.45890 -0.07000
H 	H 	0.50000 0.63300 0.42490 0.06200
C 	C 	0.50000 0.81709 0.28560 0.08400
C 	C 	0.50000 0.68868 0.34980 -0.13200
C 	C 	0.50000 0.67933 0.43050 0.06700
C 	C 	0.50000 0.62674 0.15680 0.02700
H 	H 	0.50000 0.61310 0.11290 0.04100
C 	C 	0.50000 0.72686 0.23980 -0.06800
H 	H 	0.50000 0.71460 0.19290 0.05600
C 	C 	0.50000 0.86243 0.17130 -0.04000
H 	H 	0.50000 0.87770 0.13180 0.06700
C 	C 	0.50000 0.83448 0.46000 -0.07400
H 	H 	0.50000 0.85120 0.42570 0.05600
C 	C 	0.50000 0.75658 0.24010 -0.08600
H 	H 	0.50000 0.76900 0.19340 0.06000
N 	N 	-0.00000 0.24216 0.37530 -0.36300
C 	C 	0.00000 0.30361 0.43190 0.08500
C 	C 	-0.00000 0.26546 0.32530 0.09100
C 	C 	0.00000 0.16669 0.28560 0.05600
C 	C 	0.00000 0.29458 0.35280 -0.16100
C 	C 	-0.00000 0.21789 0.32450 0.06800
C 	C 	0.00000 0.14973 0.45890 -0.07000
H 	H 	0.00000 0.13300 0.42490 0.06300
C 	C 	0.00000 0.31709 0.28560 0.08900
C 	C 	0.00000 0.18868 0.34980 -0.13300
C 	C 	-0.00000 0.17933 0.43050 0.06800
C 	C 	0.00000 0.12674 0.15680 0.03200
H 	H 	0.00000 0.11310 0.11290 0.04000
C 	C 	0.00000 0.22686 0.23980 -0.06700
H 	H 	-0.00000 0.21460 0.19290 0.05600
C 	C 	-0.00000 0.36243 0.17130 -0.03500
H 	H 	-0.00000 0.37770 0.13180 0.06600
C 	C 	-0.00000 0.33448 0.46000 -0.07400
H 	H 	-0.00000 0.35120 0.42570 0.05700
C 	C 	-0.00000 0.25658 0.24010 -0.08500
H 	H 	0.00000 0.26900 0.19340 0.06100
N 	N 	0.50000 0.25784 0.37530 -0.36400
C 	C 	0.50000 0.19639 0.43190 0.08400
C 	C 	0.50000 0.23454 0.32530 0.08900
C 	C 	0.50000 0.33331 0.28560 0.05200
C 	C 	0.50000 0.20542 0.35280 -0.16000
C 	C 	0.50000 0.28211 0.32450 0.06700
C 	C 	0.50000 0.35027 0.45890 -0.07000
H 	H 	0.50000 0.36700 0.42490 0.06200
C 	C 	0.50000 0.18291 0.28560 0.08400
C 	C 	0.50000 0.31132 0.34980 -0.13200
C 	C 	0.50000 0.32067 0.43050 0.06700
C 	C 	0.50000 0.37326 0.15680 0.02700
H 	H 	0.50000 0.38690 0.11290 0.04100
C 	C 	0.50000 0.27314 0.23980 -0.06800
H 	H 	0.50000 0.28540 0.19290 0.05600
C 	C 	0.50000 0.13757 0.17130 -0.04000
H 	H 	0.50000 0.12230 0.13180 0.06700
C 	C 	0.50000 0.16552 0.46000 -0.07400
H 	H 	0.50000 0.14880 0.42570 0.05600
C 	C 	0.50000 0.24342 0.24010 -0.08600
H 	H 	0.50000 0.23100 0.19340 0.06000
N 	N 	-0.00000 0.75784 0.37530 -0.36300
C 	C 	0.00000 0.69639 0.43190 0.08500
C 	C 	-0.00000 0.73454 0.32530 0.09100
C 	C 	0.00000 0.83331 0.28560 0.05600
C 	C 	-0.00000 0.70542 0.35280 -0.16100
C 	C 	0.00000 0.78211 0.32450 0.06800
C 	C 	0.00000 0.85027 0.45890 -0.07000
H 	H 	0.00000 0.86700 0.42490 0.06300
C 	C 	0.00000 0.68291 0.28560 0.08900
C 	C 	-0.00000 0.81132 0.34980 -0.13300
C 	C 	0.00000 0.82067 0.43050 0.06800
C 	C 	-0.00000 0.87326 0.15680 0.03200
H 	H 	0.00000 0.88690 0.11290 0.04000
C 	C 	0.00000 0.77314 0.23980 -0.06700
H 	H 	-0.00000 0.78540 0.19290 0.05600
C 	C 	0.00000 0.63757 0.17130 -0.03500
H 	H 	-0.00000 0.62230 0.13180 0.06600
C 	C 	0.00000 0.66552 0.46000 -0.07400
H 	H 	0.00000 0.64880 0.42570 0.05700
C 	C 	0.00000 0.74342 0.24010 -0.08500
H 	H 	-0.00000 0.73100 0.19340 0.06100
C 	C 	0.05520 0.50000 0.67610 0.08200
C 	C 	0.14350 0.50000 0.56830 0.08400
C 	C 	0.12210 0.50000 0.64890 -0.13500
C 	C 	0.17400 0.50000 0.71590 0.05900
C 	C 	0.26920 0.50000 0.84140 0.01400
H 	H 	0.30160 0.50000 0.88410 0.08200
C 	C 	0.21200 0.50000 0.54220 -0.07600
H 	H 	0.25030 0.50000 0.57680 0.06500
C 	C 	0.03400 0.50000 0.76040 -0.06300
H 	H 	0.06230 0.50000 0.80730 0.07400
C 	C 	0.55520 -0.00000 0.67610 0.08400
C 	C 	0.64350 0.00000 0.56830 0.08400
C 	C 	0.62210 -0.00000 0.64890 -0.13700
C 	C 	0.67400 0.00000 0.71590 0.05900
C 	C 	0.76920 0.00000 0.84140 0.01500
H 	H 	0.80160 0.00000 0.88410 0.08100
C 	C 	0.71200 -0.00000 0.54220 -0.07600
H 	H 	0.75030 -0.00000 0.57680 0.06500
C 	C 	0.53400 0.00000 0.76040 -0.07100
H 	H 	0.56230 -0.00000 0.80730 0.07700
C 	C 	0.94480 0.50000 0.67610 0.08200
C 	C 	0.85650 0.50000 0.56830 0.08300
C 	C 	0.87790 0.50000 0.64890 -0.13700
C 	C 	0.82600 0.50000 0.71590 0.05900
C 	C 	0.73080 0.50000 0.84140 0.01400
H 	H 	0.69840 0.50000 0.88410 0.08200
C 	C 	0.78800 0.50000 0.54220 -0.07600
H 	H 	0.74970 0.50000 0.57680 0.06500
C 	C 	0.96600 0.50000 0.76040 -0.07800
H 	H 	0.93770 0.50000 0.80730 0.07800
C 	C 	0.44480 -0.00000 0.67610 0.08400
C 	C 	0.35650 0.00000 0.56830 0.08400
C 	C 	0.37790 -0.00000 0.64890 -0.13700
C 	C 	0.32600 0.00000 0.71590 0.06000
C 	C 	0.23080 0.00000 0.84140 0.01500
H 	H 	0.19840 0.00000 0.88410 0.08200
C 	C 	0.28800 -0.00000 0.54220 -0.07600
H 	H 	0.24970 -0.00000 0.57680 0.06600
C 	C 	0.46600 0.00000 0.76040 -0.07100
H 	H 	0.43770 -0.00000 0.80730 0.07700
C 	C 	0.94480 0.50000 0.32390 0.07800
C 	C 	0.85650 0.50000 0.43170 0.08100
C 	C 	0.87790 0.50000 0.35110 -0.13400
C 	C 	0.82600 0.50000 0.28410 0.04700
C 	C 	0.73080 0.50000 0.15860 0.02400
H 	H 	0.69840 0.50000 0.11590 0.04700
C 	C 	0.78800 0.50000 0.45780 -0.07500
H 	H 	0.74970 0.50000 0.42320 0.06400
C 	C 	0.96600 0.50000 0.23960 -0.08200
H 	H 	0.93770 0.50000 0.19270 0.05700
C 	C 	0.44480 -0.00000 0.32390 0.07900
C 	C 	0.35650 -0.00000 0.43170 0.08200
C 	C 	0.37790 -0.00000 0.35110 -0.13400
C 	C 	0.32600 -0.00000 0.28410 0.04800
C 	C 	0.23080 0.00000 0.15860 0.02500
H 	H 	0.19840 0.00000 0.11590 0.04700
C 	C 	0.28800 0.00000 0.45780 -0.07500
H 	H 	0.24970 -0.00000 0.42320 0.06500
C 	C 	0.46600 0.00000 0.23960 -0.07500
H 	H 	0.43770 -0.00000 0.19270 0.05600
C 	C 	0.05520 0.50000 0.32390 0.07800
C 	C 	0.14350 0.50000 0.43170 0.08200
C 	C 	0.12210 0.50000 0.35110 -0.13300
C 	C 	0.17400 0.50000 0.28410 0.04700
C 	C 	0.26920 0.50000 0.15860 0.02400
H 	H 	0.30160 0.50000 0.11590 0.04700
C 	C 	0.21200 0.50000 0.45780 -0.07500
H 	H 	0.25030 0.50000 0.42320 0.06500
C 	C 	0.03400 0.50000 0.23960 -0.06800
H 	H 	0.06230 0.50000 0.19270 0.05400
C 	C 	0.55520 -0.00000 0.32390 0.07900
C 	C 	0.64350 -0.00000 0.43170 0.08200
C 	C 	0.62210 -0.00000 0.35110 -0.13400
C 	C 	0.67400 -0.00000 0.28410 0.04800
C 	C 	0.76920 0.00000 0.15860 0.02500
H 	H 	0.80160 0.00000 0.11590 0.04700
C 	C 	0.71200 0.00000 0.45780 -0.07500
H 	H 	0.75030 -0.00000 0.42320 0.06400
C 	C 	0.53400 0.00000 0.23960 -0.07500
H 	H 	0.56230 -0.00000 0.19270 0.05600
C 	C 	0.50000 0.57084 -0.00000 0.42300
H 	H 	0.50000 0.59150 -0.00000 -0.13900
C 	C 	-0.00000 0.07084 -0.00000 0.43000
H 	H 	-0.00000 0.09150 -0.00000 -0.14000
C 	C 	0.50000 0.42916 -0.00000 0.42300
H 	H 	0.50000 0.40850 -0.00000 -0.13900
C 	C 	-0.00000 0.92916 -0.00000 0.43000
H 	H 	-0.00000 0.90850 -0.00000 -0.14000
