data_crystal

_cell_length_a 11.46460
_cell_length_b 13.62880
_cell_length_c 23.79780
_cell_angle_alpha 92.92900
_cell_angle_beta  103.54800
_cell_angle_gamma 112.49400

_symmetry_space_group_name_	'P 1'
_symmetry_space_group_name_H-M	'P 1'

loop_
_symmetry_equiv_pos_as_xyz
  x,y,z

loop_
_atom_site_label
_atom_site_type_symbol
_atom_site_fract_x
_atom_site_fract_y
_atom_site_fract_z
_atom_site_charge
Tb	Tb	0.37832 0.30086 0.51767 1.68500
Tb	Tb	0.64148 0.59472 0.96163 1.79500
C 	C 	0.70400 0.49410 0.07300 0.50000
C 	C 	0.78200 0.46520 0.12570 -0.22800
C 	C 	0.72120 0.37470 0.14870 0.11200
H 	H 	0.63240 0.33160 0.13240 -0.00700
C 	C 	0.79300 0.34800 0.19650 -0.17100
H 	H 	0.75340 0.28610 0.21180 0.07100
C 	C 	0.92450 0.41480 0.22110 0.08100
C 	C 	0.01990 0.41020 0.27280 0.07500
C 	C 	0.01020 0.33610 0.31130 -0.17700
H 	H 	0.93400 0.27370 0.30480 0.07500
C 	C 	0.11530 0.35650 0.35920 0.11900
H 	H 	0.10910 0.30800 0.38570 -0.01200
C 	C 	0.23100 0.44890 0.36870 -0.22900
C 	C 	0.34250 0.47190 0.42160 0.48200
C 	C 	0.24300 0.52080 0.32900 0.14500
H 	H 	0.32120 0.58080 0.33420 -0.02400
C 	C 	0.13640 0.50140 0.28160 -0.23200
C 	C 	0.12420 0.57100 0.23410 0.54200
C 	C 	0.22430 0.58250 0.19940 -1.01700
H 	H 	0.21630 0.51280 0.18430 0.32500
H 	H 	0.31120 0.62240 0.22460 0.32400
H 	H 	0.20850 0.62030 0.16750 0.31100
C 	C 	0.14230 0.68250 0.26050 -1.01400
H 	H 	0.12560 0.72210 0.22970 0.30700
H 	H 	0.23080 0.72020 0.28470 0.32300
H 	H 	0.08230 0.67520 0.28380 0.32600
C 	C 	0.98350 0.50760 0.19820 -0.24600
C 	C 	0.91220 0.53120 0.14950 0.15500
H 	H 	0.95210 0.59130 0.13310 -0.04000
C 	C 	0.55590 0.66160 0.07710 0.47700
C 	C 	0.62480 0.72440 0.13750 -0.23000
C 	C 	0.57360 0.69620 0.18320 0.12600
H 	H 	0.49200 0.63920 0.17630 -0.02500
C 	C 	0.63950 0.74990 0.23970 -0.20200
H 	H 	0.60370 0.72910 0.27060 0.09000
C 	C 	0.76100 0.83610 0.24900 0.09200
C 	C 	0.85220 0.90730 0.30270 0.03700
C 	C 	0.84690 0.90650 0.36060 -0.11500
H 	H 	0.77620 0.85580 0.37040 0.06600
C 	C 	0.94980 0.98330 0.40260 0.03600
H 	H 	0.94710 0.98530 0.44140 0.03500
C 	C 	0.05770 0.05800 0.38910 -0.12300
C 	C 	0.17130 0.14030 0.43630 0.33300
C 	C 	0.06330 0.05710 0.33170 0.07800
H 	H 	0.13540 0.10680 0.32240 0.00500
C 	C 	0.96090 0.98170 0.28870 -0.19300
C 	C 	0.94550 0.96460 0.22300 0.49800
C 	C 	0.05530 0.93620 0.21070 -0.95800
H 	H 	0.05990 0.87790 0.23070 0.29800
H 	H 	0.13760 0.99770 0.22440 0.30800
H 	H 	0.03720 0.91510 0.16940 0.29300
C 	C 	0.94600 0.06330 0.19530 -0.95600
H 	H 	0.92470 0.04640 0.15350 0.29700
H 	H 	0.03120 0.12130 0.20960 0.30200
H 	H 	0.88160 0.08410 0.20550 0.29900
C 	C 	0.81230 0.86880 0.20250 -0.23900
C 	C 	0.74560 0.81350 0.14620 0.13800
H 	H 	0.77980 0.83480 0.11490 -0.03500
C 	C 	0.46320 0.16400 0.58190 0.32700
C 	C 	0.49840 0.08340 0.61520 -0.13500
C 	C 	0.53450 0.00990 0.58870 0.05200
H 	H 	0.53820 0.01160 0.55010 0.03000
C 	C 	0.56470 0.93520 0.61850 -0.13200
H 	H 	0.58930 0.88690 0.60050 0.08100
C 	C 	0.55790 0.93280 0.67610 0.05900
C 	C 	0.58130 0.86270 0.71780 0.06400
C 	C 	0.61660 0.77640 0.71270 -0.15500
H 	H 	0.62900 0.75350 0.67790 0.08100
C 	C 	0.63280 0.72570 0.76090 0.06500
H 	H 	0.65850 0.66910 0.75800 0.00700
C 	C 	0.61310 0.75410 0.81220 -0.15200
C 	C 	0.62740 0.69930 0.86440 0.33200
C 	C 	0.57710 0.84270 0.81710 0.08600
H 	H 	0.56530 0.86520 0.85210 -0.00600
C 	C 	0.55980 0.89490 0.76980 -0.21400
C 	C 	0.51820 0.98740 0.76450 0.50000
C 	C 	0.61430 0.08590 0.81010 -0.95700
H 	H 	0.62010 0.06700 0.84870 0.29600
H 	H 	0.58340 0.14220 0.80680 0.29800
H 	H 	0.69940 0.11030 0.80330 0.28800
C 	C 	0.37760 0.95380 0.77050 -0.97100
H 	H 	0.31980 0.88930 0.74340 0.31100
H 	H 	0.34910 0.01030 0.76180 0.31400
H 	H 	0.37640 0.94100 0.80970 0.30300
C 	C 	0.52270 0.00640 0.70290 -0.20600
C 	C 	0.49320 0.08200 0.67260 0.08100
H 	H 	0.47020 0.13120 0.69070 -0.00500
O 	O 	0.76590 0.55140 0.04220 -0.53400
O 	O 	0.58170 0.45750 0.06300 -0.53900
O 	O 	0.45140 0.54490 0.42340 -0.52100
O 	O 	0.32070 0.42110 0.46360 -0.52200
O 	O 	0.61420 0.68690 0.03760 -0.51500
O 	O 	0.44300 0.58650 0.07000 -0.52000
O 	O 	0.27170 0.19860 0.42230 -0.43400
O 	O 	0.16340 0.15090 0.48820 -0.41800
O 	O 	0.46010 0.16100 0.52840 -0.41900
O 	O 	0.43430 0.23140 0.60720 -0.42900
O 	O 	0.63180 0.60890 0.85880 -0.44000
O 	O 	0.63200 0.74270 0.91380 -0.44200
Tb	Tb	0.62168 0.69914 0.48233 1.68600
Tb	Tb	0.35852 0.40528 0.03837 1.79600
C 	C 	0.29600 0.50590 0.92700 0.50100
C 	C 	0.21800 0.53480 0.87430 -0.22700
C 	C 	0.27880 0.62530 0.85130 0.11300
H 	H 	0.36760 0.66840 0.86760 -0.00600
C 	C 	0.20700 0.65200 0.80350 -0.17100
H 	H 	0.24660 0.71390 0.78820 0.07100
C 	C 	0.07550 0.58520 0.77890 0.08100
C 	C 	0.98010 0.58980 0.72720 0.07500
C 	C 	0.98980 0.66390 0.68870 -0.17700
H 	H 	0.06600 0.72630 0.69520 0.07500
C 	C 	0.88470 0.64350 0.64080 0.11900
H 	H 	0.89090 0.69200 0.61430 -0.01200
C 	C 	0.76900 0.55110 0.63130 -0.22900
C 	C 	0.65750 0.52810 0.57840 0.48200
C 	C 	0.75700 0.47920 0.67100 0.14500
H 	H 	0.67880 0.41920 0.66580 -0.02400
C 	C 	0.86360 0.49860 0.71840 -0.23200
C 	C 	0.87580 0.42900 0.76590 0.54200
C 	C 	0.77570 0.41750 0.80060 -1.01700
H 	H 	0.78370 0.48720 0.81570 0.32500
H 	H 	0.68880 0.37760 0.77540 0.32400
H 	H 	0.79150 0.37970 0.83250 0.31100
C 	C 	0.85770 0.31750 0.73950 -1.01400
H 	H 	0.87440 0.27790 0.77030 0.30700
H 	H 	0.76920 0.27980 0.71530 0.32300
H 	H 	0.91770 0.32480 0.71620 0.32600
C 	C 	0.01650 0.49240 0.80180 -0.24600
C 	C 	0.08780 0.46880 0.85050 0.15500
H 	H 	0.04790 0.40870 0.86690 -0.04000
C 	C 	0.44410 0.33840 0.92290 0.47700
C 	C 	0.37520 0.27560 0.86250 -0.23000
C 	C 	0.42640 0.30380 0.81680 0.12600
H 	H 	0.50800 0.36080 0.82370 -0.02500
C 	C 	0.36050 0.25010 0.76030 -0.20200
H 	H 	0.39630 0.27090 0.72940 0.09000
C 	C 	0.23900 0.16390 0.75100 0.09200
C 	C 	0.14780 0.09270 0.69730 0.03700
C 	C 	0.15310 0.09350 0.63940 -0.11500
H 	H 	0.22380 0.14420 0.62960 0.06600
C 	C 	0.05020 0.01670 0.59740 0.03600
H 	H 	0.05290 0.01470 0.55860 0.03500
C 	C 	0.94230 0.94200 0.61090 -0.12300
C 	C 	0.82870 0.85970 0.56370 0.33300
C 	C 	0.93670 0.94290 0.66830 0.07800
H 	H 	0.86460 0.89320 0.67760 0.00500
C 	C 	0.03910 0.01830 0.71130 -0.19300
C 	C 	0.05450 0.03540 0.77700 0.49800
C 	C 	0.94470 0.06380 0.78930 -0.95800
H 	H 	0.94010 0.12210 0.76930 0.29800
H 	H 	0.86240 0.00230 0.77560 0.30800
H 	H 	0.96280 0.08490 0.83060 0.29300
C 	C 	0.05400 0.93670 0.80470 -0.95600
H 	H 	0.07530 0.95360 0.84650 0.29700
H 	H 	0.96880 0.87870 0.79040 0.30200
H 	H 	0.11840 0.91590 0.79450 0.29900
C 	C 	0.18770 0.13120 0.79750 -0.23900
C 	C 	0.25440 0.18650 0.85380 0.13800
H 	H 	0.22020 0.16520 0.88510 -0.03500
C 	C 	0.53680 0.83600 0.41810 0.32700
C 	C 	0.50160 0.91660 0.38480 -0.13500
C 	C 	0.46550 0.99010 0.41130 0.05200
H 	H 	0.46180 0.98840 0.44990 0.03000
C 	C 	0.43530 0.06480 0.38150 -0.13200
H 	H 	0.41070 0.11310 0.39950 0.08100
C 	C 	0.44210 0.06720 0.32390 0.05900
C 	C 	0.41870 0.13730 0.28220 0.06400
C 	C 	0.38340 0.22360 0.28730 -0.15500
H 	H 	0.37100 0.24650 0.32210 0.08100
C 	C 	0.36720 0.27430 0.23910 0.06500
H 	H 	0.34150 0.33090 0.24200 0.00700
C 	C 	0.38690 0.24590 0.18780 -0.15200
C 	C 	0.37260 0.30070 0.13560 0.33200
C 	C 	0.42290 0.15730 0.18290 0.08600
H 	H 	0.43470 0.13480 0.14790 -0.00600
C 	C 	0.44020 0.10510 0.23020 -0.21400
C 	C 	0.48180 0.01260 0.23550 0.50000
C 	C 	0.38570 0.91410 0.18990 -0.95700
H 	H 	0.37990 0.93300 0.15130 0.29600
H 	H 	0.41660 0.85780 0.19320 0.29800
H 	H 	0.30060 0.88970 0.19670 0.28800
C 	C 	0.62240 0.04620 0.22950 -0.97100
H 	H 	0.68020 0.11070 0.25660 0.31100
H 	H 	0.65090 0.98970 0.23820 0.31400
H 	H 	0.62360 0.05900 0.19030 0.30300
C 	C 	0.47730 0.99360 0.29710 -0.20600
C 	C 	0.50680 0.91800 0.32740 0.08100
H 	H 	0.52980 0.86880 0.30930 -0.00500
O 	O 	0.23410 0.44860 0.95780 -0.53400
O 	O 	0.41830 0.54250 0.93700 -0.53900
O 	O 	0.54860 0.45510 0.57660 -0.52100
O 	O 	0.67930 0.57890 0.53640 -0.52200
O 	O 	0.38580 0.31310 0.96240 -0.51500
O 	O 	0.55700 0.41350 0.93000 -0.52000
O 	O 	0.72830 0.80140 0.57770 -0.43400
O 	O 	0.83660 0.84910 0.51180 -0.41800
O 	O 	0.53990 0.83900 0.47160 -0.41900
O 	O 	0.56570 0.76860 0.39280 -0.42900
O 	O 	0.36820 0.39110 0.14120 -0.44000
O 	O 	0.36800 0.25730 0.08620 -0.44200
