data_crystal

_cell_length_a 31.40770
_cell_length_b 31.40770
_cell_length_c 15.09450
_cell_angle_alpha 90.00000
_cell_angle_beta  90.00000
_cell_angle_gamma 120.00000

_symmetry_space_group_name_	'P 1'
_symmetry_space_group_name_H-M	'P 1'

loop_
_symmetry_equiv_pos_as_xyz
  x,y,z

loop_
_atom_site_label
_atom_site_type_symbol
_atom_site_fract_x
_atom_site_fract_y
_atom_site_fract_z
_atom_site_charge
Zn	Zn	0.06099 0.73073 0.48688 1.21500
C 	C 	0.14877 0.73931 0.54540 0.33600
C 	C 	0.18614 0.72238 0.55090 -0.09300
C 	C 	0.17635 0.67761 0.51330 0.02200
H 	H 	0.14600 0.65720 0.48700 0.03300
C 	C 	0.21152 0.66387 0.51530 -0.10100
H 	H 	0.20440 0.63390 0.49060 0.06400
C 	C 	0.25817 0.69405 0.55390 0.02800
C 	C 	0.26610 0.73749 0.59440 -0.09700
H 	H 	0.29590 0.75750 0.62270 0.06800
C 	C 	0.23070 0.75147 0.59330 0.02200
H 	H 	0.23680 0.78040 0.62110 0.04000
C 	C 	0.29656 0.67981 0.55200 0.05100
C 	C 	0.34646 0.71604 0.55160 -0.11600
H 	H 	0.35520 0.74900 0.55100 0.07200
C 	C 	0.07470 0.81930 0.43340 0.34500
C 	C 	0.05795 0.85585 0.41670 -0.10500
C 	C 	0.08423 0.89555 0.35930 0.03300
H 	H 	0.11200 0.89910 0.33060 0.03500
C 	C 	0.06950 0.92930 0.34490 -0.10900
H 	H 	0.08810 0.95600 0.30800 0.07200
C 	C 	0.02707 0.92456 0.38410 0.04000
C 	C 	0.00002 0.88435 0.43930 -0.10900
H 	H 	0.97140 0.88020 0.46580 0.07300
C 	C 	0.01507 0.85032 0.45560 0.03500
H 	H 	0.99650 0.82370 0.49260 0.03000
C 	C 	0.01307 0.96325 0.37450 0.04500
C 	C 	0.96348 0.95084 0.37400 -0.10900
H 	H 	0.93910 0.91790 0.37340 0.07000
C 	C 	0.04252 0.67070 0.31800 0.22800
O 	O 	0.10882 0.82070 0.39170 -0.30200
O 	O 	0.05124 0.78729 0.49260 -0.46500
O 	O 	0.15096 0.77167 0.59460 -0.29500
O 	O 	0.11538 0.71742 0.48660 -0.46000
N 	N 	0.97160 0.65730 0.27980 -0.05200
N 	N 	0.00779 0.64786 0.25700 -0.25200
N 	N 	0.98413 0.68470 0.34930 -0.05400
N 	N 	0.08670 0.67350 0.31780 -0.35800
H 	H 	0.09420 0.65990 0.27590 0.17500
H 	H 	0.10740 0.68890 0.35960 0.17700
N 	N 	0.02896 0.69370 0.37630 -0.25100
Zn	Zn	0.72766 0.06406 0.82021 1.21600
C 	C 	0.81544 0.07264 0.87873 0.33600
C 	C 	0.85281 0.05571 0.88423 -0.09100
C 	C 	0.84302 0.01094 0.84663 0.02000
H 	H 	0.81267 0.99053 0.82033 0.03500
C 	C 	0.87819 0.99720 0.84863 -0.09700
H 	H 	0.87107 0.96723 0.82393 0.06400
C 	C 	0.92484 0.02738 0.88723 0.02800
C 	C 	0.93277 0.07082 0.92773 -0.09500
H 	H 	0.96257 0.09083 0.95603 0.06800
C 	C 	0.89737 0.08480 0.92663 0.02200
H 	H 	0.90347 0.11373 0.95443 0.04100
C 	C 	0.96323 0.01314 0.88533 0.05100
C 	C 	0.01313 0.04937 0.88493 -0.11300
H 	H 	0.02187 0.08233 0.88433 0.07200
C 	C 	0.74137 0.15263 0.76673 0.34600
C 	C 	0.72462 0.18918 0.75003 -0.10400
C 	C 	0.75090 0.22888 0.69263 0.03400
H 	H 	0.77867 0.23243 0.66393 0.03600
C 	C 	0.73617 0.26263 0.67823 -0.10700
H 	H 	0.75477 0.28933 0.64133 0.07200
C 	C 	0.69374 0.25789 0.71743 0.04000
C 	C 	0.66669 0.21768 0.77263 -0.10900
H 	H 	0.63807 0.21353 0.79913 0.07300
C 	C 	0.68174 0.18365 0.78893 0.03500
H 	H 	0.66317 0.15703 0.82593 0.03000
C 	C 	0.67974 0.29658 0.70783 0.04600
C 	C 	0.63015 0.28417 0.70733 -0.11000
H 	H 	0.60577 0.25123 0.70673 0.07000
C 	C 	0.70919 0.00403 0.65133 0.22800
O 	O 	0.77549 0.15403 0.72503 -0.30200
O 	O 	0.71791 0.12062 0.82593 -0.46500
O 	O 	0.81763 0.10500 0.92793 -0.29500
O 	O 	0.78205 0.05075 0.81993 -0.46000
N 	N 	0.63827 0.99063 0.61313 -0.05200
N 	N 	0.67446 0.98119 0.59033 -0.25100
N 	N 	0.65080 0.01803 0.68263 -0.05400
N 	N 	0.75337 0.00683 0.65113 -0.35800
H 	H 	0.76087 0.99323 0.60923 0.17500
H 	H 	0.77407 0.02223 0.69293 0.17700
N 	N 	0.69563 0.02703 0.70963 -0.25100
Zn	Zn	0.39432 0.39740 0.15355 1.21600
C 	C 	0.48210 0.40598 0.21207 0.33700
C 	C 	0.51947 0.38905 0.21757 -0.09200
C 	C 	0.50968 0.34428 0.17997 0.02300
H 	H 	0.47933 0.32387 0.15367 0.03400
C 	C 	0.54485 0.33054 0.18197 -0.10000
H 	H 	0.53773 0.30057 0.15727 0.06500
C 	C 	0.59150 0.36072 0.22057 0.02900
C 	C 	0.59943 0.40416 0.26107 -0.09600
H 	H 	0.62923 0.42417 0.28937 0.06900
C 	C 	0.56403 0.41814 0.25997 0.02300
H 	H 	0.57013 0.44707 0.28777 0.04100
C 	C 	0.62989 0.34648 0.21867 0.05200
C 	C 	0.67979 0.38271 0.21827 -0.11500
H 	H 	0.68853 0.41567 0.21767 0.07300
C 	C 	0.40803 0.48597 0.10007 0.34600
C 	C 	0.39128 0.52252 0.08337 -0.10400
C 	C 	0.41756 0.56222 0.02597 0.03400
H 	H 	0.44533 0.56577 0.99727 0.03600
C 	C 	0.40283 0.59597 0.01157 -0.10800
H 	H 	0.42143 0.62267 0.97467 0.07200
C 	C 	0.36040 0.59123 0.05077 0.04000
C 	C 	0.33335 0.55102 0.10597 -0.10900
H 	H 	0.30473 0.54687 0.13247 0.07300
C 	C 	0.34840 0.51699 0.12227 0.03500
H 	H 	0.32983 0.49037 0.15927 0.03000
C 	C 	0.34640 0.62992 0.04117 0.04500
C 	C 	0.29681 0.61751 0.04067 -0.11000
H 	H 	0.27243 0.58457 0.04007 0.07000
C 	C 	0.37585 0.33737 0.98467 0.22800
O 	O 	0.44215 0.48737 0.05837 -0.30200
O 	O 	0.38457 0.45396 0.15927 -0.46500
O 	O 	0.48429 0.43834 0.26127 -0.29500
O 	O 	0.44871 0.38409 0.15327 -0.46000
N 	N 	0.30493 0.32397 0.94647 -0.05300
N 	N 	0.34112 0.31453 0.92367 -0.25100
N 	N 	0.31746 0.35137 0.01597 -0.05400
N 	N 	0.42003 0.34017 0.98447 -0.35800
H 	H 	0.42753 0.32657 0.94257 0.17500
H 	H 	0.44073 0.35557 0.02627 0.17700
N 	N 	0.36229 0.36037 0.04297 -0.25100
Zn	Zn	0.26927 0.33026 0.48688 1.21600
C 	C 	0.26069 0.40946 0.54540 0.33700
C 	C 	0.27762 0.46376 0.55090 -0.09200
C 	C 	0.32239 0.49874 0.51330 0.02300
H 	H 	0.34280 0.48880 0.48700 0.03400
C 	C 	0.33613 0.54765 0.51530 -0.10000
H 	H 	0.36610 0.57050 0.49060 0.06500
C 	C 	0.30595 0.56412 0.55390 0.02900
C 	C 	0.26251 0.52861 0.59440 -0.09600
H 	H 	0.24250 0.53840 0.62270 0.06900
C 	C 	0.24853 0.47923 0.59330 0.02300
H 	H 	0.21960 0.45640 0.62110 0.04100
C 	C 	0.32019 0.61675 0.55200 0.05200
C 	C 	0.28396 0.63042 0.55160 -0.11500
H 	H 	0.25100 0.60620 0.55100 0.07300
C 	C 	0.18070 0.25540 0.43340 0.34600
C 	C 	0.14415 0.20210 0.41670 -0.10400
C 	C 	0.10445 0.18868 0.35930 0.03400
H 	H 	0.10090 0.21290 0.33060 0.03600
C 	C 	0.07070 0.14020 0.34490 -0.10800
H 	H 	0.04400 0.13210 0.30800 0.07200
C 	C 	0.07544 0.10251 0.38410 0.04000
C 	C 	0.11565 0.11567 0.43930 -0.10900
H 	H 	0.11980 0.09120 0.46580 0.07300
C 	C 	0.14968 0.16475 0.45560 0.03500
H 	H 	0.17630 0.17280 0.49260 0.03000
C 	C 	0.03675 0.04982 0.37450 0.04500
C 	C 	0.04916 0.01264 0.37400 -0.10900
H 	H 	0.08210 0.02120 0.37340 0.07000
C 	C 	0.32930 0.37182 0.31800 0.22800
O 	O 	0.17930 0.28812 0.39170 -0.30200
O 	O 	0.21271 0.26395 0.49260 -0.46500
O 	O 	0.22833 0.37929 0.59460 -0.29500
O 	O 	0.28258 0.39796 0.48660 -0.46000
N 	N 	0.34270 0.31430 0.27980 -0.05300
N 	N 	0.35214 0.35993 0.25700 -0.25100
N 	N 	0.31530 0.29943 0.34930 -0.05400
N 	N 	0.32650 0.41320 0.31780 -0.35800
H 	H 	0.34010 0.43430 0.27590 0.17500
H 	H 	0.31110 0.41850 0.35960 0.17700
N 	N 	0.30630 0.33526 0.37630 -0.25100
Zn	Zn	0.93594 0.66359 0.82021 1.21600
C 	C 	0.92736 0.74279 0.87873 0.33600
C 	C 	0.94429 0.79709 0.88423 -0.09100
C 	C 	0.98906 0.83207 0.84663 0.01900
H 	H 	0.00947 0.82213 0.82033 0.03600
C 	C 	0.00280 0.88098 0.84863 -0.09700
H 	H 	0.03277 0.90383 0.82393 0.06400
C 	C 	0.97262 0.89745 0.88723 0.02800
C 	C 	0.92918 0.86194 0.92773 -0.09500
H 	H 	0.90917 0.87173 0.95603 0.06800
C 	C 	0.91520 0.81256 0.92663 0.02200
H 	H 	0.88627 0.78973 0.95443 0.04200
C 	C 	0.98686 0.95008 0.88533 0.05100
C 	C 	0.95063 0.96375 0.88493 -0.11400
H 	H 	0.91767 0.93953 0.88433 0.07300
C 	C 	0.84737 0.58873 0.76673 0.34600
C 	C 	0.81082 0.53543 0.75003 -0.10400
C 	C 	0.77112 0.52201 0.69263 0.03400
H 	H 	0.76757 0.54623 0.66393 0.03600
C 	C 	0.73737 0.47353 0.67823 -0.10700
H 	H 	0.71067 0.46543 0.64133 0.07200
C 	C 	0.74211 0.43584 0.71743 0.04000
C 	C 	0.78232 0.44900 0.77263 -0.10900
H 	H 	0.78647 0.42453 0.79913 0.07300
C 	C 	0.81635 0.49808 0.78893 0.03500
H 	H 	0.84297 0.50613 0.82593 0.03000
C 	C 	0.70342 0.38315 0.70783 0.04600
C 	C 	0.71583 0.34597 0.70733 -0.11000
H 	H 	0.74877 0.35453 0.70673 0.07000
C 	C 	0.99597 0.70515 0.65133 0.22800
O 	O 	0.84597 0.62145 0.72503 -0.30200
O 	O 	0.87938 0.59728 0.82593 -0.46500
O 	O 	0.89500 0.71262 0.92793 -0.29500
O 	O 	0.94925 0.73129 0.81993 -0.46000
N 	N 	0.00937 0.64763 0.61313 -0.05200
N 	N 	0.01881 0.69326 0.59033 -0.25100
N 	N 	0.98197 0.63276 0.68263 -0.05400
N 	N 	0.99317 0.74653 0.65113 -0.35800
H 	H 	0.00677 0.76763 0.60923 0.17500
H 	H 	0.97777 0.75183 0.69293 0.17700
N 	N 	0.97297 0.66859 0.70963 -0.25100
Zn	Zn	0.60260 0.99693 0.15355 1.21600
C 	C 	0.59402 0.07613 0.21207 0.33700
C 	C 	0.61095 0.13043 0.21757 -0.09200
C 	C 	0.65572 0.16541 0.17997 0.02300
H 	H 	0.67613 0.15547 0.15367 0.03400
C 	C 	0.66946 0.21432 0.18197 -0.10000
H 	H 	0.69943 0.23717 0.15727 0.06500
C 	C 	0.63928 0.23079 0.22057 0.02900
C 	C 	0.59584 0.19528 0.26107 -0.09600
H 	H 	0.57583 0.20507 0.28937 0.06900
C 	C 	0.58186 0.14590 0.25997 0.02300
H 	H 	0.55293 0.12307 0.28777 0.04100
C 	C 	0.65352 0.28342 0.21867 0.05200
C 	C 	0.61729 0.29709 0.21827 -0.11500
H 	H 	0.58433 0.27287 0.21767 0.07300
C 	C 	0.51403 0.92207 0.10007 0.34600
C 	C 	0.47748 0.86877 0.08337 -0.10400
C 	C 	0.43778 0.85535 0.02597 0.03300
H 	H 	0.43423 0.87957 0.99727 0.03700
C 	C 	0.40403 0.80687 0.01157 -0.10800
H 	H 	0.37733 0.79877 0.97467 0.07200
C 	C 	0.40877 0.76918 0.05077 0.04000
C 	C 	0.44898 0.78234 0.10597 -0.10900
H 	H 	0.45313 0.75787 0.13247 0.07300
C 	C 	0.48301 0.83142 0.12227 0.03500
H 	H 	0.50963 0.83947 0.15927 0.03000
C 	C 	0.37008 0.71649 0.04117 0.04500
C 	C 	0.38249 0.67931 0.04067 -0.11000
H 	H 	0.41543 0.68787 0.04007 0.07000
C 	C 	0.66263 0.03849 0.98467 0.22800
O 	O 	0.51263 0.95479 0.05837 -0.30200
O 	O 	0.54604 0.93062 0.15927 -0.46500
O 	O 	0.56166 0.04596 0.26127 -0.29500
O 	O 	0.61591 0.06463 0.15327 -0.46000
N 	N 	0.67603 0.98097 0.94647 -0.05200
N 	N 	0.68547 0.02660 0.92367 -0.25100
N 	N 	0.64863 0.96610 0.01597 -0.05400
N 	N 	0.65983 0.07987 0.98447 -0.35900
H 	H 	0.67343 0.10097 0.94257 0.17500
H 	H 	0.64443 0.08517 0.02627 0.17800
N 	N 	0.63963 0.00193 0.04297 -0.25000
Zn	Zn	0.66974 0.93901 0.48688 1.21600
C 	C 	0.59054 0.85123 0.54540 0.33700
C 	C 	0.53624 0.81386 0.55090 -0.09200
C 	C 	0.50126 0.82365 0.51330 0.02300
H 	H 	0.51120 0.85400 0.48700 0.03400
C 	C 	0.45235 0.78848 0.51530 -0.10000
H 	H 	0.42950 0.79560 0.49060 0.06500
C 	C 	0.43588 0.74183 0.55390 0.02900
C 	C 	0.47139 0.73390 0.59440 -0.09600
H 	H 	0.46160 0.70410 0.62270 0.06900
C 	C 	0.52077 0.76930 0.59330 0.02300
H 	H 	0.54360 0.76320 0.62110 0.04100
C 	C 	0.38325 0.70344 0.55200 0.05200
C 	C 	0.36958 0.65354 0.55160 -0.11500
H 	H 	0.39380 0.64480 0.55100 0.07300
C 	C 	0.74460 0.92530 0.43340 0.34600
C 	C 	0.79790 0.94205 0.41670 -0.10400
C 	C 	0.81132 0.91577 0.35930 0.03400
H 	H 	0.78710 0.88800 0.33060 0.03600
C 	C 	0.85980 0.93050 0.34490 -0.10800
H 	H 	0.86790 0.91190 0.30800 0.07200
C 	C 	0.89749 0.97293 0.38410 0.04000
C 	C 	0.88433 0.99998 0.43930 -0.10900
H 	H 	0.90880 0.02860 0.46580 0.07300
C 	C 	0.83525 0.98493 0.45560 0.03500
H 	H 	0.82720 0.00350 0.49260 0.03000
C 	C 	0.95018 0.98693 0.37450 0.04500
C 	C 	0.98736 0.03652 0.37400 -0.10900
H 	H 	0.97880 0.06090 0.37340 0.07000
C 	C 	0.62818 0.95748 0.31800 0.22800
O 	O 	0.71188 0.89118 0.39170 -0.30200
O 	O 	0.73605 0.94876 0.49260 -0.46500
O 	O 	0.62071 0.84904 0.59460 -0.29500
O 	O 	0.60204 0.88462 0.48660 -0.46000
N 	N 	0.68570 0.02840 0.27980 -0.05200
N 	N 	0.64007 0.99221 0.25700 -0.25100
N 	N 	0.70057 0.01587 0.34930 -0.05400
N 	N 	0.58680 0.91330 0.31780 -0.35800
H 	H 	0.56570 0.90580 0.27590 0.17500
H 	H 	0.58150 0.89260 0.35960 0.17700
N 	N 	0.66474 0.97104 0.37630 -0.25100
Zn	Zn	0.33641 0.27234 0.82021 1.21600
C 	C 	0.25721 0.18456 0.87873 0.33700
C 	C 	0.20291 0.14719 0.88423 -0.09300
C 	C 	0.16793 0.15698 0.84663 0.02300
H 	H 	0.17787 0.18733 0.82033 0.03400
C 	C 	0.11902 0.12181 0.84863 -0.10000
H 	H 	0.09617 0.12893 0.82393 0.06500
C 	C 	0.10255 0.07516 0.88723 0.03000
C 	C 	0.13806 0.06723 0.92773 -0.09700
H 	H 	0.12827 0.03743 0.95603 0.06900
C 	C 	0.18744 0.10263 0.92663 0.02400
H 	H 	0.21027 0.09653 0.95443 0.04100
C 	C 	0.04992 0.03677 0.88533 0.05100
C 	C 	0.03625 0.98687 0.88493 -0.11300
H 	H 	0.06047 0.97813 0.88433 0.07200
C 	C 	0.41127 0.25863 0.76673 0.34600
C 	C 	0.46457 0.27538 0.75003 -0.10400
C 	C 	0.47799 0.24910 0.69263 0.03400
H 	H 	0.45377 0.22133 0.66393 0.03600
C 	C 	0.52647 0.26383 0.67823 -0.10700
H 	H 	0.53457 0.24523 0.64133 0.07200
C 	C 	0.56416 0.30626 0.71743 0.04000
C 	C 	0.55100 0.33331 0.77263 -0.10900
H 	H 	0.57547 0.36193 0.79913 0.07300
C 	C 	0.50192 0.31826 0.78893 0.03500
H 	H 	0.49387 0.33683 0.82593 0.03000
C 	C 	0.61685 0.32026 0.70783 0.04600
C 	C 	0.65403 0.36985 0.70733 -0.11000
H 	H 	0.64547 0.39423 0.70673 0.07000
C 	C 	0.29485 0.29081 0.65133 0.22800
O 	O 	0.37855 0.22451 0.72503 -0.30200
O 	O 	0.40272 0.28209 0.82593 -0.46500
O 	O 	0.28738 0.18237 0.92793 -0.29500
O 	O 	0.26871 0.21795 0.81993 -0.46000
N 	N 	0.35237 0.36173 0.61313 -0.05300
N 	N 	0.30674 0.32554 0.59033 -0.25100
N 	N 	0.36724 0.34920 0.68263 -0.05400
N 	N 	0.25347 0.24663 0.65113 -0.35800
H 	H 	0.23237 0.23913 0.60923 0.17500
H 	H 	0.24817 0.22593 0.69293 0.17700
N 	N 	0.33141 0.30437 0.70963 -0.25100
Zn	Zn	0.00307 0.60568 0.15355 1.21600
C 	C 	0.92387 0.51790 0.21207 0.33700
C 	C 	0.86957 0.48053 0.21757 -0.09200
C 	C 	0.83459 0.49032 0.17997 0.02300
H 	H 	0.84453 0.52067 0.15367 0.03400
C 	C 	0.78568 0.45515 0.18197 -0.10000
H 	H 	0.76283 0.46227 0.15727 0.06500
C 	C 	0.76921 0.40850 0.22057 0.02900
C 	C 	0.80472 0.40057 0.26107 -0.09600
H 	H 	0.79493 0.37077 0.28937 0.06900
C 	C 	0.85410 0.43597 0.25997 0.02300
H 	H 	0.87693 0.42987 0.28777 0.04100
C 	C 	0.71658 0.37011 0.21867 0.05200
C 	C 	0.70291 0.32021 0.21827 -0.11500
H 	H 	0.72713 0.31147 0.21767 0.07300
C 	C 	0.07793 0.59197 0.10007 0.34500
C 	C 	0.13123 0.60872 0.08337 -0.10300
C 	C 	0.14465 0.58244 0.02597 0.03300
H 	H 	0.12043 0.55467 0.99727 0.03700
C 	C 	0.19313 0.59717 0.01157 -0.10800
H 	H 	0.20123 0.57857 0.97467 0.07200
C 	C 	0.23082 0.63960 0.05077 0.04000
C 	C 	0.21766 0.66665 0.10597 -0.10900
H 	H 	0.24213 0.69527 0.13247 0.07300
C 	C 	0.16858 0.65160 0.12227 0.03500
H 	H 	0.16053 0.67017 0.15927 0.03000
C 	C 	0.28351 0.65360 0.04117 0.04500
C 	C 	0.32069 0.70319 0.04067 -0.11000
H 	H 	0.31213 0.72757 0.04007 0.07000
C 	C 	0.96151 0.62415 0.98467 0.22800
O 	O 	0.04521 0.55785 0.05837 -0.30200
O 	O 	0.06938 0.61543 0.15927 -0.46500
O 	O 	0.95404 0.51571 0.26127 -0.29500
O 	O 	0.93537 0.55129 0.15327 -0.46000
N 	N 	0.01903 0.69507 0.94647 -0.05200
N 	N 	0.97340 0.65888 0.92367 -0.25200
N 	N 	0.03390 0.68254 0.01597 -0.05400
N 	N 	0.92013 0.57997 0.98447 -0.35900
H 	H 	0.89903 0.57247 0.94257 0.17500
H 	H 	0.91483 0.55927 0.02627 0.17700
N 	N 	0.99807 0.63771 0.04297 -0.25100
Zn	Zn	0.93901 0.26927 0.51312 1.21600
C 	C 	0.85123 0.26069 0.45460 0.33700
C 	C 	0.81386 0.27762 0.44910 -0.09200
C 	C 	0.82365 0.32239 0.48670 0.02300
H 	H 	0.85400 0.34280 0.51300 0.03400
C 	C 	0.78848 0.33613 0.48470 -0.10000
H 	H 	0.79560 0.36610 0.50940 0.06500
C 	C 	0.74183 0.30595 0.44610 0.02900
C 	C 	0.73390 0.26251 0.40560 -0.09600
H 	H 	0.70410 0.24250 0.37730 0.06900
C 	C 	0.76930 0.24853 0.40670 0.02300
H 	H 	0.76320 0.21960 0.37890 0.04100
C 	C 	0.70344 0.32019 0.44800 0.05200
C 	C 	0.65354 0.28396 0.44840 -0.11500
H 	H 	0.64480 0.25100 0.44900 0.07300
C 	C 	0.92530 0.18070 0.56660 0.34600
C 	C 	0.94205 0.14415 0.58330 -0.10400
C 	C 	0.91577 0.10445 0.64070 0.03400
H 	H 	0.88800 0.10090 0.66940 0.03600
C 	C 	0.93050 0.07070 0.65510 -0.10800
H 	H 	0.91190 0.04400 0.69200 0.07200
C 	C 	0.97293 0.07544 0.61590 0.04000
C 	C 	0.99998 0.11565 0.56070 -0.10900
H 	H 	0.02860 0.11980 0.53420 0.07300
C 	C 	0.98493 0.14968 0.54440 0.03500
H 	H 	0.00350 0.17630 0.50740 0.03000
C 	C 	0.98693 0.03675 0.62550 0.04500
C 	C 	0.03652 0.04916 0.62600 -0.10900
H 	H 	0.06090 0.08210 0.62660 0.07000
C 	C 	0.95748 0.32930 0.68200 0.22800
O 	O 	0.89118 0.17930 0.60830 -0.30200
O 	O 	0.94876 0.21271 0.50740 -0.46500
O 	O 	0.84904 0.22833 0.40540 -0.29500
O 	O 	0.88462 0.28258 0.51340 -0.46000
N 	N 	0.02840 0.34270 0.72020 -0.05200
N 	N 	0.99221 0.35214 0.74300 -0.25200
N 	N 	0.01587 0.31530 0.65070 -0.05400
N 	N 	0.91330 0.32650 0.68220 -0.35800
H 	H 	0.90580 0.34010 0.72410 0.17500
H 	H 	0.89260 0.31110 0.64040 0.17700
N 	N 	0.97104 0.30630 0.62370 -0.25100
Zn	Zn	0.60568 0.60260 0.84645 1.21600
C 	C 	0.51790 0.59402 0.78793 0.33700
C 	C 	0.48053 0.61095 0.78243 -0.09200
C 	C 	0.49032 0.65572 0.82003 0.02300
H 	H 	0.52067 0.67613 0.84633 0.03400
C 	C 	0.45515 0.66946 0.81803 -0.10000
H 	H 	0.46227 0.69943 0.84273 0.06500
C 	C 	0.40850 0.63928 0.77943 0.02900
C 	C 	0.40057 0.59584 0.73893 -0.09600
H 	H 	0.37077 0.57583 0.71063 0.06900
C 	C 	0.43597 0.58186 0.74003 0.02300
H 	H 	0.42987 0.55293 0.71223 0.04100
C 	C 	0.37011 0.65352 0.78133 0.05200
C 	C 	0.32021 0.61729 0.78173 -0.11500
H 	H 	0.31147 0.58433 0.78233 0.07300
C 	C 	0.59197 0.51403 0.89993 0.34600
C 	C 	0.60872 0.47748 0.91663 -0.10400
C 	C 	0.58244 0.43778 0.97403 0.03400
H 	H 	0.55467 0.43423 0.00273 0.03600
C 	C 	0.59717 0.40403 0.98843 -0.10800
H 	H 	0.57857 0.37733 0.02533 0.07200
C 	C 	0.63960 0.40877 0.94923 0.04000
C 	C 	0.66665 0.44898 0.89403 -0.10900
H 	H 	0.69527 0.45313 0.86753 0.07300
C 	C 	0.65160 0.48301 0.87773 0.03500
H 	H 	0.67017 0.50963 0.84073 0.03000
C 	C 	0.65360 0.37008 0.95883 0.04500
C 	C 	0.70319 0.38249 0.95933 -0.11000
H 	H 	0.72757 0.41543 0.95993 0.07000
C 	C 	0.62415 0.66263 0.01533 0.22800
O 	O 	0.55785 0.51263 0.94163 -0.30200
O 	O 	0.61543 0.54604 0.84073 -0.46500
O 	O 	0.51571 0.56166 0.73873 -0.29500
O 	O 	0.55129 0.61591 0.84673 -0.46000
N 	N 	0.69507 0.67603 0.05353 -0.05300
N 	N 	0.65888 0.68547 0.07633 -0.25100
N 	N 	0.68254 0.64863 0.98403 -0.05400
N 	N 	0.57997 0.65983 0.01553 -0.35800
H 	H 	0.57247 0.67343 0.05743 0.17500
H 	H 	0.55927 0.64443 0.97373 0.17700
N 	N 	0.63771 0.63963 0.95703 -0.25100
Zn	Zn	0.27234 0.93594 0.17979 1.21600
C 	C 	0.18456 0.92736 0.12127 0.33600
C 	C 	0.14719 0.94429 0.11577 -0.09100
C 	C 	0.15698 0.98906 0.15337 0.02000
H 	H 	0.18733 0.00947 0.17967 0.03500
C 	C 	0.12181 0.00280 0.15137 -0.09700
H 	H 	0.12893 0.03277 0.17607 0.06400
C 	C 	0.07516 0.97262 0.11277 0.02800
C 	C 	0.06723 0.92918 0.07227 -0.09500
H 	H 	0.03743 0.90917 0.04397 0.06800
C 	C 	0.10263 0.91520 0.07337 0.02200
H 	H 	0.09653 0.88627 0.04557 0.04100
C 	C 	0.03677 0.98686 0.11467 0.05100
C 	C 	0.98687 0.95063 0.11507 -0.11300
H 	H 	0.97813 0.91767 0.11567 0.07200
C 	C 	0.25863 0.84737 0.23327 0.34600
C 	C 	0.27538 0.81082 0.24997 -0.10400
C 	C 	0.24910 0.77112 0.30737 0.03400
H 	H 	0.22133 0.76757 0.33607 0.03600
C 	C 	0.26383 0.73737 0.32177 -0.10700
H 	H 	0.24523 0.71067 0.35867 0.07200
C 	C 	0.30626 0.74211 0.28257 0.04000
C 	C 	0.33331 0.78232 0.22737 -0.10900
H 	H 	0.36193 0.78647 0.20087 0.07300
C 	C 	0.31826 0.81635 0.21107 0.03500
H 	H 	0.33683 0.84297 0.17407 0.03000
C 	C 	0.32026 0.70342 0.29217 0.04600
C 	C 	0.36985 0.71583 0.29267 -0.11000
H 	H 	0.39423 0.74877 0.29327 0.07000
C 	C 	0.29081 0.99597 0.34867 0.22800
O 	O 	0.22451 0.84597 0.27497 -0.30200
O 	O 	0.28209 0.87938 0.17407 -0.46500
O 	O 	0.18237 0.89500 0.07207 -0.29500
O 	O 	0.21795 0.94925 0.18007 -0.46000
N 	N 	0.36173 0.00937 0.38687 -0.05200
N 	N 	0.32554 0.01881 0.40967 -0.25100
N 	N 	0.34920 0.98197 0.31737 -0.05400
N 	N 	0.24663 0.99317 0.34887 -0.35800
H 	H 	0.23913 0.00677 0.39077 0.17500
H 	H 	0.22593 0.97777 0.30707 0.17700
N 	N 	0.30437 0.97297 0.29037 -0.25100
Zn	Zn	0.73073 0.66974 0.51312 1.21600
C 	C 	0.73931 0.59054 0.45460 0.33700
C 	C 	0.72238 0.53624 0.44910 -0.09200
C 	C 	0.67761 0.50126 0.48670 0.02300
H 	H 	0.65720 0.51120 0.51300 0.03400
C 	C 	0.66387 0.45235 0.48470 -0.10000
H 	H 	0.63390 0.42950 0.50940 0.06500
C 	C 	0.69405 0.43588 0.44610 0.02900
C 	C 	0.73749 0.47139 0.40560 -0.09600
H 	H 	0.75750 0.46160 0.37730 0.06900
C 	C 	0.75147 0.52077 0.40670 0.02300
H 	H 	0.78040 0.54360 0.37890 0.04100
C 	C 	0.67981 0.38325 0.44800 0.05200
C 	C 	0.71604 0.36958 0.44840 -0.11500
H 	H 	0.74900 0.39380 0.44900 0.07300
C 	C 	0.81930 0.74460 0.56660 0.34600
C 	C 	0.85585 0.79790 0.58330 -0.10400
C 	C 	0.89555 0.81132 0.64070 0.03400
H 	H 	0.89910 0.78710 0.66940 0.03600
C 	C 	0.92930 0.85980 0.65510 -0.10800
H 	H 	0.95600 0.86790 0.69200 0.07200
C 	C 	0.92456 0.89749 0.61590 0.04000
C 	C 	0.88435 0.88433 0.56070 -0.10900
H 	H 	0.88020 0.90880 0.53420 0.07300
C 	C 	0.85032 0.83525 0.54440 0.03500
H 	H 	0.82370 0.82720 0.50740 0.03000
C 	C 	0.96325 0.95018 0.62550 0.04500
C 	C 	0.95084 0.98736 0.62600 -0.10900
H 	H 	0.91790 0.97880 0.62660 0.07000
C 	C 	0.67070 0.62818 0.68200 0.22800
O 	O 	0.82070 0.71188 0.60830 -0.30200
O 	O 	0.78729 0.73605 0.50740 -0.46500
O 	O 	0.77167 0.62071 0.40540 -0.29500
O 	O 	0.71742 0.60204 0.51340 -0.46000
N 	N 	0.65730 0.68570 0.72020 -0.05300
N 	N 	0.64786 0.64007 0.74300 -0.25100
N 	N 	0.68470 0.70057 0.65070 -0.05400
N 	N 	0.67350 0.58680 0.68220 -0.35800
H 	H 	0.65990 0.56570 0.72410 0.17500
H 	H 	0.68890 0.58150 0.64040 0.17700
N 	N 	0.69370 0.66474 0.62370 -0.25100
Zn	Zn	0.39740 0.00307 0.84645 1.21600
C 	C 	0.40598 0.92387 0.78793 0.33700
C 	C 	0.38905 0.86957 0.78243 -0.09200
C 	C 	0.34428 0.83459 0.82003 0.02300
H 	H 	0.32387 0.84453 0.84633 0.03400
C 	C 	0.33054 0.78568 0.81803 -0.10000
H 	H 	0.30057 0.76283 0.84273 0.06500
C 	C 	0.36072 0.76921 0.77943 0.02900
C 	C 	0.40416 0.80472 0.73893 -0.09600
H 	H 	0.42417 0.79493 0.71063 0.06900
C 	C 	0.41814 0.85410 0.74003 0.02300
H 	H 	0.44707 0.87693 0.71223 0.04100
C 	C 	0.34648 0.71658 0.78133 0.05200
C 	C 	0.38271 0.70291 0.78173 -0.11500
H 	H 	0.41567 0.72713 0.78233 0.07300
C 	C 	0.48597 0.07793 0.89993 0.34600
C 	C 	0.52252 0.13123 0.91663 -0.10400
C 	C 	0.56222 0.14465 0.97403 0.03300
H 	H 	0.56577 0.12043 0.00273 0.03700
C 	C 	0.59597 0.19313 0.98843 -0.10800
H 	H 	0.62267 0.20123 0.02533 0.07200
C 	C 	0.59123 0.23082 0.94923 0.04000
C 	C 	0.55102 0.21766 0.89403 -0.10900
H 	H 	0.54687 0.24213 0.86753 0.07300
C 	C 	0.51699 0.16858 0.87773 0.03500
H 	H 	0.49037 0.16053 0.84073 0.03000
C 	C 	0.62992 0.28351 0.95883 0.04500
C 	C 	0.61751 0.32069 0.95933 -0.11000
H 	H 	0.58457 0.31213 0.95993 0.07000
C 	C 	0.33737 0.96151 0.01533 0.22800
O 	O 	0.48737 0.04521 0.94163 -0.30200
O 	O 	0.45396 0.06938 0.84073 -0.46500
O 	O 	0.43834 0.95404 0.73873 -0.29500
O 	O 	0.38409 0.93537 0.84673 -0.46000
N 	N 	0.32397 0.01903 0.05353 -0.05200
N 	N 	0.31453 0.97340 0.07633 -0.25100
N 	N 	0.35137 0.03390 0.98403 -0.05400
N 	N 	0.34017 0.92013 0.01553 -0.35900
H 	H 	0.32657 0.89903 0.05743 0.17500
H 	H 	0.35557 0.91483 0.97373 0.17800
N 	N 	0.36037 0.99807 0.95703 -0.25000
Zn	Zn	0.06406 0.33641 0.17979 1.21600
C 	C 	0.07264 0.25721 0.12127 0.33600
C 	C 	0.05571 0.20291 0.11577 -0.09100
C 	C 	0.01094 0.16793 0.15337 0.01900
H 	H 	0.99053 0.17787 0.17967 0.03600
C 	C 	0.99720 0.11902 0.15137 -0.09700
H 	H 	0.96723 0.09617 0.17607 0.06400
C 	C 	0.02738 0.10255 0.11277 0.02800
C 	C 	0.07082 0.13806 0.07227 -0.09500
H 	H 	0.09083 0.12827 0.04397 0.06800
C 	C 	0.08480 0.18744 0.07337 0.02200
H 	H 	0.11373 0.21027 0.04557 0.04200
C 	C 	0.01314 0.04992 0.11467 0.05100
C 	C 	0.04937 0.03625 0.11507 -0.11400
H 	H 	0.08233 0.06047 0.11567 0.07300
C 	C 	0.15263 0.41127 0.23327 0.34600
C 	C 	0.18918 0.46457 0.24997 -0.10400
C 	C 	0.22888 0.47799 0.30737 0.03400
H 	H 	0.23243 0.45377 0.33607 0.03600
C 	C 	0.26263 0.52647 0.32177 -0.10700
H 	H 	0.28933 0.53457 0.35867 0.07200
C 	C 	0.25789 0.56416 0.28257 0.04000
C 	C 	0.21768 0.55100 0.22737 -0.10900
H 	H 	0.21353 0.57547 0.20087 0.07300
C 	C 	0.18365 0.50192 0.21107 0.03500
H 	H 	0.15703 0.49387 0.17407 0.03000
C 	C 	0.29658 0.61685 0.29217 0.04600
C 	C 	0.28417 0.65403 0.29267 -0.11000
H 	H 	0.25123 0.64547 0.29327 0.07000
C 	C 	0.00403 0.29485 0.34867 0.22800
O 	O 	0.15403 0.37855 0.27497 -0.30200
O 	O 	0.12062 0.40272 0.17407 -0.46500
O 	O 	0.10500 0.28738 0.07207 -0.29500
O 	O 	0.05075 0.26871 0.18007 -0.46000
N 	N 	0.99063 0.35237 0.38687 -0.05200
N 	N 	0.98119 0.30674 0.40967 -0.25100
N 	N 	0.01803 0.36724 0.31737 -0.05400
N 	N 	0.00683 0.25347 0.34887 -0.35800
H 	H 	0.99323 0.23237 0.39077 0.17500
H 	H 	0.02223 0.24817 0.30707 0.17700
N 	N 	0.02703 0.33141 0.29037 -0.25100
Zn	Zn	0.33026 0.06099 0.51312 1.21600
C 	C 	0.40946 0.14877 0.45460 0.33700
C 	C 	0.46376 0.18614 0.44910 -0.09200
C 	C 	0.49874 0.17635 0.48670 0.02300
H 	H 	0.48880 0.14600 0.51300 0.03400
C 	C 	0.54765 0.21152 0.48470 -0.10000
H 	H 	0.57050 0.20440 0.50940 0.06500
C 	C 	0.56412 0.25817 0.44610 0.02900
C 	C 	0.52861 0.26610 0.40560 -0.09600
H 	H 	0.53840 0.29590 0.37730 0.06900
C 	C 	0.47923 0.23070 0.40670 0.02300
H 	H 	0.45640 0.23680 0.37890 0.04100
C 	C 	0.61675 0.29656 0.44800 0.05200
C 	C 	0.63042 0.34646 0.44840 -0.11500
H 	H 	0.60620 0.35520 0.44900 0.07300
C 	C 	0.25540 0.07470 0.56660 0.34600
C 	C 	0.20210 0.05795 0.58330 -0.10400
C 	C 	0.18868 0.08423 0.64070 0.03400
H 	H 	0.21290 0.11200 0.66940 0.03600
C 	C 	0.14020 0.06950 0.65510 -0.10800
H 	H 	0.13210 0.08810 0.69200 0.07200
C 	C 	0.10251 0.02707 0.61590 0.04000
C 	C 	0.11567 0.00002 0.56070 -0.10900
H 	H 	0.09120 0.97140 0.53420 0.07300
C 	C 	0.16475 0.01507 0.54440 0.03500
H 	H 	0.17280 0.99650 0.50740 0.03000
C 	C 	0.04982 0.01307 0.62550 0.04500
C 	C 	0.01264 0.96348 0.62600 -0.10900
H 	H 	0.02120 0.93910 0.62660 0.07000
C 	C 	0.37182 0.04252 0.68200 0.22800
O 	O 	0.28812 0.10882 0.60830 -0.30200
O 	O 	0.26395 0.05124 0.50740 -0.46500
O 	O 	0.37929 0.15096 0.40540 -0.29500
O 	O 	0.39796 0.11538 0.51340 -0.46000
N 	N 	0.31430 0.97160 0.72020 -0.05200
N 	N 	0.35993 0.00779 0.74300 -0.25100
N 	N 	0.29943 0.98413 0.65070 -0.05400
N 	N 	0.41320 0.08670 0.68220 -0.35800
H 	H 	0.43430 0.09420 0.72410 0.17500
H 	H 	0.41850 0.10740 0.64040 0.17700
N 	N 	0.33526 0.02896 0.62370 -0.25100
Zn	Zn	0.99693 0.39432 0.84645 1.21600
C 	C 	0.07613 0.48210 0.78793 0.33700
C 	C 	0.13043 0.51947 0.78243 -0.09200
C 	C 	0.16541 0.50968 0.82003 0.02300
H 	H 	0.15547 0.47933 0.84633 0.03400
C 	C 	0.21432 0.54485 0.81803 -0.10000
H 	H 	0.23717 0.53773 0.84273 0.06500
C 	C 	0.23079 0.59150 0.77943 0.02900
C 	C 	0.19528 0.59943 0.73893 -0.09600
H 	H 	0.20507 0.62923 0.71063 0.06900
C 	C 	0.14590 0.56403 0.74003 0.02300
H 	H 	0.12307 0.57013 0.71223 0.04100
C 	C 	0.28342 0.62989 0.78133 0.05200
C 	C 	0.29709 0.67979 0.78173 -0.11500
H 	H 	0.27287 0.68853 0.78233 0.07300
C 	C 	0.92207 0.40803 0.89993 0.34500
C 	C 	0.86877 0.39128 0.91663 -0.10300
C 	C 	0.85535 0.41756 0.97403 0.03300
H 	H 	0.87957 0.44533 0.00273 0.03700
C 	C 	0.80687 0.40283 0.98843 -0.10800
H 	H 	0.79877 0.42143 0.02533 0.07200
C 	C 	0.76918 0.36040 0.94923 0.04000
C 	C 	0.78234 0.33335 0.89403 -0.10900
H 	H 	0.75787 0.30473 0.86753 0.07300
C 	C 	0.83142 0.34840 0.87773 0.03500
H 	H 	0.83947 0.32983 0.84073 0.03000
C 	C 	0.71649 0.34640 0.95883 0.04500
C 	C 	0.67931 0.29681 0.95933 -0.11000
H 	H 	0.68787 0.27243 0.95993 0.07000
C 	C 	0.03849 0.37585 0.01533 0.22800
O 	O 	0.95479 0.44215 0.94163 -0.30200
O 	O 	0.93062 0.38457 0.84073 -0.46500
O 	O 	0.04596 0.48429 0.73873 -0.29500
O 	O 	0.06463 0.44871 0.84673 -0.46000
N 	N 	0.98097 0.30493 0.05353 -0.05200
N 	N 	0.02660 0.34112 0.07633 -0.25200
N 	N 	0.96610 0.31746 0.98403 -0.05400
N 	N 	0.07987 0.42003 0.01553 -0.35900
H 	H 	0.10097 0.42753 0.05743 0.17500
H 	H 	0.08517 0.44073 0.97373 0.17700
N 	N 	0.00193 0.36229 0.95703 -0.25100
Zn	Zn	0.66359 0.72766 0.17979 1.21600
C 	C 	0.74279 0.81544 0.12127 0.33700
C 	C 	0.79709 0.85281 0.11577 -0.09300
C 	C 	0.83207 0.84302 0.15337 0.02300
H 	H 	0.82213 0.81267 0.17967 0.03400
C 	C 	0.88098 0.87819 0.15137 -0.10000
H 	H 	0.90383 0.87107 0.17607 0.06500
C 	C 	0.89745 0.92484 0.11277 0.03000
C 	C 	0.86194 0.93277 0.07227 -0.09700
H 	H 	0.87173 0.96257 0.04397 0.06900
C 	C 	0.81256 0.89737 0.07337 0.02400
H 	H 	0.78973 0.90347 0.04557 0.04100
C 	C 	0.95008 0.96323 0.11467 0.05100
C 	C 	0.96375 0.01313 0.11507 -0.11300
H 	H 	0.93953 0.02187 0.11567 0.07200
C 	C 	0.58873 0.74137 0.23327 0.34600
C 	C 	0.53543 0.72462 0.24997 -0.10400
C 	C 	0.52201 0.75090 0.30737 0.03400
H 	H 	0.54623 0.77867 0.33607 0.03600
C 	C 	0.47353 0.73617 0.32177 -0.10700
H 	H 	0.46543 0.75477 0.35867 0.07200
C 	C 	0.43584 0.69374 0.28257 0.04000
C 	C 	0.44900 0.66669 0.22737 -0.10900
H 	H 	0.42453 0.63807 0.20087 0.07300
C 	C 	0.49808 0.68174 0.21107 0.03500
H 	H 	0.50613 0.66317 0.17407 0.03000
C 	C 	0.38315 0.67974 0.29217 0.04600
C 	C 	0.34597 0.63015 0.29267 -0.11000
H 	H 	0.35453 0.60577 0.29327 0.07000
C 	C 	0.70515 0.70919 0.34867 0.22800
O 	O 	0.62145 0.77549 0.27497 -0.30200
O 	O 	0.59728 0.71791 0.17407 -0.46500
O 	O 	0.71262 0.81763 0.07207 -0.29500
O 	O 	0.73129 0.78205 0.18007 -0.46000
N 	N 	0.64763 0.63827 0.38687 -0.05300
N 	N 	0.69326 0.67446 0.40967 -0.25100
N 	N 	0.63276 0.65080 0.31737 -0.05400
N 	N 	0.74653 0.75337 0.34887 -0.35800
H 	H 	0.76763 0.76087 0.39077 0.17500
H 	H 	0.75183 0.77407 0.30707 0.17700
N 	N 	0.66859 0.69563 0.29037 -0.25100
