data_crystal

_cell_length_a 44.99180
_cell_length_b 44.99180
_cell_length_c 44.99180
_cell_angle_alpha 60.00000
_cell_angle_beta  60.00000
_cell_angle_gamma 60.00000

_symmetry_space_group_name_	'P 1'
_symmetry_space_group_name_H-M	'P 1'

loop_
_symmetry_equiv_pos_as_xyz
  x,y,z

loop_
_atom_site_label
_atom_site_type_symbol
_atom_site_fract_x
_atom_site_fract_y
_atom_site_fract_z
_atom_site_charge
Co	Co	0.75000 0.75000 0.99283 1.12000
Co	Co	0.25000 0.25000 0.50717 1.12000
Co	Co	0.49283 0.50717 0.25000 1.12000
Co	Co	0.00717 0.99283 0.75000 1.12000
Co	Co	0.75000 0.99283 0.50717 1.12100
Co	Co	0.25000 0.50717 0.99283 1.12100
Co	Co	0.49283 0.25000 0.75000 1.12100
Co	Co	0.00717 0.75000 0.25000 1.12100
Co	Co	0.75000 0.50717 0.75000 1.12100
Co	Co	0.25000 0.99283 0.25000 1.12100
Co	Co	0.49283 0.75000 0.50717 1.12100
Co	Co	0.00717 0.25000 0.99283 1.12100
Co	Co	0.25000 0.25000 0.00717 1.12100
Co	Co	0.75000 0.75000 0.49283 1.12100
Co	Co	0.50717 0.49283 0.75000 1.12100
Co	Co	0.99283 0.00717 0.25000 1.12100
Co	Co	0.25000 0.00717 0.49283 1.12100
Co	Co	0.75000 0.49283 0.00717 1.12100
Co	Co	0.50717 0.75000 0.25000 1.12100
Co	Co	0.99283 0.25000 0.75000 1.12100
Co	Co	0.25000 0.49283 0.25000 1.12100
Co	Co	0.75000 0.00717 0.75000 1.12100
Co	Co	0.50717 0.25000 0.49283 1.12100
Co	Co	0.99283 0.75000 0.00717 1.12100
Co	Co	0.74761 0.50239 0.24761 1.12400
Co	Co	0.00239 0.24761 0.50239 1.12400
Co	Co	0.74761 0.24761 0.50239 1.12400
Co	Co	0.00239 0.50239 0.24761 1.12400
Co	Co	0.74761 0.50239 0.50239 1.12400
Co	Co	0.00239 0.24761 0.24761 1.12400
Co	Co	0.49761 0.25239 0.25239 1.12400
Co	Co	0.75239 0.99761 0.99761 1.12400
Co	Co	0.75239 0.25239 0.99761 1.12400
Co	Co	0.49761 0.99761 0.25239 1.12400
Co	Co	0.49761 0.25239 0.99761 1.12400
Co	Co	0.75239 0.99761 0.25239 1.12400
Co	Co	0.25239 0.49761 0.75239 1.12400
Co	Co	0.99761 0.75239 0.49761 1.12400
Co	Co	0.25239 0.75239 0.49761 1.12400
Co	Co	0.99761 0.49761 0.75239 1.12400
Co	Co	0.25239 0.49761 0.49761 1.12400
Co	Co	0.99761 0.75239 0.75239 1.12400
Co	Co	0.50239 0.74761 0.74761 1.12400
Co	Co	0.24761 0.00239 0.00239 1.12400
Co	Co	0.24761 0.74761 0.00239 1.12400
Co	Co	0.50239 0.00239 0.74761 1.12400
Co	Co	0.50239 0.74761 0.00239 1.12400
Co	Co	0.24761 0.00239 0.74761 1.12400
H 	H 	0.58700 0.72620 0.20980 0.01300
H 	H 	0.64780 0.63820 0.26940 0.03800
H 	H 	0.59480 0.64260 0.32180 0.06500
H 	H 	0.53970 0.68530 0.31430 -0.00100
H 	H 	0.67950 0.81330 0.01910 -0.00100
H 	H 	0.63050 0.82170 0.07110 0.06500
H 	H 	0.62870 0.77390 0.12650 0.03700
H 	H 	0.72640 0.71340 0.07500 0.01500
H 	H 	0.70850 0.58350 0.21770 0.01100
H 	H 	0.75910 0.62710 0.11070 0.03800
H 	H 	0.80100 0.56900 0.11140 0.06500
H 	H 	0.79420 0.51920 0.16500 0.00300
H 	H 	0.77360 0.55860 0.23960 0.00000
H 	H 	0.82410 0.56610 0.23190 0.06800
H 	H 	0.87950 0.51750 0.22810 0.03600
H 	H 	0.82740 0.45600 0.24580 0.01100
H 	H 	0.22620 0.08700 0.47700 0.01300
H 	H 	0.13820 0.14780 0.44460 0.03800
H 	H 	0.14260 0.09480 0.44080 0.06500
H 	H 	0.18530 0.03970 0.46070 -0.00100
H 	H 	0.31330 0.17950 0.48810 -0.00100
H 	H 	0.32170 0.13050 0.47670 0.06500
H 	H 	0.27390 0.12870 0.47090 0.03700
H 	H 	0.21340 0.22640 0.48520 0.01500
H 	H 	0.08350 0.20850 0.49030 0.01100
H 	H 	0.12710 0.25910 0.50310 0.03800
H 	H 	0.06900 0.30100 0.51860 0.06500
H 	H 	0.01920 0.29420 0.52160 0.00300
H 	H 	0.05860 0.27360 0.42820 0.00000
H 	H 	0.06610 0.32410 0.37790 0.06800
H 	H 	0.01750 0.37950 0.37490 0.03600
H 	H 	0.95600 0.32740 0.47080 0.01100
H 	H 	0.70980 0.47700 0.08700 0.01300
H 	H 	0.76940 0.44460 0.14780 0.03800
H 	H 	0.82180 0.44080 0.09480 0.06500
H 	H 	0.81430 0.46070 0.03970 -0.00100
H 	H 	0.51910 0.48810 0.17950 -0.00100
H 	H 	0.57110 0.47670 0.13050 0.06500
H 	H 	0.62650 0.47090 0.12870 0.03700
H 	H 	0.57500 0.48520 0.22640 0.01500
H 	H 	0.71770 0.49030 0.20850 0.01100
H 	H 	0.61070 0.50310 0.25910 0.03800
H 	H 	0.61140 0.51860 0.30100 0.06500
H 	H 	0.66500 0.52160 0.29420 0.00300
H 	H 	0.73960 0.42820 0.27360 0.00000
H 	H 	0.73190 0.37790 0.32410 0.06800
H 	H 	0.72810 0.37490 0.37950 0.03600
H 	H 	0.74580 0.47080 0.32740 0.01100
H 	H 	0.97700 0.20980 0.72620 0.01300
H 	H 	0.94460 0.26940 0.63820 0.03800
H 	H 	0.94080 0.32180 0.64260 0.06500
H 	H 	0.96070 0.31430 0.68530 -0.00100
H 	H 	0.98810 0.01910 0.81330 -0.00100
H 	H 	0.97670 0.07110 0.82170 0.06500
H 	H 	0.97090 0.12650 0.77390 0.03700
H 	H 	0.98520 0.07500 0.71340 0.01500
H 	H 	0.99030 0.21770 0.58350 0.01100
H 	H 	0.00310 0.11070 0.62710 0.03800
H 	H 	0.01860 0.11140 0.56900 0.06500
H 	H 	0.02160 0.16500 0.51920 0.00300
H 	H 	0.92820 0.23960 0.55860 0.00000
H 	H 	0.87790 0.23190 0.56610 0.06800
H 	H 	0.87490 0.22810 0.51750 0.03600
H 	H 	0.97080 0.24580 0.45600 0.01100
H 	H 	0.58700 0.20980 0.47700 0.01300
H 	H 	0.64780 0.26940 0.44460 0.03800
H 	H 	0.59480 0.32180 0.44080 0.06500
H 	H 	0.53970 0.31430 0.46070 -0.00100
H 	H 	0.67950 0.01910 0.48810 -0.00100
H 	H 	0.63050 0.07110 0.47670 0.06500
H 	H 	0.62870 0.12650 0.47090 0.03700
H 	H 	0.72640 0.07500 0.48520 0.01500
H 	H 	0.70850 0.21770 0.49030 0.01100
H 	H 	0.75910 0.11070 0.50310 0.03800
H 	H 	0.80100 0.11140 0.51860 0.06500
H 	H 	0.79420 0.16500 0.52160 0.00300
H 	H 	0.77360 0.23960 0.42820 0.00000
H 	H 	0.82410 0.23190 0.37790 0.06800
H 	H 	0.87950 0.22810 0.37490 0.03600
H 	H 	0.82740 0.24580 0.47080 0.01100
H 	H 	0.22620 0.47700 0.20980 0.01300
H 	H 	0.13820 0.44460 0.26940 0.03800
H 	H 	0.14260 0.44080 0.32180 0.06500
H 	H 	0.18530 0.46070 0.31430 -0.00100
H 	H 	0.31330 0.48810 0.01910 -0.00100
H 	H 	0.32170 0.47670 0.07110 0.06500
H 	H 	0.27390 0.47090 0.12650 0.03700
H 	H 	0.21340 0.48520 0.07500 0.01500
H 	H 	0.08350 0.49030 0.21770 0.01100
H 	H 	0.12710 0.50310 0.11070 0.03800
H 	H 	0.06900 0.51860 0.11140 0.06500
H 	H 	0.01920 0.52160 0.16500 0.00300
H 	H 	0.05860 0.42820 0.23960 0.00000
H 	H 	0.06610 0.37790 0.23190 0.06800
H 	H 	0.01750 0.37490 0.22810 0.03600
H 	H 	0.95600 0.47080 0.24580 0.01100
H 	H 	0.70980 0.08700 0.72620 0.01300
H 	H 	0.76940 0.14780 0.63820 0.03800
H 	H 	0.82180 0.09480 0.64260 0.06500
H 	H 	0.81430 0.03970 0.68530 -0.00100
H 	H 	0.51910 0.17950 0.81330 -0.00100
H 	H 	0.57110 0.13050 0.82170 0.06500
H 	H 	0.62650 0.12870 0.77390 0.03700
H 	H 	0.57500 0.22640 0.71340 0.01500
H 	H 	0.71770 0.20850 0.58350 0.01100
H 	H 	0.61070 0.25910 0.62710 0.03800
H 	H 	0.61140 0.30100 0.56900 0.06500
H 	H 	0.66500 0.29420 0.51920 0.00300
H 	H 	0.73960 0.27360 0.55860 0.00000
H 	H 	0.73190 0.32410 0.56610 0.06800
H 	H 	0.72810 0.37950 0.51750 0.03600
H 	H 	0.74580 0.32740 0.45600 0.01100
H 	H 	0.97700 0.72620 0.08700 0.01300
H 	H 	0.94460 0.63820 0.14780 0.03800
H 	H 	0.94080 0.64260 0.09480 0.06500
H 	H 	0.96070 0.68530 0.03970 -0.00100
H 	H 	0.98810 0.81330 0.17950 -0.00100
H 	H 	0.97670 0.82170 0.13050 0.06500
H 	H 	0.97090 0.77390 0.12870 0.03700
H 	H 	0.98520 0.71340 0.22640 0.01500
H 	H 	0.99030 0.58350 0.20850 0.01100
H 	H 	0.00310 0.62710 0.25910 0.03800
H 	H 	0.01860 0.56900 0.30100 0.06500
H 	H 	0.02160 0.51920 0.29420 0.00300
H 	H 	0.92820 0.55860 0.27360 0.00000
H 	H 	0.87790 0.56610 0.32410 0.06800
H 	H 	0.87490 0.51750 0.37950 0.03600
H 	H 	0.97080 0.45600 0.32740 0.01100
H 	H 	0.58700 0.47700 0.72620 0.01300
H 	H 	0.64780 0.44460 0.63820 0.03800
H 	H 	0.59480 0.44080 0.64260 0.06500
H 	H 	0.53970 0.46070 0.68530 -0.00100
H 	H 	0.67950 0.48810 0.81330 -0.00100
H 	H 	0.63050 0.47670 0.82170 0.06500
H 	H 	0.62870 0.47090 0.77390 0.03700
H 	H 	0.72640 0.48520 0.71340 0.01500
H 	H 	0.70850 0.49030 0.58350 0.01100
H 	H 	0.75910 0.50310 0.62710 0.03800
H 	H 	0.80100 0.51860 0.56900 0.06500
H 	H 	0.79420 0.52160 0.51920 0.00300
H 	H 	0.77360 0.42820 0.55860 0.00000
H 	H 	0.82410 0.37790 0.56610 0.06800
H 	H 	0.87950 0.37490 0.51750 0.03600
H 	H 	0.82740 0.47080 0.45600 0.01100
H 	H 	0.22620 0.20980 0.08700 0.01300
H 	H 	0.13820 0.26940 0.14780 0.03800
H 	H 	0.14260 0.32180 0.09480 0.06500
H 	H 	0.18530 0.31430 0.03970 -0.00100
H 	H 	0.31330 0.01910 0.17950 -0.00100
H 	H 	0.32170 0.07110 0.13050 0.06500
H 	H 	0.27390 0.12650 0.12870 0.03700
H 	H 	0.21340 0.07500 0.22640 0.01500
H 	H 	0.08350 0.21770 0.20850 0.01100
H 	H 	0.12710 0.11070 0.25910 0.03800
H 	H 	0.06900 0.11140 0.30100 0.06500
H 	H 	0.01920 0.16500 0.29420 0.00300
H 	H 	0.05860 0.23960 0.27360 0.00000
H 	H 	0.06610 0.23190 0.32410 0.06800
H 	H 	0.01750 0.22810 0.37950 0.03600
H 	H 	0.95600 0.24580 0.32740 0.01100
H 	H 	0.70980 0.72620 0.47700 0.01300
H 	H 	0.76940 0.63820 0.44460 0.03800
H 	H 	0.82180 0.64260 0.44080 0.06500
H 	H 	0.81430 0.68530 0.46070 -0.00100
H 	H 	0.51910 0.81330 0.48810 -0.00100
H 	H 	0.57110 0.82170 0.47670 0.06500
H 	H 	0.62650 0.77390 0.47090 0.03700
H 	H 	0.57500 0.71340 0.48520 0.01500
H 	H 	0.71770 0.58350 0.49030 0.01100
H 	H 	0.61070 0.62710 0.50310 0.03800
H 	H 	0.61140 0.56900 0.51860 0.06500
H 	H 	0.66500 0.51920 0.52160 0.00300
H 	H 	0.73960 0.55860 0.42820 0.00000
H 	H 	0.73190 0.56610 0.37790 0.06800
H 	H 	0.72810 0.51750 0.37490 0.03600
H 	H 	0.74580 0.45600 0.47080 0.01100
H 	H 	0.97700 0.08700 0.20980 0.01300
H 	H 	0.94460 0.14780 0.26940 0.03800
H 	H 	0.94080 0.09480 0.32180 0.06500
H 	H 	0.96070 0.03970 0.31430 -0.00100
H 	H 	0.98810 0.17950 0.01910 -0.00100
H 	H 	0.97670 0.13050 0.07110 0.06500
H 	H 	0.97090 0.12870 0.12650 0.03700
H 	H 	0.98520 0.22640 0.07500 0.01500
H 	H 	0.99030 0.20850 0.21770 0.01100
H 	H 	0.00310 0.25910 0.11070 0.03800
H 	H 	0.01860 0.30100 0.11140 0.06500
H 	H 	0.02160 0.29420 0.16500 0.00300
H 	H 	0.92820 0.27360 0.23960 0.00000
H 	H 	0.87790 0.32410 0.23190 0.06800
H 	H 	0.87490 0.37950 0.22810 0.03600
H 	H 	0.97080 0.32740 0.24580 0.01100
H 	H 	0.27380 0.41300 0.29020 0.01300
H 	H 	0.36180 0.35220 0.23060 0.03800
H 	H 	0.35740 0.40520 0.17820 0.06500
H 	H 	0.31470 0.46030 0.18570 -0.00100
H 	H 	0.18670 0.32050 0.48090 -0.00100
H 	H 	0.17830 0.36950 0.42890 0.06500
H 	H 	0.22610 0.37130 0.37350 0.03700
H 	H 	0.28660 0.27360 0.42500 0.01500
H 	H 	0.41650 0.29150 0.28230 0.01100
H 	H 	0.37290 0.24090 0.38930 0.03800
H 	H 	0.43100 0.19900 0.38860 0.06500
H 	H 	0.48080 0.20580 0.33500 0.00300
H 	H 	0.44140 0.22640 0.26040 0.00000
H 	H 	0.43390 0.17590 0.26810 0.06800
H 	H 	0.48250 0.12050 0.27190 0.03600
H 	H 	0.54400 0.17260 0.25420 0.01100
H 	H 	0.91300 0.77380 0.02300 0.01300
H 	H 	0.85220 0.86180 0.05540 0.03800
H 	H 	0.90520 0.85740 0.05920 0.06500
H 	H 	0.96030 0.81470 0.03930 -0.00100
H 	H 	0.82050 0.68670 0.01190 -0.00100
H 	H 	0.86950 0.67830 0.02330 0.06500
H 	H 	0.87130 0.72610 0.02910 0.03700
H 	H 	0.77360 0.78660 0.01480 0.01500
H 	H 	0.79150 0.91650 0.00970 0.01100
H 	H 	0.74090 0.87290 0.99690 0.03800
H 	H 	0.69900 0.93100 0.98140 0.06500
H 	H 	0.70580 0.98080 0.97840 0.00400
H 	H 	0.72640 0.94140 0.07180 0.00000
H 	H 	0.67590 0.93390 0.12210 0.06800
H 	H 	0.62050 0.98250 0.12510 0.03600
H 	H 	0.67260 0.04400 0.02920 0.01100
H 	H 	0.52300 0.29020 0.41300 0.01300
H 	H 	0.55540 0.23060 0.35220 0.03800
H 	H 	0.55920 0.17820 0.40520 0.06500
H 	H 	0.53930 0.18570 0.46030 -0.00100
H 	H 	0.51190 0.48090 0.32050 -0.00100
H 	H 	0.52330 0.42890 0.36950 0.06500
H 	H 	0.52910 0.37350 0.37130 0.03700
H 	H 	0.51480 0.42500 0.27360 0.01500
H 	H 	0.50970 0.28230 0.29150 0.01100
H 	H 	0.49690 0.38930 0.24090 0.03800
H 	H 	0.48140 0.38860 0.19900 0.06500
H 	H 	0.47840 0.33500 0.20580 0.00300
H 	H 	0.57180 0.26040 0.22640 0.00000
H 	H 	0.62210 0.26810 0.17590 0.06800
H 	H 	0.62510 0.27190 0.12050 0.03600
H 	H 	0.52920 0.25420 0.17260 0.01100
H 	H 	0.79020 0.02300 0.77380 0.01300
H 	H 	0.73060 0.05540 0.86180 0.03800
H 	H 	0.67820 0.05920 0.85740 0.06500
H 	H 	0.68570 0.03930 0.81470 -0.00100
H 	H 	0.98090 0.01190 0.68670 -0.00100
H 	H 	0.92890 0.02330 0.67830 0.06500
H 	H 	0.87350 0.02910 0.72610 0.03700
H 	H 	0.92500 0.01480 0.78660 0.01500
H 	H 	0.78230 0.00970 0.91650 0.01100
H 	H 	0.88930 0.99690 0.87290 0.03800
H 	H 	0.88860 0.98140 0.93100 0.06500
H 	H 	0.83500 0.97840 0.98080 0.00400
H 	H 	0.76040 0.07180 0.94140 0.00000
H 	H 	0.76810 0.12210 0.93390 0.06800
H 	H 	0.77190 0.12510 0.98250 0.03600
H 	H 	0.75420 0.02920 0.04400 0.01100
H 	H 	0.79020 0.41300 0.02300 0.01300
H 	H 	0.73060 0.35220 0.05540 0.03800
H 	H 	0.67820 0.40520 0.05920 0.06500
H 	H 	0.68570 0.46030 0.03930 -0.00100
H 	H 	0.98090 0.32050 0.01190 -0.00100
H 	H 	0.92890 0.36950 0.02330 0.06500
H 	H 	0.87350 0.37130 0.02910 0.03700
H 	H 	0.92500 0.27360 0.01480 0.01500
H 	H 	0.78230 0.29150 0.00970 0.01100
H 	H 	0.88930 0.24090 0.99690 0.03800
H 	H 	0.88860 0.19900 0.98140 0.06500
H 	H 	0.83500 0.20580 0.97840 0.00300
H 	H 	0.76040 0.22640 0.07180 0.00000
H 	H 	0.76810 0.17590 0.12210 0.06800
H 	H 	0.77190 0.12050 0.12510 0.03600
H 	H 	0.75420 0.17260 0.02920 0.01100
H 	H 	0.52300 0.77380 0.29020 0.01300
H 	H 	0.55540 0.86180 0.23060 0.03800
H 	H 	0.55920 0.85740 0.17820 0.06500
H 	H 	0.53930 0.81470 0.18570 -0.00100
H 	H 	0.51190 0.68670 0.48090 -0.00100
H 	H 	0.52330 0.67830 0.42890 0.06500
H 	H 	0.52910 0.72610 0.37350 0.03700
H 	H 	0.51480 0.78660 0.42500 0.01500
H 	H 	0.50970 0.91650 0.28230 0.01100
H 	H 	0.49690 0.87290 0.38930 0.03800
H 	H 	0.48140 0.93100 0.38860 0.06500
H 	H 	0.47840 0.98080 0.33500 0.00300
H 	H 	0.57180 0.94140 0.26040 0.00000
H 	H 	0.62210 0.93390 0.26810 0.06800
H 	H 	0.62510 0.98250 0.27190 0.03600
H 	H 	0.52920 0.04400 0.25420 0.01100
H 	H 	0.91300 0.29020 0.77380 0.01300
H 	H 	0.85220 0.23060 0.86180 0.03800
H 	H 	0.90520 0.17820 0.85740 0.06500
H 	H 	0.96030 0.18570 0.81470 -0.00100
H 	H 	0.82050 0.48090 0.68670 -0.00100
H 	H 	0.86950 0.42890 0.67830 0.06500
H 	H 	0.87130 0.37350 0.72610 0.03700
H 	H 	0.77360 0.42500 0.78660 0.01500
H 	H 	0.79150 0.28230 0.91650 0.01100
H 	H 	0.74090 0.38930 0.87290 0.03800
H 	H 	0.69900 0.38860 0.93100 0.06500
H 	H 	0.70580 0.33500 0.98080 0.00300
H 	H 	0.72640 0.26040 0.94140 0.00000
H 	H 	0.67590 0.26810 0.93390 0.06800
H 	H 	0.62050 0.27190 0.98250 0.03600
H 	H 	0.67260 0.25420 0.04400 0.01100
H 	H 	0.27380 0.02300 0.41300 0.01300
H 	H 	0.36180 0.05540 0.35220 0.03800
H 	H 	0.35740 0.05920 0.40520 0.06500
H 	H 	0.31470 0.03930 0.46030 -0.00100
H 	H 	0.18670 0.01190 0.32050 -0.00100
H 	H 	0.17830 0.02330 0.36950 0.06500
H 	H 	0.22610 0.02910 0.37130 0.03700
H 	H 	0.28660 0.01480 0.27360 0.01500
H 	H 	0.41650 0.00970 0.29150 0.01100
H 	H 	0.37290 0.99690 0.24090 0.03800
H 	H 	0.43100 0.98140 0.19900 0.06500
H 	H 	0.48080 0.97840 0.20580 0.00300
H 	H 	0.44140 0.07180 0.22640 0.00000
H 	H 	0.43390 0.12210 0.17590 0.06800
H 	H 	0.48250 0.12510 0.12050 0.03600
H 	H 	0.54400 0.02920 0.17260 0.01100
H 	H 	0.52300 0.41300 0.77380 0.01300
H 	H 	0.55540 0.35220 0.86180 0.03800
H 	H 	0.55920 0.40520 0.85740 0.06500
H 	H 	0.53930 0.46030 0.81470 -0.00100
H 	H 	0.51190 0.32050 0.68670 -0.00100
H 	H 	0.52330 0.36950 0.67830 0.06500
H 	H 	0.52910 0.37130 0.72610 0.03700
H 	H 	0.51480 0.27360 0.78660 0.01500
H 	H 	0.50970 0.29150 0.91650 0.01100
H 	H 	0.49690 0.24090 0.87290 0.03800
H 	H 	0.48140 0.19900 0.93100 0.06500
H 	H 	0.47840 0.20580 0.98080 0.00300
H 	H 	0.57180 0.22640 0.94140 0.00000
H 	H 	0.62210 0.17590 0.93390 0.06800
H 	H 	0.62510 0.12050 0.98250 0.03600
H 	H 	0.52920 0.17260 0.04400 0.01100
H 	H 	0.79020 0.77380 0.41300 0.01300
H 	H 	0.73060 0.86180 0.35220 0.03800
H 	H 	0.67820 0.85740 0.40520 0.06500
H 	H 	0.68570 0.81470 0.46030 -0.00100
H 	H 	0.98090 0.68670 0.32050 -0.00100
H 	H 	0.92890 0.67830 0.36950 0.06500
H 	H 	0.87350 0.72610 0.37130 0.03700
H 	H 	0.92500 0.78660 0.27360 0.01500
H 	H 	0.78230 0.91650 0.29150 0.01100
H 	H 	0.88930 0.87290 0.24090 0.03800
H 	H 	0.88860 0.93100 0.19900 0.06500
H 	H 	0.83500 0.98080 0.20580 0.00300
H 	H 	0.76040 0.94140 0.22640 0.00000
H 	H 	0.76810 0.93390 0.17590 0.06800
H 	H 	0.77190 0.98250 0.12050 0.03600
H 	H 	0.75420 0.04400 0.17260 0.01100
H 	H 	0.27380 0.29020 0.02300 0.01300
H 	H 	0.36180 0.23060 0.05540 0.03800
H 	H 	0.35740 0.17820 0.05920 0.06500
H 	H 	0.31470 0.18570 0.03930 -0.00100
H 	H 	0.18670 0.48090 0.01190 -0.00100
H 	H 	0.17830 0.42890 0.02330 0.06500
H 	H 	0.22610 0.37350 0.02910 0.03700
H 	H 	0.28660 0.42500 0.01480 0.01500
H 	H 	0.41650 0.28230 0.00970 0.01100
H 	H 	0.37290 0.38930 0.99690 0.03800
H 	H 	0.43100 0.38860 0.98140 0.06500
H 	H 	0.48080 0.33500 0.97840 0.00300
H 	H 	0.44140 0.26040 0.07180 0.00000
H 	H 	0.43390 0.26810 0.12210 0.06800
H 	H 	0.48250 0.27190 0.12510 0.03600
H 	H 	0.54400 0.25420 0.02920 0.01100
H 	H 	0.91300 0.02300 0.29020 0.01300
H 	H 	0.85220 0.05540 0.23060 0.03800
H 	H 	0.90520 0.05920 0.17820 0.06500
H 	H 	0.96030 0.03930 0.18570 -0.00100
H 	H 	0.82050 0.01190 0.48090 -0.00100
H 	H 	0.86950 0.02330 0.42890 0.06500
H 	H 	0.87130 0.02910 0.37350 0.03700
H 	H 	0.77360 0.01480 0.42500 0.01500
H 	H 	0.79150 0.00970 0.28230 0.01100
H 	H 	0.74090 0.99690 0.38930 0.03800
H 	H 	0.69900 0.98140 0.38860 0.06500
H 	H 	0.70580 0.97840 0.33500 0.00300
H 	H 	0.72640 0.07180 0.26040 0.00000
H 	H 	0.67590 0.12210 0.26810 0.06800
H 	H 	0.62050 0.12510 0.27190 0.03600
H 	H 	0.67260 0.02920 0.25420 0.01100
H 	H 	0.41300 0.27380 0.79020 0.01300
H 	H 	0.35220 0.36180 0.73060 0.03800
H 	H 	0.40520 0.35740 0.67820 0.06500
H 	H 	0.46030 0.31470 0.68570 -0.00100
H 	H 	0.32050 0.18670 0.98090 -0.00100
H 	H 	0.36950 0.17830 0.92890 0.06500
H 	H 	0.37130 0.22610 0.87350 0.03700
H 	H 	0.27360 0.28660 0.92500 0.01500
H 	H 	0.29150 0.41650 0.78230 0.01100
H 	H 	0.24090 0.37290 0.88930 0.03800
H 	H 	0.19900 0.43100 0.88860 0.06500
H 	H 	0.20580 0.48080 0.83500 0.00300
H 	H 	0.22640 0.44140 0.76040 0.00000
H 	H 	0.17590 0.43390 0.76810 0.06800
H 	H 	0.12050 0.48250 0.77190 0.03600
H 	H 	0.17260 0.54400 0.75420 0.01100
H 	H 	0.77380 0.91300 0.52300 0.01300
H 	H 	0.86180 0.85220 0.55540 0.03800
H 	H 	0.85740 0.90520 0.55920 0.06500
H 	H 	0.81470 0.96030 0.53930 -0.00100
H 	H 	0.68670 0.82050 0.51190 -0.00100
H 	H 	0.67830 0.86950 0.52330 0.06500
H 	H 	0.72610 0.87130 0.52910 0.03700
H 	H 	0.78660 0.77360 0.51480 0.01500
H 	H 	0.91650 0.79150 0.50970 0.01100
H 	H 	0.87290 0.74090 0.49690 0.03800
H 	H 	0.93100 0.69900 0.48140 0.06500
H 	H 	0.98080 0.70580 0.47840 0.00300
H 	H 	0.94140 0.72640 0.57180 0.00000
H 	H 	0.93390 0.67590 0.62210 0.06800
H 	H 	0.98250 0.62050 0.62510 0.03600
H 	H 	0.04400 0.67260 0.52920 0.01100
H 	H 	0.29020 0.52300 0.91300 0.01300
H 	H 	0.23060 0.55540 0.85220 0.03800
H 	H 	0.17820 0.55920 0.90520 0.06500
H 	H 	0.18570 0.53930 0.96030 -0.00100
H 	H 	0.48090 0.51190 0.82050 -0.00100
H 	H 	0.42890 0.52330 0.86950 0.06500
H 	H 	0.37350 0.52910 0.87130 0.03700
H 	H 	0.42500 0.51480 0.77360 0.01500
H 	H 	0.28230 0.50970 0.79150 0.01100
H 	H 	0.38930 0.49690 0.74090 0.03800
H 	H 	0.38860 0.48140 0.69900 0.06500
H 	H 	0.33500 0.47840 0.70580 0.00300
H 	H 	0.26040 0.57180 0.72640 0.00000
H 	H 	0.26810 0.62210 0.67590 0.06800
H 	H 	0.27190 0.62510 0.62050 0.03600
H 	H 	0.25420 0.52920 0.67260 0.01100
H 	H 	0.02300 0.79020 0.27380 0.01300
H 	H 	0.05540 0.73060 0.36180 0.03800
H 	H 	0.05920 0.67820 0.35740 0.06500
H 	H 	0.03930 0.68570 0.31470 -0.00100
H 	H 	0.01190 0.98090 0.18670 -0.00100
H 	H 	0.02330 0.92890 0.17830 0.06500
H 	H 	0.02910 0.87350 0.22610 0.03700
H 	H 	0.01480 0.92500 0.28660 0.01500
H 	H 	0.00970 0.78230 0.41650 0.01100
H 	H 	0.99690 0.88930 0.37290 0.03800
H 	H 	0.98140 0.88860 0.43100 0.06500
H 	H 	0.97840 0.83500 0.48080 0.00300
H 	H 	0.07180 0.76040 0.44140 0.00000
H 	H 	0.12210 0.76810 0.43390 0.06800
H 	H 	0.12510 0.77190 0.48250 0.03600
H 	H 	0.02920 0.75420 0.54400 0.01100
H 	H 	0.41300 0.79020 0.52300 0.01300
H 	H 	0.35220 0.73060 0.55540 0.03800
H 	H 	0.40520 0.67820 0.55920 0.06500
H 	H 	0.46030 0.68570 0.53930 -0.00100
H 	H 	0.32050 0.98090 0.51190 -0.00100
H 	H 	0.36950 0.92890 0.52330 0.06500
H 	H 	0.37130 0.87350 0.52910 0.03700
H 	H 	0.27360 0.92500 0.51480 0.01500
H 	H 	0.29150 0.78230 0.50970 0.01100
H 	H 	0.24090 0.88930 0.49690 0.03800
H 	H 	0.19900 0.88860 0.48140 0.06500
H 	H 	0.20580 0.83500 0.47840 0.00300
H 	H 	0.22640 0.76040 0.57180 0.00000
H 	H 	0.17590 0.76810 0.62210 0.06800
H 	H 	0.12050 0.77190 0.62510 0.03600
H 	H 	0.17260 0.75420 0.52920 0.01100
H 	H 	0.77380 0.52300 0.79020 0.01300
H 	H 	0.86180 0.55540 0.73060 0.03800
H 	H 	0.85740 0.55920 0.67820 0.06500
H 	H 	0.81470 0.53930 0.68570 -0.00100
H 	H 	0.68670 0.51190 0.98090 -0.00100
H 	H 	0.67830 0.52330 0.92890 0.06500
H 	H 	0.72610 0.52910 0.87350 0.03700
H 	H 	0.78660 0.51480 0.92500 0.01500
H 	H 	0.91650 0.50970 0.78230 0.01100
H 	H 	0.87290 0.49690 0.88930 0.03800
H 	H 	0.93100 0.48140 0.88860 0.06500
H 	H 	0.98080 0.47840 0.83500 0.00300
H 	H 	0.94140 0.57180 0.76040 0.00000
H 	H 	0.93390 0.62210 0.76810 0.06800
H 	H 	0.98250 0.62510 0.77190 0.03600
H 	H 	0.04400 0.52920 0.75420 0.01100
H 	H 	0.29020 0.91300 0.27380 0.01300
H 	H 	0.23060 0.85220 0.36180 0.03800
H 	H 	0.17820 0.90520 0.35740 0.06500
H 	H 	0.18570 0.96030 0.31470 -0.00100
H 	H 	0.48090 0.82050 0.18670 -0.00100
H 	H 	0.42890 0.86950 0.17830 0.06500
H 	H 	0.37350 0.87130 0.22610 0.03700
H 	H 	0.42500 0.77360 0.28660 0.01500
H 	H 	0.28230 0.79150 0.41650 0.01100
H 	H 	0.38930 0.74090 0.37290 0.03800
H 	H 	0.38860 0.69900 0.43100 0.06500
H 	H 	0.33500 0.70580 0.48080 0.00300
H 	H 	0.26040 0.72640 0.44140 0.00000
H 	H 	0.26810 0.67590 0.43390 0.06800
H 	H 	0.27190 0.62050 0.48250 0.03600
H 	H 	0.25420 0.67260 0.54400 0.01100
H 	H 	0.02300 0.27380 0.91300 0.01300
H 	H 	0.05540 0.36180 0.85220 0.03800
H 	H 	0.05920 0.35740 0.90520 0.06500
H 	H 	0.03930 0.31470 0.96030 -0.00100
H 	H 	0.01190 0.18670 0.82050 -0.00100
H 	H 	0.02330 0.17830 0.86950 0.06500
H 	H 	0.02910 0.22610 0.87130 0.03700
H 	H 	0.01480 0.28660 0.77360 0.01500
H 	H 	0.00970 0.41650 0.79150 0.01100
H 	H 	0.99690 0.37290 0.74090 0.03800
H 	H 	0.98140 0.43100 0.69900 0.06500
H 	H 	0.97840 0.48080 0.70580 0.00300
H 	H 	0.07180 0.44140 0.72640 0.00000
H 	H 	0.12210 0.43390 0.67590 0.06800
H 	H 	0.12510 0.48250 0.62050 0.03600
H 	H 	0.02920 0.54400 0.67260 0.01100
H 	H 	0.41300 0.52300 0.27380 0.01300
H 	H 	0.35220 0.55540 0.36180 0.03800
H 	H 	0.40520 0.55920 0.35740 0.06500
H 	H 	0.46030 0.53930 0.31470 -0.00100
H 	H 	0.32050 0.51190 0.18670 -0.00100
H 	H 	0.36950 0.52330 0.17830 0.06500
H 	H 	0.37130 0.52910 0.22610 0.03700
H 	H 	0.27360 0.51480 0.28660 0.01500
H 	H 	0.29150 0.50970 0.41650 0.01100
H 	H 	0.24090 0.49690 0.37290 0.03800
H 	H 	0.19900 0.48140 0.43100 0.06500
H 	H 	0.20580 0.47840 0.48080 0.00300
H 	H 	0.22640 0.57180 0.44140 0.00000
H 	H 	0.17590 0.62210 0.43390 0.06800
H 	H 	0.12050 0.62510 0.48250 0.03600
H 	H 	0.17260 0.52920 0.54400 0.01100
H 	H 	0.77380 0.79020 0.91300 0.01300
H 	H 	0.86180 0.73060 0.85220 0.03800
H 	H 	0.85740 0.67820 0.90520 0.06500
H 	H 	0.81470 0.68570 0.96030 -0.00100
H 	H 	0.68670 0.98090 0.82050 -0.00100
H 	H 	0.67830 0.92890 0.86950 0.06500
H 	H 	0.72610 0.87350 0.87130 0.03700
H 	H 	0.78660 0.92500 0.77360 0.01500
H 	H 	0.91650 0.78230 0.79150 0.01100
H 	H 	0.87290 0.88930 0.74090 0.03800
H 	H 	0.93100 0.88860 0.69900 0.06500
H 	H 	0.98080 0.83500 0.70580 0.00300
H 	H 	0.94140 0.76040 0.72640 0.00000
H 	H 	0.93390 0.76810 0.67590 0.06800
H 	H 	0.98250 0.77190 0.62050 0.03600
H 	H 	0.04400 0.75420 0.67260 0.01100
H 	H 	0.29020 0.27380 0.52300 0.01300
H 	H 	0.23060 0.36180 0.55540 0.03800
H 	H 	0.17820 0.35740 0.55920 0.06500
H 	H 	0.18570 0.31470 0.53930 -0.00100
H 	H 	0.48090 0.18670 0.51190 -0.00100
H 	H 	0.42890 0.17830 0.52330 0.06500
H 	H 	0.37350 0.22610 0.52910 0.03700
H 	H 	0.42500 0.28660 0.51480 0.01500
H 	H 	0.28230 0.41650 0.50970 0.01100
H 	H 	0.38930 0.37290 0.49690 0.03800
H 	H 	0.38860 0.43100 0.48140 0.06500
H 	H 	0.33500 0.48080 0.47840 0.00300
H 	H 	0.26040 0.44140 0.57180 0.00000
H 	H 	0.26810 0.43390 0.62210 0.06800
H 	H 	0.27190 0.48250 0.62510 0.03600
H 	H 	0.25420 0.54400 0.52920 0.01100
H 	H 	0.02300 0.91300 0.79020 0.01300
H 	H 	0.05540 0.85220 0.73060 0.03800
H 	H 	0.05920 0.90520 0.67820 0.06500
H 	H 	0.03930 0.96030 0.68570 -0.00100
H 	H 	0.01190 0.82050 0.98090 -0.00100
H 	H 	0.02330 0.86950 0.92890 0.06500
H 	H 	0.02910 0.87130 0.87350 0.03700
H 	H 	0.01480 0.77360 0.92500 0.01500
H 	H 	0.00970 0.79150 0.78230 0.01100
H 	H 	0.99690 0.74090 0.88930 0.03800
H 	H 	0.98140 0.69900 0.88860 0.06500
H 	H 	0.97840 0.70580 0.83500 0.00300
H 	H 	0.07180 0.72640 0.76040 0.00000
H 	H 	0.12210 0.67590 0.76810 0.06800
H 	H 	0.12510 0.62050 0.77190 0.03600
H 	H 	0.02920 0.67260 0.75420 0.01100
H 	H 	0.72620 0.58700 0.70980 0.01300
H 	H 	0.63820 0.64780 0.76940 0.03800
H 	H 	0.64260 0.59480 0.82180 0.06500
H 	H 	0.68530 0.53970 0.81430 -0.00100
H 	H 	0.81330 0.67950 0.51910 -0.00100
H 	H 	0.82170 0.63050 0.57110 0.06500
H 	H 	0.77390 0.62870 0.62650 0.03700
H 	H 	0.71340 0.72640 0.57500 0.01500
H 	H 	0.58350 0.70850 0.71770 0.01100
H 	H 	0.62710 0.75910 0.61070 0.03800
H 	H 	0.56900 0.80100 0.61140 0.06500
H 	H 	0.51920 0.79420 0.66500 0.00300
H 	H 	0.55860 0.77360 0.73960 0.00000
H 	H 	0.56610 0.82410 0.73190 0.06800
H 	H 	0.51750 0.87950 0.72810 0.03600
H 	H 	0.45600 0.82740 0.74580 0.01100
H 	H 	0.08700 0.22620 0.97700 0.01300
H 	H 	0.14780 0.13820 0.94460 0.03800
H 	H 	0.09480 0.14260 0.94080 0.06500
H 	H 	0.03970 0.18530 0.96070 -0.00100
H 	H 	0.17950 0.31330 0.98810 -0.00100
H 	H 	0.13050 0.32170 0.97670 0.06500
H 	H 	0.12870 0.27390 0.97090 0.03700
H 	H 	0.22640 0.21340 0.98520 0.01500
H 	H 	0.20850 0.08350 0.99030 0.01100
H 	H 	0.25910 0.12710 0.00310 0.03800
H 	H 	0.30100 0.06900 0.01860 0.06500
H 	H 	0.29420 0.01920 0.02160 0.00400
H 	H 	0.27360 0.05860 0.92820 0.00000
H 	H 	0.32410 0.06610 0.87790 0.06800
H 	H 	0.37950 0.01750 0.87490 0.03600
H 	H 	0.32740 0.95600 0.97080 0.01100
H 	H 	0.47700 0.70980 0.58700 0.01300
H 	H 	0.44460 0.76940 0.64780 0.03800
H 	H 	0.44080 0.82180 0.59480 0.06500
H 	H 	0.46070 0.81430 0.53970 -0.00100
H 	H 	0.48810 0.51910 0.67950 -0.00100
H 	H 	0.47670 0.57110 0.63050 0.06500
H 	H 	0.47090 0.62650 0.62870 0.03700
H 	H 	0.48520 0.57500 0.72640 0.01500
H 	H 	0.49030 0.71770 0.70850 0.01100
H 	H 	0.50310 0.61070 0.75910 0.03800
H 	H 	0.51860 0.61140 0.80100 0.06500
H 	H 	0.52160 0.66500 0.79420 0.00300
H 	H 	0.42820 0.73960 0.77360 0.00000
H 	H 	0.37790 0.73190 0.82410 0.06800
H 	H 	0.37490 0.72810 0.87950 0.03600
H 	H 	0.47080 0.74580 0.82740 0.01100
H 	H 	0.20980 0.97700 0.22620 0.01300
H 	H 	0.26940 0.94460 0.13820 0.03800
H 	H 	0.32180 0.94080 0.14260 0.06500
H 	H 	0.31430 0.96070 0.18530 -0.00100
H 	H 	0.01910 0.98810 0.31330 -0.00100
H 	H 	0.07110 0.97670 0.32170 0.06500
H 	H 	0.12650 0.97090 0.27390 0.03700
H 	H 	0.07500 0.98520 0.21340 0.01500
H 	H 	0.21770 0.99030 0.08350 0.01100
H 	H 	0.11070 0.00310 0.12710 0.03800
H 	H 	0.11140 0.01860 0.06900 0.06500
H 	H 	0.16500 0.02160 0.01920 0.00400
H 	H 	0.23960 0.92820 0.05860 0.00000
H 	H 	0.23190 0.87790 0.06610 0.06800
H 	H 	0.22810 0.87490 0.01750 0.03600
H 	H 	0.24580 0.97080 0.95600 0.01100
H 	H 	0.20980 0.58700 0.97700 0.01300
H 	H 	0.26940 0.64780 0.94460 0.03800
H 	H 	0.32180 0.59480 0.94080 0.06500
H 	H 	0.31430 0.53970 0.96070 -0.00100
H 	H 	0.01910 0.67950 0.98810 -0.00100
H 	H 	0.07110 0.63050 0.97670 0.06500
H 	H 	0.12650 0.62870 0.97090 0.03700
H 	H 	0.07500 0.72640 0.98520 0.01500
H 	H 	0.21770 0.70850 0.99030 0.01100
H 	H 	0.11070 0.75910 0.00310 0.03800
H 	H 	0.11140 0.80100 0.01860 0.06500
H 	H 	0.16500 0.79420 0.02160 0.00300
H 	H 	0.23960 0.77360 0.92820 0.00000
H 	H 	0.23190 0.82410 0.87790 0.06800
H 	H 	0.22810 0.87950 0.87490 0.03600
H 	H 	0.24580 0.82740 0.97080 0.01100
H 	H 	0.47700 0.22620 0.70980 0.01300
H 	H 	0.44460 0.13820 0.76940 0.03800
H 	H 	0.44080 0.14260 0.82180 0.06500
H 	H 	0.46070 0.18530 0.81430 -0.00100
H 	H 	0.48810 0.31330 0.51910 -0.00100
H 	H 	0.47670 0.32170 0.57110 0.06500
H 	H 	0.47090 0.27390 0.62650 0.03700
H 	H 	0.48520 0.21340 0.57500 0.01500
H 	H 	0.49030 0.08350 0.71770 0.01100
H 	H 	0.50310 0.12710 0.61070 0.03800
H 	H 	0.51860 0.06900 0.61140 0.06500
H 	H 	0.52160 0.01920 0.66500 0.00300
H 	H 	0.42820 0.05860 0.73960 0.00000
H 	H 	0.37790 0.06610 0.73190 0.06800
H 	H 	0.37490 0.01750 0.72810 0.03600
H 	H 	0.47080 0.95600 0.74580 0.01100
H 	H 	0.08700 0.70980 0.22620 0.01300
H 	H 	0.14780 0.76940 0.13820 0.03800
H 	H 	0.09480 0.82180 0.14260 0.06500
H 	H 	0.03970 0.81430 0.18530 -0.00100
H 	H 	0.17950 0.51910 0.31330 -0.00100
H 	H 	0.13050 0.57110 0.32170 0.06500
H 	H 	0.12870 0.62650 0.27390 0.03700
H 	H 	0.22640 0.57500 0.21340 0.01500
H 	H 	0.20850 0.71770 0.08350 0.01100
H 	H 	0.25910 0.61070 0.12710 0.03800
H 	H 	0.30100 0.61140 0.06900 0.06500
H 	H 	0.29420 0.66500 0.01920 0.00300
H 	H 	0.27360 0.73960 0.05860 0.00000
H 	H 	0.32410 0.73190 0.06610 0.06800
H 	H 	0.37950 0.72810 0.01750 0.03600
H 	H 	0.32740 0.74580 0.95600 0.01100
H 	H 	0.72620 0.97700 0.58700 0.01300
H 	H 	0.63820 0.94460 0.64780 0.03800
H 	H 	0.64260 0.94080 0.59480 0.06500
H 	H 	0.68530 0.96070 0.53970 -0.00100
H 	H 	0.81330 0.98810 0.67950 -0.00100
H 	H 	0.82170 0.97670 0.63050 0.06500
H 	H 	0.77390 0.97090 0.62870 0.03700
H 	H 	0.71340 0.98520 0.72640 0.01500
H 	H 	0.58350 0.99030 0.70850 0.01100
H 	H 	0.62710 0.00310 0.75910 0.03800
H 	H 	0.56900 0.01860 0.80100 0.06500
H 	H 	0.51920 0.02160 0.79420 0.00300
H 	H 	0.55860 0.92820 0.77360 0.00000
H 	H 	0.56610 0.87790 0.82410 0.06800
H 	H 	0.51750 0.87490 0.87950 0.03600
H 	H 	0.45600 0.97080 0.82740 0.01100
H 	H 	0.47700 0.58700 0.22620 0.01300
H 	H 	0.44460 0.64780 0.13820 0.03800
H 	H 	0.44080 0.59480 0.14260 0.06500
H 	H 	0.46070 0.53970 0.18530 -0.00100
H 	H 	0.48810 0.67950 0.31330 -0.00100
H 	H 	0.47670 0.63050 0.32170 0.06500
H 	H 	0.47090 0.62870 0.27390 0.03700
H 	H 	0.48520 0.72640 0.21340 0.01500
H 	H 	0.49030 0.70850 0.08350 0.01100
H 	H 	0.50310 0.75910 0.12710 0.03800
H 	H 	0.51860 0.80100 0.06900 0.06500
H 	H 	0.52160 0.79420 0.01920 0.00300
H 	H 	0.42820 0.77360 0.05860 0.00000
H 	H 	0.37790 0.82410 0.06610 0.06800
H 	H 	0.37490 0.87950 0.01750 0.03600
H 	H 	0.47080 0.82740 0.95600 0.01100
H 	H 	0.20980 0.22620 0.58700 0.01300
H 	H 	0.26940 0.13820 0.64780 0.03800
H 	H 	0.32180 0.14260 0.59480 0.06500
H 	H 	0.31430 0.18530 0.53970 -0.00100
H 	H 	0.01910 0.31330 0.67950 -0.00100
H 	H 	0.07110 0.32170 0.63050 0.06500
H 	H 	0.12650 0.27390 0.62870 0.03700
H 	H 	0.07500 0.21340 0.72640 0.01500
H 	H 	0.21770 0.08350 0.70850 0.01100
H 	H 	0.11070 0.12710 0.75910 0.03800
H 	H 	0.11140 0.06900 0.80100 0.06500
H 	H 	0.16500 0.01920 0.79420 0.00300
H 	H 	0.23960 0.05860 0.77360 0.00000
H 	H 	0.23190 0.06610 0.82410 0.06800
H 	H 	0.22810 0.01750 0.87950 0.03600
H 	H 	0.24580 0.95600 0.82740 0.01100
H 	H 	0.72620 0.70980 0.97700 0.01300
H 	H 	0.63820 0.76940 0.94460 0.03800
H 	H 	0.64260 0.82180 0.94080 0.06500
H 	H 	0.68530 0.81430 0.96070 -0.00100
H 	H 	0.81330 0.51910 0.98810 -0.00100
H 	H 	0.82170 0.57110 0.97670 0.06500
H 	H 	0.77390 0.62650 0.97090 0.03700
H 	H 	0.71340 0.57500 0.98520 0.01500
H 	H 	0.58350 0.71770 0.99030 0.01100
H 	H 	0.62710 0.61070 0.00310 0.03800
H 	H 	0.56900 0.61140 0.01860 0.06500
H 	H 	0.51920 0.66500 0.02160 0.00300
H 	H 	0.55860 0.73960 0.92820 0.00000
H 	H 	0.56610 0.73190 0.87790 0.06800
H 	H 	0.51750 0.72810 0.87490 0.03600
H 	H 	0.45600 0.74580 0.97080 0.01100
H 	H 	0.08700 0.97700 0.70980 0.01300
H 	H 	0.14780 0.94460 0.76940 0.03800
H 	H 	0.09480 0.94080 0.82180 0.06500
H 	H 	0.03970 0.96070 0.81430 -0.00100
H 	H 	0.17950 0.98810 0.51910 -0.00100
H 	H 	0.13050 0.97670 0.57110 0.06500
H 	H 	0.12870 0.97090 0.62650 0.03700
H 	H 	0.22640 0.98520 0.57500 0.01500
H 	H 	0.20850 0.99030 0.71770 0.01100
H 	H 	0.25910 0.00310 0.61070 0.03800
H 	H 	0.30100 0.01860 0.61140 0.06500
H 	H 	0.29420 0.02160 0.66500 0.00300
H 	H 	0.27360 0.92820 0.73960 0.00000
H 	H 	0.32410 0.87790 0.73190 0.06800
H 	H 	0.37950 0.87490 0.72810 0.03600
H 	H 	0.32740 0.97080 0.74580 0.01100
C 	C 	0.73027 0.83609 0.95973 0.09700
C 	C 	0.79800 0.44528 0.20432 0.10800
C 	C 	0.58837 0.70817 0.23259 0.03700
C 	C 	0.62161 0.68233 0.23405 -0.04800
C 	C 	0.62506 0.65652 0.26750 0.00600
C 	C 	0.59382 0.65870 0.29812 -0.09800
C 	C 	0.56109 0.68495 0.29331 0.06200
C 	C 	0.67918 0.79388 0.04156 0.05700
C 	C 	0.64981 0.79909 0.07241 -0.09900
C 	C 	0.64890 0.77106 0.10496 0.00900
C 	C 	0.67772 0.73850 0.10608 -0.04900
C 	C 	0.70651 0.73549 0.07405 0.03600
C 	C 	0.67746 0.70662 0.13978 0.13500
C 	C 	0.70337 0.64681 0.16715 0.13500
C 	C 	0.65217 0.68055 0.19989 0.13200
C 	C 	0.72794 0.58050 0.19592 0.04400
C 	C 	0.73038 0.61132 0.16518 -0.05300
C 	C 	0.75743 0.60689 0.13267 0.00900
C 	C 	0.78158 0.57266 0.13300 -0.09400
C 	C 	0.77769 0.54297 0.16527 0.05300
C 	C 	0.79560 0.53832 0.23938 0.06100
C 	C 	0.82552 0.54328 0.23430 -0.10300
C 	C 	0.85794 0.51458 0.23254 0.01200
C 	C 	0.85841 0.48149 0.23737 -0.05500
C 	C 	0.82678 0.47872 0.24280 0.04400
C 	C 	0.89190 0.44962 0.23670 0.13700
C 	C 	0.33609 0.23027 0.47391 0.09700
C 	C 	0.94528 0.29800 0.55240 0.10800
C 	C 	0.20817 0.08837 0.47087 0.03700
C 	C 	0.18233 0.12161 0.46201 -0.04800
C 	C 	0.15652 0.12506 0.45092 0.00600
C 	C 	0.15870 0.09382 0.44936 -0.09800
C 	C 	0.18495 0.06109 0.46065 0.06200
C 	C 	0.29388 0.17918 0.48538 0.05700
C 	C 	0.29909 0.14981 0.47869 -0.09900
C 	C 	0.27106 0.14890 0.47508 0.00900
C 	C 	0.23850 0.17772 0.47770 -0.04900
C 	C 	0.23549 0.20651 0.48395 0.03600
C 	C 	0.20662 0.17746 0.47614 0.13500
C 	C 	0.14681 0.20337 0.48267 0.13500
C 	C 	0.18055 0.15217 0.46739 0.13200
C 	C 	0.08050 0.22794 0.49564 0.04400
C 	C 	0.11132 0.23038 0.49312 -0.05300
C 	C 	0.10689 0.25743 0.50301 0.00900
C 	C 	0.07266 0.28158 0.51276 -0.09400
C 	C 	0.04297 0.27769 0.51407 0.05300
C 	C 	0.03832 0.29560 0.42670 0.06100
C 	C 	0.04328 0.32552 0.39690 -0.10300
C 	C 	0.01458 0.35794 0.39494 0.01200
C 	C 	0.98149 0.35841 0.42273 -0.05500
C 	C 	0.97872 0.32678 0.45170 0.04400
C 	C 	0.94962 0.39190 0.42178 0.13700
C 	C 	0.45973 0.47391 0.23027 0.09700
C 	C 	0.70432 0.55240 0.29800 0.10800
C 	C 	0.73259 0.47087 0.08837 0.03700
C 	C 	0.73405 0.46201 0.12161 -0.04800
C 	C 	0.76750 0.45092 0.12506 0.00600
C 	C 	0.79812 0.44936 0.09382 -0.09800
C 	C 	0.79331 0.46065 0.06109 0.06200
C 	C 	0.54156 0.48538 0.17918 0.05700
C 	C 	0.57241 0.47869 0.14981 -0.09900
C 	C 	0.60496 0.47508 0.14890 0.00900
C 	C 	0.60608 0.47770 0.17772 -0.04900
C 	C 	0.57405 0.48395 0.20651 0.03600
C 	C 	0.63978 0.47614 0.17746 0.13500
C 	C 	0.66715 0.48267 0.20337 0.13500
C 	C 	0.69989 0.46739 0.15217 0.13200
C 	C 	0.69592 0.49564 0.22794 0.04400
C 	C 	0.66518 0.49312 0.23038 -0.05300
C 	C 	0.63267 0.50301 0.25743 0.00900
C 	C 	0.63300 0.51276 0.28158 -0.09400
C 	C 	0.66527 0.51407 0.27769 0.05300
C 	C 	0.73938 0.42670 0.29560 0.06100
C 	C 	0.73430 0.39690 0.32552 -0.10300
C 	C 	0.73254 0.39494 0.35794 0.01200
C 	C 	0.73737 0.42273 0.35841 -0.05500
C 	C 	0.74280 0.45170 0.32678 0.04400
C 	C 	0.73670 0.42178 0.39190 0.13700
C 	C 	0.97391 0.95973 0.83609 0.09700
C 	C 	0.05240 0.20432 0.44528 0.10800
C 	C 	0.97087 0.23259 0.70817 0.03700
C 	C 	0.96201 0.23405 0.68233 -0.04800
C 	C 	0.95092 0.26750 0.65652 0.00600
C 	C 	0.94936 0.29812 0.65870 -0.09800
C 	C 	0.96065 0.29331 0.68495 0.06200
C 	C 	0.98538 0.04156 0.79388 0.05700
C 	C 	0.97869 0.07241 0.79909 -0.09800
C 	C 	0.97508 0.10496 0.77106 0.00900
C 	C 	0.97770 0.10608 0.73850 -0.04900
C 	C 	0.98395 0.07405 0.73549 0.03600
C 	C 	0.97614 0.13978 0.70662 0.13500
C 	C 	0.98267 0.16715 0.64681 0.13500
C 	C 	0.96739 0.19989 0.68055 0.13200
C 	C 	0.99564 0.19592 0.58050 0.04400
C 	C 	0.99312 0.16518 0.61132 -0.05300
C 	C 	0.00301 0.13267 0.60689 0.00900
C 	C 	0.01276 0.13300 0.57266 -0.09400
C 	C 	0.01407 0.16527 0.54297 0.05300
C 	C 	0.92670 0.23938 0.53832 0.06100
C 	C 	0.89690 0.23430 0.54328 -0.10300
C 	C 	0.89494 0.23254 0.51458 0.01200
C 	C 	0.92273 0.23737 0.48149 -0.05500
C 	C 	0.95170 0.24280 0.47872 0.04400
C 	C 	0.92178 0.23670 0.44962 0.13700
C 	C 	0.73027 0.95973 0.47391 0.09700
C 	C 	0.79800 0.20432 0.55240 0.10800
C 	C 	0.58837 0.23259 0.47087 0.03700
C 	C 	0.62161 0.23405 0.46201 -0.04800
C 	C 	0.62506 0.26750 0.45092 0.00600
C 	C 	0.59382 0.29812 0.44936 -0.09800
C 	C 	0.56109 0.29331 0.46065 0.06200
C 	C 	0.67918 0.04156 0.48538 0.05700
C 	C 	0.64981 0.07241 0.47869 -0.09800
C 	C 	0.64890 0.10496 0.47508 0.00900
C 	C 	0.67772 0.10608 0.47770 -0.04900
C 	C 	0.70651 0.07405 0.48395 0.03600
C 	C 	0.67746 0.13978 0.47614 0.13500
C 	C 	0.70337 0.16715 0.48267 0.13500
C 	C 	0.65217 0.19989 0.46739 0.13200
C 	C 	0.72794 0.19592 0.49564 0.04400
C 	C 	0.73038 0.16518 0.49312 -0.05300
C 	C 	0.75743 0.13267 0.50301 0.00900
C 	C 	0.78158 0.13300 0.51276 -0.09400
C 	C 	0.77769 0.16527 0.51407 0.05300
C 	C 	0.79560 0.23938 0.42670 0.06100
C 	C 	0.82552 0.23430 0.39690 -0.10300
C 	C 	0.85794 0.23254 0.39494 0.01200
C 	C 	0.85841 0.23737 0.42273 -0.05500
C 	C 	0.82678 0.24280 0.45170 0.04400
C 	C 	0.89190 0.23670 0.42178 0.13700
C 	C 	0.33609 0.47391 0.95973 0.09700
C 	C 	0.94528 0.55240 0.20432 0.10800
C 	C 	0.20817 0.47087 0.23259 0.03700
C 	C 	0.18233 0.46201 0.23405 -0.04800
C 	C 	0.15652 0.45092 0.26750 0.00600
C 	C 	0.15870 0.44936 0.29812 -0.09800
C 	C 	0.18495 0.46065 0.29331 0.06200
C 	C 	0.29388 0.48538 0.04156 0.05700
C 	C 	0.29909 0.47869 0.07241 -0.09800
C 	C 	0.27106 0.47508 0.10496 0.00900
C 	C 	0.23850 0.47770 0.10608 -0.04900
C 	C 	0.23549 0.48395 0.07405 0.03600
C 	C 	0.20662 0.47614 0.13978 0.13500
C 	C 	0.14681 0.48267 0.16715 0.13500
C 	C 	0.18055 0.46739 0.19989 0.13200
C 	C 	0.08050 0.49564 0.19592 0.04400
C 	C 	0.11132 0.49312 0.16518 -0.05300
C 	C 	0.10689 0.50301 0.13267 0.00900
C 	C 	0.07266 0.51276 0.13300 -0.09400
C 	C 	0.04297 0.51407 0.16527 0.05300
C 	C 	0.03832 0.42670 0.23938 0.06100
C 	C 	0.04328 0.39690 0.23430 -0.10300
C 	C 	0.01458 0.39494 0.23254 0.01200
C 	C 	0.98149 0.42273 0.23737 -0.05500
C 	C 	0.97872 0.45170 0.24280 0.04400
C 	C 	0.94962 0.42178 0.23670 0.13700
C 	C 	0.45973 0.23027 0.83609 0.09700
C 	C 	0.70432 0.29800 0.44528 0.10800
C 	C 	0.73259 0.08837 0.70817 0.03700
C 	C 	0.73405 0.12161 0.68233 -0.04800
C 	C 	0.76750 0.12506 0.65652 0.00600
C 	C 	0.79812 0.09382 0.65870 -0.09800
C 	C 	0.79331 0.06109 0.68495 0.06200
C 	C 	0.54156 0.17918 0.79388 0.05700
C 	C 	0.57241 0.14981 0.79909 -0.09900
C 	C 	0.60496 0.14890 0.77106 0.00900
C 	C 	0.60608 0.17772 0.73850 -0.04900
C 	C 	0.57405 0.20651 0.73549 0.03600
C 	C 	0.63978 0.17746 0.70662 0.13500
C 	C 	0.66715 0.20337 0.64681 0.13500
C 	C 	0.69989 0.15217 0.68055 0.13200
C 	C 	0.69592 0.22794 0.58050 0.04400
C 	C 	0.66518 0.23038 0.61132 -0.05300
C 	C 	0.63267 0.25743 0.60689 0.00900
C 	C 	0.63300 0.28158 0.57266 -0.09400
C 	C 	0.66527 0.27769 0.54297 0.05300
C 	C 	0.73938 0.29560 0.53832 0.06100
C 	C 	0.73430 0.32552 0.54328 -0.10300
C 	C 	0.73254 0.35794 0.51458 0.01200
C 	C 	0.73737 0.35841 0.48149 -0.05500
C 	C 	0.74280 0.32678 0.47872 0.04400
C 	C 	0.73670 0.39190 0.44962 0.13700
C 	C 	0.97391 0.83609 0.23027 0.09700
C 	C 	0.05240 0.44528 0.29800 0.10800
C 	C 	0.97087 0.70817 0.08837 0.03700
C 	C 	0.96201 0.68233 0.12161 -0.04800
C 	C 	0.95092 0.65652 0.12506 0.00600
C 	C 	0.94936 0.65870 0.09382 -0.09800
C 	C 	0.96065 0.68495 0.06109 0.06200
C 	C 	0.98538 0.79388 0.17918 0.05700
C 	C 	0.97869 0.79909 0.14981 -0.09800
C 	C 	0.97508 0.77106 0.14890 0.00900
C 	C 	0.97770 0.73850 0.17772 -0.04900
C 	C 	0.98395 0.73549 0.20651 0.03600
C 	C 	0.97614 0.70662 0.17746 0.13500
C 	C 	0.98267 0.64681 0.20337 0.13500
C 	C 	0.96739 0.68055 0.15217 0.13200
C 	C 	0.99564 0.58050 0.22794 0.04400
C 	C 	0.99312 0.61132 0.23038 -0.05300
C 	C 	0.00301 0.60689 0.25743 0.00900
C 	C 	0.01276 0.57266 0.28158 -0.09400
C 	C 	0.01407 0.54297 0.27769 0.05300
C 	C 	0.92670 0.53832 0.29560 0.06100
C 	C 	0.89690 0.54328 0.32552 -0.10300
C 	C 	0.89494 0.51458 0.35794 0.01200
C 	C 	0.92273 0.48149 0.35841 -0.05500
C 	C 	0.95170 0.47872 0.32678 0.04400
C 	C 	0.92178 0.44962 0.39190 0.13700
C 	C 	0.73027 0.47391 0.83609 0.09700
C 	C 	0.79800 0.55240 0.44528 0.10800
C 	C 	0.58837 0.47087 0.70817 0.03700
C 	C 	0.62161 0.46201 0.68233 -0.04800
C 	C 	0.62506 0.45092 0.65652 0.00600
C 	C 	0.59382 0.44936 0.65870 -0.09800
C 	C 	0.56109 0.46065 0.68495 0.06200
C 	C 	0.67918 0.48538 0.79388 0.05700
C 	C 	0.64981 0.47869 0.79909 -0.09900
C 	C 	0.64890 0.47508 0.77106 0.00900
C 	C 	0.67772 0.47770 0.73850 -0.04900
C 	C 	0.70651 0.48395 0.73549 0.03600
C 	C 	0.67746 0.47614 0.70662 0.13500
C 	C 	0.70337 0.48267 0.64681 0.13500
C 	C 	0.65217 0.46739 0.68055 0.13200
C 	C 	0.72794 0.49564 0.58050 0.04400
C 	C 	0.73038 0.49312 0.61132 -0.05300
C 	C 	0.75743 0.50301 0.60689 0.00900
C 	C 	0.78158 0.51276 0.57266 -0.09400
C 	C 	0.77769 0.51407 0.54297 0.05300
C 	C 	0.79560 0.42670 0.53832 0.06100
C 	C 	0.82552 0.39690 0.54328 -0.10300
C 	C 	0.85794 0.39494 0.51458 0.01200
C 	C 	0.85841 0.42273 0.48149 -0.05500
C 	C 	0.82678 0.45170 0.47872 0.04400
C 	C 	0.89190 0.42178 0.44962 0.13700
C 	C 	0.33609 0.95973 0.23027 0.09700
C 	C 	0.94528 0.20432 0.29800 0.10800
C 	C 	0.20817 0.23259 0.08837 0.03700
C 	C 	0.18233 0.23405 0.12161 -0.04800
C 	C 	0.15652 0.26750 0.12506 0.00600
C 	C 	0.15870 0.29812 0.09382 -0.09800
C 	C 	0.18495 0.29331 0.06109 0.06200
C 	C 	0.29388 0.04156 0.17918 0.05700
C 	C 	0.29909 0.07241 0.14981 -0.09800
C 	C 	0.27106 0.10496 0.14890 0.00900
C 	C 	0.23850 0.10608 0.17772 -0.04900
C 	C 	0.23549 0.07405 0.20651 0.03600
C 	C 	0.20662 0.13978 0.17746 0.13500
C 	C 	0.14681 0.16715 0.20337 0.13500
C 	C 	0.18055 0.19989 0.15217 0.13200
C 	C 	0.08050 0.19592 0.22794 0.04400
C 	C 	0.11132 0.16518 0.23038 -0.05300
C 	C 	0.10689 0.13267 0.25743 0.00900
C 	C 	0.07266 0.13300 0.28158 -0.09400
C 	C 	0.04297 0.16527 0.27769 0.05300
C 	C 	0.03832 0.23938 0.29560 0.06100
C 	C 	0.04328 0.23430 0.32552 -0.10300
C 	C 	0.01458 0.23254 0.35794 0.01200
C 	C 	0.98149 0.23737 0.35841 -0.05500
C 	C 	0.97872 0.24280 0.32678 0.04400
C 	C 	0.94962 0.23670 0.39190 0.13700
C 	C 	0.45973 0.83609 0.47391 0.09700
C 	C 	0.70432 0.44528 0.55240 0.10800
C 	C 	0.73259 0.70817 0.47087 0.03700
C 	C 	0.73405 0.68233 0.46201 -0.04800
C 	C 	0.76750 0.65652 0.45092 0.00600
C 	C 	0.79812 0.65870 0.44936 -0.09800
C 	C 	0.79331 0.68495 0.46065 0.06200
C 	C 	0.54156 0.79388 0.48538 0.05700
C 	C 	0.57241 0.79909 0.47869 -0.09900
C 	C 	0.60496 0.77106 0.47508 0.00900
C 	C 	0.60608 0.73850 0.47770 -0.04900
C 	C 	0.57405 0.73549 0.48395 0.03600
C 	C 	0.63978 0.70662 0.47614 0.13500
C 	C 	0.66715 0.64681 0.48267 0.13500
C 	C 	0.69989 0.68055 0.46739 0.13200
C 	C 	0.69592 0.58050 0.49564 0.04400
C 	C 	0.66518 0.61132 0.49312 -0.05300
C 	C 	0.63267 0.60689 0.50301 0.00900
C 	C 	0.63300 0.57266 0.51276 -0.09400
C 	C 	0.66527 0.54297 0.51407 0.05300
C 	C 	0.73938 0.53832 0.42670 0.06100
C 	C 	0.73430 0.54328 0.39690 -0.10300
C 	C 	0.73254 0.51458 0.39494 0.01200
C 	C 	0.73737 0.48149 0.42273 -0.05500
C 	C 	0.74280 0.47872 0.45170 0.04400
C 	C 	0.73670 0.44962 0.42178 0.13700
C 	C 	0.97391 0.23027 0.95973 0.09700
C 	C 	0.05240 0.29800 0.20432 0.10800
C 	C 	0.97087 0.08837 0.23259 0.03700
C 	C 	0.96201 0.12161 0.23405 -0.04800
C 	C 	0.95092 0.12506 0.26750 0.00600
C 	C 	0.94936 0.09382 0.29812 -0.09800
C 	C 	0.96065 0.06109 0.29331 0.06200
C 	C 	0.98538 0.17918 0.04156 0.05700
C 	C 	0.97869 0.14981 0.07241 -0.09800
C 	C 	0.97508 0.14890 0.10496 0.00900
C 	C 	0.97770 0.17772 0.10608 -0.04900
C 	C 	0.98395 0.20651 0.07405 0.03600
C 	C 	0.97614 0.17746 0.13978 0.13500
C 	C 	0.98267 0.20337 0.16715 0.13500
C 	C 	0.96739 0.15217 0.19989 0.13200
C 	C 	0.99564 0.22794 0.19592 0.04400
C 	C 	0.99312 0.23038 0.16518 -0.05300
C 	C 	0.00301 0.25743 0.13267 0.00900
C 	C 	0.01276 0.28158 0.13300 -0.09400
C 	C 	0.01407 0.27769 0.16527 0.05300
C 	C 	0.92670 0.29560 0.23938 0.06100
C 	C 	0.89690 0.32552 0.23430 -0.10300
C 	C 	0.89494 0.35794 0.23254 0.01200
C 	C 	0.92273 0.35841 0.23737 -0.05500
C 	C 	0.95170 0.32678 0.24280 0.04400
C 	C 	0.92178 0.39190 0.23670 0.13700
C 	C 	0.16391 0.26973 0.54027 0.09700
C 	C 	0.55472 0.20200 0.29568 0.10800
C 	C 	0.29183 0.41163 0.26741 0.03700
C 	C 	0.31767 0.37839 0.26595 -0.04800
C 	C 	0.34348 0.37494 0.23250 0.00600
C 	C 	0.34130 0.40618 0.20188 -0.09800
C 	C 	0.31505 0.43891 0.20669 0.06200
C 	C 	0.20612 0.32082 0.45844 0.05700
C 	C 	0.20091 0.35019 0.42759 -0.09900
C 	C 	0.22894 0.35110 0.39504 0.00900
C 	C 	0.26150 0.32228 0.39392 -0.04900
C 	C 	0.26451 0.29349 0.42595 0.03600
C 	C 	0.29338 0.32254 0.36022 0.13500
C 	C 	0.35319 0.29663 0.33285 0.13500
C 	C 	0.31945 0.34783 0.30011 0.13200
C 	C 	0.41950 0.27206 0.30408 0.04400
C 	C 	0.38868 0.26962 0.33482 -0.05300
C 	C 	0.39311 0.24257 0.36733 0.00900
C 	C 	0.42734 0.21842 0.36700 -0.09400
C 	C 	0.45703 0.22231 0.33473 0.05300
C 	C 	0.46168 0.20440 0.26062 0.06100
C 	C 	0.45672 0.17448 0.26570 -0.10300
C 	C 	0.48542 0.14206 0.26746 0.01200
C 	C 	0.51851 0.14159 0.26263 -0.05500
C 	C 	0.52128 0.17322 0.25720 0.04400
C 	C 	0.55038 0.10810 0.26330 0.13700
C 	C 	0.76973 0.66391 0.02609 0.09700
C 	C 	0.70200 0.05472 0.94760 0.10800
C 	C 	0.91163 0.79183 0.02913 0.03700
C 	C 	0.87839 0.81767 0.03799 -0.04800
C 	C 	0.87494 0.84348 0.04908 0.00600
C 	C 	0.90618 0.84130 0.05064 -0.09800
C 	C 	0.93891 0.81505 0.03935 0.06200
C 	C 	0.82082 0.70612 0.01462 0.05700
C 	C 	0.85019 0.70091 0.02131 -0.09900
C 	C 	0.85110 0.72894 0.02492 0.00900
C 	C 	0.82228 0.76150 0.02230 -0.04900
C 	C 	0.79349 0.76451 0.01605 0.03600
C 	C 	0.82254 0.79338 0.02386 0.13500
C 	C 	0.79663 0.85319 0.01733 0.13500
C 	C 	0.84783 0.81945 0.03261 0.13200
C 	C 	0.77206 0.91950 0.00436 0.04400
C 	C 	0.76962 0.88868 0.00688 -0.05300
C 	C 	0.74257 0.89311 0.99699 0.00900
C 	C 	0.71842 0.92734 0.98724 -0.09400
C 	C 	0.72231 0.95703 0.98593 0.05300
C 	C 	0.70440 0.96168 0.07330 0.06100
C 	C 	0.67448 0.95672 0.10310 -0.10300
C 	C 	0.64206 0.98542 0.10506 0.01200
C 	C 	0.64159 0.01851 0.07727 -0.05500
C 	C 	0.67322 0.02128 0.04830 0.04400
C 	C 	0.60810 0.05038 0.07822 0.13700
C 	C 	0.52609 0.54027 0.26973 0.09700
C 	C 	0.44760 0.29568 0.20200 0.10800
C 	C 	0.52913 0.26741 0.41163 0.03700
C 	C 	0.53799 0.26595 0.37839 -0.04800
C 	C 	0.54908 0.23250 0.37494 0.00600
C 	C 	0.55064 0.20188 0.40618 -0.09800
C 	C 	0.53935 0.20669 0.43891 0.06200
C 	C 	0.51462 0.45844 0.32082 0.05700
C 	C 	0.52131 0.42759 0.35019 -0.09900
C 	C 	0.52492 0.39504 0.35110 0.00900
C 	C 	0.52230 0.39392 0.32228 -0.04900
C 	C 	0.51605 0.42595 0.29349 0.03600
C 	C 	0.52386 0.36022 0.32254 0.13500
C 	C 	0.51733 0.33285 0.29663 0.13500
C 	C 	0.53261 0.30011 0.34783 0.13200
C 	C 	0.50436 0.30408 0.27206 0.04400
C 	C 	0.50688 0.33482 0.26962 -0.05300
C 	C 	0.49699 0.36733 0.24257 0.00900
C 	C 	0.48724 0.36700 0.21842 -0.09400
C 	C 	0.48593 0.33473 0.22231 0.05300
C 	C 	0.57330 0.26062 0.20440 0.06100
C 	C 	0.60310 0.26570 0.17448 -0.10300
C 	C 	0.60506 0.26746 0.14206 0.01200
C 	C 	0.57727 0.26263 0.14159 -0.05500
C 	C 	0.54830 0.25720 0.17322 0.04400
C 	C 	0.57822 0.26330 0.10810 0.13700
C 	C 	0.04027 0.02609 0.66391 0.09700
C 	C 	0.79568 0.94760 0.05472 0.10800
C 	C 	0.76741 0.02913 0.79183 0.03700
C 	C 	0.76595 0.03799 0.81767 -0.04800
C 	C 	0.73250 0.04908 0.84348 0.00600
C 	C 	0.70188 0.05064 0.84130 -0.09800
C 	C 	0.70669 0.03935 0.81505 0.06200
C 	C 	0.95844 0.01462 0.70612 0.05700
C 	C 	0.92759 0.02131 0.70091 -0.09800
C 	C 	0.89504 0.02492 0.72894 0.00900
C 	C 	0.89392 0.02230 0.76150 -0.04900
C 	C 	0.92595 0.01605 0.76451 0.03600
C 	C 	0.86022 0.02386 0.79338 0.13500
C 	C 	0.83285 0.01733 0.85319 0.13500
C 	C 	0.80011 0.03261 0.81945 0.13200
C 	C 	0.80408 0.00436 0.91950 0.04400
C 	C 	0.83482 0.00688 0.88868 -0.05300
C 	C 	0.86733 0.99699 0.89311 0.00900
C 	C 	0.86700 0.98724 0.92734 -0.09400
C 	C 	0.83473 0.98593 0.95703 0.05300
C 	C 	0.76062 0.07330 0.96168 0.06100
C 	C 	0.76570 0.10310 0.95672 -0.10300
C 	C 	0.76746 0.10506 0.98542 0.01200
C 	C 	0.76263 0.07727 0.01851 -0.05500
C 	C 	0.75720 0.04830 0.02128 0.04400
C 	C 	0.76330 0.07822 0.05038 0.13700
C 	C 	0.04027 0.26973 0.02609 0.09700
C 	C 	0.79568 0.20200 0.94760 0.10800
C 	C 	0.76741 0.41163 0.02913 0.03700
C 	C 	0.76595 0.37839 0.03799 -0.04800
C 	C 	0.73250 0.37494 0.04908 0.00600
C 	C 	0.70188 0.40618 0.05064 -0.09800
C 	C 	0.70669 0.43891 0.03935 0.06200
C 	C 	0.95844 0.32082 0.01462 0.05700
C 	C 	0.92759 0.35019 0.02131 -0.09800
C 	C 	0.89504 0.35110 0.02492 0.00900
C 	C 	0.89392 0.32228 0.02230 -0.04900
C 	C 	0.92595 0.29349 0.01605 0.03600
C 	C 	0.86022 0.32254 0.02386 0.13500
C 	C 	0.83285 0.29663 0.01733 0.13500
C 	C 	0.80011 0.34783 0.03261 0.13200
C 	C 	0.80408 0.27206 0.00436 0.04400
C 	C 	0.83482 0.26962 0.00688 -0.05300
C 	C 	0.86733 0.24257 0.99699 0.00900
C 	C 	0.86700 0.21842 0.98724 -0.09400
C 	C 	0.83473 0.22231 0.98593 0.05300
C 	C 	0.76062 0.20440 0.07330 0.06100
C 	C 	0.76570 0.17448 0.10310 -0.10300
C 	C 	0.76746 0.14206 0.10506 0.01200
C 	C 	0.76263 0.14159 0.07727 -0.05500
C 	C 	0.75720 0.17322 0.04830 0.04400
C 	C 	0.76330 0.10810 0.07822 0.13700
C 	C 	0.52609 0.66391 0.54027 0.09700
C 	C 	0.44760 0.05472 0.29568 0.10800
C 	C 	0.52913 0.79183 0.26741 0.03700
C 	C 	0.53799 0.81767 0.26595 -0.04800
C 	C 	0.54908 0.84348 0.23250 0.00600
C 	C 	0.55064 0.84130 0.20188 -0.09800
C 	C 	0.53935 0.81505 0.20669 0.06200
C 	C 	0.51462 0.70612 0.45844 0.05700
C 	C 	0.52131 0.70091 0.42759 -0.09900
C 	C 	0.52492 0.72894 0.39504 0.00900
C 	C 	0.52230 0.76150 0.39392 -0.04900
C 	C 	0.51605 0.76451 0.42595 0.03600
C 	C 	0.52386 0.79338 0.36022 0.13500
C 	C 	0.51733 0.85319 0.33285 0.13500
C 	C 	0.53261 0.81945 0.30011 0.13200
C 	C 	0.50436 0.91950 0.30408 0.04400
C 	C 	0.50688 0.88868 0.33482 -0.05300
C 	C 	0.49699 0.89311 0.36733 0.00900
C 	C 	0.48724 0.92734 0.36700 -0.09400
C 	C 	0.48593 0.95703 0.33473 0.05300
C 	C 	0.57330 0.96168 0.26062 0.06100
C 	C 	0.60310 0.95672 0.26570 -0.10300
C 	C 	0.60506 0.98542 0.26746 0.01200
C 	C 	0.57727 0.01851 0.26263 -0.05500
C 	C 	0.54830 0.02128 0.25720 0.04400
C 	C 	0.57822 0.05038 0.26330 0.13700
C 	C 	0.76973 0.54027 0.66391 0.09700
C 	C 	0.70200 0.29568 0.05472 0.10800
C 	C 	0.91163 0.26741 0.79183 0.03700
C 	C 	0.87839 0.26595 0.81767 -0.04800
C 	C 	0.87494 0.23250 0.84348 0.00600
C 	C 	0.90618 0.20188 0.84130 -0.09800
C 	C 	0.93891 0.20669 0.81505 0.06200
C 	C 	0.82082 0.45844 0.70612 0.05700
C 	C 	0.85019 0.42759 0.70091 -0.09900
C 	C 	0.85110 0.39504 0.72894 0.00900
C 	C 	0.82228 0.39392 0.76150 -0.04900
C 	C 	0.79349 0.42595 0.76451 0.03600
C 	C 	0.82254 0.36022 0.79338 0.13500
C 	C 	0.79663 0.33285 0.85319 0.13500
C 	C 	0.84783 0.30011 0.81945 0.13200
C 	C 	0.77206 0.30408 0.91950 0.04400
C 	C 	0.76962 0.33482 0.88868 -0.05300
C 	C 	0.74257 0.36733 0.89311 0.00900
C 	C 	0.71842 0.36700 0.92734 -0.09400
C 	C 	0.72231 0.33473 0.95703 0.05300
C 	C 	0.70440 0.26062 0.96168 0.06100
C 	C 	0.67448 0.26570 0.95672 -0.10300
C 	C 	0.64206 0.26746 0.98542 0.01200
C 	C 	0.64159 0.26263 0.01851 -0.05500
C 	C 	0.67322 0.25720 0.02128 0.04400
C 	C 	0.60810 0.26330 0.05038 0.13700
C 	C 	0.16391 0.02609 0.26973 0.09700
C 	C 	0.55472 0.94760 0.20200 0.10800
C 	C 	0.29183 0.02913 0.41163 0.03700
C 	C 	0.31767 0.03799 0.37839 -0.04800
C 	C 	0.34348 0.04908 0.37494 0.00600
C 	C 	0.34130 0.05064 0.40618 -0.09800
C 	C 	0.31505 0.03935 0.43891 0.06200
C 	C 	0.20612 0.01462 0.32082 0.05700
C 	C 	0.20091 0.02131 0.35019 -0.09800
C 	C 	0.22894 0.02492 0.35110 0.00900
C 	C 	0.26150 0.02230 0.32228 -0.04900
C 	C 	0.26451 0.01605 0.29349 0.03600
C 	C 	0.29338 0.02386 0.32254 0.13500
C 	C 	0.35319 0.01733 0.29663 0.13500
C 	C 	0.31945 0.03261 0.34783 0.13200
C 	C 	0.41950 0.00436 0.27206 0.04400
C 	C 	0.38868 0.00688 0.26962 -0.05300
C 	C 	0.39311 0.99699 0.24257 0.00900
C 	C 	0.42734 0.98724 0.21842 -0.09400
C 	C 	0.45703 0.98593 0.22231 0.05300
C 	C 	0.46168 0.07330 0.20440 0.06100
C 	C 	0.45672 0.10310 0.17448 -0.10300
C 	C 	0.48542 0.10506 0.14206 0.01200
C 	C 	0.51851 0.07727 0.14159 -0.05500
C 	C 	0.52128 0.04830 0.17322 0.04400
C 	C 	0.55038 0.07822 0.10810 0.13700
C 	C 	0.52609 0.26973 0.66391 0.09700
C 	C 	0.44760 0.20200 0.05472 0.10800
C 	C 	0.52913 0.41163 0.79183 0.03700
C 	C 	0.53799 0.37839 0.81767 -0.04800
C 	C 	0.54908 0.37494 0.84348 0.00600
C 	C 	0.55064 0.40618 0.84130 -0.09800
C 	C 	0.53935 0.43891 0.81505 0.06200
C 	C 	0.51462 0.32082 0.70612 0.05700
C 	C 	0.52131 0.35019 0.70091 -0.09900
C 	C 	0.52492 0.35110 0.72894 0.00900
C 	C 	0.52230 0.32228 0.76150 -0.04900
C 	C 	0.51605 0.29349 0.76451 0.03600
C 	C 	0.52386 0.32254 0.79338 0.13500
C 	C 	0.51733 0.29663 0.85319 0.13500
C 	C 	0.53261 0.34783 0.81945 0.13200
C 	C 	0.50436 0.27206 0.91950 0.04400
C 	C 	0.50688 0.26962 0.88868 -0.05300
C 	C 	0.49699 0.24257 0.89311 0.00900
C 	C 	0.48724 0.21842 0.92734 -0.09400
C 	C 	0.48593 0.22231 0.95703 0.05300
C 	C 	0.57330 0.20440 0.96168 0.06100
C 	C 	0.60310 0.17448 0.95672 -0.10300
C 	C 	0.60506 0.14206 0.98542 0.01200
C 	C 	0.57727 0.14159 0.01851 -0.05500
C 	C 	0.54830 0.17322 0.02128 0.04400
C 	C 	0.57822 0.10810 0.05038 0.13700
C 	C 	0.04027 0.66391 0.26973 0.09700
C 	C 	0.79568 0.05472 0.20200 0.10800
C 	C 	0.76741 0.79183 0.41163 0.03700
C 	C 	0.76595 0.81767 0.37839 -0.04800
C 	C 	0.73250 0.84348 0.37494 0.00600
C 	C 	0.70188 0.84130 0.40618 -0.09800
C 	C 	0.70669 0.81505 0.43891 0.06200
C 	C 	0.95844 0.70612 0.32082 0.05700
C 	C 	0.92759 0.70091 0.35019 -0.09800
C 	C 	0.89504 0.72894 0.35110 0.00900
C 	C 	0.89392 0.76150 0.32228 -0.04900
C 	C 	0.92595 0.76451 0.29349 0.03600
C 	C 	0.86022 0.79338 0.32254 0.13500
C 	C 	0.83285 0.85319 0.29663 0.13500
C 	C 	0.80011 0.81945 0.34783 0.13200
C 	C 	0.80408 0.91950 0.27206 0.04400
C 	C 	0.83482 0.88868 0.26962 -0.05300
C 	C 	0.86733 0.89311 0.24257 0.00900
C 	C 	0.86700 0.92734 0.21842 -0.09400
C 	C 	0.83473 0.95703 0.22231 0.05300
C 	C 	0.76062 0.96168 0.20440 0.06100
C 	C 	0.76570 0.95672 0.17448 -0.10300
C 	C 	0.76746 0.98542 0.14206 0.01200
C 	C 	0.76263 0.01851 0.14159 -0.05500
C 	C 	0.75720 0.02128 0.17322 0.04400
C 	C 	0.76330 0.05038 0.10810 0.13700
C 	C 	0.16391 0.54027 0.02609 0.09700
C 	C 	0.55472 0.29568 0.94760 0.10800
C 	C 	0.29183 0.26741 0.02913 0.03700
C 	C 	0.31767 0.26595 0.03799 -0.04800
C 	C 	0.34348 0.23250 0.04908 0.00600
C 	C 	0.34130 0.20188 0.05064 -0.09800
C 	C 	0.31505 0.20669 0.03935 0.06200
C 	C 	0.20612 0.45844 0.01462 0.05700
C 	C 	0.20091 0.42759 0.02131 -0.09800
C 	C 	0.22894 0.39504 0.02492 0.00900
C 	C 	0.26150 0.39392 0.02230 -0.04900
C 	C 	0.26451 0.42595 0.01605 0.03600
C 	C 	0.29338 0.36022 0.02386 0.13500
C 	C 	0.35319 0.33285 0.01733 0.13500
C 	C 	0.31945 0.30011 0.03261 0.13200
C 	C 	0.41950 0.30408 0.00436 0.04400
C 	C 	0.38868 0.33482 0.00688 -0.05300
C 	C 	0.39311 0.36733 0.99699 0.00900
C 	C 	0.42734 0.36700 0.98724 -0.09400
C 	C 	0.45703 0.33473 0.98593 0.05300
C 	C 	0.46168 0.26062 0.07330 0.06100
C 	C 	0.45672 0.26570 0.10310 -0.10300
C 	C 	0.48542 0.26746 0.10506 0.01200
C 	C 	0.51851 0.26263 0.07727 -0.05500
C 	C 	0.52128 0.25720 0.04830 0.04400
C 	C 	0.55038 0.26330 0.07822 0.13700
C 	C 	0.76973 0.02609 0.54027 0.09700
C 	C 	0.70200 0.94760 0.29568 0.10800
C 	C 	0.91163 0.02913 0.26741 0.03700
C 	C 	0.87839 0.03799 0.26595 -0.04800
C 	C 	0.87494 0.04908 0.23250 0.00600
C 	C 	0.90618 0.05064 0.20188 -0.09800
C 	C 	0.93891 0.03935 0.20669 0.06200
C 	C 	0.82082 0.01462 0.45844 0.05700
C 	C 	0.85019 0.02131 0.42759 -0.09800
C 	C 	0.85110 0.02492 0.39504 0.00900
C 	C 	0.82228 0.02230 0.39392 -0.04900
C 	C 	0.79349 0.01605 0.42595 0.03600
C 	C 	0.82254 0.02386 0.36022 0.13500
C 	C 	0.79663 0.01733 0.33285 0.13500
C 	C 	0.84783 0.03261 0.30011 0.13200
C 	C 	0.77206 0.00436 0.30408 0.04400
C 	C 	0.76962 0.00688 0.33482 -0.05300
C 	C 	0.74257 0.99699 0.36733 0.00900
C 	C 	0.71842 0.98724 0.36700 -0.09400
C 	C 	0.72231 0.98593 0.33473 0.05300
C 	C 	0.70440 0.07330 0.26062 0.06100
C 	C 	0.67448 0.10310 0.26570 -0.10300
C 	C 	0.64206 0.10506 0.26746 0.01200
C 	C 	0.64159 0.07727 0.26263 -0.05500
C 	C 	0.67322 0.04830 0.25720 0.04400
C 	C 	0.60810 0.07822 0.26330 0.13700
C 	C 	0.26973 0.16391 0.04027 0.09700
C 	C 	0.20200 0.55472 0.79568 0.10800
C 	C 	0.41163 0.29183 0.76741 0.03700
C 	C 	0.37839 0.31767 0.76595 -0.04800
C 	C 	0.37494 0.34348 0.73250 0.00600
C 	C 	0.40618 0.34130 0.70188 -0.09800
C 	C 	0.43891 0.31505 0.70669 0.06200
C 	C 	0.32082 0.20612 0.95844 0.05700
C 	C 	0.35019 0.20091 0.92759 -0.09900
C 	C 	0.35110 0.22894 0.89504 0.00900
C 	C 	0.32228 0.26150 0.89392 -0.04900
C 	C 	0.29349 0.26451 0.92595 0.03600
C 	C 	0.32254 0.29338 0.86022 0.13500
C 	C 	0.29663 0.35319 0.83285 0.13500
C 	C 	0.34783 0.31945 0.80011 0.13200
C 	C 	0.27206 0.41950 0.80408 0.04400
C 	C 	0.26962 0.38868 0.83482 -0.05300
C 	C 	0.24257 0.39311 0.86733 0.00900
C 	C 	0.21842 0.42734 0.86700 -0.09400
C 	C 	0.22231 0.45703 0.83473 0.05300
C 	C 	0.20440 0.46168 0.76062 0.06100
C 	C 	0.17448 0.45672 0.76570 -0.10300
C 	C 	0.14206 0.48542 0.76746 0.01200
C 	C 	0.14159 0.51851 0.76263 -0.05500
C 	C 	0.17322 0.52128 0.75720 0.04400
C 	C 	0.10810 0.55038 0.76330 0.13700
C 	C 	0.66391 0.76973 0.52609 0.09700
C 	C 	0.05472 0.70200 0.44760 0.10800
C 	C 	0.79183 0.91163 0.52913 0.03700
C 	C 	0.81767 0.87839 0.53799 -0.04800
C 	C 	0.84348 0.87494 0.54908 0.00600
C 	C 	0.84130 0.90618 0.55064 -0.09800
C 	C 	0.81505 0.93891 0.53935 0.06200
C 	C 	0.70612 0.82082 0.51462 0.05700
C 	C 	0.70091 0.85019 0.52131 -0.09900
C 	C 	0.72894 0.85110 0.52492 0.00900
C 	C 	0.76150 0.82228 0.52230 -0.04900
C 	C 	0.76451 0.79349 0.51605 0.03600
C 	C 	0.79338 0.82254 0.52386 0.13500
C 	C 	0.85319 0.79663 0.51733 0.13500
C 	C 	0.81945 0.84783 0.53261 0.13200
C 	C 	0.91950 0.77206 0.50436 0.04400
C 	C 	0.88868 0.76962 0.50688 -0.05300
C 	C 	0.89311 0.74257 0.49699 0.00900
C 	C 	0.92734 0.71842 0.48724 -0.09400
C 	C 	0.95703 0.72231 0.48593 0.05300
C 	C 	0.96168 0.70440 0.57330 0.06100
C 	C 	0.95672 0.67448 0.60310 -0.10300
C 	C 	0.98542 0.64206 0.60506 0.01200
C 	C 	0.01851 0.64159 0.57727 -0.05500
C 	C 	0.02128 0.67322 0.54830 0.04400
C 	C 	0.05038 0.60810 0.57822 0.13700
C 	C 	0.54027 0.52609 0.76973 0.09700
C 	C 	0.29568 0.44760 0.70200 0.10800
C 	C 	0.26741 0.52913 0.91163 0.03700
C 	C 	0.26595 0.53799 0.87839 -0.04800
C 	C 	0.23250 0.54908 0.87494 0.00600
C 	C 	0.20188 0.55064 0.90618 -0.09800
C 	C 	0.20669 0.53935 0.93891 0.06200
C 	C 	0.45844 0.51462 0.82082 0.05700
C 	C 	0.42759 0.52131 0.85019 -0.09900
C 	C 	0.39504 0.52492 0.85110 0.00900
C 	C 	0.39392 0.52230 0.82228 -0.04900
C 	C 	0.42595 0.51605 0.79349 0.03600
C 	C 	0.36022 0.52386 0.82254 0.13500
C 	C 	0.33285 0.51733 0.79663 0.13500
C 	C 	0.30011 0.53261 0.84783 0.13200
C 	C 	0.30408 0.50436 0.77206 0.04400
C 	C 	0.33482 0.50688 0.76962 -0.05300
C 	C 	0.36733 0.49699 0.74257 0.00900
C 	C 	0.36700 0.48724 0.71842 -0.09400
C 	C 	0.33473 0.48593 0.72231 0.05300
C 	C 	0.26062 0.57330 0.70440 0.06100
C 	C 	0.26570 0.60310 0.67448 -0.10300
C 	C 	0.26746 0.60506 0.64206 0.01200
C 	C 	0.26263 0.57727 0.64159 -0.05500
C 	C 	0.25720 0.54830 0.67322 0.04400
C 	C 	0.26330 0.57822 0.60810 0.13700
C 	C 	0.02609 0.04027 0.16391 0.09700
C 	C 	0.94760 0.79568 0.55472 0.10800
C 	C 	0.02913 0.76741 0.29183 0.03700
C 	C 	0.03799 0.76595 0.31767 -0.04800
C 	C 	0.04908 0.73250 0.34348 0.00600
C 	C 	0.05064 0.70188 0.34130 -0.09800
C 	C 	0.03935 0.70669 0.31505 0.06200
C 	C 	0.01462 0.95844 0.20612 0.05700
C 	C 	0.02131 0.92759 0.20091 -0.09800
C 	C 	0.02492 0.89504 0.22894 0.00900
C 	C 	0.02230 0.89392 0.26150 -0.04900
C 	C 	0.01605 0.92595 0.26451 0.03600
C 	C 	0.02386 0.86022 0.29338 0.13500
C 	C 	0.01733 0.83285 0.35319 0.13500
C 	C 	0.03261 0.80011 0.31945 0.13200
C 	C 	0.00436 0.80408 0.41950 0.04400
C 	C 	0.00688 0.83482 0.38868 -0.05300
C 	C 	0.99699 0.86733 0.39311 0.00900
C 	C 	0.98724 0.86700 0.42734 -0.09400
C 	C 	0.98593 0.83473 0.45703 0.05300
C 	C 	0.07330 0.76062 0.46168 0.06100
C 	C 	0.10310 0.76570 0.45672 -0.10300
C 	C 	0.10506 0.76746 0.48542 0.01200
C 	C 	0.07727 0.76263 0.51851 -0.05500
C 	C 	0.04830 0.75720 0.52128 0.04400
C 	C 	0.07822 0.76330 0.55038 0.13700
C 	C 	0.26973 0.04027 0.52609 0.09700
C 	C 	0.20200 0.79568 0.44760 0.10800
C 	C 	0.41163 0.76741 0.52913 0.03700
C 	C 	0.37839 0.76595 0.53799 -0.04800
C 	C 	0.37494 0.73250 0.54908 0.00600
C 	C 	0.40618 0.70188 0.55064 -0.09800
C 	C 	0.43891 0.70669 0.53935 0.06200
C 	C 	0.32082 0.95844 0.51462 0.05700
C 	C 	0.35019 0.92759 0.52131 -0.09800
C 	C 	0.35110 0.89504 0.52492 0.00900
C 	C 	0.32228 0.89392 0.52230 -0.04900
C 	C 	0.29349 0.92595 0.51605 0.03600
C 	C 	0.32254 0.86022 0.52386 0.13500
C 	C 	0.29663 0.83285 0.51733 0.13500
C 	C 	0.34783 0.80011 0.53261 0.13200
C 	C 	0.27206 0.80408 0.50436 0.04400
C 	C 	0.26962 0.83482 0.50688 -0.05300
C 	C 	0.24257 0.86733 0.49699 0.00900
C 	C 	0.21842 0.86700 0.48724 -0.09400
C 	C 	0.22231 0.83473 0.48593 0.05300
C 	C 	0.20440 0.76062 0.57330 0.06100
C 	C 	0.17448 0.76570 0.60310 -0.10300
C 	C 	0.14206 0.76746 0.60506 0.01200
C 	C 	0.14159 0.76263 0.57727 -0.05500
C 	C 	0.17322 0.75720 0.54830 0.04400
C 	C 	0.10810 0.76330 0.57822 0.13700
C 	C 	0.66391 0.52609 0.04027 0.09700
C 	C 	0.05472 0.44760 0.79568 0.10800
C 	C 	0.79183 0.52913 0.76741 0.03700
C 	C 	0.81767 0.53799 0.76595 -0.04800
C 	C 	0.84348 0.54908 0.73250 0.00600
C 	C 	0.84130 0.55064 0.70188 -0.09800
C 	C 	0.81505 0.53935 0.70669 0.06200
C 	C 	0.70612 0.51462 0.95844 0.05700
C 	C 	0.70091 0.52131 0.92759 -0.09800
C 	C 	0.72894 0.52492 0.89504 0.00900
C 	C 	0.76150 0.52230 0.89392 -0.04900
C 	C 	0.76451 0.51605 0.92595 0.03600
C 	C 	0.79338 0.52386 0.86022 0.13500
C 	C 	0.85319 0.51733 0.83285 0.13500
C 	C 	0.81945 0.53261 0.80011 0.13200
C 	C 	0.91950 0.50436 0.80408 0.04400
C 	C 	0.88868 0.50688 0.83482 -0.05300
C 	C 	0.89311 0.49699 0.86733 0.00900
C 	C 	0.92734 0.48724 0.86700 -0.09400
C 	C 	0.95703 0.48593 0.83473 0.05300
C 	C 	0.96168 0.57330 0.76062 0.06100
C 	C 	0.95672 0.60310 0.76570 -0.10300
C 	C 	0.98542 0.60506 0.76746 0.01200
C 	C 	0.01851 0.57727 0.76263 -0.05500
C 	C 	0.02128 0.54830 0.75720 0.04400
C 	C 	0.05038 0.57822 0.76330 0.13700
C 	C 	0.54027 0.76973 0.16391 0.09700
C 	C 	0.29568 0.70200 0.55472 0.10800
C 	C 	0.26741 0.91163 0.29183 0.03700
C 	C 	0.26595 0.87839 0.31767 -0.04800
C 	C 	0.23250 0.87494 0.34348 0.00600
C 	C 	0.20188 0.90618 0.34130 -0.09800
C 	C 	0.20669 0.93891 0.31505 0.06200
C 	C 	0.45844 0.82082 0.20612 0.05700
C 	C 	0.42759 0.85019 0.20091 -0.09900
C 	C 	0.39504 0.85110 0.22894 0.00900
C 	C 	0.39392 0.82228 0.26150 -0.04900
C 	C 	0.42595 0.79349 0.26451 0.03600
C 	C 	0.36022 0.82254 0.29338 0.13500
C 	C 	0.33285 0.79663 0.35319 0.13500
C 	C 	0.30011 0.84783 0.31945 0.13200
C 	C 	0.30408 0.77206 0.41950 0.04400
C 	C 	0.33482 0.76962 0.38868 -0.05300
C 	C 	0.36733 0.74257 0.39311 0.00900
C 	C 	0.36700 0.71842 0.42734 -0.09400
C 	C 	0.33473 0.72231 0.45703 0.05300
C 	C 	0.26062 0.70440 0.46168 0.06100
C 	C 	0.26570 0.67448 0.45672 -0.10300
C 	C 	0.26746 0.64206 0.48542 0.01200
C 	C 	0.26263 0.64159 0.51851 -0.05500
C 	C 	0.25720 0.67322 0.52128 0.04400
C 	C 	0.26330 0.60810 0.55038 0.13700
C 	C 	0.02609 0.16391 0.76973 0.09700
C 	C 	0.94760 0.55472 0.70200 0.10800
C 	C 	0.02913 0.29183 0.91163 0.03700
C 	C 	0.03799 0.31767 0.87839 -0.04800
C 	C 	0.04908 0.34348 0.87494 0.00600
C 	C 	0.05064 0.34130 0.90618 -0.09800
C 	C 	0.03935 0.31505 0.93891 0.06200
C 	C 	0.01462 0.20612 0.82082 0.05700
C 	C 	0.02131 0.20091 0.85019 -0.09800
C 	C 	0.02492 0.22894 0.85110 0.00900
C 	C 	0.02230 0.26150 0.82228 -0.04900
C 	C 	0.01605 0.26451 0.79349 0.03600
C 	C 	0.02386 0.29338 0.82254 0.13500
C 	C 	0.01733 0.35319 0.79663 0.13500
C 	C 	0.03261 0.31945 0.84783 0.13200
C 	C 	0.00436 0.41950 0.77206 0.04400
C 	C 	0.00688 0.38868 0.76962 -0.05300
C 	C 	0.99699 0.39311 0.74257 0.00900
C 	C 	0.98724 0.42734 0.71842 -0.09400
C 	C 	0.98593 0.45703 0.72231 0.05300
C 	C 	0.07330 0.46168 0.70440 0.06100
C 	C 	0.10310 0.45672 0.67448 -0.10300
C 	C 	0.10506 0.48542 0.64206 0.01200
C 	C 	0.07727 0.51851 0.64159 -0.05500
C 	C 	0.04830 0.52128 0.67322 0.04400
C 	C 	0.07822 0.55038 0.60810 0.13700
C 	C 	0.26973 0.52609 0.16391 0.09700
C 	C 	0.20200 0.44760 0.55472 0.10800
C 	C 	0.41163 0.52913 0.29183 0.03700
C 	C 	0.37839 0.53799 0.31767 -0.04800
C 	C 	0.37494 0.54908 0.34348 0.00600
C 	C 	0.40618 0.55064 0.34130 -0.09800
C 	C 	0.43891 0.53935 0.31505 0.06200
C 	C 	0.32082 0.51462 0.20612 0.05700
C 	C 	0.35019 0.52131 0.20091 -0.09900
C 	C 	0.35110 0.52492 0.22894 0.00900
C 	C 	0.32228 0.52230 0.26150 -0.04900
C 	C 	0.29349 0.51605 0.26451 0.03600
C 	C 	0.32254 0.52386 0.29338 0.13500
C 	C 	0.29663 0.51733 0.35319 0.13500
C 	C 	0.34783 0.53261 0.31945 0.13200
C 	C 	0.27206 0.50436 0.41950 0.04400
C 	C 	0.26962 0.50688 0.38868 -0.05300
C 	C 	0.24257 0.49699 0.39311 0.00900
C 	C 	0.21842 0.48724 0.42734 -0.09400
C 	C 	0.22231 0.48593 0.45703 0.05300
C 	C 	0.20440 0.57330 0.46168 0.06100
C 	C 	0.17448 0.60310 0.45672 -0.10300
C 	C 	0.14206 0.60506 0.48542 0.01200
C 	C 	0.14159 0.57727 0.51851 -0.05500
C 	C 	0.17322 0.54830 0.52128 0.04400
C 	C 	0.10810 0.57822 0.55038 0.13700
C 	C 	0.66391 0.04027 0.76973 0.09700
C 	C 	0.05472 0.79568 0.70200 0.10800
C 	C 	0.79183 0.76741 0.91163 0.03700
C 	C 	0.81767 0.76595 0.87839 -0.04800
C 	C 	0.84348 0.73250 0.87494 0.00600
C 	C 	0.84130 0.70188 0.90618 -0.09800
C 	C 	0.81505 0.70669 0.93891 0.06200
C 	C 	0.70612 0.95844 0.82082 0.05700
C 	C 	0.70091 0.92759 0.85019 -0.09800
C 	C 	0.72894 0.89504 0.85110 0.00900
C 	C 	0.76150 0.89392 0.82228 -0.04900
C 	C 	0.76451 0.92595 0.79349 0.03600
C 	C 	0.79338 0.86022 0.82254 0.13500
C 	C 	0.85319 0.83285 0.79663 0.13500
C 	C 	0.81945 0.80011 0.84783 0.13200
C 	C 	0.91950 0.80408 0.77206 0.04400
C 	C 	0.88868 0.83482 0.76962 -0.05300
C 	C 	0.89311 0.86733 0.74257 0.00900
C 	C 	0.92734 0.86700 0.71842 -0.09400
C 	C 	0.95703 0.83473 0.72231 0.05300
C 	C 	0.96168 0.76062 0.70440 0.06100
C 	C 	0.95672 0.76570 0.67448 -0.10300
C 	C 	0.98542 0.76746 0.64206 0.01200
C 	C 	0.01851 0.76263 0.64159 -0.05500
C 	C 	0.02128 0.75720 0.67322 0.04400
C 	C 	0.05038 0.76330 0.60810 0.13700
C 	C 	0.54027 0.16391 0.52609 0.09700
C 	C 	0.29568 0.55472 0.44760 0.10800
C 	C 	0.26741 0.29183 0.52913 0.03700
C 	C 	0.26595 0.31767 0.53799 -0.04800
C 	C 	0.23250 0.34348 0.54908 0.00600
C 	C 	0.20188 0.34130 0.55064 -0.09800
C 	C 	0.20669 0.31505 0.53935 0.06200
C 	C 	0.45844 0.20612 0.51462 0.05700
C 	C 	0.42759 0.20091 0.52131 -0.09900
C 	C 	0.39504 0.22894 0.52492 0.00900
C 	C 	0.39392 0.26150 0.52230 -0.04900
C 	C 	0.42595 0.26451 0.51605 0.03600
C 	C 	0.36022 0.29338 0.52386 0.13500
C 	C 	0.33285 0.35319 0.51733 0.13500
C 	C 	0.30011 0.31945 0.53261 0.13200
C 	C 	0.30408 0.41950 0.50436 0.04400
C 	C 	0.33482 0.38868 0.50688 -0.05300
C 	C 	0.36733 0.39311 0.49699 0.00900
C 	C 	0.36700 0.42734 0.48724 -0.09400
C 	C 	0.33473 0.45703 0.48593 0.05300
C 	C 	0.26062 0.46168 0.57330 0.06100
C 	C 	0.26570 0.45672 0.60310 -0.10300
C 	C 	0.26746 0.48542 0.60506 0.01200
C 	C 	0.26263 0.51851 0.57727 -0.05500
C 	C 	0.25720 0.52128 0.54830 0.04400
C 	C 	0.26330 0.55038 0.57822 0.13700
C 	C 	0.02609 0.76973 0.04027 0.09700
C 	C 	0.94760 0.70200 0.79568 0.10800
C 	C 	0.02913 0.91163 0.76741 0.03700
C 	C 	0.03799 0.87839 0.76595 -0.04800
C 	C 	0.04908 0.87494 0.73250 0.00600
C 	C 	0.05064 0.90618 0.70188 -0.09800
C 	C 	0.03935 0.93891 0.70669 0.06200
C 	C 	0.01462 0.82082 0.95844 0.05700
C 	C 	0.02131 0.85019 0.92759 -0.09800
C 	C 	0.02492 0.85110 0.89504 0.00900
C 	C 	0.02230 0.82228 0.89392 -0.04900
C 	C 	0.01605 0.79349 0.92595 0.03600
C 	C 	0.02386 0.82254 0.86022 0.13500
C 	C 	0.01733 0.79663 0.83285 0.13500
C 	C 	0.03261 0.84783 0.80011 0.13200
C 	C 	0.00436 0.77206 0.80408 0.04400
C 	C 	0.00688 0.76962 0.83482 -0.05300
C 	C 	0.99699 0.74257 0.86733 0.00900
C 	C 	0.98724 0.71842 0.86700 -0.09400
C 	C 	0.98593 0.72231 0.83473 0.05300
C 	C 	0.07330 0.70440 0.76062 0.06100
C 	C 	0.10310 0.67448 0.76570 -0.10300
C 	C 	0.10506 0.64206 0.76746 0.01200
C 	C 	0.07727 0.64159 0.76263 -0.05500
C 	C 	0.04830 0.67322 0.75720 0.04400
C 	C 	0.07822 0.60810 0.76330 0.13700
C 	C 	0.83609 0.73027 0.45973 0.09700
C 	C 	0.44528 0.79800 0.70432 0.10800
C 	C 	0.70817 0.58837 0.73259 0.03700
C 	C 	0.68233 0.62161 0.73405 -0.04800
C 	C 	0.65652 0.62506 0.76750 0.00600
C 	C 	0.65870 0.59382 0.79812 -0.09800
C 	C 	0.68495 0.56109 0.79331 0.06200
C 	C 	0.79388 0.67918 0.54156 0.05700
C 	C 	0.79909 0.64981 0.57241 -0.09900
C 	C 	0.77106 0.64890 0.60496 0.00900
C 	C 	0.73850 0.67772 0.60608 -0.04900
C 	C 	0.73549 0.70651 0.57405 0.03600
C 	C 	0.70662 0.67746 0.63978 0.13500
C 	C 	0.64681 0.70337 0.66715 0.13500
C 	C 	0.68055 0.65217 0.69989 0.13200
C 	C 	0.58050 0.72794 0.69592 0.04400
C 	C 	0.61132 0.73038 0.66518 -0.05300
C 	C 	0.60689 0.75743 0.63267 0.00900
C 	C 	0.57266 0.78158 0.63300 -0.09400
C 	C 	0.54297 0.77769 0.66527 0.05300
C 	C 	0.53832 0.79560 0.73938 0.06100
C 	C 	0.54328 0.82552 0.73430 -0.10300
C 	C 	0.51458 0.85794 0.73254 0.01200
C 	C 	0.48149 0.85841 0.73737 -0.05500
C 	C 	0.47872 0.82678 0.74280 0.04400
C 	C 	0.44962 0.89190 0.73670 0.13700
C 	C 	0.23027 0.33609 0.97391 0.09700
C 	C 	0.29800 0.94528 0.05240 0.10800
C 	C 	0.08837 0.20817 0.97087 0.03700
C 	C 	0.12161 0.18233 0.96201 -0.04800
C 	C 	0.12506 0.15652 0.95092 0.00600
C 	C 	0.09382 0.15870 0.94936 -0.09800
C 	C 	0.06109 0.18495 0.96065 0.06200
C 	C 	0.17918 0.29388 0.98538 0.05700
C 	C 	0.14981 0.29909 0.97869 -0.09900
C 	C 	0.14890 0.27106 0.97508 0.00900
C 	C 	0.17772 0.23850 0.97770 -0.04900
C 	C 	0.20651 0.23549 0.98395 0.03600
C 	C 	0.17746 0.20662 0.97614 0.13500
C 	C 	0.20337 0.14681 0.98267 0.13500
C 	C 	0.15217 0.18055 0.96739 0.13200
C 	C 	0.22794 0.08050 0.99564 0.04400
C 	C 	0.23038 0.11132 0.99312 -0.05300
C 	C 	0.25743 0.10689 0.00301 0.00900
C 	C 	0.28158 0.07266 0.01276 -0.09400
C 	C 	0.27769 0.04297 0.01407 0.05300
C 	C 	0.29560 0.03832 0.92670 0.06100
C 	C 	0.32552 0.04328 0.89690 -0.10300
C 	C 	0.35794 0.01458 0.89494 0.01200
C 	C 	0.35841 0.98149 0.92273 -0.05500
C 	C 	0.32678 0.97872 0.95170 0.04400
C 	C 	0.39190 0.94962 0.92178 0.13700
C 	C 	0.47391 0.45973 0.73027 0.09700
C 	C 	0.55240 0.70432 0.79800 0.10800
C 	C 	0.47087 0.73259 0.58837 0.03700
C 	C 	0.46201 0.73405 0.62161 -0.04800
C 	C 	0.45092 0.76750 0.62506 0.00600
C 	C 	0.44936 0.79812 0.59382 -0.09800
C 	C 	0.46065 0.79331 0.56109 0.06200
C 	C 	0.48538 0.54156 0.67918 0.05700
C 	C 	0.47869 0.57241 0.64981 -0.09900
C 	C 	0.47508 0.60496 0.64890 0.00900
C 	C 	0.47770 0.60608 0.67772 -0.04900
C 	C 	0.48395 0.57405 0.70651 0.03600
C 	C 	0.47614 0.63978 0.67746 0.13500
C 	C 	0.48267 0.66715 0.70337 0.13500
C 	C 	0.46739 0.69989 0.65217 0.13200
C 	C 	0.49564 0.69592 0.72794 0.04400
C 	C 	0.49312 0.66518 0.73038 -0.05300
C 	C 	0.50301 0.63267 0.75743 0.00900
C 	C 	0.51276 0.63300 0.78158 -0.09400
C 	C 	0.51407 0.66527 0.77769 0.05300
C 	C 	0.42670 0.73938 0.79560 0.06100
C 	C 	0.39690 0.73430 0.82552 -0.10300
C 	C 	0.39494 0.73254 0.85794 0.01200
C 	C 	0.42273 0.73737 0.85841 -0.05500
C 	C 	0.45170 0.74280 0.82678 0.04400
C 	C 	0.42178 0.73670 0.89190 0.13700
C 	C 	0.95973 0.97391 0.33609 0.09700
C 	C 	0.20432 0.05240 0.94528 0.10800
C 	C 	0.23259 0.97087 0.20817 0.03700
C 	C 	0.23405 0.96201 0.18233 -0.04800
C 	C 	0.26750 0.95092 0.15652 0.00600
C 	C 	0.29812 0.94936 0.15870 -0.09800
C 	C 	0.29331 0.96065 0.18495 0.06200
C 	C 	0.04156 0.98538 0.29388 0.05700
C 	C 	0.07241 0.97869 0.29909 -0.09800
C 	C 	0.10496 0.97508 0.27106 0.00900
C 	C 	0.10608 0.97770 0.23850 -0.04900
C 	C 	0.07405 0.98395 0.23549 0.03600
C 	C 	0.13978 0.97614 0.20662 0.13500
C 	C 	0.16715 0.98267 0.14681 0.13500
C 	C 	0.19989 0.96739 0.18055 0.13200
C 	C 	0.19592 0.99564 0.08050 0.04400
C 	C 	0.16518 0.99312 0.11132 -0.05300
C 	C 	0.13267 0.00301 0.10689 0.00900
C 	C 	0.13300 0.01276 0.07266 -0.09400
C 	C 	0.16527 0.01407 0.04297 0.05300
C 	C 	0.23938 0.92670 0.03832 0.06100
C 	C 	0.23430 0.89690 0.04328 -0.10300
C 	C 	0.23254 0.89494 0.01458 0.01200
C 	C 	0.23737 0.92273 0.98149 -0.05500
C 	C 	0.24280 0.95170 0.97872 0.04400
C 	C 	0.23670 0.92178 0.94962 0.13700
C 	C 	0.95973 0.73027 0.97391 0.09700
C 	C 	0.20432 0.79800 0.05240 0.10800
C 	C 	0.23259 0.58837 0.97087 0.03700
C 	C 	0.23405 0.62161 0.96201 -0.04800
C 	C 	0.26750 0.62506 0.95092 0.00600
C 	C 	0.29812 0.59382 0.94936 -0.09800
C 	C 	0.29331 0.56109 0.96065 0.06200
C 	C 	0.04156 0.67918 0.98538 0.05700
C 	C 	0.07241 0.64981 0.97869 -0.09800
C 	C 	0.10496 0.64890 0.97508 0.00900
C 	C 	0.10608 0.67772 0.97770 -0.04900
C 	C 	0.07405 0.70651 0.98395 0.03600
C 	C 	0.13978 0.67746 0.97614 0.13500
C 	C 	0.16715 0.70337 0.98267 0.13500
C 	C 	0.19989 0.65217 0.96739 0.13200
C 	C 	0.19592 0.72794 0.99564 0.04400
C 	C 	0.16518 0.73038 0.99312 -0.05300
C 	C 	0.13267 0.75743 0.00301 0.00900
C 	C 	0.13300 0.78158 0.01276 -0.09400
C 	C 	0.16527 0.77769 0.01407 0.05300
C 	C 	0.23938 0.79560 0.92670 0.06100
C 	C 	0.23430 0.82552 0.89690 -0.10300
C 	C 	0.23254 0.85794 0.89494 0.01200
C 	C 	0.23737 0.85841 0.92273 -0.05500
C 	C 	0.24280 0.82678 0.95170 0.04400
C 	C 	0.23670 0.89190 0.92178 0.13700
C 	C 	0.47391 0.33609 0.45973 0.09700
C 	C 	0.55240 0.94528 0.70432 0.10800
C 	C 	0.47087 0.20817 0.73259 0.03700
C 	C 	0.46201 0.18233 0.73405 -0.04800
C 	C 	0.45092 0.15652 0.76750 0.00600
C 	C 	0.44936 0.15870 0.79812 -0.09800
C 	C 	0.46065 0.18495 0.79331 0.06200
C 	C 	0.48538 0.29388 0.54156 0.05700
C 	C 	0.47869 0.29909 0.57241 -0.09900
C 	C 	0.47508 0.27106 0.60496 0.00900
C 	C 	0.47770 0.23850 0.60608 -0.04900
C 	C 	0.48395 0.23549 0.57405 0.03600
C 	C 	0.47614 0.20662 0.63978 0.13500
C 	C 	0.48267 0.14681 0.66715 0.13500
C 	C 	0.46739 0.18055 0.69989 0.13200
C 	C 	0.49564 0.08050 0.69592 0.04400
C 	C 	0.49312 0.11132 0.66518 -0.05300
C 	C 	0.50301 0.10689 0.63267 0.00900
C 	C 	0.51276 0.07266 0.63300 -0.09400
C 	C 	0.51407 0.04297 0.66527 0.05300
C 	C 	0.42670 0.03832 0.73938 0.06100
C 	C 	0.39690 0.04328 0.73430 -0.10300
C 	C 	0.39494 0.01458 0.73254 0.01200
C 	C 	0.42273 0.98149 0.73737 -0.05500
C 	C 	0.45170 0.97872 0.74280 0.04400
C 	C 	0.42178 0.94962 0.73670 0.13700
C 	C 	0.23027 0.45973 0.33609 0.09700
C 	C 	0.29800 0.70432 0.94528 0.10800
C 	C 	0.08837 0.73259 0.20817 0.03700
C 	C 	0.12161 0.73405 0.18233 -0.04800
C 	C 	0.12506 0.76750 0.15652 0.00600
C 	C 	0.09382 0.79812 0.15870 -0.09800
C 	C 	0.06109 0.79331 0.18495 0.06200
C 	C 	0.17918 0.54156 0.29388 0.05700
C 	C 	0.14981 0.57241 0.29909 -0.09900
C 	C 	0.14890 0.60496 0.27106 0.00900
C 	C 	0.17772 0.60608 0.23850 -0.04900
C 	C 	0.20651 0.57405 0.23549 0.03600
C 	C 	0.17746 0.63978 0.20662 0.13500
C 	C 	0.20337 0.66715 0.14681 0.13500
C 	C 	0.15217 0.69989 0.18055 0.13200
C 	C 	0.22794 0.69592 0.08050 0.04400
C 	C 	0.23038 0.66518 0.11132 -0.05300
C 	C 	0.25743 0.63267 0.10689 0.00900
C 	C 	0.28158 0.63300 0.07266 -0.09400
C 	C 	0.27769 0.66527 0.04297 0.05300
C 	C 	0.29560 0.73938 0.03832 0.06100
C 	C 	0.32552 0.73430 0.04328 -0.10300
C 	C 	0.35794 0.73254 0.01458 0.01200
C 	C 	0.35841 0.73737 0.98149 -0.05500
C 	C 	0.32678 0.74280 0.97872 0.04400
C 	C 	0.39190 0.73670 0.94962 0.13700
C 	C 	0.83609 0.97391 0.73027 0.09700
C 	C 	0.44528 0.05240 0.79800 0.10800
C 	C 	0.70817 0.97087 0.58837 0.03700
C 	C 	0.68233 0.96201 0.62161 -0.04800
C 	C 	0.65652 0.95092 0.62506 0.00600
C 	C 	0.65870 0.94936 0.59382 -0.09800
C 	C 	0.68495 0.96065 0.56109 0.06200
C 	C 	0.79388 0.98538 0.67918 0.05700
C 	C 	0.79909 0.97869 0.64981 -0.09800
C 	C 	0.77106 0.97508 0.64890 0.00900
C 	C 	0.73850 0.97770 0.67772 -0.04900
C 	C 	0.73549 0.98395 0.70651 0.03600
C 	C 	0.70662 0.97614 0.67746 0.13500
C 	C 	0.64681 0.98267 0.70337 0.13500
C 	C 	0.68055 0.96739 0.65217 0.13200
C 	C 	0.58050 0.99564 0.72794 0.04400
C 	C 	0.61132 0.99312 0.73038 -0.05300
C 	C 	0.60689 0.00301 0.75743 0.00900
C 	C 	0.57266 0.01276 0.78158 -0.09400
C 	C 	0.54297 0.01407 0.77769 0.05300
C 	C 	0.53832 0.92670 0.79560 0.06100
C 	C 	0.54328 0.89690 0.82552 -0.10300
C 	C 	0.51458 0.89494 0.85794 0.01200
C 	C 	0.48149 0.92273 0.85841 -0.05500
C 	C 	0.47872 0.95170 0.82678 0.04400
C 	C 	0.44962 0.92178 0.89190 0.13700
C 	C 	0.47391 0.73027 0.33609 0.09700
C 	C 	0.55240 0.79800 0.94528 0.10800
C 	C 	0.47087 0.58837 0.20817 0.03700
C 	C 	0.46201 0.62161 0.18233 -0.04800
C 	C 	0.45092 0.62506 0.15652 0.00600
C 	C 	0.44936 0.59382 0.15870 -0.09800
C 	C 	0.46065 0.56109 0.18495 0.06200
C 	C 	0.48538 0.67918 0.29388 0.05700
C 	C 	0.47869 0.64981 0.29909 -0.09900
C 	C 	0.47508 0.64890 0.27106 0.00900
C 	C 	0.47770 0.67772 0.23850 -0.04900
C 	C 	0.48395 0.70651 0.23549 0.03600
C 	C 	0.47614 0.67746 0.20662 0.13500
C 	C 	0.48267 0.70337 0.14681 0.13500
C 	C 	0.46739 0.65217 0.18055 0.13200
C 	C 	0.49564 0.72794 0.08050 0.04400
C 	C 	0.49312 0.73038 0.11132 -0.05300
C 	C 	0.50301 0.75743 0.10689 0.00900
C 	C 	0.51276 0.78158 0.07266 -0.09400
C 	C 	0.51407 0.77769 0.04297 0.05300
C 	C 	0.42670 0.79560 0.03832 0.06100
C 	C 	0.39690 0.82552 0.04328 -0.10300
C 	C 	0.39494 0.85794 0.01458 0.01200
C 	C 	0.42273 0.85841 0.98149 -0.05500
C 	C 	0.45170 0.82678 0.97872 0.04400
C 	C 	0.42178 0.89190 0.94962 0.13700
C 	C 	0.95973 0.33609 0.73027 0.09700
C 	C 	0.20432 0.94528 0.79800 0.10800
C 	C 	0.23259 0.20817 0.58837 0.03700
C 	C 	0.23405 0.18233 0.62161 -0.04800
C 	C 	0.26750 0.15652 0.62506 0.00600
C 	C 	0.29812 0.15870 0.59382 -0.09800
C 	C 	0.29331 0.18495 0.56109 0.06200
C 	C 	0.04156 0.29388 0.67918 0.05700
C 	C 	0.07241 0.29909 0.64981 -0.09800
C 	C 	0.10496 0.27106 0.64890 0.00900
C 	C 	0.10608 0.23850 0.67772 -0.04900
C 	C 	0.07405 0.23549 0.70651 0.03600
C 	C 	0.13978 0.20662 0.67746 0.13500
C 	C 	0.16715 0.14681 0.70337 0.13500
C 	C 	0.19989 0.18055 0.65217 0.13200
C 	C 	0.19592 0.08050 0.72794 0.04400
C 	C 	0.16518 0.11132 0.73038 -0.05300
C 	C 	0.13267 0.10689 0.75743 0.00900
C 	C 	0.13300 0.07266 0.78158 -0.09400
C 	C 	0.16527 0.04297 0.77769 0.05300
C 	C 	0.23938 0.03832 0.79560 0.06100
C 	C 	0.23430 0.04328 0.82552 -0.10300
C 	C 	0.23254 0.01458 0.85794 0.01200
C 	C 	0.23737 0.98149 0.85841 -0.05500
C 	C 	0.24280 0.97872 0.82678 0.04400
C 	C 	0.23670 0.94962 0.89190 0.13700
C 	C 	0.83609 0.45973 0.97391 0.09700
C 	C 	0.44528 0.70432 0.05240 0.10800
C 	C 	0.70817 0.73259 0.97087 0.03700
C 	C 	0.68233 0.73405 0.96201 -0.04800
C 	C 	0.65652 0.76750 0.95092 0.00600
C 	C 	0.65870 0.79812 0.94936 -0.09800
C 	C 	0.68495 0.79331 0.96065 0.06200
C 	C 	0.79388 0.54156 0.98538 0.05700
C 	C 	0.79909 0.57241 0.97869 -0.09800
C 	C 	0.77106 0.60496 0.97508 0.00900
C 	C 	0.73850 0.60608 0.97770 -0.04900
C 	C 	0.73549 0.57405 0.98395 0.03600
C 	C 	0.70662 0.63978 0.97614 0.13500
C 	C 	0.64681 0.66715 0.98267 0.13500
C 	C 	0.68055 0.69989 0.96739 0.13200
C 	C 	0.58050 0.69592 0.99564 0.04400
C 	C 	0.61132 0.66518 0.99312 -0.05300
C 	C 	0.60689 0.63267 0.00301 0.00900
C 	C 	0.57266 0.63300 0.01276 -0.09400
C 	C 	0.54297 0.66527 0.01407 0.05300
C 	C 	0.53832 0.73938 0.92670 0.06100
C 	C 	0.54328 0.73430 0.89690 -0.10300
C 	C 	0.51458 0.73254 0.89494 0.01200
C 	C 	0.48149 0.73737 0.92273 -0.05500
C 	C 	0.47872 0.74280 0.95170 0.04400
C 	C 	0.44962 0.73670 0.92178 0.13700
C 	C 	0.23027 0.97391 0.45973 0.09700
C 	C 	0.29800 0.05240 0.70432 0.10800
C 	C 	0.08837 0.97087 0.73259 0.03700
C 	C 	0.12161 0.96201 0.73405 -0.04800
C 	C 	0.12506 0.95092 0.76750 0.00600
C 	C 	0.09382 0.94936 0.79812 -0.09800
C 	C 	0.06109 0.96065 0.79331 0.06200
C 	C 	0.17918 0.98538 0.54156 0.05700
C 	C 	0.14981 0.97869 0.57241 -0.09800
C 	C 	0.14890 0.97508 0.60496 0.00900
C 	C 	0.17772 0.97770 0.60608 -0.04900
C 	C 	0.20651 0.98395 0.57405 0.03600
C 	C 	0.17746 0.97614 0.63978 0.13500
C 	C 	0.20337 0.98267 0.66715 0.13500
C 	C 	0.15217 0.96739 0.69989 0.13200
C 	C 	0.22794 0.99564 0.69592 0.04400
C 	C 	0.23038 0.99312 0.66518 -0.05300
C 	C 	0.25743 0.00301 0.63267 0.00900
C 	C 	0.28158 0.01276 0.63300 -0.09400
C 	C 	0.27769 0.01407 0.66527 0.05300
C 	C 	0.29560 0.92670 0.73938 0.06100
C 	C 	0.32552 0.89690 0.73430 -0.10300
C 	C 	0.35794 0.89494 0.73254 0.01200
C 	C 	0.35841 0.92273 0.73737 -0.05500
C 	C 	0.32678 0.95170 0.74280 0.04400
C 	C 	0.39190 0.92178 0.73670 0.13700
S 	S 	0.70900 0.87964 0.94636 -0.06100
S 	S 	0.82409 0.41441 0.18455 -0.06200
S 	S 	0.37964 0.20900 0.46500 -0.06100
S 	S 	0.91441 0.32409 0.57695 -0.06200
S 	S 	0.44636 0.46500 0.20900 -0.06100
S 	S 	0.68455 0.57695 0.32409 -0.06200
S 	S 	0.96500 0.94636 0.87964 -0.06100
S 	S 	0.07695 0.18455 0.41441 -0.06200
S 	S 	0.70900 0.94636 0.46500 -0.06100
S 	S 	0.82409 0.18455 0.57695 -0.06200
S 	S 	0.37964 0.46500 0.94636 -0.06100
S 	S 	0.91441 0.57695 0.18455 -0.06200
S 	S 	0.44636 0.20900 0.87964 -0.06100
S 	S 	0.68455 0.32409 0.41441 -0.06200
S 	S 	0.96500 0.87964 0.20900 -0.06100
S 	S 	0.07695 0.41441 0.32409 -0.06200
S 	S 	0.70900 0.46500 0.87964 -0.06100
S 	S 	0.82409 0.57695 0.41441 -0.06200
S 	S 	0.37964 0.94636 0.20900 -0.06100
S 	S 	0.91441 0.18455 0.32409 -0.06200
S 	S 	0.44636 0.87964 0.46500 -0.06100
S 	S 	0.68455 0.41441 0.57695 -0.06200
S 	S 	0.96500 0.20900 0.94636 -0.06100
S 	S 	0.07695 0.32409 0.18455 -0.06200
S 	S 	0.12036 0.29100 0.55364 -0.06100
S 	S 	0.58559 0.17591 0.31545 -0.06200
S 	S 	0.79100 0.62036 0.03500 -0.06100
S 	S 	0.67591 0.08559 0.92305 -0.06200
S 	S 	0.53500 0.55364 0.29100 -0.06100
S 	S 	0.42305 0.31545 0.17591 -0.06200
S 	S 	0.05364 0.03500 0.62036 -0.06100
S 	S 	0.81545 0.92305 0.08559 -0.06200
S 	S 	0.05364 0.29100 0.03500 -0.06100
S 	S 	0.81545 0.17591 0.92305 -0.06200
S 	S 	0.53500 0.62036 0.55364 -0.06100
S 	S 	0.42305 0.08559 0.31545 -0.06200
S 	S 	0.79100 0.55364 0.62036 -0.06100
S 	S 	0.67591 0.31545 0.08559 -0.06200
S 	S 	0.12036 0.03500 0.29100 -0.06100
S 	S 	0.58559 0.92305 0.17591 -0.06200
S 	S 	0.53500 0.29100 0.62036 -0.06100
S 	S 	0.42305 0.17591 0.08559 -0.06200
S 	S 	0.05364 0.62036 0.29100 -0.06100
S 	S 	0.81545 0.08559 0.17591 -0.06200
S 	S 	0.12036 0.55364 0.03500 -0.06100
S 	S 	0.58559 0.31545 0.92305 -0.06200
S 	S 	0.79100 0.03500 0.55364 -0.06100
S 	S 	0.67591 0.92305 0.31545 -0.06200
S 	S 	0.29100 0.12036 0.05364 -0.06100
S 	S 	0.17591 0.58559 0.81545 -0.06200
S 	S 	0.62036 0.79100 0.53500 -0.06100
S 	S 	0.08559 0.67591 0.42305 -0.06200
S 	S 	0.55364 0.53500 0.79100 -0.06100
S 	S 	0.31545 0.42305 0.67591 -0.06200
S 	S 	0.03500 0.05364 0.12036 -0.06100
S 	S 	0.92305 0.81545 0.58559 -0.06200
S 	S 	0.29100 0.05364 0.53500 -0.06100
S 	S 	0.17591 0.81545 0.42305 -0.06200
S 	S 	0.62036 0.53500 0.05364 -0.06100
S 	S 	0.08559 0.42305 0.81545 -0.06200
S 	S 	0.55364 0.79100 0.12036 -0.06100
S 	S 	0.31545 0.67591 0.58559 -0.06200
S 	S 	0.03500 0.12036 0.79100 -0.06100
S 	S 	0.92305 0.58559 0.67591 -0.06200
S 	S 	0.29100 0.53500 0.12036 -0.06100
S 	S 	0.17591 0.42305 0.58559 -0.06200
S 	S 	0.62036 0.05364 0.79100 -0.06100
S 	S 	0.08559 0.81545 0.67591 -0.06200
S 	S 	0.55364 0.12036 0.53500 -0.06100
S 	S 	0.31545 0.58559 0.42305 -0.06200
S 	S 	0.03500 0.79100 0.05364 -0.06100
S 	S 	0.92305 0.67591 0.81545 -0.06200
S 	S 	0.87964 0.70900 0.44636 -0.06100
S 	S 	0.41441 0.82409 0.68455 -0.06200
S 	S 	0.20900 0.37964 0.96500 -0.06100
S 	S 	0.32409 0.91441 0.07695 -0.06200
S 	S 	0.46500 0.44636 0.70900 -0.06100
S 	S 	0.57695 0.68455 0.82409 -0.06200
S 	S 	0.94636 0.96500 0.37964 -0.06100
S 	S 	0.18455 0.07695 0.91441 -0.06200
S 	S 	0.94636 0.70900 0.96500 -0.06100
S 	S 	0.18455 0.82409 0.07695 -0.06200
S 	S 	0.46500 0.37964 0.44636 -0.06100
S 	S 	0.57695 0.91441 0.68455 -0.06200
S 	S 	0.20900 0.44636 0.37964 -0.06100
S 	S 	0.32409 0.68455 0.91441 -0.06200
S 	S 	0.87964 0.96500 0.70900 -0.06100
S 	S 	0.41441 0.07695 0.82409 -0.06200
S 	S 	0.46500 0.70900 0.37964 -0.06100
S 	S 	0.57695 0.82409 0.91441 -0.06200
S 	S 	0.94636 0.37964 0.70900 -0.06100
S 	S 	0.18455 0.91441 0.82409 -0.06200
S 	S 	0.87964 0.44636 0.96500 -0.06100
S 	S 	0.41441 0.68455 0.07695 -0.06200
S 	S 	0.20900 0.96500 0.44636 -0.06100
S 	S 	0.32409 0.07695 0.68455 -0.06200
N 	N 	0.74474 0.80480 0.96910 -0.25900
N 	N 	0.77926 0.46660 0.21832 -0.26500
N 	N 	0.55763 0.70961 0.26135 -0.22600
N 	N 	0.70740 0.76240 0.04184 -0.22600
N 	N 	0.70441 0.67511 0.13667 -0.15100
N 	N 	0.65077 0.71085 0.17041 -0.15000
N 	N 	0.67845 0.64809 0.20035 -0.14900
N 	N 	0.75111 0.54729 0.19661 -0.22900
N 	N 	0.79545 0.50639 0.24407 -0.23000
N 	N 	0.91999 0.45197 0.23675 -0.15300
N 	N 	0.30480 0.24474 0.48136 -0.25900
N 	N 	0.96660 0.27926 0.53582 -0.26500
N 	N 	0.20961 0.05763 0.47141 -0.22600
N 	N 	0.26240 0.20740 0.48836 -0.22600
N 	N 	0.17511 0.20441 0.48381 -0.15100
N 	N 	0.21085 0.15077 0.46797 -0.15000
N 	N 	0.14809 0.17845 0.47311 -0.14900
N 	N 	0.04729 0.25111 0.50499 -0.22900
N 	N 	0.00639 0.29545 0.45409 -0.23000
N 	N 	0.95197 0.41999 0.39129 -0.15300
N 	N 	0.46910 0.48136 0.24474 -0.25900
N 	N 	0.71832 0.53582 0.27926 -0.26500
N 	N 	0.76135 0.47141 0.05763 -0.22600
N 	N 	0.54184 0.48836 0.20740 -0.22600
N 	N 	0.63667 0.48381 0.20441 -0.15100
N 	N 	0.67041 0.46797 0.15077 -0.15000
N 	N 	0.70035 0.47311 0.17845 -0.14900
N 	N 	0.69661 0.50499 0.25111 -0.22900
N 	N 	0.74407 0.45409 0.29545 -0.23000
N 	N 	0.73675 0.39129 0.41999 -0.15300
N 	N 	0.98136 0.96910 0.80480 -0.25900
N 	N 	0.03582 0.21832 0.46660 -0.26500
N 	N 	0.97141 0.26135 0.70961 -0.22600
N 	N 	0.98836 0.04184 0.76240 -0.22600
N 	N 	0.98381 0.13667 0.67511 -0.15100
N 	N 	0.96797 0.17041 0.71085 -0.15000
N 	N 	0.97311 0.20035 0.64809 -0.14900
N 	N 	0.00499 0.19661 0.54729 -0.22900
N 	N 	0.95409 0.24407 0.50639 -0.23000
N 	N 	0.89129 0.23675 0.45197 -0.15300
N 	N 	0.74474 0.96910 0.48136 -0.25900
N 	N 	0.77926 0.21832 0.53582 -0.26500
N 	N 	0.55763 0.26135 0.47141 -0.22600
N 	N 	0.70740 0.04184 0.48836 -0.22600
N 	N 	0.70441 0.13667 0.48381 -0.15100
N 	N 	0.65077 0.17041 0.46797 -0.15000
N 	N 	0.67845 0.20035 0.47311 -0.14900
N 	N 	0.75111 0.19661 0.50499 -0.22900
N 	N 	0.79545 0.24407 0.45409 -0.23000
N 	N 	0.91999 0.23675 0.39129 -0.15300
N 	N 	0.30480 0.48136 0.96910 -0.25900
N 	N 	0.96660 0.53582 0.21832 -0.26500
N 	N 	0.20961 0.47141 0.26135 -0.22600
N 	N 	0.26240 0.48836 0.04184 -0.22600
N 	N 	0.17511 0.48381 0.13667 -0.15100
N 	N 	0.21085 0.46797 0.17041 -0.15000
N 	N 	0.14809 0.47311 0.20035 -0.14900
N 	N 	0.04729 0.50499 0.19661 -0.22900
N 	N 	0.00639 0.45409 0.24407 -0.23000
N 	N 	0.95197 0.39129 0.23675 -0.15300
N 	N 	0.46910 0.24474 0.80480 -0.25900
N 	N 	0.71832 0.27926 0.46660 -0.26500
N 	N 	0.76135 0.05763 0.70961 -0.22600
N 	N 	0.54184 0.20740 0.76240 -0.22600
N 	N 	0.63667 0.20441 0.67511 -0.15100
N 	N 	0.67041 0.15077 0.71085 -0.15000
N 	N 	0.70035 0.17845 0.64809 -0.14900
N 	N 	0.69661 0.25111 0.54729 -0.22900
N 	N 	0.74407 0.29545 0.50639 -0.23000
N 	N 	0.73675 0.41999 0.45197 -0.15300
N 	N 	0.98136 0.80480 0.24474 -0.25900
N 	N 	0.03582 0.46660 0.27926 -0.26500
N 	N 	0.97141 0.70961 0.05763 -0.22600
N 	N 	0.98836 0.76240 0.20740 -0.22600
N 	N 	0.98381 0.67511 0.20441 -0.15100
N 	N 	0.96797 0.71085 0.15077 -0.15000
N 	N 	0.97311 0.64809 0.17845 -0.14900
N 	N 	0.00499 0.54729 0.25111 -0.22900
N 	N 	0.95409 0.50639 0.29545 -0.23000
N 	N 	0.89129 0.45197 0.41999 -0.15300
N 	N 	0.74474 0.48136 0.80480 -0.25900
N 	N 	0.77926 0.53582 0.46660 -0.26500
N 	N 	0.55763 0.47141 0.70961 -0.22600
N 	N 	0.70740 0.48836 0.76240 -0.22600
N 	N 	0.70441 0.48381 0.67511 -0.15100
N 	N 	0.65077 0.46797 0.71085 -0.15000
N 	N 	0.67845 0.47311 0.64809 -0.14900
N 	N 	0.75111 0.50499 0.54729 -0.22900
N 	N 	0.79545 0.45409 0.50639 -0.23000
N 	N 	0.91999 0.39129 0.45197 -0.15300
N 	N 	0.30480 0.96910 0.24474 -0.25900
N 	N 	0.96660 0.21832 0.27926 -0.26500
N 	N 	0.20961 0.26135 0.05763 -0.22600
N 	N 	0.26240 0.04184 0.20740 -0.22600
N 	N 	0.17511 0.13667 0.20441 -0.15100
N 	N 	0.21085 0.17041 0.15077 -0.15000
N 	N 	0.14809 0.20035 0.17845 -0.14900
N 	N 	0.04729 0.19661 0.25111 -0.22900
N 	N 	0.00639 0.24407 0.29545 -0.23000
N 	N 	0.95197 0.23675 0.41999 -0.15300
N 	N 	0.46910 0.80480 0.48136 -0.25900
N 	N 	0.71832 0.46660 0.53582 -0.26500
N 	N 	0.76135 0.70961 0.47141 -0.22600
N 	N 	0.54184 0.76240 0.48836 -0.22600
N 	N 	0.63667 0.67511 0.48381 -0.15100
N 	N 	0.67041 0.71085 0.46797 -0.15000
N 	N 	0.70035 0.64809 0.47311 -0.14900
N 	N 	0.69661 0.54729 0.50499 -0.22900
N 	N 	0.74407 0.50639 0.45409 -0.23000
N 	N 	0.73675 0.45197 0.39129 -0.15300
N 	N 	0.98136 0.24474 0.96910 -0.25900
N 	N 	0.03582 0.27926 0.21832 -0.26500
N 	N 	0.97141 0.05763 0.26135 -0.22600
N 	N 	0.98836 0.20740 0.04184 -0.22600
N 	N 	0.98381 0.20441 0.13667 -0.15100
N 	N 	0.96797 0.15077 0.17041 -0.15000
N 	N 	0.97311 0.17845 0.20035 -0.14900
N 	N 	0.00499 0.25111 0.19661 -0.22900
N 	N 	0.95409 0.29545 0.24407 -0.23000
N 	N 	0.89129 0.41999 0.23675 -0.15300
N 	N 	0.19520 0.25526 0.53090 -0.25900
N 	N 	0.53340 0.22074 0.28168 -0.26500
N 	N 	0.29039 0.44237 0.23865 -0.22600
N 	N 	0.23760 0.29260 0.45816 -0.22600
N 	N 	0.32489 0.29559 0.36333 -0.15100
N 	N 	0.28915 0.34923 0.32959 -0.15000
N 	N 	0.35191 0.32155 0.29965 -0.14900
N 	N 	0.45271 0.24889 0.30339 -0.22900
N 	N 	0.49361 0.20455 0.25593 -0.23000
N 	N 	0.54803 0.08001 0.26325 -0.15300
N 	N 	0.75526 0.69520 0.01864 -0.25900
N 	N 	0.72074 0.03340 0.96418 -0.26500
N 	N 	0.94237 0.79039 0.02859 -0.22600
N 	N 	0.79260 0.73760 0.01164 -0.22600
N 	N 	0.79559 0.82489 0.01619 -0.15100
N 	N 	0.84923 0.78915 0.03203 -0.15000
N 	N 	0.82155 0.85191 0.02689 -0.14900
N 	N 	0.74889 0.95271 0.99501 -0.22900
N 	N 	0.70455 0.99361 0.04591 -0.23000
N 	N 	0.58001 0.04803 0.10871 -0.15300
N 	N 	0.51864 0.53090 0.25526 -0.25900
N 	N 	0.46418 0.28168 0.22074 -0.26500
N 	N 	0.52859 0.23865 0.44237 -0.22600
N 	N 	0.51164 0.45816 0.29260 -0.22600
N 	N 	0.51619 0.36333 0.29559 -0.15100
N 	N 	0.53203 0.32959 0.34923 -0.15000
N 	N 	0.52689 0.29965 0.32155 -0.14900
N 	N 	0.49501 0.30339 0.24889 -0.22900
N 	N 	0.54591 0.25593 0.20455 -0.23000
N 	N 	0.60871 0.26325 0.08001 -0.15300
N 	N 	0.03090 0.01864 0.69520 -0.25900
N 	N 	0.78168 0.96418 0.03340 -0.26500
N 	N 	0.73865 0.02859 0.79039 -0.22600
N 	N 	0.95816 0.01164 0.73760 -0.22600
N 	N 	0.86333 0.01619 0.82489 -0.15100
N 	N 	0.82959 0.03203 0.78915 -0.15000
N 	N 	0.79965 0.02689 0.85191 -0.14900
N 	N 	0.80339 0.99501 0.95271 -0.22900
N 	N 	0.75593 0.04591 0.99361 -0.23000
N 	N 	0.76325 0.10871 0.04803 -0.15300
N 	N 	0.03090 0.25526 0.01864 -0.25900
N 	N 	0.78168 0.22074 0.96418 -0.26500
N 	N 	0.73865 0.44237 0.02859 -0.22600
N 	N 	0.95816 0.29260 0.01164 -0.22600
N 	N 	0.86333 0.29559 0.01619 -0.15100
N 	N 	0.82959 0.34923 0.03203 -0.15000
N 	N 	0.79965 0.32155 0.02689 -0.14900
N 	N 	0.80339 0.24889 0.99501 -0.22900
N 	N 	0.75593 0.20455 0.04591 -0.23000
N 	N 	0.76325 0.08001 0.10871 -0.15300
N 	N 	0.51864 0.69520 0.53090 -0.25900
N 	N 	0.46418 0.03340 0.28168 -0.26500
N 	N 	0.52859 0.79039 0.23865 -0.22600
N 	N 	0.51164 0.73760 0.45816 -0.22600
N 	N 	0.51619 0.82489 0.36333 -0.15100
N 	N 	0.53203 0.78915 0.32959 -0.15000
N 	N 	0.52689 0.85191 0.29965 -0.14900
N 	N 	0.49501 0.95271 0.30339 -0.22900
N 	N 	0.54591 0.99361 0.25593 -0.23000
N 	N 	0.60871 0.04803 0.26325 -0.15300
N 	N 	0.75526 0.53090 0.69520 -0.25900
N 	N 	0.72074 0.28168 0.03340 -0.26500
N 	N 	0.94237 0.23865 0.79039 -0.22600
N 	N 	0.79260 0.45816 0.73760 -0.22600
N 	N 	0.79559 0.36333 0.82489 -0.15100
N 	N 	0.84923 0.32959 0.78915 -0.15000
N 	N 	0.82155 0.29965 0.85191 -0.14900
N 	N 	0.74889 0.30339 0.95271 -0.22900
N 	N 	0.70455 0.25593 0.99361 -0.23000
N 	N 	0.58001 0.26325 0.04803 -0.15300
N 	N 	0.19520 0.01864 0.25526 -0.25900
N 	N 	0.53340 0.96418 0.22074 -0.26500
N 	N 	0.29039 0.02859 0.44237 -0.22600
N 	N 	0.23760 0.01164 0.29260 -0.22600
N 	N 	0.32489 0.01619 0.29559 -0.15100
N 	N 	0.28915 0.03203 0.34923 -0.15000
N 	N 	0.35191 0.02689 0.32155 -0.14900
N 	N 	0.45271 0.99501 0.24889 -0.22900
N 	N 	0.49361 0.04591 0.20455 -0.23000
N 	N 	0.54803 0.10871 0.08001 -0.15300
N 	N 	0.51864 0.25526 0.69520 -0.25900
N 	N 	0.46418 0.22074 0.03340 -0.26500
N 	N 	0.52859 0.44237 0.79039 -0.22600
N 	N 	0.51164 0.29260 0.73760 -0.22600
N 	N 	0.51619 0.29559 0.82489 -0.15100
N 	N 	0.53203 0.34923 0.78915 -0.15000
N 	N 	0.52689 0.32155 0.85191 -0.14900
N 	N 	0.49501 0.24889 0.95271 -0.22900
N 	N 	0.54591 0.20455 0.99361 -0.23000
N 	N 	0.60871 0.08001 0.04803 -0.15300
N 	N 	0.03090 0.69520 0.25526 -0.25900
N 	N 	0.78168 0.03340 0.22074 -0.26500
N 	N 	0.73865 0.79039 0.44237 -0.22600
N 	N 	0.95816 0.73760 0.29260 -0.22600
N 	N 	0.86333 0.82489 0.29559 -0.15100
N 	N 	0.82959 0.78915 0.34923 -0.15000
N 	N 	0.79965 0.85191 0.32155 -0.14900
N 	N 	0.80339 0.95271 0.24889 -0.22900
N 	N 	0.75593 0.99361 0.20455 -0.23000
N 	N 	0.76325 0.04803 0.08001 -0.15300
N 	N 	0.19520 0.53090 0.01864 -0.25900
N 	N 	0.53340 0.28168 0.96418 -0.26500
N 	N 	0.29039 0.23865 0.02859 -0.22600
N 	N 	0.23760 0.45816 0.01164 -0.22600
N 	N 	0.32489 0.36333 0.01619 -0.15100
N 	N 	0.28915 0.32959 0.03203 -0.15000
N 	N 	0.35191 0.29965 0.02689 -0.14900
N 	N 	0.45271 0.30339 0.99501 -0.22900
N 	N 	0.49361 0.25593 0.04591 -0.23000
N 	N 	0.54803 0.26325 0.10871 -0.15300
N 	N 	0.75526 0.01864 0.53090 -0.25900
N 	N 	0.72074 0.96418 0.28168 -0.26500
N 	N 	0.94237 0.02859 0.23865 -0.22600
N 	N 	0.79260 0.01164 0.45816 -0.22600
N 	N 	0.79559 0.01619 0.36333 -0.15100
N 	N 	0.84923 0.03203 0.32959 -0.15000
N 	N 	0.82155 0.02689 0.29965 -0.14900
N 	N 	0.74889 0.99501 0.30339 -0.22900
N 	N 	0.70455 0.04591 0.25593 -0.23000
N 	N 	0.58001 0.10871 0.26325 -0.15300
N 	N 	0.25526 0.19520 0.03090 -0.25900
N 	N 	0.22074 0.53340 0.78168 -0.26500
N 	N 	0.44237 0.29039 0.73865 -0.22600
N 	N 	0.29260 0.23760 0.95816 -0.22600
N 	N 	0.29559 0.32489 0.86333 -0.15100
N 	N 	0.34923 0.28915 0.82959 -0.15000
N 	N 	0.32155 0.35191 0.79965 -0.14900
N 	N 	0.24889 0.45271 0.80339 -0.22900
N 	N 	0.20455 0.49361 0.75593 -0.23000
N 	N 	0.08001 0.54803 0.76325 -0.15300
N 	N 	0.69520 0.75526 0.51864 -0.25900
N 	N 	0.03340 0.72074 0.46418 -0.26500
N 	N 	0.79039 0.94237 0.52859 -0.22600
N 	N 	0.73760 0.79260 0.51164 -0.22600
N 	N 	0.82489 0.79559 0.51619 -0.15100
N 	N 	0.78915 0.84923 0.53203 -0.15000
N 	N 	0.85191 0.82155 0.52689 -0.14900
N 	N 	0.95271 0.74889 0.49501 -0.22900
N 	N 	0.99361 0.70455 0.54591 -0.23000
N 	N 	0.04803 0.58001 0.60871 -0.15300
N 	N 	0.53090 0.51864 0.75526 -0.25900
N 	N 	0.28168 0.46418 0.72074 -0.26500
N 	N 	0.23865 0.52859 0.94237 -0.22600
N 	N 	0.45816 0.51164 0.79260 -0.22600
N 	N 	0.36333 0.51619 0.79559 -0.15100
N 	N 	0.32959 0.53203 0.84923 -0.15000
N 	N 	0.29965 0.52689 0.82155 -0.14900
N 	N 	0.30339 0.49501 0.74889 -0.22900
N 	N 	0.25593 0.54591 0.70455 -0.23000
N 	N 	0.26325 0.60871 0.58001 -0.15300
N 	N 	0.01864 0.03090 0.19520 -0.25900
N 	N 	0.96418 0.78168 0.53340 -0.26500
N 	N 	0.02859 0.73865 0.29039 -0.22600
N 	N 	0.01164 0.95816 0.23760 -0.22600
N 	N 	0.01619 0.86333 0.32489 -0.15100
N 	N 	0.03203 0.82959 0.28915 -0.15000
N 	N 	0.02689 0.79965 0.35191 -0.14900
N 	N 	0.99501 0.80339 0.45271 -0.22900
N 	N 	0.04591 0.75593 0.49361 -0.23000
N 	N 	0.10871 0.76325 0.54803 -0.15300
N 	N 	0.25526 0.03090 0.51864 -0.25900
N 	N 	0.22074 0.78168 0.46418 -0.26500
N 	N 	0.44237 0.73865 0.52859 -0.22600
N 	N 	0.29260 0.95816 0.51164 -0.22600
N 	N 	0.29559 0.86333 0.51619 -0.15100
N 	N 	0.34923 0.82959 0.53203 -0.15000
N 	N 	0.32155 0.79965 0.52689 -0.14900
N 	N 	0.24889 0.80339 0.49501 -0.22900
N 	N 	0.20455 0.75593 0.54591 -0.23000
N 	N 	0.08001 0.76325 0.60871 -0.15300
N 	N 	0.69520 0.51864 0.03090 -0.25900
N 	N 	0.03340 0.46418 0.78168 -0.26500
N 	N 	0.79039 0.52859 0.73865 -0.22600
N 	N 	0.73760 0.51164 0.95816 -0.22600
N 	N 	0.82489 0.51619 0.86333 -0.15100
N 	N 	0.78915 0.53203 0.82959 -0.15000
N 	N 	0.85191 0.52689 0.79965 -0.14900
N 	N 	0.95271 0.49501 0.80339 -0.22900
N 	N 	0.99361 0.54591 0.75593 -0.23000
N 	N 	0.04803 0.60871 0.76325 -0.15300
N 	N 	0.53090 0.75526 0.19520 -0.25900
N 	N 	0.28168 0.72074 0.53340 -0.26500
N 	N 	0.23865 0.94237 0.29039 -0.22600
N 	N 	0.45816 0.79260 0.23760 -0.22600
N 	N 	0.36333 0.79559 0.32489 -0.15100
N 	N 	0.32959 0.84923 0.28915 -0.15000
N 	N 	0.29965 0.82155 0.35191 -0.14900
N 	N 	0.30339 0.74889 0.45271 -0.22900
N 	N 	0.25593 0.70455 0.49361 -0.23000
N 	N 	0.26325 0.58001 0.54803 -0.15300
N 	N 	0.01864 0.19520 0.75526 -0.25900
N 	N 	0.96418 0.53340 0.72074 -0.26500
N 	N 	0.02859 0.29039 0.94237 -0.22600
N 	N 	0.01164 0.23760 0.79260 -0.22600
N 	N 	0.01619 0.32489 0.79559 -0.15100
N 	N 	0.03203 0.28915 0.84923 -0.15000
N 	N 	0.02689 0.35191 0.82155 -0.14900
N 	N 	0.99501 0.45271 0.74889 -0.22900
N 	N 	0.04591 0.49361 0.70455 -0.23000
N 	N 	0.10871 0.54803 0.58001 -0.15300
N 	N 	0.25526 0.51864 0.19520 -0.25900
N 	N 	0.22074 0.46418 0.53340 -0.26500
N 	N 	0.44237 0.52859 0.29039 -0.22600
N 	N 	0.29260 0.51164 0.23760 -0.22600
N 	N 	0.29559 0.51619 0.32489 -0.15100
N 	N 	0.34923 0.53203 0.28915 -0.15000
N 	N 	0.32155 0.52689 0.35191 -0.14900
N 	N 	0.24889 0.49501 0.45271 -0.22900
N 	N 	0.20455 0.54591 0.49361 -0.23000
N 	N 	0.08001 0.60871 0.54803 -0.15300
N 	N 	0.69520 0.03090 0.75526 -0.25900
N 	N 	0.03340 0.78168 0.72074 -0.26500
N 	N 	0.79039 0.73865 0.94237 -0.22600
N 	N 	0.73760 0.95816 0.79260 -0.22600
N 	N 	0.82489 0.86333 0.79559 -0.15100
N 	N 	0.78915 0.82959 0.84923 -0.15000
N 	N 	0.85191 0.79965 0.82155 -0.14900
N 	N 	0.95271 0.80339 0.74889 -0.22900
N 	N 	0.99361 0.75593 0.70455 -0.23000
N 	N 	0.04803 0.76325 0.58001 -0.15300
N 	N 	0.53090 0.19520 0.51864 -0.25900
N 	N 	0.28168 0.53340 0.46418 -0.26500
N 	N 	0.23865 0.29039 0.52859 -0.22600
N 	N 	0.45816 0.23760 0.51164 -0.22600
N 	N 	0.36333 0.32489 0.51619 -0.15100
N 	N 	0.32959 0.28915 0.53203 -0.15000
N 	N 	0.29965 0.35191 0.52689 -0.14900
N 	N 	0.30339 0.45271 0.49501 -0.22900
N 	N 	0.25593 0.49361 0.54591 -0.23000
N 	N 	0.26325 0.54803 0.60871 -0.15300
N 	N 	0.01864 0.75526 0.03090 -0.25900
N 	N 	0.96418 0.72074 0.78168 -0.26500
N 	N 	0.02859 0.94237 0.73865 -0.22600
N 	N 	0.01164 0.79260 0.95816 -0.22600
N 	N 	0.01619 0.79559 0.86333 -0.15100
N 	N 	0.03203 0.84923 0.82959 -0.15000
N 	N 	0.02689 0.82155 0.79965 -0.14900
N 	N 	0.99501 0.74889 0.80339 -0.22900
N 	N 	0.04591 0.70455 0.75593 -0.23000
N 	N 	0.10871 0.58001 0.76325 -0.15300
N 	N 	0.80480 0.74474 0.46910 -0.25900
N 	N 	0.46660 0.77926 0.71832 -0.26500
N 	N 	0.70961 0.55763 0.76135 -0.22600
N 	N 	0.76240 0.70740 0.54184 -0.22600
N 	N 	0.67511 0.70441 0.63667 -0.15100
N 	N 	0.71085 0.65077 0.67041 -0.15000
N 	N 	0.64809 0.67845 0.70035 -0.14900
N 	N 	0.54729 0.75111 0.69661 -0.22900
N 	N 	0.50639 0.79545 0.74407 -0.23000
N 	N 	0.45197 0.91999 0.73675 -0.15300
N 	N 	0.24474 0.30480 0.98136 -0.25900
N 	N 	0.27926 0.96660 0.03582 -0.26500
N 	N 	0.05763 0.20961 0.97141 -0.22600
N 	N 	0.20740 0.26240 0.98836 -0.22600
N 	N 	0.20441 0.17511 0.98381 -0.15100
N 	N 	0.15077 0.21085 0.96797 -0.15000
N 	N 	0.17845 0.14809 0.97311 -0.14900
N 	N 	0.25111 0.04729 0.00499 -0.22900
N 	N 	0.29545 0.00639 0.95409 -0.23000
N 	N 	0.41999 0.95197 0.89129 -0.15300
N 	N 	0.48136 0.46910 0.74474 -0.25900
N 	N 	0.53582 0.71832 0.77926 -0.26500
N 	N 	0.47141 0.76135 0.55763 -0.22600
N 	N 	0.48836 0.54184 0.70740 -0.22600
N 	N 	0.48381 0.63667 0.70441 -0.15100
N 	N 	0.46797 0.67041 0.65077 -0.15000
N 	N 	0.47311 0.70035 0.67845 -0.14900
N 	N 	0.50499 0.69661 0.75111 -0.22900
N 	N 	0.45409 0.74407 0.79545 -0.23000
N 	N 	0.39129 0.73675 0.91999 -0.15300
N 	N 	0.96910 0.98136 0.30480 -0.25900
N 	N 	0.21832 0.03582 0.96660 -0.26500
N 	N 	0.26135 0.97141 0.20961 -0.22600
N 	N 	0.04184 0.98836 0.26240 -0.22600
N 	N 	0.13667 0.98381 0.17511 -0.15100
N 	N 	0.17041 0.96797 0.21085 -0.15000
N 	N 	0.20035 0.97311 0.14809 -0.14900
N 	N 	0.19661 0.00499 0.04729 -0.22900
N 	N 	0.24407 0.95409 0.00639 -0.23000
N 	N 	0.23675 0.89129 0.95197 -0.15300
N 	N 	0.96910 0.74474 0.98136 -0.25900
N 	N 	0.21832 0.77926 0.03582 -0.26500
N 	N 	0.26135 0.55763 0.97141 -0.22600
N 	N 	0.04184 0.70740 0.98836 -0.22600
N 	N 	0.13667 0.70441 0.98381 -0.15100
N 	N 	0.17041 0.65077 0.96797 -0.15000
N 	N 	0.20035 0.67845 0.97311 -0.14900
N 	N 	0.19661 0.75111 0.00499 -0.22900
N 	N 	0.24407 0.79545 0.95409 -0.23000
N 	N 	0.23675 0.91999 0.89129 -0.15300
N 	N 	0.48136 0.30480 0.46910 -0.25900
N 	N 	0.53582 0.96660 0.71832 -0.26500
N 	N 	0.47141 0.20961 0.76135 -0.22600
N 	N 	0.48836 0.26240 0.54184 -0.22600
N 	N 	0.48381 0.17511 0.63667 -0.15100
N 	N 	0.46797 0.21085 0.67041 -0.15000
N 	N 	0.47311 0.14809 0.70035 -0.14900
N 	N 	0.50499 0.04729 0.69661 -0.22900
N 	N 	0.45409 0.00639 0.74407 -0.23000
N 	N 	0.39129 0.95197 0.73675 -0.15300
N 	N 	0.24474 0.46910 0.30480 -0.25900
N 	N 	0.27926 0.71832 0.96660 -0.26500
N 	N 	0.05763 0.76135 0.20961 -0.22600
N 	N 	0.20740 0.54184 0.26240 -0.22600
N 	N 	0.20441 0.63667 0.17511 -0.15100
N 	N 	0.15077 0.67041 0.21085 -0.15000
N 	N 	0.17845 0.70035 0.14809 -0.14900
N 	N 	0.25111 0.69661 0.04729 -0.22900
N 	N 	0.29545 0.74407 0.00639 -0.23000
N 	N 	0.41999 0.73675 0.95197 -0.15300
N 	N 	0.80480 0.98136 0.74474 -0.25900
N 	N 	0.46660 0.03582 0.77926 -0.26500
N 	N 	0.70961 0.97141 0.55763 -0.22600
N 	N 	0.76240 0.98836 0.70740 -0.22600
N 	N 	0.67511 0.98381 0.70441 -0.15100
N 	N 	0.71085 0.96797 0.65077 -0.15000
N 	N 	0.64809 0.97311 0.67845 -0.14900
N 	N 	0.54729 0.00499 0.75111 -0.22900
N 	N 	0.50639 0.95409 0.79545 -0.23000
N 	N 	0.45197 0.89129 0.91999 -0.15300
N 	N 	0.48136 0.74474 0.30480 -0.25900
N 	N 	0.53582 0.77926 0.96660 -0.26500
N 	N 	0.47141 0.55763 0.20961 -0.22600
N 	N 	0.48836 0.70740 0.26240 -0.22600
N 	N 	0.48381 0.70441 0.17511 -0.15100
N 	N 	0.46797 0.65077 0.21085 -0.15000
N 	N 	0.47311 0.67845 0.14809 -0.14900
N 	N 	0.50499 0.75111 0.04729 -0.22900
N 	N 	0.45409 0.79545 0.00639 -0.23000
N 	N 	0.39129 0.91999 0.95197 -0.15300
N 	N 	0.96910 0.30480 0.74474 -0.25900
N 	N 	0.21832 0.96660 0.77926 -0.26500
N 	N 	0.26135 0.20961 0.55763 -0.22600
N 	N 	0.04184 0.26240 0.70740 -0.22600
N 	N 	0.13667 0.17511 0.70441 -0.15100
N 	N 	0.17041 0.21085 0.65077 -0.15000
N 	N 	0.20035 0.14809 0.67845 -0.14900
N 	N 	0.19661 0.04729 0.75111 -0.22900
N 	N 	0.24407 0.00639 0.79545 -0.23000
N 	N 	0.23675 0.95197 0.91999 -0.15300
N 	N 	0.80480 0.46910 0.98136 -0.25900
N 	N 	0.46660 0.71832 0.03582 -0.26500
N 	N 	0.70961 0.76135 0.97141 -0.22600
N 	N 	0.76240 0.54184 0.98836 -0.22600
N 	N 	0.67511 0.63667 0.98381 -0.15100
N 	N 	0.71085 0.67041 0.96797 -0.15000
N 	N 	0.64809 0.70035 0.97311 -0.14900
N 	N 	0.54729 0.69661 0.00499 -0.22900
N 	N 	0.50639 0.74407 0.95409 -0.23000
N 	N 	0.45197 0.73675 0.89129 -0.15300
N 	N 	0.24474 0.98136 0.46910 -0.25900
N 	N 	0.27926 0.03582 0.71832 -0.26500
N 	N 	0.05763 0.97141 0.76135 -0.22600
N 	N 	0.20740 0.98836 0.54184 -0.22600
N 	N 	0.20441 0.98381 0.63667 -0.15100
N 	N 	0.15077 0.96797 0.67041 -0.15000
N 	N 	0.17845 0.97311 0.70035 -0.14900
N 	N 	0.25111 0.00499 0.69661 -0.22900
N 	N 	0.29545 0.95409 0.74407 -0.23000
N 	N 	0.41999 0.89129 0.73675 -0.15300
