data_crystal

_cell_length_a 45.05970
_cell_length_b 45.05970
_cell_length_c 45.05970
_cell_angle_alpha 60.00000
_cell_angle_beta  60.00000
_cell_angle_gamma 60.00000

_symmetry_space_group_name_	'P 1'
_symmetry_space_group_name_H-M	'P 1'

loop_
_symmetry_equiv_pos_as_xyz
  x,y,z

loop_
_atom_site_label
_atom_site_type_symbol
_atom_site_fract_x
_atom_site_fract_y
_atom_site_fract_z
_atom_site_charge
Co	Co	0.50816 0.25000 0.49184 1.12000
Co	Co	0.75000 0.00816 0.75000 1.12000
Co	Co	0.99184 0.75000 0.00816 1.12000
Co	Co	0.25000 0.49184 0.25000 1.12000
Co	Co	0.50816 0.49184 0.75000 1.12000
Co	Co	0.75000 0.75000 0.49184 1.12000
Co	Co	0.99184 0.00816 0.25000 1.12000
Co	Co	0.25000 0.25000 0.00816 1.12000
Co	Co	0.50816 0.75000 0.25000 1.12000
Co	Co	0.75000 0.49184 0.00816 1.12000
Co	Co	0.99184 0.25000 0.75000 1.12000
Co	Co	0.25000 0.00816 0.49184 1.12000
Co	Co	0.49184 0.75000 0.50816 1.12000
Co	Co	0.25000 0.99184 0.25000 1.12000
Co	Co	0.00816 0.25000 0.99184 1.12000
Co	Co	0.75000 0.50816 0.75000 1.12000
Co	Co	0.49184 0.50816 0.25000 1.12000
Co	Co	0.25000 0.25000 0.50816 1.12000
Co	Co	0.00816 0.99184 0.75000 1.12000
Co	Co	0.75000 0.75000 0.99184 1.12000
Co	Co	0.49184 0.25000 0.75000 1.12000
Co	Co	0.25000 0.50816 0.99184 1.12000
Co	Co	0.00816 0.75000 0.25000 1.12000
Co	Co	0.75000 0.99184 0.50816 1.12000
Co	Co	0.50223 0.00223 0.74777 1.12300
Co	Co	0.24777 0.74777 0.00223 1.12300
Co	Co	0.50223 0.74777 0.74777 1.12300
Co	Co	0.24777 0.00223 0.00223 1.12300
Co	Co	0.50223 0.74777 0.00223 1.12300
Co	Co	0.24777 0.00223 0.74777 1.12300
Co	Co	0.99777 0.49777 0.75223 1.12300
Co	Co	0.25223 0.75223 0.49777 1.12300
Co	Co	0.25223 0.49777 0.75223 1.12300
Co	Co	0.99777 0.75223 0.49777 1.12300
Co	Co	0.25223 0.49777 0.49777 1.12300
Co	Co	0.99777 0.75223 0.75223 1.12300
Co	Co	0.49777 0.99777 0.25223 1.12300
Co	Co	0.75223 0.25223 0.99777 1.12300
Co	Co	0.49777 0.25223 0.25223 1.12300
Co	Co	0.75223 0.99777 0.99777 1.12300
Co	Co	0.49777 0.25223 0.99777 1.12300
Co	Co	0.75223 0.99777 0.25223 1.12300
Co	Co	0.00223 0.50223 0.24777 1.12300
Co	Co	0.74777 0.24777 0.50223 1.12300
Co	Co	0.74777 0.50223 0.24777 1.12300
Co	Co	0.00223 0.24777 0.50223 1.12300
Co	Co	0.74777 0.50223 0.50223 1.12300
Co	Co	0.00223 0.24777 0.24777 1.12300
H 	H 	0.45920 0.18540 0.81420 -0.00200
H 	H 	0.44100 0.14240 0.82040 0.06500
H 	H 	0.44770 0.13650 0.76830 0.03600
H 	H 	0.47880 0.22520 0.70900 0.01100
H 	H 	0.48880 0.31240 0.51900 -0.00200
H 	H 	0.47820 0.32040 0.57080 0.06400
H 	H 	0.47410 0.27210 0.62590 0.03600
H 	H 	0.49040 0.21140 0.57340 0.01300
H 	H 	0.49280 0.08200 0.71700 0.01000
H 	H 	0.50430 0.12530 0.61030 0.03600
H 	H 	0.52010 0.06670 0.61150 0.06700
H 	H 	0.51920 0.01860 0.66580 0.00000
H 	H 	0.55840 0.92880 0.77380 0.00000
H 	H 	0.56720 0.88020 0.82520 0.06600
H 	H 	0.51810 0.87590 0.88010 0.03700
H 	H 	0.45580 0.97100 0.82760 0.01100
H 	H 	0.68540 0.95920 0.54120 -0.00200
H 	H 	0.64240 0.94100 0.59620 0.06500
H 	H 	0.63650 0.94770 0.64750 0.03600
H 	H 	0.72520 0.97880 0.58700 0.01100
H 	H 	0.81240 0.98880 0.67980 -0.00200
H 	H 	0.82040 0.97820 0.63060 0.06400
H 	H 	0.77210 0.97410 0.62790 0.03600
H 	H 	0.71140 0.99040 0.72480 0.01300
H 	H 	0.58200 0.99280 0.70820 0.01000
H 	H 	0.62530 0.00430 0.76010 0.03600
H 	H 	0.56670 0.02010 0.80170 0.06700
H 	H 	0.51860 0.01920 0.79640 0.00000
H 	H 	0.42880 0.05840 0.73900 0.00000
H 	H 	0.38020 0.06720 0.72740 0.06600
H 	H 	0.37590 0.01810 0.72590 0.03700
H 	H 	0.47100 0.95580 0.74560 0.01100
H 	H 	0.31420 0.54120 0.95920 -0.00200
H 	H 	0.32040 0.59620 0.94100 0.06500
H 	H 	0.26830 0.64750 0.94770 0.03600
H 	H 	0.20900 0.58700 0.97880 0.01100
H 	H 	0.01900 0.67980 0.98880 -0.00200
H 	H 	0.07080 0.63060 0.97820 0.06400
H 	H 	0.12590 0.62790 0.97410 0.03600
H 	H 	0.07340 0.72480 0.99040 0.01300
H 	H 	0.21700 0.70820 0.99280 0.01000
H 	H 	0.11030 0.76010 0.00430 0.03600
H 	H 	0.11150 0.80170 0.02010 0.06700
H 	H 	0.16580 0.79640 0.01920 0.00000
H 	H 	0.27380 0.73900 0.05840 0.00000
H 	H 	0.32520 0.72740 0.06720 0.06600
H 	H 	0.38010 0.72590 0.01810 0.03700
H 	H 	0.32760 0.74560 0.95580 0.01100
H 	H 	0.04120 0.81420 0.18540 -0.00100
H 	H 	0.09620 0.82040 0.14240 0.06500
H 	H 	0.14750 0.76830 0.13650 0.03600
H 	H 	0.08700 0.70900 0.22520 0.01100
H 	H 	0.17980 0.51900 0.31240 -0.00200
H 	H 	0.13060 0.57080 0.32040 0.06400
H 	H 	0.12790 0.62590 0.27210 0.03600
H 	H 	0.22480 0.57340 0.21140 0.01300
H 	H 	0.20820 0.71700 0.08200 0.01000
H 	H 	0.26010 0.61030 0.12530 0.03600
H 	H 	0.30170 0.61150 0.06670 0.06700
H 	H 	0.29640 0.66580 0.01860 0.00000
H 	H 	0.23900 0.77380 0.92880 0.00000
H 	H 	0.22740 0.82520 0.88020 0.06600
H 	H 	0.22590 0.88010 0.87590 0.03700
H 	H 	0.24560 0.82760 0.97100 0.01100
H 	H 	0.45920 0.81420 0.54120 -0.00200
H 	H 	0.44100 0.82040 0.59620 0.06500
H 	H 	0.44770 0.76830 0.64750 0.03600
H 	H 	0.47880 0.70900 0.58700 0.01100
H 	H 	0.48880 0.51900 0.67980 -0.00200
H 	H 	0.47820 0.57080 0.63060 0.06400
H 	H 	0.47410 0.62590 0.62790 0.03600
H 	H 	0.49040 0.57340 0.72480 0.01300
H 	H 	0.49280 0.71700 0.70820 0.01000
H 	H 	0.50430 0.61030 0.76010 0.03600
H 	H 	0.52010 0.61150 0.80170 0.06700
H 	H 	0.51920 0.66580 0.79640 0.00000
H 	H 	0.55840 0.77380 0.73900 0.00000
H 	H 	0.56720 0.82520 0.72740 0.06600
H 	H 	0.51810 0.88010 0.72590 0.03700
H 	H 	0.45580 0.82760 0.74560 0.01100
H 	H 	0.68540 0.54120 0.81420 -0.00200
H 	H 	0.64240 0.59620 0.82040 0.06500
H 	H 	0.63650 0.64750 0.76830 0.03600
H 	H 	0.72520 0.58700 0.70900 0.01100
H 	H 	0.81240 0.67980 0.51900 -0.00200
H 	H 	0.82040 0.63060 0.57080 0.06400
H 	H 	0.77210 0.62790 0.62590 0.03600
H 	H 	0.71140 0.72480 0.57340 0.01300
H 	H 	0.58200 0.70820 0.71700 0.01000
H 	H 	0.62530 0.76010 0.61030 0.03600
H 	H 	0.56670 0.80170 0.61150 0.06700
H 	H 	0.51860 0.79640 0.66580 0.00000
H 	H 	0.42880 0.73900 0.77380 0.00000
H 	H 	0.38020 0.72740 0.82520 0.06600
H 	H 	0.37590 0.72590 0.88010 0.03700
H 	H 	0.47100 0.74560 0.82760 0.01100
H 	H 	0.31420 0.95920 0.18540 -0.00200
H 	H 	0.32040 0.94100 0.14240 0.06500
H 	H 	0.26830 0.94770 0.13650 0.03600
H 	H 	0.20900 0.97880 0.22520 0.01100
H 	H 	0.01900 0.98880 0.31240 -0.00200
H 	H 	0.07080 0.97820 0.32040 0.06400
H 	H 	0.12590 0.97410 0.27210 0.03600
H 	H 	0.07340 0.99040 0.21140 0.01300
H 	H 	0.21700 0.99280 0.08200 0.01000
H 	H 	0.11030 0.00430 0.12530 0.03600
H 	H 	0.11150 0.02010 0.06670 0.06700
H 	H 	0.16580 0.01920 0.01860 0.00000
H 	H 	0.27380 0.05840 0.92880 0.00100
H 	H 	0.32520 0.06720 0.88020 0.06700
H 	H 	0.38010 0.01810 0.87590 0.03800
H 	H 	0.32760 0.95580 0.97100 0.01200
H 	H 	0.04120 0.18540 0.95920 -0.00000
H 	H 	0.09620 0.14240 0.94100 0.06600
H 	H 	0.14750 0.13650 0.94770 0.03700
H 	H 	0.08700 0.22520 0.97880 0.01200
H 	H 	0.17980 0.31240 0.98880 -0.00100
H 	H 	0.13060 0.32040 0.97820 0.06500
H 	H 	0.12790 0.27210 0.97410 0.03700
H 	H 	0.22480 0.21140 0.99040 0.01400
H 	H 	0.20820 0.08200 0.99280 0.01100
H 	H 	0.26010 0.12530 0.00430 0.03700
H 	H 	0.30170 0.06670 0.02010 0.06800
H 	H 	0.29640 0.01860 0.01920 0.00100
H 	H 	0.23900 0.92880 0.05840 0.00100
H 	H 	0.22740 0.88020 0.06720 0.06700
H 	H 	0.22590 0.87590 0.01810 0.03800
H 	H 	0.24560 0.97100 0.95580 0.01200
H 	H 	0.45920 0.54120 0.18540 -0.00100
H 	H 	0.44100 0.59620 0.14240 0.06600
H 	H 	0.44770 0.64750 0.13650 0.03700
H 	H 	0.47880 0.58700 0.22520 0.01200
H 	H 	0.48880 0.67980 0.31240 -0.00100
H 	H 	0.47820 0.63060 0.32040 0.06500
H 	H 	0.47410 0.62790 0.27210 0.03700
H 	H 	0.49040 0.72480 0.21140 0.01400
H 	H 	0.49280 0.70820 0.08200 0.01100
H 	H 	0.50430 0.76010 0.12530 0.03700
H 	H 	0.52010 0.80170 0.06670 0.06800
H 	H 	0.51920 0.79640 0.01860 0.00100
H 	H 	0.55840 0.73900 0.92880 0.00100
H 	H 	0.56720 0.72740 0.88020 0.06700
H 	H 	0.51810 0.72590 0.87590 0.03800
H 	H 	0.45580 0.74560 0.97100 0.01200
H 	H 	0.68540 0.81420 0.95920 -0.00000
H 	H 	0.64240 0.82040 0.94100 0.06600
H 	H 	0.63650 0.76830 0.94770 0.03700
H 	H 	0.72520 0.70900 0.97880 0.01200
H 	H 	0.81240 0.51900 0.98880 -0.00100
H 	H 	0.82040 0.57080 0.97820 0.06500
H 	H 	0.77210 0.62590 0.97410 0.03700
H 	H 	0.71140 0.57340 0.99040 0.01400
H 	H 	0.58200 0.71700 0.99280 0.01100
H 	H 	0.62530 0.61030 0.00430 0.03700
H 	H 	0.56670 0.61150 0.02010 0.06800
H 	H 	0.51860 0.66580 0.01920 0.00100
H 	H 	0.42880 0.77380 0.05840 0.00100
H 	H 	0.38020 0.82520 0.06720 0.06700
H 	H 	0.37590 0.88010 0.01810 0.03800
H 	H 	0.47100 0.82760 0.95580 0.01200
H 	H 	0.31420 0.18540 0.54120 -0.00100
H 	H 	0.32040 0.14240 0.59620 0.06600
H 	H 	0.26830 0.13650 0.64750 0.03700
H 	H 	0.20900 0.22520 0.58700 0.01200
H 	H 	0.01900 0.31240 0.67980 -0.00100
H 	H 	0.07080 0.32040 0.63060 0.06500
H 	H 	0.12590 0.27210 0.62790 0.03700
H 	H 	0.07340 0.21140 0.72480 0.01400
H 	H 	0.21700 0.08200 0.70820 0.01100
H 	H 	0.11030 0.12530 0.76010 0.03700
H 	H 	0.11150 0.06670 0.80170 0.06800
H 	H 	0.16580 0.01860 0.79640 0.00100
H 	H 	0.27380 0.92880 0.73900 0.00100
H 	H 	0.32520 0.88020 0.72740 0.06700
H 	H 	0.38010 0.87590 0.72590 0.03800
H 	H 	0.32760 0.97100 0.74560 0.01200
H 	H 	0.04120 0.95920 0.81420 -0.00000
H 	H 	0.09620 0.94100 0.82040 0.06600
H 	H 	0.14750 0.94770 0.76830 0.03700
H 	H 	0.08700 0.97880 0.70900 0.01200
H 	H 	0.17980 0.98880 0.51900 -0.00100
H 	H 	0.13060 0.97820 0.57080 0.06500
H 	H 	0.12790 0.97410 0.62590 0.03700
H 	H 	0.22480 0.99040 0.57340 0.01400
H 	H 	0.20820 0.99280 0.71700 0.01100
H 	H 	0.26010 0.00430 0.61030 0.03700
H 	H 	0.30170 0.02010 0.61150 0.06800
H 	H 	0.29640 0.01920 0.66580 0.00100
H 	H 	0.23900 0.05840 0.77380 0.00100
H 	H 	0.22740 0.06720 0.82520 0.06700
H 	H 	0.22590 0.01810 0.88010 0.03800
H 	H 	0.24560 0.95580 0.82760 0.01200
H 	H 	0.81460 0.54080 0.68580 -0.00100
H 	H 	0.85760 0.55900 0.67960 0.06600
H 	H 	0.86350 0.55230 0.73170 0.03700
H 	H 	0.77480 0.52120 0.79100 0.01200
H 	H 	0.68760 0.51120 0.98100 -0.00100
H 	H 	0.67960 0.52180 0.92920 0.06500
H 	H 	0.72790 0.52590 0.87410 0.03700
H 	H 	0.78860 0.50960 0.92660 0.01400
H 	H 	0.91800 0.50720 0.78300 0.01100
H 	H 	0.87470 0.49570 0.88970 0.03700
H 	H 	0.93330 0.47990 0.88850 0.06800
H 	H 	0.98140 0.48080 0.83420 0.00100
H 	H 	0.07120 0.44160 0.72620 0.00100
H 	H 	0.11980 0.43280 0.67480 0.06700
H 	H 	0.12410 0.48190 0.61990 0.03800
H 	H 	0.02900 0.54420 0.67240 0.01200
H 	H 	0.04080 0.31460 0.95880 -0.00000
H 	H 	0.05900 0.35760 0.90380 0.06600
H 	H 	0.05230 0.36350 0.85250 0.03700
H 	H 	0.02120 0.27480 0.91300 0.01200
H 	H 	0.01120 0.18760 0.82020 -0.00100
H 	H 	0.02180 0.17960 0.86940 0.06500
H 	H 	0.02590 0.22790 0.87210 0.03700
H 	H 	0.00960 0.28860 0.77520 0.01400
H 	H 	0.00720 0.41800 0.79180 0.01100
H 	H 	0.99570 0.37470 0.73990 0.03700
H 	H 	0.97990 0.43330 0.69830 0.06800
H 	H 	0.98080 0.48140 0.70360 0.00100
H 	H 	0.94160 0.57120 0.76100 0.00100
H 	H 	0.93280 0.61980 0.77260 0.06700
H 	H 	0.98190 0.62410 0.77410 0.03800
H 	H 	0.04420 0.52900 0.75440 0.01200
H 	H 	0.45880 0.68580 0.54080 -0.00100
H 	H 	0.40380 0.67960 0.55900 0.06600
H 	H 	0.35250 0.73170 0.55230 0.03700
H 	H 	0.41300 0.79100 0.52120 0.01200
H 	H 	0.32020 0.98100 0.51120 -0.00100
H 	H 	0.36940 0.92920 0.52180 0.06500
H 	H 	0.37210 0.87410 0.52590 0.03700
H 	H 	0.27520 0.92660 0.50960 0.01400
H 	H 	0.29180 0.78300 0.50720 0.01100
H 	H 	0.23990 0.88970 0.49570 0.03700
H 	H 	0.19830 0.88850 0.47990 0.06800
H 	H 	0.20360 0.83420 0.48080 0.00100
H 	H 	0.26100 0.72620 0.44160 0.00100
H 	H 	0.27260 0.67480 0.43280 0.06700
H 	H 	0.27410 0.61990 0.48190 0.03800
H 	H 	0.25440 0.67240 0.54420 0.01200
H 	H 	0.18580 0.95880 0.31460 -0.00000
H 	H 	0.17960 0.90380 0.35760 0.06600
H 	H 	0.23170 0.85250 0.36350 0.03700
H 	H 	0.29100 0.91300 0.27480 0.01200
H 	H 	0.48100 0.82020 0.18760 -0.00100
H 	H 	0.42920 0.86940 0.17960 0.06500
H 	H 	0.37410 0.87210 0.22790 0.03700
H 	H 	0.42660 0.77520 0.28860 0.01400
H 	H 	0.28300 0.79180 0.41800 0.01100
H 	H 	0.38970 0.73990 0.37470 0.03700
H 	H 	0.38850 0.69830 0.43330 0.06800
H 	H 	0.33420 0.70360 0.48140 0.00100
H 	H 	0.22620 0.76100 0.57120 0.00100
H 	H 	0.17480 0.77260 0.61980 0.06700
H 	H 	0.11990 0.77410 0.62410 0.03800
H 	H 	0.17240 0.75440 0.52900 0.01200
H 	H 	0.18580 0.54080 0.95880 -0.00000
H 	H 	0.17960 0.55900 0.90380 0.06600
H 	H 	0.23170 0.55230 0.85250 0.03700
H 	H 	0.29100 0.52120 0.91300 0.01200
H 	H 	0.48100 0.51120 0.82020 -0.00100
H 	H 	0.42920 0.52180 0.86940 0.06500
H 	H 	0.37410 0.52590 0.87210 0.03700
H 	H 	0.42660 0.50960 0.77520 0.01400
H 	H 	0.28300 0.50720 0.79180 0.01100
H 	H 	0.38970 0.49570 0.73990 0.03700
H 	H 	0.38850 0.47990 0.69830 0.06800
H 	H 	0.33420 0.48080 0.70360 0.00100
H 	H 	0.22620 0.44160 0.76100 0.00100
H 	H 	0.17480 0.43280 0.77260 0.06700
H 	H 	0.11990 0.48190 0.77410 0.03800
H 	H 	0.17240 0.54420 0.75440 0.01200
H 	H 	0.45880 0.31460 0.68580 -0.00100
H 	H 	0.40380 0.35760 0.67960 0.06600
H 	H 	0.35250 0.36350 0.73170 0.03700
H 	H 	0.41300 0.27480 0.79100 0.01200
H 	H 	0.32020 0.18760 0.98100 -0.00100
H 	H 	0.36940 0.17960 0.92920 0.06500
H 	H 	0.37210 0.22790 0.87410 0.03700
H 	H 	0.27520 0.28860 0.92660 0.01400
H 	H 	0.29180 0.41800 0.78300 0.01100
H 	H 	0.23990 0.37470 0.88970 0.03700
H 	H 	0.19830 0.43330 0.88850 0.06800
H 	H 	0.20360 0.48140 0.83420 0.00100
H 	H 	0.26100 0.57120 0.72620 0.00100
H 	H 	0.27260 0.61980 0.67480 0.06700
H 	H 	0.27410 0.62410 0.61990 0.03800
H 	H 	0.25440 0.52900 0.67240 0.01200
H 	H 	0.04080 0.68580 0.31460 -0.00100
H 	H 	0.05900 0.67960 0.35760 0.06600
H 	H 	0.05230 0.73170 0.36350 0.03700
H 	H 	0.02120 0.79100 0.27480 0.01200
H 	H 	0.01120 0.98100 0.18760 -0.00100
H 	H 	0.02180 0.92920 0.17960 0.06500
H 	H 	0.02590 0.87410 0.22790 0.03700
H 	H 	0.00960 0.92660 0.28860 0.01400
H 	H 	0.00720 0.78300 0.41800 0.01100
H 	H 	0.99570 0.88970 0.37470 0.03700
H 	H 	0.97990 0.88850 0.43330 0.06800
H 	H 	0.98080 0.83420 0.48140 0.00100
H 	H 	0.94160 0.72620 0.57120 0.00100
H 	H 	0.93280 0.67480 0.61980 0.06700
H 	H 	0.98190 0.61990 0.62410 0.03800
H 	H 	0.04420 0.67240 0.52900 0.01200
H 	H 	0.81460 0.95880 0.54080 -0.00000
H 	H 	0.85760 0.90380 0.55900 0.06600
H 	H 	0.86350 0.85250 0.55230 0.03700
H 	H 	0.77480 0.91300 0.52120 0.01200
H 	H 	0.68760 0.82020 0.51120 -0.00100
H 	H 	0.67960 0.86940 0.52180 0.06500
H 	H 	0.72790 0.87210 0.52590 0.03700
H 	H 	0.78860 0.77520 0.50960 0.01400
H 	H 	0.91800 0.79180 0.50720 0.01100
H 	H 	0.87470 0.73990 0.49570 0.03700
H 	H 	0.93330 0.69830 0.47990 0.06800
H 	H 	0.98140 0.70360 0.48080 0.00100
H 	H 	0.07120 0.76100 0.44160 0.00100
H 	H 	0.11980 0.77260 0.43280 0.06700
H 	H 	0.12410 0.77410 0.48190 0.03800
H 	H 	0.02900 0.75440 0.54420 0.01200
H 	H 	0.45880 0.54080 0.31460 -0.00100
H 	H 	0.40380 0.55900 0.35760 0.06600
H 	H 	0.35250 0.55230 0.36350 0.03700
H 	H 	0.41300 0.52120 0.27480 0.01200
H 	H 	0.32020 0.51120 0.18760 -0.00100
H 	H 	0.36940 0.52180 0.17960 0.06500
H 	H 	0.37210 0.52590 0.22790 0.03700
H 	H 	0.27520 0.50960 0.28860 0.01400
H 	H 	0.29180 0.50720 0.41800 0.01100
H 	H 	0.23990 0.49570 0.37470 0.03700
H 	H 	0.19830 0.47990 0.43330 0.06800
H 	H 	0.20360 0.48080 0.48140 0.00100
H 	H 	0.26100 0.44160 0.57120 0.00100
H 	H 	0.27260 0.43280 0.61980 0.06700
H 	H 	0.27410 0.48190 0.62410 0.03800
H 	H 	0.25440 0.54420 0.52900 0.01200
H 	H 	0.18580 0.31460 0.54080 -0.00100
H 	H 	0.17960 0.35760 0.55900 0.06600
H 	H 	0.23170 0.36350 0.55230 0.03700
H 	H 	0.29100 0.27480 0.52120 0.01200
H 	H 	0.48100 0.18760 0.51120 -0.00100
H 	H 	0.42920 0.17960 0.52180 0.06500
H 	H 	0.37410 0.22790 0.52590 0.03700
H 	H 	0.42660 0.28860 0.50960 0.01400
H 	H 	0.28300 0.41800 0.50720 0.01100
H 	H 	0.38970 0.37470 0.49570 0.03700
H 	H 	0.38850 0.43330 0.47990 0.06800
H 	H 	0.33420 0.48140 0.48080 0.00100
H 	H 	0.22620 0.57120 0.44160 0.00100
H 	H 	0.17480 0.61980 0.43280 0.06700
H 	H 	0.11990 0.62410 0.48190 0.03800
H 	H 	0.17240 0.52900 0.54420 0.01200
H 	H 	0.81460 0.68580 0.95880 -0.00000
H 	H 	0.85760 0.67960 0.90380 0.06600
H 	H 	0.86350 0.73170 0.85250 0.03700
H 	H 	0.77480 0.79100 0.91300 0.01200
H 	H 	0.68760 0.98100 0.82020 -0.00100
H 	H 	0.67960 0.92920 0.86940 0.06500
H 	H 	0.72790 0.87410 0.87210 0.03700
H 	H 	0.78860 0.92660 0.77520 0.01400
H 	H 	0.91800 0.78300 0.79180 0.01100
H 	H 	0.87470 0.88970 0.73990 0.03700
H 	H 	0.93330 0.88850 0.69830 0.06800
H 	H 	0.98140 0.83420 0.70360 0.00100
H 	H 	0.07120 0.72620 0.76100 0.00100
H 	H 	0.11980 0.67480 0.77260 0.06700
H 	H 	0.12410 0.61990 0.77410 0.03800
H 	H 	0.02900 0.67240 0.75440 0.01200
H 	H 	0.04080 0.95880 0.68580 -0.00000
H 	H 	0.05900 0.90380 0.67960 0.06600
H 	H 	0.05230 0.85250 0.73170 0.03700
H 	H 	0.02120 0.91300 0.79100 0.01200
H 	H 	0.01120 0.82020 0.98100 -0.00100
H 	H 	0.02180 0.86940 0.92920 0.06500
H 	H 	0.02590 0.87210 0.87410 0.03700
H 	H 	0.00960 0.77520 0.92660 0.01400
H 	H 	0.00720 0.79180 0.78300 0.01100
H 	H 	0.99570 0.73990 0.88970 0.03700
H 	H 	0.97990 0.69830 0.88850 0.06800
H 	H 	0.98080 0.70360 0.83420 0.00100
H 	H 	0.94160 0.76100 0.72620 0.00100
H 	H 	0.93280 0.77260 0.67480 0.06700
H 	H 	0.98190 0.77410 0.61990 0.03800
H 	H 	0.04420 0.75440 0.67240 0.01200
H 	H 	0.54080 0.81460 0.18580 -0.00100
H 	H 	0.55900 0.85760 0.17960 0.06600
H 	H 	0.55230 0.86350 0.23170 0.03700
H 	H 	0.52120 0.77480 0.29100 0.01200
H 	H 	0.51120 0.68760 0.48100 -0.00100
H 	H 	0.52180 0.67960 0.42920 0.06500
H 	H 	0.52590 0.72790 0.37410 0.03700
H 	H 	0.50960 0.78860 0.42660 0.01400
H 	H 	0.50720 0.91800 0.28300 0.01100
H 	H 	0.49570 0.87470 0.38970 0.03700
H 	H 	0.47990 0.93330 0.38850 0.06800
H 	H 	0.48080 0.98140 0.33420 0.00100
H 	H 	0.44160 0.07120 0.22620 0.00100
H 	H 	0.43280 0.11980 0.17480 0.06700
H 	H 	0.48190 0.12410 0.11990 0.03800
H 	H 	0.54420 0.02900 0.17240 0.01200
H 	H 	0.31460 0.04080 0.45880 -0.00100
H 	H 	0.35760 0.05900 0.40380 0.06600
H 	H 	0.36350 0.05230 0.35250 0.03700
H 	H 	0.27480 0.02120 0.41300 0.01200
H 	H 	0.18760 0.01120 0.32020 -0.00100
H 	H 	0.17960 0.02180 0.36940 0.06500
H 	H 	0.22790 0.02590 0.37210 0.03700
H 	H 	0.28860 0.00960 0.27520 0.01400
H 	H 	0.41800 0.00720 0.29180 0.01100
H 	H 	0.37470 0.99570 0.23990 0.03700
H 	H 	0.43330 0.97990 0.19830 0.06800
H 	H 	0.48140 0.98080 0.20360 0.00100
H 	H 	0.57120 0.94160 0.26100 0.00100
H 	H 	0.61980 0.93280 0.27260 0.06700
H 	H 	0.62410 0.98190 0.27410 0.03800
H 	H 	0.52900 0.04420 0.25440 0.01200
H 	H 	0.68580 0.45880 0.04080 -0.00100
H 	H 	0.67960 0.40380 0.05900 0.06600
H 	H 	0.73170 0.35250 0.05230 0.03700
H 	H 	0.79100 0.41300 0.02120 0.01200
H 	H 	0.98100 0.32020 0.01120 -0.00100
H 	H 	0.92920 0.36940 0.02180 0.06500
H 	H 	0.87410 0.37210 0.02590 0.03700
H 	H 	0.92660 0.27520 0.00960 0.01400
H 	H 	0.78300 0.29180 0.00720 0.01100
H 	H 	0.88970 0.23990 0.99570 0.03700
H 	H 	0.88850 0.19830 0.97990 0.06800
H 	H 	0.83420 0.20360 0.98080 0.00100
H 	H 	0.72620 0.26100 0.94160 0.00100
H 	H 	0.67480 0.27260 0.93280 0.06700
H 	H 	0.61990 0.27410 0.98190 0.03800
H 	H 	0.67240 0.25440 0.04420 0.01200
H 	H 	0.95880 0.18580 0.81460 -0.00000
H 	H 	0.90380 0.17960 0.85760 0.06600
H 	H 	0.85250 0.23170 0.86350 0.03700
H 	H 	0.91300 0.29100 0.77480 0.01200
H 	H 	0.82020 0.48100 0.68760 -0.00100
H 	H 	0.86940 0.42920 0.67960 0.06500
H 	H 	0.87210 0.37410 0.72790 0.03700
H 	H 	0.77520 0.42660 0.78860 0.01400
H 	H 	0.79180 0.28300 0.91800 0.01100
H 	H 	0.73990 0.38970 0.87470 0.03700
H 	H 	0.69830 0.38850 0.93330 0.06800
H 	H 	0.70360 0.33420 0.98140 0.00100
H 	H 	0.76100 0.22620 0.07120 0.00100
H 	H 	0.77260 0.17480 0.11980 0.06700
H 	H 	0.77410 0.11990 0.12410 0.03800
H 	H 	0.75440 0.17240 0.02900 0.01200
H 	H 	0.54080 0.18580 0.45880 -0.00100
H 	H 	0.55900 0.17960 0.40380 0.06600
H 	H 	0.55230 0.23170 0.35250 0.03700
H 	H 	0.52120 0.29100 0.41300 0.01200
H 	H 	0.51120 0.48100 0.32020 -0.00100
H 	H 	0.52180 0.42920 0.36940 0.06500
H 	H 	0.52590 0.37410 0.37210 0.03700
H 	H 	0.50960 0.42660 0.27520 0.01400
H 	H 	0.50720 0.28300 0.29180 0.01100
H 	H 	0.49570 0.38970 0.23990 0.03700
H 	H 	0.47990 0.38850 0.19830 0.06800
H 	H 	0.48080 0.33420 0.20360 0.00100
H 	H 	0.44160 0.22620 0.26100 0.00100
H 	H 	0.43280 0.17480 0.27260 0.06700
H 	H 	0.48190 0.11990 0.27410 0.03800
H 	H 	0.54420 0.17240 0.25440 0.01200
H 	H 	0.31460 0.45880 0.18580 -0.00100
H 	H 	0.35760 0.40380 0.17960 0.06600
H 	H 	0.36350 0.35250 0.23170 0.03700
H 	H 	0.27480 0.41300 0.29100 0.01200
H 	H 	0.18760 0.32020 0.48100 -0.00100
H 	H 	0.17960 0.36940 0.42920 0.06500
H 	H 	0.22790 0.37210 0.37410 0.03700
H 	H 	0.28860 0.27520 0.42660 0.01400
H 	H 	0.41800 0.29180 0.28300 0.01100
H 	H 	0.37470 0.23990 0.38970 0.03700
H 	H 	0.43330 0.19830 0.38850 0.06800
H 	H 	0.48140 0.20360 0.33420 0.00100
H 	H 	0.57120 0.26100 0.22620 0.00100
H 	H 	0.61980 0.27260 0.17480 0.06700
H 	H 	0.62410 0.27410 0.11990 0.03800
H 	H 	0.52900 0.25440 0.17240 0.01200
H 	H 	0.68580 0.04080 0.81460 -0.00100
H 	H 	0.67960 0.05900 0.85760 0.06600
H 	H 	0.73170 0.05230 0.86350 0.03700
H 	H 	0.79100 0.02120 0.77480 0.01200
H 	H 	0.98100 0.01120 0.68760 -0.00100
H 	H 	0.92920 0.02180 0.67960 0.06500
H 	H 	0.87410 0.02590 0.72790 0.03700
H 	H 	0.92660 0.00960 0.78860 0.01400
H 	H 	0.78300 0.00720 0.91800 0.01100
H 	H 	0.88970 0.99570 0.87470 0.03700
H 	H 	0.88850 0.97990 0.93330 0.06800
H 	H 	0.83420 0.98080 0.98140 0.00100
H 	H 	0.72620 0.94160 0.07120 0.00100
H 	H 	0.67480 0.93280 0.11980 0.06700
H 	H 	0.61990 0.98190 0.12410 0.03800
H 	H 	0.67240 0.04420 0.02900 0.01200
H 	H 	0.95880 0.81460 0.04080 -0.00000
H 	H 	0.90380 0.85760 0.05900 0.06600
H 	H 	0.85250 0.86350 0.05230 0.03700
H 	H 	0.91300 0.77480 0.02120 0.01200
H 	H 	0.82020 0.68760 0.01120 -0.00100
H 	H 	0.86940 0.67960 0.02180 0.06500
H 	H 	0.87210 0.72790 0.02590 0.03700
H 	H 	0.77520 0.78860 0.00960 0.01400
H 	H 	0.79180 0.91800 0.00720 0.01100
H 	H 	0.73990 0.87470 0.99570 0.03700
H 	H 	0.69830 0.93330 0.97990 0.06800
H 	H 	0.70360 0.98140 0.98080 0.00100
H 	H 	0.76100 0.07120 0.94160 0.00100
H 	H 	0.77260 0.11980 0.93280 0.06700
H 	H 	0.77410 0.12410 0.98190 0.03800
H 	H 	0.75440 0.02900 0.04420 0.01200
H 	H 	0.54080 0.45880 0.81460 -0.00100
H 	H 	0.55900 0.40380 0.85760 0.06600
H 	H 	0.55230 0.35250 0.86350 0.03700
H 	H 	0.52120 0.41300 0.77480 0.01200
H 	H 	0.51120 0.32020 0.68760 -0.00100
H 	H 	0.52180 0.36940 0.67960 0.06500
H 	H 	0.52590 0.37210 0.72790 0.03700
H 	H 	0.50960 0.27520 0.78860 0.01400
H 	H 	0.50720 0.29180 0.91800 0.01100
H 	H 	0.49570 0.23990 0.87470 0.03700
H 	H 	0.47990 0.19830 0.93330 0.06800
H 	H 	0.48080 0.20360 0.98140 0.00100
H 	H 	0.44160 0.26100 0.07120 0.00100
H 	H 	0.43280 0.27260 0.11980 0.06700
H 	H 	0.48190 0.27410 0.12410 0.03800
H 	H 	0.54420 0.25440 0.02900 0.01200
H 	H 	0.31460 0.18580 0.04080 -0.00000
H 	H 	0.35760 0.17960 0.05900 0.06600
H 	H 	0.36350 0.23170 0.05230 0.03700
H 	H 	0.27480 0.29100 0.02120 0.01200
H 	H 	0.18760 0.48100 0.01120 -0.00100
H 	H 	0.17960 0.42920 0.02180 0.06500
H 	H 	0.22790 0.37410 0.02590 0.03700
H 	H 	0.28860 0.42660 0.00960 0.01400
H 	H 	0.41800 0.28300 0.00720 0.01100
H 	H 	0.37470 0.38970 0.99570 0.03700
H 	H 	0.43330 0.38850 0.97990 0.06800
H 	H 	0.48140 0.33420 0.98080 0.00100
H 	H 	0.57120 0.22620 0.94160 0.00100
H 	H 	0.61980 0.17480 0.93280 0.06700
H 	H 	0.62410 0.11990 0.98190 0.03800
H 	H 	0.52900 0.17240 0.04420 0.01200
H 	H 	0.68580 0.81460 0.45880 -0.00100
H 	H 	0.67960 0.85760 0.40380 0.06600
H 	H 	0.73170 0.86350 0.35250 0.03700
H 	H 	0.79100 0.77480 0.41300 0.01200
H 	H 	0.98100 0.68760 0.32020 -0.00100
H 	H 	0.92920 0.67960 0.36940 0.06500
H 	H 	0.87410 0.72790 0.37210 0.03700
H 	H 	0.92660 0.78860 0.27520 0.01400
H 	H 	0.78300 0.91800 0.29180 0.01100
H 	H 	0.88970 0.87470 0.23990 0.03700
H 	H 	0.88850 0.93330 0.19830 0.06800
H 	H 	0.83420 0.98140 0.20360 0.00100
H 	H 	0.72620 0.07120 0.26100 0.00100
H 	H 	0.67480 0.11980 0.27260 0.06700
H 	H 	0.61990 0.12410 0.27410 0.03800
H 	H 	0.67240 0.02900 0.25440 0.01200
H 	H 	0.95880 0.04080 0.18580 -0.00000
H 	H 	0.90380 0.05900 0.17960 0.06600
H 	H 	0.85250 0.05230 0.23170 0.03700
H 	H 	0.91300 0.02120 0.29100 0.01200
H 	H 	0.82020 0.01120 0.48100 -0.00100
H 	H 	0.86940 0.02180 0.42920 0.06500
H 	H 	0.87210 0.02590 0.37410 0.03700
H 	H 	0.77520 0.00960 0.42660 0.01400
H 	H 	0.79180 0.00720 0.28300 0.01100
H 	H 	0.73990 0.99570 0.38970 0.03700
H 	H 	0.69830 0.97990 0.38850 0.06800
H 	H 	0.70360 0.98080 0.33420 0.00100
H 	H 	0.76100 0.94160 0.22620 0.00100
H 	H 	0.77260 0.93280 0.17480 0.06700
H 	H 	0.77410 0.98190 0.11990 0.03800
H 	H 	0.75440 0.04420 0.17240 0.01200
H 	H 	0.18540 0.45920 0.31420 -0.00100
H 	H 	0.14240 0.44100 0.32040 0.06600
H 	H 	0.13650 0.44770 0.26830 0.03700
H 	H 	0.22520 0.47880 0.20900 0.01200
H 	H 	0.31240 0.48880 0.01900 -0.00100
H 	H 	0.32040 0.47820 0.07080 0.06500
H 	H 	0.27210 0.47410 0.12590 0.03700
H 	H 	0.21140 0.49040 0.07340 0.01400
H 	H 	0.08200 0.49280 0.21700 0.01100
H 	H 	0.12530 0.50430 0.11030 0.03700
H 	H 	0.06670 0.52010 0.11150 0.06800
H 	H 	0.01860 0.51920 0.16580 0.00100
H 	H 	0.92880 0.55840 0.27380 0.00100
H 	H 	0.88020 0.56720 0.32520 0.06700
H 	H 	0.87590 0.51810 0.38010 0.03800
H 	H 	0.97100 0.45580 0.32760 0.01200
H 	H 	0.95920 0.68540 0.04120 -0.00000
H 	H 	0.94100 0.64240 0.09620 0.06600
H 	H 	0.94770 0.63650 0.14750 0.03700
H 	H 	0.97880 0.72520 0.08700 0.01200
H 	H 	0.98880 0.81240 0.17980 -0.00100
H 	H 	0.97820 0.82040 0.13060 0.06500
H 	H 	0.97410 0.77210 0.12790 0.03700
H 	H 	0.99040 0.71140 0.22480 0.01400
H 	H 	0.99280 0.58200 0.20820 0.01100
H 	H 	0.00430 0.62530 0.26010 0.03700
H 	H 	0.02010 0.56670 0.30170 0.06800
H 	H 	0.01920 0.51860 0.29640 0.00100
H 	H 	0.05840 0.42880 0.23900 0.00100
H 	H 	0.06720 0.38020 0.22740 0.06700
H 	H 	0.01810 0.37590 0.22590 0.03800
H 	H 	0.95580 0.47100 0.24560 0.01200
H 	H 	0.54120 0.31420 0.45920 -0.00100
H 	H 	0.59620 0.32040 0.44100 0.06600
H 	H 	0.64750 0.26830 0.44770 0.03700
H 	H 	0.58700 0.20900 0.47880 0.01200
H 	H 	0.67980 0.01900 0.48880 -0.00100
H 	H 	0.63060 0.07080 0.47820 0.06500
H 	H 	0.62790 0.12590 0.47410 0.03700
H 	H 	0.72480 0.07340 0.49040 0.01400
H 	H 	0.70820 0.21700 0.49280 0.01100
H 	H 	0.76010 0.11030 0.50430 0.03700
H 	H 	0.80170 0.11150 0.52010 0.06800
H 	H 	0.79640 0.16580 0.51920 0.00100
H 	H 	0.73900 0.27380 0.55840 0.00100
H 	H 	0.72740 0.32520 0.56720 0.06700
H 	H 	0.72590 0.38010 0.51810 0.03800
H 	H 	0.74560 0.32760 0.45580 0.01200
H 	H 	0.81420 0.04120 0.68540 -0.00000
H 	H 	0.82040 0.09620 0.64240 0.06600
H 	H 	0.76830 0.14750 0.63650 0.03700
H 	H 	0.70900 0.08700 0.72520 0.01200
H 	H 	0.51900 0.17980 0.81240 -0.00100
H 	H 	0.57080 0.13060 0.82040 0.06500
H 	H 	0.62590 0.12790 0.77210 0.03700
H 	H 	0.57340 0.22480 0.71140 0.01400
H 	H 	0.71700 0.20820 0.58200 0.01100
H 	H 	0.61030 0.26010 0.62530 0.03700
H 	H 	0.61150 0.30170 0.56670 0.06800
H 	H 	0.66580 0.29640 0.51860 0.00100
H 	H 	0.77380 0.23900 0.42880 0.00100
H 	H 	0.82520 0.22740 0.38020 0.06700
H 	H 	0.88010 0.22590 0.37590 0.03800
H 	H 	0.82760 0.24560 0.47100 0.01200
H 	H 	0.81420 0.45920 0.04120 -0.00000
H 	H 	0.82040 0.44100 0.09620 0.06600
H 	H 	0.76830 0.44770 0.14750 0.03700
H 	H 	0.70900 0.47880 0.08700 0.01200
H 	H 	0.51900 0.48880 0.17980 -0.00100
H 	H 	0.57080 0.47820 0.13060 0.06500
H 	H 	0.62590 0.47410 0.12790 0.03700
H 	H 	0.57340 0.49040 0.22480 0.01400
H 	H 	0.71700 0.49280 0.20820 0.01100
H 	H 	0.61030 0.50430 0.26010 0.03700
H 	H 	0.61150 0.52010 0.30170 0.06800
H 	H 	0.66580 0.51920 0.29640 0.00100
H 	H 	0.77380 0.55840 0.23900 0.00100
H 	H 	0.82520 0.56720 0.22740 0.06700
H 	H 	0.88010 0.51810 0.22590 0.03800
H 	H 	0.82760 0.45580 0.24560 0.01200
H 	H 	0.54120 0.68540 0.31420 -0.00100
H 	H 	0.59620 0.64240 0.32040 0.06600
H 	H 	0.64750 0.63650 0.26830 0.03700
H 	H 	0.58700 0.72520 0.20900 0.01200
H 	H 	0.67980 0.81240 0.01900 -0.00100
H 	H 	0.63060 0.82040 0.07080 0.06500
H 	H 	0.62790 0.77210 0.12590 0.03700
H 	H 	0.72480 0.71140 0.07340 0.01400
H 	H 	0.70820 0.58200 0.21700 0.01100
H 	H 	0.76010 0.62530 0.11030 0.03700
H 	H 	0.80170 0.56670 0.11150 0.06800
H 	H 	0.79640 0.51860 0.16580 0.00100
H 	H 	0.73900 0.42880 0.27380 0.00100
H 	H 	0.72740 0.38020 0.32520 0.06700
H 	H 	0.72590 0.37590 0.38010 0.03800
H 	H 	0.74560 0.47100 0.32760 0.01200
H 	H 	0.95920 0.31420 0.68540 -0.00100
H 	H 	0.94100 0.32040 0.64240 0.06600
H 	H 	0.94770 0.26830 0.63650 0.03700
H 	H 	0.97880 0.20900 0.72520 0.01200
H 	H 	0.98880 0.01900 0.81240 -0.00100
H 	H 	0.97820 0.07080 0.82040 0.06500
H 	H 	0.97410 0.12590 0.77210 0.03700
H 	H 	0.99040 0.07340 0.71140 0.01400
H 	H 	0.99280 0.21700 0.58200 0.01100
H 	H 	0.00430 0.11030 0.62530 0.03700
H 	H 	0.02010 0.11150 0.56670 0.06800
H 	H 	0.01920 0.16580 0.51860 0.00100
H 	H 	0.05840 0.27380 0.42880 0.00100
H 	H 	0.06720 0.32520 0.38020 0.06700
H 	H 	0.01810 0.38010 0.37590 0.03800
H 	H 	0.95580 0.32760 0.47100 0.01200
H 	H 	0.18540 0.04120 0.45920 -0.00000
H 	H 	0.14240 0.09620 0.44100 0.06600
H 	H 	0.13650 0.14750 0.44770 0.03700
H 	H 	0.22520 0.08700 0.47880 0.01200
H 	H 	0.31240 0.17980 0.48880 -0.00100
H 	H 	0.32040 0.13060 0.47820 0.06500
H 	H 	0.27210 0.12790 0.47410 0.03700
H 	H 	0.21140 0.22480 0.49040 0.01400
H 	H 	0.08200 0.20820 0.49280 0.01100
H 	H 	0.12530 0.26010 0.50430 0.03700
H 	H 	0.06670 0.30170 0.52010 0.06800
H 	H 	0.01860 0.29640 0.51920 0.00100
H 	H 	0.92880 0.23900 0.55840 0.00100
H 	H 	0.88020 0.22740 0.56720 0.06700
H 	H 	0.87590 0.22590 0.51810 0.03800
H 	H 	0.97100 0.24560 0.45580 0.01200
H 	H 	0.54120 0.45920 0.68540 -0.00100
H 	H 	0.59620 0.44100 0.64240 0.06600
H 	H 	0.64750 0.44770 0.63650 0.03700
H 	H 	0.58700 0.47880 0.72520 0.01200
H 	H 	0.67980 0.48880 0.81240 -0.00100
H 	H 	0.63060 0.47820 0.82040 0.06500
H 	H 	0.62790 0.47410 0.77210 0.03700
H 	H 	0.72480 0.49040 0.71140 0.01400
H 	H 	0.70820 0.49280 0.58200 0.01100
H 	H 	0.76010 0.50430 0.62530 0.03700
H 	H 	0.80170 0.52010 0.56670 0.06800
H 	H 	0.79640 0.51920 0.51860 0.00100
H 	H 	0.73900 0.55840 0.42880 0.00100
H 	H 	0.72740 0.56720 0.38020 0.06700
H 	H 	0.72590 0.51810 0.37590 0.03800
H 	H 	0.74560 0.45580 0.47100 0.01200
H 	H 	0.81420 0.68540 0.45920 -0.00100
H 	H 	0.82040 0.64240 0.44100 0.06600
H 	H 	0.76830 0.63650 0.44770 0.03700
H 	H 	0.70900 0.72520 0.47880 0.01200
H 	H 	0.51900 0.81240 0.48880 -0.00100
H 	H 	0.57080 0.82040 0.47820 0.06500
H 	H 	0.62590 0.77210 0.47410 0.03700
H 	H 	0.57340 0.71140 0.49040 0.01400
H 	H 	0.71700 0.58200 0.49280 0.01100
H 	H 	0.61030 0.62530 0.50430 0.03700
H 	H 	0.61150 0.56670 0.52010 0.06800
H 	H 	0.66580 0.51860 0.51920 0.00100
H 	H 	0.77380 0.42880 0.55840 0.00100
H 	H 	0.82520 0.38020 0.56720 0.06700
H 	H 	0.88010 0.37590 0.51810 0.03800
H 	H 	0.82760 0.47100 0.45580 0.01200
H 	H 	0.18540 0.31420 0.04120 -0.00000
H 	H 	0.14240 0.32040 0.09620 0.06600
H 	H 	0.13650 0.26830 0.14750 0.03700
H 	H 	0.22520 0.20900 0.08700 0.01200
H 	H 	0.31240 0.01900 0.17980 -0.00100
H 	H 	0.32040 0.07080 0.13060 0.06500
H 	H 	0.27210 0.12590 0.12790 0.03700
H 	H 	0.21140 0.07340 0.22480 0.01400
H 	H 	0.08200 0.21700 0.20820 0.01100
H 	H 	0.12530 0.11030 0.26010 0.03700
H 	H 	0.06670 0.11150 0.30170 0.06800
H 	H 	0.01860 0.16580 0.29640 0.00100
H 	H 	0.92880 0.27380 0.23900 0.00100
H 	H 	0.88020 0.32520 0.22740 0.06700
H 	H 	0.87590 0.38010 0.22590 0.03800
H 	H 	0.97100 0.32760 0.24560 0.01200
H 	H 	0.95920 0.04120 0.31420 -0.00000
H 	H 	0.94100 0.09620 0.32040 0.06600
H 	H 	0.94770 0.14750 0.26830 0.03700
H 	H 	0.97880 0.08700 0.20900 0.01200
H 	H 	0.98880 0.17980 0.01900 -0.00100
H 	H 	0.97820 0.13060 0.07080 0.06500
H 	H 	0.97410 0.12790 0.12590 0.03700
H 	H 	0.99040 0.22480 0.07340 0.01400
H 	H 	0.99280 0.20820 0.21700 0.01100
H 	H 	0.00430 0.26010 0.11030 0.03700
H 	H 	0.02010 0.30170 0.11150 0.06800
H 	H 	0.01920 0.29640 0.16580 0.00100
H 	H 	0.05840 0.23900 0.27380 0.00100
H 	H 	0.06720 0.22740 0.32520 0.06700
H 	H 	0.01810 0.22590 0.38010 0.03800
H 	H 	0.95580 0.24560 0.32760 0.01200
C 	C 	0.54067 0.16339 0.52505 0.09800
C 	C 	0.55307 0.94473 0.70453 0.10400
C 	C 	0.46010 0.18470 0.79306 0.06200
C 	C 	0.44997 0.15831 0.79695 -0.10100
C 	C 	0.45309 0.15525 0.76651 0.01000
C 	C 	0.46447 0.18053 0.73313 -0.05000
C 	C 	0.47230 0.20724 0.73190 0.03800
C 	C 	0.48713 0.29249 0.54121 0.06000
C 	C 	0.48070 0.29760 0.57210 -0.09900
C 	C 	0.47807 0.26945 0.60439 0.00900
C 	C 	0.48128 0.23664 0.60504 -0.04900
C 	C 	0.48789 0.23385 0.57293 0.03700
C 	C 	0.47968 0.20476 0.63868 0.13400
C 	C 	0.47087 0.17867 0.69863 0.13600
C 	C 	0.48644 0.14504 0.66608 0.13500
C 	C 	0.49803 0.07901 0.69519 0.04300
C 	C 	0.49643 0.10959 0.66417 -0.05300
C 	C 	0.50477 0.10515 0.63223 0.01100
C 	C 	0.51388 0.07064 0.63302 -0.10100
C 	C 	0.51381 0.04205 0.66539 0.06200
C 	C 	0.53855 0.92749 0.79591 0.05700
C 	C 	0.54393 0.89835 0.82637 -0.09800
C 	C 	0.51516 0.89574 0.85864 0.00800
C 	C 	0.48147 0.92321 0.85885 -0.05200
C 	C 	0.47850 0.95202 0.82716 0.04000
C 	C 	0.44980 0.92230 0.89242 0.13700
C 	C 	0.66339 0.04067 0.77089 0.09800
C 	C 	0.44473 0.05307 0.79767 0.10400
C 	C 	0.68470 0.96010 0.56214 0.06200
C 	C 	0.65831 0.94997 0.59477 -0.10100
C 	C 	0.65525 0.95309 0.62515 0.01000
C 	C 	0.68053 0.96447 0.62187 -0.05000
C 	C 	0.70724 0.97230 0.58856 0.03800
C 	C 	0.79249 0.98713 0.67917 0.06000
C 	C 	0.79760 0.98070 0.64960 -0.09900
C 	C 	0.76945 0.97807 0.64809 0.00900
C 	C 	0.73664 0.98128 0.67704 -0.04900
C 	C 	0.73385 0.98789 0.70533 0.03700
C 	C 	0.70476 0.97968 0.67688 0.13400
C 	C 	0.67867 0.97087 0.65183 0.13600
C 	C 	0.64504 0.98644 0.70244 0.13500
C 	C 	0.57901 0.99803 0.72777 0.04300
C 	C 	0.60959 0.99643 0.72981 -0.05300
C 	C 	0.60515 0.00477 0.75785 0.01100
C 	C 	0.57064 0.01388 0.78246 -0.10100
C 	C 	0.54205 0.01381 0.77875 0.06200
C 	C 	0.42749 0.03855 0.73805 0.05700
C 	C 	0.39835 0.04393 0.73135 -0.09800
C 	C 	0.39574 0.01516 0.73046 0.00800
C 	C 	0.42321 0.98147 0.73647 -0.05200
C 	C 	0.45202 0.97850 0.74232 0.04100
C 	C 	0.42230 0.94980 0.73548 0.13700
C 	C 	0.02505 0.77089 0.04067 0.09800
C 	C 	0.20453 0.79767 0.05307 0.10400
C 	C 	0.29306 0.56214 0.96010 0.06200
C 	C 	0.29695 0.59477 0.94997 -0.10100
C 	C 	0.26651 0.62515 0.95309 0.01000
C 	C 	0.23313 0.62187 0.96447 -0.05000
C 	C 	0.23190 0.58856 0.97230 0.03800
C 	C 	0.04121 0.67917 0.98713 0.06000
C 	C 	0.07210 0.64960 0.98070 -0.09900
C 	C 	0.10439 0.64809 0.97807 0.00900
C 	C 	0.10504 0.67704 0.98128 -0.04900
C 	C 	0.07293 0.70533 0.98789 0.03700
C 	C 	0.13868 0.67688 0.97968 0.13400
C 	C 	0.19863 0.65183 0.97087 0.13600
C 	C 	0.16608 0.70244 0.98644 0.13500
C 	C 	0.19519 0.72777 0.99803 0.04300
C 	C 	0.16417 0.72981 0.99643 -0.05300
C 	C 	0.13223 0.75785 0.00477 0.01100
C 	C 	0.13302 0.78246 0.01388 -0.10100
C 	C 	0.16539 0.77875 0.01381 0.06200
C 	C 	0.29591 0.73805 0.03855 0.05700
C 	C 	0.32637 0.73135 0.04393 -0.09800
C 	C 	0.35864 0.73046 0.01516 0.00800
C 	C 	0.35885 0.73647 0.98147 -0.05200
C 	C 	0.32716 0.74232 0.97850 0.04100
C 	C 	0.39242 0.73548 0.94980 0.13700
C 	C 	0.27089 0.52505 0.16339 0.09800
C 	C 	0.29767 0.70453 0.94473 0.10400
C 	C 	0.06214 0.79306 0.18470 0.06200
C 	C 	0.09477 0.79695 0.15831 -0.10100
C 	C 	0.12515 0.76651 0.15525 0.01000
C 	C 	0.12187 0.73313 0.18053 -0.05000
C 	C 	0.08856 0.73190 0.20724 0.03800
C 	C 	0.17917 0.54121 0.29249 0.06000
C 	C 	0.14960 0.57210 0.29760 -0.09900
C 	C 	0.14809 0.60439 0.26945 0.00900
C 	C 	0.17704 0.60504 0.23664 -0.04900
C 	C 	0.20533 0.57293 0.23385 0.03700
C 	C 	0.17688 0.63868 0.20476 0.13400
C 	C 	0.15183 0.69863 0.17867 0.13600
C 	C 	0.20244 0.66608 0.14504 0.13500
C 	C 	0.22777 0.69519 0.07901 0.04300
C 	C 	0.22981 0.66417 0.10959 -0.05300
C 	C 	0.25785 0.63223 0.10515 0.01100
C 	C 	0.28246 0.63302 0.07064 -0.10100
C 	C 	0.27875 0.66539 0.04205 0.06200
C 	C 	0.23805 0.79591 0.92749 0.05700
C 	C 	0.23135 0.82637 0.89835 -0.09800
C 	C 	0.23046 0.85864 0.89574 0.00800
C 	C 	0.23647 0.85885 0.92321 -0.05200
C 	C 	0.24232 0.82716 0.95202 0.04000
C 	C 	0.23548 0.89242 0.92230 0.13700
C 	C 	0.54067 0.52505 0.77089 0.09800
C 	C 	0.55307 0.70453 0.79767 0.10400
C 	C 	0.46010 0.79306 0.56214 0.06200
C 	C 	0.44997 0.79695 0.59477 -0.10100
C 	C 	0.45309 0.76651 0.62515 0.01000
C 	C 	0.46447 0.73313 0.62187 -0.05000
C 	C 	0.47230 0.73190 0.58856 0.03800
C 	C 	0.48713 0.54121 0.67917 0.06000
C 	C 	0.48070 0.57210 0.64960 -0.09900
C 	C 	0.47807 0.60439 0.64809 0.00900
C 	C 	0.48128 0.60504 0.67704 -0.04900
C 	C 	0.48789 0.57293 0.70533 0.03700
C 	C 	0.47968 0.63868 0.67688 0.13400
C 	C 	0.47087 0.69863 0.65183 0.13600
C 	C 	0.48644 0.66608 0.70244 0.13500
C 	C 	0.49803 0.69519 0.72777 0.04300
C 	C 	0.49643 0.66417 0.72981 -0.05300
C 	C 	0.50477 0.63223 0.75785 0.01100
C 	C 	0.51388 0.63302 0.78246 -0.10100
C 	C 	0.51381 0.66539 0.77875 0.06200
C 	C 	0.53855 0.79591 0.73805 0.05700
C 	C 	0.54393 0.82637 0.73135 -0.09800
C 	C 	0.51516 0.85864 0.73046 0.00800
C 	C 	0.48147 0.85885 0.73647 -0.05200
C 	C 	0.47850 0.82716 0.74232 0.04000
C 	C 	0.44980 0.89242 0.73548 0.13700
C 	C 	0.66339 0.77089 0.52505 0.09800
C 	C 	0.44473 0.79767 0.70453 0.10400
C 	C 	0.68470 0.56214 0.79306 0.06200
C 	C 	0.65831 0.59477 0.79695 -0.10100
C 	C 	0.65525 0.62515 0.76651 0.01000
C 	C 	0.68053 0.62187 0.73313 -0.05000
C 	C 	0.70724 0.58856 0.73190 0.03800
C 	C 	0.79249 0.67917 0.54121 0.06000
C 	C 	0.79760 0.64960 0.57210 -0.09900
C 	C 	0.76945 0.64809 0.60439 0.00900
C 	C 	0.73664 0.67704 0.60504 -0.04900
C 	C 	0.73385 0.70533 0.57293 0.03700
C 	C 	0.70476 0.67688 0.63868 0.13400
C 	C 	0.67867 0.65183 0.69863 0.13600
C 	C 	0.64504 0.70244 0.66608 0.13500
C 	C 	0.57901 0.72777 0.69519 0.04300
C 	C 	0.60959 0.72981 0.66417 -0.05300
C 	C 	0.60515 0.75785 0.63223 0.01100
C 	C 	0.57064 0.78246 0.63302 -0.10100
C 	C 	0.54205 0.77875 0.66539 0.06200
C 	C 	0.42749 0.73805 0.79591 0.05700
C 	C 	0.39835 0.73135 0.82637 -0.09800
C 	C 	0.39574 0.73046 0.85864 0.00800
C 	C 	0.42321 0.73647 0.85885 -0.05200
C 	C 	0.45202 0.74232 0.82716 0.04000
C 	C 	0.42230 0.73548 0.89242 0.13700
C 	C 	0.02505 0.04067 0.16339 0.09800
C 	C 	0.20453 0.05307 0.94473 0.10400
C 	C 	0.29306 0.96010 0.18470 0.06200
C 	C 	0.29695 0.94997 0.15831 -0.10100
C 	C 	0.26651 0.95309 0.15525 0.01000
C 	C 	0.23313 0.96447 0.18053 -0.05000
C 	C 	0.23190 0.97230 0.20724 0.03800
C 	C 	0.04121 0.98713 0.29249 0.06000
C 	C 	0.07210 0.98070 0.29760 -0.09900
C 	C 	0.10439 0.97807 0.26945 0.00900
C 	C 	0.10504 0.98128 0.23664 -0.04900
C 	C 	0.07293 0.98789 0.23385 0.03700
C 	C 	0.13868 0.97968 0.20476 0.13400
C 	C 	0.19863 0.97087 0.17867 0.13600
C 	C 	0.16608 0.98644 0.14504 0.13500
C 	C 	0.19519 0.99803 0.07901 0.04300
C 	C 	0.16417 0.99643 0.10959 -0.05300
C 	C 	0.13223 0.00477 0.10515 0.01200
C 	C 	0.13302 0.01388 0.07064 -0.10100
C 	C 	0.16539 0.01381 0.04205 0.06200
C 	C 	0.29591 0.03855 0.92749 0.05700
C 	C 	0.32637 0.04393 0.89835 -0.09800
C 	C 	0.35864 0.01516 0.89574 0.00800
C 	C 	0.35885 0.98147 0.92321 -0.05200
C 	C 	0.32716 0.97850 0.95202 0.04100
C 	C 	0.39242 0.94980 0.92230 0.13700
C 	C 	0.27089 0.16339 0.04067 0.09800
C 	C 	0.29767 0.94473 0.05307 0.10400
C 	C 	0.06214 0.18470 0.96010 0.06200
C 	C 	0.09477 0.15831 0.94997 -0.10100
C 	C 	0.12515 0.15525 0.95309 0.01000
C 	C 	0.12187 0.18053 0.96447 -0.05000
C 	C 	0.08856 0.20724 0.97230 0.03800
C 	C 	0.17917 0.29249 0.98713 0.06000
C 	C 	0.14960 0.29760 0.98070 -0.09900
C 	C 	0.14809 0.26945 0.97807 0.00900
C 	C 	0.17704 0.23664 0.98128 -0.04900
C 	C 	0.20533 0.23385 0.98789 0.03700
C 	C 	0.17688 0.20476 0.97968 0.13400
C 	C 	0.15183 0.17867 0.97087 0.13600
C 	C 	0.20244 0.14504 0.98644 0.13500
C 	C 	0.22777 0.07901 0.99803 0.04300
C 	C 	0.22981 0.10959 0.99643 -0.05300
C 	C 	0.25785 0.10515 0.00477 0.01200
C 	C 	0.28246 0.07064 0.01388 -0.10100
C 	C 	0.27875 0.04205 0.01381 0.06200
C 	C 	0.23805 0.92749 0.03855 0.05700
C 	C 	0.23135 0.89835 0.04393 -0.09800
C 	C 	0.23046 0.89574 0.01516 0.00800
C 	C 	0.23647 0.92321 0.98147 -0.05200
C 	C 	0.24232 0.95202 0.97850 0.04100
C 	C 	0.23548 0.92230 0.94980 0.13700
C 	C 	0.54067 0.77089 0.16339 0.09800
C 	C 	0.55307 0.79767 0.94473 0.10400
C 	C 	0.46010 0.56214 0.18470 0.06200
C 	C 	0.44997 0.59477 0.15831 -0.10100
C 	C 	0.45309 0.62515 0.15525 0.01000
C 	C 	0.46447 0.62187 0.18053 -0.05000
C 	C 	0.47230 0.58856 0.20724 0.03800
C 	C 	0.48713 0.67917 0.29249 0.06000
C 	C 	0.48070 0.64960 0.29760 -0.09900
C 	C 	0.47807 0.64809 0.26945 0.00900
C 	C 	0.48128 0.67704 0.23664 -0.04900
C 	C 	0.48789 0.70533 0.23385 0.03700
C 	C 	0.47968 0.67688 0.20476 0.13400
C 	C 	0.47087 0.65183 0.17867 0.13600
C 	C 	0.48644 0.70244 0.14504 0.13500
C 	C 	0.49803 0.72777 0.07901 0.04300
C 	C 	0.49643 0.72981 0.10959 -0.05300
C 	C 	0.50477 0.75785 0.10515 0.01100
C 	C 	0.51388 0.78246 0.07064 -0.10100
C 	C 	0.51381 0.77875 0.04205 0.06200
C 	C 	0.53855 0.73805 0.92749 0.05700
C 	C 	0.54393 0.73135 0.89835 -0.09800
C 	C 	0.51516 0.73046 0.89574 0.00800
C 	C 	0.48147 0.73647 0.92321 -0.05200
C 	C 	0.47850 0.74232 0.95202 0.04000
C 	C 	0.44980 0.73548 0.92230 0.13700
C 	C 	0.66339 0.52505 0.04067 0.09800
C 	C 	0.44473 0.70453 0.05307 0.10400
C 	C 	0.68470 0.79306 0.96010 0.06200
C 	C 	0.65831 0.79695 0.94997 -0.10100
C 	C 	0.65525 0.76651 0.95309 0.01000
C 	C 	0.68053 0.73313 0.96447 -0.05000
C 	C 	0.70724 0.73190 0.97230 0.03800
C 	C 	0.79249 0.54121 0.98713 0.06000
C 	C 	0.79760 0.57210 0.98070 -0.09900
C 	C 	0.76945 0.60439 0.97807 0.00900
C 	C 	0.73664 0.60504 0.98128 -0.04900
C 	C 	0.73385 0.57293 0.98789 0.03700
C 	C 	0.70476 0.63868 0.97968 0.13400
C 	C 	0.67867 0.69863 0.97087 0.13600
C 	C 	0.64504 0.66608 0.98644 0.13500
C 	C 	0.57901 0.69519 0.99803 0.04300
C 	C 	0.60959 0.66417 0.99643 -0.05300
C 	C 	0.60515 0.63223 0.00477 0.01100
C 	C 	0.57064 0.63302 0.01388 -0.10100
C 	C 	0.54205 0.66539 0.01381 0.06200
C 	C 	0.42749 0.79591 0.03855 0.05700
C 	C 	0.39835 0.82637 0.04393 -0.09800
C 	C 	0.39574 0.85864 0.01516 0.00800
C 	C 	0.42321 0.85885 0.98147 -0.05200
C 	C 	0.45202 0.82716 0.97850 0.04100
C 	C 	0.42230 0.89242 0.94980 0.13700
C 	C 	0.02505 0.16339 0.77089 0.09800
C 	C 	0.20453 0.94473 0.79767 0.10400
C 	C 	0.29306 0.18470 0.56214 0.06200
C 	C 	0.29695 0.15831 0.59477 -0.10100
C 	C 	0.26651 0.15525 0.62515 0.01000
C 	C 	0.23313 0.18053 0.62187 -0.05000
C 	C 	0.23190 0.20724 0.58856 0.03800
C 	C 	0.04121 0.29249 0.67917 0.06000
C 	C 	0.07210 0.29760 0.64960 -0.09900
C 	C 	0.10439 0.26945 0.64809 0.00900
C 	C 	0.10504 0.23664 0.67704 -0.04900
C 	C 	0.07293 0.23385 0.70533 0.03700
C 	C 	0.13868 0.20476 0.67688 0.13400
C 	C 	0.19863 0.17867 0.65183 0.13600
C 	C 	0.16608 0.14504 0.70244 0.13500
C 	C 	0.19519 0.07901 0.72777 0.04300
C 	C 	0.16417 0.10959 0.72981 -0.05300
C 	C 	0.13223 0.10515 0.75785 0.01100
C 	C 	0.13302 0.07064 0.78246 -0.10100
C 	C 	0.16539 0.04205 0.77875 0.06200
C 	C 	0.29591 0.92749 0.73805 0.05700
C 	C 	0.32637 0.89835 0.73135 -0.09800
C 	C 	0.35864 0.89574 0.73046 0.00800
C 	C 	0.35885 0.92321 0.73647 -0.05200
C 	C 	0.32716 0.95202 0.74232 0.04000
C 	C 	0.39242 0.92230 0.73548 0.13700
C 	C 	0.27089 0.04067 0.52505 0.09800
C 	C 	0.29767 0.05307 0.70453 0.10400
C 	C 	0.06214 0.96010 0.79306 0.06200
C 	C 	0.09477 0.94997 0.79695 -0.10100
C 	C 	0.12515 0.95309 0.76651 0.01000
C 	C 	0.12187 0.96447 0.73313 -0.05000
C 	C 	0.08856 0.97230 0.73190 0.03800
C 	C 	0.17917 0.98713 0.54121 0.06000
C 	C 	0.14960 0.98070 0.57210 -0.09900
C 	C 	0.14809 0.97807 0.60439 0.00900
C 	C 	0.17704 0.98128 0.60504 -0.04900
C 	C 	0.20533 0.98789 0.57293 0.03700
C 	C 	0.17688 0.97968 0.63868 0.13400
C 	C 	0.15183 0.97087 0.69863 0.13600
C 	C 	0.20244 0.98644 0.66608 0.13500
C 	C 	0.22777 0.99803 0.69519 0.04300
C 	C 	0.22981 0.99643 0.66417 -0.05300
C 	C 	0.25785 0.00477 0.63223 0.01100
C 	C 	0.28246 0.01388 0.63302 -0.10100
C 	C 	0.27875 0.01381 0.66539 0.06200
C 	C 	0.23805 0.03855 0.79591 0.05700
C 	C 	0.23135 0.04393 0.82637 -0.09800
C 	C 	0.23046 0.01516 0.85864 0.00800
C 	C 	0.23647 0.98147 0.85885 -0.05200
C 	C 	0.24232 0.97850 0.82716 0.04100
C 	C 	0.23548 0.94980 0.89242 0.13700
C 	C 	0.83661 0.45933 0.97495 0.09800
C 	C 	0.05527 0.44693 0.79547 0.10400
C 	C 	0.81530 0.53990 0.70694 0.06200
C 	C 	0.84169 0.55003 0.70305 -0.10100
C 	C 	0.84475 0.54691 0.73349 0.01000
C 	C 	0.81947 0.53553 0.76687 -0.05000
C 	C 	0.79276 0.52770 0.76810 0.03800
C 	C 	0.70751 0.51287 0.95879 0.06000
C 	C 	0.70240 0.51930 0.92790 -0.09900
C 	C 	0.73055 0.52193 0.89561 0.00900
C 	C 	0.76336 0.51872 0.89496 -0.04900
C 	C 	0.76615 0.51211 0.92707 0.03700
C 	C 	0.79524 0.52032 0.86132 0.13400
C 	C 	0.82133 0.52913 0.80137 0.13600
C 	C 	0.85496 0.51356 0.83392 0.13500
C 	C 	0.92099 0.50197 0.80481 0.04300
C 	C 	0.89041 0.50357 0.83583 -0.05300
C 	C 	0.89485 0.49523 0.86777 0.01100
C 	C 	0.92936 0.48612 0.86698 -0.10100
C 	C 	0.95795 0.48619 0.83461 0.06200
C 	C 	0.07251 0.46145 0.70409 0.05700
C 	C 	0.10165 0.45607 0.67363 -0.09800
C 	C 	0.10426 0.48484 0.64136 0.00800
C 	C 	0.07679 0.51853 0.64115 -0.05200
C 	C 	0.04798 0.52150 0.67284 0.04000
C 	C 	0.07770 0.55020 0.60758 0.13700
C 	C 	0.95933 0.33661 0.72911 0.09800
C 	C 	0.94693 0.55527 0.70233 0.10400
C 	C 	0.03990 0.31530 0.93786 0.06200
C 	C 	0.05003 0.34169 0.90523 -0.10100
C 	C 	0.04691 0.34475 0.87485 0.01000
C 	C 	0.03553 0.31947 0.87813 -0.05000
C 	C 	0.02770 0.29276 0.91144 0.03800
C 	C 	0.01287 0.20751 0.82083 0.06000
C 	C 	0.01930 0.20240 0.85040 -0.09900
C 	C 	0.02193 0.23055 0.85191 0.00900
C 	C 	0.01872 0.26336 0.82296 -0.04900
C 	C 	0.01211 0.26615 0.79467 0.03700
C 	C 	0.02032 0.29524 0.82312 0.13400
C 	C 	0.02913 0.32133 0.84817 0.13600
C 	C 	0.01356 0.35496 0.79756 0.13500
C 	C 	0.00197 0.42099 0.77223 0.04300
C 	C 	0.00357 0.39041 0.77019 -0.05300
C 	C 	0.99523 0.39485 0.74215 0.01100
C 	C 	0.98612 0.42936 0.71754 -0.10100
C 	C 	0.98619 0.45795 0.72125 0.06200
C 	C 	0.96145 0.57251 0.76195 0.05700
C 	C 	0.95607 0.60165 0.76865 -0.09800
C 	C 	0.98484 0.60426 0.76954 0.00800
C 	C 	0.01853 0.57679 0.76353 -0.05200
C 	C 	0.02150 0.54798 0.75768 0.04100
C 	C 	0.05020 0.57770 0.76452 0.13700
C 	C 	0.22911 0.97495 0.45933 0.09800
C 	C 	0.20233 0.79547 0.44693 0.10400
C 	C 	0.43786 0.70694 0.53990 0.06200
C 	C 	0.40523 0.70305 0.55003 -0.10100
C 	C 	0.37485 0.73349 0.54691 0.01000
C 	C 	0.37813 0.76687 0.53553 -0.05000
C 	C 	0.41144 0.76810 0.52770 0.03800
C 	C 	0.32083 0.95879 0.51287 0.06000
C 	C 	0.35040 0.92790 0.51930 -0.09900
C 	C 	0.35191 0.89561 0.52193 0.00900
C 	C 	0.32296 0.89496 0.51872 -0.04900
C 	C 	0.29467 0.92707 0.51211 0.03700
C 	C 	0.32312 0.86132 0.52032 0.13400
C 	C 	0.34817 0.80137 0.52913 0.13600
C 	C 	0.29756 0.83392 0.51356 0.13500
C 	C 	0.27223 0.80481 0.50197 0.04300
C 	C 	0.27019 0.83583 0.50357 -0.05300
C 	C 	0.24215 0.86777 0.49523 0.01100
C 	C 	0.21754 0.86698 0.48612 -0.10100
C 	C 	0.22125 0.83461 0.48619 0.06200
C 	C 	0.26195 0.70409 0.46145 0.05700
C 	C 	0.26865 0.67363 0.45607 -0.09800
C 	C 	0.26954 0.64136 0.48484 0.00800
C 	C 	0.26353 0.64115 0.51853 -0.05200
C 	C 	0.25768 0.67284 0.52150 0.04000
C 	C 	0.26452 0.60758 0.55020 0.13700
C 	C 	0.47495 0.72911 0.33661 0.09800
C 	C 	0.29547 0.70233 0.55527 0.10400
C 	C 	0.20694 0.93786 0.31530 0.06200
C 	C 	0.20305 0.90523 0.34169 -0.10100
C 	C 	0.23349 0.87485 0.34475 0.01000
C 	C 	0.26687 0.87813 0.31947 -0.05000
C 	C 	0.26810 0.91144 0.29276 0.03800
C 	C 	0.45879 0.82083 0.20751 0.06000
C 	C 	0.42790 0.85040 0.20240 -0.09900
C 	C 	0.39561 0.85191 0.23055 0.00900
C 	C 	0.39496 0.82296 0.26336 -0.04900
C 	C 	0.42707 0.79467 0.26615 0.03700
C 	C 	0.36132 0.82312 0.29524 0.13400
C 	C 	0.30137 0.84817 0.32133 0.13600
C 	C 	0.33392 0.79756 0.35496 0.13500
C 	C 	0.30481 0.77223 0.42099 0.04300
C 	C 	0.33583 0.77019 0.39041 -0.05300
C 	C 	0.36777 0.74215 0.39485 0.01100
C 	C 	0.36698 0.71754 0.42936 -0.10100
C 	C 	0.33461 0.72125 0.45795 0.06200
C 	C 	0.20409 0.76195 0.57251 0.05700
C 	C 	0.17363 0.76865 0.60165 -0.09800
C 	C 	0.14136 0.76954 0.60426 0.00800
C 	C 	0.14115 0.76353 0.57679 -0.05200
C 	C 	0.17284 0.75768 0.54798 0.04000
C 	C 	0.10758 0.76452 0.57770 0.13700
C 	C 	0.47495 0.45933 0.72911 0.09800
C 	C 	0.29547 0.44693 0.70233 0.10400
C 	C 	0.20694 0.53990 0.93786 0.06200
C 	C 	0.20305 0.55003 0.90523 -0.10100
C 	C 	0.23349 0.54691 0.87485 0.01000
C 	C 	0.26687 0.53553 0.87813 -0.05000
C 	C 	0.26810 0.52770 0.91144 0.03800
C 	C 	0.45879 0.51287 0.82083 0.06000
C 	C 	0.42790 0.51930 0.85040 -0.09900
C 	C 	0.39561 0.52193 0.85191 0.00900
C 	C 	0.39496 0.51872 0.82296 -0.04900
C 	C 	0.42707 0.51211 0.79467 0.03700
C 	C 	0.36132 0.52032 0.82312 0.13400
C 	C 	0.30137 0.52913 0.84817 0.13600
C 	C 	0.33392 0.51356 0.79756 0.13500
C 	C 	0.30481 0.50197 0.77223 0.04300
C 	C 	0.33583 0.50357 0.77019 -0.05300
C 	C 	0.36777 0.49523 0.74215 0.01100
C 	C 	0.36698 0.48612 0.71754 -0.10100
C 	C 	0.33461 0.48619 0.72125 0.06200
C 	C 	0.20409 0.46145 0.76195 0.05700
C 	C 	0.17363 0.45607 0.76865 -0.09800
C 	C 	0.14136 0.48484 0.76954 0.00800
C 	C 	0.14115 0.51853 0.76353 -0.05200
C 	C 	0.17284 0.52150 0.75768 0.04000
C 	C 	0.10758 0.55020 0.76452 0.13700
C 	C 	0.22911 0.33661 0.97495 0.09800
C 	C 	0.20233 0.55527 0.79547 0.10400
C 	C 	0.43786 0.31530 0.70694 0.06200
C 	C 	0.40523 0.34169 0.70305 -0.10100
C 	C 	0.37485 0.34475 0.73349 0.01000
C 	C 	0.37813 0.31947 0.76687 -0.05000
C 	C 	0.41144 0.29276 0.76810 0.03800
C 	C 	0.32083 0.20751 0.95879 0.06000
C 	C 	0.35040 0.20240 0.92790 -0.09900
C 	C 	0.35191 0.23055 0.89561 0.00900
C 	C 	0.32296 0.26336 0.89496 -0.04900
C 	C 	0.29467 0.26615 0.92707 0.03700
C 	C 	0.32312 0.29524 0.86132 0.13400
C 	C 	0.34817 0.32133 0.80137 0.13600
C 	C 	0.29756 0.35496 0.83392 0.13500
C 	C 	0.27223 0.42099 0.80481 0.04300
C 	C 	0.27019 0.39041 0.83583 -0.05300
C 	C 	0.24215 0.39485 0.86777 0.01100
C 	C 	0.21754 0.42936 0.86698 -0.10100
C 	C 	0.22125 0.45795 0.83461 0.06200
C 	C 	0.26195 0.57251 0.70409 0.05700
C 	C 	0.26865 0.60165 0.67363 -0.09800
C 	C 	0.26954 0.60426 0.64136 0.00800
C 	C 	0.26353 0.57679 0.64115 -0.05200
C 	C 	0.25768 0.54798 0.67284 0.04000
C 	C 	0.26452 0.57770 0.60758 0.13700
C 	C 	0.95933 0.97495 0.33661 0.09800
C 	C 	0.94693 0.79547 0.55527 0.10400
C 	C 	0.03990 0.70694 0.31530 0.06200
C 	C 	0.05003 0.70305 0.34169 -0.10100
C 	C 	0.04691 0.73349 0.34475 0.01000
C 	C 	0.03553 0.76687 0.31947 -0.05000
C 	C 	0.02770 0.76810 0.29276 0.03800
C 	C 	0.01287 0.95879 0.20751 0.06000
C 	C 	0.01930 0.92790 0.20240 -0.09900
C 	C 	0.02193 0.89561 0.23055 0.00900
C 	C 	0.01872 0.89496 0.26336 -0.04900
C 	C 	0.01211 0.92707 0.26615 0.03700
C 	C 	0.02032 0.86132 0.29524 0.13400
C 	C 	0.02913 0.80137 0.32133 0.13600
C 	C 	0.01356 0.83392 0.35496 0.13500
C 	C 	0.00197 0.80481 0.42099 0.04300
C 	C 	0.00357 0.83583 0.39041 -0.05300
C 	C 	0.99523 0.86777 0.39485 0.01100
C 	C 	0.98612 0.86698 0.42936 -0.10100
C 	C 	0.98619 0.83461 0.45795 0.06200
C 	C 	0.96145 0.70409 0.57251 0.05700
C 	C 	0.95607 0.67363 0.60165 -0.09800
C 	C 	0.98484 0.64136 0.60426 0.00800
C 	C 	0.01853 0.64115 0.57679 -0.05200
C 	C 	0.02150 0.67284 0.54798 0.04100
C 	C 	0.05020 0.60758 0.57770 0.13700
C 	C 	0.83661 0.72911 0.45933 0.09800
C 	C 	0.05527 0.70233 0.44693 0.10400
C 	C 	0.81530 0.93786 0.53990 0.06200
C 	C 	0.84169 0.90523 0.55003 -0.10100
C 	C 	0.84475 0.87485 0.54691 0.01000
C 	C 	0.81947 0.87813 0.53553 -0.05000
C 	C 	0.79276 0.91144 0.52770 0.03800
C 	C 	0.70751 0.82083 0.51287 0.06000
C 	C 	0.70240 0.85040 0.51930 -0.09900
C 	C 	0.73055 0.85191 0.52193 0.00900
C 	C 	0.76336 0.82296 0.51872 -0.04900
C 	C 	0.76615 0.79467 0.51211 0.03700
C 	C 	0.79524 0.82312 0.52032 0.13400
C 	C 	0.82133 0.84817 0.52913 0.13600
C 	C 	0.85496 0.79756 0.51356 0.13500
C 	C 	0.92099 0.77223 0.50197 0.04300
C 	C 	0.89041 0.77019 0.50357 -0.05300
C 	C 	0.89485 0.74215 0.49523 0.01100
C 	C 	0.92936 0.71754 0.48612 -0.10100
C 	C 	0.95795 0.72125 0.48619 0.06200
C 	C 	0.07251 0.76195 0.46145 0.05700
C 	C 	0.10165 0.76865 0.45607 -0.09800
C 	C 	0.10426 0.76954 0.48484 0.00800
C 	C 	0.07679 0.76353 0.51853 -0.05200
C 	C 	0.04798 0.75768 0.52150 0.04000
C 	C 	0.07770 0.76452 0.55020 0.13700
C 	C 	0.22911 0.45933 0.33661 0.09800
C 	C 	0.20233 0.44693 0.55527 0.10400
C 	C 	0.43786 0.53990 0.31530 0.06200
C 	C 	0.40523 0.55003 0.34169 -0.10100
C 	C 	0.37485 0.54691 0.34475 0.01000
C 	C 	0.37813 0.53553 0.31947 -0.05000
C 	C 	0.41144 0.52770 0.29276 0.03800
C 	C 	0.32083 0.51287 0.20751 0.06000
C 	C 	0.35040 0.51930 0.20240 -0.09900
C 	C 	0.35191 0.52193 0.23055 0.00900
C 	C 	0.32296 0.51872 0.26336 -0.04900
C 	C 	0.29467 0.51211 0.26615 0.03700
C 	C 	0.32312 0.52032 0.29524 0.13400
C 	C 	0.34817 0.52913 0.32133 0.13600
C 	C 	0.29756 0.51356 0.35496 0.13500
C 	C 	0.27223 0.50197 0.42099 0.04300
C 	C 	0.27019 0.50357 0.39041 -0.05300
C 	C 	0.24215 0.49523 0.39485 0.01100
C 	C 	0.21754 0.48612 0.42936 -0.10100
C 	C 	0.22125 0.48619 0.45795 0.06200
C 	C 	0.26195 0.46145 0.57251 0.05700
C 	C 	0.26865 0.45607 0.60165 -0.09800
C 	C 	0.26954 0.48484 0.60426 0.00800
C 	C 	0.26353 0.51853 0.57679 -0.05200
C 	C 	0.25768 0.52150 0.54798 0.04000
C 	C 	0.26452 0.55020 0.57770 0.13700
C 	C 	0.47495 0.33661 0.45933 0.09800
C 	C 	0.29547 0.55527 0.44693 0.10400
C 	C 	0.20694 0.31530 0.53990 0.06200
C 	C 	0.20305 0.34169 0.55003 -0.10100
C 	C 	0.23349 0.34475 0.54691 0.01000
C 	C 	0.26687 0.31947 0.53553 -0.05000
C 	C 	0.26810 0.29276 0.52770 0.03800
C 	C 	0.45879 0.20751 0.51287 0.06000
C 	C 	0.42790 0.20240 0.51930 -0.09900
C 	C 	0.39561 0.23055 0.52193 0.00900
C 	C 	0.39496 0.26336 0.51872 -0.04900
C 	C 	0.42707 0.26615 0.51211 0.03700
C 	C 	0.36132 0.29524 0.52032 0.13400
C 	C 	0.30137 0.32133 0.52913 0.13600
C 	C 	0.33392 0.35496 0.51356 0.13500
C 	C 	0.30481 0.42099 0.50197 0.04300
C 	C 	0.33583 0.39041 0.50357 -0.05300
C 	C 	0.36777 0.39485 0.49523 0.01100
C 	C 	0.36698 0.42936 0.48612 -0.10100
C 	C 	0.33461 0.45795 0.48619 0.06200
C 	C 	0.20409 0.57251 0.46145 0.05700
C 	C 	0.17363 0.60165 0.45607 -0.09800
C 	C 	0.14136 0.60426 0.48484 0.00800
C 	C 	0.14115 0.57679 0.51853 -0.05200
C 	C 	0.17284 0.54798 0.52150 0.04000
C 	C 	0.10758 0.57770 0.55020 0.13700
C 	C 	0.83661 0.97495 0.72911 0.09800
C 	C 	0.05527 0.79547 0.70233 0.10400
C 	C 	0.81530 0.70694 0.93786 0.06200
C 	C 	0.84169 0.70305 0.90523 -0.10100
C 	C 	0.84475 0.73349 0.87485 0.01000
C 	C 	0.81947 0.76687 0.87813 -0.05000
C 	C 	0.79276 0.76810 0.91144 0.03800
C 	C 	0.70751 0.95879 0.82083 0.06000
C 	C 	0.70240 0.92790 0.85040 -0.09900
C 	C 	0.73055 0.89561 0.85191 0.00900
C 	C 	0.76336 0.89496 0.82296 -0.04900
C 	C 	0.76615 0.92707 0.79467 0.03700
C 	C 	0.79524 0.86132 0.82312 0.13400
C 	C 	0.82133 0.80137 0.84817 0.13600
C 	C 	0.85496 0.83392 0.79756 0.13500
C 	C 	0.92099 0.80481 0.77223 0.04300
C 	C 	0.89041 0.83583 0.77019 -0.05300
C 	C 	0.89485 0.86777 0.74215 0.01100
C 	C 	0.92936 0.86698 0.71754 -0.10100
C 	C 	0.95795 0.83461 0.72125 0.06200
C 	C 	0.07251 0.70409 0.76195 0.05700
C 	C 	0.10165 0.67363 0.76865 -0.09800
C 	C 	0.10426 0.64136 0.76954 0.00800
C 	C 	0.07679 0.64115 0.76353 -0.05200
C 	C 	0.04798 0.67284 0.75768 0.04000
C 	C 	0.07770 0.60758 0.76452 0.13700
C 	C 	0.95933 0.72911 0.97495 0.09800
C 	C 	0.94693 0.70233 0.79547 0.10400
C 	C 	0.03990 0.93786 0.70694 0.06200
C 	C 	0.05003 0.90523 0.70305 -0.10100
C 	C 	0.04691 0.87485 0.73349 0.01000
C 	C 	0.03553 0.87813 0.76687 -0.05000
C 	C 	0.02770 0.91144 0.76810 0.03800
C 	C 	0.01287 0.82083 0.95879 0.06000
C 	C 	0.01930 0.85040 0.92790 -0.09900
C 	C 	0.02193 0.85191 0.89561 0.00900
C 	C 	0.01872 0.82296 0.89496 -0.04900
C 	C 	0.01211 0.79467 0.92707 0.03700
C 	C 	0.02032 0.82312 0.86132 0.13400
C 	C 	0.02913 0.84817 0.80137 0.13600
C 	C 	0.01356 0.79756 0.83392 0.13500
C 	C 	0.00197 0.77223 0.80481 0.04300
C 	C 	0.00357 0.77019 0.83583 -0.05300
C 	C 	0.99523 0.74215 0.86777 0.01100
C 	C 	0.98612 0.71754 0.86698 -0.10100
C 	C 	0.98619 0.72125 0.83461 0.06200
C 	C 	0.96145 0.76195 0.70409 0.05700
C 	C 	0.95607 0.76865 0.67363 -0.09800
C 	C 	0.98484 0.76954 0.64136 0.00800
C 	C 	0.01853 0.76353 0.64115 -0.05200
C 	C 	0.02150 0.75768 0.67284 0.04100
C 	C 	0.05020 0.76452 0.60758 0.13700
C 	C 	0.45933 0.83661 0.47495 0.09800
C 	C 	0.44693 0.05527 0.29547 0.10400
C 	C 	0.53990 0.81530 0.20694 0.06200
C 	C 	0.55003 0.84169 0.20305 -0.10100
C 	C 	0.54691 0.84475 0.23349 0.01000
C 	C 	0.53553 0.81947 0.26687 -0.05000
C 	C 	0.52770 0.79276 0.26810 0.03800
C 	C 	0.51287 0.70751 0.45879 0.06000
C 	C 	0.51930 0.70240 0.42790 -0.09900
C 	C 	0.52193 0.73055 0.39561 0.00900
C 	C 	0.51872 0.76336 0.39496 -0.04900
C 	C 	0.51211 0.76615 0.42707 0.03700
C 	C 	0.52032 0.79524 0.36132 0.13400
C 	C 	0.52913 0.82133 0.30137 0.13600
C 	C 	0.51356 0.85496 0.33392 0.13500
C 	C 	0.50197 0.92099 0.30481 0.04300
C 	C 	0.50357 0.89041 0.33583 -0.05300
C 	C 	0.49523 0.89485 0.36777 0.01100
C 	C 	0.48612 0.92936 0.36698 -0.10100
C 	C 	0.48619 0.95795 0.33461 0.06200
C 	C 	0.46145 0.07251 0.20409 0.05700
C 	C 	0.45607 0.10165 0.17363 -0.09800
C 	C 	0.48484 0.10426 0.14136 0.00800
C 	C 	0.51853 0.07679 0.14115 -0.05200
C 	C 	0.52150 0.04798 0.17284 0.04000
C 	C 	0.55020 0.07770 0.10758 0.13700
C 	C 	0.33661 0.95933 0.22911 0.09800
C 	C 	0.55527 0.94693 0.20233 0.10400
C 	C 	0.31530 0.03990 0.43786 0.06200
C 	C 	0.34169 0.05003 0.40523 -0.10100
C 	C 	0.34475 0.04691 0.37485 0.01000
C 	C 	0.31947 0.03553 0.37813 -0.05000
C 	C 	0.29276 0.02770 0.41144 0.03800
C 	C 	0.20751 0.01287 0.32083 0.06000
C 	C 	0.20240 0.01930 0.35040 -0.09900
C 	C 	0.23055 0.02193 0.35191 0.00900
C 	C 	0.26336 0.01872 0.32296 -0.04900
C 	C 	0.26615 0.01211 0.29467 0.03700
C 	C 	0.29524 0.02032 0.32312 0.13400
C 	C 	0.32133 0.02913 0.34817 0.13600
C 	C 	0.35496 0.01356 0.29756 0.13500
C 	C 	0.42099 0.00197 0.27223 0.04300
C 	C 	0.39041 0.00357 0.27019 -0.05300
C 	C 	0.39485 0.99523 0.24215 0.01100
C 	C 	0.42936 0.98612 0.21754 -0.10100
C 	C 	0.45795 0.98619 0.22125 0.06200
C 	C 	0.57251 0.96145 0.26195 0.05700
C 	C 	0.60165 0.95607 0.26865 -0.09800
C 	C 	0.60426 0.98484 0.26954 0.00800
C 	C 	0.57679 0.01853 0.26353 -0.05200
C 	C 	0.54798 0.02150 0.25768 0.04100
C 	C 	0.57770 0.05020 0.26452 0.13700
C 	C 	0.97495 0.22911 0.95933 0.09800
C 	C 	0.79547 0.20233 0.94693 0.10400
C 	C 	0.70694 0.43786 0.03990 0.06200
C 	C 	0.70305 0.40523 0.05003 -0.10100
C 	C 	0.73349 0.37485 0.04691 0.01000
C 	C 	0.76687 0.37813 0.03553 -0.05000
C 	C 	0.76810 0.41144 0.02770 0.03800
C 	C 	0.95879 0.32083 0.01287 0.06000
C 	C 	0.92790 0.35040 0.01930 -0.09900
C 	C 	0.89561 0.35191 0.02193 0.00900
C 	C 	0.89496 0.32296 0.01872 -0.04900
C 	C 	0.92707 0.29467 0.01211 0.03700
C 	C 	0.86132 0.32312 0.02032 0.13400
C 	C 	0.80137 0.34817 0.02913 0.13600
C 	C 	0.83392 0.29756 0.01356 0.13500
C 	C 	0.80481 0.27223 0.00197 0.04300
C 	C 	0.83583 0.27019 0.00357 -0.05300
C 	C 	0.86777 0.24215 0.99523 0.01100
C 	C 	0.86698 0.21754 0.98612 -0.10100
C 	C 	0.83461 0.22125 0.98619 0.06200
C 	C 	0.70409 0.26195 0.96145 0.05700
C 	C 	0.67363 0.26865 0.95607 -0.09800
C 	C 	0.64136 0.26954 0.98484 0.00800
C 	C 	0.64115 0.26353 0.01853 -0.05200
C 	C 	0.67284 0.25768 0.02150 0.04100
C 	C 	0.60758 0.26452 0.05020 0.13700
C 	C 	0.72911 0.47495 0.83661 0.09800
C 	C 	0.70233 0.29547 0.05527 0.10400
C 	C 	0.93786 0.20694 0.81530 0.06200
C 	C 	0.90523 0.20305 0.84169 -0.10100
C 	C 	0.87485 0.23349 0.84475 0.01000
C 	C 	0.87813 0.26687 0.81947 -0.05000
C 	C 	0.91144 0.26810 0.79276 0.03800
C 	C 	0.82083 0.45879 0.70751 0.06000
C 	C 	0.85040 0.42790 0.70240 -0.09900
C 	C 	0.85191 0.39561 0.73055 0.00900
C 	C 	0.82296 0.39496 0.76336 -0.04900
C 	C 	0.79467 0.42707 0.76615 0.03700
C 	C 	0.82312 0.36132 0.79524 0.13400
C 	C 	0.84817 0.30137 0.82133 0.13600
C 	C 	0.79756 0.33392 0.85496 0.13500
C 	C 	0.77223 0.30481 0.92099 0.04300
C 	C 	0.77019 0.33583 0.89041 -0.05300
C 	C 	0.74215 0.36777 0.89485 0.01100
C 	C 	0.71754 0.36698 0.92936 -0.10100
C 	C 	0.72125 0.33461 0.95795 0.06200
C 	C 	0.76195 0.20409 0.07251 0.05700
C 	C 	0.76865 0.17363 0.10165 -0.09800
C 	C 	0.76954 0.14136 0.10426 0.00800
C 	C 	0.76353 0.14115 0.07679 -0.05200
C 	C 	0.75768 0.17284 0.04798 0.04000
C 	C 	0.76452 0.10758 0.07770 0.13700
C 	C 	0.45933 0.47495 0.22911 0.09800
C 	C 	0.44693 0.29547 0.20233 0.10400
C 	C 	0.53990 0.20694 0.43786 0.06200
C 	C 	0.55003 0.20305 0.40523 -0.10100
C 	C 	0.54691 0.23349 0.37485 0.01000
C 	C 	0.53553 0.26687 0.37813 -0.05000
C 	C 	0.52770 0.26810 0.41144 0.03800
C 	C 	0.51287 0.45879 0.32083 0.06000
C 	C 	0.51930 0.42790 0.35040 -0.09900
C 	C 	0.52193 0.39561 0.35191 0.00900
C 	C 	0.51872 0.39496 0.32296 -0.04900
C 	C 	0.51211 0.42707 0.29467 0.03700
C 	C 	0.52032 0.36132 0.32312 0.13400
C 	C 	0.52913 0.30137 0.34817 0.13600
C 	C 	0.51356 0.33392 0.29756 0.13500
C 	C 	0.50197 0.30481 0.27223 0.04300
C 	C 	0.50357 0.33583 0.27019 -0.05300
C 	C 	0.49523 0.36777 0.24215 0.01100
C 	C 	0.48612 0.36698 0.21754 -0.10100
C 	C 	0.48619 0.33461 0.22125 0.06200
C 	C 	0.46145 0.20409 0.26195 0.05700
C 	C 	0.45607 0.17363 0.26865 -0.09800
C 	C 	0.48484 0.14136 0.26954 0.00800
C 	C 	0.51853 0.14115 0.26353 -0.05200
C 	C 	0.52150 0.17284 0.25768 0.04000
C 	C 	0.55020 0.10758 0.26452 0.13700
C 	C 	0.33661 0.22911 0.47495 0.09800
C 	C 	0.55527 0.20233 0.29547 0.10400
C 	C 	0.31530 0.43786 0.20694 0.06200
C 	C 	0.34169 0.40523 0.20305 -0.10100
C 	C 	0.34475 0.37485 0.23349 0.01000
C 	C 	0.31947 0.37813 0.26687 -0.05000
C 	C 	0.29276 0.41144 0.26810 0.03800
C 	C 	0.20751 0.32083 0.45879 0.06000
C 	C 	0.20240 0.35040 0.42790 -0.09900
C 	C 	0.23055 0.35191 0.39561 0.00900
C 	C 	0.26336 0.32296 0.39496 -0.04900
C 	C 	0.26615 0.29467 0.42707 0.03700
C 	C 	0.29524 0.32312 0.36132 0.13400
C 	C 	0.32133 0.34817 0.30137 0.13600
C 	C 	0.35496 0.29756 0.33392 0.13500
C 	C 	0.42099 0.27223 0.30481 0.04300
C 	C 	0.39041 0.27019 0.33583 -0.05300
C 	C 	0.39485 0.24215 0.36777 0.01100
C 	C 	0.42936 0.21754 0.36698 -0.10100
C 	C 	0.45795 0.22125 0.33461 0.06200
C 	C 	0.57251 0.26195 0.20409 0.05700
C 	C 	0.60165 0.26865 0.17363 -0.09800
C 	C 	0.60426 0.26954 0.14136 0.00800
C 	C 	0.57679 0.26353 0.14115 -0.05200
C 	C 	0.54798 0.25768 0.17284 0.04000
C 	C 	0.57770 0.26452 0.10758 0.13700
C 	C 	0.97495 0.95933 0.83661 0.09800
C 	C 	0.79547 0.94693 0.05527 0.10400
C 	C 	0.70694 0.03990 0.81530 0.06200
C 	C 	0.70305 0.05003 0.84169 -0.10100
C 	C 	0.73349 0.04691 0.84475 0.01000
C 	C 	0.76687 0.03553 0.81947 -0.05000
C 	C 	0.76810 0.02770 0.79276 0.03800
C 	C 	0.95879 0.01287 0.70751 0.06000
C 	C 	0.92790 0.01930 0.70240 -0.09900
C 	C 	0.89561 0.02193 0.73055 0.00900
C 	C 	0.89496 0.01872 0.76336 -0.04900
C 	C 	0.92707 0.01211 0.76615 0.03700
C 	C 	0.86132 0.02032 0.79524 0.13400
C 	C 	0.80137 0.02913 0.82133 0.13600
C 	C 	0.83392 0.01356 0.85496 0.13500
C 	C 	0.80481 0.00197 0.92099 0.04300
C 	C 	0.83583 0.00357 0.89041 -0.05300
C 	C 	0.86777 0.99523 0.89485 0.01200
C 	C 	0.86698 0.98612 0.92936 -0.10100
C 	C 	0.83461 0.98619 0.95795 0.06200
C 	C 	0.70409 0.96145 0.07251 0.05700
C 	C 	0.67363 0.95607 0.10165 -0.09800
C 	C 	0.64136 0.98484 0.10426 0.00800
C 	C 	0.64115 0.01853 0.07679 -0.05200
C 	C 	0.67284 0.02150 0.04798 0.04100
C 	C 	0.60758 0.05020 0.07770 0.13700
C 	C 	0.72911 0.83661 0.95933 0.09800
C 	C 	0.70233 0.05527 0.94693 0.10400
C 	C 	0.93786 0.81530 0.03990 0.06200
C 	C 	0.90523 0.84169 0.05003 -0.10100
C 	C 	0.87485 0.84475 0.04691 0.01000
C 	C 	0.87813 0.81947 0.03553 -0.05000
C 	C 	0.91144 0.79276 0.02770 0.03800
C 	C 	0.82083 0.70751 0.01287 0.06000
C 	C 	0.85040 0.70240 0.01930 -0.09900
C 	C 	0.85191 0.73055 0.02193 0.00900
C 	C 	0.82296 0.76336 0.01872 -0.04900
C 	C 	0.79467 0.76615 0.01211 0.03700
C 	C 	0.82312 0.79524 0.02032 0.13400
C 	C 	0.84817 0.82133 0.02913 0.13600
C 	C 	0.79756 0.85496 0.01356 0.13500
C 	C 	0.77223 0.92099 0.00197 0.04300
C 	C 	0.77019 0.89041 0.00357 -0.05300
C 	C 	0.74215 0.89485 0.99523 0.01200
C 	C 	0.71754 0.92936 0.98612 -0.10100
C 	C 	0.72125 0.95795 0.98619 0.06200
C 	C 	0.76195 0.07251 0.96145 0.05700
C 	C 	0.76865 0.10165 0.95607 -0.09800
C 	C 	0.76954 0.10426 0.98484 0.00800
C 	C 	0.76353 0.07679 0.01853 -0.05200
C 	C 	0.75768 0.04798 0.02150 0.04100
C 	C 	0.76452 0.07770 0.05020 0.13700
C 	C 	0.45933 0.22911 0.83661 0.09800
C 	C 	0.44693 0.20233 0.05527 0.10400
C 	C 	0.53990 0.43786 0.81530 0.06200
C 	C 	0.55003 0.40523 0.84169 -0.10100
C 	C 	0.54691 0.37485 0.84475 0.01000
C 	C 	0.53553 0.37813 0.81947 -0.05000
C 	C 	0.52770 0.41144 0.79276 0.03800
C 	C 	0.51287 0.32083 0.70751 0.06000
C 	C 	0.51930 0.35040 0.70240 -0.09900
C 	C 	0.52193 0.35191 0.73055 0.00900
C 	C 	0.51872 0.32296 0.76336 -0.04900
C 	C 	0.51211 0.29467 0.76615 0.03700
C 	C 	0.52032 0.32312 0.79524 0.13400
C 	C 	0.52913 0.34817 0.82133 0.13600
C 	C 	0.51356 0.29756 0.85496 0.13500
C 	C 	0.50197 0.27223 0.92099 0.04300
C 	C 	0.50357 0.27019 0.89041 -0.05300
C 	C 	0.49523 0.24215 0.89485 0.01100
C 	C 	0.48612 0.21754 0.92936 -0.10100
C 	C 	0.48619 0.22125 0.95795 0.06200
C 	C 	0.46145 0.26195 0.07251 0.05700
C 	C 	0.45607 0.26865 0.10165 -0.09800
C 	C 	0.48484 0.26954 0.10426 0.00800
C 	C 	0.51853 0.26353 0.07679 -0.05200
C 	C 	0.52150 0.25768 0.04798 0.04000
C 	C 	0.55020 0.26452 0.07770 0.13700
C 	C 	0.33661 0.47495 0.95933 0.09800
C 	C 	0.55527 0.29547 0.94693 0.10400
C 	C 	0.31530 0.20694 0.03990 0.06200
C 	C 	0.34169 0.20305 0.05003 -0.10100
C 	C 	0.34475 0.23349 0.04691 0.01000
C 	C 	0.31947 0.26687 0.03553 -0.05000
C 	C 	0.29276 0.26810 0.02770 0.03800
C 	C 	0.20751 0.45879 0.01287 0.06000
C 	C 	0.20240 0.42790 0.01930 -0.09900
C 	C 	0.23055 0.39561 0.02193 0.00900
C 	C 	0.26336 0.39496 0.01872 -0.04900
C 	C 	0.26615 0.42707 0.01211 0.03700
C 	C 	0.29524 0.36132 0.02032 0.13400
C 	C 	0.32133 0.30137 0.02913 0.13600
C 	C 	0.35496 0.33392 0.01356 0.13500
C 	C 	0.42099 0.30481 0.00197 0.04300
C 	C 	0.39041 0.33583 0.00357 -0.05300
C 	C 	0.39485 0.36777 0.99523 0.01100
C 	C 	0.42936 0.36698 0.98612 -0.10100
C 	C 	0.45795 0.33461 0.98619 0.06200
C 	C 	0.57251 0.20409 0.96145 0.05700
C 	C 	0.60165 0.17363 0.95607 -0.09800
C 	C 	0.60426 0.14136 0.98484 0.00800
C 	C 	0.57679 0.14115 0.01853 -0.05200
C 	C 	0.54798 0.17284 0.02150 0.04100
C 	C 	0.57770 0.10758 0.05020 0.13700
C 	C 	0.97495 0.83661 0.22911 0.09800
C 	C 	0.79547 0.05527 0.20233 0.10400
C 	C 	0.70694 0.81530 0.43786 0.06200
C 	C 	0.70305 0.84169 0.40523 -0.10100
C 	C 	0.73349 0.84475 0.37485 0.01000
C 	C 	0.76687 0.81947 0.37813 -0.05000
C 	C 	0.76810 0.79276 0.41144 0.03800
C 	C 	0.95879 0.70751 0.32083 0.06000
C 	C 	0.92790 0.70240 0.35040 -0.09900
C 	C 	0.89561 0.73055 0.35191 0.00900
C 	C 	0.89496 0.76336 0.32296 -0.04900
C 	C 	0.92707 0.76615 0.29467 0.03700
C 	C 	0.86132 0.79524 0.32312 0.13400
C 	C 	0.80137 0.82133 0.34817 0.13600
C 	C 	0.83392 0.85496 0.29756 0.13500
C 	C 	0.80481 0.92099 0.27223 0.04300
C 	C 	0.83583 0.89041 0.27019 -0.05300
C 	C 	0.86777 0.89485 0.24215 0.01100
C 	C 	0.86698 0.92936 0.21754 -0.10100
C 	C 	0.83461 0.95795 0.22125 0.06200
C 	C 	0.70409 0.07251 0.26195 0.05700
C 	C 	0.67363 0.10165 0.26865 -0.09800
C 	C 	0.64136 0.10426 0.26954 0.00800
C 	C 	0.64115 0.07679 0.26353 -0.05200
C 	C 	0.67284 0.04798 0.25768 0.04000
C 	C 	0.60758 0.07770 0.26452 0.13700
C 	C 	0.72911 0.95933 0.47495 0.09800
C 	C 	0.70233 0.94693 0.29547 0.10400
C 	C 	0.93786 0.03990 0.20694 0.06200
C 	C 	0.90523 0.05003 0.20305 -0.10100
C 	C 	0.87485 0.04691 0.23349 0.01000
C 	C 	0.87813 0.03553 0.26687 -0.05000
C 	C 	0.91144 0.02770 0.26810 0.03800
C 	C 	0.82083 0.01287 0.45879 0.06000
C 	C 	0.85040 0.01930 0.42790 -0.09900
C 	C 	0.85191 0.02193 0.39561 0.00900
C 	C 	0.82296 0.01872 0.39496 -0.04900
C 	C 	0.79467 0.01211 0.42707 0.03700
C 	C 	0.82312 0.02032 0.36132 0.13400
C 	C 	0.84817 0.02913 0.30137 0.13600
C 	C 	0.79756 0.01356 0.33392 0.13500
C 	C 	0.77223 0.00197 0.30481 0.04300
C 	C 	0.77019 0.00357 0.33583 -0.05300
C 	C 	0.74215 0.99523 0.36777 0.01100
C 	C 	0.71754 0.98612 0.36698 -0.10100
C 	C 	0.72125 0.98619 0.33461 0.06200
C 	C 	0.76195 0.96145 0.20409 0.05700
C 	C 	0.76865 0.95607 0.17363 -0.09800
C 	C 	0.76954 0.98484 0.14136 0.00800
C 	C 	0.76353 0.01853 0.14115 -0.05200
C 	C 	0.75768 0.02150 0.17284 0.04100
C 	C 	0.76452 0.05020 0.10758 0.13700
C 	C 	0.16339 0.54067 0.02505 0.09800
C 	C 	0.94473 0.55307 0.20453 0.10400
C 	C 	0.18470 0.46010 0.29306 0.06200
C 	C 	0.15831 0.44997 0.29695 -0.10100
C 	C 	0.15525 0.45309 0.26651 0.01000
C 	C 	0.18053 0.46447 0.23313 -0.05000
C 	C 	0.20724 0.47230 0.23190 0.03800
C 	C 	0.29249 0.48713 0.04121 0.06000
C 	C 	0.29760 0.48070 0.07210 -0.09900
C 	C 	0.26945 0.47807 0.10439 0.00900
C 	C 	0.23664 0.48128 0.10504 -0.04900
C 	C 	0.23385 0.48789 0.07293 0.03700
C 	C 	0.20476 0.47968 0.13868 0.13400
C 	C 	0.17867 0.47087 0.19863 0.13600
C 	C 	0.14504 0.48644 0.16608 0.13500
C 	C 	0.07901 0.49803 0.19519 0.04300
C 	C 	0.10959 0.49643 0.16417 -0.05300
C 	C 	0.10515 0.50477 0.13223 0.01100
C 	C 	0.07064 0.51388 0.13302 -0.10100
C 	C 	0.04205 0.51381 0.16539 0.06200
C 	C 	0.92749 0.53855 0.29591 0.05700
C 	C 	0.89835 0.54393 0.32637 -0.09800
C 	C 	0.89574 0.51516 0.35864 0.00800
C 	C 	0.92321 0.48147 0.35885 -0.05200
C 	C 	0.95202 0.47850 0.32716 0.04000
C 	C 	0.92230 0.44980 0.39242 0.13700
C 	C 	0.04067 0.66339 0.27089 0.09800
C 	C 	0.05307 0.44473 0.29767 0.10400
C 	C 	0.96010 0.68470 0.06214 0.06200
C 	C 	0.94997 0.65831 0.09477 -0.10100
C 	C 	0.95309 0.65525 0.12515 0.01000
C 	C 	0.96447 0.68053 0.12187 -0.05000
C 	C 	0.97230 0.70724 0.08856 0.03800
C 	C 	0.98713 0.79249 0.17917 0.06000
C 	C 	0.98070 0.79760 0.14960 -0.09900
C 	C 	0.97807 0.76945 0.14809 0.00900
C 	C 	0.98128 0.73664 0.17704 -0.04900
C 	C 	0.98789 0.73385 0.20533 0.03700
C 	C 	0.97968 0.70476 0.17688 0.13400
C 	C 	0.97087 0.67867 0.15183 0.13600
C 	C 	0.98644 0.64504 0.20244 0.13500
C 	C 	0.99803 0.57901 0.22777 0.04300
C 	C 	0.99643 0.60959 0.22981 -0.05300
C 	C 	0.00477 0.60515 0.25785 0.01100
C 	C 	0.01388 0.57064 0.28246 -0.10100
C 	C 	0.01381 0.54205 0.27875 0.06200
C 	C 	0.03855 0.42749 0.23805 0.05700
C 	C 	0.04393 0.39835 0.23135 -0.09800
C 	C 	0.01516 0.39574 0.23046 0.00800
C 	C 	0.98147 0.42321 0.23647 -0.05200
C 	C 	0.97850 0.45202 0.24232 0.04100
C 	C 	0.94980 0.42230 0.23548 0.13700
C 	C 	0.77089 0.02505 0.54067 0.09800
C 	C 	0.79767 0.20453 0.55307 0.10400
C 	C 	0.56214 0.29306 0.46010 0.06200
C 	C 	0.59477 0.29695 0.44997 -0.10100
C 	C 	0.62515 0.26651 0.45309 0.01000
C 	C 	0.62187 0.23313 0.46447 -0.05000
C 	C 	0.58856 0.23190 0.47230 0.03800
C 	C 	0.67917 0.04121 0.48713 0.06000
C 	C 	0.64960 0.07210 0.48070 -0.09900
C 	C 	0.64809 0.10439 0.47807 0.00900
C 	C 	0.67704 0.10504 0.48128 -0.04900
C 	C 	0.70533 0.07293 0.48789 0.03700
C 	C 	0.67688 0.13868 0.47968 0.13400
C 	C 	0.65183 0.19863 0.47087 0.13600
C 	C 	0.70244 0.16608 0.48644 0.13500
C 	C 	0.72777 0.19519 0.49803 0.04300
C 	C 	0.72981 0.16417 0.49643 -0.05300
C 	C 	0.75785 0.13223 0.50477 0.01100
C 	C 	0.78246 0.13302 0.51388 -0.10100
C 	C 	0.77875 0.16539 0.51381 0.06200
C 	C 	0.73805 0.29591 0.53855 0.05700
C 	C 	0.73135 0.32637 0.54393 -0.09800
C 	C 	0.73046 0.35864 0.51516 0.00800
C 	C 	0.73647 0.35885 0.48147 -0.05200
C 	C 	0.74232 0.32716 0.47850 0.04000
C 	C 	0.73548 0.39242 0.44980 0.13700
C 	C 	0.52505 0.27089 0.66339 0.09800
C 	C 	0.70453 0.29767 0.44473 0.10400
C 	C 	0.79306 0.06214 0.68470 0.06200
C 	C 	0.79695 0.09477 0.65831 -0.10100
C 	C 	0.76651 0.12515 0.65525 0.01000
C 	C 	0.73313 0.12187 0.68053 -0.05000
C 	C 	0.73190 0.08856 0.70724 0.03800
C 	C 	0.54121 0.17917 0.79249 0.06000
C 	C 	0.57210 0.14960 0.79760 -0.09900
C 	C 	0.60439 0.14809 0.76945 0.00900
C 	C 	0.60504 0.17704 0.73664 -0.04900
C 	C 	0.57293 0.20533 0.73385 0.03700
C 	C 	0.63868 0.17688 0.70476 0.13400
C 	C 	0.69863 0.15183 0.67867 0.13600
C 	C 	0.66608 0.20244 0.64504 0.13500
C 	C 	0.69519 0.22777 0.57901 0.04300
C 	C 	0.66417 0.22981 0.60959 -0.05300
C 	C 	0.63223 0.25785 0.60515 0.01100
C 	C 	0.63302 0.28246 0.57064 -0.10100
C 	C 	0.66539 0.27875 0.54205 0.06200
C 	C 	0.79591 0.23805 0.42749 0.05700
C 	C 	0.82637 0.23135 0.39835 -0.09800
C 	C 	0.85864 0.23046 0.39574 0.00800
C 	C 	0.85885 0.23647 0.42321 -0.05200
C 	C 	0.82716 0.24232 0.45202 0.04000
C 	C 	0.89242 0.23548 0.42230 0.13700
C 	C 	0.52505 0.54067 0.27089 0.09800
C 	C 	0.70453 0.55307 0.29767 0.10400
C 	C 	0.79306 0.46010 0.06214 0.06200
C 	C 	0.79695 0.44997 0.09477 -0.10100
C 	C 	0.76651 0.45309 0.12515 0.01000
C 	C 	0.73313 0.46447 0.12187 -0.05000
C 	C 	0.73190 0.47230 0.08856 0.03800
C 	C 	0.54121 0.48713 0.17917 0.06000
C 	C 	0.57210 0.48070 0.14960 -0.09900
C 	C 	0.60439 0.47807 0.14809 0.00900
C 	C 	0.60504 0.48128 0.17704 -0.04900
C 	C 	0.57293 0.48789 0.20533 0.03700
C 	C 	0.63868 0.47968 0.17688 0.13400
C 	C 	0.69863 0.47087 0.15183 0.13600
C 	C 	0.66608 0.48644 0.20244 0.13500
C 	C 	0.69519 0.49803 0.22777 0.04300
C 	C 	0.66417 0.49643 0.22981 -0.05300
C 	C 	0.63223 0.50477 0.25785 0.01100
C 	C 	0.63302 0.51388 0.28246 -0.10100
C 	C 	0.66539 0.51381 0.27875 0.06200
C 	C 	0.79591 0.53855 0.23805 0.05700
C 	C 	0.82637 0.54393 0.23135 -0.09800
C 	C 	0.85864 0.51516 0.23046 0.00800
C 	C 	0.85885 0.48147 0.23647 -0.05200
C 	C 	0.82716 0.47850 0.24232 0.04000
C 	C 	0.89242 0.44980 0.23548 0.13700
C 	C 	0.77089 0.66339 0.02505 0.09800
C 	C 	0.79767 0.44473 0.20453 0.10400
C 	C 	0.56214 0.68470 0.29306 0.06200
C 	C 	0.59477 0.65831 0.29695 -0.10100
C 	C 	0.62515 0.65525 0.26651 0.01000
C 	C 	0.62187 0.68053 0.23313 -0.05000
C 	C 	0.58856 0.70724 0.23190 0.03800
C 	C 	0.67917 0.79249 0.04121 0.06000
C 	C 	0.64960 0.79760 0.07210 -0.09900
C 	C 	0.64809 0.76945 0.10439 0.00900
C 	C 	0.67704 0.73664 0.10504 -0.04900
C 	C 	0.70533 0.73385 0.07293 0.03700
C 	C 	0.67688 0.70476 0.13868 0.13400
C 	C 	0.65183 0.67867 0.19863 0.13600
C 	C 	0.70244 0.64504 0.16608 0.13500
C 	C 	0.72777 0.57901 0.19519 0.04300
C 	C 	0.72981 0.60959 0.16417 -0.05300
C 	C 	0.75785 0.60515 0.13223 0.01100
C 	C 	0.78246 0.57064 0.13302 -0.10100
C 	C 	0.77875 0.54205 0.16539 0.06200
C 	C 	0.73805 0.42749 0.29591 0.05700
C 	C 	0.73135 0.39835 0.32637 -0.09800
C 	C 	0.73046 0.39574 0.35864 0.00800
C 	C 	0.73647 0.42321 0.35885 -0.05200
C 	C 	0.74232 0.45202 0.32716 0.04000
C 	C 	0.73548 0.42230 0.39242 0.13700
C 	C 	0.04067 0.02505 0.66339 0.09800
C 	C 	0.05307 0.20453 0.44473 0.10400
C 	C 	0.96010 0.29306 0.68470 0.06200
C 	C 	0.94997 0.29695 0.65831 -0.10100
C 	C 	0.95309 0.26651 0.65525 0.01000
C 	C 	0.96447 0.23313 0.68053 -0.05000
C 	C 	0.97230 0.23190 0.70724 0.03800
C 	C 	0.98713 0.04121 0.79249 0.06000
C 	C 	0.98070 0.07210 0.79760 -0.09900
C 	C 	0.97807 0.10439 0.76945 0.00900
C 	C 	0.98128 0.10504 0.73664 -0.04900
C 	C 	0.98789 0.07293 0.73385 0.03700
C 	C 	0.97968 0.13868 0.70476 0.13400
C 	C 	0.97087 0.19863 0.67867 0.13600
C 	C 	0.98644 0.16608 0.64504 0.13500
C 	C 	0.99803 0.19519 0.57901 0.04300
C 	C 	0.99643 0.16417 0.60959 -0.05300
C 	C 	0.00477 0.13223 0.60515 0.01100
C 	C 	0.01388 0.13302 0.57064 -0.10100
C 	C 	0.01381 0.16539 0.54205 0.06200
C 	C 	0.03855 0.29591 0.42749 0.05700
C 	C 	0.04393 0.32637 0.39835 -0.09800
C 	C 	0.01516 0.35864 0.39574 0.00800
C 	C 	0.98147 0.35885 0.42321 -0.05200
C 	C 	0.97850 0.32716 0.45202 0.04100
C 	C 	0.94980 0.39242 0.42230 0.13700
C 	C 	0.16339 0.27089 0.54067 0.09800
C 	C 	0.94473 0.29767 0.55307 0.10400
C 	C 	0.18470 0.06214 0.46010 0.06200
C 	C 	0.15831 0.09477 0.44997 -0.10100
C 	C 	0.15525 0.12515 0.45309 0.01000
C 	C 	0.18053 0.12187 0.46447 -0.05000
C 	C 	0.20724 0.08856 0.47230 0.03800
C 	C 	0.29249 0.17917 0.48713 0.06000
C 	C 	0.29760 0.14960 0.48070 -0.09900
C 	C 	0.26945 0.14809 0.47807 0.00900
C 	C 	0.23664 0.17704 0.48128 -0.04900
C 	C 	0.23385 0.20533 0.48789 0.03700
C 	C 	0.20476 0.17688 0.47968 0.13400
C 	C 	0.17867 0.15183 0.47087 0.13600
C 	C 	0.14504 0.20244 0.48644 0.13500
C 	C 	0.07901 0.22777 0.49803 0.04300
C 	C 	0.10959 0.22981 0.49643 -0.05300
C 	C 	0.10515 0.25785 0.50477 0.01100
C 	C 	0.07064 0.28246 0.51388 -0.10100
C 	C 	0.04205 0.27875 0.51381 0.06200
C 	C 	0.92749 0.23805 0.53855 0.05700
C 	C 	0.89835 0.23135 0.54393 -0.09800
C 	C 	0.89574 0.23046 0.51516 0.00800
C 	C 	0.92321 0.23647 0.48147 -0.05200
C 	C 	0.95202 0.24232 0.47850 0.04000
C 	C 	0.92230 0.23548 0.44980 0.13700
C 	C 	0.77089 0.54067 0.66339 0.09800
C 	C 	0.79767 0.55307 0.44473 0.10400
C 	C 	0.56214 0.46010 0.68470 0.06200
C 	C 	0.59477 0.44997 0.65831 -0.10100
C 	C 	0.62515 0.45309 0.65525 0.01000
C 	C 	0.62187 0.46447 0.68053 -0.05000
C 	C 	0.58856 0.47230 0.70724 0.03800
C 	C 	0.67917 0.48713 0.79249 0.06000
C 	C 	0.64960 0.48070 0.79760 -0.09900
C 	C 	0.64809 0.47807 0.76945 0.00900
C 	C 	0.67704 0.48128 0.73664 -0.04900
C 	C 	0.70533 0.48789 0.73385 0.03700
C 	C 	0.67688 0.47968 0.70476 0.13400
C 	C 	0.65183 0.47087 0.67867 0.13600
C 	C 	0.70244 0.48644 0.64504 0.13500
C 	C 	0.72777 0.49803 0.57901 0.04300
C 	C 	0.72981 0.49643 0.60959 -0.05300
C 	C 	0.75785 0.50477 0.60515 0.01100
C 	C 	0.78246 0.51388 0.57064 -0.10100
C 	C 	0.77875 0.51381 0.54205 0.06200
C 	C 	0.73805 0.53855 0.42749 0.05700
C 	C 	0.73135 0.54393 0.39835 -0.09800
C 	C 	0.73046 0.51516 0.39574 0.00800
C 	C 	0.73647 0.48147 0.42321 -0.05200
C 	C 	0.74232 0.47850 0.45202 0.04000
C 	C 	0.73548 0.44980 0.42230 0.13700
C 	C 	0.52505 0.66339 0.54067 0.09800
C 	C 	0.70453 0.44473 0.55307 0.10400
C 	C 	0.79306 0.68470 0.46010 0.06200
C 	C 	0.79695 0.65831 0.44997 -0.10100
C 	C 	0.76651 0.65525 0.45309 0.01000
C 	C 	0.73313 0.68053 0.46447 -0.05000
C 	C 	0.73190 0.70724 0.47230 0.03800
C 	C 	0.54121 0.79249 0.48713 0.06000
C 	C 	0.57210 0.79760 0.48070 -0.09900
C 	C 	0.60439 0.76945 0.47807 0.00900
C 	C 	0.60504 0.73664 0.48128 -0.04900
C 	C 	0.57293 0.73385 0.48789 0.03700
C 	C 	0.63868 0.70476 0.47968 0.13400
C 	C 	0.69863 0.67867 0.47087 0.13600
C 	C 	0.66608 0.64504 0.48644 0.13500
C 	C 	0.69519 0.57901 0.49803 0.04300
C 	C 	0.66417 0.60959 0.49643 -0.05300
C 	C 	0.63223 0.60515 0.50477 0.01100
C 	C 	0.63302 0.57064 0.51388 -0.10100
C 	C 	0.66539 0.54205 0.51381 0.06200
C 	C 	0.79591 0.42749 0.53855 0.05700
C 	C 	0.82637 0.39835 0.54393 -0.09800
C 	C 	0.85864 0.39574 0.51516 0.00800
C 	C 	0.85885 0.42321 0.48147 -0.05200
C 	C 	0.82716 0.45202 0.47850 0.04000
C 	C 	0.89242 0.42230 0.44980 0.13700
C 	C 	0.16339 0.02505 0.27089 0.09800
C 	C 	0.94473 0.20453 0.29767 0.10400
C 	C 	0.18470 0.29306 0.06214 0.06200
C 	C 	0.15831 0.29695 0.09477 -0.10100
C 	C 	0.15525 0.26651 0.12515 0.01000
C 	C 	0.18053 0.23313 0.12187 -0.05000
C 	C 	0.20724 0.23190 0.08856 0.03800
C 	C 	0.29249 0.04121 0.17917 0.06000
C 	C 	0.29760 0.07210 0.14960 -0.09900
C 	C 	0.26945 0.10439 0.14809 0.00900
C 	C 	0.23664 0.10504 0.17704 -0.04900
C 	C 	0.23385 0.07293 0.20533 0.03700
C 	C 	0.20476 0.13868 0.17688 0.13400
C 	C 	0.17867 0.19863 0.15183 0.13600
C 	C 	0.14504 0.16608 0.20244 0.13500
C 	C 	0.07901 0.19519 0.22777 0.04300
C 	C 	0.10959 0.16417 0.22981 -0.05300
C 	C 	0.10515 0.13223 0.25785 0.01100
C 	C 	0.07064 0.13302 0.28246 -0.10100
C 	C 	0.04205 0.16539 0.27875 0.06200
C 	C 	0.92749 0.29591 0.23805 0.05700
C 	C 	0.89835 0.32637 0.23135 -0.09800
C 	C 	0.89574 0.35864 0.23046 0.00800
C 	C 	0.92321 0.35885 0.23647 -0.05200
C 	C 	0.95202 0.32716 0.24232 0.04000
C 	C 	0.92230 0.39242 0.23548 0.13700
C 	C 	0.04067 0.27089 0.02505 0.09800
C 	C 	0.05307 0.29767 0.20453 0.10400
C 	C 	0.96010 0.06214 0.29306 0.06200
C 	C 	0.94997 0.09477 0.29695 -0.10100
C 	C 	0.95309 0.12515 0.26651 0.01000
C 	C 	0.96447 0.12187 0.23313 -0.05000
C 	C 	0.97230 0.08856 0.23190 0.03800
C 	C 	0.98713 0.17917 0.04121 0.06000
C 	C 	0.98070 0.14960 0.07210 -0.09900
C 	C 	0.97807 0.14809 0.10439 0.00900
C 	C 	0.98128 0.17704 0.10504 -0.04900
C 	C 	0.98789 0.20533 0.07293 0.03700
C 	C 	0.97968 0.17688 0.13868 0.13400
C 	C 	0.97087 0.15183 0.19863 0.13600
C 	C 	0.98644 0.20244 0.16608 0.13500
C 	C 	0.99803 0.22777 0.19519 0.04300
C 	C 	0.99643 0.22981 0.16417 -0.05300
C 	C 	0.00477 0.25785 0.13223 0.01100
C 	C 	0.01388 0.28246 0.13302 -0.10100
C 	C 	0.01381 0.27875 0.16539 0.06200
C 	C 	0.03855 0.23805 0.29591 0.05700
C 	C 	0.04393 0.23135 0.32637 -0.09800
C 	C 	0.01516 0.23046 0.35864 0.00800
C 	C 	0.98147 0.23647 0.35885 -0.05200
C 	C 	0.97850 0.24232 0.32716 0.04100
C 	C 	0.94980 0.23548 0.39242 0.13700
S 	S 	0.55275 0.11995 0.53493 -0.06100
S 	S 	0.57743 0.91427 0.68445 -0.06100
S 	S 	0.61995 0.05275 0.79237 -0.06100
S 	S 	0.41427 0.07743 0.82385 -0.06100
S 	S 	0.03493 0.79237 0.05275 -0.06100
S 	S 	0.18445 0.82385 0.07743 -0.06100
S 	S 	0.29237 0.53493 0.11995 -0.06100
S 	S 	0.32385 0.68445 0.91427 -0.06100
S 	S 	0.55275 0.53493 0.79237 -0.06100
S 	S 	0.57743 0.68445 0.82385 -0.06100
S 	S 	0.61995 0.79237 0.53493 -0.06100
S 	S 	0.41427 0.82385 0.68445 -0.06100
S 	S 	0.03493 0.05275 0.11995 -0.06100
S 	S 	0.18445 0.07743 0.91427 -0.06100
S 	S 	0.29237 0.11995 0.05275 -0.06100
S 	S 	0.32385 0.91427 0.07743 -0.06100
S 	S 	0.55275 0.79237 0.11995 -0.06100
S 	S 	0.57743 0.82385 0.91427 -0.06100
S 	S 	0.61995 0.53493 0.05275 -0.06100
S 	S 	0.41427 0.68445 0.07743 -0.06100
S 	S 	0.03493 0.11995 0.79237 -0.06100
S 	S 	0.18445 0.91427 0.82385 -0.06100
S 	S 	0.29237 0.05275 0.53493 -0.06100
S 	S 	0.32385 0.07743 0.68445 -0.06100
S 	S 	0.88005 0.44725 0.96507 -0.06100
S 	S 	0.08573 0.42257 0.81555 -0.06100
S 	S 	0.94725 0.38005 0.70763 -0.06100
S 	S 	0.92257 0.58573 0.67615 -0.06100
S 	S 	0.20763 0.96507 0.44725 -0.06100
S 	S 	0.17615 0.81555 0.42257 -0.06100
S 	S 	0.46507 0.70763 0.38005 -0.06200
S 	S 	0.31555 0.67615 0.58573 -0.06100
S 	S 	0.46507 0.44725 0.70763 -0.06200
S 	S 	0.31555 0.42257 0.67615 -0.06100
S 	S 	0.20763 0.38005 0.96507 -0.06100
S 	S 	0.17615 0.58573 0.81555 -0.06100
S 	S 	0.94725 0.96507 0.38005 -0.06100
S 	S 	0.92257 0.81555 0.58573 -0.06100
S 	S 	0.88005 0.70763 0.44725 -0.06100
S 	S 	0.08573 0.67615 0.42257 -0.06100
S 	S 	0.20763 0.44725 0.38005 -0.06100
S 	S 	0.17615 0.42257 0.58573 -0.06100
S 	S 	0.46507 0.38005 0.44725 -0.06200
S 	S 	0.31555 0.58573 0.42257 -0.06100
S 	S 	0.88005 0.96507 0.70763 -0.06100
S 	S 	0.08573 0.81555 0.67615 -0.06100
S 	S 	0.94725 0.70763 0.96507 -0.06100
S 	S 	0.92257 0.67615 0.81555 -0.06100
S 	S 	0.44725 0.88005 0.46507 -0.06100
S 	S 	0.42257 0.08573 0.31555 -0.06100
S 	S 	0.38005 0.94725 0.20763 -0.06100
S 	S 	0.58573 0.92257 0.17615 -0.06100
S 	S 	0.96507 0.20763 0.94725 -0.06100
S 	S 	0.81555 0.17615 0.92257 -0.06100
S 	S 	0.70763 0.46507 0.88005 -0.06100
S 	S 	0.67615 0.31555 0.08573 -0.06100
S 	S 	0.44725 0.46507 0.20763 -0.06100
S 	S 	0.42257 0.31555 0.17615 -0.06100
S 	S 	0.38005 0.20763 0.46507 -0.06100
S 	S 	0.58573 0.17615 0.31555 -0.06100
S 	S 	0.96507 0.94725 0.88005 -0.06100
S 	S 	0.81555 0.92257 0.08573 -0.06100
S 	S 	0.70763 0.88005 0.94725 -0.06100
S 	S 	0.67615 0.08573 0.92257 -0.06100
S 	S 	0.44725 0.20763 0.88005 -0.06100
S 	S 	0.42257 0.17615 0.08573 -0.06100
S 	S 	0.38005 0.46507 0.94725 -0.06100
S 	S 	0.58573 0.31555 0.92257 -0.06100
S 	S 	0.96507 0.88005 0.20763 -0.06100
S 	S 	0.81555 0.08573 0.17615 -0.06100
S 	S 	0.70763 0.94725 0.46507 -0.06100
S 	S 	0.67615 0.92257 0.31555 -0.06100
S 	S 	0.11995 0.55275 0.03493 -0.06100
S 	S 	0.91427 0.57743 0.18445 -0.06100
S 	S 	0.05275 0.61995 0.29237 -0.06100
S 	S 	0.07743 0.41427 0.32385 -0.06100
S 	S 	0.79237 0.03493 0.55275 -0.06100
S 	S 	0.82385 0.18445 0.57743 -0.06100
S 	S 	0.53493 0.29237 0.61995 -0.06200
S 	S 	0.68445 0.32385 0.41427 -0.06100
S 	S 	0.53493 0.55275 0.29237 -0.06200
S 	S 	0.68445 0.57743 0.32385 -0.06100
S 	S 	0.79237 0.61995 0.03493 -0.06100
S 	S 	0.82385 0.41427 0.18445 -0.06100
S 	S 	0.05275 0.03493 0.61995 -0.06100
S 	S 	0.07743 0.18445 0.41427 -0.06100
S 	S 	0.11995 0.29237 0.55275 -0.06100
S 	S 	0.91427 0.32385 0.57743 -0.06100
S 	S 	0.79237 0.55275 0.61995 -0.06100
S 	S 	0.82385 0.57743 0.41427 -0.06100
S 	S 	0.53493 0.61995 0.55275 -0.06200
S 	S 	0.68445 0.41427 0.57743 -0.06100
S 	S 	0.11995 0.03493 0.29237 -0.06100
S 	S 	0.91427 0.18445 0.32385 -0.06100
S 	S 	0.05275 0.29237 0.03493 -0.06100
S 	S 	0.07743 0.32385 0.18445 -0.06100
N 	N 	0.53144 0.19470 0.51692 -0.25900
N 	N 	0.53596 0.96614 0.71882 -0.26200
N 	N 	0.47115 0.20937 0.76095 -0.22600
N 	N 	0.49103 0.26115 0.54099 -0.22700
N 	N 	0.47133 0.20889 0.66949 -0.15100
N 	N 	0.48818 0.17330 0.63510 -0.15000
N 	N 	0.47742 0.14644 0.69870 -0.15200
N 	N 	0.50651 0.04587 0.69611 -0.23000
N 	N 	0.50635 0.95443 0.79577 -0.22900
N 	N 	0.42049 0.95209 0.89165 -0.15400
N 	N 	0.69470 0.03144 0.75694 -0.25900
N 	N 	0.46614 0.03596 0.77908 -0.26200
N 	N 	0.70937 0.97115 0.55853 -0.22600
N 	N 	0.76115 0.99103 0.70683 -0.22700
N 	N 	0.70889 0.97133 0.65029 -0.15100
N 	N 	0.67330 0.98818 0.70342 -0.15000
N 	N 	0.64644 0.97742 0.67744 -0.15200
N 	N 	0.54587 0.00651 0.75151 -0.23000
N 	N 	0.45443 0.00635 0.74345 -0.22900
N 	N 	0.45209 0.92049 0.73577 -0.15400
N 	N 	0.01692 0.75694 0.03144 -0.25900
N 	N 	0.21882 0.77908 0.03596 -0.26200
N 	N 	0.26095 0.55853 0.97115 -0.22600
N 	N 	0.04099 0.70683 0.99103 -0.22700
N 	N 	0.16949 0.65029 0.97133 -0.15100
N 	N 	0.13510 0.70342 0.98818 -0.15000
N 	N 	0.19870 0.67744 0.97742 -0.15200
N 	N 	0.19611 0.75151 0.00651 -0.23000
N 	N 	0.29577 0.74345 0.00635 -0.22900
N 	N 	0.39165 0.73577 0.92049 -0.15400
N 	N 	0.25694 0.51692 0.19470 -0.25900
N 	N 	0.27908 0.71882 0.96614 -0.26200
N 	N 	0.05853 0.76095 0.20937 -0.22600
N 	N 	0.20683 0.54099 0.26115 -0.22700
N 	N 	0.15029 0.66949 0.20889 -0.15100
N 	N 	0.20342 0.63510 0.17330 -0.15000
N 	N 	0.17744 0.69870 0.14644 -0.15200
N 	N 	0.25151 0.69611 0.04587 -0.23000
N 	N 	0.24345 0.79577 0.95443 -0.22900
N 	N 	0.23577 0.89165 0.95209 -0.15400
N 	N 	0.53144 0.51692 0.75694 -0.25900
N 	N 	0.53596 0.71882 0.77908 -0.26200
N 	N 	0.47115 0.76095 0.55853 -0.22600
N 	N 	0.49103 0.54099 0.70683 -0.22700
N 	N 	0.47133 0.66949 0.65029 -0.15100
N 	N 	0.48818 0.63510 0.70342 -0.15000
N 	N 	0.47742 0.69870 0.67744 -0.15200
N 	N 	0.50651 0.69611 0.75151 -0.23000
N 	N 	0.50635 0.79577 0.74345 -0.22900
N 	N 	0.42049 0.89165 0.73577 -0.15400
N 	N 	0.69470 0.75694 0.51692 -0.25900
N 	N 	0.46614 0.77908 0.71882 -0.26200
N 	N 	0.70937 0.55853 0.76095 -0.22600
N 	N 	0.76115 0.70683 0.54099 -0.22700
N 	N 	0.70889 0.65029 0.66949 -0.15100
N 	N 	0.67330 0.70342 0.63510 -0.15000
N 	N 	0.64644 0.67744 0.69870 -0.15200
N 	N 	0.54587 0.75151 0.69611 -0.23000
N 	N 	0.45443 0.74345 0.79577 -0.22900
N 	N 	0.45209 0.73577 0.89165 -0.15400
N 	N 	0.01692 0.03144 0.19470 -0.25900
N 	N 	0.21882 0.03596 0.96614 -0.26200
N 	N 	0.26095 0.97115 0.20937 -0.22600
N 	N 	0.04099 0.99103 0.26115 -0.22700
N 	N 	0.16949 0.97133 0.20889 -0.15100
N 	N 	0.13510 0.98818 0.17330 -0.15000
N 	N 	0.19870 0.97742 0.14644 -0.15200
N 	N 	0.19611 0.00651 0.04587 -0.23000
N 	N 	0.29577 0.00635 0.95443 -0.22900
N 	N 	0.39165 0.92049 0.95209 -0.15400
N 	N 	0.25694 0.19470 0.03144 -0.25900
N 	N 	0.27908 0.96614 0.03596 -0.26200
N 	N 	0.05853 0.20937 0.97115 -0.22600
N 	N 	0.20683 0.26115 0.99103 -0.22700
N 	N 	0.15029 0.20889 0.97133 -0.15100
N 	N 	0.20342 0.17330 0.98818 -0.15000
N 	N 	0.17744 0.14644 0.97742 -0.15200
N 	N 	0.25151 0.04587 0.00651 -0.23000
N 	N 	0.24345 0.95443 0.00635 -0.22900
N 	N 	0.23577 0.95209 0.92049 -0.15400
N 	N 	0.53144 0.75694 0.19470 -0.25900
N 	N 	0.53596 0.77908 0.96614 -0.26200
N 	N 	0.47115 0.55853 0.20937 -0.22600
N 	N 	0.49103 0.70683 0.26115 -0.22700
N 	N 	0.47133 0.65029 0.20889 -0.15100
N 	N 	0.48818 0.70342 0.17330 -0.15000
N 	N 	0.47742 0.67744 0.14644 -0.15200
N 	N 	0.50651 0.75151 0.04587 -0.23000
N 	N 	0.50635 0.74345 0.95443 -0.22900
N 	N 	0.42049 0.73577 0.95209 -0.15400
N 	N 	0.69470 0.51692 0.03144 -0.25900
N 	N 	0.46614 0.71882 0.03596 -0.26200
N 	N 	0.70937 0.76095 0.97115 -0.22600
N 	N 	0.76115 0.54099 0.99103 -0.22700
N 	N 	0.70889 0.66949 0.97133 -0.15100
N 	N 	0.67330 0.63510 0.98818 -0.15000
N 	N 	0.64644 0.69870 0.97742 -0.15200
N 	N 	0.54587 0.69611 0.00651 -0.23000
N 	N 	0.45443 0.79577 0.00635 -0.22900
N 	N 	0.45209 0.89165 0.92049 -0.15400
N 	N 	0.01692 0.19470 0.75694 -0.25900
N 	N 	0.21882 0.96614 0.77908 -0.26200
N 	N 	0.26095 0.20937 0.55853 -0.22600
N 	N 	0.04099 0.26115 0.70683 -0.22700
N 	N 	0.16949 0.20889 0.65029 -0.15100
N 	N 	0.13510 0.17330 0.70342 -0.15000
N 	N 	0.19870 0.14644 0.67744 -0.15200
N 	N 	0.19611 0.04587 0.75151 -0.23000
N 	N 	0.29577 0.95443 0.74345 -0.22900
N 	N 	0.39165 0.95209 0.73577 -0.15400
N 	N 	0.25694 0.03144 0.51692 -0.25900
N 	N 	0.27908 0.03596 0.71882 -0.26200
N 	N 	0.05853 0.97115 0.76095 -0.22600
N 	N 	0.20683 0.99103 0.54099 -0.22700
N 	N 	0.15029 0.97133 0.66949 -0.15100
N 	N 	0.20342 0.98818 0.63510 -0.15000
N 	N 	0.17744 0.97742 0.69870 -0.15200
N 	N 	0.25151 0.00651 0.69611 -0.23000
N 	N 	0.24345 0.00635 0.79577 -0.22900
N 	N 	0.23577 0.92049 0.89165 -0.15400
N 	N 	0.80530 0.46856 0.98308 -0.25900
N 	N 	0.03386 0.46404 0.78118 -0.26200
N 	N 	0.79063 0.52885 0.73905 -0.22600
N 	N 	0.73885 0.50897 0.95901 -0.22700
N 	N 	0.79111 0.52867 0.83051 -0.15100
N 	N 	0.82670 0.51182 0.86490 -0.15000
N 	N 	0.85356 0.52258 0.80130 -0.15200
N 	N 	0.95413 0.49349 0.80389 -0.23000
N 	N 	0.04557 0.49365 0.70423 -0.22900
N 	N 	0.04791 0.57951 0.60835 -0.15400
N 	N 	0.96856 0.30530 0.74306 -0.25900
N 	N 	0.96404 0.53386 0.72092 -0.26200
N 	N 	0.02885 0.29063 0.94147 -0.22600
N 	N 	0.00897 0.23885 0.79317 -0.22700
N 	N 	0.02867 0.29111 0.84971 -0.15100
N 	N 	0.01182 0.32670 0.79658 -0.15000
N 	N 	0.02258 0.35356 0.82256 -0.15200
N 	N 	0.99349 0.45413 0.74849 -0.23000
N 	N 	0.99365 0.54557 0.75655 -0.22900
N 	N 	0.07951 0.54791 0.76423 -0.15400
N 	N 	0.24306 0.98308 0.46856 -0.25900
N 	N 	0.22092 0.78118 0.46404 -0.26200
N 	N 	0.44147 0.73905 0.52885 -0.22600
N 	N 	0.29317 0.95901 0.50897 -0.22700
N 	N 	0.34971 0.83051 0.52867 -0.15100
N 	N 	0.29658 0.86490 0.51182 -0.15000
N 	N 	0.32256 0.80130 0.52258 -0.15200
N 	N 	0.24849 0.80389 0.49349 -0.23000
N 	N 	0.25655 0.70423 0.49365 -0.22900
N 	N 	0.26423 0.60835 0.57951 -0.15400
N 	N 	0.48308 0.74306 0.30530 -0.25900
N 	N 	0.28118 0.72092 0.53386 -0.26200
N 	N 	0.23905 0.94147 0.29063 -0.22600
N 	N 	0.45901 0.79317 0.23885 -0.22700
N 	N 	0.33051 0.84971 0.29111 -0.15100
N 	N 	0.36490 0.79658 0.32670 -0.15000
N 	N 	0.30130 0.82256 0.35356 -0.15200
N 	N 	0.30389 0.74849 0.45413 -0.23000
N 	N 	0.20423 0.75655 0.54557 -0.22900
N 	N 	0.10835 0.76423 0.54791 -0.15400
N 	N 	0.48308 0.46856 0.74306 -0.25900
N 	N 	0.28118 0.46404 0.72092 -0.26200
N 	N 	0.23905 0.52885 0.94147 -0.22600
N 	N 	0.45901 0.50897 0.79317 -0.22700
N 	N 	0.33051 0.52867 0.84971 -0.15100
N 	N 	0.36490 0.51182 0.79658 -0.15000
N 	N 	0.30130 0.52258 0.82256 -0.15200
N 	N 	0.30389 0.49349 0.74849 -0.23000
N 	N 	0.20423 0.49365 0.75655 -0.22900
N 	N 	0.10835 0.57951 0.76423 -0.15400
N 	N 	0.24306 0.30530 0.98308 -0.25900
N 	N 	0.22092 0.53386 0.78118 -0.26200
N 	N 	0.44147 0.29063 0.73905 -0.22600
N 	N 	0.29317 0.23885 0.95901 -0.22700
N 	N 	0.34971 0.29111 0.83051 -0.15100
N 	N 	0.29658 0.32670 0.86490 -0.15000
N 	N 	0.32256 0.35356 0.80130 -0.15200
N 	N 	0.24849 0.45413 0.80389 -0.23000
N 	N 	0.25655 0.54557 0.70423 -0.22900
N 	N 	0.26423 0.54791 0.60835 -0.15400
N 	N 	0.96856 0.98308 0.30530 -0.25900
N 	N 	0.96404 0.78118 0.53386 -0.26200
N 	N 	0.02885 0.73905 0.29063 -0.22600
N 	N 	0.00897 0.95901 0.23885 -0.22700
N 	N 	0.02867 0.83051 0.29111 -0.15100
N 	N 	0.01182 0.86490 0.32670 -0.15000
N 	N 	0.02258 0.80130 0.35356 -0.15200
N 	N 	0.99349 0.80389 0.45413 -0.23000
N 	N 	0.99365 0.70423 0.54557 -0.22900
N 	N 	0.07951 0.60835 0.54791 -0.15400
N 	N 	0.80530 0.74306 0.46856 -0.25900
N 	N 	0.03386 0.72092 0.46404 -0.26200
N 	N 	0.79063 0.94147 0.52885 -0.22600
N 	N 	0.73885 0.79317 0.50897 -0.22700
N 	N 	0.79111 0.84971 0.52867 -0.15100
N 	N 	0.82670 0.79658 0.51182 -0.15000
N 	N 	0.85356 0.82256 0.52258 -0.15200
N 	N 	0.95413 0.74849 0.49349 -0.23000
N 	N 	0.04557 0.75655 0.49365 -0.22900
N 	N 	0.04791 0.76423 0.57951 -0.15400
N 	N 	0.24306 0.46856 0.30530 -0.25900
N 	N 	0.22092 0.46404 0.53386 -0.26200
N 	N 	0.44147 0.52885 0.29063 -0.22600
N 	N 	0.29317 0.50897 0.23885 -0.22700
N 	N 	0.34971 0.52867 0.29111 -0.15100
N 	N 	0.29658 0.51182 0.32670 -0.15000
N 	N 	0.32256 0.52258 0.35356 -0.15200
N 	N 	0.24849 0.49349 0.45413 -0.23000
N 	N 	0.25655 0.49365 0.54557 -0.22900
N 	N 	0.26423 0.57951 0.54791 -0.15400
N 	N 	0.48308 0.30530 0.46856 -0.25900
N 	N 	0.28118 0.53386 0.46404 -0.26200
N 	N 	0.23905 0.29063 0.52885 -0.22600
N 	N 	0.45901 0.23885 0.50897 -0.22700
N 	N 	0.33051 0.29111 0.52867 -0.15100
N 	N 	0.36490 0.32670 0.51182 -0.15000
N 	N 	0.30130 0.35356 0.52258 -0.15200
N 	N 	0.30389 0.45413 0.49349 -0.23000
N 	N 	0.20423 0.54557 0.49365 -0.22900
N 	N 	0.10835 0.54791 0.57951 -0.15400
N 	N 	0.80530 0.98308 0.74306 -0.25900
N 	N 	0.03386 0.78118 0.72092 -0.26200
N 	N 	0.79063 0.73905 0.94147 -0.22600
N 	N 	0.73885 0.95901 0.79317 -0.22700
N 	N 	0.79111 0.83051 0.84971 -0.15100
N 	N 	0.82670 0.86490 0.79658 -0.15000
N 	N 	0.85356 0.80130 0.82256 -0.15200
N 	N 	0.95413 0.80389 0.74849 -0.23000
N 	N 	0.04557 0.70423 0.75655 -0.22900
N 	N 	0.04791 0.60835 0.76423 -0.15400
N 	N 	0.96856 0.74306 0.98308 -0.25900
N 	N 	0.96404 0.72092 0.78118 -0.26200
N 	N 	0.02885 0.94147 0.73905 -0.22600
N 	N 	0.00897 0.79317 0.95901 -0.22700
N 	N 	0.02867 0.84971 0.83051 -0.15100
N 	N 	0.01182 0.79658 0.86490 -0.15000
N 	N 	0.02258 0.82256 0.80130 -0.15200
N 	N 	0.99349 0.74849 0.80389 -0.23000
N 	N 	0.99365 0.75655 0.70423 -0.22900
N 	N 	0.07951 0.76423 0.60835 -0.15400
N 	N 	0.46856 0.80530 0.48308 -0.25900
N 	N 	0.46404 0.03386 0.28118 -0.26200
N 	N 	0.52885 0.79063 0.23905 -0.22600
N 	N 	0.50897 0.73885 0.45901 -0.22700
N 	N 	0.52867 0.79111 0.33051 -0.15100
N 	N 	0.51182 0.82670 0.36490 -0.15000
N 	N 	0.52258 0.85356 0.30130 -0.15200
N 	N 	0.49349 0.95413 0.30389 -0.23000
N 	N 	0.49365 0.04557 0.20423 -0.22900
N 	N 	0.57951 0.04791 0.10835 -0.15400
N 	N 	0.30530 0.96856 0.24306 -0.25900
N 	N 	0.53386 0.96404 0.22092 -0.26200
N 	N 	0.29063 0.02885 0.44147 -0.22600
N 	N 	0.23885 0.00897 0.29317 -0.22700
N 	N 	0.29111 0.02867 0.34971 -0.15100
N 	N 	0.32670 0.01182 0.29658 -0.15000
N 	N 	0.35356 0.02258 0.32256 -0.15200
N 	N 	0.45413 0.99349 0.24849 -0.23000
N 	N 	0.54557 0.99365 0.25655 -0.22900
N 	N 	0.54791 0.07951 0.26423 -0.15400
N 	N 	0.98308 0.24306 0.96856 -0.25900
N 	N 	0.78118 0.22092 0.96404 -0.26200
N 	N 	0.73905 0.44147 0.02885 -0.22600
N 	N 	0.95901 0.29317 0.00897 -0.22700
N 	N 	0.83051 0.34971 0.02867 -0.15100
N 	N 	0.86490 0.29658 0.01182 -0.15000
N 	N 	0.80130 0.32256 0.02258 -0.15200
N 	N 	0.80389 0.24849 0.99349 -0.23000
N 	N 	0.70423 0.25655 0.99365 -0.22900
N 	N 	0.60835 0.26423 0.07951 -0.15400
N 	N 	0.74306 0.48308 0.80530 -0.25900
N 	N 	0.72092 0.28118 0.03386 -0.26200
N 	N 	0.94147 0.23905 0.79063 -0.22600
N 	N 	0.79317 0.45901 0.73885 -0.22700
N 	N 	0.84971 0.33051 0.79111 -0.15100
N 	N 	0.79658 0.36490 0.82670 -0.15000
N 	N 	0.82256 0.30130 0.85356 -0.15200
N 	N 	0.74849 0.30389 0.95413 -0.23000
N 	N 	0.75655 0.20423 0.04557 -0.22900
N 	N 	0.76423 0.10835 0.04791 -0.15400
N 	N 	0.46856 0.48308 0.24306 -0.25900
N 	N 	0.46404 0.28118 0.22092 -0.26200
N 	N 	0.52885 0.23905 0.44147 -0.22600
N 	N 	0.50897 0.45901 0.29317 -0.22700
N 	N 	0.52867 0.33051 0.34971 -0.15100
N 	N 	0.51182 0.36490 0.29658 -0.15000
N 	N 	0.52258 0.30130 0.32256 -0.15200
N 	N 	0.49349 0.30389 0.24849 -0.23000
N 	N 	0.49365 0.20423 0.25655 -0.22900
N 	N 	0.57951 0.10835 0.26423 -0.15400
N 	N 	0.30530 0.24306 0.48308 -0.25900
N 	N 	0.53386 0.22092 0.28118 -0.26200
N 	N 	0.29063 0.44147 0.23905 -0.22600
N 	N 	0.23885 0.29317 0.45901 -0.22700
N 	N 	0.29111 0.34971 0.33051 -0.15100
N 	N 	0.32670 0.29658 0.36490 -0.15000
N 	N 	0.35356 0.32256 0.30130 -0.15200
N 	N 	0.45413 0.24849 0.30389 -0.23000
N 	N 	0.54557 0.25655 0.20423 -0.22900
N 	N 	0.54791 0.26423 0.10835 -0.15400
N 	N 	0.98308 0.96856 0.80530 -0.25900
N 	N 	0.78118 0.96404 0.03386 -0.26200
N 	N 	0.73905 0.02885 0.79063 -0.22600
N 	N 	0.95901 0.00897 0.73885 -0.22700
N 	N 	0.83051 0.02867 0.79111 -0.15100
N 	N 	0.86490 0.01182 0.82670 -0.15000
N 	N 	0.80130 0.02258 0.85356 -0.15200
N 	N 	0.80389 0.99349 0.95413 -0.23000
N 	N 	0.70423 0.99365 0.04557 -0.22900
N 	N 	0.60835 0.07951 0.04791 -0.15400
N 	N 	0.74306 0.80530 0.96856 -0.25900
N 	N 	0.72092 0.03386 0.96404 -0.26200
N 	N 	0.94147 0.79063 0.02885 -0.22600
N 	N 	0.79317 0.73885 0.00897 -0.22700
N 	N 	0.84971 0.79111 0.02867 -0.15100
N 	N 	0.79658 0.82670 0.01182 -0.15000
N 	N 	0.82256 0.85356 0.02258 -0.15200
N 	N 	0.74849 0.95413 0.99349 -0.23000
N 	N 	0.75655 0.04557 0.99365 -0.22900
N 	N 	0.76423 0.04791 0.07951 -0.15400
N 	N 	0.46856 0.24306 0.80530 -0.25900
N 	N 	0.46404 0.22092 0.03386 -0.26200
N 	N 	0.52885 0.44147 0.79063 -0.22600
N 	N 	0.50897 0.29317 0.73885 -0.22700
N 	N 	0.52867 0.34971 0.79111 -0.15100
N 	N 	0.51182 0.29658 0.82670 -0.15000
N 	N 	0.52258 0.32256 0.85356 -0.15200
N 	N 	0.49349 0.24849 0.95413 -0.23000
N 	N 	0.49365 0.25655 0.04557 -0.22900
N 	N 	0.57951 0.26423 0.04791 -0.15400
N 	N 	0.30530 0.48308 0.96856 -0.25900
N 	N 	0.53386 0.28118 0.96404 -0.26200
N 	N 	0.29063 0.23905 0.02885 -0.22600
N 	N 	0.23885 0.45901 0.00897 -0.22700
N 	N 	0.29111 0.33051 0.02867 -0.15100
N 	N 	0.32670 0.36490 0.01182 -0.15000
N 	N 	0.35356 0.30130 0.02258 -0.15200
N 	N 	0.45413 0.30389 0.99349 -0.23000
N 	N 	0.54557 0.20423 0.99365 -0.22900
N 	N 	0.54791 0.10835 0.07951 -0.15400
N 	N 	0.98308 0.80530 0.24306 -0.25900
N 	N 	0.78118 0.03386 0.22092 -0.26200
N 	N 	0.73905 0.79063 0.44147 -0.22600
N 	N 	0.95901 0.73885 0.29317 -0.22700
N 	N 	0.83051 0.79111 0.34971 -0.15100
N 	N 	0.86490 0.82670 0.29658 -0.15000
N 	N 	0.80130 0.85356 0.32256 -0.15200
N 	N 	0.80389 0.95413 0.24849 -0.23000
N 	N 	0.70423 0.04557 0.25655 -0.22900
N 	N 	0.60835 0.04791 0.26423 -0.15400
N 	N 	0.74306 0.96856 0.48308 -0.25900
N 	N 	0.72092 0.96404 0.28118 -0.26200
N 	N 	0.94147 0.02885 0.23905 -0.22600
N 	N 	0.79317 0.00897 0.45901 -0.22700
N 	N 	0.84971 0.02867 0.33051 -0.15100
N 	N 	0.79658 0.01182 0.36490 -0.15000
N 	N 	0.82256 0.02258 0.30130 -0.15200
N 	N 	0.74849 0.99349 0.30389 -0.23000
N 	N 	0.75655 0.99365 0.20423 -0.22900
N 	N 	0.76423 0.07951 0.10835 -0.15400
N 	N 	0.19470 0.53144 0.01692 -0.25900
N 	N 	0.96614 0.53596 0.21882 -0.26200
N 	N 	0.20937 0.47115 0.26095 -0.22600
N 	N 	0.26115 0.49103 0.04099 -0.22700
N 	N 	0.20889 0.47133 0.16949 -0.15100
N 	N 	0.17330 0.48818 0.13510 -0.15000
N 	N 	0.14644 0.47742 0.19870 -0.15200
N 	N 	0.04587 0.50651 0.19611 -0.23000
N 	N 	0.95443 0.50635 0.29577 -0.22900
N 	N 	0.95209 0.42049 0.39165 -0.15400
N 	N 	0.03144 0.69470 0.25694 -0.25900
N 	N 	0.03596 0.46614 0.27908 -0.26200
N 	N 	0.97115 0.70937 0.05853 -0.22600
N 	N 	0.99103 0.76115 0.20683 -0.22700
N 	N 	0.97133 0.70889 0.15029 -0.15100
N 	N 	0.98818 0.67330 0.20342 -0.15000
N 	N 	0.97742 0.64644 0.17744 -0.15200
N 	N 	0.00651 0.54587 0.25151 -0.23000
N 	N 	0.00635 0.45443 0.24345 -0.22900
N 	N 	0.92049 0.45209 0.23577 -0.15400
N 	N 	0.75694 0.01692 0.53144 -0.25900
N 	N 	0.77908 0.21882 0.53596 -0.26200
N 	N 	0.55853 0.26095 0.47115 -0.22600
N 	N 	0.70683 0.04099 0.49103 -0.22700
N 	N 	0.65029 0.16949 0.47133 -0.15100
N 	N 	0.70342 0.13510 0.48818 -0.15000
N 	N 	0.67744 0.19870 0.47742 -0.15200
N 	N 	0.75151 0.19611 0.50651 -0.23000
N 	N 	0.74345 0.29577 0.50635 -0.22900
N 	N 	0.73577 0.39165 0.42049 -0.15400
N 	N 	0.51692 0.25694 0.69470 -0.25900
N 	N 	0.71882 0.27908 0.46614 -0.26200
N 	N 	0.76095 0.05853 0.70937 -0.22600
N 	N 	0.54099 0.20683 0.76115 -0.22700
N 	N 	0.66949 0.15029 0.70889 -0.15100
N 	N 	0.63510 0.20342 0.67330 -0.15000
N 	N 	0.69870 0.17744 0.64644 -0.15200
N 	N 	0.69611 0.25151 0.54587 -0.23000
N 	N 	0.79577 0.24345 0.45443 -0.22900
N 	N 	0.89165 0.23577 0.45209 -0.15400
N 	N 	0.51692 0.53144 0.25694 -0.25900
N 	N 	0.71882 0.53596 0.27908 -0.26200
N 	N 	0.76095 0.47115 0.05853 -0.22600
N 	N 	0.54099 0.49103 0.20683 -0.22700
N 	N 	0.66949 0.47133 0.15029 -0.15100
N 	N 	0.63510 0.48818 0.20342 -0.15000
N 	N 	0.69870 0.47742 0.17744 -0.15200
N 	N 	0.69611 0.50651 0.25151 -0.23000
N 	N 	0.79577 0.50635 0.24345 -0.22900
N 	N 	0.89165 0.42049 0.23577 -0.15400
N 	N 	0.75694 0.69470 0.01692 -0.25900
N 	N 	0.77908 0.46614 0.21882 -0.26200
N 	N 	0.55853 0.70937 0.26095 -0.22600
N 	N 	0.70683 0.76115 0.04099 -0.22700
N 	N 	0.65029 0.70889 0.16949 -0.15100
N 	N 	0.70342 0.67330 0.13510 -0.15000
N 	N 	0.67744 0.64644 0.19870 -0.15200
N 	N 	0.75151 0.54587 0.19611 -0.23000
N 	N 	0.74345 0.45443 0.29577 -0.22900
N 	N 	0.73577 0.45209 0.39165 -0.15400
N 	N 	0.03144 0.01692 0.69470 -0.25900
N 	N 	0.03596 0.21882 0.46614 -0.26200
N 	N 	0.97115 0.26095 0.70937 -0.22600
N 	N 	0.99103 0.04099 0.76115 -0.22700
N 	N 	0.97133 0.16949 0.70889 -0.15100
N 	N 	0.98818 0.13510 0.67330 -0.15000
N 	N 	0.97742 0.19870 0.64644 -0.15200
N 	N 	0.00651 0.19611 0.54587 -0.23000
N 	N 	0.00635 0.29577 0.45443 -0.22900
N 	N 	0.92049 0.39165 0.45209 -0.15400
N 	N 	0.19470 0.25694 0.53144 -0.25900
N 	N 	0.96614 0.27908 0.53596 -0.26200
N 	N 	0.20937 0.05853 0.47115 -0.22600
N 	N 	0.26115 0.20683 0.49103 -0.22700
N 	N 	0.20889 0.15029 0.47133 -0.15100
N 	N 	0.17330 0.20342 0.48818 -0.15000
N 	N 	0.14644 0.17744 0.47742 -0.15200
N 	N 	0.04587 0.25151 0.50651 -0.23000
N 	N 	0.95443 0.24345 0.50635 -0.22900
N 	N 	0.95209 0.23577 0.42049 -0.15400
N 	N 	0.75694 0.53144 0.69470 -0.25900
N 	N 	0.77908 0.53596 0.46614 -0.26200
N 	N 	0.55853 0.47115 0.70937 -0.22600
N 	N 	0.70683 0.49103 0.76115 -0.22700
N 	N 	0.65029 0.47133 0.70889 -0.15100
N 	N 	0.70342 0.48818 0.67330 -0.15000
N 	N 	0.67744 0.47742 0.64644 -0.15200
N 	N 	0.75151 0.50651 0.54587 -0.23000
N 	N 	0.74345 0.50635 0.45443 -0.22900
N 	N 	0.73577 0.42049 0.45209 -0.15400
N 	N 	0.51692 0.69470 0.53144 -0.25900
N 	N 	0.71882 0.46614 0.53596 -0.26200
N 	N 	0.76095 0.70937 0.47115 -0.22600
N 	N 	0.54099 0.76115 0.49103 -0.22700
N 	N 	0.66949 0.70889 0.47133 -0.15100
N 	N 	0.63510 0.67330 0.48818 -0.15000
N 	N 	0.69870 0.64644 0.47742 -0.15200
N 	N 	0.69611 0.54587 0.50651 -0.23000
N 	N 	0.79577 0.45443 0.50635 -0.22900
N 	N 	0.89165 0.45209 0.42049 -0.15400
N 	N 	0.19470 0.01692 0.25694 -0.25900
N 	N 	0.96614 0.21882 0.27908 -0.26200
N 	N 	0.20937 0.26095 0.05853 -0.22600
N 	N 	0.26115 0.04099 0.20683 -0.22700
N 	N 	0.20889 0.16949 0.15029 -0.15100
N 	N 	0.17330 0.13510 0.20342 -0.15000
N 	N 	0.14644 0.19870 0.17744 -0.15200
N 	N 	0.04587 0.19611 0.25151 -0.23000
N 	N 	0.95443 0.29577 0.24345 -0.22900
N 	N 	0.95209 0.39165 0.23577 -0.15400
N 	N 	0.03144 0.25694 0.01692 -0.25900
N 	N 	0.03596 0.27908 0.21882 -0.26200
N 	N 	0.97115 0.05853 0.26095 -0.22600
N 	N 	0.99103 0.20683 0.04099 -0.22700
N 	N 	0.97133 0.15029 0.16949 -0.15100
N 	N 	0.98818 0.20342 0.13510 -0.15000
N 	N 	0.97742 0.17744 0.19870 -0.15200
N 	N 	0.00651 0.25151 0.19611 -0.23000
N 	N 	0.00635 0.24345 0.29577 -0.22900
N 	N 	0.92049 0.23577 0.39165 -0.15400
