data_crystal

_cell_length_a 45.09640
_cell_length_b 45.09640
_cell_length_c 45.09640
_cell_angle_alpha 60.00000
_cell_angle_beta  60.00000
_cell_angle_gamma 60.00000

_symmetry_space_group_name_	'P 1'
_symmetry_space_group_name_H-M	'P 1'

loop_
_symmetry_equiv_pos_as_xyz
  x,y,z

loop_
_atom_site_label
_atom_site_type_symbol
_atom_site_fract_x
_atom_site_fract_y
_atom_site_fract_z
_atom_site_charge
S 	S 	0.42847 0.49475 0.16691 -0.06200
S 	S 	0.28788 0.45312 0.06076 -0.06100
N 	N 	0.32926 0.38178 0.17068 -0.22800
N 	N 	0.36211 0.54873 0.07949 -0.15000
N 	N 	0.34488 0.58472 0.02666 -0.15200
C 	C 	0.35338 0.58044 0.05302 0.13300
N 	N 	0.38093 0.42125 0.12683 -0.22700
N 	N 	0.34163 0.41087 0.09357 -0.26600
C 	C 	0.35552 0.61218 0.05282 -0.04800
C 	C 	0.36288 0.60922 0.08078 0.03400
H 	H 	0.36550 0.58670 0.10010 0.01400
N 	N 	0.35011 0.52235 0.05395 -0.15100
C 	C 	0.34561 0.58265 0.96499 0.03400
H 	H 	0.35290 0.60010 0.96310 0.01200
C 	C 	0.32659 0.35393 0.20221 0.03800
H 	H 	0.34560 0.33120 0.20280 0.01200
N 	N 	0.36660 0.63630 0.08208 -0.22700
C 	C 	0.33254 0.56068 0.93886 0.06200
H 	H 	0.33100 0.56200 0.91800 -0.00200
C 	C 	0.34371 0.55465 0.02839 0.13200
C 	C 	0.29782 0.35660 0.23366 -0.05200
N 	N 	0.40747 0.56963 0.13181 -0.25900
N 	N 	0.26629 0.32707 0.29535 -0.15200
N 	N 	0.34451 0.58441 0.93505 -0.22500
C 	C 	0.29689 0.32495 0.26715 0.13300
C 	C 	0.33674 0.55668 0.99868 -0.04800
C 	C 	0.35258 0.64452 0.02424 0.00400
H 	H 	0.34760 0.64740 0.00460 0.03700
C 	C 	0.41662 0.53822 0.14524 0.09700
C 	C 	0.32465 0.53145 0.00217 0.00500
H 	H 	0.31840 0.51320 0.02480 0.03700
C 	C 	0.37217 0.45445 0.10333 0.03900
H 	H 	0.36720 0.45740 0.08360 0.01100
C 	C 	0.32224 0.53404 0.97146 -0.10100
H 	H 	0.31370 0.51790 0.97270 0.06500
C 	C 	0.36981 0.48543 0.10591 -0.05000
C 	C 	0.38917 0.41673 0.15411 0.05100
H 	H 	0.39510 0.39310 0.17130 0.00400
C 	C 	0.32008 0.42774 0.07992 0.10400
C 	C 	0.35692 0.67300 0.02426 -0.09600
H 	H 	0.35530 0.69550 0.00470 0.06200
C 	C 	0.38925 0.44541 0.15803 -0.09200
H 	H 	0.39560 0.44140 0.17720 0.06300
C 	C 	0.26989 0.38983 0.23313 0.00600
H 	H 	0.24960 0.39240 0.25440 0.03700
C 	C 	0.30204 0.41380 0.17078 0.05500
H 	H 	0.30360 0.43380 0.14880 0.00100
C 	C 	0.36371 0.66747 0.05377 0.05500
H 	H 	0.36650 0.68690 0.05390 -0.00100
C 	C 	0.37965 0.48057 0.13309 0.00200
H 	H 	0.37990 0.50050 0.13490 0.03900
C 	C 	0.35991 0.52059 0.07871 0.13200
C 	C 	0.27205 0.41917 0.20099 -0.09900
H 	H 	0.25350 0.44210 0.19990 0.06600
S 	S 	0.49475 0.42847 0.90987 -0.06200
S 	S 	0.45312 0.28788 0.19824 -0.06100
N 	N 	0.38178 0.32926 0.11828 -0.22800
N 	N 	0.54873 0.36211 0.00967 -0.15000
N 	N 	0.58472 0.34488 0.04374 -0.15200
C 	C 	0.58044 0.35338 0.01316 0.13200
N 	N 	0.42125 0.38093 0.07099 -0.22700
N 	N 	0.41087 0.34163 0.15393 -0.26600
C 	C 	0.61218 0.35552 0.97948 -0.04800
C 	C 	0.60922 0.36288 0.94712 0.03400
H 	H 	0.58670 0.36550 0.94770 0.01400
N 	N 	0.52235 0.35011 0.07359 -0.15100
C 	C 	0.58265 0.34561 0.10675 0.03500
H 	H 	0.60010 0.35290 0.08390 0.01100
C 	C 	0.35393 0.32659 0.11727 0.03800
H 	H 	0.33120 0.34560 0.12040 0.01200
N 	N 	0.63630 0.36660 0.91502 -0.22700
C 	C 	0.56068 0.33254 0.16792 0.06300
H 	H 	0.56200 0.33100 0.18900 -0.00200
C 	C 	0.55465 0.34371 0.07325 0.13300
C 	C 	0.35660 0.29782 0.11192 -0.05200
N 	N 	0.56963 0.40747 0.89109 -0.25900
N 	N 	0.32707 0.26629 0.11129 -0.15200
N 	N 	0.58441 0.34451 0.13603 -0.22600
C 	C 	0.32495 0.29689 0.11101 0.13300
C 	C 	0.55668 0.33674 0.10790 -0.04900
C 	C 	0.64452 0.35258 0.97866 0.00500
H 	H 	0.64740 0.34760 0.00040 0.03700
C 	C 	0.53822 0.41662 0.89992 0.09700
C 	C 	0.53145 0.32465 0.14173 0.00600
H 	H 	0.51320 0.31840 0.14360 0.03700
C 	C 	0.45445 0.37217 0.07005 0.03900
H 	H 	0.45740 0.36720 0.09180 0.01100
C 	C 	0.53404 0.32224 0.17226 -0.10200
H 	H 	0.51790 0.31370 0.19570 0.06500
C 	C 	0.48543 0.36981 0.03885 -0.05000
C 	C 	0.41673 0.38917 0.03999 0.05100
H 	H 	0.39310 0.39510 0.04050 0.00400
C 	C 	0.42774 0.32008 0.17226 0.10400
C 	C 	0.67300 0.35692 0.94582 -0.09600
H 	H 	0.69550 0.35530 0.94450 0.06300
C 	C 	0.44541 0.38925 0.00731 -0.09300
H 	H 	0.44140 0.39560 0.98580 0.06400
C 	C 	0.38983 0.26989 0.10715 0.00600
H 	H 	0.39240 0.24960 0.10360 0.03700
C 	C 	0.41380 0.30204 0.11338 0.05500
H 	H 	0.43380 0.30360 0.11380 0.00100
C 	C 	0.66747 0.36371 0.91505 0.05500
H 	H 	0.68690 0.36650 0.89270 -0.00100
C 	C 	0.48057 0.37965 0.00669 0.00200
H 	H 	0.50050 0.37990 0.98470 0.03900
C 	C 	0.52059 0.35991 0.04079 0.13200
C 	C 	0.41917 0.27205 0.10779 -0.09800
H 	H 	0.44210 0.25350 0.10450 0.06700
S 	S 	0.16691 0.90987 0.42847 -0.06100
S 	S 	0.06076 0.19824 0.28788 -0.06000
N 	N 	0.17068 0.11828 0.32926 -0.22700
N 	N 	0.07949 0.00967 0.36211 -0.14900
N 	N 	0.02666 0.04374 0.34488 -0.15100
C 	C 	0.05302 0.01316 0.35338 0.13300
N 	N 	0.12683 0.07099 0.38093 -0.22600
N 	N 	0.09357 0.15393 0.34163 -0.26500
C 	C 	0.05282 0.97948 0.35552 -0.04700
C 	C 	0.08078 0.94712 0.36288 0.03500
H 	H 	0.10010 0.94770 0.36550 0.01500
N 	N 	0.05395 0.07359 0.35011 -0.15000
C 	C 	0.96499 0.10675 0.34561 0.03500
H 	H 	0.96310 0.08390 0.35290 0.01300
C 	C 	0.20221 0.11727 0.32659 0.03900
H 	H 	0.20280 0.12040 0.34560 0.01300
N 	N 	0.08208 0.91502 0.36660 -0.22600
C 	C 	0.93886 0.16792 0.33254 0.06300
H 	H 	0.91800 0.18900 0.33100 -0.00100
C 	C 	0.02839 0.07325 0.34371 0.13300
C 	C 	0.23366 0.11192 0.29782 -0.05100
N 	N 	0.13181 0.89109 0.40747 -0.25800
N 	N 	0.29535 0.11129 0.26629 -0.15100
N 	N 	0.93505 0.13603 0.34451 -0.22400
C 	C 	0.26715 0.11101 0.29689 0.13400
C 	C 	0.99868 0.10790 0.33674 -0.04700
C 	C 	0.02424 0.97866 0.35258 0.00600
H 	H 	0.00460 0.00040 0.34760 0.03800
C 	C 	0.14524 0.89992 0.41662 0.09800
C 	C 	0.00217 0.14173 0.32465 0.00600
H 	H 	0.02480 0.14360 0.31840 0.03800
C 	C 	0.10333 0.07005 0.37217 0.04000
H 	H 	0.08360 0.09180 0.36720 0.01200
C 	C 	0.97146 0.17226 0.32224 -0.10000
H 	H 	0.97270 0.19570 0.31370 0.06600
C 	C 	0.10591 0.03885 0.36981 -0.04900
C 	C 	0.15411 0.03999 0.38917 0.05200
H 	H 	0.17130 0.04050 0.39510 0.00500
C 	C 	0.07992 0.17226 0.32008 0.10500
C 	C 	0.02426 0.94582 0.35692 -0.09500
H 	H 	0.00470 0.94450 0.35530 0.06300
C 	C 	0.15803 0.00731 0.38925 -0.09200
H 	H 	0.17720 0.98580 0.39560 0.06500
C 	C 	0.23313 0.10715 0.26989 0.00700
H 	H 	0.25440 0.10360 0.24960 0.03800
C 	C 	0.17078 0.11338 0.30204 0.05600
H 	H 	0.14880 0.11380 0.30360 0.00200
C 	C 	0.05377 0.91505 0.36371 0.05600
H 	H 	0.05390 0.89270 0.36650 -0.00000
C 	C 	0.13309 0.00669 0.37965 0.00300
H 	H 	0.13490 0.98470 0.37990 0.04000
C 	C 	0.07871 0.04079 0.35991 0.13200
C 	C 	0.20099 0.10779 0.27205 -0.09800
H 	H 	0.19990 0.10450 0.25350 0.06700
S 	S 	0.90987 0.16691 0.49475 -0.06100
S 	S 	0.19824 0.06076 0.45312 -0.06000
N 	N 	0.11828 0.17068 0.38178 -0.22700
N 	N 	0.00967 0.07949 0.54873 -0.14900
N 	N 	0.04374 0.02666 0.58472 -0.15100
C 	C 	0.01316 0.05302 0.58044 0.13300
N 	N 	0.07099 0.12683 0.42125 -0.22600
N 	N 	0.15393 0.09357 0.41087 -0.26500
C 	C 	0.97948 0.05282 0.61218 -0.04700
C 	C 	0.94712 0.08078 0.60922 0.03500
H 	H 	0.94770 0.10010 0.58670 0.01500
N 	N 	0.07359 0.05395 0.52235 -0.15000
C 	C 	0.10675 0.96499 0.58265 0.03500
H 	H 	0.08390 0.96310 0.60010 0.01300
C 	C 	0.11727 0.20221 0.35393 0.03900
H 	H 	0.12040 0.20280 0.33120 0.01300
N 	N 	0.91502 0.08208 0.63630 -0.22600
C 	C 	0.16792 0.93886 0.56068 0.06300
H 	H 	0.18900 0.91800 0.56200 -0.00100
C 	C 	0.07325 0.02839 0.55465 0.13300
C 	C 	0.11192 0.23366 0.35660 -0.05100
N 	N 	0.89109 0.13181 0.56963 -0.25800
N 	N 	0.11129 0.29535 0.32707 -0.15100
N 	N 	0.13603 0.93505 0.58441 -0.22400
C 	C 	0.11101 0.26715 0.32495 0.13400
C 	C 	0.10790 0.99868 0.55668 -0.04700
C 	C 	0.97866 0.02424 0.64452 0.00600
H 	H 	0.00040 0.00460 0.64740 0.03800
C 	C 	0.89992 0.14524 0.53822 0.09800
C 	C 	0.14173 0.00217 0.53145 0.00600
H 	H 	0.14360 0.02480 0.51320 0.03800
C 	C 	0.07005 0.10333 0.45445 0.04000
H 	H 	0.09180 0.08360 0.45740 0.01200
C 	C 	0.17226 0.97146 0.53404 -0.10000
H 	H 	0.19570 0.97270 0.51790 0.06600
C 	C 	0.03885 0.10591 0.48543 -0.04900
C 	C 	0.03999 0.15411 0.41673 0.05200
H 	H 	0.04050 0.17130 0.39310 0.00500
C 	C 	0.17226 0.07992 0.42774 0.10500
C 	C 	0.94582 0.02426 0.67300 -0.09500
H 	H 	0.94450 0.00470 0.69550 0.06300
C 	C 	0.00731 0.15803 0.44541 -0.09200
H 	H 	0.98580 0.17720 0.44140 0.06500
C 	C 	0.10715 0.23313 0.38983 0.00700
H 	H 	0.10360 0.25440 0.39240 0.03800
C 	C 	0.11338 0.17078 0.41380 0.05600
H 	H 	0.11380 0.14880 0.43380 0.00200
C 	C 	0.91505 0.05377 0.66747 0.05600
H 	H 	0.89270 0.05390 0.68690 -0.00000
C 	C 	0.00669 0.13309 0.48057 0.00300
H 	H 	0.98470 0.13490 0.50050 0.04000
C 	C 	0.04079 0.07871 0.52059 0.13200
C 	C 	0.10779 0.20099 0.41917 -0.09800
H 	H 	0.10450 0.19990 0.44210 0.06700
S 	S 	0.16691 0.42847 0.49475 -0.06100
S 	S 	0.06076 0.28788 0.45312 -0.06000
N 	N 	0.17068 0.32926 0.38178 -0.22700
N 	N 	0.07949 0.36211 0.54873 -0.14900
N 	N 	0.02666 0.34488 0.58472 -0.15100
C 	C 	0.05302 0.35338 0.58044 0.13400
N 	N 	0.12683 0.38093 0.42125 -0.22600
N 	N 	0.09357 0.34163 0.41087 -0.26500
C 	C 	0.05282 0.35552 0.61218 -0.04700
C 	C 	0.08078 0.36288 0.60922 0.03500
H 	H 	0.10010 0.36550 0.58670 0.01500
N 	N 	0.05395 0.35011 0.52235 -0.15000
C 	C 	0.96499 0.34561 0.58265 0.03500
H 	H 	0.96310 0.35290 0.60010 0.01300
C 	C 	0.20221 0.32659 0.35393 0.03900
H 	H 	0.20280 0.34560 0.33120 0.01300
N 	N 	0.08208 0.36660 0.63630 -0.22600
C 	C 	0.93886 0.33254 0.56068 0.06300
H 	H 	0.91800 0.33100 0.56200 -0.00100
C 	C 	0.02839 0.34371 0.55465 0.13300
C 	C 	0.23366 0.29782 0.35660 -0.05100
N 	N 	0.13181 0.40747 0.56963 -0.25800
N 	N 	0.29535 0.26629 0.32707 -0.15100
N 	N 	0.93505 0.34451 0.58441 -0.22400
C 	C 	0.26715 0.29689 0.32495 0.13400
C 	C 	0.99868 0.33674 0.55668 -0.04700
C 	C 	0.02424 0.35258 0.64452 0.00500
H 	H 	0.00460 0.34760 0.64740 0.03800
C 	C 	0.14524 0.41662 0.53822 0.09800
C 	C 	0.00217 0.32465 0.53145 0.00600
H 	H 	0.02480 0.31840 0.51320 0.03800
C 	C 	0.10333 0.37217 0.45445 0.04000
H 	H 	0.08360 0.36720 0.45740 0.01200
C 	C 	0.97146 0.32224 0.53404 -0.10000
H 	H 	0.97270 0.31370 0.51790 0.06600
C 	C 	0.10591 0.36981 0.48543 -0.04900
C 	C 	0.15411 0.38917 0.41673 0.05200
H 	H 	0.17130 0.39510 0.39310 0.00500
C 	C 	0.07992 0.32008 0.42774 0.10500
C 	C 	0.02426 0.35692 0.67300 -0.09500
H 	H 	0.00470 0.35530 0.69550 0.06300
C 	C 	0.15803 0.38925 0.44541 -0.09100
H 	H 	0.17720 0.39560 0.44140 0.06400
C 	C 	0.23313 0.26989 0.38983 0.00700
H 	H 	0.25440 0.24960 0.39240 0.03800
C 	C 	0.17078 0.30204 0.41380 0.05600
H 	H 	0.14880 0.30360 0.43380 0.00200
C 	C 	0.05377 0.36371 0.66747 0.05600
H 	H 	0.05390 0.36650 0.68690 -0.00000
C 	C 	0.13309 0.37965 0.48057 0.00300
H 	H 	0.13490 0.37990 0.50050 0.04000
C 	C 	0.07871 0.35991 0.52059 0.13300
C 	C 	0.20099 0.27205 0.41917 -0.09800
H 	H 	0.19990 0.25350 0.44210 0.06700
S 	S 	0.90987 0.49475 0.42847 -0.06100
S 	S 	0.19824 0.45312 0.28788 -0.06000
N 	N 	0.11828 0.38178 0.32926 -0.22700
N 	N 	0.00967 0.54873 0.36211 -0.14900
N 	N 	0.04374 0.58472 0.34488 -0.15100
C 	C 	0.01316 0.58044 0.35338 0.13300
N 	N 	0.07099 0.42125 0.38093 -0.22600
N 	N 	0.15393 0.41087 0.34163 -0.26500
C 	C 	0.97948 0.61218 0.35552 -0.04700
C 	C 	0.94712 0.60922 0.36288 0.03500
H 	H 	0.94770 0.58670 0.36550 0.01500
N 	N 	0.07359 0.52235 0.35011 -0.15000
C 	C 	0.10675 0.58265 0.34561 0.03600
H 	H 	0.08390 0.60010 0.35290 0.01200
C 	C 	0.11727 0.35393 0.32659 0.03900
H 	H 	0.12040 0.33120 0.34560 0.01300
N 	N 	0.91502 0.63630 0.36660 -0.22600
C 	C 	0.16792 0.56068 0.33254 0.06400
H 	H 	0.18900 0.56200 0.33100 -0.00100
C 	C 	0.07325 0.55465 0.34371 0.13400
C 	C 	0.11192 0.35660 0.29782 -0.05100
N 	N 	0.89109 0.56963 0.40747 -0.25800
N 	N 	0.11129 0.32707 0.26629 -0.15100
N 	N 	0.13603 0.58441 0.34451 -0.22500
C 	C 	0.11101 0.32495 0.29689 0.13400
C 	C 	0.10790 0.55668 0.33674 -0.04800
C 	C 	0.97866 0.64452 0.35258 0.00600
H 	H 	0.00040 0.64740 0.34760 0.03800
C 	C 	0.89992 0.53822 0.41662 0.09800
C 	C 	0.14173 0.53145 0.32465 0.00700
H 	H 	0.14360 0.51320 0.31840 0.03800
C 	C 	0.07005 0.45445 0.37217 0.04000
H 	H 	0.09180 0.45740 0.36720 0.01200
C 	C 	0.17226 0.53404 0.32224 -0.10100
H 	H 	0.19570 0.51790 0.31370 0.06600
C 	C 	0.03885 0.48543 0.36981 -0.04900
C 	C 	0.03999 0.41673 0.38917 0.05200
H 	H 	0.04050 0.39310 0.39510 0.00500
C 	C 	0.17226 0.42774 0.32008 0.10500
C 	C 	0.94582 0.67300 0.35692 -0.09500
H 	H 	0.94450 0.69550 0.35530 0.06400
C 	C 	0.00731 0.44541 0.38925 -0.09200
H 	H 	0.98580 0.44140 0.39560 0.06500
C 	C 	0.10715 0.38983 0.26989 0.00700
H 	H 	0.10360 0.39240 0.24960 0.03800
C 	C 	0.11338 0.41380 0.30204 0.05600
H 	H 	0.11380 0.43380 0.30360 0.00200
C 	C 	0.91505 0.66747 0.36371 0.05600
H 	H 	0.89270 0.68690 0.36650 -0.00000
C 	C 	0.00669 0.48057 0.37965 0.00300
H 	H 	0.98470 0.50050 0.37990 0.04000
C 	C 	0.04079 0.52059 0.35991 0.13200
C 	C 	0.10779 0.41917 0.27205 -0.09800
H 	H 	0.10450 0.44210 0.25350 0.06700
S 	S 	0.42847 0.16691 0.90987 -0.06100
S 	S 	0.28788 0.06076 0.19824 -0.06000
N 	N 	0.32926 0.17068 0.11828 -0.22700
N 	N 	0.36211 0.07949 0.00967 -0.14900
N 	N 	0.34488 0.02666 0.04374 -0.15100
C 	C 	0.35338 0.05302 0.01316 0.13300
N 	N 	0.38093 0.12683 0.07099 -0.22600
N 	N 	0.34163 0.09357 0.15393 -0.26500
C 	C 	0.35552 0.05282 0.97948 -0.04700
C 	C 	0.36288 0.08078 0.94712 0.03500
H 	H 	0.36550 0.10010 0.94770 0.01500
N 	N 	0.35011 0.05395 0.07359 -0.15000
C 	C 	0.34561 0.96499 0.10675 0.03500
H 	H 	0.35290 0.96310 0.08390 0.01300
C 	C 	0.32659 0.20221 0.11727 0.03900
H 	H 	0.34560 0.20280 0.12040 0.01300
N 	N 	0.36660 0.08208 0.91502 -0.22600
C 	C 	0.33254 0.93886 0.16792 0.06300
H 	H 	0.33100 0.91800 0.18900 -0.00100
C 	C 	0.34371 0.02839 0.07325 0.13300
C 	C 	0.29782 0.23366 0.11192 -0.05100
N 	N 	0.40747 0.13181 0.89109 -0.25800
N 	N 	0.26629 0.29535 0.11129 -0.15100
N 	N 	0.34451 0.93505 0.13603 -0.22400
C 	C 	0.29689 0.26715 0.11101 0.13400
C 	C 	0.33674 0.99868 0.10790 -0.04700
C 	C 	0.35258 0.02424 0.97866 0.00600
H 	H 	0.34760 0.00460 0.00040 0.03800
C 	C 	0.41662 0.14524 0.89992 0.09800
C 	C 	0.32465 0.00217 0.14173 0.00600
H 	H 	0.31840 0.02480 0.14360 0.03800
C 	C 	0.37217 0.10333 0.07005 0.04000
H 	H 	0.36720 0.08360 0.09180 0.01200
C 	C 	0.32224 0.97146 0.17226 -0.10000
H 	H 	0.31370 0.97270 0.19570 0.06600
C 	C 	0.36981 0.10591 0.03885 -0.04900
C 	C 	0.38917 0.15411 0.03999 0.05200
H 	H 	0.39510 0.17130 0.04050 0.00500
C 	C 	0.32008 0.07992 0.17226 0.10500
C 	C 	0.35692 0.02426 0.94582 -0.09500
H 	H 	0.35530 0.00470 0.94450 0.06300
C 	C 	0.38925 0.15803 0.00731 -0.09200
H 	H 	0.39560 0.17720 0.98580 0.06500
C 	C 	0.26989 0.23313 0.10715 0.00700
H 	H 	0.24960 0.25440 0.10360 0.03800
C 	C 	0.30204 0.17078 0.11338 0.05600
H 	H 	0.30360 0.14880 0.11380 0.00200
C 	C 	0.36371 0.05377 0.91505 0.05600
H 	H 	0.36650 0.05390 0.89270 -0.00000
C 	C 	0.37965 0.13309 0.00669 0.00300
H 	H 	0.37990 0.13490 0.98470 0.04000
C 	C 	0.35991 0.07871 0.04079 0.13200
C 	C 	0.27205 0.20099 0.10779 -0.09800
H 	H 	0.25350 0.19990 0.10450 0.06700
S 	S 	0.49475 0.90987 0.16691 -0.06100
S 	S 	0.45312 0.19824 0.06076 -0.06000
N 	N 	0.38178 0.11828 0.17068 -0.22700
N 	N 	0.54873 0.00967 0.07949 -0.14900
N 	N 	0.58472 0.04374 0.02666 -0.15100
C 	C 	0.58044 0.01316 0.05302 0.13300
N 	N 	0.42125 0.07099 0.12683 -0.22600
N 	N 	0.41087 0.15393 0.09357 -0.26500
C 	C 	0.61218 0.97948 0.05282 -0.04700
C 	C 	0.60922 0.94712 0.08078 0.03500
H 	H 	0.58670 0.94770 0.10010 0.01500
N 	N 	0.52235 0.07359 0.05395 -0.15000
C 	C 	0.58265 0.10675 0.96499 0.03500
H 	H 	0.60010 0.08390 0.96310 0.01300
C 	C 	0.35393 0.11727 0.20221 0.03900
H 	H 	0.33120 0.12040 0.20280 0.01300
N 	N 	0.63630 0.91502 0.08208 -0.22600
C 	C 	0.56068 0.16792 0.93886 0.06300
H 	H 	0.56200 0.18900 0.91800 -0.00100
C 	C 	0.55465 0.07325 0.02839 0.13300
C 	C 	0.35660 0.11192 0.23366 -0.05100
N 	N 	0.56963 0.89109 0.13181 -0.25800
N 	N 	0.32707 0.11129 0.29535 -0.15100
N 	N 	0.58441 0.13603 0.93505 -0.22400
C 	C 	0.32495 0.11101 0.26715 0.13400
C 	C 	0.55668 0.10790 0.99868 -0.04700
C 	C 	0.64452 0.97866 0.02424 0.00600
H 	H 	0.64740 0.00040 0.00460 0.03800
C 	C 	0.53822 0.89992 0.14524 0.09800
C 	C 	0.53145 0.14173 0.00217 0.00600
H 	H 	0.51320 0.14360 0.02480 0.03800
C 	C 	0.45445 0.07005 0.10333 0.04000
H 	H 	0.45740 0.09180 0.08360 0.01200
C 	C 	0.53404 0.17226 0.97146 -0.10000
H 	H 	0.51790 0.19570 0.97270 0.06600
C 	C 	0.48543 0.03885 0.10591 -0.04900
C 	C 	0.41673 0.03999 0.15411 0.05200
H 	H 	0.39310 0.04050 0.17130 0.00500
C 	C 	0.42774 0.17226 0.07992 0.10500
C 	C 	0.67300 0.94582 0.02426 -0.09500
H 	H 	0.69550 0.94450 0.00470 0.06300
C 	C 	0.44541 0.00731 0.15803 -0.09200
H 	H 	0.44140 0.98580 0.17720 0.06500
C 	C 	0.38983 0.10715 0.23313 0.00700
H 	H 	0.39240 0.10360 0.25440 0.03800
C 	C 	0.41380 0.11338 0.17078 0.05600
H 	H 	0.43380 0.11380 0.14880 0.00200
C 	C 	0.66747 0.91505 0.05377 0.05600
H 	H 	0.68690 0.89270 0.05390 -0.00000
C 	C 	0.48057 0.00669 0.13309 0.00300
H 	H 	0.50050 0.98470 0.13490 0.04000
C 	C 	0.52059 0.04079 0.07871 0.13200
C 	C 	0.41917 0.10779 0.20099 -0.09800
H 	H 	0.44210 0.10450 0.19990 0.06700
S 	S 	0.49475 0.16691 0.42847 -0.06100
S 	S 	0.45312 0.06076 0.28788 -0.06000
N 	N 	0.38178 0.17068 0.32926 -0.22700
N 	N 	0.54873 0.07949 0.36211 -0.14900
N 	N 	0.58472 0.02666 0.34488 -0.15100
C 	C 	0.58044 0.05302 0.35338 0.13400
N 	N 	0.42125 0.12683 0.38093 -0.22600
N 	N 	0.41087 0.09357 0.34163 -0.26500
C 	C 	0.61218 0.05282 0.35552 -0.04700
C 	C 	0.60922 0.08078 0.36288 0.03500
H 	H 	0.58670 0.10010 0.36550 0.01500
N 	N 	0.52235 0.05395 0.35011 -0.15000
C 	C 	0.58265 0.96499 0.34561 0.03500
H 	H 	0.60010 0.96310 0.35290 0.01300
C 	C 	0.35393 0.20221 0.32659 0.03900
H 	H 	0.33120 0.20280 0.34560 0.01300
N 	N 	0.63630 0.08208 0.36660 -0.22600
C 	C 	0.56068 0.93886 0.33254 0.06300
H 	H 	0.56200 0.91800 0.33100 -0.00100
C 	C 	0.55465 0.02839 0.34371 0.13300
C 	C 	0.35660 0.23366 0.29782 -0.05100
N 	N 	0.56963 0.13181 0.40747 -0.25800
N 	N 	0.32707 0.29535 0.26629 -0.15100
N 	N 	0.58441 0.93505 0.34451 -0.22400
C 	C 	0.32495 0.26715 0.29689 0.13400
C 	C 	0.55668 0.99868 0.33674 -0.04700
C 	C 	0.64452 0.02424 0.35258 0.00500
H 	H 	0.64740 0.00460 0.34760 0.03800
C 	C 	0.53822 0.14524 0.41662 0.09800
C 	C 	0.53145 0.00217 0.32465 0.00600
H 	H 	0.51320 0.02480 0.31840 0.03800
C 	C 	0.45445 0.10333 0.37217 0.04000
H 	H 	0.45740 0.08360 0.36720 0.01200
C 	C 	0.53404 0.97146 0.32224 -0.10000
H 	H 	0.51790 0.97270 0.31370 0.06600
C 	C 	0.48543 0.10591 0.36981 -0.04900
C 	C 	0.41673 0.15411 0.38917 0.05200
H 	H 	0.39310 0.17130 0.39510 0.00500
C 	C 	0.42774 0.07992 0.32008 0.10500
C 	C 	0.67300 0.02426 0.35692 -0.09500
H 	H 	0.69550 0.00470 0.35530 0.06300
C 	C 	0.44541 0.15803 0.38925 -0.09100
H 	H 	0.44140 0.17720 0.39560 0.06400
C 	C 	0.38983 0.23313 0.26989 0.00700
H 	H 	0.39240 0.25440 0.24960 0.03800
C 	C 	0.41380 0.17078 0.30204 0.05600
H 	H 	0.43380 0.14880 0.30360 0.00200
C 	C 	0.66747 0.05377 0.36371 0.05600
H 	H 	0.68690 0.05390 0.36650 -0.00000
C 	C 	0.48057 0.13309 0.37965 0.00300
H 	H 	0.50050 0.13490 0.37990 0.04000
C 	C 	0.52059 0.07871 0.35991 0.13300
C 	C 	0.41917 0.20099 0.27205 -0.09800
H 	H 	0.44210 0.19990 0.25350 0.06700
S 	S 	0.42847 0.90987 0.49475 -0.06100
S 	S 	0.28788 0.19824 0.45312 -0.06000
N 	N 	0.32926 0.11828 0.38178 -0.22700
N 	N 	0.36211 0.00967 0.54873 -0.14900
N 	N 	0.34488 0.04374 0.58472 -0.15100
C 	C 	0.35338 0.01316 0.58044 0.13300
N 	N 	0.38093 0.07099 0.42125 -0.22600
N 	N 	0.34163 0.15393 0.41087 -0.26500
C 	C 	0.35552 0.97948 0.61218 -0.04700
C 	C 	0.36288 0.94712 0.60922 0.03500
H 	H 	0.36550 0.94770 0.58670 0.01500
N 	N 	0.35011 0.07359 0.52235 -0.15000
C 	C 	0.34561 0.10675 0.58265 0.03600
H 	H 	0.35290 0.08390 0.60010 0.01200
C 	C 	0.32659 0.11727 0.35393 0.03900
H 	H 	0.34560 0.12040 0.33120 0.01300
N 	N 	0.36660 0.91502 0.63630 -0.22600
C 	C 	0.33254 0.16792 0.56068 0.06400
H 	H 	0.33100 0.18900 0.56200 -0.00100
C 	C 	0.34371 0.07325 0.55465 0.13400
C 	C 	0.29782 0.11192 0.35660 -0.05100
N 	N 	0.40747 0.89109 0.56963 -0.25800
N 	N 	0.26629 0.11129 0.32707 -0.15100
N 	N 	0.34451 0.13603 0.58441 -0.22500
C 	C 	0.29689 0.11101 0.32495 0.13400
C 	C 	0.33674 0.10790 0.55668 -0.04800
C 	C 	0.35258 0.97866 0.64452 0.00600
H 	H 	0.34760 0.00040 0.64740 0.03800
C 	C 	0.41662 0.89992 0.53822 0.09800
C 	C 	0.32465 0.14173 0.53145 0.00700
H 	H 	0.31840 0.14360 0.51320 0.03800
C 	C 	0.37217 0.07005 0.45445 0.04000
H 	H 	0.36720 0.09180 0.45740 0.01200
C 	C 	0.32224 0.17226 0.53404 -0.10100
H 	H 	0.31370 0.19570 0.51790 0.06600
C 	C 	0.36981 0.03885 0.48543 -0.04900
C 	C 	0.38917 0.03999 0.41673 0.05200
H 	H 	0.39510 0.04050 0.39310 0.00500
C 	C 	0.32008 0.17226 0.42774 0.10500
C 	C 	0.35692 0.94582 0.67300 -0.09500
H 	H 	0.35530 0.94450 0.69550 0.06400
C 	C 	0.38925 0.00731 0.44541 -0.09200
H 	H 	0.39560 0.98580 0.44140 0.06500
C 	C 	0.26989 0.10715 0.38983 0.00700
H 	H 	0.24960 0.10360 0.39240 0.03800
C 	C 	0.30204 0.11338 0.41380 0.05600
H 	H 	0.30360 0.11380 0.43380 0.00200
C 	C 	0.36371 0.91505 0.66747 0.05600
H 	H 	0.36650 0.89270 0.68690 -0.00000
C 	C 	0.37965 0.00669 0.48057 0.00300
H 	H 	0.37990 0.98470 0.50050 0.04000
C 	C 	0.35991 0.04079 0.52059 0.13200
C 	C 	0.27205 0.10779 0.41917 -0.09800
H 	H 	0.25350 0.10450 0.44210 0.06700
S 	S 	0.90987 0.42847 0.16691 -0.06100
S 	S 	0.19824 0.28788 0.06076 -0.06000
N 	N 	0.11828 0.32926 0.17068 -0.22700
N 	N 	0.00967 0.36211 0.07949 -0.14900
N 	N 	0.04374 0.34488 0.02666 -0.15100
C 	C 	0.01316 0.35338 0.05302 0.13300
N 	N 	0.07099 0.38093 0.12683 -0.22600
N 	N 	0.15393 0.34163 0.09357 -0.26500
C 	C 	0.97948 0.35552 0.05282 -0.04700
C 	C 	0.94712 0.36288 0.08078 0.03500
H 	H 	0.94770 0.36550 0.10010 0.01500
N 	N 	0.07359 0.35011 0.05395 -0.15000
C 	C 	0.10675 0.34561 0.96499 0.03500
H 	H 	0.08390 0.35290 0.96310 0.01300
C 	C 	0.11727 0.32659 0.20221 0.03900
H 	H 	0.12040 0.34560 0.20280 0.01300
N 	N 	0.91502 0.36660 0.08208 -0.22600
C 	C 	0.16792 0.33254 0.93886 0.06300
H 	H 	0.18900 0.33100 0.91800 -0.00100
C 	C 	0.07325 0.34371 0.02839 0.13300
C 	C 	0.11192 0.29782 0.23366 -0.05100
N 	N 	0.89109 0.40747 0.13181 -0.25800
N 	N 	0.11129 0.26629 0.29535 -0.15100
N 	N 	0.13603 0.34451 0.93505 -0.22400
C 	C 	0.11101 0.29689 0.26715 0.13400
C 	C 	0.10790 0.33674 0.99868 -0.04700
C 	C 	0.97866 0.35258 0.02424 0.00600
H 	H 	0.00040 0.34760 0.00460 0.03800
C 	C 	0.89992 0.41662 0.14524 0.09800
C 	C 	0.14173 0.32465 0.00217 0.00600
H 	H 	0.14360 0.31840 0.02480 0.03800
C 	C 	0.07005 0.37217 0.10333 0.04000
H 	H 	0.09180 0.36720 0.08360 0.01200
C 	C 	0.17226 0.32224 0.97146 -0.10000
H 	H 	0.19570 0.31370 0.97270 0.06600
C 	C 	0.03885 0.36981 0.10591 -0.04900
C 	C 	0.03999 0.38917 0.15411 0.05200
H 	H 	0.04050 0.39510 0.17130 0.00500
C 	C 	0.17226 0.32008 0.07992 0.10500
C 	C 	0.94582 0.35692 0.02426 -0.09500
H 	H 	0.94450 0.35530 0.00470 0.06300
C 	C 	0.00731 0.38925 0.15803 -0.09200
H 	H 	0.98580 0.39560 0.17720 0.06500
C 	C 	0.10715 0.26989 0.23313 0.00700
H 	H 	0.10360 0.24960 0.25440 0.03800
C 	C 	0.11338 0.30204 0.17078 0.05600
H 	H 	0.11380 0.30360 0.14880 0.00200
C 	C 	0.91505 0.36371 0.05377 0.05600
H 	H 	0.89270 0.36650 0.05390 -0.00000
C 	C 	0.00669 0.37965 0.13309 0.00300
H 	H 	0.98470 0.37990 0.13490 0.04000
C 	C 	0.04079 0.35991 0.07871 0.13200
C 	C 	0.10779 0.27205 0.20099 -0.09800
H 	H 	0.10450 0.25350 0.19990 0.06700
S 	S 	0.16691 0.49475 0.90987 -0.06100
S 	S 	0.06076 0.45312 0.19824 -0.06000
N 	N 	0.17068 0.38178 0.11828 -0.22700
N 	N 	0.07949 0.54873 0.00967 -0.14900
N 	N 	0.02666 0.58472 0.04374 -0.15100
C 	C 	0.05302 0.58044 0.01316 0.13300
N 	N 	0.12683 0.42125 0.07099 -0.22600
N 	N 	0.09357 0.41087 0.15393 -0.26500
C 	C 	0.05282 0.61218 0.97948 -0.04700
C 	C 	0.08078 0.60922 0.94712 0.03500
H 	H 	0.10010 0.58670 0.94770 0.01500
N 	N 	0.05395 0.52235 0.07359 -0.15000
C 	C 	0.96499 0.58265 0.10675 0.03500
H 	H 	0.96310 0.60010 0.08390 0.01300
C 	C 	0.20221 0.35393 0.11727 0.03900
H 	H 	0.20280 0.33120 0.12040 0.01300
N 	N 	0.08208 0.63630 0.91502 -0.22600
C 	C 	0.93886 0.56068 0.16792 0.06300
H 	H 	0.91800 0.56200 0.18900 -0.00100
C 	C 	0.02839 0.55465 0.07325 0.13300
C 	C 	0.23366 0.35660 0.11192 -0.05100
N 	N 	0.13181 0.56963 0.89109 -0.25800
N 	N 	0.29535 0.32707 0.11129 -0.15100
N 	N 	0.93505 0.58441 0.13603 -0.22400
C 	C 	0.26715 0.32495 0.11101 0.13400
C 	C 	0.99868 0.55668 0.10790 -0.04700
C 	C 	0.02424 0.64452 0.97866 0.00600
H 	H 	0.00460 0.64740 0.00040 0.03800
C 	C 	0.14524 0.53822 0.89992 0.09800
C 	C 	0.00217 0.53145 0.14173 0.00600
H 	H 	0.02480 0.51320 0.14360 0.03800
C 	C 	0.10333 0.45445 0.07005 0.04000
H 	H 	0.08360 0.45740 0.09180 0.01200
C 	C 	0.97146 0.53404 0.17226 -0.10000
H 	H 	0.97270 0.51790 0.19570 0.06600
C 	C 	0.10591 0.48543 0.03885 -0.04900
C 	C 	0.15411 0.41673 0.03999 0.05200
H 	H 	0.17130 0.39310 0.04050 0.00500
C 	C 	0.07992 0.42774 0.17226 0.10500
C 	C 	0.02426 0.67300 0.94582 -0.09500
H 	H 	0.00470 0.69550 0.94450 0.06300
C 	C 	0.15803 0.44541 0.00731 -0.09200
H 	H 	0.17720 0.44140 0.98580 0.06500
C 	C 	0.23313 0.38983 0.10715 0.00700
H 	H 	0.25440 0.39240 0.10360 0.03800
C 	C 	0.17078 0.41380 0.11338 0.05600
H 	H 	0.14880 0.43380 0.11380 0.00200
C 	C 	0.05377 0.66747 0.91505 0.05600
H 	H 	0.05390 0.68690 0.89270 -0.00000
C 	C 	0.13309 0.48057 0.00669 0.00300
H 	H 	0.13490 0.50050 0.98470 0.04000
C 	C 	0.07871 0.52059 0.04079 0.13200
C 	C 	0.20099 0.41917 0.10779 -0.09800
H 	H 	0.19990 0.44210 0.10450 0.06700
S 	S 	0.82153 0.75525 0.34013 -0.06100
S 	S 	0.96212 0.79688 0.05176 -0.06000
N 	N 	0.92074 0.86822 0.13172 -0.22700
N 	N 	0.88789 0.70127 0.24033 -0.14900
N 	N 	0.90512 0.66528 0.20626 -0.15100
C 	C 	0.89662 0.66956 0.23684 0.13400
N 	N 	0.86907 0.82875 0.17901 -0.22600
N 	N 	0.90837 0.83913 0.09607 -0.26500
C 	C 	0.89448 0.63782 0.27052 -0.04700
C 	C 	0.88712 0.64078 0.30288 0.03500
H 	H 	0.88450 0.66330 0.30230 0.01500
N 	N 	0.89989 0.72765 0.17641 -0.15000
C 	C 	0.90439 0.66735 0.14325 0.03600
H 	H 	0.89710 0.64990 0.16610 0.01300
C 	C 	0.92341 0.89607 0.13273 0.03900
H 	H 	0.90440 0.91880 0.12960 0.01200
N 	N 	0.88340 0.61370 0.33498 -0.22600
C 	C 	0.91746 0.68932 0.08208 0.06400
H 	H 	0.91900 0.68800 0.06100 -0.00100
C 	C 	0.90629 0.69535 0.17675 0.13400
C 	C 	0.95218 0.89340 0.13808 -0.05100
N 	N 	0.84253 0.68037 0.35891 -0.25800
N 	N 	0.98371 0.92293 0.13871 -0.15100
N 	N 	0.90549 0.66559 0.11397 -0.22500
C 	C 	0.95311 0.92505 0.13899 0.13400
C 	C 	0.91326 0.69332 0.14210 -0.04800
C 	C 	0.89742 0.60548 0.27134 0.00500
H 	H 	0.90240 0.60260 0.24960 0.03800
C 	C 	0.83338 0.71178 0.35008 0.09800
C 	C 	0.92535 0.71855 0.10827 0.00700
H 	H 	0.93160 0.73680 0.10640 0.03800
C 	C 	0.87783 0.79555 0.17995 0.04000
H 	H 	0.88280 0.79260 0.15820 0.01200
C 	C 	0.92776 0.71596 0.07774 -0.10100
H 	H 	0.93630 0.73210 0.05430 0.06600
C 	C 	0.88019 0.76457 0.21115 -0.04900
C 	C 	0.86083 0.83327 0.21001 0.05200
H 	H 	0.85490 0.85690 0.20950 0.00500
C 	C 	0.92992 0.82226 0.07774 0.10500
C 	C 	0.89308 0.57700 0.30418 -0.09500
H 	H 	0.89470 0.55450 0.30550 0.06300
C 	C 	0.86075 0.80459 0.24269 -0.09100
H 	H 	0.85440 0.80860 0.26420 0.06400
C 	C 	0.98011 0.86017 0.14285 0.00800
H 	H 	0.00040 0.85760 0.14640 0.03800
C 	C 	0.94796 0.83620 0.13662 0.05700
H 	H 	0.94640 0.81620 0.13620 0.00200
C 	C 	0.88629 0.58253 0.33495 0.05600
H 	H 	0.88350 0.56310 0.35730 -0.00000
C 	C 	0.87035 0.76943 0.24331 0.00300
H 	H 	0.87010 0.74950 0.26530 0.04000
C 	C 	0.89009 0.72941 0.20921 0.13300
C 	C 	0.97795 0.83083 0.14221 -0.09800
H 	H 	0.99650 0.80790 0.14550 0.06700
S 	S 	0.75525 0.82153 0.08309 -0.06100
S 	S 	0.79688 0.96212 0.18924 -0.06000
N 	N 	0.86822 0.92074 0.07932 -0.22700
N 	N 	0.70127 0.88789 0.17051 -0.14900
N 	N 	0.66528 0.90512 0.22334 -0.15100
C 	C 	0.66956 0.89662 0.19698 0.13400
N 	N 	0.82875 0.86907 0.12317 -0.22600
N 	N 	0.83913 0.90837 0.15643 -0.26500
C 	C 	0.63782 0.89448 0.19718 -0.04700
C 	C 	0.64078 0.88712 0.16922 0.03500
H 	H 	0.66330 0.88450 0.14990 0.01500
N 	N 	0.72765 0.89989 0.19605 -0.15000
C 	C 	0.66735 0.90439 0.28501 0.03600
H 	H 	0.64990 0.89710 0.28690 0.01300
C 	C 	0.89607 0.92341 0.04779 0.03900
H 	H 	0.91880 0.90440 0.04720 0.01200
N 	N 	0.61370 0.88340 0.16792 -0.22600
C 	C 	0.68932 0.91746 0.31114 0.06400
H 	H 	0.68800 0.91900 0.33200 -0.00100
C 	C 	0.69535 0.90629 0.22161 0.13400
C 	C 	0.89340 0.95218 0.01634 -0.05100
N 	N 	0.68037 0.84253 0.11819 -0.25800
N 	N 	0.92293 0.98371 0.95465 -0.15100
N 	N 	0.66559 0.90549 0.31495 -0.22500
C 	C 	0.92505 0.95311 0.98285 0.13400
C 	C 	0.69332 0.91326 0.25132 -0.04800
C 	C 	0.60548 0.89742 0.22576 0.00500
H 	H 	0.60260 0.90240 0.24540 0.03800
C 	C 	0.71178 0.83338 0.10476 0.09800
C 	C 	0.71855 0.92535 0.24783 0.00700
H 	H 	0.73680 0.93160 0.22520 0.03800
C 	C 	0.79555 0.87783 0.14667 0.04000
H 	H 	0.79260 0.88280 0.16640 0.01200
C 	C 	0.71596 0.92776 0.27854 -0.10100
H 	H 	0.73210 0.93630 0.27730 0.06600
C 	C 	0.76457 0.88019 0.14409 -0.04900
C 	C 	0.83327 0.86083 0.09589 0.05200
H 	H 	0.85690 0.85490 0.07870 0.00500
C 	C 	0.82226 0.92992 0.17008 0.10500
C 	C 	0.57700 0.89308 0.22574 -0.09500
H 	H 	0.55450 0.89470 0.24530 0.06300
C 	C 	0.80459 0.86075 0.09197 -0.09100
H 	H 	0.80860 0.85440 0.07280 0.06400
C 	C 	0.86017 0.98011 0.01687 0.00700
H 	H 	0.85760 0.00040 0.99560 0.03800
C 	C 	0.83620 0.94796 0.07922 0.05700
H 	H 	0.81620 0.94640 0.10120 0.00200
C 	C 	0.58253 0.88629 0.19623 0.05600
H 	H 	0.56310 0.88350 0.19610 -0.00000
C 	C 	0.76943 0.87035 0.11691 0.00300
H 	H 	0.74950 0.87010 0.11510 0.04000
C 	C 	0.72941 0.89009 0.17129 0.13300
C 	C 	0.83083 0.97795 0.04901 -0.09800
H 	H 	0.80790 0.99650 0.05010 0.06700
S 	S 	0.08309 0.34013 0.75525 -0.06100
S 	S 	0.18924 0.05176 0.79688 -0.06000
N 	N 	0.07932 0.13172 0.86822 -0.22700
N 	N 	0.17051 0.24033 0.70127 -0.14900
N 	N 	0.22334 0.20626 0.66528 -0.15100
C 	C 	0.19698 0.23684 0.66956 0.13400
N 	N 	0.12317 0.17901 0.82875 -0.22600
N 	N 	0.15643 0.09607 0.83913 -0.26500
C 	C 	0.19718 0.27052 0.63782 -0.04700
C 	C 	0.16922 0.30288 0.64078 0.03500
H 	H 	0.14990 0.30230 0.66330 0.01500
N 	N 	0.19605 0.17641 0.72765 -0.15000
C 	C 	0.28501 0.14325 0.66735 0.03600
H 	H 	0.28690 0.16610 0.64990 0.01300
C 	C 	0.04779 0.13273 0.89607 0.03900
H 	H 	0.04720 0.12960 0.91880 0.01200
N 	N 	0.16792 0.33498 0.61370 -0.22600
C 	C 	0.31114 0.08208 0.68932 0.06400
H 	H 	0.33200 0.06100 0.68800 -0.00100
C 	C 	0.22161 0.17675 0.69535 0.13400
C 	C 	0.01634 0.13808 0.89340 -0.05100
N 	N 	0.11819 0.35891 0.68037 -0.25800
N 	N 	0.95465 0.13871 0.92293 -0.15100
N 	N 	0.31495 0.11397 0.66559 -0.22500
C 	C 	0.98285 0.13899 0.92505 0.13400
C 	C 	0.25132 0.14210 0.69332 -0.04800
C 	C 	0.22576 0.27134 0.60548 0.00500
H 	H 	0.24540 0.24960 0.60260 0.03800
C 	C 	0.10476 0.35008 0.71178 0.09800
C 	C 	0.24783 0.10827 0.71855 0.00700
H 	H 	0.22520 0.10640 0.73680 0.03800
C 	C 	0.14667 0.17995 0.79555 0.04000
H 	H 	0.16640 0.15820 0.79260 0.01200
C 	C 	0.27854 0.07774 0.71596 -0.10100
H 	H 	0.27730 0.05430 0.73210 0.06600
C 	C 	0.14409 0.21115 0.76457 -0.04900
C 	C 	0.09589 0.21001 0.83327 0.05200
H 	H 	0.07870 0.20950 0.85690 0.00500
C 	C 	0.17008 0.07774 0.82226 0.10500
C 	C 	0.22574 0.30418 0.57700 -0.09500
H 	H 	0.24530 0.30550 0.55450 0.06300
C 	C 	0.09197 0.24269 0.80459 -0.09100
H 	H 	0.07280 0.26420 0.80860 0.06400
C 	C 	0.01687 0.14285 0.86017 0.00600
H 	H 	0.99560 0.14640 0.85760 0.03900
C 	C 	0.07922 0.13662 0.83620 0.05600
H 	H 	0.10120 0.13620 0.81620 0.00200
C 	C 	0.19623 0.33495 0.58253 0.05600
H 	H 	0.19610 0.35730 0.56310 -0.00000
C 	C 	0.11691 0.24331 0.76943 0.00300
H 	H 	0.11510 0.26530 0.74950 0.04000
C 	C 	0.17129 0.20921 0.72941 0.13300
C 	C 	0.04901 0.14221 0.83083 -0.09700
H 	H 	0.05010 0.14550 0.80790 0.06700
S 	S 	0.34013 0.08309 0.82153 -0.06100
S 	S 	0.05176 0.18924 0.96212 -0.06000
N 	N 	0.13172 0.07932 0.92074 -0.22700
N 	N 	0.24033 0.17051 0.88789 -0.14900
N 	N 	0.20626 0.22334 0.90512 -0.15100
C 	C 	0.23684 0.19698 0.89662 0.13400
N 	N 	0.17901 0.12317 0.86907 -0.22600
N 	N 	0.09607 0.15643 0.90837 -0.26500
C 	C 	0.27052 0.19718 0.89448 -0.04700
C 	C 	0.30288 0.16922 0.88712 0.03500
H 	H 	0.30230 0.14990 0.88450 0.01500
N 	N 	0.17641 0.19605 0.89989 -0.15000
C 	C 	0.14325 0.28501 0.90439 0.03600
H 	H 	0.16610 0.28690 0.89710 0.01300
C 	C 	0.13273 0.04779 0.92341 0.03900
H 	H 	0.12960 0.04720 0.90440 0.01200
N 	N 	0.33498 0.16792 0.88340 -0.22600
C 	C 	0.08208 0.31114 0.91746 0.06400
H 	H 	0.06100 0.33200 0.91900 -0.00100
C 	C 	0.17675 0.22161 0.90629 0.13400
C 	C 	0.13808 0.01634 0.95218 -0.05100
N 	N 	0.35891 0.11819 0.84253 -0.25800
N 	N 	0.13871 0.95465 0.98371 -0.15100
N 	N 	0.11397 0.31495 0.90549 -0.22500
C 	C 	0.13899 0.98285 0.95311 0.13400
C 	C 	0.14210 0.25132 0.91326 -0.04800
C 	C 	0.27134 0.22576 0.89742 0.00500
H 	H 	0.24960 0.24540 0.90240 0.03800
C 	C 	0.35008 0.10476 0.83338 0.09800
C 	C 	0.10827 0.24783 0.92535 0.00700
H 	H 	0.10640 0.22520 0.93160 0.03800
C 	C 	0.17995 0.14667 0.87783 0.04000
H 	H 	0.15820 0.16640 0.88280 0.01200
C 	C 	0.07774 0.27854 0.92776 -0.10100
H 	H 	0.05430 0.27730 0.93630 0.06600
C 	C 	0.21115 0.14409 0.88019 -0.04900
C 	C 	0.21001 0.09589 0.86083 0.05200
H 	H 	0.20950 0.07870 0.85490 0.00500
C 	C 	0.07774 0.17008 0.92992 0.10500
C 	C 	0.30418 0.22574 0.89308 -0.09500
H 	H 	0.30550 0.24530 0.89470 0.06300
C 	C 	0.24269 0.09197 0.86075 -0.09100
H 	H 	0.26420 0.07280 0.85440 0.06400
C 	C 	0.14285 0.01687 0.98011 0.00700
H 	H 	0.14640 0.99560 0.00040 0.03800
C 	C 	0.13662 0.07922 0.94796 0.05700
H 	H 	0.13620 0.10120 0.94640 0.00200
C 	C 	0.33495 0.19623 0.88629 0.05600
H 	H 	0.35730 0.19610 0.88350 -0.00000
C 	C 	0.24331 0.11691 0.87035 0.00300
H 	H 	0.26530 0.11510 0.87010 0.04000
C 	C 	0.20921 0.17129 0.89009 0.13300
C 	C 	0.14221 0.04901 0.97795 -0.09800
H 	H 	0.14550 0.05010 0.99650 0.06700
S 	S 	0.08309 0.82153 0.34013 -0.06100
S 	S 	0.18924 0.96212 0.05176 -0.06000
N 	N 	0.07932 0.92074 0.13172 -0.22700
N 	N 	0.17051 0.88789 0.24033 -0.14900
N 	N 	0.22334 0.90512 0.20626 -0.15100
C 	C 	0.19698 0.89662 0.23684 0.13400
N 	N 	0.12317 0.86907 0.17901 -0.22600
N 	N 	0.15643 0.90837 0.09607 -0.26500
C 	C 	0.19718 0.89448 0.27052 -0.04700
C 	C 	0.16922 0.88712 0.30288 0.03500
H 	H 	0.14990 0.88450 0.30230 0.01500
N 	N 	0.19605 0.89989 0.17641 -0.15000
C 	C 	0.28501 0.90439 0.14325 0.03600
H 	H 	0.28690 0.89710 0.16610 0.01300
C 	C 	0.04779 0.92341 0.13273 0.03900
H 	H 	0.04720 0.90440 0.12960 0.01200
N 	N 	0.16792 0.88340 0.33498 -0.22600
C 	C 	0.31114 0.91746 0.08208 0.06400
H 	H 	0.33200 0.91900 0.06100 -0.00100
C 	C 	0.22161 0.90629 0.17675 0.13400
C 	C 	0.01634 0.95218 0.13808 -0.05100
N 	N 	0.11819 0.84253 0.35891 -0.25800
N 	N 	0.95465 0.98371 0.13871 -0.15100
N 	N 	0.31495 0.90549 0.11397 -0.22500
C 	C 	0.98285 0.95311 0.13899 0.13400
C 	C 	0.25132 0.91326 0.14210 -0.04800
C 	C 	0.22576 0.89742 0.27134 0.00500
H 	H 	0.24540 0.90240 0.24960 0.03800
C 	C 	0.10476 0.83338 0.35008 0.09800
C 	C 	0.24783 0.92535 0.10827 0.00700
H 	H 	0.22520 0.93160 0.10640 0.03800
C 	C 	0.14667 0.87783 0.17995 0.04000
H 	H 	0.16640 0.88280 0.15820 0.01200
C 	C 	0.27854 0.92776 0.07774 -0.10100
H 	H 	0.27730 0.93630 0.05430 0.06600
C 	C 	0.14409 0.88019 0.21115 -0.04900
C 	C 	0.09589 0.86083 0.21001 0.05200
H 	H 	0.07870 0.85490 0.20950 0.00500
C 	C 	0.17008 0.92992 0.07774 0.10500
C 	C 	0.22574 0.89308 0.30418 -0.09500
H 	H 	0.24530 0.89470 0.30550 0.06300
C 	C 	0.09197 0.86075 0.24269 -0.09100
H 	H 	0.07280 0.85440 0.26420 0.06400
C 	C 	0.01687 0.98011 0.14285 0.00700
H 	H 	0.99560 0.00040 0.14640 0.03800
C 	C 	0.07922 0.94796 0.13662 0.05700
H 	H 	0.10120 0.94640 0.13620 0.00200
C 	C 	0.19623 0.88629 0.33495 0.05600
H 	H 	0.19610 0.88350 0.35730 -0.00000
C 	C 	0.11691 0.87035 0.24331 0.00300
H 	H 	0.11510 0.87010 0.26530 0.04000
C 	C 	0.17129 0.89009 0.20921 0.13300
C 	C 	0.04901 0.97795 0.14221 -0.09800
H 	H 	0.05010 0.99650 0.14550 0.06700
S 	S 	0.34013 0.75525 0.08309 -0.06100
S 	S 	0.05176 0.79688 0.18924 -0.06000
N 	N 	0.13172 0.86822 0.07932 -0.22700
N 	N 	0.24033 0.70127 0.17051 -0.14900
N 	N 	0.20626 0.66528 0.22334 -0.15100
C 	C 	0.23684 0.66956 0.19698 0.13400
N 	N 	0.17901 0.82875 0.12317 -0.22600
N 	N 	0.09607 0.83913 0.15643 -0.26500
C 	C 	0.27052 0.63782 0.19718 -0.04700
C 	C 	0.30288 0.64078 0.16922 0.03500
H 	H 	0.30230 0.66330 0.14990 0.01500
N 	N 	0.17641 0.72765 0.19605 -0.15000
C 	C 	0.14325 0.66735 0.28501 0.03600
H 	H 	0.16610 0.64990 0.28690 0.01300
C 	C 	0.13273 0.89607 0.04779 0.03900
H 	H 	0.12960 0.91880 0.04720 0.01200
N 	N 	0.33498 0.61370 0.16792 -0.22600
C 	C 	0.08208 0.68932 0.31114 0.06400
H 	H 	0.06100 0.68800 0.33200 -0.00100
C 	C 	0.17675 0.69535 0.22161 0.13400
C 	C 	0.13808 0.89340 0.01634 -0.05100
N 	N 	0.35891 0.68037 0.11819 -0.25800
N 	N 	0.13871 0.92293 0.95465 -0.15100
N 	N 	0.11397 0.66559 0.31495 -0.22500
C 	C 	0.13899 0.92505 0.98285 0.13400
C 	C 	0.14210 0.69332 0.25132 -0.04800
C 	C 	0.27134 0.60548 0.22576 0.00500
H 	H 	0.24960 0.60260 0.24540 0.03800
C 	C 	0.35008 0.71178 0.10476 0.09800
C 	C 	0.10827 0.71855 0.24783 0.00700
H 	H 	0.10640 0.73680 0.22520 0.03800
C 	C 	0.17995 0.79555 0.14667 0.04000
H 	H 	0.15820 0.79260 0.16640 0.01200
C 	C 	0.07774 0.71596 0.27854 -0.10100
H 	H 	0.05430 0.73210 0.27730 0.06600
C 	C 	0.21115 0.76457 0.14409 -0.04900
C 	C 	0.21001 0.83327 0.09589 0.05200
H 	H 	0.20950 0.85690 0.07870 0.00500
C 	C 	0.07774 0.82226 0.17008 0.10500
C 	C 	0.30418 0.57700 0.22574 -0.09500
H 	H 	0.30550 0.55450 0.24530 0.06300
C 	C 	0.24269 0.80459 0.09197 -0.09100
H 	H 	0.26420 0.80860 0.07280 0.06400
C 	C 	0.14285 0.86017 0.01687 0.00600
H 	H 	0.14640 0.85760 0.99560 0.03900
C 	C 	0.13662 0.83620 0.07922 0.05600
H 	H 	0.13620 0.81620 0.10120 0.00200
C 	C 	0.33495 0.58253 0.19623 0.05600
H 	H 	0.35730 0.56310 0.19610 -0.00000
C 	C 	0.24331 0.76943 0.11691 0.00300
H 	H 	0.26530 0.74950 0.11510 0.04000
C 	C 	0.20921 0.72941 0.17129 0.13300
C 	C 	0.14221 0.83083 0.04901 -0.09700
H 	H 	0.14550 0.80790 0.05010 0.06700
S 	S 	0.82153 0.08309 0.75525 -0.06100
S 	S 	0.96212 0.18924 0.79688 -0.06000
N 	N 	0.92074 0.07932 0.86822 -0.22700
N 	N 	0.88789 0.17051 0.70127 -0.14900
N 	N 	0.90512 0.22334 0.66528 -0.15100
C 	C 	0.89662 0.19698 0.66956 0.13400
N 	N 	0.86907 0.12317 0.82875 -0.22600
N 	N 	0.90837 0.15643 0.83913 -0.26500
C 	C 	0.89448 0.19718 0.63782 -0.04700
C 	C 	0.88712 0.16922 0.64078 0.03500
H 	H 	0.88450 0.14990 0.66330 0.01500
N 	N 	0.89989 0.19605 0.72765 -0.15000
C 	C 	0.90439 0.28501 0.66735 0.03600
H 	H 	0.89710 0.28690 0.64990 0.01300
C 	C 	0.92341 0.04779 0.89607 0.03900
H 	H 	0.90440 0.04720 0.91880 0.01200
N 	N 	0.88340 0.16792 0.61370 -0.22600
C 	C 	0.91746 0.31114 0.68932 0.06400
H 	H 	0.91900 0.33200 0.68800 -0.00100
C 	C 	0.90629 0.22161 0.69535 0.13400
C 	C 	0.95218 0.01634 0.89340 -0.05100
N 	N 	0.84253 0.11819 0.68037 -0.25800
N 	N 	0.98371 0.95465 0.92293 -0.15100
N 	N 	0.90549 0.31495 0.66559 -0.22500
C 	C 	0.95311 0.98285 0.92505 0.13400
C 	C 	0.91326 0.25132 0.69332 -0.04800
C 	C 	0.89742 0.22576 0.60548 0.00500
H 	H 	0.90240 0.24540 0.60260 0.03800
C 	C 	0.83338 0.10476 0.71178 0.09800
C 	C 	0.92535 0.24783 0.71855 0.00700
H 	H 	0.93160 0.22520 0.73680 0.03800
C 	C 	0.87783 0.14667 0.79555 0.04000
H 	H 	0.88280 0.16640 0.79260 0.01200
C 	C 	0.92776 0.27854 0.71596 -0.10100
H 	H 	0.93630 0.27730 0.73210 0.06600
C 	C 	0.88019 0.14409 0.76457 -0.04900
C 	C 	0.86083 0.09589 0.83327 0.05200
H 	H 	0.85490 0.07870 0.85690 0.00500
C 	C 	0.92992 0.17008 0.82226 0.10500
C 	C 	0.89308 0.22574 0.57700 -0.09500
H 	H 	0.89470 0.24530 0.55450 0.06300
C 	C 	0.86075 0.09197 0.80459 -0.09100
H 	H 	0.85440 0.07280 0.80860 0.06400
C 	C 	0.98011 0.01687 0.86017 0.00700
H 	H 	0.00040 0.99560 0.85760 0.03800
C 	C 	0.94796 0.07922 0.83620 0.05700
H 	H 	0.94640 0.10120 0.81620 0.00200
C 	C 	0.88629 0.19623 0.58253 0.05600
H 	H 	0.88350 0.19610 0.56310 -0.00000
C 	C 	0.87035 0.11691 0.76943 0.00300
H 	H 	0.87010 0.11510 0.74950 0.04000
C 	C 	0.89009 0.17129 0.72941 0.13300
C 	C 	0.97795 0.04901 0.83083 -0.09800
H 	H 	0.99650 0.05010 0.80790 0.06700
S 	S 	0.75525 0.34013 0.82153 -0.06100
S 	S 	0.79688 0.05176 0.96212 -0.06000
N 	N 	0.86822 0.13172 0.92074 -0.22700
N 	N 	0.70127 0.24033 0.88789 -0.14900
N 	N 	0.66528 0.20626 0.90512 -0.15100
C 	C 	0.66956 0.23684 0.89662 0.13400
N 	N 	0.82875 0.17901 0.86907 -0.22600
N 	N 	0.83913 0.09607 0.90837 -0.26500
C 	C 	0.63782 0.27052 0.89448 -0.04700
C 	C 	0.64078 0.30288 0.88712 0.03500
H 	H 	0.66330 0.30230 0.88450 0.01500
N 	N 	0.72765 0.17641 0.89989 -0.15000
C 	C 	0.66735 0.14325 0.90439 0.03600
H 	H 	0.64990 0.16610 0.89710 0.01300
C 	C 	0.89607 0.13273 0.92341 0.03900
H 	H 	0.91880 0.12960 0.90440 0.01200
N 	N 	0.61370 0.33498 0.88340 -0.22600
C 	C 	0.68932 0.08208 0.91746 0.06400
H 	H 	0.68800 0.06100 0.91900 -0.00100
C 	C 	0.69535 0.17675 0.90629 0.13400
C 	C 	0.89340 0.13808 0.95218 -0.05100
N 	N 	0.68037 0.35891 0.84253 -0.25800
N 	N 	0.92293 0.13871 0.98371 -0.15100
N 	N 	0.66559 0.11397 0.90549 -0.22500
C 	C 	0.92505 0.13899 0.95311 0.13400
C 	C 	0.69332 0.14210 0.91326 -0.04800
C 	C 	0.60548 0.27134 0.89742 0.00500
H 	H 	0.60260 0.24960 0.90240 0.03800
C 	C 	0.71178 0.35008 0.83338 0.09800
C 	C 	0.71855 0.10827 0.92535 0.00700
H 	H 	0.73680 0.10640 0.93160 0.03800
C 	C 	0.79555 0.17995 0.87783 0.04000
H 	H 	0.79260 0.15820 0.88280 0.01200
C 	C 	0.71596 0.07774 0.92776 -0.10100
H 	H 	0.73210 0.05430 0.93630 0.06600
C 	C 	0.76457 0.21115 0.88019 -0.04900
C 	C 	0.83327 0.21001 0.86083 0.05200
H 	H 	0.85690 0.20950 0.85490 0.00500
C 	C 	0.82226 0.07774 0.92992 0.10500
C 	C 	0.57700 0.30418 0.89308 -0.09500
H 	H 	0.55450 0.30550 0.89470 0.06300
C 	C 	0.80459 0.24269 0.86075 -0.09100
H 	H 	0.80860 0.26420 0.85440 0.06400
C 	C 	0.86017 0.14285 0.98011 0.00800
H 	H 	0.85760 0.14640 0.00040 0.03800
C 	C 	0.83620 0.13662 0.94796 0.05700
H 	H 	0.81620 0.13620 0.94640 0.00200
C 	C 	0.58253 0.33495 0.88629 0.05600
H 	H 	0.56310 0.35730 0.88350 -0.00000
C 	C 	0.76943 0.24331 0.87035 0.00300
H 	H 	0.74950 0.26530 0.87010 0.04000
C 	C 	0.72941 0.20921 0.89009 0.13300
C 	C 	0.83083 0.14221 0.97795 -0.09800
H 	H 	0.80790 0.14550 0.99650 0.06700
S 	S 	0.75525 0.08309 0.34013 -0.06100
S 	S 	0.79688 0.18924 0.05176 -0.06000
N 	N 	0.86822 0.07932 0.13172 -0.22700
N 	N 	0.70127 0.17051 0.24033 -0.14900
N 	N 	0.66528 0.22334 0.20626 -0.15100
C 	C 	0.66956 0.19698 0.23684 0.13400
N 	N 	0.82875 0.12317 0.17901 -0.22600
N 	N 	0.83913 0.15643 0.09607 -0.26500
C 	C 	0.63782 0.19718 0.27052 -0.04700
C 	C 	0.64078 0.16922 0.30288 0.03500
H 	H 	0.66330 0.14990 0.30230 0.01500
N 	N 	0.72765 0.19605 0.17641 -0.15000
C 	C 	0.66735 0.28501 0.14325 0.03600
H 	H 	0.64990 0.28690 0.16610 0.01300
C 	C 	0.89607 0.04779 0.13273 0.03900
H 	H 	0.91880 0.04720 0.12960 0.01200
N 	N 	0.61370 0.16792 0.33498 -0.22600
C 	C 	0.68932 0.31114 0.08208 0.06400
H 	H 	0.68800 0.33200 0.06100 -0.00100
C 	C 	0.69535 0.22161 0.17675 0.13400
C 	C 	0.89340 0.01634 0.13808 -0.05100
N 	N 	0.68037 0.11819 0.35891 -0.25800
N 	N 	0.92293 0.95465 0.13871 -0.15100
N 	N 	0.66559 0.31495 0.11397 -0.22500
C 	C 	0.92505 0.98285 0.13899 0.13400
C 	C 	0.69332 0.25132 0.14210 -0.04800
C 	C 	0.60548 0.22576 0.27134 0.00500
H 	H 	0.60260 0.24540 0.24960 0.03800
C 	C 	0.71178 0.10476 0.35008 0.09800
C 	C 	0.71855 0.24783 0.10827 0.00700
H 	H 	0.73680 0.22520 0.10640 0.03800
C 	C 	0.79555 0.14667 0.17995 0.04000
H 	H 	0.79260 0.16640 0.15820 0.01200
C 	C 	0.71596 0.27854 0.07774 -0.10100
H 	H 	0.73210 0.27730 0.05430 0.06600
C 	C 	0.76457 0.14409 0.21115 -0.04900
C 	C 	0.83327 0.09589 0.21001 0.05200
H 	H 	0.85690 0.07870 0.20950 0.00500
C 	C 	0.82226 0.17008 0.07774 0.10500
C 	C 	0.57700 0.22574 0.30418 -0.09500
H 	H 	0.55450 0.24530 0.30550 0.06300
C 	C 	0.80459 0.09197 0.24269 -0.09100
H 	H 	0.80860 0.07280 0.26420 0.06400
C 	C 	0.86017 0.01687 0.14285 0.00600
H 	H 	0.85760 0.99560 0.14640 0.03900
C 	C 	0.83620 0.07922 0.13662 0.05600
H 	H 	0.81620 0.10120 0.13620 0.00200
C 	C 	0.58253 0.19623 0.33495 0.05600
H 	H 	0.56310 0.19610 0.35730 -0.00000
C 	C 	0.76943 0.11691 0.24331 0.00300
H 	H 	0.74950 0.11510 0.26530 0.04000
C 	C 	0.72941 0.17129 0.20921 0.13300
C 	C 	0.83083 0.04901 0.14221 -0.09700
H 	H 	0.80790 0.05010 0.14550 0.06700
S 	S 	0.82153 0.34013 0.08309 -0.06100
S 	S 	0.96212 0.05176 0.18924 -0.06000
N 	N 	0.92074 0.13172 0.07932 -0.22700
N 	N 	0.88789 0.24033 0.17051 -0.14900
N 	N 	0.90512 0.20626 0.22334 -0.15100
C 	C 	0.89662 0.23684 0.19698 0.13400
N 	N 	0.86907 0.17901 0.12317 -0.22600
N 	N 	0.90837 0.09607 0.15643 -0.26500
C 	C 	0.89448 0.27052 0.19718 -0.04700
C 	C 	0.88712 0.30288 0.16922 0.03500
H 	H 	0.88450 0.30230 0.14990 0.01500
N 	N 	0.89989 0.17641 0.19605 -0.15000
C 	C 	0.90439 0.14325 0.28501 0.03600
H 	H 	0.89710 0.16610 0.28690 0.01300
C 	C 	0.92341 0.13273 0.04779 0.03900
H 	H 	0.90440 0.12960 0.04720 0.01200
N 	N 	0.88340 0.33498 0.16792 -0.22600
C 	C 	0.91746 0.08208 0.31114 0.06400
H 	H 	0.91900 0.06100 0.33200 -0.00100
C 	C 	0.90629 0.17675 0.22161 0.13400
C 	C 	0.95218 0.13808 0.01634 -0.05100
N 	N 	0.84253 0.35891 0.11819 -0.25800
N 	N 	0.98371 0.13871 0.95465 -0.15100
N 	N 	0.90549 0.11397 0.31495 -0.22500
C 	C 	0.95311 0.13899 0.98285 0.13400
C 	C 	0.91326 0.14210 0.25132 -0.04800
C 	C 	0.89742 0.27134 0.22576 0.00500
H 	H 	0.90240 0.24960 0.24540 0.03800
C 	C 	0.83338 0.35008 0.10476 0.09800
C 	C 	0.92535 0.10827 0.24783 0.00700
H 	H 	0.93160 0.10640 0.22520 0.03800
C 	C 	0.87783 0.17995 0.14667 0.04000
H 	H 	0.88280 0.15820 0.16640 0.01200
C 	C 	0.92776 0.07774 0.27854 -0.10100
H 	H 	0.93630 0.05430 0.27730 0.06600
C 	C 	0.88019 0.21115 0.14409 -0.04900
C 	C 	0.86083 0.21001 0.09589 0.05200
H 	H 	0.85490 0.20950 0.07870 0.00500
C 	C 	0.92992 0.07774 0.17008 0.10500
C 	C 	0.89308 0.30418 0.22574 -0.09500
H 	H 	0.89470 0.30550 0.24530 0.06300
C 	C 	0.86075 0.24269 0.09197 -0.09100
H 	H 	0.85440 0.26420 0.07280 0.06400
C 	C 	0.98011 0.14285 0.01687 0.00700
H 	H 	0.00040 0.14640 0.99560 0.03800
C 	C 	0.94796 0.13662 0.07922 0.05700
H 	H 	0.94640 0.13620 0.10120 0.00200
C 	C 	0.88629 0.33495 0.19623 0.05600
H 	H 	0.88350 0.35730 0.19610 -0.00000
C 	C 	0.87035 0.24331 0.11691 0.00300
H 	H 	0.87010 0.26530 0.11510 0.04000
C 	C 	0.89009 0.20921 0.17129 0.13300
C 	C 	0.97795 0.14221 0.04901 -0.09800
H 	H 	0.99650 0.14550 0.05010 0.06700
S 	S 	0.34013 0.82153 0.75525 -0.06100
S 	S 	0.05176 0.96212 0.79688 -0.06000
N 	N 	0.13172 0.92074 0.86822 -0.22700
N 	N 	0.24033 0.88789 0.70127 -0.14900
N 	N 	0.20626 0.90512 0.66528 -0.15100
C 	C 	0.23684 0.89662 0.66956 0.13400
N 	N 	0.17901 0.86907 0.82875 -0.22600
N 	N 	0.09607 0.90837 0.83913 -0.26500
C 	C 	0.27052 0.89448 0.63782 -0.04700
C 	C 	0.30288 0.88712 0.64078 0.03500
H 	H 	0.30230 0.88450 0.66330 0.01500
N 	N 	0.17641 0.89989 0.72765 -0.15000
C 	C 	0.14325 0.90439 0.66735 0.03600
H 	H 	0.16610 0.89710 0.64990 0.01300
C 	C 	0.13273 0.92341 0.89607 0.03900
H 	H 	0.12960 0.90440 0.91880 0.01200
N 	N 	0.33498 0.88340 0.61370 -0.22600
C 	C 	0.08208 0.91746 0.68932 0.06400
H 	H 	0.06100 0.91900 0.68800 -0.00100
C 	C 	0.17675 0.90629 0.69535 0.13400
C 	C 	0.13808 0.95218 0.89340 -0.05100
N 	N 	0.35891 0.84253 0.68037 -0.25800
N 	N 	0.13871 0.98371 0.92293 -0.15100
N 	N 	0.11397 0.90549 0.66559 -0.22500
C 	C 	0.13899 0.95311 0.92505 0.13400
C 	C 	0.14210 0.91326 0.69332 -0.04800
C 	C 	0.27134 0.89742 0.60548 0.00500
H 	H 	0.24960 0.90240 0.60260 0.03800
C 	C 	0.35008 0.83338 0.71178 0.09800
C 	C 	0.10827 0.92535 0.71855 0.00700
H 	H 	0.10640 0.93160 0.73680 0.03800
C 	C 	0.17995 0.87783 0.79555 0.04000
H 	H 	0.15820 0.88280 0.79260 0.01200
C 	C 	0.07774 0.92776 0.71596 -0.10100
H 	H 	0.05430 0.93630 0.73210 0.06600
C 	C 	0.21115 0.88019 0.76457 -0.04900
C 	C 	0.21001 0.86083 0.83327 0.05200
H 	H 	0.20950 0.85490 0.85690 0.00500
C 	C 	0.07774 0.92992 0.82226 0.10500
C 	C 	0.30418 0.89308 0.57700 -0.09500
H 	H 	0.30550 0.89470 0.55450 0.06300
C 	C 	0.24269 0.86075 0.80459 -0.09100
H 	H 	0.26420 0.85440 0.80860 0.06400
C 	C 	0.14285 0.98011 0.86017 0.00800
H 	H 	0.14640 0.00040 0.85760 0.03800
C 	C 	0.13662 0.94796 0.83620 0.05700
H 	H 	0.13620 0.94640 0.81620 0.00200
C 	C 	0.33495 0.88629 0.58253 0.05600
H 	H 	0.35730 0.88350 0.56310 -0.00000
C 	C 	0.24331 0.87035 0.76943 0.00300
H 	H 	0.26530 0.87010 0.74950 0.04000
C 	C 	0.20921 0.89009 0.72941 0.13300
C 	C 	0.14221 0.97795 0.83083 -0.09800
H 	H 	0.14550 0.99650 0.80790 0.06700
S 	S 	0.08309 0.75525 0.82153 -0.06100
S 	S 	0.18924 0.79688 0.96212 -0.06000
N 	N 	0.07932 0.86822 0.92074 -0.22700
N 	N 	0.17051 0.70127 0.88789 -0.14900
N 	N 	0.22334 0.66528 0.90512 -0.15100
C 	C 	0.19698 0.66956 0.89662 0.13400
N 	N 	0.12317 0.82875 0.86907 -0.22600
N 	N 	0.15643 0.83913 0.90837 -0.26500
C 	C 	0.19718 0.63782 0.89448 -0.04700
C 	C 	0.16922 0.64078 0.88712 0.03500
H 	H 	0.14990 0.66330 0.88450 0.01500
N 	N 	0.19605 0.72765 0.89989 -0.15000
C 	C 	0.28501 0.66735 0.90439 0.03600
H 	H 	0.28690 0.64990 0.89710 0.01300
C 	C 	0.04779 0.89607 0.92341 0.03900
H 	H 	0.04720 0.91880 0.90440 0.01200
N 	N 	0.16792 0.61370 0.88340 -0.22600
C 	C 	0.31114 0.68932 0.91746 0.06400
H 	H 	0.33200 0.68800 0.91900 -0.00100
C 	C 	0.22161 0.69535 0.90629 0.13400
C 	C 	0.01634 0.89340 0.95218 -0.05100
N 	N 	0.11819 0.68037 0.84253 -0.25800
N 	N 	0.95465 0.92293 0.98371 -0.15100
N 	N 	0.31495 0.66559 0.90549 -0.22500
C 	C 	0.98285 0.92505 0.95311 0.13400
C 	C 	0.25132 0.69332 0.91326 -0.04800
C 	C 	0.22576 0.60548 0.89742 0.00500
H 	H 	0.24540 0.60260 0.90240 0.03800
C 	C 	0.10476 0.71178 0.83338 0.09800
C 	C 	0.24783 0.71855 0.92535 0.00700
H 	H 	0.22520 0.73680 0.93160 0.03800
C 	C 	0.14667 0.79555 0.87783 0.04000
H 	H 	0.16640 0.79260 0.88280 0.01200
C 	C 	0.27854 0.71596 0.92776 -0.10100
H 	H 	0.27730 0.73210 0.93630 0.06600
C 	C 	0.14409 0.76457 0.88019 -0.04900
C 	C 	0.09589 0.83327 0.86083 0.05200
H 	H 	0.07870 0.85690 0.85490 0.00500
C 	C 	0.17008 0.82226 0.92992 0.10500
C 	C 	0.22574 0.57700 0.89308 -0.09500
H 	H 	0.24530 0.55450 0.89470 0.06300
C 	C 	0.09197 0.80459 0.86075 -0.09100
H 	H 	0.07280 0.80860 0.85440 0.06400
C 	C 	0.01687 0.86017 0.98011 0.00700
H 	H 	0.99560 0.85760 0.00040 0.03800
C 	C 	0.07922 0.83620 0.94796 0.05700
H 	H 	0.10120 0.81620 0.94640 0.00200
C 	C 	0.19623 0.58253 0.88629 0.05600
H 	H 	0.19610 0.56310 0.88350 -0.00000
C 	C 	0.11691 0.76943 0.87035 0.00300
H 	H 	0.11510 0.74950 0.87010 0.04000
C 	C 	0.17129 0.72941 0.89009 0.13300
C 	C 	0.04901 0.83083 0.97795 -0.09800
H 	H 	0.05010 0.80790 0.99650 0.06700
S 	S 	0.32153 0.25525 0.58309 -0.06100
S 	S 	0.46212 0.29688 0.68924 -0.06000
N 	N 	0.42074 0.36822 0.57932 -0.22700
N 	N 	0.38789 0.20127 0.67051 -0.14900
N 	N 	0.40512 0.16528 0.72334 -0.15100
C 	C 	0.39662 0.16956 0.69698 0.13400
N 	N 	0.36907 0.32875 0.62317 -0.22600
N 	N 	0.40837 0.33913 0.65643 -0.26500
C 	C 	0.39448 0.13782 0.69718 -0.04700
C 	C 	0.38712 0.14078 0.66922 0.03500
H 	H 	0.38450 0.16330 0.64990 0.01500
N 	N 	0.39989 0.22765 0.69605 -0.15000
C 	C 	0.40439 0.16735 0.78501 0.03600
H 	H 	0.39710 0.14990 0.78690 0.01200
C 	C 	0.42341 0.39607 0.54779 0.03900
H 	H 	0.40440 0.41880 0.54720 0.01300
N 	N 	0.38340 0.11370 0.66792 -0.22600
C 	C 	0.41746 0.18932 0.81114 0.06400
H 	H 	0.41900 0.18800 0.83200 -0.00100
C 	C 	0.40629 0.19535 0.72161 0.13400
C 	C 	0.45218 0.39340 0.51634 -0.05100
N 	N 	0.34253 0.18037 0.61819 -0.25800
N 	N 	0.48371 0.42293 0.45465 -0.15100
N 	N 	0.40549 0.16559 0.81495 -0.22500
C 	C 	0.45311 0.42505 0.48285 0.13400
C 	C 	0.41326 0.19332 0.75132 -0.04800
C 	C 	0.39742 0.10548 0.72576 0.00500
H 	H 	0.40240 0.10260 0.74540 0.03800
C 	C 	0.33338 0.21178 0.60476 0.09800
C 	C 	0.42535 0.21855 0.74783 0.00700
H 	H 	0.43160 0.23680 0.72520 0.03800
C 	C 	0.37783 0.29555 0.64667 0.04000
H 	H 	0.38280 0.29260 0.66640 0.01200
C 	C 	0.42776 0.21596 0.77854 -0.10100
H 	H 	0.43630 0.23210 0.77730 0.06600
C 	C 	0.38019 0.26457 0.64409 -0.04900
C 	C 	0.36083 0.33327 0.59589 0.05200
H 	H 	0.35490 0.35690 0.57870 0.00500
C 	C 	0.42992 0.32226 0.67008 0.10500
C 	C 	0.39308 0.07700 0.72574 -0.09500
H 	H 	0.39470 0.05450 0.74530 0.06300
C 	C 	0.36075 0.30459 0.59197 -0.09100
H 	H 	0.35440 0.30860 0.57280 0.06400
C 	C 	0.48011 0.36017 0.51687 0.00700
H 	H 	0.50040 0.35760 0.49560 0.03800
C 	C 	0.44796 0.33620 0.57922 0.05600
H 	H 	0.44640 0.31620 0.60120 0.00200
C 	C 	0.38629 0.08253 0.69623 0.05600
H 	H 	0.38350 0.06310 0.69610 -0.00000
C 	C 	0.37035 0.26943 0.61691 0.00300
H 	H 	0.37010 0.24950 0.61510 0.04000
C 	C 	0.39009 0.22941 0.67129 0.13300
C 	C 	0.47795 0.33083 0.54901 -0.09800
H 	H 	0.49650 0.30790 0.55010 0.06700
S 	S 	0.25525 0.32153 0.84013 -0.06100
S 	S 	0.29688 0.46212 0.55176 -0.06000
N 	N 	0.36822 0.42074 0.63172 -0.22700
N 	N 	0.20127 0.38789 0.74033 -0.14900
N 	N 	0.16528 0.40512 0.70626 -0.15100
C 	C 	0.16956 0.39662 0.73684 0.13400
N 	N 	0.32875 0.36907 0.67901 -0.22600
N 	N 	0.33913 0.40837 0.59607 -0.26500
C 	C 	0.13782 0.39448 0.77052 -0.04700
C 	C 	0.14078 0.38712 0.80288 0.03500
H 	H 	0.16330 0.38450 0.80230 0.01500
N 	N 	0.22765 0.39989 0.67641 -0.15000
C 	C 	0.16735 0.40439 0.64325 0.03600
H 	H 	0.14990 0.39710 0.66610 0.01200
C 	C 	0.39607 0.42341 0.63273 0.03900
H 	H 	0.41880 0.40440 0.62960 0.01300
N 	N 	0.11370 0.38340 0.83498 -0.22600
C 	C 	0.18932 0.41746 0.58208 0.06400
H 	H 	0.18800 0.41900 0.56100 -0.00100
C 	C 	0.19535 0.40629 0.67675 0.13400
C 	C 	0.39340 0.45218 0.63808 -0.05100
N 	N 	0.18037 0.34253 0.85891 -0.25800
N 	N 	0.42293 0.48371 0.63871 -0.15100
N 	N 	0.16559 0.40549 0.61397 -0.22500
C 	C 	0.42505 0.45311 0.63899 0.13400
C 	C 	0.19332 0.41326 0.64210 -0.04800
C 	C 	0.10548 0.39742 0.77134 0.00500
H 	H 	0.10260 0.40240 0.74960 0.03800
C 	C 	0.21178 0.33338 0.85008 0.09800
C 	C 	0.21855 0.42535 0.60827 0.00700
H 	H 	0.23680 0.43160 0.60640 0.03800
C 	C 	0.29555 0.37783 0.67995 0.04000
H 	H 	0.29260 0.38280 0.65820 0.01200
C 	C 	0.21596 0.42776 0.57774 -0.10100
H 	H 	0.23210 0.43630 0.55430 0.06600
C 	C 	0.26457 0.38019 0.71115 -0.04900
C 	C 	0.33327 0.36083 0.71001 0.05200
H 	H 	0.35690 0.35490 0.70950 0.00500
C 	C 	0.32226 0.42992 0.57774 0.10500
C 	C 	0.07700 0.39308 0.80418 -0.09500
H 	H 	0.05450 0.39470 0.80550 0.06300
C 	C 	0.30459 0.36075 0.74269 -0.09100
H 	H 	0.30860 0.35440 0.76420 0.06400
C 	C 	0.36017 0.48011 0.64285 0.00700
H 	H 	0.35760 0.50040 0.64640 0.03800
C 	C 	0.33620 0.44796 0.63662 0.05600
H 	H 	0.31620 0.44640 0.63620 0.00200
C 	C 	0.08253 0.38629 0.83495 0.05600
H 	H 	0.06310 0.38350 0.85730 -0.00000
C 	C 	0.26943 0.37035 0.74331 0.00300
H 	H 	0.24950 0.37010 0.76530 0.04000
C 	C 	0.22941 0.39009 0.70921 0.13300
C 	C 	0.33083 0.47795 0.64221 -0.09800
H 	H 	0.30790 0.49650 0.64550 0.06700
S 	S 	0.58309 0.84013 0.32153 -0.06100
S 	S 	0.68924 0.55176 0.46212 -0.06000
N 	N 	0.57932 0.63172 0.42074 -0.22700
N 	N 	0.67051 0.74033 0.38789 -0.14900
N 	N 	0.72334 0.70626 0.40512 -0.15100
C 	C 	0.69698 0.73684 0.39662 0.13400
N 	N 	0.62317 0.67901 0.36907 -0.22600
N 	N 	0.65643 0.59607 0.40837 -0.26500
C 	C 	0.69718 0.77052 0.39448 -0.04700
C 	C 	0.66922 0.80288 0.38712 0.03500
H 	H 	0.64990 0.80230 0.38450 0.01500
N 	N 	0.69605 0.67641 0.39989 -0.15000
C 	C 	0.78501 0.64325 0.40439 0.03600
H 	H 	0.78690 0.66610 0.39710 0.01200
C 	C 	0.54779 0.63273 0.42341 0.03900
H 	H 	0.54720 0.62960 0.40440 0.01300
N 	N 	0.66792 0.83498 0.38340 -0.22600
C 	C 	0.81114 0.58208 0.41746 0.06400
H 	H 	0.83200 0.56100 0.41900 -0.00100
C 	C 	0.72161 0.67675 0.40629 0.13400
C 	C 	0.51634 0.63808 0.45218 -0.05100
N 	N 	0.61819 0.85891 0.34253 -0.25800
N 	N 	0.45465 0.63871 0.48371 -0.15100
N 	N 	0.81495 0.61397 0.40549 -0.22500
C 	C 	0.48285 0.63899 0.45311 0.13400
C 	C 	0.75132 0.64210 0.41326 -0.04800
C 	C 	0.72576 0.77134 0.39742 0.00500
H 	H 	0.74540 0.74960 0.40240 0.03800
C 	C 	0.60476 0.85008 0.33338 0.09800
C 	C 	0.74783 0.60827 0.42535 0.00700
H 	H 	0.72520 0.60640 0.43160 0.03800
C 	C 	0.64667 0.67995 0.37783 0.04000
H 	H 	0.66640 0.65820 0.38280 0.01200
C 	C 	0.77854 0.57774 0.42776 -0.10100
H 	H 	0.77730 0.55430 0.43630 0.06600
C 	C 	0.64409 0.71115 0.38019 -0.04900
C 	C 	0.59589 0.71001 0.36083 0.05200
H 	H 	0.57870 0.70950 0.35490 0.00500
C 	C 	0.67008 0.57774 0.42992 0.10500
C 	C 	0.72574 0.80418 0.39308 -0.09500
H 	H 	0.74530 0.80550 0.39470 0.06300
C 	C 	0.59197 0.74269 0.36075 -0.09100
H 	H 	0.57280 0.76420 0.35440 0.06400
C 	C 	0.51687 0.64285 0.48011 0.00700
H 	H 	0.49560 0.64640 0.50040 0.03800
C 	C 	0.57922 0.63662 0.44796 0.05600
H 	H 	0.60120 0.63620 0.44640 0.00200
C 	C 	0.69623 0.83495 0.38629 0.05600
H 	H 	0.69610 0.85730 0.38350 -0.00000
C 	C 	0.61691 0.74331 0.37035 0.00300
H 	H 	0.61510 0.76530 0.37010 0.04000
C 	C 	0.67129 0.70921 0.39009 0.13300
C 	C 	0.54901 0.64221 0.47795 -0.09800
H 	H 	0.55010 0.64550 0.49650 0.06700
S 	S 	0.84013 0.58309 0.25525 -0.06100
S 	S 	0.55176 0.68924 0.29688 -0.06000
N 	N 	0.63172 0.57932 0.36822 -0.22700
N 	N 	0.74033 0.67051 0.20127 -0.14900
N 	N 	0.70626 0.72334 0.16528 -0.15100
C 	C 	0.73684 0.69698 0.16956 0.13400
N 	N 	0.67901 0.62317 0.32875 -0.22600
N 	N 	0.59607 0.65643 0.33913 -0.26500
C 	C 	0.77052 0.69718 0.13782 -0.04700
C 	C 	0.80288 0.66922 0.14078 0.03500
H 	H 	0.80230 0.64990 0.16330 0.01500
N 	N 	0.67641 0.69605 0.22765 -0.15000
C 	C 	0.64325 0.78501 0.16735 0.03600
H 	H 	0.66610 0.78690 0.14990 0.01200
C 	C 	0.63273 0.54779 0.39607 0.03900
H 	H 	0.62960 0.54720 0.41880 0.01300
N 	N 	0.83498 0.66792 0.11370 -0.22600
C 	C 	0.58208 0.81114 0.18932 0.06400
H 	H 	0.56100 0.83200 0.18800 -0.00100
C 	C 	0.67675 0.72161 0.19535 0.13400
C 	C 	0.63808 0.51634 0.39340 -0.05100
N 	N 	0.85891 0.61819 0.18037 -0.25800
N 	N 	0.63871 0.45465 0.42293 -0.15100
N 	N 	0.61397 0.81495 0.16559 -0.22500
C 	C 	0.63899 0.48285 0.42505 0.13400
C 	C 	0.64210 0.75132 0.19332 -0.04800
C 	C 	0.77134 0.72576 0.10548 0.00500
H 	H 	0.74960 0.74540 0.10260 0.03800
C 	C 	0.85008 0.60476 0.21178 0.09800
C 	C 	0.60827 0.74783 0.21855 0.00700
H 	H 	0.60640 0.72520 0.23680 0.03800
C 	C 	0.67995 0.64667 0.29555 0.04000
H 	H 	0.65820 0.66640 0.29260 0.01200
C 	C 	0.57774 0.77854 0.21596 -0.10100
H 	H 	0.55430 0.77730 0.23210 0.06600
C 	C 	0.71115 0.64409 0.26457 -0.04900
C 	C 	0.71001 0.59589 0.33327 0.05200
H 	H 	0.70950 0.57870 0.35690 0.00500
C 	C 	0.57774 0.67008 0.32226 0.10500
C 	C 	0.80418 0.72574 0.07700 -0.09500
H 	H 	0.80550 0.74530 0.05450 0.06300
C 	C 	0.74269 0.59197 0.30459 -0.09100
H 	H 	0.76420 0.57280 0.30860 0.06400
C 	C 	0.64285 0.51687 0.36017 0.00700
H 	H 	0.64640 0.49560 0.35760 0.03800
C 	C 	0.63662 0.57922 0.33620 0.05600
H 	H 	0.63620 0.60120 0.31620 0.00200
C 	C 	0.83495 0.69623 0.08253 0.05600
H 	H 	0.85730 0.69610 0.06310 -0.00000
C 	C 	0.74331 0.61691 0.26943 0.00300
H 	H 	0.76530 0.61510 0.24950 0.04000
C 	C 	0.70921 0.67129 0.22941 0.13300
C 	C 	0.64221 0.54901 0.33083 -0.09800
H 	H 	0.64550 0.55010 0.30790 0.06700
S 	S 	0.58309 0.32153 0.25525 -0.06100
S 	S 	0.68924 0.46212 0.29688 -0.06000
N 	N 	0.57932 0.42074 0.36822 -0.22700
N 	N 	0.67051 0.38789 0.20127 -0.14900
N 	N 	0.72334 0.40512 0.16528 -0.15100
C 	C 	0.69698 0.39662 0.16956 0.13400
N 	N 	0.62317 0.36907 0.32875 -0.22600
N 	N 	0.65643 0.40837 0.33913 -0.26500
C 	C 	0.69718 0.39448 0.13782 -0.04700
C 	C 	0.66922 0.38712 0.14078 0.03500
H 	H 	0.64990 0.38450 0.16330 0.01500
N 	N 	0.69605 0.39989 0.22765 -0.15000
C 	C 	0.78501 0.40439 0.16735 0.03600
H 	H 	0.78690 0.39710 0.14990 0.01200
C 	C 	0.54779 0.42341 0.39607 0.03900
H 	H 	0.54720 0.40440 0.41880 0.01300
N 	N 	0.66792 0.38340 0.11370 -0.22600
C 	C 	0.81114 0.41746 0.18932 0.06400
H 	H 	0.83200 0.41900 0.18800 -0.00100
C 	C 	0.72161 0.40629 0.19535 0.13400
C 	C 	0.51634 0.45218 0.39340 -0.05100
N 	N 	0.61819 0.34253 0.18037 -0.25800
N 	N 	0.45465 0.48371 0.42293 -0.15100
N 	N 	0.81495 0.40549 0.16559 -0.22500
C 	C 	0.48285 0.45311 0.42505 0.13400
C 	C 	0.75132 0.41326 0.19332 -0.04800
C 	C 	0.72576 0.39742 0.10548 0.00500
H 	H 	0.74540 0.40240 0.10260 0.03800
C 	C 	0.60476 0.33338 0.21178 0.09800
C 	C 	0.74783 0.42535 0.21855 0.00700
H 	H 	0.72520 0.43160 0.23680 0.03800
C 	C 	0.64667 0.37783 0.29555 0.04000
H 	H 	0.66640 0.38280 0.29260 0.01200
C 	C 	0.77854 0.42776 0.21596 -0.10100
H 	H 	0.77730 0.43630 0.23210 0.06600
C 	C 	0.64409 0.38019 0.26457 -0.04900
C 	C 	0.59589 0.36083 0.33327 0.05200
H 	H 	0.57870 0.35490 0.35690 0.00500
C 	C 	0.67008 0.42992 0.32226 0.10500
C 	C 	0.72574 0.39308 0.07700 -0.09500
H 	H 	0.74530 0.39470 0.05450 0.06300
C 	C 	0.59197 0.36075 0.30459 -0.09100
H 	H 	0.57280 0.35440 0.30860 0.06400
C 	C 	0.51687 0.48011 0.36017 0.00700
H 	H 	0.49560 0.50040 0.35760 0.03800
C 	C 	0.57922 0.44796 0.33620 0.05600
H 	H 	0.60120 0.44640 0.31620 0.00200
C 	C 	0.69623 0.38629 0.08253 0.05600
H 	H 	0.69610 0.38350 0.06310 -0.00000
C 	C 	0.61691 0.37035 0.26943 0.00300
H 	H 	0.61510 0.37010 0.24950 0.04000
C 	C 	0.67129 0.39009 0.22941 0.13300
C 	C 	0.54901 0.47795 0.33083 -0.09800
H 	H 	0.55010 0.49650 0.30790 0.06700
S 	S 	0.84013 0.25525 0.32153 -0.06100
S 	S 	0.55176 0.29688 0.46212 -0.06000
N 	N 	0.63172 0.36822 0.42074 -0.22700
N 	N 	0.74033 0.20127 0.38789 -0.14900
N 	N 	0.70626 0.16528 0.40512 -0.15100
C 	C 	0.73684 0.16956 0.39662 0.13400
N 	N 	0.67901 0.32875 0.36907 -0.22600
N 	N 	0.59607 0.33913 0.40837 -0.26500
C 	C 	0.77052 0.13782 0.39448 -0.04700
C 	C 	0.80288 0.14078 0.38712 0.03500
H 	H 	0.80230 0.16330 0.38450 0.01500
N 	N 	0.67641 0.22765 0.39989 -0.15000
C 	C 	0.64325 0.16735 0.40439 0.03600
H 	H 	0.66610 0.14990 0.39710 0.01200
C 	C 	0.63273 0.39607 0.42341 0.03900
H 	H 	0.62960 0.41880 0.40440 0.01300
N 	N 	0.83498 0.11370 0.38340 -0.22600
C 	C 	0.58208 0.18932 0.41746 0.06400
H 	H 	0.56100 0.18800 0.41900 -0.00100
C 	C 	0.67675 0.19535 0.40629 0.13400
C 	C 	0.63808 0.39340 0.45218 -0.05100
N 	N 	0.85891 0.18037 0.34253 -0.25800
N 	N 	0.63871 0.42293 0.48371 -0.15100
N 	N 	0.61397 0.16559 0.40549 -0.22500
C 	C 	0.63899 0.42505 0.45311 0.13400
C 	C 	0.64210 0.19332 0.41326 -0.04800
C 	C 	0.77134 0.10548 0.39742 0.00500
H 	H 	0.74960 0.10260 0.40240 0.03800
C 	C 	0.85008 0.21178 0.33338 0.09800
C 	C 	0.60827 0.21855 0.42535 0.00700
H 	H 	0.60640 0.23680 0.43160 0.03800
C 	C 	0.67995 0.29555 0.37783 0.04000
H 	H 	0.65820 0.29260 0.38280 0.01200
C 	C 	0.57774 0.21596 0.42776 -0.10100
H 	H 	0.55430 0.23210 0.43630 0.06600
C 	C 	0.71115 0.26457 0.38019 -0.04900
C 	C 	0.71001 0.33327 0.36083 0.05200
H 	H 	0.70950 0.35690 0.35490 0.00500
C 	C 	0.57774 0.32226 0.42992 0.10500
C 	C 	0.80418 0.07700 0.39308 -0.09500
H 	H 	0.80550 0.05450 0.39470 0.06300
C 	C 	0.74269 0.30459 0.36075 -0.09100
H 	H 	0.76420 0.30860 0.35440 0.06400
C 	C 	0.64285 0.36017 0.48011 0.00700
H 	H 	0.64640 0.35760 0.50040 0.03800
C 	C 	0.63662 0.33620 0.44796 0.05600
H 	H 	0.63620 0.31620 0.44640 0.00200
C 	C 	0.83495 0.08253 0.38629 0.05600
H 	H 	0.85730 0.06310 0.38350 -0.00000
C 	C 	0.74331 0.26943 0.37035 0.00300
H 	H 	0.76530 0.24950 0.37010 0.04000
C 	C 	0.70921 0.22941 0.39009 0.13300
C 	C 	0.64221 0.33083 0.47795 -0.09800
H 	H 	0.64550 0.30790 0.49650 0.06700
S 	S 	0.32153 0.58309 0.84013 -0.06100
S 	S 	0.46212 0.68924 0.55176 -0.06000
N 	N 	0.42074 0.57932 0.63172 -0.22700
N 	N 	0.38789 0.67051 0.74033 -0.14900
N 	N 	0.40512 0.72334 0.70626 -0.15100
C 	C 	0.39662 0.69698 0.73684 0.13400
N 	N 	0.36907 0.62317 0.67901 -0.22600
N 	N 	0.40837 0.65643 0.59607 -0.26500
C 	C 	0.39448 0.69718 0.77052 -0.04700
C 	C 	0.38712 0.66922 0.80288 0.03500
H 	H 	0.38450 0.64990 0.80230 0.01500
N 	N 	0.39989 0.69605 0.67641 -0.15000
C 	C 	0.40439 0.78501 0.64325 0.03600
H 	H 	0.39710 0.78690 0.66610 0.01200
C 	C 	0.42341 0.54779 0.63273 0.03900
H 	H 	0.40440 0.54720 0.62960 0.01300
N 	N 	0.38340 0.66792 0.83498 -0.22600
C 	C 	0.41746 0.81114 0.58208 0.06400
H 	H 	0.41900 0.83200 0.56100 -0.00100
C 	C 	0.40629 0.72161 0.67675 0.13400
C 	C 	0.45218 0.51634 0.63808 -0.05100
N 	N 	0.34253 0.61819 0.85891 -0.25800
N 	N 	0.48371 0.45465 0.63871 -0.15100
N 	N 	0.40549 0.81495 0.61397 -0.22500
C 	C 	0.45311 0.48285 0.63899 0.13400
C 	C 	0.41326 0.75132 0.64210 -0.04800
C 	C 	0.39742 0.72576 0.77134 0.00500
H 	H 	0.40240 0.74540 0.74960 0.03800
C 	C 	0.33338 0.60476 0.85008 0.09800
C 	C 	0.42535 0.74783 0.60827 0.00700
H 	H 	0.43160 0.72520 0.60640 0.03800
C 	C 	0.37783 0.64667 0.67995 0.04000
H 	H 	0.38280 0.66640 0.65820 0.01200
C 	C 	0.42776 0.77854 0.57774 -0.10100
H 	H 	0.43630 0.77730 0.55430 0.06600
C 	C 	0.38019 0.64409 0.71115 -0.04900
C 	C 	0.36083 0.59589 0.71001 0.05200
H 	H 	0.35490 0.57870 0.70950 0.00500
C 	C 	0.42992 0.67008 0.57774 0.10500
C 	C 	0.39308 0.72574 0.80418 -0.09500
H 	H 	0.39470 0.74530 0.80550 0.06300
C 	C 	0.36075 0.59197 0.74269 -0.09100
H 	H 	0.35440 0.57280 0.76420 0.06400
C 	C 	0.48011 0.51687 0.64285 0.00700
H 	H 	0.50040 0.49560 0.64640 0.03800
C 	C 	0.44796 0.57922 0.63662 0.05600
H 	H 	0.44640 0.60120 0.63620 0.00200
C 	C 	0.38629 0.69623 0.83495 0.05600
H 	H 	0.38350 0.69610 0.85730 -0.00000
C 	C 	0.37035 0.61691 0.74331 0.00300
H 	H 	0.37010 0.61510 0.76530 0.04000
C 	C 	0.39009 0.67129 0.70921 0.13300
C 	C 	0.47795 0.54901 0.64221 -0.09800
H 	H 	0.49650 0.55010 0.64550 0.06700
S 	S 	0.25525 0.84013 0.58309 -0.06100
S 	S 	0.29688 0.55176 0.68924 -0.06000
N 	N 	0.36822 0.63172 0.57932 -0.22700
N 	N 	0.20127 0.74033 0.67051 -0.14900
N 	N 	0.16528 0.70626 0.72334 -0.15100
C 	C 	0.16956 0.73684 0.69698 0.13400
N 	N 	0.32875 0.67901 0.62317 -0.22600
N 	N 	0.33913 0.59607 0.65643 -0.26500
C 	C 	0.13782 0.77052 0.69718 -0.04700
C 	C 	0.14078 0.80288 0.66922 0.03500
H 	H 	0.16330 0.80230 0.64990 0.01500
N 	N 	0.22765 0.67641 0.69605 -0.15000
C 	C 	0.16735 0.64325 0.78501 0.03600
H 	H 	0.14990 0.66610 0.78690 0.01200
C 	C 	0.39607 0.63273 0.54779 0.03900
H 	H 	0.41880 0.62960 0.54720 0.01300
N 	N 	0.11370 0.83498 0.66792 -0.22600
C 	C 	0.18932 0.58208 0.81114 0.06400
H 	H 	0.18800 0.56100 0.83200 -0.00100
C 	C 	0.19535 0.67675 0.72161 0.13400
C 	C 	0.39340 0.63808 0.51634 -0.05100
N 	N 	0.18037 0.85891 0.61819 -0.25800
N 	N 	0.42293 0.63871 0.45465 -0.15100
N 	N 	0.16559 0.61397 0.81495 -0.22500
C 	C 	0.42505 0.63899 0.48285 0.13400
C 	C 	0.19332 0.64210 0.75132 -0.04800
C 	C 	0.10548 0.77134 0.72576 0.00500
H 	H 	0.10260 0.74960 0.74540 0.03800
C 	C 	0.21178 0.85008 0.60476 0.09800
C 	C 	0.21855 0.60827 0.74783 0.00700
H 	H 	0.23680 0.60640 0.72520 0.03800
C 	C 	0.29555 0.67995 0.64667 0.04000
H 	H 	0.29260 0.65820 0.66640 0.01200
C 	C 	0.21596 0.57774 0.77854 -0.10100
H 	H 	0.23210 0.55430 0.77730 0.06600
C 	C 	0.26457 0.71115 0.64409 -0.04900
C 	C 	0.33327 0.71001 0.59589 0.05200
H 	H 	0.35690 0.70950 0.57870 0.00500
C 	C 	0.32226 0.57774 0.67008 0.10500
C 	C 	0.07700 0.80418 0.72574 -0.09500
H 	H 	0.05450 0.80550 0.74530 0.06300
C 	C 	0.30459 0.74269 0.59197 -0.09100
H 	H 	0.30860 0.76420 0.57280 0.06400
C 	C 	0.36017 0.64285 0.51687 0.00700
H 	H 	0.35760 0.64640 0.49560 0.03800
C 	C 	0.33620 0.63662 0.57922 0.05600
H 	H 	0.31620 0.63620 0.60120 0.00200
C 	C 	0.08253 0.83495 0.69623 0.05600
H 	H 	0.06310 0.85730 0.69610 -0.00000
C 	C 	0.26943 0.74331 0.61691 0.00300
H 	H 	0.24950 0.76530 0.61510 0.04000
C 	C 	0.22941 0.70921 0.67129 0.13300
C 	C 	0.33083 0.64221 0.54901 -0.09800
H 	H 	0.30790 0.64550 0.55010 0.06700
S 	S 	0.25525 0.58309 0.32153 -0.06100
S 	S 	0.29688 0.68924 0.46212 -0.06000
N 	N 	0.36822 0.57932 0.42074 -0.22700
N 	N 	0.20127 0.67051 0.38789 -0.14900
N 	N 	0.16528 0.72334 0.40512 -0.15100
C 	C 	0.16956 0.69698 0.39662 0.13400
N 	N 	0.32875 0.62317 0.36907 -0.22600
N 	N 	0.33913 0.65643 0.40837 -0.26500
C 	C 	0.13782 0.69718 0.39448 -0.04700
C 	C 	0.14078 0.66922 0.38712 0.03500
H 	H 	0.16330 0.64990 0.38450 0.01500
N 	N 	0.22765 0.69605 0.39989 -0.15000
C 	C 	0.16735 0.78501 0.40439 0.03600
H 	H 	0.14990 0.78690 0.39710 0.01200
C 	C 	0.39607 0.54779 0.42341 0.03900
H 	H 	0.41880 0.54720 0.40440 0.01300
N 	N 	0.11370 0.66792 0.38340 -0.22600
C 	C 	0.18932 0.81114 0.41746 0.06400
H 	H 	0.18800 0.83200 0.41900 -0.00100
C 	C 	0.19535 0.72161 0.40629 0.13400
C 	C 	0.39340 0.51634 0.45218 -0.05100
N 	N 	0.18037 0.61819 0.34253 -0.25800
N 	N 	0.42293 0.45465 0.48371 -0.15100
N 	N 	0.16559 0.81495 0.40549 -0.22500
C 	C 	0.42505 0.48285 0.45311 0.13400
C 	C 	0.19332 0.75132 0.41326 -0.04800
C 	C 	0.10548 0.72576 0.39742 0.00500
H 	H 	0.10260 0.74540 0.40240 0.03800
C 	C 	0.21178 0.60476 0.33338 0.09800
C 	C 	0.21855 0.74783 0.42535 0.00700
H 	H 	0.23680 0.72520 0.43160 0.03800
C 	C 	0.29555 0.64667 0.37783 0.04000
H 	H 	0.29260 0.66640 0.38280 0.01200
C 	C 	0.21596 0.77854 0.42776 -0.10100
H 	H 	0.23210 0.77730 0.43630 0.06600
C 	C 	0.26457 0.64409 0.38019 -0.04900
C 	C 	0.33327 0.59589 0.36083 0.05200
H 	H 	0.35690 0.57870 0.35490 0.00500
C 	C 	0.32226 0.67008 0.42992 0.10500
C 	C 	0.07700 0.72574 0.39308 -0.09500
H 	H 	0.05450 0.74530 0.39470 0.06300
C 	C 	0.30459 0.59197 0.36075 -0.09100
H 	H 	0.30860 0.57280 0.35440 0.06400
C 	C 	0.36017 0.51687 0.48011 0.00700
H 	H 	0.35760 0.49560 0.50040 0.03800
C 	C 	0.33620 0.57922 0.44796 0.05600
H 	H 	0.31620 0.60120 0.44640 0.00200
C 	C 	0.08253 0.69623 0.38629 0.05600
H 	H 	0.06310 0.69610 0.38350 -0.00000
C 	C 	0.26943 0.61691 0.37035 0.00300
H 	H 	0.24950 0.61510 0.37010 0.04000
C 	C 	0.22941 0.67129 0.39009 0.13300
C 	C 	0.33083 0.54901 0.47795 -0.09800
H 	H 	0.30790 0.55010 0.49650 0.06700
S 	S 	0.32153 0.84013 0.25525 -0.06100
S 	S 	0.46212 0.55176 0.29688 -0.06000
N 	N 	0.42074 0.63172 0.36822 -0.22700
N 	N 	0.38789 0.74033 0.20127 -0.14900
N 	N 	0.40512 0.70626 0.16528 -0.15100
C 	C 	0.39662 0.73684 0.16956 0.13400
N 	N 	0.36907 0.67901 0.32875 -0.22600
N 	N 	0.40837 0.59607 0.33913 -0.26500
C 	C 	0.39448 0.77052 0.13782 -0.04700
C 	C 	0.38712 0.80288 0.14078 0.03500
H 	H 	0.38450 0.80230 0.16330 0.01500
N 	N 	0.39989 0.67641 0.22765 -0.15000
C 	C 	0.40439 0.64325 0.16735 0.03600
H 	H 	0.39710 0.66610 0.14990 0.01200
C 	C 	0.42341 0.63273 0.39607 0.03900
H 	H 	0.40440 0.62960 0.41880 0.01300
N 	N 	0.38340 0.83498 0.11370 -0.22600
C 	C 	0.41746 0.58208 0.18932 0.06400
H 	H 	0.41900 0.56100 0.18800 -0.00100
C 	C 	0.40629 0.67675 0.19535 0.13400
C 	C 	0.45218 0.63808 0.39340 -0.05100
N 	N 	0.34253 0.85891 0.18037 -0.25800
N 	N 	0.48371 0.63871 0.42293 -0.15100
N 	N 	0.40549 0.61397 0.16559 -0.22500
C 	C 	0.45311 0.63899 0.42505 0.13400
C 	C 	0.41326 0.64210 0.19332 -0.04800
C 	C 	0.39742 0.77134 0.10548 0.00500
H 	H 	0.40240 0.74960 0.10260 0.03800
C 	C 	0.33338 0.85008 0.21178 0.09800
C 	C 	0.42535 0.60827 0.21855 0.00700
H 	H 	0.43160 0.60640 0.23680 0.03800
C 	C 	0.37783 0.67995 0.29555 0.04000
H 	H 	0.38280 0.65820 0.29260 0.01200
C 	C 	0.42776 0.57774 0.21596 -0.10100
H 	H 	0.43630 0.55430 0.23210 0.06600
C 	C 	0.38019 0.71115 0.26457 -0.04900
C 	C 	0.36083 0.71001 0.33327 0.05200
H 	H 	0.35490 0.70950 0.35690 0.00500
C 	C 	0.42992 0.57774 0.32226 0.10500
C 	C 	0.39308 0.80418 0.07700 -0.09500
H 	H 	0.39470 0.80550 0.05450 0.06300
C 	C 	0.36075 0.74269 0.30459 -0.09100
H 	H 	0.35440 0.76420 0.30860 0.06400
C 	C 	0.48011 0.64285 0.36017 0.00700
H 	H 	0.50040 0.64640 0.35760 0.03800
C 	C 	0.44796 0.63662 0.33620 0.05600
H 	H 	0.44640 0.63620 0.31620 0.00200
C 	C 	0.38629 0.83495 0.08253 0.05600
H 	H 	0.38350 0.85730 0.06310 -0.00000
C 	C 	0.37035 0.74331 0.26943 0.00300
H 	H 	0.37010 0.76530 0.24950 0.04000
C 	C 	0.39009 0.70921 0.22941 0.13300
C 	C 	0.47795 0.64221 0.33083 -0.09800
H 	H 	0.49650 0.64550 0.30790 0.06700
S 	S 	0.84013 0.32153 0.58309 -0.06100
S 	S 	0.55176 0.46212 0.68924 -0.06000
N 	N 	0.63172 0.42074 0.57932 -0.22700
N 	N 	0.74033 0.38789 0.67051 -0.14900
N 	N 	0.70626 0.40512 0.72334 -0.15100
C 	C 	0.73684 0.39662 0.69698 0.13400
N 	N 	0.67901 0.36907 0.62317 -0.22600
N 	N 	0.59607 0.40837 0.65643 -0.26500
C 	C 	0.77052 0.39448 0.69718 -0.04700
C 	C 	0.80288 0.38712 0.66922 0.03500
H 	H 	0.80230 0.38450 0.64990 0.01500
N 	N 	0.67641 0.39989 0.69605 -0.15000
C 	C 	0.64325 0.40439 0.78501 0.03600
H 	H 	0.66610 0.39710 0.78690 0.01200
C 	C 	0.63273 0.42341 0.54779 0.03900
H 	H 	0.62960 0.40440 0.54720 0.01300
N 	N 	0.83498 0.38340 0.66792 -0.22600
C 	C 	0.58208 0.41746 0.81114 0.06400
H 	H 	0.56100 0.41900 0.83200 -0.00100
C 	C 	0.67675 0.40629 0.72161 0.13400
C 	C 	0.63808 0.45218 0.51634 -0.05100
N 	N 	0.85891 0.34253 0.61819 -0.25800
N 	N 	0.63871 0.48371 0.45465 -0.15100
N 	N 	0.61397 0.40549 0.81495 -0.22500
C 	C 	0.63899 0.45311 0.48285 0.13400
C 	C 	0.64210 0.41326 0.75132 -0.04800
C 	C 	0.77134 0.39742 0.72576 0.00500
H 	H 	0.74960 0.40240 0.74540 0.03800
C 	C 	0.85008 0.33338 0.60476 0.09800
C 	C 	0.60827 0.42535 0.74783 0.00700
H 	H 	0.60640 0.43160 0.72520 0.03800
C 	C 	0.67995 0.37783 0.64667 0.04000
H 	H 	0.65820 0.38280 0.66640 0.01200
C 	C 	0.57774 0.42776 0.77854 -0.10100
H 	H 	0.55430 0.43630 0.77730 0.06600
C 	C 	0.71115 0.38019 0.64409 -0.04900
C 	C 	0.71001 0.36083 0.59589 0.05200
H 	H 	0.70950 0.35490 0.57870 0.00500
C 	C 	0.57774 0.42992 0.67008 0.10500
C 	C 	0.80418 0.39308 0.72574 -0.09500
H 	H 	0.80550 0.39470 0.74530 0.06300
C 	C 	0.74269 0.36075 0.59197 -0.09100
H 	H 	0.76420 0.35440 0.57280 0.06400
C 	C 	0.64285 0.48011 0.51687 0.00700
H 	H 	0.64640 0.50040 0.49560 0.03800
C 	C 	0.63662 0.44796 0.57922 0.05600
H 	H 	0.63620 0.44640 0.60120 0.00200
C 	C 	0.83495 0.38629 0.69623 0.05600
H 	H 	0.85730 0.38350 0.69610 -0.00000
C 	C 	0.74331 0.37035 0.61691 0.00300
H 	H 	0.76530 0.37010 0.61510 0.04000
C 	C 	0.70921 0.39009 0.67129 0.13300
C 	C 	0.64221 0.47795 0.54901 -0.09800
H 	H 	0.64550 0.49650 0.55010 0.06700
S 	S 	0.58309 0.25525 0.84013 -0.06100
S 	S 	0.68924 0.29688 0.55176 -0.06000
N 	N 	0.57932 0.36822 0.63172 -0.22700
N 	N 	0.67051 0.20127 0.74033 -0.14900
N 	N 	0.72334 0.16528 0.70626 -0.15100
C 	C 	0.69698 0.16956 0.73684 0.13400
N 	N 	0.62317 0.32875 0.67901 -0.22600
N 	N 	0.65643 0.33913 0.59607 -0.26500
C 	C 	0.69718 0.13782 0.77052 -0.04700
C 	C 	0.66922 0.14078 0.80288 0.03500
H 	H 	0.64990 0.16330 0.80230 0.01500
N 	N 	0.69605 0.22765 0.67641 -0.15000
C 	C 	0.78501 0.16735 0.64325 0.03600
H 	H 	0.78690 0.14990 0.66610 0.01200
C 	C 	0.54779 0.39607 0.63273 0.03900
H 	H 	0.54720 0.41880 0.62960 0.01300
N 	N 	0.66792 0.11370 0.83498 -0.22600
C 	C 	0.81114 0.18932 0.58208 0.06400
H 	H 	0.83200 0.18800 0.56100 -0.00100
C 	C 	0.72161 0.19535 0.67675 0.13400
C 	C 	0.51634 0.39340 0.63808 -0.05100
N 	N 	0.61819 0.18037 0.85891 -0.25800
N 	N 	0.45465 0.42293 0.63871 -0.15100
N 	N 	0.81495 0.16559 0.61397 -0.22500
C 	C 	0.48285 0.42505 0.63899 0.13400
C 	C 	0.75132 0.19332 0.64210 -0.04800
C 	C 	0.72576 0.10548 0.77134 0.00500
H 	H 	0.74540 0.10260 0.74960 0.03800
C 	C 	0.60476 0.21178 0.85008 0.09800
C 	C 	0.74783 0.21855 0.60827 0.00700
H 	H 	0.72520 0.23680 0.60640 0.03800
C 	C 	0.64667 0.29555 0.67995 0.04000
H 	H 	0.66640 0.29260 0.65820 0.01200
C 	C 	0.77854 0.21596 0.57774 -0.10100
H 	H 	0.77730 0.23210 0.55430 0.06600
C 	C 	0.64409 0.26457 0.71115 -0.04900
C 	C 	0.59589 0.33327 0.71001 0.05200
H 	H 	0.57870 0.35690 0.70950 0.00500
C 	C 	0.67008 0.32226 0.57774 0.10500
C 	C 	0.72574 0.07700 0.80418 -0.09500
H 	H 	0.74530 0.05450 0.80550 0.06300
C 	C 	0.59197 0.30459 0.74269 -0.09100
H 	H 	0.57280 0.30860 0.76420 0.06400
C 	C 	0.51687 0.36017 0.64285 0.00700
H 	H 	0.49560 0.35760 0.64640 0.03800
C 	C 	0.57922 0.33620 0.63662 0.05600
H 	H 	0.60120 0.31620 0.63620 0.00200
C 	C 	0.69623 0.08253 0.83495 0.05600
H 	H 	0.69610 0.06310 0.85730 -0.00000
C 	C 	0.61691 0.26943 0.74331 0.00300
H 	H 	0.61510 0.24950 0.76530 0.04000
C 	C 	0.67129 0.22941 0.70921 0.13300
C 	C 	0.54901 0.33083 0.64221 -0.09800
H 	H 	0.55010 0.30790 0.64550 0.06700
S 	S 	0.92847 0.99475 0.40987 -0.06000
S 	S 	0.78788 0.95312 0.69824 -0.06000
N 	N 	0.82926 0.88178 0.61828 -0.22700
N 	N 	0.86211 0.04873 0.50967 -0.14900
N 	N 	0.84488 0.08472 0.54374 -0.15100
C 	C 	0.85338 0.08044 0.51316 0.13400
N 	N 	0.88093 0.92125 0.57099 -0.22600
N 	N 	0.84163 0.91087 0.65393 -0.26500
C 	C 	0.85552 0.11218 0.47948 -0.04700
C 	C 	0.86288 0.10922 0.44712 0.03500
H 	H 	0.86550 0.08670 0.44770 0.01500
N 	N 	0.85011 0.02235 0.57359 -0.15000
C 	C 	0.84561 0.08265 0.60675 0.03600
H 	H 	0.85290 0.10010 0.58390 0.01200
C 	C 	0.82659 0.85393 0.61727 0.03900
H 	H 	0.84560 0.83120 0.62040 0.01300
N 	N 	0.86660 0.13630 0.41502 -0.22600
C 	C 	0.83254 0.06068 0.66792 0.06400
H 	H 	0.83100 0.06200 0.68900 -0.00100
C 	C 	0.84371 0.05465 0.57325 0.13400
C 	C 	0.79782 0.85660 0.61192 -0.05100
N 	N 	0.90747 0.06963 0.39109 -0.25800
N 	N 	0.76629 0.82707 0.61129 -0.15100
N 	N 	0.84451 0.08441 0.63603 -0.22500
C 	C 	0.79689 0.82495 0.61101 0.13400
C 	C 	0.83674 0.05668 0.60790 -0.04800
C 	C 	0.85258 0.14452 0.47866 0.00500
H 	H 	0.84760 0.14740 0.50040 0.03800
C 	C 	0.91662 0.03822 0.39992 0.09700
C 	C 	0.82465 0.03145 0.64173 0.00700
H 	H 	0.81840 0.01320 0.64360 0.03700
C 	C 	0.87217 0.95445 0.57005 0.04000
H 	H 	0.86720 0.95740 0.59180 0.01200
C 	C 	0.82224 0.03404 0.67226 -0.10100
H 	H 	0.81370 0.01790 0.69570 0.06600
C 	C 	0.86981 0.98543 0.53885 -0.04900
C 	C 	0.88917 0.91673 0.53999 0.05200
H 	H 	0.89510 0.89310 0.54050 0.00500
C 	C 	0.82008 0.92774 0.67226 0.10500
C 	C 	0.85692 0.17300 0.44582 -0.09500
H 	H 	0.85530 0.19550 0.44450 0.06300
C 	C 	0.88925 0.94541 0.50731 -0.09200
H 	H 	0.89560 0.94140 0.48580 0.06400
C 	C 	0.76989 0.88983 0.60715 0.00700
H 	H 	0.74960 0.89240 0.60360 0.03800
C 	C 	0.80204 0.91380 0.61338 0.05600
H 	H 	0.80360 0.93380 0.61380 0.00200
C 	C 	0.86371 0.16747 0.41505 0.05600
H 	H 	0.86650 0.18690 0.39270 -0.00000
C 	C 	0.87965 0.98057 0.50669 0.00400
H 	H 	0.87990 0.00050 0.48470 0.03900
C 	C 	0.85991 0.02059 0.54079 0.13200
C 	C 	0.77205 0.91917 0.60779 -0.09800
H 	H 	0.75350 0.94210 0.60450 0.06700
S 	S 	0.99475 0.92847 0.66691 -0.06000
S 	S 	0.95312 0.78788 0.56076 -0.06000
N 	N 	0.88178 0.82926 0.67068 -0.22700
N 	N 	0.04873 0.86211 0.57949 -0.14900
N 	N 	0.08472 0.84488 0.52666 -0.15100
C 	C 	0.08044 0.85338 0.55302 0.13400
N 	N 	0.92125 0.88093 0.62683 -0.22600
N 	N 	0.91087 0.84163 0.59357 -0.26500
C 	C 	0.11218 0.85552 0.55282 -0.04700
C 	C 	0.10922 0.86288 0.58078 0.03500
H 	H 	0.08670 0.86550 0.60010 0.01500
N 	N 	0.02235 0.85011 0.55395 -0.15000
C 	C 	0.08265 0.84561 0.46499 0.03600
H 	H 	0.10010 0.85290 0.46310 0.01200
C 	C 	0.85393 0.82659 0.70221 0.03900
H 	H 	0.83120 0.84560 0.70280 0.01300
N 	N 	0.13630 0.86660 0.58208 -0.22600
C 	C 	0.06068 0.83254 0.43886 0.06400
H 	H 	0.06200 0.83100 0.41800 -0.00100
C 	C 	0.05465 0.84371 0.52839 0.13400
C 	C 	0.85660 0.79782 0.73366 -0.05100
N 	N 	0.06963 0.90747 0.63181 -0.25800
N 	N 	0.82707 0.76629 0.79535 -0.15100
N 	N 	0.08441 0.84451 0.43505 -0.22500
C 	C 	0.82495 0.79689 0.76715 0.13400
C 	C 	0.05668 0.83674 0.49868 -0.04800
C 	C 	0.14452 0.85258 0.52424 0.00500
H 	H 	0.14740 0.84760 0.50460 0.03800
C 	C 	0.03822 0.91662 0.64524 0.09700
C 	C 	0.03145 0.82465 0.50217 0.00700
H 	H 	0.01320 0.81840 0.52480 0.03700
C 	C 	0.95445 0.87217 0.60333 0.04000
H 	H 	0.95740 0.86720 0.58360 0.01200
C 	C 	0.03404 0.82224 0.47146 -0.10100
H 	H 	0.01790 0.81370 0.47270 0.06600
C 	C 	0.98543 0.86981 0.60591 -0.04900
C 	C 	0.91673 0.88917 0.65411 0.05200
H 	H 	0.89310 0.89510 0.67130 0.00500
C 	C 	0.92774 0.82008 0.57992 0.10500
C 	C 	0.17300 0.85692 0.52426 -0.09500
H 	H 	0.19550 0.85530 0.50470 0.06300
C 	C 	0.94541 0.88925 0.65803 -0.09200
H 	H 	0.94140 0.89560 0.67720 0.06400
C 	C 	0.88983 0.76989 0.73313 0.00700
H 	H 	0.89240 0.74960 0.75440 0.03800
C 	C 	0.91380 0.80204 0.67078 0.05700
H 	H 	0.93380 0.80360 0.64880 0.00200
C 	C 	0.16747 0.86371 0.55377 0.05600
H 	H 	0.18690 0.86650 0.55390 -0.00000
C 	C 	0.98057 0.87965 0.63309 0.00400
H 	H 	0.00050 0.87990 0.63490 0.03900
C 	C 	0.02059 0.85991 0.57871 0.13200
C 	C 	0.91917 0.77205 0.70099 -0.09800
H 	H 	0.94210 0.75350 0.69990 0.06700
S 	S 	0.66691 0.40987 0.99475 -0.06100
S 	S 	0.56076 0.69824 0.95312 -0.06000
N 	N 	0.67068 0.61828 0.88178 -0.22700
N 	N 	0.57949 0.50967 0.04873 -0.14900
N 	N 	0.52666 0.54374 0.08472 -0.15100
C 	C 	0.55302 0.51316 0.08044 0.13400
N 	N 	0.62683 0.57099 0.92125 -0.22600
N 	N 	0.59357 0.65393 0.91087 -0.26500
C 	C 	0.55282 0.47948 0.11218 -0.04700
C 	C 	0.58078 0.44712 0.10922 0.03500
H 	H 	0.60010 0.44770 0.08670 0.01500
N 	N 	0.55395 0.57359 0.02235 -0.15000
C 	C 	0.46499 0.60675 0.08265 0.03600
H 	H 	0.46310 0.58390 0.10010 0.01200
C 	C 	0.70221 0.61727 0.85393 0.03900
H 	H 	0.70280 0.62040 0.83120 0.01300
N 	N 	0.58208 0.41502 0.13630 -0.22600
C 	C 	0.43886 0.66792 0.06068 0.06400
H 	H 	0.41800 0.68900 0.06200 -0.00100
C 	C 	0.52839 0.57325 0.05465 0.13400
C 	C 	0.73366 0.61192 0.85660 -0.05100
N 	N 	0.63181 0.39109 0.06963 -0.25800
N 	N 	0.79535 0.61129 0.82707 -0.15100
N 	N 	0.43505 0.63603 0.08441 -0.22500
C 	C 	0.76715 0.61101 0.82495 0.13400
C 	C 	0.49868 0.60790 0.05668 -0.04800
C 	C 	0.52424 0.47866 0.14452 0.00500
H 	H 	0.50460 0.50040 0.14740 0.03800
C 	C 	0.64524 0.39992 0.03822 0.09700
C 	C 	0.50217 0.64173 0.03145 0.00700
H 	H 	0.52480 0.64360 0.01320 0.03700
C 	C 	0.60333 0.57005 0.95445 0.04000
H 	H 	0.58360 0.59180 0.95740 0.01200
C 	C 	0.47146 0.67226 0.03404 -0.10100
H 	H 	0.47270 0.69570 0.01790 0.06600
C 	C 	0.60591 0.53885 0.98543 -0.04900
C 	C 	0.65411 0.53999 0.91673 0.05200
H 	H 	0.67130 0.54050 0.89310 0.00500
C 	C 	0.57992 0.67226 0.92774 0.10500
C 	C 	0.52426 0.44582 0.17300 -0.09500
H 	H 	0.50470 0.44450 0.19550 0.06300
C 	C 	0.65803 0.50731 0.94541 -0.09200
H 	H 	0.67720 0.48580 0.94140 0.06400
C 	C 	0.73313 0.60715 0.88983 0.00700
H 	H 	0.75440 0.60360 0.89240 0.03800
C 	C 	0.67078 0.61338 0.91380 0.05600
H 	H 	0.64880 0.61380 0.93380 0.00200
C 	C 	0.55377 0.41505 0.16747 0.05600
H 	H 	0.55390 0.39270 0.18690 -0.00000
C 	C 	0.63309 0.50669 0.98057 0.00400
H 	H 	0.63490 0.48470 0.00050 0.03900
C 	C 	0.57871 0.54079 0.02059 0.13200
C 	C 	0.70099 0.60779 0.91917 -0.09800
H 	H 	0.69990 0.60450 0.94210 0.06700
S 	S 	0.40987 0.66691 0.92847 -0.06100
S 	S 	0.69824 0.56076 0.78788 -0.06000
N 	N 	0.61828 0.67068 0.82926 -0.22700
N 	N 	0.50967 0.57949 0.86211 -0.14900
N 	N 	0.54374 0.52666 0.84488 -0.15100
C 	C 	0.51316 0.55302 0.85338 0.13400
N 	N 	0.57099 0.62683 0.88093 -0.22600
N 	N 	0.65393 0.59357 0.84163 -0.26500
C 	C 	0.47948 0.55282 0.85552 -0.04700
C 	C 	0.44712 0.58078 0.86288 0.03500
H 	H 	0.44770 0.60010 0.86550 0.01500
N 	N 	0.57359 0.55395 0.85011 -0.15000
C 	C 	0.60675 0.46499 0.84561 0.03600
H 	H 	0.58390 0.46310 0.85290 0.01300
C 	C 	0.61727 0.70221 0.82659 0.03900
H 	H 	0.62040 0.70280 0.84560 0.01300
N 	N 	0.41502 0.58208 0.86660 -0.22600
C 	C 	0.66792 0.43886 0.83254 0.06400
H 	H 	0.68900 0.41800 0.83100 -0.00100
C 	C 	0.57325 0.52839 0.84371 0.13400
C 	C 	0.61192 0.73366 0.79782 -0.05100
N 	N 	0.39109 0.63181 0.90747 -0.25800
N 	N 	0.61129 0.79535 0.76629 -0.15100
N 	N 	0.63603 0.43505 0.84451 -0.22500
C 	C 	0.61101 0.76715 0.79689 0.13400
C 	C 	0.60790 0.49868 0.83674 -0.04800
C 	C 	0.47866 0.52424 0.85258 0.00500
H 	H 	0.50040 0.50460 0.84760 0.03800
C 	C 	0.39992 0.64524 0.91662 0.09800
C 	C 	0.64173 0.50217 0.82465 0.00700
H 	H 	0.64360 0.52480 0.81840 0.03800
C 	C 	0.57005 0.60333 0.87217 0.04000
H 	H 	0.59180 0.58360 0.86720 0.01200
C 	C 	0.67226 0.47146 0.82224 -0.10100
H 	H 	0.69570 0.47270 0.81370 0.06600
C 	C 	0.53885 0.60591 0.86981 -0.04900
C 	C 	0.53999 0.65411 0.88917 0.05200
H 	H 	0.54050 0.67130 0.89510 0.00500
C 	C 	0.67226 0.57992 0.82008 0.10500
C 	C 	0.44582 0.52426 0.85692 -0.09500
H 	H 	0.44450 0.50470 0.85530 0.06300
C 	C 	0.50731 0.65803 0.88925 -0.09100
H 	H 	0.48580 0.67720 0.89560 0.06400
C 	C 	0.60715 0.73313 0.76989 0.00700
H 	H 	0.60360 0.75440 0.74960 0.03800
C 	C 	0.61338 0.67078 0.80204 0.05600
H 	H 	0.61380 0.64880 0.80360 0.00200
C 	C 	0.41505 0.55377 0.86371 0.05600
H 	H 	0.39270 0.55390 0.86650 -0.00000
C 	C 	0.50669 0.63309 0.87965 0.00300
H 	H 	0.48470 0.63490 0.87990 0.04000
C 	C 	0.54079 0.57871 0.85991 0.13300
C 	C 	0.60779 0.70099 0.77205 -0.09800
H 	H 	0.60450 0.69990 0.75350 0.06700
S 	S 	0.66691 0.92847 0.40987 -0.06100
S 	S 	0.56076 0.78788 0.69824 -0.06000
N 	N 	0.67068 0.82926 0.61828 -0.22700
N 	N 	0.57949 0.86211 0.50967 -0.14900
N 	N 	0.52666 0.84488 0.54374 -0.15100
C 	C 	0.55302 0.85338 0.51316 0.13400
N 	N 	0.62683 0.88093 0.57099 -0.22600
N 	N 	0.59357 0.84163 0.65393 -0.26500
C 	C 	0.55282 0.85552 0.47948 -0.04700
C 	C 	0.58078 0.86288 0.44712 0.03500
H 	H 	0.60010 0.86550 0.44770 0.01500
N 	N 	0.55395 0.85011 0.57359 -0.15000
C 	C 	0.46499 0.84561 0.60675 0.03600
H 	H 	0.46310 0.85290 0.58390 0.01300
C 	C 	0.70221 0.82659 0.61727 0.03900
H 	H 	0.70280 0.84560 0.62040 0.01300
N 	N 	0.58208 0.86660 0.41502 -0.22600
C 	C 	0.43886 0.83254 0.66792 0.06400
H 	H 	0.41800 0.83100 0.68900 -0.00100
C 	C 	0.52839 0.84371 0.57325 0.13400
C 	C 	0.73366 0.79782 0.61192 -0.05100
N 	N 	0.63181 0.90747 0.39109 -0.25800
N 	N 	0.79535 0.76629 0.61129 -0.15100
N 	N 	0.43505 0.84451 0.63603 -0.22500
C 	C 	0.76715 0.79689 0.61101 0.13400
C 	C 	0.49868 0.83674 0.60790 -0.04800
C 	C 	0.52424 0.85258 0.47866 0.00500
H 	H 	0.50460 0.84760 0.50040 0.03800
C 	C 	0.64524 0.91662 0.39992 0.09800
C 	C 	0.50217 0.82465 0.64173 0.00700
H 	H 	0.52480 0.81840 0.64360 0.03800
C 	C 	0.60333 0.87217 0.57005 0.04000
H 	H 	0.58360 0.86720 0.59180 0.01200
C 	C 	0.47146 0.82224 0.67226 -0.10100
H 	H 	0.47270 0.81370 0.69570 0.06600
C 	C 	0.60591 0.86981 0.53885 -0.04900
C 	C 	0.65411 0.88917 0.53999 0.05200
H 	H 	0.67130 0.89510 0.54050 0.00500
C 	C 	0.57992 0.82008 0.67226 0.10500
C 	C 	0.52426 0.85692 0.44582 -0.09500
H 	H 	0.50470 0.85530 0.44450 0.06300
C 	C 	0.65803 0.88925 0.50731 -0.09100
H 	H 	0.67720 0.89560 0.48580 0.06400
C 	C 	0.73313 0.76989 0.60715 0.00700
H 	H 	0.75440 0.74960 0.60360 0.03800
C 	C 	0.67078 0.80204 0.61338 0.05600
H 	H 	0.64880 0.80360 0.61380 0.00200
C 	C 	0.55377 0.86371 0.41505 0.05600
H 	H 	0.55390 0.86650 0.39270 -0.00000
C 	C 	0.63309 0.87965 0.50669 0.00300
H 	H 	0.63490 0.87990 0.48470 0.04000
C 	C 	0.57871 0.85991 0.54079 0.13300
C 	C 	0.70099 0.77205 0.60779 -0.09800
H 	H 	0.69990 0.75350 0.60450 0.06700
S 	S 	0.40987 0.99475 0.66691 -0.06100
S 	S 	0.69824 0.95312 0.56076 -0.06000
N 	N 	0.61828 0.88178 0.67068 -0.22700
N 	N 	0.50967 0.04873 0.57949 -0.14900
N 	N 	0.54374 0.08472 0.52666 -0.15100
C 	C 	0.51316 0.08044 0.55302 0.13400
N 	N 	0.57099 0.92125 0.62683 -0.22600
N 	N 	0.65393 0.91087 0.59357 -0.26500
C 	C 	0.47948 0.11218 0.55282 -0.04700
C 	C 	0.44712 0.10922 0.58078 0.03500
H 	H 	0.44770 0.08670 0.60010 0.01500
N 	N 	0.57359 0.02235 0.55395 -0.15000
C 	C 	0.60675 0.08265 0.46499 0.03600
H 	H 	0.58390 0.10010 0.46310 0.01200
C 	C 	0.61727 0.85393 0.70221 0.03900
H 	H 	0.62040 0.83120 0.70280 0.01300
N 	N 	0.41502 0.13630 0.58208 -0.22600
C 	C 	0.66792 0.06068 0.43886 0.06400
H 	H 	0.68900 0.06200 0.41800 -0.00100
C 	C 	0.57325 0.05465 0.52839 0.13400
C 	C 	0.61192 0.85660 0.73366 -0.05100
N 	N 	0.39109 0.06963 0.63181 -0.25800
N 	N 	0.61129 0.82707 0.79535 -0.15100
N 	N 	0.63603 0.08441 0.43505 -0.22500
C 	C 	0.61101 0.82495 0.76715 0.13400
C 	C 	0.60790 0.05668 0.49868 -0.04800
C 	C 	0.47866 0.14452 0.52424 0.00500
H 	H 	0.50040 0.14740 0.50460 0.03800
C 	C 	0.39992 0.03822 0.64524 0.09700
C 	C 	0.64173 0.03145 0.50217 0.00700
H 	H 	0.64360 0.01320 0.52480 0.03700
C 	C 	0.57005 0.95445 0.60333 0.04000
H 	H 	0.59180 0.95740 0.58360 0.01200
C 	C 	0.67226 0.03404 0.47146 -0.10100
H 	H 	0.69570 0.01790 0.47270 0.06600
C 	C 	0.53885 0.98543 0.60591 -0.04900
C 	C 	0.53999 0.91673 0.65411 0.05200
H 	H 	0.54050 0.89310 0.67130 0.00500
C 	C 	0.67226 0.92774 0.57992 0.10500
C 	C 	0.44582 0.17300 0.52426 -0.09500
H 	H 	0.44450 0.19550 0.50470 0.06300
C 	C 	0.50731 0.94541 0.65803 -0.09200
H 	H 	0.48580 0.94140 0.67720 0.06400
C 	C 	0.60715 0.88983 0.73313 0.00700
H 	H 	0.60360 0.89240 0.75440 0.03800
C 	C 	0.61338 0.91380 0.67078 0.05600
H 	H 	0.61380 0.93380 0.64880 0.00200
C 	C 	0.41505 0.16747 0.55377 0.05600
H 	H 	0.39270 0.18690 0.55390 -0.00000
C 	C 	0.50669 0.98057 0.63309 0.00400
H 	H 	0.48470 0.00050 0.63490 0.03900
C 	C 	0.54079 0.02059 0.57871 0.13200
C 	C 	0.60779 0.91917 0.70099 -0.09800
H 	H 	0.60450 0.94210 0.69990 0.06700
S 	S 	0.92847 0.66691 0.99475 -0.06000
S 	S 	0.78788 0.56076 0.95312 -0.06000
N 	N 	0.82926 0.67068 0.88178 -0.22700
N 	N 	0.86211 0.57949 0.04873 -0.14900
N 	N 	0.84488 0.52666 0.08472 -0.15100
C 	C 	0.85338 0.55302 0.08044 0.13400
N 	N 	0.88093 0.62683 0.92125 -0.22600
N 	N 	0.84163 0.59357 0.91087 -0.26500
C 	C 	0.85552 0.55282 0.11218 -0.04700
C 	C 	0.86288 0.58078 0.10922 0.03500
H 	H 	0.86550 0.60010 0.08670 0.01500
N 	N 	0.85011 0.55395 0.02235 -0.15000
C 	C 	0.84561 0.46499 0.08265 0.03600
H 	H 	0.85290 0.46310 0.10010 0.01200
C 	C 	0.82659 0.70221 0.85393 0.03900
H 	H 	0.84560 0.70280 0.83120 0.01300
N 	N 	0.86660 0.58208 0.13630 -0.22600
C 	C 	0.83254 0.43886 0.06068 0.06400
H 	H 	0.83100 0.41800 0.06200 -0.00100
C 	C 	0.84371 0.52839 0.05465 0.13400
C 	C 	0.79782 0.73366 0.85660 -0.05100
N 	N 	0.90747 0.63181 0.06963 -0.25800
N 	N 	0.76629 0.79535 0.82707 -0.15100
N 	N 	0.84451 0.43505 0.08441 -0.22500
C 	C 	0.79689 0.76715 0.82495 0.13400
C 	C 	0.83674 0.49868 0.05668 -0.04800
C 	C 	0.85258 0.52424 0.14452 0.00500
H 	H 	0.84760 0.50460 0.14740 0.03800
C 	C 	0.91662 0.64524 0.03822 0.09700
C 	C 	0.82465 0.50217 0.03145 0.00700
H 	H 	0.81840 0.52480 0.01320 0.03700
C 	C 	0.87217 0.60333 0.95445 0.04000
H 	H 	0.86720 0.58360 0.95740 0.01200
C 	C 	0.82224 0.47146 0.03404 -0.10100
H 	H 	0.81370 0.47270 0.01790 0.06600
C 	C 	0.86981 0.60591 0.98543 -0.04900
C 	C 	0.88917 0.65411 0.91673 0.05200
H 	H 	0.89510 0.67130 0.89310 0.00500
C 	C 	0.82008 0.57992 0.92774 0.10500
C 	C 	0.85692 0.52426 0.17300 -0.09500
H 	H 	0.85530 0.50470 0.19550 0.06300
C 	C 	0.88925 0.65803 0.94541 -0.09200
H 	H 	0.89560 0.67720 0.94140 0.06400
C 	C 	0.76989 0.73313 0.88983 0.00700
H 	H 	0.74960 0.75440 0.89240 0.03800
C 	C 	0.80204 0.67078 0.91380 0.05700
H 	H 	0.80360 0.64880 0.93380 0.00200
C 	C 	0.86371 0.55377 0.16747 0.05600
H 	H 	0.86650 0.55390 0.18690 -0.00000
C 	C 	0.87965 0.63309 0.98057 0.00400
H 	H 	0.87990 0.63490 0.00050 0.03900
C 	C 	0.85991 0.57871 0.02059 0.13200
C 	C 	0.77205 0.70099 0.91917 -0.09800
H 	H 	0.75350 0.69990 0.94210 0.06700
S 	S 	0.99475 0.40987 0.92847 -0.06000
S 	S 	0.95312 0.69824 0.78788 -0.06000
N 	N 	0.88178 0.61828 0.82926 -0.22700
N 	N 	0.04873 0.50967 0.86211 -0.14900
N 	N 	0.08472 0.54374 0.84488 -0.15100
C 	C 	0.08044 0.51316 0.85338 0.13400
N 	N 	0.92125 0.57099 0.88093 -0.22600
N 	N 	0.91087 0.65393 0.84163 -0.26500
C 	C 	0.11218 0.47948 0.85552 -0.04700
C 	C 	0.10922 0.44712 0.86288 0.03500
H 	H 	0.08670 0.44770 0.86550 0.01500
N 	N 	0.02235 0.57359 0.85011 -0.15000
C 	C 	0.08265 0.60675 0.84561 0.03600
H 	H 	0.10010 0.58390 0.85290 0.01200
C 	C 	0.85393 0.61727 0.82659 0.03900
H 	H 	0.83120 0.62040 0.84560 0.01300
N 	N 	0.13630 0.41502 0.86660 -0.22600
C 	C 	0.06068 0.66792 0.83254 0.06400
H 	H 	0.06200 0.68900 0.83100 -0.00100
C 	C 	0.05465 0.57325 0.84371 0.13400
C 	C 	0.85660 0.61192 0.79782 -0.05100
N 	N 	0.06963 0.39109 0.90747 -0.25800
N 	N 	0.82707 0.61129 0.76629 -0.15100
N 	N 	0.08441 0.63603 0.84451 -0.22500
C 	C 	0.82495 0.61101 0.79689 0.13400
C 	C 	0.05668 0.60790 0.83674 -0.04800
C 	C 	0.14452 0.47866 0.85258 0.00500
H 	H 	0.14740 0.50040 0.84760 0.03800
C 	C 	0.03822 0.39992 0.91662 0.09700
C 	C 	0.03145 0.64173 0.82465 0.00700
H 	H 	0.01320 0.64360 0.81840 0.03700
C 	C 	0.95445 0.57005 0.87217 0.04000
H 	H 	0.95740 0.59180 0.86720 0.01200
C 	C 	0.03404 0.67226 0.82224 -0.10100
H 	H 	0.01790 0.69570 0.81370 0.06600
C 	C 	0.98543 0.53885 0.86981 -0.04900
C 	C 	0.91673 0.53999 0.88917 0.05200
H 	H 	0.89310 0.54050 0.89510 0.00500
C 	C 	0.92774 0.67226 0.82008 0.10500
C 	C 	0.17300 0.44582 0.85692 -0.09500
H 	H 	0.19550 0.44450 0.85530 0.06300
C 	C 	0.94541 0.50731 0.88925 -0.09200
H 	H 	0.94140 0.48580 0.89560 0.06400
C 	C 	0.88983 0.60715 0.76989 0.00700
H 	H 	0.89240 0.60360 0.74960 0.03800
C 	C 	0.91380 0.61338 0.80204 0.05600
H 	H 	0.93380 0.61380 0.80360 0.00200
C 	C 	0.16747 0.41505 0.86371 0.05600
H 	H 	0.18690 0.39270 0.86650 -0.00000
C 	C 	0.98057 0.50669 0.87965 0.00400
H 	H 	0.00050 0.48470 0.87990 0.03900
C 	C 	0.02059 0.54079 0.85991 0.13200
C 	C 	0.91917 0.60779 0.77205 -0.09800
H 	H 	0.94210 0.60450 0.75350 0.06700
S 	S 	0.99475 0.66691 0.40987 -0.06100
S 	S 	0.95312 0.56076 0.69824 -0.06000
N 	N 	0.88178 0.67068 0.61828 -0.22700
N 	N 	0.04873 0.57949 0.50967 -0.14900
N 	N 	0.08472 0.52666 0.54374 -0.15100
C 	C 	0.08044 0.55302 0.51316 0.13400
N 	N 	0.92125 0.62683 0.57099 -0.22600
N 	N 	0.91087 0.59357 0.65393 -0.26500
C 	C 	0.11218 0.55282 0.47948 -0.04700
C 	C 	0.10922 0.58078 0.44712 0.03500
H 	H 	0.08670 0.60010 0.44770 0.01500
N 	N 	0.02235 0.55395 0.57359 -0.15000
C 	C 	0.08265 0.46499 0.60675 0.03600
H 	H 	0.10010 0.46310 0.58390 0.01200
C 	C 	0.85393 0.70221 0.61727 0.03900
H 	H 	0.83120 0.70280 0.62040 0.01300
N 	N 	0.13630 0.58208 0.41502 -0.22600
C 	C 	0.06068 0.43886 0.66792 0.06400
H 	H 	0.06200 0.41800 0.68900 -0.00100
C 	C 	0.05465 0.52839 0.57325 0.13400
C 	C 	0.85660 0.73366 0.61192 -0.05100
N 	N 	0.06963 0.63181 0.39109 -0.25800
N 	N 	0.82707 0.79535 0.61129 -0.15100
N 	N 	0.08441 0.43505 0.63603 -0.22500
C 	C 	0.82495 0.76715 0.61101 0.13400
C 	C 	0.05668 0.49868 0.60790 -0.04800
C 	C 	0.14452 0.52424 0.47866 0.00500
H 	H 	0.14740 0.50460 0.50040 0.03800
C 	C 	0.03822 0.64524 0.39992 0.09700
C 	C 	0.03145 0.50217 0.64173 0.00700
H 	H 	0.01320 0.52480 0.64360 0.03700
C 	C 	0.95445 0.60333 0.57005 0.04000
H 	H 	0.95740 0.58360 0.59180 0.01200
C 	C 	0.03404 0.47146 0.67226 -0.10100
H 	H 	0.01790 0.47270 0.69570 0.06600
C 	C 	0.98543 0.60591 0.53885 -0.04900
C 	C 	0.91673 0.65411 0.53999 0.05200
H 	H 	0.89310 0.67130 0.54050 0.00500
C 	C 	0.92774 0.57992 0.67226 0.10500
C 	C 	0.17300 0.52426 0.44582 -0.09500
H 	H 	0.19550 0.50470 0.44450 0.06300
C 	C 	0.94541 0.65803 0.50731 -0.09200
H 	H 	0.94140 0.67720 0.48580 0.06400
C 	C 	0.88983 0.73313 0.60715 0.00700
H 	H 	0.89240 0.75440 0.60360 0.03800
C 	C 	0.91380 0.67078 0.61338 0.05600
H 	H 	0.93380 0.64880 0.61380 0.00200
C 	C 	0.16747 0.55377 0.41505 0.05600
H 	H 	0.18690 0.55390 0.39270 -0.00000
C 	C 	0.98057 0.63309 0.50669 0.00400
H 	H 	0.00050 0.63490 0.48470 0.03900
C 	C 	0.02059 0.57871 0.54079 0.13200
C 	C 	0.91917 0.70099 0.60779 -0.09800
H 	H 	0.94210 0.69990 0.60450 0.06700
S 	S 	0.92847 0.40987 0.66691 -0.06100
S 	S 	0.78788 0.69824 0.56076 -0.06000
N 	N 	0.82926 0.61828 0.67068 -0.22700
N 	N 	0.86211 0.50967 0.57949 -0.14900
N 	N 	0.84488 0.54374 0.52666 -0.15100
C 	C 	0.85338 0.51316 0.55302 0.13400
N 	N 	0.88093 0.57099 0.62683 -0.22600
N 	N 	0.84163 0.65393 0.59357 -0.26500
C 	C 	0.85552 0.47948 0.55282 -0.04700
C 	C 	0.86288 0.44712 0.58078 0.03500
H 	H 	0.86550 0.44770 0.60010 0.01500
N 	N 	0.85011 0.57359 0.55395 -0.15000
C 	C 	0.84561 0.60675 0.46499 0.03600
H 	H 	0.85290 0.58390 0.46310 0.01300
C 	C 	0.82659 0.61727 0.70221 0.03900
H 	H 	0.84560 0.62040 0.70280 0.01300
N 	N 	0.86660 0.41502 0.58208 -0.22600
C 	C 	0.83254 0.66792 0.43886 0.06400
H 	H 	0.83100 0.68900 0.41800 -0.00100
C 	C 	0.84371 0.57325 0.52839 0.13400
C 	C 	0.79782 0.61192 0.73366 -0.05100
N 	N 	0.90747 0.39109 0.63181 -0.25800
N 	N 	0.76629 0.61129 0.79535 -0.15100
N 	N 	0.84451 0.63603 0.43505 -0.22500
C 	C 	0.79689 0.61101 0.76715 0.13400
C 	C 	0.83674 0.60790 0.49868 -0.04800
C 	C 	0.85258 0.47866 0.52424 0.00500
H 	H 	0.84760 0.50040 0.50460 0.03800
C 	C 	0.91662 0.39992 0.64524 0.09800
C 	C 	0.82465 0.64173 0.50217 0.00700
H 	H 	0.81840 0.64360 0.52480 0.03800
C 	C 	0.87217 0.57005 0.60333 0.04000
H 	H 	0.86720 0.59180 0.58360 0.01200
C 	C 	0.82224 0.67226 0.47146 -0.10100
H 	H 	0.81370 0.69570 0.47270 0.06600
C 	C 	0.86981 0.53885 0.60591 -0.04900
C 	C 	0.88917 0.53999 0.65411 0.05200
H 	H 	0.89510 0.54050 0.67130 0.00500
C 	C 	0.82008 0.67226 0.57992 0.10500
C 	C 	0.85692 0.44582 0.52426 -0.09500
H 	H 	0.85530 0.44450 0.50470 0.06300
C 	C 	0.88925 0.50731 0.65803 -0.09100
H 	H 	0.89560 0.48580 0.67720 0.06400
C 	C 	0.76989 0.60715 0.73313 0.00700
H 	H 	0.74960 0.60360 0.75440 0.03800
C 	C 	0.80204 0.61338 0.67078 0.05600
H 	H 	0.80360 0.61380 0.64880 0.00200
C 	C 	0.86371 0.41505 0.55377 0.05600
H 	H 	0.86650 0.39270 0.55390 -0.00000
C 	C 	0.87965 0.50669 0.63309 0.00300
H 	H 	0.87990 0.48470 0.63490 0.04000
C 	C 	0.85991 0.54079 0.57871 0.13300
C 	C 	0.77205 0.60779 0.70099 -0.09800
H 	H 	0.75350 0.60450 0.69990 0.06700
S 	S 	0.40987 0.92847 0.99475 -0.06000
S 	S 	0.69824 0.78788 0.95312 -0.06000
N 	N 	0.61828 0.82926 0.88178 -0.22700
N 	N 	0.50967 0.86211 0.04873 -0.14900
N 	N 	0.54374 0.84488 0.08472 -0.15100
C 	C 	0.51316 0.85338 0.08044 0.13400
N 	N 	0.57099 0.88093 0.92125 -0.22600
N 	N 	0.65393 0.84163 0.91087 -0.26500
C 	C 	0.47948 0.85552 0.11218 -0.04700
C 	C 	0.44712 0.86288 0.10922 0.03500
H 	H 	0.44770 0.86550 0.08670 0.01500
N 	N 	0.57359 0.85011 0.02235 -0.15000
C 	C 	0.60675 0.84561 0.08265 0.03600
H 	H 	0.58390 0.85290 0.10010 0.01200
C 	C 	0.61727 0.82659 0.85393 0.03900
H 	H 	0.62040 0.84560 0.83120 0.01300
N 	N 	0.41502 0.86660 0.13630 -0.22600
C 	C 	0.66792 0.83254 0.06068 0.06400
H 	H 	0.68900 0.83100 0.06200 -0.00100
C 	C 	0.57325 0.84371 0.05465 0.13400
C 	C 	0.61192 0.79782 0.85660 -0.05100
N 	N 	0.39109 0.90747 0.06963 -0.25800
N 	N 	0.61129 0.76629 0.82707 -0.15100
N 	N 	0.63603 0.84451 0.08441 -0.22500
C 	C 	0.61101 0.79689 0.82495 0.13400
C 	C 	0.60790 0.83674 0.05668 -0.04800
C 	C 	0.47866 0.85258 0.14452 0.00500
H 	H 	0.50040 0.84760 0.14740 0.03800
C 	C 	0.39992 0.91662 0.03822 0.09700
C 	C 	0.64173 0.82465 0.03145 0.00700
H 	H 	0.64360 0.81840 0.01320 0.03700
C 	C 	0.57005 0.87217 0.95445 0.04000
H 	H 	0.59180 0.86720 0.95740 0.01200
C 	C 	0.67226 0.82224 0.03404 -0.10100
H 	H 	0.69570 0.81370 0.01790 0.06600
C 	C 	0.53885 0.86981 0.98543 -0.04900
C 	C 	0.53999 0.88917 0.91673 0.05200
H 	H 	0.54050 0.89510 0.89310 0.00500
C 	C 	0.67226 0.82008 0.92774 0.10500
C 	C 	0.44582 0.85692 0.17300 -0.09500
H 	H 	0.44450 0.85530 0.19550 0.06300
C 	C 	0.50731 0.88925 0.94541 -0.09200
H 	H 	0.48580 0.89560 0.94140 0.06400
C 	C 	0.60715 0.76989 0.88983 0.00700
H 	H 	0.60360 0.74960 0.89240 0.03800
C 	C 	0.61338 0.80204 0.91380 0.05600
H 	H 	0.61380 0.80360 0.93380 0.00200
C 	C 	0.41505 0.86371 0.16747 0.05600
H 	H 	0.39270 0.86650 0.18690 -0.00000
C 	C 	0.50669 0.87965 0.98057 0.00400
H 	H 	0.48470 0.87990 0.00050 0.03900
C 	C 	0.54079 0.85991 0.02059 0.13200
C 	C 	0.60779 0.77205 0.91917 -0.09800
H 	H 	0.60450 0.75350 0.94210 0.06700
S 	S 	0.66691 0.99475 0.92847 -0.06000
S 	S 	0.56076 0.95312 0.78788 -0.06000
N 	N 	0.67068 0.88178 0.82926 -0.22700
N 	N 	0.57949 0.04873 0.86211 -0.14900
N 	N 	0.52666 0.08472 0.84488 -0.15100
C 	C 	0.55302 0.08044 0.85338 0.13400
N 	N 	0.62683 0.92125 0.88093 -0.22600
N 	N 	0.59357 0.91087 0.84163 -0.26500
C 	C 	0.55282 0.11218 0.85552 -0.04700
C 	C 	0.58078 0.10922 0.86288 0.03500
H 	H 	0.60010 0.08670 0.86550 0.01500
N 	N 	0.55395 0.02235 0.85011 -0.15000
C 	C 	0.46499 0.08265 0.84561 0.03600
H 	H 	0.46310 0.10010 0.85290 0.01200
C 	C 	0.70221 0.85393 0.82659 0.03900
H 	H 	0.70280 0.83120 0.84560 0.01300
N 	N 	0.58208 0.13630 0.86660 -0.22600
C 	C 	0.43886 0.06068 0.83254 0.06400
H 	H 	0.41800 0.06200 0.83100 -0.00100
C 	C 	0.52839 0.05465 0.84371 0.13400
C 	C 	0.73366 0.85660 0.79782 -0.05100
N 	N 	0.63181 0.06963 0.90747 -0.25800
N 	N 	0.79535 0.82707 0.76629 -0.15100
N 	N 	0.43505 0.08441 0.84451 -0.22500
C 	C 	0.76715 0.82495 0.79689 0.13400
C 	C 	0.49868 0.05668 0.83674 -0.04800
C 	C 	0.52424 0.14452 0.85258 0.00500
H 	H 	0.50460 0.14740 0.84760 0.03800
C 	C 	0.64524 0.03822 0.91662 0.09700
C 	C 	0.50217 0.03145 0.82465 0.00700
H 	H 	0.52480 0.01320 0.81840 0.03700
C 	C 	0.60333 0.95445 0.87217 0.04000
H 	H 	0.58360 0.95740 0.86720 0.01200
C 	C 	0.47146 0.03404 0.82224 -0.10100
H 	H 	0.47270 0.01790 0.81370 0.06600
C 	C 	0.60591 0.98543 0.86981 -0.04900
C 	C 	0.65411 0.91673 0.88917 0.05200
H 	H 	0.67130 0.89310 0.89510 0.00500
C 	C 	0.57992 0.92774 0.82008 0.10500
C 	C 	0.52426 0.17300 0.85692 -0.09500
H 	H 	0.50470 0.19550 0.85530 0.06300
C 	C 	0.65803 0.94541 0.88925 -0.09200
H 	H 	0.67720 0.94140 0.89560 0.06400
C 	C 	0.73313 0.88983 0.76989 0.00700
H 	H 	0.75440 0.89240 0.74960 0.03800
C 	C 	0.67078 0.91380 0.80204 0.05700
H 	H 	0.64880 0.93380 0.80360 0.00200
C 	C 	0.55377 0.16747 0.86371 0.05600
H 	H 	0.55390 0.18690 0.86650 -0.00000
C 	C 	0.63309 0.98057 0.87965 0.00400
H 	H 	0.63490 0.00050 0.87990 0.03900
C 	C 	0.57871 0.02059 0.85991 0.13200
C 	C 	0.70099 0.91917 0.77205 -0.09800
H 	H 	0.69990 0.94210 0.75350 0.06700
Co	Co	0.38416 0.62500 0.12500 1.11900
Co	Co	0.62500 0.38416 0.86584 1.11900
Co	Co	0.12500 0.86584 0.38416 1.11900
Co	Co	0.86584 0.12500 0.62500 1.11900
Co	Co	0.12500 0.38416 0.62500 1.11900
Co	Co	0.86584 0.62500 0.38416 1.11900
Co	Co	0.38416 0.12500 0.86584 1.11900
Co	Co	0.62500 0.86584 0.12500 1.11900
Co	Co	0.62500 0.12500 0.38416 1.11900
Co	Co	0.38416 0.86584 0.62500 1.11900
Co	Co	0.86584 0.38416 0.12500 1.11900
Co	Co	0.12500 0.62500 0.86584 1.11900
Co	Co	0.36584 0.12500 0.62500 1.11900
Co	Co	0.12500 0.36584 0.88416 1.11900
Co	Co	0.62500 0.88416 0.36584 1.11900
Co	Co	0.88416 0.62500 0.12500 1.11900
Co	Co	0.62500 0.36584 0.12500 1.11900
Co	Co	0.88416 0.12500 0.36584 1.11900
Co	Co	0.36584 0.62500 0.88416 1.11900
Co	Co	0.12500 0.88416 0.62500 1.11900
Co	Co	0.12500 0.62500 0.36584 1.11900
Co	Co	0.36584 0.88416 0.12500 1.11900
Co	Co	0.88416 0.36584 0.62500 1.11900
Co	Co	0.62500 0.12500 0.88416 1.11900
Co	Co	0.37733 0.37733 0.12267 1.12400
Co	Co	0.12267 0.12267 0.37733 1.12400
Co	Co	0.12267 0.37733 0.37733 1.12400
Co	Co	0.37733 0.12267 0.12267 1.12400
Co	Co	0.37733 0.12267 0.37733 1.12400
Co	Co	0.12267 0.37733 0.12267 1.12400
Co	Co	0.87267 0.87267 0.12733 1.12400
Co	Co	0.12733 0.12733 0.87267 1.12400
Co	Co	0.12733 0.87267 0.12733 1.12400
Co	Co	0.87267 0.12733 0.87267 1.12400
Co	Co	0.87267 0.12733 0.12733 1.12400
Co	Co	0.12733 0.87267 0.87267 1.12400
Co	Co	0.37267 0.37267 0.62733 1.12400
Co	Co	0.62733 0.62733 0.37267 1.12400
Co	Co	0.62733 0.37267 0.37267 1.12400
Co	Co	0.37267 0.62733 0.62733 1.12400
Co	Co	0.37267 0.62733 0.37267 1.12400
Co	Co	0.62733 0.37267 0.62733 1.12400
Co	Co	0.87733 0.87733 0.62267 1.12400
Co	Co	0.62267 0.62267 0.87733 1.12400
Co	Co	0.62267 0.87733 0.62267 1.12400
Co	Co	0.87733 0.62267 0.87733 1.12400
Co	Co	0.87733 0.62267 0.62267 1.12400
Co	Co	0.62267 0.87733 0.87733 1.12400
