data_crystal

_cell_length_a 45.54620
_cell_length_b 45.54620
_cell_length_c 45.54620
_cell_angle_alpha 60.00000
_cell_angle_beta  60.00000
_cell_angle_gamma 60.00000

_symmetry_space_group_name_	'P 1'
_symmetry_space_group_name_H-M	'P 1'

loop_
_symmetry_equiv_pos_as_xyz
  x,y,z

loop_
_atom_site_label
_atom_site_type_symbol
_atom_site_fract_x
_atom_site_fract_y
_atom_site_fract_z
_atom_site_charge
N 	N 	0.57078 0.89134 0.13282 -0.26400
N 	N 	0.90820 0.84064 0.09522 -0.26700
N 	N 	0.66490 0.90308 0.31640 -0.22400
N 	N 	0.61583 0.88415 0.16729 -0.22400
N 	N 	0.70232 0.88874 0.17072 -0.15200
N 	N 	0.66732 0.90274 0.22430 -0.15400
N 	N 	0.72843 0.89919 0.19709 -0.15400
N 	N 	0.82873 0.87221 0.12275 -0.23000
N 	N 	0.92141 0.87003 0.13029 -0.23000
N 	N 	0.92295 0.95485 0.13887 -0.15300
S 	S 	0.49606 0.91434 0.15998 -0.06100
S 	S 	0.96024 0.79858 0.05264 -0.06300
C 	C 	0.53922 0.90166 0.14316 0.09600
C 	C 	0.66746 0.90218 0.28586 0.03200
H 	H 	0.65010 0.89570 0.28690 0.01500
C 	C 	0.69362 0.91010 0.25386 -0.04600
C 	C 	0.71889 0.92147 0.25077 0.00600
H 	H 	0.73750 0.92710 0.22870 0.03700
C 	C 	0.71526 0.92394 0.28120 -0.10100
H 	H 	0.73110 0.93230 0.28030 0.06500
C 	C 	0.68919 0.91453 0.31273 0.05800
H 	H 	0.68800 0.91600 0.33340 -0.00100
C 	C 	0.58485 0.88669 0.19585 0.05700
H 	H 	0.56490 0.88530 0.19550 -0.00200
C 	C 	0.58168 0.89102 0.22452 -0.10400
H 	H 	0.56000 0.89160 0.24440 0.06500
C 	C 	0.60890 0.89458 0.22550 0.01300
H 	H 	0.60620 0.89800 0.24580 0.03400
C 	C 	0.64078 0.89320 0.19670 -0.05200
C 	C 	0.64326 0.88754 0.16838 0.03500
H 	H 	0.66510 0.88590 0.14870 0.01600
C 	C 	0.67189 0.89521 0.19729 0.13700
C 	C 	0.69647 0.90411 0.22263 0.13400
C 	C 	0.73010 0.89120 0.17220 0.13200
C 	C 	0.83166 0.86736 0.09452 0.05900
H 	H 	0.85470 0.86270 0.07670 0.00000
C 	C 	0.80348 0.86872 0.08980 -0.10000
H 	H 	0.80700 0.86460 0.06960 0.06500
C 	C 	0.76951 0.87645 0.11547 0.00800
H 	H 	0.74940 0.87760 0.11300 0.03700
C 	C 	0.76526 0.88236 0.14372 -0.04900
C 	C 	0.79618 0.87912 0.14740 0.03600
H 	H 	0.79350 0.88190 0.16810 0.01300
C 	C 	0.94792 0.83876 0.13454 0.05800
H 	H 	0.94720 0.81960 0.13200 -0.00100
C 	C 	0.97689 0.83271 0.14249 -0.10000
H 	H 	0.99460 0.80960 0.14700 0.06600
C 	C 	0.97885 0.86145 0.14355 0.00900
H 	H 	0.99860 0.85860 0.14780 0.03600
C 	C 	0.95194 0.89424 0.13838 -0.05600
C 	C 	0.92359 0.89697 0.13165 0.04700
H 	H 	0.90500 0.91960 0.12780 0.00800
C 	C 	0.95285 0.92577 0.13873 0.13400
C 	C 	0.92925 0.82373 0.07715 0.10700
N 	N 	0.89134 0.57078 0.40506 -0.26400
N 	N 	0.84064 0.90820 0.15594 -0.26700
N 	N 	0.90308 0.66490 0.11562 -0.22400
N 	N 	0.88415 0.61583 0.33273 -0.22400
N 	N 	0.88874 0.70232 0.23822 -0.15200
N 	N 	0.90274 0.66732 0.20564 -0.15400
N 	N 	0.89919 0.72843 0.17529 -0.15400
N 	N 	0.87221 0.82873 0.17631 -0.23000
N 	N 	0.87003 0.92141 0.07827 -0.23000
N 	N 	0.95485 0.92295 0.98333 -0.15300
S 	S 	0.91434 0.49606 0.42962 -0.06100
S 	S 	0.79858 0.96024 0.18854 -0.06300
C 	C 	0.90166 0.53922 0.41596 0.09600
C 	C 	0.90218 0.66746 0.14450 0.03200
H 	H 	0.89570 0.65010 0.16730 0.01500
C 	C 	0.91010 0.69362 0.14242 -0.04600
C 	C 	0.92147 0.71889 0.10887 0.00600
H 	H 	0.92710 0.73750 0.10670 0.03700
C 	C 	0.92394 0.71526 0.07960 -0.10100
H 	H 	0.93230 0.73110 0.05630 0.06500
C 	C 	0.91453 0.68919 0.08355 0.05800
H 	H 	0.91600 0.68800 0.06260 -0.00100
C 	C 	0.88669 0.58485 0.33261 0.05700
H 	H 	0.88530 0.56490 0.35430 -0.00200
C 	C 	0.89102 0.58168 0.30278 -0.10400
H 	H 	0.89160 0.56000 0.30400 0.06500
C 	C 	0.89458 0.60890 0.27102 0.01300
H 	H 	0.89800 0.60620 0.25000 0.03400
C 	C 	0.89320 0.64078 0.26932 -0.05200
C 	C 	0.88754 0.64326 0.30082 0.03500
H 	H 	0.88590 0.66510 0.30030 0.01600
C 	C 	0.89521 0.67189 0.23561 0.13700
C 	C 	0.90411 0.69647 0.17679 0.13400
C 	C 	0.89120 0.73010 0.20650 0.13200
C 	C 	0.86736 0.83166 0.20646 0.05900
H 	H 	0.86270 0.85470 0.20590 0.00000
C 	C 	0.86872 0.80348 0.23800 -0.10000
H 	H 	0.86460 0.80700 0.25880 0.06500
C 	C 	0.87645 0.76951 0.23857 0.00800
H 	H 	0.87760 0.74940 0.26000 0.03700
C 	C 	0.88236 0.76526 0.20866 -0.04900
C 	C 	0.87912 0.79618 0.17730 0.03600
H 	H 	0.88190 0.79350 0.15650 0.01300
C 	C 	0.83876 0.94792 0.07878 0.05800
H 	H 	0.81960 0.94720 0.10120 -0.00100
C 	C 	0.83271 0.97689 0.04791 -0.10000
H 	H 	0.80960 0.99460 0.04880 0.06600
C 	C 	0.86145 0.97885 0.01615 0.00900
H 	H 	0.85860 0.99860 0.99500 0.03600
C 	C 	0.89424 0.95194 0.01544 -0.05600
C 	C 	0.89697 0.92359 0.04779 0.04700
H 	H 	0.91960 0.90500 0.04760 0.00800
C 	C 	0.92577 0.95285 0.98265 0.13400
C 	C 	0.82373 0.92925 0.16987 0.10700
N 	N 	0.13282 0.40506 0.57078 -0.26400
N 	N 	0.09522 0.15594 0.90820 -0.26700
N 	N 	0.31640 0.11562 0.66490 -0.22400
N 	N 	0.16729 0.33273 0.61583 -0.22400
N 	N 	0.17072 0.23822 0.70232 -0.15200
N 	N 	0.22430 0.20564 0.66732 -0.15400
N 	N 	0.19709 0.17529 0.72843 -0.15400
N 	N 	0.12275 0.17631 0.82873 -0.23000
N 	N 	0.13029 0.07827 0.92141 -0.23000
N 	N 	0.13887 0.98333 0.92295 -0.15300
S 	S 	0.15998 0.42962 0.49606 -0.06100
S 	S 	0.05264 0.18854 0.96024 -0.06300
C 	C 	0.14316 0.41596 0.53922 0.09600
C 	C 	0.28586 0.14450 0.66746 0.03200
H 	H 	0.28690 0.16730 0.65010 0.01500
C 	C 	0.25386 0.14242 0.69362 -0.04600
C 	C 	0.25077 0.10887 0.71889 0.00600
H 	H 	0.22870 0.10670 0.73750 0.03700
C 	C 	0.28120 0.07960 0.71526 -0.10100
H 	H 	0.28030 0.05630 0.73110 0.06500
C 	C 	0.31273 0.08355 0.68919 0.05800
H 	H 	0.33340 0.06260 0.68800 -0.00100
C 	C 	0.19585 0.33261 0.58485 0.05700
H 	H 	0.19550 0.35430 0.56490 -0.00200
C 	C 	0.22452 0.30278 0.58168 -0.10400
H 	H 	0.24440 0.30400 0.56000 0.06500
C 	C 	0.22550 0.27102 0.60890 0.01300
H 	H 	0.24580 0.25000 0.60620 0.03400
C 	C 	0.19670 0.26932 0.64078 -0.05200
C 	C 	0.16838 0.30082 0.64326 0.03500
H 	H 	0.14870 0.30030 0.66510 0.01600
C 	C 	0.19729 0.23561 0.67189 0.13700
C 	C 	0.22263 0.17679 0.69647 0.13400
C 	C 	0.17220 0.20650 0.73010 0.13200
C 	C 	0.09452 0.20646 0.83166 0.05900
H 	H 	0.07670 0.20590 0.85470 0.00000
C 	C 	0.08980 0.23800 0.80348 -0.09900
H 	H 	0.06960 0.25880 0.80700 0.06600
C 	C 	0.11547 0.23857 0.76951 0.00900
H 	H 	0.11300 0.26000 0.74940 0.03800
C 	C 	0.14372 0.20866 0.76526 -0.04800
C 	C 	0.14740 0.17730 0.79618 0.03700
H 	H 	0.16810 0.15650 0.79350 0.01400
C 	C 	0.13454 0.07878 0.94792 0.05900
H 	H 	0.13200 0.10120 0.94720 0.00000
C 	C 	0.14249 0.04791 0.97689 -0.09900
H 	H 	0.14700 0.04880 0.99460 0.06700
C 	C 	0.14355 0.01615 0.97885 0.01000
H 	H 	0.14780 0.99500 0.99860 0.03700
C 	C 	0.13838 0.01544 0.95194 -0.05500
C 	C 	0.13165 0.04779 0.92359 0.04800
H 	H 	0.12780 0.04760 0.90500 0.00900
C 	C 	0.13873 0.98265 0.95285 0.13500
C 	C 	0.07715 0.16987 0.92925 0.10800
N 	N 	0.40506 0.13282 0.89134 -0.26300
N 	N 	0.15594 0.09522 0.84064 -0.26600
N 	N 	0.11562 0.31640 0.90308 -0.22300
N 	N 	0.33273 0.16729 0.88415 -0.22300
N 	N 	0.23822 0.17072 0.88874 -0.15100
N 	N 	0.20564 0.22430 0.90274 -0.15300
N 	N 	0.17529 0.19709 0.89919 -0.15300
N 	N 	0.17631 0.12275 0.87221 -0.22900
N 	N 	0.07827 0.13029 0.87003 -0.22900
N 	N 	0.98333 0.13887 0.95485 -0.15200
S 	S 	0.42962 0.15998 0.91434 -0.06000
S 	S 	0.18854 0.05264 0.79858 -0.06200
C 	C 	0.41596 0.14316 0.90166 0.09700
C 	C 	0.14450 0.28586 0.90218 0.03300
H 	H 	0.16730 0.28690 0.89570 0.01600
C 	C 	0.14242 0.25386 0.91010 -0.04500
C 	C 	0.10887 0.25077 0.92147 0.00700
H 	H 	0.10670 0.22870 0.92710 0.03800
C 	C 	0.07960 0.28120 0.92394 -0.10000
H 	H 	0.05630 0.28030 0.93230 0.06600
C 	C 	0.08355 0.31273 0.91453 0.05900
H 	H 	0.06260 0.33340 0.91600 -0.00000
C 	C 	0.33261 0.19585 0.88669 0.05800
H 	H 	0.35430 0.19550 0.88530 -0.00100
C 	C 	0.30278 0.22452 0.89102 -0.10300
H 	H 	0.30400 0.24440 0.89160 0.06600
C 	C 	0.27102 0.22550 0.89458 0.01400
H 	H 	0.25000 0.24580 0.89800 0.03500
C 	C 	0.26932 0.19670 0.89320 -0.05100
C 	C 	0.30082 0.16838 0.88754 0.03600
H 	H 	0.30030 0.14870 0.88590 0.01700
C 	C 	0.23561 0.19729 0.89521 0.13800
C 	C 	0.17679 0.22263 0.90411 0.13500
C 	C 	0.20650 0.17220 0.89120 0.13300
C 	C 	0.20646 0.09452 0.86736 0.06000
H 	H 	0.20590 0.07670 0.86270 0.00100
C 	C 	0.23800 0.08980 0.86872 -0.09900
H 	H 	0.25880 0.06960 0.86460 0.06600
C 	C 	0.23857 0.11547 0.87645 0.00900
H 	H 	0.26000 0.11300 0.87760 0.03800
C 	C 	0.20866 0.14372 0.88236 -0.04800
C 	C 	0.17730 0.14740 0.87912 0.03700
H 	H 	0.15650 0.16810 0.88190 0.01400
C 	C 	0.07878 0.13454 0.83876 0.05900
H 	H 	0.10120 0.13200 0.81960 0.00000
C 	C 	0.04791 0.14249 0.83271 -0.09900
H 	H 	0.04880 0.14700 0.80960 0.06700
C 	C 	0.01615 0.14355 0.86145 0.01000
H 	H 	0.99500 0.14780 0.85860 0.03700
C 	C 	0.01544 0.13838 0.89424 -0.05500
C 	C 	0.04779 0.13165 0.89697 0.04800
H 	H 	0.04760 0.12780 0.91960 0.00900
C 	C 	0.98265 0.13873 0.92577 0.13500
C 	C 	0.16987 0.07715 0.82373 0.10800
N 	N 	0.13282 0.57078 0.89134 -0.26300
N 	N 	0.09522 0.90820 0.84064 -0.26600
N 	N 	0.31640 0.66490 0.90308 -0.22300
N 	N 	0.16729 0.61583 0.88415 -0.22300
N 	N 	0.17072 0.70232 0.88874 -0.15100
N 	N 	0.22430 0.66732 0.90274 -0.15300
N 	N 	0.19709 0.72843 0.89919 -0.15300
N 	N 	0.12275 0.82873 0.87221 -0.22900
N 	N 	0.13029 0.92141 0.87003 -0.22900
N 	N 	0.13887 0.92295 0.95485 -0.15200
S 	S 	0.15998 0.49606 0.91434 -0.06000
S 	S 	0.05264 0.96024 0.79858 -0.06200
C 	C 	0.14316 0.53922 0.90166 0.09700
C 	C 	0.28586 0.66746 0.90218 0.03300
H 	H 	0.28690 0.65010 0.89570 0.01600
C 	C 	0.25386 0.69362 0.91010 -0.04500
C 	C 	0.25077 0.71889 0.92147 0.00700
H 	H 	0.22870 0.73750 0.92710 0.03800
C 	C 	0.28120 0.71526 0.92394 -0.10000
H 	H 	0.28030 0.73110 0.93230 0.06600
C 	C 	0.31273 0.68919 0.91453 0.05900
H 	H 	0.33340 0.68800 0.91600 -0.00000
C 	C 	0.19585 0.58485 0.88669 0.05800
H 	H 	0.19550 0.56490 0.88530 -0.00100
C 	C 	0.22452 0.58168 0.89102 -0.10300
H 	H 	0.24440 0.56000 0.89160 0.06600
C 	C 	0.22550 0.60890 0.89458 0.01400
H 	H 	0.24580 0.60620 0.89800 0.03500
C 	C 	0.19670 0.64078 0.89320 -0.05100
C 	C 	0.16838 0.64326 0.88754 0.03600
H 	H 	0.14870 0.66510 0.88590 0.01700
C 	C 	0.19729 0.67189 0.89521 0.13800
C 	C 	0.22263 0.69647 0.90411 0.13500
C 	C 	0.17220 0.73010 0.89120 0.13300
C 	C 	0.09452 0.83166 0.86736 0.06000
H 	H 	0.07670 0.85470 0.86270 0.00100
C 	C 	0.08980 0.80348 0.86872 -0.09900
H 	H 	0.06960 0.80700 0.86460 0.06600
C 	C 	0.11547 0.76951 0.87645 0.00900
H 	H 	0.11300 0.74940 0.87760 0.03800
C 	C 	0.14372 0.76526 0.88236 -0.04800
C 	C 	0.14740 0.79618 0.87912 0.03700
H 	H 	0.16810 0.79350 0.88190 0.01400
C 	C 	0.13454 0.94792 0.83876 0.05900
H 	H 	0.13200 0.94720 0.81960 0.00000
C 	C 	0.14249 0.97689 0.83271 -0.09900
H 	H 	0.14700 0.99460 0.80960 0.06700
C 	C 	0.14355 0.97885 0.86145 0.01000
H 	H 	0.14780 0.99860 0.85860 0.03700
C 	C 	0.13838 0.95194 0.89424 -0.05500
C 	C 	0.13165 0.92359 0.89697 0.04800
H 	H 	0.12780 0.90500 0.91960 0.00900
C 	C 	0.13873 0.95285 0.92577 0.13500
C 	C 	0.07715 0.92925 0.82373 0.10800
N 	N 	0.40506 0.89134 0.57078 -0.26300
N 	N 	0.15594 0.84064 0.90820 -0.26600
N 	N 	0.11562 0.90308 0.66490 -0.22300
N 	N 	0.33273 0.88415 0.61583 -0.22300
N 	N 	0.23822 0.88874 0.70232 -0.15100
N 	N 	0.20564 0.90274 0.66732 -0.15300
N 	N 	0.17529 0.89919 0.72843 -0.15300
N 	N 	0.17631 0.87221 0.82873 -0.22900
N 	N 	0.07827 0.87003 0.92141 -0.22900
N 	N 	0.98333 0.95485 0.92295 -0.15200
S 	S 	0.42962 0.91434 0.49606 -0.06000
S 	S 	0.18854 0.79858 0.96024 -0.06200
C 	C 	0.41596 0.90166 0.53922 0.09700
C 	C 	0.14450 0.90218 0.66746 0.03300
H 	H 	0.16730 0.89570 0.65010 0.01600
C 	C 	0.14242 0.91010 0.69362 -0.04500
C 	C 	0.10887 0.92147 0.71889 0.00700
H 	H 	0.10670 0.92710 0.73750 0.03800
C 	C 	0.07960 0.92394 0.71526 -0.10000
H 	H 	0.05630 0.93230 0.73110 0.06600
C 	C 	0.08355 0.91453 0.68919 0.05900
H 	H 	0.06260 0.91600 0.68800 -0.00000
C 	C 	0.33261 0.88669 0.58485 0.05800
H 	H 	0.35430 0.88530 0.56490 -0.00100
C 	C 	0.30278 0.89102 0.58168 -0.10300
H 	H 	0.30400 0.89160 0.56000 0.06600
C 	C 	0.27102 0.89458 0.60890 0.01400
H 	H 	0.25000 0.89800 0.60620 0.03500
C 	C 	0.26932 0.89320 0.64078 -0.05100
C 	C 	0.30082 0.88754 0.64326 0.03600
H 	H 	0.30030 0.88590 0.66510 0.01700
C 	C 	0.23561 0.89521 0.67189 0.13800
C 	C 	0.17679 0.90411 0.69647 0.13500
C 	C 	0.20650 0.89120 0.73010 0.13300
C 	C 	0.20646 0.86736 0.83166 0.06000
H 	H 	0.20590 0.86270 0.85470 0.00100
C 	C 	0.23800 0.86872 0.80348 -0.09900
H 	H 	0.25880 0.86460 0.80700 0.06600
C 	C 	0.23857 0.87645 0.76951 0.00900
H 	H 	0.26000 0.87760 0.74940 0.03800
C 	C 	0.20866 0.88236 0.76526 -0.04800
C 	C 	0.17730 0.87912 0.79618 0.03700
H 	H 	0.15650 0.88190 0.79350 0.01400
C 	C 	0.07878 0.83876 0.94792 0.05900
H 	H 	0.10120 0.81960 0.94720 0.00000
C 	C 	0.04791 0.83271 0.97689 -0.09900
H 	H 	0.04880 0.80960 0.99460 0.06700
C 	C 	0.01615 0.86145 0.97885 0.01000
H 	H 	0.99500 0.85860 0.99860 0.03700
C 	C 	0.01544 0.89424 0.95194 -0.05500
C 	C 	0.04779 0.89697 0.92359 0.04800
H 	H 	0.04760 0.91960 0.90500 0.00900
C 	C 	0.98265 0.92577 0.95285 0.13500
C 	C 	0.16987 0.82373 0.92925 0.10800
N 	N 	0.57078 0.13282 0.40506 -0.26300
N 	N 	0.90820 0.09522 0.15594 -0.26600
N 	N 	0.66490 0.31640 0.11562 -0.22300
N 	N 	0.61583 0.16729 0.33273 -0.22300
N 	N 	0.70232 0.17072 0.23822 -0.15100
N 	N 	0.66732 0.22430 0.20564 -0.15300
N 	N 	0.72843 0.19709 0.17529 -0.15300
N 	N 	0.82873 0.12275 0.17631 -0.22900
N 	N 	0.92141 0.13029 0.07827 -0.22900
N 	N 	0.92295 0.13887 0.98333 -0.15200
S 	S 	0.49606 0.15998 0.42962 -0.06000
S 	S 	0.96024 0.05264 0.18854 -0.06200
C 	C 	0.53922 0.14316 0.41596 0.09700
C 	C 	0.66746 0.28586 0.14450 0.03300
H 	H 	0.65010 0.28690 0.16730 0.01600
C 	C 	0.69362 0.25386 0.14242 -0.04500
C 	C 	0.71889 0.25077 0.10887 0.00700
H 	H 	0.73750 0.22870 0.10670 0.03800
C 	C 	0.71526 0.28120 0.07960 -0.10000
H 	H 	0.73110 0.28030 0.05630 0.06600
C 	C 	0.68919 0.31273 0.08355 0.05900
H 	H 	0.68800 0.33340 0.06260 -0.00000
C 	C 	0.58485 0.19585 0.33261 0.05800
H 	H 	0.56490 0.19550 0.35430 -0.00100
C 	C 	0.58168 0.22452 0.30278 -0.10300
H 	H 	0.56000 0.24440 0.30400 0.06600
C 	C 	0.60890 0.22550 0.27102 0.01400
H 	H 	0.60620 0.24580 0.25000 0.03500
C 	C 	0.64078 0.19670 0.26932 -0.05100
C 	C 	0.64326 0.16838 0.30082 0.03600
H 	H 	0.66510 0.14870 0.30030 0.01700
C 	C 	0.67189 0.19729 0.23561 0.13800
C 	C 	0.69647 0.22263 0.17679 0.13500
C 	C 	0.73010 0.17220 0.20650 0.13300
C 	C 	0.83166 0.09452 0.20646 0.06000
H 	H 	0.85470 0.07670 0.20590 0.00100
C 	C 	0.80348 0.08980 0.23800 -0.09900
H 	H 	0.80700 0.06960 0.25880 0.06600
C 	C 	0.76951 0.11547 0.23857 0.00900
H 	H 	0.74940 0.11300 0.26000 0.03800
C 	C 	0.76526 0.14372 0.20866 -0.04800
C 	C 	0.79618 0.14740 0.17730 0.03700
H 	H 	0.79350 0.16810 0.15650 0.01400
C 	C 	0.94792 0.13454 0.07878 0.05900
H 	H 	0.94720 0.13200 0.10120 0.00000
C 	C 	0.97689 0.14249 0.04791 -0.09900
H 	H 	0.99460 0.14700 0.04880 0.06700
C 	C 	0.97885 0.14355 0.01615 0.01000
H 	H 	0.99860 0.14780 0.99500 0.03700
C 	C 	0.95194 0.13838 0.01544 -0.05500
C 	C 	0.92359 0.13165 0.04779 0.04800
H 	H 	0.90500 0.12780 0.04760 0.00900
C 	C 	0.95285 0.13873 0.98265 0.13500
C 	C 	0.92925 0.07715 0.16987 0.10800
N 	N 	0.89134 0.40506 0.13282 -0.26300
N 	N 	0.84064 0.15594 0.09522 -0.26600
N 	N 	0.90308 0.11562 0.31640 -0.22300
N 	N 	0.88415 0.33273 0.16729 -0.22300
N 	N 	0.88874 0.23822 0.17072 -0.15100
N 	N 	0.90274 0.20564 0.22430 -0.15300
N 	N 	0.89919 0.17529 0.19709 -0.15300
N 	N 	0.87221 0.17631 0.12275 -0.22900
N 	N 	0.87003 0.07827 0.13029 -0.22900
N 	N 	0.95485 0.98333 0.13887 -0.15200
S 	S 	0.91434 0.42962 0.15998 -0.06000
S 	S 	0.79858 0.18854 0.05264 -0.06200
C 	C 	0.90166 0.41596 0.14316 0.09700
C 	C 	0.90218 0.14450 0.28586 0.03300
H 	H 	0.89570 0.16730 0.28690 0.01600
C 	C 	0.91010 0.14242 0.25386 -0.04500
C 	C 	0.92147 0.10887 0.25077 0.00700
H 	H 	0.92710 0.10670 0.22870 0.03800
C 	C 	0.92394 0.07960 0.28120 -0.10000
H 	H 	0.93230 0.05630 0.28030 0.06600
C 	C 	0.91453 0.08355 0.31273 0.05900
H 	H 	0.91600 0.06260 0.33340 -0.00000
C 	C 	0.88669 0.33261 0.19585 0.05800
H 	H 	0.88530 0.35430 0.19550 -0.00100
C 	C 	0.89102 0.30278 0.22452 -0.10300
H 	H 	0.89160 0.30400 0.24440 0.06600
C 	C 	0.89458 0.27102 0.22550 0.01400
H 	H 	0.89800 0.25000 0.24580 0.03500
C 	C 	0.89320 0.26932 0.19670 -0.05100
C 	C 	0.88754 0.30082 0.16838 0.03600
H 	H 	0.88590 0.30030 0.14870 0.01700
C 	C 	0.89521 0.23561 0.19729 0.13800
C 	C 	0.90411 0.17679 0.22263 0.13500
C 	C 	0.89120 0.20650 0.17220 0.13300
C 	C 	0.86736 0.20646 0.09452 0.06000
H 	H 	0.86270 0.20590 0.07670 0.00100
C 	C 	0.86872 0.23800 0.08980 -0.09900
H 	H 	0.86460 0.25880 0.06960 0.06600
C 	C 	0.87645 0.23857 0.11547 0.00900
H 	H 	0.87760 0.26000 0.11300 0.03800
C 	C 	0.88236 0.20866 0.14372 -0.04800
C 	C 	0.87912 0.17730 0.14740 0.03700
H 	H 	0.88190 0.15650 0.16810 0.01400
C 	C 	0.83876 0.07878 0.13454 0.05900
H 	H 	0.81960 0.10120 0.13200 0.00000
C 	C 	0.83271 0.04791 0.14249 -0.09900
H 	H 	0.80960 0.04880 0.14700 0.06700
C 	C 	0.86145 0.01615 0.14355 0.01000
H 	H 	0.85860 0.99500 0.14780 0.03700
C 	C 	0.89424 0.01544 0.13838 -0.05500
C 	C 	0.89697 0.04779 0.13165 0.04800
H 	H 	0.91960 0.04760 0.12780 0.00900
C 	C 	0.92577 0.98265 0.13873 0.13500
C 	C 	0.82373 0.16987 0.07715 0.10800
N 	N 	0.89134 0.13282 0.57078 -0.26300
N 	N 	0.84064 0.09522 0.90820 -0.26600
N 	N 	0.90308 0.31640 0.66490 -0.22300
N 	N 	0.88415 0.16729 0.61583 -0.22300
N 	N 	0.88874 0.17072 0.70232 -0.15100
N 	N 	0.90274 0.22430 0.66732 -0.15300
N 	N 	0.89919 0.19709 0.72843 -0.15300
N 	N 	0.87221 0.12275 0.82873 -0.22900
N 	N 	0.87003 0.13029 0.92141 -0.22900
N 	N 	0.95485 0.13887 0.92295 -0.15200
S 	S 	0.91434 0.15998 0.49606 -0.06000
S 	S 	0.79858 0.05264 0.96024 -0.06200
C 	C 	0.90166 0.14316 0.53922 0.09700
C 	C 	0.90218 0.28586 0.66746 0.03300
H 	H 	0.89570 0.28690 0.65010 0.01600
C 	C 	0.91010 0.25386 0.69362 -0.04500
C 	C 	0.92147 0.25077 0.71889 0.00700
H 	H 	0.92710 0.22870 0.73750 0.03800
C 	C 	0.92394 0.28120 0.71526 -0.10000
H 	H 	0.93230 0.28030 0.73110 0.06600
C 	C 	0.91453 0.31273 0.68919 0.05900
H 	H 	0.91600 0.33340 0.68800 -0.00000
C 	C 	0.88669 0.19585 0.58485 0.05800
H 	H 	0.88530 0.19550 0.56490 -0.00100
C 	C 	0.89102 0.22452 0.58168 -0.10300
H 	H 	0.89160 0.24440 0.56000 0.06600
C 	C 	0.89458 0.22550 0.60890 0.01400
H 	H 	0.89800 0.24580 0.60620 0.03500
C 	C 	0.89320 0.19670 0.64078 -0.05100
C 	C 	0.88754 0.16838 0.64326 0.03600
H 	H 	0.88590 0.14870 0.66510 0.01700
C 	C 	0.89521 0.19729 0.67189 0.13800
C 	C 	0.90411 0.22263 0.69647 0.13500
C 	C 	0.89120 0.17220 0.73010 0.13300
C 	C 	0.86736 0.09452 0.83166 0.06000
H 	H 	0.86270 0.07670 0.85470 0.00100
C 	C 	0.86872 0.08980 0.80348 -0.09900
H 	H 	0.86460 0.06960 0.80700 0.06600
C 	C 	0.87645 0.11547 0.76951 0.00900
H 	H 	0.87760 0.11300 0.74940 0.03800
C 	C 	0.88236 0.14372 0.76526 -0.04800
C 	C 	0.87912 0.14740 0.79618 0.03700
H 	H 	0.88190 0.16810 0.79350 0.01400
C 	C 	0.83876 0.13454 0.94792 0.05900
H 	H 	0.81960 0.13200 0.94720 0.00000
C 	C 	0.83271 0.14249 0.97689 -0.09900
H 	H 	0.80960 0.14700 0.99460 0.06700
C 	C 	0.86145 0.14355 0.97885 0.01000
H 	H 	0.85860 0.14780 0.99860 0.03700
C 	C 	0.89424 0.13838 0.95194 -0.05500
C 	C 	0.89697 0.13165 0.92359 0.04800
H 	H 	0.91960 0.12780 0.90500 0.00900
C 	C 	0.92577 0.13873 0.95285 0.13500
C 	C 	0.82373 0.07715 0.92925 0.10800
N 	N 	0.57078 0.40506 0.89134 -0.26300
N 	N 	0.90820 0.15594 0.84064 -0.26600
N 	N 	0.66490 0.11562 0.90308 -0.22300
N 	N 	0.61583 0.33273 0.88415 -0.22300
N 	N 	0.70232 0.23822 0.88874 -0.15100
N 	N 	0.66732 0.20564 0.90274 -0.15300
N 	N 	0.72843 0.17529 0.89919 -0.15300
N 	N 	0.82873 0.17631 0.87221 -0.22900
N 	N 	0.92141 0.07827 0.87003 -0.22900
N 	N 	0.92295 0.98333 0.95485 -0.15200
S 	S 	0.49606 0.42962 0.91434 -0.06000
S 	S 	0.96024 0.18854 0.79858 -0.06200
C 	C 	0.53922 0.41596 0.90166 0.09700
C 	C 	0.66746 0.14450 0.90218 0.03300
H 	H 	0.65010 0.16730 0.89570 0.01600
C 	C 	0.69362 0.14242 0.91010 -0.04500
C 	C 	0.71889 0.10887 0.92147 0.00700
H 	H 	0.73750 0.10670 0.92710 0.03800
C 	C 	0.71526 0.07960 0.92394 -0.10000
H 	H 	0.73110 0.05630 0.93230 0.06600
C 	C 	0.68919 0.08355 0.91453 0.05900
H 	H 	0.68800 0.06260 0.91600 -0.00000
C 	C 	0.58485 0.33261 0.88669 0.05800
H 	H 	0.56490 0.35430 0.88530 -0.00100
C 	C 	0.58168 0.30278 0.89102 -0.10300
H 	H 	0.56000 0.30400 0.89160 0.06600
C 	C 	0.60890 0.27102 0.89458 0.01400
H 	H 	0.60620 0.25000 0.89800 0.03500
C 	C 	0.64078 0.26932 0.89320 -0.05100
C 	C 	0.64326 0.30082 0.88754 0.03600
H 	H 	0.66510 0.30030 0.88590 0.01700
C 	C 	0.67189 0.23561 0.89521 0.13800
C 	C 	0.69647 0.17679 0.90411 0.13500
C 	C 	0.73010 0.20650 0.89120 0.13300
C 	C 	0.83166 0.20646 0.86736 0.06000
H 	H 	0.85470 0.20590 0.86270 0.00100
C 	C 	0.80348 0.23800 0.86872 -0.09900
H 	H 	0.80700 0.25880 0.86460 0.06600
C 	C 	0.76951 0.23857 0.87645 0.00900
H 	H 	0.74940 0.26000 0.87760 0.03800
C 	C 	0.76526 0.20866 0.88236 -0.04800
C 	C 	0.79618 0.17730 0.87912 0.03700
H 	H 	0.79350 0.15650 0.88190 0.01400
C 	C 	0.94792 0.07878 0.83876 0.05900
H 	H 	0.94720 0.10120 0.81960 0.00000
C 	C 	0.97689 0.04791 0.83271 -0.09900
H 	H 	0.99460 0.04880 0.80960 0.06700
C 	C 	0.97885 0.01615 0.86145 0.01000
H 	H 	0.99860 0.99500 0.85860 0.03700
C 	C 	0.95194 0.01544 0.89424 -0.05500
C 	C 	0.92359 0.04779 0.89697 0.04800
H 	H 	0.90500 0.04760 0.91960 0.00900
C 	C 	0.95285 0.98265 0.92577 0.13500
C 	C 	0.92925 0.16987 0.82373 0.10800
N 	N 	0.40506 0.57078 0.13282 -0.26300
N 	N 	0.15594 0.90820 0.09522 -0.26600
N 	N 	0.11562 0.66490 0.31640 -0.22300
N 	N 	0.33273 0.61583 0.16729 -0.22300
N 	N 	0.23822 0.70232 0.17072 -0.15100
N 	N 	0.20564 0.66732 0.22430 -0.15300
N 	N 	0.17529 0.72843 0.19709 -0.15300
N 	N 	0.17631 0.82873 0.12275 -0.22900
N 	N 	0.07827 0.92141 0.13029 -0.22900
N 	N 	0.98333 0.92295 0.13887 -0.15200
S 	S 	0.42962 0.49606 0.15998 -0.06000
S 	S 	0.18854 0.96024 0.05264 -0.06200
C 	C 	0.41596 0.53922 0.14316 0.09700
C 	C 	0.14450 0.66746 0.28586 0.03300
H 	H 	0.16730 0.65010 0.28690 0.01600
C 	C 	0.14242 0.69362 0.25386 -0.04500
C 	C 	0.10887 0.71889 0.25077 0.00700
H 	H 	0.10670 0.73750 0.22870 0.03800
C 	C 	0.07960 0.71526 0.28120 -0.10000
H 	H 	0.05630 0.73110 0.28030 0.06600
C 	C 	0.08355 0.68919 0.31273 0.05900
H 	H 	0.06260 0.68800 0.33340 -0.00000
C 	C 	0.33261 0.58485 0.19585 0.05800
H 	H 	0.35430 0.56490 0.19550 -0.00100
C 	C 	0.30278 0.58168 0.22452 -0.10300
H 	H 	0.30400 0.56000 0.24440 0.06600
C 	C 	0.27102 0.60890 0.22550 0.01400
H 	H 	0.25000 0.60620 0.24580 0.03500
C 	C 	0.26932 0.64078 0.19670 -0.05100
C 	C 	0.30082 0.64326 0.16838 0.03600
H 	H 	0.30030 0.66510 0.14870 0.01700
C 	C 	0.23561 0.67189 0.19729 0.13800
C 	C 	0.17679 0.69647 0.22263 0.13500
C 	C 	0.20650 0.73010 0.17220 0.13300
C 	C 	0.20646 0.83166 0.09452 0.06000
H 	H 	0.20590 0.85470 0.07670 0.00100
C 	C 	0.23800 0.80348 0.08980 -0.09900
H 	H 	0.25880 0.80700 0.06960 0.06600
C 	C 	0.23857 0.76951 0.11547 0.00900
H 	H 	0.26000 0.74940 0.11300 0.03800
C 	C 	0.20866 0.76526 0.14372 -0.04800
C 	C 	0.17730 0.79618 0.14740 0.03700
H 	H 	0.15650 0.79350 0.16810 0.01400
C 	C 	0.07878 0.94792 0.13454 0.05900
H 	H 	0.10120 0.94720 0.13200 0.00000
C 	C 	0.04791 0.97689 0.14249 -0.09900
H 	H 	0.04880 0.99460 0.14700 0.06700
C 	C 	0.01615 0.97885 0.14355 0.01000
H 	H 	0.99500 0.99860 0.14780 0.03700
C 	C 	0.01544 0.95194 0.13838 -0.05500
C 	C 	0.04779 0.92359 0.13165 0.04800
H 	H 	0.04760 0.90500 0.12780 0.00900
C 	C 	0.98265 0.95285 0.13873 0.13500
C 	C 	0.16987 0.92925 0.07715 0.10800
N 	N 	0.13282 0.89134 0.40506 -0.26300
N 	N 	0.09522 0.84064 0.15594 -0.26600
N 	N 	0.31640 0.90308 0.11562 -0.22300
N 	N 	0.16729 0.88415 0.33273 -0.22300
N 	N 	0.17072 0.88874 0.23822 -0.15100
N 	N 	0.22430 0.90274 0.20564 -0.15300
N 	N 	0.19709 0.89919 0.17529 -0.15300
N 	N 	0.12275 0.87221 0.17631 -0.22900
N 	N 	0.13029 0.87003 0.07827 -0.22900
N 	N 	0.13887 0.95485 0.98333 -0.15200
S 	S 	0.15998 0.91434 0.42962 -0.06000
S 	S 	0.05264 0.79858 0.18854 -0.06200
C 	C 	0.14316 0.90166 0.41596 0.09700
C 	C 	0.28586 0.90218 0.14450 0.03300
H 	H 	0.28690 0.89570 0.16730 0.01600
C 	C 	0.25386 0.91010 0.14242 -0.04500
C 	C 	0.25077 0.92147 0.10887 0.00700
H 	H 	0.22870 0.92710 0.10670 0.03800
C 	C 	0.28120 0.92394 0.07960 -0.10000
H 	H 	0.28030 0.93230 0.05630 0.06600
C 	C 	0.31273 0.91453 0.08355 0.05900
H 	H 	0.33340 0.91600 0.06260 -0.00000
C 	C 	0.19585 0.88669 0.33261 0.05800
H 	H 	0.19550 0.88530 0.35430 -0.00100
C 	C 	0.22452 0.89102 0.30278 -0.10300
H 	H 	0.24440 0.89160 0.30400 0.06600
C 	C 	0.22550 0.89458 0.27102 0.01400
H 	H 	0.24580 0.89800 0.25000 0.03500
C 	C 	0.19670 0.89320 0.26932 -0.05100
C 	C 	0.16838 0.88754 0.30082 0.03600
H 	H 	0.14870 0.88590 0.30030 0.01700
C 	C 	0.19729 0.89521 0.23561 0.13800
C 	C 	0.22263 0.90411 0.17679 0.13500
C 	C 	0.17220 0.89120 0.20650 0.13300
C 	C 	0.09452 0.86736 0.20646 0.06000
H 	H 	0.07670 0.86270 0.20590 0.00100
C 	C 	0.08980 0.86872 0.23800 -0.09900
H 	H 	0.06960 0.86460 0.25880 0.06600
C 	C 	0.11547 0.87645 0.23857 0.00900
H 	H 	0.11300 0.87760 0.26000 0.03800
C 	C 	0.14372 0.88236 0.20866 -0.04800
C 	C 	0.14740 0.87912 0.17730 0.03700
H 	H 	0.16810 0.88190 0.15650 0.01400
C 	C 	0.13454 0.83876 0.07878 0.05900
H 	H 	0.13200 0.81960 0.10120 0.00000
C 	C 	0.14249 0.83271 0.04791 -0.09900
H 	H 	0.14700 0.80960 0.04880 0.06700
C 	C 	0.14355 0.86145 0.01615 0.01000
H 	H 	0.14780 0.85860 0.99500 0.03700
C 	C 	0.13838 0.89424 0.01544 -0.05500
C 	C 	0.13165 0.89697 0.04779 0.04800
H 	H 	0.12780 0.91960 0.04760 0.00900
C 	C 	0.13873 0.92577 0.98265 0.13500
C 	C 	0.07715 0.82373 0.16987 0.10800
N 	N 	0.67922 0.35866 0.84494 -0.26300
N 	N 	0.34180 0.40936 0.09406 -0.26600
N 	N 	0.58510 0.34692 0.13438 -0.22300
N 	N 	0.63417 0.36585 0.91727 -0.22300
N 	N 	0.54768 0.36126 0.01178 -0.15100
N 	N 	0.58268 0.34726 0.04436 -0.15300
N 	N 	0.52157 0.35081 0.07471 -0.15300
N 	N 	0.42127 0.37779 0.07369 -0.22900
N 	N 	0.32859 0.37997 0.17173 -0.22900
N 	N 	0.32705 0.29515 0.26667 -0.15200
S 	S 	0.75394 0.33566 0.82038 -0.06000
S 	S 	0.28976 0.45142 0.06146 -0.06200
C 	C 	0.71078 0.34834 0.83404 0.09700
C 	C 	0.58254 0.34782 0.10550 0.03300
H 	H 	0.59990 0.35430 0.08270 0.01600
C 	C 	0.55638 0.33990 0.10758 -0.04500
C 	C 	0.53111 0.32853 0.14113 0.00700
H 	H 	0.51250 0.32290 0.14330 0.03800
C 	C 	0.53474 0.32606 0.17040 -0.10000
H 	H 	0.51890 0.31770 0.19370 0.06600
C 	C 	0.56081 0.33547 0.16645 0.05900
H 	H 	0.56200 0.33400 0.18740 -0.00000
C 	C 	0.66515 0.36331 0.91739 0.05800
H 	H 	0.68510 0.36470 0.89570 -0.00100
C 	C 	0.66832 0.35898 0.94722 -0.10300
H 	H 	0.69000 0.35840 0.94600 0.06600
C 	C 	0.64110 0.35542 0.97898 0.01400
H 	H 	0.64380 0.35200 -0.00000 0.03500
C 	C 	0.60922 0.35680 0.98068 -0.05100
C 	C 	0.60674 0.36246 0.94918 0.03600
H 	H 	0.58490 0.36410 0.94970 0.01700
C 	C 	0.57811 0.35479 0.01439 0.13800
C 	C 	0.55353 0.34589 0.07321 0.13500
C 	C 	0.51990 0.35880 0.04350 0.13300
C 	C 	0.41834 0.38264 0.04354 0.06000
H 	H 	0.39530 0.38730 0.04410 0.00100
C 	C 	0.44652 0.38128 0.01200 -0.09900
H 	H 	0.44300 0.38540 0.99120 0.06600
C 	C 	0.48049 0.37355 0.01143 0.00900
H 	H 	0.50060 0.37240 0.99000 0.03800
C 	C 	0.48474 0.36764 0.04134 -0.04800
C 	C 	0.45382 0.37088 0.07270 0.03700
H 	H 	0.45650 0.36810 0.09350 0.01400
C 	C 	0.30208 0.41124 0.17122 0.05900
H 	H 	0.30280 0.43040 0.14880 0.00000
C 	C 	0.27311 0.41729 0.20209 -0.09900
H 	H 	0.25540 0.44040 0.20120 0.06700
C 	C 	0.27115 0.38855 0.23385 0.01000
H 	H 	0.25140 0.39140 0.25500 0.03700
C 	C 	0.29806 0.35576 0.23456 -0.05500
C 	C 	0.32641 0.35303 0.20221 0.04800
H 	H 	0.34500 0.33040 0.20240 0.00900
C 	C 	0.29715 0.32423 0.26735 0.13500
C 	C 	0.32075 0.42627 0.08013 0.10800
N 	N 	0.35866 0.67922 0.11718 -0.26300
N 	N 	0.40936 0.34180 0.15478 -0.26600
N 	N 	0.34692 0.58510 0.93360 -0.22300
N 	N 	0.36585 0.63417 0.08271 -0.22300
N 	N 	0.36126 0.54768 0.07928 -0.15100
N 	N 	0.34726 0.58268 0.02570 -0.15300
N 	N 	0.35081 0.52157 0.05291 -0.15300
N 	N 	0.37779 0.42127 0.12725 -0.22900
N 	N 	0.37997 0.32859 0.11971 -0.22900
N 	N 	0.29515 0.32705 0.11113 -0.15200
S 	S 	0.33566 0.75394 0.09002 -0.06000
S 	S 	0.45142 0.28976 0.19736 -0.06200
C 	C 	0.34834 0.71078 0.10684 0.09700
C 	C 	0.34782 0.58254 0.96414 0.03300
H 	H 	0.35430 0.59990 0.96310 0.01600
C 	C 	0.33990 0.55638 0.99614 -0.04500
C 	C 	0.32853 0.53111 0.99923 0.00700
H 	H 	0.32290 0.51250 0.02130 0.03800
C 	C 	0.32606 0.53474 0.96880 -0.10000
H 	H 	0.31770 0.51890 0.96970 0.06600
C 	C 	0.33547 0.56081 0.93727 0.05900
H 	H 	0.33400 0.56200 0.91660 -0.00000
C 	C 	0.36331 0.66515 0.05415 0.05800
H 	H 	0.36470 0.68510 0.05450 -0.00100
C 	C 	0.35898 0.66832 0.02548 -0.10300
H 	H 	0.35840 0.69000 0.00560 0.06600
C 	C 	0.35542 0.64110 0.02450 0.01400
H 	H 	0.35200 0.64380 0.00420 0.03500
C 	C 	0.35680 0.60922 0.05330 -0.05100
C 	C 	0.36246 0.60674 0.08162 0.03600
H 	H 	0.36410 0.58490 0.10130 0.01700
C 	C 	0.35479 0.57811 0.05271 0.13800
C 	C 	0.34589 0.55353 0.02737 0.13500
C 	C 	0.35880 0.51990 0.07780 0.13300
C 	C 	0.38264 0.41834 0.15548 0.06000
H 	H 	0.38730 0.39530 0.17330 0.00100
C 	C 	0.38128 0.44652 0.16020 -0.09900
H 	H 	0.38540 0.44300 0.18040 0.06600
C 	C 	0.37355 0.48049 0.13453 0.00900
H 	H 	0.37240 0.50060 0.13700 0.03800
C 	C 	0.36764 0.48474 0.10628 -0.04800
C 	C 	0.37088 0.45382 0.10260 0.03700
H 	H 	0.36810 0.45650 0.08190 0.01400
C 	C 	0.41124 0.30208 0.11546 0.05900
H 	H 	0.43040 0.30280 0.11800 0.00000
C 	C 	0.41729 0.27311 0.10751 -0.09900
H 	H 	0.44040 0.25540 0.10300 0.06700
C 	C 	0.38855 0.27115 0.10645 0.01000
H 	H 	0.39140 0.25140 0.10220 0.03700
C 	C 	0.35576 0.29806 0.11162 -0.05500
C 	C 	0.35303 0.32641 0.11835 0.04800
H 	H 	0.33040 0.34500 0.12220 0.00900
C 	C 	0.32423 0.29715 0.11127 0.13500
C 	C 	0.42627 0.32075 0.17285 0.10800
N 	N 	0.11718 0.84494 0.35866 -0.26300
N 	N 	0.15478 0.09406 0.40936 -0.26600
N 	N 	0.93360 0.13438 0.34692 -0.22300
N 	N 	0.08271 0.91727 0.36585 -0.22300
N 	N 	0.07928 0.01178 0.36126 -0.15100
N 	N 	0.02570 0.04436 0.34726 -0.15300
N 	N 	0.05291 0.07471 0.35081 -0.15300
N 	N 	0.12725 0.07369 0.37779 -0.22900
N 	N 	0.11971 0.17173 0.37997 -0.22900
N 	N 	0.11113 0.26667 0.29515 -0.15200
S 	S 	0.09002 0.82038 0.33566 -0.06000
S 	S 	0.19736 0.06146 0.45142 -0.06200
C 	C 	0.10684 0.83404 0.34834 0.09700
C 	C 	0.96414 0.10550 0.34782 0.03300
H 	H 	0.96310 0.08270 0.35430 0.01600
C 	C 	0.99614 0.10758 0.33990 -0.04500
C 	C 	0.99923 0.14113 0.32853 0.00700
H 	H 	0.02130 0.14330 0.32290 0.03800
C 	C 	0.96880 0.17040 0.32606 -0.10000
H 	H 	0.96970 0.19370 0.31770 0.06600
C 	C 	0.93727 0.16645 0.33547 0.05900
H 	H 	0.91660 0.18740 0.33400 -0.00000
C 	C 	0.05415 0.91739 0.36331 0.05800
H 	H 	0.05450 0.89570 0.36470 -0.00100
C 	C 	0.02548 0.94722 0.35898 -0.10300
H 	H 	0.00560 0.94600 0.35840 0.06600
C 	C 	0.02450 0.97898 0.35542 0.01400
H 	H 	0.00420 -0.00000 0.35200 0.03500
C 	C 	0.05330 0.98068 0.35680 -0.05100
C 	C 	0.08162 0.94918 0.36246 0.03600
H 	H 	0.10130 0.94970 0.36410 0.01700
C 	C 	0.05271 0.01439 0.35479 0.13800
C 	C 	0.02737 0.07321 0.34589 0.13500
C 	C 	0.07780 0.04350 0.35880 0.13300
C 	C 	0.15548 0.04354 0.38264 0.06000
H 	H 	0.17330 0.04410 0.38730 0.00100
C 	C 	0.16020 0.01200 0.38128 -0.09900
H 	H 	0.18040 0.99120 0.38540 0.06600
C 	C 	0.13453 0.01143 0.37355 0.00900
H 	H 	0.13700 0.99000 0.37240 0.03800
C 	C 	0.10628 0.04134 0.36764 -0.04800
C 	C 	0.10260 0.07270 0.37088 0.03700
H 	H 	0.08190 0.09350 0.36810 0.01400
C 	C 	0.11546 0.17122 0.41124 0.05900
H 	H 	0.11800 0.14880 0.43040 0.00000
C 	C 	0.10751 0.20209 0.41729 -0.09900
H 	H 	0.10300 0.20120 0.44040 0.06700
C 	C 	0.10645 0.23385 0.38855 0.01000
H 	H 	0.10220 0.25500 0.39140 0.03700
C 	C 	0.11162 0.23456 0.35576 -0.05500
C 	C 	0.11835 0.20221 0.35303 0.04800
H 	H 	0.12220 0.20240 0.33040 0.00900
C 	C 	0.11127 0.26735 0.32423 0.13500
C 	C 	0.17285 0.08013 0.42627 0.10800
N 	N 	0.84494 0.11718 0.67922 -0.26300
N 	N 	0.09406 0.15478 0.34180 -0.26600
N 	N 	0.13438 0.93360 0.58510 -0.22300
N 	N 	0.91727 0.08271 0.63417 -0.22300
N 	N 	0.01178 0.07928 0.54768 -0.15100
N 	N 	0.04436 0.02570 0.58268 -0.15300
N 	N 	0.07471 0.05291 0.52157 -0.15300
N 	N 	0.07369 0.12725 0.42127 -0.22900
N 	N 	0.17173 0.11971 0.32859 -0.22900
N 	N 	0.26667 0.11113 0.32705 -0.15200
S 	S 	0.82038 0.09002 0.75394 -0.06000
S 	S 	0.06146 0.19736 0.28976 -0.06200
C 	C 	0.83404 0.10684 0.71078 0.09700
C 	C 	0.10550 0.96414 0.58254 0.03300
H 	H 	0.08270 0.96310 0.59990 0.01600
C 	C 	0.10758 0.99614 0.55638 -0.04500
C 	C 	0.14113 0.99923 0.53111 0.00700
H 	H 	0.14330 0.02130 0.51250 0.03800
C 	C 	0.17040 0.96880 0.53474 -0.10000
H 	H 	0.19370 0.96970 0.51890 0.06600
C 	C 	0.16645 0.93727 0.56081 0.05900
H 	H 	0.18740 0.91660 0.56200 -0.00000
C 	C 	0.91739 0.05415 0.66515 0.05800
H 	H 	0.89570 0.05450 0.68510 -0.00100
C 	C 	0.94722 0.02548 0.66832 -0.10300
H 	H 	0.94600 0.00560 0.69000 0.06600
C 	C 	0.97898 0.02450 0.64110 0.01400
H 	H 	-0.00000 0.00420 0.64380 0.03500
C 	C 	0.98068 0.05330 0.60922 -0.05100
C 	C 	0.94918 0.08162 0.60674 0.03600
H 	H 	0.94970 0.10130 0.58490 0.01700
C 	C 	0.01439 0.05271 0.57811 0.13800
C 	C 	0.07321 0.02737 0.55353 0.13500
C 	C 	0.04350 0.07780 0.51990 0.13300
C 	C 	0.04354 0.15548 0.41834 0.06000
H 	H 	0.04410 0.17330 0.39530 0.00100
C 	C 	0.01200 0.16020 0.44652 -0.09900
H 	H 	0.99120 0.18040 0.44300 0.06600
C 	C 	0.01143 0.13453 0.48049 0.00900
H 	H 	0.99000 0.13700 0.50060 0.03800
C 	C 	0.04134 0.10628 0.48474 -0.04800
C 	C 	0.07270 0.10260 0.45382 0.03700
H 	H 	0.09350 0.08190 0.45650 0.01400
C 	C 	0.17122 0.11546 0.30208 0.05900
H 	H 	0.14880 0.11800 0.30280 0.00000
C 	C 	0.20209 0.10751 0.27311 -0.09900
H 	H 	0.20120 0.10300 0.25540 0.06700
C 	C 	0.23385 0.10645 0.27115 0.01000
H 	H 	0.25500 0.10220 0.25140 0.03700
C 	C 	0.23456 0.11162 0.29806 -0.05500
C 	C 	0.20221 0.11835 0.32641 0.04800
H 	H 	0.20240 0.12220 0.34500 0.00900
C 	C 	0.26735 0.11127 0.29715 0.13500
C 	C 	0.08013 0.17285 0.32075 0.10800
N 	N 	0.11718 0.67922 0.84494 -0.26300
N 	N 	0.15478 0.34180 0.09406 -0.26600
N 	N 	0.93360 0.58510 0.13438 -0.22300
N 	N 	0.08271 0.63417 0.91727 -0.22300
N 	N 	0.07928 0.54768 0.01178 -0.15100
N 	N 	0.02570 0.58268 0.04436 -0.15300
N 	N 	0.05291 0.52157 0.07471 -0.15300
N 	N 	0.12725 0.42127 0.07369 -0.22900
N 	N 	0.11971 0.32859 0.17173 -0.22900
N 	N 	0.11113 0.32705 0.26667 -0.15200
S 	S 	0.09002 0.75394 0.82038 -0.06000
S 	S 	0.19736 0.28976 0.06146 -0.06200
C 	C 	0.10684 0.71078 0.83404 0.09700
C 	C 	0.96414 0.58254 0.10550 0.03300
H 	H 	0.96310 0.59990 0.08270 0.01600
C 	C 	0.99614 0.55638 0.10758 -0.04500
C 	C 	0.99923 0.53111 0.14113 0.00700
H 	H 	0.02130 0.51250 0.14330 0.03800
C 	C 	0.96880 0.53474 0.17040 -0.10000
H 	H 	0.96970 0.51890 0.19370 0.06600
C 	C 	0.93727 0.56081 0.16645 0.05900
H 	H 	0.91660 0.56200 0.18740 -0.00000
C 	C 	0.05415 0.66515 0.91739 0.05800
H 	H 	0.05450 0.68510 0.89570 -0.00100
C 	C 	0.02548 0.66832 0.94722 -0.10300
H 	H 	0.00560 0.69000 0.94600 0.06600
C 	C 	0.02450 0.64110 0.97898 0.01400
H 	H 	0.00420 0.64380 -0.00000 0.03500
C 	C 	0.05330 0.60922 0.98068 -0.05100
C 	C 	0.08162 0.60674 0.94918 0.03600
H 	H 	0.10130 0.58490 0.94970 0.01700
C 	C 	0.05271 0.57811 0.01439 0.13800
C 	C 	0.02737 0.55353 0.07321 0.13500
C 	C 	0.07780 0.51990 0.04350 0.13300
C 	C 	0.15548 0.41834 0.04354 0.06000
H 	H 	0.17330 0.39530 0.04410 0.00100
C 	C 	0.16020 0.44652 0.01200 -0.09900
H 	H 	0.18040 0.44300 0.99120 0.06600
C 	C 	0.13453 0.48049 0.01143 0.00900
H 	H 	0.13700 0.50060 0.99000 0.03800
C 	C 	0.10628 0.48474 0.04134 -0.04800
C 	C 	0.10260 0.45382 0.07270 0.03700
H 	H 	0.08190 0.45650 0.09350 0.01400
C 	C 	0.11546 0.30208 0.17122 0.05900
H 	H 	0.11800 0.30280 0.14880 0.00000
C 	C 	0.10751 0.27311 0.20209 -0.09900
H 	H 	0.10300 0.25540 0.20120 0.06700
C 	C 	0.10645 0.27115 0.23385 0.01000
H 	H 	0.10220 0.25140 0.25500 0.03700
C 	C 	0.11162 0.29806 0.23456 -0.05500
C 	C 	0.11835 0.32641 0.20221 0.04800
H 	H 	0.12220 0.34500 0.20240 0.00900
C 	C 	0.11127 0.29715 0.26735 0.13500
C 	C 	0.17285 0.32075 0.08013 0.10800
N 	N 	0.84494 0.35866 0.11718 -0.26300
N 	N 	0.09406 0.40936 0.15478 -0.26600
N 	N 	0.13438 0.34692 0.93360 -0.22300
N 	N 	0.91727 0.36585 0.08271 -0.22300
N 	N 	0.01178 0.36126 0.07928 -0.15100
N 	N 	0.04436 0.34726 0.02570 -0.15300
N 	N 	0.07471 0.35081 0.05291 -0.15300
N 	N 	0.07369 0.37779 0.12725 -0.22900
N 	N 	0.17173 0.37997 0.11971 -0.22900
N 	N 	0.26667 0.29515 0.11113 -0.15200
S 	S 	0.82038 0.33566 0.09002 -0.06000
S 	S 	0.06146 0.45142 0.19736 -0.06200
C 	C 	0.83404 0.34834 0.10684 0.09700
C 	C 	0.10550 0.34782 0.96414 0.03300
H 	H 	0.08270 0.35430 0.96310 0.01600
C 	C 	0.10758 0.33990 0.99614 -0.04500
C 	C 	0.14113 0.32853 0.99923 0.00700
H 	H 	0.14330 0.32290 0.02130 0.03800
C 	C 	0.17040 0.32606 0.96880 -0.10000
H 	H 	0.19370 0.31770 0.96970 0.06600
C 	C 	0.16645 0.33547 0.93727 0.05900
H 	H 	0.18740 0.33400 0.91660 -0.00000
C 	C 	0.91739 0.36331 0.05415 0.05800
H 	H 	0.89570 0.36470 0.05450 -0.00100
C 	C 	0.94722 0.35898 0.02548 -0.10300
H 	H 	0.94600 0.35840 0.00560 0.06600
C 	C 	0.97898 0.35542 0.02450 0.01400
H 	H 	-0.00000 0.35200 0.00420 0.03500
C 	C 	0.98068 0.35680 0.05330 -0.05100
C 	C 	0.94918 0.36246 0.08162 0.03600
H 	H 	0.94970 0.36410 0.10130 0.01700
C 	C 	0.01439 0.35479 0.05271 0.13800
C 	C 	0.07321 0.34589 0.02737 0.13500
C 	C 	0.04350 0.35880 0.07780 0.13300
C 	C 	0.04354 0.38264 0.15548 0.06000
H 	H 	0.04410 0.38730 0.17330 0.00100
C 	C 	0.01200 0.38128 0.16020 -0.09900
H 	H 	0.99120 0.38540 0.18040 0.06600
C 	C 	0.01143 0.37355 0.13453 0.00900
H 	H 	0.99000 0.37240 0.13700 0.03800
C 	C 	0.04134 0.36764 0.10628 -0.04800
C 	C 	0.07270 0.37088 0.10260 0.03700
H 	H 	0.09350 0.36810 0.08190 0.01400
C 	C 	0.17122 0.41124 0.11546 0.05900
H 	H 	0.14880 0.43040 0.11800 0.00000
C 	C 	0.20209 0.41729 0.10751 -0.09900
H 	H 	0.20120 0.44040 0.10300 0.06700
C 	C 	0.23385 0.38855 0.10645 0.01000
H 	H 	0.25500 0.39140 0.10220 0.03700
C 	C 	0.23456 0.35576 0.11162 -0.05500
C 	C 	0.20221 0.35303 0.11835 0.04800
H 	H 	0.20240 0.33040 0.12220 0.00900
C 	C 	0.26735 0.32423 0.11127 0.13500
C 	C 	0.08013 0.42627 0.17285 0.10800
N 	N 	0.67922 0.11718 0.35866 -0.26300
N 	N 	0.34180 0.15478 0.40936 -0.26600
N 	N 	0.58510 0.93360 0.34692 -0.22300
N 	N 	0.63417 0.08271 0.36585 -0.22300
N 	N 	0.54768 0.07928 0.36126 -0.15100
N 	N 	0.58268 0.02570 0.34726 -0.15300
N 	N 	0.52157 0.05291 0.35081 -0.15300
N 	N 	0.42127 0.12725 0.37779 -0.22900
N 	N 	0.32859 0.11971 0.37997 -0.22900
N 	N 	0.32705 0.11113 0.29515 -0.15200
S 	S 	0.75394 0.09002 0.33566 -0.06000
S 	S 	0.28976 0.19736 0.45142 -0.06200
C 	C 	0.71078 0.10684 0.34834 0.09700
C 	C 	0.58254 0.96414 0.34782 0.03300
H 	H 	0.59990 0.96310 0.35430 0.01600
C 	C 	0.55638 0.99614 0.33990 -0.04500
C 	C 	0.53111 0.99923 0.32853 0.00700
H 	H 	0.51250 0.02130 0.32290 0.03800
C 	C 	0.53474 0.96880 0.32606 -0.10000
H 	H 	0.51890 0.96970 0.31770 0.06600
C 	C 	0.56081 0.93727 0.33547 0.05900
H 	H 	0.56200 0.91660 0.33400 -0.00000
C 	C 	0.66515 0.05415 0.36331 0.05800
H 	H 	0.68510 0.05450 0.36470 -0.00100
C 	C 	0.66832 0.02548 0.35898 -0.10300
H 	H 	0.69000 0.00560 0.35840 0.06600
C 	C 	0.64110 0.02450 0.35542 0.01400
H 	H 	0.64380 0.00420 0.35200 0.03500
C 	C 	0.60922 0.05330 0.35680 -0.05100
C 	C 	0.60674 0.08162 0.36246 0.03600
H 	H 	0.58490 0.10130 0.36410 0.01700
C 	C 	0.57811 0.05271 0.35479 0.13800
C 	C 	0.55353 0.02737 0.34589 0.13500
C 	C 	0.51990 0.07780 0.35880 0.13300
C 	C 	0.41834 0.15548 0.38264 0.06000
H 	H 	0.39530 0.17330 0.38730 0.00100
C 	C 	0.44652 0.16020 0.38128 -0.09900
H 	H 	0.44300 0.18040 0.38540 0.06600
C 	C 	0.48049 0.13453 0.37355 0.00900
H 	H 	0.50060 0.13700 0.37240 0.03800
C 	C 	0.48474 0.10628 0.36764 -0.04800
C 	C 	0.45382 0.10260 0.37088 0.03700
H 	H 	0.45650 0.08190 0.36810 0.01400
C 	C 	0.30208 0.11546 0.41124 0.05900
H 	H 	0.30280 0.11800 0.43040 0.00000
C 	C 	0.27311 0.10751 0.41729 -0.09900
H 	H 	0.25540 0.10300 0.44040 0.06700
C 	C 	0.27115 0.10645 0.38855 0.01000
H 	H 	0.25140 0.10220 0.39140 0.03700
C 	C 	0.29806 0.11162 0.35576 -0.05500
C 	C 	0.32641 0.11835 0.35303 0.04800
H 	H 	0.34500 0.12220 0.33040 0.00900
C 	C 	0.29715 0.11127 0.32423 0.13500
C 	C 	0.32075 0.17285 0.42627 0.10800
N 	N 	0.35866 0.84494 0.67922 -0.26300
N 	N 	0.40936 0.09406 0.34180 -0.26600
N 	N 	0.34692 0.13438 0.58510 -0.22300
N 	N 	0.36585 0.91727 0.63417 -0.22300
N 	N 	0.36126 0.01178 0.54768 -0.15100
N 	N 	0.34726 0.04436 0.58268 -0.15300
N 	N 	0.35081 0.07471 0.52157 -0.15300
N 	N 	0.37779 0.07369 0.42127 -0.22900
N 	N 	0.37997 0.17173 0.32859 -0.22900
N 	N 	0.29515 0.26667 0.32705 -0.15200
S 	S 	0.33566 0.82038 0.75394 -0.06000
S 	S 	0.45142 0.06146 0.28976 -0.06200
C 	C 	0.34834 0.83404 0.71078 0.09700
C 	C 	0.34782 0.10550 0.58254 0.03300
H 	H 	0.35430 0.08270 0.59990 0.01600
C 	C 	0.33990 0.10758 0.55638 -0.04500
C 	C 	0.32853 0.14113 0.53111 0.00700
H 	H 	0.32290 0.14330 0.51250 0.03800
C 	C 	0.32606 0.17040 0.53474 -0.10000
H 	H 	0.31770 0.19370 0.51890 0.06600
C 	C 	0.33547 0.16645 0.56081 0.05900
H 	H 	0.33400 0.18740 0.56200 -0.00000
C 	C 	0.36331 0.91739 0.66515 0.05800
H 	H 	0.36470 0.89570 0.68510 -0.00100
C 	C 	0.35898 0.94722 0.66832 -0.10300
H 	H 	0.35840 0.94600 0.69000 0.06600
C 	C 	0.35542 0.97898 0.64110 0.01400
H 	H 	0.35200 -0.00000 0.64380 0.03500
C 	C 	0.35680 0.98068 0.60922 -0.05100
C 	C 	0.36246 0.94918 0.60674 0.03600
H 	H 	0.36410 0.94970 0.58490 0.01700
C 	C 	0.35479 0.01439 0.57811 0.13800
C 	C 	0.34589 0.07321 0.55353 0.13500
C 	C 	0.35880 0.04350 0.51990 0.13300
C 	C 	0.38264 0.04354 0.41834 0.06000
H 	H 	0.38730 0.04410 0.39530 0.00100
C 	C 	0.38128 0.01200 0.44652 -0.09900
H 	H 	0.38540 0.99120 0.44300 0.06600
C 	C 	0.37355 0.01143 0.48049 0.00900
H 	H 	0.37240 0.99000 0.50060 0.03800
C 	C 	0.36764 0.04134 0.48474 -0.04800
C 	C 	0.37088 0.07270 0.45382 0.03700
H 	H 	0.36810 0.09350 0.45650 0.01400
C 	C 	0.41124 0.17122 0.30208 0.05900
H 	H 	0.43040 0.14880 0.30280 0.00000
C 	C 	0.41729 0.20209 0.27311 -0.09900
H 	H 	0.44040 0.20120 0.25540 0.06700
C 	C 	0.38855 0.23385 0.27115 0.01000
H 	H 	0.39140 0.25500 0.25140 0.03700
C 	C 	0.35576 0.23456 0.29806 -0.05500
C 	C 	0.35303 0.20221 0.32641 0.04800
H 	H 	0.33040 0.20240 0.34500 0.00900
C 	C 	0.32423 0.26735 0.29715 0.13500
C 	C 	0.42627 0.08013 0.32075 0.10800
N 	N 	0.35866 0.11718 0.84494 -0.26300
N 	N 	0.40936 0.15478 0.09406 -0.26600
N 	N 	0.34692 0.93360 0.13438 -0.22300
N 	N 	0.36585 0.08271 0.91727 -0.22300
N 	N 	0.36126 0.07928 0.01178 -0.15100
N 	N 	0.34726 0.02570 0.04436 -0.15300
N 	N 	0.35081 0.05291 0.07471 -0.15300
N 	N 	0.37779 0.12725 0.07369 -0.22900
N 	N 	0.37997 0.11971 0.17173 -0.22900
N 	N 	0.29515 0.11113 0.26667 -0.15200
S 	S 	0.33566 0.09002 0.82038 -0.06000
S 	S 	0.45142 0.19736 0.06146 -0.06200
C 	C 	0.34834 0.10684 0.83404 0.09700
C 	C 	0.34782 0.96414 0.10550 0.03300
H 	H 	0.35430 0.96310 0.08270 0.01600
C 	C 	0.33990 0.99614 0.10758 -0.04500
C 	C 	0.32853 0.99923 0.14113 0.00700
H 	H 	0.32290 0.02130 0.14330 0.03800
C 	C 	0.32606 0.96880 0.17040 -0.10000
H 	H 	0.31770 0.96970 0.19370 0.06600
C 	C 	0.33547 0.93727 0.16645 0.05900
H 	H 	0.33400 0.91660 0.18740 -0.00000
C 	C 	0.36331 0.05415 0.91739 0.05800
H 	H 	0.36470 0.05450 0.89570 -0.00100
C 	C 	0.35898 0.02548 0.94722 -0.10300
H 	H 	0.35840 0.00560 0.94600 0.06600
C 	C 	0.35542 0.02450 0.97898 0.01400
H 	H 	0.35200 0.00420 -0.00000 0.03500
C 	C 	0.35680 0.05330 0.98068 -0.05100
C 	C 	0.36246 0.08162 0.94918 0.03600
H 	H 	0.36410 0.10130 0.94970 0.01700
C 	C 	0.35479 0.05271 0.01439 0.13800
C 	C 	0.34589 0.02737 0.07321 0.13500
C 	C 	0.35880 0.07780 0.04350 0.13300
C 	C 	0.38264 0.15548 0.04354 0.06000
H 	H 	0.38730 0.17330 0.04410 0.00100
C 	C 	0.38128 0.16020 0.01200 -0.09900
H 	H 	0.38540 0.18040 0.99120 0.06600
C 	C 	0.37355 0.13453 0.01143 0.00900
H 	H 	0.37240 0.13700 0.99000 0.03800
C 	C 	0.36764 0.10628 0.04134 -0.04800
C 	C 	0.37088 0.10260 0.07270 0.03700
H 	H 	0.36810 0.08190 0.09350 0.01400
C 	C 	0.41124 0.11546 0.17122 0.05900
H 	H 	0.43040 0.11800 0.14880 0.00000
C 	C 	0.41729 0.10751 0.20209 -0.09900
H 	H 	0.44040 0.10300 0.20120 0.06700
C 	C 	0.38855 0.10645 0.23385 0.01000
H 	H 	0.39140 0.10220 0.25500 0.03700
C 	C 	0.35576 0.11162 0.23456 -0.05500
C 	C 	0.35303 0.11835 0.20221 0.04800
H 	H 	0.33040 0.12220 0.20240 0.00900
C 	C 	0.32423 0.11127 0.26735 0.13500
C 	C 	0.42627 0.17285 0.08013 0.10800
N 	N 	0.67922 0.84494 0.11718 -0.26300
N 	N 	0.34180 0.09406 0.15478 -0.26600
N 	N 	0.58510 0.13438 0.93360 -0.22300
N 	N 	0.63417 0.91727 0.08271 -0.22300
N 	N 	0.54768 0.01178 0.07928 -0.15100
N 	N 	0.58268 0.04436 0.02570 -0.15300
N 	N 	0.52157 0.07471 0.05291 -0.15300
N 	N 	0.42127 0.07369 0.12725 -0.22900
N 	N 	0.32859 0.17173 0.11971 -0.22900
N 	N 	0.32705 0.26667 0.11113 -0.15200
S 	S 	0.75394 0.82038 0.09002 -0.06000
S 	S 	0.28976 0.06146 0.19736 -0.06200
C 	C 	0.71078 0.83404 0.10684 0.09700
C 	C 	0.58254 0.10550 0.96414 0.03300
H 	H 	0.59990 0.08270 0.96310 0.01600
C 	C 	0.55638 0.10758 0.99614 -0.04500
C 	C 	0.53111 0.14113 0.99923 0.00700
H 	H 	0.51250 0.14330 0.02130 0.03800
C 	C 	0.53474 0.17040 0.96880 -0.10000
H 	H 	0.51890 0.19370 0.96970 0.06600
C 	C 	0.56081 0.16645 0.93727 0.05900
H 	H 	0.56200 0.18740 0.91660 -0.00000
C 	C 	0.66515 0.91739 0.05415 0.05800
H 	H 	0.68510 0.89570 0.05450 -0.00100
C 	C 	0.66832 0.94722 0.02548 -0.10300
H 	H 	0.69000 0.94600 0.00560 0.06600
C 	C 	0.64110 0.97898 0.02450 0.01400
H 	H 	0.64380 0.00000 0.00420 0.03500
C 	C 	0.60922 0.98068 0.05330 -0.05100
C 	C 	0.60674 0.94918 0.08162 0.03600
H 	H 	0.58490 0.94970 0.10130 0.01700
C 	C 	0.57811 0.01439 0.05271 0.13800
C 	C 	0.55353 0.07321 0.02737 0.13500
C 	C 	0.51990 0.04350 0.07780 0.13300
C 	C 	0.41834 0.04354 0.15548 0.06000
H 	H 	0.39530 0.04410 0.17330 0.00100
C 	C 	0.44652 0.01200 0.16020 -0.09900
H 	H 	0.44300 0.99120 0.18040 0.06600
C 	C 	0.48049 0.01143 0.13453 0.00900
H 	H 	0.50060 0.99000 0.13700 0.03800
C 	C 	0.48474 0.04134 0.10628 -0.04800
C 	C 	0.45382 0.07270 0.10260 0.03700
H 	H 	0.45650 0.09350 0.08190 0.01400
C 	C 	0.30208 0.17122 0.11546 0.05900
H 	H 	0.30280 0.14880 0.11800 0.00000
C 	C 	0.27311 0.20209 0.10751 -0.09900
H 	H 	0.25540 0.20120 0.10300 0.06700
C 	C 	0.27115 0.23385 0.10645 0.01000
H 	H 	0.25140 0.25500 0.10220 0.03700
C 	C 	0.29806 0.23456 0.11162 -0.05500
C 	C 	0.32641 0.20221 0.11835 0.04800
H 	H 	0.34500 0.20240 0.12220 0.00900
C 	C 	0.29715 0.26735 0.11127 0.13500
C 	C 	0.32075 0.08013 0.17285 0.10800
N 	N 	0.84494 0.67922 0.35866 -0.26300
N 	N 	0.09406 0.34180 0.40936 -0.26600
N 	N 	0.13438 0.58510 0.34692 -0.22300
N 	N 	0.91727 0.63417 0.36585 -0.22300
N 	N 	0.01178 0.54768 0.36126 -0.15100
N 	N 	0.04436 0.58268 0.34726 -0.15300
N 	N 	0.07471 0.52157 0.35081 -0.15300
N 	N 	0.07369 0.42127 0.37779 -0.22900
N 	N 	0.17173 0.32859 0.37997 -0.22900
N 	N 	0.26667 0.32705 0.29515 -0.15200
S 	S 	0.82038 0.75394 0.33566 -0.06000
S 	S 	0.06146 0.28976 0.45142 -0.06200
C 	C 	0.83404 0.71078 0.34834 0.09700
C 	C 	0.10550 0.58254 0.34782 0.03300
H 	H 	0.08270 0.59990 0.35430 0.01600
C 	C 	0.10758 0.55638 0.33990 -0.04500
C 	C 	0.14113 0.53111 0.32853 0.00700
H 	H 	0.14330 0.51250 0.32290 0.03800
C 	C 	0.17040 0.53474 0.32606 -0.10000
H 	H 	0.19370 0.51890 0.31770 0.06600
C 	C 	0.16645 0.56081 0.33547 0.05900
H 	H 	0.18740 0.56200 0.33400 -0.00000
C 	C 	0.91739 0.66515 0.36331 0.05800
H 	H 	0.89570 0.68510 0.36470 -0.00100
C 	C 	0.94722 0.66832 0.35898 -0.10300
H 	H 	0.94600 0.69000 0.35840 0.06600
C 	C 	0.97898 0.64110 0.35542 0.01400
H 	H 	-0.00000 0.64380 0.35200 0.03500
C 	C 	0.98068 0.60922 0.35680 -0.05100
C 	C 	0.94918 0.60674 0.36246 0.03600
H 	H 	0.94970 0.58490 0.36410 0.01700
C 	C 	0.01439 0.57811 0.35479 0.13800
C 	C 	0.07321 0.55353 0.34589 0.13500
C 	C 	0.04350 0.51990 0.35880 0.13300
C 	C 	0.04354 0.41834 0.38264 0.06000
H 	H 	0.04410 0.39530 0.38730 0.00100
C 	C 	0.01200 0.44652 0.38128 -0.09900
H 	H 	0.99120 0.44300 0.38540 0.06600
C 	C 	0.01143 0.48049 0.37355 0.00900
H 	H 	0.99000 0.50060 0.37240 0.03800
C 	C 	0.04134 0.48474 0.36764 -0.04800
C 	C 	0.07270 0.45382 0.37088 0.03700
H 	H 	0.09350 0.45650 0.36810 0.01400
C 	C 	0.17122 0.30208 0.41124 0.05900
H 	H 	0.14880 0.30280 0.43040 0.00000
C 	C 	0.20209 0.27311 0.41729 -0.09900
H 	H 	0.20120 0.25540 0.44040 0.06700
C 	C 	0.23385 0.27115 0.38855 0.01000
H 	H 	0.25500 0.25140 0.39140 0.03700
C 	C 	0.23456 0.29806 0.35576 -0.05500
C 	C 	0.20221 0.32641 0.35303 0.04800
H 	H 	0.20240 0.34500 0.33040 0.00900
C 	C 	0.26735 0.29715 0.32423 0.13500
C 	C 	0.08013 0.32075 0.42627 0.10800
N 	N 	0.11718 0.35866 0.67922 -0.26300
N 	N 	0.15478 0.40936 0.34180 -0.26600
N 	N 	0.93360 0.34692 0.58510 -0.22300
N 	N 	0.08271 0.36585 0.63417 -0.22300
N 	N 	0.07928 0.36126 0.54768 -0.15100
N 	N 	0.02570 0.34726 0.58268 -0.15300
N 	N 	0.05291 0.35081 0.52157 -0.15300
N 	N 	0.12725 0.37779 0.42127 -0.22900
N 	N 	0.11971 0.37997 0.32859 -0.22900
N 	N 	0.11113 0.29515 0.32705 -0.15200
S 	S 	0.09002 0.33566 0.75394 -0.06000
S 	S 	0.19736 0.45142 0.28976 -0.06200
C 	C 	0.10684 0.34834 0.71078 0.09700
C 	C 	0.96414 0.34782 0.58254 0.03300
H 	H 	0.96310 0.35430 0.59990 0.01600
C 	C 	0.99614 0.33990 0.55638 -0.04500
C 	C 	0.99923 0.32853 0.53111 0.00700
H 	H 	0.02130 0.32290 0.51250 0.03800
C 	C 	0.96880 0.32606 0.53474 -0.10000
H 	H 	0.96970 0.31770 0.51890 0.06600
C 	C 	0.93727 0.33547 0.56081 0.05900
H 	H 	0.91660 0.33400 0.56200 -0.00000
C 	C 	0.05415 0.36331 0.66515 0.05800
H 	H 	0.05450 0.36470 0.68510 -0.00100
C 	C 	0.02548 0.35898 0.66832 -0.10300
H 	H 	0.00560 0.35840 0.69000 0.06600
C 	C 	0.02450 0.35542 0.64110 0.01400
H 	H 	0.00420 0.35200 0.64380 0.03500
C 	C 	0.05330 0.35680 0.60922 -0.05100
C 	C 	0.08162 0.36246 0.60674 0.03600
H 	H 	0.10130 0.36410 0.58490 0.01700
C 	C 	0.05271 0.35479 0.57811 0.13800
C 	C 	0.02737 0.34589 0.55353 0.13500
C 	C 	0.07780 0.35880 0.51990 0.13300
C 	C 	0.15548 0.38264 0.41834 0.06000
H 	H 	0.17330 0.38730 0.39530 0.00100
C 	C 	0.16020 0.38128 0.44652 -0.09900
H 	H 	0.18040 0.38540 0.44300 0.06600
C 	C 	0.13453 0.37355 0.48049 0.00900
H 	H 	0.13700 0.37240 0.50060 0.03800
C 	C 	0.10628 0.36764 0.48474 -0.04800
C 	C 	0.10260 0.37088 0.45382 0.03700
H 	H 	0.08190 0.36810 0.45650 0.01400
C 	C 	0.11546 0.41124 0.30208 0.05900
H 	H 	0.11800 0.43040 0.30280 0.00000
C 	C 	0.10751 0.41729 0.27311 -0.09900
H 	H 	0.10300 0.44040 0.25540 0.06700
C 	C 	0.10645 0.38855 0.27115 0.01000
H 	H 	0.10220 0.39140 0.25140 0.03700
C 	C 	0.11162 0.35576 0.29806 -0.05500
C 	C 	0.11835 0.35303 0.32641 0.04800
H 	H 	0.12220 0.33040 0.34500 0.00900
C 	C 	0.11127 0.32423 0.29715 0.13500
C 	C 	0.17285 0.42627 0.32075 0.10800
N 	N 	0.17922 0.85866 0.61718 -0.26300
N 	N 	0.84180 0.90936 0.65478 -0.26600
N 	N 	0.08510 0.84692 0.43360 -0.22300
N 	N 	0.13417 0.86585 0.58271 -0.22300
N 	N 	0.04768 0.86126 0.57928 -0.15100
N 	N 	0.08268 0.84726 0.52570 -0.15300
N 	N 	0.02157 0.85081 0.55291 -0.15300
N 	N 	0.92127 0.87779 0.62725 -0.22900
N 	N 	0.82859 0.87997 0.61971 -0.22900
N 	N 	0.82705 0.79515 0.61113 -0.15200
S 	S 	0.25394 0.83566 0.59002 -0.06000
S 	S 	0.78976 0.95142 0.69736 -0.06200
C 	C 	0.21078 0.84834 0.60684 0.09700
C 	C 	0.08254 0.84782 0.46414 0.03300
H 	H 	0.09990 0.85430 0.46310 0.01600
C 	C 	0.05638 0.83990 0.49614 -0.04500
C 	C 	0.03111 0.82853 0.49923 0.00700
H 	H 	0.01250 0.82290 0.52130 0.03800
C 	C 	0.03474 0.82606 0.46880 -0.10000
H 	H 	0.01890 0.81770 0.46970 0.06600
C 	C 	0.06081 0.83547 0.43727 0.05900
H 	H 	0.06200 0.83400 0.41660 -0.00000
C 	C 	0.16515 0.86331 0.55415 0.05800
H 	H 	0.18510 0.86470 0.55450 -0.00100
C 	C 	0.16832 0.85898 0.52548 -0.10300
H 	H 	0.19000 0.85840 0.50560 0.06600
C 	C 	0.14110 0.85542 0.52450 0.01400
H 	H 	0.14380 0.85200 0.50420 0.03500
C 	C 	0.10922 0.85680 0.55330 -0.05100
C 	C 	0.10674 0.86246 0.58162 0.03600
H 	H 	0.08490 0.86410 0.60130 0.01700
C 	C 	0.07811 0.85479 0.55271 0.13800
C 	C 	0.05353 0.84589 0.52737 0.13500
C 	C 	0.01990 0.85880 0.57780 0.13300
C 	C 	0.91834 0.88264 0.65548 0.06000
H 	H 	0.89530 0.88730 0.67330 0.00100
C 	C 	0.94652 0.88128 0.66020 -0.09900
H 	H 	0.94300 0.88540 0.68040 0.06600
C 	C 	0.98049 0.87355 0.63453 0.00900
H 	H 	0.00060 0.87240 0.63700 0.03800
C 	C 	0.98474 0.86764 0.60628 -0.04800
C 	C 	0.95382 0.87088 0.60260 0.03700
H 	H 	0.95650 0.86810 0.58190 0.01400
C 	C 	0.80208 0.91124 0.61546 0.05900
H 	H 	0.80280 0.93040 0.61800 0.00000
C 	C 	0.77311 0.91729 0.60751 -0.09900
H 	H 	0.75540 0.94040 0.60300 0.06700
C 	C 	0.77115 0.88855 0.60645 0.01000
H 	H 	0.75140 0.89140 0.60220 0.03700
C 	C 	0.79806 0.85576 0.61162 -0.05500
C 	C 	0.82641 0.85303 0.61835 0.04800
H 	H 	0.84500 0.83040 0.62220 0.00900
C 	C 	0.79715 0.82423 0.61127 0.13500
C 	C 	0.82075 0.92627 0.67285 0.10800
N 	N 	0.85866 0.17922 0.34494 -0.26300
N 	N 	0.90936 0.84180 0.59406 -0.26600
N 	N 	0.84692 0.08510 0.63438 -0.22300
N 	N 	0.86585 0.13417 0.41727 -0.22300
N 	N 	0.86126 0.04768 0.51178 -0.15100
N 	N 	0.84726 0.08268 0.54436 -0.15300
N 	N 	0.85081 0.02157 0.57471 -0.15300
N 	N 	0.87779 0.92127 0.57369 -0.22900
N 	N 	0.87997 0.82859 0.67173 -0.22900
N 	N 	0.79515 0.82705 0.76667 -0.15200
S 	S 	0.83566 0.25394 0.32038 -0.06000
S 	S 	0.95142 0.78976 0.56146 -0.06200
C 	C 	0.84834 0.21078 0.33404 0.09700
C 	C 	0.84782 0.08254 0.60550 0.03300
H 	H 	0.85430 0.09990 0.58270 0.01600
C 	C 	0.83990 0.05638 0.60758 -0.04500
C 	C 	0.82853 0.03111 0.64113 0.00700
H 	H 	0.82290 0.01250 0.64330 0.03800
C 	C 	0.82606 0.03474 0.67040 -0.10000
H 	H 	0.81770 0.01890 0.69370 0.06600
C 	C 	0.83547 0.06081 0.66645 0.05900
H 	H 	0.83400 0.06200 0.68740 -0.00000
C 	C 	0.86331 0.16515 0.41739 0.05800
H 	H 	0.86470 0.18510 0.39570 -0.00100
C 	C 	0.85898 0.16832 0.44722 -0.10300
H 	H 	0.85840 0.19000 0.44600 0.06600
C 	C 	0.85542 0.14110 0.47898 0.01400
H 	H 	0.85200 0.14380 0.50000 0.03500
C 	C 	0.85680 0.10922 0.48068 -0.05100
C 	C 	0.86246 0.10674 0.44918 0.03600
H 	H 	0.86410 0.08490 0.44970 0.01700
C 	C 	0.85479 0.07811 0.51439 0.13800
C 	C 	0.84589 0.05353 0.57321 0.13500
C 	C 	0.85880 0.01990 0.54350 0.13300
C 	C 	0.88264 0.91834 0.54354 0.06000
H 	H 	0.88730 0.89530 0.54410 0.00100
C 	C 	0.88128 0.94652 0.51200 -0.09900
H 	H 	0.88540 0.94300 0.49120 0.06600
C 	C 	0.87355 0.98049 0.51143 0.00900
H 	H 	0.87240 0.00060 0.49000 0.03800
C 	C 	0.86764 0.98474 0.54134 -0.04800
C 	C 	0.87088 0.95382 0.57270 0.03700
H 	H 	0.86810 0.95650 0.59350 0.01400
C 	C 	0.91124 0.80208 0.67122 0.05900
H 	H 	0.93040 0.80280 0.64880 0.00000
C 	C 	0.91729 0.77311 0.70209 -0.09900
H 	H 	0.94040 0.75540 0.70120 0.06700
C 	C 	0.88855 0.77115 0.73385 0.01000
H 	H 	0.89140 0.75140 0.75500 0.03700
C 	C 	0.85576 0.79806 0.73456 -0.05500
C 	C 	0.85303 0.82641 0.70221 0.04800
H 	H 	0.83040 0.84500 0.70240 0.00900
C 	C 	0.82423 0.79715 0.76735 0.13500
C 	C 	0.92627 0.82075 0.58013 0.10800
N 	N 	0.61718 0.34494 0.17922 -0.26300
N 	N 	0.65478 0.59406 0.84180 -0.26600
N 	N 	0.43360 0.63438 0.08510 -0.22300
N 	N 	0.58271 0.41727 0.13417 -0.22300
N 	N 	0.57928 0.51178 0.04768 -0.15100
N 	N 	0.52570 0.54436 0.08268 -0.15300
N 	N 	0.55291 0.57471 0.02157 -0.15300
N 	N 	0.62725 0.57369 0.92127 -0.22900
N 	N 	0.61971 0.67173 0.82859 -0.22900
N 	N 	0.61113 0.76667 0.82705 -0.15200
S 	S 	0.59002 0.32038 0.25394 -0.06000
S 	S 	0.69736 0.56146 0.78976 -0.06200
C 	C 	0.60684 0.33404 0.21078 0.09700
C 	C 	0.46414 0.60550 0.08254 0.03300
H 	H 	0.46310 0.58270 0.09990 0.01600
C 	C 	0.49614 0.60758 0.05638 -0.04500
C 	C 	0.49923 0.64113 0.03111 0.00700
H 	H 	0.52130 0.64330 0.01250 0.03800
C 	C 	0.46880 0.67040 0.03474 -0.10000
H 	H 	0.46970 0.69370 0.01890 0.06600
C 	C 	0.43727 0.66645 0.06081 0.05900
H 	H 	0.41660 0.68740 0.06200 -0.00000
C 	C 	0.55415 0.41739 0.16515 0.05800
H 	H 	0.55450 0.39570 0.18510 -0.00100
C 	C 	0.52548 0.44722 0.16832 -0.10300
H 	H 	0.50560 0.44600 0.19000 0.06600
C 	C 	0.52450 0.47898 0.14110 0.01400
H 	H 	0.50420 0.50000 0.14380 0.03500
C 	C 	0.55330 0.48068 0.10922 -0.05100
C 	C 	0.58162 0.44918 0.10674 0.03600
H 	H 	0.60130 0.44970 0.08490 0.01700
C 	C 	0.55271 0.51439 0.07811 0.13800
C 	C 	0.52737 0.57321 0.05353 0.13500
C 	C 	0.57780 0.54350 0.01990 0.13300
C 	C 	0.65548 0.54354 0.91834 0.06000
H 	H 	0.67330 0.54410 0.89530 0.00100
C 	C 	0.66020 0.51200 0.94652 -0.09900
H 	H 	0.68040 0.49120 0.94300 0.06600
C 	C 	0.63453 0.51143 0.98049 0.00900
H 	H 	0.63700 0.49000 0.00060 0.03800
C 	C 	0.60628 0.54134 0.98474 -0.04800
C 	C 	0.60260 0.57270 0.95382 0.03700
H 	H 	0.58190 0.59350 0.95650 0.01400
C 	C 	0.61546 0.67122 0.80208 0.05900
H 	H 	0.61800 0.64880 0.80280 0.00000
C 	C 	0.60751 0.70209 0.77311 -0.09900
H 	H 	0.60300 0.70120 0.75540 0.06700
C 	C 	0.60645 0.73385 0.77115 0.01000
H 	H 	0.60220 0.75500 0.75140 0.03700
C 	C 	0.61162 0.73456 0.79806 -0.05500
C 	C 	0.61835 0.70221 0.82641 0.04800
H 	H 	0.62220 0.70240 0.84500 0.00900
C 	C 	0.61127 0.76735 0.79715 0.13500
C 	C 	0.67285 0.58013 0.82075 0.10800
N 	N 	0.34494 0.61718 0.85866 -0.26300
N 	N 	0.59406 0.65478 0.90936 -0.26600
N 	N 	0.63438 0.43360 0.84692 -0.22300
N 	N 	0.41727 0.58271 0.86585 -0.22300
N 	N 	0.51178 0.57928 0.86126 -0.15100
N 	N 	0.54436 0.52570 0.84726 -0.15300
N 	N 	0.57471 0.55291 0.85081 -0.15300
N 	N 	0.57369 0.62725 0.87779 -0.22900
N 	N 	0.67173 0.61971 0.87997 -0.22900
N 	N 	0.76667 0.61113 0.79515 -0.15200
S 	S 	0.32038 0.59002 0.83566 -0.06000
S 	S 	0.56146 0.69736 0.95142 -0.06200
C 	C 	0.33404 0.60684 0.84834 0.09700
C 	C 	0.60550 0.46414 0.84782 0.03300
H 	H 	0.58270 0.46310 0.85430 0.01600
C 	C 	0.60758 0.49614 0.83990 -0.04500
C 	C 	0.64113 0.49923 0.82853 0.00700
H 	H 	0.64330 0.52130 0.82290 0.03800
C 	C 	0.67040 0.46880 0.82606 -0.10000
H 	H 	0.69370 0.46970 0.81770 0.06600
C 	C 	0.66645 0.43727 0.83547 0.05900
H 	H 	0.68740 0.41660 0.83400 -0.00000
C 	C 	0.41739 0.55415 0.86331 0.05800
H 	H 	0.39570 0.55450 0.86470 -0.00100
C 	C 	0.44722 0.52548 0.85898 -0.10300
H 	H 	0.44600 0.50560 0.85840 0.06600
C 	C 	0.47898 0.52450 0.85542 0.01400
H 	H 	0.50000 0.50420 0.85200 0.03500
C 	C 	0.48068 0.55330 0.85680 -0.05100
C 	C 	0.44918 0.58162 0.86246 0.03600
H 	H 	0.44970 0.60130 0.86410 0.01700
C 	C 	0.51439 0.55271 0.85479 0.13800
C 	C 	0.57321 0.52737 0.84589 0.13500
C 	C 	0.54350 0.57780 0.85880 0.13300
C 	C 	0.54354 0.65548 0.88264 0.06000
H 	H 	0.54410 0.67330 0.88730 0.00100
C 	C 	0.51200 0.66020 0.88128 -0.09900
H 	H 	0.49120 0.68040 0.88540 0.06600
C 	C 	0.51143 0.63453 0.87355 0.00900
H 	H 	0.49000 0.63700 0.87240 0.03800
C 	C 	0.54134 0.60628 0.86764 -0.04800
C 	C 	0.57270 0.60260 0.87088 0.03700
H 	H 	0.59350 0.58190 0.86810 0.01400
C 	C 	0.67122 0.61546 0.91124 0.05900
H 	H 	0.64880 0.61800 0.93040 0.00000
C 	C 	0.70209 0.60751 0.91729 -0.09900
H 	H 	0.70120 0.60300 0.94040 0.06700
C 	C 	0.73385 0.60645 0.88855 0.01000
H 	H 	0.75500 0.60220 0.89140 0.03700
C 	C 	0.73456 0.61162 0.85576 -0.05500
C 	C 	0.70221 0.61835 0.85303 0.04800
H 	H 	0.70240 0.62220 0.83040 0.00900
C 	C 	0.76735 0.61127 0.82423 0.13500
C 	C 	0.58013 0.67285 0.92627 0.10800
N 	N 	0.61718 0.17922 0.85866 -0.26300
N 	N 	0.65478 0.84180 0.90936 -0.26600
N 	N 	0.43360 0.08510 0.84692 -0.22300
N 	N 	0.58271 0.13417 0.86585 -0.22300
N 	N 	0.57928 0.04768 0.86126 -0.15100
N 	N 	0.52570 0.08268 0.84726 -0.15300
N 	N 	0.55291 0.02157 0.85081 -0.15300
N 	N 	0.62725 0.92127 0.87779 -0.22900
N 	N 	0.61971 0.82859 0.87997 -0.22900
N 	N 	0.61113 0.82705 0.79515 -0.15200
S 	S 	0.59002 0.25394 0.83566 -0.06000
S 	S 	0.69736 0.78976 0.95142 -0.06200
C 	C 	0.60684 0.21078 0.84834 0.09700
C 	C 	0.46414 0.08254 0.84782 0.03300
H 	H 	0.46310 0.09990 0.85430 0.01600
C 	C 	0.49614 0.05638 0.83990 -0.04500
C 	C 	0.49923 0.03111 0.82853 0.00700
H 	H 	0.52130 0.01250 0.82290 0.03800
C 	C 	0.46880 0.03474 0.82606 -0.10000
H 	H 	0.46970 0.01890 0.81770 0.06600
C 	C 	0.43727 0.06081 0.83547 0.05900
H 	H 	0.41660 0.06200 0.83400 -0.00000
C 	C 	0.55415 0.16515 0.86331 0.05800
H 	H 	0.55450 0.18510 0.86470 -0.00100
C 	C 	0.52548 0.16832 0.85898 -0.10300
H 	H 	0.50560 0.19000 0.85840 0.06600
C 	C 	0.52450 0.14110 0.85542 0.01400
H 	H 	0.50420 0.14380 0.85200 0.03500
C 	C 	0.55330 0.10922 0.85680 -0.05100
C 	C 	0.58162 0.10674 0.86246 0.03600
H 	H 	0.60130 0.08490 0.86410 0.01700
C 	C 	0.55271 0.07811 0.85479 0.13800
C 	C 	0.52737 0.05353 0.84589 0.13500
C 	C 	0.57780 0.01990 0.85880 0.13300
C 	C 	0.65548 0.91834 0.88264 0.06000
H 	H 	0.67330 0.89530 0.88730 0.00100
C 	C 	0.66020 0.94652 0.88128 -0.09900
H 	H 	0.68040 0.94300 0.88540 0.06600
C 	C 	0.63453 0.98049 0.87355 0.00900
H 	H 	0.63700 0.00060 0.87240 0.03800
C 	C 	0.60628 0.98474 0.86764 -0.04800
C 	C 	0.60260 0.95382 0.87088 0.03700
H 	H 	0.58190 0.95650 0.86810 0.01400
C 	C 	0.61546 0.80208 0.91124 0.05900
H 	H 	0.61800 0.80280 0.93040 0.00000
C 	C 	0.60751 0.77311 0.91729 -0.09900
H 	H 	0.60300 0.75540 0.94040 0.06700
C 	C 	0.60645 0.77115 0.88855 0.01000
H 	H 	0.60220 0.75140 0.89140 0.03700
C 	C 	0.61162 0.79806 0.85576 -0.05500
C 	C 	0.61835 0.82641 0.85303 0.04800
H 	H 	0.62220 0.84500 0.83040 0.00900
C 	C 	0.61127 0.79715 0.82423 0.13500
C 	C 	0.67285 0.82075 0.92627 0.10800
N 	N 	0.34494 0.85866 0.17922 -0.26300
N 	N 	0.59406 0.90936 0.84180 -0.26600
N 	N 	0.63438 0.84692 0.08510 -0.22300
N 	N 	0.41727 0.86585 0.13417 -0.22300
N 	N 	0.51178 0.86126 0.04768 -0.15100
N 	N 	0.54436 0.84726 0.08268 -0.15300
N 	N 	0.57471 0.85081 0.02157 -0.15300
N 	N 	0.57369 0.87779 0.92127 -0.22900
N 	N 	0.67173 0.87997 0.82859 -0.22900
N 	N 	0.76667 0.79515 0.82705 -0.15200
S 	S 	0.32038 0.83566 0.25394 -0.06000
S 	S 	0.56146 0.95142 0.78976 -0.06200
C 	C 	0.33404 0.84834 0.21078 0.09700
C 	C 	0.60550 0.84782 0.08254 0.03300
H 	H 	0.58270 0.85430 0.09990 0.01600
C 	C 	0.60758 0.83990 0.05638 -0.04500
C 	C 	0.64113 0.82853 0.03111 0.00700
H 	H 	0.64330 0.82290 0.01250 0.03800
C 	C 	0.67040 0.82606 0.03474 -0.10000
H 	H 	0.69370 0.81770 0.01890 0.06600
C 	C 	0.66645 0.83547 0.06081 0.05900
H 	H 	0.68740 0.83400 0.06200 -0.00000
C 	C 	0.41739 0.86331 0.16515 0.05800
H 	H 	0.39570 0.86470 0.18510 -0.00100
C 	C 	0.44722 0.85898 0.16832 -0.10300
H 	H 	0.44600 0.85840 0.19000 0.06600
C 	C 	0.47898 0.85542 0.14110 0.01400
H 	H 	0.50000 0.85200 0.14380 0.03500
C 	C 	0.48068 0.85680 0.10922 -0.05100
C 	C 	0.44918 0.86246 0.10674 0.03600
H 	H 	0.44970 0.86410 0.08490 0.01700
C 	C 	0.51439 0.85479 0.07811 0.13800
C 	C 	0.57321 0.84589 0.05353 0.13500
C 	C 	0.54350 0.85880 0.01990 0.13300
C 	C 	0.54354 0.88264 0.91834 0.06000
H 	H 	0.54410 0.88730 0.89530 0.00100
C 	C 	0.51200 0.88128 0.94652 -0.09900
H 	H 	0.49120 0.88540 0.94300 0.06600
C 	C 	0.51143 0.87355 0.98049 0.00900
H 	H 	0.49000 0.87240 0.00060 0.03800
C 	C 	0.54134 0.86764 0.98474 -0.04800
C 	C 	0.57270 0.87088 0.95382 0.03700
H 	H 	0.59350 0.86810 0.95650 0.01400
C 	C 	0.67122 0.91124 0.80208 0.05900
H 	H 	0.64880 0.93040 0.80280 0.00000
C 	C 	0.70209 0.91729 0.77311 -0.09900
H 	H 	0.70120 0.94040 0.75540 0.06700
C 	C 	0.73385 0.88855 0.77115 0.01000
H 	H 	0.75500 0.89140 0.75140 0.03700
C 	C 	0.73456 0.85576 0.79806 -0.05500
C 	C 	0.70221 0.85303 0.82641 0.04800
H 	H 	0.70240 0.83040 0.84500 0.00900
C 	C 	0.76735 0.82423 0.79715 0.13500
C 	C 	0.58013 0.92627 0.82075 0.10800
N 	N 	0.17922 0.61718 0.34494 -0.26300
N 	N 	0.84180 0.65478 0.59406 -0.26600
N 	N 	0.08510 0.43360 0.63438 -0.22300
N 	N 	0.13417 0.58271 0.41727 -0.22300
N 	N 	0.04768 0.57928 0.51178 -0.15100
N 	N 	0.08268 0.52570 0.54436 -0.15300
N 	N 	0.02157 0.55291 0.57471 -0.15300
N 	N 	0.92127 0.62725 0.57369 -0.22900
N 	N 	0.82859 0.61971 0.67173 -0.22900
N 	N 	0.82705 0.61113 0.76667 -0.15200
S 	S 	0.25394 0.59002 0.32038 -0.06000
S 	S 	0.78976 0.69736 0.56146 -0.06200
C 	C 	0.21078 0.60684 0.33404 0.09700
C 	C 	0.08254 0.46414 0.60550 0.03300
H 	H 	0.09990 0.46310 0.58270 0.01600
C 	C 	0.05638 0.49614 0.60758 -0.04500
C 	C 	0.03111 0.49923 0.64113 0.00700
H 	H 	0.01250 0.52130 0.64330 0.03800
C 	C 	0.03474 0.46880 0.67040 -0.10000
H 	H 	0.01890 0.46970 0.69370 0.06600
C 	C 	0.06081 0.43727 0.66645 0.05900
H 	H 	0.06200 0.41660 0.68740 -0.00000
C 	C 	0.16515 0.55415 0.41739 0.05800
H 	H 	0.18510 0.55450 0.39570 -0.00100
C 	C 	0.16832 0.52548 0.44722 -0.10300
H 	H 	0.19000 0.50560 0.44600 0.06600
C 	C 	0.14110 0.52450 0.47898 0.01400
H 	H 	0.14380 0.50420 0.50000 0.03500
C 	C 	0.10922 0.55330 0.48068 -0.05100
C 	C 	0.10674 0.58162 0.44918 0.03600
H 	H 	0.08490 0.60130 0.44970 0.01700
C 	C 	0.07811 0.55271 0.51439 0.13800
C 	C 	0.05353 0.52737 0.57321 0.13500
C 	C 	0.01990 0.57780 0.54350 0.13300
C 	C 	0.91834 0.65548 0.54354 0.06000
H 	H 	0.89530 0.67330 0.54410 0.00100
C 	C 	0.94652 0.66020 0.51200 -0.09900
H 	H 	0.94300 0.68040 0.49120 0.06600
C 	C 	0.98049 0.63453 0.51143 0.00900
H 	H 	0.00060 0.63700 0.49000 0.03800
C 	C 	0.98474 0.60628 0.54134 -0.04800
C 	C 	0.95382 0.60260 0.57270 0.03700
H 	H 	0.95650 0.58190 0.59350 0.01400
C 	C 	0.80208 0.61546 0.67122 0.05900
H 	H 	0.80280 0.61800 0.64880 0.00000
C 	C 	0.77311 0.60751 0.70209 -0.09900
H 	H 	0.75540 0.60300 0.70120 0.06700
C 	C 	0.77115 0.60645 0.73385 0.01000
H 	H 	0.75140 0.60220 0.75500 0.03700
C 	C 	0.79806 0.61162 0.73456 -0.05500
C 	C 	0.82641 0.61835 0.70221 0.04800
H 	H 	0.84500 0.62220 0.70240 0.00900
C 	C 	0.79715 0.61127 0.76735 0.13500
C 	C 	0.82075 0.67285 0.58013 0.10800
N 	N 	0.85866 0.34494 0.61718 -0.26300
N 	N 	0.90936 0.59406 0.65478 -0.26600
N 	N 	0.84692 0.63438 0.43360 -0.22300
N 	N 	0.86585 0.41727 0.58271 -0.22300
N 	N 	0.86126 0.51178 0.57928 -0.15100
N 	N 	0.84726 0.54436 0.52570 -0.15300
N 	N 	0.85081 0.57471 0.55291 -0.15300
N 	N 	0.87779 0.57369 0.62725 -0.22900
N 	N 	0.87997 0.67173 0.61971 -0.22900
N 	N 	0.79515 0.76667 0.61113 -0.15200
S 	S 	0.83566 0.32038 0.59002 -0.06000
S 	S 	0.95142 0.56146 0.69736 -0.06200
C 	C 	0.84834 0.33404 0.60684 0.09700
C 	C 	0.84782 0.60550 0.46414 0.03300
H 	H 	0.85430 0.58270 0.46310 0.01600
C 	C 	0.83990 0.60758 0.49614 -0.04500
C 	C 	0.82853 0.64113 0.49923 0.00700
H 	H 	0.82290 0.64330 0.52130 0.03800
C 	C 	0.82606 0.67040 0.46880 -0.10000
H 	H 	0.81770 0.69370 0.46970 0.06600
C 	C 	0.83547 0.66645 0.43727 0.05900
H 	H 	0.83400 0.68740 0.41660 -0.00000
C 	C 	0.86331 0.41739 0.55415 0.05800
H 	H 	0.86470 0.39570 0.55450 -0.00100
C 	C 	0.85898 0.44722 0.52548 -0.10300
H 	H 	0.85840 0.44600 0.50560 0.06600
C 	C 	0.85542 0.47898 0.52450 0.01400
H 	H 	0.85200 0.50000 0.50420 0.03500
C 	C 	0.85680 0.48068 0.55330 -0.05100
C 	C 	0.86246 0.44918 0.58162 0.03600
H 	H 	0.86410 0.44970 0.60130 0.01700
C 	C 	0.85479 0.51439 0.55271 0.13800
C 	C 	0.84589 0.57321 0.52737 0.13500
C 	C 	0.85880 0.54350 0.57780 0.13300
C 	C 	0.88264 0.54354 0.65548 0.06000
H 	H 	0.88730 0.54410 0.67330 0.00100
C 	C 	0.88128 0.51200 0.66020 -0.09900
H 	H 	0.88540 0.49120 0.68040 0.06600
C 	C 	0.87355 0.51143 0.63453 0.00900
H 	H 	0.87240 0.49000 0.63700 0.03800
C 	C 	0.86764 0.54134 0.60628 -0.04800
C 	C 	0.87088 0.57270 0.60260 0.03700
H 	H 	0.86810 0.59350 0.58190 0.01400
C 	C 	0.91124 0.67122 0.61546 0.05900
H 	H 	0.93040 0.64880 0.61800 0.00000
C 	C 	0.91729 0.70209 0.60751 -0.09900
H 	H 	0.94040 0.70120 0.60300 0.06700
C 	C 	0.88855 0.73385 0.60645 0.01000
H 	H 	0.89140 0.75500 0.60220 0.03700
C 	C 	0.85576 0.73456 0.61162 -0.05500
C 	C 	0.85303 0.70221 0.61835 0.04800
H 	H 	0.83040 0.70240 0.62220 0.00900
C 	C 	0.82423 0.76735 0.61127 0.13500
C 	C 	0.92627 0.58013 0.67285 0.10800
N 	N 	0.85866 0.61718 0.17922 -0.26300
N 	N 	0.90936 0.65478 0.84180 -0.26600
N 	N 	0.84692 0.43360 0.08510 -0.22300
N 	N 	0.86585 0.58271 0.13417 -0.22300
N 	N 	0.86126 0.57928 0.04768 -0.15100
N 	N 	0.84726 0.52570 0.08268 -0.15300
N 	N 	0.85081 0.55291 0.02157 -0.15300
N 	N 	0.87779 0.62725 0.92127 -0.22900
N 	N 	0.87997 0.61971 0.82859 -0.22900
N 	N 	0.79515 0.61113 0.82705 -0.15200
S 	S 	0.83566 0.59002 0.25394 -0.06000
S 	S 	0.95142 0.69736 0.78976 -0.06200
C 	C 	0.84834 0.60684 0.21078 0.09700
C 	C 	0.84782 0.46414 0.08254 0.03300
H 	H 	0.85430 0.46310 0.09990 0.01600
C 	C 	0.83990 0.49614 0.05638 -0.04500
C 	C 	0.82853 0.49923 0.03111 0.00700
H 	H 	0.82290 0.52130 0.01250 0.03800
C 	C 	0.82606 0.46880 0.03474 -0.10000
H 	H 	0.81770 0.46970 0.01890 0.06600
C 	C 	0.83547 0.43727 0.06081 0.05900
H 	H 	0.83400 0.41660 0.06200 -0.00000
C 	C 	0.86331 0.55415 0.16515 0.05800
H 	H 	0.86470 0.55450 0.18510 -0.00100
C 	C 	0.85898 0.52548 0.16832 -0.10300
H 	H 	0.85840 0.50560 0.19000 0.06600
C 	C 	0.85542 0.52450 0.14110 0.01400
H 	H 	0.85200 0.50420 0.14380 0.03500
C 	C 	0.85680 0.55330 0.10922 -0.05100
C 	C 	0.86246 0.58162 0.10674 0.03600
H 	H 	0.86410 0.60130 0.08490 0.01700
C 	C 	0.85479 0.55271 0.07811 0.13800
C 	C 	0.84589 0.52737 0.05353 0.13500
C 	C 	0.85880 0.57780 0.01990 0.13300
C 	C 	0.88264 0.65548 0.91834 0.06000
H 	H 	0.88730 0.67330 0.89530 0.00100
C 	C 	0.88128 0.66020 0.94652 -0.09900
H 	H 	0.88540 0.68040 0.94300 0.06600
C 	C 	0.87355 0.63453 0.98049 0.00900
H 	H 	0.87240 0.63700 0.00060 0.03800
C 	C 	0.86764 0.60628 0.98474 -0.04800
C 	C 	0.87088 0.60260 0.95382 0.03700
H 	H 	0.86810 0.58190 0.95650 0.01400
C 	C 	0.91124 0.61546 0.80208 0.05900
H 	H 	0.93040 0.61800 0.80280 0.00000
C 	C 	0.91729 0.60751 0.77311 -0.09900
H 	H 	0.94040 0.60300 0.75540 0.06700
C 	C 	0.88855 0.60645 0.77115 0.01000
H 	H 	0.89140 0.60220 0.75140 0.03700
C 	C 	0.85576 0.61162 0.79806 -0.05500
C 	C 	0.85303 0.61835 0.82641 0.04800
H 	H 	0.83040 0.62220 0.84500 0.00900
C 	C 	0.82423 0.61127 0.79715 0.13500
C 	C 	0.92627 0.67285 0.82075 0.10800
N 	N 	0.17922 0.34494 0.85866 -0.26300
N 	N 	0.84180 0.59406 0.90936 -0.26600
N 	N 	0.08510 0.63438 0.84692 -0.22300
N 	N 	0.13417 0.41727 0.86585 -0.22300
N 	N 	0.04768 0.51178 0.86126 -0.15100
N 	N 	0.08268 0.54436 0.84726 -0.15300
N 	N 	0.02157 0.57471 0.85081 -0.15300
N 	N 	0.92127 0.57369 0.87779 -0.22900
N 	N 	0.82859 0.67173 0.87997 -0.22900
N 	N 	0.82705 0.76667 0.79515 -0.15200
S 	S 	0.25394 0.32038 0.83566 -0.06000
S 	S 	0.78976 0.56146 0.95142 -0.06200
C 	C 	0.21078 0.33404 0.84834 0.09700
C 	C 	0.08254 0.60550 0.84782 0.03300
H 	H 	0.09990 0.58270 0.85430 0.01600
C 	C 	0.05638 0.60758 0.83990 -0.04500
C 	C 	0.03111 0.64113 0.82853 0.00700
H 	H 	0.01250 0.64330 0.82290 0.03800
C 	C 	0.03474 0.67040 0.82606 -0.10000
H 	H 	0.01890 0.69370 0.81770 0.06600
C 	C 	0.06081 0.66645 0.83547 0.05900
H 	H 	0.06200 0.68740 0.83400 -0.00000
C 	C 	0.16515 0.41739 0.86331 0.05800
H 	H 	0.18510 0.39570 0.86470 -0.00100
C 	C 	0.16832 0.44722 0.85898 -0.10300
H 	H 	0.19000 0.44600 0.85840 0.06600
C 	C 	0.14110 0.47898 0.85542 0.01400
H 	H 	0.14380 0.50000 0.85200 0.03500
C 	C 	0.10922 0.48068 0.85680 -0.05100
C 	C 	0.10674 0.44918 0.86246 0.03600
H 	H 	0.08490 0.44970 0.86410 0.01700
C 	C 	0.07811 0.51439 0.85479 0.13800
C 	C 	0.05353 0.57321 0.84589 0.13500
C 	C 	0.01990 0.54350 0.85880 0.13300
C 	C 	0.91834 0.54354 0.88264 0.06000
H 	H 	0.89530 0.54410 0.88730 0.00100
C 	C 	0.94652 0.51200 0.88128 -0.09900
H 	H 	0.94300 0.49120 0.88540 0.06600
C 	C 	0.98049 0.51143 0.87355 0.00900
H 	H 	0.00060 0.49000 0.87240 0.03800
C 	C 	0.98474 0.54134 0.86764 -0.04800
C 	C 	0.95382 0.57270 0.87088 0.03700
H 	H 	0.95650 0.59350 0.86810 0.01400
C 	C 	0.80208 0.67122 0.91124 0.05900
H 	H 	0.80280 0.64880 0.93040 0.00000
C 	C 	0.77311 0.70209 0.91729 -0.09900
H 	H 	0.75540 0.70120 0.94040 0.06700
C 	C 	0.77115 0.73385 0.88855 0.01000
H 	H 	0.75140 0.75500 0.89140 0.03700
C 	C 	0.79806 0.73456 0.85576 -0.05500
C 	C 	0.82641 0.70221 0.85303 0.04800
H 	H 	0.84500 0.70240 0.83040 0.00900
C 	C 	0.79715 0.76735 0.82423 0.13500
C 	C 	0.82075 0.58013 0.92627 0.10800
N 	N 	0.34494 0.17922 0.61718 -0.26300
N 	N 	0.59406 0.84180 0.65478 -0.26600
N 	N 	0.63438 0.08510 0.43360 -0.22300
N 	N 	0.41727 0.13417 0.58271 -0.22300
N 	N 	0.51178 0.04768 0.57928 -0.15100
N 	N 	0.54436 0.08268 0.52570 -0.15300
N 	N 	0.57471 0.02157 0.55291 -0.15300
N 	N 	0.57369 0.92127 0.62725 -0.22900
N 	N 	0.67173 0.82859 0.61971 -0.22900
N 	N 	0.76667 0.82705 0.61113 -0.15200
S 	S 	0.32038 0.25394 0.59002 -0.06000
S 	S 	0.56146 0.78976 0.69736 -0.06200
C 	C 	0.33404 0.21078 0.60684 0.09700
C 	C 	0.60550 0.08254 0.46414 0.03300
H 	H 	0.58270 0.09990 0.46310 0.01600
C 	C 	0.60758 0.05638 0.49614 -0.04500
C 	C 	0.64113 0.03111 0.49923 0.00700
H 	H 	0.64330 0.01250 0.52130 0.03800
C 	C 	0.67040 0.03474 0.46880 -0.10000
H 	H 	0.69370 0.01890 0.46970 0.06600
C 	C 	0.66645 0.06081 0.43727 0.05900
H 	H 	0.68740 0.06200 0.41660 -0.00000
C 	C 	0.41739 0.16515 0.55415 0.05800
H 	H 	0.39570 0.18510 0.55450 -0.00100
C 	C 	0.44722 0.16832 0.52548 -0.10300
H 	H 	0.44600 0.19000 0.50560 0.06600
C 	C 	0.47898 0.14110 0.52450 0.01400
H 	H 	0.50000 0.14380 0.50420 0.03500
C 	C 	0.48068 0.10922 0.55330 -0.05100
C 	C 	0.44918 0.10674 0.58162 0.03600
H 	H 	0.44970 0.08490 0.60130 0.01700
C 	C 	0.51439 0.07811 0.55271 0.13800
C 	C 	0.57321 0.05353 0.52737 0.13500
C 	C 	0.54350 0.01990 0.57780 0.13300
C 	C 	0.54354 0.91834 0.65548 0.06000
H 	H 	0.54410 0.89530 0.67330 0.00100
C 	C 	0.51200 0.94652 0.66020 -0.09900
H 	H 	0.49120 0.94300 0.68040 0.06600
C 	C 	0.51143 0.98049 0.63453 0.00900
H 	H 	0.49000 0.00060 0.63700 0.03800
C 	C 	0.54134 0.98474 0.60628 -0.04800
C 	C 	0.57270 0.95382 0.60260 0.03700
H 	H 	0.59350 0.95650 0.58190 0.01400
C 	C 	0.67122 0.80208 0.61546 0.05900
H 	H 	0.64880 0.80280 0.61800 0.00000
C 	C 	0.70209 0.77311 0.60751 -0.09900
H 	H 	0.70120 0.75540 0.60300 0.06700
C 	C 	0.73385 0.77115 0.60645 0.01000
H 	H 	0.75500 0.75140 0.60220 0.03700
C 	C 	0.73456 0.79806 0.61162 -0.05500
C 	C 	0.70221 0.82641 0.61835 0.04800
H 	H 	0.70240 0.84500 0.62220 0.00900
C 	C 	0.76735 0.79715 0.61127 0.13500
C 	C 	0.58013 0.82075 0.67285 0.10800
N 	N 	0.61718 0.85866 0.34494 -0.26300
N 	N 	0.65478 0.90936 0.59406 -0.26600
N 	N 	0.43360 0.84692 0.63438 -0.22300
N 	N 	0.58271 0.86585 0.41727 -0.22300
N 	N 	0.57928 0.86126 0.51178 -0.15100
N 	N 	0.52570 0.84726 0.54436 -0.15300
N 	N 	0.55291 0.85081 0.57471 -0.15300
N 	N 	0.62725 0.87779 0.57369 -0.22900
N 	N 	0.61971 0.87997 0.67173 -0.22900
N 	N 	0.61113 0.79515 0.76667 -0.15200
S 	S 	0.59002 0.83566 0.32038 -0.06000
S 	S 	0.69736 0.95142 0.56146 -0.06200
C 	C 	0.60684 0.84834 0.33404 0.09700
C 	C 	0.46414 0.84782 0.60550 0.03300
H 	H 	0.46310 0.85430 0.58270 0.01600
C 	C 	0.49614 0.83990 0.60758 -0.04500
C 	C 	0.49923 0.82853 0.64113 0.00700
H 	H 	0.52130 0.82290 0.64330 0.03800
C 	C 	0.46880 0.82606 0.67040 -0.10000
H 	H 	0.46970 0.81770 0.69370 0.06600
C 	C 	0.43727 0.83547 0.66645 0.05900
H 	H 	0.41660 0.83400 0.68740 -0.00000
C 	C 	0.55415 0.86331 0.41739 0.05800
H 	H 	0.55450 0.86470 0.39570 -0.00100
C 	C 	0.52548 0.85898 0.44722 -0.10300
H 	H 	0.50560 0.85840 0.44600 0.06600
C 	C 	0.52450 0.85542 0.47898 0.01400
H 	H 	0.50420 0.85200 0.50000 0.03500
C 	C 	0.55330 0.85680 0.48068 -0.05100
C 	C 	0.58162 0.86246 0.44918 0.03600
H 	H 	0.60130 0.86410 0.44970 0.01700
C 	C 	0.55271 0.85479 0.51439 0.13800
C 	C 	0.52737 0.84589 0.57321 0.13500
C 	C 	0.57780 0.85880 0.54350 0.13300
C 	C 	0.65548 0.88264 0.54354 0.06000
H 	H 	0.67330 0.88730 0.54410 0.00100
C 	C 	0.66020 0.88128 0.51200 -0.09900
H 	H 	0.68040 0.88540 0.49120 0.06600
C 	C 	0.63453 0.87355 0.51143 0.00900
H 	H 	0.63700 0.87240 0.49000 0.03800
C 	C 	0.60628 0.86764 0.54134 -0.04800
C 	C 	0.60260 0.87088 0.57270 0.03700
H 	H 	0.58190 0.86810 0.59350 0.01400
C 	C 	0.61546 0.91124 0.67122 0.05900
H 	H 	0.61800 0.93040 0.64880 0.00000
C 	C 	0.60751 0.91729 0.70209 -0.09900
H 	H 	0.60300 0.94040 0.70120 0.06700
C 	C 	0.60645 0.88855 0.73385 0.01000
H 	H 	0.60220 0.89140 0.75500 0.03700
C 	C 	0.61162 0.85576 0.73456 -0.05500
C 	C 	0.61835 0.85303 0.70221 0.04800
H 	H 	0.62220 0.83040 0.70240 0.00900
C 	C 	0.61127 0.82423 0.76735 0.13500
C 	C 	0.67285 0.92627 0.58013 0.10800
N 	N 	0.07078 0.39134 0.90506 -0.26300
N 	N 	0.40820 0.34064 0.65594 -0.26600
N 	N 	0.16490 0.40308 0.61562 -0.22300
N 	N 	0.11583 0.38415 0.83273 -0.22300
N 	N 	0.20232 0.38874 0.73822 -0.15100
N 	N 	0.16732 0.40274 0.70564 -0.15300
N 	N 	0.22843 0.39919 0.67529 -0.15300
N 	N 	0.32873 0.37221 0.67631 -0.22900
N 	N 	0.42141 0.37003 0.57827 -0.22900
N 	N 	0.42295 0.45485 0.48333 -0.15200
S 	S 	0.99606 0.41434 0.92962 -0.06000
S 	S 	0.46024 0.29858 0.68854 -0.06200
C 	C 	0.03922 0.40166 0.91596 0.09700
C 	C 	0.16746 0.40218 0.64450 0.03300
H 	H 	0.15010 0.39570 0.66730 0.01600
C 	C 	0.19362 0.41010 0.64242 -0.04500
C 	C 	0.21889 0.42147 0.60887 0.00700
H 	H 	0.23750 0.42710 0.60670 0.03800
C 	C 	0.21526 0.42394 0.57960 -0.10000
H 	H 	0.23110 0.43230 0.55630 0.06600
C 	C 	0.18919 0.41453 0.58355 0.05900
H 	H 	0.18800 0.41600 0.56260 -0.00000
C 	C 	0.08485 0.38669 0.83261 0.05800
H 	H 	0.06490 0.38530 0.85430 -0.00100
C 	C 	0.08168 0.39102 0.80278 -0.10300
H 	H 	0.06000 0.39160 0.80400 0.06600
C 	C 	0.10890 0.39458 0.77102 0.01400
H 	H 	0.10620 0.39800 0.75000 0.03500
C 	C 	0.14078 0.39320 0.76932 -0.05100
C 	C 	0.14326 0.38754 0.80082 0.03600
H 	H 	0.16510 0.38590 0.80030 0.01700
C 	C 	0.17189 0.39521 0.73561 0.13800
C 	C 	0.19647 0.40411 0.67679 0.13500
C 	C 	0.23010 0.39120 0.70650 0.13300
C 	C 	0.33166 0.36736 0.70646 0.06000
H 	H 	0.35470 0.36270 0.70590 0.00100
C 	C 	0.30348 0.36872 0.73800 -0.09900
H 	H 	0.30700 0.36460 0.75880 0.06600
C 	C 	0.26951 0.37645 0.73857 0.00900
H 	H 	0.24940 0.37760 0.76000 0.03800
C 	C 	0.26526 0.38236 0.70866 -0.04800
C 	C 	0.29618 0.37912 0.67730 0.03700
H 	H 	0.29350 0.38190 0.65650 0.01400
C 	C 	0.44792 0.33876 0.57878 0.05900
H 	H 	0.44720 0.31960 0.60120 0.00000
C 	C 	0.47689 0.33271 0.54791 -0.09900
H 	H 	0.49460 0.30960 0.54880 0.06700
C 	C 	0.47885 0.36145 0.51615 0.01000
H 	H 	0.49860 0.35860 0.49500 0.03700
C 	C 	0.45194 0.39424 0.51544 -0.05500
C 	C 	0.42359 0.39697 0.54779 0.04800
H 	H 	0.40500 0.41960 0.54760 0.00900
C 	C 	0.45285 0.42577 0.48265 0.13500
C 	C 	0.42925 0.32373 0.66987 0.10800
N 	N 	0.39134 0.07078 0.63282 -0.26300
N 	N 	0.34064 0.40820 0.59522 -0.26600
N 	N 	0.40308 0.16490 0.81640 -0.22300
N 	N 	0.38415 0.11583 0.66729 -0.22300
N 	N 	0.38874 0.20232 0.67072 -0.15100
N 	N 	0.40274 0.16732 0.72430 -0.15300
N 	N 	0.39919 0.22843 0.69709 -0.15300
N 	N 	0.37221 0.32873 0.62275 -0.22900
N 	N 	0.37003 0.42141 0.63029 -0.22900
N 	N 	0.45485 0.42295 0.63887 -0.15200
S 	S 	0.41434 0.99606 0.65998 -0.06000
S 	S 	0.29858 0.46024 0.55264 -0.06200
C 	C 	0.40166 0.03922 0.64316 0.09700
C 	C 	0.40218 0.16746 0.78586 0.03300
H 	H 	0.39570 0.15010 0.78690 0.01600
C 	C 	0.41010 0.19362 0.75386 -0.04500
C 	C 	0.42147 0.21889 0.75077 0.00700
H 	H 	0.42710 0.23750 0.72870 0.03800
C 	C 	0.42394 0.21526 0.78120 -0.10000
H 	H 	0.43230 0.23110 0.78030 0.06600
C 	C 	0.41453 0.18919 0.81273 0.05900
H 	H 	0.41600 0.18800 0.83340 -0.00000
C 	C 	0.38669 0.08485 0.69585 0.05800
H 	H 	0.38530 0.06490 0.69550 -0.00100
C 	C 	0.39102 0.08168 0.72452 -0.10300
H 	H 	0.39160 0.06000 0.74440 0.06600
C 	C 	0.39458 0.10890 0.72550 0.01400
H 	H 	0.39800 0.10620 0.74580 0.03500
C 	C 	0.39320 0.14078 0.69670 -0.05100
C 	C 	0.38754 0.14326 0.66838 0.03600
H 	H 	0.38590 0.16510 0.64870 0.01700
C 	C 	0.39521 0.17189 0.69729 0.13800
C 	C 	0.40411 0.19647 0.72263 0.13500
C 	C 	0.39120 0.23010 0.67220 0.13300
C 	C 	0.36736 0.33166 0.59452 0.06000
H 	H 	0.36270 0.35470 0.57670 0.00100
C 	C 	0.36872 0.30348 0.58980 -0.09900
H 	H 	0.36460 0.30700 0.56960 0.06600
C 	C 	0.37645 0.26951 0.61547 0.00900
H 	H 	0.37760 0.24940 0.61300 0.03800
C 	C 	0.38236 0.26526 0.64372 -0.04800
C 	C 	0.37912 0.29618 0.64740 0.03700
H 	H 	0.38190 0.29350 0.66810 0.01400
C 	C 	0.33876 0.44792 0.63454 0.05900
H 	H 	0.31960 0.44720 0.63200 0.00000
C 	C 	0.33271 0.47689 0.64249 -0.09900
H 	H 	0.30960 0.49460 0.64700 0.06700
C 	C 	0.36145 0.47885 0.64355 0.01000
H 	H 	0.35860 0.49860 0.64780 0.03700
C 	C 	0.39424 0.45194 0.63838 -0.05500
C 	C 	0.39697 0.42359 0.63165 0.04800
H 	H 	0.41960 0.40500 0.62780 0.00900
C 	C 	0.42577 0.45285 0.63873 0.13500
C 	C 	0.32373 0.42925 0.57715 0.10800
N 	N 	0.63282 0.90506 0.39134 -0.26300
N 	N 	0.59522 0.65594 0.34064 -0.26600
N 	N 	0.81640 0.61562 0.40308 -0.22300
N 	N 	0.66729 0.83273 0.38415 -0.22300
N 	N 	0.67072 0.73822 0.38874 -0.15100
N 	N 	0.72430 0.70564 0.40274 -0.15300
N 	N 	0.69709 0.67529 0.39919 -0.15300
N 	N 	0.62275 0.67631 0.37221 -0.22900
N 	N 	0.63029 0.57827 0.37003 -0.22900
N 	N 	0.63887 0.48333 0.45485 -0.15200
S 	S 	0.65998 0.92962 0.41434 -0.06000
S 	S 	0.55264 0.68854 0.29858 -0.06200
C 	C 	0.64316 0.91596 0.40166 0.09700
C 	C 	0.78586 0.64450 0.40218 0.03300
H 	H 	0.78690 0.66730 0.39570 0.01600
C 	C 	0.75386 0.64242 0.41010 -0.04500
C 	C 	0.75077 0.60887 0.42147 0.00700
H 	H 	0.72870 0.60670 0.42710 0.03800
C 	C 	0.78120 0.57960 0.42394 -0.10000
H 	H 	0.78030 0.55630 0.43230 0.06600
C 	C 	0.81273 0.58355 0.41453 0.05900
H 	H 	0.83340 0.56260 0.41600 -0.00000
C 	C 	0.69585 0.83261 0.38669 0.05800
H 	H 	0.69550 0.85430 0.38530 -0.00100
C 	C 	0.72452 0.80278 0.39102 -0.10300
H 	H 	0.74440 0.80400 0.39160 0.06600
C 	C 	0.72550 0.77102 0.39458 0.01400
H 	H 	0.74580 0.75000 0.39800 0.03500
C 	C 	0.69670 0.76932 0.39320 -0.05100
C 	C 	0.66838 0.80082 0.38754 0.03600
H 	H 	0.64870 0.80030 0.38590 0.01700
C 	C 	0.69729 0.73561 0.39521 0.13800
C 	C 	0.72263 0.67679 0.40411 0.13500
C 	C 	0.67220 0.70650 0.39120 0.13300
C 	C 	0.59452 0.70646 0.36736 0.06000
H 	H 	0.57670 0.70590 0.36270 0.00100
C 	C 	0.58980 0.73800 0.36872 -0.09900
H 	H 	0.56960 0.75880 0.36460 0.06600
C 	C 	0.61547 0.73857 0.37645 0.00900
H 	H 	0.61300 0.76000 0.37760 0.03800
C 	C 	0.64372 0.70866 0.38236 -0.04800
C 	C 	0.64740 0.67730 0.37912 0.03700
H 	H 	0.66810 0.65650 0.38190 0.01400
C 	C 	0.63454 0.57878 0.33876 0.05900
H 	H 	0.63200 0.60120 0.31960 0.00000
C 	C 	0.64249 0.54791 0.33271 -0.09900
H 	H 	0.64700 0.54880 0.30960 0.06700
C 	C 	0.64355 0.51615 0.36145 0.01000
H 	H 	0.64780 0.49500 0.35860 0.03700
C 	C 	0.63838 0.51544 0.39424 -0.05500
C 	C 	0.63165 0.54779 0.39697 0.04800
H 	H 	0.62780 0.54760 0.41960 0.00900
C 	C 	0.63873 0.48265 0.42577 0.13500
C 	C 	0.57715 0.66987 0.32373 0.10800
N 	N 	0.90506 0.63282 0.07078 -0.26300
N 	N 	0.65594 0.59522 0.40820 -0.26600
N 	N 	0.61562 0.81640 0.16490 -0.22300
N 	N 	0.83273 0.66729 0.11583 -0.22300
N 	N 	0.73822 0.67072 0.20232 -0.15100
N 	N 	0.70564 0.72430 0.16732 -0.15300
N 	N 	0.67529 0.69709 0.22843 -0.15300
N 	N 	0.67631 0.62275 0.32873 -0.22900
N 	N 	0.57827 0.63029 0.42141 -0.22900
N 	N 	0.48333 0.63887 0.42295 -0.15200
S 	S 	0.92962 0.65998 0.99606 -0.06000
S 	S 	0.68854 0.55264 0.46024 -0.06200
C 	C 	0.91596 0.64316 0.03922 0.09700
C 	C 	0.64450 0.78586 0.16746 0.03300
H 	H 	0.66730 0.78690 0.15010 0.01600
C 	C 	0.64242 0.75386 0.19362 -0.04500
C 	C 	0.60887 0.75077 0.21889 0.00700
H 	H 	0.60670 0.72870 0.23750 0.03800
C 	C 	0.57960 0.78120 0.21526 -0.10000
H 	H 	0.55630 0.78030 0.23110 0.06600
C 	C 	0.58355 0.81273 0.18919 0.05900
H 	H 	0.56260 0.83340 0.18800 -0.00000
C 	C 	0.83261 0.69585 0.08485 0.05800
H 	H 	0.85430 0.69550 0.06490 -0.00100
C 	C 	0.80278 0.72452 0.08168 -0.10300
H 	H 	0.80400 0.74440 0.06000 0.06600
C 	C 	0.77102 0.72550 0.10890 0.01400
H 	H 	0.75000 0.74580 0.10620 0.03500
C 	C 	0.76932 0.69670 0.14078 -0.05100
C 	C 	0.80082 0.66838 0.14326 0.03600
H 	H 	0.80030 0.64870 0.16510 0.01700
C 	C 	0.73561 0.69729 0.17189 0.13800
C 	C 	0.67679 0.72263 0.19647 0.13500
C 	C 	0.70650 0.67220 0.23010 0.13300
C 	C 	0.70646 0.59452 0.33166 0.06000
H 	H 	0.70590 0.57670 0.35470 0.00100
C 	C 	0.73800 0.58980 0.30348 -0.09900
H 	H 	0.75880 0.56960 0.30700 0.06600
C 	C 	0.73857 0.61547 0.26951 0.00900
H 	H 	0.76000 0.61300 0.24940 0.03800
C 	C 	0.70866 0.64372 0.26526 -0.04800
C 	C 	0.67730 0.64740 0.29618 0.03700
H 	H 	0.65650 0.66810 0.29350 0.01400
C 	C 	0.57878 0.63454 0.44792 0.05900
H 	H 	0.60120 0.63200 0.44720 0.00000
C 	C 	0.54791 0.64249 0.47689 -0.09900
H 	H 	0.54880 0.64700 0.49460 0.06700
C 	C 	0.51615 0.64355 0.47885 0.01000
H 	H 	0.49500 0.64780 0.49860 0.03700
C 	C 	0.51544 0.63838 0.45194 -0.05500
C 	C 	0.54779 0.63165 0.42359 0.04800
H 	H 	0.54760 0.62780 0.40500 0.00900
C 	C 	0.48265 0.63873 0.45285 0.13500
C 	C 	0.66987 0.57715 0.42925 0.10800
N 	N 	0.63282 0.07078 0.90506 -0.26300
N 	N 	0.59522 0.40820 0.65594 -0.26600
N 	N 	0.81640 0.16490 0.61562 -0.22300
N 	N 	0.66729 0.11583 0.83273 -0.22300
N 	N 	0.67072 0.20232 0.73822 -0.15100
N 	N 	0.72430 0.16732 0.70564 -0.15300
N 	N 	0.69709 0.22843 0.67529 -0.15300
N 	N 	0.62275 0.32873 0.67631 -0.22900
N 	N 	0.63029 0.42141 0.57827 -0.22900
N 	N 	0.63887 0.42295 0.48333 -0.15200
S 	S 	0.65998 0.99606 0.92962 -0.06000
S 	S 	0.55264 0.46024 0.68854 -0.06200
C 	C 	0.64316 0.03922 0.91596 0.09700
C 	C 	0.78586 0.16746 0.64450 0.03300
H 	H 	0.78690 0.15010 0.66730 0.01600
C 	C 	0.75386 0.19362 0.64242 -0.04500
C 	C 	0.75077 0.21889 0.60887 0.00700
H 	H 	0.72870 0.23750 0.60670 0.03800
C 	C 	0.78120 0.21526 0.57960 -0.10000
H 	H 	0.78030 0.23110 0.55630 0.06600
C 	C 	0.81273 0.18919 0.58355 0.05900
H 	H 	0.83340 0.18800 0.56260 -0.00000
C 	C 	0.69585 0.08485 0.83261 0.05800
H 	H 	0.69550 0.06490 0.85430 -0.00100
C 	C 	0.72452 0.08168 0.80278 -0.10300
H 	H 	0.74440 0.06000 0.80400 0.06600
C 	C 	0.72550 0.10890 0.77102 0.01400
H 	H 	0.74580 0.10620 0.75000 0.03500
C 	C 	0.69670 0.14078 0.76932 -0.05100
C 	C 	0.66838 0.14326 0.80082 0.03600
H 	H 	0.64870 0.16510 0.80030 0.01700
C 	C 	0.69729 0.17189 0.73561 0.13800
C 	C 	0.72263 0.19647 0.67679 0.13500
C 	C 	0.67220 0.23010 0.70650 0.13300
C 	C 	0.59452 0.33166 0.70646 0.06000
H 	H 	0.57670 0.35470 0.70590 0.00100
C 	C 	0.58980 0.30348 0.73800 -0.09900
H 	H 	0.56960 0.30700 0.75880 0.06600
C 	C 	0.61547 0.26951 0.73857 0.00900
H 	H 	0.61300 0.24940 0.76000 0.03800
C 	C 	0.64372 0.26526 0.70866 -0.04800
C 	C 	0.64740 0.29618 0.67730 0.03700
H 	H 	0.66810 0.29350 0.65650 0.01400
C 	C 	0.63454 0.44792 0.57878 0.05900
H 	H 	0.63200 0.44720 0.60120 0.00000
C 	C 	0.64249 0.47689 0.54791 -0.09900
H 	H 	0.64700 0.49460 0.54880 0.06700
C 	C 	0.64355 0.47885 0.51615 0.01000
H 	H 	0.64780 0.49860 0.49500 0.03700
C 	C 	0.63838 0.45194 0.51544 -0.05500
C 	C 	0.63165 0.42359 0.54779 0.04800
H 	H 	0.62780 0.40500 0.54760 0.00900
C 	C 	0.63873 0.45285 0.48265 0.13500
C 	C 	0.57715 0.42925 0.66987 0.10800
N 	N 	0.90506 0.39134 0.63282 -0.26300
N 	N 	0.65594 0.34064 0.59522 -0.26600
N 	N 	0.61562 0.40308 0.81640 -0.22300
N 	N 	0.83273 0.38415 0.66729 -0.22300
N 	N 	0.73822 0.38874 0.67072 -0.15100
N 	N 	0.70564 0.40274 0.72430 -0.15300
N 	N 	0.67529 0.39919 0.69709 -0.15300
N 	N 	0.67631 0.37221 0.62275 -0.22900
N 	N 	0.57827 0.37003 0.63029 -0.22900
N 	N 	0.48333 0.45485 0.63887 -0.15200
S 	S 	0.92962 0.41434 0.65998 -0.06000
S 	S 	0.68854 0.29858 0.55264 -0.06200
C 	C 	0.91596 0.40166 0.64316 0.09700
C 	C 	0.64450 0.40218 0.78586 0.03300
H 	H 	0.66730 0.39570 0.78690 0.01600
C 	C 	0.64242 0.41010 0.75386 -0.04500
C 	C 	0.60887 0.42147 0.75077 0.00700
H 	H 	0.60670 0.42710 0.72870 0.03800
C 	C 	0.57960 0.42394 0.78120 -0.10000
H 	H 	0.55630 0.43230 0.78030 0.06600
C 	C 	0.58355 0.41453 0.81273 0.05900
H 	H 	0.56260 0.41600 0.83340 -0.00000
C 	C 	0.83261 0.38669 0.69585 0.05800
H 	H 	0.85430 0.38530 0.69550 -0.00100
C 	C 	0.80278 0.39102 0.72452 -0.10300
H 	H 	0.80400 0.39160 0.74440 0.06600
C 	C 	0.77102 0.39458 0.72550 0.01400
H 	H 	0.75000 0.39800 0.74580 0.03500
C 	C 	0.76932 0.39320 0.69670 -0.05100
C 	C 	0.80082 0.38754 0.66838 0.03600
H 	H 	0.80030 0.38590 0.64870 0.01700
C 	C 	0.73561 0.39521 0.69729 0.13800
C 	C 	0.67679 0.40411 0.72263 0.13500
C 	C 	0.70650 0.39120 0.67220 0.13300
C 	C 	0.70646 0.36736 0.59452 0.06000
H 	H 	0.70590 0.36270 0.57670 0.00100
C 	C 	0.73800 0.36872 0.58980 -0.09900
H 	H 	0.75880 0.36460 0.56960 0.06600
C 	C 	0.73857 0.37645 0.61547 0.00900
H 	H 	0.76000 0.37760 0.61300 0.03800
C 	C 	0.70866 0.38236 0.64372 -0.04800
C 	C 	0.67730 0.37912 0.64740 0.03700
H 	H 	0.65650 0.38190 0.66810 0.01400
C 	C 	0.57878 0.33876 0.63454 0.05900
H 	H 	0.60120 0.31960 0.63200 0.00000
C 	C 	0.54791 0.33271 0.64249 -0.09900
H 	H 	0.54880 0.30960 0.64700 0.06700
C 	C 	0.51615 0.36145 0.64355 0.01000
H 	H 	0.49500 0.35860 0.64780 0.03700
C 	C 	0.51544 0.39424 0.63838 -0.05500
C 	C 	0.54779 0.39697 0.63165 0.04800
H 	H 	0.54760 0.41960 0.62780 0.00900
C 	C 	0.48265 0.42577 0.63873 0.13500
C 	C 	0.66987 0.32373 0.57715 0.10800
N 	N 	0.07078 0.63282 0.39134 -0.26300
N 	N 	0.40820 0.59522 0.34064 -0.26600
N 	N 	0.16490 0.81640 0.40308 -0.22300
N 	N 	0.11583 0.66729 0.38415 -0.22300
N 	N 	0.20232 0.67072 0.38874 -0.15100
N 	N 	0.16732 0.72430 0.40274 -0.15300
N 	N 	0.22843 0.69709 0.39919 -0.15300
N 	N 	0.32873 0.62275 0.37221 -0.22900
N 	N 	0.42141 0.63029 0.37003 -0.22900
N 	N 	0.42295 0.63887 0.45485 -0.15200
S 	S 	0.99606 0.65998 0.41434 -0.06000
S 	S 	0.46024 0.55264 0.29858 -0.06200
C 	C 	0.03922 0.64316 0.40166 0.09700
C 	C 	0.16746 0.78586 0.40218 0.03300
H 	H 	0.15010 0.78690 0.39570 0.01600
C 	C 	0.19362 0.75386 0.41010 -0.04500
C 	C 	0.21889 0.75077 0.42147 0.00700
H 	H 	0.23750 0.72870 0.42710 0.03800
C 	C 	0.21526 0.78120 0.42394 -0.10000
H 	H 	0.23110 0.78030 0.43230 0.06600
C 	C 	0.18919 0.81273 0.41453 0.05900
H 	H 	0.18800 0.83340 0.41600 -0.00000
C 	C 	0.08485 0.69585 0.38669 0.05800
H 	H 	0.06490 0.69550 0.38530 -0.00100
C 	C 	0.08168 0.72452 0.39102 -0.10300
H 	H 	0.06000 0.74440 0.39160 0.06600
C 	C 	0.10890 0.72550 0.39458 0.01400
H 	H 	0.10620 0.74580 0.39800 0.03500
C 	C 	0.14078 0.69670 0.39320 -0.05100
C 	C 	0.14326 0.66838 0.38754 0.03600
H 	H 	0.16510 0.64870 0.38590 0.01700
C 	C 	0.17189 0.69729 0.39521 0.13800
C 	C 	0.19647 0.72263 0.40411 0.13500
C 	C 	0.23010 0.67220 0.39120 0.13300
C 	C 	0.33166 0.59452 0.36736 0.06000
H 	H 	0.35470 0.57670 0.36270 0.00100
C 	C 	0.30348 0.58980 0.36872 -0.09900
H 	H 	0.30700 0.56960 0.36460 0.06600
C 	C 	0.26951 0.61547 0.37645 0.00900
H 	H 	0.24940 0.61300 0.37760 0.03800
C 	C 	0.26526 0.64372 0.38236 -0.04800
C 	C 	0.29618 0.64740 0.37912 0.03700
H 	H 	0.29350 0.66810 0.38190 0.01400
C 	C 	0.44792 0.63454 0.33876 0.05900
H 	H 	0.44720 0.63200 0.31960 0.00000
C 	C 	0.47689 0.64249 0.33271 -0.09900
H 	H 	0.49460 0.64700 0.30960 0.06700
C 	C 	0.47885 0.64355 0.36145 0.01000
H 	H 	0.49860 0.64780 0.35860 0.03700
C 	C 	0.45194 0.63838 0.39424 -0.05500
C 	C 	0.42359 0.63165 0.39697 0.04800
H 	H 	0.40500 0.62780 0.41960 0.00900
C 	C 	0.45285 0.63873 0.42577 0.13500
C 	C 	0.42925 0.57715 0.32373 0.10800
N 	N 	0.39134 0.90506 0.07078 -0.26300
N 	N 	0.34064 0.65594 0.40820 -0.26600
N 	N 	0.40308 0.61562 0.16490 -0.22300
N 	N 	0.38415 0.83273 0.11583 -0.22300
N 	N 	0.38874 0.73822 0.20232 -0.15100
N 	N 	0.40274 0.70564 0.16732 -0.15300
N 	N 	0.39919 0.67529 0.22843 -0.15300
N 	N 	0.37221 0.67631 0.32873 -0.22900
N 	N 	0.37003 0.57827 0.42141 -0.22900
N 	N 	0.45485 0.48333 0.42295 -0.15200
S 	S 	0.41434 0.92962 0.99606 -0.06000
S 	S 	0.29858 0.68854 0.46024 -0.06200
C 	C 	0.40166 0.91596 0.03922 0.09700
C 	C 	0.40218 0.64450 0.16746 0.03300
H 	H 	0.39570 0.66730 0.15010 0.01600
C 	C 	0.41010 0.64242 0.19362 -0.04500
C 	C 	0.42147 0.60887 0.21889 0.00700
H 	H 	0.42710 0.60670 0.23750 0.03800
C 	C 	0.42394 0.57960 0.21526 -0.10000
H 	H 	0.43230 0.55630 0.23110 0.06600
C 	C 	0.41453 0.58355 0.18919 0.05900
H 	H 	0.41600 0.56260 0.18800 -0.00000
C 	C 	0.38669 0.83261 0.08485 0.05800
H 	H 	0.38530 0.85430 0.06490 -0.00100
C 	C 	0.39102 0.80278 0.08168 -0.10300
H 	H 	0.39160 0.80400 0.06000 0.06600
C 	C 	0.39458 0.77102 0.10890 0.01400
H 	H 	0.39800 0.75000 0.10620 0.03500
C 	C 	0.39320 0.76932 0.14078 -0.05100
C 	C 	0.38754 0.80082 0.14326 0.03600
H 	H 	0.38590 0.80030 0.16510 0.01700
C 	C 	0.39521 0.73561 0.17189 0.13800
C 	C 	0.40411 0.67679 0.19647 0.13500
C 	C 	0.39120 0.70650 0.23010 0.13300
C 	C 	0.36736 0.70646 0.33166 0.06000
H 	H 	0.36270 0.70590 0.35470 0.00100
C 	C 	0.36872 0.73800 0.30348 -0.09900
H 	H 	0.36460 0.75880 0.30700 0.06600
C 	C 	0.37645 0.73857 0.26951 0.00900
H 	H 	0.37760 0.76000 0.24940 0.03800
C 	C 	0.38236 0.70866 0.26526 -0.04800
C 	C 	0.37912 0.67730 0.29618 0.03700
H 	H 	0.38190 0.65650 0.29350 0.01400
C 	C 	0.33876 0.57878 0.44792 0.05900
H 	H 	0.31960 0.60120 0.44720 0.00000
C 	C 	0.33271 0.54791 0.47689 -0.09900
H 	H 	0.30960 0.54880 0.49460 0.06700
C 	C 	0.36145 0.51615 0.47885 0.01000
H 	H 	0.35860 0.49500 0.49860 0.03700
C 	C 	0.39424 0.51544 0.45194 -0.05500
C 	C 	0.39697 0.54779 0.42359 0.04800
H 	H 	0.41960 0.54760 0.40500 0.00900
C 	C 	0.42577 0.48265 0.45285 0.13500
C 	C 	0.32373 0.66987 0.42925 0.10800
N 	N 	0.39134 0.63282 0.90506 -0.26300
N 	N 	0.34064 0.59522 0.65594 -0.26600
N 	N 	0.40308 0.81640 0.61562 -0.22300
N 	N 	0.38415 0.66729 0.83273 -0.22300
N 	N 	0.38874 0.67072 0.73822 -0.15100
N 	N 	0.40274 0.72430 0.70564 -0.15300
N 	N 	0.39919 0.69709 0.67529 -0.15300
N 	N 	0.37221 0.62275 0.67631 -0.22900
N 	N 	0.37003 0.63029 0.57827 -0.22900
N 	N 	0.45485 0.63887 0.48333 -0.15200
S 	S 	0.41434 0.65998 0.92962 -0.06000
S 	S 	0.29858 0.55264 0.68854 -0.06200
C 	C 	0.40166 0.64316 0.91596 0.09700
C 	C 	0.40218 0.78586 0.64450 0.03300
H 	H 	0.39570 0.78690 0.66730 0.01600
C 	C 	0.41010 0.75386 0.64242 -0.04500
C 	C 	0.42147 0.75077 0.60887 0.00700
H 	H 	0.42710 0.72870 0.60670 0.03800
C 	C 	0.42394 0.78120 0.57960 -0.10000
H 	H 	0.43230 0.78030 0.55630 0.06600
C 	C 	0.41453 0.81273 0.58355 0.05900
H 	H 	0.41600 0.83340 0.56260 -0.00000
C 	C 	0.38669 0.69585 0.83261 0.05800
H 	H 	0.38530 0.69550 0.85430 -0.00100
C 	C 	0.39102 0.72452 0.80278 -0.10300
H 	H 	0.39160 0.74440 0.80400 0.06600
C 	C 	0.39458 0.72550 0.77102 0.01400
H 	H 	0.39800 0.74580 0.75000 0.03500
C 	C 	0.39320 0.69670 0.76932 -0.05100
C 	C 	0.38754 0.66838 0.80082 0.03600
H 	H 	0.38590 0.64870 0.80030 0.01700
C 	C 	0.39521 0.69729 0.73561 0.13800
C 	C 	0.40411 0.72263 0.67679 0.13500
C 	C 	0.39120 0.67220 0.70650 0.13300
C 	C 	0.36736 0.59452 0.70646 0.06000
H 	H 	0.36270 0.57670 0.70590 0.00100
C 	C 	0.36872 0.58980 0.73800 -0.09900
H 	H 	0.36460 0.56960 0.75880 0.06600
C 	C 	0.37645 0.61547 0.73857 0.00900
H 	H 	0.37760 0.61300 0.76000 0.03800
C 	C 	0.38236 0.64372 0.70866 -0.04800
C 	C 	0.37912 0.64740 0.67730 0.03700
H 	H 	0.38190 0.66810 0.65650 0.01400
C 	C 	0.33876 0.63454 0.57878 0.05900
H 	H 	0.31960 0.63200 0.60120 0.00000
C 	C 	0.33271 0.64249 0.54791 -0.09900
H 	H 	0.30960 0.64700 0.54880 0.06700
C 	C 	0.36145 0.64355 0.51615 0.01000
H 	H 	0.35860 0.64780 0.49500 0.03700
C 	C 	0.39424 0.63838 0.51544 -0.05500
C 	C 	0.39697 0.63165 0.54779 0.04800
H 	H 	0.41960 0.62780 0.54760 0.00900
C 	C 	0.42577 0.63873 0.48265 0.13500
C 	C 	0.32373 0.57715 0.66987 0.10800
N 	N 	0.07078 0.90506 0.63282 -0.26300
N 	N 	0.40820 0.65594 0.59522 -0.26600
N 	N 	0.16490 0.61562 0.81640 -0.22300
N 	N 	0.11583 0.83273 0.66729 -0.22300
N 	N 	0.20232 0.73822 0.67072 -0.15100
N 	N 	0.16732 0.70564 0.72430 -0.15300
N 	N 	0.22843 0.67529 0.69709 -0.15300
N 	N 	0.32873 0.67631 0.62275 -0.22900
N 	N 	0.42141 0.57827 0.63029 -0.22900
N 	N 	0.42295 0.48333 0.63887 -0.15200
S 	S 	0.99606 0.92962 0.65998 -0.06000
S 	S 	0.46024 0.68854 0.55264 -0.06200
C 	C 	0.03922 0.91596 0.64316 0.09700
C 	C 	0.16746 0.64450 0.78586 0.03300
H 	H 	0.15010 0.66730 0.78690 0.01600
C 	C 	0.19362 0.64242 0.75386 -0.04500
C 	C 	0.21889 0.60887 0.75077 0.00700
H 	H 	0.23750 0.60670 0.72870 0.03800
C 	C 	0.21526 0.57960 0.78120 -0.10000
H 	H 	0.23110 0.55630 0.78030 0.06600
C 	C 	0.18919 0.58355 0.81273 0.05900
H 	H 	0.18800 0.56260 0.83340 -0.00000
C 	C 	0.08485 0.83261 0.69585 0.05800
H 	H 	0.06490 0.85430 0.69550 -0.00100
C 	C 	0.08168 0.80278 0.72452 -0.10300
H 	H 	0.06000 0.80400 0.74440 0.06600
C 	C 	0.10890 0.77102 0.72550 0.01400
H 	H 	0.10620 0.75000 0.74580 0.03500
C 	C 	0.14078 0.76932 0.69670 -0.05100
C 	C 	0.14326 0.80082 0.66838 0.03600
H 	H 	0.16510 0.80030 0.64870 0.01700
C 	C 	0.17189 0.73561 0.69729 0.13800
C 	C 	0.19647 0.67679 0.72263 0.13500
C 	C 	0.23010 0.70650 0.67220 0.13300
C 	C 	0.33166 0.70646 0.59452 0.06000
H 	H 	0.35470 0.70590 0.57670 0.00100
C 	C 	0.30348 0.73800 0.58980 -0.09900
H 	H 	0.30700 0.75880 0.56960 0.06600
C 	C 	0.26951 0.73857 0.61547 0.00900
H 	H 	0.24940 0.76000 0.61300 0.03800
C 	C 	0.26526 0.70866 0.64372 -0.04800
C 	C 	0.29618 0.67730 0.64740 0.03700
H 	H 	0.29350 0.65650 0.66810 0.01400
C 	C 	0.44792 0.57878 0.63454 0.05900
H 	H 	0.44720 0.60120 0.63200 0.00000
C 	C 	0.47689 0.54791 0.64249 -0.09900
H 	H 	0.49460 0.54880 0.64700 0.06700
C 	C 	0.47885 0.51615 0.64355 0.01000
H 	H 	0.49860 0.49500 0.64780 0.03700
C 	C 	0.45194 0.51544 0.63838 -0.05500
C 	C 	0.42359 0.54779 0.63165 0.04800
H 	H 	0.40500 0.54760 0.62780 0.00900
C 	C 	0.45285 0.48265 0.63873 0.13500
C 	C 	0.42925 0.66987 0.57715 0.10800
N 	N 	0.90506 0.07078 0.39134 -0.26300
N 	N 	0.65594 0.40820 0.34064 -0.26600
N 	N 	0.61562 0.16490 0.40308 -0.22300
N 	N 	0.83273 0.11583 0.38415 -0.22300
N 	N 	0.73822 0.20232 0.38874 -0.15100
N 	N 	0.70564 0.16732 0.40274 -0.15300
N 	N 	0.67529 0.22843 0.39919 -0.15300
N 	N 	0.67631 0.32873 0.37221 -0.22900
N 	N 	0.57827 0.42141 0.37003 -0.22900
N 	N 	0.48333 0.42295 0.45485 -0.15200
S 	S 	0.92962 0.99606 0.41434 -0.06000
S 	S 	0.68854 0.46024 0.29858 -0.06200
C 	C 	0.91596 0.03922 0.40166 0.09700
C 	C 	0.64450 0.16746 0.40218 0.03300
H 	H 	0.66730 0.15010 0.39570 0.01600
C 	C 	0.64242 0.19362 0.41010 -0.04500
C 	C 	0.60887 0.21889 0.42147 0.00700
H 	H 	0.60670 0.23750 0.42710 0.03800
C 	C 	0.57960 0.21526 0.42394 -0.10000
H 	H 	0.55630 0.23110 0.43230 0.06600
C 	C 	0.58355 0.18919 0.41453 0.05900
H 	H 	0.56260 0.18800 0.41600 -0.00000
C 	C 	0.83261 0.08485 0.38669 0.05800
H 	H 	0.85430 0.06490 0.38530 -0.00100
C 	C 	0.80278 0.08168 0.39102 -0.10300
H 	H 	0.80400 0.06000 0.39160 0.06600
C 	C 	0.77102 0.10890 0.39458 0.01400
H 	H 	0.75000 0.10620 0.39800 0.03500
C 	C 	0.76932 0.14078 0.39320 -0.05100
C 	C 	0.80082 0.14326 0.38754 0.03600
H 	H 	0.80030 0.16510 0.38590 0.01700
C 	C 	0.73561 0.17189 0.39521 0.13800
C 	C 	0.67679 0.19647 0.40411 0.13500
C 	C 	0.70650 0.23010 0.39120 0.13300
C 	C 	0.70646 0.33166 0.36736 0.06000
H 	H 	0.70590 0.35470 0.36270 0.00100
C 	C 	0.73800 0.30348 0.36872 -0.09900
H 	H 	0.75880 0.30700 0.36460 0.06600
C 	C 	0.73857 0.26951 0.37645 0.00900
H 	H 	0.76000 0.24940 0.37760 0.03800
C 	C 	0.70866 0.26526 0.38236 -0.04800
C 	C 	0.67730 0.29618 0.37912 0.03700
H 	H 	0.65650 0.29350 0.38190 0.01400
C 	C 	0.57878 0.44792 0.33876 0.05900
H 	H 	0.60120 0.44720 0.31960 0.00000
C 	C 	0.54791 0.47689 0.33271 -0.09900
H 	H 	0.54880 0.49460 0.30960 0.06700
C 	C 	0.51615 0.47885 0.36145 0.01000
H 	H 	0.49500 0.49860 0.35860 0.03700
C 	C 	0.51544 0.45194 0.39424 -0.05500
C 	C 	0.54779 0.42359 0.39697 0.04800
H 	H 	0.54760 0.40500 0.41960 0.00900
C 	C 	0.48265 0.45285 0.42577 0.13500
C 	C 	0.66987 0.42925 0.32373 0.10800
N 	N 	0.63282 0.39134 0.07078 -0.26300
N 	N 	0.59522 0.34064 0.40820 -0.26600
N 	N 	0.81640 0.40308 0.16490 -0.22300
N 	N 	0.66729 0.38415 0.11583 -0.22300
N 	N 	0.67072 0.38874 0.20232 -0.15100
N 	N 	0.72430 0.40274 0.16732 -0.15300
N 	N 	0.69709 0.39919 0.22843 -0.15300
N 	N 	0.62275 0.37221 0.32873 -0.22900
N 	N 	0.63029 0.37003 0.42141 -0.22900
N 	N 	0.63887 0.45485 0.42295 -0.15200
S 	S 	0.65998 0.41434 0.99606 -0.06000
S 	S 	0.55264 0.29858 0.46024 -0.06200
C 	C 	0.64316 0.40166 0.03922 0.09700
C 	C 	0.78586 0.40218 0.16746 0.03300
H 	H 	0.78690 0.39570 0.15010 0.01600
C 	C 	0.75386 0.41010 0.19362 -0.04500
C 	C 	0.75077 0.42147 0.21889 0.00700
H 	H 	0.72870 0.42710 0.23750 0.03800
C 	C 	0.78120 0.42394 0.21526 -0.10000
H 	H 	0.78030 0.43230 0.23110 0.06600
C 	C 	0.81273 0.41453 0.18919 0.05900
H 	H 	0.83340 0.41600 0.18800 -0.00000
C 	C 	0.69585 0.38669 0.08485 0.05800
H 	H 	0.69550 0.38530 0.06490 -0.00100
C 	C 	0.72452 0.39102 0.08168 -0.10300
H 	H 	0.74440 0.39160 0.06000 0.06600
C 	C 	0.72550 0.39458 0.10890 0.01400
H 	H 	0.74580 0.39800 0.10620 0.03500
C 	C 	0.69670 0.39320 0.14078 -0.05100
C 	C 	0.66838 0.38754 0.14326 0.03600
H 	H 	0.64870 0.38590 0.16510 0.01700
C 	C 	0.69729 0.39521 0.17189 0.13800
C 	C 	0.72263 0.40411 0.19647 0.13500
C 	C 	0.67220 0.39120 0.23010 0.13300
C 	C 	0.59452 0.36736 0.33166 0.06000
H 	H 	0.57670 0.36270 0.35470 0.00100
C 	C 	0.58980 0.36872 0.30348 -0.09900
H 	H 	0.56960 0.36460 0.30700 0.06600
C 	C 	0.61547 0.37645 0.26951 0.00900
H 	H 	0.61300 0.37760 0.24940 0.03800
C 	C 	0.64372 0.38236 0.26526 -0.04800
C 	C 	0.64740 0.37912 0.29618 0.03700
H 	H 	0.66810 0.38190 0.29350 0.01400
C 	C 	0.63454 0.33876 0.44792 0.05900
H 	H 	0.63200 0.31960 0.44720 0.00000
C 	C 	0.64249 0.33271 0.47689 -0.09900
H 	H 	0.64700 0.30960 0.49460 0.06700
C 	C 	0.64355 0.36145 0.47885 0.01000
H 	H 	0.64780 0.35860 0.49860 0.03700
C 	C 	0.63838 0.39424 0.45194 -0.05500
C 	C 	0.63165 0.39697 0.42359 0.04800
H 	H 	0.62780 0.41960 0.40500 0.00900
C 	C 	0.63873 0.42577 0.45285 0.13500
C 	C 	0.57715 0.32373 0.42925 0.10800
Co	Co	0.62500 0.86714 0.12500 1.12100
Co	Co	0.86714 0.62500 0.38286 1.12100
Co	Co	0.12500 0.38286 0.62500 1.12100
Co	Co	0.38286 0.12500 0.86714 1.12100
Co	Co	0.12500 0.62500 0.86714 1.12100
Co	Co	0.38286 0.86714 0.62500 1.12100
Co	Co	0.62500 0.12500 0.38286 1.12100
Co	Co	0.86714 0.38286 0.12500 1.12100
Co	Co	0.86714 0.12500 0.62500 1.12100
Co	Co	0.62500 0.38286 0.86714 1.12100
Co	Co	0.38286 0.62500 0.12500 1.12100
Co	Co	0.12500 0.86714 0.38286 1.12100
Co	Co	0.12500 0.88286 0.62500 1.12100
Co	Co	0.88286 0.12500 0.36714 1.12100
Co	Co	0.62500 0.36714 0.12500 1.12100
Co	Co	0.36714 0.62500 0.88286 1.12100
Co	Co	0.62500 0.12500 0.88286 1.12100
Co	Co	0.36714 0.88286 0.12500 1.12100
Co	Co	0.12500 0.62500 0.36714 1.12100
Co	Co	0.88286 0.36714 0.62500 1.12100
Co	Co	0.88286 0.62500 0.12500 1.12100
Co	Co	0.12500 0.36714 0.88286 1.12100
Co	Co	0.36714 0.12500 0.62500 1.12100
Co	Co	0.62500 0.88286 0.36714 1.12100
Co	Co	0.87356 0.87356 0.12644 1.12300
Co	Co	0.12644 0.12644 0.87356 1.12300
Co	Co	0.12644 0.87356 0.87356 1.12300
Co	Co	0.87356 0.12644 0.12644 1.12300
Co	Co	0.87356 0.12644 0.87356 1.12300
Co	Co	0.12644 0.87356 0.12644 1.12300
Co	Co	0.37644 0.37644 0.12356 1.12300
Co	Co	0.12356 0.12356 0.37644 1.12300
Co	Co	0.12356 0.37644 0.12356 1.12300
Co	Co	0.37644 0.12356 0.37644 1.12300
Co	Co	0.37644 0.12356 0.12356 1.12300
Co	Co	0.12356 0.37644 0.37644 1.12300
Co	Co	0.87644 0.87644 0.62356 1.12300
Co	Co	0.62356 0.62356 0.87644 1.12300
Co	Co	0.62356 0.87644 0.87644 1.12300
Co	Co	0.87644 0.62356 0.62356 1.12300
Co	Co	0.87644 0.62356 0.87644 1.12300
Co	Co	0.62356 0.87644 0.62356 1.12300
Co	Co	0.37356 0.37356 0.62644 1.12300
Co	Co	0.62644 0.62644 0.37356 1.12300
Co	Co	0.62644 0.37356 0.62644 1.12300
Co	Co	0.37356 0.62644 0.37356 1.12300
Co	Co	0.37356 0.62644 0.62644 1.12300
Co	Co	0.62644 0.37356 0.37356 1.12300
