data_crystal

_cell_length_a 45.19830
_cell_length_b 45.19830
_cell_length_c 45.19830
_cell_angle_alpha 60.00000
_cell_angle_beta  60.00000
_cell_angle_gamma 60.00000

_symmetry_space_group_name_	'P 1'
_symmetry_space_group_name_H-M	'P 1'

loop_
_symmetry_equiv_pos_as_xyz
  x,y,z

loop_
_atom_site_label
_atom_site_type_symbol
_atom_site_fract_x
_atom_site_fract_y
_atom_site_fract_z
_atom_site_charge
S 	S 	0.20341 0.87929 0.46641 -0.06300
C 	C 	0.22699 0.83611 0.47629 0.09600
N 	N 	0.24233 0.80511 0.48441 -0.26000
N 	N 	0.29036 0.73930 0.53056 -0.22600
C 	C 	0.31400 0.70758 0.54266 0.06500
H 	H 	0.31310 0.68630 0.54410 -0.00300
C 	C 	0.33987 0.70371 0.55331 -0.10300
H 	H 	0.35570 0.68030 0.56230 0.06500
C 	C 	0.34268 0.73402 0.55078 0.00700
H 	H 	0.36050 0.73210 0.55750 0.03600
C 	C 	0.31807 0.76767 0.53777 -0.04800
C 	C 	0.29201 0.76867 0.52885 0.03600
H 	H 	0.27470 0.79150 0.52110 0.01000
N 	N 	0.23965 0.96045 0.50653 -0.22800
C 	C 	0.26596 0.92784 0.51188 0.03700
H 	H 	0.28730 0.92670 0.51230 0.01400
C 	C 	0.26425 0.89645 0.51677 -0.05000
C 	C 	0.23288 0.89782 0.51600 0.00700
H 	H 	0.23090 0.87670 0.51830 0.03600
C 	C 	0.20549 0.93001 0.51191 -0.09700
H 	H 	0.18360 0.93140 0.51240 0.06300
C 	C 	0.20928 0.96106 0.50702 0.05300
H 	H 	0.18990 0.98330 0.50390 -0.00100
C 	C 	0.29532 0.86226 0.51988 0.13200
N 	N 	0.29073 0.83163 0.52881 -0.15100
C 	C 	0.32049 0.80195 0.53087 0.13100
N 	N 	0.35304 0.80178 0.52426 -0.15200
C 	C 	0.35487 0.83381 0.51431 0.13300
N 	N 	0.32700 0.86548 0.51158 -0.14900
C 	C 	0.39084 0.83584 0.50356 -0.05100
C 	C 	0.42066 0.80450 0.50322 0.04100
H 	H 	0.41720 0.78260 0.50980 0.01000
N 	N 	0.45372 0.80366 0.49412 -0.22800
C 	C 	0.45834 0.83478 0.48492 0.05400
H 	H 	0.48190 0.83450 0.47870 0.00300
C 	C 	0.42994 0.86716 0.48422 -0.09600
H 	H 	0.43410 0.88850 0.47790 0.06500
C 	C 	0.39546 0.86824 0.49282 0.00600
H 	H 	0.37580 0.89040 0.49140 0.03800
N 	N 	0.46430 0.72058 0.53400 -0.26400
C 	C 	0.44592 0.70420 0.55684 0.10400
S 	S 	0.41915 0.68119 0.59081 -0.06200
N 	N 	0.49344 0.75670 0.54578 -0.22700
C 	C 	0.52127 0.75853 0.54769 0.03600
H 	H 	0.54360 0.75600 0.52840 0.01200
C 	C 	0.51853 0.76401 0.57659 -0.05200
C 	C 	0.48473 0.76835 0.60473 0.00800
H 	H 	0.48190 0.77190 0.62510 0.03600
C 	C 	0.45663 0.76741 0.60251 -0.09700
H 	H 	0.43350 0.77130 0.62090 0.06500
C 	C 	0.46153 0.76071 0.57341 0.05200
H 	H 	0.44180 0.75880 0.57280 0.00200
C 	C 	0.55045 0.76439 0.57779 0.13800
N 	N 	0.57916 0.76518 0.54786 -0.15600
S 	S 	0.87929 0.20341 0.95089 -0.06300
C 	C 	0.83611 0.22699 0.96061 0.09600
N 	N 	0.80511 0.24233 0.96815 -0.26000
N 	N 	0.73930 0.29036 0.93978 -0.22600
C 	C 	0.70758 0.31400 0.93576 0.06500
H 	H 	0.68630 0.31310 0.95650 -0.00300
C 	C 	0.70371 0.33987 0.90311 -0.10300
H 	H 	0.68030 0.35570 0.90170 0.06500
C 	C 	0.73402 0.34268 0.87252 0.00700
H 	H 	0.73210 0.36050 0.84990 0.03600
C 	C 	0.76767 0.31807 0.87649 -0.04800
C 	C 	0.76867 0.29201 0.91047 0.03600
H 	H 	0.79150 0.27470 0.91270 0.01000
N 	N 	0.96045 0.23965 0.79337 -0.22800
C 	C 	0.92784 0.26596 0.79432 0.03700
H 	H 	0.92670 0.28730 0.77370 0.01400
C 	C 	0.89645 0.26425 0.82253 -0.05000
C 	C 	0.89782 0.23288 0.85330 0.00700
H 	H 	0.87670 0.23090 0.87410 0.03600
C 	C 	0.93001 0.20549 0.85259 -0.09700
H 	H 	0.93140 0.18360 0.87260 0.06300
C 	C 	0.96106 0.20928 0.82264 0.05300
H 	H 	0.98330 0.18990 0.82290 -0.00100
C 	C 	0.86226 0.29532 0.82254 0.13200
N 	N 	0.83163 0.29073 0.84883 -0.15100
C 	C 	0.80195 0.32049 0.84669 0.13100
N 	N 	0.80178 0.35304 0.82092 -0.15200
C 	C 	0.83381 0.35487 0.79701 0.13300
N 	N 	0.86548 0.32700 0.79594 -0.14900
C 	C 	0.83584 0.39084 0.76976 -0.05100
C 	C 	0.80450 0.42066 0.77162 0.04100
H 	H 	0.78260 0.41720 0.79040 0.01000
N 	N 	0.80366 0.45372 0.74850 -0.22800
C 	C 	0.83478 0.45834 0.72196 0.05400
H 	H 	0.83450 0.48190 0.70490 0.00300
C 	C 	0.86716 0.42994 0.71868 -0.09600
H 	H 	0.88850 0.43410 0.69950 0.06500
C 	C 	0.86824 0.39546 0.74348 0.00600
H 	H 	0.89040 0.37580 0.74240 0.03800
N 	N 	0.72058 0.46430 0.78112 -0.26400
C 	C 	0.70420 0.44592 0.79304 0.10400
S 	S 	0.68119 0.41915 0.80885 -0.06200
N 	N 	0.75670 0.49344 0.70408 -0.22700
C 	C 	0.75853 0.52127 0.67251 0.03600
H 	H 	0.75600 0.54360 0.67200 0.01200
C 	C 	0.76401 0.51853 0.64087 -0.05200
C 	C 	0.76835 0.48473 0.64219 0.00800
H 	H 	0.77190 0.48190 0.62110 0.03600
C 	C 	0.76741 0.45663 0.67345 -0.09700
H 	H 	0.77130 0.43350 0.67430 0.06500
C 	C 	0.76071 0.46153 0.70435 0.05200
H 	H 	0.75880 0.44180 0.72660 0.00200
C 	C 	0.76439 0.55045 0.60737 0.13800
N 	N 	0.76518 0.57916 0.60780 -0.15600
S 	S 	0.46641 0.95089 0.20341 -0.06300
C 	C 	0.47629 0.96061 0.22699 0.09600
N 	N 	0.48441 0.96815 0.24233 -0.26000
N 	N 	0.53056 0.93978 0.29036 -0.22600
C 	C 	0.54266 0.93576 0.31400 0.06500
H 	H 	0.54410 0.95650 0.31310 -0.00300
C 	C 	0.55331 0.90311 0.33987 -0.10300
H 	H 	0.56230 0.90170 0.35570 0.06500
C 	C 	0.55078 0.87252 0.34268 0.00700
H 	H 	0.55750 0.84990 0.36050 0.03600
C 	C 	0.53777 0.87649 0.31807 -0.04800
C 	C 	0.52885 0.91047 0.29201 0.03600
H 	H 	0.52110 0.91270 0.27470 0.01100
N 	N 	0.50653 0.79337 0.23965 -0.22700
C 	C 	0.51188 0.79432 0.26596 0.03800
H 	H 	0.51230 0.77370 0.28730 0.01500
C 	C 	0.51677 0.82253 0.26425 -0.04900
C 	C 	0.51600 0.85330 0.23288 0.00800
H 	H 	0.51830 0.87410 0.23090 0.03700
C 	C 	0.51191 0.85259 0.20549 -0.09600
H 	H 	0.51240 0.87260 0.18360 0.06400
C 	C 	0.50702 0.82264 0.20928 0.05400
H 	H 	0.50390 0.82290 0.18990 0.00000
C 	C 	0.51988 0.82254 0.29532 0.13300
N 	N 	0.52881 0.84883 0.29073 -0.15000
C 	C 	0.53087 0.84669 0.32049 0.13200
N 	N 	0.52426 0.82092 0.35304 -0.15100
C 	C 	0.51431 0.79701 0.35487 0.13400
N 	N 	0.51158 0.79594 0.32700 -0.14800
C 	C 	0.50356 0.76976 0.39084 -0.05000
C 	C 	0.50322 0.77162 0.42066 0.04200
H 	H 	0.50980 0.79040 0.41720 0.01100
N 	N 	0.49412 0.74850 0.45372 -0.22700
C 	C 	0.48492 0.72196 0.45834 0.05500
H 	H 	0.47870 0.70490 0.48190 0.00400
C 	C 	0.48422 0.71868 0.42994 -0.09500
H 	H 	0.47790 0.69950 0.43410 0.06600
C 	C 	0.49282 0.74348 0.39546 0.00700
H 	H 	0.49140 0.74240 0.37580 0.03900
N 	N 	0.53400 0.78112 0.46430 -0.26300
C 	C 	0.55684 0.79304 0.44592 0.10500
S 	S 	0.59081 0.80885 0.41915 -0.06100
N 	N 	0.54578 0.70408 0.49344 -0.22600
C 	C 	0.54769 0.67251 0.52127 0.03700
H 	H 	0.52840 0.67200 0.54360 0.01300
C 	C 	0.57659 0.64087 0.51853 -0.05100
C 	C 	0.60473 0.64219 0.48473 0.00900
H 	H 	0.62510 0.62110 0.48190 0.03700
C 	C 	0.60251 0.67345 0.45663 -0.09600
H 	H 	0.62090 0.67430 0.43350 0.06600
C 	C 	0.57341 0.70435 0.46153 0.05300
H 	H 	0.57280 0.72660 0.44180 0.00300
C 	C 	0.57779 0.60737 0.55045 0.13900
N 	N 	0.54786 0.60780 0.57916 -0.15500
S 	S 	0.95089 0.46641 0.87929 -0.06200
C 	C 	0.96061 0.47629 0.83611 0.09700
N 	N 	0.96815 0.48441 0.80511 -0.25900
N 	N 	0.93978 0.53056 0.73930 -0.22500
C 	C 	0.93576 0.54266 0.70758 0.06600
H 	H 	0.95650 0.54410 0.68630 -0.00200
C 	C 	0.90311 0.55331 0.70371 -0.10200
H 	H 	0.90170 0.56230 0.68030 0.06600
C 	C 	0.87252 0.55078 0.73402 0.00800
H 	H 	0.84990 0.55750 0.73210 0.03700
C 	C 	0.87649 0.53777 0.76767 -0.04700
C 	C 	0.91047 0.52885 0.76867 0.03700
H 	H 	0.91270 0.52110 0.79150 0.01100
N 	N 	0.79337 0.50653 0.96045 -0.22700
C 	C 	0.79432 0.51188 0.92784 0.03800
H 	H 	0.77370 0.51230 0.92670 0.01500
C 	C 	0.82253 0.51677 0.89645 -0.04900
C 	C 	0.85330 0.51600 0.89782 0.00800
H 	H 	0.87410 0.51830 0.87670 0.03700
C 	C 	0.85259 0.51191 0.93001 -0.09600
H 	H 	0.87260 0.51240 0.93140 0.06400
C 	C 	0.82264 0.50702 0.96106 0.05400
H 	H 	0.82290 0.50390 0.98330 0.00000
C 	C 	0.82254 0.51988 0.86226 0.13300
N 	N 	0.84883 0.52881 0.83163 -0.15000
C 	C 	0.84669 0.53087 0.80195 0.13200
N 	N 	0.82092 0.52426 0.80178 -0.15100
C 	C 	0.79701 0.51431 0.83381 0.13400
N 	N 	0.79594 0.51158 0.86548 -0.14800
C 	C 	0.76976 0.50356 0.83584 -0.05000
C 	C 	0.77162 0.50322 0.80450 0.04200
H 	H 	0.79040 0.50980 0.78260 0.01100
N 	N 	0.74850 0.49412 0.80366 -0.22700
C 	C 	0.72196 0.48492 0.83478 0.05500
H 	H 	0.70490 0.47870 0.83450 0.00400
C 	C 	0.71868 0.48422 0.86716 -0.09500
H 	H 	0.69950 0.47790 0.88850 0.06600
C 	C 	0.74348 0.49282 0.86824 0.00700
H 	H 	0.74240 0.49140 0.89040 0.03900
N 	N 	0.78112 0.53400 0.72058 -0.26300
C 	C 	0.79304 0.55684 0.70420 0.10500
S 	S 	0.80885 0.59081 0.68119 -0.06100
N 	N 	0.70408 0.54578 0.75670 -0.22600
C 	C 	0.67251 0.54769 0.75853 0.03700
H 	H 	0.67200 0.52840 0.75600 0.01300
C 	C 	0.64087 0.57659 0.76401 -0.05100
C 	C 	0.64219 0.60473 0.76835 0.00900
H 	H 	0.62110 0.62510 0.77190 0.03700
C 	C 	0.67345 0.60251 0.76741 -0.09600
H 	H 	0.67430 0.62090 0.77130 0.06600
C 	C 	0.70435 0.57341 0.76071 0.05300
H 	H 	0.72660 0.57280 0.75880 0.00300
C 	C 	0.60737 0.57779 0.76439 0.13900
N 	N 	0.60780 0.54786 0.76518 -0.15500
S 	S 	0.46641 0.20341 0.87929 -0.06200
C 	C 	0.47629 0.22699 0.83611 0.09700
N 	N 	0.48441 0.24233 0.80511 -0.25900
N 	N 	0.53056 0.29036 0.73930 -0.22500
C 	C 	0.54266 0.31400 0.70758 0.06600
H 	H 	0.54410 0.31310 0.68630 -0.00200
C 	C 	0.55331 0.33987 0.70371 -0.10200
H 	H 	0.56230 0.35570 0.68030 0.06600
C 	C 	0.55078 0.34268 0.73402 0.00800
H 	H 	0.55750 0.36050 0.73210 0.03700
C 	C 	0.53777 0.31807 0.76767 -0.04700
C 	C 	0.52885 0.29201 0.76867 0.03700
H 	H 	0.52110 0.27470 0.79150 0.01100
N 	N 	0.50653 0.23965 0.96045 -0.22700
C 	C 	0.51188 0.26596 0.92784 0.03800
H 	H 	0.51230 0.28730 0.92670 0.01500
C 	C 	0.51677 0.26425 0.89645 -0.04900
C 	C 	0.51600 0.23288 0.89782 0.00800
H 	H 	0.51830 0.23090 0.87670 0.03700
C 	C 	0.51191 0.20549 0.93001 -0.09600
H 	H 	0.51240 0.18360 0.93140 0.06400
C 	C 	0.50702 0.20928 0.96106 0.05400
H 	H 	0.50390 0.18990 0.98330 0.00000
C 	C 	0.51988 0.29532 0.86226 0.13300
N 	N 	0.52881 0.29073 0.83163 -0.15000
C 	C 	0.53087 0.32049 0.80195 0.13200
N 	N 	0.52426 0.35304 0.80178 -0.15100
C 	C 	0.51431 0.35487 0.83381 0.13400
N 	N 	0.51158 0.32700 0.86548 -0.14800
C 	C 	0.50356 0.39084 0.83584 -0.05000
C 	C 	0.50322 0.42066 0.80450 0.04200
H 	H 	0.50980 0.41720 0.78260 0.01100
N 	N 	0.49412 0.45372 0.80366 -0.22700
C 	C 	0.48492 0.45834 0.83478 0.05500
H 	H 	0.47870 0.48190 0.83450 0.00400
C 	C 	0.48422 0.42994 0.86716 -0.09500
H 	H 	0.47790 0.43410 0.88850 0.06600
C 	C 	0.49282 0.39546 0.86824 0.00700
H 	H 	0.49140 0.37580 0.89040 0.03900
N 	N 	0.53400 0.46430 0.72058 -0.26300
C 	C 	0.55684 0.44592 0.70420 0.10500
S 	S 	0.59081 0.41915 0.68119 -0.06100
N 	N 	0.54578 0.49344 0.75670 -0.22600
C 	C 	0.54769 0.52127 0.75853 0.03700
H 	H 	0.52840 0.54360 0.75600 0.01300
C 	C 	0.57659 0.51853 0.76401 -0.05100
C 	C 	0.60473 0.48473 0.76835 0.00900
H 	H 	0.62510 0.48190 0.77190 0.03700
C 	C 	0.60251 0.45663 0.76741 -0.09600
H 	H 	0.62090 0.43350 0.77130 0.06600
C 	C 	0.57341 0.46153 0.76071 0.05300
H 	H 	0.57280 0.44180 0.75880 0.00300
C 	C 	0.57779 0.55045 0.76439 0.13900
N 	N 	0.54786 0.57916 0.76518 -0.15500
S 	S 	0.95089 0.87929 0.20341 -0.06200
C 	C 	0.96061 0.83611 0.22699 0.09700
N 	N 	0.96815 0.80511 0.24233 -0.25900
N 	N 	0.93978 0.73930 0.29036 -0.22500
C 	C 	0.93576 0.70758 0.31400 0.06600
H 	H 	0.95650 0.68630 0.31310 -0.00200
C 	C 	0.90311 0.70371 0.33987 -0.10200
H 	H 	0.90170 0.68030 0.35570 0.06600
C 	C 	0.87252 0.73402 0.34268 0.00800
H 	H 	0.84990 0.73210 0.36050 0.03700
C 	C 	0.87649 0.76767 0.31807 -0.04700
C 	C 	0.91047 0.76867 0.29201 0.03700
H 	H 	0.91270 0.79150 0.27470 0.01100
N 	N 	0.79337 0.96045 0.23965 -0.22700
C 	C 	0.79432 0.92784 0.26596 0.03800
H 	H 	0.77370 0.92670 0.28730 0.01500
C 	C 	0.82253 0.89645 0.26425 -0.04900
C 	C 	0.85330 0.89782 0.23288 0.00800
H 	H 	0.87410 0.87670 0.23090 0.03700
C 	C 	0.85259 0.93001 0.20549 -0.09600
H 	H 	0.87260 0.93140 0.18360 0.06400
C 	C 	0.82264 0.96106 0.20928 0.05400
H 	H 	0.82290 0.98330 0.18990 0.00000
C 	C 	0.82254 0.86226 0.29532 0.13300
N 	N 	0.84883 0.83163 0.29073 -0.15000
C 	C 	0.84669 0.80195 0.32049 0.13200
N 	N 	0.82092 0.80178 0.35304 -0.15100
C 	C 	0.79701 0.83381 0.35487 0.13400
N 	N 	0.79594 0.86548 0.32700 -0.14800
C 	C 	0.76976 0.83584 0.39084 -0.05000
C 	C 	0.77162 0.80450 0.42066 0.04200
H 	H 	0.79040 0.78260 0.41720 0.01100
N 	N 	0.74850 0.80366 0.45372 -0.22700
C 	C 	0.72196 0.83478 0.45834 0.05500
H 	H 	0.70490 0.83450 0.48190 0.00400
C 	C 	0.71868 0.86716 0.42994 -0.09500
H 	H 	0.69950 0.88850 0.43410 0.06600
C 	C 	0.74348 0.86824 0.39546 0.00700
H 	H 	0.74240 0.89040 0.37580 0.03900
N 	N 	0.78112 0.72058 0.46430 -0.26300
C 	C 	0.79304 0.70420 0.44592 0.10500
S 	S 	0.80885 0.68119 0.41915 -0.06100
N 	N 	0.70408 0.75670 0.49344 -0.22600
C 	C 	0.67251 0.75853 0.52127 0.03700
H 	H 	0.67200 0.75600 0.54360 0.01300
C 	C 	0.64087 0.76401 0.51853 -0.05100
C 	C 	0.64219 0.76835 0.48473 0.00900
H 	H 	0.62110 0.77190 0.48190 0.03700
C 	C 	0.67345 0.76741 0.45663 -0.09600
H 	H 	0.67430 0.77130 0.43350 0.06600
C 	C 	0.70435 0.76071 0.46153 0.05300
H 	H 	0.72660 0.75880 0.44180 0.00300
C 	C 	0.60737 0.76439 0.55045 0.13900
N 	N 	0.60780 0.76518 0.57916 -0.15500
S 	S 	0.20341 0.46641 0.95089 -0.06200
C 	C 	0.22699 0.47629 0.96061 0.09700
N 	N 	0.24233 0.48441 0.96815 -0.25900
N 	N 	0.29036 0.53056 0.93978 -0.22500
C 	C 	0.31400 0.54266 0.93576 0.06600
H 	H 	0.31310 0.54410 0.95650 -0.00200
C 	C 	0.33987 0.55331 0.90311 -0.10200
H 	H 	0.35570 0.56230 0.90170 0.06600
C 	C 	0.34268 0.55078 0.87252 0.00800
H 	H 	0.36050 0.55750 0.84990 0.03700
C 	C 	0.31807 0.53777 0.87649 -0.04700
C 	C 	0.29201 0.52885 0.91047 0.03700
H 	H 	0.27470 0.52110 0.91270 0.01100
N 	N 	0.23965 0.50653 0.79337 -0.22700
C 	C 	0.26596 0.51188 0.79432 0.03800
H 	H 	0.28730 0.51230 0.77370 0.01500
C 	C 	0.26425 0.51677 0.82253 -0.04900
C 	C 	0.23288 0.51600 0.85330 0.00800
H 	H 	0.23090 0.51830 0.87410 0.03700
C 	C 	0.20549 0.51191 0.85259 -0.09600
H 	H 	0.18360 0.51240 0.87260 0.06400
C 	C 	0.20928 0.50702 0.82264 0.05400
H 	H 	0.18990 0.50390 0.82290 0.00000
C 	C 	0.29532 0.51988 0.82254 0.13300
N 	N 	0.29073 0.52881 0.84883 -0.15000
C 	C 	0.32049 0.53087 0.84669 0.13200
N 	N 	0.35304 0.52426 0.82092 -0.15100
C 	C 	0.35487 0.51431 0.79701 0.13400
N 	N 	0.32700 0.51158 0.79594 -0.14800
C 	C 	0.39084 0.50356 0.76976 -0.05000
C 	C 	0.42066 0.50322 0.77162 0.04200
H 	H 	0.41720 0.50980 0.79040 0.01100
N 	N 	0.45372 0.49412 0.74850 -0.22700
C 	C 	0.45834 0.48492 0.72196 0.05500
H 	H 	0.48190 0.47870 0.70490 0.00400
C 	C 	0.42994 0.48422 0.71868 -0.09500
H 	H 	0.43410 0.47790 0.69950 0.06600
C 	C 	0.39546 0.49282 0.74348 0.00700
H 	H 	0.37580 0.49140 0.74240 0.03900
N 	N 	0.46430 0.53400 0.78112 -0.26300
C 	C 	0.44592 0.55684 0.79304 0.10500
S 	S 	0.41915 0.59081 0.80885 -0.06100
N 	N 	0.49344 0.54578 0.70408 -0.22600
C 	C 	0.52127 0.54769 0.67251 0.03700
H 	H 	0.54360 0.52840 0.67200 0.01300
C 	C 	0.51853 0.57659 0.64087 -0.05100
C 	C 	0.48473 0.60473 0.64219 0.00900
H 	H 	0.48190 0.62510 0.62110 0.03700
C 	C 	0.45663 0.60251 0.67345 -0.09600
H 	H 	0.43350 0.62090 0.67430 0.06600
C 	C 	0.46153 0.57341 0.70435 0.05300
H 	H 	0.44180 0.57280 0.72660 0.00300
C 	C 	0.55045 0.57779 0.60737 0.13900
N 	N 	0.57916 0.54786 0.60780 -0.15500
S 	S 	0.87929 0.95089 0.46641 -0.06200
C 	C 	0.83611 0.96061 0.47629 0.09700
N 	N 	0.80511 0.96815 0.48441 -0.25900
N 	N 	0.73930 0.93978 0.53056 -0.22500
C 	C 	0.70758 0.93576 0.54266 0.06600
H 	H 	0.68630 0.95650 0.54410 -0.00200
C 	C 	0.70371 0.90311 0.55331 -0.10200
H 	H 	0.68030 0.90170 0.56230 0.06600
C 	C 	0.73402 0.87252 0.55078 0.00800
H 	H 	0.73210 0.84990 0.55750 0.03700
C 	C 	0.76767 0.87649 0.53777 -0.04700
C 	C 	0.76867 0.91047 0.52885 0.03700
H 	H 	0.79150 0.91270 0.52110 0.01100
N 	N 	0.96045 0.79337 0.50653 -0.22700
C 	C 	0.92784 0.79432 0.51188 0.03800
H 	H 	0.92670 0.77370 0.51230 0.01500
C 	C 	0.89645 0.82253 0.51677 -0.04900
C 	C 	0.89782 0.85330 0.51600 0.00800
H 	H 	0.87670 0.87410 0.51830 0.03700
C 	C 	0.93001 0.85259 0.51191 -0.09600
H 	H 	0.93140 0.87260 0.51240 0.06400
C 	C 	0.96106 0.82264 0.50702 0.05400
H 	H 	0.98330 0.82290 0.50390 0.00000
C 	C 	0.86226 0.82254 0.51988 0.13300
N 	N 	0.83163 0.84883 0.52881 -0.15000
C 	C 	0.80195 0.84669 0.53087 0.13200
N 	N 	0.80178 0.82092 0.52426 -0.15100
C 	C 	0.83381 0.79701 0.51431 0.13400
N 	N 	0.86548 0.79594 0.51158 -0.14800
C 	C 	0.83584 0.76976 0.50356 -0.05000
C 	C 	0.80450 0.77162 0.50322 0.04200
H 	H 	0.78260 0.79040 0.50980 0.01100
N 	N 	0.80366 0.74850 0.49412 -0.22700
C 	C 	0.83478 0.72196 0.48492 0.05500
H 	H 	0.83450 0.70490 0.47870 0.00400
C 	C 	0.86716 0.71868 0.48422 -0.09500
H 	H 	0.88850 0.69950 0.47790 0.06600
C 	C 	0.86824 0.74348 0.49282 0.00700
H 	H 	0.89040 0.74240 0.49140 0.03900
N 	N 	0.72058 0.78112 0.53400 -0.26300
C 	C 	0.70420 0.79304 0.55684 0.10500
S 	S 	0.68119 0.80885 0.59081 -0.06100
N 	N 	0.75670 0.70408 0.54578 -0.22600
C 	C 	0.75853 0.67251 0.54769 0.03700
H 	H 	0.75600 0.67200 0.52840 0.01300
C 	C 	0.76401 0.64087 0.57659 -0.05100
C 	C 	0.76835 0.64219 0.60473 0.00900
H 	H 	0.77190 0.62110 0.62510 0.03700
C 	C 	0.76741 0.67345 0.60251 -0.09600
H 	H 	0.77130 0.67430 0.62090 0.06600
C 	C 	0.76071 0.70435 0.57341 0.05300
H 	H 	0.75880 0.72660 0.57280 0.00300
C 	C 	0.76439 0.60737 0.57779 0.13900
N 	N 	0.76518 0.60780 0.54786 -0.15500
S 	S 	0.87929 0.46641 0.20341 -0.06200
C 	C 	0.83611 0.47629 0.22699 0.09700
N 	N 	0.80511 0.48441 0.24233 -0.25900
N 	N 	0.73930 0.53056 0.29036 -0.22500
C 	C 	0.70758 0.54266 0.31400 0.06600
H 	H 	0.68630 0.54410 0.31310 -0.00200
C 	C 	0.70371 0.55331 0.33987 -0.10200
H 	H 	0.68030 0.56230 0.35570 0.06600
C 	C 	0.73402 0.55078 0.34268 0.00800
H 	H 	0.73210 0.55750 0.36050 0.03700
C 	C 	0.76767 0.53777 0.31807 -0.04700
C 	C 	0.76867 0.52885 0.29201 0.03700
H 	H 	0.79150 0.52110 0.27470 0.01100
N 	N 	0.96045 0.50653 0.23965 -0.22700
C 	C 	0.92784 0.51188 0.26596 0.03800
H 	H 	0.92670 0.51230 0.28730 0.01500
C 	C 	0.89645 0.51677 0.26425 -0.04900
C 	C 	0.89782 0.51600 0.23288 0.00800
H 	H 	0.87670 0.51830 0.23090 0.03700
C 	C 	0.93001 0.51191 0.20549 -0.09600
H 	H 	0.93140 0.51240 0.18360 0.06400
C 	C 	0.96106 0.50702 0.20928 0.05400
H 	H 	0.98330 0.50390 0.18990 0.00000
C 	C 	0.86226 0.51988 0.29532 0.13300
N 	N 	0.83163 0.52881 0.29073 -0.15000
C 	C 	0.80195 0.53087 0.32049 0.13200
N 	N 	0.80178 0.52426 0.35304 -0.15100
C 	C 	0.83381 0.51431 0.35487 0.13400
N 	N 	0.86548 0.51158 0.32700 -0.14800
C 	C 	0.83584 0.50356 0.39084 -0.05000
C 	C 	0.80450 0.50322 0.42066 0.04200
H 	H 	0.78260 0.50980 0.41720 0.01100
N 	N 	0.80366 0.49412 0.45372 -0.22700
C 	C 	0.83478 0.48492 0.45834 0.05500
H 	H 	0.83450 0.47870 0.48190 0.00400
C 	C 	0.86716 0.48422 0.42994 -0.09500
H 	H 	0.88850 0.47790 0.43410 0.06600
C 	C 	0.86824 0.49282 0.39546 0.00700
H 	H 	0.89040 0.49140 0.37580 0.03900
N 	N 	0.72058 0.53400 0.46430 -0.26300
C 	C 	0.70420 0.55684 0.44592 0.10500
S 	S 	0.68119 0.59081 0.41915 -0.06100
N 	N 	0.75670 0.54578 0.49344 -0.22600
C 	C 	0.75853 0.54769 0.52127 0.03700
H 	H 	0.75600 0.52840 0.54360 0.01300
C 	C 	0.76401 0.57659 0.51853 -0.05100
C 	C 	0.76835 0.60473 0.48473 0.00900
H 	H 	0.77190 0.62510 0.48190 0.03700
C 	C 	0.76741 0.60251 0.45663 -0.09600
H 	H 	0.77130 0.62090 0.43350 0.06600
C 	C 	0.76071 0.57341 0.46153 0.05300
H 	H 	0.75880 0.57280 0.44180 0.00300
C 	C 	0.76439 0.57779 0.55045 0.13900
N 	N 	0.76518 0.54786 0.57916 -0.15500
S 	S 	0.20341 0.95089 0.87929 -0.06200
C 	C 	0.22699 0.96061 0.83611 0.09700
N 	N 	0.24233 0.96815 0.80511 -0.25900
N 	N 	0.29036 0.93978 0.73930 -0.22500
C 	C 	0.31400 0.93576 0.70758 0.06600
H 	H 	0.31310 0.95650 0.68630 -0.00200
C 	C 	0.33987 0.90311 0.70371 -0.10200
H 	H 	0.35570 0.90170 0.68030 0.06600
C 	C 	0.34268 0.87252 0.73402 0.00800
H 	H 	0.36050 0.84990 0.73210 0.03700
C 	C 	0.31807 0.87649 0.76767 -0.04700
C 	C 	0.29201 0.91047 0.76867 0.03700
H 	H 	0.27470 0.91270 0.79150 0.01100
N 	N 	0.23965 0.79337 0.96045 -0.22700
C 	C 	0.26596 0.79432 0.92784 0.03800
H 	H 	0.28730 0.77370 0.92670 0.01500
C 	C 	0.26425 0.82253 0.89645 -0.04900
C 	C 	0.23288 0.85330 0.89782 0.00800
H 	H 	0.23090 0.87410 0.87670 0.03700
C 	C 	0.20549 0.85259 0.93001 -0.09600
H 	H 	0.18360 0.87260 0.93140 0.06400
C 	C 	0.20928 0.82264 0.96106 0.05400
H 	H 	0.18990 0.82290 0.98330 0.00000
C 	C 	0.29532 0.82254 0.86226 0.13300
N 	N 	0.29073 0.84883 0.83163 -0.15000
C 	C 	0.32049 0.84669 0.80195 0.13200
N 	N 	0.35304 0.82092 0.80178 -0.15100
C 	C 	0.35487 0.79701 0.83381 0.13400
N 	N 	0.32700 0.79594 0.86548 -0.14800
C 	C 	0.39084 0.76976 0.83584 -0.05000
C 	C 	0.42066 0.77162 0.80450 0.04200
H 	H 	0.41720 0.79040 0.78260 0.01100
N 	N 	0.45372 0.74850 0.80366 -0.22700
C 	C 	0.45834 0.72196 0.83478 0.05500
H 	H 	0.48190 0.70490 0.83450 0.00400
C 	C 	0.42994 0.71868 0.86716 -0.09500
H 	H 	0.43410 0.69950 0.88850 0.06600
C 	C 	0.39546 0.74348 0.86824 0.00700
H 	H 	0.37580 0.74240 0.89040 0.03900
N 	N 	0.46430 0.78112 0.72058 -0.26300
C 	C 	0.44592 0.79304 0.70420 0.10500
S 	S 	0.41915 0.80885 0.68119 -0.06100
N 	N 	0.49344 0.70408 0.75670 -0.22600
C 	C 	0.52127 0.67251 0.75853 0.03700
H 	H 	0.54360 0.67200 0.75600 0.01300
C 	C 	0.51853 0.64087 0.76401 -0.05100
C 	C 	0.48473 0.64219 0.76835 0.00900
H 	H 	0.48190 0.62110 0.77190 0.03700
C 	C 	0.45663 0.67345 0.76741 -0.09600
H 	H 	0.43350 0.67430 0.77130 0.06600
C 	C 	0.46153 0.70435 0.76071 0.05300
H 	H 	0.44180 0.72660 0.75880 0.00300
C 	C 	0.55045 0.60737 0.76439 0.13900
N 	N 	0.57916 0.60780 0.76518 -0.15500
S 	S 	0.95089 0.20341 0.46641 -0.06200
C 	C 	0.96061 0.22699 0.47629 0.09700
N 	N 	0.96815 0.24233 0.48441 -0.25900
N 	N 	0.93978 0.29036 0.53056 -0.22500
C 	C 	0.93576 0.31400 0.54266 0.06600
H 	H 	0.95650 0.31310 0.54410 -0.00200
C 	C 	0.90311 0.33987 0.55331 -0.10200
H 	H 	0.90170 0.35570 0.56230 0.06600
C 	C 	0.87252 0.34268 0.55078 0.00800
H 	H 	0.84990 0.36050 0.55750 0.03700
C 	C 	0.87649 0.31807 0.53777 -0.04700
C 	C 	0.91047 0.29201 0.52885 0.03700
H 	H 	0.91270 0.27470 0.52110 0.01100
N 	N 	0.79337 0.23965 0.50653 -0.22700
C 	C 	0.79432 0.26596 0.51188 0.03800
H 	H 	0.77370 0.28730 0.51230 0.01500
C 	C 	0.82253 0.26425 0.51677 -0.04900
C 	C 	0.85330 0.23288 0.51600 0.00800
H 	H 	0.87410 0.23090 0.51830 0.03700
C 	C 	0.85259 0.20549 0.51191 -0.09600
H 	H 	0.87260 0.18360 0.51240 0.06400
C 	C 	0.82264 0.20928 0.50702 0.05400
H 	H 	0.82290 0.18990 0.50390 0.00000
C 	C 	0.82254 0.29532 0.51988 0.13300
N 	N 	0.84883 0.29073 0.52881 -0.15000
C 	C 	0.84669 0.32049 0.53087 0.13200
N 	N 	0.82092 0.35304 0.52426 -0.15100
C 	C 	0.79701 0.35487 0.51431 0.13400
N 	N 	0.79594 0.32700 0.51158 -0.14800
C 	C 	0.76976 0.39084 0.50356 -0.05000
C 	C 	0.77162 0.42066 0.50322 0.04200
H 	H 	0.79040 0.41720 0.50980 0.01100
N 	N 	0.74850 0.45372 0.49412 -0.22700
C 	C 	0.72196 0.45834 0.48492 0.05500
H 	H 	0.70490 0.48190 0.47870 0.00400
C 	C 	0.71868 0.42994 0.48422 -0.09500
H 	H 	0.69950 0.43410 0.47790 0.06600
C 	C 	0.74348 0.39546 0.49282 0.00700
H 	H 	0.74240 0.37580 0.49140 0.03900
N 	N 	0.78112 0.46430 0.53400 -0.26300
C 	C 	0.79304 0.44592 0.55684 0.10500
S 	S 	0.80885 0.41915 0.59081 -0.06100
N 	N 	0.70408 0.49344 0.54578 -0.22600
C 	C 	0.67251 0.52127 0.54769 0.03700
H 	H 	0.67200 0.54360 0.52840 0.01300
C 	C 	0.64087 0.51853 0.57659 -0.05100
C 	C 	0.64219 0.48473 0.60473 0.00900
H 	H 	0.62110 0.48190 0.62510 0.03700
C 	C 	0.67345 0.45663 0.60251 -0.09600
H 	H 	0.67430 0.43350 0.62090 0.06600
C 	C 	0.70435 0.46153 0.57341 0.05300
H 	H 	0.72660 0.44180 0.57280 0.00300
C 	C 	0.60737 0.55045 0.57779 0.13900
N 	N 	0.60780 0.57916 0.54786 -0.15500
S 	S 	0.46641 0.87929 0.95089 -0.06200
C 	C 	0.47629 0.83611 0.96061 0.09700
N 	N 	0.48441 0.80511 0.96815 -0.25900
N 	N 	0.53056 0.73930 0.93978 -0.22500
C 	C 	0.54266 0.70758 0.93576 0.06600
H 	H 	0.54410 0.68630 0.95650 -0.00200
C 	C 	0.55331 0.70371 0.90311 -0.10200
H 	H 	0.56230 0.68030 0.90170 0.06600
C 	C 	0.55078 0.73402 0.87252 0.00800
H 	H 	0.55750 0.73210 0.84990 0.03700
C 	C 	0.53777 0.76767 0.87649 -0.04700
C 	C 	0.52885 0.76867 0.91047 0.03700
H 	H 	0.52110 0.79150 0.91270 0.01100
N 	N 	0.50653 0.96045 0.79337 -0.22700
C 	C 	0.51188 0.92784 0.79432 0.03800
H 	H 	0.51230 0.92670 0.77370 0.01500
C 	C 	0.51677 0.89645 0.82253 -0.04900
C 	C 	0.51600 0.89782 0.85330 0.00800
H 	H 	0.51830 0.87670 0.87410 0.03700
C 	C 	0.51191 0.93001 0.85259 -0.09600
H 	H 	0.51240 0.93140 0.87260 0.06400
C 	C 	0.50702 0.96106 0.82264 0.05400
H 	H 	0.50390 0.98330 0.82290 0.00000
C 	C 	0.51988 0.86226 0.82254 0.13300
N 	N 	0.52881 0.83163 0.84883 -0.15000
C 	C 	0.53087 0.80195 0.84669 0.13200
N 	N 	0.52426 0.80178 0.82092 -0.15100
C 	C 	0.51431 0.83381 0.79701 0.13400
N 	N 	0.51158 0.86548 0.79594 -0.14800
C 	C 	0.50356 0.83584 0.76976 -0.05000
C 	C 	0.50322 0.80450 0.77162 0.04200
H 	H 	0.50980 0.78260 0.79040 0.01100
N 	N 	0.49412 0.80366 0.74850 -0.22700
C 	C 	0.48492 0.83478 0.72196 0.05500
H 	H 	0.47870 0.83450 0.70490 0.00400
C 	C 	0.48422 0.86716 0.71868 -0.09500
H 	H 	0.47790 0.88850 0.69950 0.06600
C 	C 	0.49282 0.86824 0.74348 0.00700
H 	H 	0.49140 0.89040 0.74240 0.03900
N 	N 	0.53400 0.72058 0.78112 -0.26300
C 	C 	0.55684 0.70420 0.79304 0.10500
S 	S 	0.59081 0.68119 0.80885 -0.06100
N 	N 	0.54578 0.75670 0.70408 -0.22600
C 	C 	0.54769 0.75853 0.67251 0.03700
H 	H 	0.52840 0.75600 0.67200 0.01300
C 	C 	0.57659 0.76401 0.64087 -0.05100
C 	C 	0.60473 0.76835 0.64219 0.00900
H 	H 	0.62510 0.77190 0.62110 0.03700
C 	C 	0.60251 0.76741 0.67345 -0.09600
H 	H 	0.62090 0.77130 0.67430 0.06600
C 	C 	0.57341 0.76071 0.70435 0.05300
H 	H 	0.57280 0.75880 0.72660 0.00300
C 	C 	0.57779 0.76439 0.60737 0.13900
N 	N 	0.54786 0.76518 0.60780 -0.15500
S 	S 	0.29659 0.62071 0.54911 -0.06300
C 	C 	0.27301 0.66389 0.53939 0.09700
N 	N 	0.25767 0.69489 0.53185 -0.25900
N 	N 	0.20964 0.76070 0.56022 -0.22500
C 	C 	0.18600 0.79242 0.56424 0.06600
H 	H 	0.18690 0.81370 0.54350 -0.00200
C 	C 	0.16013 0.79629 0.59689 -0.10200
H 	H 	0.14430 0.81970 0.59830 0.06600
C 	C 	0.15732 0.76598 0.62748 0.00800
H 	H 	0.13950 0.76790 0.65010 0.03700
C 	C 	0.18193 0.73233 0.62351 -0.04700
C 	C 	0.20799 0.73133 0.58953 0.03700
H 	H 	0.22530 0.70850 0.58730 0.01100
N 	N 	0.26035 0.53955 0.70663 -0.22700
C 	C 	0.23404 0.57216 0.70568 0.03800
H 	H 	0.21270 0.57330 0.72630 0.01500
C 	C 	0.23575 0.60355 0.67747 -0.04900
C 	C 	0.26712 0.60218 0.64670 0.00800
H 	H 	0.26910 0.62330 0.62590 0.03700
C 	C 	0.29451 0.56999 0.64741 -0.09600
H 	H 	0.31640 0.56860 0.62740 0.06400
C 	C 	0.29072 0.53894 0.67736 0.05400
H 	H 	0.31010 0.51670 0.67710 0.00000
C 	C 	0.20468 0.63774 0.67746 0.13300
N 	N 	0.20927 0.66837 0.65117 -0.15000
C 	C 	0.17951 0.69805 0.65331 0.13200
N 	N 	0.14696 0.69822 0.67908 -0.15100
C 	C 	0.14513 0.66619 0.70299 0.13400
N 	N 	0.17300 0.63452 0.70406 -0.14800
C 	C 	0.10916 0.66416 0.73024 -0.05000
C 	C 	0.07934 0.69550 0.72838 0.04200
H 	H 	0.08280 0.71740 0.70960 0.01100
N 	N 	0.04628 0.69634 0.75150 -0.22700
C 	C 	0.04166 0.66522 0.77804 0.05500
H 	H 	0.01810 0.66550 0.79510 0.00400
C 	C 	0.07006 0.63284 0.78132 -0.09500
H 	H 	0.06590 0.61150 0.80050 0.06600
C 	C 	0.10454 0.63176 0.75652 0.00700
H 	H 	0.12420 0.60960 0.75760 0.03900
N 	N 	0.03570 0.77942 0.71888 -0.26300
C 	C 	0.05408 0.79580 0.70696 0.10500
S 	S 	0.08085 0.81881 0.69115 -0.06100
N 	N 	0.00656 0.74330 0.79592 -0.22600
C 	C 	0.97873 0.74147 0.82749 0.03700
H 	H 	0.95640 0.74400 0.82800 0.01300
C 	C 	0.98147 0.73599 0.85913 -0.05100
C 	C 	0.01527 0.73165 0.85781 0.00900
H 	H 	0.01810 0.72810 0.87890 0.03700
C 	C 	0.04337 0.73259 0.82655 -0.09600
H 	H 	0.06650 0.72870 0.82570 0.06600
C 	C 	0.03847 0.73929 0.79565 0.05300
H 	H 	0.05820 0.74120 0.77340 0.00300
C 	C 	0.94955 0.73561 0.89263 0.13900
N 	N 	0.92084 0.73482 0.89220 -0.15500
S 	S 	0.62071 0.29659 0.03359 -0.06200
C 	C 	0.66389 0.27301 0.02371 0.09700
N 	N 	0.69489 0.25767 0.01559 -0.25900
N 	N 	0.76070 0.20964 0.96944 -0.22500
C 	C 	0.79242 0.18600 0.95734 0.06600
H 	H 	0.81370 0.18690 0.95590 -0.00200
C 	C 	0.79629 0.16013 0.94669 -0.10200
H 	H 	0.81970 0.14430 0.93770 0.06600
C 	C 	0.76598 0.15732 0.94922 0.00800
H 	H 	0.76790 0.13950 0.94250 0.03700
C 	C 	0.73233 0.18193 0.96223 -0.04700
C 	C 	0.73133 0.20799 0.97115 0.03700
H 	H 	0.70850 0.22530 0.97890 0.01100
N 	N 	0.53955 0.26035 0.99347 -0.22700
C 	C 	0.57216 0.23404 0.98812 0.03800
H 	H 	0.57330 0.21270 0.98770 0.01500
C 	C 	0.60355 0.23575 0.98323 -0.04900
C 	C 	0.60218 0.26712 0.98400 0.00800
H 	H 	0.62330 0.26910 0.98170 0.03700
C 	C 	0.56999 0.29451 0.98809 -0.09600
H 	H 	0.56860 0.31640 0.98760 0.06400
C 	C 	0.53894 0.29072 0.99298 0.05400
H 	H 	0.51670 0.31010 0.99610 0.00000
C 	C 	0.63774 0.20468 0.98012 0.13300
N 	N 	0.66837 0.20927 0.97119 -0.15000
C 	C 	0.69805 0.17951 0.96913 0.13200
N 	N 	0.69822 0.14696 0.97574 -0.15100
C 	C 	0.66619 0.14513 0.98569 0.13400
N 	N 	0.63452 0.17300 0.98842 -0.14800
C 	C 	0.66416 0.10916 0.99644 -0.05000
C 	C 	0.69550 0.07934 0.99678 0.04200
H 	H 	0.71740 0.08280 0.99020 0.01100
N 	N 	0.69634 0.04628 0.00588 -0.22700
C 	C 	0.66522 0.04166 0.01508 0.05500
H 	H 	0.66550 0.01810 0.02130 0.00400
C 	C 	0.63284 0.07006 0.01578 -0.09500
H 	H 	0.61150 0.06590 0.02210 0.06600
C 	C 	0.63176 0.10454 0.00718 0.00700
H 	H 	0.60960 0.12420 0.00860 0.03900
N 	N 	0.77942 0.03570 0.96600 -0.26300
C 	C 	0.79580 0.05408 0.94316 0.10500
S 	S 	0.81881 0.08085 0.90919 -0.06100
N 	N 	0.74330 0.00656 0.95422 -0.22600
C 	C 	0.74147 0.97873 0.95231 0.03700
H 	H 	0.74400 0.95640 0.97160 0.01300
C 	C 	0.73599 0.98147 0.92341 -0.05100
C 	C 	0.73165 0.01527 0.89527 0.00900
H 	H 	0.72810 0.01810 0.87490 0.03700
C 	C 	0.73259 0.04337 0.89749 -0.09600
H 	H 	0.72870 0.06650 0.87910 0.06600
C 	C 	0.73929 0.03847 0.92659 0.05300
H 	H 	0.74120 0.05820 0.92720 0.00300
C 	C 	0.73561 0.94955 0.92221 0.13900
N 	N 	0.73482 0.92084 0.95214 -0.15500
S 	S 	0.03359 0.54911 0.62071 -0.06200
C 	C 	0.02371 0.53939 0.66389 0.09700
N 	N 	0.01559 0.53185 0.69489 -0.25900
N 	N 	0.96944 0.56022 0.76070 -0.22500
C 	C 	0.95734 0.56424 0.79242 0.06600
H 	H 	0.95590 0.54350 0.81370 -0.00200
C 	C 	0.94669 0.59689 0.79629 -0.10200
H 	H 	0.93770 0.59830 0.81970 0.06600
C 	C 	0.94922 0.62748 0.76598 0.00800
H 	H 	0.94250 0.65010 0.76790 0.03700
C 	C 	0.96223 0.62351 0.73233 -0.04700
C 	C 	0.97115 0.58953 0.73133 0.03700
H 	H 	0.97890 0.58730 0.70850 0.01100
N 	N 	0.99347 0.70663 0.53955 -0.22700
C 	C 	0.98812 0.70568 0.57216 0.03800
H 	H 	0.98770 0.72630 0.57330 0.01500
C 	C 	0.98323 0.67747 0.60355 -0.04900
C 	C 	0.98400 0.64670 0.60218 0.00800
H 	H 	0.98170 0.62590 0.62330 0.03700
C 	C 	0.98809 0.64741 0.56999 -0.09600
H 	H 	0.98760 0.62740 0.56860 0.06400
C 	C 	0.99298 0.67736 0.53894 0.05400
H 	H 	0.99610 0.67710 0.51670 0.00000
C 	C 	0.98012 0.67746 0.63774 0.13300
N 	N 	0.97119 0.65117 0.66837 -0.15000
C 	C 	0.96913 0.65331 0.69805 0.13200
N 	N 	0.97574 0.67908 0.69822 -0.15100
C 	C 	0.98569 0.70299 0.66619 0.13400
N 	N 	0.98842 0.70406 0.63452 -0.14800
C 	C 	0.99644 0.73024 0.66416 -0.04900
C 	C 	0.99678 0.72838 0.69550 0.04200
H 	H 	0.99020 0.70960 0.71740 0.01100
N 	N 	0.00588 0.75150 0.69634 -0.22700
C 	C 	0.01508 0.77804 0.66522 0.05500
H 	H 	0.02130 0.79510 0.66550 0.00400
C 	C 	0.01578 0.78132 0.63284 -0.09500
H 	H 	0.02210 0.80050 0.61150 0.06600
C 	C 	0.00718 0.75652 0.63176 0.00700
H 	H 	0.00860 0.75760 0.60960 0.03900
N 	N 	0.96600 0.71888 0.77942 -0.26300
C 	C 	0.94316 0.70696 0.79580 0.10500
S 	S 	0.90919 0.69115 0.81881 -0.06100
N 	N 	0.95422 0.79592 0.74330 -0.22600
C 	C 	0.95231 0.82749 0.74147 0.03700
H 	H 	0.97160 0.82800 0.74400 0.01300
C 	C 	0.92341 0.85913 0.73599 -0.05100
C 	C 	0.89527 0.85781 0.73165 0.00900
H 	H 	0.87490 0.87890 0.72810 0.03700
C 	C 	0.89749 0.82655 0.73259 -0.09600
H 	H 	0.87910 0.82570 0.72870 0.06600
C 	C 	0.92659 0.79565 0.73929 0.05300
H 	H 	0.92720 0.77340 0.74120 0.00300
C 	C 	0.92221 0.89263 0.73561 0.13900
N 	N 	0.95214 0.89220 0.73482 -0.15500
S 	S 	0.54911 0.03359 0.29659 -0.06200
C 	C 	0.53939 0.02371 0.27301 0.09700
N 	N 	0.53185 0.01559 0.25767 -0.25900
N 	N 	0.56022 0.96944 0.20964 -0.22500
C 	C 	0.56424 0.95734 0.18600 0.06600
H 	H 	0.54350 0.95590 0.18690 -0.00200
C 	C 	0.59689 0.94669 0.16013 -0.10200
H 	H 	0.59830 0.93770 0.14430 0.06600
C 	C 	0.62748 0.94922 0.15732 0.00800
H 	H 	0.65010 0.94250 0.13950 0.03700
C 	C 	0.62351 0.96223 0.18193 -0.04700
C 	C 	0.58953 0.97115 0.20799 0.03700
H 	H 	0.58730 0.97890 0.22530 0.01100
N 	N 	0.70663 0.99347 0.26035 -0.22700
C 	C 	0.70568 0.98812 0.23404 0.03800
H 	H 	0.72630 0.98770 0.21270 0.01500
C 	C 	0.67747 0.98323 0.23575 -0.04900
C 	C 	0.64670 0.98400 0.26712 0.00800
H 	H 	0.62590 0.98170 0.26910 0.03700
C 	C 	0.64741 0.98809 0.29451 -0.09600
H 	H 	0.62740 0.98760 0.31640 0.06400
C 	C 	0.67736 0.99298 0.29072 0.05400
H 	H 	0.67710 0.99610 0.31010 0.00000
C 	C 	0.67746 0.98012 0.20468 0.13300
N 	N 	0.65117 0.97119 0.20927 -0.15000
C 	C 	0.65331 0.96913 0.17951 0.13200
N 	N 	0.67908 0.97574 0.14696 -0.15100
C 	C 	0.70299 0.98569 0.14513 0.13400
N 	N 	0.70406 0.98842 0.17300 -0.14800
C 	C 	0.73024 0.99644 0.10916 -0.05000
C 	C 	0.72838 0.99678 0.07934 0.04200
H 	H 	0.70960 0.99020 0.08280 0.01100
N 	N 	0.75150 0.00588 0.04628 -0.22700
C 	C 	0.77804 0.01508 0.04166 0.05500
H 	H 	0.79510 0.02130 0.01810 0.00400
C 	C 	0.78132 0.01578 0.07006 -0.09500
H 	H 	0.80050 0.02210 0.06590 0.06600
C 	C 	0.75652 0.00718 0.10454 0.00700
H 	H 	0.75760 0.00860 0.12420 0.03900
N 	N 	0.71888 0.96600 0.03570 -0.26300
C 	C 	0.70696 0.94316 0.05408 0.10500
S 	S 	0.69115 0.90919 0.08085 -0.06100
N 	N 	0.79592 0.95422 0.00656 -0.22600
C 	C 	0.82749 0.95231 0.97873 0.03700
H 	H 	0.82800 0.97160 0.95640 0.01300
C 	C 	0.85913 0.92341 0.98147 -0.05100
C 	C 	0.85781 0.89527 0.01527 0.00900
H 	H 	0.87890 0.87490 0.01810 0.03700
C 	C 	0.82655 0.89749 0.04337 -0.09600
H 	H 	0.82570 0.87910 0.06650 0.06600
C 	C 	0.79565 0.92659 0.03847 0.05300
H 	H 	0.77340 0.92720 0.05820 0.00300
C 	C 	0.89263 0.92221 0.94955 0.13900
N 	N 	0.89220 0.95214 0.92084 -0.15500
S 	S 	0.03359 0.29659 0.54911 -0.06200
C 	C 	0.02371 0.27301 0.53939 0.09700
N 	N 	0.01559 0.25767 0.53185 -0.25900
N 	N 	0.96944 0.20964 0.56022 -0.22500
C 	C 	0.95734 0.18600 0.56424 0.06600
H 	H 	0.95590 0.18690 0.54350 -0.00200
C 	C 	0.94669 0.16013 0.59689 -0.10200
H 	H 	0.93770 0.14430 0.59830 0.06600
C 	C 	0.94922 0.15732 0.62748 0.00800
H 	H 	0.94250 0.13950 0.65010 0.03700
C 	C 	0.96223 0.18193 0.62351 -0.04700
C 	C 	0.97115 0.20799 0.58953 0.03700
H 	H 	0.97890 0.22530 0.58730 0.01100
N 	N 	0.99347 0.26035 0.70663 -0.22700
C 	C 	0.98812 0.23404 0.70568 0.03800
H 	H 	0.98770 0.21270 0.72630 0.01500
C 	C 	0.98323 0.23575 0.67747 -0.04900
C 	C 	0.98400 0.26712 0.64670 0.00800
H 	H 	0.98170 0.26910 0.62590 0.03700
C 	C 	0.98809 0.29451 0.64741 -0.09600
H 	H 	0.98760 0.31640 0.62740 0.06400
C 	C 	0.99298 0.29072 0.67736 0.05400
H 	H 	0.99610 0.31010 0.67710 0.00000
C 	C 	0.98012 0.20468 0.67746 0.13300
N 	N 	0.97119 0.20927 0.65117 -0.15000
C 	C 	0.96913 0.17951 0.65331 0.13200
N 	N 	0.97574 0.14696 0.67908 -0.15100
C 	C 	0.98569 0.14513 0.70299 0.13400
N 	N 	0.98842 0.17300 0.70406 -0.14800
C 	C 	0.99644 0.10916 0.73024 -0.05000
C 	C 	0.99678 0.07934 0.72838 0.04200
H 	H 	0.99020 0.08280 0.70960 0.01100
N 	N 	0.00588 0.04628 0.75150 -0.22700
C 	C 	0.01508 0.04166 0.77804 0.05500
H 	H 	0.02130 0.01810 0.79510 0.00400
C 	C 	0.01578 0.07006 0.78132 -0.09500
H 	H 	0.02210 0.06590 0.80050 0.06600
C 	C 	0.00718 0.10454 0.75652 0.00700
H 	H 	0.00860 0.12420 0.75760 0.03900
N 	N 	0.96600 0.03570 0.71888 -0.26300
C 	C 	0.94316 0.05408 0.70696 0.10500
S 	S 	0.90919 0.08085 0.69115 -0.06100
N 	N 	0.95422 0.00656 0.79592 -0.22600
C 	C 	0.95231 0.97873 0.82749 0.03700
H 	H 	0.97160 0.95640 0.82800 0.01300
C 	C 	0.92341 0.98147 0.85913 -0.05100
C 	C 	0.89527 0.01527 0.85781 0.00900
H 	H 	0.87490 0.01810 0.87890 0.03700
C 	C 	0.89749 0.04337 0.82655 -0.09600
H 	H 	0.87910 0.06650 0.82570 0.06600
C 	C 	0.92659 0.03847 0.79565 0.05300
H 	H 	0.92720 0.05820 0.77340 0.00300
C 	C 	0.92221 0.94955 0.89263 0.13900
N 	N 	0.95214 0.92084 0.89220 -0.15500
S 	S 	0.54911 0.62071 0.03359 -0.06200
C 	C 	0.53939 0.66389 0.02371 0.09700
N 	N 	0.53185 0.69489 0.01559 -0.25900
N 	N 	0.56022 0.76070 0.96944 -0.22500
C 	C 	0.56424 0.79242 0.95734 0.06600
H 	H 	0.54350 0.81370 0.95590 -0.00200
C 	C 	0.59689 0.79629 0.94669 -0.10200
H 	H 	0.59830 0.81970 0.93770 0.06600
C 	C 	0.62748 0.76598 0.94922 0.00800
H 	H 	0.65010 0.76790 0.94250 0.03700
C 	C 	0.62351 0.73233 0.96223 -0.04700
C 	C 	0.58953 0.73133 0.97115 0.03700
H 	H 	0.58730 0.70850 0.97890 0.01100
N 	N 	0.70663 0.53955 0.99347 -0.22700
C 	C 	0.70568 0.57216 0.98812 0.03800
H 	H 	0.72630 0.57330 0.98770 0.01500
C 	C 	0.67747 0.60355 0.98323 -0.04900
C 	C 	0.64670 0.60218 0.98400 0.00800
H 	H 	0.62590 0.62330 0.98170 0.03700
C 	C 	0.64741 0.56999 0.98809 -0.09600
H 	H 	0.62740 0.56860 0.98760 0.06400
C 	C 	0.67736 0.53894 0.99298 0.05400
H 	H 	0.67710 0.51670 0.99610 0.00000
C 	C 	0.67746 0.63774 0.98012 0.13300
N 	N 	0.65117 0.66837 0.97119 -0.15000
C 	C 	0.65331 0.69805 0.96913 0.13200
N 	N 	0.67908 0.69822 0.97574 -0.15100
C 	C 	0.70299 0.66619 0.98569 0.13400
N 	N 	0.70406 0.63452 0.98842 -0.14800
C 	C 	0.73024 0.66416 0.99644 -0.04900
C 	C 	0.72838 0.69550 0.99678 0.04200
H 	H 	0.70960 0.71740 0.99020 0.01100
N 	N 	0.75150 0.69634 0.00588 -0.22700
C 	C 	0.77804 0.66522 0.01508 0.05500
H 	H 	0.79510 0.66550 0.02130 0.00400
C 	C 	0.78132 0.63284 0.01578 -0.09500
H 	H 	0.80050 0.61150 0.02210 0.06600
C 	C 	0.75652 0.63176 0.00718 0.00700
H 	H 	0.75760 0.60960 0.00860 0.03900
N 	N 	0.71888 0.77942 0.96600 -0.26300
C 	C 	0.70696 0.79580 0.94316 0.10500
S 	S 	0.69115 0.81881 0.90919 -0.06100
N 	N 	0.79592 0.74330 0.95422 -0.22600
C 	C 	0.82749 0.74147 0.95231 0.03700
H 	H 	0.82800 0.74400 0.97160 0.01300
C 	C 	0.85913 0.73599 0.92341 -0.05100
C 	C 	0.85781 0.73165 0.89527 0.00900
H 	H 	0.87890 0.72810 0.87490 0.03700
C 	C 	0.82655 0.73259 0.89749 -0.09600
H 	H 	0.82570 0.72870 0.87910 0.06600
C 	C 	0.79565 0.73929 0.92659 0.05300
H 	H 	0.77340 0.74120 0.92720 0.00300
C 	C 	0.89263 0.73561 0.92221 0.13900
N 	N 	0.89220 0.73482 0.95214 -0.15500
S 	S 	0.29659 0.03359 0.62071 -0.06200
C 	C 	0.27301 0.02371 0.66389 0.09700
N 	N 	0.25767 0.01559 0.69489 -0.25900
N 	N 	0.20964 0.96944 0.76070 -0.22500
C 	C 	0.18600 0.95734 0.79242 0.06600
H 	H 	0.18690 0.95590 0.81370 -0.00200
C 	C 	0.16013 0.94669 0.79629 -0.10200
H 	H 	0.14430 0.93770 0.81970 0.06600
C 	C 	0.15732 0.94922 0.76598 0.00800
H 	H 	0.13950 0.94250 0.76790 0.03700
C 	C 	0.18193 0.96223 0.73233 -0.04700
C 	C 	0.20799 0.97115 0.73133 0.03700
H 	H 	0.22530 0.97890 0.70850 0.01100
N 	N 	0.26035 0.99347 0.53955 -0.22700
C 	C 	0.23404 0.98812 0.57216 0.03800
H 	H 	0.21270 0.98770 0.57330 0.01500
C 	C 	0.23575 0.98323 0.60355 -0.04900
C 	C 	0.26712 0.98400 0.60218 0.00800
H 	H 	0.26910 0.98170 0.62330 0.03700
C 	C 	0.29451 0.98809 0.56999 -0.09600
H 	H 	0.31640 0.98760 0.56860 0.06400
C 	C 	0.29072 0.99298 0.53894 0.05400
H 	H 	0.31010 0.99610 0.51670 0.00000
C 	C 	0.20468 0.98012 0.63774 0.13300
N 	N 	0.20927 0.97119 0.66837 -0.15000
C 	C 	0.17951 0.96913 0.69805 0.13200
N 	N 	0.14696 0.97574 0.69822 -0.15100
C 	C 	0.14513 0.98569 0.66619 0.13400
N 	N 	0.17300 0.98842 0.63452 -0.14800
C 	C 	0.10916 0.99644 0.66416 -0.05000
C 	C 	0.07934 0.99678 0.69550 0.04200
H 	H 	0.08280 0.99020 0.71740 0.01100
N 	N 	0.04628 0.00588 0.69634 -0.22700
C 	C 	0.04166 0.01508 0.66522 0.05500
H 	H 	0.01810 0.02130 0.66550 0.00400
C 	C 	0.07006 0.01578 0.63284 -0.09500
H 	H 	0.06590 0.02210 0.61150 0.06600
C 	C 	0.10454 0.00718 0.63176 0.00700
H 	H 	0.12420 0.00860 0.60960 0.03900
N 	N 	0.03570 0.96600 0.77942 -0.26300
C 	C 	0.05408 0.94316 0.79580 0.10500
S 	S 	0.08085 0.90919 0.81881 -0.06100
N 	N 	0.00656 0.95422 0.74330 -0.22600
C 	C 	0.97873 0.95231 0.74147 0.03700
H 	H 	0.95640 0.97160 0.74400 0.01300
C 	C 	0.98147 0.92341 0.73599 -0.05100
C 	C 	0.01527 0.89527 0.73165 0.00900
H 	H 	0.01810 0.87490 0.72810 0.03700
C 	C 	0.04337 0.89749 0.73259 -0.09600
H 	H 	0.06650 0.87910 0.72870 0.06600
C 	C 	0.03847 0.92659 0.73929 0.05300
H 	H 	0.05820 0.92720 0.74120 0.00300
C 	C 	0.94955 0.92221 0.73561 0.13900
N 	N 	0.92084 0.95214 0.73482 -0.15500
S 	S 	0.62071 0.54911 0.29659 -0.06300
C 	C 	0.66389 0.53939 0.27301 0.09700
N 	N 	0.69489 0.53185 0.25767 -0.25900
N 	N 	0.76070 0.56022 0.20964 -0.22500
C 	C 	0.79242 0.56424 0.18600 0.06600
H 	H 	0.81370 0.54350 0.18690 -0.00200
C 	C 	0.79629 0.59689 0.16013 -0.10200
H 	H 	0.81970 0.59830 0.14430 0.06600
C 	C 	0.76598 0.62748 0.15732 0.00800
H 	H 	0.76790 0.65010 0.13950 0.03700
C 	C 	0.73233 0.62351 0.18193 -0.04700
C 	C 	0.73133 0.58953 0.20799 0.03700
H 	H 	0.70850 0.58730 0.22530 0.01100
N 	N 	0.53955 0.70663 0.26035 -0.22700
C 	C 	0.57216 0.70568 0.23404 0.03800
H 	H 	0.57330 0.72630 0.21270 0.01500
C 	C 	0.60355 0.67747 0.23575 -0.04900
C 	C 	0.60218 0.64670 0.26712 0.00800
H 	H 	0.62330 0.62590 0.26910 0.03700
C 	C 	0.56999 0.64741 0.29451 -0.09600
H 	H 	0.56860 0.62740 0.31640 0.06400
C 	C 	0.53894 0.67736 0.29072 0.05400
H 	H 	0.51670 0.67710 0.31010 0.00000
C 	C 	0.63774 0.67746 0.20468 0.13300
N 	N 	0.66837 0.65117 0.20927 -0.15000
C 	C 	0.69805 0.65331 0.17951 0.13200
N 	N 	0.69822 0.67908 0.14696 -0.15100
C 	C 	0.66619 0.70299 0.14513 0.13400
N 	N 	0.63452 0.70406 0.17300 -0.14800
C 	C 	0.66416 0.73024 0.10916 -0.05000
C 	C 	0.69550 0.72838 0.07934 0.04200
H 	H 	0.71740 0.70960 0.08280 0.01100
N 	N 	0.69634 0.75150 0.04628 -0.22700
C 	C 	0.66522 0.77804 0.04166 0.05500
H 	H 	0.66550 0.79510 0.01810 0.00400
C 	C 	0.63284 0.78132 0.07006 -0.09500
H 	H 	0.61150 0.80050 0.06590 0.06600
C 	C 	0.63176 0.75652 0.10454 0.00700
H 	H 	0.60960 0.75760 0.12420 0.03900
N 	N 	0.77942 0.71888 0.03570 -0.26300
C 	C 	0.79580 0.70696 0.05408 0.10500
S 	S 	0.81881 0.69115 0.08085 -0.06100
N 	N 	0.74330 0.79592 0.00656 -0.22600
C 	C 	0.74147 0.82749 0.97873 0.03700
H 	H 	0.74400 0.82800 0.95640 0.01300
C 	C 	0.73599 0.85913 0.98147 -0.05100
C 	C 	0.73165 0.85781 0.01527 0.00900
H 	H 	0.72810 0.87890 0.01810 0.03700
C 	C 	0.73259 0.82655 0.04337 -0.09600
H 	H 	0.72870 0.82570 0.06650 0.06600
C 	C 	0.73929 0.79565 0.03847 0.05300
H 	H 	0.74120 0.77340 0.05820 0.00300
C 	C 	0.73561 0.89263 0.94955 0.13900
N 	N 	0.73482 0.89220 0.92084 -0.15500
S 	S 	0.62071 0.03359 0.54911 -0.06200
C 	C 	0.66389 0.02371 0.53939 0.09700
N 	N 	0.69489 0.01559 0.53185 -0.25900
N 	N 	0.76070 0.96944 0.56022 -0.22500
C 	C 	0.79242 0.95734 0.56424 0.06600
H 	H 	0.81370 0.95590 0.54350 -0.00200
C 	C 	0.79629 0.94669 0.59689 -0.10200
H 	H 	0.81970 0.93770 0.59830 0.06600
C 	C 	0.76598 0.94922 0.62748 0.00800
H 	H 	0.76790 0.94250 0.65010 0.03700
C 	C 	0.73233 0.96223 0.62351 -0.04700
C 	C 	0.73133 0.97115 0.58953 0.03700
H 	H 	0.70850 0.97890 0.58730 0.01100
N 	N 	0.53955 0.99347 0.70663 -0.22700
C 	C 	0.57216 0.98812 0.70568 0.03800
H 	H 	0.57330 0.98770 0.72630 0.01500
C 	C 	0.60355 0.98323 0.67747 -0.04900
C 	C 	0.60218 0.98400 0.64670 0.00800
H 	H 	0.62330 0.98170 0.62590 0.03700
C 	C 	0.56999 0.98809 0.64741 -0.09600
H 	H 	0.56860 0.98760 0.62740 0.06400
C 	C 	0.53894 0.99298 0.67736 0.05400
H 	H 	0.51670 0.99610 0.67710 0.00000
C 	C 	0.63774 0.98012 0.67746 0.13300
N 	N 	0.66837 0.97119 0.65117 -0.15000
C 	C 	0.69805 0.96913 0.65331 0.13200
N 	N 	0.69822 0.97574 0.67908 -0.15100
C 	C 	0.66619 0.98569 0.70299 0.13400
N 	N 	0.63452 0.98842 0.70406 -0.14800
C 	C 	0.66416 0.99644 0.73024 -0.04900
C 	C 	0.69550 0.99678 0.72838 0.04200
H 	H 	0.71740 0.99020 0.70960 0.01100
N 	N 	0.69634 0.00588 0.75150 -0.22700
C 	C 	0.66522 0.01508 0.77804 0.05500
H 	H 	0.66550 0.02130 0.79510 0.00400
C 	C 	0.63284 0.01578 0.78132 -0.09500
H 	H 	0.61150 0.02210 0.80050 0.06600
C 	C 	0.63176 0.00718 0.75652 0.00700
H 	H 	0.60960 0.00860 0.75760 0.03900
N 	N 	0.77942 0.96600 0.71888 -0.26300
C 	C 	0.79580 0.94316 0.70696 0.10500
S 	S 	0.81881 0.90919 0.69115 -0.06100
N 	N 	0.74330 0.95422 0.79592 -0.22600
C 	C 	0.74147 0.95231 0.82749 0.03700
H 	H 	0.74400 0.97160 0.82800 0.01300
C 	C 	0.73599 0.92341 0.85913 -0.05100
C 	C 	0.73165 0.89527 0.85781 0.00900
H 	H 	0.72810 0.87490 0.87890 0.03700
C 	C 	0.73259 0.89749 0.82655 -0.09600
H 	H 	0.72870 0.87910 0.82570 0.06600
C 	C 	0.73929 0.92659 0.79565 0.05300
H 	H 	0.74120 0.92720 0.77340 0.00300
C 	C 	0.73561 0.92221 0.89263 0.13900
N 	N 	0.73482 0.95214 0.89220 -0.15500
S 	S 	0.29659 0.54911 0.03359 -0.06200
C 	C 	0.27301 0.53939 0.02371 0.09700
N 	N 	0.25767 0.53185 0.01559 -0.25900
N 	N 	0.20964 0.56022 0.96944 -0.22500
C 	C 	0.18600 0.56424 0.95734 0.06600
H 	H 	0.18690 0.54350 0.95590 -0.00200
C 	C 	0.16013 0.59689 0.94669 -0.10200
H 	H 	0.14430 0.59830 0.93770 0.06600
C 	C 	0.15732 0.62748 0.94922 0.00800
H 	H 	0.13950 0.65010 0.94250 0.03700
C 	C 	0.18193 0.62351 0.96223 -0.04700
C 	C 	0.20799 0.58953 0.97115 0.03700
H 	H 	0.22530 0.58730 0.97890 0.01100
N 	N 	0.26035 0.70663 0.99347 -0.22700
C 	C 	0.23404 0.70568 0.98812 0.03800
H 	H 	0.21270 0.72630 0.98770 0.01500
C 	C 	0.23575 0.67747 0.98323 -0.04900
C 	C 	0.26712 0.64670 0.98400 0.00800
H 	H 	0.26910 0.62590 0.98170 0.03700
C 	C 	0.29451 0.64741 0.98809 -0.09600
H 	H 	0.31640 0.62740 0.98760 0.06400
C 	C 	0.29072 0.67736 0.99298 0.05400
H 	H 	0.31010 0.67710 0.99610 0.00000
C 	C 	0.20468 0.67746 0.98012 0.13300
N 	N 	0.20927 0.65117 0.97119 -0.15000
C 	C 	0.17951 0.65331 0.96913 0.13200
N 	N 	0.14696 0.67908 0.97574 -0.15100
C 	C 	0.14513 0.70299 0.98569 0.13400
N 	N 	0.17300 0.70406 0.98842 -0.14800
C 	C 	0.10916 0.73024 0.99644 -0.05000
C 	C 	0.07934 0.72838 0.99678 0.04200
H 	H 	0.08280 0.70960 0.99020 0.01100
N 	N 	0.04628 0.75150 0.00588 -0.22700
C 	C 	0.04166 0.77804 0.01508 0.05500
H 	H 	0.01810 0.79510 0.02130 0.00400
C 	C 	0.07006 0.78132 0.01578 -0.09500
H 	H 	0.06590 0.80050 0.02210 0.06600
C 	C 	0.10454 0.75652 0.00718 0.00700
H 	H 	0.12420 0.75760 0.00860 0.03900
N 	N 	0.03570 0.71888 0.96600 -0.26300
C 	C 	0.05408 0.70696 0.94316 0.10500
S 	S 	0.08085 0.69115 0.90919 -0.06100
N 	N 	0.00656 0.79592 0.95422 -0.22600
C 	C 	0.97873 0.82749 0.95231 0.03700
H 	H 	0.95640 0.82800 0.97160 0.01300
C 	C 	0.98147 0.85913 0.92341 -0.05100
C 	C 	0.01527 0.85781 0.89527 0.00900
H 	H 	0.01810 0.87890 0.87490 0.03700
C 	C 	0.04337 0.82655 0.89749 -0.09600
H 	H 	0.06650 0.82570 0.87910 0.06600
C 	C 	0.03847 0.79565 0.92659 0.05300
H 	H 	0.05820 0.77340 0.92720 0.00300
C 	C 	0.94955 0.89263 0.92221 0.13900
N 	N 	0.92084 0.89220 0.95214 -0.15500
S 	S 	0.54911 0.29659 0.62071 -0.06300
C 	C 	0.53939 0.27301 0.66389 0.09700
N 	N 	0.53185 0.25767 0.69489 -0.25900
N 	N 	0.56022 0.20964 0.76070 -0.22500
C 	C 	0.56424 0.18600 0.79242 0.06600
H 	H 	0.54350 0.18690 0.81370 -0.00200
C 	C 	0.59689 0.16013 0.79629 -0.10200
H 	H 	0.59830 0.14430 0.81970 0.06600
C 	C 	0.62748 0.15732 0.76598 0.00800
H 	H 	0.65010 0.13950 0.76790 0.03700
C 	C 	0.62351 0.18193 0.73233 -0.04700
C 	C 	0.58953 0.20799 0.73133 0.03700
H 	H 	0.58730 0.22530 0.70850 0.01100
N 	N 	0.70663 0.26035 0.53955 -0.22700
C 	C 	0.70568 0.23404 0.57216 0.03800
H 	H 	0.72630 0.21270 0.57330 0.01500
C 	C 	0.67747 0.23575 0.60355 -0.04900
C 	C 	0.64670 0.26712 0.60218 0.00800
H 	H 	0.62590 0.26910 0.62330 0.03700
C 	C 	0.64741 0.29451 0.56999 -0.09600
H 	H 	0.62740 0.31640 0.56860 0.06400
C 	C 	0.67736 0.29072 0.53894 0.05400
H 	H 	0.67710 0.31010 0.51670 0.00000
C 	C 	0.67746 0.20468 0.63774 0.13300
N 	N 	0.65117 0.20927 0.66837 -0.15000
C 	C 	0.65331 0.17951 0.69805 0.13200
N 	N 	0.67908 0.14696 0.69822 -0.15100
C 	C 	0.70299 0.14513 0.66619 0.13400
N 	N 	0.70406 0.17300 0.63452 -0.14800
C 	C 	0.73024 0.10916 0.66416 -0.05000
C 	C 	0.72838 0.07934 0.69550 0.04200
H 	H 	0.70960 0.08280 0.71740 0.01100
N 	N 	0.75150 0.04628 0.69634 -0.22700
C 	C 	0.77804 0.04166 0.66522 0.05500
H 	H 	0.79510 0.01810 0.66550 0.00400
C 	C 	0.78132 0.07006 0.63284 -0.09500
H 	H 	0.80050 0.06590 0.61150 0.06600
C 	C 	0.75652 0.10454 0.63176 0.00700
H 	H 	0.75760 0.12420 0.60960 0.03900
N 	N 	0.71888 0.03570 0.77942 -0.26300
C 	C 	0.70696 0.05408 0.79580 0.10500
S 	S 	0.69115 0.08085 0.81881 -0.06100
N 	N 	0.79592 0.00656 0.74330 -0.22600
C 	C 	0.82749 0.97873 0.74147 0.03700
H 	H 	0.82800 0.95640 0.74400 0.01300
C 	C 	0.85913 0.98147 0.73599 -0.05100
C 	C 	0.85781 0.01527 0.73165 0.00900
H 	H 	0.87890 0.01810 0.72810 0.03700
C 	C 	0.82655 0.04337 0.73259 -0.09600
H 	H 	0.82570 0.06650 0.72870 0.06600
C 	C 	0.79565 0.03847 0.73929 0.05300
H 	H 	0.77340 0.05820 0.74120 0.00300
C 	C 	0.89263 0.94955 0.73561 0.13900
N 	N 	0.89220 0.92084 0.73482 -0.15500
S 	S 	0.03359 0.62071 0.29659 -0.06200
C 	C 	0.02371 0.66389 0.27301 0.09700
N 	N 	0.01559 0.69489 0.25767 -0.25900
N 	N 	0.96944 0.76070 0.20964 -0.22500
C 	C 	0.95734 0.79242 0.18600 0.06600
H 	H 	0.95590 0.81370 0.18690 -0.00200
C 	C 	0.94669 0.79629 0.16013 -0.10200
H 	H 	0.93770 0.81970 0.14430 0.06600
C 	C 	0.94922 0.76598 0.15732 0.00800
H 	H 	0.94250 0.76790 0.13950 0.03700
C 	C 	0.96223 0.73233 0.18193 -0.04700
C 	C 	0.97115 0.73133 0.20799 0.03700
H 	H 	0.97890 0.70850 0.22530 0.01100
N 	N 	0.99347 0.53955 0.26035 -0.22700
C 	C 	0.98812 0.57216 0.23404 0.03800
H 	H 	0.98770 0.57330 0.21270 0.01500
C 	C 	0.98323 0.60355 0.23575 -0.04900
C 	C 	0.98400 0.60218 0.26712 0.00800
H 	H 	0.98170 0.62330 0.26910 0.03700
C 	C 	0.98809 0.56999 0.29451 -0.09600
H 	H 	0.98760 0.56860 0.31640 0.06400
C 	C 	0.99298 0.53894 0.29072 0.05400
H 	H 	0.99610 0.51670 0.31010 0.00000
C 	C 	0.98012 0.63774 0.20468 0.13300
N 	N 	0.97119 0.66837 0.20927 -0.15000
C 	C 	0.96913 0.69805 0.17951 0.13200
N 	N 	0.97574 0.69822 0.14696 -0.15100
C 	C 	0.98569 0.66619 0.14513 0.13400
N 	N 	0.98842 0.63452 0.17300 -0.14800
C 	C 	0.99644 0.66416 0.10916 -0.05000
C 	C 	0.99678 0.69550 0.07934 0.04200
H 	H 	0.99020 0.71740 0.08280 0.01100
N 	N 	0.00588 0.69634 0.04628 -0.22700
C 	C 	0.01508 0.66522 0.04166 0.05500
H 	H 	0.02130 0.66550 0.01810 0.00400
C 	C 	0.01578 0.63284 0.07006 -0.09500
H 	H 	0.02210 0.61150 0.06590 0.06600
C 	C 	0.00718 0.63176 0.10454 0.00700
H 	H 	0.00860 0.60960 0.12420 0.03900
N 	N 	0.96600 0.77942 0.03570 -0.26300
C 	C 	0.94316 0.79580 0.05408 0.10500
S 	S 	0.90919 0.81881 0.08085 -0.06100
N 	N 	0.95422 0.74330 0.00656 -0.22600
C 	C 	0.95231 0.74147 0.97873 0.03700
H 	H 	0.97160 0.74400 0.95640 0.01300
C 	C 	0.92341 0.73599 0.98147 -0.05100
C 	C 	0.89527 0.73165 0.01527 0.00900
H 	H 	0.87490 0.72810 0.01810 0.03700
C 	C 	0.89749 0.73259 0.04337 -0.09600
H 	H 	0.87910 0.72870 0.06650 0.06600
C 	C 	0.92659 0.73929 0.03847 0.05300
H 	H 	0.92720 0.74120 0.05820 0.00300
C 	C 	0.92221 0.73561 0.94955 0.13900
N 	N 	0.95214 0.73482 0.92084 -0.15500
S 	S 	0.79659 0.12071 0.53359 -0.06200
C 	C 	0.77301 0.16389 0.52371 0.09700
N 	N 	0.75767 0.19489 0.51559 -0.25900
N 	N 	0.70964 0.26070 0.46944 -0.22500
C 	C 	0.68600 0.29242 0.45734 0.06600
H 	H 	0.68690 0.31370 0.45590 -0.00200
C 	C 	0.66013 0.29629 0.44669 -0.10200
H 	H 	0.64430 0.31970 0.43770 0.06600
C 	C 	0.65732 0.26598 0.44922 0.00800
H 	H 	0.63950 0.26790 0.44250 0.03700
C 	C 	0.68193 0.23233 0.46223 -0.04700
C 	C 	0.70799 0.23133 0.47115 0.03700
H 	H 	0.72530 0.20850 0.47890 0.01100
N 	N 	0.76035 0.03955 0.49347 -0.22700
C 	C 	0.73404 0.07216 0.48812 0.03800
H 	H 	0.71270 0.07330 0.48770 0.01500
C 	C 	0.73575 0.10355 0.48323 -0.04900
C 	C 	0.76712 0.10218 0.48400 0.00800
H 	H 	0.76910 0.12330 0.48170 0.03700
C 	C 	0.79451 0.06999 0.48809 -0.09600
H 	H 	0.81640 0.06860 0.48760 0.06400
C 	C 	0.79072 0.03894 0.49298 0.05400
H 	H 	0.81010 0.01670 0.49610 0.00000
C 	C 	0.70468 0.13774 0.48012 0.13300
N 	N 	0.70927 0.16837 0.47119 -0.15000
C 	C 	0.67951 0.19805 0.46913 0.13200
N 	N 	0.64696 0.19822 0.47574 -0.15100
C 	C 	0.64513 0.16619 0.48569 0.13400
N 	N 	0.67300 0.13452 0.48842 -0.14800
C 	C 	0.60916 0.16416 0.49644 -0.05000
C 	C 	0.57934 0.19550 0.49678 0.04200
H 	H 	0.58280 0.21740 0.49020 0.01100
N 	N 	0.54628 0.19634 0.50588 -0.22700
C 	C 	0.54166 0.16522 0.51508 0.05500
H 	H 	0.51810 0.16550 0.52130 0.00400
C 	C 	0.57006 0.13284 0.51578 -0.09500
H 	H 	0.56590 0.11150 0.52210 0.06600
C 	C 	0.60454 0.13176 0.50718 0.00700
H 	H 	0.62420 0.10960 0.50860 0.03900
N 	N 	0.53570 0.27942 0.46600 -0.26300
C 	C 	0.55408 0.29580 0.44316 0.10500
S 	S 	0.58085 0.31881 0.40919 -0.06100
N 	N 	0.50656 0.24330 0.45422 -0.22600
C 	C 	0.47873 0.24147 0.45231 0.03700
H 	H 	0.45640 0.24400 0.47160 0.01300
C 	C 	0.48147 0.23599 0.42341 -0.05100
C 	C 	0.51527 0.23165 0.39527 0.00900
H 	H 	0.51810 0.22810 0.37490 0.03700
C 	C 	0.54337 0.23259 0.39749 -0.09600
H 	H 	0.56650 0.22870 0.37910 0.06600
C 	C 	0.53847 0.23929 0.42659 0.05300
H 	H 	0.55820 0.24120 0.42720 0.00300
C 	C 	0.44955 0.23561 0.42221 0.13900
N 	N 	0.42084 0.23482 0.45214 -0.15500
S 	S 	0.12071 0.79659 0.04911 -0.06200
C 	C 	0.16389 0.77301 0.03939 0.09700
N 	N 	0.19489 0.75767 0.03185 -0.25900
N 	N 	0.26070 0.70964 0.06022 -0.22500
C 	C 	0.29242 0.68600 0.06424 0.06600
H 	H 	0.31370 0.68690 0.04350 -0.00200
C 	C 	0.29629 0.66013 0.09689 -0.10200
H 	H 	0.31970 0.64430 0.09830 0.06600
C 	C 	0.26598 0.65732 0.12748 0.00800
H 	H 	0.26790 0.63950 0.15010 0.03700
C 	C 	0.23233 0.68193 0.12351 -0.04700
C 	C 	0.23133 0.70799 0.08953 0.03700
H 	H 	0.20850 0.72530 0.08730 0.01100
N 	N 	0.03955 0.76035 0.20663 -0.22700
C 	C 	0.07216 0.73404 0.20568 0.03800
H 	H 	0.07330 0.71270 0.22630 0.01500
C 	C 	0.10355 0.73575 0.17747 -0.04900
C 	C 	0.10218 0.76712 0.14670 0.00800
H 	H 	0.12330 0.76910 0.12590 0.03700
C 	C 	0.06999 0.79451 0.14741 -0.09600
H 	H 	0.06860 0.81640 0.12740 0.06400
C 	C 	0.03894 0.79072 0.17736 0.05400
H 	H 	0.01670 0.81010 0.17710 0.00000
C 	C 	0.13774 0.70468 0.17746 0.13300
N 	N 	0.16837 0.70927 0.15117 -0.15000
C 	C 	0.19805 0.67951 0.15331 0.13200
N 	N 	0.19822 0.64696 0.17908 -0.15100
C 	C 	0.16619 0.64513 0.20299 0.13400
N 	N 	0.13452 0.67300 0.20406 -0.14800
C 	C 	0.16416 0.60916 0.23024 -0.05000
C 	C 	0.19550 0.57934 0.22838 0.04200
H 	H 	0.21740 0.58280 0.20960 0.01100
N 	N 	0.19634 0.54628 0.25150 -0.22700
C 	C 	0.16522 0.54166 0.27804 0.05500
H 	H 	0.16550 0.51810 0.29510 0.00400
C 	C 	0.13284 0.57006 0.28132 -0.09500
H 	H 	0.11150 0.56590 0.30050 0.06600
C 	C 	0.13176 0.60454 0.25652 0.00700
H 	H 	0.10960 0.62420 0.25760 0.03900
N 	N 	0.27942 0.53570 0.21888 -0.26300
C 	C 	0.29580 0.55408 0.20696 0.10500
S 	S 	0.31881 0.58085 0.19115 -0.06100
N 	N 	0.24330 0.50656 0.29592 -0.22600
C 	C 	0.24147 0.47873 0.32749 0.03700
H 	H 	0.24400 0.45640 0.32800 0.01300
C 	C 	0.23599 0.48147 0.35913 -0.05100
C 	C 	0.23165 0.51527 0.35781 0.00900
H 	H 	0.22810 0.51810 0.37890 0.03700
C 	C 	0.23259 0.54337 0.32655 -0.09600
H 	H 	0.22870 0.56650 0.32570 0.06600
C 	C 	0.23929 0.53847 0.29565 0.05300
H 	H 	0.24120 0.55820 0.27340 0.00300
C 	C 	0.23561 0.44955 0.39263 0.13900
N 	N 	0.23482 0.42084 0.39220 -0.15500
S 	S 	0.53359 0.04911 0.79659 -0.06200
C 	C 	0.52371 0.03939 0.77301 0.09700
N 	N 	0.51559 0.03185 0.75767 -0.25900
N 	N 	0.46944 0.06022 0.70964 -0.22500
C 	C 	0.45734 0.06424 0.68600 0.06600
H 	H 	0.45590 0.04350 0.68690 -0.00200
C 	C 	0.44669 0.09689 0.66013 -0.10200
H 	H 	0.43770 0.09830 0.64430 0.06600
C 	C 	0.44922 0.12748 0.65732 0.00800
H 	H 	0.44250 0.15010 0.63950 0.03700
C 	C 	0.46223 0.12351 0.68193 -0.04700
C 	C 	0.47115 0.08953 0.70799 0.03700
H 	H 	0.47890 0.08730 0.72530 0.01100
N 	N 	0.49347 0.20663 0.76035 -0.22700
C 	C 	0.48812 0.20568 0.73404 0.03800
H 	H 	0.48770 0.22630 0.71270 0.01500
C 	C 	0.48323 0.17747 0.73575 -0.04900
C 	C 	0.48400 0.14670 0.76712 0.00800
H 	H 	0.48170 0.12590 0.76910 0.03700
C 	C 	0.48809 0.14741 0.79451 -0.09600
H 	H 	0.48760 0.12740 0.81640 0.06400
C 	C 	0.49298 0.17736 0.79072 0.05400
H 	H 	0.49610 0.17710 0.81010 0.00000
C 	C 	0.48012 0.17746 0.70468 0.13300
N 	N 	0.47119 0.15117 0.70927 -0.15000
C 	C 	0.46913 0.15331 0.67951 0.13200
N 	N 	0.47574 0.17908 0.64696 -0.15100
C 	C 	0.48569 0.20299 0.64513 0.13400
N 	N 	0.48842 0.20406 0.67300 -0.14800
C 	C 	0.49644 0.23024 0.60916 -0.05000
C 	C 	0.49678 0.22838 0.57934 0.04200
H 	H 	0.49020 0.20960 0.58280 0.01100
N 	N 	0.50588 0.25150 0.54628 -0.22700
C 	C 	0.51508 0.27804 0.54166 0.05500
H 	H 	0.52130 0.29510 0.51810 0.00400
C 	C 	0.51578 0.28132 0.57006 -0.09500
H 	H 	0.52210 0.30050 0.56590 0.06600
C 	C 	0.50718 0.25652 0.60454 0.00700
H 	H 	0.50860 0.25760 0.62420 0.03900
N 	N 	0.46600 0.21888 0.53570 -0.26300
C 	C 	0.44316 0.20696 0.55408 0.10500
S 	S 	0.40919 0.19115 0.58085 -0.06100
N 	N 	0.45422 0.29592 0.50656 -0.22600
C 	C 	0.45231 0.32749 0.47873 0.03700
H 	H 	0.47160 0.32800 0.45640 0.01300
C 	C 	0.42341 0.35913 0.48147 -0.05100
C 	C 	0.39527 0.35781 0.51527 0.00900
H 	H 	0.37490 0.37890 0.51810 0.03700
C 	C 	0.39749 0.32655 0.54337 -0.09600
H 	H 	0.37910 0.32570 0.56650 0.06600
C 	C 	0.42659 0.29565 0.53847 0.05300
H 	H 	0.42720 0.27340 0.55820 0.00300
C 	C 	0.42221 0.39263 0.44955 0.13900
N 	N 	0.45214 0.39220 0.42084 -0.15500
S 	S 	0.04911 0.53359 0.12071 -0.06200
C 	C 	0.03939 0.52371 0.16389 0.09700
N 	N 	0.03185 0.51559 0.19489 -0.25900
N 	N 	0.06022 0.46944 0.26070 -0.22500
C 	C 	0.06424 0.45734 0.29242 0.06600
H 	H 	0.04350 0.45590 0.31370 -0.00200
C 	C 	0.09689 0.44669 0.29629 -0.10200
H 	H 	0.09830 0.43770 0.31970 0.06600
C 	C 	0.12748 0.44922 0.26598 0.00800
H 	H 	0.15010 0.44250 0.26790 0.03700
C 	C 	0.12351 0.46223 0.23233 -0.04700
C 	C 	0.08953 0.47115 0.23133 0.03700
H 	H 	0.08730 0.47890 0.20850 0.01100
N 	N 	0.20663 0.49347 0.03955 -0.22700
C 	C 	0.20568 0.48812 0.07216 0.03800
H 	H 	0.22630 0.48770 0.07330 0.01500
C 	C 	0.17747 0.48323 0.10355 -0.04900
C 	C 	0.14670 0.48400 0.10218 0.00800
H 	H 	0.12590 0.48170 0.12330 0.03700
C 	C 	0.14741 0.48809 0.06999 -0.09600
H 	H 	0.12740 0.48760 0.06860 0.06400
C 	C 	0.17736 0.49298 0.03894 0.05400
H 	H 	0.17710 0.49610 0.01670 0.00000
C 	C 	0.17746 0.48012 0.13774 0.13300
N 	N 	0.15117 0.47119 0.16837 -0.15000
C 	C 	0.15331 0.46913 0.19805 0.13200
N 	N 	0.17908 0.47574 0.19822 -0.15100
C 	C 	0.20299 0.48569 0.16619 0.13400
N 	N 	0.20406 0.48842 0.13452 -0.14800
C 	C 	0.23024 0.49644 0.16416 -0.05000
C 	C 	0.22838 0.49678 0.19550 0.04200
H 	H 	0.20960 0.49020 0.21740 0.01100
N 	N 	0.25150 0.50588 0.19634 -0.22700
C 	C 	0.27804 0.51508 0.16522 0.05500
H 	H 	0.29510 0.52130 0.16550 0.00400
C 	C 	0.28132 0.51578 0.13284 -0.09500
H 	H 	0.30050 0.52210 0.11150 0.06600
C 	C 	0.25652 0.50718 0.13176 0.00700
H 	H 	0.25760 0.50860 0.10960 0.03900
N 	N 	0.21888 0.46600 0.27942 -0.26300
C 	C 	0.20696 0.44316 0.29580 0.10500
S 	S 	0.19115 0.40919 0.31881 -0.06100
N 	N 	0.29592 0.45422 0.24330 -0.22600
C 	C 	0.32749 0.45231 0.24147 0.03700
H 	H 	0.32800 0.47160 0.24400 0.01300
C 	C 	0.35913 0.42341 0.23599 -0.05100
C 	C 	0.35781 0.39527 0.23165 0.00900
H 	H 	0.37890 0.37490 0.22810 0.03700
C 	C 	0.32655 0.39749 0.23259 -0.09600
H 	H 	0.32570 0.37910 0.22870 0.06600
C 	C 	0.29565 0.42659 0.23929 0.05300
H 	H 	0.27340 0.42720 0.24120 0.00300
C 	C 	0.39263 0.42221 0.23561 0.13900
N 	N 	0.39220 0.45214 0.23482 -0.15500
S 	S 	0.53359 0.79659 0.12071 -0.06200
C 	C 	0.52371 0.77301 0.16389 0.09700
N 	N 	0.51559 0.75767 0.19489 -0.25900
N 	N 	0.46944 0.70964 0.26070 -0.22500
C 	C 	0.45734 0.68600 0.29242 0.06600
H 	H 	0.45590 0.68690 0.31370 -0.00200
C 	C 	0.44669 0.66013 0.29629 -0.10200
H 	H 	0.43770 0.64430 0.31970 0.06600
C 	C 	0.44922 0.65732 0.26598 0.00800
H 	H 	0.44250 0.63950 0.26790 0.03700
C 	C 	0.46223 0.68193 0.23233 -0.04700
C 	C 	0.47115 0.70799 0.23133 0.03700
H 	H 	0.47890 0.72530 0.20850 0.01100
N 	N 	0.49347 0.76035 0.03955 -0.22700
C 	C 	0.48812 0.73404 0.07216 0.03800
H 	H 	0.48770 0.71270 0.07330 0.01500
C 	C 	0.48323 0.73575 0.10355 -0.04900
C 	C 	0.48400 0.76712 0.10218 0.00800
H 	H 	0.48170 0.76910 0.12330 0.03700
C 	C 	0.48809 0.79451 0.06999 -0.09600
H 	H 	0.48760 0.81640 0.06860 0.06400
C 	C 	0.49298 0.79072 0.03894 0.05400
H 	H 	0.49610 0.81010 0.01670 0.00000
C 	C 	0.48012 0.70468 0.13774 0.13300
N 	N 	0.47119 0.70927 0.16837 -0.15000
C 	C 	0.46913 0.67951 0.19805 0.13200
N 	N 	0.47574 0.64696 0.19822 -0.15100
C 	C 	0.48569 0.64513 0.16619 0.13400
N 	N 	0.48842 0.67300 0.13452 -0.14800
C 	C 	0.49644 0.60916 0.16416 -0.05000
C 	C 	0.49678 0.57934 0.19550 0.04200
H 	H 	0.49020 0.58280 0.21740 0.01100
N 	N 	0.50588 0.54628 0.19634 -0.22700
C 	C 	0.51508 0.54166 0.16522 0.05500
H 	H 	0.52130 0.51810 0.16550 0.00400
C 	C 	0.51578 0.57006 0.13284 -0.09500
H 	H 	0.52210 0.56590 0.11150 0.06600
C 	C 	0.50718 0.60454 0.13176 0.00700
H 	H 	0.50860 0.62420 0.10960 0.03900
N 	N 	0.46600 0.53570 0.27942 -0.26300
C 	C 	0.44316 0.55408 0.29580 0.10500
S 	S 	0.40919 0.58085 0.31881 -0.06100
N 	N 	0.45422 0.50656 0.24330 -0.22600
C 	C 	0.45231 0.47873 0.24147 0.03700
H 	H 	0.47160 0.45640 0.24400 0.01300
C 	C 	0.42341 0.48147 0.23599 -0.05100
C 	C 	0.39527 0.51527 0.23165 0.00900
H 	H 	0.37490 0.51810 0.22810 0.03700
C 	C 	0.39749 0.54337 0.23259 -0.09600
H 	H 	0.37910 0.56650 0.22870 0.06600
C 	C 	0.42659 0.53847 0.23929 0.05300
H 	H 	0.42720 0.55820 0.24120 0.00300
C 	C 	0.42221 0.44955 0.23561 0.13900
N 	N 	0.45214 0.42084 0.23482 -0.15500
S 	S 	0.04911 0.12071 0.79659 -0.06200
C 	C 	0.03939 0.16389 0.77301 0.09700
N 	N 	0.03185 0.19489 0.75767 -0.25900
N 	N 	0.06022 0.26070 0.70964 -0.22500
C 	C 	0.06424 0.29242 0.68600 0.06600
H 	H 	0.04350 0.31370 0.68690 -0.00200
C 	C 	0.09689 0.29629 0.66013 -0.10200
H 	H 	0.09830 0.31970 0.64430 0.06600
C 	C 	0.12748 0.26598 0.65732 0.00800
H 	H 	0.15010 0.26790 0.63950 0.03700
C 	C 	0.12351 0.23233 0.68193 -0.04700
C 	C 	0.08953 0.23133 0.70799 0.03700
H 	H 	0.08730 0.20850 0.72530 0.01100
N 	N 	0.20663 0.03955 0.76035 -0.22700
C 	C 	0.20568 0.07216 0.73404 0.03800
H 	H 	0.22630 0.07330 0.71270 0.01500
C 	C 	0.17747 0.10355 0.73575 -0.04900
C 	C 	0.14670 0.10218 0.76712 0.00800
H 	H 	0.12590 0.12330 0.76910 0.03700
C 	C 	0.14741 0.06999 0.79451 -0.09600
H 	H 	0.12740 0.06860 0.81640 0.06400
C 	C 	0.17736 0.03894 0.79072 0.05400
H 	H 	0.17710 0.01670 0.81010 0.00000
C 	C 	0.17746 0.13774 0.70468 0.13300
N 	N 	0.15117 0.16837 0.70927 -0.15000
C 	C 	0.15331 0.19805 0.67951 0.13200
N 	N 	0.17908 0.19822 0.64696 -0.15100
C 	C 	0.20299 0.16619 0.64513 0.13400
N 	N 	0.20406 0.13452 0.67300 -0.14800
C 	C 	0.23024 0.16416 0.60916 -0.05000
C 	C 	0.22838 0.19550 0.57934 0.04200
H 	H 	0.20960 0.21740 0.58280 0.01100
N 	N 	0.25150 0.19634 0.54628 -0.22700
C 	C 	0.27804 0.16522 0.54166 0.05500
H 	H 	0.29510 0.16550 0.51810 0.00400
C 	C 	0.28132 0.13284 0.57006 -0.09500
H 	H 	0.30050 0.11150 0.56590 0.06600
C 	C 	0.25652 0.13176 0.60454 0.00700
H 	H 	0.25760 0.10960 0.62420 0.03900
N 	N 	0.21888 0.27942 0.53570 -0.26300
C 	C 	0.20696 0.29580 0.55408 0.10500
S 	S 	0.19115 0.31881 0.58085 -0.06100
N 	N 	0.29592 0.24330 0.50656 -0.22600
C 	C 	0.32749 0.24147 0.47873 0.03700
H 	H 	0.32800 0.24400 0.45640 0.01300
C 	C 	0.35913 0.23599 0.48147 -0.05100
C 	C 	0.35781 0.23165 0.51527 0.00900
H 	H 	0.37890 0.22810 0.51810 0.03700
C 	C 	0.32655 0.23259 0.54337 -0.09600
H 	H 	0.32570 0.22870 0.56650 0.06600
C 	C 	0.29565 0.23929 0.53847 0.05300
H 	H 	0.27340 0.24120 0.55820 0.00300
C 	C 	0.39263 0.23561 0.44955 0.13900
N 	N 	0.39220 0.23482 0.42084 -0.15500
S 	S 	0.79659 0.53359 0.04911 -0.06200
C 	C 	0.77301 0.52371 0.03939 0.09700
N 	N 	0.75767 0.51559 0.03185 -0.25900
N 	N 	0.70964 0.46944 0.06022 -0.22500
C 	C 	0.68600 0.45734 0.06424 0.06600
H 	H 	0.68690 0.45590 0.04350 -0.00200
C 	C 	0.66013 0.44669 0.09689 -0.10200
H 	H 	0.64430 0.43770 0.09830 0.06600
C 	C 	0.65732 0.44922 0.12748 0.00800
H 	H 	0.63950 0.44250 0.15010 0.03700
C 	C 	0.68193 0.46223 0.12351 -0.04700
C 	C 	0.70799 0.47115 0.08953 0.03700
H 	H 	0.72530 0.47890 0.08730 0.01100
N 	N 	0.76035 0.49347 0.20663 -0.22700
C 	C 	0.73404 0.48812 0.20568 0.03800
H 	H 	0.71270 0.48770 0.22630 0.01500
C 	C 	0.73575 0.48323 0.17747 -0.04900
C 	C 	0.76712 0.48400 0.14670 0.00800
H 	H 	0.76910 0.48170 0.12590 0.03700
C 	C 	0.79451 0.48809 0.14741 -0.09600
H 	H 	0.81640 0.48760 0.12740 0.06400
C 	C 	0.79072 0.49298 0.17736 0.05400
H 	H 	0.81010 0.49610 0.17710 0.00000
C 	C 	0.70468 0.48012 0.17746 0.13300
N 	N 	0.70927 0.47119 0.15117 -0.15000
C 	C 	0.67951 0.46913 0.15331 0.13200
N 	N 	0.64696 0.47574 0.17908 -0.15100
C 	C 	0.64513 0.48569 0.20299 0.13400
N 	N 	0.67300 0.48842 0.20406 -0.14800
C 	C 	0.60916 0.49644 0.23024 -0.05000
C 	C 	0.57934 0.49678 0.22838 0.04200
H 	H 	0.58280 0.49020 0.20960 0.01100
N 	N 	0.54628 0.50588 0.25150 -0.22700
C 	C 	0.54166 0.51508 0.27804 0.05500
H 	H 	0.51810 0.52130 0.29510 0.00400
C 	C 	0.57006 0.51578 0.28132 -0.09500
H 	H 	0.56590 0.52210 0.30050 0.06600
C 	C 	0.60454 0.50718 0.25652 0.00700
H 	H 	0.62420 0.50860 0.25760 0.03900
N 	N 	0.53570 0.46600 0.21888 -0.26300
C 	C 	0.55408 0.44316 0.20696 0.10500
S 	S 	0.58085 0.40919 0.19115 -0.06100
N 	N 	0.50656 0.45422 0.29592 -0.22600
C 	C 	0.47873 0.45231 0.32749 0.03700
H 	H 	0.45640 0.47160 0.32800 0.01300
C 	C 	0.48147 0.42341 0.35913 -0.05100
C 	C 	0.51527 0.39527 0.35781 0.00900
H 	H 	0.51810 0.37490 0.37890 0.03700
C 	C 	0.54337 0.39749 0.32655 -0.09600
H 	H 	0.56650 0.37910 0.32570 0.06600
C 	C 	0.53847 0.42659 0.29565 0.05300
H 	H 	0.55820 0.42720 0.27340 0.00300
C 	C 	0.44955 0.42221 0.39263 0.13900
N 	N 	0.42084 0.45214 0.39220 -0.15500
S 	S 	0.12071 0.04911 0.53359 -0.06200
C 	C 	0.16389 0.03939 0.52371 0.09700
N 	N 	0.19489 0.03185 0.51559 -0.25900
N 	N 	0.26070 0.06022 0.46944 -0.22500
C 	C 	0.29242 0.06424 0.45734 0.06600
H 	H 	0.31370 0.04350 0.45590 -0.00200
C 	C 	0.29629 0.09689 0.44669 -0.10200
H 	H 	0.31970 0.09830 0.43770 0.06600
C 	C 	0.26598 0.12748 0.44922 0.00800
H 	H 	0.26790 0.15010 0.44250 0.03700
C 	C 	0.23233 0.12351 0.46223 -0.04700
C 	C 	0.23133 0.08953 0.47115 0.03700
H 	H 	0.20850 0.08730 0.47890 0.01100
N 	N 	0.03955 0.20663 0.49347 -0.22700
C 	C 	0.07216 0.20568 0.48812 0.03800
H 	H 	0.07330 0.22630 0.48770 0.01500
C 	C 	0.10355 0.17747 0.48323 -0.04900
C 	C 	0.10218 0.14670 0.48400 0.00800
H 	H 	0.12330 0.12590 0.48170 0.03700
C 	C 	0.06999 0.14741 0.48809 -0.09600
H 	H 	0.06860 0.12740 0.48760 0.06400
C 	C 	0.03894 0.17736 0.49298 0.05400
H 	H 	0.01670 0.17710 0.49610 0.00000
C 	C 	0.13774 0.17746 0.48012 0.13300
N 	N 	0.16837 0.15117 0.47119 -0.15000
C 	C 	0.19805 0.15331 0.46913 0.13200
N 	N 	0.19822 0.17908 0.47574 -0.15100
C 	C 	0.16619 0.20299 0.48569 0.13400
N 	N 	0.13452 0.20406 0.48842 -0.14800
C 	C 	0.16416 0.23024 0.49644 -0.05000
C 	C 	0.19550 0.22838 0.49678 0.04200
H 	H 	0.21740 0.20960 0.49020 0.01100
N 	N 	0.19634 0.25150 0.50588 -0.22700
C 	C 	0.16522 0.27804 0.51508 0.05500
H 	H 	0.16550 0.29510 0.52130 0.00400
C 	C 	0.13284 0.28132 0.51578 -0.09500
H 	H 	0.11150 0.30050 0.52210 0.06600
C 	C 	0.13176 0.25652 0.50718 0.00700
H 	H 	0.10960 0.25760 0.50860 0.03900
N 	N 	0.27942 0.21888 0.46600 -0.26300
C 	C 	0.29580 0.20696 0.44316 0.10500
S 	S 	0.31881 0.19115 0.40919 -0.06100
N 	N 	0.24330 0.29592 0.45422 -0.22600
C 	C 	0.24147 0.32749 0.45231 0.03700
H 	H 	0.24400 0.32800 0.47160 0.01300
C 	C 	0.23599 0.35913 0.42341 -0.05100
C 	C 	0.23165 0.35781 0.39527 0.00900
H 	H 	0.22810 0.37890 0.37490 0.03700
C 	C 	0.23259 0.32655 0.39749 -0.09600
H 	H 	0.22870 0.32570 0.37910 0.06600
C 	C 	0.23929 0.29565 0.42659 0.05300
H 	H 	0.24120 0.27340 0.42720 0.00300
C 	C 	0.23561 0.39263 0.42221 0.13900
N 	N 	0.23482 0.39220 0.45214 -0.15500
S 	S 	0.12071 0.53359 0.79659 -0.06200
C 	C 	0.16389 0.52371 0.77301 0.09700
N 	N 	0.19489 0.51559 0.75767 -0.25900
N 	N 	0.26070 0.46944 0.70964 -0.22500
C 	C 	0.29242 0.45734 0.68600 0.06600
H 	H 	0.31370 0.45590 0.68690 -0.00200
C 	C 	0.29629 0.44669 0.66013 -0.10200
H 	H 	0.31970 0.43770 0.64430 0.06600
C 	C 	0.26598 0.44922 0.65732 0.00800
H 	H 	0.26790 0.44250 0.63950 0.03700
C 	C 	0.23233 0.46223 0.68193 -0.04700
C 	C 	0.23133 0.47115 0.70799 0.03700
H 	H 	0.20850 0.47890 0.72530 0.01100
N 	N 	0.03955 0.49347 0.76035 -0.22700
C 	C 	0.07216 0.48812 0.73404 0.03800
H 	H 	0.07330 0.48770 0.71270 0.01500
C 	C 	0.10355 0.48323 0.73575 -0.04900
C 	C 	0.10218 0.48400 0.76712 0.00800
H 	H 	0.12330 0.48170 0.76910 0.03700
C 	C 	0.06999 0.48809 0.79451 -0.09600
H 	H 	0.06860 0.48760 0.81640 0.06400
C 	C 	0.03894 0.49298 0.79072 0.05400
H 	H 	0.01670 0.49610 0.81010 0.00000
C 	C 	0.13774 0.48012 0.70468 0.13300
N 	N 	0.16837 0.47119 0.70927 -0.15000
C 	C 	0.19805 0.46913 0.67951 0.13200
N 	N 	0.19822 0.47574 0.64696 -0.15100
C 	C 	0.16619 0.48569 0.64513 0.13400
N 	N 	0.13452 0.48842 0.67300 -0.14800
C 	C 	0.16416 0.49644 0.60916 -0.05000
C 	C 	0.19550 0.49678 0.57934 0.04200
H 	H 	0.21740 0.49020 0.58280 0.01100
N 	N 	0.19634 0.50588 0.54628 -0.22700
C 	C 	0.16522 0.51508 0.54166 0.05500
H 	H 	0.16550 0.52130 0.51810 0.00400
C 	C 	0.13284 0.51578 0.57006 -0.09500
H 	H 	0.11150 0.52210 0.56590 0.06600
C 	C 	0.13176 0.50718 0.60454 0.00700
H 	H 	0.10960 0.50860 0.62420 0.03900
N 	N 	0.27942 0.46600 0.53570 -0.26300
C 	C 	0.29580 0.44316 0.55408 0.10500
S 	S 	0.31881 0.40919 0.58085 -0.06100
N 	N 	0.24330 0.45422 0.50656 -0.22600
C 	C 	0.24147 0.45231 0.47873 0.03700
H 	H 	0.24400 0.47160 0.45640 0.01300
C 	C 	0.23599 0.42341 0.48147 -0.05100
C 	C 	0.23165 0.39527 0.51527 0.00900
H 	H 	0.22810 0.37490 0.51810 0.03700
C 	C 	0.23259 0.39749 0.54337 -0.09600
H 	H 	0.22870 0.37910 0.56650 0.06600
C 	C 	0.23929 0.42659 0.53847 0.05300
H 	H 	0.24120 0.42720 0.55820 0.00300
C 	C 	0.23561 0.42221 0.44955 0.13900
N 	N 	0.23482 0.45214 0.42084 -0.15500
S 	S 	0.79659 0.04911 0.12071 -0.06200
C 	C 	0.77301 0.03939 0.16389 0.09700
N 	N 	0.75767 0.03185 0.19489 -0.25900
N 	N 	0.70964 0.06022 0.26070 -0.22500
C 	C 	0.68600 0.06424 0.29242 0.06600
H 	H 	0.68690 0.04350 0.31370 -0.00200
C 	C 	0.66013 0.09689 0.29629 -0.10200
H 	H 	0.64430 0.09830 0.31970 0.06600
C 	C 	0.65732 0.12748 0.26598 0.00800
H 	H 	0.63950 0.15010 0.26790 0.03700
C 	C 	0.68193 0.12351 0.23233 -0.04700
C 	C 	0.70799 0.08953 0.23133 0.03700
H 	H 	0.72530 0.08730 0.20850 0.01100
N 	N 	0.76035 0.20663 0.03955 -0.22700
C 	C 	0.73404 0.20568 0.07216 0.03800
H 	H 	0.71270 0.22630 0.07330 0.01500
C 	C 	0.73575 0.17747 0.10355 -0.04900
C 	C 	0.76712 0.14670 0.10218 0.00800
H 	H 	0.76910 0.12590 0.12330 0.03700
C 	C 	0.79451 0.14741 0.06999 -0.09600
H 	H 	0.81640 0.12740 0.06860 0.06400
C 	C 	0.79072 0.17736 0.03894 0.05400
H 	H 	0.81010 0.17710 0.01670 0.00000
C 	C 	0.70468 0.17746 0.13774 0.13300
N 	N 	0.70927 0.15117 0.16837 -0.15000
C 	C 	0.67951 0.15331 0.19805 0.13200
N 	N 	0.64696 0.17908 0.19822 -0.15100
C 	C 	0.64513 0.20299 0.16619 0.13400
N 	N 	0.67300 0.20406 0.13452 -0.14800
C 	C 	0.60916 0.23024 0.16416 -0.05000
C 	C 	0.57934 0.22838 0.19550 0.04200
H 	H 	0.58280 0.20960 0.21740 0.01100
N 	N 	0.54628 0.25150 0.19634 -0.22700
C 	C 	0.54166 0.27804 0.16522 0.05500
H 	H 	0.51810 0.29510 0.16550 0.00400
C 	C 	0.57006 0.28132 0.13284 -0.09500
H 	H 	0.56590 0.30050 0.11150 0.06600
C 	C 	0.60454 0.25652 0.13176 0.00700
H 	H 	0.62420 0.25760 0.10960 0.03900
N 	N 	0.53570 0.21888 0.27942 -0.26300
C 	C 	0.55408 0.20696 0.29580 0.10500
S 	S 	0.58085 0.19115 0.31881 -0.06100
N 	N 	0.50656 0.29592 0.24330 -0.22600
C 	C 	0.47873 0.32749 0.24147 0.03700
H 	H 	0.45640 0.32800 0.24400 0.01300
C 	C 	0.48147 0.35913 0.23599 -0.05100
C 	C 	0.51527 0.35781 0.23165 0.00900
H 	H 	0.51810 0.37890 0.22810 0.03700
C 	C 	0.54337 0.32655 0.23259 -0.09600
H 	H 	0.56650 0.32570 0.22870 0.06600
C 	C 	0.53847 0.29565 0.23929 0.05300
H 	H 	0.55820 0.27340 0.24120 0.00300
C 	C 	0.44955 0.39263 0.23561 0.13900
N 	N 	0.42084 0.39220 0.23482 -0.15500
S 	S 	0.04911 0.79659 0.53359 -0.06200
C 	C 	0.03939 0.77301 0.52371 0.09700
N 	N 	0.03185 0.75767 0.51559 -0.25900
N 	N 	0.06022 0.70964 0.46944 -0.22500
C 	C 	0.06424 0.68600 0.45734 0.06600
H 	H 	0.04350 0.68690 0.45590 -0.00200
C 	C 	0.09689 0.66013 0.44669 -0.10200
H 	H 	0.09830 0.64430 0.43770 0.06600
C 	C 	0.12748 0.65732 0.44922 0.00800
H 	H 	0.15010 0.63950 0.44250 0.03700
C 	C 	0.12351 0.68193 0.46223 -0.04700
C 	C 	0.08953 0.70799 0.47115 0.03700
H 	H 	0.08730 0.72530 0.47890 0.01100
N 	N 	0.20663 0.76035 0.49347 -0.22700
C 	C 	0.20568 0.73404 0.48812 0.03800
H 	H 	0.22630 0.71270 0.48770 0.01500
C 	C 	0.17747 0.73575 0.48323 -0.04900
C 	C 	0.14670 0.76712 0.48400 0.00800
H 	H 	0.12590 0.76910 0.48170 0.03700
C 	C 	0.14741 0.79451 0.48809 -0.09600
H 	H 	0.12740 0.81640 0.48760 0.06400
C 	C 	0.17736 0.79072 0.49298 0.05400
H 	H 	0.17710 0.81010 0.49610 0.00000
C 	C 	0.17746 0.70468 0.48012 0.13300
N 	N 	0.15117 0.70927 0.47119 -0.15000
C 	C 	0.15331 0.67951 0.46913 0.13200
N 	N 	0.17908 0.64696 0.47574 -0.15100
C 	C 	0.20299 0.64513 0.48569 0.13400
N 	N 	0.20406 0.67300 0.48842 -0.14800
C 	C 	0.23024 0.60916 0.49644 -0.05000
C 	C 	0.22838 0.57934 0.49678 0.04200
H 	H 	0.20960 0.58280 0.49020 0.01100
N 	N 	0.25150 0.54628 0.50588 -0.22700
C 	C 	0.27804 0.54166 0.51508 0.05500
H 	H 	0.29510 0.51810 0.52130 0.00400
C 	C 	0.28132 0.57006 0.51578 -0.09500
H 	H 	0.30050 0.56590 0.52210 0.06600
C 	C 	0.25652 0.60454 0.50718 0.00700
H 	H 	0.25760 0.62420 0.50860 0.03900
N 	N 	0.21888 0.53570 0.46600 -0.26300
C 	C 	0.20696 0.55408 0.44316 0.10500
S 	S 	0.19115 0.58085 0.40919 -0.06100
N 	N 	0.29592 0.50656 0.45422 -0.22600
C 	C 	0.32749 0.47873 0.45231 0.03700
H 	H 	0.32800 0.45640 0.47160 0.01300
C 	C 	0.35913 0.48147 0.42341 -0.05100
C 	C 	0.35781 0.51527 0.39527 0.00900
H 	H 	0.37890 0.51810 0.37490 0.03700
C 	C 	0.32655 0.54337 0.39749 -0.09600
H 	H 	0.32570 0.56650 0.37910 0.06600
C 	C 	0.29565 0.53847 0.42659 0.05300
H 	H 	0.27340 0.55820 0.42720 0.00300
C 	C 	0.39263 0.44955 0.42221 0.13900
N 	N 	0.39220 0.42084 0.45214 -0.15500
S 	S 	0.53359 0.12071 0.04911 -0.06200
C 	C 	0.52371 0.16389 0.03939 0.09700
N 	N 	0.51559 0.19489 0.03185 -0.25900
N 	N 	0.46944 0.26070 0.06022 -0.22500
C 	C 	0.45734 0.29242 0.06424 0.06600
H 	H 	0.45590 0.31370 0.04350 -0.00200
C 	C 	0.44669 0.29629 0.09689 -0.10200
H 	H 	0.43770 0.31970 0.09830 0.06600
C 	C 	0.44922 0.26598 0.12748 0.00800
H 	H 	0.44250 0.26790 0.15010 0.03700
C 	C 	0.46223 0.23233 0.12351 -0.04700
C 	C 	0.47115 0.23133 0.08953 0.03700
H 	H 	0.47890 0.20850 0.08730 0.01100
N 	N 	0.49347 0.03955 0.20663 -0.22700
C 	C 	0.48812 0.07216 0.20568 0.03800
H 	H 	0.48770 0.07330 0.22630 0.01500
C 	C 	0.48323 0.10355 0.17747 -0.04900
C 	C 	0.48400 0.10218 0.14670 0.00800
H 	H 	0.48170 0.12330 0.12590 0.03700
C 	C 	0.48809 0.06999 0.14741 -0.09600
H 	H 	0.48760 0.06860 0.12740 0.06400
C 	C 	0.49298 0.03894 0.17736 0.05400
H 	H 	0.49610 0.01670 0.17710 0.00000
C 	C 	0.48012 0.13774 0.17746 0.13300
N 	N 	0.47119 0.16837 0.15117 -0.15000
C 	C 	0.46913 0.19805 0.15331 0.13200
N 	N 	0.47574 0.19822 0.17908 -0.15100
C 	C 	0.48569 0.16619 0.20299 0.13400
N 	N 	0.48842 0.13452 0.20406 -0.14800
C 	C 	0.49644 0.16416 0.23024 -0.05000
C 	C 	0.49678 0.19550 0.22838 0.04200
H 	H 	0.49020 0.21740 0.20960 0.01100
N 	N 	0.50588 0.19634 0.25150 -0.22700
C 	C 	0.51508 0.16522 0.27804 0.05500
H 	H 	0.52130 0.16550 0.29510 0.00400
C 	C 	0.51578 0.13284 0.28132 -0.09500
H 	H 	0.52210 0.11150 0.30050 0.06600
C 	C 	0.50718 0.13176 0.25652 0.00700
H 	H 	0.50860 0.10960 0.25760 0.03900
N 	N 	0.46600 0.27942 0.21888 -0.26300
C 	C 	0.44316 0.29580 0.20696 0.10500
S 	S 	0.40919 0.31881 0.19115 -0.06100
N 	N 	0.45422 0.24330 0.29592 -0.22600
C 	C 	0.45231 0.24147 0.32749 0.03700
H 	H 	0.47160 0.24400 0.32800 0.01300
C 	C 	0.42341 0.23599 0.35913 -0.05100
C 	C 	0.39527 0.23165 0.35781 0.00900
H 	H 	0.37490 0.22810 0.37890 0.03700
C 	C 	0.39749 0.23259 0.32655 -0.09600
H 	H 	0.37910 0.22870 0.32570 0.06600
C 	C 	0.42659 0.23929 0.29565 0.05300
H 	H 	0.42720 0.24120 0.27340 0.00300
C 	C 	0.42221 0.23561 0.39263 0.13900
N 	N 	0.45214 0.23482 0.39220 -0.15500
S 	S 	0.70341 0.37929 0.45089 -0.06300
C 	C 	0.72699 0.33611 0.46061 0.09700
N 	N 	0.74233 0.30511 0.46815 -0.25900
N 	N 	0.79036 0.23930 0.43978 -0.22500
C 	C 	0.81400 0.20758 0.43576 0.06600
H 	H 	0.81310 0.18630 0.45650 -0.00200
C 	C 	0.83987 0.20371 0.40311 -0.10200
H 	H 	0.85570 0.18030 0.40170 0.06600
C 	C 	0.84268 0.23402 0.37252 0.00800
H 	H 	0.86050 0.23210 0.34990 0.03700
C 	C 	0.81807 0.26767 0.37649 -0.04700
C 	C 	0.79201 0.26867 0.41047 0.03700
H 	H 	0.77470 0.29150 0.41270 0.01100
N 	N 	0.73965 0.46045 0.29337 -0.22700
C 	C 	0.76596 0.42784 0.29432 0.03800
H 	H 	0.78730 0.42670 0.27370 0.01500
C 	C 	0.76425 0.39645 0.32253 -0.04900
C 	C 	0.73288 0.39782 0.35330 0.00800
H 	H 	0.73090 0.37670 0.37410 0.03700
C 	C 	0.70549 0.43001 0.35259 -0.09600
H 	H 	0.68360 0.43140 0.37260 0.06400
C 	C 	0.70928 0.46106 0.32264 0.05400
H 	H 	0.68990 0.48330 0.32290 0.00000
C 	C 	0.79532 0.36226 0.32254 0.13300
N 	N 	0.79073 0.33163 0.34883 -0.15000
C 	C 	0.82049 0.30195 0.34669 0.13200
N 	N 	0.85304 0.30178 0.32092 -0.15100
C 	C 	0.85487 0.33381 0.29701 0.13400
N 	N 	0.82700 0.36548 0.29594 -0.14800
C 	C 	0.89084 0.33584 0.26976 -0.05000
C 	C 	0.92066 0.30450 0.27162 0.04200
H 	H 	0.91720 0.28260 0.29040 0.01100
N 	N 	0.95372 0.30366 0.24850 -0.22700
C 	C 	0.95834 0.33478 0.22196 0.05500
H 	H 	0.98190 0.33450 0.20490 0.00400
C 	C 	0.92994 0.36716 0.21868 -0.09500
H 	H 	0.93410 0.38850 0.19950 0.06600
C 	C 	0.89546 0.36824 0.24348 0.00700
H 	H 	0.87580 0.39040 0.24240 0.03900
N 	N 	0.96430 0.22058 0.28112 -0.26300
C 	C 	0.94592 0.20420 0.29304 0.10500
S 	S 	0.91915 0.18119 0.30885 -0.06100
N 	N 	0.99344 0.25670 0.20408 -0.22600
C 	C 	0.02127 0.25853 0.17251 0.03700
H 	H 	0.04360 0.25600 0.17200 0.01300
C 	C 	0.01853 0.26401 0.14087 -0.05100
C 	C 	0.98473 0.26835 0.14219 0.00900
H 	H 	0.98190 0.27190 0.12110 0.03700
C 	C 	0.95663 0.26741 0.17345 -0.09600
H 	H 	0.93350 0.27130 0.17430 0.06600
C 	C 	0.96153 0.26071 0.20435 0.05300
H 	H 	0.94180 0.25880 0.22660 0.00300
C 	C 	0.05045 0.26439 0.10737 0.13900
N 	N 	0.07916 0.26518 0.10780 -0.15500
S 	S 	0.37929 0.70341 0.96641 -0.06200
C 	C 	0.33611 0.72699 0.97629 0.09700
N 	N 	0.30511 0.74233 0.98441 -0.25900
N 	N 	0.23930 0.79036 0.03056 -0.22500
C 	C 	0.20758 0.81400 0.04266 0.06600
H 	H 	0.18630 0.81310 0.04410 -0.00200
C 	C 	0.20371 0.83987 0.05331 -0.10200
H 	H 	0.18030 0.85570 0.06230 0.06600
C 	C 	0.23402 0.84268 0.05078 0.00800
H 	H 	0.23210 0.86050 0.05750 0.03700
C 	C 	0.26767 0.81807 0.03777 -0.04700
C 	C 	0.26867 0.79201 0.02885 0.03700
H 	H 	0.29150 0.77470 0.02110 0.01100
N 	N 	0.46045 0.73965 0.00653 -0.22700
C 	C 	0.42784 0.76596 0.01188 0.03800
H 	H 	0.42670 0.78730 0.01230 0.01500
C 	C 	0.39645 0.76425 0.01677 -0.04900
C 	C 	0.39782 0.73288 0.01600 0.00800
H 	H 	0.37670 0.73090 0.01830 0.03700
C 	C 	0.43001 0.70549 0.01191 -0.09600
H 	H 	0.43140 0.68360 0.01240 0.06400
C 	C 	0.46106 0.70928 0.00702 0.05400
H 	H 	0.48330 0.68990 0.00390 0.00000
C 	C 	0.36226 0.79532 0.01988 0.13300
N 	N 	0.33163 0.79073 0.02881 -0.15000
C 	C 	0.30195 0.82049 0.03087 0.13200
N 	N 	0.30178 0.85304 0.02426 -0.15100
C 	C 	0.33381 0.85487 0.01431 0.13400
N 	N 	0.36548 0.82700 0.01158 -0.14800
C 	C 	0.33584 0.89084 0.00356 -0.05000
C 	C 	0.30450 0.92066 0.00322 0.04200
H 	H 	0.28260 0.91720 0.00980 0.01100
N 	N 	0.30366 0.95372 0.99412 -0.22700
C 	C 	0.33478 0.95834 0.98492 0.05500
H 	H 	0.33450 0.98190 0.97870 0.00400
C 	C 	0.36716 0.92994 0.98422 -0.09500
H 	H 	0.38850 0.93410 0.97790 0.06600
C 	C 	0.36824 0.89546 0.99282 0.00700
H 	H 	0.39040 0.87580 0.99140 0.03900
N 	N 	0.22058 0.96430 0.03400 -0.26300
C 	C 	0.20420 0.94592 0.05684 0.10500
S 	S 	0.18119 0.91915 0.09081 -0.06100
N 	N 	0.25670 0.99344 0.04578 -0.22600
C 	C 	0.25853 0.02127 0.04769 0.03700
H 	H 	0.25600 0.04360 0.02840 0.01300
C 	C 	0.26401 0.01853 0.07659 -0.05100
C 	C 	0.26835 0.98473 0.10473 0.00900
H 	H 	0.27190 0.98190 0.12510 0.03700
C 	C 	0.26741 0.95663 0.10251 -0.09600
H 	H 	0.27130 0.93350 0.12090 0.06600
C 	C 	0.26071 0.96153 0.07341 0.05300
H 	H 	0.25880 0.94180 0.07280 0.00300
C 	C 	0.26439 0.05045 0.07779 0.13900
N 	N 	0.26518 0.07916 0.04786 -0.15500
S 	S 	0.96641 0.45089 0.37929 -0.06200
C 	C 	0.97629 0.46061 0.33611 0.09700
N 	N 	0.98441 0.46815 0.30511 -0.25900
N 	N 	0.03056 0.43978 0.23930 -0.22500
C 	C 	0.04266 0.43576 0.20758 0.06600
H 	H 	0.04410 0.45650 0.18630 -0.00200
C 	C 	0.05331 0.40311 0.20371 -0.10200
H 	H 	0.06230 0.40170 0.18030 0.06600
C 	C 	0.05078 0.37252 0.23402 0.00800
H 	H 	0.05750 0.34990 0.23210 0.03700
C 	C 	0.03777 0.37649 0.26767 -0.04700
C 	C 	0.02885 0.41047 0.26867 0.03700
H 	H 	0.02110 0.41270 0.29150 0.01100
N 	N 	0.00653 0.29337 0.46045 -0.22700
C 	C 	0.01188 0.29432 0.42784 0.03800
H 	H 	0.01230 0.27370 0.42670 0.01500
C 	C 	0.01677 0.32253 0.39645 -0.04900
C 	C 	0.01600 0.35330 0.39782 0.00800
H 	H 	0.01830 0.37410 0.37670 0.03700
C 	C 	0.01191 0.35259 0.43001 -0.09600
H 	H 	0.01240 0.37260 0.43140 0.06400
C 	C 	0.00702 0.32264 0.46106 0.05400
H 	H 	0.00390 0.32290 0.48330 0.00000
C 	C 	0.01988 0.32254 0.36226 0.13300
N 	N 	0.02881 0.34883 0.33163 -0.15000
C 	C 	0.03087 0.34669 0.30195 0.13200
N 	N 	0.02426 0.32092 0.30178 -0.15100
C 	C 	0.01431 0.29701 0.33381 0.13400
N 	N 	0.01158 0.29594 0.36548 -0.14800
C 	C 	0.00356 0.26976 0.33584 -0.04900
C 	C 	0.00322 0.27162 0.30450 0.04200
H 	H 	0.00980 0.29040 0.28260 0.01100
N 	N 	0.99412 0.24850 0.30366 -0.22700
C 	C 	0.98492 0.22196 0.33478 0.05500
H 	H 	0.97870 0.20490 0.33450 0.00400
C 	C 	0.98422 0.21868 0.36716 -0.09500
H 	H 	0.97790 0.19950 0.38850 0.06600
C 	C 	0.99282 0.24348 0.36824 0.00700
H 	H 	0.99140 0.24240 0.39040 0.03900
N 	N 	0.03400 0.28112 0.22058 -0.26300
C 	C 	0.05684 0.29304 0.20420 0.10500
S 	S 	0.09081 0.30885 0.18119 -0.06100
N 	N 	0.04578 0.20408 0.25670 -0.22600
C 	C 	0.04769 0.17251 0.25853 0.03700
H 	H 	0.02840 0.17200 0.25600 0.01300
C 	C 	0.07659 0.14087 0.26401 -0.05100
C 	C 	0.10473 0.14219 0.26835 0.00900
H 	H 	0.12510 0.12110 0.27190 0.03700
C 	C 	0.10251 0.17345 0.26741 -0.09600
H 	H 	0.12090 0.17430 0.27130 0.06600
C 	C 	0.07341 0.20435 0.26071 0.05300
H 	H 	0.07280 0.22660 0.25880 0.00300
C 	C 	0.07779 0.10737 0.26439 0.13900
N 	N 	0.04786 0.10780 0.26518 -0.15500
S 	S 	0.45089 0.96641 0.70341 -0.06200
C 	C 	0.46061 0.97629 0.72699 0.09700
N 	N 	0.46815 0.98441 0.74233 -0.25900
N 	N 	0.43978 0.03056 0.79036 -0.22500
C 	C 	0.43576 0.04266 0.81400 0.06600
H 	H 	0.45650 0.04410 0.81310 -0.00200
C 	C 	0.40311 0.05331 0.83987 -0.10200
H 	H 	0.40170 0.06230 0.85570 0.06600
C 	C 	0.37252 0.05078 0.84268 0.00800
H 	H 	0.34990 0.05750 0.86050 0.03700
C 	C 	0.37649 0.03777 0.81807 -0.04700
C 	C 	0.41047 0.02885 0.79201 0.03700
H 	H 	0.41270 0.02110 0.77470 0.01100
N 	N 	0.29337 0.00653 0.73965 -0.22700
C 	C 	0.29432 0.01188 0.76596 0.03800
H 	H 	0.27370 0.01230 0.78730 0.01500
C 	C 	0.32253 0.01677 0.76425 -0.04900
C 	C 	0.35330 0.01600 0.73288 0.00800
H 	H 	0.37410 0.01830 0.73090 0.03700
C 	C 	0.35259 0.01191 0.70549 -0.09600
H 	H 	0.37260 0.01240 0.68360 0.06400
C 	C 	0.32264 0.00702 0.70928 0.05400
H 	H 	0.32290 0.00390 0.68990 0.00000
C 	C 	0.32254 0.01988 0.79532 0.13300
N 	N 	0.34883 0.02881 0.79073 -0.15000
C 	C 	0.34669 0.03087 0.82049 0.13200
N 	N 	0.32092 0.02426 0.85304 -0.15100
C 	C 	0.29701 0.01431 0.85487 0.13400
N 	N 	0.29594 0.01158 0.82700 -0.14800
C 	C 	0.26976 0.00356 0.89084 -0.05000
C 	C 	0.27162 0.00322 0.92066 0.04200
H 	H 	0.29040 0.00980 0.91720 0.01100
N 	N 	0.24850 0.99412 0.95372 -0.22700
C 	C 	0.22196 0.98492 0.95834 0.05500
H 	H 	0.20490 0.97870 0.98190 0.00400
C 	C 	0.21868 0.98422 0.92994 -0.09500
H 	H 	0.19950 0.97790 0.93410 0.06600
C 	C 	0.24348 0.99282 0.89546 0.00700
H 	H 	0.24240 0.99140 0.87580 0.03900
N 	N 	0.28112 0.03400 0.96430 -0.26300
C 	C 	0.29304 0.05684 0.94592 0.10500
S 	S 	0.30885 0.09081 0.91915 -0.06100
N 	N 	0.20408 0.04578 0.99344 -0.22600
C 	C 	0.17251 0.04769 0.02127 0.03700
H 	H 	0.17200 0.02840 0.04360 0.01300
C 	C 	0.14087 0.07659 0.01853 -0.05100
C 	C 	0.14219 0.10473 0.98473 0.00900
H 	H 	0.12110 0.12510 0.98190 0.03700
C 	C 	0.17345 0.10251 0.95663 -0.09600
H 	H 	0.17430 0.12090 0.93350 0.06600
C 	C 	0.20435 0.07341 0.96153 0.05300
H 	H 	0.22660 0.07280 0.94180 0.00300
C 	C 	0.10737 0.07779 0.05045 0.13900
N 	N 	0.10780 0.04786 0.07916 -0.15500
S 	S 	0.96641 0.70341 0.45089 -0.06200
C 	C 	0.97629 0.72699 0.46061 0.09700
N 	N 	0.98441 0.74233 0.46815 -0.25900
N 	N 	0.03056 0.79036 0.43978 -0.22500
C 	C 	0.04266 0.81400 0.43576 0.06600
H 	H 	0.04410 0.81310 0.45650 -0.00200
C 	C 	0.05331 0.83987 0.40311 -0.10200
H 	H 	0.06230 0.85570 0.40170 0.06600
C 	C 	0.05078 0.84268 0.37252 0.00800
H 	H 	0.05750 0.86050 0.34990 0.03700
C 	C 	0.03777 0.81807 0.37649 -0.04700
C 	C 	0.02885 0.79201 0.41047 0.03700
H 	H 	0.02110 0.77470 0.41270 0.01100
N 	N 	0.00653 0.73965 0.29337 -0.22700
C 	C 	0.01188 0.76596 0.29432 0.03800
H 	H 	0.01230 0.78730 0.27370 0.01500
C 	C 	0.01677 0.76425 0.32253 -0.04900
C 	C 	0.01600 0.73288 0.35330 0.00800
H 	H 	0.01830 0.73090 0.37410 0.03700
C 	C 	0.01191 0.70549 0.35259 -0.09600
H 	H 	0.01240 0.68360 0.37260 0.06400
C 	C 	0.00702 0.70928 0.32264 0.05400
H 	H 	0.00390 0.68990 0.32290 0.00000
C 	C 	0.01988 0.79532 0.32254 0.13300
N 	N 	0.02881 0.79073 0.34883 -0.15000
C 	C 	0.03087 0.82049 0.34669 0.13200
N 	N 	0.02426 0.85304 0.32092 -0.15100
C 	C 	0.01431 0.85487 0.29701 0.13400
N 	N 	0.01158 0.82700 0.29594 -0.14800
C 	C 	0.00356 0.89084 0.26976 -0.05000
C 	C 	0.00322 0.92066 0.27162 0.04200
H 	H 	0.00980 0.91720 0.29040 0.01100
N 	N 	0.99412 0.95372 0.24850 -0.22700
C 	C 	0.98492 0.95834 0.22196 0.05500
H 	H 	0.97870 0.98190 0.20490 0.00400
C 	C 	0.98422 0.92994 0.21868 -0.09500
H 	H 	0.97790 0.93410 0.19950 0.06600
C 	C 	0.99282 0.89546 0.24348 0.00700
H 	H 	0.99140 0.87580 0.24240 0.03900
N 	N 	0.03400 0.96430 0.28112 -0.26300
C 	C 	0.05684 0.94592 0.29304 0.10500
S 	S 	0.09081 0.91915 0.30885 -0.06100
N 	N 	0.04578 0.99344 0.20408 -0.22600
C 	C 	0.04769 0.02127 0.17251 0.03700
H 	H 	0.02840 0.04360 0.17200 0.01300
C 	C 	0.07659 0.01853 0.14087 -0.05100
C 	C 	0.10473 0.98473 0.14219 0.00900
H 	H 	0.12510 0.98190 0.12110 0.03700
C 	C 	0.10251 0.95663 0.17345 -0.09600
H 	H 	0.12090 0.93350 0.17430 0.06600
C 	C 	0.07341 0.96153 0.20435 0.05300
H 	H 	0.07280 0.94180 0.22660 0.00300
C 	C 	0.07779 0.05045 0.10737 0.13900
N 	N 	0.04786 0.07916 0.10780 -0.15500
S 	S 	0.45089 0.37929 0.96641 -0.06200
C 	C 	0.46061 0.33611 0.97629 0.09700
N 	N 	0.46815 0.30511 0.98441 -0.25900
N 	N 	0.43978 0.23930 0.03056 -0.22500
C 	C 	0.43576 0.20758 0.04266 0.06600
H 	H 	0.45650 0.18630 0.04410 -0.00200
C 	C 	0.40311 0.20371 0.05331 -0.10200
H 	H 	0.40170 0.18030 0.06230 0.06600
C 	C 	0.37252 0.23402 0.05078 0.00800
H 	H 	0.34990 0.23210 0.05750 0.03700
C 	C 	0.37649 0.26767 0.03777 -0.04700
C 	C 	0.41047 0.26867 0.02885 0.03700
H 	H 	0.41270 0.29150 0.02110 0.01100
N 	N 	0.29337 0.46045 0.00653 -0.22700
C 	C 	0.29432 0.42784 0.01188 0.03800
H 	H 	0.27370 0.42670 0.01230 0.01500
C 	C 	0.32253 0.39645 0.01677 -0.04900
C 	C 	0.35330 0.39782 0.01600 0.00800
H 	H 	0.37410 0.37670 0.01830 0.03700
C 	C 	0.35259 0.43001 0.01191 -0.09600
H 	H 	0.37260 0.43140 0.01240 0.06400
C 	C 	0.32264 0.46106 0.00702 0.05400
H 	H 	0.32290 0.48330 0.00390 0.00000
C 	C 	0.32254 0.36226 0.01988 0.13300
N 	N 	0.34883 0.33163 0.02881 -0.15000
C 	C 	0.34669 0.30195 0.03087 0.13200
N 	N 	0.32092 0.30178 0.02426 -0.15100
C 	C 	0.29701 0.33381 0.01431 0.13400
N 	N 	0.29594 0.36548 0.01158 -0.14800
C 	C 	0.26976 0.33584 0.00356 -0.04900
C 	C 	0.27162 0.30450 0.00322 0.04200
H 	H 	0.29040 0.28260 0.00980 0.01100
N 	N 	0.24850 0.30366 0.99412 -0.22700
C 	C 	0.22196 0.33478 0.98492 0.05500
H 	H 	0.20490 0.33450 0.97870 0.00400
C 	C 	0.21868 0.36716 0.98422 -0.09500
H 	H 	0.19950 0.38850 0.97790 0.06600
C 	C 	0.24348 0.36824 0.99282 0.00700
H 	H 	0.24240 0.39040 0.99140 0.03900
N 	N 	0.28112 0.22058 0.03400 -0.26300
C 	C 	0.29304 0.20420 0.05684 0.10500
S 	S 	0.30885 0.18119 0.09081 -0.06100
N 	N 	0.20408 0.25670 0.04578 -0.22600
C 	C 	0.17251 0.25853 0.04769 0.03700
H 	H 	0.17200 0.25600 0.02840 0.01300
C 	C 	0.14087 0.26401 0.07659 -0.05100
C 	C 	0.14219 0.26835 0.10473 0.00900
H 	H 	0.12110 0.27190 0.12510 0.03700
C 	C 	0.17345 0.26741 0.10251 -0.09600
H 	H 	0.17430 0.27130 0.12090 0.06600
C 	C 	0.20435 0.26071 0.07341 0.05300
H 	H 	0.22660 0.25880 0.07280 0.00300
C 	C 	0.10737 0.26439 0.07779 0.13900
N 	N 	0.10780 0.26518 0.04786 -0.15500
S 	S 	0.70341 0.96641 0.37929 -0.06200
C 	C 	0.72699 0.97629 0.33611 0.09700
N 	N 	0.74233 0.98441 0.30511 -0.25900
N 	N 	0.79036 0.03056 0.23930 -0.22500
C 	C 	0.81400 0.04266 0.20758 0.06600
H 	H 	0.81310 0.04410 0.18630 -0.00200
C 	C 	0.83987 0.05331 0.20371 -0.10200
H 	H 	0.85570 0.06230 0.18030 0.06600
C 	C 	0.84268 0.05078 0.23402 0.00800
H 	H 	0.86050 0.05750 0.23210 0.03700
C 	C 	0.81807 0.03777 0.26767 -0.04700
C 	C 	0.79201 0.02885 0.26867 0.03700
H 	H 	0.77470 0.02110 0.29150 0.01100
N 	N 	0.73965 0.00653 0.46045 -0.22700
C 	C 	0.76596 0.01188 0.42784 0.03800
H 	H 	0.78730 0.01230 0.42670 0.01500
C 	C 	0.76425 0.01677 0.39645 -0.04900
C 	C 	0.73288 0.01600 0.39782 0.00800
H 	H 	0.73090 0.01830 0.37670 0.03700
C 	C 	0.70549 0.01191 0.43001 -0.09600
H 	H 	0.68360 0.01240 0.43140 0.06400
C 	C 	0.70928 0.00702 0.46106 0.05400
H 	H 	0.68990 0.00390 0.48330 0.00000
C 	C 	0.79532 0.01988 0.36226 0.13300
N 	N 	0.79073 0.02881 0.33163 -0.15000
C 	C 	0.82049 0.03087 0.30195 0.13200
N 	N 	0.85304 0.02426 0.30178 -0.15100
C 	C 	0.85487 0.01431 0.33381 0.13400
N 	N 	0.82700 0.01158 0.36548 -0.14800
C 	C 	0.89084 0.00356 0.33584 -0.05000
C 	C 	0.92066 0.00322 0.30450 0.04200
H 	H 	0.91720 0.00980 0.28260 0.01100
N 	N 	0.95372 0.99412 0.30366 -0.22700
C 	C 	0.95834 0.98492 0.33478 0.05500
H 	H 	0.98190 0.97870 0.33450 0.00400
C 	C 	0.92994 0.98422 0.36716 -0.09500
H 	H 	0.93410 0.97790 0.38850 0.06600
C 	C 	0.89546 0.99282 0.36824 0.00700
H 	H 	0.87580 0.99140 0.39040 0.03900
N 	N 	0.96430 0.03400 0.22058 -0.26300
C 	C 	0.94592 0.05684 0.20420 0.10500
S 	S 	0.91915 0.09081 0.18119 -0.06100
N 	N 	0.99344 0.04578 0.25670 -0.22600
C 	C 	0.02127 0.04769 0.25853 0.03700
H 	H 	0.04360 0.02840 0.25600 0.01300
C 	C 	0.01853 0.07659 0.26401 -0.05100
C 	C 	0.98473 0.10473 0.26835 0.00900
H 	H 	0.98190 0.12510 0.27190 0.03700
C 	C 	0.95663 0.10251 0.26741 -0.09600
H 	H 	0.93350 0.12090 0.27130 0.06600
C 	C 	0.96153 0.07341 0.26071 0.05300
H 	H 	0.94180 0.07280 0.25880 0.00300
C 	C 	0.05045 0.07779 0.26439 0.13900
N 	N 	0.07916 0.04786 0.26518 -0.15500
S 	S 	0.37929 0.45089 0.70341 -0.06300
C 	C 	0.33611 0.46061 0.72699 0.09700
N 	N 	0.30511 0.46815 0.74233 -0.25900
N 	N 	0.23930 0.43978 0.79036 -0.22500
C 	C 	0.20758 0.43576 0.81400 0.06600
H 	H 	0.18630 0.45650 0.81310 -0.00200
C 	C 	0.20371 0.40311 0.83987 -0.10200
H 	H 	0.18030 0.40170 0.85570 0.06600
C 	C 	0.23402 0.37252 0.84268 0.00800
H 	H 	0.23210 0.34990 0.86050 0.03700
C 	C 	0.26767 0.37649 0.81807 -0.04700
C 	C 	0.26867 0.41047 0.79201 0.03700
H 	H 	0.29150 0.41270 0.77470 0.01100
N 	N 	0.46045 0.29337 0.73965 -0.22700
C 	C 	0.42784 0.29432 0.76596 0.03800
H 	H 	0.42670 0.27370 0.78730 0.01500
C 	C 	0.39645 0.32253 0.76425 -0.04900
C 	C 	0.39782 0.35330 0.73288 0.00800
H 	H 	0.37670 0.37410 0.73090 0.03700
C 	C 	0.43001 0.35259 0.70549 -0.09600
H 	H 	0.43140 0.37260 0.68360 0.06400
C 	C 	0.46106 0.32264 0.70928 0.05400
H 	H 	0.48330 0.32290 0.68990 0.00000
C 	C 	0.36226 0.32254 0.79532 0.13300
N 	N 	0.33163 0.34883 0.79073 -0.15000
C 	C 	0.30195 0.34669 0.82049 0.13200
N 	N 	0.30178 0.32092 0.85304 -0.15100
C 	C 	0.33381 0.29701 0.85487 0.13400
N 	N 	0.36548 0.29594 0.82700 -0.14800
C 	C 	0.33584 0.26976 0.89084 -0.05000
C 	C 	0.30450 0.27162 0.92066 0.04200
H 	H 	0.28260 0.29040 0.91720 0.01100
N 	N 	0.30366 0.24850 0.95372 -0.22700
C 	C 	0.33478 0.22196 0.95834 0.05500
H 	H 	0.33450 0.20490 0.98190 0.00400
C 	C 	0.36716 0.21868 0.92994 -0.09500
H 	H 	0.38850 0.19950 0.93410 0.06600
C 	C 	0.36824 0.24348 0.89546 0.00700
H 	H 	0.39040 0.24240 0.87580 0.03900
N 	N 	0.22058 0.28112 0.96430 -0.26300
C 	C 	0.20420 0.29304 0.94592 0.10500
S 	S 	0.18119 0.30885 0.91915 -0.06100
N 	N 	0.25670 0.20408 0.99344 -0.22600
C 	C 	0.25853 0.17251 0.02127 0.03700
H 	H 	0.25600 0.17200 0.04360 0.01300
C 	C 	0.26401 0.14087 0.01853 -0.05100
C 	C 	0.26835 0.14219 0.98473 0.00900
H 	H 	0.27190 0.12110 0.98190 0.03700
C 	C 	0.26741 0.17345 0.95663 -0.09600
H 	H 	0.27130 0.17430 0.93350 0.06600
C 	C 	0.26071 0.20435 0.96153 0.05300
H 	H 	0.25880 0.22660 0.94180 0.00300
C 	C 	0.26439 0.10737 0.05045 0.13900
N 	N 	0.26518 0.10780 0.07916 -0.15500
S 	S 	0.37929 0.96641 0.45089 -0.06200
C 	C 	0.33611 0.97629 0.46061 0.09700
N 	N 	0.30511 0.98441 0.46815 -0.25900
N 	N 	0.23930 0.03056 0.43978 -0.22500
C 	C 	0.20758 0.04266 0.43576 0.06600
H 	H 	0.18630 0.04410 0.45650 -0.00200
C 	C 	0.20371 0.05331 0.40311 -0.10200
H 	H 	0.18030 0.06230 0.40170 0.06600
C 	C 	0.23402 0.05078 0.37252 0.00800
H 	H 	0.23210 0.05750 0.34990 0.03700
C 	C 	0.26767 0.03777 0.37649 -0.04700
C 	C 	0.26867 0.02885 0.41047 0.03700
H 	H 	0.29150 0.02110 0.41270 0.01100
N 	N 	0.46045 0.00653 0.29337 -0.22700
C 	C 	0.42784 0.01188 0.29432 0.03800
H 	H 	0.42670 0.01230 0.27370 0.01500
C 	C 	0.39645 0.01677 0.32253 -0.04900
C 	C 	0.39782 0.01600 0.35330 0.00800
H 	H 	0.37670 0.01830 0.37410 0.03700
C 	C 	0.43001 0.01191 0.35259 -0.09600
H 	H 	0.43140 0.01240 0.37260 0.06400
C 	C 	0.46106 0.00702 0.32264 0.05400
H 	H 	0.48330 0.00390 0.32290 0.00000
C 	C 	0.36226 0.01988 0.32254 0.13300
N 	N 	0.33163 0.02881 0.34883 -0.15000
C 	C 	0.30195 0.03087 0.34669 0.13200
N 	N 	0.30178 0.02426 0.32092 -0.15100
C 	C 	0.33381 0.01431 0.29701 0.13400
N 	N 	0.36548 0.01158 0.29594 -0.14800
C 	C 	0.33584 0.00356 0.26976 -0.04900
C 	C 	0.30450 0.00322 0.27162 0.04200
H 	H 	0.28260 0.00980 0.29040 0.01100
N 	N 	0.30366 0.99412 0.24850 -0.22700
C 	C 	0.33478 0.98492 0.22196 0.05500
H 	H 	0.33450 0.97870 0.20490 0.00400
C 	C 	0.36716 0.98422 0.21868 -0.09500
H 	H 	0.38850 0.97790 0.19950 0.06600
C 	C 	0.36824 0.99282 0.24348 0.00700
H 	H 	0.39040 0.99140 0.24240 0.03900
N 	N 	0.22058 0.03400 0.28112 -0.26300
C 	C 	0.20420 0.05684 0.29304 0.10500
S 	S 	0.18119 0.09081 0.30885 -0.06100
N 	N 	0.25670 0.04578 0.20408 -0.22600
C 	C 	0.25853 0.04769 0.17251 0.03700
H 	H 	0.25600 0.02840 0.17200 0.01300
C 	C 	0.26401 0.07659 0.14087 -0.05100
C 	C 	0.26835 0.10473 0.14219 0.00900
H 	H 	0.27190 0.12510 0.12110 0.03700
C 	C 	0.26741 0.10251 0.17345 -0.09600
H 	H 	0.27130 0.12090 0.17430 0.06600
C 	C 	0.26071 0.07341 0.20435 0.05300
H 	H 	0.25880 0.07280 0.22660 0.00300
C 	C 	0.26439 0.07779 0.10737 0.13900
N 	N 	0.26518 0.04786 0.10780 -0.15500
S 	S 	0.70341 0.45089 0.96641 -0.06200
C 	C 	0.72699 0.46061 0.97629 0.09700
N 	N 	0.74233 0.46815 0.98441 -0.25900
N 	N 	0.79036 0.43978 0.03056 -0.22500
C 	C 	0.81400 0.43576 0.04266 0.06600
H 	H 	0.81310 0.45650 0.04410 -0.00200
C 	C 	0.83987 0.40311 0.05331 -0.10200
H 	H 	0.85570 0.40170 0.06230 0.06600
C 	C 	0.84268 0.37252 0.05078 0.00800
H 	H 	0.86050 0.34990 0.05750 0.03700
C 	C 	0.81807 0.37649 0.03777 -0.04700
C 	C 	0.79201 0.41047 0.02885 0.03700
H 	H 	0.77470 0.41270 0.02110 0.01100
N 	N 	0.73965 0.29337 0.00653 -0.22700
C 	C 	0.76596 0.29432 0.01188 0.03800
H 	H 	0.78730 0.27370 0.01230 0.01500
C 	C 	0.76425 0.32253 0.01677 -0.04900
C 	C 	0.73288 0.35330 0.01600 0.00800
H 	H 	0.73090 0.37410 0.01830 0.03700
C 	C 	0.70549 0.35259 0.01191 -0.09600
H 	H 	0.68360 0.37260 0.01240 0.06400
C 	C 	0.70928 0.32264 0.00702 0.05400
H 	H 	0.68990 0.32290 0.00390 0.00000
C 	C 	0.79532 0.32254 0.01988 0.13300
N 	N 	0.79073 0.34883 0.02881 -0.15000
C 	C 	0.82049 0.34669 0.03087 0.13200
N 	N 	0.85304 0.32092 0.02426 -0.15100
C 	C 	0.85487 0.29701 0.01431 0.13400
N 	N 	0.82700 0.29594 0.01158 -0.14800
C 	C 	0.89084 0.26976 0.00356 -0.05000
C 	C 	0.92066 0.27162 0.00322 0.04200
H 	H 	0.91720 0.29040 0.00980 0.01100
N 	N 	0.95372 0.24850 0.99412 -0.22700
C 	C 	0.95834 0.22196 0.98492 0.05500
H 	H 	0.98190 0.20490 0.97870 0.00400
C 	C 	0.92994 0.21868 0.98422 -0.09500
H 	H 	0.93410 0.19950 0.97790 0.06600
C 	C 	0.89546 0.24348 0.99282 0.00700
H 	H 	0.87580 0.24240 0.99140 0.03900
N 	N 	0.96430 0.28112 0.03400 -0.26300
C 	C 	0.94592 0.29304 0.05684 0.10500
S 	S 	0.91915 0.30885 0.09081 -0.06100
N 	N 	0.99344 0.20408 0.04578 -0.22600
C 	C 	0.02127 0.17251 0.04769 0.03700
H 	H 	0.04360 0.17200 0.02840 0.01300
C 	C 	0.01853 0.14087 0.07659 -0.05100
C 	C 	0.98473 0.14219 0.10473 0.00900
H 	H 	0.98190 0.12110 0.12510 0.03700
C 	C 	0.95663 0.17345 0.10251 -0.09600
H 	H 	0.93350 0.17430 0.12090 0.06600
C 	C 	0.96153 0.20435 0.07341 0.05300
H 	H 	0.94180 0.22660 0.07280 0.00300
C 	C 	0.05045 0.10737 0.07779 0.13900
N 	N 	0.07916 0.10780 0.04786 -0.15500
S 	S 	0.45089 0.70341 0.37929 -0.06300
C 	C 	0.46061 0.72699 0.33611 0.09700
N 	N 	0.46815 0.74233 0.30511 -0.25900
N 	N 	0.43978 0.79036 0.23930 -0.22500
C 	C 	0.43576 0.81400 0.20758 0.06600
H 	H 	0.45650 0.81310 0.18630 -0.00200
C 	C 	0.40311 0.83987 0.20371 -0.10200
H 	H 	0.40170 0.85570 0.18030 0.06600
C 	C 	0.37252 0.84268 0.23402 0.00800
H 	H 	0.34990 0.86050 0.23210 0.03700
C 	C 	0.37649 0.81807 0.26767 -0.04700
C 	C 	0.41047 0.79201 0.26867 0.03700
H 	H 	0.41270 0.77470 0.29150 0.01100
N 	N 	0.29337 0.73965 0.46045 -0.22700
C 	C 	0.29432 0.76596 0.42784 0.03800
H 	H 	0.27370 0.78730 0.42670 0.01500
C 	C 	0.32253 0.76425 0.39645 -0.04900
C 	C 	0.35330 0.73288 0.39782 0.00800
H 	H 	0.37410 0.73090 0.37670 0.03700
C 	C 	0.35259 0.70549 0.43001 -0.09600
H 	H 	0.37260 0.68360 0.43140 0.06400
C 	C 	0.32264 0.70928 0.46106 0.05400
H 	H 	0.32290 0.68990 0.48330 0.00000
C 	C 	0.32254 0.79532 0.36226 0.13300
N 	N 	0.34883 0.79073 0.33163 -0.15000
C 	C 	0.34669 0.82049 0.30195 0.13200
N 	N 	0.32092 0.85304 0.30178 -0.15100
C 	C 	0.29701 0.85487 0.33381 0.13400
N 	N 	0.29594 0.82700 0.36548 -0.14800
C 	C 	0.26976 0.89084 0.33584 -0.05000
C 	C 	0.27162 0.92066 0.30450 0.04200
H 	H 	0.29040 0.91720 0.28260 0.01100
N 	N 	0.24850 0.95372 0.30366 -0.22700
C 	C 	0.22196 0.95834 0.33478 0.05500
H 	H 	0.20490 0.98190 0.33450 0.00400
C 	C 	0.21868 0.92994 0.36716 -0.09500
H 	H 	0.19950 0.93410 0.38850 0.06600
C 	C 	0.24348 0.89546 0.36824 0.00700
H 	H 	0.24240 0.87580 0.39040 0.03900
N 	N 	0.28112 0.96430 0.22058 -0.26300
C 	C 	0.29304 0.94592 0.20420 0.10500
S 	S 	0.30885 0.91915 0.18119 -0.06100
N 	N 	0.20408 0.99344 0.25670 -0.22600
C 	C 	0.17251 0.02127 0.25853 0.03700
H 	H 	0.17200 0.04360 0.25600 0.01300
C 	C 	0.14087 0.01853 0.26401 -0.05100
C 	C 	0.14219 0.98473 0.26835 0.00900
H 	H 	0.12110 0.98190 0.27190 0.03700
C 	C 	0.17345 0.95663 0.26741 -0.09600
H 	H 	0.17430 0.93350 0.27130 0.06600
C 	C 	0.20435 0.96153 0.26071 0.05300
H 	H 	0.22660 0.94180 0.25880 0.00300
C 	C 	0.10737 0.05045 0.26439 0.13900
N 	N 	0.10780 0.07916 0.26518 -0.15500
S 	S 	0.96641 0.37929 0.70341 -0.06200
C 	C 	0.97629 0.33611 0.72699 0.09700
N 	N 	0.98441 0.30511 0.74233 -0.25900
N 	N 	0.03056 0.23930 0.79036 -0.22500
C 	C 	0.04266 0.20758 0.81400 0.06600
H 	H 	0.04410 0.18630 0.81310 -0.00200
C 	C 	0.05331 0.20371 0.83987 -0.10200
H 	H 	0.06230 0.18030 0.85570 0.06600
C 	C 	0.05078 0.23402 0.84268 0.00800
H 	H 	0.05750 0.23210 0.86050 0.03700
C 	C 	0.03777 0.26767 0.81807 -0.04700
C 	C 	0.02885 0.26867 0.79201 0.03700
H 	H 	0.02110 0.29150 0.77470 0.01100
N 	N 	0.00653 0.46045 0.73965 -0.22700
C 	C 	0.01188 0.42784 0.76596 0.03800
H 	H 	0.01230 0.42670 0.78730 0.01500
C 	C 	0.01677 0.39645 0.76425 -0.04900
C 	C 	0.01600 0.39782 0.73288 0.00800
H 	H 	0.01830 0.37670 0.73090 0.03700
C 	C 	0.01191 0.43001 0.70549 -0.09600
H 	H 	0.01240 0.43140 0.68360 0.06400
C 	C 	0.00702 0.46106 0.70928 0.05400
H 	H 	0.00390 0.48330 0.68990 0.00000
C 	C 	0.01988 0.36226 0.79532 0.13300
N 	N 	0.02881 0.33163 0.79073 -0.15000
C 	C 	0.03087 0.30195 0.82049 0.13200
N 	N 	0.02426 0.30178 0.85304 -0.15100
C 	C 	0.01431 0.33381 0.85487 0.13400
N 	N 	0.01158 0.36548 0.82700 -0.14800
C 	C 	0.00356 0.33584 0.89084 -0.05000
C 	C 	0.00322 0.30450 0.92066 0.04200
H 	H 	0.00980 0.28260 0.91720 0.01100
N 	N 	0.99412 0.30366 0.95372 -0.22700
C 	C 	0.98492 0.33478 0.95834 0.05500
H 	H 	0.97870 0.33450 0.98190 0.00400
C 	C 	0.98422 0.36716 0.92994 -0.09500
H 	H 	0.97790 0.38850 0.93410 0.06600
C 	C 	0.99282 0.36824 0.89546 0.00700
H 	H 	0.99140 0.39040 0.87580 0.03900
N 	N 	0.03400 0.22058 0.96430 -0.26300
C 	C 	0.05684 0.20420 0.94592 0.10500
S 	S 	0.09081 0.18119 0.91915 -0.06100
N 	N 	0.04578 0.25670 0.99344 -0.22600
C 	C 	0.04769 0.25853 0.02127 0.03700
H 	H 	0.02840 0.25600 0.04360 0.01300
C 	C 	0.07659 0.26401 0.01853 -0.05100
C 	C 	0.10473 0.26835 0.98473 0.00900
H 	H 	0.12510 0.27190 0.98190 0.03700
C 	C 	0.10251 0.26741 0.95663 -0.09600
H 	H 	0.12090 0.27130 0.93350 0.06600
C 	C 	0.07341 0.26071 0.96153 0.05300
H 	H 	0.07280 0.25880 0.94180 0.00300
C 	C 	0.07779 0.26439 0.05045 0.13900
N 	N 	0.04786 0.26518 0.07916 -0.15500
Co	Co	0.25000 0.75000 0.50944 1.12100
Co	Co	0.75000 0.25000 0.99056 1.12100
Co	Co	0.50944 0.99056 0.25000 1.12100
Co	Co	0.99056 0.50944 0.75000 1.12100
Co	Co	0.50944 0.25000 0.75000 1.12100
Co	Co	0.99056 0.75000 0.25000 1.12100
Co	Co	0.25000 0.50944 0.99056 1.12100
Co	Co	0.75000 0.99056 0.50944 1.12100
Co	Co	0.75000 0.50944 0.25000 1.12100
Co	Co	0.25000 0.99056 0.75000 1.12100
Co	Co	0.99056 0.25000 0.50944 1.12100
Co	Co	0.50944 0.75000 0.99056 1.12100
Co	Co	0.75000 0.25000 0.49056 1.12100
Co	Co	0.25000 0.75000 0.00944 1.12100
Co	Co	0.49056 0.00944 0.75000 1.12100
Co	Co	0.00944 0.49056 0.25000 1.12100
Co	Co	0.49056 0.75000 0.25000 1.12100
Co	Co	0.00944 0.25000 0.75000 1.12100
Co	Co	0.75000 0.49056 0.00944 1.12100
Co	Co	0.25000 0.00944 0.49056 1.12100
Co	Co	0.25000 0.49056 0.75000 1.12100
Co	Co	0.75000 0.00944 0.25000 1.12100
Co	Co	0.00944 0.75000 0.49056 1.12100
Co	Co	0.49056 0.25000 0.00944 1.12100
Co	Co	0.49790 0.75210 0.49790 1.12200
Co	Co	0.75210 0.49790 0.75210 1.12200
Co	Co	0.49790 0.49790 0.75210 1.12200
Co	Co	0.75210 0.75210 0.49790 1.12200
Co	Co	0.75210 0.49790 0.49790 1.12200
Co	Co	0.49790 0.75210 0.75210 1.12200
Co	Co	0.00210 0.74790 0.74790 1.12200
Co	Co	0.74790 0.00210 0.00210 1.12200
Co	Co	0.00210 0.00210 0.74790 1.12200
Co	Co	0.74790 0.74790 0.00210 1.12200
Co	Co	0.74790 0.00210 0.74790 1.12200
Co	Co	0.00210 0.74790 0.00210 1.12200
Co	Co	0.50210 0.24790 0.50210 1.12200
Co	Co	0.24790 0.50210 0.24790 1.12200
Co	Co	0.50210 0.50210 0.24790 1.12200
Co	Co	0.24790 0.24790 0.50210 1.12200
Co	Co	0.24790 0.50210 0.50210 1.12200
Co	Co	0.50210 0.24790 0.24790 1.12200
Co	Co	0.99790 0.25210 0.25210 1.12200
Co	Co	0.25210 0.99790 0.99790 1.12200
Co	Co	0.99790 0.99790 0.25210 1.12200
Co	Co	0.25210 0.25210 0.99790 1.12200
Co	Co	0.25210 0.99790 0.25210 1.12200
Co	Co	0.99790 0.25210 0.99790 1.12200
