data_crystal

_cell_length_a 63.89530
_cell_length_b 63.89530
_cell_length_c 63.89530
_cell_angle_alpha 90.00000
_cell_angle_beta  90.00000
_cell_angle_gamma 90.00000

_symmetry_space_group_name_	'P 1'
_symmetry_space_group_name_H-M	'P 1'

loop_
_symmetry_equiv_pos_as_xyz
  x,y,z

loop_
_atom_site_label
_atom_site_type_symbol
_atom_site_fract_x
_atom_site_fract_y
_atom_site_fract_z
_atom_site_charge
C 	C 	0.40972 0.60258 0.21989 0.03400
H 	H 	0.39760 0.59440 0.21730 0.01500
C 	C 	0.42742 0.59914 0.20750 -0.04500
C 	C 	0.44523 0.61072 0.21138 0.00700
H 	H 	0.45740 0.60920 0.20300 0.03900
C 	C 	0.44486 0.62482 0.22810 -0.09900
H 	H 	0.45710 0.63240 0.23180 0.06700
C 	C 	0.42686 0.62758 0.23907 0.06200
H 	H 	0.42680 0.63760 0.25010 0.00100
C 	C 	0.39774 0.53338 0.09533 0.09900
C 	C 	0.36148 0.51321 0.16843 0.05800
H 	H 	0.35060 0.50320 0.16710 0.00100
C 	C 	0.36260 0.52462 0.18666 -0.09500
H 	H 	0.35310 0.52200 0.19780 0.06400
C 	C 	0.37779 0.54007 0.18858 0.00500
H 	H 	0.37840 0.54870 0.20070 0.03900
C 	C 	0.39210 0.54249 0.17226 -0.04400
C 	C 	0.39026 0.53001 0.15472 0.03200
H 	H 	0.40020 0.53170 0.14380 0.01800
C 	C 	0.40868 0.55877 0.17282 0.13500
C 	C 	0.42567 0.58461 0.18970 0.13400
C 	C 	0.43511 0.57589 0.15684 0.13400
C 	C 	0.46232 0.59601 0.13822 0.04000
H 	H 	0.46370 0.60420 0.15060 0.01300
C 	C 	0.44779 0.57952 0.13815 -0.05000
C 	C 	0.44589 0.56735 0.12040 0.01000
H 	H 	0.43600 0.55620 0.11970 0.03800
C 	C 	0.45891 0.57192 0.10358 -0.09900
H 	H 	0.45840 0.56360 0.09130 0.06800
C 	C 	0.47254 0.58860 0.10489 0.06200
H 	H 	0.48110 0.59160 0.09310 0.00200
C 	C 	0.51763 0.58301 0.13862 0.06400
H 	H 	0.50700 0.58410 0.14890 0.00000
C 	C 	0.52940 0.56540 0.13834 -0.10200
H 	H 	0.52690 0.55450 0.14810 0.06900
C 	C 	0.54530 0.56360 0.12333 0.01000
H 	H 	0.55410 0.55160 0.12290 0.03800
C 	C 	0.54783 0.57984 0.10924 -0.05100
C 	C 	0.53502 0.59731 0.11085 0.04300
H 	H 	0.53700 0.60850 0.10130 0.01200
C 	C 	0.56441 0.57908 0.09302 0.13600
C 	C 	0.50059 0.62611 0.07478 0.10900
N 	N 	0.40904 0.61692 0.23525 -0.22200
N 	N 	0.38715 0.52446 0.10699 -0.26000
N 	N 	0.37497 0.51551 0.15242 -0.22300
N 	N 	0.42040 0.56091 0.15582 -0.15000
N 	N 	0.41034 0.57025 0.19029 -0.14900
N 	N 	0.43887 0.58763 0.17387 -0.15000
N 	N 	0.47432 0.60075 0.12185 -0.22800
N 	N 	0.49881 0.62676 0.09238 -0.26300
N 	N 	0.52009 0.59897 0.12524 -0.22800
N 	N 	0.57831 0.56397 0.09428 -0.15100
S 	S 	0.41304 0.54463 0.07812 -0.05800
S 	S 	0.50216 0.62346 0.04928 -0.06100
C 	C 	0.40972 0.10258 0.71989 0.03400
H 	H 	0.39760 0.09440 0.71730 0.01500
C 	C 	0.42742 0.09914 0.70750 -0.04500
C 	C 	0.44523 0.11072 0.71138 0.00700
H 	H 	0.45740 0.10920 0.70300 0.03900
C 	C 	0.44486 0.12482 0.72810 -0.09900
H 	H 	0.45710 0.13240 0.73180 0.06700
C 	C 	0.42686 0.12758 0.73907 0.06200
H 	H 	0.42680 0.13760 0.75010 0.00100
C 	C 	0.39774 0.03338 0.59533 0.09900
C 	C 	0.36148 0.01321 0.66843 0.05800
H 	H 	0.35060 0.00320 0.66710 0.00100
C 	C 	0.36260 0.02462 0.68666 -0.09500
H 	H 	0.35310 0.02200 0.69780 0.06400
C 	C 	0.37779 0.04007 0.68858 0.00500
H 	H 	0.37840 0.04870 0.70070 0.03900
C 	C 	0.39210 0.04249 0.67226 -0.04400
C 	C 	0.39026 0.03001 0.65472 0.03200
H 	H 	0.40020 0.03170 0.64380 0.01800
C 	C 	0.40868 0.05877 0.67282 0.13500
C 	C 	0.42567 0.08461 0.68970 0.13400
C 	C 	0.43511 0.07589 0.65684 0.13400
C 	C 	0.46232 0.09601 0.63822 0.04000
H 	H 	0.46370 0.10420 0.65060 0.01300
C 	C 	0.44779 0.07952 0.63815 -0.05000
C 	C 	0.44589 0.06735 0.62040 0.01000
H 	H 	0.43600 0.05620 0.61970 0.03800
C 	C 	0.45891 0.07192 0.60358 -0.09900
H 	H 	0.45840 0.06360 0.59130 0.06800
C 	C 	0.47254 0.08860 0.60489 0.06200
H 	H 	0.48110 0.09160 0.59310 0.00200
C 	C 	0.51763 0.08301 0.63862 0.06400
H 	H 	0.50700 0.08410 0.64890 0.00000
C 	C 	0.52940 0.06540 0.63834 -0.10200
H 	H 	0.52690 0.05450 0.64810 0.06900
C 	C 	0.54530 0.06360 0.62333 0.01000
H 	H 	0.55410 0.05160 0.62290 0.03800
C 	C 	0.54783 0.07984 0.60924 -0.05100
C 	C 	0.53502 0.09731 0.61085 0.04300
H 	H 	0.53700 0.10850 0.60130 0.01200
C 	C 	0.56441 0.07908 0.59302 0.13600
C 	C 	0.50059 0.12611 0.57478 0.10900
N 	N 	0.40904 0.11692 0.73525 -0.22200
N 	N 	0.38715 0.02446 0.60699 -0.26000
N 	N 	0.37497 0.01551 0.65242 -0.22300
N 	N 	0.42040 0.06091 0.65582 -0.15000
N 	N 	0.41034 0.07025 0.69029 -0.14900
N 	N 	0.43887 0.08763 0.67387 -0.15000
N 	N 	0.47432 0.10075 0.62185 -0.22800
N 	N 	0.49881 0.12676 0.59238 -0.26300
N 	N 	0.52009 0.09897 0.62524 -0.22800
N 	N 	0.57831 0.06397 0.59428 -0.15100
S 	S 	0.41304 0.04463 0.57812 -0.05800
S 	S 	0.50216 0.12346 0.54928 -0.06100
C 	C 	0.90972 0.60258 0.71989 0.03400
H 	H 	0.89760 0.59440 0.71730 0.01500
C 	C 	0.92742 0.59914 0.70750 -0.04500
C 	C 	0.94523 0.61072 0.71138 0.00700
H 	H 	0.95740 0.60920 0.70300 0.03900
C 	C 	0.94486 0.62482 0.72810 -0.09900
H 	H 	0.95710 0.63240 0.73180 0.06700
C 	C 	0.92686 0.62758 0.73907 0.06200
H 	H 	0.92680 0.63760 0.75010 0.00100
C 	C 	0.89774 0.53338 0.59533 0.09900
C 	C 	0.86148 0.51321 0.66843 0.05800
H 	H 	0.85060 0.50320 0.66710 0.00100
C 	C 	0.86260 0.52462 0.68666 -0.09500
H 	H 	0.85310 0.52200 0.69780 0.06400
C 	C 	0.87779 0.54007 0.68858 0.00500
H 	H 	0.87840 0.54870 0.70070 0.03900
C 	C 	0.89210 0.54249 0.67226 -0.04400
C 	C 	0.89026 0.53001 0.65472 0.03200
H 	H 	0.90020 0.53170 0.64380 0.01800
C 	C 	0.90868 0.55877 0.67282 0.13500
C 	C 	0.92567 0.58461 0.68970 0.13400
C 	C 	0.93511 0.57589 0.65684 0.13400
C 	C 	0.96232 0.59601 0.63822 0.04000
H 	H 	0.96370 0.60420 0.65060 0.01300
C 	C 	0.94779 0.57952 0.63815 -0.05000
C 	C 	0.94589 0.56735 0.62040 0.01000
H 	H 	0.93600 0.55620 0.61970 0.03800
C 	C 	0.95891 0.57192 0.60358 -0.09900
H 	H 	0.95840 0.56360 0.59130 0.06800
C 	C 	0.97254 0.58860 0.60489 0.06200
H 	H 	0.98110 0.59160 0.59310 0.00200
C 	C 	0.01763 0.58301 0.63862 0.06400
H 	H 	0.00700 0.58410 0.64890 0.00000
C 	C 	0.02940 0.56540 0.63834 -0.10200
H 	H 	0.02690 0.55450 0.64810 0.06900
C 	C 	0.04530 0.56360 0.62333 0.01000
H 	H 	0.05410 0.55160 0.62290 0.03800
C 	C 	0.04783 0.57984 0.60924 -0.05100
C 	C 	0.03502 0.59731 0.61085 0.04300
H 	H 	0.03700 0.60850 0.60130 0.01200
C 	C 	0.06441 0.57908 0.59302 0.13600
C 	C 	0.00059 0.62611 0.57478 0.10900
N 	N 	0.90904 0.61692 0.73525 -0.22200
N 	N 	0.88715 0.52446 0.60699 -0.26000
N 	N 	0.87497 0.51551 0.65242 -0.22300
N 	N 	0.92040 0.56091 0.65582 -0.15000
N 	N 	0.91034 0.57025 0.69029 -0.14900
N 	N 	0.93887 0.58763 0.67387 -0.15000
N 	N 	0.97432 0.60075 0.62185 -0.22800
N 	N 	0.99881 0.62676 0.59238 -0.26300
N 	N 	0.02009 0.59897 0.62524 -0.22800
N 	N 	0.07831 0.56397 0.59428 -0.15100
S 	S 	0.91304 0.54463 0.57812 -0.05800
S 	S 	0.00216 0.62346 0.54928 -0.06100
C 	C 	0.90972 0.10258 0.21989 0.03400
H 	H 	0.89760 0.09440 0.21730 0.01500
C 	C 	0.92742 0.09914 0.20750 -0.04500
C 	C 	0.94523 0.11072 0.21138 0.00700
H 	H 	0.95740 0.10920 0.20300 0.03900
C 	C 	0.94486 0.12482 0.22810 -0.09900
H 	H 	0.95710 0.13240 0.23180 0.06700
C 	C 	0.92686 0.12758 0.23907 0.06200
H 	H 	0.92680 0.13760 0.25010 0.00100
C 	C 	0.89774 0.03338 0.09533 0.09900
C 	C 	0.86148 0.01321 0.16843 0.05800
H 	H 	0.85060 0.00320 0.16710 0.00100
C 	C 	0.86260 0.02462 0.18666 -0.09500
H 	H 	0.85310 0.02200 0.19780 0.06400
C 	C 	0.87779 0.04007 0.18858 0.00500
H 	H 	0.87840 0.04870 0.20070 0.03900
C 	C 	0.89210 0.04249 0.17226 -0.04400
C 	C 	0.89026 0.03001 0.15472 0.03200
H 	H 	0.90020 0.03170 0.14380 0.01800
C 	C 	0.90868 0.05877 0.17282 0.13500
C 	C 	0.92567 0.08461 0.18970 0.13400
C 	C 	0.93511 0.07589 0.15684 0.13400
C 	C 	0.96232 0.09601 0.13822 0.04000
H 	H 	0.96370 0.10420 0.15060 0.01300
C 	C 	0.94779 0.07952 0.13815 -0.05000
C 	C 	0.94589 0.06735 0.12040 0.01000
H 	H 	0.93600 0.05620 0.11970 0.03800
C 	C 	0.95891 0.07192 0.10358 -0.09900
H 	H 	0.95840 0.06360 0.09130 0.06800
C 	C 	0.97254 0.08860 0.10489 0.06200
H 	H 	0.98110 0.09160 0.09310 0.00200
C 	C 	0.01763 0.08301 0.13862 0.06400
H 	H 	0.00700 0.08410 0.14890 0.00000
C 	C 	0.02940 0.06540 0.13834 -0.10200
H 	H 	0.02690 0.05450 0.14810 0.06900
C 	C 	0.04530 0.06360 0.12333 0.01000
H 	H 	0.05410 0.05160 0.12290 0.03800
C 	C 	0.04783 0.07984 0.10924 -0.05100
C 	C 	0.03502 0.09731 0.11085 0.04300
H 	H 	0.03700 0.10850 0.10130 0.01200
C 	C 	0.06441 0.07908 0.09302 0.13600
C 	C 	0.00059 0.12611 0.07478 0.10900
N 	N 	0.90904 0.11692 0.23525 -0.22200
N 	N 	0.88715 0.02446 0.10699 -0.26000
N 	N 	0.87497 0.01551 0.15242 -0.22300
N 	N 	0.92040 0.06091 0.15582 -0.15000
N 	N 	0.91034 0.07025 0.19029 -0.14900
N 	N 	0.93887 0.08763 0.17387 -0.15000
N 	N 	0.97432 0.10075 0.12185 -0.22800
N 	N 	0.99881 0.12676 0.09238 -0.26300
N 	N 	0.02009 0.09897 0.12524 -0.22800
N 	N 	0.07831 0.06397 0.09428 -0.15100
S 	S 	0.91304 0.04463 0.07812 -0.05800
S 	S 	0.00216 0.12346 0.04928 -0.06100
C 	C 	0.84028 0.14742 0.71989 0.03400
H 	H 	0.85240 0.15560 0.71730 0.01500
C 	C 	0.82258 0.15086 0.70750 -0.04500
C 	C 	0.80477 0.13928 0.71138 0.00700
H 	H 	0.79260 0.14080 0.70300 0.03900
C 	C 	0.80514 0.12518 0.72810 -0.09900
H 	H 	0.79290 0.11760 0.73180 0.06700
C 	C 	0.82314 0.12242 0.73907 0.06200
H 	H 	0.82320 0.11240 0.75010 0.00100
C 	C 	0.85226 0.21662 0.59533 0.09900
C 	C 	0.88852 0.23679 0.66843 0.05800
H 	H 	0.89940 0.24680 0.66710 0.00100
C 	C 	0.88740 0.22538 0.68666 -0.09500
H 	H 	0.89690 0.22800 0.69780 0.06400
C 	C 	0.87221 0.20993 0.68858 0.00500
H 	H 	0.87160 0.20130 0.70070 0.03900
C 	C 	0.85790 0.20751 0.67226 -0.04400
C 	C 	0.85974 0.21999 0.65472 0.03200
H 	H 	0.84980 0.21830 0.64380 0.01800
C 	C 	0.84132 0.19123 0.67282 0.13500
C 	C 	0.82433 0.16539 0.68970 0.13400
C 	C 	0.81489 0.17411 0.65684 0.13400
C 	C 	0.78768 0.15399 0.63822 0.04000
H 	H 	0.78630 0.14580 0.65060 0.01300
C 	C 	0.80221 0.17048 0.63815 -0.05000
C 	C 	0.80411 0.18265 0.62040 0.01000
H 	H 	0.81400 0.19380 0.61970 0.03800
C 	C 	0.79109 0.17808 0.60358 -0.09900
H 	H 	0.79160 0.18640 0.59130 0.06800
C 	C 	0.77746 0.16140 0.60489 0.06200
H 	H 	0.76890 0.15840 0.59310 0.00200
C 	C 	0.73237 0.16699 0.63862 0.06400
H 	H 	0.74300 0.16590 0.64890 0.00000
C 	C 	0.72060 0.18460 0.63834 -0.10200
H 	H 	0.72310 0.19550 0.64810 0.06900
C 	C 	0.70470 0.18640 0.62333 0.01000
H 	H 	0.69590 0.19840 0.62290 0.03800
C 	C 	0.70217 0.17016 0.60924 -0.05100
C 	C 	0.71498 0.15269 0.61085 0.04300
H 	H 	0.71300 0.14150 0.60130 0.01200
C 	C 	0.68559 0.17092 0.59302 0.13600
C 	C 	0.74941 0.12389 0.57478 0.10900
N 	N 	0.84096 0.13308 0.73525 -0.22200
N 	N 	0.86285 0.22554 0.60699 -0.26000
N 	N 	0.87503 0.23449 0.65242 -0.22300
N 	N 	0.82960 0.18909 0.65582 -0.15000
N 	N 	0.83966 0.17975 0.69029 -0.14900
N 	N 	0.81113 0.16237 0.67387 -0.15000
N 	N 	0.77568 0.14925 0.62185 -0.22800
N 	N 	0.75119 0.12324 0.59238 -0.26300
N 	N 	0.72991 0.15103 0.62524 -0.22800
N 	N 	0.67169 0.18603 0.59428 -0.15100
S 	S 	0.83696 0.20537 0.57812 -0.05800
S 	S 	0.74784 0.12654 0.54928 -0.06100
C 	C 	0.84028 0.64742 0.21989 0.03400
H 	H 	0.85240 0.65560 0.21730 0.01500
C 	C 	0.82258 0.65086 0.20750 -0.04500
C 	C 	0.80477 0.63928 0.21138 0.00700
H 	H 	0.79260 0.64080 0.20300 0.03900
C 	C 	0.80514 0.62518 0.22810 -0.09900
H 	H 	0.79290 0.61760 0.23180 0.06700
C 	C 	0.82314 0.62242 0.23907 0.06200
H 	H 	0.82320 0.61240 0.25010 0.00100
C 	C 	0.85226 0.71662 0.09533 0.09900
C 	C 	0.88852 0.73679 0.16843 0.05800
H 	H 	0.89940 0.74680 0.16710 0.00100
C 	C 	0.88740 0.72538 0.18666 -0.09500
H 	H 	0.89690 0.72800 0.19780 0.06400
C 	C 	0.87221 0.70993 0.18858 0.00500
H 	H 	0.87160 0.70130 0.20070 0.03900
C 	C 	0.85790 0.70751 0.17226 -0.04400
C 	C 	0.85974 0.71999 0.15472 0.03200
H 	H 	0.84980 0.71830 0.14380 0.01800
C 	C 	0.84132 0.69123 0.17282 0.13500
C 	C 	0.82433 0.66539 0.18970 0.13400
C 	C 	0.81489 0.67411 0.15684 0.13400
C 	C 	0.78768 0.65399 0.13822 0.04000
H 	H 	0.78630 0.64580 0.15060 0.01300
C 	C 	0.80221 0.67048 0.13815 -0.05000
C 	C 	0.80411 0.68265 0.12040 0.01000
H 	H 	0.81400 0.69380 0.11970 0.03800
C 	C 	0.79109 0.67808 0.10358 -0.09900
H 	H 	0.79160 0.68640 0.09130 0.06800
C 	C 	0.77746 0.66140 0.10489 0.06200
H 	H 	0.76890 0.65840 0.09310 0.00200
C 	C 	0.73237 0.66699 0.13862 0.06400
H 	H 	0.74300 0.66590 0.14890 0.00000
C 	C 	0.72060 0.68460 0.13834 -0.10200
H 	H 	0.72310 0.69550 0.14810 0.06900
C 	C 	0.70470 0.68640 0.12333 0.01000
H 	H 	0.69590 0.69840 0.12290 0.03800
C 	C 	0.70217 0.67016 0.10924 -0.05100
C 	C 	0.71498 0.65269 0.11085 0.04300
H 	H 	0.71300 0.64150 0.10130 0.01200
C 	C 	0.68559 0.67092 0.09302 0.13600
C 	C 	0.74941 0.62389 0.07478 0.10900
N 	N 	0.84096 0.63308 0.23525 -0.22200
N 	N 	0.86285 0.72554 0.10699 -0.26000
N 	N 	0.87503 0.73449 0.15242 -0.22300
N 	N 	0.82960 0.68909 0.15582 -0.15000
N 	N 	0.83966 0.67975 0.19029 -0.14900
N 	N 	0.81113 0.66237 0.17387 -0.15000
N 	N 	0.77568 0.64925 0.12185 -0.22800
N 	N 	0.75119 0.62324 0.09238 -0.26300
N 	N 	0.72991 0.65103 0.12524 -0.22800
N 	N 	0.67169 0.68603 0.09428 -0.15100
S 	S 	0.83696 0.70537 0.07812 -0.05800
S 	S 	0.74784 0.62654 0.04928 -0.06100
C 	C 	0.34028 0.14742 0.21989 0.03400
H 	H 	0.35240 0.15560 0.21730 0.01500
C 	C 	0.32258 0.15086 0.20750 -0.04500
C 	C 	0.30477 0.13928 0.21138 0.00700
H 	H 	0.29260 0.14080 0.20300 0.03900
C 	C 	0.30514 0.12518 0.22810 -0.09900
H 	H 	0.29290 0.11760 0.23180 0.06700
C 	C 	0.32314 0.12242 0.23907 0.06200
H 	H 	0.32320 0.11240 0.25010 0.00100
C 	C 	0.35226 0.21662 0.09533 0.09900
C 	C 	0.38852 0.23679 0.16843 0.05800
H 	H 	0.39940 0.24680 0.16710 0.00100
C 	C 	0.38740 0.22538 0.18666 -0.09500
H 	H 	0.39690 0.22800 0.19780 0.06400
C 	C 	0.37221 0.20993 0.18858 0.00500
H 	H 	0.37160 0.20130 0.20070 0.03900
C 	C 	0.35790 0.20751 0.17226 -0.04400
C 	C 	0.35974 0.21999 0.15472 0.03200
H 	H 	0.34980 0.21830 0.14380 0.01800
C 	C 	0.34132 0.19123 0.17282 0.13500
C 	C 	0.32433 0.16539 0.18970 0.13400
C 	C 	0.31489 0.17411 0.15684 0.13400
C 	C 	0.28768 0.15399 0.13822 0.04000
H 	H 	0.28630 0.14580 0.15060 0.01300
C 	C 	0.30221 0.17048 0.13815 -0.05000
C 	C 	0.30411 0.18265 0.12040 0.01000
H 	H 	0.31400 0.19380 0.11970 0.03800
C 	C 	0.29109 0.17808 0.10358 -0.09900
H 	H 	0.29160 0.18640 0.09130 0.06800
C 	C 	0.27746 0.16140 0.10489 0.06200
H 	H 	0.26890 0.15840 0.09310 0.00200
C 	C 	0.23237 0.16699 0.13862 0.06400
H 	H 	0.24300 0.16590 0.14890 0.00000
C 	C 	0.22060 0.18460 0.13834 -0.10200
H 	H 	0.22310 0.19550 0.14810 0.06900
C 	C 	0.20470 0.18640 0.12333 0.01000
H 	H 	0.19590 0.19840 0.12290 0.03800
C 	C 	0.20217 0.17016 0.10924 -0.05100
C 	C 	0.21498 0.15269 0.11085 0.04300
H 	H 	0.21300 0.14150 0.10130 0.01200
C 	C 	0.18559 0.17092 0.09302 0.13600
C 	C 	0.24941 0.12389 0.07478 0.10900
N 	N 	0.34096 0.13308 0.23525 -0.22200
N 	N 	0.36285 0.22554 0.10699 -0.26000
N 	N 	0.37503 0.23449 0.15242 -0.22300
N 	N 	0.32960 0.18909 0.15582 -0.15000
N 	N 	0.33966 0.17975 0.19029 -0.14900
N 	N 	0.31113 0.16237 0.17387 -0.15000
N 	N 	0.27568 0.14925 0.12185 -0.22800
N 	N 	0.25119 0.12324 0.09238 -0.26300
N 	N 	0.22991 0.15103 0.12524 -0.22800
N 	N 	0.17169 0.18603 0.09428 -0.15100
S 	S 	0.33696 0.20537 0.07812 -0.05800
S 	S 	0.24784 0.12654 0.04928 -0.06100
C 	C 	0.34028 0.64742 0.71989 0.03400
H 	H 	0.35240 0.65560 0.71730 0.01500
C 	C 	0.32258 0.65086 0.70750 -0.04500
C 	C 	0.30477 0.63928 0.71138 0.00700
H 	H 	0.29260 0.64080 0.70300 0.03900
C 	C 	0.30514 0.62518 0.72810 -0.09900
H 	H 	0.29290 0.61760 0.73180 0.06700
C 	C 	0.32314 0.62242 0.73907 0.06200
H 	H 	0.32320 0.61240 0.75010 0.00100
C 	C 	0.35226 0.71662 0.59533 0.09900
C 	C 	0.38852 0.73679 0.66843 0.05800
H 	H 	0.39940 0.74680 0.66710 0.00100
C 	C 	0.38740 0.72538 0.68666 -0.09500
H 	H 	0.39690 0.72800 0.69780 0.06400
C 	C 	0.37221 0.70993 0.68858 0.00500
H 	H 	0.37160 0.70130 0.70070 0.03900
C 	C 	0.35790 0.70751 0.67226 -0.04400
C 	C 	0.35974 0.71999 0.65472 0.03200
H 	H 	0.34980 0.71830 0.64380 0.01800
C 	C 	0.34132 0.69123 0.67282 0.13500
C 	C 	0.32433 0.66539 0.68970 0.13400
C 	C 	0.31489 0.67411 0.65684 0.13400
C 	C 	0.28768 0.65399 0.63822 0.04000
H 	H 	0.28630 0.64580 0.65060 0.01300
C 	C 	0.30221 0.67048 0.63815 -0.05000
C 	C 	0.30411 0.68265 0.62040 0.01000
H 	H 	0.31400 0.69380 0.61970 0.03800
C 	C 	0.29109 0.67808 0.60358 -0.09900
H 	H 	0.29160 0.68640 0.59130 0.06800
C 	C 	0.27746 0.66140 0.60489 0.06200
H 	H 	0.26890 0.65840 0.59310 0.00200
C 	C 	0.23237 0.66699 0.63862 0.06400
H 	H 	0.24300 0.66590 0.64890 0.00000
C 	C 	0.22060 0.68460 0.63834 -0.10200
H 	H 	0.22310 0.69550 0.64810 0.06900
C 	C 	0.20470 0.68640 0.62333 0.01000
H 	H 	0.19590 0.69840 0.62290 0.03800
C 	C 	0.20217 0.67016 0.60924 -0.05100
C 	C 	0.21498 0.65269 0.61085 0.04300
H 	H 	0.21300 0.64150 0.60130 0.01200
C 	C 	0.18559 0.67092 0.59302 0.13600
C 	C 	0.24941 0.62389 0.57478 0.10900
N 	N 	0.34096 0.63308 0.73525 -0.22200
N 	N 	0.36285 0.72554 0.60699 -0.26000
N 	N 	0.37503 0.73449 0.65242 -0.22300
N 	N 	0.32960 0.68909 0.65582 -0.15000
N 	N 	0.33966 0.67975 0.69029 -0.14900
N 	N 	0.31113 0.66237 0.67387 -0.15000
N 	N 	0.27568 0.64925 0.62185 -0.22800
N 	N 	0.25119 0.62324 0.59238 -0.26300
N 	N 	0.22991 0.65103 0.62524 -0.22800
N 	N 	0.17169 0.68603 0.59428 -0.15100
S 	S 	0.33696 0.70537 0.57812 -0.05800
S 	S 	0.24784 0.62654 0.54928 -0.06100
C 	C 	0.34028 0.10258 0.03011 0.03400
H 	H 	0.35240 0.09440 0.03270 0.01500
C 	C 	0.32258 0.09914 0.04250 -0.04500
C 	C 	0.30477 0.11072 0.03862 0.00700
H 	H 	0.29260 0.10920 0.04700 0.03900
C 	C 	0.30514 0.12482 0.02190 -0.09900
H 	H 	0.29290 0.13240 0.01820 0.06700
C 	C 	0.32314 0.12758 0.01093 0.06200
H 	H 	0.32320 0.13760 0.99990 0.00100
C 	C 	0.35226 0.03338 0.15467 0.09900
C 	C 	0.38852 0.01321 0.08157 0.05800
H 	H 	0.39940 0.00320 0.08290 0.00100
C 	C 	0.38740 0.02462 0.06334 -0.09500
H 	H 	0.39690 0.02200 0.05220 0.06400
C 	C 	0.37221 0.04007 0.06142 0.00500
H 	H 	0.37160 0.04870 0.04930 0.03900
C 	C 	0.35790 0.04249 0.07774 -0.04400
C 	C 	0.35974 0.03001 0.09528 0.03200
H 	H 	0.34980 0.03170 0.10620 0.01800
C 	C 	0.34132 0.05877 0.07718 0.13500
C 	C 	0.32433 0.08461 0.06030 0.13400
C 	C 	0.31489 0.07589 0.09316 0.13400
C 	C 	0.28768 0.09601 0.11178 0.04000
H 	H 	0.28630 0.10420 0.09940 0.01300
C 	C 	0.30221 0.07952 0.11185 -0.05000
C 	C 	0.30411 0.06735 0.12960 0.01000
H 	H 	0.31400 0.05620 0.13030 0.03800
C 	C 	0.29109 0.07192 0.14642 -0.09900
H 	H 	0.29160 0.06360 0.15870 0.06800
C 	C 	0.27746 0.08860 0.14511 0.06200
H 	H 	0.26890 0.09160 0.15690 0.00200
C 	C 	0.23237 0.08301 0.11138 0.06400
H 	H 	0.24300 0.08410 0.10110 0.00000
C 	C 	0.22060 0.06540 0.11166 -0.10200
H 	H 	0.22310 0.05450 0.10190 0.06900
C 	C 	0.20470 0.06360 0.12667 0.01000
H 	H 	0.19590 0.05160 0.12710 0.03800
C 	C 	0.20217 0.07984 0.14076 -0.05100
C 	C 	0.21498 0.09731 0.13915 0.04300
H 	H 	0.21300 0.10850 0.14870 0.01200
C 	C 	0.18559 0.07908 0.15698 0.13600
C 	C 	0.24941 0.12611 0.17522 0.10900
N 	N 	0.34096 0.11692 0.01475 -0.22200
N 	N 	0.36285 0.02446 0.14301 -0.26000
N 	N 	0.37503 0.01551 0.09758 -0.22300
N 	N 	0.32960 0.06091 0.09418 -0.15000
N 	N 	0.33966 0.07025 0.05971 -0.14900
N 	N 	0.31113 0.08763 0.07613 -0.15000
N 	N 	0.27568 0.10075 0.12815 -0.22800
N 	N 	0.25119 0.12676 0.15762 -0.26300
N 	N 	0.22991 0.09897 0.12476 -0.22800
N 	N 	0.17169 0.06397 0.15572 -0.15100
S 	S 	0.33696 0.04463 0.17188 -0.05800
S 	S 	0.24784 0.12346 0.20072 -0.06100
C 	C 	0.34028 0.60258 0.53011 0.03400
H 	H 	0.35240 0.59440 0.53270 0.01500
C 	C 	0.32258 0.59914 0.54250 -0.04500
C 	C 	0.30477 0.61072 0.53862 0.00700
H 	H 	0.29260 0.60920 0.54700 0.03900
C 	C 	0.30514 0.62482 0.52190 -0.09900
H 	H 	0.29290 0.63240 0.51820 0.06700
C 	C 	0.32314 0.62758 0.51093 0.06200
H 	H 	0.32320 0.63760 0.49990 0.00100
C 	C 	0.35226 0.53338 0.65467 0.09900
C 	C 	0.38852 0.51321 0.58157 0.05800
H 	H 	0.39940 0.50320 0.58290 0.00100
C 	C 	0.38740 0.52462 0.56334 -0.09500
H 	H 	0.39690 0.52200 0.55220 0.06400
C 	C 	0.37221 0.54007 0.56142 0.00500
H 	H 	0.37160 0.54870 0.54930 0.03900
C 	C 	0.35790 0.54249 0.57774 -0.04400
C 	C 	0.35974 0.53001 0.59528 0.03200
H 	H 	0.34980 0.53170 0.60620 0.01800
C 	C 	0.34132 0.55877 0.57718 0.13500
C 	C 	0.32433 0.58461 0.56030 0.13400
C 	C 	0.31489 0.57589 0.59316 0.13400
C 	C 	0.28768 0.59601 0.61178 0.04000
H 	H 	0.28630 0.60420 0.59940 0.01300
C 	C 	0.30221 0.57952 0.61185 -0.05000
C 	C 	0.30411 0.56735 0.62960 0.01000
H 	H 	0.31400 0.55620 0.63030 0.03800
C 	C 	0.29109 0.57192 0.64642 -0.09900
H 	H 	0.29160 0.56360 0.65870 0.06800
C 	C 	0.27746 0.58860 0.64511 0.06200
H 	H 	0.26890 0.59160 0.65690 0.00200
C 	C 	0.23237 0.58301 0.61138 0.06400
H 	H 	0.24300 0.58410 0.60110 0.00000
C 	C 	0.22060 0.56540 0.61166 -0.10200
H 	H 	0.22310 0.55450 0.60190 0.06900
C 	C 	0.20470 0.56360 0.62667 0.01000
H 	H 	0.19590 0.55160 0.62710 0.03800
C 	C 	0.20217 0.57984 0.64076 -0.05100
C 	C 	0.21498 0.59731 0.63915 0.04300
H 	H 	0.21300 0.60850 0.64870 0.01200
C 	C 	0.18559 0.57908 0.65698 0.13600
C 	C 	0.24941 0.62611 0.67522 0.10900
N 	N 	0.34096 0.61692 0.51475 -0.22200
N 	N 	0.36285 0.52446 0.64301 -0.26000
N 	N 	0.37503 0.51551 0.59758 -0.22300
N 	N 	0.32960 0.56091 0.59418 -0.15000
N 	N 	0.33966 0.57025 0.55971 -0.14900
N 	N 	0.31113 0.58763 0.57613 -0.15000
N 	N 	0.27568 0.60075 0.62815 -0.22800
N 	N 	0.25119 0.62676 0.65762 -0.26300
N 	N 	0.22991 0.59897 0.62476 -0.22800
N 	N 	0.17169 0.56397 0.65572 -0.15100
S 	S 	0.33696 0.54463 0.67188 -0.05800
S 	S 	0.24784 0.62346 0.70072 -0.06100
C 	C 	0.84028 0.10258 0.53011 0.03400
H 	H 	0.85240 0.09440 0.53270 0.01500
C 	C 	0.82258 0.09914 0.54250 -0.04500
C 	C 	0.80477 0.11072 0.53862 0.00700
H 	H 	0.79260 0.10920 0.54700 0.03900
C 	C 	0.80514 0.12482 0.52190 -0.09900
H 	H 	0.79290 0.13240 0.51820 0.06700
C 	C 	0.82314 0.12758 0.51093 0.06200
H 	H 	0.82320 0.13760 0.49990 0.00100
C 	C 	0.85226 0.03338 0.65467 0.09900
C 	C 	0.88852 0.01321 0.58157 0.05800
H 	H 	0.89940 0.00320 0.58290 0.00100
C 	C 	0.88740 0.02462 0.56334 -0.09500
H 	H 	0.89690 0.02200 0.55220 0.06400
C 	C 	0.87221 0.04007 0.56142 0.00500
H 	H 	0.87160 0.04870 0.54930 0.03900
C 	C 	0.85790 0.04249 0.57774 -0.04400
C 	C 	0.85974 0.03001 0.59528 0.03200
H 	H 	0.84980 0.03170 0.60620 0.01800
C 	C 	0.84132 0.05877 0.57718 0.13500
C 	C 	0.82433 0.08461 0.56030 0.13400
C 	C 	0.81489 0.07589 0.59316 0.13400
C 	C 	0.78768 0.09601 0.61178 0.04000
H 	H 	0.78630 0.10420 0.59940 0.01300
C 	C 	0.80221 0.07952 0.61185 -0.05000
C 	C 	0.80411 0.06735 0.62960 0.01000
H 	H 	0.81400 0.05620 0.63030 0.03800
C 	C 	0.79109 0.07192 0.64642 -0.09900
H 	H 	0.79160 0.06360 0.65870 0.06800
C 	C 	0.77746 0.08860 0.64511 0.06200
H 	H 	0.76890 0.09160 0.65690 0.00200
C 	C 	0.73237 0.08301 0.61138 0.06400
H 	H 	0.74300 0.08410 0.60110 0.00000
C 	C 	0.72060 0.06540 0.61166 -0.10200
H 	H 	0.72310 0.05450 0.60190 0.06900
C 	C 	0.70470 0.06360 0.62667 0.01000
H 	H 	0.69590 0.05160 0.62710 0.03800
C 	C 	0.70217 0.07984 0.64076 -0.05100
C 	C 	0.71498 0.09731 0.63915 0.04300
H 	H 	0.71300 0.10850 0.64870 0.01200
C 	C 	0.68559 0.07908 0.65698 0.13600
C 	C 	0.74941 0.12611 0.67522 0.10900
N 	N 	0.84096 0.11692 0.51475 -0.22200
N 	N 	0.86285 0.02446 0.64301 -0.26000
N 	N 	0.87503 0.01551 0.59758 -0.22300
N 	N 	0.82960 0.06091 0.59418 -0.15000
N 	N 	0.83966 0.07025 0.55971 -0.14900
N 	N 	0.81113 0.08763 0.57613 -0.15000
N 	N 	0.77568 0.10075 0.62815 -0.22800
N 	N 	0.75119 0.12676 0.65762 -0.26300
N 	N 	0.72991 0.09897 0.62476 -0.22800
N 	N 	0.67169 0.06397 0.65572 -0.15100
S 	S 	0.83696 0.04463 0.67188 -0.05800
S 	S 	0.74784 0.12346 0.70072 -0.06100
C 	C 	0.84028 0.60258 0.03011 0.03400
H 	H 	0.85240 0.59440 0.03270 0.01500
C 	C 	0.82258 0.59914 0.04250 -0.04500
C 	C 	0.80477 0.61072 0.03862 0.00700
H 	H 	0.79260 0.60920 0.04700 0.03900
C 	C 	0.80514 0.62482 0.02190 -0.09900
H 	H 	0.79290 0.63240 0.01820 0.06600
C 	C 	0.82314 0.62758 0.01093 0.06100
H 	H 	0.82320 0.63760 0.99990 -0.00000
C 	C 	0.85226 0.53338 0.15467 0.09800
C 	C 	0.88852 0.51321 0.08157 0.05700
H 	H 	0.89940 0.50320 0.08290 -0.00000
C 	C 	0.88740 0.52462 0.06334 -0.09600
H 	H 	0.89690 0.52200 0.05220 0.06300
C 	C 	0.87221 0.54007 0.06142 0.00400
H 	H 	0.87160 0.54870 0.04930 0.03800
C 	C 	0.85790 0.54249 0.07774 -0.04500
C 	C 	0.85974 0.53001 0.09528 0.03100
H 	H 	0.84980 0.53170 0.10620 0.01700
C 	C 	0.84132 0.55877 0.07718 0.13400
C 	C 	0.82433 0.58461 0.06030 0.13300
C 	C 	0.81489 0.57589 0.09316 0.13300
C 	C 	0.78768 0.59601 0.11178 0.03900
H 	H 	0.78630 0.60420 0.09940 0.01200
C 	C 	0.80221 0.57952 0.11185 -0.05100
C 	C 	0.80411 0.56735 0.12960 0.00900
H 	H 	0.81400 0.55620 0.13030 0.03700
C 	C 	0.79109 0.57192 0.14642 -0.10000
H 	H 	0.79160 0.56360 0.15870 0.06700
C 	C 	0.77746 0.58860 0.14511 0.06100
H 	H 	0.76890 0.59160 0.15690 0.00100
C 	C 	0.73237 0.58301 0.11138 0.06300
H 	H 	0.74300 0.58410 0.10110 -0.00100
C 	C 	0.72060 0.56540 0.11166 -0.10300
H 	H 	0.72310 0.55450 0.10190 0.06800
C 	C 	0.70470 0.56360 0.12667 0.00900
H 	H 	0.69590 0.55160 0.12710 0.03700
C 	C 	0.70217 0.57984 0.14076 -0.05200
C 	C 	0.71498 0.59731 0.13915 0.04200
H 	H 	0.71300 0.60850 0.14870 0.01100
C 	C 	0.68559 0.57908 0.15698 0.13500
C 	C 	0.74941 0.62611 0.17522 0.10800
N 	N 	0.84096 0.61692 0.01475 -0.22300
N 	N 	0.86285 0.52446 0.14301 -0.26100
N 	N 	0.87503 0.51551 0.09758 -0.22400
N 	N 	0.82960 0.56091 0.09418 -0.15100
N 	N 	0.83966 0.57025 0.05971 -0.15000
N 	N 	0.81113 0.58763 0.07613 -0.15100
N 	N 	0.77568 0.60075 0.12815 -0.22900
N 	N 	0.75119 0.62676 0.15762 -0.26400
N 	N 	0.72991 0.59897 0.12476 -0.22900
N 	N 	0.67169 0.56397 0.15572 -0.15200
S 	S 	0.83696 0.54463 0.17188 -0.05900
S 	S 	0.74784 0.62346 0.20072 -0.06200
C 	C 	0.90972 0.64742 0.53011 0.03300
H 	H 	0.89760 0.65560 0.53270 0.01400
C 	C 	0.92742 0.65086 0.54250 -0.04600
C 	C 	0.94523 0.63928 0.53862 0.00600
H 	H 	0.95740 0.64080 0.54700 0.03800
C 	C 	0.94486 0.62518 0.52190 -0.10000
H 	H 	0.95710 0.61760 0.51820 0.06600
C 	C 	0.92686 0.62242 0.51093 0.06100
H 	H 	0.92680 0.61240 0.49990 -0.00000
C 	C 	0.89774 0.71662 0.65467 0.09800
C 	C 	0.86148 0.73679 0.58157 0.05700
H 	H 	0.85060 0.74680 0.58290 -0.00000
C 	C 	0.86260 0.72538 0.56334 -0.09600
H 	H 	0.85310 0.72800 0.55220 0.06300
C 	C 	0.87779 0.70993 0.56142 0.00400
H 	H 	0.87840 0.70130 0.54930 0.03800
C 	C 	0.89210 0.70751 0.57774 -0.04500
C 	C 	0.89026 0.71999 0.59528 0.03100
H 	H 	0.90020 0.71830 0.60620 0.01700
C 	C 	0.90868 0.69123 0.57718 0.13400
C 	C 	0.92567 0.66539 0.56030 0.13300
C 	C 	0.93511 0.67411 0.59316 0.13300
C 	C 	0.96232 0.65399 0.61178 0.03900
H 	H 	0.96370 0.64580 0.59940 0.01200
C 	C 	0.94779 0.67048 0.61185 -0.05100
C 	C 	0.94589 0.68265 0.62960 0.00900
H 	H 	0.93600 0.69380 0.63030 0.03700
C 	C 	0.95891 0.67808 0.64642 -0.10000
H 	H 	0.95840 0.68640 0.65870 0.06700
C 	C 	0.97254 0.66140 0.64511 0.06100
H 	H 	0.98110 0.65840 0.65690 0.00100
C 	C 	0.01763 0.66699 0.61138 0.06300
H 	H 	0.00700 0.66590 0.60110 -0.00100
C 	C 	0.02940 0.68460 0.61166 -0.10300
H 	H 	0.02690 0.69550 0.60190 0.06800
C 	C 	0.04530 0.68640 0.62667 0.00900
H 	H 	0.05410 0.69840 0.62710 0.03700
C 	C 	0.04783 0.67016 0.64076 -0.05200
C 	C 	0.03502 0.65269 0.63915 0.04200
H 	H 	0.03700 0.64150 0.64870 0.01100
C 	C 	0.06441 0.67092 0.65698 0.13500
C 	C 	0.00059 0.62389 0.67522 0.10800
N 	N 	0.90904 0.63308 0.51475 -0.22300
N 	N 	0.88715 0.72554 0.64301 -0.26100
N 	N 	0.87497 0.73449 0.59758 -0.22400
N 	N 	0.92040 0.68909 0.59418 -0.15100
N 	N 	0.91034 0.67975 0.55971 -0.15000
N 	N 	0.93887 0.66237 0.57613 -0.15100
N 	N 	0.97432 0.64925 0.62815 -0.22900
N 	N 	0.99881 0.62324 0.65762 -0.26400
N 	N 	0.02009 0.65103 0.62476 -0.22900
N 	N 	0.07831 0.68603 0.65572 -0.15200
S 	S 	0.91304 0.70537 0.67188 -0.05900
S 	S 	0.00216 0.62654 0.70072 -0.06200
C 	C 	0.90972 0.14742 0.03011 0.03300
H 	H 	0.89760 0.15560 0.03270 0.01400
C 	C 	0.92742 0.15086 0.04250 -0.04600
C 	C 	0.94523 0.13928 0.03862 0.00600
H 	H 	0.95740 0.14080 0.04700 0.03800
C 	C 	0.94486 0.12518 0.02190 -0.10000
H 	H 	0.95710 0.11760 0.01820 0.06600
C 	C 	0.92686 0.12242 0.01093 0.06100
H 	H 	0.92680 0.11240 0.99990 -0.00000
C 	C 	0.89774 0.21662 0.15467 0.09800
C 	C 	0.86148 0.23679 0.08157 0.05700
H 	H 	0.85060 0.24680 0.08290 -0.00000
C 	C 	0.86260 0.22538 0.06334 -0.09600
H 	H 	0.85310 0.22800 0.05220 0.06300
C 	C 	0.87779 0.20993 0.06142 0.00400
H 	H 	0.87840 0.20130 0.04930 0.03800
C 	C 	0.89210 0.20751 0.07774 -0.04500
C 	C 	0.89026 0.21999 0.09528 0.03100
H 	H 	0.90020 0.21830 0.10620 0.01700
C 	C 	0.90868 0.19123 0.07718 0.13400
C 	C 	0.92567 0.16539 0.06030 0.13300
C 	C 	0.93511 0.17411 0.09316 0.13300
C 	C 	0.96232 0.15399 0.11178 0.03900
H 	H 	0.96370 0.14580 0.09940 0.01200
C 	C 	0.94779 0.17048 0.11185 -0.05100
C 	C 	0.94589 0.18265 0.12960 0.00900
H 	H 	0.93600 0.19380 0.13030 0.03700
C 	C 	0.95891 0.17808 0.14642 -0.10000
H 	H 	0.95840 0.18640 0.15870 0.06700
C 	C 	0.97254 0.16140 0.14511 0.06100
H 	H 	0.98110 0.15840 0.15690 0.00100
C 	C 	0.01763 0.16699 0.11138 0.06300
H 	H 	0.00700 0.16590 0.10110 -0.00100
C 	C 	0.02940 0.18460 0.11166 -0.10300
H 	H 	0.02690 0.19550 0.10190 0.06800
C 	C 	0.04530 0.18640 0.12667 0.00900
H 	H 	0.05410 0.19840 0.12710 0.03700
C 	C 	0.04783 0.17016 0.14076 -0.05200
C 	C 	0.03502 0.15269 0.13915 0.04200
H 	H 	0.03700 0.14150 0.14870 0.01100
C 	C 	0.06441 0.17092 0.15698 0.13500
C 	C 	0.00059 0.12389 0.17522 0.10800
N 	N 	0.90904 0.13308 0.01475 -0.22300
N 	N 	0.88715 0.22554 0.14301 -0.26100
N 	N 	0.87497 0.23449 0.09758 -0.22400
N 	N 	0.92040 0.18909 0.09418 -0.15100
N 	N 	0.91034 0.17975 0.05971 -0.15000
N 	N 	0.93887 0.16237 0.07613 -0.15100
N 	N 	0.97432 0.14925 0.12815 -0.22900
N 	N 	0.99881 0.12324 0.15762 -0.26400
N 	N 	0.02009 0.15103 0.12476 -0.22900
N 	N 	0.07831 0.18603 0.15572 -0.15200
S 	S 	0.91304 0.20537 0.17188 -0.05900
S 	S 	0.00216 0.12654 0.20072 -0.06200
C 	C 	0.40972 0.64742 0.03011 0.03300
H 	H 	0.39760 0.65560 0.03270 0.01400
C 	C 	0.42742 0.65086 0.04250 -0.04600
C 	C 	0.44523 0.63928 0.03862 0.00600
H 	H 	0.45740 0.64080 0.04700 0.03800
C 	C 	0.44486 0.62518 0.02190 -0.10000
H 	H 	0.45710 0.61760 0.01820 0.06600
C 	C 	0.42686 0.62242 0.01093 0.06100
H 	H 	0.42680 0.61240 0.99990 -0.00000
C 	C 	0.39774 0.71662 0.15467 0.09800
C 	C 	0.36148 0.73679 0.08157 0.05700
H 	H 	0.35060 0.74680 0.08290 -0.00000
C 	C 	0.36260 0.72538 0.06334 -0.09600
H 	H 	0.35310 0.72800 0.05220 0.06300
C 	C 	0.37779 0.70993 0.06142 0.00400
H 	H 	0.37840 0.70130 0.04930 0.03800
C 	C 	0.39210 0.70751 0.07774 -0.04500
C 	C 	0.39026 0.71999 0.09528 0.03100
H 	H 	0.40020 0.71830 0.10620 0.01700
C 	C 	0.40868 0.69123 0.07718 0.13400
C 	C 	0.42567 0.66539 0.06030 0.13300
C 	C 	0.43511 0.67411 0.09316 0.13300
C 	C 	0.46232 0.65399 0.11178 0.03900
H 	H 	0.46370 0.64580 0.09940 0.01200
C 	C 	0.44779 0.67048 0.11185 -0.05100
C 	C 	0.44589 0.68265 0.12960 0.00900
H 	H 	0.43600 0.69380 0.13030 0.03700
C 	C 	0.45891 0.67808 0.14642 -0.10000
H 	H 	0.45840 0.68640 0.15870 0.06700
C 	C 	0.47254 0.66140 0.14511 0.06100
H 	H 	0.48110 0.65840 0.15690 0.00100
C 	C 	0.51763 0.66699 0.11138 0.06300
H 	H 	0.50700 0.66590 0.10110 -0.00100
C 	C 	0.52940 0.68460 0.11166 -0.10300
H 	H 	0.52690 0.69550 0.10190 0.06800
C 	C 	0.54530 0.68640 0.12667 0.00900
H 	H 	0.55410 0.69840 0.12710 0.03700
C 	C 	0.54783 0.67016 0.14076 -0.05200
C 	C 	0.53502 0.65269 0.13915 0.04200
H 	H 	0.53700 0.64150 0.14870 0.01100
C 	C 	0.56441 0.67092 0.15698 0.13500
C 	C 	0.50059 0.62389 0.17522 0.10800
N 	N 	0.40904 0.63308 0.01475 -0.22300
N 	N 	0.38715 0.72554 0.14301 -0.26100
N 	N 	0.37497 0.73449 0.09758 -0.22400
N 	N 	0.42040 0.68909 0.09418 -0.15100
N 	N 	0.41034 0.67975 0.05971 -0.15000
N 	N 	0.43887 0.66237 0.07613 -0.15100
N 	N 	0.47432 0.64925 0.12815 -0.22900
N 	N 	0.49881 0.62324 0.15762 -0.26400
N 	N 	0.52009 0.65103 0.12476 -0.22900
N 	N 	0.57831 0.68603 0.15572 -0.15200
S 	S 	0.41304 0.70537 0.17188 -0.05900
S 	S 	0.50216 0.62654 0.20072 -0.06200
C 	C 	0.40972 0.14742 0.53011 0.03300
H 	H 	0.39760 0.15560 0.53270 0.01400
C 	C 	0.42742 0.15086 0.54250 -0.04600
C 	C 	0.44523 0.13928 0.53862 0.00600
H 	H 	0.45740 0.14080 0.54700 0.03800
C 	C 	0.44486 0.12518 0.52190 -0.10000
H 	H 	0.45710 0.11760 0.51820 0.06600
C 	C 	0.42686 0.12242 0.51093 0.06100
H 	H 	0.42680 0.11240 0.49990 -0.00000
C 	C 	0.39774 0.21662 0.65467 0.09800
C 	C 	0.36148 0.23679 0.58157 0.05700
H 	H 	0.35060 0.24680 0.58290 -0.00000
C 	C 	0.36260 0.22538 0.56334 -0.09600
H 	H 	0.35310 0.22800 0.55220 0.06300
C 	C 	0.37779 0.20993 0.56142 0.00400
H 	H 	0.37840 0.20130 0.54930 0.03800
C 	C 	0.39210 0.20751 0.57774 -0.04500
C 	C 	0.39026 0.21999 0.59528 0.03100
H 	H 	0.40020 0.21830 0.60620 0.01700
C 	C 	0.40868 0.19123 0.57718 0.13400
C 	C 	0.42567 0.16539 0.56030 0.13300
C 	C 	0.43511 0.17411 0.59316 0.13300
C 	C 	0.46232 0.15399 0.61178 0.03900
H 	H 	0.46370 0.14580 0.59940 0.01200
C 	C 	0.44779 0.17048 0.61185 -0.05100
C 	C 	0.44589 0.18265 0.62960 0.00900
H 	H 	0.43600 0.19380 0.63030 0.03700
C 	C 	0.45891 0.17808 0.64642 -0.10000
H 	H 	0.45840 0.18640 0.65870 0.06700
C 	C 	0.47254 0.16140 0.64511 0.06100
H 	H 	0.48110 0.15840 0.65690 0.00100
C 	C 	0.51763 0.16699 0.61138 0.06300
H 	H 	0.50700 0.16590 0.60110 -0.00100
C 	C 	0.52940 0.18460 0.61166 -0.10300
H 	H 	0.52690 0.19550 0.60190 0.06800
C 	C 	0.54530 0.18640 0.62667 0.00900
H 	H 	0.55410 0.19840 0.62710 0.03700
C 	C 	0.54783 0.17016 0.64076 -0.05200
C 	C 	0.53502 0.15269 0.63915 0.04200
H 	H 	0.53700 0.14150 0.64870 0.01100
C 	C 	0.56441 0.17092 0.65698 0.13500
C 	C 	0.50059 0.12389 0.67522 0.10800
N 	N 	0.40904 0.13308 0.51475 -0.22300
N 	N 	0.38715 0.22554 0.64301 -0.26100
N 	N 	0.37497 0.23449 0.59758 -0.22400
N 	N 	0.42040 0.18909 0.59418 -0.15100
N 	N 	0.41034 0.17975 0.55971 -0.15000
N 	N 	0.43887 0.16237 0.57613 -0.15100
N 	N 	0.47432 0.14925 0.62815 -0.22900
N 	N 	0.49881 0.12324 0.65762 -0.26400
N 	N 	0.52009 0.15103 0.62476 -0.22900
N 	N 	0.57831 0.18603 0.65572 -0.15200
S 	S 	0.41304 0.20537 0.67188 -0.05900
S 	S 	0.50216 0.12654 0.70072 -0.06200
C 	C 	0.21989 0.40972 0.60258 0.03300
H 	H 	0.21730 0.39760 0.59440 0.01400
C 	C 	0.20750 0.42742 0.59914 -0.04600
C 	C 	0.21138 0.44523 0.61072 0.00600
H 	H 	0.20300 0.45740 0.60920 0.03800
C 	C 	0.22810 0.44486 0.62482 -0.10000
H 	H 	0.23180 0.45710 0.63240 0.06600
C 	C 	0.23907 0.42686 0.62758 0.06100
H 	H 	0.25010 0.42680 0.63760 -0.00000
C 	C 	0.09533 0.39774 0.53338 0.09800
C 	C 	0.16843 0.36148 0.51321 0.05700
H 	H 	0.16710 0.35060 0.50320 -0.00000
C 	C 	0.18666 0.36260 0.52462 -0.09600
H 	H 	0.19780 0.35310 0.52200 0.06300
C 	C 	0.18858 0.37779 0.54007 0.00400
H 	H 	0.20070 0.37840 0.54870 0.03800
C 	C 	0.17226 0.39210 0.54249 -0.04500
C 	C 	0.15472 0.39026 0.53001 0.03100
H 	H 	0.14380 0.40020 0.53170 0.01700
C 	C 	0.17282 0.40868 0.55877 0.13400
C 	C 	0.18970 0.42567 0.58461 0.13300
C 	C 	0.15684 0.43511 0.57589 0.13300
C 	C 	0.13822 0.46232 0.59601 0.03900
H 	H 	0.15060 0.46370 0.60420 0.01200
C 	C 	0.13815 0.44779 0.57952 -0.05100
C 	C 	0.12040 0.44589 0.56735 0.00900
H 	H 	0.11970 0.43600 0.55620 0.03700
C 	C 	0.10358 0.45891 0.57192 -0.10000
H 	H 	0.09130 0.45840 0.56360 0.06700
C 	C 	0.10489 0.47254 0.58860 0.06100
H 	H 	0.09310 0.48110 0.59160 0.00100
C 	C 	0.13862 0.51763 0.58301 0.06300
H 	H 	0.14890 0.50700 0.58410 -0.00100
C 	C 	0.13834 0.52940 0.56540 -0.10300
H 	H 	0.14810 0.52690 0.55450 0.06800
C 	C 	0.12333 0.54530 0.56360 0.00900
H 	H 	0.12290 0.55410 0.55160 0.03700
C 	C 	0.10924 0.54783 0.57984 -0.05200
C 	C 	0.11085 0.53502 0.59731 0.04200
H 	H 	0.10130 0.53700 0.60850 0.01100
C 	C 	0.09302 0.56441 0.57908 0.13500
C 	C 	0.07478 0.50059 0.62611 0.10800
N 	N 	0.23525 0.40904 0.61692 -0.22300
N 	N 	0.10699 0.38715 0.52446 -0.26100
N 	N 	0.15242 0.37497 0.51551 -0.22400
N 	N 	0.15582 0.42040 0.56091 -0.15100
N 	N 	0.19029 0.41034 0.57025 -0.15000
N 	N 	0.17387 0.43887 0.58763 -0.15100
N 	N 	0.12185 0.47432 0.60075 -0.22900
N 	N 	0.09238 0.49881 0.62676 -0.26400
N 	N 	0.12524 0.52009 0.59897 -0.22900
N 	N 	0.09428 0.57831 0.56397 -0.15200
S 	S 	0.07812 0.41304 0.54463 -0.05900
S 	S 	0.04928 0.50216 0.62346 -0.06200
C 	C 	0.21989 0.90972 0.10258 0.03300
H 	H 	0.21730 0.89760 0.09440 0.01400
C 	C 	0.20750 0.92742 0.09914 -0.04600
C 	C 	0.21138 0.94523 0.11072 0.00600
H 	H 	0.20300 0.95740 0.10920 0.03800
C 	C 	0.22810 0.94486 0.12482 -0.10000
H 	H 	0.23180 0.95710 0.13240 0.06600
C 	C 	0.23907 0.92686 0.12758 0.06100
H 	H 	0.25010 0.92680 0.13760 -0.00000
C 	C 	0.09533 0.89774 0.03338 0.09800
C 	C 	0.16843 0.86148 0.01321 0.05700
H 	H 	0.16710 0.85060 0.00320 -0.00000
C 	C 	0.18666 0.86260 0.02462 -0.09600
H 	H 	0.19780 0.85310 0.02200 0.06300
C 	C 	0.18858 0.87779 0.04007 0.00400
H 	H 	0.20070 0.87840 0.04870 0.03800
C 	C 	0.17226 0.89210 0.04249 -0.04500
C 	C 	0.15472 0.89026 0.03001 0.03100
H 	H 	0.14380 0.90020 0.03170 0.01700
C 	C 	0.17282 0.90868 0.05877 0.13400
C 	C 	0.18970 0.92567 0.08461 0.13300
C 	C 	0.15684 0.93511 0.07589 0.13300
C 	C 	0.13822 0.96232 0.09601 0.03900
H 	H 	0.15060 0.96370 0.10420 0.01200
C 	C 	0.13815 0.94779 0.07952 -0.05100
C 	C 	0.12040 0.94589 0.06735 0.00900
H 	H 	0.11970 0.93600 0.05620 0.03700
C 	C 	0.10358 0.95891 0.07192 -0.10000
H 	H 	0.09130 0.95840 0.06360 0.06700
C 	C 	0.10489 0.97254 0.08860 0.06100
H 	H 	0.09310 0.98110 0.09160 0.00100
C 	C 	0.13862 0.01763 0.08301 0.06300
H 	H 	0.14890 0.00700 0.08410 -0.00100
C 	C 	0.13834 0.02940 0.06540 -0.10300
H 	H 	0.14810 0.02690 0.05450 0.06800
C 	C 	0.12333 0.04530 0.06360 0.00900
H 	H 	0.12290 0.05410 0.05160 0.03700
C 	C 	0.10924 0.04783 0.07984 -0.05200
C 	C 	0.11085 0.03502 0.09731 0.04200
H 	H 	0.10130 0.03700 0.10850 0.01100
C 	C 	0.09302 0.06441 0.07908 0.13500
C 	C 	0.07478 0.00059 0.12611 0.10800
N 	N 	0.23525 0.90904 0.11692 -0.22300
N 	N 	0.10699 0.88715 0.02446 -0.26100
N 	N 	0.15242 0.87497 0.01551 -0.22400
N 	N 	0.15582 0.92040 0.06091 -0.15100
N 	N 	0.19029 0.91034 0.07025 -0.15000
N 	N 	0.17387 0.93887 0.08763 -0.15100
N 	N 	0.12185 0.97432 0.10075 -0.22900
N 	N 	0.09238 0.99881 0.12676 -0.26400
N 	N 	0.12524 0.02009 0.09897 -0.22900
N 	N 	0.09428 0.07831 0.06397 -0.15200
S 	S 	0.07812 0.91304 0.04463 -0.05900
S 	S 	0.04928 0.00216 0.12346 -0.06200
C 	C 	0.71989 0.40972 0.10258 0.03300
H 	H 	0.71730 0.39760 0.09440 0.01400
C 	C 	0.70750 0.42742 0.09914 -0.04600
C 	C 	0.71138 0.44523 0.11072 0.00600
H 	H 	0.70300 0.45740 0.10920 0.03800
C 	C 	0.72810 0.44486 0.12482 -0.10000
H 	H 	0.73180 0.45710 0.13240 0.06600
C 	C 	0.73907 0.42686 0.12758 0.06100
H 	H 	0.75010 0.42680 0.13760 -0.00000
C 	C 	0.59533 0.39774 0.03338 0.09800
C 	C 	0.66843 0.36148 0.01321 0.05700
H 	H 	0.66710 0.35060 0.00320 -0.00000
C 	C 	0.68666 0.36260 0.02462 -0.09600
H 	H 	0.69780 0.35310 0.02200 0.06300
C 	C 	0.68858 0.37779 0.04007 0.00400
H 	H 	0.70070 0.37840 0.04870 0.03800
C 	C 	0.67226 0.39210 0.04249 -0.04500
C 	C 	0.65472 0.39026 0.03001 0.03100
H 	H 	0.64380 0.40020 0.03170 0.01700
C 	C 	0.67282 0.40868 0.05877 0.13400
C 	C 	0.68970 0.42567 0.08461 0.13300
C 	C 	0.65684 0.43511 0.07589 0.13300
C 	C 	0.63822 0.46232 0.09601 0.03900
H 	H 	0.65060 0.46370 0.10420 0.01200
C 	C 	0.63815 0.44779 0.07952 -0.05100
C 	C 	0.62040 0.44589 0.06735 0.00900
H 	H 	0.61970 0.43600 0.05620 0.03700
C 	C 	0.60358 0.45891 0.07192 -0.10000
H 	H 	0.59130 0.45840 0.06360 0.06700
C 	C 	0.60489 0.47254 0.08860 0.06100
H 	H 	0.59310 0.48110 0.09160 0.00100
C 	C 	0.63862 0.51763 0.08301 0.06300
H 	H 	0.64890 0.50700 0.08410 -0.00100
C 	C 	0.63834 0.52940 0.06540 -0.10300
H 	H 	0.64810 0.52690 0.05450 0.06800
C 	C 	0.62333 0.54530 0.06360 0.00900
H 	H 	0.62290 0.55410 0.05160 0.03700
C 	C 	0.60924 0.54783 0.07984 -0.05200
C 	C 	0.61085 0.53502 0.09731 0.04200
H 	H 	0.60130 0.53700 0.10850 0.01100
C 	C 	0.59302 0.56441 0.07908 0.13500
C 	C 	0.57478 0.50059 0.12611 0.10800
N 	N 	0.73525 0.40904 0.11692 -0.22300
N 	N 	0.60699 0.38715 0.02446 -0.26100
N 	N 	0.65242 0.37497 0.01551 -0.22400
N 	N 	0.65582 0.42040 0.06091 -0.15100
N 	N 	0.69029 0.41034 0.07025 -0.15000
N 	N 	0.67387 0.43887 0.08763 -0.15100
N 	N 	0.62185 0.47432 0.10075 -0.22900
N 	N 	0.59238 0.49881 0.12676 -0.26400
N 	N 	0.62524 0.52009 0.09897 -0.22900
N 	N 	0.59428 0.57831 0.06397 -0.15200
S 	S 	0.57812 0.41304 0.04463 -0.05900
S 	S 	0.54928 0.50216 0.12346 -0.06200
C 	C 	0.71989 0.90972 0.60258 0.03300
H 	H 	0.71730 0.89760 0.59440 0.01400
C 	C 	0.70750 0.92742 0.59914 -0.04600
C 	C 	0.71138 0.94523 0.61072 0.00600
H 	H 	0.70300 0.95740 0.60920 0.03800
C 	C 	0.72810 0.94486 0.62482 -0.10000
H 	H 	0.73180 0.95710 0.63240 0.06600
C 	C 	0.73907 0.92686 0.62758 0.06100
H 	H 	0.75010 0.92680 0.63760 -0.00000
C 	C 	0.59533 0.89774 0.53338 0.09800
C 	C 	0.66843 0.86148 0.51321 0.05700
H 	H 	0.66710 0.85060 0.50320 -0.00000
C 	C 	0.68666 0.86260 0.52462 -0.09600
H 	H 	0.69780 0.85310 0.52200 0.06300
C 	C 	0.68858 0.87779 0.54007 0.00400
H 	H 	0.70070 0.87840 0.54870 0.03800
C 	C 	0.67226 0.89210 0.54249 -0.04500
C 	C 	0.65472 0.89026 0.53001 0.03100
H 	H 	0.64380 0.90020 0.53170 0.01700
C 	C 	0.67282 0.90868 0.55877 0.13400
C 	C 	0.68970 0.92567 0.58461 0.13300
C 	C 	0.65684 0.93511 0.57589 0.13300
C 	C 	0.63822 0.96232 0.59601 0.03900
H 	H 	0.65060 0.96370 0.60420 0.01200
C 	C 	0.63815 0.94779 0.57952 -0.05100
C 	C 	0.62040 0.94589 0.56735 0.00900
H 	H 	0.61970 0.93600 0.55620 0.03700
C 	C 	0.60358 0.95891 0.57192 -0.10000
H 	H 	0.59130 0.95840 0.56360 0.06700
C 	C 	0.60489 0.97254 0.58860 0.06100
H 	H 	0.59310 0.98110 0.59160 0.00100
C 	C 	0.63862 0.01763 0.58301 0.06300
H 	H 	0.64890 0.00700 0.58410 -0.00100
C 	C 	0.63834 0.02940 0.56540 -0.10300
H 	H 	0.64810 0.02690 0.55450 0.06800
C 	C 	0.62333 0.04530 0.56360 0.00900
H 	H 	0.62290 0.05410 0.55160 0.03700
C 	C 	0.60924 0.04783 0.57984 -0.05200
C 	C 	0.61085 0.03502 0.59731 0.04200
H 	H 	0.60130 0.03700 0.60850 0.01100
C 	C 	0.59302 0.06441 0.57908 0.13500
C 	C 	0.57478 0.00059 0.62611 0.10800
N 	N 	0.73525 0.90904 0.61692 -0.22300
N 	N 	0.60699 0.88715 0.52446 -0.26100
N 	N 	0.65242 0.87497 0.51551 -0.22400
N 	N 	0.65582 0.92040 0.56091 -0.15100
N 	N 	0.69029 0.91034 0.57025 -0.15000
N 	N 	0.67387 0.93887 0.58763 -0.15100
N 	N 	0.62185 0.97432 0.60075 -0.22900
N 	N 	0.59238 0.99881 0.62676 -0.26400
N 	N 	0.62524 0.02009 0.59897 -0.22900
N 	N 	0.59428 0.07831 0.56397 -0.15200
S 	S 	0.57812 0.91304 0.54463 -0.05900
S 	S 	0.54928 0.00216 0.62346 -0.06200
C 	C 	0.71989 0.84028 0.14742 0.03300
H 	H 	0.71730 0.85240 0.15560 0.01400
C 	C 	0.70750 0.82258 0.15086 -0.04600
C 	C 	0.71138 0.80477 0.13928 0.00600
H 	H 	0.70300 0.79260 0.14080 0.03800
C 	C 	0.72810 0.80514 0.12518 -0.10000
H 	H 	0.73180 0.79290 0.11760 0.06600
C 	C 	0.73907 0.82314 0.12242 0.06100
H 	H 	0.75010 0.82320 0.11240 -0.00000
C 	C 	0.59533 0.85226 0.21662 0.09800
C 	C 	0.66843 0.88852 0.23679 0.05700
H 	H 	0.66710 0.89940 0.24680 -0.00000
C 	C 	0.68666 0.88740 0.22538 -0.09600
H 	H 	0.69780 0.89690 0.22800 0.06300
C 	C 	0.68858 0.87221 0.20993 0.00400
H 	H 	0.70070 0.87160 0.20130 0.03800
C 	C 	0.67226 0.85790 0.20751 -0.04500
C 	C 	0.65472 0.85974 0.21999 0.03100
H 	H 	0.64380 0.84980 0.21830 0.01700
C 	C 	0.67282 0.84132 0.19123 0.13400
C 	C 	0.68970 0.82433 0.16539 0.13300
C 	C 	0.65684 0.81489 0.17411 0.13300
C 	C 	0.63822 0.78768 0.15399 0.03900
H 	H 	0.65060 0.78630 0.14580 0.01200
C 	C 	0.63815 0.80221 0.17048 -0.05100
C 	C 	0.62040 0.80411 0.18265 0.00900
H 	H 	0.61970 0.81400 0.19380 0.03700
C 	C 	0.60358 0.79109 0.17808 -0.10000
H 	H 	0.59130 0.79160 0.18640 0.06700
C 	C 	0.60489 0.77746 0.16140 0.06100
H 	H 	0.59310 0.76890 0.15840 0.00100
C 	C 	0.63862 0.73237 0.16699 0.06300
H 	H 	0.64890 0.74300 0.16590 -0.00100
C 	C 	0.63834 0.72060 0.18460 -0.10300
H 	H 	0.64810 0.72310 0.19550 0.06800
C 	C 	0.62333 0.70470 0.18640 0.00900
H 	H 	0.62290 0.69590 0.19840 0.03700
C 	C 	0.60924 0.70217 0.17016 -0.05200
C 	C 	0.61085 0.71498 0.15269 0.04200
H 	H 	0.60130 0.71300 0.14150 0.01100
C 	C 	0.59302 0.68559 0.17092 0.13500
C 	C 	0.57478 0.74941 0.12389 0.10800
N 	N 	0.73525 0.84096 0.13308 -0.22300
N 	N 	0.60699 0.86285 0.22554 -0.26100
N 	N 	0.65242 0.87503 0.23449 -0.22400
N 	N 	0.65582 0.82960 0.18909 -0.15100
N 	N 	0.69029 0.83966 0.17975 -0.15000
N 	N 	0.67387 0.81113 0.16237 -0.15100
N 	N 	0.62185 0.77568 0.14925 -0.22900
N 	N 	0.59238 0.75119 0.12324 -0.26400
N 	N 	0.62524 0.72991 0.15103 -0.22900
N 	N 	0.59428 0.67169 0.18603 -0.15200
S 	S 	0.57812 0.83696 0.20537 -0.05900
S 	S 	0.54928 0.74784 0.12654 -0.06200
C 	C 	0.71989 0.34028 0.64742 0.03300
H 	H 	0.71730 0.35240 0.65560 0.01400
C 	C 	0.70750 0.32258 0.65086 -0.04600
C 	C 	0.71138 0.30477 0.63928 0.00600
H 	H 	0.70300 0.29260 0.64080 0.03800
C 	C 	0.72810 0.30514 0.62518 -0.10000
H 	H 	0.73180 0.29290 0.61760 0.06600
C 	C 	0.73907 0.32314 0.62242 0.06100
H 	H 	0.75010 0.32320 0.61240 -0.00000
C 	C 	0.59533 0.35226 0.71662 0.09800
C 	C 	0.66843 0.38852 0.73679 0.05700
H 	H 	0.66710 0.39940 0.74680 -0.00000
C 	C 	0.68666 0.38740 0.72538 -0.09600
H 	H 	0.69780 0.39690 0.72800 0.06300
C 	C 	0.68858 0.37221 0.70993 0.00400
H 	H 	0.70070 0.37160 0.70130 0.03800
C 	C 	0.67226 0.35790 0.70751 -0.04500
C 	C 	0.65472 0.35974 0.71999 0.03100
H 	H 	0.64380 0.34980 0.71830 0.01700
C 	C 	0.67282 0.34132 0.69123 0.13400
C 	C 	0.68970 0.32433 0.66539 0.13300
C 	C 	0.65684 0.31489 0.67411 0.13300
C 	C 	0.63822 0.28768 0.65399 0.03900
H 	H 	0.65060 0.28630 0.64580 0.01200
C 	C 	0.63815 0.30221 0.67048 -0.05100
C 	C 	0.62040 0.30411 0.68265 0.00900
H 	H 	0.61970 0.31400 0.69380 0.03700
C 	C 	0.60358 0.29109 0.67808 -0.10000
H 	H 	0.59130 0.29160 0.68640 0.06700
C 	C 	0.60489 0.27746 0.66140 0.06100
H 	H 	0.59310 0.26890 0.65840 0.00100
C 	C 	0.63862 0.23237 0.66699 0.06300
H 	H 	0.64890 0.24300 0.66590 -0.00100
C 	C 	0.63834 0.22060 0.68460 -0.10300
H 	H 	0.64810 0.22310 0.69550 0.06800
C 	C 	0.62333 0.20470 0.68640 0.00900
H 	H 	0.62290 0.19590 0.69840 0.03700
C 	C 	0.60924 0.20217 0.67016 -0.05200
C 	C 	0.61085 0.21498 0.65269 0.04200
H 	H 	0.60130 0.21300 0.64150 0.01100
C 	C 	0.59302 0.18559 0.67092 0.13500
C 	C 	0.57478 0.24941 0.62389 0.10800
N 	N 	0.73525 0.34096 0.63308 -0.22300
N 	N 	0.60699 0.36285 0.72554 -0.26100
N 	N 	0.65242 0.37503 0.73449 -0.22400
N 	N 	0.65582 0.32960 0.68909 -0.15100
N 	N 	0.69029 0.33966 0.67975 -0.15000
N 	N 	0.67387 0.31113 0.66237 -0.15100
N 	N 	0.62185 0.27568 0.64925 -0.22900
N 	N 	0.59238 0.25119 0.62324 -0.26400
N 	N 	0.62524 0.22991 0.65103 -0.22900
N 	N 	0.59428 0.17169 0.68603 -0.15200
S 	S 	0.57812 0.33696 0.70537 -0.05900
S 	S 	0.54928 0.24784 0.62654 -0.06200
C 	C 	0.21989 0.84028 0.64742 0.03300
H 	H 	0.21730 0.85240 0.65560 0.01400
C 	C 	0.20750 0.82258 0.65086 -0.04600
C 	C 	0.21138 0.80477 0.63928 0.00600
H 	H 	0.20300 0.79260 0.64080 0.03800
C 	C 	0.22810 0.80514 0.62518 -0.10000
H 	H 	0.23180 0.79290 0.61760 0.06600
C 	C 	0.23907 0.82314 0.62242 0.06100
H 	H 	0.25010 0.82320 0.61240 -0.00000
C 	C 	0.09533 0.85226 0.71662 0.09800
C 	C 	0.16843 0.88852 0.73679 0.05700
H 	H 	0.16710 0.89940 0.74680 -0.00000
C 	C 	0.18666 0.88740 0.72538 -0.09600
H 	H 	0.19780 0.89690 0.72800 0.06300
C 	C 	0.18858 0.87221 0.70993 0.00400
H 	H 	0.20070 0.87160 0.70130 0.03800
C 	C 	0.17226 0.85790 0.70751 -0.04500
C 	C 	0.15472 0.85974 0.71999 0.03100
H 	H 	0.14380 0.84980 0.71830 0.01700
C 	C 	0.17282 0.84132 0.69123 0.13400
C 	C 	0.18970 0.82433 0.66539 0.13300
C 	C 	0.15684 0.81489 0.67411 0.13300
C 	C 	0.13822 0.78768 0.65399 0.03900
H 	H 	0.15060 0.78630 0.64580 0.01200
C 	C 	0.13815 0.80221 0.67048 -0.05100
C 	C 	0.12040 0.80411 0.68265 0.00900
H 	H 	0.11970 0.81400 0.69380 0.03700
C 	C 	0.10358 0.79109 0.67808 -0.10000
H 	H 	0.09130 0.79160 0.68640 0.06700
C 	C 	0.10489 0.77746 0.66140 0.06100
H 	H 	0.09310 0.76890 0.65840 0.00100
C 	C 	0.13862 0.73237 0.66699 0.06300
H 	H 	0.14890 0.74300 0.66590 -0.00100
C 	C 	0.13834 0.72060 0.68460 -0.10300
H 	H 	0.14810 0.72310 0.69550 0.06800
C 	C 	0.12333 0.70470 0.68640 0.00900
H 	H 	0.12290 0.69590 0.69840 0.03700
C 	C 	0.10924 0.70217 0.67016 -0.05200
C 	C 	0.11085 0.71498 0.65269 0.04200
H 	H 	0.10130 0.71300 0.64150 0.01100
C 	C 	0.09302 0.68559 0.67092 0.13500
C 	C 	0.07478 0.74941 0.62389 0.10800
N 	N 	0.23525 0.84096 0.63308 -0.22300
N 	N 	0.10699 0.86285 0.72554 -0.26100
N 	N 	0.15242 0.87503 0.73449 -0.22400
N 	N 	0.15582 0.82960 0.68909 -0.15100
N 	N 	0.19029 0.83966 0.67975 -0.15000
N 	N 	0.17387 0.81113 0.66237 -0.15100
N 	N 	0.12185 0.77568 0.64925 -0.22900
N 	N 	0.09238 0.75119 0.62324 -0.26400
N 	N 	0.12524 0.72991 0.65103 -0.22900
N 	N 	0.09428 0.67169 0.68603 -0.15200
S 	S 	0.07812 0.83696 0.70537 -0.05900
S 	S 	0.04928 0.74784 0.62654 -0.06200
C 	C 	0.21989 0.34028 0.14742 0.03300
H 	H 	0.21730 0.35240 0.15560 0.01400
C 	C 	0.20750 0.32258 0.15086 -0.04600
C 	C 	0.21138 0.30477 0.13928 0.00600
H 	H 	0.20300 0.29260 0.14080 0.03800
C 	C 	0.22810 0.30514 0.12518 -0.10000
H 	H 	0.23180 0.29290 0.11760 0.06600
C 	C 	0.23907 0.32314 0.12242 0.06100
H 	H 	0.25010 0.32320 0.11240 -0.00000
C 	C 	0.09533 0.35226 0.21662 0.09800
C 	C 	0.16843 0.38852 0.23679 0.05700
H 	H 	0.16710 0.39940 0.24680 -0.00000
C 	C 	0.18666 0.38740 0.22538 -0.09600
H 	H 	0.19780 0.39690 0.22800 0.06300
C 	C 	0.18858 0.37221 0.20993 0.00400
H 	H 	0.20070 0.37160 0.20130 0.03800
C 	C 	0.17226 0.35790 0.20751 -0.04500
C 	C 	0.15472 0.35974 0.21999 0.03100
H 	H 	0.14380 0.34980 0.21830 0.01700
C 	C 	0.17282 0.34132 0.19123 0.13400
C 	C 	0.18970 0.32433 0.16539 0.13300
C 	C 	0.15684 0.31489 0.17411 0.13300
C 	C 	0.13822 0.28768 0.15399 0.03900
H 	H 	0.15060 0.28630 0.14580 0.01200
C 	C 	0.13815 0.30221 0.17048 -0.05100
C 	C 	0.12040 0.30411 0.18265 0.00900
H 	H 	0.11970 0.31400 0.19380 0.03700
C 	C 	0.10358 0.29109 0.17808 -0.10000
H 	H 	0.09130 0.29160 0.18640 0.06700
C 	C 	0.10489 0.27746 0.16140 0.06100
H 	H 	0.09310 0.26890 0.15840 0.00100
C 	C 	0.13862 0.23237 0.16699 0.06300
H 	H 	0.14890 0.24300 0.16590 -0.00100
C 	C 	0.13834 0.22060 0.18460 -0.10300
H 	H 	0.14810 0.22310 0.19550 0.06800
C 	C 	0.12333 0.20470 0.18640 0.00900
H 	H 	0.12290 0.19590 0.19840 0.03700
C 	C 	0.10924 0.20217 0.17016 -0.05200
C 	C 	0.11085 0.21498 0.15269 0.04200
H 	H 	0.10130 0.21300 0.14150 0.01100
C 	C 	0.09302 0.18559 0.17092 0.13500
C 	C 	0.07478 0.24941 0.12389 0.10800
N 	N 	0.23525 0.34096 0.13308 -0.22300
N 	N 	0.10699 0.36285 0.22554 -0.26100
N 	N 	0.15242 0.37503 0.23449 -0.22400
N 	N 	0.15582 0.32960 0.18909 -0.15100
N 	N 	0.19029 0.33966 0.17975 -0.15000
N 	N 	0.17387 0.31113 0.16237 -0.15100
N 	N 	0.12185 0.27568 0.14925 -0.22900
N 	N 	0.09238 0.25119 0.12324 -0.26400
N 	N 	0.12524 0.22991 0.15103 -0.22900
N 	N 	0.09428 0.17169 0.18603 -0.15200
S 	S 	0.07812 0.33696 0.20537 -0.05900
S 	S 	0.04928 0.24784 0.12654 -0.06200
C 	C 	0.03011 0.34028 0.10258 0.03300
H 	H 	0.03270 0.35240 0.09440 0.01400
C 	C 	0.04250 0.32258 0.09914 -0.04600
C 	C 	0.03862 0.30477 0.11072 0.00600
H 	H 	0.04700 0.29260 0.10920 0.03800
C 	C 	0.02190 0.30514 0.12482 -0.10000
H 	H 	0.01820 0.29290 0.13240 0.06600
C 	C 	0.01093 0.32314 0.12758 0.06100
H 	H 	0.99990 0.32320 0.13760 -0.00000
C 	C 	0.15467 0.35226 0.03338 0.09800
C 	C 	0.08157 0.38852 0.01321 0.05700
H 	H 	0.08290 0.39940 0.00320 -0.00000
C 	C 	0.06334 0.38740 0.02462 -0.09600
H 	H 	0.05220 0.39690 0.02200 0.06300
C 	C 	0.06142 0.37221 0.04007 0.00400
H 	H 	0.04930 0.37160 0.04870 0.03800
C 	C 	0.07774 0.35790 0.04249 -0.04500
C 	C 	0.09528 0.35974 0.03001 0.03100
H 	H 	0.10620 0.34980 0.03170 0.01700
C 	C 	0.07718 0.34132 0.05877 0.13400
C 	C 	0.06030 0.32433 0.08461 0.13300
C 	C 	0.09316 0.31489 0.07589 0.13300
C 	C 	0.11178 0.28768 0.09601 0.03900
H 	H 	0.09940 0.28630 0.10420 0.01200
C 	C 	0.11185 0.30221 0.07952 -0.05100
C 	C 	0.12960 0.30411 0.06735 0.00900
H 	H 	0.13030 0.31400 0.05620 0.03700
C 	C 	0.14642 0.29109 0.07192 -0.10000
H 	H 	0.15870 0.29160 0.06360 0.06700
C 	C 	0.14511 0.27746 0.08860 0.06100
H 	H 	0.15690 0.26890 0.09160 0.00100
C 	C 	0.11138 0.23237 0.08301 0.06300
H 	H 	0.10110 0.24300 0.08410 -0.00100
C 	C 	0.11166 0.22060 0.06540 -0.10300
H 	H 	0.10190 0.22310 0.05450 0.06800
C 	C 	0.12667 0.20470 0.06360 0.00900
H 	H 	0.12710 0.19590 0.05160 0.03700
C 	C 	0.14076 0.20217 0.07984 -0.05200
C 	C 	0.13915 0.21498 0.09731 0.04200
H 	H 	0.14870 0.21300 0.10850 0.01100
C 	C 	0.15698 0.18559 0.07908 0.13500
C 	C 	0.17522 0.24941 0.12611 0.10800
N 	N 	0.01475 0.34096 0.11692 -0.22300
N 	N 	0.14301 0.36285 0.02446 -0.26100
N 	N 	0.09758 0.37503 0.01551 -0.22400
N 	N 	0.09418 0.32960 0.06091 -0.15100
N 	N 	0.05971 0.33966 0.07025 -0.15000
N 	N 	0.07613 0.31113 0.08763 -0.15100
N 	N 	0.12815 0.27568 0.10075 -0.22900
N 	N 	0.15762 0.25119 0.12676 -0.26400
N 	N 	0.12476 0.22991 0.09897 -0.22900
N 	N 	0.15572 0.17169 0.06397 -0.15200
S 	S 	0.17188 0.33696 0.04463 -0.05900
S 	S 	0.20072 0.24784 0.12346 -0.06200
C 	C 	0.03011 0.84028 0.60258 0.03300
H 	H 	0.03270 0.85240 0.59440 0.01400
C 	C 	0.04250 0.82258 0.59914 -0.04600
C 	C 	0.03862 0.80477 0.61072 0.00600
H 	H 	0.04700 0.79260 0.60920 0.03800
C 	C 	0.02190 0.80514 0.62482 -0.10000
H 	H 	0.01820 0.79290 0.63240 0.06600
C 	C 	0.01093 0.82314 0.62758 0.06100
H 	H 	0.99990 0.82320 0.63760 -0.00000
C 	C 	0.15467 0.85226 0.53338 0.09800
C 	C 	0.08157 0.88852 0.51321 0.05700
H 	H 	0.08290 0.89940 0.50320 -0.00000
C 	C 	0.06334 0.88740 0.52462 -0.09600
H 	H 	0.05220 0.89690 0.52200 0.06300
C 	C 	0.06142 0.87221 0.54007 0.00400
H 	H 	0.04930 0.87160 0.54870 0.03800
C 	C 	0.07774 0.85790 0.54249 -0.04500
C 	C 	0.09528 0.85974 0.53001 0.03100
H 	H 	0.10620 0.84980 0.53170 0.01700
C 	C 	0.07718 0.84132 0.55877 0.13400
C 	C 	0.06030 0.82433 0.58461 0.13300
C 	C 	0.09316 0.81489 0.57589 0.13300
C 	C 	0.11178 0.78768 0.59601 0.03900
H 	H 	0.09940 0.78630 0.60420 0.01200
C 	C 	0.11185 0.80221 0.57952 -0.05100
C 	C 	0.12960 0.80411 0.56735 0.00900
H 	H 	0.13030 0.81400 0.55620 0.03700
C 	C 	0.14642 0.79109 0.57192 -0.10000
H 	H 	0.15870 0.79160 0.56360 0.06700
C 	C 	0.14511 0.77746 0.58860 0.06100
H 	H 	0.15690 0.76890 0.59160 0.00100
C 	C 	0.11138 0.73237 0.58301 0.06300
H 	H 	0.10110 0.74300 0.58410 -0.00100
C 	C 	0.11166 0.72060 0.56540 -0.10300
H 	H 	0.10190 0.72310 0.55450 0.06800
C 	C 	0.12667 0.70470 0.56360 0.00900
H 	H 	0.12710 0.69590 0.55160 0.03700
C 	C 	0.14076 0.70217 0.57984 -0.05200
C 	C 	0.13915 0.71498 0.59731 0.04200
H 	H 	0.14870 0.71300 0.60850 0.01100
C 	C 	0.15698 0.68559 0.57908 0.13500
C 	C 	0.17522 0.74941 0.62611 0.10800
N 	N 	0.01475 0.84096 0.61692 -0.22300
N 	N 	0.14301 0.86285 0.52446 -0.26100
N 	N 	0.09758 0.87503 0.51551 -0.22400
N 	N 	0.09418 0.82960 0.56091 -0.15100
N 	N 	0.05971 0.83966 0.57025 -0.15000
N 	N 	0.07613 0.81113 0.58763 -0.15100
N 	N 	0.12815 0.77568 0.60075 -0.22900
N 	N 	0.15762 0.75119 0.62676 -0.26400
N 	N 	0.12476 0.72991 0.59897 -0.22900
N 	N 	0.15572 0.67169 0.56397 -0.15200
S 	S 	0.17188 0.83696 0.54463 -0.05900
S 	S 	0.20072 0.74784 0.62346 -0.06200
C 	C 	0.53011 0.34028 0.60258 0.03300
H 	H 	0.53270 0.35240 0.59440 0.01400
C 	C 	0.54250 0.32258 0.59914 -0.04600
C 	C 	0.53862 0.30477 0.61072 0.00600
H 	H 	0.54700 0.29260 0.60920 0.03800
C 	C 	0.52190 0.30514 0.62482 -0.10000
H 	H 	0.51820 0.29290 0.63240 0.06600
C 	C 	0.51093 0.32314 0.62758 0.06100
H 	H 	0.49990 0.32320 0.63760 -0.00000
C 	C 	0.65467 0.35226 0.53338 0.09800
C 	C 	0.58157 0.38852 0.51321 0.05700
H 	H 	0.58290 0.39940 0.50320 -0.00000
C 	C 	0.56334 0.38740 0.52462 -0.09600
H 	H 	0.55220 0.39690 0.52200 0.06300
C 	C 	0.56142 0.37221 0.54007 0.00400
H 	H 	0.54930 0.37160 0.54870 0.03800
C 	C 	0.57774 0.35790 0.54249 -0.04500
C 	C 	0.59528 0.35974 0.53001 0.03100
H 	H 	0.60620 0.34980 0.53170 0.01700
C 	C 	0.57718 0.34132 0.55877 0.13400
C 	C 	0.56030 0.32433 0.58461 0.13300
C 	C 	0.59316 0.31489 0.57589 0.13300
C 	C 	0.61178 0.28768 0.59601 0.03900
H 	H 	0.59940 0.28630 0.60420 0.01200
C 	C 	0.61185 0.30221 0.57952 -0.05100
C 	C 	0.62960 0.30411 0.56735 0.00900
H 	H 	0.63030 0.31400 0.55620 0.03700
C 	C 	0.64642 0.29109 0.57192 -0.10000
H 	H 	0.65870 0.29160 0.56360 0.06700
C 	C 	0.64511 0.27746 0.58860 0.06100
H 	H 	0.65690 0.26890 0.59160 0.00100
C 	C 	0.61138 0.23237 0.58301 0.06300
H 	H 	0.60110 0.24300 0.58410 -0.00100
C 	C 	0.61166 0.22060 0.56540 -0.10300
H 	H 	0.60190 0.22310 0.55450 0.06800
C 	C 	0.62667 0.20470 0.56360 0.00900
H 	H 	0.62710 0.19590 0.55160 0.03700
C 	C 	0.64076 0.20217 0.57984 -0.05200
C 	C 	0.63915 0.21498 0.59731 0.04200
H 	H 	0.64870 0.21300 0.60850 0.01100
C 	C 	0.65698 0.18559 0.57908 0.13500
C 	C 	0.67522 0.24941 0.62611 0.10800
N 	N 	0.51475 0.34096 0.61692 -0.22300
N 	N 	0.64301 0.36285 0.52446 -0.26100
N 	N 	0.59758 0.37503 0.51551 -0.22400
N 	N 	0.59418 0.32960 0.56091 -0.15100
N 	N 	0.55971 0.33966 0.57025 -0.15000
N 	N 	0.57613 0.31113 0.58763 -0.15100
N 	N 	0.62815 0.27568 0.60075 -0.22900
N 	N 	0.65762 0.25119 0.62676 -0.26400
N 	N 	0.62476 0.22991 0.59897 -0.22900
N 	N 	0.65572 0.17169 0.56397 -0.15200
S 	S 	0.67188 0.33696 0.54463 -0.05900
S 	S 	0.70072 0.24784 0.62346 -0.06200
C 	C 	0.53011 0.84028 0.10258 0.03300
H 	H 	0.53270 0.85240 0.09440 0.01400
C 	C 	0.54250 0.82258 0.09914 -0.04600
C 	C 	0.53862 0.80477 0.11072 0.00600
H 	H 	0.54700 0.79260 0.10920 0.03800
C 	C 	0.52190 0.80514 0.12482 -0.10000
H 	H 	0.51820 0.79290 0.13240 0.06600
C 	C 	0.51093 0.82314 0.12758 0.06100
H 	H 	0.49990 0.82320 0.13760 -0.00000
C 	C 	0.65467 0.85226 0.03338 0.09800
C 	C 	0.58157 0.88852 0.01321 0.05700
H 	H 	0.58290 0.89940 0.00320 -0.00000
C 	C 	0.56334 0.88740 0.02462 -0.09600
H 	H 	0.55220 0.89690 0.02200 0.06300
C 	C 	0.56142 0.87221 0.04007 0.00400
H 	H 	0.54930 0.87160 0.04870 0.03800
C 	C 	0.57774 0.85790 0.04249 -0.04500
C 	C 	0.59528 0.85974 0.03001 0.03100
H 	H 	0.60620 0.84980 0.03170 0.01700
C 	C 	0.57718 0.84132 0.05877 0.13400
C 	C 	0.56030 0.82433 0.08461 0.13300
C 	C 	0.59316 0.81489 0.07589 0.13300
C 	C 	0.61178 0.78768 0.09601 0.03900
H 	H 	0.59940 0.78630 0.10420 0.01200
C 	C 	0.61185 0.80221 0.07952 -0.05100
C 	C 	0.62960 0.80411 0.06735 0.00900
H 	H 	0.63030 0.81400 0.05620 0.03700
C 	C 	0.64642 0.79109 0.07192 -0.10000
H 	H 	0.65870 0.79160 0.06360 0.06700
C 	C 	0.64511 0.77746 0.08860 0.06100
H 	H 	0.65690 0.76890 0.09160 0.00100
C 	C 	0.61138 0.73237 0.08301 0.06300
H 	H 	0.60110 0.74300 0.08410 -0.00100
C 	C 	0.61166 0.72060 0.06540 -0.10300
H 	H 	0.60190 0.72310 0.05450 0.06800
C 	C 	0.62667 0.70470 0.06360 0.00900
H 	H 	0.62710 0.69590 0.05160 0.03700
C 	C 	0.64076 0.70217 0.07984 -0.05200
C 	C 	0.63915 0.71498 0.09731 0.04200
H 	H 	0.64870 0.71300 0.10850 0.01100
C 	C 	0.65698 0.68559 0.07908 0.13500
C 	C 	0.67522 0.74941 0.12611 0.10800
N 	N 	0.51475 0.84096 0.11692 -0.22300
N 	N 	0.64301 0.86285 0.02446 -0.26100
N 	N 	0.59758 0.87503 0.01551 -0.22400
N 	N 	0.59418 0.82960 0.06091 -0.15100
N 	N 	0.55971 0.83966 0.07025 -0.15000
N 	N 	0.57613 0.81113 0.08763 -0.15100
N 	N 	0.62815 0.77568 0.10075 -0.22900
N 	N 	0.65762 0.75119 0.12676 -0.26400
N 	N 	0.62476 0.72991 0.09897 -0.22900
N 	N 	0.65572 0.67169 0.06397 -0.15200
S 	S 	0.67188 0.83696 0.04463 -0.05900
S 	S 	0.70072 0.74784 0.12346 -0.06200
C 	C 	0.53011 0.90972 0.64742 0.03300
H 	H 	0.53270 0.89760 0.65560 0.01400
C 	C 	0.54250 0.92742 0.65086 -0.04600
C 	C 	0.53862 0.94523 0.63928 0.00600
H 	H 	0.54700 0.95740 0.64080 0.03800
C 	C 	0.52190 0.94486 0.62518 -0.10000
H 	H 	0.51820 0.95710 0.61760 0.06600
C 	C 	0.51093 0.92686 0.62242 0.06100
H 	H 	0.49990 0.92680 0.61240 -0.00000
C 	C 	0.65467 0.89774 0.71662 0.09800
C 	C 	0.58157 0.86148 0.73679 0.05700
H 	H 	0.58290 0.85060 0.74680 -0.00000
C 	C 	0.56334 0.86260 0.72538 -0.09600
H 	H 	0.55220 0.85310 0.72800 0.06300
C 	C 	0.56142 0.87779 0.70993 0.00400
H 	H 	0.54930 0.87840 0.70130 0.03800
C 	C 	0.57774 0.89210 0.70751 -0.04500
C 	C 	0.59528 0.89026 0.71999 0.03100
H 	H 	0.60620 0.90020 0.71830 0.01700
C 	C 	0.57718 0.90868 0.69123 0.13400
C 	C 	0.56030 0.92567 0.66539 0.13300
C 	C 	0.59316 0.93511 0.67411 0.13300
C 	C 	0.61178 0.96232 0.65399 0.03900
H 	H 	0.59940 0.96370 0.64580 0.01200
C 	C 	0.61185 0.94779 0.67048 -0.05100
C 	C 	0.62960 0.94589 0.68265 0.00900
H 	H 	0.63030 0.93600 0.69380 0.03700
C 	C 	0.64642 0.95891 0.67808 -0.10000
H 	H 	0.65870 0.95840 0.68640 0.06700
C 	C 	0.64511 0.97254 0.66140 0.06100
H 	H 	0.65690 0.98110 0.65840 0.00100
C 	C 	0.61138 0.01763 0.66699 0.06300
H 	H 	0.60110 0.00700 0.66590 -0.00100
C 	C 	0.61166 0.02940 0.68460 -0.10300
H 	H 	0.60190 0.02690 0.69550 0.06800
C 	C 	0.62667 0.04530 0.68640 0.00900
H 	H 	0.62710 0.05410 0.69840 0.03700
C 	C 	0.64076 0.04783 0.67016 -0.05200
C 	C 	0.63915 0.03502 0.65269 0.04200
H 	H 	0.64870 0.03700 0.64150 0.01100
C 	C 	0.65698 0.06441 0.67092 0.13500
C 	C 	0.67522 0.00059 0.62389 0.10800
N 	N 	0.51475 0.90904 0.63308 -0.22300
N 	N 	0.64301 0.88715 0.72554 -0.26100
N 	N 	0.59758 0.87497 0.73449 -0.22400
N 	N 	0.59418 0.92040 0.68909 -0.15100
N 	N 	0.55971 0.91034 0.67975 -0.15000
N 	N 	0.57613 0.93887 0.66237 -0.15100
N 	N 	0.62815 0.97432 0.64925 -0.22900
N 	N 	0.65762 0.99881 0.62324 -0.26400
N 	N 	0.62476 0.02009 0.65103 -0.22900
N 	N 	0.65572 0.07831 0.68603 -0.15200
S 	S 	0.67188 0.91304 0.70537 -0.05900
S 	S 	0.70072 0.00216 0.62654 -0.06200
C 	C 	0.53011 0.40972 0.14742 0.03300
H 	H 	0.53270 0.39760 0.15560 0.01400
C 	C 	0.54250 0.42742 0.15086 -0.04600
C 	C 	0.53862 0.44523 0.13928 0.00600
H 	H 	0.54700 0.45740 0.14080 0.03800
C 	C 	0.52190 0.44486 0.12518 -0.10000
H 	H 	0.51820 0.45710 0.11760 0.06600
C 	C 	0.51093 0.42686 0.12242 0.06100
H 	H 	0.49990 0.42680 0.11240 -0.00000
C 	C 	0.65467 0.39774 0.21662 0.09800
C 	C 	0.58157 0.36148 0.23679 0.05700
H 	H 	0.58290 0.35060 0.24680 -0.00000
C 	C 	0.56334 0.36260 0.22538 -0.09600
H 	H 	0.55220 0.35310 0.22800 0.06300
C 	C 	0.56142 0.37779 0.20993 0.00400
H 	H 	0.54930 0.37840 0.20130 0.03800
C 	C 	0.57774 0.39210 0.20751 -0.04500
C 	C 	0.59528 0.39026 0.21999 0.03100
H 	H 	0.60620 0.40020 0.21830 0.01700
C 	C 	0.57718 0.40868 0.19123 0.13400
C 	C 	0.56030 0.42567 0.16539 0.13300
C 	C 	0.59316 0.43511 0.17411 0.13300
C 	C 	0.61178 0.46232 0.15399 0.03900
H 	H 	0.59940 0.46370 0.14580 0.01200
C 	C 	0.61185 0.44779 0.17048 -0.05100
C 	C 	0.62960 0.44589 0.18265 0.00900
H 	H 	0.63030 0.43600 0.19380 0.03700
C 	C 	0.64642 0.45891 0.17808 -0.10000
H 	H 	0.65870 0.45840 0.18640 0.06700
C 	C 	0.64511 0.47254 0.16140 0.06100
H 	H 	0.65690 0.48110 0.15840 0.00100
C 	C 	0.61138 0.51763 0.16699 0.06300
H 	H 	0.60110 0.50700 0.16590 -0.00100
C 	C 	0.61166 0.52940 0.18460 -0.10300
H 	H 	0.60190 0.52690 0.19550 0.06800
C 	C 	0.62667 0.54530 0.18640 0.00900
H 	H 	0.62710 0.55410 0.19840 0.03700
C 	C 	0.64076 0.54783 0.17016 -0.05200
C 	C 	0.63915 0.53502 0.15269 0.04200
H 	H 	0.64870 0.53700 0.14150 0.01100
C 	C 	0.65698 0.56441 0.17092 0.13500
C 	C 	0.67522 0.50059 0.12389 0.10800
N 	N 	0.51475 0.40904 0.13308 -0.22300
N 	N 	0.64301 0.38715 0.22554 -0.26100
N 	N 	0.59758 0.37497 0.23449 -0.22400
N 	N 	0.59418 0.42040 0.18909 -0.15100
N 	N 	0.55971 0.41034 0.17975 -0.15000
N 	N 	0.57613 0.43887 0.16237 -0.15100
N 	N 	0.62815 0.47432 0.14925 -0.22900
N 	N 	0.65762 0.49881 0.12324 -0.26400
N 	N 	0.62476 0.52009 0.15103 -0.22900
N 	N 	0.65572 0.57831 0.18603 -0.15200
S 	S 	0.67188 0.41304 0.20537 -0.05900
S 	S 	0.70072 0.50216 0.12654 -0.06200
C 	C 	0.03011 0.90972 0.14742 0.03300
H 	H 	0.03270 0.89760 0.15560 0.01400
C 	C 	0.04250 0.92742 0.15086 -0.04600
C 	C 	0.03862 0.94523 0.13928 0.00600
H 	H 	0.04700 0.95740 0.14080 0.03800
C 	C 	0.02190 0.94486 0.12518 -0.10000
H 	H 	0.01820 0.95710 0.11760 0.06600
C 	C 	0.01093 0.92686 0.12242 0.06100
H 	H 	0.99990 0.92680 0.11240 -0.00000
C 	C 	0.15467 0.89774 0.21662 0.09800
C 	C 	0.08157 0.86148 0.23679 0.05700
H 	H 	0.08290 0.85060 0.24680 -0.00000
C 	C 	0.06334 0.86260 0.22538 -0.09600
H 	H 	0.05220 0.85310 0.22800 0.06300
C 	C 	0.06142 0.87779 0.20993 0.00400
H 	H 	0.04930 0.87840 0.20130 0.03800
C 	C 	0.07774 0.89210 0.20751 -0.04500
C 	C 	0.09528 0.89026 0.21999 0.03100
H 	H 	0.10620 0.90020 0.21830 0.01700
C 	C 	0.07718 0.90868 0.19123 0.13400
C 	C 	0.06030 0.92567 0.16539 0.13300
C 	C 	0.09316 0.93511 0.17411 0.13300
C 	C 	0.11178 0.96232 0.15399 0.03900
H 	H 	0.09940 0.96370 0.14580 0.01200
C 	C 	0.11185 0.94779 0.17048 -0.05100
C 	C 	0.12960 0.94589 0.18265 0.00900
H 	H 	0.13030 0.93600 0.19380 0.03700
C 	C 	0.14642 0.95891 0.17808 -0.10000
H 	H 	0.15870 0.95840 0.18640 0.06700
C 	C 	0.14511 0.97254 0.16140 0.06100
H 	H 	0.15690 0.98110 0.15840 0.00100
C 	C 	0.11138 0.01763 0.16699 0.06300
H 	H 	0.10110 0.00700 0.16590 -0.00100
C 	C 	0.11166 0.02940 0.18460 -0.10300
H 	H 	0.10190 0.02690 0.19550 0.06800
C 	C 	0.12667 0.04530 0.18640 0.00900
H 	H 	0.12710 0.05410 0.19840 0.03700
C 	C 	0.14076 0.04783 0.17016 -0.05200
C 	C 	0.13915 0.03502 0.15269 0.04200
H 	H 	0.14870 0.03700 0.14150 0.01100
C 	C 	0.15698 0.06441 0.17092 0.13500
C 	C 	0.17522 0.00059 0.12389 0.10800
N 	N 	0.01475 0.90904 0.13308 -0.22300
N 	N 	0.14301 0.88715 0.22554 -0.26100
N 	N 	0.09758 0.87497 0.23449 -0.22400
N 	N 	0.09418 0.92040 0.18909 -0.15100
N 	N 	0.05971 0.91034 0.17975 -0.15000
N 	N 	0.07613 0.93887 0.16237 -0.15100
N 	N 	0.12815 0.97432 0.14925 -0.22900
N 	N 	0.15762 0.99881 0.12324 -0.26400
N 	N 	0.12476 0.02009 0.15103 -0.22900
N 	N 	0.15572 0.07831 0.18603 -0.15200
S 	S 	0.17188 0.91304 0.20537 -0.05900
S 	S 	0.20072 0.00216 0.12654 -0.06200
C 	C 	0.03011 0.40972 0.64742 0.03300
H 	H 	0.03270 0.39760 0.65560 0.01400
C 	C 	0.04250 0.42742 0.65086 -0.04600
C 	C 	0.03862 0.44523 0.63928 0.00600
H 	H 	0.04700 0.45740 0.64080 0.03800
C 	C 	0.02190 0.44486 0.62518 -0.10000
H 	H 	0.01820 0.45710 0.61760 0.06600
C 	C 	0.01093 0.42686 0.62242 0.06100
H 	H 	0.99990 0.42680 0.61240 -0.00000
C 	C 	0.15467 0.39774 0.71662 0.09800
C 	C 	0.08157 0.36148 0.73679 0.05700
H 	H 	0.08290 0.35060 0.74680 -0.00000
C 	C 	0.06334 0.36260 0.72538 -0.09600
H 	H 	0.05220 0.35310 0.72800 0.06300
C 	C 	0.06142 0.37779 0.70993 0.00400
H 	H 	0.04930 0.37840 0.70130 0.03800
C 	C 	0.07774 0.39210 0.70751 -0.04500
C 	C 	0.09528 0.39026 0.71999 0.03100
H 	H 	0.10620 0.40020 0.71830 0.01700
C 	C 	0.07718 0.40868 0.69123 0.13400
C 	C 	0.06030 0.42567 0.66539 0.13300
C 	C 	0.09316 0.43511 0.67411 0.13300
C 	C 	0.11178 0.46232 0.65399 0.03900
H 	H 	0.09940 0.46370 0.64580 0.01200
C 	C 	0.11185 0.44779 0.67048 -0.05100
C 	C 	0.12960 0.44589 0.68265 0.00900
H 	H 	0.13030 0.43600 0.69380 0.03700
C 	C 	0.14642 0.45891 0.67808 -0.10000
H 	H 	0.15870 0.45840 0.68640 0.06700
C 	C 	0.14511 0.47254 0.66140 0.06100
H 	H 	0.15690 0.48110 0.65840 0.00100
C 	C 	0.11138 0.51763 0.66699 0.06300
H 	H 	0.10110 0.50700 0.66590 -0.00100
C 	C 	0.11166 0.52940 0.68460 -0.10300
H 	H 	0.10190 0.52690 0.69550 0.06800
C 	C 	0.12667 0.54530 0.68640 0.00900
H 	H 	0.12710 0.55410 0.69840 0.03700
C 	C 	0.14076 0.54783 0.67016 -0.05200
C 	C 	0.13915 0.53502 0.65269 0.04200
H 	H 	0.14870 0.53700 0.64150 0.01100
C 	C 	0.15698 0.56441 0.67092 0.13500
C 	C 	0.17522 0.50059 0.62389 0.10800
N 	N 	0.01475 0.40904 0.63308 -0.22300
N 	N 	0.14301 0.38715 0.72554 -0.26100
N 	N 	0.09758 0.37497 0.73449 -0.22400
N 	N 	0.09418 0.42040 0.68909 -0.15100
N 	N 	0.05971 0.41034 0.67975 -0.15000
N 	N 	0.07613 0.43887 0.66237 -0.15100
N 	N 	0.12815 0.47432 0.64925 -0.22900
N 	N 	0.15762 0.49881 0.62324 -0.26400
N 	N 	0.12476 0.52009 0.65103 -0.22900
N 	N 	0.15572 0.57831 0.68603 -0.15200
S 	S 	0.17188 0.41304 0.70537 -0.05900
S 	S 	0.20072 0.50216 0.62654 -0.06200
C 	C 	0.60258 0.21989 0.40972 0.03300
H 	H 	0.59440 0.21730 0.39760 0.01400
C 	C 	0.59914 0.20750 0.42742 -0.04600
C 	C 	0.61072 0.21138 0.44523 0.00600
H 	H 	0.60920 0.20300 0.45740 0.03800
C 	C 	0.62482 0.22810 0.44486 -0.10000
H 	H 	0.63240 0.23180 0.45710 0.06600
C 	C 	0.62758 0.23907 0.42686 0.06100
H 	H 	0.63760 0.25010 0.42680 -0.00000
C 	C 	0.53338 0.09533 0.39774 0.09800
C 	C 	0.51321 0.16843 0.36148 0.05700
H 	H 	0.50320 0.16710 0.35060 -0.00000
C 	C 	0.52462 0.18666 0.36260 -0.09600
H 	H 	0.52200 0.19780 0.35310 0.06300
C 	C 	0.54007 0.18858 0.37779 0.00400
H 	H 	0.54870 0.20070 0.37840 0.03800
C 	C 	0.54249 0.17226 0.39210 -0.04500
C 	C 	0.53001 0.15472 0.39026 0.03100
H 	H 	0.53170 0.14380 0.40020 0.01700
C 	C 	0.55877 0.17282 0.40868 0.13400
C 	C 	0.58461 0.18970 0.42567 0.13300
C 	C 	0.57589 0.15684 0.43511 0.13300
C 	C 	0.59601 0.13822 0.46232 0.03900
H 	H 	0.60420 0.15060 0.46370 0.01200
C 	C 	0.57952 0.13815 0.44779 -0.05100
C 	C 	0.56735 0.12040 0.44589 0.00900
H 	H 	0.55620 0.11970 0.43600 0.03700
C 	C 	0.57192 0.10358 0.45891 -0.10000
H 	H 	0.56360 0.09130 0.45840 0.06700
C 	C 	0.58860 0.10489 0.47254 0.06100
H 	H 	0.59160 0.09310 0.48110 0.00100
C 	C 	0.58301 0.13862 0.51763 0.06300
H 	H 	0.58410 0.14890 0.50700 -0.00100
C 	C 	0.56540 0.13834 0.52940 -0.10300
H 	H 	0.55450 0.14810 0.52690 0.06800
C 	C 	0.56360 0.12333 0.54530 0.00900
H 	H 	0.55160 0.12290 0.55410 0.03700
C 	C 	0.57984 0.10924 0.54783 -0.05200
C 	C 	0.59731 0.11085 0.53502 0.04200
H 	H 	0.60850 0.10130 0.53700 0.01100
C 	C 	0.57908 0.09302 0.56441 0.13500
C 	C 	0.62611 0.07478 0.50059 0.10800
N 	N 	0.61692 0.23525 0.40904 -0.22300
N 	N 	0.52446 0.10699 0.38715 -0.26100
N 	N 	0.51551 0.15242 0.37497 -0.22400
N 	N 	0.56091 0.15582 0.42040 -0.15100
N 	N 	0.57025 0.19029 0.41034 -0.15000
N 	N 	0.58763 0.17387 0.43887 -0.15100
N 	N 	0.60075 0.12185 0.47432 -0.22900
N 	N 	0.62676 0.09238 0.49881 -0.26400
N 	N 	0.59897 0.12524 0.52009 -0.22900
N 	N 	0.56397 0.09428 0.57831 -0.15200
S 	S 	0.54463 0.07812 0.41304 -0.05900
S 	S 	0.62346 0.04928 0.50216 -0.06200
C 	C 	0.60258 0.71989 0.90972 0.03300
H 	H 	0.59440 0.71730 0.89760 0.01400
C 	C 	0.59914 0.70750 0.92742 -0.04600
C 	C 	0.61072 0.71138 0.94523 0.00600
H 	H 	0.60920 0.70300 0.95740 0.03800
C 	C 	0.62482 0.72810 0.94486 -0.10000
H 	H 	0.63240 0.73180 0.95710 0.06600
C 	C 	0.62758 0.73907 0.92686 0.06100
H 	H 	0.63760 0.75010 0.92680 -0.00000
C 	C 	0.53338 0.59533 0.89774 0.09800
C 	C 	0.51321 0.66843 0.86148 0.05700
H 	H 	0.50320 0.66710 0.85060 -0.00000
C 	C 	0.52462 0.68666 0.86260 -0.09600
H 	H 	0.52200 0.69780 0.85310 0.06300
C 	C 	0.54007 0.68858 0.87779 0.00400
H 	H 	0.54870 0.70070 0.87840 0.03800
C 	C 	0.54249 0.67226 0.89210 -0.04500
C 	C 	0.53001 0.65472 0.89026 0.03100
H 	H 	0.53170 0.64380 0.90020 0.01700
C 	C 	0.55877 0.67282 0.90868 0.13400
C 	C 	0.58461 0.68970 0.92567 0.13300
C 	C 	0.57589 0.65684 0.93511 0.13300
C 	C 	0.59601 0.63822 0.96232 0.03900
H 	H 	0.60420 0.65060 0.96370 0.01200
C 	C 	0.57952 0.63815 0.94779 -0.05100
C 	C 	0.56735 0.62040 0.94589 0.00900
H 	H 	0.55620 0.61970 0.93600 0.03700
C 	C 	0.57192 0.60358 0.95891 -0.10000
H 	H 	0.56360 0.59130 0.95840 0.06700
C 	C 	0.58860 0.60489 0.97254 0.06100
H 	H 	0.59160 0.59310 0.98110 0.00100
C 	C 	0.58301 0.63862 0.01763 0.06300
H 	H 	0.58410 0.64890 0.00700 -0.00100
C 	C 	0.56540 0.63834 0.02940 -0.10300
H 	H 	0.55450 0.64810 0.02690 0.06800
C 	C 	0.56360 0.62333 0.04530 0.00900
H 	H 	0.55160 0.62290 0.05410 0.03700
C 	C 	0.57984 0.60924 0.04783 -0.05200
C 	C 	0.59731 0.61085 0.03502 0.04200
H 	H 	0.60850 0.60130 0.03700 0.01100
C 	C 	0.57908 0.59302 0.06441 0.13500
C 	C 	0.62611 0.57478 0.00059 0.10800
N 	N 	0.61692 0.73525 0.90904 -0.22300
N 	N 	0.52446 0.60699 0.88715 -0.26100
N 	N 	0.51551 0.65242 0.87497 -0.22400
N 	N 	0.56091 0.65582 0.92040 -0.15100
N 	N 	0.57025 0.69029 0.91034 -0.15000
N 	N 	0.58763 0.67387 0.93887 -0.15100
N 	N 	0.60075 0.62185 0.97432 -0.22900
N 	N 	0.62676 0.59238 0.99881 -0.26400
N 	N 	0.59897 0.62524 0.02009 -0.22900
N 	N 	0.56397 0.59428 0.07831 -0.15200
S 	S 	0.54463 0.57812 0.91304 -0.05900
S 	S 	0.62346 0.54928 0.00216 -0.06200
C 	C 	0.10258 0.21989 0.90972 0.03300
H 	H 	0.09440 0.21730 0.89760 0.01400
C 	C 	0.09914 0.20750 0.92742 -0.04600
C 	C 	0.11072 0.21138 0.94523 0.00600
H 	H 	0.10920 0.20300 0.95740 0.03800
C 	C 	0.12482 0.22810 0.94486 -0.10000
H 	H 	0.13240 0.23180 0.95710 0.06600
C 	C 	0.12758 0.23907 0.92686 0.06100
H 	H 	0.13760 0.25010 0.92680 -0.00000
C 	C 	0.03338 0.09533 0.89774 0.09800
C 	C 	0.01321 0.16843 0.86148 0.05700
H 	H 	0.00320 0.16710 0.85060 -0.00000
C 	C 	0.02462 0.18666 0.86260 -0.09600
H 	H 	0.02200 0.19780 0.85310 0.06300
C 	C 	0.04007 0.18858 0.87779 0.00400
H 	H 	0.04870 0.20070 0.87840 0.03800
C 	C 	0.04249 0.17226 0.89210 -0.04500
C 	C 	0.03001 0.15472 0.89026 0.03100
H 	H 	0.03170 0.14380 0.90020 0.01700
C 	C 	0.05877 0.17282 0.90868 0.13400
C 	C 	0.08461 0.18970 0.92567 0.13300
C 	C 	0.07589 0.15684 0.93511 0.13300
C 	C 	0.09601 0.13822 0.96232 0.03900
H 	H 	0.10420 0.15060 0.96370 0.01200
C 	C 	0.07952 0.13815 0.94779 -0.05100
C 	C 	0.06735 0.12040 0.94589 0.00900
H 	H 	0.05620 0.11970 0.93600 0.03700
C 	C 	0.07192 0.10358 0.95891 -0.10000
H 	H 	0.06360 0.09130 0.95840 0.06700
C 	C 	0.08860 0.10489 0.97254 0.06100
H 	H 	0.09160 0.09310 0.98110 0.00100
C 	C 	0.08301 0.13862 0.01763 0.06300
H 	H 	0.08410 0.14890 0.00700 -0.00100
C 	C 	0.06540 0.13834 0.02940 -0.10300
H 	H 	0.05450 0.14810 0.02690 0.06800
C 	C 	0.06360 0.12333 0.04530 0.00900
H 	H 	0.05160 0.12290 0.05410 0.03700
C 	C 	0.07984 0.10924 0.04783 -0.05200
C 	C 	0.09731 0.11085 0.03502 0.04200
H 	H 	0.10850 0.10130 0.03700 0.01100
C 	C 	0.07908 0.09302 0.06441 0.13500
C 	C 	0.12611 0.07478 0.00059 0.10800
N 	N 	0.11692 0.23525 0.90904 -0.22300
N 	N 	0.02446 0.10699 0.88715 -0.26100
N 	N 	0.01551 0.15242 0.87497 -0.22400
N 	N 	0.06091 0.15582 0.92040 -0.15100
N 	N 	0.07025 0.19029 0.91034 -0.15000
N 	N 	0.08763 0.17387 0.93887 -0.15100
N 	N 	0.10075 0.12185 0.97432 -0.22900
N 	N 	0.12676 0.09238 0.99881 -0.26400
N 	N 	0.09897 0.12524 0.02009 -0.22900
N 	N 	0.06397 0.09428 0.07831 -0.15200
S 	S 	0.04463 0.07812 0.91304 -0.05900
S 	S 	0.12346 0.04928 0.00216 -0.06200
C 	C 	0.10258 0.71989 0.40972 0.03300
H 	H 	0.09440 0.71730 0.39760 0.01400
C 	C 	0.09914 0.70750 0.42742 -0.04600
C 	C 	0.11072 0.71138 0.44523 0.00600
H 	H 	0.10920 0.70300 0.45740 0.03800
C 	C 	0.12482 0.72810 0.44486 -0.10000
H 	H 	0.13240 0.73180 0.45710 0.06600
C 	C 	0.12758 0.73907 0.42686 0.06100
H 	H 	0.13760 0.75010 0.42680 -0.00000
C 	C 	0.03338 0.59533 0.39774 0.09800
C 	C 	0.01321 0.66843 0.36148 0.05700
H 	H 	0.00320 0.66710 0.35060 -0.00000
C 	C 	0.02462 0.68666 0.36260 -0.09600
H 	H 	0.02200 0.69780 0.35310 0.06300
C 	C 	0.04007 0.68858 0.37779 0.00400
H 	H 	0.04870 0.70070 0.37840 0.03800
C 	C 	0.04249 0.67226 0.39210 -0.04500
C 	C 	0.03001 0.65472 0.39026 0.03100
H 	H 	0.03170 0.64380 0.40020 0.01700
C 	C 	0.05877 0.67282 0.40868 0.13400
C 	C 	0.08461 0.68970 0.42567 0.13300
C 	C 	0.07589 0.65684 0.43511 0.13300
C 	C 	0.09601 0.63822 0.46232 0.03900
H 	H 	0.10420 0.65060 0.46370 0.01200
C 	C 	0.07952 0.63815 0.44779 -0.05100
C 	C 	0.06735 0.62040 0.44589 0.00900
H 	H 	0.05620 0.61970 0.43600 0.03700
C 	C 	0.07192 0.60358 0.45891 -0.10000
H 	H 	0.06360 0.59130 0.45840 0.06700
C 	C 	0.08860 0.60489 0.47254 0.06100
H 	H 	0.09160 0.59310 0.48110 0.00100
C 	C 	0.08301 0.63862 0.51763 0.06300
H 	H 	0.08410 0.64890 0.50700 -0.00100
C 	C 	0.06540 0.63834 0.52940 -0.10300
H 	H 	0.05450 0.64810 0.52690 0.06800
C 	C 	0.06360 0.62333 0.54530 0.00900
H 	H 	0.05160 0.62290 0.55410 0.03700
C 	C 	0.07984 0.60924 0.54783 -0.05200
C 	C 	0.09731 0.61085 0.53502 0.04200
H 	H 	0.10850 0.60130 0.53700 0.01100
C 	C 	0.07908 0.59302 0.56441 0.13500
C 	C 	0.12611 0.57478 0.50059 0.10800
N 	N 	0.11692 0.73525 0.40904 -0.22300
N 	N 	0.02446 0.60699 0.38715 -0.26100
N 	N 	0.01551 0.65242 0.37497 -0.22400
N 	N 	0.06091 0.65582 0.42040 -0.15100
N 	N 	0.07025 0.69029 0.41034 -0.15000
N 	N 	0.08763 0.67387 0.43887 -0.15100
N 	N 	0.10075 0.62185 0.47432 -0.22900
N 	N 	0.12676 0.59238 0.49881 -0.26400
N 	N 	0.09897 0.62524 0.52009 -0.22900
N 	N 	0.06397 0.59428 0.57831 -0.15200
S 	S 	0.04463 0.57812 0.41304 -0.05900
S 	S 	0.12346 0.54928 0.50216 -0.06200
C 	C 	0.14742 0.71989 0.84028 0.03300
H 	H 	0.15560 0.71730 0.85240 0.01400
C 	C 	0.15086 0.70750 0.82258 -0.04600
C 	C 	0.13928 0.71138 0.80477 0.00600
H 	H 	0.14080 0.70300 0.79260 0.03800
C 	C 	0.12518 0.72810 0.80514 -0.10000
H 	H 	0.11760 0.73180 0.79290 0.06600
C 	C 	0.12242 0.73907 0.82314 0.06100
H 	H 	0.11240 0.75010 0.82320 -0.00000
C 	C 	0.21662 0.59533 0.85226 0.09800
C 	C 	0.23679 0.66843 0.88852 0.05700
H 	H 	0.24680 0.66710 0.89940 -0.00000
C 	C 	0.22538 0.68666 0.88740 -0.09600
H 	H 	0.22800 0.69780 0.89690 0.06300
C 	C 	0.20993 0.68858 0.87221 0.00400
H 	H 	0.20130 0.70070 0.87160 0.03800
C 	C 	0.20751 0.67226 0.85790 -0.04500
C 	C 	0.21999 0.65472 0.85974 0.03100
H 	H 	0.21830 0.64380 0.84980 0.01700
C 	C 	0.19123 0.67282 0.84132 0.13400
C 	C 	0.16539 0.68970 0.82433 0.13300
C 	C 	0.17411 0.65684 0.81489 0.13300
C 	C 	0.15399 0.63822 0.78768 0.03900
H 	H 	0.14580 0.65060 0.78630 0.01200
C 	C 	0.17048 0.63815 0.80221 -0.05100
C 	C 	0.18265 0.62040 0.80411 0.00900
H 	H 	0.19380 0.61970 0.81400 0.03700
C 	C 	0.17808 0.60358 0.79109 -0.10000
H 	H 	0.18640 0.59130 0.79160 0.06700
C 	C 	0.16140 0.60489 0.77746 0.06100
H 	H 	0.15840 0.59310 0.76890 0.00100
C 	C 	0.16699 0.63862 0.73237 0.06300
H 	H 	0.16590 0.64890 0.74300 -0.00100
C 	C 	0.18460 0.63834 0.72060 -0.10300
H 	H 	0.19550 0.64810 0.72310 0.06800
C 	C 	0.18640 0.62333 0.70470 0.00900
H 	H 	0.19840 0.62290 0.69590 0.03700
C 	C 	0.17016 0.60924 0.70217 -0.05200
C 	C 	0.15269 0.61085 0.71498 0.04200
H 	H 	0.14150 0.60130 0.71300 0.01100
C 	C 	0.17092 0.59302 0.68559 0.13500
C 	C 	0.12389 0.57478 0.74941 0.10800
N 	N 	0.13308 0.73525 0.84096 -0.22300
N 	N 	0.22554 0.60699 0.86285 -0.26100
N 	N 	0.23449 0.65242 0.87503 -0.22400
N 	N 	0.18909 0.65582 0.82960 -0.15100
N 	N 	0.17975 0.69029 0.83966 -0.15000
N 	N 	0.16237 0.67387 0.81113 -0.15100
N 	N 	0.14925 0.62185 0.77568 -0.22900
N 	N 	0.12324 0.59238 0.75119 -0.26400
N 	N 	0.15103 0.62524 0.72991 -0.22900
N 	N 	0.18603 0.59428 0.67169 -0.15200
S 	S 	0.20537 0.57812 0.83696 -0.05900
S 	S 	0.12654 0.54928 0.74784 -0.06200
C 	C 	0.14742 0.21989 0.34028 0.03300
H 	H 	0.15560 0.21730 0.35240 0.01400
C 	C 	0.15086 0.20750 0.32258 -0.04600
C 	C 	0.13928 0.21138 0.30477 0.00600
H 	H 	0.14080 0.20300 0.29260 0.03800
C 	C 	0.12518 0.22810 0.30514 -0.10000
H 	H 	0.11760 0.23180 0.29290 0.06600
C 	C 	0.12242 0.23907 0.32314 0.06100
H 	H 	0.11240 0.25010 0.32320 -0.00000
C 	C 	0.21662 0.09533 0.35226 0.09800
C 	C 	0.23679 0.16843 0.38852 0.05700
H 	H 	0.24680 0.16710 0.39940 -0.00000
C 	C 	0.22538 0.18666 0.38740 -0.09600
H 	H 	0.22800 0.19780 0.39690 0.06300
C 	C 	0.20993 0.18858 0.37221 0.00400
H 	H 	0.20130 0.20070 0.37160 0.03800
C 	C 	0.20751 0.17226 0.35790 -0.04500
C 	C 	0.21999 0.15472 0.35974 0.03100
H 	H 	0.21830 0.14380 0.34980 0.01700
C 	C 	0.19123 0.17282 0.34132 0.13400
C 	C 	0.16539 0.18970 0.32433 0.13300
C 	C 	0.17411 0.15684 0.31489 0.13300
C 	C 	0.15399 0.13822 0.28768 0.03900
H 	H 	0.14580 0.15060 0.28630 0.01200
C 	C 	0.17048 0.13815 0.30221 -0.05100
C 	C 	0.18265 0.12040 0.30411 0.00900
H 	H 	0.19380 0.11970 0.31400 0.03700
C 	C 	0.17808 0.10358 0.29109 -0.10000
H 	H 	0.18640 0.09130 0.29160 0.06700
C 	C 	0.16140 0.10489 0.27746 0.06100
H 	H 	0.15840 0.09310 0.26890 0.00100
C 	C 	0.16699 0.13862 0.23237 0.06300
H 	H 	0.16590 0.14890 0.24300 -0.00100
C 	C 	0.18460 0.13834 0.22060 -0.10300
H 	H 	0.19550 0.14810 0.22310 0.06800
C 	C 	0.18640 0.12333 0.20470 0.00900
H 	H 	0.19840 0.12290 0.19590 0.03700
C 	C 	0.17016 0.10924 0.20217 -0.05200
C 	C 	0.15269 0.11085 0.21498 0.04200
H 	H 	0.14150 0.10130 0.21300 0.01100
C 	C 	0.17092 0.09302 0.18559 0.13500
C 	C 	0.12389 0.07478 0.24941 0.10800
N 	N 	0.13308 0.23525 0.34096 -0.22300
N 	N 	0.22554 0.10699 0.36285 -0.26100
N 	N 	0.23449 0.15242 0.37503 -0.22400
N 	N 	0.18909 0.15582 0.32960 -0.15100
N 	N 	0.17975 0.19029 0.33966 -0.15000
N 	N 	0.16237 0.17387 0.31113 -0.15100
N 	N 	0.14925 0.12185 0.27568 -0.22900
N 	N 	0.12324 0.09238 0.25119 -0.26400
N 	N 	0.15103 0.12524 0.22991 -0.22900
N 	N 	0.18603 0.09428 0.17169 -0.15200
S 	S 	0.20537 0.07812 0.33696 -0.05900
S 	S 	0.12654 0.04928 0.24784 -0.06200
C 	C 	0.64742 0.71989 0.34028 0.03300
H 	H 	0.65560 0.71730 0.35240 0.01400
C 	C 	0.65086 0.70750 0.32258 -0.04600
C 	C 	0.63928 0.71138 0.30477 0.00600
H 	H 	0.64080 0.70300 0.29260 0.03800
C 	C 	0.62518 0.72810 0.30514 -0.10000
H 	H 	0.61760 0.73180 0.29290 0.06600
C 	C 	0.62242 0.73907 0.32314 0.06100
H 	H 	0.61240 0.75010 0.32320 -0.00000
C 	C 	0.71662 0.59533 0.35226 0.09800
C 	C 	0.73679 0.66843 0.38852 0.05700
H 	H 	0.74680 0.66710 0.39940 -0.00000
C 	C 	0.72538 0.68666 0.38740 -0.09600
H 	H 	0.72800 0.69780 0.39690 0.06300
C 	C 	0.70993 0.68858 0.37221 0.00400
H 	H 	0.70130 0.70070 0.37160 0.03800
C 	C 	0.70751 0.67226 0.35790 -0.04500
C 	C 	0.71999 0.65472 0.35974 0.03100
H 	H 	0.71830 0.64380 0.34980 0.01700
C 	C 	0.69123 0.67282 0.34132 0.13400
C 	C 	0.66539 0.68970 0.32433 0.13300
C 	C 	0.67411 0.65684 0.31489 0.13300
C 	C 	0.65399 0.63822 0.28768 0.03900
H 	H 	0.64580 0.65060 0.28630 0.01200
C 	C 	0.67048 0.63815 0.30221 -0.05100
C 	C 	0.68265 0.62040 0.30411 0.00900
H 	H 	0.69380 0.61970 0.31400 0.03700
C 	C 	0.67808 0.60358 0.29109 -0.10000
H 	H 	0.68640 0.59130 0.29160 0.06700
C 	C 	0.66140 0.60489 0.27746 0.06100
H 	H 	0.65840 0.59310 0.26890 0.00100
C 	C 	0.66699 0.63862 0.23237 0.06300
H 	H 	0.66590 0.64890 0.24300 -0.00100
C 	C 	0.68460 0.63834 0.22060 -0.10300
H 	H 	0.69550 0.64810 0.22310 0.06800
C 	C 	0.68640 0.62333 0.20470 0.00900
H 	H 	0.69840 0.62290 0.19590 0.03700
C 	C 	0.67016 0.60924 0.20217 -0.05200
C 	C 	0.65269 0.61085 0.21498 0.04200
H 	H 	0.64150 0.60130 0.21300 0.01100
C 	C 	0.67092 0.59302 0.18559 0.13500
C 	C 	0.62389 0.57478 0.24941 0.10800
N 	N 	0.63308 0.73525 0.34096 -0.22300
N 	N 	0.72554 0.60699 0.36285 -0.26100
N 	N 	0.73449 0.65242 0.37503 -0.22400
N 	N 	0.68909 0.65582 0.32960 -0.15100
N 	N 	0.67975 0.69029 0.33966 -0.15000
N 	N 	0.66237 0.67387 0.31113 -0.15100
N 	N 	0.64925 0.62185 0.27568 -0.22900
N 	N 	0.62324 0.59238 0.25119 -0.26400
N 	N 	0.65103 0.62524 0.22991 -0.22900
N 	N 	0.68603 0.59428 0.17169 -0.15200
S 	S 	0.70537 0.57812 0.33696 -0.05900
S 	S 	0.62654 0.54928 0.24784 -0.06200
C 	C 	0.64742 0.21989 0.84028 0.03300
H 	H 	0.65560 0.21730 0.85240 0.01400
C 	C 	0.65086 0.20750 0.82258 -0.04600
C 	C 	0.63928 0.21138 0.80477 0.00600
H 	H 	0.64080 0.20300 0.79260 0.03800
C 	C 	0.62518 0.22810 0.80514 -0.10000
H 	H 	0.61760 0.23180 0.79290 0.06600
C 	C 	0.62242 0.23907 0.82314 0.06100
H 	H 	0.61240 0.25010 0.82320 -0.00000
C 	C 	0.71662 0.09533 0.85226 0.09800
C 	C 	0.73679 0.16843 0.88852 0.05700
H 	H 	0.74680 0.16710 0.89940 -0.00000
C 	C 	0.72538 0.18666 0.88740 -0.09600
H 	H 	0.72800 0.19780 0.89690 0.06300
C 	C 	0.70993 0.18858 0.87221 0.00400
H 	H 	0.70130 0.20070 0.87160 0.03800
C 	C 	0.70751 0.17226 0.85790 -0.04500
C 	C 	0.71999 0.15472 0.85974 0.03100
H 	H 	0.71830 0.14380 0.84980 0.01700
C 	C 	0.69123 0.17282 0.84132 0.13400
C 	C 	0.66539 0.18970 0.82433 0.13300
C 	C 	0.67411 0.15684 0.81489 0.13300
C 	C 	0.65399 0.13822 0.78768 0.03900
H 	H 	0.64580 0.15060 0.78630 0.01200
C 	C 	0.67048 0.13815 0.80221 -0.05100
C 	C 	0.68265 0.12040 0.80411 0.00900
H 	H 	0.69380 0.11970 0.81400 0.03700
C 	C 	0.67808 0.10358 0.79109 -0.10000
H 	H 	0.68640 0.09130 0.79160 0.06700
C 	C 	0.66140 0.10489 0.77746 0.06100
H 	H 	0.65840 0.09310 0.76890 0.00100
C 	C 	0.66699 0.13862 0.73237 0.06300
H 	H 	0.66590 0.14890 0.74300 -0.00100
C 	C 	0.68460 0.13834 0.72060 -0.10300
H 	H 	0.69550 0.14810 0.72310 0.06800
C 	C 	0.68640 0.12333 0.70470 0.00900
H 	H 	0.69840 0.12290 0.69590 0.03700
C 	C 	0.67016 0.10924 0.70217 -0.05200
C 	C 	0.65269 0.11085 0.71498 0.04200
H 	H 	0.64150 0.10130 0.71300 0.01100
C 	C 	0.67092 0.09302 0.68559 0.13500
C 	C 	0.62389 0.07478 0.74941 0.10800
N 	N 	0.63308 0.23525 0.84096 -0.22300
N 	N 	0.72554 0.10699 0.86285 -0.26100
N 	N 	0.73449 0.15242 0.87503 -0.22400
N 	N 	0.68909 0.15582 0.82960 -0.15100
N 	N 	0.67975 0.19029 0.83966 -0.15000
N 	N 	0.66237 0.17387 0.81113 -0.15100
N 	N 	0.64925 0.12185 0.77568 -0.22900
N 	N 	0.62324 0.09238 0.75119 -0.26400
N 	N 	0.65103 0.12524 0.72991 -0.22900
N 	N 	0.68603 0.09428 0.67169 -0.15200
S 	S 	0.70537 0.07812 0.83696 -0.05900
S 	S 	0.62654 0.04928 0.74784 -0.06200
C 	C 	0.10258 0.03011 0.34028 0.03300
H 	H 	0.09440 0.03270 0.35240 0.01400
C 	C 	0.09914 0.04250 0.32258 -0.04600
C 	C 	0.11072 0.03862 0.30477 0.00600
H 	H 	0.10920 0.04700 0.29260 0.03800
C 	C 	0.12482 0.02190 0.30514 -0.10000
H 	H 	0.13240 0.01820 0.29290 0.06600
C 	C 	0.12758 0.01093 0.32314 0.06100
H 	H 	0.13760 0.99990 0.32320 -0.00000
C 	C 	0.03338 0.15467 0.35226 0.09800
C 	C 	0.01321 0.08157 0.38852 0.05700
H 	H 	0.00320 0.08290 0.39940 -0.00000
C 	C 	0.02462 0.06334 0.38740 -0.09600
H 	H 	0.02200 0.05220 0.39690 0.06300
C 	C 	0.04007 0.06142 0.37221 0.00400
H 	H 	0.04870 0.04930 0.37160 0.03800
C 	C 	0.04249 0.07774 0.35790 -0.04500
C 	C 	0.03001 0.09528 0.35974 0.03100
H 	H 	0.03170 0.10620 0.34980 0.01700
C 	C 	0.05877 0.07718 0.34132 0.13400
C 	C 	0.08461 0.06030 0.32433 0.13300
C 	C 	0.07589 0.09316 0.31489 0.13300
C 	C 	0.09601 0.11178 0.28768 0.03900
H 	H 	0.10420 0.09940 0.28630 0.01200
C 	C 	0.07952 0.11185 0.30221 -0.05100
C 	C 	0.06735 0.12960 0.30411 0.00900
H 	H 	0.05620 0.13030 0.31400 0.03700
C 	C 	0.07192 0.14642 0.29109 -0.10000
H 	H 	0.06360 0.15870 0.29160 0.06700
C 	C 	0.08860 0.14511 0.27746 0.06100
H 	H 	0.09160 0.15690 0.26890 0.00100
C 	C 	0.08301 0.11138 0.23237 0.06300
H 	H 	0.08410 0.10110 0.24300 -0.00100
C 	C 	0.06540 0.11166 0.22060 -0.10300
H 	H 	0.05450 0.10190 0.22310 0.06800
C 	C 	0.06360 0.12667 0.20470 0.00900
H 	H 	0.05160 0.12710 0.19590 0.03700
C 	C 	0.07984 0.14076 0.20217 -0.05200
C 	C 	0.09731 0.13915 0.21498 0.04200
H 	H 	0.10850 0.14870 0.21300 0.01100
C 	C 	0.07908 0.15698 0.18559 0.13500
C 	C 	0.12611 0.17522 0.24941 0.10800
N 	N 	0.11692 0.01475 0.34096 -0.22300
N 	N 	0.02446 0.14301 0.36285 -0.26100
N 	N 	0.01551 0.09758 0.37503 -0.22400
N 	N 	0.06091 0.09418 0.32960 -0.15100
N 	N 	0.07025 0.05971 0.33966 -0.15000
N 	N 	0.08763 0.07613 0.31113 -0.15100
N 	N 	0.10075 0.12815 0.27568 -0.22900
N 	N 	0.12676 0.15762 0.25119 -0.26400
N 	N 	0.09897 0.12476 0.22991 -0.22900
N 	N 	0.06397 0.15572 0.17169 -0.15200
S 	S 	0.04463 0.17188 0.33696 -0.05900
S 	S 	0.12346 0.20072 0.24784 -0.06200
C 	C 	0.10258 0.53011 0.84028 0.03300
H 	H 	0.09440 0.53270 0.85240 0.01400
C 	C 	0.09914 0.54250 0.82258 -0.04600
C 	C 	0.11072 0.53862 0.80477 0.00600
H 	H 	0.10920 0.54700 0.79260 0.03800
C 	C 	0.12482 0.52190 0.80514 -0.10000
H 	H 	0.13240 0.51820 0.79290 0.06600
C 	C 	0.12758 0.51093 0.82314 0.06100
H 	H 	0.13760 0.49990 0.82320 -0.00000
C 	C 	0.03338 0.65467 0.85226 0.09800
C 	C 	0.01321 0.58157 0.88852 0.05700
H 	H 	0.00320 0.58290 0.89940 -0.00000
C 	C 	0.02462 0.56334 0.88740 -0.09600
H 	H 	0.02200 0.55220 0.89690 0.06300
C 	C 	0.04007 0.56142 0.87221 0.00400
H 	H 	0.04870 0.54930 0.87160 0.03800
C 	C 	0.04249 0.57774 0.85790 -0.04500
C 	C 	0.03001 0.59528 0.85974 0.03100
H 	H 	0.03170 0.60620 0.84980 0.01700
C 	C 	0.05877 0.57718 0.84132 0.13400
C 	C 	0.08461 0.56030 0.82433 0.13300
C 	C 	0.07589 0.59316 0.81489 0.13300
C 	C 	0.09601 0.61178 0.78768 0.03900
H 	H 	0.10420 0.59940 0.78630 0.01200
C 	C 	0.07952 0.61185 0.80221 -0.05100
C 	C 	0.06735 0.62960 0.80411 0.00900
H 	H 	0.05620 0.63030 0.81400 0.03700
C 	C 	0.07192 0.64642 0.79109 -0.10000
H 	H 	0.06360 0.65870 0.79160 0.06700
C 	C 	0.08860 0.64511 0.77746 0.06100
H 	H 	0.09160 0.65690 0.76890 0.00100
C 	C 	0.08301 0.61138 0.73237 0.06300
H 	H 	0.08410 0.60110 0.74300 -0.00100
C 	C 	0.06540 0.61166 0.72060 -0.10300
H 	H 	0.05450 0.60190 0.72310 0.06800
C 	C 	0.06360 0.62667 0.70470 0.00900
H 	H 	0.05160 0.62710 0.69590 0.03700
C 	C 	0.07984 0.64076 0.70217 -0.05200
C 	C 	0.09731 0.63915 0.71498 0.04200
H 	H 	0.10850 0.64870 0.71300 0.01100
C 	C 	0.07908 0.65698 0.68559 0.13500
C 	C 	0.12611 0.67522 0.74941 0.10800
N 	N 	0.11692 0.51475 0.84096 -0.22300
N 	N 	0.02446 0.64301 0.86285 -0.26100
N 	N 	0.01551 0.59758 0.87503 -0.22400
N 	N 	0.06091 0.59418 0.82960 -0.15100
N 	N 	0.07025 0.55971 0.83966 -0.15000
N 	N 	0.08763 0.57613 0.81113 -0.15100
N 	N 	0.10075 0.62815 0.77568 -0.22900
N 	N 	0.12676 0.65762 0.75119 -0.26400
N 	N 	0.09897 0.62476 0.72991 -0.22900
N 	N 	0.06397 0.65572 0.67169 -0.15200
S 	S 	0.04463 0.67188 0.83696 -0.05900
S 	S 	0.12346 0.70072 0.74784 -0.06200
C 	C 	0.60258 0.03011 0.84028 0.03300
H 	H 	0.59440 0.03270 0.85240 0.01400
C 	C 	0.59914 0.04250 0.82258 -0.04600
C 	C 	0.61072 0.03862 0.80477 0.00600
H 	H 	0.60920 0.04700 0.79260 0.03800
C 	C 	0.62482 0.02190 0.80514 -0.10000
H 	H 	0.63240 0.01820 0.79290 0.06600
C 	C 	0.62758 0.01093 0.82314 0.06100
H 	H 	0.63760 0.99990 0.82320 -0.00000
C 	C 	0.53338 0.15467 0.85226 0.09800
C 	C 	0.51321 0.08157 0.88852 0.05700
H 	H 	0.50320 0.08290 0.89940 -0.00000
C 	C 	0.52462 0.06334 0.88740 -0.09600
H 	H 	0.52200 0.05220 0.89690 0.06300
C 	C 	0.54007 0.06142 0.87221 0.00400
H 	H 	0.54870 0.04930 0.87160 0.03800
C 	C 	0.54249 0.07774 0.85790 -0.04500
C 	C 	0.53001 0.09528 0.85974 0.03100
H 	H 	0.53170 0.10620 0.84980 0.01700
C 	C 	0.55877 0.07718 0.84132 0.13400
C 	C 	0.58461 0.06030 0.82433 0.13300
C 	C 	0.57589 0.09316 0.81489 0.13300
C 	C 	0.59601 0.11178 0.78768 0.03900
H 	H 	0.60420 0.09940 0.78630 0.01200
C 	C 	0.57952 0.11185 0.80221 -0.05100
C 	C 	0.56735 0.12960 0.80411 0.00900
H 	H 	0.55620 0.13030 0.81400 0.03700
C 	C 	0.57192 0.14642 0.79109 -0.10000
H 	H 	0.56360 0.15870 0.79160 0.06700
C 	C 	0.58860 0.14511 0.77746 0.06100
H 	H 	0.59160 0.15690 0.76890 0.00100
C 	C 	0.58301 0.11138 0.73237 0.06300
H 	H 	0.58410 0.10110 0.74300 -0.00100
C 	C 	0.56540 0.11166 0.72060 -0.10300
H 	H 	0.55450 0.10190 0.72310 0.06800
C 	C 	0.56360 0.12667 0.70470 0.00900
H 	H 	0.55160 0.12710 0.69590 0.03700
C 	C 	0.57984 0.14076 0.70217 -0.05200
C 	C 	0.59731 0.13915 0.71498 0.04200
H 	H 	0.60850 0.14870 0.71300 0.01100
C 	C 	0.57908 0.15698 0.68559 0.13500
C 	C 	0.62611 0.17522 0.74941 0.10800
N 	N 	0.61692 0.01475 0.84096 -0.22300
N 	N 	0.52446 0.14301 0.86285 -0.26100
N 	N 	0.51551 0.09758 0.87503 -0.22400
N 	N 	0.56091 0.09418 0.82960 -0.15100
N 	N 	0.57025 0.05971 0.83966 -0.15000
N 	N 	0.58763 0.07613 0.81113 -0.15100
N 	N 	0.60075 0.12815 0.77568 -0.22900
N 	N 	0.62676 0.15762 0.75119 -0.26400
N 	N 	0.59897 0.12476 0.72991 -0.22900
N 	N 	0.56397 0.15572 0.67169 -0.15200
S 	S 	0.54463 0.17188 0.83696 -0.05900
S 	S 	0.62346 0.20072 0.74784 -0.06200
C 	C 	0.60258 0.53011 0.34028 0.03300
H 	H 	0.59440 0.53270 0.35240 0.01400
C 	C 	0.59914 0.54250 0.32258 -0.04600
C 	C 	0.61072 0.53862 0.30477 0.00600
H 	H 	0.60920 0.54700 0.29260 0.03800
C 	C 	0.62482 0.52190 0.30514 -0.10000
H 	H 	0.63240 0.51820 0.29290 0.06600
C 	C 	0.62758 0.51093 0.32314 0.06100
H 	H 	0.63760 0.49990 0.32320 -0.00000
C 	C 	0.53338 0.65467 0.35226 0.09800
C 	C 	0.51321 0.58157 0.38852 0.05700
H 	H 	0.50320 0.58290 0.39940 -0.00000
C 	C 	0.52462 0.56334 0.38740 -0.09600
H 	H 	0.52200 0.55220 0.39690 0.06300
C 	C 	0.54007 0.56142 0.37221 0.00400
H 	H 	0.54870 0.54930 0.37160 0.03800
C 	C 	0.54249 0.57774 0.35790 -0.04500
C 	C 	0.53001 0.59528 0.35974 0.03100
H 	H 	0.53170 0.60620 0.34980 0.01700
C 	C 	0.55877 0.57718 0.34132 0.13400
C 	C 	0.58461 0.56030 0.32433 0.13300
C 	C 	0.57589 0.59316 0.31489 0.13300
C 	C 	0.59601 0.61178 0.28768 0.03900
H 	H 	0.60420 0.59940 0.28630 0.01200
C 	C 	0.57952 0.61185 0.30221 -0.05100
C 	C 	0.56735 0.62960 0.30411 0.00900
H 	H 	0.55620 0.63030 0.31400 0.03700
C 	C 	0.57192 0.64642 0.29109 -0.10000
H 	H 	0.56360 0.65870 0.29160 0.06700
C 	C 	0.58860 0.64511 0.27746 0.06100
H 	H 	0.59160 0.65690 0.26890 0.00100
C 	C 	0.58301 0.61138 0.23237 0.06300
H 	H 	0.58410 0.60110 0.24300 -0.00100
C 	C 	0.56540 0.61166 0.22060 -0.10300
H 	H 	0.55450 0.60190 0.22310 0.06800
C 	C 	0.56360 0.62667 0.20470 0.00900
H 	H 	0.55160 0.62710 0.19590 0.03700
C 	C 	0.57984 0.64076 0.20217 -0.05200
C 	C 	0.59731 0.63915 0.21498 0.04200
H 	H 	0.60850 0.64870 0.21300 0.01100
C 	C 	0.57908 0.65698 0.18559 0.13500
C 	C 	0.62611 0.67522 0.24941 0.10800
N 	N 	0.61692 0.51475 0.34096 -0.22300
N 	N 	0.52446 0.64301 0.36285 -0.26100
N 	N 	0.51551 0.59758 0.37503 -0.22400
N 	N 	0.56091 0.59418 0.32960 -0.15100
N 	N 	0.57025 0.55971 0.33966 -0.15000
N 	N 	0.58763 0.57613 0.31113 -0.15100
N 	N 	0.60075 0.62815 0.27568 -0.22900
N 	N 	0.62676 0.65762 0.25119 -0.26400
N 	N 	0.59897 0.62476 0.22991 -0.22900
N 	N 	0.56397 0.65572 0.17169 -0.15200
S 	S 	0.54463 0.67188 0.33696 -0.05900
S 	S 	0.62346 0.70072 0.24784 -0.06200
C 	C 	0.64742 0.53011 0.90972 0.03300
H 	H 	0.65560 0.53270 0.89760 0.01400
C 	C 	0.65086 0.54250 0.92742 -0.04600
C 	C 	0.63928 0.53862 0.94523 0.00600
H 	H 	0.64080 0.54700 0.95740 0.03800
C 	C 	0.62518 0.52190 0.94486 -0.10000
H 	H 	0.61760 0.51820 0.95710 0.06600
C 	C 	0.62242 0.51093 0.92686 0.06100
H 	H 	0.61240 0.49990 0.92680 -0.00000
C 	C 	0.71662 0.65467 0.89774 0.09800
C 	C 	0.73679 0.58157 0.86148 0.05700
H 	H 	0.74680 0.58290 0.85060 -0.00000
C 	C 	0.72538 0.56334 0.86260 -0.09600
H 	H 	0.72800 0.55220 0.85310 0.06300
C 	C 	0.70993 0.56142 0.87779 0.00400
H 	H 	0.70130 0.54930 0.87840 0.03800
C 	C 	0.70751 0.57774 0.89210 -0.04500
C 	C 	0.71999 0.59528 0.89026 0.03100
H 	H 	0.71830 0.60620 0.90020 0.01700
C 	C 	0.69123 0.57718 0.90868 0.13400
C 	C 	0.66539 0.56030 0.92567 0.13300
C 	C 	0.67411 0.59316 0.93511 0.13300
C 	C 	0.65399 0.61178 0.96232 0.03900
H 	H 	0.64580 0.59940 0.96370 0.01200
C 	C 	0.67048 0.61185 0.94779 -0.05100
C 	C 	0.68265 0.62960 0.94589 0.00900
H 	H 	0.69380 0.63030 0.93600 0.03700
C 	C 	0.67808 0.64642 0.95891 -0.10000
H 	H 	0.68640 0.65870 0.95840 0.06700
C 	C 	0.66140 0.64511 0.97254 0.06100
H 	H 	0.65840 0.65690 0.98110 0.00100
C 	C 	0.66699 0.61138 0.01763 0.06300
H 	H 	0.66590 0.60110 0.00700 -0.00100
C 	C 	0.68460 0.61166 0.02940 -0.10300
H 	H 	0.69550 0.60190 0.02690 0.06800
C 	C 	0.68640 0.62667 0.04530 0.00900
H 	H 	0.69840 0.62710 0.05410 0.03700
C 	C 	0.67016 0.64076 0.04783 -0.05200
C 	C 	0.65269 0.63915 0.03502 0.04200
H 	H 	0.64150 0.64870 0.03700 0.01100
C 	C 	0.67092 0.65698 0.06441 0.13500
C 	C 	0.62389 0.67522 0.00059 0.10800
N 	N 	0.63308 0.51475 0.90904 -0.22300
N 	N 	0.72554 0.64301 0.88715 -0.26100
N 	N 	0.73449 0.59758 0.87497 -0.22400
N 	N 	0.68909 0.59418 0.92040 -0.15100
N 	N 	0.67975 0.55971 0.91034 -0.15000
N 	N 	0.66237 0.57613 0.93887 -0.15100
N 	N 	0.64925 0.62815 0.97432 -0.22900
N 	N 	0.62324 0.65762 0.99881 -0.26400
N 	N 	0.65103 0.62476 0.02009 -0.22900
N 	N 	0.68603 0.65572 0.07831 -0.15200
S 	S 	0.70537 0.67188 0.91304 -0.05900
S 	S 	0.62654 0.70072 0.00216 -0.06200
C 	C 	0.64742 0.03011 0.40972 0.03300
H 	H 	0.65560 0.03270 0.39760 0.01400
C 	C 	0.65086 0.04250 0.42742 -0.04600
C 	C 	0.63928 0.03862 0.44523 0.00600
H 	H 	0.64080 0.04700 0.45740 0.03800
C 	C 	0.62518 0.02190 0.44486 -0.10000
H 	H 	0.61760 0.01820 0.45710 0.06600
C 	C 	0.62242 0.01093 0.42686 0.06100
H 	H 	0.61240 0.99990 0.42680 -0.00000
C 	C 	0.71662 0.15467 0.39774 0.09800
C 	C 	0.73679 0.08157 0.36148 0.05700
H 	H 	0.74680 0.08290 0.35060 -0.00000
C 	C 	0.72538 0.06334 0.36260 -0.09600
H 	H 	0.72800 0.05220 0.35310 0.06300
C 	C 	0.70993 0.06142 0.37779 0.00400
H 	H 	0.70130 0.04930 0.37840 0.03800
C 	C 	0.70751 0.07774 0.39210 -0.04500
C 	C 	0.71999 0.09528 0.39026 0.03100
H 	H 	0.71830 0.10620 0.40020 0.01700
C 	C 	0.69123 0.07718 0.40868 0.13400
C 	C 	0.66539 0.06030 0.42567 0.13300
C 	C 	0.67411 0.09316 0.43511 0.13300
C 	C 	0.65399 0.11178 0.46232 0.03900
H 	H 	0.64580 0.09940 0.46370 0.01200
C 	C 	0.67048 0.11185 0.44779 -0.05100
C 	C 	0.68265 0.12960 0.44589 0.00900
H 	H 	0.69380 0.13030 0.43600 0.03700
C 	C 	0.67808 0.14642 0.45891 -0.10000
H 	H 	0.68640 0.15870 0.45840 0.06700
C 	C 	0.66140 0.14511 0.47254 0.06100
H 	H 	0.65840 0.15690 0.48110 0.00100
C 	C 	0.66699 0.11138 0.51763 0.06300
H 	H 	0.66590 0.10110 0.50700 -0.00100
C 	C 	0.68460 0.11166 0.52940 -0.10300
H 	H 	0.69550 0.10190 0.52690 0.06800
C 	C 	0.68640 0.12667 0.54530 0.00900
H 	H 	0.69840 0.12710 0.55410 0.03700
C 	C 	0.67016 0.14076 0.54783 -0.05200
C 	C 	0.65269 0.13915 0.53502 0.04200
H 	H 	0.64150 0.14870 0.53700 0.01100
C 	C 	0.67092 0.15698 0.56441 0.13500
C 	C 	0.62389 0.17522 0.50059 0.10800
N 	N 	0.63308 0.01475 0.40904 -0.22300
N 	N 	0.72554 0.14301 0.38715 -0.26100
N 	N 	0.73449 0.09758 0.37497 -0.22400
N 	N 	0.68909 0.09418 0.42040 -0.15100
N 	N 	0.67975 0.05971 0.41034 -0.15000
N 	N 	0.66237 0.07613 0.43887 -0.15100
N 	N 	0.64925 0.12815 0.47432 -0.22900
N 	N 	0.62324 0.15762 0.49881 -0.26400
N 	N 	0.65103 0.12476 0.52009 -0.22900
N 	N 	0.68603 0.15572 0.57831 -0.15200
S 	S 	0.70537 0.17188 0.41304 -0.05900
S 	S 	0.62654 0.20072 0.50216 -0.06200
C 	C 	0.14742 0.53011 0.40972 0.03300
H 	H 	0.15560 0.53270 0.39760 0.01400
C 	C 	0.15086 0.54250 0.42742 -0.04600
C 	C 	0.13928 0.53862 0.44523 0.00600
H 	H 	0.14080 0.54700 0.45740 0.03800
C 	C 	0.12518 0.52190 0.44486 -0.10000
H 	H 	0.11760 0.51820 0.45710 0.06600
C 	C 	0.12242 0.51093 0.42686 0.06100
H 	H 	0.11240 0.49990 0.42680 -0.00000
C 	C 	0.21662 0.65467 0.39774 0.09800
C 	C 	0.23679 0.58157 0.36148 0.05700
H 	H 	0.24680 0.58290 0.35060 -0.00000
C 	C 	0.22538 0.56334 0.36260 -0.09600
H 	H 	0.22800 0.55220 0.35310 0.06300
C 	C 	0.20993 0.56142 0.37779 0.00400
H 	H 	0.20130 0.54930 0.37840 0.03800
C 	C 	0.20751 0.57774 0.39210 -0.04500
C 	C 	0.21999 0.59528 0.39026 0.03100
H 	H 	0.21830 0.60620 0.40020 0.01700
C 	C 	0.19123 0.57718 0.40868 0.13400
C 	C 	0.16539 0.56030 0.42567 0.13300
C 	C 	0.17411 0.59316 0.43511 0.13300
C 	C 	0.15399 0.61178 0.46232 0.03900
H 	H 	0.14580 0.59940 0.46370 0.01200
C 	C 	0.17048 0.61185 0.44779 -0.05100
C 	C 	0.18265 0.62960 0.44589 0.00900
H 	H 	0.19380 0.63030 0.43600 0.03700
C 	C 	0.17808 0.64642 0.45891 -0.10000
H 	H 	0.18640 0.65870 0.45840 0.06700
C 	C 	0.16140 0.64511 0.47254 0.06100
H 	H 	0.15840 0.65690 0.48110 0.00100
C 	C 	0.16699 0.61138 0.51763 0.06300
H 	H 	0.16590 0.60110 0.50700 -0.00100
C 	C 	0.18460 0.61166 0.52940 -0.10300
H 	H 	0.19550 0.60190 0.52690 0.06800
C 	C 	0.18640 0.62667 0.54530 0.00900
H 	H 	0.19840 0.62710 0.55410 0.03700
C 	C 	0.17016 0.64076 0.54783 -0.05200
C 	C 	0.15269 0.63915 0.53502 0.04200
H 	H 	0.14150 0.64870 0.53700 0.01100
C 	C 	0.17092 0.65698 0.56441 0.13500
C 	C 	0.12389 0.67522 0.50059 0.10800
N 	N 	0.13308 0.51475 0.40904 -0.22300
N 	N 	0.22554 0.64301 0.38715 -0.26100
N 	N 	0.23449 0.59758 0.37497 -0.22400
N 	N 	0.18909 0.59418 0.42040 -0.15100
N 	N 	0.17975 0.55971 0.41034 -0.15000
N 	N 	0.16237 0.57613 0.43887 -0.15100
N 	N 	0.14925 0.62815 0.47432 -0.22900
N 	N 	0.12324 0.65762 0.49881 -0.26400
N 	N 	0.15103 0.62476 0.52009 -0.22900
N 	N 	0.18603 0.65572 0.57831 -0.15200
S 	S 	0.20537 0.67188 0.41304 -0.05900
S 	S 	0.12654 0.70072 0.50216 -0.06200
C 	C 	0.14742 0.03011 0.90972 0.03300
H 	H 	0.15560 0.03270 0.89760 0.01400
C 	C 	0.15086 0.04250 0.92742 -0.04600
C 	C 	0.13928 0.03862 0.94523 0.00600
H 	H 	0.14080 0.04700 0.95740 0.03800
C 	C 	0.12518 0.02190 0.94486 -0.10000
H 	H 	0.11760 0.01820 0.95710 0.06600
C 	C 	0.12242 0.01093 0.92686 0.06100
H 	H 	0.11240 0.99990 0.92680 -0.00000
C 	C 	0.21662 0.15467 0.89774 0.09800
C 	C 	0.23679 0.08157 0.86148 0.05700
H 	H 	0.24680 0.08290 0.85060 -0.00000
C 	C 	0.22538 0.06334 0.86260 -0.09600
H 	H 	0.22800 0.05220 0.85310 0.06300
C 	C 	0.20993 0.06142 0.87779 0.00400
H 	H 	0.20130 0.04930 0.87840 0.03800
C 	C 	0.20751 0.07774 0.89210 -0.04500
C 	C 	0.21999 0.09528 0.89026 0.03100
H 	H 	0.21830 0.10620 0.90020 0.01700
C 	C 	0.19123 0.07718 0.90868 0.13400
C 	C 	0.16539 0.06030 0.92567 0.13300
C 	C 	0.17411 0.09316 0.93511 0.13300
C 	C 	0.15399 0.11178 0.96232 0.03900
H 	H 	0.14580 0.09940 0.96370 0.01200
C 	C 	0.17048 0.11185 0.94779 -0.05100
C 	C 	0.18265 0.12960 0.94589 0.00900
H 	H 	0.19380 0.13030 0.93600 0.03700
C 	C 	0.17808 0.14642 0.95891 -0.10000
H 	H 	0.18640 0.15870 0.95840 0.06700
C 	C 	0.16140 0.14511 0.97254 0.06100
H 	H 	0.15840 0.15690 0.98110 0.00100
C 	C 	0.16699 0.11138 0.01763 0.06300
H 	H 	0.16590 0.10110 0.00700 -0.00100
C 	C 	0.18460 0.11166 0.02940 -0.10300
H 	H 	0.19550 0.10190 0.02690 0.06800
C 	C 	0.18640 0.12667 0.04530 0.00900
H 	H 	0.19840 0.12710 0.05410 0.03700
C 	C 	0.17016 0.14076 0.04783 -0.05200
C 	C 	0.15269 0.13915 0.03502 0.04200
H 	H 	0.14150 0.14870 0.03700 0.01100
C 	C 	0.17092 0.15698 0.06441 0.13500
C 	C 	0.12389 0.17522 0.00059 0.10800
N 	N 	0.13308 0.01475 0.90904 -0.22300
N 	N 	0.22554 0.14301 0.88715 -0.26100
N 	N 	0.23449 0.09758 0.87497 -0.22400
N 	N 	0.18909 0.09418 0.92040 -0.15100
N 	N 	0.17975 0.05971 0.91034 -0.15000
N 	N 	0.16237 0.07613 0.93887 -0.15100
N 	N 	0.14925 0.12815 0.97432 -0.22900
N 	N 	0.12324 0.15762 0.99881 -0.26400
N 	N 	0.15103 0.12476 0.02009 -0.22900
N 	N 	0.18603 0.15572 0.07831 -0.15200
S 	S 	0.20537 0.17188 0.91304 -0.05900
S 	S 	0.12654 0.20072 0.00216 -0.06200
C 	C 	0.35258 0.65972 0.78011 0.03300
H 	H 	0.34440 0.64760 0.78270 0.01400
C 	C 	0.34914 0.67742 0.79250 -0.04600
C 	C 	0.36072 0.69523 0.78862 0.00600
H 	H 	0.35920 0.70740 0.79700 0.03800
C 	C 	0.37482 0.69486 0.77190 -0.10000
H 	H 	0.38240 0.70710 0.76820 0.06600
C 	C 	0.37758 0.67686 0.76093 0.06100
H 	H 	0.38760 0.67680 0.74990 -0.00000
C 	C 	0.28338 0.64774 0.90467 0.09800
C 	C 	0.26321 0.61148 0.83157 0.05700
H 	H 	0.25320 0.60060 0.83290 -0.00000
C 	C 	0.27462 0.61260 0.81334 -0.09600
H 	H 	0.27200 0.60310 0.80220 0.06300
C 	C 	0.29007 0.62779 0.81142 0.00400
H 	H 	0.29870 0.62840 0.79930 0.03800
C 	C 	0.29249 0.64210 0.82774 -0.04500
C 	C 	0.28001 0.64026 0.84528 0.03100
H 	H 	0.28170 0.65020 0.85620 0.01700
C 	C 	0.30877 0.65868 0.82718 0.13400
C 	C 	0.33461 0.67567 0.81030 0.13300
C 	C 	0.32589 0.68511 0.84316 0.13300
C 	C 	0.34601 0.71232 0.86178 0.03900
H 	H 	0.35420 0.71370 0.84940 0.01200
C 	C 	0.32952 0.69779 0.86185 -0.05100
C 	C 	0.31735 0.69589 0.87960 0.00900
H 	H 	0.30620 0.68600 0.88030 0.03700
C 	C 	0.32192 0.70891 0.89642 -0.10000
H 	H 	0.31360 0.70840 0.90870 0.06700
C 	C 	0.33860 0.72254 0.89511 0.06100
H 	H 	0.34160 0.73110 0.90690 0.00100
C 	C 	0.33301 0.76763 0.86138 0.06300
H 	H 	0.33410 0.75700 0.85110 -0.00100
C 	C 	0.31540 0.77940 0.86166 -0.10300
H 	H 	0.30450 0.77690 0.85190 0.06800
C 	C 	0.31360 0.79530 0.87667 0.00900
H 	H 	0.30160 0.80410 0.87710 0.03700
C 	C 	0.32984 0.79783 0.89076 -0.05200
C 	C 	0.34731 0.78502 0.88915 0.04200
H 	H 	0.35850 0.78700 0.89870 0.01100
C 	C 	0.32908 0.81441 0.90698 0.13500
C 	C 	0.37611 0.75059 0.92522 0.10800
N 	N 	0.36692 0.65904 0.76475 -0.22300
N 	N 	0.27446 0.63715 0.89301 -0.26100
N 	N 	0.26551 0.62497 0.84758 -0.22400
N 	N 	0.31091 0.67040 0.84418 -0.15100
N 	N 	0.32025 0.66034 0.80971 -0.15000
N 	N 	0.33763 0.68887 0.82613 -0.15100
N 	N 	0.35075 0.72432 0.87815 -0.22900
N 	N 	0.37676 0.74881 0.90762 -0.26400
N 	N 	0.34897 0.77009 0.87476 -0.22900
N 	N 	0.31397 0.82831 0.90572 -0.15200
S 	S 	0.29463 0.66304 0.92188 -0.05900
S 	S 	0.37346 0.75216 0.95072 -0.06200
C 	C 	0.35258 0.15972 0.28011 0.03300
H 	H 	0.34440 0.14760 0.28270 0.01400
C 	C 	0.34914 0.17742 0.29250 -0.04600
C 	C 	0.36072 0.19523 0.28862 0.00600
H 	H 	0.35920 0.20740 0.29700 0.03800
C 	C 	0.37482 0.19486 0.27190 -0.10000
H 	H 	0.38240 0.20710 0.26820 0.06600
C 	C 	0.37758 0.17686 0.26093 0.06100
H 	H 	0.38760 0.17680 0.24990 -0.00000
C 	C 	0.28338 0.14774 0.40467 0.09800
C 	C 	0.26321 0.11148 0.33157 0.05700
H 	H 	0.25320 0.10060 0.33290 -0.00000
C 	C 	0.27462 0.11260 0.31334 -0.09600
H 	H 	0.27200 0.10310 0.30220 0.06300
C 	C 	0.29007 0.12779 0.31142 0.00400
H 	H 	0.29870 0.12840 0.29930 0.03800
C 	C 	0.29249 0.14210 0.32774 -0.04500
C 	C 	0.28001 0.14026 0.34528 0.03100
H 	H 	0.28170 0.15020 0.35620 0.01700
C 	C 	0.30877 0.15868 0.32718 0.13400
C 	C 	0.33461 0.17567 0.31030 0.13300
C 	C 	0.32589 0.18511 0.34316 0.13300
C 	C 	0.34601 0.21232 0.36178 0.03900
H 	H 	0.35420 0.21370 0.34940 0.01200
C 	C 	0.32952 0.19779 0.36185 -0.05100
C 	C 	0.31735 0.19589 0.37960 0.00900
H 	H 	0.30620 0.18600 0.38030 0.03700
C 	C 	0.32192 0.20891 0.39642 -0.10000
H 	H 	0.31360 0.20840 0.40870 0.06700
C 	C 	0.33860 0.22254 0.39511 0.06100
H 	H 	0.34160 0.23110 0.40690 0.00100
C 	C 	0.33301 0.26763 0.36138 0.06300
H 	H 	0.33410 0.25700 0.35110 -0.00100
C 	C 	0.31540 0.27940 0.36166 -0.10300
H 	H 	0.30450 0.27690 0.35190 0.06800
C 	C 	0.31360 0.29530 0.37667 0.00900
H 	H 	0.30160 0.30410 0.37710 0.03700
C 	C 	0.32984 0.29783 0.39076 -0.05200
C 	C 	0.34731 0.28502 0.38915 0.04200
H 	H 	0.35850 0.28700 0.39870 0.01100
C 	C 	0.32908 0.31441 0.40698 0.13500
C 	C 	0.37611 0.25059 0.42522 0.10800
N 	N 	0.36692 0.15904 0.26475 -0.22300
N 	N 	0.27446 0.13715 0.39301 -0.26100
N 	N 	0.26551 0.12497 0.34758 -0.22400
N 	N 	0.31091 0.17040 0.34418 -0.15100
N 	N 	0.32025 0.16034 0.30971 -0.15000
N 	N 	0.33763 0.18887 0.32613 -0.15100
N 	N 	0.35075 0.22432 0.37815 -0.22900
N 	N 	0.37676 0.24881 0.40762 -0.26400
N 	N 	0.34897 0.27009 0.37476 -0.22900
N 	N 	0.31397 0.32831 0.40572 -0.15200
S 	S 	0.29463 0.16304 0.42188 -0.05900
S 	S 	0.37346 0.25216 0.45072 -0.06200
C 	C 	0.85258 0.65972 0.28011 0.03300
H 	H 	0.84440 0.64760 0.28270 0.01400
C 	C 	0.84914 0.67742 0.29250 -0.04600
C 	C 	0.86072 0.69523 0.28862 0.00600
H 	H 	0.85920 0.70740 0.29700 0.03800
C 	C 	0.87482 0.69486 0.27190 -0.10000
H 	H 	0.88240 0.70710 0.26820 0.06600
C 	C 	0.87758 0.67686 0.26093 0.06100
H 	H 	0.88760 0.67680 0.24990 -0.00000
C 	C 	0.78338 0.64774 0.40467 0.09800
C 	C 	0.76321 0.61148 0.33157 0.05700
H 	H 	0.75320 0.60060 0.33290 -0.00000
C 	C 	0.77462 0.61260 0.31334 -0.09600
H 	H 	0.77200 0.60310 0.30220 0.06300
C 	C 	0.79007 0.62779 0.31142 0.00400
H 	H 	0.79870 0.62840 0.29930 0.03800
C 	C 	0.79249 0.64210 0.32774 -0.04500
C 	C 	0.78001 0.64026 0.34528 0.03100
H 	H 	0.78170 0.65020 0.35620 0.01700
C 	C 	0.80877 0.65868 0.32718 0.13400
C 	C 	0.83461 0.67567 0.31030 0.13300
C 	C 	0.82589 0.68511 0.34316 0.13300
C 	C 	0.84601 0.71232 0.36178 0.03900
H 	H 	0.85420 0.71370 0.34940 0.01200
C 	C 	0.82952 0.69779 0.36185 -0.05100
C 	C 	0.81735 0.69589 0.37960 0.00900
H 	H 	0.80620 0.68600 0.38030 0.03700
C 	C 	0.82192 0.70891 0.39642 -0.10000
H 	H 	0.81360 0.70840 0.40870 0.06700
C 	C 	0.83860 0.72254 0.39511 0.06100
H 	H 	0.84160 0.73110 0.40690 0.00100
C 	C 	0.83301 0.76763 0.36138 0.06300
H 	H 	0.83410 0.75700 0.35110 -0.00100
C 	C 	0.81540 0.77940 0.36166 -0.10300
H 	H 	0.80450 0.77690 0.35190 0.06800
C 	C 	0.81360 0.79530 0.37667 0.00900
H 	H 	0.80160 0.80410 0.37710 0.03700
C 	C 	0.82984 0.79783 0.39076 -0.05200
C 	C 	0.84731 0.78502 0.38915 0.04200
H 	H 	0.85850 0.78700 0.39870 0.01100
C 	C 	0.82908 0.81441 0.40698 0.13500
C 	C 	0.87611 0.75059 0.42522 0.10800
N 	N 	0.86692 0.65904 0.26475 -0.22300
N 	N 	0.77446 0.63715 0.39301 -0.26100
N 	N 	0.76551 0.62497 0.34758 -0.22400
N 	N 	0.81091 0.67040 0.34418 -0.15100
N 	N 	0.82025 0.66034 0.30971 -0.15000
N 	N 	0.83763 0.68887 0.32613 -0.15100
N 	N 	0.85075 0.72432 0.37815 -0.22900
N 	N 	0.87676 0.74881 0.40762 -0.26400
N 	N 	0.84897 0.77009 0.37476 -0.22900
N 	N 	0.81397 0.82831 0.40572 -0.15200
S 	S 	0.79463 0.66304 0.42188 -0.05900
S 	S 	0.87346 0.75216 0.45072 -0.06200
C 	C 	0.85258 0.15972 0.78011 0.03300
H 	H 	0.84440 0.14760 0.78270 0.01400
C 	C 	0.84914 0.17742 0.79250 -0.04600
C 	C 	0.86072 0.19523 0.78862 0.00600
H 	H 	0.85920 0.20740 0.79700 0.03800
C 	C 	0.87482 0.19486 0.77190 -0.10000
H 	H 	0.88240 0.20710 0.76820 0.06600
C 	C 	0.87758 0.17686 0.76093 0.06100
H 	H 	0.88760 0.17680 0.74990 -0.00000
C 	C 	0.78338 0.14774 0.90467 0.09800
C 	C 	0.76321 0.11148 0.83157 0.05700
H 	H 	0.75320 0.10060 0.83290 -0.00000
C 	C 	0.77462 0.11260 0.81334 -0.09600
H 	H 	0.77200 0.10310 0.80220 0.06300
C 	C 	0.79007 0.12779 0.81142 0.00400
H 	H 	0.79870 0.12840 0.79930 0.03800
C 	C 	0.79249 0.14210 0.82774 -0.04500
C 	C 	0.78001 0.14026 0.84528 0.03100
H 	H 	0.78170 0.15020 0.85620 0.01700
C 	C 	0.80877 0.15868 0.82718 0.13400
C 	C 	0.83461 0.17567 0.81030 0.13300
C 	C 	0.82589 0.18511 0.84316 0.13300
C 	C 	0.84601 0.21232 0.86178 0.03900
H 	H 	0.85420 0.21370 0.84940 0.01200
C 	C 	0.82952 0.19779 0.86185 -0.05100
C 	C 	0.81735 0.19589 0.87960 0.00900
H 	H 	0.80620 0.18600 0.88030 0.03700
C 	C 	0.82192 0.20891 0.89642 -0.10000
H 	H 	0.81360 0.20840 0.90870 0.06700
C 	C 	0.83860 0.22254 0.89511 0.06100
H 	H 	0.84160 0.23110 0.90690 0.00100
C 	C 	0.83301 0.26763 0.86138 0.06300
H 	H 	0.83410 0.25700 0.85110 -0.00100
C 	C 	0.81540 0.27940 0.86166 -0.10300
H 	H 	0.80450 0.27690 0.85190 0.06800
C 	C 	0.81360 0.29530 0.87667 0.00900
H 	H 	0.80160 0.30410 0.87710 0.03700
C 	C 	0.82984 0.29783 0.89076 -0.05200
C 	C 	0.84731 0.28502 0.88915 0.04200
H 	H 	0.85850 0.28700 0.89870 0.01100
C 	C 	0.82908 0.31441 0.90698 0.13500
C 	C 	0.87611 0.25059 0.92522 0.10800
N 	N 	0.86692 0.15904 0.76475 -0.22300
N 	N 	0.77446 0.13715 0.89301 -0.26100
N 	N 	0.76551 0.12497 0.84758 -0.22400
N 	N 	0.81091 0.17040 0.84418 -0.15100
N 	N 	0.82025 0.16034 0.80971 -0.15000
N 	N 	0.83763 0.18887 0.82613 -0.15100
N 	N 	0.85075 0.22432 0.87815 -0.22900
N 	N 	0.87676 0.24881 0.90762 -0.26400
N 	N 	0.84897 0.27009 0.87476 -0.22900
N 	N 	0.81397 0.32831 0.90572 -0.15200
S 	S 	0.79463 0.16304 0.92188 -0.05900
S 	S 	0.87346 0.25216 0.95072 -0.06200
C 	C 	0.89742 0.09028 0.28011 0.03300
H 	H 	0.90560 0.10240 0.28270 0.01400
C 	C 	0.90086 0.07258 0.29250 -0.04600
C 	C 	0.88928 0.05477 0.28862 0.00600
H 	H 	0.89080 0.04260 0.29700 0.03800
C 	C 	0.87518 0.05514 0.27190 -0.10000
H 	H 	0.86760 0.04290 0.26820 0.06600
C 	C 	0.87242 0.07314 0.26093 0.06100
H 	H 	0.86240 0.07320 0.24990 -0.00000
C 	C 	0.96662 0.10226 0.40467 0.09800
C 	C 	0.98679 0.13852 0.33157 0.05700
H 	H 	0.99680 0.14940 0.33290 -0.00000
C 	C 	0.97538 0.13740 0.31334 -0.09600
H 	H 	0.97800 0.14690 0.30220 0.06300
C 	C 	0.95993 0.12221 0.31142 0.00400
H 	H 	0.95130 0.12160 0.29930 0.03800
C 	C 	0.95751 0.10790 0.32774 -0.04500
C 	C 	0.96999 0.10974 0.34528 0.03100
H 	H 	0.96830 0.09980 0.35620 0.01700
C 	C 	0.94123 0.09132 0.32718 0.13400
C 	C 	0.91539 0.07433 0.31030 0.13300
C 	C 	0.92411 0.06489 0.34316 0.13300
C 	C 	0.90399 0.03768 0.36178 0.03900
H 	H 	0.89580 0.03630 0.34940 0.01200
C 	C 	0.92048 0.05221 0.36185 -0.05100
C 	C 	0.93265 0.05411 0.37960 0.00900
H 	H 	0.94380 0.06400 0.38030 0.03700
C 	C 	0.92808 0.04109 0.39642 -0.10000
H 	H 	0.93640 0.04160 0.40870 0.06700
C 	C 	0.91140 0.02746 0.39511 0.06100
H 	H 	0.90840 0.01890 0.40690 0.00100
C 	C 	0.91699 0.98237 0.36138 0.06300
H 	H 	0.91590 0.99300 0.35110 -0.00100
C 	C 	0.93460 0.97060 0.36166 -0.10300
H 	H 	0.94550 0.97310 0.35190 0.06800
C 	C 	0.93640 0.95470 0.37667 0.00900
H 	H 	0.94840 0.94590 0.37710 0.03700
C 	C 	0.92016 0.95217 0.39076 -0.05200
C 	C 	0.90269 0.96498 0.38915 0.04200
H 	H 	0.89150 0.96300 0.39870 0.01100
C 	C 	0.92092 0.93559 0.40698 0.13500
C 	C 	0.87389 0.99941 0.42522 0.10800
N 	N 	0.88308 0.09096 0.26475 -0.22300
N 	N 	0.97554 0.11285 0.39301 -0.26100
N 	N 	0.98449 0.12503 0.34758 -0.22400
N 	N 	0.93909 0.07960 0.34418 -0.15100
N 	N 	0.92975 0.08966 0.30971 -0.15000
N 	N 	0.91237 0.06113 0.32613 -0.15100
N 	N 	0.89925 0.02568 0.37815 -0.22900
N 	N 	0.87324 0.00119 0.40762 -0.26400
N 	N 	0.90103 0.97991 0.37476 -0.22900
N 	N 	0.93603 0.92169 0.40572 -0.15200
S 	S 	0.95537 0.08696 0.42188 -0.05900
S 	S 	0.87654 0.99784 0.45072 -0.06200
C 	C 	0.89742 0.59028 0.78011 0.03300
H 	H 	0.90560 0.60240 0.78270 0.01400
C 	C 	0.90086 0.57258 0.79250 -0.04600
C 	C 	0.88928 0.55477 0.78862 0.00600
H 	H 	0.89080 0.54260 0.79700 0.03800
C 	C 	0.87518 0.55514 0.77190 -0.10000
H 	H 	0.86760 0.54290 0.76820 0.06600
C 	C 	0.87242 0.57314 0.76093 0.06100
H 	H 	0.86240 0.57320 0.74990 -0.00000
C 	C 	0.96662 0.60226 0.90467 0.09800
C 	C 	0.98679 0.63852 0.83157 0.05700
H 	H 	0.99680 0.64940 0.83290 -0.00000
C 	C 	0.97538 0.63740 0.81334 -0.09600
H 	H 	0.97800 0.64690 0.80220 0.06300
C 	C 	0.95993 0.62221 0.81142 0.00400
H 	H 	0.95130 0.62160 0.79930 0.03800
C 	C 	0.95751 0.60790 0.82774 -0.04500
C 	C 	0.96999 0.60974 0.84528 0.03100
H 	H 	0.96830 0.59980 0.85620 0.01700
C 	C 	0.94123 0.59132 0.82718 0.13400
C 	C 	0.91539 0.57433 0.81030 0.13300
C 	C 	0.92411 0.56489 0.84316 0.13300
C 	C 	0.90399 0.53768 0.86178 0.03900
H 	H 	0.89580 0.53630 0.84940 0.01200
C 	C 	0.92048 0.55221 0.86185 -0.05100
C 	C 	0.93265 0.55411 0.87960 0.00900
H 	H 	0.94380 0.56400 0.88030 0.03700
C 	C 	0.92808 0.54109 0.89642 -0.10000
H 	H 	0.93640 0.54160 0.90870 0.06700
C 	C 	0.91140 0.52746 0.89511 0.06100
H 	H 	0.90840 0.51890 0.90690 0.00100
C 	C 	0.91699 0.48237 0.86138 0.06300
H 	H 	0.91590 0.49300 0.85110 -0.00100
C 	C 	0.93460 0.47060 0.86166 -0.10300
H 	H 	0.94550 0.47310 0.85190 0.06800
C 	C 	0.93640 0.45470 0.87667 0.00900
H 	H 	0.94840 0.44590 0.87710 0.03700
C 	C 	0.92016 0.45217 0.89076 -0.05200
C 	C 	0.90269 0.46498 0.88915 0.04200
H 	H 	0.89150 0.46300 0.89870 0.01100
C 	C 	0.92092 0.43559 0.90698 0.13500
C 	C 	0.87389 0.49941 0.92522 0.10800
N 	N 	0.88308 0.59096 0.76475 -0.22300
N 	N 	0.97554 0.61285 0.89301 -0.26100
N 	N 	0.98449 0.62503 0.84758 -0.22400
N 	N 	0.93909 0.57960 0.84418 -0.15100
N 	N 	0.92975 0.58966 0.80971 -0.15000
N 	N 	0.91237 0.56113 0.82613 -0.15100
N 	N 	0.89925 0.52568 0.87815 -0.22900
N 	N 	0.87324 0.50119 0.90762 -0.26400
N 	N 	0.90103 0.47991 0.87476 -0.22900
N 	N 	0.93603 0.42169 0.90572 -0.15200
S 	S 	0.95537 0.58696 0.92188 -0.05900
S 	S 	0.87654 0.49784 0.95072 -0.06200
C 	C 	0.39742 0.09028 0.78011 0.03300
H 	H 	0.40560 0.10240 0.78270 0.01400
C 	C 	0.40086 0.07258 0.79250 -0.04600
C 	C 	0.38928 0.05477 0.78862 0.00600
H 	H 	0.39080 0.04260 0.79700 0.03800
C 	C 	0.37518 0.05514 0.77190 -0.10000
H 	H 	0.36760 0.04290 0.76820 0.06600
C 	C 	0.37242 0.07314 0.76093 0.06100
H 	H 	0.36240 0.07320 0.74990 -0.00000
C 	C 	0.46662 0.10226 0.90467 0.09800
C 	C 	0.48679 0.13852 0.83157 0.05700
H 	H 	0.49680 0.14940 0.83290 -0.00000
C 	C 	0.47538 0.13740 0.81334 -0.09600
H 	H 	0.47800 0.14690 0.80220 0.06300
C 	C 	0.45993 0.12221 0.81142 0.00400
H 	H 	0.45130 0.12160 0.79930 0.03800
C 	C 	0.45751 0.10790 0.82774 -0.04500
C 	C 	0.46999 0.10974 0.84528 0.03100
H 	H 	0.46830 0.09980 0.85620 0.01700
C 	C 	0.44123 0.09132 0.82718 0.13400
C 	C 	0.41539 0.07433 0.81030 0.13300
C 	C 	0.42411 0.06489 0.84316 0.13300
C 	C 	0.40399 0.03768 0.86178 0.03900
H 	H 	0.39580 0.03630 0.84940 0.01200
C 	C 	0.42048 0.05221 0.86185 -0.05100
C 	C 	0.43265 0.05411 0.87960 0.00900
H 	H 	0.44380 0.06400 0.88030 0.03700
C 	C 	0.42808 0.04109 0.89642 -0.10000
H 	H 	0.43640 0.04160 0.90870 0.06700
C 	C 	0.41140 0.02746 0.89511 0.06100
H 	H 	0.40840 0.01890 0.90690 0.00100
C 	C 	0.41699 0.98237 0.86138 0.06300
H 	H 	0.41590 0.99300 0.85110 -0.00100
C 	C 	0.43460 0.97060 0.86166 -0.10300
H 	H 	0.44550 0.97310 0.85190 0.06800
C 	C 	0.43640 0.95470 0.87667 0.00900
H 	H 	0.44840 0.94590 0.87710 0.03700
C 	C 	0.42016 0.95217 0.89076 -0.05200
C 	C 	0.40269 0.96498 0.88915 0.04200
H 	H 	0.39150 0.96300 0.89870 0.01100
C 	C 	0.42092 0.93559 0.90698 0.13500
C 	C 	0.37389 0.99941 0.92522 0.10800
N 	N 	0.38308 0.09096 0.76475 -0.22300
N 	N 	0.47554 0.11285 0.89301 -0.26100
N 	N 	0.48449 0.12503 0.84758 -0.22400
N 	N 	0.43909 0.07960 0.84418 -0.15100
N 	N 	0.42975 0.08966 0.80971 -0.15000
N 	N 	0.41237 0.06113 0.82613 -0.15100
N 	N 	0.39925 0.02568 0.87815 -0.22900
N 	N 	0.37324 0.00119 0.90762 -0.26400
N 	N 	0.40103 0.97991 0.87476 -0.22900
N 	N 	0.43603 0.92169 0.90572 -0.15200
S 	S 	0.45537 0.08696 0.92188 -0.05900
S 	S 	0.37654 0.99784 0.95072 -0.06200
C 	C 	0.39742 0.59028 0.28011 0.03300
H 	H 	0.40560 0.60240 0.28270 0.01400
C 	C 	0.40086 0.57258 0.29250 -0.04600
C 	C 	0.38928 0.55477 0.28862 0.00600
H 	H 	0.39080 0.54260 0.29700 0.03800
C 	C 	0.37518 0.55514 0.27190 -0.10000
H 	H 	0.36760 0.54290 0.26820 0.06600
C 	C 	0.37242 0.57314 0.26093 0.06100
H 	H 	0.36240 0.57320 0.24990 -0.00000
C 	C 	0.46662 0.60226 0.40467 0.09800
C 	C 	0.48679 0.63852 0.33157 0.05700
H 	H 	0.49680 0.64940 0.33290 -0.00000
C 	C 	0.47538 0.63740 0.31334 -0.09600
H 	H 	0.47800 0.64690 0.30220 0.06300
C 	C 	0.45993 0.62221 0.31142 0.00400
H 	H 	0.45130 0.62160 0.29930 0.03800
C 	C 	0.45751 0.60790 0.32774 -0.04500
C 	C 	0.46999 0.60974 0.34528 0.03100
H 	H 	0.46830 0.59980 0.35620 0.01700
C 	C 	0.44123 0.59132 0.32718 0.13400
C 	C 	0.41539 0.57433 0.31030 0.13300
C 	C 	0.42411 0.56489 0.34316 0.13300
C 	C 	0.40399 0.53768 0.36178 0.03900
H 	H 	0.39580 0.53630 0.34940 0.01200
C 	C 	0.42048 0.55221 0.36185 -0.05100
C 	C 	0.43265 0.55411 0.37960 0.00900
H 	H 	0.44380 0.56400 0.38030 0.03700
C 	C 	0.42808 0.54109 0.39642 -0.10000
H 	H 	0.43640 0.54160 0.40870 0.06700
C 	C 	0.41140 0.52746 0.39511 0.06100
H 	H 	0.40840 0.51890 0.40690 0.00100
C 	C 	0.41699 0.48237 0.36138 0.06300
H 	H 	0.41590 0.49300 0.35110 -0.00100
C 	C 	0.43460 0.47060 0.36166 -0.10300
H 	H 	0.44550 0.47310 0.35190 0.06800
C 	C 	0.43640 0.45470 0.37667 0.00900
H 	H 	0.44840 0.44590 0.37710 0.03700
C 	C 	0.42016 0.45217 0.39076 -0.05200
C 	C 	0.40269 0.46498 0.38915 0.04200
H 	H 	0.39150 0.46300 0.39870 0.01100
C 	C 	0.42092 0.43559 0.40698 0.13500
C 	C 	0.37389 0.49941 0.42522 0.10800
N 	N 	0.38308 0.59096 0.26475 -0.22300
N 	N 	0.47554 0.61285 0.39301 -0.26100
N 	N 	0.48449 0.62503 0.34758 -0.22400
N 	N 	0.43909 0.57960 0.34418 -0.15100
N 	N 	0.42975 0.58966 0.30971 -0.15000
N 	N 	0.41237 0.56113 0.32613 -0.15100
N 	N 	0.39925 0.52568 0.37815 -0.22900
N 	N 	0.37324 0.50119 0.40762 -0.26400
N 	N 	0.40103 0.47991 0.37476 -0.22900
N 	N 	0.43603 0.42169 0.40572 -0.15200
S 	S 	0.45537 0.58696 0.42188 -0.05900
S 	S 	0.37654 0.49784 0.45072 -0.06200
C 	C 	0.85258 0.59028 0.96989 0.03300
H 	H 	0.84440 0.60240 0.96730 0.01400
C 	C 	0.84914 0.57258 0.95750 -0.04600
C 	C 	0.86072 0.55477 0.96138 0.00600
H 	H 	0.85920 0.54260 0.95300 0.03800
C 	C 	0.87482 0.55514 0.97810 -0.10000
H 	H 	0.88240 0.54290 0.98180 0.06600
C 	C 	0.87758 0.57314 0.98907 0.06100
H 	H 	0.88760 0.57320 0.00010 -0.00000
C 	C 	0.78338 0.60226 0.84533 0.09800
C 	C 	0.76321 0.63852 0.91843 0.05700
H 	H 	0.75320 0.64940 0.91710 -0.00000
C 	C 	0.77462 0.63740 0.93666 -0.09600
H 	H 	0.77200 0.64690 0.94780 0.06300
C 	C 	0.79007 0.62221 0.93858 0.00400
H 	H 	0.79870 0.62160 0.95070 0.03800
C 	C 	0.79249 0.60790 0.92226 -0.04500
C 	C 	0.78001 0.60974 0.90472 0.03100
H 	H 	0.78170 0.59980 0.89380 0.01700
C 	C 	0.80877 0.59132 0.92282 0.13400
C 	C 	0.83461 0.57433 0.93970 0.13300
C 	C 	0.82589 0.56489 0.90684 0.13300
C 	C 	0.84601 0.53768 0.88822 0.03900
H 	H 	0.85420 0.53630 0.90060 0.01200
C 	C 	0.82952 0.55221 0.88815 -0.05100
C 	C 	0.81735 0.55411 0.87040 0.00900
H 	H 	0.80620 0.56400 0.86970 0.03700
C 	C 	0.82192 0.54109 0.85358 -0.10000
H 	H 	0.81360 0.54160 0.84130 0.06700
C 	C 	0.83860 0.52746 0.85489 0.06100
H 	H 	0.84160 0.51890 0.84310 0.00100
C 	C 	0.83301 0.48237 0.88862 0.06300
H 	H 	0.83410 0.49300 0.89890 -0.00100
C 	C 	0.81540 0.47060 0.88834 -0.10300
H 	H 	0.80450 0.47310 0.89810 0.06800
C 	C 	0.81360 0.45470 0.87333 0.00900
H 	H 	0.80160 0.44590 0.87290 0.03700
C 	C 	0.82984 0.45217 0.85924 -0.05200
C 	C 	0.84731 0.46498 0.86085 0.04200
H 	H 	0.85850 0.46300 0.85130 0.01100
C 	C 	0.82908 0.43559 0.84302 0.13500
C 	C 	0.87611 0.49941 0.82478 0.10800
N 	N 	0.86692 0.59096 0.98525 -0.22300
N 	N 	0.77446 0.61285 0.85699 -0.26100
N 	N 	0.76551 0.62503 0.90242 -0.22400
N 	N 	0.81091 0.57960 0.90582 -0.15100
N 	N 	0.82025 0.58966 0.94029 -0.15000
N 	N 	0.83763 0.56113 0.92387 -0.15100
N 	N 	0.85075 0.52568 0.87185 -0.22900
N 	N 	0.87676 0.50119 0.84238 -0.26400
N 	N 	0.84897 0.47991 0.87524 -0.22900
N 	N 	0.81397 0.42169 0.84428 -0.15200
S 	S 	0.79463 0.58696 0.82812 -0.05900
S 	S 	0.87346 0.49784 0.79928 -0.06200
C 	C 	0.85258 0.09028 0.46989 0.03300
H 	H 	0.84440 0.10240 0.46730 0.01400
C 	C 	0.84914 0.07258 0.45750 -0.04600
C 	C 	0.86072 0.05477 0.46138 0.00600
H 	H 	0.85920 0.04260 0.45300 0.03800
C 	C 	0.87482 0.05514 0.47810 -0.10000
H 	H 	0.88240 0.04290 0.48180 0.06600
C 	C 	0.87758 0.07314 0.48907 0.06100
H 	H 	0.88760 0.07320 0.50010 -0.00000
C 	C 	0.78338 0.10226 0.34533 0.09800
C 	C 	0.76321 0.13852 0.41843 0.05700
H 	H 	0.75320 0.14940 0.41710 -0.00000
C 	C 	0.77462 0.13740 0.43666 -0.09600
H 	H 	0.77200 0.14690 0.44780 0.06300
C 	C 	0.79007 0.12221 0.43858 0.00400
H 	H 	0.79870 0.12160 0.45070 0.03800
C 	C 	0.79249 0.10790 0.42226 -0.04500
C 	C 	0.78001 0.10974 0.40472 0.03100
H 	H 	0.78170 0.09980 0.39380 0.01700
C 	C 	0.80877 0.09132 0.42282 0.13400
C 	C 	0.83461 0.07433 0.43970 0.13300
C 	C 	0.82589 0.06489 0.40684 0.13300
C 	C 	0.84601 0.03768 0.38822 0.03900
H 	H 	0.85420 0.03630 0.40060 0.01200
C 	C 	0.82952 0.05221 0.38815 -0.05100
C 	C 	0.81735 0.05411 0.37040 0.00900
H 	H 	0.80620 0.06400 0.36970 0.03700
C 	C 	0.82192 0.04109 0.35358 -0.10000
H 	H 	0.81360 0.04160 0.34130 0.06700
C 	C 	0.83860 0.02746 0.35489 0.06100
H 	H 	0.84160 0.01890 0.34310 0.00100
C 	C 	0.83301 0.98237 0.38862 0.06300
H 	H 	0.83410 0.99300 0.39890 -0.00100
C 	C 	0.81540 0.97060 0.38834 -0.10300
H 	H 	0.80450 0.97310 0.39810 0.06800
C 	C 	0.81360 0.95470 0.37333 0.00900
H 	H 	0.80160 0.94590 0.37290 0.03700
C 	C 	0.82984 0.95217 0.35924 -0.05200
C 	C 	0.84731 0.96498 0.36085 0.04200
H 	H 	0.85850 0.96300 0.35130 0.01100
C 	C 	0.82908 0.93559 0.34302 0.13500
C 	C 	0.87611 0.99941 0.32478 0.10800
N 	N 	0.86692 0.09096 0.48525 -0.22300
N 	N 	0.77446 0.11285 0.35699 -0.26100
N 	N 	0.76551 0.12503 0.40242 -0.22400
N 	N 	0.81091 0.07960 0.40582 -0.15100
N 	N 	0.82025 0.08966 0.44029 -0.15000
N 	N 	0.83763 0.06113 0.42387 -0.15100
N 	N 	0.85075 0.02568 0.37185 -0.22900
N 	N 	0.87676 0.00119 0.34238 -0.26400
N 	N 	0.84897 0.97991 0.37524 -0.22900
N 	N 	0.81397 0.92169 0.34428 -0.15200
S 	S 	0.79463 0.08696 0.32812 -0.05900
S 	S 	0.87346 0.99784 0.29928 -0.06200
C 	C 	0.35258 0.59028 0.46989 0.03300
H 	H 	0.34440 0.60240 0.46730 0.01400
C 	C 	0.34914 0.57258 0.45750 -0.04600
C 	C 	0.36072 0.55477 0.46138 0.00600
H 	H 	0.35920 0.54260 0.45300 0.03800
C 	C 	0.37482 0.55514 0.47810 -0.10000
H 	H 	0.38240 0.54290 0.48180 0.06600
C 	C 	0.37758 0.57314 0.48907 0.06100
H 	H 	0.38760 0.57320 0.50010 -0.00000
C 	C 	0.28338 0.60226 0.34533 0.09800
C 	C 	0.26321 0.63852 0.41843 0.05700
H 	H 	0.25320 0.64940 0.41710 -0.00000
C 	C 	0.27462 0.63740 0.43666 -0.09600
H 	H 	0.27200 0.64690 0.44780 0.06300
C 	C 	0.29007 0.62221 0.43858 0.00400
H 	H 	0.29870 0.62160 0.45070 0.03800
C 	C 	0.29249 0.60790 0.42226 -0.04500
C 	C 	0.28001 0.60974 0.40472 0.03100
H 	H 	0.28170 0.59980 0.39380 0.01700
C 	C 	0.30877 0.59132 0.42282 0.13400
C 	C 	0.33461 0.57433 0.43970 0.13300
C 	C 	0.32589 0.56489 0.40684 0.13300
C 	C 	0.34601 0.53768 0.38822 0.03900
H 	H 	0.35420 0.53630 0.40060 0.01200
C 	C 	0.32952 0.55221 0.38815 -0.05100
C 	C 	0.31735 0.55411 0.37040 0.00900
H 	H 	0.30620 0.56400 0.36970 0.03700
C 	C 	0.32192 0.54109 0.35358 -0.10000
H 	H 	0.31360 0.54160 0.34130 0.06700
C 	C 	0.33860 0.52746 0.35489 0.06100
H 	H 	0.34160 0.51890 0.34310 0.00100
C 	C 	0.33301 0.48237 0.38862 0.06300
H 	H 	0.33410 0.49300 0.39890 -0.00100
C 	C 	0.31540 0.47060 0.38834 -0.10300
H 	H 	0.30450 0.47310 0.39810 0.06800
C 	C 	0.31360 0.45470 0.37333 0.00900
H 	H 	0.30160 0.44590 0.37290 0.03700
C 	C 	0.32984 0.45217 0.35924 -0.05200
C 	C 	0.34731 0.46498 0.36085 0.04200
H 	H 	0.35850 0.46300 0.35130 0.01100
C 	C 	0.32908 0.43559 0.34302 0.13500
C 	C 	0.37611 0.49941 0.32478 0.10800
N 	N 	0.36692 0.59096 0.48525 -0.22300
N 	N 	0.27446 0.61285 0.35699 -0.26100
N 	N 	0.26551 0.62503 0.40242 -0.22400
N 	N 	0.31091 0.57960 0.40582 -0.15100
N 	N 	0.32025 0.58966 0.44029 -0.15000
N 	N 	0.33763 0.56113 0.42387 -0.15100
N 	N 	0.35075 0.52568 0.37185 -0.22900
N 	N 	0.37676 0.50119 0.34238 -0.26400
N 	N 	0.34897 0.47991 0.37524 -0.22900
N 	N 	0.31397 0.42169 0.34428 -0.15200
S 	S 	0.29463 0.58696 0.32812 -0.05900
S 	S 	0.37346 0.49784 0.29928 -0.06200
C 	C 	0.35258 0.09028 0.96989 0.03300
H 	H 	0.34440 0.10240 0.96730 0.01400
C 	C 	0.34914 0.07258 0.95750 -0.04600
C 	C 	0.36072 0.05477 0.96138 0.00600
H 	H 	0.35920 0.04260 0.95300 0.03800
C 	C 	0.37482 0.05514 0.97810 -0.10000
H 	H 	0.38240 0.04290 0.98180 0.06600
C 	C 	0.37758 0.07314 0.98907 0.06100
H 	H 	0.38760 0.07320 0.00010 -0.00000
C 	C 	0.28338 0.10226 0.84533 0.09800
C 	C 	0.26321 0.13852 0.91843 0.05700
H 	H 	0.25320 0.14940 0.91710 -0.00000
C 	C 	0.27462 0.13740 0.93666 -0.09600
H 	H 	0.27200 0.14690 0.94780 0.06300
C 	C 	0.29007 0.12221 0.93858 0.00400
H 	H 	0.29870 0.12160 0.95070 0.03800
C 	C 	0.29249 0.10790 0.92226 -0.04500
C 	C 	0.28001 0.10974 0.90472 0.03100
H 	H 	0.28170 0.09980 0.89380 0.01700
C 	C 	0.30877 0.09132 0.92282 0.13400
C 	C 	0.33461 0.07433 0.93970 0.13300
C 	C 	0.32589 0.06489 0.90684 0.13300
C 	C 	0.34601 0.03768 0.88822 0.03900
H 	H 	0.35420 0.03630 0.90060 0.01200
C 	C 	0.32952 0.05221 0.88815 -0.05100
C 	C 	0.31735 0.05411 0.87040 0.00900
H 	H 	0.30620 0.06400 0.86970 0.03700
C 	C 	0.32192 0.04109 0.85358 -0.10000
H 	H 	0.31360 0.04160 0.84130 0.06700
C 	C 	0.33860 0.02746 0.85489 0.06100
H 	H 	0.34160 0.01890 0.84310 0.00100
C 	C 	0.33301 0.98237 0.88862 0.06300
H 	H 	0.33410 0.99300 0.89890 -0.00100
C 	C 	0.31540 0.97060 0.88834 -0.10300
H 	H 	0.30450 0.97310 0.89810 0.06800
C 	C 	0.31360 0.95470 0.87333 0.00900
H 	H 	0.30160 0.94590 0.87290 0.03700
C 	C 	0.32984 0.95217 0.85924 -0.05200
C 	C 	0.34731 0.96498 0.86085 0.04200
H 	H 	0.35850 0.96300 0.85130 0.01100
C 	C 	0.32908 0.93559 0.84302 0.13500
C 	C 	0.37611 0.99941 0.82478 0.10800
N 	N 	0.36692 0.09096 0.98525 -0.22300
N 	N 	0.27446 0.11285 0.85699 -0.26100
N 	N 	0.26551 0.12503 0.90242 -0.22400
N 	N 	0.31091 0.07960 0.90582 -0.15100
N 	N 	0.32025 0.08966 0.94029 -0.15000
N 	N 	0.33763 0.06113 0.92387 -0.15100
N 	N 	0.35075 0.02568 0.87185 -0.22900
N 	N 	0.37676 0.00119 0.84238 -0.26400
N 	N 	0.34897 0.97991 0.87524 -0.22900
N 	N 	0.31397 0.92169 0.84428 -0.15200
S 	S 	0.29463 0.08696 0.82812 -0.05900
S 	S 	0.37346 0.99784 0.79928 -0.06200
C 	C 	0.39742 0.15972 0.46989 0.03300
H 	H 	0.40560 0.14760 0.46730 0.01400
C 	C 	0.40086 0.17742 0.45750 -0.04600
C 	C 	0.38928 0.19523 0.46138 0.00600
H 	H 	0.39080 0.20740 0.45300 0.03800
C 	C 	0.37518 0.19486 0.47810 -0.10000
H 	H 	0.36760 0.20710 0.48180 0.06600
C 	C 	0.37242 0.17686 0.48907 0.06100
H 	H 	0.36240 0.17680 0.50010 -0.00000
C 	C 	0.46662 0.14774 0.34533 0.09800
C 	C 	0.48679 0.11148 0.41843 0.05700
H 	H 	0.49680 0.10060 0.41710 -0.00000
C 	C 	0.47538 0.11260 0.43666 -0.09600
H 	H 	0.47800 0.10310 0.44780 0.06300
C 	C 	0.45993 0.12779 0.43858 0.00400
H 	H 	0.45130 0.12840 0.45070 0.03800
C 	C 	0.45751 0.14210 0.42226 -0.04500
C 	C 	0.46999 0.14026 0.40472 0.03100
H 	H 	0.46830 0.15020 0.39380 0.01700
C 	C 	0.44123 0.15868 0.42282 0.13400
C 	C 	0.41539 0.17567 0.43970 0.13300
C 	C 	0.42411 0.18511 0.40684 0.13300
C 	C 	0.40399 0.21232 0.38822 0.03900
H 	H 	0.39580 0.21370 0.40060 0.01200
C 	C 	0.42048 0.19779 0.38815 -0.05100
C 	C 	0.43265 0.19589 0.37040 0.00900
H 	H 	0.44380 0.18600 0.36970 0.03700
C 	C 	0.42808 0.20891 0.35358 -0.10000
H 	H 	0.43640 0.20840 0.34130 0.06700
C 	C 	0.41140 0.22254 0.35489 0.06100
H 	H 	0.40840 0.23110 0.34310 0.00100
C 	C 	0.41699 0.26763 0.38862 0.06300
H 	H 	0.41590 0.25700 0.39890 -0.00100
C 	C 	0.43460 0.27940 0.38834 -0.10300
H 	H 	0.44550 0.27690 0.39810 0.06800
C 	C 	0.43640 0.29530 0.37333 0.00900
H 	H 	0.44840 0.30410 0.37290 0.03700
C 	C 	0.42016 0.29783 0.35924 -0.05200
C 	C 	0.40269 0.28502 0.36085 0.04200
H 	H 	0.39150 0.28700 0.35130 0.01100
C 	C 	0.42092 0.31441 0.34302 0.13500
C 	C 	0.37389 0.25059 0.32478 0.10800
N 	N 	0.38308 0.15904 0.48525 -0.22300
N 	N 	0.47554 0.13715 0.35699 -0.26100
N 	N 	0.48449 0.12497 0.40242 -0.22400
N 	N 	0.43909 0.17040 0.40582 -0.15100
N 	N 	0.42975 0.16034 0.44029 -0.15000
N 	N 	0.41237 0.18887 0.42387 -0.15100
N 	N 	0.39925 0.22432 0.37185 -0.22900
N 	N 	0.37324 0.24881 0.34238 -0.26400
N 	N 	0.40103 0.27009 0.37524 -0.22900
N 	N 	0.43603 0.32831 0.34428 -0.15200
S 	S 	0.45537 0.16304 0.32812 -0.05900
S 	S 	0.37654 0.25216 0.29928 -0.06200
C 	C 	0.39742 0.65972 0.96989 0.03300
H 	H 	0.40560 0.64760 0.96730 0.01400
C 	C 	0.40086 0.67742 0.95750 -0.04600
C 	C 	0.38928 0.69523 0.96138 0.00600
H 	H 	0.39080 0.70740 0.95300 0.03800
C 	C 	0.37518 0.69486 0.97810 -0.10000
H 	H 	0.36760 0.70710 0.98180 0.06600
C 	C 	0.37242 0.67686 0.98907 0.06100
H 	H 	0.36240 0.67680 0.00010 -0.00000
C 	C 	0.46662 0.64774 0.84533 0.09800
C 	C 	0.48679 0.61148 0.91843 0.05700
H 	H 	0.49680 0.60060 0.91710 -0.00000
C 	C 	0.47538 0.61260 0.93666 -0.09600
H 	H 	0.47800 0.60310 0.94780 0.06300
C 	C 	0.45993 0.62779 0.93858 0.00400
H 	H 	0.45130 0.62840 0.95070 0.03800
C 	C 	0.45751 0.64210 0.92226 -0.04500
C 	C 	0.46999 0.64026 0.90472 0.03100
H 	H 	0.46830 0.65020 0.89380 0.01700
C 	C 	0.44123 0.65868 0.92282 0.13400
C 	C 	0.41539 0.67567 0.93970 0.13300
C 	C 	0.42411 0.68511 0.90684 0.13300
C 	C 	0.40399 0.71232 0.88822 0.03900
H 	H 	0.39580 0.71370 0.90060 0.01200
C 	C 	0.42048 0.69779 0.88815 -0.05100
C 	C 	0.43265 0.69589 0.87040 0.00900
H 	H 	0.44380 0.68600 0.86970 0.03700
C 	C 	0.42808 0.70891 0.85358 -0.10000
H 	H 	0.43640 0.70840 0.84130 0.06700
C 	C 	0.41140 0.72254 0.85489 0.06100
H 	H 	0.40840 0.73110 0.84310 0.00100
C 	C 	0.41699 0.76763 0.88862 0.06300
H 	H 	0.41590 0.75700 0.89890 -0.00100
C 	C 	0.43460 0.77940 0.88834 -0.10300
H 	H 	0.44550 0.77690 0.89810 0.06800
C 	C 	0.43640 0.79530 0.87333 0.00900
H 	H 	0.44840 0.80410 0.87290 0.03700
C 	C 	0.42016 0.79783 0.85924 -0.05200
C 	C 	0.40269 0.78502 0.86085 0.04200
H 	H 	0.39150 0.78700 0.85130 0.01100
C 	C 	0.42092 0.81441 0.84302 0.13500
C 	C 	0.37389 0.75059 0.82478 0.10800
N 	N 	0.38308 0.65904 0.98525 -0.22300
N 	N 	0.47554 0.63715 0.85699 -0.26100
N 	N 	0.48449 0.62497 0.90242 -0.22400
N 	N 	0.43909 0.67040 0.90582 -0.15100
N 	N 	0.42975 0.66034 0.94029 -0.15000
N 	N 	0.41237 0.68887 0.92387 -0.15100
N 	N 	0.39925 0.72432 0.87185 -0.22900
N 	N 	0.37324 0.74881 0.84238 -0.26400
N 	N 	0.40103 0.77009 0.87524 -0.22900
N 	N 	0.43603 0.82831 0.84428 -0.15200
S 	S 	0.45537 0.66304 0.82812 -0.05900
S 	S 	0.37654 0.75216 0.79928 -0.06200
C 	C 	0.89742 0.15972 0.96989 0.03300
H 	H 	0.90560 0.14760 0.96730 0.01400
C 	C 	0.90086 0.17742 0.95750 -0.04600
C 	C 	0.88928 0.19523 0.96138 0.00600
H 	H 	0.89080 0.20740 0.95300 0.03800
C 	C 	0.87518 0.19486 0.97810 -0.10000
H 	H 	0.86760 0.20710 0.98180 0.06600
C 	C 	0.87242 0.17686 0.98907 0.06100
H 	H 	0.86240 0.17680 0.00010 -0.00000
C 	C 	0.96662 0.14774 0.84533 0.09800
C 	C 	0.98679 0.11148 0.91843 0.05700
H 	H 	0.99680 0.10060 0.91710 -0.00000
C 	C 	0.97538 0.11260 0.93666 -0.09600
H 	H 	0.97800 0.10310 0.94780 0.06300
C 	C 	0.95993 0.12779 0.93858 0.00400
H 	H 	0.95130 0.12840 0.95070 0.03800
C 	C 	0.95751 0.14210 0.92226 -0.04500
C 	C 	0.96999 0.14026 0.90472 0.03100
H 	H 	0.96830 0.15020 0.89380 0.01700
C 	C 	0.94123 0.15868 0.92282 0.13400
C 	C 	0.91539 0.17567 0.93970 0.13300
C 	C 	0.92411 0.18511 0.90684 0.13300
C 	C 	0.90399 0.21232 0.88822 0.03900
H 	H 	0.89580 0.21370 0.90060 0.01200
C 	C 	0.92048 0.19779 0.88815 -0.05100
C 	C 	0.93265 0.19589 0.87040 0.00900
H 	H 	0.94380 0.18600 0.86970 0.03700
C 	C 	0.92808 0.20891 0.85358 -0.10000
H 	H 	0.93640 0.20840 0.84130 0.06700
C 	C 	0.91140 0.22254 0.85489 0.06100
H 	H 	0.90840 0.23110 0.84310 0.00100
C 	C 	0.91699 0.26763 0.88862 0.06300
H 	H 	0.91590 0.25700 0.89890 -0.00100
C 	C 	0.93460 0.27940 0.88834 -0.10300
H 	H 	0.94550 0.27690 0.89810 0.06800
C 	C 	0.93640 0.29530 0.87333 0.00900
H 	H 	0.94840 0.30410 0.87290 0.03700
C 	C 	0.92016 0.29783 0.85924 -0.05200
C 	C 	0.90269 0.28502 0.86085 0.04200
H 	H 	0.89150 0.28700 0.85130 0.01100
C 	C 	0.92092 0.31441 0.84302 0.13500
C 	C 	0.87389 0.25059 0.82478 0.10800
N 	N 	0.88308 0.15904 0.98525 -0.22300
N 	N 	0.97554 0.13715 0.85699 -0.26100
N 	N 	0.98449 0.12497 0.90242 -0.22400
N 	N 	0.93909 0.17040 0.90582 -0.15100
N 	N 	0.92975 0.16034 0.94029 -0.15000
N 	N 	0.91237 0.18887 0.92387 -0.15100
N 	N 	0.89925 0.22432 0.87185 -0.22900
N 	N 	0.87324 0.24881 0.84238 -0.26400
N 	N 	0.90103 0.27009 0.87524 -0.22900
N 	N 	0.93603 0.32831 0.84428 -0.15200
S 	S 	0.95537 0.16304 0.82812 -0.05900
S 	S 	0.87654 0.25216 0.79928 -0.06200
C 	C 	0.89742 0.65972 0.46989 0.03300
H 	H 	0.90560 0.64760 0.46730 0.01400
C 	C 	0.90086 0.67742 0.45750 -0.04600
C 	C 	0.88928 0.69523 0.46138 0.00600
H 	H 	0.89080 0.70740 0.45300 0.03800
C 	C 	0.87518 0.69486 0.47810 -0.10000
H 	H 	0.86760 0.70710 0.48180 0.06600
C 	C 	0.87242 0.67686 0.48907 0.06100
H 	H 	0.86240 0.67680 0.50010 -0.00000
C 	C 	0.96662 0.64774 0.34533 0.09800
C 	C 	0.98679 0.61148 0.41843 0.05700
H 	H 	0.99680 0.60060 0.41710 -0.00000
C 	C 	0.97538 0.61260 0.43666 -0.09600
H 	H 	0.97800 0.60310 0.44780 0.06300
C 	C 	0.95993 0.62779 0.43858 0.00400
H 	H 	0.95130 0.62840 0.45070 0.03800
C 	C 	0.95751 0.64210 0.42226 -0.04500
C 	C 	0.96999 0.64026 0.40472 0.03100
H 	H 	0.96830 0.65020 0.39380 0.01700
C 	C 	0.94123 0.65868 0.42282 0.13400
C 	C 	0.91539 0.67567 0.43970 0.13300
C 	C 	0.92411 0.68511 0.40684 0.13300
C 	C 	0.90399 0.71232 0.38822 0.03900
H 	H 	0.89580 0.71370 0.40060 0.01200
C 	C 	0.92048 0.69779 0.38815 -0.05100
C 	C 	0.93265 0.69589 0.37040 0.00900
H 	H 	0.94380 0.68600 0.36970 0.03700
C 	C 	0.92808 0.70891 0.35358 -0.10000
H 	H 	0.93640 0.70840 0.34130 0.06700
C 	C 	0.91140 0.72254 0.35489 0.06100
H 	H 	0.90840 0.73110 0.34310 0.00100
C 	C 	0.91699 0.76763 0.38862 0.06300
H 	H 	0.91590 0.75700 0.39890 -0.00100
C 	C 	0.93460 0.77940 0.38834 -0.10300
H 	H 	0.94550 0.77690 0.39810 0.06800
C 	C 	0.93640 0.79530 0.37333 0.00900
H 	H 	0.94840 0.80410 0.37290 0.03700
C 	C 	0.92016 0.79783 0.35924 -0.05200
C 	C 	0.90269 0.78502 0.36085 0.04200
H 	H 	0.89150 0.78700 0.35130 0.01100
C 	C 	0.92092 0.81441 0.34302 0.13500
C 	C 	0.87389 0.75059 0.32478 0.10800
N 	N 	0.88308 0.65904 0.48525 -0.22300
N 	N 	0.97554 0.63715 0.35699 -0.26100
N 	N 	0.98449 0.62497 0.40242 -0.22400
N 	N 	0.93909 0.67040 0.40582 -0.15100
N 	N 	0.92975 0.66034 0.44029 -0.15000
N 	N 	0.91237 0.68887 0.42387 -0.15100
N 	N 	0.89925 0.72432 0.37185 -0.22900
N 	N 	0.87324 0.74881 0.34238 -0.26400
N 	N 	0.90103 0.77009 0.37524 -0.22900
N 	N 	0.93603 0.82831 0.34428 -0.15200
S 	S 	0.95537 0.66304 0.32812 -0.05900
S 	S 	0.87654 0.75216 0.29928 -0.06200
C 	C 	0.15972 0.46989 0.39742 0.03300
H 	H 	0.14760 0.46730 0.40560 0.01400
C 	C 	0.17742 0.45750 0.40086 -0.04600
C 	C 	0.19523 0.46138 0.38928 0.00600
H 	H 	0.20740 0.45300 0.39080 0.03800
C 	C 	0.19486 0.47810 0.37518 -0.10000
H 	H 	0.20710 0.48180 0.36760 0.06600
C 	C 	0.17686 0.48907 0.37242 0.06100
H 	H 	0.17680 0.50010 0.36240 -0.00000
C 	C 	0.14774 0.34533 0.46662 0.09800
C 	C 	0.11148 0.41843 0.48679 0.05700
H 	H 	0.10060 0.41710 0.49680 -0.00000
C 	C 	0.11260 0.43666 0.47538 -0.09600
H 	H 	0.10310 0.44780 0.47800 0.06300
C 	C 	0.12779 0.43858 0.45993 0.00400
H 	H 	0.12840 0.45070 0.45130 0.03800
C 	C 	0.14210 0.42226 0.45751 -0.04500
C 	C 	0.14026 0.40472 0.46999 0.03100
H 	H 	0.15020 0.39380 0.46830 0.01700
C 	C 	0.15868 0.42282 0.44123 0.13400
C 	C 	0.17567 0.43970 0.41539 0.13300
C 	C 	0.18511 0.40684 0.42411 0.13300
C 	C 	0.21232 0.38822 0.40399 0.03900
H 	H 	0.21370 0.40060 0.39580 0.01200
C 	C 	0.19779 0.38815 0.42048 -0.05100
C 	C 	0.19589 0.37040 0.43265 0.00900
H 	H 	0.18600 0.36970 0.44380 0.03700
C 	C 	0.20891 0.35358 0.42808 -0.10000
H 	H 	0.20840 0.34130 0.43640 0.06700
C 	C 	0.22254 0.35489 0.41140 0.06100
H 	H 	0.23110 0.34310 0.40840 0.00100
C 	C 	0.26763 0.38862 0.41699 0.06300
H 	H 	0.25700 0.39890 0.41590 -0.00100
C 	C 	0.27940 0.38834 0.43460 -0.10300
H 	H 	0.27690 0.39810 0.44550 0.06800
C 	C 	0.29530 0.37333 0.43640 0.00900
H 	H 	0.30410 0.37290 0.44840 0.03700
C 	C 	0.29783 0.35924 0.42016 -0.05200
C 	C 	0.28502 0.36085 0.40269 0.04200
H 	H 	0.28700 0.35130 0.39150 0.01100
C 	C 	0.31441 0.34302 0.42092 0.13500
C 	C 	0.25059 0.32478 0.37389 0.10800
N 	N 	0.15904 0.48525 0.38308 -0.22300
N 	N 	0.13715 0.35699 0.47554 -0.26100
N 	N 	0.12497 0.40242 0.48449 -0.22400
N 	N 	0.17040 0.40582 0.43909 -0.15100
N 	N 	0.16034 0.44029 0.42975 -0.15000
N 	N 	0.18887 0.42387 0.41237 -0.15100
N 	N 	0.22432 0.37185 0.39925 -0.22900
N 	N 	0.24881 0.34238 0.37324 -0.26400
N 	N 	0.27009 0.37524 0.40103 -0.22900
N 	N 	0.32831 0.34428 0.43603 -0.15200
S 	S 	0.16304 0.32812 0.45537 -0.05900
S 	S 	0.25216 0.29928 0.37654 -0.06200
C 	C 	0.15972 0.96989 0.89742 0.03300
H 	H 	0.14760 0.96730 0.90560 0.01400
C 	C 	0.17742 0.95750 0.90086 -0.04600
C 	C 	0.19523 0.96138 0.88928 0.00600
H 	H 	0.20740 0.95300 0.89080 0.03800
C 	C 	0.19486 0.97810 0.87518 -0.10000
H 	H 	0.20710 0.98180 0.86760 0.06600
C 	C 	0.17686 0.98907 0.87242 0.06100
H 	H 	0.17680 0.00010 0.86240 -0.00000
C 	C 	0.14774 0.84533 0.96662 0.09800
C 	C 	0.11148 0.91843 0.98679 0.05700
H 	H 	0.10060 0.91710 0.99680 -0.00000
C 	C 	0.11260 0.93666 0.97538 -0.09600
H 	H 	0.10310 0.94780 0.97800 0.06300
C 	C 	0.12779 0.93858 0.95993 0.00400
H 	H 	0.12840 0.95070 0.95130 0.03800
C 	C 	0.14210 0.92226 0.95751 -0.04500
C 	C 	0.14026 0.90472 0.96999 0.03100
H 	H 	0.15020 0.89380 0.96830 0.01700
C 	C 	0.15868 0.92282 0.94123 0.13400
C 	C 	0.17567 0.93970 0.91539 0.13300
C 	C 	0.18511 0.90684 0.92411 0.13300
C 	C 	0.21232 0.88822 0.90399 0.03900
H 	H 	0.21370 0.90060 0.89580 0.01200
C 	C 	0.19779 0.88815 0.92048 -0.05100
C 	C 	0.19589 0.87040 0.93265 0.00900
H 	H 	0.18600 0.86970 0.94380 0.03700
C 	C 	0.20891 0.85358 0.92808 -0.10000
H 	H 	0.20840 0.84130 0.93640 0.06700
C 	C 	0.22254 0.85489 0.91140 0.06100
H 	H 	0.23110 0.84310 0.90840 0.00100
C 	C 	0.26763 0.88862 0.91699 0.06300
H 	H 	0.25700 0.89890 0.91590 -0.00100
C 	C 	0.27940 0.88834 0.93460 -0.10300
H 	H 	0.27690 0.89810 0.94550 0.06800
C 	C 	0.29530 0.87333 0.93640 0.00900
H 	H 	0.30410 0.87290 0.94840 0.03700
C 	C 	0.29783 0.85924 0.92016 -0.05200
C 	C 	0.28502 0.86085 0.90269 0.04200
H 	H 	0.28700 0.85130 0.89150 0.01100
C 	C 	0.31441 0.84302 0.92092 0.13500
C 	C 	0.25059 0.82478 0.87389 0.10800
N 	N 	0.15904 0.98525 0.88308 -0.22300
N 	N 	0.13715 0.85699 0.97554 -0.26100
N 	N 	0.12497 0.90242 0.98449 -0.22400
N 	N 	0.17040 0.90582 0.93909 -0.15100
N 	N 	0.16034 0.94029 0.92975 -0.15000
N 	N 	0.18887 0.92387 0.91237 -0.15100
N 	N 	0.22432 0.87185 0.89925 -0.22900
N 	N 	0.24881 0.84238 0.87324 -0.26400
N 	N 	0.27009 0.87524 0.90103 -0.22900
N 	N 	0.32831 0.84428 0.93603 -0.15200
S 	S 	0.16304 0.82812 0.95537 -0.05900
S 	S 	0.25216 0.79928 0.87654 -0.06200
C 	C 	0.65972 0.46989 0.89742 0.03300
H 	H 	0.64760 0.46730 0.90560 0.01400
C 	C 	0.67742 0.45750 0.90086 -0.04600
C 	C 	0.69523 0.46138 0.88928 0.00600
H 	H 	0.70740 0.45300 0.89080 0.03800
C 	C 	0.69486 0.47810 0.87518 -0.10000
H 	H 	0.70710 0.48180 0.86760 0.06600
C 	C 	0.67686 0.48907 0.87242 0.06100
H 	H 	0.67680 0.50010 0.86240 -0.00000
C 	C 	0.64774 0.34533 0.96662 0.09800
C 	C 	0.61148 0.41843 0.98679 0.05700
H 	H 	0.60060 0.41710 0.99680 -0.00000
C 	C 	0.61260 0.43666 0.97538 -0.09600
H 	H 	0.60310 0.44780 0.97800 0.06300
C 	C 	0.62779 0.43858 0.95993 0.00400
H 	H 	0.62840 0.45070 0.95130 0.03800
C 	C 	0.64210 0.42226 0.95751 -0.04500
C 	C 	0.64026 0.40472 0.96999 0.03100
H 	H 	0.65020 0.39380 0.96830 0.01700
C 	C 	0.65868 0.42282 0.94123 0.13400
C 	C 	0.67567 0.43970 0.91539 0.13300
C 	C 	0.68511 0.40684 0.92411 0.13300
C 	C 	0.71232 0.38822 0.90399 0.03900
H 	H 	0.71370 0.40060 0.89580 0.01200
C 	C 	0.69779 0.38815 0.92048 -0.05100
C 	C 	0.69589 0.37040 0.93265 0.00900
H 	H 	0.68600 0.36970 0.94380 0.03700
C 	C 	0.70891 0.35358 0.92808 -0.10000
H 	H 	0.70840 0.34130 0.93640 0.06700
C 	C 	0.72254 0.35489 0.91140 0.06100
H 	H 	0.73110 0.34310 0.90840 0.00100
C 	C 	0.76763 0.38862 0.91699 0.06300
H 	H 	0.75700 0.39890 0.91590 -0.00100
C 	C 	0.77940 0.38834 0.93460 -0.10300
H 	H 	0.77690 0.39810 0.94550 0.06800
C 	C 	0.79530 0.37333 0.93640 0.00900
H 	H 	0.80410 0.37290 0.94840 0.03700
C 	C 	0.79783 0.35924 0.92016 -0.05200
C 	C 	0.78502 0.36085 0.90269 0.04200
H 	H 	0.78700 0.35130 0.89150 0.01100
C 	C 	0.81441 0.34302 0.92092 0.13500
C 	C 	0.75059 0.32478 0.87389 0.10800
N 	N 	0.65904 0.48525 0.88308 -0.22300
N 	N 	0.63715 0.35699 0.97554 -0.26100
N 	N 	0.62497 0.40242 0.98449 -0.22400
N 	N 	0.67040 0.40582 0.93909 -0.15100
N 	N 	0.66034 0.44029 0.92975 -0.15000
N 	N 	0.68887 0.42387 0.91237 -0.15100
N 	N 	0.72432 0.37185 0.89925 -0.22900
N 	N 	0.74881 0.34238 0.87324 -0.26400
N 	N 	0.77009 0.37524 0.90103 -0.22900
N 	N 	0.82831 0.34428 0.93603 -0.15200
S 	S 	0.66304 0.32812 0.95537 -0.05900
S 	S 	0.75216 0.29928 0.87654 -0.06200
C 	C 	0.65972 0.96989 0.39742 0.03300
H 	H 	0.64760 0.96730 0.40560 0.01400
C 	C 	0.67742 0.95750 0.40086 -0.04600
C 	C 	0.69523 0.96138 0.38928 0.00600
H 	H 	0.70740 0.95300 0.39080 0.03800
C 	C 	0.69486 0.97810 0.37518 -0.10000
H 	H 	0.70710 0.98180 0.36760 0.06600
C 	C 	0.67686 0.98907 0.37242 0.06100
H 	H 	0.67680 0.00010 0.36240 -0.00000
C 	C 	0.64774 0.84533 0.46662 0.09800
C 	C 	0.61148 0.91843 0.48679 0.05700
H 	H 	0.60060 0.91710 0.49680 -0.00000
C 	C 	0.61260 0.93666 0.47538 -0.09600
H 	H 	0.60310 0.94780 0.47800 0.06300
C 	C 	0.62779 0.93858 0.45993 0.00400
H 	H 	0.62840 0.95070 0.45130 0.03800
C 	C 	0.64210 0.92226 0.45751 -0.04500
C 	C 	0.64026 0.90472 0.46999 0.03100
H 	H 	0.65020 0.89380 0.46830 0.01700
C 	C 	0.65868 0.92282 0.44123 0.13400
C 	C 	0.67567 0.93970 0.41539 0.13300
C 	C 	0.68511 0.90684 0.42411 0.13300
C 	C 	0.71232 0.88822 0.40399 0.03900
H 	H 	0.71370 0.90060 0.39580 0.01200
C 	C 	0.69779 0.88815 0.42048 -0.05100
C 	C 	0.69589 0.87040 0.43265 0.00900
H 	H 	0.68600 0.86970 0.44380 0.03700
C 	C 	0.70891 0.85358 0.42808 -0.10000
H 	H 	0.70840 0.84130 0.43640 0.06700
C 	C 	0.72254 0.85489 0.41140 0.06100
H 	H 	0.73110 0.84310 0.40840 0.00100
C 	C 	0.76763 0.88862 0.41699 0.06300
H 	H 	0.75700 0.89890 0.41590 -0.00100
C 	C 	0.77940 0.88834 0.43460 -0.10300
H 	H 	0.77690 0.89810 0.44550 0.06800
C 	C 	0.79530 0.87333 0.43640 0.00900
H 	H 	0.80410 0.87290 0.44840 0.03700
C 	C 	0.79783 0.85924 0.42016 -0.05200
C 	C 	0.78502 0.86085 0.40269 0.04200
H 	H 	0.78700 0.85130 0.39150 0.01100
C 	C 	0.81441 0.84302 0.42092 0.13500
C 	C 	0.75059 0.82478 0.37389 0.10800
N 	N 	0.65904 0.98525 0.38308 -0.22300
N 	N 	0.63715 0.85699 0.47554 -0.26100
N 	N 	0.62497 0.90242 0.48449 -0.22400
N 	N 	0.67040 0.90582 0.43909 -0.15100
N 	N 	0.66034 0.94029 0.42975 -0.15000
N 	N 	0.68887 0.92387 0.41237 -0.15100
N 	N 	0.72432 0.87185 0.39925 -0.22900
N 	N 	0.74881 0.84238 0.37324 -0.26400
N 	N 	0.77009 0.87524 0.40103 -0.22900
N 	N 	0.82831 0.84428 0.43603 -0.15200
S 	S 	0.66304 0.82812 0.45537 -0.05900
S 	S 	0.75216 0.79928 0.37654 -0.06200
C 	C 	0.59028 0.96989 0.85258 0.03300
H 	H 	0.60240 0.96730 0.84440 0.01400
C 	C 	0.57258 0.95750 0.84914 -0.04600
C 	C 	0.55477 0.96138 0.86072 0.00600
H 	H 	0.54260 0.95300 0.85920 0.03800
C 	C 	0.55514 0.97810 0.87482 -0.10000
H 	H 	0.54290 0.98180 0.88240 0.06600
C 	C 	0.57314 0.98907 0.87758 0.06100
H 	H 	0.57320 0.00010 0.88760 -0.00000
C 	C 	0.60226 0.84533 0.78338 0.09800
C 	C 	0.63852 0.91843 0.76321 0.05700
H 	H 	0.64940 0.91710 0.75320 -0.00000
C 	C 	0.63740 0.93666 0.77462 -0.09600
H 	H 	0.64690 0.94780 0.77200 0.06300
C 	C 	0.62221 0.93858 0.79007 0.00400
H 	H 	0.62160 0.95070 0.79870 0.03800
C 	C 	0.60790 0.92226 0.79249 -0.04500
C 	C 	0.60974 0.90472 0.78001 0.03100
H 	H 	0.59980 0.89380 0.78170 0.01700
C 	C 	0.59132 0.92282 0.80877 0.13400
C 	C 	0.57433 0.93970 0.83461 0.13300
C 	C 	0.56489 0.90684 0.82589 0.13300
C 	C 	0.53768 0.88822 0.84601 0.03900
H 	H 	0.53630 0.90060 0.85420 0.01200
C 	C 	0.55221 0.88815 0.82952 -0.05100
C 	C 	0.55411 0.87040 0.81735 0.00900
H 	H 	0.56400 0.86970 0.80620 0.03700
C 	C 	0.54109 0.85358 0.82192 -0.10000
H 	H 	0.54160 0.84130 0.81360 0.06700
C 	C 	0.52746 0.85489 0.83860 0.06100
H 	H 	0.51890 0.84310 0.84160 0.00100
C 	C 	0.48237 0.88862 0.83301 0.06300
H 	H 	0.49300 0.89890 0.83410 -0.00100
C 	C 	0.47060 0.88834 0.81540 -0.10300
H 	H 	0.47310 0.89810 0.80450 0.06800
C 	C 	0.45470 0.87333 0.81360 0.00900
H 	H 	0.44590 0.87290 0.80160 0.03700
C 	C 	0.45217 0.85924 0.82984 -0.05200
C 	C 	0.46498 0.86085 0.84731 0.04200
H 	H 	0.46300 0.85130 0.85850 0.01100
C 	C 	0.43559 0.84302 0.82908 0.13500
C 	C 	0.49941 0.82478 0.87611 0.10800
N 	N 	0.59096 0.98525 0.86692 -0.22300
N 	N 	0.61285 0.85699 0.77446 -0.26100
N 	N 	0.62503 0.90242 0.76551 -0.22400
N 	N 	0.57960 0.90582 0.81091 -0.15100
N 	N 	0.58966 0.94029 0.82025 -0.15000
N 	N 	0.56113 0.92387 0.83763 -0.15100
N 	N 	0.52568 0.87185 0.85075 -0.22900
N 	N 	0.50119 0.84238 0.87676 -0.26400
N 	N 	0.47991 0.87524 0.84897 -0.22900
N 	N 	0.42169 0.84428 0.81397 -0.15200
S 	S 	0.58696 0.82812 0.79463 -0.05900
S 	S 	0.49784 0.79928 0.87346 -0.06200
C 	C 	0.59028 0.46989 0.35258 0.03300
H 	H 	0.60240 0.46730 0.34440 0.01400
C 	C 	0.57258 0.45750 0.34914 -0.04600
C 	C 	0.55477 0.46138 0.36072 0.00600
H 	H 	0.54260 0.45300 0.35920 0.03800
C 	C 	0.55514 0.47810 0.37482 -0.10000
H 	H 	0.54290 0.48180 0.38240 0.06600
C 	C 	0.57314 0.48907 0.37758 0.06100
H 	H 	0.57320 0.50010 0.38760 -0.00000
C 	C 	0.60226 0.34533 0.28338 0.09800
C 	C 	0.63852 0.41843 0.26321 0.05700
H 	H 	0.64940 0.41710 0.25320 -0.00000
C 	C 	0.63740 0.43666 0.27462 -0.09600
H 	H 	0.64690 0.44780 0.27200 0.06300
C 	C 	0.62221 0.43858 0.29007 0.00400
H 	H 	0.62160 0.45070 0.29870 0.03800
C 	C 	0.60790 0.42226 0.29249 -0.04500
C 	C 	0.60974 0.40472 0.28001 0.03100
H 	H 	0.59980 0.39380 0.28170 0.01700
C 	C 	0.59132 0.42282 0.30877 0.13400
C 	C 	0.57433 0.43970 0.33461 0.13300
C 	C 	0.56489 0.40684 0.32589 0.13300
C 	C 	0.53768 0.38822 0.34601 0.03900
H 	H 	0.53630 0.40060 0.35420 0.01200
C 	C 	0.55221 0.38815 0.32952 -0.05100
C 	C 	0.55411 0.37040 0.31735 0.00900
H 	H 	0.56400 0.36970 0.30620 0.03700
C 	C 	0.54109 0.35358 0.32192 -0.10000
H 	H 	0.54160 0.34130 0.31360 0.06700
C 	C 	0.52746 0.35489 0.33860 0.06100
H 	H 	0.51890 0.34310 0.34160 0.00100
C 	C 	0.48237 0.38862 0.33301 0.06300
H 	H 	0.49300 0.39890 0.33410 -0.00100
C 	C 	0.47060 0.38834 0.31540 -0.10300
H 	H 	0.47310 0.39810 0.30450 0.06800
C 	C 	0.45470 0.37333 0.31360 0.00900
H 	H 	0.44590 0.37290 0.30160 0.03700
C 	C 	0.45217 0.35924 0.32984 -0.05200
C 	C 	0.46498 0.36085 0.34731 0.04200
H 	H 	0.46300 0.35130 0.35850 0.01100
C 	C 	0.43559 0.34302 0.32908 0.13500
C 	C 	0.49941 0.32478 0.37611 0.10800
N 	N 	0.59096 0.48525 0.36692 -0.22300
N 	N 	0.61285 0.35699 0.27446 -0.26100
N 	N 	0.62503 0.40242 0.26551 -0.22400
N 	N 	0.57960 0.40582 0.31091 -0.15100
N 	N 	0.58966 0.44029 0.32025 -0.15000
N 	N 	0.56113 0.42387 0.33763 -0.15100
N 	N 	0.52568 0.37185 0.35075 -0.22900
N 	N 	0.50119 0.34238 0.37676 -0.26400
N 	N 	0.47991 0.37524 0.34897 -0.22900
N 	N 	0.42169 0.34428 0.31397 -0.15200
S 	S 	0.58696 0.32812 0.29463 -0.05900
S 	S 	0.49784 0.29928 0.37346 -0.06200
C 	C 	0.09028 0.96989 0.35258 0.03300
H 	H 	0.10240 0.96730 0.34440 0.01400
C 	C 	0.07258 0.95750 0.34914 -0.04600
C 	C 	0.05477 0.96138 0.36072 0.00600
H 	H 	0.04260 0.95300 0.35920 0.03800
C 	C 	0.05514 0.97810 0.37482 -0.10000
H 	H 	0.04290 0.98180 0.38240 0.06600
C 	C 	0.07314 0.98907 0.37758 0.06100
H 	H 	0.07320 0.00010 0.38760 -0.00000
C 	C 	0.10226 0.84533 0.28338 0.09800
C 	C 	0.13852 0.91843 0.26321 0.05700
H 	H 	0.14940 0.91710 0.25320 -0.00000
C 	C 	0.13740 0.93666 0.27462 -0.09600
H 	H 	0.14690 0.94780 0.27200 0.06300
C 	C 	0.12221 0.93858 0.29007 0.00400
H 	H 	0.12160 0.95070 0.29870 0.03800
C 	C 	0.10790 0.92226 0.29249 -0.04500
C 	C 	0.10974 0.90472 0.28001 0.03100
H 	H 	0.09980 0.89380 0.28170 0.01700
C 	C 	0.09132 0.92282 0.30877 0.13400
C 	C 	0.07433 0.93970 0.33461 0.13300
C 	C 	0.06489 0.90684 0.32589 0.13300
C 	C 	0.03768 0.88822 0.34601 0.03900
H 	H 	0.03630 0.90060 0.35420 0.01200
C 	C 	0.05221 0.88815 0.32952 -0.05100
C 	C 	0.05411 0.87040 0.31735 0.00900
H 	H 	0.06400 0.86970 0.30620 0.03700
C 	C 	0.04109 0.85358 0.32192 -0.10000
H 	H 	0.04160 0.84130 0.31360 0.06700
C 	C 	0.02746 0.85489 0.33860 0.06100
H 	H 	0.01890 0.84310 0.34160 0.00100
C 	C 	0.98237 0.88862 0.33301 0.06300
H 	H 	0.99300 0.89890 0.33410 -0.00100
C 	C 	0.97060 0.88834 0.31540 -0.10300
H 	H 	0.97310 0.89810 0.30450 0.06800
C 	C 	0.95470 0.87333 0.31360 0.00900
H 	H 	0.94590 0.87290 0.30160 0.03700
C 	C 	0.95217 0.85924 0.32984 -0.05200
C 	C 	0.96498 0.86085 0.34731 0.04200
H 	H 	0.96300 0.85130 0.35850 0.01100
C 	C 	0.93559 0.84302 0.32908 0.13500
C 	C 	0.99941 0.82478 0.37611 0.10800
N 	N 	0.09096 0.98525 0.36692 -0.22300
N 	N 	0.11285 0.85699 0.27446 -0.26100
N 	N 	0.12503 0.90242 0.26551 -0.22400
N 	N 	0.07960 0.90582 0.31091 -0.15100
N 	N 	0.08966 0.94029 0.32025 -0.15000
N 	N 	0.06113 0.92387 0.33763 -0.15100
N 	N 	0.02568 0.87185 0.35075 -0.22900
N 	N 	0.00119 0.84238 0.37676 -0.26400
N 	N 	0.97991 0.87524 0.34897 -0.22900
N 	N 	0.92169 0.84428 0.31397 -0.15200
S 	S 	0.08696 0.82812 0.29463 -0.05900
S 	S 	0.99784 0.79928 0.37346 -0.06200
C 	C 	0.09028 0.46989 0.85258 0.03300
H 	H 	0.10240 0.46730 0.84440 0.01400
C 	C 	0.07258 0.45750 0.84914 -0.04600
C 	C 	0.05477 0.46138 0.86072 0.00600
H 	H 	0.04260 0.45300 0.85920 0.03800
C 	C 	0.05514 0.47810 0.87482 -0.10000
H 	H 	0.04290 0.48180 0.88240 0.06600
C 	C 	0.07314 0.48907 0.87758 0.06100
H 	H 	0.07320 0.50010 0.88760 -0.00000
C 	C 	0.10226 0.34533 0.78338 0.09800
C 	C 	0.13852 0.41843 0.76321 0.05700
H 	H 	0.14940 0.41710 0.75320 -0.00000
C 	C 	0.13740 0.43666 0.77462 -0.09600
H 	H 	0.14690 0.44780 0.77200 0.06300
C 	C 	0.12221 0.43858 0.79007 0.00400
H 	H 	0.12160 0.45070 0.79870 0.03800
C 	C 	0.10790 0.42226 0.79249 -0.04500
C 	C 	0.10974 0.40472 0.78001 0.03100
H 	H 	0.09980 0.39380 0.78170 0.01700
C 	C 	0.09132 0.42282 0.80877 0.13400
C 	C 	0.07433 0.43970 0.83461 0.13300
C 	C 	0.06489 0.40684 0.82589 0.13300
C 	C 	0.03768 0.38822 0.84601 0.03900
H 	H 	0.03630 0.40060 0.85420 0.01200
C 	C 	0.05221 0.38815 0.82952 -0.05100
C 	C 	0.05411 0.37040 0.81735 0.00900
H 	H 	0.06400 0.36970 0.80620 0.03700
C 	C 	0.04109 0.35358 0.82192 -0.10000
H 	H 	0.04160 0.34130 0.81360 0.06700
C 	C 	0.02746 0.35489 0.83860 0.06100
H 	H 	0.01890 0.34310 0.84160 0.00100
C 	C 	0.98237 0.38862 0.83301 0.06300
H 	H 	0.99300 0.39890 0.83410 -0.00100
C 	C 	0.97060 0.38834 0.81540 -0.10300
H 	H 	0.97310 0.39810 0.80450 0.06800
C 	C 	0.95470 0.37333 0.81360 0.00900
H 	H 	0.94590 0.37290 0.80160 0.03700
C 	C 	0.95217 0.35924 0.82984 -0.05200
C 	C 	0.96498 0.36085 0.84731 0.04200
H 	H 	0.96300 0.35130 0.85850 0.01100
C 	C 	0.93559 0.34302 0.82908 0.13500
C 	C 	0.99941 0.32478 0.87611 0.10800
N 	N 	0.09096 0.48525 0.86692 -0.22300
N 	N 	0.11285 0.35699 0.77446 -0.26100
N 	N 	0.12503 0.40242 0.76551 -0.22400
N 	N 	0.07960 0.40582 0.81091 -0.15100
N 	N 	0.08966 0.44029 0.82025 -0.15000
N 	N 	0.06113 0.42387 0.83763 -0.15100
N 	N 	0.02568 0.37185 0.85075 -0.22900
N 	N 	0.00119 0.34238 0.87676 -0.26400
N 	N 	0.97991 0.37524 0.84897 -0.22900
N 	N 	0.92169 0.34428 0.81397 -0.15200
S 	S 	0.08696 0.32812 0.79463 -0.05900
S 	S 	0.99784 0.29928 0.87346 -0.06200
C 	C 	0.09028 0.28011 0.89742 0.03300
H 	H 	0.10240 0.28270 0.90560 0.01400
C 	C 	0.07258 0.29250 0.90086 -0.04600
C 	C 	0.05477 0.28862 0.88928 0.00600
H 	H 	0.04260 0.29700 0.89080 0.03800
C 	C 	0.05514 0.27190 0.87518 -0.10000
H 	H 	0.04290 0.26820 0.86760 0.06600
C 	C 	0.07314 0.26093 0.87242 0.06100
H 	H 	0.07320 0.24990 0.86240 -0.00000
C 	C 	0.10226 0.40467 0.96662 0.09800
C 	C 	0.13852 0.33157 0.98679 0.05700
H 	H 	0.14940 0.33290 0.99680 -0.00000
C 	C 	0.13740 0.31334 0.97538 -0.09600
H 	H 	0.14690 0.30220 0.97800 0.06300
C 	C 	0.12221 0.31142 0.95993 0.00400
H 	H 	0.12160 0.29930 0.95130 0.03800
C 	C 	0.10790 0.32774 0.95751 -0.04500
C 	C 	0.10974 0.34528 0.96999 0.03100
H 	H 	0.09980 0.35620 0.96830 0.01700
C 	C 	0.09132 0.32718 0.94123 0.13400
C 	C 	0.07433 0.31030 0.91539 0.13300
C 	C 	0.06489 0.34316 0.92411 0.13300
C 	C 	0.03768 0.36178 0.90399 0.03900
H 	H 	0.03630 0.34940 0.89580 0.01200
C 	C 	0.05221 0.36185 0.92048 -0.05100
C 	C 	0.05411 0.37960 0.93265 0.00900
H 	H 	0.06400 0.38030 0.94380 0.03700
C 	C 	0.04109 0.39642 0.92808 -0.10000
H 	H 	0.04160 0.40870 0.93640 0.06700
C 	C 	0.02746 0.39511 0.91140 0.06100
H 	H 	0.01890 0.40690 0.90840 0.00100
C 	C 	0.98237 0.36138 0.91699 0.06300
H 	H 	0.99300 0.35110 0.91590 -0.00100
C 	C 	0.97060 0.36166 0.93460 -0.10300
H 	H 	0.97310 0.35190 0.94550 0.06800
C 	C 	0.95470 0.37667 0.93640 0.00900
H 	H 	0.94590 0.37710 0.94840 0.03700
C 	C 	0.95217 0.39076 0.92016 -0.05200
C 	C 	0.96498 0.38915 0.90269 0.04200
H 	H 	0.96300 0.39870 0.89150 0.01100
C 	C 	0.93559 0.40698 0.92092 0.13500
C 	C 	0.99941 0.42522 0.87389 0.10800
N 	N 	0.09096 0.26475 0.88308 -0.22300
N 	N 	0.11285 0.39301 0.97554 -0.26100
N 	N 	0.12503 0.34758 0.98449 -0.22400
N 	N 	0.07960 0.34418 0.93909 -0.15100
N 	N 	0.08966 0.30971 0.92975 -0.15000
N 	N 	0.06113 0.32613 0.91237 -0.15100
N 	N 	0.02568 0.37815 0.89925 -0.22900
N 	N 	0.00119 0.40762 0.87324 -0.26400
N 	N 	0.97991 0.37476 0.90103 -0.22900
N 	N 	0.92169 0.40572 0.93603 -0.15200
S 	S 	0.08696 0.42188 0.95537 -0.05900
S 	S 	0.99784 0.45072 0.87654 -0.06200
C 	C 	0.09028 0.78011 0.39742 0.03300
H 	H 	0.10240 0.78270 0.40560 0.01400
C 	C 	0.07258 0.79250 0.40086 -0.04600
C 	C 	0.05477 0.78862 0.38928 0.00600
H 	H 	0.04260 0.79700 0.39080 0.03800
C 	C 	0.05514 0.77190 0.37518 -0.10000
H 	H 	0.04290 0.76820 0.36760 0.06600
C 	C 	0.07314 0.76093 0.37242 0.06100
H 	H 	0.07320 0.74990 0.36240 -0.00000
C 	C 	0.10226 0.90467 0.46662 0.09800
C 	C 	0.13852 0.83157 0.48679 0.05700
H 	H 	0.14940 0.83290 0.49680 -0.00000
C 	C 	0.13740 0.81334 0.47538 -0.09600
H 	H 	0.14690 0.80220 0.47800 0.06300
C 	C 	0.12221 0.81142 0.45993 0.00400
H 	H 	0.12160 0.79930 0.45130 0.03800
C 	C 	0.10790 0.82774 0.45751 -0.04500
C 	C 	0.10974 0.84528 0.46999 0.03100
H 	H 	0.09980 0.85620 0.46830 0.01700
C 	C 	0.09132 0.82718 0.44123 0.13400
C 	C 	0.07433 0.81030 0.41539 0.13300
C 	C 	0.06489 0.84316 0.42411 0.13300
C 	C 	0.03768 0.86178 0.40399 0.03900
H 	H 	0.03630 0.84940 0.39580 0.01200
C 	C 	0.05221 0.86185 0.42048 -0.05100
C 	C 	0.05411 0.87960 0.43265 0.00900
H 	H 	0.06400 0.88030 0.44380 0.03700
C 	C 	0.04109 0.89642 0.42808 -0.10000
H 	H 	0.04160 0.90870 0.43640 0.06700
C 	C 	0.02746 0.89511 0.41140 0.06100
H 	H 	0.01890 0.90690 0.40840 0.00100
C 	C 	0.98237 0.86138 0.41699 0.06300
H 	H 	0.99300 0.85110 0.41590 -0.00100
C 	C 	0.97060 0.86166 0.43460 -0.10300
H 	H 	0.97310 0.85190 0.44550 0.06800
C 	C 	0.95470 0.87667 0.43640 0.00900
H 	H 	0.94590 0.87710 0.44840 0.03700
C 	C 	0.95217 0.89076 0.42016 -0.05200
C 	C 	0.96498 0.88915 0.40269 0.04200
H 	H 	0.96300 0.89870 0.39150 0.01100
C 	C 	0.93559 0.90698 0.42092 0.13500
C 	C 	0.99941 0.92522 0.37389 0.10800
N 	N 	0.09096 0.76475 0.38308 -0.22300
N 	N 	0.11285 0.89301 0.47554 -0.26100
N 	N 	0.12503 0.84758 0.48449 -0.22400
N 	N 	0.07960 0.84418 0.43909 -0.15100
N 	N 	0.08966 0.80971 0.42975 -0.15000
N 	N 	0.06113 0.82613 0.41237 -0.15100
N 	N 	0.02568 0.87815 0.39925 -0.22900
N 	N 	0.00119 0.90762 0.37324 -0.26400
N 	N 	0.97991 0.87476 0.40103 -0.22900
N 	N 	0.92169 0.90572 0.43603 -0.15200
S 	S 	0.08696 0.92188 0.45537 -0.05900
S 	S 	0.99784 0.95072 0.37654 -0.06200
C 	C 	0.59028 0.28011 0.39742 0.03300
H 	H 	0.60240 0.28270 0.40560 0.01400
C 	C 	0.57258 0.29250 0.40086 -0.04600
C 	C 	0.55477 0.28862 0.38928 0.00600
H 	H 	0.54260 0.29700 0.39080 0.03800
C 	C 	0.55514 0.27190 0.37518 -0.10000
H 	H 	0.54290 0.26820 0.36760 0.06600
C 	C 	0.57314 0.26093 0.37242 0.06100
H 	H 	0.57320 0.24990 0.36240 -0.00000
C 	C 	0.60226 0.40467 0.46662 0.09800
C 	C 	0.63852 0.33157 0.48679 0.05700
H 	H 	0.64940 0.33290 0.49680 -0.00000
C 	C 	0.63740 0.31334 0.47538 -0.09600
H 	H 	0.64690 0.30220 0.47800 0.06300
C 	C 	0.62221 0.31142 0.45993 0.00400
H 	H 	0.62160 0.29930 0.45130 0.03800
C 	C 	0.60790 0.32774 0.45751 -0.04500
C 	C 	0.60974 0.34528 0.46999 0.03100
H 	H 	0.59980 0.35620 0.46830 0.01700
C 	C 	0.59132 0.32718 0.44123 0.13400
C 	C 	0.57433 0.31030 0.41539 0.13300
C 	C 	0.56489 0.34316 0.42411 0.13300
C 	C 	0.53768 0.36178 0.40399 0.03900
H 	H 	0.53630 0.34940 0.39580 0.01200
C 	C 	0.55221 0.36185 0.42048 -0.05100
C 	C 	0.55411 0.37960 0.43265 0.00900
H 	H 	0.56400 0.38030 0.44380 0.03700
C 	C 	0.54109 0.39642 0.42808 -0.10000
H 	H 	0.54160 0.40870 0.43640 0.06700
C 	C 	0.52746 0.39511 0.41140 0.06100
H 	H 	0.51890 0.40690 0.40840 0.00100
C 	C 	0.48237 0.36138 0.41699 0.06300
H 	H 	0.49300 0.35110 0.41590 -0.00100
C 	C 	0.47060 0.36166 0.43460 -0.10300
H 	H 	0.47310 0.35190 0.44550 0.06800
C 	C 	0.45470 0.37667 0.43640 0.00900
H 	H 	0.44590 0.37710 0.44840 0.03700
C 	C 	0.45217 0.39076 0.42016 -0.05200
C 	C 	0.46498 0.38915 0.40269 0.04200
H 	H 	0.46300 0.39870 0.39150 0.01100
C 	C 	0.43559 0.40698 0.42092 0.13500
C 	C 	0.49941 0.42522 0.37389 0.10800
N 	N 	0.59096 0.26475 0.38308 -0.22300
N 	N 	0.61285 0.39301 0.47554 -0.26100
N 	N 	0.62503 0.34758 0.48449 -0.22400
N 	N 	0.57960 0.34418 0.43909 -0.15100
N 	N 	0.58966 0.30971 0.42975 -0.15000
N 	N 	0.56113 0.32613 0.41237 -0.15100
N 	N 	0.52568 0.37815 0.39925 -0.22900
N 	N 	0.50119 0.40762 0.37324 -0.26400
N 	N 	0.47991 0.37476 0.40103 -0.22900
N 	N 	0.42169 0.40572 0.43603 -0.15200
S 	S 	0.58696 0.42188 0.45537 -0.05900
S 	S 	0.49784 0.45072 0.37654 -0.06200
C 	C 	0.59028 0.78011 0.89742 0.03300
H 	H 	0.60240 0.78270 0.90560 0.01400
C 	C 	0.57258 0.79250 0.90086 -0.04600
C 	C 	0.55477 0.78862 0.88928 0.00600
H 	H 	0.54260 0.79700 0.89080 0.03800
C 	C 	0.55514 0.77190 0.87518 -0.10000
H 	H 	0.54290 0.76820 0.86760 0.06600
C 	C 	0.57314 0.76093 0.87242 0.06100
H 	H 	0.57320 0.74990 0.86240 -0.00000
C 	C 	0.60226 0.90467 0.96662 0.09800
C 	C 	0.63852 0.83157 0.98679 0.05700
H 	H 	0.64940 0.83290 0.99680 -0.00000
C 	C 	0.63740 0.81334 0.97538 -0.09600
H 	H 	0.64690 0.80220 0.97800 0.06300
C 	C 	0.62221 0.81142 0.95993 0.00400
H 	H 	0.62160 0.79930 0.95130 0.03800
C 	C 	0.60790 0.82774 0.95751 -0.04500
C 	C 	0.60974 0.84528 0.96999 0.03100
H 	H 	0.59980 0.85620 0.96830 0.01700
C 	C 	0.59132 0.82718 0.94123 0.13400
C 	C 	0.57433 0.81030 0.91539 0.13300
C 	C 	0.56489 0.84316 0.92411 0.13300
C 	C 	0.53768 0.86178 0.90399 0.03900
H 	H 	0.53630 0.84940 0.89580 0.01200
C 	C 	0.55221 0.86185 0.92048 -0.05100
C 	C 	0.55411 0.87960 0.93265 0.00900
H 	H 	0.56400 0.88030 0.94380 0.03700
C 	C 	0.54109 0.89642 0.92808 -0.10000
H 	H 	0.54160 0.90870 0.93640 0.06700
C 	C 	0.52746 0.89511 0.91140 0.06100
H 	H 	0.51890 0.90690 0.90840 0.00100
C 	C 	0.48237 0.86138 0.91699 0.06300
H 	H 	0.49300 0.85110 0.91590 -0.00100
C 	C 	0.47060 0.86166 0.93460 -0.10300
H 	H 	0.47310 0.85190 0.94550 0.06800
C 	C 	0.45470 0.87667 0.93640 0.00900
H 	H 	0.44590 0.87710 0.94840 0.03700
C 	C 	0.45217 0.89076 0.92016 -0.05200
C 	C 	0.46498 0.88915 0.90269 0.04200
H 	H 	0.46300 0.89870 0.89150 0.01100
C 	C 	0.43559 0.90698 0.92092 0.13500
C 	C 	0.49941 0.92522 0.87389 0.10800
N 	N 	0.59096 0.76475 0.88308 -0.22300
N 	N 	0.61285 0.89301 0.97554 -0.26100
N 	N 	0.62503 0.84758 0.98449 -0.22400
N 	N 	0.57960 0.84418 0.93909 -0.15100
N 	N 	0.58966 0.80971 0.92975 -0.15000
N 	N 	0.56113 0.82613 0.91237 -0.15100
N 	N 	0.52568 0.87815 0.89925 -0.22900
N 	N 	0.50119 0.90762 0.87324 -0.26400
N 	N 	0.47991 0.87476 0.90103 -0.22900
N 	N 	0.42169 0.90572 0.93603 -0.15200
S 	S 	0.58696 0.92188 0.95537 -0.05900
S 	S 	0.49784 0.95072 0.87654 -0.06200
C 	C 	0.65972 0.78011 0.35258 0.03300
H 	H 	0.64760 0.78270 0.34440 0.01400
C 	C 	0.67742 0.79250 0.34914 -0.04600
C 	C 	0.69523 0.78862 0.36072 0.00600
H 	H 	0.70740 0.79700 0.35920 0.03800
C 	C 	0.69486 0.77190 0.37482 -0.10000
H 	H 	0.70710 0.76820 0.38240 0.06600
C 	C 	0.67686 0.76093 0.37758 0.06100
H 	H 	0.67680 0.74990 0.38760 -0.00000
C 	C 	0.64774 0.90467 0.28338 0.09800
C 	C 	0.61148 0.83157 0.26321 0.05700
H 	H 	0.60060 0.83290 0.25320 -0.00000
C 	C 	0.61260 0.81334 0.27462 -0.09600
H 	H 	0.60310 0.80220 0.27200 0.06300
C 	C 	0.62779 0.81142 0.29007 0.00400
H 	H 	0.62840 0.79930 0.29870 0.03800
C 	C 	0.64210 0.82774 0.29249 -0.04500
C 	C 	0.64026 0.84528 0.28001 0.03100
H 	H 	0.65020 0.85620 0.28170 0.01700
C 	C 	0.65868 0.82718 0.30877 0.13400
C 	C 	0.67567 0.81030 0.33461 0.13300
C 	C 	0.68511 0.84316 0.32589 0.13300
C 	C 	0.71232 0.86178 0.34601 0.03900
H 	H 	0.71370 0.84940 0.35420 0.01200
C 	C 	0.69779 0.86185 0.32952 -0.05100
C 	C 	0.69589 0.87960 0.31735 0.00900
H 	H 	0.68600 0.88030 0.30620 0.03700
C 	C 	0.70891 0.89642 0.32192 -0.10000
H 	H 	0.70840 0.90870 0.31360 0.06700
C 	C 	0.72254 0.89511 0.33860 0.06100
H 	H 	0.73110 0.90690 0.34160 0.00100
C 	C 	0.76763 0.86138 0.33301 0.06300
H 	H 	0.75700 0.85110 0.33410 -0.00100
C 	C 	0.77940 0.86166 0.31540 -0.10300
H 	H 	0.77690 0.85190 0.30450 0.06800
C 	C 	0.79530 0.87667 0.31360 0.00900
H 	H 	0.80410 0.87710 0.30160 0.03700
C 	C 	0.79783 0.89076 0.32984 -0.05200
C 	C 	0.78502 0.88915 0.34731 0.04200
H 	H 	0.78700 0.89870 0.35850 0.01100
C 	C 	0.81441 0.90698 0.32908 0.13500
C 	C 	0.75059 0.92522 0.37611 0.10800
N 	N 	0.65904 0.76475 0.36692 -0.22300
N 	N 	0.63715 0.89301 0.27446 -0.26100
N 	N 	0.62497 0.84758 0.26551 -0.22400
N 	N 	0.67040 0.84418 0.31091 -0.15100
N 	N 	0.66034 0.80971 0.32025 -0.15000
N 	N 	0.68887 0.82613 0.33763 -0.15100
N 	N 	0.72432 0.87815 0.35075 -0.22900
N 	N 	0.74881 0.90762 0.37676 -0.26400
N 	N 	0.77009 0.87476 0.34897 -0.22900
N 	N 	0.82831 0.90572 0.31397 -0.15200
S 	S 	0.66304 0.92188 0.29463 -0.05900
S 	S 	0.75216 0.95072 0.37346 -0.06200
C 	C 	0.65972 0.28011 0.85258 0.03300
H 	H 	0.64760 0.28270 0.84440 0.01400
C 	C 	0.67742 0.29250 0.84914 -0.04600
C 	C 	0.69523 0.28862 0.86072 0.00600
H 	H 	0.70740 0.29700 0.85920 0.03800
C 	C 	0.69486 0.27190 0.87482 -0.10000
H 	H 	0.70710 0.26820 0.88240 0.06600
C 	C 	0.67686 0.26093 0.87758 0.06100
H 	H 	0.67680 0.24990 0.88760 -0.00000
C 	C 	0.64774 0.40467 0.78338 0.09800
C 	C 	0.61148 0.33157 0.76321 0.05700
H 	H 	0.60060 0.33290 0.75320 -0.00000
C 	C 	0.61260 0.31334 0.77462 -0.09600
H 	H 	0.60310 0.30220 0.77200 0.06300
C 	C 	0.62779 0.31142 0.79007 0.00400
H 	H 	0.62840 0.29930 0.79870 0.03800
C 	C 	0.64210 0.32774 0.79249 -0.04500
C 	C 	0.64026 0.34528 0.78001 0.03100
H 	H 	0.65020 0.35620 0.78170 0.01700
C 	C 	0.65868 0.32718 0.80877 0.13400
C 	C 	0.67567 0.31030 0.83461 0.13300
C 	C 	0.68511 0.34316 0.82589 0.13300
C 	C 	0.71232 0.36178 0.84601 0.03900
H 	H 	0.71370 0.34940 0.85420 0.01200
C 	C 	0.69779 0.36185 0.82952 -0.05100
C 	C 	0.69589 0.37960 0.81735 0.00900
H 	H 	0.68600 0.38030 0.80620 0.03700
C 	C 	0.70891 0.39642 0.82192 -0.10000
H 	H 	0.70840 0.40870 0.81360 0.06700
C 	C 	0.72254 0.39511 0.83860 0.06100
H 	H 	0.73110 0.40690 0.84160 0.00100
C 	C 	0.76763 0.36138 0.83301 0.06300
H 	H 	0.75700 0.35110 0.83410 -0.00100
C 	C 	0.77940 0.36166 0.81540 -0.10300
H 	H 	0.77690 0.35190 0.80450 0.06800
C 	C 	0.79530 0.37667 0.81360 0.00900
H 	H 	0.80410 0.37710 0.80160 0.03700
C 	C 	0.79783 0.39076 0.82984 -0.05200
C 	C 	0.78502 0.38915 0.84731 0.04200
H 	H 	0.78700 0.39870 0.85850 0.01100
C 	C 	0.81441 0.40698 0.82908 0.13500
C 	C 	0.75059 0.42522 0.87611 0.10800
N 	N 	0.65904 0.26475 0.86692 -0.22300
N 	N 	0.63715 0.39301 0.77446 -0.26100
N 	N 	0.62497 0.34758 0.76551 -0.22400
N 	N 	0.67040 0.34418 0.81091 -0.15100
N 	N 	0.66034 0.30971 0.82025 -0.15000
N 	N 	0.68887 0.32613 0.83763 -0.15100
N 	N 	0.72432 0.37815 0.85075 -0.22900
N 	N 	0.74881 0.40762 0.87676 -0.26400
N 	N 	0.77009 0.37476 0.84897 -0.22900
N 	N 	0.82831 0.40572 0.81397 -0.15200
S 	S 	0.66304 0.42188 0.79463 -0.05900
S 	S 	0.75216 0.45072 0.87346 -0.06200
C 	C 	0.15972 0.78011 0.85258 0.03300
H 	H 	0.14760 0.78270 0.84440 0.01400
C 	C 	0.17742 0.79250 0.84914 -0.04600
C 	C 	0.19523 0.78862 0.86072 0.00600
H 	H 	0.20740 0.79700 0.85920 0.03800
C 	C 	0.19486 0.77190 0.87482 -0.10000
H 	H 	0.20710 0.76820 0.88240 0.06600
C 	C 	0.17686 0.76093 0.87758 0.06100
H 	H 	0.17680 0.74990 0.88760 -0.00000
C 	C 	0.14774 0.90467 0.78338 0.09800
C 	C 	0.11148 0.83157 0.76321 0.05700
H 	H 	0.10060 0.83290 0.75320 -0.00000
C 	C 	0.11260 0.81334 0.77462 -0.09600
H 	H 	0.10310 0.80220 0.77200 0.06300
C 	C 	0.12779 0.81142 0.79007 0.00400
H 	H 	0.12840 0.79930 0.79870 0.03800
C 	C 	0.14210 0.82774 0.79249 -0.04500
C 	C 	0.14026 0.84528 0.78001 0.03100
H 	H 	0.15020 0.85620 0.78170 0.01700
C 	C 	0.15868 0.82718 0.80877 0.13400
C 	C 	0.17567 0.81030 0.83461 0.13300
C 	C 	0.18511 0.84316 0.82589 0.13300
C 	C 	0.21232 0.86178 0.84601 0.03900
H 	H 	0.21370 0.84940 0.85420 0.01200
C 	C 	0.19779 0.86185 0.82952 -0.05100
C 	C 	0.19589 0.87960 0.81735 0.00900
H 	H 	0.18600 0.88030 0.80620 0.03700
C 	C 	0.20891 0.89642 0.82192 -0.10000
H 	H 	0.20840 0.90870 0.81360 0.06700
C 	C 	0.22254 0.89511 0.83860 0.06100
H 	H 	0.23110 0.90690 0.84160 0.00100
C 	C 	0.26763 0.86138 0.83301 0.06300
H 	H 	0.25700 0.85110 0.83410 -0.00100
C 	C 	0.27940 0.86166 0.81540 -0.10300
H 	H 	0.27690 0.85190 0.80450 0.06800
C 	C 	0.29530 0.87667 0.81360 0.00900
H 	H 	0.30410 0.87710 0.80160 0.03700
C 	C 	0.29783 0.89076 0.82984 -0.05200
C 	C 	0.28502 0.88915 0.84731 0.04200
H 	H 	0.28700 0.89870 0.85850 0.01100
C 	C 	0.31441 0.90698 0.82908 0.13500
C 	C 	0.25059 0.92522 0.87611 0.10800
N 	N 	0.15904 0.76475 0.86692 -0.22300
N 	N 	0.13715 0.89301 0.77446 -0.26100
N 	N 	0.12497 0.84758 0.76551 -0.22400
N 	N 	0.17040 0.84418 0.81091 -0.15100
N 	N 	0.16034 0.80971 0.82025 -0.15000
N 	N 	0.18887 0.82613 0.83763 -0.15100
N 	N 	0.22432 0.87815 0.85075 -0.22900
N 	N 	0.24881 0.90762 0.87676 -0.26400
N 	N 	0.27009 0.87476 0.84897 -0.22900
N 	N 	0.32831 0.90572 0.81397 -0.15200
S 	S 	0.16304 0.92188 0.79463 -0.05900
S 	S 	0.25216 0.95072 0.87346 -0.06200
C 	C 	0.15972 0.28011 0.35258 0.03300
H 	H 	0.14760 0.28270 0.34440 0.01400
C 	C 	0.17742 0.29250 0.34914 -0.04600
C 	C 	0.19523 0.28862 0.36072 0.00600
H 	H 	0.20740 0.29700 0.35920 0.03800
C 	C 	0.19486 0.27190 0.37482 -0.10000
H 	H 	0.20710 0.26820 0.38240 0.06600
C 	C 	0.17686 0.26093 0.37758 0.06100
H 	H 	0.17680 0.24990 0.38760 -0.00000
C 	C 	0.14774 0.40467 0.28338 0.09800
C 	C 	0.11148 0.33157 0.26321 0.05700
H 	H 	0.10060 0.33290 0.25320 -0.00000
C 	C 	0.11260 0.31334 0.27462 -0.09600
H 	H 	0.10310 0.30220 0.27200 0.06300
C 	C 	0.12779 0.31142 0.29007 0.00400
H 	H 	0.12840 0.29930 0.29870 0.03800
C 	C 	0.14210 0.32774 0.29249 -0.04500
C 	C 	0.14026 0.34528 0.28001 0.03100
H 	H 	0.15020 0.35620 0.28170 0.01700
C 	C 	0.15868 0.32718 0.30877 0.13400
C 	C 	0.17567 0.31030 0.33461 0.13300
C 	C 	0.18511 0.34316 0.32589 0.13300
C 	C 	0.21232 0.36178 0.34601 0.03900
H 	H 	0.21370 0.34940 0.35420 0.01200
C 	C 	0.19779 0.36185 0.32952 -0.05100
C 	C 	0.19589 0.37960 0.31735 0.00900
H 	H 	0.18600 0.38030 0.30620 0.03700
C 	C 	0.20891 0.39642 0.32192 -0.10000
H 	H 	0.20840 0.40870 0.31360 0.06700
C 	C 	0.22254 0.39511 0.33860 0.06100
H 	H 	0.23110 0.40690 0.34160 0.00100
C 	C 	0.26763 0.36138 0.33301 0.06300
H 	H 	0.25700 0.35110 0.33410 -0.00100
C 	C 	0.27940 0.36166 0.31540 -0.10300
H 	H 	0.27690 0.35190 0.30450 0.06800
C 	C 	0.29530 0.37667 0.31360 0.00900
H 	H 	0.30410 0.37710 0.30160 0.03700
C 	C 	0.29783 0.39076 0.32984 -0.05200
C 	C 	0.28502 0.38915 0.34731 0.04200
H 	H 	0.28700 0.39870 0.35850 0.01100
C 	C 	0.31441 0.40698 0.32908 0.13500
C 	C 	0.25059 0.42522 0.37611 0.10800
N 	N 	0.15904 0.26475 0.36692 -0.22300
N 	N 	0.13715 0.39301 0.27446 -0.26100
N 	N 	0.12497 0.34758 0.26551 -0.22400
N 	N 	0.17040 0.34418 0.31091 -0.15100
N 	N 	0.16034 0.30971 0.32025 -0.15000
N 	N 	0.18887 0.32613 0.33763 -0.15100
N 	N 	0.22432 0.37815 0.35075 -0.22900
N 	N 	0.24881 0.40762 0.37676 -0.26400
N 	N 	0.27009 0.37476 0.34897 -0.22900
N 	N 	0.32831 0.40572 0.31397 -0.15200
S 	S 	0.16304 0.42188 0.29463 -0.05900
S 	S 	0.25216 0.45072 0.37346 -0.06200
C 	C 	0.96989 0.85258 0.59028 0.03300
H 	H 	0.96730 0.84440 0.60240 0.01400
C 	C 	0.95750 0.84914 0.57258 -0.04600
C 	C 	0.96138 0.86072 0.55477 0.00600
H 	H 	0.95300 0.85920 0.54260 0.03800
C 	C 	0.97810 0.87482 0.55514 -0.10000
H 	H 	0.98180 0.88240 0.54290 0.06600
C 	C 	0.98907 0.87758 0.57314 0.06100
H 	H 	0.00010 0.88760 0.57320 -0.00000
C 	C 	0.84533 0.78338 0.60226 0.09800
C 	C 	0.91843 0.76321 0.63852 0.05700
H 	H 	0.91710 0.75320 0.64940 -0.00000
C 	C 	0.93666 0.77462 0.63740 -0.09600
H 	H 	0.94780 0.77200 0.64690 0.06300
C 	C 	0.93858 0.79007 0.62221 0.00400
H 	H 	0.95070 0.79870 0.62160 0.03800
C 	C 	0.92226 0.79249 0.60790 -0.04500
C 	C 	0.90472 0.78001 0.60974 0.03100
H 	H 	0.89380 0.78170 0.59980 0.01700
C 	C 	0.92282 0.80877 0.59132 0.13400
C 	C 	0.93970 0.83461 0.57433 0.13300
C 	C 	0.90684 0.82589 0.56489 0.13300
C 	C 	0.88822 0.84601 0.53768 0.03900
H 	H 	0.90060 0.85420 0.53630 0.01200
C 	C 	0.88815 0.82952 0.55221 -0.05100
C 	C 	0.87040 0.81735 0.55411 0.00900
H 	H 	0.86970 0.80620 0.56400 0.03700
C 	C 	0.85358 0.82192 0.54109 -0.10000
H 	H 	0.84130 0.81360 0.54160 0.06700
C 	C 	0.85489 0.83860 0.52746 0.06100
H 	H 	0.84310 0.84160 0.51890 0.00100
C 	C 	0.88862 0.83301 0.48237 0.06300
H 	H 	0.89890 0.83410 0.49300 -0.00100
C 	C 	0.88834 0.81540 0.47060 -0.10300
H 	H 	0.89810 0.80450 0.47310 0.06800
C 	C 	0.87333 0.81360 0.45470 0.00900
H 	H 	0.87290 0.80160 0.44590 0.03700
C 	C 	0.85924 0.82984 0.45217 -0.05200
C 	C 	0.86085 0.84731 0.46498 0.04200
H 	H 	0.85130 0.85850 0.46300 0.01100
C 	C 	0.84302 0.82908 0.43559 0.13500
C 	C 	0.82478 0.87611 0.49941 0.10800
N 	N 	0.98525 0.86692 0.59096 -0.22300
N 	N 	0.85699 0.77446 0.61285 -0.26100
N 	N 	0.90242 0.76551 0.62503 -0.22400
N 	N 	0.90582 0.81091 0.57960 -0.15100
N 	N 	0.94029 0.82025 0.58966 -0.15000
N 	N 	0.92387 0.83763 0.56113 -0.15100
N 	N 	0.87185 0.85075 0.52568 -0.22900
N 	N 	0.84238 0.87676 0.50119 -0.26400
N 	N 	0.87524 0.84897 0.47991 -0.22900
N 	N 	0.84428 0.81397 0.42169 -0.15200
S 	S 	0.82812 0.79463 0.58696 -0.05900
S 	S 	0.79928 0.87346 0.49784 -0.06200
C 	C 	0.96989 0.35258 0.09028 0.03300
H 	H 	0.96730 0.34440 0.10240 0.01400
C 	C 	0.95750 0.34914 0.07258 -0.04600
C 	C 	0.96138 0.36072 0.05477 0.00600
H 	H 	0.95300 0.35920 0.04260 0.03800
C 	C 	0.97810 0.37482 0.05514 -0.10000
H 	H 	0.98180 0.38240 0.04290 0.06600
C 	C 	0.98907 0.37758 0.07314 0.06100
H 	H 	0.00010 0.38760 0.07320 -0.00000
C 	C 	0.84533 0.28338 0.10226 0.09800
C 	C 	0.91843 0.26321 0.13852 0.05700
H 	H 	0.91710 0.25320 0.14940 -0.00000
C 	C 	0.93666 0.27462 0.13740 -0.09600
H 	H 	0.94780 0.27200 0.14690 0.06300
C 	C 	0.93858 0.29007 0.12221 0.00400
H 	H 	0.95070 0.29870 0.12160 0.03800
C 	C 	0.92226 0.29249 0.10790 -0.04500
C 	C 	0.90472 0.28001 0.10974 0.03100
H 	H 	0.89380 0.28170 0.09980 0.01700
C 	C 	0.92282 0.30877 0.09132 0.13400
C 	C 	0.93970 0.33461 0.07433 0.13300
C 	C 	0.90684 0.32589 0.06489 0.13300
C 	C 	0.88822 0.34601 0.03768 0.03900
H 	H 	0.90060 0.35420 0.03630 0.01200
C 	C 	0.88815 0.32952 0.05221 -0.05100
C 	C 	0.87040 0.31735 0.05411 0.00900
H 	H 	0.86970 0.30620 0.06400 0.03700
C 	C 	0.85358 0.32192 0.04109 -0.10000
H 	H 	0.84130 0.31360 0.04160 0.06700
C 	C 	0.85489 0.33860 0.02746 0.06100
H 	H 	0.84310 0.34160 0.01890 0.00100
C 	C 	0.88862 0.33301 0.98237 0.06300
H 	H 	0.89890 0.33410 0.99300 -0.00100
C 	C 	0.88834 0.31540 0.97060 -0.10300
H 	H 	0.89810 0.30450 0.97310 0.06800
C 	C 	0.87333 0.31360 0.95470 0.00900
H 	H 	0.87290 0.30160 0.94590 0.03700
C 	C 	0.85924 0.32984 0.95217 -0.05200
C 	C 	0.86085 0.34731 0.96498 0.04200
H 	H 	0.85130 0.35850 0.96300 0.01100
C 	C 	0.84302 0.32908 0.93559 0.13500
C 	C 	0.82478 0.37611 0.99941 0.10800
N 	N 	0.98525 0.36692 0.09096 -0.22300
N 	N 	0.85699 0.27446 0.11285 -0.26100
N 	N 	0.90242 0.26551 0.12503 -0.22400
N 	N 	0.90582 0.31091 0.07960 -0.15100
N 	N 	0.94029 0.32025 0.08966 -0.15000
N 	N 	0.92387 0.33763 0.06113 -0.15100
N 	N 	0.87185 0.35075 0.02568 -0.22900
N 	N 	0.84238 0.37676 0.00119 -0.26400
N 	N 	0.87524 0.34897 0.97991 -0.22900
N 	N 	0.84428 0.31397 0.92169 -0.15200
S 	S 	0.82812 0.29463 0.08696 -0.05900
S 	S 	0.79928 0.37346 0.99784 -0.06200
C 	C 	0.46989 0.85258 0.09028 0.03300
H 	H 	0.46730 0.84440 0.10240 0.01400
C 	C 	0.45750 0.84914 0.07258 -0.04600
C 	C 	0.46138 0.86072 0.05477 0.00600
H 	H 	0.45300 0.85920 0.04260 0.03800
C 	C 	0.47810 0.87482 0.05514 -0.10000
H 	H 	0.48180 0.88240 0.04290 0.06600
C 	C 	0.48907 0.87758 0.07314 0.06100
H 	H 	0.50010 0.88760 0.07320 -0.00000
C 	C 	0.34533 0.78338 0.10226 0.09800
C 	C 	0.41843 0.76321 0.13852 0.05700
H 	H 	0.41710 0.75320 0.14940 -0.00000
C 	C 	0.43666 0.77462 0.13740 -0.09600
H 	H 	0.44780 0.77200 0.14690 0.06300
C 	C 	0.43858 0.79007 0.12221 0.00400
H 	H 	0.45070 0.79870 0.12160 0.03800
C 	C 	0.42226 0.79249 0.10790 -0.04500
C 	C 	0.40472 0.78001 0.10974 0.03100
H 	H 	0.39380 0.78170 0.09980 0.01700
C 	C 	0.42282 0.80877 0.09132 0.13400
C 	C 	0.43970 0.83461 0.07433 0.13300
C 	C 	0.40684 0.82589 0.06489 0.13300
C 	C 	0.38822 0.84601 0.03768 0.03900
H 	H 	0.40060 0.85420 0.03630 0.01200
C 	C 	0.38815 0.82952 0.05221 -0.05100
C 	C 	0.37040 0.81735 0.05411 0.00900
H 	H 	0.36970 0.80620 0.06400 0.03700
C 	C 	0.35358 0.82192 0.04109 -0.10000
H 	H 	0.34130 0.81360 0.04160 0.06700
C 	C 	0.35489 0.83860 0.02746 0.06100
H 	H 	0.34310 0.84160 0.01890 0.00100
C 	C 	0.38862 0.83301 0.98237 0.06300
H 	H 	0.39890 0.83410 0.99300 -0.00100
C 	C 	0.38834 0.81540 0.97060 -0.10300
H 	H 	0.39810 0.80450 0.97310 0.06800
C 	C 	0.37333 0.81360 0.95470 0.00900
H 	H 	0.37290 0.80160 0.94590 0.03700
C 	C 	0.35924 0.82984 0.95217 -0.05200
C 	C 	0.36085 0.84731 0.96498 0.04200
H 	H 	0.35130 0.85850 0.96300 0.01100
C 	C 	0.34302 0.82908 0.93559 0.13500
C 	C 	0.32478 0.87611 0.99941 0.10800
N 	N 	0.48525 0.86692 0.09096 -0.22300
N 	N 	0.35699 0.77446 0.11285 -0.26100
N 	N 	0.40242 0.76551 0.12503 -0.22400
N 	N 	0.40582 0.81091 0.07960 -0.15100
N 	N 	0.44029 0.82025 0.08966 -0.15000
N 	N 	0.42387 0.83763 0.06113 -0.15100
N 	N 	0.37185 0.85075 0.02568 -0.22900
N 	N 	0.34238 0.87676 0.00119 -0.26400
N 	N 	0.37524 0.84897 0.97991 -0.22900
N 	N 	0.34428 0.81397 0.92169 -0.15200
S 	S 	0.32812 0.79463 0.08696 -0.05900
S 	S 	0.29928 0.87346 0.99784 -0.06200
C 	C 	0.46989 0.35258 0.59028 0.03300
H 	H 	0.46730 0.34440 0.60240 0.01400
C 	C 	0.45750 0.34914 0.57258 -0.04600
C 	C 	0.46138 0.36072 0.55477 0.00600
H 	H 	0.45300 0.35920 0.54260 0.03800
C 	C 	0.47810 0.37482 0.55514 -0.10000
H 	H 	0.48180 0.38240 0.54290 0.06600
C 	C 	0.48907 0.37758 0.57314 0.06100
H 	H 	0.50010 0.38760 0.57320 -0.00000
C 	C 	0.34533 0.28338 0.60226 0.09800
C 	C 	0.41843 0.26321 0.63852 0.05700
H 	H 	0.41710 0.25320 0.64940 -0.00000
C 	C 	0.43666 0.27462 0.63740 -0.09600
H 	H 	0.44780 0.27200 0.64690 0.06300
C 	C 	0.43858 0.29007 0.62221 0.00400
H 	H 	0.45070 0.29870 0.62160 0.03800
C 	C 	0.42226 0.29249 0.60790 -0.04500
C 	C 	0.40472 0.28001 0.60974 0.03100
H 	H 	0.39380 0.28170 0.59980 0.01700
C 	C 	0.42282 0.30877 0.59132 0.13400
C 	C 	0.43970 0.33461 0.57433 0.13300
C 	C 	0.40684 0.32589 0.56489 0.13300
C 	C 	0.38822 0.34601 0.53768 0.03900
H 	H 	0.40060 0.35420 0.53630 0.01200
C 	C 	0.38815 0.32952 0.55221 -0.05100
C 	C 	0.37040 0.31735 0.55411 0.00900
H 	H 	0.36970 0.30620 0.56400 0.03700
C 	C 	0.35358 0.32192 0.54109 -0.10000
H 	H 	0.34130 0.31360 0.54160 0.06700
C 	C 	0.35489 0.33860 0.52746 0.06100
H 	H 	0.34310 0.34160 0.51890 0.00100
C 	C 	0.38862 0.33301 0.48237 0.06300
H 	H 	0.39890 0.33410 0.49300 -0.00100
C 	C 	0.38834 0.31540 0.47060 -0.10300
H 	H 	0.39810 0.30450 0.47310 0.06800
C 	C 	0.37333 0.31360 0.45470 0.00900
H 	H 	0.37290 0.30160 0.44590 0.03700
C 	C 	0.35924 0.32984 0.45217 -0.05200
C 	C 	0.36085 0.34731 0.46498 0.04200
H 	H 	0.35130 0.35850 0.46300 0.01100
C 	C 	0.34302 0.32908 0.43559 0.13500
C 	C 	0.32478 0.37611 0.49941 0.10800
N 	N 	0.48525 0.36692 0.59096 -0.22300
N 	N 	0.35699 0.27446 0.61285 -0.26100
N 	N 	0.40242 0.26551 0.62503 -0.22400
N 	N 	0.40582 0.31091 0.57960 -0.15100
N 	N 	0.44029 0.32025 0.58966 -0.15000
N 	N 	0.42387 0.33763 0.56113 -0.15100
N 	N 	0.37185 0.35075 0.52568 -0.22900
N 	N 	0.34238 0.37676 0.50119 -0.26400
N 	N 	0.37524 0.34897 0.47991 -0.22900
N 	N 	0.34428 0.31397 0.42169 -0.15200
S 	S 	0.32812 0.29463 0.58696 -0.05900
S 	S 	0.29928 0.37346 0.49784 -0.06200
C 	C 	0.46989 0.39742 0.15972 0.03300
H 	H 	0.46730 0.40560 0.14760 0.01400
C 	C 	0.45750 0.40086 0.17742 -0.04600
C 	C 	0.46138 0.38928 0.19523 0.00600
H 	H 	0.45300 0.39080 0.20740 0.03800
C 	C 	0.47810 0.37518 0.19486 -0.10000
H 	H 	0.48180 0.36760 0.20710 0.06600
C 	C 	0.48907 0.37242 0.17686 0.06100
H 	H 	0.50010 0.36240 0.17680 -0.00000
C 	C 	0.34533 0.46662 0.14774 0.09800
C 	C 	0.41843 0.48679 0.11148 0.05700
H 	H 	0.41710 0.49680 0.10060 -0.00000
C 	C 	0.43666 0.47538 0.11260 -0.09600
H 	H 	0.44780 0.47800 0.10310 0.06300
C 	C 	0.43858 0.45993 0.12779 0.00400
H 	H 	0.45070 0.45130 0.12840 0.03800
C 	C 	0.42226 0.45751 0.14210 -0.04500
C 	C 	0.40472 0.46999 0.14026 0.03100
H 	H 	0.39380 0.46830 0.15020 0.01700
C 	C 	0.42282 0.44123 0.15868 0.13400
C 	C 	0.43970 0.41539 0.17567 0.13300
C 	C 	0.40684 0.42411 0.18511 0.13300
C 	C 	0.38822 0.40399 0.21232 0.03900
H 	H 	0.40060 0.39580 0.21370 0.01200
C 	C 	0.38815 0.42048 0.19779 -0.05100
C 	C 	0.37040 0.43265 0.19589 0.00900
H 	H 	0.36970 0.44380 0.18600 0.03700
C 	C 	0.35358 0.42808 0.20891 -0.10000
H 	H 	0.34130 0.43640 0.20840 0.06700
C 	C 	0.35489 0.41140 0.22254 0.06100
H 	H 	0.34310 0.40840 0.23110 0.00100
C 	C 	0.38862 0.41699 0.26763 0.06300
H 	H 	0.39890 0.41590 0.25700 -0.00100
C 	C 	0.38834 0.43460 0.27940 -0.10300
H 	H 	0.39810 0.44550 0.27690 0.06800
C 	C 	0.37333 0.43640 0.29530 0.00900
H 	H 	0.37290 0.44840 0.30410 0.03700
C 	C 	0.35924 0.42016 0.29783 -0.05200
C 	C 	0.36085 0.40269 0.28502 0.04200
H 	H 	0.35130 0.39150 0.28700 0.01100
C 	C 	0.34302 0.42092 0.31441 0.13500
C 	C 	0.32478 0.37389 0.25059 0.10800
N 	N 	0.48525 0.38308 0.15904 -0.22300
N 	N 	0.35699 0.47554 0.13715 -0.26100
N 	N 	0.40242 0.48449 0.12497 -0.22400
N 	N 	0.40582 0.43909 0.17040 -0.15100
N 	N 	0.44029 0.42975 0.16034 -0.15000
N 	N 	0.42387 0.41237 0.18887 -0.15100
N 	N 	0.37185 0.39925 0.22432 -0.22900
N 	N 	0.34238 0.37324 0.24881 -0.26400
N 	N 	0.37524 0.40103 0.27009 -0.22900
N 	N 	0.34428 0.43603 0.32831 -0.15200
S 	S 	0.32812 0.45537 0.16304 -0.05900
S 	S 	0.29928 0.37654 0.25216 -0.06200
C 	C 	0.46989 0.89742 0.65972 0.03300
H 	H 	0.46730 0.90560 0.64760 0.01400
C 	C 	0.45750 0.90086 0.67742 -0.04600
C 	C 	0.46138 0.88928 0.69523 0.00600
H 	H 	0.45300 0.89080 0.70740 0.03800
C 	C 	0.47810 0.87518 0.69486 -0.10000
H 	H 	0.48180 0.86760 0.70710 0.06600
C 	C 	0.48907 0.87242 0.67686 0.06100
H 	H 	0.50010 0.86240 0.67680 -0.00000
C 	C 	0.34533 0.96662 0.64774 0.09800
C 	C 	0.41843 0.98679 0.61148 0.05700
H 	H 	0.41710 0.99680 0.60060 -0.00000
C 	C 	0.43666 0.97538 0.61260 -0.09600
H 	H 	0.44780 0.97800 0.60310 0.06300
C 	C 	0.43858 0.95993 0.62779 0.00400
H 	H 	0.45070 0.95130 0.62840 0.03800
C 	C 	0.42226 0.95751 0.64210 -0.04500
C 	C 	0.40472 0.96999 0.64026 0.03100
H 	H 	0.39380 0.96830 0.65020 0.01700
C 	C 	0.42282 0.94123 0.65868 0.13400
C 	C 	0.43970 0.91539 0.67567 0.13300
C 	C 	0.40684 0.92411 0.68511 0.13300
C 	C 	0.38822 0.90399 0.71232 0.03900
H 	H 	0.40060 0.89580 0.71370 0.01200
C 	C 	0.38815 0.92048 0.69779 -0.05100
C 	C 	0.37040 0.93265 0.69589 0.00900
H 	H 	0.36970 0.94380 0.68600 0.03700
C 	C 	0.35358 0.92808 0.70891 -0.10000
H 	H 	0.34130 0.93640 0.70840 0.06700
C 	C 	0.35489 0.91140 0.72254 0.06100
H 	H 	0.34310 0.90840 0.73110 0.00100
C 	C 	0.38862 0.91699 0.76763 0.06300
H 	H 	0.39890 0.91590 0.75700 -0.00100
C 	C 	0.38834 0.93460 0.77940 -0.10300
H 	H 	0.39810 0.94550 0.77690 0.06800
C 	C 	0.37333 0.93640 0.79530 0.00900
H 	H 	0.37290 0.94840 0.80410 0.03700
C 	C 	0.35924 0.92016 0.79783 -0.05200
C 	C 	0.36085 0.90269 0.78502 0.04200
H 	H 	0.35130 0.89150 0.78700 0.01100
C 	C 	0.34302 0.92092 0.81441 0.13500
C 	C 	0.32478 0.87389 0.75059 0.10800
N 	N 	0.48525 0.88308 0.65904 -0.22300
N 	N 	0.35699 0.97554 0.63715 -0.26100
N 	N 	0.40242 0.98449 0.62497 -0.22400
N 	N 	0.40582 0.93909 0.67040 -0.15100
N 	N 	0.44029 0.92975 0.66034 -0.15000
N 	N 	0.42387 0.91237 0.68887 -0.15100
N 	N 	0.37185 0.89925 0.72432 -0.22900
N 	N 	0.34238 0.87324 0.74881 -0.26400
N 	N 	0.37524 0.90103 0.77009 -0.22900
N 	N 	0.34428 0.93603 0.82831 -0.15200
S 	S 	0.32812 0.95537 0.66304 -0.05900
S 	S 	0.29928 0.87654 0.75216 -0.06200
C 	C 	0.96989 0.39742 0.65972 0.03300
H 	H 	0.96730 0.40560 0.64760 0.01400
C 	C 	0.95750 0.40086 0.67742 -0.04600
C 	C 	0.96138 0.38928 0.69523 0.00600
H 	H 	0.95300 0.39080 0.70740 0.03800
C 	C 	0.97810 0.37518 0.69486 -0.10000
H 	H 	0.98180 0.36760 0.70710 0.06600
C 	C 	0.98907 0.37242 0.67686 0.06100
H 	H 	0.00010 0.36240 0.67680 -0.00000
C 	C 	0.84533 0.46662 0.64774 0.09800
C 	C 	0.91843 0.48679 0.61148 0.05700
H 	H 	0.91710 0.49680 0.60060 -0.00000
C 	C 	0.93666 0.47538 0.61260 -0.09600
H 	H 	0.94780 0.47800 0.60310 0.06300
C 	C 	0.93858 0.45993 0.62779 0.00400
H 	H 	0.95070 0.45130 0.62840 0.03800
C 	C 	0.92226 0.45751 0.64210 -0.04500
C 	C 	0.90472 0.46999 0.64026 0.03100
H 	H 	0.89380 0.46830 0.65020 0.01700
C 	C 	0.92282 0.44123 0.65868 0.13400
C 	C 	0.93970 0.41539 0.67567 0.13300
C 	C 	0.90684 0.42411 0.68511 0.13300
C 	C 	0.88822 0.40399 0.71232 0.03900
H 	H 	0.90060 0.39580 0.71370 0.01200
C 	C 	0.88815 0.42048 0.69779 -0.05100
C 	C 	0.87040 0.43265 0.69589 0.00900
H 	H 	0.86970 0.44380 0.68600 0.03700
C 	C 	0.85358 0.42808 0.70891 -0.10000
H 	H 	0.84130 0.43640 0.70840 0.06700
C 	C 	0.85489 0.41140 0.72254 0.06100
H 	H 	0.84310 0.40840 0.73110 0.00100
C 	C 	0.88862 0.41699 0.76763 0.06300
H 	H 	0.89890 0.41590 0.75700 -0.00100
C 	C 	0.88834 0.43460 0.77940 -0.10300
H 	H 	0.89810 0.44550 0.77690 0.06800
C 	C 	0.87333 0.43640 0.79530 0.00900
H 	H 	0.87290 0.44840 0.80410 0.03700
C 	C 	0.85924 0.42016 0.79783 -0.05200
C 	C 	0.86085 0.40269 0.78502 0.04200
H 	H 	0.85130 0.39150 0.78700 0.01100
C 	C 	0.84302 0.42092 0.81441 0.13500
C 	C 	0.82478 0.37389 0.75059 0.10800
N 	N 	0.98525 0.38308 0.65904 -0.22300
N 	N 	0.85699 0.47554 0.63715 -0.26100
N 	N 	0.90242 0.48449 0.62497 -0.22400
N 	N 	0.90582 0.43909 0.67040 -0.15100
N 	N 	0.94029 0.42975 0.66034 -0.15000
N 	N 	0.92387 0.41237 0.68887 -0.15100
N 	N 	0.87185 0.39925 0.72432 -0.22900
N 	N 	0.84238 0.37324 0.74881 -0.26400
N 	N 	0.87524 0.40103 0.77009 -0.22900
N 	N 	0.84428 0.43603 0.82831 -0.15200
S 	S 	0.82812 0.45537 0.66304 -0.05900
S 	S 	0.79928 0.37654 0.75216 -0.06200
C 	C 	0.96989 0.89742 0.15972 0.03300
H 	H 	0.96730 0.90560 0.14760 0.01400
C 	C 	0.95750 0.90086 0.17742 -0.04600
C 	C 	0.96138 0.88928 0.19523 0.00600
H 	H 	0.95300 0.89080 0.20740 0.03800
C 	C 	0.97810 0.87518 0.19486 -0.10000
H 	H 	0.98180 0.86760 0.20710 0.06600
C 	C 	0.98907 0.87242 0.17686 0.06100
H 	H 	0.00010 0.86240 0.17680 -0.00000
C 	C 	0.84533 0.96662 0.14774 0.09800
C 	C 	0.91843 0.98679 0.11148 0.05700
H 	H 	0.91710 0.99680 0.10060 -0.00000
C 	C 	0.93666 0.97538 0.11260 -0.09600
H 	H 	0.94780 0.97800 0.10310 0.06300
C 	C 	0.93858 0.95993 0.12779 0.00400
H 	H 	0.95070 0.95130 0.12840 0.03800
C 	C 	0.92226 0.95751 0.14210 -0.04500
C 	C 	0.90472 0.96999 0.14026 0.03100
H 	H 	0.89380 0.96830 0.15020 0.01700
C 	C 	0.92282 0.94123 0.15868 0.13400
C 	C 	0.93970 0.91539 0.17567 0.13300
C 	C 	0.90684 0.92411 0.18511 0.13300
C 	C 	0.88822 0.90399 0.21232 0.03900
H 	H 	0.90060 0.89580 0.21370 0.01200
C 	C 	0.88815 0.92048 0.19779 -0.05100
C 	C 	0.87040 0.93265 0.19589 0.00900
H 	H 	0.86970 0.94380 0.18600 0.03700
C 	C 	0.85358 0.92808 0.20891 -0.10000
H 	H 	0.84130 0.93640 0.20840 0.06700
C 	C 	0.85489 0.91140 0.22254 0.06100
H 	H 	0.84310 0.90840 0.23110 0.00100
C 	C 	0.88862 0.91699 0.26763 0.06300
H 	H 	0.89890 0.91590 0.25700 -0.00100
C 	C 	0.88834 0.93460 0.27940 -0.10300
H 	H 	0.89810 0.94550 0.27690 0.06800
C 	C 	0.87333 0.93640 0.29530 0.00900
H 	H 	0.87290 0.94840 0.30410 0.03700
C 	C 	0.85924 0.92016 0.29783 -0.05200
C 	C 	0.86085 0.90269 0.28502 0.04200
H 	H 	0.85130 0.89150 0.28700 0.01100
C 	C 	0.84302 0.92092 0.31441 0.13500
C 	C 	0.82478 0.87389 0.25059 0.10800
N 	N 	0.98525 0.88308 0.15904 -0.22300
N 	N 	0.85699 0.97554 0.13715 -0.26100
N 	N 	0.90242 0.98449 0.12497 -0.22400
N 	N 	0.90582 0.93909 0.17040 -0.15100
N 	N 	0.94029 0.92975 0.16034 -0.15000
N 	N 	0.92387 0.91237 0.18887 -0.15100
N 	N 	0.87185 0.89925 0.22432 -0.22900
N 	N 	0.84238 0.87324 0.24881 -0.26400
N 	N 	0.87524 0.90103 0.27009 -0.22900
N 	N 	0.84428 0.93603 0.32831 -0.15200
S 	S 	0.82812 0.95537 0.16304 -0.05900
S 	S 	0.79928 0.87654 0.25216 -0.06200
C 	C 	0.78011 0.35258 0.65972 0.03300
H 	H 	0.78270 0.34440 0.64760 0.01400
C 	C 	0.79250 0.34914 0.67742 -0.04600
C 	C 	0.78862 0.36072 0.69523 0.00600
H 	H 	0.79700 0.35920 0.70740 0.03800
C 	C 	0.77190 0.37482 0.69486 -0.10000
H 	H 	0.76820 0.38240 0.70710 0.06600
C 	C 	0.76093 0.37758 0.67686 0.06100
H 	H 	0.74990 0.38760 0.67680 -0.00000
C 	C 	0.90467 0.28338 0.64774 0.09800
C 	C 	0.83157 0.26321 0.61148 0.05700
H 	H 	0.83290 0.25320 0.60060 -0.00000
C 	C 	0.81334 0.27462 0.61260 -0.09600
H 	H 	0.80220 0.27200 0.60310 0.06300
C 	C 	0.81142 0.29007 0.62779 0.00400
H 	H 	0.79930 0.29870 0.62840 0.03800
C 	C 	0.82774 0.29249 0.64210 -0.04500
C 	C 	0.84528 0.28001 0.64026 0.03100
H 	H 	0.85620 0.28170 0.65020 0.01700
C 	C 	0.82718 0.30877 0.65868 0.13400
C 	C 	0.81030 0.33461 0.67567 0.13300
C 	C 	0.84316 0.32589 0.68511 0.13300
C 	C 	0.86178 0.34601 0.71232 0.03900
H 	H 	0.84940 0.35420 0.71370 0.01200
C 	C 	0.86185 0.32952 0.69779 -0.05100
C 	C 	0.87960 0.31735 0.69589 0.00900
H 	H 	0.88030 0.30620 0.68600 0.03700
C 	C 	0.89642 0.32192 0.70891 -0.10000
H 	H 	0.90870 0.31360 0.70840 0.06700
C 	C 	0.89511 0.33860 0.72254 0.06100
H 	H 	0.90690 0.34160 0.73110 0.00100
C 	C 	0.86138 0.33301 0.76763 0.06300
H 	H 	0.85110 0.33410 0.75700 -0.00100
C 	C 	0.86166 0.31540 0.77940 -0.10300
H 	H 	0.85190 0.30450 0.77690 0.06800
C 	C 	0.87667 0.31360 0.79530 0.00900
H 	H 	0.87710 0.30160 0.80410 0.03700
C 	C 	0.89076 0.32984 0.79783 -0.05200
C 	C 	0.88915 0.34731 0.78502 0.04200
H 	H 	0.89870 0.35850 0.78700 0.01100
C 	C 	0.90698 0.32908 0.81441 0.13500
C 	C 	0.92522 0.37611 0.75059 0.10800
N 	N 	0.76475 0.36692 0.65904 -0.22300
N 	N 	0.89301 0.27446 0.63715 -0.26100
N 	N 	0.84758 0.26551 0.62497 -0.22400
N 	N 	0.84418 0.31091 0.67040 -0.15100
N 	N 	0.80971 0.32025 0.66034 -0.15000
N 	N 	0.82613 0.33763 0.68887 -0.15100
N 	N 	0.87815 0.35075 0.72432 -0.22900
N 	N 	0.90762 0.37676 0.74881 -0.26400
N 	N 	0.87476 0.34897 0.77009 -0.22900
N 	N 	0.90572 0.31397 0.82831 -0.15200
S 	S 	0.92188 0.29463 0.66304 -0.05900
S 	S 	0.95072 0.37346 0.75216 -0.06200
C 	C 	0.78011 0.85258 0.15972 0.03300
H 	H 	0.78270 0.84440 0.14760 0.01400
C 	C 	0.79250 0.84914 0.17742 -0.04600
C 	C 	0.78862 0.86072 0.19523 0.00600
H 	H 	0.79700 0.85920 0.20740 0.03800
C 	C 	0.77190 0.87482 0.19486 -0.10000
H 	H 	0.76820 0.88240 0.20710 0.06600
C 	C 	0.76093 0.87758 0.17686 0.06100
H 	H 	0.74990 0.88760 0.17680 -0.00000
C 	C 	0.90467 0.78338 0.14774 0.09800
C 	C 	0.83157 0.76321 0.11148 0.05700
H 	H 	0.83290 0.75320 0.10060 -0.00000
C 	C 	0.81334 0.77462 0.11260 -0.09600
H 	H 	0.80220 0.77200 0.10310 0.06300
C 	C 	0.81142 0.79007 0.12779 0.00400
H 	H 	0.79930 0.79870 0.12840 0.03800
C 	C 	0.82774 0.79249 0.14210 -0.04500
C 	C 	0.84528 0.78001 0.14026 0.03100
H 	H 	0.85620 0.78170 0.15020 0.01700
C 	C 	0.82718 0.80877 0.15868 0.13400
C 	C 	0.81030 0.83461 0.17567 0.13300
C 	C 	0.84316 0.82589 0.18511 0.13300
C 	C 	0.86178 0.84601 0.21232 0.03900
H 	H 	0.84940 0.85420 0.21370 0.01200
C 	C 	0.86185 0.82952 0.19779 -0.05100
C 	C 	0.87960 0.81735 0.19589 0.00900
H 	H 	0.88030 0.80620 0.18600 0.03700
C 	C 	0.89642 0.82192 0.20891 -0.10000
H 	H 	0.90870 0.81360 0.20840 0.06700
C 	C 	0.89511 0.83860 0.22254 0.06100
H 	H 	0.90690 0.84160 0.23110 0.00100
C 	C 	0.86138 0.83301 0.26763 0.06300
H 	H 	0.85110 0.83410 0.25700 -0.00100
C 	C 	0.86166 0.81540 0.27940 -0.10300
H 	H 	0.85190 0.80450 0.27690 0.06800
C 	C 	0.87667 0.81360 0.29530 0.00900
H 	H 	0.87710 0.80160 0.30410 0.03700
C 	C 	0.89076 0.82984 0.29783 -0.05200
C 	C 	0.88915 0.84731 0.28502 0.04200
H 	H 	0.89870 0.85850 0.28700 0.01100
C 	C 	0.90698 0.82908 0.31441 0.13500
C 	C 	0.92522 0.87611 0.25059 0.10800
N 	N 	0.76475 0.86692 0.15904 -0.22300
N 	N 	0.89301 0.77446 0.13715 -0.26100
N 	N 	0.84758 0.76551 0.12497 -0.22400
N 	N 	0.84418 0.81091 0.17040 -0.15100
N 	N 	0.80971 0.82025 0.16034 -0.15000
N 	N 	0.82613 0.83763 0.18887 -0.15100
N 	N 	0.87815 0.85075 0.22432 -0.22900
N 	N 	0.90762 0.87676 0.24881 -0.26400
N 	N 	0.87476 0.84897 0.27009 -0.22900
N 	N 	0.90572 0.81397 0.32831 -0.15200
S 	S 	0.92188 0.79463 0.16304 -0.05900
S 	S 	0.95072 0.87346 0.25216 -0.06200
C 	C 	0.28011 0.35258 0.15972 0.03300
H 	H 	0.28270 0.34440 0.14760 0.01400
C 	C 	0.29250 0.34914 0.17742 -0.04600
C 	C 	0.28862 0.36072 0.19523 0.00600
H 	H 	0.29700 0.35920 0.20740 0.03800
C 	C 	0.27190 0.37482 0.19486 -0.10000
H 	H 	0.26820 0.38240 0.20710 0.06600
C 	C 	0.26093 0.37758 0.17686 0.06100
H 	H 	0.24990 0.38760 0.17680 -0.00000
C 	C 	0.40467 0.28338 0.14774 0.09800
C 	C 	0.33157 0.26321 0.11148 0.05700
H 	H 	0.33290 0.25320 0.10060 -0.00000
C 	C 	0.31334 0.27462 0.11260 -0.09600
H 	H 	0.30220 0.27200 0.10310 0.06300
C 	C 	0.31142 0.29007 0.12779 0.00400
H 	H 	0.29930 0.29870 0.12840 0.03800
C 	C 	0.32774 0.29249 0.14210 -0.04500
C 	C 	0.34528 0.28001 0.14026 0.03100
H 	H 	0.35620 0.28170 0.15020 0.01700
C 	C 	0.32718 0.30877 0.15868 0.13400
C 	C 	0.31030 0.33461 0.17567 0.13300
C 	C 	0.34316 0.32589 0.18511 0.13300
C 	C 	0.36178 0.34601 0.21232 0.03900
H 	H 	0.34940 0.35420 0.21370 0.01200
C 	C 	0.36185 0.32952 0.19779 -0.05100
C 	C 	0.37960 0.31735 0.19589 0.00900
H 	H 	0.38030 0.30620 0.18600 0.03700
C 	C 	0.39642 0.32192 0.20891 -0.10000
H 	H 	0.40870 0.31360 0.20840 0.06700
C 	C 	0.39511 0.33860 0.22254 0.06100
H 	H 	0.40690 0.34160 0.23110 0.00100
C 	C 	0.36138 0.33301 0.26763 0.06300
H 	H 	0.35110 0.33410 0.25700 -0.00100
C 	C 	0.36166 0.31540 0.27940 -0.10300
H 	H 	0.35190 0.30450 0.27690 0.06800
C 	C 	0.37667 0.31360 0.29530 0.00900
H 	H 	0.37710 0.30160 0.30410 0.03700
C 	C 	0.39076 0.32984 0.29783 -0.05200
C 	C 	0.38915 0.34731 0.28502 0.04200
H 	H 	0.39870 0.35850 0.28700 0.01100
C 	C 	0.40698 0.32908 0.31441 0.13500
C 	C 	0.42522 0.37611 0.25059 0.10800
N 	N 	0.26475 0.36692 0.15904 -0.22300
N 	N 	0.39301 0.27446 0.13715 -0.26100
N 	N 	0.34758 0.26551 0.12497 -0.22400
N 	N 	0.34418 0.31091 0.17040 -0.15100
N 	N 	0.30971 0.32025 0.16034 -0.15000
N 	N 	0.32613 0.33763 0.18887 -0.15100
N 	N 	0.37815 0.35075 0.22432 -0.22900
N 	N 	0.40762 0.37676 0.24881 -0.26400
N 	N 	0.37476 0.34897 0.27009 -0.22900
N 	N 	0.40572 0.31397 0.32831 -0.15200
S 	S 	0.42188 0.29463 0.16304 -0.05900
S 	S 	0.45072 0.37346 0.25216 -0.06200
C 	C 	0.28011 0.85258 0.65972 0.03300
H 	H 	0.28270 0.84440 0.64760 0.01400
C 	C 	0.29250 0.84914 0.67742 -0.04600
C 	C 	0.28862 0.86072 0.69523 0.00600
H 	H 	0.29700 0.85920 0.70740 0.03800
C 	C 	0.27190 0.87482 0.69486 -0.10000
H 	H 	0.26820 0.88240 0.70710 0.06600
C 	C 	0.26093 0.87758 0.67686 0.06100
H 	H 	0.24990 0.88760 0.67680 -0.00000
C 	C 	0.40467 0.78338 0.64774 0.09800
C 	C 	0.33157 0.76321 0.61148 0.05700
H 	H 	0.33290 0.75320 0.60060 -0.00000
C 	C 	0.31334 0.77462 0.61260 -0.09600
H 	H 	0.30220 0.77200 0.60310 0.06300
C 	C 	0.31142 0.79007 0.62779 0.00400
H 	H 	0.29930 0.79870 0.62840 0.03800
C 	C 	0.32774 0.79249 0.64210 -0.04500
C 	C 	0.34528 0.78001 0.64026 0.03100
H 	H 	0.35620 0.78170 0.65020 0.01700
C 	C 	0.32718 0.80877 0.65868 0.13400
C 	C 	0.31030 0.83461 0.67567 0.13300
C 	C 	0.34316 0.82589 0.68511 0.13300
C 	C 	0.36178 0.84601 0.71232 0.03900
H 	H 	0.34940 0.85420 0.71370 0.01200
C 	C 	0.36185 0.82952 0.69779 -0.05100
C 	C 	0.37960 0.81735 0.69589 0.00900
H 	H 	0.38030 0.80620 0.68600 0.03700
C 	C 	0.39642 0.82192 0.70891 -0.10000
H 	H 	0.40870 0.81360 0.70840 0.06700
C 	C 	0.39511 0.83860 0.72254 0.06100
H 	H 	0.40690 0.84160 0.73110 0.00100
C 	C 	0.36138 0.83301 0.76763 0.06300
H 	H 	0.35110 0.83410 0.75700 -0.00100
C 	C 	0.36166 0.81540 0.77940 -0.10300
H 	H 	0.35190 0.80450 0.77690 0.06800
C 	C 	0.37667 0.81360 0.79530 0.00900
H 	H 	0.37710 0.80160 0.80410 0.03700
C 	C 	0.39076 0.82984 0.79783 -0.05200
C 	C 	0.38915 0.84731 0.78502 0.04200
H 	H 	0.39870 0.85850 0.78700 0.01100
C 	C 	0.40698 0.82908 0.81441 0.13500
C 	C 	0.42522 0.87611 0.75059 0.10800
N 	N 	0.26475 0.86692 0.65904 -0.22300
N 	N 	0.39301 0.77446 0.63715 -0.26100
N 	N 	0.34758 0.76551 0.62497 -0.22400
N 	N 	0.34418 0.81091 0.67040 -0.15100
N 	N 	0.30971 0.82025 0.66034 -0.15000
N 	N 	0.32613 0.83763 0.68887 -0.15100
N 	N 	0.37815 0.85075 0.72432 -0.22900
N 	N 	0.40762 0.87676 0.74881 -0.26400
N 	N 	0.37476 0.84897 0.77009 -0.22900
N 	N 	0.40572 0.81397 0.82831 -0.15200
S 	S 	0.42188 0.79463 0.66304 -0.05900
S 	S 	0.45072 0.87346 0.75216 -0.06200
C 	C 	0.28011 0.89742 0.09028 0.03300
H 	H 	0.28270 0.90560 0.10240 0.01400
C 	C 	0.29250 0.90086 0.07258 -0.04600
C 	C 	0.28862 0.88928 0.05477 0.00600
H 	H 	0.29700 0.89080 0.04260 0.03800
C 	C 	0.27190 0.87518 0.05514 -0.10000
H 	H 	0.26820 0.86760 0.04290 0.06600
C 	C 	0.26093 0.87242 0.07314 0.06100
H 	H 	0.24990 0.86240 0.07320 -0.00000
C 	C 	0.40467 0.96662 0.10226 0.09800
C 	C 	0.33157 0.98679 0.13852 0.05700
H 	H 	0.33290 0.99680 0.14940 -0.00000
C 	C 	0.31334 0.97538 0.13740 -0.09600
H 	H 	0.30220 0.97800 0.14690 0.06300
C 	C 	0.31142 0.95993 0.12221 0.00400
H 	H 	0.29930 0.95130 0.12160 0.03800
C 	C 	0.32774 0.95751 0.10790 -0.04500
C 	C 	0.34528 0.96999 0.10974 0.03100
H 	H 	0.35620 0.96830 0.09980 0.01700
C 	C 	0.32718 0.94123 0.09132 0.13400
C 	C 	0.31030 0.91539 0.07433 0.13300
C 	C 	0.34316 0.92411 0.06489 0.13300
C 	C 	0.36178 0.90399 0.03768 0.03900
H 	H 	0.34940 0.89580 0.03630 0.01200
C 	C 	0.36185 0.92048 0.05221 -0.05100
C 	C 	0.37960 0.93265 0.05411 0.00900
H 	H 	0.38030 0.94380 0.06400 0.03700
C 	C 	0.39642 0.92808 0.04109 -0.10000
H 	H 	0.40870 0.93640 0.04160 0.06700
C 	C 	0.39511 0.91140 0.02746 0.06100
H 	H 	0.40690 0.90840 0.01890 0.00100
C 	C 	0.36138 0.91699 0.98237 0.06300
H 	H 	0.35110 0.91590 0.99300 -0.00100
C 	C 	0.36166 0.93460 0.97060 -0.10300
H 	H 	0.35190 0.94550 0.97310 0.06800
C 	C 	0.37667 0.93640 0.95470 0.00900
H 	H 	0.37710 0.94840 0.94590 0.03700
C 	C 	0.39076 0.92016 0.95217 -0.05200
C 	C 	0.38915 0.90269 0.96498 0.04200
H 	H 	0.39870 0.89150 0.96300 0.01100
C 	C 	0.40698 0.92092 0.93559 0.13500
C 	C 	0.42522 0.87389 0.99941 0.10800
N 	N 	0.26475 0.88308 0.09096 -0.22300
N 	N 	0.39301 0.97554 0.11285 -0.26100
N 	N 	0.34758 0.98449 0.12503 -0.22400
N 	N 	0.34418 0.93909 0.07960 -0.15100
N 	N 	0.30971 0.92975 0.08966 -0.15000
N 	N 	0.32613 0.91237 0.06113 -0.15100
N 	N 	0.37815 0.89925 0.02568 -0.22900
N 	N 	0.40762 0.87324 0.00119 -0.26400
N 	N 	0.37476 0.90103 0.97991 -0.22900
N 	N 	0.40572 0.93603 0.92169 -0.15200
S 	S 	0.42188 0.95537 0.08696 -0.05900
S 	S 	0.45072 0.87654 0.99784 -0.06200
C 	C 	0.28011 0.39742 0.59028 0.03300
H 	H 	0.28270 0.40560 0.60240 0.01400
C 	C 	0.29250 0.40086 0.57258 -0.04600
C 	C 	0.28862 0.38928 0.55477 0.00600
H 	H 	0.29700 0.39080 0.54260 0.03800
C 	C 	0.27190 0.37518 0.55514 -0.10000
H 	H 	0.26820 0.36760 0.54290 0.06600
C 	C 	0.26093 0.37242 0.57314 0.06100
H 	H 	0.24990 0.36240 0.57320 -0.00000
C 	C 	0.40467 0.46662 0.60226 0.09800
C 	C 	0.33157 0.48679 0.63852 0.05700
H 	H 	0.33290 0.49680 0.64940 -0.00000
C 	C 	0.31334 0.47538 0.63740 -0.09600
H 	H 	0.30220 0.47800 0.64690 0.06300
C 	C 	0.31142 0.45993 0.62221 0.00400
H 	H 	0.29930 0.45130 0.62160 0.03800
C 	C 	0.32774 0.45751 0.60790 -0.04500
C 	C 	0.34528 0.46999 0.60974 0.03100
H 	H 	0.35620 0.46830 0.59980 0.01700
C 	C 	0.32718 0.44123 0.59132 0.13400
C 	C 	0.31030 0.41539 0.57433 0.13300
C 	C 	0.34316 0.42411 0.56489 0.13300
C 	C 	0.36178 0.40399 0.53768 0.03900
H 	H 	0.34940 0.39580 0.53630 0.01200
C 	C 	0.36185 0.42048 0.55221 -0.05100
C 	C 	0.37960 0.43265 0.55411 0.00900
H 	H 	0.38030 0.44380 0.56400 0.03700
C 	C 	0.39642 0.42808 0.54109 -0.10000
H 	H 	0.40870 0.43640 0.54160 0.06700
C 	C 	0.39511 0.41140 0.52746 0.06100
H 	H 	0.40690 0.40840 0.51890 0.00100
C 	C 	0.36138 0.41699 0.48237 0.06300
H 	H 	0.35110 0.41590 0.49300 -0.00100
C 	C 	0.36166 0.43460 0.47060 -0.10300
H 	H 	0.35190 0.44550 0.47310 0.06800
C 	C 	0.37667 0.43640 0.45470 0.00900
H 	H 	0.37710 0.44840 0.44590 0.03700
C 	C 	0.39076 0.42016 0.45217 -0.05200
C 	C 	0.38915 0.40269 0.46498 0.04200
H 	H 	0.39870 0.39150 0.46300 0.01100
C 	C 	0.40698 0.42092 0.43559 0.13500
C 	C 	0.42522 0.37389 0.49941 0.10800
N 	N 	0.26475 0.38308 0.59096 -0.22300
N 	N 	0.39301 0.47554 0.61285 -0.26100
N 	N 	0.34758 0.48449 0.62503 -0.22400
N 	N 	0.34418 0.43909 0.57960 -0.15100
N 	N 	0.30971 0.42975 0.58966 -0.15000
N 	N 	0.32613 0.41237 0.56113 -0.15100
N 	N 	0.37815 0.39925 0.52568 -0.22900
N 	N 	0.40762 0.37324 0.50119 -0.26400
N 	N 	0.37476 0.40103 0.47991 -0.22900
N 	N 	0.40572 0.43603 0.42169 -0.15200
S 	S 	0.42188 0.45537 0.58696 -0.05900
S 	S 	0.45072 0.37654 0.49784 -0.06200
C 	C 	0.78011 0.89742 0.59028 0.03300
H 	H 	0.78270 0.90560 0.60240 0.01400
C 	C 	0.79250 0.90086 0.57258 -0.04600
C 	C 	0.78862 0.88928 0.55477 0.00600
H 	H 	0.79700 0.89080 0.54260 0.03800
C 	C 	0.77190 0.87518 0.55514 -0.10000
H 	H 	0.76820 0.86760 0.54290 0.06600
C 	C 	0.76093 0.87242 0.57314 0.06100
H 	H 	0.74990 0.86240 0.57320 -0.00000
C 	C 	0.90467 0.96662 0.60226 0.09800
C 	C 	0.83157 0.98679 0.63852 0.05700
H 	H 	0.83290 0.99680 0.64940 -0.00000
C 	C 	0.81334 0.97538 0.63740 -0.09600
H 	H 	0.80220 0.97800 0.64690 0.06300
C 	C 	0.81142 0.95993 0.62221 0.00400
H 	H 	0.79930 0.95130 0.62160 0.03800
C 	C 	0.82774 0.95751 0.60790 -0.04500
C 	C 	0.84528 0.96999 0.60974 0.03100
H 	H 	0.85620 0.96830 0.59980 0.01700
C 	C 	0.82718 0.94123 0.59132 0.13400
C 	C 	0.81030 0.91539 0.57433 0.13300
C 	C 	0.84316 0.92411 0.56489 0.13300
C 	C 	0.86178 0.90399 0.53768 0.03900
H 	H 	0.84940 0.89580 0.53630 0.01200
C 	C 	0.86185 0.92048 0.55221 -0.05100
C 	C 	0.87960 0.93265 0.55411 0.00900
H 	H 	0.88030 0.94380 0.56400 0.03700
C 	C 	0.89642 0.92808 0.54109 -0.10000
H 	H 	0.90870 0.93640 0.54160 0.06700
C 	C 	0.89511 0.91140 0.52746 0.06100
H 	H 	0.90690 0.90840 0.51890 0.00100
C 	C 	0.86138 0.91699 0.48237 0.06300
H 	H 	0.85110 0.91590 0.49300 -0.00100
C 	C 	0.86166 0.93460 0.47060 -0.10300
H 	H 	0.85190 0.94550 0.47310 0.06800
C 	C 	0.87667 0.93640 0.45470 0.00900
H 	H 	0.87710 0.94840 0.44590 0.03700
C 	C 	0.89076 0.92016 0.45217 -0.05200
C 	C 	0.88915 0.90269 0.46498 0.04200
H 	H 	0.89870 0.89150 0.46300 0.01100
C 	C 	0.90698 0.92092 0.43559 0.13500
C 	C 	0.92522 0.87389 0.49941 0.10800
N 	N 	0.76475 0.88308 0.59096 -0.22300
N 	N 	0.89301 0.97554 0.61285 -0.26100
N 	N 	0.84758 0.98449 0.62503 -0.22400
N 	N 	0.84418 0.93909 0.57960 -0.15100
N 	N 	0.80971 0.92975 0.58966 -0.15000
N 	N 	0.82613 0.91237 0.56113 -0.15100
N 	N 	0.87815 0.89925 0.52568 -0.22900
N 	N 	0.90762 0.87324 0.50119 -0.26400
N 	N 	0.87476 0.90103 0.47991 -0.22900
N 	N 	0.90572 0.93603 0.42169 -0.15200
S 	S 	0.92188 0.95537 0.58696 -0.05900
S 	S 	0.95072 0.87654 0.49784 -0.06200
C 	C 	0.78011 0.39742 0.09028 0.03300
H 	H 	0.78270 0.40560 0.10240 0.01400
C 	C 	0.79250 0.40086 0.07258 -0.04600
C 	C 	0.78862 0.38928 0.05477 0.00600
H 	H 	0.79700 0.39080 0.04260 0.03800
C 	C 	0.77190 0.37518 0.05514 -0.10000
H 	H 	0.76820 0.36760 0.04290 0.06600
C 	C 	0.76093 0.37242 0.07314 0.06100
H 	H 	0.74990 0.36240 0.07320 -0.00000
C 	C 	0.90467 0.46662 0.10226 0.09800
C 	C 	0.83157 0.48679 0.13852 0.05700
H 	H 	0.83290 0.49680 0.14940 -0.00000
C 	C 	0.81334 0.47538 0.13740 -0.09600
H 	H 	0.80220 0.47800 0.14690 0.06300
C 	C 	0.81142 0.45993 0.12221 0.00400
H 	H 	0.79930 0.45130 0.12160 0.03800
C 	C 	0.82774 0.45751 0.10790 -0.04500
C 	C 	0.84528 0.46999 0.10974 0.03100
H 	H 	0.85620 0.46830 0.09980 0.01700
C 	C 	0.82718 0.44123 0.09132 0.13400
C 	C 	0.81030 0.41539 0.07433 0.13300
C 	C 	0.84316 0.42411 0.06489 0.13300
C 	C 	0.86178 0.40399 0.03768 0.03900
H 	H 	0.84940 0.39580 0.03630 0.01200
C 	C 	0.86185 0.42048 0.05221 -0.05100
C 	C 	0.87960 0.43265 0.05411 0.00900
H 	H 	0.88030 0.44380 0.06400 0.03700
C 	C 	0.89642 0.42808 0.04109 -0.10000
H 	H 	0.90870 0.43640 0.04160 0.06700
C 	C 	0.89511 0.41140 0.02746 0.06100
H 	H 	0.90690 0.40840 0.01890 0.00100
C 	C 	0.86138 0.41699 0.98237 0.06300
H 	H 	0.85110 0.41590 0.99300 -0.00100
C 	C 	0.86166 0.43460 0.97060 -0.10300
H 	H 	0.85190 0.44550 0.97310 0.06800
C 	C 	0.87667 0.43640 0.95470 0.00900
H 	H 	0.87710 0.44840 0.94590 0.03700
C 	C 	0.89076 0.42016 0.95217 -0.05200
C 	C 	0.88915 0.40269 0.96498 0.04200
H 	H 	0.89870 0.39150 0.96300 0.01100
C 	C 	0.90698 0.42092 0.93559 0.13500
C 	C 	0.92522 0.37389 0.99941 0.10800
N 	N 	0.76475 0.38308 0.09096 -0.22300
N 	N 	0.89301 0.47554 0.11285 -0.26100
N 	N 	0.84758 0.48449 0.12503 -0.22400
N 	N 	0.84418 0.43909 0.07960 -0.15100
N 	N 	0.80971 0.42975 0.08966 -0.15000
N 	N 	0.82613 0.41237 0.06113 -0.15100
N 	N 	0.87815 0.39925 0.02568 -0.22900
N 	N 	0.90762 0.37324 0.00119 -0.26400
N 	N 	0.87476 0.40103 0.97991 -0.22900
N 	N 	0.90572 0.43603 0.92169 -0.15200
S 	S 	0.92188 0.45537 0.08696 -0.05900
S 	S 	0.95072 0.37654 0.99784 -0.06200
C 	C 	0.59028 0.39742 0.78011 0.03300
H 	H 	0.60240 0.40560 0.78270 0.01400
C 	C 	0.57258 0.40086 0.79250 -0.04600
C 	C 	0.55477 0.38928 0.78862 0.00600
H 	H 	0.54260 0.39080 0.79700 0.03800
C 	C 	0.55514 0.37518 0.77190 -0.10000
H 	H 	0.54290 0.36760 0.76820 0.06600
C 	C 	0.57314 0.37242 0.76093 0.06100
H 	H 	0.57320 0.36240 0.74990 -0.00000
C 	C 	0.60226 0.46662 0.90467 0.09800
C 	C 	0.63852 0.48679 0.83157 0.05700
H 	H 	0.64940 0.49680 0.83290 -0.00000
C 	C 	0.63740 0.47538 0.81334 -0.09600
H 	H 	0.64690 0.47800 0.80220 0.06300
C 	C 	0.62221 0.45993 0.81142 0.00400
H 	H 	0.62160 0.45130 0.79930 0.03800
C 	C 	0.60790 0.45751 0.82774 -0.04500
C 	C 	0.60974 0.46999 0.84528 0.03100
H 	H 	0.59980 0.46830 0.85620 0.01700
C 	C 	0.59132 0.44123 0.82718 0.13400
C 	C 	0.57433 0.41539 0.81030 0.13300
C 	C 	0.56489 0.42411 0.84316 0.13300
C 	C 	0.53768 0.40399 0.86178 0.03900
H 	H 	0.53630 0.39580 0.84940 0.01200
C 	C 	0.55221 0.42048 0.86185 -0.05100
C 	C 	0.55411 0.43265 0.87960 0.00900
H 	H 	0.56400 0.44380 0.88030 0.03700
C 	C 	0.54109 0.42808 0.89642 -0.10000
H 	H 	0.54160 0.43640 0.90870 0.06700
C 	C 	0.52746 0.41140 0.89511 0.06100
H 	H 	0.51890 0.40840 0.90690 0.00100
C 	C 	0.48237 0.41699 0.86138 0.06300
H 	H 	0.49300 0.41590 0.85110 -0.00100
C 	C 	0.47060 0.43460 0.86166 -0.10300
H 	H 	0.47310 0.44550 0.85190 0.06800
C 	C 	0.45470 0.43640 0.87667 0.00900
H 	H 	0.44590 0.44840 0.87710 0.03700
C 	C 	0.45217 0.42016 0.89076 -0.05200
C 	C 	0.46498 0.40269 0.88915 0.04200
H 	H 	0.46300 0.39150 0.89870 0.01100
C 	C 	0.43559 0.42092 0.90698 0.13500
C 	C 	0.49941 0.37389 0.92522 0.10800
N 	N 	0.59096 0.38308 0.76475 -0.22300
N 	N 	0.61285 0.47554 0.89301 -0.26100
N 	N 	0.62503 0.48449 0.84758 -0.22400
N 	N 	0.57960 0.43909 0.84418 -0.15100
N 	N 	0.58966 0.42975 0.80971 -0.15000
N 	N 	0.56113 0.41237 0.82613 -0.15100
N 	N 	0.52568 0.39925 0.87815 -0.22900
N 	N 	0.50119 0.37324 0.90762 -0.26400
N 	N 	0.47991 0.40103 0.87476 -0.22900
N 	N 	0.42169 0.43603 0.90572 -0.15200
S 	S 	0.58696 0.45537 0.92188 -0.05900
S 	S 	0.49784 0.37654 0.95072 -0.06200
C 	C 	0.59028 0.89742 0.28011 0.03300
H 	H 	0.60240 0.90560 0.28270 0.01400
C 	C 	0.57258 0.90086 0.29250 -0.04600
C 	C 	0.55477 0.88928 0.28862 0.00600
H 	H 	0.54260 0.89080 0.29700 0.03800
C 	C 	0.55514 0.87518 0.27190 -0.10000
H 	H 	0.54290 0.86760 0.26820 0.06600
C 	C 	0.57314 0.87242 0.26093 0.06100
H 	H 	0.57320 0.86240 0.24990 -0.00000
C 	C 	0.60226 0.96662 0.40467 0.09800
C 	C 	0.63852 0.98679 0.33157 0.05700
H 	H 	0.64940 0.99680 0.33290 -0.00000
C 	C 	0.63740 0.97538 0.31334 -0.09600
H 	H 	0.64690 0.97800 0.30220 0.06300
C 	C 	0.62221 0.95993 0.31142 0.00400
H 	H 	0.62160 0.95130 0.29930 0.03800
C 	C 	0.60790 0.95751 0.32774 -0.04500
C 	C 	0.60974 0.96999 0.34528 0.03100
H 	H 	0.59980 0.96830 0.35620 0.01700
C 	C 	0.59132 0.94123 0.32718 0.13400
C 	C 	0.57433 0.91539 0.31030 0.13300
C 	C 	0.56489 0.92411 0.34316 0.13300
C 	C 	0.53768 0.90399 0.36178 0.03900
H 	H 	0.53630 0.89580 0.34940 0.01200
C 	C 	0.55221 0.92048 0.36185 -0.05100
C 	C 	0.55411 0.93265 0.37960 0.00900
H 	H 	0.56400 0.94380 0.38030 0.03700
C 	C 	0.54109 0.92808 0.39642 -0.10000
H 	H 	0.54160 0.93640 0.40870 0.06700
C 	C 	0.52746 0.91140 0.39511 0.06100
H 	H 	0.51890 0.90840 0.40690 0.00100
C 	C 	0.48237 0.91699 0.36138 0.06300
H 	H 	0.49300 0.91590 0.35110 -0.00100
C 	C 	0.47060 0.93460 0.36166 -0.10300
H 	H 	0.47310 0.94550 0.35190 0.06800
C 	C 	0.45470 0.93640 0.37667 0.00900
H 	H 	0.44590 0.94840 0.37710 0.03700
C 	C 	0.45217 0.92016 0.39076 -0.05200
C 	C 	0.46498 0.90269 0.38915 0.04200
H 	H 	0.46300 0.89150 0.39870 0.01100
C 	C 	0.43559 0.92092 0.40698 0.13500
C 	C 	0.49941 0.87389 0.42522 0.10800
N 	N 	0.59096 0.88308 0.26475 -0.22300
N 	N 	0.61285 0.97554 0.39301 -0.26100
N 	N 	0.62503 0.98449 0.34758 -0.22400
N 	N 	0.57960 0.93909 0.34418 -0.15100
N 	N 	0.58966 0.92975 0.30971 -0.15000
N 	N 	0.56113 0.91237 0.32613 -0.15100
N 	N 	0.52568 0.89925 0.37815 -0.22900
N 	N 	0.50119 0.87324 0.40762 -0.26400
N 	N 	0.47991 0.90103 0.37476 -0.22900
N 	N 	0.42169 0.93603 0.40572 -0.15200
S 	S 	0.58696 0.95537 0.42188 -0.05900
S 	S 	0.49784 0.87654 0.45072 -0.06200
C 	C 	0.09028 0.39742 0.28011 0.03300
H 	H 	0.10240 0.40560 0.28270 0.01400
C 	C 	0.07258 0.40086 0.29250 -0.04600
C 	C 	0.05477 0.38928 0.28862 0.00600
H 	H 	0.04260 0.39080 0.29700 0.03800
C 	C 	0.05514 0.37518 0.27190 -0.10000
H 	H 	0.04290 0.36760 0.26820 0.06600
C 	C 	0.07314 0.37242 0.26093 0.06100
H 	H 	0.07320 0.36240 0.24990 -0.00000
C 	C 	0.10226 0.46662 0.40467 0.09800
C 	C 	0.13852 0.48679 0.33157 0.05700
H 	H 	0.14940 0.49680 0.33290 -0.00000
C 	C 	0.13740 0.47538 0.31334 -0.09600
H 	H 	0.14690 0.47800 0.30220 0.06300
C 	C 	0.12221 0.45993 0.31142 0.00400
H 	H 	0.12160 0.45130 0.29930 0.03800
C 	C 	0.10790 0.45751 0.32774 -0.04500
C 	C 	0.10974 0.46999 0.34528 0.03100
H 	H 	0.09980 0.46830 0.35620 0.01700
C 	C 	0.09132 0.44123 0.32718 0.13400
C 	C 	0.07433 0.41539 0.31030 0.13300
C 	C 	0.06489 0.42411 0.34316 0.13300
C 	C 	0.03768 0.40399 0.36178 0.03900
H 	H 	0.03630 0.39580 0.34940 0.01200
C 	C 	0.05221 0.42048 0.36185 -0.05100
C 	C 	0.05411 0.43265 0.37960 0.00900
H 	H 	0.06400 0.44380 0.38030 0.03700
C 	C 	0.04109 0.42808 0.39642 -0.10000
H 	H 	0.04160 0.43640 0.40870 0.06700
C 	C 	0.02746 0.41140 0.39511 0.06100
H 	H 	0.01890 0.40840 0.40690 0.00100
C 	C 	0.98237 0.41699 0.36138 0.06300
H 	H 	0.99300 0.41590 0.35110 -0.00100
C 	C 	0.97060 0.43460 0.36166 -0.10300
H 	H 	0.97310 0.44550 0.35190 0.06800
C 	C 	0.95470 0.43640 0.37667 0.00900
H 	H 	0.94590 0.44840 0.37710 0.03700
C 	C 	0.95217 0.42016 0.39076 -0.05200
C 	C 	0.96498 0.40269 0.38915 0.04200
H 	H 	0.96300 0.39150 0.39870 0.01100
C 	C 	0.93559 0.42092 0.40698 0.13500
C 	C 	0.99941 0.37389 0.42522 0.10800
N 	N 	0.09096 0.38308 0.26475 -0.22300
N 	N 	0.11285 0.47554 0.39301 -0.26100
N 	N 	0.12503 0.48449 0.34758 -0.22400
N 	N 	0.07960 0.43909 0.34418 -0.15100
N 	N 	0.08966 0.42975 0.30971 -0.15000
N 	N 	0.06113 0.41237 0.32613 -0.15100
N 	N 	0.02568 0.39925 0.37815 -0.22900
N 	N 	0.00119 0.37324 0.40762 -0.26400
N 	N 	0.97991 0.40103 0.37476 -0.22900
N 	N 	0.92169 0.43603 0.40572 -0.15200
S 	S 	0.08696 0.45537 0.42188 -0.05900
S 	S 	0.99784 0.37654 0.45072 -0.06200
C 	C 	0.09028 0.89742 0.78011 0.03300
H 	H 	0.10240 0.90560 0.78270 0.01400
C 	C 	0.07258 0.90086 0.79250 -0.04600
C 	C 	0.05477 0.88928 0.78862 0.00600
H 	H 	0.04260 0.89080 0.79700 0.03800
C 	C 	0.05514 0.87518 0.77190 -0.10000
H 	H 	0.04290 0.86760 0.76820 0.06600
C 	C 	0.07314 0.87242 0.76093 0.06100
H 	H 	0.07320 0.86240 0.74990 -0.00000
C 	C 	0.10226 0.96662 0.90467 0.09800
C 	C 	0.13852 0.98679 0.83157 0.05700
H 	H 	0.14940 0.99680 0.83290 -0.00000
C 	C 	0.13740 0.97538 0.81334 -0.09600
H 	H 	0.14690 0.97800 0.80220 0.06300
C 	C 	0.12221 0.95993 0.81142 0.00400
H 	H 	0.12160 0.95130 0.79930 0.03800
C 	C 	0.10790 0.95751 0.82774 -0.04500
C 	C 	0.10974 0.96999 0.84528 0.03100
H 	H 	0.09980 0.96830 0.85620 0.01700
C 	C 	0.09132 0.94123 0.82718 0.13400
C 	C 	0.07433 0.91539 0.81030 0.13300
C 	C 	0.06489 0.92411 0.84316 0.13300
C 	C 	0.03768 0.90399 0.86178 0.03900
H 	H 	0.03630 0.89580 0.84940 0.01200
C 	C 	0.05221 0.92048 0.86185 -0.05100
C 	C 	0.05411 0.93265 0.87960 0.00900
H 	H 	0.06400 0.94380 0.88030 0.03700
C 	C 	0.04109 0.92808 0.89642 -0.10000
H 	H 	0.04160 0.93640 0.90870 0.06700
C 	C 	0.02746 0.91140 0.89511 0.06100
H 	H 	0.01890 0.90840 0.90690 0.00100
C 	C 	0.98237 0.91699 0.86138 0.06300
H 	H 	0.99300 0.91590 0.85110 -0.00100
C 	C 	0.97060 0.93460 0.86166 -0.10300
H 	H 	0.97310 0.94550 0.85190 0.06800
C 	C 	0.95470 0.93640 0.87667 0.00900
H 	H 	0.94590 0.94840 0.87710 0.03700
C 	C 	0.95217 0.92016 0.89076 -0.05200
C 	C 	0.96498 0.90269 0.88915 0.04200
H 	H 	0.96300 0.89150 0.89870 0.01100
C 	C 	0.93559 0.92092 0.90698 0.13500
C 	C 	0.99941 0.87389 0.92522 0.10800
N 	N 	0.09096 0.88308 0.76475 -0.22300
N 	N 	0.11285 0.97554 0.89301 -0.26100
N 	N 	0.12503 0.98449 0.84758 -0.22400
N 	N 	0.07960 0.93909 0.84418 -0.15100
N 	N 	0.08966 0.92975 0.80971 -0.15000
N 	N 	0.06113 0.91237 0.82613 -0.15100
N 	N 	0.02568 0.89925 0.87815 -0.22900
N 	N 	0.00119 0.87324 0.90762 -0.26400
N 	N 	0.97991 0.90103 0.87476 -0.22900
N 	N 	0.92169 0.93603 0.90572 -0.15200
S 	S 	0.08696 0.95537 0.92188 -0.05900
S 	S 	0.99784 0.87654 0.95072 -0.06200
C 	C 	0.15972 0.85258 0.28011 0.03300
H 	H 	0.14760 0.84440 0.28270 0.01400
C 	C 	0.17742 0.84914 0.29250 -0.04600
C 	C 	0.19523 0.86072 0.28862 0.00600
H 	H 	0.20740 0.85920 0.29700 0.03800
C 	C 	0.19486 0.87482 0.27190 -0.10000
H 	H 	0.20710 0.88240 0.26820 0.06600
C 	C 	0.17686 0.87758 0.26093 0.06100
H 	H 	0.17680 0.88760 0.24990 -0.00000
C 	C 	0.14774 0.78338 0.40467 0.09800
C 	C 	0.11148 0.76321 0.33157 0.05700
H 	H 	0.10060 0.75320 0.33290 -0.00000
C 	C 	0.11260 0.77462 0.31334 -0.09600
H 	H 	0.10310 0.77200 0.30220 0.06300
C 	C 	0.12779 0.79007 0.31142 0.00400
H 	H 	0.12840 0.79870 0.29930 0.03800
C 	C 	0.14210 0.79249 0.32774 -0.04500
C 	C 	0.14026 0.78001 0.34528 0.03100
H 	H 	0.15020 0.78170 0.35620 0.01700
C 	C 	0.15868 0.80877 0.32718 0.13400
C 	C 	0.17567 0.83461 0.31030 0.13300
C 	C 	0.18511 0.82589 0.34316 0.13300
C 	C 	0.21232 0.84601 0.36178 0.03900
H 	H 	0.21370 0.85420 0.34940 0.01200
C 	C 	0.19779 0.82952 0.36185 -0.05100
C 	C 	0.19589 0.81735 0.37960 0.00900
H 	H 	0.18600 0.80620 0.38030 0.03700
C 	C 	0.20891 0.82192 0.39642 -0.10000
H 	H 	0.20840 0.81360 0.40870 0.06700
C 	C 	0.22254 0.83860 0.39511 0.06100
H 	H 	0.23110 0.84160 0.40690 0.00100
C 	C 	0.26763 0.83301 0.36138 0.06300
H 	H 	0.25700 0.83410 0.35110 -0.00100
C 	C 	0.27940 0.81540 0.36166 -0.10300
H 	H 	0.27690 0.80450 0.35190 0.06800
C 	C 	0.29530 0.81360 0.37667 0.00900
H 	H 	0.30410 0.80160 0.37710 0.03700
C 	C 	0.29783 0.82984 0.39076 -0.05200
C 	C 	0.28502 0.84731 0.38915 0.04200
H 	H 	0.28700 0.85850 0.39870 0.01100
C 	C 	0.31441 0.82908 0.40698 0.13500
C 	C 	0.25059 0.87611 0.42522 0.10800
N 	N 	0.15904 0.86692 0.26475 -0.22300
N 	N 	0.13715 0.77446 0.39301 -0.26100
N 	N 	0.12497 0.76551 0.34758 -0.22400
N 	N 	0.17040 0.81091 0.34418 -0.15100
N 	N 	0.16034 0.82025 0.30971 -0.15000
N 	N 	0.18887 0.83763 0.32613 -0.15100
N 	N 	0.22432 0.85075 0.37815 -0.22900
N 	N 	0.24881 0.87676 0.40762 -0.26400
N 	N 	0.27009 0.84897 0.37476 -0.22900
N 	N 	0.32831 0.81397 0.40572 -0.15200
S 	S 	0.16304 0.79463 0.42188 -0.05900
S 	S 	0.25216 0.87346 0.45072 -0.06200
C 	C 	0.15972 0.35258 0.78011 0.03300
H 	H 	0.14760 0.34440 0.78270 0.01400
C 	C 	0.17742 0.34914 0.79250 -0.04600
C 	C 	0.19523 0.36072 0.78862 0.00600
H 	H 	0.20740 0.35920 0.79700 0.03800
C 	C 	0.19486 0.37482 0.77190 -0.10000
H 	H 	0.20710 0.38240 0.76820 0.06600
C 	C 	0.17686 0.37758 0.76093 0.06100
H 	H 	0.17680 0.38760 0.74990 -0.00000
C 	C 	0.14774 0.28338 0.90467 0.09800
C 	C 	0.11148 0.26321 0.83157 0.05700
H 	H 	0.10060 0.25320 0.83290 -0.00000
C 	C 	0.11260 0.27462 0.81334 -0.09600
H 	H 	0.10310 0.27200 0.80220 0.06300
C 	C 	0.12779 0.29007 0.81142 0.00400
H 	H 	0.12840 0.29870 0.79930 0.03800
C 	C 	0.14210 0.29249 0.82774 -0.04500
C 	C 	0.14026 0.28001 0.84528 0.03100
H 	H 	0.15020 0.28170 0.85620 0.01700
C 	C 	0.15868 0.30877 0.82718 0.13400
C 	C 	0.17567 0.33461 0.81030 0.13300
C 	C 	0.18511 0.32589 0.84316 0.13300
C 	C 	0.21232 0.34601 0.86178 0.03900
H 	H 	0.21370 0.35420 0.84940 0.01200
C 	C 	0.19779 0.32952 0.86185 -0.05100
C 	C 	0.19589 0.31735 0.87960 0.00900
H 	H 	0.18600 0.30620 0.88030 0.03700
C 	C 	0.20891 0.32192 0.89642 -0.10000
H 	H 	0.20840 0.31360 0.90870 0.06700
C 	C 	0.22254 0.33860 0.89511 0.06100
H 	H 	0.23110 0.34160 0.90690 0.00100
C 	C 	0.26763 0.33301 0.86138 0.06300
H 	H 	0.25700 0.33410 0.85110 -0.00100
C 	C 	0.27940 0.31540 0.86166 -0.10300
H 	H 	0.27690 0.30450 0.85190 0.06800
C 	C 	0.29530 0.31360 0.87667 0.00900
H 	H 	0.30410 0.30160 0.87710 0.03700
C 	C 	0.29783 0.32984 0.89076 -0.05200
C 	C 	0.28502 0.34731 0.88915 0.04200
H 	H 	0.28700 0.35850 0.89870 0.01100
C 	C 	0.31441 0.32908 0.90698 0.13500
C 	C 	0.25059 0.37611 0.92522 0.10800
N 	N 	0.15904 0.36692 0.76475 -0.22300
N 	N 	0.13715 0.27446 0.89301 -0.26100
N 	N 	0.12497 0.26551 0.84758 -0.22400
N 	N 	0.17040 0.31091 0.84418 -0.15100
N 	N 	0.16034 0.32025 0.80971 -0.15000
N 	N 	0.18887 0.33763 0.82613 -0.15100
N 	N 	0.22432 0.35075 0.87815 -0.22900
N 	N 	0.24881 0.37676 0.90762 -0.26400
N 	N 	0.27009 0.34897 0.87476 -0.22900
N 	N 	0.32831 0.31397 0.90572 -0.15200
S 	S 	0.16304 0.29463 0.92188 -0.05900
S 	S 	0.25216 0.37346 0.95072 -0.06200
C 	C 	0.65972 0.85258 0.78011 0.03300
H 	H 	0.64760 0.84440 0.78270 0.01400
C 	C 	0.67742 0.84914 0.79250 -0.04600
C 	C 	0.69523 0.86072 0.78862 0.00600
H 	H 	0.70740 0.85920 0.79700 0.03800
C 	C 	0.69486 0.87482 0.77190 -0.10000
H 	H 	0.70710 0.88240 0.76820 0.06600
C 	C 	0.67686 0.87758 0.76093 0.06100
H 	H 	0.67680 0.88760 0.74990 -0.00000
C 	C 	0.64774 0.78338 0.90467 0.09800
C 	C 	0.61148 0.76321 0.83157 0.05700
H 	H 	0.60060 0.75320 0.83290 -0.00000
C 	C 	0.61260 0.77462 0.81334 -0.09600
H 	H 	0.60310 0.77200 0.80220 0.06300
C 	C 	0.62779 0.79007 0.81142 0.00400
H 	H 	0.62840 0.79870 0.79930 0.03800
C 	C 	0.64210 0.79249 0.82774 -0.04500
C 	C 	0.64026 0.78001 0.84528 0.03100
H 	H 	0.65020 0.78170 0.85620 0.01700
C 	C 	0.65868 0.80877 0.82718 0.13400
C 	C 	0.67567 0.83461 0.81030 0.13300
C 	C 	0.68511 0.82589 0.84316 0.13300
C 	C 	0.71232 0.84601 0.86178 0.03900
H 	H 	0.71370 0.85420 0.84940 0.01200
C 	C 	0.69779 0.82952 0.86185 -0.05100
C 	C 	0.69589 0.81735 0.87960 0.00900
H 	H 	0.68600 0.80620 0.88030 0.03700
C 	C 	0.70891 0.82192 0.89642 -0.10000
H 	H 	0.70840 0.81360 0.90870 0.06700
C 	C 	0.72254 0.83860 0.89511 0.06100
H 	H 	0.73110 0.84160 0.90690 0.00100
C 	C 	0.76763 0.83301 0.86138 0.06300
H 	H 	0.75700 0.83410 0.85110 -0.00100
C 	C 	0.77940 0.81540 0.86166 -0.10300
H 	H 	0.77690 0.80450 0.85190 0.06800
C 	C 	0.79530 0.81360 0.87667 0.00900
H 	H 	0.80410 0.80160 0.87710 0.03700
C 	C 	0.79783 0.82984 0.89076 -0.05200
C 	C 	0.78502 0.84731 0.88915 0.04200
H 	H 	0.78700 0.85850 0.89870 0.01100
C 	C 	0.81441 0.82908 0.90698 0.13500
C 	C 	0.75059 0.87611 0.92522 0.10800
N 	N 	0.65904 0.86692 0.76475 -0.22300
N 	N 	0.63715 0.77446 0.89301 -0.26100
N 	N 	0.62497 0.76551 0.84758 -0.22400
N 	N 	0.67040 0.81091 0.84418 -0.15100
N 	N 	0.66034 0.82025 0.80971 -0.15000
N 	N 	0.68887 0.83763 0.82613 -0.15100
N 	N 	0.72432 0.85075 0.87815 -0.22900
N 	N 	0.74881 0.87676 0.90762 -0.26400
N 	N 	0.77009 0.84897 0.87476 -0.22900
N 	N 	0.82831 0.81397 0.90572 -0.15200
S 	S 	0.66304 0.79463 0.92188 -0.05900
S 	S 	0.75216 0.87346 0.95072 -0.06200
C 	C 	0.65972 0.35258 0.28011 0.03300
H 	H 	0.64760 0.34440 0.28270 0.01400
C 	C 	0.67742 0.34914 0.29250 -0.04600
C 	C 	0.69523 0.36072 0.28862 0.00600
H 	H 	0.70740 0.35920 0.29700 0.03800
C 	C 	0.69486 0.37482 0.27190 -0.10000
H 	H 	0.70710 0.38240 0.26820 0.06600
C 	C 	0.67686 0.37758 0.26093 0.06100
H 	H 	0.67680 0.38760 0.24990 -0.00000
C 	C 	0.64774 0.28338 0.40467 0.09800
C 	C 	0.61148 0.26321 0.33157 0.05700
H 	H 	0.60060 0.25320 0.33290 -0.00000
C 	C 	0.61260 0.27462 0.31334 -0.09600
H 	H 	0.60310 0.27200 0.30220 0.06300
C 	C 	0.62779 0.29007 0.31142 0.00400
H 	H 	0.62840 0.29870 0.29930 0.03800
C 	C 	0.64210 0.29249 0.32774 -0.04500
C 	C 	0.64026 0.28001 0.34528 0.03100
H 	H 	0.65020 0.28170 0.35620 0.01700
C 	C 	0.65868 0.30877 0.32718 0.13400
C 	C 	0.67567 0.33461 0.31030 0.13300
C 	C 	0.68511 0.32589 0.34316 0.13300
C 	C 	0.71232 0.34601 0.36178 0.03900
H 	H 	0.71370 0.35420 0.34940 0.01200
C 	C 	0.69779 0.32952 0.36185 -0.05100
C 	C 	0.69589 0.31735 0.37960 0.00900
H 	H 	0.68600 0.30620 0.38030 0.03700
C 	C 	0.70891 0.32192 0.39642 -0.10000
H 	H 	0.70840 0.31360 0.40870 0.06700
C 	C 	0.72254 0.33860 0.39511 0.06100
H 	H 	0.73110 0.34160 0.40690 0.00100
C 	C 	0.76763 0.33301 0.36138 0.06300
H 	H 	0.75700 0.33410 0.35110 -0.00100
C 	C 	0.77940 0.31540 0.36166 -0.10300
H 	H 	0.77690 0.30450 0.35190 0.06800
C 	C 	0.79530 0.31360 0.37667 0.00900
H 	H 	0.80410 0.30160 0.37710 0.03700
C 	C 	0.79783 0.32984 0.39076 -0.05200
C 	C 	0.78502 0.34731 0.38915 0.04200
H 	H 	0.78700 0.35850 0.39870 0.01100
C 	C 	0.81441 0.32908 0.40698 0.13500
C 	C 	0.75059 0.37611 0.42522 0.10800
N 	N 	0.65904 0.36692 0.26475 -0.22300
N 	N 	0.63715 0.27446 0.39301 -0.26100
N 	N 	0.62497 0.26551 0.34758 -0.22400
N 	N 	0.67040 0.31091 0.34418 -0.15100
N 	N 	0.66034 0.32025 0.30971 -0.15000
N 	N 	0.68887 0.33763 0.32613 -0.15100
N 	N 	0.72432 0.35075 0.37815 -0.22900
N 	N 	0.74881 0.37676 0.40762 -0.26400
N 	N 	0.77009 0.34897 0.37476 -0.22900
N 	N 	0.82831 0.31397 0.40572 -0.15200
S 	S 	0.66304 0.29463 0.42188 -0.05900
S 	S 	0.75216 0.37346 0.45072 -0.06200
C 	C 	0.65972 0.89742 0.96989 0.03300
H 	H 	0.64760 0.90560 0.96730 0.01400
C 	C 	0.67742 0.90086 0.95750 -0.04600
C 	C 	0.69523 0.88928 0.96138 0.00600
H 	H 	0.70740 0.89080 0.95300 0.03800
C 	C 	0.69486 0.87518 0.97810 -0.10000
H 	H 	0.70710 0.86760 0.98180 0.06600
C 	C 	0.67686 0.87242 0.98907 0.06100
H 	H 	0.67680 0.86240 0.00010 -0.00000
C 	C 	0.64774 0.96662 0.84533 0.09800
C 	C 	0.61148 0.98679 0.91843 0.05700
H 	H 	0.60060 0.99680 0.91710 -0.00000
C 	C 	0.61260 0.97538 0.93666 -0.09600
H 	H 	0.60310 0.97800 0.94780 0.06300
C 	C 	0.62779 0.95993 0.93858 0.00400
H 	H 	0.62840 0.95130 0.95070 0.03800
C 	C 	0.64210 0.95751 0.92226 -0.04500
C 	C 	0.64026 0.96999 0.90472 0.03100
H 	H 	0.65020 0.96830 0.89380 0.01700
C 	C 	0.65868 0.94123 0.92282 0.13400
C 	C 	0.67567 0.91539 0.93970 0.13300
C 	C 	0.68511 0.92411 0.90684 0.13300
C 	C 	0.71232 0.90399 0.88822 0.03900
H 	H 	0.71370 0.89580 0.90060 0.01200
C 	C 	0.69779 0.92048 0.88815 -0.05100
C 	C 	0.69589 0.93265 0.87040 0.00900
H 	H 	0.68600 0.94380 0.86970 0.03700
C 	C 	0.70891 0.92808 0.85358 -0.10000
H 	H 	0.70840 0.93640 0.84130 0.06700
C 	C 	0.72254 0.91140 0.85489 0.06100
H 	H 	0.73110 0.90840 0.84310 0.00100
C 	C 	0.76763 0.91699 0.88862 0.06300
H 	H 	0.75700 0.91590 0.89890 -0.00100
C 	C 	0.77940 0.93460 0.88834 -0.10300
H 	H 	0.77690 0.94550 0.89810 0.06800
C 	C 	0.79530 0.93640 0.87333 0.00900
H 	H 	0.80410 0.94840 0.87290 0.03700
C 	C 	0.79783 0.92016 0.85924 -0.05200
C 	C 	0.78502 0.90269 0.86085 0.04200
H 	H 	0.78700 0.89150 0.85130 0.01100
C 	C 	0.81441 0.92092 0.84302 0.13500
C 	C 	0.75059 0.87389 0.82478 0.10800
N 	N 	0.65904 0.88308 0.98525 -0.22300
N 	N 	0.63715 0.97554 0.85699 -0.26100
N 	N 	0.62497 0.98449 0.90242 -0.22400
N 	N 	0.67040 0.93909 0.90582 -0.15100
N 	N 	0.66034 0.92975 0.94029 -0.15000
N 	N 	0.68887 0.91237 0.92387 -0.15100
N 	N 	0.72432 0.89925 0.87185 -0.22900
N 	N 	0.74881 0.87324 0.84238 -0.26400
N 	N 	0.77009 0.90103 0.87524 -0.22900
N 	N 	0.82831 0.93603 0.84428 -0.15200
S 	S 	0.66304 0.95537 0.82812 -0.05900
S 	S 	0.75216 0.87654 0.79928 -0.06200
C 	C 	0.65972 0.39742 0.46989 0.03300
H 	H 	0.64760 0.40560 0.46730 0.01400
C 	C 	0.67742 0.40086 0.45750 -0.04600
C 	C 	0.69523 0.38928 0.46138 0.00600
H 	H 	0.70740 0.39080 0.45300 0.03800
C 	C 	0.69486 0.37518 0.47810 -0.10000
H 	H 	0.70710 0.36760 0.48180 0.06600
C 	C 	0.67686 0.37242 0.48907 0.06100
H 	H 	0.67680 0.36240 0.50010 -0.00000
C 	C 	0.64774 0.46662 0.34533 0.09800
C 	C 	0.61148 0.48679 0.41843 0.05700
H 	H 	0.60060 0.49680 0.41710 -0.00000
C 	C 	0.61260 0.47538 0.43666 -0.09600
H 	H 	0.60310 0.47800 0.44780 0.06300
C 	C 	0.62779 0.45993 0.43858 0.00400
H 	H 	0.62840 0.45130 0.45070 0.03800
C 	C 	0.64210 0.45751 0.42226 -0.04500
C 	C 	0.64026 0.46999 0.40472 0.03100
H 	H 	0.65020 0.46830 0.39380 0.01700
C 	C 	0.65868 0.44123 0.42282 0.13400
C 	C 	0.67567 0.41539 0.43970 0.13300
C 	C 	0.68511 0.42411 0.40684 0.13300
C 	C 	0.71232 0.40399 0.38822 0.03900
H 	H 	0.71370 0.39580 0.40060 0.01200
C 	C 	0.69779 0.42048 0.38815 -0.05100
C 	C 	0.69589 0.43265 0.37040 0.00900
H 	H 	0.68600 0.44380 0.36970 0.03700
C 	C 	0.70891 0.42808 0.35358 -0.10000
H 	H 	0.70840 0.43640 0.34130 0.06700
C 	C 	0.72254 0.41140 0.35489 0.06100
H 	H 	0.73110 0.40840 0.34310 0.00100
C 	C 	0.76763 0.41699 0.38862 0.06300
H 	H 	0.75700 0.41590 0.39890 -0.00100
C 	C 	0.77940 0.43460 0.38834 -0.10300
H 	H 	0.77690 0.44550 0.39810 0.06800
C 	C 	0.79530 0.43640 0.37333 0.00900
H 	H 	0.80410 0.44840 0.37290 0.03700
C 	C 	0.79783 0.42016 0.35924 -0.05200
C 	C 	0.78502 0.40269 0.36085 0.04200
H 	H 	0.78700 0.39150 0.35130 0.01100
C 	C 	0.81441 0.42092 0.34302 0.13500
C 	C 	0.75059 0.37389 0.32478 0.10800
N 	N 	0.65904 0.38308 0.48525 -0.22300
N 	N 	0.63715 0.47554 0.35699 -0.26100
N 	N 	0.62497 0.48449 0.40242 -0.22400
N 	N 	0.67040 0.43909 0.40582 -0.15100
N 	N 	0.66034 0.42975 0.44029 -0.15000
N 	N 	0.68887 0.41237 0.42387 -0.15100
N 	N 	0.72432 0.39925 0.37185 -0.22900
N 	N 	0.74881 0.37324 0.34238 -0.26400
N 	N 	0.77009 0.40103 0.37524 -0.22900
N 	N 	0.82831 0.43603 0.34428 -0.15200
S 	S 	0.66304 0.45537 0.32812 -0.05900
S 	S 	0.75216 0.37654 0.29928 -0.06200
C 	C 	0.15972 0.89742 0.46989 0.03300
H 	H 	0.14760 0.90560 0.46730 0.01400
C 	C 	0.17742 0.90086 0.45750 -0.04600
C 	C 	0.19523 0.88928 0.46138 0.00600
H 	H 	0.20740 0.89080 0.45300 0.03800
C 	C 	0.19486 0.87518 0.47810 -0.10000
H 	H 	0.20710 0.86760 0.48180 0.06600
C 	C 	0.17686 0.87242 0.48907 0.06100
H 	H 	0.17680 0.86240 0.50010 -0.00000
C 	C 	0.14774 0.96662 0.34533 0.09800
C 	C 	0.11148 0.98679 0.41843 0.05700
H 	H 	0.10060 0.99680 0.41710 -0.00000
C 	C 	0.11260 0.97538 0.43666 -0.09600
H 	H 	0.10310 0.97800 0.44780 0.06300
C 	C 	0.12779 0.95993 0.43858 0.00400
H 	H 	0.12840 0.95130 0.45070 0.03800
C 	C 	0.14210 0.95751 0.42226 -0.04500
C 	C 	0.14026 0.96999 0.40472 0.03100
H 	H 	0.15020 0.96830 0.39380 0.01700
C 	C 	0.15868 0.94123 0.42282 0.13400
C 	C 	0.17567 0.91539 0.43970 0.13300
C 	C 	0.18511 0.92411 0.40684 0.13300
C 	C 	0.21232 0.90399 0.38822 0.03900
H 	H 	0.21370 0.89580 0.40060 0.01200
C 	C 	0.19779 0.92048 0.38815 -0.05100
C 	C 	0.19589 0.93265 0.37040 0.00900
H 	H 	0.18600 0.94380 0.36970 0.03700
C 	C 	0.20891 0.92808 0.35358 -0.10000
H 	H 	0.20840 0.93640 0.34130 0.06700
C 	C 	0.22254 0.91140 0.35489 0.06100
H 	H 	0.23110 0.90840 0.34310 0.00100
C 	C 	0.26763 0.91699 0.38862 0.06300
H 	H 	0.25700 0.91590 0.39890 -0.00100
C 	C 	0.27940 0.93460 0.38834 -0.10300
H 	H 	0.27690 0.94550 0.39810 0.06800
C 	C 	0.29530 0.93640 0.37333 0.00900
H 	H 	0.30410 0.94840 0.37290 0.03700
C 	C 	0.29783 0.92016 0.35924 -0.05200
C 	C 	0.28502 0.90269 0.36085 0.04200
H 	H 	0.28700 0.89150 0.35130 0.01100
C 	C 	0.31441 0.92092 0.34302 0.13500
C 	C 	0.25059 0.87389 0.32478 0.10800
N 	N 	0.15904 0.88308 0.48525 -0.22300
N 	N 	0.13715 0.97554 0.35699 -0.26100
N 	N 	0.12497 0.98449 0.40242 -0.22400
N 	N 	0.17040 0.93909 0.40582 -0.15100
N 	N 	0.16034 0.92975 0.44029 -0.15000
N 	N 	0.18887 0.91237 0.42387 -0.15100
N 	N 	0.22432 0.89925 0.37185 -0.22900
N 	N 	0.24881 0.87324 0.34238 -0.26400
N 	N 	0.27009 0.90103 0.37524 -0.22900
N 	N 	0.32831 0.93603 0.34428 -0.15200
S 	S 	0.16304 0.95537 0.32812 -0.05900
S 	S 	0.25216 0.87654 0.29928 -0.06200
C 	C 	0.15972 0.39742 0.96989 0.03300
H 	H 	0.14760 0.40560 0.96730 0.01400
C 	C 	0.17742 0.40086 0.95750 -0.04600
C 	C 	0.19523 0.38928 0.96138 0.00600
H 	H 	0.20740 0.39080 0.95300 0.03800
C 	C 	0.19486 0.37518 0.97810 -0.10000
H 	H 	0.20710 0.36760 0.98180 0.06600
C 	C 	0.17686 0.37242 0.98907 0.06100
H 	H 	0.17680 0.36240 0.00010 -0.00000
C 	C 	0.14774 0.46662 0.84533 0.09800
C 	C 	0.11148 0.48679 0.91843 0.05700
H 	H 	0.10060 0.49680 0.91710 -0.00000
C 	C 	0.11260 0.47538 0.93666 -0.09600
H 	H 	0.10310 0.47800 0.94780 0.06300
C 	C 	0.12779 0.45993 0.93858 0.00400
H 	H 	0.12840 0.45130 0.95070 0.03800
C 	C 	0.14210 0.45751 0.92226 -0.04500
C 	C 	0.14026 0.46999 0.90472 0.03100
H 	H 	0.15020 0.46830 0.89380 0.01700
C 	C 	0.15868 0.44123 0.92282 0.13400
C 	C 	0.17567 0.41539 0.93970 0.13300
C 	C 	0.18511 0.42411 0.90684 0.13300
C 	C 	0.21232 0.40399 0.88822 0.03900
H 	H 	0.21370 0.39580 0.90060 0.01200
C 	C 	0.19779 0.42048 0.88815 -0.05100
C 	C 	0.19589 0.43265 0.87040 0.00900
H 	H 	0.18600 0.44380 0.86970 0.03700
C 	C 	0.20891 0.42808 0.85358 -0.10000
H 	H 	0.20840 0.43640 0.84130 0.06700
C 	C 	0.22254 0.41140 0.85489 0.06100
H 	H 	0.23110 0.40840 0.84310 0.00100
C 	C 	0.26763 0.41699 0.88862 0.06300
H 	H 	0.25700 0.41590 0.89890 -0.00100
C 	C 	0.27940 0.43460 0.88834 -0.10300
H 	H 	0.27690 0.44550 0.89810 0.06800
C 	C 	0.29530 0.43640 0.87333 0.00900
H 	H 	0.30410 0.44840 0.87290 0.03700
C 	C 	0.29783 0.42016 0.85924 -0.05200
C 	C 	0.28502 0.40269 0.86085 0.04200
H 	H 	0.28700 0.39150 0.85130 0.01100
C 	C 	0.31441 0.42092 0.84302 0.13500
C 	C 	0.25059 0.37389 0.82478 0.10800
N 	N 	0.15904 0.38308 0.98525 -0.22300
N 	N 	0.13715 0.47554 0.85699 -0.26100
N 	N 	0.12497 0.48449 0.90242 -0.22400
N 	N 	0.17040 0.43909 0.90582 -0.15100
N 	N 	0.16034 0.42975 0.94029 -0.15000
N 	N 	0.18887 0.41237 0.92387 -0.15100
N 	N 	0.22432 0.39925 0.87185 -0.22900
N 	N 	0.24881 0.37324 0.84238 -0.26400
N 	N 	0.27009 0.40103 0.87524 -0.22900
N 	N 	0.32831 0.43603 0.84428 -0.15200
S 	S 	0.16304 0.45537 0.82812 -0.05900
S 	S 	0.25216 0.37654 0.79928 -0.06200
C 	C 	0.09028 0.35258 0.46989 0.03300
H 	H 	0.10240 0.34440 0.46730 0.01400
C 	C 	0.07258 0.34914 0.45750 -0.04600
C 	C 	0.05477 0.36072 0.46138 0.00600
H 	H 	0.04260 0.35920 0.45300 0.03800
C 	C 	0.05514 0.37482 0.47810 -0.10000
H 	H 	0.04290 0.38240 0.48180 0.06600
C 	C 	0.07314 0.37758 0.48907 0.06100
H 	H 	0.07320 0.38760 0.50010 -0.00000
C 	C 	0.10226 0.28338 0.34533 0.09800
C 	C 	0.13852 0.26321 0.41843 0.05700
H 	H 	0.14940 0.25320 0.41710 -0.00000
C 	C 	0.13740 0.27462 0.43666 -0.09600
H 	H 	0.14690 0.27200 0.44780 0.06300
C 	C 	0.12221 0.29007 0.43858 0.00400
H 	H 	0.12160 0.29870 0.45070 0.03800
C 	C 	0.10790 0.29249 0.42226 -0.04500
C 	C 	0.10974 0.28001 0.40472 0.03100
H 	H 	0.09980 0.28170 0.39380 0.01700
C 	C 	0.09132 0.30877 0.42282 0.13400
C 	C 	0.07433 0.33461 0.43970 0.13300
C 	C 	0.06489 0.32589 0.40684 0.13300
C 	C 	0.03768 0.34601 0.38822 0.03900
H 	H 	0.03630 0.35420 0.40060 0.01200
C 	C 	0.05221 0.32952 0.38815 -0.05100
C 	C 	0.05411 0.31735 0.37040 0.00900
H 	H 	0.06400 0.30620 0.36970 0.03700
C 	C 	0.04109 0.32192 0.35358 -0.10000
H 	H 	0.04160 0.31360 0.34130 0.06700
C 	C 	0.02746 0.33860 0.35489 0.06100
H 	H 	0.01890 0.34160 0.34310 0.00100
C 	C 	0.98237 0.33301 0.38862 0.06300
H 	H 	0.99300 0.33410 0.39890 -0.00100
C 	C 	0.97060 0.31540 0.38834 -0.10300
H 	H 	0.97310 0.30450 0.39810 0.06800
C 	C 	0.95470 0.31360 0.37333 0.00900
H 	H 	0.94590 0.30160 0.37290 0.03700
C 	C 	0.95217 0.32984 0.35924 -0.05200
C 	C 	0.96498 0.34731 0.36085 0.04200
H 	H 	0.96300 0.35850 0.35130 0.01100
C 	C 	0.93559 0.32908 0.34302 0.13500
C 	C 	0.99941 0.37611 0.32478 0.10800
N 	N 	0.09096 0.36692 0.48525 -0.22300
N 	N 	0.11285 0.27446 0.35699 -0.26100
N 	N 	0.12503 0.26551 0.40242 -0.22400
N 	N 	0.07960 0.31091 0.40582 -0.15100
N 	N 	0.08966 0.32025 0.44029 -0.15000
N 	N 	0.06113 0.33763 0.42387 -0.15100
N 	N 	0.02568 0.35075 0.37185 -0.22900
N 	N 	0.00119 0.37676 0.34238 -0.26400
N 	N 	0.97991 0.34897 0.37524 -0.22900
N 	N 	0.92169 0.31397 0.34428 -0.15200
S 	S 	0.08696 0.29463 0.32812 -0.05900
S 	S 	0.99784 0.37346 0.29928 -0.06200
C 	C 	0.09028 0.85258 0.96989 0.03300
H 	H 	0.10240 0.84440 0.96730 0.01400
C 	C 	0.07258 0.84914 0.95750 -0.04600
C 	C 	0.05477 0.86072 0.96138 0.00600
H 	H 	0.04260 0.85920 0.95300 0.03800
C 	C 	0.05514 0.87482 0.97810 -0.10000
H 	H 	0.04290 0.88240 0.98180 0.06600
C 	C 	0.07314 0.87758 0.98907 0.06100
H 	H 	0.07320 0.88760 0.00010 -0.00000
C 	C 	0.10226 0.78338 0.84533 0.09800
C 	C 	0.13852 0.76321 0.91843 0.05700
H 	H 	0.14940 0.75320 0.91710 -0.00000
C 	C 	0.13740 0.77462 0.93666 -0.09600
H 	H 	0.14690 0.77200 0.94780 0.06300
C 	C 	0.12221 0.79007 0.93858 0.00400
H 	H 	0.12160 0.79870 0.95070 0.03800
C 	C 	0.10790 0.79249 0.92226 -0.04500
C 	C 	0.10974 0.78001 0.90472 0.03100
H 	H 	0.09980 0.78170 0.89380 0.01700
C 	C 	0.09132 0.80877 0.92282 0.13400
C 	C 	0.07433 0.83461 0.93970 0.13300
C 	C 	0.06489 0.82589 0.90684 0.13300
C 	C 	0.03768 0.84601 0.88822 0.03900
H 	H 	0.03630 0.85420 0.90060 0.01200
C 	C 	0.05221 0.82952 0.88815 -0.05100
C 	C 	0.05411 0.81735 0.87040 0.00900
H 	H 	0.06400 0.80620 0.86970 0.03700
C 	C 	0.04109 0.82192 0.85358 -0.10000
H 	H 	0.04160 0.81360 0.84130 0.06700
C 	C 	0.02746 0.83860 0.85489 0.06100
H 	H 	0.01890 0.84160 0.84310 0.00100
C 	C 	0.98237 0.83301 0.88862 0.06300
H 	H 	0.99300 0.83410 0.89890 -0.00100
C 	C 	0.97060 0.81540 0.88834 -0.10300
H 	H 	0.97310 0.80450 0.89810 0.06800
C 	C 	0.95470 0.81360 0.87333 0.00900
H 	H 	0.94590 0.80160 0.87290 0.03700
C 	C 	0.95217 0.82984 0.85924 -0.05200
C 	C 	0.96498 0.84731 0.86085 0.04200
H 	H 	0.96300 0.85850 0.85130 0.01100
C 	C 	0.93559 0.82908 0.84302 0.13500
C 	C 	0.99941 0.87611 0.82478 0.10800
N 	N 	0.09096 0.86692 0.98525 -0.22300
N 	N 	0.11285 0.77446 0.85699 -0.26100
N 	N 	0.12503 0.76551 0.90242 -0.22400
N 	N 	0.07960 0.81091 0.90582 -0.15100
N 	N 	0.08966 0.82025 0.94029 -0.15000
N 	N 	0.06113 0.83763 0.92387 -0.15100
N 	N 	0.02568 0.85075 0.87185 -0.22900
N 	N 	0.00119 0.87676 0.84238 -0.26400
N 	N 	0.97991 0.84897 0.87524 -0.22900
N 	N 	0.92169 0.81397 0.84428 -0.15200
S 	S 	0.08696 0.79463 0.82812 -0.05900
S 	S 	0.99784 0.87346 0.79928 -0.06200
C 	C 	0.59028 0.35258 0.96989 0.03300
H 	H 	0.60240 0.34440 0.96730 0.01400
C 	C 	0.57258 0.34914 0.95750 -0.04600
C 	C 	0.55477 0.36072 0.96138 0.00600
H 	H 	0.54260 0.35920 0.95300 0.03800
C 	C 	0.55514 0.37482 0.97810 -0.10000
H 	H 	0.54290 0.38240 0.98180 0.06600
C 	C 	0.57314 0.37758 0.98907 0.06100
H 	H 	0.57320 0.38760 0.00010 -0.00000
C 	C 	0.60226 0.28338 0.84533 0.09800
C 	C 	0.63852 0.26321 0.91843 0.05700
H 	H 	0.64940 0.25320 0.91710 -0.00000
C 	C 	0.63740 0.27462 0.93666 -0.09600
H 	H 	0.64690 0.27200 0.94780 0.06300
C 	C 	0.62221 0.29007 0.93858 0.00400
H 	H 	0.62160 0.29870 0.95070 0.03800
C 	C 	0.60790 0.29249 0.92226 -0.04500
C 	C 	0.60974 0.28001 0.90472 0.03100
H 	H 	0.59980 0.28170 0.89380 0.01700
C 	C 	0.59132 0.30877 0.92282 0.13400
C 	C 	0.57433 0.33461 0.93970 0.13300
C 	C 	0.56489 0.32589 0.90684 0.13300
C 	C 	0.53768 0.34601 0.88822 0.03900
H 	H 	0.53630 0.35420 0.90060 0.01200
C 	C 	0.55221 0.32952 0.88815 -0.05100
C 	C 	0.55411 0.31735 0.87040 0.00900
H 	H 	0.56400 0.30620 0.86970 0.03700
C 	C 	0.54109 0.32192 0.85358 -0.10000
H 	H 	0.54160 0.31360 0.84130 0.06700
C 	C 	0.52746 0.33860 0.85489 0.06100
H 	H 	0.51890 0.34160 0.84310 0.00100
C 	C 	0.48237 0.33301 0.88862 0.06300
H 	H 	0.49300 0.33410 0.89890 -0.00100
C 	C 	0.47060 0.31540 0.88834 -0.10300
H 	H 	0.47310 0.30450 0.89810 0.06800
C 	C 	0.45470 0.31360 0.87333 0.00900
H 	H 	0.44590 0.30160 0.87290 0.03700
C 	C 	0.45217 0.32984 0.85924 -0.05200
C 	C 	0.46498 0.34731 0.86085 0.04200
H 	H 	0.46300 0.35850 0.85130 0.01100
C 	C 	0.43559 0.32908 0.84302 0.13500
C 	C 	0.49941 0.37611 0.82478 0.10800
N 	N 	0.59096 0.36692 0.98525 -0.22300
N 	N 	0.61285 0.27446 0.85699 -0.26100
N 	N 	0.62503 0.26551 0.90242 -0.22400
N 	N 	0.57960 0.31091 0.90582 -0.15100
N 	N 	0.58966 0.32025 0.94029 -0.15000
N 	N 	0.56113 0.33763 0.92387 -0.15100
N 	N 	0.52568 0.35075 0.87185 -0.22900
N 	N 	0.50119 0.37676 0.84238 -0.26400
N 	N 	0.47991 0.34897 0.87524 -0.22900
N 	N 	0.42169 0.31397 0.84428 -0.15200
S 	S 	0.58696 0.29463 0.82812 -0.05900
S 	S 	0.49784 0.37346 0.79928 -0.06200
C 	C 	0.59028 0.85258 0.46989 0.03300
H 	H 	0.60240 0.84440 0.46730 0.01400
C 	C 	0.57258 0.84914 0.45750 -0.04600
C 	C 	0.55477 0.86072 0.46138 0.00600
H 	H 	0.54260 0.85920 0.45300 0.03800
C 	C 	0.55514 0.87482 0.47810 -0.10000
H 	H 	0.54290 0.88240 0.48180 0.06600
C 	C 	0.57314 0.87758 0.48907 0.06100
H 	H 	0.57320 0.88760 0.50010 -0.00000
C 	C 	0.60226 0.78338 0.34533 0.09800
C 	C 	0.63852 0.76321 0.41843 0.05700
H 	H 	0.64940 0.75320 0.41710 -0.00000
C 	C 	0.63740 0.77462 0.43666 -0.09600
H 	H 	0.64690 0.77200 0.44780 0.06300
C 	C 	0.62221 0.79007 0.43858 0.00400
H 	H 	0.62160 0.79870 0.45070 0.03800
C 	C 	0.60790 0.79249 0.42226 -0.04500
C 	C 	0.60974 0.78001 0.40472 0.03100
H 	H 	0.59980 0.78170 0.39380 0.01700
C 	C 	0.59132 0.80877 0.42282 0.13400
C 	C 	0.57433 0.83461 0.43970 0.13300
C 	C 	0.56489 0.82589 0.40684 0.13300
C 	C 	0.53768 0.84601 0.38822 0.03900
H 	H 	0.53630 0.85420 0.40060 0.01200
C 	C 	0.55221 0.82952 0.38815 -0.05100
C 	C 	0.55411 0.81735 0.37040 0.00900
H 	H 	0.56400 0.80620 0.36970 0.03700
C 	C 	0.54109 0.82192 0.35358 -0.10000
H 	H 	0.54160 0.81360 0.34130 0.06700
C 	C 	0.52746 0.83860 0.35489 0.06100
H 	H 	0.51890 0.84160 0.34310 0.00100
C 	C 	0.48237 0.83301 0.38862 0.06300
H 	H 	0.49300 0.83410 0.39890 -0.00100
C 	C 	0.47060 0.81540 0.38834 -0.10300
H 	H 	0.47310 0.80450 0.39810 0.06800
C 	C 	0.45470 0.81360 0.37333 0.00900
H 	H 	0.44590 0.80160 0.37290 0.03700
C 	C 	0.45217 0.82984 0.35924 -0.05200
C 	C 	0.46498 0.84731 0.36085 0.04200
H 	H 	0.46300 0.85850 0.35130 0.01100
C 	C 	0.43559 0.82908 0.34302 0.13500
C 	C 	0.49941 0.87611 0.32478 0.10800
N 	N 	0.59096 0.86692 0.48525 -0.22300
N 	N 	0.61285 0.77446 0.35699 -0.26100
N 	N 	0.62503 0.76551 0.40242 -0.22400
N 	N 	0.57960 0.81091 0.40582 -0.15100
N 	N 	0.58966 0.82025 0.44029 -0.15000
N 	N 	0.56113 0.83763 0.42387 -0.15100
N 	N 	0.52568 0.85075 0.37185 -0.22900
N 	N 	0.50119 0.87676 0.34238 -0.26400
N 	N 	0.47991 0.84897 0.37524 -0.22900
N 	N 	0.42169 0.81397 0.34428 -0.15200
S 	S 	0.58696 0.79463 0.32812 -0.05900
S 	S 	0.49784 0.87346 0.29928 -0.06200
C 	C 	0.78011 0.59028 0.39742 0.03300
H 	H 	0.78270 0.60240 0.40560 0.01400
C 	C 	0.79250 0.57258 0.40086 -0.04600
C 	C 	0.78862 0.55477 0.38928 0.00600
H 	H 	0.79700 0.54260 0.39080 0.03800
C 	C 	0.77190 0.55514 0.37518 -0.10000
H 	H 	0.76820 0.54290 0.36760 0.06600
C 	C 	0.76093 0.57314 0.37242 0.06100
H 	H 	0.74990 0.57320 0.36240 -0.00000
C 	C 	0.90467 0.60226 0.46662 0.09800
C 	C 	0.83157 0.63852 0.48679 0.05700
H 	H 	0.83290 0.64940 0.49680 -0.00000
C 	C 	0.81334 0.63740 0.47538 -0.09600
H 	H 	0.80220 0.64690 0.47800 0.06300
C 	C 	0.81142 0.62221 0.45993 0.00400
H 	H 	0.79930 0.62160 0.45130 0.03800
C 	C 	0.82774 0.60790 0.45751 -0.04500
C 	C 	0.84528 0.60974 0.46999 0.03100
H 	H 	0.85620 0.59980 0.46830 0.01700
C 	C 	0.82718 0.59132 0.44123 0.13400
C 	C 	0.81030 0.57433 0.41539 0.13300
C 	C 	0.84316 0.56489 0.42411 0.13300
C 	C 	0.86178 0.53768 0.40399 0.03900
H 	H 	0.84940 0.53630 0.39580 0.01200
C 	C 	0.86185 0.55221 0.42048 -0.05100
C 	C 	0.87960 0.55411 0.43265 0.00900
H 	H 	0.88030 0.56400 0.44380 0.03700
C 	C 	0.89642 0.54109 0.42808 -0.10000
H 	H 	0.90870 0.54160 0.43640 0.06700
C 	C 	0.89511 0.52746 0.41140 0.06100
H 	H 	0.90690 0.51890 0.40840 0.00100
C 	C 	0.86138 0.48237 0.41699 0.06300
H 	H 	0.85110 0.49300 0.41590 -0.00100
C 	C 	0.86166 0.47060 0.43460 -0.10300
H 	H 	0.85190 0.47310 0.44550 0.06800
C 	C 	0.87667 0.45470 0.43640 0.00900
H 	H 	0.87710 0.44590 0.44840 0.03700
C 	C 	0.89076 0.45217 0.42016 -0.05200
C 	C 	0.88915 0.46498 0.40269 0.04200
H 	H 	0.89870 0.46300 0.39150 0.01100
C 	C 	0.90698 0.43559 0.42092 0.13500
C 	C 	0.92522 0.49941 0.37389 0.10800
N 	N 	0.76475 0.59096 0.38308 -0.22300
N 	N 	0.89301 0.61285 0.47554 -0.26100
N 	N 	0.84758 0.62503 0.48449 -0.22400
N 	N 	0.84418 0.57960 0.43909 -0.15100
N 	N 	0.80971 0.58966 0.42975 -0.15000
N 	N 	0.82613 0.56113 0.41237 -0.15100
N 	N 	0.87815 0.52568 0.39925 -0.22900
N 	N 	0.90762 0.50119 0.37324 -0.26400
N 	N 	0.87476 0.47991 0.40103 -0.22900
N 	N 	0.90572 0.42169 0.43603 -0.15200
S 	S 	0.92188 0.58696 0.45537 -0.05900
S 	S 	0.95072 0.49784 0.37654 -0.06200
C 	C 	0.78011 0.09028 0.89742 0.03300
H 	H 	0.78270 0.10240 0.90560 0.01400
C 	C 	0.79250 0.07258 0.90086 -0.04600
C 	C 	0.78862 0.05477 0.88928 0.00600
H 	H 	0.79700 0.04260 0.89080 0.03800
C 	C 	0.77190 0.05514 0.87518 -0.10000
H 	H 	0.76820 0.04290 0.86760 0.06600
C 	C 	0.76093 0.07314 0.87242 0.06100
H 	H 	0.74990 0.07320 0.86240 -0.00000
C 	C 	0.90467 0.10226 0.96662 0.09800
C 	C 	0.83157 0.13852 0.98679 0.05700
H 	H 	0.83290 0.14940 0.99680 -0.00000
C 	C 	0.81334 0.13740 0.97538 -0.09600
H 	H 	0.80220 0.14690 0.97800 0.06300
C 	C 	0.81142 0.12221 0.95993 0.00400
H 	H 	0.79930 0.12160 0.95130 0.03800
C 	C 	0.82774 0.10790 0.95751 -0.04500
C 	C 	0.84528 0.10974 0.96999 0.03100
H 	H 	0.85620 0.09980 0.96830 0.01700
C 	C 	0.82718 0.09132 0.94123 0.13400
C 	C 	0.81030 0.07433 0.91539 0.13300
C 	C 	0.84316 0.06489 0.92411 0.13300
C 	C 	0.86178 0.03768 0.90399 0.03900
H 	H 	0.84940 0.03630 0.89580 0.01200
C 	C 	0.86185 0.05221 0.92048 -0.05100
C 	C 	0.87960 0.05411 0.93265 0.00900
H 	H 	0.88030 0.06400 0.94380 0.03700
C 	C 	0.89642 0.04109 0.92808 -0.10000
H 	H 	0.90870 0.04160 0.93640 0.06700
C 	C 	0.89511 0.02746 0.91140 0.06100
H 	H 	0.90690 0.01890 0.90840 0.00100
C 	C 	0.86138 0.98237 0.91699 0.06300
H 	H 	0.85110 0.99300 0.91590 -0.00100
C 	C 	0.86166 0.97060 0.93460 -0.10300
H 	H 	0.85190 0.97310 0.94550 0.06800
C 	C 	0.87667 0.95470 0.93640 0.00900
H 	H 	0.87710 0.94590 0.94840 0.03700
C 	C 	0.89076 0.95217 0.92016 -0.05200
C 	C 	0.88915 0.96498 0.90269 0.04200
H 	H 	0.89870 0.96300 0.89150 0.01100
C 	C 	0.90698 0.93559 0.92092 0.13500
C 	C 	0.92522 0.99941 0.87389 0.10800
N 	N 	0.76475 0.09096 0.88308 -0.22300
N 	N 	0.89301 0.11285 0.97554 -0.26100
N 	N 	0.84758 0.12503 0.98449 -0.22400
N 	N 	0.84418 0.07960 0.93909 -0.15100
N 	N 	0.80971 0.08966 0.92975 -0.15000
N 	N 	0.82613 0.06113 0.91237 -0.15100
N 	N 	0.87815 0.02568 0.89925 -0.22900
N 	N 	0.90762 0.00119 0.87324 -0.26400
N 	N 	0.87476 0.97991 0.90103 -0.22900
N 	N 	0.90572 0.92169 0.93603 -0.15200
S 	S 	0.92188 0.08696 0.95537 -0.05900
S 	S 	0.95072 0.99784 0.87654 -0.06200
C 	C 	0.28011 0.59028 0.89742 0.03300
H 	H 	0.28270 0.60240 0.90560 0.01400
C 	C 	0.29250 0.57258 0.90086 -0.04600
C 	C 	0.28862 0.55477 0.88928 0.00600
H 	H 	0.29700 0.54260 0.89080 0.03800
C 	C 	0.27190 0.55514 0.87518 -0.10000
H 	H 	0.26820 0.54290 0.86760 0.06600
C 	C 	0.26093 0.57314 0.87242 0.06100
H 	H 	0.24990 0.57320 0.86240 -0.00000
C 	C 	0.40467 0.60226 0.96662 0.09800
C 	C 	0.33157 0.63852 0.98679 0.05700
H 	H 	0.33290 0.64940 0.99680 -0.00000
C 	C 	0.31334 0.63740 0.97538 -0.09600
H 	H 	0.30220 0.64690 0.97800 0.06300
C 	C 	0.31142 0.62221 0.95993 0.00400
H 	H 	0.29930 0.62160 0.95130 0.03800
C 	C 	0.32774 0.60790 0.95751 -0.04500
C 	C 	0.34528 0.60974 0.96999 0.03100
H 	H 	0.35620 0.59980 0.96830 0.01700
C 	C 	0.32718 0.59132 0.94123 0.13400
C 	C 	0.31030 0.57433 0.91539 0.13300
C 	C 	0.34316 0.56489 0.92411 0.13300
C 	C 	0.36178 0.53768 0.90399 0.03900
H 	H 	0.34940 0.53630 0.89580 0.01200
C 	C 	0.36185 0.55221 0.92048 -0.05100
C 	C 	0.37960 0.55411 0.93265 0.00900
H 	H 	0.38030 0.56400 0.94380 0.03700
C 	C 	0.39642 0.54109 0.92808 -0.10000
H 	H 	0.40870 0.54160 0.93640 0.06700
C 	C 	0.39511 0.52746 0.91140 0.06100
H 	H 	0.40690 0.51890 0.90840 0.00100
C 	C 	0.36138 0.48237 0.91699 0.06300
H 	H 	0.35110 0.49300 0.91590 -0.00100
C 	C 	0.36166 0.47060 0.93460 -0.10300
H 	H 	0.35190 0.47310 0.94550 0.06800
C 	C 	0.37667 0.45470 0.93640 0.00900
H 	H 	0.37710 0.44590 0.94840 0.03700
C 	C 	0.39076 0.45217 0.92016 -0.05200
C 	C 	0.38915 0.46498 0.90269 0.04200
H 	H 	0.39870 0.46300 0.89150 0.01100
C 	C 	0.40698 0.43559 0.92092 0.13500
C 	C 	0.42522 0.49941 0.87389 0.10800
N 	N 	0.26475 0.59096 0.88308 -0.22300
N 	N 	0.39301 0.61285 0.97554 -0.26100
N 	N 	0.34758 0.62503 0.98449 -0.22400
N 	N 	0.34418 0.57960 0.93909 -0.15100
N 	N 	0.30971 0.58966 0.92975 -0.15000
N 	N 	0.32613 0.56113 0.91237 -0.15100
N 	N 	0.37815 0.52568 0.89925 -0.22900
N 	N 	0.40762 0.50119 0.87324 -0.26400
N 	N 	0.37476 0.47991 0.90103 -0.22900
N 	N 	0.40572 0.42169 0.93603 -0.15200
S 	S 	0.42188 0.58696 0.95537 -0.05900
S 	S 	0.45072 0.49784 0.87654 -0.06200
C 	C 	0.28011 0.09028 0.39742 0.03300
H 	H 	0.28270 0.10240 0.40560 0.01400
C 	C 	0.29250 0.07258 0.40086 -0.04600
C 	C 	0.28862 0.05477 0.38928 0.00600
H 	H 	0.29700 0.04260 0.39080 0.03800
C 	C 	0.27190 0.05514 0.37518 -0.10000
H 	H 	0.26820 0.04290 0.36760 0.06600
C 	C 	0.26093 0.07314 0.37242 0.06100
H 	H 	0.24990 0.07320 0.36240 -0.00000
C 	C 	0.40467 0.10226 0.46662 0.09800
C 	C 	0.33157 0.13852 0.48679 0.05700
H 	H 	0.33290 0.14940 0.49680 -0.00000
C 	C 	0.31334 0.13740 0.47538 -0.09600
H 	H 	0.30220 0.14690 0.47800 0.06300
C 	C 	0.31142 0.12221 0.45993 0.00400
H 	H 	0.29930 0.12160 0.45130 0.03800
C 	C 	0.32774 0.10790 0.45751 -0.04500
C 	C 	0.34528 0.10974 0.46999 0.03100
H 	H 	0.35620 0.09980 0.46830 0.01700
C 	C 	0.32718 0.09132 0.44123 0.13400
C 	C 	0.31030 0.07433 0.41539 0.13300
C 	C 	0.34316 0.06489 0.42411 0.13300
C 	C 	0.36178 0.03768 0.40399 0.03900
H 	H 	0.34940 0.03630 0.39580 0.01200
C 	C 	0.36185 0.05221 0.42048 -0.05100
C 	C 	0.37960 0.05411 0.43265 0.00900
H 	H 	0.38030 0.06400 0.44380 0.03700
C 	C 	0.39642 0.04109 0.42808 -0.10000
H 	H 	0.40870 0.04160 0.43640 0.06700
C 	C 	0.39511 0.02746 0.41140 0.06100
H 	H 	0.40690 0.01890 0.40840 0.00100
C 	C 	0.36138 0.98237 0.41699 0.06300
H 	H 	0.35110 0.99300 0.41590 -0.00100
C 	C 	0.36166 0.97060 0.43460 -0.10300
H 	H 	0.35190 0.97310 0.44550 0.06800
C 	C 	0.37667 0.95470 0.43640 0.00900
H 	H 	0.37710 0.94590 0.44840 0.03700
C 	C 	0.39076 0.95217 0.42016 -0.05200
C 	C 	0.38915 0.96498 0.40269 0.04200
H 	H 	0.39870 0.96300 0.39150 0.01100
C 	C 	0.40698 0.93559 0.42092 0.13500
C 	C 	0.42522 0.99941 0.37389 0.10800
N 	N 	0.26475 0.09096 0.38308 -0.22300
N 	N 	0.39301 0.11285 0.47554 -0.26100
N 	N 	0.34758 0.12503 0.48449 -0.22400
N 	N 	0.34418 0.07960 0.43909 -0.15100
N 	N 	0.30971 0.08966 0.42975 -0.15000
N 	N 	0.32613 0.06113 0.41237 -0.15100
N 	N 	0.37815 0.02568 0.39925 -0.22900
N 	N 	0.40762 0.00119 0.37324 -0.26400
N 	N 	0.37476 0.97991 0.40103 -0.22900
N 	N 	0.40572 0.92169 0.43603 -0.15200
S 	S 	0.42188 0.08696 0.45537 -0.05900
S 	S 	0.45072 0.99784 0.37654 -0.06200
C 	C 	0.28011 0.15972 0.85258 0.03300
H 	H 	0.28270 0.14760 0.84440 0.01400
C 	C 	0.29250 0.17742 0.84914 -0.04600
C 	C 	0.28862 0.19523 0.86072 0.00600
H 	H 	0.29700 0.20740 0.85920 0.03800
C 	C 	0.27190 0.19486 0.87482 -0.10000
H 	H 	0.26820 0.20710 0.88240 0.06600
C 	C 	0.26093 0.17686 0.87758 0.06100
H 	H 	0.24990 0.17680 0.88760 -0.00000
C 	C 	0.40467 0.14774 0.78338 0.09800
C 	C 	0.33157 0.11148 0.76321 0.05700
H 	H 	0.33290 0.10060 0.75320 -0.00000
C 	C 	0.31334 0.11260 0.77462 -0.09600
H 	H 	0.30220 0.10310 0.77200 0.06300
C 	C 	0.31142 0.12779 0.79007 0.00400
H 	H 	0.29930 0.12840 0.79870 0.03800
C 	C 	0.32774 0.14210 0.79249 -0.04500
C 	C 	0.34528 0.14026 0.78001 0.03100
H 	H 	0.35620 0.15020 0.78170 0.01700
C 	C 	0.32718 0.15868 0.80877 0.13400
C 	C 	0.31030 0.17567 0.83461 0.13300
C 	C 	0.34316 0.18511 0.82589 0.13300
C 	C 	0.36178 0.21232 0.84601 0.03900
H 	H 	0.34940 0.21370 0.85420 0.01200
C 	C 	0.36185 0.19779 0.82952 -0.05100
C 	C 	0.37960 0.19589 0.81735 0.00900
H 	H 	0.38030 0.18600 0.80620 0.03700
C 	C 	0.39642 0.20891 0.82192 -0.10000
H 	H 	0.40870 0.20840 0.81360 0.06700
C 	C 	0.39511 0.22254 0.83860 0.06100
H 	H 	0.40690 0.23110 0.84160 0.00100
C 	C 	0.36138 0.26763 0.83301 0.06300
H 	H 	0.35110 0.25700 0.83410 -0.00100
C 	C 	0.36166 0.27940 0.81540 -0.10300
H 	H 	0.35190 0.27690 0.80450 0.06800
C 	C 	0.37667 0.29530 0.81360 0.00900
H 	H 	0.37710 0.30410 0.80160 0.03700
C 	C 	0.39076 0.29783 0.82984 -0.05200
C 	C 	0.38915 0.28502 0.84731 0.04200
H 	H 	0.39870 0.28700 0.85850 0.01100
C 	C 	0.40698 0.31441 0.82908 0.13500
C 	C 	0.42522 0.25059 0.87611 0.10800
N 	N 	0.26475 0.15904 0.86692 -0.22300
N 	N 	0.39301 0.13715 0.77446 -0.26100
N 	N 	0.34758 0.12497 0.76551 -0.22400
N 	N 	0.34418 0.17040 0.81091 -0.15100
N 	N 	0.30971 0.16034 0.82025 -0.15000
N 	N 	0.32613 0.18887 0.83763 -0.15100
N 	N 	0.37815 0.22432 0.85075 -0.22900
N 	N 	0.40762 0.24881 0.87676 -0.26400
N 	N 	0.37476 0.27009 0.84897 -0.22900
N 	N 	0.40572 0.32831 0.81397 -0.15200
S 	S 	0.42188 0.16304 0.79463 -0.05900
S 	S 	0.45072 0.25216 0.87346 -0.06200
C 	C 	0.28011 0.65972 0.35258 0.03300
H 	H 	0.28270 0.64760 0.34440 0.01400
C 	C 	0.29250 0.67742 0.34914 -0.04600
C 	C 	0.28862 0.69523 0.36072 0.00600
H 	H 	0.29700 0.70740 0.35920 0.03800
C 	C 	0.27190 0.69486 0.37482 -0.10000
H 	H 	0.26820 0.70710 0.38240 0.06600
C 	C 	0.26093 0.67686 0.37758 0.06100
H 	H 	0.24990 0.67680 0.38760 -0.00000
C 	C 	0.40467 0.64774 0.28338 0.09800
C 	C 	0.33157 0.61148 0.26321 0.05700
H 	H 	0.33290 0.60060 0.25320 -0.00000
C 	C 	0.31334 0.61260 0.27462 -0.09600
H 	H 	0.30220 0.60310 0.27200 0.06300
C 	C 	0.31142 0.62779 0.29007 0.00400
H 	H 	0.29930 0.62840 0.29870 0.03800
C 	C 	0.32774 0.64210 0.29249 -0.04500
C 	C 	0.34528 0.64026 0.28001 0.03100
H 	H 	0.35620 0.65020 0.28170 0.01700
C 	C 	0.32718 0.65868 0.30877 0.13400
C 	C 	0.31030 0.67567 0.33461 0.13300
C 	C 	0.34316 0.68511 0.32589 0.13300
C 	C 	0.36178 0.71232 0.34601 0.03900
H 	H 	0.34940 0.71370 0.35420 0.01200
C 	C 	0.36185 0.69779 0.32952 -0.05100
C 	C 	0.37960 0.69589 0.31735 0.00900
H 	H 	0.38030 0.68600 0.30620 0.03700
C 	C 	0.39642 0.70891 0.32192 -0.10000
H 	H 	0.40870 0.70840 0.31360 0.06700
C 	C 	0.39511 0.72254 0.33860 0.06100
H 	H 	0.40690 0.73110 0.34160 0.00100
C 	C 	0.36138 0.76763 0.33301 0.06300
H 	H 	0.35110 0.75700 0.33410 -0.00100
C 	C 	0.36166 0.77940 0.31540 -0.10300
H 	H 	0.35190 0.77690 0.30450 0.06800
C 	C 	0.37667 0.79530 0.31360 0.00900
H 	H 	0.37710 0.80410 0.30160 0.03700
C 	C 	0.39076 0.79783 0.32984 -0.05200
C 	C 	0.38915 0.78502 0.34731 0.04200
H 	H 	0.39870 0.78700 0.35850 0.01100
C 	C 	0.40698 0.81441 0.32908 0.13500
C 	C 	0.42522 0.75059 0.37611 0.10800
N 	N 	0.26475 0.65904 0.36692 -0.22300
N 	N 	0.39301 0.63715 0.27446 -0.26100
N 	N 	0.34758 0.62497 0.26551 -0.22400
N 	N 	0.34418 0.67040 0.31091 -0.15100
N 	N 	0.30971 0.66034 0.32025 -0.15000
N 	N 	0.32613 0.68887 0.33763 -0.15100
N 	N 	0.37815 0.72432 0.35075 -0.22900
N 	N 	0.40762 0.74881 0.37676 -0.26400
N 	N 	0.37476 0.77009 0.34897 -0.22900
N 	N 	0.40572 0.82831 0.31397 -0.15200
S 	S 	0.42188 0.66304 0.29463 -0.05900
S 	S 	0.45072 0.75216 0.37346 -0.06200
C 	C 	0.78011 0.15972 0.35258 0.03300
H 	H 	0.78270 0.14760 0.34440 0.01400
C 	C 	0.79250 0.17742 0.34914 -0.04600
C 	C 	0.78862 0.19523 0.36072 0.00600
H 	H 	0.79700 0.20740 0.35920 0.03800
C 	C 	0.77190 0.19486 0.37482 -0.10000
H 	H 	0.76820 0.20710 0.38240 0.06600
C 	C 	0.76093 0.17686 0.37758 0.06100
H 	H 	0.74990 0.17680 0.38760 -0.00000
C 	C 	0.90467 0.14774 0.28338 0.09800
C 	C 	0.83157 0.11148 0.26321 0.05700
H 	H 	0.83290 0.10060 0.25320 -0.00000
C 	C 	0.81334 0.11260 0.27462 -0.09600
H 	H 	0.80220 0.10310 0.27200 0.06300
C 	C 	0.81142 0.12779 0.29007 0.00400
H 	H 	0.79930 0.12840 0.29870 0.03800
C 	C 	0.82774 0.14210 0.29249 -0.04500
C 	C 	0.84528 0.14026 0.28001 0.03100
H 	H 	0.85620 0.15020 0.28170 0.01700
C 	C 	0.82718 0.15868 0.30877 0.13400
C 	C 	0.81030 0.17567 0.33461 0.13300
C 	C 	0.84316 0.18511 0.32589 0.13300
C 	C 	0.86178 0.21232 0.34601 0.03900
H 	H 	0.84940 0.21370 0.35420 0.01200
C 	C 	0.86185 0.19779 0.32952 -0.05100
C 	C 	0.87960 0.19589 0.31735 0.00900
H 	H 	0.88030 0.18600 0.30620 0.03700
C 	C 	0.89642 0.20891 0.32192 -0.10000
H 	H 	0.90870 0.20840 0.31360 0.06700
C 	C 	0.89511 0.22254 0.33860 0.06100
H 	H 	0.90690 0.23110 0.34160 0.00100
C 	C 	0.86138 0.26763 0.33301 0.06300
H 	H 	0.85110 0.25700 0.33410 -0.00100
C 	C 	0.86166 0.27940 0.31540 -0.10300
H 	H 	0.85190 0.27690 0.30450 0.06800
C 	C 	0.87667 0.29530 0.31360 0.00900
H 	H 	0.87710 0.30410 0.30160 0.03700
C 	C 	0.89076 0.29783 0.32984 -0.05200
C 	C 	0.88915 0.28502 0.34731 0.04200
H 	H 	0.89870 0.28700 0.35850 0.01100
C 	C 	0.90698 0.31441 0.32908 0.13500
C 	C 	0.92522 0.25059 0.37611 0.10800
N 	N 	0.76475 0.15904 0.36692 -0.22300
N 	N 	0.89301 0.13715 0.27446 -0.26100
N 	N 	0.84758 0.12497 0.26551 -0.22400
N 	N 	0.84418 0.17040 0.31091 -0.15100
N 	N 	0.80971 0.16034 0.32025 -0.15000
N 	N 	0.82613 0.18887 0.33763 -0.15100
N 	N 	0.87815 0.22432 0.35075 -0.22900
N 	N 	0.90762 0.24881 0.37676 -0.26400
N 	N 	0.87476 0.27009 0.34897 -0.22900
N 	N 	0.90572 0.32831 0.31397 -0.15200
S 	S 	0.92188 0.16304 0.29463 -0.05900
S 	S 	0.95072 0.25216 0.37346 -0.06200
C 	C 	0.78011 0.65972 0.85258 0.03300
H 	H 	0.78270 0.64760 0.84440 0.01400
C 	C 	0.79250 0.67742 0.84914 -0.04600
C 	C 	0.78862 0.69523 0.86072 0.00600
H 	H 	0.79700 0.70740 0.85920 0.03800
C 	C 	0.77190 0.69486 0.87482 -0.10000
H 	H 	0.76820 0.70710 0.88240 0.06600
C 	C 	0.76093 0.67686 0.87758 0.06100
H 	H 	0.74990 0.67680 0.88760 -0.00000
C 	C 	0.90467 0.64774 0.78338 0.09800
C 	C 	0.83157 0.61148 0.76321 0.05700
H 	H 	0.83290 0.60060 0.75320 -0.00000
C 	C 	0.81334 0.61260 0.77462 -0.09600
H 	H 	0.80220 0.60310 0.77200 0.06300
C 	C 	0.81142 0.62779 0.79007 0.00400
H 	H 	0.79930 0.62840 0.79870 0.03800
C 	C 	0.82774 0.64210 0.79249 -0.04500
C 	C 	0.84528 0.64026 0.78001 0.03100
H 	H 	0.85620 0.65020 0.78170 0.01700
C 	C 	0.82718 0.65868 0.80877 0.13400
C 	C 	0.81030 0.67567 0.83461 0.13300
C 	C 	0.84316 0.68511 0.82589 0.13300
C 	C 	0.86178 0.71232 0.84601 0.03900
H 	H 	0.84940 0.71370 0.85420 0.01200
C 	C 	0.86185 0.69779 0.82952 -0.05100
C 	C 	0.87960 0.69589 0.81735 0.00900
H 	H 	0.88030 0.68600 0.80620 0.03700
C 	C 	0.89642 0.70891 0.82192 -0.10000
H 	H 	0.90870 0.70840 0.81360 0.06700
C 	C 	0.89511 0.72254 0.83860 0.06100
H 	H 	0.90690 0.73110 0.84160 0.00100
C 	C 	0.86138 0.76763 0.83301 0.06300
H 	H 	0.85110 0.75700 0.83410 -0.00100
C 	C 	0.86166 0.77940 0.81540 -0.10300
H 	H 	0.85190 0.77690 0.80450 0.06800
C 	C 	0.87667 0.79530 0.81360 0.00900
H 	H 	0.87710 0.80410 0.80160 0.03700
C 	C 	0.89076 0.79783 0.82984 -0.05200
C 	C 	0.88915 0.78502 0.84731 0.04200
H 	H 	0.89870 0.78700 0.85850 0.01100
C 	C 	0.90698 0.81441 0.82908 0.13500
C 	C 	0.92522 0.75059 0.87611 0.10800
N 	N 	0.76475 0.65904 0.86692 -0.22300
N 	N 	0.89301 0.63715 0.77446 -0.26100
N 	N 	0.84758 0.62497 0.76551 -0.22400
N 	N 	0.84418 0.67040 0.81091 -0.15100
N 	N 	0.80971 0.66034 0.82025 -0.15000
N 	N 	0.82613 0.68887 0.83763 -0.15100
N 	N 	0.87815 0.72432 0.85075 -0.22900
N 	N 	0.90762 0.74881 0.87676 -0.26400
N 	N 	0.87476 0.77009 0.84897 -0.22900
N 	N 	0.90572 0.82831 0.81397 -0.15200
S 	S 	0.92188 0.66304 0.79463 -0.05900
S 	S 	0.95072 0.75216 0.87346 -0.06200
C 	C 	0.96989 0.65972 0.89742 0.03300
H 	H 	0.96730 0.64760 0.90560 0.01400
C 	C 	0.95750 0.67742 0.90086 -0.04600
C 	C 	0.96138 0.69523 0.88928 0.00600
H 	H 	0.95300 0.70740 0.89080 0.03800
C 	C 	0.97810 0.69486 0.87518 -0.10000
H 	H 	0.98180 0.70710 0.86760 0.06600
C 	C 	0.98907 0.67686 0.87242 0.06100
H 	H 	0.00010 0.67680 0.86240 -0.00000
C 	C 	0.84533 0.64774 0.96662 0.09800
C 	C 	0.91843 0.61148 0.98679 0.05700
H 	H 	0.91710 0.60060 0.99680 -0.00000
C 	C 	0.93666 0.61260 0.97538 -0.09600
H 	H 	0.94780 0.60310 0.97800 0.06300
C 	C 	0.93858 0.62779 0.95993 0.00400
H 	H 	0.95070 0.62840 0.95130 0.03800
C 	C 	0.92226 0.64210 0.95751 -0.04500
C 	C 	0.90472 0.64026 0.96999 0.03100
H 	H 	0.89380 0.65020 0.96830 0.01700
C 	C 	0.92282 0.65868 0.94123 0.13400
C 	C 	0.93970 0.67567 0.91539 0.13300
C 	C 	0.90684 0.68511 0.92411 0.13300
C 	C 	0.88822 0.71232 0.90399 0.03900
H 	H 	0.90060 0.71370 0.89580 0.01200
C 	C 	0.88815 0.69779 0.92048 -0.05100
C 	C 	0.87040 0.69589 0.93265 0.00900
H 	H 	0.86970 0.68600 0.94380 0.03700
C 	C 	0.85358 0.70891 0.92808 -0.10000
H 	H 	0.84130 0.70840 0.93640 0.06700
C 	C 	0.85489 0.72254 0.91140 0.06100
H 	H 	0.84310 0.73110 0.90840 0.00100
C 	C 	0.88862 0.76763 0.91699 0.06300
H 	H 	0.89890 0.75700 0.91590 -0.00100
C 	C 	0.88834 0.77940 0.93460 -0.10300
H 	H 	0.89810 0.77690 0.94550 0.06800
C 	C 	0.87333 0.79530 0.93640 0.00900
H 	H 	0.87290 0.80410 0.94840 0.03700
C 	C 	0.85924 0.79783 0.92016 -0.05200
C 	C 	0.86085 0.78502 0.90269 0.04200
H 	H 	0.85130 0.78700 0.89150 0.01100
C 	C 	0.84302 0.81441 0.92092 0.13500
C 	C 	0.82478 0.75059 0.87389 0.10800
N 	N 	0.98525 0.65904 0.88308 -0.22300
N 	N 	0.85699 0.63715 0.97554 -0.26100
N 	N 	0.90242 0.62497 0.98449 -0.22400
N 	N 	0.90582 0.67040 0.93909 -0.15100
N 	N 	0.94029 0.66034 0.92975 -0.15000
N 	N 	0.92387 0.68887 0.91237 -0.15100
N 	N 	0.87185 0.72432 0.89925 -0.22900
N 	N 	0.84238 0.74881 0.87324 -0.26400
N 	N 	0.87524 0.77009 0.90103 -0.22900
N 	N 	0.84428 0.82831 0.93603 -0.15200
S 	S 	0.82812 0.66304 0.95537 -0.05900
S 	S 	0.79928 0.75216 0.87654 -0.06200
C 	C 	0.96989 0.15972 0.39742 0.03300
H 	H 	0.96730 0.14760 0.40560 0.01400
C 	C 	0.95750 0.17742 0.40086 -0.04600
C 	C 	0.96138 0.19523 0.38928 0.00600
H 	H 	0.95300 0.20740 0.39080 0.03800
C 	C 	0.97810 0.19486 0.37518 -0.10000
H 	H 	0.98180 0.20710 0.36760 0.06600
C 	C 	0.98907 0.17686 0.37242 0.06100
H 	H 	0.00010 0.17680 0.36240 -0.00000
C 	C 	0.84533 0.14774 0.46662 0.09800
C 	C 	0.91843 0.11148 0.48679 0.05700
H 	H 	0.91710 0.10060 0.49680 -0.00000
C 	C 	0.93666 0.11260 0.47538 -0.09600
H 	H 	0.94780 0.10310 0.47800 0.06300
C 	C 	0.93858 0.12779 0.45993 0.00400
H 	H 	0.95070 0.12840 0.45130 0.03800
C 	C 	0.92226 0.14210 0.45751 -0.04500
C 	C 	0.90472 0.14026 0.46999 0.03100
H 	H 	0.89380 0.15020 0.46830 0.01700
C 	C 	0.92282 0.15868 0.44123 0.13400
C 	C 	0.93970 0.17567 0.41539 0.13300
C 	C 	0.90684 0.18511 0.42411 0.13300
C 	C 	0.88822 0.21232 0.40399 0.03900
H 	H 	0.90060 0.21370 0.39580 0.01200
C 	C 	0.88815 0.19779 0.42048 -0.05100
C 	C 	0.87040 0.19589 0.43265 0.00900
H 	H 	0.86970 0.18600 0.44380 0.03700
C 	C 	0.85358 0.20891 0.42808 -0.10000
H 	H 	0.84130 0.20840 0.43640 0.06700
C 	C 	0.85489 0.22254 0.41140 0.06100
H 	H 	0.84310 0.23110 0.40840 0.00100
C 	C 	0.88862 0.26763 0.41699 0.06300
H 	H 	0.89890 0.25700 0.41590 -0.00100
C 	C 	0.88834 0.27940 0.43460 -0.10300
H 	H 	0.89810 0.27690 0.44550 0.06800
C 	C 	0.87333 0.29530 0.43640 0.00900
H 	H 	0.87290 0.30410 0.44840 0.03700
C 	C 	0.85924 0.29783 0.42016 -0.05200
C 	C 	0.86085 0.28502 0.40269 0.04200
H 	H 	0.85130 0.28700 0.39150 0.01100
C 	C 	0.84302 0.31441 0.42092 0.13500
C 	C 	0.82478 0.25059 0.37389 0.10800
N 	N 	0.98525 0.15904 0.38308 -0.22300
N 	N 	0.85699 0.13715 0.47554 -0.26100
N 	N 	0.90242 0.12497 0.48449 -0.22400
N 	N 	0.90582 0.17040 0.43909 -0.15100
N 	N 	0.94029 0.16034 0.42975 -0.15000
N 	N 	0.92387 0.18887 0.41237 -0.15100
N 	N 	0.87185 0.22432 0.39925 -0.22900
N 	N 	0.84238 0.24881 0.37324 -0.26400
N 	N 	0.87524 0.27009 0.40103 -0.22900
N 	N 	0.84428 0.32831 0.43603 -0.15200
S 	S 	0.82812 0.16304 0.45537 -0.05900
S 	S 	0.79928 0.25216 0.37654 -0.06200
C 	C 	0.46989 0.65972 0.39742 0.03300
H 	H 	0.46730 0.64760 0.40560 0.01400
C 	C 	0.45750 0.67742 0.40086 -0.04600
C 	C 	0.46138 0.69523 0.38928 0.00600
H 	H 	0.45300 0.70740 0.39080 0.03800
C 	C 	0.47810 0.69486 0.37518 -0.10000
H 	H 	0.48180 0.70710 0.36760 0.06600
C 	C 	0.48907 0.67686 0.37242 0.06100
H 	H 	0.50010 0.67680 0.36240 -0.00000
C 	C 	0.34533 0.64774 0.46662 0.09800
C 	C 	0.41843 0.61148 0.48679 0.05700
H 	H 	0.41710 0.60060 0.49680 -0.00000
C 	C 	0.43666 0.61260 0.47538 -0.09600
H 	H 	0.44780 0.60310 0.47800 0.06300
C 	C 	0.43858 0.62779 0.45993 0.00400
H 	H 	0.45070 0.62840 0.45130 0.03800
C 	C 	0.42226 0.64210 0.45751 -0.04500
C 	C 	0.40472 0.64026 0.46999 0.03100
H 	H 	0.39380 0.65020 0.46830 0.01700
C 	C 	0.42282 0.65868 0.44123 0.13400
C 	C 	0.43970 0.67567 0.41539 0.13300
C 	C 	0.40684 0.68511 0.42411 0.13300
C 	C 	0.38822 0.71232 0.40399 0.03900
H 	H 	0.40060 0.71370 0.39580 0.01200
C 	C 	0.38815 0.69779 0.42048 -0.05100
C 	C 	0.37040 0.69589 0.43265 0.00900
H 	H 	0.36970 0.68600 0.44380 0.03700
C 	C 	0.35358 0.70891 0.42808 -0.10000
H 	H 	0.34130 0.70840 0.43640 0.06700
C 	C 	0.35489 0.72254 0.41140 0.06100
H 	H 	0.34310 0.73110 0.40840 0.00100
C 	C 	0.38862 0.76763 0.41699 0.06300
H 	H 	0.39890 0.75700 0.41590 -0.00100
C 	C 	0.38834 0.77940 0.43460 -0.10300
H 	H 	0.39810 0.77690 0.44550 0.06800
C 	C 	0.37333 0.79530 0.43640 0.00900
H 	H 	0.37290 0.80410 0.44840 0.03700
C 	C 	0.35924 0.79783 0.42016 -0.05200
C 	C 	0.36085 0.78502 0.40269 0.04200
H 	H 	0.35130 0.78700 0.39150 0.01100
C 	C 	0.34302 0.81441 0.42092 0.13500
C 	C 	0.32478 0.75059 0.37389 0.10800
N 	N 	0.48525 0.65904 0.38308 -0.22300
N 	N 	0.35699 0.63715 0.47554 -0.26100
N 	N 	0.40242 0.62497 0.48449 -0.22400
N 	N 	0.40582 0.67040 0.43909 -0.15100
N 	N 	0.44029 0.66034 0.42975 -0.15000
N 	N 	0.42387 0.68887 0.41237 -0.15100
N 	N 	0.37185 0.72432 0.39925 -0.22900
N 	N 	0.34238 0.74881 0.37324 -0.26400
N 	N 	0.37524 0.77009 0.40103 -0.22900
N 	N 	0.34428 0.82831 0.43603 -0.15200
S 	S 	0.32812 0.66304 0.45537 -0.05900
S 	S 	0.29928 0.75216 0.37654 -0.06200
C 	C 	0.46989 0.15972 0.89742 0.03300
H 	H 	0.46730 0.14760 0.90560 0.01400
C 	C 	0.45750 0.17742 0.90086 -0.04600
C 	C 	0.46138 0.19523 0.88928 0.00600
H 	H 	0.45300 0.20740 0.89080 0.03800
C 	C 	0.47810 0.19486 0.87518 -0.10000
H 	H 	0.48180 0.20710 0.86760 0.06600
C 	C 	0.48907 0.17686 0.87242 0.06100
H 	H 	0.50010 0.17680 0.86240 -0.00000
C 	C 	0.34533 0.14774 0.96662 0.09800
C 	C 	0.41843 0.11148 0.98679 0.05700
H 	H 	0.41710 0.10060 0.99680 -0.00000
C 	C 	0.43666 0.11260 0.97538 -0.09600
H 	H 	0.44780 0.10310 0.97800 0.06300
C 	C 	0.43858 0.12779 0.95993 0.00400
H 	H 	0.45070 0.12840 0.95130 0.03800
C 	C 	0.42226 0.14210 0.95751 -0.04500
C 	C 	0.40472 0.14026 0.96999 0.03100
H 	H 	0.39380 0.15020 0.96830 0.01700
C 	C 	0.42282 0.15868 0.94123 0.13400
C 	C 	0.43970 0.17567 0.91539 0.13300
C 	C 	0.40684 0.18511 0.92411 0.13300
C 	C 	0.38822 0.21232 0.90399 0.03900
H 	H 	0.40060 0.21370 0.89580 0.01200
C 	C 	0.38815 0.19779 0.92048 -0.05100
C 	C 	0.37040 0.19589 0.93265 0.00900
H 	H 	0.36970 0.18600 0.94380 0.03700
C 	C 	0.35358 0.20891 0.92808 -0.10000
H 	H 	0.34130 0.20840 0.93640 0.06700
C 	C 	0.35489 0.22254 0.91140 0.06100
H 	H 	0.34310 0.23110 0.90840 0.00100
C 	C 	0.38862 0.26763 0.91699 0.06300
H 	H 	0.39890 0.25700 0.91590 -0.00100
C 	C 	0.38834 0.27940 0.93460 -0.10300
H 	H 	0.39810 0.27690 0.94550 0.06800
C 	C 	0.37333 0.29530 0.93640 0.00900
H 	H 	0.37290 0.30410 0.94840 0.03700
C 	C 	0.35924 0.29783 0.92016 -0.05200
C 	C 	0.36085 0.28502 0.90269 0.04200
H 	H 	0.35130 0.28700 0.89150 0.01100
C 	C 	0.34302 0.31441 0.92092 0.13500
C 	C 	0.32478 0.25059 0.87389 0.10800
N 	N 	0.48525 0.15904 0.88308 -0.22300
N 	N 	0.35699 0.13715 0.97554 -0.26100
N 	N 	0.40242 0.12497 0.98449 -0.22400
N 	N 	0.40582 0.17040 0.93909 -0.15100
N 	N 	0.44029 0.16034 0.92975 -0.15000
N 	N 	0.42387 0.18887 0.91237 -0.15100
N 	N 	0.37185 0.22432 0.89925 -0.22900
N 	N 	0.34238 0.24881 0.87324 -0.26400
N 	N 	0.37524 0.27009 0.90103 -0.22900
N 	N 	0.34428 0.32831 0.93603 -0.15200
S 	S 	0.32812 0.16304 0.95537 -0.05900
S 	S 	0.29928 0.25216 0.87654 -0.06200
C 	C 	0.46989 0.09028 0.35258 0.03300
H 	H 	0.46730 0.10240 0.34440 0.01400
C 	C 	0.45750 0.07258 0.34914 -0.04600
C 	C 	0.46138 0.05477 0.36072 0.00600
H 	H 	0.45300 0.04260 0.35920 0.03800
C 	C 	0.47810 0.05514 0.37482 -0.10000
H 	H 	0.48180 0.04290 0.38240 0.06600
C 	C 	0.48907 0.07314 0.37758 0.06100
H 	H 	0.50010 0.07320 0.38760 -0.00000
C 	C 	0.34533 0.10226 0.28338 0.09800
C 	C 	0.41843 0.13852 0.26321 0.05700
H 	H 	0.41710 0.14940 0.25320 -0.00000
C 	C 	0.43666 0.13740 0.27462 -0.09600
H 	H 	0.44780 0.14690 0.27200 0.06300
C 	C 	0.43858 0.12221 0.29007 0.00400
H 	H 	0.45070 0.12160 0.29870 0.03800
C 	C 	0.42226 0.10790 0.29249 -0.04500
C 	C 	0.40472 0.10974 0.28001 0.03100
H 	H 	0.39380 0.09980 0.28170 0.01700
C 	C 	0.42282 0.09132 0.30877 0.13400
C 	C 	0.43970 0.07433 0.33461 0.13300
C 	C 	0.40684 0.06489 0.32589 0.13300
C 	C 	0.38822 0.03768 0.34601 0.03900
H 	H 	0.40060 0.03630 0.35420 0.01200
C 	C 	0.38815 0.05221 0.32952 -0.05100
C 	C 	0.37040 0.05411 0.31735 0.00900
H 	H 	0.36970 0.06400 0.30620 0.03700
C 	C 	0.35358 0.04109 0.32192 -0.10000
H 	H 	0.34130 0.04160 0.31360 0.06700
C 	C 	0.35489 0.02746 0.33860 0.06100
H 	H 	0.34310 0.01890 0.34160 0.00100
C 	C 	0.38862 0.98237 0.33301 0.06300
H 	H 	0.39890 0.99300 0.33410 -0.00100
C 	C 	0.38834 0.97060 0.31540 -0.10300
H 	H 	0.39810 0.97310 0.30450 0.06800
C 	C 	0.37333 0.95470 0.31360 0.00900
H 	H 	0.37290 0.94590 0.30160 0.03700
C 	C 	0.35924 0.95217 0.32984 -0.05200
C 	C 	0.36085 0.96498 0.34731 0.04200
H 	H 	0.35130 0.96300 0.35850 0.01100
C 	C 	0.34302 0.93559 0.32908 0.13500
C 	C 	0.32478 0.99941 0.37611 0.10800
N 	N 	0.48525 0.09096 0.36692 -0.22300
N 	N 	0.35699 0.11285 0.27446 -0.26100
N 	N 	0.40242 0.12503 0.26551 -0.22400
N 	N 	0.40582 0.07960 0.31091 -0.15100
N 	N 	0.44029 0.08966 0.32025 -0.15000
N 	N 	0.42387 0.06113 0.33763 -0.15100
N 	N 	0.37185 0.02568 0.35075 -0.22900
N 	N 	0.34238 0.00119 0.37676 -0.26400
N 	N 	0.37524 0.97991 0.34897 -0.22900
N 	N 	0.34428 0.92169 0.31397 -0.15200
S 	S 	0.32812 0.08696 0.29463 -0.05900
S 	S 	0.29928 0.99784 0.37346 -0.06200
C 	C 	0.46989 0.59028 0.85258 0.03300
H 	H 	0.46730 0.60240 0.84440 0.01400
C 	C 	0.45750 0.57258 0.84914 -0.04600
C 	C 	0.46138 0.55477 0.86072 0.00600
H 	H 	0.45300 0.54260 0.85920 0.03800
C 	C 	0.47810 0.55514 0.87482 -0.10000
H 	H 	0.48180 0.54290 0.88240 0.06600
C 	C 	0.48907 0.57314 0.87758 0.06100
H 	H 	0.50010 0.57320 0.88760 -0.00000
C 	C 	0.34533 0.60226 0.78338 0.09800
C 	C 	0.41843 0.63852 0.76321 0.05700
H 	H 	0.41710 0.64940 0.75320 -0.00000
C 	C 	0.43666 0.63740 0.77462 -0.09600
H 	H 	0.44780 0.64690 0.77200 0.06300
C 	C 	0.43858 0.62221 0.79007 0.00400
H 	H 	0.45070 0.62160 0.79870 0.03800
C 	C 	0.42226 0.60790 0.79249 -0.04500
C 	C 	0.40472 0.60974 0.78001 0.03100
H 	H 	0.39380 0.59980 0.78170 0.01700
C 	C 	0.42282 0.59132 0.80877 0.13400
C 	C 	0.43970 0.57433 0.83461 0.13300
C 	C 	0.40684 0.56489 0.82589 0.13300
C 	C 	0.38822 0.53768 0.84601 0.03900
H 	H 	0.40060 0.53630 0.85420 0.01200
C 	C 	0.38815 0.55221 0.82952 -0.05100
C 	C 	0.37040 0.55411 0.81735 0.00900
H 	H 	0.36970 0.56400 0.80620 0.03700
C 	C 	0.35358 0.54109 0.82192 -0.10000
H 	H 	0.34130 0.54160 0.81360 0.06700
C 	C 	0.35489 0.52746 0.83860 0.06100
H 	H 	0.34310 0.51890 0.84160 0.00100
C 	C 	0.38862 0.48237 0.83301 0.06300
H 	H 	0.39890 0.49300 0.83410 -0.00100
C 	C 	0.38834 0.47060 0.81540 -0.10300
H 	H 	0.39810 0.47310 0.80450 0.06800
C 	C 	0.37333 0.45470 0.81360 0.00900
H 	H 	0.37290 0.44590 0.80160 0.03700
C 	C 	0.35924 0.45217 0.82984 -0.05200
C 	C 	0.36085 0.46498 0.84731 0.04200
H 	H 	0.35130 0.46300 0.85850 0.01100
C 	C 	0.34302 0.43559 0.82908 0.13500
C 	C 	0.32478 0.49941 0.87611 0.10800
N 	N 	0.48525 0.59096 0.86692 -0.22300
N 	N 	0.35699 0.61285 0.77446 -0.26100
N 	N 	0.40242 0.62503 0.76551 -0.22400
N 	N 	0.40582 0.57960 0.81091 -0.15100
N 	N 	0.44029 0.58966 0.82025 -0.15000
N 	N 	0.42387 0.56113 0.83763 -0.15100
N 	N 	0.37185 0.52568 0.85075 -0.22900
N 	N 	0.34238 0.50119 0.87676 -0.26400
N 	N 	0.37524 0.47991 0.84897 -0.22900
N 	N 	0.34428 0.42169 0.81397 -0.15200
S 	S 	0.32812 0.58696 0.79463 -0.05900
S 	S 	0.29928 0.49784 0.87346 -0.06200
C 	C 	0.96989 0.09028 0.85258 0.03300
H 	H 	0.96730 0.10240 0.84440 0.01400
C 	C 	0.95750 0.07258 0.84914 -0.04600
C 	C 	0.96138 0.05477 0.86072 0.00600
H 	H 	0.95300 0.04260 0.85920 0.03800
C 	C 	0.97810 0.05514 0.87482 -0.10000
H 	H 	0.98180 0.04290 0.88240 0.06600
C 	C 	0.98907 0.07314 0.87758 0.06100
H 	H 	0.00010 0.07320 0.88760 -0.00000
C 	C 	0.84533 0.10226 0.78338 0.09800
C 	C 	0.91843 0.13852 0.76321 0.05700
H 	H 	0.91710 0.14940 0.75320 -0.00000
C 	C 	0.93666 0.13740 0.77462 -0.09600
H 	H 	0.94780 0.14690 0.77200 0.06300
C 	C 	0.93858 0.12221 0.79007 0.00400
H 	H 	0.95070 0.12160 0.79870 0.03800
C 	C 	0.92226 0.10790 0.79249 -0.04500
C 	C 	0.90472 0.10974 0.78001 0.03100
H 	H 	0.89380 0.09980 0.78170 0.01700
C 	C 	0.92282 0.09132 0.80877 0.13400
C 	C 	0.93970 0.07433 0.83461 0.13300
C 	C 	0.90684 0.06489 0.82589 0.13300
C 	C 	0.88822 0.03768 0.84601 0.03900
H 	H 	0.90060 0.03630 0.85420 0.01200
C 	C 	0.88815 0.05221 0.82952 -0.05100
C 	C 	0.87040 0.05411 0.81735 0.00900
H 	H 	0.86970 0.06400 0.80620 0.03700
C 	C 	0.85358 0.04109 0.82192 -0.10000
H 	H 	0.84130 0.04160 0.81360 0.06700
C 	C 	0.85489 0.02746 0.83860 0.06100
H 	H 	0.84310 0.01890 0.84160 0.00100
C 	C 	0.88862 0.98237 0.83301 0.06300
H 	H 	0.89890 0.99300 0.83410 -0.00100
C 	C 	0.88834 0.97060 0.81540 -0.10300
H 	H 	0.89810 0.97310 0.80450 0.06800
C 	C 	0.87333 0.95470 0.81360 0.00900
H 	H 	0.87290 0.94590 0.80160 0.03700
C 	C 	0.85924 0.95217 0.82984 -0.05200
C 	C 	0.86085 0.96498 0.84731 0.04200
H 	H 	0.85130 0.96300 0.85850 0.01100
C 	C 	0.84302 0.93559 0.82908 0.13500
C 	C 	0.82478 0.99941 0.87611 0.10800
N 	N 	0.98525 0.09096 0.86692 -0.22300
N 	N 	0.85699 0.11285 0.77446 -0.26100
N 	N 	0.90242 0.12503 0.76551 -0.22400
N 	N 	0.90582 0.07960 0.81091 -0.15100
N 	N 	0.94029 0.08966 0.82025 -0.15000
N 	N 	0.92387 0.06113 0.83763 -0.15100
N 	N 	0.87185 0.02568 0.85075 -0.22900
N 	N 	0.84238 0.00119 0.87676 -0.26400
N 	N 	0.87524 0.97991 0.84897 -0.22900
N 	N 	0.84428 0.92169 0.81397 -0.15200
S 	S 	0.82812 0.08696 0.79463 -0.05900
S 	S 	0.79928 0.99784 0.87346 -0.06200
C 	C 	0.96989 0.59028 0.35258 0.03300
H 	H 	0.96730 0.60240 0.34440 0.01400
C 	C 	0.95750 0.57258 0.34914 -0.04600
C 	C 	0.96138 0.55477 0.36072 0.00600
H 	H 	0.95300 0.54260 0.35920 0.03800
C 	C 	0.97810 0.55514 0.37482 -0.10000
H 	H 	0.98180 0.54290 0.38240 0.06600
C 	C 	0.98907 0.57314 0.37758 0.06100
H 	H 	0.00010 0.57320 0.38760 -0.00000
C 	C 	0.84533 0.60226 0.28338 0.09800
C 	C 	0.91843 0.63852 0.26321 0.05700
H 	H 	0.91710 0.64940 0.25320 -0.00000
C 	C 	0.93666 0.63740 0.27462 -0.09600
H 	H 	0.94780 0.64690 0.27200 0.06300
C 	C 	0.93858 0.62221 0.29007 0.00400
H 	H 	0.95070 0.62160 0.29870 0.03800
C 	C 	0.92226 0.60790 0.29249 -0.04500
C 	C 	0.90472 0.60974 0.28001 0.03100
H 	H 	0.89380 0.59980 0.28170 0.01700
C 	C 	0.92282 0.59132 0.30877 0.13400
C 	C 	0.93970 0.57433 0.33461 0.13300
C 	C 	0.90684 0.56489 0.32589 0.13300
C 	C 	0.88822 0.53768 0.34601 0.03900
H 	H 	0.90060 0.53630 0.35420 0.01200
C 	C 	0.88815 0.55221 0.32952 -0.05100
C 	C 	0.87040 0.55411 0.31735 0.00900
H 	H 	0.86970 0.56400 0.30620 0.03700
C 	C 	0.85358 0.54109 0.32192 -0.10000
H 	H 	0.84130 0.54160 0.31360 0.06700
C 	C 	0.85489 0.52746 0.33860 0.06100
H 	H 	0.84310 0.51890 0.34160 0.00100
C 	C 	0.88862 0.48237 0.33301 0.06300
H 	H 	0.89890 0.49300 0.33410 -0.00100
C 	C 	0.88834 0.47060 0.31540 -0.10300
H 	H 	0.89810 0.47310 0.30450 0.06800
C 	C 	0.87333 0.45470 0.31360 0.00900
H 	H 	0.87290 0.44590 0.30160 0.03700
C 	C 	0.85924 0.45217 0.32984 -0.05200
C 	C 	0.86085 0.46498 0.34731 0.04200
H 	H 	0.85130 0.46300 0.35850 0.01100
C 	C 	0.84302 0.43559 0.32908 0.13500
C 	C 	0.82478 0.49941 0.37611 0.10800
N 	N 	0.98525 0.59096 0.36692 -0.22300
N 	N 	0.85699 0.61285 0.27446 -0.26100
N 	N 	0.90242 0.62503 0.26551 -0.22400
N 	N 	0.90582 0.57960 0.31091 -0.15100
N 	N 	0.94029 0.58966 0.32025 -0.15000
N 	N 	0.92387 0.56113 0.33763 -0.15100
N 	N 	0.87185 0.52568 0.35075 -0.22900
N 	N 	0.84238 0.50119 0.37676 -0.26400
N 	N 	0.87524 0.47991 0.34897 -0.22900
N 	N 	0.84428 0.42169 0.31397 -0.15200
S 	S 	0.82812 0.58696 0.29463 -0.05900
S 	S 	0.79928 0.49784 0.37346 -0.06200
C 	C 	0.39742 0.78011 0.59028 0.03300
H 	H 	0.40560 0.78270 0.60240 0.01400
C 	C 	0.40086 0.79250 0.57258 -0.04600
C 	C 	0.38928 0.78862 0.55477 0.00600
H 	H 	0.39080 0.79700 0.54260 0.03800
C 	C 	0.37518 0.77190 0.55514 -0.10000
H 	H 	0.36760 0.76820 0.54290 0.06600
C 	C 	0.37242 0.76093 0.57314 0.06100
H 	H 	0.36240 0.74990 0.57320 -0.00000
C 	C 	0.46662 0.90467 0.60226 0.09800
C 	C 	0.48679 0.83157 0.63852 0.05700
H 	H 	0.49680 0.83290 0.64940 -0.00000
C 	C 	0.47538 0.81334 0.63740 -0.09600
H 	H 	0.47800 0.80220 0.64690 0.06300
C 	C 	0.45993 0.81142 0.62221 0.00400
H 	H 	0.45130 0.79930 0.62160 0.03800
C 	C 	0.45751 0.82774 0.60790 -0.04500
C 	C 	0.46999 0.84528 0.60974 0.03100
H 	H 	0.46830 0.85620 0.59980 0.01700
C 	C 	0.44123 0.82718 0.59132 0.13400
C 	C 	0.41539 0.81030 0.57433 0.13300
C 	C 	0.42411 0.84316 0.56489 0.13300
C 	C 	0.40399 0.86178 0.53768 0.03900
H 	H 	0.39580 0.84940 0.53630 0.01200
C 	C 	0.42048 0.86185 0.55221 -0.05100
C 	C 	0.43265 0.87960 0.55411 0.00900
H 	H 	0.44380 0.88030 0.56400 0.03700
C 	C 	0.42808 0.89642 0.54109 -0.10000
H 	H 	0.43640 0.90870 0.54160 0.06700
C 	C 	0.41140 0.89511 0.52746 0.06100
H 	H 	0.40840 0.90690 0.51890 0.00100
C 	C 	0.41699 0.86138 0.48237 0.06300
H 	H 	0.41590 0.85110 0.49300 -0.00100
C 	C 	0.43460 0.86166 0.47060 -0.10300
H 	H 	0.44550 0.85190 0.47310 0.06800
C 	C 	0.43640 0.87667 0.45470 0.00900
H 	H 	0.44840 0.87710 0.44590 0.03700
C 	C 	0.42016 0.89076 0.45217 -0.05200
C 	C 	0.40269 0.88915 0.46498 0.04200
H 	H 	0.39150 0.89870 0.46300 0.01100
C 	C 	0.42092 0.90698 0.43559 0.13500
C 	C 	0.37389 0.92522 0.49941 0.10800
N 	N 	0.38308 0.76475 0.59096 -0.22300
N 	N 	0.47554 0.89301 0.61285 -0.26100
N 	N 	0.48449 0.84758 0.62503 -0.22400
N 	N 	0.43909 0.84418 0.57960 -0.15100
N 	N 	0.42975 0.80971 0.58966 -0.15000
N 	N 	0.41237 0.82613 0.56113 -0.15100
N 	N 	0.39925 0.87815 0.52568 -0.22900
N 	N 	0.37324 0.90762 0.50119 -0.26400
N 	N 	0.40103 0.87476 0.47991 -0.22900
N 	N 	0.43603 0.90572 0.42169 -0.15200
S 	S 	0.45537 0.92188 0.58696 -0.05900
S 	S 	0.37654 0.95072 0.49784 -0.06200
C 	C 	0.39742 0.28011 0.09028 0.03300
H 	H 	0.40560 0.28270 0.10240 0.01400
C 	C 	0.40086 0.29250 0.07258 -0.04600
C 	C 	0.38928 0.28862 0.05477 0.00600
H 	H 	0.39080 0.29700 0.04260 0.03800
C 	C 	0.37518 0.27190 0.05514 -0.10000
H 	H 	0.36760 0.26820 0.04290 0.06600
C 	C 	0.37242 0.26093 0.07314 0.06100
H 	H 	0.36240 0.24990 0.07320 -0.00000
C 	C 	0.46662 0.40467 0.10226 0.09800
C 	C 	0.48679 0.33157 0.13852 0.05700
H 	H 	0.49680 0.33290 0.14940 -0.00000
C 	C 	0.47538 0.31334 0.13740 -0.09600
H 	H 	0.47800 0.30220 0.14690 0.06300
C 	C 	0.45993 0.31142 0.12221 0.00400
H 	H 	0.45130 0.29930 0.12160 0.03800
C 	C 	0.45751 0.32774 0.10790 -0.04500
C 	C 	0.46999 0.34528 0.10974 0.03100
H 	H 	0.46830 0.35620 0.09980 0.01700
C 	C 	0.44123 0.32718 0.09132 0.13400
C 	C 	0.41539 0.31030 0.07433 0.13300
C 	C 	0.42411 0.34316 0.06489 0.13300
C 	C 	0.40399 0.36178 0.03768 0.03900
H 	H 	0.39580 0.34940 0.03630 0.01200
C 	C 	0.42048 0.36185 0.05221 -0.05100
C 	C 	0.43265 0.37960 0.05411 0.00900
H 	H 	0.44380 0.38030 0.06400 0.03700
C 	C 	0.42808 0.39642 0.04109 -0.10000
H 	H 	0.43640 0.40870 0.04160 0.06700
C 	C 	0.41140 0.39511 0.02746 0.06100
H 	H 	0.40840 0.40690 0.01890 0.00100
C 	C 	0.41699 0.36138 0.98237 0.06300
H 	H 	0.41590 0.35110 0.99300 -0.00100
C 	C 	0.43460 0.36166 0.97060 -0.10300
H 	H 	0.44550 0.35190 0.97310 0.06800
C 	C 	0.43640 0.37667 0.95470 0.00900
H 	H 	0.44840 0.37710 0.94590 0.03700
C 	C 	0.42016 0.39076 0.95217 -0.05200
C 	C 	0.40269 0.38915 0.96498 0.04200
H 	H 	0.39150 0.39870 0.96300 0.01100
C 	C 	0.42092 0.40698 0.93559 0.13500
C 	C 	0.37389 0.42522 0.99941 0.10800
N 	N 	0.38308 0.26475 0.09096 -0.22300
N 	N 	0.47554 0.39301 0.11285 -0.26100
N 	N 	0.48449 0.34758 0.12503 -0.22400
N 	N 	0.43909 0.34418 0.07960 -0.15100
N 	N 	0.42975 0.30971 0.08966 -0.15000
N 	N 	0.41237 0.32613 0.06113 -0.15100
N 	N 	0.39925 0.37815 0.02568 -0.22900
N 	N 	0.37324 0.40762 0.00119 -0.26400
N 	N 	0.40103 0.37476 0.97991 -0.22900
N 	N 	0.43603 0.40572 0.92169 -0.15200
S 	S 	0.45537 0.42188 0.08696 -0.05900
S 	S 	0.37654 0.45072 0.99784 -0.06200
C 	C 	0.89742 0.78011 0.09028 0.03300
H 	H 	0.90560 0.78270 0.10240 0.01400
C 	C 	0.90086 0.79250 0.07258 -0.04600
C 	C 	0.88928 0.78862 0.05477 0.00600
H 	H 	0.89080 0.79700 0.04260 0.03800
C 	C 	0.87518 0.77190 0.05514 -0.10000
H 	H 	0.86760 0.76820 0.04290 0.06600
C 	C 	0.87242 0.76093 0.07314 0.06100
H 	H 	0.86240 0.74990 0.07320 -0.00000
C 	C 	0.96662 0.90467 0.10226 0.09800
C 	C 	0.98679 0.83157 0.13852 0.05700
H 	H 	0.99680 0.83290 0.14940 -0.00000
C 	C 	0.97538 0.81334 0.13740 -0.09600
H 	H 	0.97800 0.80220 0.14690 0.06300
C 	C 	0.95993 0.81142 0.12221 0.00400
H 	H 	0.95130 0.79930 0.12160 0.03800
C 	C 	0.95751 0.82774 0.10790 -0.04500
C 	C 	0.96999 0.84528 0.10974 0.03100
H 	H 	0.96830 0.85620 0.09980 0.01700
C 	C 	0.94123 0.82718 0.09132 0.13400
C 	C 	0.91539 0.81030 0.07433 0.13300
C 	C 	0.92411 0.84316 0.06489 0.13300
C 	C 	0.90399 0.86178 0.03768 0.03900
H 	H 	0.89580 0.84940 0.03630 0.01200
C 	C 	0.92048 0.86185 0.05221 -0.05100
C 	C 	0.93265 0.87960 0.05411 0.00900
H 	H 	0.94380 0.88030 0.06400 0.03700
C 	C 	0.92808 0.89642 0.04109 -0.10000
H 	H 	0.93640 0.90870 0.04160 0.06700
C 	C 	0.91140 0.89511 0.02746 0.06100
H 	H 	0.90840 0.90690 0.01890 0.00100
C 	C 	0.91699 0.86138 0.98237 0.06300
H 	H 	0.91590 0.85110 0.99300 -0.00100
C 	C 	0.93460 0.86166 0.97060 -0.10300
H 	H 	0.94550 0.85190 0.97310 0.06800
C 	C 	0.93640 0.87667 0.95470 0.00900
H 	H 	0.94840 0.87710 0.94590 0.03700
C 	C 	0.92016 0.89076 0.95217 -0.05200
C 	C 	0.90269 0.88915 0.96498 0.04200
H 	H 	0.89150 0.89870 0.96300 0.01100
C 	C 	0.92092 0.90698 0.93559 0.13500
C 	C 	0.87389 0.92522 0.99941 0.10800
N 	N 	0.88308 0.76475 0.09096 -0.22300
N 	N 	0.97554 0.89301 0.11285 -0.26100
N 	N 	0.98449 0.84758 0.12503 -0.22400
N 	N 	0.93909 0.84418 0.07960 -0.15100
N 	N 	0.92975 0.80971 0.08966 -0.15000
N 	N 	0.91237 0.82613 0.06113 -0.15100
N 	N 	0.89925 0.87815 0.02568 -0.22900
N 	N 	0.87324 0.90762 0.00119 -0.26400
N 	N 	0.90103 0.87476 0.97991 -0.22900
N 	N 	0.93603 0.90572 0.92169 -0.15200
S 	S 	0.95537 0.92188 0.08696 -0.05900
S 	S 	0.87654 0.95072 0.99784 -0.06200
C 	C 	0.89742 0.28011 0.59028 0.03300
H 	H 	0.90560 0.28270 0.60240 0.01400
C 	C 	0.90086 0.29250 0.57258 -0.04600
C 	C 	0.88928 0.28862 0.55477 0.00600
H 	H 	0.89080 0.29700 0.54260 0.03800
C 	C 	0.87518 0.27190 0.55514 -0.10000
H 	H 	0.86760 0.26820 0.54290 0.06600
C 	C 	0.87242 0.26093 0.57314 0.06100
H 	H 	0.86240 0.24990 0.57320 -0.00000
C 	C 	0.96662 0.40467 0.60226 0.09800
C 	C 	0.98679 0.33157 0.63852 0.05700
H 	H 	0.99680 0.33290 0.64940 -0.00000
C 	C 	0.97538 0.31334 0.63740 -0.09600
H 	H 	0.97800 0.30220 0.64690 0.06300
C 	C 	0.95993 0.31142 0.62221 0.00400
H 	H 	0.95130 0.29930 0.62160 0.03800
C 	C 	0.95751 0.32774 0.60790 -0.04500
C 	C 	0.96999 0.34528 0.60974 0.03100
H 	H 	0.96830 0.35620 0.59980 0.01700
C 	C 	0.94123 0.32718 0.59132 0.13400
C 	C 	0.91539 0.31030 0.57433 0.13300
C 	C 	0.92411 0.34316 0.56489 0.13300
C 	C 	0.90399 0.36178 0.53768 0.03900
H 	H 	0.89580 0.34940 0.53630 0.01200
C 	C 	0.92048 0.36185 0.55221 -0.05100
C 	C 	0.93265 0.37960 0.55411 0.00900
H 	H 	0.94380 0.38030 0.56400 0.03700
C 	C 	0.92808 0.39642 0.54109 -0.10000
H 	H 	0.93640 0.40870 0.54160 0.06700
C 	C 	0.91140 0.39511 0.52746 0.06100
H 	H 	0.90840 0.40690 0.51890 0.00100
C 	C 	0.91699 0.36138 0.48237 0.06300
H 	H 	0.91590 0.35110 0.49300 -0.00100
C 	C 	0.93460 0.36166 0.47060 -0.10300
H 	H 	0.94550 0.35190 0.47310 0.06800
C 	C 	0.93640 0.37667 0.45470 0.00900
H 	H 	0.94840 0.37710 0.44590 0.03700
C 	C 	0.92016 0.39076 0.45217 -0.05200
C 	C 	0.90269 0.38915 0.46498 0.04200
H 	H 	0.89150 0.39870 0.46300 0.01100
C 	C 	0.92092 0.40698 0.43559 0.13500
C 	C 	0.87389 0.42522 0.49941 0.10800
N 	N 	0.88308 0.26475 0.59096 -0.22300
N 	N 	0.97554 0.39301 0.61285 -0.26100
N 	N 	0.98449 0.34758 0.62503 -0.22400
N 	N 	0.93909 0.34418 0.57960 -0.15100
N 	N 	0.92975 0.30971 0.58966 -0.15000
N 	N 	0.91237 0.32613 0.56113 -0.15100
N 	N 	0.89925 0.37815 0.52568 -0.22900
N 	N 	0.87324 0.40762 0.50119 -0.26400
N 	N 	0.90103 0.37476 0.47991 -0.22900
N 	N 	0.93603 0.40572 0.42169 -0.15200
S 	S 	0.95537 0.42188 0.58696 -0.05900
S 	S 	0.87654 0.45072 0.49784 -0.06200
C 	C 	0.85258 0.28011 0.15972 0.03300
H 	H 	0.84440 0.28270 0.14760 0.01400
C 	C 	0.84914 0.29250 0.17742 -0.04600
C 	C 	0.86072 0.28862 0.19523 0.00600
H 	H 	0.85920 0.29700 0.20740 0.03800
C 	C 	0.87482 0.27190 0.19486 -0.10000
H 	H 	0.88240 0.26820 0.20710 0.06600
C 	C 	0.87758 0.26093 0.17686 0.06100
H 	H 	0.88760 0.24990 0.17680 -0.00000
C 	C 	0.78338 0.40467 0.14774 0.09800
C 	C 	0.76321 0.33157 0.11148 0.05700
H 	H 	0.75320 0.33290 0.10060 -0.00000
C 	C 	0.77462 0.31334 0.11260 -0.09600
H 	H 	0.77200 0.30220 0.10310 0.06300
C 	C 	0.79007 0.31142 0.12779 0.00400
H 	H 	0.79870 0.29930 0.12840 0.03800
C 	C 	0.79249 0.32774 0.14210 -0.04500
C 	C 	0.78001 0.34528 0.14026 0.03100
H 	H 	0.78170 0.35620 0.15020 0.01700
C 	C 	0.80877 0.32718 0.15868 0.13400
C 	C 	0.83461 0.31030 0.17567 0.13300
C 	C 	0.82589 0.34316 0.18511 0.13300
C 	C 	0.84601 0.36178 0.21232 0.03900
H 	H 	0.85420 0.34940 0.21370 0.01200
C 	C 	0.82952 0.36185 0.19779 -0.05100
C 	C 	0.81735 0.37960 0.19589 0.00900
H 	H 	0.80620 0.38030 0.18600 0.03700
C 	C 	0.82192 0.39642 0.20891 -0.10000
H 	H 	0.81360 0.40870 0.20840 0.06700
C 	C 	0.83860 0.39511 0.22254 0.06100
H 	H 	0.84160 0.40690 0.23110 0.00100
C 	C 	0.83301 0.36138 0.26763 0.06300
H 	H 	0.83410 0.35110 0.25700 -0.00100
C 	C 	0.81540 0.36166 0.27940 -0.10300
H 	H 	0.80450 0.35190 0.27690 0.06800
C 	C 	0.81360 0.37667 0.29530 0.00900
H 	H 	0.80160 0.37710 0.30410 0.03700
C 	C 	0.82984 0.39076 0.29783 -0.05200
C 	C 	0.84731 0.38915 0.28502 0.04200
H 	H 	0.85850 0.39870 0.28700 0.01100
C 	C 	0.82908 0.40698 0.31441 0.13500
C 	C 	0.87611 0.42522 0.25059 0.10800
N 	N 	0.86692 0.26475 0.15904 -0.22300
N 	N 	0.77446 0.39301 0.13715 -0.26100
N 	N 	0.76551 0.34758 0.12497 -0.22400
N 	N 	0.81091 0.34418 0.17040 -0.15100
N 	N 	0.82025 0.30971 0.16034 -0.15000
N 	N 	0.83763 0.32613 0.18887 -0.15100
N 	N 	0.85075 0.37815 0.22432 -0.22900
N 	N 	0.87676 0.40762 0.24881 -0.26400
N 	N 	0.84897 0.37476 0.27009 -0.22900
N 	N 	0.81397 0.40572 0.32831 -0.15200
S 	S 	0.79463 0.42188 0.16304 -0.05900
S 	S 	0.87346 0.45072 0.25216 -0.06200
C 	C 	0.85258 0.78011 0.65972 0.03300
H 	H 	0.84440 0.78270 0.64760 0.01400
C 	C 	0.84914 0.79250 0.67742 -0.04600
C 	C 	0.86072 0.78862 0.69523 0.00600
H 	H 	0.85920 0.79700 0.70740 0.03800
C 	C 	0.87482 0.77190 0.69486 -0.10000
H 	H 	0.88240 0.76820 0.70710 0.06600
C 	C 	0.87758 0.76093 0.67686 0.06100
H 	H 	0.88760 0.74990 0.67680 -0.00000
C 	C 	0.78338 0.90467 0.64774 0.09800
C 	C 	0.76321 0.83157 0.61148 0.05700
H 	H 	0.75320 0.83290 0.60060 -0.00000
C 	C 	0.77462 0.81334 0.61260 -0.09600
H 	H 	0.77200 0.80220 0.60310 0.06300
C 	C 	0.79007 0.81142 0.62779 0.00400
H 	H 	0.79870 0.79930 0.62840 0.03800
C 	C 	0.79249 0.82774 0.64210 -0.04500
C 	C 	0.78001 0.84528 0.64026 0.03100
H 	H 	0.78170 0.85620 0.65020 0.01700
C 	C 	0.80877 0.82718 0.65868 0.13400
C 	C 	0.83461 0.81030 0.67567 0.13300
C 	C 	0.82589 0.84316 0.68511 0.13300
C 	C 	0.84601 0.86178 0.71232 0.03900
H 	H 	0.85420 0.84940 0.71370 0.01200
C 	C 	0.82952 0.86185 0.69779 -0.05100
C 	C 	0.81735 0.87960 0.69589 0.00900
H 	H 	0.80620 0.88030 0.68600 0.03700
C 	C 	0.82192 0.89642 0.70891 -0.10000
H 	H 	0.81360 0.90870 0.70840 0.06700
C 	C 	0.83860 0.89511 0.72254 0.06100
H 	H 	0.84160 0.90690 0.73110 0.00100
C 	C 	0.83301 0.86138 0.76763 0.06300
H 	H 	0.83410 0.85110 0.75700 -0.00100
C 	C 	0.81540 0.86166 0.77940 -0.10300
H 	H 	0.80450 0.85190 0.77690 0.06800
C 	C 	0.81360 0.87667 0.79530 0.00900
H 	H 	0.80160 0.87710 0.80410 0.03700
C 	C 	0.82984 0.89076 0.79783 -0.05200
C 	C 	0.84731 0.88915 0.78502 0.04200
H 	H 	0.85850 0.89870 0.78700 0.01100
C 	C 	0.82908 0.90698 0.81441 0.13500
C 	C 	0.87611 0.92522 0.75059 0.10800
N 	N 	0.86692 0.76475 0.65904 -0.22300
N 	N 	0.77446 0.89301 0.63715 -0.26100
N 	N 	0.76551 0.84758 0.62497 -0.22400
N 	N 	0.81091 0.84418 0.67040 -0.15100
N 	N 	0.82025 0.80971 0.66034 -0.15000
N 	N 	0.83763 0.82613 0.68887 -0.15100
N 	N 	0.85075 0.87815 0.72432 -0.22900
N 	N 	0.87676 0.90762 0.74881 -0.26400
N 	N 	0.84897 0.87476 0.77009 -0.22900
N 	N 	0.81397 0.90572 0.82831 -0.15200
S 	S 	0.79463 0.92188 0.66304 -0.05900
S 	S 	0.87346 0.95072 0.75216 -0.06200
C 	C 	0.35258 0.28011 0.65972 0.03300
H 	H 	0.34440 0.28270 0.64760 0.01400
C 	C 	0.34914 0.29250 0.67742 -0.04600
C 	C 	0.36072 0.28862 0.69523 0.00600
H 	H 	0.35920 0.29700 0.70740 0.03800
C 	C 	0.37482 0.27190 0.69486 -0.10000
H 	H 	0.38240 0.26820 0.70710 0.06600
C 	C 	0.37758 0.26093 0.67686 0.06100
H 	H 	0.38760 0.24990 0.67680 -0.00000
C 	C 	0.28338 0.40467 0.64774 0.09800
C 	C 	0.26321 0.33157 0.61148 0.05700
H 	H 	0.25320 0.33290 0.60060 -0.00000
C 	C 	0.27462 0.31334 0.61260 -0.09600
H 	H 	0.27200 0.30220 0.60310 0.06300
C 	C 	0.29007 0.31142 0.62779 0.00400
H 	H 	0.29870 0.29930 0.62840 0.03800
C 	C 	0.29249 0.32774 0.64210 -0.04500
C 	C 	0.28001 0.34528 0.64026 0.03100
H 	H 	0.28170 0.35620 0.65020 0.01700
C 	C 	0.30877 0.32718 0.65868 0.13400
C 	C 	0.33461 0.31030 0.67567 0.13300
C 	C 	0.32589 0.34316 0.68511 0.13300
C 	C 	0.34601 0.36178 0.71232 0.03900
H 	H 	0.35420 0.34940 0.71370 0.01200
C 	C 	0.32952 0.36185 0.69779 -0.05100
C 	C 	0.31735 0.37960 0.69589 0.00900
H 	H 	0.30620 0.38030 0.68600 0.03700
C 	C 	0.32192 0.39642 0.70891 -0.10000
H 	H 	0.31360 0.40870 0.70840 0.06700
C 	C 	0.33860 0.39511 0.72254 0.06100
H 	H 	0.34160 0.40690 0.73110 0.00100
C 	C 	0.33301 0.36138 0.76763 0.06300
H 	H 	0.33410 0.35110 0.75700 -0.00100
C 	C 	0.31540 0.36166 0.77940 -0.10300
H 	H 	0.30450 0.35190 0.77690 0.06800
C 	C 	0.31360 0.37667 0.79530 0.00900
H 	H 	0.30160 0.37710 0.80410 0.03700
C 	C 	0.32984 0.39076 0.79783 -0.05200
C 	C 	0.34731 0.38915 0.78502 0.04200
H 	H 	0.35850 0.39870 0.78700 0.01100
C 	C 	0.32908 0.40698 0.81441 0.13500
C 	C 	0.37611 0.42522 0.75059 0.10800
N 	N 	0.36692 0.26475 0.65904 -0.22300
N 	N 	0.27446 0.39301 0.63715 -0.26100
N 	N 	0.26551 0.34758 0.62497 -0.22400
N 	N 	0.31091 0.34418 0.67040 -0.15100
N 	N 	0.32025 0.30971 0.66034 -0.15000
N 	N 	0.33763 0.32613 0.68887 -0.15100
N 	N 	0.35075 0.37815 0.72432 -0.22900
N 	N 	0.37676 0.40762 0.74881 -0.26400
N 	N 	0.34897 0.37476 0.77009 -0.22900
N 	N 	0.31397 0.40572 0.82831 -0.15200
S 	S 	0.29463 0.42188 0.66304 -0.05900
S 	S 	0.37346 0.45072 0.75216 -0.06200
C 	C 	0.35258 0.78011 0.15972 0.03300
H 	H 	0.34440 0.78270 0.14760 0.01400
C 	C 	0.34914 0.79250 0.17742 -0.04600
C 	C 	0.36072 0.78862 0.19523 0.00600
H 	H 	0.35920 0.79700 0.20740 0.03800
C 	C 	0.37482 0.77190 0.19486 -0.10000
H 	H 	0.38240 0.76820 0.20710 0.06600
C 	C 	0.37758 0.76093 0.17686 0.06100
H 	H 	0.38760 0.74990 0.17680 -0.00000
C 	C 	0.28338 0.90467 0.14774 0.09800
C 	C 	0.26321 0.83157 0.11148 0.05700
H 	H 	0.25320 0.83290 0.10060 -0.00000
C 	C 	0.27462 0.81334 0.11260 -0.09600
H 	H 	0.27200 0.80220 0.10310 0.06300
C 	C 	0.29007 0.81142 0.12779 0.00400
H 	H 	0.29870 0.79930 0.12840 0.03800
C 	C 	0.29249 0.82774 0.14210 -0.04500
C 	C 	0.28001 0.84528 0.14026 0.03100
H 	H 	0.28170 0.85620 0.15020 0.01700
C 	C 	0.30877 0.82718 0.15868 0.13400
C 	C 	0.33461 0.81030 0.17567 0.13300
C 	C 	0.32589 0.84316 0.18511 0.13300
C 	C 	0.34601 0.86178 0.21232 0.03900
H 	H 	0.35420 0.84940 0.21370 0.01200
C 	C 	0.32952 0.86185 0.19779 -0.05100
C 	C 	0.31735 0.87960 0.19589 0.00900
H 	H 	0.30620 0.88030 0.18600 0.03700
C 	C 	0.32192 0.89642 0.20891 -0.10000
H 	H 	0.31360 0.90870 0.20840 0.06700
C 	C 	0.33860 0.89511 0.22254 0.06100
H 	H 	0.34160 0.90690 0.23110 0.00100
C 	C 	0.33301 0.86138 0.26763 0.06300
H 	H 	0.33410 0.85110 0.25700 -0.00100
C 	C 	0.31540 0.86166 0.27940 -0.10300
H 	H 	0.30450 0.85190 0.27690 0.06800
C 	C 	0.31360 0.87667 0.29530 0.00900
H 	H 	0.30160 0.87710 0.30410 0.03700
C 	C 	0.32984 0.89076 0.29783 -0.05200
C 	C 	0.34731 0.88915 0.28502 0.04200
H 	H 	0.35850 0.89870 0.28700 0.01100
C 	C 	0.32908 0.90698 0.31441 0.13500
C 	C 	0.37611 0.92522 0.25059 0.10800
N 	N 	0.36692 0.76475 0.15904 -0.22300
N 	N 	0.27446 0.89301 0.13715 -0.26100
N 	N 	0.26551 0.84758 0.12497 -0.22400
N 	N 	0.31091 0.84418 0.17040 -0.15100
N 	N 	0.32025 0.80971 0.16034 -0.15000
N 	N 	0.33763 0.82613 0.18887 -0.15100
N 	N 	0.35075 0.87815 0.22432 -0.22900
N 	N 	0.37676 0.90762 0.24881 -0.26400
N 	N 	0.34897 0.87476 0.27009 -0.22900
N 	N 	0.31397 0.90572 0.32831 -0.15200
S 	S 	0.29463 0.92188 0.16304 -0.05900
S 	S 	0.37346 0.95072 0.25216 -0.06200
C 	C 	0.89742 0.96989 0.65972 0.03300
H 	H 	0.90560 0.96730 0.64760 0.01400
C 	C 	0.90086 0.95750 0.67742 -0.04600
C 	C 	0.88928 0.96138 0.69523 0.00600
H 	H 	0.89080 0.95300 0.70740 0.03800
C 	C 	0.87518 0.97810 0.69486 -0.10000
H 	H 	0.86760 0.98180 0.70710 0.06600
C 	C 	0.87242 0.98907 0.67686 0.06100
H 	H 	0.86240 0.00010 0.67680 -0.00000
C 	C 	0.96662 0.84533 0.64774 0.09800
C 	C 	0.98679 0.91843 0.61148 0.05700
H 	H 	0.99680 0.91710 0.60060 -0.00000
C 	C 	0.97538 0.93666 0.61260 -0.09600
H 	H 	0.97800 0.94780 0.60310 0.06300
C 	C 	0.95993 0.93858 0.62779 0.00400
H 	H 	0.95130 0.95070 0.62840 0.03800
C 	C 	0.95751 0.92226 0.64210 -0.04500
C 	C 	0.96999 0.90472 0.64026 0.03100
H 	H 	0.96830 0.89380 0.65020 0.01700
C 	C 	0.94123 0.92282 0.65868 0.13400
C 	C 	0.91539 0.93970 0.67567 0.13300
C 	C 	0.92411 0.90684 0.68511 0.13300
C 	C 	0.90399 0.88822 0.71232 0.03900
H 	H 	0.89580 0.90060 0.71370 0.01200
C 	C 	0.92048 0.88815 0.69779 -0.05100
C 	C 	0.93265 0.87040 0.69589 0.00900
H 	H 	0.94380 0.86970 0.68600 0.03700
C 	C 	0.92808 0.85358 0.70891 -0.10000
H 	H 	0.93640 0.84130 0.70840 0.06700
C 	C 	0.91140 0.85489 0.72254 0.06100
H 	H 	0.90840 0.84310 0.73110 0.00100
C 	C 	0.91699 0.88862 0.76763 0.06300
H 	H 	0.91590 0.89890 0.75700 -0.00100
C 	C 	0.93460 0.88834 0.77940 -0.10300
H 	H 	0.94550 0.89810 0.77690 0.06800
C 	C 	0.93640 0.87333 0.79530 0.00900
H 	H 	0.94840 0.87290 0.80410 0.03700
C 	C 	0.92016 0.85924 0.79783 -0.05200
C 	C 	0.90269 0.86085 0.78502 0.04200
H 	H 	0.89150 0.85130 0.78700 0.01100
C 	C 	0.92092 0.84302 0.81441 0.13500
C 	C 	0.87389 0.82478 0.75059 0.10800
N 	N 	0.88308 0.98525 0.65904 -0.22300
N 	N 	0.97554 0.85699 0.63715 -0.26100
N 	N 	0.98449 0.90242 0.62497 -0.22400
N 	N 	0.93909 0.90582 0.67040 -0.15100
N 	N 	0.92975 0.94029 0.66034 -0.15000
N 	N 	0.91237 0.92387 0.68887 -0.15100
N 	N 	0.89925 0.87185 0.72432 -0.22900
N 	N 	0.87324 0.84238 0.74881 -0.26400
N 	N 	0.90103 0.87524 0.77009 -0.22900
N 	N 	0.93603 0.84428 0.82831 -0.15200
S 	S 	0.95537 0.82812 0.66304 -0.05900
S 	S 	0.87654 0.79928 0.75216 -0.06200
C 	C 	0.89742 0.46989 0.15972 0.03300
H 	H 	0.90560 0.46730 0.14760 0.01400
C 	C 	0.90086 0.45750 0.17742 -0.04600
C 	C 	0.88928 0.46138 0.19523 0.00600
H 	H 	0.89080 0.45300 0.20740 0.03800
C 	C 	0.87518 0.47810 0.19486 -0.10000
H 	H 	0.86760 0.48180 0.20710 0.06600
C 	C 	0.87242 0.48907 0.17686 0.06100
H 	H 	0.86240 0.50010 0.17680 -0.00000
C 	C 	0.96662 0.34533 0.14774 0.09800
C 	C 	0.98679 0.41843 0.11148 0.05700
H 	H 	0.99680 0.41710 0.10060 -0.00000
C 	C 	0.97538 0.43666 0.11260 -0.09600
H 	H 	0.97800 0.44780 0.10310 0.06300
C 	C 	0.95993 0.43858 0.12779 0.00400
H 	H 	0.95130 0.45070 0.12840 0.03800
C 	C 	0.95751 0.42226 0.14210 -0.04500
C 	C 	0.96999 0.40472 0.14026 0.03100
H 	H 	0.96830 0.39380 0.15020 0.01700
C 	C 	0.94123 0.42282 0.15868 0.13400
C 	C 	0.91539 0.43970 0.17567 0.13300
C 	C 	0.92411 0.40684 0.18511 0.13300
C 	C 	0.90399 0.38822 0.21232 0.03900
H 	H 	0.89580 0.40060 0.21370 0.01200
C 	C 	0.92048 0.38815 0.19779 -0.05100
C 	C 	0.93265 0.37040 0.19589 0.00900
H 	H 	0.94380 0.36970 0.18600 0.03700
C 	C 	0.92808 0.35358 0.20891 -0.10000
H 	H 	0.93640 0.34130 0.20840 0.06700
C 	C 	0.91140 0.35489 0.22254 0.06100
H 	H 	0.90840 0.34310 0.23110 0.00100
C 	C 	0.91699 0.38862 0.26763 0.06300
H 	H 	0.91590 0.39890 0.25700 -0.00100
C 	C 	0.93460 0.38834 0.27940 -0.10300
H 	H 	0.94550 0.39810 0.27690 0.06800
C 	C 	0.93640 0.37333 0.29530 0.00900
H 	H 	0.94840 0.37290 0.30410 0.03700
C 	C 	0.92016 0.35924 0.29783 -0.05200
C 	C 	0.90269 0.36085 0.28502 0.04200
H 	H 	0.89150 0.35130 0.28700 0.01100
C 	C 	0.92092 0.34302 0.31441 0.13500
C 	C 	0.87389 0.32478 0.25059 0.10800
N 	N 	0.88308 0.48525 0.15904 -0.22300
N 	N 	0.97554 0.35699 0.13715 -0.26100
N 	N 	0.98449 0.40242 0.12497 -0.22400
N 	N 	0.93909 0.40582 0.17040 -0.15100
N 	N 	0.92975 0.44029 0.16034 -0.15000
N 	N 	0.91237 0.42387 0.18887 -0.15100
N 	N 	0.89925 0.37185 0.22432 -0.22900
N 	N 	0.87324 0.34238 0.24881 -0.26400
N 	N 	0.90103 0.37524 0.27009 -0.22900
N 	N 	0.93603 0.34428 0.32831 -0.15200
S 	S 	0.95537 0.32812 0.16304 -0.05900
S 	S 	0.87654 0.29928 0.25216 -0.06200
C 	C 	0.39742 0.96989 0.15972 0.03300
H 	H 	0.40560 0.96730 0.14760 0.01400
C 	C 	0.40086 0.95750 0.17742 -0.04600
C 	C 	0.38928 0.96138 0.19523 0.00600
H 	H 	0.39080 0.95300 0.20740 0.03800
C 	C 	0.37518 0.97810 0.19486 -0.10000
H 	H 	0.36760 0.98180 0.20710 0.06600
C 	C 	0.37242 0.98907 0.17686 0.06100
H 	H 	0.36240 0.00010 0.17680 -0.00000
C 	C 	0.46662 0.84533 0.14774 0.09800
C 	C 	0.48679 0.91843 0.11148 0.05700
H 	H 	0.49680 0.91710 0.10060 -0.00000
C 	C 	0.47538 0.93666 0.11260 -0.09600
H 	H 	0.47800 0.94780 0.10310 0.06300
C 	C 	0.45993 0.93858 0.12779 0.00400
H 	H 	0.45130 0.95070 0.12840 0.03800
C 	C 	0.45751 0.92226 0.14210 -0.04500
C 	C 	0.46999 0.90472 0.14026 0.03100
H 	H 	0.46830 0.89380 0.15020 0.01700
C 	C 	0.44123 0.92282 0.15868 0.13400
C 	C 	0.41539 0.93970 0.17567 0.13300
C 	C 	0.42411 0.90684 0.18511 0.13300
C 	C 	0.40399 0.88822 0.21232 0.03900
H 	H 	0.39580 0.90060 0.21370 0.01200
C 	C 	0.42048 0.88815 0.19779 -0.05100
C 	C 	0.43265 0.87040 0.19589 0.00900
H 	H 	0.44380 0.86970 0.18600 0.03700
C 	C 	0.42808 0.85358 0.20891 -0.10000
H 	H 	0.43640 0.84130 0.20840 0.06700
C 	C 	0.41140 0.85489 0.22254 0.06100
H 	H 	0.40840 0.84310 0.23110 0.00100
C 	C 	0.41699 0.88862 0.26763 0.06300
H 	H 	0.41590 0.89890 0.25700 -0.00100
C 	C 	0.43460 0.88834 0.27940 -0.10300
H 	H 	0.44550 0.89810 0.27690 0.06800
C 	C 	0.43640 0.87333 0.29530 0.00900
H 	H 	0.44840 0.87290 0.30410 0.03700
C 	C 	0.42016 0.85924 0.29783 -0.05200
C 	C 	0.40269 0.86085 0.28502 0.04200
H 	H 	0.39150 0.85130 0.28700 0.01100
C 	C 	0.42092 0.84302 0.31441 0.13500
C 	C 	0.37389 0.82478 0.25059 0.10800
N 	N 	0.38308 0.98525 0.15904 -0.22300
N 	N 	0.47554 0.85699 0.13715 -0.26100
N 	N 	0.48449 0.90242 0.12497 -0.22400
N 	N 	0.43909 0.90582 0.17040 -0.15100
N 	N 	0.42975 0.94029 0.16034 -0.15000
N 	N 	0.41237 0.92387 0.18887 -0.15100
N 	N 	0.39925 0.87185 0.22432 -0.22900
N 	N 	0.37324 0.84238 0.24881 -0.26400
N 	N 	0.40103 0.87524 0.27009 -0.22900
N 	N 	0.43603 0.84428 0.32831 -0.15200
S 	S 	0.45537 0.82812 0.16304 -0.05900
S 	S 	0.37654 0.79928 0.25216 -0.06200
C 	C 	0.39742 0.46989 0.65972 0.03300
H 	H 	0.40560 0.46730 0.64760 0.01400
C 	C 	0.40086 0.45750 0.67742 -0.04600
C 	C 	0.38928 0.46138 0.69523 0.00600
H 	H 	0.39080 0.45300 0.70740 0.03800
C 	C 	0.37518 0.47810 0.69486 -0.10000
H 	H 	0.36760 0.48180 0.70710 0.06600
C 	C 	0.37242 0.48907 0.67686 0.06100
H 	H 	0.36240 0.50010 0.67680 -0.00000
C 	C 	0.46662 0.34533 0.64774 0.09800
C 	C 	0.48679 0.41843 0.61148 0.05700
H 	H 	0.49680 0.41710 0.60060 -0.00000
C 	C 	0.47538 0.43666 0.61260 -0.09600
H 	H 	0.47800 0.44780 0.60310 0.06300
C 	C 	0.45993 0.43858 0.62779 0.00400
H 	H 	0.45130 0.45070 0.62840 0.03800
C 	C 	0.45751 0.42226 0.64210 -0.04500
C 	C 	0.46999 0.40472 0.64026 0.03100
H 	H 	0.46830 0.39380 0.65020 0.01700
C 	C 	0.44123 0.42282 0.65868 0.13400
C 	C 	0.41539 0.43970 0.67567 0.13300
C 	C 	0.42411 0.40684 0.68511 0.13300
C 	C 	0.40399 0.38822 0.71232 0.03900
H 	H 	0.39580 0.40060 0.71370 0.01200
C 	C 	0.42048 0.38815 0.69779 -0.05100
C 	C 	0.43265 0.37040 0.69589 0.00900
H 	H 	0.44380 0.36970 0.68600 0.03700
C 	C 	0.42808 0.35358 0.70891 -0.10000
H 	H 	0.43640 0.34130 0.70840 0.06700
C 	C 	0.41140 0.35489 0.72254 0.06100
H 	H 	0.40840 0.34310 0.73110 0.00100
C 	C 	0.41699 0.38862 0.76763 0.06300
H 	H 	0.41590 0.39890 0.75700 -0.00100
C 	C 	0.43460 0.38834 0.77940 -0.10300
H 	H 	0.44550 0.39810 0.77690 0.06800
C 	C 	0.43640 0.37333 0.79530 0.00900
H 	H 	0.44840 0.37290 0.80410 0.03700
C 	C 	0.42016 0.35924 0.79783 -0.05200
C 	C 	0.40269 0.36085 0.78502 0.04200
H 	H 	0.39150 0.35130 0.78700 0.01100
C 	C 	0.42092 0.34302 0.81441 0.13500
C 	C 	0.37389 0.32478 0.75059 0.10800
N 	N 	0.38308 0.48525 0.65904 -0.22300
N 	N 	0.47554 0.35699 0.63715 -0.26100
N 	N 	0.48449 0.40242 0.62497 -0.22400
N 	N 	0.43909 0.40582 0.67040 -0.15100
N 	N 	0.42975 0.44029 0.66034 -0.15000
N 	N 	0.41237 0.42387 0.68887 -0.15100
N 	N 	0.39925 0.37185 0.72432 -0.22900
N 	N 	0.37324 0.34238 0.74881 -0.26400
N 	N 	0.40103 0.37524 0.77009 -0.22900
N 	N 	0.43603 0.34428 0.82831 -0.15200
S 	S 	0.45537 0.32812 0.66304 -0.05900
S 	S 	0.37654 0.29928 0.75216 -0.06200
C 	C 	0.35258 0.46989 0.09028 0.03300
H 	H 	0.34440 0.46730 0.10240 0.01400
C 	C 	0.34914 0.45750 0.07258 -0.04600
C 	C 	0.36072 0.46138 0.05477 0.00600
H 	H 	0.35920 0.45300 0.04260 0.03800
C 	C 	0.37482 0.47810 0.05514 -0.10000
H 	H 	0.38240 0.48180 0.04290 0.06600
C 	C 	0.37758 0.48907 0.07314 0.06100
H 	H 	0.38760 0.50010 0.07320 -0.00000
C 	C 	0.28338 0.34533 0.10226 0.09800
C 	C 	0.26321 0.41843 0.13852 0.05700
H 	H 	0.25320 0.41710 0.14940 -0.00000
C 	C 	0.27462 0.43666 0.13740 -0.09600
H 	H 	0.27200 0.44780 0.14690 0.06300
C 	C 	0.29007 0.43858 0.12221 0.00400
H 	H 	0.29870 0.45070 0.12160 0.03800
C 	C 	0.29249 0.42226 0.10790 -0.04500
C 	C 	0.28001 0.40472 0.10974 0.03100
H 	H 	0.28170 0.39380 0.09980 0.01700
C 	C 	0.30877 0.42282 0.09132 0.13400
C 	C 	0.33461 0.43970 0.07433 0.13300
C 	C 	0.32589 0.40684 0.06489 0.13300
C 	C 	0.34601 0.38822 0.03768 0.03900
H 	H 	0.35420 0.40060 0.03630 0.01200
C 	C 	0.32952 0.38815 0.05221 -0.05100
C 	C 	0.31735 0.37040 0.05411 0.00900
H 	H 	0.30620 0.36970 0.06400 0.03700
C 	C 	0.32192 0.35358 0.04109 -0.10000
H 	H 	0.31360 0.34130 0.04160 0.06700
C 	C 	0.33860 0.35489 0.02746 0.06100
H 	H 	0.34160 0.34310 0.01890 0.00100
C 	C 	0.33301 0.38862 0.98237 0.06300
H 	H 	0.33410 0.39890 0.99300 -0.00100
C 	C 	0.31540 0.38834 0.97060 -0.10300
H 	H 	0.30450 0.39810 0.97310 0.06800
C 	C 	0.31360 0.37333 0.95470 0.00900
H 	H 	0.30160 0.37290 0.94590 0.03700
C 	C 	0.32984 0.35924 0.95217 -0.05200
C 	C 	0.34731 0.36085 0.96498 0.04200
H 	H 	0.35850 0.35130 0.96300 0.01100
C 	C 	0.32908 0.34302 0.93559 0.13500
C 	C 	0.37611 0.32478 0.99941 0.10800
N 	N 	0.36692 0.48525 0.09096 -0.22300
N 	N 	0.27446 0.35699 0.11285 -0.26100
N 	N 	0.26551 0.40242 0.12503 -0.22400
N 	N 	0.31091 0.40582 0.07960 -0.15100
N 	N 	0.32025 0.44029 0.08966 -0.15000
N 	N 	0.33763 0.42387 0.06113 -0.15100
N 	N 	0.35075 0.37185 0.02568 -0.22900
N 	N 	0.37676 0.34238 0.00119 -0.26400
N 	N 	0.34897 0.37524 0.97991 -0.22900
N 	N 	0.31397 0.34428 0.92169 -0.15200
S 	S 	0.29463 0.32812 0.08696 -0.05900
S 	S 	0.37346 0.29928 0.99784 -0.06200
C 	C 	0.35258 0.96989 0.59028 0.03300
H 	H 	0.34440 0.96730 0.60240 0.01400
C 	C 	0.34914 0.95750 0.57258 -0.04600
C 	C 	0.36072 0.96138 0.55477 0.00600
H 	H 	0.35920 0.95300 0.54260 0.03800
C 	C 	0.37482 0.97810 0.55514 -0.10000
H 	H 	0.38240 0.98180 0.54290 0.06600
C 	C 	0.37758 0.98907 0.57314 0.06100
H 	H 	0.38760 0.00010 0.57320 -0.00000
C 	C 	0.28338 0.84533 0.60226 0.09800
C 	C 	0.26321 0.91843 0.63852 0.05700
H 	H 	0.25320 0.91710 0.64940 -0.00000
C 	C 	0.27462 0.93666 0.63740 -0.09600
H 	H 	0.27200 0.94780 0.64690 0.06300
C 	C 	0.29007 0.93858 0.62221 0.00400
H 	H 	0.29870 0.95070 0.62160 0.03800
C 	C 	0.29249 0.92226 0.60790 -0.04500
C 	C 	0.28001 0.90472 0.60974 0.03100
H 	H 	0.28170 0.89380 0.59980 0.01700
C 	C 	0.30877 0.92282 0.59132 0.13400
C 	C 	0.33461 0.93970 0.57433 0.13300
C 	C 	0.32589 0.90684 0.56489 0.13300
C 	C 	0.34601 0.88822 0.53768 0.03900
H 	H 	0.35420 0.90060 0.53630 0.01200
C 	C 	0.32952 0.88815 0.55221 -0.05100
C 	C 	0.31735 0.87040 0.55411 0.00900
H 	H 	0.30620 0.86970 0.56400 0.03700
C 	C 	0.32192 0.85358 0.54109 -0.10000
H 	H 	0.31360 0.84130 0.54160 0.06700
C 	C 	0.33860 0.85489 0.52746 0.06100
H 	H 	0.34160 0.84310 0.51890 0.00100
C 	C 	0.33301 0.88862 0.48237 0.06300
H 	H 	0.33410 0.89890 0.49300 -0.00100
C 	C 	0.31540 0.88834 0.47060 -0.10300
H 	H 	0.30450 0.89810 0.47310 0.06800
C 	C 	0.31360 0.87333 0.45470 0.00900
H 	H 	0.30160 0.87290 0.44590 0.03700
C 	C 	0.32984 0.85924 0.45217 -0.05200
C 	C 	0.34731 0.86085 0.46498 0.04200
H 	H 	0.35850 0.85130 0.46300 0.01100
C 	C 	0.32908 0.84302 0.43559 0.13500
C 	C 	0.37611 0.82478 0.49941 0.10800
N 	N 	0.36692 0.98525 0.59096 -0.22300
N 	N 	0.27446 0.85699 0.61285 -0.26100
N 	N 	0.26551 0.90242 0.62503 -0.22400
N 	N 	0.31091 0.90582 0.57960 -0.15100
N 	N 	0.32025 0.94029 0.58966 -0.15000
N 	N 	0.33763 0.92387 0.56113 -0.15100
N 	N 	0.35075 0.87185 0.52568 -0.22900
N 	N 	0.37676 0.84238 0.50119 -0.26400
N 	N 	0.34897 0.87524 0.47991 -0.22900
N 	N 	0.31397 0.84428 0.42169 -0.15200
S 	S 	0.29463 0.82812 0.58696 -0.05900
S 	S 	0.37346 0.79928 0.49784 -0.06200
C 	C 	0.85258 0.46989 0.59028 0.03300
H 	H 	0.84440 0.46730 0.60240 0.01400
C 	C 	0.84914 0.45750 0.57258 -0.04600
C 	C 	0.86072 0.46138 0.55477 0.00600
H 	H 	0.85920 0.45300 0.54260 0.03800
C 	C 	0.87482 0.47810 0.55514 -0.10000
H 	H 	0.88240 0.48180 0.54290 0.06600
C 	C 	0.87758 0.48907 0.57314 0.06100
H 	H 	0.88760 0.50010 0.57320 -0.00000
C 	C 	0.78338 0.34533 0.60226 0.09800
C 	C 	0.76321 0.41843 0.63852 0.05700
H 	H 	0.75320 0.41710 0.64940 -0.00000
C 	C 	0.77462 0.43666 0.63740 -0.09600
H 	H 	0.77200 0.44780 0.64690 0.06300
C 	C 	0.79007 0.43858 0.62221 0.00400
H 	H 	0.79870 0.45070 0.62160 0.03800
C 	C 	0.79249 0.42226 0.60790 -0.04500
C 	C 	0.78001 0.40472 0.60974 0.03100
H 	H 	0.78170 0.39380 0.59980 0.01700
C 	C 	0.80877 0.42282 0.59132 0.13400
C 	C 	0.83461 0.43970 0.57433 0.13300
C 	C 	0.82589 0.40684 0.56489 0.13300
C 	C 	0.84601 0.38822 0.53768 0.03900
H 	H 	0.85420 0.40060 0.53630 0.01200
C 	C 	0.82952 0.38815 0.55221 -0.05100
C 	C 	0.81735 0.37040 0.55411 0.00900
H 	H 	0.80620 0.36970 0.56400 0.03700
C 	C 	0.82192 0.35358 0.54109 -0.10000
H 	H 	0.81360 0.34130 0.54160 0.06700
C 	C 	0.83860 0.35489 0.52746 0.06100
H 	H 	0.84160 0.34310 0.51890 0.00100
C 	C 	0.83301 0.38862 0.48237 0.06300
H 	H 	0.83410 0.39890 0.49300 -0.00100
C 	C 	0.81540 0.38834 0.47060 -0.10300
H 	H 	0.80450 0.39810 0.47310 0.06800
C 	C 	0.81360 0.37333 0.45470 0.00900
H 	H 	0.80160 0.37290 0.44590 0.03700
C 	C 	0.82984 0.35924 0.45217 -0.05200
C 	C 	0.84731 0.36085 0.46498 0.04200
H 	H 	0.85850 0.35130 0.46300 0.01100
C 	C 	0.82908 0.34302 0.43559 0.13500
C 	C 	0.87611 0.32478 0.49941 0.10800
N 	N 	0.86692 0.48525 0.59096 -0.22300
N 	N 	0.77446 0.35699 0.61285 -0.26100
N 	N 	0.76551 0.40242 0.62503 -0.22400
N 	N 	0.81091 0.40582 0.57960 -0.15100
N 	N 	0.82025 0.44029 0.58966 -0.15000
N 	N 	0.83763 0.42387 0.56113 -0.15100
N 	N 	0.85075 0.37185 0.52568 -0.22900
N 	N 	0.87676 0.34238 0.50119 -0.26400
N 	N 	0.84897 0.37524 0.47991 -0.22900
N 	N 	0.81397 0.34428 0.42169 -0.15200
S 	S 	0.79463 0.32812 0.58696 -0.05900
S 	S 	0.87346 0.29928 0.49784 -0.06200
C 	C 	0.85258 0.96989 0.09028 0.03300
H 	H 	0.84440 0.96730 0.10240 0.01400
C 	C 	0.84914 0.95750 0.07258 -0.04600
C 	C 	0.86072 0.96138 0.05477 0.00600
H 	H 	0.85920 0.95300 0.04260 0.03800
C 	C 	0.87482 0.97810 0.05514 -0.10000
H 	H 	0.88240 0.98180 0.04290 0.06600
C 	C 	0.87758 0.98907 0.07314 0.06100
H 	H 	0.88760 0.00010 0.07320 -0.00000
C 	C 	0.78338 0.84533 0.10226 0.09800
C 	C 	0.76321 0.91843 0.13852 0.05700
H 	H 	0.75320 0.91710 0.14940 -0.00000
C 	C 	0.77462 0.93666 0.13740 -0.09600
H 	H 	0.77200 0.94780 0.14690 0.06300
C 	C 	0.79007 0.93858 0.12221 0.00400
H 	H 	0.79870 0.95070 0.12160 0.03800
C 	C 	0.79249 0.92226 0.10790 -0.04500
C 	C 	0.78001 0.90472 0.10974 0.03100
H 	H 	0.78170 0.89380 0.09980 0.01700
C 	C 	0.80877 0.92282 0.09132 0.13400
C 	C 	0.83461 0.93970 0.07433 0.13300
C 	C 	0.82589 0.90684 0.06489 0.13300
C 	C 	0.84601 0.88822 0.03768 0.03900
H 	H 	0.85420 0.90060 0.03630 0.01200
C 	C 	0.82952 0.88815 0.05221 -0.05100
C 	C 	0.81735 0.87040 0.05411 0.00900
H 	H 	0.80620 0.86970 0.06400 0.03700
C 	C 	0.82192 0.85358 0.04109 -0.10000
H 	H 	0.81360 0.84130 0.04160 0.06700
C 	C 	0.83860 0.85489 0.02746 0.06100
H 	H 	0.84160 0.84310 0.01890 0.00100
C 	C 	0.83301 0.88862 0.98237 0.06300
H 	H 	0.83410 0.89890 0.99300 -0.00100
C 	C 	0.81540 0.88834 0.97060 -0.10300
H 	H 	0.80450 0.89810 0.97310 0.06800
C 	C 	0.81360 0.87333 0.95470 0.00900
H 	H 	0.80160 0.87290 0.94590 0.03700
C 	C 	0.82984 0.85924 0.95217 -0.05200
C 	C 	0.84731 0.86085 0.96498 0.04200
H 	H 	0.85850 0.85130 0.96300 0.01100
C 	C 	0.82908 0.84302 0.93559 0.13500
C 	C 	0.87611 0.82478 0.99941 0.10800
N 	N 	0.86692 0.98525 0.09096 -0.22300
N 	N 	0.77446 0.85699 0.11285 -0.26100
N 	N 	0.76551 0.90242 0.12503 -0.22400
N 	N 	0.81091 0.90582 0.07960 -0.15100
N 	N 	0.82025 0.94029 0.08966 -0.15000
N 	N 	0.83763 0.92387 0.06113 -0.15100
N 	N 	0.85075 0.87185 0.02568 -0.22900
N 	N 	0.87676 0.84238 0.00119 -0.26400
N 	N 	0.84897 0.87524 0.97991 -0.22900
N 	N 	0.81397 0.84428 0.92169 -0.15200
S 	S 	0.79463 0.82812 0.08696 -0.05900
S 	S 	0.87346 0.79928 0.99784 -0.06200
C 	C 	0.64742 0.34028 0.21989 0.03300
H 	H 	0.65560 0.35240 0.21730 0.01400
C 	C 	0.65086 0.32258 0.20750 -0.04600
C 	C 	0.63928 0.30477 0.21138 0.00600
H 	H 	0.64080 0.29260 0.20300 0.03800
C 	C 	0.62518 0.30514 0.22810 -0.10000
H 	H 	0.61760 0.29290 0.23180 0.06600
C 	C 	0.62242 0.32314 0.23907 0.06100
H 	H 	0.61240 0.32320 0.25010 -0.00000
C 	C 	0.71662 0.35226 0.09533 0.09800
C 	C 	0.73679 0.38852 0.16843 0.05700
H 	H 	0.74680 0.39940 0.16710 -0.00000
C 	C 	0.72538 0.38740 0.18666 -0.09600
H 	H 	0.72800 0.39690 0.19780 0.06300
C 	C 	0.70993 0.37221 0.18858 0.00400
H 	H 	0.70130 0.37160 0.20070 0.03800
C 	C 	0.70751 0.35790 0.17226 -0.04500
C 	C 	0.71999 0.35974 0.15472 0.03100
H 	H 	0.71830 0.34980 0.14380 0.01700
C 	C 	0.69123 0.34132 0.17282 0.13400
C 	C 	0.66539 0.32433 0.18970 0.13300
C 	C 	0.67411 0.31489 0.15684 0.13300
C 	C 	0.65399 0.28768 0.13822 0.03900
H 	H 	0.64580 0.28630 0.15060 0.01200
C 	C 	0.67048 0.30221 0.13815 -0.05100
C 	C 	0.68265 0.30411 0.12040 0.00900
H 	H 	0.69380 0.31400 0.11970 0.03700
C 	C 	0.67808 0.29109 0.10358 -0.10000
H 	H 	0.68640 0.29160 0.09130 0.06700
C 	C 	0.66140 0.27746 0.10489 0.06100
H 	H 	0.65840 0.26890 0.09310 0.00100
C 	C 	0.66699 0.23237 0.13862 0.06300
H 	H 	0.66590 0.24300 0.14890 -0.00100
C 	C 	0.68460 0.22060 0.13834 -0.10300
H 	H 	0.69550 0.22310 0.14810 0.06800
C 	C 	0.68640 0.20470 0.12333 0.00900
H 	H 	0.69840 0.19590 0.12290 0.03700
C 	C 	0.67016 0.20217 0.10924 -0.05200
C 	C 	0.65269 0.21498 0.11085 0.04200
H 	H 	0.64150 0.21300 0.10130 0.01100
C 	C 	0.67092 0.18559 0.09302 0.13500
C 	C 	0.62389 0.24941 0.07478 0.10800
N 	N 	0.63308 0.34096 0.23525 -0.22300
N 	N 	0.72554 0.36285 0.10699 -0.26100
N 	N 	0.73449 0.37503 0.15242 -0.22400
N 	N 	0.68909 0.32960 0.15582 -0.15100
N 	N 	0.67975 0.33966 0.19029 -0.15000
N 	N 	0.66237 0.31113 0.17387 -0.15100
N 	N 	0.64925 0.27568 0.12185 -0.22900
N 	N 	0.62324 0.25119 0.09238 -0.26400
N 	N 	0.65103 0.22991 0.12524 -0.22900
N 	N 	0.68603 0.17169 0.09428 -0.15200
S 	S 	0.70537 0.33696 0.07812 -0.05900
S 	S 	0.62654 0.24784 0.04928 -0.06200
C 	C 	0.64742 0.84028 0.71989 0.03300
H 	H 	0.65560 0.85240 0.71730 0.01400
C 	C 	0.65086 0.82258 0.70750 -0.04600
C 	C 	0.63928 0.80477 0.71138 0.00600
H 	H 	0.64080 0.79260 0.70300 0.03800
C 	C 	0.62518 0.80514 0.72810 -0.10000
H 	H 	0.61760 0.79290 0.73180 0.06600
C 	C 	0.62242 0.82314 0.73907 0.06100
H 	H 	0.61240 0.82320 0.75010 -0.00000
C 	C 	0.71662 0.85226 0.59533 0.09800
C 	C 	0.73679 0.88852 0.66843 0.05700
H 	H 	0.74680 0.89940 0.66710 -0.00000
C 	C 	0.72538 0.88740 0.68666 -0.09600
H 	H 	0.72800 0.89690 0.69780 0.06300
C 	C 	0.70993 0.87221 0.68858 0.00400
H 	H 	0.70130 0.87160 0.70070 0.03800
C 	C 	0.70751 0.85790 0.67226 -0.04500
C 	C 	0.71999 0.85974 0.65472 0.03100
H 	H 	0.71830 0.84980 0.64380 0.01700
C 	C 	0.69123 0.84132 0.67282 0.13400
C 	C 	0.66539 0.82433 0.68970 0.13300
C 	C 	0.67411 0.81489 0.65684 0.13300
C 	C 	0.65399 0.78768 0.63822 0.03900
H 	H 	0.64580 0.78630 0.65060 0.01200
C 	C 	0.67048 0.80221 0.63815 -0.05100
C 	C 	0.68265 0.80411 0.62040 0.00900
H 	H 	0.69380 0.81400 0.61970 0.03700
C 	C 	0.67808 0.79109 0.60358 -0.10000
H 	H 	0.68640 0.79160 0.59130 0.06700
C 	C 	0.66140 0.77746 0.60489 0.06100
H 	H 	0.65840 0.76890 0.59310 0.00100
C 	C 	0.66699 0.73237 0.63862 0.06300
H 	H 	0.66590 0.74300 0.64890 -0.00100
C 	C 	0.68460 0.72060 0.63834 -0.10300
H 	H 	0.69550 0.72310 0.64810 0.06800
C 	C 	0.68640 0.70470 0.62333 0.00900
H 	H 	0.69840 0.69590 0.62290 0.03700
C 	C 	0.67016 0.70217 0.60924 -0.05200
C 	C 	0.65269 0.71498 0.61085 0.04200
H 	H 	0.64150 0.71300 0.60130 0.01100
C 	C 	0.67092 0.68559 0.59302 0.13500
C 	C 	0.62389 0.74941 0.57478 0.10800
N 	N 	0.63308 0.84096 0.73525 -0.22300
N 	N 	0.72554 0.86285 0.60699 -0.26100
N 	N 	0.73449 0.87503 0.65242 -0.22400
N 	N 	0.68909 0.82960 0.65582 -0.15100
N 	N 	0.67975 0.83966 0.69029 -0.15000
N 	N 	0.66237 0.81113 0.67387 -0.15100
N 	N 	0.64925 0.77568 0.62185 -0.22900
N 	N 	0.62324 0.75119 0.59238 -0.26400
N 	N 	0.65103 0.72991 0.62524 -0.22900
N 	N 	0.68603 0.67169 0.59428 -0.15200
S 	S 	0.70537 0.83696 0.57812 -0.05900
S 	S 	0.62654 0.74784 0.54928 -0.06200
C 	C 	0.14742 0.34028 0.71989 0.03300
H 	H 	0.15560 0.35240 0.71730 0.01400
C 	C 	0.15086 0.32258 0.70750 -0.04600
C 	C 	0.13928 0.30477 0.71138 0.00600
H 	H 	0.14080 0.29260 0.70300 0.03800
C 	C 	0.12518 0.30514 0.72810 -0.10000
H 	H 	0.11760 0.29290 0.73180 0.06600
C 	C 	0.12242 0.32314 0.73907 0.06100
H 	H 	0.11240 0.32320 0.75010 -0.00000
C 	C 	0.21662 0.35226 0.59533 0.09800
C 	C 	0.23679 0.38852 0.66843 0.05700
H 	H 	0.24680 0.39940 0.66710 -0.00000
C 	C 	0.22538 0.38740 0.68666 -0.09600
H 	H 	0.22800 0.39690 0.69780 0.06300
C 	C 	0.20993 0.37221 0.68858 0.00400
H 	H 	0.20130 0.37160 0.70070 0.03800
C 	C 	0.20751 0.35790 0.67226 -0.04500
C 	C 	0.21999 0.35974 0.65472 0.03100
H 	H 	0.21830 0.34980 0.64380 0.01700
C 	C 	0.19123 0.34132 0.67282 0.13400
C 	C 	0.16539 0.32433 0.68970 0.13300
C 	C 	0.17411 0.31489 0.65684 0.13300
C 	C 	0.15399 0.28768 0.63822 0.03900
H 	H 	0.14580 0.28630 0.65060 0.01200
C 	C 	0.17048 0.30221 0.63815 -0.05100
C 	C 	0.18265 0.30411 0.62040 0.00900
H 	H 	0.19380 0.31400 0.61970 0.03700
C 	C 	0.17808 0.29109 0.60358 -0.10000
H 	H 	0.18640 0.29160 0.59130 0.06700
C 	C 	0.16140 0.27746 0.60489 0.06100
H 	H 	0.15840 0.26890 0.59310 0.00100
C 	C 	0.16699 0.23237 0.63862 0.06300
H 	H 	0.16590 0.24300 0.64890 -0.00100
C 	C 	0.18460 0.22060 0.63834 -0.10300
H 	H 	0.19550 0.22310 0.64810 0.06800
C 	C 	0.18640 0.20470 0.62333 0.00900
H 	H 	0.19840 0.19590 0.62290 0.03700
C 	C 	0.17016 0.20217 0.60924 -0.05200
C 	C 	0.15269 0.21498 0.61085 0.04200
H 	H 	0.14150 0.21300 0.60130 0.01100
C 	C 	0.17092 0.18559 0.59302 0.13500
C 	C 	0.12389 0.24941 0.57478 0.10800
N 	N 	0.13308 0.34096 0.73525 -0.22300
N 	N 	0.22554 0.36285 0.60699 -0.26100
N 	N 	0.23449 0.37503 0.65242 -0.22400
N 	N 	0.18909 0.32960 0.65582 -0.15100
N 	N 	0.17975 0.33966 0.69029 -0.15000
N 	N 	0.16237 0.31113 0.67387 -0.15100
N 	N 	0.14925 0.27568 0.62185 -0.22900
N 	N 	0.12324 0.25119 0.59238 -0.26400
N 	N 	0.15103 0.22991 0.62524 -0.22900
N 	N 	0.18603 0.17169 0.59428 -0.15200
S 	S 	0.20537 0.33696 0.57812 -0.05900
S 	S 	0.12654 0.24784 0.54928 -0.06200
C 	C 	0.14742 0.84028 0.21989 0.03300
H 	H 	0.15560 0.85240 0.21730 0.01400
C 	C 	0.15086 0.82258 0.20750 -0.04600
C 	C 	0.13928 0.80477 0.21138 0.00600
H 	H 	0.14080 0.79260 0.20300 0.03800
C 	C 	0.12518 0.80514 0.22810 -0.10000
H 	H 	0.11760 0.79290 0.23180 0.06600
C 	C 	0.12242 0.82314 0.23907 0.06100
H 	H 	0.11240 0.82320 0.25010 -0.00000
C 	C 	0.21662 0.85226 0.09533 0.09800
C 	C 	0.23679 0.88852 0.16843 0.05700
H 	H 	0.24680 0.89940 0.16710 -0.00000
C 	C 	0.22538 0.88740 0.18666 -0.09600
H 	H 	0.22800 0.89690 0.19780 0.06300
C 	C 	0.20993 0.87221 0.18858 0.00400
H 	H 	0.20130 0.87160 0.20070 0.03800
C 	C 	0.20751 0.85790 0.17226 -0.04500
C 	C 	0.21999 0.85974 0.15472 0.03100
H 	H 	0.21830 0.84980 0.14380 0.01700
C 	C 	0.19123 0.84132 0.17282 0.13400
C 	C 	0.16539 0.82433 0.18970 0.13300
C 	C 	0.17411 0.81489 0.15684 0.13300
C 	C 	0.15399 0.78768 0.13822 0.03900
H 	H 	0.14580 0.78630 0.15060 0.01200
C 	C 	0.17048 0.80221 0.13815 -0.05100
C 	C 	0.18265 0.80411 0.12040 0.00900
H 	H 	0.19380 0.81400 0.11970 0.03700
C 	C 	0.17808 0.79109 0.10358 -0.10000
H 	H 	0.18640 0.79160 0.09130 0.06700
C 	C 	0.16140 0.77746 0.10489 0.06100
H 	H 	0.15840 0.76890 0.09310 0.00100
C 	C 	0.16699 0.73237 0.13862 0.06300
H 	H 	0.16590 0.74300 0.14890 -0.00100
C 	C 	0.18460 0.72060 0.13834 -0.10300
H 	H 	0.19550 0.72310 0.14810 0.06800
C 	C 	0.18640 0.70470 0.12333 0.00900
H 	H 	0.19840 0.69590 0.12290 0.03700
C 	C 	0.17016 0.70217 0.10924 -0.05200
C 	C 	0.15269 0.71498 0.11085 0.04200
H 	H 	0.14150 0.71300 0.10130 0.01100
C 	C 	0.17092 0.68559 0.09302 0.13500
C 	C 	0.12389 0.74941 0.07478 0.10800
N 	N 	0.13308 0.84096 0.23525 -0.22300
N 	N 	0.22554 0.86285 0.10699 -0.26100
N 	N 	0.23449 0.87503 0.15242 -0.22400
N 	N 	0.18909 0.82960 0.15582 -0.15100
N 	N 	0.17975 0.83966 0.19029 -0.15000
N 	N 	0.16237 0.81113 0.17387 -0.15100
N 	N 	0.14925 0.77568 0.12185 -0.22900
N 	N 	0.12324 0.75119 0.09238 -0.26400
N 	N 	0.15103 0.72991 0.12524 -0.22900
N 	N 	0.18603 0.67169 0.09428 -0.15200
S 	S 	0.20537 0.83696 0.07812 -0.05900
S 	S 	0.12654 0.74784 0.04928 -0.06200
C 	C 	0.10258 0.90972 0.71989 0.03300
H 	H 	0.09440 0.89760 0.71730 0.01400
C 	C 	0.09914 0.92742 0.70750 -0.04600
C 	C 	0.11072 0.94523 0.71138 0.00600
H 	H 	0.10920 0.95740 0.70300 0.03800
C 	C 	0.12482 0.94486 0.72810 -0.10000
H 	H 	0.13240 0.95710 0.73180 0.06600
C 	C 	0.12758 0.92686 0.73907 0.06100
H 	H 	0.13760 0.92680 0.75010 -0.00000
C 	C 	0.03338 0.89774 0.59533 0.09800
C 	C 	0.01321 0.86148 0.66843 0.05700
H 	H 	0.00320 0.85060 0.66710 -0.00000
C 	C 	0.02462 0.86260 0.68666 -0.09600
H 	H 	0.02200 0.85310 0.69780 0.06300
C 	C 	0.04007 0.87779 0.68858 0.00400
H 	H 	0.04870 0.87840 0.70070 0.03800
C 	C 	0.04249 0.89210 0.67226 -0.04500
C 	C 	0.03001 0.89026 0.65472 0.03100
H 	H 	0.03170 0.90020 0.64380 0.01700
C 	C 	0.05877 0.90868 0.67282 0.13400
C 	C 	0.08461 0.92567 0.68970 0.13300
C 	C 	0.07589 0.93511 0.65684 0.13300
C 	C 	0.09601 0.96232 0.63822 0.03900
H 	H 	0.10420 0.96370 0.65060 0.01200
C 	C 	0.07952 0.94779 0.63815 -0.05100
C 	C 	0.06735 0.94589 0.62040 0.00900
H 	H 	0.05620 0.93600 0.61970 0.03700
C 	C 	0.07192 0.95891 0.60358 -0.10000
H 	H 	0.06360 0.95840 0.59130 0.06700
C 	C 	0.08860 0.97254 0.60489 0.06100
H 	H 	0.09160 0.98110 0.59310 0.00100
C 	C 	0.08301 0.01763 0.63862 0.06300
H 	H 	0.08410 0.00700 0.64890 -0.00100
C 	C 	0.06540 0.02940 0.63834 -0.10300
H 	H 	0.05450 0.02690 0.64810 0.06800
C 	C 	0.06360 0.04530 0.62333 0.00900
H 	H 	0.05160 0.05410 0.62290 0.03700
C 	C 	0.07984 0.04783 0.60924 -0.05200
C 	C 	0.09731 0.03502 0.61085 0.04200
H 	H 	0.10850 0.03700 0.60130 0.01100
C 	C 	0.07908 0.06441 0.59302 0.13500
C 	C 	0.12611 0.00059 0.57478 0.10800
N 	N 	0.11692 0.90904 0.73525 -0.22300
N 	N 	0.02446 0.88715 0.60699 -0.26100
N 	N 	0.01551 0.87497 0.65242 -0.22400
N 	N 	0.06091 0.92040 0.65582 -0.15100
N 	N 	0.07025 0.91034 0.69029 -0.15000
N 	N 	0.08763 0.93887 0.67387 -0.15100
N 	N 	0.10075 0.97432 0.62185 -0.22900
N 	N 	0.12676 0.99881 0.59238 -0.26400
N 	N 	0.09897 0.02009 0.62524 -0.22900
N 	N 	0.06397 0.07831 0.59428 -0.15200
S 	S 	0.04463 0.91304 0.57812 -0.05900
S 	S 	0.12346 0.00216 0.54928 -0.06200
C 	C 	0.10258 0.40972 0.21989 0.03300
H 	H 	0.09440 0.39760 0.21730 0.01400
C 	C 	0.09914 0.42742 0.20750 -0.04600
C 	C 	0.11072 0.44523 0.21138 0.00600
H 	H 	0.10920 0.45740 0.20300 0.03800
C 	C 	0.12482 0.44486 0.22810 -0.10000
H 	H 	0.13240 0.45710 0.23180 0.06600
C 	C 	0.12758 0.42686 0.23907 0.06100
H 	H 	0.13760 0.42680 0.25010 -0.00000
C 	C 	0.03338 0.39774 0.09533 0.09800
C 	C 	0.01321 0.36148 0.16843 0.05700
H 	H 	0.00320 0.35060 0.16710 -0.00000
C 	C 	0.02462 0.36260 0.18666 -0.09600
H 	H 	0.02200 0.35310 0.19780 0.06300
C 	C 	0.04007 0.37779 0.18858 0.00400
H 	H 	0.04870 0.37840 0.20070 0.03800
C 	C 	0.04249 0.39210 0.17226 -0.04500
C 	C 	0.03001 0.39026 0.15472 0.03100
H 	H 	0.03170 0.40020 0.14380 0.01700
C 	C 	0.05877 0.40868 0.17282 0.13400
C 	C 	0.08461 0.42567 0.18970 0.13300
C 	C 	0.07589 0.43511 0.15684 0.13300
C 	C 	0.09601 0.46232 0.13822 0.03900
H 	H 	0.10420 0.46370 0.15060 0.01200
C 	C 	0.07952 0.44779 0.13815 -0.05100
C 	C 	0.06735 0.44589 0.12040 0.00900
H 	H 	0.05620 0.43600 0.11970 0.03700
C 	C 	0.07192 0.45891 0.10358 -0.10000
H 	H 	0.06360 0.45840 0.09130 0.06700
C 	C 	0.08860 0.47254 0.10489 0.06100
H 	H 	0.09160 0.48110 0.09310 0.00100
C 	C 	0.08301 0.51763 0.13862 0.06300
H 	H 	0.08410 0.50700 0.14890 -0.00100
C 	C 	0.06540 0.52940 0.13834 -0.10300
H 	H 	0.05450 0.52690 0.14810 0.06800
C 	C 	0.06360 0.54530 0.12333 0.00900
H 	H 	0.05160 0.55410 0.12290 0.03700
C 	C 	0.07984 0.54783 0.10924 -0.05200
C 	C 	0.09731 0.53502 0.11085 0.04200
H 	H 	0.10850 0.53700 0.10130 0.01100
C 	C 	0.07908 0.56441 0.09302 0.13500
C 	C 	0.12611 0.50059 0.07478 0.10800
N 	N 	0.11692 0.40904 0.23525 -0.22300
N 	N 	0.02446 0.38715 0.10699 -0.26100
N 	N 	0.01551 0.37497 0.15242 -0.22400
N 	N 	0.06091 0.42040 0.15582 -0.15100
N 	N 	0.07025 0.41034 0.19029 -0.15000
N 	N 	0.08763 0.43887 0.17387 -0.15100
N 	N 	0.10075 0.47432 0.12185 -0.22900
N 	N 	0.12676 0.49881 0.09238 -0.26400
N 	N 	0.09897 0.52009 0.12524 -0.22900
N 	N 	0.06397 0.57831 0.09428 -0.15200
S 	S 	0.04463 0.41304 0.07812 -0.05900
S 	S 	0.12346 0.50216 0.04928 -0.06200
C 	C 	0.60258 0.90972 0.21989 0.03300
H 	H 	0.59440 0.89760 0.21730 0.01400
C 	C 	0.59914 0.92742 0.20750 -0.04600
C 	C 	0.61072 0.94523 0.21138 0.00600
H 	H 	0.60920 0.95740 0.20300 0.03800
C 	C 	0.62482 0.94486 0.22810 -0.10000
H 	H 	0.63240 0.95710 0.23180 0.06600
C 	C 	0.62758 0.92686 0.23907 0.06100
H 	H 	0.63760 0.92680 0.25010 -0.00000
C 	C 	0.53338 0.89774 0.09533 0.09800
C 	C 	0.51321 0.86148 0.16843 0.05700
H 	H 	0.50320 0.85060 0.16710 -0.00000
C 	C 	0.52462 0.86260 0.18666 -0.09600
H 	H 	0.52200 0.85310 0.19780 0.06300
C 	C 	0.54007 0.87779 0.18858 0.00400
H 	H 	0.54870 0.87840 0.20070 0.03800
C 	C 	0.54249 0.89210 0.17226 -0.04500
C 	C 	0.53001 0.89026 0.15472 0.03100
H 	H 	0.53170 0.90020 0.14380 0.01700
C 	C 	0.55877 0.90868 0.17282 0.13400
C 	C 	0.58461 0.92567 0.18970 0.13300
C 	C 	0.57589 0.93511 0.15684 0.13300
C 	C 	0.59601 0.96232 0.13822 0.03900
H 	H 	0.60420 0.96370 0.15060 0.01200
C 	C 	0.57952 0.94779 0.13815 -0.05100
C 	C 	0.56735 0.94589 0.12040 0.00900
H 	H 	0.55620 0.93600 0.11970 0.03700
C 	C 	0.57192 0.95891 0.10358 -0.10000
H 	H 	0.56360 0.95840 0.09130 0.06700
C 	C 	0.58860 0.97254 0.10489 0.06100
H 	H 	0.59160 0.98110 0.09310 0.00100
C 	C 	0.58301 0.01763 0.13862 0.06300
H 	H 	0.58410 0.00700 0.14890 -0.00100
C 	C 	0.56540 0.02940 0.13834 -0.10300
H 	H 	0.55450 0.02690 0.14810 0.06800
C 	C 	0.56360 0.04530 0.12333 0.00900
H 	H 	0.55160 0.05410 0.12290 0.03700
C 	C 	0.57984 0.04783 0.10924 -0.05200
C 	C 	0.59731 0.03502 0.11085 0.04200
H 	H 	0.60850 0.03700 0.10130 0.01100
C 	C 	0.57908 0.06441 0.09302 0.13500
C 	C 	0.62611 0.00059 0.07478 0.10800
N 	N 	0.61692 0.90904 0.23525 -0.22300
N 	N 	0.52446 0.88715 0.10699 -0.26100
N 	N 	0.51551 0.87497 0.15242 -0.22400
N 	N 	0.56091 0.92040 0.15582 -0.15100
N 	N 	0.57025 0.91034 0.19029 -0.15000
N 	N 	0.58763 0.93887 0.17387 -0.15100
N 	N 	0.60075 0.97432 0.12185 -0.22900
N 	N 	0.62676 0.99881 0.09238 -0.26400
N 	N 	0.59897 0.02009 0.12524 -0.22900
N 	N 	0.56397 0.07831 0.09428 -0.15200
S 	S 	0.54463 0.91304 0.07812 -0.05900
S 	S 	0.62346 0.00216 0.04928 -0.06200
C 	C 	0.60258 0.40972 0.71989 0.03300
H 	H 	0.59440 0.39760 0.71730 0.01400
C 	C 	0.59914 0.42742 0.70750 -0.04600
C 	C 	0.61072 0.44523 0.71138 0.00600
H 	H 	0.60920 0.45740 0.70300 0.03800
C 	C 	0.62482 0.44486 0.72810 -0.10000
H 	H 	0.63240 0.45710 0.73180 0.06600
C 	C 	0.62758 0.42686 0.73907 0.06100
H 	H 	0.63760 0.42680 0.75010 -0.00000
C 	C 	0.53338 0.39774 0.59533 0.09800
C 	C 	0.51321 0.36148 0.66843 0.05700
H 	H 	0.50320 0.35060 0.66710 -0.00000
C 	C 	0.52462 0.36260 0.68666 -0.09600
H 	H 	0.52200 0.35310 0.69780 0.06300
C 	C 	0.54007 0.37779 0.68858 0.00400
H 	H 	0.54870 0.37840 0.70070 0.03800
C 	C 	0.54249 0.39210 0.67226 -0.04500
C 	C 	0.53001 0.39026 0.65472 0.03100
H 	H 	0.53170 0.40020 0.64380 0.01700
C 	C 	0.55877 0.40868 0.67282 0.13400
C 	C 	0.58461 0.42567 0.68970 0.13300
C 	C 	0.57589 0.43511 0.65684 0.13300
C 	C 	0.59601 0.46232 0.63822 0.03900
H 	H 	0.60420 0.46370 0.65060 0.01200
C 	C 	0.57952 0.44779 0.63815 -0.05100
C 	C 	0.56735 0.44589 0.62040 0.00900
H 	H 	0.55620 0.43600 0.61970 0.03700
C 	C 	0.57192 0.45891 0.60358 -0.10000
H 	H 	0.56360 0.45840 0.59130 0.06700
C 	C 	0.58860 0.47254 0.60489 0.06100
H 	H 	0.59160 0.48110 0.59310 0.00100
C 	C 	0.58301 0.51763 0.63862 0.06300
H 	H 	0.58410 0.50700 0.64890 -0.00100
C 	C 	0.56540 0.52940 0.63834 -0.10300
H 	H 	0.55450 0.52690 0.64810 0.06800
C 	C 	0.56360 0.54530 0.62333 0.00900
H 	H 	0.55160 0.55410 0.62290 0.03700
C 	C 	0.57984 0.54783 0.60924 -0.05200
C 	C 	0.59731 0.53502 0.61085 0.04200
H 	H 	0.60850 0.53700 0.60130 0.01100
C 	C 	0.57908 0.56441 0.59302 0.13500
C 	C 	0.62611 0.50059 0.57478 0.10800
N 	N 	0.61692 0.40904 0.73525 -0.22300
N 	N 	0.52446 0.38715 0.60699 -0.26100
N 	N 	0.51551 0.37497 0.65242 -0.22400
N 	N 	0.56091 0.42040 0.65582 -0.15100
N 	N 	0.57025 0.41034 0.69029 -0.15000
N 	N 	0.58763 0.43887 0.67387 -0.15100
N 	N 	0.60075 0.47432 0.62185 -0.22900
N 	N 	0.62676 0.49881 0.59238 -0.26400
N 	N 	0.59897 0.52009 0.62524 -0.22900
N 	N 	0.56397 0.57831 0.59428 -0.15200
S 	S 	0.54463 0.41304 0.57812 -0.05900
S 	S 	0.62346 0.50216 0.54928 -0.06200
C 	C 	0.14742 0.40972 0.03011 0.03300
H 	H 	0.15560 0.39760 0.03270 0.01400
C 	C 	0.15086 0.42742 0.04250 -0.04600
C 	C 	0.13928 0.44523 0.03862 0.00600
H 	H 	0.14080 0.45740 0.04700 0.03800
C 	C 	0.12518 0.44486 0.02190 -0.10000
H 	H 	0.11760 0.45710 0.01820 0.06600
C 	C 	0.12242 0.42686 0.01093 0.06100
H 	H 	0.11240 0.42680 0.99990 -0.00000
C 	C 	0.21662 0.39774 0.15467 0.09800
C 	C 	0.23679 0.36148 0.08157 0.05700
H 	H 	0.24680 0.35060 0.08290 -0.00000
C 	C 	0.22538 0.36260 0.06334 -0.09600
H 	H 	0.22800 0.35310 0.05220 0.06300
C 	C 	0.20993 0.37779 0.06142 0.00400
H 	H 	0.20130 0.37840 0.04930 0.03800
C 	C 	0.20751 0.39210 0.07774 -0.04500
C 	C 	0.21999 0.39026 0.09528 0.03100
H 	H 	0.21830 0.40020 0.10620 0.01700
C 	C 	0.19123 0.40868 0.07718 0.13400
C 	C 	0.16539 0.42567 0.06030 0.13300
C 	C 	0.17411 0.43511 0.09316 0.13300
C 	C 	0.15399 0.46232 0.11178 0.03900
H 	H 	0.14580 0.46370 0.09940 0.01200
C 	C 	0.17048 0.44779 0.11185 -0.05100
C 	C 	0.18265 0.44589 0.12960 0.00900
H 	H 	0.19380 0.43600 0.13030 0.03700
C 	C 	0.17808 0.45891 0.14642 -0.10000
H 	H 	0.18640 0.45840 0.15870 0.06700
C 	C 	0.16140 0.47254 0.14511 0.06100
H 	H 	0.15840 0.48110 0.15690 0.00100
C 	C 	0.16699 0.51763 0.11138 0.06300
H 	H 	0.16590 0.50700 0.10110 -0.00100
C 	C 	0.18460 0.52940 0.11166 -0.10300
H 	H 	0.19550 0.52690 0.10190 0.06800
C 	C 	0.18640 0.54530 0.12667 0.00900
H 	H 	0.19840 0.55410 0.12710 0.03700
C 	C 	0.17016 0.54783 0.14076 -0.05200
C 	C 	0.15269 0.53502 0.13915 0.04200
H 	H 	0.14150 0.53700 0.14870 0.01100
C 	C 	0.17092 0.56441 0.15698 0.13500
C 	C 	0.12389 0.50059 0.17522 0.10800
N 	N 	0.13308 0.40904 0.01475 -0.22300
N 	N 	0.22554 0.38715 0.14301 -0.26100
N 	N 	0.23449 0.37497 0.09758 -0.22400
N 	N 	0.18909 0.42040 0.09418 -0.15100
N 	N 	0.17975 0.41034 0.05971 -0.15000
N 	N 	0.16237 0.43887 0.07613 -0.15100
N 	N 	0.14925 0.47432 0.12815 -0.22900
N 	N 	0.12324 0.49881 0.15762 -0.26400
N 	N 	0.15103 0.52009 0.12476 -0.22900
N 	N 	0.18603 0.57831 0.15572 -0.15200
S 	S 	0.20537 0.41304 0.17188 -0.05900
S 	S 	0.12654 0.50216 0.20072 -0.06200
C 	C 	0.14742 0.90972 0.53011 0.03300
H 	H 	0.15560 0.89760 0.53270 0.01400
C 	C 	0.15086 0.92742 0.54250 -0.04600
C 	C 	0.13928 0.94523 0.53862 0.00600
H 	H 	0.14080 0.95740 0.54700 0.03800
C 	C 	0.12518 0.94486 0.52190 -0.10000
H 	H 	0.11760 0.95710 0.51820 0.06600
C 	C 	0.12242 0.92686 0.51093 0.06100
H 	H 	0.11240 0.92680 0.49990 -0.00000
C 	C 	0.21662 0.89774 0.65467 0.09800
C 	C 	0.23679 0.86148 0.58157 0.05700
H 	H 	0.24680 0.85060 0.58290 -0.00000
C 	C 	0.22538 0.86260 0.56334 -0.09600
H 	H 	0.22800 0.85310 0.55220 0.06300
C 	C 	0.20993 0.87779 0.56142 0.00400
H 	H 	0.20130 0.87840 0.54930 0.03800
C 	C 	0.20751 0.89210 0.57774 -0.04500
C 	C 	0.21999 0.89026 0.59528 0.03100
H 	H 	0.21830 0.90020 0.60620 0.01700
C 	C 	0.19123 0.90868 0.57718 0.13400
C 	C 	0.16539 0.92567 0.56030 0.13300
C 	C 	0.17411 0.93511 0.59316 0.13300
C 	C 	0.15399 0.96232 0.61178 0.03900
H 	H 	0.14580 0.96370 0.59940 0.01200
C 	C 	0.17048 0.94779 0.61185 -0.05100
C 	C 	0.18265 0.94589 0.62960 0.00900
H 	H 	0.19380 0.93600 0.63030 0.03700
C 	C 	0.17808 0.95891 0.64642 -0.10000
H 	H 	0.18640 0.95840 0.65870 0.06700
C 	C 	0.16140 0.97254 0.64511 0.06100
H 	H 	0.15840 0.98110 0.65690 0.00100
C 	C 	0.16699 0.01763 0.61138 0.06300
H 	H 	0.16590 0.00700 0.60110 -0.00100
C 	C 	0.18460 0.02940 0.61166 -0.10300
H 	H 	0.19550 0.02690 0.60190 0.06800
C 	C 	0.18640 0.04530 0.62667 0.00900
H 	H 	0.19840 0.05410 0.62710 0.03700
C 	C 	0.17016 0.04783 0.64076 -0.05200
C 	C 	0.15269 0.03502 0.63915 0.04200
H 	H 	0.14150 0.03700 0.64870 0.01100
C 	C 	0.17092 0.06441 0.65698 0.13500
C 	C 	0.12389 0.00059 0.67522 0.10800
N 	N 	0.13308 0.90904 0.51475 -0.22300
N 	N 	0.22554 0.88715 0.64301 -0.26100
N 	N 	0.23449 0.87497 0.59758 -0.22400
N 	N 	0.18909 0.92040 0.59418 -0.15100
N 	N 	0.17975 0.91034 0.55971 -0.15000
N 	N 	0.16237 0.93887 0.57613 -0.15100
N 	N 	0.14925 0.97432 0.62815 -0.22900
N 	N 	0.12324 0.99881 0.65762 -0.26400
N 	N 	0.15103 0.02009 0.62476 -0.22900
N 	N 	0.18603 0.07831 0.65572 -0.15200
S 	S 	0.20537 0.91304 0.67188 -0.05900
S 	S 	0.12654 0.00216 0.70072 -0.06200
C 	C 	0.64742 0.40972 0.53011 0.03300
H 	H 	0.65560 0.39760 0.53270 0.01400
C 	C 	0.65086 0.42742 0.54250 -0.04600
C 	C 	0.63928 0.44523 0.53862 0.00600
H 	H 	0.64080 0.45740 0.54700 0.03800
C 	C 	0.62518 0.44486 0.52190 -0.10000
H 	H 	0.61760 0.45710 0.51820 0.06600
C 	C 	0.62242 0.42686 0.51093 0.06100
H 	H 	0.61240 0.42680 0.49990 -0.00000
C 	C 	0.71662 0.39774 0.65467 0.09800
C 	C 	0.73679 0.36148 0.58157 0.05700
H 	H 	0.74680 0.35060 0.58290 -0.00000
C 	C 	0.72538 0.36260 0.56334 -0.09600
H 	H 	0.72800 0.35310 0.55220 0.06300
C 	C 	0.70993 0.37779 0.56142 0.00400
H 	H 	0.70130 0.37840 0.54930 0.03800
C 	C 	0.70751 0.39210 0.57774 -0.04500
C 	C 	0.71999 0.39026 0.59528 0.03100
H 	H 	0.71830 0.40020 0.60620 0.01700
C 	C 	0.69123 0.40868 0.57718 0.13400
C 	C 	0.66539 0.42567 0.56030 0.13300
C 	C 	0.67411 0.43511 0.59316 0.13300
C 	C 	0.65399 0.46232 0.61178 0.03900
H 	H 	0.64580 0.46370 0.59940 0.01200
C 	C 	0.67048 0.44779 0.61185 -0.05100
C 	C 	0.68265 0.44589 0.62960 0.00900
H 	H 	0.69380 0.43600 0.63030 0.03700
C 	C 	0.67808 0.45891 0.64642 -0.10000
H 	H 	0.68640 0.45840 0.65870 0.06700
C 	C 	0.66140 0.47254 0.64511 0.06100
H 	H 	0.65840 0.48110 0.65690 0.00100
C 	C 	0.66699 0.51763 0.61138 0.06300
H 	H 	0.66590 0.50700 0.60110 -0.00100
C 	C 	0.68460 0.52940 0.61166 -0.10300
H 	H 	0.69550 0.52690 0.60190 0.06800
C 	C 	0.68640 0.54530 0.62667 0.00900
H 	H 	0.69840 0.55410 0.62710 0.03700
C 	C 	0.67016 0.54783 0.64076 -0.05200
C 	C 	0.65269 0.53502 0.63915 0.04200
H 	H 	0.64150 0.53700 0.64870 0.01100
C 	C 	0.67092 0.56441 0.65698 0.13500
C 	C 	0.62389 0.50059 0.67522 0.10800
N 	N 	0.63308 0.40904 0.51475 -0.22300
N 	N 	0.72554 0.38715 0.64301 -0.26100
N 	N 	0.73449 0.37497 0.59758 -0.22400
N 	N 	0.68909 0.42040 0.59418 -0.15100
N 	N 	0.67975 0.41034 0.55971 -0.15000
N 	N 	0.66237 0.43887 0.57613 -0.15100
N 	N 	0.64925 0.47432 0.62815 -0.22900
N 	N 	0.62324 0.49881 0.65762 -0.26400
N 	N 	0.65103 0.52009 0.62476 -0.22900
N 	N 	0.68603 0.57831 0.65572 -0.15200
S 	S 	0.70537 0.41304 0.67188 -0.05900
S 	S 	0.62654 0.50216 0.70072 -0.06200
C 	C 	0.64742 0.90972 0.03011 0.03300
H 	H 	0.65560 0.89760 0.03270 0.01400
C 	C 	0.65086 0.92742 0.04250 -0.04600
C 	C 	0.63928 0.94523 0.03862 0.00600
H 	H 	0.64080 0.95740 0.04700 0.03800
C 	C 	0.62518 0.94486 0.02190 -0.10000
H 	H 	0.61760 0.95710 0.01820 0.06600
C 	C 	0.62242 0.92686 0.01093 0.06100
H 	H 	0.61240 0.92680 0.99990 -0.00000
C 	C 	0.71662 0.89774 0.15467 0.09800
C 	C 	0.73679 0.86148 0.08157 0.05700
H 	H 	0.74680 0.85060 0.08290 -0.00000
C 	C 	0.72538 0.86260 0.06334 -0.09600
H 	H 	0.72800 0.85310 0.05220 0.06300
C 	C 	0.70993 0.87779 0.06142 0.00400
H 	H 	0.70130 0.87840 0.04930 0.03800
C 	C 	0.70751 0.89210 0.07774 -0.04500
C 	C 	0.71999 0.89026 0.09528 0.03100
H 	H 	0.71830 0.90020 0.10620 0.01700
C 	C 	0.69123 0.90868 0.07718 0.13400
C 	C 	0.66539 0.92567 0.06030 0.13300
C 	C 	0.67411 0.93511 0.09316 0.13300
C 	C 	0.65399 0.96232 0.11178 0.03900
H 	H 	0.64580 0.96370 0.09940 0.01200
C 	C 	0.67048 0.94779 0.11185 -0.05100
C 	C 	0.68265 0.94589 0.12960 0.00900
H 	H 	0.69380 0.93600 0.13030 0.03700
C 	C 	0.67808 0.95891 0.14642 -0.10000
H 	H 	0.68640 0.95840 0.15870 0.06700
C 	C 	0.66140 0.97254 0.14511 0.06100
H 	H 	0.65840 0.98110 0.15690 0.00100
C 	C 	0.66699 0.01763 0.11138 0.06300
H 	H 	0.66590 0.00700 0.10110 -0.00100
C 	C 	0.68460 0.02940 0.11166 -0.10300
H 	H 	0.69550 0.02690 0.10190 0.06800
C 	C 	0.68640 0.04530 0.12667 0.00900
H 	H 	0.69840 0.05410 0.12710 0.03700
C 	C 	0.67016 0.04783 0.14076 -0.05200
C 	C 	0.65269 0.03502 0.13915 0.04200
H 	H 	0.64150 0.03700 0.14870 0.01100
C 	C 	0.67092 0.06441 0.15698 0.13500
C 	C 	0.62389 0.00059 0.17522 0.10800
N 	N 	0.63308 0.90904 0.01475 -0.22300
N 	N 	0.72554 0.88715 0.14301 -0.26100
N 	N 	0.73449 0.87497 0.09758 -0.22400
N 	N 	0.68909 0.92040 0.09418 -0.15100
N 	N 	0.67975 0.91034 0.05971 -0.15000
N 	N 	0.66237 0.93887 0.07613 -0.15100
N 	N 	0.64925 0.97432 0.12815 -0.22900
N 	N 	0.62324 0.99881 0.15762 -0.26400
N 	N 	0.65103 0.02009 0.12476 -0.22900
N 	N 	0.68603 0.07831 0.15572 -0.15200
S 	S 	0.70537 0.91304 0.17188 -0.05900
S 	S 	0.62654 0.00216 0.20072 -0.06200
C 	C 	0.60258 0.84028 0.53011 0.03300
H 	H 	0.59440 0.85240 0.53270 0.01400
C 	C 	0.59914 0.82258 0.54250 -0.04600
C 	C 	0.61072 0.80477 0.53862 0.00600
H 	H 	0.60920 0.79260 0.54700 0.03800
C 	C 	0.62482 0.80514 0.52190 -0.10000
H 	H 	0.63240 0.79290 0.51820 0.06600
C 	C 	0.62758 0.82314 0.51093 0.06100
H 	H 	0.63760 0.82320 0.49990 -0.00000
C 	C 	0.53338 0.85226 0.65467 0.09800
C 	C 	0.51321 0.88852 0.58157 0.05700
H 	H 	0.50320 0.89940 0.58290 -0.00000
C 	C 	0.52462 0.88740 0.56334 -0.09600
H 	H 	0.52200 0.89690 0.55220 0.06300
C 	C 	0.54007 0.87221 0.56142 0.00400
H 	H 	0.54870 0.87160 0.54930 0.03800
C 	C 	0.54249 0.85790 0.57774 -0.04500
C 	C 	0.53001 0.85974 0.59528 0.03100
H 	H 	0.53170 0.84980 0.60620 0.01700
C 	C 	0.55877 0.84132 0.57718 0.13400
C 	C 	0.58461 0.82433 0.56030 0.13300
C 	C 	0.57589 0.81489 0.59316 0.13300
C 	C 	0.59601 0.78768 0.61178 0.03900
H 	H 	0.60420 0.78630 0.59940 0.01200
C 	C 	0.57952 0.80221 0.61185 -0.05100
C 	C 	0.56735 0.80411 0.62960 0.00900
H 	H 	0.55620 0.81400 0.63030 0.03700
C 	C 	0.57192 0.79109 0.64642 -0.10000
H 	H 	0.56360 0.79160 0.65870 0.06700
C 	C 	0.58860 0.77746 0.64511 0.06100
H 	H 	0.59160 0.76890 0.65690 0.00100
C 	C 	0.58301 0.73237 0.61138 0.06300
H 	H 	0.58410 0.74300 0.60110 -0.00100
C 	C 	0.56540 0.72060 0.61166 -0.10300
H 	H 	0.55450 0.72310 0.60190 0.06800
C 	C 	0.56360 0.70470 0.62667 0.00900
H 	H 	0.55160 0.69590 0.62710 0.03700
C 	C 	0.57984 0.70217 0.64076 -0.05200
C 	C 	0.59731 0.71498 0.63915 0.04200
H 	H 	0.60850 0.71300 0.64870 0.01100
C 	C 	0.57908 0.68559 0.65698 0.13500
C 	C 	0.62611 0.74941 0.67522 0.10800
N 	N 	0.61692 0.84096 0.51475 -0.22300
N 	N 	0.52446 0.86285 0.64301 -0.26100
N 	N 	0.51551 0.87503 0.59758 -0.22400
N 	N 	0.56091 0.82960 0.59418 -0.15100
N 	N 	0.57025 0.83966 0.55971 -0.15000
N 	N 	0.58763 0.81113 0.57613 -0.15100
N 	N 	0.60075 0.77568 0.62815 -0.22900
N 	N 	0.62676 0.75119 0.65762 -0.26400
N 	N 	0.59897 0.72991 0.62476 -0.22900
N 	N 	0.56397 0.67169 0.65572 -0.15200
S 	S 	0.54463 0.83696 0.67188 -0.05900
S 	S 	0.62346 0.74784 0.70072 -0.06200
C 	C 	0.60258 0.34028 0.03011 0.03300
H 	H 	0.59440 0.35240 0.03270 0.01400
C 	C 	0.59914 0.32258 0.04250 -0.04600
C 	C 	0.61072 0.30477 0.03862 0.00600
H 	H 	0.60920 0.29260 0.04700 0.03800
C 	C 	0.62482 0.30514 0.02190 -0.10000
H 	H 	0.63240 0.29290 0.01820 0.06600
C 	C 	0.62758 0.32314 0.01093 0.06100
H 	H 	0.63760 0.32320 0.99990 -0.00000
C 	C 	0.53338 0.35226 0.15467 0.09800
C 	C 	0.51321 0.38852 0.08157 0.05700
H 	H 	0.50320 0.39940 0.08290 -0.00000
C 	C 	0.52462 0.38740 0.06334 -0.09600
H 	H 	0.52200 0.39690 0.05220 0.06300
C 	C 	0.54007 0.37221 0.06142 0.00400
H 	H 	0.54870 0.37160 0.04930 0.03800
C 	C 	0.54249 0.35790 0.07774 -0.04500
C 	C 	0.53001 0.35974 0.09528 0.03100
H 	H 	0.53170 0.34980 0.10620 0.01700
C 	C 	0.55877 0.34132 0.07718 0.13400
C 	C 	0.58461 0.32433 0.06030 0.13300
C 	C 	0.57589 0.31489 0.09316 0.13300
C 	C 	0.59601 0.28768 0.11178 0.03900
H 	H 	0.60420 0.28630 0.09940 0.01200
C 	C 	0.57952 0.30221 0.11185 -0.05100
C 	C 	0.56735 0.30411 0.12960 0.00900
H 	H 	0.55620 0.31400 0.13030 0.03700
C 	C 	0.57192 0.29109 0.14642 -0.10000
H 	H 	0.56360 0.29160 0.15870 0.06700
C 	C 	0.58860 0.27746 0.14511 0.06100
H 	H 	0.59160 0.26890 0.15690 0.00100
C 	C 	0.58301 0.23237 0.11138 0.06300
H 	H 	0.58410 0.24300 0.10110 -0.00100
C 	C 	0.56540 0.22060 0.11166 -0.10300
H 	H 	0.55450 0.22310 0.10190 0.06800
C 	C 	0.56360 0.20470 0.12667 0.00900
H 	H 	0.55160 0.19590 0.12710 0.03700
C 	C 	0.57984 0.20217 0.14076 -0.05200
C 	C 	0.59731 0.21498 0.13915 0.04200
H 	H 	0.60850 0.21300 0.14870 0.01100
C 	C 	0.57908 0.18559 0.15698 0.13500
C 	C 	0.62611 0.24941 0.17522 0.10800
N 	N 	0.61692 0.34096 0.01475 -0.22300
N 	N 	0.52446 0.36285 0.14301 -0.26100
N 	N 	0.51551 0.37503 0.09758 -0.22400
N 	N 	0.56091 0.32960 0.09418 -0.15100
N 	N 	0.57025 0.33966 0.05971 -0.15000
N 	N 	0.58763 0.31113 0.07613 -0.15100
N 	N 	0.60075 0.27568 0.12815 -0.22900
N 	N 	0.62676 0.25119 0.15762 -0.26400
N 	N 	0.59897 0.22991 0.12476 -0.22900
N 	N 	0.56397 0.17169 0.15572 -0.15200
S 	S 	0.54463 0.33696 0.17188 -0.05900
S 	S 	0.62346 0.24784 0.20072 -0.06200
C 	C 	0.10258 0.84028 0.03011 0.03300
H 	H 	0.09440 0.85240 0.03270 0.01400
C 	C 	0.09914 0.82258 0.04250 -0.04600
C 	C 	0.11072 0.80477 0.03862 0.00600
H 	H 	0.10920 0.79260 0.04700 0.03800
C 	C 	0.12482 0.80514 0.02190 -0.10000
H 	H 	0.13240 0.79290 0.01820 0.06600
C 	C 	0.12758 0.82314 0.01093 0.06100
H 	H 	0.13760 0.82320 0.99990 -0.00000
C 	C 	0.03338 0.85226 0.15467 0.09800
C 	C 	0.01321 0.88852 0.08157 0.05700
H 	H 	0.00320 0.89940 0.08290 -0.00000
C 	C 	0.02462 0.88740 0.06334 -0.09600
H 	H 	0.02200 0.89690 0.05220 0.06300
C 	C 	0.04007 0.87221 0.06142 0.00400
H 	H 	0.04870 0.87160 0.04930 0.03800
C 	C 	0.04249 0.85790 0.07774 -0.04500
C 	C 	0.03001 0.85974 0.09528 0.03100
H 	H 	0.03170 0.84980 0.10620 0.01700
C 	C 	0.05877 0.84132 0.07718 0.13400
C 	C 	0.08461 0.82433 0.06030 0.13300
C 	C 	0.07589 0.81489 0.09316 0.13300
C 	C 	0.09601 0.78768 0.11178 0.03900
H 	H 	0.10420 0.78630 0.09940 0.01200
C 	C 	0.07952 0.80221 0.11185 -0.05100
C 	C 	0.06735 0.80411 0.12960 0.00900
H 	H 	0.05620 0.81400 0.13030 0.03700
C 	C 	0.07192 0.79109 0.14642 -0.10000
H 	H 	0.06360 0.79160 0.15870 0.06700
C 	C 	0.08860 0.77746 0.14511 0.06100
H 	H 	0.09160 0.76890 0.15690 0.00100
C 	C 	0.08301 0.73237 0.11138 0.06300
H 	H 	0.08410 0.74300 0.10110 -0.00100
C 	C 	0.06540 0.72060 0.11166 -0.10300
H 	H 	0.05450 0.72310 0.10190 0.06800
C 	C 	0.06360 0.70470 0.12667 0.00900
H 	H 	0.05160 0.69590 0.12710 0.03700
C 	C 	0.07984 0.70217 0.14076 -0.05200
C 	C 	0.09731 0.71498 0.13915 0.04200
H 	H 	0.10850 0.71300 0.14870 0.01100
C 	C 	0.07908 0.68559 0.15698 0.13500
C 	C 	0.12611 0.74941 0.17522 0.10800
N 	N 	0.11692 0.84096 0.01475 -0.22300
N 	N 	0.02446 0.86285 0.14301 -0.26100
N 	N 	0.01551 0.87503 0.09758 -0.22400
N 	N 	0.06091 0.82960 0.09418 -0.15100
N 	N 	0.07025 0.83966 0.05971 -0.15000
N 	N 	0.08763 0.81113 0.07613 -0.15100
N 	N 	0.10075 0.77568 0.12815 -0.22900
N 	N 	0.12676 0.75119 0.15762 -0.26400
N 	N 	0.09897 0.72991 0.12476 -0.22900
N 	N 	0.06397 0.67169 0.15572 -0.15200
S 	S 	0.04463 0.83696 0.17188 -0.05900
S 	S 	0.12346 0.74784 0.20072 -0.06200
C 	C 	0.10258 0.34028 0.53011 0.03300
H 	H 	0.09440 0.35240 0.53270 0.01400
C 	C 	0.09914 0.32258 0.54250 -0.04600
C 	C 	0.11072 0.30477 0.53862 0.00600
H 	H 	0.10920 0.29260 0.54700 0.03800
C 	C 	0.12482 0.30514 0.52190 -0.10000
H 	H 	0.13240 0.29290 0.51820 0.06600
C 	C 	0.12758 0.32314 0.51093 0.06100
H 	H 	0.13760 0.32320 0.49990 -0.00000
C 	C 	0.03338 0.35226 0.65467 0.09800
C 	C 	0.01321 0.38852 0.58157 0.05700
H 	H 	0.00320 0.39940 0.58290 -0.00000
C 	C 	0.02462 0.38740 0.56334 -0.09600
H 	H 	0.02200 0.39690 0.55220 0.06300
C 	C 	0.04007 0.37221 0.56142 0.00400
H 	H 	0.04870 0.37160 0.54930 0.03800
C 	C 	0.04249 0.35790 0.57774 -0.04500
C 	C 	0.03001 0.35974 0.59528 0.03100
H 	H 	0.03170 0.34980 0.60620 0.01700
C 	C 	0.05877 0.34132 0.57718 0.13400
C 	C 	0.08461 0.32433 0.56030 0.13300
C 	C 	0.07589 0.31489 0.59316 0.13300
C 	C 	0.09601 0.28768 0.61178 0.03900
H 	H 	0.10420 0.28630 0.59940 0.01200
C 	C 	0.07952 0.30221 0.61185 -0.05100
C 	C 	0.06735 0.30411 0.62960 0.00900
H 	H 	0.05620 0.31400 0.63030 0.03700
C 	C 	0.07192 0.29109 0.64642 -0.10000
H 	H 	0.06360 0.29160 0.65870 0.06700
C 	C 	0.08860 0.27746 0.64511 0.06100
H 	H 	0.09160 0.26890 0.65690 0.00100
C 	C 	0.08301 0.23237 0.61138 0.06300
H 	H 	0.08410 0.24300 0.60110 -0.00100
C 	C 	0.06540 0.22060 0.61166 -0.10300
H 	H 	0.05450 0.22310 0.60190 0.06800
C 	C 	0.06360 0.20470 0.62667 0.00900
H 	H 	0.05160 0.19590 0.62710 0.03700
C 	C 	0.07984 0.20217 0.64076 -0.05200
C 	C 	0.09731 0.21498 0.63915 0.04200
H 	H 	0.10850 0.21300 0.64870 0.01100
C 	C 	0.07908 0.18559 0.65698 0.13500
C 	C 	0.12611 0.24941 0.67522 0.10800
N 	N 	0.11692 0.34096 0.51475 -0.22300
N 	N 	0.02446 0.36285 0.64301 -0.26100
N 	N 	0.01551 0.37503 0.59758 -0.22400
N 	N 	0.06091 0.32960 0.59418 -0.15100
N 	N 	0.07025 0.33966 0.55971 -0.15000
N 	N 	0.08763 0.31113 0.57613 -0.15100
N 	N 	0.10075 0.27568 0.62815 -0.22900
N 	N 	0.12676 0.25119 0.65762 -0.26400
N 	N 	0.09897 0.22991 0.62476 -0.22900
N 	N 	0.06397 0.17169 0.65572 -0.15200
S 	S 	0.04463 0.33696 0.67188 -0.05900
S 	S 	0.12346 0.24784 0.70072 -0.06200
C 	C 	0.84028 0.53011 0.60258 0.03300
H 	H 	0.85240 0.53270 0.59440 0.01400
C 	C 	0.82258 0.54250 0.59914 -0.04600
C 	C 	0.80477 0.53862 0.61072 0.00600
H 	H 	0.79260 0.54700 0.60920 0.03800
C 	C 	0.80514 0.52190 0.62482 -0.10000
H 	H 	0.79290 0.51820 0.63240 0.06600
C 	C 	0.82314 0.51093 0.62758 0.06100
H 	H 	0.82320 0.49990 0.63760 -0.00000
C 	C 	0.85226 0.65467 0.53338 0.09800
C 	C 	0.88852 0.58157 0.51321 0.05700
H 	H 	0.89940 0.58290 0.50320 -0.00000
C 	C 	0.88740 0.56334 0.52462 -0.09600
H 	H 	0.89690 0.55220 0.52200 0.06300
C 	C 	0.87221 0.56142 0.54007 0.00400
H 	H 	0.87160 0.54930 0.54870 0.03800
C 	C 	0.85790 0.57774 0.54249 -0.04500
C 	C 	0.85974 0.59528 0.53001 0.03100
H 	H 	0.84980 0.60620 0.53170 0.01700
C 	C 	0.84132 0.57718 0.55877 0.13400
C 	C 	0.82433 0.56030 0.58461 0.13300
C 	C 	0.81489 0.59316 0.57589 0.13300
C 	C 	0.78768 0.61178 0.59601 0.03900
H 	H 	0.78630 0.59940 0.60420 0.01200
C 	C 	0.80221 0.61185 0.57952 -0.05100
C 	C 	0.80411 0.62960 0.56735 0.00900
H 	H 	0.81400 0.63030 0.55620 0.03700
C 	C 	0.79109 0.64642 0.57192 -0.10000
H 	H 	0.79160 0.65870 0.56360 0.06700
C 	C 	0.77746 0.64511 0.58860 0.06100
H 	H 	0.76890 0.65690 0.59160 0.00100
C 	C 	0.73237 0.61138 0.58301 0.06300
H 	H 	0.74300 0.60110 0.58410 -0.00100
C 	C 	0.72060 0.61166 0.56540 -0.10300
H 	H 	0.72310 0.60190 0.55450 0.06800
C 	C 	0.70470 0.62667 0.56360 0.00900
H 	H 	0.69590 0.62710 0.55160 0.03700
C 	C 	0.70217 0.64076 0.57984 -0.05200
C 	C 	0.71498 0.63915 0.59731 0.04200
H 	H 	0.71300 0.64870 0.60850 0.01100
C 	C 	0.68559 0.65698 0.57908 0.13500
C 	C 	0.74941 0.67522 0.62611 0.10800
N 	N 	0.84096 0.51475 0.61692 -0.22300
N 	N 	0.86285 0.64301 0.52446 -0.26100
N 	N 	0.87503 0.59758 0.51551 -0.22400
N 	N 	0.82960 0.59418 0.56091 -0.15100
N 	N 	0.83966 0.55971 0.57025 -0.15000
N 	N 	0.81113 0.57613 0.58763 -0.15100
N 	N 	0.77568 0.62815 0.60075 -0.22900
N 	N 	0.75119 0.65762 0.62676 -0.26400
N 	N 	0.72991 0.62476 0.59897 -0.22900
N 	N 	0.67169 0.65572 0.56397 -0.15200
S 	S 	0.83696 0.67188 0.54463 -0.05900
S 	S 	0.74784 0.70072 0.62346 -0.06200
C 	C 	0.84028 0.03011 0.10258 0.03300
H 	H 	0.85240 0.03270 0.09440 0.01400
C 	C 	0.82258 0.04250 0.09914 -0.04600
C 	C 	0.80477 0.03862 0.11072 0.00600
H 	H 	0.79260 0.04700 0.10920 0.03800
C 	C 	0.80514 0.02190 0.12482 -0.10000
H 	H 	0.79290 0.01820 0.13240 0.06600
C 	C 	0.82314 0.01093 0.12758 0.06100
H 	H 	0.82320 0.99990 0.13760 -0.00000
C 	C 	0.85226 0.15467 0.03338 0.09800
C 	C 	0.88852 0.08157 0.01321 0.05700
H 	H 	0.89940 0.08290 0.00320 -0.00000
C 	C 	0.88740 0.06334 0.02462 -0.09600
H 	H 	0.89690 0.05220 0.02200 0.06300
C 	C 	0.87221 0.06142 0.04007 0.00400
H 	H 	0.87160 0.04930 0.04870 0.03800
C 	C 	0.85790 0.07774 0.04249 -0.04500
C 	C 	0.85974 0.09528 0.03001 0.03100
H 	H 	0.84980 0.10620 0.03170 0.01700
C 	C 	0.84132 0.07718 0.05877 0.13400
C 	C 	0.82433 0.06030 0.08461 0.13300
C 	C 	0.81489 0.09316 0.07589 0.13300
C 	C 	0.78768 0.11178 0.09601 0.03900
H 	H 	0.78630 0.09940 0.10420 0.01200
C 	C 	0.80221 0.11185 0.07952 -0.05100
C 	C 	0.80411 0.12960 0.06735 0.00900
H 	H 	0.81400 0.13030 0.05620 0.03700
C 	C 	0.79109 0.14642 0.07192 -0.10000
H 	H 	0.79160 0.15870 0.06360 0.06700
C 	C 	0.77746 0.14511 0.08860 0.06100
H 	H 	0.76890 0.15690 0.09160 0.00100
C 	C 	0.73237 0.11138 0.08301 0.06300
H 	H 	0.74300 0.10110 0.08410 -0.00100
C 	C 	0.72060 0.11166 0.06540 -0.10300
H 	H 	0.72310 0.10190 0.05450 0.06800
C 	C 	0.70470 0.12667 0.06360 0.00900
H 	H 	0.69590 0.12710 0.05160 0.03700
C 	C 	0.70217 0.14076 0.07984 -0.05200
C 	C 	0.71498 0.13915 0.09731 0.04200
H 	H 	0.71300 0.14870 0.10850 0.01100
C 	C 	0.68559 0.15698 0.07908 0.13500
C 	C 	0.74941 0.17522 0.12611 0.10800
N 	N 	0.84096 0.01475 0.11692 -0.22300
N 	N 	0.86285 0.14301 0.02446 -0.26100
N 	N 	0.87503 0.09758 0.01551 -0.22400
N 	N 	0.82960 0.09418 0.06091 -0.15100
N 	N 	0.83966 0.05971 0.07025 -0.15000
N 	N 	0.81113 0.07613 0.08763 -0.15100
N 	N 	0.77568 0.12815 0.10075 -0.22900
N 	N 	0.75119 0.15762 0.12676 -0.26400
N 	N 	0.72991 0.12476 0.09897 -0.22900
N 	N 	0.67169 0.15572 0.06397 -0.15200
S 	S 	0.83696 0.17188 0.04463 -0.05900
S 	S 	0.74784 0.20072 0.12346 -0.06200
C 	C 	0.34028 0.53011 0.10258 0.03300
H 	H 	0.35240 0.53270 0.09440 0.01400
C 	C 	0.32258 0.54250 0.09914 -0.04600
C 	C 	0.30477 0.53862 0.11072 0.00600
H 	H 	0.29260 0.54700 0.10920 0.03800
C 	C 	0.30514 0.52190 0.12482 -0.10000
H 	H 	0.29290 0.51820 0.13240 0.06600
C 	C 	0.32314 0.51093 0.12758 0.06100
H 	H 	0.32320 0.49990 0.13760 -0.00000
C 	C 	0.35226 0.65467 0.03338 0.09800
C 	C 	0.38852 0.58157 0.01321 0.05700
H 	H 	0.39940 0.58290 0.00320 -0.00000
C 	C 	0.38740 0.56334 0.02462 -0.09600
H 	H 	0.39690 0.55220 0.02200 0.06300
C 	C 	0.37221 0.56142 0.04007 0.00400
H 	H 	0.37160 0.54930 0.04870 0.03800
C 	C 	0.35790 0.57774 0.04249 -0.04500
C 	C 	0.35974 0.59528 0.03001 0.03100
H 	H 	0.34980 0.60620 0.03170 0.01700
C 	C 	0.34132 0.57718 0.05877 0.13400
C 	C 	0.32433 0.56030 0.08461 0.13300
C 	C 	0.31489 0.59316 0.07589 0.13300
C 	C 	0.28768 0.61178 0.09601 0.03900
H 	H 	0.28630 0.59940 0.10420 0.01200
C 	C 	0.30221 0.61185 0.07952 -0.05100
C 	C 	0.30411 0.62960 0.06735 0.00900
H 	H 	0.31400 0.63030 0.05620 0.03700
C 	C 	0.29109 0.64642 0.07192 -0.10000
H 	H 	0.29160 0.65870 0.06360 0.06700
C 	C 	0.27746 0.64511 0.08860 0.06100
H 	H 	0.26890 0.65690 0.09160 0.00100
C 	C 	0.23237 0.61138 0.08301 0.06300
H 	H 	0.24300 0.60110 0.08410 -0.00100
C 	C 	0.22060 0.61166 0.06540 -0.10300
H 	H 	0.22310 0.60190 0.05450 0.06800
C 	C 	0.20470 0.62667 0.06360 0.00900
H 	H 	0.19590 0.62710 0.05160 0.03700
C 	C 	0.20217 0.64076 0.07984 -0.05200
C 	C 	0.21498 0.63915 0.09731 0.04200
H 	H 	0.21300 0.64870 0.10850 0.01100
C 	C 	0.18559 0.65698 0.07908 0.13500
C 	C 	0.24941 0.67522 0.12611 0.10800
N 	N 	0.34096 0.51475 0.11692 -0.22300
N 	N 	0.36285 0.64301 0.02446 -0.26100
N 	N 	0.37503 0.59758 0.01551 -0.22400
N 	N 	0.32960 0.59418 0.06091 -0.15100
N 	N 	0.33966 0.55971 0.07025 -0.15000
N 	N 	0.31113 0.57613 0.08763 -0.15100
N 	N 	0.27568 0.62815 0.10075 -0.22900
N 	N 	0.25119 0.65762 0.12676 -0.26400
N 	N 	0.22991 0.62476 0.09897 -0.22900
N 	N 	0.17169 0.65572 0.06397 -0.15200
S 	S 	0.33696 0.67188 0.04463 -0.05900
S 	S 	0.24784 0.70072 0.12346 -0.06200
C 	C 	0.34028 0.03011 0.60258 0.03300
H 	H 	0.35240 0.03270 0.59440 0.01400
C 	C 	0.32258 0.04250 0.59914 -0.04600
C 	C 	0.30477 0.03862 0.61072 0.00600
H 	H 	0.29260 0.04700 0.60920 0.03800
C 	C 	0.30514 0.02190 0.62482 -0.10000
H 	H 	0.29290 0.01820 0.63240 0.06600
C 	C 	0.32314 0.01093 0.62758 0.06100
H 	H 	0.32320 0.99990 0.63760 -0.00000
C 	C 	0.35226 0.15467 0.53338 0.09800
C 	C 	0.38852 0.08157 0.51321 0.05700
H 	H 	0.39940 0.08290 0.50320 -0.00000
C 	C 	0.38740 0.06334 0.52462 -0.09600
H 	H 	0.39690 0.05220 0.52200 0.06300
C 	C 	0.37221 0.06142 0.54007 0.00400
H 	H 	0.37160 0.04930 0.54870 0.03800
C 	C 	0.35790 0.07774 0.54249 -0.04500
C 	C 	0.35974 0.09528 0.53001 0.03100
H 	H 	0.34980 0.10620 0.53170 0.01700
C 	C 	0.34132 0.07718 0.55877 0.13400
C 	C 	0.32433 0.06030 0.58461 0.13300
C 	C 	0.31489 0.09316 0.57589 0.13300
C 	C 	0.28768 0.11178 0.59601 0.03900
H 	H 	0.28630 0.09940 0.60420 0.01200
C 	C 	0.30221 0.11185 0.57952 -0.05100
C 	C 	0.30411 0.12960 0.56735 0.00900
H 	H 	0.31400 0.13030 0.55620 0.03700
C 	C 	0.29109 0.14642 0.57192 -0.10000
H 	H 	0.29160 0.15870 0.56360 0.06700
C 	C 	0.27746 0.14511 0.58860 0.06100
H 	H 	0.26890 0.15690 0.59160 0.00100
C 	C 	0.23237 0.11138 0.58301 0.06300
H 	H 	0.24300 0.10110 0.58410 -0.00100
C 	C 	0.22060 0.11166 0.56540 -0.10300
H 	H 	0.22310 0.10190 0.55450 0.06800
C 	C 	0.20470 0.12667 0.56360 0.00900
H 	H 	0.19590 0.12710 0.55160 0.03700
C 	C 	0.20217 0.14076 0.57984 -0.05200
C 	C 	0.21498 0.13915 0.59731 0.04200
H 	H 	0.21300 0.14870 0.60850 0.01100
C 	C 	0.18559 0.15698 0.57908 0.13500
C 	C 	0.24941 0.17522 0.62611 0.10800
N 	N 	0.34096 0.01475 0.61692 -0.22300
N 	N 	0.36285 0.14301 0.52446 -0.26100
N 	N 	0.37503 0.09758 0.51551 -0.22400
N 	N 	0.32960 0.09418 0.56091 -0.15100
N 	N 	0.33966 0.05971 0.57025 -0.15000
N 	N 	0.31113 0.07613 0.58763 -0.15100
N 	N 	0.27568 0.12815 0.60075 -0.22900
N 	N 	0.25119 0.15762 0.62676 -0.26400
N 	N 	0.22991 0.12476 0.59897 -0.22900
N 	N 	0.17169 0.15572 0.56397 -0.15200
S 	S 	0.33696 0.17188 0.54463 -0.05900
S 	S 	0.24784 0.20072 0.62346 -0.06200
C 	C 	0.40972 0.03011 0.14742 0.03300
H 	H 	0.39760 0.03270 0.15560 0.01400
C 	C 	0.42742 0.04250 0.15086 -0.04600
C 	C 	0.44523 0.03862 0.13928 0.00600
H 	H 	0.45740 0.04700 0.14080 0.03800
C 	C 	0.44486 0.02190 0.12518 -0.10000
H 	H 	0.45710 0.01820 0.11760 0.06600
C 	C 	0.42686 0.01093 0.12242 0.06100
H 	H 	0.42680 0.99990 0.11240 -0.00000
C 	C 	0.39774 0.15467 0.21662 0.09800
C 	C 	0.36148 0.08157 0.23679 0.05700
H 	H 	0.35060 0.08290 0.24680 -0.00000
C 	C 	0.36260 0.06334 0.22538 -0.09600
H 	H 	0.35310 0.05220 0.22800 0.06300
C 	C 	0.37779 0.06142 0.20993 0.00400
H 	H 	0.37840 0.04930 0.20130 0.03800
C 	C 	0.39210 0.07774 0.20751 -0.04500
C 	C 	0.39026 0.09528 0.21999 0.03100
H 	H 	0.40020 0.10620 0.21830 0.01700
C 	C 	0.40868 0.07718 0.19123 0.13400
C 	C 	0.42567 0.06030 0.16539 0.13300
C 	C 	0.43511 0.09316 0.17411 0.13300
C 	C 	0.46232 0.11178 0.15399 0.03900
H 	H 	0.46370 0.09940 0.14580 0.01200
C 	C 	0.44779 0.11185 0.17048 -0.05100
C 	C 	0.44589 0.12960 0.18265 0.00900
H 	H 	0.43600 0.13030 0.19380 0.03700
C 	C 	0.45891 0.14642 0.17808 -0.10000
H 	H 	0.45840 0.15870 0.18640 0.06700
C 	C 	0.47254 0.14511 0.16140 0.06100
H 	H 	0.48110 0.15690 0.15840 0.00100
C 	C 	0.51763 0.11138 0.16699 0.06300
H 	H 	0.50700 0.10110 0.16590 -0.00100
C 	C 	0.52940 0.11166 0.18460 -0.10300
H 	H 	0.52690 0.10190 0.19550 0.06800
C 	C 	0.54530 0.12667 0.18640 0.00900
H 	H 	0.55410 0.12710 0.19840 0.03700
C 	C 	0.54783 0.14076 0.17016 -0.05200
C 	C 	0.53502 0.13915 0.15269 0.04200
H 	H 	0.53700 0.14870 0.14150 0.01100
C 	C 	0.56441 0.15698 0.17092 0.13500
C 	C 	0.50059 0.17522 0.12389 0.10800
N 	N 	0.40904 0.01475 0.13308 -0.22300
N 	N 	0.38715 0.14301 0.22554 -0.26100
N 	N 	0.37497 0.09758 0.23449 -0.22400
N 	N 	0.42040 0.09418 0.18909 -0.15100
N 	N 	0.41034 0.05971 0.17975 -0.15000
N 	N 	0.43887 0.07613 0.16237 -0.15100
N 	N 	0.47432 0.12815 0.14925 -0.22900
N 	N 	0.49881 0.15762 0.12324 -0.26400
N 	N 	0.52009 0.12476 0.15103 -0.22900
N 	N 	0.57831 0.15572 0.18603 -0.15200
S 	S 	0.41304 0.17188 0.20537 -0.05900
S 	S 	0.50216 0.20072 0.12654 -0.06200
C 	C 	0.40972 0.53011 0.64742 0.03300
H 	H 	0.39760 0.53270 0.65560 0.01400
C 	C 	0.42742 0.54250 0.65086 -0.04600
C 	C 	0.44523 0.53862 0.63928 0.00600
H 	H 	0.45740 0.54700 0.64080 0.03800
C 	C 	0.44486 0.52190 0.62518 -0.10000
H 	H 	0.45710 0.51820 0.61760 0.06600
C 	C 	0.42686 0.51093 0.62242 0.06100
H 	H 	0.42680 0.49990 0.61240 -0.00000
C 	C 	0.39774 0.65467 0.71662 0.09800
C 	C 	0.36148 0.58157 0.73679 0.05700
H 	H 	0.35060 0.58290 0.74680 -0.00000
C 	C 	0.36260 0.56334 0.72538 -0.09600
H 	H 	0.35310 0.55220 0.72800 0.06300
C 	C 	0.37779 0.56142 0.70993 0.00400
H 	H 	0.37840 0.54930 0.70130 0.03800
C 	C 	0.39210 0.57774 0.70751 -0.04500
C 	C 	0.39026 0.59528 0.71999 0.03100
H 	H 	0.40020 0.60620 0.71830 0.01700
C 	C 	0.40868 0.57718 0.69123 0.13400
C 	C 	0.42567 0.56030 0.66539 0.13300
C 	C 	0.43511 0.59316 0.67411 0.13300
C 	C 	0.46232 0.61178 0.65399 0.03900
H 	H 	0.46370 0.59940 0.64580 0.01200
C 	C 	0.44779 0.61185 0.67048 -0.05100
C 	C 	0.44589 0.62960 0.68265 0.00900
H 	H 	0.43600 0.63030 0.69380 0.03700
C 	C 	0.45891 0.64642 0.67808 -0.10000
H 	H 	0.45840 0.65870 0.68640 0.06700
C 	C 	0.47254 0.64511 0.66140 0.06100
H 	H 	0.48110 0.65690 0.65840 0.00100
C 	C 	0.51763 0.61138 0.66699 0.06300
H 	H 	0.50700 0.60110 0.66590 -0.00100
C 	C 	0.52940 0.61166 0.68460 -0.10300
H 	H 	0.52690 0.60190 0.69550 0.06800
C 	C 	0.54530 0.62667 0.68640 0.00900
H 	H 	0.55410 0.62710 0.69840 0.03700
C 	C 	0.54783 0.64076 0.67016 -0.05200
C 	C 	0.53502 0.63915 0.65269 0.04200
H 	H 	0.53700 0.64870 0.64150 0.01100
C 	C 	0.56441 0.65698 0.67092 0.13500
C 	C 	0.50059 0.67522 0.62389 0.10800
N 	N 	0.40904 0.51475 0.63308 -0.22300
N 	N 	0.38715 0.64301 0.72554 -0.26100
N 	N 	0.37497 0.59758 0.73449 -0.22400
N 	N 	0.42040 0.59418 0.68909 -0.15100
N 	N 	0.41034 0.55971 0.67975 -0.15000
N 	N 	0.43887 0.57613 0.66237 -0.15100
N 	N 	0.47432 0.62815 0.64925 -0.22900
N 	N 	0.49881 0.65762 0.62324 -0.26400
N 	N 	0.52009 0.62476 0.65103 -0.22900
N 	N 	0.57831 0.65572 0.68603 -0.15200
S 	S 	0.41304 0.67188 0.70537 -0.05900
S 	S 	0.50216 0.70072 0.62654 -0.06200
C 	C 	0.90972 0.03011 0.64742 0.03300
H 	H 	0.89760 0.03270 0.65560 0.01400
C 	C 	0.92742 0.04250 0.65086 -0.04600
C 	C 	0.94523 0.03862 0.63928 0.00600
H 	H 	0.95740 0.04700 0.64080 0.03800
C 	C 	0.94486 0.02190 0.62518 -0.10000
H 	H 	0.95710 0.01820 0.61760 0.06600
C 	C 	0.92686 0.01093 0.62242 0.06100
H 	H 	0.92680 0.99990 0.61240 -0.00000
C 	C 	0.89774 0.15467 0.71662 0.09800
C 	C 	0.86148 0.08157 0.73679 0.05700
H 	H 	0.85060 0.08290 0.74680 -0.00000
C 	C 	0.86260 0.06334 0.72538 -0.09600
H 	H 	0.85310 0.05220 0.72800 0.06300
C 	C 	0.87779 0.06142 0.70993 0.00400
H 	H 	0.87840 0.04930 0.70130 0.03800
C 	C 	0.89210 0.07774 0.70751 -0.04500
C 	C 	0.89026 0.09528 0.71999 0.03100
H 	H 	0.90020 0.10620 0.71830 0.01700
C 	C 	0.90868 0.07718 0.69123 0.13400
C 	C 	0.92567 0.06030 0.66539 0.13300
C 	C 	0.93511 0.09316 0.67411 0.13300
C 	C 	0.96232 0.11178 0.65399 0.03900
H 	H 	0.96370 0.09940 0.64580 0.01200
C 	C 	0.94779 0.11185 0.67048 -0.05100
C 	C 	0.94589 0.12960 0.68265 0.00900
H 	H 	0.93600 0.13030 0.69380 0.03700
C 	C 	0.95891 0.14642 0.67808 -0.10000
H 	H 	0.95840 0.15870 0.68640 0.06700
C 	C 	0.97254 0.14511 0.66140 0.06100
H 	H 	0.98110 0.15690 0.65840 0.00100
C 	C 	0.01763 0.11138 0.66699 0.06300
H 	H 	0.00700 0.10110 0.66590 -0.00100
C 	C 	0.02940 0.11166 0.68460 -0.10300
H 	H 	0.02690 0.10190 0.69550 0.06800
C 	C 	0.04530 0.12667 0.68640 0.00900
H 	H 	0.05410 0.12710 0.69840 0.03700
C 	C 	0.04783 0.14076 0.67016 -0.05200
C 	C 	0.03502 0.13915 0.65269 0.04200
H 	H 	0.03700 0.14870 0.64150 0.01100
C 	C 	0.06441 0.15698 0.67092 0.13500
C 	C 	0.00059 0.17522 0.62389 0.10800
N 	N 	0.90904 0.01475 0.63308 -0.22300
N 	N 	0.88715 0.14301 0.72554 -0.26100
N 	N 	0.87497 0.09758 0.73449 -0.22400
N 	N 	0.92040 0.09418 0.68909 -0.15100
N 	N 	0.91034 0.05971 0.67975 -0.15000
N 	N 	0.93887 0.07613 0.66237 -0.15100
N 	N 	0.97432 0.12815 0.64925 -0.22900
N 	N 	0.99881 0.15762 0.62324 -0.26400
N 	N 	0.02009 0.12476 0.65103 -0.22900
N 	N 	0.07831 0.15572 0.68603 -0.15200
S 	S 	0.91304 0.17188 0.70537 -0.05900
S 	S 	0.00216 0.20072 0.62654 -0.06200
C 	C 	0.90972 0.53011 0.14742 0.03300
H 	H 	0.89760 0.53270 0.15560 0.01400
C 	C 	0.92742 0.54250 0.15086 -0.04600
C 	C 	0.94523 0.53862 0.13928 0.00600
H 	H 	0.95740 0.54700 0.14080 0.03800
C 	C 	0.94486 0.52190 0.12518 -0.10000
H 	H 	0.95710 0.51820 0.11760 0.06600
C 	C 	0.92686 0.51093 0.12242 0.06100
H 	H 	0.92680 0.49990 0.11240 -0.00000
C 	C 	0.89774 0.65467 0.21662 0.09800
C 	C 	0.86148 0.58157 0.23679 0.05700
H 	H 	0.85060 0.58290 0.24680 -0.00000
C 	C 	0.86260 0.56334 0.22538 -0.09600
H 	H 	0.85310 0.55220 0.22800 0.06300
C 	C 	0.87779 0.56142 0.20993 0.00400
H 	H 	0.87840 0.54930 0.20130 0.03800
C 	C 	0.89210 0.57774 0.20751 -0.04500
C 	C 	0.89026 0.59528 0.21999 0.03100
H 	H 	0.90020 0.60620 0.21830 0.01700
C 	C 	0.90868 0.57718 0.19123 0.13400
C 	C 	0.92567 0.56030 0.16539 0.13300
C 	C 	0.93511 0.59316 0.17411 0.13300
C 	C 	0.96232 0.61178 0.15399 0.03900
H 	H 	0.96370 0.59940 0.14580 0.01200
C 	C 	0.94779 0.61185 0.17048 -0.05100
C 	C 	0.94589 0.62960 0.18265 0.00900
H 	H 	0.93600 0.63030 0.19380 0.03700
C 	C 	0.95891 0.64642 0.17808 -0.10000
H 	H 	0.95840 0.65870 0.18640 0.06700
C 	C 	0.97254 0.64511 0.16140 0.06100
H 	H 	0.98110 0.65690 0.15840 0.00100
C 	C 	0.01763 0.61138 0.16699 0.06300
H 	H 	0.00700 0.60110 0.16590 -0.00100
C 	C 	0.02940 0.61166 0.18460 -0.10300
H 	H 	0.02690 0.60190 0.19550 0.06800
C 	C 	0.04530 0.62667 0.18640 0.00900
H 	H 	0.05410 0.62710 0.19840 0.03700
C 	C 	0.04783 0.64076 0.17016 -0.05200
C 	C 	0.03502 0.63915 0.15269 0.04200
H 	H 	0.03700 0.64870 0.14150 0.01100
C 	C 	0.06441 0.65698 0.17092 0.13500
C 	C 	0.00059 0.67522 0.12389 0.10800
N 	N 	0.90904 0.51475 0.13308 -0.22300
N 	N 	0.88715 0.64301 0.22554 -0.26100
N 	N 	0.87497 0.59758 0.23449 -0.22400
N 	N 	0.92040 0.59418 0.18909 -0.15100
N 	N 	0.91034 0.55971 0.17975 -0.15000
N 	N 	0.93887 0.57613 0.16237 -0.15100
N 	N 	0.97432 0.62815 0.14925 -0.22900
N 	N 	0.99881 0.65762 0.12324 -0.26400
N 	N 	0.02009 0.62476 0.15103 -0.22900
N 	N 	0.07831 0.65572 0.18603 -0.15200
S 	S 	0.91304 0.67188 0.20537 -0.05900
S 	S 	0.00216 0.70072 0.12654 -0.06200
C 	C 	0.90972 0.71989 0.10258 0.03300
H 	H 	0.89760 0.71730 0.09440 0.01400
C 	C 	0.92742 0.70750 0.09914 -0.04600
C 	C 	0.94523 0.71138 0.11072 0.00600
H 	H 	0.95740 0.70300 0.10920 0.03800
C 	C 	0.94486 0.72810 0.12482 -0.10000
H 	H 	0.95710 0.73180 0.13240 0.06600
C 	C 	0.92686 0.73907 0.12758 0.06100
H 	H 	0.92680 0.75010 0.13760 -0.00000
C 	C 	0.89774 0.59533 0.03338 0.09800
C 	C 	0.86148 0.66843 0.01321 0.05700
H 	H 	0.85060 0.66710 0.00320 -0.00000
C 	C 	0.86260 0.68666 0.02462 -0.09600
H 	H 	0.85310 0.69780 0.02200 0.06300
C 	C 	0.87779 0.68858 0.04007 0.00400
H 	H 	0.87840 0.70070 0.04870 0.03800
C 	C 	0.89210 0.67226 0.04249 -0.04500
C 	C 	0.89026 0.65472 0.03001 0.03100
H 	H 	0.90020 0.64380 0.03170 0.01700
C 	C 	0.90868 0.67282 0.05877 0.13400
C 	C 	0.92567 0.68970 0.08461 0.13300
C 	C 	0.93511 0.65684 0.07589 0.13300
C 	C 	0.96232 0.63822 0.09601 0.03900
H 	H 	0.96370 0.65060 0.10420 0.01200
C 	C 	0.94779 0.63815 0.07952 -0.05100
C 	C 	0.94589 0.62040 0.06735 0.00900
H 	H 	0.93600 0.61970 0.05620 0.03700
C 	C 	0.95891 0.60358 0.07192 -0.10000
H 	H 	0.95840 0.59130 0.06360 0.06700
C 	C 	0.97254 0.60489 0.08860 0.06100
H 	H 	0.98110 0.59310 0.09160 0.00100
C 	C 	0.01763 0.63862 0.08301 0.06300
H 	H 	0.00700 0.64890 0.08410 -0.00100
C 	C 	0.02940 0.63834 0.06540 -0.10300
H 	H 	0.02690 0.64810 0.05450 0.06800
C 	C 	0.04530 0.62333 0.06360 0.00900
H 	H 	0.05410 0.62290 0.05160 0.03700
C 	C 	0.04783 0.60924 0.07984 -0.05200
C 	C 	0.03502 0.61085 0.09731 0.04200
H 	H 	0.03700 0.60130 0.10850 0.01100
C 	C 	0.06441 0.59302 0.07908 0.13500
C 	C 	0.00059 0.57478 0.12611 0.10800
N 	N 	0.90904 0.73525 0.11692 -0.22300
N 	N 	0.88715 0.60699 0.02446 -0.26100
N 	N 	0.87497 0.65242 0.01551 -0.22400
N 	N 	0.92040 0.65582 0.06091 -0.15100
N 	N 	0.91034 0.69029 0.07025 -0.15000
N 	N 	0.93887 0.67387 0.08763 -0.15100
N 	N 	0.97432 0.62185 0.10075 -0.22900
N 	N 	0.99881 0.59238 0.12676 -0.26400
N 	N 	0.02009 0.62524 0.09897 -0.22900
N 	N 	0.07831 0.59428 0.06397 -0.15200
S 	S 	0.91304 0.57812 0.04463 -0.05900
S 	S 	0.00216 0.54928 0.12346 -0.06200
C 	C 	0.90972 0.21989 0.60258 0.03300
H 	H 	0.89760 0.21730 0.59440 0.01400
C 	C 	0.92742 0.20750 0.59914 -0.04600
C 	C 	0.94523 0.21138 0.61072 0.00600
H 	H 	0.95740 0.20300 0.60920 0.03800
C 	C 	0.94486 0.22810 0.62482 -0.10000
H 	H 	0.95710 0.23180 0.63240 0.06600
C 	C 	0.92686 0.23907 0.62758 0.06100
H 	H 	0.92680 0.25010 0.63760 -0.00000
C 	C 	0.89774 0.09533 0.53338 0.09800
C 	C 	0.86148 0.16843 0.51321 0.05700
H 	H 	0.85060 0.16710 0.50320 -0.00000
C 	C 	0.86260 0.18666 0.52462 -0.09600
H 	H 	0.85310 0.19780 0.52200 0.06300
C 	C 	0.87779 0.18858 0.54007 0.00400
H 	H 	0.87840 0.20070 0.54870 0.03800
C 	C 	0.89210 0.17226 0.54249 -0.04500
C 	C 	0.89026 0.15472 0.53001 0.03100
H 	H 	0.90020 0.14380 0.53170 0.01700
C 	C 	0.90868 0.17282 0.55877 0.13400
C 	C 	0.92567 0.18970 0.58461 0.13300
C 	C 	0.93511 0.15684 0.57589 0.13300
C 	C 	0.96232 0.13822 0.59601 0.03900
H 	H 	0.96370 0.15060 0.60420 0.01200
C 	C 	0.94779 0.13815 0.57952 -0.05100
C 	C 	0.94589 0.12040 0.56735 0.00900
H 	H 	0.93600 0.11970 0.55620 0.03700
C 	C 	0.95891 0.10358 0.57192 -0.10000
H 	H 	0.95840 0.09130 0.56360 0.06700
C 	C 	0.97254 0.10489 0.58860 0.06100
H 	H 	0.98110 0.09310 0.59160 0.00100
C 	C 	0.01763 0.13862 0.58301 0.06300
H 	H 	0.00700 0.14890 0.58410 -0.00100
C 	C 	0.02940 0.13834 0.56540 -0.10300
H 	H 	0.02690 0.14810 0.55450 0.06800
C 	C 	0.04530 0.12333 0.56360 0.00900
H 	H 	0.05410 0.12290 0.55160 0.03700
C 	C 	0.04783 0.10924 0.57984 -0.05200
C 	C 	0.03502 0.11085 0.59731 0.04200
H 	H 	0.03700 0.10130 0.60850 0.01100
C 	C 	0.06441 0.09302 0.57908 0.13500
C 	C 	0.00059 0.07478 0.62611 0.10800
N 	N 	0.90904 0.23525 0.61692 -0.22300
N 	N 	0.88715 0.10699 0.52446 -0.26100
N 	N 	0.87497 0.15242 0.51551 -0.22400
N 	N 	0.92040 0.15582 0.56091 -0.15100
N 	N 	0.91034 0.19029 0.57025 -0.15000
N 	N 	0.93887 0.17387 0.58763 -0.15100
N 	N 	0.97432 0.12185 0.60075 -0.22900
N 	N 	0.99881 0.09238 0.62676 -0.26400
N 	N 	0.02009 0.12524 0.59897 -0.22900
N 	N 	0.07831 0.09428 0.56397 -0.15200
S 	S 	0.91304 0.07812 0.54463 -0.05900
S 	S 	0.00216 0.04928 0.62346 -0.06200
C 	C 	0.40972 0.71989 0.60258 0.03300
H 	H 	0.39760 0.71730 0.59440 0.01400
C 	C 	0.42742 0.70750 0.59914 -0.04600
C 	C 	0.44523 0.71138 0.61072 0.00600
H 	H 	0.45740 0.70300 0.60920 0.03800
C 	C 	0.44486 0.72810 0.62482 -0.10000
H 	H 	0.45710 0.73180 0.63240 0.06600
C 	C 	0.42686 0.73907 0.62758 0.06100
H 	H 	0.42680 0.75010 0.63760 -0.00000
C 	C 	0.39774 0.59533 0.53338 0.09800
C 	C 	0.36148 0.66843 0.51321 0.05700
H 	H 	0.35060 0.66710 0.50320 -0.00000
C 	C 	0.36260 0.68666 0.52462 -0.09600
H 	H 	0.35310 0.69780 0.52200 0.06300
C 	C 	0.37779 0.68858 0.54007 0.00400
H 	H 	0.37840 0.70070 0.54870 0.03800
C 	C 	0.39210 0.67226 0.54249 -0.04500
C 	C 	0.39026 0.65472 0.53001 0.03100
H 	H 	0.40020 0.64380 0.53170 0.01700
C 	C 	0.40868 0.67282 0.55877 0.13400
C 	C 	0.42567 0.68970 0.58461 0.13300
C 	C 	0.43511 0.65684 0.57589 0.13300
C 	C 	0.46232 0.63822 0.59601 0.03900
H 	H 	0.46370 0.65060 0.60420 0.01200
C 	C 	0.44779 0.63815 0.57952 -0.05100
C 	C 	0.44589 0.62040 0.56735 0.00900
H 	H 	0.43600 0.61970 0.55620 0.03700
C 	C 	0.45891 0.60358 0.57192 -0.10000
H 	H 	0.45840 0.59130 0.56360 0.06700
C 	C 	0.47254 0.60489 0.58860 0.06100
H 	H 	0.48110 0.59310 0.59160 0.00100
C 	C 	0.51763 0.63862 0.58301 0.06300
H 	H 	0.50700 0.64890 0.58410 -0.00100
C 	C 	0.52940 0.63834 0.56540 -0.10300
H 	H 	0.52690 0.64810 0.55450 0.06800
C 	C 	0.54530 0.62333 0.56360 0.00900
H 	H 	0.55410 0.62290 0.55160 0.03700
C 	C 	0.54783 0.60924 0.57984 -0.05200
C 	C 	0.53502 0.61085 0.59731 0.04200
H 	H 	0.53700 0.60130 0.60850 0.01100
C 	C 	0.56441 0.59302 0.57908 0.13500
C 	C 	0.50059 0.57478 0.62611 0.10800
N 	N 	0.40904 0.73525 0.61692 -0.22300
N 	N 	0.38715 0.60699 0.52446 -0.26100
N 	N 	0.37497 0.65242 0.51551 -0.22400
N 	N 	0.42040 0.65582 0.56091 -0.15100
N 	N 	0.41034 0.69029 0.57025 -0.15000
N 	N 	0.43887 0.67387 0.58763 -0.15100
N 	N 	0.47432 0.62185 0.60075 -0.22900
N 	N 	0.49881 0.59238 0.62676 -0.26400
N 	N 	0.52009 0.62524 0.59897 -0.22900
N 	N 	0.57831 0.59428 0.56397 -0.15200
S 	S 	0.41304 0.57812 0.54463 -0.05900
S 	S 	0.50216 0.54928 0.62346 -0.06200
C 	C 	0.40972 0.21989 0.10258 0.03300
H 	H 	0.39760 0.21730 0.09440 0.01400
C 	C 	0.42742 0.20750 0.09914 -0.04600
C 	C 	0.44523 0.21138 0.11072 0.00600
H 	H 	0.45740 0.20300 0.10920 0.03800
C 	C 	0.44486 0.22810 0.12482 -0.10000
H 	H 	0.45710 0.23180 0.13240 0.06600
C 	C 	0.42686 0.23907 0.12758 0.06100
H 	H 	0.42680 0.25010 0.13760 -0.00000
C 	C 	0.39774 0.09533 0.03338 0.09800
C 	C 	0.36148 0.16843 0.01321 0.05700
H 	H 	0.35060 0.16710 0.00320 -0.00000
C 	C 	0.36260 0.18666 0.02462 -0.09600
H 	H 	0.35310 0.19780 0.02200 0.06300
C 	C 	0.37779 0.18858 0.04007 0.00400
H 	H 	0.37840 0.20070 0.04870 0.03800
C 	C 	0.39210 0.17226 0.04249 -0.04500
C 	C 	0.39026 0.15472 0.03001 0.03100
H 	H 	0.40020 0.14380 0.03170 0.01700
C 	C 	0.40868 0.17282 0.05877 0.13400
C 	C 	0.42567 0.18970 0.08461 0.13300
C 	C 	0.43511 0.15684 0.07589 0.13300
C 	C 	0.46232 0.13822 0.09601 0.03900
H 	H 	0.46370 0.15060 0.10420 0.01200
C 	C 	0.44779 0.13815 0.07952 -0.05100
C 	C 	0.44589 0.12040 0.06735 0.00900
H 	H 	0.43600 0.11970 0.05620 0.03700
C 	C 	0.45891 0.10358 0.07192 -0.10000
H 	H 	0.45840 0.09130 0.06360 0.06700
C 	C 	0.47254 0.10489 0.08860 0.06100
H 	H 	0.48110 0.09310 0.09160 0.00100
C 	C 	0.51763 0.13862 0.08301 0.06300
H 	H 	0.50700 0.14890 0.08410 -0.00100
C 	C 	0.52940 0.13834 0.06540 -0.10300
H 	H 	0.52690 0.14810 0.05450 0.06800
C 	C 	0.54530 0.12333 0.06360 0.00900
H 	H 	0.55410 0.12290 0.05160 0.03700
C 	C 	0.54783 0.10924 0.07984 -0.05200
C 	C 	0.53502 0.11085 0.09731 0.04200
H 	H 	0.53700 0.10130 0.10850 0.01100
C 	C 	0.56441 0.09302 0.07908 0.13500
C 	C 	0.50059 0.07478 0.12611 0.10800
N 	N 	0.40904 0.23525 0.11692 -0.22300
N 	N 	0.38715 0.10699 0.02446 -0.26100
N 	N 	0.37497 0.15242 0.01551 -0.22400
N 	N 	0.42040 0.15582 0.06091 -0.15100
N 	N 	0.41034 0.19029 0.07025 -0.15000
N 	N 	0.43887 0.17387 0.08763 -0.15100
N 	N 	0.47432 0.12185 0.10075 -0.22900
N 	N 	0.49881 0.09238 0.12676 -0.26400
N 	N 	0.52009 0.12524 0.09897 -0.22900
N 	N 	0.57831 0.09428 0.06397 -0.15200
S 	S 	0.41304 0.07812 0.04463 -0.05900
S 	S 	0.50216 0.04928 0.12346 -0.06200
C 	C 	0.34028 0.21989 0.64742 0.03300
H 	H 	0.35240 0.21730 0.65560 0.01400
C 	C 	0.32258 0.20750 0.65086 -0.04600
C 	C 	0.30477 0.21138 0.63928 0.00600
H 	H 	0.29260 0.20300 0.64080 0.03800
C 	C 	0.30514 0.22810 0.62518 -0.10000
H 	H 	0.29290 0.23180 0.61760 0.06600
C 	C 	0.32314 0.23907 0.62242 0.06100
H 	H 	0.32320 0.25010 0.61240 -0.00000
C 	C 	0.35226 0.09533 0.71662 0.09800
C 	C 	0.38852 0.16843 0.73679 0.05700
H 	H 	0.39940 0.16710 0.74680 -0.00000
C 	C 	0.38740 0.18666 0.72538 -0.09600
H 	H 	0.39690 0.19780 0.72800 0.06300
C 	C 	0.37221 0.18858 0.70993 0.00400
H 	H 	0.37160 0.20070 0.70130 0.03800
C 	C 	0.35790 0.17226 0.70751 -0.04500
C 	C 	0.35974 0.15472 0.71999 0.03100
H 	H 	0.34980 0.14380 0.71830 0.01700
C 	C 	0.34132 0.17282 0.69123 0.13400
C 	C 	0.32433 0.18970 0.66539 0.13300
C 	C 	0.31489 0.15684 0.67411 0.13300
C 	C 	0.28768 0.13822 0.65399 0.03900
H 	H 	0.28630 0.15060 0.64580 0.01200
C 	C 	0.30221 0.13815 0.67048 -0.05100
C 	C 	0.30411 0.12040 0.68265 0.00900
H 	H 	0.31400 0.11970 0.69380 0.03700
C 	C 	0.29109 0.10358 0.67808 -0.10000
H 	H 	0.29160 0.09130 0.68640 0.06700
C 	C 	0.27746 0.10489 0.66140 0.06100
H 	H 	0.26890 0.09310 0.65840 0.00100
C 	C 	0.23237 0.13862 0.66699 0.06300
H 	H 	0.24300 0.14890 0.66590 -0.00100
C 	C 	0.22060 0.13834 0.68460 -0.10300
H 	H 	0.22310 0.14810 0.69550 0.06800
C 	C 	0.20470 0.12333 0.68640 0.00900
H 	H 	0.19590 0.12290 0.69840 0.03700
C 	C 	0.20217 0.10924 0.67016 -0.05200
C 	C 	0.21498 0.11085 0.65269 0.04200
H 	H 	0.21300 0.10130 0.64150 0.01100
C 	C 	0.18559 0.09302 0.67092 0.13500
C 	C 	0.24941 0.07478 0.62389 0.10800
N 	N 	0.34096 0.23525 0.63308 -0.22300
N 	N 	0.36285 0.10699 0.72554 -0.26100
N 	N 	0.37503 0.15242 0.73449 -0.22400
N 	N 	0.32960 0.15582 0.68909 -0.15100
N 	N 	0.33966 0.19029 0.67975 -0.15000
N 	N 	0.31113 0.17387 0.66237 -0.15100
N 	N 	0.27568 0.12185 0.64925 -0.22900
N 	N 	0.25119 0.09238 0.62324 -0.26400
N 	N 	0.22991 0.12524 0.65103 -0.22900
N 	N 	0.17169 0.09428 0.68603 -0.15200
S 	S 	0.33696 0.07812 0.70537 -0.05900
S 	S 	0.24784 0.04928 0.62654 -0.06200
C 	C 	0.34028 0.71989 0.14742 0.03300
H 	H 	0.35240 0.71730 0.15560 0.01400
C 	C 	0.32258 0.70750 0.15086 -0.04600
C 	C 	0.30477 0.71138 0.13928 0.00600
H 	H 	0.29260 0.70300 0.14080 0.03800
C 	C 	0.30514 0.72810 0.12518 -0.10000
H 	H 	0.29290 0.73180 0.11760 0.06600
C 	C 	0.32314 0.73907 0.12242 0.06100
H 	H 	0.32320 0.75010 0.11240 -0.00000
C 	C 	0.35226 0.59533 0.21662 0.09800
C 	C 	0.38852 0.66843 0.23679 0.05700
H 	H 	0.39940 0.66710 0.24680 -0.00000
C 	C 	0.38740 0.68666 0.22538 -0.09600
H 	H 	0.39690 0.69780 0.22800 0.06300
C 	C 	0.37221 0.68858 0.20993 0.00400
H 	H 	0.37160 0.70070 0.20130 0.03800
C 	C 	0.35790 0.67226 0.20751 -0.04500
C 	C 	0.35974 0.65472 0.21999 0.03100
H 	H 	0.34980 0.64380 0.21830 0.01700
C 	C 	0.34132 0.67282 0.19123 0.13400
C 	C 	0.32433 0.68970 0.16539 0.13300
C 	C 	0.31489 0.65684 0.17411 0.13300
C 	C 	0.28768 0.63822 0.15399 0.03900
H 	H 	0.28630 0.65060 0.14580 0.01200
C 	C 	0.30221 0.63815 0.17048 -0.05100
C 	C 	0.30411 0.62040 0.18265 0.00900
H 	H 	0.31400 0.61970 0.19380 0.03700
C 	C 	0.29109 0.60358 0.17808 -0.10000
H 	H 	0.29160 0.59130 0.18640 0.06700
C 	C 	0.27746 0.60489 0.16140 0.06100
H 	H 	0.26890 0.59310 0.15840 0.00100
C 	C 	0.23237 0.63862 0.16699 0.06300
H 	H 	0.24300 0.64890 0.16590 -0.00100
C 	C 	0.22060 0.63834 0.18460 -0.10300
H 	H 	0.22310 0.64810 0.19550 0.06800
C 	C 	0.20470 0.62333 0.18640 0.00900
H 	H 	0.19590 0.62290 0.19840 0.03700
C 	C 	0.20217 0.60924 0.17016 -0.05200
C 	C 	0.21498 0.61085 0.15269 0.04200
H 	H 	0.21300 0.60130 0.14150 0.01100
C 	C 	0.18559 0.59302 0.17092 0.13500
C 	C 	0.24941 0.57478 0.12389 0.10800
N 	N 	0.34096 0.73525 0.13308 -0.22300
N 	N 	0.36285 0.60699 0.22554 -0.26100
N 	N 	0.37503 0.65242 0.23449 -0.22400
N 	N 	0.32960 0.65582 0.18909 -0.15100
N 	N 	0.33966 0.69029 0.17975 -0.15000
N 	N 	0.31113 0.67387 0.16237 -0.15100
N 	N 	0.27568 0.62185 0.14925 -0.22900
N 	N 	0.25119 0.59238 0.12324 -0.26400
N 	N 	0.22991 0.62524 0.15103 -0.22900
N 	N 	0.17169 0.59428 0.18603 -0.15200
S 	S 	0.33696 0.57812 0.20537 -0.05900
S 	S 	0.24784 0.54928 0.12654 -0.06200
C 	C 	0.84028 0.21989 0.14742 0.03300
H 	H 	0.85240 0.21730 0.15560 0.01400
C 	C 	0.82258 0.20750 0.15086 -0.04600
C 	C 	0.80477 0.21138 0.13928 0.00600
H 	H 	0.79260 0.20300 0.14080 0.03800
C 	C 	0.80514 0.22810 0.12518 -0.10000
H 	H 	0.79290 0.23180 0.11760 0.06600
C 	C 	0.82314 0.23907 0.12242 0.06100
H 	H 	0.82320 0.25010 0.11240 -0.00000
C 	C 	0.85226 0.09533 0.21662 0.09800
C 	C 	0.88852 0.16843 0.23679 0.05700
H 	H 	0.89940 0.16710 0.24680 -0.00000
C 	C 	0.88740 0.18666 0.22538 -0.09600
H 	H 	0.89690 0.19780 0.22800 0.06300
C 	C 	0.87221 0.18858 0.20993 0.00400
H 	H 	0.87160 0.20070 0.20130 0.03800
C 	C 	0.85790 0.17226 0.20751 -0.04500
C 	C 	0.85974 0.15472 0.21999 0.03100
H 	H 	0.84980 0.14380 0.21830 0.01700
C 	C 	0.84132 0.17282 0.19123 0.13400
C 	C 	0.82433 0.18970 0.16539 0.13300
C 	C 	0.81489 0.15684 0.17411 0.13300
C 	C 	0.78768 0.13822 0.15399 0.03900
H 	H 	0.78630 0.15060 0.14580 0.01200
C 	C 	0.80221 0.13815 0.17048 -0.05100
C 	C 	0.80411 0.12040 0.18265 0.00900
H 	H 	0.81400 0.11970 0.19380 0.03700
C 	C 	0.79109 0.10358 0.17808 -0.10000
H 	H 	0.79160 0.09130 0.18640 0.06700
C 	C 	0.77746 0.10489 0.16140 0.06100
H 	H 	0.76890 0.09310 0.15840 0.00100
C 	C 	0.73237 0.13862 0.16699 0.06300
H 	H 	0.74300 0.14890 0.16590 -0.00100
C 	C 	0.72060 0.13834 0.18460 -0.10300
H 	H 	0.72310 0.14810 0.19550 0.06800
C 	C 	0.70470 0.12333 0.18640 0.00900
H 	H 	0.69590 0.12290 0.19840 0.03700
C 	C 	0.70217 0.10924 0.17016 -0.05200
C 	C 	0.71498 0.11085 0.15269 0.04200
H 	H 	0.71300 0.10130 0.14150 0.01100
C 	C 	0.68559 0.09302 0.17092 0.13500
C 	C 	0.74941 0.07478 0.12389 0.10800
N 	N 	0.84096 0.23525 0.13308 -0.22300
N 	N 	0.86285 0.10699 0.22554 -0.26100
N 	N 	0.87503 0.15242 0.23449 -0.22400
N 	N 	0.82960 0.15582 0.18909 -0.15100
N 	N 	0.83966 0.19029 0.17975 -0.15000
N 	N 	0.81113 0.17387 0.16237 -0.15100
N 	N 	0.77568 0.12185 0.14925 -0.22900
N 	N 	0.75119 0.09238 0.12324 -0.26400
N 	N 	0.72991 0.12524 0.15103 -0.22900
N 	N 	0.67169 0.09428 0.18603 -0.15200
S 	S 	0.83696 0.07812 0.20537 -0.05900
S 	S 	0.74784 0.04928 0.12654 -0.06200
C 	C 	0.84028 0.71989 0.64742 0.03300
H 	H 	0.85240 0.71730 0.65560 0.01400
C 	C 	0.82258 0.70750 0.65086 -0.04600
C 	C 	0.80477 0.71138 0.63928 0.00600
H 	H 	0.79260 0.70300 0.64080 0.03800
C 	C 	0.80514 0.72810 0.62518 -0.10000
H 	H 	0.79290 0.73180 0.61760 0.06600
C 	C 	0.82314 0.73907 0.62242 0.06100
H 	H 	0.82320 0.75010 0.61240 -0.00000
C 	C 	0.85226 0.59533 0.71662 0.09800
C 	C 	0.88852 0.66843 0.73679 0.05700
H 	H 	0.89940 0.66710 0.74680 -0.00000
C 	C 	0.88740 0.68666 0.72538 -0.09600
H 	H 	0.89690 0.69780 0.72800 0.06300
C 	C 	0.87221 0.68858 0.70993 0.00400
H 	H 	0.87160 0.70070 0.70130 0.03800
C 	C 	0.85790 0.67226 0.70751 -0.04500
C 	C 	0.85974 0.65472 0.71999 0.03100
H 	H 	0.84980 0.64380 0.71830 0.01700
C 	C 	0.84132 0.67282 0.69123 0.13400
C 	C 	0.82433 0.68970 0.66539 0.13300
C 	C 	0.81489 0.65684 0.67411 0.13300
C 	C 	0.78768 0.63822 0.65399 0.03900
H 	H 	0.78630 0.65060 0.64580 0.01200
C 	C 	0.80221 0.63815 0.67048 -0.05100
C 	C 	0.80411 0.62040 0.68265 0.00900
H 	H 	0.81400 0.61970 0.69380 0.03700
C 	C 	0.79109 0.60358 0.67808 -0.10000
H 	H 	0.79160 0.59130 0.68640 0.06700
C 	C 	0.77746 0.60489 0.66140 0.06100
H 	H 	0.76890 0.59310 0.65840 0.00100
C 	C 	0.73237 0.63862 0.66699 0.06300
H 	H 	0.74300 0.64890 0.66590 -0.00100
C 	C 	0.72060 0.63834 0.68460 -0.10300
H 	H 	0.72310 0.64810 0.69550 0.06800
C 	C 	0.70470 0.62333 0.68640 0.00900
H 	H 	0.69590 0.62290 0.69840 0.03700
C 	C 	0.70217 0.60924 0.67016 -0.05200
C 	C 	0.71498 0.61085 0.65269 0.04200
H 	H 	0.71300 0.60130 0.64150 0.01100
C 	C 	0.68559 0.59302 0.67092 0.13500
C 	C 	0.74941 0.57478 0.62389 0.10800
N 	N 	0.84096 0.73525 0.63308 -0.22300
N 	N 	0.86285 0.60699 0.72554 -0.26100
N 	N 	0.87503 0.65242 0.73449 -0.22400
N 	N 	0.82960 0.65582 0.68909 -0.15100
N 	N 	0.83966 0.69029 0.67975 -0.15000
N 	N 	0.81113 0.67387 0.66237 -0.15100
N 	N 	0.77568 0.62185 0.64925 -0.22900
N 	N 	0.75119 0.59238 0.62324 -0.26400
N 	N 	0.72991 0.62524 0.65103 -0.22900
N 	N 	0.67169 0.59428 0.68603 -0.15200
S 	S 	0.83696 0.57812 0.70537 -0.05900
S 	S 	0.74784 0.54928 0.62654 -0.06200
C 	C 	0.03011 0.14742 0.40972 0.03300
H 	H 	0.03270 0.15560 0.39760 0.01400
C 	C 	0.04250 0.15086 0.42742 -0.04600
C 	C 	0.03862 0.13928 0.44523 0.00600
H 	H 	0.04700 0.14080 0.45740 0.03800
C 	C 	0.02190 0.12518 0.44486 -0.10000
H 	H 	0.01820 0.11760 0.45710 0.06600
C 	C 	0.01093 0.12242 0.42686 0.06100
H 	H 	0.99990 0.11240 0.42680 -0.00000
C 	C 	0.15467 0.21662 0.39774 0.09800
C 	C 	0.08157 0.23679 0.36148 0.05700
H 	H 	0.08290 0.24680 0.35060 -0.00000
C 	C 	0.06334 0.22538 0.36260 -0.09600
H 	H 	0.05220 0.22800 0.35310 0.06300
C 	C 	0.06142 0.20993 0.37779 0.00400
H 	H 	0.04930 0.20130 0.37840 0.03800
C 	C 	0.07774 0.20751 0.39210 -0.04500
C 	C 	0.09528 0.21999 0.39026 0.03100
H 	H 	0.10620 0.21830 0.40020 0.01700
C 	C 	0.07718 0.19123 0.40868 0.13400
C 	C 	0.06030 0.16539 0.42567 0.13300
C 	C 	0.09316 0.17411 0.43511 0.13300
C 	C 	0.11178 0.15399 0.46232 0.03900
H 	H 	0.09940 0.14580 0.46370 0.01200
C 	C 	0.11185 0.17048 0.44779 -0.05100
C 	C 	0.12960 0.18265 0.44589 0.00900
H 	H 	0.13030 0.19380 0.43600 0.03700
C 	C 	0.14642 0.17808 0.45891 -0.10000
H 	H 	0.15870 0.18640 0.45840 0.06700
C 	C 	0.14511 0.16140 0.47254 0.06100
H 	H 	0.15690 0.15840 0.48110 0.00100
C 	C 	0.11138 0.16699 0.51763 0.06300
H 	H 	0.10110 0.16590 0.50700 -0.00100
C 	C 	0.11166 0.18460 0.52940 -0.10300
H 	H 	0.10190 0.19550 0.52690 0.06800
C 	C 	0.12667 0.18640 0.54530 0.00900
H 	H 	0.12710 0.19840 0.55410 0.03700
C 	C 	0.14076 0.17016 0.54783 -0.05200
C 	C 	0.13915 0.15269 0.53502 0.04200
H 	H 	0.14870 0.14150 0.53700 0.01100
C 	C 	0.15698 0.17092 0.56441 0.13500
C 	C 	0.17522 0.12389 0.50059 0.10800
N 	N 	0.01475 0.13308 0.40904 -0.22300
N 	N 	0.14301 0.22554 0.38715 -0.26100
N 	N 	0.09758 0.23449 0.37497 -0.22400
N 	N 	0.09418 0.18909 0.42040 -0.15100
N 	N 	0.05971 0.17975 0.41034 -0.15000
N 	N 	0.07613 0.16237 0.43887 -0.15100
N 	N 	0.12815 0.14925 0.47432 -0.22900
N 	N 	0.15762 0.12324 0.49881 -0.26400
N 	N 	0.12476 0.15103 0.52009 -0.22900
N 	N 	0.15572 0.18603 0.57831 -0.15200
S 	S 	0.17188 0.20537 0.41304 -0.05900
S 	S 	0.20072 0.12654 0.50216 -0.06200
C 	C 	0.03011 0.64742 0.90972 0.03300
H 	H 	0.03270 0.65560 0.89760 0.01400
C 	C 	0.04250 0.65086 0.92742 -0.04600
C 	C 	0.03862 0.63928 0.94523 0.00600
H 	H 	0.04700 0.64080 0.95740 0.03800
C 	C 	0.02190 0.62518 0.94486 -0.10000
H 	H 	0.01820 0.61760 0.95710 0.06600
C 	C 	0.01093 0.62242 0.92686 0.06100
H 	H 	0.99990 0.61240 0.92680 -0.00000
C 	C 	0.15467 0.71662 0.89774 0.09800
C 	C 	0.08157 0.73679 0.86148 0.05700
H 	H 	0.08290 0.74680 0.85060 -0.00000
C 	C 	0.06334 0.72538 0.86260 -0.09600
H 	H 	0.05220 0.72800 0.85310 0.06300
C 	C 	0.06142 0.70993 0.87779 0.00400
H 	H 	0.04930 0.70130 0.87840 0.03800
C 	C 	0.07774 0.70751 0.89210 -0.04500
C 	C 	0.09528 0.71999 0.89026 0.03100
H 	H 	0.10620 0.71830 0.90020 0.01700
C 	C 	0.07718 0.69123 0.90868 0.13400
C 	C 	0.06030 0.66539 0.92567 0.13300
C 	C 	0.09316 0.67411 0.93511 0.13300
C 	C 	0.11178 0.65399 0.96232 0.03900
H 	H 	0.09940 0.64580 0.96370 0.01200
C 	C 	0.11185 0.67048 0.94779 -0.05100
C 	C 	0.12960 0.68265 0.94589 0.00900
H 	H 	0.13030 0.69380 0.93600 0.03700
C 	C 	0.14642 0.67808 0.95891 -0.10000
H 	H 	0.15870 0.68640 0.95840 0.06700
C 	C 	0.14511 0.66140 0.97254 0.06100
H 	H 	0.15690 0.65840 0.98110 0.00100
C 	C 	0.11138 0.66699 0.01763 0.06300
H 	H 	0.10110 0.66590 0.00700 -0.00100
C 	C 	0.11166 0.68460 0.02940 -0.10300
H 	H 	0.10190 0.69550 0.02690 0.06800
C 	C 	0.12667 0.68640 0.04530 0.00900
H 	H 	0.12710 0.69840 0.05410 0.03700
C 	C 	0.14076 0.67016 0.04783 -0.05200
C 	C 	0.13915 0.65269 0.03502 0.04200
H 	H 	0.14870 0.64150 0.03700 0.01100
C 	C 	0.15698 0.67092 0.06441 0.13500
C 	C 	0.17522 0.62389 0.00059 0.10800
N 	N 	0.01475 0.63308 0.90904 -0.22300
N 	N 	0.14301 0.72554 0.88715 -0.26100
N 	N 	0.09758 0.73449 0.87497 -0.22400
N 	N 	0.09418 0.68909 0.92040 -0.15100
N 	N 	0.05971 0.67975 0.91034 -0.15000
N 	N 	0.07613 0.66237 0.93887 -0.15100
N 	N 	0.12815 0.64925 0.97432 -0.22900
N 	N 	0.15762 0.62324 0.99881 -0.26400
N 	N 	0.12476 0.65103 0.02009 -0.22900
N 	N 	0.15572 0.68603 0.07831 -0.15200
S 	S 	0.17188 0.70537 0.91304 -0.05900
S 	S 	0.20072 0.62654 0.00216 -0.06200
C 	C 	0.53011 0.14742 0.90972 0.03300
H 	H 	0.53270 0.15560 0.89760 0.01400
C 	C 	0.54250 0.15086 0.92742 -0.04600
C 	C 	0.53862 0.13928 0.94523 0.00600
H 	H 	0.54700 0.14080 0.95740 0.03800
C 	C 	0.52190 0.12518 0.94486 -0.10000
H 	H 	0.51820 0.11760 0.95710 0.06600
C 	C 	0.51093 0.12242 0.92686 0.06100
H 	H 	0.49990 0.11240 0.92680 -0.00000
C 	C 	0.65467 0.21662 0.89774 0.09800
C 	C 	0.58157 0.23679 0.86148 0.05700
H 	H 	0.58290 0.24680 0.85060 -0.00000
C 	C 	0.56334 0.22538 0.86260 -0.09600
H 	H 	0.55220 0.22800 0.85310 0.06300
C 	C 	0.56142 0.20993 0.87779 0.00400
H 	H 	0.54930 0.20130 0.87840 0.03800
C 	C 	0.57774 0.20751 0.89210 -0.04500
C 	C 	0.59528 0.21999 0.89026 0.03100
H 	H 	0.60620 0.21830 0.90020 0.01700
C 	C 	0.57718 0.19123 0.90868 0.13400
C 	C 	0.56030 0.16539 0.92567 0.13300
C 	C 	0.59316 0.17411 0.93511 0.13300
C 	C 	0.61178 0.15399 0.96232 0.03900
H 	H 	0.59940 0.14580 0.96370 0.01200
C 	C 	0.61185 0.17048 0.94779 -0.05100
C 	C 	0.62960 0.18265 0.94589 0.00900
H 	H 	0.63030 0.19380 0.93600 0.03700
C 	C 	0.64642 0.17808 0.95891 -0.10000
H 	H 	0.65870 0.18640 0.95840 0.06700
C 	C 	0.64511 0.16140 0.97254 0.06100
H 	H 	0.65690 0.15840 0.98110 0.00100
C 	C 	0.61138 0.16699 0.01763 0.06300
H 	H 	0.60110 0.16590 0.00700 -0.00100
C 	C 	0.61166 0.18460 0.02940 -0.10300
H 	H 	0.60190 0.19550 0.02690 0.06800
C 	C 	0.62667 0.18640 0.04530 0.00900
H 	H 	0.62710 0.19840 0.05410 0.03700
C 	C 	0.64076 0.17016 0.04783 -0.05200
C 	C 	0.63915 0.15269 0.03502 0.04200
H 	H 	0.64870 0.14150 0.03700 0.01100
C 	C 	0.65698 0.17092 0.06441 0.13500
C 	C 	0.67522 0.12389 0.00059 0.10800
N 	N 	0.51475 0.13308 0.90904 -0.22300
N 	N 	0.64301 0.22554 0.88715 -0.26100
N 	N 	0.59758 0.23449 0.87497 -0.22400
N 	N 	0.59418 0.18909 0.92040 -0.15100
N 	N 	0.55971 0.17975 0.91034 -0.15000
N 	N 	0.57613 0.16237 0.93887 -0.15100
N 	N 	0.62815 0.14925 0.97432 -0.22900
N 	N 	0.65762 0.12324 0.99881 -0.26400
N 	N 	0.62476 0.15103 0.02009 -0.22900
N 	N 	0.65572 0.18603 0.07831 -0.15200
S 	S 	0.67188 0.20537 0.91304 -0.05900
S 	S 	0.70072 0.12654 0.00216 -0.06200
C 	C 	0.53011 0.64742 0.40972 0.03300
H 	H 	0.53270 0.65560 0.39760 0.01400
C 	C 	0.54250 0.65086 0.42742 -0.04600
C 	C 	0.53862 0.63928 0.44523 0.00600
H 	H 	0.54700 0.64080 0.45740 0.03800
C 	C 	0.52190 0.62518 0.44486 -0.10000
H 	H 	0.51820 0.61760 0.45710 0.06600
C 	C 	0.51093 0.62242 0.42686 0.06100
H 	H 	0.49990 0.61240 0.42680 -0.00000
C 	C 	0.65467 0.71662 0.39774 0.09800
C 	C 	0.58157 0.73679 0.36148 0.05700
H 	H 	0.58290 0.74680 0.35060 -0.00000
C 	C 	0.56334 0.72538 0.36260 -0.09600
H 	H 	0.55220 0.72800 0.35310 0.06300
C 	C 	0.56142 0.70993 0.37779 0.00400
H 	H 	0.54930 0.70130 0.37840 0.03800
C 	C 	0.57774 0.70751 0.39210 -0.04500
C 	C 	0.59528 0.71999 0.39026 0.03100
H 	H 	0.60620 0.71830 0.40020 0.01700
C 	C 	0.57718 0.69123 0.40868 0.13400
C 	C 	0.56030 0.66539 0.42567 0.13300
C 	C 	0.59316 0.67411 0.43511 0.13300
C 	C 	0.61178 0.65399 0.46232 0.03900
H 	H 	0.59940 0.64580 0.46370 0.01200
C 	C 	0.61185 0.67048 0.44779 -0.05100
C 	C 	0.62960 0.68265 0.44589 0.00900
H 	H 	0.63030 0.69380 0.43600 0.03700
C 	C 	0.64642 0.67808 0.45891 -0.10000
H 	H 	0.65870 0.68640 0.45840 0.06700
C 	C 	0.64511 0.66140 0.47254 0.06100
H 	H 	0.65690 0.65840 0.48110 0.00100
C 	C 	0.61138 0.66699 0.51763 0.06300
H 	H 	0.60110 0.66590 0.50700 -0.00100
C 	C 	0.61166 0.68460 0.52940 -0.10300
H 	H 	0.60190 0.69550 0.52690 0.06800
C 	C 	0.62667 0.68640 0.54530 0.00900
H 	H 	0.62710 0.69840 0.55410 0.03700
C 	C 	0.64076 0.67016 0.54783 -0.05200
C 	C 	0.63915 0.65269 0.53502 0.04200
H 	H 	0.64870 0.64150 0.53700 0.01100
C 	C 	0.65698 0.67092 0.56441 0.13500
C 	C 	0.67522 0.62389 0.50059 0.10800
N 	N 	0.51475 0.63308 0.40904 -0.22300
N 	N 	0.64301 0.72554 0.38715 -0.26100
N 	N 	0.59758 0.73449 0.37497 -0.22400
N 	N 	0.59418 0.68909 0.42040 -0.15100
N 	N 	0.55971 0.67975 0.41034 -0.15000
N 	N 	0.57613 0.66237 0.43887 -0.15100
N 	N 	0.62815 0.64925 0.47432 -0.22900
N 	N 	0.65762 0.62324 0.49881 -0.26400
N 	N 	0.62476 0.65103 0.52009 -0.22900
N 	N 	0.65572 0.68603 0.57831 -0.15200
S 	S 	0.67188 0.70537 0.41304 -0.05900
S 	S 	0.70072 0.62654 0.50216 -0.06200
C 	C 	0.53011 0.60258 0.84028 0.03300
H 	H 	0.53270 0.59440 0.85240 0.01400
C 	C 	0.54250 0.59914 0.82258 -0.04600
C 	C 	0.53862 0.61072 0.80477 0.00600
H 	H 	0.54700 0.60920 0.79260 0.03800
C 	C 	0.52190 0.62482 0.80514 -0.10000
H 	H 	0.51820 0.63240 0.79290 0.06600
C 	C 	0.51093 0.62758 0.82314 0.06100
H 	H 	0.49990 0.63760 0.82320 -0.00000
C 	C 	0.65467 0.53338 0.85226 0.09800
C 	C 	0.58157 0.51321 0.88852 0.05700
H 	H 	0.58290 0.50320 0.89940 -0.00000
C 	C 	0.56334 0.52462 0.88740 -0.09600
H 	H 	0.55220 0.52200 0.89690 0.06300
C 	C 	0.56142 0.54007 0.87221 0.00400
H 	H 	0.54930 0.54870 0.87160 0.03800
C 	C 	0.57774 0.54249 0.85790 -0.04500
C 	C 	0.59528 0.53001 0.85974 0.03100
H 	H 	0.60620 0.53170 0.84980 0.01700
C 	C 	0.57718 0.55877 0.84132 0.13400
C 	C 	0.56030 0.58461 0.82433 0.13300
C 	C 	0.59316 0.57589 0.81489 0.13300
C 	C 	0.61178 0.59601 0.78768 0.03900
H 	H 	0.59940 0.60420 0.78630 0.01200
C 	C 	0.61185 0.57952 0.80221 -0.05100
C 	C 	0.62960 0.56735 0.80411 0.00900
H 	H 	0.63030 0.55620 0.81400 0.03700
C 	C 	0.64642 0.57192 0.79109 -0.10000
H 	H 	0.65870 0.56360 0.79160 0.06700
C 	C 	0.64511 0.58860 0.77746 0.06100
H 	H 	0.65690 0.59160 0.76890 0.00100
C 	C 	0.61138 0.58301 0.73237 0.06300
H 	H 	0.60110 0.58410 0.74300 -0.00100
C 	C 	0.61166 0.56540 0.72060 -0.10300
H 	H 	0.60190 0.55450 0.72310 0.06800
C 	C 	0.62667 0.56360 0.70470 0.00900
H 	H 	0.62710 0.55160 0.69590 0.03700
C 	C 	0.64076 0.57984 0.70217 -0.05200
C 	C 	0.63915 0.59731 0.71498 0.04200
H 	H 	0.64870 0.60850 0.71300 0.01100
C 	C 	0.65698 0.57908 0.68559 0.13500
C 	C 	0.67522 0.62611 0.74941 0.10800
N 	N 	0.51475 0.61692 0.84096 -0.22300
N 	N 	0.64301 0.52446 0.86285 -0.26100
N 	N 	0.59758 0.51551 0.87503 -0.22400
N 	N 	0.59418 0.56091 0.82960 -0.15100
N 	N 	0.55971 0.57025 0.83966 -0.15000
N 	N 	0.57613 0.58763 0.81113 -0.15100
N 	N 	0.62815 0.60075 0.77568 -0.22900
N 	N 	0.65762 0.62676 0.75119 -0.26400
N 	N 	0.62476 0.59897 0.72991 -0.22900
N 	N 	0.65572 0.56397 0.67169 -0.15200
S 	S 	0.67188 0.54463 0.83696 -0.05900
S 	S 	0.70072 0.62346 0.74784 -0.06200
C 	C 	0.53011 0.10258 0.34028 0.03300
H 	H 	0.53270 0.09440 0.35240 0.01400
C 	C 	0.54250 0.09914 0.32258 -0.04600
C 	C 	0.53862 0.11072 0.30477 0.00600
H 	H 	0.54700 0.10920 0.29260 0.03800
C 	C 	0.52190 0.12482 0.30514 -0.10000
H 	H 	0.51820 0.13240 0.29290 0.06600
C 	C 	0.51093 0.12758 0.32314 0.06100
H 	H 	0.49990 0.13760 0.32320 -0.00000
C 	C 	0.65467 0.03338 0.35226 0.09800
C 	C 	0.58157 0.01321 0.38852 0.05700
H 	H 	0.58290 0.00320 0.39940 -0.00000
C 	C 	0.56334 0.02462 0.38740 -0.09600
H 	H 	0.55220 0.02200 0.39690 0.06300
C 	C 	0.56142 0.04007 0.37221 0.00400
H 	H 	0.54930 0.04870 0.37160 0.03800
C 	C 	0.57774 0.04249 0.35790 -0.04500
C 	C 	0.59528 0.03001 0.35974 0.03100
H 	H 	0.60620 0.03170 0.34980 0.01700
C 	C 	0.57718 0.05877 0.34132 0.13400
C 	C 	0.56030 0.08461 0.32433 0.13300
C 	C 	0.59316 0.07589 0.31489 0.13300
C 	C 	0.61178 0.09601 0.28768 0.03900
H 	H 	0.59940 0.10420 0.28630 0.01200
C 	C 	0.61185 0.07952 0.30221 -0.05100
C 	C 	0.62960 0.06735 0.30411 0.00900
H 	H 	0.63030 0.05620 0.31400 0.03700
C 	C 	0.64642 0.07192 0.29109 -0.10000
H 	H 	0.65870 0.06360 0.29160 0.06700
C 	C 	0.64511 0.08860 0.27746 0.06100
H 	H 	0.65690 0.09160 0.26890 0.00100
C 	C 	0.61138 0.08301 0.23237 0.06300
H 	H 	0.60110 0.08410 0.24300 -0.00100
C 	C 	0.61166 0.06540 0.22060 -0.10300
H 	H 	0.60190 0.05450 0.22310 0.06800
C 	C 	0.62667 0.06360 0.20470 0.00900
H 	H 	0.62710 0.05160 0.19590 0.03700
C 	C 	0.64076 0.07984 0.20217 -0.05200
C 	C 	0.63915 0.09731 0.21498 0.04200
H 	H 	0.64870 0.10850 0.21300 0.01100
C 	C 	0.65698 0.07908 0.18559 0.13500
C 	C 	0.67522 0.12611 0.24941 0.10800
N 	N 	0.51475 0.11692 0.34096 -0.22300
N 	N 	0.64301 0.02446 0.36285 -0.26100
N 	N 	0.59758 0.01551 0.37503 -0.22400
N 	N 	0.59418 0.06091 0.32960 -0.15100
N 	N 	0.55971 0.07025 0.33966 -0.15000
N 	N 	0.57613 0.08763 0.31113 -0.15100
N 	N 	0.62815 0.10075 0.27568 -0.22900
N 	N 	0.65762 0.12676 0.25119 -0.26400
N 	N 	0.62476 0.09897 0.22991 -0.22900
N 	N 	0.65572 0.06397 0.17169 -0.15200
S 	S 	0.67188 0.04463 0.33696 -0.05900
S 	S 	0.70072 0.12346 0.24784 -0.06200
C 	C 	0.03011 0.60258 0.34028 0.03300
H 	H 	0.03270 0.59440 0.35240 0.01400
C 	C 	0.04250 0.59914 0.32258 -0.04600
C 	C 	0.03862 0.61072 0.30477 0.00600
H 	H 	0.04700 0.60920 0.29260 0.03800
C 	C 	0.02190 0.62482 0.30514 -0.10000
H 	H 	0.01820 0.63240 0.29290 0.06600
C 	C 	0.01093 0.62758 0.32314 0.06100
H 	H 	0.99990 0.63760 0.32320 -0.00000
C 	C 	0.15467 0.53338 0.35226 0.09800
C 	C 	0.08157 0.51321 0.38852 0.05700
H 	H 	0.08290 0.50320 0.39940 -0.00000
C 	C 	0.06334 0.52462 0.38740 -0.09600
H 	H 	0.05220 0.52200 0.39690 0.06300
C 	C 	0.06142 0.54007 0.37221 0.00400
H 	H 	0.04930 0.54870 0.37160 0.03800
C 	C 	0.07774 0.54249 0.35790 -0.04500
C 	C 	0.09528 0.53001 0.35974 0.03100
H 	H 	0.10620 0.53170 0.34980 0.01700
C 	C 	0.07718 0.55877 0.34132 0.13400
C 	C 	0.06030 0.58461 0.32433 0.13300
C 	C 	0.09316 0.57589 0.31489 0.13300
C 	C 	0.11178 0.59601 0.28768 0.03900
H 	H 	0.09940 0.60420 0.28630 0.01200
C 	C 	0.11185 0.57952 0.30221 -0.05100
C 	C 	0.12960 0.56735 0.30411 0.00900
H 	H 	0.13030 0.55620 0.31400 0.03700
C 	C 	0.14642 0.57192 0.29109 -0.10000
H 	H 	0.15870 0.56360 0.29160 0.06700
C 	C 	0.14511 0.58860 0.27746 0.06100
H 	H 	0.15690 0.59160 0.26890 0.00100
C 	C 	0.11138 0.58301 0.23237 0.06300
H 	H 	0.10110 0.58410 0.24300 -0.00100
C 	C 	0.11166 0.56540 0.22060 -0.10300
H 	H 	0.10190 0.55450 0.22310 0.06800
C 	C 	0.12667 0.56360 0.20470 0.00900
H 	H 	0.12710 0.55160 0.19590 0.03700
C 	C 	0.14076 0.57984 0.20217 -0.05200
C 	C 	0.13915 0.59731 0.21498 0.04200
H 	H 	0.14870 0.60850 0.21300 0.01100
C 	C 	0.15698 0.57908 0.18559 0.13500
C 	C 	0.17522 0.62611 0.24941 0.10800
N 	N 	0.01475 0.61692 0.34096 -0.22300
N 	N 	0.14301 0.52446 0.36285 -0.26100
N 	N 	0.09758 0.51551 0.37503 -0.22400
N 	N 	0.09418 0.56091 0.32960 -0.15100
N 	N 	0.05971 0.57025 0.33966 -0.15000
N 	N 	0.07613 0.58763 0.31113 -0.15100
N 	N 	0.12815 0.60075 0.27568 -0.22900
N 	N 	0.15762 0.62676 0.25119 -0.26400
N 	N 	0.12476 0.59897 0.22991 -0.22900
N 	N 	0.15572 0.56397 0.17169 -0.15200
S 	S 	0.17188 0.54463 0.33696 -0.05900
S 	S 	0.20072 0.62346 0.24784 -0.06200
C 	C 	0.03011 0.10258 0.84028 0.03300
H 	H 	0.03270 0.09440 0.85240 0.01400
C 	C 	0.04250 0.09914 0.82258 -0.04600
C 	C 	0.03862 0.11072 0.80477 0.00600
H 	H 	0.04700 0.10920 0.79260 0.03800
C 	C 	0.02190 0.12482 0.80514 -0.10000
H 	H 	0.01820 0.13240 0.79290 0.06600
C 	C 	0.01093 0.12758 0.82314 0.06100
H 	H 	0.99990 0.13760 0.82320 -0.00000
C 	C 	0.15467 0.03338 0.85226 0.09800
C 	C 	0.08157 0.01321 0.88852 0.05700
H 	H 	0.08290 0.00320 0.89940 -0.00000
C 	C 	0.06334 0.02462 0.88740 -0.09600
H 	H 	0.05220 0.02200 0.89690 0.06300
C 	C 	0.06142 0.04007 0.87221 0.00400
H 	H 	0.04930 0.04870 0.87160 0.03800
C 	C 	0.07774 0.04249 0.85790 -0.04500
C 	C 	0.09528 0.03001 0.85974 0.03100
H 	H 	0.10620 0.03170 0.84980 0.01700
C 	C 	0.07718 0.05877 0.84132 0.13400
C 	C 	0.06030 0.08461 0.82433 0.13300
C 	C 	0.09316 0.07589 0.81489 0.13300
C 	C 	0.11178 0.09601 0.78768 0.03900
H 	H 	0.09940 0.10420 0.78630 0.01200
C 	C 	0.11185 0.07952 0.80221 -0.05100
C 	C 	0.12960 0.06735 0.80411 0.00900
H 	H 	0.13030 0.05620 0.81400 0.03700
C 	C 	0.14642 0.07192 0.79109 -0.10000
H 	H 	0.15870 0.06360 0.79160 0.06700
C 	C 	0.14511 0.08860 0.77746 0.06100
H 	H 	0.15690 0.09160 0.76890 0.00100
C 	C 	0.11138 0.08301 0.73237 0.06300
H 	H 	0.10110 0.08410 0.74300 -0.00100
C 	C 	0.11166 0.06540 0.72060 -0.10300
H 	H 	0.10190 0.05450 0.72310 0.06800
C 	C 	0.12667 0.06360 0.70470 0.00900
H 	H 	0.12710 0.05160 0.69590 0.03700
C 	C 	0.14076 0.07984 0.70217 -0.05200
C 	C 	0.13915 0.09731 0.71498 0.04200
H 	H 	0.14870 0.10850 0.71300 0.01100
C 	C 	0.15698 0.07908 0.68559 0.13500
C 	C 	0.17522 0.12611 0.74941 0.10800
N 	N 	0.01475 0.11692 0.84096 -0.22300
N 	N 	0.14301 0.02446 0.86285 -0.26100
N 	N 	0.09758 0.01551 0.87503 -0.22400
N 	N 	0.09418 0.06091 0.82960 -0.15100
N 	N 	0.05971 0.07025 0.83966 -0.15000
N 	N 	0.07613 0.08763 0.81113 -0.15100
N 	N 	0.12815 0.10075 0.77568 -0.22900
N 	N 	0.15762 0.12676 0.75119 -0.26400
N 	N 	0.12476 0.09897 0.72991 -0.22900
N 	N 	0.15572 0.06397 0.67169 -0.15200
S 	S 	0.17188 0.04463 0.83696 -0.05900
S 	S 	0.20072 0.12346 0.74784 -0.06200
C 	C 	0.21989 0.64742 0.34028 0.03300
H 	H 	0.21730 0.65560 0.35240 0.01400
C 	C 	0.20750 0.65086 0.32258 -0.04600
C 	C 	0.21138 0.63928 0.30477 0.00600
H 	H 	0.20300 0.64080 0.29260 0.03800
C 	C 	0.22810 0.62518 0.30514 -0.10000
H 	H 	0.23180 0.61760 0.29290 0.06600
C 	C 	0.23907 0.62242 0.32314 0.06100
H 	H 	0.25010 0.61240 0.32320 -0.00000
C 	C 	0.09533 0.71662 0.35226 0.09800
C 	C 	0.16843 0.73679 0.38852 0.05700
H 	H 	0.16710 0.74680 0.39940 -0.00000
C 	C 	0.18666 0.72538 0.38740 -0.09600
H 	H 	0.19780 0.72800 0.39690 0.06300
C 	C 	0.18858 0.70993 0.37221 0.00400
H 	H 	0.20070 0.70130 0.37160 0.03800
C 	C 	0.17226 0.70751 0.35790 -0.04500
C 	C 	0.15472 0.71999 0.35974 0.03100
H 	H 	0.14380 0.71830 0.34980 0.01700
C 	C 	0.17282 0.69123 0.34132 0.13400
C 	C 	0.18970 0.66539 0.32433 0.13300
C 	C 	0.15684 0.67411 0.31489 0.13300
C 	C 	0.13822 0.65399 0.28768 0.03900
H 	H 	0.15060 0.64580 0.28630 0.01200
C 	C 	0.13815 0.67048 0.30221 -0.05100
C 	C 	0.12040 0.68265 0.30411 0.00900
H 	H 	0.11970 0.69380 0.31400 0.03700
C 	C 	0.10358 0.67808 0.29109 -0.10000
H 	H 	0.09130 0.68640 0.29160 0.06700
C 	C 	0.10489 0.66140 0.27746 0.06100
H 	H 	0.09310 0.65840 0.26890 0.00100
C 	C 	0.13862 0.66699 0.23237 0.06300
H 	H 	0.14890 0.66590 0.24300 -0.00100
C 	C 	0.13834 0.68460 0.22060 -0.10300
H 	H 	0.14810 0.69550 0.22310 0.06800
C 	C 	0.12333 0.68640 0.20470 0.00900
H 	H 	0.12290 0.69840 0.19590 0.03700
C 	C 	0.10924 0.67016 0.20217 -0.05200
C 	C 	0.11085 0.65269 0.21498 0.04200
H 	H 	0.10130 0.64150 0.21300 0.01100
C 	C 	0.09302 0.67092 0.18559 0.13500
C 	C 	0.07478 0.62389 0.24941 0.10800
N 	N 	0.23525 0.63308 0.34096 -0.22300
N 	N 	0.10699 0.72554 0.36285 -0.26100
N 	N 	0.15242 0.73449 0.37503 -0.22400
N 	N 	0.15582 0.68909 0.32960 -0.15100
N 	N 	0.19029 0.67975 0.33966 -0.15000
N 	N 	0.17387 0.66237 0.31113 -0.15100
N 	N 	0.12185 0.64925 0.27568 -0.22900
N 	N 	0.09238 0.62324 0.25119 -0.26400
N 	N 	0.12524 0.65103 0.22991 -0.22900
N 	N 	0.09428 0.68603 0.17169 -0.15200
S 	S 	0.07812 0.70537 0.33696 -0.05900
S 	S 	0.04928 0.62654 0.24784 -0.06200
C 	C 	0.21989 0.14742 0.84028 0.03300
H 	H 	0.21730 0.15560 0.85240 0.01400
C 	C 	0.20750 0.15086 0.82258 -0.04600
C 	C 	0.21138 0.13928 0.80477 0.00600
H 	H 	0.20300 0.14080 0.79260 0.03800
C 	C 	0.22810 0.12518 0.80514 -0.10000
H 	H 	0.23180 0.11760 0.79290 0.06600
C 	C 	0.23907 0.12242 0.82314 0.06100
H 	H 	0.25010 0.11240 0.82320 -0.00000
C 	C 	0.09533 0.21662 0.85226 0.09800
C 	C 	0.16843 0.23679 0.88852 0.05700
H 	H 	0.16710 0.24680 0.89940 -0.00000
C 	C 	0.18666 0.22538 0.88740 -0.09600
H 	H 	0.19780 0.22800 0.89690 0.06300
C 	C 	0.18858 0.20993 0.87221 0.00400
H 	H 	0.20070 0.20130 0.87160 0.03800
C 	C 	0.17226 0.20751 0.85790 -0.04500
C 	C 	0.15472 0.21999 0.85974 0.03100
H 	H 	0.14380 0.21830 0.84980 0.01700
C 	C 	0.17282 0.19123 0.84132 0.13400
C 	C 	0.18970 0.16539 0.82433 0.13300
C 	C 	0.15684 0.17411 0.81489 0.13300
C 	C 	0.13822 0.15399 0.78768 0.03900
H 	H 	0.15060 0.14580 0.78630 0.01200
C 	C 	0.13815 0.17048 0.80221 -0.05100
C 	C 	0.12040 0.18265 0.80411 0.00900
H 	H 	0.11970 0.19380 0.81400 0.03700
C 	C 	0.10358 0.17808 0.79109 -0.10000
H 	H 	0.09130 0.18640 0.79160 0.06700
C 	C 	0.10489 0.16140 0.77746 0.06100
H 	H 	0.09310 0.15840 0.76890 0.00100
C 	C 	0.13862 0.16699 0.73237 0.06300
H 	H 	0.14890 0.16590 0.74300 -0.00100
C 	C 	0.13834 0.18460 0.72060 -0.10300
H 	H 	0.14810 0.19550 0.72310 0.06800
C 	C 	0.12333 0.18640 0.70470 0.00900
H 	H 	0.12290 0.19840 0.69590 0.03700
C 	C 	0.10924 0.17016 0.70217 -0.05200
C 	C 	0.11085 0.15269 0.71498 0.04200
H 	H 	0.10130 0.14150 0.71300 0.01100
C 	C 	0.09302 0.17092 0.68559 0.13500
C 	C 	0.07478 0.12389 0.74941 0.10800
N 	N 	0.23525 0.13308 0.84096 -0.22300
N 	N 	0.10699 0.22554 0.86285 -0.26100
N 	N 	0.15242 0.23449 0.87503 -0.22400
N 	N 	0.15582 0.18909 0.82960 -0.15100
N 	N 	0.19029 0.17975 0.83966 -0.15000
N 	N 	0.17387 0.16237 0.81113 -0.15100
N 	N 	0.12185 0.14925 0.77568 -0.22900
N 	N 	0.09238 0.12324 0.75119 -0.26400
N 	N 	0.12524 0.15103 0.72991 -0.22900
N 	N 	0.09428 0.18603 0.67169 -0.15200
S 	S 	0.07812 0.20537 0.83696 -0.05900
S 	S 	0.04928 0.12654 0.74784 -0.06200
C 	C 	0.71989 0.64742 0.84028 0.03300
H 	H 	0.71730 0.65560 0.85240 0.01400
C 	C 	0.70750 0.65086 0.82258 -0.04600
C 	C 	0.71138 0.63928 0.80477 0.00600
H 	H 	0.70300 0.64080 0.79260 0.03800
C 	C 	0.72810 0.62518 0.80514 -0.10000
H 	H 	0.73180 0.61760 0.79290 0.06600
C 	C 	0.73907 0.62242 0.82314 0.06100
H 	H 	0.75010 0.61240 0.82320 -0.00000
C 	C 	0.59533 0.71662 0.85226 0.09800
C 	C 	0.66843 0.73679 0.88852 0.05700
H 	H 	0.66710 0.74680 0.89940 -0.00000
C 	C 	0.68666 0.72538 0.88740 -0.09600
H 	H 	0.69780 0.72800 0.89690 0.06300
C 	C 	0.68858 0.70993 0.87221 0.00400
H 	H 	0.70070 0.70130 0.87160 0.03800
C 	C 	0.67226 0.70751 0.85790 -0.04500
C 	C 	0.65472 0.71999 0.85974 0.03100
H 	H 	0.64380 0.71830 0.84980 0.01700
C 	C 	0.67282 0.69123 0.84132 0.13400
C 	C 	0.68970 0.66539 0.82433 0.13300
C 	C 	0.65684 0.67411 0.81489 0.13300
C 	C 	0.63822 0.65399 0.78768 0.03900
H 	H 	0.65060 0.64580 0.78630 0.01200
C 	C 	0.63815 0.67048 0.80221 -0.05100
C 	C 	0.62040 0.68265 0.80411 0.00900
H 	H 	0.61970 0.69380 0.81400 0.03700
C 	C 	0.60358 0.67808 0.79109 -0.10000
H 	H 	0.59130 0.68640 0.79160 0.06700
C 	C 	0.60489 0.66140 0.77746 0.06100
H 	H 	0.59310 0.65840 0.76890 0.00100
C 	C 	0.63862 0.66699 0.73237 0.06300
H 	H 	0.64890 0.66590 0.74300 -0.00100
C 	C 	0.63834 0.68460 0.72060 -0.10300
H 	H 	0.64810 0.69550 0.72310 0.06800
C 	C 	0.62333 0.68640 0.70470 0.00900
H 	H 	0.62290 0.69840 0.69590 0.03700
C 	C 	0.60924 0.67016 0.70217 -0.05200
C 	C 	0.61085 0.65269 0.71498 0.04200
H 	H 	0.60130 0.64150 0.71300 0.01100
C 	C 	0.59302 0.67092 0.68559 0.13500
C 	C 	0.57478 0.62389 0.74941 0.10800
N 	N 	0.73525 0.63308 0.84096 -0.22300
N 	N 	0.60699 0.72554 0.86285 -0.26100
N 	N 	0.65242 0.73449 0.87503 -0.22400
N 	N 	0.65582 0.68909 0.82960 -0.15100
N 	N 	0.69029 0.67975 0.83966 -0.15000
N 	N 	0.67387 0.66237 0.81113 -0.15100
N 	N 	0.62185 0.64925 0.77568 -0.22900
N 	N 	0.59238 0.62324 0.75119 -0.26400
N 	N 	0.62524 0.65103 0.72991 -0.22900
N 	N 	0.59428 0.68603 0.67169 -0.15200
S 	S 	0.57812 0.70537 0.83696 -0.05900
S 	S 	0.54928 0.62654 0.74784 -0.06200
C 	C 	0.71989 0.14742 0.34028 0.03300
H 	H 	0.71730 0.15560 0.35240 0.01400
C 	C 	0.70750 0.15086 0.32258 -0.04600
C 	C 	0.71138 0.13928 0.30477 0.00600
H 	H 	0.70300 0.14080 0.29260 0.03800
C 	C 	0.72810 0.12518 0.30514 -0.10000
H 	H 	0.73180 0.11760 0.29290 0.06600
C 	C 	0.73907 0.12242 0.32314 0.06100
H 	H 	0.75010 0.11240 0.32320 -0.00000
C 	C 	0.59533 0.21662 0.35226 0.09800
C 	C 	0.66843 0.23679 0.38852 0.05700
H 	H 	0.66710 0.24680 0.39940 -0.00000
C 	C 	0.68666 0.22538 0.38740 -0.09600
H 	H 	0.69780 0.22800 0.39690 0.06300
C 	C 	0.68858 0.20993 0.37221 0.00400
H 	H 	0.70070 0.20130 0.37160 0.03800
C 	C 	0.67226 0.20751 0.35790 -0.04500
C 	C 	0.65472 0.21999 0.35974 0.03100
H 	H 	0.64380 0.21830 0.34980 0.01700
C 	C 	0.67282 0.19123 0.34132 0.13400
C 	C 	0.68970 0.16539 0.32433 0.13300
C 	C 	0.65684 0.17411 0.31489 0.13300
C 	C 	0.63822 0.15399 0.28768 0.03900
H 	H 	0.65060 0.14580 0.28630 0.01200
C 	C 	0.63815 0.17048 0.30221 -0.05100
C 	C 	0.62040 0.18265 0.30411 0.00900
H 	H 	0.61970 0.19380 0.31400 0.03700
C 	C 	0.60358 0.17808 0.29109 -0.10000
H 	H 	0.59130 0.18640 0.29160 0.06700
C 	C 	0.60489 0.16140 0.27746 0.06100
H 	H 	0.59310 0.15840 0.26890 0.00100
C 	C 	0.63862 0.16699 0.23237 0.06300
H 	H 	0.64890 0.16590 0.24300 -0.00100
C 	C 	0.63834 0.18460 0.22060 -0.10300
H 	H 	0.64810 0.19550 0.22310 0.06800
C 	C 	0.62333 0.18640 0.20470 0.00900
H 	H 	0.62290 0.19840 0.19590 0.03700
C 	C 	0.60924 0.17016 0.20217 -0.05200
C 	C 	0.61085 0.15269 0.21498 0.04200
H 	H 	0.60130 0.14150 0.21300 0.01100
C 	C 	0.59302 0.17092 0.18559 0.13500
C 	C 	0.57478 0.12389 0.24941 0.10800
N 	N 	0.73525 0.13308 0.34096 -0.22300
N 	N 	0.60699 0.22554 0.36285 -0.26100
N 	N 	0.65242 0.23449 0.37503 -0.22400
N 	N 	0.65582 0.18909 0.32960 -0.15100
N 	N 	0.69029 0.17975 0.33966 -0.15000
N 	N 	0.67387 0.16237 0.31113 -0.15100
N 	N 	0.62185 0.14925 0.27568 -0.22900
N 	N 	0.59238 0.12324 0.25119 -0.26400
N 	N 	0.62524 0.15103 0.22991 -0.22900
N 	N 	0.59428 0.18603 0.17169 -0.15200
S 	S 	0.57812 0.20537 0.33696 -0.05900
S 	S 	0.54928 0.12654 0.24784 -0.06200
C 	C 	0.71989 0.10258 0.90972 0.03300
H 	H 	0.71730 0.09440 0.89760 0.01400
C 	C 	0.70750 0.09914 0.92742 -0.04600
C 	C 	0.71138 0.11072 0.94523 0.00600
H 	H 	0.70300 0.10920 0.95740 0.03800
C 	C 	0.72810 0.12482 0.94486 -0.10000
H 	H 	0.73180 0.13240 0.95710 0.06600
C 	C 	0.73907 0.12758 0.92686 0.06100
H 	H 	0.75010 0.13760 0.92680 -0.00000
C 	C 	0.59533 0.03338 0.89774 0.09800
C 	C 	0.66843 0.01321 0.86148 0.05700
H 	H 	0.66710 0.00320 0.85060 -0.00000
C 	C 	0.68666 0.02462 0.86260 -0.09600
H 	H 	0.69780 0.02200 0.85310 0.06300
C 	C 	0.68858 0.04007 0.87779 0.00400
H 	H 	0.70070 0.04870 0.87840 0.03800
C 	C 	0.67226 0.04249 0.89210 -0.04500
C 	C 	0.65472 0.03001 0.89026 0.03100
H 	H 	0.64380 0.03170 0.90020 0.01700
C 	C 	0.67282 0.05877 0.90868 0.13400
C 	C 	0.68970 0.08461 0.92567 0.13300
C 	C 	0.65684 0.07589 0.93511 0.13300
C 	C 	0.63822 0.09601 0.96232 0.03900
H 	H 	0.65060 0.10420 0.96370 0.01200
C 	C 	0.63815 0.07952 0.94779 -0.05100
C 	C 	0.62040 0.06735 0.94589 0.00900
H 	H 	0.61970 0.05620 0.93600 0.03700
C 	C 	0.60358 0.07192 0.95891 -0.10000
H 	H 	0.59130 0.06360 0.95840 0.06700
C 	C 	0.60489 0.08860 0.97254 0.06100
H 	H 	0.59310 0.09160 0.98110 0.00100
C 	C 	0.63862 0.08301 0.01763 0.06300
H 	H 	0.64890 0.08410 0.00700 -0.00100
C 	C 	0.63834 0.06540 0.02940 -0.10300
H 	H 	0.64810 0.05450 0.02690 0.06800
C 	C 	0.62333 0.06360 0.04530 0.00900
H 	H 	0.62290 0.05160 0.05410 0.03700
C 	C 	0.60924 0.07984 0.04783 -0.05200
C 	C 	0.61085 0.09731 0.03502 0.04200
H 	H 	0.60130 0.10850 0.03700 0.01100
C 	C 	0.59302 0.07908 0.06441 0.13500
C 	C 	0.57478 0.12611 0.00059 0.10800
N 	N 	0.73525 0.11692 0.90904 -0.22300
N 	N 	0.60699 0.02446 0.88715 -0.26100
N 	N 	0.65242 0.01551 0.87497 -0.22400
N 	N 	0.65582 0.06091 0.92040 -0.15100
N 	N 	0.69029 0.07025 0.91034 -0.15000
N 	N 	0.67387 0.08763 0.93887 -0.15100
N 	N 	0.62185 0.10075 0.97432 -0.22900
N 	N 	0.59238 0.12676 0.99881 -0.26400
N 	N 	0.62524 0.09897 0.02009 -0.22900
N 	N 	0.59428 0.06397 0.07831 -0.15200
S 	S 	0.57812 0.04463 0.91304 -0.05900
S 	S 	0.54928 0.12346 0.00216 -0.06200
C 	C 	0.71989 0.60258 0.40972 0.03300
H 	H 	0.71730 0.59440 0.39760 0.01400
C 	C 	0.70750 0.59914 0.42742 -0.04600
C 	C 	0.71138 0.61072 0.44523 0.00600
H 	H 	0.70300 0.60920 0.45740 0.03800
C 	C 	0.72810 0.62482 0.44486 -0.10000
H 	H 	0.73180 0.63240 0.45710 0.06600
C 	C 	0.73907 0.62758 0.42686 0.06100
H 	H 	0.75010 0.63760 0.42680 -0.00000
C 	C 	0.59533 0.53338 0.39774 0.09800
C 	C 	0.66843 0.51321 0.36148 0.05700
H 	H 	0.66710 0.50320 0.35060 -0.00000
C 	C 	0.68666 0.52462 0.36260 -0.09600
H 	H 	0.69780 0.52200 0.35310 0.06300
C 	C 	0.68858 0.54007 0.37779 0.00400
H 	H 	0.70070 0.54870 0.37840 0.03800
C 	C 	0.67226 0.54249 0.39210 -0.04500
C 	C 	0.65472 0.53001 0.39026 0.03100
H 	H 	0.64380 0.53170 0.40020 0.01700
C 	C 	0.67282 0.55877 0.40868 0.13400
C 	C 	0.68970 0.58461 0.42567 0.13300
C 	C 	0.65684 0.57589 0.43511 0.13300
C 	C 	0.63822 0.59601 0.46232 0.03900
H 	H 	0.65060 0.60420 0.46370 0.01200
C 	C 	0.63815 0.57952 0.44779 -0.05100
C 	C 	0.62040 0.56735 0.44589 0.00900
H 	H 	0.61970 0.55620 0.43600 0.03700
C 	C 	0.60358 0.57192 0.45891 -0.10000
H 	H 	0.59130 0.56360 0.45840 0.06700
C 	C 	0.60489 0.58860 0.47254 0.06100
H 	H 	0.59310 0.59160 0.48110 0.00100
C 	C 	0.63862 0.58301 0.51763 0.06300
H 	H 	0.64890 0.58410 0.50700 -0.00100
C 	C 	0.63834 0.56540 0.52940 -0.10300
H 	H 	0.64810 0.55450 0.52690 0.06800
C 	C 	0.62333 0.56360 0.54530 0.00900
H 	H 	0.62290 0.55160 0.55410 0.03700
C 	C 	0.60924 0.57984 0.54783 -0.05200
C 	C 	0.61085 0.59731 0.53502 0.04200
H 	H 	0.60130 0.60850 0.53700 0.01100
C 	C 	0.59302 0.57908 0.56441 0.13500
C 	C 	0.57478 0.62611 0.50059 0.10800
N 	N 	0.73525 0.61692 0.40904 -0.22300
N 	N 	0.60699 0.52446 0.38715 -0.26100
N 	N 	0.65242 0.51551 0.37497 -0.22400
N 	N 	0.65582 0.56091 0.42040 -0.15100
N 	N 	0.69029 0.57025 0.41034 -0.15000
N 	N 	0.67387 0.58763 0.43887 -0.15100
N 	N 	0.62185 0.60075 0.47432 -0.22900
N 	N 	0.59238 0.62676 0.49881 -0.26400
N 	N 	0.62524 0.59897 0.52009 -0.22900
N 	N 	0.59428 0.56397 0.57831 -0.15200
S 	S 	0.57812 0.54463 0.41304 -0.05900
S 	S 	0.54928 0.62346 0.50216 -0.06200
C 	C 	0.21989 0.10258 0.40972 0.03300
H 	H 	0.21730 0.09440 0.39760 0.01400
C 	C 	0.20750 0.09914 0.42742 -0.04600
C 	C 	0.21138 0.11072 0.44523 0.00600
H 	H 	0.20300 0.10920 0.45740 0.03800
C 	C 	0.22810 0.12482 0.44486 -0.10000
H 	H 	0.23180 0.13240 0.45710 0.06600
C 	C 	0.23907 0.12758 0.42686 0.06100
H 	H 	0.25010 0.13760 0.42680 -0.00000
C 	C 	0.09533 0.03338 0.39774 0.09800
C 	C 	0.16843 0.01321 0.36148 0.05700
H 	H 	0.16710 0.00320 0.35060 -0.00000
C 	C 	0.18666 0.02462 0.36260 -0.09600
H 	H 	0.19780 0.02200 0.35310 0.06300
C 	C 	0.18858 0.04007 0.37779 0.00400
H 	H 	0.20070 0.04870 0.37840 0.03800
C 	C 	0.17226 0.04249 0.39210 -0.04500
C 	C 	0.15472 0.03001 0.39026 0.03100
H 	H 	0.14380 0.03170 0.40020 0.01700
C 	C 	0.17282 0.05877 0.40868 0.13400
C 	C 	0.18970 0.08461 0.42567 0.13300
C 	C 	0.15684 0.07589 0.43511 0.13300
C 	C 	0.13822 0.09601 0.46232 0.03900
H 	H 	0.15060 0.10420 0.46370 0.01200
C 	C 	0.13815 0.07952 0.44779 -0.05100
C 	C 	0.12040 0.06735 0.44589 0.00900
H 	H 	0.11970 0.05620 0.43600 0.03700
C 	C 	0.10358 0.07192 0.45891 -0.10000
H 	H 	0.09130 0.06360 0.45840 0.06700
C 	C 	0.10489 0.08860 0.47254 0.06100
H 	H 	0.09310 0.09160 0.48110 0.00100
C 	C 	0.13862 0.08301 0.51763 0.06300
H 	H 	0.14890 0.08410 0.50700 -0.00100
C 	C 	0.13834 0.06540 0.52940 -0.10300
H 	H 	0.14810 0.05450 0.52690 0.06800
C 	C 	0.12333 0.06360 0.54530 0.00900
H 	H 	0.12290 0.05160 0.55410 0.03700
C 	C 	0.10924 0.07984 0.54783 -0.05200
C 	C 	0.11085 0.09731 0.53502 0.04200
H 	H 	0.10130 0.10850 0.53700 0.01100
C 	C 	0.09302 0.07908 0.56441 0.13500
C 	C 	0.07478 0.12611 0.50059 0.10800
N 	N 	0.23525 0.11692 0.40904 -0.22300
N 	N 	0.10699 0.02446 0.38715 -0.26100
N 	N 	0.15242 0.01551 0.37497 -0.22400
N 	N 	0.15582 0.06091 0.42040 -0.15100
N 	N 	0.19029 0.07025 0.41034 -0.15000
N 	N 	0.17387 0.08763 0.43887 -0.15100
N 	N 	0.12185 0.10075 0.47432 -0.22900
N 	N 	0.09238 0.12676 0.49881 -0.26400
N 	N 	0.12524 0.09897 0.52009 -0.22900
N 	N 	0.09428 0.06397 0.57831 -0.15200
S 	S 	0.07812 0.04463 0.41304 -0.05900
S 	S 	0.04928 0.12346 0.50216 -0.06200
C 	C 	0.21989 0.60258 0.90972 0.03300
H 	H 	0.21730 0.59440 0.89760 0.01400
C 	C 	0.20750 0.59914 0.92742 -0.04600
C 	C 	0.21138 0.61072 0.94523 0.00600
H 	H 	0.20300 0.60920 0.95740 0.03800
C 	C 	0.22810 0.62482 0.94486 -0.10000
H 	H 	0.23180 0.63240 0.95710 0.06600
C 	C 	0.23907 0.62758 0.92686 0.06100
H 	H 	0.25010 0.63760 0.92680 -0.00000
C 	C 	0.09533 0.53338 0.89774 0.09800
C 	C 	0.16843 0.51321 0.86148 0.05700
H 	H 	0.16710 0.50320 0.85060 -0.00000
C 	C 	0.18666 0.52462 0.86260 -0.09600
H 	H 	0.19780 0.52200 0.85310 0.06300
C 	C 	0.18858 0.54007 0.87779 0.00400
H 	H 	0.20070 0.54870 0.87840 0.03800
C 	C 	0.17226 0.54249 0.89210 -0.04500
C 	C 	0.15472 0.53001 0.89026 0.03100
H 	H 	0.14380 0.53170 0.90020 0.01700
C 	C 	0.17282 0.55877 0.90868 0.13400
C 	C 	0.18970 0.58461 0.92567 0.13300
C 	C 	0.15684 0.57589 0.93511 0.13300
C 	C 	0.13822 0.59601 0.96232 0.03900
H 	H 	0.15060 0.60420 0.96370 0.01200
C 	C 	0.13815 0.57952 0.94779 -0.05100
C 	C 	0.12040 0.56735 0.94589 0.00900
H 	H 	0.11970 0.55620 0.93600 0.03700
C 	C 	0.10358 0.57192 0.95891 -0.10000
H 	H 	0.09130 0.56360 0.95840 0.06700
C 	C 	0.10489 0.58860 0.97254 0.06100
H 	H 	0.09310 0.59160 0.98110 0.00100
C 	C 	0.13862 0.58301 0.01763 0.06300
H 	H 	0.14890 0.58410 0.00700 -0.00100
C 	C 	0.13834 0.56540 0.02940 -0.10300
H 	H 	0.14810 0.55450 0.02690 0.06800
C 	C 	0.12333 0.56360 0.04530 0.00900
H 	H 	0.12290 0.55160 0.05410 0.03700
C 	C 	0.10924 0.57984 0.04783 -0.05200
C 	C 	0.11085 0.59731 0.03502 0.04200
H 	H 	0.10130 0.60850 0.03700 0.01100
C 	C 	0.09302 0.57908 0.06441 0.13500
C 	C 	0.07478 0.62611 0.00059 0.10800
N 	N 	0.23525 0.61692 0.90904 -0.22300
N 	N 	0.10699 0.52446 0.88715 -0.26100
N 	N 	0.15242 0.51551 0.87497 -0.22400
N 	N 	0.15582 0.56091 0.92040 -0.15100
N 	N 	0.19029 0.57025 0.91034 -0.15000
N 	N 	0.17387 0.58763 0.93887 -0.15100
N 	N 	0.12185 0.60075 0.97432 -0.22900
N 	N 	0.09238 0.62676 0.99881 -0.26400
N 	N 	0.12524 0.59897 0.02009 -0.22900
N 	N 	0.09428 0.56397 0.07831 -0.15200
S 	S 	0.07812 0.54463 0.91304 -0.05900
S 	S 	0.04928 0.62346 0.00216 -0.06200
Co	Co	0.37182 0.50000 0.12182 1.12000
Co	Co	0.37182 0.00000 0.62182 1.11900
Co	Co	0.87182 0.50000 0.62182 1.12000
Co	Co	0.87182 0.00000 0.12182 1.11900
Co	Co	0.87818 0.25000 0.62182 1.12000
Co	Co	0.87818 0.75000 0.12182 1.12000
Co	Co	0.37818 0.25000 0.12182 1.12000
Co	Co	0.37818 0.75000 0.62182 1.12000
Co	Co	0.37818 0.00000 0.12818 1.11900
Co	Co	0.37818 0.50000 0.62818 1.12000
Co	Co	0.87818 0.00000 0.62818 1.11900
Co	Co	0.87818 0.50000 0.12818 1.12000
Co	Co	0.87182 0.75000 0.62818 1.12000
Co	Co	0.87182 0.25000 0.12818 1.12000
Co	Co	0.37182 0.75000 0.12818 1.12000
Co	Co	0.37182 0.25000 0.62818 1.12000
Co	Co	0.12182 0.37182 0.50000 1.12000
Co	Co	0.12182 0.87182 -0.00000 1.11900
Co	Co	0.62182 0.37182 -0.00000 1.11900
Co	Co	0.62182 0.87182 0.50000 1.12000
Co	Co	0.62182 0.87818 0.25000 1.12000
Co	Co	0.62182 0.37818 0.75000 1.12000
Co	Co	0.12182 0.87818 0.75000 1.12000
Co	Co	0.12182 0.37818 0.25000 1.12000
Co	Co	0.12818 0.37818 -0.00000 1.11900
Co	Co	0.12818 0.87818 0.50000 1.12000
Co	Co	0.62818 0.37818 0.50000 1.12000
Co	Co	0.62818 0.87818 -0.00000 1.11900
Co	Co	0.62818 0.87182 0.75000 1.12000
Co	Co	0.62818 0.37182 0.25000 1.12000
Co	Co	0.12818 0.87182 0.25000 1.12000
Co	Co	0.12818 0.37182 0.75000 1.12000
Co	Co	0.50000 0.12182 0.37182 1.12000
Co	Co	0.50000 0.62182 0.87182 1.12000
Co	Co	0.00000 0.12182 0.87182 1.11900
Co	Co	0.00000 0.62182 0.37182 1.11900
Co	Co	0.25000 0.62182 0.87818 1.12000
Co	Co	0.25000 0.12182 0.37818 1.12000
Co	Co	0.75000 0.62182 0.37818 1.12000
Co	Co	0.75000 0.12182 0.87818 1.12000
Co	Co	-0.00000 0.12818 0.37818 1.11900
Co	Co	0.00000 0.62818 0.87818 1.11900
Co	Co	0.50000 0.12818 0.87818 1.12000
Co	Co	0.50000 0.62818 0.37818 1.12000
Co	Co	0.75000 0.62818 0.87182 1.12000
Co	Co	0.75000 0.12818 0.37182 1.12000
Co	Co	0.25000 0.62818 0.37182 1.12000
Co	Co	0.25000 0.12818 0.87182 1.12000
Co	Co	0.62818 0.50000 0.87818 1.12000
Co	Co	0.62818 -0.00000 0.37818 1.11900
Co	Co	0.12818 0.50000 0.37818 1.12000
Co	Co	0.12818 0.00000 0.87818 1.11900
Co	Co	0.12182 0.75000 0.37818 1.12000
Co	Co	0.12182 0.25000 0.87818 1.12000
Co	Co	0.62182 0.75000 0.87818 1.12000
Co	Co	0.62182 0.25000 0.37818 1.12000
Co	Co	0.62182 0.00000 0.87182 1.11900
Co	Co	0.62182 0.50000 0.37182 1.12000
Co	Co	0.12182 0.00000 0.37182 1.11900
Co	Co	0.12182 0.50000 0.87182 1.12000
Co	Co	0.12818 0.25000 0.37182 1.12000
Co	Co	0.12818 0.75000 0.87182 1.12000
Co	Co	0.62818 0.25000 0.87182 1.12000
Co	Co	0.62818 0.75000 0.37182 1.12000
Co	Co	0.87818 0.62818 0.50000 1.12000
Co	Co	0.87818 0.12818 -0.00000 1.11900
Co	Co	0.37818 0.62818 -0.00000 1.11900
Co	Co	0.37818 0.12818 0.50000 1.12000
Co	Co	0.37818 0.12182 0.75000 1.12000
Co	Co	0.37818 0.62182 0.25000 1.12000
Co	Co	0.87818 0.12182 0.25000 1.12000
Co	Co	0.87818 0.62182 0.75000 1.12000
Co	Co	0.87182 0.62182 -0.00000 1.11900
Co	Co	0.87182 0.12182 0.50000 1.12000
Co	Co	0.37182 0.62182 0.50000 1.12000
Co	Co	0.37182 0.12182 -0.00000 1.11900
Co	Co	0.37182 0.12818 0.25000 1.12000
Co	Co	0.37182 0.62818 0.75000 1.12000
Co	Co	0.87182 0.12818 0.75000 1.12000
Co	Co	0.87182 0.62818 0.25000 1.12000
Co	Co	0.50000 0.87818 0.62818 1.12000
Co	Co	0.50000 0.37818 0.12818 1.12000
Co	Co	0.00000 0.87818 0.12818 1.11900
Co	Co	-0.00000 0.37818 0.62818 1.11900
Co	Co	0.75000 0.37818 0.12182 1.12000
Co	Co	0.75000 0.87818 0.62182 1.12000
Co	Co	0.25000 0.37818 0.62182 1.12000
Co	Co	0.25000 0.87818 0.12182 1.12000
Co	Co	-0.00000 0.87182 0.62182 1.11900
Co	Co	-0.00000 0.37182 0.12182 1.11900
Co	Co	0.50000 0.87182 0.12182 1.12000
Co	Co	0.50000 0.37182 0.62182 1.12000
Co	Co	0.25000 0.37182 0.12818 1.12000
Co	Co	0.25000 0.87182 0.62818 1.12000
Co	Co	0.75000 0.37182 0.62818 1.12000
Co	Co	0.75000 0.87182 0.12818 1.12000
Co	Co	0.49791 0.62500 0.12500 1.12200
Co	Co	0.49791 0.12500 0.62500 1.12200
Co	Co	0.75209 0.12500 0.62500 1.12200
Co	Co	0.75209 0.62500 0.12500 1.12200
Co	Co	0.25209 0.12500 0.12500 1.12200
Co	Co	0.25209 0.62500 0.62500 1.12200
Co	Co	0.99791 0.62500 0.62500 1.12200
Co	Co	0.99791 0.12500 0.12500 1.12200
Co	Co	0.12500 0.49791 0.62500 1.12200
Co	Co	0.12500 0.99791 0.12500 1.12200
Co	Co	0.62500 0.75209 0.12500 1.12200
Co	Co	0.62500 0.25209 0.62500 1.12200
Co	Co	0.12500 0.25209 0.12500 1.12200
Co	Co	0.12500 0.75209 0.62500 1.12200
Co	Co	0.62500 0.99791 0.62500 1.12200
Co	Co	0.62500 0.49791 0.12500 1.12200
Co	Co	0.62500 0.12500 0.49791 1.12200
Co	Co	0.12500 0.12500 0.99791 1.12200
Co	Co	0.12500 0.62500 0.75209 1.12200
Co	Co	0.62500 0.62500 0.25209 1.12200
Co	Co	0.12500 0.12500 0.25209 1.12200
Co	Co	0.62500 0.12500 0.75209 1.12200
Co	Co	0.62500 0.62500 0.99791 1.12200
Co	Co	0.12500 0.62500 0.49791 1.12200
Co	Co	0.37500 0.74791 0.87500 1.12200
Co	Co	0.87500 0.74791 0.37500 1.12200
Co	Co	0.87500 0.00209 0.37500 1.12200
Co	Co	0.37500 0.00209 0.87500 1.12200
Co	Co	0.87500 0.50209 0.87500 1.12200
Co	Co	0.37500 0.50209 0.37500 1.12200
Co	Co	0.37500 0.24791 0.37500 1.12200
Co	Co	0.87500 0.24791 0.87500 1.12200
Co	Co	0.24791 0.37500 0.37500 1.12200
Co	Co	0.24791 0.87500 0.87500 1.12200
Co	Co	0.50209 0.87500 0.87500 1.12200
Co	Co	0.50209 0.37500 0.37500 1.12200
Co	Co	0.00209 0.37500 0.87500 1.12200
Co	Co	0.00209 0.87500 0.37500 1.12200
Co	Co	0.74791 0.87500 0.37500 1.12200
Co	Co	0.74791 0.37500 0.87500 1.12200
Co	Co	0.87500 0.87500 0.50209 1.12200
Co	Co	0.87500 0.37500 0.00209 1.12200
Co	Co	0.37500 0.37500 0.24791 1.12200
Co	Co	0.37500 0.87500 0.74791 1.12200
Co	Co	0.87500 0.37500 0.74791 1.12200
Co	Co	0.87500 0.87500 0.24791 1.12200
Co	Co	0.37500 0.87500 0.00209 1.12200
Co	Co	0.37500 0.37500 0.50209 1.12200
Co	Co	0.50209 0.37500 0.87500 1.12200
Co	Co	0.50209 0.87500 0.37500 1.12200
Co	Co	0.24791 0.87500 0.37500 1.12200
Co	Co	0.24791 0.37500 0.87500 1.12200
Co	Co	0.74791 0.87500 0.87500 1.12200
Co	Co	0.74791 0.37500 0.37500 1.12200
Co	Co	0.00209 0.37500 0.37500 1.12200
Co	Co	0.00209 0.87500 0.87500 1.12200
Co	Co	0.87500 0.50209 0.37500 1.12200
Co	Co	0.87500 0.00209 0.87500 1.12200
Co	Co	0.37500 0.24791 0.87500 1.12200
Co	Co	0.37500 0.74791 0.37500 1.12200
Co	Co	0.87500 0.74791 0.87500 1.12200
Co	Co	0.87500 0.24791 0.37500 1.12200
Co	Co	0.37500 0.00209 0.37500 1.12200
Co	Co	0.37500 0.50209 0.87500 1.12200
Co	Co	0.37500 0.87500 0.50209 1.12200
Co	Co	0.87500 0.87500 0.00209 1.12200
Co	Co	0.87500 0.37500 0.24791 1.12200
Co	Co	0.37500 0.37500 0.74791 1.12200
Co	Co	0.87500 0.87500 0.74791 1.12200
Co	Co	0.37500 0.87500 0.24791 1.12200
Co	Co	0.37500 0.37500 0.00209 1.12200
Co	Co	0.87500 0.37500 0.50209 1.12200
Co	Co	0.62500 0.25209 0.12500 1.12200
Co	Co	0.12500 0.25209 0.62500 1.12200
Co	Co	0.12500 0.99791 0.62500 1.12200
Co	Co	0.62500 0.99791 0.12500 1.12200
Co	Co	0.12500 0.49791 0.12500 1.12200
Co	Co	0.62500 0.49791 0.62500 1.12200
Co	Co	0.62500 0.75209 0.62500 1.12200
Co	Co	0.12500 0.75209 0.12500 1.12200
Co	Co	0.75209 0.62500 0.62500 1.12200
Co	Co	0.75209 0.12500 0.12500 1.12200
Co	Co	0.49791 0.12500 0.12500 1.12200
Co	Co	0.49791 0.62500 0.62500 1.12200
Co	Co	0.99791 0.62500 0.12500 1.12200
Co	Co	0.99791 0.12500 0.62500 1.12200
Co	Co	0.25209 0.12500 0.62500 1.12200
Co	Co	0.25209 0.62500 0.12500 1.12200
Co	Co	0.12500 0.12500 0.49791 1.12200
Co	Co	0.12500 0.62500 0.99791 1.12200
Co	Co	0.62500 0.62500 0.75209 1.12200
Co	Co	0.62500 0.12500 0.25209 1.12200
Co	Co	0.12500 0.62500 0.25209 1.12200
Co	Co	0.12500 0.12500 0.75209 1.12200
Co	Co	0.62500 0.12500 0.99791 1.12200
Co	Co	0.62500 0.62500 0.49791 1.12200
