data_crystal

_cell_length_a 45.39410
_cell_length_b 45.39410
_cell_length_c 45.39410
_cell_angle_alpha 60.00000
_cell_angle_beta  60.00000
_cell_angle_gamma 60.00000

_symmetry_space_group_name_	'P 1'
_symmetry_space_group_name_H-M	'P 1'

loop_
_symmetry_equiv_pos_as_xyz
  x,y,z

loop_
_atom_site_label
_atom_site_type_symbol
_atom_site_fract_x
_atom_site_fract_y
_atom_site_fract_z
_atom_site_charge
N 	N 	0.30547 0.46651 0.73945 -0.25800
N 	N 	0.27786 0.46462 0.53602 -0.26400
C 	C 	0.33645 0.46069 0.72287 0.09200
C 	C 	0.29455 0.44197 0.55461 0.10000
S 	S 	0.37879 0.45409 0.69791 -0.06300
S 	S 	0.31857 0.41045 0.58091 -0.06100
N 	N 	0.25847 0.46717 0.71019 -0.22400
C 	C 	0.22837 0.47223 0.70679 0.03100
H 	H 	0.20570 0.48150 0.72310 0.01300
C 	C 	0.22889 0.46443 0.68059 -0.04700
C 	C 	0.26161 0.45083 0.65683 0.00500
H 	H 	0.26260 0.44660 0.63780 0.03700
C 	C 	0.29278 0.44336 0.66112 -0.09800
H 	H 	0.31570 0.43250 0.64610 0.06400
C 	C 	0.29020 0.45190 0.68788 0.05600
H 	H 	0.31190 0.44670 0.69070 0.00200
N 	N 	0.03691 0.49967 0.75769 -0.22600
C 	C 	0.03579 0.50161 0.78679 0.05500
H 	H 	0.01350 0.50470 0.80610 -0.00200
C 	C 	0.06574 0.49924 0.78982 -0.09600
H 	H 	0.06370 0.50150 0.81050 0.06400
C 	C 	0.09890 0.49358 0.76236 0.00400
H 	H 	0.12000 0.49120 0.76420 0.03800
C 	C 	0.10009 0.49165 0.73183 -0.04900
C 	C 	0.06851 0.49497 0.73087 0.03700
H 	H 	0.06930 0.49390 0.71010 0.01300
C 	C 	0.13339 0.48825 0.70095 0.13100
N 	N 	0.16435 0.47745 0.70665 -0.14800
C 	C 	0.19423 0.47463 0.67659 0.13100
N 	N 	0.19478 0.48150 0.64474 -0.15300
C 	C 	0.16239 0.49285 0.64195 0.13100
N 	N 	0.13091 0.49607 0.66961 -0.15000
C 	C 	0.16127 0.50287 0.60627 -0.05000
C 	C 	0.12922 0.51588 0.60000 0.00700
H 	H 	0.10660 0.51900 0.61880 0.03800
C 	C 	0.13128 0.52414 0.56550 -0.09900
H 	H 	0.11000 0.53260 0.56040 0.06600
C 	C 	0.16442 0.52016 0.53822 0.05900
H 	H 	0.16530 0.52590 0.51470 0.00200
N 	N 	0.19511 0.50857 0.54401 -0.22600
N 	N 	0.29707 0.50627 0.45579 -0.22900
C 	C 	0.29713 0.53837 0.42907 0.05400
H 	H 	0.27500 0.55800 0.43000 0.00100
C 	C 	0.32770 0.54398 0.40068 -0.09900
H 	H 	0.32630 0.56690 0.38230 0.06500
C 	C 	0.36015 0.51649 0.39897 0.00800
H 	H 	0.38140 0.52020 0.37940 0.03700
C 	C 	0.19333 0.50031 0.57743 0.03700
H 	H 	0.21500 0.49240 0.58160 0.01100
C 	C 	0.36160 0.48304 0.42624 -0.05400
C 	C 	0.32901 0.47953 0.45353 0.04000
H 	H 	0.32950 0.45670 0.47170 0.01200
C 	C 	0.39522 0.45242 0.42498 0.13500
N 	N 	0.42236 0.45500 0.39472 -0.15300
N 	N 	0.46651 0.30547 0.98857 -0.25800
N 	N 	0.46462 0.27786 0.22150 -0.26400
C 	C 	0.46069 0.33645 0.97999 0.09200
C 	C 	0.44197 0.29455 0.20887 0.10000
S 	S 	0.45409 0.37879 0.96921 -0.06300
S 	S 	0.41045 0.31857 0.19007 -0.06100
N 	N 	0.46717 0.25847 0.06417 -0.22400
C 	C 	0.47223 0.22837 0.09261 0.03100
H 	H 	0.48150 0.20570 0.08970 0.01300
C 	C 	0.46443 0.22889 0.12609 -0.04700
C 	C 	0.45083 0.26161 0.13073 0.00500
H 	H 	0.44660 0.26260 0.15300 0.03700
C 	C 	0.44336 0.29278 0.10274 -0.09800
H 	H 	0.43250 0.31570 0.10570 0.06400
C 	C 	0.45190 0.29020 0.07002 0.05600
H 	H 	0.44670 0.31190 0.05070 0.00200
N 	N 	0.49967 0.03691 0.20573 -0.22600
C 	C 	0.50161 0.03579 0.17581 0.05500
H 	H 	0.50470 0.01350 0.17570 -0.00200
C 	C 	0.49924 0.06574 0.14520 -0.09600
H 	H 	0.50150 0.06370 0.12430 0.06400
C 	C 	0.49358 0.09890 0.14516 0.00400
H 	H 	0.49120 0.12000 0.12460 0.03800
C 	C 	0.49165 0.10009 0.17643 -0.04900
C 	C 	0.49497 0.06851 0.20565 0.03700
H 	H 	0.49390 0.06930 0.22670 0.01300
C 	C 	0.48825 0.13339 0.17741 0.13100
N 	N 	0.47745 0.16435 0.15155 -0.14800
C 	C 	0.47463 0.19423 0.15455 0.13100
N 	N 	0.48150 0.19478 0.17898 -0.15300
C 	C 	0.49285 0.16239 0.20281 0.13100
N 	N 	0.49607 0.13091 0.20341 -0.15000
C 	C 	0.50287 0.16127 0.22959 -0.05000
C 	C 	0.51588 0.12922 0.25490 0.00700
H 	H 	0.51900 0.10660 0.25560 0.03800
C 	C 	0.52414 0.13128 0.27908 -0.09900
H 	H 	0.53260 0.11000 0.29700 0.06600
C 	C 	0.52016 0.16442 0.27720 0.05900
H 	H 	0.52590 0.16530 0.29410 0.00200
N 	N 	0.50857 0.19511 0.25231 -0.22600
N 	N 	0.50627 0.29707 0.24087 -0.22900
C 	C 	0.53837 0.29713 0.23543 0.05400
H 	H 	0.55800 0.27500 0.23700 0.00100
C 	C 	0.54398 0.32770 0.22764 -0.09900
H 	H 	0.56690 0.32630 0.22450 0.06500
C 	C 	0.51649 0.36015 0.22439 0.00800
H 	H 	0.52020 0.38140 0.21900 0.03700
C 	C 	0.50031 0.19333 0.22893 0.03700
H 	H 	0.49240 0.21500 0.21100 0.01100
C 	C 	0.48304 0.36160 0.22912 -0.05400
C 	C 	0.47953 0.32901 0.23793 0.04000
H 	H 	0.45670 0.32950 0.24210 0.01200
C 	C 	0.45242 0.39522 0.22738 0.13500
N 	N 	0.45500 0.42236 0.22792 -0.15300
N 	N 	0.73945 0.98857 0.30547 -0.25800
N 	N 	0.53602 0.22150 0.27786 -0.26400
C 	C 	0.72287 0.97999 0.33645 0.09200
C 	C 	0.55461 0.20887 0.29455 0.10000
S 	S 	0.69791 0.96921 0.37879 -0.06300
S 	S 	0.58091 0.19007 0.31857 -0.06100
N 	N 	0.71019 0.06417 0.25847 -0.22400
C 	C 	0.70679 0.09261 0.22837 0.03100
H 	H 	0.72310 0.08970 0.20570 0.01300
C 	C 	0.68059 0.12609 0.22889 -0.04700
C 	C 	0.65683 0.13073 0.26161 0.00500
H 	H 	0.63780 0.15300 0.26260 0.03700
C 	C 	0.66112 0.10274 0.29278 -0.09800
H 	H 	0.64610 0.10570 0.31570 0.06400
C 	C 	0.68788 0.07002 0.29020 0.05600
H 	H 	0.69070 0.05070 0.31190 0.00200
N 	N 	0.75769 0.20573 0.03691 -0.22600
C 	C 	0.78679 0.17581 0.03579 0.05500
H 	H 	0.80610 0.17570 0.01350 -0.00200
C 	C 	0.78982 0.14520 0.06574 -0.09600
H 	H 	0.81050 0.12430 0.06370 0.06400
C 	C 	0.76236 0.14516 0.09890 0.00400
H 	H 	0.76420 0.12460 0.12000 0.03800
C 	C 	0.73183 0.17643 0.10009 -0.04900
C 	C 	0.73087 0.20565 0.06851 0.03700
H 	H 	0.71010 0.22670 0.06930 0.01300
C 	C 	0.70095 0.17741 0.13339 0.13100
N 	N 	0.70665 0.15155 0.16435 -0.14800
C 	C 	0.67659 0.15455 0.19423 0.13100
N 	N 	0.64474 0.17898 0.19478 -0.15300
C 	C 	0.64195 0.20281 0.16239 0.13100
N 	N 	0.66961 0.20341 0.13091 -0.15000
C 	C 	0.60627 0.22959 0.16127 -0.05000
C 	C 	0.60000 0.25490 0.12922 0.00700
H 	H 	0.61880 0.25560 0.10660 0.03800
C 	C 	0.56550 0.27908 0.13128 -0.09900
H 	H 	0.56040 0.29700 0.11000 0.06600
C 	C 	0.53822 0.27720 0.16442 0.05900
H 	H 	0.51470 0.29410 0.16530 0.00200
N 	N 	0.54401 0.25231 0.19511 -0.22600
N 	N 	0.45579 0.24087 0.29707 -0.22900
C 	C 	0.42907 0.23543 0.29713 0.05400
H 	H 	0.43000 0.23700 0.27500 0.00100
C 	C 	0.40068 0.22764 0.32770 -0.09900
H 	H 	0.38230 0.22450 0.32630 0.06500
C 	C 	0.39897 0.22439 0.36015 0.00800
H 	H 	0.37940 0.21900 0.38140 0.03700
C 	C 	0.57743 0.22893 0.19333 0.03700
H 	H 	0.58160 0.21100 0.21500 0.01100
C 	C 	0.42624 0.22912 0.36160 -0.05400
C 	C 	0.45353 0.23793 0.32901 0.04000
H 	H 	0.47170 0.24210 0.32950 0.01200
C 	C 	0.42498 0.22738 0.39522 0.13500
N 	N 	0.39472 0.22792 0.42236 -0.15300
N 	N 	0.98857 0.73945 0.46651 -0.25700
N 	N 	0.22150 0.53602 0.46462 -0.26300
C 	C 	0.97999 0.72287 0.46069 0.09300
C 	C 	0.20887 0.55461 0.44197 0.10100
S 	S 	0.96921 0.69791 0.45409 -0.06200
S 	S 	0.19007 0.58091 0.41045 -0.06000
N 	N 	0.06417 0.71019 0.46717 -0.22300
C 	C 	0.09261 0.70679 0.47223 0.03200
H 	H 	0.08970 0.72310 0.48150 0.01400
C 	C 	0.12609 0.68059 0.46443 -0.04600
C 	C 	0.13073 0.65683 0.45083 0.00600
H 	H 	0.15300 0.63780 0.44660 0.03800
C 	C 	0.10274 0.66112 0.44336 -0.09700
H 	H 	0.10570 0.64610 0.43250 0.06500
C 	C 	0.07002 0.68788 0.45190 0.05700
H 	H 	0.05070 0.69070 0.44670 0.00300
N 	N 	0.20573 0.75769 0.49967 -0.22500
C 	C 	0.17581 0.78679 0.50161 0.05600
H 	H 	0.17570 0.80610 0.50470 -0.00100
C 	C 	0.14520 0.78982 0.49924 -0.09500
H 	H 	0.12430 0.81050 0.50150 0.06500
C 	C 	0.14516 0.76236 0.49358 0.00500
H 	H 	0.12460 0.76420 0.49120 0.03900
C 	C 	0.17643 0.73183 0.49165 -0.04800
C 	C 	0.20565 0.73087 0.49497 0.03800
H 	H 	0.22670 0.71010 0.49390 0.01400
C 	C 	0.17741 0.70095 0.48825 0.13200
N 	N 	0.15155 0.70665 0.47745 -0.14700
C 	C 	0.15455 0.67659 0.47463 0.13200
N 	N 	0.17898 0.64474 0.48150 -0.15200
C 	C 	0.20281 0.64195 0.49285 0.13200
N 	N 	0.20341 0.66961 0.49607 -0.14900
C 	C 	0.22959 0.60627 0.50287 -0.04900
C 	C 	0.25490 0.60000 0.51588 0.00800
H 	H 	0.25560 0.61880 0.51900 0.03900
C 	C 	0.27908 0.56550 0.52414 -0.09800
H 	H 	0.29700 0.56040 0.53260 0.06700
C 	C 	0.27720 0.53822 0.52016 0.06000
H 	H 	0.29410 0.51470 0.52590 0.00300
N 	N 	0.25231 0.54401 0.50857 -0.22500
N 	N 	0.24087 0.45579 0.50627 -0.22800
C 	C 	0.23543 0.42907 0.53837 0.05500
H 	H 	0.23700 0.43000 0.55800 0.00200
C 	C 	0.22764 0.40068 0.54398 -0.09800
H 	H 	0.22450 0.38230 0.56690 0.06600
C 	C 	0.22439 0.39897 0.51649 0.00900
H 	H 	0.21900 0.37940 0.52020 0.03800
C 	C 	0.22893 0.57743 0.50031 0.03800
H 	H 	0.21100 0.58160 0.49240 0.01200
C 	C 	0.22912 0.42624 0.48304 -0.05300
C 	C 	0.23793 0.45353 0.47953 0.04100
H 	H 	0.24210 0.47170 0.45670 0.01300
C 	C 	0.22738 0.42498 0.45242 0.13600
N 	N 	0.22792 0.39472 0.45500 -0.15200
N 	N 	0.73945 0.30547 0.46651 -0.25700
N 	N 	0.53602 0.27786 0.46462 -0.26300
C 	C 	0.72287 0.33645 0.46069 0.09300
C 	C 	0.55461 0.29455 0.44197 0.10100
S 	S 	0.69791 0.37879 0.45409 -0.06200
S 	S 	0.58091 0.31857 0.41045 -0.06000
N 	N 	0.71019 0.25847 0.46717 -0.22300
C 	C 	0.70679 0.22837 0.47223 0.03200
H 	H 	0.72310 0.20570 0.48150 0.01400
C 	C 	0.68059 0.22889 0.46443 -0.04600
C 	C 	0.65683 0.26161 0.45083 0.00600
H 	H 	0.63780 0.26260 0.44660 0.03800
C 	C 	0.66112 0.29278 0.44336 -0.09700
H 	H 	0.64610 0.31570 0.43250 0.06500
C 	C 	0.68788 0.29020 0.45190 0.05700
H 	H 	0.69070 0.31190 0.44670 0.00300
N 	N 	0.75769 0.03691 0.49967 -0.22500
C 	C 	0.78679 0.03579 0.50161 0.05600
H 	H 	0.80610 0.01350 0.50470 -0.00100
C 	C 	0.78982 0.06574 0.49924 -0.09500
H 	H 	0.81050 0.06370 0.50150 0.06500
C 	C 	0.76236 0.09890 0.49358 0.00500
H 	H 	0.76420 0.12000 0.49120 0.03900
C 	C 	0.73183 0.10009 0.49165 -0.04800
C 	C 	0.73087 0.06851 0.49497 0.03800
H 	H 	0.71010 0.06930 0.49390 0.01400
C 	C 	0.70095 0.13339 0.48825 0.13200
N 	N 	0.70665 0.16435 0.47745 -0.14700
C 	C 	0.67659 0.19423 0.47463 0.13200
N 	N 	0.64474 0.19478 0.48150 -0.15200
C 	C 	0.64195 0.16239 0.49285 0.13200
N 	N 	0.66961 0.13091 0.49607 -0.14900
C 	C 	0.60627 0.16127 0.50287 -0.04900
C 	C 	0.60000 0.12922 0.51588 0.00800
H 	H 	0.61880 0.10660 0.51900 0.03900
C 	C 	0.56550 0.13128 0.52414 -0.09800
H 	H 	0.56040 0.11000 0.53260 0.06700
C 	C 	0.53822 0.16442 0.52016 0.06000
H 	H 	0.51470 0.16530 0.52590 0.00300
N 	N 	0.54401 0.19511 0.50857 -0.22500
N 	N 	0.45579 0.29707 0.50627 -0.22800
C 	C 	0.42907 0.29713 0.53837 0.05500
H 	H 	0.43000 0.27500 0.55800 0.00200
C 	C 	0.40068 0.32770 0.54398 -0.09800
H 	H 	0.38230 0.32630 0.56690 0.06600
C 	C 	0.39897 0.36015 0.51649 0.00900
H 	H 	0.37940 0.38140 0.52020 0.03800
C 	C 	0.57743 0.19333 0.50031 0.03800
H 	H 	0.58160 0.21500 0.49240 0.01200
C 	C 	0.42624 0.36160 0.48304 -0.05300
C 	C 	0.45353 0.32901 0.47953 0.04100
H 	H 	0.47170 0.32950 0.45670 0.01300
C 	C 	0.42498 0.39522 0.45242 0.13600
N 	N 	0.39472 0.42236 0.45500 -0.15200
N 	N 	0.98857 0.46651 0.30547 -0.25700
N 	N 	0.22150 0.46462 0.27786 -0.26300
C 	C 	0.97999 0.46069 0.33645 0.09300
C 	C 	0.20887 0.44197 0.29455 0.10100
S 	S 	0.96921 0.45409 0.37879 -0.06200
S 	S 	0.19007 0.41045 0.31857 -0.06000
N 	N 	0.06417 0.46717 0.25847 -0.22300
C 	C 	0.09261 0.47223 0.22837 0.03200
H 	H 	0.08970 0.48150 0.20570 0.01400
C 	C 	0.12609 0.46443 0.22889 -0.04600
C 	C 	0.13073 0.45083 0.26161 0.00600
H 	H 	0.15300 0.44660 0.26260 0.03800
C 	C 	0.10274 0.44336 0.29278 -0.09700
H 	H 	0.10570 0.43250 0.31570 0.06500
C 	C 	0.07002 0.45190 0.29020 0.05700
H 	H 	0.05070 0.44670 0.31190 0.00300
N 	N 	0.20573 0.49967 0.03691 -0.22500
C 	C 	0.17581 0.50161 0.03579 0.05600
H 	H 	0.17570 0.50470 0.01350 -0.00100
C 	C 	0.14520 0.49924 0.06574 -0.09500
H 	H 	0.12430 0.50150 0.06370 0.06500
C 	C 	0.14516 0.49358 0.09890 0.00500
H 	H 	0.12460 0.49120 0.12000 0.03900
C 	C 	0.17643 0.49165 0.10009 -0.04800
C 	C 	0.20565 0.49497 0.06851 0.03800
H 	H 	0.22670 0.49390 0.06930 0.01400
C 	C 	0.17741 0.48825 0.13339 0.13200
N 	N 	0.15155 0.47745 0.16435 -0.14700
C 	C 	0.15455 0.47463 0.19423 0.13200
N 	N 	0.17898 0.48150 0.19478 -0.15200
C 	C 	0.20281 0.49285 0.16239 0.13200
N 	N 	0.20341 0.49607 0.13091 -0.14900
C 	C 	0.22959 0.50287 0.16127 -0.04900
C 	C 	0.25490 0.51588 0.12922 0.00800
H 	H 	0.25560 0.51900 0.10660 0.03900
C 	C 	0.27908 0.52414 0.13128 -0.09800
H 	H 	0.29700 0.53260 0.11000 0.06700
C 	C 	0.27720 0.52016 0.16442 0.06000
H 	H 	0.29410 0.52590 0.16530 0.00300
N 	N 	0.25231 0.50857 0.19511 -0.22500
N 	N 	0.24087 0.50627 0.29707 -0.22800
C 	C 	0.23543 0.53837 0.29713 0.05500
H 	H 	0.23700 0.55800 0.27500 0.00200
C 	C 	0.22764 0.54398 0.32770 -0.09800
H 	H 	0.22450 0.56690 0.32630 0.06600
C 	C 	0.22439 0.51649 0.36015 0.00900
H 	H 	0.21900 0.52020 0.38140 0.03800
C 	C 	0.22893 0.50031 0.19333 0.03800
H 	H 	0.21100 0.49240 0.21500 0.01200
C 	C 	0.22912 0.48304 0.36160 -0.05300
C 	C 	0.23793 0.47953 0.32901 0.04100
H 	H 	0.24210 0.45670 0.32950 0.01300
C 	C 	0.22738 0.45242 0.39522 0.13600
N 	N 	0.22792 0.45500 0.42236 -0.15200
N 	N 	0.30547 0.73945 0.98857 -0.25700
N 	N 	0.27786 0.53602 0.22150 -0.26300
C 	C 	0.33645 0.72287 0.97999 0.09300
C 	C 	0.29455 0.55461 0.20887 0.10100
S 	S 	0.37879 0.69791 0.96921 -0.06200
S 	S 	0.31857 0.58091 0.19007 -0.06000
N 	N 	0.25847 0.71019 0.06417 -0.22300
C 	C 	0.22837 0.70679 0.09261 0.03200
H 	H 	0.20570 0.72310 0.08970 0.01400
C 	C 	0.22889 0.68059 0.12609 -0.04600
C 	C 	0.26161 0.65683 0.13073 0.00600
H 	H 	0.26260 0.63780 0.15300 0.03800
C 	C 	0.29278 0.66112 0.10274 -0.09700
H 	H 	0.31570 0.64610 0.10570 0.06500
C 	C 	0.29020 0.68788 0.07002 0.05700
H 	H 	0.31190 0.69070 0.05070 0.00300
N 	N 	0.03691 0.75769 0.20573 -0.22500
C 	C 	0.03579 0.78679 0.17581 0.05600
H 	H 	0.01350 0.80610 0.17570 -0.00100
C 	C 	0.06574 0.78982 0.14520 -0.09500
H 	H 	0.06370 0.81050 0.12430 0.06500
C 	C 	0.09890 0.76236 0.14516 0.00500
H 	H 	0.12000 0.76420 0.12460 0.03900
C 	C 	0.10009 0.73183 0.17643 -0.04800
C 	C 	0.06851 0.73087 0.20565 0.03800
H 	H 	0.06930 0.71010 0.22670 0.01400
C 	C 	0.13339 0.70095 0.17741 0.13200
N 	N 	0.16435 0.70665 0.15155 -0.14700
C 	C 	0.19423 0.67659 0.15455 0.13200
N 	N 	0.19478 0.64474 0.17898 -0.15200
C 	C 	0.16239 0.64195 0.20281 0.13200
N 	N 	0.13091 0.66961 0.20341 -0.14900
C 	C 	0.16127 0.60627 0.22959 -0.04900
C 	C 	0.12922 0.60000 0.25490 0.00800
H 	H 	0.10660 0.61880 0.25560 0.03900
C 	C 	0.13128 0.56550 0.27908 -0.09800
H 	H 	0.11000 0.56040 0.29700 0.06700
C 	C 	0.16442 0.53822 0.27720 0.06000
H 	H 	0.16530 0.51470 0.29410 0.00300
N 	N 	0.19511 0.54401 0.25231 -0.22500
N 	N 	0.29707 0.45579 0.24087 -0.22800
C 	C 	0.29713 0.42907 0.23543 0.05500
H 	H 	0.27500 0.43000 0.23700 0.00200
C 	C 	0.32770 0.40068 0.22764 -0.09800
H 	H 	0.32630 0.38230 0.22450 0.06600
C 	C 	0.36015 0.39897 0.22439 0.00900
H 	H 	0.38140 0.37940 0.21900 0.03800
C 	C 	0.19333 0.57743 0.22893 0.03800
H 	H 	0.21500 0.58160 0.21100 0.01200
C 	C 	0.36160 0.42624 0.22912 -0.05300
C 	C 	0.32901 0.45353 0.23793 0.04100
H 	H 	0.32950 0.47170 0.24210 0.01300
C 	C 	0.39522 0.42498 0.22738 0.13600
N 	N 	0.42236 0.39472 0.22792 -0.15200
N 	N 	0.46651 0.98857 0.73945 -0.25700
N 	N 	0.46462 0.22150 0.53602 -0.26300
C 	C 	0.46069 0.97999 0.72287 0.09300
C 	C 	0.44197 0.20887 0.55461 0.10100
S 	S 	0.45409 0.96921 0.69791 -0.06200
S 	S 	0.41045 0.19007 0.58091 -0.06000
N 	N 	0.46717 0.06417 0.71019 -0.22300
C 	C 	0.47223 0.09261 0.70679 0.03200
H 	H 	0.48150 0.08970 0.72310 0.01400
C 	C 	0.46443 0.12609 0.68059 -0.04600
C 	C 	0.45083 0.13073 0.65683 0.00600
H 	H 	0.44660 0.15300 0.63780 0.03800
C 	C 	0.44336 0.10274 0.66112 -0.09700
H 	H 	0.43250 0.10570 0.64610 0.06500
C 	C 	0.45190 0.07002 0.68788 0.05700
H 	H 	0.44670 0.05070 0.69070 0.00300
N 	N 	0.49967 0.20573 0.75769 -0.22500
C 	C 	0.50161 0.17581 0.78679 0.05600
H 	H 	0.50470 0.17570 0.80610 -0.00100
C 	C 	0.49924 0.14520 0.78982 -0.09500
H 	H 	0.50150 0.12430 0.81050 0.06500
C 	C 	0.49358 0.14516 0.76236 0.00500
H 	H 	0.49120 0.12460 0.76420 0.03900
C 	C 	0.49165 0.17643 0.73183 -0.04800
C 	C 	0.49497 0.20565 0.73087 0.03800
H 	H 	0.49390 0.22670 0.71010 0.01400
C 	C 	0.48825 0.17741 0.70095 0.13200
N 	N 	0.47745 0.15155 0.70665 -0.14700
C 	C 	0.47463 0.15455 0.67659 0.13200
N 	N 	0.48150 0.17898 0.64474 -0.15200
C 	C 	0.49285 0.20281 0.64195 0.13200
N 	N 	0.49607 0.20341 0.66961 -0.14900
C 	C 	0.50287 0.22959 0.60627 -0.04900
C 	C 	0.51588 0.25490 0.60000 0.00800
H 	H 	0.51900 0.25560 0.61880 0.03900
C 	C 	0.52414 0.27908 0.56550 -0.09800
H 	H 	0.53260 0.29700 0.56040 0.06700
C 	C 	0.52016 0.27720 0.53822 0.06000
H 	H 	0.52590 0.29410 0.51470 0.00300
N 	N 	0.50857 0.25231 0.54401 -0.22500
N 	N 	0.50627 0.24087 0.45579 -0.22800
C 	C 	0.53837 0.23543 0.42907 0.05500
H 	H 	0.55800 0.23700 0.43000 0.00200
C 	C 	0.54398 0.22764 0.40068 -0.09800
H 	H 	0.56690 0.22450 0.38230 0.06600
C 	C 	0.51649 0.22439 0.39897 0.00900
H 	H 	0.52020 0.21900 0.37940 0.03800
C 	C 	0.50031 0.22893 0.57743 0.03800
H 	H 	0.49240 0.21100 0.58160 0.01200
C 	C 	0.48304 0.22912 0.42624 -0.05300
C 	C 	0.47953 0.23793 0.45353 0.04100
H 	H 	0.45670 0.24210 0.47170 0.01300
C 	C 	0.45242 0.22738 0.42498 0.13600
N 	N 	0.45500 0.22792 0.39472 -0.15200
N 	N 	0.46651 0.73945 0.30547 -0.25700
N 	N 	0.46462 0.53602 0.27786 -0.26300
C 	C 	0.46069 0.72287 0.33645 0.09300
C 	C 	0.44197 0.55461 0.29455 0.10100
S 	S 	0.45409 0.69791 0.37879 -0.06200
S 	S 	0.41045 0.58091 0.31857 -0.06000
N 	N 	0.46717 0.71019 0.25847 -0.22300
C 	C 	0.47223 0.70679 0.22837 0.03200
H 	H 	0.48150 0.72310 0.20570 0.01400
C 	C 	0.46443 0.68059 0.22889 -0.04600
C 	C 	0.45083 0.65683 0.26161 0.00600
H 	H 	0.44660 0.63780 0.26260 0.03800
C 	C 	0.44336 0.66112 0.29278 -0.09700
H 	H 	0.43250 0.64610 0.31570 0.06500
C 	C 	0.45190 0.68788 0.29020 0.05700
H 	H 	0.44670 0.69070 0.31190 0.00300
N 	N 	0.49967 0.75769 0.03691 -0.22500
C 	C 	0.50161 0.78679 0.03579 0.05600
H 	H 	0.50470 0.80610 0.01350 -0.00100
C 	C 	0.49924 0.78982 0.06574 -0.09500
H 	H 	0.50150 0.81050 0.06370 0.06500
C 	C 	0.49358 0.76236 0.09890 0.00500
H 	H 	0.49120 0.76420 0.12000 0.03900
C 	C 	0.49165 0.73183 0.10009 -0.04800
C 	C 	0.49497 0.73087 0.06851 0.03800
H 	H 	0.49390 0.71010 0.06930 0.01400
C 	C 	0.48825 0.70095 0.13339 0.13200
N 	N 	0.47745 0.70665 0.16435 -0.14700
C 	C 	0.47463 0.67659 0.19423 0.13200
N 	N 	0.48150 0.64474 0.19478 -0.15200
C 	C 	0.49285 0.64195 0.16239 0.13200
N 	N 	0.49607 0.66961 0.13091 -0.14900
C 	C 	0.50287 0.60627 0.16127 -0.04900
C 	C 	0.51588 0.60000 0.12922 0.00800
H 	H 	0.51900 0.61880 0.10660 0.03900
C 	C 	0.52414 0.56550 0.13128 -0.09800
H 	H 	0.53260 0.56040 0.11000 0.06700
C 	C 	0.52016 0.53822 0.16442 0.06000
H 	H 	0.52590 0.51470 0.16530 0.00300
N 	N 	0.50857 0.54401 0.19511 -0.22500
N 	N 	0.50627 0.45579 0.29707 -0.22800
C 	C 	0.53837 0.42907 0.29713 0.05500
H 	H 	0.55800 0.43000 0.27500 0.00200
C 	C 	0.54398 0.40068 0.32770 -0.09800
H 	H 	0.56690 0.38230 0.32630 0.06600
C 	C 	0.51649 0.39897 0.36015 0.00900
H 	H 	0.52020 0.37940 0.38140 0.03800
C 	C 	0.50031 0.57743 0.19333 0.03800
H 	H 	0.49240 0.58160 0.21500 0.01200
C 	C 	0.48304 0.42624 0.36160 -0.05300
C 	C 	0.47953 0.45353 0.32901 0.04100
H 	H 	0.45670 0.47170 0.32950 0.01300
C 	C 	0.45242 0.42498 0.39522 0.13600
N 	N 	0.45500 0.39472 0.42236 -0.15200
N 	N 	0.30547 0.98857 0.46651 -0.25700
N 	N 	0.27786 0.22150 0.46462 -0.26300
C 	C 	0.33645 0.97999 0.46069 0.09300
C 	C 	0.29455 0.20887 0.44197 0.10100
S 	S 	0.37879 0.96921 0.45409 -0.06200
S 	S 	0.31857 0.19007 0.41045 -0.06000
N 	N 	0.25847 0.06417 0.46717 -0.22300
C 	C 	0.22837 0.09261 0.47223 0.03200
H 	H 	0.20570 0.08970 0.48150 0.01400
C 	C 	0.22889 0.12609 0.46443 -0.04600
C 	C 	0.26161 0.13073 0.45083 0.00600
H 	H 	0.26260 0.15300 0.44660 0.03800
C 	C 	0.29278 0.10274 0.44336 -0.09700
H 	H 	0.31570 0.10570 0.43250 0.06500
C 	C 	0.29020 0.07002 0.45190 0.05700
H 	H 	0.31190 0.05070 0.44670 0.00300
N 	N 	0.03691 0.20573 0.49967 -0.22500
C 	C 	0.03579 0.17581 0.50161 0.05600
H 	H 	0.01350 0.17570 0.50470 -0.00100
C 	C 	0.06574 0.14520 0.49924 -0.09500
H 	H 	0.06370 0.12430 0.50150 0.06500
C 	C 	0.09890 0.14516 0.49358 0.00500
H 	H 	0.12000 0.12460 0.49120 0.03900
C 	C 	0.10009 0.17643 0.49165 -0.04800
C 	C 	0.06851 0.20565 0.49497 0.03800
H 	H 	0.06930 0.22670 0.49390 0.01400
C 	C 	0.13339 0.17741 0.48825 0.13200
N 	N 	0.16435 0.15155 0.47745 -0.14700
C 	C 	0.19423 0.15455 0.47463 0.13200
N 	N 	0.19478 0.17898 0.48150 -0.15200
C 	C 	0.16239 0.20281 0.49285 0.13200
N 	N 	0.13091 0.20341 0.49607 -0.14900
C 	C 	0.16127 0.22959 0.50287 -0.04900
C 	C 	0.12922 0.25490 0.51588 0.00800
H 	H 	0.10660 0.25560 0.51900 0.03900
C 	C 	0.13128 0.27908 0.52414 -0.09800
H 	H 	0.11000 0.29700 0.53260 0.06700
C 	C 	0.16442 0.27720 0.52016 0.06000
H 	H 	0.16530 0.29410 0.52590 0.00300
N 	N 	0.19511 0.25231 0.50857 -0.22500
N 	N 	0.29707 0.24087 0.50627 -0.22800
C 	C 	0.29713 0.23543 0.53837 0.05500
H 	H 	0.27500 0.23700 0.55800 0.00200
C 	C 	0.32770 0.22764 0.54398 -0.09800
H 	H 	0.32630 0.22450 0.56690 0.06600
C 	C 	0.36015 0.22439 0.51649 0.00900
H 	H 	0.38140 0.21900 0.52020 0.03800
C 	C 	0.19333 0.22893 0.50031 0.03800
H 	H 	0.21500 0.21100 0.49240 0.01200
C 	C 	0.36160 0.22912 0.48304 -0.05300
C 	C 	0.32901 0.23793 0.47953 0.04100
H 	H 	0.32950 0.24210 0.45670 0.01300
C 	C 	0.39522 0.22738 0.45242 0.13600
N 	N 	0.42236 0.22792 0.45500 -0.15200
N 	N 	0.98857 0.30547 0.73945 -0.25700
N 	N 	0.22150 0.27786 0.53602 -0.26300
C 	C 	0.97999 0.33645 0.72287 0.09300
C 	C 	0.20887 0.29455 0.55461 0.10100
S 	S 	0.96921 0.37879 0.69791 -0.06200
S 	S 	0.19007 0.31857 0.58091 -0.06000
N 	N 	0.06417 0.25847 0.71019 -0.22300
C 	C 	0.09261 0.22837 0.70679 0.03200
H 	H 	0.08970 0.20570 0.72310 0.01400
C 	C 	0.12609 0.22889 0.68059 -0.04600
C 	C 	0.13073 0.26161 0.65683 0.00600
H 	H 	0.15300 0.26260 0.63780 0.03800
C 	C 	0.10274 0.29278 0.66112 -0.09700
H 	H 	0.10570 0.31570 0.64610 0.06500
C 	C 	0.07002 0.29020 0.68788 0.05700
H 	H 	0.05070 0.31190 0.69070 0.00300
N 	N 	0.20573 0.03691 0.75769 -0.22500
C 	C 	0.17581 0.03579 0.78679 0.05600
H 	H 	0.17570 0.01350 0.80610 -0.00100
C 	C 	0.14520 0.06574 0.78982 -0.09500
H 	H 	0.12430 0.06370 0.81050 0.06500
C 	C 	0.14516 0.09890 0.76236 0.00500
H 	H 	0.12460 0.12000 0.76420 0.03900
C 	C 	0.17643 0.10009 0.73183 -0.04800
C 	C 	0.20565 0.06851 0.73087 0.03800
H 	H 	0.22670 0.06930 0.71010 0.01400
C 	C 	0.17741 0.13339 0.70095 0.13200
N 	N 	0.15155 0.16435 0.70665 -0.14700
C 	C 	0.15455 0.19423 0.67659 0.13200
N 	N 	0.17898 0.19478 0.64474 -0.15200
C 	C 	0.20281 0.16239 0.64195 0.13200
N 	N 	0.20341 0.13091 0.66961 -0.14900
C 	C 	0.22959 0.16127 0.60627 -0.04900
C 	C 	0.25490 0.12922 0.60000 0.00800
H 	H 	0.25560 0.10660 0.61880 0.03900
C 	C 	0.27908 0.13128 0.56550 -0.09800
H 	H 	0.29700 0.11000 0.56040 0.06700
C 	C 	0.27720 0.16442 0.53822 0.06000
H 	H 	0.29410 0.16530 0.51470 0.00300
N 	N 	0.25231 0.19511 0.54401 -0.22500
N 	N 	0.24087 0.29707 0.45579 -0.22800
C 	C 	0.23543 0.29713 0.42907 0.05500
H 	H 	0.23700 0.27500 0.43000 0.00200
C 	C 	0.22764 0.32770 0.40068 -0.09800
H 	H 	0.22450 0.32630 0.38230 0.06600
C 	C 	0.22439 0.36015 0.39897 0.00900
H 	H 	0.21900 0.38140 0.37940 0.03800
C 	C 	0.22893 0.19333 0.57743 0.03800
H 	H 	0.21100 0.21500 0.58160 0.01200
C 	C 	0.22912 0.36160 0.42624 -0.05300
C 	C 	0.23793 0.32901 0.45353 0.04100
H 	H 	0.24210 0.32950 0.47170 0.01300
C 	C 	0.22738 0.39522 0.42498 0.13600
N 	N 	0.22792 0.42236 0.39472 -0.15200
N 	N 	0.73945 0.46651 0.98857 -0.25700
N 	N 	0.53602 0.46462 0.22150 -0.26300
C 	C 	0.72287 0.46069 0.97999 0.09300
C 	C 	0.55461 0.44197 0.20887 0.10100
S 	S 	0.69791 0.45409 0.96921 -0.06200
S 	S 	0.58091 0.41045 0.19007 -0.06000
N 	N 	0.71019 0.46717 0.06417 -0.22300
C 	C 	0.70679 0.47223 0.09261 0.03200
H 	H 	0.72310 0.48150 0.08970 0.01400
C 	C 	0.68059 0.46443 0.12609 -0.04600
C 	C 	0.65683 0.45083 0.13073 0.00600
H 	H 	0.63780 0.44660 0.15300 0.03800
C 	C 	0.66112 0.44336 0.10274 -0.09700
H 	H 	0.64610 0.43250 0.10570 0.06500
C 	C 	0.68788 0.45190 0.07002 0.05700
H 	H 	0.69070 0.44670 0.05070 0.00300
N 	N 	0.75769 0.49967 0.20573 -0.22500
C 	C 	0.78679 0.50161 0.17581 0.05600
H 	H 	0.80610 0.50470 0.17570 -0.00100
C 	C 	0.78982 0.49924 0.14520 -0.09500
H 	H 	0.81050 0.50150 0.12430 0.06500
C 	C 	0.76236 0.49358 0.14516 0.00500
H 	H 	0.76420 0.49120 0.12460 0.03900
C 	C 	0.73183 0.49165 0.17643 -0.04800
C 	C 	0.73087 0.49497 0.20565 0.03800
H 	H 	0.71010 0.49390 0.22670 0.01400
C 	C 	0.70095 0.48825 0.17741 0.13200
N 	N 	0.70665 0.47745 0.15155 -0.14700
C 	C 	0.67659 0.47463 0.15455 0.13200
N 	N 	0.64474 0.48150 0.17898 -0.15200
C 	C 	0.64195 0.49285 0.20281 0.13200
N 	N 	0.66961 0.49607 0.20341 -0.14900
C 	C 	0.60627 0.50287 0.22959 -0.04900
C 	C 	0.60000 0.51588 0.25490 0.00800
H 	H 	0.61880 0.51900 0.25560 0.03900
C 	C 	0.56550 0.52414 0.27908 -0.09800
H 	H 	0.56040 0.53260 0.29700 0.06700
C 	C 	0.53822 0.52016 0.27720 0.06000
H 	H 	0.51470 0.52590 0.29410 0.00300
N 	N 	0.54401 0.50857 0.25231 -0.22500
N 	N 	0.45579 0.50627 0.24087 -0.22800
C 	C 	0.42907 0.53837 0.23543 0.05500
H 	H 	0.43000 0.55800 0.23700 0.00200
C 	C 	0.40068 0.54398 0.22764 -0.09800
H 	H 	0.38230 0.56690 0.22450 0.06600
C 	C 	0.39897 0.51649 0.22439 0.00900
H 	H 	0.37940 0.52020 0.21900 0.03800
C 	C 	0.57743 0.50031 0.22893 0.03800
H 	H 	0.58160 0.49240 0.21100 0.01200
C 	C 	0.42624 0.48304 0.22912 -0.05300
C 	C 	0.45353 0.47953 0.23793 0.04100
H 	H 	0.47170 0.45670 0.24210 0.01300
C 	C 	0.42498 0.45242 0.22738 0.13600
N 	N 	0.39472 0.45500 0.22792 -0.15200
N 	N 	0.19453 0.03349 0.51143 -0.25700
N 	N 	0.22214 0.03538 0.27850 -0.26300
C 	C 	0.16355 0.03931 0.52001 0.09300
C 	C 	0.20545 0.05803 0.29113 0.10100
S 	S 	0.12121 0.04591 0.53079 -0.06200
S 	S 	0.18143 0.08955 0.30993 -0.06000
N 	N 	0.24153 0.03283 0.43583 -0.22300
C 	C 	0.27163 0.02777 0.40739 0.03200
H 	H 	0.29430 0.01850 0.41030 0.01400
C 	C 	0.27111 0.03557 0.37391 -0.04600
C 	C 	0.23839 0.04917 0.36927 0.00600
H 	H 	0.23740 0.05340 0.34700 0.03800
C 	C 	0.20722 0.05664 0.39726 -0.09700
H 	H 	0.18430 0.06750 0.39430 0.06500
C 	C 	0.20980 0.04810 0.42998 0.05700
H 	H 	0.18810 0.05330 0.44930 0.00300
N 	N 	0.46309 0.00033 0.29427 -0.22500
C 	C 	0.46421 0.99839 0.32419 0.05600
H 	H 	0.48650 0.99530 0.32430 -0.00100
C 	C 	0.43426 0.00076 0.35480 -0.09500
H 	H 	0.43630 0.99850 0.37570 0.06500
C 	C 	0.40110 0.00642 0.35484 0.00500
H 	H 	0.38000 0.00880 0.37540 0.03900
C 	C 	0.39991 0.00835 0.32357 -0.04800
C 	C 	0.43149 0.00503 0.29435 0.03800
H 	H 	0.43070 0.00610 0.27330 0.01400
C 	C 	0.36661 0.01175 0.32259 0.13200
N 	N 	0.33565 0.02255 0.34845 -0.14700
C 	C 	0.30577 0.02537 0.34545 0.13300
N 	N 	0.30522 0.01850 0.32102 -0.15200
C 	C 	0.33761 0.00715 0.29719 0.13200
N 	N 	0.36909 0.00393 0.29659 -0.14900
C 	C 	0.33873 0.99713 0.27041 -0.04900
C 	C 	0.37078 0.98412 0.24510 0.00800
H 	H 	0.39340 0.98100 0.24440 0.03900
C 	C 	0.36872 0.97586 0.22092 -0.09700
H 	H 	0.39000 0.96740 0.20300 0.06700
C 	C 	0.33558 0.97984 0.22280 0.06000
H 	H 	0.33470 0.97410 0.20590 0.00300
N 	N 	0.30489 0.99143 0.24769 -0.22500
N 	N 	0.20293 0.99373 0.25913 -0.22800
C 	C 	0.20287 0.96163 0.26457 0.05500
H 	H 	0.22500 0.94200 0.26300 0.00200
C 	C 	0.17230 0.95602 0.27236 -0.09800
H 	H 	0.17370 0.93310 0.27550 0.06600
C 	C 	0.13985 0.98351 0.27561 0.00900
H 	H 	0.11860 0.97980 0.28100 0.03800
C 	C 	0.30667 0.99969 0.27107 0.03800
H 	H 	0.28500 0.00760 0.28900 0.01200
C 	C 	0.13840 0.01696 0.27088 -0.05300
C 	C 	0.17099 0.02047 0.26207 0.04100
H 	H 	0.17050 0.04330 0.25790 0.01300
C 	C 	0.10478 0.04758 0.27262 0.13600
N 	N 	0.07764 0.04500 0.27208 -0.15200
N 	N 	0.03349 0.19453 0.76055 -0.25700
N 	N 	0.03538 0.22214 0.96398 -0.26300
C 	C 	0.03931 0.16355 0.77713 0.09300
C 	C 	0.05803 0.20545 0.94539 0.10100
S 	S 	0.04591 0.12121 0.80209 -0.06200
S 	S 	0.08955 0.18143 0.91909 -0.06000
N 	N 	0.03283 0.24153 0.78981 -0.22300
C 	C 	0.02777 0.27163 0.79321 0.03200
H 	H 	0.01850 0.29430 0.77690 0.01400
C 	C 	0.03557 0.27111 0.81941 -0.04600
C 	C 	0.04917 0.23839 0.84317 0.00600
H 	H 	0.05340 0.23740 0.86220 0.03800
C 	C 	0.05664 0.20722 0.83888 -0.09700
H 	H 	0.06750 0.18430 0.85390 0.06500
C 	C 	0.04810 0.20980 0.81212 0.05700
H 	H 	0.05330 0.18810 0.80930 0.00300
N 	N 	0.00033 0.46309 0.74231 -0.22500
C 	C 	0.99839 0.46421 0.71321 0.05600
H 	H 	0.99530 0.48650 0.69390 -0.00100
C 	C 	0.00076 0.43426 0.71018 -0.09500
H 	H 	0.99850 0.43630 0.68950 0.06500
C 	C 	0.00642 0.40110 0.73764 0.00500
H 	H 	0.00880 0.38000 0.73580 0.03900
C 	C 	0.00835 0.39991 0.76817 -0.04800
C 	C 	0.00503 0.43149 0.76913 0.03800
H 	H 	0.00610 0.43070 0.78990 0.01400
C 	C 	0.01175 0.36661 0.79905 0.13200
N 	N 	0.02255 0.33565 0.79335 -0.14700
C 	C 	0.02537 0.30577 0.82341 0.13300
N 	N 	0.01850 0.30522 0.85526 -0.15200
C 	C 	0.00715 0.33761 0.85805 0.13200
N 	N 	0.00393 0.36909 0.83039 -0.14900
C 	C 	0.99713 0.33873 0.89373 -0.04900
C 	C 	0.98412 0.37078 0.90000 0.00800
H 	H 	0.98100 0.39340 0.88120 0.03900
C 	C 	0.97586 0.36872 0.93450 -0.09700
H 	H 	0.96740 0.39000 0.93960 0.06700
C 	C 	0.97984 0.33558 0.96178 0.06000
H 	H 	0.97410 0.33470 0.98530 0.00300
N 	N 	0.99143 0.30489 0.95599 -0.22500
N 	N 	0.99373 0.20293 0.04421 -0.22800
C 	C 	0.96163 0.20287 0.07093 0.05500
H 	H 	0.94200 0.22500 0.07000 0.00200
C 	C 	0.95602 0.17230 0.09932 -0.09800
H 	H 	0.93310 0.17370 0.11770 0.06600
C 	C 	0.98351 0.13985 0.10103 0.00900
H 	H 	0.97980 0.11860 0.12060 0.03800
C 	C 	0.99969 0.30667 0.92257 0.03800
H 	H 	0.00760 0.28500 0.91840 0.01200
C 	C 	0.01696 0.13840 0.07376 -0.05300
C 	C 	0.02047 0.17099 0.04647 0.04100
H 	H 	0.04330 0.17050 0.02830 0.01300
C 	C 	0.04758 0.10478 0.07502 0.13600
N 	N 	0.04500 0.07764 0.10528 -0.15200
N 	N 	0.76055 0.51143 0.03349 -0.25700
N 	N 	0.96398 0.27850 0.03538 -0.26300
C 	C 	0.77713 0.52001 0.03931 0.09300
C 	C 	0.94539 0.29113 0.05803 0.10100
S 	S 	0.80209 0.53079 0.04591 -0.06200
S 	S 	0.91909 0.30993 0.08955 -0.06000
N 	N 	0.78981 0.43583 0.03283 -0.22300
C 	C 	0.79321 0.40739 0.02777 0.03200
H 	H 	0.77690 0.41030 0.01850 0.01400
C 	C 	0.81941 0.37391 0.03557 -0.04600
C 	C 	0.84317 0.36927 0.04917 0.00600
H 	H 	0.86220 0.34700 0.05340 0.03800
C 	C 	0.83888 0.39726 0.05664 -0.09700
H 	H 	0.85390 0.39430 0.06750 0.06500
C 	C 	0.81212 0.42998 0.04810 0.05700
H 	H 	0.80930 0.44930 0.05330 0.00300
N 	N 	0.74231 0.29427 0.00033 -0.22500
C 	C 	0.71321 0.32419 0.99839 0.05600
H 	H 	0.69390 0.32430 0.99530 -0.00100
C 	C 	0.71018 0.35480 0.00076 -0.09500
H 	H 	0.68950 0.37570 0.99850 0.06500
C 	C 	0.73764 0.35484 0.00642 0.00500
H 	H 	0.73580 0.37540 0.00880 0.03900
C 	C 	0.76817 0.32357 0.00835 -0.04800
C 	C 	0.76913 0.29435 0.00503 0.03800
H 	H 	0.78990 0.27330 0.00610 0.01400
C 	C 	0.79905 0.32259 0.01175 0.13200
N 	N 	0.79335 0.34845 0.02255 -0.14700
C 	C 	0.82341 0.34545 0.02537 0.13300
N 	N 	0.85526 0.32102 0.01850 -0.15200
C 	C 	0.85805 0.29719 0.00715 0.13200
N 	N 	0.83039 0.29659 0.00393 -0.14900
C 	C 	0.89373 0.27041 0.99713 -0.04900
C 	C 	0.90000 0.24510 0.98412 0.00800
H 	H 	0.88120 0.24440 0.98100 0.03900
C 	C 	0.93450 0.22092 0.97586 -0.09700
H 	H 	0.93960 0.20300 0.96740 0.06700
C 	C 	0.96178 0.22280 0.97984 0.06000
H 	H 	0.98530 0.20590 0.97410 0.00300
N 	N 	0.95599 0.24769 0.99143 -0.22500
N 	N 	0.04421 0.25913 0.99373 -0.22800
C 	C 	0.07093 0.26457 0.96163 0.05500
H 	H 	0.07000 0.26300 0.94200 0.00200
C 	C 	0.09932 0.27236 0.95602 -0.09800
H 	H 	0.11770 0.27550 0.93310 0.06600
C 	C 	0.10103 0.27561 0.98351 0.00900
H 	H 	0.12060 0.28100 0.97980 0.03800
C 	C 	0.92257 0.27107 0.99969 0.03800
H 	H 	0.91840 0.28900 0.00760 0.01200
C 	C 	0.07376 0.27088 0.01696 -0.05300
C 	C 	0.04647 0.26207 0.02047 0.04100
H 	H 	0.02830 0.25790 0.04330 0.01300
C 	C 	0.07502 0.27262 0.04758 0.13600
N 	N 	0.10528 0.27208 0.04500 -0.15200
N 	N 	0.51143 0.76055 0.19453 -0.25700
N 	N 	0.27850 0.96398 0.22214 -0.26300
C 	C 	0.52001 0.77713 0.16355 0.09300
C 	C 	0.29113 0.94539 0.20545 0.10100
S 	S 	0.53079 0.80209 0.12121 -0.06200
S 	S 	0.30993 0.91909 0.18143 -0.06000
N 	N 	0.43583 0.78981 0.24153 -0.22300
C 	C 	0.40739 0.79321 0.27163 0.03200
H 	H 	0.41030 0.77690 0.29430 0.01400
C 	C 	0.37391 0.81941 0.27111 -0.04600
C 	C 	0.36927 0.84317 0.23839 0.00600
H 	H 	0.34700 0.86220 0.23740 0.03800
C 	C 	0.39726 0.83888 0.20722 -0.09700
H 	H 	0.39430 0.85390 0.18430 0.06500
C 	C 	0.42998 0.81212 0.20980 0.05700
H 	H 	0.44930 0.80930 0.18810 0.00300
N 	N 	0.29427 0.74231 0.46309 -0.22500
C 	C 	0.32419 0.71321 0.46421 0.05600
H 	H 	0.32430 0.69390 0.48650 -0.00100
C 	C 	0.35480 0.71018 0.43426 -0.09500
H 	H 	0.37570 0.68950 0.43630 0.06500
C 	C 	0.35484 0.73764 0.40110 0.00500
H 	H 	0.37540 0.73580 0.38000 0.03900
C 	C 	0.32357 0.76817 0.39991 -0.04800
C 	C 	0.29435 0.76913 0.43149 0.03800
H 	H 	0.27330 0.78990 0.43070 0.01400
C 	C 	0.32259 0.79905 0.36661 0.13200
N 	N 	0.34845 0.79335 0.33565 -0.14700
C 	C 	0.34545 0.82341 0.30577 0.13200
N 	N 	0.32102 0.85526 0.30522 -0.15200
C 	C 	0.29719 0.85805 0.33761 0.13200
N 	N 	0.29659 0.83039 0.36909 -0.14900
C 	C 	0.27041 0.89373 0.33873 -0.04900
C 	C 	0.24510 0.90000 0.37078 0.00800
H 	H 	0.24440 0.88120 0.39340 0.03900
C 	C 	0.22092 0.93450 0.36872 -0.09700
H 	H 	0.20300 0.93960 0.39000 0.06700
C 	C 	0.22280 0.96178 0.33558 0.06000
H 	H 	0.20590 0.98530 0.33470 0.00300
N 	N 	0.24769 0.95599 0.30489 -0.22500
N 	N 	0.25913 0.04421 0.20293 -0.22800
C 	C 	0.26457 0.07093 0.20287 0.05500
H 	H 	0.26300 0.07000 0.22500 0.00200
C 	C 	0.27236 0.09932 0.17230 -0.09800
H 	H 	0.27550 0.11770 0.17370 0.06600
C 	C 	0.27561 0.10103 0.13985 0.00900
H 	H 	0.28100 0.12060 0.11860 0.03800
C 	C 	0.27107 0.92257 0.30667 0.03800
H 	H 	0.28900 0.91840 0.28500 0.01200
C 	C 	0.27088 0.07376 0.13840 -0.05300
C 	C 	0.26207 0.04647 0.17099 0.04100
H 	H 	0.25790 0.02830 0.17050 0.01300
C 	C 	0.27262 0.07502 0.10478 0.13600
N 	N 	0.27208 0.10528 0.07764 -0.15200
N 	N 	0.76055 0.19453 0.51143 -0.25700
N 	N 	0.96398 0.22214 0.27850 -0.26300
C 	C 	0.77713 0.16355 0.52001 0.09300
C 	C 	0.94539 0.20545 0.29113 0.10100
S 	S 	0.80209 0.12121 0.53079 -0.06200
S 	S 	0.91909 0.18143 0.30993 -0.06000
N 	N 	0.78981 0.24153 0.43583 -0.22300
C 	C 	0.79321 0.27163 0.40739 0.03200
H 	H 	0.77690 0.29430 0.41030 0.01400
C 	C 	0.81941 0.27111 0.37391 -0.04600
C 	C 	0.84317 0.23839 0.36927 0.00600
H 	H 	0.86220 0.23740 0.34700 0.03800
C 	C 	0.83888 0.20722 0.39726 -0.09700
H 	H 	0.85390 0.18430 0.39430 0.06500
C 	C 	0.81212 0.20980 0.42998 0.05700
H 	H 	0.80930 0.18810 0.44930 0.00300
N 	N 	0.74231 0.46309 0.29427 -0.22500
C 	C 	0.71321 0.46421 0.32419 0.05600
H 	H 	0.69390 0.48650 0.32430 -0.00100
C 	C 	0.71018 0.43426 0.35480 -0.09500
H 	H 	0.68950 0.43630 0.37570 0.06500
C 	C 	0.73764 0.40110 0.35484 0.00500
H 	H 	0.73580 0.38000 0.37540 0.03900
C 	C 	0.76817 0.39991 0.32357 -0.04800
C 	C 	0.76913 0.43149 0.29435 0.03800
H 	H 	0.78990 0.43070 0.27330 0.01400
C 	C 	0.79905 0.36661 0.32259 0.13200
N 	N 	0.79335 0.33565 0.34845 -0.14700
C 	C 	0.82341 0.30577 0.34545 0.13200
N 	N 	0.85526 0.30522 0.32102 -0.15200
C 	C 	0.85805 0.33761 0.29719 0.13200
N 	N 	0.83039 0.36909 0.29659 -0.14900
C 	C 	0.89373 0.33873 0.27041 -0.04900
C 	C 	0.90000 0.37078 0.24510 0.00800
H 	H 	0.88120 0.39340 0.24440 0.03900
C 	C 	0.93450 0.36872 0.22092 -0.09700
H 	H 	0.93960 0.39000 0.20300 0.06700
C 	C 	0.96178 0.33558 0.22280 0.06000
H 	H 	0.98530 0.33470 0.20590 0.00300
N 	N 	0.95599 0.30489 0.24769 -0.22500
N 	N 	0.04421 0.20293 0.25913 -0.22800
C 	C 	0.07093 0.20287 0.26457 0.05500
H 	H 	0.07000 0.22500 0.26300 0.00200
C 	C 	0.09932 0.17230 0.27236 -0.09800
H 	H 	0.11770 0.17370 0.27550 0.06600
C 	C 	0.10103 0.13985 0.27561 0.00900
H 	H 	0.12060 0.11860 0.28100 0.03800
C 	C 	0.92257 0.30667 0.27107 0.03800
H 	H 	0.91840 0.28500 0.28900 0.01200
C 	C 	0.07376 0.13840 0.27088 -0.05300
C 	C 	0.04647 0.17099 0.26207 0.04100
H 	H 	0.02830 0.17050 0.25790 0.01300
C 	C 	0.07502 0.10478 0.27262 0.13600
N 	N 	0.10528 0.07764 0.27208 -0.15200
N 	N 	0.51143 0.03349 0.76055 -0.25700
N 	N 	0.27850 0.03538 0.96398 -0.26300
C 	C 	0.52001 0.03931 0.77713 0.09300
C 	C 	0.29113 0.05803 0.94539 0.10100
S 	S 	0.53079 0.04591 0.80209 -0.06200
S 	S 	0.30993 0.08955 0.91909 -0.06000
N 	N 	0.43583 0.03283 0.78981 -0.22300
C 	C 	0.40739 0.02777 0.79321 0.03200
H 	H 	0.41030 0.01850 0.77690 0.01400
C 	C 	0.37391 0.03557 0.81941 -0.04600
C 	C 	0.36927 0.04917 0.84317 0.00600
H 	H 	0.34700 0.05340 0.86220 0.03800
C 	C 	0.39726 0.05664 0.83888 -0.09700
H 	H 	0.39430 0.06750 0.85390 0.06500
C 	C 	0.42998 0.04810 0.81212 0.05700
H 	H 	0.44930 0.05330 0.80930 0.00300
N 	N 	0.29427 0.00033 0.74231 -0.22500
C 	C 	0.32419 0.99839 0.71321 0.05600
H 	H 	0.32430 0.99530 0.69390 -0.00100
C 	C 	0.35480 0.00076 0.71018 -0.09500
H 	H 	0.37570 0.99850 0.68950 0.06500
C 	C 	0.35484 0.00642 0.73764 0.00500
H 	H 	0.37540 0.00880 0.73580 0.03900
C 	C 	0.32357 0.00835 0.76817 -0.04800
C 	C 	0.29435 0.00503 0.76913 0.03800
H 	H 	0.27330 0.00610 0.78990 0.01400
C 	C 	0.32259 0.01175 0.79905 0.13200
N 	N 	0.34845 0.02255 0.79335 -0.14700
C 	C 	0.34545 0.02537 0.82341 0.13300
N 	N 	0.32102 0.01850 0.85526 -0.15200
C 	C 	0.29719 0.00715 0.85805 0.13200
N 	N 	0.29659 0.00393 0.83039 -0.14900
C 	C 	0.27041 0.99713 0.89373 -0.04900
C 	C 	0.24510 0.98412 0.90000 0.00800
H 	H 	0.24440 0.98100 0.88120 0.03900
C 	C 	0.22092 0.97586 0.93450 -0.09700
H 	H 	0.20300 0.96740 0.93960 0.06700
C 	C 	0.22280 0.97984 0.96178 0.06000
H 	H 	0.20590 0.97410 0.98530 0.00300
N 	N 	0.24769 0.99143 0.95599 -0.22500
N 	N 	0.25913 0.99373 0.04421 -0.22800
C 	C 	0.26457 0.96163 0.07093 0.05500
H 	H 	0.26300 0.94200 0.07000 0.00200
C 	C 	0.27236 0.95602 0.09932 -0.09800
H 	H 	0.27550 0.93310 0.11770 0.06600
C 	C 	0.27561 0.98351 0.10103 0.00900
H 	H 	0.28100 0.97980 0.12060 0.03800
C 	C 	0.27107 0.99969 0.92257 0.03800
H 	H 	0.28900 0.00760 0.91840 0.01200
C 	C 	0.27088 0.01696 0.07376 -0.05300
C 	C 	0.26207 0.02047 0.04647 0.04100
H 	H 	0.25790 0.04330 0.02830 0.01300
C 	C 	0.27262 0.04758 0.07502 0.13600
N 	N 	0.27208 0.04500 0.10528 -0.15200
N 	N 	0.19453 0.76055 0.03349 -0.25700
N 	N 	0.22214 0.96398 0.03538 -0.26300
C 	C 	0.16355 0.77713 0.03931 0.09300
C 	C 	0.20545 0.94539 0.05803 0.10100
S 	S 	0.12121 0.80209 0.04591 -0.06200
S 	S 	0.18143 0.91909 0.08955 -0.06000
N 	N 	0.24153 0.78981 0.03283 -0.22300
C 	C 	0.27163 0.79321 0.02777 0.03200
H 	H 	0.29430 0.77690 0.01850 0.01400
C 	C 	0.27111 0.81941 0.03557 -0.04600
C 	C 	0.23839 0.84317 0.04917 0.00600
H 	H 	0.23740 0.86220 0.05340 0.03800
C 	C 	0.20722 0.83888 0.05664 -0.09700
H 	H 	0.18430 0.85390 0.06750 0.06500
C 	C 	0.20980 0.81212 0.04810 0.05700
H 	H 	0.18810 0.80930 0.05330 0.00300
N 	N 	0.46309 0.74231 0.00033 -0.22500
C 	C 	0.46421 0.71321 0.99839 0.05600
H 	H 	0.48650 0.69390 0.99530 -0.00100
C 	C 	0.43426 0.71018 0.00076 -0.09500
H 	H 	0.43630 0.68950 0.99850 0.06500
C 	C 	0.40110 0.73764 0.00642 0.00500
H 	H 	0.38000 0.73580 0.00880 0.03900
C 	C 	0.39991 0.76817 0.00835 -0.04800
C 	C 	0.43149 0.76913 0.00503 0.03800
H 	H 	0.43070 0.78990 0.00610 0.01400
C 	C 	0.36661 0.79905 0.01175 0.13200
N 	N 	0.33565 0.79335 0.02255 -0.14700
C 	C 	0.30577 0.82341 0.02537 0.13300
N 	N 	0.30522 0.85526 0.01850 -0.15200
C 	C 	0.33761 0.85805 0.00715 0.13200
N 	N 	0.36909 0.83039 0.00393 -0.14900
C 	C 	0.33873 0.89373 0.99713 -0.04900
C 	C 	0.37078 0.90000 0.98412 0.00800
H 	H 	0.39340 0.88120 0.98100 0.03900
C 	C 	0.36872 0.93450 0.97586 -0.09700
H 	H 	0.39000 0.93960 0.96740 0.06700
C 	C 	0.33558 0.96178 0.97984 0.06000
H 	H 	0.33470 0.98530 0.97410 0.00300
N 	N 	0.30489 0.95599 0.99143 -0.22500
N 	N 	0.20293 0.04421 0.99373 -0.22800
C 	C 	0.20287 0.07093 0.96163 0.05500
H 	H 	0.22500 0.07000 0.94200 0.00200
C 	C 	0.17230 0.09932 0.95602 -0.09800
H 	H 	0.17370 0.11770 0.93310 0.06600
C 	C 	0.13985 0.10103 0.98351 0.00900
H 	H 	0.11860 0.12060 0.97980 0.03800
C 	C 	0.30667 0.92257 0.99969 0.03800
H 	H 	0.28500 0.91840 0.00760 0.01200
C 	C 	0.13840 0.07376 0.01696 -0.05300
C 	C 	0.17099 0.04647 0.02047 0.04100
H 	H 	0.17050 0.02830 0.04330 0.01300
C 	C 	0.10478 0.07502 0.04758 0.13600
N 	N 	0.07764 0.10528 0.04500 -0.15200
N 	N 	0.03349 0.51143 0.19453 -0.25700
N 	N 	0.03538 0.27850 0.22214 -0.26300
C 	C 	0.03931 0.52001 0.16355 0.09300
C 	C 	0.05803 0.29113 0.20545 0.10100
S 	S 	0.04591 0.53079 0.12121 -0.06200
S 	S 	0.08955 0.30993 0.18143 -0.06000
N 	N 	0.03283 0.43583 0.24153 -0.22300
C 	C 	0.02777 0.40739 0.27163 0.03200
H 	H 	0.01850 0.41030 0.29430 0.01400
C 	C 	0.03557 0.37391 0.27111 -0.04600
C 	C 	0.04917 0.36927 0.23839 0.00600
H 	H 	0.05340 0.34700 0.23740 0.03800
C 	C 	0.05664 0.39726 0.20722 -0.09700
H 	H 	0.06750 0.39430 0.18430 0.06500
C 	C 	0.04810 0.42998 0.20980 0.05700
H 	H 	0.05330 0.44930 0.18810 0.00300
N 	N 	0.00033 0.29427 0.46309 -0.22500
C 	C 	0.99839 0.32419 0.46421 0.05600
H 	H 	0.99530 0.32430 0.48650 -0.00100
C 	C 	0.00076 0.35480 0.43426 -0.09500
H 	H 	0.99850 0.37570 0.43630 0.06500
C 	C 	0.00642 0.35484 0.40110 0.00500
H 	H 	0.00880 0.37540 0.38000 0.03900
C 	C 	0.00835 0.32357 0.39991 -0.04800
C 	C 	0.00503 0.29435 0.43149 0.03800
H 	H 	0.00610 0.27330 0.43070 0.01400
C 	C 	0.01175 0.32259 0.36661 0.13200
N 	N 	0.02255 0.34845 0.33565 -0.14700
C 	C 	0.02537 0.34545 0.30577 0.13300
N 	N 	0.01850 0.32102 0.30522 -0.15200
C 	C 	0.00715 0.29719 0.33761 0.13200
N 	N 	0.00393 0.29659 0.36909 -0.14900
C 	C 	0.99713 0.27041 0.33873 -0.04900
C 	C 	0.98412 0.24510 0.37078 0.00800
H 	H 	0.98100 0.24440 0.39340 0.03900
C 	C 	0.97586 0.22092 0.36872 -0.09700
H 	H 	0.96740 0.20300 0.39000 0.06700
C 	C 	0.97984 0.22280 0.33558 0.06000
H 	H 	0.97410 0.20590 0.33470 0.00300
N 	N 	0.99143 0.24769 0.30489 -0.22500
N 	N 	0.99373 0.25913 0.20293 -0.22800
C 	C 	0.96163 0.26457 0.20287 0.05500
H 	H 	0.94200 0.26300 0.22500 0.00200
C 	C 	0.95602 0.27236 0.17230 -0.09800
H 	H 	0.93310 0.27550 0.17370 0.06600
C 	C 	0.98351 0.27561 0.13985 0.00900
H 	H 	0.97980 0.28100 0.11860 0.03800
C 	C 	0.99969 0.27107 0.30667 0.03800
H 	H 	0.00760 0.28900 0.28500 0.01200
C 	C 	0.01696 0.27088 0.13840 -0.05300
C 	C 	0.02047 0.26207 0.17099 0.04100
H 	H 	0.04330 0.25790 0.17050 0.01300
C 	C 	0.04758 0.27262 0.10478 0.13600
N 	N 	0.04500 0.27208 0.07764 -0.15200
N 	N 	0.03349 0.76055 0.51143 -0.25700
N 	N 	0.03538 0.96398 0.27850 -0.26300
C 	C 	0.03931 0.77713 0.52001 0.09300
C 	C 	0.05803 0.94539 0.29113 0.10100
S 	S 	0.04591 0.80209 0.53079 -0.06200
S 	S 	0.08955 0.91909 0.30993 -0.06000
N 	N 	0.03283 0.78981 0.43583 -0.22300
C 	C 	0.02777 0.79321 0.40739 0.03200
H 	H 	0.01850 0.77690 0.41030 0.01400
C 	C 	0.03557 0.81941 0.37391 -0.04600
C 	C 	0.04917 0.84317 0.36927 0.00600
H 	H 	0.05340 0.86220 0.34700 0.03800
C 	C 	0.05664 0.83888 0.39726 -0.09700
H 	H 	0.06750 0.85390 0.39430 0.06500
C 	C 	0.04810 0.81212 0.42998 0.05700
H 	H 	0.05330 0.80930 0.44930 0.00300
N 	N 	0.00033 0.74231 0.29427 -0.22500
C 	C 	0.99839 0.71321 0.32419 0.05600
H 	H 	0.99530 0.69390 0.32430 -0.00100
C 	C 	0.00076 0.71018 0.35480 -0.09500
H 	H 	0.99850 0.68950 0.37570 0.06500
C 	C 	0.00642 0.73764 0.35484 0.00500
H 	H 	0.00880 0.73580 0.37540 0.03900
C 	C 	0.00835 0.76817 0.32357 -0.04800
C 	C 	0.00503 0.76913 0.29435 0.03800
H 	H 	0.00610 0.78990 0.27330 0.01400
C 	C 	0.01175 0.79905 0.32259 0.13200
N 	N 	0.02255 0.79335 0.34845 -0.14700
C 	C 	0.02537 0.82341 0.34545 0.13300
N 	N 	0.01850 0.85526 0.32102 -0.15200
C 	C 	0.00715 0.85805 0.29719 0.13200
N 	N 	0.00393 0.83039 0.29659 -0.14900
C 	C 	0.99713 0.89373 0.27041 -0.04900
C 	C 	0.98412 0.90000 0.24510 0.00800
H 	H 	0.98100 0.88120 0.24440 0.03900
C 	C 	0.97586 0.93450 0.22092 -0.09700
H 	H 	0.96740 0.93960 0.20300 0.06700
C 	C 	0.97984 0.96178 0.22280 0.06000
H 	H 	0.97410 0.98530 0.20590 0.00300
N 	N 	0.99143 0.95599 0.24769 -0.22500
N 	N 	0.99373 0.04421 0.25913 -0.22800
C 	C 	0.96163 0.07093 0.26457 0.05500
H 	H 	0.94200 0.07000 0.26300 0.00200
C 	C 	0.95602 0.09932 0.27236 -0.09800
H 	H 	0.93310 0.11770 0.27550 0.06600
C 	C 	0.98351 0.10103 0.27561 0.00900
H 	H 	0.97980 0.12060 0.28100 0.03800
C 	C 	0.99969 0.92257 0.27107 0.03800
H 	H 	0.00760 0.91840 0.28900 0.01200
C 	C 	0.01696 0.07376 0.27088 -0.05300
C 	C 	0.02047 0.04647 0.26207 0.04100
H 	H 	0.04330 0.02830 0.25790 0.01300
C 	C 	0.04758 0.07502 0.27262 0.13600
N 	N 	0.04500 0.10528 0.27208 -0.15200
N 	N 	0.19453 0.51143 0.76055 -0.25700
N 	N 	0.22214 0.27850 0.96398 -0.26300
C 	C 	0.16355 0.52001 0.77713 0.09300
C 	C 	0.20545 0.29113 0.94539 0.10100
S 	S 	0.12121 0.53079 0.80209 -0.06200
S 	S 	0.18143 0.30993 0.91909 -0.06000
N 	N 	0.24153 0.43583 0.78981 -0.22300
C 	C 	0.27163 0.40739 0.79321 0.03200
H 	H 	0.29430 0.41030 0.77690 0.01400
C 	C 	0.27111 0.37391 0.81941 -0.04600
C 	C 	0.23839 0.36927 0.84317 0.00600
H 	H 	0.23740 0.34700 0.86220 0.03800
C 	C 	0.20722 0.39726 0.83888 -0.09700
H 	H 	0.18430 0.39430 0.85390 0.06500
C 	C 	0.20980 0.42998 0.81212 0.05700
H 	H 	0.18810 0.44930 0.80930 0.00300
N 	N 	0.46309 0.29427 0.74231 -0.22500
C 	C 	0.46421 0.32419 0.71321 0.05600
H 	H 	0.48650 0.32430 0.69390 -0.00100
C 	C 	0.43426 0.35480 0.71018 -0.09500
H 	H 	0.43630 0.37570 0.68950 0.06500
C 	C 	0.40110 0.35484 0.73764 0.00500
H 	H 	0.38000 0.37540 0.73580 0.03900
C 	C 	0.39991 0.32357 0.76817 -0.04800
C 	C 	0.43149 0.29435 0.76913 0.03800
H 	H 	0.43070 0.27330 0.78990 0.01400
C 	C 	0.36661 0.32259 0.79905 0.13200
N 	N 	0.33565 0.34845 0.79335 -0.14700
C 	C 	0.30577 0.34545 0.82341 0.13200
N 	N 	0.30522 0.32102 0.85526 -0.15200
C 	C 	0.33761 0.29719 0.85805 0.13200
N 	N 	0.36909 0.29659 0.83039 -0.14900
C 	C 	0.33873 0.27041 0.89373 -0.04900
C 	C 	0.37078 0.24510 0.90000 0.00800
H 	H 	0.39340 0.24440 0.88120 0.03900
C 	C 	0.36872 0.22092 0.93450 -0.09700
H 	H 	0.39000 0.20300 0.93960 0.06700
C 	C 	0.33558 0.22280 0.96178 0.06000
H 	H 	0.33470 0.20590 0.98530 0.00300
N 	N 	0.30489 0.24769 0.95599 -0.22500
N 	N 	0.20293 0.25913 0.04421 -0.22800
C 	C 	0.20287 0.26457 0.07093 0.05500
H 	H 	0.22500 0.26300 0.07000 0.00200
C 	C 	0.17230 0.27236 0.09932 -0.09800
H 	H 	0.17370 0.27550 0.11770 0.06600
C 	C 	0.13985 0.27561 0.10103 0.00900
H 	H 	0.11860 0.28100 0.12060 0.03800
C 	C 	0.30667 0.27107 0.92257 0.03800
H 	H 	0.28500 0.28900 0.91840 0.01200
C 	C 	0.13840 0.27088 0.07376 -0.05300
C 	C 	0.17099 0.26207 0.04647 0.04100
H 	H 	0.17050 0.25790 0.02830 0.01300
C 	C 	0.10478 0.27262 0.07502 0.13600
N 	N 	0.07764 0.27208 0.10528 -0.15200
N 	N 	0.51143 0.19453 0.03349 -0.25700
N 	N 	0.27850 0.22214 0.03538 -0.26300
C 	C 	0.52001 0.16355 0.03931 0.09300
C 	C 	0.29113 0.20545 0.05803 0.10100
S 	S 	0.53079 0.12121 0.04591 -0.06200
S 	S 	0.30993 0.18143 0.08955 -0.06000
N 	N 	0.43583 0.24153 0.03283 -0.22300
C 	C 	0.40739 0.27163 0.02777 0.03200
H 	H 	0.41030 0.29430 0.01850 0.01400
C 	C 	0.37391 0.27111 0.03557 -0.04600
C 	C 	0.36927 0.23839 0.04917 0.00600
H 	H 	0.34700 0.23740 0.05340 0.03800
C 	C 	0.39726 0.20722 0.05664 -0.09700
H 	H 	0.39430 0.18430 0.06750 0.06500
C 	C 	0.42998 0.20980 0.04810 0.05700
H 	H 	0.44930 0.18810 0.05330 0.00300
N 	N 	0.29427 0.46309 0.00033 -0.22500
C 	C 	0.32419 0.46421 0.99839 0.05600
H 	H 	0.32430 0.48650 0.99530 -0.00100
C 	C 	0.35480 0.43426 0.00076 -0.09500
H 	H 	0.37570 0.43630 0.99850 0.06500
C 	C 	0.35484 0.40110 0.00642 0.00500
H 	H 	0.37540 0.38000 0.00880 0.03900
C 	C 	0.32357 0.39991 0.00835 -0.04800
C 	C 	0.29435 0.43149 0.00503 0.03800
H 	H 	0.27330 0.43070 0.00610 0.01400
C 	C 	0.32259 0.36661 0.01175 0.13200
N 	N 	0.34845 0.33565 0.02255 -0.14700
C 	C 	0.34545 0.30577 0.02537 0.13300
N 	N 	0.32102 0.30522 0.01850 -0.15200
C 	C 	0.29719 0.33761 0.00715 0.13200
N 	N 	0.29659 0.36909 0.00393 -0.14900
C 	C 	0.27041 0.33873 0.99713 -0.04900
C 	C 	0.24510 0.37078 0.98412 0.00800
H 	H 	0.24440 0.39340 0.98100 0.03900
C 	C 	0.22092 0.36872 0.97586 -0.09700
H 	H 	0.20300 0.39000 0.96740 0.06700
C 	C 	0.22280 0.33558 0.97984 0.06000
H 	H 	0.20590 0.33470 0.97410 0.00300
N 	N 	0.24769 0.30489 0.99143 -0.22500
N 	N 	0.25913 0.20293 0.99373 -0.22800
C 	C 	0.26457 0.20287 0.96163 0.05500
H 	H 	0.26300 0.22500 0.94200 0.00200
C 	C 	0.27236 0.17230 0.95602 -0.09800
H 	H 	0.27550 0.17370 0.93310 0.06600
C 	C 	0.27561 0.13985 0.98351 0.00900
H 	H 	0.28100 0.11860 0.97980 0.03800
C 	C 	0.27107 0.30667 0.99969 0.03800
H 	H 	0.28900 0.28500 0.00760 0.01200
C 	C 	0.27088 0.13840 0.01696 -0.05300
C 	C 	0.26207 0.17099 0.02047 0.04100
H 	H 	0.25790 0.17050 0.04330 0.01300
C 	C 	0.27262 0.10478 0.04758 0.13600
N 	N 	0.27208 0.07764 0.04500 -0.15200
N 	N 	0.76055 0.03349 0.19453 -0.25700
N 	N 	0.96398 0.03538 0.22214 -0.26300
C 	C 	0.77713 0.03931 0.16355 0.09300
C 	C 	0.94539 0.05803 0.20545 0.10100
S 	S 	0.80209 0.04591 0.12121 -0.06200
S 	S 	0.91909 0.08955 0.18143 -0.06000
N 	N 	0.78981 0.03283 0.24153 -0.22300
C 	C 	0.79321 0.02777 0.27163 0.03200
H 	H 	0.77690 0.01850 0.29430 0.01400
C 	C 	0.81941 0.03557 0.27111 -0.04600
C 	C 	0.84317 0.04917 0.23839 0.00600
H 	H 	0.86220 0.05340 0.23740 0.03800
C 	C 	0.83888 0.05664 0.20722 -0.09700
H 	H 	0.85390 0.06750 0.18430 0.06500
C 	C 	0.81212 0.04810 0.20980 0.05700
H 	H 	0.80930 0.05330 0.18810 0.00300
N 	N 	0.74231 0.00033 0.46309 -0.22500
C 	C 	0.71321 0.99839 0.46421 0.05600
H 	H 	0.69390 0.99530 0.48650 -0.00100
C 	C 	0.71018 0.00076 0.43426 -0.09500
H 	H 	0.68950 0.99850 0.43630 0.06500
C 	C 	0.73764 0.00642 0.40110 0.00500
H 	H 	0.73580 0.00880 0.38000 0.03900
C 	C 	0.76817 0.00835 0.39991 -0.04800
C 	C 	0.76913 0.00503 0.43149 0.03800
H 	H 	0.78990 0.00610 0.43070 0.01400
C 	C 	0.79905 0.01175 0.36661 0.13200
N 	N 	0.79335 0.02255 0.33565 -0.14700
C 	C 	0.82341 0.02537 0.30577 0.13300
N 	N 	0.85526 0.01850 0.30522 -0.15200
C 	C 	0.85805 0.00715 0.33761 0.13200
N 	N 	0.83039 0.00393 0.36909 -0.14900
C 	C 	0.89373 0.99713 0.33873 -0.04900
C 	C 	0.90000 0.98412 0.37078 0.00800
H 	H 	0.88120 0.98100 0.39340 0.03900
C 	C 	0.93450 0.97586 0.36872 -0.09700
H 	H 	0.93960 0.96740 0.39000 0.06700
C 	C 	0.96178 0.97984 0.33558 0.06000
H 	H 	0.98530 0.97410 0.33470 0.00300
N 	N 	0.95599 0.99143 0.30489 -0.22500
N 	N 	0.04421 0.99373 0.20293 -0.22800
C 	C 	0.07093 0.96163 0.20287 0.05500
H 	H 	0.07000 0.94200 0.22500 0.00200
C 	C 	0.09932 0.95602 0.17230 -0.09800
H 	H 	0.11770 0.93310 0.17370 0.06600
C 	C 	0.10103 0.98351 0.13985 0.00900
H 	H 	0.12060 0.97980 0.11860 0.03800
C 	C 	0.92257 0.99969 0.30667 0.03800
H 	H 	0.91840 0.00760 0.28500 0.01200
C 	C 	0.07376 0.01696 0.13840 -0.05300
C 	C 	0.04647 0.02047 0.17099 0.04100
H 	H 	0.02830 0.04330 0.17050 0.01300
C 	C 	0.07502 0.04758 0.10478 0.13600
N 	N 	0.10528 0.04500 0.07764 -0.15200
N 	N 	0.69453 0.53349 0.26055 -0.25700
N 	N 	0.72214 0.53538 0.46398 -0.26300
C 	C 	0.66355 0.53931 0.27713 0.09300
C 	C 	0.70545 0.55803 0.44539 0.10100
S 	S 	0.62121 0.54591 0.30209 -0.06200
S 	S 	0.68143 0.58955 0.41909 -0.06000
N 	N 	0.74153 0.53283 0.28981 -0.22300
C 	C 	0.77163 0.52777 0.29321 0.03200
H 	H 	0.79430 0.51850 0.27690 0.01400
C 	C 	0.77111 0.53557 0.31941 -0.04600
C 	C 	0.73839 0.54917 0.34317 0.00600
H 	H 	0.73740 0.55340 0.36220 0.03800
C 	C 	0.70722 0.55664 0.33888 -0.09700
H 	H 	0.68430 0.56750 0.35390 0.06500
C 	C 	0.70980 0.54810 0.31212 0.05700
H 	H 	0.68810 0.55330 0.30930 0.00300
N 	N 	0.96309 0.50033 0.24231 -0.22500
C 	C 	0.96421 0.49839 0.21321 0.05600
H 	H 	0.98650 0.49530 0.19390 -0.00100
C 	C 	0.93426 0.50076 0.21018 -0.09500
H 	H 	0.93630 0.49850 0.18950 0.06500
C 	C 	0.90110 0.50642 0.23764 0.00500
H 	H 	0.88000 0.50880 0.23580 0.03900
C 	C 	0.89991 0.50835 0.26817 -0.04800
C 	C 	0.93149 0.50503 0.26913 0.03800
H 	H 	0.93070 0.50610 0.28990 0.01400
C 	C 	0.86661 0.51175 0.29905 0.13200
N 	N 	0.83565 0.52255 0.29335 -0.14700
C 	C 	0.80577 0.52537 0.32341 0.13200
N 	N 	0.80522 0.51850 0.35526 -0.15200
C 	C 	0.83761 0.50715 0.35805 0.13200
N 	N 	0.86909 0.50393 0.33039 -0.14900
C 	C 	0.83873 0.49713 0.39373 -0.04900
C 	C 	0.87078 0.48412 0.40000 0.00800
H 	H 	0.89340 0.48100 0.38120 0.03900
C 	C 	0.86872 0.47586 0.43450 -0.09800
H 	H 	0.89000 0.46740 0.43960 0.06700
C 	C 	0.83558 0.47984 0.46178 0.06000
H 	H 	0.83470 0.47410 0.48530 0.00300
N 	N 	0.80489 0.49143 0.45599 -0.22500
N 	N 	0.70293 0.49373 0.54421 -0.22800
C 	C 	0.70287 0.46163 0.57093 0.05500
H 	H 	0.72500 0.44200 0.57000 0.00200
C 	C 	0.67230 0.45602 0.59932 -0.09800
H 	H 	0.67370 0.43310 0.61770 0.06600
C 	C 	0.63985 0.48351 0.60103 0.00900
H 	H 	0.61860 0.47980 0.62060 0.03800
C 	C 	0.80667 0.49969 0.42257 0.03800
H 	H 	0.78500 0.50760 0.41840 0.01200
C 	C 	0.63840 0.51696 0.57376 -0.05300
C 	C 	0.67099 0.52047 0.54647 0.04100
H 	H 	0.67050 0.54330 0.52830 0.01300
C 	C 	0.60478 0.54758 0.57502 0.13600
N 	N 	0.57764 0.54500 0.60528 -0.15200
N 	N 	0.53349 0.69453 0.01143 -0.25700
N 	N 	0.53538 0.72214 0.77850 -0.26300
C 	C 	0.53931 0.66355 0.02001 0.09300
C 	C 	0.55803 0.70545 0.79113 0.10100
S 	S 	0.54591 0.62121 0.03079 -0.06200
S 	S 	0.58955 0.68143 0.80993 -0.06000
N 	N 	0.53283 0.74153 0.93583 -0.22300
C 	C 	0.52777 0.77163 0.90739 0.03200
H 	H 	0.51850 0.79430 0.91030 0.01400
C 	C 	0.53557 0.77111 0.87391 -0.04600
C 	C 	0.54917 0.73839 0.86927 0.00600
H 	H 	0.55340 0.73740 0.84700 0.03800
C 	C 	0.55664 0.70722 0.89726 -0.09700
H 	H 	0.56750 0.68430 0.89430 0.06500
C 	C 	0.54810 0.70980 0.92998 0.05700
H 	H 	0.55330 0.68810 0.94930 0.00300
N 	N 	0.50033 0.96309 0.79427 -0.22500
C 	C 	0.49839 0.96421 0.82419 0.05600
H 	H 	0.49530 0.98650 0.82430 -0.00100
C 	C 	0.50076 0.93426 0.85480 -0.09500
H 	H 	0.49850 0.93630 0.87570 0.06500
C 	C 	0.50642 0.90110 0.85484 0.00500
H 	H 	0.50880 0.88000 0.87540 0.03900
C 	C 	0.50835 0.89991 0.82357 -0.04800
C 	C 	0.50503 0.93149 0.79435 0.03800
H 	H 	0.50610 0.93070 0.77330 0.01400
C 	C 	0.51175 0.86661 0.82259 0.13200
N 	N 	0.52255 0.83565 0.84845 -0.14700
C 	C 	0.52537 0.80577 0.84545 0.13200
N 	N 	0.51850 0.80522 0.82102 -0.15200
C 	C 	0.50715 0.83761 0.79719 0.13200
N 	N 	0.50393 0.86909 0.79659 -0.14900
C 	C 	0.49713 0.83873 0.77041 -0.04900
C 	C 	0.48412 0.87078 0.74510 0.00800
H 	H 	0.48100 0.89340 0.74440 0.03900
C 	C 	0.47586 0.86872 0.72092 -0.09800
H 	H 	0.46740 0.89000 0.70300 0.06700
C 	C 	0.47984 0.83558 0.72280 0.06000
H 	H 	0.47410 0.83470 0.70590 0.00300
N 	N 	0.49143 0.80489 0.74769 -0.22500
N 	N 	0.49373 0.70293 0.75913 -0.22800
C 	C 	0.46163 0.70287 0.76457 0.05500
H 	H 	0.44200 0.72500 0.76300 0.00200
C 	C 	0.45602 0.67230 0.77236 -0.09800
H 	H 	0.43310 0.67370 0.77550 0.06600
C 	C 	0.48351 0.63985 0.77561 0.00900
H 	H 	0.47980 0.61860 0.78100 0.03800
C 	C 	0.49969 0.80667 0.77107 0.03800
H 	H 	0.50760 0.78500 0.78900 0.01200
C 	C 	0.51696 0.63840 0.77088 -0.05300
C 	C 	0.52047 0.67099 0.76207 0.04100
H 	H 	0.54330 0.67050 0.75790 0.01300
C 	C 	0.54758 0.60478 0.77262 0.13600
N 	N 	0.54500 0.57764 0.77208 -0.15200
N 	N 	0.26055 0.01143 0.69453 -0.25700
N 	N 	0.46398 0.77850 0.72214 -0.26300
C 	C 	0.27713 0.02001 0.66355 0.09300
C 	C 	0.44539 0.79113 0.70545 0.10100
S 	S 	0.30209 0.03079 0.62121 -0.06200
S 	S 	0.41909 0.80993 0.68143 -0.06000
N 	N 	0.28981 0.93583 0.74153 -0.22300
C 	C 	0.29321 0.90739 0.77163 0.03200
H 	H 	0.27690 0.91030 0.79430 0.01400
C 	C 	0.31941 0.87391 0.77111 -0.04600
C 	C 	0.34317 0.86927 0.73839 0.00600
H 	H 	0.36220 0.84700 0.73740 0.03800
C 	C 	0.33888 0.89726 0.70722 -0.09700
H 	H 	0.35390 0.89430 0.68430 0.06500
C 	C 	0.31212 0.92998 0.70980 0.05700
H 	H 	0.30930 0.94930 0.68810 0.00300
N 	N 	0.24231 0.79427 0.96309 -0.22500
C 	C 	0.21321 0.82419 0.96421 0.05600
H 	H 	0.19390 0.82430 0.98650 -0.00100
C 	C 	0.21018 0.85480 0.93426 -0.09500
H 	H 	0.18950 0.87570 0.93630 0.06500
C 	C 	0.23764 0.85484 0.90110 0.00500
H 	H 	0.23580 0.87540 0.88000 0.03900
C 	C 	0.26817 0.82357 0.89991 -0.04800
C 	C 	0.26913 0.79435 0.93149 0.03800
H 	H 	0.28990 0.77330 0.93070 0.01400
C 	C 	0.29905 0.82259 0.86661 0.13200
N 	N 	0.29335 0.84845 0.83565 -0.14700
C 	C 	0.32341 0.84545 0.80577 0.13200
N 	N 	0.35526 0.82102 0.80522 -0.15200
C 	C 	0.35805 0.79719 0.83761 0.13200
N 	N 	0.33039 0.79659 0.86909 -0.14900
C 	C 	0.39373 0.77041 0.83873 -0.04900
C 	C 	0.40000 0.74510 0.87078 0.00800
H 	H 	0.38120 0.74440 0.89340 0.03900
C 	C 	0.43450 0.72092 0.86872 -0.09800
H 	H 	0.43960 0.70300 0.89000 0.06700
C 	C 	0.46178 0.72280 0.83558 0.06000
H 	H 	0.48530 0.70590 0.83470 0.00300
N 	N 	0.45599 0.74769 0.80489 -0.22500
N 	N 	0.54421 0.75913 0.70293 -0.22800
C 	C 	0.57093 0.76457 0.70287 0.05500
H 	H 	0.57000 0.76300 0.72500 0.00200
C 	C 	0.59932 0.77236 0.67230 -0.09800
H 	H 	0.61770 0.77550 0.67370 0.06600
C 	C 	0.60103 0.77561 0.63985 0.00900
H 	H 	0.62060 0.78100 0.61860 0.03800
C 	C 	0.42257 0.77107 0.80667 0.03800
H 	H 	0.41840 0.78900 0.78500 0.01200
C 	C 	0.57376 0.77088 0.63840 -0.05300
C 	C 	0.54647 0.76207 0.67099 0.04100
H 	H 	0.52830 0.75790 0.67050 0.01300
C 	C 	0.57502 0.77262 0.60478 0.13600
N 	N 	0.60528 0.77208 0.57764 -0.15200
N 	N 	0.01143 0.26055 0.53349 -0.25700
N 	N 	0.77850 0.46398 0.53538 -0.26300
C 	C 	0.02001 0.27713 0.53931 0.09300
C 	C 	0.79113 0.44539 0.55803 0.10100
S 	S 	0.03079 0.30209 0.54591 -0.06200
S 	S 	0.80993 0.41909 0.58955 -0.06000
N 	N 	0.93583 0.28981 0.53283 -0.22300
C 	C 	0.90739 0.29321 0.52777 0.03200
H 	H 	0.91030 0.27690 0.51850 0.01400
C 	C 	0.87391 0.31941 0.53557 -0.04600
C 	C 	0.86927 0.34317 0.54917 0.00600
H 	H 	0.84700 0.36220 0.55340 0.03800
C 	C 	0.89726 0.33888 0.55664 -0.09700
H 	H 	0.89430 0.35390 0.56750 0.06500
C 	C 	0.92998 0.31212 0.54810 0.05700
H 	H 	0.94930 0.30930 0.55330 0.00300
N 	N 	0.79427 0.24231 0.50033 -0.22500
C 	C 	0.82419 0.21321 0.49839 0.05600
H 	H 	0.82430 0.19390 0.49530 -0.00100
C 	C 	0.85480 0.21018 0.50076 -0.09500
H 	H 	0.87570 0.18950 0.49850 0.06500
C 	C 	0.85484 0.23764 0.50642 0.00500
H 	H 	0.87540 0.23580 0.50880 0.03900
C 	C 	0.82357 0.26817 0.50835 -0.04800
C 	C 	0.79435 0.26913 0.50503 0.03800
H 	H 	0.77330 0.28990 0.50610 0.01400
C 	C 	0.82259 0.29905 0.51175 0.13200
N 	N 	0.84845 0.29335 0.52255 -0.14700
C 	C 	0.84545 0.32341 0.52537 0.13200
N 	N 	0.82102 0.35526 0.51850 -0.15200
C 	C 	0.79719 0.35805 0.50715 0.13200
N 	N 	0.79659 0.33039 0.50393 -0.14900
C 	C 	0.77041 0.39373 0.49713 -0.04900
C 	C 	0.74510 0.40000 0.48412 0.00800
H 	H 	0.74440 0.38120 0.48100 0.03900
C 	C 	0.72092 0.43450 0.47586 -0.09800
H 	H 	0.70300 0.43960 0.46740 0.06700
C 	C 	0.72280 0.46178 0.47984 0.06000
H 	H 	0.70590 0.48530 0.47410 0.00300
N 	N 	0.74769 0.45599 0.49143 -0.22500
N 	N 	0.75913 0.54421 0.49373 -0.22800
C 	C 	0.76457 0.57093 0.46163 0.05500
H 	H 	0.76300 0.57000 0.44200 0.00200
C 	C 	0.77236 0.59932 0.45602 -0.09800
H 	H 	0.77550 0.61770 0.43310 0.06600
C 	C 	0.77561 0.60103 0.48351 0.00900
H 	H 	0.78100 0.62060 0.47980 0.03800
C 	C 	0.77107 0.42257 0.49969 0.03800
H 	H 	0.78900 0.41840 0.50760 0.01200
C 	C 	0.77088 0.57376 0.51696 -0.05300
C 	C 	0.76207 0.54647 0.52047 0.04100
H 	H 	0.75790 0.52830 0.54330 0.01300
C 	C 	0.77262 0.57502 0.54758 0.13600
N 	N 	0.77208 0.60528 0.54500 -0.15200
N 	N 	0.26055 0.69453 0.53349 -0.25700
N 	N 	0.46398 0.72214 0.53538 -0.26300
C 	C 	0.27713 0.66355 0.53931 0.09300
C 	C 	0.44539 0.70545 0.55803 0.10100
S 	S 	0.30209 0.62121 0.54591 -0.06200
S 	S 	0.41909 0.68143 0.58955 -0.06000
N 	N 	0.28981 0.74153 0.53283 -0.22300
C 	C 	0.29321 0.77163 0.52777 0.03200
H 	H 	0.27690 0.79430 0.51850 0.01400
C 	C 	0.31941 0.77111 0.53557 -0.04600
C 	C 	0.34317 0.73839 0.54917 0.00600
H 	H 	0.36220 0.73740 0.55340 0.03800
C 	C 	0.33888 0.70722 0.55664 -0.09700
H 	H 	0.35390 0.68430 0.56750 0.06500
C 	C 	0.31212 0.70980 0.54810 0.05700
H 	H 	0.30930 0.68810 0.55330 0.00300
N 	N 	0.24231 0.96309 0.50033 -0.22500
C 	C 	0.21321 0.96421 0.49839 0.05600
H 	H 	0.19390 0.98650 0.49530 -0.00100
C 	C 	0.21018 0.93426 0.50076 -0.09500
H 	H 	0.18950 0.93630 0.49850 0.06500
C 	C 	0.23764 0.90110 0.50642 0.00500
H 	H 	0.23580 0.88000 0.50880 0.03900
C 	C 	0.26817 0.89991 0.50835 -0.04800
C 	C 	0.26913 0.93149 0.50503 0.03800
H 	H 	0.28990 0.93070 0.50610 0.01400
C 	C 	0.29905 0.86661 0.51175 0.13200
N 	N 	0.29335 0.83565 0.52255 -0.14700
C 	C 	0.32341 0.80577 0.52537 0.13200
N 	N 	0.35526 0.80522 0.51850 -0.15200
C 	C 	0.35805 0.83761 0.50715 0.13200
N 	N 	0.33039 0.86909 0.50393 -0.14900
C 	C 	0.39373 0.83873 0.49713 -0.04900
C 	C 	0.40000 0.87078 0.48412 0.00800
H 	H 	0.38120 0.89340 0.48100 0.03900
C 	C 	0.43450 0.86872 0.47586 -0.09800
H 	H 	0.43960 0.89000 0.46740 0.06700
C 	C 	0.46178 0.83558 0.47984 0.06000
H 	H 	0.48530 0.83470 0.47410 0.00300
N 	N 	0.45599 0.80489 0.49143 -0.22500
N 	N 	0.54421 0.70293 0.49373 -0.22800
C 	C 	0.57093 0.70287 0.46163 0.05500
H 	H 	0.57000 0.72500 0.44200 0.00200
C 	C 	0.59932 0.67230 0.45602 -0.09800
H 	H 	0.61770 0.67370 0.43310 0.06600
C 	C 	0.60103 0.63985 0.48351 0.00900
H 	H 	0.62060 0.61860 0.47980 0.03800
C 	C 	0.42257 0.80667 0.49969 0.03800
H 	H 	0.41840 0.78500 0.50760 0.01200
C 	C 	0.57376 0.63840 0.51696 -0.05300
C 	C 	0.54647 0.67099 0.52047 0.04100
H 	H 	0.52830 0.67050 0.54330 0.01300
C 	C 	0.57502 0.60478 0.54758 0.13600
N 	N 	0.60528 0.57764 0.54500 -0.15200
N 	N 	0.01143 0.53349 0.69453 -0.25700
N 	N 	0.77850 0.53538 0.72214 -0.26300
C 	C 	0.02001 0.53931 0.66355 0.09300
C 	C 	0.79113 0.55803 0.70545 0.10100
S 	S 	0.03079 0.54591 0.62121 -0.06200
S 	S 	0.80993 0.58955 0.68143 -0.06000
N 	N 	0.93583 0.53283 0.74153 -0.22300
C 	C 	0.90739 0.52777 0.77163 0.03200
H 	H 	0.91030 0.51850 0.79430 0.01400
C 	C 	0.87391 0.53557 0.77111 -0.04600
C 	C 	0.86927 0.54917 0.73839 0.00600
H 	H 	0.84700 0.55340 0.73740 0.03800
C 	C 	0.89726 0.55664 0.70722 -0.09700
H 	H 	0.89430 0.56750 0.68430 0.06500
C 	C 	0.92998 0.54810 0.70980 0.05700
H 	H 	0.94930 0.55330 0.68810 0.00300
N 	N 	0.79427 0.50033 0.96309 -0.22500
C 	C 	0.82419 0.49839 0.96421 0.05600
H 	H 	0.82430 0.49530 0.98650 -0.00100
C 	C 	0.85480 0.50076 0.93426 -0.09500
H 	H 	0.87570 0.49850 0.93630 0.06500
C 	C 	0.85484 0.50642 0.90110 0.00500
H 	H 	0.87540 0.50880 0.88000 0.03900
C 	C 	0.82357 0.50835 0.89991 -0.04800
C 	C 	0.79435 0.50503 0.93149 0.03800
H 	H 	0.77330 0.50610 0.93070 0.01400
C 	C 	0.82259 0.51175 0.86661 0.13200
N 	N 	0.84845 0.52255 0.83565 -0.14700
C 	C 	0.84545 0.52537 0.80577 0.13200
N 	N 	0.82102 0.51850 0.80522 -0.15200
C 	C 	0.79719 0.50715 0.83761 0.13200
N 	N 	0.79659 0.50393 0.86909 -0.14900
C 	C 	0.77041 0.49713 0.83873 -0.04900
C 	C 	0.74510 0.48412 0.87078 0.00800
H 	H 	0.74440 0.48100 0.89340 0.03900
C 	C 	0.72092 0.47586 0.86872 -0.09800
H 	H 	0.70300 0.46740 0.89000 0.06700
C 	C 	0.72280 0.47984 0.83558 0.06000
H 	H 	0.70590 0.47410 0.83470 0.00300
N 	N 	0.74769 0.49143 0.80489 -0.22500
N 	N 	0.75913 0.49373 0.70293 -0.22800
C 	C 	0.76457 0.46163 0.70287 0.05500
H 	H 	0.76300 0.44200 0.72500 0.00200
C 	C 	0.77236 0.45602 0.67230 -0.09800
H 	H 	0.77550 0.43310 0.67370 0.06600
C 	C 	0.77561 0.48351 0.63985 0.00900
H 	H 	0.78100 0.47980 0.61860 0.03800
C 	C 	0.77107 0.49969 0.80667 0.03800
H 	H 	0.78900 0.50760 0.78500 0.01200
C 	C 	0.77088 0.51696 0.63840 -0.05300
C 	C 	0.76207 0.52047 0.67099 0.04100
H 	H 	0.75790 0.54330 0.67050 0.01300
C 	C 	0.77262 0.54758 0.60478 0.13600
N 	N 	0.77208 0.54500 0.57764 -0.15200
N 	N 	0.69453 0.26055 0.01143 -0.25700
N 	N 	0.72214 0.46398 0.77850 -0.26300
C 	C 	0.66355 0.27713 0.02001 0.09300
C 	C 	0.70545 0.44539 0.79113 0.10100
S 	S 	0.62121 0.30209 0.03079 -0.06200
S 	S 	0.68143 0.41909 0.80993 -0.06000
N 	N 	0.74153 0.28981 0.93583 -0.22300
C 	C 	0.77163 0.29321 0.90739 0.03200
H 	H 	0.79430 0.27690 0.91030 0.01400
C 	C 	0.77111 0.31941 0.87391 -0.04600
C 	C 	0.73839 0.34317 0.86927 0.00600
H 	H 	0.73740 0.36220 0.84700 0.03800
C 	C 	0.70722 0.33888 0.89726 -0.09700
H 	H 	0.68430 0.35390 0.89430 0.06500
C 	C 	0.70980 0.31212 0.92998 0.05700
H 	H 	0.68810 0.30930 0.94930 0.00300
N 	N 	0.96309 0.24231 0.79427 -0.22500
C 	C 	0.96421 0.21321 0.82419 0.05600
H 	H 	0.98650 0.19390 0.82430 -0.00100
C 	C 	0.93426 0.21018 0.85480 -0.09500
H 	H 	0.93630 0.18950 0.87570 0.06500
C 	C 	0.90110 0.23764 0.85484 0.00500
H 	H 	0.88000 0.23580 0.87540 0.03900
C 	C 	0.89991 0.26817 0.82357 -0.04800
C 	C 	0.93149 0.26913 0.79435 0.03800
H 	H 	0.93070 0.28990 0.77330 0.01400
C 	C 	0.86661 0.29905 0.82259 0.13200
N 	N 	0.83565 0.29335 0.84845 -0.14700
C 	C 	0.80577 0.32341 0.84545 0.13200
N 	N 	0.80522 0.35526 0.82102 -0.15200
C 	C 	0.83761 0.35805 0.79719 0.13200
N 	N 	0.86909 0.33039 0.79659 -0.14900
C 	C 	0.83873 0.39373 0.77041 -0.04900
C 	C 	0.87078 0.40000 0.74510 0.00800
H 	H 	0.89340 0.38120 0.74440 0.03900
C 	C 	0.86872 0.43450 0.72092 -0.09800
H 	H 	0.89000 0.43960 0.70300 0.06700
C 	C 	0.83558 0.46178 0.72280 0.06000
H 	H 	0.83470 0.48530 0.70590 0.00300
N 	N 	0.80489 0.45599 0.74769 -0.22500
N 	N 	0.70293 0.54421 0.75913 -0.22800
C 	C 	0.70287 0.57093 0.76457 0.05500
H 	H 	0.72500 0.57000 0.76300 0.00200
C 	C 	0.67230 0.59932 0.77236 -0.09800
H 	H 	0.67370 0.61770 0.77550 0.06600
C 	C 	0.63985 0.60103 0.77561 0.00900
H 	H 	0.61860 0.62060 0.78100 0.03800
C 	C 	0.80667 0.42257 0.77107 0.03800
H 	H 	0.78500 0.41840 0.78900 0.01200
C 	C 	0.63840 0.57376 0.77088 -0.05300
C 	C 	0.67099 0.54647 0.76207 0.04100
H 	H 	0.67050 0.52830 0.75790 0.01300
C 	C 	0.60478 0.57502 0.77262 0.13600
N 	N 	0.57764 0.60528 0.77208 -0.15200
N 	N 	0.53349 0.01143 0.26055 -0.25700
N 	N 	0.53538 0.77850 0.46398 -0.26300
C 	C 	0.53931 0.02001 0.27713 0.09300
C 	C 	0.55803 0.79113 0.44539 0.10100
S 	S 	0.54591 0.03079 0.30209 -0.06200
S 	S 	0.58955 0.80993 0.41909 -0.06000
N 	N 	0.53283 0.93583 0.28981 -0.22300
C 	C 	0.52777 0.90739 0.29321 0.03200
H 	H 	0.51850 0.91030 0.27690 0.01400
C 	C 	0.53557 0.87391 0.31941 -0.04600
C 	C 	0.54917 0.86927 0.34317 0.00600
H 	H 	0.55340 0.84700 0.36220 0.03800
C 	C 	0.55664 0.89726 0.33888 -0.09700
H 	H 	0.56750 0.89430 0.35390 0.06500
C 	C 	0.54810 0.92998 0.31212 0.05700
H 	H 	0.55330 0.94930 0.30930 0.00300
N 	N 	0.50033 0.79427 0.24231 -0.22500
C 	C 	0.49839 0.82419 0.21321 0.05600
H 	H 	0.49530 0.82430 0.19390 -0.00100
C 	C 	0.50076 0.85480 0.21018 -0.09500
H 	H 	0.49850 0.87570 0.18950 0.06500
C 	C 	0.50642 0.85484 0.23764 0.00500
H 	H 	0.50880 0.87540 0.23580 0.03900
C 	C 	0.50835 0.82357 0.26817 -0.04800
C 	C 	0.50503 0.79435 0.26913 0.03800
H 	H 	0.50610 0.77330 0.28990 0.01400
C 	C 	0.51175 0.82259 0.29905 0.13200
N 	N 	0.52255 0.84845 0.29335 -0.14700
C 	C 	0.52537 0.84545 0.32341 0.13200
N 	N 	0.51850 0.82102 0.35526 -0.15200
C 	C 	0.50715 0.79719 0.35805 0.13200
N 	N 	0.50393 0.79659 0.33039 -0.14900
C 	C 	0.49713 0.77041 0.39373 -0.04900
C 	C 	0.48412 0.74510 0.40000 0.00800
H 	H 	0.48100 0.74440 0.38120 0.03900
C 	C 	0.47586 0.72092 0.43450 -0.09800
H 	H 	0.46740 0.70300 0.43960 0.06700
C 	C 	0.47984 0.72280 0.46178 0.06000
H 	H 	0.47410 0.70590 0.48530 0.00300
N 	N 	0.49143 0.74769 0.45599 -0.22500
N 	N 	0.49373 0.75913 0.54421 -0.22800
C 	C 	0.46163 0.76457 0.57093 0.05500
H 	H 	0.44200 0.76300 0.57000 0.00200
C 	C 	0.45602 0.77236 0.59932 -0.09800
H 	H 	0.43310 0.77550 0.61770 0.06600
C 	C 	0.48351 0.77561 0.60103 0.00900
H 	H 	0.47980 0.78100 0.62060 0.03800
C 	C 	0.49969 0.77107 0.42257 0.03800
H 	H 	0.50760 0.78900 0.41840 0.01200
C 	C 	0.51696 0.77088 0.57376 -0.05300
C 	C 	0.52047 0.76207 0.54647 0.04100
H 	H 	0.54330 0.75790 0.52830 0.01300
C 	C 	0.54758 0.77262 0.57502 0.13600
N 	N 	0.54500 0.77208 0.60528 -0.15200
N 	N 	0.53349 0.26055 0.69453 -0.25700
N 	N 	0.53538 0.46398 0.72214 -0.26300
C 	C 	0.53931 0.27713 0.66355 0.09300
C 	C 	0.55803 0.44539 0.70545 0.10100
S 	S 	0.54591 0.30209 0.62121 -0.06200
S 	S 	0.58955 0.41909 0.68143 -0.06000
N 	N 	0.53283 0.28981 0.74153 -0.22300
C 	C 	0.52777 0.29321 0.77163 0.03200
H 	H 	0.51850 0.27690 0.79430 0.01400
C 	C 	0.53557 0.31941 0.77111 -0.04600
C 	C 	0.54917 0.34317 0.73839 0.00600
H 	H 	0.55340 0.36220 0.73740 0.03800
C 	C 	0.55664 0.33888 0.70722 -0.09700
H 	H 	0.56750 0.35390 0.68430 0.06500
C 	C 	0.54810 0.31212 0.70980 0.05700
H 	H 	0.55330 0.30930 0.68810 0.00300
N 	N 	0.50033 0.24231 0.96309 -0.22500
C 	C 	0.49839 0.21321 0.96421 0.05600
H 	H 	0.49530 0.19390 0.98650 -0.00100
C 	C 	0.50076 0.21018 0.93426 -0.09500
H 	H 	0.49850 0.18950 0.93630 0.06500
C 	C 	0.50642 0.23764 0.90110 0.00500
H 	H 	0.50880 0.23580 0.88000 0.03900
C 	C 	0.50835 0.26817 0.89991 -0.04800
C 	C 	0.50503 0.26913 0.93149 0.03800
H 	H 	0.50610 0.28990 0.93070 0.01400
C 	C 	0.51175 0.29905 0.86661 0.13200
N 	N 	0.52255 0.29335 0.83565 -0.14700
C 	C 	0.52537 0.32341 0.80577 0.13200
N 	N 	0.51850 0.35526 0.80522 -0.15200
C 	C 	0.50715 0.35805 0.83761 0.13200
N 	N 	0.50393 0.33039 0.86909 -0.14900
C 	C 	0.49713 0.39373 0.83873 -0.04900
C 	C 	0.48412 0.40000 0.87078 0.00800
H 	H 	0.48100 0.38120 0.89340 0.03900
C 	C 	0.47586 0.43450 0.86872 -0.09800
H 	H 	0.46740 0.43960 0.89000 0.06700
C 	C 	0.47984 0.46178 0.83558 0.06000
H 	H 	0.47410 0.48530 0.83470 0.00300
N 	N 	0.49143 0.45599 0.80489 -0.22500
N 	N 	0.49373 0.54421 0.70293 -0.22800
C 	C 	0.46163 0.57093 0.70287 0.05500
H 	H 	0.44200 0.57000 0.72500 0.00200
C 	C 	0.45602 0.59932 0.67230 -0.09800
H 	H 	0.43310 0.61770 0.67370 0.06600
C 	C 	0.48351 0.60103 0.63985 0.00900
H 	H 	0.47980 0.62060 0.61860 0.03800
C 	C 	0.49969 0.42257 0.80667 0.03800
H 	H 	0.50760 0.41840 0.78500 0.01200
C 	C 	0.51696 0.57376 0.63840 -0.05300
C 	C 	0.52047 0.54647 0.67099 0.04100
H 	H 	0.54330 0.52830 0.67050 0.01300
C 	C 	0.54758 0.57502 0.60478 0.13600
N 	N 	0.54500 0.60528 0.57764 -0.15200
N 	N 	0.69453 0.01143 0.53349 -0.25700
N 	N 	0.72214 0.77850 0.53538 -0.26300
C 	C 	0.66355 0.02001 0.53931 0.09300
C 	C 	0.70545 0.79113 0.55803 0.10100
S 	S 	0.62121 0.03079 0.54591 -0.06200
S 	S 	0.68143 0.80993 0.58955 -0.06000
N 	N 	0.74153 0.93583 0.53283 -0.22300
C 	C 	0.77163 0.90739 0.52777 0.03200
H 	H 	0.79430 0.91030 0.51850 0.01400
C 	C 	0.77111 0.87391 0.53557 -0.04600
C 	C 	0.73839 0.86927 0.54917 0.00600
H 	H 	0.73740 0.84700 0.55340 0.03800
C 	C 	0.70722 0.89726 0.55664 -0.09700
H 	H 	0.68430 0.89430 0.56750 0.06500
C 	C 	0.70980 0.92998 0.54810 0.05700
H 	H 	0.68810 0.94930 0.55330 0.00300
N 	N 	0.96309 0.79427 0.50033 -0.22500
C 	C 	0.96421 0.82419 0.49839 0.05600
H 	H 	0.98650 0.82430 0.49530 -0.00100
C 	C 	0.93426 0.85480 0.50076 -0.09500
H 	H 	0.93630 0.87570 0.49850 0.06500
C 	C 	0.90110 0.85484 0.50642 0.00500
H 	H 	0.88000 0.87540 0.50880 0.03900
C 	C 	0.89991 0.82357 0.50835 -0.04800
C 	C 	0.93149 0.79435 0.50503 0.03800
H 	H 	0.93070 0.77330 0.50610 0.01400
C 	C 	0.86661 0.82259 0.51175 0.13200
N 	N 	0.83565 0.84845 0.52255 -0.14700
C 	C 	0.80577 0.84545 0.52537 0.13200
N 	N 	0.80522 0.82102 0.51850 -0.15200
C 	C 	0.83761 0.79719 0.50715 0.13200
N 	N 	0.86909 0.79659 0.50393 -0.14900
C 	C 	0.83873 0.77041 0.49713 -0.04900
C 	C 	0.87078 0.74510 0.48412 0.00800
H 	H 	0.89340 0.74440 0.48100 0.03900
C 	C 	0.86872 0.72092 0.47586 -0.09800
H 	H 	0.89000 0.70300 0.46740 0.06700
C 	C 	0.83558 0.72280 0.47984 0.06000
H 	H 	0.83470 0.70590 0.47410 0.00300
N 	N 	0.80489 0.74769 0.49143 -0.22500
N 	N 	0.70293 0.75913 0.49373 -0.22800
C 	C 	0.70287 0.76457 0.46163 0.05500
H 	H 	0.72500 0.76300 0.44200 0.00200
C 	C 	0.67230 0.77236 0.45602 -0.09800
H 	H 	0.67370 0.77550 0.43310 0.06600
C 	C 	0.63985 0.77561 0.48351 0.00900
H 	H 	0.61860 0.78100 0.47980 0.03800
C 	C 	0.80667 0.77107 0.49969 0.03800
H 	H 	0.78500 0.78900 0.50760 0.01200
C 	C 	0.63840 0.77088 0.51696 -0.05300
C 	C 	0.67099 0.76207 0.52047 0.04100
H 	H 	0.67050 0.75790 0.54330 0.01300
C 	C 	0.60478 0.77262 0.54758 0.13600
N 	N 	0.57764 0.77208 0.54500 -0.15200
N 	N 	0.01143 0.69453 0.26055 -0.25700
N 	N 	0.77850 0.72214 0.46398 -0.26300
C 	C 	0.02001 0.66355 0.27713 0.09300
C 	C 	0.79113 0.70545 0.44539 0.10100
S 	S 	0.03079 0.62121 0.30209 -0.06200
S 	S 	0.80993 0.68143 0.41909 -0.06000
N 	N 	0.93583 0.74153 0.28981 -0.22300
C 	C 	0.90739 0.77163 0.29321 0.03200
H 	H 	0.91030 0.79430 0.27690 0.01400
C 	C 	0.87391 0.77111 0.31941 -0.04600
C 	C 	0.86927 0.73839 0.34317 0.00600
H 	H 	0.84700 0.73740 0.36220 0.03800
C 	C 	0.89726 0.70722 0.33888 -0.09700
H 	H 	0.89430 0.68430 0.35390 0.06500
C 	C 	0.92998 0.70980 0.31212 0.05700
H 	H 	0.94930 0.68810 0.30930 0.00300
N 	N 	0.79427 0.96309 0.24231 -0.22500
C 	C 	0.82419 0.96421 0.21321 0.05600
H 	H 	0.82430 0.98650 0.19390 -0.00100
C 	C 	0.85480 0.93426 0.21018 -0.09500
H 	H 	0.87570 0.93630 0.18950 0.06500
C 	C 	0.85484 0.90110 0.23764 0.00500
H 	H 	0.87540 0.88000 0.23580 0.03900
C 	C 	0.82357 0.89991 0.26817 -0.04800
C 	C 	0.79435 0.93149 0.26913 0.03800
H 	H 	0.77330 0.93070 0.28990 0.01400
C 	C 	0.82259 0.86661 0.29905 0.13200
N 	N 	0.84845 0.83565 0.29335 -0.14700
C 	C 	0.84545 0.80577 0.32341 0.13200
N 	N 	0.82102 0.80522 0.35526 -0.15200
C 	C 	0.79719 0.83761 0.35805 0.13200
N 	N 	0.79659 0.86909 0.33039 -0.14900
C 	C 	0.77041 0.83873 0.39373 -0.04900
C 	C 	0.74510 0.87078 0.40000 0.00800
H 	H 	0.74440 0.89340 0.38120 0.03900
C 	C 	0.72092 0.86872 0.43450 -0.09800
H 	H 	0.70300 0.89000 0.43960 0.06700
C 	C 	0.72280 0.83558 0.46178 0.06000
H 	H 	0.70590 0.83470 0.48530 0.00300
N 	N 	0.74769 0.80489 0.45599 -0.22500
N 	N 	0.75913 0.70293 0.54421 -0.22800
C 	C 	0.76457 0.70287 0.57093 0.05500
H 	H 	0.76300 0.72500 0.57000 0.00200
C 	C 	0.77236 0.67230 0.59932 -0.09800
H 	H 	0.77550 0.67370 0.61770 0.06600
C 	C 	0.77561 0.63985 0.60103 0.00900
H 	H 	0.78100 0.61860 0.62060 0.03800
C 	C 	0.77107 0.80667 0.42257 0.03800
H 	H 	0.78900 0.78500 0.41840 0.01200
C 	C 	0.77088 0.63840 0.57376 -0.05300
C 	C 	0.76207 0.67099 0.54647 0.04100
H 	H 	0.75790 0.67050 0.52830 0.01300
C 	C 	0.77262 0.60478 0.57502 0.13600
N 	N 	0.77208 0.57764 0.60528 -0.15200
N 	N 	0.26055 0.53349 0.01143 -0.25700
N 	N 	0.46398 0.53538 0.77850 -0.26300
C 	C 	0.27713 0.53931 0.02001 0.09300
C 	C 	0.44539 0.55803 0.79113 0.10100
S 	S 	0.30209 0.54591 0.03079 -0.06200
S 	S 	0.41909 0.58955 0.80993 -0.06000
N 	N 	0.28981 0.53283 0.93583 -0.22300
C 	C 	0.29321 0.52777 0.90739 0.03200
H 	H 	0.27690 0.51850 0.91030 0.01400
C 	C 	0.31941 0.53557 0.87391 -0.04600
C 	C 	0.34317 0.54917 0.86927 0.00600
H 	H 	0.36220 0.55340 0.84700 0.03800
C 	C 	0.33888 0.55664 0.89726 -0.09700
H 	H 	0.35390 0.56750 0.89430 0.06500
C 	C 	0.31212 0.54810 0.92998 0.05700
H 	H 	0.30930 0.55330 0.94930 0.00300
N 	N 	0.24231 0.50033 0.79427 -0.22500
C 	C 	0.21321 0.49839 0.82419 0.05600
H 	H 	0.19390 0.49530 0.82430 -0.00100
C 	C 	0.21018 0.50076 0.85480 -0.09500
H 	H 	0.18950 0.49850 0.87570 0.06500
C 	C 	0.23764 0.50642 0.85484 0.00500
H 	H 	0.23580 0.50880 0.87540 0.03900
C 	C 	0.26817 0.50835 0.82357 -0.04800
C 	C 	0.26913 0.50503 0.79435 0.03800
H 	H 	0.28990 0.50610 0.77330 0.01400
C 	C 	0.29905 0.51175 0.82259 0.13200
N 	N 	0.29335 0.52255 0.84845 -0.14700
C 	C 	0.32341 0.52537 0.84545 0.13200
N 	N 	0.35526 0.51850 0.82102 -0.15200
C 	C 	0.35805 0.50715 0.79719 0.13200
N 	N 	0.33039 0.50393 0.79659 -0.14900
C 	C 	0.39373 0.49713 0.77041 -0.04900
C 	C 	0.40000 0.48412 0.74510 0.00800
H 	H 	0.38120 0.48100 0.74440 0.03900
C 	C 	0.43450 0.47586 0.72092 -0.09800
H 	H 	0.43960 0.46740 0.70300 0.06700
C 	C 	0.46178 0.47984 0.72280 0.06000
H 	H 	0.48530 0.47410 0.70590 0.00300
N 	N 	0.45599 0.49143 0.74769 -0.22500
N 	N 	0.54421 0.49373 0.75913 -0.22800
C 	C 	0.57093 0.46163 0.76457 0.05500
H 	H 	0.57000 0.44200 0.76300 0.00200
C 	C 	0.59932 0.45602 0.77236 -0.09800
H 	H 	0.61770 0.43310 0.77550 0.06600
C 	C 	0.60103 0.48351 0.77561 0.00900
H 	H 	0.62060 0.47980 0.78100 0.03800
C 	C 	0.42257 0.49969 0.77107 0.03800
H 	H 	0.41840 0.50760 0.78900 0.01200
C 	C 	0.57376 0.51696 0.77088 -0.05300
C 	C 	0.54647 0.52047 0.76207 0.04100
H 	H 	0.52830 0.54330 0.75790 0.01300
C 	C 	0.57502 0.54758 0.77262 0.13600
N 	N 	0.60528 0.54500 0.77208 -0.15200
N 	N 	0.80547 0.96651 0.48857 -0.25700
N 	N 	0.77786 0.96462 0.72150 -0.26300
C 	C 	0.83645 0.96069 0.47999 0.09300
C 	C 	0.79455 0.94197 0.70887 0.10100
S 	S 	0.87879 0.95409 0.46921 -0.06200
S 	S 	0.81857 0.91045 0.69007 -0.06000
N 	N 	0.75847 0.96717 0.56417 -0.22300
C 	C 	0.72837 0.97223 0.59261 0.03200
H 	H 	0.70570 0.98150 0.58970 0.01400
C 	C 	0.72889 0.96443 0.62609 -0.04600
C 	C 	0.76161 0.95083 0.63073 0.00600
H 	H 	0.76260 0.94660 0.65300 0.03800
C 	C 	0.79278 0.94336 0.60274 -0.09700
H 	H 	0.81570 0.93250 0.60570 0.06500
C 	C 	0.79020 0.95190 0.57002 0.05700
H 	H 	0.81190 0.94670 0.55070 0.00300
N 	N 	0.53691 0.99967 0.70573 -0.22500
C 	C 	0.53579 0.00161 0.67581 0.05600
H 	H 	0.51350 0.00470 0.67570 -0.00100
C 	C 	0.56574 0.99924 0.64520 -0.09500
H 	H 	0.56370 0.00150 0.62430 0.06500
C 	C 	0.59890 0.99358 0.64516 0.00500
H 	H 	0.62000 0.99120 0.62460 0.03900
C 	C 	0.60009 0.99165 0.67643 -0.04800
C 	C 	0.56851 0.99497 0.70565 0.03800
H 	H 	0.56930 0.99390 0.72670 0.01400
C 	C 	0.63339 0.98825 0.67741 0.13200
N 	N 	0.66435 0.97745 0.65155 -0.14700
C 	C 	0.69423 0.97463 0.65455 0.13300
N 	N 	0.69478 0.98150 0.67898 -0.15200
C 	C 	0.66239 0.99285 0.70281 0.13200
N 	N 	0.63091 0.99607 0.70341 -0.14900
C 	C 	0.66127 0.00287 0.72959 -0.04900
C 	C 	0.62922 0.01588 0.75490 0.00800
H 	H 	0.60660 0.01900 0.75560 0.03900
C 	C 	0.63128 0.02414 0.77908 -0.09700
H 	H 	0.61000 0.03260 0.79700 0.06700
C 	C 	0.66442 0.02016 0.77720 0.06000
H 	H 	0.66530 0.02590 0.79410 0.00300
N 	N 	0.69511 0.00857 0.75231 -0.22500
N 	N 	0.79707 0.00627 0.74087 -0.22800
C 	C 	0.79713 0.03837 0.73543 0.05500
H 	H 	0.77500 0.05800 0.73700 0.00200
C 	C 	0.82770 0.04398 0.72764 -0.09800
H 	H 	0.82630 0.06690 0.72450 0.06600
C 	C 	0.86015 0.01649 0.72439 0.00900
H 	H 	0.88140 0.02020 0.71900 0.03800
C 	C 	0.69333 0.00031 0.72893 0.03800
H 	H 	0.71500 0.99240 0.71100 0.01200
C 	C 	0.86160 0.98304 0.72912 -0.05300
C 	C 	0.82901 0.97953 0.73793 0.04100
H 	H 	0.82950 0.95670 0.74210 0.01300
C 	C 	0.89522 0.95242 0.72738 0.13600
N 	N 	0.92236 0.95500 0.72792 -0.15200
N 	N 	0.96651 0.80547 0.23945 -0.25700
N 	N 	0.96462 0.77786 0.03602 -0.26300
C 	C 	0.96069 0.83645 0.22287 0.09300
C 	C 	0.94197 0.79455 0.05461 0.10100
S 	S 	0.95409 0.87879 0.19791 -0.06200
S 	S 	0.91045 0.81857 0.08091 -0.06000
N 	N 	0.96717 0.75847 0.21019 -0.22300
C 	C 	0.97223 0.72837 0.20679 0.03200
H 	H 	0.98150 0.70570 0.22310 0.01400
C 	C 	0.96443 0.72889 0.18059 -0.04600
C 	C 	0.95083 0.76161 0.15683 0.00600
H 	H 	0.94660 0.76260 0.13780 0.03800
C 	C 	0.94336 0.79278 0.16112 -0.09700
H 	H 	0.93250 0.81570 0.14610 0.06500
C 	C 	0.95190 0.79020 0.18788 0.05700
H 	H 	0.94670 0.81190 0.19070 0.00300
N 	N 	0.99967 0.53691 0.25769 -0.22500
C 	C 	0.00161 0.53579 0.28679 0.05600
H 	H 	0.00470 0.51350 0.30610 -0.00100
C 	C 	0.99924 0.56574 0.28982 -0.09500
H 	H 	0.00150 0.56370 0.31050 0.06500
C 	C 	0.99358 0.59890 0.26236 0.00500
H 	H 	0.99120 0.62000 0.26420 0.03900
C 	C 	0.99165 0.60009 0.23183 -0.04800
C 	C 	0.99497 0.56851 0.23087 0.03800
H 	H 	0.99390 0.56930 0.21010 0.01400
C 	C 	0.98825 0.63339 0.20095 0.13200
N 	N 	0.97745 0.66435 0.20665 -0.14700
C 	C 	0.97463 0.69423 0.17659 0.13300
N 	N 	0.98150 0.69478 0.14474 -0.15200
C 	C 	0.99285 0.66239 0.14195 0.13200
N 	N 	0.99607 0.63091 0.16961 -0.14900
C 	C 	0.00287 0.66127 0.10627 -0.04900
C 	C 	0.01588 0.62922 0.10000 0.00800
H 	H 	0.01900 0.60660 0.11880 0.03900
C 	C 	0.02414 0.63128 0.06550 -0.09700
H 	H 	0.03260 0.61000 0.06040 0.06700
C 	C 	0.02016 0.66442 0.03822 0.06000
H 	H 	0.02590 0.66530 0.01470 0.00300
N 	N 	0.00857 0.69511 0.04401 -0.22500
N 	N 	0.00627 0.79707 0.95579 -0.22800
C 	C 	0.03837 0.79713 0.92907 0.05500
H 	H 	0.05800 0.77500 0.93000 0.00200
C 	C 	0.04398 0.82770 0.90068 -0.09800
H 	H 	0.06690 0.82630 0.88230 0.06600
C 	C 	0.01649 0.86015 0.89897 0.00900
H 	H 	0.02020 0.88140 0.87940 0.03800
C 	C 	0.00031 0.69333 0.07743 0.03800
H 	H 	0.99240 0.71500 0.08160 0.01200
C 	C 	0.98304 0.86160 0.92624 -0.05300
C 	C 	0.97953 0.82901 0.95353 0.04100
H 	H 	0.95670 0.82950 0.97170 0.01300
C 	C 	0.95242 0.89522 0.92498 0.13600
N 	N 	0.95500 0.92236 0.89472 -0.15200
N 	N 	0.23945 0.48857 0.96651 -0.25700
N 	N 	0.03602 0.72150 0.96462 -0.26300
C 	C 	0.22287 0.47999 0.96069 0.09300
C 	C 	0.05461 0.70887 0.94197 0.10100
S 	S 	0.19791 0.46921 0.95409 -0.06200
S 	S 	0.08091 0.69007 0.91045 -0.06000
N 	N 	0.21019 0.56417 0.96717 -0.22300
C 	C 	0.20679 0.59261 0.97223 0.03200
H 	H 	0.22310 0.58970 0.98150 0.01400
C 	C 	0.18059 0.62609 0.96443 -0.04600
C 	C 	0.15683 0.63073 0.95083 0.00600
H 	H 	0.13780 0.65300 0.94660 0.03800
C 	C 	0.16112 0.60274 0.94336 -0.09700
H 	H 	0.14610 0.60570 0.93250 0.06500
C 	C 	0.18788 0.57002 0.95190 0.05700
H 	H 	0.19070 0.55070 0.94670 0.00300
N 	N 	0.25769 0.70573 0.99967 -0.22500
C 	C 	0.28679 0.67581 0.00161 0.05600
H 	H 	0.30610 0.67570 0.00470 -0.00100
C 	C 	0.28982 0.64520 0.99924 -0.09500
H 	H 	0.31050 0.62430 0.00150 0.06500
C 	C 	0.26236 0.64516 0.99358 0.00500
H 	H 	0.26420 0.62460 0.99120 0.03900
C 	C 	0.23183 0.67643 0.99165 -0.04800
C 	C 	0.23087 0.70565 0.99497 0.03800
H 	H 	0.21010 0.72670 0.99390 0.01400
C 	C 	0.20095 0.67741 0.98825 0.13200
N 	N 	0.20665 0.65155 0.97745 -0.14700
C 	C 	0.17659 0.65455 0.97463 0.13300
N 	N 	0.14474 0.67898 0.98150 -0.15200
C 	C 	0.14195 0.70281 0.99285 0.13200
N 	N 	0.16961 0.70341 0.99607 -0.14900
C 	C 	0.10627 0.72959 0.00287 -0.04900
C 	C 	0.10000 0.75490 0.01588 0.00800
H 	H 	0.11880 0.75560 0.01900 0.03900
C 	C 	0.06550 0.77908 0.02414 -0.09700
H 	H 	0.06040 0.79700 0.03260 0.06700
C 	C 	0.03822 0.77720 0.02016 0.06000
H 	H 	0.01470 0.79410 0.02590 0.00300
N 	N 	0.04401 0.75231 0.00857 -0.22500
N 	N 	0.95579 0.74087 0.00627 -0.22800
C 	C 	0.92907 0.73543 0.03837 0.05500
H 	H 	0.93000 0.73700 0.05800 0.00200
C 	C 	0.90068 0.72764 0.04398 -0.09800
H 	H 	0.88230 0.72450 0.06690 0.06600
C 	C 	0.89897 0.72439 0.01649 0.00900
H 	H 	0.87940 0.71900 0.02020 0.03800
C 	C 	0.07743 0.72893 0.00031 0.03800
H 	H 	0.08160 0.71100 0.99240 0.01200
C 	C 	0.92624 0.72912 0.98304 -0.05300
C 	C 	0.95353 0.73793 0.97953 0.04100
H 	H 	0.97170 0.74210 0.95670 0.01300
C 	C 	0.92498 0.72738 0.95242 0.13600
N 	N 	0.89472 0.72792 0.95500 -0.15200
N 	N 	0.48857 0.23945 0.80547 -0.25700
N 	N 	0.72150 0.03602 0.77786 -0.26300
C 	C 	0.47999 0.22287 0.83645 0.09300
C 	C 	0.70887 0.05461 0.79455 0.10100
S 	S 	0.46921 0.19791 0.87879 -0.06200
S 	S 	0.69007 0.08091 0.81857 -0.06000
N 	N 	0.56417 0.21019 0.75847 -0.22300
C 	C 	0.59261 0.20679 0.72837 0.03200
H 	H 	0.58970 0.22310 0.70570 0.01400
C 	C 	0.62609 0.18059 0.72889 -0.04600
C 	C 	0.63073 0.15683 0.76161 0.00600
H 	H 	0.65300 0.13780 0.76260 0.03800
C 	C 	0.60274 0.16112 0.79278 -0.09700
H 	H 	0.60570 0.14610 0.81570 0.06500
C 	C 	0.57002 0.18788 0.79020 0.05700
H 	H 	0.55070 0.19070 0.81190 0.00300
N 	N 	0.70573 0.25769 0.53691 -0.22500
C 	C 	0.67581 0.28679 0.53579 0.05600
H 	H 	0.67570 0.30610 0.51350 -0.00100
C 	C 	0.64520 0.28982 0.56574 -0.09500
H 	H 	0.62430 0.31050 0.56370 0.06500
C 	C 	0.64516 0.26236 0.59890 0.00500
H 	H 	0.62460 0.26420 0.62000 0.03900
C 	C 	0.67643 0.23183 0.60009 -0.04800
C 	C 	0.70565 0.23087 0.56851 0.03800
H 	H 	0.72670 0.21010 0.56930 0.01400
C 	C 	0.67741 0.20095 0.63339 0.13200
N 	N 	0.65155 0.20665 0.66435 -0.14700
C 	C 	0.65455 0.17659 0.69423 0.13200
N 	N 	0.67898 0.14474 0.69478 -0.15200
C 	C 	0.70281 0.14195 0.66239 0.13200
N 	N 	0.70341 0.16961 0.63091 -0.14900
C 	C 	0.72959 0.10627 0.66127 -0.04900
C 	C 	0.75490 0.10000 0.62922 0.00800
H 	H 	0.75560 0.11880 0.60660 0.03900
C 	C 	0.77908 0.06550 0.63128 -0.09700
H 	H 	0.79700 0.06040 0.61000 0.06700
C 	C 	0.77720 0.03822 0.66442 0.06000
H 	H 	0.79410 0.01470 0.66530 0.00300
N 	N 	0.75231 0.04401 0.69511 -0.22500
N 	N 	0.74087 0.95579 0.79707 -0.22800
C 	C 	0.73543 0.92907 0.79713 0.05500
H 	H 	0.73700 0.93000 0.77500 0.00200
C 	C 	0.72764 0.90068 0.82770 -0.09800
H 	H 	0.72450 0.88230 0.82630 0.06600
C 	C 	0.72439 0.89897 0.86015 0.00900
H 	H 	0.71900 0.87940 0.88140 0.03800
C 	C 	0.72893 0.07743 0.69333 0.03800
H 	H 	0.71100 0.08160 0.71500 0.01200
C 	C 	0.72912 0.92624 0.86160 -0.05300
C 	C 	0.73793 0.95353 0.82901 0.04100
H 	H 	0.74210 0.97170 0.82950 0.01300
C 	C 	0.72738 0.92498 0.89522 0.13600
N 	N 	0.72792 0.89472 0.92236 -0.15200
N 	N 	0.23945 0.80547 0.48857 -0.25700
N 	N 	0.03602 0.77786 0.72150 -0.26300
C 	C 	0.22287 0.83645 0.47999 0.09300
C 	C 	0.05461 0.79455 0.70887 0.10100
S 	S 	0.19791 0.87879 0.46921 -0.06200
S 	S 	0.08091 0.81857 0.69007 -0.06000
N 	N 	0.21019 0.75847 0.56417 -0.22300
C 	C 	0.20679 0.72837 0.59261 0.03200
H 	H 	0.22310 0.70570 0.58970 0.01400
C 	C 	0.18059 0.72889 0.62609 -0.04600
C 	C 	0.15683 0.76161 0.63073 0.00600
H 	H 	0.13780 0.76260 0.65300 0.03800
C 	C 	0.16112 0.79278 0.60274 -0.09700
H 	H 	0.14610 0.81570 0.60570 0.06500
C 	C 	0.18788 0.79020 0.57002 0.05700
H 	H 	0.19070 0.81190 0.55070 0.00300
N 	N 	0.25769 0.53691 0.70573 -0.22500
C 	C 	0.28679 0.53579 0.67581 0.05600
H 	H 	0.30610 0.51350 0.67570 -0.00100
C 	C 	0.28982 0.56574 0.64520 -0.09500
H 	H 	0.31050 0.56370 0.62430 0.06500
C 	C 	0.26236 0.59890 0.64516 0.00500
H 	H 	0.26420 0.62000 0.62460 0.03900
C 	C 	0.23183 0.60009 0.67643 -0.04800
C 	C 	0.23087 0.56851 0.70565 0.03800
H 	H 	0.21010 0.56930 0.72670 0.01400
C 	C 	0.20095 0.63339 0.67741 0.13200
N 	N 	0.20665 0.66435 0.65155 -0.14700
C 	C 	0.17659 0.69423 0.65455 0.13200
N 	N 	0.14474 0.69478 0.67898 -0.15200
C 	C 	0.14195 0.66239 0.70281 0.13200
N 	N 	0.16961 0.63091 0.70341 -0.14900
C 	C 	0.10627 0.66127 0.72959 -0.04900
C 	C 	0.10000 0.62922 0.75490 0.00800
H 	H 	0.11880 0.60660 0.75560 0.03900
C 	C 	0.06550 0.63128 0.77908 -0.09700
H 	H 	0.06040 0.61000 0.79700 0.06700
C 	C 	0.03822 0.66442 0.77720 0.06000
H 	H 	0.01470 0.66530 0.79410 0.00300
N 	N 	0.04401 0.69511 0.75231 -0.22500
N 	N 	0.95579 0.79707 0.74087 -0.22800
C 	C 	0.92907 0.79713 0.73543 0.05500
H 	H 	0.93000 0.77500 0.73700 0.00200
C 	C 	0.90068 0.82770 0.72764 -0.09800
H 	H 	0.88230 0.82630 0.72450 0.06600
C 	C 	0.89897 0.86015 0.72439 0.00900
H 	H 	0.87940 0.88140 0.71900 0.03800
C 	C 	0.07743 0.69333 0.72893 0.03800
H 	H 	0.08160 0.71500 0.71100 0.01200
C 	C 	0.92624 0.86160 0.72912 -0.05300
C 	C 	0.95353 0.82901 0.73793 0.04100
H 	H 	0.97170 0.82950 0.74210 0.01300
C 	C 	0.92498 0.89522 0.72738 0.13600
N 	N 	0.89472 0.92236 0.72792 -0.15200
N 	N 	0.48857 0.96651 0.23945 -0.25700
N 	N 	0.72150 0.96462 0.03602 -0.26300
C 	C 	0.47999 0.96069 0.22287 0.09300
C 	C 	0.70887 0.94197 0.05461 0.10100
S 	S 	0.46921 0.95409 0.19791 -0.06200
S 	S 	0.69007 0.91045 0.08091 -0.06000
N 	N 	0.56417 0.96717 0.21019 -0.22300
C 	C 	0.59261 0.97223 0.20679 0.03200
H 	H 	0.58970 0.98150 0.22310 0.01400
C 	C 	0.62609 0.96443 0.18059 -0.04600
C 	C 	0.63073 0.95083 0.15683 0.00600
H 	H 	0.65300 0.94660 0.13780 0.03800
C 	C 	0.60274 0.94336 0.16112 -0.09700
H 	H 	0.60570 0.93250 0.14610 0.06500
C 	C 	0.57002 0.95190 0.18788 0.05700
H 	H 	0.55070 0.94670 0.19070 0.00300
N 	N 	0.70573 0.99967 0.25769 -0.22500
C 	C 	0.67581 0.00161 0.28679 0.05600
H 	H 	0.67570 0.00470 0.30610 -0.00100
C 	C 	0.64520 0.99924 0.28982 -0.09500
H 	H 	0.62430 0.00150 0.31050 0.06500
C 	C 	0.64516 0.99358 0.26236 0.00500
H 	H 	0.62460 0.99120 0.26420 0.03900
C 	C 	0.67643 0.99165 0.23183 -0.04800
C 	C 	0.70565 0.99497 0.23087 0.03800
H 	H 	0.72670 0.99390 0.21010 0.01400
C 	C 	0.67741 0.98825 0.20095 0.13200
N 	N 	0.65155 0.97745 0.20665 -0.14700
C 	C 	0.65455 0.97463 0.17659 0.13300
N 	N 	0.67898 0.98150 0.14474 -0.15200
C 	C 	0.70281 0.99285 0.14195 0.13200
N 	N 	0.70341 0.99607 0.16961 -0.14900
C 	C 	0.72959 0.00287 0.10627 -0.04900
C 	C 	0.75490 0.01588 0.10000 0.00800
H 	H 	0.75560 0.01900 0.11880 0.03900
C 	C 	0.77908 0.02414 0.06550 -0.09700
H 	H 	0.79700 0.03260 0.06040 0.06700
C 	C 	0.77720 0.02016 0.03822 0.06000
H 	H 	0.79410 0.02590 0.01470 0.00300
N 	N 	0.75231 0.00857 0.04401 -0.22500
N 	N 	0.74087 0.00627 0.95579 -0.22800
C 	C 	0.73543 0.03837 0.92907 0.05500
H 	H 	0.73700 0.05800 0.93000 0.00200
C 	C 	0.72764 0.04398 0.90068 -0.09800
H 	H 	0.72450 0.06690 0.88230 0.06600
C 	C 	0.72439 0.01649 0.89897 0.00900
H 	H 	0.71900 0.02020 0.87940 0.03800
C 	C 	0.72893 0.00031 0.07743 0.03800
H 	H 	0.71100 0.99240 0.08160 0.01200
C 	C 	0.72912 0.98304 0.92624 -0.05300
C 	C 	0.73793 0.97953 0.95353 0.04100
H 	H 	0.74210 0.95670 0.97170 0.01300
C 	C 	0.72738 0.95242 0.92498 0.13600
N 	N 	0.72792 0.95500 0.89472 -0.15200
N 	N 	0.80547 0.23945 0.96651 -0.25700
N 	N 	0.77786 0.03602 0.96462 -0.26300
C 	C 	0.83645 0.22287 0.96069 0.09300
C 	C 	0.79455 0.05461 0.94197 0.10100
S 	S 	0.87879 0.19791 0.95409 -0.06200
S 	S 	0.81857 0.08091 0.91045 -0.06000
N 	N 	0.75847 0.21019 0.96717 -0.22300
C 	C 	0.72837 0.20679 0.97223 0.03200
H 	H 	0.70570 0.22310 0.98150 0.01400
C 	C 	0.72889 0.18059 0.96443 -0.04600
C 	C 	0.76161 0.15683 0.95083 0.00600
H 	H 	0.76260 0.13780 0.94660 0.03800
C 	C 	0.79278 0.16112 0.94336 -0.09700
H 	H 	0.81570 0.14610 0.93250 0.06500
C 	C 	0.79020 0.18788 0.95190 0.05700
H 	H 	0.81190 0.19070 0.94670 0.00300
N 	N 	0.53691 0.25769 0.99967 -0.22500
C 	C 	0.53579 0.28679 0.00161 0.05600
H 	H 	0.51350 0.30610 0.00470 -0.00100
C 	C 	0.56574 0.28982 0.99924 -0.09500
H 	H 	0.56370 0.31050 0.00150 0.06500
C 	C 	0.59890 0.26236 0.99358 0.00500
H 	H 	0.62000 0.26420 0.99120 0.03900
C 	C 	0.60009 0.23183 0.99165 -0.04800
C 	C 	0.56851 0.23087 0.99497 0.03800
H 	H 	0.56930 0.21010 0.99390 0.01400
C 	C 	0.63339 0.20095 0.98825 0.13200
N 	N 	0.66435 0.20665 0.97745 -0.14700
C 	C 	0.69423 0.17659 0.97463 0.13300
N 	N 	0.69478 0.14474 0.98150 -0.15200
C 	C 	0.66239 0.14195 0.99285 0.13200
N 	N 	0.63091 0.16961 0.99607 -0.14900
C 	C 	0.66127 0.10627 0.00287 -0.04900
C 	C 	0.62922 0.10000 0.01588 0.00800
H 	H 	0.60660 0.11880 0.01900 0.03900
C 	C 	0.63128 0.06550 0.02414 -0.09700
H 	H 	0.61000 0.06040 0.03260 0.06700
C 	C 	0.66442 0.03822 0.02016 0.06000
H 	H 	0.66530 0.01470 0.02590 0.00300
N 	N 	0.69511 0.04401 0.00857 -0.22500
N 	N 	0.79707 0.95579 0.00627 -0.22800
C 	C 	0.79713 0.92907 0.03837 0.05500
H 	H 	0.77500 0.93000 0.05800 0.00200
C 	C 	0.82770 0.90068 0.04398 -0.09800
H 	H 	0.82630 0.88230 0.06690 0.06600
C 	C 	0.86015 0.89897 0.01649 0.00900
H 	H 	0.88140 0.87940 0.02020 0.03800
C 	C 	0.69333 0.07743 0.00031 0.03800
H 	H 	0.71500 0.08160 0.99240 0.01200
C 	C 	0.86160 0.92624 0.98304 -0.05300
C 	C 	0.82901 0.95353 0.97953 0.04100
H 	H 	0.82950 0.97170 0.95670 0.01300
C 	C 	0.89522 0.92498 0.95242 0.13600
N 	N 	0.92236 0.89472 0.95500 -0.15200
N 	N 	0.96651 0.48857 0.80547 -0.25700
N 	N 	0.96462 0.72150 0.77786 -0.26300
C 	C 	0.96069 0.47999 0.83645 0.09300
C 	C 	0.94197 0.70887 0.79455 0.10100
S 	S 	0.95409 0.46921 0.87879 -0.06200
S 	S 	0.91045 0.69007 0.81857 -0.06000
N 	N 	0.96717 0.56417 0.75847 -0.22300
C 	C 	0.97223 0.59261 0.72837 0.03200
H 	H 	0.98150 0.58970 0.70570 0.01400
C 	C 	0.96443 0.62609 0.72889 -0.04600
C 	C 	0.95083 0.63073 0.76161 0.00600
H 	H 	0.94660 0.65300 0.76260 0.03800
C 	C 	0.94336 0.60274 0.79278 -0.09700
H 	H 	0.93250 0.60570 0.81570 0.06500
C 	C 	0.95190 0.57002 0.79020 0.05700
H 	H 	0.94670 0.55070 0.81190 0.00300
N 	N 	0.99967 0.70573 0.53691 -0.22500
C 	C 	0.00161 0.67581 0.53579 0.05600
H 	H 	0.00470 0.67570 0.51350 -0.00100
C 	C 	0.99924 0.64520 0.56574 -0.09500
H 	H 	0.00150 0.62430 0.56370 0.06500
C 	C 	0.99358 0.64516 0.59890 0.00500
H 	H 	0.99120 0.62460 0.62000 0.03900
C 	C 	0.99165 0.67643 0.60009 -0.04800
C 	C 	0.99497 0.70565 0.56851 0.03800
H 	H 	0.99390 0.72670 0.56930 0.01400
C 	C 	0.98825 0.67741 0.63339 0.13200
N 	N 	0.97745 0.65155 0.66435 -0.14700
C 	C 	0.97463 0.65455 0.69423 0.13300
N 	N 	0.98150 0.67898 0.69478 -0.15200
C 	C 	0.99285 0.70281 0.66239 0.13200
N 	N 	0.99607 0.70341 0.63091 -0.14900
C 	C 	0.00287 0.72959 0.66127 -0.04900
C 	C 	0.01588 0.75490 0.62922 0.00800
H 	H 	0.01900 0.75560 0.60660 0.03900
C 	C 	0.02414 0.77908 0.63128 -0.09700
H 	H 	0.03260 0.79700 0.61000 0.06700
C 	C 	0.02016 0.77720 0.66442 0.06000
H 	H 	0.02590 0.79410 0.66530 0.00300
N 	N 	0.00857 0.75231 0.69511 -0.22500
N 	N 	0.00627 0.74087 0.79707 -0.22800
C 	C 	0.03837 0.73543 0.79713 0.05500
H 	H 	0.05800 0.73700 0.77500 0.00200
C 	C 	0.04398 0.72764 0.82770 -0.09800
H 	H 	0.06690 0.72450 0.82630 0.06600
C 	C 	0.01649 0.72439 0.86015 0.00900
H 	H 	0.02020 0.71900 0.88140 0.03800
C 	C 	0.00031 0.72893 0.69333 0.03800
H 	H 	0.99240 0.71100 0.71500 0.01200
C 	C 	0.98304 0.72912 0.86160 -0.05300
C 	C 	0.97953 0.73793 0.82901 0.04100
H 	H 	0.95670 0.74210 0.82950 0.01300
C 	C 	0.95242 0.72738 0.89522 0.13600
N 	N 	0.95500 0.72792 0.92236 -0.15200
N 	N 	0.96651 0.23945 0.48857 -0.25700
N 	N 	0.96462 0.03602 0.72150 -0.26300
C 	C 	0.96069 0.22287 0.47999 0.09300
C 	C 	0.94197 0.05461 0.70887 0.10100
S 	S 	0.95409 0.19791 0.46921 -0.06200
S 	S 	0.91045 0.08091 0.69007 -0.06000
N 	N 	0.96717 0.21019 0.56417 -0.22300
C 	C 	0.97223 0.20679 0.59261 0.03200
H 	H 	0.98150 0.22310 0.58970 0.01400
C 	C 	0.96443 0.18059 0.62609 -0.04600
C 	C 	0.95083 0.15683 0.63073 0.00600
H 	H 	0.94660 0.13780 0.65300 0.03800
C 	C 	0.94336 0.16112 0.60274 -0.09700
H 	H 	0.93250 0.14610 0.60570 0.06500
C 	C 	0.95190 0.18788 0.57002 0.05700
H 	H 	0.94670 0.19070 0.55070 0.00300
N 	N 	0.99967 0.25769 0.70573 -0.22500
C 	C 	0.00161 0.28679 0.67581 0.05600
H 	H 	0.00470 0.30610 0.67570 -0.00100
C 	C 	0.99924 0.28982 0.64520 -0.09500
H 	H 	0.00150 0.31050 0.62430 0.06500
C 	C 	0.99358 0.26236 0.64516 0.00500
H 	H 	0.99120 0.26420 0.62460 0.03900
C 	C 	0.99165 0.23183 0.67643 -0.04800
C 	C 	0.99497 0.23087 0.70565 0.03800
H 	H 	0.99390 0.21010 0.72670 0.01400
C 	C 	0.98825 0.20095 0.67741 0.13200
N 	N 	0.97745 0.20665 0.65155 -0.14700
C 	C 	0.97463 0.17659 0.65455 0.13300
N 	N 	0.98150 0.14474 0.67898 -0.15200
C 	C 	0.99285 0.14195 0.70281 0.13200
N 	N 	0.99607 0.16961 0.70341 -0.14900
C 	C 	0.00287 0.10627 0.72959 -0.04900
C 	C 	0.01588 0.10000 0.75490 0.00800
H 	H 	0.01900 0.11880 0.75560 0.03900
C 	C 	0.02414 0.06550 0.77908 -0.09700
H 	H 	0.03260 0.06040 0.79700 0.06700
C 	C 	0.02016 0.03822 0.77720 0.06000
H 	H 	0.02590 0.01470 0.79410 0.00300
N 	N 	0.00857 0.04401 0.75231 -0.22500
N 	N 	0.00627 0.95579 0.74087 -0.22800
C 	C 	0.03837 0.92907 0.73543 0.05500
H 	H 	0.05800 0.93000 0.73700 0.00200
C 	C 	0.04398 0.90068 0.72764 -0.09800
H 	H 	0.06690 0.88230 0.72450 0.06600
C 	C 	0.01649 0.89897 0.72439 0.00900
H 	H 	0.02020 0.87940 0.71900 0.03800
C 	C 	0.00031 0.07743 0.72893 0.03800
H 	H 	0.99240 0.08160 0.71100 0.01200
C 	C 	0.98304 0.92624 0.72912 -0.05300
C 	C 	0.97953 0.95353 0.73793 0.04100
H 	H 	0.95670 0.97170 0.74210 0.01300
C 	C 	0.95242 0.92498 0.72738 0.13600
N 	N 	0.95500 0.89472 0.72792 -0.15200
N 	N 	0.80547 0.48857 0.23945 -0.25700
N 	N 	0.77786 0.72150 0.03602 -0.26300
C 	C 	0.83645 0.47999 0.22287 0.09300
C 	C 	0.79455 0.70887 0.05461 0.10100
S 	S 	0.87879 0.46921 0.19791 -0.06200
S 	S 	0.81857 0.69007 0.08091 -0.06000
N 	N 	0.75847 0.56417 0.21019 -0.22300
C 	C 	0.72837 0.59261 0.20679 0.03200
H 	H 	0.70570 0.58970 0.22310 0.01400
C 	C 	0.72889 0.62609 0.18059 -0.04600
C 	C 	0.76161 0.63073 0.15683 0.00600
H 	H 	0.76260 0.65300 0.13780 0.03800
C 	C 	0.79278 0.60274 0.16112 -0.09700
H 	H 	0.81570 0.60570 0.14610 0.06500
C 	C 	0.79020 0.57002 0.18788 0.05700
H 	H 	0.81190 0.55070 0.19070 0.00300
N 	N 	0.53691 0.70573 0.25769 -0.22500
C 	C 	0.53579 0.67581 0.28679 0.05600
H 	H 	0.51350 0.67570 0.30610 -0.00100
C 	C 	0.56574 0.64520 0.28982 -0.09500
H 	H 	0.56370 0.62430 0.31050 0.06500
C 	C 	0.59890 0.64516 0.26236 0.00500
H 	H 	0.62000 0.62460 0.26420 0.03900
C 	C 	0.60009 0.67643 0.23183 -0.04800
C 	C 	0.56851 0.70565 0.23087 0.03800
H 	H 	0.56930 0.72670 0.21010 0.01400
C 	C 	0.63339 0.67741 0.20095 0.13200
N 	N 	0.66435 0.65155 0.20665 -0.14700
C 	C 	0.69423 0.65455 0.17659 0.13200
N 	N 	0.69478 0.67898 0.14474 -0.15200
C 	C 	0.66239 0.70281 0.14195 0.13200
N 	N 	0.63091 0.70341 0.16961 -0.14900
C 	C 	0.66127 0.72959 0.10627 -0.04900
C 	C 	0.62922 0.75490 0.10000 0.00800
H 	H 	0.60660 0.75560 0.11880 0.03900
C 	C 	0.63128 0.77908 0.06550 -0.09700
H 	H 	0.61000 0.79700 0.06040 0.06700
C 	C 	0.66442 0.77720 0.03822 0.06000
H 	H 	0.66530 0.79410 0.01470 0.00300
N 	N 	0.69511 0.75231 0.04401 -0.22500
N 	N 	0.79707 0.74087 0.95579 -0.22800
C 	C 	0.79713 0.73543 0.92907 0.05500
H 	H 	0.77500 0.73700 0.93000 0.00200
C 	C 	0.82770 0.72764 0.90068 -0.09800
H 	H 	0.82630 0.72450 0.88230 0.06600
C 	C 	0.86015 0.72439 0.89897 0.00900
H 	H 	0.88140 0.71900 0.87940 0.03800
C 	C 	0.69333 0.72893 0.07743 0.03800
H 	H 	0.71500 0.71100 0.08160 0.01200
C 	C 	0.86160 0.72912 0.92624 -0.05300
C 	C 	0.82901 0.73793 0.95353 0.04100
H 	H 	0.82950 0.74210 0.97170 0.01300
C 	C 	0.89522 0.72738 0.92498 0.13600
N 	N 	0.92236 0.72792 0.89472 -0.15200
N 	N 	0.48857 0.80547 0.96651 -0.25700
N 	N 	0.72150 0.77786 0.96462 -0.26300
C 	C 	0.47999 0.83645 0.96069 0.09300
C 	C 	0.70887 0.79455 0.94197 0.10100
S 	S 	0.46921 0.87879 0.95409 -0.06200
S 	S 	0.69007 0.81857 0.91045 -0.06000
N 	N 	0.56417 0.75847 0.96717 -0.22300
C 	C 	0.59261 0.72837 0.97223 0.03200
H 	H 	0.58970 0.70570 0.98150 0.01400
C 	C 	0.62609 0.72889 0.96443 -0.04600
C 	C 	0.63073 0.76161 0.95083 0.00600
H 	H 	0.65300 0.76260 0.94660 0.03800
C 	C 	0.60274 0.79278 0.94336 -0.09700
H 	H 	0.60570 0.81570 0.93250 0.06500
C 	C 	0.57002 0.79020 0.95190 0.05700
H 	H 	0.55070 0.81190 0.94670 0.00300
N 	N 	0.70573 0.53691 0.99967 -0.22500
C 	C 	0.67581 0.53579 0.00161 0.05600
H 	H 	0.67570 0.51350 0.00470 -0.00100
C 	C 	0.64520 0.56574 0.99924 -0.09500
H 	H 	0.62430 0.56370 0.00150 0.06500
C 	C 	0.64516 0.59890 0.99358 0.00500
H 	H 	0.62460 0.62000 0.99120 0.03900
C 	C 	0.67643 0.60009 0.99165 -0.04800
C 	C 	0.70565 0.56851 0.99497 0.03800
H 	H 	0.72670 0.56930 0.99390 0.01400
C 	C 	0.67741 0.63339 0.98825 0.13200
N 	N 	0.65155 0.66435 0.97745 -0.14700
C 	C 	0.65455 0.69423 0.97463 0.13300
N 	N 	0.67898 0.69478 0.98150 -0.15200
C 	C 	0.70281 0.66239 0.99285 0.13200
N 	N 	0.70341 0.63091 0.99607 -0.14900
C 	C 	0.72959 0.66127 0.00287 -0.04900
C 	C 	0.75490 0.62922 0.01588 0.00800
H 	H 	0.75560 0.60660 0.01900 0.03900
C 	C 	0.77908 0.63128 0.02414 -0.09700
H 	H 	0.79700 0.61000 0.03260 0.06700
C 	C 	0.77720 0.66442 0.02016 0.06000
H 	H 	0.79410 0.66530 0.02590 0.00300
N 	N 	0.75231 0.69511 0.00857 -0.22500
N 	N 	0.74087 0.79707 0.00627 -0.22800
C 	C 	0.73543 0.79713 0.03837 0.05500
H 	H 	0.73700 0.77500 0.05800 0.00200
C 	C 	0.72764 0.82770 0.04398 -0.09800
H 	H 	0.72450 0.82630 0.06690 0.06600
C 	C 	0.72439 0.86015 0.01649 0.00900
H 	H 	0.71900 0.88140 0.02020 0.03800
C 	C 	0.72893 0.69333 0.00031 0.03800
H 	H 	0.71100 0.71500 0.99240 0.01200
C 	C 	0.72912 0.86160 0.98304 -0.05300
C 	C 	0.73793 0.82901 0.97953 0.04100
H 	H 	0.74210 0.82950 0.95670 0.01300
C 	C 	0.72738 0.89522 0.95242 0.13600
N 	N 	0.72792 0.92236 0.95500 -0.15200
N 	N 	0.23945 0.96651 0.80547 -0.25700
N 	N 	0.03602 0.96462 0.77786 -0.26300
C 	C 	0.22287 0.96069 0.83645 0.09300
C 	C 	0.05461 0.94197 0.79455 0.10100
S 	S 	0.19791 0.95409 0.87879 -0.06200
S 	S 	0.08091 0.91045 0.81857 -0.06000
N 	N 	0.21019 0.96717 0.75847 -0.22300
C 	C 	0.20679 0.97223 0.72837 0.03200
H 	H 	0.22310 0.98150 0.70570 0.01400
C 	C 	0.18059 0.96443 0.72889 -0.04600
C 	C 	0.15683 0.95083 0.76161 0.00600
H 	H 	0.13780 0.94660 0.76260 0.03800
C 	C 	0.16112 0.94336 0.79278 -0.09700
H 	H 	0.14610 0.93250 0.81570 0.06500
C 	C 	0.18788 0.95190 0.79020 0.05700
H 	H 	0.19070 0.94670 0.81190 0.00300
N 	N 	0.25769 0.99967 0.53691 -0.22500
C 	C 	0.28679 0.00161 0.53579 0.05600
H 	H 	0.30610 0.00470 0.51350 -0.00100
C 	C 	0.28982 0.99924 0.56574 -0.09500
H 	H 	0.31050 0.00150 0.56370 0.06500
C 	C 	0.26236 0.99358 0.59890 0.00500
H 	H 	0.26420 0.99120 0.62000 0.03900
C 	C 	0.23183 0.99165 0.60009 -0.04800
C 	C 	0.23087 0.99497 0.56851 0.03800
H 	H 	0.21010 0.99390 0.56930 0.01400
C 	C 	0.20095 0.98825 0.63339 0.13200
N 	N 	0.20665 0.97745 0.66435 -0.14700
C 	C 	0.17659 0.97463 0.69423 0.13300
N 	N 	0.14474 0.98150 0.69478 -0.15200
C 	C 	0.14195 0.99285 0.66239 0.13200
N 	N 	0.16961 0.99607 0.63091 -0.14900
C 	C 	0.10627 0.00287 0.66127 -0.04900
C 	C 	0.10000 0.01588 0.62922 0.00800
H 	H 	0.11880 0.01900 0.60660 0.03900
C 	C 	0.06550 0.02414 0.63128 -0.09700
H 	H 	0.06040 0.03260 0.61000 0.06700
C 	C 	0.03822 0.02016 0.66442 0.06000
H 	H 	0.01470 0.02590 0.66530 0.00300
N 	N 	0.04401 0.00857 0.69511 -0.22500
N 	N 	0.95579 0.00627 0.79707 -0.22800
C 	C 	0.92907 0.03837 0.79713 0.05500
H 	H 	0.93000 0.05800 0.77500 0.00200
C 	C 	0.90068 0.04398 0.82770 -0.09800
H 	H 	0.88230 0.06690 0.82630 0.06600
C 	C 	0.89897 0.01649 0.86015 0.00900
H 	H 	0.87940 0.02020 0.88140 0.03800
C 	C 	0.07743 0.00031 0.69333 0.03800
H 	H 	0.08160 0.99240 0.71500 0.01200
C 	C 	0.92624 0.98304 0.86160 -0.05300
C 	C 	0.95353 0.97953 0.82901 0.04100
H 	H 	0.97170 0.95670 0.82950 0.01300
C 	C 	0.92498 0.95242 0.89522 0.13600
N 	N 	0.89472 0.95500 0.92236 -0.15200
Co	Co	0.25000 0.48702 0.75000 1.12000
Co	Co	0.48702 0.25000 0.01298 1.12000
Co	Co	0.75000 0.01298 0.25000 1.12000
Co	Co	0.01298 0.75000 0.48702 1.12000
Co	Co	0.75000 0.25000 0.48702 1.12000
Co	Co	0.01298 0.48702 0.25000 1.12000
Co	Co	0.25000 0.75000 0.01298 1.12000
Co	Co	0.48702 0.01298 0.75000 1.12000
Co	Co	0.48702 0.75000 0.25000 1.12000
Co	Co	0.25000 0.01298 0.48702 1.12000
Co	Co	0.01298 0.25000 0.75000 1.12000
Co	Co	0.75000 0.48702 0.01298 1.12000
Co	Co	0.75000 0.51298 0.25000 1.12000
Co	Co	0.51298 0.75000 0.98702 1.12000
Co	Co	0.25000 0.98702 0.75000 1.12000
Co	Co	0.98702 0.25000 0.51298 1.12000
Co	Co	0.25000 0.75000 0.51298 1.12000
Co	Co	0.98702 0.51298 0.75000 1.12000
Co	Co	0.75000 0.25000 0.98702 1.12000
Co	Co	0.51298 0.98702 0.25000 1.12000
Co	Co	0.51298 0.25000 0.75000 1.12000
Co	Co	0.75000 0.98702 0.51298 1.12000
Co	Co	0.98702 0.75000 0.25000 1.12000
Co	Co	0.25000 0.51298 0.98702 1.12000
Co	Co	0.24812 0.50188 0.50188 1.12300
Co	Co	0.50188 0.24812 0.24812 1.12300
Co	Co	0.50188 0.24812 0.50188 1.12300
Co	Co	0.24812 0.50188 0.24812 1.12300
Co	Co	0.50188 0.50188 0.24812 1.12300
Co	Co	0.24812 0.24812 0.50188 1.12300
Co	Co	0.25188 0.99812 0.25188 1.12300
Co	Co	0.99812 0.25188 0.99812 1.12300
Co	Co	0.99812 0.25188 0.25188 1.12300
Co	Co	0.25188 0.99812 0.99812 1.12300
Co	Co	0.99812 0.99812 0.25188 1.12300
Co	Co	0.25188 0.25188 0.99812 1.12300
Co	Co	0.75188 0.49812 0.49812 1.12300
Co	Co	0.49812 0.75188 0.75188 1.12300
Co	Co	0.49812 0.75188 0.49812 1.12300
Co	Co	0.75188 0.49812 0.75188 1.12300
Co	Co	0.49812 0.49812 0.75188 1.12300
Co	Co	0.75188 0.75188 0.49812 1.12300
Co	Co	0.74812 0.00188 0.74812 1.12300
Co	Co	0.00188 0.74812 0.00188 1.12300
Co	Co	0.00188 0.74812 0.74812 1.12300
Co	Co	0.74812 0.00188 0.00188 1.12300
Co	Co	0.00188 0.00188 0.74812 1.12300
Co	Co	0.74812 0.74812 0.00188 1.12300
