data_crystal

_cell_length_a 29.31300
_cell_length_b 11.93500
_cell_length_c 22.25400
_cell_angle_alpha 90.00000
_cell_angle_beta  114.98000
_cell_angle_gamma 90.00000

_symmetry_space_group_name_	'P 1'
_symmetry_space_group_name_H-M	'P 1'

loop_
_symmetry_equiv_pos_as_xyz
  x,y,z

loop_
_atom_site_label
_atom_site_type_symbol
_atom_site_fract_x
_atom_site_fract_y
_atom_site_fract_z
_atom_site_charge
N 	N 	0.01318 0.16530 0.98801 -0.22900
H 	H 	0.01330 0.17270 0.94330 0.09000
N 	N 	0.07291 0.95114 0.02323 -0.25000
H 	H 	0.07650 0.94090 0.98080 0.12700
N 	N 	0.10430 0.14555 0.03688 -0.09500
C 	C 	0.96869 0.22728 0.98584 0.03800
H 	H 	0.96670 0.30180 0.96530 0.02400
H 	H 	0.97140 0.23840 0.03130 -0.00600
C 	C 	0.06208 0.20709 0.03692 -0.06400
H 	H 	0.06560 0.28690 0.02740 0.02600
H 	H 	0.06270 0.20280 0.08170 0.04300
C 	C 	0.11129 0.03448 0.06447 -0.05200
H 	H 	0.11070 0.03860 0.10860 0.04200
H 	H 	0.14500 0.00730 0.07110 0.03900
C 	C 	0.07803 0.84065 0.05473 -0.04200
H 	H 	0.08150 0.84940 0.10070 0.03900
H 	H 	0.10840 0.80200 0.05620 0.03800
C 	C 	0.11256 0.15890 0.97633 -0.22300
H 	H 	0.08980 0.21780 0.94820 0.10700
H 	H 	0.10400 0.08780 0.95100 0.10300
C 	C 	0.16635 0.18990 0.99156 0.37600
H 	H 	0.18940 0.13270 0.02120 -0.11600
H 	H 	0.17460 0.26280 0.01490 -0.10500
C 	C 	0.17410 0.19780 0.92788 -0.67900
H 	H 	0.17170 0.12290 0.90880 0.21900
H 	H 	0.20740 0.22950 0.93800 0.22400
H 	H 	0.14810 0.24630 0.89600 0.22000
N 	N 	0.20985 0.27679 0.55502 -0.22800
H 	H 	0.17480 0.24920 0.52860 0.09300
N 	N 	0.21950 0.39190 0.44950 -0.16600
H 	H 	0.18500 0.37370 0.41500 -0.21000
N 	N 	0.18528 0.45370 0.52740 -0.00100
C 	C 	0.25090 0.42470 0.41540 -0.09000
H 	H 	0.28220 0.46100 0.44700 0.04400
H 	H 	0.23250 0.47840 0.37930 0.02600
C 	C 	0.21460 0.48350 0.49250 -0.03400
H 	H 	0.24870 0.50540 0.52500 0.04100
H 	H 	0.19920 0.54970 0.46440 0.05800
C 	C 	0.20730 0.37490 0.58050 -0.02800
H 	H 	0.24140 0.40000 0.61120 0.02100
H 	H 	0.18650 0.36900 0.60570 0.01400
C 	C 	0.23670 0.18150 0.61310 0.00100
H 	H 	0.26790 0.21270 0.64790 -0.01200
H 	H 	0.21370 0.16250 0.63390 0.01400
C 	C 	0.13110 0.43420 0.48860 -0.41700
H 	H 	0.12540 0.43480 0.44140 0.24200
H 	H 	0.12460 0.35660 0.49860 0.03800
C 	C 	0.09977 0.48830 0.49170 0.18400
H 	H 	0.11430 0.56300 0.50830 0.00000
H 	H 	0.09050 0.45460 0.52570 -0.03800
C 	C 	0.04480 0.50870 0.42110 -0.25200
H 	H 	0.04260 0.58720 0.40720 0.04600
H 	H 	0.01590 0.49040 0.43050 0.09200
H 	H 	0.04470 0.46010 0.38560 0.05300
O 	O 	0.02030 0.03304 0.10310 -0.42700
O 	O 	0.00115 0.87937 0.14558 -0.30600
O 	O 	0.19015 0.16035 0.42636 -0.40300
O 	O 	0.12491 0.16197 0.45349 -0.30600
C 	C 	0.02045 0.97377 0.15026 0.36300
C 	C 	0.04982 0.02145 0.21894 -0.10300
C 	C 	0.10199 0.02638 0.24107 -0.00600
H 	H 	0.11670 0.00250 0.21250 0.02200
C 	C 	0.13264 0.06531 0.30371 -0.04100
H 	H 	0.16810 0.06780 0.31790 0.04000
C 	C 	0.11146 0.10096 0.34604 -0.07100
C 	C 	0.05943 0.09644 0.32414 -0.03900
H 	H 	0.04500 0.12130 0.35280 0.04300
C 	C 	0.02771 0.05622 0.26098 -0.00500
C 	C 	0.14454 0.14466 0.41432 0.31700
N 	N 	0.22720 0.39050 0.43790 -0.05400
H 	H 	0.19300 0.37440 0.40220 0.27500
N 	N 	0.18965 0.48210 0.50570 -0.03300
C 	C 	0.26180 0.39440 0.40770 -0.03700
H 	H 	0.29390 0.42810 0.43900 0.01600
H 	H 	0.24770 0.44240 0.36770 0.02800
C 	C 	0.22310 0.49130 0.47330 0.02600
H 	H 	0.25710 0.51070 0.50710 -0.01300
H 	H 	0.21150 0.55410 0.44130 -0.01100
C 	C 	0.20690 0.41300 0.56420 -0.01100
H 	H 	0.18460 0.42670 0.58660 0.04900
H 	H 	0.24100 0.43910 0.59460 0.01700
C 	C 	0.22820 0.22230 0.61170 -0.06200
H 	H 	0.20360 0.21980 0.63140 0.02900
H 	H 	0.25970 0.25760 0.64370 0.04400
C 	C 	0.13612 0.46930 0.45940 -0.39500
H 	H 	0.13520 0.46360 0.41450 0.04100
H 	H 	0.12550 0.39540 0.46910 0.25500
C 	C 	0.10430 0.53290 0.45520 0.22100
H 	H 	0.10130 0.58560 0.41930 -0.04200
H 	H 	0.11810 0.57700 0.49670 -0.04600
C 	C 	0.04670 0.50170 0.44220 -0.24700
H 	H 	0.03700 0.43060 0.41800 0.09900
H 	H 	0.02390 0.56120 0.41600 0.11300
H 	H 	0.04450 0.49460 0.48480 0.05800
N 	N 	0.51318 0.66530 0.98801 -0.21800
H 	H 	0.51330 0.67270 0.94330 0.10000
N 	N 	0.57291 0.45114 0.02323 -0.25800
H 	H 	0.57650 0.44090 0.98080 0.12700
N 	N 	0.60430 0.64555 0.03688 -0.09400
C 	C 	0.46869 0.72728 0.98584 0.02100
H 	H 	0.46670 0.80180 0.96530 0.02400
H 	H 	0.47140 0.73840 0.03130 -0.01000
C 	C 	0.56208 0.70709 0.03692 -0.06800
H 	H 	0.56560 0.78690 0.02740 0.03200
H 	H 	0.56270 0.70280 0.08170 0.04900
C 	C 	0.61129 0.53448 0.06447 -0.04100
H 	H 	0.61070 0.53860 0.10860 0.04200
H 	H 	0.64500 0.50730 0.07110 0.04200
C 	C 	0.57803 0.34065 0.05473 -0.04700
H 	H 	0.58150 0.34940 0.10070 0.03800
H 	H 	0.60840 0.30200 0.05620 0.03800
C 	C 	0.61256 0.65890 0.97633 -0.23200
H 	H 	0.58980 0.71780 0.94820 0.11300
H 	H 	0.60400 0.58780 0.95100 0.11200
C 	C 	0.66635 0.68990 0.99156 0.39000
H 	H 	0.68940 0.63270 0.02120 -0.11800
H 	H 	0.67460 0.76280 0.01490 -0.10900
C 	C 	0.67410 0.69780 0.92788 -0.69800
H 	H 	0.67170 0.62290 0.90880 0.23000
H 	H 	0.70740 0.72950 0.93800 0.23100
H 	H 	0.64810 0.74630 0.89600 0.22900
N 	N 	0.70985 0.77679 0.55502 -0.22600
H 	H 	0.67480 0.74920 0.52860 0.09300
N 	N 	0.71950 0.89190 0.44950 -0.17000
H 	H 	0.68500 0.87370 0.41500 -0.23500
N 	N 	0.68528 0.95370 0.52740 0.01300
C 	C 	0.75090 0.92470 0.41540 -0.08800
H 	H 	0.78220 0.96100 0.44700 0.04800
H 	H 	0.73250 0.97840 0.37930 0.02900
C 	C 	0.71460 0.98350 0.49250 -0.00400
H 	H 	0.74870 0.00540 0.52500 0.02000
H 	H 	0.69920 0.04970 0.46440 0.04000
C 	C 	0.70730 0.87490 0.58050 -0.04100
H 	H 	0.74140 0.90000 0.61120 0.02500
H 	H 	0.68650 0.86900 0.60570 0.01900
C 	C 	0.73670 0.68150 0.61310 0.00000
H 	H 	0.76790 0.71270 0.64790 -0.01100
H 	H 	0.71370 0.66250 0.63390 0.01700
C 	C 	0.63110 0.93420 0.48860 -0.43400
H 	H 	0.62540 0.93480 0.44140 0.27700
H 	H 	0.62460 0.85660 0.49860 0.04000
C 	C 	0.59977 0.98830 0.49170 0.24200
H 	H 	0.61430 0.06300 0.50830 0.02800
H 	H 	0.59050 0.95460 0.52570 -0.05300
C 	C 	0.54480 0.00870 0.42110 -0.33100
H 	H 	0.54260 0.08720 0.40720 0.06300
H 	H 	0.51590 0.99040 0.43050 0.13300
H 	H 	0.54470 0.96010 0.38560 0.07900
O 	O 	0.52030 0.53304 0.10310 -0.39800
O 	O 	0.50115 0.37937 0.14558 -0.28800
O 	O 	0.69015 0.66035 0.42636 -0.40100
O 	O 	0.62491 0.66197 0.45349 -0.30300
C 	C 	0.52045 0.47377 0.15026 0.33000
C 	C 	0.54982 0.52145 0.21894 -0.08800
C 	C 	0.60199 0.52638 0.24107 -0.00800
H 	H 	0.61670 0.50250 0.21250 0.02800
C 	C 	0.63264 0.56531 0.30371 -0.04000
H 	H 	0.66810 0.56780 0.31790 0.04300
C 	C 	0.61146 0.60096 0.34604 -0.06300
C 	C 	0.55943 0.59644 0.32414 -0.05000
H 	H 	0.54500 0.62130 0.35280 0.05600
C 	C 	0.52771 0.55622 0.26098 0.03200
C 	C 	0.64454 0.64466 0.41432 0.31700
N 	N 	0.72720 0.89050 0.43790 -0.05600
H 	H 	0.69300 0.87440 0.40220 0.30300
N 	N 	0.68965 0.98210 0.50570 -0.04200
C 	C 	0.76180 0.89440 0.40770 -0.04100
H 	H 	0.79390 0.92810 0.43900 0.01800
H 	H 	0.74770 0.94240 0.36770 0.03100
C 	C 	0.72310 0.99130 0.47330 0.05300
H 	H 	0.75710 0.01070 0.50710 -0.01900
H 	H 	0.71150 0.05410 0.44130 -0.01900
C 	C 	0.70690 0.91300 0.56420 -0.00900
H 	H 	0.68460 0.92670 0.58660 0.05300
H 	H 	0.74100 0.93910 0.59460 0.02000
C 	C 	0.72820 0.72230 0.61170 -0.06000
H 	H 	0.70360 0.71980 0.63140 0.02900
H 	H 	0.75970 0.75760 0.64370 0.04400
C 	C 	0.63612 0.96930 0.45940 -0.44800
H 	H 	0.63520 0.96360 0.41450 0.04900
H 	H 	0.62550 0.89540 0.46910 0.26000
C 	C 	0.60430 0.03290 0.45520 0.24100
H 	H 	0.60130 0.08560 0.41930 -0.04600
H 	H 	0.61810 0.07700 0.49670 -0.09500
C 	C 	0.54670 0.00170 0.44220 -0.30200
H 	H 	0.53700 0.93060 0.41800 0.12600
H 	H 	0.52390 0.06120 0.41600 0.13400
H 	H 	0.54450 0.99460 0.48480 0.08200
N 	N 	0.98682 0.16530 0.51199 -0.21900
H 	H 	0.98670 0.17270 0.55670 0.10500
N 	N 	0.92709 0.95114 0.47677 -0.21500
H 	H 	0.92350 0.94090 0.51920 0.10200
N 	N 	0.89570 0.14555 0.46312 -0.09300
C 	C 	0.03131 0.22728 0.51416 -0.09900
H 	H 	0.03330 0.30180 0.53470 0.03800
H 	H 	0.02860 0.23840 0.46870 0.04400
C 	C 	0.93792 0.20709 0.46308 -0.03400
H 	H 	0.93440 0.28690 0.47260 0.04200
H 	H 	0.93730 0.20280 0.41830 0.04700
C 	C 	0.88871 0.03448 0.43553 -0.04400
H 	H 	0.88930 0.03860 0.39140 0.04000
H 	H 	0.85500 0.00730 0.42890 0.04200
C 	C 	0.92197 0.84065 0.44527 -0.09200
H 	H 	0.91850 0.84940 0.39930 0.05700
H 	H 	0.89160 0.80200 0.44380 0.06300
C 	C 	0.88744 0.15890 0.52367 -0.15400
H 	H 	0.91020 0.21780 0.55180 0.08300
H 	H 	0.89600 0.08780 0.54900 0.08200
C 	C 	0.83365 0.18990 0.50844 0.11100
H 	H 	0.81060 0.13270 0.47880 -0.01200
H 	H 	0.82540 0.26280 0.48510 -0.00200
C 	C 	0.82590 0.19780 0.57212 -0.48000
H 	H 	0.82830 0.12290 0.59120 0.16300
H 	H 	0.79260 0.22950 0.56200 0.15700
H 	H 	0.85190 0.24630 0.60400 0.16500
N 	N 	0.79015 0.27679 0.94498 -0.22500
H 	H 	0.82520 0.24920 0.97140 0.11000
N 	N 	0.78050 0.39190 0.05050 -0.17100
H 	H 	0.81500 0.37370 0.08500 -0.18100
N 	N 	0.81472 0.45370 0.97260 -0.02600
C 	C 	0.74910 0.42470 0.08460 -0.09600
H 	H 	0.71780 0.46100 0.05300 0.03900
H 	H 	0.76750 0.47840 0.12070 0.03000
C 	C 	0.78540 0.48350 0.00750 -0.04200
H 	H 	0.75130 0.50540 0.97500 0.02200
H 	H 	0.80080 0.54970 0.03560 0.06500
C 	C 	0.79270 0.37490 0.91950 -0.00600
H 	H 	0.75860 0.40000 0.88880 0.01100
H 	H 	0.81350 0.36900 0.89430 0.01000
C 	C 	0.76330 0.18150 0.88690 -0.00000
H 	H 	0.73210 0.21270 0.85210 -0.01200
H 	H 	0.78630 0.16250 0.86610 0.01400
C 	C 	0.86890 0.43420 0.01140 -0.47100
H 	H 	0.87460 0.43480 0.05860 0.33000
H 	H 	0.87540 0.35660 0.00140 0.02300
C 	C 	0.90023 0.48830 0.00830 0.31700
H 	H 	0.88570 0.56300 0.99170 -0.14500
H 	H 	0.90950 0.45460 0.97430 -0.04100
C 	C 	0.95520 0.50870 0.07890 -0.28200
H 	H 	0.95740 0.58720 0.09280 0.05700
H 	H 	0.98410 0.49040 0.06950 0.10800
H 	H 	0.95530 0.46010 0.11440 0.06700
O 	O 	0.97970 0.03304 0.39690 -0.40100
O 	O 	0.99885 0.87937 0.35442 -0.27600
O 	O 	0.80985 0.16035 0.07364 -0.40900
O 	O 	0.87509 0.16197 0.04651 -0.31900
C 	C 	0.97955 0.97377 0.34974 0.37000
C 	C 	0.95018 0.02145 0.28106 -0.11900
C 	C 	0.89801 0.02638 0.25893 0.01400
H 	H 	0.88330 0.00250 0.28750 0.01800
C 	C 	0.86736 0.06531 0.19629 -0.05500
H 	H 	0.83190 0.06780 0.18210 0.04700
C 	C 	0.88854 0.10096 0.15396 -0.04900
C 	C 	0.94057 0.09644 0.17586 -0.07200
H 	H 	0.95500 0.12130 0.14720 0.07000
C 	C 	0.97229 0.05622 0.23902 0.07600
C 	C 	0.85546 0.14466 0.08568 0.31300
N 	N 	0.77280 0.39050 0.06210 -0.03300
H 	H 	0.80700 0.37440 0.09780 0.24400
N 	N 	0.81035 0.48210 0.99430 0.05000
C 	C 	0.73820 0.39440 0.09230 -0.03600
H 	H 	0.70610 0.42810 0.06100 0.01300
H 	H 	0.75230 0.44240 0.13230 0.03000
C 	C 	0.77690 0.49130 0.02670 -0.10400
H 	H 	0.74290 0.51070 0.99290 0.07000
H 	H 	0.78850 0.55410 0.05870 0.01800
C 	C 	0.79310 0.41300 0.93580 -0.01200
H 	H 	0.81540 0.42670 0.91340 0.05700
H 	H 	0.75900 0.43910 0.90540 0.02400
C 	C 	0.77180 0.22230 0.88830 -0.05700
H 	H 	0.79640 0.21980 0.86860 0.02800
H 	H 	0.74030 0.25760 0.85630 0.04400
C 	C 	0.86388 0.46930 0.04060 -0.50700
H 	H 	0.86480 0.46360 0.08550 0.04100
H 	H 	0.87450 0.39540 0.03090 0.27000
C 	C 	0.89570 0.53290 0.04480 0.10700
H 	H 	0.89870 0.58560 0.08070 -0.00700
H 	H 	0.88190 0.57700 0.00330 0.10500
C 	C 	0.95330 0.50170 0.05780 -0.25100
H 	H 	0.96300 0.43060 0.08200 0.10300
H 	H 	0.97610 0.56120 0.08400 0.12300
H 	H 	0.95550 0.49460 0.01520 0.04300
N 	N 	0.48682 0.66530 0.51199 -0.23300
H 	H 	0.48670 0.67270 0.55670 0.09800
N 	N 	0.42709 0.45114 0.47677 -0.22700
H 	H 	0.42350 0.44090 0.51920 0.09700
N 	N 	0.39570 0.64555 0.46312 -0.09400
C 	C 	0.53131 0.72728 0.51416 -0.07500
H 	H 	0.53330 0.80180 0.53470 0.04100
H 	H 	0.52860 0.73840 0.46870 0.04300
C 	C 	0.43792 0.70709 0.46308 -0.03300
H 	H 	0.43440 0.78690 0.47260 0.03900
H 	H 	0.43730 0.70280 0.41830 0.04200
C 	C 	0.38871 0.53448 0.43553 -0.03500
H 	H 	0.38930 0.53860 0.39140 0.04000
H 	H 	0.35500 0.50730 0.42890 0.04500
C 	C 	0.42197 0.34065 0.44527 -0.08500
H 	H 	0.41850 0.34940 0.39930 0.04800
H 	H 	0.39160 0.30200 0.44380 0.05900
C 	C 	0.38744 0.65890 0.52367 -0.15400
H 	H 	0.41020 0.71780 0.55180 0.08200
H 	H 	0.39600 0.58780 0.54900 0.08400
C 	C 	0.33365 0.68990 0.50844 0.11400
H 	H 	0.31060 0.63270 0.47880 -0.01000
H 	H 	0.32540 0.76280 0.48510 -0.00300
C 	C 	0.32590 0.69780 0.57212 -0.48700
H 	H 	0.32830 0.62290 0.59120 0.16900
H 	H 	0.29260 0.72950 0.56200 0.16000
H 	H 	0.35190 0.74630 0.60400 0.16800
N 	N 	0.29015 0.77679 0.94498 -0.22400
H 	H 	0.32520 0.74920 0.97140 0.11100
N 	N 	0.28050 0.89190 0.05050 -0.17400
H 	H 	0.31500 0.87370 0.08500 -0.20700
N 	N 	0.31472 0.95370 0.97260 -0.01700
C 	C 	0.24910 0.92470 0.08460 -0.09400
H 	H 	0.21780 0.96100 0.05300 0.04300
H 	H 	0.26750 0.97840 0.12070 0.03200
C 	C 	0.28540 0.98350 0.00750 -0.01100
H 	H 	0.25130 0.00540 0.97500 0.00100
H 	H 	0.30080 0.04970 0.03560 0.04500
C 	C 	0.29270 0.87490 0.91950 -0.01500
H 	H 	0.25860 0.90000 0.88880 0.01300
H 	H 	0.31350 0.86900 0.89430 0.01300
C 	C 	0.26330 0.68150 0.88690 -0.00100
H 	H 	0.23210 0.71270 0.85210 -0.01300
H 	H 	0.28630 0.66250 0.86610 0.01600
C 	C 	0.36890 0.93420 0.01140 -0.45500
H 	H 	0.37460 0.93480 0.05860 0.34600
H 	H 	0.37540 0.85660 0.00140 0.02300
C 	C 	0.40023 0.98830 0.00830 0.34900
H 	H 	0.38570 0.06300 0.99170 -0.11400
H 	H 	0.40950 0.95460 0.97430 -0.05100
C 	C 	0.45520 0.00870 0.07890 -0.32800
H 	H 	0.45740 0.08720 0.09280 0.06300
H 	H 	0.48410 0.99040 0.06950 0.12600
H 	H 	0.45530 0.96010 0.11440 0.08000
O 	O 	0.47970 0.53304 0.39690 -0.39500
O 	O 	0.49885 0.37937 0.35442 -0.28800
O 	O 	0.30985 0.66035 0.07364 -0.40900
O 	O 	0.37509 0.66197 0.04651 -0.32000
C 	C 	0.47955 0.47377 0.34974 0.32900
C 	C 	0.45018 0.52145 0.28106 -0.08600
C 	C 	0.39801 0.52638 0.25893 -0.00800
H 	H 	0.38330 0.50250 0.28750 0.02900
C 	C 	0.36736 0.56531 0.19629 -0.03700
H 	H 	0.33190 0.56780 0.18210 0.04300
C 	C 	0.38854 0.60096 0.15396 -0.06300
C 	C 	0.44057 0.59644 0.17586 -0.04900
H 	H 	0.45500 0.62130 0.14720 0.05600
C 	C 	0.47229 0.55622 0.23902 0.03200
C 	C 	0.35546 0.64466 0.08568 0.32000
N 	N 	0.27280 0.89050 0.06210 -0.03600
H 	H 	0.30700 0.87440 0.09780 0.27200
N 	N 	0.31035 0.98210 0.99430 0.03800
C 	C 	0.23820 0.89440 0.09230 -0.04000
H 	H 	0.20610 0.92810 0.06100 0.01500
H 	H 	0.25230 0.94240 0.13230 0.03200
C 	C 	0.27690 0.99130 0.02670 -0.07500
H 	H 	0.24290 0.01070 0.99290 0.06300
H 	H 	0.28850 0.05410 0.05870 0.00900
C 	C 	0.29310 0.91300 0.93580 -0.01000
H 	H 	0.31540 0.92670 0.91340 0.05800
H 	H 	0.25900 0.93910 0.90540 0.02800
C 	C 	0.27180 0.72230 0.88830 -0.05500
H 	H 	0.29640 0.71980 0.86860 0.02900
H 	H 	0.24030 0.75760 0.85630 0.04400
C 	C 	0.36388 0.96930 0.04060 -0.52600
H 	H 	0.36480 0.96360 0.08550 0.04600
H 	H 	0.37450 0.89540 0.03090 0.25500
C 	C 	0.39570 0.03290 0.04480 0.10000
H 	H 	0.39870 0.08560 0.08070 -0.00700
H 	H 	0.38190 0.07700 0.00330 0.06200
C 	C 	0.45330 0.00170 0.05780 -0.27900
H 	H 	0.46300 0.93060 0.08200 0.11600
H 	H 	0.47610 0.06120 0.08400 0.12500
H 	H 	0.45550 0.99460 0.01520 0.05300
N 	N 	0.98682 0.83470 0.01199 -0.23000
H 	H 	0.98670 0.82730 0.05670 0.10600
N 	N 	0.92709 0.04886 0.97677 -0.19800
H 	H 	0.92350 0.05910 0.01920 0.06800
N 	N 	0.89570 0.85445 0.96312 -0.09400
C 	C 	0.03131 0.77272 0.01416 -0.18700
H 	H 	0.03330 0.69820 0.03470 0.05300
H 	H 	0.02860 0.76160 0.96870 0.09400
C 	C 	0.93792 0.79291 0.96308 0.00400
H 	H 	0.93440 0.71310 0.97260 0.04700
H 	H 	0.93730 0.79720 0.91830 0.03900
C 	C 	0.88871 0.96552 0.93553 -0.01500
H 	H 	0.88930 0.96140 0.89140 0.03800
H 	H 	0.85500 0.99270 0.92890 0.05100
C 	C 	0.92197 0.15935 0.94527 -0.12500
H 	H 	0.91850 0.15060 0.89930 0.05900
H 	H 	0.89160 0.19800 0.94380 0.08000
C 	C 	0.88744 0.84110 0.02367 -0.08000
H 	H 	0.91020 0.78220 0.05180 0.05500
H 	H 	0.89600 0.91220 0.04900 0.06500
C 	C 	0.83365 0.81010 0.00844 -0.15500
H 	H 	0.81060 0.86730 0.97880 0.09800
H 	H 	0.82540 0.73720 0.98510 0.10000
C 	C 	0.82590 0.80220 0.07212 -0.28500
H 	H 	0.82830 0.87710 0.09120 0.11400
H 	H 	0.79260 0.77050 0.06200 0.09200
H 	H 	0.85190 0.75370 0.10400 0.11000
N 	N 	0.79015 0.72321 0.44498 -0.22800
H 	H 	0.82520 0.75080 0.47140 0.09400
N 	N 	0.78050 0.60810 0.55050 -0.16700
H 	H 	0.81500 0.62630 0.58500 -0.21100
N 	N 	0.81472 0.54630 0.47260 0.00500
C 	C 	0.74910 0.57530 0.58460 -0.09000
H 	H 	0.71780 0.53900 0.55300 0.04300
H 	H 	0.76750 0.52160 0.62070 0.02600
C 	C 	0.78540 0.51650 0.50750 -0.03400
H 	H 	0.75130 0.49460 0.47500 0.04000
H 	H 	0.80080 0.45030 0.53560 0.05900
C 	C 	0.79270 0.62510 0.41950 -0.03200
H 	H 	0.75860 0.60000 0.38880 0.02400
H 	H 	0.81350 0.63100 0.39430 0.01700
C 	C 	0.76330 0.81850 0.38690 -0.00100
H 	H 	0.73210 0.78730 0.35210 -0.01100
H 	H 	0.78630 0.83750 0.36610 0.01900
C 	C 	0.86890 0.56580 0.51140 -0.44700
H 	H 	0.87460 0.56520 0.55860 0.25800
H 	H 	0.87540 0.64340 0.50140 0.04000
C 	C 	0.90023 0.51170 0.50830 0.20600
H 	H 	0.88570 0.43700 0.49170 -0.00400
H 	H 	0.90950 0.54540 0.47430 -0.04100
C 	C 	0.95520 0.49130 0.57890 -0.28000
H 	H 	0.95740 0.41280 0.59280 0.05400
H 	H 	0.98410 0.50960 0.56950 0.11200
H 	H 	0.95530 0.53990 0.61440 0.06500
O 	O 	0.97970 0.96696 0.89690 -0.35400
O 	O 	0.99885 0.12063 0.85442 -0.26600
O 	O 	0.80985 0.83965 0.57364 -0.39800
O 	O 	0.87509 0.83803 0.54651 -0.30000
C 	C 	0.97955 0.02623 0.84974 0.29300
C 	C 	0.95018 0.97855 0.78106 -0.07100
C 	C 	0.89801 0.97362 0.75893 -0.01000
H 	H 	0.88330 0.99750 0.78750 0.03400
C 	C 	0.86736 0.93469 0.69629 -0.03800
H 	H 	0.83190 0.93220 0.68210 0.04500
C 	C 	0.88854 0.89904 0.65396 -0.05500
C 	C 	0.94057 0.90356 0.67586 -0.06100
H 	H 	0.95500 0.87870 0.64720 0.06900
C 	C 	0.97229 0.94378 0.73902 0.06600
C 	C 	0.85546 0.85534 0.58568 0.31600
N 	N 	0.77280 0.60950 0.56210 -0.05200
H 	H 	0.80700 0.62560 0.59780 0.27800
N 	N 	0.81035 0.51790 0.49430 -0.03200
C 	C 	0.73820 0.60560 0.59230 -0.03800
H 	H 	0.70610 0.57190 0.56100 0.01700
H 	H 	0.75230 0.55760 0.63230 0.02900
C 	C 	0.77690 0.50870 0.52670 0.02500
H 	H 	0.74290 0.48930 0.49290 -0.01200
H 	H 	0.78850 0.44590 0.55870 -0.01100
C 	C 	0.79310 0.58700 0.43580 -0.01100
H 	H 	0.81540 0.57330 0.41340 0.05200
H 	H 	0.75900 0.56090 0.40540 0.01600
C 	C 	0.77180 0.77770 0.38830 -0.05800
H 	H 	0.79640 0.78020 0.36860 0.02800
H 	H 	0.74030 0.74240 0.35630 0.04300
C 	C 	0.86388 0.53070 0.54060 -0.42500
H 	H 	0.86480 0.53640 0.58550 0.04500
H 	H 	0.87450 0.60460 0.53090 0.27300
C 	C 	0.89570 0.46710 0.54480 0.24600
H 	H 	0.89870 0.41440 0.58070 -0.04600
H 	H 	0.88190 0.42300 0.50330 -0.04900
C 	C 	0.95330 0.49830 0.55780 -0.27000
H 	H 	0.96300 0.56940 0.58200 0.11200
H 	H 	0.97610 0.43880 0.58400 0.13100
H 	H 	0.95550 0.50540 0.51520 0.07100
N 	N 	0.48682 0.33470 0.01199 -0.24500
H 	H 	0.48670 0.32730 0.05670 0.09400
N 	N 	0.42709 0.54886 0.97677 -0.19300
H 	H 	0.42350 0.55910 0.01920 0.06700
N 	N 	0.39570 0.35445 0.96312 -0.09500
C 	C 	0.53131 0.27272 0.01416 -0.16800
H 	H 	0.53330 0.19820 0.03470 0.05300
H 	H 	0.52860 0.26160 0.96870 0.09500
C 	C 	0.43792 0.29291 0.96308 0.00600
H 	H 	0.43440 0.21310 0.97260 0.04100
H 	H 	0.43730 0.29720 0.91830 0.03400
C 	C 	0.38871 0.46552 0.93553 -0.02600
H 	H 	0.38930 0.46140 0.89140 0.03700
H 	H 	0.35500 0.49270 0.92890 0.04800
C 	C 	0.42197 0.65935 0.94527 -0.12200
H 	H 	0.41850 0.65060 0.89930 0.06000
H 	H 	0.39160 0.69800 0.94380 0.08100
C 	C 	0.38744 0.34110 0.02367 -0.07400
H 	H 	0.41020 0.28220 0.05180 0.04900
H 	H 	0.39600 0.41220 0.04900 0.05600
C 	C 	0.33365 0.31010 0.00844 -0.16500
H 	H 	0.31060 0.36730 0.97880 0.09900
H 	H 	0.32540 0.23720 0.98510 0.10300
C 	C 	0.32590 0.30220 0.07212 -0.27000
H 	H 	0.32830 0.37710 0.09120 0.10600
H 	H 	0.29260 0.27050 0.06200 0.08600
H 	H 	0.35190 0.25370 0.10400 0.10200
N 	N 	0.29015 0.22321 0.44498 -0.23000
H 	H 	0.32520 0.25080 0.47140 0.09400
N 	N 	0.28050 0.10810 0.55050 -0.16300
H 	H 	0.31500 0.12630 0.58500 -0.18500
N 	N 	0.31472 0.04630 0.47260 -0.01000
C 	C 	0.24910 0.07530 0.58460 -0.09100
H 	H 	0.21780 0.03900 0.55300 0.03900
H 	H 	0.26750 0.02160 0.62070 0.02300
C 	C 	0.28540 0.01650 0.50750 -0.06500
H 	H 	0.25130 0.99460 0.47500 0.06200
H 	H 	0.30080 0.95030 0.53560 0.07800
C 	C 	0.29270 0.12510 0.41950 -0.01800
H 	H 	0.25860 0.10000 0.38880 0.02000
H 	H 	0.31350 0.13100 0.39430 0.01200
C 	C 	0.26330 0.31850 0.38690 0.00000
H 	H 	0.23210 0.28730 0.35210 -0.01200
H 	H 	0.28630 0.33750 0.36610 0.01700
C 	C 	0.36890 0.06580 0.51140 -0.43100
H 	H 	0.37460 0.06520 0.55860 0.22300
H 	H 	0.37540 0.14340 0.50140 0.03800
C 	C 	0.40023 0.01170 0.50830 0.14700
H 	H 	0.38570 0.93700 0.49170 -0.03300
H 	H 	0.40950 0.04540 0.47430 -0.02500
C 	C 	0.45520 0.99130 0.57890 -0.20100
H 	H 	0.45740 0.91280 0.59280 0.03700
H 	H 	0.48410 0.00960 0.56950 0.07200
H 	H 	0.45530 0.03990 0.61440 0.03800
O 	O 	0.47970 0.46696 0.89690 -0.38500
O 	O 	0.49885 0.62063 0.85442 -0.28400
O 	O 	0.30985 0.33965 0.57364 -0.40100
O 	O 	0.37509 0.33803 0.54651 -0.30300
C 	C 	0.47955 0.52623 0.84974 0.32500
C 	C 	0.45018 0.47855 0.78106 -0.08500
C 	C 	0.39801 0.47362 0.75893 -0.00900
H 	H 	0.38330 0.49750 0.78750 0.02900
C 	C 	0.36736 0.43469 0.69629 -0.03900
H 	H 	0.33190 0.43220 0.68210 0.04200
C 	C 	0.38854 0.39904 0.65396 -0.06300
C 	C 	0.44057 0.40356 0.67586 -0.05000
H 	H 	0.45500 0.37870 0.64720 0.05600
C 	C 	0.47229 0.44378 0.73902 0.03100
C 	C 	0.35546 0.35534 0.58568 0.31700
N 	N 	0.27280 0.10950 0.56210 -0.05000
H 	H 	0.30700 0.12560 0.59780 0.24900
N 	N 	0.31035 0.01790 0.49430 -0.02200
C 	C 	0.23820 0.10560 0.59230 -0.03300
H 	H 	0.20610 0.07190 0.56100 0.01400
H 	H 	0.25230 0.05760 0.63230 0.02600
C 	C 	0.27690 0.00870 0.52670 -0.00200
H 	H 	0.24290 0.98930 0.49290 -0.00600
H 	H 	0.28850 0.94590 0.55870 -0.00200
C 	C 	0.29310 0.08700 0.43580 -0.01400
H 	H 	0.31540 0.07330 0.41340 0.04800
H 	H 	0.25900 0.06090 0.40540 0.01300
C 	C 	0.27180 0.27770 0.38830 -0.06000
H 	H 	0.29640 0.28020 0.36860 0.02800
H 	H 	0.24030 0.24240 0.35630 0.04300
C 	C 	0.36388 0.03070 0.54060 -0.37100
H 	H 	0.36480 0.03640 0.58550 0.03600
H 	H 	0.37450 0.10460 0.53090 0.26900
C 	C 	0.39570 0.96710 0.54480 0.22800
H 	H 	0.39870 0.91440 0.58070 -0.04200
H 	H 	0.38190 0.92300 0.50330 0.00100
C 	C 	0.45330 0.99830 0.55780 -0.21500
H 	H 	0.46300 0.06940 0.58200 0.08600
H 	H 	0.47610 0.93880 0.58400 0.10900
H 	H 	0.45550 0.00540 0.51520 0.04700
N 	N 	0.01318 0.83470 0.48801 -0.24300
H 	H 	0.01330 0.82730 0.44330 0.09000
N 	N 	0.07291 0.04886 0.52323 -0.23800
H 	H 	0.07650 0.05910 0.48080 0.09100
N 	N 	0.10430 0.85445 0.53688 -0.09600
C 	C 	0.96869 0.77272 0.48584 -0.05100
H 	H 	0.96670 0.69820 0.46530 0.03900
H 	H 	0.97140 0.76160 0.53130 0.04300
C 	C 	0.06208 0.79291 0.53692 -0.02800
H 	H 	0.06560 0.71310 0.52740 0.03200
H 	H 	0.06270 0.79720 0.58170 0.03600
C 	C 	0.11129 0.96552 0.56447 -0.02200
H 	H 	0.11070 0.96140 0.60860 0.03900
H 	H 	0.14500 0.99270 0.57110 0.04800
C 	C 	0.07803 0.15935 0.55473 -0.07600
H 	H 	0.08150 0.15060 0.60070 0.04000
H 	H 	0.10840 0.19800 0.55620 0.05500
C 	C 	0.11256 0.84110 0.47633 -0.15200
H 	H 	0.08980 0.78220 0.44820 0.07900
H 	H 	0.10400 0.91220 0.45100 0.08700
C 	C 	0.16635 0.81010 0.49156 0.11200
H 	H 	0.18940 0.86730 0.52120 -0.00700
H 	H 	0.17460 0.73720 0.51490 -0.00300
C 	C 	0.17410 0.80220 0.42788 -0.48700
H 	H 	0.17170 0.87710 0.40880 0.17200
H 	H 	0.20740 0.77050 0.43800 0.16000
H 	H 	0.14810 0.75370 0.39600 0.16600
N 	N 	0.20985 0.72321 0.05502 -0.22700
H 	H 	0.17480 0.75080 0.02860 0.07700
N 	N 	0.21950 0.60810 0.94950 -0.15900
H 	H 	0.18500 0.62630 0.91500 -0.23300
N 	N 	0.18528 0.54630 0.02740 0.03000
C 	C 	0.25090 0.57530 0.91540 -0.08200
H 	H 	0.28220 0.53900 0.94700 0.04800
H 	H 	0.23250 0.52160 0.87930 0.02200
C 	C 	0.21460 0.51650 0.99250 -0.02600
H 	H 	0.24870 0.49460 0.02500 0.05900
H 	H 	0.19920 0.45030 0.96440 0.05100
C 	C 	0.20730 0.62510 0.08050 -0.05300
H 	H 	0.24140 0.60000 0.11120 0.03300
H 	H 	0.18650 0.63100 0.10570 0.02000
C 	C 	0.23670 0.81850 0.11310 0.00100
H 	H 	0.26790 0.78730 0.14790 -0.01000
H 	H 	0.21370 0.83750 0.13390 0.01900
C 	C 	0.13110 0.56580 0.98860 -0.39200
H 	H 	0.12540 0.56520 0.94140 0.17000
H 	H 	0.12460 0.64340 0.99860 0.05500
C 	C 	0.09977 0.51170 0.99170 0.07300
H 	H 	0.11430 0.43700 0.00830 0.14200
H 	H 	0.09050 0.54540 0.02570 -0.03800
C 	C 	0.04480 0.49130 0.92110 -0.25100
H 	H 	0.04260 0.41280 0.90720 0.04400
H 	H 	0.01590 0.50960 0.93050 0.09700
H 	H 	0.04470 0.53990 0.88560 0.05100
O 	O 	0.02030 0.96696 0.60310 -0.37900
O 	O 	0.00115 0.12063 0.64558 -0.29600
O 	O 	0.19015 0.83965 0.92636 -0.38600
O 	O 	0.12491 0.83803 0.95349 -0.28500
C 	C 	0.02045 0.02623 0.65026 0.27900
C 	C 	0.04982 0.97855 0.71894 -0.05100
C 	C 	0.10199 0.97362 0.74107 -0.03100
H 	H 	0.11670 0.99750 0.71250 0.04000
C 	C 	0.13264 0.93469 0.80371 -0.02300
H 	H 	0.16810 0.93220 0.81790 0.03900
C 	C 	0.11146 0.89904 0.84604 -0.07500
C 	C 	0.05943 0.90356 0.82414 -0.02800
H 	H 	0.04500 0.87870 0.85280 0.04400
C 	C 	0.02771 0.94378 0.76098 -0.01000
C 	C 	0.14454 0.85534 0.91432 0.31900
N 	N 	0.22720 0.60950 0.93790 -0.07300
H 	H 	0.19300 0.62560 0.90220 0.30200
N 	N 	0.18965 0.51790 0.00570 -0.11500
C 	C 	0.26180 0.60560 0.90770 -0.03800
H 	H 	0.29390 0.57190 0.93900 0.02000
H 	H 	0.24770 0.55760 0.86770 0.02800
C 	C 	0.22310 0.50870 0.97330 0.15800
H 	H 	0.25710 0.48930 0.00710 -0.09600
H 	H 	0.21150 0.44590 0.94130 -0.04100
C 	C 	0.20690 0.58700 0.06420 -0.01100
H 	H 	0.18460 0.57330 0.08660 0.04400
H 	H 	0.24100 0.56090 0.09460 0.01000
C 	C 	0.22820 0.77770 0.11170 -0.06100
H 	H 	0.20360 0.78020 0.13140 0.02800
H 	H 	0.25970 0.74240 0.14370 0.04300
C 	C 	0.13612 0.53070 0.95940 -0.31200
H 	H 	0.13520 0.53640 0.91450 0.04400
H 	H 	0.12550 0.60460 0.96910 0.25900
C 	C 	0.10430 0.46710 0.95520 0.36100
H 	H 	0.10130 0.41440 0.91930 -0.08200
H 	H 	0.11810 0.42300 0.99670 -0.20100
C 	C 	0.04670 0.49830 0.94220 -0.26700
H 	H 	0.03700 0.56940 0.91800 0.10900
H 	H 	0.02390 0.43880 0.91600 0.12100
H 	H 	0.04450 0.50540 0.98480 0.08700
N 	N 	0.51318 0.33470 0.48801 -0.23400
H 	H 	0.51330 0.32730 0.44330 0.09600
N 	N 	0.57291 0.54886 0.52323 -0.22800
H 	H 	0.57650 0.55910 0.48080 0.09600
N 	N 	0.60430 0.35445 0.53688 -0.09500
C 	C 	0.46869 0.27272 0.48584 -0.07500
H 	H 	0.46670 0.19820 0.46530 0.03600
H 	H 	0.47140 0.26160 0.53130 0.04400
C 	C 	0.56208 0.29291 0.53692 -0.03100
H 	H 	0.56560 0.21310 0.52740 0.03500
H 	H 	0.56270 0.29720 0.58170 0.04000
C 	C 	0.61129 0.46552 0.56447 -0.03400
H 	H 	0.61070 0.46140 0.60860 0.04000
H 	H 	0.64500 0.49270 0.57110 0.04500
C 	C 	0.57803 0.65935 0.55473 -0.08500
H 	H 	0.58150 0.65060 0.60070 0.04900
H 	H 	0.60840 0.69800 0.55620 0.06000
C 	C 	0.61256 0.34110 0.47633 -0.15100
H 	H 	0.58980 0.28220 0.44820 0.08000
H 	H 	0.60400 0.41220 0.45100 0.08300
C 	C 	0.66635 0.31010 0.49156 0.11000
H 	H 	0.68940 0.36730 0.52120 -0.00900
H 	H 	0.67460 0.23720 0.51490 -0.00200
C 	C 	0.67410 0.30220 0.42788 -0.48000
H 	H 	0.67170 0.37710 0.40880 0.16600
H 	H 	0.70740 0.27050 0.43800 0.15700
H 	H 	0.64810 0.25370 0.39600 0.16400
N 	N 	0.70985 0.22321 0.05502 -0.22800
H 	H 	0.67480 0.25080 0.02860 0.07600
N 	N 	0.71950 0.10810 0.94950 -0.15600
H 	H 	0.68500 0.12630 0.91500 -0.20800
N 	N 	0.68528 0.04630 0.02740 0.02100
C 	C 	0.75090 0.07530 0.91540 -0.08300
H 	H 	0.78220 0.03900 0.94700 0.04300
H 	H 	0.73250 0.02160 0.87930 0.02000
C 	C 	0.71460 0.01650 0.99250 -0.05600
H 	H 	0.74870 0.99460 0.02500 0.07900
H 	H 	0.69920 0.95030 0.96440 0.07100
C 	C 	0.70730 0.12510 0.08050 -0.04400
H 	H 	0.74140 0.10000 0.11120 0.03200
H 	H 	0.68650 0.13100 0.10570 0.01700
C 	C 	0.73670 0.31850 0.11310 0.00100
H 	H 	0.76790 0.28730 0.14790 -0.01000
H 	H 	0.71370 0.33750 0.13390 0.01700
C 	C 	0.63110 0.06580 0.98860 -0.41100
H 	H 	0.62540 0.06520 0.94140 0.15200
H 	H 	0.62460 0.14340 0.99860 0.05500
C 	C 	0.59977 0.01170 0.99170 0.03500
H 	H 	0.61430 0.93700 0.00830 0.11000
H 	H 	0.59050 0.04540 0.02570 -0.02500
C 	C 	0.54480 0.99130 0.92110 -0.20200
H 	H 	0.54260 0.91280 0.90720 0.03600
H 	H 	0.51590 0.00960 0.93050 0.07700
H 	H 	0.54470 0.03990 0.88560 0.03700
O 	O 	0.52030 0.46696 0.60310 -0.39500
O 	O 	0.50115 0.62063 0.64558 -0.28500
O 	O 	0.69015 0.33965 0.92636 -0.38700
O 	O 	0.62491 0.33803 0.95349 -0.28500
C 	C 	0.52045 0.52623 0.65026 0.32800
C 	C 	0.54982 0.47855 0.71894 -0.08700
C 	C 	0.60199 0.47362 0.74107 -0.00700
H 	H 	0.61670 0.49750 0.71250 0.02800
C 	C 	0.63264 0.43469 0.80371 -0.04300
H 	H 	0.66810 0.43220 0.81790 0.04300
C 	C 	0.61146 0.39904 0.84604 -0.06200
C 	C 	0.55943 0.40356 0.82414 -0.05200
H 	H 	0.54500 0.37870 0.85280 0.05700
C 	C 	0.52771 0.44378 0.76098 0.03300
C 	C 	0.64454 0.35534 0.91432 0.31200
N 	N 	0.72720 0.10950 0.93790 -0.06900
H 	H 	0.69300 0.12560 0.90220 0.27600
N 	N 	0.68965 0.01790 0.00570 -0.10300
C 	C 	0.76180 0.10560 0.90770 -0.03400
H 	H 	0.79390 0.07190 0.93900 0.01800
H 	H 	0.74770 0.05760 0.86770 0.02500
C 	C 	0.72310 0.00870 0.97330 0.12700
H 	H 	0.75710 0.98930 0.00710 -0.08800
H 	H 	0.71150 0.94590 0.94130 -0.03100
C 	C 	0.70690 0.08700 0.06420 -0.01300
H 	H 	0.68460 0.07330 0.08660 0.04300
H 	H 	0.74100 0.06090 0.09460 0.00700
C 	C 	0.72820 0.27770 0.11170 -0.06300
H 	H 	0.70360 0.28020 0.13140 0.02800
H 	H 	0.75970 0.24240 0.14370 0.04300
C 	C 	0.63612 0.03070 0.95940 -0.29100
H 	H 	0.63520 0.03640 0.91450 0.04000
H 	H 	0.62550 0.10460 0.96910 0.27500
C 	C 	0.60430 0.96710 0.95520 0.37200
H 	H 	0.60130 0.91440 0.91930 -0.08200
H 	H 	0.61810 0.92300 0.99670 -0.15600
C 	C 	0.54670 0.99830 0.94220 -0.23700
H 	H 	0.53700 0.06940 0.91800 0.09500
H 	H 	0.52390 0.93880 0.91600 0.11800
H 	H 	0.54450 0.00540 0.98480 0.07600
Ni	Ni	-0.00000 0.00000 -0.00000 1.05800
Ni	Ni	0.50000 0.50000 -0.00000 1.07500
Ni	Ni	0.00000 0.00000 0.50000 1.07500
Ni	Ni	0.50000 0.50000 0.50000 1.09400
Ni	Ni	0.25000 0.25000 0.50000 1.09800
Ni	Ni	0.75000 0.25000 -0.00000 1.07900
Ni	Ni	0.75000 0.75000 0.50000 1.09800
Ni	Ni	0.25000 0.75000 -0.00000 1.07900
