data_crystal

_cell_length_a 13.72470
_cell_length_b 27.78700
_cell_length_c 45.88100
_cell_angle_alpha 90.00000
_cell_angle_beta  90.00000
_cell_angle_gamma 90.00000

_symmetry_space_group_name_	'P 1'
_symmetry_space_group_name_H-M	'P 1'

loop_
_symmetry_equiv_pos_as_xyz
  x,y,z

loop_
_atom_site_label
_atom_site_type_symbol
_atom_site_fract_x
_atom_site_fract_y
_atom_site_fract_z
_atom_site_charge
Zn	Zn	0.84829 0.74554 0.81349 1.16400
Zn	Zn	0.14432 0.94750 0.57474 1.16200
Zn	Zn	0.14154 0.47252 0.59039 1.16300
Zn	Zn	0.15171 0.75446 0.31349 1.16300
Zn	Zn	0.85568 0.55250 0.07474 1.16100
Zn	Zn	0.85846 0.02748 0.09039 1.16300
Zn	Zn	0.34829 0.25446 0.68651 1.16300
Zn	Zn	0.64432 0.05250 0.92526 1.16100
Zn	Zn	0.64154 0.52748 0.90961 1.16300
Zn	Zn	0.65171 0.24554 0.18651 1.16300
Zn	Zn	0.35568 0.44750 0.42526 1.16100
Zn	Zn	0.35846 0.97252 0.40961 1.16300
H 	H 	0.95030 0.80600 0.76850 0.00100
H 	H 	0.00770 0.79900 0.72080 0.07900
H 	H 	0.98450 0.65400 0.72910 0.07900
H 	H 	0.92490 0.66520 0.77590 -0.00900
H 	H 	0.04600 0.84790 0.66090 0.07900
H 	H 	0.07190 0.91590 0.63320 -0.01100
H 	H 	0.13620 0.83870 0.56410 -0.01500
H 	H 	0.10790 0.76800 0.58910 0.07900
H 	H 	0.08790 0.65120 0.59340 0.07900
H 	H 	0.11070 0.57580 0.57280 -0.00600
H 	H 	0.08360 0.51300 0.64920 -0.00600
H 	H 	0.05560 0.58620 0.67180 0.07900
H 	H 	0.80940 0.68860 0.86660 -0.00700
H 	H 	0.89110 0.65220 0.90540 0.07900
H 	H 	0.14640 0.68360 0.86560 0.07800
H 	H 	0.05820 0.72190 0.82930 -0.01500
H 	H 	0.89150 0.61760 0.97260 0.07800
H 	H 	0.13540 0.55570 0.00500 0.09000
H 	H 	0.34590 0.57090 0.96910 0.08400
H 	H 	0.32630 0.60680 0.88400 0.09400
H 	H 	0.04990 0.53480 0.04590 -0.00800
H 	H 	0.81190 0.59470 0.01520 -0.00600
H 	H 	0.50350 0.54260 0.96060 -0.00300
H 	H 	0.48400 0.57820 0.87740 -0.00800
H 	H 	0.04970 0.69400 0.26850 0.00100
H 	H 	0.99230 0.70100 0.22080 0.07900
H 	H 	0.01550 0.84600 0.22910 0.07900
H 	H 	0.07510 0.83480 0.27590 -0.00900
H 	H 	0.95400 0.65210 0.16090 0.07900
H 	H 	0.92810 0.58410 0.13320 -0.01100
H 	H 	0.86380 0.66130 0.06410 -0.01500
H 	H 	0.89210 0.73200 0.08910 0.07900
H 	H 	0.91210 0.84880 0.09340 0.07900
H 	H 	0.88930 0.92420 0.07280 -0.00600
H 	H 	0.91640 0.98700 0.14920 -0.00600
H 	H 	0.94440 0.91380 0.17180 0.07900
H 	H 	0.19060 0.81140 0.36660 -0.00700
H 	H 	0.10890 0.84780 0.40540 0.07900
H 	H 	0.85360 0.81640 0.36560 0.07900
H 	H 	0.94180 0.77810 0.32930 -0.01500
H 	H 	0.10850 0.88240 0.47260 0.07800
H 	H 	0.86460 0.94430 0.50500 0.09000
H 	H 	0.65410 0.92910 0.46910 0.08400
H 	H 	0.67370 0.89320 0.38400 0.09400
H 	H 	0.95010 0.96520 0.54590 -0.00900
H 	H 	0.18810 0.90530 0.51520 -0.00600
H 	H 	0.49650 0.95740 0.46060 -0.00300
H 	H 	0.51600 0.92180 0.37740 -0.00800
H 	H 	0.45030 0.19400 0.73150 0.00100
H 	H 	0.50770 0.20100 0.77920 0.07900
H 	H 	0.48450 0.34600 0.77090 0.07900
H 	H 	0.42490 0.33480 0.72410 -0.00900
H 	H 	0.54600 0.15210 0.83910 0.07900
H 	H 	0.57190 0.08410 0.86680 -0.01100
H 	H 	0.63620 0.16130 0.93590 -0.01500
H 	H 	0.60790 0.23200 0.91090 0.07900
H 	H 	0.58790 0.34880 0.90660 0.07900
H 	H 	0.61070 0.42420 0.92720 -0.00600
H 	H 	0.58360 0.48700 0.85080 -0.00600
H 	H 	0.55560 0.41380 0.82820 0.07900
H 	H 	0.30940 0.31140 0.63340 -0.00700
H 	H 	0.39110 0.34780 0.59460 0.07900
H 	H 	0.64640 0.31640 0.63440 0.07900
H 	H 	0.55820 0.27810 0.67070 -0.01500
H 	H 	0.39150 0.38240 0.52740 0.07800
H 	H 	0.63540 0.44430 0.49500 0.09000
H 	H 	0.84590 0.42910 0.53090 0.08400
H 	H 	0.82630 0.39320 0.61600 0.09400
H 	H 	0.54990 0.46520 0.45410 -0.00800
H 	H 	0.31190 0.40530 0.48480 -0.00600
H 	H 	0.00350 0.45740 0.53940 -0.00300
H 	H 	0.98400 0.42180 0.62260 -0.00800
H 	H 	0.54970 0.30600 0.23150 0.00100
H 	H 	0.49230 0.29900 0.27920 0.07900
H 	H 	0.51550 0.15400 0.27090 0.07900
H 	H 	0.57510 0.16520 0.22410 -0.00900
H 	H 	0.45400 0.34790 0.33910 0.07900
H 	H 	0.42810 0.41590 0.36680 -0.01100
H 	H 	0.36380 0.33870 0.43590 -0.01500
H 	H 	0.39210 0.26800 0.41090 0.07900
H 	H 	0.41210 0.15120 0.40660 0.07900
H 	H 	0.38930 0.07580 0.42720 -0.00600
H 	H 	0.41640 0.01300 0.35080 -0.00600
H 	H 	0.44440 0.08620 0.32820 0.07900
H 	H 	0.69060 0.18860 0.13340 -0.00700
H 	H 	0.60890 0.15220 0.09460 0.07900
H 	H 	0.35360 0.18360 0.13440 0.07900
H 	H 	0.44180 0.22190 0.17070 -0.01500
H 	H 	0.60850 0.11760 0.02740 0.07800
H 	H 	0.36460 0.05570 0.99500 0.09000
H 	H 	0.15410 0.07090 0.03090 0.08400
H 	H 	0.17370 0.10680 0.11600 0.09400
H 	H 	0.45010 0.03480 0.95410 -0.00800
H 	H 	0.68810 0.09470 0.98480 -0.00600
H 	H 	0.99650 0.04260 0.03940 -0.00400
H 	H 	0.01600 0.07820 0.12260 -0.00800
C 	C 	0.95540 0.77490 0.76005 0.05800
C 	C 	0.99020 0.77110 0.73168 -0.10800
C 	C 	0.99860 0.72590 0.71975 0.04800
C 	C 	0.97600 0.68560 0.73661 -0.11400
C 	C 	0.94100 0.69260 0.76447 0.06300
C 	C 	0.02700 0.71990 0.68855 0.10300
C 	C 	0.06120 0.75610 0.64552 0.10200
C 	C 	0.05990 0.67420 0.64880 0.09800
C 	C 	0.07580 0.80000 0.62807 0.05000
C 	C 	0.06440 0.84510 0.64097 -0.11500
C 	C 	0.08030 0.88530 0.62432 0.06200
C 	C 	0.11720 0.84040 0.58397 0.06900
C 	C 	0.10140 0.79800 0.59878 -0.11800
C 	C 	0.07070 0.62730 0.63506 0.04900
C 	C 	0.08670 0.62330 0.60532 -0.11000
C 	C 	0.10100 0.57810 0.59330 0.06500
C 	C 	0.08460 0.54140 0.63780 0.06500
C 	C 	0.06830 0.58500 0.65140 -0.11100
C 	C 	0.87860 0.68820 0.86666 0.06200
C 	C 	0.92680 0.66600 0.88976 -0.10800
C 	C 	0.02750 0.66420 0.88950 0.05900
C 	C 	0.07730 0.68470 0.86650 -0.12100
C 	C 	0.02380 0.70710 0.84490 0.07400
C 	C 	0.07950 0.64060 0.91386 0.10400
C 	C 	0.07810 0.60590 0.95819 0.09900
C 	C 	0.21660 0.60680 0.93178 0.09200
C 	C 	0.02440 0.59080 0.98492 0.05200
C 	C 	0.92570 0.60130 0.98766 -0.11300
C 	C 	0.06900 0.56480 0.00680 -0.12600
C 	C 	0.31990 0.59110 0.92710 0.05400
C 	C 	0.37310 0.57230 0.95010 -0.12000
C 	C 	0.36140 0.59360 0.90000 -0.12400
C 	C 	0.01750 0.55230 0.03098 0.07200
C 	C 	0.87900 0.58720 0.01304 0.06700
C 	C 	0.46680 0.55560 0.94490 0.06800
C 	C 	0.45530 0.57640 0.89620 0.06800
C 	C 	0.04460 0.72510 0.26005 0.05800
C 	C 	0.00980 0.72890 0.23168 -0.10900
C 	C 	0.00140 0.77410 0.21975 0.04800
C 	C 	0.02400 0.81440 0.23661 -0.11400
C 	C 	0.05900 0.80740 0.26447 0.06300
C 	C 	0.97300 0.78010 0.18855 0.10300
C 	C 	0.93880 0.74390 0.14552 0.10200
C 	C 	0.94010 0.82580 0.14880 0.09800
C 	C 	0.92420 0.70000 0.12807 0.05000
C 	C 	0.93560 0.65490 0.14097 -0.11500
C 	C 	0.91970 0.61470 0.12432 0.06200
C 	C 	0.88280 0.65960 0.08397 0.07000
C 	C 	0.89860 0.70200 0.09878 -0.11800
C 	C 	0.92930 0.87270 0.13506 0.04900
C 	C 	0.91330 0.87670 0.10532 -0.11000
C 	C 	0.89900 0.92190 0.09330 0.06500
C 	C 	0.91540 0.95860 0.13780 0.06500
C 	C 	0.93170 0.91500 0.15140 -0.11100
C 	C 	0.12140 0.81180 0.36666 0.06300
C 	C 	0.07320 0.83400 0.38976 -0.10900
C 	C 	0.97250 0.83580 0.38950 0.06000
C 	C 	0.92270 0.81530 0.36650 -0.12200
C 	C 	0.97620 0.79290 0.34490 0.07500
C 	C 	0.92050 0.85940 0.41386 0.10400
C 	C 	0.92190 0.89410 0.45819 0.09900
C 	C 	0.78340 0.89320 0.43178 0.09200
C 	C 	0.97560 0.90920 0.48492 0.05300
C 	C 	0.07430 0.89870 0.48766 -0.11500
C 	C 	0.93100 0.93520 0.50680 -0.12700
C 	C 	0.68010 0.90890 0.42710 0.05400
C 	C 	0.62690 0.92770 0.45010 -0.12000
C 	C 	0.63860 0.90640 0.40000 -0.12400
C 	C 	0.98250 0.94770 0.53098 0.07300
C 	C 	0.12100 0.91280 0.51304 0.06700
C 	C 	0.53320 0.94440 0.44490 0.06800
C 	C 	0.54470 0.92360 0.39620 0.06800
C 	C 	0.45540 0.22510 0.73995 0.05800
C 	C 	0.49020 0.22890 0.76832 -0.10900
C 	C 	0.49860 0.27410 0.78025 0.04900
C 	C 	0.47600 0.31440 0.76339 -0.11400
C 	C 	0.44100 0.30740 0.73553 0.06300
C 	C 	0.52700 0.28010 0.81145 0.10300
C 	C 	0.56120 0.24390 0.85448 0.10200
C 	C 	0.55990 0.32580 0.85120 0.09800
C 	C 	0.57580 0.20000 0.87193 0.05000
C 	C 	0.56440 0.15490 0.85903 -0.11500
C 	C 	0.58030 0.11470 0.87568 0.06200
C 	C 	0.61720 0.15960 0.91603 0.06900
C 	C 	0.60140 0.20200 0.90122 -0.11800
C 	C 	0.57070 0.37270 0.86494 0.04900
C 	C 	0.58670 0.37670 0.89468 -0.11000
C 	C 	0.60100 0.42190 0.90670 0.06500
C 	C 	0.58460 0.45860 0.86220 0.06500
C 	C 	0.56830 0.41500 0.84860 -0.11100
C 	C 	0.37860 0.31180 0.63334 0.06300
C 	C 	0.42680 0.33400 0.61024 -0.10800
C 	C 	0.52750 0.33580 0.61050 0.05900
C 	C 	0.57730 0.31530 0.63350 -0.12200
C 	C 	0.52380 0.29290 0.65510 0.07400
C 	C 	0.57950 0.35940 0.58614 0.10400
C 	C 	0.57810 0.39410 0.54181 0.09900
C 	C 	0.71660 0.39320 0.56822 0.09200
C 	C 	0.52440 0.40920 0.51508 0.05300
C 	C 	0.42570 0.39870 0.51234 -0.11400
C 	C 	0.56900 0.43520 0.49320 -0.12600
C 	C 	0.81990 0.40890 0.57290 0.05400
C 	C 	0.87310 0.42770 0.54990 -0.12000
C 	C 	0.86140 0.40640 0.60000 -0.12400
C 	C 	0.51750 0.44770 0.46902 0.07300
C 	C 	0.37900 0.41280 0.48696 0.06700
C 	C 	0.96680 0.44440 0.55510 0.06800
C 	C 	0.95530 0.42360 0.60380 0.06800
C 	C 	0.54460 0.27490 0.23995 0.05800
C 	C 	0.50980 0.27110 0.26832 -0.10900
C 	C 	0.50140 0.22590 0.28025 0.04900
C 	C 	0.52400 0.18560 0.26339 -0.11400
C 	C 	0.55900 0.19260 0.23553 0.06300
C 	C 	0.47300 0.21990 0.31145 0.10300
C 	C 	0.43880 0.25610 0.35448 0.10200
C 	C 	0.44010 0.17420 0.35120 0.09800
C 	C 	0.42420 0.30000 0.37193 0.05000
C 	C 	0.43560 0.34510 0.35903 -0.11500
C 	C 	0.41970 0.38530 0.37568 0.06200
C 	C 	0.38280 0.34040 0.41603 0.07000
C 	C 	0.39860 0.29800 0.40122 -0.11800
C 	C 	0.42930 0.12730 0.36494 0.04900
C 	C 	0.41330 0.12330 0.39468 -0.11000
C 	C 	0.39900 0.07810 0.40670 0.06500
C 	C 	0.41540 0.04140 0.36220 0.06500
C 	C 	0.43170 0.08500 0.34860 -0.11100
C 	C 	0.62140 0.18820 0.13334 0.06300
C 	C 	0.57320 0.16600 0.11024 -0.10800
C 	C 	0.47250 0.16420 0.11050 0.05900
C 	C 	0.42270 0.18470 0.13350 -0.12200
C 	C 	0.47620 0.20710 0.15510 0.07400
C 	C 	0.42050 0.14060 0.08614 0.10400
C 	C 	0.42190 0.10590 0.04181 0.09900
C 	C 	0.28340 0.10680 0.06822 0.09200
C 	C 	0.47560 0.09080 0.01508 0.05300
C 	C 	0.57430 0.10130 0.01234 -0.11400
C 	C 	0.43100 0.06480 0.99320 -0.12600
C 	C 	0.18010 0.09110 0.07290 0.05400
C 	C 	0.12690 0.07230 0.04990 -0.12100
C 	C 	0.13860 0.09360 0.10000 -0.12500
C 	C 	0.48250 0.05230 0.96902 0.07300
C 	C 	0.62100 0.08720 0.98696 0.06700
C 	C 	0.03320 0.05560 0.05510 0.07000
C 	C 	0.04470 0.07640 0.10380 0.06900
I 	I 	0.83950 0.83544 0.82480 -0.37400
I 	I 	0.69096 0.69735 0.80666 -0.36900
I 	I 	0.05080 0.01406 0.60107 -0.36300
I 	I 	0.32775 0.94213 0.56675 -0.38100
I 	I 	0.22459 0.42602 0.63142 -0.36100
I 	I 	0.22266 0.48921 0.54132 -0.38800
I 	I 	0.16050 0.66456 0.32480 -0.37400
I 	I 	0.30904 0.80265 0.30666 -0.36900
I 	I 	0.94920 0.48594 0.10107 -0.36400
I 	I 	0.67225 0.55787 0.06675 -0.38100
I 	I 	0.77541 0.07398 0.13142 -0.36100
I 	I 	0.77734 0.01079 0.04132 -0.38800
I 	I 	0.33950 0.16456 0.67520 -0.37400
I 	I 	0.19096 0.30265 0.69334 -0.36900
I 	I 	0.55080 0.98594 0.89893 -0.36400
I 	I 	0.82775 0.05787 0.93325 -0.38100
I 	I 	0.72459 0.57398 0.86858 -0.36100
I 	I 	0.72266 0.51079 0.95868 -0.38800
I 	I 	0.66050 0.33544 0.17520 -0.37400
I 	I 	0.80904 0.19735 0.19334 -0.37000
I 	I 	0.44920 0.51406 0.39893 -0.36400
I 	I 	0.17225 0.44213 0.43325 -0.38100
I 	I 	0.27541 0.92602 0.36858 -0.36100
I 	I 	0.27734 0.98921 0.45868 -0.38800
N 	N 	0.92880 0.73660 0.77598 -0.26900
N 	N 	0.03940 0.76130 0.67353 -0.13900
N 	N 	0.07250 0.71340 0.63190 -0.13700
N 	N 	0.03570 0.67600 0.67753 -0.13800
N 	N 	0.10700 0.88400 0.59627 -0.27000
N 	N 	0.10170 0.53750 0.60913 -0.26800
N 	N 	0.92660 0.70900 0.84455 -0.27400
N 	N 	0.02810 0.62920 0.93779 -0.13700
N 	N 	0.17230 0.59380 0.95684 -0.14300
N 	N 	0.17500 0.63090 0.90974 -0.13300
N 	N 	0.92340 0.56360 0.03478 -0.27100
N 	N 	0.50690 0.55750 0.91817 -0.27100
N 	N 	0.07120 0.76340 0.27598 -0.27000
N 	N 	0.96060 0.73870 0.17353 -0.13900
N 	N 	0.92750 0.78660 0.13190 -0.13700
N 	N 	0.96430 0.82400 0.17753 -0.13800
N 	N 	0.89300 0.61600 0.09627 -0.27000
N 	N 	0.89830 0.96250 0.10913 -0.26800
N 	N 	0.07340 0.79100 0.34455 -0.27400
N 	N 	0.97190 0.87080 0.43779 -0.13600
N 	N 	0.82770 0.90620 0.45684 -0.14300
N 	N 	0.82500 0.86910 0.40974 -0.13300
N 	N 	0.07660 0.93640 0.53478 -0.27200
N 	N 	0.49310 0.94250 0.41817 -0.27100
N 	N 	0.42880 0.26340 0.72402 -0.27000
N 	N 	0.53940 0.23870 0.82647 -0.13900
N 	N 	0.57250 0.28660 0.86810 -0.13700
N 	N 	0.53570 0.32400 0.82247 -0.13800
N 	N 	0.60700 0.11600 0.90373 -0.27000
N 	N 	0.60170 0.46250 0.89087 -0.26800
N 	N 	0.42660 0.29100 0.65545 -0.27400
N 	N 	0.52810 0.37080 0.56221 -0.13600
N 	N 	0.67230 0.40620 0.54316 -0.14300
N 	N 	0.67500 0.36910 0.59026 -0.13300
N 	N 	0.42340 0.43640 0.46522 -0.27100
N 	N 	0.00690 0.44250 0.58183 -0.27100
N 	N 	0.57120 0.23660 0.22402 -0.27000
N 	N 	0.46060 0.26130 0.32647 -0.13900
N 	N 	0.42750 0.21340 0.36810 -0.13700
N 	N 	0.46430 0.17600 0.32247 -0.13800
N 	N 	0.39300 0.38400 0.40373 -0.27000
N 	N 	0.39830 0.03750 0.39087 -0.26800
N 	N 	0.57340 0.20900 0.15545 -0.27400
N 	N 	0.47190 0.12920 0.06221 -0.13600
N 	N 	0.32770 0.09380 0.04316 -0.14300
N 	N 	0.32500 0.13090 0.09026 -0.13300
N 	N 	0.57660 0.06360 0.96522 -0.27100
N 	N 	0.99310 0.05750 0.08183 -0.27200
Zn	Zn	0.15171 0.25446 0.18651 1.16300
Zn	Zn	0.85568 0.05250 0.42526 1.16100
Zn	Zn	0.85846 0.52748 0.40961 1.16300
Zn	Zn	0.84829 0.24554 0.68651 1.16300
Zn	Zn	0.14432 0.44750 0.92526 1.16100
Zn	Zn	0.14154 0.97252 0.90961 1.16300
Zn	Zn	0.65171 0.74554 0.31349 1.16300
Zn	Zn	0.35568 0.94750 0.07474 1.16100
Zn	Zn	0.35846 0.47252 0.09039 1.16300
Zn	Zn	0.34829 0.75446 0.81349 1.16300
Zn	Zn	0.64432 0.55250 0.57474 1.16100
Zn	Zn	0.64154 0.02748 0.59039 1.16300
H 	H 	0.04970 0.19400 0.23150 0.00100
H 	H 	0.99230 0.20100 0.27920 0.07900
H 	H 	0.01550 0.34600 0.27090 0.07900
H 	H 	0.07510 0.33480 0.22410 -0.00900
H 	H 	0.95400 0.15210 0.33910 0.07900
H 	H 	0.92810 0.08410 0.36680 -0.01100
H 	H 	0.86380 0.16130 0.43590 -0.01500
H 	H 	0.89210 0.23200 0.41090 0.07900
H 	H 	0.91210 0.34880 0.40660 0.07900
H 	H 	0.88930 0.42420 0.42720 -0.00600
H 	H 	0.91640 0.48700 0.35080 -0.00600
H 	H 	0.94440 0.41380 0.32820 0.07900
H 	H 	0.19060 0.31140 0.13340 -0.00700
H 	H 	0.10890 0.34780 0.09460 0.07900
H 	H 	0.85360 0.31640 0.13440 0.07800
H 	H 	0.94180 0.27810 0.17070 -0.01500
H 	H 	0.10850 0.38240 0.02740 0.07800
H 	H 	0.86460 0.44430 0.99500 0.09000
H 	H 	0.65410 0.42910 0.03090 0.08400
H 	H 	0.67370 0.39320 0.11600 0.09400
H 	H 	0.95010 0.46520 0.95410 -0.00800
H 	H 	0.18810 0.40530 0.98480 -0.00600
H 	H 	0.49650 0.45740 0.03940 -0.00300
H 	H 	0.51600 0.42180 0.12260 -0.00800
H 	H 	0.95030 0.30600 0.73150 0.00100
H 	H 	0.00770 0.29900 0.77920 0.07900
H 	H 	0.98450 0.15400 0.77090 0.07900
H 	H 	0.92490 0.16520 0.72410 -0.00900
H 	H 	0.04600 0.34790 0.83910 0.07900
H 	H 	0.07190 0.41590 0.86680 -0.01100
H 	H 	0.13620 0.33870 0.93590 -0.01500
H 	H 	0.10790 0.26800 0.91090 0.07900
H 	H 	0.08790 0.15120 0.90660 0.07900
H 	H 	0.11070 0.07580 0.92720 -0.00600
H 	H 	0.08360 0.01300 0.85080 -0.00600
H 	H 	0.05560 0.08620 0.82820 0.07900
H 	H 	0.80940 0.18860 0.63340 -0.00700
H 	H 	0.89110 0.15220 0.59460 0.07900
H 	H 	0.14640 0.18360 0.63440 0.07900
H 	H 	0.05820 0.22190 0.67070 -0.01500
H 	H 	0.89150 0.11760 0.52740 0.07800
H 	H 	0.13540 0.05570 0.49500 0.09000
H 	H 	0.34590 0.07090 0.53090 0.08400
H 	H 	0.32630 0.10680 0.61600 0.09400
H 	H 	0.04990 0.03480 0.45410 -0.00900
H 	H 	0.81190 0.09470 0.48480 -0.00600
H 	H 	0.50350 0.04260 0.53940 -0.00300
H 	H 	0.48400 0.07820 0.62260 -0.00800
H 	H 	0.54970 0.80600 0.26850 0.00100
H 	H 	0.49230 0.79900 0.22080 0.07900
H 	H 	0.51550 0.65400 0.22910 0.07900
H 	H 	0.57510 0.66520 0.27590 -0.00900
H 	H 	0.45400 0.84790 0.16090 0.07900
H 	H 	0.42810 0.91590 0.13320 -0.01100
H 	H 	0.36380 0.83870 0.06410 -0.01500
H 	H 	0.39210 0.76800 0.08910 0.07900
H 	H 	0.41210 0.65120 0.09340 0.07900
H 	H 	0.38930 0.57580 0.07280 -0.00600
H 	H 	0.41640 0.51300 0.14920 -0.00600
H 	H 	0.44440 0.58620 0.17180 0.07900
H 	H 	0.69060 0.68860 0.36660 -0.00700
H 	H 	0.60890 0.65220 0.40540 0.07900
H 	H 	0.35360 0.68360 0.36560 0.07900
H 	H 	0.44180 0.72190 0.32930 -0.01500
H 	H 	0.60850 0.61760 0.47260 0.07800
H 	H 	0.36460 0.55570 0.50500 0.09000
H 	H 	0.15410 0.57090 0.46910 0.08400
H 	H 	0.17370 0.60680 0.38400 0.09400
H 	H 	0.45010 0.53480 0.54590 -0.00800
H 	H 	0.68810 0.59470 0.51520 -0.00600
H 	H 	0.99650 0.54260 0.46060 -0.00300
H 	H 	0.01600 0.57820 0.37740 -0.00800
H 	H 	0.45030 0.69400 0.76850 0.00100
H 	H 	0.50770 0.70100 0.72080 0.07900
H 	H 	0.48450 0.84600 0.72910 0.07900
H 	H 	0.42490 0.83480 0.77590 -0.00900
H 	H 	0.54600 0.65210 0.66090 0.07900
H 	H 	0.57190 0.58410 0.63320 -0.01100
H 	H 	0.63620 0.66130 0.56410 -0.01500
H 	H 	0.60790 0.73200 0.58910 0.07900
H 	H 	0.58790 0.84880 0.59340 0.07900
H 	H 	0.61070 0.92420 0.57280 -0.00600
H 	H 	0.58360 0.98700 0.64920 -0.00600
H 	H 	0.55560 0.91380 0.67180 0.07900
H 	H 	0.30940 0.81140 0.86660 -0.00700
H 	H 	0.39110 0.84780 0.90540 0.07900
H 	H 	0.64640 0.81640 0.86560 0.07900
H 	H 	0.55820 0.77810 0.82930 -0.01500
H 	H 	0.39150 0.88240 0.97260 0.07800
H 	H 	0.63540 0.94430 0.00500 0.09000
H 	H 	0.84590 0.92910 0.96910 0.08400
H 	H 	0.82630 0.89320 0.88400 0.09400
H 	H 	0.54990 0.96520 0.04590 -0.00800
H 	H 	0.31190 0.90530 0.01520 -0.00600
H 	H 	0.00350 0.95740 0.96060 -0.00400
H 	H 	0.98400 0.92180 0.87740 -0.00800
C 	C 	0.04460 0.22510 0.23995 0.05800
C 	C 	0.00980 0.22890 0.26832 -0.10800
C 	C 	0.00140 0.27410 0.28025 0.04800
C 	C 	0.02400 0.31440 0.26339 -0.11400
C 	C 	0.05900 0.30740 0.23553 0.06300
C 	C 	0.97300 0.28010 0.31145 0.10300
C 	C 	0.93880 0.24390 0.35448 0.10200
C 	C 	0.94010 0.32580 0.35120 0.09800
C 	C 	0.92420 0.20000 0.37193 0.05000
C 	C 	0.93560 0.15490 0.35903 -0.11500
C 	C 	0.91970 0.11470 0.37568 0.06200
C 	C 	0.88280 0.15960 0.41603 0.06900
C 	C 	0.89860 0.20200 0.40122 -0.11800
C 	C 	0.92930 0.37270 0.36494 0.04900
C 	C 	0.91330 0.37670 0.39468 -0.11000
C 	C 	0.89900 0.42190 0.40670 0.06500
C 	C 	0.91540 0.45860 0.36220 0.06500
C 	C 	0.93170 0.41500 0.34860 -0.11100
C 	C 	0.12140 0.31180 0.13334 0.06200
C 	C 	0.07320 0.33400 0.11024 -0.10800
C 	C 	0.97250 0.33580 0.11050 0.05900
C 	C 	0.92270 0.31530 0.13350 -0.12100
C 	C 	0.97620 0.29290 0.15510 0.07400
C 	C 	0.92050 0.35940 0.08614 0.10400
C 	C 	0.92190 0.39410 0.04181 0.09900
C 	C 	0.78340 0.39320 0.06822 0.09200
C 	C 	0.97560 0.40920 0.01508 0.05200
C 	C 	0.07430 0.39870 0.01234 -0.11300
C 	C 	0.93100 0.43520 0.99320 -0.12600
C 	C 	0.68010 0.40890 0.07290 0.05400
C 	C 	0.62690 0.42770 0.04990 -0.12000
C 	C 	0.63860 0.40640 0.10000 -0.12400
C 	C 	0.98250 0.44770 0.96902 0.07200
C 	C 	0.12100 0.41280 0.98696 0.06700
C 	C 	0.53320 0.44440 0.05510 0.06800
C 	C 	0.54470 0.42360 0.10380 0.06800
C 	C 	0.95540 0.27490 0.73995 0.05800
C 	C 	0.99020 0.27110 0.76832 -0.10900
C 	C 	0.99860 0.22590 0.78025 0.04800
C 	C 	0.97600 0.18560 0.76339 -0.11400
C 	C 	0.94100 0.19260 0.73553 0.06300
C 	C 	0.02700 0.21990 0.81145 0.10300
C 	C 	0.06120 0.25610 0.85448 0.10200
C 	C 	0.05990 0.17420 0.85120 0.09800
C 	C 	0.07580 0.30000 0.87193 0.05000
C 	C 	0.06440 0.34510 0.85903 -0.11500
C 	C 	0.08030 0.38530 0.87568 0.06200
C 	C 	0.11720 0.34040 0.91603 0.07000
C 	C 	0.10140 0.29800 0.90122 -0.11800
C 	C 	0.07070 0.12730 0.86494 0.04900
C 	C 	0.08670 0.12330 0.89468 -0.11000
C 	C 	0.10100 0.07810 0.90670 0.06500
C 	C 	0.08460 0.04140 0.86220 0.06500
C 	C 	0.06830 0.08500 0.84860 -0.11100
C 	C 	0.87860 0.18820 0.63334 0.06300
C 	C 	0.92680 0.16600 0.61024 -0.10900
C 	C 	0.02750 0.16420 0.61050 0.06000
C 	C 	0.07730 0.18470 0.63350 -0.12200
C 	C 	0.02380 0.20710 0.65510 0.07500
C 	C 	0.07950 0.14060 0.58614 0.10400
C 	C 	0.07810 0.10590 0.54181 0.09900
C 	C 	0.21660 0.10680 0.56822 0.09200
C 	C 	0.02440 0.09080 0.51508 0.05300
C 	C 	0.92570 0.10130 0.51234 -0.11500
C 	C 	0.06900 0.06480 0.49320 -0.12700
C 	C 	0.31990 0.09110 0.57290 0.05400
C 	C 	0.37310 0.07230 0.54990 -0.12000
C 	C 	0.36140 0.09360 0.60000 -0.12400
C 	C 	0.01750 0.05230 0.46902 0.07300
C 	C 	0.87900 0.08720 0.48696 0.06700
C 	C 	0.46680 0.05560 0.55510 0.06800
C 	C 	0.45530 0.07640 0.60380 0.06800
C 	C 	0.54460 0.77490 0.26005 0.05800
C 	C 	0.50980 0.77110 0.23168 -0.10900
C 	C 	0.50140 0.72590 0.21975 0.04900
C 	C 	0.52400 0.68560 0.23661 -0.11400
C 	C 	0.55900 0.69260 0.26447 0.06300
C 	C 	0.47300 0.71990 0.18855 0.10300
C 	C 	0.43880 0.75610 0.14552 0.10200
C 	C 	0.44010 0.67420 0.14880 0.09800
C 	C 	0.42420 0.80000 0.12807 0.05000
C 	C 	0.43560 0.84510 0.14097 -0.11500
C 	C 	0.41970 0.88530 0.12432 0.06200
C 	C 	0.38280 0.84040 0.08397 0.06900
C 	C 	0.39860 0.79800 0.09878 -0.11800
C 	C 	0.42930 0.62730 0.13506 0.04900
C 	C 	0.41330 0.62330 0.10532 -0.11000
C 	C 	0.39900 0.57810 0.09330 0.06500
C 	C 	0.41540 0.54140 0.13780 0.06500
C 	C 	0.43170 0.58500 0.15140 -0.11100
C 	C 	0.62140 0.68820 0.36666 0.06300
C 	C 	0.57320 0.66600 0.38976 -0.10800
C 	C 	0.47250 0.66420 0.38950 0.05900
C 	C 	0.42270 0.68470 0.36650 -0.12200
C 	C 	0.47620 0.70710 0.34490 0.07400
C 	C 	0.42050 0.64060 0.41386 0.10400
C 	C 	0.42190 0.60590 0.45819 0.09900
C 	C 	0.28340 0.60680 0.43178 0.09200
C 	C 	0.47560 0.59080 0.48492 0.05300
C 	C 	0.57430 0.60130 0.48766 -0.11400
C 	C 	0.43100 0.56480 0.50680 -0.12600
C 	C 	0.18010 0.59110 0.42710 0.05400
C 	C 	0.12690 0.57230 0.45010 -0.12000
C 	C 	0.13860 0.59360 0.40000 -0.12400
C 	C 	0.48250 0.55230 0.53098 0.07300
C 	C 	0.62100 0.58720 0.51304 0.06700
C 	C 	0.03320 0.55560 0.44490 0.06800
C 	C 	0.04470 0.57640 0.39620 0.06800
C 	C 	0.45540 0.72510 0.76005 0.05800
C 	C 	0.49020 0.72890 0.73168 -0.10900
C 	C 	0.49860 0.77410 0.71975 0.04900
C 	C 	0.47600 0.81440 0.73661 -0.11400
C 	C 	0.44100 0.80740 0.76447 0.06300
C 	C 	0.52700 0.78010 0.68855 0.10300
C 	C 	0.56120 0.74390 0.64552 0.10200
C 	C 	0.55990 0.82580 0.64880 0.09800
C 	C 	0.57580 0.70000 0.62807 0.05000
C 	C 	0.56440 0.65490 0.64097 -0.11500
C 	C 	0.58030 0.61470 0.62432 0.06200
C 	C 	0.61720 0.65960 0.58397 0.07000
C 	C 	0.60140 0.70200 0.59878 -0.11800
C 	C 	0.57070 0.87270 0.63506 0.04900
C 	C 	0.58670 0.87670 0.60532 -0.11000
C 	C 	0.60100 0.92190 0.59330 0.06500
C 	C 	0.58460 0.95860 0.63780 0.06500
C 	C 	0.56830 0.91500 0.65140 -0.11100
C 	C 	0.37860 0.81180 0.86666 0.06300
C 	C 	0.42680 0.83400 0.88976 -0.10800
C 	C 	0.52750 0.83580 0.88950 0.05900
C 	C 	0.57730 0.81530 0.86650 -0.12200
C 	C 	0.52380 0.79290 0.84490 0.07400
C 	C 	0.57950 0.85940 0.91386 0.10400
C 	C 	0.57810 0.89410 0.95819 0.09900
C 	C 	0.71660 0.89320 0.93178 0.09200
C 	C 	0.52440 0.90920 0.98492 0.05300
C 	C 	0.42570 0.89870 0.98766 -0.11400
C 	C 	0.56900 0.93520 0.00680 -0.12600
C 	C 	0.81990 0.90890 0.92710 0.05400
C 	C 	0.87310 0.92770 0.95010 -0.12100
C 	C 	0.86140 0.90640 0.90000 -0.12500
C 	C 	0.51750 0.94770 0.03098 0.07300
C 	C 	0.37900 0.91280 0.01304 0.06700
C 	C 	0.96680 0.94440 0.94490 0.07000
C 	C 	0.95530 0.92360 0.89620 0.06900
I 	I 	0.16050 0.16456 0.17520 -0.37400
I 	I 	0.30904 0.30265 0.19334 -0.36900
I 	I 	0.94920 0.98594 0.39893 -0.36300
I 	I 	0.67225 0.05787 0.43325 -0.38100
I 	I 	0.77541 0.57398 0.36858 -0.36100
I 	I 	0.77734 0.51079 0.45868 -0.38800
I 	I 	0.83950 0.33544 0.67520 -0.37400
I 	I 	0.69096 0.19735 0.69334 -0.36900
I 	I 	0.05080 0.51406 0.89893 -0.36400
I 	I 	0.32775 0.44213 0.93325 -0.38100
I 	I 	0.22459 0.92602 0.86858 -0.36100
I 	I 	0.22266 0.98921 0.95868 -0.38800
I 	I 	0.66050 0.83544 0.32480 -0.37400
I 	I 	0.80904 0.69735 0.30666 -0.36900
I 	I 	0.44920 0.01406 0.10107 -0.36400
I 	I 	0.17225 0.94213 0.06675 -0.38100
I 	I 	0.27541 0.42602 0.13142 -0.36100
I 	I 	0.27734 0.48921 0.04132 -0.38800
I 	I 	0.33950 0.66456 0.82480 -0.37400
I 	I 	0.19096 0.80265 0.80666 -0.37000
I 	I 	0.55080 0.48594 0.60107 -0.36400
I 	I 	0.82775 0.55787 0.56675 -0.38100
I 	I 	0.72459 0.07398 0.63142 -0.36100
I 	I 	0.72266 0.01079 0.54132 -0.38800
N 	N 	0.07120 0.26340 0.22402 -0.26900
N 	N 	0.96060 0.23870 0.32647 -0.13900
N 	N 	0.92750 0.28660 0.36810 -0.13700
N 	N 	0.96430 0.32400 0.32247 -0.13800
N 	N 	0.89300 0.11600 0.40373 -0.27000
N 	N 	0.89830 0.46250 0.39087 -0.26800
N 	N 	0.07340 0.29100 0.15545 -0.27400
N 	N 	0.97190 0.37080 0.06221 -0.13700
N 	N 	0.82770 0.40620 0.04316 -0.14300
N 	N 	0.82500 0.36910 0.09026 -0.13300
N 	N 	0.07660 0.43640 0.96522 -0.27100
N 	N 	0.49310 0.44250 0.08183 -0.27100
N 	N 	0.92880 0.23660 0.72402 -0.27000
N 	N 	0.03940 0.26130 0.82647 -0.13900
N 	N 	0.07250 0.21340 0.86810 -0.13700
N 	N 	0.03570 0.17600 0.82247 -0.13800
N 	N 	0.10700 0.38400 0.90373 -0.27000
N 	N 	0.10170 0.03750 0.89087 -0.26800
N 	N 	0.92660 0.20900 0.65545 -0.27400
N 	N 	0.02810 0.12920 0.56221 -0.13600
N 	N 	0.17230 0.09380 0.54316 -0.14300
N 	N 	0.17500 0.13090 0.59026 -0.13300
N 	N 	0.92340 0.06360 0.46522 -0.27200
N 	N 	0.50690 0.05750 0.58183 -0.27100
N 	N 	0.57120 0.73660 0.27598 -0.27000
N 	N 	0.46060 0.76130 0.17353 -0.13900
N 	N 	0.42750 0.71340 0.13190 -0.13700
N 	N 	0.46430 0.67600 0.17753 -0.13800
N 	N 	0.39300 0.88400 0.09627 -0.27000
N 	N 	0.39830 0.53750 0.10913 -0.26800
N 	N 	0.57340 0.70900 0.34455 -0.27400
N 	N 	0.47190 0.62920 0.43779 -0.13600
N 	N 	0.32770 0.59380 0.45684 -0.14300
N 	N 	0.32500 0.63090 0.40974 -0.13300
N 	N 	0.57660 0.56360 0.53478 -0.27100
N 	N 	0.99310 0.55750 0.41817 -0.27100
N 	N 	0.42880 0.76340 0.77598 -0.27000
N 	N 	0.53940 0.73870 0.67353 -0.13900
N 	N 	0.57250 0.78660 0.63190 -0.13700
N 	N 	0.53570 0.82400 0.67753 -0.13800
N 	N 	0.60700 0.61600 0.59627 -0.27000
N 	N 	0.60170 0.96250 0.60913 -0.26800
N 	N 	0.42660 0.79100 0.84455 -0.27400
N 	N 	0.52810 0.87080 0.93779 -0.13600
N 	N 	0.67230 0.90620 0.95684 -0.14300
N 	N 	0.67500 0.86910 0.90974 -0.13300
N 	N 	0.42340 0.93640 0.03478 -0.27100
N 	N 	0.00690 0.94250 0.91817 -0.27200
