data_crystal

_cell_length_a 15.12300
_cell_length_b 23.05640
_cell_length_c 34.04270
_cell_angle_alpha 90.00000
_cell_angle_beta  90.00000
_cell_angle_gamma 90.00000

_symmetry_space_group_name_	'P 1'
_symmetry_space_group_name_H-M	'P 1'

loop_
_symmetry_equiv_pos_as_xyz
  x,y,z

loop_
_atom_site_label
_atom_site_type_symbol
_atom_site_fract_x
_atom_site_fract_y
_atom_site_fract_z
_atom_site_charge
O 	O 	0.64770 0.19080 0.87212 -0.42800
O 	O 	0.51160 0.16877 0.85625 -0.43800
O 	O 	0.35660 0.30770 0.02686 -0.47300
O 	O 	0.49120 0.33440 0.04031 -0.43700
C 	C 	0.43920 0.30710 0.01823 0.31800
C 	C 	0.46980 0.27910 0.98200 -0.04500
C 	C 	0.41080 0.25360 0.95590 0.10000
C 	C 	0.56010 0.27710 0.97460 -0.00100
N 	N 	0.32110 0.24770 0.96140 -0.21400
C 	C 	0.44210 0.22620 0.92230 -0.03400
H 	H 	0.60040 0.29450 0.99240 0.03500
C 	C 	0.59140 0.24970 0.94100 -0.02300
H 	H 	0.29640 0.26070 0.98310 0.12100
H 	H 	0.28850 0.23100 0.94330 0.12500
H 	H 	0.40180 0.20880 0.90440 0.04400
C 	C 	0.53240 0.22420 0.91480 -0.02100
H 	H 	0.65310 0.24830 0.93590 0.04400
C 	C 	0.56550 0.19380 0.87866 0.28400
N 	N 	0.66050 0.46160 0.22690 -0.19700
H 	H 	0.68610 0.43290 0.21420 0.12000
H 	H 	0.68480 0.47550 0.24840 0.10900
C 	C 	0.54930 0.45970 0.17860 -0.05600
H 	H 	0.58500 0.43300 0.16450 0.06100
C 	C 	0.58120 0.48520 0.21280 0.04800
C 	C 	0.52900 0.52430 0.23350 -0.05300
C 	C 	0.44480 0.53790 0.22000 0.00200
H 	H 	0.40910 0.56470 0.23410 0.02400
C 	C 	0.41290 0.51250 0.18580 -0.01700
H 	H 	0.35530 0.52180 0.17650 0.03200
O 	O 	0.64770 0.69080 0.37212 -0.42800
O 	O 	0.51160 0.66877 0.35625 -0.43800
O 	O 	0.35660 0.80770 0.52686 -0.47300
O 	O 	0.49120 0.83440 0.54031 -0.43700
C 	C 	0.43920 0.80710 0.51823 0.31800
C 	C 	0.46980 0.77910 0.48200 -0.04600
C 	C 	0.41080 0.75360 0.45590 0.10000
C 	C 	0.56010 0.77710 0.47460 -0.00100
N 	N 	0.32110 0.74770 0.46140 -0.21400
C 	C 	0.44210 0.72620 0.42230 -0.03400
H 	H 	0.60040 0.79450 0.49240 0.03500
C 	C 	0.59140 0.74970 0.44100 -0.02400
H 	H 	0.29640 0.76070 0.48310 0.12000
H 	H 	0.28850 0.73100 0.44330 0.12400
H 	H 	0.40180 0.70880 0.40440 0.04300
C 	C 	0.53240 0.72420 0.41480 -0.02200
H 	H 	0.65310 0.74830 0.43590 0.04300
C 	C 	0.56550 0.69380 0.37866 0.28300
N 	N 	0.66050 0.96160 0.72690 -0.19800
H 	H 	0.68610 0.93290 0.71420 0.11900
H 	H 	0.68480 0.97550 0.74840 0.10800
C 	C 	0.54930 0.95970 0.67860 -0.05700
H 	H 	0.58500 0.93300 0.66450 0.06000
C 	C 	0.58120 0.98520 0.71280 0.04700
C 	C 	0.52900 0.02430 0.73350 -0.05400
C 	C 	0.44480 0.03790 0.72000 0.00100
H 	H 	0.40910 0.06470 0.73410 0.02300
C 	C 	0.41290 0.01250 0.68580 -0.01800
H 	H 	0.35530 0.02180 0.67650 0.03100
O 	O 	0.14770 0.19080 0.37212 -0.42900
O 	O 	0.01160 0.16877 0.35625 -0.44000
O 	O 	0.85660 0.30770 0.52686 -0.47400
O 	O 	0.99120 0.33440 0.54031 -0.43800
C 	C 	0.93920 0.30710 0.51823 0.31700
C 	C 	0.96980 0.27910 0.48200 -0.04700
C 	C 	0.91080 0.25360 0.45590 0.09900
C 	C 	0.06010 0.27710 0.47460 -0.00100
N 	N 	0.82110 0.24770 0.46140 -0.21500
C 	C 	0.94210 0.22620 0.42230 -0.03500
H 	H 	0.10040 0.29450 0.49240 0.03400
C 	C 	0.09140 0.24970 0.44100 -0.02400
H 	H 	0.79640 0.26070 0.48310 0.12000
H 	H 	0.78850 0.23100 0.44330 0.12400
H 	H 	0.90180 0.20880 0.40440 0.04300
C 	C 	0.03240 0.22420 0.41480 -0.02200
H 	H 	0.15310 0.24830 0.43590 0.04300
C 	C 	0.06550 0.19380 0.37866 0.28300
N 	N 	0.16050 0.46160 0.72690 -0.19800
H 	H 	0.18610 0.43290 0.71420 0.11900
H 	H 	0.18480 0.47550 0.74840 0.10800
C 	C 	0.04930 0.45970 0.67860 -0.05700
H 	H 	0.08500 0.43300 0.66450 0.06000
C 	C 	0.08120 0.48520 0.71280 0.04700
C 	C 	0.02900 0.52430 0.73350 -0.05400
C 	C 	0.94480 0.53790 0.72000 0.00100
H 	H 	0.90910 0.56470 0.73410 0.02300
C 	C 	0.91290 0.51250 0.68580 -0.01800
H 	H 	0.85530 0.52180 0.67650 0.03100
O 	O 	0.14770 0.69080 0.87212 -0.42900
O 	O 	0.01160 0.66877 0.85625 -0.44000
O 	O 	0.85660 0.80770 0.02686 -0.47400
O 	O 	0.99120 0.83440 0.04031 -0.43800
C 	C 	0.93920 0.80710 0.01823 0.31800
C 	C 	0.96980 0.77910 0.98200 -0.04700
C 	C 	0.91080 0.75360 0.95590 0.09900
C 	C 	0.06010 0.77710 0.97460 -0.00200
N 	N 	0.82110 0.74770 0.96140 -0.21500
C 	C 	0.94210 0.72620 0.92230 -0.03500
H 	H 	0.10040 0.79450 0.99240 0.03400
C 	C 	0.09140 0.74970 0.94100 -0.02400
H 	H 	0.79640 0.76070 0.98310 0.12000
H 	H 	0.78850 0.73100 0.94330 0.12400
H 	H 	0.90180 0.70880 0.90440 0.04300
C 	C 	0.03240 0.72420 0.91480 -0.02200
H 	H 	0.15310 0.74830 0.93590 0.04300
C 	C 	0.06550 0.69380 0.87866 0.28300
N 	N 	0.16050 0.96160 0.22690 -0.19800
H 	H 	0.18610 0.93290 0.21420 0.11900
H 	H 	0.18480 0.97550 0.24840 0.10800
C 	C 	0.04930 0.95970 0.17860 -0.05700
H 	H 	0.08500 0.93300 0.16450 0.06000
C 	C 	0.08120 0.98520 0.21280 0.04700
C 	C 	0.02900 0.02430 0.23350 -0.05400
C 	C 	0.94480 0.03790 0.22000 0.00100
H 	H 	0.90910 0.06470 0.23410 0.02300
C 	C 	0.91290 0.01250 0.18580 -0.01700
H 	H 	0.85530 0.02180 0.17650 0.03000
O 	O 	0.10230 0.55920 0.87212 -0.42900
O 	O 	0.23840 0.58123 0.85625 -0.43900
O 	O 	0.39340 0.44230 0.02686 -0.47400
O 	O 	0.25880 0.41560 0.04031 -0.43800
C 	C 	0.31080 0.44290 0.01823 0.31700
C 	C 	0.28020 0.47090 0.98200 -0.04600
C 	C 	0.33920 0.49640 0.95590 0.09900
C 	C 	0.18990 0.47290 0.97460 -0.00200
N 	N 	0.42890 0.50230 0.96140 -0.21500
C 	C 	0.30790 0.52380 0.92230 -0.03500
H 	H 	0.14960 0.45550 0.99240 0.03400
C 	C 	0.15860 0.50030 0.94100 -0.02400
H 	H 	0.45360 0.48930 0.98310 0.12000
H 	H 	0.46150 0.51900 0.94330 0.12400
H 	H 	0.34820 0.54120 0.90440 0.04300
C 	C 	0.21760 0.52580 0.91480 -0.02200
H 	H 	0.09690 0.50170 0.93590 0.04300
C 	C 	0.18450 0.55620 0.87866 0.28300
N 	N 	0.08950 0.28840 0.22690 -0.19800
H 	H 	0.06390 0.31710 0.21420 0.11800
H 	H 	0.06520 0.27450 0.24840 0.10800
C 	C 	0.20070 0.29030 0.17860 -0.05700
H 	H 	0.16500 0.31700 0.16450 0.06000
C 	C 	0.16880 0.26480 0.21280 0.04700
C 	C 	0.22100 0.22570 0.23350 -0.05400
C 	C 	0.30520 0.21210 0.22000 0.00100
H 	H 	0.34090 0.18530 0.23410 0.02300
C 	C 	0.33710 0.23750 0.18580 -0.01800
H 	H 	0.39470 0.22820 0.17650 0.03100
O 	O 	0.10230 0.05920 0.37212 -0.42900
O 	O 	0.23840 0.08123 0.35625 -0.43900
O 	O 	0.39340 0.94230 0.52686 -0.47400
O 	O 	0.25880 0.91560 0.54031 -0.43800
C 	C 	0.31080 0.94290 0.51823 0.31700
C 	C 	0.28020 0.97090 0.48200 -0.04700
C 	C 	0.33920 0.99640 0.45590 0.09900
C 	C 	0.18990 0.97290 0.47460 -0.00200
N 	N 	0.42890 0.00230 0.46140 -0.21500
C 	C 	0.30790 0.02380 0.42230 -0.03500
H 	H 	0.14960 0.95550 0.49240 0.03400
C 	C 	0.15860 0.00030 0.44100 -0.02400
H 	H 	0.45360 0.98930 0.48310 0.12000
H 	H 	0.46150 0.01900 0.44330 0.12400
H 	H 	0.34820 0.04120 0.40440 0.04300
C 	C 	0.21760 0.02580 0.41480 -0.02200
H 	H 	0.09690 0.00170 0.43590 0.04400
C 	C 	0.18450 0.05620 0.37866 0.28300
N 	N 	0.08950 0.78840 0.72690 -0.19800
H 	H 	0.06390 0.81710 0.71420 0.11800
H 	H 	0.06520 0.77450 0.74840 0.10800
C 	C 	0.20070 0.79030 0.67860 -0.05700
H 	H 	0.16500 0.81700 0.66450 0.06000
C 	C 	0.16880 0.76480 0.71280 0.04700
C 	C 	0.22100 0.72570 0.73350 -0.05400
C 	C 	0.30520 0.71210 0.72000 0.00100
H 	H 	0.34090 0.68530 0.73410 0.02300
C 	C 	0.33710 0.73750 0.68580 -0.01800
H 	H 	0.39470 0.72820 0.67650 0.03100
O 	O 	0.60230 0.55920 0.37212 -0.42900
O 	O 	0.73840 0.58123 0.35625 -0.43900
O 	O 	0.89340 0.44230 0.52686 -0.47400
O 	O 	0.75880 0.41560 0.54031 -0.43800
C 	C 	0.81080 0.44290 0.51823 0.31700
C 	C 	0.78020 0.47090 0.48200 -0.04700
C 	C 	0.83920 0.49640 0.45590 0.09900
C 	C 	0.68990 0.47290 0.47460 -0.00200
N 	N 	0.92890 0.50230 0.46140 -0.21500
C 	C 	0.80790 0.52380 0.42230 -0.03500
H 	H 	0.64960 0.45550 0.49240 0.03400
C 	C 	0.65860 0.50030 0.44100 -0.02400
H 	H 	0.95360 0.48930 0.48310 0.12000
H 	H 	0.96150 0.51900 0.44330 0.12400
H 	H 	0.84820 0.54120 0.40440 0.04300
C 	C 	0.71760 0.52580 0.41480 -0.02200
H 	H 	0.59690 0.50170 0.43590 0.04300
C 	C 	0.68450 0.55620 0.37866 0.28300
N 	N 	0.58950 0.28840 0.72690 -0.19800
H 	H 	0.56390 0.31710 0.71420 0.11900
H 	H 	0.56520 0.27450 0.74840 0.10800
C 	C 	0.70070 0.29030 0.67860 -0.05700
H 	H 	0.66500 0.31700 0.66450 0.06000
C 	C 	0.66880 0.26480 0.71280 0.04700
C 	C 	0.72100 0.22570 0.73350 -0.05400
C 	C 	0.80520 0.21210 0.72000 0.00100
H 	H 	0.84090 0.18530 0.73410 0.02300
C 	C 	0.83710 0.23750 0.68580 -0.01800
H 	H 	0.89470 0.22820 0.67650 0.03100
O 	O 	0.60230 0.05920 0.87212 -0.42900
O 	O 	0.73840 0.08123 0.85625 -0.43900
O 	O 	0.89340 0.94230 0.02686 -0.47400
O 	O 	0.75880 0.91560 0.04031 -0.43800
C 	C 	0.81080 0.94290 0.01823 0.31800
C 	C 	0.78020 0.97090 0.98200 -0.04700
C 	C 	0.83920 0.99640 0.95590 0.09900
C 	C 	0.68990 0.97290 0.97460 -0.00200
N 	N 	0.92890 0.00230 0.96140 -0.21500
C 	C 	0.80790 0.02380 0.92230 -0.03500
H 	H 	0.64960 0.95550 0.99240 0.03400
C 	C 	0.65860 0.00030 0.94100 -0.02400
H 	H 	0.95360 0.98930 0.98310 0.12000
H 	H 	0.96150 0.01900 0.94330 0.12400
H 	H 	0.84820 0.04120 0.90440 0.04300
C 	C 	0.71760 0.02580 0.91480 -0.02200
H 	H 	0.59690 0.00170 0.93590 0.04400
C 	C 	0.68450 0.05620 0.87866 0.28300
N 	N 	0.58950 0.78840 0.22690 -0.19800
H 	H 	0.56390 0.81710 0.21420 0.11900
H 	H 	0.56520 0.77450 0.24840 0.10800
C 	C 	0.70070 0.79030 0.17860 -0.05700
H 	H 	0.66500 0.81700 0.16450 0.06000
C 	C 	0.66880 0.76480 0.21280 0.04700
C 	C 	0.72100 0.72570 0.23350 -0.05400
C 	C 	0.80520 0.71210 0.22000 0.00100
H 	H 	0.84090 0.68530 0.23410 0.02300
C 	C 	0.83710 0.73750 0.18580 -0.01800
H 	H 	0.89470 0.72820 0.17650 0.03100
O 	O 	0.89770 0.80920 0.12212 -0.42900
O 	O 	0.76160 0.83123 0.10625 -0.43900
O 	O 	0.60660 0.69230 0.27686 -0.47400
O 	O 	0.74120 0.66560 0.29031 -0.43800
C 	C 	0.68920 0.69290 0.26823 0.31700
C 	C 	0.71980 0.72090 0.23200 -0.04700
C 	C 	0.66080 0.74640 0.20590 0.09900
C 	C 	0.81010 0.72290 0.22460 -0.00200
N 	N 	0.57110 0.75230 0.21140 -0.21500
C 	C 	0.69210 0.77380 0.17230 -0.03500
H 	H 	0.85040 0.70550 0.24240 0.03400
C 	C 	0.84140 0.75030 0.19100 -0.02400
H 	H 	0.54640 0.73930 0.23310 0.12000
H 	H 	0.53850 0.76900 0.19330 0.12400
H 	H 	0.65180 0.79120 0.15440 0.04300
C 	C 	0.78240 0.77580 0.16480 -0.02200
H 	H 	0.90310 0.75170 0.18590 0.04300
C 	C 	0.81550 0.80620 0.12866 0.28300
N 	N 	0.91050 0.53840 0.47690 -0.19800
H 	H 	0.93610 0.56710 0.46420 0.11800
H 	H 	0.93480 0.52450 0.49840 0.10800
C 	C 	0.79930 0.54030 0.42860 -0.05700
H 	H 	0.83500 0.56700 0.41450 0.06000
C 	C 	0.83120 0.51480 0.46280 0.04700
C 	C 	0.77900 0.47570 0.48350 -0.05400
C 	C 	0.69480 0.46210 0.47000 0.00100
H 	H 	0.65910 0.43530 0.48410 0.02300
C 	C 	0.66290 0.48750 0.43580 -0.01800
H 	H 	0.60530 0.47820 0.42650 0.03100
O 	O 	0.89770 0.30920 0.62212 -0.42900
O 	O 	0.76160 0.33123 0.60625 -0.43900
O 	O 	0.60660 0.19230 0.77686 -0.47400
O 	O 	0.74120 0.16560 0.79031 -0.43800
C 	C 	0.68920 0.19290 0.76823 0.31700
C 	C 	0.71980 0.22090 0.73200 -0.04700
C 	C 	0.66080 0.24640 0.70590 0.09900
C 	C 	0.81010 0.22290 0.72460 -0.00200
N 	N 	0.57110 0.25230 0.71140 -0.21500
C 	C 	0.69210 0.27380 0.67230 -0.03500
H 	H 	0.85040 0.20550 0.74240 0.03400
C 	C 	0.84140 0.25030 0.69100 -0.02400
H 	H 	0.54640 0.23930 0.73310 0.12000
H 	H 	0.53850 0.26900 0.69330 0.12400
H 	H 	0.65180 0.29120 0.65440 0.04300
C 	C 	0.78240 0.27580 0.66480 -0.02200
H 	H 	0.90310 0.25170 0.68590 0.04300
C 	C 	0.81550 0.30620 0.62866 0.28300
N 	N 	0.91050 0.03840 0.97690 -0.19800
H 	H 	0.93610 0.06710 0.96420 0.11800
H 	H 	0.93480 0.02450 0.99840 0.10800
C 	C 	0.79930 0.04030 0.92860 -0.05700
H 	H 	0.83500 0.06700 0.91450 0.06000
C 	C 	0.83120 0.01480 0.96280 0.04600
C 	C 	0.77900 0.97570 0.98350 -0.05400
C 	C 	0.69480 0.96210 0.97000 0.00100
H 	H 	0.65910 0.93530 0.98410 0.02300
C 	C 	0.66290 0.98750 0.93580 -0.01800
H 	H 	0.60530 0.97820 0.92650 0.03100
O 	O 	0.39770 0.80920 0.62212 -0.42900
O 	O 	0.26160 0.83123 0.60625 -0.43900
O 	O 	0.10660 0.69230 0.77686 -0.47400
O 	O 	0.24120 0.66560 0.79031 -0.43800
C 	C 	0.18920 0.69290 0.76823 0.31700
C 	C 	0.21980 0.72090 0.73200 -0.04700
C 	C 	0.16080 0.74640 0.70590 0.09900
C 	C 	0.31010 0.72290 0.72460 -0.00200
N 	N 	0.07110 0.75230 0.71140 -0.21500
C 	C 	0.19210 0.77380 0.67230 -0.03500
H 	H 	0.35040 0.70550 0.74240 0.03400
C 	C 	0.34140 0.75030 0.69100 -0.02400
H 	H 	0.04640 0.73930 0.73310 0.12000
H 	H 	0.03850 0.76900 0.69330 0.12400
H 	H 	0.15180 0.79120 0.65440 0.04300
C 	C 	0.28240 0.77580 0.66480 -0.02200
H 	H 	0.40310 0.75170 0.68590 0.04300
C 	C 	0.31550 0.80620 0.62866 0.28300
N 	N 	0.41050 0.53840 0.97690 -0.19800
H 	H 	0.43610 0.56710 0.96420 0.11900
H 	H 	0.43480 0.52450 0.99840 0.10800
C 	C 	0.29930 0.54030 0.92860 -0.05700
H 	H 	0.33500 0.56700 0.91450 0.06000
C 	C 	0.33120 0.51480 0.96280 0.04700
C 	C 	0.27900 0.47570 0.98350 -0.05400
C 	C 	0.19480 0.46210 0.97000 0.00100
H 	H 	0.15910 0.43530 0.98410 0.02300
C 	C 	0.16290 0.48750 0.93580 -0.01800
H 	H 	0.10530 0.47820 0.92650 0.03100
O 	O 	0.39770 0.30920 0.12212 -0.42900
O 	O 	0.26160 0.33123 0.10625 -0.43900
O 	O 	0.10660 0.19230 0.27686 -0.47400
O 	O 	0.24120 0.16560 0.29031 -0.43800
C 	C 	0.18920 0.19290 0.26823 0.31700
C 	C 	0.21980 0.22090 0.23200 -0.04700
C 	C 	0.16080 0.24640 0.20590 0.09900
C 	C 	0.31010 0.22290 0.22460 -0.00200
N 	N 	0.07110 0.25230 0.21140 -0.21500
C 	C 	0.19210 0.27380 0.17230 -0.03500
H 	H 	0.35040 0.20550 0.24240 0.03400
C 	C 	0.34140 0.25030 0.19100 -0.02400
H 	H 	0.04640 0.23930 0.23310 0.12000
H 	H 	0.03850 0.26900 0.19330 0.12400
H 	H 	0.15180 0.29120 0.15440 0.04300
C 	C 	0.28240 0.27580 0.16480 -0.02200
H 	H 	0.40310 0.25170 0.18590 0.04300
C 	C 	0.31550 0.30620 0.12866 0.28300
N 	N 	0.41050 0.03840 0.47690 -0.19800
H 	H 	0.43610 0.06710 0.46420 0.11900
H 	H 	0.43480 0.02450 0.49840 0.10800
C 	C 	0.29930 0.04030 0.42860 -0.05700
H 	H 	0.33500 0.06700 0.41450 0.06000
C 	C 	0.33120 0.01480 0.46280 0.04700
C 	C 	0.27900 0.97570 0.48350 -0.05400
C 	C 	0.19480 0.96210 0.47000 0.00100
H 	H 	0.15910 0.93530 0.48410 0.02300
C 	C 	0.16290 0.98750 0.43580 -0.01800
H 	H 	0.10530 0.97820 0.42650 0.03100
O 	O 	0.35230 0.44080 0.12212 -0.42900
O 	O 	0.48840 0.41877 0.10625 -0.43900
O 	O 	0.64340 0.55770 0.27686 -0.47400
O 	O 	0.50880 0.58440 0.29031 -0.43800
C 	C 	0.56080 0.55710 0.26823 0.31700
C 	C 	0.53020 0.52910 0.23200 -0.04700
C 	C 	0.58920 0.50360 0.20590 0.09900
C 	C 	0.43990 0.52710 0.22460 -0.00200
N 	N 	0.67890 0.49770 0.21140 -0.21500
C 	C 	0.55790 0.47620 0.17230 -0.03500
H 	H 	0.39960 0.54450 0.24240 0.03400
C 	C 	0.40860 0.49970 0.19100 -0.02400
H 	H 	0.70360 0.51070 0.23310 0.12000
H 	H 	0.71150 0.48100 0.19330 0.12400
H 	H 	0.59820 0.45880 0.15440 0.04300
C 	C 	0.46760 0.47420 0.16480 -0.02200
H 	H 	0.34690 0.49830 0.18590 0.04300
C 	C 	0.43450 0.44380 0.12866 0.28300
N 	N 	0.33950 0.71160 0.47690 -0.19800
H 	H 	0.31390 0.68290 0.46420 0.11900
H 	H 	0.31520 0.72550 0.49840 0.10800
C 	C 	0.45070 0.70970 0.42860 -0.05700
H 	H 	0.41500 0.68300 0.41450 0.06000
C 	C 	0.41880 0.73520 0.46280 0.04700
C 	C 	0.47100 0.77430 0.48350 -0.05400
C 	C 	0.55520 0.78790 0.47000 0.00100
H 	H 	0.59090 0.81470 0.48410 0.02300
C 	C 	0.58710 0.76250 0.43580 -0.01800
H 	H 	0.64470 0.77180 0.42650 0.03100
O 	O 	0.35230 0.94080 0.62212 -0.42900
O 	O 	0.48840 0.91877 0.60625 -0.43900
O 	O 	0.64340 0.05770 0.77686 -0.47400
O 	O 	0.50880 0.08440 0.79031 -0.43800
C 	C 	0.56080 0.05710 0.76823 0.31700
C 	C 	0.53020 0.02910 0.73200 -0.04700
C 	C 	0.58920 0.00360 0.70590 0.09800
C 	C 	0.43990 0.02710 0.72460 -0.00100
N 	N 	0.67890 0.99770 0.71140 -0.21500
C 	C 	0.55790 0.97620 0.67230 -0.03500
H 	H 	0.39960 0.04450 0.74240 0.03400
C 	C 	0.40860 0.99970 0.69100 -0.02400
H 	H 	0.70360 0.01070 0.73310 0.12000
H 	H 	0.71150 0.98100 0.69330 0.12400
H 	H 	0.59820 0.95880 0.65440 0.04300
C 	C 	0.46760 0.97420 0.66480 -0.02200
H 	H 	0.34690 0.99830 0.68590 0.04300
C 	C 	0.43450 0.94380 0.62866 0.28300
N 	N 	0.33950 0.21160 0.97690 -0.19800
H 	H 	0.31390 0.18290 0.96420 0.11900
H 	H 	0.31520 0.22550 0.99840 0.10800
C 	C 	0.45070 0.20970 0.92860 -0.05700
H 	H 	0.41500 0.18300 0.91450 0.06000
C 	C 	0.41880 0.23520 0.96280 0.04700
C 	C 	0.47100 0.27430 0.98350 -0.05400
C 	C 	0.55520 0.28790 0.97000 0.00100
H 	H 	0.59090 0.31470 0.98410 0.02300
C 	C 	0.58710 0.26250 0.93580 -0.01800
H 	H 	0.64470 0.27180 0.92650 0.03100
O 	O 	0.85230 0.44080 0.62212 -0.42900
O 	O 	0.98840 0.41877 0.60625 -0.44000
O 	O 	0.14340 0.55770 0.77686 -0.47400
O 	O 	0.00880 0.58440 0.79031 -0.43800
C 	C 	0.06080 0.55710 0.76823 0.31700
C 	C 	0.03020 0.52910 0.73200 -0.04700
C 	C 	0.08920 0.50360 0.70590 0.09900
C 	C 	0.93990 0.52710 0.72460 -0.00200
N 	N 	0.17890 0.49770 0.71140 -0.21500
C 	C 	0.05790 0.47620 0.67230 -0.03500
H 	H 	0.89960 0.54450 0.74240 0.03400
C 	C 	0.90860 0.49970 0.69100 -0.02400
H 	H 	0.20360 0.51070 0.73310 0.12000
H 	H 	0.21150 0.48100 0.69330 0.12400
H 	H 	0.09820 0.45880 0.65440 0.04300
C 	C 	0.96760 0.47420 0.66480 -0.02200
H 	H 	0.84690 0.49830 0.68590 0.04300
C 	C 	0.93450 0.44380 0.62866 0.28300
N 	N 	0.83950 0.71160 0.97690 -0.19800
H 	H 	0.81390 0.68290 0.96420 0.11800
H 	H 	0.81520 0.72550 0.99840 0.10800
C 	C 	0.95070 0.70970 0.92860 -0.05700
H 	H 	0.91500 0.68300 0.91450 0.06000
C 	C 	0.91880 0.73520 0.96280 0.04700
C 	C 	0.97100 0.77430 0.98350 -0.05400
C 	C 	0.05520 0.78790 0.97000 0.00100
H 	H 	0.09090 0.81470 0.98410 0.02300
C 	C 	0.08710 0.76250 0.93580 -0.01800
H 	H 	0.14470 0.77180 0.92650 0.03100
O 	O 	0.85230 0.94080 0.12212 -0.42900
O 	O 	0.98840 0.91877 0.10625 -0.43900
O 	O 	0.14340 0.05770 0.27686 -0.47400
O 	O 	0.00880 0.08440 0.29031 -0.43800
C 	C 	0.06080 0.05710 0.26823 0.31700
C 	C 	0.03020 0.02910 0.23200 -0.04700
C 	C 	0.08920 0.00360 0.20590 0.09800
C 	C 	0.93990 0.02710 0.22460 -0.00200
N 	N 	0.17890 0.99770 0.21140 -0.21500
C 	C 	0.05790 0.97620 0.17230 -0.03500
H 	H 	0.89960 0.04450 0.24240 0.03400
C 	C 	0.90860 0.99970 0.19100 -0.02500
H 	H 	0.20360 0.01070 0.23310 0.12000
H 	H 	0.21150 0.98100 0.19330 0.12400
H 	H 	0.09820 0.95880 0.15440 0.04300
C 	C 	0.96760 0.97420 0.16480 -0.02200
H 	H 	0.84690 0.99830 0.18590 0.04400
C 	C 	0.93450 0.94380 0.12866 0.28300
N 	N 	0.83950 0.21160 0.47690 -0.19800
H 	H 	0.81390 0.18290 0.46420 0.11800
H 	H 	0.81520 0.22550 0.49840 0.10800
C 	C 	0.95070 0.20970 0.42860 -0.05700
H 	H 	0.91500 0.18300 0.41450 0.06000
C 	C 	0.91880 0.23520 0.46280 0.04700
C 	C 	0.97100 0.27430 0.48350 -0.05400
C 	C 	0.05520 0.28790 0.47000 0.00100
H 	H 	0.09090 0.31470 0.48410 0.02300
C 	C 	0.08710 0.26250 0.43580 -0.01800
H 	H 	0.14470 0.27180 0.42650 0.03100
In	In	0.37500 0.37500 0.07344 1.99800
In	In	0.37500 0.87500 0.57344 1.99800
In	In	0.87500 0.37500 0.57344 1.99800
In	In	0.87500 0.87500 0.07344 1.99800
In	In	0.62500 0.62500 0.32344 1.99800
In	In	0.62500 0.12500 0.82344 1.99800
In	In	0.12500 0.62500 0.82344 1.99800
In	In	0.12500 0.12500 0.32344 1.99800
O 	O 	0.10230 0.19080 0.87788 -0.42900
O 	O 	0.23840 0.16877 0.89375 -0.43900
O 	O 	0.39340 0.30770 0.72314 -0.47400
O 	O 	0.25880 0.33440 0.70969 -0.43800
C 	C 	0.31080 0.30710 0.73177 0.31700
C 	C 	0.28020 0.27910 0.76800 -0.04700
C 	C 	0.33920 0.25360 0.79410 0.09900
C 	C 	0.18990 0.27710 0.77540 -0.00200
N 	N 	0.42890 0.24770 0.78860 -0.21500
C 	C 	0.30790 0.22620 0.82770 -0.03500
H 	H 	0.14960 0.29450 0.75760 0.03400
C 	C 	0.15860 0.24970 0.80900 -0.02400
H 	H 	0.45360 0.26070 0.76690 0.12000
H 	H 	0.46150 0.23100 0.80670 0.12400
H 	H 	0.34820 0.20880 0.84560 0.04300
C 	C 	0.21760 0.22420 0.83520 -0.02200
H 	H 	0.09690 0.24830 0.81410 0.04300
C 	C 	0.18450 0.19380 0.87134 0.28300
N 	N 	0.08950 0.46160 0.52310 -0.19800
H 	H 	0.06390 0.43290 0.53580 0.11800
H 	H 	0.06520 0.47550 0.50160 0.10800
C 	C 	0.20070 0.45970 0.57140 -0.05700
H 	H 	0.16500 0.43300 0.58550 0.06000
C 	C 	0.16880 0.48520 0.53720 0.04700
C 	C 	0.22100 0.52430 0.51650 -0.05400
C 	C 	0.30520 0.53790 0.53000 0.00100
H 	H 	0.34090 0.56470 0.51590 0.02300
C 	C 	0.33710 0.51250 0.56420 -0.01800
H 	H 	0.39470 0.52180 0.57350 0.03100
O 	O 	0.10230 0.69080 0.37788 -0.42900
O 	O 	0.23840 0.66877 0.39375 -0.43900
O 	O 	0.39340 0.80770 0.22314 -0.47400
O 	O 	0.25880 0.83440 0.20969 -0.43800
C 	C 	0.31080 0.80710 0.23177 0.31700
C 	C 	0.28020 0.77910 0.26800 -0.04700
C 	C 	0.33920 0.75360 0.29410 0.09900
C 	C 	0.18990 0.77710 0.27540 -0.00200
N 	N 	0.42890 0.74770 0.28860 -0.21500
C 	C 	0.30790 0.72620 0.32770 -0.03500
H 	H 	0.14960 0.79450 0.25760 0.03400
C 	C 	0.15860 0.74970 0.30900 -0.02400
H 	H 	0.45360 0.76070 0.26690 0.12000
H 	H 	0.46150 0.73100 0.30670 0.12400
H 	H 	0.34820 0.70880 0.34560 0.04300
C 	C 	0.21760 0.72420 0.33520 -0.02200
H 	H 	0.09690 0.74830 0.31410 0.04300
C 	C 	0.18450 0.69380 0.37134 0.28300
N 	N 	0.08950 0.96160 0.02310 -0.19800
H 	H 	0.06390 0.93290 0.03580 0.11800
H 	H 	0.06520 0.97550 0.00160 0.10800
C 	C 	0.20070 0.95970 0.07140 -0.05700
H 	H 	0.16500 0.93300 0.08550 0.06000
C 	C 	0.16880 0.98520 0.03720 0.04600
C 	C 	0.22100 0.02430 0.01650 -0.05400
C 	C 	0.30520 0.03790 0.03000 0.00100
H 	H 	0.34090 0.06470 0.01590 0.02300
C 	C 	0.33710 0.01250 0.06420 -0.01800
H 	H 	0.39470 0.02180 0.07350 0.03100
O 	O 	0.60230 0.19080 0.37788 -0.42900
O 	O 	0.73840 0.16877 0.39375 -0.43900
O 	O 	0.89340 0.30770 0.22314 -0.47400
O 	O 	0.75880 0.33440 0.20969 -0.43800
C 	C 	0.81080 0.30710 0.23177 0.31700
C 	C 	0.78020 0.27910 0.26800 -0.04700
C 	C 	0.83920 0.25360 0.29410 0.09900
C 	C 	0.68990 0.27710 0.27540 -0.00200
N 	N 	0.92890 0.24770 0.28860 -0.21500
C 	C 	0.80790 0.22620 0.32770 -0.03500
H 	H 	0.64960 0.29450 0.25760 0.03400
C 	C 	0.65860 0.24970 0.30900 -0.02400
H 	H 	0.95360 0.26070 0.26690 0.12000
H 	H 	0.96150 0.23100 0.30670 0.12400
H 	H 	0.84820 0.20880 0.34560 0.04300
C 	C 	0.71760 0.22420 0.33520 -0.02200
H 	H 	0.59690 0.24830 0.31410 0.04300
C 	C 	0.68450 0.19380 0.37134 0.28300
N 	N 	0.58950 0.46160 0.02310 -0.19800
H 	H 	0.56390 0.43290 0.03580 0.11900
H 	H 	0.56520 0.47550 0.00160 0.10800
C 	C 	0.70070 0.45970 0.07140 -0.05700
H 	H 	0.66500 0.43300 0.08550 0.06000
C 	C 	0.66880 0.48520 0.03720 0.04700
C 	C 	0.72100 0.52430 0.01650 -0.05400
C 	C 	0.80520 0.53790 0.03000 0.00100
H 	H 	0.84090 0.56470 0.01590 0.02300
C 	C 	0.83710 0.51250 0.06420 -0.01800
H 	H 	0.89470 0.52180 0.07350 0.03100
O 	O 	0.60230 0.69080 0.87788 -0.42900
O 	O 	0.73840 0.66877 0.89375 -0.43900
O 	O 	0.89340 0.80770 0.72314 -0.47400
O 	O 	0.75880 0.83440 0.70969 -0.43800
C 	C 	0.81080 0.80710 0.73177 0.31700
C 	C 	0.78020 0.77910 0.76800 -0.04700
C 	C 	0.83920 0.75360 0.79410 0.09900
C 	C 	0.68990 0.77710 0.77540 -0.00200
N 	N 	0.92890 0.74770 0.78860 -0.21500
C 	C 	0.80790 0.72620 0.82770 -0.03500
H 	H 	0.64960 0.79450 0.75760 0.03400
C 	C 	0.65860 0.74970 0.80900 -0.02400
H 	H 	0.95360 0.76070 0.76690 0.12000
H 	H 	0.96150 0.73100 0.80670 0.12400
H 	H 	0.84820 0.70880 0.84560 0.04300
C 	C 	0.71760 0.72420 0.83520 -0.02200
H 	H 	0.59690 0.74830 0.81410 0.04300
C 	C 	0.68450 0.69380 0.87134 0.28300
N 	N 	0.58950 0.96160 0.52310 -0.19800
H 	H 	0.56390 0.93290 0.53580 0.11900
H 	H 	0.56520 0.97550 0.50160 0.10800
C 	C 	0.70070 0.95970 0.57140 -0.05700
H 	H 	0.66500 0.93300 0.58550 0.06000
C 	C 	0.66880 0.98520 0.53720 0.04700
C 	C 	0.72100 0.02430 0.51650 -0.05400
C 	C 	0.80520 0.03790 0.53000 0.00100
H 	H 	0.84090 0.06470 0.51590 0.02300
C 	C 	0.83710 0.01250 0.56420 -0.01800
H 	H 	0.89470 0.02180 0.57350 0.03100
O 	O 	0.64770 0.55920 0.87788 -0.42900
O 	O 	0.51160 0.58123 0.89375 -0.43900
O 	O 	0.35660 0.44230 0.72314 -0.47400
O 	O 	0.49120 0.41560 0.70969 -0.43800
C 	C 	0.43920 0.44290 0.73177 0.31700
C 	C 	0.46980 0.47090 0.76800 -0.04700
C 	C 	0.41080 0.49640 0.79410 0.09900
C 	C 	0.56010 0.47290 0.77540 -0.00200
N 	N 	0.32110 0.50230 0.78860 -0.21500
C 	C 	0.44210 0.52380 0.82770 -0.03500
H 	H 	0.60040 0.45550 0.75760 0.03400
C 	C 	0.59140 0.50030 0.80900 -0.02400
H 	H 	0.29640 0.48930 0.76690 0.12000
H 	H 	0.28850 0.51900 0.80670 0.12400
H 	H 	0.40180 0.54120 0.84560 0.04300
C 	C 	0.53240 0.52580 0.83520 -0.02200
H 	H 	0.65310 0.50170 0.81410 0.04300
C 	C 	0.56550 0.55620 0.87134 0.28300
N 	N 	0.66050 0.28840 0.52310 -0.19800
H 	H 	0.68610 0.31710 0.53580 0.11900
H 	H 	0.68480 0.27450 0.50160 0.10800
C 	C 	0.54930 0.29030 0.57140 -0.05700
H 	H 	0.58500 0.31700 0.58550 0.06000
C 	C 	0.58120 0.26480 0.53720 0.04700
C 	C 	0.52900 0.22570 0.51650 -0.05400
C 	C 	0.44480 0.21210 0.53000 0.00100
H 	H 	0.40910 0.18530 0.51590 0.02300
C 	C 	0.41290 0.23750 0.56420 -0.01800
H 	H 	0.35530 0.22820 0.57350 0.03100
O 	O 	0.64770 0.05920 0.37788 -0.42900
O 	O 	0.51160 0.08123 0.39375 -0.43900
O 	O 	0.35660 0.94230 0.22314 -0.47400
O 	O 	0.49120 0.91560 0.20969 -0.43800
C 	C 	0.43920 0.94290 0.23177 0.31700
C 	C 	0.46980 0.97090 0.26800 -0.04700
C 	C 	0.41080 0.99640 0.29410 0.09800
C 	C 	0.56010 0.97290 0.27540 -0.00100
N 	N 	0.32110 0.00230 0.28860 -0.21500
C 	C 	0.44210 0.02380 0.32770 -0.03500
H 	H 	0.60040 0.95550 0.25760 0.03400
C 	C 	0.59140 0.00030 0.30900 -0.02400
H 	H 	0.29640 0.98930 0.26690 0.12000
H 	H 	0.28850 0.01900 0.30670 0.12400
H 	H 	0.40180 0.04120 0.34560 0.04300
C 	C 	0.53240 0.02580 0.33520 -0.02200
H 	H 	0.65310 0.00170 0.31410 0.04300
C 	C 	0.56550 0.05620 0.37134 0.28300
N 	N 	0.66050 0.78840 0.02310 -0.19800
H 	H 	0.68610 0.81710 0.03580 0.11900
H 	H 	0.68480 0.77450 0.00160 0.10800
C 	C 	0.54930 0.79030 0.07140 -0.05700
H 	H 	0.58500 0.81700 0.08550 0.06000
C 	C 	0.58120 0.76480 0.03720 0.04700
C 	C 	0.52900 0.72570 0.01650 -0.05400
C 	C 	0.44480 0.71210 0.03000 0.00100
H 	H 	0.40910 0.68530 0.01590 0.02300
C 	C 	0.41290 0.73750 0.06420 -0.01800
H 	H 	0.35530 0.72820 0.07350 0.03100
O 	O 	0.14770 0.55920 0.37788 -0.42900
O 	O 	0.01160 0.58123 0.39375 -0.44000
O 	O 	0.85660 0.44230 0.22314 -0.47400
O 	O 	0.99120 0.41560 0.20969 -0.43800
C 	C 	0.93920 0.44290 0.23177 0.31700
C 	C 	0.96980 0.47090 0.26800 -0.04700
C 	C 	0.91080 0.49640 0.29410 0.09900
C 	C 	0.06010 0.47290 0.27540 -0.00200
N 	N 	0.82110 0.50230 0.28860 -0.21500
C 	C 	0.94210 0.52380 0.32770 -0.03500
H 	H 	0.10040 0.45550 0.25760 0.03400
C 	C 	0.09140 0.50030 0.30900 -0.02400
H 	H 	0.79640 0.48930 0.26690 0.12000
H 	H 	0.78850 0.51900 0.30670 0.12400
H 	H 	0.90180 0.54120 0.34560 0.04300
C 	C 	0.03240 0.52580 0.33520 -0.02200
H 	H 	0.15310 0.50170 0.31410 0.04300
C 	C 	0.06550 0.55620 0.37134 0.28300
N 	N 	0.16050 0.28840 0.02310 -0.19800
H 	H 	0.18610 0.31710 0.03580 0.11800
H 	H 	0.18480 0.27450 0.00160 0.10800
C 	C 	0.04930 0.29030 0.07140 -0.05700
H 	H 	0.08500 0.31700 0.08550 0.06000
C 	C 	0.08120 0.26480 0.03720 0.04700
C 	C 	0.02900 0.22570 0.01650 -0.05400
C 	C 	0.94480 0.21210 0.03000 0.00100
H 	H 	0.90910 0.18530 0.01590 0.02300
C 	C 	0.91290 0.23750 0.06420 -0.01800
H 	H 	0.85530 0.22820 0.07350 0.03100
O 	O 	0.14770 0.05920 0.87788 -0.42900
O 	O 	0.01160 0.08123 0.89375 -0.43900
O 	O 	0.85660 0.94230 0.72314 -0.47400
O 	O 	0.99120 0.91560 0.70969 -0.43800
C 	C 	0.93920 0.94290 0.73177 0.31700
C 	C 	0.96980 0.97090 0.76800 -0.04700
C 	C 	0.91080 0.99640 0.79410 0.09800
C 	C 	0.06010 0.97290 0.77540 -0.00200
N 	N 	0.82110 0.00230 0.78860 -0.21500
C 	C 	0.94210 0.02380 0.82770 -0.03500
H 	H 	0.10040 0.95550 0.75760 0.03400
C 	C 	0.09140 0.00030 0.80900 -0.02500
H 	H 	0.79640 0.98930 0.76690 0.12000
H 	H 	0.78850 0.01900 0.80670 0.12400
H 	H 	0.90180 0.04120 0.84560 0.04300
C 	C 	0.03240 0.02580 0.83520 -0.02200
H 	H 	0.15310 0.00170 0.81410 0.04400
C 	C 	0.06550 0.05620 0.87134 0.28300
N 	N 	0.16050 0.78840 0.52310 -0.19800
H 	H 	0.18610 0.81710 0.53580 0.11800
H 	H 	0.18480 0.77450 0.50160 0.10800
C 	C 	0.04930 0.79030 0.57140 -0.05700
H 	H 	0.08500 0.81700 0.58550 0.06000
C 	C 	0.08120 0.76480 0.53720 0.04700
C 	C 	0.02900 0.72570 0.51650 -0.05400
C 	C 	0.94480 0.71210 0.53000 0.00100
H 	H 	0.90910 0.68530 0.51590 0.02300
C 	C 	0.91290 0.73750 0.56420 -0.01800
H 	H 	0.85530 0.72820 0.57350 0.03100
O 	O 	0.35230 0.80920 0.12788 -0.42900
O 	O 	0.48840 0.83123 0.14375 -0.43900
O 	O 	0.64340 0.69230 0.97314 -0.47400
O 	O 	0.50880 0.66560 0.95969 -0.43800
C 	C 	0.56080 0.69290 0.98177 0.31700
C 	C 	0.53020 0.72090 0.01800 -0.04600
C 	C 	0.58920 0.74640 0.04410 0.09900
C 	C 	0.43990 0.72290 0.02540 -0.00200
N 	N 	0.67890 0.75230 0.03860 -0.21500
C 	C 	0.55790 0.77380 0.07770 -0.03500
H 	H 	0.39960 0.70550 0.00760 0.03400
C 	C 	0.40860 0.75030 0.05900 -0.02400
H 	H 	0.70360 0.73930 0.01690 0.12000
H 	H 	0.71150 0.76900 0.05670 0.12400
H 	H 	0.59820 0.79120 0.09560 0.04300
C 	C 	0.46760 0.77580 0.08520 -0.02200
H 	H 	0.34690 0.75170 0.06410 0.04300
C 	C 	0.43450 0.80620 0.12134 0.28300
N 	N 	0.33950 0.53840 0.77310 -0.19800
H 	H 	0.31390 0.56710 0.78580 0.11900
H 	H 	0.31520 0.52450 0.75160 0.10800
C 	C 	0.45070 0.54030 0.82140 -0.05700
H 	H 	0.41500 0.56700 0.83550 0.06000
C 	C 	0.41880 0.51480 0.78720 0.04700
C 	C 	0.47100 0.47570 0.76650 -0.05400
C 	C 	0.55520 0.46210 0.78000 0.00100
H 	H 	0.59090 0.43530 0.76590 0.02300
C 	C 	0.58710 0.48750 0.81420 -0.01800
H 	H 	0.64470 0.47820 0.82350 0.03100
O 	O 	0.35230 0.30920 0.62788 -0.42900
O 	O 	0.48840 0.33123 0.64375 -0.43900
O 	O 	0.64340 0.19230 0.47314 -0.47400
O 	O 	0.50880 0.16560 0.45969 -0.43800
C 	C 	0.56080 0.19290 0.48177 0.31700
C 	C 	0.53020 0.22090 0.51800 -0.04700
C 	C 	0.58920 0.24640 0.54410 0.09900
C 	C 	0.43990 0.22290 0.52540 -0.00200
N 	N 	0.67890 0.25230 0.53860 -0.21500
C 	C 	0.55790 0.27380 0.57770 -0.03500
H 	H 	0.39960 0.20550 0.50760 0.03400
C 	C 	0.40860 0.25030 0.55900 -0.02400
H 	H 	0.70360 0.23930 0.51690 0.12000
H 	H 	0.71150 0.26900 0.55670 0.12400
H 	H 	0.59820 0.29120 0.59560 0.04300
C 	C 	0.46760 0.27580 0.58520 -0.02200
H 	H 	0.34690 0.25170 0.56410 0.04300
C 	C 	0.43450 0.30620 0.62134 0.28300
N 	N 	0.33950 0.03840 0.27310 -0.19800
H 	H 	0.31390 0.06710 0.28580 0.11900
H 	H 	0.31520 0.02450 0.25160 0.10800
C 	C 	0.45070 0.04030 0.32140 -0.05700
H 	H 	0.41500 0.06700 0.33550 0.06000
C 	C 	0.41880 0.01480 0.28720 0.04700
C 	C 	0.47100 0.97570 0.26650 -0.05400
C 	C 	0.55520 0.96210 0.28000 0.00100
H 	H 	0.59090 0.93530 0.26590 0.02300
C 	C 	0.58710 0.98750 0.31420 -0.01800
H 	H 	0.64470 0.97820 0.32350 0.03100
O 	O 	0.85230 0.80920 0.62788 -0.42900
O 	O 	0.98840 0.83123 0.64375 -0.44000
O 	O 	0.14340 0.69230 0.47314 -0.47400
O 	O 	0.00880 0.66560 0.45969 -0.43800
C 	C 	0.06080 0.69290 0.48177 0.31700
C 	C 	0.03020 0.72090 0.51800 -0.04700
C 	C 	0.08920 0.74640 0.54410 0.09900
C 	C 	0.93990 0.72290 0.52540 -0.00100
N 	N 	0.17890 0.75230 0.53860 -0.21500
C 	C 	0.05790 0.77380 0.57770 -0.03500
H 	H 	0.89960 0.70550 0.50760 0.03400
C 	C 	0.90860 0.75030 0.55900 -0.02400
H 	H 	0.20360 0.73930 0.51690 0.12000
H 	H 	0.21150 0.76900 0.55670 0.12400
H 	H 	0.09820 0.79120 0.59560 0.04300
C 	C 	0.96760 0.77580 0.58520 -0.02200
H 	H 	0.84690 0.75170 0.56410 0.04300
C 	C 	0.93450 0.80620 0.62134 0.28300
N 	N 	0.83950 0.53840 0.27310 -0.19800
H 	H 	0.81390 0.56710 0.28580 0.11900
H 	H 	0.81520 0.52450 0.25160 0.10800
C 	C 	0.95070 0.54030 0.32140 -0.05700
H 	H 	0.91500 0.56700 0.33550 0.06000
C 	C 	0.91880 0.51480 0.28720 0.04700
C 	C 	0.97100 0.47570 0.26650 -0.05400
C 	C 	0.05520 0.46210 0.28000 0.00100
H 	H 	0.09090 0.43530 0.26590 0.02300
C 	C 	0.08710 0.48750 0.31420 -0.01800
H 	H 	0.14470 0.47820 0.32350 0.03100
O 	O 	0.85230 0.30920 0.12788 -0.42900
O 	O 	0.98840 0.33123 0.14375 -0.44000
O 	O 	0.14340 0.19230 0.97314 -0.47400
O 	O 	0.00880 0.16560 0.95969 -0.43800
C 	C 	0.06080 0.19290 0.98177 0.31800
C 	C 	0.03020 0.22090 0.01800 -0.04700
C 	C 	0.08920 0.24640 0.04410 0.09900
C 	C 	0.93990 0.22290 0.02540 -0.00200
N 	N 	0.17890 0.25230 0.03860 -0.21500
C 	C 	0.05790 0.27380 0.07770 -0.03500
H 	H 	0.89960 0.20550 0.00760 0.03400
C 	C 	0.90860 0.25030 0.05900 -0.02400
H 	H 	0.20360 0.23930 0.01690 0.12000
H 	H 	0.21150 0.26900 0.05670 0.12400
H 	H 	0.09820 0.29120 0.09560 0.04300
C 	C 	0.96760 0.27580 0.08520 -0.02200
H 	H 	0.84690 0.25170 0.06410 0.04300
C 	C 	0.93450 0.30620 0.12134 0.28300
N 	N 	0.83950 0.03840 0.77310 -0.19800
H 	H 	0.81390 0.06710 0.78580 0.11900
H 	H 	0.81520 0.02450 0.75160 0.10800
C 	C 	0.95070 0.04030 0.82140 -0.05700
H 	H 	0.91500 0.06700 0.83550 0.06000
C 	C 	0.91880 0.01480 0.78720 0.04700
C 	C 	0.97100 0.97570 0.76650 -0.05400
C 	C 	0.05520 0.96210 0.78000 0.00100
H 	H 	0.09090 0.93530 0.76590 0.02300
C 	C 	0.08710 0.98750 0.81420 -0.01700
H 	H 	0.14470 0.97820 0.82350 0.03000
O 	O 	0.89770 0.44080 0.12788 -0.42900
O 	O 	0.76160 0.41877 0.14375 -0.43900
O 	O 	0.60660 0.55770 0.97314 -0.47400
O 	O 	0.74120 0.58440 0.95969 -0.43800
C 	C 	0.68920 0.55710 0.98177 0.31700
C 	C 	0.71980 0.52910 0.01800 -0.04600
C 	C 	0.66080 0.50360 0.04410 0.09900
C 	C 	0.81010 0.52710 0.02540 -0.00200
N 	N 	0.57110 0.49770 0.03860 -0.21500
C 	C 	0.69210 0.47620 0.07770 -0.03500
H 	H 	0.85040 0.54450 0.00760 0.03400
C 	C 	0.84140 0.49970 0.05900 -0.02400
H 	H 	0.54640 0.51070 0.01690 0.12000
H 	H 	0.53850 0.48100 0.05670 0.12400
H 	H 	0.65180 0.45880 0.09560 0.04300
C 	C 	0.78240 0.47420 0.08520 -0.02200
H 	H 	0.90310 0.49830 0.06410 0.04300
C 	C 	0.81550 0.44380 0.12134 0.28300
N 	N 	0.91050 0.71160 0.77310 -0.19800
H 	H 	0.93610 0.68290 0.78580 0.11800
H 	H 	0.93480 0.72550 0.75160 0.10800
C 	C 	0.79930 0.70970 0.82140 -0.05700
H 	H 	0.83500 0.68300 0.83550 0.06000
C 	C 	0.83120 0.73520 0.78720 0.04700
C 	C 	0.77900 0.77430 0.76650 -0.05400
C 	C 	0.69480 0.78790 0.78000 0.00100
H 	H 	0.65910 0.81470 0.76590 0.02300
C 	C 	0.66290 0.76250 0.81420 -0.01800
H 	H 	0.60530 0.77180 0.82350 0.03100
O 	O 	0.89770 0.94080 0.62788 -0.42900
O 	O 	0.76160 0.91877 0.64375 -0.43900
O 	O 	0.60660 0.05770 0.47314 -0.47400
O 	O 	0.74120 0.08440 0.45969 -0.43800
C 	C 	0.68920 0.05710 0.48177 0.31700
C 	C 	0.71980 0.02910 0.51800 -0.04700
C 	C 	0.66080 0.00360 0.54410 0.09900
C 	C 	0.81010 0.02710 0.52540 -0.00200
N 	N 	0.57110 0.99770 0.53860 -0.21500
C 	C 	0.69210 0.97620 0.57770 -0.03500
H 	H 	0.85040 0.04450 0.50760 0.03400
C 	C 	0.84140 0.99970 0.55900 -0.02400
H 	H 	0.54640 0.01070 0.51690 0.12000
H 	H 	0.53850 0.98100 0.55670 0.12400
H 	H 	0.65180 0.95880 0.59560 0.04300
C 	C 	0.78240 0.97420 0.58520 -0.02200
H 	H 	0.90310 0.99830 0.56410 0.04400
C 	C 	0.81550 0.94380 0.62134 0.28300
N 	N 	0.91050 0.21160 0.27310 -0.19800
H 	H 	0.93610 0.18290 0.28580 0.11800
H 	H 	0.93480 0.22550 0.25160 0.10800
C 	C 	0.79930 0.20970 0.32140 -0.05700
H 	H 	0.83500 0.18300 0.33550 0.06000
C 	C 	0.83120 0.23520 0.28720 0.04700
C 	C 	0.77900 0.27430 0.26650 -0.05400
C 	C 	0.69480 0.28790 0.28000 0.00100
H 	H 	0.65910 0.31470 0.26590 0.02300
C 	C 	0.66290 0.26250 0.31420 -0.01800
H 	H 	0.60530 0.27180 0.32350 0.03100
O 	O 	0.39770 0.44080 0.62788 -0.42900
O 	O 	0.26160 0.41877 0.64375 -0.43900
O 	O 	0.10660 0.55770 0.47314 -0.47400
O 	O 	0.24120 0.58440 0.45969 -0.43800
C 	C 	0.18920 0.55710 0.48177 0.31700
C 	C 	0.21980 0.52910 0.51800 -0.04700
C 	C 	0.16080 0.50360 0.54410 0.09900
C 	C 	0.31010 0.52710 0.52540 -0.00200
N 	N 	0.07110 0.49770 0.53860 -0.21500
C 	C 	0.19210 0.47620 0.57770 -0.03500
H 	H 	0.35040 0.54450 0.50760 0.03400
C 	C 	0.34140 0.49970 0.55900 -0.02400
H 	H 	0.04640 0.51070 0.51690 0.12000
H 	H 	0.03850 0.48100 0.55670 0.12400
H 	H 	0.15180 0.45880 0.59560 0.04300
C 	C 	0.28240 0.47420 0.58520 -0.02200
H 	H 	0.40310 0.49830 0.56410 0.04300
C 	C 	0.31550 0.44380 0.62134 0.28300
N 	N 	0.41050 0.71160 0.27310 -0.19800
H 	H 	0.43610 0.68290 0.28580 0.11900
H 	H 	0.43480 0.72550 0.25160 0.10800
C 	C 	0.29930 0.70970 0.32140 -0.05700
H 	H 	0.33500 0.68300 0.33550 0.06000
C 	C 	0.33120 0.73520 0.28720 0.04700
C 	C 	0.27900 0.77430 0.26650 -0.05400
C 	C 	0.19480 0.78790 0.28000 0.00100
H 	H 	0.15910 0.81470 0.26590 0.02300
C 	C 	0.16290 0.76250 0.31420 -0.01800
H 	H 	0.10530 0.77180 0.32350 0.03100
O 	O 	0.39770 0.94080 0.12788 -0.42900
O 	O 	0.26160 0.91877 0.14375 -0.43900
O 	O 	0.10660 0.05770 0.97314 -0.47400
O 	O 	0.24120 0.08440 0.95969 -0.43800
C 	C 	0.18920 0.05710 0.98177 0.31800
C 	C 	0.21980 0.02910 0.01800 -0.04700
C 	C 	0.16080 0.00360 0.04410 0.09900
C 	C 	0.31010 0.02710 0.02540 -0.00200
N 	N 	0.07110 0.99770 0.03860 -0.21500
C 	C 	0.19210 0.97620 0.07770 -0.03500
H 	H 	0.35040 0.04450 0.00760 0.03400
C 	C 	0.34140 0.99970 0.05900 -0.02400
H 	H 	0.04640 0.01070 0.01690 0.12000
H 	H 	0.03850 0.98100 0.05670 0.12400
H 	H 	0.15180 0.95880 0.09560 0.04300
C 	C 	0.28240 0.97420 0.08520 -0.02200
H 	H 	0.40310 0.99830 0.06410 0.04400
C 	C 	0.31550 0.94380 0.12134 0.28300
N 	N 	0.41050 0.21160 0.77310 -0.19800
H 	H 	0.43610 0.18290 0.78580 0.11900
H 	H 	0.43480 0.22550 0.75160 0.10800
C 	C 	0.29930 0.20970 0.82140 -0.05700
H 	H 	0.33500 0.18300 0.83550 0.06000
C 	C 	0.33120 0.23520 0.78720 0.04700
C 	C 	0.27900 0.27430 0.76650 -0.05400
C 	C 	0.19480 0.28790 0.78000 0.00100
H 	H 	0.15910 0.31470 0.76590 0.02300
C 	C 	0.16290 0.26250 0.81420 -0.01800
H 	H 	0.10530 0.27180 0.82350 0.03100
In	In	0.37500 0.37500 0.67656 1.99800
In	In	0.37500 0.87500 0.17656 1.99800
In	In	0.87500 0.37500 0.17656 1.99800
In	In	0.87500 0.87500 0.67656 1.99800
In	In	0.62500 0.62500 0.92656 1.99800
In	In	0.62500 0.12500 0.42656 1.99800
In	In	0.12500 0.62500 0.42656 1.99800
In	In	0.12500 0.12500 0.92656 1.99800
