data_crystal

_cell_length_a 15.10460
_cell_length_b 24.53180
_cell_length_c 33.15390
_cell_angle_alpha 90.00000
_cell_angle_beta  90.00000
_cell_angle_gamma 90.00000

_symmetry_space_group_name_	'P 1'
_symmetry_space_group_name_H-M	'P 1'

loop_
_symmetry_equiv_pos_as_xyz
  x,y,z

loop_
_atom_site_label
_atom_site_type_symbol
_atom_site_fract_x
_atom_site_fract_y
_atom_site_fract_z
_atom_site_charge
O 	O 	0.35580 0.30980 0.02182 -0.48100
O 	O 	0.49090 0.33750 0.03377 -0.46400
O 	O 	0.64660 0.18860 0.86766 -0.43700
O 	O 	0.51150 0.16420 0.85314 -0.44500
N 	N 	0.33650 0.21490 0.97650 -0.19600
H 	H 	0.30560 0.19010 0.96350 0.10300
H 	H 	0.31550 0.22940 0.99880 0.09700
C 	C 	0.43860 0.30910 0.01300 0.34900
C 	C 	0.47080 0.27720 0.97820 -0.18000
C 	C 	0.53270 0.22200 0.91080 -0.00300
C 	C 	0.56540 0.19040 0.87480 0.27900
C 	C 	0.41910 0.23140 0.96160 0.11200
C 	C 	0.44980 0.20700 0.92580 -0.03900
H 	H 	0.41470 0.18070 0.91210 0.04700
C 	C 	0.58810 0.26210 0.92930 -0.04900
H 	H 	0.64480 0.27080 0.91860 0.03700
C 	C 	0.55530 0.28820 0.96390 0.06100
C 	C 	0.41190 0.25070 0.95370 0.05400
C 	C 	0.44400 0.22450 0.91910 -0.07700
H 	H 	0.40330 0.20810 0.90090 0.05900
C 	C 	0.59210 0.24790 0.93550 -0.05400
H 	H 	0.65370 0.24710 0.92960 0.05000
C 	C 	0.56000 0.27540 0.96960 0.08700
N 	N 	0.62700 0.30100 0.99240 -0.12800
H 	H 	0.61280 0.32050 0.01390 0.07500
H 	H 	0.68290 0.29850 0.98510 0.05600
N 	N 	0.61000 0.32300 0.98280 -0.19200
H 	H 	0.59240 0.33920 0.00500 0.11000
H 	H 	0.66310 0.32880 0.97300 0.10500
N 	N 	0.32290 0.24480 0.96100 -0.19400
H 	H 	0.29940 0.25870 0.98290 0.11900
H 	H 	0.28950 0.22700 0.94360 0.11000
O 	O 	0.35580 0.80980 0.52182 -0.48100
O 	O 	0.49090 0.83750 0.53377 -0.46400
O 	O 	0.64660 0.68860 0.36766 -0.43700
O 	O 	0.51150 0.66420 0.35314 -0.44500
N 	N 	0.33650 0.71490 0.47650 -0.19600
H 	H 	0.30560 0.69010 0.46350 0.10300
H 	H 	0.31550 0.72940 0.49880 0.09700
C 	C 	0.43860 0.80910 0.51300 0.34900
C 	C 	0.47080 0.77720 0.47820 -0.18000
C 	C 	0.53270 0.72200 0.41080 -0.00300
C 	C 	0.56540 0.69040 0.37480 0.27900
C 	C 	0.41910 0.73140 0.46160 0.11200
C 	C 	0.44980 0.70700 0.42580 -0.03900
H 	H 	0.41470 0.68070 0.41210 0.04700
C 	C 	0.58810 0.76210 0.42930 -0.04900
H 	H 	0.64480 0.77080 0.41860 0.03700
C 	C 	0.55530 0.78820 0.46390 0.06100
C 	C 	0.41190 0.75070 0.45370 0.05400
C 	C 	0.44400 0.72450 0.41910 -0.07700
H 	H 	0.40330 0.70810 0.40090 0.05900
C 	C 	0.59210 0.74790 0.43550 -0.05400
H 	H 	0.65370 0.74710 0.42960 0.05000
C 	C 	0.56000 0.77540 0.46960 0.08700
N 	N 	0.62700 0.80100 0.49240 -0.12800
H 	H 	0.61280 0.82050 0.51390 0.07500
H 	H 	0.68290 0.79850 0.48510 0.05600
N 	N 	0.61000 0.82300 0.48280 -0.19100
H 	H 	0.59240 0.83920 0.50500 0.11100
H 	H 	0.66310 0.82880 0.47300 0.10700
N 	N 	0.32290 0.74480 0.46100 -0.19300
H 	H 	0.29940 0.75870 0.48290 0.12000
H 	H 	0.28950 0.72700 0.44360 0.11100
O 	O 	0.85580 0.30980 0.52182 -0.48000
O 	O 	0.99090 0.33750 0.53377 -0.46400
O 	O 	0.14660 0.18860 0.36766 -0.43600
O 	O 	0.01150 0.16420 0.35314 -0.44400
N 	N 	0.83650 0.21490 0.47650 -0.19500
H 	H 	0.80560 0.19010 0.46350 0.10400
H 	H 	0.81550 0.22940 0.49880 0.09800
C 	C 	0.93860 0.30910 0.51300 0.35100
C 	C 	0.97080 0.27720 0.47820 -0.17900
C 	C 	0.03270 0.22200 0.41080 -0.00200
C 	C 	0.06540 0.19040 0.37480 0.28000
C 	C 	0.91910 0.23140 0.46160 0.11300
C 	C 	0.94980 0.20700 0.42580 -0.03800
H 	H 	0.91470 0.18070 0.41210 0.04800
C 	C 	0.08810 0.26210 0.42930 -0.04800
H 	H 	0.14480 0.27080 0.41860 0.03800
C 	C 	0.05530 0.28820 0.46390 0.06200
C 	C 	0.91190 0.25070 0.45370 0.05500
C 	C 	0.94400 0.22450 0.41910 -0.07600
H 	H 	0.90330 0.20810 0.40090 0.06000
C 	C 	0.09210 0.24790 0.43550 -0.05300
H 	H 	0.15370 0.24710 0.42960 0.05100
C 	C 	0.06000 0.27540 0.46960 0.08800
N 	N 	0.12700 0.30100 0.49240 -0.12700
H 	H 	0.11280 0.32050 0.51390 0.07600
H 	H 	0.18290 0.29850 0.48510 0.05700
N 	N 	0.11000 0.32300 0.48280 -0.19100
H 	H 	0.09240 0.33920 0.50500 0.11200
H 	H 	0.16310 0.32880 0.47300 0.10700
N 	N 	0.82290 0.24480 0.46100 -0.19300
H 	H 	0.79940 0.25870 0.48290 0.12000
H 	H 	0.78950 0.22700 0.44360 0.11100
O 	O 	0.85580 0.80980 0.02182 -0.48000
O 	O 	0.99090 0.83750 0.03377 -0.46300
O 	O 	0.14660 0.68860 0.86766 -0.43600
O 	O 	0.01150 0.66420 0.85314 -0.44400
N 	N 	0.83650 0.71490 0.97650 -0.19500
H 	H 	0.80560 0.69010 0.96350 0.10400
H 	H 	0.81550 0.72940 0.99880 0.09800
C 	C 	0.93860 0.80910 0.01300 0.35100
C 	C 	0.97080 0.77720 0.97820 -0.17900
C 	C 	0.03270 0.72200 0.91080 -0.00200
C 	C 	0.06540 0.69040 0.87480 0.28000
C 	C 	0.91910 0.73140 0.96160 0.11300
C 	C 	0.94980 0.70700 0.92580 -0.03800
H 	H 	0.91470 0.68070 0.91210 0.04800
C 	C 	0.08810 0.76210 0.92930 -0.04800
H 	H 	0.14480 0.77080 0.91860 0.03800
C 	C 	0.05530 0.78820 0.96390 0.06200
C 	C 	0.91190 0.75070 0.95370 0.05500
C 	C 	0.94400 0.72450 0.91910 -0.07600
H 	H 	0.90330 0.70810 0.90090 0.06000
C 	C 	0.09210 0.74790 0.93550 -0.05300
H 	H 	0.15370 0.74710 0.92960 0.05100
C 	C 	0.06000 0.77540 0.96960 0.08800
N 	N 	0.12700 0.80100 0.99240 -0.12700
H 	H 	0.11280 0.82050 0.01390 0.07600
H 	H 	0.18290 0.79850 0.98510 0.05800
N 	N 	0.11000 0.82300 0.98280 -0.19100
H 	H 	0.09240 0.83920 0.00500 0.11100
H 	H 	0.16310 0.82880 0.97300 0.10600
N 	N 	0.82290 0.74480 0.96100 -0.19300
H 	H 	0.79940 0.75870 0.98290 0.12000
H 	H 	0.78950 0.72700 0.94360 0.11100
O 	O 	0.39420 0.44020 0.02182 -0.48000
O 	O 	0.25910 0.41250 0.03377 -0.46300
O 	O 	0.10340 0.56140 0.86766 -0.43600
O 	O 	0.23850 0.58580 0.85314 -0.44400
N 	N 	0.41350 0.53510 0.97650 -0.19500
H 	H 	0.44440 0.55990 0.96350 0.10400
H 	H 	0.43450 0.52060 0.99880 0.09800
C 	C 	0.31140 0.44090 0.01300 0.35000
C 	C 	0.27920 0.47280 0.97820 -0.17900
C 	C 	0.21730 0.52800 0.91080 -0.00200
C 	C 	0.18460 0.55960 0.87480 0.28000
C 	C 	0.33090 0.51860 0.96160 0.11300
C 	C 	0.30020 0.54300 0.92580 -0.03800
H 	H 	0.33530 0.56930 0.91210 0.04800
C 	C 	0.16190 0.48790 0.92930 -0.04800
H 	H 	0.10520 0.47920 0.91860 0.03800
C 	C 	0.19470 0.46180 0.96390 0.06200
C 	C 	0.33810 0.49930 0.95370 0.05500
C 	C 	0.30600 0.52550 0.91910 -0.07600
H 	H 	0.34670 0.54190 0.90090 0.06000
C 	C 	0.15790 0.50210 0.93550 -0.05300
H 	H 	0.09630 0.50290 0.92960 0.05100
C 	C 	0.19000 0.47460 0.96960 0.08800
N 	N 	0.12300 0.44900 0.99240 -0.12700
H 	H 	0.13720 0.42950 0.01390 0.07600
H 	H 	0.06710 0.45150 0.98510 0.05700
N 	N 	0.14000 0.42700 0.98280 -0.19100
H 	H 	0.15760 0.41080 0.00500 0.11100
H 	H 	0.08690 0.42120 0.97300 0.10700
N 	N 	0.42710 0.50520 0.96100 -0.19300
H 	H 	0.45060 0.49130 0.98290 0.12000
H 	H 	0.46050 0.52300 0.94360 0.11100
O 	O 	0.39420 0.94020 0.52182 -0.48000
O 	O 	0.25910 0.91250 0.53377 -0.46300
O 	O 	0.10340 0.06140 0.36766 -0.43600
O 	O 	0.23850 0.08580 0.35314 -0.44400
N 	N 	0.41350 0.03510 0.47650 -0.19500
H 	H 	0.44440 0.05990 0.46350 0.10400
H 	H 	0.43450 0.02060 0.49880 0.09800
C 	C 	0.31140 0.94090 0.51300 0.35100
C 	C 	0.27920 0.97280 0.47820 -0.17900
C 	C 	0.21730 0.02800 0.41080 -0.00200
C 	C 	0.18460 0.05960 0.37480 0.28000
C 	C 	0.33090 0.01860 0.46160 0.11100
C 	C 	0.30020 0.04300 0.42580 -0.03900
H 	H 	0.33530 0.06930 0.41210 0.04900
C 	C 	0.16190 0.98790 0.42930 -0.04700
H 	H 	0.10520 0.97920 0.41860 0.03700
C 	C 	0.19470 0.96180 0.46390 0.06200
C 	C 	0.33810 0.99930 0.45370 0.05700
C 	C 	0.30600 0.02550 0.41910 -0.07600
H 	H 	0.34670 0.04190 0.40090 0.05900
C 	C 	0.15790 0.00210 0.43550 -0.05400
H 	H 	0.09630 0.00290 0.42960 0.05200
C 	C 	0.19000 0.97460 0.46960 0.08800
N 	N 	0.12300 0.94900 0.49240 -0.12700
H 	H 	0.13720 0.92950 0.51390 0.07600
H 	H 	0.06710 0.95150 0.48510 0.05700
N 	N 	0.14000 0.92700 0.48280 -0.19100
H 	H 	0.15760 0.91080 0.50500 0.11200
H 	H 	0.08690 0.92120 0.47300 0.10600
N 	N 	0.42710 0.00520 0.46100 -0.19300
H 	H 	0.45060 0.99130 0.48290 0.12000
H 	H 	0.46050 0.02300 0.44360 0.11100
O 	O 	0.89420 0.44020 0.52182 -0.48000
O 	O 	0.75910 0.41250 0.53377 -0.46300
O 	O 	0.60340 0.56140 0.36766 -0.43600
O 	O 	0.73850 0.58580 0.35314 -0.44400
N 	N 	0.91350 0.53510 0.47650 -0.19500
H 	H 	0.94440 0.55990 0.46350 0.10400
H 	H 	0.93450 0.52060 0.49880 0.09800
C 	C 	0.81140 0.44090 0.51300 0.35000
C 	C 	0.77920 0.47280 0.47820 -0.17900
C 	C 	0.71730 0.52800 0.41080 -0.00200
C 	C 	0.68460 0.55960 0.37480 0.28000
C 	C 	0.83090 0.51860 0.46160 0.11300
C 	C 	0.80020 0.54300 0.42580 -0.03800
H 	H 	0.83530 0.56930 0.41210 0.04800
C 	C 	0.66190 0.48790 0.42930 -0.04800
H 	H 	0.60520 0.47920 0.41860 0.03800
C 	C 	0.69470 0.46180 0.46390 0.06200
C 	C 	0.83810 0.49930 0.45370 0.05500
C 	C 	0.80600 0.52550 0.41910 -0.07600
H 	H 	0.84670 0.54190 0.40090 0.06000
C 	C 	0.65790 0.50210 0.43550 -0.05300
H 	H 	0.59630 0.50290 0.42960 0.05100
C 	C 	0.69000 0.47460 0.46960 0.08800
N 	N 	0.62300 0.44900 0.49240 -0.12700
H 	H 	0.63720 0.42950 0.51390 0.07600
H 	H 	0.56710 0.45150 0.48510 0.05700
N 	N 	0.64000 0.42700 0.48280 -0.19100
H 	H 	0.65760 0.41080 0.50500 0.11100
H 	H 	0.58690 0.42120 0.47300 0.10700
N 	N 	0.92710 0.50520 0.46100 -0.19300
H 	H 	0.95060 0.49130 0.48290 0.12000
H 	H 	0.96050 0.52300 0.44360 0.11100
O 	O 	0.89420 0.94020 0.02182 -0.47900
O 	O 	0.75910 0.91250 0.03377 -0.46300
O 	O 	0.60340 0.06140 0.86766 -0.43600
O 	O 	0.73850 0.08580 0.85314 -0.44400
N 	N 	0.91350 0.03510 0.97650 -0.19500
H 	H 	0.94440 0.05990 0.96350 0.10400
H 	H 	0.93450 0.02060 0.99880 0.09700
C 	C 	0.81140 0.94090 0.01300 0.35000
C 	C 	0.77920 0.97280 0.97820 -0.17900
C 	C 	0.71730 0.02800 0.91080 -0.00200
C 	C 	0.68460 0.05960 0.87480 0.28000
C 	C 	0.83090 0.01860 0.96160 0.11600
C 	C 	0.80020 0.04300 0.92580 -0.03700
H 	H 	0.83530 0.06930 0.91210 0.04800
C 	C 	0.66190 0.98790 0.92930 -0.04900
H 	H 	0.60520 0.97920 0.91860 0.03800
C 	C 	0.69470 0.96180 0.96390 0.06200
C 	C 	0.83810 0.99930 0.95370 0.05100
C 	C 	0.80600 0.02550 0.91910 -0.07700
H 	H 	0.84670 0.04190 0.90090 0.06000
C 	C 	0.65790 0.00210 0.93550 -0.05300
H 	H 	0.59630 0.00290 0.92960 0.05000
C 	C 	0.69000 0.97460 0.96960 0.08900
N 	N 	0.62300 0.94900 0.99240 -0.12700
H 	H 	0.63720 0.92950 0.01390 0.07600
H 	H 	0.56710 0.95150 0.98510 0.05700
N 	N 	0.64000 0.92700 0.98280 -0.19100
H 	H 	0.65760 0.91080 0.00500 0.11100
H 	H 	0.58690 0.92120 0.97300 0.10600
N 	N 	0.92710 0.00520 0.96100 -0.19300
H 	H 	0.95060 0.99130 0.98290 0.12000
H 	H 	0.96050 0.02300 0.94360 0.11100
O 	O 	0.60580 0.69020 0.27182 -0.48000
O 	O 	0.74090 0.66250 0.28377 -0.46300
O 	O 	0.89660 0.81140 0.11766 -0.43600
O 	O 	0.76150 0.83580 0.10314 -0.44400
N 	N 	0.58650 0.78510 0.22650 -0.19500
H 	H 	0.55560 0.80990 0.21350 0.10400
H 	H 	0.56550 0.77060 0.24880 0.09800
C 	C 	0.68860 0.69090 0.26300 0.35000
C 	C 	0.72080 0.72280 0.22820 -0.17900
C 	C 	0.78270 0.77800 0.16080 -0.00200
C 	C 	0.81540 0.80960 0.12480 0.28000
C 	C 	0.66910 0.76860 0.21160 0.11300
C 	C 	0.69980 0.79300 0.17580 -0.03800
H 	H 	0.66470 0.81930 0.16210 0.04800
C 	C 	0.83810 0.73790 0.17930 -0.04800
H 	H 	0.89480 0.72920 0.16860 0.03800
C 	C 	0.80530 0.71180 0.21390 0.06200
C 	C 	0.66190 0.74930 0.20370 0.05500
C 	C 	0.69400 0.77550 0.16910 -0.07600
H 	H 	0.65330 0.79190 0.15090 0.06000
C 	C 	0.84210 0.75210 0.18550 -0.05300
H 	H 	0.90370 0.75290 0.17960 0.05100
C 	C 	0.81000 0.72460 0.21960 0.08800
N 	N 	0.87700 0.69900 0.24240 -0.12700
H 	H 	0.86280 0.67950 0.26390 0.07600
H 	H 	0.93290 0.70150 0.23510 0.05700
N 	N 	0.86000 0.67700 0.23280 -0.19100
H 	H 	0.84240 0.66080 0.25500 0.11100
H 	H 	0.91310 0.67120 0.22300 0.10600
N 	N 	0.57290 0.75520 0.21100 -0.19300
H 	H 	0.54940 0.74130 0.23290 0.12000
H 	H 	0.53950 0.77300 0.19360 0.11100
O 	O 	0.60580 0.19020 0.77182 -0.48000
O 	O 	0.74090 0.16250 0.78377 -0.46300
O 	O 	0.89660 0.31140 0.61766 -0.43600
O 	O 	0.76150 0.33580 0.60314 -0.44400
N 	N 	0.58650 0.28510 0.72650 -0.19500
H 	H 	0.55560 0.30990 0.71350 0.10400
H 	H 	0.56550 0.27060 0.74880 0.09800
C 	C 	0.68860 0.19090 0.76300 0.35000
C 	C 	0.72080 0.22280 0.72820 -0.17900
C 	C 	0.78270 0.27800 0.66080 -0.00200
C 	C 	0.81540 0.30960 0.62480 0.28000
C 	C 	0.66910 0.26860 0.71160 0.11300
C 	C 	0.69980 0.29300 0.67580 -0.03800
H 	H 	0.66470 0.31930 0.66210 0.04800
C 	C 	0.83810 0.23790 0.67930 -0.04800
H 	H 	0.89480 0.22920 0.66860 0.03800
C 	C 	0.80530 0.21180 0.71390 0.06200
C 	C 	0.66190 0.24930 0.70370 0.05500
C 	C 	0.69400 0.27550 0.66910 -0.07600
H 	H 	0.65330 0.29190 0.65090 0.06000
C 	C 	0.84210 0.25210 0.68550 -0.05300
H 	H 	0.90370 0.25290 0.67960 0.05100
C 	C 	0.81000 0.22460 0.71960 0.08800
N 	N 	0.87700 0.19900 0.74240 -0.12700
H 	H 	0.86280 0.17950 0.76390 0.07600
H 	H 	0.93290 0.20150 0.73510 0.05700
N 	N 	0.86000 0.17700 0.73280 -0.19100
H 	H 	0.84240 0.16080 0.75500 0.11100
H 	H 	0.91310 0.17120 0.72300 0.10600
N 	N 	0.57290 0.25520 0.71100 -0.19300
H 	H 	0.54940 0.24130 0.73290 0.12000
H 	H 	0.53950 0.27300 0.69360 0.11100
O 	O 	0.10580 0.69020 0.77182 -0.48000
O 	O 	0.24090 0.66250 0.78377 -0.46300
O 	O 	0.39660 0.81140 0.61766 -0.43600
O 	O 	0.26150 0.83580 0.60314 -0.44400
N 	N 	0.08650 0.78510 0.72650 -0.19500
H 	H 	0.05560 0.80990 0.71350 0.10400
H 	H 	0.06550 0.77060 0.74880 0.09800
C 	C 	0.18860 0.69090 0.76300 0.35000
C 	C 	0.22080 0.72280 0.72820 -0.17900
C 	C 	0.28270 0.77800 0.66080 -0.00200
C 	C 	0.31540 0.80960 0.62480 0.28000
C 	C 	0.16910 0.76860 0.71160 0.11300
C 	C 	0.19980 0.79300 0.67580 -0.03800
H 	H 	0.16470 0.81930 0.66210 0.04800
C 	C 	0.33810 0.73790 0.67930 -0.04800
H 	H 	0.39480 0.72920 0.66860 0.03800
C 	C 	0.30530 0.71180 0.71390 0.06200
C 	C 	0.16190 0.74930 0.70370 0.05500
C 	C 	0.19400 0.77550 0.66910 -0.07600
H 	H 	0.15330 0.79190 0.65090 0.06000
C 	C 	0.34210 0.75210 0.68550 -0.05300
H 	H 	0.40370 0.75290 0.67960 0.05100
C 	C 	0.31000 0.72460 0.71960 0.08800
N 	N 	0.37700 0.69900 0.74240 -0.12700
H 	H 	0.36280 0.67950 0.76390 0.07600
H 	H 	0.43290 0.70150 0.73510 0.05700
N 	N 	0.36000 0.67700 0.73280 -0.19100
H 	H 	0.34240 0.66080 0.75500 0.11100
H 	H 	0.41310 0.67120 0.72300 0.10700
N 	N 	0.07290 0.75520 0.71100 -0.19300
H 	H 	0.04940 0.74130 0.73290 0.12000
H 	H 	0.03950 0.77300 0.69360 0.11100
O 	O 	0.10580 0.19020 0.27182 -0.48000
O 	O 	0.24090 0.16250 0.28377 -0.46300
O 	O 	0.39660 0.31140 0.11766 -0.43600
O 	O 	0.26150 0.33580 0.10314 -0.44400
N 	N 	0.08650 0.28510 0.22650 -0.19500
H 	H 	0.05560 0.30990 0.21350 0.10400
H 	H 	0.06550 0.27060 0.24880 0.09800
C 	C 	0.18860 0.19090 0.26300 0.35000
C 	C 	0.22080 0.22280 0.22820 -0.17900
C 	C 	0.28270 0.27800 0.16080 -0.00200
C 	C 	0.31540 0.30960 0.12480 0.28000
C 	C 	0.16910 0.26860 0.21160 0.11300
C 	C 	0.19980 0.29300 0.17580 -0.03800
H 	H 	0.16470 0.31930 0.16210 0.04800
C 	C 	0.33810 0.23790 0.17930 -0.04800
H 	H 	0.39480 0.22920 0.16860 0.03800
C 	C 	0.30530 0.21180 0.21390 0.06200
C 	C 	0.16190 0.24930 0.20370 0.05500
C 	C 	0.19400 0.27550 0.16910 -0.07600
H 	H 	0.15330 0.29190 0.15090 0.06000
C 	C 	0.34210 0.25210 0.18550 -0.05300
H 	H 	0.40370 0.25290 0.17960 0.05100
C 	C 	0.31000 0.22460 0.21960 0.08800
N 	N 	0.37700 0.19900 0.24240 -0.12700
H 	H 	0.36280 0.17950 0.26390 0.07600
H 	H 	0.43290 0.20150 0.23510 0.05700
N 	N 	0.36000 0.17700 0.23280 -0.19100
H 	H 	0.34240 0.16080 0.25500 0.11100
H 	H 	0.41310 0.17120 0.22300 0.10700
N 	N 	0.07290 0.25520 0.21100 -0.19300
H 	H 	0.04940 0.24130 0.23290 0.12000
H 	H 	0.03950 0.27300 0.19360 0.11100
O 	O 	0.64420 0.55980 0.27182 -0.48000
O 	O 	0.50910 0.58750 0.28377 -0.46300
O 	O 	0.35340 0.43860 0.11766 -0.43600
O 	O 	0.48850 0.41420 0.10314 -0.44400
N 	N 	0.66350 0.46490 0.22650 -0.19500
H 	H 	0.69440 0.44010 0.21350 0.10400
H 	H 	0.68450 0.47940 0.24880 0.09800
C 	C 	0.56140 0.55910 0.26300 0.35000
C 	C 	0.52920 0.52720 0.22820 -0.17900
C 	C 	0.46730 0.47200 0.16080 -0.00200
C 	C 	0.43460 0.44040 0.12480 0.28000
C 	C 	0.58090 0.48140 0.21160 0.11300
C 	C 	0.55020 0.45700 0.17580 -0.03800
H 	H 	0.58530 0.43070 0.16210 0.04800
C 	C 	0.41190 0.51210 0.17930 -0.04800
H 	H 	0.35520 0.52080 0.16860 0.03800
C 	C 	0.44470 0.53820 0.21390 0.06200
C 	C 	0.58810 0.50070 0.20370 0.05500
C 	C 	0.55600 0.47450 0.16910 -0.07600
H 	H 	0.59670 0.45810 0.15090 0.06000
C 	C 	0.40790 0.49790 0.18550 -0.05300
H 	H 	0.34630 0.49710 0.17960 0.05100
C 	C 	0.44000 0.52540 0.21960 0.08800
N 	N 	0.37300 0.55100 0.24240 -0.12700
H 	H 	0.38720 0.57050 0.26390 0.07600
H 	H 	0.31710 0.54850 0.23510 0.05700
N 	N 	0.39000 0.57300 0.23280 -0.19100
H 	H 	0.40760 0.58920 0.25500 0.11100
H 	H 	0.33690 0.57880 0.22300 0.10700
N 	N 	0.67710 0.49480 0.21100 -0.19300
H 	H 	0.70060 0.50870 0.23290 0.12000
H 	H 	0.71050 0.47700 0.19360 0.11100
O 	O 	0.64420 0.05980 0.77182 -0.48000
O 	O 	0.50910 0.08750 0.78377 -0.46300
O 	O 	0.35340 0.93860 0.61766 -0.43600
O 	O 	0.48850 0.91420 0.60314 -0.44400
N 	N 	0.66350 0.96490 0.72650 -0.19500
H 	H 	0.69440 0.94010 0.71350 0.10400
H 	H 	0.68450 0.97940 0.74880 0.09800
C 	C 	0.56140 0.05910 0.76300 0.35000
C 	C 	0.52920 0.02720 0.72820 -0.17900
C 	C 	0.46730 0.97200 0.66080 -0.00200
C 	C 	0.43460 0.94040 0.62480 0.28000
C 	C 	0.58090 0.98140 0.71160 0.11200
C 	C 	0.55020 0.95700 0.67580 -0.03800
H 	H 	0.58530 0.93070 0.66210 0.04800
C 	C 	0.41190 0.01210 0.67930 -0.04800
H 	H 	0.35520 0.02080 0.66860 0.03800
C 	C 	0.44470 0.03820 0.71390 0.06200
C 	C 	0.58810 0.00070 0.70370 0.05600
C 	C 	0.55600 0.97450 0.66910 -0.07600
H 	H 	0.59670 0.95810 0.65090 0.05900
C 	C 	0.40790 0.99790 0.68550 -0.05300
H 	H 	0.34630 0.99710 0.67960 0.05000
C 	C 	0.44000 0.02540 0.71960 0.08800
N 	N 	0.37300 0.05100 0.74240 -0.12700
H 	H 	0.38720 0.07050 0.76390 0.07600
H 	H 	0.31710 0.04850 0.73510 0.05700
N 	N 	0.39000 0.07300 0.73280 -0.19100
H 	H 	0.40760 0.08920 0.75500 0.11100
H 	H 	0.33690 0.07880 0.72300 0.10700
N 	N 	0.67710 0.99480 0.71100 -0.19300
H 	H 	0.70060 0.00870 0.73290 0.11900
H 	H 	0.71050 0.97700 0.69360 0.11100
O 	O 	0.14420 0.55980 0.77182 -0.48000
O 	O 	0.00910 0.58750 0.78377 -0.46300
O 	O 	0.85340 0.43860 0.61766 -0.43600
O 	O 	0.98850 0.41420 0.60314 -0.44400
N 	N 	0.16350 0.46490 0.72650 -0.19500
H 	H 	0.19440 0.44010 0.71350 0.10400
H 	H 	0.18450 0.47940 0.74880 0.09800
C 	C 	0.06140 0.55910 0.76300 0.35000
C 	C 	0.02920 0.52720 0.72820 -0.17900
C 	C 	0.96730 0.47200 0.66080 -0.00200
C 	C 	0.93460 0.44040 0.62480 0.28000
C 	C 	0.08090 0.48140 0.71160 0.11300
C 	C 	0.05020 0.45700 0.67580 -0.03800
H 	H 	0.08530 0.43070 0.66210 0.04800
C 	C 	0.91190 0.51210 0.67930 -0.04800
H 	H 	0.85520 0.52080 0.66860 0.03800
C 	C 	0.94470 0.53820 0.71390 0.06200
C 	C 	0.08810 0.50070 0.70370 0.05500
C 	C 	0.05600 0.47450 0.66910 -0.07600
H 	H 	0.09670 0.45810 0.65090 0.06000
C 	C 	0.90790 0.49790 0.68550 -0.05300
H 	H 	0.84630 0.49710 0.67960 0.05100
C 	C 	0.94000 0.52540 0.71960 0.08800
N 	N 	0.87300 0.55100 0.74240 -0.12700
H 	H 	0.88720 0.57050 0.76390 0.07600
H 	H 	0.81710 0.54850 0.73510 0.05700
N 	N 	0.89000 0.57300 0.73280 -0.19100
H 	H 	0.90760 0.58920 0.75500 0.11100
H 	H 	0.83690 0.57880 0.72300 0.10700
N 	N 	0.17710 0.49480 0.71100 -0.19300
H 	H 	0.20060 0.50870 0.73290 0.12000
H 	H 	0.21050 0.47700 0.69360 0.11100
O 	O 	0.14420 0.05980 0.27182 -0.48000
O 	O 	0.00910 0.08750 0.28377 -0.46300
O 	O 	0.85340 0.93860 0.11766 -0.43600
O 	O 	0.98850 0.91420 0.10314 -0.44400
N 	N 	0.16350 0.96490 0.22650 -0.19600
H 	H 	0.19440 0.94010 0.21350 0.10400
H 	H 	0.18450 0.97940 0.24880 0.09800
C 	C 	0.06140 0.05910 0.26300 0.35000
C 	C 	0.02920 0.02720 0.22820 -0.17800
C 	C 	0.96730 0.97200 0.16080 -0.00100
C 	C 	0.93460 0.94040 0.12480 0.28000
C 	C 	0.08090 0.98140 0.21160 0.11700
C 	C 	0.05020 0.95700 0.17580 -0.03800
H 	H 	0.08530 0.93070 0.16210 0.04800
C 	C 	0.91190 0.01210 0.17930 -0.04700
H 	H 	0.85520 0.02080 0.16860 0.03700
C 	C 	0.94470 0.03820 0.21390 0.06100
C 	C 	0.08810 0.00070 0.20370 0.05100
C 	C 	0.05600 0.97450 0.16910 -0.07800
H 	H 	0.09670 0.95810 0.15090 0.06000
C 	C 	0.90790 0.99790 0.18550 -0.05400
H 	H 	0.84630 0.99710 0.17960 0.05100
C 	C 	0.94000 0.02540 0.21960 0.08800
N 	N 	0.87300 0.05100 0.24240 -0.12700
H 	H 	0.88720 0.07050 0.26390 0.07600
H 	H 	0.81710 0.04850 0.23510 0.05700
N 	N 	0.89000 0.07300 0.23280 -0.19100
H 	H 	0.90760 0.08920 0.25500 0.11100
H 	H 	0.83690 0.07880 0.22300 0.10600
N 	N 	0.17710 0.99480 0.21100 -0.19300
H 	H 	0.20060 0.00870 0.23290 0.12000
H 	H 	0.21050 0.97700 0.19360 0.11100
In	In	0.37500 0.37500 0.06860 1.99700
In	In	0.37500 0.87500 0.56860 1.99700
In	In	0.87500 0.37500 0.56860 1.99700
In	In	0.87500 0.87500 0.06860 1.99700
In	In	0.62500 0.62500 0.31860 1.99700
In	In	0.62500 0.12500 0.81860 1.99700
In	In	0.12500 0.62500 0.81860 1.99700
In	In	0.12500 0.12500 0.31860 1.99700
O 	O 	0.39420 0.30980 0.72818 -0.48000
O 	O 	0.25910 0.33750 0.71623 -0.46300
O 	O 	0.10340 0.18860 0.88234 -0.43600
O 	O 	0.23850 0.16420 0.89686 -0.44400
N 	N 	0.41350 0.21490 0.77350 -0.19500
H 	H 	0.44440 0.19010 0.78650 0.10400
H 	H 	0.43450 0.22940 0.75120 0.09800
C 	C 	0.31140 0.30910 0.73700 0.35000
C 	C 	0.27920 0.27720 0.77180 -0.17900
C 	C 	0.21730 0.22200 0.83920 -0.00200
C 	C 	0.18460 0.19040 0.87520 0.28000
C 	C 	0.33090 0.23140 0.78840 0.11300
C 	C 	0.30020 0.20700 0.82420 -0.03800
H 	H 	0.33530 0.18070 0.83790 0.04800
C 	C 	0.16190 0.26210 0.82070 -0.04800
H 	H 	0.10520 0.27080 0.83140 0.03800
C 	C 	0.19470 0.28820 0.78610 0.06200
C 	C 	0.33810 0.25070 0.79630 0.05500
C 	C 	0.30600 0.22450 0.83090 -0.07600
H 	H 	0.34670 0.20810 0.84910 0.06000
C 	C 	0.15790 0.24790 0.81450 -0.05300
H 	H 	0.09630 0.24710 0.82040 0.05100
C 	C 	0.19000 0.27540 0.78040 0.08800
N 	N 	0.12300 0.30100 0.75760 -0.12700
H 	H 	0.13720 0.32050 0.73610 0.07600
H 	H 	0.06710 0.29850 0.76490 0.05700
N 	N 	0.14000 0.32300 0.76720 -0.19100
H 	H 	0.15760 0.33920 0.74500 0.11100
H 	H 	0.08690 0.32880 0.77700 0.10600
N 	N 	0.42710 0.24480 0.78900 -0.19300
H 	H 	0.45060 0.25870 0.76710 0.12000
H 	H 	0.46050 0.22700 0.80640 0.11100
O 	O 	0.39420 0.80980 0.22818 -0.48000
O 	O 	0.25910 0.83750 0.21623 -0.46300
O 	O 	0.10340 0.68860 0.38234 -0.43600
O 	O 	0.23850 0.66420 0.39686 -0.44400
N 	N 	0.41350 0.71490 0.27350 -0.19500
H 	H 	0.44440 0.69010 0.28650 0.10400
H 	H 	0.43450 0.72940 0.25120 0.09800
C 	C 	0.31140 0.80910 0.23700 0.35000
C 	C 	0.27920 0.77720 0.27180 -0.17900
C 	C 	0.21730 0.72200 0.33920 -0.00200
C 	C 	0.18460 0.69040 0.37520 0.28000
C 	C 	0.33090 0.73140 0.28840 0.11300
C 	C 	0.30020 0.70700 0.32420 -0.03800
H 	H 	0.33530 0.68070 0.33790 0.04800
C 	C 	0.16190 0.76210 0.32070 -0.04800
H 	H 	0.10520 0.77080 0.33140 0.03800
C 	C 	0.19470 0.78820 0.28610 0.06200
C 	C 	0.33810 0.75070 0.29630 0.05500
C 	C 	0.30600 0.72450 0.33090 -0.07600
H 	H 	0.34670 0.70810 0.34910 0.06000
C 	C 	0.15790 0.74790 0.31450 -0.05300
H 	H 	0.09630 0.74710 0.32040 0.05100
C 	C 	0.19000 0.77540 0.28040 0.08800
N 	N 	0.12300 0.80100 0.25760 -0.12700
H 	H 	0.13720 0.82050 0.23610 0.07600
H 	H 	0.06710 0.79850 0.26490 0.05700
N 	N 	0.14000 0.82300 0.26720 -0.19100
H 	H 	0.15760 0.83920 0.24500 0.11100
H 	H 	0.08690 0.82880 0.27700 0.10600
N 	N 	0.42710 0.74480 0.28900 -0.19300
H 	H 	0.45060 0.75870 0.26710 0.12000
H 	H 	0.46050 0.72700 0.30640 0.11100
O 	O 	0.89420 0.30980 0.22818 -0.48000
O 	O 	0.75910 0.33750 0.21623 -0.46300
O 	O 	0.60340 0.18860 0.38234 -0.43600
O 	O 	0.73850 0.16420 0.39686 -0.44400
N 	N 	0.91350 0.21490 0.27350 -0.19500
H 	H 	0.94440 0.19010 0.28650 0.10400
H 	H 	0.93450 0.22940 0.25120 0.09800
C 	C 	0.81140 0.30910 0.23700 0.35000
C 	C 	0.77920 0.27720 0.27180 -0.17900
C 	C 	0.71730 0.22200 0.33920 -0.00200
C 	C 	0.68460 0.19040 0.37520 0.28000
C 	C 	0.83090 0.23140 0.28840 0.11300
C 	C 	0.80020 0.20700 0.32420 -0.03800
H 	H 	0.83530 0.18070 0.33790 0.04800
C 	C 	0.66190 0.26210 0.32070 -0.04800
H 	H 	0.60520 0.27080 0.33140 0.03800
C 	C 	0.69470 0.28820 0.28610 0.06200
C 	C 	0.83810 0.25070 0.29630 0.05500
C 	C 	0.80600 0.22450 0.33090 -0.07600
H 	H 	0.84670 0.20810 0.34910 0.06000
C 	C 	0.65790 0.24790 0.31450 -0.05300
H 	H 	0.59630 0.24710 0.32040 0.05100
C 	C 	0.69000 0.27540 0.28040 0.08800
N 	N 	0.62300 0.30100 0.25760 -0.12700
H 	H 	0.63720 0.32050 0.23610 0.07600
H 	H 	0.56710 0.29850 0.26490 0.05700
N 	N 	0.64000 0.32300 0.26720 -0.19100
H 	H 	0.65760 0.33920 0.24500 0.11100
H 	H 	0.58690 0.32880 0.27700 0.10700
N 	N 	0.92710 0.24480 0.28900 -0.19300
H 	H 	0.95060 0.25870 0.26710 0.12000
H 	H 	0.96050 0.22700 0.30640 0.11100
O 	O 	0.89420 0.80980 0.72818 -0.48000
O 	O 	0.75910 0.83750 0.71623 -0.46300
O 	O 	0.60340 0.68860 0.88234 -0.43600
O 	O 	0.73850 0.66420 0.89686 -0.44400
N 	N 	0.91350 0.71490 0.77350 -0.19500
H 	H 	0.94440 0.69010 0.78650 0.10400
H 	H 	0.93450 0.72940 0.75120 0.09800
C 	C 	0.81140 0.80910 0.73700 0.35000
C 	C 	0.77920 0.77720 0.77180 -0.17900
C 	C 	0.71730 0.72200 0.83920 -0.00200
C 	C 	0.68460 0.69040 0.87520 0.28000
C 	C 	0.83090 0.73140 0.78840 0.11300
C 	C 	0.80020 0.70700 0.82420 -0.03800
H 	H 	0.83530 0.68070 0.83790 0.04800
C 	C 	0.66190 0.76210 0.82070 -0.04800
H 	H 	0.60520 0.77080 0.83140 0.03800
C 	C 	0.69470 0.78820 0.78610 0.06200
C 	C 	0.83810 0.75070 0.79630 0.05500
C 	C 	0.80600 0.72450 0.83090 -0.07600
H 	H 	0.84670 0.70810 0.84910 0.06000
C 	C 	0.65790 0.74790 0.81450 -0.05300
H 	H 	0.59630 0.74710 0.82040 0.05100
C 	C 	0.69000 0.77540 0.78040 0.08800
N 	N 	0.62300 0.80100 0.75760 -0.12700
H 	H 	0.63720 0.82050 0.73610 0.07600
H 	H 	0.56710 0.79850 0.76490 0.05700
N 	N 	0.64000 0.82300 0.76720 -0.19100
H 	H 	0.65760 0.83920 0.74500 0.11100
H 	H 	0.58690 0.82880 0.77700 0.10700
N 	N 	0.92710 0.74480 0.78900 -0.19300
H 	H 	0.95060 0.75870 0.76710 0.12000
H 	H 	0.96050 0.72700 0.80640 0.11100
O 	O 	0.35580 0.44020 0.72818 -0.48000
O 	O 	0.49090 0.41250 0.71623 -0.46300
O 	O 	0.64660 0.56140 0.88234 -0.43600
O 	O 	0.51150 0.58580 0.89686 -0.44400
N 	N 	0.33650 0.53510 0.77350 -0.19500
H 	H 	0.30560 0.55990 0.78650 0.10400
H 	H 	0.31550 0.52060 0.75120 0.09800
C 	C 	0.43860 0.44090 0.73700 0.35000
C 	C 	0.47080 0.47280 0.77180 -0.17900
C 	C 	0.53270 0.52800 0.83920 -0.00200
C 	C 	0.56540 0.55960 0.87520 0.28000
C 	C 	0.41910 0.51860 0.78840 0.11300
C 	C 	0.44980 0.54300 0.82420 -0.03800
H 	H 	0.41470 0.56930 0.83790 0.04800
C 	C 	0.58810 0.48790 0.82070 -0.04800
H 	H 	0.64480 0.47920 0.83140 0.03800
C 	C 	0.55530 0.46180 0.78610 0.06200
C 	C 	0.41190 0.49930 0.79630 0.05500
C 	C 	0.44400 0.52550 0.83090 -0.07600
H 	H 	0.40330 0.54190 0.84910 0.06000
C 	C 	0.59210 0.50210 0.81450 -0.05300
H 	H 	0.65370 0.50290 0.82040 0.05100
C 	C 	0.56000 0.47460 0.78040 0.08800
N 	N 	0.62700 0.44900 0.75760 -0.12700
H 	H 	0.61280 0.42950 0.73610 0.07600
H 	H 	0.68290 0.45150 0.76490 0.05700
N 	N 	0.61000 0.42700 0.76720 -0.19100
H 	H 	0.59240 0.41080 0.74500 0.11100
H 	H 	0.66310 0.42120 0.77700 0.10700
N 	N 	0.32290 0.50520 0.78900 -0.19300
H 	H 	0.29940 0.49130 0.76710 0.12000
H 	H 	0.28950 0.52300 0.80640 0.11100
O 	O 	0.35580 0.94020 0.22818 -0.48000
O 	O 	0.49090 0.91250 0.21623 -0.46300
O 	O 	0.64660 0.06140 0.38234 -0.43600
O 	O 	0.51150 0.08580 0.39686 -0.44400
N 	N 	0.33650 0.03510 0.27350 -0.19500
H 	H 	0.30560 0.05990 0.28650 0.10400
H 	H 	0.31550 0.02060 0.25120 0.09800
C 	C 	0.43860 0.94090 0.23700 0.35000
C 	C 	0.47080 0.97280 0.27180 -0.17900
C 	C 	0.53270 0.02800 0.33920 -0.00200
C 	C 	0.56540 0.05960 0.37520 0.28000
C 	C 	0.41910 0.01860 0.28840 0.11200
C 	C 	0.44980 0.04300 0.32420 -0.03800
H 	H 	0.41470 0.06930 0.33790 0.04800
C 	C 	0.58810 0.98790 0.32070 -0.04800
H 	H 	0.64480 0.97920 0.33140 0.03800
C 	C 	0.55530 0.96180 0.28610 0.06200
C 	C 	0.41190 0.99930 0.29630 0.05600
C 	C 	0.44400 0.02550 0.33090 -0.07600
H 	H 	0.40330 0.04190 0.34910 0.05900
C 	C 	0.59210 0.00210 0.31450 -0.05300
H 	H 	0.65370 0.00290 0.32040 0.05000
C 	C 	0.56000 0.97460 0.28040 0.08800
N 	N 	0.62700 0.94900 0.25760 -0.12700
H 	H 	0.61280 0.92950 0.23610 0.07600
H 	H 	0.68290 0.95150 0.26490 0.05700
N 	N 	0.61000 0.92700 0.26720 -0.19100
H 	H 	0.59240 0.91080 0.24500 0.11100
H 	H 	0.66310 0.92120 0.27700 0.10700
N 	N 	0.32290 0.00520 0.28900 -0.19300
H 	H 	0.29940 0.99130 0.26710 0.11900
H 	H 	0.28950 0.02300 0.30640 0.11100
O 	O 	0.85580 0.44020 0.22818 -0.48000
O 	O 	0.99090 0.41250 0.21623 -0.46300
O 	O 	0.14660 0.56140 0.38234 -0.43600
O 	O 	0.01150 0.58580 0.39686 -0.44400
N 	N 	0.83650 0.53510 0.27350 -0.19500
H 	H 	0.80560 0.55990 0.28650 0.10400
H 	H 	0.81550 0.52060 0.25120 0.09800
C 	C 	0.93860 0.44090 0.23700 0.35000
C 	C 	0.97080 0.47280 0.27180 -0.17900
C 	C 	0.03270 0.52800 0.33920 -0.00200
C 	C 	0.06540 0.55960 0.37520 0.28000
C 	C 	0.91910 0.51860 0.28840 0.11300
C 	C 	0.94980 0.54300 0.32420 -0.03800
H 	H 	0.91470 0.56930 0.33790 0.04800
C 	C 	0.08810 0.48790 0.32070 -0.04800
H 	H 	0.14480 0.47920 0.33140 0.03800
C 	C 	0.05530 0.46180 0.28610 0.06200
C 	C 	0.91190 0.49930 0.29630 0.05500
C 	C 	0.94400 0.52550 0.33090 -0.07600
H 	H 	0.90330 0.54190 0.34910 0.06000
C 	C 	0.09210 0.50210 0.31450 -0.05300
H 	H 	0.15370 0.50290 0.32040 0.05100
C 	C 	0.06000 0.47460 0.28040 0.08800
N 	N 	0.12700 0.44900 0.25760 -0.12700
H 	H 	0.11280 0.42950 0.23610 0.07600
H 	H 	0.18290 0.45150 0.26490 0.05700
N 	N 	0.11000 0.42700 0.26720 -0.19100
H 	H 	0.09240 0.41080 0.24500 0.11100
H 	H 	0.16310 0.42120 0.27700 0.10700
N 	N 	0.82290 0.50520 0.28900 -0.19300
H 	H 	0.79940 0.49130 0.26710 0.12000
H 	H 	0.78950 0.52300 0.30640 0.11100
O 	O 	0.85580 0.94020 0.72818 -0.48000
O 	O 	0.99090 0.91250 0.71623 -0.46300
O 	O 	0.14660 0.06140 0.88234 -0.43600
O 	O 	0.01150 0.08580 0.89686 -0.44400
N 	N 	0.83650 0.03510 0.77350 -0.19600
H 	H 	0.80560 0.05990 0.78650 0.10400
H 	H 	0.81550 0.02060 0.75120 0.09800
C 	C 	0.93860 0.94090 0.73700 0.35000
C 	C 	0.97080 0.97280 0.77180 -0.17800
C 	C 	0.03270 0.02800 0.83920 -0.00100
C 	C 	0.06540 0.05960 0.87520 0.28000
C 	C 	0.91910 0.01860 0.78840 0.11700
C 	C 	0.94980 0.04300 0.82420 -0.03800
H 	H 	0.91470 0.06930 0.83790 0.04800
C 	C 	0.08810 0.98790 0.82070 -0.04700
H 	H 	0.14480 0.97920 0.83140 0.03700
C 	C 	0.05530 0.96180 0.78610 0.06100
C 	C 	0.91190 0.99930 0.79630 0.05100
C 	C 	0.94400 0.02550 0.83090 -0.07800
H 	H 	0.90330 0.04190 0.84910 0.06000
C 	C 	0.09210 0.00210 0.81450 -0.05400
H 	H 	0.15370 0.00290 0.82040 0.05100
C 	C 	0.06000 0.97460 0.78040 0.08800
N 	N 	0.12700 0.94900 0.75760 -0.12700
H 	H 	0.11280 0.92950 0.73610 0.07600
H 	H 	0.18290 0.95150 0.76490 0.05700
N 	N 	0.11000 0.92700 0.76720 -0.19100
H 	H 	0.09240 0.91080 0.74500 0.11100
H 	H 	0.16310 0.92120 0.77700 0.10600
N 	N 	0.82290 0.00520 0.78900 -0.19300
H 	H 	0.79940 0.99130 0.76710 0.12000
H 	H 	0.78950 0.02300 0.80640 0.11100
O 	O 	0.64420 0.69020 0.97818 -0.48000
O 	O 	0.50910 0.66250 0.96623 -0.46300
O 	O 	0.35340 0.81140 0.13234 -0.43600
O 	O 	0.48850 0.83580 0.14686 -0.44400
N 	N 	0.66350 0.78510 0.02350 -0.19500
H 	H 	0.69440 0.80990 0.03650 0.10400
H 	H 	0.68450 0.77060 0.00120 0.09800
C 	C 	0.56140 0.69090 0.98700 0.35000
C 	C 	0.52920 0.72280 0.02180 -0.17900
C 	C 	0.46730 0.77800 0.08920 -0.00200
C 	C 	0.43460 0.80960 0.12520 0.28000
C 	C 	0.58090 0.76860 0.03840 0.11300
C 	C 	0.55020 0.79300 0.07420 -0.03800
H 	H 	0.58530 0.81930 0.08790 0.04800
C 	C 	0.41190 0.73790 0.07070 -0.04800
H 	H 	0.35520 0.72920 0.08140 0.03800
C 	C 	0.44470 0.71180 0.03610 0.06200
C 	C 	0.58810 0.74930 0.04630 0.05500
C 	C 	0.55600 0.77550 0.08090 -0.07600
H 	H 	0.59670 0.79190 0.09910 0.06000
C 	C 	0.40790 0.75210 0.06450 -0.05300
H 	H 	0.34630 0.75290 0.07040 0.05100
C 	C 	0.44000 0.72460 0.03040 0.08800
N 	N 	0.37300 0.69900 0.00760 -0.12700
H 	H 	0.38720 0.67950 0.98610 0.07600
H 	H 	0.31710 0.70150 0.01490 0.05700
N 	N 	0.39000 0.67700 0.01720 -0.19100
H 	H 	0.40760 0.66080 0.99500 0.11100
H 	H 	0.33690 0.67120 0.02700 0.10600
N 	N 	0.67710 0.75520 0.03900 -0.19300
H 	H 	0.70060 0.74130 0.01710 0.12000
H 	H 	0.71050 0.77300 0.05640 0.11100
O 	O 	0.64420 0.19020 0.47818 -0.48000
O 	O 	0.50910 0.16250 0.46623 -0.46300
O 	O 	0.35340 0.31140 0.63234 -0.43600
O 	O 	0.48850 0.33580 0.64686 -0.44400
N 	N 	0.66350 0.28510 0.52350 -0.19500
H 	H 	0.69440 0.30990 0.53650 0.10400
H 	H 	0.68450 0.27060 0.50120 0.09800
C 	C 	0.56140 0.19090 0.48700 0.35000
C 	C 	0.52920 0.22280 0.52180 -0.17900
C 	C 	0.46730 0.27800 0.58920 -0.00200
C 	C 	0.43460 0.30960 0.62520 0.28000
C 	C 	0.58090 0.26860 0.53840 0.11300
C 	C 	0.55020 0.29300 0.57420 -0.03800
H 	H 	0.58530 0.31930 0.58790 0.04800
C 	C 	0.41190 0.23790 0.57070 -0.04800
H 	H 	0.35520 0.22920 0.58140 0.03800
C 	C 	0.44470 0.21180 0.53610 0.06200
C 	C 	0.58810 0.24930 0.54630 0.05500
C 	C 	0.55600 0.27550 0.58090 -0.07600
H 	H 	0.59670 0.29190 0.59910 0.06000
C 	C 	0.40790 0.25210 0.56450 -0.05300
H 	H 	0.34630 0.25290 0.57040 0.05100
C 	C 	0.44000 0.22460 0.53040 0.08800
N 	N 	0.37300 0.19900 0.50760 -0.12700
H 	H 	0.38720 0.17950 0.48610 0.07600
H 	H 	0.31710 0.20150 0.51490 0.05700
N 	N 	0.39000 0.17700 0.51720 -0.19100
H 	H 	0.40760 0.16080 0.49500 0.11100
H 	H 	0.33690 0.17120 0.52700 0.10700
N 	N 	0.67710 0.25520 0.53900 -0.19300
H 	H 	0.70060 0.24130 0.51710 0.12000
H 	H 	0.71050 0.27300 0.55640 0.11100
O 	O 	0.14420 0.69020 0.47818 -0.48000
O 	O 	0.00910 0.66250 0.46623 -0.46400
O 	O 	0.85340 0.81140 0.63234 -0.43600
O 	O 	0.98850 0.83580 0.64686 -0.44400
N 	N 	0.16350 0.78510 0.52350 -0.19500
H 	H 	0.19440 0.80990 0.53650 0.10400
H 	H 	0.18450 0.77060 0.50120 0.09800
C 	C 	0.06140 0.69090 0.48700 0.35100
C 	C 	0.02920 0.72280 0.52180 -0.17900
C 	C 	0.96730 0.77800 0.58920 -0.00200
C 	C 	0.93460 0.80960 0.62520 0.28000
C 	C 	0.08090 0.76860 0.53840 0.11300
C 	C 	0.05020 0.79300 0.57420 -0.03800
H 	H 	0.08530 0.81930 0.58790 0.04800
C 	C 	0.91190 0.73790 0.57070 -0.04800
H 	H 	0.85520 0.72920 0.58140 0.03800
C 	C 	0.94470 0.71180 0.53610 0.06200
C 	C 	0.08810 0.74930 0.54630 0.05500
C 	C 	0.05600 0.77550 0.58090 -0.07600
H 	H 	0.09670 0.79190 0.59910 0.06000
C 	C 	0.90790 0.75210 0.56450 -0.05300
H 	H 	0.84630 0.75290 0.57040 0.05100
C 	C 	0.94000 0.72460 0.53040 0.08800
N 	N 	0.87300 0.69900 0.50760 -0.12700
H 	H 	0.88720 0.67950 0.48610 0.07600
H 	H 	0.81710 0.70150 0.51490 0.05700
N 	N 	0.89000 0.67700 0.51720 -0.19100
H 	H 	0.90760 0.66080 0.49500 0.11200
H 	H 	0.83690 0.67120 0.52700 0.10700
N 	N 	0.17710 0.75520 0.53900 -0.19300
H 	H 	0.20060 0.74130 0.51710 0.12000
H 	H 	0.21050 0.77300 0.55640 0.11100
O 	O 	0.14420 0.19020 0.97818 -0.48000
O 	O 	0.00910 0.16250 0.96623 -0.46300
O 	O 	0.85340 0.31140 0.13234 -0.43600
O 	O 	0.98850 0.33580 0.14686 -0.44400
N 	N 	0.16350 0.28510 0.02350 -0.19500
H 	H 	0.19440 0.30990 0.03650 0.10400
H 	H 	0.18450 0.27060 0.00120 0.09800
C 	C 	0.06140 0.19090 0.98700 0.35100
C 	C 	0.02920 0.22280 0.02180 -0.17900
C 	C 	0.96730 0.27800 0.08920 -0.00200
C 	C 	0.93460 0.30960 0.12520 0.28000
C 	C 	0.08090 0.26860 0.03840 0.11300
C 	C 	0.05020 0.29300 0.07420 -0.03800
H 	H 	0.08530 0.31930 0.08790 0.04800
C 	C 	0.91190 0.23790 0.07070 -0.04800
H 	H 	0.85520 0.22920 0.08140 0.03800
C 	C 	0.94470 0.21180 0.03610 0.06200
C 	C 	0.08810 0.24930 0.04630 0.05500
C 	C 	0.05600 0.27550 0.08090 -0.07600
H 	H 	0.09670 0.29190 0.09910 0.06000
C 	C 	0.90790 0.25210 0.06450 -0.05300
H 	H 	0.84630 0.25290 0.07040 0.05100
C 	C 	0.94000 0.22460 0.03040 0.08800
N 	N 	0.87300 0.19900 0.00760 -0.12700
H 	H 	0.88720 0.17950 0.98610 0.07600
H 	H 	0.81710 0.20150 0.01490 0.05800
N 	N 	0.89000 0.17700 0.01720 -0.19100
H 	H 	0.90760 0.16080 0.99500 0.11100
H 	H 	0.83690 0.17120 0.02700 0.10600
N 	N 	0.17710 0.25520 0.03900 -0.19300
H 	H 	0.20060 0.24130 0.01710 0.12000
H 	H 	0.21050 0.27300 0.05640 0.11100
O 	O 	0.60580 0.55980 0.97818 -0.48000
O 	O 	0.74090 0.58750 0.96623 -0.46300
O 	O 	0.89660 0.43860 0.13234 -0.43600
O 	O 	0.76150 0.41420 0.14686 -0.44400
N 	N 	0.58650 0.46490 0.02350 -0.19500
H 	H 	0.55560 0.44010 0.03650 0.10400
H 	H 	0.56550 0.47940 0.00120 0.09800
C 	C 	0.68860 0.55910 0.98700 0.35000
C 	C 	0.72080 0.52720 0.02180 -0.17900
C 	C 	0.78270 0.47200 0.08920 -0.00200
C 	C 	0.81540 0.44040 0.12520 0.28000
C 	C 	0.66910 0.48140 0.03840 0.11300
C 	C 	0.69980 0.45700 0.07420 -0.03800
H 	H 	0.66470 0.43070 0.08790 0.04800
C 	C 	0.83810 0.51210 0.07070 -0.04800
H 	H 	0.89480 0.52080 0.08140 0.03800
C 	C 	0.80530 0.53820 0.03610 0.06200
C 	C 	0.66190 0.50070 0.04630 0.05500
C 	C 	0.69400 0.47450 0.08090 -0.07600
H 	H 	0.65330 0.45810 0.09910 0.06000
C 	C 	0.84210 0.49790 0.06450 -0.05300
H 	H 	0.90370 0.49710 0.07040 0.05100
C 	C 	0.81000 0.52540 0.03040 0.08800
N 	N 	0.87700 0.55100 0.00760 -0.12700
H 	H 	0.86280 0.57050 0.98610 0.07600
H 	H 	0.93290 0.54850 0.01490 0.05700
N 	N 	0.86000 0.57300 0.01720 -0.19100
H 	H 	0.84240 0.58920 0.99500 0.11100
H 	H 	0.91310 0.57880 0.02700 0.10700
N 	N 	0.57290 0.49480 0.03900 -0.19300
H 	H 	0.54940 0.50870 0.01710 0.12000
H 	H 	0.53950 0.47700 0.05640 0.11100
O 	O 	0.60580 0.05980 0.47818 -0.48000
O 	O 	0.74090 0.08750 0.46623 -0.46300
O 	O 	0.89660 0.93860 0.63234 -0.43600
O 	O 	0.76150 0.91420 0.64686 -0.44400
N 	N 	0.58650 0.96490 0.52350 -0.19500
H 	H 	0.55560 0.94010 0.53650 0.10400
H 	H 	0.56550 0.97940 0.50120 0.09800
C 	C 	0.68860 0.05910 0.48700 0.35100
C 	C 	0.72080 0.02720 0.52180 -0.17900
C 	C 	0.78270 0.97200 0.58920 -0.00200
C 	C 	0.81540 0.94040 0.62520 0.28000
C 	C 	0.66910 0.98140 0.53840 0.11100
C 	C 	0.69980 0.95700 0.57420 -0.03900
H 	H 	0.66470 0.93070 0.58790 0.04900
C 	C 	0.83810 0.01210 0.57070 -0.04700
H 	H 	0.89480 0.02080 0.58140 0.03700
C 	C 	0.80530 0.03820 0.53610 0.06200
C 	C 	0.66190 0.00070 0.54630 0.05700
C 	C 	0.69400 0.97450 0.58090 -0.07600
H 	H 	0.65330 0.95810 0.59910 0.05900
C 	C 	0.84210 0.99790 0.56450 -0.05400
H 	H 	0.90370 0.99710 0.57040 0.05200
C 	C 	0.81000 0.02540 0.53040 0.08800
N 	N 	0.87700 0.05100 0.50760 -0.12700
H 	H 	0.86280 0.07050 0.48610 0.07600
H 	H 	0.93290 0.04850 0.51490 0.05700
N 	N 	0.86000 0.07300 0.51720 -0.19100
H 	H 	0.84240 0.08920 0.49500 0.11200
H 	H 	0.91310 0.07880 0.52700 0.10600
N 	N 	0.57290 0.99480 0.53900 -0.19300
H 	H 	0.54940 0.00870 0.51710 0.12000
H 	H 	0.53950 0.97700 0.55640 0.11100
O 	O 	0.10580 0.55980 0.47818 -0.48000
O 	O 	0.24090 0.58750 0.46623 -0.46300
O 	O 	0.39660 0.43860 0.63234 -0.43600
O 	O 	0.26150 0.41420 0.64686 -0.44400
N 	N 	0.08650 0.46490 0.52350 -0.19500
H 	H 	0.05560 0.44010 0.53650 0.10400
H 	H 	0.06550 0.47940 0.50120 0.09800
C 	C 	0.18860 0.55910 0.48700 0.35000
C 	C 	0.22080 0.52720 0.52180 -0.17900
C 	C 	0.28270 0.47200 0.58920 -0.00200
C 	C 	0.31540 0.44040 0.62520 0.28000
C 	C 	0.16910 0.48140 0.53840 0.11300
C 	C 	0.19980 0.45700 0.57420 -0.03800
H 	H 	0.16470 0.43070 0.58790 0.04800
C 	C 	0.33810 0.51210 0.57070 -0.04800
H 	H 	0.39480 0.52080 0.58140 0.03800
C 	C 	0.30530 0.53820 0.53610 0.06200
C 	C 	0.16190 0.50070 0.54630 0.05500
C 	C 	0.19400 0.47450 0.58090 -0.07600
H 	H 	0.15330 0.45810 0.59910 0.06000
C 	C 	0.34210 0.49790 0.56450 -0.05300
H 	H 	0.40370 0.49710 0.57040 0.05100
C 	C 	0.31000 0.52540 0.53040 0.08800
N 	N 	0.37700 0.55100 0.50760 -0.12700
H 	H 	0.36280 0.57050 0.48610 0.07600
H 	H 	0.43290 0.54850 0.51490 0.05700
N 	N 	0.36000 0.57300 0.51720 -0.19100
H 	H 	0.34240 0.58920 0.49500 0.11100
H 	H 	0.41310 0.57880 0.52700 0.10700
N 	N 	0.07290 0.49480 0.53900 -0.19300
H 	H 	0.04940 0.50870 0.51710 0.12000
H 	H 	0.03950 0.47700 0.55640 0.11100
O 	O 	0.10580 0.05980 0.97818 -0.47900
O 	O 	0.24090 0.08750 0.96623 -0.46300
O 	O 	0.39660 0.93860 0.13234 -0.43600
O 	O 	0.26150 0.91420 0.14686 -0.44400
N 	N 	0.08650 0.96490 0.02350 -0.19500
H 	H 	0.05560 0.94010 0.03650 0.10400
H 	H 	0.06550 0.97940 0.00120 0.09700
C 	C 	0.18860 0.05910 0.98700 0.35000
C 	C 	0.22080 0.02720 0.02180 -0.17900
C 	C 	0.28270 0.97200 0.08920 -0.00200
C 	C 	0.31540 0.94040 0.12520 0.28000
C 	C 	0.16910 0.98140 0.03840 0.11600
C 	C 	0.19980 0.95700 0.07420 -0.03700
H 	H 	0.16470 0.93070 0.08790 0.04800
C 	C 	0.33810 0.01210 0.07070 -0.04900
H 	H 	0.39480 0.02080 0.08140 0.03800
C 	C 	0.30530 0.03820 0.03610 0.06200
C 	C 	0.16190 0.00070 0.04630 0.05100
C 	C 	0.19400 0.97450 0.08090 -0.07700
H 	H 	0.15330 0.95810 0.09910 0.06000
C 	C 	0.34210 0.99790 0.06450 -0.05300
H 	H 	0.40370 0.99710 0.07040 0.05000
C 	C 	0.31000 0.02540 0.03040 0.08900
N 	N 	0.37700 0.05100 0.00760 -0.12700
H 	H 	0.36280 0.07050 0.98610 0.07600
H 	H 	0.43290 0.04850 0.01490 0.05700
N 	N 	0.36000 0.07300 0.01720 -0.19100
H 	H 	0.34240 0.08920 0.99500 0.11100
H 	H 	0.41310 0.07880 0.02700 0.10600
N 	N 	0.07290 0.99480 0.03900 -0.19300
H 	H 	0.04940 0.00870 0.01710 0.12000
H 	H 	0.03950 0.97700 0.05640 0.11100
In	In	0.37500 0.37500 0.68140 1.99700
In	In	0.37500 0.87500 0.18140 1.99700
In	In	0.87500 0.37500 0.18140 1.99700
In	In	0.87500 0.87500 0.68140 1.99700
In	In	0.62500 0.62500 0.93140 1.99700
In	In	0.62500 0.12500 0.43140 1.99700
In	In	0.12500 0.62500 0.43140 1.99700
In	In	0.12500 0.12500 0.93140 1.99700
