data_crystal

_cell_length_a 15.24510
_cell_length_b 26.79980
_cell_length_c 31.32250
_cell_angle_alpha 90.00000
_cell_angle_beta  90.00000
_cell_angle_gamma 90.00000

_symmetry_space_group_name_	'P 1'
_symmetry_space_group_name_H-M	'P 1'

loop_
_symmetry_equiv_pos_as_xyz
  x,y,z

loop_
_atom_site_label
_atom_site_type_symbol
_atom_site_fract_x
_atom_site_fract_y
_atom_site_fract_z
_atom_site_charge
O 	O 	0.26230 0.41140 0.02959 -0.44200
O 	O 	0.39610 0.43618 0.01764 -0.48300
O 	O 	0.23830 0.58759 0.85133 -0.43800
O 	O 	0.10380 0.56740 0.86729 -0.43500
N 	N 	0.43090 0.50050 0.95520 -0.36100
H 	H 	0.44760 0.48070 0.97660 0.39400
H 	H 	0.45870 0.49050 0.93160 0.12500
C 	C 	0.31500 0.43850 0.00899 0.32500
C 	C 	0.28280 0.47180 0.97473 -0.12100
C 	C 	0.34090 0.49840 0.94940 0.03600
C 	C 	0.30600 0.52770 0.91690 -0.05400
H 	H 	0.34510 0.54580 0.89900 0.04400
C 	C 	0.21770 0.53170 0.90944 -0.02800
C 	C 	0.18500 0.56389 0.87403 0.28800
C 	C 	0.16060 0.50450 0.93410 -0.04300
H 	H 	0.09920 0.50590 0.92900 0.05300
C 	C 	0.19440 0.47460 0.96710 -0.01400
H 	H 	0.15510 0.45600 0.98450 0.04100
C 	C 	0.16220 0.49150 0.92570 -0.00500
H 	H 	0.10510 0.48540 0.91470 0.02400
C 	C 	0.19740 0.46290 0.95800 0.01900
H 	H 	0.16350 0.43630 0.96950 0.02100
N 	N 	0.41970 0.52260 0.97180 0.00600
H 	H 	0.44340 0.49520 0.98280 -0.21300
H 	H 	0.45260 0.53260 0.95010 0.14900
C 	C 	0.33580 0.51170 0.95810 0.09000
C 	C 	0.30160 0.54140 0.92490 -0.03800
H 	H 	0.33540 0.56780 0.91310 0.05300
O 	O 	0.26230 0.91140 0.52959 -0.44100
O 	O 	0.39610 0.93618 0.51764 -0.48200
O 	O 	0.23830 0.08759 0.35133 -0.43700
O 	O 	0.10380 0.06740 0.36729 -0.43400
N 	N 	0.43090 0.00050 0.45520 -0.36000
H 	H 	0.44760 0.98070 0.47660 0.39500
H 	H 	0.45870 0.99050 0.43160 0.12600
C 	C 	0.31500 0.93850 0.50899 0.32600
C 	C 	0.28280 0.97180 0.47473 -0.12100
C 	C 	0.34090 0.99840 0.44940 0.03600
C 	C 	0.30600 0.02770 0.41690 -0.05400
H 	H 	0.34510 0.04580 0.39900 0.04400
C 	C 	0.21770 0.03170 0.40944 -0.02800
C 	C 	0.18500 0.06389 0.37403 0.28800
C 	C 	0.16060 0.00450 0.43410 -0.04300
H 	H 	0.09920 0.00590 0.42900 0.05200
C 	C 	0.19440 0.97460 0.46710 -0.01400
H 	H 	0.15510 0.95600 0.48450 0.04100
C 	C 	0.16220 0.99150 0.42570 -0.00500
H 	H 	0.10510 0.98540 0.41470 0.02400
C 	C 	0.19740 0.96290 0.45800 0.01900
H 	H 	0.16350 0.93630 0.46950 0.02100
N 	N 	0.41970 0.02260 0.47180 0.00600
H 	H 	0.44340 0.99520 0.48280 -0.21300
H 	H 	0.45260 0.03260 0.45010 0.14900
C 	C 	0.33580 0.01170 0.45810 0.09000
C 	C 	0.30160 0.04140 0.42490 -0.03800
H 	H 	0.33540 0.06780 0.41310 0.05300
O 	O 	0.76230 0.41140 0.52959 -0.44100
O 	O 	0.89610 0.43618 0.51764 -0.48200
O 	O 	0.73830 0.58759 0.35133 -0.43700
O 	O 	0.60380 0.56740 0.36729 -0.43400
N 	N 	0.93090 0.50050 0.45520 -0.36000
H 	H 	0.94760 0.48070 0.47660 0.39500
H 	H 	0.95870 0.49050 0.43160 0.12600
C 	C 	0.81500 0.43850 0.50899 0.32600
C 	C 	0.78280 0.47180 0.47473 -0.12100
C 	C 	0.84090 0.49840 0.44940 0.03600
C 	C 	0.80600 0.52770 0.41690 -0.05400
H 	H 	0.84510 0.54580 0.39900 0.04400
C 	C 	0.71770 0.53170 0.40944 -0.02800
C 	C 	0.68500 0.56389 0.37403 0.28800
C 	C 	0.66060 0.50450 0.43410 -0.04300
H 	H 	0.59920 0.50590 0.42900 0.05300
C 	C 	0.69440 0.47460 0.46710 -0.01400
H 	H 	0.65510 0.45600 0.48450 0.04100
C 	C 	0.66220 0.49150 0.42570 -0.00500
H 	H 	0.60510 0.48540 0.41470 0.02400
C 	C 	0.69740 0.46290 0.45800 0.01900
H 	H 	0.66350 0.43630 0.46950 0.02100
N 	N 	0.91970 0.52260 0.47180 0.00700
H 	H 	0.94340 0.49520 0.48280 -0.21400
H 	H 	0.95260 0.53260 0.45010 0.14900
C 	C 	0.83580 0.51170 0.45810 0.09000
C 	C 	0.80160 0.54140 0.42490 -0.03800
H 	H 	0.83540 0.56780 0.41310 0.05300
O 	O 	0.76230 0.91140 0.02959 -0.44100
O 	O 	0.89610 0.93618 0.01764 -0.48200
O 	O 	0.73830 0.08759 0.85133 -0.43700
O 	O 	0.60380 0.06740 0.86729 -0.43400
N 	N 	0.93090 0.00050 0.95520 -0.35900
H 	H 	0.94760 0.98070 0.97660 0.39400
H 	H 	0.95870 0.99050 0.93160 0.12600
C 	C 	0.81500 0.93850 0.00899 0.32700
C 	C 	0.78280 0.97180 0.97473 -0.12100
C 	C 	0.84090 0.99840 0.94940 0.03800
C 	C 	0.80600 0.02770 0.91690 -0.05300
H 	H 	0.84510 0.04580 0.89900 0.04400
C 	C 	0.71770 0.03170 0.90944 -0.02800
C 	C 	0.68500 0.06389 0.87403 0.28800
C 	C 	0.66060 0.00450 0.93410 -0.04400
H 	H 	0.59920 0.00590 0.92900 0.05300
C 	C 	0.69440 0.97460 0.96710 -0.01400
H 	H 	0.65510 0.95600 0.98450 0.04100
C 	C 	0.66220 0.99150 0.92570 -0.00400
H 	H 	0.60510 0.98540 0.91470 0.02300
C 	C 	0.69740 0.96290 0.95800 0.01900
H 	H 	0.66350 0.93630 0.96950 0.02000
N 	N 	0.91970 0.02260 0.97180 0.00600
H 	H 	0.94340 0.99520 0.98280 -0.21300
H 	H 	0.95260 0.03260 0.95010 0.14900
C 	C 	0.83580 0.01170 0.95810 0.08800
C 	C 	0.80160 0.04140 0.92490 -0.03800
H 	H 	0.83540 0.06780 0.91310 0.05300
O 	O 	0.48770 0.33860 0.02959 -0.44100
O 	O 	0.35390 0.31382 0.01764 -0.48200
O 	O 	0.51170 0.16241 0.85133 -0.43700
O 	O 	0.64620 0.18260 0.86729 -0.43400
N 	N 	0.31910 0.24950 0.95520 -0.36000
H 	H 	0.30240 0.26930 0.97660 0.39500
H 	H 	0.29130 0.25950 0.93160 0.12600
C 	C 	0.43500 0.31150 0.00899 0.32600
C 	C 	0.46720 0.27820 0.97473 -0.12100
C 	C 	0.40910 0.25160 0.94940 0.03600
C 	C 	0.44400 0.22230 0.91690 -0.05400
H 	H 	0.40490 0.20420 0.89900 0.04400
C 	C 	0.53230 0.21830 0.90944 -0.02800
C 	C 	0.56500 0.18611 0.87403 0.28800
C 	C 	0.58940 0.24550 0.93410 -0.04300
H 	H 	0.65080 0.24410 0.92900 0.05300
C 	C 	0.55560 0.27540 0.96710 -0.01400
H 	H 	0.59490 0.29400 0.98450 0.04100
C 	C 	0.58780 0.25850 0.92570 -0.00500
H 	H 	0.64490 0.26460 0.91470 0.02400
C 	C 	0.55260 0.28710 0.95800 0.01900
H 	H 	0.58650 0.31370 0.96950 0.02100
N 	N 	0.33030 0.22740 0.97180 0.00600
H 	H 	0.30660 0.25480 0.98280 -0.21300
H 	H 	0.29740 0.21740 0.95010 0.14900
C 	C 	0.41420 0.23830 0.95810 0.09000
C 	C 	0.44840 0.20860 0.92490 -0.03800
H 	H 	0.41460 0.18220 0.91310 0.05300
O 	O 	0.48770 0.83860 0.52959 -0.44100
O 	O 	0.35390 0.81382 0.51764 -0.48200
O 	O 	0.51170 0.66241 0.35133 -0.43700
O 	O 	0.64620 0.68260 0.36729 -0.43400
N 	N 	0.31910 0.74950 0.45520 -0.36000
H 	H 	0.30240 0.76930 0.47660 0.39500
H 	H 	0.29130 0.75950 0.43160 0.12600
C 	C 	0.43500 0.81150 0.50899 0.32600
C 	C 	0.46720 0.77820 0.47473 -0.12100
C 	C 	0.40910 0.75160 0.44940 0.03600
C 	C 	0.44400 0.72230 0.41690 -0.05400
H 	H 	0.40490 0.70420 0.39900 0.04400
C 	C 	0.53230 0.71830 0.40944 -0.02800
C 	C 	0.56500 0.68611 0.37403 0.28800
C 	C 	0.58940 0.74550 0.43410 -0.04300
H 	H 	0.65080 0.74410 0.42900 0.05300
C 	C 	0.55560 0.77540 0.46710 -0.01400
H 	H 	0.59490 0.79400 0.48450 0.04100
C 	C 	0.58780 0.75850 0.42570 -0.00500
H 	H 	0.64490 0.76460 0.41470 0.02400
C 	C 	0.55260 0.78710 0.45800 0.01900
H 	H 	0.58650 0.81370 0.46950 0.02100
N 	N 	0.33030 0.72740 0.47180 0.00600
H 	H 	0.30660 0.75480 0.48280 -0.21300
H 	H 	0.29740 0.71740 0.45010 0.14900
C 	C 	0.41420 0.73830 0.45810 0.09000
C 	C 	0.44840 0.70860 0.42490 -0.03800
H 	H 	0.41460 0.68220 0.41310 0.05300
O 	O 	0.98770 0.33860 0.52959 -0.44100
O 	O 	0.85390 0.31382 0.51764 -0.48200
O 	O 	0.01170 0.16241 0.35133 -0.43700
O 	O 	0.14620 0.18260 0.36729 -0.43400
N 	N 	0.81910 0.24950 0.45520 -0.36000
H 	H 	0.80240 0.26930 0.47660 0.39500
H 	H 	0.79130 0.25950 0.43160 0.12600
C 	C 	0.93500 0.31150 0.50899 0.32600
C 	C 	0.96720 0.27820 0.47473 -0.12100
C 	C 	0.90910 0.25160 0.44940 0.03600
C 	C 	0.94400 0.22230 0.41690 -0.05400
H 	H 	0.90490 0.20420 0.39900 0.04400
C 	C 	0.03230 0.21830 0.40944 -0.02800
C 	C 	0.06500 0.18611 0.37403 0.28800
C 	C 	0.08940 0.24550 0.43410 -0.04300
H 	H 	0.15080 0.24410 0.42900 0.05300
C 	C 	0.05560 0.27540 0.46710 -0.01400
H 	H 	0.09490 0.29400 0.48450 0.04100
C 	C 	0.08780 0.25850 0.42570 -0.00500
H 	H 	0.14490 0.26460 0.41470 0.02400
C 	C 	0.05260 0.28710 0.45800 0.01900
H 	H 	0.08650 0.31370 0.46950 0.02100
N 	N 	0.83030 0.22740 0.47180 0.00600
H 	H 	0.80660 0.25480 0.48280 -0.21300
H 	H 	0.79740 0.21740 0.45010 0.14900
C 	C 	0.91420 0.23830 0.45810 0.09000
C 	C 	0.94840 0.20860 0.42490 -0.03800
H 	H 	0.91460 0.18220 0.41310 0.05300
O 	O 	0.98770 0.83860 0.02959 -0.44100
O 	O 	0.85390 0.81382 0.01764 -0.48200
O 	O 	0.01170 0.66241 0.85133 -0.43700
O 	O 	0.14620 0.68260 0.86729 -0.43400
N 	N 	0.81910 0.74950 0.95520 -0.36000
H 	H 	0.80240 0.76930 0.97660 0.39500
H 	H 	0.79130 0.75950 0.93160 0.12600
C 	C 	0.93500 0.81150 0.00899 0.32700
C 	C 	0.96720 0.77820 0.97473 -0.12100
C 	C 	0.90910 0.75160 0.94940 0.03600
C 	C 	0.94400 0.72230 0.91690 -0.05400
H 	H 	0.90490 0.70420 0.89900 0.04500
C 	C 	0.03230 0.71830 0.90944 -0.02800
C 	C 	0.06500 0.68611 0.87403 0.28800
C 	C 	0.08940 0.74550 0.93410 -0.04300
H 	H 	0.15080 0.74410 0.92900 0.05300
C 	C 	0.05560 0.77540 0.96710 -0.01300
H 	H 	0.09490 0.79400 0.98450 0.04100
C 	C 	0.08780 0.75850 0.92570 -0.00500
H 	H 	0.14490 0.76460 0.91470 0.02400
C 	C 	0.05260 0.78710 0.95800 0.01900
H 	H 	0.08650 0.81370 0.96950 0.02000
N 	N 	0.83030 0.72740 0.97180 0.00600
H 	H 	0.80660 0.75480 0.98280 -0.21400
H 	H 	0.79740 0.71740 0.95010 0.14900
C 	C 	0.91420 0.73830 0.95810 0.09000
C 	C 	0.94840 0.70860 0.92490 -0.03800
H 	H 	0.91460 0.68220 0.91310 0.05300
O 	O 	0.51230 0.58860 0.27959 -0.44100
O 	O 	0.64610 0.56382 0.26764 -0.48200
O 	O 	0.48830 0.41241 0.10133 -0.43700
O 	O 	0.35380 0.43260 0.11729 -0.43400
N 	N 	0.68090 0.49950 0.20520 -0.36000
H 	H 	0.69760 0.51930 0.22660 0.39500
H 	H 	0.70870 0.50950 0.18160 0.12600
C 	C 	0.56500 0.56150 0.25899 0.32600
C 	C 	0.53280 0.52820 0.22473 -0.12100
C 	C 	0.59090 0.50160 0.19940 0.03600
C 	C 	0.55600 0.47230 0.16690 -0.05400
H 	H 	0.59510 0.45420 0.14900 0.04400
C 	C 	0.46770 0.46830 0.15944 -0.02800
C 	C 	0.43500 0.43611 0.12403 0.28800
C 	C 	0.41060 0.49550 0.18410 -0.04300
H 	H 	0.34920 0.49410 0.17900 0.05300
C 	C 	0.44440 0.52540 0.21710 -0.01400
H 	H 	0.40510 0.54400 0.23450 0.04100
C 	C 	0.41220 0.50850 0.17570 -0.00500
H 	H 	0.35510 0.51460 0.16470 0.02400
C 	C 	0.44740 0.53710 0.20800 0.01900
H 	H 	0.41350 0.56370 0.21950 0.02100
N 	N 	0.66970 0.47740 0.22180 0.00600
H 	H 	0.69340 0.50480 0.23280 -0.21300
H 	H 	0.70260 0.46740 0.20010 0.14900
C 	C 	0.58580 0.48830 0.20810 0.09000
C 	C 	0.55160 0.45860 0.17490 -0.03800
H 	H 	0.58540 0.43220 0.16310 0.05300
O 	O 	0.51230 0.08860 0.77959 -0.44100
O 	O 	0.64610 0.06382 0.76764 -0.48200
O 	O 	0.48830 0.91241 0.60133 -0.43700
O 	O 	0.35380 0.93260 0.61729 -0.43400
N 	N 	0.68090 0.99950 0.70520 -0.36000
H 	H 	0.69760 0.01930 0.72660 0.39500
H 	H 	0.70870 0.00950 0.68160 0.12600
C 	C 	0.56500 0.06150 0.75899 0.32600
C 	C 	0.53280 0.02820 0.72473 -0.12100
C 	C 	0.59090 0.00160 0.69940 0.03500
C 	C 	0.55600 0.97230 0.66690 -0.05400
H 	H 	0.59510 0.95420 0.64900 0.04500
C 	C 	0.46770 0.96830 0.65944 -0.02800
C 	C 	0.43500 0.93611 0.62403 0.28800
C 	C 	0.41060 0.99550 0.68410 -0.04300
H 	H 	0.34920 0.99410 0.67900 0.05200
C 	C 	0.44440 0.02540 0.71710 -0.01400
H 	H 	0.40510 0.04400 0.73450 0.04100
C 	C 	0.41220 0.00850 0.67570 -0.00500
H 	H 	0.35510 0.01460 0.66470 0.02400
C 	C 	0.44740 0.03710 0.70800 0.01900
H 	H 	0.41350 0.06370 0.71950 0.02100
N 	N 	0.66970 0.97740 0.72180 0.00700
H 	H 	0.69340 0.00480 0.73280 -0.21400
H 	H 	0.70260 0.96740 0.70010 0.14900
C 	C 	0.58580 0.98830 0.70810 0.09000
C 	C 	0.55160 0.95860 0.67490 -0.03800
H 	H 	0.58540 0.93220 0.66310 0.05300
O 	O 	0.01230 0.58860 0.77959 -0.44100
O 	O 	0.14610 0.56382 0.76764 -0.48200
O 	O 	0.98830 0.41241 0.60133 -0.43700
O 	O 	0.85380 0.43260 0.61729 -0.43400
N 	N 	0.18090 0.49950 0.70520 -0.36000
H 	H 	0.19760 0.51930 0.72660 0.39500
H 	H 	0.20870 0.50950 0.68160 0.12600
C 	C 	0.06500 0.56150 0.75899 0.32600
C 	C 	0.03280 0.52820 0.72473 -0.12100
C 	C 	0.09090 0.50160 0.69940 0.03600
C 	C 	0.05600 0.47230 0.66690 -0.05400
H 	H 	0.09510 0.45420 0.64900 0.04400
C 	C 	0.96770 0.46830 0.65944 -0.02800
C 	C 	0.93500 0.43611 0.62403 0.28800
C 	C 	0.91060 0.49550 0.68410 -0.04300
H 	H 	0.84920 0.49410 0.67900 0.05300
C 	C 	0.94440 0.52540 0.71710 -0.01400
H 	H 	0.90510 0.54400 0.73450 0.04100
C 	C 	0.91220 0.50850 0.67570 -0.00500
H 	H 	0.85510 0.51460 0.66470 0.02400
C 	C 	0.94740 0.53710 0.70800 0.01900
H 	H 	0.91350 0.56370 0.71950 0.02100
N 	N 	0.16970 0.47740 0.72180 0.00600
H 	H 	0.19340 0.50480 0.73280 -0.21300
H 	H 	0.20260 0.46740 0.70010 0.14900
C 	C 	0.08580 0.48830 0.70810 0.09000
C 	C 	0.05160 0.45860 0.67490 -0.03800
H 	H 	0.08540 0.43220 0.66310 0.05300
O 	O 	0.01230 0.08860 0.27959 -0.44100
O 	O 	0.14610 0.06382 0.26764 -0.48200
O 	O 	0.98830 0.91241 0.10133 -0.43700
O 	O 	0.85380 0.93260 0.11729 -0.43400
N 	N 	0.18090 0.99950 0.20520 -0.35900
H 	H 	0.19760 0.01930 0.22660 0.39400
H 	H 	0.20870 0.00950 0.18160 0.12600
C 	C 	0.06500 0.06150 0.25899 0.32600
C 	C 	0.03280 0.02820 0.22473 -0.12100
C 	C 	0.09090 0.00160 0.19940 0.03700
C 	C 	0.05600 0.97230 0.16690 -0.05300
H 	H 	0.09510 0.95420 0.14900 0.04400
C 	C 	0.96770 0.96830 0.15944 -0.02800
C 	C 	0.93500 0.93611 0.12403 0.28800
C 	C 	0.91060 0.99550 0.18410 -0.04400
H 	H 	0.84920 0.99410 0.17900 0.05300
C 	C 	0.94440 0.02540 0.21710 -0.01400
H 	H 	0.90510 0.04400 0.23450 0.04100
C 	C 	0.91220 0.00850 0.17570 -0.00500
H 	H 	0.85510 0.01460 0.16470 0.02300
C 	C 	0.94740 0.03710 0.20800 0.01900
H 	H 	0.91350 0.06370 0.21950 0.02000
N 	N 	0.16970 0.97740 0.22180 0.00600
H 	H 	0.19340 0.00480 0.23280 -0.21300
H 	H 	0.20260 0.96740 0.20010 0.14900
C 	C 	0.08580 0.98830 0.20810 0.08800
C 	C 	0.05160 0.95860 0.17490 -0.03800
H 	H 	0.08540 0.93220 0.16310 0.05300
O 	O 	0.73770 0.66140 0.27959 -0.44100
O 	O 	0.60390 0.68618 0.26764 -0.48200
O 	O 	0.76170 0.83759 0.10133 -0.43700
O 	O 	0.89620 0.81740 0.11729 -0.43400
N 	N 	0.56910 0.75050 0.20520 -0.36000
H 	H 	0.55240 0.73070 0.22660 0.39500
H 	H 	0.54130 0.74050 0.18160 0.12600
C 	C 	0.68500 0.68850 0.25899 0.32600
C 	C 	0.71720 0.72180 0.22473 -0.12100
C 	C 	0.65910 0.74840 0.19940 0.03600
C 	C 	0.69400 0.77770 0.16690 -0.05400
H 	H 	0.65490 0.79580 0.14900 0.04400
C 	C 	0.78230 0.78170 0.15944 -0.02800
C 	C 	0.81500 0.81389 0.12403 0.28800
C 	C 	0.83940 0.75450 0.18410 -0.04300
H 	H 	0.90080 0.75590 0.17900 0.05300
C 	C 	0.80560 0.72460 0.21710 -0.01400
H 	H 	0.84490 0.70600 0.23450 0.04100
C 	C 	0.83780 0.74150 0.17570 -0.00500
H 	H 	0.89490 0.73540 0.16470 0.02400
C 	C 	0.80260 0.71290 0.20800 0.01900
H 	H 	0.83650 0.68630 0.21950 0.02100
N 	N 	0.58030 0.77260 0.22180 0.00600
H 	H 	0.55660 0.74520 0.23280 -0.21300
H 	H 	0.54740 0.78260 0.20010 0.14900
C 	C 	0.66420 0.76170 0.20810 0.09000
C 	C 	0.69840 0.79140 0.17490 -0.03800
H 	H 	0.66460 0.81780 0.16310 0.05300
O 	O 	0.73770 0.16140 0.77959 -0.44100
O 	O 	0.60390 0.18618 0.76764 -0.48200
O 	O 	0.76170 0.33759 0.60133 -0.43700
O 	O 	0.89620 0.31740 0.61729 -0.43400
N 	N 	0.56910 0.25050 0.70520 -0.36000
H 	H 	0.55240 0.23070 0.72660 0.39500
H 	H 	0.54130 0.24050 0.68160 0.12600
C 	C 	0.68500 0.18850 0.75899 0.32600
C 	C 	0.71720 0.22180 0.72473 -0.12100
C 	C 	0.65910 0.24840 0.69940 0.03600
C 	C 	0.69400 0.27770 0.66690 -0.05400
H 	H 	0.65490 0.29580 0.64900 0.04400
C 	C 	0.78230 0.28170 0.65944 -0.02800
C 	C 	0.81500 0.31389 0.62403 0.28800
C 	C 	0.83940 0.25450 0.68410 -0.04300
H 	H 	0.90080 0.25590 0.67900 0.05300
C 	C 	0.80560 0.22460 0.71710 -0.01400
H 	H 	0.84490 0.20600 0.73450 0.04100
C 	C 	0.83780 0.24150 0.67570 -0.00500
H 	H 	0.89490 0.23540 0.66470 0.02400
C 	C 	0.80260 0.21290 0.70800 0.01900
H 	H 	0.83650 0.18630 0.71950 0.02100
N 	N 	0.58030 0.27260 0.72180 0.00600
H 	H 	0.55660 0.24520 0.73280 -0.21300
H 	H 	0.54740 0.28260 0.70010 0.14900
C 	C 	0.66420 0.26170 0.70810 0.09000
C 	C 	0.69840 0.29140 0.67490 -0.03800
H 	H 	0.66460 0.31780 0.66310 0.05300
O 	O 	0.23770 0.66140 0.77959 -0.44100
O 	O 	0.10390 0.68618 0.76764 -0.48200
O 	O 	0.26170 0.83759 0.60133 -0.43700
O 	O 	0.39620 0.81740 0.61729 -0.43400
N 	N 	0.06910 0.75050 0.70520 -0.36000
H 	H 	0.05240 0.73070 0.72660 0.39500
H 	H 	0.04130 0.74050 0.68160 0.12600
C 	C 	0.18500 0.68850 0.75899 0.32600
C 	C 	0.21720 0.72180 0.72473 -0.12100
C 	C 	0.15910 0.74840 0.69940 0.03600
C 	C 	0.19400 0.77770 0.66690 -0.05400
H 	H 	0.15490 0.79580 0.64900 0.04400
C 	C 	0.28230 0.78170 0.65944 -0.02800
C 	C 	0.31500 0.81389 0.62403 0.28800
C 	C 	0.33940 0.75450 0.68410 -0.04300
H 	H 	0.40080 0.75590 0.67900 0.05300
C 	C 	0.30560 0.72460 0.71710 -0.01400
H 	H 	0.34490 0.70600 0.73450 0.04100
C 	C 	0.33780 0.74150 0.67570 -0.00500
H 	H 	0.39490 0.73540 0.66470 0.02400
C 	C 	0.30260 0.71290 0.70800 0.01900
H 	H 	0.33650 0.68630 0.71950 0.02100
N 	N 	0.08030 0.77260 0.72180 0.00700
H 	H 	0.05660 0.74520 0.73280 -0.21400
H 	H 	0.04740 0.78260 0.70010 0.14900
C 	C 	0.16420 0.76170 0.70810 0.09000
C 	C 	0.19840 0.79140 0.67490 -0.03800
H 	H 	0.16460 0.81780 0.66310 0.05300
O 	O 	0.23770 0.16140 0.27959 -0.44100
O 	O 	0.10390 0.18618 0.26764 -0.48200
O 	O 	0.26170 0.33759 0.10133 -0.43700
O 	O 	0.39620 0.31740 0.11729 -0.43400
N 	N 	0.06910 0.25050 0.20520 -0.36000
H 	H 	0.05240 0.23070 0.22660 0.39500
H 	H 	0.04130 0.24050 0.18160 0.12600
C 	C 	0.18500 0.18850 0.25899 0.32600
C 	C 	0.21720 0.22180 0.22473 -0.12100
C 	C 	0.15910 0.24840 0.19940 0.03600
C 	C 	0.19400 0.27770 0.16690 -0.05400
H 	H 	0.15490 0.29580 0.14900 0.04400
C 	C 	0.28230 0.28170 0.15944 -0.02800
C 	C 	0.31500 0.31389 0.12403 0.28800
C 	C 	0.33940 0.25450 0.18410 -0.04300
H 	H 	0.40080 0.25590 0.17900 0.05300
C 	C 	0.30560 0.22460 0.21710 -0.01400
H 	H 	0.34490 0.20600 0.23450 0.04100
C 	C 	0.33780 0.24150 0.17570 -0.00500
H 	H 	0.39490 0.23540 0.16470 0.02400
C 	C 	0.30260 0.21290 0.20800 0.01900
H 	H 	0.33650 0.18630 0.21950 0.02100
N 	N 	0.08030 0.27260 0.22180 0.00700
H 	H 	0.05660 0.24520 0.23280 -0.21400
H 	H 	0.04740 0.28260 0.20010 0.14900
C 	C 	0.16420 0.26170 0.20810 0.09000
C 	C 	0.19840 0.29140 0.17490 -0.03800
H 	H 	0.16460 0.31780 0.16310 0.05300
In	In	0.37500 0.37500 0.06555 1.99900
In	In	0.37500 0.87500 0.56555 1.99900
In	In	0.87500 0.37500 0.56555 1.99900
In	In	0.87500 0.87500 0.06555 1.99900
In	In	0.62500 0.62500 0.31555 1.99900
In	In	0.62500 0.12500 0.81555 1.99900
In	In	0.12500 0.62500 0.81555 1.99900
In	In	0.12500 0.12500 0.31555 1.99900
O 	O 	0.48770 0.41140 0.72041 -0.44100
O 	O 	0.35390 0.43618 0.73236 -0.48200
O 	O 	0.51170 0.58759 0.89867 -0.43700
O 	O 	0.64620 0.56740 0.88271 -0.43400
N 	N 	0.31910 0.50050 0.79480 -0.36000
H 	H 	0.30240 0.48070 0.77340 0.39500
H 	H 	0.29130 0.49050 0.81840 0.12600
C 	C 	0.43500 0.43850 0.74101 0.32600
C 	C 	0.46720 0.47180 0.77527 -0.12100
C 	C 	0.40910 0.49840 0.80060 0.03600
C 	C 	0.44400 0.52770 0.83310 -0.05400
H 	H 	0.40490 0.54580 0.85100 0.04400
C 	C 	0.53230 0.53170 0.84056 -0.02800
C 	C 	0.56500 0.56389 0.87597 0.28800
C 	C 	0.58940 0.50450 0.81590 -0.04300
H 	H 	0.65080 0.50590 0.82100 0.05300
C 	C 	0.55560 0.47460 0.78290 -0.01400
H 	H 	0.59490 0.45600 0.76550 0.04100
C 	C 	0.58780 0.49150 0.82430 -0.00500
H 	H 	0.64490 0.48540 0.83530 0.02400
C 	C 	0.55260 0.46290 0.79200 0.01900
H 	H 	0.58650 0.43630 0.78050 0.02100
N 	N 	0.33030 0.52260 0.77820 0.00600
H 	H 	0.30660 0.49520 0.76720 -0.21300
H 	H 	0.29740 0.53260 0.79990 0.14900
C 	C 	0.41420 0.51170 0.79190 0.09000
C 	C 	0.44840 0.54140 0.82510 -0.03800
H 	H 	0.41460 0.56780 0.83690 0.05300
O 	O 	0.48770 0.91140 0.22041 -0.44100
O 	O 	0.35390 0.93618 0.23236 -0.48200
O 	O 	0.51170 0.08759 0.39867 -0.43700
O 	O 	0.64620 0.06740 0.38271 -0.43400
N 	N 	0.31910 0.00050 0.29480 -0.36000
H 	H 	0.30240 0.98070 0.27340 0.39500
H 	H 	0.29130 0.99050 0.31840 0.12600
C 	C 	0.43500 0.93850 0.24101 0.32600
C 	C 	0.46720 0.97180 0.27527 -0.12100
C 	C 	0.40910 0.99840 0.30060 0.03500
C 	C 	0.44400 0.02770 0.33310 -0.05400
H 	H 	0.40490 0.04580 0.35100 0.04500
C 	C 	0.53230 0.03170 0.34056 -0.02800
C 	C 	0.56500 0.06389 0.37597 0.28800
C 	C 	0.58940 0.00450 0.31590 -0.04300
H 	H 	0.65080 0.00590 0.32100 0.05200
C 	C 	0.55560 0.97460 0.28290 -0.01400
H 	H 	0.59490 0.95600 0.26550 0.04100
C 	C 	0.58780 0.99150 0.32430 -0.00500
H 	H 	0.64490 0.98540 0.33530 0.02400
C 	C 	0.55260 0.96290 0.29200 0.01900
H 	H 	0.58650 0.93630 0.28050 0.02100
N 	N 	0.33030 0.02260 0.27820 0.00700
H 	H 	0.30660 0.99520 0.26720 -0.21400
H 	H 	0.29740 0.03260 0.29990 0.14900
C 	C 	0.41420 0.01170 0.29190 0.09000
C 	C 	0.44840 0.04140 0.32510 -0.03800
H 	H 	0.41460 0.06780 0.33690 0.05300
O 	O 	0.98770 0.41140 0.22041 -0.44100
O 	O 	0.85390 0.43618 0.23236 -0.48200
O 	O 	0.01170 0.58759 0.39867 -0.43700
O 	O 	0.14620 0.56740 0.38271 -0.43400
N 	N 	0.81910 0.50050 0.29480 -0.36000
H 	H 	0.80240 0.48070 0.27340 0.39500
H 	H 	0.79130 0.49050 0.31840 0.12600
C 	C 	0.93500 0.43850 0.24101 0.32600
C 	C 	0.96720 0.47180 0.27527 -0.12100
C 	C 	0.90910 0.49840 0.30060 0.03600
C 	C 	0.94400 0.52770 0.33310 -0.05400
H 	H 	0.90490 0.54580 0.35100 0.04400
C 	C 	0.03230 0.53170 0.34056 -0.02800
C 	C 	0.06500 0.56389 0.37597 0.28800
C 	C 	0.08940 0.50450 0.31590 -0.04300
H 	H 	0.15080 0.50590 0.32100 0.05300
C 	C 	0.05560 0.47460 0.28290 -0.01400
H 	H 	0.09490 0.45600 0.26550 0.04100
C 	C 	0.08780 0.49150 0.32430 -0.00500
H 	H 	0.14490 0.48540 0.33530 0.02400
C 	C 	0.05260 0.46290 0.29200 0.01900
H 	H 	0.08650 0.43630 0.28050 0.02100
N 	N 	0.83030 0.52260 0.27820 0.00600
H 	H 	0.80660 0.49520 0.26720 -0.21300
H 	H 	0.79740 0.53260 0.29990 0.14900
C 	C 	0.91420 0.51170 0.29190 0.09000
C 	C 	0.94840 0.54140 0.32510 -0.03800
H 	H 	0.91460 0.56780 0.33690 0.05300
O 	O 	0.98770 0.91140 0.72041 -0.44100
O 	O 	0.85390 0.93618 0.73236 -0.48200
O 	O 	0.01170 0.08759 0.89867 -0.43700
O 	O 	0.14620 0.06740 0.88271 -0.43400
N 	N 	0.81910 0.00050 0.79480 -0.35900
H 	H 	0.80240 0.98070 0.77340 0.39400
H 	H 	0.79130 0.99050 0.81840 0.12600
C 	C 	0.93500 0.93850 0.74101 0.32600
C 	C 	0.96720 0.97180 0.77527 -0.12100
C 	C 	0.90910 0.99840 0.80060 0.03700
C 	C 	0.94400 0.02770 0.83310 -0.05300
H 	H 	0.90490 0.04580 0.85100 0.04400
C 	C 	0.03230 0.03170 0.84056 -0.02800
C 	C 	0.06500 0.06389 0.87597 0.28800
C 	C 	0.08940 0.00450 0.81590 -0.04400
H 	H 	0.15080 0.00590 0.82100 0.05300
C 	C 	0.05560 0.97460 0.78290 -0.01400
H 	H 	0.09490 0.95600 0.76550 0.04100
C 	C 	0.08780 0.99150 0.82430 -0.00500
H 	H 	0.14490 0.98540 0.83530 0.02300
C 	C 	0.05260 0.96290 0.79200 0.01900
H 	H 	0.08650 0.93630 0.78050 0.02000
N 	N 	0.83030 0.02260 0.77820 0.00600
H 	H 	0.80660 0.99520 0.76720 -0.21300
H 	H 	0.79740 0.03260 0.79990 0.14900
C 	C 	0.91420 0.01170 0.79190 0.08800
C 	C 	0.94840 0.04140 0.82510 -0.03800
H 	H 	0.91460 0.06780 0.83690 0.05300
O 	O 	0.26230 0.33860 0.72041 -0.44100
O 	O 	0.39610 0.31382 0.73236 -0.48200
O 	O 	0.23830 0.16241 0.89867 -0.43700
O 	O 	0.10380 0.18260 0.88271 -0.43400
N 	N 	0.43090 0.24950 0.79480 -0.36000
H 	H 	0.44760 0.26930 0.77340 0.39500
H 	H 	0.45870 0.25950 0.81840 0.12600
C 	C 	0.31500 0.31150 0.74101 0.32600
C 	C 	0.28280 0.27820 0.77527 -0.12100
C 	C 	0.34090 0.25160 0.80060 0.03600
C 	C 	0.30600 0.22230 0.83310 -0.05400
H 	H 	0.34510 0.20420 0.85100 0.04400
C 	C 	0.21770 0.21830 0.84056 -0.02800
C 	C 	0.18500 0.18611 0.87597 0.28800
C 	C 	0.16060 0.24550 0.81590 -0.04300
H 	H 	0.09920 0.24410 0.82100 0.05300
C 	C 	0.19440 0.27540 0.78290 -0.01400
H 	H 	0.15510 0.29400 0.76550 0.04100
C 	C 	0.16220 0.25850 0.82430 -0.00500
H 	H 	0.10510 0.26460 0.83530 0.02400
C 	C 	0.19740 0.28710 0.79200 0.01900
H 	H 	0.16350 0.31370 0.78050 0.02100
N 	N 	0.41970 0.22740 0.77820 0.00600
H 	H 	0.44340 0.25480 0.76720 -0.21300
H 	H 	0.45260 0.21740 0.79990 0.14900
C 	C 	0.33580 0.23830 0.79190 0.09000
C 	C 	0.30160 0.20860 0.82510 -0.03800
H 	H 	0.33540 0.18220 0.83690 0.05300
O 	O 	0.26230 0.83860 0.22041 -0.44100
O 	O 	0.39610 0.81382 0.23236 -0.48200
O 	O 	0.23830 0.66241 0.39867 -0.43700
O 	O 	0.10380 0.68260 0.38271 -0.43400
N 	N 	0.43090 0.74950 0.29480 -0.36000
H 	H 	0.44760 0.76930 0.27340 0.39500
H 	H 	0.45870 0.75950 0.31840 0.12600
C 	C 	0.31500 0.81150 0.24101 0.32600
C 	C 	0.28280 0.77820 0.27527 -0.12100
C 	C 	0.34090 0.75160 0.30060 0.03600
C 	C 	0.30600 0.72230 0.33310 -0.05400
H 	H 	0.34510 0.70420 0.35100 0.04400
C 	C 	0.21770 0.71830 0.34056 -0.02800
C 	C 	0.18500 0.68611 0.37597 0.28800
C 	C 	0.16060 0.74550 0.31590 -0.04300
H 	H 	0.09920 0.74410 0.32100 0.05300
C 	C 	0.19440 0.77540 0.28290 -0.01400
H 	H 	0.15510 0.79400 0.26550 0.04100
C 	C 	0.16220 0.75850 0.32430 -0.00500
H 	H 	0.10510 0.76460 0.33530 0.02400
C 	C 	0.19740 0.78710 0.29200 0.01900
H 	H 	0.16350 0.81370 0.28050 0.02100
N 	N 	0.41970 0.72740 0.27820 0.00600
H 	H 	0.44340 0.75480 0.26720 -0.21300
H 	H 	0.45260 0.71740 0.29990 0.14900
C 	C 	0.33580 0.73830 0.29190 0.09000
C 	C 	0.30160 0.70860 0.32510 -0.03800
H 	H 	0.33540 0.68220 0.33690 0.05300
O 	O 	0.76230 0.33860 0.22041 -0.44100
O 	O 	0.89610 0.31382 0.23236 -0.48200
O 	O 	0.73830 0.16241 0.39867 -0.43700
O 	O 	0.60380 0.18260 0.38271 -0.43400
N 	N 	0.93090 0.24950 0.29480 -0.36000
H 	H 	0.94760 0.26930 0.27340 0.39500
H 	H 	0.95870 0.25950 0.31840 0.12600
C 	C 	0.81500 0.31150 0.24101 0.32600
C 	C 	0.78280 0.27820 0.27527 -0.12100
C 	C 	0.84090 0.25160 0.30060 0.03600
C 	C 	0.80600 0.22230 0.33310 -0.05400
H 	H 	0.84510 0.20420 0.35100 0.04400
C 	C 	0.71770 0.21830 0.34056 -0.02800
C 	C 	0.68500 0.18611 0.37597 0.28800
C 	C 	0.66060 0.24550 0.31590 -0.04300
H 	H 	0.59920 0.24410 0.32100 0.05300
C 	C 	0.69440 0.27540 0.28290 -0.01400
H 	H 	0.65510 0.29400 0.26550 0.04100
C 	C 	0.66220 0.25850 0.32430 -0.00500
H 	H 	0.60510 0.26460 0.33530 0.02400
C 	C 	0.69740 0.28710 0.29200 0.01900
H 	H 	0.66350 0.31370 0.28050 0.02100
N 	N 	0.91970 0.22740 0.27820 0.00700
H 	H 	0.94340 0.25480 0.26720 -0.21400
H 	H 	0.95260 0.21740 0.29990 0.14900
C 	C 	0.83580 0.23830 0.29190 0.09000
C 	C 	0.80160 0.20860 0.32510 -0.03800
H 	H 	0.83540 0.18220 0.33690 0.05300
O 	O 	0.76230 0.83860 0.72041 -0.44100
O 	O 	0.89610 0.81382 0.73236 -0.48200
O 	O 	0.73830 0.66241 0.89867 -0.43700
O 	O 	0.60380 0.68260 0.88271 -0.43400
N 	N 	0.93090 0.74950 0.79480 -0.36000
H 	H 	0.94760 0.76930 0.77340 0.39500
H 	H 	0.95870 0.75950 0.81840 0.12600
C 	C 	0.81500 0.81150 0.74101 0.32600
C 	C 	0.78280 0.77820 0.77527 -0.12100
C 	C 	0.84090 0.75160 0.80060 0.03600
C 	C 	0.80600 0.72230 0.83310 -0.05400
H 	H 	0.84510 0.70420 0.85100 0.04400
C 	C 	0.71770 0.71830 0.84056 -0.02800
C 	C 	0.68500 0.68611 0.87597 0.28800
C 	C 	0.66060 0.74550 0.81590 -0.04300
H 	H 	0.59920 0.74410 0.82100 0.05300
C 	C 	0.69440 0.77540 0.78290 -0.01400
H 	H 	0.65510 0.79400 0.76550 0.04100
C 	C 	0.66220 0.75850 0.82430 -0.00500
H 	H 	0.60510 0.76460 0.83530 0.02400
C 	C 	0.69740 0.78710 0.79200 0.01900
H 	H 	0.66350 0.81370 0.78050 0.02100
N 	N 	0.91970 0.72740 0.77820 0.00700
H 	H 	0.94340 0.75480 0.76720 -0.21400
H 	H 	0.95260 0.71740 0.79990 0.14900
C 	C 	0.83580 0.73830 0.79190 0.09000
C 	C 	0.80160 0.70860 0.82510 -0.03800
H 	H 	0.83540 0.68220 0.83690 0.05300
O 	O 	0.73770 0.58860 0.97041 -0.44100
O 	O 	0.60390 0.56382 0.98236 -0.48200
O 	O 	0.76170 0.41241 0.14867 -0.43700
O 	O 	0.89620 0.43260 0.13271 -0.43400
N 	N 	0.56910 0.49950 0.04480 -0.36000
H 	H 	0.55240 0.51930 0.02340 0.39500
H 	H 	0.54130 0.50950 0.06840 0.12600
C 	C 	0.68500 0.56150 0.99101 0.32600
C 	C 	0.71720 0.52820 0.02527 -0.12100
C 	C 	0.65910 0.50160 0.05060 0.03600
C 	C 	0.69400 0.47230 0.08310 -0.05400
H 	H 	0.65490 0.45420 0.10100 0.04400
C 	C 	0.78230 0.46830 0.09056 -0.02800
C 	C 	0.81500 0.43611 0.12597 0.28800
C 	C 	0.83940 0.49550 0.06590 -0.04300
H 	H 	0.90080 0.49410 0.07100 0.05300
C 	C 	0.80560 0.52540 0.03290 -0.01400
H 	H 	0.84490 0.54400 0.01550 0.04100
C 	C 	0.83780 0.50850 0.07430 -0.00500
H 	H 	0.89490 0.51460 0.08530 0.02400
C 	C 	0.80260 0.53710 0.04200 0.01900
H 	H 	0.83650 0.56370 0.03050 0.02100
N 	N 	0.58030 0.47740 0.02820 0.00600
H 	H 	0.55660 0.50480 0.01720 -0.21300
H 	H 	0.54740 0.46740 0.04990 0.14900
C 	C 	0.66420 0.48830 0.04190 0.09000
C 	C 	0.69840 0.45860 0.07510 -0.03800
H 	H 	0.66460 0.43220 0.08690 0.05300
O 	O 	0.73770 0.08860 0.47041 -0.44100
O 	O 	0.60390 0.06382 0.48236 -0.48200
O 	O 	0.76170 0.91241 0.64867 -0.43700
O 	O 	0.89620 0.93260 0.63271 -0.43400
N 	N 	0.56910 0.99950 0.54480 -0.36000
H 	H 	0.55240 0.01930 0.52340 0.39500
H 	H 	0.54130 0.00950 0.56840 0.12600
C 	C 	0.68500 0.06150 0.49101 0.32600
C 	C 	0.71720 0.02820 0.52527 -0.12100
C 	C 	0.65910 0.00160 0.55060 0.03600
C 	C 	0.69400 0.97230 0.58310 -0.05400
H 	H 	0.65490 0.95420 0.60100 0.04400
C 	C 	0.78230 0.96830 0.59056 -0.02800
C 	C 	0.81500 0.93611 0.62597 0.28800
C 	C 	0.83940 0.99550 0.56590 -0.04300
H 	H 	0.90080 0.99410 0.57100 0.05200
C 	C 	0.80560 0.02540 0.53290 -0.01400
H 	H 	0.84490 0.04400 0.51550 0.04100
C 	C 	0.83780 0.00850 0.57430 -0.00500
H 	H 	0.89490 0.01460 0.58530 0.02400
C 	C 	0.80260 0.03710 0.54200 0.01900
H 	H 	0.83650 0.06370 0.53050 0.02100
N 	N 	0.58030 0.97740 0.52820 0.00600
H 	H 	0.55660 0.00480 0.51720 -0.21300
H 	H 	0.54740 0.96740 0.54990 0.14900
C 	C 	0.66420 0.98830 0.54190 0.09000
C 	C 	0.69840 0.95860 0.57510 -0.03800
H 	H 	0.66460 0.93220 0.58690 0.05300
O 	O 	0.23770 0.58860 0.47041 -0.44100
O 	O 	0.10390 0.56382 0.48236 -0.48200
O 	O 	0.26170 0.41241 0.64867 -0.43700
O 	O 	0.39620 0.43260 0.63271 -0.43400
N 	N 	0.06910 0.49950 0.54480 -0.36000
H 	H 	0.05240 0.51930 0.52340 0.39500
H 	H 	0.04130 0.50950 0.56840 0.12600
C 	C 	0.18500 0.56150 0.49101 0.32600
C 	C 	0.21720 0.52820 0.52527 -0.12100
C 	C 	0.15910 0.50160 0.55060 0.03600
C 	C 	0.19400 0.47230 0.58310 -0.05400
H 	H 	0.15490 0.45420 0.60100 0.04400
C 	C 	0.28230 0.46830 0.59056 -0.02800
C 	C 	0.31500 0.43611 0.62597 0.28800
C 	C 	0.33940 0.49550 0.56590 -0.04300
H 	H 	0.40080 0.49410 0.57100 0.05300
C 	C 	0.30560 0.52540 0.53290 -0.01400
H 	H 	0.34490 0.54400 0.51550 0.04100
C 	C 	0.33780 0.50850 0.57430 -0.00500
H 	H 	0.39490 0.51460 0.58530 0.02400
C 	C 	0.30260 0.53710 0.54200 0.01900
H 	H 	0.33650 0.56370 0.53050 0.02100
N 	N 	0.08030 0.47740 0.52820 0.00700
H 	H 	0.05660 0.50480 0.51720 -0.21400
H 	H 	0.04740 0.46740 0.54990 0.14900
C 	C 	0.16420 0.48830 0.54190 0.09000
C 	C 	0.19840 0.45860 0.57510 -0.03800
H 	H 	0.16460 0.43220 0.58690 0.05300
O 	O 	0.23770 0.08860 0.97041 -0.44100
O 	O 	0.10390 0.06382 0.98236 -0.48200
O 	O 	0.26170 0.91241 0.14867 -0.43700
O 	O 	0.39620 0.93260 0.13271 -0.43400
N 	N 	0.06910 0.99950 0.04480 -0.35900
H 	H 	0.05240 0.01930 0.02340 0.39400
H 	H 	0.04130 0.00950 0.06840 0.12600
C 	C 	0.18500 0.06150 0.99101 0.32700
C 	C 	0.21720 0.02820 0.02527 -0.12100
C 	C 	0.15910 0.00160 0.05060 0.03800
C 	C 	0.19400 0.97230 0.08310 -0.05300
H 	H 	0.15490 0.95420 0.10100 0.04400
C 	C 	0.28230 0.96830 0.09056 -0.02800
C 	C 	0.31500 0.93611 0.12597 0.28800
C 	C 	0.33940 0.99550 0.06590 -0.04400
H 	H 	0.40080 0.99410 0.07100 0.05300
C 	C 	0.30560 0.02540 0.03290 -0.01400
H 	H 	0.34490 0.04400 0.01550 0.04100
C 	C 	0.33780 0.00850 0.07430 -0.00400
H 	H 	0.39490 0.01460 0.08530 0.02300
C 	C 	0.30260 0.03710 0.04200 0.01900
H 	H 	0.33650 0.06370 0.03050 0.02000
N 	N 	0.08030 0.97740 0.02820 0.00600
H 	H 	0.05660 0.00480 0.01720 -0.21300
H 	H 	0.04740 0.96740 0.04990 0.14900
C 	C 	0.16420 0.98830 0.04190 0.08800
C 	C 	0.19840 0.95860 0.07510 -0.03800
H 	H 	0.16460 0.93220 0.08690 0.05300
O 	O 	0.51230 0.66140 0.97041 -0.44100
O 	O 	0.64610 0.68618 0.98236 -0.48200
O 	O 	0.48830 0.83759 0.14867 -0.43700
O 	O 	0.35380 0.81740 0.13271 -0.43400
N 	N 	0.68090 0.75050 0.04480 -0.36000
H 	H 	0.69760 0.73070 0.02340 0.39500
H 	H 	0.70870 0.74050 0.06840 0.12600
C 	C 	0.56500 0.68850 0.99101 0.32600
C 	C 	0.53280 0.72180 0.02527 -0.12100
C 	C 	0.59090 0.74840 0.05060 0.03600
C 	C 	0.55600 0.77770 0.08310 -0.05400
H 	H 	0.59510 0.79580 0.10100 0.04400
C 	C 	0.46770 0.78170 0.09056 -0.02800
C 	C 	0.43500 0.81389 0.12597 0.28800
C 	C 	0.41060 0.75450 0.06590 -0.04300
H 	H 	0.34920 0.75590 0.07100 0.05300
C 	C 	0.44440 0.72460 0.03290 -0.01400
H 	H 	0.40510 0.70600 0.01550 0.04100
C 	C 	0.41220 0.74150 0.07430 -0.00500
H 	H 	0.35510 0.73540 0.08530 0.02400
C 	C 	0.44740 0.71290 0.04200 0.01900
H 	H 	0.41350 0.68630 0.03050 0.02100
N 	N 	0.66970 0.77260 0.02820 0.00600
H 	H 	0.69340 0.74520 0.01720 -0.21300
H 	H 	0.70260 0.78260 0.04990 0.14900
C 	C 	0.58580 0.76170 0.04190 0.09000
C 	C 	0.55160 0.79140 0.07510 -0.03800
H 	H 	0.58540 0.81780 0.08690 0.05300
O 	O 	0.51230 0.16140 0.47041 -0.44100
O 	O 	0.64610 0.18618 0.48236 -0.48200
O 	O 	0.48830 0.33759 0.64867 -0.43700
O 	O 	0.35380 0.31740 0.63271 -0.43400
N 	N 	0.68090 0.25050 0.54480 -0.36000
H 	H 	0.69760 0.23070 0.52340 0.39500
H 	H 	0.70870 0.24050 0.56840 0.12600
C 	C 	0.56500 0.18850 0.49101 0.32600
C 	C 	0.53280 0.22180 0.52527 -0.12100
C 	C 	0.59090 0.24840 0.55060 0.03600
C 	C 	0.55600 0.27770 0.58310 -0.05400
H 	H 	0.59510 0.29580 0.60100 0.04400
C 	C 	0.46770 0.28170 0.59056 -0.02800
C 	C 	0.43500 0.31389 0.62597 0.28800
C 	C 	0.41060 0.25450 0.56590 -0.04300
H 	H 	0.34920 0.25590 0.57100 0.05300
C 	C 	0.44440 0.22460 0.53290 -0.01400
H 	H 	0.40510 0.20600 0.51550 0.04100
C 	C 	0.41220 0.24150 0.57430 -0.00500
H 	H 	0.35510 0.23540 0.58530 0.02400
C 	C 	0.44740 0.21290 0.54200 0.01900
H 	H 	0.41350 0.18630 0.53050 0.02100
N 	N 	0.66970 0.27260 0.52820 0.00600
H 	H 	0.69340 0.24520 0.51720 -0.21300
H 	H 	0.70260 0.28260 0.54990 0.14900
C 	C 	0.58580 0.26170 0.54190 0.09000
C 	C 	0.55160 0.29140 0.57510 -0.03800
H 	H 	0.58540 0.31780 0.58690 0.05300
O 	O 	0.01230 0.66140 0.47041 -0.44100
O 	O 	0.14610 0.68618 0.48236 -0.48200
O 	O 	0.98830 0.83759 0.64867 -0.43700
O 	O 	0.85380 0.81740 0.63271 -0.43400
N 	N 	0.18090 0.75050 0.54480 -0.36000
H 	H 	0.19760 0.73070 0.52340 0.39500
H 	H 	0.20870 0.74050 0.56840 0.12600
C 	C 	0.06500 0.68850 0.49101 0.32600
C 	C 	0.03280 0.72180 0.52527 -0.12100
C 	C 	0.09090 0.74840 0.55060 0.03600
C 	C 	0.05600 0.77770 0.58310 -0.05400
H 	H 	0.09510 0.79580 0.60100 0.04400
C 	C 	0.96770 0.78170 0.59056 -0.02800
C 	C 	0.93500 0.81389 0.62597 0.28800
C 	C 	0.91060 0.75450 0.56590 -0.04300
H 	H 	0.84920 0.75590 0.57100 0.05300
C 	C 	0.94440 0.72460 0.53290 -0.01400
H 	H 	0.90510 0.70600 0.51550 0.04100
C 	C 	0.91220 0.74150 0.57430 -0.00500
H 	H 	0.85510 0.73540 0.58530 0.02400
C 	C 	0.94740 0.71290 0.54200 0.01900
H 	H 	0.91350 0.68630 0.53050 0.02100
N 	N 	0.16970 0.77260 0.52820 0.00600
H 	H 	0.19340 0.74520 0.51720 -0.21300
H 	H 	0.20260 0.78260 0.54990 0.14900
C 	C 	0.08580 0.76170 0.54190 0.09000
C 	C 	0.05160 0.79140 0.57510 -0.03800
H 	H 	0.08540 0.81780 0.58690 0.05300
O 	O 	0.01230 0.16140 0.97041 -0.44100
O 	O 	0.14610 0.18618 0.98236 -0.48200
O 	O 	0.98830 0.33759 0.14867 -0.43700
O 	O 	0.85380 0.31740 0.13271 -0.43400
N 	N 	0.18090 0.25050 0.04480 -0.36000
H 	H 	0.19760 0.23070 0.02340 0.39500
H 	H 	0.20870 0.24050 0.06840 0.12600
C 	C 	0.06500 0.18850 0.99101 0.32700
C 	C 	0.03280 0.22180 0.02527 -0.12100
C 	C 	0.09090 0.24840 0.05060 0.03600
C 	C 	0.05600 0.27770 0.08310 -0.05400
H 	H 	0.09510 0.29580 0.10100 0.04500
C 	C 	0.96770 0.28170 0.09056 -0.02800
C 	C 	0.93500 0.31389 0.12597 0.28800
C 	C 	0.91060 0.25450 0.06590 -0.04300
H 	H 	0.84920 0.25590 0.07100 0.05300
C 	C 	0.94440 0.22460 0.03290 -0.01300
H 	H 	0.90510 0.20600 0.01550 0.04100
C 	C 	0.91220 0.24150 0.07430 -0.00500
H 	H 	0.85510 0.23540 0.08530 0.02400
C 	C 	0.94740 0.21290 0.04200 0.01900
H 	H 	0.91350 0.18630 0.03050 0.02000
N 	N 	0.16970 0.27260 0.02820 0.00600
H 	H 	0.19340 0.24520 0.01720 -0.21400
H 	H 	0.20260 0.28260 0.04990 0.14900
C 	C 	0.08580 0.26170 0.04190 0.09000
C 	C 	0.05160 0.29140 0.07510 -0.03800
H 	H 	0.08540 0.31780 0.08690 0.05300
In	In	0.37500 0.37500 0.68445 1.99900
In	In	0.37500 0.87500 0.18445 1.99900
In	In	0.87500 0.37500 0.18445 1.99900
In	In	0.87500 0.87500 0.68445 1.99900
In	In	0.62500 0.62500 0.93445 1.99900
In	In	0.62500 0.12500 0.43445 1.99900
In	In	0.12500 0.62500 0.43445 1.99900
In	In	0.12500 0.12500 0.93445 1.99900
