data_crystal

_cell_length_a 15.15500
_cell_length_b 26.13900
_cell_length_c 31.90800
_cell_angle_alpha 90.00000
_cell_angle_beta  90.00000
_cell_angle_gamma 90.00000

_symmetry_space_group_name_	'P 1'
_symmetry_space_group_name_H-M	'P 1'

loop_
_symmetry_equiv_pos_as_xyz
  x,y,z

loop_
_atom_site_label
_atom_site_type_symbol
_atom_site_fract_x
_atom_site_fract_y
_atom_site_fract_z
_atom_site_charge
O 	O 	0.48870 0.41190 0.60175 -0.43700
O 	O 	0.35420 0.43400 0.61570 -0.45100
O 	O 	0.48910 0.33910 0.52980 -0.43400
O 	O 	0.35520 0.31260 0.51830 -0.45400
C 	C 	0.43670 0.31060 0.50950 0.35200
C 	C 	0.46880 0.27860 0.47460 -0.17600
C 	C 	0.41380 0.24380 0.45440 0.50700
C 	C 	0.55590 0.28400 0.46180 -0.22000
C 	C 	0.44600 0.21450 0.42150 -0.22000
N 	N 	0.32730 0.23570 0.46660 0.59400
C 	C 	0.58810 0.25470 0.42880 0.51600
H 	H 	0.59350 0.30780 0.47560 0.13700
H 	H 	0.40850 0.19080 0.40770 0.14700
C 	C 	0.53320 0.22000 0.40865 -0.17700
H 	H 	0.29500 0.21270 0.45360 -0.08100
H 	H 	0.30460 0.25350 0.48740 -0.03800
H 	H 	0.64770 0.25840 0.42000 -0.70500
C 	C 	0.56490 0.18700 0.37330 0.36500
H 	H 	0.64570 0.49010 0.71320 -0.68200
N 	N 	0.32600 0.51400 0.66610 0.62100
H 	H 	0.29480 0.53810 0.67890 -0.09900
H 	H 	0.30290 0.49670 0.64540 -0.04500
O 	O 	0.48870 0.91190 0.10175 -0.43800
O 	O 	0.35420 0.93400 0.11570 -0.45200
O 	O 	0.48910 0.83910 0.02980 -0.43500
O 	O 	0.35520 0.81260 0.01830 -0.45500
C 	C 	0.43670 0.81060 0.00950 0.35100
C 	C 	0.46880 0.77860 0.97460 -0.17700
C 	C 	0.41380 0.74380 0.95440 0.50600
C 	C 	0.55590 0.78400 0.96180 -0.22100
C 	C 	0.44600 0.71450 0.92150 -0.22100
N 	N 	0.32730 0.73570 0.96660 0.59300
C 	C 	0.58810 0.75470 0.92880 0.51500
H 	H 	0.59350 0.80780 0.97560 0.13600
H 	H 	0.40850 0.69080 0.90770 0.14600
C 	C 	0.53320 0.72000 0.90865 -0.17800
H 	H 	0.29500 0.71270 0.95360 -0.08200
H 	H 	0.30460 0.75350 0.98740 -0.03900
H 	H 	0.64770 0.75840 0.92000 -0.70600
C 	C 	0.56490 0.68700 0.87330 0.36400
H 	H 	0.64570 0.99010 0.21320 -0.68200
N 	N 	0.32600 0.01400 0.16610 0.61900
H 	H 	0.29480 0.03810 0.17890 -0.10000
H 	H 	0.30290 0.99670 0.14540 -0.04600
O 	O 	0.98870 0.41190 0.10175 -0.43900
O 	O 	0.85420 0.43400 0.11570 -0.45200
O 	O 	0.98910 0.33910 0.02980 -0.43500
O 	O 	0.85520 0.31260 0.01830 -0.45500
C 	C 	0.93670 0.31060 0.00950 0.35100
C 	C 	0.96880 0.27860 0.97460 -0.17800
C 	C 	0.91380 0.24380 0.95440 0.50700
C 	C 	0.05590 0.28400 0.96180 -0.22000
C 	C 	0.94600 0.21450 0.92150 -0.22200
N 	N 	0.82730 0.23570 0.96660 0.59300
C 	C 	0.08810 0.25470 0.92880 0.51500
H 	H 	0.09350 0.30780 0.97560 0.13600
H 	H 	0.90850 0.19080 0.90770 0.14600
C 	C 	0.03320 0.22000 0.90865 -0.17700
H 	H 	0.79500 0.21270 0.95360 -0.08200
H 	H 	0.80460 0.25350 0.98740 -0.03800
H 	H 	0.14770 0.25840 0.92000 -0.70700
C 	C 	0.06490 0.18700 0.87330 0.36400
H 	H 	0.14570 0.49010 0.21320 -0.68300
N 	N 	0.82600 0.51400 0.16610 0.62000
H 	H 	0.79480 0.53810 0.17890 -0.10000
H 	H 	0.80290 0.49670 0.14540 -0.04600
O 	O 	0.98870 0.91190 0.60175 -0.43800
O 	O 	0.85420 0.93400 0.61570 -0.45200
O 	O 	0.98910 0.83910 0.52980 -0.43500
O 	O 	0.85520 0.81260 0.51830 -0.45500
C 	C 	0.93670 0.81060 0.50950 0.35000
C 	C 	0.96880 0.77860 0.47460 -0.17600
C 	C 	0.91380 0.74380 0.45440 0.50600
C 	C 	0.05590 0.78400 0.46180 -0.22300
C 	C 	0.94600 0.71450 0.42150 -0.22000
N 	N 	0.82730 0.73570 0.46660 0.59400
C 	C 	0.08810 0.75470 0.42880 0.51600
H 	H 	0.09350 0.80780 0.47560 0.13600
H 	H 	0.90850 0.69080 0.40770 0.14600
C 	C 	0.03320 0.72000 0.40865 -0.17900
H 	H 	0.79500 0.71270 0.45360 -0.08200
H 	H 	0.80460 0.75350 0.48740 -0.03900
H 	H 	0.14770 0.75840 0.42000 -0.70600
C 	C 	0.06490 0.68700 0.37330 0.36400
H 	H 	0.14570 0.99010 0.71320 -0.68400
N 	N 	0.82600 0.01400 0.66610 0.62100
H 	H 	0.79480 0.03810 0.67890 -0.10000
H 	H 	0.80290 0.99670 0.64540 -0.04500
O 	O 	0.26130 0.33810 0.60175 -0.43800
O 	O 	0.39580 0.31600 0.61570 -0.45200
O 	O 	0.26090 0.41090 0.52980 -0.43500
O 	O 	0.39480 0.43740 0.51830 -0.45500
C 	C 	0.31330 0.43940 0.50950 0.35100
C 	C 	0.28120 0.47140 0.47460 -0.17700
C 	C 	0.33620 0.50620 0.45440 0.50600
C 	C 	0.19410 0.46600 0.46180 -0.22100
C 	C 	0.30400 0.53550 0.42150 -0.22100
N 	N 	0.42270 0.51430 0.46660 0.59300
C 	C 	0.16190 0.49530 0.42880 0.51500
H 	H 	0.15650 0.44220 0.47560 0.13600
H 	H 	0.34150 0.55920 0.40770 0.14600
C 	C 	0.21680 0.53000 0.40865 -0.17800
H 	H 	0.45500 0.53730 0.45360 -0.08200
H 	H 	0.44540 0.49650 0.48740 -0.03900
H 	H 	0.10230 0.49160 0.42000 -0.70600
C 	C 	0.18510 0.56300 0.37330 0.36400
H 	H 	0.10430 0.25990 0.71320 -0.68300
N 	N 	0.42400 0.23600 0.66610 0.62000
H 	H 	0.45520 0.21190 0.67890 -0.10000
H 	H 	0.44710 0.25330 0.64540 -0.04500
O 	O 	0.26130 0.83810 0.10175 -0.43900
O 	O 	0.39580 0.81600 0.11570 -0.45200
O 	O 	0.26090 0.91090 0.02980 -0.43500
O 	O 	0.39480 0.93740 0.01830 -0.45500
C 	C 	0.31330 0.93940 0.00950 0.35100
C 	C 	0.28120 0.97140 0.97460 -0.17700
C 	C 	0.33620 0.00620 0.95440 0.50700
C 	C 	0.19410 0.96600 0.96180 -0.22100
C 	C 	0.30400 0.03550 0.92150 -0.22100
N 	N 	0.42270 0.01430 0.96660 0.59200
C 	C 	0.16190 0.99530 0.92880 0.51500
H 	H 	0.15650 0.94220 0.97560 0.13600
H 	H 	0.34150 0.05920 0.90770 0.14600
C 	C 	0.21680 0.03000 0.90865 -0.17700
H 	H 	0.45500 0.03730 0.95360 -0.08200
H 	H 	0.44540 0.99650 0.98740 -0.03800
H 	H 	0.10230 0.99160 0.92000 -0.70800
C 	C 	0.18510 0.06300 0.87330 0.36400
H 	H 	0.10430 0.75990 0.21320 -0.68300
N 	N 	0.42400 0.73600 0.16610 0.62000
H 	H 	0.45520 0.71190 0.17890 -0.10000
H 	H 	0.44710 0.75330 0.14540 -0.04500
O 	O 	0.76130 0.33810 0.10175 -0.43800
O 	O 	0.89580 0.31600 0.11570 -0.45200
O 	O 	0.76090 0.41090 0.02980 -0.43500
O 	O 	0.89480 0.43740 0.01830 -0.45500
C 	C 	0.81330 0.43940 0.00950 0.35100
C 	C 	0.78120 0.47140 0.97460 -0.17700
C 	C 	0.83620 0.50620 0.95440 0.50600
C 	C 	0.69410 0.46600 0.96180 -0.22100
C 	C 	0.80400 0.53550 0.92150 -0.22100
N 	N 	0.92270 0.51430 0.96660 0.59300
C 	C 	0.66190 0.49530 0.92880 0.51500
H 	H 	0.65650 0.44220 0.97560 0.13600
H 	H 	0.84150 0.55920 0.90770 0.14600
C 	C 	0.71680 0.53000 0.90865 -0.17800
H 	H 	0.95500 0.53730 0.95360 -0.08200
H 	H 	0.94540 0.49650 0.98740 -0.03900
H 	H 	0.60230 0.49160 0.92000 -0.70600
C 	C 	0.68510 0.56300 0.87330 0.36400
H 	H 	0.60430 0.25990 0.21320 -0.68300
N 	N 	0.92400 0.23600 0.16610 0.62000
H 	H 	0.95520 0.21190 0.17890 -0.10000
H 	H 	0.94710 0.25330 0.14540 -0.04600
O 	O 	0.76130 0.83810 0.60175 -0.43800
O 	O 	0.89580 0.81600 0.61570 -0.45200
O 	O 	0.76090 0.91090 0.52980 -0.43500
O 	O 	0.89480 0.93740 0.51830 -0.45500
C 	C 	0.81330 0.93940 0.50950 0.35000
C 	C 	0.78120 0.97140 0.47460 -0.17600
C 	C 	0.83620 0.00620 0.45440 0.50600
C 	C 	0.69410 0.96600 0.46180 -0.22200
C 	C 	0.80400 0.03550 0.42150 -0.22100
N 	N 	0.92270 0.01430 0.46660 0.59400
C 	C 	0.66190 0.99530 0.42880 0.51600
H 	H 	0.65650 0.94220 0.47560 0.13600
H 	H 	0.84150 0.05920 0.40770 0.14600
C 	C 	0.71680 0.03000 0.40865 -0.17800
H 	H 	0.95500 0.03730 0.45360 -0.08300
H 	H 	0.94540 0.99650 0.48740 -0.03800
H 	H 	0.60230 0.99160 0.42000 -0.70600
C 	C 	0.68510 0.06300 0.37330 0.36400
H 	H 	0.60430 0.75990 0.71320 -0.68300
N 	N 	0.92400 0.73600 0.66610 0.62000
H 	H 	0.95520 0.71190 0.67890 -0.10000
H 	H 	0.94710 0.75330 0.64540 -0.04600
O 	O 	0.73870 0.58810 0.85175 -0.43800
O 	O 	0.60420 0.56600 0.86570 -0.45200
O 	O 	0.73910 0.66090 0.77980 -0.43500
O 	O 	0.60520 0.68740 0.76830 -0.45500
C 	C 	0.68670 0.68940 0.75950 0.35100
C 	C 	0.71880 0.72140 0.72460 -0.17700
C 	C 	0.66380 0.75620 0.70440 0.50600
C 	C 	0.80590 0.71600 0.71180 -0.22100
C 	C 	0.69600 0.78550 0.67150 -0.22100
N 	N 	0.57730 0.76430 0.71660 0.59300
C 	C 	0.83810 0.74530 0.67880 0.51500
H 	H 	0.84350 0.69220 0.72560 0.13600
H 	H 	0.65850 0.80920 0.65770 0.14600
C 	C 	0.78320 0.78000 0.65865 -0.17800
H 	H 	0.54500 0.78730 0.70360 -0.08200
H 	H 	0.55460 0.74650 0.73740 -0.03900
H 	H 	0.89770 0.74160 0.67000 -0.70600
C 	C 	0.81490 0.81300 0.62330 0.36400
H 	H 	0.89570 0.50990 0.96320 -0.68300
N 	N 	0.57600 0.48600 0.91610 0.62000
H 	H 	0.54480 0.46190 0.92890 -0.10000
H 	H 	0.55290 0.50330 0.89540 -0.04500
O 	O 	0.73870 0.08810 0.35175 -0.43900
O 	O 	0.60420 0.06600 0.36570 -0.45200
O 	O 	0.73910 0.16090 0.27980 -0.43500
O 	O 	0.60520 0.18740 0.26830 -0.45500
C 	C 	0.68670 0.18940 0.25950 0.35100
C 	C 	0.71880 0.22140 0.22460 -0.17700
C 	C 	0.66380 0.25620 0.20440 0.50600
C 	C 	0.80590 0.21600 0.21180 -0.22100
C 	C 	0.69600 0.28550 0.17150 -0.22100
N 	N 	0.57730 0.26430 0.21660 0.59300
C 	C 	0.83810 0.24530 0.17880 0.51500
H 	H 	0.84350 0.19220 0.22560 0.13600
H 	H 	0.65850 0.30920 0.15770 0.14600
C 	C 	0.78320 0.28000 0.15865 -0.17700
H 	H 	0.54500 0.28730 0.20360 -0.08200
H 	H 	0.55460 0.24650 0.23740 -0.03900
H 	H 	0.89770 0.24160 0.17000 -0.70600
C 	C 	0.81490 0.31300 0.12330 0.36400
H 	H 	0.89570 0.00990 0.46320 -0.68400
N 	N 	0.57600 0.98600 0.41610 0.61900
H 	H 	0.54480 0.96190 0.42890 -0.10000
H 	H 	0.55290 0.00330 0.39540 -0.04500
O 	O 	0.23870 0.58810 0.35175 -0.43800
O 	O 	0.10420 0.56600 0.36570 -0.45200
O 	O 	0.23910 0.66090 0.27980 -0.43500
O 	O 	0.10520 0.68740 0.26830 -0.45500
C 	C 	0.18670 0.68940 0.25950 0.35100
C 	C 	0.21880 0.72140 0.22460 -0.17700
C 	C 	0.16380 0.75620 0.20440 0.50600
C 	C 	0.30590 0.71600 0.21180 -0.22100
C 	C 	0.19600 0.78550 0.17150 -0.22100
N 	N 	0.07730 0.76430 0.21660 0.59300
C 	C 	0.33810 0.74530 0.17880 0.51500
H 	H 	0.34350 0.69220 0.22560 0.13600
H 	H 	0.15850 0.80920 0.15770 0.14600
C 	C 	0.28320 0.78000 0.15865 -0.17800
H 	H 	0.04500 0.78730 0.20360 -0.08200
H 	H 	0.05460 0.74650 0.23740 -0.03900
H 	H 	0.39770 0.74160 0.17000 -0.70600
C 	C 	0.31490 0.81300 0.12330 0.36400
H 	H 	0.39570 0.50990 0.46320 -0.68300
N 	N 	0.07600 0.48600 0.41610 0.62000
H 	H 	0.04480 0.46190 0.42890 -0.10000
H 	H 	0.05290 0.50330 0.39540 -0.04600
O 	O 	0.23870 0.08810 0.85175 -0.43800
O 	O 	0.10420 0.06600 0.86570 -0.45200
O 	O 	0.23910 0.16090 0.77980 -0.43500
O 	O 	0.10520 0.18740 0.76830 -0.45500
C 	C 	0.18670 0.18940 0.75950 0.35100
C 	C 	0.21880 0.22140 0.72460 -0.17700
C 	C 	0.16380 0.25620 0.70440 0.50600
C 	C 	0.30590 0.21600 0.71180 -0.22100
C 	C 	0.19600 0.28550 0.67150 -0.22100
N 	N 	0.07730 0.26430 0.71660 0.59300
C 	C 	0.33810 0.24530 0.67880 0.51500
H 	H 	0.34350 0.19220 0.72560 0.13600
H 	H 	0.15850 0.30920 0.65770 0.14600
C 	C 	0.28320 0.28000 0.65865 -0.17800
H 	H 	0.04500 0.28730 0.70360 -0.08200
H 	H 	0.05460 0.24650 0.73740 -0.03900
H 	H 	0.39770 0.24160 0.67000 -0.70600
C 	C 	0.31490 0.31300 0.62330 0.36400
H 	H 	0.39570 0.00990 0.96320 -0.68200
N 	N 	0.07600 0.98600 0.91610 0.62100
H 	H 	0.04480 0.96190 0.92890 -0.10000
H 	H 	0.05290 0.00330 0.89540 -0.04500
O 	O 	0.51130 0.66190 0.85175 -0.43800
O 	O 	0.64580 0.68400 0.86570 -0.45200
O 	O 	0.51090 0.58910 0.77980 -0.43500
O 	O 	0.64480 0.56260 0.76830 -0.45500
C 	C 	0.56330 0.56060 0.75950 0.35100
C 	C 	0.53120 0.52860 0.72460 -0.17700
C 	C 	0.58620 0.49380 0.70440 0.50600
C 	C 	0.44410 0.53400 0.71180 -0.22100
C 	C 	0.55400 0.46450 0.67150 -0.22100
N 	N 	0.67270 0.48570 0.71660 0.59300
C 	C 	0.41190 0.50470 0.67880 0.51500
H 	H 	0.40650 0.55780 0.72560 0.13600
H 	H 	0.59150 0.44080 0.65770 0.14600
C 	C 	0.46680 0.47000 0.65865 -0.17800
H 	H 	0.70500 0.46270 0.70360 -0.08200
H 	H 	0.69540 0.50350 0.73740 -0.03900
H 	H 	0.35230 0.50840 0.67000 -0.70600
C 	C 	0.43510 0.43700 0.62330 0.36400
H 	H 	0.35430 0.74010 0.96320 -0.68300
N 	N 	0.67400 0.76400 0.91610 0.62000
H 	H 	0.70520 0.78810 0.92890 -0.10000
H 	H 	0.69710 0.74670 0.89540 -0.04500
O 	O 	0.51130 0.16190 0.35175 -0.43800
O 	O 	0.64580 0.18400 0.36570 -0.45200
O 	O 	0.51090 0.08910 0.27980 -0.43500
O 	O 	0.64480 0.06260 0.26830 -0.45500
C 	C 	0.56330 0.06060 0.25950 0.35100
C 	C 	0.53120 0.02860 0.22460 -0.17700
C 	C 	0.58620 0.99380 0.20440 0.50600
C 	C 	0.44410 0.03400 0.21180 -0.22100
C 	C 	0.55400 0.96450 0.17150 -0.22100
N 	N 	0.67270 0.98570 0.21660 0.59300
C 	C 	0.41190 0.00470 0.17880 0.51500
H 	H 	0.40650 0.05780 0.22560 0.13600
H 	H 	0.59150 0.94080 0.15770 0.14600
C 	C 	0.46680 0.97000 0.15865 -0.17800
H 	H 	0.70500 0.96270 0.20360 -0.08200
H 	H 	0.69540 0.00350 0.23740 -0.03900
H 	H 	0.35230 0.00840 0.17000 -0.70600
C 	C 	0.43510 0.93700 0.12330 0.36400
H 	H 	0.35430 0.24010 0.46320 -0.68300
N 	N 	0.67400 0.26400 0.41610 0.62000
H 	H 	0.70520 0.28810 0.42890 -0.10000
H 	H 	0.69710 0.24670 0.39540 -0.04600
O 	O 	0.01130 0.66190 0.35175 -0.43900
O 	O 	0.14580 0.68400 0.36570 -0.45200
O 	O 	0.01090 0.58910 0.27980 -0.43500
O 	O 	0.14480 0.56260 0.26830 -0.45500
C 	C 	0.06330 0.56060 0.25950 0.35100
C 	C 	0.03120 0.52860 0.22460 -0.17700
C 	C 	0.08620 0.49380 0.20440 0.50600
C 	C 	0.94410 0.53400 0.21180 -0.22100
C 	C 	0.05400 0.46450 0.17150 -0.22100
N 	N 	0.17270 0.48570 0.21660 0.59300
C 	C 	0.91190 0.50470 0.17880 0.51500
H 	H 	0.90650 0.55780 0.22560 0.13600
H 	H 	0.09150 0.44080 0.15770 0.14600
C 	C 	0.96680 0.47000 0.15865 -0.17800
H 	H 	0.20500 0.46270 0.20360 -0.08200
H 	H 	0.19540 0.50350 0.23740 -0.03900
H 	H 	0.85230 0.50840 0.17000 -0.70600
C 	C 	0.93510 0.43700 0.12330 0.36400
H 	H 	0.85430 0.74010 0.46320 -0.68300
N 	N 	0.17400 0.76400 0.41610 0.61900
H 	H 	0.20520 0.78810 0.42890 -0.10000
H 	H 	0.19710 0.74670 0.39540 -0.04500
O 	O 	0.01130 0.16190 0.85175 -0.43800
O 	O 	0.14580 0.18400 0.86570 -0.45200
O 	O 	0.01090 0.08910 0.77980 -0.43500
O 	O 	0.14480 0.06260 0.76830 -0.45500
C 	C 	0.06330 0.06060 0.75950 0.35000
C 	C 	0.03120 0.02860 0.72460 -0.17500
C 	C 	0.08620 0.99380 0.70440 0.50600
C 	C 	0.94410 0.03400 0.71180 -0.22300
C 	C 	0.05400 0.96450 0.67150 -0.22300
N 	N 	0.17270 0.98570 0.71660 0.59400
C 	C 	0.91190 0.00470 0.67880 0.51500
H 	H 	0.90650 0.05780 0.72560 0.13600
H 	H 	0.09150 0.94080 0.65770 0.14600
C 	C 	0.96680 0.97000 0.65865 -0.17600
H 	H 	0.20500 0.96270 0.70360 -0.08200
H 	H 	0.19540 0.00350 0.73740 -0.03800
H 	H 	0.85230 0.00840 0.67000 -0.70800
C 	C 	0.93510 0.93700 0.62330 0.36400
H 	H 	0.85430 0.24010 0.96320 -0.68300
N 	N 	0.17400 0.26400 0.91610 0.62000
H 	H 	0.20520 0.28810 0.92890 -0.10000
H 	H 	0.19710 0.24670 0.89540 -0.04600
In	In	0.37500 0.37500 0.56560 2.00200
In	In	0.37500 0.87500 0.06560 2.00200
In	In	0.87500 0.37500 0.06560 2.00200
In	In	0.87500 0.87500 0.56560 2.00200
In	In	0.62500 0.62500 0.81560 2.00200
In	In	0.62500 0.12500 0.31560 2.00200
In	In	0.12500 0.62500 0.31560 2.00200
In	In	0.12500 0.12500 0.81560 2.00200
O 	O 	0.26130 0.41190 0.14825 -0.43800
O 	O 	0.39580 0.43400 0.13430 -0.45200
O 	O 	0.26090 0.33910 0.22020 -0.43500
O 	O 	0.39480 0.31260 0.23170 -0.45500
C 	C 	0.31330 0.31060 0.24050 0.35100
C 	C 	0.28120 0.27860 0.27540 -0.17700
C 	C 	0.33620 0.24380 0.29560 0.50600
C 	C 	0.19410 0.28400 0.28820 -0.22100
C 	C 	0.30400 0.21450 0.32850 -0.22100
N 	N 	0.42270 0.23570 0.28340 0.59300
C 	C 	0.16190 0.25470 0.32120 0.51500
H 	H 	0.15650 0.30780 0.27440 0.13600
H 	H 	0.34150 0.19080 0.34230 0.14600
C 	C 	0.21680 0.22000 0.34135 -0.17800
H 	H 	0.45500 0.21270 0.29640 -0.08200
H 	H 	0.44540 0.25350 0.26260 -0.03900
H 	H 	0.10230 0.25840 0.33000 -0.70600
C 	C 	0.18510 0.18700 0.37670 0.36400
H 	H 	0.10430 0.49010 0.03680 -0.68300
N 	N 	0.42400 0.51400 0.08390 0.62000
H 	H 	0.45520 0.53810 0.07110 -0.10000
H 	H 	0.44710 0.49670 0.10460 -0.04500
O 	O 	0.26130 0.91190 0.64825 -0.43900
O 	O 	0.39580 0.93400 0.63430 -0.45200
O 	O 	0.26090 0.83910 0.72020 -0.43500
O 	O 	0.39480 0.81260 0.73170 -0.45500
C 	C 	0.31330 0.81060 0.74050 0.35100
C 	C 	0.28120 0.77860 0.77540 -0.17700
C 	C 	0.33620 0.74380 0.79560 0.50600
C 	C 	0.19410 0.78400 0.78820 -0.22100
C 	C 	0.30400 0.71450 0.82850 -0.22100
N 	N 	0.42270 0.73570 0.78340 0.59300
C 	C 	0.16190 0.75470 0.82120 0.51500
H 	H 	0.15650 0.80780 0.77440 0.13600
H 	H 	0.34150 0.69080 0.84230 0.14600
C 	C 	0.21680 0.72000 0.84135 -0.17700
H 	H 	0.45500 0.71270 0.79640 -0.08200
H 	H 	0.44540 0.75350 0.76260 -0.03900
H 	H 	0.10230 0.75840 0.83000 -0.70600
C 	C 	0.18510 0.68700 0.87670 0.36400
H 	H 	0.10430 0.99010 0.53680 -0.68400
N 	N 	0.42400 0.01400 0.58390 0.61900
H 	H 	0.45520 0.03810 0.57110 -0.10000
H 	H 	0.44710 0.99670 0.60460 -0.04500
O 	O 	0.76130 0.41190 0.64825 -0.43800
O 	O 	0.89580 0.43400 0.63430 -0.45200
O 	O 	0.76090 0.33910 0.72020 -0.43500
O 	O 	0.89480 0.31260 0.73170 -0.45500
C 	C 	0.81330 0.31060 0.74050 0.35100
C 	C 	0.78120 0.27860 0.77540 -0.17700
C 	C 	0.83620 0.24380 0.79560 0.50600
C 	C 	0.69410 0.28400 0.78820 -0.22100
C 	C 	0.80400 0.21450 0.82850 -0.22100
N 	N 	0.92270 0.23570 0.78340 0.59300
C 	C 	0.66190 0.25470 0.82120 0.51500
H 	H 	0.65650 0.30780 0.77440 0.13600
H 	H 	0.84150 0.19080 0.84230 0.14600
C 	C 	0.71680 0.22000 0.84135 -0.17800
H 	H 	0.95500 0.21270 0.79640 -0.08200
H 	H 	0.94540 0.25350 0.76260 -0.03900
H 	H 	0.60230 0.25840 0.83000 -0.70600
C 	C 	0.68510 0.18700 0.87670 0.36400
H 	H 	0.60430 0.49010 0.53680 -0.68300
N 	N 	0.92400 0.51400 0.58390 0.62000
H 	H 	0.95520 0.53810 0.57110 -0.10000
H 	H 	0.94710 0.49670 0.60460 -0.04600
O 	O 	0.76130 0.91190 0.14825 -0.43800
O 	O 	0.89580 0.93400 0.13430 -0.45200
O 	O 	0.76090 0.83910 0.22020 -0.43500
O 	O 	0.89480 0.81260 0.23170 -0.45500
C 	C 	0.81330 0.81060 0.24050 0.35100
C 	C 	0.78120 0.77860 0.27540 -0.17700
C 	C 	0.83620 0.74380 0.29560 0.50600
C 	C 	0.69410 0.78400 0.28820 -0.22100
C 	C 	0.80400 0.71450 0.32850 -0.22100
N 	N 	0.92270 0.73570 0.28340 0.59300
C 	C 	0.66190 0.75470 0.32120 0.51500
H 	H 	0.65650 0.80780 0.27440 0.13600
H 	H 	0.84150 0.69080 0.34230 0.14600
C 	C 	0.71680 0.72000 0.34135 -0.17800
H 	H 	0.95500 0.71270 0.29640 -0.08200
H 	H 	0.94540 0.75350 0.26260 -0.03900
H 	H 	0.60230 0.75840 0.33000 -0.70600
C 	C 	0.68510 0.68700 0.37670 0.36400
H 	H 	0.60430 0.99010 0.03680 -0.68200
N 	N 	0.92400 0.01400 0.08390 0.62100
H 	H 	0.95520 0.03810 0.07110 -0.10000
H 	H 	0.94710 0.99670 0.10460 -0.04500
O 	O 	0.48870 0.33810 0.14825 -0.43800
O 	O 	0.35420 0.31600 0.13430 -0.45200
O 	O 	0.48910 0.41090 0.22020 -0.43500
O 	O 	0.35520 0.43740 0.23170 -0.45500
C 	C 	0.43670 0.43940 0.24050 0.35100
C 	C 	0.46880 0.47140 0.27540 -0.17700
C 	C 	0.41380 0.50620 0.29560 0.50600
C 	C 	0.55590 0.46600 0.28820 -0.22100
C 	C 	0.44600 0.53550 0.32850 -0.22100
N 	N 	0.32730 0.51430 0.28340 0.59300
C 	C 	0.58810 0.49530 0.32120 0.51500
H 	H 	0.59350 0.44220 0.27440 0.13600
H 	H 	0.40850 0.55920 0.34230 0.14600
C 	C 	0.53320 0.53000 0.34135 -0.17800
H 	H 	0.29500 0.53730 0.29640 -0.08200
H 	H 	0.30460 0.49650 0.26260 -0.03900
H 	H 	0.64770 0.49160 0.33000 -0.70600
C 	C 	0.56490 0.56300 0.37670 0.36400
H 	H 	0.64570 0.25990 0.03680 -0.68300
N 	N 	0.32600 0.23600 0.08390 0.62000
H 	H 	0.29480 0.21190 0.07110 -0.10000
H 	H 	0.30290 0.25330 0.10460 -0.04500
O 	O 	0.48870 0.83810 0.64825 -0.43800
O 	O 	0.35420 0.81600 0.63430 -0.45200
O 	O 	0.48910 0.91090 0.72020 -0.43500
O 	O 	0.35520 0.93740 0.73170 -0.45500
C 	C 	0.43670 0.93940 0.74050 0.35100
C 	C 	0.46880 0.97140 0.77540 -0.17700
C 	C 	0.41380 0.00620 0.79560 0.50600
C 	C 	0.55590 0.96600 0.78820 -0.22100
C 	C 	0.44600 0.03550 0.82850 -0.22100
N 	N 	0.32730 0.01430 0.78340 0.59300
C 	C 	0.58810 0.99530 0.82120 0.51500
H 	H 	0.59350 0.94220 0.77440 0.13600
H 	H 	0.40850 0.05920 0.84230 0.14600
C 	C 	0.53320 0.03000 0.84135 -0.17800
H 	H 	0.29500 0.03730 0.79640 -0.08200
H 	H 	0.30460 0.99650 0.76260 -0.03900
H 	H 	0.64770 0.99160 0.83000 -0.70600
C 	C 	0.56490 0.06300 0.87670 0.36400
H 	H 	0.64570 0.75990 0.53680 -0.68300
N 	N 	0.32600 0.73600 0.58390 0.62000
H 	H 	0.29480 0.71190 0.57110 -0.10000
H 	H 	0.30290 0.75330 0.60460 -0.04600
O 	O 	0.98870 0.33810 0.64825 -0.43900
O 	O 	0.85420 0.31600 0.63430 -0.45200
O 	O 	0.98910 0.41090 0.72020 -0.43500
O 	O 	0.85520 0.43740 0.73170 -0.45500
C 	C 	0.93670 0.43940 0.74050 0.35100
C 	C 	0.96880 0.47140 0.77540 -0.17700
C 	C 	0.91380 0.50620 0.79560 0.50600
C 	C 	0.05590 0.46600 0.78820 -0.22100
C 	C 	0.94600 0.53550 0.82850 -0.22100
N 	N 	0.82730 0.51430 0.78340 0.59300
C 	C 	0.08810 0.49530 0.82120 0.51500
H 	H 	0.09350 0.44220 0.77440 0.13600
H 	H 	0.90850 0.55920 0.84230 0.14600
C 	C 	0.03320 0.53000 0.84135 -0.17800
H 	H 	0.79500 0.53730 0.79640 -0.08200
H 	H 	0.80460 0.49650 0.76260 -0.03900
H 	H 	0.14770 0.49160 0.83000 -0.70600
C 	C 	0.06490 0.56300 0.87670 0.36400
H 	H 	0.14570 0.25990 0.53680 -0.68300
N 	N 	0.82600 0.23600 0.58390 0.61900
H 	H 	0.79480 0.21190 0.57110 -0.10000
H 	H 	0.80290 0.25330 0.60460 -0.04500
O 	O 	0.98870 0.83810 0.14825 -0.43800
O 	O 	0.85420 0.81600 0.13430 -0.45200
O 	O 	0.98910 0.91090 0.22020 -0.43500
O 	O 	0.85520 0.93740 0.23170 -0.45500
C 	C 	0.93670 0.93940 0.24050 0.35000
C 	C 	0.96880 0.97140 0.27540 -0.17500
C 	C 	0.91380 0.00620 0.29560 0.50600
C 	C 	0.05590 0.96600 0.28820 -0.22300
C 	C 	0.94600 0.03550 0.32850 -0.22300
N 	N 	0.82730 0.01430 0.28340 0.59400
C 	C 	0.08810 0.99530 0.32120 0.51500
H 	H 	0.09350 0.94220 0.27440 0.13600
H 	H 	0.90850 0.05920 0.34230 0.14600
C 	C 	0.03320 0.03000 0.34135 -0.17600
H 	H 	0.79500 0.03730 0.29640 -0.08200
H 	H 	0.80460 0.99650 0.26260 -0.03800
H 	H 	0.14770 0.99160 0.33000 -0.70800
C 	C 	0.06490 0.06300 0.37670 0.36400
H 	H 	0.14570 0.75990 0.03680 -0.68300
N 	N 	0.82600 0.73600 0.08390 0.62000
H 	H 	0.79480 0.71190 0.07110 -0.10000
H 	H 	0.80290 0.75330 0.10460 -0.04600
O 	O 	0.51130 0.58810 0.39825 -0.43800
O 	O 	0.64580 0.56600 0.38430 -0.45200
O 	O 	0.51090 0.66090 0.47020 -0.43500
O 	O 	0.64480 0.68740 0.48170 -0.45500
C 	C 	0.56330 0.68940 0.49050 0.35100
C 	C 	0.53120 0.72140 0.52540 -0.17700
C 	C 	0.58620 0.75620 0.54560 0.50600
C 	C 	0.44410 0.71600 0.53820 -0.22100
C 	C 	0.55400 0.78550 0.57850 -0.22100
N 	N 	0.67270 0.76430 0.53340 0.59300
C 	C 	0.41190 0.74530 0.57120 0.51500
H 	H 	0.40650 0.69220 0.52440 0.13600
H 	H 	0.59150 0.80920 0.59230 0.14600
C 	C 	0.46680 0.78000 0.59135 -0.17800
H 	H 	0.70500 0.78730 0.54640 -0.08200
H 	H 	0.69540 0.74650 0.51260 -0.03900
H 	H 	0.35230 0.74160 0.58000 -0.70600
C 	C 	0.43510 0.81300 0.62670 0.36400
H 	H 	0.35430 0.50990 0.28680 -0.68300
N 	N 	0.67400 0.48600 0.33390 0.62000
H 	H 	0.70520 0.46190 0.32110 -0.10000
H 	H 	0.69710 0.50330 0.35460 -0.04600
O 	O 	0.51130 0.08810 0.89825 -0.43800
O 	O 	0.64580 0.06600 0.88430 -0.45200
O 	O 	0.51090 0.16090 0.97020 -0.43500
O 	O 	0.64480 0.18740 0.98170 -0.45500
C 	C 	0.56330 0.18940 0.99050 0.35100
C 	C 	0.53120 0.22140 0.02540 -0.17700
C 	C 	0.58620 0.25620 0.04560 0.50600
C 	C 	0.44410 0.21600 0.03820 -0.22100
C 	C 	0.55400 0.28550 0.07850 -0.22100
N 	N 	0.67270 0.26430 0.03340 0.59300
C 	C 	0.41190 0.24530 0.07120 0.51500
H 	H 	0.40650 0.19220 0.02440 0.13600
H 	H 	0.59150 0.30920 0.09230 0.14600
C 	C 	0.46680 0.28000 0.09135 -0.17800
H 	H 	0.70500 0.28730 0.04640 -0.08200
H 	H 	0.69540 0.24650 0.01260 -0.03900
H 	H 	0.35230 0.24160 0.08000 -0.70600
C 	C 	0.43510 0.31300 0.12670 0.36400
H 	H 	0.35430 0.00990 0.78680 -0.68200
N 	N 	0.67400 0.98600 0.83390 0.61900
H 	H 	0.70520 0.96190 0.82110 -0.10000
H 	H 	0.69710 0.00330 0.85460 -0.04600
O 	O 	0.01130 0.58810 0.89825 -0.43900
O 	O 	0.14580 0.56600 0.88430 -0.45200
O 	O 	0.01090 0.66090 0.97020 -0.43500
O 	O 	0.14480 0.68740 0.98170 -0.45500
C 	C 	0.06330 0.68940 0.99050 0.35100
C 	C 	0.03120 0.72140 0.02540 -0.17800
C 	C 	0.08620 0.75620 0.04560 0.50700
C 	C 	0.94410 0.71600 0.03820 -0.22000
C 	C 	0.05400 0.78550 0.07850 -0.22200
N 	N 	0.17270 0.76430 0.03340 0.59300
C 	C 	0.91190 0.74530 0.07120 0.51500
H 	H 	0.90650 0.69220 0.02440 0.13600
H 	H 	0.09150 0.80920 0.09230 0.14600
C 	C 	0.96680 0.78000 0.09135 -0.17700
H 	H 	0.20500 0.78730 0.04640 -0.08200
H 	H 	0.19540 0.74650 0.01260 -0.03800
H 	H 	0.85230 0.74160 0.08000 -0.70700
C 	C 	0.93510 0.81300 0.12670 0.36400
H 	H 	0.85430 0.50990 0.78680 -0.68300
N 	N 	0.17400 0.48600 0.83390 0.62000
H 	H 	0.20520 0.46190 0.82110 -0.10000
H 	H 	0.19710 0.50330 0.85460 -0.04600
O 	O 	0.01130 0.08810 0.39825 -0.43800
O 	O 	0.14580 0.06600 0.38430 -0.45200
O 	O 	0.01090 0.16090 0.47020 -0.43500
O 	O 	0.14480 0.18740 0.48170 -0.45500
C 	C 	0.06330 0.18940 0.49050 0.35000
C 	C 	0.03120 0.22140 0.52540 -0.17600
C 	C 	0.08620 0.25620 0.54560 0.50600
C 	C 	0.94410 0.21600 0.53820 -0.22300
C 	C 	0.05400 0.28550 0.57850 -0.22000
N 	N 	0.17270 0.26430 0.53340 0.59400
C 	C 	0.91190 0.24530 0.57120 0.51600
H 	H 	0.90650 0.19220 0.52440 0.13600
H 	H 	0.09150 0.30920 0.59230 0.14600
C 	C 	0.96680 0.28000 0.59135 -0.17900
H 	H 	0.20500 0.28730 0.54640 -0.08200
H 	H 	0.19540 0.24650 0.51260 -0.03900
H 	H 	0.85230 0.24160 0.58000 -0.70600
C 	C 	0.93510 0.31300 0.62670 0.36400
H 	H 	0.85430 0.00990 0.28680 -0.68400
N 	N 	0.17400 0.98600 0.33390 0.62100
H 	H 	0.20520 0.96190 0.32110 -0.10000
H 	H 	0.19710 0.00330 0.35460 -0.04500
O 	O 	0.73870 0.66190 0.39825 -0.43800
O 	O 	0.60420 0.68400 0.38430 -0.45200
O 	O 	0.73910 0.58910 0.47020 -0.43500
O 	O 	0.60520 0.56260 0.48170 -0.45500
C 	C 	0.68670 0.56060 0.49050 0.35100
C 	C 	0.71880 0.52860 0.52540 -0.17700
C 	C 	0.66380 0.49380 0.54560 0.50600
C 	C 	0.80590 0.53400 0.53820 -0.22100
C 	C 	0.69600 0.46450 0.57850 -0.22100
N 	N 	0.57730 0.48570 0.53340 0.59300
C 	C 	0.83810 0.50470 0.57120 0.51500
H 	H 	0.84350 0.55780 0.52440 0.13600
H 	H 	0.65850 0.44080 0.59230 0.14600
C 	C 	0.78320 0.47000 0.59135 -0.17800
H 	H 	0.54500 0.46270 0.54640 -0.08200
H 	H 	0.55460 0.50350 0.51260 -0.03900
H 	H 	0.89770 0.50840 0.58000 -0.70600
C 	C 	0.81490 0.43700 0.62670 0.36400
H 	H 	0.89570 0.74010 0.28680 -0.68300
N 	N 	0.57600 0.76400 0.33390 0.62000
H 	H 	0.54480 0.78810 0.32110 -0.10000
H 	H 	0.55290 0.74670 0.35460 -0.04500
O 	O 	0.73870 0.16190 0.89825 -0.43900
O 	O 	0.60420 0.18400 0.88430 -0.45200
O 	O 	0.73910 0.08910 0.97020 -0.43500
O 	O 	0.60520 0.06260 0.98170 -0.45500
C 	C 	0.68670 0.06060 0.99050 0.35100
C 	C 	0.71880 0.02860 0.02540 -0.17700
C 	C 	0.66380 0.99380 0.04560 0.50700
C 	C 	0.80590 0.03400 0.03820 -0.22100
C 	C 	0.69600 0.96450 0.07850 -0.22100
N 	N 	0.57730 0.98570 0.03340 0.59200
C 	C 	0.83810 0.00470 0.07120 0.51500
H 	H 	0.84350 0.05780 0.02440 0.13600
H 	H 	0.65850 0.94080 0.09230 0.14600
C 	C 	0.78320 0.97000 0.09135 -0.17700
H 	H 	0.54500 0.96270 0.04640 -0.08200
H 	H 	0.55460 0.00350 0.01260 -0.03800
H 	H 	0.89770 0.00840 0.08000 -0.70800
C 	C 	0.81490 0.93700 0.12670 0.36400
H 	H 	0.89570 0.24010 0.78680 -0.68300
N 	N 	0.57600 0.26400 0.83390 0.62000
H 	H 	0.54480 0.28810 0.82110 -0.10000
H 	H 	0.55290 0.24670 0.85460 -0.04500
O 	O 	0.23870 0.66190 0.89825 -0.43800
O 	O 	0.10420 0.68400 0.88430 -0.45200
O 	O 	0.23910 0.58910 0.97020 -0.43500
O 	O 	0.10520 0.56260 0.98170 -0.45500
C 	C 	0.18670 0.56060 0.99050 0.35100
C 	C 	0.21880 0.52860 0.02540 -0.17700
C 	C 	0.16380 0.49380 0.04560 0.50600
C 	C 	0.30590 0.53400 0.03820 -0.22100
C 	C 	0.19600 0.46450 0.07850 -0.22100
N 	N 	0.07730 0.48570 0.03340 0.59300
C 	C 	0.33810 0.50470 0.07120 0.51500
H 	H 	0.34350 0.55780 0.02440 0.13600
H 	H 	0.15850 0.44080 0.09230 0.14600
C 	C 	0.28320 0.47000 0.09135 -0.17800
H 	H 	0.04500 0.46270 0.04640 -0.08200
H 	H 	0.05460 0.50350 0.01260 -0.03900
H 	H 	0.39770 0.50840 0.08000 -0.70600
C 	C 	0.31490 0.43700 0.12670 0.36400
H 	H 	0.39570 0.74010 0.78680 -0.68300
N 	N 	0.07600 0.76400 0.83390 0.62000
H 	H 	0.04480 0.78810 0.82110 -0.10000
H 	H 	0.05290 0.74670 0.85460 -0.04600
O 	O 	0.23870 0.16190 0.39825 -0.43800
O 	O 	0.10420 0.18400 0.38430 -0.45200
O 	O 	0.23910 0.08910 0.47020 -0.43500
O 	O 	0.10520 0.06260 0.48170 -0.45500
C 	C 	0.18670 0.06060 0.49050 0.35000
C 	C 	0.21880 0.02860 0.52540 -0.17600
C 	C 	0.16380 0.99380 0.54560 0.50600
C 	C 	0.30590 0.03400 0.53820 -0.22200
C 	C 	0.19600 0.96450 0.57850 -0.22100
N 	N 	0.07730 0.98570 0.53340 0.59400
C 	C 	0.33810 0.00470 0.57120 0.51600
H 	H 	0.34350 0.05780 0.52440 0.13600
H 	H 	0.15850 0.94080 0.59230 0.14600
C 	C 	0.28320 0.97000 0.59135 -0.17800
H 	H 	0.04500 0.96270 0.54640 -0.08300
H 	H 	0.05460 0.00350 0.51260 -0.03800
H 	H 	0.39770 0.00840 0.58000 -0.70600
C 	C 	0.31490 0.93700 0.62670 0.36400
H 	H 	0.39570 0.24010 0.28680 -0.68300
N 	N 	0.07600 0.26400 0.33390 0.62000
H 	H 	0.04480 0.28810 0.32110 -0.10000
H 	H 	0.05290 0.24670 0.35460 -0.04600
In	In	0.37500 0.37500 0.18440 2.00200
In	In	0.37500 0.87500 0.68440 2.00200
In	In	0.87500 0.37500 0.68440 2.00200
In	In	0.87500 0.87500 0.18440 2.00200
In	In	0.62500 0.62500 0.43440 2.00200
In	In	0.62500 0.12500 0.93440 2.00200
In	In	0.12500 0.62500 0.93440 2.00200
In	In	0.12500 0.12500 0.43440 2.00200
