data_crystal

_cell_length_a 15.30690
_cell_length_b 26.94670
_cell_length_c 31.28400
_cell_angle_alpha 90.00000
_cell_angle_beta  90.00000
_cell_angle_gamma 90.00000

_symmetry_space_group_name_	'P 1'
_symmetry_space_group_name_H-M	'P 1'

loop_
_symmetry_equiv_pos_as_xyz
  x,y,z

loop_
_atom_site_label
_atom_site_type_symbol
_atom_site_fract_x
_atom_site_fract_y
_atom_site_fract_z
_atom_site_charge
O 	O 	0.39630 0.43611 0.01764 -0.47000
O 	O 	0.26280 0.41161 0.02976 -0.43800
O 	O 	0.10400 0.56777 0.86779 -0.43100
O 	O 	0.23830 0.58756 0.85149 -0.43400
C 	C 	0.31510 0.43843 0.00915 0.32700
C 	C 	0.28320 0.47200 0.97485 -0.11900
C 	C 	0.21790 0.53200 0.90974 -0.02400
C 	C 	0.18510 0.56419 0.87438 0.28400
N 	N 	0.42110 0.52060 0.97050 -0.12800
H 	H 	0.44250 0.49420 0.98380 0.13600
H 	H 	0.45450 0.52720 0.94810 0.19500
C 	C 	0.33690 0.51110 0.95750 0.07900
C 	C 	0.19760 0.46340 0.95880 0.02000
H 	H 	0.16390 0.43700 0.97030 0.02400
C 	C 	0.30170 0.54100 0.92490 -0.04400
H 	H 	0.33530 0.56740 0.91320 0.05800
C 	C 	0.16190 0.49290 0.92640 -0.00800
H 	H 	0.10440 0.48760 0.91600 0.02800
N 	N 	0.43240 0.50010 0.95420 -0.31200
H 	H 	0.44970 0.47780 0.97310 0.07800
H 	H 	0.46090 0.49530 0.93000 0.10300
C 	C 	0.34110 0.49820 0.94940 0.06600
C 	C 	0.30610 0.52790 0.91690 -0.04900
H 	H 	0.34500 0.54600 0.89910 0.04300
C 	C 	0.16000 0.50540 0.93490 -0.03800
H 	H 	0.09880 0.50750 0.93040 0.05200
C 	C 	0.19480 0.47530 0.96760 -0.01200
H 	H 	0.15610 0.45670 0.98500 0.04100
O 	O 	0.39630 0.93611 0.51764 -0.47000
O 	O 	0.26280 0.91161 0.52976 -0.43800
O 	O 	0.10400 0.06777 0.36779 -0.43100
O 	O 	0.23830 0.08756 0.35149 -0.43400
C 	C 	0.31510 0.93843 0.50915 0.32700
C 	C 	0.28320 0.97200 0.47485 -0.11900
C 	C 	0.21790 0.03200 0.40974 -0.02400
C 	C 	0.18510 0.06419 0.37438 0.28400
N 	N 	0.42110 0.02060 0.47050 -0.12800
H 	H 	0.44250 0.99420 0.48380 0.13600
H 	H 	0.45450 0.02720 0.44810 0.19500
C 	C 	0.33690 0.01110 0.45750 0.07900
C 	C 	0.19760 0.96340 0.45880 0.02000
H 	H 	0.16390 0.93700 0.47030 0.02400
C 	C 	0.30170 0.04100 0.42490 -0.04400
H 	H 	0.33530 0.06740 0.41320 0.05800
C 	C 	0.16190 0.99290 0.42640 -0.00800
H 	H 	0.10440 0.98760 0.41600 0.02800
N 	N 	0.43240 0.00010 0.45420 -0.31200
H 	H 	0.44970 0.97780 0.47310 0.07800
H 	H 	0.46090 0.99530 0.43000 0.10300
C 	C 	0.34110 0.99820 0.44940 0.06600
C 	C 	0.30610 0.02790 0.41690 -0.04900
H 	H 	0.34500 0.04600 0.39910 0.04300
C 	C 	0.16000 0.00540 0.43490 -0.03700
H 	H 	0.09880 0.00750 0.43040 0.05100
C 	C 	0.19480 0.97530 0.46760 -0.01300
H 	H 	0.15610 0.95670 0.48500 0.04000
O 	O 	0.89630 0.43611 0.51764 -0.47100
O 	O 	0.76280 0.41161 0.52976 -0.43900
O 	O 	0.60400 0.56777 0.36779 -0.43200
O 	O 	0.73830 0.58756 0.35149 -0.43500
C 	C 	0.81510 0.43843 0.50915 0.32600
C 	C 	0.78320 0.47200 0.47485 -0.12000
C 	C 	0.71790 0.53200 0.40974 -0.02500
C 	C 	0.68510 0.56419 0.37438 0.28300
N 	N 	0.92110 0.52060 0.47050 -0.12900
H 	H 	0.94250 0.49420 0.48380 0.13500
H 	H 	0.95450 0.52720 0.44810 0.19400
C 	C 	0.83690 0.51110 0.45750 0.07800
C 	C 	0.69760 0.46340 0.45880 0.01900
H 	H 	0.66390 0.43700 0.47030 0.02300
C 	C 	0.80170 0.54100 0.42490 -0.04500
H 	H 	0.83530 0.56740 0.41320 0.05700
C 	C 	0.66190 0.49290 0.42640 -0.00900
H 	H 	0.60440 0.48760 0.41600 0.02700
N 	N 	0.93240 0.50010 0.45420 -0.31300
H 	H 	0.94970 0.47780 0.47310 0.07700
H 	H 	0.96090 0.49530 0.43000 0.10200
C 	C 	0.84110 0.49820 0.44940 0.06600
C 	C 	0.80610 0.52790 0.41690 -0.05000
H 	H 	0.84500 0.54600 0.39910 0.04200
C 	C 	0.66000 0.50540 0.43490 -0.03900
H 	H 	0.59880 0.50750 0.43040 0.05100
C 	C 	0.69480 0.47530 0.46760 -0.01300
H 	H 	0.65610 0.45670 0.48500 0.04000
O 	O 	0.89630 0.93611 0.01764 -0.47100
O 	O 	0.76280 0.91161 0.02976 -0.43900
O 	O 	0.60400 0.06777 0.86779 -0.43200
O 	O 	0.73830 0.08756 0.85149 -0.43500
C 	C 	0.81510 0.93843 0.00915 0.32600
C 	C 	0.78320 0.97200 0.97485 -0.12100
C 	C 	0.71790 0.03200 0.90974 -0.02400
C 	C 	0.68510 0.06419 0.87438 0.28300
N 	N 	0.92110 0.02060 0.97050 -0.12900
H 	H 	0.94250 0.99420 0.98380 0.13500
H 	H 	0.95450 0.02720 0.94810 0.19400
C 	C 	0.83690 0.01110 0.95750 0.07600
C 	C 	0.69760 0.96340 0.95880 0.01900
H 	H 	0.66390 0.93700 0.97030 0.02300
C 	C 	0.80170 0.04100 0.92490 -0.04500
H 	H 	0.83530 0.06740 0.91320 0.05700
C 	C 	0.66190 0.99290 0.92640 -0.00800
H 	H 	0.60440 0.98760 0.91600 0.02600
N 	N 	0.93240 0.00010 0.95420 -0.31300
H 	H 	0.94970 0.97780 0.97310 0.07700
H 	H 	0.96090 0.99530 0.93000 0.10200
C 	C 	0.84110 0.99820 0.94940 0.06800
C 	C 	0.80610 0.02790 0.91690 -0.04900
H 	H 	0.84500 0.04600 0.89910 0.04200
C 	C 	0.66000 0.00540 0.93490 -0.04000
H 	H 	0.59880 0.00750 0.93040 0.05100
C 	C 	0.69480 0.97530 0.96760 -0.01300
H 	H 	0.65610 0.95670 0.98500 0.04000
O 	O 	0.35370 0.31389 0.01764 -0.47100
O 	O 	0.48720 0.33839 0.02976 -0.43900
O 	O 	0.64600 0.18223 0.86779 -0.43200
O 	O 	0.51170 0.16244 0.85149 -0.43500
C 	C 	0.43490 0.31157 0.00915 0.32600
C 	C 	0.46680 0.27800 0.97485 -0.12000
C 	C 	0.53210 0.21800 0.90974 -0.02500
C 	C 	0.56490 0.18581 0.87438 0.28300
N 	N 	0.32890 0.22940 0.97050 -0.12900
H 	H 	0.30750 0.25580 0.98380 0.13500
H 	H 	0.29550 0.22280 0.94810 0.19400
C 	C 	0.41310 0.23890 0.95750 0.07800
C 	C 	0.55240 0.28660 0.95880 0.01900
H 	H 	0.58610 0.31300 0.97030 0.02300
C 	C 	0.44830 0.20900 0.92490 -0.04500
H 	H 	0.41470 0.18260 0.91320 0.05700
C 	C 	0.58810 0.25710 0.92640 -0.00900
H 	H 	0.64560 0.26240 0.91600 0.02700
N 	N 	0.31760 0.24990 0.95420 -0.31300
H 	H 	0.30030 0.27220 0.97310 0.07700
H 	H 	0.28910 0.25470 0.93000 0.10200
C 	C 	0.40890 0.25180 0.94940 0.06600
C 	C 	0.44390 0.22210 0.91690 -0.05000
H 	H 	0.40500 0.20400 0.89910 0.04200
C 	C 	0.59000 0.24460 0.93490 -0.03900
H 	H 	0.65120 0.24250 0.93040 0.05100
C 	C 	0.55520 0.27470 0.96760 -0.01300
H 	H 	0.59390 0.29330 0.98500 0.04000
O 	O 	0.35370 0.81389 0.51764 -0.47100
O 	O 	0.48720 0.83839 0.52976 -0.43900
O 	O 	0.64600 0.68223 0.36779 -0.43200
O 	O 	0.51170 0.66244 0.35149 -0.43500
C 	C 	0.43490 0.81157 0.50915 0.32600
C 	C 	0.46680 0.77800 0.47485 -0.12000
C 	C 	0.53210 0.71800 0.40974 -0.02500
C 	C 	0.56490 0.68581 0.37438 0.28300
N 	N 	0.32890 0.72940 0.47050 -0.12900
H 	H 	0.30750 0.75580 0.48380 0.13500
H 	H 	0.29550 0.72280 0.44810 0.19400
C 	C 	0.41310 0.73890 0.45750 0.07800
C 	C 	0.55240 0.78660 0.45880 0.01900
H 	H 	0.58610 0.81300 0.47030 0.02300
C 	C 	0.44830 0.70900 0.42490 -0.04500
H 	H 	0.41470 0.68260 0.41320 0.05700
C 	C 	0.58810 0.75710 0.42640 -0.00900
H 	H 	0.64560 0.76240 0.41600 0.02700
N 	N 	0.31760 0.74990 0.45420 -0.31300
H 	H 	0.30030 0.77220 0.47310 0.07700
H 	H 	0.28910 0.75470 0.43000 0.10200
C 	C 	0.40890 0.75180 0.44940 0.06500
C 	C 	0.44390 0.72210 0.41690 -0.05000
H 	H 	0.40500 0.70400 0.39910 0.04200
C 	C 	0.59000 0.74460 0.43490 -0.03900
H 	H 	0.65120 0.74250 0.43040 0.05100
C 	C 	0.55520 0.77470 0.46760 -0.01300
H 	H 	0.59390 0.79330 0.48500 0.04000
O 	O 	0.85370 0.31389 0.51764 -0.47100
O 	O 	0.98720 0.33839 0.52976 -0.43900
O 	O 	0.14600 0.18223 0.36779 -0.43200
O 	O 	0.01170 0.16244 0.35149 -0.43500
C 	C 	0.93490 0.31157 0.50915 0.32600
C 	C 	0.96680 0.27800 0.47485 -0.12000
C 	C 	0.03210 0.21800 0.40974 -0.02500
C 	C 	0.06490 0.18581 0.37438 0.28300
N 	N 	0.82890 0.22940 0.47050 -0.12900
H 	H 	0.80750 0.25580 0.48380 0.13500
H 	H 	0.79550 0.22280 0.44810 0.19400
C 	C 	0.91310 0.23890 0.45750 0.07800
C 	C 	0.05240 0.28660 0.45880 0.01900
H 	H 	0.08610 0.31300 0.47030 0.02300
C 	C 	0.94830 0.20900 0.42490 -0.04500
H 	H 	0.91470 0.18260 0.41320 0.05700
C 	C 	0.08810 0.25710 0.42640 -0.00900
H 	H 	0.14560 0.26240 0.41600 0.02700
N 	N 	0.81760 0.24990 0.45420 -0.31300
H 	H 	0.80030 0.27220 0.47310 0.07700
H 	H 	0.78910 0.25470 0.43000 0.10200
C 	C 	0.90890 0.25180 0.44940 0.06500
C 	C 	0.94390 0.22210 0.41690 -0.05000
H 	H 	0.90500 0.20400 0.39910 0.04200
C 	C 	0.09000 0.24460 0.43490 -0.03900
H 	H 	0.15120 0.24250 0.43040 0.05100
C 	C 	0.05520 0.27470 0.46760 -0.01300
H 	H 	0.09390 0.29330 0.48500 0.04000
O 	O 	0.85370 0.81389 0.01764 -0.47100
O 	O 	0.98720 0.83839 0.02976 -0.43900
O 	O 	0.14600 0.68223 0.86779 -0.43200
O 	O 	0.01170 0.66244 0.85149 -0.43500
C 	C 	0.93490 0.81157 0.00915 0.32600
C 	C 	0.96680 0.77800 0.97485 -0.12100
C 	C 	0.03210 0.71800 0.90974 -0.02500
C 	C 	0.06490 0.68581 0.87438 0.28300
N 	N 	0.82890 0.72940 0.97050 -0.12900
H 	H 	0.80750 0.75580 0.98380 0.13500
H 	H 	0.79550 0.72280 0.94810 0.19400
C 	C 	0.91310 0.73890 0.95750 0.07800
C 	C 	0.05240 0.78660 0.95880 0.01900
H 	H 	0.08610 0.81300 0.97030 0.02300
C 	C 	0.94830 0.70900 0.92490 -0.04500
H 	H 	0.91470 0.68260 0.91320 0.05700
C 	C 	0.08810 0.75710 0.92640 -0.00900
H 	H 	0.14560 0.76240 0.91600 0.02700
N 	N 	0.81760 0.74990 0.95420 -0.31300
H 	H 	0.80030 0.77220 0.97310 0.07700
H 	H 	0.78910 0.75470 0.93000 0.10200
C 	C 	0.90890 0.75180 0.94940 0.06600
C 	C 	0.94390 0.72210 0.91690 -0.05000
H 	H 	0.90500 0.70400 0.89910 0.04200
C 	C 	0.09000 0.74460 0.93490 -0.03900
H 	H 	0.15120 0.74250 0.93040 0.05100
C 	C 	0.05520 0.77470 0.96760 -0.01300
H 	H 	0.09390 0.79330 0.98500 0.04000
O 	O 	0.64630 0.56389 0.26764 -0.47100
O 	O 	0.51280 0.58839 0.27976 -0.43900
O 	O 	0.35400 0.43223 0.11779 -0.43200
O 	O 	0.48830 0.41244 0.10149 -0.43500
C 	C 	0.56510 0.56157 0.25915 0.32600
C 	C 	0.53320 0.52800 0.22485 -0.12000
C 	C 	0.46790 0.46800 0.15974 -0.02500
C 	C 	0.43510 0.43581 0.12438 0.28300
N 	N 	0.67110 0.47940 0.22050 -0.12900
H 	H 	0.69250 0.50580 0.23380 0.13500
H 	H 	0.70450 0.47280 0.19810 0.19400
C 	C 	0.58690 0.48890 0.20750 0.07800
C 	C 	0.44760 0.53660 0.20880 0.01900
H 	H 	0.41390 0.56300 0.22030 0.02300
C 	C 	0.55170 0.45900 0.17490 -0.04500
H 	H 	0.58530 0.43260 0.16320 0.05700
C 	C 	0.41190 0.50710 0.17640 -0.00900
H 	H 	0.35440 0.51240 0.16600 0.02700
N 	N 	0.68240 0.49990 0.20420 -0.31300
H 	H 	0.69970 0.52220 0.22310 0.07700
H 	H 	0.71090 0.50470 0.18000 0.10200
C 	C 	0.59110 0.50180 0.19940 0.06500
C 	C 	0.55610 0.47210 0.16690 -0.05000
H 	H 	0.59500 0.45400 0.14910 0.04200
C 	C 	0.41000 0.49460 0.18490 -0.03900
H 	H 	0.34880 0.49250 0.18040 0.05100
C 	C 	0.44480 0.52470 0.21760 -0.01300
H 	H 	0.40610 0.54330 0.23500 0.04000
O 	O 	0.64630 0.06389 0.76764 -0.47100
O 	O 	0.51280 0.08839 0.77976 -0.43900
O 	O 	0.35400 0.93223 0.61779 -0.43200
O 	O 	0.48830 0.91244 0.60149 -0.43500
C 	C 	0.56510 0.06157 0.75915 0.32600
C 	C 	0.53320 0.02800 0.72485 -0.12000
C 	C 	0.46790 0.96800 0.65974 -0.02500
C 	C 	0.43510 0.93581 0.62438 0.28300
N 	N 	0.67110 0.97940 0.72050 -0.12900
H 	H 	0.69250 0.00580 0.73380 0.13600
H 	H 	0.70450 0.97280 0.69810 0.19400
C 	C 	0.58690 0.98890 0.70750 0.07900
C 	C 	0.44760 0.03660 0.70880 0.01900
H 	H 	0.41390 0.06300 0.72030 0.02300
C 	C 	0.55170 0.95900 0.67490 -0.04500
H 	H 	0.58530 0.93260 0.66320 0.05700
C 	C 	0.41190 0.00710 0.67640 -0.00900
H 	H 	0.35440 0.01240 0.66600 0.02700
N 	N 	0.68240 0.99990 0.70420 -0.31400
H 	H 	0.69970 0.02220 0.72310 0.07700
H 	H 	0.71090 0.00470 0.68000 0.10200
C 	C 	0.59110 0.00180 0.69940 0.06500
C 	C 	0.55610 0.97210 0.66690 -0.05000
H 	H 	0.59500 0.95400 0.64910 0.04200
C 	C 	0.41000 0.99460 0.68490 -0.03900
H 	H 	0.34880 0.99250 0.68040 0.05000
C 	C 	0.44480 0.02470 0.71760 -0.01300
H 	H 	0.40610 0.04330 0.73500 0.04000
O 	O 	0.14630 0.56389 0.76764 -0.47100
O 	O 	0.01280 0.58839 0.77976 -0.43900
O 	O 	0.85400 0.43223 0.61779 -0.43200
O 	O 	0.98830 0.41244 0.60149 -0.43500
C 	C 	0.06510 0.56157 0.75915 0.32600
C 	C 	0.03320 0.52800 0.72485 -0.12000
C 	C 	0.96790 0.46800 0.65974 -0.02500
C 	C 	0.93510 0.43581 0.62438 0.28300
N 	N 	0.17110 0.47940 0.72050 -0.12900
H 	H 	0.19250 0.50580 0.73380 0.13500
H 	H 	0.20450 0.47280 0.69810 0.19400
C 	C 	0.08690 0.48890 0.70750 0.07800
C 	C 	0.94760 0.53660 0.70880 0.01900
H 	H 	0.91390 0.56300 0.72030 0.02300
C 	C 	0.05170 0.45900 0.67490 -0.04500
H 	H 	0.08530 0.43260 0.66320 0.05700
C 	C 	0.91190 0.50710 0.67640 -0.00900
H 	H 	0.85440 0.51240 0.66600 0.02700
N 	N 	0.18240 0.49990 0.70420 -0.31300
H 	H 	0.19970 0.52220 0.72310 0.07700
H 	H 	0.21090 0.50470 0.68000 0.10200
C 	C 	0.09110 0.50180 0.69940 0.06500
C 	C 	0.05610 0.47210 0.66690 -0.05000
H 	H 	0.09500 0.45400 0.64910 0.04200
C 	C 	0.91000 0.49460 0.68490 -0.03900
H 	H 	0.84880 0.49250 0.68040 0.05100
C 	C 	0.94480 0.52470 0.71760 -0.01300
H 	H 	0.90610 0.54330 0.73500 0.04000
O 	O 	0.14630 0.06389 0.26764 -0.47100
O 	O 	0.01280 0.08839 0.27976 -0.43900
O 	O 	0.85400 0.93223 0.11779 -0.43200
O 	O 	0.98830 0.91244 0.10149 -0.43500
C 	C 	0.06510 0.06157 0.25915 0.32600
C 	C 	0.03320 0.02800 0.22485 -0.12100
C 	C 	0.96790 0.96800 0.15974 -0.02500
C 	C 	0.93510 0.93581 0.12438 0.28300
N 	N 	0.17110 0.97940 0.22050 -0.12900
H 	H 	0.19250 0.00580 0.23380 0.13500
H 	H 	0.20450 0.97280 0.19810 0.19400
C 	C 	0.08690 0.98890 0.20750 0.07600
C 	C 	0.94760 0.03660 0.20880 0.01900
H 	H 	0.91390 0.06300 0.22030 0.02300
C 	C 	0.05170 0.95900 0.17490 -0.04500
H 	H 	0.08530 0.93260 0.16320 0.05700
C 	C 	0.91190 0.00710 0.17640 -0.00800
H 	H 	0.85440 0.01240 0.16600 0.02700
N 	N 	0.18240 0.99990 0.20420 -0.31300
H 	H 	0.19970 0.02220 0.22310 0.07700
H 	H 	0.21090 0.00470 0.18000 0.10200
C 	C 	0.09110 0.00180 0.19940 0.06700
C 	C 	0.05610 0.97210 0.16690 -0.05000
H 	H 	0.09500 0.95400 0.14910 0.04200
C 	C 	0.91000 0.99460 0.18490 -0.03900
H 	H 	0.84880 0.99250 0.18040 0.05100
C 	C 	0.94480 0.02470 0.21760 -0.01300
H 	H 	0.90610 0.04330 0.23500 0.04000
O 	O 	0.60370 0.68611 0.26764 -0.47100
O 	O 	0.73720 0.66161 0.27976 -0.43900
O 	O 	0.89600 0.81777 0.11779 -0.43200
O 	O 	0.76170 0.83756 0.10149 -0.43500
C 	C 	0.68490 0.68843 0.25915 0.32600
C 	C 	0.71680 0.72200 0.22485 -0.12000
C 	C 	0.78210 0.78200 0.15974 -0.02500
C 	C 	0.81490 0.81419 0.12438 0.28300
N 	N 	0.57890 0.77060 0.22050 -0.12900
H 	H 	0.55750 0.74420 0.23380 0.13500
H 	H 	0.54550 0.77720 0.19810 0.19400
C 	C 	0.66310 0.76110 0.20750 0.07800
C 	C 	0.80240 0.71340 0.20880 0.01900
H 	H 	0.83610 0.68700 0.22030 0.02300
C 	C 	0.69830 0.79100 0.17490 -0.04500
H 	H 	0.66470 0.81740 0.16320 0.05700
C 	C 	0.83810 0.74290 0.17640 -0.00900
H 	H 	0.89560 0.73760 0.16600 0.02700
N 	N 	0.56760 0.75010 0.20420 -0.31300
H 	H 	0.55030 0.72780 0.22310 0.07700
H 	H 	0.53910 0.74530 0.18000 0.10200
C 	C 	0.65890 0.74820 0.19940 0.06500
C 	C 	0.69390 0.77790 0.16690 -0.05000
H 	H 	0.65500 0.79600 0.14910 0.04200
C 	C 	0.84000 0.75540 0.18490 -0.03900
H 	H 	0.90120 0.75750 0.18040 0.05100
C 	C 	0.80520 0.72530 0.21760 -0.01300
H 	H 	0.84390 0.70670 0.23500 0.04000
O 	O 	0.60370 0.18611 0.76764 -0.47100
O 	O 	0.73720 0.16161 0.77976 -0.43900
O 	O 	0.89600 0.31777 0.61779 -0.43200
O 	O 	0.76170 0.33756 0.60149 -0.43500
C 	C 	0.68490 0.18843 0.75915 0.32600
C 	C 	0.71680 0.22200 0.72485 -0.12000
C 	C 	0.78210 0.28200 0.65974 -0.02500
C 	C 	0.81490 0.31419 0.62438 0.28300
N 	N 	0.57890 0.27060 0.72050 -0.12900
H 	H 	0.55750 0.24420 0.73380 0.13500
H 	H 	0.54550 0.27720 0.69810 0.19400
C 	C 	0.66310 0.26110 0.70750 0.07800
C 	C 	0.80240 0.21340 0.70880 0.01900
H 	H 	0.83610 0.18700 0.72030 0.02300
C 	C 	0.69830 0.29100 0.67490 -0.04500
H 	H 	0.66470 0.31740 0.66320 0.05700
C 	C 	0.83810 0.24290 0.67640 -0.00900
H 	H 	0.89560 0.23760 0.66600 0.02700
N 	N 	0.56760 0.25010 0.70420 -0.31300
H 	H 	0.55030 0.22780 0.72310 0.07700
H 	H 	0.53910 0.24530 0.68000 0.10200
C 	C 	0.65890 0.24820 0.69940 0.06500
C 	C 	0.69390 0.27790 0.66690 -0.05000
H 	H 	0.65500 0.29600 0.64910 0.04200
C 	C 	0.84000 0.25540 0.68490 -0.03900
H 	H 	0.90120 0.25750 0.68040 0.05100
C 	C 	0.80520 0.22530 0.71760 -0.01300
H 	H 	0.84390 0.20670 0.73500 0.04000
O 	O 	0.10370 0.68611 0.76764 -0.47100
O 	O 	0.23720 0.66161 0.77976 -0.43900
O 	O 	0.39600 0.81777 0.61779 -0.43200
O 	O 	0.26170 0.83756 0.60149 -0.43500
C 	C 	0.18490 0.68843 0.75915 0.32600
C 	C 	0.21680 0.72200 0.72485 -0.12000
C 	C 	0.28210 0.78200 0.65974 -0.02500
C 	C 	0.31490 0.81419 0.62438 0.28300
N 	N 	0.07890 0.77060 0.72050 -0.12900
H 	H 	0.05750 0.74420 0.73380 0.13500
H 	H 	0.04550 0.77720 0.69810 0.19400
C 	C 	0.16310 0.76110 0.70750 0.07800
C 	C 	0.30240 0.71340 0.70880 0.01900
H 	H 	0.33610 0.68700 0.72030 0.02300
C 	C 	0.19830 0.79100 0.67490 -0.04500
H 	H 	0.16470 0.81740 0.66320 0.05700
C 	C 	0.33810 0.74290 0.67640 -0.00900
H 	H 	0.39560 0.73760 0.66600 0.02700
N 	N 	0.06760 0.75010 0.70420 -0.31300
H 	H 	0.05030 0.72780 0.72310 0.07700
H 	H 	0.03910 0.74530 0.68000 0.10200
C 	C 	0.15890 0.74820 0.69940 0.06600
C 	C 	0.19390 0.77790 0.66690 -0.05000
H 	H 	0.15500 0.79600 0.64910 0.04200
C 	C 	0.34000 0.75540 0.68490 -0.03900
H 	H 	0.40120 0.75750 0.68040 0.05100
C 	C 	0.30520 0.72530 0.71760 -0.01300
H 	H 	0.34390 0.70670 0.73500 0.04000
O 	O 	0.10370 0.18611 0.26764 -0.47100
O 	O 	0.23720 0.16161 0.27976 -0.43900
O 	O 	0.39600 0.31777 0.11779 -0.43200
O 	O 	0.26170 0.33756 0.10149 -0.43500
C 	C 	0.18490 0.18843 0.25915 0.32600
C 	C 	0.21680 0.22200 0.22485 -0.12000
C 	C 	0.28210 0.28200 0.15974 -0.02500
C 	C 	0.31490 0.31419 0.12438 0.28300
N 	N 	0.07890 0.27060 0.22050 -0.12900
H 	H 	0.05750 0.24420 0.23380 0.13500
H 	H 	0.04550 0.27720 0.19810 0.19400
C 	C 	0.16310 0.26110 0.20750 0.07800
C 	C 	0.30240 0.21340 0.20880 0.01900
H 	H 	0.33610 0.18700 0.22030 0.02300
C 	C 	0.19830 0.29100 0.17490 -0.04500
H 	H 	0.16470 0.31740 0.16320 0.05700
C 	C 	0.33810 0.24290 0.17640 -0.00900
H 	H 	0.39560 0.23760 0.16600 0.02700
N 	N 	0.06760 0.25010 0.20420 -0.31300
H 	H 	0.05030 0.22780 0.22310 0.07700
H 	H 	0.03910 0.24530 0.18000 0.10200
C 	C 	0.15890 0.24820 0.19940 0.06600
C 	C 	0.19390 0.27790 0.16690 -0.05000
H 	H 	0.15500 0.29600 0.14910 0.04200
C 	C 	0.34000 0.25540 0.18490 -0.03900
H 	H 	0.40120 0.25750 0.18040 0.05100
C 	C 	0.30520 0.22530 0.21760 -0.01300
H 	H 	0.34390 0.20670 0.23500 0.04000
In	In	0.37500 0.37500 0.06570 1.99800
In	In	0.37500 0.87500 0.56570 1.99800
In	In	0.87500 0.37500 0.56570 1.99800
In	In	0.87500 0.87500 0.06570 1.99800
In	In	0.62500 0.62500 0.31570 1.99800
In	In	0.62500 0.12500 0.81570 1.99800
In	In	0.12500 0.62500 0.81570 1.99800
In	In	0.12500 0.12500 0.31570 1.99800
O 	O 	0.35370 0.43611 0.73236 -0.47100
O 	O 	0.48720 0.41161 0.72024 -0.43900
O 	O 	0.64600 0.56777 0.88221 -0.43200
O 	O 	0.51170 0.58756 0.89851 -0.43500
C 	C 	0.43490 0.43843 0.74085 0.32600
C 	C 	0.46680 0.47200 0.77515 -0.12000
C 	C 	0.53210 0.53200 0.84026 -0.02500
C 	C 	0.56490 0.56419 0.87562 0.28300
N 	N 	0.32890 0.52060 0.77950 -0.12900
H 	H 	0.30750 0.49420 0.76620 0.13500
H 	H 	0.29550 0.52720 0.80190 0.19400
C 	C 	0.41310 0.51110 0.79250 0.07800
C 	C 	0.55240 0.46340 0.79120 0.01900
H 	H 	0.58610 0.43700 0.77970 0.02300
C 	C 	0.44830 0.54100 0.82510 -0.04500
H 	H 	0.41470 0.56740 0.83680 0.05700
C 	C 	0.58810 0.49290 0.82360 -0.00900
H 	H 	0.64560 0.48760 0.83400 0.02700
N 	N 	0.31760 0.50010 0.79580 -0.31300
H 	H 	0.30030 0.47780 0.77690 0.07700
H 	H 	0.28910 0.49530 0.82000 0.10200
C 	C 	0.40890 0.49820 0.80060 0.06500
C 	C 	0.44390 0.52790 0.83310 -0.05000
H 	H 	0.40500 0.54600 0.85090 0.04200
C 	C 	0.59000 0.50540 0.81510 -0.03900
H 	H 	0.65120 0.50750 0.81960 0.05100
C 	C 	0.55520 0.47530 0.78240 -0.01300
H 	H 	0.59390 0.45670 0.76500 0.04000
O 	O 	0.35370 0.93611 0.23236 -0.47100
O 	O 	0.48720 0.91161 0.22024 -0.43900
O 	O 	0.64600 0.06777 0.38221 -0.43200
O 	O 	0.51170 0.08756 0.39851 -0.43500
C 	C 	0.43490 0.93843 0.24085 0.32600
C 	C 	0.46680 0.97200 0.27515 -0.12000
C 	C 	0.53210 0.03200 0.34026 -0.02500
C 	C 	0.56490 0.06419 0.37562 0.28300
N 	N 	0.32890 0.02060 0.27950 -0.12900
H 	H 	0.30750 0.99420 0.26620 0.13600
H 	H 	0.29550 0.02720 0.30190 0.19400
C 	C 	0.41310 0.01110 0.29250 0.07900
C 	C 	0.55240 0.96340 0.29120 0.01900
H 	H 	0.58610 0.93700 0.27970 0.02300
C 	C 	0.44830 0.04100 0.32510 -0.04500
H 	H 	0.41470 0.06740 0.33680 0.05700
C 	C 	0.58810 0.99290 0.32360 -0.00900
H 	H 	0.64560 0.98760 0.33400 0.02700
N 	N 	0.31760 0.00010 0.29580 -0.31400
H 	H 	0.30030 0.97780 0.27690 0.07700
H 	H 	0.28910 0.99530 0.32000 0.10200
C 	C 	0.40890 0.99820 0.30060 0.06500
C 	C 	0.44390 0.02790 0.33310 -0.05000
H 	H 	0.40500 0.04600 0.35090 0.04200
C 	C 	0.59000 0.00540 0.31510 -0.03900
H 	H 	0.65120 0.00750 0.31960 0.05000
C 	C 	0.55520 0.97530 0.28240 -0.01300
H 	H 	0.59390 0.95670 0.26500 0.04000
O 	O 	0.85370 0.43611 0.23236 -0.47100
O 	O 	0.98720 0.41161 0.22024 -0.43900
O 	O 	0.14600 0.56777 0.38221 -0.43200
O 	O 	0.01170 0.58756 0.39851 -0.43500
C 	C 	0.93490 0.43843 0.24085 0.32600
C 	C 	0.96680 0.47200 0.27515 -0.12000
C 	C 	0.03210 0.53200 0.34026 -0.02500
C 	C 	0.06490 0.56419 0.37562 0.28300
N 	N 	0.82890 0.52060 0.27950 -0.12900
H 	H 	0.80750 0.49420 0.26620 0.13500
H 	H 	0.79550 0.52720 0.30190 0.19400
C 	C 	0.91310 0.51110 0.29250 0.07800
C 	C 	0.05240 0.46340 0.29120 0.01900
H 	H 	0.08610 0.43700 0.27970 0.02300
C 	C 	0.94830 0.54100 0.32510 -0.04500
H 	H 	0.91470 0.56740 0.33680 0.05700
C 	C 	0.08810 0.49290 0.32360 -0.00900
H 	H 	0.14560 0.48760 0.33400 0.02700
N 	N 	0.81760 0.50010 0.29580 -0.31300
H 	H 	0.80030 0.47780 0.27690 0.07700
H 	H 	0.78910 0.49530 0.32000 0.10200
C 	C 	0.90890 0.49820 0.30060 0.06500
C 	C 	0.94390 0.52790 0.33310 -0.05000
H 	H 	0.90500 0.54600 0.35090 0.04200
C 	C 	0.09000 0.50540 0.31510 -0.03900
H 	H 	0.15120 0.50750 0.31960 0.05100
C 	C 	0.05520 0.47530 0.28240 -0.01300
H 	H 	0.09390 0.45670 0.26500 0.04000
O 	O 	0.85370 0.93611 0.73236 -0.47100
O 	O 	0.98720 0.91161 0.72024 -0.43900
O 	O 	0.14600 0.06777 0.88221 -0.43200
O 	O 	0.01170 0.08756 0.89851 -0.43500
C 	C 	0.93490 0.93843 0.74085 0.32600
C 	C 	0.96680 0.97200 0.77515 -0.12100
C 	C 	0.03210 0.03200 0.84026 -0.02500
C 	C 	0.06490 0.06419 0.87562 0.28300
N 	N 	0.82890 0.02060 0.77950 -0.12900
H 	H 	0.80750 0.99420 0.76620 0.13500
H 	H 	0.79550 0.02720 0.80190 0.19400
C 	C 	0.91310 0.01110 0.79250 0.07600
C 	C 	0.05240 0.96340 0.79120 0.01900
H 	H 	0.08610 0.93700 0.77970 0.02300
C 	C 	0.94830 0.04100 0.82510 -0.04500
H 	H 	0.91470 0.06740 0.83680 0.05700
C 	C 	0.08810 0.99290 0.82360 -0.00800
H 	H 	0.14560 0.98760 0.83400 0.02700
N 	N 	0.81760 0.00010 0.79580 -0.31300
H 	H 	0.80030 0.97780 0.77690 0.07700
H 	H 	0.78910 0.99530 0.82000 0.10200
C 	C 	0.90890 0.99820 0.80060 0.06700
C 	C 	0.94390 0.02790 0.83310 -0.05000
H 	H 	0.90500 0.04600 0.85090 0.04200
C 	C 	0.09000 0.00540 0.81510 -0.03900
H 	H 	0.15120 0.00750 0.81960 0.05100
C 	C 	0.05520 0.97530 0.78240 -0.01300
H 	H 	0.09390 0.95670 0.76500 0.04000
O 	O 	0.39630 0.31389 0.73236 -0.47100
O 	O 	0.26280 0.33839 0.72024 -0.43900
O 	O 	0.10400 0.18223 0.88221 -0.43200
O 	O 	0.23830 0.16244 0.89851 -0.43500
C 	C 	0.31510 0.31157 0.74085 0.32600
C 	C 	0.28320 0.27800 0.77515 -0.12000
C 	C 	0.21790 0.21800 0.84026 -0.02500
C 	C 	0.18510 0.18581 0.87562 0.28300
N 	N 	0.42110 0.22940 0.77950 -0.12900
H 	H 	0.44250 0.25580 0.76620 0.13500
H 	H 	0.45450 0.22280 0.80190 0.19400
C 	C 	0.33690 0.23890 0.79250 0.07800
C 	C 	0.19760 0.28660 0.79120 0.01900
H 	H 	0.16390 0.31300 0.77970 0.02300
C 	C 	0.30170 0.20900 0.82510 -0.04500
H 	H 	0.33530 0.18260 0.83680 0.05700
C 	C 	0.16190 0.25710 0.82360 -0.00900
H 	H 	0.10440 0.26240 0.83400 0.02700
N 	N 	0.43240 0.24990 0.79580 -0.31300
H 	H 	0.44970 0.27220 0.77690 0.07700
H 	H 	0.46090 0.25470 0.82000 0.10200
C 	C 	0.34110 0.25180 0.80060 0.06500
C 	C 	0.30610 0.22210 0.83310 -0.05000
H 	H 	0.34500 0.20400 0.85090 0.04200
C 	C 	0.16000 0.24460 0.81510 -0.03900
H 	H 	0.09880 0.24250 0.81960 0.05100
C 	C 	0.19480 0.27470 0.78240 -0.01300
H 	H 	0.15610 0.29330 0.76500 0.04000
O 	O 	0.39630 0.81389 0.23236 -0.47100
O 	O 	0.26280 0.83839 0.22024 -0.43900
O 	O 	0.10400 0.68223 0.38221 -0.43200
O 	O 	0.23830 0.66244 0.39851 -0.43500
C 	C 	0.31510 0.81157 0.24085 0.32600
C 	C 	0.28320 0.77800 0.27515 -0.12000
C 	C 	0.21790 0.71800 0.34026 -0.02500
C 	C 	0.18510 0.68581 0.37562 0.28300
N 	N 	0.42110 0.72940 0.27950 -0.12900
H 	H 	0.44250 0.75580 0.26620 0.13500
H 	H 	0.45450 0.72280 0.30190 0.19400
C 	C 	0.33690 0.73890 0.29250 0.07800
C 	C 	0.19760 0.78660 0.29120 0.01900
H 	H 	0.16390 0.81300 0.27970 0.02300
C 	C 	0.30170 0.70900 0.32510 -0.04500
H 	H 	0.33530 0.68260 0.33680 0.05700
C 	C 	0.16190 0.75710 0.32360 -0.00900
H 	H 	0.10440 0.76240 0.33400 0.02700
N 	N 	0.43240 0.74990 0.29580 -0.31300
H 	H 	0.44970 0.77220 0.27690 0.07700
H 	H 	0.46090 0.75470 0.32000 0.10200
C 	C 	0.34110 0.75180 0.30060 0.06500
C 	C 	0.30610 0.72210 0.33310 -0.05000
H 	H 	0.34500 0.70400 0.35090 0.04200
C 	C 	0.16000 0.74460 0.31510 -0.03900
H 	H 	0.09880 0.74250 0.31960 0.05100
C 	C 	0.19480 0.77470 0.28240 -0.01300
H 	H 	0.15610 0.79330 0.26500 0.04000
O 	O 	0.89630 0.31389 0.23236 -0.47100
O 	O 	0.76280 0.33839 0.22024 -0.43900
O 	O 	0.60400 0.18223 0.38221 -0.43200
O 	O 	0.73830 0.16244 0.39851 -0.43500
C 	C 	0.81510 0.31157 0.24085 0.32600
C 	C 	0.78320 0.27800 0.27515 -0.12000
C 	C 	0.71790 0.21800 0.34026 -0.02500
C 	C 	0.68510 0.18581 0.37562 0.28300
N 	N 	0.92110 0.22940 0.27950 -0.12900
H 	H 	0.94250 0.25580 0.26620 0.13500
H 	H 	0.95450 0.22280 0.30190 0.19400
C 	C 	0.83690 0.23890 0.29250 0.07800
C 	C 	0.69760 0.28660 0.29120 0.01900
H 	H 	0.66390 0.31300 0.27970 0.02300
C 	C 	0.80170 0.20900 0.32510 -0.04500
H 	H 	0.83530 0.18260 0.33680 0.05700
C 	C 	0.66190 0.25710 0.32360 -0.00900
H 	H 	0.60440 0.26240 0.33400 0.02700
N 	N 	0.93240 0.24990 0.29580 -0.31300
H 	H 	0.94970 0.27220 0.27690 0.07700
H 	H 	0.96090 0.25470 0.32000 0.10200
C 	C 	0.84110 0.25180 0.30060 0.06600
C 	C 	0.80610 0.22210 0.33310 -0.05000
H 	H 	0.84500 0.20400 0.35090 0.04200
C 	C 	0.66000 0.24460 0.31510 -0.03900
H 	H 	0.59880 0.24250 0.31960 0.05100
C 	C 	0.69480 0.27470 0.28240 -0.01300
H 	H 	0.65610 0.29330 0.26500 0.04000
O 	O 	0.89630 0.81389 0.73236 -0.47100
O 	O 	0.76280 0.83839 0.72024 -0.43900
O 	O 	0.60400 0.68223 0.88221 -0.43200
O 	O 	0.73830 0.66244 0.89851 -0.43500
C 	C 	0.81510 0.81157 0.74085 0.32600
C 	C 	0.78320 0.77800 0.77515 -0.12000
C 	C 	0.71790 0.71800 0.84026 -0.02500
C 	C 	0.68510 0.68581 0.87562 0.28300
N 	N 	0.92110 0.72940 0.77950 -0.12900
H 	H 	0.94250 0.75580 0.76620 0.13500
H 	H 	0.95450 0.72280 0.80190 0.19400
C 	C 	0.83690 0.73890 0.79250 0.07800
C 	C 	0.69760 0.78660 0.79120 0.01900
H 	H 	0.66390 0.81300 0.77970 0.02300
C 	C 	0.80170 0.70900 0.82510 -0.04500
H 	H 	0.83530 0.68260 0.83680 0.05700
C 	C 	0.66190 0.75710 0.82360 -0.00900
H 	H 	0.60440 0.76240 0.83400 0.02700
N 	N 	0.93240 0.74990 0.79580 -0.31300
H 	H 	0.94970 0.77220 0.77690 0.07700
H 	H 	0.96090 0.75470 0.82000 0.10200
C 	C 	0.84110 0.75180 0.80060 0.06600
C 	C 	0.80610 0.72210 0.83310 -0.05000
H 	H 	0.84500 0.70400 0.85090 0.04200
C 	C 	0.66000 0.74460 0.81510 -0.03900
H 	H 	0.59880 0.74250 0.81960 0.05100
C 	C 	0.69480 0.77470 0.78240 -0.01300
H 	H 	0.65610 0.79330 0.76500 0.04000
O 	O 	0.60370 0.56389 0.98236 -0.47100
O 	O 	0.73720 0.58839 0.97024 -0.43900
O 	O 	0.89600 0.43223 0.13221 -0.43200
O 	O 	0.76170 0.41244 0.14851 -0.43500
C 	C 	0.68490 0.56157 0.99085 0.32600
C 	C 	0.71680 0.52800 0.02515 -0.12000
C 	C 	0.78210 0.46800 0.09026 -0.02500
C 	C 	0.81490 0.43581 0.12562 0.28300
N 	N 	0.57890 0.47940 0.02950 -0.12900
H 	H 	0.55750 0.50580 0.01620 0.13500
H 	H 	0.54550 0.47280 0.05190 0.19400
C 	C 	0.66310 0.48890 0.04250 0.07800
C 	C 	0.80240 0.53660 0.04120 0.01900
H 	H 	0.83610 0.56300 0.02970 0.02300
C 	C 	0.69830 0.45900 0.07510 -0.04500
H 	H 	0.66470 0.43260 0.08680 0.05700
C 	C 	0.83810 0.50710 0.07360 -0.00900
H 	H 	0.89560 0.51240 0.08400 0.02700
N 	N 	0.56760 0.49990 0.04580 -0.31300
H 	H 	0.55030 0.52220 0.02690 0.07700
H 	H 	0.53910 0.50470 0.07000 0.10200
C 	C 	0.65890 0.50180 0.05060 0.06500
C 	C 	0.69390 0.47210 0.08310 -0.05000
H 	H 	0.65500 0.45400 0.10090 0.04200
C 	C 	0.84000 0.49460 0.06510 -0.03900
H 	H 	0.90120 0.49250 0.06960 0.05100
C 	C 	0.80520 0.52470 0.03240 -0.01300
H 	H 	0.84390 0.54330 0.01500 0.04000
O 	O 	0.60370 0.06389 0.48236 -0.47100
O 	O 	0.73720 0.08839 0.47024 -0.43900
O 	O 	0.89600 0.93223 0.63221 -0.43200
O 	O 	0.76170 0.91244 0.64851 -0.43500
C 	C 	0.68490 0.06157 0.49085 0.32600
C 	C 	0.71680 0.02800 0.52515 -0.12000
C 	C 	0.78210 0.96800 0.59026 -0.02500
C 	C 	0.81490 0.93581 0.62562 0.28300
N 	N 	0.57890 0.97940 0.52950 -0.12900
H 	H 	0.55750 0.00580 0.51620 0.13500
H 	H 	0.54550 0.97280 0.55190 0.19400
C 	C 	0.66310 0.98890 0.54250 0.07800
C 	C 	0.80240 0.03660 0.54120 0.01900
H 	H 	0.83610 0.06300 0.52970 0.02300
C 	C 	0.69830 0.95900 0.57510 -0.04500
H 	H 	0.66470 0.93260 0.58680 0.05700
C 	C 	0.83810 0.00710 0.57360 -0.00900
H 	H 	0.89560 0.01240 0.58400 0.02700
N 	N 	0.56760 0.99990 0.54580 -0.31300
H 	H 	0.55030 0.02220 0.52690 0.07700
H 	H 	0.53910 0.00470 0.57000 0.10200
C 	C 	0.65890 0.00180 0.55060 0.06500
C 	C 	0.69390 0.97210 0.58310 -0.05000
H 	H 	0.65500 0.95400 0.60090 0.04200
C 	C 	0.84000 0.99460 0.56510 -0.03800
H 	H 	0.90120 0.99250 0.56960 0.05000
C 	C 	0.80520 0.02470 0.53240 -0.01300
H 	H 	0.84390 0.04330 0.51500 0.04000
O 	O 	0.10370 0.56389 0.48236 -0.47100
O 	O 	0.23720 0.58839 0.47024 -0.43900
O 	O 	0.39600 0.43223 0.63221 -0.43200
O 	O 	0.26170 0.41244 0.64851 -0.43500
C 	C 	0.18490 0.56157 0.49085 0.32600
C 	C 	0.21680 0.52800 0.52515 -0.12000
C 	C 	0.28210 0.46800 0.59026 -0.02500
C 	C 	0.31490 0.43581 0.62562 0.28300
N 	N 	0.07890 0.47940 0.52950 -0.12900
H 	H 	0.05750 0.50580 0.51620 0.13500
H 	H 	0.04550 0.47280 0.55190 0.19400
C 	C 	0.16310 0.48890 0.54250 0.07800
C 	C 	0.30240 0.53660 0.54120 0.01900
H 	H 	0.33610 0.56300 0.52970 0.02300
C 	C 	0.19830 0.45900 0.57510 -0.04500
H 	H 	0.16470 0.43260 0.58680 0.05700
C 	C 	0.33810 0.50710 0.57360 -0.00900
H 	H 	0.39560 0.51240 0.58400 0.02700
N 	N 	0.06760 0.49990 0.54580 -0.31300
H 	H 	0.05030 0.52220 0.52690 0.07700
H 	H 	0.03910 0.50470 0.57000 0.10200
C 	C 	0.15890 0.50180 0.55060 0.06600
C 	C 	0.19390 0.47210 0.58310 -0.05000
H 	H 	0.15500 0.45400 0.60090 0.04200
C 	C 	0.34000 0.49460 0.56510 -0.03900
H 	H 	0.40120 0.49250 0.56960 0.05100
C 	C 	0.30520 0.52470 0.53240 -0.01300
H 	H 	0.34390 0.54330 0.51500 0.04000
O 	O 	0.10370 0.06389 0.98236 -0.47100
O 	O 	0.23720 0.08839 0.97024 -0.43900
O 	O 	0.39600 0.93223 0.13221 -0.43200
O 	O 	0.26170 0.91244 0.14851 -0.43500
C 	C 	0.18490 0.06157 0.99085 0.32600
C 	C 	0.21680 0.02800 0.02515 -0.12100
C 	C 	0.28210 0.96800 0.09026 -0.02400
C 	C 	0.31490 0.93581 0.12562 0.28300
N 	N 	0.07890 0.97940 0.02950 -0.12900
H 	H 	0.05750 0.00580 0.01620 0.13500
H 	H 	0.04550 0.97280 0.05190 0.19400
C 	C 	0.16310 0.98890 0.04250 0.07600
C 	C 	0.30240 0.03660 0.04120 0.01900
H 	H 	0.33610 0.06300 0.02970 0.02300
C 	C 	0.19830 0.95900 0.07510 -0.04500
H 	H 	0.16470 0.93260 0.08680 0.05700
C 	C 	0.33810 0.00710 0.07360 -0.00800
H 	H 	0.39560 0.01240 0.08400 0.02600
N 	N 	0.06760 0.99990 0.04580 -0.31300
H 	H 	0.05030 0.02220 0.02690 0.07700
H 	H 	0.03910 0.00470 0.07000 0.10200
C 	C 	0.15890 0.00180 0.05060 0.06800
C 	C 	0.19390 0.97210 0.08310 -0.04900
H 	H 	0.15500 0.95400 0.10090 0.04200
C 	C 	0.34000 0.99460 0.06510 -0.04000
H 	H 	0.40120 0.99250 0.06960 0.05100
C 	C 	0.30520 0.02470 0.03240 -0.01300
H 	H 	0.34390 0.04330 0.01500 0.04000
O 	O 	0.64630 0.68611 0.98236 -0.47100
O 	O 	0.51280 0.66161 0.97024 -0.43900
O 	O 	0.35400 0.81777 0.13221 -0.43200
O 	O 	0.48830 0.83756 0.14851 -0.43500
C 	C 	0.56510 0.68843 0.99085 0.32600
C 	C 	0.53320 0.72200 0.02515 -0.12000
C 	C 	0.46790 0.78200 0.09026 -0.02500
C 	C 	0.43510 0.81419 0.12562 0.28300
N 	N 	0.67110 0.77060 0.02950 -0.12900
H 	H 	0.69250 0.74420 0.01620 0.13500
H 	H 	0.70450 0.77720 0.05190 0.19400
C 	C 	0.58690 0.76110 0.04250 0.07800
C 	C 	0.44760 0.71340 0.04120 0.01900
H 	H 	0.41390 0.68700 0.02970 0.02300
C 	C 	0.55170 0.79100 0.07510 -0.04500
H 	H 	0.58530 0.81740 0.08680 0.05700
C 	C 	0.41190 0.74290 0.07360 -0.00900
H 	H 	0.35440 0.73760 0.08400 0.02700
N 	N 	0.68240 0.75010 0.04580 -0.31300
H 	H 	0.69970 0.72780 0.02690 0.07700
H 	H 	0.71090 0.74530 0.07000 0.10200
C 	C 	0.59110 0.74820 0.05060 0.06600
C 	C 	0.55610 0.77790 0.08310 -0.05000
H 	H 	0.59500 0.79600 0.10090 0.04200
C 	C 	0.41000 0.75540 0.06510 -0.03900
H 	H 	0.34880 0.75750 0.06960 0.05100
C 	C 	0.44480 0.72530 0.03240 -0.01300
H 	H 	0.40610 0.70670 0.01500 0.04000
O 	O 	0.64630 0.18611 0.48236 -0.47100
O 	O 	0.51280 0.16161 0.47024 -0.43900
O 	O 	0.35400 0.31777 0.63221 -0.43200
O 	O 	0.48830 0.33756 0.64851 -0.43500
C 	C 	0.56510 0.18843 0.49085 0.32600
C 	C 	0.53320 0.22200 0.52515 -0.12000
C 	C 	0.46790 0.28200 0.59026 -0.02500
C 	C 	0.43510 0.31419 0.62562 0.28300
N 	N 	0.67110 0.27060 0.52950 -0.12900
H 	H 	0.69250 0.24420 0.51620 0.13500
H 	H 	0.70450 0.27720 0.55190 0.19400
C 	C 	0.58690 0.26110 0.54250 0.07800
C 	C 	0.44760 0.21340 0.54120 0.01900
H 	H 	0.41390 0.18700 0.52970 0.02300
C 	C 	0.55170 0.29100 0.57510 -0.04500
H 	H 	0.58530 0.31740 0.58680 0.05700
C 	C 	0.41190 0.24290 0.57360 -0.00900
H 	H 	0.35440 0.23760 0.58400 0.02700
N 	N 	0.68240 0.25010 0.54580 -0.31300
H 	H 	0.69970 0.22780 0.52690 0.07700
H 	H 	0.71090 0.24530 0.57000 0.10200
C 	C 	0.59110 0.24820 0.55060 0.06500
C 	C 	0.55610 0.27790 0.58310 -0.05000
H 	H 	0.59500 0.29600 0.60090 0.04200
C 	C 	0.41000 0.25540 0.56510 -0.03900
H 	H 	0.34880 0.25750 0.56960 0.05100
C 	C 	0.44480 0.22530 0.53240 -0.01300
H 	H 	0.40610 0.20670 0.51500 0.04000
O 	O 	0.14630 0.68611 0.48236 -0.47100
O 	O 	0.01280 0.66161 0.47024 -0.43900
O 	O 	0.85400 0.81777 0.63221 -0.43200
O 	O 	0.98830 0.83756 0.64851 -0.43500
C 	C 	0.06510 0.68843 0.49085 0.32600
C 	C 	0.03320 0.72200 0.52515 -0.12000
C 	C 	0.96790 0.78200 0.59026 -0.02500
C 	C 	0.93510 0.81419 0.62562 0.28300
N 	N 	0.17110 0.77060 0.52950 -0.12900
H 	H 	0.19250 0.74420 0.51620 0.13500
H 	H 	0.20450 0.77720 0.55190 0.19400
C 	C 	0.08690 0.76110 0.54250 0.07800
C 	C 	0.94760 0.71340 0.54120 0.01900
H 	H 	0.91390 0.68700 0.52970 0.02300
C 	C 	0.05170 0.79100 0.57510 -0.04500
H 	H 	0.08530 0.81740 0.58680 0.05700
C 	C 	0.91190 0.74290 0.57360 -0.00900
H 	H 	0.85440 0.73760 0.58400 0.02700
N 	N 	0.18240 0.75010 0.54580 -0.31300
H 	H 	0.19970 0.72780 0.52690 0.07700
H 	H 	0.21090 0.74530 0.57000 0.10200
C 	C 	0.09110 0.74820 0.55060 0.06500
C 	C 	0.05610 0.77790 0.58310 -0.05000
H 	H 	0.09500 0.79600 0.60090 0.04200
C 	C 	0.91000 0.75540 0.56510 -0.03900
H 	H 	0.84880 0.75750 0.56960 0.05100
C 	C 	0.94480 0.72530 0.53240 -0.01300
H 	H 	0.90610 0.70670 0.51500 0.04000
O 	O 	0.14630 0.18611 0.98236 -0.47100
O 	O 	0.01280 0.16161 0.97024 -0.43900
O 	O 	0.85400 0.31777 0.13221 -0.43200
O 	O 	0.98830 0.33756 0.14851 -0.43500
C 	C 	0.06510 0.18843 0.99085 0.32600
C 	C 	0.03320 0.22200 0.02515 -0.12100
C 	C 	0.96790 0.28200 0.09026 -0.02500
C 	C 	0.93510 0.31419 0.12562 0.28300
N 	N 	0.17110 0.27060 0.02950 -0.12900
H 	H 	0.19250 0.24420 0.01620 0.13500
H 	H 	0.20450 0.27720 0.05190 0.19400
C 	C 	0.08690 0.26110 0.04250 0.07800
C 	C 	0.94760 0.21340 0.04120 0.01900
H 	H 	0.91390 0.18700 0.02970 0.02300
C 	C 	0.05170 0.29100 0.07510 -0.04500
H 	H 	0.08530 0.31740 0.08680 0.05700
C 	C 	0.91190 0.24290 0.07360 -0.00900
H 	H 	0.85440 0.23760 0.08400 0.02700
N 	N 	0.18240 0.25010 0.04580 -0.31300
H 	H 	0.19970 0.22780 0.02690 0.07700
H 	H 	0.21090 0.24530 0.07000 0.10200
C 	C 	0.09110 0.24820 0.05060 0.06600
C 	C 	0.05610 0.27790 0.08310 -0.05000
H 	H 	0.09500 0.29600 0.10090 0.04200
C 	C 	0.91000 0.25540 0.06510 -0.03900
H 	H 	0.84880 0.25750 0.06960 0.05100
C 	C 	0.94480 0.22530 0.03240 -0.01300
H 	H 	0.90610 0.20670 0.01500 0.04000
In	In	0.37500 0.37500 0.68430 1.99800
In	In	0.37500 0.87500 0.18430 1.99800
In	In	0.87500 0.37500 0.18430 1.99800
In	In	0.87500 0.87500 0.68430 1.99800
In	In	0.62500 0.62500 0.93430 1.99800
In	In	0.62500 0.12500 0.43430 1.99800
In	In	0.12500 0.62500 0.43430 1.99800
In	In	0.12500 0.12500 0.93430 1.99800
