data_crystal

_cell_length_a 14.90000
_cell_length_b 21.81600
_cell_length_c 34.79600
_cell_angle_alpha 90.00000
_cell_angle_beta  90.00000
_cell_angle_gamma 90.00000

_symmetry_space_group_name_	'P 1'
_symmetry_space_group_name_H-M	'P 1'

loop_
_symmetry_equiv_pos_as_xyz
  x,y,z

loop_
_atom_site_label
_atom_site_type_symbol
_atom_site_fract_x
_atom_site_fract_y
_atom_site_fract_z
_atom_site_charge
O 	O 	0.39640 0.30400 0.12690 -0.43200
O 	O 	0.26040 0.33070 0.11310 -0.43600
O 	O 	0.39190 0.44610 0.03530 -0.49100
O 	O 	0.25620 0.41520 0.04740 -0.43300
C 	C 	0.31230 0.44510 0.02570 0.32400
C 	C 	0.27630 0.47990 0.99100 -0.06300
C 	C 	0.19000 0.46520 0.97850 0.02000
C 	C 	0.32750 0.51970 0.96990 0.11800
H 	H 	0.15220 0.43890 0.99300 0.02100
C 	C 	0.16140 0.49050 0.94390 -0.05100
N 	N 	0.41300 0.54240 0.98220 -0.21000
C 	C 	0.29500 0.54420 0.93710 -0.05500
H 	H 	0.10370 0.47950 0.93450 0.03500
C 	C 	0.21270 0.53110 0.92250 0.01500
H 	H 	0.44070 0.57060 0.96860 0.11800
H 	H 	0.43760 0.52820 0.00330 0.10800
H 	H 	0.33190 0.57230 0.92350 0.06000
C 	C 	0.18530 0.55280 0.88480 0.29200
N 	N 	0.07700 0.25600 0.21640 -0.20300
H 	H 	0.04980 0.27600 0.19770 0.11500
H 	H 	0.04640 0.24360 0.23650 0.11700
C 	C 	0.27730 0.26890 0.16970 -0.02800
C 	C 	0.18720 0.27200 0.18000 -0.05800
H 	H 	0.14530 0.29140 0.16340 0.05700
C 	C 	0.15860 0.24670 0.21450 0.04800
C 	C 	0.22000 0.21830 0.23880 -0.05100
H 	H 	0.35200 0.19570 0.24500 0.02000
H 	H 	0.40020 0.23840 0.18690 0.03100
O 	O 	0.39640 0.80400 0.62690 -0.43100
O 	O 	0.26040 0.83070 0.61310 -0.43500
O 	O 	0.39190 0.94610 0.53530 -0.49000
O 	O 	0.25620 0.91520 0.54740 -0.43200
C 	C 	0.31230 0.94510 0.52570 0.32500
C 	C 	0.27630 0.97990 0.49100 -0.06200
C 	C 	0.19000 0.96520 0.47850 0.02200
C 	C 	0.32750 0.01970 0.46990 0.11700
H 	H 	0.15220 0.93890 0.49300 0.02200
C 	C 	0.16140 0.99050 0.44390 -0.05000
N 	N 	0.41300 0.04240 0.48220 -0.20900
C 	C 	0.29500 0.04420 0.43710 -0.05600
H 	H 	0.10370 0.97950 0.43450 0.03500
C 	C 	0.21270 0.03110 0.42250 0.01500
H 	H 	0.44070 0.07060 0.46860 0.11800
H 	H 	0.43760 0.02820 0.50330 0.10800
H 	H 	0.33190 0.07230 0.42350 0.06000
C 	C 	0.18530 0.05280 0.38480 0.29200
N 	N 	0.07700 0.75600 0.71640 -0.20300
H 	H 	0.04980 0.77600 0.69770 0.11500
H 	H 	0.04640 0.74360 0.73650 0.11700
C 	C 	0.27730 0.76890 0.66970 -0.02800
C 	C 	0.18720 0.77200 0.68000 -0.05700
H 	H 	0.14530 0.79140 0.66340 0.05600
C 	C 	0.15860 0.74670 0.71450 0.04900
C 	C 	0.22000 0.71830 0.73880 -0.05100
H 	H 	0.35200 0.69570 0.74500 0.02000
H 	H 	0.40020 0.73840 0.68690 0.03100
O 	O 	0.89640 0.30400 0.62690 -0.43100
O 	O 	0.76040 0.33070 0.61310 -0.43500
O 	O 	0.89190 0.44610 0.53530 -0.49000
O 	O 	0.75620 0.41520 0.54740 -0.43200
C 	C 	0.81230 0.44510 0.52570 0.32500
C 	C 	0.77630 0.47990 0.49100 -0.06200
C 	C 	0.69000 0.46520 0.47850 0.02200
C 	C 	0.82750 0.51970 0.46990 0.11900
H 	H 	0.65220 0.43890 0.49300 0.02200
C 	C 	0.66140 0.49050 0.44390 -0.05000
N 	N 	0.91300 0.54240 0.48220 -0.21000
C 	C 	0.79500 0.54420 0.43710 -0.05500
H 	H 	0.60370 0.47950 0.43450 0.03500
C 	C 	0.71270 0.53110 0.42250 0.01500
H 	H 	0.94070 0.57060 0.46860 0.11800
H 	H 	0.93760 0.52820 0.50330 0.10800
H 	H 	0.83190 0.57230 0.42350 0.06000
C 	C 	0.68530 0.55280 0.38480 0.29200
N 	N 	0.57700 0.25600 0.71640 -0.20300
H 	H 	0.54980 0.27600 0.69770 0.11500
H 	H 	0.54640 0.24360 0.73650 0.11700
C 	C 	0.77730 0.26890 0.66970 -0.02800
C 	C 	0.68720 0.27200 0.68000 -0.05700
H 	H 	0.64530 0.29140 0.66340 0.05600
C 	C 	0.65860 0.24670 0.71450 0.04900
C 	C 	0.72000 0.21830 0.73880 -0.05100
H 	H 	0.85200 0.19570 0.74500 0.02000
H 	H 	0.90020 0.23840 0.68690 0.03100
O 	O 	0.89640 0.80400 0.12690 -0.43100
O 	O 	0.76040 0.83070 0.11310 -0.43500
O 	O 	0.89190 0.94610 0.03530 -0.49000
O 	O 	0.75620 0.91520 0.04740 -0.43200
C 	C 	0.81230 0.94510 0.02570 0.32500
C 	C 	0.77630 0.97990 0.99100 -0.06200
C 	C 	0.69000 0.96520 0.97850 0.02200
C 	C 	0.82750 0.01970 0.96990 0.12000
H 	H 	0.65220 0.93890 0.99300 0.02200
C 	C 	0.66140 0.99050 0.94390 -0.05000
N 	N 	0.91300 0.04240 0.98220 -0.21000
C 	C 	0.79500 0.04420 0.93710 -0.05400
H 	H 	0.60370 0.97950 0.93450 0.03500
C 	C 	0.71270 0.03110 0.92250 0.01500
H 	H 	0.94070 0.07060 0.96860 0.11800
H 	H 	0.93760 0.02820 0.00330 0.10800
H 	H 	0.83190 0.07230 0.92350 0.06000
C 	C 	0.68530 0.05280 0.88480 0.29200
N 	N 	0.57700 0.75600 0.21640 -0.20300
H 	H 	0.54980 0.77600 0.19770 0.11500
H 	H 	0.54640 0.74360 0.23650 0.11700
C 	C 	0.77730 0.76890 0.16970 -0.02800
C 	C 	0.68720 0.77200 0.18000 -0.05700
H 	H 	0.64530 0.79140 0.16340 0.05700
C 	C 	0.65860 0.74670 0.21450 0.04900
C 	C 	0.72000 0.71830 0.23880 -0.05100
H 	H 	0.85200 0.69570 0.24500 0.02000
H 	H 	0.90020 0.73840 0.18690 0.03100
O 	O 	0.35360 0.44600 0.12690 -0.43100
O 	O 	0.48960 0.41930 0.11310 -0.43500
O 	O 	0.35810 0.30390 0.03530 -0.49000
O 	O 	0.49380 0.33480 0.04740 -0.43200
C 	C 	0.43770 0.30490 0.02570 0.32500
C 	C 	0.47370 0.27010 0.99100 -0.06200
C 	C 	0.56000 0.28480 0.97850 0.02200
C 	C 	0.42250 0.23030 0.96990 0.11900
H 	H 	0.59780 0.31110 0.99300 0.02200
C 	C 	0.58860 0.25950 0.94390 -0.05000
N 	N 	0.33700 0.20760 0.98220 -0.21000
C 	C 	0.45500 0.20580 0.93710 -0.05500
H 	H 	0.64630 0.27050 0.93450 0.03500
C 	C 	0.53730 0.21890 0.92250 0.01500
H 	H 	0.30930 0.17940 0.96860 0.11800
H 	H 	0.31240 0.22180 0.00330 0.10800
H 	H 	0.41810 0.17770 0.92350 0.06000
C 	C 	0.56470 0.19720 0.88480 0.29200
N 	N 	0.67300 0.49400 0.21640 -0.20300
H 	H 	0.70020 0.47400 0.19770 0.11500
H 	H 	0.70360 0.50640 0.23650 0.11700
C 	C 	0.47270 0.48110 0.16970 -0.02800
C 	C 	0.56280 0.47800 0.18000 -0.05700
H 	H 	0.60470 0.45860 0.16340 0.05700
C 	C 	0.59140 0.50330 0.21450 0.04900
C 	C 	0.53000 0.53170 0.23880 -0.05100
H 	H 	0.39800 0.55430 0.24500 0.02000
H 	H 	0.34980 0.51160 0.18690 0.03100
O 	O 	0.35360 0.94600 0.62690 -0.43100
O 	O 	0.48960 0.91930 0.61310 -0.43500
O 	O 	0.35810 0.80390 0.53530 -0.49000
O 	O 	0.49380 0.83480 0.54740 -0.43200
C 	C 	0.43770 0.80490 0.52570 0.32500
C 	C 	0.47370 0.77010 0.49100 -0.06200
C 	C 	0.56000 0.78480 0.47850 0.02200
C 	C 	0.42250 0.73030 0.46990 0.11900
H 	H 	0.59780 0.81110 0.49300 0.02200
C 	C 	0.58860 0.75950 0.44390 -0.05000
N 	N 	0.33700 0.70760 0.48220 -0.21000
C 	C 	0.45500 0.70580 0.43710 -0.05500
H 	H 	0.64630 0.77050 0.43450 0.03500
C 	C 	0.53730 0.71890 0.42250 0.01500
H 	H 	0.30930 0.67940 0.46860 0.11800
H 	H 	0.31240 0.72180 0.50330 0.10800
H 	H 	0.41810 0.67770 0.42350 0.06000
C 	C 	0.56470 0.69720 0.38480 0.29200
N 	N 	0.67300 0.99400 0.71640 -0.20300
H 	H 	0.70020 0.97400 0.69770 0.11500
H 	H 	0.70360 0.00640 0.73650 0.11700
C 	C 	0.47270 0.98110 0.66970 -0.02800
C 	C 	0.56280 0.97800 0.68000 -0.05700
H 	H 	0.60470 0.95860 0.66340 0.05600
C 	C 	0.59140 0.00330 0.71450 0.04900
C 	C 	0.53000 0.03170 0.73880 -0.05100
H 	H 	0.39800 0.05430 0.74500 0.02000
H 	H 	0.34980 0.01160 0.68690 0.03100
O 	O 	0.85360 0.44600 0.62690 -0.43100
O 	O 	0.98960 0.41930 0.61310 -0.43500
O 	O 	0.85810 0.30390 0.53530 -0.49000
O 	O 	0.99380 0.33480 0.54740 -0.43200
C 	C 	0.93770 0.30490 0.52570 0.32500
C 	C 	0.97370 0.27010 0.49100 -0.06200
C 	C 	0.06000 0.28480 0.47850 0.02200
C 	C 	0.92250 0.23030 0.46990 0.12000
H 	H 	0.09780 0.31110 0.49300 0.02200
C 	C 	0.08860 0.25950 0.44390 -0.05000
N 	N 	0.83700 0.20760 0.48220 -0.21000
C 	C 	0.95500 0.20580 0.43710 -0.05500
H 	H 	0.14630 0.27050 0.43450 0.03500
C 	C 	0.03730 0.21890 0.42250 0.01500
H 	H 	0.80930 0.17940 0.46860 0.11800
H 	H 	0.81240 0.22180 0.50330 0.10800
H 	H 	0.91810 0.17770 0.42350 0.06000
C 	C 	0.06470 0.19720 0.38480 0.29200
N 	N 	0.17300 0.49400 0.71640 -0.20300
H 	H 	0.20020 0.47400 0.69770 0.11500
H 	H 	0.20360 0.50640 0.73650 0.11700
C 	C 	0.97270 0.48110 0.66970 -0.02800
C 	C 	0.06280 0.47800 0.68000 -0.05800
H 	H 	0.10470 0.45860 0.66340 0.05700
C 	C 	0.09140 0.50330 0.71450 0.04900
C 	C 	0.03000 0.53170 0.73880 -0.05100
H 	H 	0.89800 0.55430 0.74500 0.02000
H 	H 	0.84980 0.51160 0.68690 0.03100
O 	O 	0.85360 0.94600 0.12690 -0.43100
O 	O 	0.98960 0.91930 0.11310 -0.43500
O 	O 	0.85810 0.80390 0.03530 -0.49000
O 	O 	0.99380 0.83480 0.04740 -0.43200
C 	C 	0.93770 0.80490 0.02570 0.32500
C 	C 	0.97370 0.77010 0.99100 -0.06200
C 	C 	0.06000 0.78480 0.97850 0.02100
C 	C 	0.92250 0.73030 0.96990 0.11900
H 	H 	0.09780 0.81110 0.99300 0.02200
C 	C 	0.08860 0.75950 0.94390 -0.05000
N 	N 	0.83700 0.70760 0.98220 -0.21000
C 	C 	0.95500 0.70580 0.93710 -0.05500
H 	H 	0.14630 0.77050 0.93450 0.03500
C 	C 	0.03730 0.71890 0.92250 0.01500
H 	H 	0.80930 0.67940 0.96860 0.11800
H 	H 	0.81240 0.72180 0.00330 0.10800
H 	H 	0.91810 0.67770 0.92350 0.06000
C 	C 	0.06470 0.69720 0.88480 0.29200
N 	N 	0.17300 0.99400 0.21640 -0.20200
H 	H 	0.20020 0.97400 0.19770 0.11500
H 	H 	0.20360 0.00640 0.23650 0.11700
C 	C 	0.97270 0.98110 0.16970 -0.02800
C 	C 	0.06280 0.97800 0.18000 -0.06000
H 	H 	0.10470 0.95860 0.16340 0.05700
C 	C 	0.09140 0.00330 0.21450 0.04500
C 	C 	0.03000 0.03170 0.23880 -0.05100
H 	H 	0.89800 0.05430 0.24500 0.02000
H 	H 	0.84980 0.01160 0.18690 0.03100
O 	O 	0.64640 0.69600 0.37690 -0.43100
O 	O 	0.51040 0.66930 0.36310 -0.43500
O 	O 	0.64190 0.55390 0.28530 -0.49000
O 	O 	0.50620 0.58480 0.29740 -0.43200
C 	C 	0.56230 0.55490 0.27570 0.32500
C 	C 	0.52630 0.52010 0.24100 -0.06200
C 	C 	0.44000 0.53480 0.22850 0.02200
C 	C 	0.57750 0.48030 0.21990 0.11900
H 	H 	0.40220 0.56110 0.24300 0.02200
C 	C 	0.41140 0.50950 0.19390 -0.05000
N 	N 	0.66300 0.45760 0.23220 -0.21000
C 	C 	0.54500 0.45580 0.18710 -0.05500
H 	H 	0.35370 0.52050 0.18450 0.03500
C 	C 	0.46270 0.46890 0.17250 0.01500
H 	H 	0.69070 0.42940 0.21860 0.11800
H 	H 	0.68760 0.47180 0.25330 0.10800
H 	H 	0.58190 0.42770 0.17350 0.06000
C 	C 	0.43530 0.44720 0.13480 0.29200
N 	N 	0.32700 0.74400 0.46640 -0.20300
H 	H 	0.29980 0.72400 0.44770 0.11500
H 	H 	0.29640 0.75640 0.48650 0.11700
C 	C 	0.52730 0.73110 0.41970 -0.02800
C 	C 	0.43720 0.72800 0.43000 -0.05700
H 	H 	0.39530 0.70860 0.41340 0.05600
C 	C 	0.40860 0.75330 0.46450 0.04900
C 	C 	0.47000 0.78170 0.48880 -0.05100
H 	H 	0.60200 0.80430 0.49500 0.02000
H 	H 	0.65020 0.76160 0.43690 0.03100
O 	O 	0.64640 0.19600 0.87690 -0.43100
O 	O 	0.51040 0.16930 0.86310 -0.43500
O 	O 	0.64190 0.05390 0.78530 -0.49000
O 	O 	0.50620 0.08480 0.79740 -0.43200
C 	C 	0.56230 0.05490 0.77570 0.32500
C 	C 	0.52630 0.02010 0.74100 -0.06200
C 	C 	0.44000 0.03480 0.72850 0.02100
C 	C 	0.57750 0.98030 0.71990 0.11900
H 	H 	0.40220 0.06110 0.74300 0.02200
C 	C 	0.41140 0.00950 0.69390 -0.05000
N 	N 	0.66300 0.95760 0.73220 -0.21000
C 	C 	0.54500 0.95580 0.68710 -0.05500
H 	H 	0.35370 0.02050 0.68450 0.03500
C 	C 	0.46270 0.96890 0.67250 0.01500
H 	H 	0.69070 0.92940 0.71860 0.11800
H 	H 	0.68760 0.97180 0.75330 0.10800
H 	H 	0.58190 0.92770 0.67350 0.06000
C 	C 	0.43530 0.94720 0.63480 0.29200
N 	N 	0.32700 0.24400 0.96640 -0.20300
H 	H 	0.29980 0.22400 0.94770 0.11500
H 	H 	0.29640 0.25640 0.98650 0.11700
C 	C 	0.52730 0.23110 0.91970 -0.02800
C 	C 	0.43720 0.22800 0.93000 -0.05700
H 	H 	0.39530 0.20860 0.91340 0.05700
C 	C 	0.40860 0.25330 0.96450 0.04900
C 	C 	0.47000 0.28170 0.98880 -0.05100
H 	H 	0.60200 0.30430 0.99500 0.02000
H 	H 	0.65020 0.26160 0.93690 0.03100
O 	O 	0.14640 0.69600 0.87690 -0.43100
O 	O 	0.01040 0.66930 0.86310 -0.43500
O 	O 	0.14190 0.55390 0.78530 -0.49000
O 	O 	0.00620 0.58480 0.79740 -0.43200
C 	C 	0.06230 0.55490 0.77570 0.32500
C 	C 	0.02630 0.52010 0.74100 -0.06200
C 	C 	0.94000 0.53480 0.72850 0.02100
C 	C 	0.07750 0.48030 0.71990 0.11900
H 	H 	0.90220 0.56110 0.74300 0.02200
C 	C 	0.91140 0.50950 0.69390 -0.05000
N 	N 	0.16300 0.45760 0.73220 -0.21000
C 	C 	0.04500 0.45580 0.68710 -0.05500
H 	H 	0.85370 0.52050 0.68450 0.03500
C 	C 	0.96270 0.46890 0.67250 0.01500
H 	H 	0.19070 0.42940 0.71860 0.11800
H 	H 	0.18760 0.47180 0.75330 0.10800
H 	H 	0.08190 0.42770 0.67350 0.06000
C 	C 	0.93530 0.44720 0.63480 0.29200
N 	N 	0.82700 0.74400 0.96640 -0.20300
H 	H 	0.79980 0.72400 0.94770 0.11500
H 	H 	0.79640 0.75640 0.98650 0.11700
C 	C 	0.02730 0.73110 0.91970 -0.02800
C 	C 	0.93720 0.72800 0.93000 -0.05700
H 	H 	0.89530 0.70860 0.91340 0.05700
C 	C 	0.90860 0.75330 0.96450 0.04800
C 	C 	0.97000 0.78170 0.98880 -0.05100
H 	H 	0.10200 0.80430 0.99500 0.02000
H 	H 	0.15020 0.76160 0.93690 0.03100
O 	O 	0.14640 0.19600 0.37690 -0.43100
O 	O 	0.01040 0.16930 0.36310 -0.43500
O 	O 	0.14190 0.05390 0.28530 -0.49000
O 	O 	0.00620 0.08480 0.29740 -0.43200
C 	C 	0.06230 0.05490 0.27570 0.32500
C 	C 	0.02630 0.02010 0.24100 -0.06100
C 	C 	0.94000 0.03480 0.22850 0.02100
C 	C 	0.07750 0.98030 0.21990 0.12300
H 	H 	0.90220 0.06110 0.24300 0.02200
C 	C 	0.91140 0.00950 0.19390 -0.05100
N 	N 	0.16300 0.95760 0.23220 -0.21100
C 	C 	0.04500 0.95580 0.18710 -0.05300
H 	H 	0.85370 0.02050 0.18450 0.03500
C 	C 	0.96270 0.96890 0.17250 0.01600
H 	H 	0.19070 0.92940 0.21860 0.11800
H 	H 	0.18760 0.97180 0.25330 0.10800
H 	H 	0.08190 0.92770 0.17350 0.05900
C 	C 	0.93530 0.94720 0.13480 0.29200
N 	N 	0.82700 0.24400 0.46640 -0.20300
H 	H 	0.79980 0.22400 0.44770 0.11500
H 	H 	0.79640 0.25640 0.48650 0.11700
C 	C 	0.02730 0.23110 0.41970 -0.02800
C 	C 	0.93720 0.22800 0.43000 -0.05800
H 	H 	0.89530 0.20860 0.41340 0.05700
C 	C 	0.90860 0.25330 0.46450 0.04800
C 	C 	0.97000 0.28170 0.48880 -0.05100
H 	H 	0.10200 0.30430 0.49500 0.02000
H 	H 	0.15020 0.26160 0.43690 0.03100
O 	O 	0.60360 0.55400 0.37690 -0.43100
O 	O 	0.73960 0.58070 0.36310 -0.43500
O 	O 	0.60810 0.69610 0.28530 -0.49000
O 	O 	0.74380 0.66520 0.29740 -0.43200
C 	C 	0.68770 0.69510 0.27570 0.32500
C 	C 	0.72370 0.72990 0.24100 -0.06200
C 	C 	0.81000 0.71520 0.22850 0.02200
C 	C 	0.67250 0.76970 0.21990 0.11900
H 	H 	0.84780 0.68890 0.24300 0.02200
C 	C 	0.83860 0.74050 0.19390 -0.05000
N 	N 	0.58700 0.79240 0.23220 -0.21000
C 	C 	0.70500 0.79420 0.18710 -0.05500
H 	H 	0.89630 0.72950 0.18450 0.03500
C 	C 	0.78730 0.78110 0.17250 0.01500
H 	H 	0.55930 0.82060 0.21860 0.11800
H 	H 	0.56240 0.77820 0.25330 0.10800
H 	H 	0.66810 0.82230 0.17350 0.06000
C 	C 	0.81470 0.80280 0.13480 0.29200
N 	N 	0.92300 0.50600 0.46640 -0.20300
H 	H 	0.95020 0.52600 0.44770 0.11500
H 	H 	0.95360 0.49360 0.48650 0.11700
C 	C 	0.72270 0.51890 0.41970 -0.02800
C 	C 	0.81280 0.52200 0.43000 -0.05700
H 	H 	0.85470 0.54140 0.41340 0.05600
C 	C 	0.84140 0.49670 0.46450 0.04900
C 	C 	0.78000 0.46830 0.48880 -0.05100
H 	H 	0.64800 0.44570 0.49500 0.02000
H 	H 	0.59980 0.48840 0.43690 0.03100
O 	O 	0.60360 0.05400 0.87690 -0.43100
O 	O 	0.73960 0.08070 0.86310 -0.43500
O 	O 	0.60810 0.19610 0.78530 -0.49000
O 	O 	0.74380 0.16520 0.79740 -0.43200
C 	C 	0.68770 0.19510 0.77570 0.32500
C 	C 	0.72370 0.22990 0.74100 -0.06200
C 	C 	0.81000 0.21520 0.72850 0.02100
C 	C 	0.67250 0.26970 0.71990 0.11900
H 	H 	0.84780 0.18890 0.74300 0.02200
C 	C 	0.83860 0.24050 0.69390 -0.05000
N 	N 	0.58700 0.29240 0.73220 -0.21000
C 	C 	0.70500 0.29420 0.68710 -0.05500
H 	H 	0.89630 0.22950 0.68450 0.03500
C 	C 	0.78730 0.28110 0.67250 0.01500
H 	H 	0.55930 0.32060 0.71860 0.11800
H 	H 	0.56240 0.27820 0.75330 0.10800
H 	H 	0.66810 0.32230 0.67350 0.06000
C 	C 	0.81470 0.30280 0.63480 0.29200
N 	N 	0.92300 0.00600 0.96640 -0.20300
H 	H 	0.95020 0.02600 0.94770 0.11500
H 	H 	0.95360 0.99360 0.98650 0.11700
C 	C 	0.72270 0.01890 0.91970 -0.02800
C 	C 	0.81280 0.02200 0.93000 -0.05800
H 	H 	0.85470 0.04140 0.91340 0.05700
C 	C 	0.84140 0.99670 0.96450 0.04800
C 	C 	0.78000 0.96830 0.98880 -0.05100
H 	H 	0.64800 0.94570 0.99500 0.02000
H 	H 	0.59980 0.98840 0.93690 0.03100
O 	O 	0.10360 0.55400 0.87690 -0.43100
O 	O 	0.23960 0.58070 0.86310 -0.43500
O 	O 	0.10810 0.69610 0.78530 -0.49000
O 	O 	0.24380 0.66520 0.79740 -0.43200
C 	C 	0.18770 0.69510 0.77570 0.32500
C 	C 	0.22370 0.72990 0.74100 -0.06200
C 	C 	0.31000 0.71520 0.72850 0.02200
C 	C 	0.17250 0.76970 0.71990 0.11900
H 	H 	0.34780 0.68890 0.74300 0.02200
C 	C 	0.33860 0.74050 0.69390 -0.05000
N 	N 	0.08700 0.79240 0.73220 -0.21000
C 	C 	0.20500 0.79420 0.68710 -0.05500
H 	H 	0.39630 0.72950 0.68450 0.03500
C 	C 	0.28730 0.78110 0.67250 0.01500
H 	H 	0.05930 0.82060 0.71860 0.11800
H 	H 	0.06240 0.77820 0.75330 0.10800
H 	H 	0.16810 0.82230 0.67350 0.06000
C 	C 	0.31470 0.80280 0.63480 0.29200
N 	N 	0.42300 0.50600 0.96640 -0.20300
H 	H 	0.45020 0.52600 0.94770 0.11500
H 	H 	0.45360 0.49360 0.98650 0.11700
C 	C 	0.22270 0.51890 0.91970 -0.02800
C 	C 	0.31280 0.52200 0.93000 -0.05800
H 	H 	0.35470 0.54140 0.91340 0.05700
C 	C 	0.34140 0.49670 0.96450 0.04900
C 	C 	0.28000 0.46830 0.98880 -0.05100
H 	H 	0.14800 0.44570 0.99500 0.02000
H 	H 	0.09980 0.48840 0.93690 0.03100
O 	O 	0.10360 0.05400 0.37690 -0.43100
O 	O 	0.23960 0.08070 0.36310 -0.43500
O 	O 	0.10810 0.19610 0.28530 -0.49000
O 	O 	0.24380 0.16520 0.29740 -0.43200
C 	C 	0.18770 0.19510 0.27570 0.32500
C 	C 	0.22370 0.22990 0.24100 -0.06200
C 	C 	0.31000 0.21520 0.22850 0.02200
C 	C 	0.17250 0.26970 0.21990 0.11900
H 	H 	0.34780 0.18890 0.24300 0.02200
C 	C 	0.33860 0.24050 0.19390 -0.05000
N 	N 	0.08700 0.29240 0.23220 -0.21000
C 	C 	0.20500 0.29420 0.18710 -0.05500
H 	H 	0.39630 0.22950 0.18450 0.03500
C 	C 	0.28730 0.28110 0.17250 0.01500
H 	H 	0.05930 0.32060 0.21860 0.11800
H 	H 	0.06240 0.27820 0.25330 0.10800
H 	H 	0.16810 0.32230 0.17350 0.06000
C 	C 	0.31470 0.30280 0.13480 0.29200
N 	N 	0.42300 0.00600 0.46640 -0.20400
H 	H 	0.45020 0.02600 0.44770 0.11500
H 	H 	0.45360 0.99360 0.48650 0.11700
C 	C 	0.22270 0.01890 0.41970 -0.02800
C 	C 	0.31280 0.02200 0.43000 -0.05600
H 	H 	0.35470 0.04140 0.41340 0.05600
C 	C 	0.34140 0.99670 0.46450 0.05100
C 	C 	0.28000 0.96830 0.48880 -0.05100
H 	H 	0.14800 0.94570 0.49500 0.02000
H 	H 	0.09980 0.98840 0.43690 0.03100
In	In	0.37500 0.37500 0.08006 2.00100
In	In	0.37500 0.87500 0.58006 2.00100
In	In	0.87500 0.37500 0.58006 2.00100
In	In	0.87500 0.87500 0.08006 2.00100
In	In	0.62500 0.62500 0.33006 2.00100
In	In	0.62500 0.12500 0.83006 2.00100
In	In	0.12500 0.62500 0.83006 2.00100
In	In	0.12500 0.12500 0.33006 2.00100
O 	O 	0.35360 0.30400 0.62310 -0.43100
O 	O 	0.48960 0.33070 0.63690 -0.43500
O 	O 	0.35810 0.44610 0.71470 -0.49000
O 	O 	0.49380 0.41520 0.70260 -0.43200
C 	C 	0.43770 0.44510 0.72430 0.32500
C 	C 	0.47370 0.47990 0.75900 -0.06200
C 	C 	0.56000 0.46520 0.77150 0.02200
C 	C 	0.42250 0.51970 0.78010 0.11900
H 	H 	0.59780 0.43890 0.75700 0.02200
C 	C 	0.58860 0.49050 0.80610 -0.05000
N 	N 	0.33700 0.54240 0.76780 -0.21000
C 	C 	0.45500 0.54420 0.81290 -0.05500
H 	H 	0.64630 0.47950 0.81550 0.03500
C 	C 	0.53730 0.53110 0.82750 0.01500
H 	H 	0.30930 0.57060 0.78140 0.11800
H 	H 	0.31240 0.52820 0.74670 0.10800
H 	H 	0.41810 0.57230 0.82650 0.06000
C 	C 	0.56470 0.55280 0.86520 0.29200
N 	N 	0.67300 0.25600 0.53360 -0.20300
H 	H 	0.70020 0.27600 0.55230 0.11500
H 	H 	0.70360 0.24360 0.51350 0.11700
C 	C 	0.47270 0.26890 0.58030 -0.02800
C 	C 	0.56280 0.27200 0.57000 -0.05700
H 	H 	0.60470 0.29140 0.58660 0.05600
C 	C 	0.59140 0.24670 0.53550 0.04900
C 	C 	0.53000 0.21830 0.51120 -0.05100
H 	H 	0.39800 0.19570 0.50500 0.02000
H 	H 	0.34980 0.23840 0.56310 0.03100
O 	O 	0.35360 0.80400 0.12310 -0.43100
O 	O 	0.48960 0.83070 0.13690 -0.43500
O 	O 	0.35810 0.94610 0.21470 -0.49000
O 	O 	0.49380 0.91520 0.20260 -0.43200
C 	C 	0.43770 0.94510 0.22430 0.32500
C 	C 	0.47370 0.97990 0.25900 -0.06200
C 	C 	0.56000 0.96520 0.27150 0.02100
C 	C 	0.42250 0.01970 0.28010 0.11900
H 	H 	0.59780 0.93890 0.25700 0.02200
C 	C 	0.58860 0.99050 0.30610 -0.05000
N 	N 	0.33700 0.04240 0.26780 -0.21000
C 	C 	0.45500 0.04420 0.31290 -0.05500
H 	H 	0.64630 0.97950 0.31550 0.03500
C 	C 	0.53730 0.03110 0.32750 0.01500
H 	H 	0.30930 0.07060 0.28140 0.11800
H 	H 	0.31240 0.02820 0.24670 0.10800
H 	H 	0.41810 0.07230 0.32650 0.06000
C 	C 	0.56470 0.05280 0.36520 0.29200
N 	N 	0.67300 0.75600 0.03360 -0.20300
H 	H 	0.70020 0.77600 0.05230 0.11500
H 	H 	0.70360 0.74360 0.01350 0.11700
C 	C 	0.47270 0.76890 0.08030 -0.02800
C 	C 	0.56280 0.77200 0.07000 -0.05700
H 	H 	0.60470 0.79140 0.08660 0.05700
C 	C 	0.59140 0.74670 0.03550 0.04900
C 	C 	0.53000 0.71830 0.01120 -0.05100
H 	H 	0.39800 0.69570 0.00500 0.02000
H 	H 	0.34980 0.73840 0.06310 0.03100
O 	O 	0.85360 0.30400 0.12310 -0.43100
O 	O 	0.98960 0.33070 0.13690 -0.43500
O 	O 	0.85810 0.44610 0.21470 -0.49000
O 	O 	0.99380 0.41520 0.20260 -0.43200
C 	C 	0.93770 0.44510 0.22430 0.32500
C 	C 	0.97370 0.47990 0.25900 -0.06200
C 	C 	0.06000 0.46520 0.27150 0.02100
C 	C 	0.92250 0.51970 0.28010 0.11900
H 	H 	0.09780 0.43890 0.25700 0.02200
C 	C 	0.08860 0.49050 0.30610 -0.05000
N 	N 	0.83700 0.54240 0.26780 -0.21000
C 	C 	0.95500 0.54420 0.31290 -0.05500
H 	H 	0.14630 0.47950 0.31550 0.03500
C 	C 	0.03730 0.53110 0.32750 0.01500
H 	H 	0.80930 0.57060 0.28140 0.11800
H 	H 	0.81240 0.52820 0.24670 0.10800
H 	H 	0.91810 0.57230 0.32650 0.06000
C 	C 	0.06470 0.55280 0.36520 0.29200
N 	N 	0.17300 0.25600 0.03360 -0.20300
H 	H 	0.20020 0.27600 0.05230 0.11500
H 	H 	0.20360 0.24360 0.01350 0.11700
C 	C 	0.97270 0.26890 0.08030 -0.02800
C 	C 	0.06280 0.27200 0.07000 -0.05700
H 	H 	0.10470 0.29140 0.08660 0.05700
C 	C 	0.09140 0.24670 0.03550 0.04800
C 	C 	0.03000 0.21830 0.01120 -0.05100
H 	H 	0.89800 0.19570 0.00500 0.02000
H 	H 	0.84980 0.23840 0.06310 0.03100
O 	O 	0.85360 0.80400 0.62310 -0.43100
O 	O 	0.98960 0.83070 0.63690 -0.43500
O 	O 	0.85810 0.94610 0.71470 -0.49000
O 	O 	0.99380 0.91520 0.70260 -0.43200
C 	C 	0.93770 0.94510 0.72430 0.32500
C 	C 	0.97370 0.97990 0.75900 -0.06100
C 	C 	0.06000 0.96520 0.77150 0.02100
C 	C 	0.92250 0.01970 0.78010 0.12300
H 	H 	0.09780 0.93890 0.75700 0.02200
C 	C 	0.08860 0.99050 0.80610 -0.05100
N 	N 	0.83700 0.04240 0.76780 -0.21100
C 	C 	0.95500 0.04420 0.81290 -0.05300
H 	H 	0.14630 0.97950 0.81550 0.03500
C 	C 	0.03730 0.03110 0.82750 0.01600
H 	H 	0.80930 0.07060 0.78140 0.11800
H 	H 	0.81240 0.02820 0.74670 0.10800
H 	H 	0.91810 0.07230 0.82650 0.05900
C 	C 	0.06470 0.05280 0.86520 0.29200
N 	N 	0.17300 0.75600 0.53360 -0.20300
H 	H 	0.20020 0.77600 0.55230 0.11500
H 	H 	0.20360 0.74360 0.51350 0.11700
C 	C 	0.97270 0.76890 0.58030 -0.02800
C 	C 	0.06280 0.77200 0.57000 -0.05800
H 	H 	0.10470 0.79140 0.58660 0.05700
C 	C 	0.09140 0.74670 0.53550 0.04800
C 	C 	0.03000 0.71830 0.51120 -0.05100
H 	H 	0.89800 0.69570 0.50500 0.02000
H 	H 	0.84980 0.73840 0.56310 0.03100
O 	O 	0.39640 0.44600 0.62310 -0.43100
O 	O 	0.26040 0.41930 0.63690 -0.43500
O 	O 	0.39190 0.30390 0.71470 -0.49000
O 	O 	0.25620 0.33480 0.70260 -0.43200
C 	C 	0.31230 0.30490 0.72430 0.32500
C 	C 	0.27630 0.27010 0.75900 -0.06200
C 	C 	0.19000 0.28480 0.77150 0.02200
C 	C 	0.32750 0.23030 0.78010 0.11900
H 	H 	0.15220 0.31110 0.75700 0.02200
C 	C 	0.16140 0.25950 0.80610 -0.05000
N 	N 	0.41300 0.20760 0.76780 -0.21000
C 	C 	0.29500 0.20580 0.81290 -0.05500
H 	H 	0.10370 0.27050 0.81550 0.03500
C 	C 	0.21270 0.21890 0.82750 0.01500
H 	H 	0.44070 0.17940 0.78140 0.11800
H 	H 	0.43760 0.22180 0.74670 0.10800
H 	H 	0.33190 0.17770 0.82650 0.06000
C 	C 	0.18530 0.19720 0.86520 0.29200
N 	N 	0.07700 0.49400 0.53360 -0.20300
H 	H 	0.04980 0.47400 0.55230 0.11500
H 	H 	0.04640 0.50640 0.51350 0.11700
C 	C 	0.27730 0.48110 0.58030 -0.02800
C 	C 	0.18720 0.47800 0.57000 -0.05700
H 	H 	0.14530 0.45860 0.58660 0.05600
C 	C 	0.15860 0.50330 0.53550 0.04900
C 	C 	0.22000 0.53170 0.51120 -0.05100
H 	H 	0.35200 0.55430 0.50500 0.02000
H 	H 	0.40020 0.51160 0.56310 0.03100
O 	O 	0.39640 0.94600 0.12310 -0.43100
O 	O 	0.26040 0.91930 0.13690 -0.43500
O 	O 	0.39190 0.80390 0.21470 -0.49000
O 	O 	0.25620 0.83480 0.20260 -0.43200
C 	C 	0.31230 0.80490 0.22430 0.32500
C 	C 	0.27630 0.77010 0.25900 -0.06200
C 	C 	0.19000 0.78480 0.27150 0.02100
C 	C 	0.32750 0.73030 0.28010 0.11900
H 	H 	0.15220 0.81110 0.25700 0.02200
C 	C 	0.16140 0.75950 0.30610 -0.05000
N 	N 	0.41300 0.70760 0.26780 -0.21000
C 	C 	0.29500 0.70580 0.31290 -0.05500
H 	H 	0.10370 0.77050 0.31550 0.03500
C 	C 	0.21270 0.71890 0.32750 0.01500
H 	H 	0.44070 0.67940 0.28140 0.11800
H 	H 	0.43760 0.72180 0.24670 0.10800
H 	H 	0.33190 0.67770 0.32650 0.06000
C 	C 	0.18530 0.69720 0.36520 0.29200
N 	N 	0.07700 0.99400 0.03360 -0.20300
H 	H 	0.04980 0.97400 0.05230 0.11500
H 	H 	0.04640 0.00640 0.01350 0.11700
C 	C 	0.27730 0.98110 0.08030 -0.02800
C 	C 	0.18720 0.97800 0.07000 -0.05800
H 	H 	0.14530 0.95860 0.08660 0.05700
C 	C 	0.15860 0.00330 0.03550 0.04800
C 	C 	0.22000 0.03170 0.01120 -0.05100
H 	H 	0.35200 0.05430 0.00500 0.02000
H 	H 	0.40020 0.01160 0.06310 0.03100
O 	O 	0.89640 0.44600 0.12310 -0.43100
O 	O 	0.76040 0.41930 0.13690 -0.43500
O 	O 	0.89190 0.30390 0.21470 -0.49000
O 	O 	0.75620 0.33480 0.20260 -0.43200
C 	C 	0.81230 0.30490 0.22430 0.32500
C 	C 	0.77630 0.27010 0.25900 -0.06200
C 	C 	0.69000 0.28480 0.27150 0.02200
C 	C 	0.82750 0.23030 0.28010 0.11900
H 	H 	0.65220 0.31110 0.25700 0.02200
C 	C 	0.66140 0.25950 0.30610 -0.05000
N 	N 	0.91300 0.20760 0.26780 -0.21000
C 	C 	0.79500 0.20580 0.31290 -0.05500
H 	H 	0.60370 0.27050 0.31550 0.03500
C 	C 	0.71270 0.21890 0.32750 0.01500
H 	H 	0.94070 0.17940 0.28140 0.11800
H 	H 	0.93760 0.22180 0.24670 0.10800
H 	H 	0.83190 0.17770 0.32650 0.06000
C 	C 	0.68530 0.19720 0.36520 0.29200
N 	N 	0.57700 0.49400 0.03360 -0.20300
H 	H 	0.54980 0.47400 0.05230 0.11500
H 	H 	0.54640 0.50640 0.01350 0.11700
C 	C 	0.77730 0.48110 0.08030 -0.02800
C 	C 	0.68720 0.47800 0.07000 -0.05800
H 	H 	0.64530 0.45860 0.08660 0.05700
C 	C 	0.65860 0.50330 0.03550 0.04900
C 	C 	0.72000 0.53170 0.01120 -0.05100
H 	H 	0.85200 0.55430 0.00500 0.02000
H 	H 	0.90020 0.51160 0.06310 0.03100
O 	O 	0.89640 0.94600 0.62310 -0.43100
O 	O 	0.76040 0.91930 0.63690 -0.43500
O 	O 	0.89190 0.80390 0.71470 -0.49000
O 	O 	0.75620 0.83480 0.70260 -0.43200
C 	C 	0.81230 0.80490 0.72430 0.32500
C 	C 	0.77630 0.77010 0.75900 -0.06200
C 	C 	0.69000 0.78480 0.77150 0.02200
C 	C 	0.82750 0.73030 0.78010 0.11900
H 	H 	0.65220 0.81110 0.75700 0.02200
C 	C 	0.66140 0.75950 0.80610 -0.05000
N 	N 	0.91300 0.70760 0.76780 -0.21000
C 	C 	0.79500 0.70580 0.81290 -0.05500
H 	H 	0.60370 0.77050 0.81550 0.03500
C 	C 	0.71270 0.71890 0.82750 0.01500
H 	H 	0.94070 0.67940 0.78140 0.11800
H 	H 	0.93760 0.72180 0.74670 0.10800
H 	H 	0.83190 0.67770 0.82650 0.06000
C 	C 	0.68530 0.69720 0.86520 0.29200
N 	N 	0.57700 0.99400 0.53360 -0.20400
H 	H 	0.54980 0.97400 0.55230 0.11500
H 	H 	0.54640 0.00640 0.51350 0.11700
C 	C 	0.77730 0.98110 0.58030 -0.02800
C 	C 	0.68720 0.97800 0.57000 -0.05600
H 	H 	0.64530 0.95860 0.58660 0.05600
C 	C 	0.65860 0.00330 0.53550 0.05100
C 	C 	0.72000 0.03170 0.51120 -0.05100
H 	H 	0.85200 0.05430 0.50500 0.02000
H 	H 	0.90020 0.01160 0.56310 0.03100
O 	O 	0.60360 0.69600 0.87310 -0.43100
O 	O 	0.73960 0.66930 0.88690 -0.43500
O 	O 	0.60810 0.55390 0.96470 -0.49000
O 	O 	0.74380 0.58480 0.95260 -0.43200
C 	C 	0.68770 0.55490 0.97430 0.32500
C 	C 	0.72370 0.52010 0.00900 -0.06200
C 	C 	0.81000 0.53480 0.02150 0.02100
C 	C 	0.67250 0.48030 0.03010 0.11900
H 	H 	0.84780 0.56110 0.00700 0.02200
C 	C 	0.83860 0.50950 0.05610 -0.05000
N 	N 	0.58700 0.45760 0.01780 -0.21000
C 	C 	0.70500 0.45580 0.06290 -0.05500
H 	H 	0.89630 0.52050 0.06550 0.03500
C 	C 	0.78730 0.46890 0.07750 0.01500
H 	H 	0.55930 0.42940 0.03140 0.11800
H 	H 	0.56240 0.47180 0.99670 0.10800
H 	H 	0.66810 0.42770 0.07650 0.06000
C 	C 	0.81470 0.44720 0.11520 0.29200
N 	N 	0.92300 0.74400 0.78360 -0.20300
H 	H 	0.95020 0.72400 0.80230 0.11500
H 	H 	0.95360 0.75640 0.76350 0.11700
C 	C 	0.72270 0.73110 0.83030 -0.02800
C 	C 	0.81280 0.72800 0.82000 -0.05800
H 	H 	0.85470 0.70860 0.83660 0.05700
C 	C 	0.84140 0.75330 0.78550 0.04800
C 	C 	0.78000 0.78170 0.76120 -0.05100
H 	H 	0.64800 0.80430 0.75500 0.02000
H 	H 	0.59980 0.76160 0.81310 0.03100
O 	O 	0.60360 0.19600 0.37310 -0.43100
O 	O 	0.73960 0.16930 0.38690 -0.43500
O 	O 	0.60810 0.05390 0.46470 -0.49000
O 	O 	0.74380 0.08480 0.45260 -0.43200
C 	C 	0.68770 0.05490 0.47430 0.32500
C 	C 	0.72370 0.02010 0.50900 -0.06200
C 	C 	0.81000 0.03480 0.52150 0.02200
C 	C 	0.67250 0.98030 0.53010 0.11700
H 	H 	0.84780 0.06110 0.50700 0.02200
C 	C 	0.83860 0.00950 0.55610 -0.05000
N 	N 	0.58700 0.95760 0.51780 -0.20900
C 	C 	0.70500 0.95580 0.56290 -0.05600
H 	H 	0.89630 0.02050 0.56550 0.03500
C 	C 	0.78730 0.96890 0.57750 0.01500
H 	H 	0.55930 0.92940 0.53140 0.11800
H 	H 	0.56240 0.97180 0.49670 0.10800
H 	H 	0.66810 0.92770 0.57650 0.06000
C 	C 	0.81470 0.94720 0.61520 0.29200
N 	N 	0.92300 0.24400 0.28360 -0.20300
H 	H 	0.95020 0.22400 0.30230 0.11500
H 	H 	0.95360 0.25640 0.26350 0.11700
C 	C 	0.72270 0.23110 0.33030 -0.02800
C 	C 	0.81280 0.22800 0.32000 -0.05700
H 	H 	0.85470 0.20860 0.33660 0.05600
C 	C 	0.84140 0.25330 0.28550 0.04900
C 	C 	0.78000 0.28170 0.26120 -0.05100
H 	H 	0.64800 0.30430 0.25500 0.02000
H 	H 	0.59980 0.26160 0.31310 0.03100
O 	O 	0.10360 0.69600 0.37310 -0.43100
O 	O 	0.23960 0.66930 0.38690 -0.43500
O 	O 	0.10810 0.55390 0.46470 -0.49000
O 	O 	0.24380 0.58480 0.45260 -0.43200
C 	C 	0.18770 0.55490 0.47430 0.32500
C 	C 	0.22370 0.52010 0.50900 -0.06200
C 	C 	0.31000 0.53480 0.52150 0.02200
C 	C 	0.17250 0.48030 0.53010 0.11900
H 	H 	0.34780 0.56110 0.50700 0.02200
C 	C 	0.33860 0.50950 0.55610 -0.05000
N 	N 	0.08700 0.45760 0.51780 -0.21000
C 	C 	0.20500 0.45580 0.56290 -0.05500
H 	H 	0.39630 0.52050 0.56550 0.03500
C 	C 	0.28730 0.46890 0.57750 0.01500
H 	H 	0.05930 0.42940 0.53140 0.11800
H 	H 	0.06240 0.47180 0.49670 0.10800
H 	H 	0.16810 0.42770 0.57650 0.06000
C 	C 	0.31470 0.44720 0.61520 0.29200
N 	N 	0.42300 0.74400 0.28360 -0.20300
H 	H 	0.45020 0.72400 0.30230 0.11500
H 	H 	0.45360 0.75640 0.26350 0.11700
C 	C 	0.22270 0.73110 0.33030 -0.02800
C 	C 	0.31280 0.72800 0.32000 -0.05700
H 	H 	0.35470 0.70860 0.33660 0.05600
C 	C 	0.34140 0.75330 0.28550 0.04900
C 	C 	0.28000 0.78170 0.26120 -0.05100
H 	H 	0.14800 0.80430 0.25500 0.02000
H 	H 	0.09980 0.76160 0.31310 0.03100
O 	O 	0.10360 0.19600 0.87310 -0.43100
O 	O 	0.23960 0.16930 0.88690 -0.43500
O 	O 	0.10810 0.05390 0.96470 -0.49000
O 	O 	0.24380 0.08480 0.95260 -0.43200
C 	C 	0.18770 0.05490 0.97430 0.32500
C 	C 	0.22370 0.02010 0.00900 -0.06200
C 	C 	0.31000 0.03480 0.02150 0.02200
C 	C 	0.17250 0.98030 0.03010 0.12000
H 	H 	0.34780 0.06110 0.00700 0.02200
C 	C 	0.33860 0.00950 0.05610 -0.05000
N 	N 	0.08700 0.95760 0.01780 -0.21000
C 	C 	0.20500 0.95580 0.06290 -0.05400
H 	H 	0.39630 0.02050 0.06550 0.03500
C 	C 	0.28730 0.96890 0.07750 0.01500
H 	H 	0.05930 0.92940 0.03140 0.11800
H 	H 	0.06240 0.97180 0.99670 0.10800
H 	H 	0.16810 0.92770 0.07650 0.06000
C 	C 	0.31470 0.94720 0.11520 0.29200
N 	N 	0.42300 0.24400 0.78360 -0.20300
H 	H 	0.45020 0.22400 0.80230 0.11500
H 	H 	0.45360 0.25640 0.76350 0.11700
C 	C 	0.22270 0.23110 0.83030 -0.02800
C 	C 	0.31280 0.22800 0.82000 -0.05700
H 	H 	0.35470 0.20860 0.83660 0.05700
C 	C 	0.34140 0.25330 0.78550 0.04900
C 	C 	0.28000 0.28170 0.76120 -0.05100
H 	H 	0.14800 0.30430 0.75500 0.02000
H 	H 	0.09980 0.26160 0.81310 0.03100
O 	O 	0.64640 0.55400 0.87310 -0.43100
O 	O 	0.51040 0.58070 0.88690 -0.43500
O 	O 	0.64190 0.69610 0.96470 -0.49000
O 	O 	0.50620 0.66520 0.95260 -0.43200
C 	C 	0.56230 0.69510 0.97430 0.32500
C 	C 	0.52630 0.72990 0.00900 -0.06200
C 	C 	0.44000 0.71520 0.02150 0.02200
C 	C 	0.57750 0.76970 0.03010 0.11900
H 	H 	0.40220 0.68890 0.00700 0.02200
C 	C 	0.41140 0.74050 0.05610 -0.05000
N 	N 	0.66300 0.79240 0.01780 -0.21000
C 	C 	0.54500 0.79420 0.06290 -0.05500
H 	H 	0.35370 0.72950 0.06550 0.03500
C 	C 	0.46270 0.78110 0.07750 0.01500
H 	H 	0.69070 0.82060 0.03140 0.11800
H 	H 	0.68760 0.77820 0.99670 0.10800
H 	H 	0.58190 0.82230 0.07650 0.06000
C 	C 	0.43530 0.80280 0.11520 0.29200
N 	N 	0.32700 0.50600 0.78360 -0.20300
H 	H 	0.29980 0.52600 0.80230 0.11500
H 	H 	0.29640 0.49360 0.76350 0.11700
C 	C 	0.52730 0.51890 0.83030 -0.02800
C 	C 	0.43720 0.52200 0.82000 -0.05700
H 	H 	0.39530 0.54140 0.83660 0.05700
C 	C 	0.40860 0.49670 0.78550 0.04900
C 	C 	0.47000 0.46830 0.76120 -0.05100
H 	H 	0.60200 0.44570 0.75500 0.02000
H 	H 	0.65020 0.48840 0.81310 0.03100
O 	O 	0.64640 0.05400 0.37310 -0.43100
O 	O 	0.51040 0.08070 0.38690 -0.43500
O 	O 	0.64190 0.19610 0.46470 -0.49000
O 	O 	0.50620 0.16520 0.45260 -0.43200
C 	C 	0.56230 0.19510 0.47430 0.32500
C 	C 	0.52630 0.22990 0.50900 -0.06200
C 	C 	0.44000 0.21520 0.52150 0.02200
C 	C 	0.57750 0.26970 0.53010 0.11900
H 	H 	0.40220 0.18890 0.50700 0.02200
C 	C 	0.41140 0.24050 0.55610 -0.05000
N 	N 	0.66300 0.29240 0.51780 -0.21000
C 	C 	0.54500 0.29420 0.56290 -0.05500
H 	H 	0.35370 0.22950 0.56550 0.03500
C 	C 	0.46270 0.28110 0.57750 0.01500
H 	H 	0.69070 0.32060 0.53140 0.11800
H 	H 	0.68760 0.27820 0.49670 0.10800
H 	H 	0.58190 0.32230 0.57650 0.06000
C 	C 	0.43530 0.30280 0.61520 0.29200
N 	N 	0.32700 0.00600 0.28360 -0.20300
H 	H 	0.29980 0.02600 0.30230 0.11500
H 	H 	0.29640 0.99360 0.26350 0.11700
C 	C 	0.52730 0.01890 0.33030 -0.02800
C 	C 	0.43720 0.02200 0.32000 -0.05700
H 	H 	0.39530 0.04140 0.33660 0.05600
C 	C 	0.40860 0.99670 0.28550 0.04900
C 	C 	0.47000 0.96830 0.26120 -0.05100
H 	H 	0.60200 0.94570 0.25500 0.02000
H 	H 	0.65020 0.98840 0.31310 0.03100
O 	O 	0.14640 0.55400 0.37310 -0.43100
O 	O 	0.01040 0.58070 0.38690 -0.43500
O 	O 	0.14190 0.69610 0.46470 -0.49000
O 	O 	0.00620 0.66520 0.45260 -0.43200
C 	C 	0.06230 0.69510 0.47430 0.32500
C 	C 	0.02630 0.72990 0.50900 -0.06200
C 	C 	0.94000 0.71520 0.52150 0.02200
C 	C 	0.07750 0.76970 0.53010 0.12000
H 	H 	0.90220 0.68890 0.50700 0.02200
C 	C 	0.91140 0.74050 0.55610 -0.05000
N 	N 	0.16300 0.79240 0.51780 -0.21000
C 	C 	0.04500 0.79420 0.56290 -0.05500
H 	H 	0.85370 0.72950 0.56550 0.03500
C 	C 	0.96270 0.78110 0.57750 0.01500
H 	H 	0.19070 0.82060 0.53140 0.11800
H 	H 	0.18760 0.77820 0.49670 0.10800
H 	H 	0.08190 0.82230 0.57650 0.06000
C 	C 	0.93530 0.80280 0.61520 0.29200
N 	N 	0.82700 0.50600 0.28360 -0.20300
H 	H 	0.79980 0.52600 0.30230 0.11500
H 	H 	0.79640 0.49360 0.26350 0.11700
C 	C 	0.02730 0.51890 0.33030 -0.02800
C 	C 	0.93720 0.52200 0.32000 -0.05800
H 	H 	0.89530 0.54140 0.33660 0.05700
C 	C 	0.90860 0.49670 0.28550 0.04900
C 	C 	0.97000 0.46830 0.26120 -0.05100
H 	H 	0.10200 0.44570 0.25500 0.02000
H 	H 	0.15020 0.48840 0.31310 0.03100
O 	O 	0.14640 0.05400 0.87310 -0.43100
O 	O 	0.01040 0.08070 0.88690 -0.43500
O 	O 	0.14190 0.19610 0.96470 -0.49000
O 	O 	0.00620 0.16520 0.95260 -0.43200
C 	C 	0.06230 0.19510 0.97430 0.32500
C 	C 	0.02630 0.22990 0.00900 -0.06200
C 	C 	0.94000 0.21520 0.02150 0.02100
C 	C 	0.07750 0.26970 0.03010 0.11900
H 	H 	0.90220 0.18890 0.00700 0.02200
C 	C 	0.91140 0.24050 0.05610 -0.05000
N 	N 	0.16300 0.29240 0.01780 -0.21000
C 	C 	0.04500 0.29420 0.06290 -0.05500
H 	H 	0.85370 0.22950 0.06550 0.03500
C 	C 	0.96270 0.28110 0.07750 0.01500
H 	H 	0.19070 0.32060 0.03140 0.11800
H 	H 	0.18760 0.27820 0.99670 0.10800
H 	H 	0.08190 0.32230 0.07650 0.06000
C 	C 	0.93530 0.30280 0.11520 0.29200
N 	N 	0.82700 0.00600 0.78360 -0.20200
H 	H 	0.79980 0.02600 0.80230 0.11500
H 	H 	0.79640 0.99360 0.76350 0.11700
C 	C 	0.02730 0.01890 0.83030 -0.02800
C 	C 	0.93720 0.02200 0.82000 -0.06000
H 	H 	0.89530 0.04140 0.83660 0.05700
C 	C 	0.90860 0.99670 0.78550 0.04500
C 	C 	0.97000 0.96830 0.76120 -0.05100
H 	H 	0.10200 0.94570 0.75500 0.02000
H 	H 	0.15020 0.98840 0.81310 0.03100
In	In	0.37500 0.37500 0.66994 2.00100
In	In	0.37500 0.87500 0.16994 2.00100
In	In	0.87500 0.37500 0.16994 2.00100
In	In	0.87500 0.87500 0.66994 2.00100
In	In	0.62500 0.62500 0.91994 2.00100
In	In	0.62500 0.12500 0.41994 2.00100
In	In	0.12500 0.62500 0.41994 2.00100
In	In	0.12500 0.12500 0.91994 2.00100
