data_crystal

_cell_length_a 15.15100
_cell_length_b 23.28200
_cell_length_c 33.96100
_cell_angle_alpha 90.00000
_cell_angle_beta  90.00000
_cell_angle_gamma 90.00000

_symmetry_space_group_name_	'P 1'
_symmetry_space_group_name_H-M	'P 1'

loop_
_symmetry_equiv_pos_as_xyz
  x,y,z

loop_
_atom_site_label
_atom_site_type_symbol
_atom_site_fract_x
_atom_site_fract_y
_atom_site_fract_z
_atom_site_charge
O 	O 	0.48870 0.41760 0.10521 -0.43700
O 	O 	0.35350 0.44040 0.12052 -0.43200
O 	O 	0.64330 0.55800 0.27554 -0.48100
O 	O 	0.50880 0.58510 0.28857 -0.45500
C 	C 	0.43480 0.44310 0.12760 0.27700
C 	C 	0.46670 0.47770 0.16260 -0.01000
C 	C 	0.41050 0.50680 0.18620 -0.13500
C 	C 	0.55750 0.47560 0.17180 -0.05400
C 	C 	0.44280 0.53370 0.22010 0.19800
H 	H 	0.35250 0.51440 0.17710 0.04200
H 	H 	0.59690 0.45550 0.15500 0.04900
C 	C 	0.59000 0.50260 0.20540 0.08300
C 	C 	0.53120 0.53370 0.22980 -0.07100
C 	C 	0.56140 0.55720 0.26690 0.34100
N 	N 	0.67850 0.49430 0.21110 -0.20100
H 	H 	0.70890 0.47350 0.19420 0.11700
H 	H 	0.70500 0.50980 0.23160 0.11500
C 	C 	0.54870 0.45810 0.17800 -0.05400
C 	C 	0.58050 0.48180 0.21220 0.07800
N 	N 	0.66360 0.46100 0.22580 -0.19300
C 	C 	0.46780 0.46650 0.16500 0.01900
C 	C 	0.52790 0.51990 0.23310 -0.10100
H 	H 	0.34960 0.50890 0.17980 0.04200
H 	H 	0.58690 0.43430 0.16300 0.04800
H 	H 	0.68680 0.47480 0.24750 0.10800
H 	H 	0.69160 0.43430 0.21230 0.10000
N 	N 	0.38100 0.56400 0.23800 -0.31900
H 	H 	0.32710 0.56570 0.22820 0.15100
H 	H 	0.39330 0.58330 0.25970 0.18000
O 	O 	0.48870 0.91760 0.60521 -0.43800
O 	O 	0.35350 0.94040 0.62052 -0.43300
O 	O 	0.64330 0.05800 0.77554 -0.48200
O 	O 	0.50880 0.08510 0.78857 -0.45600
C 	C 	0.43480 0.94310 0.62760 0.27700
C 	C 	0.46670 0.97770 0.66260 -0.01000
C 	C 	0.41050 0.00680 0.68620 -0.13500
C 	C 	0.55750 0.97560 0.67180 -0.05400
C 	C 	0.44280 0.03370 0.72010 0.19800
H 	H 	0.35250 0.01440 0.67710 0.04200
H 	H 	0.59690 0.95550 0.65500 0.04900
C 	C 	0.59000 0.00260 0.70540 0.08400
C 	C 	0.53120 0.03370 0.72980 -0.07100
C 	C 	0.56140 0.05720 0.76690 0.34100
N 	N 	0.67850 0.99430 0.71110 -0.20100
H 	H 	0.70890 0.97350 0.69420 0.11700
H 	H 	0.70500 0.00980 0.73160 0.11500
C 	C 	0.54870 0.95810 0.67800 -0.05400
C 	C 	0.58050 0.98180 0.71220 0.07700
N 	N 	0.66360 0.96100 0.72580 -0.19300
C 	C 	0.46780 0.96650 0.66500 0.01900
C 	C 	0.52790 0.01990 0.73310 -0.10100
H 	H 	0.34960 0.00890 0.67980 0.04200
H 	H 	0.58690 0.93430 0.66300 0.04800
H 	H 	0.68680 0.97480 0.74750 0.10800
H 	H 	0.69160 0.93430 0.71230 0.10000
N 	N 	0.38100 0.06400 0.73800 -0.31900
H 	H 	0.32710 0.06570 0.72820 0.15100
H 	H 	0.39330 0.08330 0.75970 0.18000
O 	O 	0.98870 0.41760 0.60521 -0.43800
O 	O 	0.85350 0.44040 0.62052 -0.43300
O 	O 	0.14330 0.55800 0.77554 -0.48200
O 	O 	0.00880 0.58510 0.78857 -0.45600
C 	C 	0.93480 0.44310 0.62760 0.27700
C 	C 	0.96670 0.47770 0.66260 -0.01000
C 	C 	0.91050 0.50680 0.68620 -0.13500
C 	C 	0.05750 0.47560 0.67180 -0.05400
C 	C 	0.94280 0.53370 0.72010 0.19800
H 	H 	0.85250 0.51440 0.67710 0.04200
H 	H 	0.09690 0.45550 0.65500 0.04900
C 	C 	0.09000 0.50260 0.70540 0.08300
C 	C 	0.03120 0.53370 0.72980 -0.07100
C 	C 	0.06140 0.55720 0.76690 0.34100
N 	N 	0.17850 0.49430 0.71110 -0.20100
H 	H 	0.20890 0.47350 0.69420 0.11700
H 	H 	0.20500 0.50980 0.73160 0.11500
C 	C 	0.04870 0.45810 0.67800 -0.05400
C 	C 	0.08050 0.48180 0.71220 0.07800
N 	N 	0.16360 0.46100 0.72580 -0.19300
C 	C 	0.96780 0.46650 0.66500 0.01900
C 	C 	0.02790 0.51990 0.73310 -0.10100
H 	H 	0.84960 0.50890 0.67980 0.04200
H 	H 	0.08690 0.43430 0.66300 0.04800
H 	H 	0.18680 0.47480 0.74750 0.10800
H 	H 	0.19160 0.43430 0.71230 0.10000
N 	N 	0.88100 0.56400 0.73800 -0.31900
H 	H 	0.82710 0.56570 0.72820 0.15100
H 	H 	0.89330 0.58330 0.75970 0.18000
O 	O 	0.98870 0.91760 0.10521 -0.43700
O 	O 	0.85350 0.94040 0.12052 -0.43300
O 	O 	0.14330 0.05800 0.27554 -0.48200
O 	O 	0.00880 0.08510 0.28857 -0.45600
C 	C 	0.93480 0.94310 0.12760 0.27700
C 	C 	0.96670 0.97770 0.16260 -0.01000
C 	C 	0.91050 0.00680 0.18620 -0.13600
C 	C 	0.05750 0.97560 0.17180 -0.05600
C 	C 	0.94280 0.03370 0.22010 0.19800
H 	H 	0.85250 0.01440 0.17710 0.04200
H 	H 	0.09690 0.95550 0.15500 0.05000
C 	C 	0.09000 0.00260 0.20540 0.07900
C 	C 	0.03120 0.03370 0.22980 -0.07200
C 	C 	0.06140 0.05720 0.26690 0.34100
N 	N 	0.17850 0.99430 0.21110 -0.20000
H 	H 	0.20890 0.97350 0.19420 0.11700
H 	H 	0.20500 0.00980 0.23160 0.11500
C 	C 	0.04870 0.95810 0.17800 -0.05400
C 	C 	0.08050 0.98180 0.21220 0.08200
N 	N 	0.16360 0.96100 0.22580 -0.19400
C 	C 	0.96780 0.96650 0.16500 0.02000
C 	C 	0.02790 0.01990 0.23310 -0.10000
H 	H 	0.84960 0.00890 0.17980 0.04200
H 	H 	0.08690 0.93430 0.16300 0.04800
H 	H 	0.18680 0.97480 0.24750 0.10800
H 	H 	0.19160 0.93430 0.21230 0.10000
N 	N 	0.88100 0.06400 0.23800 -0.31900
H 	H 	0.82710 0.06570 0.22820 0.15100
H 	H 	0.89330 0.08330 0.25970 0.18000
O 	O 	0.26130 0.33240 0.10521 -0.43800
O 	O 	0.39650 0.30960 0.12052 -0.43300
O 	O 	0.10670 0.19200 0.27554 -0.48200
O 	O 	0.24120 0.16490 0.28857 -0.45600
C 	C 	0.31520 0.30690 0.12760 0.27700
C 	C 	0.28330 0.27230 0.16260 -0.01000
C 	C 	0.33950 0.24320 0.18620 -0.13500
C 	C 	0.19250 0.27440 0.17180 -0.05400
C 	C 	0.30720 0.21630 0.22010 0.19800
H 	H 	0.39750 0.23560 0.17710 0.04200
H 	H 	0.15310 0.29450 0.15500 0.04900
C 	C 	0.16000 0.24740 0.20540 0.08300
C 	C 	0.21880 0.21630 0.22980 -0.07100
C 	C 	0.18860 0.19280 0.26690 0.34100
N 	N 	0.07150 0.25570 0.21110 -0.20100
H 	H 	0.04110 0.27650 0.19420 0.11700
H 	H 	0.04500 0.24020 0.23160 0.11500
C 	C 	0.20130 0.29190 0.17800 -0.05400
C 	C 	0.16950 0.26820 0.21220 0.07800
N 	N 	0.08640 0.28900 0.22580 -0.19300
C 	C 	0.28220 0.28350 0.16500 0.01900
C 	C 	0.22210 0.23010 0.23310 -0.10100
H 	H 	0.40040 0.24110 0.17980 0.04200
H 	H 	0.16310 0.31570 0.16300 0.04800
H 	H 	0.06320 0.27520 0.24750 0.10800
H 	H 	0.05840 0.31570 0.21230 0.10000
N 	N 	0.36900 0.18600 0.23800 -0.31900
H 	H 	0.42290 0.18430 0.22820 0.15100
H 	H 	0.35670 0.16670 0.25970 0.18000
O 	O 	0.26130 0.83240 0.60521 -0.43800
O 	O 	0.39650 0.80960 0.62052 -0.43300
O 	O 	0.10670 0.69200 0.77554 -0.48200
O 	O 	0.24120 0.66490 0.78857 -0.45600
C 	C 	0.31520 0.80690 0.62760 0.27700
C 	C 	0.28330 0.77230 0.66260 -0.01000
C 	C 	0.33950 0.74320 0.68620 -0.13500
C 	C 	0.19250 0.77440 0.67180 -0.05400
C 	C 	0.30720 0.71630 0.72010 0.19800
H 	H 	0.39750 0.73560 0.67710 0.04200
H 	H 	0.15310 0.79450 0.65500 0.04900
C 	C 	0.16000 0.74740 0.70540 0.08300
C 	C 	0.21880 0.71630 0.72980 -0.07100
C 	C 	0.18860 0.69280 0.76690 0.34100
N 	N 	0.07150 0.75570 0.71110 -0.20100
H 	H 	0.04110 0.77650 0.69420 0.11700
H 	H 	0.04500 0.74020 0.73160 0.11500
C 	C 	0.20130 0.79190 0.67800 -0.05400
C 	C 	0.16950 0.76820 0.71220 0.07800
N 	N 	0.08640 0.78900 0.72580 -0.19300
C 	C 	0.28220 0.78350 0.66500 0.01900
C 	C 	0.22210 0.73010 0.73310 -0.10100
H 	H 	0.40040 0.74110 0.67980 0.04200
H 	H 	0.16310 0.81570 0.66300 0.04800
H 	H 	0.06320 0.77520 0.74750 0.10800
H 	H 	0.05840 0.81570 0.71230 0.10000
N 	N 	0.36900 0.68600 0.73800 -0.31900
H 	H 	0.42290 0.68430 0.72820 0.15100
H 	H 	0.35670 0.66670 0.75970 0.18000
O 	O 	0.76130 0.33240 0.60521 -0.43800
O 	O 	0.89650 0.30960 0.62052 -0.43300
O 	O 	0.60670 0.19200 0.77554 -0.48200
O 	O 	0.74120 0.16490 0.78857 -0.45600
C 	C 	0.81520 0.30690 0.62760 0.27700
C 	C 	0.78330 0.27230 0.66260 -0.01000
C 	C 	0.83950 0.24320 0.68620 -0.13500
C 	C 	0.69250 0.27440 0.67180 -0.05400
C 	C 	0.80720 0.21630 0.72010 0.19800
H 	H 	0.89750 0.23560 0.67710 0.04200
H 	H 	0.65310 0.29450 0.65500 0.04900
C 	C 	0.66000 0.24740 0.70540 0.08300
C 	C 	0.71880 0.21630 0.72980 -0.07100
C 	C 	0.68860 0.19280 0.76690 0.34100
N 	N 	0.57150 0.25570 0.71110 -0.20100
H 	H 	0.54110 0.27650 0.69420 0.11700
H 	H 	0.54500 0.24020 0.73160 0.11500
C 	C 	0.70130 0.29190 0.67800 -0.05400
C 	C 	0.66950 0.26820 0.71220 0.07800
N 	N 	0.58640 0.28900 0.72580 -0.19300
C 	C 	0.78220 0.28350 0.66500 0.01900
C 	C 	0.72210 0.23010 0.73310 -0.10100
H 	H 	0.90040 0.24110 0.67980 0.04200
H 	H 	0.66310 0.31570 0.66300 0.04800
H 	H 	0.56320 0.27520 0.74750 0.10800
H 	H 	0.55840 0.31570 0.71230 0.10000
N 	N 	0.86900 0.18600 0.73800 -0.31900
H 	H 	0.92290 0.18430 0.72820 0.15100
H 	H 	0.85670 0.16670 0.75970 0.18000
O 	O 	0.76130 0.83240 0.10521 -0.43800
O 	O 	0.89650 0.80960 0.12052 -0.43300
O 	O 	0.60670 0.69200 0.27554 -0.48200
O 	O 	0.74120 0.66490 0.28857 -0.45600
C 	C 	0.81520 0.80690 0.12760 0.27700
C 	C 	0.78330 0.77230 0.16260 -0.01000
C 	C 	0.83950 0.74320 0.18620 -0.13500
C 	C 	0.69250 0.77440 0.17180 -0.05400
C 	C 	0.80720 0.71630 0.22010 0.19800
H 	H 	0.89750 0.73560 0.17710 0.04200
H 	H 	0.65310 0.79450 0.15500 0.04900
C 	C 	0.66000 0.74740 0.20540 0.08300
C 	C 	0.71880 0.71630 0.22980 -0.07100
C 	C 	0.68860 0.69280 0.26690 0.34100
N 	N 	0.57150 0.75570 0.21110 -0.20100
H 	H 	0.54110 0.77650 0.19420 0.11700
H 	H 	0.54500 0.74020 0.23160 0.11500
C 	C 	0.70130 0.79190 0.17800 -0.05400
C 	C 	0.66950 0.76820 0.21220 0.07800
N 	N 	0.58640 0.78900 0.22580 -0.19300
C 	C 	0.78220 0.78350 0.16500 0.01900
C 	C 	0.72210 0.73010 0.23310 -0.10100
H 	H 	0.90040 0.74110 0.17980 0.04200
H 	H 	0.66310 0.81570 0.16300 0.04800
H 	H 	0.56320 0.77520 0.24750 0.10800
H 	H 	0.55840 0.81570 0.21230 0.10000
N 	N 	0.86900 0.68600 0.23800 -0.31900
H 	H 	0.92290 0.68430 0.22820 0.15100
H 	H 	0.85670 0.66670 0.25970 0.18000
O 	O 	0.73870 0.58240 0.35521 -0.43800
O 	O 	0.60350 0.55960 0.37052 -0.43300
O 	O 	0.89330 0.44200 0.52554 -0.48200
O 	O 	0.75880 0.41490 0.53857 -0.45600
C 	C 	0.68480 0.55690 0.37760 0.27700
C 	C 	0.71670 0.52230 0.41260 -0.01000
C 	C 	0.66050 0.49320 0.43620 -0.13500
C 	C 	0.80750 0.52440 0.42180 -0.05400
C 	C 	0.69280 0.46630 0.47010 0.19800
H 	H 	0.60250 0.48560 0.42710 0.04200
H 	H 	0.84690 0.54450 0.40500 0.04900
C 	C 	0.84000 0.49740 0.45540 0.08300
C 	C 	0.78120 0.46630 0.47980 -0.07100
C 	C 	0.81140 0.44280 0.51690 0.34100
N 	N 	0.92850 0.50570 0.46110 -0.20100
H 	H 	0.95890 0.52650 0.44420 0.11700
H 	H 	0.95500 0.49020 0.48160 0.11500
C 	C 	0.79870 0.54190 0.42800 -0.05400
C 	C 	0.83050 0.51820 0.46220 0.07800
N 	N 	0.91360 0.53900 0.47580 -0.19300
C 	C 	0.71780 0.53350 0.41500 0.01900
C 	C 	0.77790 0.48010 0.48310 -0.10100
H 	H 	0.59960 0.49110 0.42980 0.04200
H 	H 	0.83690 0.56570 0.41300 0.04800
H 	H 	0.93680 0.52520 0.49750 0.10800
H 	H 	0.94160 0.56570 0.46230 0.10000
N 	N 	0.63100 0.43600 0.48800 -0.31900
H 	H 	0.57710 0.43430 0.47820 0.15100
H 	H 	0.64330 0.41670 0.50970 0.18000
O 	O 	0.73870 0.08240 0.85521 -0.43800
O 	O 	0.60350 0.05960 0.87052 -0.43300
O 	O 	0.89330 0.94200 0.02554 -0.48100
O 	O 	0.75880 0.91490 0.03857 -0.45600
C 	C 	0.68480 0.05690 0.87760 0.27700
C 	C 	0.71670 0.02230 0.91260 -0.01000
C 	C 	0.66050 0.99320 0.93620 -0.13500
C 	C 	0.80750 0.02440 0.92180 -0.05500
C 	C 	0.69280 0.96630 0.97010 0.19800
H 	H 	0.60250 0.98560 0.92710 0.04200
H 	H 	0.84690 0.04450 0.90500 0.04900
C 	C 	0.84000 0.99740 0.95540 0.08000
C 	C 	0.78120 0.96630 0.97980 -0.07200
C 	C 	0.81140 0.94280 0.01690 0.34100
N 	N 	0.92850 0.00570 0.96110 -0.20100
H 	H 	0.95890 0.02650 0.94420 0.11600
H 	H 	0.95500 0.99020 0.98160 0.11600
C 	C 	0.79870 0.04190 0.92800 -0.05400
C 	C 	0.83050 0.01820 0.96220 0.08100
N 	N 	0.91360 0.03900 0.97580 -0.19300
C 	C 	0.71780 0.03350 0.91500 0.01900
C 	C 	0.77790 0.98010 0.98310 -0.10000
H 	H 	0.59960 0.99110 0.92980 0.04200
H 	H 	0.83690 0.06570 0.91300 0.04800
H 	H 	0.93680 0.02520 0.99750 0.10800
H 	H 	0.94160 0.06570 0.96230 0.10000
N 	N 	0.63100 0.93600 0.98800 -0.31900
H 	H 	0.57710 0.93430 0.97820 0.15100
H 	H 	0.64330 0.91670 0.00970 0.18000
O 	O 	0.23870 0.58240 0.85521 -0.43800
O 	O 	0.10350 0.55960 0.87052 -0.43300
O 	O 	0.39330 0.44200 0.02554 -0.48200
O 	O 	0.25880 0.41490 0.03857 -0.45600
C 	C 	0.18480 0.55690 0.87760 0.27700
C 	C 	0.21670 0.52230 0.91260 -0.01000
C 	C 	0.16050 0.49320 0.93620 -0.13500
C 	C 	0.30750 0.52440 0.92180 -0.05400
C 	C 	0.19280 0.46630 0.97010 0.19800
H 	H 	0.10250 0.48560 0.92710 0.04200
H 	H 	0.34690 0.54450 0.90500 0.04900
C 	C 	0.34000 0.49740 0.95540 0.08300
C 	C 	0.28120 0.46630 0.97980 -0.07100
C 	C 	0.31140 0.44280 0.01690 0.34100
N 	N 	0.42850 0.50570 0.96110 -0.20100
H 	H 	0.45890 0.52650 0.94420 0.11700
H 	H 	0.45500 0.49020 0.98160 0.11500
C 	C 	0.29870 0.54190 0.92800 -0.05400
C 	C 	0.33050 0.51820 0.96220 0.07800
N 	N 	0.41360 0.53900 0.97580 -0.19300
C 	C 	0.21780 0.53350 0.91500 0.01900
C 	C 	0.27790 0.48010 0.98310 -0.10100
H 	H 	0.09960 0.49110 0.92980 0.04200
H 	H 	0.33690 0.56570 0.91300 0.04800
H 	H 	0.43680 0.52520 0.99750 0.10800
H 	H 	0.44160 0.56570 0.96230 0.10000
N 	N 	0.13100 0.43600 0.98800 -0.31900
H 	H 	0.07710 0.43430 0.97820 0.15100
H 	H 	0.14330 0.41670 0.00970 0.18000
O 	O 	0.23870 0.08240 0.35521 -0.43800
O 	O 	0.10350 0.05960 0.37052 -0.43300
O 	O 	0.39330 0.94200 0.52554 -0.48200
O 	O 	0.25880 0.91490 0.53857 -0.45600
C 	C 	0.18480 0.05690 0.37760 0.27700
C 	C 	0.21670 0.02230 0.41260 -0.01000
C 	C 	0.16050 0.99320 0.43620 -0.13600
C 	C 	0.30750 0.02440 0.42180 -0.05400
C 	C 	0.19280 0.96630 0.47010 0.19800
H 	H 	0.10250 0.98560 0.42710 0.04200
H 	H 	0.34690 0.04450 0.40500 0.04900
C 	C 	0.34000 0.99740 0.45540 0.08400
C 	C 	0.28120 0.96630 0.47980 -0.07100
C 	C 	0.31140 0.94280 0.51690 0.34100
N 	N 	0.42850 0.00570 0.46110 -0.20100
H 	H 	0.45890 0.02650 0.44420 0.11700
H 	H 	0.45500 0.99020 0.48160 0.11500
C 	C 	0.29870 0.04190 0.42800 -0.05500
C 	C 	0.33050 0.01820 0.46220 0.07700
N 	N 	0.41360 0.03900 0.47580 -0.19300
C 	C 	0.21780 0.03350 0.41500 0.01900
C 	C 	0.27790 0.98010 0.48310 -0.10100
H 	H 	0.09960 0.99110 0.42980 0.04200
H 	H 	0.33690 0.06570 0.41300 0.04800
H 	H 	0.43680 0.02520 0.49750 0.10800
H 	H 	0.44160 0.06570 0.46230 0.10000
N 	N 	0.13100 0.93600 0.48800 -0.31900
H 	H 	0.07710 0.93430 0.47820 0.15100
H 	H 	0.14330 0.91670 0.50970 0.18000
O 	O 	0.51130 0.66760 0.35521 -0.43800
O 	O 	0.64650 0.69040 0.37052 -0.43300
O 	O 	0.35670 0.80800 0.52554 -0.48200
O 	O 	0.49120 0.83510 0.53857 -0.45600
C 	C 	0.56520 0.69310 0.37760 0.27700
C 	C 	0.53330 0.72770 0.41260 -0.01000
C 	C 	0.58950 0.75680 0.43620 -0.13500
C 	C 	0.44250 0.72560 0.42180 -0.05400
C 	C 	0.55720 0.78370 0.47010 0.19800
H 	H 	0.64750 0.76440 0.42710 0.04200
H 	H 	0.40310 0.70550 0.40500 0.04900
C 	C 	0.41000 0.75260 0.45540 0.08300
C 	C 	0.46880 0.78370 0.47980 -0.07100
C 	C 	0.43860 0.80720 0.51690 0.34100
N 	N 	0.32150 0.74430 0.46110 -0.20100
H 	H 	0.29110 0.72350 0.44420 0.11700
H 	H 	0.29500 0.75980 0.48160 0.11500
C 	C 	0.45130 0.70810 0.42800 -0.05400
C 	C 	0.41950 0.73180 0.46220 0.07800
N 	N 	0.33640 0.71100 0.47580 -0.19300
C 	C 	0.53220 0.71650 0.41500 0.01900
C 	C 	0.47210 0.76990 0.48310 -0.10100
H 	H 	0.65040 0.75890 0.42980 0.04200
H 	H 	0.41310 0.68430 0.41300 0.04800
H 	H 	0.31320 0.72480 0.49750 0.10800
H 	H 	0.30840 0.68430 0.46230 0.10000
N 	N 	0.61900 0.81400 0.48800 -0.31900
H 	H 	0.67290 0.81570 0.47820 0.15100
H 	H 	0.60670 0.83330 0.50970 0.18000
O 	O 	0.51130 0.16760 0.85521 -0.43800
O 	O 	0.64650 0.19040 0.87052 -0.43300
O 	O 	0.35670 0.30800 0.02554 -0.48200
O 	O 	0.49120 0.33510 0.03857 -0.45600
C 	C 	0.56520 0.19310 0.87760 0.27700
C 	C 	0.53330 0.22770 0.91260 -0.01000
C 	C 	0.58950 0.25680 0.93620 -0.13500
C 	C 	0.44250 0.22560 0.92180 -0.05400
C 	C 	0.55720 0.28370 0.97010 0.19800
H 	H 	0.64750 0.26440 0.92710 0.04200
H 	H 	0.40310 0.20550 0.90500 0.04900
C 	C 	0.41000 0.25260 0.95540 0.08300
C 	C 	0.46880 0.28370 0.97980 -0.07100
C 	C 	0.43860 0.30720 0.01690 0.34100
N 	N 	0.32150 0.24430 0.96110 -0.20100
H 	H 	0.29110 0.22350 0.94420 0.11700
H 	H 	0.29500 0.25980 0.98160 0.11500
C 	C 	0.45130 0.20810 0.92800 -0.05400
C 	C 	0.41950 0.23180 0.96220 0.07800
N 	N 	0.33640 0.21100 0.97580 -0.19300
C 	C 	0.53220 0.21650 0.91500 0.01900
C 	C 	0.47210 0.26990 0.98310 -0.10100
H 	H 	0.65040 0.25890 0.92980 0.04200
H 	H 	0.41310 0.18430 0.91300 0.04800
H 	H 	0.31320 0.22480 0.99750 0.10800
H 	H 	0.30840 0.18430 0.96230 0.10000
N 	N 	0.61900 0.31400 0.98800 -0.31900
H 	H 	0.67290 0.31570 0.97820 0.15100
H 	H 	0.60670 0.33330 0.00970 0.18000
O 	O 	0.01130 0.66760 0.85521 -0.43800
O 	O 	0.14650 0.69040 0.87052 -0.43300
O 	O 	0.85670 0.80800 0.02554 -0.48200
O 	O 	0.99120 0.83510 0.03857 -0.45600
C 	C 	0.06520 0.69310 0.87760 0.27700
C 	C 	0.03330 0.72770 0.91260 -0.01000
C 	C 	0.08950 0.75680 0.93620 -0.13500
C 	C 	0.94250 0.72560 0.92180 -0.05400
C 	C 	0.05720 0.78370 0.97010 0.19800
H 	H 	0.14750 0.76440 0.92710 0.04200
H 	H 	0.90310 0.70550 0.90500 0.04900
C 	C 	0.91000 0.75260 0.95540 0.08300
C 	C 	0.96880 0.78370 0.97980 -0.07100
C 	C 	0.93860 0.80720 0.01690 0.34200
N 	N 	0.82150 0.74430 0.96110 -0.20100
H 	H 	0.79110 0.72350 0.94420 0.11700
H 	H 	0.79500 0.75980 0.98160 0.11500
C 	C 	0.95130 0.70810 0.92800 -0.05400
C 	C 	0.91950 0.73180 0.96220 0.07900
N 	N 	0.83640 0.71100 0.97580 -0.19300
C 	C 	0.03220 0.71650 0.91500 0.01900
C 	C 	0.97210 0.76990 0.98310 -0.10100
H 	H 	0.15040 0.75890 0.92980 0.04200
H 	H 	0.91310 0.68430 0.91300 0.04800
H 	H 	0.81320 0.72480 0.99750 0.10800
H 	H 	0.80840 0.68430 0.96230 0.10000
N 	N 	0.11900 0.81400 0.98800 -0.31900
H 	H 	0.17290 0.81570 0.97820 0.15100
H 	H 	0.10670 0.83330 0.00970 0.17900
O 	O 	0.01130 0.16760 0.35521 -0.43800
O 	O 	0.14650 0.19040 0.37052 -0.43300
O 	O 	0.85670 0.30800 0.52554 -0.48200
O 	O 	0.99120 0.33510 0.53857 -0.45700
C 	C 	0.06520 0.19310 0.37760 0.27700
C 	C 	0.03330 0.22770 0.41260 -0.01000
C 	C 	0.08950 0.25680 0.43620 -0.13500
C 	C 	0.94250 0.22560 0.42180 -0.05500
C 	C 	0.05720 0.28370 0.47010 0.19800
H 	H 	0.14750 0.26440 0.42710 0.04200
H 	H 	0.90310 0.20550 0.40500 0.04900
C 	C 	0.91000 0.25260 0.45540 0.08300
C 	C 	0.96880 0.28370 0.47980 -0.07100
C 	C 	0.93860 0.30720 0.51690 0.34100
N 	N 	0.82150 0.24430 0.46110 -0.20100
H 	H 	0.79110 0.22350 0.44420 0.11700
H 	H 	0.79500 0.25980 0.48160 0.11500
C 	C 	0.95130 0.20810 0.42800 -0.05400
C 	C 	0.91950 0.23180 0.46220 0.07900
N 	N 	0.83640 0.21100 0.47580 -0.19300
C 	C 	0.03220 0.21650 0.41500 0.01900
C 	C 	0.97210 0.26990 0.48310 -0.10100
H 	H 	0.15040 0.25890 0.42980 0.04200
H 	H 	0.91310 0.18430 0.41300 0.04800
H 	H 	0.81320 0.22480 0.49750 0.10800
H 	H 	0.80840 0.18430 0.46230 0.10000
N 	N 	0.11900 0.31400 0.48800 -0.31900
H 	H 	0.17290 0.31570 0.47820 0.15100
H 	H 	0.10670 0.33330 0.50970 0.18000
In	In	0.37500 0.37500 0.07207 1.99800
In	In	0.37500 0.87500 0.57207 1.99800
In	In	0.87500 0.37500 0.57207 1.99800
In	In	0.87500 0.87500 0.07207 1.99800
In	In	0.62500 0.62500 0.32207 1.99800
In	In	0.62500 0.12500 0.82207 1.99800
In	In	0.12500 0.62500 0.82207 1.99800
In	In	0.12500 0.12500 0.32207 1.99800
O 	O 	0.26130 0.41760 0.64479 -0.43800
O 	O 	0.39650 0.44040 0.62948 -0.43300
O 	O 	0.10670 0.55800 0.47446 -0.48200
O 	O 	0.24120 0.58510 0.46143 -0.45600
C 	C 	0.31520 0.44310 0.62240 0.27700
C 	C 	0.28330 0.47770 0.58740 -0.01000
C 	C 	0.33950 0.50680 0.56380 -0.13500
C 	C 	0.19250 0.47560 0.57820 -0.05400
C 	C 	0.30720 0.53370 0.52990 0.19800
H 	H 	0.39750 0.51440 0.57290 0.04200
H 	H 	0.15310 0.45550 0.59500 0.04900
C 	C 	0.16000 0.50260 0.54460 0.08300
C 	C 	0.21880 0.53370 0.52020 -0.07100
C 	C 	0.18860 0.55720 0.48310 0.34100
N 	N 	0.07150 0.49430 0.53890 -0.20100
H 	H 	0.04110 0.47350 0.55580 0.11700
H 	H 	0.04500 0.50980 0.51840 0.11500
C 	C 	0.20130 0.45810 0.57200 -0.05400
C 	C 	0.16950 0.48180 0.53780 0.07800
N 	N 	0.08640 0.46100 0.52420 -0.19300
C 	C 	0.28220 0.46650 0.58500 0.01900
C 	C 	0.22210 0.51990 0.51690 -0.10100
H 	H 	0.40040 0.50890 0.57020 0.04200
H 	H 	0.16310 0.43430 0.58700 0.04800
H 	H 	0.06320 0.47480 0.50250 0.10800
H 	H 	0.05840 0.43430 0.53770 0.10000
N 	N 	0.36900 0.56400 0.51200 -0.31900
H 	H 	0.42290 0.56570 0.52180 0.15100
H 	H 	0.35670 0.58330 0.49030 0.18000
O 	O 	0.26130 0.91760 0.14479 -0.43800
O 	O 	0.39650 0.94040 0.12948 -0.43300
O 	O 	0.10670 0.05800 0.97446 -0.48100
O 	O 	0.24120 0.08510 0.96143 -0.45600
C 	C 	0.31520 0.94310 0.12240 0.27700
C 	C 	0.28330 0.97770 0.08740 -0.01000
C 	C 	0.33950 0.00680 0.06380 -0.13500
C 	C 	0.19250 0.97560 0.07820 -0.05500
C 	C 	0.30720 0.03370 0.02990 0.19800
H 	H 	0.39750 0.01440 0.07290 0.04200
H 	H 	0.15310 0.95550 0.09500 0.04900
C 	C 	0.16000 0.00260 0.04460 0.08000
C 	C 	0.21880 0.03370 0.02020 -0.07200
C 	C 	0.18860 0.05720 0.98310 0.34100
N 	N 	0.07150 0.99430 0.03890 -0.20100
H 	H 	0.04110 0.97350 0.05580 0.11600
H 	H 	0.04500 0.00980 0.01840 0.11600
C 	C 	0.20130 0.95810 0.07200 -0.05400
C 	C 	0.16950 0.98180 0.03780 0.08100
N 	N 	0.08640 0.96100 0.02420 -0.19300
C 	C 	0.28220 0.96650 0.08500 0.01900
C 	C 	0.22210 0.01990 0.01690 -0.10000
H 	H 	0.40040 0.00890 0.07020 0.04200
H 	H 	0.16310 0.93430 0.08700 0.04800
H 	H 	0.06320 0.97480 0.00250 0.10800
H 	H 	0.05840 0.93430 0.03770 0.10000
N 	N 	0.36900 0.06400 0.01200 -0.31900
H 	H 	0.42290 0.06570 0.02180 0.15100
H 	H 	0.35670 0.08330 0.99030 0.18000
O 	O 	0.76130 0.41760 0.14479 -0.43800
O 	O 	0.89650 0.44040 0.12948 -0.43300
O 	O 	0.60670 0.55800 0.97446 -0.48200
O 	O 	0.74120 0.58510 0.96143 -0.45600
C 	C 	0.81520 0.44310 0.12240 0.27700
C 	C 	0.78330 0.47770 0.08740 -0.01000
C 	C 	0.83950 0.50680 0.06380 -0.13500
C 	C 	0.69250 0.47560 0.07820 -0.05400
C 	C 	0.80720 0.53370 0.02990 0.19800
H 	H 	0.89750 0.51440 0.07290 0.04200
H 	H 	0.65310 0.45550 0.09500 0.04900
C 	C 	0.66000 0.50260 0.04460 0.08300
C 	C 	0.71880 0.53370 0.02020 -0.07100
C 	C 	0.68860 0.55720 0.98310 0.34100
N 	N 	0.57150 0.49430 0.03890 -0.20100
H 	H 	0.54110 0.47350 0.05580 0.11700
H 	H 	0.54500 0.50980 0.01840 0.11500
C 	C 	0.70130 0.45810 0.07200 -0.05400
C 	C 	0.66950 0.48180 0.03780 0.07800
N 	N 	0.58640 0.46100 0.02420 -0.19300
C 	C 	0.78220 0.46650 0.08500 0.01900
C 	C 	0.72210 0.51990 0.01690 -0.10100
H 	H 	0.90040 0.50890 0.07020 0.04200
H 	H 	0.66310 0.43430 0.08700 0.04800
H 	H 	0.56320 0.47480 0.00250 0.10800
H 	H 	0.55840 0.43430 0.03770 0.10000
N 	N 	0.86900 0.56400 0.01200 -0.31900
H 	H 	0.92290 0.56570 0.02180 0.15100
H 	H 	0.85670 0.58330 0.99030 0.18000
O 	O 	0.76130 0.91760 0.64479 -0.43800
O 	O 	0.89650 0.94040 0.62948 -0.43300
O 	O 	0.60670 0.05800 0.47446 -0.48200
O 	O 	0.74120 0.08510 0.46143 -0.45600
C 	C 	0.81520 0.94310 0.62240 0.27700
C 	C 	0.78330 0.97770 0.58740 -0.01000
C 	C 	0.83950 0.00680 0.56380 -0.13600
C 	C 	0.69250 0.97560 0.57820 -0.05400
C 	C 	0.80720 0.03370 0.52990 0.19800
H 	H 	0.89750 0.01440 0.57290 0.04200
H 	H 	0.65310 0.95550 0.59500 0.04900
C 	C 	0.66000 0.00260 0.54460 0.08400
C 	C 	0.71880 0.03370 0.52020 -0.07100
C 	C 	0.68860 0.05720 0.48310 0.34100
N 	N 	0.57150 0.99430 0.53890 -0.20100
H 	H 	0.54110 0.97350 0.55580 0.11700
H 	H 	0.54500 0.00980 0.51840 0.11500
C 	C 	0.70130 0.95810 0.57200 -0.05500
C 	C 	0.66950 0.98180 0.53780 0.07700
N 	N 	0.58640 0.96100 0.52420 -0.19300
C 	C 	0.78220 0.96650 0.58500 0.01900
C 	C 	0.72210 0.01990 0.51690 -0.10100
H 	H 	0.90040 0.00890 0.57020 0.04200
H 	H 	0.66310 0.93430 0.58700 0.04800
H 	H 	0.56320 0.97480 0.50250 0.10800
H 	H 	0.55840 0.93430 0.53770 0.10000
N 	N 	0.86900 0.06400 0.51200 -0.31900
H 	H 	0.92290 0.06570 0.52180 0.15100
H 	H 	0.85670 0.08330 0.49030 0.18000
O 	O 	0.48870 0.33240 0.64479 -0.43800
O 	O 	0.35350 0.30960 0.62948 -0.43300
O 	O 	0.64330 0.19200 0.47446 -0.48200
O 	O 	0.50880 0.16490 0.46143 -0.45600
C 	C 	0.43480 0.30690 0.62240 0.27700
C 	C 	0.46670 0.27230 0.58740 -0.01000
C 	C 	0.41050 0.24320 0.56380 -0.13500
C 	C 	0.55750 0.27440 0.57820 -0.05400
C 	C 	0.44280 0.21630 0.52990 0.19800
H 	H 	0.35250 0.23560 0.57290 0.04200
H 	H 	0.59690 0.29450 0.59500 0.04900
C 	C 	0.59000 0.24740 0.54460 0.08300
C 	C 	0.53120 0.21630 0.52020 -0.07100
C 	C 	0.56140 0.19280 0.48310 0.34100
N 	N 	0.67850 0.25570 0.53890 -0.20100
H 	H 	0.70890 0.27650 0.55580 0.11700
H 	H 	0.70500 0.24020 0.51840 0.11500
C 	C 	0.54870 0.29190 0.57200 -0.05400
C 	C 	0.58050 0.26820 0.53780 0.07800
N 	N 	0.66360 0.28900 0.52420 -0.19300
C 	C 	0.46780 0.28350 0.58500 0.01900
C 	C 	0.52790 0.23010 0.51690 -0.10100
H 	H 	0.34960 0.24110 0.57020 0.04200
H 	H 	0.58690 0.31570 0.58700 0.04800
H 	H 	0.68680 0.27520 0.50250 0.10800
H 	H 	0.69160 0.31570 0.53770 0.10000
N 	N 	0.38100 0.18600 0.51200 -0.31900
H 	H 	0.32710 0.18430 0.52180 0.15100
H 	H 	0.39330 0.16670 0.49030 0.18000
O 	O 	0.48870 0.83240 0.14479 -0.43800
O 	O 	0.35350 0.80960 0.12948 -0.43300
O 	O 	0.64330 0.69200 0.97446 -0.48200
O 	O 	0.50880 0.66490 0.96143 -0.45600
C 	C 	0.43480 0.80690 0.12240 0.27700
C 	C 	0.46670 0.77230 0.08740 -0.01000
C 	C 	0.41050 0.74320 0.06380 -0.13500
C 	C 	0.55750 0.77440 0.07820 -0.05400
C 	C 	0.44280 0.71630 0.02990 0.19800
H 	H 	0.35250 0.73560 0.07290 0.04200
H 	H 	0.59690 0.79450 0.09500 0.04900
C 	C 	0.59000 0.74740 0.04460 0.08300
C 	C 	0.53120 0.71630 0.02020 -0.07100
C 	C 	0.56140 0.69280 0.98310 0.34100
N 	N 	0.67850 0.75570 0.03890 -0.20100
H 	H 	0.70890 0.77650 0.05580 0.11700
H 	H 	0.70500 0.74020 0.01840 0.11500
C 	C 	0.54870 0.79190 0.07200 -0.05400
C 	C 	0.58050 0.76820 0.03780 0.07800
N 	N 	0.66360 0.78900 0.02420 -0.19300
C 	C 	0.46780 0.78350 0.08500 0.01900
C 	C 	0.52790 0.73010 0.01690 -0.10100
H 	H 	0.34960 0.74110 0.07020 0.04200
H 	H 	0.58690 0.81570 0.08700 0.04800
H 	H 	0.68680 0.77520 0.00250 0.10800
H 	H 	0.69160 0.81570 0.03770 0.10000
N 	N 	0.38100 0.68600 0.01200 -0.31900
H 	H 	0.32710 0.68430 0.02180 0.15100
H 	H 	0.39330 0.66670 0.99030 0.18000
O 	O 	0.98870 0.33240 0.14479 -0.43800
O 	O 	0.85350 0.30960 0.12948 -0.43300
O 	O 	0.14330 0.19200 0.97446 -0.48200
O 	O 	0.00880 0.16490 0.96143 -0.45600
C 	C 	0.93480 0.30690 0.12240 0.27700
C 	C 	0.96670 0.27230 0.08740 -0.01000
C 	C 	0.91050 0.24320 0.06380 -0.13500
C 	C 	0.05750 0.27440 0.07820 -0.05400
C 	C 	0.94280 0.21630 0.02990 0.19800
H 	H 	0.85250 0.23560 0.07290 0.04200
H 	H 	0.09690 0.29450 0.09500 0.04900
C 	C 	0.09000 0.24740 0.04460 0.08300
C 	C 	0.03120 0.21630 0.02020 -0.07100
C 	C 	0.06140 0.19280 0.98310 0.34200
N 	N 	0.17850 0.25570 0.03890 -0.20100
H 	H 	0.20890 0.27650 0.05580 0.11700
H 	H 	0.20500 0.24020 0.01840 0.11500
C 	C 	0.04870 0.29190 0.07200 -0.05400
C 	C 	0.08050 0.26820 0.03780 0.07900
N 	N 	0.16360 0.28900 0.02420 -0.19300
C 	C 	0.96780 0.28350 0.08500 0.01900
C 	C 	0.02790 0.23010 0.01690 -0.10100
H 	H 	0.84960 0.24110 0.07020 0.04200
H 	H 	0.08690 0.31570 0.08700 0.04800
H 	H 	0.18680 0.27520 0.00250 0.10800
H 	H 	0.19160 0.31570 0.03770 0.10000
N 	N 	0.88100 0.18600 0.01200 -0.31900
H 	H 	0.82710 0.18430 0.02180 0.15100
H 	H 	0.89330 0.16670 0.99030 0.17900
O 	O 	0.98870 0.83240 0.64479 -0.43800
O 	O 	0.85350 0.80960 0.62948 -0.43300
O 	O 	0.14330 0.69200 0.47446 -0.48200
O 	O 	0.00880 0.66490 0.46143 -0.45700
C 	C 	0.93480 0.80690 0.62240 0.27700
C 	C 	0.96670 0.77230 0.58740 -0.01000
C 	C 	0.91050 0.74320 0.56380 -0.13500
C 	C 	0.05750 0.77440 0.57820 -0.05500
C 	C 	0.94280 0.71630 0.52990 0.19800
H 	H 	0.85250 0.73560 0.57290 0.04200
H 	H 	0.09690 0.79450 0.59500 0.04900
C 	C 	0.09000 0.74740 0.54460 0.08300
C 	C 	0.03120 0.71630 0.52020 -0.07100
C 	C 	0.06140 0.69280 0.48310 0.34100
N 	N 	0.17850 0.75570 0.53890 -0.20100
H 	H 	0.20890 0.77650 0.55580 0.11700
H 	H 	0.20500 0.74020 0.51840 0.11500
C 	C 	0.04870 0.79190 0.57200 -0.05400
C 	C 	0.08050 0.76820 0.53780 0.07900
N 	N 	0.16360 0.78900 0.52420 -0.19300
C 	C 	0.96780 0.78350 0.58500 0.01900
C 	C 	0.02790 0.73010 0.51690 -0.10100
H 	H 	0.84960 0.74110 0.57020 0.04200
H 	H 	0.08690 0.81570 0.58700 0.04800
H 	H 	0.18680 0.77520 0.50250 0.10800
H 	H 	0.19160 0.81570 0.53770 0.10000
N 	N 	0.88100 0.68600 0.51200 -0.31900
H 	H 	0.82710 0.68430 0.52180 0.15100
H 	H 	0.89330 0.66670 0.49030 0.18000
O 	O 	0.51130 0.58240 0.89479 -0.43800
O 	O 	0.64650 0.55960 0.87948 -0.43300
O 	O 	0.35670 0.44200 0.72446 -0.48200
O 	O 	0.49120 0.41490 0.71143 -0.45600
C 	C 	0.56520 0.55690 0.87240 0.27700
C 	C 	0.53330 0.52230 0.83740 -0.01000
C 	C 	0.58950 0.49320 0.81380 -0.13500
C 	C 	0.44250 0.52440 0.82820 -0.05400
C 	C 	0.55720 0.46630 0.77990 0.19800
H 	H 	0.64750 0.48560 0.82290 0.04200
H 	H 	0.40310 0.54450 0.84500 0.04900
C 	C 	0.41000 0.49740 0.79460 0.08300
C 	C 	0.46880 0.46630 0.77020 -0.07100
C 	C 	0.43860 0.44280 0.73310 0.34100
N 	N 	0.32150 0.50570 0.78890 -0.20100
H 	H 	0.29110 0.52650 0.80580 0.11700
H 	H 	0.29500 0.49020 0.76840 0.11500
C 	C 	0.45130 0.54190 0.82200 -0.05400
C 	C 	0.41950 0.51820 0.78780 0.07800
N 	N 	0.33640 0.53900 0.77420 -0.19300
C 	C 	0.53220 0.53350 0.83500 0.01900
C 	C 	0.47210 0.48010 0.76690 -0.10100
H 	H 	0.65040 0.49110 0.82020 0.04200
H 	H 	0.41310 0.56570 0.83700 0.04800
H 	H 	0.31320 0.52520 0.75250 0.10800
H 	H 	0.30840 0.56570 0.78770 0.10000
N 	N 	0.61900 0.43600 0.76200 -0.31900
H 	H 	0.67290 0.43430 0.77180 0.15100
H 	H 	0.60670 0.41670 0.74030 0.18000
O 	O 	0.51130 0.08240 0.39479 -0.43800
O 	O 	0.64650 0.05960 0.37948 -0.43300
O 	O 	0.35670 0.94200 0.22446 -0.48200
O 	O 	0.49120 0.91490 0.21143 -0.45600
C 	C 	0.56520 0.05690 0.37240 0.27700
C 	C 	0.53330 0.02230 0.33740 -0.01000
C 	C 	0.58950 0.99320 0.31380 -0.13500
C 	C 	0.44250 0.02440 0.32820 -0.05400
C 	C 	0.55720 0.96630 0.27990 0.19800
H 	H 	0.64750 0.98560 0.32290 0.04200
H 	H 	0.40310 0.04450 0.34500 0.04900
C 	C 	0.41000 0.99740 0.29460 0.08400
C 	C 	0.46880 0.96630 0.27020 -0.07100
C 	C 	0.43860 0.94280 0.23310 0.34100
N 	N 	0.32150 0.00570 0.28890 -0.20100
H 	H 	0.29110 0.02650 0.30580 0.11700
H 	H 	0.29500 0.99020 0.26840 0.11500
C 	C 	0.45130 0.04190 0.32200 -0.05400
C 	C 	0.41950 0.01820 0.28780 0.07700
N 	N 	0.33640 0.03900 0.27420 -0.19300
C 	C 	0.53220 0.03350 0.33500 0.01900
C 	C 	0.47210 0.98010 0.26690 -0.10100
H 	H 	0.65040 0.99110 0.32020 0.04200
H 	H 	0.41310 0.06570 0.33700 0.04800
H 	H 	0.31320 0.02520 0.25250 0.10800
H 	H 	0.30840 0.06570 0.28770 0.10000
N 	N 	0.61900 0.93600 0.26200 -0.31900
H 	H 	0.67290 0.93430 0.27180 0.15100
H 	H 	0.60670 0.91670 0.24030 0.18000
O 	O 	0.01130 0.58240 0.39479 -0.43800
O 	O 	0.14650 0.55960 0.37948 -0.43300
O 	O 	0.85670 0.44200 0.22446 -0.48200
O 	O 	0.99120 0.41490 0.21143 -0.45600
C 	C 	0.06520 0.55690 0.37240 0.27700
C 	C 	0.03330 0.52230 0.33740 -0.01000
C 	C 	0.08950 0.49320 0.31380 -0.13500
C 	C 	0.94250 0.52440 0.32820 -0.05400
C 	C 	0.05720 0.46630 0.27990 0.19800
H 	H 	0.14750 0.48560 0.32290 0.04200
H 	H 	0.90310 0.54450 0.34500 0.04900
C 	C 	0.91000 0.49740 0.29460 0.08300
C 	C 	0.96880 0.46630 0.27020 -0.07100
C 	C 	0.93860 0.44280 0.23310 0.34100
N 	N 	0.82150 0.50570 0.28890 -0.20100
H 	H 	0.79110 0.52650 0.30580 0.11700
H 	H 	0.79500 0.49020 0.26840 0.11500
C 	C 	0.95130 0.54190 0.32200 -0.05400
C 	C 	0.91950 0.51820 0.28780 0.07800
N 	N 	0.83640 0.53900 0.27420 -0.19300
C 	C 	0.03220 0.53350 0.33500 0.01900
C 	C 	0.97210 0.48010 0.26690 -0.10100
H 	H 	0.15040 0.49110 0.32020 0.04200
H 	H 	0.91310 0.56570 0.33700 0.04800
H 	H 	0.81320 0.52520 0.25250 0.10800
H 	H 	0.80840 0.56570 0.28770 0.10000
N 	N 	0.11900 0.43600 0.26200 -0.31900
H 	H 	0.17290 0.43430 0.27180 0.15100
H 	H 	0.10670 0.41670 0.24030 0.18000
O 	O 	0.01130 0.08240 0.89479 -0.43700
O 	O 	0.14650 0.05960 0.87948 -0.43300
O 	O 	0.85670 0.94200 0.72446 -0.48200
O 	O 	0.99120 0.91490 0.71143 -0.45600
C 	C 	0.06520 0.05690 0.87240 0.27700
C 	C 	0.03330 0.02230 0.83740 -0.01000
C 	C 	0.08950 0.99320 0.81380 -0.13600
C 	C 	0.94250 0.02440 0.82820 -0.05600
C 	C 	0.05720 0.96630 0.77990 0.19800
H 	H 	0.14750 0.98560 0.82290 0.04200
H 	H 	0.90310 0.04450 0.84500 0.05000
C 	C 	0.91000 0.99740 0.79460 0.07900
C 	C 	0.96880 0.96630 0.77020 -0.07200
C 	C 	0.93860 0.94280 0.73310 0.34100
N 	N 	0.82150 0.00570 0.78890 -0.20000
H 	H 	0.79110 0.02650 0.80580 0.11700
H 	H 	0.79500 0.99020 0.76840 0.11500
C 	C 	0.95130 0.04190 0.82200 -0.05400
C 	C 	0.91950 0.01820 0.78780 0.08200
N 	N 	0.83640 0.03900 0.77420 -0.19400
C 	C 	0.03220 0.03350 0.83500 0.02000
C 	C 	0.97210 0.98010 0.76690 -0.10000
H 	H 	0.15040 0.99110 0.82020 0.04200
H 	H 	0.91310 0.06570 0.83700 0.04800
H 	H 	0.81320 0.02520 0.75250 0.10800
H 	H 	0.80840 0.06570 0.78770 0.10000
N 	N 	0.11900 0.93600 0.76200 -0.31900
H 	H 	0.17290 0.93430 0.77180 0.15100
H 	H 	0.10670 0.91670 0.74030 0.18000
O 	O 	0.73870 0.66760 0.89479 -0.43800
O 	O 	0.60350 0.69040 0.87948 -0.43300
O 	O 	0.89330 0.80800 0.72446 -0.48200
O 	O 	0.75880 0.83510 0.71143 -0.45600
C 	C 	0.68480 0.69310 0.87240 0.27700
C 	C 	0.71670 0.72770 0.83740 -0.01000
C 	C 	0.66050 0.75680 0.81380 -0.13500
C 	C 	0.80750 0.72560 0.82820 -0.05400
C 	C 	0.69280 0.78370 0.77990 0.19800
H 	H 	0.60250 0.76440 0.82290 0.04200
H 	H 	0.84690 0.70550 0.84500 0.04900
C 	C 	0.84000 0.75260 0.79460 0.08300
C 	C 	0.78120 0.78370 0.77020 -0.07100
C 	C 	0.81140 0.80720 0.73310 0.34100
N 	N 	0.92850 0.74430 0.78890 -0.20100
H 	H 	0.95890 0.72350 0.80580 0.11700
H 	H 	0.95500 0.75980 0.76840 0.11500
C 	C 	0.79870 0.70810 0.82200 -0.05400
C 	C 	0.83050 0.73180 0.78780 0.07800
N 	N 	0.91360 0.71100 0.77420 -0.19300
C 	C 	0.71780 0.71650 0.83500 0.01900
C 	C 	0.77790 0.76990 0.76690 -0.10100
H 	H 	0.59960 0.75890 0.82020 0.04200
H 	H 	0.83690 0.68430 0.83700 0.04800
H 	H 	0.93680 0.72480 0.75250 0.10800
H 	H 	0.94160 0.68430 0.78770 0.10000
N 	N 	0.63100 0.81400 0.76200 -0.31900
H 	H 	0.57710 0.81570 0.77180 0.15100
H 	H 	0.64330 0.83330 0.74030 0.18000
O 	O 	0.73870 0.16760 0.39479 -0.43800
O 	O 	0.60350 0.19040 0.37948 -0.43300
O 	O 	0.89330 0.30800 0.22446 -0.48200
O 	O 	0.75880 0.33510 0.21143 -0.45600
C 	C 	0.68480 0.19310 0.37240 0.27700
C 	C 	0.71670 0.22770 0.33740 -0.01000
C 	C 	0.66050 0.25680 0.31380 -0.13500
C 	C 	0.80750 0.22560 0.32820 -0.05400
C 	C 	0.69280 0.28370 0.27990 0.19800
H 	H 	0.60250 0.26440 0.32290 0.04200
H 	H 	0.84690 0.20550 0.34500 0.04900
C 	C 	0.84000 0.25260 0.29460 0.08300
C 	C 	0.78120 0.28370 0.27020 -0.07100
C 	C 	0.81140 0.30720 0.23310 0.34100
N 	N 	0.92850 0.24430 0.28890 -0.20100
H 	H 	0.95890 0.22350 0.30580 0.11700
H 	H 	0.95500 0.25980 0.26840 0.11500
C 	C 	0.79870 0.20810 0.32200 -0.05400
C 	C 	0.83050 0.23180 0.28780 0.07800
N 	N 	0.91360 0.21100 0.27420 -0.19300
C 	C 	0.71780 0.21650 0.33500 0.01900
C 	C 	0.77790 0.26990 0.26690 -0.10100
H 	H 	0.59960 0.25890 0.32020 0.04200
H 	H 	0.83690 0.18430 0.33700 0.04800
H 	H 	0.93680 0.22480 0.25250 0.10800
H 	H 	0.94160 0.18430 0.28770 0.10000
N 	N 	0.63100 0.31400 0.26200 -0.31900
H 	H 	0.57710 0.31570 0.27180 0.15100
H 	H 	0.64330 0.33330 0.24030 0.18000
O 	O 	0.23870 0.66760 0.39479 -0.43800
O 	O 	0.10350 0.69040 0.37948 -0.43300
O 	O 	0.39330 0.80800 0.22446 -0.48200
O 	O 	0.25880 0.83510 0.21143 -0.45600
C 	C 	0.18480 0.69310 0.37240 0.27700
C 	C 	0.21670 0.72770 0.33740 -0.01000
C 	C 	0.16050 0.75680 0.31380 -0.13500
C 	C 	0.30750 0.72560 0.32820 -0.05400
C 	C 	0.19280 0.78370 0.27990 0.19800
H 	H 	0.10250 0.76440 0.32290 0.04200
H 	H 	0.34690 0.70550 0.34500 0.04900
C 	C 	0.34000 0.75260 0.29460 0.08300
C 	C 	0.28120 0.78370 0.27020 -0.07100
C 	C 	0.31140 0.80720 0.23310 0.34100
N 	N 	0.42850 0.74430 0.28890 -0.20100
H 	H 	0.45890 0.72350 0.30580 0.11700
H 	H 	0.45500 0.75980 0.26840 0.11500
C 	C 	0.29870 0.70810 0.32200 -0.05400
C 	C 	0.33050 0.73180 0.28780 0.07800
N 	N 	0.41360 0.71100 0.27420 -0.19300
C 	C 	0.21780 0.71650 0.33500 0.01900
C 	C 	0.27790 0.76990 0.26690 -0.10100
H 	H 	0.09960 0.75890 0.32020 0.04200
H 	H 	0.33690 0.68430 0.33700 0.04800
H 	H 	0.43680 0.72480 0.25250 0.10800
H 	H 	0.44160 0.68430 0.28770 0.10000
N 	N 	0.13100 0.81400 0.26200 -0.31900
H 	H 	0.07710 0.81570 0.27180 0.15100
H 	H 	0.14330 0.83330 0.24030 0.18000
O 	O 	0.23870 0.16760 0.89479 -0.43800
O 	O 	0.10350 0.19040 0.87948 -0.43300
O 	O 	0.39330 0.30800 0.72446 -0.48200
O 	O 	0.25880 0.33510 0.71143 -0.45600
C 	C 	0.18480 0.19310 0.87240 0.27700
C 	C 	0.21670 0.22770 0.83740 -0.01000
C 	C 	0.16050 0.25680 0.81380 -0.13500
C 	C 	0.30750 0.22560 0.82820 -0.05400
C 	C 	0.19280 0.28370 0.77990 0.19800
H 	H 	0.10250 0.26440 0.82290 0.04200
H 	H 	0.34690 0.20550 0.84500 0.04900
C 	C 	0.34000 0.25260 0.79460 0.08300
C 	C 	0.28120 0.28370 0.77020 -0.07100
C 	C 	0.31140 0.30720 0.73310 0.34100
N 	N 	0.42850 0.24430 0.78890 -0.20100
H 	H 	0.45890 0.22350 0.80580 0.11700
H 	H 	0.45500 0.25980 0.76840 0.11500
C 	C 	0.29870 0.20810 0.82200 -0.05400
C 	C 	0.33050 0.23180 0.78780 0.07800
N 	N 	0.41360 0.21100 0.77420 -0.19300
C 	C 	0.21780 0.21650 0.83500 0.01900
C 	C 	0.27790 0.26990 0.76690 -0.10100
H 	H 	0.09960 0.25890 0.82020 0.04200
H 	H 	0.33690 0.18430 0.83700 0.04800
H 	H 	0.43680 0.22480 0.75250 0.10800
H 	H 	0.44160 0.18430 0.78770 0.10000
N 	N 	0.13100 0.31400 0.76200 -0.31900
H 	H 	0.07710 0.31570 0.77180 0.15100
H 	H 	0.14330 0.33330 0.74030 0.18000
In	In	0.37500 0.37500 0.67793 1.99800
In	In	0.37500 0.87500 0.17793 1.99800
In	In	0.87500 0.37500 0.17793 1.99800
In	In	0.87500 0.87500 0.67793 1.99800
In	In	0.62500 0.62500 0.92793 1.99800
In	In	0.62500 0.12500 0.42793 1.99800
In	In	0.12500 0.62500 0.42793 1.99800
In	In	0.12500 0.12500 0.92793 1.99800
