data_crystal

_cell_length_a 15.09540
_cell_length_b 25.78900
_cell_length_c 32.27400
_cell_angle_alpha 90.00000
_cell_angle_beta  90.00000
_cell_angle_gamma 90.00000

_symmetry_space_group_name_	'P 1'
_symmetry_space_group_name_H-M	'P 1'

loop_
_symmetry_equiv_pos_as_xyz
  x,y,z

loop_
_atom_site_label
_atom_site_type_symbol
_atom_site_fract_x
_atom_site_fract_y
_atom_site_fract_z
_atom_site_charge
O 	O 	0.85290 0.43610 0.11610 -0.43000
O 	O 	0.98830 0.41300 0.10224 -0.44300
O 	O 	0.00910 0.58820 0.28120 -0.46000
O 	O 	0.14450 0.56230 0.26929 -0.48000
C 	C 	0.93530 0.43840 0.12380 0.28400
C 	C 	0.06210 0.56100 0.26060 0.33300
N 	N 	0.18010 0.49460 0.21020 -0.19400
H 	H 	0.20500 0.51200 0.23060 0.10900
H 	H 	0.21180 0.47300 0.19520 0.11100
C 	C 	0.96610 0.47610 0.15720 -0.02100
C 	C 	0.05470 0.47230 0.16850 -0.05300
H 	H 	0.09330 0.44980 0.15370 0.05500
C 	C 	0.08690 0.50140 0.20150 0.11000
C 	C 	0.03050 0.53430 0.22320 -0.04500
C 	C 	0.94190 0.53800 0.21180 0.05600
C 	C 	0.90970 0.50890 0.17890 -0.02300
H 	H 	0.84910 0.51150 0.17110 0.04300
N 	N 	0.16490 0.46760 0.22440 -0.16800
H 	H 	0.18700 0.48170 0.24690 0.10200
H 	H 	0.19530 0.44390 0.21080 0.08200
C 	C 	0.96560 0.46480 0.16100 0.00800
C 	C 	0.05040 0.45520 0.17600 -0.04700
H 	H 	0.08680 0.43000 0.16300 0.04100
C 	C 	0.08170 0.48260 0.21010 0.03700
C 	C 	0.02840 0.51950 0.22920 -0.10900
C 	C 	0.94370 0.52900 0.21410 0.09900
C 	C 	0.91230 0.50170 0.18000 -0.05800
H 	H 	0.85440 0.50820 0.16980 0.02100
N 	N 	0.88900 0.56400 0.23030 -0.32200
H 	H 	0.90620 0.58220 0.25180 0.19400
H 	H 	0.83630 0.56820 0.21960 0.15600
O 	O 	0.85290 0.93610 0.61610 -0.42900
O 	O 	0.98830 0.91300 0.60224 -0.44200
O 	O 	0.00910 0.08820 0.78120 -0.45900
O 	O 	0.14450 0.06230 0.76929 -0.47900
C 	C 	0.93530 0.93840 0.62380 0.28500
C 	C 	0.06210 0.06100 0.76060 0.33400
N 	N 	0.18010 0.99460 0.71020 -0.19200
H 	H 	0.20500 0.01200 0.73060 0.11000
H 	H 	0.21180 0.97300 0.69520 0.11200
C 	C 	0.96610 0.97610 0.65720 -0.02000
C 	C 	0.05470 0.97230 0.66850 -0.05300
H 	H 	0.09330 0.94980 0.65370 0.05600
C 	C 	0.08690 0.00140 0.70150 0.10800
C 	C 	0.03050 0.03430 0.72320 -0.04500
C 	C 	0.94190 0.03800 0.71180 0.05600
C 	C 	0.90970 0.00890 0.67890 -0.02400
H 	H 	0.84910 0.01150 0.67110 0.04300
N 	N 	0.16490 0.96760 0.72440 -0.16900
H 	H 	0.18700 0.98170 0.74690 0.10200
H 	H 	0.19530 0.94390 0.71080 0.08200
C 	C 	0.96560 0.96480 0.66100 0.00800
C 	C 	0.05040 0.95520 0.67600 -0.04600
H 	H 	0.08680 0.93000 0.66300 0.04000
C 	C 	0.08170 0.98260 0.71010 0.04000
C 	C 	0.02840 0.01950 0.72920 -0.10800
C 	C 	0.94370 0.02900 0.71410 0.09900
C 	C 	0.91230 0.00170 0.68000 -0.05800
H 	H 	0.85440 0.00820 0.66980 0.02100
N 	N 	0.88900 0.06400 0.73030 -0.32200
H 	H 	0.90620 0.08220 0.75180 0.19400
H 	H 	0.83630 0.06820 0.71960 0.15600
O 	O 	0.35290 0.43610 0.61610 -0.43000
O 	O 	0.48830 0.41300 0.60224 -0.44200
O 	O 	0.50910 0.58820 0.78120 -0.45900
O 	O 	0.64450 0.56230 0.76929 -0.47900
C 	C 	0.43530 0.43840 0.62380 0.28500
C 	C 	0.56210 0.56100 0.76060 0.33400
N 	N 	0.68010 0.49460 0.71020 -0.19300
H 	H 	0.70500 0.51200 0.73060 0.11000
H 	H 	0.71180 0.47300 0.69520 0.11200
C 	C 	0.46610 0.47610 0.65720 -0.02000
C 	C 	0.55470 0.47230 0.66850 -0.05200
H 	H 	0.59330 0.44980 0.65370 0.05600
C 	C 	0.58690 0.50140 0.70150 0.11100
C 	C 	0.53050 0.53430 0.72320 -0.04400
C 	C 	0.44190 0.53800 0.71180 0.05600
C 	C 	0.40970 0.50890 0.67890 -0.02300
H 	H 	0.34910 0.51150 0.67110 0.04300
N 	N 	0.66490 0.46760 0.72440 -0.16800
H 	H 	0.68700 0.48170 0.74690 0.10200
H 	H 	0.69530 0.44390 0.71080 0.08200
C 	C 	0.46560 0.46480 0.66100 0.00800
C 	C 	0.55040 0.45520 0.67600 -0.04600
H 	H 	0.58680 0.43000 0.66300 0.04100
C 	C 	0.58170 0.48260 0.71010 0.03700
C 	C 	0.52840 0.51950 0.72920 -0.10900
C 	C 	0.44370 0.52900 0.71410 0.09900
C 	C 	0.41230 0.50170 0.68000 -0.05800
H 	H 	0.35440 0.50820 0.66980 0.02100
N 	N 	0.38900 0.56400 0.73030 -0.32200
H 	H 	0.40620 0.58220 0.75180 0.19400
H 	H 	0.33630 0.56820 0.71960 0.15600
O 	O 	0.35290 0.93610 0.11610 -0.43000
O 	O 	0.48830 0.91300 0.10224 -0.44200
O 	O 	0.50910 0.08820 0.28120 -0.45900
O 	O 	0.64450 0.06230 0.26929 -0.47900
C 	C 	0.43530 0.93840 0.12380 0.28500
C 	C 	0.56210 0.06100 0.26060 0.33400
N 	N 	0.68010 0.99460 0.21020 -0.19300
H 	H 	0.70500 0.01200 0.23060 0.11000
H 	H 	0.71180 0.97300 0.19520 0.11200
C 	C 	0.46610 0.97610 0.15720 -0.02000
C 	C 	0.55470 0.97230 0.16850 -0.05200
H 	H 	0.59330 0.94980 0.15370 0.05500
C 	C 	0.58690 0.00140 0.20150 0.11200
C 	C 	0.53050 0.03430 0.22320 -0.04400
C 	C 	0.44190 0.03800 0.21180 0.05600
C 	C 	0.40970 0.00890 0.17890 -0.02300
H 	H 	0.34910 0.01150 0.17110 0.04300
N 	N 	0.66490 0.96760 0.22440 -0.16800
H 	H 	0.68700 0.98170 0.24690 0.10200
H 	H 	0.69530 0.94390 0.21080 0.08200
C 	C 	0.46560 0.96480 0.16100 0.00800
C 	C 	0.55040 0.95520 0.17600 -0.04700
H 	H 	0.58680 0.93000 0.16300 0.04100
C 	C 	0.58170 0.98260 0.21010 0.03600
C 	C 	0.52840 0.01950 0.22920 -0.11000
C 	C 	0.44370 0.02900 0.21410 0.09900
C 	C 	0.41230 0.00170 0.18000 -0.05800
H 	H 	0.35440 0.00820 0.16980 0.02100
N 	N 	0.38900 0.06400 0.23030 -0.32200
H 	H 	0.40620 0.08220 0.25180 0.19400
H 	H 	0.33630 0.06820 0.21960 0.15600
O 	O 	0.89710 0.31390 0.11610 -0.43000
O 	O 	0.76170 0.33700 0.10224 -0.44200
O 	O 	0.74090 0.16180 0.28120 -0.45900
O 	O 	0.60550 0.18770 0.26929 -0.47900
C 	C 	0.81470 0.31160 0.12380 0.28500
C 	C 	0.68790 0.18900 0.26060 0.33400
N 	N 	0.56990 0.25540 0.21020 -0.19300
H 	H 	0.54500 0.23800 0.23060 0.11000
H 	H 	0.53820 0.27700 0.19520 0.11200
C 	C 	0.78390 0.27390 0.15720 -0.02000
C 	C 	0.69530 0.27770 0.16850 -0.05200
H 	H 	0.65670 0.30020 0.15370 0.05600
C 	C 	0.66310 0.24860 0.20150 0.11100
C 	C 	0.71950 0.21570 0.22320 -0.04400
C 	C 	0.80810 0.21200 0.21180 0.05600
C 	C 	0.84030 0.24110 0.17890 -0.02300
H 	H 	0.90090 0.23850 0.17110 0.04300
N 	N 	0.58510 0.28240 0.22440 -0.16800
H 	H 	0.56300 0.26830 0.24690 0.10200
H 	H 	0.55470 0.30610 0.21080 0.08200
C 	C 	0.78440 0.28520 0.16100 0.00800
C 	C 	0.69960 0.29480 0.17600 -0.04600
H 	H 	0.66320 0.32000 0.16300 0.04100
C 	C 	0.66830 0.26740 0.21010 0.03700
C 	C 	0.72160 0.23050 0.22920 -0.10900
C 	C 	0.80630 0.22100 0.21410 0.09900
C 	C 	0.83770 0.24830 0.18000 -0.05800
H 	H 	0.89560 0.24180 0.16980 0.02100
N 	N 	0.86100 0.18600 0.23030 -0.32200
H 	H 	0.84380 0.16780 0.25180 0.19400
H 	H 	0.91370 0.18180 0.21960 0.15600
O 	O 	0.89710 0.81390 0.61610 -0.43000
O 	O 	0.76170 0.83700 0.60224 -0.44200
O 	O 	0.74090 0.66180 0.78120 -0.45900
O 	O 	0.60550 0.68770 0.76929 -0.47900
C 	C 	0.81470 0.81160 0.62380 0.28500
C 	C 	0.68790 0.68900 0.76060 0.33400
N 	N 	0.56990 0.75540 0.71020 -0.19300
H 	H 	0.54500 0.73800 0.73060 0.11000
H 	H 	0.53820 0.77700 0.69520 0.11200
C 	C 	0.78390 0.77390 0.65720 -0.02000
C 	C 	0.69530 0.77770 0.66850 -0.05200
H 	H 	0.65670 0.80020 0.65370 0.05600
C 	C 	0.66310 0.74860 0.70150 0.11100
C 	C 	0.71950 0.71570 0.72320 -0.04400
C 	C 	0.80810 0.71200 0.71180 0.05600
C 	C 	0.84030 0.74110 0.67890 -0.02300
H 	H 	0.90090 0.73850 0.67110 0.04300
N 	N 	0.58510 0.78240 0.72440 -0.16800
H 	H 	0.56300 0.76830 0.74690 0.10200
H 	H 	0.55470 0.80610 0.71080 0.08200
C 	C 	0.78440 0.78520 0.66100 0.00800
C 	C 	0.69960 0.79480 0.67600 -0.04600
H 	H 	0.66320 0.82000 0.66300 0.04100
C 	C 	0.66830 0.76740 0.71010 0.03700
C 	C 	0.72160 0.73050 0.72920 -0.10900
C 	C 	0.80630 0.72100 0.71410 0.09900
C 	C 	0.83770 0.74830 0.68000 -0.05800
H 	H 	0.89560 0.74180 0.66980 0.02100
N 	N 	0.86100 0.68600 0.73030 -0.32200
H 	H 	0.84380 0.66780 0.75180 0.19400
H 	H 	0.91370 0.68180 0.71960 0.15600
O 	O 	0.39710 0.31390 0.61610 -0.42900
O 	O 	0.26170 0.33700 0.60224 -0.44200
O 	O 	0.24090 0.16180 0.78120 -0.45900
O 	O 	0.10550 0.18770 0.76929 -0.47900
C 	C 	0.31470 0.31160 0.62380 0.28500
C 	C 	0.18790 0.18900 0.76060 0.33400
N 	N 	0.06990 0.25540 0.71020 -0.19300
H 	H 	0.04500 0.23800 0.73060 0.11000
H 	H 	0.03820 0.27700 0.69520 0.11200
C 	C 	0.28390 0.27390 0.65720 -0.02000
C 	C 	0.19530 0.27770 0.66850 -0.05200
H 	H 	0.15670 0.30020 0.65370 0.05600
C 	C 	0.16310 0.24860 0.70150 0.11100
C 	C 	0.21950 0.21570 0.72320 -0.04400
C 	C 	0.30810 0.21200 0.71180 0.05600
C 	C 	0.34030 0.24110 0.67890 -0.02300
H 	H 	0.40090 0.23850 0.67110 0.04300
N 	N 	0.08510 0.28240 0.72440 -0.16800
H 	H 	0.06300 0.26830 0.74690 0.10200
H 	H 	0.05470 0.30610 0.71080 0.08200
C 	C 	0.28440 0.28520 0.66100 0.00800
C 	C 	0.19960 0.29480 0.67600 -0.04600
H 	H 	0.16320 0.32000 0.66300 0.04100
C 	C 	0.16830 0.26740 0.71010 0.03700
C 	C 	0.22160 0.23050 0.72920 -0.10900
C 	C 	0.30630 0.22100 0.71410 0.09900
C 	C 	0.33770 0.24830 0.68000 -0.05800
H 	H 	0.39560 0.24180 0.66980 0.02100
N 	N 	0.36100 0.18600 0.73030 -0.32200
H 	H 	0.34380 0.16780 0.75180 0.19400
H 	H 	0.41370 0.18180 0.71960 0.15600
O 	O 	0.39710 0.81390 0.11610 -0.42900
O 	O 	0.26170 0.83700 0.10224 -0.44200
O 	O 	0.24090 0.66180 0.28120 -0.45900
O 	O 	0.10550 0.68770 0.26929 -0.47900
C 	C 	0.31470 0.81160 0.12380 0.28500
C 	C 	0.18790 0.68900 0.26060 0.33400
N 	N 	0.06990 0.75540 0.21020 -0.19300
H 	H 	0.04500 0.73800 0.23060 0.11000
H 	H 	0.03820 0.77700 0.19520 0.11200
C 	C 	0.28390 0.77390 0.15720 -0.02000
C 	C 	0.19530 0.77770 0.16850 -0.05200
H 	H 	0.15670 0.80020 0.15370 0.05600
C 	C 	0.16310 0.74860 0.20150 0.11100
C 	C 	0.21950 0.71570 0.22320 -0.04400
C 	C 	0.30810 0.71200 0.21180 0.05600
C 	C 	0.34030 0.74110 0.17890 -0.02300
H 	H 	0.40090 0.73850 0.17110 0.04300
N 	N 	0.08510 0.78240 0.22440 -0.16800
H 	H 	0.06300 0.76830 0.24690 0.10100
H 	H 	0.05470 0.80610 0.21080 0.08200
C 	C 	0.28440 0.78520 0.16100 0.00800
C 	C 	0.19960 0.79480 0.17600 -0.04700
H 	H 	0.16320 0.82000 0.16300 0.04100
C 	C 	0.16830 0.76740 0.21010 0.03700
C 	C 	0.22160 0.73050 0.22920 -0.10900
C 	C 	0.30630 0.72100 0.21410 0.09900
C 	C 	0.33770 0.74830 0.18000 -0.05800
H 	H 	0.39560 0.74180 0.16980 0.02100
N 	N 	0.36100 0.68600 0.23030 -0.32200
H 	H 	0.34380 0.66780 0.25180 0.19400
H 	H 	0.41370 0.68180 0.21960 0.15600
O 	O 	0.10290 0.56390 0.36610 -0.43000
O 	O 	0.23830 0.58700 0.35224 -0.44200
O 	O 	0.25910 0.41180 0.53120 -0.45900
O 	O 	0.39450 0.43770 0.51929 -0.47900
C 	C 	0.18530 0.56160 0.37380 0.28500
C 	C 	0.31210 0.43900 0.51060 0.33400
N 	N 	0.43010 0.50540 0.46020 -0.19300
H 	H 	0.45500 0.48800 0.48060 0.11000
H 	H 	0.46180 0.52700 0.44520 0.11200
C 	C 	0.21610 0.52390 0.40720 -0.02000
C 	C 	0.30470 0.52770 0.41850 -0.05200
H 	H 	0.34330 0.55020 0.40370 0.05600
C 	C 	0.33690 0.49860 0.45150 0.11100
C 	C 	0.28050 0.46570 0.47320 -0.04400
C 	C 	0.19190 0.46200 0.46180 0.05600
C 	C 	0.15970 0.49110 0.42890 -0.02300
H 	H 	0.09910 0.48850 0.42110 0.04300
N 	N 	0.41490 0.53240 0.47440 -0.16800
H 	H 	0.43700 0.51830 0.49690 0.10200
H 	H 	0.44530 0.55610 0.46080 0.08200
C 	C 	0.21560 0.53520 0.41100 0.00800
C 	C 	0.30040 0.54480 0.42600 -0.04600
H 	H 	0.33680 0.57000 0.41300 0.04100
C 	C 	0.33170 0.51740 0.46010 0.03700
C 	C 	0.27840 0.48050 0.47920 -0.10900
C 	C 	0.19370 0.47100 0.46410 0.09900
C 	C 	0.16230 0.49830 0.43000 -0.05800
H 	H 	0.10440 0.49180 0.41980 0.02100
N 	N 	0.13900 0.43600 0.48030 -0.32200
H 	H 	0.15620 0.41780 0.50180 0.19400
H 	H 	0.08630 0.43180 0.46960 0.15600
O 	O 	0.10290 0.06390 0.86610 -0.42900
O 	O 	0.23830 0.08700 0.85224 -0.44200
O 	O 	0.25910 0.91180 0.03120 -0.45900
O 	O 	0.39450 0.93770 0.01929 -0.47900
C 	C 	0.18530 0.06160 0.87380 0.28500
C 	C 	0.31210 0.93900 0.01060 0.33400
N 	N 	0.43010 0.00540 0.96020 -0.19300
H 	H 	0.45500 0.98800 0.98060 0.11000
H 	H 	0.46180 0.02700 0.94520 0.11200
C 	C 	0.21610 0.02390 0.90720 -0.01900
C 	C 	0.30470 0.02770 0.91850 -0.05200
H 	H 	0.34330 0.05020 0.90370 0.05500
C 	C 	0.33690 0.99860 0.95150 0.11300
C 	C 	0.28050 0.96570 0.97320 -0.04400
C 	C 	0.19190 0.96200 0.96180 0.05600
C 	C 	0.15970 0.99110 0.92890 -0.02300
H 	H 	0.09910 0.98850 0.92110 0.04300
N 	N 	0.41490 0.03240 0.97440 -0.16800
H 	H 	0.43700 0.01830 0.99690 0.10200
H 	H 	0.44530 0.05610 0.96080 0.08200
C 	C 	0.21560 0.03520 0.91100 0.00800
C 	C 	0.30040 0.04480 0.92600 -0.04700
H 	H 	0.33680 0.07000 0.91300 0.04100
C 	C 	0.33170 0.01740 0.96010 0.03600
C 	C 	0.27840 0.98050 0.97920 -0.11000
C 	C 	0.19370 0.97100 0.96410 0.09900
C 	C 	0.16230 0.99830 0.93000 -0.05800
H 	H 	0.10440 0.99180 0.91980 0.02100
N 	N 	0.13900 0.93600 0.98030 -0.32200
H 	H 	0.15620 0.91780 0.00180 0.19400
H 	H 	0.08630 0.93180 0.96960 0.15600
O 	O 	0.60290 0.56390 0.86610 -0.42900
O 	O 	0.73830 0.58700 0.85224 -0.44200
O 	O 	0.75910 0.41180 0.03120 -0.45900
O 	O 	0.89450 0.43770 0.01929 -0.47900
C 	C 	0.68530 0.56160 0.87380 0.28500
C 	C 	0.81210 0.43900 0.01060 0.33400
N 	N 	0.93010 0.50540 0.96020 -0.19300
H 	H 	0.95500 0.48800 0.98060 0.11000
H 	H 	0.96180 0.52700 0.94520 0.11200
C 	C 	0.71610 0.52390 0.90720 -0.02000
C 	C 	0.80470 0.52770 0.91850 -0.05200
H 	H 	0.84330 0.55020 0.90370 0.05600
C 	C 	0.83690 0.49860 0.95150 0.11100
C 	C 	0.78050 0.46570 0.97320 -0.04400
C 	C 	0.69190 0.46200 0.96180 0.05600
C 	C 	0.65970 0.49110 0.92890 -0.02300
H 	H 	0.59910 0.48850 0.92110 0.04300
N 	N 	0.91490 0.53240 0.97440 -0.16800
H 	H 	0.93700 0.51830 0.99690 0.10200
H 	H 	0.94530 0.55610 0.96080 0.08200
C 	C 	0.71560 0.53520 0.91100 0.00800
C 	C 	0.80040 0.54480 0.92600 -0.04700
H 	H 	0.83680 0.57000 0.91300 0.04100
C 	C 	0.83170 0.51740 0.96010 0.03700
C 	C 	0.77840 0.48050 0.97920 -0.10900
C 	C 	0.69370 0.47100 0.96410 0.09900
C 	C 	0.66230 0.49830 0.93000 -0.05800
H 	H 	0.60440 0.49180 0.91980 0.02100
N 	N 	0.63900 0.43600 0.98030 -0.32200
H 	H 	0.65620 0.41780 0.00180 0.19400
H 	H 	0.58630 0.43180 0.96960 0.15600
O 	O 	0.60290 0.06390 0.36610 -0.43000
O 	O 	0.73830 0.08700 0.35224 -0.44200
O 	O 	0.75910 0.91180 0.53120 -0.45900
O 	O 	0.89450 0.93770 0.51929 -0.47900
C 	C 	0.68530 0.06160 0.37380 0.28500
C 	C 	0.81210 0.93900 0.51060 0.33400
N 	N 	0.93010 0.00540 0.46020 -0.19300
H 	H 	0.95500 0.98800 0.48060 0.11000
H 	H 	0.96180 0.02700 0.44520 0.11200
C 	C 	0.71610 0.02390 0.40720 -0.02000
C 	C 	0.80470 0.02770 0.41850 -0.05300
H 	H 	0.84330 0.05020 0.40370 0.05600
C 	C 	0.83690 0.99860 0.45150 0.10800
C 	C 	0.78050 0.96570 0.47320 -0.04500
C 	C 	0.69190 0.96200 0.46180 0.05600
C 	C 	0.65970 0.99110 0.42890 -0.02300
H 	H 	0.59910 0.98850 0.42110 0.04300
N 	N 	0.91490 0.03240 0.47440 -0.16900
H 	H 	0.93700 0.01830 0.49690 0.10100
H 	H 	0.94530 0.05610 0.46080 0.08200
C 	C 	0.71560 0.03520 0.41100 0.00800
C 	C 	0.80040 0.04480 0.42600 -0.04600
H 	H 	0.83680 0.07000 0.41300 0.04000
C 	C 	0.83170 0.01740 0.46010 0.04000
C 	C 	0.77840 0.98050 0.47920 -0.10800
C 	C 	0.69370 0.97100 0.46410 0.09900
C 	C 	0.66230 0.99830 0.43000 -0.05800
H 	H 	0.60440 0.99180 0.41980 0.02100
N 	N 	0.63900 0.93600 0.48030 -0.32200
H 	H 	0.65620 0.91780 0.50180 0.19400
H 	H 	0.58630 0.93180 0.46960 0.15600
O 	O 	0.14710 0.68610 0.36610 -0.43000
O 	O 	0.01170 0.66300 0.35224 -0.44200
O 	O 	0.99090 0.83820 0.53120 -0.45900
O 	O 	0.85550 0.81230 0.51929 -0.47900
C 	C 	0.06470 0.68840 0.37380 0.28500
C 	C 	0.93790 0.81100 0.51060 0.33400
N 	N 	0.81990 0.74460 0.46020 -0.19300
H 	H 	0.79500 0.76200 0.48060 0.11000
H 	H 	0.78820 0.72300 0.44520 0.11200
C 	C 	0.03390 0.72610 0.40720 -0.02000
C 	C 	0.94530 0.72230 0.41850 -0.05200
H 	H 	0.90670 0.69980 0.40370 0.05600
C 	C 	0.91310 0.75140 0.45150 0.11100
C 	C 	0.96950 0.78430 0.47320 -0.04400
C 	C 	0.05810 0.78800 0.46180 0.05600
C 	C 	0.09030 0.75890 0.42890 -0.02300
H 	H 	0.15090 0.76150 0.42110 0.04300
N 	N 	0.83510 0.71760 0.47440 -0.16800
H 	H 	0.81300 0.73170 0.49690 0.10200
H 	H 	0.80470 0.69390 0.46080 0.08200
C 	C 	0.03440 0.71480 0.41100 0.00800
C 	C 	0.94960 0.70520 0.42600 -0.04600
H 	H 	0.91320 0.68000 0.41300 0.04000
C 	C 	0.91830 0.73260 0.46010 0.03800
C 	C 	0.97160 0.76950 0.47920 -0.10900
C 	C 	0.05630 0.77900 0.46410 0.09900
C 	C 	0.08770 0.75170 0.43000 -0.05800
H 	H 	0.14560 0.75820 0.41980 0.02100
N 	N 	0.11100 0.81400 0.48030 -0.32200
H 	H 	0.09380 0.83220 0.50180 0.19400
H 	H 	0.16370 0.81820 0.46960 0.15600
O 	O 	0.14710 0.18610 0.86610 -0.42900
O 	O 	0.01170 0.16300 0.85224 -0.44200
O 	O 	0.99090 0.33820 0.03120 -0.45900
O 	O 	0.85550 0.31230 0.01929 -0.47900
C 	C 	0.06470 0.18840 0.87380 0.28500
C 	C 	0.93790 0.31100 0.01060 0.33400
N 	N 	0.81990 0.24460 0.96020 -0.19300
H 	H 	0.79500 0.26200 0.98060 0.11000
H 	H 	0.78820 0.22300 0.94520 0.11200
C 	C 	0.03390 0.22610 0.90720 -0.01900
C 	C 	0.94530 0.22230 0.91850 -0.05300
H 	H 	0.90670 0.19980 0.90370 0.05600
C 	C 	0.91310 0.25140 0.95150 0.11100
C 	C 	0.96950 0.28430 0.97320 -0.04400
C 	C 	0.05810 0.28800 0.96180 0.05700
C 	C 	0.09030 0.25890 0.92890 -0.02300
H 	H 	0.15090 0.26150 0.92110 0.04300
N 	N 	0.83510 0.21760 0.97440 -0.16800
H 	H 	0.81300 0.23170 0.99690 0.10200
H 	H 	0.80470 0.19390 0.96080 0.08200
C 	C 	0.03440 0.21480 0.91100 0.00800
C 	C 	0.94960 0.20520 0.92600 -0.04700
H 	H 	0.91320 0.18000 0.91300 0.04000
C 	C 	0.91830 0.23260 0.96010 0.03800
C 	C 	0.97160 0.26950 0.97920 -0.11000
C 	C 	0.05630 0.27900 0.96410 0.09900
C 	C 	0.08770 0.25170 0.93000 -0.05800
H 	H 	0.14560 0.25820 0.91980 0.02100
N 	N 	0.11100 0.31400 0.98030 -0.32200
H 	H 	0.09380 0.33220 0.00180 0.19400
H 	H 	0.16370 0.31820 0.96960 0.15600
O 	O 	0.64710 0.68610 0.86610 -0.43000
O 	O 	0.51170 0.66300 0.85224 -0.44200
O 	O 	0.49090 0.83820 0.03120 -0.45900
O 	O 	0.35550 0.81230 0.01929 -0.47900
C 	C 	0.56470 0.68840 0.87380 0.28500
C 	C 	0.43790 0.81100 0.01060 0.33400
N 	N 	0.31990 0.74460 0.96020 -0.19300
H 	H 	0.29500 0.76200 0.98060 0.11000
H 	H 	0.28820 0.72300 0.94520 0.11200
C 	C 	0.53390 0.72610 0.90720 -0.02000
C 	C 	0.44530 0.72230 0.91850 -0.05200
H 	H 	0.40670 0.69980 0.90370 0.05600
C 	C 	0.41310 0.75140 0.95150 0.11100
C 	C 	0.46950 0.78430 0.97320 -0.04400
C 	C 	0.55810 0.78800 0.96180 0.05600
C 	C 	0.59030 0.75890 0.92890 -0.02300
H 	H 	0.65090 0.76150 0.92110 0.04300
N 	N 	0.33510 0.71760 0.97440 -0.16800
H 	H 	0.31300 0.73170 0.99690 0.10200
H 	H 	0.30470 0.69390 0.96080 0.08200
C 	C 	0.53440 0.71480 0.91100 0.00800
C 	C 	0.44960 0.70520 0.92600 -0.04600
H 	H 	0.41320 0.68000 0.91300 0.04100
C 	C 	0.41830 0.73260 0.96010 0.03700
C 	C 	0.47160 0.76950 0.97920 -0.10900
C 	C 	0.55630 0.77900 0.96410 0.09900
C 	C 	0.58770 0.75170 0.93000 -0.05800
H 	H 	0.64560 0.75820 0.91980 0.02100
N 	N 	0.61100 0.81400 0.98030 -0.32200
H 	H 	0.59380 0.83220 0.00180 0.19400
H 	H 	0.66370 0.81820 0.96960 0.15600
O 	O 	0.64710 0.18610 0.36610 -0.43000
O 	O 	0.51170 0.16300 0.35224 -0.44200
O 	O 	0.49090 0.33820 0.53120 -0.45900
O 	O 	0.35550 0.31230 0.51929 -0.47900
C 	C 	0.56470 0.18840 0.37380 0.28500
C 	C 	0.43790 0.31100 0.51060 0.33400
N 	N 	0.31990 0.24460 0.46020 -0.19300
H 	H 	0.29500 0.26200 0.48060 0.11000
H 	H 	0.28820 0.22300 0.44520 0.11200
C 	C 	0.53390 0.22610 0.40720 -0.02000
C 	C 	0.44530 0.22230 0.41850 -0.05200
H 	H 	0.40670 0.19980 0.40370 0.05600
C 	C 	0.41310 0.25140 0.45150 0.11100
C 	C 	0.46950 0.28430 0.47320 -0.04400
C 	C 	0.55810 0.28800 0.46180 0.05600
C 	C 	0.59030 0.25890 0.42890 -0.02300
H 	H 	0.65090 0.26150 0.42110 0.04300
N 	N 	0.33510 0.21760 0.47440 -0.16800
H 	H 	0.31300 0.23170 0.49690 0.10200
H 	H 	0.30470 0.19390 0.46080 0.08200
C 	C 	0.53440 0.21480 0.41100 0.00800
C 	C 	0.44960 0.20520 0.42600 -0.04600
H 	H 	0.41320 0.18000 0.41300 0.04100
C 	C 	0.41830 0.23260 0.46010 0.03700
C 	C 	0.47160 0.26950 0.47920 -0.10900
C 	C 	0.55630 0.27900 0.46410 0.09900
C 	C 	0.58770 0.25170 0.43000 -0.05800
H 	H 	0.64560 0.25820 0.41980 0.02100
N 	N 	0.61100 0.31400 0.48030 -0.32200
H 	H 	0.59380 0.33220 0.50180 0.19400
H 	H 	0.66370 0.31820 0.46960 0.15600
In	In	0.87500 0.37500 0.06641 1.99800
In	In	0.87500 0.87500 0.56641 1.99800
In	In	0.37500 0.37500 0.56641 1.99800
In	In	0.37500 0.87500 0.06641 1.99800
In	In	0.12500 0.62500 0.31641 1.99800
In	In	0.12500 0.12500 0.81641 1.99800
In	In	0.62500 0.62500 0.81641 1.99800
In	In	0.62500 0.12500 0.31641 1.99800
O 	O 	0.89710 0.43610 0.63390 -0.43000
O 	O 	0.76170 0.41300 0.64776 -0.44200
O 	O 	0.74090 0.58820 0.46880 -0.45900
O 	O 	0.60550 0.56230 0.48071 -0.47900
C 	C 	0.81470 0.43840 0.62620 0.28500
C 	C 	0.68790 0.56100 0.48940 0.33400
N 	N 	0.56990 0.49460 0.53980 -0.19300
H 	H 	0.54500 0.51200 0.51940 0.11000
H 	H 	0.53820 0.47300 0.55480 0.11200
C 	C 	0.78390 0.47610 0.59280 -0.02000
C 	C 	0.69530 0.47230 0.58150 -0.05200
H 	H 	0.65670 0.44980 0.59630 0.05600
C 	C 	0.66310 0.50140 0.54850 0.11100
C 	C 	0.71950 0.53430 0.52680 -0.04400
C 	C 	0.80810 0.53800 0.53820 0.05600
C 	C 	0.84030 0.50890 0.57110 -0.02300
H 	H 	0.90090 0.51150 0.57890 0.04300
N 	N 	0.58510 0.46760 0.52560 -0.16800
H 	H 	0.56300 0.48170 0.50310 0.10200
H 	H 	0.55470 0.44390 0.53920 0.08200
C 	C 	0.78440 0.46480 0.58900 0.00800
C 	C 	0.69960 0.45520 0.57400 -0.04600
H 	H 	0.66320 0.43000 0.58700 0.04100
C 	C 	0.66830 0.48260 0.53990 0.03700
C 	C 	0.72160 0.51950 0.52080 -0.10900
C 	C 	0.80630 0.52900 0.53590 0.09900
C 	C 	0.83770 0.50170 0.57000 -0.05800
H 	H 	0.89560 0.50820 0.58020 0.02100
N 	N 	0.86100 0.56400 0.51970 -0.32200
H 	H 	0.84380 0.58220 0.49820 0.19400
H 	H 	0.91370 0.56820 0.53040 0.15600
O 	O 	0.89710 0.93610 0.13390 -0.42900
O 	O 	0.76170 0.91300 0.14776 -0.44200
O 	O 	0.74090 0.08820 0.96880 -0.45900
O 	O 	0.60550 0.06230 0.98071 -0.47900
C 	C 	0.81470 0.93840 0.12620 0.28500
C 	C 	0.68790 0.06100 0.98940 0.33400
N 	N 	0.56990 0.99460 0.03980 -0.19300
H 	H 	0.54500 0.01200 0.01940 0.11000
H 	H 	0.53820 0.97300 0.05480 0.11200
C 	C 	0.78390 0.97610 0.09280 -0.01900
C 	C 	0.69530 0.97230 0.08150 -0.05200
H 	H 	0.65670 0.94980 0.09630 0.05500
C 	C 	0.66310 0.00140 0.04850 0.11300
C 	C 	0.71950 0.03430 0.02680 -0.04400
C 	C 	0.80810 0.03800 0.03820 0.05600
C 	C 	0.84030 0.00890 0.07110 -0.02300
H 	H 	0.90090 0.01150 0.07890 0.04300
N 	N 	0.58510 0.96760 0.02560 -0.16800
H 	H 	0.56300 0.98170 0.00310 0.10200
H 	H 	0.55470 0.94390 0.03920 0.08200
C 	C 	0.78440 0.96480 0.08900 0.00800
C 	C 	0.69960 0.95520 0.07400 -0.04700
H 	H 	0.66320 0.93000 0.08700 0.04100
C 	C 	0.66830 0.98260 0.03990 0.03600
C 	C 	0.72160 0.01950 0.02080 -0.11000
C 	C 	0.80630 0.02900 0.03590 0.09900
C 	C 	0.83770 0.00170 0.07000 -0.05800
H 	H 	0.89560 0.00820 0.08020 0.02100
N 	N 	0.86100 0.06400 0.01970 -0.32200
H 	H 	0.84380 0.08220 0.99820 0.19400
H 	H 	0.91370 0.06820 0.03040 0.15600
O 	O 	0.39710 0.43610 0.13390 -0.42900
O 	O 	0.26170 0.41300 0.14776 -0.44200
O 	O 	0.24090 0.58820 0.96880 -0.45900
O 	O 	0.10550 0.56230 0.98071 -0.47900
C 	C 	0.31470 0.43840 0.12620 0.28500
C 	C 	0.18790 0.56100 0.98940 0.33400
N 	N 	0.06990 0.49460 0.03980 -0.19300
H 	H 	0.04500 0.51200 0.01940 0.11000
H 	H 	0.03820 0.47300 0.05480 0.11200
C 	C 	0.28390 0.47610 0.09280 -0.02000
C 	C 	0.19530 0.47230 0.08150 -0.05200
H 	H 	0.15670 0.44980 0.09630 0.05600
C 	C 	0.16310 0.50140 0.04850 0.11100
C 	C 	0.21950 0.53430 0.02680 -0.04400
C 	C 	0.30810 0.53800 0.03820 0.05600
C 	C 	0.34030 0.50890 0.07110 -0.02300
H 	H 	0.40090 0.51150 0.07890 0.04300
N 	N 	0.08510 0.46760 0.02560 -0.16800
H 	H 	0.06300 0.48170 0.00310 0.10200
H 	H 	0.05470 0.44390 0.03920 0.08200
C 	C 	0.28440 0.46480 0.08900 0.00800
C 	C 	0.19960 0.45520 0.07400 -0.04700
H 	H 	0.16320 0.43000 0.08700 0.04100
C 	C 	0.16830 0.48260 0.03990 0.03700
C 	C 	0.22160 0.51950 0.02080 -0.10900
C 	C 	0.30630 0.52900 0.03590 0.09900
C 	C 	0.33770 0.50170 0.07000 -0.05800
H 	H 	0.39560 0.50820 0.08020 0.02100
N 	N 	0.36100 0.56400 0.01970 -0.32200
H 	H 	0.34380 0.58220 0.99820 0.19400
H 	H 	0.41370 0.56820 0.03040 0.15600
O 	O 	0.39710 0.93610 0.63390 -0.43000
O 	O 	0.26170 0.91300 0.64776 -0.44200
O 	O 	0.24090 0.08820 0.46880 -0.45900
O 	O 	0.10550 0.06230 0.48071 -0.47900
C 	C 	0.31470 0.93840 0.62620 0.28500
C 	C 	0.18790 0.06100 0.48940 0.33400
N 	N 	0.06990 0.99460 0.53980 -0.19300
H 	H 	0.04500 0.01200 0.51940 0.11000
H 	H 	0.03820 0.97300 0.55480 0.11200
C 	C 	0.28390 0.97610 0.59280 -0.02000
C 	C 	0.19530 0.97230 0.58150 -0.05300
H 	H 	0.15670 0.94980 0.59630 0.05600
C 	C 	0.16310 0.00140 0.54850 0.10800
C 	C 	0.21950 0.03430 0.52680 -0.04500
C 	C 	0.30810 0.03800 0.53820 0.05600
C 	C 	0.34030 0.00890 0.57110 -0.02300
H 	H 	0.40090 0.01150 0.57890 0.04300
N 	N 	0.08510 0.96760 0.52560 -0.16900
H 	H 	0.06300 0.98170 0.50310 0.10100
H 	H 	0.05470 0.94390 0.53920 0.08200
C 	C 	0.28440 0.96480 0.58900 0.00800
C 	C 	0.19960 0.95520 0.57400 -0.04600
H 	H 	0.16320 0.93000 0.58700 0.04000
C 	C 	0.16830 0.98260 0.53990 0.04000
C 	C 	0.22160 0.01950 0.52080 -0.10800
C 	C 	0.30630 0.02900 0.53590 0.09900
C 	C 	0.33770 0.00170 0.57000 -0.05800
H 	H 	0.39560 0.00820 0.58020 0.02100
N 	N 	0.36100 0.06400 0.51970 -0.32200
H 	H 	0.34380 0.08220 0.49820 0.19400
H 	H 	0.41370 0.06820 0.53040 0.15600
O 	O 	0.85290 0.31390 0.63390 -0.43000
O 	O 	0.98830 0.33700 0.64776 -0.44200
O 	O 	0.00910 0.16180 0.46880 -0.45900
O 	O 	0.14450 0.18770 0.48071 -0.47900
C 	C 	0.93530 0.31160 0.62620 0.28500
C 	C 	0.06210 0.18900 0.48940 0.33400
N 	N 	0.18010 0.25540 0.53980 -0.19300
H 	H 	0.20500 0.23800 0.51940 0.11000
H 	H 	0.21180 0.27700 0.55480 0.11200
C 	C 	0.96610 0.27390 0.59280 -0.02000
C 	C 	0.05470 0.27770 0.58150 -0.05200
H 	H 	0.09330 0.30020 0.59630 0.05600
C 	C 	0.08690 0.24860 0.54850 0.11100
C 	C 	0.03050 0.21570 0.52680 -0.04400
C 	C 	0.94190 0.21200 0.53820 0.05600
C 	C 	0.90970 0.24110 0.57110 -0.02300
H 	H 	0.84910 0.23850 0.57890 0.04300
N 	N 	0.16490 0.28240 0.52560 -0.16800
H 	H 	0.18700 0.26830 0.50310 0.10200
H 	H 	0.19530 0.30610 0.53920 0.08200
C 	C 	0.96560 0.28520 0.58900 0.00800
C 	C 	0.05040 0.29480 0.57400 -0.04600
H 	H 	0.08680 0.32000 0.58700 0.04000
C 	C 	0.08170 0.26740 0.53990 0.03800
C 	C 	0.02840 0.23050 0.52080 -0.10900
C 	C 	0.94370 0.22100 0.53590 0.09900
C 	C 	0.91230 0.24830 0.57000 -0.05800
H 	H 	0.85440 0.24180 0.58020 0.02100
N 	N 	0.88900 0.18600 0.51970 -0.32200
H 	H 	0.90620 0.16780 0.49820 0.19400
H 	H 	0.83630 0.18180 0.53040 0.15600
O 	O 	0.85290 0.81390 0.13390 -0.42900
O 	O 	0.98830 0.83700 0.14776 -0.44200
O 	O 	0.00910 0.66180 0.96880 -0.45900
O 	O 	0.14450 0.68770 0.98071 -0.47900
C 	C 	0.93530 0.81160 0.12620 0.28500
C 	C 	0.06210 0.68900 0.98940 0.33400
N 	N 	0.18010 0.75540 0.03980 -0.19300
H 	H 	0.20500 0.73800 0.01940 0.11000
H 	H 	0.21180 0.77700 0.05480 0.11200
C 	C 	0.96610 0.77390 0.09280 -0.01900
C 	C 	0.05470 0.77770 0.08150 -0.05300
H 	H 	0.09330 0.80020 0.09630 0.05600
C 	C 	0.08690 0.74860 0.04850 0.11100
C 	C 	0.03050 0.71570 0.02680 -0.04400
C 	C 	0.94190 0.71200 0.03820 0.05700
C 	C 	0.90970 0.74110 0.07110 -0.02300
H 	H 	0.84910 0.73850 0.07890 0.04300
N 	N 	0.16490 0.78240 0.02560 -0.16800
H 	H 	0.18700 0.76830 0.00310 0.10200
H 	H 	0.19530 0.80610 0.03920 0.08200
C 	C 	0.96560 0.78520 0.08900 0.00800
C 	C 	0.05040 0.79480 0.07400 -0.04700
H 	H 	0.08680 0.82000 0.08700 0.04000
C 	C 	0.08170 0.76740 0.03990 0.03800
C 	C 	0.02840 0.73050 0.02080 -0.11000
C 	C 	0.94370 0.72100 0.03590 0.09900
C 	C 	0.91230 0.74830 0.07000 -0.05800
H 	H 	0.85440 0.74180 0.08020 0.02100
N 	N 	0.88900 0.68600 0.01970 -0.32200
H 	H 	0.90620 0.66780 0.99820 0.19400
H 	H 	0.83630 0.68180 0.03040 0.15600
O 	O 	0.35290 0.31390 0.13390 -0.43000
O 	O 	0.48830 0.33700 0.14776 -0.44200
O 	O 	0.50910 0.16180 0.96880 -0.45900
O 	O 	0.64450 0.18770 0.98071 -0.47900
C 	C 	0.43530 0.31160 0.12620 0.28500
C 	C 	0.56210 0.18900 0.98940 0.33400
N 	N 	0.68010 0.25540 0.03980 -0.19300
H 	H 	0.70500 0.23800 0.01940 0.11000
H 	H 	0.71180 0.27700 0.05480 0.11200
C 	C 	0.46610 0.27390 0.09280 -0.02000
C 	C 	0.55470 0.27770 0.08150 -0.05200
H 	H 	0.59330 0.30020 0.09630 0.05600
C 	C 	0.58690 0.24860 0.04850 0.11100
C 	C 	0.53050 0.21570 0.02680 -0.04400
C 	C 	0.44190 0.21200 0.03820 0.05600
C 	C 	0.40970 0.24110 0.07110 -0.02300
H 	H 	0.34910 0.23850 0.07890 0.04300
N 	N 	0.66490 0.28240 0.02560 -0.16800
H 	H 	0.68700 0.26830 0.00310 0.10200
H 	H 	0.69530 0.30610 0.03920 0.08200
C 	C 	0.46560 0.28520 0.08900 0.00800
C 	C 	0.55040 0.29480 0.07400 -0.04600
H 	H 	0.58680 0.32000 0.08700 0.04100
C 	C 	0.58170 0.26740 0.03990 0.03700
C 	C 	0.52840 0.23050 0.02080 -0.10900
C 	C 	0.44370 0.22100 0.03590 0.09900
C 	C 	0.41230 0.24830 0.07000 -0.05800
H 	H 	0.35440 0.24180 0.08020 0.02100
N 	N 	0.38900 0.18600 0.01970 -0.32200
H 	H 	0.40620 0.16780 0.99820 0.19400
H 	H 	0.33630 0.18180 0.03040 0.15600
O 	O 	0.35290 0.81390 0.63390 -0.43000
O 	O 	0.48830 0.83700 0.64776 -0.44200
O 	O 	0.50910 0.66180 0.46880 -0.45900
O 	O 	0.64450 0.68770 0.48071 -0.47900
C 	C 	0.43530 0.81160 0.62620 0.28500
C 	C 	0.56210 0.68900 0.48940 0.33400
N 	N 	0.68010 0.75540 0.53980 -0.19300
H 	H 	0.70500 0.73800 0.51940 0.11000
H 	H 	0.71180 0.77700 0.55480 0.11200
C 	C 	0.46610 0.77390 0.59280 -0.02000
C 	C 	0.55470 0.77770 0.58150 -0.05200
H 	H 	0.59330 0.80020 0.59630 0.05600
C 	C 	0.58690 0.74860 0.54850 0.11100
C 	C 	0.53050 0.71570 0.52680 -0.04400
C 	C 	0.44190 0.71200 0.53820 0.05600
C 	C 	0.40970 0.74110 0.57110 -0.02300
H 	H 	0.34910 0.73850 0.57890 0.04300
N 	N 	0.66490 0.78240 0.52560 -0.16800
H 	H 	0.68700 0.76830 0.50310 0.10200
H 	H 	0.69530 0.80610 0.53920 0.08200
C 	C 	0.46560 0.78520 0.58900 0.00800
C 	C 	0.55040 0.79480 0.57400 -0.04600
H 	H 	0.58680 0.82000 0.58700 0.04100
C 	C 	0.58170 0.76740 0.53990 0.03700
C 	C 	0.52840 0.73050 0.52080 -0.10900
C 	C 	0.44370 0.72100 0.53590 0.09900
C 	C 	0.41230 0.74830 0.57000 -0.05800
H 	H 	0.35440 0.74180 0.58020 0.02100
N 	N 	0.38900 0.68600 0.51970 -0.32200
H 	H 	0.40620 0.66780 0.49820 0.19400
H 	H 	0.33630 0.68180 0.53040 0.15600
O 	O 	0.14710 0.56390 0.88390 -0.42900
O 	O 	0.01170 0.58700 0.89776 -0.44200
O 	O 	0.99090 0.41180 0.71880 -0.45900
O 	O 	0.85550 0.43770 0.73071 -0.47900
C 	C 	0.06470 0.56160 0.87620 0.28500
C 	C 	0.93790 0.43900 0.73940 0.33400
N 	N 	0.81990 0.50540 0.78980 -0.19300
H 	H 	0.79500 0.48800 0.76940 0.11000
H 	H 	0.78820 0.52700 0.80480 0.11200
C 	C 	0.03390 0.52390 0.84280 -0.02000
C 	C 	0.94530 0.52770 0.83150 -0.05200
H 	H 	0.90670 0.55020 0.84630 0.05600
C 	C 	0.91310 0.49860 0.79850 0.11100
C 	C 	0.96950 0.46570 0.77680 -0.04400
C 	C 	0.05810 0.46200 0.78820 0.05600
C 	C 	0.09030 0.49110 0.82110 -0.02300
H 	H 	0.15090 0.48850 0.82890 0.04300
N 	N 	0.83510 0.53240 0.77560 -0.16800
H 	H 	0.81300 0.51830 0.75310 0.10200
H 	H 	0.80470 0.55610 0.78920 0.08200
C 	C 	0.03440 0.53520 0.83900 0.00800
C 	C 	0.94960 0.54480 0.82400 -0.04700
H 	H 	0.91320 0.57000 0.83700 0.04100
C 	C 	0.91830 0.51740 0.78990 0.03700
C 	C 	0.97160 0.48050 0.77080 -0.10900
C 	C 	0.05630 0.47100 0.78590 0.09900
C 	C 	0.08770 0.49830 0.82000 -0.05800
H 	H 	0.14560 0.49180 0.83020 0.02100
N 	N 	0.11100 0.43600 0.76970 -0.32200
H 	H 	0.09380 0.41780 0.74820 0.19400
H 	H 	0.16370 0.43180 0.78040 0.15600
O 	O 	0.14710 0.06390 0.38390 -0.42900
O 	O 	0.01170 0.08700 0.39776 -0.44200
O 	O 	0.99090 0.91180 0.21880 -0.45900
O 	O 	0.85550 0.93770 0.23071 -0.47900
C 	C 	0.06470 0.06160 0.37620 0.28500
C 	C 	0.93790 0.93900 0.23940 0.33400
N 	N 	0.81990 0.00540 0.28980 -0.19200
H 	H 	0.79500 0.98800 0.26940 0.11000
H 	H 	0.78820 0.02700 0.30480 0.11200
C 	C 	0.03390 0.02390 0.34280 -0.02000
C 	C 	0.94530 0.02770 0.33150 -0.05300
H 	H 	0.90670 0.05020 0.34630 0.05600
C 	C 	0.91310 0.99860 0.29850 0.10800
C 	C 	0.96950 0.96570 0.27680 -0.04500
C 	C 	0.05810 0.96200 0.28820 0.05600
C 	C 	0.09030 0.99110 0.32110 -0.02400
H 	H 	0.15090 0.98850 0.32890 0.04300
N 	N 	0.83510 0.03240 0.27560 -0.16900
H 	H 	0.81300 0.01830 0.25310 0.10200
H 	H 	0.80470 0.05610 0.28920 0.08200
C 	C 	0.03440 0.03520 0.33900 0.00800
C 	C 	0.94960 0.04480 0.32400 -0.04600
H 	H 	0.91320 0.07000 0.33700 0.04000
C 	C 	0.91830 0.01740 0.28990 0.04000
C 	C 	0.97160 0.98050 0.27080 -0.10800
C 	C 	0.05630 0.97100 0.28590 0.09900
C 	C 	0.08770 0.99830 0.32000 -0.05800
H 	H 	0.14560 0.99180 0.33020 0.02100
N 	N 	0.11100 0.93600 0.26970 -0.32200
H 	H 	0.09380 0.91780 0.24820 0.19400
H 	H 	0.16370 0.93180 0.28040 0.15600
O 	O 	0.64710 0.56390 0.38390 -0.43000
O 	O 	0.51170 0.58700 0.39776 -0.44200
O 	O 	0.49090 0.41180 0.21880 -0.45900
O 	O 	0.35550 0.43770 0.23071 -0.47900
C 	C 	0.56470 0.56160 0.37620 0.28500
C 	C 	0.43790 0.43900 0.23940 0.33400
N 	N 	0.31990 0.50540 0.28980 -0.19300
H 	H 	0.29500 0.48800 0.26940 0.11000
H 	H 	0.28820 0.52700 0.30480 0.11200
C 	C 	0.53390 0.52390 0.34280 -0.02000
C 	C 	0.44530 0.52770 0.33150 -0.05200
H 	H 	0.40670 0.55020 0.34630 0.05600
C 	C 	0.41310 0.49860 0.29850 0.11100
C 	C 	0.46950 0.46570 0.27680 -0.04400
C 	C 	0.55810 0.46200 0.28820 0.05600
C 	C 	0.59030 0.49110 0.32110 -0.02300
H 	H 	0.65090 0.48850 0.32890 0.04300
N 	N 	0.33510 0.53240 0.27560 -0.16800
H 	H 	0.31300 0.51830 0.25310 0.10200
H 	H 	0.30470 0.55610 0.28920 0.08200
C 	C 	0.53440 0.53520 0.33900 0.00800
C 	C 	0.44960 0.54480 0.32400 -0.04600
H 	H 	0.41320 0.57000 0.33700 0.04100
C 	C 	0.41830 0.51740 0.28990 0.03700
C 	C 	0.47160 0.48050 0.27080 -0.10900
C 	C 	0.55630 0.47100 0.28590 0.09900
C 	C 	0.58770 0.49830 0.32000 -0.05800
H 	H 	0.64560 0.49180 0.33020 0.02100
N 	N 	0.61100 0.43600 0.26970 -0.32200
H 	H 	0.59380 0.41780 0.24820 0.19400
H 	H 	0.66370 0.43180 0.28040 0.15600
O 	O 	0.64710 0.06390 0.88390 -0.43000
O 	O 	0.51170 0.08700 0.89776 -0.44200
O 	O 	0.49090 0.91180 0.71880 -0.45900
O 	O 	0.35550 0.93770 0.73071 -0.47900
C 	C 	0.56470 0.06160 0.87620 0.28500
C 	C 	0.43790 0.93900 0.73940 0.33400
N 	N 	0.31990 0.00540 0.78980 -0.19300
H 	H 	0.29500 0.98800 0.76940 0.11000
H 	H 	0.28820 0.02700 0.80480 0.11200
C 	C 	0.53390 0.02390 0.84280 -0.02000
C 	C 	0.44530 0.02770 0.83150 -0.05200
H 	H 	0.40670 0.05020 0.84630 0.05500
C 	C 	0.41310 0.99860 0.79850 0.11200
C 	C 	0.46950 0.96570 0.77680 -0.04400
C 	C 	0.55810 0.96200 0.78820 0.05600
C 	C 	0.59030 0.99110 0.82110 -0.02300
H 	H 	0.65090 0.98850 0.82890 0.04300
N 	N 	0.33510 0.03240 0.77560 -0.16800
H 	H 	0.31300 0.01830 0.75310 0.10200
H 	H 	0.30470 0.05610 0.78920 0.08200
C 	C 	0.53440 0.03520 0.83900 0.00800
C 	C 	0.44960 0.04480 0.82400 -0.04700
H 	H 	0.41320 0.07000 0.83700 0.04100
C 	C 	0.41830 0.01740 0.78990 0.03600
C 	C 	0.47160 0.98050 0.77080 -0.11000
C 	C 	0.55630 0.97100 0.78590 0.09900
C 	C 	0.58770 0.99830 0.82000 -0.05800
H 	H 	0.64560 0.99180 0.83020 0.02100
N 	N 	0.61100 0.93600 0.76970 -0.32200
H 	H 	0.59380 0.91780 0.74820 0.19400
H 	H 	0.66370 0.93180 0.78040 0.15600
O 	O 	0.10290 0.68610 0.88390 -0.43000
O 	O 	0.23830 0.66300 0.89776 -0.44200
O 	O 	0.25910 0.83820 0.71880 -0.45900
O 	O 	0.39450 0.81230 0.73071 -0.47900
C 	C 	0.18530 0.68840 0.87620 0.28500
C 	C 	0.31210 0.81100 0.73940 0.33400
N 	N 	0.43010 0.74460 0.78980 -0.19300
H 	H 	0.45500 0.76200 0.76940 0.11000
H 	H 	0.46180 0.72300 0.80480 0.11200
C 	C 	0.21610 0.72610 0.84280 -0.02000
C 	C 	0.30470 0.72230 0.83150 -0.05200
H 	H 	0.34330 0.69980 0.84630 0.05600
C 	C 	0.33690 0.75140 0.79850 0.11100
C 	C 	0.28050 0.78430 0.77680 -0.04400
C 	C 	0.19190 0.78800 0.78820 0.05600
C 	C 	0.15970 0.75890 0.82110 -0.02300
H 	H 	0.09910 0.76150 0.82890 0.04300
N 	N 	0.41490 0.71760 0.77560 -0.16800
H 	H 	0.43700 0.73170 0.75310 0.10200
H 	H 	0.44530 0.69390 0.78920 0.08200
C 	C 	0.21560 0.71480 0.83900 0.00800
C 	C 	0.30040 0.70520 0.82400 -0.04600
H 	H 	0.33680 0.68000 0.83700 0.04100
C 	C 	0.33170 0.73260 0.78990 0.03700
C 	C 	0.27840 0.76950 0.77080 -0.10900
C 	C 	0.19370 0.77900 0.78590 0.09900
C 	C 	0.16230 0.75170 0.82000 -0.05800
H 	H 	0.10440 0.75820 0.83020 0.02100
N 	N 	0.13900 0.81400 0.76970 -0.32200
H 	H 	0.15620 0.83220 0.74820 0.19400
H 	H 	0.08630 0.81820 0.78040 0.15600
O 	O 	0.10290 0.18610 0.38390 -0.43000
O 	O 	0.23830 0.16300 0.39776 -0.44200
O 	O 	0.25910 0.33820 0.21880 -0.45900
O 	O 	0.39450 0.31230 0.23071 -0.47900
C 	C 	0.18530 0.18840 0.37620 0.28500
C 	C 	0.31210 0.31100 0.23940 0.33400
N 	N 	0.43010 0.24460 0.28980 -0.19300
H 	H 	0.45500 0.26200 0.26940 0.11000
H 	H 	0.46180 0.22300 0.30480 0.11200
C 	C 	0.21610 0.22610 0.34280 -0.02000
C 	C 	0.30470 0.22230 0.33150 -0.05200
H 	H 	0.34330 0.19980 0.34630 0.05600
C 	C 	0.33690 0.25140 0.29850 0.11100
C 	C 	0.28050 0.28430 0.27680 -0.04400
C 	C 	0.19190 0.28800 0.28820 0.05600
C 	C 	0.15970 0.25890 0.32110 -0.02300
H 	H 	0.09910 0.26150 0.32890 0.04300
N 	N 	0.41490 0.21760 0.27560 -0.16800
H 	H 	0.43700 0.23170 0.25310 0.10200
H 	H 	0.44530 0.19390 0.28920 0.08200
C 	C 	0.21560 0.21480 0.33900 0.00800
C 	C 	0.30040 0.20520 0.32400 -0.04600
H 	H 	0.33680 0.18000 0.33700 0.04100
C 	C 	0.33170 0.23260 0.28990 0.03700
C 	C 	0.27840 0.26950 0.27080 -0.10900
C 	C 	0.19370 0.27900 0.28590 0.09900
C 	C 	0.16230 0.25170 0.32000 -0.05800
H 	H 	0.10440 0.25820 0.33020 0.02100
N 	N 	0.13900 0.31400 0.26970 -0.32200
H 	H 	0.15620 0.33220 0.24820 0.19400
H 	H 	0.08630 0.31820 0.28040 0.15600
O 	O 	0.60290 0.68610 0.38390 -0.42900
O 	O 	0.73830 0.66300 0.39776 -0.44200
O 	O 	0.75910 0.83820 0.21880 -0.45900
O 	O 	0.89450 0.81230 0.23071 -0.47900
C 	C 	0.68530 0.68840 0.37620 0.28500
C 	C 	0.81210 0.81100 0.23940 0.33400
N 	N 	0.93010 0.74460 0.28980 -0.19300
H 	H 	0.95500 0.76200 0.26940 0.11000
H 	H 	0.96180 0.72300 0.30480 0.11200
C 	C 	0.71610 0.72610 0.34280 -0.02000
C 	C 	0.80470 0.72230 0.33150 -0.05200
H 	H 	0.84330 0.69980 0.34630 0.05600
C 	C 	0.83690 0.75140 0.29850 0.11100
C 	C 	0.78050 0.78430 0.27680 -0.04400
C 	C 	0.69190 0.78800 0.28820 0.05600
C 	C 	0.65970 0.75890 0.32110 -0.02300
H 	H 	0.59910 0.76150 0.32890 0.04300
N 	N 	0.91490 0.71760 0.27560 -0.16800
H 	H 	0.93700 0.73170 0.25310 0.10200
H 	H 	0.94530 0.69390 0.28920 0.08200
C 	C 	0.71560 0.71480 0.33900 0.00800
C 	C 	0.80040 0.70520 0.32400 -0.04600
H 	H 	0.83680 0.68000 0.33700 0.04100
C 	C 	0.83170 0.73260 0.28990 0.03700
C 	C 	0.77840 0.76950 0.27080 -0.10900
C 	C 	0.69370 0.77900 0.28590 0.09900
C 	C 	0.66230 0.75170 0.32000 -0.05800
H 	H 	0.60440 0.75820 0.33020 0.02100
N 	N 	0.63900 0.81400 0.26970 -0.32200
H 	H 	0.65620 0.83220 0.24820 0.19400
H 	H 	0.58630 0.81820 0.28040 0.15600
O 	O 	0.60290 0.18610 0.88390 -0.42900
O 	O 	0.73830 0.16300 0.89776 -0.44200
O 	O 	0.75910 0.33820 0.71880 -0.45900
O 	O 	0.89450 0.31230 0.73071 -0.47900
C 	C 	0.68530 0.18840 0.87620 0.28500
C 	C 	0.81210 0.31100 0.73940 0.33400
N 	N 	0.93010 0.24460 0.78980 -0.19300
H 	H 	0.95500 0.26200 0.76940 0.11000
H 	H 	0.96180 0.22300 0.80480 0.11200
C 	C 	0.71610 0.22610 0.84280 -0.02000
C 	C 	0.80470 0.22230 0.83150 -0.05200
H 	H 	0.84330 0.19980 0.84630 0.05600
C 	C 	0.83690 0.25140 0.79850 0.11100
C 	C 	0.78050 0.28430 0.77680 -0.04400
C 	C 	0.69190 0.28800 0.78820 0.05600
C 	C 	0.65970 0.25890 0.82110 -0.02300
H 	H 	0.59910 0.26150 0.82890 0.04300
N 	N 	0.91490 0.21760 0.77560 -0.16800
H 	H 	0.93700 0.23170 0.75310 0.10100
H 	H 	0.94530 0.19390 0.78920 0.08200
C 	C 	0.71560 0.21480 0.83900 0.00800
C 	C 	0.80040 0.20520 0.82400 -0.04700
H 	H 	0.83680 0.18000 0.83700 0.04100
C 	C 	0.83170 0.23260 0.78990 0.03700
C 	C 	0.77840 0.26950 0.77080 -0.10900
C 	C 	0.69370 0.27900 0.78590 0.09900
C 	C 	0.66230 0.25170 0.82000 -0.05800
H 	H 	0.60440 0.25820 0.83020 0.02100
N 	N 	0.63900 0.31400 0.76970 -0.32200
H 	H 	0.65620 0.33220 0.74820 0.19400
H 	H 	0.58630 0.31820 0.78040 0.15600
In	In	0.87500 0.37500 0.68359 1.99800
In	In	0.87500 0.87500 0.18359 1.99800
In	In	0.37500 0.37500 0.18359 1.99800
In	In	0.37500 0.87500 0.68359 1.99800
In	In	0.12500 0.62500 0.93359 1.99800
In	In	0.12500 0.12500 0.43359 1.99800
In	In	0.62500 0.62500 0.43359 1.99800
In	In	0.62500 0.12500 0.93359 1.99800
