data_crystal

_cell_length_a 15.43360
_cell_length_b 27.61370
_cell_length_c 30.67400
_cell_angle_alpha 90.00000
_cell_angle_beta  90.00000
_cell_angle_gamma 90.00000

_symmetry_space_group_name_	'P 1'
_symmetry_space_group_name_H-M	'P 1'

loop_
_symmetry_equiv_pos_as_xyz
  x,y,z

loop_
_atom_site_label
_atom_site_type_symbol
_atom_site_fract_x
_atom_site_fract_y
_atom_site_fract_z
_atom_site_charge
O 	O 	0.85920 0.43130 0.12660 -0.43900
O 	O 	0.99170 0.41020 0.11050 -0.41700
O 	O 	0.01490 0.58540 0.29010 -0.43800
O 	O 	0.14860 0.56770 0.27400 -0.47900
C 	C 	0.93890 0.43460 0.13340 0.28000
C 	C 	0.97250 0.46660 0.16880 -0.01800
C 	C 	0.05760 0.46160 0.18280 -0.04800
H 	H 	0.09280 0.43770 0.17080 0.06000
C 	C 	0.09020 0.49230 0.21480 0.08300
C 	C 	0.03770 0.52800 0.23270 -0.12000
C 	C 	0.95250 0.53300 0.21870 0.00800
H 	H 	0.91730 0.55690 0.23060 0.02800
C 	C 	0.91990 0.50230 0.18670 -0.03100
H 	H 	0.86290 0.50560 0.17730 0.04000
C 	C 	0.06850 0.56160 0.26750 0.32800
N 	N 	0.17900 0.48640 0.22800 -0.17300
H 	H 	0.21090 0.46430 0.21610 0.10200
H 	H 	0.20110 0.50490 0.24770 0.07300
N 	N 	0.18420 0.50630 0.20870 -0.19800
H 	H 	0.21670 0.49060 0.19090 0.10700
H 	H 	0.20700 0.52380 0.22890 0.12600
C 	C 	0.05920 0.47520 0.17250 -0.06100
H 	H 	0.09570 0.46130 0.15190 0.05300
C 	C 	0.09660 0.50350 0.20510 0.05900
C 	C 	0.94910 0.52050 0.22770 -0.00300
H 	H 	0.91170 0.53640 0.24670 0.03600
C 	C 	0.91340 0.49090 0.19630 -0.02300
H 	H 	0.85380 0.48720 0.19340 0.03900
O 	O 	0.85920 0.93130 0.62660 -0.43900
O 	O 	0.99170 0.91020 0.61050 -0.41700
O 	O 	0.01490 0.08540 0.79010 -0.43800
O 	O 	0.14860 0.06770 0.77400 -0.47900
C 	C 	0.93890 0.93460 0.63340 0.28000
C 	C 	0.97250 0.96660 0.66880 -0.01800
C 	C 	0.05760 0.96160 0.68280 -0.04800
H 	H 	0.09280 0.93770 0.67080 0.06000
C 	C 	0.09020 0.99230 0.71480 0.08400
C 	C 	0.03770 0.02800 0.73270 -0.12000
C 	C 	0.95250 0.03300 0.71870 0.00700
H 	H 	0.91730 0.05690 0.73060 0.02800
C 	C 	0.91990 0.00230 0.68670 -0.03000
H 	H 	0.86290 0.00560 0.67730 0.04000
C 	C 	0.06850 0.06160 0.76750 0.32800
N 	N 	0.17900 0.98640 0.72800 -0.17400
H 	H 	0.21090 0.96430 0.71610 0.10200
H 	H 	0.20110 0.00490 0.74770 0.07300
N 	N 	0.18420 0.00630 0.70870 -0.19600
H 	H 	0.21670 0.99060 0.69090 0.10700
H 	H 	0.20700 0.02380 0.72890 0.12700
C 	C 	0.05920 0.97520 0.67250 -0.06100
H 	H 	0.09570 0.96130 0.65190 0.05400
C 	C 	0.09660 0.00350 0.70510 0.05800
C 	C 	0.94910 0.02050 0.72770 -0.00300
H 	H 	0.91170 0.03640 0.74670 0.03700
C 	C 	0.91340 0.99090 0.69630 -0.02300
H 	H 	0.85380 0.98720 0.69340 0.04100
O 	O 	0.35920 0.43130 0.62660 -0.43800
O 	O 	0.49170 0.41020 0.61050 -0.41600
O 	O 	0.51490 0.58540 0.79010 -0.43700
O 	O 	0.64860 0.56770 0.77400 -0.47800
C 	C 	0.43890 0.43460 0.63340 0.28100
C 	C 	0.47250 0.46660 0.66880 -0.01700
C 	C 	0.55760 0.46160 0.68280 -0.04700
H 	H 	0.59280 0.43770 0.67080 0.06100
C 	C 	0.59020 0.49230 0.71480 0.08400
C 	C 	0.53770 0.52800 0.73270 -0.11900
C 	C 	0.45250 0.53300 0.71870 0.00900
H 	H 	0.41730 0.55690 0.73060 0.02900
C 	C 	0.41990 0.50230 0.68670 -0.03000
H 	H 	0.36290 0.50560 0.67730 0.04100
C 	C 	0.56850 0.56160 0.76750 0.32900
N 	N 	0.67900 0.48640 0.72800 -0.17200
H 	H 	0.71090 0.46430 0.71610 0.10300
H 	H 	0.70110 0.50490 0.74770 0.07400
N 	N 	0.68420 0.50630 0.70870 -0.19700
H 	H 	0.71670 0.49060 0.69090 0.10800
H 	H 	0.70700 0.52380 0.72890 0.12700
C 	C 	0.55920 0.47520 0.67250 -0.06000
H 	H 	0.59570 0.46130 0.65190 0.05400
C 	C 	0.59660 0.50350 0.70510 0.06000
C 	C 	0.44910 0.52050 0.72770 -0.00200
H 	H 	0.41170 0.53640 0.74670 0.03700
C 	C 	0.41340 0.49090 0.69630 -0.02200
H 	H 	0.35380 0.48720 0.69340 0.04100
O 	O 	0.35920 0.93130 0.12660 -0.43800
O 	O 	0.49170 0.91020 0.11050 -0.41600
O 	O 	0.51490 0.08540 0.29010 -0.43700
O 	O 	0.64860 0.06770 0.27400 -0.47800
C 	C 	0.43890 0.93460 0.13340 0.28100
C 	C 	0.47250 0.96660 0.16880 -0.01700
C 	C 	0.55760 0.96160 0.18280 -0.04700
H 	H 	0.59280 0.93770 0.17080 0.06100
C 	C 	0.59020 0.99230 0.21480 0.08400
C 	C 	0.53770 0.02800 0.23270 -0.11900
C 	C 	0.45250 0.03300 0.21870 0.00900
H 	H 	0.41730 0.05690 0.23060 0.02900
C 	C 	0.41990 0.00230 0.18670 -0.03000
H 	H 	0.36290 0.00560 0.17730 0.04100
C 	C 	0.56850 0.06160 0.26750 0.32900
N 	N 	0.67900 0.98640 0.22800 -0.17100
H 	H 	0.71090 0.96430 0.21610 0.10300
H 	H 	0.70110 0.00490 0.24770 0.07300
N 	N 	0.68420 0.00630 0.20870 -0.19800
H 	H 	0.71670 0.99060 0.19090 0.10800
H 	H 	0.70700 0.02380 0.22890 0.12700
C 	C 	0.55920 0.97520 0.17250 -0.06000
H 	H 	0.59570 0.96130 0.15190 0.05400
C 	C 	0.59660 0.00350 0.20510 0.06000
C 	C 	0.44910 0.02050 0.22770 -0.00200
H 	H 	0.41170 0.03640 0.24670 0.03700
C 	C 	0.41340 0.99090 0.19630 -0.02200
H 	H 	0.35380 0.98720 0.19340 0.04000
O 	O 	0.89080 0.31870 0.12660 -0.43800
O 	O 	0.75830 0.33980 0.11050 -0.41600
O 	O 	0.73510 0.16460 0.29010 -0.43700
O 	O 	0.60140 0.18230 0.27400 -0.47800
C 	C 	0.81110 0.31540 0.13340 0.28100
C 	C 	0.77750 0.28340 0.16880 -0.01700
C 	C 	0.69240 0.28840 0.18280 -0.04700
H 	H 	0.65720 0.31230 0.17080 0.06100
C 	C 	0.65980 0.25770 0.21480 0.08400
C 	C 	0.71230 0.22200 0.23270 -0.11900
C 	C 	0.79750 0.21700 0.21870 0.00900
H 	H 	0.83270 0.19310 0.23060 0.02900
C 	C 	0.83010 0.24770 0.18670 -0.03000
H 	H 	0.88710 0.24440 0.17730 0.04100
C 	C 	0.68150 0.18840 0.26750 0.32900
N 	N 	0.57100 0.26360 0.22800 -0.17200
H 	H 	0.53910 0.28570 0.21610 0.10300
H 	H 	0.54890 0.24510 0.24770 0.07400
N 	N 	0.56580 0.24370 0.20870 -0.19700
H 	H 	0.53330 0.25940 0.19090 0.10800
H 	H 	0.54300 0.22620 0.22890 0.12700
C 	C 	0.69080 0.27480 0.17250 -0.06000
H 	H 	0.65430 0.28870 0.15190 0.05400
C 	C 	0.65340 0.24650 0.20510 0.06000
C 	C 	0.80090 0.22950 0.22770 -0.00200
H 	H 	0.83830 0.21360 0.24670 0.03700
C 	C 	0.83660 0.25910 0.19630 -0.02200
H 	H 	0.89620 0.26280 0.19340 0.04000
O 	O 	0.89080 0.81870 0.62660 -0.43800
O 	O 	0.75830 0.83980 0.61050 -0.41600
O 	O 	0.73510 0.66460 0.79010 -0.43700
O 	O 	0.60140 0.68230 0.77400 -0.47800
C 	C 	0.81110 0.81540 0.63340 0.28100
C 	C 	0.77750 0.78340 0.66880 -0.01700
C 	C 	0.69240 0.78840 0.68280 -0.04700
H 	H 	0.65720 0.81230 0.67080 0.06100
C 	C 	0.65980 0.75770 0.71480 0.08400
C 	C 	0.71230 0.72200 0.73270 -0.11900
C 	C 	0.79750 0.71700 0.71870 0.00900
H 	H 	0.83270 0.69310 0.73060 0.02900
C 	C 	0.83010 0.74770 0.68670 -0.03000
H 	H 	0.88710 0.74440 0.67730 0.04100
C 	C 	0.68150 0.68840 0.76750 0.32900
N 	N 	0.57100 0.76360 0.72800 -0.17200
H 	H 	0.53910 0.78570 0.71610 0.10300
H 	H 	0.54890 0.74510 0.74770 0.07400
N 	N 	0.56580 0.74370 0.70870 -0.19700
H 	H 	0.53330 0.75940 0.69090 0.10800
H 	H 	0.54300 0.72620 0.72890 0.12700
C 	C 	0.69080 0.77480 0.67250 -0.06000
H 	H 	0.65430 0.78870 0.65190 0.05400
C 	C 	0.65340 0.74650 0.70510 0.06000
C 	C 	0.80090 0.72950 0.72770 -0.00200
H 	H 	0.83830 0.71360 0.74670 0.03700
C 	C 	0.83660 0.75910 0.69630 -0.02200
H 	H 	0.89620 0.76280 0.69340 0.04000
O 	O 	0.39080 0.31870 0.62660 -0.43800
O 	O 	0.25830 0.33980 0.61050 -0.41600
O 	O 	0.23510 0.16460 0.79010 -0.43700
O 	O 	0.10140 0.18230 0.77400 -0.47800
C 	C 	0.31110 0.31540 0.63340 0.28100
C 	C 	0.27750 0.28340 0.66880 -0.01700
C 	C 	0.19240 0.28840 0.68280 -0.04700
H 	H 	0.15720 0.31230 0.67080 0.06100
C 	C 	0.15980 0.25770 0.71480 0.08400
C 	C 	0.21230 0.22200 0.73270 -0.11900
C 	C 	0.29750 0.21700 0.71870 0.00900
H 	H 	0.33270 0.19310 0.73060 0.02900
C 	C 	0.33010 0.24770 0.68670 -0.03000
H 	H 	0.38710 0.24440 0.67730 0.04100
C 	C 	0.18150 0.18840 0.76750 0.32900
N 	N 	0.07100 0.26360 0.72800 -0.17200
H 	H 	0.03910 0.28570 0.71610 0.10300
H 	H 	0.04890 0.24510 0.74770 0.07400
N 	N 	0.06580 0.24370 0.70870 -0.19700
H 	H 	0.03330 0.25940 0.69090 0.10800
H 	H 	0.04300 0.22620 0.72890 0.12700
C 	C 	0.19080 0.27480 0.67250 -0.06000
H 	H 	0.15430 0.28870 0.65190 0.05400
C 	C 	0.15340 0.24650 0.70510 0.06000
C 	C 	0.30090 0.22950 0.72770 -0.00200
H 	H 	0.33830 0.21360 0.74670 0.03700
C 	C 	0.33660 0.25910 0.69630 -0.02200
H 	H 	0.39620 0.26280 0.69340 0.04100
O 	O 	0.39080 0.81870 0.12660 -0.43800
O 	O 	0.25830 0.83980 0.11050 -0.41600
O 	O 	0.23510 0.66460 0.29010 -0.43700
O 	O 	0.10140 0.68230 0.27400 -0.47800
C 	C 	0.31110 0.81540 0.13340 0.28100
C 	C 	0.27750 0.78340 0.16880 -0.01700
C 	C 	0.19240 0.78840 0.18280 -0.04600
H 	H 	0.15720 0.81230 0.17080 0.06100
C 	C 	0.15980 0.75770 0.21480 0.08400
C 	C 	0.21230 0.72200 0.23270 -0.11900
C 	C 	0.29750 0.71700 0.21870 0.00900
H 	H 	0.33270 0.69310 0.23060 0.02900
C 	C 	0.33010 0.74770 0.18670 -0.03000
H 	H 	0.38710 0.74440 0.17730 0.04100
C 	C 	0.18150 0.68840 0.26750 0.32900
N 	N 	0.07100 0.76360 0.22800 -0.17200
H 	H 	0.03910 0.78570 0.21610 0.10300
H 	H 	0.04890 0.74510 0.24770 0.07400
N 	N 	0.06580 0.74370 0.20870 -0.19700
H 	H 	0.03330 0.75940 0.19090 0.10800
H 	H 	0.04300 0.72620 0.22890 0.12700
C 	C 	0.19080 0.77480 0.17250 -0.06000
H 	H 	0.15430 0.78870 0.15190 0.05400
C 	C 	0.15340 0.74650 0.20510 0.05900
C 	C 	0.30090 0.72950 0.22770 -0.00200
H 	H 	0.33830 0.71360 0.24670 0.03700
C 	C 	0.33660 0.75910 0.19630 -0.02200
H 	H 	0.39620 0.76280 0.19340 0.04100
O 	O 	0.10920 0.56870 0.37660 -0.43800
O 	O 	0.24170 0.58980 0.36050 -0.41600
O 	O 	0.26490 0.41460 0.54010 -0.43700
O 	O 	0.39860 0.43230 0.52400 -0.47800
C 	C 	0.18890 0.56540 0.38340 0.28100
C 	C 	0.22250 0.53340 0.41880 -0.01700
C 	C 	0.30760 0.53840 0.43280 -0.04700
H 	H 	0.34280 0.56230 0.42080 0.06100
C 	C 	0.34020 0.50770 0.46480 0.08400
C 	C 	0.28770 0.47200 0.48270 -0.11900
C 	C 	0.20250 0.46700 0.46870 0.00900
H 	H 	0.16730 0.44310 0.48060 0.02900
C 	C 	0.16990 0.49770 0.43670 -0.03000
H 	H 	0.11290 0.49440 0.42730 0.04100
C 	C 	0.31850 0.43840 0.51750 0.32900
N 	N 	0.42900 0.51360 0.47800 -0.17200
H 	H 	0.46090 0.53570 0.46610 0.10300
H 	H 	0.45110 0.49510 0.49770 0.07400
N 	N 	0.43420 0.49370 0.45870 -0.19700
H 	H 	0.46670 0.50940 0.44090 0.10800
H 	H 	0.45700 0.47620 0.47890 0.12700
C 	C 	0.30920 0.52480 0.42250 -0.06000
H 	H 	0.34570 0.53870 0.40190 0.05400
C 	C 	0.34660 0.49650 0.45510 0.06000
C 	C 	0.19910 0.47950 0.47770 -0.00200
H 	H 	0.16170 0.46360 0.49670 0.03700
C 	C 	0.16340 0.50910 0.44630 -0.02200
H 	H 	0.10380 0.51280 0.44340 0.04000
O 	O 	0.10920 0.06870 0.87660 -0.43800
O 	O 	0.24170 0.08980 0.86050 -0.41600
O 	O 	0.26490 0.91460 0.04010 -0.43700
O 	O 	0.39860 0.93230 0.02400 -0.47800
C 	C 	0.18890 0.06540 0.88340 0.28100
C 	C 	0.22250 0.03340 0.91880 -0.01700
C 	C 	0.30760 0.03840 0.93280 -0.04700
H 	H 	0.34280 0.06230 0.92080 0.06100
C 	C 	0.34020 0.00770 0.96480 0.08300
C 	C 	0.28770 0.97200 0.98270 -0.11900
C 	C 	0.20250 0.96700 0.96870 0.00900
H 	H 	0.16730 0.94310 0.98060 0.02900
C 	C 	0.16990 0.99770 0.93670 -0.02900
H 	H 	0.11290 0.99440 0.92730 0.04100
C 	C 	0.31850 0.93840 0.01750 0.32900
N 	N 	0.42900 0.01360 0.97800 -0.17100
H 	H 	0.46090 0.03570 0.96610 0.10300
H 	H 	0.45110 0.99510 0.99770 0.07300
N 	N 	0.43420 0.99370 0.95870 -0.19800
H 	H 	0.46670 0.00940 0.94090 0.10800
H 	H 	0.45700 0.97620 0.97890 0.12700
C 	C 	0.30920 0.02480 0.92250 -0.06000
H 	H 	0.34570 0.03870 0.90190 0.05400
C 	C 	0.34660 0.99650 0.95510 0.06000
C 	C 	0.19910 0.97950 0.97770 -0.00300
H 	H 	0.16170 0.96360 0.99670 0.03700
C 	C 	0.16340 0.00910 0.94630 -0.02300
H 	H 	0.10380 0.01280 0.94340 0.04100
O 	O 	0.60920 0.56870 0.87660 -0.43800
O 	O 	0.74170 0.58980 0.86050 -0.41600
O 	O 	0.76490 0.41460 0.04010 -0.43700
O 	O 	0.89860 0.43230 0.02400 -0.47800
C 	C 	0.68890 0.56540 0.88340 0.28100
C 	C 	0.72250 0.53340 0.91880 -0.01700
C 	C 	0.80760 0.53840 0.93280 -0.04700
H 	H 	0.84280 0.56230 0.92080 0.06100
C 	C 	0.84020 0.50770 0.96480 0.08400
C 	C 	0.78770 0.47200 0.98270 -0.11900
C 	C 	0.70250 0.46700 0.96870 0.00900
H 	H 	0.66730 0.44310 0.98060 0.02900
C 	C 	0.66990 0.49770 0.93670 -0.03000
H 	H 	0.61290 0.49440 0.92730 0.04100
C 	C 	0.81850 0.43840 0.01750 0.32900
N 	N 	0.92900 0.51360 0.97800 -0.17200
H 	H 	0.96090 0.53570 0.96610 0.10300
H 	H 	0.95110 0.49510 0.99770 0.07400
N 	N 	0.93420 0.49370 0.95870 -0.19700
H 	H 	0.96670 0.50940 0.94090 0.10800
H 	H 	0.95700 0.47620 0.97890 0.12700
C 	C 	0.80920 0.52480 0.92250 -0.06000
H 	H 	0.84570 0.53870 0.90190 0.05400
C 	C 	0.84660 0.49650 0.95510 0.06000
C 	C 	0.69910 0.47950 0.97770 -0.00200
H 	H 	0.66170 0.46360 0.99670 0.03700
C 	C 	0.66340 0.50910 0.94630 -0.02200
H 	H 	0.60380 0.51280 0.94340 0.04100
O 	O 	0.60920 0.06870 0.37660 -0.43800
O 	O 	0.74170 0.08980 0.36050 -0.41600
O 	O 	0.76490 0.91460 0.54010 -0.43700
O 	O 	0.89860 0.93230 0.52400 -0.47800
C 	C 	0.68890 0.06540 0.38340 0.28100
C 	C 	0.72250 0.03340 0.41880 -0.01700
C 	C 	0.80760 0.03840 0.43280 -0.04600
H 	H 	0.84280 0.06230 0.42080 0.06100
C 	C 	0.84020 0.00770 0.46480 0.08500
C 	C 	0.78770 0.97200 0.48270 -0.11900
C 	C 	0.70250 0.96700 0.46870 0.00900
H 	H 	0.66730 0.94310 0.48060 0.02900
C 	C 	0.66990 0.99770 0.43670 -0.03000
H 	H 	0.61290 0.99440 0.42730 0.04200
C 	C 	0.81850 0.93840 0.51750 0.32900
N 	N 	0.92900 0.01360 0.47800 -0.17300
H 	H 	0.96090 0.03570 0.46610 0.10300
H 	H 	0.95110 0.99510 0.49770 0.07500
N 	N 	0.93420 0.99370 0.45870 -0.19600
H 	H 	0.96670 0.00940 0.44090 0.10700
H 	H 	0.95700 0.97620 0.47890 0.12700
C 	C 	0.80920 0.02480 0.42250 -0.06000
H 	H 	0.84570 0.03870 0.40190 0.05400
C 	C 	0.84660 0.99650 0.45510 0.05900
C 	C 	0.69910 0.97950 0.47770 -0.00200
H 	H 	0.66170 0.96360 0.49670 0.03700
C 	C 	0.66340 0.00910 0.44630 -0.02200
H 	H 	0.60380 0.01280 0.44340 0.04000
O 	O 	0.14080 0.68130 0.37660 -0.43800
O 	O 	0.00830 0.66020 0.36050 -0.41600
O 	O 	0.98510 0.83540 0.54010 -0.43700
O 	O 	0.85140 0.81770 0.52400 -0.47800
C 	C 	0.06110 0.68460 0.38340 0.28100
C 	C 	0.02750 0.71660 0.41880 -0.01700
C 	C 	0.94240 0.71160 0.43280 -0.04600
H 	H 	0.90720 0.68770 0.42080 0.06100
C 	C 	0.90980 0.74230 0.46480 0.08400
C 	C 	0.96230 0.77800 0.48270 -0.11900
C 	C 	0.04750 0.78300 0.46870 0.00900
H 	H 	0.08270 0.80690 0.48060 0.02900
C 	C 	0.08010 0.75230 0.43670 -0.03000
H 	H 	0.13710 0.75560 0.42730 0.04100
C 	C 	0.93150 0.81160 0.51750 0.32900
N 	N 	0.82100 0.73640 0.47800 -0.17200
H 	H 	0.78910 0.71430 0.46610 0.10300
H 	H 	0.79890 0.75490 0.49770 0.07400
N 	N 	0.81580 0.75630 0.45870 -0.19700
H 	H 	0.78330 0.74060 0.44090 0.10800
H 	H 	0.79300 0.77380 0.47890 0.12700
C 	C 	0.94080 0.72520 0.42250 -0.06000
H 	H 	0.90430 0.71130 0.40190 0.05400
C 	C 	0.90340 0.75350 0.45510 0.05900
C 	C 	0.05090 0.77050 0.47770 -0.00300
H 	H 	0.08830 0.78640 0.49670 0.03700
C 	C 	0.08660 0.74090 0.44630 -0.02200
H 	H 	0.14620 0.73720 0.44340 0.04000
O 	O 	0.14080 0.18130 0.87660 -0.43800
O 	O 	0.00830 0.16020 0.86050 -0.41600
O 	O 	0.98510 0.33540 0.04010 -0.43700
O 	O 	0.85140 0.31770 0.02400 -0.47800
C 	C 	0.06110 0.18460 0.88340 0.28100
C 	C 	0.02750 0.21660 0.91880 -0.01700
C 	C 	0.94240 0.21160 0.93280 -0.04700
H 	H 	0.90720 0.18770 0.92080 0.06100
C 	C 	0.90980 0.24230 0.96480 0.08400
C 	C 	0.96230 0.27800 0.98270 -0.12000
C 	C 	0.04750 0.28300 0.96870 0.00900
H 	H 	0.08270 0.30690 0.98060 0.02900
C 	C 	0.08010 0.25230 0.93670 -0.03000
H 	H 	0.13710 0.25560 0.92730 0.04100
C 	C 	0.93150 0.31160 0.01750 0.33000
N 	N 	0.82100 0.23640 0.97800 -0.17200
H 	H 	0.78910 0.21430 0.96610 0.10300
H 	H 	0.79890 0.25490 0.99770 0.07400
N 	N 	0.81580 0.25630 0.95870 -0.19700
H 	H 	0.78330 0.24060 0.94090 0.10800
H 	H 	0.79300 0.27380 0.97890 0.12700
C 	C 	0.94080 0.22520 0.92250 -0.06000
H 	H 	0.90430 0.21130 0.90190 0.05400
C 	C 	0.90340 0.25350 0.95510 0.06000
C 	C 	0.05090 0.27050 0.97770 -0.00200
H 	H 	0.08830 0.28640 0.99670 0.03700
C 	C 	0.08660 0.24090 0.94630 -0.02200
H 	H 	0.14620 0.23720 0.94340 0.04100
O 	O 	0.64080 0.68130 0.87660 -0.43800
O 	O 	0.50830 0.66020 0.86050 -0.41600
O 	O 	0.48510 0.83540 0.04010 -0.43700
O 	O 	0.35140 0.81770 0.02400 -0.47800
C 	C 	0.56110 0.68460 0.88340 0.28100
C 	C 	0.52750 0.71660 0.91880 -0.01700
C 	C 	0.44240 0.71160 0.93280 -0.04700
H 	H 	0.40720 0.68770 0.92080 0.06100
C 	C 	0.40980 0.74230 0.96480 0.08400
C 	C 	0.46230 0.77800 0.98270 -0.11900
C 	C 	0.54750 0.78300 0.96870 0.00900
H 	H 	0.58270 0.80690 0.98060 0.02900
C 	C 	0.58010 0.75230 0.93670 -0.03000
H 	H 	0.63710 0.75560 0.92730 0.04100
C 	C 	0.43150 0.81160 0.01750 0.32900
N 	N 	0.32100 0.73640 0.97800 -0.17200
H 	H 	0.28910 0.71430 0.96610 0.10300
H 	H 	0.29890 0.75490 0.99770 0.07400
N 	N 	0.31580 0.75630 0.95870 -0.19700
H 	H 	0.28330 0.74060 0.94090 0.10800
H 	H 	0.29300 0.77380 0.97890 0.12700
C 	C 	0.44080 0.72520 0.92250 -0.06000
H 	H 	0.40430 0.71130 0.90190 0.05400
C 	C 	0.40340 0.75350 0.95510 0.06000
C 	C 	0.55090 0.77050 0.97770 -0.00200
H 	H 	0.58830 0.78640 0.99670 0.03700
C 	C 	0.58660 0.74090 0.94630 -0.02200
H 	H 	0.64620 0.73720 0.94340 0.04000
O 	O 	0.64080 0.18130 0.37660 -0.43800
O 	O 	0.50830 0.16020 0.36050 -0.41600
O 	O 	0.48510 0.33540 0.54010 -0.43700
O 	O 	0.35140 0.31770 0.52400 -0.47800
C 	C 	0.56110 0.18460 0.38340 0.28100
C 	C 	0.52750 0.21660 0.41880 -0.01700
C 	C 	0.44240 0.21160 0.43280 -0.04700
H 	H 	0.40720 0.18770 0.42080 0.06100
C 	C 	0.40980 0.24230 0.46480 0.08400
C 	C 	0.46230 0.27800 0.48270 -0.11900
C 	C 	0.54750 0.28300 0.46870 0.00900
H 	H 	0.58270 0.30690 0.48060 0.02900
C 	C 	0.58010 0.25230 0.43670 -0.03000
H 	H 	0.63710 0.25560 0.42730 0.04100
C 	C 	0.43150 0.31160 0.51750 0.32900
N 	N 	0.32100 0.23640 0.47800 -0.17200
H 	H 	0.28910 0.21430 0.46610 0.10300
H 	H 	0.29890 0.25490 0.49770 0.07400
N 	N 	0.31580 0.25630 0.45870 -0.19700
H 	H 	0.28330 0.24060 0.44090 0.10800
H 	H 	0.29300 0.27380 0.47890 0.12700
C 	C 	0.44080 0.22520 0.42250 -0.06000
H 	H 	0.40430 0.21130 0.40190 0.05400
C 	C 	0.40340 0.25350 0.45510 0.06000
C 	C 	0.55090 0.27050 0.47770 -0.00200
H 	H 	0.58830 0.28640 0.49670 0.03700
C 	C 	0.58660 0.24090 0.44630 -0.02200
H 	H 	0.64620 0.23720 0.44340 0.04000
In	In	0.87500 0.37500 0.07418 1.99900
In	In	0.87500 0.87500 0.57418 1.99900
In	In	0.37500 0.37500 0.57418 1.99900
In	In	0.37500 0.87500 0.07418 1.99900
In	In	0.12500 0.62500 0.32418 1.99900
In	In	0.12500 0.12500 0.82418 1.99900
In	In	0.62500 0.62500 0.82418 1.99900
In	In	0.62500 0.12500 0.32418 1.99900
O 	O 	0.89080 0.43130 0.62340 -0.43800
O 	O 	0.75830 0.41020 0.63950 -0.41600
O 	O 	0.73510 0.58540 0.45990 -0.43700
O 	O 	0.60140 0.56770 0.47600 -0.47800
C 	C 	0.81110 0.43460 0.61660 0.28100
C 	C 	0.77750 0.46660 0.58120 -0.01700
C 	C 	0.69240 0.46160 0.56720 -0.04700
H 	H 	0.65720 0.43770 0.57920 0.06100
C 	C 	0.65980 0.49230 0.53520 0.08400
C 	C 	0.71230 0.52800 0.51730 -0.11900
C 	C 	0.79750 0.53300 0.53130 0.00900
H 	H 	0.83270 0.55690 0.51940 0.02900
C 	C 	0.83010 0.50230 0.56330 -0.03000
H 	H 	0.88710 0.50560 0.57270 0.04100
C 	C 	0.68150 0.56160 0.48250 0.32900
N 	N 	0.57100 0.48640 0.52200 -0.17200
H 	H 	0.53910 0.46430 0.53390 0.10300
H 	H 	0.54890 0.50490 0.50230 0.07400
N 	N 	0.56580 0.50630 0.54130 -0.19700
H 	H 	0.53330 0.49060 0.55910 0.10800
H 	H 	0.54300 0.52380 0.52110 0.12700
C 	C 	0.69080 0.47520 0.57750 -0.06000
H 	H 	0.65430 0.46130 0.59810 0.05400
C 	C 	0.65340 0.50350 0.54490 0.06000
C 	C 	0.80090 0.52050 0.52230 -0.00200
H 	H 	0.83830 0.53640 0.50330 0.03700
C 	C 	0.83660 0.49090 0.55370 -0.02200
H 	H 	0.89620 0.48720 0.55660 0.04000
O 	O 	0.89080 0.93130 0.12340 -0.43800
O 	O 	0.75830 0.91020 0.13950 -0.41600
O 	O 	0.73510 0.08540 0.95990 -0.43700
O 	O 	0.60140 0.06770 0.97600 -0.47800
C 	C 	0.81110 0.93460 0.11660 0.28100
C 	C 	0.77750 0.96660 0.08120 -0.01700
C 	C 	0.69240 0.96160 0.06720 -0.04700
H 	H 	0.65720 0.93770 0.07920 0.06100
C 	C 	0.65980 0.99230 0.03520 0.08300
C 	C 	0.71230 0.02800 0.01730 -0.11900
C 	C 	0.79750 0.03300 0.03130 0.00900
H 	H 	0.83270 0.05690 0.01940 0.02900
C 	C 	0.83010 0.00230 0.06330 -0.02900
H 	H 	0.88710 0.00560 0.07270 0.04100
C 	C 	0.68150 0.06160 0.98250 0.32900
N 	N 	0.57100 0.98640 0.02200 -0.17100
H 	H 	0.53910 0.96430 0.03390 0.10300
H 	H 	0.54890 0.00490 0.00230 0.07300
N 	N 	0.56580 0.00630 0.04130 -0.19800
H 	H 	0.53330 0.99060 0.05910 0.10800
H 	H 	0.54300 0.02380 0.02110 0.12700
C 	C 	0.69080 0.97520 0.07750 -0.06000
H 	H 	0.65430 0.96130 0.09810 0.05400
C 	C 	0.65340 0.00350 0.04490 0.06000
C 	C 	0.80090 0.02050 0.02230 -0.00300
H 	H 	0.83830 0.03640 0.00330 0.03700
C 	C 	0.83660 0.99090 0.05370 -0.02300
H 	H 	0.89620 0.98720 0.05660 0.04100
O 	O 	0.39080 0.43130 0.12340 -0.43800
O 	O 	0.25830 0.41020 0.13950 -0.41600
O 	O 	0.23510 0.58540 0.95990 -0.43700
O 	O 	0.10140 0.56770 0.97600 -0.47800
C 	C 	0.31110 0.43460 0.11660 0.28100
C 	C 	0.27750 0.46660 0.08120 -0.01700
C 	C 	0.19240 0.46160 0.06720 -0.04700
H 	H 	0.15720 0.43770 0.07920 0.06100
C 	C 	0.15980 0.49230 0.03520 0.08400
C 	C 	0.21230 0.52800 0.01730 -0.11900
C 	C 	0.29750 0.53300 0.03130 0.00900
H 	H 	0.33270 0.55690 0.01940 0.02900
C 	C 	0.33010 0.50230 0.06330 -0.03000
H 	H 	0.38710 0.50560 0.07270 0.04100
C 	C 	0.18150 0.56160 0.98250 0.32900
N 	N 	0.07100 0.48640 0.02200 -0.17200
H 	H 	0.03910 0.46430 0.03390 0.10300
H 	H 	0.04890 0.50490 0.00230 0.07400
N 	N 	0.06580 0.50630 0.04130 -0.19700
H 	H 	0.03330 0.49060 0.05910 0.10800
H 	H 	0.04300 0.52380 0.02110 0.12700
C 	C 	0.19080 0.47520 0.07750 -0.06000
H 	H 	0.15430 0.46130 0.09810 0.05400
C 	C 	0.15340 0.50350 0.04490 0.06000
C 	C 	0.30090 0.52050 0.02230 -0.00200
H 	H 	0.33830 0.53640 0.00330 0.03700
C 	C 	0.33660 0.49090 0.05370 -0.02200
H 	H 	0.39620 0.48720 0.05660 0.04100
O 	O 	0.39080 0.93130 0.62340 -0.43800
O 	O 	0.25830 0.91020 0.63950 -0.41600
O 	O 	0.23510 0.08540 0.45990 -0.43700
O 	O 	0.10140 0.06770 0.47600 -0.47800
C 	C 	0.31110 0.93460 0.61660 0.28100
C 	C 	0.27750 0.96660 0.58120 -0.01700
C 	C 	0.19240 0.96160 0.56720 -0.04600
H 	H 	0.15720 0.93770 0.57920 0.06100
C 	C 	0.15980 0.99230 0.53520 0.08500
C 	C 	0.21230 0.02800 0.51730 -0.11900
C 	C 	0.29750 0.03300 0.53130 0.00900
H 	H 	0.33270 0.05690 0.51940 0.02900
C 	C 	0.33010 0.00230 0.56330 -0.03000
H 	H 	0.38710 0.00560 0.57270 0.04200
C 	C 	0.18150 0.06160 0.48250 0.32900
N 	N 	0.07100 0.98640 0.52200 -0.17300
H 	H 	0.03910 0.96430 0.53390 0.10300
H 	H 	0.04890 0.00490 0.50230 0.07500
N 	N 	0.06580 0.00630 0.54130 -0.19600
H 	H 	0.03330 0.99060 0.55910 0.10700
H 	H 	0.04300 0.02380 0.52110 0.12700
C 	C 	0.19080 0.97520 0.57750 -0.06000
H 	H 	0.15430 0.96130 0.59810 0.05400
C 	C 	0.15340 0.00350 0.54490 0.05900
C 	C 	0.30090 0.02050 0.52230 -0.00200
H 	H 	0.33830 0.03640 0.50330 0.03700
C 	C 	0.33660 0.99090 0.55370 -0.02200
H 	H 	0.39620 0.98720 0.55660 0.04000
O 	O 	0.85920 0.31870 0.62340 -0.43800
O 	O 	0.99170 0.33980 0.63950 -0.41600
O 	O 	0.01490 0.16460 0.45990 -0.43700
O 	O 	0.14860 0.18230 0.47600 -0.47800
C 	C 	0.93890 0.31540 0.61660 0.28100
C 	C 	0.97250 0.28340 0.58120 -0.01700
C 	C 	0.05760 0.28840 0.56720 -0.04600
H 	H 	0.09280 0.31230 0.57920 0.06100
C 	C 	0.09020 0.25770 0.53520 0.08400
C 	C 	0.03770 0.22200 0.51730 -0.11900
C 	C 	0.95250 0.21700 0.53130 0.00900
H 	H 	0.91730 0.19310 0.51940 0.02900
C 	C 	0.91990 0.24770 0.56330 -0.03000
H 	H 	0.86290 0.24440 0.57270 0.04100
C 	C 	0.06850 0.18840 0.48250 0.32900
N 	N 	0.17900 0.26360 0.52200 -0.17200
H 	H 	0.21090 0.28570 0.53390 0.10300
H 	H 	0.20110 0.24510 0.50230 0.07400
N 	N 	0.18420 0.24370 0.54130 -0.19700
H 	H 	0.21670 0.25940 0.55910 0.10800
H 	H 	0.20700 0.22620 0.52110 0.12700
C 	C 	0.05920 0.27480 0.57750 -0.06000
H 	H 	0.09570 0.28870 0.59810 0.05400
C 	C 	0.09660 0.24650 0.54490 0.05900
C 	C 	0.94910 0.22950 0.52230 -0.00300
H 	H 	0.91170 0.21360 0.50330 0.03700
C 	C 	0.91340 0.25910 0.55370 -0.02200
H 	H 	0.85380 0.26280 0.55660 0.04000
O 	O 	0.85920 0.81870 0.12340 -0.43800
O 	O 	0.99170 0.83980 0.13950 -0.41600
O 	O 	0.01490 0.66460 0.95990 -0.43700
O 	O 	0.14860 0.68230 0.97600 -0.47800
C 	C 	0.93890 0.81540 0.11660 0.28100
C 	C 	0.97250 0.78340 0.08120 -0.01700
C 	C 	0.05760 0.78840 0.06720 -0.04700
H 	H 	0.09280 0.81230 0.07920 0.06100
C 	C 	0.09020 0.75770 0.03520 0.08400
C 	C 	0.03770 0.72200 0.01730 -0.12000
C 	C 	0.95250 0.71700 0.03130 0.00900
H 	H 	0.91730 0.69310 0.01940 0.02900
C 	C 	0.91990 0.74770 0.06330 -0.03000
H 	H 	0.86290 0.74440 0.07270 0.04100
C 	C 	0.06850 0.68840 0.98250 0.33000
N 	N 	0.17900 0.76360 0.02200 -0.17200
H 	H 	0.21090 0.78570 0.03390 0.10300
H 	H 	0.20110 0.74510 0.00230 0.07400
N 	N 	0.18420 0.74370 0.04130 -0.19700
H 	H 	0.21670 0.75940 0.05910 0.10800
H 	H 	0.20700 0.72620 0.02110 0.12700
C 	C 	0.05920 0.77480 0.07750 -0.06000
H 	H 	0.09570 0.78870 0.09810 0.05400
C 	C 	0.09660 0.74650 0.04490 0.06000
C 	C 	0.94910 0.72950 0.02230 -0.00200
H 	H 	0.91170 0.71360 0.00330 0.03700
C 	C 	0.91340 0.75910 0.05370 -0.02200
H 	H 	0.85380 0.76280 0.05660 0.04100
O 	O 	0.35920 0.31870 0.12340 -0.43800
O 	O 	0.49170 0.33980 0.13950 -0.41600
O 	O 	0.51490 0.16460 0.95990 -0.43700
O 	O 	0.64860 0.18230 0.97600 -0.47800
C 	C 	0.43890 0.31540 0.11660 0.28100
C 	C 	0.47250 0.28340 0.08120 -0.01700
C 	C 	0.55760 0.28840 0.06720 -0.04700
H 	H 	0.59280 0.31230 0.07920 0.06100
C 	C 	0.59020 0.25770 0.03520 0.08400
C 	C 	0.53770 0.22200 0.01730 -0.11900
C 	C 	0.45250 0.21700 0.03130 0.00900
H 	H 	0.41730 0.19310 0.01940 0.02900
C 	C 	0.41990 0.24770 0.06330 -0.03000
H 	H 	0.36290 0.24440 0.07270 0.04100
C 	C 	0.56850 0.18840 0.98250 0.32900
N 	N 	0.67900 0.26360 0.02200 -0.17200
H 	H 	0.71090 0.28570 0.03390 0.10300
H 	H 	0.70110 0.24510 0.00230 0.07400
N 	N 	0.68420 0.24370 0.04130 -0.19700
H 	H 	0.71670 0.25940 0.05910 0.10800
H 	H 	0.70700 0.22620 0.02110 0.12700
C 	C 	0.55920 0.27480 0.07750 -0.06000
H 	H 	0.59570 0.28870 0.09810 0.05400
C 	C 	0.59660 0.24650 0.04490 0.06000
C 	C 	0.44910 0.22950 0.02230 -0.00200
H 	H 	0.41170 0.21360 0.00330 0.03700
C 	C 	0.41340 0.25910 0.05370 -0.02200
H 	H 	0.35380 0.26280 0.05660 0.04000
O 	O 	0.35920 0.81870 0.62340 -0.43800
O 	O 	0.49170 0.83980 0.63950 -0.41600
O 	O 	0.51490 0.66460 0.45990 -0.43700
O 	O 	0.64860 0.68230 0.47600 -0.47800
C 	C 	0.43890 0.81540 0.61660 0.28100
C 	C 	0.47250 0.78340 0.58120 -0.01700
C 	C 	0.55760 0.78840 0.56720 -0.04700
H 	H 	0.59280 0.81230 0.57920 0.06100
C 	C 	0.59020 0.75770 0.53520 0.08400
C 	C 	0.53770 0.72200 0.51730 -0.11900
C 	C 	0.45250 0.71700 0.53130 0.00900
H 	H 	0.41730 0.69310 0.51940 0.02900
C 	C 	0.41990 0.74770 0.56330 -0.03000
H 	H 	0.36290 0.74440 0.57270 0.04100
C 	C 	0.56850 0.68840 0.48250 0.32900
N 	N 	0.67900 0.76360 0.52200 -0.17200
H 	H 	0.71090 0.78570 0.53390 0.10300
H 	H 	0.70110 0.74510 0.50230 0.07400
N 	N 	0.68420 0.74370 0.54130 -0.19700
H 	H 	0.71670 0.75940 0.55910 0.10800
H 	H 	0.70700 0.72620 0.52110 0.12700
C 	C 	0.55920 0.77480 0.57750 -0.06000
H 	H 	0.59570 0.78870 0.59810 0.05400
C 	C 	0.59660 0.74650 0.54490 0.06000
C 	C 	0.44910 0.72950 0.52230 -0.00200
H 	H 	0.41170 0.71360 0.50330 0.03700
C 	C 	0.41340 0.75910 0.55370 -0.02200
H 	H 	0.35380 0.76280 0.55660 0.04000
O 	O 	0.14080 0.56870 0.87340 -0.43800
O 	O 	0.00830 0.58980 0.88950 -0.41600
O 	O 	0.98510 0.41460 0.70990 -0.43700
O 	O 	0.85140 0.43230 0.72600 -0.47800
C 	C 	0.06110 0.56540 0.86660 0.28100
C 	C 	0.02750 0.53340 0.83120 -0.01700
C 	C 	0.94240 0.53840 0.81720 -0.04700
H 	H 	0.90720 0.56230 0.82920 0.06100
C 	C 	0.90980 0.50770 0.78520 0.08400
C 	C 	0.96230 0.47200 0.76730 -0.11900
C 	C 	0.04750 0.46700 0.78130 0.00900
H 	H 	0.08270 0.44310 0.76940 0.02900
C 	C 	0.08010 0.49770 0.81330 -0.03000
H 	H 	0.13710 0.49440 0.82270 0.04100
C 	C 	0.93150 0.43840 0.73250 0.32900
N 	N 	0.82100 0.51360 0.77200 -0.17200
H 	H 	0.78910 0.53570 0.78390 0.10300
H 	H 	0.79890 0.49510 0.75230 0.07400
N 	N 	0.81580 0.49370 0.79130 -0.19700
H 	H 	0.78330 0.50940 0.80910 0.10800
H 	H 	0.79300 0.47620 0.77110 0.12700
C 	C 	0.94080 0.52480 0.82750 -0.06000
H 	H 	0.90430 0.53870 0.84810 0.05400
C 	C 	0.90340 0.49650 0.79490 0.06000
C 	C 	0.05090 0.47950 0.77230 -0.00200
H 	H 	0.08830 0.46360 0.75330 0.03700
C 	C 	0.08660 0.50910 0.80370 -0.02200
H 	H 	0.14620 0.51280 0.80660 0.04000
O 	O 	0.14080 0.06870 0.37340 -0.43800
O 	O 	0.00830 0.08980 0.38950 -0.41600
O 	O 	0.98510 0.91460 0.20990 -0.43700
O 	O 	0.85140 0.93230 0.22600 -0.47800
C 	C 	0.06110 0.06540 0.36660 0.28100
C 	C 	0.02750 0.03340 0.33120 -0.01700
C 	C 	0.94240 0.03840 0.31720 -0.04700
H 	H 	0.90720 0.06230 0.32920 0.06100
C 	C 	0.90980 0.00770 0.28520 0.08500
C 	C 	0.96230 0.97200 0.26730 -0.11900
C 	C 	0.04750 0.96700 0.28130 0.00800
H 	H 	0.08270 0.94310 0.26940 0.02900
C 	C 	0.08010 0.99770 0.31330 -0.02900
H 	H 	0.13710 0.99440 0.32270 0.04100
C 	C 	0.93150 0.93840 0.23250 0.32900
N 	N 	0.82100 0.01360 0.27200 -0.17300
H 	H 	0.78910 0.03570 0.28390 0.10300
H 	H 	0.79890 0.99510 0.25230 0.07400
N 	N 	0.81580 0.99370 0.29130 -0.19600
H 	H 	0.78330 0.00940 0.30910 0.10700
H 	H 	0.79300 0.97620 0.27110 0.12700
C 	C 	0.94080 0.02480 0.32750 -0.06100
H 	H 	0.90430 0.03870 0.34810 0.05400
C 	C 	0.90340 0.99650 0.29490 0.05800
C 	C 	0.05090 0.97950 0.27230 -0.00300
H 	H 	0.08830 0.96360 0.25330 0.03700
C 	C 	0.08660 0.00910 0.30370 -0.02300
H 	H 	0.14620 0.01280 0.30660 0.04100
O 	O 	0.64080 0.56870 0.37340 -0.43800
O 	O 	0.50830 0.58980 0.38950 -0.41600
O 	O 	0.48510 0.41460 0.20990 -0.43700
O 	O 	0.35140 0.43230 0.22600 -0.47800
C 	C 	0.56110 0.56540 0.36660 0.28100
C 	C 	0.52750 0.53340 0.33120 -0.01700
C 	C 	0.44240 0.53840 0.31720 -0.04700
H 	H 	0.40720 0.56230 0.32920 0.06100
C 	C 	0.40980 0.50770 0.28520 0.08400
C 	C 	0.46230 0.47200 0.26730 -0.11900
C 	C 	0.54750 0.46700 0.28130 0.00900
H 	H 	0.58270 0.44310 0.26940 0.02900
C 	C 	0.58010 0.49770 0.31330 -0.03000
H 	H 	0.63710 0.49440 0.32270 0.04100
C 	C 	0.43150 0.43840 0.23250 0.32900
N 	N 	0.32100 0.51360 0.27200 -0.17200
H 	H 	0.28910 0.53570 0.28390 0.10300
H 	H 	0.29890 0.49510 0.25230 0.07400
N 	N 	0.31580 0.49370 0.29130 -0.19700
H 	H 	0.28330 0.50940 0.30910 0.10800
H 	H 	0.29300 0.47620 0.27110 0.12700
C 	C 	0.44080 0.52480 0.32750 -0.06000
H 	H 	0.40430 0.53870 0.34810 0.05400
C 	C 	0.40340 0.49650 0.29490 0.06000
C 	C 	0.55090 0.47950 0.27230 -0.00200
H 	H 	0.58830 0.46360 0.25330 0.03700
C 	C 	0.58660 0.50910 0.30370 -0.02200
H 	H 	0.64620 0.51280 0.30660 0.04100
O 	O 	0.64080 0.06870 0.87340 -0.43800
O 	O 	0.50830 0.08980 0.88950 -0.41600
O 	O 	0.48510 0.91460 0.70990 -0.43700
O 	O 	0.35140 0.93230 0.72600 -0.47800
C 	C 	0.56110 0.06540 0.86660 0.28100
C 	C 	0.52750 0.03340 0.83120 -0.01700
C 	C 	0.44240 0.03840 0.81720 -0.04700
H 	H 	0.40720 0.06230 0.82920 0.06100
C 	C 	0.40980 0.00770 0.78520 0.08400
C 	C 	0.46230 0.97200 0.76730 -0.11900
C 	C 	0.54750 0.96700 0.78130 0.00900
H 	H 	0.58270 0.94310 0.76940 0.02900
C 	C 	0.58010 0.99770 0.81330 -0.03000
H 	H 	0.63710 0.99440 0.82270 0.04100
C 	C 	0.43150 0.93840 0.73250 0.32900
N 	N 	0.32100 0.01360 0.77200 -0.17100
H 	H 	0.28910 0.03570 0.78390 0.10300
H 	H 	0.29890 0.99510 0.75230 0.07300
N 	N 	0.31580 0.99370 0.79130 -0.19800
H 	H 	0.28330 0.00940 0.80910 0.10800
H 	H 	0.29300 0.97620 0.77110 0.12700
C 	C 	0.44080 0.02480 0.82750 -0.06000
H 	H 	0.40430 0.03870 0.84810 0.05400
C 	C 	0.40340 0.99650 0.79490 0.06000
C 	C 	0.55090 0.97950 0.77230 -0.00200
H 	H 	0.58830 0.96360 0.75330 0.03700
C 	C 	0.58660 0.00910 0.80370 -0.02200
H 	H 	0.64620 0.01280 0.80660 0.04000
O 	O 	0.10920 0.68130 0.87340 -0.43800
O 	O 	0.24170 0.66020 0.88950 -0.41600
O 	O 	0.26490 0.83540 0.70990 -0.43700
O 	O 	0.39860 0.81770 0.72600 -0.47800
C 	C 	0.18890 0.68460 0.86660 0.28100
C 	C 	0.22250 0.71660 0.83120 -0.01700
C 	C 	0.30760 0.71160 0.81720 -0.04700
H 	H 	0.34280 0.68770 0.82920 0.06100
C 	C 	0.34020 0.74230 0.78520 0.08400
C 	C 	0.28770 0.77800 0.76730 -0.11900
C 	C 	0.20250 0.78300 0.78130 0.00900
H 	H 	0.16730 0.80690 0.76940 0.02900
C 	C 	0.16990 0.75230 0.81330 -0.03000
H 	H 	0.11290 0.75560 0.82270 0.04100
C 	C 	0.31850 0.81160 0.73250 0.32900
N 	N 	0.42900 0.73640 0.77200 -0.17200
H 	H 	0.46090 0.71430 0.78390 0.10300
H 	H 	0.45110 0.75490 0.75230 0.07400
N 	N 	0.43420 0.75630 0.79130 -0.19700
H 	H 	0.46670 0.74060 0.80910 0.10800
H 	H 	0.45700 0.77380 0.77110 0.12700
C 	C 	0.30920 0.72520 0.82750 -0.06000
H 	H 	0.34570 0.71130 0.84810 0.05400
C 	C 	0.34660 0.75350 0.79490 0.06000
C 	C 	0.19910 0.77050 0.77230 -0.00200
H 	H 	0.16170 0.78640 0.75330 0.03700
C 	C 	0.16340 0.74090 0.80370 -0.02200
H 	H 	0.10380 0.73720 0.80660 0.04000
O 	O 	0.10920 0.18130 0.37340 -0.43800
O 	O 	0.24170 0.16020 0.38950 -0.41600
O 	O 	0.26490 0.33540 0.20990 -0.43700
O 	O 	0.39860 0.31770 0.22600 -0.47800
C 	C 	0.18890 0.18460 0.36660 0.28100
C 	C 	0.22250 0.21660 0.33120 -0.01700
C 	C 	0.30760 0.21160 0.31720 -0.04700
H 	H 	0.34280 0.18770 0.32920 0.06100
C 	C 	0.34020 0.24230 0.28520 0.08400
C 	C 	0.28770 0.27800 0.26730 -0.11900
C 	C 	0.20250 0.28300 0.28130 0.00900
H 	H 	0.16730 0.30690 0.26940 0.02900
C 	C 	0.16990 0.25230 0.31330 -0.03000
H 	H 	0.11290 0.25560 0.32270 0.04100
C 	C 	0.31850 0.31160 0.23250 0.32900
N 	N 	0.42900 0.23640 0.27200 -0.17200
H 	H 	0.46090 0.21430 0.28390 0.10300
H 	H 	0.45110 0.25490 0.25230 0.07400
N 	N 	0.43420 0.25630 0.29130 -0.19700
H 	H 	0.46670 0.24060 0.30910 0.10800
H 	H 	0.45700 0.27380 0.27110 0.12700
C 	C 	0.30920 0.22520 0.32750 -0.06000
H 	H 	0.34570 0.21130 0.34810 0.05400
C 	C 	0.34660 0.25350 0.29490 0.06000
C 	C 	0.19910 0.27050 0.27230 -0.00200
H 	H 	0.16170 0.28640 0.25330 0.03700
C 	C 	0.16340 0.24090 0.30370 -0.02200
H 	H 	0.10380 0.23720 0.30660 0.04000
O 	O 	0.60920 0.68130 0.37340 -0.43800
O 	O 	0.74170 0.66020 0.38950 -0.41600
O 	O 	0.76490 0.83540 0.20990 -0.43700
O 	O 	0.89860 0.81770 0.22600 -0.47800
C 	C 	0.68890 0.68460 0.36660 0.28100
C 	C 	0.72250 0.71660 0.33120 -0.01700
C 	C 	0.80760 0.71160 0.31720 -0.04700
H 	H 	0.84280 0.68770 0.32920 0.06100
C 	C 	0.84020 0.74230 0.28520 0.08400
C 	C 	0.78770 0.77800 0.26730 -0.11900
C 	C 	0.70250 0.78300 0.28130 0.00900
H 	H 	0.66730 0.80690 0.26940 0.02900
C 	C 	0.66990 0.75230 0.31330 -0.03000
H 	H 	0.61290 0.75560 0.32270 0.04100
C 	C 	0.81850 0.81160 0.23250 0.32900
N 	N 	0.92900 0.73640 0.27200 -0.17200
H 	H 	0.96090 0.71430 0.28390 0.10300
H 	H 	0.95110 0.75490 0.25230 0.07400
N 	N 	0.93420 0.75630 0.29130 -0.19700
H 	H 	0.96670 0.74060 0.30910 0.10800
H 	H 	0.95700 0.77380 0.27110 0.12700
C 	C 	0.80920 0.72520 0.32750 -0.06000
H 	H 	0.84570 0.71130 0.34810 0.05400
C 	C 	0.84660 0.75350 0.29490 0.06000
C 	C 	0.69910 0.77050 0.27230 -0.00200
H 	H 	0.66170 0.78640 0.25330 0.03700
C 	C 	0.66340 0.74090 0.30370 -0.02200
H 	H 	0.60380 0.73720 0.30660 0.04100
O 	O 	0.60920 0.18130 0.87340 -0.43800
O 	O 	0.74170 0.16020 0.88950 -0.41600
O 	O 	0.76490 0.33540 0.70990 -0.43700
O 	O 	0.89860 0.31770 0.72600 -0.47800
C 	C 	0.68890 0.18460 0.86660 0.28100
C 	C 	0.72250 0.21660 0.83120 -0.01700
C 	C 	0.80760 0.21160 0.81720 -0.04600
H 	H 	0.84280 0.18770 0.82920 0.06100
C 	C 	0.84020 0.24230 0.78520 0.08400
C 	C 	0.78770 0.27800 0.76730 -0.11900
C 	C 	0.70250 0.28300 0.78130 0.00900
H 	H 	0.66730 0.30690 0.76940 0.02900
C 	C 	0.66990 0.25230 0.81330 -0.03000
H 	H 	0.61290 0.25560 0.82270 0.04100
C 	C 	0.81850 0.31160 0.73250 0.32900
N 	N 	0.92900 0.23640 0.77200 -0.17200
H 	H 	0.96090 0.21430 0.78390 0.10300
H 	H 	0.95110 0.25490 0.75230 0.07400
N 	N 	0.93420 0.25630 0.79130 -0.19700
H 	H 	0.96670 0.24060 0.80910 0.10800
H 	H 	0.95700 0.27380 0.77110 0.12700
C 	C 	0.80920 0.22520 0.82750 -0.06000
H 	H 	0.84570 0.21130 0.84810 0.05400
C 	C 	0.84660 0.25350 0.79490 0.05900
C 	C 	0.69910 0.27050 0.77230 -0.00200
H 	H 	0.66170 0.28640 0.75330 0.03700
C 	C 	0.66340 0.24090 0.80370 -0.02200
H 	H 	0.60380 0.23720 0.80660 0.04100
In	In	0.87500 0.37500 0.67582 1.99900
In	In	0.87500 0.87500 0.17582 1.99900
In	In	0.37500 0.37500 0.17582 1.99900
In	In	0.37500 0.87500 0.67582 1.99900
In	In	0.12500 0.62500 0.92582 1.99900
In	In	0.12500 0.12500 0.42582 1.99900
In	In	0.62500 0.62500 0.42582 1.99900
In	In	0.62500 0.12500 0.92582 1.99900
