data_crystal

_cell_length_a 15.14200
_cell_length_b 22.23500
_cell_length_c 34.53000
_cell_angle_alpha 90.00000
_cell_angle_beta  90.00000
_cell_angle_gamma 90.00000

_symmetry_space_group_name_	'P 1'
_symmetry_space_group_name_H-M	'P 1'

loop_
_symmetry_equiv_pos_as_xyz
  x,y,z

loop_
_atom_site_label
_atom_site_type_symbol
_atom_site_fract_x
_atom_site_fract_y
_atom_site_fract_z
_atom_site_charge
O 	O 	0.74250 0.16520 0.79573 -0.43300
O 	O 	0.60940 0.19550 0.78350 -0.48400
O 	O 	0.89670 0.30450 0.62670 -0.42100
O 	O 	0.76290 0.33260 0.61270 -0.43900
C 	C 	0.81590 0.30500 0.63430 0.29000
C 	C 	0.78320 0.26780 0.66870 0.00600
C 	C 	0.83910 0.24160 0.69350 -0.06000
C 	C 	0.69590 0.27420 0.67830 -0.00900
H 	H 	0.89920 0.24030 0.68800 0.03400
C 	C 	0.80760 0.21650 0.72730 0.02900
C 	C 	0.66190 0.24680 0.71140 0.20100
H 	H 	0.65900 0.29710 0.66250 0.03900
C 	C 	0.71780 0.21540 0.73600 -0.00700
H 	H 	0.84750 0.19990 0.74480 0.01600
N 	N 	0.57250 0.25530 0.71640 -0.23500
C 	C 	0.68970 0.19440 0.77420 0.33000
H 	H 	0.54280 0.27550 0.69960 0.12400
H 	H 	0.54630 0.24050 0.73630 0.12300
C 	C 	0.77500 0.48090 0.49080 -0.11200
C 	C 	0.71770 0.53460 0.42280 -0.01600
H 	H 	0.60530 0.48160 0.43410 0.03900
C 	C 	0.83080 0.51930 0.46940 -0.04300
C 	C 	0.80020 0.54600 0.43630 -0.09100
H 	H 	0.83660 0.57230 0.42270 0.07000
H 	H 	0.65730 0.43970 0.49110 0.02800
N 	N 	0.91010 0.53950 0.48150 -0.17900
H 	H 	0.93710 0.56700 0.46850 0.11100
H 	H 	0.93380 0.52500 0.50210 0.10800
O 	O 	0.74250 0.66520 0.29573 -0.43400
O 	O 	0.60940 0.69550 0.28350 -0.48500
O 	O 	0.89670 0.80450 0.12670 -0.42200
O 	O 	0.76290 0.83260 0.11270 -0.44000
C 	C 	0.81590 0.80500 0.13430 0.28900
C 	C 	0.78320 0.76780 0.16870 0.00500
C 	C 	0.83910 0.74160 0.19350 -0.06100
C 	C 	0.69590 0.77420 0.17830 -0.01000
H 	H 	0.89920 0.74030 0.18800 0.03300
C 	C 	0.80760 0.71650 0.22730 0.02800
C 	C 	0.66190 0.74680 0.21140 0.20100
H 	H 	0.65900 0.79710 0.16250 0.03800
C 	C 	0.71780 0.71540 0.23600 -0.00800
H 	H 	0.84750 0.69990 0.24480 0.01500
N 	N 	0.57250 0.75530 0.21640 -0.23600
C 	C 	0.68970 0.69440 0.27420 0.32900
H 	H 	0.54280 0.77550 0.19960 0.12300
H 	H 	0.54630 0.74050 0.23630 0.12200
C 	C 	0.77500 0.98090 0.99080 -0.11500
C 	C 	0.71770 0.03460 0.92280 -0.01800
H 	H 	0.60530 0.98160 0.93410 0.03900
C 	C 	0.83080 0.01930 0.96940 -0.05100
C 	C 	0.80020 0.04600 0.93630 -0.09400
H 	H 	0.83660 0.07230 0.92270 0.07200
H 	H 	0.65730 0.93970 0.99110 0.02800
N 	N 	0.91010 0.03950 0.98150 -0.17700
H 	H 	0.93710 0.06700 0.96850 0.11100
H 	H 	0.93380 0.02500 0.00210 0.10700
O 	O 	0.24250 0.16520 0.29573 -0.43400
O 	O 	0.10940 0.19550 0.28350 -0.48500
O 	O 	0.39670 0.30450 0.12670 -0.42200
O 	O 	0.26290 0.33260 0.11270 -0.44000
C 	C 	0.31590 0.30500 0.13430 0.28900
C 	C 	0.28320 0.26780 0.16870 0.00600
C 	C 	0.33910 0.24160 0.19350 -0.06100
C 	C 	0.19590 0.27420 0.17830 -0.00900
H 	H 	0.39920 0.24030 0.18800 0.03300
C 	C 	0.30760 0.21650 0.22730 0.02800
C 	C 	0.16190 0.24680 0.21140 0.20100
H 	H 	0.15900 0.29710 0.16250 0.03700
C 	C 	0.21780 0.21540 0.23600 -0.00800
H 	H 	0.34750 0.19990 0.24480 0.01500
N 	N 	0.07250 0.25530 0.21640 -0.23600
C 	C 	0.18970 0.19440 0.27420 0.32900
H 	H 	0.04280 0.27550 0.19960 0.12300
H 	H 	0.04630 0.24050 0.23630 0.12200
C 	C 	0.27500 0.48090 0.99080 -0.11300
C 	C 	0.21770 0.53460 0.92280 -0.01700
H 	H 	0.10530 0.48160 0.93410 0.03900
C 	C 	0.33080 0.51930 0.96940 -0.04200
C 	C 	0.30020 0.54600 0.93630 -0.09100
H 	H 	0.33660 0.57230 0.92270 0.07000
H 	H 	0.15730 0.43970 0.99110 0.02800
N 	N 	0.41010 0.53950 0.98150 -0.17900
H 	H 	0.43710 0.56700 0.96850 0.11200
H 	H 	0.43380 0.52500 0.00210 0.10800
O 	O 	0.24250 0.66520 0.79573 -0.43400
O 	O 	0.10940 0.69550 0.78350 -0.48500
O 	O 	0.39670 0.80450 0.62670 -0.42200
O 	O 	0.26290 0.83260 0.61270 -0.44000
C 	C 	0.31590 0.80500 0.63430 0.28900
C 	C 	0.28320 0.76780 0.66870 0.00500
C 	C 	0.33910 0.74160 0.69350 -0.06100
C 	C 	0.19590 0.77420 0.67830 -0.01000
H 	H 	0.39920 0.74030 0.68800 0.03300
C 	C 	0.30760 0.71650 0.72730 0.02800
C 	C 	0.16190 0.74680 0.71140 0.20000
H 	H 	0.15900 0.79710 0.66250 0.03800
C 	C 	0.21780 0.71540 0.73600 -0.00800
H 	H 	0.34750 0.69990 0.74480 0.01500
N 	N 	0.07250 0.75530 0.71640 -0.23600
C 	C 	0.18970 0.69440 0.77420 0.32900
H 	H 	0.04280 0.77550 0.69960 0.12300
H 	H 	0.04630 0.74050 0.73630 0.12200
C 	C 	0.27500 0.98090 0.49080 -0.11200
C 	C 	0.21770 0.03460 0.42280 -0.01700
H 	H 	0.10530 0.98160 0.43410 0.03900
C 	C 	0.33080 0.01930 0.46940 -0.04200
C 	C 	0.30020 0.04600 0.43630 -0.09100
H 	H 	0.33660 0.07230 0.42270 0.07000
H 	H 	0.15730 0.93970 0.49110 0.02800
N 	N 	0.41010 0.03950 0.48150 -0.17900
H 	H 	0.43710 0.06700 0.46850 0.11200
H 	H 	0.43380 0.02500 0.50210 0.10800
O 	O 	0.00750 0.58480 0.79573 -0.43400
O 	O 	0.14060 0.55450 0.78350 -0.48500
O 	O 	0.85330 0.44550 0.62670 -0.42200
O 	O 	0.98710 0.41740 0.61270 -0.44100
C 	C 	0.93410 0.44500 0.63430 0.28900
C 	C 	0.96680 0.48220 0.66870 0.00500
C 	C 	0.91090 0.50840 0.69350 -0.06100
C 	C 	0.05410 0.47580 0.67830 -0.01000
H 	H 	0.85080 0.50970 0.68800 0.03300
C 	C 	0.94240 0.53350 0.72730 0.02800
C 	C 	0.08810 0.50320 0.71140 0.20000
H 	H 	0.09100 0.45290 0.66250 0.03800
C 	C 	0.03220 0.53460 0.73600 -0.00800
H 	H 	0.90250 0.55010 0.74480 0.01500
N 	N 	0.17750 0.49470 0.71640 -0.23600
C 	C 	0.06030 0.55560 0.77420 0.32900
H 	H 	0.20720 0.47450 0.69960 0.12300
H 	H 	0.20370 0.50950 0.73630 0.12200
C 	C 	0.97500 0.26910 0.49080 -0.11300
C 	C 	0.03230 0.21540 0.42280 -0.01700
H 	H 	0.14470 0.26840 0.43410 0.03900
C 	C 	0.91920 0.23070 0.46940 -0.04200
C 	C 	0.94980 0.20400 0.43630 -0.09100
H 	H 	0.91340 0.17770 0.42270 0.07000
H 	H 	0.09270 0.31030 0.49110 0.02800
N 	N 	0.83990 0.21050 0.48150 -0.17900
H 	H 	0.81290 0.18300 0.46850 0.11200
H 	H 	0.81620 0.22500 0.50210 0.10800
O 	O 	0.00750 0.08480 0.29573 -0.43400
O 	O 	0.14060 0.05450 0.28350 -0.48500
O 	O 	0.85330 0.94550 0.12670 -0.42200
O 	O 	0.98710 0.91740 0.11270 -0.44100
C 	C 	0.93410 0.94500 0.13430 0.28900
C 	C 	0.96680 0.98220 0.16870 0.00600
C 	C 	0.91090 0.00840 0.19350 -0.06100
C 	C 	0.05410 0.97580 0.17830 -0.00700
H 	H 	0.85080 0.00970 0.18800 0.03300
C 	C 	0.94240 0.03350 0.22730 0.02800
C 	C 	0.08810 0.00320 0.21140 0.20600
H 	H 	0.09100 0.95290 0.16250 0.03600
C 	C 	0.03220 0.03460 0.23600 -0.00700
H 	H 	0.90250 0.05010 0.24480 0.01500
N 	N 	0.17750 0.99470 0.21640 -0.23700
C 	C 	0.06030 0.05560 0.27420 0.32900
H 	H 	0.20720 0.97450 0.19960 0.12400
H 	H 	0.20370 0.00950 0.23630 0.12200
C 	C 	0.97500 0.76910 0.99080 -0.11300
C 	C 	0.03230 0.71540 0.92280 -0.01700
H 	H 	0.14470 0.76840 0.93410 0.03900
C 	C 	0.91920 0.73070 0.96940 -0.04300
C 	C 	0.94980 0.70400 0.93630 -0.09100
H 	H 	0.91340 0.67770 0.92270 0.07000
H 	H 	0.09270 0.81030 0.99110 0.02800
N 	N 	0.83990 0.71050 0.98150 -0.17900
H 	H 	0.81290 0.68300 0.96850 0.11200
H 	H 	0.81620 0.72500 0.00210 0.10800
O 	O 	0.50750 0.58480 0.29573 -0.43400
O 	O 	0.64060 0.55450 0.28350 -0.48500
O 	O 	0.35330 0.44550 0.12670 -0.42200
O 	O 	0.48710 0.41740 0.11270 -0.44000
C 	C 	0.43410 0.44500 0.13430 0.28900
C 	C 	0.46680 0.48220 0.16870 0.00500
C 	C 	0.41090 0.50840 0.19350 -0.06100
C 	C 	0.55410 0.47580 0.17830 -0.01000
H 	H 	0.35080 0.50970 0.18800 0.03300
C 	C 	0.44240 0.53350 0.22730 0.02800
C 	C 	0.58810 0.50320 0.21140 0.20100
H 	H 	0.59100 0.45290 0.16250 0.03800
C 	C 	0.53220 0.53460 0.23600 -0.00800
H 	H 	0.40250 0.55010 0.24480 0.01500
N 	N 	0.67750 0.49470 0.21640 -0.23600
C 	C 	0.56030 0.55560 0.27420 0.32900
H 	H 	0.70720 0.47450 0.19960 0.12300
H 	H 	0.70370 0.50950 0.23630 0.12200
C 	C 	0.47500 0.26910 0.99080 -0.11300
C 	C 	0.53230 0.21540 0.92280 -0.01700
H 	H 	0.64470 0.26840 0.93410 0.03900
C 	C 	0.41920 0.23070 0.96940 -0.04300
C 	C 	0.44980 0.20400 0.93630 -0.09100
H 	H 	0.41340 0.17770 0.92270 0.07000
H 	H 	0.59270 0.31030 0.99110 0.02800
N 	N 	0.33990 0.21050 0.98150 -0.17900
H 	H 	0.31290 0.18300 0.96850 0.11100
H 	H 	0.31620 0.22500 0.00210 0.10800
O 	O 	0.50750 0.08480 0.79573 -0.43400
O 	O 	0.64060 0.05450 0.78350 -0.48500
O 	O 	0.35330 0.94550 0.62670 -0.42200
O 	O 	0.48710 0.91740 0.61270 -0.44000
C 	C 	0.43410 0.94500 0.63430 0.28900
C 	C 	0.46680 0.98220 0.66870 0.00500
C 	C 	0.41090 0.00840 0.69350 -0.06000
C 	C 	0.55410 0.97580 0.67830 -0.01100
H 	H 	0.35080 0.00970 0.68800 0.03300
C 	C 	0.44240 0.03350 0.72730 0.02800
C 	C 	0.58810 0.00320 0.71140 0.19700
H 	H 	0.59100 0.95290 0.66250 0.03800
C 	C 	0.53220 0.03460 0.73600 -0.00900
H 	H 	0.40250 0.05010 0.74480 0.01600
N 	N 	0.67750 0.99470 0.71640 -0.23500
C 	C 	0.56030 0.05560 0.77420 0.32900
H 	H 	0.70720 0.97450 0.69960 0.12300
H 	H 	0.70370 0.00950 0.73630 0.12200
C 	C 	0.47500 0.76910 0.49080 -0.11300
C 	C 	0.53230 0.71540 0.42280 -0.01700
H 	H 	0.64470 0.76840 0.43410 0.03900
C 	C 	0.41920 0.73070 0.46940 -0.04200
C 	C 	0.44980 0.70400 0.43630 -0.09100
H 	H 	0.41340 0.67770 0.42270 0.07000
H 	H 	0.59270 0.81030 0.49110 0.02800
N 	N 	0.33990 0.71050 0.48150 -0.17900
H 	H 	0.31290 0.68300 0.46850 0.11200
H 	H 	0.31620 0.72500 0.50210 0.10800
O 	O 	0.99250 0.83480 0.04573 -0.43400
O 	O 	0.85940 0.80450 0.03350 -0.48500
O 	O 	0.14670 0.69550 0.87670 -0.42200
O 	O 	0.01290 0.66740 0.86270 -0.44100
C 	C 	0.06590 0.69500 0.88430 0.28900
C 	C 	0.03320 0.73220 0.91870 0.00600
C 	C 	0.08910 0.75840 0.94350 -0.06100
C 	C 	0.94590 0.72580 0.92830 -0.00900
H 	H 	0.14920 0.75970 0.93800 0.03300
C 	C 	0.05760 0.78350 0.97730 0.02800
C 	C 	0.91190 0.75320 0.96140 0.20100
H 	H 	0.90900 0.70290 0.91250 0.03700
C 	C 	0.96780 0.78460 0.98600 -0.00800
H 	H 	0.09750 0.80010 0.99480 0.01500
N 	N 	0.82250 0.74470 0.96640 -0.23600
C 	C 	0.93970 0.80560 0.02420 0.33000
H 	H 	0.79280 0.72450 0.94960 0.12300
H 	H 	0.79630 0.75950 0.98630 0.12200
C 	C 	0.02500 0.51910 0.74080 -0.11300
C 	C 	0.96770 0.46540 0.67280 -0.01700
H 	H 	0.85530 0.51840 0.68410 0.03900
C 	C 	0.08080 0.48070 0.71940 -0.04200
C 	C 	0.05020 0.45400 0.68630 -0.09100
H 	H 	0.08660 0.42770 0.67270 0.07000
H 	H 	0.90730 0.56030 0.74110 0.02800
N 	N 	0.16010 0.46050 0.73150 -0.17900
H 	H 	0.18710 0.43300 0.71850 0.11200
H 	H 	0.18380 0.47500 0.75210 0.10800
O 	O 	0.99250 0.33480 0.54573 -0.43400
O 	O 	0.85940 0.30450 0.53350 -0.48500
O 	O 	0.14670 0.19550 0.37670 -0.42200
O 	O 	0.01290 0.16740 0.36270 -0.44100
C 	C 	0.06590 0.19500 0.38430 0.28900
C 	C 	0.03320 0.23220 0.41870 0.00500
C 	C 	0.08910 0.25840 0.44350 -0.06100
C 	C 	0.94590 0.22580 0.42830 -0.01000
H 	H 	0.14920 0.25970 0.43800 0.03300
C 	C 	0.05760 0.28350 0.47730 0.02800
C 	C 	0.91190 0.25320 0.46140 0.20000
H 	H 	0.90900 0.20290 0.41250 0.03800
C 	C 	0.96780 0.28460 0.48600 -0.00800
H 	H 	0.09750 0.30010 0.49480 0.01500
N 	N 	0.82250 0.24470 0.46640 -0.23600
C 	C 	0.93970 0.30560 0.52420 0.32900
H 	H 	0.79280 0.22450 0.44960 0.12300
H 	H 	0.79630 0.25950 0.48630 0.12200
C 	C 	0.02500 0.01910 0.24080 -0.11400
C 	C 	0.96770 0.96540 0.17280 -0.01700
H 	H 	0.85530 0.01840 0.18410 0.03900
C 	C 	0.08080 0.98070 0.21940 -0.04800
C 	C 	0.05020 0.95400 0.18630 -0.09300
H 	H 	0.08660 0.92770 0.17270 0.07100
H 	H 	0.90730 0.06030 0.24110 0.02800
N 	N 	0.16010 0.96050 0.23150 -0.17800
H 	H 	0.18710 0.93300 0.21850 0.11100
H 	H 	0.18380 0.97500 0.25210 0.10800
O 	O 	0.49250 0.83480 0.54573 -0.43400
O 	O 	0.35940 0.80450 0.53350 -0.48500
O 	O 	0.64670 0.69550 0.37670 -0.42200
O 	O 	0.51290 0.66740 0.36270 -0.44000
C 	C 	0.56590 0.69500 0.38430 0.28900
C 	C 	0.53320 0.73220 0.41870 0.00500
C 	C 	0.58910 0.75840 0.44350 -0.06100
C 	C 	0.44590 0.72580 0.42830 -0.01000
H 	H 	0.64920 0.75970 0.43800 0.03300
C 	C 	0.55760 0.78350 0.47730 0.02800
C 	C 	0.41190 0.75320 0.46140 0.20000
H 	H 	0.40900 0.70290 0.41250 0.03800
C 	C 	0.46780 0.78460 0.48600 -0.00800
H 	H 	0.59750 0.80010 0.49480 0.01500
N 	N 	0.32250 0.74470 0.46640 -0.23600
C 	C 	0.43970 0.80560 0.52420 0.32900
H 	H 	0.29280 0.72450 0.44960 0.12300
H 	H 	0.29630 0.75950 0.48630 0.12200
C 	C 	0.52500 0.51910 0.24080 -0.11300
C 	C 	0.46770 0.46540 0.17280 -0.01700
H 	H 	0.35530 0.51840 0.18410 0.03900
C 	C 	0.58080 0.48070 0.21940 -0.04300
C 	C 	0.55020 0.45400 0.18630 -0.09100
H 	H 	0.58660 0.42770 0.17270 0.07000
H 	H 	0.40730 0.56030 0.24110 0.02800
N 	N 	0.66010 0.46050 0.23150 -0.17900
H 	H 	0.68710 0.43300 0.21850 0.11200
H 	H 	0.68380 0.47500 0.25210 0.10800
O 	O 	0.49250 0.33480 0.04573 -0.43400
O 	O 	0.35940 0.30450 0.03350 -0.48500
O 	O 	0.64670 0.19550 0.87670 -0.42200
O 	O 	0.51290 0.16740 0.86270 -0.44000
C 	C 	0.56590 0.19500 0.88430 0.28900
C 	C 	0.53320 0.23220 0.91870 0.00600
C 	C 	0.58910 0.25840 0.94350 -0.06100
C 	C 	0.44590 0.22580 0.92830 -0.00900
H 	H 	0.64920 0.25970 0.93800 0.03300
C 	C 	0.55760 0.28350 0.97730 0.02800
C 	C 	0.41190 0.25320 0.96140 0.20100
H 	H 	0.40900 0.20290 0.91250 0.03700
C 	C 	0.46780 0.28460 0.98600 -0.00800
H 	H 	0.59750 0.30010 0.99480 0.01500
N 	N 	0.32250 0.24470 0.96640 -0.23600
C 	C 	0.43970 0.30560 0.02420 0.32900
H 	H 	0.29280 0.22450 0.94960 0.12300
H 	H 	0.29630 0.25950 0.98630 0.12200
C 	C 	0.52500 0.01910 0.74080 -0.11200
C 	C 	0.46770 0.96540 0.67280 -0.01600
H 	H 	0.35530 0.01840 0.68410 0.03900
C 	C 	0.58080 0.98070 0.71940 -0.03900
C 	C 	0.55020 0.95400 0.68630 -0.09000
H 	H 	0.58660 0.92770 0.67270 0.06900
H 	H 	0.40730 0.06030 0.74110 0.02800
N 	N 	0.66010 0.96050 0.73150 -0.18000
H 	H 	0.68710 0.93300 0.71850 0.11200
H 	H 	0.68380 0.97500 0.75210 0.10800
O 	O 	0.25750 0.41520 0.04573 -0.43400
O 	O 	0.39060 0.44550 0.03350 -0.48500
O 	O 	0.10330 0.55450 0.87670 -0.42200
O 	O 	0.23710 0.58260 0.86270 -0.44000
C 	C 	0.18410 0.55500 0.88430 0.28900
C 	C 	0.21680 0.51780 0.91870 0.00500
C 	C 	0.16090 0.49160 0.94350 -0.06100
C 	C 	0.30410 0.52420 0.92830 -0.01000
H 	H 	0.10080 0.49030 0.93800 0.03300
C 	C 	0.19240 0.46650 0.97730 0.02800
C 	C 	0.33810 0.49680 0.96140 0.20000
H 	H 	0.34100 0.54710 0.91250 0.03800
C 	C 	0.28220 0.46540 0.98600 -0.00800
H 	H 	0.15250 0.44990 0.99480 0.01500
N 	N 	0.42750 0.50530 0.96640 -0.23600
C 	C 	0.31030 0.44440 0.02420 0.32900
H 	H 	0.45720 0.52550 0.94960 0.12300
H 	H 	0.45370 0.49050 0.98630 0.12200
C 	C 	0.22500 0.73090 0.74080 -0.11300
C 	C 	0.28230 0.78460 0.67280 -0.01700
H 	H 	0.39470 0.73160 0.68410 0.03900
C 	C 	0.16920 0.76930 0.71940 -0.04200
C 	C 	0.19980 0.79600 0.68630 -0.09100
H 	H 	0.16340 0.82230 0.67270 0.07000
H 	H 	0.34270 0.68970 0.74110 0.02800
N 	N 	0.08990 0.78950 0.73150 -0.17900
H 	H 	0.06290 0.81700 0.71850 0.11200
H 	H 	0.06620 0.77500 0.75210 0.10800
O 	O 	0.25750 0.91520 0.54573 -0.43400
O 	O 	0.39060 0.94550 0.53350 -0.48500
O 	O 	0.10330 0.05450 0.37670 -0.42200
O 	O 	0.23710 0.08260 0.36270 -0.44000
C 	C 	0.18410 0.05500 0.38430 0.28900
C 	C 	0.21680 0.01780 0.41870 0.00500
C 	C 	0.16090 0.99160 0.44350 -0.06100
C 	C 	0.30410 0.02420 0.42830 -0.01000
H 	H 	0.10080 0.99030 0.43800 0.03300
C 	C 	0.19240 0.96650 0.47730 0.02800
C 	C 	0.33810 0.99680 0.46140 0.19900
H 	H 	0.34100 0.04710 0.41250 0.03800
C 	C 	0.28220 0.96540 0.48600 -0.00900
H 	H 	0.15250 0.94990 0.49480 0.01500
N 	N 	0.42750 0.00530 0.46640 -0.23600
C 	C 	0.31030 0.94440 0.52420 0.32900
H 	H 	0.45720 0.02550 0.44960 0.12300
H 	H 	0.45370 0.99050 0.48630 0.12200
C 	C 	0.22500 0.23090 0.24080 -0.11300
C 	C 	0.28230 0.28460 0.17280 -0.01700
H 	H 	0.39470 0.23160 0.18410 0.03900
C 	C 	0.16920 0.26930 0.21940 -0.04300
C 	C 	0.19980 0.29600 0.18630 -0.09100
H 	H 	0.16340 0.32230 0.17270 0.07000
H 	H 	0.34270 0.18970 0.24110 0.02800
N 	N 	0.08990 0.28950 0.23150 -0.17900
H 	H 	0.06290 0.31700 0.21850 0.11100
H 	H 	0.06620 0.27500 0.25210 0.10800
O 	O 	0.75750 0.41520 0.54573 -0.43400
O 	O 	0.89060 0.44550 0.53350 -0.48500
O 	O 	0.60330 0.55450 0.37670 -0.42200
O 	O 	0.73710 0.58260 0.36270 -0.44000
C 	C 	0.68410 0.55500 0.38430 0.28900
C 	C 	0.71680 0.51780 0.41870 0.00500
C 	C 	0.66090 0.49160 0.44350 -0.06100
C 	C 	0.80410 0.52420 0.42830 -0.01000
H 	H 	0.60080 0.49030 0.43800 0.03300
C 	C 	0.69240 0.46650 0.47730 0.02800
C 	C 	0.83810 0.49680 0.46140 0.20100
H 	H 	0.84100 0.54710 0.41250 0.03800
C 	C 	0.78220 0.46540 0.48600 -0.00800
H 	H 	0.65250 0.44990 0.49480 0.01500
N 	N 	0.92750 0.50530 0.46640 -0.23600
C 	C 	0.81030 0.44440 0.52420 0.32900
H 	H 	0.95720 0.52550 0.44960 0.12300
H 	H 	0.95370 0.49050 0.48630 0.12200
C 	C 	0.72500 0.73090 0.24080 -0.11300
C 	C 	0.78230 0.78460 0.17280 -0.01700
H 	H 	0.89470 0.73160 0.18410 0.03900
C 	C 	0.66920 0.76930 0.21940 -0.04300
C 	C 	0.69980 0.79600 0.18630 -0.09100
H 	H 	0.66340 0.82230 0.17270 0.07000
H 	H 	0.84270 0.68970 0.24110 0.02800
N 	N 	0.58990 0.78950 0.23150 -0.17900
H 	H 	0.56290 0.81700 0.21850 0.11200
H 	H 	0.56620 0.77500 0.25210 0.10800
O 	O 	0.75750 0.91520 0.04573 -0.43400
O 	O 	0.89060 0.94550 0.03350 -0.48500
O 	O 	0.60330 0.05450 0.87670 -0.42200
O 	O 	0.73710 0.08260 0.86270 -0.44000
C 	C 	0.68410 0.05500 0.88430 0.28900
C 	C 	0.71680 0.01780 0.91870 0.00600
C 	C 	0.66090 0.99160 0.94350 -0.06200
C 	C 	0.80410 0.02420 0.92830 -0.00600
H 	H 	0.60080 0.99030 0.93800 0.03300
C 	C 	0.69240 0.96650 0.97730 0.02800
C 	C 	0.83810 0.99680 0.96140 0.20800
H 	H 	0.84100 0.04710 0.91250 0.03600
C 	C 	0.78220 0.96540 0.98600 -0.00700
H 	H 	0.65250 0.94990 0.99480 0.01500
N 	N 	0.92750 0.00530 0.96640 -0.23700
C 	C 	0.81030 0.94440 0.02420 0.33000
H 	H 	0.95720 0.02550 0.94960 0.12400
H 	H 	0.95370 0.99050 0.98630 0.12200
C 	C 	0.72500 0.23090 0.74080 -0.11300
C 	C 	0.78230 0.28460 0.67280 -0.01700
H 	H 	0.89470 0.23160 0.68410 0.03900
C 	C 	0.66920 0.26930 0.71940 -0.04200
C 	C 	0.69980 0.29600 0.68630 -0.09100
H 	H 	0.66340 0.32230 0.67270 0.07000
H 	H 	0.84270 0.18970 0.74110 0.02800
N 	N 	0.58990 0.28950 0.73150 -0.17900
H 	H 	0.56290 0.31700 0.71850 0.11200
H 	H 	0.56620 0.27500 0.75210 0.10800
In	In	0.87500 0.37500 0.57906 1.99700
In	In	0.87500 0.87500 0.07906 1.99700
In	In	0.37500 0.37500 0.07906 1.99700
In	In	0.37500 0.87500 0.57906 1.99700
In	In	0.12500 0.62500 0.82906 1.99700
In	In	0.12500 0.12500 0.32906 1.99700
In	In	0.62500 0.62500 0.32906 1.99700
In	In	0.62500 0.12500 0.82906 1.99700
O 	O 	0.00750 0.16520 0.95427 -0.43400
O 	O 	0.14060 0.19550 0.96650 -0.48500
O 	O 	0.85330 0.30450 0.12330 -0.42200
O 	O 	0.98710 0.33260 0.13730 -0.44100
C 	C 	0.93410 0.30500 0.11570 0.28900
C 	C 	0.96680 0.26780 0.08130 0.00600
C 	C 	0.91090 0.24160 0.05650 -0.06100
C 	C 	0.05410 0.27420 0.07170 -0.00900
H 	H 	0.85080 0.24030 0.06200 0.03300
C 	C 	0.94240 0.21650 0.02270 0.02800
C 	C 	0.08810 0.24680 0.03860 0.20100
H 	H 	0.09100 0.29710 0.08750 0.03700
C 	C 	0.03220 0.21540 0.01400 -0.00800
H 	H 	0.90250 0.19990 0.00520 0.01500
N 	N 	0.17750 0.25530 0.03360 -0.23600
C 	C 	0.06030 0.19440 0.97580 0.33000
H 	H 	0.20720 0.27550 0.05040 0.12300
H 	H 	0.20370 0.24050 0.01370 0.12200
C 	C 	0.97500 0.48090 0.25920 -0.11300
C 	C 	0.03230 0.53460 0.32720 -0.01700
H 	H 	0.14470 0.48160 0.31590 0.03900
C 	C 	0.91920 0.51930 0.28060 -0.04200
C 	C 	0.94980 0.54600 0.31370 -0.09100
H 	H 	0.91340 0.57230 0.32730 0.07000
H 	H 	0.09270 0.43970 0.25890 0.02800
N 	N 	0.83990 0.53950 0.26850 -0.17900
H 	H 	0.81290 0.56700 0.28150 0.11200
H 	H 	0.81620 0.52500 0.24790 0.10800
O 	O 	0.00750 0.66520 0.45427 -0.43400
O 	O 	0.14060 0.69550 0.46650 -0.48500
O 	O 	0.85330 0.80450 0.62330 -0.42200
O 	O 	0.98710 0.83260 0.63730 -0.44100
C 	C 	0.93410 0.80500 0.61570 0.28900
C 	C 	0.96680 0.76780 0.58130 0.00500
C 	C 	0.91090 0.74160 0.55650 -0.06100
C 	C 	0.05410 0.77420 0.57170 -0.01000
H 	H 	0.85080 0.74030 0.56200 0.03300
C 	C 	0.94240 0.71650 0.52270 0.02800
C 	C 	0.08810 0.74680 0.53860 0.20000
H 	H 	0.09100 0.79710 0.58750 0.03800
C 	C 	0.03220 0.71540 0.51400 -0.00800
H 	H 	0.90250 0.69990 0.50520 0.01500
N 	N 	0.17750 0.75530 0.53360 -0.23600
C 	C 	0.06030 0.69440 0.47580 0.32900
H 	H 	0.20720 0.77550 0.55040 0.12300
H 	H 	0.20370 0.74050 0.51370 0.12200
C 	C 	0.97500 0.98090 0.75920 -0.11400
C 	C 	0.03230 0.03460 0.82720 -0.01700
H 	H 	0.14470 0.98160 0.81590 0.03900
C 	C 	0.91920 0.01930 0.78060 -0.04800
C 	C 	0.94980 0.04600 0.81370 -0.09300
H 	H 	0.91340 0.07230 0.82730 0.07100
H 	H 	0.09270 0.93970 0.75890 0.02800
N 	N 	0.83990 0.03950 0.76850 -0.17800
H 	H 	0.81290 0.06700 0.78150 0.11100
H 	H 	0.81620 0.02500 0.74790 0.10800
O 	O 	0.50750 0.16520 0.45427 -0.43400
O 	O 	0.64060 0.19550 0.46650 -0.48500
O 	O 	0.35330 0.30450 0.62330 -0.42200
O 	O 	0.48710 0.33260 0.63730 -0.44000
C 	C 	0.43410 0.30500 0.61570 0.28900
C 	C 	0.46680 0.26780 0.58130 0.00500
C 	C 	0.41090 0.24160 0.55650 -0.06100
C 	C 	0.55410 0.27420 0.57170 -0.01000
H 	H 	0.35080 0.24030 0.56200 0.03300
C 	C 	0.44240 0.21650 0.52270 0.02800
C 	C 	0.58810 0.24680 0.53860 0.20000
H 	H 	0.59100 0.29710 0.58750 0.03800
C 	C 	0.53220 0.21540 0.51400 -0.00800
H 	H 	0.40250 0.19990 0.50520 0.01500
N 	N 	0.67750 0.25530 0.53360 -0.23600
C 	C 	0.56030 0.19440 0.47580 0.32900
H 	H 	0.70720 0.27550 0.55040 0.12300
H 	H 	0.70370 0.24050 0.51370 0.12200
C 	C 	0.47500 0.48090 0.75920 -0.11300
C 	C 	0.53230 0.53460 0.82720 -0.01700
H 	H 	0.64470 0.48160 0.81590 0.03900
C 	C 	0.41920 0.51930 0.78060 -0.04300
C 	C 	0.44980 0.54600 0.81370 -0.09100
H 	H 	0.41340 0.57230 0.82730 0.07000
H 	H 	0.59270 0.43970 0.75890 0.02800
N 	N 	0.33990 0.53950 0.76850 -0.17900
H 	H 	0.31290 0.56700 0.78150 0.11200
H 	H 	0.31620 0.52500 0.74790 0.10800
O 	O 	0.50750 0.66520 0.95427 -0.43400
O 	O 	0.64060 0.69550 0.96650 -0.48500
O 	O 	0.35330 0.80450 0.12330 -0.42200
O 	O 	0.48710 0.83260 0.13730 -0.44000
C 	C 	0.43410 0.80500 0.11570 0.28900
C 	C 	0.46680 0.76780 0.08130 0.00600
C 	C 	0.41090 0.74160 0.05650 -0.06100
C 	C 	0.55410 0.77420 0.07170 -0.00900
H 	H 	0.35080 0.74030 0.06200 0.03300
C 	C 	0.44240 0.71650 0.02270 0.02800
C 	C 	0.58810 0.74680 0.03860 0.20100
H 	H 	0.59100 0.79710 0.08750 0.03700
C 	C 	0.53220 0.71540 0.01400 -0.00800
H 	H 	0.40250 0.69990 0.00520 0.01500
N 	N 	0.67750 0.75530 0.03360 -0.23600
C 	C 	0.56030 0.69440 0.97580 0.32900
H 	H 	0.70720 0.77550 0.05040 0.12300
H 	H 	0.70370 0.74050 0.01370 0.12200
C 	C 	0.47500 0.98090 0.25920 -0.11200
C 	C 	0.53230 0.03460 0.32720 -0.01600
H 	H 	0.64470 0.98160 0.31590 0.03900
C 	C 	0.41920 0.01930 0.28060 -0.03900
C 	C 	0.44980 0.04600 0.31370 -0.09000
H 	H 	0.41340 0.07230 0.32730 0.06900
H 	H 	0.59270 0.93970 0.25890 0.02800
N 	N 	0.33990 0.03950 0.26850 -0.18000
H 	H 	0.31290 0.06700 0.28150 0.11200
H 	H 	0.31620 0.02500 0.24790 0.10800
O 	O 	0.74250 0.58480 0.95427 -0.43400
O 	O 	0.60940 0.55450 0.96650 -0.48500
O 	O 	0.89670 0.44550 0.12330 -0.42200
O 	O 	0.76290 0.41740 0.13730 -0.44000
C 	C 	0.81590 0.44500 0.11570 0.28900
C 	C 	0.78320 0.48220 0.08130 0.00500
C 	C 	0.83910 0.50840 0.05650 -0.06100
C 	C 	0.69590 0.47580 0.07170 -0.01000
H 	H 	0.89920 0.50970 0.06200 0.03300
C 	C 	0.80760 0.53350 0.02270 0.02800
C 	C 	0.66190 0.50320 0.03860 0.20000
H 	H 	0.65900 0.45290 0.08750 0.03800
C 	C 	0.71780 0.53460 0.01400 -0.00800
H 	H 	0.84750 0.55010 0.00520 0.01500
N 	N 	0.57250 0.49470 0.03360 -0.23600
C 	C 	0.68970 0.55560 0.97580 0.32900
H 	H 	0.54280 0.47450 0.05040 0.12300
H 	H 	0.54630 0.50950 0.01370 0.12200
C 	C 	0.77500 0.26910 0.25920 -0.11300
C 	C 	0.71770 0.21540 0.32720 -0.01700
H 	H 	0.60530 0.26840 0.31590 0.03900
C 	C 	0.83080 0.23070 0.28060 -0.04200
C 	C 	0.80020 0.20400 0.31370 -0.09100
H 	H 	0.83660 0.17770 0.32730 0.07000
H 	H 	0.65730 0.31030 0.25890 0.02800
N 	N 	0.91010 0.21050 0.26850 -0.17900
H 	H 	0.93710 0.18300 0.28150 0.11200
H 	H 	0.93380 0.22500 0.24790 0.10800
O 	O 	0.74250 0.08480 0.45427 -0.43400
O 	O 	0.60940 0.05450 0.46650 -0.48500
O 	O 	0.89670 0.94550 0.62330 -0.42200
O 	O 	0.76290 0.91740 0.63730 -0.44000
C 	C 	0.81590 0.94500 0.61570 0.28900
C 	C 	0.78320 0.98220 0.58130 0.00500
C 	C 	0.83910 0.00840 0.55650 -0.06100
C 	C 	0.69590 0.97580 0.57170 -0.01000
H 	H 	0.89920 0.00970 0.56200 0.03300
C 	C 	0.80760 0.03350 0.52270 0.02800
C 	C 	0.66190 0.00320 0.53860 0.19900
H 	H 	0.65900 0.95290 0.58750 0.03800
C 	C 	0.71780 0.03460 0.51400 -0.00900
H 	H 	0.84750 0.05010 0.50520 0.01500
N 	N 	0.57250 0.99470 0.53360 -0.23600
C 	C 	0.68970 0.05560 0.47580 0.32900
H 	H 	0.54280 0.97450 0.55040 0.12300
H 	H 	0.54630 0.00950 0.51370 0.12200
C 	C 	0.77500 0.76910 0.75920 -0.11300
C 	C 	0.71770 0.71540 0.82720 -0.01700
H 	H 	0.60530 0.76840 0.81590 0.03900
C 	C 	0.83080 0.73070 0.78060 -0.04300
C 	C 	0.80020 0.70400 0.81370 -0.09100
H 	H 	0.83660 0.67770 0.82730 0.07000
H 	H 	0.65730 0.81030 0.75890 0.02800
N 	N 	0.91010 0.71050 0.76850 -0.17900
H 	H 	0.93710 0.68300 0.78150 0.11100
H 	H 	0.93380 0.72500 0.74790 0.10800
O 	O 	0.24250 0.58480 0.45427 -0.43400
O 	O 	0.10940 0.55450 0.46650 -0.48500
O 	O 	0.39670 0.44550 0.62330 -0.42200
O 	O 	0.26290 0.41740 0.63730 -0.44000
C 	C 	0.31590 0.44500 0.61570 0.28900
C 	C 	0.28320 0.48220 0.58130 0.00500
C 	C 	0.33910 0.50840 0.55650 -0.06100
C 	C 	0.19590 0.47580 0.57170 -0.01000
H 	H 	0.39920 0.50970 0.56200 0.03300
C 	C 	0.30760 0.53350 0.52270 0.02800
C 	C 	0.16190 0.50320 0.53860 0.20100
H 	H 	0.15900 0.45290 0.58750 0.03800
C 	C 	0.21780 0.53460 0.51400 -0.00800
H 	H 	0.34750 0.55010 0.50520 0.01500
N 	N 	0.07250 0.49470 0.53360 -0.23600
C 	C 	0.18970 0.55560 0.47580 0.32900
H 	H 	0.04280 0.47450 0.55040 0.12300
H 	H 	0.04630 0.50950 0.51370 0.12200
C 	C 	0.27500 0.26910 0.75920 -0.11300
C 	C 	0.21770 0.21540 0.82720 -0.01700
H 	H 	0.10530 0.26840 0.81590 0.03900
C 	C 	0.33080 0.23070 0.78060 -0.04300
C 	C 	0.30020 0.20400 0.81370 -0.09100
H 	H 	0.33660 0.17770 0.82730 0.07000
H 	H 	0.15730 0.31030 0.75890 0.02800
N 	N 	0.41010 0.21050 0.76850 -0.17900
H 	H 	0.43710 0.18300 0.78150 0.11200
H 	H 	0.43380 0.22500 0.74790 0.10800
O 	O 	0.24250 0.08480 0.95427 -0.43400
O 	O 	0.10940 0.05450 0.96650 -0.48500
O 	O 	0.39670 0.94550 0.12330 -0.42200
O 	O 	0.26290 0.91740 0.13730 -0.44000
C 	C 	0.31590 0.94500 0.11570 0.28900
C 	C 	0.28320 0.98220 0.08130 0.00600
C 	C 	0.33910 0.00840 0.05650 -0.06200
C 	C 	0.19590 0.97580 0.07170 -0.00600
H 	H 	0.39920 0.00970 0.06200 0.03300
C 	C 	0.30760 0.03350 0.02270 0.02800
C 	C 	0.16190 0.00320 0.03860 0.20800
H 	H 	0.15900 0.95290 0.08750 0.03600
C 	C 	0.21780 0.03460 0.01400 -0.00700
H 	H 	0.34750 0.05010 0.00520 0.01500
N 	N 	0.07250 0.99470 0.03360 -0.23700
C 	C 	0.18970 0.05560 0.97580 0.33000
H 	H 	0.04280 0.97450 0.05040 0.12400
H 	H 	0.04630 0.00950 0.01370 0.12200
C 	C 	0.27500 0.76910 0.25920 -0.11300
C 	C 	0.21770 0.71540 0.32720 -0.01700
H 	H 	0.10530 0.76840 0.31590 0.03900
C 	C 	0.33080 0.73070 0.28060 -0.04200
C 	C 	0.30020 0.70400 0.31370 -0.09100
H 	H 	0.33660 0.67770 0.32730 0.07000
H 	H 	0.15730 0.81030 0.25890 0.02800
N 	N 	0.41010 0.71050 0.26850 -0.17900
H 	H 	0.43710 0.68300 0.28150 0.11200
H 	H 	0.43380 0.72500 0.24790 0.10800
O 	O 	0.25750 0.83480 0.20427 -0.43400
O 	O 	0.39060 0.80450 0.21650 -0.48500
O 	O 	0.10330 0.69550 0.37330 -0.42200
O 	O 	0.23710 0.66740 0.38730 -0.44000
C 	C 	0.18410 0.69500 0.36570 0.28900
C 	C 	0.21680 0.73220 0.33130 0.00500
C 	C 	0.16090 0.75840 0.30650 -0.06100
C 	C 	0.30410 0.72580 0.32170 -0.01000
H 	H 	0.10080 0.75970 0.31200 0.03300
C 	C 	0.19240 0.78350 0.27270 0.02800
C 	C 	0.33810 0.75320 0.28860 0.20000
H 	H 	0.34100 0.70290 0.33750 0.03800
C 	C 	0.28220 0.78460 0.26400 -0.00800
H 	H 	0.15250 0.80010 0.25520 0.01500
N 	N 	0.42750 0.74470 0.28360 -0.23600
C 	C 	0.31030 0.80560 0.22580 0.32900
H 	H 	0.45720 0.72450 0.30040 0.12300
H 	H 	0.45370 0.75950 0.26370 0.12200
C 	C 	0.22500 0.51910 0.50920 -0.11300
C 	C 	0.28230 0.46540 0.57720 -0.01700
H 	H 	0.39470 0.51840 0.56590 0.03900
C 	C 	0.16920 0.48070 0.53060 -0.04300
C 	C 	0.19980 0.45400 0.56370 -0.09100
H 	H 	0.16340 0.42770 0.57730 0.07000
H 	H 	0.34270 0.56030 0.50890 0.02800
N 	N 	0.08990 0.46050 0.51850 -0.17900
H 	H 	0.06290 0.43300 0.53150 0.11100
H 	H 	0.06620 0.47500 0.49790 0.10800
O 	O 	0.25750 0.33480 0.70427 -0.43400
O 	O 	0.39060 0.30450 0.71650 -0.48500
O 	O 	0.10330 0.19550 0.87330 -0.42200
O 	O 	0.23710 0.16740 0.88730 -0.44000
C 	C 	0.18410 0.19500 0.86570 0.28900
C 	C 	0.21680 0.23220 0.83130 0.00500
C 	C 	0.16090 0.25840 0.80650 -0.06100
C 	C 	0.30410 0.22580 0.82170 -0.01000
H 	H 	0.10080 0.25970 0.81200 0.03300
C 	C 	0.19240 0.28350 0.77270 0.02800
C 	C 	0.33810 0.25320 0.78860 0.20100
H 	H 	0.34100 0.20290 0.83750 0.03800
C 	C 	0.28220 0.28460 0.76400 -0.00800
H 	H 	0.15250 0.30010 0.75520 0.01500
N 	N 	0.42750 0.24470 0.78360 -0.23600
C 	C 	0.31030 0.30560 0.72580 0.32900
H 	H 	0.45720 0.22450 0.80040 0.12300
H 	H 	0.45370 0.25950 0.76370 0.12200
C 	C 	0.22500 0.01910 0.00920 -0.11500
C 	C 	0.28230 0.96540 0.07720 -0.01800
H 	H 	0.39470 0.01840 0.06590 0.03900
C 	C 	0.16920 0.98070 0.03060 -0.05100
C 	C 	0.19980 0.95400 0.06370 -0.09400
H 	H 	0.16340 0.92770 0.07730 0.07200
H 	H 	0.34270 0.06030 0.00890 0.02800
N 	N 	0.08990 0.96050 0.01850 -0.17700
H 	H 	0.06290 0.93300 0.03150 0.11100
H 	H 	0.06620 0.97500 0.99790 0.10700
O 	O 	0.75750 0.83480 0.70427 -0.43400
O 	O 	0.89060 0.80450 0.71650 -0.48500
O 	O 	0.60330 0.69550 0.87330 -0.42200
O 	O 	0.73710 0.66740 0.88730 -0.44000
C 	C 	0.68410 0.69500 0.86570 0.28900
C 	C 	0.71680 0.73220 0.83130 0.00600
C 	C 	0.66090 0.75840 0.80650 -0.06100
C 	C 	0.80410 0.72580 0.82170 -0.00900
H 	H 	0.60080 0.75970 0.81200 0.03300
C 	C 	0.69240 0.78350 0.77270 0.02800
C 	C 	0.83810 0.75320 0.78860 0.20100
H 	H 	0.84100 0.70290 0.83750 0.03700
C 	C 	0.78220 0.78460 0.76400 -0.00800
H 	H 	0.65250 0.80010 0.75520 0.01500
N 	N 	0.92750 0.74470 0.78360 -0.23600
C 	C 	0.81030 0.80560 0.72580 0.32900
H 	H 	0.95720 0.72450 0.80040 0.12300
H 	H 	0.95370 0.75950 0.76370 0.12200
C 	C 	0.72500 0.51910 0.00920 -0.11300
C 	C 	0.78230 0.46540 0.07720 -0.01700
H 	H 	0.89470 0.51840 0.06590 0.03900
C 	C 	0.66920 0.48070 0.03060 -0.04200
C 	C 	0.69980 0.45400 0.06370 -0.09100
H 	H 	0.66340 0.42770 0.07730 0.07000
H 	H 	0.84270 0.56030 0.00890 0.02800
N 	N 	0.58990 0.46050 0.01850 -0.17900
H 	H 	0.56290 0.43300 0.03150 0.11200
H 	H 	0.56620 0.47500 0.99790 0.10800
O 	O 	0.75750 0.33480 0.20427 -0.43400
O 	O 	0.89060 0.30450 0.21650 -0.48500
O 	O 	0.60330 0.19550 0.37330 -0.42200
O 	O 	0.73710 0.16740 0.38730 -0.44000
C 	C 	0.68410 0.19500 0.36570 0.28900
C 	C 	0.71680 0.23220 0.33130 0.00500
C 	C 	0.66090 0.25840 0.30650 -0.06100
C 	C 	0.80410 0.22580 0.32170 -0.01000
H 	H 	0.60080 0.25970 0.31200 0.03300
C 	C 	0.69240 0.28350 0.27270 0.02800
C 	C 	0.83810 0.25320 0.28860 0.20000
H 	H 	0.84100 0.20290 0.33750 0.03800
C 	C 	0.78220 0.28460 0.26400 -0.00800
H 	H 	0.65250 0.30010 0.25520 0.01500
N 	N 	0.92750 0.24470 0.28360 -0.23600
C 	C 	0.81030 0.30560 0.22580 0.32900
H 	H 	0.95720 0.22450 0.30040 0.12300
H 	H 	0.95370 0.25950 0.26370 0.12200
C 	C 	0.72500 0.01910 0.50920 -0.11200
C 	C 	0.78230 0.96540 0.57720 -0.01700
H 	H 	0.89470 0.01840 0.56590 0.03900
C 	C 	0.66920 0.98070 0.53060 -0.04200
C 	C 	0.69980 0.95400 0.56370 -0.09100
H 	H 	0.66340 0.92770 0.57730 0.07000
H 	H 	0.84270 0.06030 0.50890 0.02800
N 	N 	0.58990 0.96050 0.51850 -0.17900
H 	H 	0.56290 0.93300 0.53150 0.11200
H 	H 	0.56620 0.97500 0.49790 0.10800
O 	O 	0.99250 0.41520 0.20427 -0.43400
O 	O 	0.85940 0.44550 0.21650 -0.48500
O 	O 	0.14670 0.55450 0.37330 -0.42200
O 	O 	0.01290 0.58260 0.38730 -0.44100
C 	C 	0.06590 0.55500 0.36570 0.28900
C 	C 	0.03320 0.51780 0.33130 0.00500
C 	C 	0.08910 0.49160 0.30650 -0.06100
C 	C 	0.94590 0.52420 0.32170 -0.01000
H 	H 	0.14920 0.49030 0.31200 0.03300
C 	C 	0.05760 0.46650 0.27270 0.02800
C 	C 	0.91190 0.49680 0.28860 0.20000
H 	H 	0.90900 0.54710 0.33750 0.03800
C 	C 	0.96780 0.46540 0.26400 -0.00800
H 	H 	0.09750 0.44990 0.25520 0.01500
N 	N 	0.82250 0.50530 0.28360 -0.23600
C 	C 	0.93970 0.44440 0.22580 0.32900
H 	H 	0.79280 0.52550 0.30040 0.12300
H 	H 	0.79630 0.49050 0.26370 0.12200
C 	C 	0.02500 0.73090 0.50920 -0.11300
C 	C 	0.96770 0.78460 0.57720 -0.01700
H 	H 	0.85530 0.73160 0.56590 0.03900
C 	C 	0.08080 0.76930 0.53060 -0.04200
C 	C 	0.05020 0.79600 0.56370 -0.09100
H 	H 	0.08660 0.82230 0.57730 0.07000
H 	H 	0.90730 0.68970 0.50890 0.02800
N 	N 	0.16010 0.78950 0.51850 -0.17900
H 	H 	0.18710 0.81700 0.53150 0.11200
H 	H 	0.18380 0.77500 0.49790 0.10800
O 	O 	0.99250 0.91520 0.70427 -0.43400
O 	O 	0.85940 0.94550 0.71650 -0.48500
O 	O 	0.14670 0.05450 0.87330 -0.42200
O 	O 	0.01290 0.08260 0.88730 -0.44100
C 	C 	0.06590 0.05500 0.86570 0.28900
C 	C 	0.03320 0.01780 0.83130 0.00600
C 	C 	0.08910 0.99160 0.80650 -0.06100
C 	C 	0.94590 0.02420 0.82170 -0.00700
H 	H 	0.14920 0.99030 0.81200 0.03300
C 	C 	0.05760 0.96650 0.77270 0.02800
C 	C 	0.91190 0.99680 0.78860 0.20600
H 	H 	0.90900 0.04710 0.83750 0.03600
C 	C 	0.96780 0.96540 0.76400 -0.00700
H 	H 	0.09750 0.94990 0.75520 0.01500
N 	N 	0.82250 0.00530 0.78360 -0.23700
C 	C 	0.93970 0.94440 0.72580 0.32900
H 	H 	0.79280 0.02550 0.80040 0.12400
H 	H 	0.79630 0.99050 0.76370 0.12200
C 	C 	0.02500 0.23090 0.00920 -0.11300
C 	C 	0.96770 0.28460 0.07720 -0.01700
H 	H 	0.85530 0.23160 0.06590 0.03900
C 	C 	0.08080 0.26930 0.03060 -0.04300
C 	C 	0.05020 0.29600 0.06370 -0.09100
H 	H 	0.08660 0.32230 0.07730 0.07000
H 	H 	0.90730 0.18970 0.00890 0.02800
N 	N 	0.16010 0.28950 0.01850 -0.17900
H 	H 	0.18710 0.31700 0.03150 0.11200
H 	H 	0.18380 0.27500 0.99790 0.10800
O 	O 	0.49250 0.41520 0.70427 -0.43400
O 	O 	0.35940 0.44550 0.71650 -0.48500
O 	O 	0.64670 0.55450 0.87330 -0.42200
O 	O 	0.51290 0.58260 0.88730 -0.44000
C 	C 	0.56590 0.55500 0.86570 0.28900
C 	C 	0.53320 0.51780 0.83130 0.00500
C 	C 	0.58910 0.49160 0.80650 -0.06100
C 	C 	0.44590 0.52420 0.82170 -0.01000
H 	H 	0.64920 0.49030 0.81200 0.03300
C 	C 	0.55760 0.46650 0.77270 0.02800
C 	C 	0.41190 0.49680 0.78860 0.20100
H 	H 	0.40900 0.54710 0.83750 0.03800
C 	C 	0.46780 0.46540 0.76400 -0.00800
H 	H 	0.59750 0.44990 0.75520 0.01500
N 	N 	0.32250 0.50530 0.78360 -0.23600
C 	C 	0.43970 0.44440 0.72580 0.32900
H 	H 	0.29280 0.52550 0.80040 0.12300
H 	H 	0.29630 0.49050 0.76370 0.12200
C 	C 	0.52500 0.73090 0.00920 -0.11300
C 	C 	0.46770 0.78460 0.07720 -0.01700
H 	H 	0.35530 0.73160 0.06590 0.03900
C 	C 	0.58080 0.76930 0.03060 -0.04300
C 	C 	0.55020 0.79600 0.06370 -0.09100
H 	H 	0.58660 0.82230 0.07730 0.07000
H 	H 	0.40730 0.68970 0.00890 0.02800
N 	N 	0.66010 0.78950 0.01850 -0.17900
H 	H 	0.68710 0.81700 0.03150 0.11100
H 	H 	0.68380 0.77500 0.99790 0.10800
O 	O 	0.49250 0.91520 0.20427 -0.43400
O 	O 	0.35940 0.94550 0.21650 -0.48500
O 	O 	0.64670 0.05450 0.37330 -0.42200
O 	O 	0.51290 0.08260 0.38730 -0.44000
C 	C 	0.56590 0.05500 0.36570 0.28900
C 	C 	0.53320 0.01780 0.33130 0.00500
C 	C 	0.58910 0.99160 0.30650 -0.06000
C 	C 	0.44590 0.02420 0.32170 -0.01100
H 	H 	0.64920 0.99030 0.31200 0.03300
C 	C 	0.55760 0.96650 0.27270 0.02800
C 	C 	0.41190 0.99680 0.28860 0.19700
H 	H 	0.40900 0.04710 0.33750 0.03800
C 	C 	0.46780 0.96540 0.26400 -0.00900
H 	H 	0.59750 0.94990 0.25520 0.01600
N 	N 	0.32250 0.00530 0.28360 -0.23500
C 	C 	0.43970 0.94440 0.22580 0.32900
H 	H 	0.29280 0.02550 0.30040 0.12300
H 	H 	0.29630 0.99050 0.26370 0.12200
C 	C 	0.52500 0.23090 0.50920 -0.11300
C 	C 	0.46770 0.28460 0.57720 -0.01700
H 	H 	0.35530 0.23160 0.56590 0.03900
C 	C 	0.58080 0.26930 0.53060 -0.04200
C 	C 	0.55020 0.29600 0.56370 -0.09100
H 	H 	0.58660 0.32230 0.57730 0.07000
H 	H 	0.40730 0.18970 0.50890 0.02800
N 	N 	0.66010 0.28950 0.51850 -0.17900
H 	H 	0.68710 0.31700 0.53150 0.11200
H 	H 	0.68380 0.27500 0.49790 0.10800
In	In	0.87500 0.37500 0.17094 1.99700
In	In	0.87500 0.87500 0.67094 1.99700
In	In	0.37500 0.37500 0.67094 1.99700
In	In	0.37500 0.87500 0.17094 1.99700
In	In	0.12500 0.62500 0.42094 1.99700
In	In	0.12500 0.12500 0.92094 1.99700
In	In	0.62500 0.62500 0.92094 1.99700
In	In	0.62500 0.12500 0.42094 1.99700
