data_crystal

_cell_length_a 15.05970
_cell_length_b 26.97310
_cell_length_c 31.23390
_cell_angle_alpha 90.00000
_cell_angle_beta  90.00000
_cell_angle_gamma 90.00000

_symmetry_space_group_name_	'P 1'
_symmetry_space_group_name_H-M	'P 1'

loop_
_symmetry_equiv_pos_as_xyz
  x,y,z

loop_
_atom_site_label
_atom_site_type_symbol
_atom_site_fract_x
_atom_site_fract_y
_atom_site_fract_z
_atom_site_charge
O 	O 	0.85400 0.43410 0.12120 -0.43000
O 	O 	0.98950 0.41070 0.10760 -0.43500
O 	O 	0.01110 0.58770 0.28510 -0.44300
O 	O 	0.14750 0.56500 0.27210 -0.49000
C 	C 	0.93680 0.43680 0.12810 0.27900
C 	C 	0.06530 0.56130 0.26420 0.33700
C 	C 	0.03190 0.52840 0.22960 -0.14600
C 	C 	0.96880 0.46950 0.16320 -0.00500
N 	N 	0.17600 0.48280 0.22670 -0.26500
H 	H 	0.20780 0.45980 0.21550 0.14500
H 	H 	0.19710 0.50110 0.24670 0.14300
C 	C 	0.91140 0.50610 0.18190 0.00100
H 	H 	0.85320 0.51030 0.17260 0.03500
C 	C 	0.94670 0.53450 0.21400 0.03600
H 	H 	0.91150 0.55930 0.22590 0.02600
C 	C 	0.08630 0.49070 0.21180 0.08600
C 	C 	0.05260 0.46160 0.17980 -0.09500
H 	H 	0.08690 0.43580 0.16900 0.08600
N 	N 	0.17800 0.52100 0.19800 -0.28500
H 	H 	0.20010 0.53920 0.21810 0.16000
H 	H 	0.21080 0.50950 0.17830 0.14900
C 	C 	0.09000 0.51100 0.19850 0.10900
C 	C 	0.94220 0.51640 0.22750 -0.02100
H 	H 	0.90340 0.52800 0.24840 0.04600
C 	C 	0.91070 0.48690 0.19430 -0.07900
H 	H 	0.85070 0.47890 0.19290 0.06600
C 	C 	0.05840 0.48150 0.16520 -0.04900
H 	H 	0.09730 0.46990 0.14440 0.04900
O 	O 	0.85400 0.93410 0.62120 -0.43100
O 	O 	0.98950 0.91070 0.60760 -0.43600
O 	O 	0.01110 0.08770 0.78510 -0.44400
O 	O 	0.14750 0.06500 0.77210 -0.49100
C 	C 	0.93680 0.93680 0.62810 0.27700
C 	C 	0.06530 0.06130 0.76420 0.33600
C 	C 	0.03190 0.02840 0.72960 -0.14700
C 	C 	0.96880 0.96950 0.66320 -0.00600
N 	N 	0.17600 0.98280 0.72670 -0.26600
H 	H 	0.20780 0.95980 0.71550 0.14400
H 	H 	0.19710 0.00110 0.74670 0.14300
C 	C 	0.91140 0.00610 0.68190 0.00200
H 	H 	0.85320 0.01030 0.67260 0.03500
C 	C 	0.94670 0.03450 0.71400 0.03700
H 	H 	0.91150 0.05930 0.72590 0.02600
C 	C 	0.08630 0.99070 0.71180 0.08500
C 	C 	0.05260 0.96160 0.67980 -0.09600
H 	H 	0.08690 0.93580 0.66900 0.08700
N 	N 	0.17800 0.02100 0.69800 -0.28500
H 	H 	0.20010 0.03920 0.71810 0.16000
H 	H 	0.21080 0.00950 0.67830 0.14900
C 	C 	0.09000 0.01100 0.69850 0.11000
C 	C 	0.94220 0.01640 0.72750 -0.02200
H 	H 	0.90340 0.02800 0.74840 0.04600
C 	C 	0.91070 0.98690 0.69430 -0.08000
H 	H 	0.85070 0.97890 0.69290 0.06600
C 	C 	0.05840 0.98150 0.66520 -0.04800
H 	H 	0.09730 0.96990 0.64440 0.04900
O 	O 	0.35400 0.43410 0.62120 -0.43100
O 	O 	0.48950 0.41070 0.60760 -0.43600
O 	O 	0.51110 0.58770 0.78510 -0.44400
O 	O 	0.64750 0.56500 0.77210 -0.49100
C 	C 	0.43680 0.43680 0.62810 0.27800
C 	C 	0.56530 0.56130 0.76420 0.33600
C 	C 	0.53190 0.52840 0.72960 -0.14700
C 	C 	0.46880 0.46950 0.66320 -0.00600
N 	N 	0.67600 0.48280 0.72670 -0.26600
H 	H 	0.70780 0.45980 0.71550 0.14400
H 	H 	0.69710 0.50110 0.74670 0.14300
C 	C 	0.41140 0.50610 0.68190 0.00100
H 	H 	0.35320 0.51030 0.67260 0.03500
C 	C 	0.44670 0.53450 0.71400 0.03600
H 	H 	0.41150 0.55930 0.72590 0.02600
C 	C 	0.58630 0.49070 0.71180 0.08600
C 	C 	0.55260 0.46160 0.67980 -0.09500
H 	H 	0.58690 0.43580 0.66900 0.08600
N 	N 	0.67800 0.52100 0.69800 -0.28500
H 	H 	0.70010 0.53920 0.71810 0.16000
H 	H 	0.71080 0.50950 0.67830 0.14900
C 	C 	0.59000 0.51100 0.69850 0.10900
C 	C 	0.44220 0.51640 0.72750 -0.02100
H 	H 	0.40340 0.52800 0.74840 0.04600
C 	C 	0.41070 0.48690 0.69430 -0.07900
H 	H 	0.35070 0.47890 0.69290 0.06600
C 	C 	0.55840 0.48150 0.66520 -0.04900
H 	H 	0.59730 0.46990 0.64440 0.04900
O 	O 	0.35400 0.93410 0.12120 -0.43100
O 	O 	0.48950 0.91070 0.10760 -0.43600
O 	O 	0.51110 0.08770 0.28510 -0.44400
O 	O 	0.64750 0.06500 0.27210 -0.49100
C 	C 	0.43680 0.93680 0.12810 0.27800
C 	C 	0.56530 0.06130 0.26420 0.33600
C 	C 	0.53190 0.02840 0.22960 -0.14700
C 	C 	0.46880 0.96950 0.16320 -0.00600
N 	N 	0.67600 0.98280 0.22670 -0.26600
H 	H 	0.70780 0.95980 0.21550 0.14400
H 	H 	0.69710 0.00110 0.24670 0.14300
C 	C 	0.41140 0.00610 0.18190 0.00200
H 	H 	0.35320 0.01030 0.17260 0.03500
C 	C 	0.44670 0.03450 0.21400 0.03600
H 	H 	0.41150 0.05930 0.22590 0.02600
C 	C 	0.58630 0.99070 0.21180 0.08700
C 	C 	0.55260 0.96160 0.17980 -0.09300
H 	H 	0.58690 0.93580 0.16900 0.08600
N 	N 	0.67800 0.02100 0.19800 -0.28500
H 	H 	0.70010 0.03920 0.21810 0.16000
H 	H 	0.71080 0.00950 0.17830 0.14900
C 	C 	0.59000 0.01100 0.19850 0.10800
C 	C 	0.44220 0.01640 0.22750 -0.02100
H 	H 	0.40340 0.02800 0.24840 0.04600
C 	C 	0.41070 0.98690 0.19430 -0.07900
H 	H 	0.35070 0.97890 0.19290 0.06600
C 	C 	0.55840 0.98150 0.16520 -0.05100
H 	H 	0.59730 0.96990 0.14440 0.05000
O 	O 	0.89600 0.31590 0.12120 -0.43100
O 	O 	0.76050 0.33930 0.10760 -0.43600
O 	O 	0.73890 0.16230 0.28510 -0.44400
O 	O 	0.60250 0.18500 0.27210 -0.49100
C 	C 	0.81320 0.31320 0.12810 0.27800
C 	C 	0.68470 0.18870 0.26420 0.33600
C 	C 	0.71810 0.22160 0.22960 -0.14700
C 	C 	0.78120 0.28050 0.16320 -0.00600
N 	N 	0.57400 0.26720 0.22670 -0.26600
H 	H 	0.54220 0.29020 0.21550 0.14400
H 	H 	0.55290 0.24890 0.24670 0.14300
C 	C 	0.83860 0.24390 0.18190 0.00100
H 	H 	0.89680 0.23970 0.17260 0.03500
C 	C 	0.80330 0.21550 0.21400 0.03600
H 	H 	0.83850 0.19070 0.22590 0.02600
C 	C 	0.66370 0.25930 0.21180 0.08600
C 	C 	0.69740 0.28840 0.17980 -0.09500
H 	H 	0.66310 0.31420 0.16900 0.08600
N 	N 	0.57200 0.22900 0.19800 -0.28500
H 	H 	0.54990 0.21080 0.21810 0.16000
H 	H 	0.53920 0.24050 0.17830 0.14900
C 	C 	0.66000 0.23900 0.19850 0.10900
C 	C 	0.80780 0.23360 0.22750 -0.02100
H 	H 	0.84660 0.22200 0.24840 0.04600
C 	C 	0.83930 0.26310 0.19430 -0.07900
H 	H 	0.89930 0.27110 0.19290 0.06600
C 	C 	0.69160 0.26850 0.16520 -0.04900
H 	H 	0.65270 0.28010 0.14440 0.04900
O 	O 	0.89600 0.81590 0.62120 -0.43100
O 	O 	0.76050 0.83930 0.60760 -0.43600
O 	O 	0.73890 0.66230 0.78510 -0.44400
O 	O 	0.60250 0.68500 0.77210 -0.49100
C 	C 	0.81320 0.81320 0.62810 0.27800
C 	C 	0.68470 0.68870 0.76420 0.33600
C 	C 	0.71810 0.72160 0.72960 -0.14700
C 	C 	0.78120 0.78050 0.66320 -0.00600
N 	N 	0.57400 0.76720 0.72670 -0.26600
H 	H 	0.54220 0.79020 0.71550 0.14400
H 	H 	0.55290 0.74890 0.74670 0.14300
C 	C 	0.83860 0.74390 0.68190 0.00100
H 	H 	0.89680 0.73970 0.67260 0.03500
C 	C 	0.80330 0.71550 0.71400 0.03600
H 	H 	0.83850 0.69070 0.72590 0.02600
C 	C 	0.66370 0.75930 0.71180 0.08600
C 	C 	0.69740 0.78840 0.67980 -0.09500
H 	H 	0.66310 0.81420 0.66900 0.08600
N 	N 	0.57200 0.72900 0.69800 -0.28500
H 	H 	0.54990 0.71080 0.71810 0.16000
H 	H 	0.53920 0.74050 0.67830 0.14900
C 	C 	0.66000 0.73900 0.69850 0.10900
C 	C 	0.80780 0.73360 0.72750 -0.02100
H 	H 	0.84660 0.72200 0.74840 0.04600
C 	C 	0.83930 0.76310 0.69430 -0.07900
H 	H 	0.89930 0.77110 0.69290 0.06600
C 	C 	0.69160 0.76850 0.66520 -0.04900
H 	H 	0.65270 0.78010 0.64440 0.04900
O 	O 	0.39600 0.31590 0.62120 -0.43100
O 	O 	0.26050 0.33930 0.60760 -0.43600
O 	O 	0.23890 0.16230 0.78510 -0.44400
O 	O 	0.10250 0.18500 0.77210 -0.49100
C 	C 	0.31320 0.31320 0.62810 0.27800
C 	C 	0.18470 0.18870 0.76420 0.33600
C 	C 	0.21810 0.22160 0.72960 -0.14700
C 	C 	0.28120 0.28050 0.66320 -0.00600
N 	N 	0.07400 0.26720 0.72670 -0.26600
H 	H 	0.04220 0.29020 0.71550 0.14400
H 	H 	0.05290 0.24890 0.74670 0.14300
C 	C 	0.33860 0.24390 0.68190 0.00100
H 	H 	0.39680 0.23970 0.67260 0.03500
C 	C 	0.30330 0.21550 0.71400 0.03600
H 	H 	0.33850 0.19070 0.72590 0.02600
C 	C 	0.16370 0.25930 0.71180 0.08600
C 	C 	0.19740 0.28840 0.67980 -0.09500
H 	H 	0.16310 0.31420 0.66900 0.08600
N 	N 	0.07200 0.22900 0.69800 -0.28500
H 	H 	0.04990 0.21080 0.71810 0.16000
H 	H 	0.03920 0.24050 0.67830 0.14900
C 	C 	0.16000 0.23900 0.69850 0.10900
C 	C 	0.30780 0.23360 0.72750 -0.02100
H 	H 	0.34660 0.22200 0.74840 0.04600
C 	C 	0.33930 0.26310 0.69430 -0.07900
H 	H 	0.39930 0.27110 0.69290 0.06600
C 	C 	0.19160 0.26850 0.66520 -0.04900
H 	H 	0.15270 0.28010 0.64440 0.04900
O 	O 	0.39600 0.81590 0.12120 -0.43100
O 	O 	0.26050 0.83930 0.10760 -0.43600
O 	O 	0.23890 0.66230 0.28510 -0.44400
O 	O 	0.10250 0.68500 0.27210 -0.49100
C 	C 	0.31320 0.81320 0.12810 0.27800
C 	C 	0.18470 0.68870 0.26420 0.33600
C 	C 	0.21810 0.72160 0.22960 -0.14700
C 	C 	0.28120 0.78050 0.16320 -0.00600
N 	N 	0.07400 0.76720 0.22670 -0.26600
H 	H 	0.04220 0.79020 0.21550 0.14400
H 	H 	0.05290 0.74890 0.24670 0.14300
C 	C 	0.33860 0.74390 0.18190 0.00100
H 	H 	0.39680 0.73970 0.17260 0.03500
C 	C 	0.30330 0.71550 0.21400 0.03600
H 	H 	0.33850 0.69070 0.22590 0.02600
C 	C 	0.16370 0.75930 0.21180 0.08600
C 	C 	0.19740 0.78840 0.17980 -0.09500
H 	H 	0.16310 0.81420 0.16900 0.08600
N 	N 	0.07200 0.72900 0.19800 -0.28500
H 	H 	0.04990 0.71080 0.21810 0.16000
H 	H 	0.03920 0.74050 0.17830 0.14900
C 	C 	0.16000 0.73900 0.19850 0.10900
C 	C 	0.30780 0.73360 0.22750 -0.02100
H 	H 	0.34660 0.72200 0.24840 0.04600
C 	C 	0.33930 0.76310 0.19430 -0.07900
H 	H 	0.39930 0.77110 0.19290 0.06600
C 	C 	0.19160 0.76850 0.16520 -0.04900
H 	H 	0.15270 0.78010 0.14440 0.04900
O 	O 	0.10400 0.56590 0.37120 -0.43100
O 	O 	0.23950 0.58930 0.35760 -0.43600
O 	O 	0.26110 0.41230 0.53510 -0.44400
O 	O 	0.39750 0.43500 0.52210 -0.49100
C 	C 	0.18680 0.56320 0.37810 0.27800
C 	C 	0.31530 0.43870 0.51420 0.33600
C 	C 	0.28190 0.47160 0.47960 -0.14700
C 	C 	0.21880 0.53050 0.41320 -0.00600
N 	N 	0.42600 0.51720 0.47670 -0.26600
H 	H 	0.45780 0.54020 0.46550 0.14400
H 	H 	0.44710 0.49890 0.49670 0.14300
C 	C 	0.16140 0.49390 0.43190 0.00100
H 	H 	0.10320 0.48970 0.42260 0.03500
C 	C 	0.19670 0.46550 0.46400 0.03600
H 	H 	0.16150 0.44070 0.47590 0.02600
C 	C 	0.33630 0.50930 0.46180 0.08600
C 	C 	0.30260 0.53840 0.42980 -0.09500
H 	H 	0.33690 0.56420 0.41900 0.08600
N 	N 	0.42800 0.47900 0.44800 -0.28500
H 	H 	0.45010 0.46080 0.46810 0.16000
H 	H 	0.46080 0.49050 0.42830 0.14900
C 	C 	0.34000 0.48900 0.44850 0.10900
C 	C 	0.19220 0.48360 0.47750 -0.02100
H 	H 	0.15340 0.47200 0.49840 0.04600
C 	C 	0.16070 0.51310 0.44430 -0.07900
H 	H 	0.10070 0.52110 0.44290 0.06600
C 	C 	0.30840 0.51850 0.41520 -0.04900
H 	H 	0.34730 0.53010 0.39440 0.04900
O 	O 	0.10400 0.06590 0.87120 -0.43100
O 	O 	0.23950 0.08930 0.85760 -0.43600
O 	O 	0.26110 0.91230 0.03510 -0.44400
O 	O 	0.39750 0.93500 0.02210 -0.49100
C 	C 	0.18680 0.06320 0.87810 0.27700
C 	C 	0.31530 0.93870 0.01420 0.33700
C 	C 	0.28190 0.97160 0.97960 -0.14700
C 	C 	0.21880 0.03050 0.91320 -0.00600
N 	N 	0.42600 0.01720 0.97670 -0.26600
H 	H 	0.45780 0.04020 0.96550 0.14400
H 	H 	0.44710 0.99890 0.99670 0.14300
C 	C 	0.16140 0.99390 0.93190 0.00200
H 	H 	0.10320 0.98970 0.92260 0.03500
C 	C 	0.19670 0.96550 0.96400 0.03600
H 	H 	0.16150 0.94070 0.97590 0.02600
C 	C 	0.33630 0.00930 0.96180 0.08800
C 	C 	0.30260 0.03840 0.92980 -0.09200
H 	H 	0.33690 0.06420 0.91900 0.08500
N 	N 	0.42800 0.97900 0.94800 -0.28500
H 	H 	0.45010 0.96080 0.96810 0.16000
H 	H 	0.46080 0.99050 0.92830 0.14900
C 	C 	0.34000 0.98900 0.94850 0.10700
C 	C 	0.19220 0.98360 0.97750 -0.02100
H 	H 	0.15340 0.97200 0.99840 0.04600
C 	C 	0.16070 0.01310 0.94430 -0.08000
H 	H 	0.10070 0.02110 0.94290 0.06600
C 	C 	0.30840 0.01850 0.91520 -0.05200
H 	H 	0.34730 0.03010 0.89440 0.05000
O 	O 	0.60400 0.56590 0.87120 -0.43100
O 	O 	0.73950 0.58930 0.85760 -0.43600
O 	O 	0.76110 0.41230 0.03510 -0.44400
O 	O 	0.89750 0.43500 0.02210 -0.49100
C 	C 	0.68680 0.56320 0.87810 0.27800
C 	C 	0.81530 0.43870 0.01420 0.33600
C 	C 	0.78190 0.47160 0.97960 -0.14700
C 	C 	0.71880 0.53050 0.91320 -0.00600
N 	N 	0.92600 0.51720 0.97670 -0.26600
H 	H 	0.95780 0.54020 0.96550 0.14400
H 	H 	0.94710 0.49890 0.99670 0.14300
C 	C 	0.66140 0.49390 0.93190 0.00100
H 	H 	0.60320 0.48970 0.92260 0.03500
C 	C 	0.69670 0.46550 0.96400 0.03600
H 	H 	0.66150 0.44070 0.97590 0.02600
C 	C 	0.83630 0.50930 0.96180 0.08600
C 	C 	0.80260 0.53840 0.92980 -0.09500
H 	H 	0.83690 0.56420 0.91900 0.08600
N 	N 	0.92800 0.47900 0.94800 -0.28500
H 	H 	0.95010 0.46080 0.96810 0.16000
H 	H 	0.96080 0.49050 0.92830 0.14900
C 	C 	0.84000 0.48900 0.94850 0.10900
C 	C 	0.69220 0.48360 0.97750 -0.02100
H 	H 	0.65340 0.47200 0.99840 0.04600
C 	C 	0.66070 0.51310 0.94430 -0.07900
H 	H 	0.60070 0.52110 0.94290 0.06600
C 	C 	0.80840 0.51850 0.91520 -0.04900
H 	H 	0.84730 0.53010 0.89440 0.04900
O 	O 	0.60400 0.06590 0.37120 -0.43100
O 	O 	0.73950 0.08930 0.35760 -0.43600
O 	O 	0.76110 0.91230 0.53510 -0.44400
O 	O 	0.89750 0.93500 0.52210 -0.49100
C 	C 	0.68680 0.06320 0.37810 0.27800
C 	C 	0.81530 0.93870 0.51420 0.33600
C 	C 	0.78190 0.97160 0.47960 -0.14700
C 	C 	0.71880 0.03050 0.41320 -0.00600
N 	N 	0.92600 0.01720 0.47670 -0.26600
H 	H 	0.95780 0.04020 0.46550 0.14400
H 	H 	0.94710 0.99890 0.49670 0.14300
C 	C 	0.66140 0.99390 0.43190 0.00100
H 	H 	0.60320 0.98970 0.42260 0.03600
C 	C 	0.69670 0.96550 0.46400 0.03600
H 	H 	0.66150 0.94070 0.47590 0.02600
C 	C 	0.83630 0.00930 0.46180 0.08500
C 	C 	0.80260 0.03840 0.42980 -0.09600
H 	H 	0.83690 0.06420 0.41900 0.08700
N 	N 	0.92800 0.97900 0.44800 -0.28500
H 	H 	0.95010 0.96080 0.46810 0.16000
H 	H 	0.96080 0.99050 0.42830 0.14900
C 	C 	0.84000 0.98900 0.44850 0.11000
C 	C 	0.69220 0.98360 0.47750 -0.02100
H 	H 	0.65340 0.97200 0.49840 0.04600
C 	C 	0.66070 0.01310 0.44430 -0.07800
H 	H 	0.60070 0.02110 0.44290 0.06600
C 	C 	0.80840 0.01850 0.41520 -0.04800
H 	H 	0.84730 0.03010 0.39440 0.04900
O 	O 	0.14600 0.68410 0.37120 -0.43100
O 	O 	0.01050 0.66070 0.35760 -0.43700
O 	O 	0.98890 0.83770 0.53510 -0.44400
O 	O 	0.85250 0.81500 0.52210 -0.49100
C 	C 	0.06320 0.68680 0.37810 0.27800
C 	C 	0.93470 0.81130 0.51420 0.33600
C 	C 	0.96810 0.77840 0.47960 -0.14700
C 	C 	0.03120 0.71950 0.41320 -0.00600
N 	N 	0.82400 0.73280 0.47670 -0.26600
H 	H 	0.79220 0.70980 0.46550 0.14400
H 	H 	0.80290 0.75110 0.49670 0.14300
C 	C 	0.08860 0.75610 0.43190 0.00100
H 	H 	0.14680 0.76030 0.42260 0.03500
C 	C 	0.05330 0.78450 0.46400 0.03600
H 	H 	0.08850 0.80930 0.47590 0.02600
C 	C 	0.91370 0.74070 0.46180 0.08600
C 	C 	0.94740 0.71160 0.42980 -0.09500
H 	H 	0.91310 0.68580 0.41900 0.08600
N 	N 	0.82200 0.77100 0.44800 -0.28500
H 	H 	0.79990 0.78920 0.46810 0.16000
H 	H 	0.78920 0.75950 0.42830 0.14900
C 	C 	0.91000 0.76100 0.44850 0.10900
C 	C 	0.05780 0.76640 0.47750 -0.02100
H 	H 	0.09660 0.77800 0.49840 0.04600
C 	C 	0.08930 0.73690 0.44430 -0.07900
H 	H 	0.14930 0.72890 0.44290 0.06600
C 	C 	0.94160 0.73150 0.41520 -0.04900
H 	H 	0.90270 0.71990 0.39440 0.04900
O 	O 	0.14600 0.18410 0.87120 -0.43100
O 	O 	0.01050 0.16070 0.85760 -0.43600
O 	O 	0.98890 0.33770 0.03510 -0.44400
O 	O 	0.85250 0.31500 0.02210 -0.49100
C 	C 	0.06320 0.18680 0.87810 0.27700
C 	C 	0.93470 0.31130 0.01420 0.33600
C 	C 	0.96810 0.27840 0.97960 -0.14700
C 	C 	0.03120 0.21950 0.91320 -0.00600
N 	N 	0.82400 0.23280 0.97670 -0.26600
H 	H 	0.79220 0.20980 0.96550 0.14400
H 	H 	0.80290 0.25110 0.99670 0.14300
C 	C 	0.08860 0.25610 0.93190 0.00100
H 	H 	0.14680 0.26030 0.92260 0.03500
C 	C 	0.05330 0.28450 0.96400 0.03600
H 	H 	0.08850 0.30930 0.97590 0.02600
C 	C 	0.91370 0.24070 0.96180 0.08600
C 	C 	0.94740 0.21160 0.92980 -0.09500
H 	H 	0.91310 0.18580 0.91900 0.08600
N 	N 	0.82200 0.27100 0.94800 -0.28500
H 	H 	0.79990 0.28920 0.96810 0.16000
H 	H 	0.78920 0.25950 0.92830 0.14900
C 	C 	0.91000 0.26100 0.94850 0.10900
C 	C 	0.05780 0.26640 0.97750 -0.02100
H 	H 	0.09660 0.27800 0.99840 0.04600
C 	C 	0.08930 0.23690 0.94430 -0.07900
H 	H 	0.14930 0.22890 0.94290 0.06600
C 	C 	0.94160 0.23150 0.91520 -0.04900
H 	H 	0.90270 0.21990 0.89440 0.04900
O 	O 	0.64600 0.68410 0.87120 -0.43100
O 	O 	0.51050 0.66070 0.85760 -0.43600
O 	O 	0.48890 0.83770 0.03510 -0.44400
O 	O 	0.35250 0.81500 0.02210 -0.49100
C 	C 	0.56320 0.68680 0.87810 0.27800
C 	C 	0.43470 0.81130 0.01420 0.33600
C 	C 	0.46810 0.77840 0.97960 -0.14700
C 	C 	0.53120 0.71950 0.91320 -0.00600
N 	N 	0.32400 0.73280 0.97670 -0.26600
H 	H 	0.29220 0.70980 0.96550 0.14400
H 	H 	0.30290 0.75110 0.99670 0.14300
C 	C 	0.58860 0.75610 0.93190 0.00100
H 	H 	0.64680 0.76030 0.92260 0.03500
C 	C 	0.55330 0.78450 0.96400 0.03600
H 	H 	0.58850 0.80930 0.97590 0.02600
C 	C 	0.41370 0.74070 0.96180 0.08600
C 	C 	0.44740 0.71160 0.92980 -0.09500
H 	H 	0.41310 0.68580 0.91900 0.08600
N 	N 	0.32200 0.77100 0.94800 -0.28500
H 	H 	0.29990 0.78920 0.96810 0.16000
H 	H 	0.28920 0.75950 0.92830 0.14900
C 	C 	0.41000 0.76100 0.94850 0.10900
C 	C 	0.55780 0.76640 0.97750 -0.02100
H 	H 	0.59660 0.77800 0.99840 0.04600
C 	C 	0.58930 0.73690 0.94430 -0.07900
H 	H 	0.64930 0.72890 0.94290 0.06600
C 	C 	0.44160 0.73150 0.91520 -0.04900
H 	H 	0.40270 0.71990 0.89440 0.04900
O 	O 	0.64600 0.18410 0.37120 -0.43100
O 	O 	0.51050 0.16070 0.35760 -0.43600
O 	O 	0.48890 0.33770 0.53510 -0.44400
O 	O 	0.35250 0.31500 0.52210 -0.49100
C 	C 	0.56320 0.18680 0.37810 0.27800
C 	C 	0.43470 0.31130 0.51420 0.33600
C 	C 	0.46810 0.27840 0.47960 -0.14700
C 	C 	0.53120 0.21950 0.41320 -0.00600
N 	N 	0.32400 0.23280 0.47670 -0.26600
H 	H 	0.29220 0.20980 0.46550 0.14400
H 	H 	0.30290 0.25110 0.49670 0.14300
C 	C 	0.58860 0.25610 0.43190 0.00100
H 	H 	0.64680 0.26030 0.42260 0.03500
C 	C 	0.55330 0.28450 0.46400 0.03600
H 	H 	0.58850 0.30930 0.47590 0.02600
C 	C 	0.41370 0.24070 0.46180 0.08600
C 	C 	0.44740 0.21160 0.42980 -0.09500
H 	H 	0.41310 0.18580 0.41900 0.08600
N 	N 	0.32200 0.27100 0.44800 -0.28500
H 	H 	0.29990 0.28920 0.46810 0.16000
H 	H 	0.28920 0.25950 0.42830 0.14900
C 	C 	0.41000 0.26100 0.44850 0.10900
C 	C 	0.55780 0.26640 0.47750 -0.02100
H 	H 	0.59660 0.27800 0.49840 0.04600
C 	C 	0.58930 0.23690 0.44430 -0.07900
H 	H 	0.64930 0.22890 0.44290 0.06600
C 	C 	0.44160 0.23150 0.41520 -0.04900
H 	H 	0.40270 0.21990 0.39440 0.04900
In	In	0.87500 0.37500 0.07050 1.99900
In	In	0.87500 0.87500 0.57050 1.99900
In	In	0.37500 0.37500 0.57050 1.99900
In	In	0.37500 0.87500 0.07050 1.99900
In	In	0.12500 0.62500 0.32050 1.99900
In	In	0.12500 0.12500 0.82050 1.99900
In	In	0.62500 0.62500 0.82050 1.99900
In	In	0.62500 0.12500 0.32050 1.99900
O 	O 	0.89600 0.43410 0.62880 -0.43100
O 	O 	0.76050 0.41070 0.64240 -0.43600
O 	O 	0.73890 0.58770 0.46490 -0.44400
O 	O 	0.60250 0.56500 0.47790 -0.49100
C 	C 	0.81320 0.43680 0.62190 0.27800
C 	C 	0.68470 0.56130 0.48580 0.33600
C 	C 	0.71810 0.52840 0.52040 -0.14700
C 	C 	0.78120 0.46950 0.58680 -0.00600
N 	N 	0.57400 0.48280 0.52330 -0.26600
H 	H 	0.54220 0.45980 0.53450 0.14400
H 	H 	0.55290 0.50110 0.50330 0.14300
C 	C 	0.83860 0.50610 0.56810 0.00100
H 	H 	0.89680 0.51030 0.57740 0.03500
C 	C 	0.80330 0.53450 0.53600 0.03600
H 	H 	0.83850 0.55930 0.52410 0.02600
C 	C 	0.66370 0.49070 0.53820 0.08600
C 	C 	0.69740 0.46160 0.57020 -0.09500
H 	H 	0.66310 0.43580 0.58100 0.08600
N 	N 	0.57200 0.52100 0.55200 -0.28500
H 	H 	0.54990 0.53920 0.53190 0.16000
H 	H 	0.53920 0.50950 0.57170 0.14900
C 	C 	0.66000 0.51100 0.55150 0.10900
C 	C 	0.80780 0.51640 0.52250 -0.02100
H 	H 	0.84660 0.52800 0.50160 0.04600
C 	C 	0.83930 0.48690 0.55570 -0.07900
H 	H 	0.89930 0.47890 0.55710 0.06600
C 	C 	0.69160 0.48150 0.58480 -0.04900
H 	H 	0.65270 0.46990 0.60560 0.04900
O 	O 	0.89600 0.93410 0.12880 -0.43100
O 	O 	0.76050 0.91070 0.14240 -0.43600
O 	O 	0.73890 0.08770 0.96490 -0.44400
O 	O 	0.60250 0.06500 0.97790 -0.49100
C 	C 	0.81320 0.93680 0.12190 0.27700
C 	C 	0.68470 0.06130 0.98580 0.33700
C 	C 	0.71810 0.02840 0.02040 -0.14700
C 	C 	0.78120 0.96950 0.08680 -0.00600
N 	N 	0.57400 0.98280 0.02330 -0.26600
H 	H 	0.54220 0.95980 0.03450 0.14400
H 	H 	0.55290 0.00110 0.00330 0.14300
C 	C 	0.83860 0.00610 0.06810 0.00200
H 	H 	0.89680 0.01030 0.07740 0.03500
C 	C 	0.80330 0.03450 0.03600 0.03600
H 	H 	0.83850 0.05930 0.02410 0.02600
C 	C 	0.66370 0.99070 0.03820 0.08800
C 	C 	0.69740 0.96160 0.07020 -0.09200
H 	H 	0.66310 0.93580 0.08100 0.08500
N 	N 	0.57200 0.02100 0.05200 -0.28500
H 	H 	0.54990 0.03920 0.03190 0.16000
H 	H 	0.53920 0.00950 0.07170 0.14900
C 	C 	0.66000 0.01100 0.05150 0.10700
C 	C 	0.80780 0.01640 0.02250 -0.02100
H 	H 	0.84660 0.02800 0.00160 0.04600
C 	C 	0.83930 0.98690 0.05570 -0.08000
H 	H 	0.89930 0.97890 0.05710 0.06600
C 	C 	0.69160 0.98150 0.08480 -0.05200
H 	H 	0.65270 0.96990 0.10560 0.05000
O 	O 	0.39600 0.43410 0.12880 -0.43100
O 	O 	0.26050 0.41070 0.14240 -0.43600
O 	O 	0.23890 0.58770 0.96490 -0.44400
O 	O 	0.10250 0.56500 0.97790 -0.49100
C 	C 	0.31320 0.43680 0.12190 0.27800
C 	C 	0.18470 0.56130 0.98580 0.33600
C 	C 	0.21810 0.52840 0.02040 -0.14700
C 	C 	0.28120 0.46950 0.08680 -0.00600
N 	N 	0.07400 0.48280 0.02330 -0.26600
H 	H 	0.04220 0.45980 0.03450 0.14400
H 	H 	0.05290 0.50110 0.00330 0.14300
C 	C 	0.33860 0.50610 0.06810 0.00100
H 	H 	0.39680 0.51030 0.07740 0.03500
C 	C 	0.30330 0.53450 0.03600 0.03600
H 	H 	0.33850 0.55930 0.02410 0.02600
C 	C 	0.16370 0.49070 0.03820 0.08600
C 	C 	0.19740 0.46160 0.07020 -0.09500
H 	H 	0.16310 0.43580 0.08100 0.08600
N 	N 	0.07200 0.52100 0.05200 -0.28500
H 	H 	0.04990 0.53920 0.03190 0.16000
H 	H 	0.03920 0.50950 0.07170 0.14900
C 	C 	0.16000 0.51100 0.05150 0.10900
C 	C 	0.30780 0.51640 0.02250 -0.02100
H 	H 	0.34660 0.52800 0.00160 0.04600
C 	C 	0.33930 0.48690 0.05570 -0.07900
H 	H 	0.39930 0.47890 0.05710 0.06600
C 	C 	0.19160 0.48150 0.08480 -0.04900
H 	H 	0.15270 0.46990 0.10560 0.04900
O 	O 	0.39600 0.93410 0.62880 -0.43100
O 	O 	0.26050 0.91070 0.64240 -0.43600
O 	O 	0.23890 0.08770 0.46490 -0.44400
O 	O 	0.10250 0.06500 0.47790 -0.49100
C 	C 	0.31320 0.93680 0.62190 0.27800
C 	C 	0.18470 0.06130 0.48580 0.33600
C 	C 	0.21810 0.02840 0.52040 -0.14700
C 	C 	0.28120 0.96950 0.58680 -0.00600
N 	N 	0.07400 0.98280 0.52330 -0.26600
H 	H 	0.04220 0.95980 0.53450 0.14400
H 	H 	0.05290 0.00110 0.50330 0.14300
C 	C 	0.33860 0.00610 0.56810 0.00100
H 	H 	0.39680 0.01030 0.57740 0.03600
C 	C 	0.30330 0.03450 0.53600 0.03600
H 	H 	0.33850 0.05930 0.52410 0.02600
C 	C 	0.16370 0.99070 0.53820 0.08500
C 	C 	0.19740 0.96160 0.57020 -0.09600
H 	H 	0.16310 0.93580 0.58100 0.08700
N 	N 	0.07200 0.02100 0.55200 -0.28500
H 	H 	0.04990 0.03920 0.53190 0.16000
H 	H 	0.03920 0.00950 0.57170 0.14900
C 	C 	0.16000 0.01100 0.55150 0.11000
C 	C 	0.30780 0.01640 0.52250 -0.02100
H 	H 	0.34660 0.02800 0.50160 0.04600
C 	C 	0.33930 0.98690 0.55570 -0.07800
H 	H 	0.39930 0.97890 0.55710 0.06600
C 	C 	0.19160 0.98150 0.58480 -0.04800
H 	H 	0.15270 0.96990 0.60560 0.04900
O 	O 	0.85400 0.31590 0.62880 -0.43100
O 	O 	0.98950 0.33930 0.64240 -0.43700
O 	O 	0.01110 0.16230 0.46490 -0.44400
O 	O 	0.14750 0.18500 0.47790 -0.49100
C 	C 	0.93680 0.31320 0.62190 0.27800
C 	C 	0.06530 0.18870 0.48580 0.33600
C 	C 	0.03190 0.22160 0.52040 -0.14700
C 	C 	0.96880 0.28050 0.58680 -0.00600
N 	N 	0.17600 0.26720 0.52330 -0.26600
H 	H 	0.20780 0.29020 0.53450 0.14400
H 	H 	0.19710 0.24890 0.50330 0.14300
C 	C 	0.91140 0.24390 0.56810 0.00100
H 	H 	0.85320 0.23970 0.57740 0.03500
C 	C 	0.94670 0.21550 0.53600 0.03600
H 	H 	0.91150 0.19070 0.52410 0.02600
C 	C 	0.08630 0.25930 0.53820 0.08600
C 	C 	0.05260 0.28840 0.57020 -0.09500
H 	H 	0.08690 0.31420 0.58100 0.08600
N 	N 	0.17800 0.22900 0.55200 -0.28500
H 	H 	0.20010 0.21080 0.53190 0.16000
H 	H 	0.21080 0.24050 0.57170 0.14900
C 	C 	0.09000 0.23900 0.55150 0.10900
C 	C 	0.94220 0.23360 0.52250 -0.02100
H 	H 	0.90340 0.22200 0.50160 0.04600
C 	C 	0.91070 0.26310 0.55570 -0.07900
H 	H 	0.85070 0.27110 0.55710 0.06600
C 	C 	0.05840 0.26850 0.58480 -0.04900
H 	H 	0.09730 0.28010 0.60560 0.04900
O 	O 	0.85400 0.81590 0.12880 -0.43100
O 	O 	0.98950 0.83930 0.14240 -0.43600
O 	O 	0.01110 0.66230 0.96490 -0.44400
O 	O 	0.14750 0.68500 0.97790 -0.49100
C 	C 	0.93680 0.81320 0.12190 0.27700
C 	C 	0.06530 0.68870 0.98580 0.33600
C 	C 	0.03190 0.72160 0.02040 -0.14700
C 	C 	0.96880 0.78050 0.08680 -0.00600
N 	N 	0.17600 0.76720 0.02330 -0.26600
H 	H 	0.20780 0.79020 0.03450 0.14400
H 	H 	0.19710 0.74890 0.00330 0.14300
C 	C 	0.91140 0.74390 0.06810 0.00100
H 	H 	0.85320 0.73970 0.07740 0.03500
C 	C 	0.94670 0.71550 0.03600 0.03600
H 	H 	0.91150 0.69070 0.02410 0.02600
C 	C 	0.08630 0.75930 0.03820 0.08600
C 	C 	0.05260 0.78840 0.07020 -0.09500
H 	H 	0.08690 0.81420 0.08100 0.08600
N 	N 	0.17800 0.72900 0.05200 -0.28500
H 	H 	0.20010 0.71080 0.03190 0.16000
H 	H 	0.21080 0.74050 0.07170 0.14900
C 	C 	0.09000 0.73900 0.05150 0.10900
C 	C 	0.94220 0.73360 0.02250 -0.02100
H 	H 	0.90340 0.72200 0.00160 0.04600
C 	C 	0.91070 0.76310 0.05570 -0.07900
H 	H 	0.85070 0.77110 0.05710 0.06600
C 	C 	0.05840 0.76850 0.08480 -0.04900
H 	H 	0.09730 0.78010 0.10560 0.04900
O 	O 	0.35400 0.31590 0.12880 -0.43100
O 	O 	0.48950 0.33930 0.14240 -0.43600
O 	O 	0.51110 0.16230 0.96490 -0.44400
O 	O 	0.64750 0.18500 0.97790 -0.49100
C 	C 	0.43680 0.31320 0.12190 0.27800
C 	C 	0.56530 0.18870 0.98580 0.33600
C 	C 	0.53190 0.22160 0.02040 -0.14700
C 	C 	0.46880 0.28050 0.08680 -0.00600
N 	N 	0.67600 0.26720 0.02330 -0.26600
H 	H 	0.70780 0.29020 0.03450 0.14400
H 	H 	0.69710 0.24890 0.00330 0.14300
C 	C 	0.41140 0.24390 0.06810 0.00100
H 	H 	0.35320 0.23970 0.07740 0.03500
C 	C 	0.44670 0.21550 0.03600 0.03600
H 	H 	0.41150 0.19070 0.02410 0.02600
C 	C 	0.58630 0.25930 0.03820 0.08600
C 	C 	0.55260 0.28840 0.07020 -0.09500
H 	H 	0.58690 0.31420 0.08100 0.08600
N 	N 	0.67800 0.22900 0.05200 -0.28500
H 	H 	0.70010 0.21080 0.03190 0.16000
H 	H 	0.71080 0.24050 0.07170 0.14900
C 	C 	0.59000 0.23900 0.05150 0.10900
C 	C 	0.44220 0.23360 0.02250 -0.02100
H 	H 	0.40340 0.22200 0.00160 0.04600
C 	C 	0.41070 0.26310 0.05570 -0.07900
H 	H 	0.35070 0.27110 0.05710 0.06600
C 	C 	0.55840 0.26850 0.08480 -0.04900
H 	H 	0.59730 0.28010 0.10560 0.04900
O 	O 	0.35400 0.81590 0.62880 -0.43100
O 	O 	0.48950 0.83930 0.64240 -0.43600
O 	O 	0.51110 0.66230 0.46490 -0.44400
O 	O 	0.64750 0.68500 0.47790 -0.49100
C 	C 	0.43680 0.81320 0.62190 0.27800
C 	C 	0.56530 0.68870 0.48580 0.33600
C 	C 	0.53190 0.72160 0.52040 -0.14700
C 	C 	0.46880 0.78050 0.58680 -0.00600
N 	N 	0.67600 0.76720 0.52330 -0.26600
H 	H 	0.70780 0.79020 0.53450 0.14400
H 	H 	0.69710 0.74890 0.50330 0.14300
C 	C 	0.41140 0.74390 0.56810 0.00100
H 	H 	0.35320 0.73970 0.57740 0.03500
C 	C 	0.44670 0.71550 0.53600 0.03600
H 	H 	0.41150 0.69070 0.52410 0.02600
C 	C 	0.58630 0.75930 0.53820 0.08600
C 	C 	0.55260 0.78840 0.57020 -0.09500
H 	H 	0.58690 0.81420 0.58100 0.08600
N 	N 	0.67800 0.72900 0.55200 -0.28500
H 	H 	0.70010 0.71080 0.53190 0.16000
H 	H 	0.71080 0.74050 0.57170 0.14900
C 	C 	0.59000 0.73900 0.55150 0.10900
C 	C 	0.44220 0.73360 0.52250 -0.02100
H 	H 	0.40340 0.72200 0.50160 0.04600
C 	C 	0.41070 0.76310 0.55570 -0.07900
H 	H 	0.35070 0.77110 0.55710 0.06600
C 	C 	0.55840 0.76850 0.58480 -0.04900
H 	H 	0.59730 0.78010 0.60560 0.04900
O 	O 	0.14600 0.56590 0.87880 -0.43100
O 	O 	0.01050 0.58930 0.89240 -0.43600
O 	O 	0.98890 0.41230 0.71490 -0.44400
O 	O 	0.85250 0.43500 0.72790 -0.49100
C 	C 	0.06320 0.56320 0.87190 0.27800
C 	C 	0.93470 0.43870 0.73580 0.33600
C 	C 	0.96810 0.47160 0.77040 -0.14700
C 	C 	0.03120 0.53050 0.83680 -0.00600
N 	N 	0.82400 0.51720 0.77330 -0.26600
H 	H 	0.79220 0.54020 0.78450 0.14400
H 	H 	0.80290 0.49890 0.75330 0.14300
C 	C 	0.08860 0.49390 0.81810 0.00100
H 	H 	0.14680 0.48970 0.82740 0.03500
C 	C 	0.05330 0.46550 0.78600 0.03600
H 	H 	0.08850 0.44070 0.77410 0.02600
C 	C 	0.91370 0.50930 0.78820 0.08600
C 	C 	0.94740 0.53840 0.82020 -0.09500
H 	H 	0.91310 0.56420 0.83100 0.08600
N 	N 	0.82200 0.47900 0.80200 -0.28500
H 	H 	0.79990 0.46080 0.78190 0.16000
H 	H 	0.78920 0.49050 0.82170 0.14900
C 	C 	0.91000 0.48900 0.80150 0.10900
C 	C 	0.05780 0.48360 0.77250 -0.02100
H 	H 	0.09660 0.47200 0.75160 0.04600
C 	C 	0.08930 0.51310 0.80570 -0.07900
H 	H 	0.14930 0.52110 0.80710 0.06600
C 	C 	0.94160 0.51850 0.83480 -0.04900
H 	H 	0.90270 0.53010 0.85560 0.04900
O 	O 	0.14600 0.06590 0.37880 -0.43100
O 	O 	0.01050 0.08930 0.39240 -0.43600
O 	O 	0.98890 0.91230 0.21490 -0.44400
O 	O 	0.85250 0.93500 0.22790 -0.49100
C 	C 	0.06320 0.06320 0.37190 0.27700
C 	C 	0.93470 0.93870 0.23580 0.33600
C 	C 	0.96810 0.97160 0.27040 -0.14700
C 	C 	0.03120 0.03050 0.33680 -0.00600
N 	N 	0.82400 0.01720 0.27330 -0.26600
H 	H 	0.79220 0.04020 0.28450 0.14400
H 	H 	0.80290 0.99890 0.25330 0.14300
C 	C 	0.08860 0.99390 0.31810 0.00200
H 	H 	0.14680 0.98970 0.32740 0.03500
C 	C 	0.05330 0.96550 0.28600 0.03700
H 	H 	0.08850 0.94070 0.27410 0.02600
C 	C 	0.91370 0.00930 0.28820 0.08500
C 	C 	0.94740 0.03840 0.32020 -0.09600
H 	H 	0.91310 0.06420 0.33100 0.08700
N 	N 	0.82200 0.97900 0.30200 -0.28500
H 	H 	0.79990 0.96080 0.28190 0.16000
H 	H 	0.78920 0.99050 0.32170 0.14900
C 	C 	0.91000 0.98900 0.30150 0.11000
C 	C 	0.05780 0.98360 0.27250 -0.02200
H 	H 	0.09660 0.97200 0.25160 0.04600
C 	C 	0.08930 0.01310 0.30570 -0.08000
H 	H 	0.14930 0.02110 0.30710 0.06600
C 	C 	0.94160 0.01850 0.33480 -0.04800
H 	H 	0.90270 0.03010 0.35560 0.04900
O 	O 	0.64600 0.56590 0.37880 -0.43100
O 	O 	0.51050 0.58930 0.39240 -0.43600
O 	O 	0.48890 0.41230 0.21490 -0.44400
O 	O 	0.35250 0.43500 0.22790 -0.49100
C 	C 	0.56320 0.56320 0.37190 0.27800
C 	C 	0.43470 0.43870 0.23580 0.33600
C 	C 	0.46810 0.47160 0.27040 -0.14700
C 	C 	0.53120 0.53050 0.33680 -0.00600
N 	N 	0.32400 0.51720 0.27330 -0.26600
H 	H 	0.29220 0.54020 0.28450 0.14400
H 	H 	0.30290 0.49890 0.25330 0.14300
C 	C 	0.58860 0.49390 0.31810 0.00100
H 	H 	0.64680 0.48970 0.32740 0.03500
C 	C 	0.55330 0.46550 0.28600 0.03600
H 	H 	0.58850 0.44070 0.27410 0.02600
C 	C 	0.41370 0.50930 0.28820 0.08600
C 	C 	0.44740 0.53840 0.32020 -0.09500
H 	H 	0.41310 0.56420 0.33100 0.08600
N 	N 	0.32200 0.47900 0.30200 -0.28500
H 	H 	0.29990 0.46080 0.28190 0.16000
H 	H 	0.28920 0.49050 0.32170 0.14900
C 	C 	0.41000 0.48900 0.30150 0.10900
C 	C 	0.55780 0.48360 0.27250 -0.02100
H 	H 	0.59660 0.47200 0.25160 0.04600
C 	C 	0.58930 0.51310 0.30570 -0.07900
H 	H 	0.64930 0.52110 0.30710 0.06600
C 	C 	0.44160 0.51850 0.33480 -0.04900
H 	H 	0.40270 0.53010 0.35560 0.04900
O 	O 	0.64600 0.06590 0.87880 -0.43100
O 	O 	0.51050 0.08930 0.89240 -0.43600
O 	O 	0.48890 0.91230 0.71490 -0.44400
O 	O 	0.35250 0.93500 0.72790 -0.49100
C 	C 	0.56320 0.06320 0.87190 0.27800
C 	C 	0.43470 0.93870 0.73580 0.33600
C 	C 	0.46810 0.97160 0.77040 -0.14700
C 	C 	0.53120 0.03050 0.83680 -0.00600
N 	N 	0.32400 0.01720 0.77330 -0.26600
H 	H 	0.29220 0.04020 0.78450 0.14400
H 	H 	0.30290 0.99890 0.75330 0.14300
C 	C 	0.58860 0.99390 0.81810 0.00200
H 	H 	0.64680 0.98970 0.82740 0.03500
C 	C 	0.55330 0.96550 0.78600 0.03600
H 	H 	0.58850 0.94070 0.77410 0.02600
C 	C 	0.41370 0.00930 0.78820 0.08700
C 	C 	0.44740 0.03840 0.82020 -0.09300
H 	H 	0.41310 0.06420 0.83100 0.08600
N 	N 	0.32200 0.97900 0.80200 -0.28500
H 	H 	0.29990 0.96080 0.78190 0.16000
H 	H 	0.28920 0.99050 0.82170 0.14900
C 	C 	0.41000 0.98900 0.80150 0.10800
C 	C 	0.55780 0.98360 0.77250 -0.02100
H 	H 	0.59660 0.97200 0.75160 0.04600
C 	C 	0.58930 0.01310 0.80570 -0.07900
H 	H 	0.64930 0.02110 0.80710 0.06600
C 	C 	0.44160 0.01850 0.83480 -0.05100
H 	H 	0.40270 0.03010 0.85560 0.05000
O 	O 	0.10400 0.68410 0.87880 -0.43100
O 	O 	0.23950 0.66070 0.89240 -0.43600
O 	O 	0.26110 0.83770 0.71490 -0.44400
O 	O 	0.39750 0.81500 0.72790 -0.49100
C 	C 	0.18680 0.68680 0.87190 0.27800
C 	C 	0.31530 0.81130 0.73580 0.33600
C 	C 	0.28190 0.77840 0.77040 -0.14700
C 	C 	0.21880 0.71950 0.83680 -0.00600
N 	N 	0.42600 0.73280 0.77330 -0.26600
H 	H 	0.45780 0.70980 0.78450 0.14400
H 	H 	0.44710 0.75110 0.75330 0.14300
C 	C 	0.16140 0.75610 0.81810 0.00100
H 	H 	0.10320 0.76030 0.82740 0.03500
C 	C 	0.19670 0.78450 0.78600 0.03600
H 	H 	0.16150 0.80930 0.77410 0.02600
C 	C 	0.33630 0.74070 0.78820 0.08600
C 	C 	0.30260 0.71160 0.82020 -0.09500
H 	H 	0.33690 0.68580 0.83100 0.08600
N 	N 	0.42800 0.77100 0.80200 -0.28500
H 	H 	0.45010 0.78920 0.78190 0.16000
H 	H 	0.46080 0.75950 0.82170 0.14900
C 	C 	0.34000 0.76100 0.80150 0.10900
C 	C 	0.19220 0.76640 0.77250 -0.02100
H 	H 	0.15340 0.77800 0.75160 0.04600
C 	C 	0.16070 0.73690 0.80570 -0.07900
H 	H 	0.10070 0.72890 0.80710 0.06600
C 	C 	0.30840 0.73150 0.83480 -0.04900
H 	H 	0.34730 0.71990 0.85560 0.04900
O 	O 	0.10400 0.18410 0.37880 -0.43100
O 	O 	0.23950 0.16070 0.39240 -0.43600
O 	O 	0.26110 0.33770 0.21490 -0.44400
O 	O 	0.39750 0.31500 0.22790 -0.49100
C 	C 	0.18680 0.18680 0.37190 0.27800
C 	C 	0.31530 0.31130 0.23580 0.33600
C 	C 	0.28190 0.27840 0.27040 -0.14700
C 	C 	0.21880 0.21950 0.33680 -0.00600
N 	N 	0.42600 0.23280 0.27330 -0.26600
H 	H 	0.45780 0.20980 0.28450 0.14400
H 	H 	0.44710 0.25110 0.25330 0.14300
C 	C 	0.16140 0.25610 0.31810 0.00100
H 	H 	0.10320 0.26030 0.32740 0.03500
C 	C 	0.19670 0.28450 0.28600 0.03600
H 	H 	0.16150 0.30930 0.27410 0.02600
C 	C 	0.33630 0.24070 0.28820 0.08600
C 	C 	0.30260 0.21160 0.32020 -0.09500
H 	H 	0.33690 0.18580 0.33100 0.08600
N 	N 	0.42800 0.27100 0.30200 -0.28500
H 	H 	0.45010 0.28920 0.28190 0.16000
H 	H 	0.46080 0.25950 0.32170 0.14900
C 	C 	0.34000 0.26100 0.30150 0.10900
C 	C 	0.19220 0.26640 0.27250 -0.02100
H 	H 	0.15340 0.27800 0.25160 0.04600
C 	C 	0.16070 0.23690 0.30570 -0.07900
H 	H 	0.10070 0.22890 0.30710 0.06600
C 	C 	0.30840 0.23150 0.33480 -0.04900
H 	H 	0.34730 0.21990 0.35560 0.04900
O 	O 	0.60400 0.68410 0.37880 -0.43100
O 	O 	0.73950 0.66070 0.39240 -0.43600
O 	O 	0.76110 0.83770 0.21490 -0.44400
O 	O 	0.89750 0.81500 0.22790 -0.49100
C 	C 	0.68680 0.68680 0.37190 0.27800
C 	C 	0.81530 0.81130 0.23580 0.33600
C 	C 	0.78190 0.77840 0.27040 -0.14700
C 	C 	0.71880 0.71950 0.33680 -0.00600
N 	N 	0.92600 0.73280 0.27330 -0.26600
H 	H 	0.95780 0.70980 0.28450 0.14400
H 	H 	0.94710 0.75110 0.25330 0.14300
C 	C 	0.66140 0.75610 0.31810 0.00100
H 	H 	0.60320 0.76030 0.32740 0.03500
C 	C 	0.69670 0.78450 0.28600 0.03600
H 	H 	0.66150 0.80930 0.27410 0.02600
C 	C 	0.83630 0.74070 0.28820 0.08600
C 	C 	0.80260 0.71160 0.32020 -0.09500
H 	H 	0.83690 0.68580 0.33100 0.08600
N 	N 	0.92800 0.77100 0.30200 -0.28500
H 	H 	0.95010 0.78920 0.28190 0.16000
H 	H 	0.96080 0.75950 0.32170 0.14900
C 	C 	0.84000 0.76100 0.30150 0.10900
C 	C 	0.69220 0.76640 0.27250 -0.02100
H 	H 	0.65340 0.77800 0.25160 0.04600
C 	C 	0.66070 0.73690 0.30570 -0.07900
H 	H 	0.60070 0.72890 0.30710 0.06600
C 	C 	0.80840 0.73150 0.33480 -0.04900
H 	H 	0.84730 0.71990 0.35560 0.04900
O 	O 	0.60400 0.18410 0.87880 -0.43100
O 	O 	0.73950 0.16070 0.89240 -0.43600
O 	O 	0.76110 0.33770 0.71490 -0.44400
O 	O 	0.89750 0.31500 0.72790 -0.49100
C 	C 	0.68680 0.18680 0.87190 0.27800
C 	C 	0.81530 0.31130 0.73580 0.33600
C 	C 	0.78190 0.27840 0.77040 -0.14700
C 	C 	0.71880 0.21950 0.83680 -0.00600
N 	N 	0.92600 0.23280 0.77330 -0.26600
H 	H 	0.95780 0.20980 0.78450 0.14400
H 	H 	0.94710 0.25110 0.75330 0.14300
C 	C 	0.66140 0.25610 0.81810 0.00100
H 	H 	0.60320 0.26030 0.82740 0.03500
C 	C 	0.69670 0.28450 0.78600 0.03600
H 	H 	0.66150 0.30930 0.77410 0.02600
C 	C 	0.83630 0.24070 0.78820 0.08600
C 	C 	0.80260 0.21160 0.82020 -0.09500
H 	H 	0.83690 0.18580 0.83100 0.08600
N 	N 	0.92800 0.27100 0.80200 -0.28500
H 	H 	0.95010 0.28920 0.78190 0.16000
H 	H 	0.96080 0.25950 0.82170 0.14900
C 	C 	0.84000 0.26100 0.80150 0.10900
C 	C 	0.69220 0.26640 0.77250 -0.02100
H 	H 	0.65340 0.27800 0.75160 0.04600
C 	C 	0.66070 0.23690 0.80570 -0.07900
H 	H 	0.60070 0.22890 0.80710 0.06600
C 	C 	0.80840 0.23150 0.83480 -0.04900
H 	H 	0.84730 0.21990 0.85560 0.04900
In	In	0.87500 0.37500 0.67950 1.99900
In	In	0.87500 0.87500 0.17950 1.99900
In	In	0.37500 0.37500 0.17950 1.99900
In	In	0.37500 0.87500 0.67950 1.99900
In	In	0.12500 0.62500 0.92950 1.99900
In	In	0.12500 0.12500 0.42950 1.99900
In	In	0.62500 0.62500 0.42950 1.99900
In	In	0.62500 0.12500 0.92950 1.99900
