data_crystal

_cell_length_a 15.04410
_cell_length_b 26.82100
_cell_length_c 31.41160
_cell_angle_alpha 90.00000
_cell_angle_beta  90.00000
_cell_angle_gamma 90.00000

_symmetry_space_group_name_	'P 1'
_symmetry_space_group_name_H-M	'P 1'

loop_
_symmetry_equiv_pos_as_xyz
  x,y,z

loop_
_atom_site_label
_atom_site_type_symbol
_atom_site_fract_x
_atom_site_fract_y
_atom_site_fract_z
_atom_site_charge
O 	O 	0.60470 0.56560 0.37140 -0.43000
O 	O 	0.74000 0.58940 0.35750 -0.43300
O 	O 	0.89600 0.43530 0.52270 -0.49500
O 	O 	0.76030 0.41270 0.53540 -0.44100
C 	C 	0.68620 0.56330 0.37840 0.28400
C 	C 	0.81500 0.43870 0.51430 0.35200
N 	N 	0.92300 0.52120 0.47860 -0.21600
H 	H 	0.94570 0.50360 0.49870 0.11900
H 	H 	0.95250 0.54530 0.46750 0.13000
C 	C 	0.80200 0.53970 0.43060 -0.12500
H 	H 	0.83660 0.56540 0.41960 0.09600
C 	C 	0.83460 0.51020 0.46350 -0.02200
C 	C 	0.78280 0.47190 0.48000 -0.15100
C 	C 	0.69850 0.46290 0.46350 0.03500
H 	H 	0.66390 0.43730 0.47450 0.02200
C 	C 	0.66600 0.49240 0.43060 -0.01700
H 	H 	0.60960 0.48640 0.41960 0.03500
C 	C 	0.71780 0.53070 0.41410 -0.01200
N 	N 	0.93400 0.48770 0.45550 -0.25900
H 	H 	0.95760 0.47150 0.47630 0.14400
H 	H 	0.96790 0.50130 0.43660 0.13400
C 	C 	0.80600 0.52150 0.41770 0.00200
H 	H 	0.84520 0.53440 0.39770 0.03500
C 	C 	0.83900 0.49190 0.45210 0.19700
C 	C 	0.69200 0.47800 0.47250 -0.01800
H 	H 	0.65230 0.46210 0.49070 0.04400
C 	C 	0.65790 0.50610 0.43980 -0.04400
H 	H 	0.59700 0.50830 0.43520 0.05300
O 	O 	0.60470 0.06560 0.87140 -0.43100
O 	O 	0.74000 0.08940 0.85750 -0.43400
O 	O 	0.89600 0.93530 0.02270 -0.49600
O 	O 	0.76030 0.91270 0.03540 -0.44100
C 	C 	0.68620 0.06330 0.87840 0.28300
C 	C 	0.81500 0.93870 0.01430 0.35100
N 	N 	0.92300 0.02120 0.97860 -0.22200
H 	H 	0.94570 0.00360 0.99870 0.11900
H 	H 	0.95250 0.04530 0.96750 0.13000
C 	C 	0.80200 0.03970 0.93060 -0.11000
H 	H 	0.83660 0.06540 0.91960 0.08900
C 	C 	0.83460 0.01020 0.96350 0.00300
C 	C 	0.78280 0.97190 0.98000 -0.15000
C 	C 	0.69850 0.96290 0.96350 0.03100
H 	H 	0.66390 0.93730 0.97450 0.02300
C 	C 	0.66600 0.99240 0.93060 -0.02100
H 	H 	0.60960 0.98640 0.91960 0.03600
C 	C 	0.71780 0.03070 0.91410 -0.01200
N 	N 	0.93400 0.98770 0.95550 -0.25500
H 	H 	0.95760 0.97150 0.97630 0.14200
H 	H 	0.96790 0.00130 0.93660 0.13300
C 	C 	0.80600 0.02150 0.91770 -0.01500
H 	H 	0.84520 0.03440 0.89770 0.04100
C 	C 	0.83900 0.99190 0.95210 0.17100
C 	C 	0.69200 0.97800 0.97250 -0.01500
H 	H 	0.65230 0.96210 0.99070 0.04300
C 	C 	0.65790 0.00610 0.93980 -0.04100
H 	H 	0.59700 0.00830 0.93520 0.05200
O 	O 	0.10470 0.56560 0.87140 -0.43200
O 	O 	0.24000 0.58940 0.85750 -0.43400
O 	O 	0.39600 0.43530 0.02270 -0.49600
O 	O 	0.26030 0.41270 0.03540 -0.44200
C 	C 	0.18620 0.56330 0.87840 0.28300
C 	C 	0.31500 0.43870 0.01430 0.35100
N 	N 	0.42300 0.52120 0.97860 -0.21800
H 	H 	0.44570 0.50360 0.99870 0.11800
H 	H 	0.45250 0.54530 0.96750 0.12900
C 	C 	0.30200 0.53970 0.93060 -0.12500
H 	H 	0.33660 0.56540 0.91960 0.09400
C 	C 	0.33460 0.51020 0.96350 -0.02200
C 	C 	0.28280 0.47190 0.98000 -0.15200
C 	C 	0.19850 0.46290 0.96350 0.03400
H 	H 	0.16390 0.43730 0.97450 0.02100
C 	C 	0.16600 0.49240 0.93060 -0.01800
H 	H 	0.10960 0.48640 0.91960 0.03400
C 	C 	0.21780 0.53070 0.91410 -0.01300
N 	N 	0.43400 0.48770 0.95550 -0.26000
H 	H 	0.45760 0.47150 0.97630 0.14300
H 	H 	0.46790 0.50130 0.93660 0.13400
C 	C 	0.30600 0.52150 0.91770 0.00100
H 	H 	0.34520 0.53440 0.89770 0.03600
C 	C 	0.33900 0.49190 0.95210 0.19600
C 	C 	0.19200 0.47800 0.97250 -0.01700
H 	H 	0.15230 0.46210 0.99070 0.04400
C 	C 	0.15790 0.50610 0.93980 -0.04400
H 	H 	0.09700 0.50830 0.93520 0.05300
O 	O 	0.10470 0.06560 0.37140 -0.43200
O 	O 	0.24000 0.08940 0.35750 -0.43400
O 	O 	0.39600 0.93530 0.52270 -0.49600
O 	O 	0.26030 0.91270 0.53540 -0.44200
C 	C 	0.18620 0.06330 0.37840 0.28300
C 	C 	0.31500 0.93870 0.51430 0.35200
N 	N 	0.42300 0.02120 0.47860 -0.21500
H 	H 	0.44570 0.00360 0.49870 0.11700
H 	H 	0.45250 0.04530 0.46750 0.12800
C 	C 	0.30200 0.03970 0.43060 -0.13400
H 	H 	0.33660 0.06540 0.41960 0.09700
C 	C 	0.33460 0.01020 0.46350 -0.03500
C 	C 	0.28280 0.97190 0.48000 -0.15200
C 	C 	0.19850 0.96290 0.46350 0.03500
H 	H 	0.16390 0.93730 0.47450 0.02100
C 	C 	0.16600 0.99240 0.43060 -0.01500
H 	H 	0.10960 0.98640 0.41960 0.03300
C 	C 	0.21780 0.03070 0.41410 -0.01300
N 	N 	0.43400 0.98770 0.45550 -0.26200
H 	H 	0.45760 0.97150 0.47630 0.14400
H 	H 	0.46790 0.00130 0.43660 0.13400
C 	C 	0.30600 0.02150 0.41770 0.01000
H 	H 	0.34520 0.03440 0.39770 0.03300
C 	C 	0.33900 0.99190 0.45210 0.21000
C 	C 	0.19200 0.97800 0.47250 -0.01900
H 	H 	0.15230 0.96210 0.49070 0.04400
C 	C 	0.15790 0.00610 0.43980 -0.04600
H 	H 	0.09700 0.00830 0.43520 0.05500
O 	O 	0.14530 0.18440 0.37140 -0.43100
O 	O 	0.01000 0.16060 0.35750 -0.43400
O 	O 	0.85400 0.31470 0.52270 -0.49600
O 	O 	0.98970 0.33730 0.53540 -0.44200
C 	C 	0.06380 0.18670 0.37840 0.28300
C 	C 	0.93500 0.31130 0.51430 0.35100
N 	N 	0.82700 0.22880 0.47860 -0.21800
H 	H 	0.80430 0.24640 0.49870 0.11800
H 	H 	0.79750 0.20470 0.46750 0.12900
C 	C 	0.94800 0.21030 0.43060 -0.12600
H 	H 	0.91340 0.18460 0.41960 0.09400
C 	C 	0.91540 0.23980 0.46350 -0.02100
C 	C 	0.96720 0.27810 0.48000 -0.15200
C 	C 	0.05150 0.28710 0.46350 0.03400
H 	H 	0.08610 0.31270 0.47450 0.02100
C 	C 	0.08400 0.25760 0.43060 -0.01800
H 	H 	0.14040 0.26360 0.41960 0.03400
C 	C 	0.03220 0.21930 0.41410 -0.01200
N 	N 	0.81600 0.26230 0.45550 -0.26000
H 	H 	0.79240 0.27850 0.47630 0.14300
H 	H 	0.78210 0.24870 0.43660 0.13400
C 	C 	0.94400 0.22850 0.41770 0.00100
H 	H 	0.90480 0.21560 0.39770 0.03600
C 	C 	0.91100 0.25810 0.45210 0.19600
C 	C 	0.05800 0.27200 0.47250 -0.01700
H 	H 	0.09770 0.28790 0.49070 0.04400
C 	C 	0.09210 0.24390 0.43980 -0.04400
H 	H 	0.15300 0.24170 0.43520 0.05300
O 	O 	0.14530 0.68440 0.87140 -0.43100
O 	O 	0.01000 0.66060 0.85750 -0.43400
O 	O 	0.85400 0.81470 0.02270 -0.49600
O 	O 	0.98970 0.83730 0.03540 -0.44200
C 	C 	0.06380 0.68670 0.87840 0.28300
C 	C 	0.93500 0.81130 0.01430 0.35100
N 	N 	0.82700 0.72880 0.97860 -0.21900
H 	H 	0.80430 0.74640 0.99870 0.11800
H 	H 	0.79750 0.70470 0.96750 0.12900
C 	C 	0.94800 0.71030 0.93060 -0.12100
H 	H 	0.91340 0.68460 0.91960 0.09300
C 	C 	0.91540 0.73980 0.96350 -0.01600
C 	C 	0.96720 0.77810 0.98000 -0.15100
C 	C 	0.05150 0.78710 0.96350 0.03300
H 	H 	0.08610 0.81270 0.97450 0.02200
C 	C 	0.08400 0.75760 0.93060 -0.01800
H 	H 	0.14040 0.76360 0.91960 0.03500
C 	C 	0.03220 0.71930 0.91410 -0.01300
N 	N 	0.81600 0.76230 0.95550 -0.25900
H 	H 	0.79240 0.77850 0.97630 0.14300
H 	H 	0.78210 0.74870 0.93660 0.13400
C 	C 	0.94400 0.72850 0.91770 -0.00300
H 	H 	0.90480 0.71560 0.89770 0.03700
C 	C 	0.91100 0.75810 0.95210 0.19000
C 	C 	0.05800 0.77200 0.97250 -0.01700
H 	H 	0.09770 0.78790 0.99070 0.04300
C 	C 	0.09210 0.74390 0.93980 -0.04300
H 	H 	0.15300 0.74170 0.93520 0.05300
O 	O 	0.64530 0.18440 0.87140 -0.43200
O 	O 	0.51000 0.16060 0.85750 -0.43400
O 	O 	0.35400 0.31470 0.02270 -0.49600
O 	O 	0.48970 0.33730 0.03540 -0.44200
C 	C 	0.56380 0.18670 0.87840 0.28300
C 	C 	0.43500 0.31130 0.01430 0.35100
N 	N 	0.32700 0.22880 0.97860 -0.21800
H 	H 	0.30430 0.24640 0.99870 0.11800
H 	H 	0.29750 0.20470 0.96750 0.12900
C 	C 	0.44800 0.21030 0.93060 -0.12500
H 	H 	0.41340 0.18460 0.91960 0.09400
C 	C 	0.41540 0.23980 0.96350 -0.02200
C 	C 	0.46720 0.27810 0.98000 -0.15200
C 	C 	0.55150 0.28710 0.96350 0.03400
H 	H 	0.58610 0.31270 0.97450 0.02100
C 	C 	0.58400 0.25760 0.93060 -0.01800
H 	H 	0.64040 0.26360 0.91960 0.03400
C 	C 	0.53220 0.21930 0.91410 -0.01300
N 	N 	0.31600 0.26230 0.95550 -0.26000
H 	H 	0.29240 0.27850 0.97630 0.14300
H 	H 	0.28210 0.24870 0.93660 0.13400
C 	C 	0.44400 0.22850 0.91770 0.00100
H 	H 	0.40480 0.21560 0.89770 0.03600
C 	C 	0.41100 0.25810 0.95210 0.19600
C 	C 	0.55800 0.27200 0.97250 -0.01700
H 	H 	0.59770 0.28790 0.99070 0.04400
C 	C 	0.59210 0.24390 0.93980 -0.04400
H 	H 	0.65300 0.24170 0.93520 0.05300
O 	O 	0.64530 0.68440 0.37140 -0.43100
O 	O 	0.51000 0.66060 0.35750 -0.43400
O 	O 	0.35400 0.81470 0.52270 -0.49600
O 	O 	0.48970 0.83730 0.53540 -0.44200
C 	C 	0.56380 0.68670 0.37840 0.28300
C 	C 	0.43500 0.81130 0.51430 0.35100
N 	N 	0.32700 0.72880 0.47860 -0.21700
H 	H 	0.30430 0.74640 0.49870 0.11800
H 	H 	0.29750 0.70470 0.46750 0.12900
C 	C 	0.44800 0.71030 0.43060 -0.12800
H 	H 	0.41340 0.68460 0.41960 0.09500
C 	C 	0.41540 0.73980 0.46350 -0.02500
C 	C 	0.46720 0.77810 0.48000 -0.15200
C 	C 	0.55150 0.78710 0.46350 0.03400
H 	H 	0.58610 0.81270 0.47450 0.02100
C 	C 	0.58400 0.75760 0.43060 -0.01700
H 	H 	0.64040 0.76360 0.41960 0.03400
C 	C 	0.53220 0.71930 0.41410 -0.01300
N 	N 	0.31600 0.76230 0.45550 -0.26000
H 	H 	0.29240 0.77850 0.47630 0.14400
H 	H 	0.28210 0.74870 0.43660 0.13400
C 	C 	0.44400 0.72850 0.41770 0.00300
H 	H 	0.40480 0.71560 0.39770 0.03500
C 	C 	0.41100 0.75810 0.45210 0.20000
C 	C 	0.55800 0.77200 0.47250 -0.01800
H 	H 	0.59770 0.78790 0.49070 0.04400
C 	C 	0.59210 0.74390 0.43980 -0.04400
H 	H 	0.65300 0.74170 0.43520 0.05300
O 	O 	0.85470 0.43440 0.62140 -0.43100
O 	O 	0.99000 0.41060 0.60750 -0.43400
O 	O 	0.14600 0.56470 0.77270 -0.49600
O 	O 	0.01030 0.58730 0.78540 -0.44200
C 	C 	0.93620 0.43670 0.62840 0.28300
C 	C 	0.06500 0.56130 0.76430 0.35100
N 	N 	0.17300 0.47880 0.72860 -0.21800
H 	H 	0.19570 0.49640 0.74870 0.11800
H 	H 	0.20250 0.45470 0.71750 0.12900
C 	C 	0.05200 0.46030 0.68060 -0.12600
H 	H 	0.08660 0.43460 0.66960 0.09400
C 	C 	0.08460 0.48980 0.71350 -0.02200
C 	C 	0.03280 0.52810 0.73000 -0.15200
C 	C 	0.94850 0.53710 0.71350 0.03400
H 	H 	0.91390 0.56270 0.72450 0.02100
C 	C 	0.91600 0.50760 0.68060 -0.01800
H 	H 	0.85960 0.51360 0.66960 0.03400
C 	C 	0.96780 0.46930 0.66410 -0.01300
N 	N 	0.18400 0.51230 0.70550 -0.26000
H 	H 	0.20760 0.52850 0.72630 0.14300
H 	H 	0.21790 0.49870 0.68660 0.13400
C 	C 	0.05600 0.47850 0.66770 0.00100
H 	H 	0.09520 0.46560 0.64770 0.03500
C 	C 	0.08900 0.50810 0.70210 0.19700
C 	C 	0.94200 0.52200 0.72250 -0.01800
H 	H 	0.90230 0.53790 0.74070 0.04400
C 	C 	0.90790 0.49390 0.68980 -0.04400
H 	H 	0.84700 0.49170 0.68520 0.05300
O 	O 	0.85470 0.93440 0.12140 -0.43100
O 	O 	0.99000 0.91060 0.10750 -0.43400
O 	O 	0.14600 0.06470 0.27270 -0.49600
O 	O 	0.01030 0.08730 0.28540 -0.44100
C 	C 	0.93620 0.93670 0.12840 0.28300
C 	C 	0.06500 0.06130 0.26430 0.35100
N 	N 	0.17300 0.97880 0.22860 -0.22300
H 	H 	0.19570 0.99640 0.24870 0.11900
H 	H 	0.20250 0.95470 0.21750 0.13000
C 	C 	0.05200 0.96030 0.18060 -0.10800
H 	H 	0.08660 0.93460 0.16960 0.08800
C 	C 	0.08460 0.98980 0.21350 0.00700
C 	C 	0.03280 0.02810 0.23000 -0.14900
C 	C 	0.94850 0.03710 0.21350 0.03000
H 	H 	0.91390 0.06270 0.22450 0.02300
C 	C 	0.91600 0.00760 0.18060 -0.01900
H 	H 	0.85960 0.01360 0.16960 0.03500
C 	C 	0.96780 0.96930 0.16410 -0.01100
N 	N 	0.18400 0.01230 0.20550 -0.25400
H 	H 	0.20760 0.02850 0.22630 0.14200
H 	H 	0.21790 0.99870 0.18660 0.13300
C 	C 	0.05600 0.97850 0.16770 -0.01800
H 	H 	0.09520 0.96560 0.14770 0.04200
C 	C 	0.08900 0.00810 0.20210 0.16600
C 	C 	0.94200 0.02200 0.22250 -0.01500
H 	H 	0.90230 0.03790 0.24070 0.04300
C 	C 	0.90790 0.99390 0.18980 -0.04300
H 	H 	0.84700 0.99170 0.18520 0.05300
O 	O 	0.35470 0.43440 0.12140 -0.43100
O 	O 	0.49000 0.41060 0.10750 -0.43400
O 	O 	0.64600 0.56470 0.27270 -0.49600
O 	O 	0.51030 0.58730 0.28540 -0.44200
C 	C 	0.43620 0.43670 0.12840 0.28300
C 	C 	0.56500 0.56130 0.26430 0.35100
N 	N 	0.67300 0.47880 0.22860 -0.21800
H 	H 	0.69570 0.49640 0.24870 0.11800
H 	H 	0.70250 0.45470 0.21750 0.12900
C 	C 	0.55200 0.46030 0.18060 -0.12600
H 	H 	0.58660 0.43460 0.16960 0.09400
C 	C 	0.58460 0.48980 0.21350 -0.02200
C 	C 	0.53280 0.52810 0.23000 -0.15200
C 	C 	0.44850 0.53710 0.21350 0.03400
H 	H 	0.41390 0.56270 0.22450 0.02100
C 	C 	0.41600 0.50760 0.18060 -0.01800
H 	H 	0.35960 0.51360 0.16960 0.03400
C 	C 	0.46780 0.46930 0.16410 -0.01300
N 	N 	0.68400 0.51230 0.20550 -0.26000
H 	H 	0.70760 0.52850 0.22630 0.14300
H 	H 	0.71790 0.49870 0.18660 0.13400
C 	C 	0.55600 0.47850 0.16770 0.00100
H 	H 	0.59520 0.46560 0.14770 0.03500
C 	C 	0.58900 0.50810 0.20210 0.19600
C 	C 	0.44200 0.52200 0.22250 -0.01800
H 	H 	0.40230 0.53790 0.24070 0.04400
C 	C 	0.40790 0.49390 0.18980 -0.04400
H 	H 	0.34700 0.49170 0.18520 0.05300
O 	O 	0.35470 0.93440 0.62140 -0.43100
O 	O 	0.49000 0.91060 0.60750 -0.43400
O 	O 	0.64600 0.06470 0.77270 -0.49700
O 	O 	0.51030 0.08730 0.78540 -0.44200
C 	C 	0.43620 0.93670 0.62840 0.28300
C 	C 	0.56500 0.06130 0.76430 0.35200
N 	N 	0.67300 0.97880 0.72860 -0.21600
H 	H 	0.69570 0.99640 0.74870 0.11700
H 	H 	0.70250 0.95470 0.71750 0.12900
C 	C 	0.55200 0.96030 0.68060 -0.13200
H 	H 	0.58660 0.93460 0.66960 0.09700
C 	C 	0.58460 0.98980 0.71350 -0.03200
C 	C 	0.53280 0.02810 0.73000 -0.15200
C 	C 	0.44850 0.03710 0.71350 0.03500
H 	H 	0.41390 0.06270 0.72450 0.02100
C 	C 	0.41600 0.00760 0.68060 -0.01700
H 	H 	0.35960 0.01360 0.66960 0.03400
C 	C 	0.46780 0.96930 0.66410 -0.01300
N 	N 	0.68400 0.01230 0.70550 -0.26200
H 	H 	0.70760 0.02850 0.72630 0.14400
H 	H 	0.71790 0.99870 0.68660 0.13400
C 	C 	0.55600 0.97850 0.66770 0.00800
H 	H 	0.59520 0.96560 0.64770 0.03300
C 	C 	0.58900 0.00810 0.70210 0.20600
C 	C 	0.44200 0.02200 0.72250 -0.01900
H 	H 	0.40230 0.03790 0.74070 0.04400
C 	C 	0.40790 0.99390 0.68980 -0.04400
H 	H 	0.34700 0.99170 0.68520 0.05300
O 	O 	0.39530 0.81560 0.62140 -0.43100
O 	O 	0.26000 0.83940 0.60750 -0.43400
O 	O 	0.10400 0.68530 0.77270 -0.49600
O 	O 	0.23970 0.66270 0.78540 -0.44200
C 	C 	0.31380 0.81330 0.62840 0.28300
C 	C 	0.18500 0.68870 0.76430 0.35100
N 	N 	0.07700 0.77120 0.72860 -0.21700
H 	H 	0.05430 0.75360 0.74870 0.11800
H 	H 	0.04750 0.79530 0.71750 0.12900
C 	C 	0.19800 0.78970 0.68060 -0.12600
H 	H 	0.16340 0.81540 0.66960 0.09500
C 	C 	0.16540 0.76020 0.71350 -0.02300
C 	C 	0.21720 0.72190 0.73000 -0.15200
C 	C 	0.30150 0.71290 0.71350 0.03400
H 	H 	0.33610 0.68730 0.72450 0.02100
C 	C 	0.33400 0.74240 0.68060 -0.01800
H 	H 	0.39040 0.73640 0.66960 0.03400
C 	C 	0.28220 0.78070 0.66410 -0.01300
N 	N 	0.06600 0.73770 0.70550 -0.26000
H 	H 	0.04240 0.72150 0.72630 0.14300
H 	H 	0.03210 0.75130 0.68660 0.13400
C 	C 	0.19400 0.77150 0.66770 0.00200
H 	H 	0.15480 0.78440 0.64770 0.03500
C 	C 	0.16100 0.74190 0.70210 0.19800
C 	C 	0.30800 0.72800 0.72250 -0.01800
H 	H 	0.34770 0.71210 0.74070 0.04400
C 	C 	0.34210 0.75610 0.68980 -0.04400
H 	H 	0.40300 0.75830 0.68520 0.05300
O 	O 	0.39530 0.31560 0.12140 -0.43100
O 	O 	0.26000 0.33940 0.10750 -0.43400
O 	O 	0.10400 0.18530 0.27270 -0.49600
O 	O 	0.23970 0.16270 0.28540 -0.44100
C 	C 	0.31380 0.31330 0.12840 0.28300
C 	C 	0.18500 0.18870 0.26430 0.35100
N 	N 	0.07700 0.27120 0.22860 -0.21900
H 	H 	0.05430 0.25360 0.24870 0.11800
H 	H 	0.04750 0.29530 0.21750 0.12900
C 	C 	0.19800 0.28970 0.18060 -0.12200
H 	H 	0.16340 0.31540 0.16960 0.09300
C 	C 	0.16540 0.26020 0.21350 -0.01700
C 	C 	0.21720 0.22190 0.23000 -0.15100
C 	C 	0.30150 0.21290 0.21350 0.03300
H 	H 	0.33610 0.18730 0.22450 0.02200
C 	C 	0.33400 0.24240 0.18060 -0.01800
H 	H 	0.39040 0.23640 0.16960 0.03500
C 	C 	0.28220 0.28070 0.16410 -0.01200
N 	N 	0.06600 0.23770 0.20550 -0.25900
H 	H 	0.04240 0.22150 0.22630 0.14300
H 	H 	0.03210 0.25130 0.18660 0.13400
C 	C 	0.19400 0.27150 0.16770 -0.00200
H 	H 	0.15480 0.28440 0.14770 0.03700
C 	C 	0.16100 0.24190 0.20210 0.19100
C 	C 	0.30800 0.22800 0.22250 -0.01700
H 	H 	0.34770 0.21210 0.24070 0.04300
C 	C 	0.34210 0.25610 0.18980 -0.04300
H 	H 	0.40300 0.25830 0.18520 0.05300
O 	O 	0.89530 0.81560 0.12140 -0.43200
O 	O 	0.76000 0.83940 0.10750 -0.43400
O 	O 	0.60400 0.68530 0.27270 -0.49600
O 	O 	0.73970 0.66270 0.28540 -0.44200
C 	C 	0.81380 0.81330 0.12840 0.28300
C 	C 	0.68500 0.68870 0.26430 0.35100
N 	N 	0.57700 0.77120 0.22860 -0.21800
H 	H 	0.55430 0.75360 0.24870 0.11800
H 	H 	0.54750 0.79530 0.21750 0.12900
C 	C 	0.69800 0.78970 0.18060 -0.12500
H 	H 	0.66340 0.81540 0.16960 0.09400
C 	C 	0.66540 0.76020 0.21350 -0.02100
C 	C 	0.71720 0.72190 0.23000 -0.15100
C 	C 	0.80150 0.71290 0.21350 0.03300
H 	H 	0.83610 0.68730 0.22450 0.02100
C 	C 	0.83400 0.74240 0.18060 -0.01800
H 	H 	0.89040 0.73640 0.16960 0.03400
C 	C 	0.78220 0.78070 0.16410 -0.01300
N 	N 	0.56600 0.73770 0.20550 -0.26000
H 	H 	0.54240 0.72150 0.22630 0.14300
H 	H 	0.53210 0.75130 0.18660 0.13400
C 	C 	0.69400 0.77150 0.16770 0.00100
H 	H 	0.65480 0.78440 0.14770 0.03600
C 	C 	0.66100 0.74190 0.20210 0.19500
C 	C 	0.80800 0.72800 0.22250 -0.01700
H 	H 	0.84770 0.71210 0.24070 0.04400
C 	C 	0.84210 0.75610 0.18980 -0.04300
H 	H 	0.90300 0.75830 0.18520 0.05300
O 	O 	0.89530 0.31560 0.62140 -0.43200
O 	O 	0.76000 0.33940 0.60750 -0.43400
O 	O 	0.60400 0.18530 0.77270 -0.49600
O 	O 	0.73970 0.16270 0.78540 -0.44200
C 	C 	0.81380 0.31330 0.62840 0.28300
C 	C 	0.68500 0.18870 0.76430 0.35100
N 	N 	0.57700 0.27120 0.72860 -0.21700
H 	H 	0.55430 0.25360 0.74870 0.11800
H 	H 	0.54750 0.29530 0.71750 0.12900
C 	C 	0.69800 0.28970 0.68060 -0.12800
H 	H 	0.66340 0.31540 0.66960 0.09500
C 	C 	0.66540 0.26020 0.71350 -0.02500
C 	C 	0.71720 0.22190 0.73000 -0.15200
C 	C 	0.80150 0.21290 0.71350 0.03400
H 	H 	0.83610 0.18730 0.72450 0.02100
C 	C 	0.83400 0.24240 0.68060 -0.01700
H 	H 	0.89040 0.23640 0.66960 0.03400
C 	C 	0.78220 0.28070 0.66410 -0.01300
N 	N 	0.56600 0.23770 0.70550 -0.26000
H 	H 	0.54240 0.22150 0.72630 0.14400
H 	H 	0.53210 0.25130 0.68660 0.13400
C 	C 	0.69400 0.27150 0.66770 0.00300
H 	H 	0.65480 0.28440 0.64770 0.03500
C 	C 	0.66100 0.24190 0.70210 0.19900
C 	C 	0.80800 0.22800 0.72250 -0.01800
H 	H 	0.84770 0.21210 0.74070 0.04400
C 	C 	0.84210 0.25610 0.68980 -0.04400
H 	H 	0.90300 0.25830 0.68520 0.05300
In	In	0.62500 0.62500 0.32068 1.99900
In	In	0.62500 0.12500 0.82068 1.99900
In	In	0.12500 0.12500 0.32068 1.99900
In	In	0.12500 0.62500 0.82068 1.99900
In	In	0.87500 0.37500 0.57068 1.99900
In	In	0.87500 0.87500 0.07068 1.99900
In	In	0.37500 0.87500 0.57068 1.99900
In	In	0.37500 0.37500 0.07068 1.99900
O 	O 	0.14530 0.56560 0.37860 -0.43100
O 	O 	0.01000 0.58940 0.39250 -0.43400
O 	O 	0.85400 0.43530 0.22730 -0.49600
O 	O 	0.98970 0.41270 0.21460 -0.44200
C 	C 	0.06380 0.56330 0.37160 0.28300
C 	C 	0.93500 0.43870 0.23570 0.35100
N 	N 	0.82700 0.52120 0.27140 -0.21800
H 	H 	0.80430 0.50360 0.25130 0.11800
H 	H 	0.79750 0.54530 0.28250 0.12900
C 	C 	0.94800 0.53970 0.31940 -0.12600
H 	H 	0.91340 0.56540 0.33040 0.09400
C 	C 	0.91540 0.51020 0.28650 -0.02200
C 	C 	0.96720 0.47190 0.27000 -0.15200
C 	C 	0.05150 0.46290 0.28650 0.03400
H 	H 	0.08610 0.43730 0.27550 0.02100
C 	C 	0.08400 0.49240 0.31940 -0.01800
H 	H 	0.14040 0.48640 0.33040 0.03400
C 	C 	0.03220 0.53070 0.33590 -0.01300
N 	N 	0.81600 0.48770 0.29450 -0.26000
H 	H 	0.79240 0.47150 0.27370 0.14300
H 	H 	0.78210 0.50130 0.31340 0.13400
C 	C 	0.94400 0.52150 0.33230 0.00100
H 	H 	0.90480 0.53440 0.35230 0.03500
C 	C 	0.91100 0.49190 0.29790 0.19700
C 	C 	0.05800 0.47800 0.27750 -0.01800
H 	H 	0.09770 0.46210 0.25930 0.04400
C 	C 	0.09210 0.50610 0.31020 -0.04400
H 	H 	0.15300 0.50830 0.31480 0.05300
O 	O 	0.14530 0.06560 0.87860 -0.43100
O 	O 	0.01000 0.08940 0.89250 -0.43400
O 	O 	0.85400 0.93530 0.72730 -0.49600
O 	O 	0.98970 0.91270 0.71460 -0.44100
C 	C 	0.06380 0.06330 0.87160 0.28300
C 	C 	0.93500 0.93870 0.73570 0.35100
N 	N 	0.82700 0.02120 0.77140 -0.22300
H 	H 	0.80430 0.00360 0.75130 0.11900
H 	H 	0.79750 0.04530 0.78250 0.13000
C 	C 	0.94800 0.03970 0.81940 -0.10800
H 	H 	0.91340 0.06540 0.83040 0.08800
C 	C 	0.91540 0.01020 0.78650 0.00700
C 	C 	0.96720 0.97190 0.77000 -0.14900
C 	C 	0.05150 0.96290 0.78650 0.03000
H 	H 	0.08610 0.93730 0.77550 0.02300
C 	C 	0.08400 0.99240 0.81940 -0.01900
H 	H 	0.14040 0.98640 0.83040 0.03500
C 	C 	0.03220 0.03070 0.83590 -0.01100
N 	N 	0.81600 0.98770 0.79450 -0.25400
H 	H 	0.79240 0.97150 0.77370 0.14200
H 	H 	0.78210 0.00130 0.81340 0.13300
C 	C 	0.94400 0.02150 0.83230 -0.01800
H 	H 	0.90480 0.03440 0.85230 0.04200
C 	C 	0.91100 0.99190 0.79790 0.16600
C 	C 	0.05800 0.97800 0.77750 -0.01500
H 	H 	0.09770 0.96210 0.75930 0.04300
C 	C 	0.09210 0.00610 0.81020 -0.04300
H 	H 	0.15300 0.00830 0.81480 0.05300
O 	O 	0.64530 0.56560 0.87860 -0.43100
O 	O 	0.51000 0.58940 0.89250 -0.43400
O 	O 	0.35400 0.43530 0.72730 -0.49600
O 	O 	0.48970 0.41270 0.71460 -0.44200
C 	C 	0.56380 0.56330 0.87160 0.28300
C 	C 	0.43500 0.43870 0.73570 0.35100
N 	N 	0.32700 0.52120 0.77140 -0.21800
H 	H 	0.30430 0.50360 0.75130 0.11800
H 	H 	0.29750 0.54530 0.78250 0.12900
C 	C 	0.44800 0.53970 0.81940 -0.12600
H 	H 	0.41340 0.56540 0.83040 0.09400
C 	C 	0.41540 0.51020 0.78650 -0.02200
C 	C 	0.46720 0.47190 0.77000 -0.15200
C 	C 	0.55150 0.46290 0.78650 0.03400
H 	H 	0.58610 0.43730 0.77550 0.02100
C 	C 	0.58400 0.49240 0.81940 -0.01800
H 	H 	0.64040 0.48640 0.83040 0.03400
C 	C 	0.53220 0.53070 0.83590 -0.01300
N 	N 	0.31600 0.48770 0.79450 -0.26000
H 	H 	0.29240 0.47150 0.77370 0.14300
H 	H 	0.28210 0.50130 0.81340 0.13400
C 	C 	0.44400 0.52150 0.83230 0.00100
H 	H 	0.40480 0.53440 0.85230 0.03500
C 	C 	0.41100 0.49190 0.79790 0.19600
C 	C 	0.55800 0.47800 0.77750 -0.01800
H 	H 	0.59770 0.46210 0.75930 0.04400
C 	C 	0.59210 0.50610 0.81020 -0.04400
H 	H 	0.65300 0.50830 0.81480 0.05300
O 	O 	0.64530 0.06560 0.37860 -0.43100
O 	O 	0.51000 0.08940 0.39250 -0.43400
O 	O 	0.35400 0.93530 0.22730 -0.49700
O 	O 	0.48970 0.91270 0.21460 -0.44200
C 	C 	0.56380 0.06330 0.37160 0.28300
C 	C 	0.43500 0.93870 0.23570 0.35200
N 	N 	0.32700 0.02120 0.27140 -0.21600
H 	H 	0.30430 0.00360 0.25130 0.11700
H 	H 	0.29750 0.04530 0.28250 0.12900
C 	C 	0.44800 0.03970 0.31940 -0.13200
H 	H 	0.41340 0.06540 0.33040 0.09700
C 	C 	0.41540 0.01020 0.28650 -0.03200
C 	C 	0.46720 0.97190 0.27000 -0.15200
C 	C 	0.55150 0.96290 0.28650 0.03500
H 	H 	0.58610 0.93730 0.27550 0.02100
C 	C 	0.58400 0.99240 0.31940 -0.01700
H 	H 	0.64040 0.98640 0.33040 0.03400
C 	C 	0.53220 0.03070 0.33590 -0.01300
N 	N 	0.31600 0.98770 0.29450 -0.26200
H 	H 	0.29240 0.97150 0.27370 0.14400
H 	H 	0.28210 0.00130 0.31340 0.13400
C 	C 	0.44400 0.02150 0.33230 0.00800
H 	H 	0.40480 0.03440 0.35230 0.03300
C 	C 	0.41100 0.99190 0.29790 0.20600
C 	C 	0.55800 0.97800 0.27750 -0.01900
H 	H 	0.59770 0.96210 0.25930 0.04400
C 	C 	0.59210 0.00610 0.31020 -0.04400
H 	H 	0.65300 0.00830 0.31480 0.05300
O 	O 	0.60470 0.18440 0.37860 -0.43100
O 	O 	0.74000 0.16060 0.39250 -0.43400
O 	O 	0.89600 0.31470 0.22730 -0.49600
O 	O 	0.76030 0.33730 0.21460 -0.44200
C 	C 	0.68620 0.18670 0.37160 0.28300
C 	C 	0.81500 0.31130 0.23570 0.35100
N 	N 	0.92300 0.22880 0.27140 -0.21700
H 	H 	0.94570 0.24640 0.25130 0.11800
H 	H 	0.95250 0.20470 0.28250 0.12900
C 	C 	0.80200 0.21030 0.31940 -0.12600
H 	H 	0.83660 0.18460 0.33040 0.09500
C 	C 	0.83460 0.23980 0.28650 -0.02300
C 	C 	0.78280 0.27810 0.27000 -0.15200
C 	C 	0.69850 0.28710 0.28650 0.03400
H 	H 	0.66390 0.31270 0.27550 0.02100
C 	C 	0.66600 0.25760 0.31940 -0.01800
H 	H 	0.60960 0.26360 0.33040 0.03400
C 	C 	0.71780 0.21930 0.33590 -0.01300
N 	N 	0.93400 0.26230 0.29450 -0.26000
H 	H 	0.95760 0.27850 0.27370 0.14300
H 	H 	0.96790 0.24870 0.31340 0.13400
C 	C 	0.80600 0.22850 0.33230 0.00200
H 	H 	0.84520 0.21560 0.35230 0.03500
C 	C 	0.83900 0.25810 0.29790 0.19800
C 	C 	0.69200 0.27200 0.27750 -0.01800
H 	H 	0.65230 0.28790 0.25930 0.04400
C 	C 	0.65790 0.24390 0.31020 -0.04400
H 	H 	0.59700 0.24170 0.31480 0.05300
O 	O 	0.60470 0.68440 0.87860 -0.43100
O 	O 	0.74000 0.66060 0.89250 -0.43400
O 	O 	0.89600 0.81470 0.72730 -0.49600
O 	O 	0.76030 0.83730 0.71460 -0.44100
C 	C 	0.68620 0.68670 0.87160 0.28300
C 	C 	0.81500 0.81130 0.73570 0.35100
N 	N 	0.92300 0.72880 0.77140 -0.21900
H 	H 	0.94570 0.74640 0.75130 0.11800
H 	H 	0.95250 0.70470 0.78250 0.12900
C 	C 	0.80200 0.71030 0.81940 -0.12200
H 	H 	0.83660 0.68460 0.83040 0.09300
C 	C 	0.83460 0.73980 0.78650 -0.01700
C 	C 	0.78280 0.77810 0.77000 -0.15100
C 	C 	0.69850 0.78710 0.78650 0.03300
H 	H 	0.66390 0.81270 0.77550 0.02200
C 	C 	0.66600 0.75760 0.81940 -0.01800
H 	H 	0.60960 0.76360 0.83040 0.03500
C 	C 	0.71780 0.71930 0.83590 -0.01200
N 	N 	0.93400 0.76230 0.79450 -0.25900
H 	H 	0.95760 0.77850 0.77370 0.14300
H 	H 	0.96790 0.74870 0.81340 0.13400
C 	C 	0.80600 0.72850 0.83230 -0.00200
H 	H 	0.84520 0.71560 0.85230 0.03700
C 	C 	0.83900 0.75810 0.79790 0.19100
C 	C 	0.69200 0.77200 0.77750 -0.01700
H 	H 	0.65230 0.78790 0.75930 0.04300
C 	C 	0.65790 0.74390 0.81020 -0.04300
H 	H 	0.59700 0.74170 0.81480 0.05300
O 	O 	0.10470 0.18440 0.87860 -0.43200
O 	O 	0.24000 0.16060 0.89250 -0.43400
O 	O 	0.39600 0.31470 0.72730 -0.49600
O 	O 	0.26030 0.33730 0.71460 -0.44200
C 	C 	0.18620 0.18670 0.87160 0.28300
C 	C 	0.31500 0.31130 0.73570 0.35100
N 	N 	0.42300 0.22880 0.77140 -0.21800
H 	H 	0.44570 0.24640 0.75130 0.11800
H 	H 	0.45250 0.20470 0.78250 0.12900
C 	C 	0.30200 0.21030 0.81940 -0.12500
H 	H 	0.33660 0.18460 0.83040 0.09400
C 	C 	0.33460 0.23980 0.78650 -0.02100
C 	C 	0.28280 0.27810 0.77000 -0.15100
C 	C 	0.19850 0.28710 0.78650 0.03300
H 	H 	0.16390 0.31270 0.77550 0.02100
C 	C 	0.16600 0.25760 0.81940 -0.01800
H 	H 	0.10960 0.26360 0.83040 0.03400
C 	C 	0.21780 0.21930 0.83590 -0.01300
N 	N 	0.43400 0.26230 0.79450 -0.26000
H 	H 	0.45760 0.27850 0.77370 0.14300
H 	H 	0.46790 0.24870 0.81340 0.13400
C 	C 	0.30600 0.22850 0.83230 0.00100
H 	H 	0.34520 0.21560 0.85230 0.03600
C 	C 	0.33900 0.25810 0.79790 0.19500
C 	C 	0.19200 0.27200 0.77750 -0.01700
H 	H 	0.15230 0.28790 0.75930 0.04400
C 	C 	0.15790 0.24390 0.81020 -0.04300
H 	H 	0.09700 0.24170 0.81480 0.05300
O 	O 	0.10470 0.68440 0.37860 -0.43200
O 	O 	0.24000 0.66060 0.39250 -0.43400
O 	O 	0.39600 0.81470 0.22730 -0.49600
O 	O 	0.26030 0.83730 0.21460 -0.44200
C 	C 	0.18620 0.68670 0.37160 0.28300
C 	C 	0.31500 0.81130 0.23570 0.35100
N 	N 	0.42300 0.72880 0.27140 -0.21700
H 	H 	0.44570 0.74640 0.25130 0.11800
H 	H 	0.45250 0.70470 0.28250 0.12900
C 	C 	0.30200 0.71030 0.31940 -0.12800
H 	H 	0.33660 0.68460 0.33040 0.09500
C 	C 	0.33460 0.73980 0.28650 -0.02500
C 	C 	0.28280 0.77810 0.27000 -0.15200
C 	C 	0.19850 0.78710 0.28650 0.03400
H 	H 	0.16390 0.81270 0.27550 0.02100
C 	C 	0.16600 0.75760 0.31940 -0.01700
H 	H 	0.10960 0.76360 0.33040 0.03400
C 	C 	0.21780 0.71930 0.33590 -0.01300
N 	N 	0.43400 0.76230 0.29450 -0.26000
H 	H 	0.45760 0.77850 0.27370 0.14400
H 	H 	0.46790 0.74870 0.31340 0.13400
C 	C 	0.30600 0.72850 0.33230 0.00300
H 	H 	0.34520 0.71560 0.35230 0.03500
C 	C 	0.33900 0.75810 0.29790 0.19900
C 	C 	0.19200 0.77200 0.27750 -0.01800
H 	H 	0.15230 0.78790 0.25930 0.04400
C 	C 	0.15790 0.74390 0.31020 -0.04400
H 	H 	0.09700 0.74170 0.31480 0.05300
O 	O 	0.39530 0.43440 0.62860 -0.43100
O 	O 	0.26000 0.41060 0.64250 -0.43400
O 	O 	0.10400 0.56470 0.47730 -0.49600
O 	O 	0.23970 0.58730 0.46460 -0.44200
C 	C 	0.31380 0.43670 0.62160 0.28300
C 	C 	0.18500 0.56130 0.48570 0.35100
N 	N 	0.07700 0.47880 0.52140 -0.21700
H 	H 	0.05430 0.49640 0.50130 0.11800
H 	H 	0.04750 0.45470 0.53250 0.12900
C 	C 	0.19800 0.46030 0.56940 -0.12600
H 	H 	0.16340 0.43460 0.58040 0.09500
C 	C 	0.16540 0.48980 0.53650 -0.02300
C 	C 	0.21720 0.52810 0.52000 -0.15200
C 	C 	0.30150 0.53710 0.53650 0.03400
H 	H 	0.33610 0.56270 0.52550 0.02100
C 	C 	0.33400 0.50760 0.56940 -0.01800
H 	H 	0.39040 0.51360 0.58040 0.03400
C 	C 	0.28220 0.46930 0.58590 -0.01300
N 	N 	0.06600 0.51230 0.54450 -0.26000
H 	H 	0.04240 0.52850 0.52370 0.14300
H 	H 	0.03210 0.49870 0.56340 0.13400
C 	C 	0.19400 0.47850 0.58230 0.00200
H 	H 	0.15480 0.46560 0.60230 0.03500
C 	C 	0.16100 0.50810 0.54790 0.19700
C 	C 	0.30800 0.52200 0.52750 -0.01800
H 	H 	0.34770 0.53790 0.50930 0.04400
C 	C 	0.34210 0.49390 0.56020 -0.04400
H 	H 	0.40300 0.49170 0.56480 0.05300
O 	O 	0.39530 0.93440 0.12860 -0.43100
O 	O 	0.26000 0.91060 0.14250 -0.43400
O 	O 	0.10400 0.06470 0.97730 -0.49600
O 	O 	0.23970 0.08730 0.96460 -0.44100
C 	C 	0.31380 0.93670 0.12160 0.28300
C 	C 	0.18500 0.06130 0.98570 0.35100
N 	N 	0.07700 0.97880 0.02140 -0.22200
H 	H 	0.05430 0.99640 0.00130 0.11900
H 	H 	0.04750 0.95470 0.03250 0.13000
C 	C 	0.19800 0.96030 0.06940 -0.11000
H 	H 	0.16340 0.93460 0.08040 0.08900
C 	C 	0.16540 0.98980 0.03650 0.00300
C 	C 	0.21720 0.02810 0.02000 -0.15000
C 	C 	0.30150 0.03710 0.03650 0.03100
H 	H 	0.33610 0.06270 0.02550 0.02300
C 	C 	0.33400 0.00760 0.06940 -0.02100
H 	H 	0.39040 0.01360 0.08040 0.03600
C 	C 	0.28220 0.96930 0.08590 -0.01200
N 	N 	0.06600 0.01230 0.04450 -0.25500
H 	H 	0.04240 0.02850 0.02370 0.14200
H 	H 	0.03210 0.99870 0.06340 0.13300
C 	C 	0.19400 0.97850 0.08230 -0.01500
H 	H 	0.15480 0.96560 0.10230 0.04100
C 	C 	0.16100 0.00810 0.04790 0.17100
C 	C 	0.30800 0.02200 0.02750 -0.01500
H 	H 	0.34770 0.03790 0.00930 0.04300
C 	C 	0.34210 0.99390 0.06020 -0.04100
H 	H 	0.40300 0.99170 0.06480 0.05200
O 	O 	0.89530 0.43440 0.12860 -0.43200
O 	O 	0.76000 0.41060 0.14250 -0.43400
O 	O 	0.60400 0.56470 0.97730 -0.49600
O 	O 	0.73970 0.58730 0.96460 -0.44200
C 	C 	0.81380 0.43670 0.12160 0.28300
C 	C 	0.68500 0.56130 0.98570 0.35100
N 	N 	0.57700 0.47880 0.02140 -0.21800
H 	H 	0.55430 0.49640 0.00130 0.11800
H 	H 	0.54750 0.45470 0.03250 0.12900
C 	C 	0.69800 0.46030 0.06940 -0.12500
H 	H 	0.66340 0.43460 0.08040 0.09400
C 	C 	0.66540 0.48980 0.03650 -0.02200
C 	C 	0.71720 0.52810 0.02000 -0.15200
C 	C 	0.80150 0.53710 0.03650 0.03400
H 	H 	0.83610 0.56270 0.02550 0.02100
C 	C 	0.83400 0.50760 0.06940 -0.01800
H 	H 	0.89040 0.51360 0.08040 0.03400
C 	C 	0.78220 0.46930 0.08590 -0.01300
N 	N 	0.56600 0.51230 0.04450 -0.26000
H 	H 	0.54240 0.52850 0.02370 0.14300
H 	H 	0.53210 0.49870 0.06340 0.13400
C 	C 	0.69400 0.47850 0.08230 0.00100
H 	H 	0.65480 0.46560 0.10230 0.03600
C 	C 	0.66100 0.50810 0.04790 0.19600
C 	C 	0.80800 0.52200 0.02750 -0.01700
H 	H 	0.84770 0.53790 0.00930 0.04400
C 	C 	0.84210 0.49390 0.06020 -0.04400
H 	H 	0.90300 0.49170 0.06480 0.05300
O 	O 	0.89530 0.93440 0.62860 -0.43200
O 	O 	0.76000 0.91060 0.64250 -0.43400
O 	O 	0.60400 0.06470 0.47730 -0.49600
O 	O 	0.73970 0.08730 0.46460 -0.44200
C 	C 	0.81380 0.93670 0.62160 0.28300
C 	C 	0.68500 0.06130 0.48570 0.35200
N 	N 	0.57700 0.97880 0.52140 -0.21500
H 	H 	0.55430 0.99640 0.50130 0.11700
H 	H 	0.54750 0.95470 0.53250 0.12800
C 	C 	0.69800 0.96030 0.56940 -0.13400
H 	H 	0.66340 0.93460 0.58040 0.09700
C 	C 	0.66540 0.98980 0.53650 -0.03500
C 	C 	0.71720 0.02810 0.52000 -0.15200
C 	C 	0.80150 0.03710 0.53650 0.03500
H 	H 	0.83610 0.06270 0.52550 0.02100
C 	C 	0.83400 0.00760 0.56940 -0.01500
H 	H 	0.89040 0.01360 0.58040 0.03300
C 	C 	0.78220 0.96930 0.58590 -0.01300
N 	N 	0.56600 0.01230 0.54450 -0.26200
H 	H 	0.54240 0.02850 0.52370 0.14400
H 	H 	0.53210 0.99870 0.56340 0.13400
C 	C 	0.69400 0.97850 0.58230 0.01000
H 	H 	0.65480 0.96560 0.60230 0.03300
C 	C 	0.66100 0.00810 0.54790 0.21000
C 	C 	0.80800 0.02200 0.52750 -0.01900
H 	H 	0.84770 0.03790 0.50930 0.04400
C 	C 	0.84210 0.99390 0.56020 -0.04600
H 	H 	0.90300 0.99170 0.56480 0.05500
O 	O 	0.85470 0.81560 0.62860 -0.43100
O 	O 	0.99000 0.83940 0.64250 -0.43400
O 	O 	0.14600 0.68530 0.47730 -0.49600
O 	O 	0.01030 0.66270 0.46460 -0.44200
C 	C 	0.93620 0.81330 0.62160 0.28300
C 	C 	0.06500 0.68870 0.48570 0.35100
N 	N 	0.17300 0.77120 0.52140 -0.21800
H 	H 	0.19570 0.75360 0.50130 0.11800
H 	H 	0.20250 0.79530 0.53250 0.12900
C 	C 	0.05200 0.78970 0.56940 -0.12600
H 	H 	0.08660 0.81540 0.58040 0.09400
C 	C 	0.08460 0.76020 0.53650 -0.02100
C 	C 	0.03280 0.72190 0.52000 -0.15200
C 	C 	0.94850 0.71290 0.53650 0.03400
H 	H 	0.91390 0.68730 0.52550 0.02100
C 	C 	0.91600 0.74240 0.56940 -0.01800
H 	H 	0.85960 0.73640 0.58040 0.03400
C 	C 	0.96780 0.78070 0.58590 -0.01200
N 	N 	0.18400 0.73770 0.54450 -0.26000
H 	H 	0.20760 0.72150 0.52370 0.14300
H 	H 	0.21790 0.75130 0.56340 0.13400
C 	C 	0.05600 0.77150 0.58230 0.00100
H 	H 	0.09520 0.78440 0.60230 0.03600
C 	C 	0.08900 0.74190 0.54790 0.19600
C 	C 	0.94200 0.72800 0.52750 -0.01700
H 	H 	0.90230 0.71210 0.50930 0.04400
C 	C 	0.90790 0.75610 0.56020 -0.04400
H 	H 	0.84700 0.75830 0.56480 0.05300
O 	O 	0.85470 0.31560 0.12860 -0.43100
O 	O 	0.99000 0.33940 0.14250 -0.43400
O 	O 	0.14600 0.18530 0.97730 -0.49600
O 	O 	0.01030 0.16270 0.96460 -0.44200
C 	C 	0.93620 0.31330 0.12160 0.28300
C 	C 	0.06500 0.18870 0.98570 0.35100
N 	N 	0.17300 0.27120 0.02140 -0.21900
H 	H 	0.19570 0.25360 0.00130 0.11800
H 	H 	0.20250 0.29530 0.03250 0.12900
C 	C 	0.05200 0.28970 0.06940 -0.12100
H 	H 	0.08660 0.31540 0.08040 0.09300
C 	C 	0.08460 0.26020 0.03650 -0.01600
C 	C 	0.03280 0.22190 0.02000 -0.15100
C 	C 	0.94850 0.21290 0.03650 0.03300
H 	H 	0.91390 0.18730 0.02550 0.02200
C 	C 	0.91600 0.24240 0.06940 -0.01800
H 	H 	0.85960 0.23640 0.08040 0.03500
C 	C 	0.96780 0.28070 0.08590 -0.01300
N 	N 	0.18400 0.23770 0.04450 -0.25900
H 	H 	0.20760 0.22150 0.02370 0.14300
H 	H 	0.21790 0.25130 0.06340 0.13400
C 	C 	0.05600 0.27150 0.08230 -0.00300
H 	H 	0.09520 0.28440 0.10230 0.03700
C 	C 	0.08900 0.24190 0.04790 0.19000
C 	C 	0.94200 0.22800 0.02750 -0.01700
H 	H 	0.90230 0.21210 0.00930 0.04300
C 	C 	0.90790 0.25610 0.06020 -0.04300
H 	H 	0.84700 0.25830 0.06480 0.05300
O 	O 	0.35470 0.81560 0.12860 -0.43200
O 	O 	0.49000 0.83940 0.14250 -0.43400
O 	O 	0.64600 0.68530 0.97730 -0.49600
O 	O 	0.51030 0.66270 0.96460 -0.44200
C 	C 	0.43620 0.81330 0.12160 0.28300
C 	C 	0.56500 0.68870 0.98570 0.35100
N 	N 	0.67300 0.77120 0.02140 -0.21800
H 	H 	0.69570 0.75360 0.00130 0.11800
H 	H 	0.70250 0.79530 0.03250 0.12900
C 	C 	0.55200 0.78970 0.06940 -0.12500
H 	H 	0.58660 0.81540 0.08040 0.09400
C 	C 	0.58460 0.76020 0.03650 -0.02200
C 	C 	0.53280 0.72190 0.02000 -0.15200
C 	C 	0.44850 0.71290 0.03650 0.03400
H 	H 	0.41390 0.68730 0.02550 0.02100
C 	C 	0.41600 0.74240 0.06940 -0.01800
H 	H 	0.35960 0.73640 0.08040 0.03400
C 	C 	0.46780 0.78070 0.08590 -0.01300
N 	N 	0.68400 0.73770 0.04450 -0.26000
H 	H 	0.70760 0.72150 0.02370 0.14300
H 	H 	0.71790 0.75130 0.06340 0.13400
C 	C 	0.55600 0.77150 0.08230 0.00100
H 	H 	0.59520 0.78440 0.10230 0.03600
C 	C 	0.58900 0.74190 0.04790 0.19600
C 	C 	0.44200 0.72800 0.02750 -0.01700
H 	H 	0.40230 0.71210 0.00930 0.04400
C 	C 	0.40790 0.75610 0.06020 -0.04400
H 	H 	0.34700 0.75830 0.06480 0.05300
O 	O 	0.35470 0.31560 0.62860 -0.43100
O 	O 	0.49000 0.33940 0.64250 -0.43400
O 	O 	0.64600 0.18530 0.47730 -0.49600
O 	O 	0.51030 0.16270 0.46460 -0.44200
C 	C 	0.43620 0.31330 0.62160 0.28300
C 	C 	0.56500 0.18870 0.48570 0.35100
N 	N 	0.67300 0.27120 0.52140 -0.21700
H 	H 	0.69570 0.25360 0.50130 0.11800
H 	H 	0.70250 0.29530 0.53250 0.12900
C 	C 	0.55200 0.28970 0.56940 -0.12800
H 	H 	0.58660 0.31540 0.58040 0.09500
C 	C 	0.58460 0.26020 0.53650 -0.02500
C 	C 	0.53280 0.22190 0.52000 -0.15200
C 	C 	0.44850 0.21290 0.53650 0.03400
H 	H 	0.41390 0.18730 0.52550 0.02100
C 	C 	0.41600 0.24240 0.56940 -0.01700
H 	H 	0.35960 0.23640 0.58040 0.03400
C 	C 	0.46780 0.28070 0.58590 -0.01300
N 	N 	0.68400 0.23770 0.54450 -0.26000
H 	H 	0.70760 0.22150 0.52370 0.14400
H 	H 	0.71790 0.25130 0.56340 0.13400
C 	C 	0.55600 0.27150 0.58230 0.00300
H 	H 	0.59520 0.28440 0.60230 0.03500
C 	C 	0.58900 0.24190 0.54790 0.20000
C 	C 	0.44200 0.22800 0.52750 -0.01800
H 	H 	0.40230 0.21210 0.50930 0.04400
C 	C 	0.40790 0.25610 0.56020 -0.04400
H 	H 	0.34700 0.25830 0.56480 0.05300
In	In	0.12500 0.62500 0.42932 1.99900
In	In	0.12500 0.12500 0.92932 1.99900
In	In	0.62500 0.62500 0.92932 1.99900
In	In	0.62500 0.12500 0.42932 1.99900
In	In	0.37500 0.37500 0.67932 1.99900
In	In	0.37500 0.87500 0.17932 1.99900
In	In	0.87500 0.87500 0.67932 1.99900
In	In	0.87500 0.37500 0.17932 1.99900
