data_crystal

_cell_length_a 15.15800
_cell_length_b 22.56500
_cell_length_c 34.41100
_cell_angle_alpha 90.00000
_cell_angle_beta  90.00000
_cell_angle_gamma 90.00000

_symmetry_space_group_name_	'P 1'
_symmetry_space_group_name_H-M	'P 1'

loop_
_symmetry_equiv_pos_as_xyz
  x,y,z

loop_
_atom_site_label
_atom_site_type_symbol
_atom_site_fract_x
_atom_site_fract_y
_atom_site_fract_z
_atom_site_charge
O 	O 	0.39070 0.44460 0.53204 -0.48600
O 	O 	0.25760 0.41550 0.54429 -0.43400
O 	O 	0.39730 0.30600 0.62570 -0.42300
O 	O 	0.26280 0.33210 0.61097 -0.43500
C 	C 	0.31720 0.30560 0.63320 0.28300
C 	C 	0.27930 0.28270 0.67130 -0.01800
C 	C 	0.19920 0.29320 0.68400 -0.06200
C 	C 	0.33960 0.24310 0.69270 -0.05900
H 	H 	0.16130 0.31650 0.66930 0.05800
C 	C 	0.17030 0.27020 0.71910 0.02200
C 	C 	0.30820 0.21750 0.72620 0.02500
H 	H 	0.39660 0.23580 0.68390 0.03600
C 	C 	0.22300 0.23060 0.73920 -0.07900
N 	N 	0.08790 0.28720 0.73010 -0.19700
H 	H 	0.34360 0.19140 0.74020 0.02600
C 	C 	0.18960 0.19470 0.77340 0.33700
H 	H 	0.06500 0.27310 0.75100 0.11400
H 	H 	0.05880 0.31210 0.71620 0.12000
C 	C 	0.21220 0.51900 0.41740 0.01300
H 	H 	0.10010 0.49200 0.43780 0.03600
H 	H 	0.15190 0.45090 0.49360 0.02000
N 	N 	0.42950 0.50320 0.46470 -0.22100
H 	H 	0.46040 0.52130 0.44750 0.11900
H 	H 	0.45480 0.48840 0.48490 0.12100
C 	C 	0.33830 0.49780 0.46000 0.13600
C 	C 	0.30410 0.52290 0.42670 -0.03800
H 	H 	0.34170 0.54290 0.40990 0.04600
C 	C 	0.28170 0.46550 0.48500 -0.03500
O 	O 	0.39070 0.94460 0.03204 -0.48800
O 	O 	0.25760 0.91550 0.04429 -0.43500
O 	O 	0.39730 0.80600 0.12570 -0.42400
O 	O 	0.26280 0.83210 0.11097 -0.43600
C 	C 	0.31720 0.80560 0.13320 0.28200
C 	C 	0.27930 0.78270 0.17130 -0.01900
C 	C 	0.19920 0.79320 0.18400 -0.06300
C 	C 	0.33960 0.74310 0.19270 -0.06000
H 	H 	0.16130 0.81650 0.16930 0.05700
C 	C 	0.17030 0.77020 0.21910 0.02100
C 	C 	0.30820 0.71750 0.22620 0.02400
H 	H 	0.39660 0.73580 0.18390 0.03500
C 	C 	0.22300 0.73060 0.23920 -0.08000
N 	N 	0.08790 0.78720 0.23010 -0.19800
H 	H 	0.34360 0.69140 0.24020 0.02500
C 	C 	0.18960 0.69470 0.27340 0.33600
H 	H 	0.06500 0.77310 0.25100 0.11300
H 	H 	0.05880 0.81210 0.21620 0.11900
C 	C 	0.21220 0.01900 0.91740 0.01300
H 	H 	0.10010 0.99200 0.93780 0.03500
H 	H 	0.15190 0.95090 0.99360 0.01900
N 	N 	0.42950 0.00320 0.96470 -0.22400
H 	H 	0.46040 0.02130 0.94750 0.11900
H 	H 	0.45480 0.98840 0.98490 0.12000
C 	C 	0.33830 0.99780 0.96000 0.14500
C 	C 	0.30410 0.02290 0.92670 -0.03500
H 	H 	0.34170 0.04290 0.90990 0.04400
C 	C 	0.28170 0.96550 0.98500 -0.03400
O 	O 	0.89070 0.44460 0.03204 -0.48700
O 	O 	0.75760 0.41550 0.04429 -0.43500
O 	O 	0.89730 0.30600 0.12570 -0.42500
O 	O 	0.76280 0.33210 0.11097 -0.43600
C 	C 	0.81720 0.30560 0.13320 0.28200
C 	C 	0.77930 0.28270 0.17130 -0.01900
C 	C 	0.69920 0.29320 0.18400 -0.06300
C 	C 	0.83960 0.24310 0.19270 -0.06000
H 	H 	0.66130 0.31650 0.16930 0.05700
C 	C 	0.67030 0.27020 0.21910 0.02000
C 	C 	0.80820 0.21750 0.22620 0.02400
H 	H 	0.89660 0.23580 0.18390 0.03500
C 	C 	0.72300 0.23060 0.23920 -0.08000
N 	N 	0.58790 0.28720 0.23010 -0.19800
H 	H 	0.84360 0.19140 0.24020 0.02500
C 	C 	0.68960 0.19470 0.27340 0.33600
H 	H 	0.56500 0.27310 0.25100 0.11300
H 	H 	0.55880 0.31210 0.21620 0.11900
C 	C 	0.71220 0.51900 0.91740 0.01200
H 	H 	0.60010 0.49200 0.93780 0.03500
H 	H 	0.65190 0.45090 0.99360 0.01900
N 	N 	0.92950 0.50320 0.96470 -0.22200
H 	H 	0.96040 0.52130 0.94750 0.11800
H 	H 	0.95480 0.48840 0.98490 0.12000
C 	C 	0.83830 0.49780 0.96000 0.13600
C 	C 	0.80410 0.52290 0.92670 -0.03800
H 	H 	0.84170 0.54290 0.90990 0.04600
C 	C 	0.78170 0.46550 0.98500 -0.03500
O 	O 	0.89070 0.94460 0.53204 -0.48700
O 	O 	0.75760 0.91550 0.54429 -0.43500
O 	O 	0.89730 0.80600 0.62570 -0.42500
O 	O 	0.76280 0.83210 0.61097 -0.43600
C 	C 	0.81720 0.80560 0.63320 0.28200
C 	C 	0.77930 0.78270 0.67130 -0.01900
C 	C 	0.69920 0.79320 0.68400 -0.06300
C 	C 	0.83960 0.74310 0.69270 -0.06000
H 	H 	0.66130 0.81650 0.66930 0.05700
C 	C 	0.67030 0.77020 0.71910 0.02100
C 	C 	0.80820 0.71750 0.72620 0.02400
H 	H 	0.89660 0.73580 0.68390 0.03500
C 	C 	0.72300 0.73060 0.73920 -0.08000
N 	N 	0.58790 0.78720 0.73010 -0.19800
H 	H 	0.84360 0.69140 0.74020 0.02500
C 	C 	0.68960 0.69470 0.77340 0.33600
H 	H 	0.56500 0.77310 0.75100 0.11300
H 	H 	0.55880 0.81210 0.71620 0.11900
C 	C 	0.71220 0.01900 0.41740 0.01200
H 	H 	0.60010 0.99200 0.43780 0.03500
H 	H 	0.65190 0.95090 0.49360 0.01900
N 	N 	0.92950 0.00320 0.46470 -0.22200
H 	H 	0.96040 0.02130 0.44750 0.11800
H 	H 	0.95480 0.98840 0.48490 0.12000
C 	C 	0.83830 0.99780 0.46000 0.13400
C 	C 	0.80410 0.02290 0.42670 -0.03900
H 	H 	0.84170 0.04290 0.40990 0.04700
C 	C 	0.78170 0.96550 0.48500 -0.03600
O 	O 	0.35930 0.30540 0.53204 -0.48700
O 	O 	0.49240 0.33450 0.54429 -0.43500
O 	O 	0.35270 0.44400 0.62570 -0.42400
O 	O 	0.48720 0.41790 0.61097 -0.43600
C 	C 	0.43280 0.44440 0.63320 0.28200
C 	C 	0.47070 0.46730 0.67130 -0.01900
C 	C 	0.55080 0.45680 0.68400 -0.06300
C 	C 	0.41040 0.50690 0.69270 -0.06000
H 	H 	0.58870 0.43350 0.66930 0.05700
C 	C 	0.57970 0.47980 0.71910 0.02100
C 	C 	0.44180 0.53250 0.72620 0.02400
H 	H 	0.35340 0.51420 0.68390 0.03500
C 	C 	0.52700 0.51940 0.73920 -0.08000
N 	N 	0.66210 0.46280 0.73010 -0.19800
H 	H 	0.40640 0.55860 0.74020 0.02500
C 	C 	0.56040 0.55530 0.77340 0.33600
H 	H 	0.68500 0.47690 0.75100 0.11300
H 	H 	0.69120 0.43790 0.71620 0.11900
C 	C 	0.53780 0.23100 0.41740 0.01200
H 	H 	0.64990 0.25800 0.43780 0.03500
H 	H 	0.59810 0.29910 0.49360 0.01900
N 	N 	0.32050 0.24680 0.46470 -0.22200
H 	H 	0.28960 0.22870 0.44750 0.11800
H 	H 	0.29520 0.26160 0.48490 0.12000
C 	C 	0.41170 0.25220 0.46000 0.13600
C 	C 	0.44590 0.22710 0.42670 -0.03800
H 	H 	0.40830 0.20710 0.40990 0.04600
C 	C 	0.46830 0.28450 0.48500 -0.03500
O 	O 	0.35930 0.80540 0.03204 -0.48800
O 	O 	0.49240 0.83450 0.04429 -0.43500
O 	O 	0.35270 0.94400 0.12570 -0.42400
O 	O 	0.48720 0.91790 0.11097 -0.43600
C 	C 	0.43280 0.94440 0.13320 0.28200
C 	C 	0.47070 0.96730 0.17130 -0.01900
C 	C 	0.55080 0.95680 0.18400 -0.06500
C 	C 	0.41040 0.00690 0.19270 -0.06000
H 	H 	0.58870 0.93350 0.16930 0.05800
C 	C 	0.57970 0.97980 0.21910 0.01500
C 	C 	0.44180 0.03250 0.22620 0.02400
H 	H 	0.35340 0.01420 0.18390 0.03500
C 	C 	0.52700 0.01940 0.23920 -0.08200
N 	N 	0.66210 0.96280 0.23010 -0.19700
H 	H 	0.40640 0.05860 0.24020 0.02500
C 	C 	0.56040 0.05530 0.27340 0.33600
H 	H 	0.68500 0.97690 0.25100 0.11300
H 	H 	0.69120 0.93790 0.21620 0.11900
C 	C 	0.53780 0.73100 0.91740 0.01200
H 	H 	0.64990 0.75800 0.93780 0.03500
H 	H 	0.59810 0.79910 0.99360 0.01900
N 	N 	0.32050 0.74680 0.96470 -0.22200
H 	H 	0.28960 0.72870 0.94750 0.11800
H 	H 	0.29520 0.76160 0.98490 0.12000
C 	C 	0.41170 0.75220 0.96000 0.13700
C 	C 	0.44590 0.72710 0.92670 -0.03700
H 	H 	0.40830 0.70710 0.90990 0.04600
C 	C 	0.46830 0.78450 0.98500 -0.03500
O 	O 	0.85930 0.30540 0.03204 -0.48700
O 	O 	0.99240 0.33450 0.04429 -0.43500
O 	O 	0.85270 0.44400 0.12570 -0.42400
O 	O 	0.98720 0.41790 0.11097 -0.43600
C 	C 	0.93280 0.44440 0.13320 0.28200
C 	C 	0.97070 0.46730 0.17130 -0.01900
C 	C 	0.05080 0.45680 0.18400 -0.06300
C 	C 	0.91040 0.50690 0.19270 -0.06000
H 	H 	0.08870 0.43350 0.16930 0.05700
C 	C 	0.07970 0.47980 0.21910 0.02100
C 	C 	0.94180 0.53250 0.22620 0.02400
H 	H 	0.85340 0.51420 0.18390 0.03500
C 	C 	0.02700 0.51940 0.23920 -0.08000
N 	N 	0.16210 0.46280 0.23010 -0.19800
H 	H 	0.90640 0.55860 0.24020 0.02500
C 	C 	0.06040 0.55530 0.27340 0.33600
H 	H 	0.18500 0.47690 0.25100 0.11300
H 	H 	0.19120 0.43790 0.21620 0.11900
C 	C 	0.03780 0.23100 0.91740 0.01200
H 	H 	0.14990 0.25800 0.93780 0.03500
H 	H 	0.09810 0.29910 0.99360 0.01900
N 	N 	0.82050 0.24680 0.96470 -0.22200
H 	H 	0.78960 0.22870 0.94750 0.11800
H 	H 	0.79520 0.26160 0.98490 0.12000
C 	C 	0.91170 0.25220 0.96000 0.13600
C 	C 	0.94590 0.22710 0.92670 -0.03800
H 	H 	0.90830 0.20710 0.90990 0.04600
C 	C 	0.96830 0.28450 0.98500 -0.03500
O 	O 	0.85930 0.80540 0.53204 -0.48700
O 	O 	0.99240 0.83450 0.54429 -0.43500
O 	O 	0.85270 0.94400 0.62570 -0.42400
O 	O 	0.98720 0.91790 0.61097 -0.43600
C 	C 	0.93280 0.94440 0.63320 0.28200
C 	C 	0.97070 0.96730 0.67130 -0.01900
C 	C 	0.05080 0.95680 0.68400 -0.06100
C 	C 	0.91040 0.00690 0.69270 -0.06000
H 	H 	0.08870 0.93350 0.66930 0.05600
C 	C 	0.07970 0.97980 0.71910 0.02700
C 	C 	0.94180 0.03250 0.72620 0.02400
H 	H 	0.85340 0.01420 0.68390 0.03500
C 	C 	0.02700 0.01940 0.73920 -0.07800
N 	N 	0.16210 0.96280 0.73010 -0.19900
H 	H 	0.90640 0.05860 0.74020 0.02500
C 	C 	0.06040 0.05530 0.77340 0.33600
H 	H 	0.18500 0.97690 0.75100 0.11300
H 	H 	0.19120 0.93790 0.71620 0.11900
C 	C 	0.03780 0.73100 0.41740 0.01200
H 	H 	0.14990 0.75800 0.43780 0.03500
H 	H 	0.09810 0.79910 0.49360 0.01900
N 	N 	0.82050 0.74680 0.46470 -0.22200
H 	H 	0.78960 0.72870 0.44750 0.11800
H 	H 	0.79520 0.76160 0.48490 0.12000
C 	C 	0.91170 0.75220 0.46000 0.13500
C 	C 	0.94590 0.72710 0.42670 -0.03800
H 	H 	0.90830 0.70710 0.40990 0.04600
C 	C 	0.96830 0.78450 0.48500 -0.03600
O 	O 	0.64070 0.55540 0.78204 -0.48700
O 	O 	0.50760 0.58450 0.79429 -0.43500
O 	O 	0.64730 0.69400 0.87570 -0.42400
O 	O 	0.51280 0.66790 0.86097 -0.43600
C 	C 	0.56720 0.69440 0.88320 0.28200
C 	C 	0.52930 0.71730 0.92130 -0.01900
C 	C 	0.44920 0.70680 0.93400 -0.06300
C 	C 	0.58960 0.75690 0.94270 -0.06000
H 	H 	0.41130 0.68350 0.91930 0.05700
C 	C 	0.42030 0.72980 0.96910 0.02000
C 	C 	0.55820 0.78250 0.97620 0.02400
H 	H 	0.64660 0.76420 0.93390 0.03500
C 	C 	0.47300 0.76940 0.98920 -0.08000
N 	N 	0.33790 0.71280 0.98010 -0.19800
H 	H 	0.59360 0.80860 0.99020 0.02500
C 	C 	0.43960 0.80530 0.02340 0.33600
H 	H 	0.31500 0.72690 0.00100 0.11300
H 	H 	0.30880 0.68790 0.96620 0.11900
C 	C 	0.46220 0.48100 0.66740 0.01200
H 	H 	0.35010 0.50800 0.68780 0.03500
H 	H 	0.40190 0.54910 0.74360 0.01900
N 	N 	0.67950 0.49680 0.71470 -0.22200
H 	H 	0.71040 0.47870 0.69750 0.11800
H 	H 	0.70480 0.51160 0.73490 0.12000
C 	C 	0.58830 0.50220 0.71000 0.13600
C 	C 	0.55410 0.47710 0.67670 -0.03800
H 	H 	0.59170 0.45710 0.65990 0.04600
C 	C 	0.53170 0.53450 0.73500 -0.03500
O 	O 	0.64070 0.05540 0.28204 -0.48800
O 	O 	0.50760 0.08450 0.29429 -0.43500
O 	O 	0.64730 0.19400 0.37570 -0.42400
O 	O 	0.51280 0.16790 0.36097 -0.43600
C 	C 	0.56720 0.19440 0.38320 0.28200
C 	C 	0.52930 0.21730 0.42130 -0.01900
C 	C 	0.44920 0.20680 0.43400 -0.06300
C 	C 	0.58960 0.25690 0.44270 -0.06000
H 	H 	0.41130 0.18350 0.41930 0.05700
C 	C 	0.42030 0.22980 0.46910 0.02100
C 	C 	0.55820 0.28250 0.47620 0.02400
H 	H 	0.64660 0.26420 0.43390 0.03500
C 	C 	0.47300 0.26940 0.48920 -0.08000
N 	N 	0.33790 0.21280 0.48010 -0.19800
H 	H 	0.59360 0.30860 0.49020 0.02500
C 	C 	0.43960 0.30530 0.52340 0.33600
H 	H 	0.31500 0.22690 0.50100 0.11300
H 	H 	0.30880 0.18790 0.46620 0.11900
C 	C 	0.46220 0.98100 0.16740 0.01200
H 	H 	0.35010 0.00800 0.18780 0.03500
H 	H 	0.40190 0.04910 0.24360 0.01900
N 	N 	0.67950 0.99680 0.21470 -0.22300
H 	H 	0.71040 0.97870 0.19750 0.11900
H 	H 	0.70480 0.01160 0.23490 0.12000
C 	C 	0.58830 0.00220 0.21000 0.14200
C 	C 	0.55410 0.97710 0.17670 -0.03600
H 	H 	0.59170 0.95710 0.15990 0.04500
C 	C 	0.53170 0.03450 0.23500 -0.03400
O 	O 	0.14070 0.55540 0.28204 -0.48700
O 	O 	0.00760 0.58450 0.29429 -0.43500
O 	O 	0.14730 0.69400 0.37570 -0.42400
O 	O 	0.01280 0.66790 0.36097 -0.43600
C 	C 	0.06720 0.69440 0.38320 0.28200
C 	C 	0.02930 0.71730 0.42130 -0.01900
C 	C 	0.94920 0.70680 0.43400 -0.06300
C 	C 	0.08960 0.75690 0.44270 -0.06000
H 	H 	0.91130 0.68350 0.41930 0.05700
C 	C 	0.92030 0.72980 0.46910 0.02200
C 	C 	0.05820 0.78250 0.47620 0.02400
H 	H 	0.14660 0.76420 0.43390 0.03500
C 	C 	0.97300 0.76940 0.48920 -0.08000
N 	N 	0.83790 0.71280 0.48010 -0.19800
H 	H 	0.09360 0.80860 0.49020 0.02500
C 	C 	0.93960 0.80530 0.52340 0.33600
H 	H 	0.81500 0.72690 0.50100 0.11300
H 	H 	0.80880 0.68790 0.46620 0.11900
C 	C 	0.96220 0.48100 0.16740 0.01200
H 	H 	0.85010 0.50800 0.18780 0.03500
H 	H 	0.90190 0.54910 0.24360 0.01900
N 	N 	0.17950 0.49680 0.21470 -0.22200
H 	H 	0.21040 0.47870 0.19750 0.11800
H 	H 	0.20480 0.51160 0.23490 0.12000
C 	C 	0.08830 0.50220 0.21000 0.13600
C 	C 	0.05410 0.47710 0.17670 -0.03800
H 	H 	0.09170 0.45710 0.15990 0.04600
C 	C 	0.03170 0.53450 0.23500 -0.03500
O 	O 	0.14070 0.05540 0.78204 -0.48700
O 	O 	0.00760 0.08450 0.79429 -0.43500
O 	O 	0.14730 0.19400 0.87570 -0.42400
O 	O 	0.01280 0.16790 0.86097 -0.43600
C 	C 	0.06720 0.19440 0.88320 0.28200
C 	C 	0.02930 0.21730 0.92130 -0.01900
C 	C 	0.94920 0.20680 0.93400 -0.06300
C 	C 	0.08960 0.25690 0.94270 -0.06000
H 	H 	0.91130 0.18350 0.91930 0.05700
C 	C 	0.92030 0.22980 0.96910 0.02100
C 	C 	0.05820 0.28250 0.97620 0.02400
H 	H 	0.14660 0.26420 0.93390 0.03500
C 	C 	0.97300 0.26940 0.98920 -0.08000
N 	N 	0.83790 0.21280 0.98010 -0.19800
H 	H 	0.09360 0.30860 0.99020 0.02500
C 	C 	0.93960 0.30530 0.02340 0.33600
H 	H 	0.81500 0.22690 0.00100 0.11300
H 	H 	0.80880 0.18790 0.96620 0.11900
C 	C 	0.96220 0.98100 0.66740 0.01100
H 	H 	0.85010 0.00800 0.68780 0.03500
H 	H 	0.90190 0.04910 0.74360 0.02000
N 	N 	0.17950 0.99680 0.71470 -0.22100
H 	H 	0.21040 0.97870 0.69750 0.11800
H 	H 	0.20480 0.01160 0.73490 0.12000
C 	C 	0.08830 0.00220 0.71000 0.13000
C 	C 	0.05410 0.97710 0.67670 -0.04000
H 	H 	0.09170 0.95710 0.65990 0.04800
C 	C 	0.03170 0.03450 0.73500 -0.03700
O 	O 	0.60930 0.69460 0.78204 -0.48700
O 	O 	0.74240 0.66550 0.79429 -0.43500
O 	O 	0.60270 0.55600 0.87570 -0.42400
O 	O 	0.73720 0.58210 0.86097 -0.43600
C 	C 	0.68280 0.55560 0.88320 0.28200
C 	C 	0.72070 0.53270 0.92130 -0.01900
C 	C 	0.80080 0.54320 0.93400 -0.06300
C 	C 	0.66040 0.49310 0.94270 -0.06000
H 	H 	0.83870 0.56650 0.91930 0.05700
C 	C 	0.82970 0.52020 0.96910 0.02100
C 	C 	0.69180 0.46750 0.97620 0.02400
H 	H 	0.60340 0.48580 0.93390 0.03500
C 	C 	0.77700 0.48060 0.98920 -0.08000
N 	N 	0.91210 0.53720 0.98010 -0.19800
H 	H 	0.65640 0.44140 0.99020 0.02500
C 	C 	0.81040 0.44470 0.02340 0.33600
H 	H 	0.93500 0.52310 0.00100 0.11300
H 	H 	0.94120 0.56210 0.96620 0.11900
C 	C 	0.78780 0.76900 0.66740 0.01200
H 	H 	0.89990 0.74200 0.68780 0.03500
H 	H 	0.84810 0.70090 0.74360 0.01900
N 	N 	0.57050 0.75320 0.71470 -0.22200
H 	H 	0.53960 0.77130 0.69750 0.11800
H 	H 	0.54520 0.73840 0.73490 0.12000
C 	C 	0.66170 0.74780 0.71000 0.13600
C 	C 	0.69590 0.77290 0.67670 -0.03800
H 	H 	0.65830 0.79290 0.65990 0.04600
C 	C 	0.71830 0.71550 0.73500 -0.03500
O 	O 	0.60930 0.19460 0.28204 -0.48800
O 	O 	0.74240 0.16550 0.29429 -0.43500
O 	O 	0.60270 0.05600 0.37570 -0.42400
O 	O 	0.73720 0.08210 0.36097 -0.43600
C 	C 	0.68280 0.05560 0.38320 0.28200
C 	C 	0.72070 0.03270 0.42130 -0.01900
C 	C 	0.80080 0.04320 0.43400 -0.06200
C 	C 	0.66040 0.99310 0.44270 -0.06000
H 	H 	0.83870 0.06650 0.41930 0.05700
C 	C 	0.82970 0.02020 0.46910 0.02400
C 	C 	0.69180 0.96750 0.47620 0.02400
H 	H 	0.60340 0.98580 0.43390 0.03500
C 	C 	0.77700 0.98060 0.48920 -0.07900
N 	N 	0.91210 0.03720 0.48010 -0.19900
H 	H 	0.65640 0.94140 0.49020 0.02500
C 	C 	0.81040 0.94470 0.52340 0.33600
H 	H 	0.93500 0.02310 0.50100 0.11300
H 	H 	0.94120 0.06210 0.46620 0.11900
C 	C 	0.78780 0.26900 0.16740 0.01200
H 	H 	0.89990 0.24200 0.18780 0.03500
H 	H 	0.84810 0.20090 0.24360 0.01900
N 	N 	0.57050 0.25320 0.21470 -0.22200
H 	H 	0.53960 0.27130 0.19750 0.11800
H 	H 	0.54520 0.23840 0.23490 0.12000
C 	C 	0.66170 0.24780 0.21000 0.13700
C 	C 	0.69590 0.27290 0.17670 -0.03700
H 	H 	0.65830 0.29290 0.15990 0.04600
C 	C 	0.71830 0.21550 0.23500 -0.03500
O 	O 	0.10930 0.69460 0.28204 -0.48700
O 	O 	0.24240 0.66550 0.29429 -0.43500
O 	O 	0.10270 0.55600 0.37570 -0.42500
O 	O 	0.23720 0.58210 0.36097 -0.43600
C 	C 	0.18280 0.55560 0.38320 0.28200
C 	C 	0.22070 0.53270 0.42130 -0.01900
C 	C 	0.30080 0.54320 0.43400 -0.06300
C 	C 	0.16040 0.49310 0.44270 -0.06000
H 	H 	0.33870 0.56650 0.41930 0.05700
C 	C 	0.32970 0.52020 0.46910 0.02100
C 	C 	0.19180 0.46750 0.47620 0.02400
H 	H 	0.10340 0.48580 0.43390 0.03500
C 	C 	0.27700 0.48060 0.48920 -0.08000
N 	N 	0.41210 0.53720 0.48010 -0.19800
H 	H 	0.15640 0.44140 0.49020 0.02500
C 	C 	0.31040 0.44470 0.52340 0.33600
H 	H 	0.43500 0.52310 0.50100 0.11300
H 	H 	0.44120 0.56210 0.46620 0.11900
C 	C 	0.28780 0.76900 0.16740 0.01200
H 	H 	0.39990 0.74200 0.18780 0.03500
H 	H 	0.34810 0.70090 0.24360 0.01900
N 	N 	0.07050 0.75320 0.21470 -0.22200
H 	H 	0.03960 0.77130 0.19750 0.11800
H 	H 	0.04520 0.73840 0.23490 0.12000
C 	C 	0.16170 0.74780 0.21000 0.13700
C 	C 	0.19590 0.77290 0.17670 -0.03800
H 	H 	0.15830 0.79290 0.15990 0.04600
C 	C 	0.21830 0.71550 0.23500 -0.03500
O 	O 	0.10930 0.19460 0.78204 -0.48700
O 	O 	0.24240 0.16550 0.79429 -0.43500
O 	O 	0.10270 0.05600 0.87570 -0.42400
O 	O 	0.23720 0.08210 0.86097 -0.43600
C 	C 	0.18280 0.05560 0.88320 0.28200
C 	C 	0.22070 0.03270 0.92130 -0.01900
C 	C 	0.30080 0.04320 0.93400 -0.06600
C 	C 	0.16040 0.99310 0.94270 -0.06100
H 	H 	0.33870 0.06650 0.91930 0.05900
C 	C 	0.32970 0.02020 0.96910 0.01200
C 	C 	0.19180 0.96750 0.97620 0.02500
H 	H 	0.10340 0.98580 0.93390 0.03500
C 	C 	0.27700 0.98060 0.98920 -0.08300
N 	N 	0.41210 0.03720 0.98010 -0.19500
H 	H 	0.15640 0.94140 0.99020 0.02500
C 	C 	0.31040 0.94470 0.02340 0.33700
H 	H 	0.43500 0.02310 0.00100 0.11200
H 	H 	0.44120 0.06210 0.96620 0.11800
C 	C 	0.28780 0.26900 0.66740 0.01200
H 	H 	0.39990 0.24200 0.68780 0.03500
H 	H 	0.34810 0.20090 0.74360 0.01900
N 	N 	0.07050 0.25320 0.71470 -0.22200
H 	H 	0.03960 0.27130 0.69750 0.11800
H 	H 	0.04520 0.23840 0.73490 0.12000
C 	C 	0.16170 0.24780 0.71000 0.13600
C 	C 	0.19590 0.27290 0.67670 -0.03800
H 	H 	0.15830 0.29290 0.65990 0.04600
C 	C 	0.21830 0.21550 0.73500 -0.03600
In	In	0.37500 0.37500 0.57776 1.99700
In	In	0.37500 0.87500 0.07776 1.99700
In	In	0.87500 0.37500 0.07776 1.99700
In	In	0.87500 0.87500 0.57776 1.99700
In	In	0.62500 0.62500 0.82776 1.99700
In	In	0.62500 0.12500 0.32776 1.99700
In	In	0.12500 0.62500 0.32776 1.99700
In	In	0.12500 0.12500 0.82776 1.99700
O 	O 	0.35930 0.44460 0.21796 -0.48700
O 	O 	0.49240 0.41550 0.20571 -0.43500
O 	O 	0.35270 0.30600 0.12430 -0.42400
O 	O 	0.48720 0.33210 0.13903 -0.43600
C 	C 	0.43280 0.30560 0.11680 0.28200
C 	C 	0.47070 0.28270 0.07870 -0.01900
C 	C 	0.55080 0.29320 0.06600 -0.06300
C 	C 	0.41040 0.24310 0.05730 -0.06000
H 	H 	0.58870 0.31650 0.08070 0.05700
C 	C 	0.57970 0.27020 0.03090 0.02000
C 	C 	0.44180 0.21750 0.02380 0.02400
H 	H 	0.35340 0.23580 0.06610 0.03500
C 	C 	0.52700 0.23060 0.01080 -0.08000
N 	N 	0.66210 0.28720 0.01990 -0.19800
H 	H 	0.40640 0.19140 0.00980 0.02500
C 	C 	0.56040 0.19470 0.97660 0.33600
H 	H 	0.68500 0.27310 0.99900 0.11300
H 	H 	0.69120 0.31210 0.03380 0.11900
C 	C 	0.53780 0.51900 0.33260 0.01200
H 	H 	0.64990 0.49200 0.31220 0.03500
H 	H 	0.59810 0.45090 0.25640 0.01900
N 	N 	0.32050 0.50320 0.28530 -0.22200
H 	H 	0.28960 0.52130 0.30250 0.11800
H 	H 	0.29520 0.48840 0.26510 0.12000
C 	C 	0.41170 0.49780 0.29000 0.13600
C 	C 	0.44590 0.52290 0.32330 -0.03800
H 	H 	0.40830 0.54290 0.34010 0.04600
C 	C 	0.46830 0.46550 0.26500 -0.03500
O 	O 	0.35930 0.94460 0.71796 -0.48800
O 	O 	0.49240 0.91550 0.70571 -0.43500
O 	O 	0.35270 0.80600 0.62430 -0.42400
O 	O 	0.48720 0.83210 0.63903 -0.43600
C 	C 	0.43280 0.80560 0.61680 0.28200
C 	C 	0.47070 0.78270 0.57870 -0.01900
C 	C 	0.55080 0.79320 0.56600 -0.06300
C 	C 	0.41040 0.74310 0.55730 -0.06000
H 	H 	0.58870 0.81650 0.58070 0.05700
C 	C 	0.57970 0.77020 0.53090 0.02100
C 	C 	0.44180 0.71750 0.52380 0.02400
H 	H 	0.35340 0.73580 0.56610 0.03500
C 	C 	0.52700 0.73060 0.51080 -0.08000
N 	N 	0.66210 0.78720 0.51990 -0.19800
H 	H 	0.40640 0.69140 0.50980 0.02500
C 	C 	0.56040 0.69470 0.47660 0.33600
H 	H 	0.68500 0.77310 0.49900 0.11300
H 	H 	0.69120 0.81210 0.53380 0.11900
C 	C 	0.53780 0.01900 0.83260 0.01200
H 	H 	0.64990 0.99200 0.81220 0.03500
H 	H 	0.59810 0.95090 0.75640 0.01900
N 	N 	0.32050 0.00320 0.78530 -0.22300
H 	H 	0.28960 0.02130 0.80250 0.11900
H 	H 	0.29520 0.98840 0.76510 0.12000
C 	C 	0.41170 0.99780 0.79000 0.14200
C 	C 	0.44590 0.02290 0.82330 -0.03600
H 	H 	0.40830 0.04290 0.84010 0.04500
C 	C 	0.46830 0.96550 0.76500 -0.03400
O 	O 	0.85930 0.44460 0.71796 -0.48700
O 	O 	0.99240 0.41550 0.70571 -0.43500
O 	O 	0.85270 0.30600 0.62430 -0.42400
O 	O 	0.98720 0.33210 0.63903 -0.43600
C 	C 	0.93280 0.30560 0.61680 0.28200
C 	C 	0.97070 0.28270 0.57870 -0.01900
C 	C 	0.05080 0.29320 0.56600 -0.06300
C 	C 	0.91040 0.24310 0.55730 -0.06000
H 	H 	0.08870 0.31650 0.58070 0.05700
C 	C 	0.07970 0.27020 0.53090 0.02200
C 	C 	0.94180 0.21750 0.52380 0.02400
H 	H 	0.85340 0.23580 0.56610 0.03500
C 	C 	0.02700 0.23060 0.51080 -0.08000
N 	N 	0.16210 0.28720 0.51990 -0.19800
H 	H 	0.90640 0.19140 0.50980 0.02500
C 	C 	0.06040 0.19470 0.47660 0.33600
H 	H 	0.18500 0.27310 0.49900 0.11300
H 	H 	0.19120 0.31210 0.53380 0.11900
C 	C 	0.03780 0.51900 0.83260 0.01200
H 	H 	0.14990 0.49200 0.81220 0.03500
H 	H 	0.09810 0.45090 0.75640 0.01900
N 	N 	0.82050 0.50320 0.78530 -0.22200
H 	H 	0.78960 0.52130 0.80250 0.11800
H 	H 	0.79520 0.48840 0.76510 0.12000
C 	C 	0.91170 0.49780 0.79000 0.13600
C 	C 	0.94590 0.52290 0.82330 -0.03800
H 	H 	0.90830 0.54290 0.84010 0.04600
C 	C 	0.96830 0.46550 0.76500 -0.03500
O 	O 	0.85930 0.94460 0.21796 -0.48700
O 	O 	0.99240 0.91550 0.20571 -0.43500
O 	O 	0.85270 0.80600 0.12430 -0.42400
O 	O 	0.98720 0.83210 0.13903 -0.43600
C 	C 	0.93280 0.80560 0.11680 0.28200
C 	C 	0.97070 0.78270 0.07870 -0.01900
C 	C 	0.05080 0.79320 0.06600 -0.06300
C 	C 	0.91040 0.74310 0.05730 -0.06000
H 	H 	0.08870 0.81650 0.08070 0.05700
C 	C 	0.07970 0.77020 0.03090 0.02100
C 	C 	0.94180 0.71750 0.02380 0.02400
H 	H 	0.85340 0.73580 0.06610 0.03500
C 	C 	0.02700 0.73060 0.01080 -0.08000
N 	N 	0.16210 0.78720 0.01990 -0.19800
H 	H 	0.90640 0.69140 0.00980 0.02500
C 	C 	0.06040 0.69470 0.97660 0.33600
H 	H 	0.18500 0.77310 0.99900 0.11300
H 	H 	0.19120 0.81210 0.03380 0.11900
C 	C 	0.03780 0.01900 0.33260 0.01100
H 	H 	0.14990 0.99200 0.31220 0.03500
H 	H 	0.09810 0.95090 0.25640 0.02000
N 	N 	0.82050 0.00320 0.28530 -0.22100
H 	H 	0.78960 0.02130 0.30250 0.11800
H 	H 	0.79520 0.98840 0.26510 0.12000
C 	C 	0.91170 0.99780 0.29000 0.13000
C 	C 	0.94590 0.02290 0.32330 -0.04000
H 	H 	0.90830 0.04290 0.34010 0.04800
C 	C 	0.96830 0.96550 0.26500 -0.03700
O 	O 	0.39070 0.30540 0.21796 -0.48700
O 	O 	0.25760 0.33450 0.20571 -0.43500
O 	O 	0.39730 0.44400 0.12430 -0.42400
O 	O 	0.26280 0.41790 0.13903 -0.43600
C 	C 	0.31720 0.44440 0.11680 0.28200
C 	C 	0.27930 0.46730 0.07870 -0.01900
C 	C 	0.19920 0.45680 0.06600 -0.06300
C 	C 	0.33960 0.50690 0.05730 -0.06000
H 	H 	0.16130 0.43350 0.08070 0.05700
C 	C 	0.17030 0.47980 0.03090 0.02100
C 	C 	0.30820 0.53250 0.02380 0.02400
H 	H 	0.39660 0.51420 0.06610 0.03500
C 	C 	0.22300 0.51940 0.01080 -0.08000
N 	N 	0.08790 0.46280 0.01990 -0.19800
H 	H 	0.34360 0.55860 0.00980 0.02500
C 	C 	0.18960 0.55530 0.97660 0.33600
H 	H 	0.06500 0.47690 0.99900 0.11300
H 	H 	0.05880 0.43790 0.03380 0.11900
C 	C 	0.21220 0.23100 0.33260 0.01200
H 	H 	0.10010 0.25800 0.31220 0.03500
H 	H 	0.15190 0.29910 0.25640 0.01900
N 	N 	0.42950 0.24680 0.28530 -0.22200
H 	H 	0.46040 0.22870 0.30250 0.11800
H 	H 	0.45480 0.26160 0.26510 0.12000
C 	C 	0.33830 0.25220 0.29000 0.13600
C 	C 	0.30410 0.22710 0.32330 -0.03800
H 	H 	0.34170 0.20710 0.34010 0.04600
C 	C 	0.28170 0.28450 0.26500 -0.03500
O 	O 	0.39070 0.80540 0.71796 -0.48800
O 	O 	0.25760 0.83450 0.70571 -0.43500
O 	O 	0.39730 0.94400 0.62430 -0.42400
O 	O 	0.26280 0.91790 0.63903 -0.43600
C 	C 	0.31720 0.94440 0.61680 0.28200
C 	C 	0.27930 0.96730 0.57870 -0.01900
C 	C 	0.19920 0.95680 0.56600 -0.06200
C 	C 	0.33960 0.00690 0.55730 -0.06000
H 	H 	0.16130 0.93350 0.58070 0.05700
C 	C 	0.17030 0.97980 0.53090 0.02400
C 	C 	0.30820 0.03250 0.52380 0.02400
H 	H 	0.39660 0.01420 0.56610 0.03500
C 	C 	0.22300 0.01940 0.51080 -0.07900
N 	N 	0.08790 0.96280 0.51990 -0.19900
H 	H 	0.34360 0.05860 0.50980 0.02500
C 	C 	0.18960 0.05530 0.47660 0.33600
H 	H 	0.06500 0.97690 0.49900 0.11300
H 	H 	0.05880 0.93790 0.53380 0.11900
C 	C 	0.21220 0.73100 0.83260 0.01200
H 	H 	0.10010 0.75800 0.81220 0.03500
H 	H 	0.15190 0.79910 0.75640 0.01900
N 	N 	0.42950 0.74680 0.78530 -0.22200
H 	H 	0.46040 0.72870 0.80250 0.11800
H 	H 	0.45480 0.76160 0.76510 0.12000
C 	C 	0.33830 0.75220 0.79000 0.13700
C 	C 	0.30410 0.72710 0.82330 -0.03700
H 	H 	0.34170 0.70710 0.84010 0.04600
C 	C 	0.28170 0.78450 0.76500 -0.03500
O 	O 	0.89070 0.30540 0.71796 -0.48700
O 	O 	0.75760 0.33450 0.70571 -0.43500
O 	O 	0.89730 0.44400 0.62430 -0.42500
O 	O 	0.76280 0.41790 0.63903 -0.43600
C 	C 	0.81720 0.44440 0.61680 0.28200
C 	C 	0.77930 0.46730 0.57870 -0.01900
C 	C 	0.69920 0.45680 0.56600 -0.06300
C 	C 	0.83960 0.50690 0.55730 -0.06000
H 	H 	0.66130 0.43350 0.58070 0.05700
C 	C 	0.67030 0.47980 0.53090 0.02100
C 	C 	0.80820 0.53250 0.52380 0.02400
H 	H 	0.89660 0.51420 0.56610 0.03500
C 	C 	0.72300 0.51940 0.51080 -0.08000
N 	N 	0.58790 0.46280 0.51990 -0.19800
H 	H 	0.84360 0.55860 0.50980 0.02500
C 	C 	0.68960 0.55530 0.47660 0.33600
H 	H 	0.56500 0.47690 0.49900 0.11300
H 	H 	0.55880 0.43790 0.53380 0.11900
C 	C 	0.71220 0.23100 0.83260 0.01200
H 	H 	0.60010 0.25800 0.81220 0.03500
H 	H 	0.65190 0.29910 0.75640 0.01900
N 	N 	0.92950 0.24680 0.78530 -0.22200
H 	H 	0.96040 0.22870 0.80250 0.11800
H 	H 	0.95480 0.26160 0.76510 0.12000
C 	C 	0.83830 0.25220 0.79000 0.13700
C 	C 	0.80410 0.22710 0.82330 -0.03800
H 	H 	0.84170 0.20710 0.84010 0.04600
C 	C 	0.78170 0.28450 0.76500 -0.03500
O 	O 	0.89070 0.80540 0.21796 -0.48700
O 	O 	0.75760 0.83450 0.20571 -0.43500
O 	O 	0.89730 0.94400 0.12430 -0.42400
O 	O 	0.76280 0.91790 0.13903 -0.43600
C 	C 	0.81720 0.94440 0.11680 0.28200
C 	C 	0.77930 0.96730 0.07870 -0.01900
C 	C 	0.69920 0.95680 0.06600 -0.06600
C 	C 	0.83960 0.00690 0.05730 -0.06100
H 	H 	0.66130 0.93350 0.08070 0.05900
C 	C 	0.67030 0.97980 0.03090 0.01200
C 	C 	0.80820 0.03250 0.02380 0.02500
H 	H 	0.89660 0.01420 0.06610 0.03500
C 	C 	0.72300 0.01940 0.01080 -0.08300
N 	N 	0.58790 0.96280 0.01990 -0.19500
H 	H 	0.84360 0.05860 0.00980 0.02500
C 	C 	0.68960 0.05530 0.97660 0.33700
H 	H 	0.56500 0.97690 0.99900 0.11200
H 	H 	0.55880 0.93790 0.03380 0.11800
C 	C 	0.71220 0.73100 0.33260 0.01200
H 	H 	0.60010 0.75800 0.31220 0.03500
H 	H 	0.65190 0.79910 0.25640 0.01900
N 	N 	0.92950 0.74680 0.28530 -0.22200
H 	H 	0.96040 0.72870 0.30250 0.11800
H 	H 	0.95480 0.76160 0.26510 0.12000
C 	C 	0.83830 0.75220 0.29000 0.13600
C 	C 	0.80410 0.72710 0.32330 -0.03800
H 	H 	0.84170 0.70710 0.34010 0.04600
C 	C 	0.78170 0.78450 0.26500 -0.03600
O 	O 	0.60930 0.55540 0.46796 -0.48700
O 	O 	0.74240 0.58450 0.45571 -0.43500
O 	O 	0.60270 0.69400 0.37430 -0.42400
O 	O 	0.73720 0.66790 0.38903 -0.43600
C 	C 	0.68280 0.69440 0.36680 0.28200
C 	C 	0.72070 0.71730 0.32870 -0.01900
C 	C 	0.80080 0.70680 0.31600 -0.06300
C 	C 	0.66040 0.75690 0.30730 -0.06000
H 	H 	0.83870 0.68350 0.33070 0.05700
C 	C 	0.82970 0.72980 0.28090 0.02100
C 	C 	0.69180 0.78250 0.27380 0.02400
H 	H 	0.60340 0.76420 0.31610 0.03500
C 	C 	0.77700 0.76940 0.26080 -0.08000
N 	N 	0.91210 0.71280 0.26990 -0.19800
H 	H 	0.65640 0.80860 0.25980 0.02500
C 	C 	0.81040 0.80530 0.22660 0.33600
H 	H 	0.93500 0.72690 0.24900 0.11300
H 	H 	0.94120 0.68790 0.28380 0.11900
C 	C 	0.78780 0.48100 0.58260 0.01200
H 	H 	0.89990 0.50800 0.56220 0.03500
H 	H 	0.84810 0.54910 0.50640 0.01900
N 	N 	0.57050 0.49680 0.53530 -0.22200
H 	H 	0.53960 0.47870 0.55250 0.11800
H 	H 	0.54520 0.51160 0.51510 0.12000
C 	C 	0.66170 0.50220 0.54000 0.13600
C 	C 	0.69590 0.47710 0.57330 -0.03800
H 	H 	0.65830 0.45710 0.59010 0.04600
C 	C 	0.71830 0.53450 0.51500 -0.03500
O 	O 	0.60930 0.05540 0.96796 -0.48800
O 	O 	0.74240 0.08450 0.95571 -0.43500
O 	O 	0.60270 0.19400 0.87430 -0.42400
O 	O 	0.73720 0.16790 0.88903 -0.43600
C 	C 	0.68280 0.19440 0.86680 0.28200
C 	C 	0.72070 0.21730 0.82870 -0.01900
C 	C 	0.80080 0.20680 0.81600 -0.06300
C 	C 	0.66040 0.25690 0.80730 -0.06000
H 	H 	0.83870 0.18350 0.83070 0.05700
C 	C 	0.82970 0.22980 0.78090 0.02100
C 	C 	0.69180 0.28250 0.77380 0.02400
H 	H 	0.60340 0.26420 0.81610 0.03500
C 	C 	0.77700 0.26940 0.76080 -0.08000
N 	N 	0.91210 0.21280 0.76990 -0.19800
H 	H 	0.65640 0.30860 0.75980 0.02500
C 	C 	0.81040 0.30530 0.72660 0.33600
H 	H 	0.93500 0.22690 0.74900 0.11300
H 	H 	0.94120 0.18790 0.78380 0.11900
C 	C 	0.78780 0.98100 0.08260 0.01300
H 	H 	0.89990 0.00800 0.06220 0.03500
H 	H 	0.84810 0.04910 0.00640 0.01900
N 	N 	0.57050 0.99680 0.03530 -0.22400
H 	H 	0.53960 0.97870 0.05250 0.11900
H 	H 	0.54520 0.01160 0.01510 0.12000
C 	C 	0.66170 0.00220 0.04000 0.14500
C 	C 	0.69590 0.97710 0.07330 -0.03500
H 	H 	0.65830 0.95710 0.09010 0.04400
C 	C 	0.71830 0.03450 0.01500 -0.03400
O 	O 	0.10930 0.55540 0.96796 -0.48700
O 	O 	0.24240 0.58450 0.95571 -0.43500
O 	O 	0.10270 0.69400 0.87430 -0.42500
O 	O 	0.23720 0.66790 0.88903 -0.43600
C 	C 	0.18280 0.69440 0.86680 0.28200
C 	C 	0.22070 0.71730 0.82870 -0.01900
C 	C 	0.30080 0.70680 0.81600 -0.06300
C 	C 	0.16040 0.75690 0.80730 -0.06000
H 	H 	0.33870 0.68350 0.83070 0.05700
C 	C 	0.32970 0.72980 0.78090 0.02000
C 	C 	0.19180 0.78250 0.77380 0.02400
H 	H 	0.10340 0.76420 0.81610 0.03500
C 	C 	0.27700 0.76940 0.76080 -0.08000
N 	N 	0.41210 0.71280 0.76990 -0.19800
H 	H 	0.15640 0.80860 0.75980 0.02500
C 	C 	0.31040 0.80530 0.72660 0.33600
H 	H 	0.43500 0.72690 0.74900 0.11300
H 	H 	0.44120 0.68790 0.78380 0.11900
C 	C 	0.28780 0.48100 0.08260 0.01200
H 	H 	0.39990 0.50800 0.06220 0.03500
H 	H 	0.34810 0.54910 0.00640 0.01900
N 	N 	0.07050 0.49680 0.03530 -0.22200
H 	H 	0.03960 0.47870 0.05250 0.11800
H 	H 	0.04520 0.51160 0.01510 0.12000
C 	C 	0.16170 0.50220 0.04000 0.13600
C 	C 	0.19590 0.47710 0.07330 -0.03800
H 	H 	0.15830 0.45710 0.09010 0.04600
C 	C 	0.21830 0.53450 0.01500 -0.03500
O 	O 	0.10930 0.05540 0.46796 -0.48700
O 	O 	0.24240 0.08450 0.45571 -0.43500
O 	O 	0.10270 0.19400 0.37430 -0.42500
O 	O 	0.23720 0.16790 0.38903 -0.43600
C 	C 	0.18280 0.19440 0.36680 0.28200
C 	C 	0.22070 0.21730 0.32870 -0.01900
C 	C 	0.30080 0.20680 0.31600 -0.06300
C 	C 	0.16040 0.25690 0.30730 -0.06000
H 	H 	0.33870 0.18350 0.33070 0.05700
C 	C 	0.32970 0.22980 0.28090 0.02100
C 	C 	0.19180 0.28250 0.27380 0.02400
H 	H 	0.10340 0.26420 0.31610 0.03500
C 	C 	0.27700 0.26940 0.26080 -0.08000
N 	N 	0.41210 0.21280 0.26990 -0.19800
H 	H 	0.15640 0.30860 0.25980 0.02500
C 	C 	0.31040 0.30530 0.22660 0.33600
H 	H 	0.43500 0.22690 0.24900 0.11300
H 	H 	0.44120 0.18790 0.28380 0.11900
C 	C 	0.28780 0.98100 0.58260 0.01200
H 	H 	0.39990 0.00800 0.56220 0.03500
H 	H 	0.34810 0.04910 0.50640 0.01900
N 	N 	0.07050 0.99680 0.53530 -0.22200
H 	H 	0.03960 0.97870 0.55250 0.11800
H 	H 	0.04520 0.01160 0.51510 0.12000
C 	C 	0.16170 0.00220 0.54000 0.13400
C 	C 	0.19590 0.97710 0.57330 -0.03900
H 	H 	0.15830 0.95710 0.59010 0.04700
C 	C 	0.21830 0.03450 0.51500 -0.03600
O 	O 	0.64070 0.69460 0.46796 -0.48700
O 	O 	0.50760 0.66550 0.45571 -0.43500
O 	O 	0.64730 0.55600 0.37430 -0.42400
O 	O 	0.51280 0.58210 0.38903 -0.43600
C 	C 	0.56720 0.55560 0.36680 0.28200
C 	C 	0.52930 0.53270 0.32870 -0.01900
C 	C 	0.44920 0.54320 0.31600 -0.06300
C 	C 	0.58960 0.49310 0.30730 -0.06000
H 	H 	0.41130 0.56650 0.33070 0.05700
C 	C 	0.42030 0.52020 0.28090 0.02100
C 	C 	0.55820 0.46750 0.27380 0.02400
H 	H 	0.64660 0.48580 0.31610 0.03500
C 	C 	0.47300 0.48060 0.26080 -0.08000
N 	N 	0.33790 0.53720 0.26990 -0.19800
H 	H 	0.59360 0.44140 0.25980 0.02500
C 	C 	0.43960 0.44470 0.22660 0.33600
H 	H 	0.31500 0.52310 0.24900 0.11300
H 	H 	0.30880 0.56210 0.28380 0.11900
C 	C 	0.46220 0.76900 0.58260 0.01200
H 	H 	0.35010 0.74200 0.56220 0.03500
H 	H 	0.40190 0.70090 0.50640 0.01900
N 	N 	0.67950 0.75320 0.53530 -0.22200
H 	H 	0.71040 0.77130 0.55250 0.11800
H 	H 	0.70480 0.73840 0.51510 0.12000
C 	C 	0.58830 0.74780 0.54000 0.13600
C 	C 	0.55410 0.77290 0.57330 -0.03800
H 	H 	0.59170 0.79290 0.59010 0.04600
C 	C 	0.53170 0.71550 0.51500 -0.03500
O 	O 	0.64070 0.19460 0.96796 -0.48800
O 	O 	0.50760 0.16550 0.95571 -0.43500
O 	O 	0.64730 0.05600 0.87430 -0.42400
O 	O 	0.51280 0.08210 0.88903 -0.43600
C 	C 	0.56720 0.05560 0.86680 0.28200
C 	C 	0.52930 0.03270 0.82870 -0.01900
C 	C 	0.44920 0.04320 0.81600 -0.06500
C 	C 	0.58960 0.99310 0.80730 -0.06000
H 	H 	0.41130 0.06650 0.83070 0.05800
C 	C 	0.42030 0.02020 0.78090 0.01500
C 	C 	0.55820 0.96750 0.77380 0.02400
H 	H 	0.64660 0.98580 0.81610 0.03500
C 	C 	0.47300 0.98060 0.76080 -0.08200
N 	N 	0.33790 0.03720 0.76990 -0.19700
H 	H 	0.59360 0.94140 0.75980 0.02500
C 	C 	0.43960 0.94470 0.72660 0.33600
H 	H 	0.31500 0.02310 0.74900 0.11300
H 	H 	0.30880 0.06210 0.78380 0.11900
C 	C 	0.46220 0.26900 0.08260 0.01200
H 	H 	0.35010 0.24200 0.06220 0.03500
H 	H 	0.40190 0.20090 0.00640 0.01900
N 	N 	0.67950 0.25320 0.03530 -0.22200
H 	H 	0.71040 0.27130 0.05250 0.11800
H 	H 	0.70480 0.23840 0.01510 0.12000
C 	C 	0.58830 0.24780 0.04000 0.13700
C 	C 	0.55410 0.27290 0.07330 -0.03700
H 	H 	0.59170 0.29290 0.09010 0.04600
C 	C 	0.53170 0.21550 0.01500 -0.03500
O 	O 	0.14070 0.69460 0.96796 -0.48700
O 	O 	0.00760 0.66550 0.95571 -0.43500
O 	O 	0.14730 0.55600 0.87430 -0.42400
O 	O 	0.01280 0.58210 0.88903 -0.43600
C 	C 	0.06720 0.55560 0.86680 0.28200
C 	C 	0.02930 0.53270 0.82870 -0.01900
C 	C 	0.94920 0.54320 0.81600 -0.06300
C 	C 	0.08960 0.49310 0.80730 -0.06000
H 	H 	0.91130 0.56650 0.83070 0.05700
C 	C 	0.92030 0.52020 0.78090 0.02100
C 	C 	0.05820 0.46750 0.77380 0.02400
H 	H 	0.14660 0.48580 0.81610 0.03500
C 	C 	0.97300 0.48060 0.76080 -0.08000
N 	N 	0.83790 0.53720 0.76990 -0.19800
H 	H 	0.09360 0.44140 0.75980 0.02500
C 	C 	0.93960 0.44470 0.72660 0.33600
H 	H 	0.81500 0.52310 0.74900 0.11300
H 	H 	0.80880 0.56210 0.78380 0.11900
C 	C 	0.96220 0.76900 0.08260 0.01200
H 	H 	0.85010 0.74200 0.06220 0.03500
H 	H 	0.90190 0.70090 0.00640 0.01900
N 	N 	0.17950 0.75320 0.03530 -0.22200
H 	H 	0.21040 0.77130 0.05250 0.11800
H 	H 	0.20480 0.73840 0.01510 0.12000
C 	C 	0.08830 0.74780 0.04000 0.13600
C 	C 	0.05410 0.77290 0.07330 -0.03800
H 	H 	0.09170 0.79290 0.09010 0.04600
C 	C 	0.03170 0.71550 0.01500 -0.03500
O 	O 	0.14070 0.19460 0.46796 -0.48700
O 	O 	0.00760 0.16550 0.45571 -0.43500
O 	O 	0.14730 0.05600 0.37430 -0.42400
O 	O 	0.01280 0.08210 0.38903 -0.43600
C 	C 	0.06720 0.05560 0.36680 0.28200
C 	C 	0.02930 0.03270 0.32870 -0.01900
C 	C 	0.94920 0.04320 0.31600 -0.06100
C 	C 	0.08960 0.99310 0.30730 -0.06000
H 	H 	0.91130 0.06650 0.33070 0.05600
C 	C 	0.92030 0.02020 0.28090 0.02700
C 	C 	0.05820 0.96750 0.27380 0.02400
H 	H 	0.14660 0.98580 0.31610 0.03500
C 	C 	0.97300 0.98060 0.26080 -0.07800
N 	N 	0.83790 0.03720 0.26990 -0.19900
H 	H 	0.09360 0.94140 0.25980 0.02500
C 	C 	0.93960 0.94470 0.22660 0.33600
H 	H 	0.81500 0.02310 0.24900 0.11300
H 	H 	0.80880 0.06210 0.28380 0.11900
C 	C 	0.96220 0.26900 0.58260 0.01200
H 	H 	0.85010 0.24200 0.56220 0.03500
H 	H 	0.90190 0.20090 0.50640 0.01900
N 	N 	0.17950 0.25320 0.53530 -0.22200
H 	H 	0.21040 0.27130 0.55250 0.11800
H 	H 	0.20480 0.23840 0.51510 0.12000
C 	C 	0.08830 0.24780 0.54000 0.13500
C 	C 	0.05410 0.27290 0.57330 -0.03800
H 	H 	0.09170 0.29290 0.59010 0.04600
C 	C 	0.03170 0.21550 0.51500 -0.03600
In	In	0.37500 0.37500 0.17224 1.99700
In	In	0.37500 0.87500 0.67224 1.99700
In	In	0.87500 0.37500 0.67224 1.99700
In	In	0.87500 0.87500 0.17224 1.99700
In	In	0.62500 0.62500 0.42224 1.99700
In	In	0.62500 0.12500 0.92224 1.99700
In	In	0.12500 0.62500 0.92224 1.99700
In	In	0.12500 0.12500 0.42224 1.99700
