data_crystal

_cell_length_a 18.68810
_cell_length_b 18.68810
_cell_length_c 50.64370
_cell_angle_alpha 90.00000
_cell_angle_beta  90.00000
_cell_angle_gamma 90.00000

_symmetry_space_group_name_	'P 1'
_symmetry_space_group_name_H-M	'P 1'

loop_
_symmetry_equiv_pos_as_xyz
  x,y,z

loop_
_atom_site_label
_atom_site_type_symbol
_atom_site_fract_x
_atom_site_fract_y
_atom_site_fract_z
_atom_site_charge
O 	O 	0.76379 0.13134 0.74707 -0.40000
O 	O 	0.70713 0.18976 0.71416 -0.40200
C 	C 	0.62990 0.04750 0.60106 -0.03600
H 	H 	0.64220 0.08220 0.58870 0.04800
C 	C 	0.66510 0.04720 0.62600 -0.04800
H 	H 	0.70150 0.08000 0.62930 0.04900
C 	C 	0.69030 0.06479 0.68542 -0.01600
H 	H 	0.68130 0.10810 0.67700 0.05000
C 	C 	0.71837 0.06469 0.71123 -0.07700
C 	C 	0.73038 0.13442 0.72512 0.34800
C 	C 	0.56440 0.05930 0.61291 -0.03400
H 	H 	0.53440 0.09660 0.60790 0.03700
C 	C 	0.59640 0.05750 0.63788 -0.04900
H 	H 	0.58590 0.09310 0.65010 0.04900
O 	O 	0.26379 0.63134 0.24707 -0.40000
O 	O 	0.20713 0.68976 0.21416 -0.40200
C 	C 	0.12990 0.54750 0.10106 -0.03600
H 	H 	0.14220 0.58220 0.08870 0.04800
C 	C 	0.16510 0.54720 0.12600 -0.04700
H 	H 	0.20150 0.58000 0.12930 0.04800
C 	C 	0.19030 0.56479 0.18542 -0.01500
H 	H 	0.18130 0.60810 0.17700 0.05000
C 	C 	0.21837 0.56469 0.21123 -0.08000
C 	C 	0.23038 0.63442 0.22512 0.34800
C 	C 	0.06440 0.55930 0.11291 -0.03600
H 	H 	0.03440 0.59660 0.10790 0.03500
C 	C 	0.09640 0.55750 0.13788 -0.05000
H 	H 	0.08590 0.59310 0.15010 0.04800
O 	O 	0.23621 0.86866 0.74707 -0.40000
O 	O 	0.29287 0.81024 0.71416 -0.40300
C 	C 	0.37010 0.95250 0.60106 -0.03400
H 	H 	0.35780 0.91780 0.58870 0.04700
C 	C 	0.33490 0.95280 0.62600 -0.04600
H 	H 	0.29850 0.92000 0.62930 0.04700
C 	C 	0.30970 0.93521 0.68542 -0.01400
H 	H 	0.31870 0.89190 0.67700 0.04900
C 	C 	0.28163 0.93531 0.71123 -0.07600
C 	C 	0.26962 0.86558 0.72512 0.34700
C 	C 	0.43560 0.94070 0.61291 -0.03400
H 	H 	0.46560 0.90340 0.60790 0.03600
C 	C 	0.40360 0.94250 0.63788 -0.04900
H 	H 	0.41410 0.90690 0.65010 0.04800
O 	O 	0.73621 0.36866 0.24707 -0.40100
O 	O 	0.79287 0.31024 0.21416 -0.40300
C 	C 	0.87010 0.45250 0.10106 -0.03600
H 	H 	0.85780 0.41780 0.08870 0.04700
C 	C 	0.83490 0.45280 0.12600 -0.04900
H 	H 	0.79850 0.42000 0.12930 0.04800
C 	C 	0.80970 0.43521 0.18542 -0.01600
H 	H 	0.81870 0.39190 0.17700 0.04900
C 	C 	0.78163 0.43531 0.21123 -0.07900
C 	C 	0.76962 0.36558 0.22512 0.34800
C 	C 	0.93560 0.44070 0.11291 -0.03500
H 	H 	0.96560 0.40340 0.10790 0.03700
C 	C 	0.90360 0.44250 0.13788 -0.05000
H 	H 	0.91410 0.40690 0.15010 0.04900
O 	O 	0.86866 0.76379 0.74707 -0.40000
O 	O 	0.81024 0.70713 0.71416 -0.40300
C 	C 	0.95250 0.62990 0.60106 -0.03300
H 	H 	0.91780 0.64220 0.58870 0.04700
C 	C 	0.95280 0.66510 0.62600 -0.04600
H 	H 	0.92000 0.70150 0.62930 0.04800
C 	C 	0.93521 0.69030 0.68542 -0.01400
H 	H 	0.89190 0.68130 0.67700 0.04900
C 	C 	0.93531 0.71837 0.71123 -0.07600
C 	C 	0.86558 0.73038 0.72512 0.34700
C 	C 	0.94070 0.56440 0.61291 -0.03400
H 	H 	0.90340 0.53440 0.60790 0.03600
C 	C 	0.94250 0.59640 0.63788 -0.04900
H 	H 	0.90690 0.58590 0.65010 0.04800
O 	O 	0.36866 0.26379 0.24707 -0.40100
O 	O 	0.31024 0.20713 0.21416 -0.40400
C 	C 	0.45250 0.12990 0.10106 -0.03700
H 	H 	0.41780 0.14220 0.08870 0.04700
C 	C 	0.45280 0.16510 0.12600 -0.04800
H 	H 	0.42000 0.20150 0.12930 0.04700
C 	C 	0.43521 0.19030 0.18542 -0.01600
H 	H 	0.39190 0.18130 0.17700 0.04900
C 	C 	0.43531 0.21837 0.21123 -0.08000
C 	C 	0.36558 0.23038 0.22512 0.34800
C 	C 	0.44070 0.06440 0.11291 -0.03600
H 	H 	0.40340 0.03440 0.10790 0.03500
C 	C 	0.44250 0.09640 0.13788 -0.05000
H 	H 	0.40690 0.08590 0.15010 0.04800
O 	O 	0.13134 0.23621 0.74707 -0.40200
O 	O 	0.18976 0.29287 0.71416 -0.40300
C 	C 	0.04750 0.37010 0.60106 -0.03700
H 	H 	0.08220 0.35780 0.58870 0.04700
C 	C 	0.04720 0.33490 0.62600 -0.04900
H 	H 	0.08000 0.29850 0.62930 0.04700
C 	C 	0.06479 0.30970 0.68542 -0.01700
H 	H 	0.10810 0.31870 0.67700 0.04900
C 	C 	0.06469 0.28163 0.71123 -0.07900
C 	C 	0.13442 0.26962 0.72512 0.34700
C 	C 	0.05930 0.43560 0.61291 -0.03500
H 	H 	0.09660 0.46560 0.60790 0.03600
C 	C 	0.05750 0.40360 0.63788 -0.05000
H 	H 	0.09310 0.41410 0.65010 0.04800
O 	O 	0.63134 0.73621 0.24707 -0.40100
O 	O 	0.68976 0.79287 0.21416 -0.40300
C 	C 	0.54750 0.87010 0.10106 -0.03700
H 	H 	0.58220 0.85780 0.08870 0.04700
C 	C 	0.54720 0.83490 0.12600 -0.04900
H 	H 	0.58000 0.79850 0.12930 0.04800
C 	C 	0.56479 0.80970 0.18542 -0.01600
H 	H 	0.60810 0.81870 0.17700 0.04900
C 	C 	0.56469 0.78163 0.21123 -0.07900
C 	C 	0.63442 0.76962 0.22512 0.34800
C 	C 	0.55930 0.93560 0.11291 -0.03500
H 	H 	0.59660 0.96560 0.10790 0.03800
C 	C 	0.55750 0.90360 0.13788 -0.05000
H 	H 	0.59310 0.91410 0.15010 0.04900
O 	O 	0.23621 0.13134 0.25293 -0.40200
O 	O 	0.29287 0.18976 0.28584 -0.40300
C 	C 	0.37010 0.04750 0.39894 -0.03700
H 	H 	0.35780 0.08220 0.41130 0.04700
C 	C 	0.33490 0.04720 0.37400 -0.04900
H 	H 	0.29850 0.08000 0.37070 0.04700
C 	C 	0.30970 0.06479 0.31458 -0.01700
H 	H 	0.31870 0.10810 0.32300 0.04900
C 	C 	0.28163 0.06469 0.28877 -0.07900
C 	C 	0.26962 0.13442 0.27488 0.34700
C 	C 	0.43560 0.05930 0.38709 -0.03500
H 	H 	0.46560 0.09660 0.39210 0.03600
C 	C 	0.40360 0.05750 0.36212 -0.05000
H 	H 	0.41410 0.09310 0.34990 0.04800
O 	O 	0.73621 0.63134 0.75293 -0.40100
O 	O 	0.79287 0.68976 0.78584 -0.40300
C 	C 	0.87010 0.54750 0.89894 -0.03700
H 	H 	0.85780 0.58220 0.91130 0.04700
C 	C 	0.83490 0.54720 0.87400 -0.04900
H 	H 	0.79850 0.58000 0.87070 0.04800
C 	C 	0.80970 0.56479 0.81458 -0.01600
H 	H 	0.81870 0.60810 0.82300 0.04900
C 	C 	0.78163 0.56469 0.78877 -0.07900
C 	C 	0.76962 0.63442 0.77488 0.34800
C 	C 	0.93560 0.55930 0.88709 -0.03500
H 	H 	0.96560 0.59660 0.89210 0.03800
C 	C 	0.90360 0.55750 0.86212 -0.05000
H 	H 	0.91410 0.59310 0.84990 0.04900
O 	O 	0.76379 0.86866 0.25293 -0.40000
O 	O 	0.70713 0.81024 0.28584 -0.40300
C 	C 	0.62990 0.95250 0.39894 -0.03300
H 	H 	0.64220 0.91780 0.41130 0.04700
C 	C 	0.66510 0.95280 0.37400 -0.04600
H 	H 	0.70150 0.92000 0.37070 0.04800
C 	C 	0.69030 0.93521 0.31458 -0.01400
H 	H 	0.68130 0.89190 0.32300 0.04900
C 	C 	0.71837 0.93531 0.28877 -0.07600
C 	C 	0.73038 0.86558 0.27488 0.34700
C 	C 	0.56440 0.94070 0.38709 -0.03400
H 	H 	0.53440 0.90340 0.39210 0.03600
C 	C 	0.59640 0.94250 0.36212 -0.04900
H 	H 	0.58590 0.90690 0.34990 0.04800
O 	O 	0.26379 0.36866 0.75293 -0.40100
O 	O 	0.20713 0.31024 0.78584 -0.40400
C 	C 	0.12990 0.45250 0.89894 -0.03700
H 	H 	0.14220 0.41780 0.91130 0.04700
C 	C 	0.16510 0.45280 0.87400 -0.04800
H 	H 	0.20150 0.42000 0.87070 0.04700
C 	C 	0.19030 0.43521 0.81458 -0.01600
H 	H 	0.18130 0.39190 0.82300 0.04900
C 	C 	0.21837 0.43531 0.78877 -0.08000
C 	C 	0.23038 0.36558 0.77488 0.34800
C 	C 	0.06440 0.44070 0.88709 -0.03600
H 	H 	0.03440 0.40340 0.89210 0.03500
C 	C 	0.09640 0.44250 0.86212 -0.05000
H 	H 	0.08590 0.40690 0.84990 0.04800
O 	O 	0.13134 0.76379 0.25293 -0.40100
O 	O 	0.18976 0.70713 0.28584 -0.40300
C 	C 	0.04750 0.62990 0.39894 -0.03700
H 	H 	0.08220 0.64220 0.41130 0.04700
C 	C 	0.04720 0.66510 0.37400 -0.04900
H 	H 	0.08000 0.70150 0.37070 0.04800
C 	C 	0.06479 0.69030 0.31458 -0.01700
H 	H 	0.10810 0.68130 0.32300 0.04900
C 	C 	0.06469 0.71837 0.28877 -0.07800
C 	C 	0.13442 0.73038 0.27488 0.34700
C 	C 	0.05930 0.56440 0.38709 -0.03500
H 	H 	0.09660 0.53440 0.39210 0.03600
C 	C 	0.05750 0.59640 0.36212 -0.05000
H 	H 	0.09310 0.58590 0.34990 0.04800
O 	O 	0.63134 0.26379 0.75293 -0.40100
O 	O 	0.68976 0.20713 0.78584 -0.40300
C 	C 	0.54750 0.12990 0.89894 -0.03700
H 	H 	0.58220 0.14220 0.91130 0.04700
C 	C 	0.54720 0.16510 0.87400 -0.04800
H 	H 	0.58000 0.20150 0.87070 0.04700
C 	C 	0.56479 0.19030 0.81458 -0.01600
H 	H 	0.60810 0.18130 0.82300 0.04900
C 	C 	0.56469 0.21837 0.78877 -0.08000
C 	C 	0.63442 0.23038 0.77488 0.34800
C 	C 	0.55930 0.06440 0.88709 -0.03600
H 	H 	0.59660 0.03440 0.89210 0.03500
C 	C 	0.55750 0.09640 0.86212 -0.05000
H 	H 	0.59310 0.08590 0.84990 0.04800
O 	O 	0.86866 0.23621 0.25293 -0.40000
O 	O 	0.81024 0.29287 0.28584 -0.40300
C 	C 	0.95250 0.37010 0.39894 -0.03400
H 	H 	0.91780 0.35780 0.41130 0.04700
C 	C 	0.95280 0.33490 0.37400 -0.04600
H 	H 	0.92000 0.29850 0.37070 0.04700
C 	C 	0.93521 0.30970 0.31458 -0.01400
H 	H 	0.89190 0.31870 0.32300 0.04900
C 	C 	0.93531 0.28163 0.28877 -0.07600
C 	C 	0.86558 0.26962 0.27488 0.34700
C 	C 	0.94070 0.43560 0.38709 -0.03400
H 	H 	0.90340 0.46560 0.39210 0.03600
C 	C 	0.94250 0.40360 0.36212 -0.04900
H 	H 	0.90690 0.41410 0.34990 0.04800
O 	O 	0.36866 0.73621 0.75293 -0.40100
O 	O 	0.31024 0.79287 0.78584 -0.40300
C 	C 	0.45250 0.87010 0.89894 -0.03600
H 	H 	0.41780 0.85780 0.91130 0.04700
C 	C 	0.45280 0.83490 0.87400 -0.04900
H 	H 	0.42000 0.79850 0.87070 0.04800
C 	C 	0.43521 0.80970 0.81458 -0.01600
H 	H 	0.39190 0.81870 0.82300 0.04900
C 	C 	0.43531 0.78163 0.78877 -0.07900
C 	C 	0.36558 0.76962 0.77488 0.34800
C 	C 	0.44070 0.93560 0.88709 -0.03500
H 	H 	0.40340 0.96560 0.89210 0.03700
C 	C 	0.44250 0.90360 0.86212 -0.05000
H 	H 	0.40690 0.91410 0.84990 0.04900
O 	O 	0.23621 0.86866 0.25293 -0.40000
O 	O 	0.29287 0.81024 0.28584 -0.40300
C 	C 	0.37010 0.95250 0.39894 -0.03400
H 	H 	0.35780 0.91780 0.41130 0.04700
C 	C 	0.33490 0.95280 0.37400 -0.04600
H 	H 	0.29850 0.92000 0.37070 0.04700
C 	C 	0.30970 0.93521 0.31458 -0.01400
H 	H 	0.31870 0.89190 0.32300 0.04900
C 	C 	0.28163 0.93531 0.28877 -0.07600
C 	C 	0.26962 0.86558 0.27488 0.34700
C 	C 	0.43560 0.94070 0.38709 -0.03400
H 	H 	0.46560 0.90340 0.39210 0.03600
C 	C 	0.40360 0.94250 0.36212 -0.04900
H 	H 	0.41410 0.90690 0.34990 0.04800
O 	O 	0.73621 0.36866 0.75293 -0.40100
O 	O 	0.79287 0.31024 0.78584 -0.40300
C 	C 	0.87010 0.45250 0.89894 -0.03600
H 	H 	0.85780 0.41780 0.91130 0.04700
C 	C 	0.83490 0.45280 0.87400 -0.04900
H 	H 	0.79850 0.42000 0.87070 0.04800
C 	C 	0.80970 0.43521 0.81458 -0.01600
H 	H 	0.81870 0.39190 0.82300 0.04900
C 	C 	0.78163 0.43531 0.78877 -0.07900
C 	C 	0.76962 0.36558 0.77488 0.34800
C 	C 	0.93560 0.44070 0.88709 -0.03500
H 	H 	0.96560 0.40340 0.89210 0.03700
C 	C 	0.90360 0.44250 0.86212 -0.05000
H 	H 	0.91410 0.40690 0.84990 0.04900
O 	O 	0.76379 0.13134 0.25293 -0.40100
O 	O 	0.70713 0.18976 0.28584 -0.40300
C 	C 	0.62990 0.04750 0.39894 -0.03700
H 	H 	0.64220 0.08220 0.41130 0.04700
C 	C 	0.66510 0.04720 0.37400 -0.04900
H 	H 	0.70150 0.08000 0.37070 0.04800
C 	C 	0.69030 0.06479 0.31458 -0.01700
H 	H 	0.68130 0.10810 0.32300 0.04900
C 	C 	0.71837 0.06469 0.28877 -0.07800
C 	C 	0.73038 0.13442 0.27488 0.34700
C 	C 	0.56440 0.05930 0.38709 -0.03500
H 	H 	0.53440 0.09660 0.39210 0.03600
C 	C 	0.59640 0.05750 0.36212 -0.05000
H 	H 	0.58590 0.09310 0.34990 0.04800
O 	O 	0.26379 0.63134 0.75293 -0.40100
O 	O 	0.20713 0.68976 0.78584 -0.40300
C 	C 	0.12990 0.54750 0.89894 -0.03700
H 	H 	0.14220 0.58220 0.91130 0.04700
C 	C 	0.16510 0.54720 0.87400 -0.04800
H 	H 	0.20150 0.58000 0.87070 0.04700
C 	C 	0.19030 0.56479 0.81458 -0.01600
H 	H 	0.18130 0.60810 0.82300 0.04900
C 	C 	0.21837 0.56469 0.78877 -0.08000
C 	C 	0.23038 0.63442 0.77488 0.34800
C 	C 	0.06440 0.55930 0.88709 -0.03600
H 	H 	0.03440 0.59660 0.89210 0.03500
C 	C 	0.09640 0.55750 0.86212 -0.05000
H 	H 	0.08590 0.59310 0.84990 0.04800
O 	O 	0.13134 0.23621 0.25293 -0.40200
O 	O 	0.18976 0.29287 0.28584 -0.40300
C 	C 	0.04750 0.37010 0.39894 -0.03700
H 	H 	0.08220 0.35780 0.41130 0.04700
C 	C 	0.04720 0.33490 0.37400 -0.04900
H 	H 	0.08000 0.29850 0.37070 0.04700
C 	C 	0.06479 0.30970 0.31458 -0.01700
H 	H 	0.10810 0.31870 0.32300 0.04900
C 	C 	0.06469 0.28163 0.28877 -0.07900
C 	C 	0.13442 0.26962 0.27488 0.34700
C 	C 	0.05930 0.43560 0.38709 -0.03500
H 	H 	0.09660 0.46560 0.39210 0.03600
C 	C 	0.05750 0.40360 0.36212 -0.05000
H 	H 	0.09310 0.41410 0.34990 0.04800
O 	O 	0.63134 0.73621 0.75293 -0.40100
O 	O 	0.68976 0.79287 0.78584 -0.40300
C 	C 	0.54750 0.87010 0.89894 -0.03700
H 	H 	0.58220 0.85780 0.91130 0.04700
C 	C 	0.54720 0.83490 0.87400 -0.04900
H 	H 	0.58000 0.79850 0.87070 0.04800
C 	C 	0.56479 0.80970 0.81458 -0.01600
H 	H 	0.60810 0.81870 0.82300 0.04900
C 	C 	0.56469 0.78163 0.78877 -0.07900
C 	C 	0.63442 0.76962 0.77488 0.34800
C 	C 	0.55930 0.93560 0.88709 -0.03500
H 	H 	0.59660 0.96560 0.89210 0.03800
C 	C 	0.55750 0.90360 0.86212 -0.05000
H 	H 	0.59310 0.91410 0.84990 0.04900
O 	O 	0.86866 0.76379 0.25293 -0.40000
O 	O 	0.81024 0.70713 0.28584 -0.40300
C 	C 	0.95250 0.62990 0.39894 -0.03300
H 	H 	0.91780 0.64220 0.41130 0.04700
C 	C 	0.95280 0.66510 0.37400 -0.04600
H 	H 	0.92000 0.70150 0.37070 0.04800
C 	C 	0.93521 0.69030 0.31458 -0.01400
H 	H 	0.89190 0.68130 0.32300 0.04900
C 	C 	0.93531 0.71837 0.28877 -0.07600
C 	C 	0.86558 0.73038 0.27488 0.34700
C 	C 	0.94070 0.56440 0.38709 -0.03400
H 	H 	0.90340 0.53440 0.39210 0.03600
C 	C 	0.94250 0.59640 0.36212 -0.04900
H 	H 	0.90690 0.58590 0.34990 0.04800
O 	O 	0.36866 0.26379 0.75293 -0.40100
O 	O 	0.31024 0.20713 0.78584 -0.40400
C 	C 	0.45250 0.12990 0.89894 -0.03700
H 	H 	0.41780 0.14220 0.91130 0.04700
C 	C 	0.45280 0.16510 0.87400 -0.04800
H 	H 	0.42000 0.20150 0.87070 0.04700
C 	C 	0.43521 0.19030 0.81458 -0.01600
H 	H 	0.39190 0.18130 0.82300 0.04900
C 	C 	0.43531 0.21837 0.78877 -0.08000
C 	C 	0.36558 0.23038 0.77488 0.34800
C 	C 	0.44070 0.06440 0.88709 -0.03600
H 	H 	0.40340 0.03440 0.89210 0.03500
C 	C 	0.44250 0.09640 0.86212 -0.05000
H 	H 	0.40690 0.08590 0.84990 0.04800
O 	O 	0.76379 0.86866 0.74707 -0.40000
O 	O 	0.70713 0.81024 0.71416 -0.40300
C 	C 	0.62990 0.95250 0.60106 -0.03300
H 	H 	0.64220 0.91780 0.58870 0.04700
C 	C 	0.66510 0.95280 0.62600 -0.04600
H 	H 	0.70150 0.92000 0.62930 0.04800
C 	C 	0.69030 0.93521 0.68542 -0.01400
H 	H 	0.68130 0.89190 0.67700 0.04900
C 	C 	0.71837 0.93531 0.71123 -0.07600
C 	C 	0.73038 0.86558 0.72512 0.34700
C 	C 	0.56440 0.94070 0.61291 -0.03400
H 	H 	0.53440 0.90340 0.60790 0.03600
C 	C 	0.59640 0.94250 0.63788 -0.04900
H 	H 	0.58590 0.90690 0.65010 0.04800
O 	O 	0.26379 0.36866 0.24707 -0.40100
O 	O 	0.20713 0.31024 0.21416 -0.40400
C 	C 	0.12990 0.45250 0.10106 -0.03700
H 	H 	0.14220 0.41780 0.08870 0.04700
C 	C 	0.16510 0.45280 0.12600 -0.04800
H 	H 	0.20150 0.42000 0.12930 0.04700
C 	C 	0.19030 0.43521 0.18542 -0.01600
H 	H 	0.18130 0.39190 0.17700 0.04900
C 	C 	0.21837 0.43531 0.21123 -0.08000
C 	C 	0.23038 0.36558 0.22512 0.34800
C 	C 	0.06440 0.44070 0.11291 -0.03600
H 	H 	0.03440 0.40340 0.10790 0.03500
C 	C 	0.09640 0.44250 0.13788 -0.05000
H 	H 	0.08590 0.40690 0.15010 0.04800
O 	O 	0.23621 0.13134 0.74707 -0.40200
O 	O 	0.29287 0.18976 0.71416 -0.40300
C 	C 	0.37010 0.04750 0.60106 -0.03700
H 	H 	0.35780 0.08220 0.58870 0.04700
C 	C 	0.33490 0.04720 0.62600 -0.04900
H 	H 	0.29850 0.08000 0.62930 0.04700
C 	C 	0.30970 0.06479 0.68542 -0.01700
H 	H 	0.31870 0.10810 0.67700 0.04900
C 	C 	0.28163 0.06469 0.71123 -0.07900
C 	C 	0.26962 0.13442 0.72512 0.34700
C 	C 	0.43560 0.05930 0.61291 -0.03500
H 	H 	0.46560 0.09660 0.60790 0.03600
C 	C 	0.40360 0.05750 0.63788 -0.05000
H 	H 	0.41410 0.09310 0.65010 0.04800
O 	O 	0.73621 0.63134 0.24707 -0.40100
O 	O 	0.79287 0.68976 0.21416 -0.40300
C 	C 	0.87010 0.54750 0.10106 -0.03700
H 	H 	0.85780 0.58220 0.08870 0.04700
C 	C 	0.83490 0.54720 0.12600 -0.04900
H 	H 	0.79850 0.58000 0.12930 0.04800
C 	C 	0.80970 0.56479 0.18542 -0.01600
H 	H 	0.81870 0.60810 0.17700 0.04900
C 	C 	0.78163 0.56469 0.21123 -0.07900
C 	C 	0.76962 0.63442 0.22512 0.34800
C 	C 	0.93560 0.55930 0.11291 -0.03500
H 	H 	0.96560 0.59660 0.10790 0.03800
C 	C 	0.90360 0.55750 0.13788 -0.05000
H 	H 	0.91410 0.59310 0.15010 0.04900
O 	O 	0.86866 0.23621 0.74707 -0.40000
O 	O 	0.81024 0.29287 0.71416 -0.40300
C 	C 	0.95250 0.37010 0.60106 -0.03400
H 	H 	0.91780 0.35780 0.58870 0.04700
C 	C 	0.95280 0.33490 0.62600 -0.04600
H 	H 	0.92000 0.29850 0.62930 0.04700
C 	C 	0.93521 0.30970 0.68542 -0.01400
H 	H 	0.89190 0.31870 0.67700 0.04900
C 	C 	0.93531 0.28163 0.71123 -0.07600
C 	C 	0.86558 0.26962 0.72512 0.34700
C 	C 	0.94070 0.43560 0.61291 -0.03400
H 	H 	0.90340 0.46560 0.60790 0.03600
C 	C 	0.94250 0.40360 0.63788 -0.04900
H 	H 	0.90690 0.41410 0.65010 0.04800
O 	O 	0.36866 0.73621 0.24707 -0.40100
O 	O 	0.31024 0.79287 0.21416 -0.40300
C 	C 	0.45250 0.87010 0.10106 -0.03600
H 	H 	0.41780 0.85780 0.08870 0.04700
C 	C 	0.45280 0.83490 0.12600 -0.04900
H 	H 	0.42000 0.79850 0.12930 0.04800
C 	C 	0.43521 0.80970 0.18542 -0.01600
H 	H 	0.39190 0.81870 0.17700 0.04900
C 	C 	0.43531 0.78163 0.21123 -0.07900
C 	C 	0.36558 0.76962 0.22512 0.34800
C 	C 	0.44070 0.93560 0.11291 -0.03500
H 	H 	0.40340 0.96560 0.10790 0.03700
C 	C 	0.44250 0.90360 0.13788 -0.05000
H 	H 	0.40690 0.91410 0.15010 0.04900
O 	O 	0.13134 0.76379 0.74707 -0.40100
O 	O 	0.18976 0.70713 0.71416 -0.40300
C 	C 	0.04750 0.62990 0.60106 -0.03700
H 	H 	0.08220 0.64220 0.58870 0.04700
C 	C 	0.04720 0.66510 0.62600 -0.04900
H 	H 	0.08000 0.70150 0.62930 0.04800
C 	C 	0.06479 0.69030 0.68542 -0.01700
H 	H 	0.10810 0.68130 0.67700 0.04900
C 	C 	0.06469 0.71837 0.71123 -0.07800
C 	C 	0.13442 0.73038 0.72512 0.34700
C 	C 	0.05930 0.56440 0.61291 -0.03500
H 	H 	0.09660 0.53440 0.60790 0.03600
C 	C 	0.05750 0.59640 0.63788 -0.05000
H 	H 	0.09310 0.58590 0.65010 0.04800
O 	O 	0.63134 0.26379 0.24707 -0.40100
O 	O 	0.68976 0.20713 0.21416 -0.40300
C 	C 	0.54750 0.12990 0.10106 -0.03700
H 	H 	0.58220 0.14220 0.08870 0.04700
C 	C 	0.54720 0.16510 0.12600 -0.04800
H 	H 	0.58000 0.20150 0.12930 0.04700
C 	C 	0.56479 0.19030 0.18542 -0.01600
H 	H 	0.60810 0.18130 0.17700 0.04900
C 	C 	0.56469 0.21837 0.21123 -0.08000
C 	C 	0.63442 0.23038 0.22512 0.34800
C 	C 	0.55930 0.06440 0.11291 -0.03600
H 	H 	0.59660 0.03440 0.10790 0.03500
C 	C 	0.55750 0.09640 0.13788 -0.05000
H 	H 	0.59310 0.08590 0.15010 0.04800
Cu	Cu	0.71514 0.28486 0.73083 0.90100
Cu	Cu	0.21514 0.78486 0.23083 0.90100
Cu	Cu	0.28486 0.71514 0.73083 0.90100
Cu	Cu	0.78486 0.21514 0.23083 0.90100
Cu	Cu	0.71514 0.71514 0.73083 0.90100
Cu	Cu	0.21514 0.21514 0.23083 0.90100
Cu	Cu	0.28486 0.28486 0.73083 0.90100
Cu	Cu	0.78486 0.78486 0.23083 0.90200
Cu	Cu	0.28486 0.28486 0.26917 0.90100
Cu	Cu	0.78486 0.78486 0.76917 0.90200
Cu	Cu	0.71514 0.71514 0.26917 0.90100
Cu	Cu	0.21514 0.21514 0.76917 0.90100
Cu	Cu	0.28486 0.71514 0.26917 0.90100
Cu	Cu	0.78486 0.21514 0.76917 0.90100
Cu	Cu	0.71514 0.28486 0.26917 0.90100
Cu	Cu	0.21514 0.78486 0.76917 0.90100
N 	N 	0.57580 0.00000 0.54741 -0.12000
C 	C 	0.53790 0.00000 0.52409 0.06600
C 	C 	0.53810 0.00000 0.56953 0.02600
C 	C 	0.58020 0.00000 0.59505 0.02400
C 	C 	0.64640 0.00000 0.64487 0.04400
C 	C 	0.67580 0.00000 0.67225 -0.02000
C 	C 	0.73280 0.00000 0.72369 0.01800
H 	H 	0.75240 0.00000 0.74060 0.05300
N 	N 	0.07580 0.50000 0.04741 -0.11900
C 	C 	0.03790 0.50000 0.02409 0.06100
C 	C 	0.03810 0.50000 0.06953 0.02100
C 	C 	0.08020 0.50000 0.09505 0.03000
C 	C 	0.14640 0.50000 0.14487 0.04700
C 	C 	0.17580 0.50000 0.17225 -0.01800
C 	C 	0.23280 0.50000 0.22369 0.02300
H 	H 	0.25240 0.50000 0.24060 0.05200
N 	N 	0.42420 0.00000 0.54741 -0.12100
C 	C 	0.46210 0.00000 0.52409 0.06600
C 	C 	0.46190 0.00000 0.56953 0.02600
C 	C 	0.41980 0.00000 0.59505 0.02400
C 	C 	0.35360 0.00000 0.64487 0.04400
C 	C 	0.32420 0.00000 0.67225 -0.02000
C 	C 	0.26720 0.00000 0.72369 0.01800
H 	H 	0.24760 0.00000 0.74060 0.05300
N 	N 	0.92420 0.50000 0.04741 -0.12100
C 	C 	0.96210 0.50000 0.02409 0.07200
C 	C 	0.96190 0.50000 0.06953 0.03000
C 	C 	0.91980 0.50000 0.09505 0.02800
C 	C 	0.85360 0.50000 0.14487 0.04800
C 	C 	0.82420 0.50000 0.17225 -0.01800
C 	C 	0.76720 0.50000 0.22369 0.02300
H 	H 	0.74760 0.50000 0.24060 0.05300
N 	N 	0.00000 0.57580 0.54741 -0.12000
C 	C 	-0.00000 0.53790 0.52409 0.06600
C 	C 	-0.00000 0.53810 0.56953 0.02600
C 	C 	0.00000 0.58020 0.59505 0.02400
C 	C 	-0.00000 0.64640 0.64487 0.04400
C 	C 	-0.00000 0.67580 0.67225 -0.02000
C 	C 	0.00000 0.73280 0.72369 0.01800
H 	H 	0.00000 0.75240 0.74060 0.05300
N 	N 	0.50000 0.07580 0.04741 -0.11900
C 	C 	0.50000 0.03790 0.02409 0.06100
C 	C 	0.50000 0.03810 0.06953 0.02100
C 	C 	0.50000 0.08020 0.09505 0.03000
C 	C 	0.50000 0.14640 0.14487 0.04700
C 	C 	0.50000 0.17580 0.17225 -0.01800
C 	C 	0.50000 0.23280 0.22369 0.02300
H 	H 	0.50000 0.25240 0.24060 0.05200
N 	N 	0.00000 0.42420 0.54741 -0.12100
C 	C 	-0.00000 0.46210 0.52409 0.06600
C 	C 	-0.00000 0.46190 0.56953 0.02600
C 	C 	0.00000 0.41980 0.59505 0.02400
C 	C 	0.00000 0.35360 0.64487 0.04400
C 	C 	0.00000 0.32420 0.67225 -0.02000
C 	C 	0.00000 0.26720 0.72369 0.01800
H 	H 	0.00000 0.24760 0.74060 0.05300
N 	N 	0.50000 0.92420 0.04741 -0.12100
C 	C 	0.50000 0.96210 0.02409 0.07200
C 	C 	0.50000 0.96190 0.06953 0.03000
C 	C 	0.50000 0.91980 0.09505 0.02800
C 	C 	0.50000 0.85360 0.14487 0.04800
C 	C 	0.50000 0.82420 0.17225 -0.01800
C 	C 	0.50000 0.76720 0.22369 0.02300
H 	H 	0.50000 0.74760 0.24060 0.05300
N 	N 	0.42420 0.00000 0.45259 -0.12100
C 	C 	0.46210 0.00000 0.47591 0.06600
C 	C 	0.46190 0.00000 0.43047 0.02600
C 	C 	0.41980 0.00000 0.40495 0.02400
C 	C 	0.35360 0.00000 0.35513 0.04400
C 	C 	0.32420 0.00000 0.32775 -0.02000
C 	C 	0.26720 0.00000 0.27631 0.01800
H 	H 	0.24760 0.00000 0.25940 0.05300
N 	N 	0.92420 0.50000 0.95259 -0.12100
C 	C 	0.96210 0.50000 0.97591 0.07200
C 	C 	0.96190 0.50000 0.93047 0.03000
C 	C 	0.91980 0.50000 0.90495 0.02800
C 	C 	0.85360 0.50000 0.85513 0.04800
C 	C 	0.82420 0.50000 0.82775 -0.01800
C 	C 	0.76720 0.50000 0.77631 0.02300
H 	H 	0.74760 0.50000 0.75940 0.05300
N 	N 	0.57580 0.00000 0.45259 -0.12000
C 	C 	0.53790 0.00000 0.47591 0.06600
C 	C 	0.53810 0.00000 0.43047 0.02600
C 	C 	0.58020 0.00000 0.40495 0.02400
C 	C 	0.64640 0.00000 0.35513 0.04400
C 	C 	0.67580 0.00000 0.32775 -0.02000
C 	C 	0.73280 0.00000 0.27631 0.01800
H 	H 	0.75240 0.00000 0.25940 0.05300
N 	N 	0.07580 0.50000 0.95259 -0.11900
C 	C 	0.03790 0.50000 0.97591 0.06100
C 	C 	0.03810 0.50000 0.93047 0.02100
C 	C 	0.08020 0.50000 0.90495 0.03000
C 	C 	0.14640 0.50000 0.85513 0.04700
C 	C 	0.17580 0.50000 0.82775 -0.01800
C 	C 	0.23280 0.50000 0.77631 0.02300
H 	H 	0.25240 0.50000 0.75940 0.05200
N 	N 	-0.00000 0.57580 0.45259 -0.12000
C 	C 	0.00000 0.53790 0.47591 0.06600
C 	C 	-0.00000 0.53810 0.43047 0.02600
C 	C 	0.00000 0.58020 0.40495 0.02400
C 	C 	-0.00000 0.64640 0.35513 0.04400
C 	C 	0.00000 0.67580 0.32775 -0.02000
C 	C 	-0.00000 0.73280 0.27631 0.01800
H 	H 	0.00000 0.75240 0.25940 0.05300
N 	N 	0.50000 0.07580 0.95259 -0.11900
C 	C 	0.50000 0.03790 0.97591 0.06100
C 	C 	0.50000 0.03810 0.93047 0.02100
C 	C 	0.50000 0.08020 0.90495 0.03000
C 	C 	0.50000 0.14640 0.85513 0.04700
C 	C 	0.50000 0.17580 0.82775 -0.01800
C 	C 	0.50000 0.23280 0.77631 0.02300
H 	H 	0.50000 0.25240 0.75940 0.05200
N 	N 	-0.00000 0.42420 0.45259 -0.12100
C 	C 	0.00000 0.46210 0.47591 0.06600
C 	C 	-0.00000 0.46190 0.43047 0.02600
C 	C 	-0.00000 0.41980 0.40495 0.02400
C 	C 	0.00000 0.35360 0.35513 0.04400
C 	C 	0.00000 0.32420 0.32775 -0.02000
C 	C 	0.00000 0.26720 0.27631 0.01800
H 	H 	-0.00000 0.24760 0.25940 0.05300
N 	N 	0.50000 0.92420 0.95259 -0.12100
C 	C 	0.50000 0.96210 0.97591 0.07200
C 	C 	0.50000 0.96190 0.93047 0.03000
C 	C 	0.50000 0.91980 0.90495 0.02800
C 	C 	0.50000 0.85360 0.85513 0.04800
C 	C 	0.50000 0.82420 0.82775 -0.01800
C 	C 	0.50000 0.76720 0.77631 0.02300
H 	H 	0.50000 0.74760 0.75940 0.05300
C 	C 	0.57600 0.00000 0.50000 -0.12400
H 	H 	0.62570 0.00000 0.50000 0.08800
C 	C 	0.07600 0.50000 -0.00000 -0.12000
H 	H 	0.12570 0.50000 -0.00000 0.08700
C 	C 	0.42400 0.00000 0.50000 -0.12400
H 	H 	0.37430 0.00000 0.50000 0.08800
C 	C 	0.92400 0.50000 -0.00000 -0.12700
H 	H 	0.87430 0.50000 -0.00000 0.09000
C 	C 	0.00000 0.57600 0.50000 -0.12400
H 	H 	0.00000 0.62570 0.50000 0.08800
C 	C 	0.50000 0.07600 -0.00000 -0.12000
H 	H 	0.50000 0.12570 -0.00000 0.08700
C 	C 	0.00000 0.42400 0.50000 -0.12400
H 	H 	-0.00000 0.37430 0.50000 0.08800
C 	C 	0.50000 0.92400 -0.00000 -0.12700
H 	H 	0.50000 0.87430 -0.00000 0.09000
