data_crystal

_cell_length_a 18.47600
_cell_length_b 18.47600
_cell_length_c 59.99900
_cell_angle_alpha 90.00000
_cell_angle_beta  90.00000
_cell_angle_gamma 90.00000

_symmetry_space_group_name_	'P 1'
_symmetry_space_group_name_H-M	'P 1'

loop_
_symmetry_equiv_pos_as_xyz
  x,y,z

loop_
_atom_site_label
_atom_site_type_symbol
_atom_site_fract_x
_atom_site_fract_y
_atom_site_fract_z
_atom_site_charge
O 	O 	0.29540 0.19420 0.21978 -0.39200
O 	O 	0.23680 0.13060 0.24736 -0.39500
C 	C 	0.36840 0.94970 0.12330 -0.05200
H 	H 	0.35350 0.91630 0.11270 0.05600
C 	C 	0.33890 0.95070 0.14530 -0.02700
H 	H 	0.30630 0.91460 0.14930 0.04100
C 	C 	0.30860 0.06540 0.19455 -0.03000
H 	H 	0.31590 0.10860 0.18700 0.05300
C 	C 	0.28380 0.06660 0.21656 -0.06000
C 	C 	0.27140 0.13510 0.22915 0.31800
C 	C 	0.43100 0.94070 0.13290 -0.02400
H 	H 	0.45970 0.90300 0.12770 0.03500
C 	C 	0.40320 0.93530 0.15370 -0.05600
H 	H 	0.41200 0.89640 0.16310 0.05000
O 	O 	0.79540 0.69420 0.71978 -0.39200
O 	O 	0.73680 0.63060 0.74736 -0.39500
C 	C 	0.86840 0.44970 0.62330 -0.05200
H 	H 	0.85350 0.41630 0.61270 0.05400
C 	C 	0.83890 0.45070 0.64530 -0.03200
H 	H 	0.80630 0.41460 0.64930 0.04200
C 	C 	0.80860 0.56540 0.69455 -0.03000
H 	H 	0.81590 0.60860 0.68700 0.05400
C 	C 	0.78380 0.56660 0.71656 -0.06000
C 	C 	0.77140 0.63510 0.72915 0.31900
C 	C 	0.93100 0.44070 0.63290 -0.02800
H 	H 	0.95970 0.40300 0.62770 0.03700
C 	C 	0.90320 0.43530 0.65370 -0.05400
H 	H 	0.91200 0.39640 0.66310 0.04900
O 	O 	0.70460 0.80580 0.21978 -0.39200
O 	O 	0.76320 0.86940 0.24736 -0.39400
C 	C 	0.63160 0.05030 0.12330 -0.05000
H 	H 	0.64650 0.08370 0.11270 0.05300
C 	C 	0.66110 0.04930 0.14530 -0.03400
H 	H 	0.69370 0.08540 0.14930 0.04200
C 	C 	0.69140 0.93460 0.19455 -0.02800
H 	H 	0.68410 0.89140 0.18700 0.05300
C 	C 	0.71620 0.93340 0.21656 -0.05800
C 	C 	0.72860 0.86490 0.22915 0.31800
C 	C 	0.56900 0.05930 0.13290 -0.03000
H 	H 	0.54030 0.09700 0.12770 0.03700
C 	C 	0.59680 0.06470 0.15370 -0.05300
H 	H 	0.58800 0.10360 0.16310 0.04800
O 	O 	0.20460 0.30580 0.71978 -0.39300
O 	O 	0.26320 0.36940 0.74736 -0.39500
C 	C 	0.13160 0.55030 0.62330 -0.05300
H 	H 	0.14650 0.58370 0.61270 0.05400
C 	C 	0.16110 0.54930 0.64530 -0.03100
H 	H 	0.19370 0.58540 0.64930 0.04200
C 	C 	0.19140 0.43460 0.69455 -0.03000
H 	H 	0.18410 0.39140 0.68700 0.05300
C 	C 	0.21620 0.43340 0.71656 -0.06100
C 	C 	0.22860 0.36490 0.72915 0.31900
C 	C 	0.06900 0.55930 0.63290 -0.02900
H 	H 	0.04030 0.59700 0.62770 0.03600
C 	C 	0.09680 0.56470 0.65370 -0.05400
H 	H 	0.08800 0.60360 0.66310 0.04900
O 	O 	0.80580 0.29540 0.21978 -0.39200
O 	O 	0.86940 0.23680 0.24736 -0.39500
C 	C 	0.05030 0.36840 0.12330 -0.05000
H 	H 	0.08370 0.35350 0.11270 0.05300
C 	C 	0.04930 0.33890 0.14530 -0.03400
H 	H 	0.08540 0.30630 0.14930 0.04200
C 	C 	0.93460 0.30860 0.19455 -0.02800
H 	H 	0.89140 0.31590 0.18700 0.05300
C 	C 	0.93340 0.28380 0.21656 -0.05800
C 	C 	0.86490 0.27140 0.22915 0.31800
C 	C 	0.05930 0.43100 0.13290 -0.03000
H 	H 	0.09700 0.45970 0.12770 0.03700
C 	C 	0.06470 0.40320 0.15370 -0.05300
H 	H 	0.10360 0.41200 0.16310 0.04800
O 	O 	0.30580 0.79540 0.71978 -0.39200
O 	O 	0.36940 0.73680 0.74736 -0.39500
C 	C 	0.55030 0.86840 0.62330 -0.05200
H 	H 	0.58370 0.85350 0.61270 0.05400
C 	C 	0.54930 0.83890 0.64530 -0.03200
H 	H 	0.58540 0.80630 0.64930 0.04200
C 	C 	0.43460 0.80860 0.69455 -0.03000
H 	H 	0.39140 0.81590 0.68700 0.05400
C 	C 	0.43340 0.78380 0.71656 -0.06000
C 	C 	0.36490 0.77140 0.72915 0.31900
C 	C 	0.55930 0.93100 0.63290 -0.02800
H 	H 	0.59700 0.95970 0.62770 0.03700
C 	C 	0.56470 0.90320 0.65370 -0.05400
H 	H 	0.60360 0.91200 0.66310 0.05000
O 	O 	0.19420 0.70460 0.21978 -0.39300
O 	O 	0.13060 0.76320 0.24736 -0.39500
C 	C 	0.94970 0.63160 0.12330 -0.05300
H 	H 	0.91630 0.64650 0.11270 0.05500
C 	C 	0.95070 0.66110 0.14530 -0.02700
H 	H 	0.91460 0.69370 0.14930 0.04100
C 	C 	0.06540 0.69140 0.19455 -0.03000
H 	H 	0.10860 0.68410 0.18700 0.05400
C 	C 	0.06660 0.71620 0.21656 -0.06000
C 	C 	0.13510 0.72860 0.22915 0.31800
C 	C 	0.94070 0.56900 0.13290 -0.02400
H 	H 	0.90300 0.54030 0.12770 0.03500
C 	C 	0.93530 0.59680 0.15370 -0.05600
H 	H 	0.89640 0.58800 0.16310 0.05000
O 	O 	0.69420 0.20460 0.71978 -0.39300
O 	O 	0.63060 0.26320 0.74736 -0.39500
C 	C 	0.44970 0.13160 0.62330 -0.05200
H 	H 	0.41630 0.14650 0.61270 0.05400
C 	C 	0.45070 0.16110 0.64530 -0.03100
H 	H 	0.41460 0.19370 0.64930 0.04100
C 	C 	0.56540 0.19140 0.69455 -0.03000
H 	H 	0.60860 0.18410 0.68700 0.05300
C 	C 	0.56660 0.21620 0.71656 -0.06100
C 	C 	0.63510 0.22860 0.72915 0.31900
C 	C 	0.44070 0.06900 0.63290 -0.02900
H 	H 	0.40300 0.04030 0.62770 0.03600
C 	C 	0.43530 0.09680 0.65370 -0.05400
H 	H 	0.39640 0.08800 0.66310 0.04900
O 	O 	0.70460 0.19420 0.78022 -0.39300
O 	O 	0.76320 0.13060 0.75264 -0.39500
C 	C 	0.63160 0.94970 0.87670 -0.05300
H 	H 	0.64650 0.91630 0.88730 0.05500
C 	C 	0.66110 0.95070 0.85470 -0.02700
H 	H 	0.69370 0.91460 0.85070 0.04100
C 	C 	0.69140 0.06540 0.80545 -0.03000
H 	H 	0.68410 0.10860 0.81300 0.05400
C 	C 	0.71620 0.06660 0.78344 -0.06000
C 	C 	0.72860 0.13510 0.77085 0.31800
C 	C 	0.56900 0.94070 0.86710 -0.02400
H 	H 	0.54030 0.90300 0.87230 0.03500
C 	C 	0.59680 0.93530 0.84630 -0.05600
H 	H 	0.58800 0.89640 0.83690 0.05000
O 	O 	0.20460 0.69420 0.28022 -0.39300
O 	O 	0.26320 0.63060 0.25264 -0.39500
C 	C 	0.13160 0.44970 0.37670 -0.05200
H 	H 	0.14650 0.41630 0.38730 0.05400
C 	C 	0.16110 0.45070 0.35470 -0.03100
H 	H 	0.19370 0.41460 0.35070 0.04100
C 	C 	0.19140 0.56540 0.30545 -0.03000
H 	H 	0.18410 0.60860 0.31300 0.05300
C 	C 	0.21620 0.56660 0.28344 -0.06100
C 	C 	0.22860 0.63510 0.27085 0.31900
C 	C 	0.06900 0.44070 0.36710 -0.02900
H 	H 	0.04030 0.40300 0.37230 0.03600
C 	C 	0.09680 0.43530 0.34630 -0.05400
H 	H 	0.08800 0.39640 0.33690 0.04900
O 	O 	0.29540 0.80580 0.78022 -0.39200
O 	O 	0.23680 0.86940 0.75264 -0.39500
C 	C 	0.36840 0.05030 0.87670 -0.05000
H 	H 	0.35350 0.08370 0.88730 0.05300
C 	C 	0.33890 0.04930 0.85470 -0.03400
H 	H 	0.30630 0.08540 0.85070 0.04200
C 	C 	0.30860 0.93460 0.80545 -0.02800
H 	H 	0.31590 0.89140 0.81300 0.05300
C 	C 	0.28380 0.93340 0.78344 -0.05800
C 	C 	0.27140 0.86490 0.77085 0.31800
C 	C 	0.43100 0.05930 0.86710 -0.03000
H 	H 	0.45970 0.09700 0.87230 0.03700
C 	C 	0.40320 0.06470 0.84630 -0.05300
H 	H 	0.41200 0.10360 0.83690 0.04800
O 	O 	0.79540 0.30580 0.28022 -0.39200
O 	O 	0.73680 0.36940 0.25264 -0.39500
C 	C 	0.86840 0.55030 0.37670 -0.05200
H 	H 	0.85350 0.58370 0.38730 0.05400
C 	C 	0.83890 0.54930 0.35470 -0.03200
H 	H 	0.80630 0.58540 0.35070 0.04200
C 	C 	0.80860 0.43460 0.30545 -0.03000
H 	H 	0.81590 0.39140 0.31300 0.05400
C 	C 	0.78380 0.43340 0.28344 -0.06000
C 	C 	0.77140 0.36490 0.27085 0.31900
C 	C 	0.93100 0.55930 0.36710 -0.02800
H 	H 	0.95970 0.59700 0.37230 0.03700
C 	C 	0.90320 0.56470 0.34630 -0.05400
H 	H 	0.91200 0.60360 0.33690 0.05000
O 	O 	0.19420 0.29540 0.78022 -0.39300
O 	O 	0.13060 0.23680 0.75264 -0.39600
C 	C 	0.94970 0.36840 0.87670 -0.05300
H 	H 	0.91630 0.35350 0.88730 0.05400
C 	C 	0.95070 0.33890 0.85470 -0.02700
H 	H 	0.91460 0.30630 0.85070 0.04100
C 	C 	0.06540 0.30860 0.80545 -0.03000
H 	H 	0.10860 0.31590 0.81300 0.05300
C 	C 	0.06660 0.28380 0.78344 -0.06000
C 	C 	0.13510 0.27140 0.77085 0.31800
C 	C 	0.94070 0.43100 0.86710 -0.02400
H 	H 	0.90300 0.45970 0.87230 0.03500
C 	C 	0.93530 0.40320 0.84630 -0.05600
H 	H 	0.89640 0.41200 0.83690 0.05000
O 	O 	0.69420 0.79540 0.28022 -0.39200
O 	O 	0.63060 0.73680 0.25264 -0.39500
C 	C 	0.44970 0.86840 0.37670 -0.05200
H 	H 	0.41630 0.85350 0.38730 0.05400
C 	C 	0.45070 0.83890 0.35470 -0.03200
H 	H 	0.41460 0.80630 0.35070 0.04200
C 	C 	0.56540 0.80860 0.30545 -0.03000
H 	H 	0.60860 0.81590 0.31300 0.05400
C 	C 	0.56660 0.78380 0.28344 -0.06000
C 	C 	0.63510 0.77140 0.27085 0.31900
C 	C 	0.44070 0.93100 0.36710 -0.02800
H 	H 	0.40300 0.95970 0.37230 0.03700
C 	C 	0.43530 0.90320 0.34630 -0.05400
H 	H 	0.39640 0.91200 0.33690 0.04900
O 	O 	0.80580 0.70460 0.78022 -0.39200
O 	O 	0.86940 0.76320 0.75264 -0.39400
C 	C 	0.05030 0.63160 0.87670 -0.05000
H 	H 	0.08370 0.64650 0.88730 0.05300
C 	C 	0.04930 0.66110 0.85470 -0.03400
H 	H 	0.08540 0.69370 0.85070 0.04200
C 	C 	0.93460 0.69140 0.80545 -0.02800
H 	H 	0.89140 0.68410 0.81300 0.05300
C 	C 	0.93340 0.71620 0.78344 -0.05800
C 	C 	0.86490 0.72860 0.77085 0.31800
C 	C 	0.05930 0.56900 0.86710 -0.03000
H 	H 	0.09700 0.54030 0.87230 0.03700
C 	C 	0.06470 0.59680 0.84630 -0.05300
H 	H 	0.10360 0.58800 0.83690 0.04800
O 	O 	0.30580 0.20460 0.28022 -0.39300
O 	O 	0.36940 0.26320 0.25264 -0.39500
C 	C 	0.55030 0.13160 0.37670 -0.05300
H 	H 	0.58370 0.14650 0.38730 0.05400
C 	C 	0.54930 0.16110 0.35470 -0.03100
H 	H 	0.58540 0.19370 0.35070 0.04200
C 	C 	0.43460 0.19140 0.30545 -0.03000
H 	H 	0.39140 0.18410 0.31300 0.05300
C 	C 	0.43340 0.21620 0.28344 -0.06100
C 	C 	0.36490 0.22860 0.27085 0.31900
C 	C 	0.55930 0.06900 0.36710 -0.02900
H 	H 	0.59700 0.04030 0.37230 0.03600
C 	C 	0.56470 0.09680 0.34630 -0.05400
H 	H 	0.60360 0.08800 0.33690 0.04900
O 	O 	0.70460 0.80580 0.78022 -0.39200
O 	O 	0.76320 0.86940 0.75264 -0.39400
C 	C 	0.63160 0.05030 0.87670 -0.05000
H 	H 	0.64650 0.08370 0.88730 0.05300
C 	C 	0.66110 0.04930 0.85470 -0.03400
H 	H 	0.69370 0.08540 0.85070 0.04200
C 	C 	0.69140 0.93460 0.80545 -0.02800
H 	H 	0.68410 0.89140 0.81300 0.05300
C 	C 	0.71620 0.93340 0.78344 -0.05800
C 	C 	0.72860 0.86490 0.77085 0.31800
C 	C 	0.56900 0.05930 0.86710 -0.03000
H 	H 	0.54030 0.09700 0.87230 0.03700
C 	C 	0.59680 0.06470 0.84630 -0.05300
H 	H 	0.58800 0.10360 0.83690 0.04800
O 	O 	0.20460 0.30580 0.28022 -0.39300
O 	O 	0.26320 0.36940 0.25264 -0.39500
C 	C 	0.13160 0.55030 0.37670 -0.05300
H 	H 	0.14650 0.58370 0.38730 0.05400
C 	C 	0.16110 0.54930 0.35470 -0.03100
H 	H 	0.19370 0.58540 0.35070 0.04200
C 	C 	0.19140 0.43460 0.30545 -0.03000
H 	H 	0.18410 0.39140 0.31300 0.05300
C 	C 	0.21620 0.43340 0.28344 -0.06100
C 	C 	0.22860 0.36490 0.27085 0.31900
C 	C 	0.06900 0.55930 0.36710 -0.02900
H 	H 	0.04030 0.59700 0.37230 0.03600
C 	C 	0.09680 0.56470 0.34630 -0.05400
H 	H 	0.08800 0.60360 0.33690 0.04900
O 	O 	0.29540 0.19420 0.78022 -0.39300
O 	O 	0.23680 0.13060 0.75264 -0.39600
C 	C 	0.36840 0.94970 0.87670 -0.05300
H 	H 	0.35350 0.91630 0.88730 0.05400
C 	C 	0.33890 0.95070 0.85470 -0.02700
H 	H 	0.30630 0.91460 0.85070 0.04100
C 	C 	0.30860 0.06540 0.80545 -0.03000
H 	H 	0.31590 0.10860 0.81300 0.05300
C 	C 	0.28380 0.06660 0.78344 -0.06000
C 	C 	0.27140 0.13510 0.77085 0.31800
C 	C 	0.43100 0.94070 0.86710 -0.02400
H 	H 	0.45970 0.90300 0.87230 0.03500
C 	C 	0.40320 0.93530 0.84630 -0.05600
H 	H 	0.41200 0.89640 0.83690 0.05000
O 	O 	0.79540 0.69420 0.28022 -0.39200
O 	O 	0.73680 0.63060 0.25264 -0.39500
C 	C 	0.86840 0.44970 0.37670 -0.05200
H 	H 	0.85350 0.41630 0.38730 0.05400
C 	C 	0.83890 0.45070 0.35470 -0.03200
H 	H 	0.80630 0.41460 0.35070 0.04200
C 	C 	0.80860 0.56540 0.30545 -0.03000
H 	H 	0.81590 0.60860 0.31300 0.05400
C 	C 	0.78380 0.56660 0.28344 -0.06000
C 	C 	0.77140 0.63510 0.27085 0.31900
C 	C 	0.93100 0.44070 0.36710 -0.02800
H 	H 	0.95970 0.40300 0.37230 0.03700
C 	C 	0.90320 0.43530 0.34630 -0.05400
H 	H 	0.91200 0.39640 0.33690 0.04900
O 	O 	0.19420 0.70460 0.78022 -0.39300
O 	O 	0.13060 0.76320 0.75264 -0.39500
C 	C 	0.94970 0.63160 0.87670 -0.05300
H 	H 	0.91630 0.64650 0.88730 0.05500
C 	C 	0.95070 0.66110 0.85470 -0.02700
H 	H 	0.91460 0.69370 0.85070 0.04100
C 	C 	0.06540 0.69140 0.80545 -0.03000
H 	H 	0.10860 0.68410 0.81300 0.05400
C 	C 	0.06660 0.71620 0.78344 -0.06000
C 	C 	0.13510 0.72860 0.77085 0.31800
C 	C 	0.94070 0.56900 0.86710 -0.02400
H 	H 	0.90300 0.54030 0.87230 0.03500
C 	C 	0.93530 0.59680 0.84630 -0.05600
H 	H 	0.89640 0.58800 0.83690 0.05000
O 	O 	0.69420 0.20460 0.28022 -0.39300
O 	O 	0.63060 0.26320 0.25264 -0.39500
C 	C 	0.44970 0.13160 0.37670 -0.05200
H 	H 	0.41630 0.14650 0.38730 0.05400
C 	C 	0.45070 0.16110 0.35470 -0.03100
H 	H 	0.41460 0.19370 0.35070 0.04100
C 	C 	0.56540 0.19140 0.30545 -0.03000
H 	H 	0.60860 0.18410 0.31300 0.05300
C 	C 	0.56660 0.21620 0.28344 -0.06100
C 	C 	0.63510 0.22860 0.27085 0.31900
C 	C 	0.44070 0.06900 0.36710 -0.02900
H 	H 	0.40300 0.04030 0.37230 0.03600
C 	C 	0.43530 0.09680 0.34630 -0.05400
H 	H 	0.39640 0.08800 0.33690 0.04900
O 	O 	0.80580 0.29540 0.78022 -0.39200
O 	O 	0.86940 0.23680 0.75264 -0.39500
C 	C 	0.05030 0.36840 0.87670 -0.05000
H 	H 	0.08370 0.35350 0.88730 0.05300
C 	C 	0.04930 0.33890 0.85470 -0.03400
H 	H 	0.08540 0.30630 0.85070 0.04200
C 	C 	0.93460 0.30860 0.80545 -0.02800
H 	H 	0.89140 0.31590 0.81300 0.05300
C 	C 	0.93340 0.28380 0.78344 -0.05800
C 	C 	0.86490 0.27140 0.77085 0.31800
C 	C 	0.05930 0.43100 0.86710 -0.03000
H 	H 	0.09700 0.45970 0.87230 0.03700
C 	C 	0.06470 0.40320 0.84630 -0.05300
H 	H 	0.10360 0.41200 0.83690 0.04800
O 	O 	0.30580 0.79540 0.28022 -0.39200
O 	O 	0.36940 0.73680 0.25264 -0.39500
C 	C 	0.55030 0.86840 0.37670 -0.05200
H 	H 	0.58370 0.85350 0.38730 0.05400
C 	C 	0.54930 0.83890 0.35470 -0.03200
H 	H 	0.58540 0.80630 0.35070 0.04200
C 	C 	0.43460 0.80860 0.30545 -0.03000
H 	H 	0.39140 0.81590 0.31300 0.05400
C 	C 	0.43340 0.78380 0.28344 -0.06000
C 	C 	0.36490 0.77140 0.27085 0.31900
C 	C 	0.55930 0.93100 0.36710 -0.02800
H 	H 	0.59700 0.95970 0.37230 0.03700
C 	C 	0.56470 0.90320 0.34630 -0.05400
H 	H 	0.60360 0.91200 0.33690 0.05000
O 	O 	0.29540 0.80580 0.21978 -0.39200
O 	O 	0.23680 0.86940 0.24736 -0.39500
C 	C 	0.36840 0.05030 0.12330 -0.05000
H 	H 	0.35350 0.08370 0.11270 0.05300
C 	C 	0.33890 0.04930 0.14530 -0.03400
H 	H 	0.30630 0.08540 0.14930 0.04200
C 	C 	0.30860 0.93460 0.19455 -0.02800
H 	H 	0.31590 0.89140 0.18700 0.05300
C 	C 	0.28380 0.93340 0.21656 -0.05800
C 	C 	0.27140 0.86490 0.22915 0.31800
C 	C 	0.43100 0.05930 0.13290 -0.03000
H 	H 	0.45970 0.09700 0.12770 0.03700
C 	C 	0.40320 0.06470 0.15370 -0.05300
H 	H 	0.41200 0.10360 0.16310 0.04800
O 	O 	0.79540 0.30580 0.71978 -0.39200
O 	O 	0.73680 0.36940 0.74736 -0.39500
C 	C 	0.86840 0.55030 0.62330 -0.05200
H 	H 	0.85350 0.58370 0.61270 0.05400
C 	C 	0.83890 0.54930 0.64530 -0.03200
H 	H 	0.80630 0.58540 0.64930 0.04200
C 	C 	0.80860 0.43460 0.69455 -0.03000
H 	H 	0.81590 0.39140 0.68700 0.05400
C 	C 	0.78380 0.43340 0.71656 -0.06000
C 	C 	0.77140 0.36490 0.72915 0.31900
C 	C 	0.93100 0.55930 0.63290 -0.02800
H 	H 	0.95970 0.59700 0.62770 0.03700
C 	C 	0.90320 0.56470 0.65370 -0.05400
H 	H 	0.91200 0.60360 0.66310 0.05000
O 	O 	0.70460 0.19420 0.21978 -0.39300
O 	O 	0.76320 0.13060 0.24736 -0.39500
C 	C 	0.63160 0.94970 0.12330 -0.05300
H 	H 	0.64650 0.91630 0.11270 0.05500
C 	C 	0.66110 0.95070 0.14530 -0.02700
H 	H 	0.69370 0.91460 0.14930 0.04100
C 	C 	0.69140 0.06540 0.19455 -0.03000
H 	H 	0.68410 0.10860 0.18700 0.05400
C 	C 	0.71620 0.06660 0.21656 -0.06000
C 	C 	0.72860 0.13510 0.22915 0.31800
C 	C 	0.56900 0.94070 0.13290 -0.02400
H 	H 	0.54030 0.90300 0.12770 0.03500
C 	C 	0.59680 0.93530 0.15370 -0.05600
H 	H 	0.58800 0.89640 0.16310 0.05000
O 	O 	0.20460 0.69420 0.71978 -0.39300
O 	O 	0.26320 0.63060 0.74736 -0.39500
C 	C 	0.13160 0.44970 0.62330 -0.05200
H 	H 	0.14650 0.41630 0.61270 0.05400
C 	C 	0.16110 0.45070 0.64530 -0.03100
H 	H 	0.19370 0.41460 0.64930 0.04100
C 	C 	0.19140 0.56540 0.69455 -0.03000
H 	H 	0.18410 0.60860 0.68700 0.05300
C 	C 	0.21620 0.56660 0.71656 -0.06100
C 	C 	0.22860 0.63510 0.72915 0.31900
C 	C 	0.06900 0.44070 0.63290 -0.02900
H 	H 	0.04030 0.40300 0.62770 0.03600
C 	C 	0.09680 0.43530 0.65370 -0.05400
H 	H 	0.08800 0.39640 0.66310 0.04900
O 	O 	0.80580 0.70460 0.21978 -0.39200
O 	O 	0.86940 0.76320 0.24736 -0.39400
C 	C 	0.05030 0.63160 0.12330 -0.05000
H 	H 	0.08370 0.64650 0.11270 0.05300
C 	C 	0.04930 0.66110 0.14530 -0.03400
H 	H 	0.08540 0.69370 0.14930 0.04200
C 	C 	0.93460 0.69140 0.19455 -0.02800
H 	H 	0.89140 0.68410 0.18700 0.05300
C 	C 	0.93340 0.71620 0.21656 -0.05800
C 	C 	0.86490 0.72860 0.22915 0.31800
C 	C 	0.05930 0.56900 0.13290 -0.03000
H 	H 	0.09700 0.54030 0.12770 0.03700
C 	C 	0.06470 0.59680 0.15370 -0.05300
H 	H 	0.10360 0.58800 0.16310 0.04800
O 	O 	0.30580 0.20460 0.71978 -0.39300
O 	O 	0.36940 0.26320 0.74736 -0.39500
C 	C 	0.55030 0.13160 0.62330 -0.05300
H 	H 	0.58370 0.14650 0.61270 0.05400
C 	C 	0.54930 0.16110 0.64530 -0.03100
H 	H 	0.58540 0.19370 0.64930 0.04200
C 	C 	0.43460 0.19140 0.69455 -0.03000
H 	H 	0.39140 0.18410 0.68700 0.05300
C 	C 	0.43340 0.21620 0.71656 -0.06100
C 	C 	0.36490 0.22860 0.72915 0.31900
C 	C 	0.55930 0.06900 0.63290 -0.02900
H 	H 	0.59700 0.04030 0.62770 0.03600
C 	C 	0.56470 0.09680 0.65370 -0.05400
H 	H 	0.60360 0.08800 0.66310 0.04900
O 	O 	0.19420 0.29540 0.21978 -0.39300
O 	O 	0.13060 0.23680 0.24736 -0.39600
C 	C 	0.94970 0.36840 0.12330 -0.05300
H 	H 	0.91630 0.35350 0.11270 0.05500
C 	C 	0.95070 0.33890 0.14530 -0.02700
H 	H 	0.91460 0.30630 0.14930 0.04100
C 	C 	0.06540 0.30860 0.19455 -0.03000
H 	H 	0.10860 0.31590 0.18700 0.05300
C 	C 	0.06660 0.28380 0.21656 -0.06000
C 	C 	0.13510 0.27140 0.22915 0.31800
C 	C 	0.94070 0.43100 0.13290 -0.02400
H 	H 	0.90300 0.45970 0.12770 0.03500
C 	C 	0.93530 0.40320 0.15370 -0.05600
H 	H 	0.89640 0.41200 0.16310 0.05000
O 	O 	0.69420 0.79540 0.71978 -0.39200
O 	O 	0.63060 0.73680 0.74736 -0.39500
C 	C 	0.44970 0.86840 0.62330 -0.05200
H 	H 	0.41630 0.85350 0.61270 0.05400
C 	C 	0.45070 0.83890 0.64530 -0.03200
H 	H 	0.41460 0.80630 0.64930 0.04200
C 	C 	0.56540 0.80860 0.69455 -0.03000
H 	H 	0.60860 0.81590 0.68700 0.05400
C 	C 	0.56660 0.78380 0.71656 -0.06000
C 	C 	0.63510 0.77140 0.72915 0.31900
C 	C 	0.44070 0.93100 0.63290 -0.02800
H 	H 	0.40300 0.95970 0.62770 0.03700
C 	C 	0.43530 0.90320 0.65370 -0.05400
H 	H 	0.39640 0.91200 0.66310 0.04900
Cu	Cu	0.28583 0.28583 0.23409 0.91000
Cu	Cu	0.78583 0.78583 0.73409 0.91000
Cu	Cu	0.71417 0.71417 0.23409 0.91000
Cu	Cu	0.21417 0.21417 0.73409 0.91000
Cu	Cu	0.71417 0.28583 0.23409 0.91000
Cu	Cu	0.21417 0.78583 0.73409 0.91000
Cu	Cu	0.28583 0.71417 0.23409 0.91000
Cu	Cu	0.78583 0.21417 0.73409 0.91000
Cu	Cu	0.71417 0.28583 0.76591 0.91000
Cu	Cu	0.21417 0.78583 0.26591 0.91000
Cu	Cu	0.28583 0.71417 0.76591 0.91000
Cu	Cu	0.78583 0.21417 0.26591 0.91000
Cu	Cu	0.28583 0.28583 0.76591 0.91000
Cu	Cu	0.78583 0.78583 0.26591 0.91000
Cu	Cu	0.71417 0.71417 0.76591 0.91000
Cu	Cu	0.21417 0.21417 0.26591 0.91000
O 	O 	0.42710 0.00000 -0.00000 -0.22500
O 	O 	0.92710 0.50000 0.50000 -0.22800
O 	O 	0.57290 0.00000 -0.00000 -0.22500
O 	O 	0.07290 0.50000 0.50000 -0.22300
O 	O 	-0.00000 0.42710 -0.00000 -0.22500
O 	O 	0.50000 0.92710 0.50000 -0.22800
O 	O 	-0.00000 0.57290 -0.00000 -0.22500
O 	O 	0.50000 0.07290 0.50000 -0.22300
N 	N 	0.42390 0.00000 0.07823 -0.12200
C 	C 	0.46180 0.00000 0.02029 0.13000
C 	C 	0.42680 -0.00000 0.03955 -0.17200
H 	H 	0.37650 0.00000 0.03960 0.11300
C 	C 	0.46360 0.00000 0.05926 0.08300
C 	C 	0.46200 0.00000 0.09717 0.02200
C 	C 	0.41890 0.00000 0.11890 0.03300
C 	C 	0.35590 -0.00000 0.16005 0.03000
C 	C 	0.32230 0.00000 0.18396 -0.00400
C 	C 	0.26990 0.00000 0.22720 -0.00100
H 	H 	0.25120 0.00000 0.24160 0.06200
N 	N 	0.92390 0.50000 0.57823 -0.12300
C 	C 	0.96180 0.50000 0.52029 0.13700
C 	C 	0.92680 0.50000 0.53955 -0.17800
H 	H 	0.87650 0.50000 0.53960 0.11600
C 	C 	0.96360 0.50000 0.55926 0.08900
C 	C 	0.96200 0.50000 0.59717 0.02500
C 	C 	0.91890 0.50000 0.61890 0.03600
C 	C 	0.85590 0.50000 0.66005 0.03200
C 	C 	0.82230 0.50000 0.68396 -0.00200
C 	C 	0.76990 0.50000 0.72720 0.00200
H 	H 	0.75120 0.50000 0.74160 0.06200
N 	N 	0.57610 0.00000 0.07823 -0.12200
C 	C 	0.53820 0.00000 0.02029 0.13000
C 	C 	0.57320 -0.00000 0.03955 -0.17200
H 	H 	0.62350 0.00000 0.03960 0.11300
C 	C 	0.53640 0.00000 0.05926 0.08300
C 	C 	0.53800 0.00000 0.09717 0.02200
C 	C 	0.58110 0.00000 0.11890 0.03300
C 	C 	0.64410 -0.00000 0.16005 0.03000
C 	C 	0.67770 0.00000 0.18396 -0.00300
C 	C 	0.73010 0.00000 0.22720 -0.00100
H 	H 	0.74880 0.00000 0.24160 0.06200
N 	N 	0.07610 0.50000 0.57823 -0.12000
C 	C 	0.03820 0.50000 0.52029 0.12300
C 	C 	0.07320 0.50000 0.53955 -0.16600
H 	H 	0.12350 0.50000 0.53960 0.11100
C 	C 	0.03640 0.50000 0.55926 0.07600
C 	C 	0.03800 0.50000 0.59717 0.01900
C 	C 	0.08110 0.50000 0.61890 0.03800
C 	C 	0.14410 0.50000 0.66005 0.03200
C 	C 	0.17770 0.50000 0.68396 -0.00200
C 	C 	0.23010 0.50000 0.72720 0.00200
H 	H 	0.24880 0.50000 0.74160 0.06200
N 	N 	-0.00000 0.42390 0.07823 -0.12200
C 	C 	-0.00000 0.46180 0.02029 0.13000
C 	C 	0.00000 0.42680 0.03955 -0.17200
H 	H 	-0.00000 0.37650 0.03960 0.11300
C 	C 	-0.00000 0.46360 0.05926 0.08300
C 	C 	0.00000 0.46200 0.09717 0.02200
C 	C 	0.00000 0.41890 0.11890 0.03300
C 	C 	-0.00000 0.35590 0.16005 0.03000
C 	C 	-0.00000 0.32230 0.18396 -0.00400
C 	C 	-0.00000 0.26990 0.22720 -0.00100
H 	H 	-0.00000 0.25120 0.24160 0.06200
N 	N 	0.50000 0.92390 0.57823 -0.12300
C 	C 	0.50000 0.96180 0.52029 0.13700
C 	C 	0.50000 0.92680 0.53955 -0.17800
H 	H 	0.50000 0.87650 0.53960 0.11600
C 	C 	0.50000 0.96360 0.55926 0.08900
C 	C 	0.50000 0.96200 0.59717 0.02500
C 	C 	0.50000 0.91890 0.61890 0.03600
C 	C 	0.50000 0.85590 0.66005 0.03200
C 	C 	0.50000 0.82230 0.68396 -0.00200
C 	C 	0.50000 0.76990 0.72720 0.00200
H 	H 	0.50000 0.75120 0.74160 0.06200
N 	N 	0.00000 0.57610 0.07823 -0.12200
C 	C 	-0.00000 0.53820 0.02029 0.13000
C 	C 	-0.00000 0.57320 0.03955 -0.17200
H 	H 	0.00000 0.62350 0.03960 0.11300
C 	C 	-0.00000 0.53640 0.05926 0.08300
C 	C 	0.00000 0.53800 0.09717 0.02200
C 	C 	-0.00000 0.58110 0.11890 0.03300
C 	C 	0.00000 0.64410 0.16005 0.03000
C 	C 	-0.00000 0.67770 0.18396 -0.00300
C 	C 	-0.00000 0.73010 0.22720 -0.00100
H 	H 	-0.00000 0.74880 0.24160 0.06200
N 	N 	0.50000 0.07610 0.57823 -0.12000
C 	C 	0.50000 0.03820 0.52029 0.12300
C 	C 	0.50000 0.07320 0.53955 -0.16600
H 	H 	0.50000 0.12350 0.53960 0.11100
C 	C 	0.50000 0.03640 0.55926 0.07600
C 	C 	0.50000 0.03800 0.59717 0.01900
C 	C 	0.50000 0.08110 0.61890 0.03800
C 	C 	0.50000 0.14410 0.66005 0.03200
C 	C 	0.50000 0.17770 0.68396 -0.00200
C 	C 	0.50000 0.23010 0.72720 0.00200
H 	H 	0.50000 0.24880 0.74160 0.06200
N 	N 	0.57610 0.00000 0.92177 -0.12200
C 	C 	0.53820 -0.00000 0.97971 0.13000
C 	C 	0.57320 0.00000 0.96045 -0.17200
H 	H 	0.62350 0.00000 0.96040 0.11300
C 	C 	0.53640 0.00000 0.94074 0.08300
C 	C 	0.53800 0.00000 0.90283 0.02200
C 	C 	0.58110 0.00000 0.88110 0.03300
C 	C 	0.64410 0.00000 0.83995 0.03000
C 	C 	0.67770 0.00000 0.81604 -0.00300
C 	C 	0.73010 0.00000 0.77280 -0.00100
H 	H 	0.74880 -0.00000 0.75840 0.06200
N 	N 	0.07610 0.50000 0.42177 -0.12000
C 	C 	0.03820 0.50000 0.47971 0.12300
C 	C 	0.07320 0.50000 0.46045 -0.16600
H 	H 	0.12350 0.50000 0.46040 0.11100
C 	C 	0.03640 0.50000 0.44074 0.07600
C 	C 	0.03800 0.50000 0.40283 0.01900
C 	C 	0.08110 0.50000 0.38110 0.03800
C 	C 	0.14410 0.50000 0.33995 0.03200
C 	C 	0.17770 0.50000 0.31604 -0.00200
C 	C 	0.23010 0.50000 0.27280 0.00200
H 	H 	0.24880 0.50000 0.25840 0.06200
N 	N 	0.42390 0.00000 0.92177 -0.12200
C 	C 	0.46180 -0.00000 0.97971 0.13000
C 	C 	0.42680 0.00000 0.96045 -0.17200
H 	H 	0.37650 0.00000 0.96040 0.11300
C 	C 	0.46360 0.00000 0.94074 0.08300
C 	C 	0.46200 0.00000 0.90283 0.02200
C 	C 	0.41890 0.00000 0.88110 0.03300
C 	C 	0.35590 0.00000 0.83995 0.03000
C 	C 	0.32230 0.00000 0.81604 -0.00400
C 	C 	0.26990 0.00000 0.77280 -0.00100
H 	H 	0.25120 -0.00000 0.75840 0.06200
N 	N 	0.92390 0.50000 0.42177 -0.12300
C 	C 	0.96180 0.50000 0.47971 0.13700
C 	C 	0.92680 0.50000 0.46045 -0.17800
H 	H 	0.87650 0.50000 0.46040 0.11600
C 	C 	0.96360 0.50000 0.44074 0.08900
C 	C 	0.96200 0.50000 0.40283 0.02500
C 	C 	0.91890 0.50000 0.38110 0.03600
C 	C 	0.85590 0.50000 0.33995 0.03200
C 	C 	0.82230 0.50000 0.31604 -0.00200
C 	C 	0.76990 0.50000 0.27280 0.00200
H 	H 	0.75120 0.50000 0.25840 0.06200
N 	N 	-0.00000 0.42390 0.92177 -0.12200
C 	C 	-0.00000 0.46180 0.97971 0.13000
C 	C 	0.00000 0.42680 0.96045 -0.17200
H 	H 	0.00000 0.37650 0.96040 0.11300
C 	C 	0.00000 0.46360 0.94074 0.08300
C 	C 	0.00000 0.46200 0.90283 0.02200
C 	C 	0.00000 0.41890 0.88110 0.03300
C 	C 	0.00000 0.35590 0.83995 0.03000
C 	C 	0.00000 0.32230 0.81604 -0.00400
C 	C 	0.00000 0.26990 0.77280 -0.00100
H 	H 	-0.00000 0.25120 0.75840 0.06200
N 	N 	0.50000 0.92390 0.42177 -0.12300
C 	C 	0.50000 0.96180 0.47971 0.13700
C 	C 	0.50000 0.92680 0.46045 -0.17800
H 	H 	0.50000 0.87650 0.46040 0.11600
C 	C 	0.50000 0.96360 0.44074 0.08900
C 	C 	0.50000 0.96200 0.40283 0.02500
C 	C 	0.50000 0.91890 0.38110 0.03600
C 	C 	0.50000 0.85590 0.33995 0.03200
C 	C 	0.50000 0.82230 0.31604 -0.00200
C 	C 	0.50000 0.76990 0.27280 0.00200
H 	H 	0.50000 0.75120 0.25840 0.06200
N 	N 	-0.00000 0.57610 0.92177 -0.12200
C 	C 	-0.00000 0.53820 0.97971 0.13000
C 	C 	0.00000 0.57320 0.96045 -0.17200
H 	H 	0.00000 0.62350 0.96040 0.11300
C 	C 	0.00000 0.53640 0.94074 0.08300
C 	C 	0.00000 0.53800 0.90283 0.02200
C 	C 	0.00000 0.58110 0.88110 0.03300
C 	C 	0.00000 0.64410 0.83995 0.03000
C 	C 	0.00000 0.67770 0.81604 -0.00300
C 	C 	-0.00000 0.73010 0.77280 -0.00100
H 	H 	0.00000 0.74880 0.75840 0.06200
N 	N 	0.50000 0.07610 0.42177 -0.12000
C 	C 	0.50000 0.03820 0.47971 0.12300
C 	C 	0.50000 0.07320 0.46045 -0.16600
H 	H 	0.50000 0.12350 0.46040 0.11100
C 	C 	0.50000 0.03640 0.44074 0.07600
C 	C 	0.50000 0.03800 0.40283 0.01900
C 	C 	0.50000 0.08110 0.38110 0.03800
C 	C 	0.50000 0.14410 0.33995 0.03200
C 	C 	0.50000 0.17770 0.31604 -0.00200
C 	C 	0.50000 0.23010 0.27280 0.00200
H 	H 	0.50000 0.24880 0.25840 0.06200
