data_crystal

_cell_length_a 18.58710
_cell_length_b 18.58710
_cell_length_c 41.03300
_cell_angle_alpha 90.00000
_cell_angle_beta  90.00000
_cell_angle_gamma 90.00000

_symmetry_space_group_name_	'P 1'
_symmetry_space_group_name_H-M	'P 1'

loop_
_symmetry_equiv_pos_as_xyz
  x,y,z

loop_
_atom_site_label
_atom_site_type_symbol
_atom_site_fract_x
_atom_site_fract_y
_atom_site_fract_z
_atom_site_charge
O 	O 	0.13166 0.23587 0.24683 -0.41300
O 	O 	0.18965 0.29247 0.20662 -0.41000
C 	C 	0.05800 0.43780 0.08350 -0.03200
H 	H 	0.09290 0.47170 0.07830 0.03100
C 	C 	0.05950 0.40150 0.11317 -0.05300
H 	H 	0.09740 0.40840 0.12760 0.04800
C 	C 	0.95470 0.33510 0.09858 -0.04700
H 	H 	0.92060 0.29970 0.10270 0.04400
C 	C 	0.95500 0.36820 0.06830 -0.03400
H 	H 	0.92240 0.35280 0.05260 0.03900
C 	C 	0.06473 0.30628 0.17105 -0.00200
H 	H 	0.10820 0.31590 0.16080 0.04200
C 	C 	0.06485 0.27877 0.20199 -0.09500
C 	C 	0.13361 0.26752 0.21983 0.36100
O 	O 	0.63166 0.73587 0.74683 -0.41200
O 	O 	0.68965 0.79247 0.70662 -0.40900
C 	C 	0.55800 0.93780 0.58350 -0.03000
H 	H 	0.59290 0.97170 0.57830 0.03500
C 	C 	0.55950 0.90150 0.61317 -0.05300
H 	H 	0.59740 0.90840 0.62760 0.05000
C 	C 	0.45470 0.83510 0.59858 -0.05300
H 	H 	0.42060 0.79970 0.60270 0.04700
C 	C 	0.45500 0.86820 0.56830 -0.03400
H 	H 	0.42240 0.85280 0.55260 0.03900
C 	C 	0.56473 0.80628 0.67105 0.00000
H 	H 	0.60820 0.81590 0.66080 0.04400
C 	C 	0.56485 0.77877 0.70199 -0.09500
C 	C 	0.63361 0.76752 0.71983 0.36300
O 	O 	0.86834 0.76413 0.24683 -0.40900
O 	O 	0.81035 0.70753 0.20662 -0.40800
C 	C 	0.94200 0.56220 0.08350 -0.02700
H 	H 	0.90710 0.52830 0.07830 0.03200
C 	C 	0.94050 0.59850 0.11317 -0.05200
H 	H 	0.90260 0.59160 0.12760 0.05000
C 	C 	0.04530 0.66490 0.09858 -0.05300
H 	H 	0.07940 0.70030 0.10270 0.04700
C 	C 	0.04500 0.63180 0.06830 -0.03600
H 	H 	0.07760 0.64720 0.05260 0.03900
C 	C 	0.93527 0.69372 0.17105 0.00400
H 	H 	0.89180 0.68410 0.16080 0.04300
C 	C 	0.93515 0.72123 0.20199 -0.08900
C 	C 	0.86639 0.73248 0.21983 0.36200
O 	O 	0.36834 0.26413 0.74683 -0.41100
O 	O 	0.31035 0.20753 0.70662 -0.40900
C 	C 	0.44200 0.06220 0.58350 -0.03300
H 	H 	0.40710 0.02830 0.57830 0.03000
C 	C 	0.44050 0.09850 0.61317 -0.05300
H 	H 	0.40260 0.09160 0.62760 0.04800
C 	C 	0.54530 0.16490 0.59858 -0.04900
H 	H 	0.57940 0.20030 0.60270 0.04600
C 	C 	0.54500 0.13180 0.56830 -0.04000
H 	H 	0.57760 0.14720 0.55260 0.04000
C 	C 	0.43527 0.19372 0.67105 -0.00100
H 	H 	0.39180 0.18410 0.66080 0.04300
C 	C 	0.43515 0.22123 0.70199 -0.09500
C 	C 	0.36639 0.23248 0.71983 0.36300
O 	O 	0.76413 0.13166 0.24683 -0.41100
O 	O 	0.70753 0.18965 0.20662 -0.40800
C 	C 	0.56220 0.05800 0.08350 -0.03100
H 	H 	0.52830 0.09290 0.07830 0.03200
C 	C 	0.59850 0.05950 0.11317 -0.05200
H 	H 	0.59160 0.09740 0.12760 0.04900
C 	C 	0.66490 0.95470 0.09858 -0.04500
H 	H 	0.70030 0.92060 0.10270 0.04600
C 	C 	0.63180 0.95500 0.06830 -0.03300
H 	H 	0.64720 0.92240 0.05260 0.04000
C 	C 	0.69372 0.06473 0.17105 -0.00100
H 	H 	0.68410 0.10820 0.16080 0.04400
C 	C 	0.72123 0.06485 0.20199 -0.09300
C 	C 	0.73248 0.13361 0.21983 0.36200
O 	O 	0.26413 0.63166 0.74683 -0.41100
O 	O 	0.20753 0.68965 0.70662 -0.40900
C 	C 	0.06220 0.55800 0.58350 -0.03200
H 	H 	0.02830 0.59290 0.57830 0.03000
C 	C 	0.09850 0.55950 0.61317 -0.05300
H 	H 	0.09160 0.59740 0.62760 0.04900
C 	C 	0.16490 0.45470 0.59858 -0.04900
H 	H 	0.20030 0.42060 0.60270 0.04600
C 	C 	0.13180 0.45500 0.56830 -0.03900
H 	H 	0.14720 0.42240 0.55260 0.04000
C 	C 	0.19372 0.56473 0.67105 -0.00100
H 	H 	0.18410 0.60820 0.66080 0.04300
C 	C 	0.22123 0.56485 0.70199 -0.09500
C 	C 	0.23248 0.63361 0.71983 0.36300
O 	O 	0.23587 0.86834 0.24683 -0.41000
O 	O 	0.29247 0.81035 0.20662 -0.40800
C 	C 	0.43780 0.94200 0.08350 -0.02700
H 	H 	0.47170 0.90710 0.07830 0.03200
C 	C 	0.40150 0.94050 0.11317 -0.05200
H 	H 	0.40840 0.90260 0.12760 0.05000
C 	C 	0.33510 0.04530 0.09858 -0.05300
H 	H 	0.29970 0.07940 0.10270 0.04600
C 	C 	0.36820 0.04500 0.06830 -0.03600
H 	H 	0.35280 0.07760 0.05260 0.03900
C 	C 	0.30628 0.93527 0.17105 0.00400
H 	H 	0.31590 0.89180 0.16080 0.04300
C 	C 	0.27877 0.93515 0.20199 -0.09000
C 	C 	0.26752 0.86639 0.21983 0.36200
O 	O 	0.73587 0.36834 0.74683 -0.41100
O 	O 	0.79247 0.31035 0.70662 -0.40800
C 	C 	0.93780 0.44200 0.58350 -0.03000
H 	H 	0.97170 0.40710 0.57830 0.03500
C 	C 	0.90150 0.44050 0.61317 -0.05300
H 	H 	0.90840 0.40260 0.62760 0.05000
C 	C 	0.83510 0.54530 0.59858 -0.05300
H 	H 	0.79970 0.57940 0.60270 0.04700
C 	C 	0.86820 0.54500 0.56830 -0.03500
H 	H 	0.85280 0.57760 0.55260 0.03900
C 	C 	0.80628 0.43527 0.67105 0.00000
H 	H 	0.81590 0.39180 0.66080 0.04300
C 	C 	0.77877 0.43515 0.70199 -0.09500
C 	C 	0.76752 0.36639 0.71983 0.36300
O 	O 	0.86834 0.23587 0.75317 -0.41000
O 	O 	0.81035 0.29247 0.79338 -0.40800
C 	C 	0.94200 0.43780 0.91650 -0.02700
H 	H 	0.90710 0.47170 0.92170 0.03200
C 	C 	0.94050 0.40150 0.88683 -0.05200
H 	H 	0.90260 0.40840 0.87240 0.05000
C 	C 	0.04530 0.33510 0.90142 -0.05300
H 	H 	0.07940 0.29970 0.89730 0.04600
C 	C 	0.04500 0.36820 0.93170 -0.03600
H 	H 	0.07760 0.35280 0.94740 0.03900
C 	C 	0.93527 0.30628 0.82895 0.00400
H 	H 	0.89180 0.31590 0.83920 0.04300
C 	C 	0.93515 0.27877 0.79801 -0.09000
C 	C 	0.86639 0.26752 0.78017 0.36200
O 	O 	0.36834 0.73587 0.25317 -0.41100
O 	O 	0.31035 0.79247 0.29338 -0.40800
C 	C 	0.44200 0.93780 0.41650 -0.03000
H 	H 	0.40710 0.97170 0.42170 0.03500
C 	C 	0.44050 0.90150 0.38683 -0.05300
H 	H 	0.40260 0.90840 0.37240 0.05000
C 	C 	0.54530 0.83510 0.40142 -0.05300
H 	H 	0.57940 0.79970 0.39730 0.04700
C 	C 	0.54500 0.86820 0.43170 -0.03500
H 	H 	0.57760 0.85280 0.44740 0.03900
C 	C 	0.43527 0.80628 0.32895 0.00000
H 	H 	0.39180 0.81590 0.33920 0.04300
C 	C 	0.43515 0.77877 0.29801 -0.09500
C 	C 	0.36639 0.76752 0.28017 0.36300
O 	O 	0.13166 0.76413 0.75317 -0.41100
O 	O 	0.18965 0.70753 0.79338 -0.40800
C 	C 	0.05800 0.56220 0.91650 -0.03100
H 	H 	0.09290 0.52830 0.92170 0.03200
C 	C 	0.05950 0.59850 0.88683 -0.05200
H 	H 	0.09740 0.59160 0.87240 0.04900
C 	C 	0.95470 0.66490 0.90142 -0.04600
H 	H 	0.92060 0.70030 0.89730 0.04600
C 	C 	0.95500 0.63180 0.93170 -0.03300
H 	H 	0.92240 0.64720 0.94740 0.04000
C 	C 	0.06473 0.69372 0.82895 -0.00100
H 	H 	0.10820 0.68410 0.83920 0.04400
C 	C 	0.06485 0.72123 0.79801 -0.09300
C 	C 	0.13361 0.73248 0.78017 0.36200
O 	O 	0.63166 0.26413 0.25317 -0.41100
O 	O 	0.68965 0.20753 0.29338 -0.40900
C 	C 	0.55800 0.06220 0.41650 -0.03200
H 	H 	0.59290 0.02830 0.42170 0.03000
C 	C 	0.55950 0.09850 0.38683 -0.05300
H 	H 	0.59740 0.09160 0.37240 0.04900
C 	C 	0.45470 0.16490 0.40142 -0.04900
H 	H 	0.42060 0.20030 0.39730 0.04600
C 	C 	0.45500 0.13180 0.43170 -0.03900
H 	H 	0.42240 0.14720 0.44740 0.04000
C 	C 	0.56473 0.19372 0.32895 -0.00100
H 	H 	0.60820 0.18410 0.33920 0.04300
C 	C 	0.56485 0.22123 0.29801 -0.09500
C 	C 	0.63361 0.23248 0.28017 0.36300
O 	O 	0.23587 0.13166 0.75317 -0.41200
O 	O 	0.29247 0.18965 0.79338 -0.40900
C 	C 	0.43780 0.05800 0.91650 -0.03100
H 	H 	0.47170 0.09290 0.92170 0.03200
C 	C 	0.40150 0.05950 0.88683 -0.05200
H 	H 	0.40840 0.09740 0.87240 0.04900
C 	C 	0.33510 0.95470 0.90142 -0.04600
H 	H 	0.29970 0.92060 0.89730 0.04500
C 	C 	0.36820 0.95500 0.93170 -0.03300
H 	H 	0.35280 0.92240 0.94740 0.03900
C 	C 	0.30628 0.06473 0.82895 -0.00100
H 	H 	0.31590 0.10820 0.83920 0.04300
C 	C 	0.27877 0.06485 0.79801 -0.09400
C 	C 	0.26752 0.13361 0.78017 0.36200
O 	O 	0.73587 0.63166 0.25317 -0.41100
O 	O 	0.79247 0.68965 0.29338 -0.40800
C 	C 	0.93780 0.55800 0.41650 -0.03000
H 	H 	0.97170 0.59290 0.42170 0.03500
C 	C 	0.90150 0.55950 0.38683 -0.05300
H 	H 	0.90840 0.59740 0.37240 0.05000
C 	C 	0.83510 0.45470 0.40142 -0.05300
H 	H 	0.79970 0.42060 0.39730 0.04700
C 	C 	0.86820 0.45500 0.43170 -0.03400
H 	H 	0.85280 0.42240 0.44740 0.03900
C 	C 	0.80628 0.56473 0.32895 0.00000
H 	H 	0.81590 0.60820 0.33920 0.04400
C 	C 	0.77877 0.56485 0.29801 -0.09500
C 	C 	0.76752 0.63361 0.28017 0.36300
O 	O 	0.76413 0.86834 0.75317 -0.40900
O 	O 	0.70753 0.81035 0.79338 -0.40800
C 	C 	0.56220 0.94200 0.91650 -0.02700
H 	H 	0.52830 0.90710 0.92170 0.03200
C 	C 	0.59850 0.94050 0.88683 -0.05200
H 	H 	0.59160 0.90260 0.87240 0.05000
C 	C 	0.66490 0.04530 0.90142 -0.05300
H 	H 	0.70030 0.07940 0.89730 0.04700
C 	C 	0.63180 0.04500 0.93170 -0.03600
H 	H 	0.64720 0.07760 0.94740 0.03900
C 	C 	0.69372 0.93527 0.82895 0.00400
H 	H 	0.68410 0.89180 0.83920 0.04300
C 	C 	0.72123 0.93515 0.79801 -0.08900
C 	C 	0.73248 0.86639 0.78017 0.36200
O 	O 	0.26413 0.36834 0.25317 -0.41100
O 	O 	0.20753 0.31035 0.29338 -0.40900
C 	C 	0.06220 0.44200 0.41650 -0.03300
H 	H 	0.02830 0.40710 0.42170 0.03000
C 	C 	0.09850 0.44050 0.38683 -0.05300
H 	H 	0.09160 0.40260 0.37240 0.04800
C 	C 	0.16490 0.54530 0.40142 -0.04900
H 	H 	0.20030 0.57940 0.39730 0.04600
C 	C 	0.13180 0.54500 0.43170 -0.04000
H 	H 	0.14720 0.57760 0.44740 0.04000
C 	C 	0.19372 0.43527 0.32895 -0.00100
H 	H 	0.18410 0.39180 0.33920 0.04300
C 	C 	0.22123 0.43515 0.29801 -0.09500
C 	C 	0.23248 0.36639 0.28017 0.36300
O 	O 	0.86834 0.76413 0.75317 -0.40900
O 	O 	0.81035 0.70753 0.79338 -0.40800
C 	C 	0.94200 0.56220 0.91650 -0.02700
H 	H 	0.90710 0.52830 0.92170 0.03200
C 	C 	0.94050 0.59850 0.88683 -0.05200
H 	H 	0.90260 0.59160 0.87240 0.05000
C 	C 	0.04530 0.66490 0.90142 -0.05300
H 	H 	0.07940 0.70030 0.89730 0.04700
C 	C 	0.04500 0.63180 0.93170 -0.03600
H 	H 	0.07760 0.64720 0.94740 0.03900
C 	C 	0.93527 0.69372 0.82895 0.00400
H 	H 	0.89180 0.68410 0.83920 0.04300
C 	C 	0.93515 0.72123 0.79801 -0.08900
C 	C 	0.86639 0.73248 0.78017 0.36200
O 	O 	0.36834 0.26413 0.25317 -0.41100
O 	O 	0.31035 0.20753 0.29338 -0.40900
C 	C 	0.44200 0.06220 0.41650 -0.03300
H 	H 	0.40710 0.02830 0.42170 0.03000
C 	C 	0.44050 0.09850 0.38683 -0.05300
H 	H 	0.40260 0.09160 0.37240 0.04800
C 	C 	0.54530 0.16490 0.40142 -0.04900
H 	H 	0.57940 0.20030 0.39730 0.04600
C 	C 	0.54500 0.13180 0.43170 -0.04000
H 	H 	0.57760 0.14720 0.44740 0.04000
C 	C 	0.43527 0.19372 0.32895 -0.00100
H 	H 	0.39180 0.18410 0.33920 0.04300
C 	C 	0.43515 0.22123 0.29801 -0.09500
C 	C 	0.36639 0.23248 0.28017 0.36300
O 	O 	0.13166 0.23587 0.75317 -0.41200
O 	O 	0.18965 0.29247 0.79338 -0.40900
C 	C 	0.05800 0.43780 0.91650 -0.03100
H 	H 	0.09290 0.47170 0.92170 0.03200
C 	C 	0.05950 0.40150 0.88683 -0.05200
H 	H 	0.09740 0.40840 0.87240 0.04900
C 	C 	0.95470 0.33510 0.90142 -0.04600
H 	H 	0.92060 0.29970 0.89730 0.04500
C 	C 	0.95500 0.36820 0.93170 -0.03300
H 	H 	0.92240 0.35280 0.94740 0.03900
C 	C 	0.06473 0.30628 0.82895 -0.00100
H 	H 	0.10820 0.31590 0.83920 0.04300
C 	C 	0.06485 0.27877 0.79801 -0.09400
C 	C 	0.13361 0.26752 0.78017 0.36200
O 	O 	0.63166 0.73587 0.25317 -0.41100
O 	O 	0.68965 0.79247 0.29338 -0.40800
C 	C 	0.55800 0.93780 0.41650 -0.03000
H 	H 	0.59290 0.97170 0.42170 0.03500
C 	C 	0.55950 0.90150 0.38683 -0.05300
H 	H 	0.59740 0.90840 0.37240 0.05000
C 	C 	0.45470 0.83510 0.40142 -0.05300
H 	H 	0.42060 0.79970 0.39730 0.04700
C 	C 	0.45500 0.86820 0.43170 -0.03400
H 	H 	0.42240 0.85280 0.44740 0.03900
C 	C 	0.56473 0.80628 0.32895 0.00000
H 	H 	0.60820 0.81590 0.33920 0.04400
C 	C 	0.56485 0.77877 0.29801 -0.09500
C 	C 	0.63361 0.76752 0.28017 0.36300
O 	O 	0.23587 0.86834 0.75317 -0.41000
O 	O 	0.29247 0.81035 0.79338 -0.40800
C 	C 	0.43780 0.94200 0.91650 -0.02700
H 	H 	0.47170 0.90710 0.92170 0.03200
C 	C 	0.40150 0.94050 0.88683 -0.05200
H 	H 	0.40840 0.90260 0.87240 0.05000
C 	C 	0.33510 0.04530 0.90142 -0.05300
H 	H 	0.29970 0.07940 0.89730 0.04600
C 	C 	0.36820 0.04500 0.93170 -0.03600
H 	H 	0.35280 0.07760 0.94740 0.03900
C 	C 	0.30628 0.93527 0.82895 0.00400
H 	H 	0.31590 0.89180 0.83920 0.04300
C 	C 	0.27877 0.93515 0.79801 -0.09000
C 	C 	0.26752 0.86639 0.78017 0.36200
O 	O 	0.73587 0.36834 0.25317 -0.41100
O 	O 	0.79247 0.31035 0.29338 -0.40800
C 	C 	0.93780 0.44200 0.41650 -0.03000
H 	H 	0.97170 0.40710 0.42170 0.03500
C 	C 	0.90150 0.44050 0.38683 -0.05300
H 	H 	0.90840 0.40260 0.37240 0.05000
C 	C 	0.83510 0.54530 0.40142 -0.05300
H 	H 	0.79970 0.57940 0.39730 0.04700
C 	C 	0.86820 0.54500 0.43170 -0.03500
H 	H 	0.85280 0.57760 0.44740 0.03900
C 	C 	0.80628 0.43527 0.32895 0.00000
H 	H 	0.81590 0.39180 0.33920 0.04300
C 	C 	0.77877 0.43515 0.29801 -0.09500
C 	C 	0.76752 0.36639 0.28017 0.36300
O 	O 	0.76413 0.13166 0.75317 -0.41100
O 	O 	0.70753 0.18965 0.79338 -0.40800
C 	C 	0.56220 0.05800 0.91650 -0.03100
H 	H 	0.52830 0.09290 0.92170 0.03200
C 	C 	0.59850 0.05950 0.88683 -0.05200
H 	H 	0.59160 0.09740 0.87240 0.04900
C 	C 	0.66490 0.95470 0.90142 -0.04600
H 	H 	0.70030 0.92060 0.89730 0.04600
C 	C 	0.63180 0.95500 0.93170 -0.03300
H 	H 	0.64720 0.92240 0.94740 0.04000
C 	C 	0.69372 0.06473 0.82895 -0.00100
H 	H 	0.68410 0.10820 0.83920 0.04400
C 	C 	0.72123 0.06485 0.79801 -0.09300
C 	C 	0.73248 0.13361 0.78017 0.36200
O 	O 	0.26413 0.63166 0.25317 -0.41100
O 	O 	0.20753 0.68965 0.29338 -0.40900
C 	C 	0.06220 0.55800 0.41650 -0.03200
H 	H 	0.02830 0.59290 0.42170 0.03000
C 	C 	0.09850 0.55950 0.38683 -0.05300
H 	H 	0.09160 0.59740 0.37240 0.04900
C 	C 	0.16490 0.45470 0.40142 -0.04900
H 	H 	0.20030 0.42060 0.39730 0.04600
C 	C 	0.13180 0.45500 0.43170 -0.03900
H 	H 	0.14720 0.42240 0.44740 0.04000
C 	C 	0.19372 0.56473 0.32895 -0.00100
H 	H 	0.18410 0.60820 0.33920 0.04300
C 	C 	0.22123 0.56485 0.29801 -0.09500
C 	C 	0.23248 0.63361 0.28017 0.36300
O 	O 	0.13166 0.76413 0.24683 -0.41100
O 	O 	0.18965 0.70753 0.20662 -0.40800
C 	C 	0.05800 0.56220 0.08350 -0.03100
H 	H 	0.09290 0.52830 0.07830 0.03200
C 	C 	0.05950 0.59850 0.11317 -0.05200
H 	H 	0.09740 0.59160 0.12760 0.04900
C 	C 	0.95470 0.66490 0.09858 -0.04500
H 	H 	0.92060 0.70030 0.10270 0.04600
C 	C 	0.95500 0.63180 0.06830 -0.03300
H 	H 	0.92240 0.64720 0.05260 0.04000
C 	C 	0.06473 0.69372 0.17105 -0.00100
H 	H 	0.10820 0.68410 0.16080 0.04400
C 	C 	0.06485 0.72123 0.20199 -0.09300
C 	C 	0.13361 0.73248 0.21983 0.36200
O 	O 	0.63166 0.26413 0.74683 -0.41100
O 	O 	0.68965 0.20753 0.70662 -0.40900
C 	C 	0.55800 0.06220 0.58350 -0.03200
H 	H 	0.59290 0.02830 0.57830 0.03000
C 	C 	0.55950 0.09850 0.61317 -0.05300
H 	H 	0.59740 0.09160 0.62760 0.04900
C 	C 	0.45470 0.16490 0.59858 -0.04900
H 	H 	0.42060 0.20030 0.60270 0.04600
C 	C 	0.45500 0.13180 0.56830 -0.03900
H 	H 	0.42240 0.14720 0.55260 0.04000
C 	C 	0.56473 0.19372 0.67105 -0.00100
H 	H 	0.60820 0.18410 0.66080 0.04300
C 	C 	0.56485 0.22123 0.70199 -0.09500
C 	C 	0.63361 0.23248 0.71983 0.36300
O 	O 	0.86834 0.23587 0.24683 -0.41000
O 	O 	0.81035 0.29247 0.20662 -0.40800
C 	C 	0.94200 0.43780 0.08350 -0.02700
H 	H 	0.90710 0.47170 0.07830 0.03200
C 	C 	0.94050 0.40150 0.11317 -0.05200
H 	H 	0.90260 0.40840 0.12760 0.05000
C 	C 	0.04530 0.33510 0.09858 -0.05300
H 	H 	0.07940 0.29970 0.10270 0.04600
C 	C 	0.04500 0.36820 0.06830 -0.03600
H 	H 	0.07760 0.35280 0.05260 0.03900
C 	C 	0.93527 0.30628 0.17105 0.00400
H 	H 	0.89180 0.31590 0.16080 0.04300
C 	C 	0.93515 0.27877 0.20199 -0.09000
C 	C 	0.86639 0.26752 0.21983 0.36200
O 	O 	0.36834 0.73587 0.74683 -0.41100
O 	O 	0.31035 0.79247 0.70662 -0.40800
C 	C 	0.44200 0.93780 0.58350 -0.03000
H 	H 	0.40710 0.97170 0.57830 0.03500
C 	C 	0.44050 0.90150 0.61317 -0.05300
H 	H 	0.40260 0.90840 0.62760 0.05000
C 	C 	0.54530 0.83510 0.59858 -0.05300
H 	H 	0.57940 0.79970 0.60270 0.04700
C 	C 	0.54500 0.86820 0.56830 -0.03500
H 	H 	0.57760 0.85280 0.55260 0.03900
C 	C 	0.43527 0.80628 0.67105 0.00000
H 	H 	0.39180 0.81590 0.66080 0.04300
C 	C 	0.43515 0.77877 0.70199 -0.09500
C 	C 	0.36639 0.76752 0.71983 0.36300
O 	O 	0.76413 0.86834 0.24683 -0.40900
O 	O 	0.70753 0.81035 0.20662 -0.40800
C 	C 	0.56220 0.94200 0.08350 -0.02700
H 	H 	0.52830 0.90710 0.07830 0.03200
C 	C 	0.59850 0.94050 0.11317 -0.05200
H 	H 	0.59160 0.90260 0.12760 0.05000
C 	C 	0.66490 0.04530 0.09858 -0.05300
H 	H 	0.70030 0.07940 0.10270 0.04700
C 	C 	0.63180 0.04500 0.06830 -0.03600
H 	H 	0.64720 0.07760 0.05260 0.03900
C 	C 	0.69372 0.93527 0.17105 0.00400
H 	H 	0.68410 0.89180 0.16080 0.04300
C 	C 	0.72123 0.93515 0.20199 -0.08900
C 	C 	0.73248 0.86639 0.21983 0.36200
O 	O 	0.26413 0.36834 0.74683 -0.41100
O 	O 	0.20753 0.31035 0.70662 -0.40900
C 	C 	0.06220 0.44200 0.58350 -0.03300
H 	H 	0.02830 0.40710 0.57830 0.03000
C 	C 	0.09850 0.44050 0.61317 -0.05300
H 	H 	0.09160 0.40260 0.62760 0.04800
C 	C 	0.16490 0.54530 0.59858 -0.04900
H 	H 	0.20030 0.57940 0.60270 0.04600
C 	C 	0.13180 0.54500 0.56830 -0.04000
H 	H 	0.14720 0.57760 0.55260 0.04000
C 	C 	0.19372 0.43527 0.67105 -0.00100
H 	H 	0.18410 0.39180 0.66080 0.04300
C 	C 	0.22123 0.43515 0.70199 -0.09500
C 	C 	0.23248 0.36639 0.71983 0.36300
O 	O 	0.23587 0.13166 0.24683 -0.41200
O 	O 	0.29247 0.18965 0.20662 -0.40900
C 	C 	0.43780 0.05800 0.08350 -0.03100
H 	H 	0.47170 0.09290 0.07830 0.03200
C 	C 	0.40150 0.05950 0.11317 -0.05200
H 	H 	0.40840 0.09740 0.12760 0.04900
C 	C 	0.33510 0.95470 0.09858 -0.04600
H 	H 	0.29970 0.92060 0.10270 0.04500
C 	C 	0.36820 0.95500 0.06830 -0.03300
H 	H 	0.35280 0.92240 0.05260 0.04000
C 	C 	0.30628 0.06473 0.17105 -0.00100
H 	H 	0.31590 0.10820 0.16080 0.04300
C 	C 	0.27877 0.06485 0.20199 -0.09400
C 	C 	0.26752 0.13361 0.21983 0.36200
O 	O 	0.73587 0.63166 0.74683 -0.41100
O 	O 	0.79247 0.68965 0.70662 -0.40800
C 	C 	0.93780 0.55800 0.58350 -0.03000
H 	H 	0.97170 0.59290 0.57830 0.03500
C 	C 	0.90150 0.55950 0.61317 -0.05300
H 	H 	0.90840 0.59740 0.62760 0.05000
C 	C 	0.83510 0.45470 0.59858 -0.05300
H 	H 	0.79970 0.42060 0.60270 0.04700
C 	C 	0.86820 0.45500 0.56830 -0.03400
H 	H 	0.85280 0.42240 0.55260 0.03900
C 	C 	0.80628 0.56473 0.67105 0.00000
H 	H 	0.81590 0.60820 0.66080 0.04400
C 	C 	0.77877 0.56485 0.70199 -0.09500
C 	C 	0.76752 0.63361 0.71983 0.36300
Cu	Cu	0.28407 0.28407 0.22665 0.90800
Cu	Cu	0.78407 0.78407 0.72665 0.90800
Cu	Cu	0.71593 0.71593 0.22665 0.90800
Cu	Cu	0.21593 0.21593 0.72665 0.90700
Cu	Cu	0.71593 0.28407 0.22665 0.90800
Cu	Cu	0.21593 0.78407 0.72665 0.90800
Cu	Cu	0.28407 0.71593 0.22665 0.90800
Cu	Cu	0.78407 0.21593 0.72665 0.90800
Cu	Cu	0.71593 0.28407 0.77335 0.90800
Cu	Cu	0.21593 0.78407 0.27335 0.90800
Cu	Cu	0.28407 0.71593 0.77335 0.90800
Cu	Cu	0.78407 0.21593 0.27335 0.90800
Cu	Cu	0.28407 0.28407 0.77335 0.90800
Cu	Cu	0.78407 0.78407 0.27335 0.90800
Cu	Cu	0.71593 0.71593 0.77335 0.90800
Cu	Cu	0.21593 0.21593 0.27335 0.90700
C 	C 	0.00000 0.42630 -0.00000 -0.07800
H 	H 	0.00000 0.37630 -0.00000 0.05300
C 	C 	0.50000 0.92630 0.50000 -0.08500
H 	H 	0.50000 0.87630 0.50000 0.05700
C 	C 	-0.00000 0.57370 -0.00000 -0.07800
H 	H 	0.00000 0.62370 -0.00000 0.05300
C 	C 	0.50000 0.07370 0.50000 -0.06700
H 	H 	0.50000 0.12370 0.50000 0.05000
C 	C 	0.57370 0.00000 -0.00000 -0.07800
H 	H 	0.62370 0.00000 -0.00000 0.05300
C 	C 	0.07370 0.50000 0.50000 -0.06700
H 	H 	0.12370 0.50000 0.50000 0.05000
C 	C 	0.42630 0.00000 -0.00000 -0.07800
H 	H 	0.37630 0.00000 -0.00000 0.05300
C 	C 	0.92630 0.50000 0.50000 -0.08500
H 	H 	0.87630 0.50000 0.50000 0.05700
C 	C 	-0.00000 0.46280 0.02950 -0.00300
C 	C 	0.00000 0.42090 0.06085 0.01800
C 	C 	0.00000 0.35160 0.12139 0.05100
C 	C 	0.00000 0.32020 0.15463 -0.03500
C 	C 	0.00000 0.26400 0.21787 0.02700
H 	H 	0.00000 0.24460 0.23880 0.05000
C 	C 	0.50000 0.96280 0.52950 0.00800
C 	C 	0.50000 0.92090 0.56085 0.02100
C 	C 	0.50000 0.85160 0.62139 0.05900
C 	C 	0.50000 0.82020 0.65463 -0.03200
C 	C 	0.50000 0.76400 0.71787 0.03500
H 	H 	0.50000 0.74460 0.73880 0.04900
C 	C 	0.00000 0.53720 0.02950 -0.00300
C 	C 	0.00000 0.57910 0.06085 0.01800
C 	C 	-0.00000 0.64840 0.12139 0.05200
C 	C 	0.00000 0.67980 0.15463 -0.03400
C 	C 	0.00000 0.73600 0.21787 0.02700
H 	H 	0.00000 0.75540 0.23880 0.05000
C 	C 	0.50000 0.03720 0.52950 -0.01600
C 	C 	0.50000 0.07910 0.56085 0.03000
C 	C 	0.50000 0.14840 0.62139 0.05500
C 	C 	0.50000 0.17980 0.65463 -0.03100
C 	C 	0.50000 0.23600 0.71787 0.03400
H 	H 	0.50000 0.25540 0.73880 0.04900
C 	C 	0.53720 0.00000 0.02950 -0.00300
C 	C 	0.57910 0.00000 0.06085 0.01800
C 	C 	0.64840 0.00000 0.12139 0.05200
C 	C 	0.67980 0.00000 0.15463 -0.03400
C 	C 	0.73600 0.00000 0.21787 0.02700
H 	H 	0.75540 0.00000 0.23880 0.05000
C 	C 	0.03720 0.50000 0.52950 -0.01600
C 	C 	0.07910 0.50000 0.56085 0.03000
C 	C 	0.14840 0.50000 0.62139 0.05500
C 	C 	0.17980 0.50000 0.65463 -0.03100
C 	C 	0.23600 0.50000 0.71787 0.03400
H 	H 	0.25540 0.50000 0.73880 0.04900
C 	C 	0.46280 0.00000 0.02950 -0.00300
C 	C 	0.42090 0.00000 0.06085 0.01800
C 	C 	0.35160 0.00000 0.12139 0.05100
C 	C 	0.32020 0.00000 0.15463 -0.03500
C 	C 	0.26400 0.00000 0.21787 0.02700
H 	H 	0.24460 0.00000 0.23880 0.05000
C 	C 	0.96280 0.50000 0.52950 0.00800
C 	C 	0.92090 0.50000 0.56085 0.02100
C 	C 	0.85160 0.50000 0.62139 0.05900
C 	C 	0.82020 0.50000 0.65463 -0.03200
C 	C 	0.76400 0.50000 0.71787 0.03500
H 	H 	0.74460 0.50000 0.73880 0.04900
C 	C 	0.00000 0.46280 0.97050 -0.00300
C 	C 	0.00000 0.42090 0.93915 0.01800
C 	C 	0.00000 0.35160 0.87861 0.05100
C 	C 	0.00000 0.32020 0.84537 -0.03500
C 	C 	0.00000 0.26400 0.78213 0.02700
H 	H 	0.00000 0.24460 0.76120 0.05000
C 	C 	0.50000 0.96280 0.47050 0.00800
C 	C 	0.50000 0.92090 0.43915 0.02100
C 	C 	0.50000 0.85160 0.37861 0.05900
C 	C 	0.50000 0.82020 0.34537 -0.03200
C 	C 	0.50000 0.76400 0.28213 0.03500
H 	H 	0.50000 0.74460 0.26120 0.04900
C 	C 	0.00000 0.53720 0.97050 -0.00300
C 	C 	0.00000 0.57910 0.93915 0.01800
C 	C 	0.00000 0.64840 0.87861 0.05200
C 	C 	0.00000 0.67980 0.84537 -0.03400
C 	C 	0.00000 0.73600 0.78213 0.02700
H 	H 	0.00000 0.75540 0.76120 0.05000
C 	C 	0.50000 0.03720 0.47050 -0.01600
C 	C 	0.50000 0.07910 0.43915 0.03000
C 	C 	0.50000 0.14840 0.37861 0.05500
C 	C 	0.50000 0.17980 0.34537 -0.03100
C 	C 	0.50000 0.23600 0.28213 0.03400
H 	H 	0.50000 0.25540 0.26120 0.04900
C 	C 	0.46280 0.00000 0.97050 -0.00300
C 	C 	0.42090 0.00000 0.93915 0.01800
C 	C 	0.35160 0.00000 0.87861 0.05100
C 	C 	0.32020 0.00000 0.84537 -0.03500
C 	C 	0.26400 -0.00000 0.78213 0.02700
H 	H 	0.24460 0.00000 0.76120 0.05000
C 	C 	0.96280 0.50000 0.47050 0.00800
C 	C 	0.92090 0.50000 0.43915 0.02100
C 	C 	0.85160 0.50000 0.37861 0.05900
C 	C 	0.82020 0.50000 0.34537 -0.03200
C 	C 	0.76400 0.50000 0.28213 0.03500
H 	H 	0.74460 0.50000 0.26120 0.04900
C 	C 	0.53720 0.00000 0.97050 -0.00300
C 	C 	0.57910 0.00000 0.93915 0.01800
C 	C 	0.64840 0.00000 0.87861 0.05200
C 	C 	0.67980 0.00000 0.84537 -0.03400
C 	C 	0.73600 -0.00000 0.78213 0.02700
H 	H 	0.75540 0.00000 0.76120 0.05000
C 	C 	0.03720 0.50000 0.47050 -0.01600
C 	C 	0.07910 0.50000 0.43915 0.03000
C 	C 	0.14840 0.50000 0.37861 0.05500
C 	C 	0.17980 0.50000 0.34537 -0.03100
C 	C 	0.23600 0.50000 0.28213 0.03400
H 	H 	0.25540 0.50000 0.26120 0.04900
