data_crystal

_cell_length_a 18.58020
_cell_length_b 18.58020
_cell_length_c 45.90300
_cell_angle_alpha 90.00000
_cell_angle_beta  90.00000
_cell_angle_gamma 90.00000

_symmetry_space_group_name_	'P 1'
_symmetry_space_group_name_H-M	'P 1'

loop_
_symmetry_equiv_pos_as_xyz
  x,y,z

loop_
_atom_site_label
_atom_site_type_symbol
_atom_site_fract_x
_atom_site_fract_y
_atom_site_fract_z
_atom_site_charge
C 	C 	0.36586 0.23102 0.22327 0.36100
O 	O 	0.31040 0.20720 0.21121 -0.41100
O 	O 	0.36897 0.26400 0.24734 -0.40700
C 	C 	0.43546 0.21930 0.20773 -0.09000
C 	C 	0.43527 0.19080 0.18009 -0.00500
H 	H 	0.39170 0.18190 0.17080 0.04500
C 	C 	0.55620 0.06300 0.10079 -0.02800
H 	H 	0.59220 0.03040 0.09590 0.03000
C 	C 	0.45240 0.12840 0.08821 -0.03800
H 	H 	0.41780 0.14120 0.07450 0.04000
C 	C 	0.45040 0.16250 0.11499 -0.05000
H 	H 	0.41600 0.19760 0.11890 0.04500
C 	C 	0.55660 0.09640 0.12757 -0.05500
H 	H 	0.59420 0.08800 0.14050 0.04900
C 	C 	0.86586 0.73102 0.72327 0.35900
O 	O 	0.81040 0.70720 0.71121 -0.41100
O 	O 	0.86897 0.76400 0.74734 -0.40600
C 	C 	0.93546 0.71930 0.70773 -0.08600
C 	C 	0.93527 0.69080 0.68009 -0.00100
H 	H 	0.89170 0.68190 0.67080 0.04400
C 	C 	0.05620 0.56300 0.60079 -0.02500
H 	H 	0.09220 0.53040 0.59590 0.03100
C 	C 	0.95240 0.62840 0.58821 -0.03000
H 	H 	0.91780 0.64120 0.57450 0.03900
C 	C 	0.95040 0.66250 0.61499 -0.04900
H 	H 	0.91600 0.69760 0.61890 0.04700
C 	C 	0.05660 0.59640 0.62757 -0.05600
H 	H 	0.09420 0.58800 0.64050 0.05000
C 	C 	0.63414 0.76898 0.22327 0.36000
O 	O 	0.68960 0.79280 0.21121 -0.41100
O 	O 	0.63103 0.73600 0.24734 -0.40800
C 	C 	0.56454 0.78070 0.20773 -0.09000
C 	C 	0.56473 0.80920 0.18009 -0.00400
H 	H 	0.60830 0.81810 0.17080 0.04500
C 	C 	0.44380 0.93700 0.10079 -0.02500
H 	H 	0.40780 0.96960 0.09590 0.03300
C 	C 	0.54760 0.87160 0.08821 -0.03300
H 	H 	0.58220 0.85880 0.07450 0.03900
C 	C 	0.54960 0.83750 0.11499 -0.05300
H 	H 	0.58400 0.80240 0.11890 0.04700
C 	C 	0.44340 0.90360 0.12757 -0.05600
H 	H 	0.40580 0.91200 0.14050 0.05000
C 	C 	0.13414 0.26898 0.72327 0.36000
O 	O 	0.18960 0.29280 0.71121 -0.41100
O 	O 	0.13103 0.23600 0.74734 -0.40800
C 	C 	0.06454 0.28070 0.70773 -0.08900
C 	C 	0.06473 0.30920 0.68009 -0.00500
H 	H 	0.10830 0.31810 0.67080 0.04500
C 	C 	0.94380 0.43700 0.60079 -0.02400
H 	H 	0.90780 0.46960 0.59590 0.03100
C 	C 	0.04760 0.37160 0.58821 -0.03600
H 	H 	0.08220 0.35880 0.57450 0.03900
C 	C 	0.04960 0.33750 0.61499 -0.05100
H 	H 	0.08400 0.30240 0.61890 0.04600
C 	C 	0.94340 0.40360 0.62757 -0.05200
H 	H 	0.90580 0.41200 0.64050 0.04900
C 	C 	0.76898 0.36586 0.22327 0.36100
O 	O 	0.79280 0.31040 0.21121 -0.41100
O 	O 	0.73600 0.36897 0.24734 -0.40800
C 	C 	0.78070 0.43546 0.20773 -0.09100
C 	C 	0.80920 0.43527 0.18009 -0.00400
H 	H 	0.81810 0.39170 0.17080 0.04500
C 	C 	0.93700 0.55620 0.10079 -0.02500
H 	H 	0.96960 0.59220 0.09590 0.03300
C 	C 	0.87160 0.45240 0.08821 -0.03300
H 	H 	0.85880 0.41780 0.07450 0.03800
C 	C 	0.83750 0.45040 0.11499 -0.05400
H 	H 	0.80240 0.41600 0.11890 0.04700
C 	C 	0.90360 0.55660 0.12757 -0.05600
H 	H 	0.91200 0.59420 0.14050 0.05100
C 	C 	0.26898 0.86586 0.72327 0.35900
O 	O 	0.29280 0.81040 0.71121 -0.41100
O 	O 	0.23600 0.86897 0.74734 -0.40700
C 	C 	0.28070 0.93546 0.70773 -0.08600
C 	C 	0.30920 0.93527 0.68009 -0.00100
H 	H 	0.31810 0.89170 0.67080 0.04400
C 	C 	0.43700 0.05620 0.60079 -0.02500
H 	H 	0.46960 0.09220 0.59590 0.03100
C 	C 	0.37160 0.95240 0.58821 -0.03000
H 	H 	0.35880 0.91780 0.57450 0.03900
C 	C 	0.33750 0.95040 0.61499 -0.04900
H 	H 	0.30240 0.91600 0.61890 0.04600
C 	C 	0.40360 0.05660 0.62757 -0.05600
H 	H 	0.41200 0.09420 0.64050 0.05000
C 	C 	0.23102 0.63414 0.22327 0.36000
O 	O 	0.20720 0.68960 0.21121 -0.41100
O 	O 	0.26400 0.63103 0.24734 -0.40800
C 	C 	0.21930 0.56454 0.20773 -0.09000
C 	C 	0.19080 0.56473 0.18009 -0.00500
H 	H 	0.18190 0.60830 0.17080 0.04500
C 	C 	0.06300 0.44380 0.10079 -0.02900
H 	H 	0.03040 0.40780 0.09590 0.03000
C 	C 	0.12840 0.54760 0.08821 -0.03800
H 	H 	0.14120 0.58220 0.07450 0.04000
C 	C 	0.16250 0.54960 0.11499 -0.04900
H 	H 	0.19760 0.58400 0.11890 0.04500
C 	C 	0.09640 0.44340 0.12757 -0.05500
H 	H 	0.08800 0.40580 0.14050 0.04800
C 	C 	0.73102 0.13414 0.72327 0.36000
O 	O 	0.70720 0.18960 0.71121 -0.41100
O 	O 	0.76400 0.13103 0.74734 -0.40800
C 	C 	0.71930 0.06454 0.70773 -0.08900
C 	C 	0.69080 0.06473 0.68009 -0.00500
H 	H 	0.68190 0.10830 0.67080 0.04500
C 	C 	0.56300 0.94380 0.60079 -0.02400
H 	H 	0.53040 0.90780 0.59590 0.03100
C 	C 	0.62840 0.04760 0.58821 -0.03600
H 	H 	0.64120 0.08220 0.57450 0.03900
C 	C 	0.66250 0.04960 0.61499 -0.05100
H 	H 	0.69760 0.08400 0.61890 0.04600
C 	C 	0.59640 0.94340 0.62757 -0.05200
H 	H 	0.58800 0.90580 0.64050 0.04900
C 	C 	0.63414 0.23102 0.77673 0.36000
O 	O 	0.68960 0.20720 0.78879 -0.41100
O 	O 	0.63103 0.26400 0.75266 -0.40800
C 	C 	0.56454 0.21930 0.79227 -0.09000
C 	C 	0.56473 0.19080 0.81991 -0.00500
H 	H 	0.60830 0.18190 0.82920 0.04500
C 	C 	0.44380 0.06300 0.89921 -0.02900
H 	H 	0.40780 0.03040 0.90410 0.03000
C 	C 	0.54760 0.12840 0.91179 -0.03800
H 	H 	0.58220 0.14120 0.92550 0.04000
C 	C 	0.54960 0.16250 0.88501 -0.04900
H 	H 	0.58400 0.19760 0.88110 0.04500
C 	C 	0.44340 0.09640 0.87243 -0.05500
H 	H 	0.40580 0.08800 0.85950 0.04800
C 	C 	0.13414 0.73102 0.27673 0.36000
O 	O 	0.18960 0.70720 0.28879 -0.41100
O 	O 	0.13103 0.76400 0.25266 -0.40800
C 	C 	0.06454 0.71930 0.29227 -0.08900
C 	C 	0.06473 0.69080 0.31991 -0.00500
H 	H 	0.10830 0.68190 0.32920 0.04500
C 	C 	0.94380 0.56300 0.39921 -0.02400
H 	H 	0.90780 0.53040 0.40410 0.03100
C 	C 	0.04760 0.62840 0.41179 -0.03600
H 	H 	0.08220 0.64120 0.42550 0.03900
C 	C 	0.04960 0.66250 0.38501 -0.05100
H 	H 	0.08400 0.69760 0.38110 0.04600
C 	C 	0.94340 0.59640 0.37243 -0.05200
H 	H 	0.90580 0.58800 0.35950 0.04900
C 	C 	0.36586 0.76898 0.77673 0.36000
O 	O 	0.31040 0.79280 0.78879 -0.41100
O 	O 	0.36897 0.73600 0.75266 -0.40800
C 	C 	0.43546 0.78070 0.79227 -0.09100
C 	C 	0.43527 0.80920 0.81991 -0.00400
H 	H 	0.39170 0.81810 0.82920 0.04500
C 	C 	0.55620 0.93700 0.89921 -0.02500
H 	H 	0.59220 0.96960 0.90410 0.03300
C 	C 	0.45240 0.87160 0.91179 -0.03300
H 	H 	0.41780 0.85880 0.92550 0.03800
C 	C 	0.45040 0.83750 0.88501 -0.05400
H 	H 	0.41600 0.80240 0.88110 0.04700
C 	C 	0.55660 0.90360 0.87243 -0.05600
H 	H 	0.59420 0.91200 0.85950 0.05100
C 	C 	0.86586 0.26898 0.27673 0.35900
O 	O 	0.81040 0.29280 0.28879 -0.41100
O 	O 	0.86897 0.23600 0.25266 -0.40700
C 	C 	0.93546 0.28070 0.29227 -0.08600
C 	C 	0.93527 0.30920 0.31991 -0.00100
H 	H 	0.89170 0.31810 0.32920 0.04400
C 	C 	0.05620 0.43700 0.39921 -0.02500
H 	H 	0.09220 0.46960 0.40410 0.03100
C 	C 	0.95240 0.37160 0.41179 -0.03000
H 	H 	0.91780 0.35880 0.42550 0.03900
C 	C 	0.95040 0.33750 0.38501 -0.04900
H 	H 	0.91600 0.30240 0.38110 0.04600
C 	C 	0.05660 0.40360 0.37243 -0.05600
H 	H 	0.09420 0.41200 0.35950 0.05000
C 	C 	0.23102 0.36586 0.77673 0.36000
O 	O 	0.20720 0.31040 0.78879 -0.41200
O 	O 	0.26400 0.36897 0.75266 -0.40800
C 	C 	0.21930 0.43546 0.79227 -0.09100
C 	C 	0.19080 0.43527 0.81991 -0.00500
H 	H 	0.18190 0.39170 0.82920 0.04500
C 	C 	0.06300 0.55620 0.89921 -0.02800
H 	H 	0.03040 0.59220 0.90410 0.03000
C 	C 	0.12840 0.45240 0.91179 -0.03800
H 	H 	0.14120 0.41780 0.92550 0.04000
C 	C 	0.16250 0.45040 0.88501 -0.05000
H 	H 	0.19760 0.41600 0.88110 0.04500
C 	C 	0.09640 0.55660 0.87243 -0.05500
H 	H 	0.08800 0.59420 0.85950 0.04900
C 	C 	0.73102 0.86586 0.27673 0.35900
O 	O 	0.70720 0.81040 0.28879 -0.41100
O 	O 	0.76400 0.86897 0.25266 -0.40600
C 	C 	0.71930 0.93546 0.29227 -0.08600
C 	C 	0.69080 0.93527 0.31991 -0.00100
H 	H 	0.68190 0.89170 0.32920 0.04400
C 	C 	0.56300 0.05620 0.39921 -0.02500
H 	H 	0.53040 0.09220 0.40410 0.03100
C 	C 	0.62840 0.95240 0.41179 -0.03000
H 	H 	0.64120 0.91780 0.42550 0.03900
C 	C 	0.66250 0.95040 0.38501 -0.04900
H 	H 	0.69760 0.91600 0.38110 0.04700
C 	C 	0.59640 0.05660 0.37243 -0.05600
H 	H 	0.58800 0.09420 0.35950 0.05000
C 	C 	0.76898 0.63414 0.77673 0.36000
O 	O 	0.79280 0.68960 0.78879 -0.41100
O 	O 	0.73600 0.63103 0.75266 -0.40800
C 	C 	0.78070 0.56454 0.79227 -0.09000
C 	C 	0.80920 0.56473 0.81991 -0.00400
H 	H 	0.81810 0.60830 0.82920 0.04500
C 	C 	0.93700 0.44380 0.89921 -0.02500
H 	H 	0.96960 0.40780 0.90410 0.03300
C 	C 	0.87160 0.54760 0.91179 -0.03300
H 	H 	0.85880 0.58220 0.92550 0.03900
C 	C 	0.83750 0.54960 0.88501 -0.05300
H 	H 	0.80240 0.58400 0.88110 0.04700
C 	C 	0.90360 0.44340 0.87243 -0.05600
H 	H 	0.91200 0.40580 0.85950 0.05000
C 	C 	0.26898 0.13414 0.27673 0.36000
O 	O 	0.29280 0.18960 0.28879 -0.41100
O 	O 	0.23600 0.13103 0.25266 -0.40800
C 	C 	0.28070 0.06454 0.29227 -0.08900
C 	C 	0.30920 0.06473 0.31991 -0.00500
H 	H 	0.31810 0.10830 0.32920 0.04500
C 	C 	0.43700 0.94380 0.39921 -0.02400
H 	H 	0.46960 0.90780 0.40410 0.03100
C 	C 	0.37160 0.04760 0.41179 -0.03600
H 	H 	0.35880 0.08220 0.42550 0.03900
C 	C 	0.33750 0.04960 0.38501 -0.05100
H 	H 	0.30240 0.08400 0.38110 0.04600
C 	C 	0.40360 0.94340 0.37243 -0.05200
H 	H 	0.41200 0.90580 0.35950 0.04900
C 	C 	0.63414 0.76898 0.77673 0.36000
O 	O 	0.68960 0.79280 0.78879 -0.41100
O 	O 	0.63103 0.73600 0.75266 -0.40800
C 	C 	0.56454 0.78070 0.79227 -0.09000
C 	C 	0.56473 0.80920 0.81991 -0.00400
H 	H 	0.60830 0.81810 0.82920 0.04500
C 	C 	0.44380 0.93700 0.89921 -0.02500
H 	H 	0.40780 0.96960 0.90410 0.03300
C 	C 	0.54760 0.87160 0.91179 -0.03300
H 	H 	0.58220 0.85880 0.92550 0.03900
C 	C 	0.54960 0.83750 0.88501 -0.05300
H 	H 	0.58400 0.80240 0.88110 0.04700
C 	C 	0.44340 0.90360 0.87243 -0.05600
H 	H 	0.40580 0.91200 0.85950 0.05000
C 	C 	0.13414 0.26898 0.27673 0.36000
O 	O 	0.18960 0.29280 0.28879 -0.41100
O 	O 	0.13103 0.23600 0.25266 -0.40800
C 	C 	0.06454 0.28070 0.29227 -0.08900
C 	C 	0.06473 0.30920 0.31991 -0.00500
H 	H 	0.10830 0.31810 0.32920 0.04500
C 	C 	0.94380 0.43700 0.39921 -0.02400
H 	H 	0.90780 0.46960 0.40410 0.03100
C 	C 	0.04760 0.37160 0.41179 -0.03600
H 	H 	0.08220 0.35880 0.42550 0.03900
C 	C 	0.04960 0.33750 0.38501 -0.05100
H 	H 	0.08400 0.30240 0.38110 0.04600
C 	C 	0.94340 0.40360 0.37243 -0.05200
H 	H 	0.90580 0.41200 0.35950 0.04900
C 	C 	0.36586 0.23102 0.77673 0.36000
O 	O 	0.31040 0.20720 0.78879 -0.41200
O 	O 	0.36897 0.26400 0.75266 -0.40800
C 	C 	0.43546 0.21930 0.79227 -0.09100
C 	C 	0.43527 0.19080 0.81991 -0.00500
H 	H 	0.39170 0.18190 0.82920 0.04500
C 	C 	0.55620 0.06300 0.89921 -0.02800
H 	H 	0.59220 0.03040 0.90410 0.03000
C 	C 	0.45240 0.12840 0.91179 -0.03800
H 	H 	0.41780 0.14120 0.92550 0.04000
C 	C 	0.45040 0.16250 0.88501 -0.05000
H 	H 	0.41600 0.19760 0.88110 0.04500
C 	C 	0.55660 0.09640 0.87243 -0.05500
H 	H 	0.59420 0.08800 0.85950 0.04900
C 	C 	0.86586 0.73102 0.27673 0.35900
O 	O 	0.81040 0.70720 0.28879 -0.41100
O 	O 	0.86897 0.76400 0.25266 -0.40600
C 	C 	0.93546 0.71930 0.29227 -0.08600
C 	C 	0.93527 0.69080 0.31991 -0.00100
H 	H 	0.89170 0.68190 0.32920 0.04400
C 	C 	0.05620 0.56300 0.39921 -0.02500
H 	H 	0.09220 0.53040 0.40410 0.03100
C 	C 	0.95240 0.62840 0.41179 -0.03000
H 	H 	0.91780 0.64120 0.42550 0.03900
C 	C 	0.95040 0.66250 0.38501 -0.04900
H 	H 	0.91600 0.69760 0.38110 0.04700
C 	C 	0.05660 0.59640 0.37243 -0.05600
H 	H 	0.09420 0.58800 0.35950 0.05000
C 	C 	0.23102 0.63414 0.77673 0.36000
O 	O 	0.20720 0.68960 0.78879 -0.41100
O 	O 	0.26400 0.63103 0.75266 -0.40800
C 	C 	0.21930 0.56454 0.79227 -0.09000
C 	C 	0.19080 0.56473 0.81991 -0.00500
H 	H 	0.18190 0.60830 0.82920 0.04500
C 	C 	0.06300 0.44380 0.89921 -0.02900
H 	H 	0.03040 0.40780 0.90410 0.03000
C 	C 	0.12840 0.54760 0.91179 -0.03800
H 	H 	0.14120 0.58220 0.92550 0.04000
C 	C 	0.16250 0.54960 0.88501 -0.04900
H 	H 	0.19760 0.58400 0.88110 0.04500
C 	C 	0.09640 0.44340 0.87243 -0.05500
H 	H 	0.08800 0.40580 0.85950 0.04800
C 	C 	0.73102 0.13414 0.27673 0.36000
O 	O 	0.70720 0.18960 0.28879 -0.41100
O 	O 	0.76400 0.13103 0.25266 -0.40800
C 	C 	0.71930 0.06454 0.29227 -0.08900
C 	C 	0.69080 0.06473 0.31991 -0.00500
H 	H 	0.68190 0.10830 0.32920 0.04500
C 	C 	0.56300 0.94380 0.39921 -0.02400
H 	H 	0.53040 0.90780 0.40410 0.03100
C 	C 	0.62840 0.04760 0.41179 -0.03600
H 	H 	0.64120 0.08220 0.42550 0.03900
C 	C 	0.66250 0.04960 0.38501 -0.05100
H 	H 	0.69760 0.08400 0.38110 0.04600
C 	C 	0.59640 0.94340 0.37243 -0.05200
H 	H 	0.58800 0.90580 0.35950 0.04900
C 	C 	0.76898 0.36586 0.77673 0.36000
O 	O 	0.79280 0.31040 0.78879 -0.41100
O 	O 	0.73600 0.36897 0.75266 -0.40800
C 	C 	0.78070 0.43546 0.79227 -0.09100
C 	C 	0.80920 0.43527 0.81991 -0.00400
H 	H 	0.81810 0.39170 0.82920 0.04500
C 	C 	0.93700 0.55620 0.89921 -0.02500
H 	H 	0.96960 0.59220 0.90410 0.03300
C 	C 	0.87160 0.45240 0.91179 -0.03300
H 	H 	0.85880 0.41780 0.92550 0.03800
C 	C 	0.83750 0.45040 0.88501 -0.05400
H 	H 	0.80240 0.41600 0.88110 0.04700
C 	C 	0.90360 0.55660 0.87243 -0.05600
H 	H 	0.91200 0.59420 0.85950 0.05100
C 	C 	0.26898 0.86586 0.27673 0.35900
O 	O 	0.29280 0.81040 0.28879 -0.41100
O 	O 	0.23600 0.86897 0.25266 -0.40700
C 	C 	0.28070 0.93546 0.29227 -0.08600
C 	C 	0.30920 0.93527 0.31991 -0.00100
H 	H 	0.31810 0.89170 0.32920 0.04400
C 	C 	0.43700 0.05620 0.39921 -0.02500
H 	H 	0.46960 0.09220 0.40410 0.03100
C 	C 	0.37160 0.95240 0.41179 -0.03000
H 	H 	0.35880 0.91780 0.42550 0.03900
C 	C 	0.33750 0.95040 0.38501 -0.04900
H 	H 	0.30240 0.91600 0.38110 0.04600
C 	C 	0.40360 0.05660 0.37243 -0.05600
H 	H 	0.41200 0.09420 0.35950 0.05000
C 	C 	0.36586 0.76898 0.22327 0.36100
O 	O 	0.31040 0.79280 0.21121 -0.41100
O 	O 	0.36897 0.73600 0.24734 -0.40800
C 	C 	0.43546 0.78070 0.20773 -0.09100
C 	C 	0.43527 0.80920 0.18009 -0.00400
H 	H 	0.39170 0.81810 0.17080 0.04500
C 	C 	0.55620 0.93700 0.10079 -0.02500
H 	H 	0.59220 0.96960 0.09590 0.03300
C 	C 	0.45240 0.87160 0.08821 -0.03300
H 	H 	0.41780 0.85880 0.07450 0.03800
C 	C 	0.45040 0.83750 0.11499 -0.05400
H 	H 	0.41600 0.80240 0.11890 0.04700
C 	C 	0.55660 0.90360 0.12757 -0.05600
H 	H 	0.59420 0.91200 0.14050 0.05100
C 	C 	0.86586 0.26898 0.72327 0.35900
O 	O 	0.81040 0.29280 0.71121 -0.41100
O 	O 	0.86897 0.23600 0.74734 -0.40700
C 	C 	0.93546 0.28070 0.70773 -0.08600
C 	C 	0.93527 0.30920 0.68009 -0.00100
H 	H 	0.89170 0.31810 0.67080 0.04400
C 	C 	0.05620 0.43700 0.60079 -0.02500
H 	H 	0.09220 0.46960 0.59590 0.03100
C 	C 	0.95240 0.37160 0.58821 -0.03000
H 	H 	0.91780 0.35880 0.57450 0.03900
C 	C 	0.95040 0.33750 0.61499 -0.04900
H 	H 	0.91600 0.30240 0.61890 0.04600
C 	C 	0.05660 0.40360 0.62757 -0.05600
H 	H 	0.09420 0.41200 0.64050 0.05000
C 	C 	0.63414 0.23102 0.22327 0.36000
O 	O 	0.68960 0.20720 0.21121 -0.41100
O 	O 	0.63103 0.26400 0.24734 -0.40800
C 	C 	0.56454 0.21930 0.20773 -0.09000
C 	C 	0.56473 0.19080 0.18009 -0.00500
H 	H 	0.60830 0.18190 0.17080 0.04500
C 	C 	0.44380 0.06300 0.10079 -0.02900
H 	H 	0.40780 0.03040 0.09590 0.03000
C 	C 	0.54760 0.12840 0.08821 -0.03800
H 	H 	0.58220 0.14120 0.07450 0.04000
C 	C 	0.54960 0.16250 0.11499 -0.04900
H 	H 	0.58400 0.19760 0.11890 0.04500
C 	C 	0.44340 0.09640 0.12757 -0.05500
H 	H 	0.40580 0.08800 0.14050 0.04800
C 	C 	0.13414 0.73102 0.72327 0.36000
O 	O 	0.18960 0.70720 0.71121 -0.41100
O 	O 	0.13103 0.76400 0.74734 -0.40800
C 	C 	0.06454 0.71930 0.70773 -0.08900
C 	C 	0.06473 0.69080 0.68009 -0.00500
H 	H 	0.10830 0.68190 0.67080 0.04500
C 	C 	0.94380 0.56300 0.60079 -0.02400
H 	H 	0.90780 0.53040 0.59590 0.03100
C 	C 	0.04760 0.62840 0.58821 -0.03600
H 	H 	0.08220 0.64120 0.57450 0.03900
C 	C 	0.04960 0.66250 0.61499 -0.05100
H 	H 	0.08400 0.69760 0.61890 0.04600
C 	C 	0.94340 0.59640 0.62757 -0.05200
H 	H 	0.90580 0.58800 0.64050 0.04900
C 	C 	0.76898 0.63414 0.22327 0.36000
O 	O 	0.79280 0.68960 0.21121 -0.41100
O 	O 	0.73600 0.63103 0.24734 -0.40800
C 	C 	0.78070 0.56454 0.20773 -0.09000
C 	C 	0.80920 0.56473 0.18009 -0.00400
H 	H 	0.81810 0.60830 0.17080 0.04500
C 	C 	0.93700 0.44380 0.10079 -0.02500
H 	H 	0.96960 0.40780 0.09590 0.03300
C 	C 	0.87160 0.54760 0.08821 -0.03300
H 	H 	0.85880 0.58220 0.07450 0.03900
C 	C 	0.83750 0.54960 0.11499 -0.05300
H 	H 	0.80240 0.58400 0.11890 0.04700
C 	C 	0.90360 0.44340 0.12757 -0.05600
H 	H 	0.91200 0.40580 0.14050 0.05000
C 	C 	0.26898 0.13414 0.72327 0.36000
O 	O 	0.29280 0.18960 0.71121 -0.41100
O 	O 	0.23600 0.13103 0.74734 -0.40800
C 	C 	0.28070 0.06454 0.70773 -0.08900
C 	C 	0.30920 0.06473 0.68009 -0.00500
H 	H 	0.31810 0.10830 0.67080 0.04500
C 	C 	0.43700 0.94380 0.60079 -0.02400
H 	H 	0.46960 0.90780 0.59590 0.03100
C 	C 	0.37160 0.04760 0.58821 -0.03600
H 	H 	0.35880 0.08220 0.57450 0.03900
C 	C 	0.33750 0.04960 0.61499 -0.05100
H 	H 	0.30240 0.08400 0.61890 0.04600
C 	C 	0.40360 0.94340 0.62757 -0.05200
H 	H 	0.41200 0.90580 0.64050 0.04900
C 	C 	0.23102 0.36586 0.22327 0.36000
O 	O 	0.20720 0.31040 0.21121 -0.41200
O 	O 	0.26400 0.36897 0.24734 -0.40800
C 	C 	0.21930 0.43546 0.20773 -0.09100
C 	C 	0.19080 0.43527 0.18009 -0.00500
H 	H 	0.18190 0.39170 0.17080 0.04500
C 	C 	0.06300 0.55620 0.10079 -0.02800
H 	H 	0.03040 0.59220 0.09590 0.03000
C 	C 	0.12840 0.45240 0.08821 -0.03800
H 	H 	0.14120 0.41780 0.07450 0.04000
C 	C 	0.16250 0.45040 0.11499 -0.05000
H 	H 	0.19760 0.41600 0.11890 0.04500
C 	C 	0.09640 0.55660 0.12757 -0.05500
H 	H 	0.08800 0.59420 0.14050 0.04900
C 	C 	0.73102 0.86586 0.72327 0.35900
O 	O 	0.70720 0.81040 0.71121 -0.41100
O 	O 	0.76400 0.86897 0.74734 -0.40600
C 	C 	0.71930 0.93546 0.70773 -0.08600
C 	C 	0.69080 0.93527 0.68009 -0.00100
H 	H 	0.68190 0.89170 0.67080 0.04400
C 	C 	0.56300 0.05620 0.60079 -0.02500
H 	H 	0.53040 0.09220 0.59590 0.03100
C 	C 	0.62840 0.95240 0.58821 -0.03000
H 	H 	0.64120 0.91780 0.57450 0.03900
C 	C 	0.66250 0.95040 0.61499 -0.04900
H 	H 	0.69760 0.91600 0.61890 0.04700
C 	C 	0.59640 0.05660 0.62757 -0.05600
H 	H 	0.58800 0.09420 0.64050 0.05000
Cu	Cu	0.21546 0.21546 0.22885 0.90700
Cu	Cu	0.71546 0.71546 0.72885 0.90700
Cu	Cu	0.78454 0.78454 0.22885 0.90700
Cu	Cu	0.28454 0.28454 0.72885 0.90700
Cu	Cu	0.78454 0.21546 0.22885 0.90700
Cu	Cu	0.28454 0.71546 0.72885 0.90700
Cu	Cu	0.21546 0.78454 0.22885 0.90700
Cu	Cu	0.71546 0.28454 0.72885 0.90700
Cu	Cu	0.78454 0.21546 0.77115 0.90700
Cu	Cu	0.28454 0.71546 0.27115 0.90700
Cu	Cu	0.21546 0.78454 0.77115 0.90700
Cu	Cu	0.71546 0.28454 0.27115 0.90700
Cu	Cu	0.21546 0.21546 0.77115 0.90700
Cu	Cu	0.71546 0.71546 0.27115 0.90700
Cu	Cu	0.78454 0.78454 0.77115 0.90700
Cu	Cu	0.28454 0.28454 0.27115 0.90700
C 	C 	0.50000 0.17500 0.16572 -0.02700
C 	C 	0.50000 0.14340 0.13556 0.05500
C 	C 	0.50000 0.23440 0.22170 0.03200
H 	H 	0.50000 0.25460 0.24020 0.05000
C 	C 	0.50000 0.07880 0.08061 0.02500
C 	C 	0.50000 0.07460 0.02687 -0.08600
H 	H 	0.50000 0.12460 0.02710 0.05800
C 	C 	0.50000 0.03740 0.05277 -0.01100
C 	C 	0.00000 0.67500 0.66572 -0.03100
C 	C 	0.00000 0.64340 0.63556 0.05200
C 	C 	0.00000 0.73440 0.72170 0.02600
H 	H 	-0.00000 0.75460 0.74020 0.05100
C 	C 	0.00000 0.57880 0.58061 0.01300
C 	C 	0.00000 0.57460 0.52687 -0.09800
H 	H 	0.00000 0.62460 0.52710 0.06200
C 	C 	-0.00000 0.53740 0.55277 0.00300
C 	C 	0.50000 0.82500 0.16572 -0.02800
C 	C 	0.50000 0.85660 0.13556 0.05900
C 	C 	0.50000 0.76560 0.22170 0.03200
H 	H 	0.50000 0.74540 0.24020 0.05000
C 	C 	0.50000 0.92120 0.08061 0.01400
C 	C 	0.50000 0.92540 0.02687 -0.10800
H 	H 	0.50000 0.87540 0.02710 0.06600
C 	C 	0.50000 0.96260 0.05277 0.01500
C 	C 	0.00000 0.32500 0.66572 -0.03100
C 	C 	0.00000 0.35660 0.63556 0.05200
C 	C 	0.00000 0.26560 0.72170 0.02600
H 	H 	-0.00000 0.24540 0.74020 0.05100
C 	C 	-0.00000 0.42120 0.58061 0.01300
C 	C 	0.00000 0.42540 0.52687 -0.09800
H 	H 	-0.00000 0.37540 0.52710 0.06100
C 	C 	-0.00000 0.46260 0.55277 0.00300
C 	C 	0.82500 0.50000 0.16572 -0.02800
C 	C 	0.85660 0.50000 0.13556 0.05900
C 	C 	0.76560 0.50000 0.22170 0.03200
H 	H 	0.74540 0.50000 0.24020 0.05000
C 	C 	0.92120 0.50000 0.08061 0.01400
C 	C 	0.92540 0.50000 0.02687 -0.10800
H 	H 	0.87540 0.50000 0.02710 0.06600
C 	C 	0.96260 0.50000 0.05277 0.01500
C 	C 	0.32500 0.00000 0.66572 -0.03100
C 	C 	0.35660 0.00000 0.63556 0.05200
C 	C 	0.26560 0.00000 0.72170 0.02600
H 	H 	0.24540 0.00000 0.74020 0.05100
C 	C 	0.42120 0.00000 0.58061 0.01300
C 	C 	0.42540 0.00000 0.52687 -0.09800
H 	H 	0.37540 0.00000 0.52710 0.06100
C 	C 	0.46260 0.00000 0.55277 0.00300
C 	C 	0.17500 0.50000 0.16572 -0.02700
C 	C 	0.14340 0.50000 0.13556 0.05500
C 	C 	0.23440 0.50000 0.22170 0.03200
H 	H 	0.25460 0.50000 0.24020 0.05000
C 	C 	0.07880 0.50000 0.08061 0.02500
C 	C 	0.07460 0.50000 0.02687 -0.08600
H 	H 	0.12460 0.50000 0.02710 0.05800
C 	C 	0.03740 0.50000 0.05277 -0.01100
C 	C 	0.67500 0.00000 0.66572 -0.03100
C 	C 	0.64340 0.00000 0.63556 0.05200
C 	C 	0.73440 0.00000 0.72170 0.02600
H 	H 	0.75460 0.00000 0.74020 0.05100
C 	C 	0.57880 0.00000 0.58061 0.01300
C 	C 	0.57460 0.00000 0.52687 -0.09800
H 	H 	0.62460 0.00000 0.52710 0.06200
C 	C 	0.53740 0.00000 0.55277 0.00300
C 	C 	0.50000 0.17500 0.83428 -0.02700
C 	C 	0.50000 0.14340 0.86444 0.05500
C 	C 	0.50000 0.23440 0.77830 0.03200
H 	H 	0.50000 0.25460 0.75980 0.05000
C 	C 	0.50000 0.07880 0.91939 0.02500
C 	C 	0.50000 0.07460 0.97313 -0.08500
H 	H 	0.50000 0.12460 0.97290 0.05800
C 	C 	0.50000 0.03740 0.94723 -0.01100
C 	C 	0.00000 0.67500 0.33428 -0.03100
C 	C 	0.00000 0.64340 0.36444 0.05200
C 	C 	0.00000 0.73440 0.27830 0.02600
H 	H 	-0.00000 0.75460 0.25980 0.05100
C 	C 	0.00000 0.57880 0.41939 0.01300
C 	C 	-0.00000 0.57460 0.47313 -0.09800
H 	H 	0.00000 0.62460 0.47290 0.06200
C 	C 	-0.00000 0.53740 0.44723 0.00300
C 	C 	0.50000 0.82500 0.83428 -0.02800
C 	C 	0.50000 0.85660 0.86444 0.05900
C 	C 	0.50000 0.76560 0.77830 0.03200
H 	H 	0.50000 0.74540 0.75980 0.05000
C 	C 	0.50000 0.92120 0.91939 0.01400
C 	C 	0.50000 0.92540 0.97313 -0.10800
H 	H 	0.50000 0.87540 0.97290 0.06600
C 	C 	0.50000 0.96260 0.94723 0.01500
C 	C 	-0.00000 0.32500 0.33428 -0.03100
C 	C 	-0.00000 0.35660 0.36444 0.05200
C 	C 	0.00000 0.26560 0.27830 0.02600
H 	H 	-0.00000 0.24540 0.25980 0.05100
C 	C 	0.00000 0.42120 0.41939 0.01300
C 	C 	-0.00000 0.42540 0.47313 -0.09800
H 	H 	0.00000 0.37540 0.47290 0.06100
C 	C 	-0.00000 0.46260 0.44723 0.00300
C 	C 	0.17500 0.50000 0.83428 -0.02700
C 	C 	0.14340 0.50000 0.86444 0.05500
C 	C 	0.23440 0.50000 0.77830 0.03200
H 	H 	0.25460 0.50000 0.75980 0.05000
C 	C 	0.07880 0.50000 0.91939 0.02500
C 	C 	0.07460 0.50000 0.97313 -0.08500
H 	H 	0.12460 0.50000 0.97290 0.05800
C 	C 	0.03740 0.50000 0.94723 -0.01100
C 	C 	0.67500 -0.00000 0.33428 -0.03100
C 	C 	0.64340 -0.00000 0.36444 0.05200
C 	C 	0.73440 0.00000 0.27830 0.02600
H 	H 	0.75460 0.00000 0.25980 0.05100
C 	C 	0.57880 0.00000 0.41939 0.01300
C 	C 	0.57460 0.00000 0.47313 -0.09800
H 	H 	0.62460 0.00000 0.47290 0.06200
C 	C 	0.53740 0.00000 0.44723 0.00300
C 	C 	0.82500 0.50000 0.83428 -0.02800
C 	C 	0.85660 0.50000 0.86444 0.05900
C 	C 	0.76560 0.50000 0.77830 0.03200
H 	H 	0.74540 0.50000 0.75980 0.05000
C 	C 	0.92120 0.50000 0.91939 0.01400
C 	C 	0.92540 0.50000 0.97313 -0.10800
H 	H 	0.87540 0.50000 0.97290 0.06600
C 	C 	0.96260 0.50000 0.94723 0.01500
C 	C 	0.32500 -0.00000 0.33428 -0.03100
C 	C 	0.35660 -0.00000 0.36444 0.05200
C 	C 	0.26560 0.00000 0.27830 0.02600
H 	H 	0.24540 0.00000 0.25980 0.05100
C 	C 	0.42120 0.00000 0.41939 0.01300
C 	C 	0.42540 0.00000 0.47313 -0.09800
H 	H 	0.37540 0.00000 0.47290 0.06100
C 	C 	0.46260 0.00000 0.44723 0.00300
C 	C 	0.50000 0.03780 -0.00000 0.02000
C 	C 	-0.00000 0.53780 0.50000 0.03500
C 	C 	0.50000 0.96220 -0.00000 0.05000
C 	C 	-0.00000 0.46220 0.50000 0.03500
C 	C 	0.96220 0.50000 -0.00000 0.05000
C 	C 	0.46220 0.00000 0.50000 0.03500
C 	C 	0.03780 0.50000 -0.00000 0.02000
C 	C 	0.53780 0.00000 0.50000 0.03500
