data_crystal

_cell_length_a 33.32610
_cell_length_b 33.32610
_cell_length_c 33.32610
_cell_angle_alpha 90.00000
_cell_angle_beta  90.00000
_cell_angle_gamma 90.00000

_symmetry_space_group_name_	'P 1'
_symmetry_space_group_name_H-M	'P 1'

loop_
_symmetry_equiv_pos_as_xyz
  x,y,z

loop_
_atom_site_label
_atom_site_type_symbol
_atom_site_fract_x
_atom_site_fract_y
_atom_site_fract_z
_atom_site_charge
O 	O 	0.03860 0.78227 0.20210 -0.42000
O 	O 	0.96888 0.78354 0.19999 -0.40900
C 	C 	0.93861 0.96490 0.99812 -0.15800
H 	H 	0.91910 0.96280 0.01790 0.08600
C 	C 	0.97000 0.93736 0.99570 0.09100
C 	C 	0.97170 0.90742 0.02966 -0.01800
C 	C 	0.93718 0.89387 0.04880 -0.03700
H 	H 	0.91210 0.90170 0.03950 0.04200
C 	C 	0.94022 0.86867 0.08189 -0.06700
H 	H 	0.91710 0.85960 0.09470 0.05300
C 	C 	0.97780 0.85702 0.09585 0.01500
C 	C 	0.01225 0.87057 0.07670 -0.06300
H 	H 	0.03740 0.86280 0.08610 0.05200
C 	C 	0.00921 0.89577 0.04363 -0.04000
H 	H 	0.03230 0.90480 0.03080 0.04700
C 	C 	0.97780 0.83130 0.13270 0.02900
H 	H 	0.95260 0.82470 0.14280 0.04000
C 	C 	0.00660 0.81780 0.15134 -0.19300
H 	H 	0.03210 0.82390 0.14170 0.11200
C 	C 	0.00390 0.79100 0.19010 0.37100
O 	O 	0.46140 0.71773 0.20210 -0.42000
O 	O 	0.53112 0.71646 0.19999 -0.40900
C 	C 	0.56139 0.53510 0.99812 -0.15800
H 	H 	0.58090 0.53720 0.01790 0.08600
C 	C 	0.53000 0.56264 0.99570 0.09100
C 	C 	0.52830 0.59258 0.02966 -0.01800
C 	C 	0.56282 0.60613 0.04880 -0.03700
H 	H 	0.58790 0.59830 0.03950 0.04200
C 	C 	0.55978 0.63133 0.08189 -0.06600
H 	H 	0.58290 0.64040 0.09470 0.05300
C 	C 	0.52220 0.64298 0.09585 0.01500
C 	C 	0.48775 0.62943 0.07670 -0.06300
H 	H 	0.46260 0.63720 0.08610 0.05200
C 	C 	0.49079 0.60423 0.04363 -0.04100
H 	H 	0.46770 0.59520 0.03080 0.04700
C 	C 	0.52220 0.66870 0.13270 0.02900
H 	H 	0.54740 0.67530 0.14280 0.04000
C 	C 	0.49340 0.68220 0.15134 -0.19300
H 	H 	0.46790 0.67610 0.14170 0.11200
C 	C 	0.49610 0.70900 0.19010 0.37100
O 	O 	0.46140 0.78227 0.29790 -0.42000
O 	O 	0.53112 0.78354 0.30001 -0.40900
C 	C 	0.56139 0.96490 0.50188 -0.15800
H 	H 	0.58090 0.96280 0.48210 0.08600
C 	C 	0.53000 0.93736 0.50430 0.09100
C 	C 	0.52830 0.90742 0.47034 -0.01800
C 	C 	0.56282 0.89387 0.45120 -0.03700
H 	H 	0.58790 0.90170 0.46050 0.04200
C 	C 	0.55978 0.86867 0.41811 -0.06500
H 	H 	0.58290 0.85960 0.40530 0.05400
C 	C 	0.52220 0.85702 0.40415 0.01600
C 	C 	0.48775 0.87057 0.42330 -0.06200
H 	H 	0.46260 0.86280 0.41390 0.05300
C 	C 	0.49079 0.89577 0.45637 -0.04000
H 	H 	0.46770 0.90480 0.46920 0.04800
C 	C 	0.52220 0.83130 0.36730 0.03000
H 	H 	0.54740 0.82470 0.35720 0.04100
C 	C 	0.49340 0.81780 0.34866 -0.19200
H 	H 	0.46790 0.82390 0.35830 0.11300
C 	C 	0.49610 0.79100 0.30990 0.37200
O 	O 	0.03860 0.71773 0.29790 -0.41900
O 	O 	0.96888 0.71646 0.30001 -0.40800
C 	C 	0.93861 0.53510 0.50188 -0.15700
H 	H 	0.91910 0.53720 0.48210 0.08700
C 	C 	0.97000 0.56264 0.50430 0.09200
C 	C 	0.97170 0.59258 0.47034 -0.01700
C 	C 	0.93718 0.60613 0.45120 -0.03600
H 	H 	0.91210 0.59830 0.46050 0.04300
C 	C 	0.94022 0.63133 0.41811 -0.06500
H 	H 	0.91710 0.64040 0.40530 0.05400
C 	C 	0.97780 0.64298 0.40415 0.01600
C 	C 	0.01225 0.62943 0.42330 -0.06200
H 	H 	0.03740 0.63720 0.41390 0.05300
C 	C 	0.00921 0.60423 0.45637 -0.04000
H 	H 	0.03230 0.59520 0.46920 0.04800
C 	C 	0.97780 0.66870 0.36730 0.03000
H 	H 	0.95260 0.67530 0.35720 0.04100
C 	C 	0.00660 0.68220 0.34866 -0.19200
H 	H 	0.03210 0.67610 0.35830 0.11300
C 	C 	0.00390 0.70900 0.30990 0.37200
O 	O 	0.20210 0.03860 0.78227 -0.41900
O 	O 	0.19999 0.96888 0.78354 -0.40800
C 	C 	0.99812 0.93861 0.96490 -0.15700
H 	H 	0.01790 0.91910 0.96280 0.08700
C 	C 	0.99570 0.97000 0.93736 0.09200
C 	C 	0.02966 0.97170 0.90742 -0.01700
C 	C 	0.04880 0.93718 0.89387 -0.03600
H 	H 	0.03950 0.91210 0.90170 0.04300
C 	C 	0.08189 0.94022 0.86867 -0.06600
H 	H 	0.09470 0.91710 0.85960 0.05400
C 	C 	0.09585 0.97780 0.85702 0.01600
C 	C 	0.07670 0.01225 0.87057 -0.06200
H 	H 	0.08610 0.03740 0.86280 0.05300
C 	C 	0.04363 0.00921 0.89577 -0.03900
H 	H 	0.03080 0.03230 0.90480 0.04800
C 	C 	0.13270 0.97780 0.83130 0.03000
H 	H 	0.14280 0.95260 0.82470 0.04100
C 	C 	0.15134 0.00660 0.81780 -0.19200
H 	H 	0.14170 0.03210 0.82390 0.11300
C 	C 	0.19010 0.00390 0.79100 0.37200
O 	O 	0.20210 0.46140 0.71773 -0.41900
O 	O 	0.19999 0.53112 0.71646 -0.40800
C 	C 	0.99812 0.56139 0.53510 -0.15700
H 	H 	0.01790 0.58090 0.53720 0.08700
C 	C 	0.99570 0.53000 0.56264 0.09200
C 	C 	0.02966 0.52830 0.59258 -0.01700
C 	C 	0.04880 0.56282 0.60613 -0.03600
H 	H 	0.03950 0.58790 0.59830 0.04300
C 	C 	0.08189 0.55978 0.63133 -0.06500
H 	H 	0.09470 0.58290 0.64040 0.05400
C 	C 	0.09585 0.52220 0.64298 0.01600
C 	C 	0.07670 0.48775 0.62943 -0.06200
H 	H 	0.08610 0.46260 0.63720 0.05300
C 	C 	0.04363 0.49079 0.60423 -0.04000
H 	H 	0.03080 0.46770 0.59520 0.04800
C 	C 	0.13270 0.52220 0.66870 0.03000
H 	H 	0.14280 0.54740 0.67530 0.04100
C 	C 	0.15134 0.49340 0.68220 -0.19200
H 	H 	0.14170 0.46790 0.67610 0.11300
C 	C 	0.19010 0.49610 0.70900 0.37200
O 	O 	0.29790 0.46140 0.78227 -0.41900
O 	O 	0.30001 0.53112 0.78354 -0.40800
C 	C 	0.50188 0.56139 0.96490 -0.15700
H 	H 	0.48210 0.58090 0.96280 0.08700
C 	C 	0.50430 0.53000 0.93736 0.09200
C 	C 	0.47034 0.52830 0.90742 -0.01700
C 	C 	0.45120 0.56282 0.89387 -0.03600
H 	H 	0.46050 0.58790 0.90170 0.04300
C 	C 	0.41811 0.55978 0.86867 -0.06500
H 	H 	0.40530 0.58290 0.85960 0.05400
C 	C 	0.40415 0.52220 0.85702 0.01600
C 	C 	0.42330 0.48775 0.87057 -0.06200
H 	H 	0.41390 0.46260 0.86280 0.05300
C 	C 	0.45637 0.49079 0.89577 -0.04000
H 	H 	0.46920 0.46770 0.90480 0.04800
C 	C 	0.36730 0.52220 0.83130 0.03000
H 	H 	0.35720 0.54740 0.82470 0.04100
C 	C 	0.34866 0.49340 0.81780 -0.19200
H 	H 	0.35830 0.46790 0.82390 0.11300
C 	C 	0.30990 0.49610 0.79100 0.37200
O 	O 	0.29790 0.03860 0.71773 -0.41900
O 	O 	0.30001 0.96888 0.71646 -0.40800
C 	C 	0.50188 0.93861 0.53510 -0.15700
H 	H 	0.48210 0.91910 0.53720 0.08700
C 	C 	0.50430 0.97000 0.56264 0.09200
C 	C 	0.47034 0.97170 0.59258 -0.01700
C 	C 	0.45120 0.93718 0.60613 -0.03600
H 	H 	0.46050 0.91210 0.59830 0.04300
C 	C 	0.41811 0.94022 0.63133 -0.06500
H 	H 	0.40530 0.91710 0.64040 0.05400
C 	C 	0.40415 0.97780 0.64298 0.01600
C 	C 	0.42330 0.01225 0.62943 -0.06200
H 	H 	0.41390 0.03740 0.63720 0.05300
C 	C 	0.45637 0.00921 0.60423 -0.04000
H 	H 	0.46920 0.03230 0.59520 0.04800
C 	C 	0.36730 0.97780 0.66870 0.03000
H 	H 	0.35720 0.95260 0.67530 0.04100
C 	C 	0.34866 0.00660 0.68220 -0.19200
H 	H 	0.35830 0.03210 0.67610 0.11300
C 	C 	0.30990 0.00390 0.70900 0.37200
O 	O 	0.78227 0.20210 0.03860 -0.41900
O 	O 	0.78354 0.19999 0.96888 -0.40800
C 	C 	0.96490 0.99812 0.93861 -0.15700
H 	H 	0.96280 0.01790 0.91910 0.08700
C 	C 	0.93736 0.99570 0.97000 0.09200
C 	C 	0.90742 0.02966 0.97170 -0.01700
C 	C 	0.89387 0.04880 0.93718 -0.03600
H 	H 	0.90170 0.03950 0.91210 0.04300
C 	C 	0.86867 0.08189 0.94022 -0.06600
H 	H 	0.85960 0.09470 0.91710 0.05400
C 	C 	0.85702 0.09585 0.97780 0.01600
C 	C 	0.87057 0.07670 0.01225 -0.06200
H 	H 	0.86280 0.08610 0.03740 0.05300
C 	C 	0.89577 0.04363 0.00921 -0.03900
H 	H 	0.90480 0.03080 0.03230 0.04800
C 	C 	0.83130 0.13270 0.97780 0.03000
H 	H 	0.82470 0.14280 0.95260 0.04100
C 	C 	0.81780 0.15134 0.00660 -0.19200
H 	H 	0.82390 0.14170 0.03210 0.11300
C 	C 	0.79100 0.19010 0.00390 0.37200
O 	O 	0.71773 0.20210 0.46140 -0.41900
O 	O 	0.71646 0.19999 0.53112 -0.40800
C 	C 	0.53510 0.99812 0.56139 -0.15700
H 	H 	0.53720 0.01790 0.58090 0.08700
C 	C 	0.56264 0.99570 0.53000 0.09200
C 	C 	0.59258 0.02966 0.52830 -0.01700
C 	C 	0.60613 0.04880 0.56282 -0.03600
H 	H 	0.59830 0.03950 0.58790 0.04300
C 	C 	0.63133 0.08189 0.55978 -0.06500
H 	H 	0.64040 0.09470 0.58290 0.05400
C 	C 	0.64298 0.09585 0.52220 0.01600
C 	C 	0.62943 0.07670 0.48775 -0.06200
H 	H 	0.63720 0.08610 0.46260 0.05300
C 	C 	0.60423 0.04363 0.49079 -0.04000
H 	H 	0.59520 0.03080 0.46770 0.04800
C 	C 	0.66870 0.13270 0.52220 0.03000
H 	H 	0.67530 0.14280 0.54740 0.04100
C 	C 	0.68220 0.15134 0.49340 -0.19200
H 	H 	0.67610 0.14170 0.46790 0.11300
C 	C 	0.70900 0.19010 0.49610 0.37200
O 	O 	0.78227 0.29790 0.46140 -0.41900
O 	O 	0.78354 0.30001 0.53112 -0.40800
C 	C 	0.96490 0.50188 0.56139 -0.15700
H 	H 	0.96280 0.48210 0.58090 0.08700
C 	C 	0.93736 0.50430 0.53000 0.09200
C 	C 	0.90742 0.47034 0.52830 -0.01700
C 	C 	0.89387 0.45120 0.56282 -0.03600
H 	H 	0.90170 0.46050 0.58790 0.04300
C 	C 	0.86867 0.41811 0.55978 -0.06500
H 	H 	0.85960 0.40530 0.58290 0.05400
C 	C 	0.85702 0.40415 0.52220 0.01600
C 	C 	0.87057 0.42330 0.48775 -0.06200
H 	H 	0.86280 0.41390 0.46260 0.05300
C 	C 	0.89577 0.45637 0.49079 -0.04000
H 	H 	0.90480 0.46920 0.46770 0.04800
C 	C 	0.83130 0.36730 0.52220 0.03000
H 	H 	0.82470 0.35720 0.54740 0.04100
C 	C 	0.81780 0.34866 0.49340 -0.19200
H 	H 	0.82390 0.35830 0.46790 0.11300
C 	C 	0.79100 0.30990 0.49610 0.37200
O 	O 	0.71773 0.29790 0.03860 -0.41900
O 	O 	0.71646 0.30001 0.96888 -0.40800
C 	C 	0.53510 0.50188 0.93861 -0.15700
H 	H 	0.53720 0.48210 0.91910 0.08700
C 	C 	0.56264 0.50430 0.97000 0.09200
C 	C 	0.59258 0.47034 0.97170 -0.01700
C 	C 	0.60613 0.45120 0.93718 -0.03600
H 	H 	0.59830 0.46050 0.91210 0.04300
C 	C 	0.63133 0.41811 0.94022 -0.06500
H 	H 	0.64040 0.40530 0.91710 0.05400
C 	C 	0.64298 0.40415 0.97780 0.01600
C 	C 	0.62943 0.42330 0.01225 -0.06200
H 	H 	0.63720 0.41390 0.03740 0.05300
C 	C 	0.60423 0.45637 0.00921 -0.04000
H 	H 	0.59520 0.46920 0.03230 0.04800
C 	C 	0.66870 0.36730 0.97780 0.03000
H 	H 	0.67530 0.35720 0.95260 0.04100
C 	C 	0.68220 0.34866 0.00660 -0.19200
H 	H 	0.67610 0.35830 0.03210 0.11300
C 	C 	0.70900 0.30990 0.00390 0.37200
O 	O 	0.21773 0.96140 0.70210 -0.41900
O 	O 	0.21646 0.03112 0.69999 -0.40800
C 	C 	0.03510 0.06139 0.49812 -0.15700
H 	H 	0.03720 0.08090 0.51790 0.08700
C 	C 	0.06264 0.03000 0.49570 0.09200
C 	C 	0.09258 0.02830 0.52966 -0.01700
C 	C 	0.10613 0.06282 0.54880 -0.03600
H 	H 	0.09830 0.08790 0.53950 0.04300
C 	C 	0.13133 0.05978 0.58189 -0.06500
H 	H 	0.14040 0.08290 0.59470 0.05400
C 	C 	0.14298 0.02220 0.59585 0.01600
C 	C 	0.12943 0.98775 0.57670 -0.06200
H 	H 	0.13720 0.96260 0.58610 0.05300
C 	C 	0.10423 0.99079 0.54363 -0.04000
H 	H 	0.09520 0.96770 0.53080 0.04800
C 	C 	0.16870 0.02220 0.63270 0.03000
H 	H 	0.17530 0.04740 0.64280 0.04100
C 	C 	0.18220 0.99340 0.65134 -0.19200
H 	H 	0.17610 0.96790 0.64170 0.11300
C 	C 	0.20900 0.99610 0.69010 0.37200
O 	O 	0.28227 0.53860 0.70210 -0.41900
O 	O 	0.28354 0.46888 0.69999 -0.40800
C 	C 	0.46490 0.43861 0.49812 -0.15700
H 	H 	0.46280 0.41910 0.51790 0.08700
C 	C 	0.43736 0.47000 0.49570 0.09200
C 	C 	0.40742 0.47170 0.52966 -0.01700
C 	C 	0.39387 0.43718 0.54880 -0.03600
H 	H 	0.40170 0.41210 0.53950 0.04300
C 	C 	0.36867 0.44022 0.58189 -0.06500
H 	H 	0.35960 0.41710 0.59470 0.05400
C 	C 	0.35702 0.47780 0.59585 0.01600
C 	C 	0.37057 0.51225 0.57670 -0.06200
H 	H 	0.36280 0.53740 0.58610 0.05300
C 	C 	0.39577 0.50921 0.54363 -0.04000
H 	H 	0.40480 0.53230 0.53080 0.04800
C 	C 	0.33130 0.47780 0.63270 0.03000
H 	H 	0.32470 0.45260 0.64280 0.04100
C 	C 	0.31780 0.50660 0.65134 -0.19200
H 	H 	0.32390 0.53210 0.64170 0.11300
C 	C 	0.29100 0.50390 0.69010 0.37200
O 	O 	0.21773 0.53860 0.79790 -0.41900
O 	O 	0.21646 0.46888 0.80001 -0.40800
C 	C 	0.03510 0.43861 0.00188 -0.15700
H 	H 	0.03720 0.41910 0.98210 0.08700
C 	C 	0.06264 0.47000 0.00430 0.09200
C 	C 	0.09258 0.47170 0.97034 -0.01700
C 	C 	0.10613 0.43718 0.95120 -0.03600
H 	H 	0.09830 0.41210 0.96050 0.04300
C 	C 	0.13133 0.44022 0.91811 -0.06600
H 	H 	0.14040 0.41710 0.90530 0.05400
C 	C 	0.14298 0.47780 0.90415 0.01600
C 	C 	0.12943 0.51225 0.92330 -0.06200
H 	H 	0.13720 0.53740 0.91390 0.05300
C 	C 	0.10423 0.50921 0.95637 -0.03900
H 	H 	0.09520 0.53230 0.96920 0.04800
C 	C 	0.16870 0.47780 0.86730 0.03000
H 	H 	0.17530 0.45260 0.85720 0.04100
C 	C 	0.18220 0.50660 0.84866 -0.19200
H 	H 	0.17610 0.53210 0.85830 0.11300
C 	C 	0.20900 0.50390 0.80990 0.37200
O 	O 	0.28227 0.96140 0.79790 -0.41900
O 	O 	0.28354 0.03112 0.80001 -0.40800
C 	C 	0.46490 0.06139 0.00188 -0.15700
H 	H 	0.46280 0.08090 0.98210 0.08700
C 	C 	0.43736 0.03000 0.00430 0.09200
C 	C 	0.40742 0.02830 0.97034 -0.01700
C 	C 	0.39387 0.06282 0.95120 -0.03600
H 	H 	0.40170 0.08790 0.96050 0.04300
C 	C 	0.36867 0.05978 0.91811 -0.06600
H 	H 	0.35960 0.08290 0.90530 0.05400
C 	C 	0.35702 0.02220 0.90415 0.01600
C 	C 	0.37057 0.98775 0.92330 -0.06200
H 	H 	0.36280 0.96260 0.91390 0.05300
C 	C 	0.39577 0.99079 0.95637 -0.03900
H 	H 	0.40480 0.96770 0.96920 0.04800
C 	C 	0.33130 0.02220 0.86730 0.03000
H 	H 	0.32470 0.04740 0.85720 0.04100
C 	C 	0.31780 0.99340 0.84866 -0.19200
H 	H 	0.32390 0.96790 0.85830 0.11300
C 	C 	0.29100 0.99610 0.80990 0.37200
O 	O 	0.96140 0.79790 0.28227 -0.41900
O 	O 	0.03112 0.80001 0.28354 -0.40800
C 	C 	0.06139 0.00188 0.46490 -0.15700
H 	H 	0.08090 0.98210 0.46280 0.08700
C 	C 	0.03000 0.00430 0.43736 0.09200
C 	C 	0.02830 0.97034 0.40742 -0.01700
C 	C 	0.06282 0.95120 0.39387 -0.03600
H 	H 	0.08790 0.96050 0.40170 0.04300
C 	C 	0.05978 0.91811 0.36867 -0.06600
H 	H 	0.08290 0.90530 0.35960 0.05400
C 	C 	0.02220 0.90415 0.35702 0.01600
C 	C 	0.98775 0.92330 0.37057 -0.06200
H 	H 	0.96260 0.91390 0.36280 0.05300
C 	C 	0.99079 0.95637 0.39577 -0.03900
H 	H 	0.96770 0.96920 0.40480 0.04800
C 	C 	0.02220 0.86730 0.33130 0.03000
H 	H 	0.04740 0.85720 0.32470 0.04100
C 	C 	0.99340 0.84866 0.31780 -0.19200
H 	H 	0.96790 0.85830 0.32390 0.11300
C 	C 	0.99610 0.80990 0.29100 0.37200
O 	O 	0.53860 0.79790 0.21773 -0.41900
O 	O 	0.46888 0.80001 0.21646 -0.40800
C 	C 	0.43861 0.00188 0.03510 -0.15700
H 	H 	0.41910 0.98210 0.03720 0.08700
C 	C 	0.47000 0.00430 0.06264 0.09200
C 	C 	0.47170 0.97034 0.09258 -0.01700
C 	C 	0.43718 0.95120 0.10613 -0.03600
H 	H 	0.41210 0.96050 0.09830 0.04300
C 	C 	0.44022 0.91811 0.13133 -0.06600
H 	H 	0.41710 0.90530 0.14040 0.05400
C 	C 	0.47780 0.90415 0.14298 0.01600
C 	C 	0.51225 0.92330 0.12943 -0.06200
H 	H 	0.53740 0.91390 0.13720 0.05300
C 	C 	0.50921 0.95637 0.10423 -0.03900
H 	H 	0.53230 0.96920 0.09520 0.04800
C 	C 	0.47780 0.86730 0.16870 0.03000
H 	H 	0.45260 0.85720 0.17530 0.04100
C 	C 	0.50660 0.84866 0.18220 -0.19200
H 	H 	0.53210 0.85830 0.17610 0.11300
C 	C 	0.50390 0.80990 0.20900 0.37200
O 	O 	0.53860 0.70210 0.28227 -0.41900
O 	O 	0.46888 0.69999 0.28354 -0.40800
C 	C 	0.43861 0.49812 0.46490 -0.15700
H 	H 	0.41910 0.51790 0.46280 0.08700
C 	C 	0.47000 0.49570 0.43736 0.09200
C 	C 	0.47170 0.52966 0.40742 -0.01700
C 	C 	0.43718 0.54880 0.39387 -0.03600
H 	H 	0.41210 0.53950 0.40170 0.04300
C 	C 	0.44022 0.58189 0.36867 -0.06500
H 	H 	0.41710 0.59470 0.35960 0.05400
C 	C 	0.47780 0.59585 0.35702 0.01600
C 	C 	0.51225 0.57670 0.37057 -0.06200
H 	H 	0.53740 0.58610 0.36280 0.05300
C 	C 	0.50921 0.54363 0.39577 -0.04000
H 	H 	0.53230 0.53080 0.40480 0.04800
C 	C 	0.47780 0.63270 0.33130 0.03000
H 	H 	0.45260 0.64280 0.32470 0.04100
C 	C 	0.50660 0.65134 0.31780 -0.19200
H 	H 	0.53210 0.64170 0.32390 0.11300
C 	C 	0.50390 0.69010 0.29100 0.37200
O 	O 	0.96140 0.70210 0.21773 -0.41900
O 	O 	0.03112 0.69999 0.21646 -0.40800
C 	C 	0.06139 0.49812 0.03510 -0.15700
H 	H 	0.08090 0.51790 0.03720 0.08700
C 	C 	0.03000 0.49570 0.06264 0.09200
C 	C 	0.02830 0.52966 0.09258 -0.01700
C 	C 	0.06282 0.54880 0.10613 -0.03600
H 	H 	0.08790 0.53950 0.09830 0.04300
C 	C 	0.05978 0.58189 0.13133 -0.06500
H 	H 	0.08290 0.59470 0.14040 0.05400
C 	C 	0.02220 0.59585 0.14298 0.01600
C 	C 	0.98775 0.57670 0.12943 -0.06200
H 	H 	0.96260 0.58610 0.13720 0.05300
C 	C 	0.99079 0.54363 0.10423 -0.04000
H 	H 	0.96770 0.53080 0.09520 0.04800
C 	C 	0.02220 0.63270 0.16870 0.03000
H 	H 	0.04740 0.64280 0.17530 0.04100
C 	C 	0.99340 0.65134 0.18220 -0.19200
H 	H 	0.96790 0.64170 0.17610 0.11300
C 	C 	0.99610 0.69010 0.20900 0.37200
O 	O 	0.79790 0.21773 0.53860 -0.41900
O 	O 	0.80001 0.21646 0.46888 -0.40800
C 	C 	0.00188 0.03510 0.43861 -0.15700
H 	H 	0.98210 0.03720 0.41910 0.08700
C 	C 	0.00430 0.06264 0.47000 0.09200
C 	C 	0.97034 0.09258 0.47170 -0.01700
C 	C 	0.95120 0.10613 0.43718 -0.03600
H 	H 	0.96050 0.09830 0.41210 0.04300
C 	C 	0.91811 0.13133 0.44022 -0.06600
H 	H 	0.90530 0.14040 0.41710 0.05400
C 	C 	0.90415 0.14298 0.47780 0.01600
C 	C 	0.92330 0.12943 0.51225 -0.06200
H 	H 	0.91390 0.13720 0.53740 0.05300
C 	C 	0.95637 0.10423 0.50921 -0.03900
H 	H 	0.96920 0.09520 0.53230 0.04800
C 	C 	0.86730 0.16870 0.47780 0.03000
H 	H 	0.85720 0.17530 0.45260 0.04100
C 	C 	0.84866 0.18220 0.50660 -0.19200
H 	H 	0.85830 0.17610 0.53210 0.11300
C 	C 	0.80990 0.20900 0.50390 0.37200
O 	O 	0.79790 0.28227 0.96140 -0.41900
O 	O 	0.80001 0.28354 0.03112 -0.40800
C 	C 	0.00188 0.46490 0.06139 -0.15700
H 	H 	0.98210 0.46280 0.08090 0.08700
C 	C 	0.00430 0.43736 0.03000 0.09200
C 	C 	0.97034 0.40742 0.02830 -0.01700
C 	C 	0.95120 0.39387 0.06282 -0.03600
H 	H 	0.96050 0.40170 0.08790 0.04300
C 	C 	0.91811 0.36867 0.05978 -0.06600
H 	H 	0.90530 0.35960 0.08290 0.05400
C 	C 	0.90415 0.35702 0.02220 0.01600
C 	C 	0.92330 0.37057 0.98775 -0.06200
H 	H 	0.91390 0.36280 0.96260 0.05300
C 	C 	0.95637 0.39577 0.99079 -0.03900
H 	H 	0.96920 0.40480 0.96770 0.04800
C 	C 	0.86730 0.33130 0.02220 0.03000
H 	H 	0.85720 0.32470 0.04740 0.04100
C 	C 	0.84866 0.31780 0.99340 -0.19200
H 	H 	0.85830 0.32390 0.96790 0.11300
C 	C 	0.80990 0.29100 0.99610 0.37200
O 	O 	0.70210 0.21773 0.96140 -0.41900
O 	O 	0.69999 0.21646 0.03112 -0.40800
C 	C 	0.49812 0.03510 0.06139 -0.15700
H 	H 	0.51790 0.03720 0.08090 0.08700
C 	C 	0.49570 0.06264 0.03000 0.09200
C 	C 	0.52966 0.09258 0.02830 -0.01700
C 	C 	0.54880 0.10613 0.06282 -0.03600
H 	H 	0.53950 0.09830 0.08790 0.04300
C 	C 	0.58189 0.13133 0.05978 -0.06500
H 	H 	0.59470 0.14040 0.08290 0.05400
C 	C 	0.59585 0.14298 0.02220 0.01600
C 	C 	0.57670 0.12943 0.98775 -0.06200
H 	H 	0.58610 0.13720 0.96260 0.05300
C 	C 	0.54363 0.10423 0.99079 -0.04000
H 	H 	0.53080 0.09520 0.96770 0.04800
C 	C 	0.63270 0.16870 0.02220 0.03000
H 	H 	0.64280 0.17530 0.04740 0.04100
C 	C 	0.65134 0.18220 0.99340 -0.19200
H 	H 	0.64170 0.17610 0.96790 0.11300
C 	C 	0.69010 0.20900 0.99610 0.37200
O 	O 	0.70210 0.28227 0.53860 -0.41900
O 	O 	0.69999 0.28354 0.46888 -0.40800
C 	C 	0.49812 0.46490 0.43861 -0.15700
H 	H 	0.51790 0.46280 0.41910 0.08700
C 	C 	0.49570 0.43736 0.47000 0.09200
C 	C 	0.52966 0.40742 0.47170 -0.01700
C 	C 	0.54880 0.39387 0.43718 -0.03600
H 	H 	0.53950 0.40170 0.41210 0.04300
C 	C 	0.58189 0.36867 0.44022 -0.06500
H 	H 	0.59470 0.35960 0.41710 0.05400
C 	C 	0.59585 0.35702 0.47780 0.01600
C 	C 	0.57670 0.37057 0.51225 -0.06200
H 	H 	0.58610 0.36280 0.53740 0.05300
C 	C 	0.54363 0.39577 0.50921 -0.04000
H 	H 	0.53080 0.40480 0.53230 0.04800
C 	C 	0.63270 0.33130 0.47780 0.03000
H 	H 	0.64280 0.32470 0.45260 0.04100
C 	C 	0.65134 0.31780 0.50660 -0.19200
H 	H 	0.64170 0.32390 0.53210 0.11300
C 	C 	0.69010 0.29100 0.50390 0.37200
Cu	Cu	0.04002 0.75000 0.25000 0.89600
Cu	Cu	0.45998 0.75000 0.25000 0.89600
Cu	Cu	0.25000 0.04002 0.75000 0.89600
Cu	Cu	0.25000 0.45998 0.75000 0.89600
Cu	Cu	0.75000 0.25000 0.04002 0.89600
Cu	Cu	0.75000 0.25000 0.45998 0.89600
Cu	Cu	0.25000 0.95998 0.75000 0.89600
Cu	Cu	0.25000 0.54002 0.75000 0.89600
Cu	Cu	0.95998 0.75000 0.25000 0.89600
Cu	Cu	0.54002 0.75000 0.25000 0.89600
Cu	Cu	0.75000 0.25000 0.54002 0.89600
Cu	Cu	0.75000 0.25000 0.95998 0.89600
O 	O 	0.78227 0.03860 0.29790 -0.41900
O 	O 	0.78354 0.96888 0.30001 -0.40800
C 	C 	0.96490 0.93861 0.50188 -0.15700
H 	H 	0.96280 0.91910 0.48210 0.08700
C 	C 	0.93736 0.97000 0.50430 0.09200
C 	C 	0.90742 0.97170 0.47034 -0.01700
C 	C 	0.89387 0.93718 0.45120 -0.03600
H 	H 	0.90170 0.91210 0.46050 0.04300
C 	C 	0.86867 0.94022 0.41811 -0.06500
H 	H 	0.85960 0.91710 0.40530 0.05400
C 	C 	0.85702 0.97780 0.40415 0.01600
C 	C 	0.87057 0.01225 0.42330 -0.06200
H 	H 	0.86280 0.03740 0.41390 0.05300
C 	C 	0.89577 0.00921 0.45637 -0.04000
H 	H 	0.90480 0.03230 0.46920 0.04800
C 	C 	0.83130 0.97780 0.36730 0.03000
H 	H 	0.82470 0.95260 0.35720 0.04100
C 	C 	0.81780 0.00660 0.34866 -0.19200
H 	H 	0.82390 0.03210 0.35830 0.11300
C 	C 	0.79100 0.00390 0.30990 0.37200
O 	O 	0.71773 0.46140 0.29790 -0.41900
O 	O 	0.71646 0.53112 0.30001 -0.40800
C 	C 	0.53510 0.56139 0.50188 -0.15700
H 	H 	0.53720 0.58090 0.48210 0.08700
C 	C 	0.56264 0.53000 0.50430 0.09200
C 	C 	0.59258 0.52830 0.47034 -0.01700
C 	C 	0.60613 0.56282 0.45120 -0.03600
H 	H 	0.59830 0.58790 0.46050 0.04300
C 	C 	0.63133 0.55978 0.41811 -0.06500
H 	H 	0.64040 0.58290 0.40530 0.05400
C 	C 	0.64298 0.52220 0.40415 0.01600
C 	C 	0.62943 0.48775 0.42330 -0.06200
H 	H 	0.63720 0.46260 0.41390 0.05300
C 	C 	0.60423 0.49079 0.45637 -0.04000
H 	H 	0.59520 0.46770 0.46920 0.04800
C 	C 	0.66870 0.52220 0.36730 0.03000
H 	H 	0.67530 0.54740 0.35720 0.04100
C 	C 	0.68220 0.49340 0.34866 -0.19200
H 	H 	0.67610 0.46790 0.35830 0.11300
C 	C 	0.70900 0.49610 0.30990 0.37200
O 	O 	0.78227 0.46140 0.20210 -0.41900
O 	O 	0.78354 0.53112 0.19999 -0.40800
C 	C 	0.96490 0.56139 0.99812 -0.15700
H 	H 	0.96280 0.58090 0.01790 0.08700
C 	C 	0.93736 0.53000 0.99570 0.09200
C 	C 	0.90742 0.52830 0.02966 -0.01700
C 	C 	0.89387 0.56282 0.04880 -0.03600
H 	H 	0.90170 0.58790 0.03950 0.04300
C 	C 	0.86867 0.55978 0.08189 -0.06600
H 	H 	0.85960 0.58290 0.09470 0.05400
C 	C 	0.85702 0.52220 0.09585 0.01600
C 	C 	0.87057 0.48775 0.07670 -0.06200
H 	H 	0.86280 0.46260 0.08610 0.05300
C 	C 	0.89577 0.49079 0.04363 -0.03900
H 	H 	0.90480 0.46770 0.03080 0.04800
C 	C 	0.83130 0.52220 0.13270 0.03000
H 	H 	0.82470 0.54740 0.14280 0.04100
C 	C 	0.81780 0.49340 0.15134 -0.19200
H 	H 	0.82390 0.46790 0.14170 0.11300
C 	C 	0.79100 0.49610 0.19010 0.37200
O 	O 	0.71773 0.03860 0.20210 -0.41900
O 	O 	0.71646 0.96888 0.19999 -0.40800
C 	C 	0.53510 0.93861 0.99812 -0.15700
H 	H 	0.53720 0.91910 0.01790 0.08700
C 	C 	0.56264 0.97000 0.99570 0.09200
C 	C 	0.59258 0.97170 0.02966 -0.01700
C 	C 	0.60613 0.93718 0.04880 -0.03600
H 	H 	0.59830 0.91210 0.03950 0.04300
C 	C 	0.63133 0.94022 0.08189 -0.06600
H 	H 	0.64040 0.91710 0.09470 0.05400
C 	C 	0.64298 0.97780 0.09585 0.01600
C 	C 	0.62943 0.01225 0.07670 -0.06200
H 	H 	0.63720 0.03740 0.08610 0.05300
C 	C 	0.60423 0.00921 0.04363 -0.03900
H 	H 	0.59520 0.03230 0.03080 0.04800
C 	C 	0.66870 0.97780 0.13270 0.03000
H 	H 	0.67530 0.95260 0.14280 0.04100
C 	C 	0.68220 0.00660 0.15134 -0.19200
H 	H 	0.67610 0.03210 0.14170 0.11300
C 	C 	0.70900 0.00390 0.19010 0.37200
O 	O 	0.03860 0.20210 0.71773 -0.41900
O 	O 	0.96888 0.19999 0.71646 -0.40800
C 	C 	0.93861 0.99812 0.53510 -0.15700
H 	H 	0.91910 0.01790 0.53720 0.08700
C 	C 	0.97000 0.99570 0.56264 0.09200
C 	C 	0.97170 0.02966 0.59258 -0.01700
C 	C 	0.93718 0.04880 0.60613 -0.03600
H 	H 	0.91210 0.03950 0.59830 0.04300
C 	C 	0.94022 0.08189 0.63133 -0.06600
H 	H 	0.91710 0.09470 0.64040 0.05400
C 	C 	0.97780 0.09585 0.64298 0.01600
C 	C 	0.01225 0.07670 0.62943 -0.06200
H 	H 	0.03740 0.08610 0.63720 0.05300
C 	C 	0.00921 0.04363 0.60423 -0.03900
H 	H 	0.03230 0.03080 0.59520 0.04800
C 	C 	0.97780 0.13270 0.66870 0.03000
H 	H 	0.95260 0.14280 0.67530 0.04100
C 	C 	0.00660 0.15134 0.68220 -0.19200
H 	H 	0.03210 0.14170 0.67610 0.11300
C 	C 	0.00390 0.19010 0.70900 0.37200
O 	O 	0.46140 0.20210 0.78227 -0.41900
O 	O 	0.53112 0.19999 0.78354 -0.40800
C 	C 	0.56139 0.99812 0.96490 -0.15700
H 	H 	0.58090 0.01790 0.96280 0.08700
C 	C 	0.53000 0.99570 0.93736 0.09200
C 	C 	0.52830 0.02966 0.90742 -0.01700
C 	C 	0.56282 0.04880 0.89387 -0.03600
H 	H 	0.58790 0.03950 0.90170 0.04300
C 	C 	0.55978 0.08189 0.86867 -0.06600
H 	H 	0.58290 0.09470 0.85960 0.05400
C 	C 	0.52220 0.09585 0.85702 0.01600
C 	C 	0.48775 0.07670 0.87057 -0.06200
H 	H 	0.46260 0.08610 0.86280 0.05300
C 	C 	0.49079 0.04363 0.89577 -0.03900
H 	H 	0.46770 0.03080 0.90480 0.04800
C 	C 	0.52220 0.13270 0.83130 0.03000
H 	H 	0.54740 0.14280 0.82470 0.04100
C 	C 	0.49340 0.15134 0.81780 -0.19200
H 	H 	0.46790 0.14170 0.82390 0.11300
C 	C 	0.49610 0.19010 0.79100 0.37200
O 	O 	0.46140 0.29790 0.71773 -0.41900
O 	O 	0.53112 0.30001 0.71646 -0.40800
C 	C 	0.56139 0.50188 0.53510 -0.15700
H 	H 	0.58090 0.48210 0.53720 0.08700
C 	C 	0.53000 0.50430 0.56264 0.09200
C 	C 	0.52830 0.47034 0.59258 -0.01700
C 	C 	0.56282 0.45120 0.60613 -0.03600
H 	H 	0.58790 0.46050 0.59830 0.04300
C 	C 	0.55978 0.41811 0.63133 -0.06500
H 	H 	0.58290 0.40530 0.64040 0.05400
C 	C 	0.52220 0.40415 0.64298 0.01600
C 	C 	0.48775 0.42330 0.62943 -0.06200
H 	H 	0.46260 0.41390 0.63720 0.05300
C 	C 	0.49079 0.45637 0.60423 -0.04000
H 	H 	0.46770 0.46920 0.59520 0.04800
C 	C 	0.52220 0.36730 0.66870 0.03000
H 	H 	0.54740 0.35720 0.67530 0.04100
C 	C 	0.49340 0.34866 0.68220 -0.19200
H 	H 	0.46790 0.35830 0.67610 0.11300
C 	C 	0.49610 0.30990 0.70900 0.37200
O 	O 	0.03860 0.29790 0.78227 -0.41900
O 	O 	0.96888 0.30001 0.78354 -0.40800
C 	C 	0.93861 0.50188 0.96490 -0.15700
H 	H 	0.91910 0.48210 0.96280 0.08700
C 	C 	0.97000 0.50430 0.93736 0.09200
C 	C 	0.97170 0.47034 0.90742 -0.01700
C 	C 	0.93718 0.45120 0.89387 -0.03600
H 	H 	0.91210 0.46050 0.90170 0.04300
C 	C 	0.94022 0.41811 0.86867 -0.06500
H 	H 	0.91710 0.40530 0.85960 0.05400
C 	C 	0.97780 0.40415 0.85702 0.01600
C 	C 	0.01225 0.42330 0.87057 -0.06200
H 	H 	0.03740 0.41390 0.86280 0.05300
C 	C 	0.00921 0.45637 0.89577 -0.04000
H 	H 	0.03230 0.46920 0.90480 0.04800
C 	C 	0.97780 0.36730 0.83130 0.03000
H 	H 	0.95260 0.35720 0.82470 0.04100
C 	C 	0.00660 0.34866 0.81780 -0.19200
H 	H 	0.03210 0.35830 0.82390 0.11300
C 	C 	0.00390 0.30990 0.79100 0.37200
O 	O 	0.20210 0.78227 0.46140 -0.41900
O 	O 	0.19999 0.78354 0.53112 -0.40800
C 	C 	0.99812 0.96490 0.56139 -0.15700
H 	H 	0.01790 0.96280 0.58090 0.08700
C 	C 	0.99570 0.93736 0.53000 0.09200
C 	C 	0.02966 0.90742 0.52830 -0.01700
C 	C 	0.04880 0.89387 0.56282 -0.03600
H 	H 	0.03950 0.90170 0.58790 0.04300
C 	C 	0.08189 0.86867 0.55978 -0.06600
H 	H 	0.09470 0.85960 0.58290 0.05400
C 	C 	0.09585 0.85702 0.52220 0.01600
C 	C 	0.07670 0.87057 0.48775 -0.06200
H 	H 	0.08610 0.86280 0.46260 0.05300
C 	C 	0.04363 0.89577 0.49079 -0.03900
H 	H 	0.03080 0.90480 0.46770 0.04800
C 	C 	0.13270 0.83130 0.52220 0.03000
H 	H 	0.14280 0.82470 0.54740 0.04100
C 	C 	0.15134 0.81780 0.49340 -0.19200
H 	H 	0.14170 0.82390 0.46790 0.11300
C 	C 	0.19010 0.79100 0.49610 0.37200
O 	O 	0.20210 0.71773 0.03860 -0.41900
O 	O 	0.19999 0.71646 0.96888 -0.40800
C 	C 	0.99812 0.53510 0.93861 -0.15700
H 	H 	0.01790 0.53720 0.91910 0.08700
C 	C 	0.99570 0.56264 0.97000 0.09200
C 	C 	0.02966 0.59258 0.97170 -0.01700
C 	C 	0.04880 0.60613 0.93718 -0.03600
H 	H 	0.03950 0.59830 0.91210 0.04300
C 	C 	0.08189 0.63133 0.94022 -0.06600
H 	H 	0.09470 0.64040 0.91710 0.05400
C 	C 	0.09585 0.64298 0.97780 0.01600
C 	C 	0.07670 0.62943 0.01225 -0.06200
H 	H 	0.08610 0.63720 0.03740 0.05300
C 	C 	0.04363 0.60423 0.00921 -0.03900
H 	H 	0.03080 0.59520 0.03230 0.04800
C 	C 	0.13270 0.66870 0.97780 0.03000
H 	H 	0.14280 0.67530 0.95260 0.04100
C 	C 	0.15134 0.68220 0.00660 -0.19200
H 	H 	0.14170 0.67610 0.03210 0.11300
C 	C 	0.19010 0.70900 0.00390 0.37200
O 	O 	0.29790 0.78227 0.03860 -0.41900
O 	O 	0.30001 0.78354 0.96888 -0.40800
C 	C 	0.50188 0.96490 0.93861 -0.15700
H 	H 	0.48210 0.96280 0.91910 0.08700
C 	C 	0.50430 0.93736 0.97000 0.09200
C 	C 	0.47034 0.90742 0.97170 -0.01700
C 	C 	0.45120 0.89387 0.93718 -0.03600
H 	H 	0.46050 0.90170 0.91210 0.04300
C 	C 	0.41811 0.86867 0.94022 -0.06500
H 	H 	0.40530 0.85960 0.91710 0.05400
C 	C 	0.40415 0.85702 0.97780 0.01600
C 	C 	0.42330 0.87057 0.01225 -0.06200
H 	H 	0.41390 0.86280 0.03740 0.05300
C 	C 	0.45637 0.89577 0.00921 -0.04000
H 	H 	0.46920 0.90480 0.03230 0.04800
C 	C 	0.36730 0.83130 0.97780 0.03000
H 	H 	0.35720 0.82470 0.95260 0.04100
C 	C 	0.34866 0.81780 0.00660 -0.19200
H 	H 	0.35830 0.82390 0.03210 0.11300
C 	C 	0.30990 0.79100 0.00390 0.37200
O 	O 	0.29790 0.71773 0.46140 -0.41900
O 	O 	0.30001 0.71646 0.53112 -0.40800
C 	C 	0.50188 0.53510 0.56139 -0.15700
H 	H 	0.48210 0.53720 0.58090 0.08700
C 	C 	0.50430 0.56264 0.53000 0.09200
C 	C 	0.47034 0.59258 0.52830 -0.01700
C 	C 	0.45120 0.60613 0.56282 -0.03600
H 	H 	0.46050 0.59830 0.58790 0.04300
C 	C 	0.41811 0.63133 0.55978 -0.06500
H 	H 	0.40530 0.64040 0.58290 0.05400
C 	C 	0.40415 0.64298 0.52220 0.01600
C 	C 	0.42330 0.62943 0.48775 -0.06200
H 	H 	0.41390 0.63720 0.46260 0.05300
C 	C 	0.45637 0.60423 0.49079 -0.04000
H 	H 	0.46920 0.59520 0.46770 0.04800
C 	C 	0.36730 0.66870 0.52220 0.03000
H 	H 	0.35720 0.67530 0.54740 0.04100
C 	C 	0.34866 0.68220 0.49340 -0.19200
H 	H 	0.35830 0.67610 0.46790 0.11300
C 	C 	0.30990 0.70900 0.49610 0.37200
O 	O 	0.96140 0.21773 0.79790 -0.41900
O 	O 	0.03112 0.21646 0.80001 -0.40800
C 	C 	0.06139 0.03510 0.00188 -0.15700
H 	H 	0.08090 0.03720 0.98210 0.08700
C 	C 	0.03000 0.06264 0.00430 0.09200
C 	C 	0.02830 0.09258 0.97034 -0.01700
C 	C 	0.06282 0.10613 0.95120 -0.03600
H 	H 	0.08790 0.09830 0.96050 0.04300
C 	C 	0.05978 0.13133 0.91811 -0.06600
H 	H 	0.08290 0.14040 0.90530 0.05400
C 	C 	0.02220 0.14298 0.90415 0.01600
C 	C 	0.98775 0.12943 0.92330 -0.06200
H 	H 	0.96260 0.13720 0.91390 0.05300
C 	C 	0.99079 0.10423 0.95637 -0.03900
H 	H 	0.96770 0.09520 0.96920 0.04800
C 	C 	0.02220 0.16870 0.86730 0.03000
H 	H 	0.04740 0.17530 0.85720 0.04100
C 	C 	0.99340 0.18220 0.84866 -0.19200
H 	H 	0.96790 0.17610 0.85830 0.11300
C 	C 	0.99610 0.20900 0.80990 0.37200
O 	O 	0.53860 0.28227 0.79790 -0.41900
O 	O 	0.46888 0.28354 0.80001 -0.40800
C 	C 	0.43861 0.46490 0.00188 -0.15700
H 	H 	0.41910 0.46280 0.98210 0.08700
C 	C 	0.47000 0.43736 0.00430 0.09200
C 	C 	0.47170 0.40742 0.97034 -0.01700
C 	C 	0.43718 0.39387 0.95120 -0.03600
H 	H 	0.41210 0.40170 0.96050 0.04300
C 	C 	0.44022 0.36867 0.91811 -0.06500
H 	H 	0.41710 0.35960 0.90530 0.05400
C 	C 	0.47780 0.35702 0.90415 0.01600
C 	C 	0.51225 0.37057 0.92330 -0.06200
H 	H 	0.53740 0.36280 0.91390 0.05300
C 	C 	0.50921 0.39577 0.95637 -0.04000
H 	H 	0.53230 0.40480 0.96920 0.04800
C 	C 	0.47780 0.33130 0.86730 0.03000
H 	H 	0.45260 0.32470 0.85720 0.04100
C 	C 	0.50660 0.31780 0.84866 -0.19200
H 	H 	0.53210 0.32390 0.85830 0.11300
C 	C 	0.50390 0.29100 0.80990 0.37200
O 	O 	0.53860 0.21773 0.70210 -0.41900
O 	O 	0.46888 0.21646 0.69999 -0.40800
C 	C 	0.43861 0.03510 0.49812 -0.15700
H 	H 	0.41910 0.03720 0.51790 0.08700
C 	C 	0.47000 0.06264 0.49570 0.09200
C 	C 	0.47170 0.09258 0.52966 -0.01700
C 	C 	0.43718 0.10613 0.54880 -0.03600
H 	H 	0.41210 0.09830 0.53950 0.04300
C 	C 	0.44022 0.13133 0.58189 -0.06500
H 	H 	0.41710 0.14040 0.59470 0.05400
C 	C 	0.47780 0.14298 0.59585 0.01600
C 	C 	0.51225 0.12943 0.57670 -0.06200
H 	H 	0.53740 0.13720 0.58610 0.05300
C 	C 	0.50921 0.10423 0.54363 -0.04000
H 	H 	0.53230 0.09520 0.53080 0.04800
C 	C 	0.47780 0.16870 0.63270 0.03000
H 	H 	0.45260 0.17530 0.64280 0.04100
C 	C 	0.50660 0.18220 0.65134 -0.19200
H 	H 	0.53210 0.17610 0.64170 0.11300
C 	C 	0.50390 0.20900 0.69010 0.37200
O 	O 	0.96140 0.28227 0.70210 -0.41900
O 	O 	0.03112 0.28354 0.69999 -0.40800
C 	C 	0.06139 0.46490 0.49812 -0.15700
H 	H 	0.08090 0.46280 0.51790 0.08700
C 	C 	0.03000 0.43736 0.49570 0.09200
C 	C 	0.02830 0.40742 0.52966 -0.01700
C 	C 	0.06282 0.39387 0.54880 -0.03600
H 	H 	0.08790 0.40170 0.53950 0.04300
C 	C 	0.05978 0.36867 0.58189 -0.06500
H 	H 	0.08290 0.35960 0.59470 0.05400
C 	C 	0.02220 0.35702 0.59585 0.01600
C 	C 	0.98775 0.37057 0.57670 -0.06200
H 	H 	0.96260 0.36280 0.58610 0.05300
C 	C 	0.99079 0.39577 0.54363 -0.04000
H 	H 	0.96770 0.40480 0.53080 0.04800
C 	C 	0.02220 0.33130 0.63270 0.03000
H 	H 	0.04740 0.32470 0.64280 0.04100
C 	C 	0.99340 0.31780 0.65134 -0.19200
H 	H 	0.96790 0.32390 0.64170 0.11300
C 	C 	0.99610 0.29100 0.69010 0.37200
O 	O 	0.79790 0.96140 0.21773 -0.41900
O 	O 	0.80001 0.03112 0.21646 -0.40800
C 	C 	0.00188 0.06139 0.03510 -0.15700
H 	H 	0.98210 0.08090 0.03720 0.08700
C 	C 	0.00430 0.03000 0.06264 0.09200
C 	C 	0.97034 0.02830 0.09258 -0.01700
C 	C 	0.95120 0.06282 0.10613 -0.03600
H 	H 	0.96050 0.08790 0.09830 0.04300
C 	C 	0.91811 0.05978 0.13133 -0.06600
H 	H 	0.90530 0.08290 0.14040 0.05400
C 	C 	0.90415 0.02220 0.14298 0.01600
C 	C 	0.92330 0.98775 0.12943 -0.06200
H 	H 	0.91390 0.96260 0.13720 0.05300
C 	C 	0.95637 0.99079 0.10423 -0.03900
H 	H 	0.96920 0.96770 0.09520 0.04800
C 	C 	0.86730 0.02220 0.16870 0.03000
H 	H 	0.85720 0.04740 0.17530 0.04100
C 	C 	0.84866 0.99340 0.18220 -0.19200
H 	H 	0.85830 0.96790 0.17610 0.11300
C 	C 	0.80990 0.99610 0.20900 0.37200
O 	O 	0.79790 0.53860 0.28227 -0.41900
O 	O 	0.80001 0.46888 0.28354 -0.40800
C 	C 	0.00188 0.43861 0.46490 -0.15700
H 	H 	0.98210 0.41910 0.46280 0.08700
C 	C 	0.00430 0.47000 0.43736 0.09200
C 	C 	0.97034 0.47170 0.40742 -0.01700
C 	C 	0.95120 0.43718 0.39387 -0.03600
H 	H 	0.96050 0.41210 0.40170 0.04300
C 	C 	0.91811 0.44022 0.36867 -0.06500
H 	H 	0.90530 0.41710 0.35960 0.05400
C 	C 	0.90415 0.47780 0.35702 0.01600
C 	C 	0.92330 0.51225 0.37057 -0.06200
H 	H 	0.91390 0.53740 0.36280 0.05300
C 	C 	0.95637 0.50921 0.39577 -0.04000
H 	H 	0.96920 0.53230 0.40480 0.04800
C 	C 	0.86730 0.47780 0.33130 0.03000
H 	H 	0.85720 0.45260 0.32470 0.04100
C 	C 	0.84866 0.50660 0.31780 -0.19200
H 	H 	0.85830 0.53210 0.32390 0.11300
C 	C 	0.80990 0.50390 0.29100 0.37200
O 	O 	0.70210 0.53860 0.21773 -0.41900
O 	O 	0.69999 0.46888 0.21646 -0.40800
C 	C 	0.49812 0.43861 0.03510 -0.15700
H 	H 	0.51790 0.41910 0.03720 0.08700
C 	C 	0.49570 0.47000 0.06264 0.09200
C 	C 	0.52966 0.47170 0.09258 -0.01700
C 	C 	0.54880 0.43718 0.10613 -0.03600
H 	H 	0.53950 0.41210 0.09830 0.04300
C 	C 	0.58189 0.44022 0.13133 -0.06500
H 	H 	0.59470 0.41710 0.14040 0.05400
C 	C 	0.59585 0.47780 0.14298 0.01600
C 	C 	0.57670 0.51225 0.12943 -0.06200
H 	H 	0.58610 0.53740 0.13720 0.05300
C 	C 	0.54363 0.50921 0.10423 -0.04000
H 	H 	0.53080 0.53230 0.09520 0.04800
C 	C 	0.63270 0.47780 0.16870 0.03000
H 	H 	0.64280 0.45260 0.17530 0.04100
C 	C 	0.65134 0.50660 0.18220 -0.19200
H 	H 	0.64170 0.53210 0.17610 0.11300
C 	C 	0.69010 0.50390 0.20900 0.37200
O 	O 	0.70210 0.96140 0.28227 -0.41900
O 	O 	0.69999 0.03112 0.28354 -0.40800
C 	C 	0.49812 0.06139 0.46490 -0.15700
H 	H 	0.51790 0.08090 0.46280 0.08700
C 	C 	0.49570 0.03000 0.43736 0.09200
C 	C 	0.52966 0.02830 0.40742 -0.01700
C 	C 	0.54880 0.06282 0.39387 -0.03600
H 	H 	0.53950 0.08790 0.40170 0.04300
C 	C 	0.58189 0.05978 0.36867 -0.06500
H 	H 	0.59470 0.08290 0.35960 0.05400
C 	C 	0.59585 0.02220 0.35702 0.01600
C 	C 	0.57670 0.98775 0.37057 -0.06200
H 	H 	0.58610 0.96260 0.36280 0.05300
C 	C 	0.54363 0.99079 0.39577 -0.04000
H 	H 	0.53080 0.96770 0.40480 0.04800
C 	C 	0.63270 0.02220 0.33130 0.03000
H 	H 	0.64280 0.04740 0.32470 0.04100
C 	C 	0.65134 0.99340 0.31780 -0.19200
H 	H 	0.64170 0.96790 0.32390 0.11300
C 	C 	0.69010 0.99610 0.29100 0.37200
O 	O 	0.21773 0.79790 0.96140 -0.41900
O 	O 	0.21646 0.80001 0.03112 -0.40800
C 	C 	0.03510 0.00188 0.06139 -0.15700
H 	H 	0.03720 0.98210 0.08090 0.08700
C 	C 	0.06264 0.00430 0.03000 0.09200
C 	C 	0.09258 0.97034 0.02830 -0.01700
C 	C 	0.10613 0.95120 0.06282 -0.03600
H 	H 	0.09830 0.96050 0.08790 0.04300
C 	C 	0.13133 0.91811 0.05978 -0.06600
H 	H 	0.14040 0.90530 0.08290 0.05400
C 	C 	0.14298 0.90415 0.02220 0.01600
C 	C 	0.12943 0.92330 0.98775 -0.06200
H 	H 	0.13720 0.91390 0.96260 0.05300
C 	C 	0.10423 0.95637 0.99079 -0.03900
H 	H 	0.09520 0.96920 0.96770 0.04800
C 	C 	0.16870 0.86730 0.02220 0.03000
H 	H 	0.17530 0.85720 0.04740 0.04100
C 	C 	0.18220 0.84866 0.99340 -0.19200
H 	H 	0.17610 0.85830 0.96790 0.11300
C 	C 	0.20900 0.80990 0.99610 0.37200
O 	O 	0.28227 0.79790 0.53860 -0.41900
O 	O 	0.28354 0.80001 0.46888 -0.40800
C 	C 	0.46490 0.00188 0.43861 -0.15700
H 	H 	0.46280 0.98210 0.41910 0.08700
C 	C 	0.43736 0.00430 0.47000 0.09200
C 	C 	0.40742 0.97034 0.47170 -0.01700
C 	C 	0.39387 0.95120 0.43718 -0.03600
H 	H 	0.40170 0.96050 0.41210 0.04300
C 	C 	0.36867 0.91811 0.44022 -0.06500
H 	H 	0.35960 0.90530 0.41710 0.05400
C 	C 	0.35702 0.90415 0.47780 0.01600
C 	C 	0.37057 0.92330 0.51225 -0.06200
H 	H 	0.36280 0.91390 0.53740 0.05300
C 	C 	0.39577 0.95637 0.50921 -0.04000
H 	H 	0.40480 0.96920 0.53230 0.04800
C 	C 	0.33130 0.86730 0.47780 0.03000
H 	H 	0.32470 0.85720 0.45260 0.04100
C 	C 	0.31780 0.84866 0.50660 -0.19200
H 	H 	0.32390 0.85830 0.53210 0.11300
C 	C 	0.29100 0.80990 0.50390 0.37200
O 	O 	0.21773 0.70210 0.53860 -0.41900
O 	O 	0.21646 0.69999 0.46888 -0.40800
C 	C 	0.03510 0.49812 0.43861 -0.15700
H 	H 	0.03720 0.51790 0.41910 0.08700
C 	C 	0.06264 0.49570 0.47000 0.09200
C 	C 	0.09258 0.52966 0.47170 -0.01700
C 	C 	0.10613 0.54880 0.43718 -0.03600
H 	H 	0.09830 0.53950 0.41210 0.04300
C 	C 	0.13133 0.58189 0.44022 -0.06500
H 	H 	0.14040 0.59470 0.41710 0.05400
C 	C 	0.14298 0.59585 0.47780 0.01600
C 	C 	0.12943 0.57670 0.51225 -0.06200
H 	H 	0.13720 0.58610 0.53740 0.05300
C 	C 	0.10423 0.54363 0.50921 -0.04000
H 	H 	0.09520 0.53080 0.53230 0.04800
C 	C 	0.16870 0.63270 0.47780 0.03000
H 	H 	0.17530 0.64280 0.45260 0.04100
C 	C 	0.18220 0.65134 0.50660 -0.19200
H 	H 	0.17610 0.64170 0.53210 0.11300
C 	C 	0.20900 0.69010 0.50390 0.37200
O 	O 	0.28227 0.70210 0.96140 -0.41900
O 	O 	0.28354 0.69999 0.03112 -0.40800
C 	C 	0.46490 0.49812 0.06139 -0.15700
H 	H 	0.46280 0.51790 0.08090 0.08700
C 	C 	0.43736 0.49570 0.03000 0.09200
C 	C 	0.40742 0.52966 0.02830 -0.01700
C 	C 	0.39387 0.54880 0.06282 -0.03600
H 	H 	0.40170 0.53950 0.08790 0.04300
C 	C 	0.36867 0.58189 0.05978 -0.06500
H 	H 	0.35960 0.59470 0.08290 0.05400
C 	C 	0.35702 0.59585 0.02220 0.01600
C 	C 	0.37057 0.57670 0.98775 -0.06200
H 	H 	0.36280 0.58610 0.96260 0.05300
C 	C 	0.39577 0.54363 0.99079 -0.04000
H 	H 	0.40480 0.53080 0.96770 0.04800
C 	C 	0.33130 0.63270 0.02220 0.03000
H 	H 	0.32470 0.64280 0.04740 0.04100
C 	C 	0.31780 0.65134 0.99340 -0.19200
H 	H 	0.32390 0.64170 0.96790 0.11300
C 	C 	0.29100 0.69010 0.99610 0.37200
Cu	Cu	0.75000 0.04002 0.25000 0.89600
Cu	Cu	0.75000 0.45998 0.25000 0.89600
Cu	Cu	0.04002 0.25000 0.75000 0.89600
Cu	Cu	0.45998 0.25000 0.75000 0.89600
Cu	Cu	0.25000 0.75000 0.45998 0.89600
Cu	Cu	0.25000 0.75000 0.04002 0.89600
Cu	Cu	0.95998 0.25000 0.75000 0.89600
Cu	Cu	0.54002 0.25000 0.75000 0.89600
Cu	Cu	0.75000 0.95998 0.25000 0.89600
Cu	Cu	0.75000 0.54002 0.25000 0.89600
Cu	Cu	0.25000 0.75000 0.95998 0.89600
Cu	Cu	0.25000 0.75000 0.54002 0.89600
