data_crystal

_cell_length_a 23.56700
_cell_length_b 23.56700
_cell_length_c 46.99700
_cell_angle_alpha 90.00000
_cell_angle_beta  90.00000
_cell_angle_gamma 90.00000

_symmetry_space_group_name_	'P 1'
_symmetry_space_group_name_H-M	'P 1'

loop_
_symmetry_equiv_pos_as_xyz
  x,y,z

loop_
_atom_site_label
_atom_site_type_symbol
_atom_site_fract_x
_atom_site_fract_y
_atom_site_fract_z
_atom_site_charge
Cu	Cu	0.68459 0.96064 0.15905 0.90800
Cu	Cu	0.76273 0.96961 0.11889 0.90700
Cu	Cu	0.31541 0.03936 0.15905 0.90800
Cu	Cu	0.23727 0.03039 0.11889 0.90700
Cu	Cu	0.03936 0.68459 0.15905 0.90800
Cu	Cu	0.03039 0.76273 0.11889 0.90700
Cu	Cu	0.96064 0.31541 0.15905 0.90800
Cu	Cu	0.96961 0.23727 0.11889 0.90700
Cu	Cu	0.31541 0.96064 0.34095 0.90800
Cu	Cu	0.23727 0.96961 0.38111 0.90700
Cu	Cu	0.68459 0.03936 0.34095 0.90800
Cu	Cu	0.76273 0.03039 0.38111 0.90700
Cu	Cu	0.96064 0.68459 0.34095 0.90800
Cu	Cu	0.96961 0.76273 0.38111 0.90700
Cu	Cu	0.03936 0.31541 0.34095 0.90800
Cu	Cu	0.03039 0.23727 0.38111 0.90700
Cu	Cu	0.31541 0.03936 0.84095 0.90800
Cu	Cu	0.23727 0.03039 0.88111 0.90700
Cu	Cu	0.68459 0.96064 0.84095 0.90800
Cu	Cu	0.76273 0.96961 0.88111 0.90700
Cu	Cu	0.96064 0.31541 0.84095 0.90800
Cu	Cu	0.96961 0.23727 0.88111 0.90700
Cu	Cu	0.03936 0.68459 0.84095 0.90800
Cu	Cu	0.03039 0.76273 0.88111 0.90700
Cu	Cu	0.68459 0.03936 0.65905 0.90800
Cu	Cu	0.76273 0.03039 0.61889 0.90700
Cu	Cu	0.31541 0.96064 0.65905 0.90800
Cu	Cu	0.23727 0.96961 0.61889 0.90700
Cu	Cu	0.03936 0.31541 0.65905 0.90800
Cu	Cu	0.03039 0.23727 0.61889 0.90700
Cu	Cu	0.96064 0.68459 0.65905 0.90800
Cu	Cu	0.96961 0.76273 0.61889 0.90700
Cu	Cu	0.78673 0.73627 1.00000 0.90600
Cu	Cu	0.71693 0.64881 1.00000 0.90700
Cu	Cu	0.21327 0.26373 -0.00000 0.90700
Cu	Cu	0.28307 0.35119 -0.00000 0.90800
Cu	Cu	0.26373 0.78673 1.00000 0.90600
Cu	Cu	0.35119 0.71693 -0.00000 0.90800
Cu	Cu	0.73627 0.21327 1.00000 0.90600
Cu	Cu	0.64881 0.28307 1.00000 0.90700
Cu	Cu	0.21327 0.73627 0.50000 0.90700
Cu	Cu	0.28307 0.64881 0.50000 0.90600
Cu	Cu	0.78673 0.26373 0.50000 0.90600
Cu	Cu	0.71693 0.35119 0.50000 0.90600
Cu	Cu	0.73627 0.78673 0.50000 0.90600
Cu	Cu	0.64881 0.71693 0.50000 0.90600
Cu	Cu	0.26373 0.21327 0.50000 0.90600
Cu	Cu	0.35119 0.28307 0.50000 0.90600
H 	H 	0.71430 0.82870 0.06840 0.07900
H 	H 	0.58980 0.71490 0.05820 0.11500
H 	H 	0.57890 0.83170 0.12030 0.12500
H 	H 	0.51970 0.75500 0.13640 -0.01500
H 	H 	0.46100 0.74030 0.12270 -0.01400
H 	H 	0.42120 0.90440 0.13250 0.12200
H 	H 	0.43550 0.78150 0.07400 0.12800
H 	H 	0.31420 0.90080 0.06660 0.08200
H 	H 	0.90150 0.73380 0.21210 0.11800
H 	H 	0.76270 0.83150 0.21020 0.12500
H 	H 	0.88220 0.84890 0.15020 0.07900
H 	H 	0.75140 0.73100 0.26500 -0.00800
H 	H 	0.28570 0.17130 0.06840 0.07900
H 	H 	0.41020 0.28510 0.05820 0.11500
H 	H 	0.42110 0.16830 0.12030 0.12500
H 	H 	0.48030 0.24500 0.13640 -0.01500
H 	H 	0.53900 0.25970 0.12270 -0.01400
H 	H 	0.57880 0.09560 0.13250 0.12200
H 	H 	0.56450 0.21850 0.07400 0.12800
H 	H 	0.68580 0.09920 0.06660 0.08200
H 	H 	0.09850 0.26620 0.21210 0.11800
H 	H 	0.23730 0.16850 0.21020 0.12500
H 	H 	0.11780 0.15110 0.15020 0.07900
H 	H 	0.24860 0.26900 0.26500 -0.00800
H 	H 	0.17130 0.71430 0.06840 0.07900
H 	H 	0.28510 0.58980 0.05820 0.11500
H 	H 	0.16830 0.57890 0.12030 0.12500
H 	H 	0.24500 0.51970 0.13640 -0.01500
H 	H 	0.25970 0.46100 0.12270 -0.01400
H 	H 	0.09560 0.42120 0.13250 0.12200
H 	H 	0.21850 0.43550 0.07400 0.12800
H 	H 	0.09920 0.31420 0.06660 0.08200
H 	H 	0.26620 0.90150 0.21210 0.11800
H 	H 	0.16850 0.76270 0.21020 0.12500
H 	H 	0.15110 0.88220 0.15020 0.07900
H 	H 	0.26900 0.75140 0.26500 -0.00800
H 	H 	0.82870 0.28570 0.06840 0.07900
H 	H 	0.71490 0.41020 0.05820 0.11500
H 	H 	0.83170 0.42110 0.12030 0.12500
H 	H 	0.75500 0.48030 0.13640 -0.01500
H 	H 	0.74030 0.53900 0.12270 -0.01400
H 	H 	0.90440 0.57880 0.13250 0.12200
H 	H 	0.78150 0.56450 0.07400 0.12800
H 	H 	0.90080 0.68580 0.06660 0.08200
H 	H 	0.73380 0.09850 0.21210 0.11800
H 	H 	0.83150 0.23730 0.21020 0.12500
H 	H 	0.84890 0.11780 0.15020 0.07900
H 	H 	0.73100 0.24860 0.26500 -0.00800
H 	H 	0.28570 0.82870 0.43160 0.07800
H 	H 	0.41020 0.71490 0.44180 0.11500
H 	H 	0.42110 0.83170 0.37970 0.12500
H 	H 	0.48030 0.75500 0.36360 -0.01500
H 	H 	0.53900 0.74030 0.37730 -0.01400
H 	H 	0.57880 0.90440 0.36750 0.12200
H 	H 	0.56450 0.78150 0.42600 0.12800
H 	H 	0.68580 0.90080 0.43340 0.08200
H 	H 	0.09850 0.73380 0.28790 0.11800
H 	H 	0.23730 0.83150 0.28980 0.12500
H 	H 	0.11780 0.84890 0.34980 0.07900
H 	H 	0.24860 0.73100 0.23500 -0.00800
H 	H 	0.71430 0.17130 0.43160 0.07800
H 	H 	0.58980 0.28510 0.44180 0.11500
H 	H 	0.57890 0.16830 0.37970 0.12500
H 	H 	0.51970 0.24500 0.36360 -0.01500
H 	H 	0.46100 0.25970 0.37730 -0.01400
H 	H 	0.42120 0.09560 0.36750 0.12200
H 	H 	0.43550 0.21850 0.42600 0.12800
H 	H 	0.31420 0.09920 0.43340 0.08200
H 	H 	0.90150 0.26620 0.28790 0.11800
H 	H 	0.76270 0.16850 0.28980 0.12500
H 	H 	0.88220 0.15110 0.34980 0.07900
H 	H 	0.75140 0.26900 0.23500 -0.00800
H 	H 	0.82870 0.71430 0.43160 0.07800
H 	H 	0.71490 0.58980 0.44180 0.11500
H 	H 	0.83170 0.57890 0.37970 0.12500
H 	H 	0.75500 0.51970 0.36360 -0.01500
H 	H 	0.74030 0.46100 0.37730 -0.01400
H 	H 	0.90440 0.42120 0.36750 0.12200
H 	H 	0.78150 0.43550 0.42600 0.12800
H 	H 	0.90080 0.31420 0.43340 0.08200
H 	H 	0.73380 0.90150 0.28790 0.11800
H 	H 	0.83150 0.76270 0.28980 0.12500
H 	H 	0.84890 0.88220 0.34980 0.07900
H 	H 	0.73100 0.75140 0.23500 -0.00800
H 	H 	0.17130 0.28570 0.43160 0.07800
H 	H 	0.28510 0.41020 0.44180 0.11500
H 	H 	0.16830 0.42110 0.37970 0.12500
H 	H 	0.24500 0.48030 0.36360 -0.01500
H 	H 	0.25970 0.53900 0.37730 -0.01400
H 	H 	0.09560 0.57880 0.36750 0.12200
H 	H 	0.21850 0.56450 0.42600 0.12800
H 	H 	0.09920 0.68580 0.43340 0.08200
H 	H 	0.26620 0.09850 0.28790 0.11800
H 	H 	0.16850 0.23730 0.28980 0.12500
H 	H 	0.15110 0.11780 0.34980 0.07900
H 	H 	0.26900 0.24860 0.23500 -0.00800
H 	H 	0.28570 0.17130 0.93160 0.07800
H 	H 	0.41020 0.28510 0.94180 0.11400
H 	H 	0.42110 0.16830 0.87970 0.12500
H 	H 	0.48030 0.24500 0.86360 -0.01500
H 	H 	0.53900 0.25970 0.87730 -0.01400
H 	H 	0.57880 0.09560 0.86750 0.12200
H 	H 	0.56450 0.21850 0.92600 0.12800
H 	H 	0.68580 0.09920 0.93340 0.08200
H 	H 	0.09850 0.26620 0.78790 0.11800
H 	H 	0.23730 0.16850 0.78980 0.12500
H 	H 	0.11780 0.15110 0.84980 0.07900
H 	H 	0.24860 0.26900 0.73500 -0.00800
H 	H 	0.71430 0.82870 0.93160 0.07800
H 	H 	0.58980 0.71490 0.94180 0.11400
H 	H 	0.57890 0.83170 0.87970 0.12500
H 	H 	0.51970 0.75500 0.86360 -0.01500
H 	H 	0.46100 0.74030 0.87730 -0.01400
H 	H 	0.42120 0.90440 0.86750 0.12200
H 	H 	0.43550 0.78150 0.92600 0.12800
H 	H 	0.31420 0.90080 0.93340 0.08200
H 	H 	0.90150 0.73380 0.78790 0.11800
H 	H 	0.76270 0.83150 0.78980 0.12500
H 	H 	0.88220 0.84890 0.84980 0.07900
H 	H 	0.75140 0.73100 0.73500 -0.00800
H 	H 	0.82870 0.28570 0.93160 0.07800
H 	H 	0.71490 0.41020 0.94180 0.11400
H 	H 	0.83170 0.42110 0.87970 0.12500
H 	H 	0.75500 0.48030 0.86360 -0.01500
H 	H 	0.74030 0.53900 0.87730 -0.01400
H 	H 	0.90440 0.57880 0.86750 0.12200
H 	H 	0.78150 0.56450 0.92600 0.12800
H 	H 	0.90080 0.68580 0.93340 0.08200
H 	H 	0.73380 0.09850 0.78790 0.11800
H 	H 	0.83150 0.23730 0.78980 0.12500
H 	H 	0.84890 0.11780 0.84980 0.07900
H 	H 	0.73100 0.24860 0.73500 -0.00800
H 	H 	0.17130 0.71430 0.93160 0.07800
H 	H 	0.28510 0.58980 0.94180 0.11400
H 	H 	0.16830 0.57890 0.87970 0.12500
H 	H 	0.24500 0.51970 0.86360 -0.01500
H 	H 	0.25970 0.46100 0.87730 -0.01400
H 	H 	0.09560 0.42120 0.86750 0.12200
H 	H 	0.21850 0.43550 0.92600 0.12800
H 	H 	0.09920 0.31420 0.93340 0.08200
H 	H 	0.26620 0.90150 0.78790 0.11800
H 	H 	0.16850 0.76270 0.78980 0.12500
H 	H 	0.15110 0.88220 0.84980 0.07900
H 	H 	0.26900 0.75140 0.73500 -0.00800
H 	H 	0.71430 0.17130 0.56840 0.07800
H 	H 	0.58980 0.28510 0.55820 0.11500
H 	H 	0.57890 0.16830 0.62030 0.12500
H 	H 	0.51970 0.24500 0.63640 -0.01500
H 	H 	0.46100 0.25970 0.62270 -0.01400
H 	H 	0.42120 0.09560 0.63250 0.12200
H 	H 	0.43550 0.21850 0.57400 0.12800
H 	H 	0.31420 0.09920 0.56660 0.08200
H 	H 	0.90150 0.26620 0.71210 0.11800
H 	H 	0.76270 0.16850 0.71020 0.12500
H 	H 	0.88220 0.15110 0.65020 0.07900
H 	H 	0.75140 0.26900 0.76500 -0.00800
H 	H 	0.28570 0.82870 0.56840 0.07800
H 	H 	0.41020 0.71490 0.55820 0.11500
H 	H 	0.42110 0.83170 0.62030 0.12500
H 	H 	0.48030 0.75500 0.63640 -0.01500
H 	H 	0.53900 0.74030 0.62270 -0.01400
H 	H 	0.57880 0.90440 0.63250 0.12200
H 	H 	0.56450 0.78150 0.57400 0.12800
H 	H 	0.68580 0.90080 0.56660 0.08200
H 	H 	0.09850 0.73380 0.71210 0.11800
H 	H 	0.23730 0.83150 0.71020 0.12500
H 	H 	0.11780 0.84890 0.65020 0.07900
H 	H 	0.24860 0.73100 0.76500 -0.00800
H 	H 	0.17130 0.28570 0.56840 0.07800
H 	H 	0.28510 0.41020 0.55820 0.11500
H 	H 	0.16830 0.42110 0.62030 0.12500
H 	H 	0.24500 0.48030 0.63640 -0.01500
H 	H 	0.25970 0.53900 0.62270 -0.01400
H 	H 	0.09560 0.57880 0.63250 0.12200
H 	H 	0.21850 0.56450 0.57400 0.12800
H 	H 	0.09920 0.68580 0.56660 0.08200
H 	H 	0.26620 0.09850 0.71210 0.11800
H 	H 	0.16850 0.23730 0.71020 0.12500
H 	H 	0.15110 0.11780 0.65020 0.07900
H 	H 	0.26900 0.24860 0.76500 -0.00800
H 	H 	0.82870 0.71430 0.56840 0.07800
H 	H 	0.71490 0.58980 0.55820 0.11500
H 	H 	0.83170 0.57890 0.62030 0.12500
H 	H 	0.75500 0.51970 0.63640 -0.01500
H 	H 	0.74030 0.46100 0.62270 -0.01400
H 	H 	0.90440 0.42120 0.63250 0.12200
H 	H 	0.78150 0.43550 0.57400 0.12800
H 	H 	0.90080 0.31420 0.56660 0.08200
H 	H 	0.73380 0.90150 0.71210 0.11800
H 	H 	0.83150 0.76270 0.71020 0.12500
H 	H 	0.84890 0.88220 0.65020 0.07900
H 	H 	0.73100 0.75140 0.76500 -0.00800
C 	C 	0.67628 0.88577 0.11264 0.33900
C 	C 	0.65134 0.83700 0.09673 -0.00300
C 	C 	0.67989 0.81328 0.07430 -0.04600
C 	C 	0.65768 0.76641 0.06032 -0.00400
C 	C 	0.69176 0.73762 0.03760 0.33500
C 	C 	0.60517 0.74581 0.06787 -0.14800
C 	C 	0.57488 0.77130 0.09001 0.22900
C 	C 	0.59816 0.81582 0.10495 -0.16100
C 	C 	0.49460 0.76360 0.12064 0.23400
C 	C 	0.33227 0.95982 0.11393 0.33000
C 	C 	0.36301 0.90983 0.10122 0.00700
C 	C 	0.40851 0.88704 0.11590 -0.16900
C 	C 	0.43482 0.83914 0.10617 0.24300
C 	C 	0.41713 0.81352 0.08093 -0.16800
C 	C 	0.37127 0.83713 0.06639 0.00400
C 	C 	0.34967 0.80815 0.03979 0.34700
C 	C 	0.34454 0.88518 0.07649 -0.05600
C 	C 	0.95335 0.76740 0.16502 0.33800
C 	C 	0.89994 0.78796 0.17894 -0.00200
C 	C 	0.88020 0.76227 0.20346 -0.15800
C 	C 	0.82938 0.77861 0.21506 0.23500
C 	C 	0.79732 0.82076 0.20242 -0.16500
C 	C 	0.86860 0.83084 0.16646 -0.05000
C 	C 	0.81744 0.84684 0.17793 0.00200
C 	C 	0.78286 0.89230 0.16403 0.33400
C 	C 	0.32372 0.11423 0.11264 0.33900
C 	C 	0.34866 0.16300 0.09673 -0.00300
C 	C 	0.32011 0.18672 0.07430 -0.04600
C 	C 	0.34232 0.23359 0.06032 -0.00400
C 	C 	0.30824 0.26238 0.03760 0.33500
C 	C 	0.39483 0.25419 0.06787 -0.14800
C 	C 	0.42512 0.22870 0.09001 0.22900
C 	C 	0.40184 0.18418 0.10495 -0.16100
C 	C 	0.50540 0.23640 0.12064 0.23400
C 	C 	0.66773 0.04018 0.11393 0.33000
C 	C 	0.63699 0.09017 0.10122 0.00700
C 	C 	0.59149 0.11296 0.11590 -0.16900
C 	C 	0.56518 0.16086 0.10617 0.24300
C 	C 	0.58287 0.18648 0.08093 -0.16800
C 	C 	0.62873 0.16287 0.06639 0.00400
C 	C 	0.65033 0.19185 0.03979 0.34600
C 	C 	0.65546 0.11482 0.07649 -0.05600
C 	C 	0.04665 0.23260 0.16502 0.33800
C 	C 	0.10006 0.21204 0.17894 -0.00200
C 	C 	0.11980 0.23773 0.20346 -0.15800
C 	C 	0.17062 0.22139 0.21506 0.23500
C 	C 	0.20268 0.17924 0.20242 -0.16500
C 	C 	0.13140 0.16916 0.16646 -0.05000
C 	C 	0.18256 0.15316 0.17793 0.00200
C 	C 	0.21714 0.10770 0.16403 0.33400
C 	C 	0.11423 0.67628 0.11264 0.33900
C 	C 	0.16300 0.65134 0.09673 -0.00300
C 	C 	0.18672 0.67989 0.07430 -0.04600
C 	C 	0.23359 0.65768 0.06032 -0.00400
C 	C 	0.26238 0.69176 0.03760 0.33500
C 	C 	0.25419 0.60517 0.06787 -0.14800
C 	C 	0.22870 0.57488 0.09001 0.22900
C 	C 	0.18418 0.59816 0.10495 -0.16100
C 	C 	0.23640 0.49460 0.12064 0.23400
C 	C 	0.04018 0.33227 0.11393 0.33000
C 	C 	0.09017 0.36301 0.10122 0.00700
C 	C 	0.11296 0.40851 0.11590 -0.16900
C 	C 	0.16086 0.43482 0.10617 0.24300
C 	C 	0.18648 0.41713 0.08093 -0.16800
C 	C 	0.16287 0.37127 0.06639 0.00400
C 	C 	0.19185 0.34967 0.03979 0.34700
C 	C 	0.11482 0.34454 0.07649 -0.05600
C 	C 	0.23260 0.95335 0.16502 0.33800
C 	C 	0.21204 0.89994 0.17894 -0.00200
C 	C 	0.23773 0.88020 0.20346 -0.15800
C 	C 	0.22139 0.82938 0.21506 0.23500
C 	C 	0.17924 0.79732 0.20242 -0.16500
C 	C 	0.16916 0.86860 0.16646 -0.05000
C 	C 	0.15316 0.81744 0.17793 0.00200
C 	C 	0.10770 0.78286 0.16403 0.33400
C 	C 	0.88577 0.32372 0.11264 0.33900
C 	C 	0.83700 0.34866 0.09673 -0.00300
C 	C 	0.81328 0.32011 0.07430 -0.04600
C 	C 	0.76641 0.34232 0.06032 -0.00400
C 	C 	0.73762 0.30824 0.03760 0.33500
C 	C 	0.74581 0.39483 0.06787 -0.14800
C 	C 	0.77130 0.42512 0.09001 0.22900
C 	C 	0.81582 0.40184 0.10495 -0.16100
C 	C 	0.76360 0.50540 0.12064 0.23400
C 	C 	0.95982 0.66773 0.11393 0.33000
C 	C 	0.90983 0.63699 0.10122 0.00700
C 	C 	0.88704 0.59149 0.11590 -0.16900
C 	C 	0.83914 0.56518 0.10617 0.24300
C 	C 	0.81352 0.58287 0.08093 -0.16800
C 	C 	0.83713 0.62873 0.06639 0.00500
C 	C 	0.80815 0.65033 0.03979 0.34600
C 	C 	0.88518 0.65546 0.07649 -0.05600
C 	C 	0.76740 0.04665 0.16502 0.33800
C 	C 	0.78796 0.10006 0.17894 -0.00200
C 	C 	0.76227 0.11980 0.20346 -0.15800
C 	C 	0.77861 0.17062 0.21506 0.23500
C 	C 	0.82076 0.20268 0.20242 -0.16500
C 	C 	0.83084 0.13140 0.16646 -0.05000
C 	C 	0.84684 0.18256 0.17793 0.00200
C 	C 	0.89230 0.21714 0.16403 0.33400
C 	C 	0.32372 0.88577 0.38736 0.33900
C 	C 	0.34866 0.83700 0.40327 -0.00300
C 	C 	0.32011 0.81328 0.42570 -0.04600
C 	C 	0.34232 0.76641 0.43968 -0.00500
C 	C 	0.30824 0.73762 0.46240 0.33500
C 	C 	0.39483 0.74581 0.43213 -0.14800
C 	C 	0.42512 0.77130 0.40999 0.22900
C 	C 	0.40184 0.81582 0.39505 -0.16100
C 	C 	0.50540 0.76360 0.37936 0.23400
C 	C 	0.66773 0.95982 0.38607 0.33000
C 	C 	0.63699 0.90983 0.39878 0.00700
C 	C 	0.59149 0.88704 0.38410 -0.16800
C 	C 	0.56518 0.83914 0.39383 0.24300
C 	C 	0.58287 0.81352 0.41907 -0.16800
C 	C 	0.62873 0.83713 0.43361 0.00400
C 	C 	0.65033 0.80815 0.46021 0.34700
C 	C 	0.65546 0.88518 0.42351 -0.05600
C 	C 	0.04665 0.76740 0.33498 0.33800
C 	C 	0.10006 0.78796 0.32106 -0.00200
C 	C 	0.11980 0.76227 0.29654 -0.15800
C 	C 	0.17062 0.77861 0.28494 0.23500
C 	C 	0.20268 0.82076 0.29758 -0.16500
C 	C 	0.13140 0.83084 0.33354 -0.05000
C 	C 	0.18256 0.84684 0.32207 0.00200
C 	C 	0.21714 0.89230 0.33597 0.33400
C 	C 	0.67628 0.11423 0.38736 0.33900
C 	C 	0.65134 0.16300 0.40327 -0.00300
C 	C 	0.67989 0.18672 0.42570 -0.04600
C 	C 	0.65768 0.23359 0.43968 -0.00500
C 	C 	0.69176 0.26238 0.46240 0.33500
C 	C 	0.60517 0.25419 0.43213 -0.14800
C 	C 	0.57488 0.22870 0.40999 0.22900
C 	C 	0.59816 0.18418 0.39505 -0.16100
C 	C 	0.49460 0.23640 0.37936 0.23400
C 	C 	0.33227 0.04018 0.38607 0.33000
C 	C 	0.36301 0.09017 0.39878 0.00700
C 	C 	0.40851 0.11296 0.38410 -0.16800
C 	C 	0.43482 0.16086 0.39383 0.24300
C 	C 	0.41713 0.18648 0.41907 -0.16800
C 	C 	0.37127 0.16287 0.43361 0.00400
C 	C 	0.34967 0.19185 0.46021 0.34700
C 	C 	0.34454 0.11482 0.42351 -0.05600
C 	C 	0.95335 0.23260 0.33498 0.33800
C 	C 	0.89994 0.21204 0.32106 -0.00200
C 	C 	0.88020 0.23773 0.29654 -0.15800
C 	C 	0.82938 0.22139 0.28494 0.23500
C 	C 	0.79732 0.17924 0.29758 -0.16500
C 	C 	0.86860 0.16916 0.33354 -0.05000
C 	C 	0.81744 0.15316 0.32207 0.00200
C 	C 	0.78286 0.10770 0.33597 0.33400
C 	C 	0.88577 0.67628 0.38736 0.33900
C 	C 	0.83700 0.65134 0.40327 -0.00300
C 	C 	0.81328 0.67989 0.42570 -0.04600
C 	C 	0.76641 0.65768 0.43968 -0.00500
C 	C 	0.73762 0.69176 0.46240 0.33500
C 	C 	0.74581 0.60517 0.43213 -0.14800
C 	C 	0.77130 0.57488 0.40999 0.22900
C 	C 	0.81582 0.59816 0.39505 -0.16100
C 	C 	0.76360 0.49460 0.37936 0.23400
C 	C 	0.95982 0.33227 0.38607 0.33000
C 	C 	0.90983 0.36301 0.39878 0.00700
C 	C 	0.88704 0.40851 0.38410 -0.16800
C 	C 	0.83914 0.43482 0.39383 0.24300
C 	C 	0.81352 0.41713 0.41907 -0.16800
C 	C 	0.83713 0.37127 0.43361 0.00400
C 	C 	0.80815 0.34967 0.46021 0.34700
C 	C 	0.88518 0.34454 0.42351 -0.05600
C 	C 	0.76740 0.95335 0.33498 0.33800
C 	C 	0.78796 0.89994 0.32106 -0.00200
C 	C 	0.76227 0.88020 0.29654 -0.15800
C 	C 	0.77861 0.82938 0.28494 0.23500
C 	C 	0.82076 0.79732 0.29758 -0.16500
C 	C 	0.83084 0.86860 0.33354 -0.05000
C 	C 	0.84684 0.81744 0.32207 0.00200
C 	C 	0.89230 0.78286 0.33597 0.33400
C 	C 	0.11423 0.32372 0.38736 0.33900
C 	C 	0.16300 0.34866 0.40327 -0.00300
C 	C 	0.18672 0.32011 0.42570 -0.04600
C 	C 	0.23359 0.34232 0.43968 -0.00500
C 	C 	0.26238 0.30824 0.46240 0.33500
C 	C 	0.25419 0.39483 0.43213 -0.14800
C 	C 	0.22870 0.42512 0.40999 0.22900
C 	C 	0.18418 0.40184 0.39505 -0.16100
C 	C 	0.23640 0.50540 0.37936 0.23400
C 	C 	0.04018 0.66773 0.38607 0.33000
C 	C 	0.09017 0.63699 0.39878 0.00700
C 	C 	0.11296 0.59149 0.38410 -0.16800
C 	C 	0.16086 0.56518 0.39383 0.24300
C 	C 	0.18648 0.58287 0.41907 -0.16800
C 	C 	0.16287 0.62873 0.43361 0.00400
C 	C 	0.19185 0.65033 0.46021 0.34700
C 	C 	0.11482 0.65546 0.42351 -0.05600
C 	C 	0.23260 0.04665 0.33498 0.33800
C 	C 	0.21204 0.10006 0.32106 -0.00200
C 	C 	0.23773 0.11980 0.29654 -0.15800
C 	C 	0.22139 0.17062 0.28494 0.23500
C 	C 	0.17924 0.20268 0.29758 -0.16500
C 	C 	0.16916 0.13140 0.33354 -0.05000
C 	C 	0.15316 0.18256 0.32207 0.00200
C 	C 	0.10770 0.21714 0.33597 0.33400
C 	C 	0.32372 0.11423 0.88736 0.33900
C 	C 	0.34866 0.16300 0.90327 -0.00300
C 	C 	0.32011 0.18672 0.92570 -0.04600
C 	C 	0.34232 0.23359 0.93968 -0.00500
C 	C 	0.30824 0.26238 0.96240 0.33500
C 	C 	0.39483 0.25419 0.93213 -0.14800
C 	C 	0.42512 0.22870 0.90999 0.22900
C 	C 	0.40184 0.18418 0.89505 -0.16000
C 	C 	0.50540 0.23640 0.87936 0.23400
C 	C 	0.66773 0.04018 0.88607 0.33000
C 	C 	0.63699 0.09017 0.89878 0.00700
C 	C 	0.59149 0.11296 0.88410 -0.16800
C 	C 	0.56518 0.16086 0.89383 0.24300
C 	C 	0.58287 0.18648 0.91907 -0.16800
C 	C 	0.62873 0.16287 0.93361 0.00400
C 	C 	0.65033 0.19185 0.96021 0.34700
C 	C 	0.65546 0.11482 0.92351 -0.05600
C 	C 	0.04665 0.23260 0.83498 0.33800
C 	C 	0.10006 0.21204 0.82106 -0.00200
C 	C 	0.11980 0.23773 0.79654 -0.15700
C 	C 	0.17062 0.22139 0.78494 0.23500
C 	C 	0.20268 0.17924 0.79758 -0.16500
C 	C 	0.13140 0.16916 0.83354 -0.05000
C 	C 	0.18256 0.15316 0.82207 0.00200
C 	C 	0.21714 0.10770 0.83597 0.33400
C 	C 	0.67628 0.88577 0.88736 0.33900
C 	C 	0.65134 0.83700 0.90327 -0.00300
C 	C 	0.67989 0.81328 0.92570 -0.04600
C 	C 	0.65768 0.76641 0.93968 -0.00500
C 	C 	0.69176 0.73762 0.96240 0.33500
C 	C 	0.60517 0.74581 0.93213 -0.14800
C 	C 	0.57488 0.77130 0.90999 0.22900
C 	C 	0.59816 0.81582 0.89505 -0.16000
C 	C 	0.49460 0.76360 0.87936 0.23400
C 	C 	0.33227 0.95982 0.88607 0.33000
C 	C 	0.36301 0.90983 0.89878 0.00700
C 	C 	0.40851 0.88704 0.88410 -0.16800
C 	C 	0.43482 0.83914 0.89383 0.24300
C 	C 	0.41713 0.81352 0.91907 -0.16800
C 	C 	0.37127 0.83713 0.93361 0.00400
C 	C 	0.34967 0.80815 0.96021 0.34700
C 	C 	0.34454 0.88518 0.92351 -0.05500
C 	C 	0.95335 0.76740 0.83498 0.33800
C 	C 	0.89994 0.78796 0.82106 -0.00200
C 	C 	0.88020 0.76227 0.79654 -0.15700
C 	C 	0.82938 0.77861 0.78494 0.23500
C 	C 	0.79732 0.82076 0.79758 -0.16500
C 	C 	0.86860 0.83084 0.83354 -0.05000
C 	C 	0.81744 0.84684 0.82207 0.00200
C 	C 	0.78286 0.89230 0.83597 0.33400
C 	C 	0.88577 0.32372 0.88736 0.33900
C 	C 	0.83700 0.34866 0.90327 -0.00300
C 	C 	0.81328 0.32011 0.92570 -0.04600
C 	C 	0.76641 0.34232 0.93968 -0.00500
C 	C 	0.73762 0.30824 0.96240 0.33500
C 	C 	0.74581 0.39483 0.93213 -0.14800
C 	C 	0.77130 0.42512 0.90999 0.22900
C 	C 	0.81582 0.40184 0.89505 -0.16000
C 	C 	0.76360 0.50540 0.87936 0.23400
C 	C 	0.95982 0.66773 0.88607 0.33000
C 	C 	0.90983 0.63699 0.89878 0.00700
C 	C 	0.88704 0.59149 0.88410 -0.16800
C 	C 	0.83914 0.56518 0.89383 0.24300
C 	C 	0.81352 0.58287 0.91907 -0.16800
C 	C 	0.83713 0.62873 0.93361 0.00400
C 	C 	0.80815 0.65033 0.96021 0.34700
C 	C 	0.88518 0.65546 0.92351 -0.05600
C 	C 	0.76740 0.04665 0.83498 0.33800
C 	C 	0.78796 0.10006 0.82106 -0.00200
C 	C 	0.76227 0.11980 0.79654 -0.15700
C 	C 	0.77861 0.17062 0.78494 0.23500
C 	C 	0.82076 0.20268 0.79758 -0.16500
C 	C 	0.83084 0.13140 0.83354 -0.05000
C 	C 	0.84684 0.18256 0.82207 0.00200
C 	C 	0.89230 0.21714 0.83597 0.33400
C 	C 	0.11423 0.67628 0.88736 0.33900
C 	C 	0.16300 0.65134 0.90327 -0.00300
C 	C 	0.18672 0.67989 0.92570 -0.04600
C 	C 	0.23359 0.65768 0.93968 -0.00500
C 	C 	0.26238 0.69176 0.96240 0.33500
C 	C 	0.25419 0.60517 0.93213 -0.14800
C 	C 	0.22870 0.57488 0.90999 0.22900
C 	C 	0.18418 0.59816 0.89505 -0.16000
C 	C 	0.23640 0.49460 0.87936 0.23400
C 	C 	0.04018 0.33227 0.88607 0.33000
C 	C 	0.09017 0.36301 0.89878 0.00700
C 	C 	0.11296 0.40851 0.88410 -0.16800
C 	C 	0.16086 0.43482 0.89383 0.24300
C 	C 	0.18648 0.41713 0.91907 -0.16800
C 	C 	0.16287 0.37127 0.93361 0.00400
C 	C 	0.19185 0.34967 0.96021 0.34700
C 	C 	0.11482 0.34454 0.92351 -0.05500
C 	C 	0.23260 0.95335 0.83498 0.33800
C 	C 	0.21204 0.89994 0.82106 -0.00200
C 	C 	0.23773 0.88020 0.79654 -0.15700
C 	C 	0.22139 0.82938 0.78494 0.23500
C 	C 	0.17924 0.79732 0.79758 -0.16500
C 	C 	0.16916 0.86860 0.83354 -0.05000
C 	C 	0.15316 0.81744 0.82207 0.00200
C 	C 	0.10770 0.78286 0.83597 0.33400
C 	C 	0.67628 0.11423 0.61264 0.33900
C 	C 	0.65134 0.16300 0.59673 -0.00300
C 	C 	0.67989 0.18672 0.57430 -0.04600
C 	C 	0.65768 0.23359 0.56032 -0.00500
C 	C 	0.69176 0.26238 0.53760 0.33500
C 	C 	0.60517 0.25419 0.56787 -0.14800
C 	C 	0.57488 0.22870 0.59001 0.22900
C 	C 	0.59816 0.18418 0.60495 -0.16100
C 	C 	0.49460 0.23640 0.62064 0.23400
C 	C 	0.33227 0.04018 0.61393 0.33000
C 	C 	0.36301 0.09017 0.60122 0.00700
C 	C 	0.40851 0.11296 0.61590 -0.16800
C 	C 	0.43482 0.16086 0.60617 0.24300
C 	C 	0.41713 0.18648 0.58093 -0.16800
C 	C 	0.37127 0.16287 0.56639 0.00400
C 	C 	0.34967 0.19185 0.53979 0.34700
C 	C 	0.34454 0.11482 0.57649 -0.05600
C 	C 	0.95335 0.23260 0.66502 0.33800
C 	C 	0.89994 0.21204 0.67894 -0.00200
C 	C 	0.88020 0.23773 0.70346 -0.15800
C 	C 	0.82938 0.22139 0.71506 0.23500
C 	C 	0.79732 0.17924 0.70242 -0.16500
C 	C 	0.86860 0.16916 0.66646 -0.05000
C 	C 	0.81744 0.15316 0.67793 0.00200
C 	C 	0.78286 0.10770 0.66403 0.33400
C 	C 	0.32372 0.88577 0.61264 0.33900
C 	C 	0.34866 0.83700 0.59673 -0.00300
C 	C 	0.32011 0.81328 0.57430 -0.04600
C 	C 	0.34232 0.76641 0.56032 -0.00500
C 	C 	0.30824 0.73762 0.53760 0.33500
C 	C 	0.39483 0.74581 0.56787 -0.14800
C 	C 	0.42512 0.77130 0.59001 0.22900
C 	C 	0.40184 0.81582 0.60495 -0.16100
C 	C 	0.50540 0.76360 0.62064 0.23400
C 	C 	0.66773 0.95982 0.61393 0.33000
C 	C 	0.63699 0.90983 0.60122 0.00700
C 	C 	0.59149 0.88704 0.61590 -0.16800
C 	C 	0.56518 0.83914 0.60617 0.24300
C 	C 	0.58287 0.81352 0.58093 -0.16800
C 	C 	0.62873 0.83713 0.56639 0.00400
C 	C 	0.65033 0.80815 0.53979 0.34700
C 	C 	0.65546 0.88518 0.57649 -0.05600
C 	C 	0.04665 0.76740 0.66502 0.33800
C 	C 	0.10006 0.78796 0.67894 -0.00200
C 	C 	0.11980 0.76227 0.70346 -0.15800
C 	C 	0.17062 0.77861 0.71506 0.23500
C 	C 	0.20268 0.82076 0.70242 -0.16500
C 	C 	0.13140 0.83084 0.66646 -0.05000
C 	C 	0.18256 0.84684 0.67793 0.00200
C 	C 	0.21714 0.89230 0.66403 0.33400
C 	C 	0.11423 0.32372 0.61264 0.33900
C 	C 	0.16300 0.34866 0.59673 -0.00300
C 	C 	0.18672 0.32011 0.57430 -0.04600
C 	C 	0.23359 0.34232 0.56032 -0.00500
C 	C 	0.26238 0.30824 0.53760 0.33500
C 	C 	0.25419 0.39483 0.56787 -0.14800
C 	C 	0.22870 0.42512 0.59001 0.22900
C 	C 	0.18418 0.40184 0.60495 -0.16100
C 	C 	0.23640 0.50540 0.62064 0.23400
C 	C 	0.04018 0.66773 0.61393 0.33000
C 	C 	0.09017 0.63699 0.60122 0.00700
C 	C 	0.11296 0.59149 0.61590 -0.16800
C 	C 	0.16086 0.56518 0.60617 0.24300
C 	C 	0.18648 0.58287 0.58093 -0.16800
C 	C 	0.16287 0.62873 0.56639 0.00400
C 	C 	0.19185 0.65033 0.53979 0.34700
C 	C 	0.11482 0.65546 0.57649 -0.05600
C 	C 	0.23260 0.04665 0.66502 0.33800
C 	C 	0.21204 0.10006 0.67894 -0.00200
C 	C 	0.23773 0.11980 0.70346 -0.15800
C 	C 	0.22139 0.17062 0.71506 0.23500
C 	C 	0.17924 0.20268 0.70242 -0.16500
C 	C 	0.16916 0.13140 0.66646 -0.05000
C 	C 	0.15316 0.18256 0.67793 0.00200
C 	C 	0.10770 0.21714 0.66403 0.33400
C 	C 	0.88577 0.67628 0.61264 0.33900
C 	C 	0.83700 0.65134 0.59673 -0.00300
C 	C 	0.81328 0.67989 0.57430 -0.04600
C 	C 	0.76641 0.65768 0.56032 -0.00500
C 	C 	0.73762 0.69176 0.53760 0.33500
C 	C 	0.74581 0.60517 0.56787 -0.14800
C 	C 	0.77130 0.57488 0.59001 0.22900
C 	C 	0.81582 0.59816 0.60495 -0.16100
C 	C 	0.76360 0.49460 0.62064 0.23400
C 	C 	0.95982 0.33227 0.61393 0.33000
C 	C 	0.90983 0.36301 0.60122 0.00700
C 	C 	0.88704 0.40851 0.61590 -0.16800
C 	C 	0.83914 0.43482 0.60617 0.24300
C 	C 	0.81352 0.41713 0.58093 -0.16800
C 	C 	0.83713 0.37127 0.56639 0.00400
C 	C 	0.80815 0.34967 0.53979 0.34700
C 	C 	0.88518 0.34454 0.57649 -0.05600
C 	C 	0.76740 0.95335 0.66502 0.33800
C 	C 	0.78796 0.89994 0.67894 -0.00200
C 	C 	0.76227 0.88020 0.70346 -0.15800
C 	C 	0.77861 0.82938 0.71506 0.23500
C 	C 	0.82076 0.79732 0.70242 -0.16500
C 	C 	0.83084 0.86860 0.66646 -0.05000
C 	C 	0.84684 0.81744 0.67793 0.00200
C 	C 	0.89230 0.78286 0.66403 0.33400
C 	C 	0.75840 0.75840 0.25000 0.20800
C 	C 	0.24160 0.24160 0.25000 0.20800
C 	C 	0.24160 0.75840 0.25000 0.20800
C 	C 	0.75840 0.24160 0.25000 0.20800
C 	C 	0.24160 0.24160 0.75000 0.20800
C 	C 	0.75840 0.75840 0.75000 0.20800
C 	C 	0.75840 0.24160 0.75000 0.20800
C 	C 	0.24160 0.75840 0.75000 0.20800
O 	O 	0.65076 0.90258 0.13419 -0.39600
O 	O 	0.72201 0.90524 0.10286 -0.40300
O 	O 	0.73507 0.76375 0.02921 -0.40300
O 	O 	0.67457 0.69065 0.02853 -0.39600
O 	O 	0.35120 0.97965 0.13676 -0.40200
O 	O 	0.29007 0.97797 0.10041 -0.39500
O 	O 	0.37796 0.76759 0.03066 -0.40200
O 	O 	0.30519 0.82752 0.02984 -0.40500
O 	O 	0.52244 0.74839 0.09478 -0.26600
O 	O 	0.47907 0.81972 0.12222 -0.27600
O 	O 	0.98048 0.72909 0.17752 -0.40100
O 	O 	0.96650 0.78957 0.14180 -0.40100
O 	O 	0.73471 0.90225 0.17456 -0.39400
O 	O 	0.80433 0.91660 0.14305 -0.40200
O 	O 	0.81385 0.74937 0.23897 -0.26300
O 	O 	0.34924 0.09742 0.13419 -0.39600
O 	O 	0.27799 0.09476 0.10286 -0.40300
O 	O 	0.26493 0.23625 0.02921 -0.40300
O 	O 	0.32543 0.30935 0.02853 -0.39700
O 	O 	0.64880 0.02035 0.13676 -0.40200
O 	O 	0.70993 0.02203 0.10041 -0.39500
O 	O 	0.62204 0.23241 0.03066 -0.40200
O 	O 	0.69481 0.17248 0.02984 -0.40500
O 	O 	0.47756 0.25161 0.09478 -0.26600
O 	O 	0.52093 0.18028 0.12222 -0.27600
O 	O 	0.01952 0.27091 0.17752 -0.40100
O 	O 	0.03350 0.21043 0.14180 -0.40200
O 	O 	0.26529 0.09775 0.17456 -0.39400
O 	O 	0.19567 0.08340 0.14305 -0.40200
O 	O 	0.18615 0.25063 0.23897 -0.26300
O 	O 	0.09742 0.65076 0.13419 -0.39600
O 	O 	0.09476 0.72201 0.10286 -0.40300
O 	O 	0.23625 0.73507 0.02921 -0.40300
O 	O 	0.30935 0.67457 0.02853 -0.39700
O 	O 	0.02035 0.35120 0.13676 -0.40200
O 	O 	0.02203 0.29007 0.10041 -0.39500
O 	O 	0.23241 0.37796 0.03066 -0.40200
O 	O 	0.17248 0.30519 0.02984 -0.40500
O 	O 	0.25161 0.52244 0.09478 -0.26600
O 	O 	0.18028 0.47907 0.12222 -0.27600
O 	O 	0.27091 0.98048 0.17752 -0.40100
O 	O 	0.21043 0.96650 0.14180 -0.40100
O 	O 	0.09775 0.73471 0.17456 -0.39400
O 	O 	0.08340 0.80433 0.14305 -0.40200
O 	O 	0.25063 0.81385 0.23897 -0.26300
O 	O 	0.90258 0.34924 0.13419 -0.39600
O 	O 	0.90524 0.27799 0.10286 -0.40300
O 	O 	0.76375 0.26493 0.02921 -0.40300
O 	O 	0.69065 0.32543 0.02853 -0.39600
O 	O 	0.97965 0.64880 0.13676 -0.40200
O 	O 	0.97797 0.70993 0.10041 -0.39500
O 	O 	0.76759 0.62204 0.03066 -0.40200
O 	O 	0.82752 0.69481 0.02984 -0.40500
O 	O 	0.74839 0.47756 0.09478 -0.26600
O 	O 	0.81972 0.52093 0.12222 -0.27600
O 	O 	0.72909 0.01952 0.17752 -0.40100
O 	O 	0.78957 0.03350 0.14180 -0.40100
O 	O 	0.90225 0.26529 0.17456 -0.39400
O 	O 	0.91660 0.19567 0.14305 -0.40200
O 	O 	0.74937 0.18615 0.23897 -0.26300
O 	O 	0.34924 0.90258 0.36581 -0.39600
O 	O 	0.27799 0.90524 0.39714 -0.40300
O 	O 	0.26493 0.76375 0.47079 -0.40300
O 	O 	0.32543 0.69065 0.47147 -0.39700
O 	O 	0.64880 0.97965 0.36324 -0.40200
O 	O 	0.70993 0.97797 0.39959 -0.39500
O 	O 	0.62204 0.76759 0.46934 -0.40200
O 	O 	0.69481 0.82752 0.47016 -0.40600
O 	O 	0.47756 0.74839 0.40522 -0.26600
O 	O 	0.52093 0.81972 0.37778 -0.27600
O 	O 	0.01952 0.72909 0.32248 -0.40100
O 	O 	0.03350 0.78957 0.35820 -0.40200
O 	O 	0.26529 0.90225 0.32544 -0.39400
O 	O 	0.19567 0.91660 0.35695 -0.40200
O 	O 	0.18615 0.74937 0.26103 -0.26300
O 	O 	0.65076 0.09742 0.36581 -0.39600
O 	O 	0.72201 0.09476 0.39714 -0.40300
O 	O 	0.73507 0.23625 0.47079 -0.40300
O 	O 	0.67457 0.30935 0.47147 -0.39700
O 	O 	0.35120 0.02035 0.36324 -0.40200
O 	O 	0.29007 0.02203 0.39959 -0.39500
O 	O 	0.37796 0.23241 0.46934 -0.40200
O 	O 	0.30519 0.17248 0.47016 -0.40600
O 	O 	0.52244 0.25161 0.40522 -0.26600
O 	O 	0.47907 0.18028 0.37778 -0.27600
O 	O 	0.98048 0.27091 0.32248 -0.40100
O 	O 	0.96650 0.21043 0.35820 -0.40200
O 	O 	0.73471 0.09775 0.32544 -0.39400
O 	O 	0.80433 0.08340 0.35695 -0.40200
O 	O 	0.81385 0.25063 0.26103 -0.26300
O 	O 	0.90258 0.65076 0.36581 -0.39600
O 	O 	0.90524 0.72201 0.39714 -0.40300
O 	O 	0.76375 0.73507 0.47079 -0.40300
O 	O 	0.69065 0.67457 0.47147 -0.39700
O 	O 	0.97965 0.35120 0.36324 -0.40200
O 	O 	0.97797 0.29007 0.39959 -0.39500
O 	O 	0.76759 0.37796 0.46934 -0.40200
O 	O 	0.82752 0.30519 0.47016 -0.40600
O 	O 	0.74839 0.52244 0.40522 -0.26600
O 	O 	0.81972 0.47907 0.37778 -0.27600
O 	O 	0.72909 0.98048 0.32248 -0.40100
O 	O 	0.78957 0.96650 0.35820 -0.40200
O 	O 	0.90225 0.73471 0.32544 -0.39400
O 	O 	0.91660 0.80433 0.35695 -0.40200
O 	O 	0.74937 0.81385 0.26103 -0.26300
O 	O 	0.09742 0.34924 0.36581 -0.39600
O 	O 	0.09476 0.27799 0.39714 -0.40300
O 	O 	0.23625 0.26493 0.47079 -0.40300
O 	O 	0.30935 0.32543 0.47147 -0.39700
O 	O 	0.02035 0.64880 0.36324 -0.40200
O 	O 	0.02203 0.70993 0.39959 -0.39500
O 	O 	0.23241 0.62204 0.46934 -0.40200
O 	O 	0.17248 0.69481 0.47016 -0.40600
O 	O 	0.25161 0.47756 0.40522 -0.26600
O 	O 	0.18028 0.52093 0.37778 -0.27600
O 	O 	0.27091 0.01952 0.32248 -0.40100
O 	O 	0.21043 0.03350 0.35820 -0.40200
O 	O 	0.09775 0.26529 0.32544 -0.39400
O 	O 	0.08340 0.19567 0.35695 -0.40200
O 	O 	0.25063 0.18615 0.26103 -0.26300
O 	O 	0.34924 0.09742 0.86581 -0.39600
O 	O 	0.27799 0.09476 0.89714 -0.40300
O 	O 	0.26493 0.23625 0.97079 -0.40400
O 	O 	0.32543 0.30935 0.97147 -0.39700
O 	O 	0.64880 0.02035 0.86324 -0.40200
O 	O 	0.70993 0.02203 0.89959 -0.39600
O 	O 	0.62204 0.23241 0.96934 -0.40200
O 	O 	0.69481 0.17248 0.97016 -0.40600
O 	O 	0.47756 0.25161 0.90522 -0.26600
O 	O 	0.52093 0.18028 0.87778 -0.27600
O 	O 	0.01952 0.27091 0.82248 -0.40100
O 	O 	0.03350 0.21043 0.85820 -0.40200
O 	O 	0.26529 0.09775 0.82544 -0.39400
O 	O 	0.19567 0.08340 0.85695 -0.40200
O 	O 	0.18615 0.25063 0.76103 -0.26300
O 	O 	0.65076 0.90258 0.86581 -0.39600
O 	O 	0.72201 0.90524 0.89714 -0.40300
O 	O 	0.73507 0.76375 0.97079 -0.40400
O 	O 	0.67457 0.69065 0.97147 -0.39700
O 	O 	0.35120 0.97965 0.86324 -0.40200
O 	O 	0.29007 0.97797 0.89959 -0.39600
O 	O 	0.37796 0.76759 0.96934 -0.40300
O 	O 	0.30519 0.82752 0.97016 -0.40600
O 	O 	0.52244 0.74839 0.90522 -0.26600
O 	O 	0.47907 0.81972 0.87778 -0.27600
O 	O 	0.98048 0.72909 0.82248 -0.40100
O 	O 	0.96650 0.78957 0.85820 -0.40200
O 	O 	0.73471 0.90225 0.82544 -0.39400
O 	O 	0.80433 0.91660 0.85695 -0.40200
O 	O 	0.81385 0.74937 0.76103 -0.26300
O 	O 	0.90258 0.34924 0.86581 -0.39600
O 	O 	0.90524 0.27799 0.89714 -0.40300
O 	O 	0.76375 0.26493 0.97079 -0.40400
O 	O 	0.69065 0.32543 0.97147 -0.39700
O 	O 	0.97965 0.64880 0.86324 -0.40200
O 	O 	0.97797 0.70993 0.89959 -0.39600
O 	O 	0.76759 0.62204 0.96934 -0.40200
O 	O 	0.82752 0.69481 0.97016 -0.40600
O 	O 	0.74839 0.47756 0.90522 -0.26600
O 	O 	0.81972 0.52093 0.87778 -0.27600
O 	O 	0.72909 0.01952 0.82248 -0.40100
O 	O 	0.78957 0.03350 0.85820 -0.40200
O 	O 	0.90225 0.26529 0.82544 -0.39400
O 	O 	0.91660 0.19567 0.85695 -0.40200
O 	O 	0.74937 0.18615 0.76103 -0.26300
O 	O 	0.09742 0.65076 0.86581 -0.39600
O 	O 	0.09476 0.72201 0.89714 -0.40300
O 	O 	0.23625 0.73507 0.97079 -0.40400
O 	O 	0.30935 0.67457 0.97147 -0.39700
O 	O 	0.02035 0.35120 0.86324 -0.40200
O 	O 	0.02203 0.29007 0.89959 -0.39600
O 	O 	0.23241 0.37796 0.96934 -0.40300
O 	O 	0.17248 0.30519 0.97016 -0.40600
O 	O 	0.25161 0.52244 0.90522 -0.26600
O 	O 	0.18028 0.47907 0.87778 -0.27600
O 	O 	0.27091 0.98048 0.82248 -0.40100
O 	O 	0.21043 0.96650 0.85820 -0.40200
O 	O 	0.09775 0.73471 0.82544 -0.39400
O 	O 	0.08340 0.80433 0.85695 -0.40200
O 	O 	0.25063 0.81385 0.76103 -0.26300
O 	O 	0.65076 0.09742 0.63419 -0.39600
O 	O 	0.72201 0.09476 0.60286 -0.40300
O 	O 	0.73507 0.23625 0.52921 -0.40300
O 	O 	0.67457 0.30935 0.52853 -0.39700
O 	O 	0.35120 0.02035 0.63676 -0.40200
O 	O 	0.29007 0.02203 0.60041 -0.39500
O 	O 	0.37796 0.23241 0.53066 -0.40200
O 	O 	0.30519 0.17248 0.52984 -0.40600
O 	O 	0.52244 0.25161 0.59478 -0.26600
O 	O 	0.47907 0.18028 0.62222 -0.27600
O 	O 	0.98048 0.27091 0.67752 -0.40100
O 	O 	0.96650 0.21043 0.64180 -0.40200
O 	O 	0.73471 0.09775 0.67456 -0.39400
O 	O 	0.80433 0.08340 0.64305 -0.40200
O 	O 	0.81385 0.25063 0.73897 -0.26300
O 	O 	0.34924 0.90258 0.63419 -0.39600
O 	O 	0.27799 0.90524 0.60286 -0.40300
O 	O 	0.26493 0.76375 0.52921 -0.40300
O 	O 	0.32543 0.69065 0.52853 -0.39700
O 	O 	0.64880 0.97965 0.63676 -0.40200
O 	O 	0.70993 0.97797 0.60041 -0.39500
O 	O 	0.62204 0.76759 0.53066 -0.40200
O 	O 	0.69481 0.82752 0.52984 -0.40600
O 	O 	0.47756 0.74839 0.59478 -0.26600
O 	O 	0.52093 0.81972 0.62222 -0.27600
O 	O 	0.01952 0.72909 0.67752 -0.40100
O 	O 	0.03350 0.78957 0.64180 -0.40200
O 	O 	0.26529 0.90225 0.67456 -0.39400
O 	O 	0.19567 0.91660 0.64305 -0.40200
O 	O 	0.18615 0.74937 0.73897 -0.26300
O 	O 	0.09742 0.34924 0.63419 -0.39600
O 	O 	0.09476 0.27799 0.60286 -0.40300
O 	O 	0.23625 0.26493 0.52921 -0.40300
O 	O 	0.30935 0.32543 0.52853 -0.39700
O 	O 	0.02035 0.64880 0.63676 -0.40200
O 	O 	0.02203 0.70993 0.60041 -0.39500
O 	O 	0.23241 0.62204 0.53066 -0.40200
O 	O 	0.17248 0.69481 0.52984 -0.40600
O 	O 	0.25161 0.47756 0.59478 -0.26600
O 	O 	0.18028 0.52093 0.62222 -0.27600
O 	O 	0.27091 0.01952 0.67752 -0.40100
O 	O 	0.21043 0.03350 0.64180 -0.40200
O 	O 	0.09775 0.26529 0.67456 -0.39400
O 	O 	0.08340 0.19567 0.64305 -0.40200
O 	O 	0.25063 0.18615 0.73897 -0.26300
O 	O 	0.90258 0.65076 0.63419 -0.39600
O 	O 	0.90524 0.72201 0.60286 -0.40300
O 	O 	0.76375 0.73507 0.52921 -0.40300
O 	O 	0.69065 0.67457 0.52853 -0.39700
O 	O 	0.97965 0.35120 0.63676 -0.40200
O 	O 	0.97797 0.29007 0.60041 -0.39500
O 	O 	0.76759 0.37796 0.53066 -0.40200
O 	O 	0.82752 0.30519 0.52984 -0.40600
O 	O 	0.74839 0.52244 0.59478 -0.26600
O 	O 	0.81972 0.47907 0.62222 -0.27600
O 	O 	0.72909 0.98048 0.67752 -0.40100
O 	O 	0.78957 0.96650 0.64180 -0.40200
O 	O 	0.90225 0.73471 0.67456 -0.39400
O 	O 	0.91660 0.80433 0.64305 -0.40200
O 	O 	0.74937 0.81385 0.73897 -0.26300
