data_crystal

_cell_length_a 10.25370
_cell_length_b 10.93200
_cell_length_c 13.33830
_cell_angle_alpha 90.00000
_cell_angle_beta  90.00000
_cell_angle_gamma 113.14900

_symmetry_space_group_name_	'P 1'
_symmetry_space_group_name_H-M	'P 1'

loop_
_symmetry_equiv_pos_as_xyz
  x,y,z

loop_
_atom_site_label
_atom_site_type_symbol
_atom_site_fract_x
_atom_site_fract_y
_atom_site_fract_z
_atom_site_charge
Co	Co	0.28865 0.51223 0.16323 1.13100
Co	Co	0.21135 0.98777 0.66323 1.13100
Co	Co	0.71135 0.48777 0.83677 1.13100
Co	Co	0.78865 0.01223 0.33677 1.13100
H 	H 	0.15520 0.68460 0.41760 0.05500
H 	H 	0.99160 0.31560 0.11930 0.00100
H 	H 	0.87070 0.10870 0.05690 0.08900
H 	H 	0.23900 0.08320 0.99750 0.09800
H 	H 	0.35080 0.29550 0.05370 -0.02600
H 	H 	0.34480 0.81540 0.91760 0.05600
H 	H 	0.50840 0.18440 0.61930 0.00600
H 	H 	0.62930 0.39130 0.55690 0.08600
H 	H 	0.26100 0.41680 0.49750 0.09600
H 	H 	0.14920 0.20450 0.55370 -0.02400
H 	H 	0.84480 0.31540 0.58240 0.05500
H 	H 	0.00840 0.68440 0.88070 0.00100
H 	H 	0.12930 0.89130 0.94310 0.08900
H 	H 	0.76100 0.91680 0.00250 0.09800
H 	H 	0.64920 0.70450 0.94630 -0.02600
H 	H 	0.65520 0.18460 0.08240 0.05600
H 	H 	0.49160 0.81560 0.38070 0.00600
H 	H 	0.37070 0.60870 0.44310 0.08600
H 	H 	0.73900 0.58320 0.50250 0.09600
H 	H 	0.85080 0.79550 0.44630 -0.02400
C 	C 	0.11760 0.48110 0.30430 0.31000
C 	C 	0.04780 0.48800 0.40323 -0.04300
C 	C 	0.95240 0.37570 0.45331 -0.04600
C 	C 	0.89450 0.24130 0.40430 0.29800
C 	C 	0.09260 0.60970 0.45085 -0.01900
C 	C 	0.04280 0.26900 0.09340 0.09500
C 	C 	0.96930 0.14360 0.05650 -0.16000
C 	C 	0.03860 0.06840 0.01910 0.06900
C 	C 	0.18550 0.12910 0.02060 -0.15200
C 	C 	0.25220 0.25660 0.05620 0.09200
C 	C 	0.38240 0.01890 0.80430 0.31100
C 	C 	0.45220 0.01200 0.90323 -0.04200
C 	C 	0.54760 0.12430 0.95331 -0.04500
C 	C 	0.60550 0.25870 0.90430 0.29800
C 	C 	0.40740 0.89030 0.95085 -0.02200
C 	C 	0.45720 0.23100 0.59340 0.08400
C 	C 	0.53070 0.35640 0.55650 -0.14800
C 	C 	0.46140 0.43160 0.51910 0.06300
C 	C 	0.31450 0.37090 0.52060 -0.14700
C 	C 	0.24780 0.24340 0.55620 0.08900
C 	C 	0.88240 0.51890 0.69570 0.31000
C 	C 	0.95220 0.51200 0.59677 -0.04300
C 	C 	0.04760 0.62430 0.54669 -0.04600
C 	C 	0.10550 0.75870 0.59570 0.29800
C 	C 	0.90740 0.39030 0.54915 -0.01900
C 	C 	0.95720 0.73100 0.90660 0.09500
C 	C 	0.03070 0.85640 0.94350 -0.16000
C 	C 	0.96140 0.93160 0.98090 0.06900
C 	C 	0.81450 0.87090 0.97940 -0.15200
C 	C 	0.74780 0.74340 0.94380 0.09200
C 	C 	0.61760 0.98110 0.19570 0.31100
C 	C 	0.54780 0.98800 0.09677 -0.04200
C 	C 	0.45240 0.87570 0.04669 -0.04500
C 	C 	0.39450 0.74130 0.09570 0.29800
C 	C 	0.59260 0.10970 0.04915 -0.02200
C 	C 	0.54280 0.76900 0.40660 0.08400
C 	C 	0.46930 0.64360 0.44350 -0.14800
C 	C 	0.53860 0.56840 0.48090 0.06300
C 	C 	0.68550 0.62910 0.47940 -0.14700
C 	C 	0.75220 0.75660 0.44380 0.08900
N 	N 	0.18420 0.32800 0.09397 -0.25700
N 	N 	0.31580 0.17200 0.59397 -0.25400
N 	N 	0.81580 0.67200 0.90603 -0.25700
N 	N 	0.68420 0.82800 0.40603 -0.25400
O 	O 	0.20929 0.43199 0.30630 -0.40200
O 	O 	0.09651 0.53491 0.22746 -0.35600
O 	O 	0.89803 0.23163 0.31097 -0.36600
O 	O 	0.84095 0.13975 0.45840 -0.41300
O 	O 	0.29071 0.06801 0.80630 -0.40100
O 	O 	0.40349 0.96509 0.72746 -0.35600
O 	O 	0.60197 0.26837 0.81097 -0.36600
O 	O 	0.65905 0.36025 0.95840 -0.41300
O 	O 	0.79071 0.56801 0.69370 -0.40200
O 	O 	0.90349 0.46509 0.77254 -0.35600
O 	O 	0.10197 0.76837 0.68903 -0.36600
O 	O 	0.15905 0.86025 0.54160 -0.41300
O 	O 	0.70929 0.93199 0.19370 -0.40100
O 	O 	0.59651 0.03491 0.27254 -0.35600
O 	O 	0.39803 0.73163 0.18903 -0.36600
O 	O 	0.34095 0.63975 0.04160 -0.41300
