data_crystal

_cell_length_a 36.12260
_cell_length_b 36.12260
_cell_length_c 36.12260
_cell_angle_alpha 90.00000
_cell_angle_beta  90.00000
_cell_angle_gamma 90.00000

_symmetry_space_group_name_	'P 1'
_symmetry_space_group_name_H-M	'P 1'

loop_
_symmetry_equiv_pos_as_xyz
  x,y,z

loop_
_atom_site_label
_atom_site_type_symbol
_atom_site_fract_x
_atom_site_fract_y
_atom_site_fract_z
_atom_site_charge
O 	O 	0.28804 0.20640 0.19520 -0.45200
O 	O 	0.25310 0.25060 0.16977 -0.43000
C 	C 	0.28600 0.16570 0.13110 0.05100
H 	H 	0.29690 0.15570 0.15280 0.02500
C 	C 	0.25600 0.21510 0.10040 0.05300
H 	H 	0.24570 0.23920 0.10060 0.02400
C 	C 	0.28600 0.14600 0.09980 -0.10900
H 	H 	0.29690 0.12210 0.09970 0.06400
C 	C 	0.27160 0.13750 0.03230 0.07800
C 	C 	0.27020 0.15970 0.06700 0.04300
C 	C 	0.27010 0.20060 0.13180 -0.12900
C 	C 	0.27120 0.10010 0.03330 -0.13600
H 	H 	0.27100 0.08740 0.05630 0.07200
C 	C 	0.25650 0.19460 0.06760 -0.10600
H 	H 	0.24700 0.20520 0.04550 0.07300
C 	C 	0.27090 0.22050 0.16890 0.40000
C 	C 	0.25310 0.01980 0.97270 -0.03400
H 	H 	0.23980 0.03250 0.95380 0.03800
C 	C 	0.28950 0.01940 0.97340 -0.03200
H 	H 	0.30210 0.03170 0.95400 0.03700
O 	O 	0.71196 0.79360 0.19520 -0.45300
O 	O 	0.74690 0.74940 0.16977 -0.43100
C 	C 	0.71400 0.83430 0.13110 0.05100
H 	H 	0.70310 0.84430 0.15280 0.02500
C 	C 	0.74400 0.78490 0.10040 0.05300
H 	H 	0.75430 0.76080 0.10060 0.02400
C 	C 	0.71400 0.85400 0.09980 -0.10900
H 	H 	0.70310 0.87790 0.09970 0.06400
C 	C 	0.72840 0.86250 0.03230 0.07800
C 	C 	0.72980 0.84030 0.06700 0.04300
C 	C 	0.72990 0.79940 0.13180 -0.12900
C 	C 	0.72880 0.89990 0.03330 -0.13500
H 	H 	0.72900 0.91260 0.05630 0.07200
C 	C 	0.74350 0.80540 0.06760 -0.10600
H 	H 	0.75300 0.79480 0.04550 0.07300
C 	C 	0.72910 0.77950 0.16890 0.40000
C 	C 	0.74690 0.98020 0.97270 -0.03500
H 	H 	0.76020 0.96750 0.95380 0.03800
C 	C 	0.71050 0.98060 0.97340 -0.03400
H 	H 	0.69790 0.96830 0.95400 0.03700
O 	O 	0.71196 0.20640 0.80480 -0.45300
O 	O 	0.74690 0.25060 0.83023 -0.43100
C 	C 	0.71400 0.16570 0.86890 0.05100
H 	H 	0.70310 0.15570 0.84720 0.02500
C 	C 	0.74400 0.21510 0.89960 0.05200
H 	H 	0.75430 0.23920 0.89940 0.02400
C 	C 	0.71400 0.14600 0.90020 -0.10900
H 	H 	0.70310 0.12210 0.90030 0.06400
C 	C 	0.72840 0.13750 0.96770 0.07800
C 	C 	0.72980 0.15970 0.93300 0.04300
C 	C 	0.72990 0.20060 0.86820 -0.12900
C 	C 	0.72880 0.10010 0.96670 -0.13600
H 	H 	0.72900 0.08740 0.94370 0.07200
C 	C 	0.74350 0.19460 0.93240 -0.10600
H 	H 	0.75300 0.20520 0.95450 0.07300
C 	C 	0.72910 0.22050 0.83110 0.40000
C 	C 	0.74690 0.01980 0.02730 -0.03400
H 	H 	0.76020 0.03250 0.04620 0.03800
C 	C 	0.71050 0.01940 0.02660 -0.03100
H 	H 	0.69790 0.03170 0.04600 0.03700
O 	O 	0.28804 0.79360 0.80480 -0.45300
O 	O 	0.25310 0.74940 0.83023 -0.43100
C 	C 	0.28600 0.83430 0.86890 0.05100
H 	H 	0.29690 0.84430 0.84720 0.02500
C 	C 	0.25600 0.78490 0.89960 0.05300
H 	H 	0.24570 0.76080 0.89940 0.02400
C 	C 	0.28600 0.85400 0.90020 -0.10900
H 	H 	0.29690 0.87790 0.90030 0.06400
C 	C 	0.27160 0.86250 0.96770 0.07700
C 	C 	0.27020 0.84030 0.93300 0.04300
C 	C 	0.27010 0.79940 0.86820 -0.12900
C 	C 	0.27120 0.89990 0.96670 -0.13600
H 	H 	0.27100 0.91260 0.94370 0.07200
C 	C 	0.25650 0.80540 0.93240 -0.10600
H 	H 	0.24700 0.79480 0.95450 0.07300
C 	C 	0.27090 0.77950 0.83110 0.40000
C 	C 	0.25310 0.98020 0.02730 -0.03500
H 	H 	0.23980 0.96750 0.04620 0.03800
C 	C 	0.28950 0.98060 0.02660 -0.03300
H 	H 	0.30210 0.96830 0.04600 0.03700
O 	O 	0.19520 0.28804 0.20640 -0.45300
O 	O 	0.16977 0.25310 0.25060 -0.43100
C 	C 	0.13110 0.28600 0.16570 0.05100
H 	H 	0.15280 0.29690 0.15570 0.02500
C 	C 	0.10040 0.25600 0.21510 0.05300
H 	H 	0.10060 0.24570 0.23920 0.02400
C 	C 	0.09980 0.28600 0.14600 -0.10900
H 	H 	0.09970 0.29690 0.12210 0.06400
C 	C 	0.03230 0.27160 0.13750 0.07800
C 	C 	0.06700 0.27020 0.15970 0.04300
C 	C 	0.13180 0.27010 0.20060 -0.12900
C 	C 	0.03330 0.27120 0.10010 -0.13600
H 	H 	0.05630 0.27100 0.08740 0.07200
C 	C 	0.06760 0.25650 0.19460 -0.10600
H 	H 	0.04550 0.24700 0.20520 0.07300
C 	C 	0.16890 0.27090 0.22050 0.40000
C 	C 	0.97270 0.25310 0.01980 -0.03400
H 	H 	0.95380 0.23980 0.03250 0.03800
C 	C 	0.97340 0.28950 0.01940 -0.03200
H 	H 	0.95400 0.30210 0.03170 0.03700
O 	O 	0.19520 0.71196 0.79360 -0.45300
O 	O 	0.16977 0.74690 0.74940 -0.43100
C 	C 	0.13110 0.71400 0.83430 0.05100
H 	H 	0.15280 0.70310 0.84430 0.02500
C 	C 	0.10040 0.74400 0.78490 0.05300
H 	H 	0.10060 0.75430 0.76080 0.02400
C 	C 	0.09980 0.71400 0.85400 -0.10900
H 	H 	0.09970 0.70310 0.87790 0.06400
C 	C 	0.03230 0.72840 0.86250 0.07800
C 	C 	0.06700 0.72980 0.84030 0.04300
C 	C 	0.13180 0.72990 0.79940 -0.12900
C 	C 	0.03330 0.72880 0.89990 -0.13500
H 	H 	0.05630 0.72900 0.91260 0.07200
C 	C 	0.06760 0.74350 0.80540 -0.10600
H 	H 	0.04550 0.75300 0.79480 0.07300
C 	C 	0.16890 0.72910 0.77950 0.40000
C 	C 	0.97270 0.74690 0.98020 -0.03500
H 	H 	0.95380 0.76020 0.96750 0.03800
C 	C 	0.97340 0.71050 0.98060 -0.03400
H 	H 	0.95400 0.69790 0.96830 0.03700
O 	O 	0.80480 0.71196 0.20640 -0.45300
O 	O 	0.83023 0.74690 0.25060 -0.43100
C 	C 	0.86890 0.71400 0.16570 0.05100
H 	H 	0.84720 0.70310 0.15570 0.02500
C 	C 	0.89960 0.74400 0.21510 0.05200
H 	H 	0.89940 0.75430 0.23920 0.02400
C 	C 	0.90020 0.71400 0.14600 -0.10900
H 	H 	0.90030 0.70310 0.12210 0.06400
C 	C 	0.96770 0.72840 0.13750 0.07800
C 	C 	0.93300 0.72980 0.15970 0.04300
C 	C 	0.86820 0.72990 0.20060 -0.12900
C 	C 	0.96670 0.72880 0.10010 -0.13600
H 	H 	0.94370 0.72900 0.08740 0.07200
C 	C 	0.93240 0.74350 0.19460 -0.10600
H 	H 	0.95450 0.75300 0.20520 0.07300
C 	C 	0.83110 0.72910 0.22050 0.40000
C 	C 	0.02730 0.74690 0.01980 -0.03400
H 	H 	0.04620 0.76020 0.03250 0.03800
C 	C 	0.02660 0.71050 0.01940 -0.03100
H 	H 	0.04600 0.69790 0.03170 0.03700
O 	O 	0.80480 0.28804 0.79360 -0.45300
O 	O 	0.83023 0.25310 0.74940 -0.43100
C 	C 	0.86890 0.28600 0.83430 0.05100
H 	H 	0.84720 0.29690 0.84430 0.02500
C 	C 	0.89960 0.25600 0.78490 0.05300
H 	H 	0.89940 0.24570 0.76080 0.02400
C 	C 	0.90020 0.28600 0.85400 -0.10900
H 	H 	0.90030 0.29690 0.87790 0.06400
C 	C 	0.96770 0.27160 0.86250 0.07700
C 	C 	0.93300 0.27020 0.84030 0.04300
C 	C 	0.86820 0.27010 0.79940 -0.12900
C 	C 	0.96670 0.27120 0.89990 -0.13600
H 	H 	0.94370 0.27100 0.91260 0.07200
C 	C 	0.93240 0.25650 0.80540 -0.10600
H 	H 	0.95450 0.24700 0.79480 0.07300
C 	C 	0.83110 0.27090 0.77950 0.40000
C 	C 	0.02730 0.25310 0.98020 -0.03500
H 	H 	0.04620 0.23980 0.96750 0.03800
C 	C 	0.02660 0.28950 0.98060 -0.03300
H 	H 	0.04600 0.30210 0.96830 0.03700
O 	O 	0.20640 0.19520 0.28804 -0.45300
O 	O 	0.25060 0.16977 0.25310 -0.43100
C 	C 	0.16570 0.13110 0.28600 0.05100
H 	H 	0.15570 0.15280 0.29690 0.02500
C 	C 	0.21510 0.10040 0.25600 0.05300
H 	H 	0.23920 0.10060 0.24570 0.02400
C 	C 	0.14600 0.09980 0.28600 -0.10900
H 	H 	0.12210 0.09970 0.29690 0.06400
C 	C 	0.13750 0.03230 0.27160 0.07800
C 	C 	0.15970 0.06700 0.27020 0.04300
C 	C 	0.20060 0.13180 0.27010 -0.12900
C 	C 	0.10010 0.03330 0.27120 -0.13600
H 	H 	0.08740 0.05630 0.27100 0.07200
C 	C 	0.19460 0.06760 0.25650 -0.10600
H 	H 	0.20520 0.04550 0.24700 0.07300
C 	C 	0.22050 0.16890 0.27090 0.40000
C 	C 	0.01980 0.97270 0.25310 -0.03400
H 	H 	0.03250 0.95380 0.23980 0.03800
C 	C 	0.01940 0.97340 0.28950 -0.03200
H 	H 	0.03170 0.95400 0.30210 0.03700
O 	O 	0.79360 0.19520 0.71196 -0.45300
O 	O 	0.74940 0.16977 0.74690 -0.43100
C 	C 	0.83430 0.13110 0.71400 0.05100
H 	H 	0.84430 0.15280 0.70310 0.02500
C 	C 	0.78490 0.10040 0.74400 0.05300
H 	H 	0.76080 0.10060 0.75430 0.02400
C 	C 	0.85400 0.09980 0.71400 -0.10900
H 	H 	0.87790 0.09970 0.70310 0.06400
C 	C 	0.86250 0.03230 0.72840 0.07800
C 	C 	0.84030 0.06700 0.72980 0.04300
C 	C 	0.79940 0.13180 0.72990 -0.12900
C 	C 	0.89990 0.03330 0.72880 -0.13500
H 	H 	0.91260 0.05630 0.72900 0.07200
C 	C 	0.80540 0.06760 0.74350 -0.10600
H 	H 	0.79480 0.04550 0.75300 0.07300
C 	C 	0.77950 0.16890 0.72910 0.40000
C 	C 	0.98020 0.97270 0.74690 -0.03500
H 	H 	0.96750 0.95380 0.76020 0.03800
C 	C 	0.98060 0.97340 0.71050 -0.03400
H 	H 	0.96830 0.95400 0.69790 0.03700
O 	O 	0.20640 0.80480 0.71196 -0.45300
O 	O 	0.25060 0.83023 0.74690 -0.43100
C 	C 	0.16570 0.86890 0.71400 0.05100
H 	H 	0.15570 0.84720 0.70310 0.02500
C 	C 	0.21510 0.89960 0.74400 0.05200
H 	H 	0.23920 0.89940 0.75430 0.02400
C 	C 	0.14600 0.90020 0.71400 -0.10900
H 	H 	0.12210 0.90030 0.70310 0.06400
C 	C 	0.13750 0.96770 0.72840 0.07800
C 	C 	0.15970 0.93300 0.72980 0.04300
C 	C 	0.20060 0.86820 0.72990 -0.12900
C 	C 	0.10010 0.96670 0.72880 -0.13600
H 	H 	0.08740 0.94370 0.72900 0.07200
C 	C 	0.19460 0.93240 0.74350 -0.10600
H 	H 	0.20520 0.95450 0.75300 0.07300
C 	C 	0.22050 0.83110 0.72910 0.40000
C 	C 	0.01980 0.02730 0.74690 -0.03400
H 	H 	0.03250 0.04620 0.76020 0.03800
C 	C 	0.01940 0.02660 0.71050 -0.03100
H 	H 	0.03170 0.04600 0.69790 0.03700
O 	O 	0.79360 0.80480 0.28804 -0.45300
O 	O 	0.74940 0.83023 0.25310 -0.43100
C 	C 	0.83430 0.86890 0.28600 0.05100
H 	H 	0.84430 0.84720 0.29690 0.02500
C 	C 	0.78490 0.89960 0.25600 0.05300
H 	H 	0.76080 0.89940 0.24570 0.02400
C 	C 	0.85400 0.90020 0.28600 -0.10900
H 	H 	0.87790 0.90030 0.29690 0.06400
C 	C 	0.86250 0.96770 0.27160 0.07700
C 	C 	0.84030 0.93300 0.27020 0.04300
C 	C 	0.79940 0.86820 0.27010 -0.12900
C 	C 	0.89990 0.96670 0.27120 -0.13600
H 	H 	0.91260 0.94370 0.27100 0.07200
C 	C 	0.80540 0.93240 0.25650 -0.10600
H 	H 	0.79480 0.95450 0.24700 0.07300
C 	C 	0.77950 0.83110 0.27090 0.40000
C 	C 	0.98020 0.02730 0.25310 -0.03500
H 	H 	0.96750 0.04620 0.23980 0.03800
C 	C 	0.98060 0.02660 0.28950 -0.03300
H 	H 	0.96830 0.04600 0.30210 0.03700
O 	O 	0.70640 0.78804 0.30480 -0.45300
O 	O 	0.75060 0.75310 0.33023 -0.43100
C 	C 	0.66570 0.78600 0.36890 0.05100
H 	H 	0.65570 0.79690 0.34720 0.02500
C 	C 	0.71510 0.75600 0.39960 0.05300
H 	H 	0.73920 0.74570 0.39940 0.02400
C 	C 	0.64600 0.78600 0.40020 -0.10900
H 	H 	0.62210 0.79690 0.40030 0.06400
C 	C 	0.63750 0.77160 0.46770 0.07800
C 	C 	0.65970 0.77020 0.43300 0.04300
C 	C 	0.70060 0.77010 0.36820 -0.12900
C 	C 	0.60010 0.77120 0.46670 -0.13600
H 	H 	0.58740 0.77100 0.44370 0.07200
C 	C 	0.69460 0.75650 0.43240 -0.10600
H 	H 	0.70520 0.74700 0.45450 0.07300
C 	C 	0.72050 0.77090 0.33110 0.40000
C 	C 	0.51980 0.75310 0.52730 -0.03400
H 	H 	0.53250 0.73980 0.54620 0.03800
C 	C 	0.51940 0.78950 0.52660 -0.03200
H 	H 	0.53170 0.80210 0.54600 0.03700
O 	O 	0.29360 0.21196 0.30480 -0.45300
O 	O 	0.24940 0.24690 0.33023 -0.43100
C 	C 	0.33430 0.21400 0.36890 0.05100
H 	H 	0.34430 0.20310 0.34720 0.02500
C 	C 	0.28490 0.24400 0.39960 0.05300
H 	H 	0.26080 0.25430 0.39940 0.02400
C 	C 	0.35400 0.21400 0.40020 -0.10900
H 	H 	0.37790 0.20310 0.40030 0.06400
C 	C 	0.36250 0.22840 0.46770 0.07800
C 	C 	0.34030 0.22980 0.43300 0.04300
C 	C 	0.29940 0.22990 0.36820 -0.12900
C 	C 	0.39990 0.22880 0.46670 -0.13600
H 	H 	0.41260 0.22900 0.44370 0.07200
C 	C 	0.30540 0.24350 0.43240 -0.10600
H 	H 	0.29480 0.25300 0.45450 0.07300
C 	C 	0.27950 0.22910 0.33110 0.40000
C 	C 	0.48020 0.24690 0.52730 -0.03400
H 	H 	0.46750 0.26020 0.54620 0.03800
C 	C 	0.48060 0.21050 0.52660 -0.03200
H 	H 	0.46830 0.19790 0.54600 0.03700
O 	O 	0.70640 0.21196 0.69520 -0.45300
O 	O 	0.75060 0.24690 0.66977 -0.43100
C 	C 	0.66570 0.21400 0.63110 0.05100
H 	H 	0.65570 0.20310 0.65280 0.02500
C 	C 	0.71510 0.24400 0.60040 0.05300
H 	H 	0.73920 0.25430 0.60060 0.02400
C 	C 	0.64600 0.21400 0.59980 -0.10900
H 	H 	0.62210 0.20310 0.59970 0.06400
C 	C 	0.63750 0.22840 0.53230 0.07800
C 	C 	0.65970 0.22980 0.56700 0.04300
C 	C 	0.70060 0.22990 0.63180 -0.12900
C 	C 	0.60010 0.22880 0.53330 -0.13600
H 	H 	0.58740 0.22900 0.55630 0.07200
C 	C 	0.69460 0.24350 0.56760 -0.10600
H 	H 	0.70520 0.25300 0.54550 0.07300
C 	C 	0.72050 0.22910 0.66890 0.40000
C 	C 	0.51980 0.24690 0.47270 -0.03400
H 	H 	0.53250 0.26020 0.45380 0.03800
C 	C 	0.51940 0.21050 0.47340 -0.03200
H 	H 	0.53170 0.19790 0.45400 0.03700
O 	O 	0.29360 0.78804 0.69520 -0.45300
O 	O 	0.24940 0.75310 0.66977 -0.43100
C 	C 	0.33430 0.78600 0.63110 0.05100
H 	H 	0.34430 0.79690 0.65280 0.02500
C 	C 	0.28490 0.75600 0.60040 0.05300
H 	H 	0.26080 0.74570 0.60060 0.02400
C 	C 	0.35400 0.78600 0.59980 -0.10900
H 	H 	0.37790 0.79690 0.59970 0.06400
C 	C 	0.36250 0.77160 0.53230 0.07800
C 	C 	0.34030 0.77020 0.56700 0.04300
C 	C 	0.29940 0.77010 0.63180 -0.12900
C 	C 	0.39990 0.77120 0.53330 -0.13600
H 	H 	0.41260 0.77100 0.55630 0.07200
C 	C 	0.30540 0.75650 0.56760 -0.10600
H 	H 	0.29480 0.74700 0.54550 0.07300
C 	C 	0.27950 0.77090 0.66890 0.40000
C 	C 	0.48020 0.75310 0.47270 -0.03400
H 	H 	0.46750 0.73980 0.45380 0.03800
C 	C 	0.48060 0.78950 0.47340 -0.03200
H 	H 	0.46830 0.80210 0.45400 0.03700
O 	O 	0.78804 0.69520 0.29360 -0.45300
O 	O 	0.75310 0.66977 0.24940 -0.43100
C 	C 	0.78600 0.63110 0.33430 0.05100
H 	H 	0.79690 0.65280 0.34430 0.02500
C 	C 	0.75600 0.60040 0.28490 0.05300
H 	H 	0.74570 0.60060 0.26080 0.02400
C 	C 	0.78600 0.59980 0.35400 -0.10900
H 	H 	0.79690 0.59970 0.37790 0.06400
C 	C 	0.77160 0.53230 0.36250 0.07800
C 	C 	0.77020 0.56700 0.34030 0.04300
C 	C 	0.77010 0.63180 0.29940 -0.12900
C 	C 	0.77120 0.53330 0.39990 -0.13600
H 	H 	0.77100 0.55630 0.41260 0.07200
C 	C 	0.75650 0.56760 0.30540 -0.10600
H 	H 	0.74700 0.54550 0.29480 0.07300
C 	C 	0.77090 0.66890 0.27950 0.40000
C 	C 	0.75310 0.47270 0.48020 -0.03400
H 	H 	0.73980 0.45380 0.46750 0.03800
C 	C 	0.78950 0.47340 0.48060 -0.03200
H 	H 	0.80210 0.45400 0.46830 0.03700
O 	O 	0.21196 0.69520 0.70640 -0.45300
O 	O 	0.24690 0.66977 0.75060 -0.43100
C 	C 	0.21400 0.63110 0.66570 0.05100
H 	H 	0.20310 0.65280 0.65570 0.02500
C 	C 	0.24400 0.60040 0.71510 0.05300
H 	H 	0.25430 0.60060 0.73920 0.02400
C 	C 	0.21400 0.59980 0.64600 -0.10900
H 	H 	0.20310 0.59970 0.62210 0.06400
C 	C 	0.22840 0.53230 0.63750 0.07800
C 	C 	0.22980 0.56700 0.65970 0.04300
C 	C 	0.22990 0.63180 0.70060 -0.12900
C 	C 	0.22880 0.53330 0.60010 -0.13600
H 	H 	0.22900 0.55630 0.58740 0.07200
C 	C 	0.24350 0.56760 0.69460 -0.10600
H 	H 	0.25300 0.54550 0.70520 0.07300
C 	C 	0.22910 0.66890 0.72050 0.40000
C 	C 	0.24690 0.47270 0.51980 -0.03400
H 	H 	0.26020 0.45380 0.53250 0.03800
C 	C 	0.21050 0.47340 0.51940 -0.03200
H 	H 	0.19790 0.45400 0.53170 0.03700
O 	O 	0.21196 0.30480 0.29360 -0.45300
O 	O 	0.24690 0.33023 0.24940 -0.43100
C 	C 	0.21400 0.36890 0.33430 0.05100
H 	H 	0.20310 0.34720 0.34430 0.02500
C 	C 	0.24400 0.39960 0.28490 0.05300
H 	H 	0.25430 0.39940 0.26080 0.02400
C 	C 	0.21400 0.40020 0.35400 -0.10900
H 	H 	0.20310 0.40030 0.37790 0.06400
C 	C 	0.22840 0.46770 0.36250 0.07800
C 	C 	0.22980 0.43300 0.34030 0.04300
C 	C 	0.22990 0.36820 0.29940 -0.12900
C 	C 	0.22880 0.46670 0.39990 -0.13600
H 	H 	0.22900 0.44370 0.41260 0.07200
C 	C 	0.24350 0.43240 0.30540 -0.10600
H 	H 	0.25300 0.45450 0.29480 0.07300
C 	C 	0.22910 0.33110 0.27950 0.40000
C 	C 	0.24690 0.52730 0.48020 -0.03400
H 	H 	0.26020 0.54620 0.46750 0.03800
C 	C 	0.21050 0.52660 0.48060 -0.03200
H 	H 	0.19790 0.54600 0.46830 0.03700
O 	O 	0.78804 0.30480 0.70640 -0.45300
O 	O 	0.75310 0.33023 0.75060 -0.43100
C 	C 	0.78600 0.36890 0.66570 0.05100
H 	H 	0.79690 0.34720 0.65570 0.02500
C 	C 	0.75600 0.39960 0.71510 0.05300
H 	H 	0.74570 0.39940 0.73920 0.02400
C 	C 	0.78600 0.40020 0.64600 -0.10900
H 	H 	0.79690 0.40030 0.62210 0.06400
C 	C 	0.77160 0.46770 0.63750 0.07800
C 	C 	0.77020 0.43300 0.65970 0.04300
C 	C 	0.77010 0.36820 0.70060 -0.12900
C 	C 	0.77120 0.46670 0.60010 -0.13600
H 	H 	0.77100 0.44370 0.58740 0.07200
C 	C 	0.75650 0.43240 0.69460 -0.10600
H 	H 	0.74700 0.45450 0.70520 0.07300
C 	C 	0.77090 0.33110 0.72050 0.40000
C 	C 	0.75310 0.52730 0.51980 -0.03400
H 	H 	0.73980 0.54620 0.53250 0.03800
C 	C 	0.78950 0.52660 0.51940 -0.03200
H 	H 	0.80210 0.54600 0.53170 0.03700
O 	O 	0.69520 0.70640 0.21196 -0.45300
O 	O 	0.66977 0.75060 0.24690 -0.43100
C 	C 	0.63110 0.66570 0.21400 0.05100
H 	H 	0.65280 0.65570 0.20310 0.02500
C 	C 	0.60040 0.71510 0.24400 0.05300
H 	H 	0.60060 0.73920 0.25430 0.02400
C 	C 	0.59980 0.64600 0.21400 -0.10900
H 	H 	0.59970 0.62210 0.20310 0.06400
C 	C 	0.53230 0.63750 0.22840 0.07800
C 	C 	0.56700 0.65970 0.22980 0.04300
C 	C 	0.63180 0.70060 0.22990 -0.12900
C 	C 	0.53330 0.60010 0.22880 -0.13600
H 	H 	0.55630 0.58740 0.22900 0.07200
C 	C 	0.56760 0.69460 0.24350 -0.10600
H 	H 	0.54550 0.70520 0.25300 0.07300
C 	C 	0.66890 0.72050 0.22910 0.40000
C 	C 	0.47270 0.51980 0.24690 -0.03400
H 	H 	0.45380 0.53250 0.26020 0.03800
C 	C 	0.47340 0.51940 0.21050 -0.03200
H 	H 	0.45400 0.53170 0.19790 0.03700
O 	O 	0.69520 0.29360 0.78804 -0.45300
O 	O 	0.66977 0.24940 0.75310 -0.43100
C 	C 	0.63110 0.33430 0.78600 0.05100
H 	H 	0.65280 0.34430 0.79690 0.02500
C 	C 	0.60040 0.28490 0.75600 0.05300
H 	H 	0.60060 0.26080 0.74570 0.02400
C 	C 	0.59980 0.35400 0.78600 -0.10900
H 	H 	0.59970 0.37790 0.79690 0.06400
C 	C 	0.53230 0.36250 0.77160 0.07800
C 	C 	0.56700 0.34030 0.77020 0.04300
C 	C 	0.63180 0.29940 0.77010 -0.12900
C 	C 	0.53330 0.39990 0.77120 -0.13600
H 	H 	0.55630 0.41260 0.77100 0.07200
C 	C 	0.56760 0.30540 0.75650 -0.10600
H 	H 	0.54550 0.29480 0.74700 0.07300
C 	C 	0.66890 0.27950 0.77090 0.40000
C 	C 	0.47270 0.48020 0.75310 -0.03400
H 	H 	0.45380 0.46750 0.73980 0.03800
C 	C 	0.47340 0.48060 0.78950 -0.03200
H 	H 	0.45400 0.46830 0.80210 0.03700
O 	O 	0.30480 0.70640 0.78804 -0.45300
O 	O 	0.33023 0.75060 0.75310 -0.43100
C 	C 	0.36890 0.66570 0.78600 0.05100
H 	H 	0.34720 0.65570 0.79690 0.02500
C 	C 	0.39960 0.71510 0.75600 0.05300
H 	H 	0.39940 0.73920 0.74570 0.02400
C 	C 	0.40020 0.64600 0.78600 -0.10900
H 	H 	0.40030 0.62210 0.79690 0.06400
C 	C 	0.46770 0.63750 0.77160 0.07800
C 	C 	0.43300 0.65970 0.77020 0.04300
C 	C 	0.36820 0.70060 0.77010 -0.12900
C 	C 	0.46670 0.60010 0.77120 -0.13600
H 	H 	0.44370 0.58740 0.77100 0.07200
C 	C 	0.43240 0.69460 0.75650 -0.10600
H 	H 	0.45450 0.70520 0.74700 0.07300
C 	C 	0.33110 0.72050 0.77090 0.40000
C 	C 	0.52730 0.51980 0.75310 -0.03400
H 	H 	0.54620 0.53250 0.73980 0.03800
C 	C 	0.52660 0.51940 0.78950 -0.03200
H 	H 	0.54600 0.53170 0.80210 0.03700
O 	O 	0.30480 0.29360 0.21196 -0.45300
O 	O 	0.33023 0.24940 0.24690 -0.43100
C 	C 	0.36890 0.33430 0.21400 0.05100
H 	H 	0.34720 0.34430 0.20310 0.02500
C 	C 	0.39960 0.28490 0.24400 0.05300
H 	H 	0.39940 0.26080 0.25430 0.02400
C 	C 	0.40020 0.35400 0.21400 -0.10900
H 	H 	0.40030 0.37790 0.20310 0.06400
C 	C 	0.46770 0.36250 0.22840 0.07800
C 	C 	0.43300 0.34030 0.22980 0.04300
C 	C 	0.36820 0.29940 0.22990 -0.12900
C 	C 	0.46670 0.39990 0.22880 -0.13600
H 	H 	0.44370 0.41260 0.22900 0.07200
C 	C 	0.43240 0.30540 0.24350 -0.10600
H 	H 	0.45450 0.29480 0.25300 0.07300
C 	C 	0.33110 0.27950 0.22910 0.40000
C 	C 	0.52730 0.48020 0.24690 -0.03400
H 	H 	0.54620 0.46750 0.26020 0.03800
C 	C 	0.52660 0.48060 0.21050 -0.03200
H 	H 	0.54600 0.46830 0.19790 0.03700
O 	O 	0.71196 0.79360 0.80480 -0.45300
O 	O 	0.74690 0.74940 0.83023 -0.43100
C 	C 	0.71400 0.83430 0.86890 0.05100
H 	H 	0.70310 0.84430 0.84720 0.02500
C 	C 	0.74400 0.78490 0.89960 0.05300
H 	H 	0.75430 0.76080 0.89940 0.02400
C 	C 	0.71400 0.85400 0.90020 -0.10900
H 	H 	0.70310 0.87790 0.90030 0.06400
C 	C 	0.72840 0.86250 0.96770 0.07700
C 	C 	0.72980 0.84030 0.93300 0.04300
C 	C 	0.72990 0.79940 0.86820 -0.12900
C 	C 	0.72880 0.89990 0.96670 -0.13600
H 	H 	0.72900 0.91260 0.94370 0.07200
C 	C 	0.74350 0.80540 0.93240 -0.10600
H 	H 	0.75300 0.79480 0.95450 0.07300
C 	C 	0.72910 0.77950 0.83110 0.40000
C 	C 	0.74690 0.98020 0.02730 -0.03500
H 	H 	0.76020 0.96750 0.04620 0.03800
C 	C 	0.71050 0.98060 0.02660 -0.03300
H 	H 	0.69790 0.96830 0.04600 0.03700
O 	O 	0.28804 0.20640 0.80480 -0.45300
O 	O 	0.25310 0.25060 0.83023 -0.43100
C 	C 	0.28600 0.16570 0.86890 0.05100
H 	H 	0.29690 0.15570 0.84720 0.02500
C 	C 	0.25600 0.21510 0.89960 0.05200
H 	H 	0.24570 0.23920 0.89940 0.02400
C 	C 	0.28600 0.14600 0.90020 -0.10900
H 	H 	0.29690 0.12210 0.90030 0.06400
C 	C 	0.27160 0.13750 0.96770 0.07800
C 	C 	0.27020 0.15970 0.93300 0.04300
C 	C 	0.27010 0.20060 0.86820 -0.12900
C 	C 	0.27120 0.10010 0.96670 -0.13600
H 	H 	0.27100 0.08740 0.94370 0.07200
C 	C 	0.25650 0.19460 0.93240 -0.10600
H 	H 	0.24700 0.20520 0.95450 0.07300
C 	C 	0.27090 0.22050 0.83110 0.40000
C 	C 	0.25310 0.01980 0.02730 -0.03400
H 	H 	0.23980 0.03250 0.04620 0.03800
C 	C 	0.28950 0.01940 0.02660 -0.03100
H 	H 	0.30210 0.03170 0.04600 0.03700
O 	O 	0.28804 0.79360 0.19520 -0.45300
O 	O 	0.25310 0.74940 0.16977 -0.43100
C 	C 	0.28600 0.83430 0.13110 0.05100
H 	H 	0.29690 0.84430 0.15280 0.02500
C 	C 	0.25600 0.78490 0.10040 0.05300
H 	H 	0.24570 0.76080 0.10060 0.02400
C 	C 	0.28600 0.85400 0.09980 -0.10900
H 	H 	0.29690 0.87790 0.09970 0.06400
C 	C 	0.27160 0.86250 0.03230 0.07800
C 	C 	0.27020 0.84030 0.06700 0.04300
C 	C 	0.27010 0.79940 0.13180 -0.12900
C 	C 	0.27120 0.89990 0.03330 -0.13500
H 	H 	0.27100 0.91260 0.05630 0.07200
C 	C 	0.25650 0.80540 0.06760 -0.10600
H 	H 	0.24700 0.79480 0.04550 0.07300
C 	C 	0.27090 0.77950 0.16890 0.40000
C 	C 	0.25310 0.98020 0.97270 -0.03500
H 	H 	0.23980 0.96750 0.95380 0.03800
C 	C 	0.28950 0.98060 0.97340 -0.03400
H 	H 	0.30210 0.96830 0.95400 0.03700
O 	O 	0.71196 0.20640 0.19520 -0.45300
O 	O 	0.74690 0.25060 0.16977 -0.43100
C 	C 	0.71400 0.16570 0.13110 0.05100
H 	H 	0.70310 0.15570 0.15280 0.02500
C 	C 	0.74400 0.21510 0.10040 0.05300
H 	H 	0.75430 0.23920 0.10060 0.02400
C 	C 	0.71400 0.14600 0.09980 -0.10900
H 	H 	0.70310 0.12210 0.09970 0.06400
C 	C 	0.72840 0.13750 0.03230 0.07800
C 	C 	0.72980 0.15970 0.06700 0.04300
C 	C 	0.72990 0.20060 0.13180 -0.12900
C 	C 	0.72880 0.10010 0.03330 -0.13600
H 	H 	0.72900 0.08740 0.05630 0.07200
C 	C 	0.74350 0.19460 0.06760 -0.10600
H 	H 	0.75300 0.20520 0.04550 0.07300
C 	C 	0.72910 0.22050 0.16890 0.40000
C 	C 	0.74690 0.01980 0.97270 -0.03400
H 	H 	0.76020 0.03250 0.95380 0.03800
C 	C 	0.71050 0.01940 0.97340 -0.03200
H 	H 	0.69790 0.03170 0.95400 0.03700
O 	O 	0.80480 0.71196 0.79360 -0.45300
O 	O 	0.83023 0.74690 0.74940 -0.43100
C 	C 	0.86890 0.71400 0.83430 0.05100
H 	H 	0.84720 0.70310 0.84430 0.02500
C 	C 	0.89960 0.74400 0.78490 0.05300
H 	H 	0.89940 0.75430 0.76080 0.02400
C 	C 	0.90020 0.71400 0.85400 -0.10900
H 	H 	0.90030 0.70310 0.87790 0.06400
C 	C 	0.96770 0.72840 0.86250 0.07700
C 	C 	0.93300 0.72980 0.84030 0.04300
C 	C 	0.86820 0.72990 0.79940 -0.12900
C 	C 	0.96670 0.72880 0.89990 -0.13600
H 	H 	0.94370 0.72900 0.91260 0.07200
C 	C 	0.93240 0.74350 0.80540 -0.10600
H 	H 	0.95450 0.75300 0.79480 0.07300
C 	C 	0.83110 0.72910 0.77950 0.40000
C 	C 	0.02730 0.74690 0.98020 -0.03500
H 	H 	0.04620 0.76020 0.96750 0.03800
C 	C 	0.02660 0.71050 0.98060 -0.03300
H 	H 	0.04600 0.69790 0.96830 0.03700
O 	O 	0.80480 0.28804 0.20640 -0.45300
O 	O 	0.83023 0.25310 0.25060 -0.43100
C 	C 	0.86890 0.28600 0.16570 0.05100
H 	H 	0.84720 0.29690 0.15570 0.02500
C 	C 	0.89960 0.25600 0.21510 0.05200
H 	H 	0.89940 0.24570 0.23920 0.02400
C 	C 	0.90020 0.28600 0.14600 -0.10900
H 	H 	0.90030 0.29690 0.12210 0.06400
C 	C 	0.96770 0.27160 0.13750 0.07800
C 	C 	0.93300 0.27020 0.15970 0.04300
C 	C 	0.86820 0.27010 0.20060 -0.12900
C 	C 	0.96670 0.27120 0.10010 -0.13600
H 	H 	0.94370 0.27100 0.08740 0.07200
C 	C 	0.93240 0.25650 0.19460 -0.10600
H 	H 	0.95450 0.24700 0.20520 0.07300
C 	C 	0.83110 0.27090 0.22050 0.40000
C 	C 	0.02730 0.25310 0.01980 -0.03400
H 	H 	0.04620 0.23980 0.03250 0.03800
C 	C 	0.02660 0.28950 0.01940 -0.03100
H 	H 	0.04600 0.30210 0.03170 0.03700
O 	O 	0.19520 0.28804 0.79360 -0.45300
O 	O 	0.16977 0.25310 0.74940 -0.43100
C 	C 	0.13110 0.28600 0.83430 0.05100
H 	H 	0.15280 0.29690 0.84430 0.02500
C 	C 	0.10040 0.25600 0.78490 0.05300
H 	H 	0.10060 0.24570 0.76080 0.02400
C 	C 	0.09980 0.28600 0.85400 -0.10900
H 	H 	0.09970 0.29690 0.87790 0.06400
C 	C 	0.03230 0.27160 0.86250 0.07800
C 	C 	0.06700 0.27020 0.84030 0.04300
C 	C 	0.13180 0.27010 0.79940 -0.12900
C 	C 	0.03330 0.27120 0.89990 -0.13500
H 	H 	0.05630 0.27100 0.91260 0.07200
C 	C 	0.06760 0.25650 0.80540 -0.10600
H 	H 	0.04550 0.24700 0.79480 0.07300
C 	C 	0.16890 0.27090 0.77950 0.40000
C 	C 	0.97270 0.25310 0.98020 -0.03500
H 	H 	0.95380 0.23980 0.96750 0.03800
C 	C 	0.97340 0.28950 0.98060 -0.03400
H 	H 	0.95400 0.30210 0.96830 0.03700
O 	O 	0.19520 0.71196 0.20640 -0.45300
O 	O 	0.16977 0.74690 0.25060 -0.43100
C 	C 	0.13110 0.71400 0.16570 0.05100
H 	H 	0.15280 0.70310 0.15570 0.02500
C 	C 	0.10040 0.74400 0.21510 0.05300
H 	H 	0.10060 0.75430 0.23920 0.02400
C 	C 	0.09980 0.71400 0.14600 -0.10900
H 	H 	0.09970 0.70310 0.12210 0.06400
C 	C 	0.03230 0.72840 0.13750 0.07800
C 	C 	0.06700 0.72980 0.15970 0.04300
C 	C 	0.13180 0.72990 0.20060 -0.12900
C 	C 	0.03330 0.72880 0.10010 -0.13600
H 	H 	0.05630 0.72900 0.08740 0.07200
C 	C 	0.06760 0.74350 0.19460 -0.10600
H 	H 	0.04550 0.75300 0.20520 0.07300
C 	C 	0.16890 0.72910 0.22050 0.40000
C 	C 	0.97270 0.74690 0.01980 -0.03400
H 	H 	0.95380 0.76020 0.03250 0.03800
C 	C 	0.97340 0.71050 0.01940 -0.03200
H 	H 	0.95400 0.69790 0.03170 0.03700
O 	O 	0.79360 0.80480 0.71196 -0.45300
O 	O 	0.74940 0.83023 0.74690 -0.43100
C 	C 	0.83430 0.86890 0.71400 0.05100
H 	H 	0.84430 0.84720 0.70310 0.02500
C 	C 	0.78490 0.89960 0.74400 0.05300
H 	H 	0.76080 0.89940 0.75430 0.02400
C 	C 	0.85400 0.90020 0.71400 -0.10900
H 	H 	0.87790 0.90030 0.70310 0.06400
C 	C 	0.86250 0.96770 0.72840 0.07700
C 	C 	0.84030 0.93300 0.72980 0.04300
C 	C 	0.79940 0.86820 0.72990 -0.12900
C 	C 	0.89990 0.96670 0.72880 -0.13600
H 	H 	0.91260 0.94370 0.72900 0.07200
C 	C 	0.80540 0.93240 0.74350 -0.10600
H 	H 	0.79480 0.95450 0.75300 0.07300
C 	C 	0.77950 0.83110 0.72910 0.40000
C 	C 	0.98020 0.02730 0.74690 -0.03500
H 	H 	0.96750 0.04620 0.76020 0.03800
C 	C 	0.98060 0.02660 0.71050 -0.03300
H 	H 	0.96830 0.04600 0.69790 0.03700
O 	O 	0.20640 0.80480 0.28804 -0.45300
O 	O 	0.25060 0.83023 0.25310 -0.43100
C 	C 	0.16570 0.86890 0.28600 0.05100
H 	H 	0.15570 0.84720 0.29690 0.02500
C 	C 	0.21510 0.89960 0.25600 0.05200
H 	H 	0.23920 0.89940 0.24570 0.02400
C 	C 	0.14600 0.90020 0.28600 -0.10900
H 	H 	0.12210 0.90030 0.29690 0.06400
C 	C 	0.13750 0.96770 0.27160 0.07800
C 	C 	0.15970 0.93300 0.27020 0.04300
C 	C 	0.20060 0.86820 0.27010 -0.12900
C 	C 	0.10010 0.96670 0.27120 -0.13600
H 	H 	0.08740 0.94370 0.27100 0.07200
C 	C 	0.19460 0.93240 0.25650 -0.10600
H 	H 	0.20520 0.95450 0.24700 0.07300
C 	C 	0.22050 0.83110 0.27090 0.40000
C 	C 	0.01980 0.02730 0.25310 -0.03400
H 	H 	0.03250 0.04620 0.23980 0.03800
C 	C 	0.01940 0.02660 0.28950 -0.03100
H 	H 	0.03170 0.04600 0.30210 0.03700
O 	O 	0.79360 0.19520 0.28804 -0.45300
O 	O 	0.74940 0.16977 0.25310 -0.43100
C 	C 	0.83430 0.13110 0.28600 0.05100
H 	H 	0.84430 0.15280 0.29690 0.02500
C 	C 	0.78490 0.10040 0.25600 0.05300
H 	H 	0.76080 0.10060 0.24570 0.02400
C 	C 	0.85400 0.09980 0.28600 -0.10900
H 	H 	0.87790 0.09970 0.29690 0.06400
C 	C 	0.86250 0.03230 0.27160 0.07800
C 	C 	0.84030 0.06700 0.27020 0.04300
C 	C 	0.79940 0.13180 0.27010 -0.12900
C 	C 	0.89990 0.03330 0.27120 -0.13500
H 	H 	0.91260 0.05630 0.27100 0.07200
C 	C 	0.80540 0.06760 0.25650 -0.10600
H 	H 	0.79480 0.04550 0.24700 0.07300
C 	C 	0.77950 0.16890 0.27090 0.40000
C 	C 	0.98020 0.97270 0.25310 -0.03500
H 	H 	0.96750 0.95380 0.23980 0.03800
C 	C 	0.98060 0.97340 0.28950 -0.03400
H 	H 	0.96830 0.95400 0.30210 0.03700
O 	O 	0.20640 0.19520 0.71196 -0.45300
O 	O 	0.25060 0.16977 0.74690 -0.43100
C 	C 	0.16570 0.13110 0.71400 0.05100
H 	H 	0.15570 0.15280 0.70310 0.02500
C 	C 	0.21510 0.10040 0.74400 0.05300
H 	H 	0.23920 0.10060 0.75430 0.02400
C 	C 	0.14600 0.09980 0.71400 -0.10900
H 	H 	0.12210 0.09970 0.70310 0.06400
C 	C 	0.13750 0.03230 0.72840 0.07800
C 	C 	0.15970 0.06700 0.72980 0.04300
C 	C 	0.20060 0.13180 0.72990 -0.12900
C 	C 	0.10010 0.03330 0.72880 -0.13600
H 	H 	0.08740 0.05630 0.72900 0.07200
C 	C 	0.19460 0.06760 0.74350 -0.10600
H 	H 	0.20520 0.04550 0.75300 0.07300
C 	C 	0.22050 0.16890 0.72910 0.40000
C 	C 	0.01980 0.97270 0.74690 -0.03400
H 	H 	0.03250 0.95380 0.76020 0.03800
C 	C 	0.01940 0.97340 0.71050 -0.03200
H 	H 	0.03170 0.95400 0.69790 0.03700
O 	O 	0.29360 0.21196 0.69520 -0.45300
O 	O 	0.24940 0.24690 0.66977 -0.43100
C 	C 	0.33430 0.21400 0.63110 0.05100
H 	H 	0.34430 0.20310 0.65280 0.02500
C 	C 	0.28490 0.24400 0.60040 0.05300
H 	H 	0.26080 0.25430 0.60060 0.02400
C 	C 	0.35400 0.21400 0.59980 -0.10900
H 	H 	0.37790 0.20310 0.59970 0.06400
C 	C 	0.36250 0.22840 0.53230 0.07800
C 	C 	0.34030 0.22980 0.56700 0.04300
C 	C 	0.29940 0.22990 0.63180 -0.12900
C 	C 	0.39990 0.22880 0.53330 -0.13600
H 	H 	0.41260 0.22900 0.55630 0.07200
C 	C 	0.30540 0.24350 0.56760 -0.10600
H 	H 	0.29480 0.25300 0.54550 0.07300
C 	C 	0.27950 0.22910 0.66890 0.40000
C 	C 	0.48020 0.24690 0.47270 -0.03400
H 	H 	0.46750 0.26020 0.45380 0.03800
C 	C 	0.48060 0.21050 0.47340 -0.03200
H 	H 	0.46830 0.19790 0.45400 0.03700
O 	O 	0.70640 0.78804 0.69520 -0.45300
O 	O 	0.75060 0.75310 0.66977 -0.43100
C 	C 	0.66570 0.78600 0.63110 0.05100
H 	H 	0.65570 0.79690 0.65280 0.02500
C 	C 	0.71510 0.75600 0.60040 0.05300
H 	H 	0.73920 0.74570 0.60060 0.02400
C 	C 	0.64600 0.78600 0.59980 -0.10900
H 	H 	0.62210 0.79690 0.59970 0.06400
C 	C 	0.63750 0.77160 0.53230 0.07800
C 	C 	0.65970 0.77020 0.56700 0.04300
C 	C 	0.70060 0.77010 0.63180 -0.12900
C 	C 	0.60010 0.77120 0.53330 -0.13600
H 	H 	0.58740 0.77100 0.55630 0.07200
C 	C 	0.69460 0.75650 0.56760 -0.10600
H 	H 	0.70520 0.74700 0.54550 0.07300
C 	C 	0.72050 0.77090 0.66890 0.40000
C 	C 	0.51980 0.75310 0.47270 -0.03400
H 	H 	0.53250 0.73980 0.45380 0.03800
C 	C 	0.51940 0.78950 0.47340 -0.03200
H 	H 	0.53170 0.80210 0.45400 0.03700
O 	O 	0.29360 0.78804 0.30480 -0.45300
O 	O 	0.24940 0.75310 0.33023 -0.43100
C 	C 	0.33430 0.78600 0.36890 0.05100
H 	H 	0.34430 0.79690 0.34720 0.02500
C 	C 	0.28490 0.75600 0.39960 0.05300
H 	H 	0.26080 0.74570 0.39940 0.02400
C 	C 	0.35400 0.78600 0.40020 -0.10900
H 	H 	0.37790 0.79690 0.40030 0.06400
C 	C 	0.36250 0.77160 0.46770 0.07800
C 	C 	0.34030 0.77020 0.43300 0.04300
C 	C 	0.29940 0.77010 0.36820 -0.12900
C 	C 	0.39990 0.77120 0.46670 -0.13600
H 	H 	0.41260 0.77100 0.44370 0.07200
C 	C 	0.30540 0.75650 0.43240 -0.10600
H 	H 	0.29480 0.74700 0.45450 0.07300
C 	C 	0.27950 0.77090 0.33110 0.40000
C 	C 	0.48020 0.75310 0.52730 -0.03400
H 	H 	0.46750 0.73980 0.54620 0.03800
C 	C 	0.48060 0.78950 0.52660 -0.03200
H 	H 	0.46830 0.80210 0.54600 0.03700
O 	O 	0.70640 0.21196 0.30480 -0.45300
O 	O 	0.75060 0.24690 0.33023 -0.43100
C 	C 	0.66570 0.21400 0.36890 0.05100
H 	H 	0.65570 0.20310 0.34720 0.02500
C 	C 	0.71510 0.24400 0.39960 0.05300
H 	H 	0.73920 0.25430 0.39940 0.02400
C 	C 	0.64600 0.21400 0.40020 -0.10900
H 	H 	0.62210 0.20310 0.40030 0.06400
C 	C 	0.63750 0.22840 0.46770 0.07800
C 	C 	0.65970 0.22980 0.43300 0.04300
C 	C 	0.70060 0.22990 0.36820 -0.12900
C 	C 	0.60010 0.22880 0.46670 -0.13600
H 	H 	0.58740 0.22900 0.44370 0.07200
C 	C 	0.69460 0.24350 0.43240 -0.10600
H 	H 	0.70520 0.25300 0.45450 0.07300
C 	C 	0.72050 0.22910 0.33110 0.40000
C 	C 	0.51980 0.24690 0.52730 -0.03400
H 	H 	0.53250 0.26020 0.54620 0.03800
C 	C 	0.51940 0.21050 0.52660 -0.03200
H 	H 	0.53170 0.19790 0.54600 0.03700
O 	O 	0.21196 0.30480 0.70640 -0.45300
O 	O 	0.24690 0.33023 0.75060 -0.43100
C 	C 	0.21400 0.36890 0.66570 0.05100
H 	H 	0.20310 0.34720 0.65570 0.02500
C 	C 	0.24400 0.39960 0.71510 0.05300
H 	H 	0.25430 0.39940 0.73920 0.02400
C 	C 	0.21400 0.40020 0.64600 -0.10900
H 	H 	0.20310 0.40030 0.62210 0.06400
C 	C 	0.22840 0.46770 0.63750 0.07800
C 	C 	0.22980 0.43300 0.65970 0.04300
C 	C 	0.22990 0.36820 0.70060 -0.12900
C 	C 	0.22880 0.46670 0.60010 -0.13600
H 	H 	0.22900 0.44370 0.58740 0.07200
C 	C 	0.24350 0.43240 0.69460 -0.10600
H 	H 	0.25300 0.45450 0.70520 0.07300
C 	C 	0.22910 0.33110 0.72050 0.40000
C 	C 	0.24690 0.52730 0.51980 -0.03400
H 	H 	0.26020 0.54620 0.53250 0.03800
C 	C 	0.21050 0.52660 0.51940 -0.03200
H 	H 	0.19790 0.54600 0.53170 0.03700
O 	O 	0.78804 0.30480 0.29360 -0.45300
O 	O 	0.75310 0.33023 0.24940 -0.43100
C 	C 	0.78600 0.36890 0.33430 0.05100
H 	H 	0.79690 0.34720 0.34430 0.02500
C 	C 	0.75600 0.39960 0.28490 0.05300
H 	H 	0.74570 0.39940 0.26080 0.02400
C 	C 	0.78600 0.40020 0.35400 -0.10900
H 	H 	0.79690 0.40030 0.37790 0.06400
C 	C 	0.77160 0.46770 0.36250 0.07800
C 	C 	0.77020 0.43300 0.34030 0.04300
C 	C 	0.77010 0.36820 0.29940 -0.12900
C 	C 	0.77120 0.46670 0.39990 -0.13600
H 	H 	0.77100 0.44370 0.41260 0.07200
C 	C 	0.75650 0.43240 0.30540 -0.10600
H 	H 	0.74700 0.45450 0.29480 0.07300
C 	C 	0.77090 0.33110 0.27950 0.40000
C 	C 	0.75310 0.52730 0.48020 -0.03400
H 	H 	0.73980 0.54620 0.46750 0.03800
C 	C 	0.78950 0.52660 0.48060 -0.03200
H 	H 	0.80210 0.54600 0.46830 0.03700
O 	O 	0.78804 0.69520 0.70640 -0.45300
O 	O 	0.75310 0.66977 0.75060 -0.43100
C 	C 	0.78600 0.63110 0.66570 0.05100
H 	H 	0.79690 0.65280 0.65570 0.02500
C 	C 	0.75600 0.60040 0.71510 0.05300
H 	H 	0.74570 0.60060 0.73920 0.02400
C 	C 	0.78600 0.59980 0.64600 -0.10900
H 	H 	0.79690 0.59970 0.62210 0.06400
C 	C 	0.77160 0.53230 0.63750 0.07800
C 	C 	0.77020 0.56700 0.65970 0.04300
C 	C 	0.77010 0.63180 0.70060 -0.12900
C 	C 	0.77120 0.53330 0.60010 -0.13600
H 	H 	0.77100 0.55630 0.58740 0.07200
C 	C 	0.75650 0.56760 0.69460 -0.10600
H 	H 	0.74700 0.54550 0.70520 0.07300
C 	C 	0.77090 0.66890 0.72050 0.40000
C 	C 	0.75310 0.47270 0.51980 -0.03400
H 	H 	0.73980 0.45380 0.53250 0.03800
C 	C 	0.78950 0.47340 0.51940 -0.03200
H 	H 	0.80210 0.45400 0.53170 0.03700
O 	O 	0.21196 0.69520 0.29360 -0.45300
O 	O 	0.24690 0.66977 0.24940 -0.43100
C 	C 	0.21400 0.63110 0.33430 0.05100
H 	H 	0.20310 0.65280 0.34430 0.02500
C 	C 	0.24400 0.60040 0.28490 0.05300
H 	H 	0.25430 0.60060 0.26080 0.02400
C 	C 	0.21400 0.59980 0.35400 -0.10900
H 	H 	0.20310 0.59970 0.37790 0.06400
C 	C 	0.22840 0.53230 0.36250 0.07800
C 	C 	0.22980 0.56700 0.34030 0.04300
C 	C 	0.22990 0.63180 0.29940 -0.12900
C 	C 	0.22880 0.53330 0.39990 -0.13600
H 	H 	0.22900 0.55630 0.41260 0.07200
C 	C 	0.24350 0.56760 0.30540 -0.10600
H 	H 	0.25300 0.54550 0.29480 0.07300
C 	C 	0.22910 0.66890 0.27950 0.40000
C 	C 	0.24690 0.47270 0.48020 -0.03400
H 	H 	0.26020 0.45380 0.46750 0.03800
C 	C 	0.21050 0.47340 0.48060 -0.03200
H 	H 	0.19790 0.45400 0.46830 0.03700
O 	O 	0.30480 0.29360 0.78804 -0.45300
O 	O 	0.33023 0.24940 0.75310 -0.43100
C 	C 	0.36890 0.33430 0.78600 0.05100
H 	H 	0.34720 0.34430 0.79690 0.02500
C 	C 	0.39960 0.28490 0.75600 0.05300
H 	H 	0.39940 0.26080 0.74570 0.02400
C 	C 	0.40020 0.35400 0.78600 -0.10900
H 	H 	0.40030 0.37790 0.79690 0.06400
C 	C 	0.46770 0.36250 0.77160 0.07800
C 	C 	0.43300 0.34030 0.77020 0.04300
C 	C 	0.36820 0.29940 0.77010 -0.12900
C 	C 	0.46670 0.39990 0.77120 -0.13600
H 	H 	0.44370 0.41260 0.77100 0.07200
C 	C 	0.43240 0.30540 0.75650 -0.10600
H 	H 	0.45450 0.29480 0.74700 0.07300
C 	C 	0.33110 0.27950 0.77090 0.40000
C 	C 	0.52730 0.48020 0.75310 -0.03400
H 	H 	0.54620 0.46750 0.73980 0.03800
C 	C 	0.52660 0.48060 0.78950 -0.03200
H 	H 	0.54600 0.46830 0.80210 0.03700
O 	O 	0.30480 0.70640 0.21196 -0.45300
O 	O 	0.33023 0.75060 0.24690 -0.43100
C 	C 	0.36890 0.66570 0.21400 0.05100
H 	H 	0.34720 0.65570 0.20310 0.02500
C 	C 	0.39960 0.71510 0.24400 0.05300
H 	H 	0.39940 0.73920 0.25430 0.02400
C 	C 	0.40020 0.64600 0.21400 -0.10900
H 	H 	0.40030 0.62210 0.20310 0.06400
C 	C 	0.46770 0.63750 0.22840 0.07800
C 	C 	0.43300 0.65970 0.22980 0.04300
C 	C 	0.36820 0.70060 0.22990 -0.12900
C 	C 	0.46670 0.60010 0.22880 -0.13600
H 	H 	0.44370 0.58740 0.22900 0.07200
C 	C 	0.43240 0.69460 0.24350 -0.10600
H 	H 	0.45450 0.70520 0.25300 0.07300
C 	C 	0.33110 0.72050 0.22910 0.40000
C 	C 	0.52730 0.51980 0.24690 -0.03400
H 	H 	0.54620 0.53250 0.26020 0.03800
C 	C 	0.52660 0.51940 0.21050 -0.03200
H 	H 	0.54600 0.53170 0.19790 0.03700
O 	O 	0.69520 0.29360 0.21196 -0.45300
O 	O 	0.66977 0.24940 0.24690 -0.43100
C 	C 	0.63110 0.33430 0.21400 0.05100
H 	H 	0.65280 0.34430 0.20310 0.02500
C 	C 	0.60040 0.28490 0.24400 0.05300
H 	H 	0.60060 0.26080 0.25430 0.02400
C 	C 	0.59980 0.35400 0.21400 -0.10900
H 	H 	0.59970 0.37790 0.20310 0.06400
C 	C 	0.53230 0.36250 0.22840 0.07800
C 	C 	0.56700 0.34030 0.22980 0.04300
C 	C 	0.63180 0.29940 0.22990 -0.12900
C 	C 	0.53330 0.39990 0.22880 -0.13600
H 	H 	0.55630 0.41260 0.22900 0.07200
C 	C 	0.56760 0.30540 0.24350 -0.10600
H 	H 	0.54550 0.29480 0.25300 0.07300
C 	C 	0.66890 0.27950 0.22910 0.40000
C 	C 	0.47270 0.48020 0.24690 -0.03400
H 	H 	0.45380 0.46750 0.26020 0.03800
C 	C 	0.47340 0.48060 0.21050 -0.03200
H 	H 	0.45400 0.46830 0.19790 0.03700
O 	O 	0.69520 0.70640 0.78804 -0.45300
O 	O 	0.66977 0.75060 0.75310 -0.43100
C 	C 	0.63110 0.66570 0.78600 0.05100
H 	H 	0.65280 0.65570 0.79690 0.02500
C 	C 	0.60040 0.71510 0.75600 0.05300
H 	H 	0.60060 0.73920 0.74570 0.02400
C 	C 	0.59980 0.64600 0.78600 -0.10900
H 	H 	0.59970 0.62210 0.79690 0.06400
C 	C 	0.53230 0.63750 0.77160 0.07800
C 	C 	0.56700 0.65970 0.77020 0.04300
C 	C 	0.63180 0.70060 0.77010 -0.12900
C 	C 	0.53330 0.60010 0.77120 -0.13600
H 	H 	0.55630 0.58740 0.77100 0.07200
C 	C 	0.56760 0.69460 0.75650 -0.10600
H 	H 	0.54550 0.70520 0.74700 0.07300
C 	C 	0.66890 0.72050 0.77090 0.40000
C 	C 	0.47270 0.51980 0.75310 -0.03400
H 	H 	0.45380 0.53250 0.73980 0.03800
C 	C 	0.47340 0.51940 0.78950 -0.03200
H 	H 	0.45400 0.53170 0.80210 0.03700
Fe	Fe	0.28746 0.21254 0.25000 1.22400
Fe	Fe	0.71254 0.78746 0.25000 1.22400
Fe	Fe	0.71254 0.21254 0.75000 1.22400
Fe	Fe	0.28746 0.78746 0.75000 1.22400
Fe	Fe	0.25000 0.28746 0.21254 1.22400
Fe	Fe	0.25000 0.71254 0.78746 1.22400
Fe	Fe	0.75000 0.71254 0.21254 1.22400
Fe	Fe	0.75000 0.28746 0.78746 1.22400
Fe	Fe	0.21254 0.25000 0.28746 1.22400
Fe	Fe	0.78746 0.25000 0.71254 1.22400
Fe	Fe	0.21254 0.75000 0.71254 1.22400
Fe	Fe	0.78746 0.75000 0.28746 1.22400
Fe	Fe	0.71254 0.78746 0.75000 1.22400
Fe	Fe	0.28746 0.21254 0.75000 1.22400
Fe	Fe	0.28746 0.78746 0.25000 1.22400
Fe	Fe	0.71254 0.21254 0.25000 1.22400
Fe	Fe	0.75000 0.71254 0.78746 1.22400
Fe	Fe	0.75000 0.28746 0.21254 1.22400
Fe	Fe	0.25000 0.28746 0.78746 1.22400
Fe	Fe	0.25000 0.71254 0.21254 1.22400
Fe	Fe	0.78746 0.75000 0.71254 1.22400
Fe	Fe	0.21254 0.75000 0.28746 1.22400
Fe	Fe	0.78746 0.25000 0.28746 1.22400
Fe	Fe	0.21254 0.25000 0.71254 1.22400
O 	O 	0.25000 0.25000 0.25000 -0.64900
O 	O 	0.75000 0.75000 0.25000 -0.64900
O 	O 	0.75000 0.25000 0.75000 -0.64900
O 	O 	0.25000 0.75000 0.75000 -0.64900
O 	O 	0.75000 0.75000 0.75000 -0.64900
O 	O 	0.25000 0.25000 0.75000 -0.64900
O 	O 	0.25000 0.75000 0.25000 -0.64900
O 	O 	0.75000 0.25000 0.25000 -0.64900
C 	C 	0.27100 0.08050 -0.00000 0.07100
C 	C 	0.27220 0.04070 -0.00000 -0.00300
N 	N 	0.27170 0.15760 -0.00000 -0.13000
C 	C 	0.72900 0.91950 -0.00000 0.06900
C 	C 	0.72780 0.95930 -0.00000 -0.00100
N 	N 	0.72830 0.84240 -0.00000 -0.13000
C 	C 	0.72900 0.08050 -0.00000 0.07100
C 	C 	0.72780 0.04070 -0.00000 -0.00300
N 	N 	0.72830 0.15760 -0.00000 -0.13000
C 	C 	0.27100 0.91950 -0.00000 0.06900
C 	C 	0.27220 0.95930 -0.00000 -0.00100
N 	N 	0.27170 0.84240 -0.00000 -0.13000
C 	C 	-0.00000 0.27100 0.08050 0.07100
C 	C 	-0.00000 0.27220 0.04070 -0.00300
N 	N 	0.00000 0.27170 0.15760 -0.13000
C 	C 	0.00000 0.72900 0.91950 0.06900
C 	C 	-0.00000 0.72780 0.95930 -0.00100
N 	N 	-0.00000 0.72830 0.84240 -0.13000
C 	C 	0.00000 0.72900 0.08050 0.07100
C 	C 	0.00000 0.72780 0.04070 -0.00300
N 	N 	0.00000 0.72830 0.15760 -0.13000
C 	C 	-0.00000 0.27100 0.91950 0.06900
C 	C 	-0.00000 0.27220 0.95930 -0.00100
N 	N 	-0.00000 0.27170 0.84240 -0.13000
C 	C 	0.08050 -0.00000 0.27100 0.07100
C 	C 	0.04070 0.00000 0.27220 -0.00300
N 	N 	0.15760 0.00000 0.27170 -0.13000
C 	C 	0.91950 0.00000 0.72900 0.06900
C 	C 	0.95930 0.00000 0.72780 -0.00100
N 	N 	0.84240 0.00000 0.72830 -0.13000
C 	C 	0.08050 0.00000 0.72900 0.07100
C 	C 	0.04070 0.00000 0.72780 -0.00300
N 	N 	0.15760 0.00000 0.72830 -0.13000
C 	C 	0.91950 -0.00000 0.27100 0.06900
C 	C 	0.95930 0.00000 0.27220 -0.00100
N 	N 	0.84240 0.00000 0.27170 -0.13000
C 	C 	0.58050 0.77100 0.50000 0.07000
C 	C 	0.54070 0.77220 0.50000 -0.00300
N 	N 	0.65760 0.77170 0.50000 -0.13000
C 	C 	0.41950 0.22900 0.50000 0.07000
C 	C 	0.45930 0.22780 0.50000 -0.00300
N 	N 	0.34240 0.22830 0.50000 -0.13000
C 	C 	0.58050 0.22900 0.50000 0.07000
C 	C 	0.54070 0.22780 0.50000 -0.00300
N 	N 	0.65760 0.22830 0.50000 -0.13000
C 	C 	0.41950 0.77100 0.50000 0.07000
C 	C 	0.45930 0.77220 0.50000 -0.00300
N 	N 	0.34240 0.77170 0.50000 -0.13000
C 	C 	0.77100 0.50000 0.41950 0.07000
C 	C 	0.77220 0.50000 0.45930 -0.00300
N 	N 	0.77170 0.50000 0.34240 -0.13000
C 	C 	0.22900 0.50000 0.58050 0.07000
C 	C 	0.22780 0.50000 0.54070 -0.00300
N 	N 	0.22830 0.50000 0.65760 -0.13000
C 	C 	0.22900 0.50000 0.41950 0.07000
C 	C 	0.22780 0.50000 0.45930 -0.00300
N 	N 	0.22830 0.50000 0.34240 -0.13000
C 	C 	0.77100 0.50000 0.58050 0.07000
C 	C 	0.77220 0.50000 0.54070 -0.00300
N 	N 	0.77170 0.50000 0.65760 -0.13000
C 	C 	0.50000 0.58050 0.22900 0.07000
C 	C 	0.50000 0.54070 0.22780 -0.00300
N 	N 	0.50000 0.65760 0.22830 -0.13000
C 	C 	0.50000 0.41950 0.77100 0.07000
C 	C 	0.50000 0.45930 0.77220 -0.00300
N 	N 	0.50000 0.34240 0.77170 -0.13000
C 	C 	0.50000 0.58050 0.77100 0.07000
C 	C 	0.50000 0.54070 0.77220 -0.00300
N 	N 	0.50000 0.65760 0.77170 -0.13000
C 	C 	0.50000 0.41950 0.22900 0.07000
C 	C 	0.50000 0.45930 0.22780 -0.00300
N 	N 	0.50000 0.34240 0.22830 -0.13000
