data_crystal

_cell_length_a 35.79480
_cell_length_b 35.79480
_cell_length_c 35.79480
_cell_angle_alpha 90.00000
_cell_angle_beta  90.00000
_cell_angle_gamma 90.00000

_symmetry_space_group_name_	'P 1'
_symmetry_space_group_name_H-M	'P 1'

loop_
_symmetry_equiv_pos_as_xyz
  x,y,z

loop_
_atom_site_label
_atom_site_type_symbol
_atom_site_fract_x
_atom_site_fract_y
_atom_site_fract_z
_atom_site_charge
O 	O 	0.75210 0.67087 0.24855 -0.52200
O 	O 	0.78780 0.69532 0.29317 -0.53300
C 	C 	0.76978 0.66936 0.27883 0.46300
C 	C 	0.76878 0.63354 0.29909 -0.16900
C 	C 	0.75420 0.60163 0.28343 0.08000
H 	H 	0.74460 0.60230 0.25870 0.01600
C 	C 	0.78340 0.63185 0.33524 0.07900
H 	H 	0.79430 0.65340 0.34620 0.01500
C 	C 	0.75320 0.56873 0.30326 -0.12300
H 	H 	0.74330 0.54680 0.29200 0.07800
C 	C 	0.76650 0.56726 0.33936 0.05600
C 	C 	0.76480 0.53226 0.36124 0.07300
C 	C 	0.78200 0.59946 0.35470 -0.12700
H 	H 	0.79190 0.59870 0.37930 0.07100
C 	C 	0.76260 0.53310 0.39952 -0.12500
H 	H 	0.76170 0.55640 0.41220 0.06900
C 	C 	0.77400 0.52840 0.48130 -0.03200
H 	H 	0.78410 0.54940 0.46850 0.03700
C 	C 	0.73900 0.52580 0.47930 -0.03600
H 	H 	0.72440 0.54320 0.46560 0.04000
O 	O 	0.24790 0.32913 0.24855 -0.52200
O 	O 	0.21220 0.30468 0.29317 -0.53300
C 	C 	0.23022 0.33064 0.27883 0.46300
C 	C 	0.23122 0.36646 0.29909 -0.16900
C 	C 	0.24580 0.39837 0.28343 0.08000
H 	H 	0.25540 0.39770 0.25870 0.01600
C 	C 	0.21660 0.36815 0.33524 0.07800
H 	H 	0.20570 0.34660 0.34620 0.01500
C 	C 	0.24680 0.43127 0.30326 -0.12400
H 	H 	0.25670 0.45320 0.29200 0.07700
C 	C 	0.23350 0.43274 0.33936 0.05500
C 	C 	0.23520 0.46774 0.36124 0.07200
C 	C 	0.21800 0.40054 0.35470 -0.12800
H 	H 	0.20810 0.40130 0.37930 0.07000
C 	C 	0.23740 0.46690 0.39952 -0.12600
H 	H 	0.23830 0.44360 0.41220 0.06800
C 	C 	0.22600 0.47160 0.48130 -0.03300
H 	H 	0.21590 0.45060 0.46850 0.03600
C 	C 	0.26100 0.47420 0.47930 -0.03700
H 	H 	0.27560 0.45680 0.46560 0.03900
O 	O 	0.24790 0.67087 0.75145 -0.52300
O 	O 	0.21220 0.69532 0.70683 -0.53400
C 	C 	0.23022 0.66936 0.72117 0.46200
C 	C 	0.23122 0.63354 0.70091 -0.17000
C 	C 	0.24580 0.60163 0.71657 0.07900
H 	H 	0.25540 0.60230 0.74130 0.01500
C 	C 	0.21660 0.63185 0.66476 0.07800
H 	H 	0.20570 0.65340 0.65380 0.01500
C 	C 	0.24680 0.56873 0.69674 -0.12400
H 	H 	0.25670 0.54680 0.70800 0.07700
C 	C 	0.23350 0.56726 0.66064 0.05500
C 	C 	0.23520 0.53226 0.63876 0.07200
C 	C 	0.21800 0.59946 0.64530 -0.12800
H 	H 	0.20810 0.59870 0.62070 0.07000
C 	C 	0.23740 0.53310 0.60048 -0.12600
H 	H 	0.23830 0.55640 0.58780 0.06800
C 	C 	0.22600 0.52840 0.51870 -0.03300
H 	H 	0.21590 0.54940 0.53150 0.03600
C 	C 	0.26100 0.52580 0.52070 -0.03700
H 	H 	0.27560 0.54320 0.53440 0.03900
O 	O 	0.75210 0.32913 0.75145 -0.52300
O 	O 	0.78780 0.30468 0.70683 -0.53400
C 	C 	0.76978 0.33064 0.72117 0.46200
C 	C 	0.76878 0.36646 0.70091 -0.17000
C 	C 	0.75420 0.39837 0.71657 0.07900
H 	H 	0.74460 0.39770 0.74130 0.01500
C 	C 	0.78340 0.36815 0.66476 0.07800
H 	H 	0.79430 0.34660 0.65380 0.01400
C 	C 	0.75320 0.43127 0.69674 -0.12400
H 	H 	0.74330 0.45320 0.70800 0.07700
C 	C 	0.76650 0.43274 0.66064 0.05500
C 	C 	0.76480 0.46774 0.63876 0.07200
C 	C 	0.78200 0.40054 0.64530 -0.12800
H 	H 	0.79190 0.40130 0.62070 0.07000
C 	C 	0.76260 0.46690 0.60048 -0.12600
H 	H 	0.76170 0.44360 0.58780 0.06800
C 	C 	0.77400 0.47160 0.51870 -0.03300
H 	H 	0.78410 0.45060 0.53150 0.03600
C 	C 	0.73900 0.47420 0.52070 -0.03700
H 	H 	0.72440 0.45680 0.53440 0.03900
O 	O 	0.24855 0.75210 0.67087 -0.52300
O 	O 	0.29317 0.78780 0.69532 -0.53400
C 	C 	0.27883 0.76978 0.66936 0.46200
C 	C 	0.29909 0.76878 0.63354 -0.17000
C 	C 	0.28343 0.75420 0.60163 0.07900
H 	H 	0.25870 0.74460 0.60230 0.01500
C 	C 	0.33524 0.78340 0.63185 0.07800
H 	H 	0.34620 0.79430 0.65340 0.01400
C 	C 	0.30326 0.75320 0.56873 -0.12400
H 	H 	0.29200 0.74330 0.54680 0.07700
C 	C 	0.33936 0.76650 0.56726 0.05500
C 	C 	0.36124 0.76480 0.53226 0.07200
C 	C 	0.35470 0.78200 0.59946 -0.12800
H 	H 	0.37930 0.79190 0.59870 0.07000
C 	C 	0.39952 0.76260 0.53310 -0.12600
H 	H 	0.41220 0.76170 0.55640 0.06800
C 	C 	0.48130 0.77400 0.52840 -0.03300
H 	H 	0.46850 0.78410 0.54940 0.03600
C 	C 	0.47930 0.73900 0.52580 -0.03700
H 	H 	0.46560 0.72440 0.54320 0.03900
O 	O 	0.24855 0.24790 0.32913 -0.52300
O 	O 	0.29317 0.21220 0.30468 -0.53400
C 	C 	0.27883 0.23022 0.33064 0.46200
C 	C 	0.29909 0.23122 0.36646 -0.17000
C 	C 	0.28343 0.24580 0.39837 0.07900
H 	H 	0.25870 0.25540 0.39770 0.01500
C 	C 	0.33524 0.21660 0.36815 0.07800
H 	H 	0.34620 0.20570 0.34660 0.01500
C 	C 	0.30326 0.24680 0.43127 -0.12400
H 	H 	0.29200 0.25670 0.45320 0.07700
C 	C 	0.33936 0.23350 0.43274 0.05500
C 	C 	0.36124 0.23520 0.46774 0.07200
C 	C 	0.35470 0.21800 0.40054 -0.12800
H 	H 	0.37930 0.20810 0.40130 0.07000
C 	C 	0.39952 0.23740 0.46690 -0.12600
H 	H 	0.41220 0.23830 0.44360 0.06800
C 	C 	0.48130 0.22600 0.47160 -0.03300
H 	H 	0.46850 0.21590 0.45060 0.03600
C 	C 	0.47930 0.26100 0.47420 -0.03700
H 	H 	0.46560 0.27560 0.45680 0.03900
O 	O 	0.75145 0.24790 0.67087 -0.52300
O 	O 	0.70683 0.21220 0.69532 -0.53400
C 	C 	0.72117 0.23022 0.66936 0.46200
C 	C 	0.70091 0.23122 0.63354 -0.17000
C 	C 	0.71657 0.24580 0.60163 0.07900
H 	H 	0.74130 0.25540 0.60230 0.01500
C 	C 	0.66476 0.21660 0.63185 0.07800
H 	H 	0.65380 0.20570 0.65340 0.01500
C 	C 	0.69674 0.24680 0.56873 -0.12400
H 	H 	0.70800 0.25670 0.54680 0.07700
C 	C 	0.66064 0.23350 0.56726 0.05500
C 	C 	0.63876 0.23520 0.53226 0.07200
C 	C 	0.64530 0.21800 0.59946 -0.12800
H 	H 	0.62070 0.20810 0.59870 0.07000
C 	C 	0.60048 0.23740 0.53310 -0.12600
H 	H 	0.58780 0.23830 0.55640 0.06800
C 	C 	0.51870 0.22600 0.52840 -0.03300
H 	H 	0.53150 0.21590 0.54940 0.03600
C 	C 	0.52070 0.26100 0.52580 -0.03700
H 	H 	0.53440 0.27560 0.54320 0.03900
O 	O 	0.75145 0.75210 0.32913 -0.52300
O 	O 	0.70683 0.78780 0.30468 -0.53400
C 	C 	0.72117 0.76978 0.33064 0.46200
C 	C 	0.70091 0.76878 0.36646 -0.17000
C 	C 	0.71657 0.75420 0.39837 0.07900
H 	H 	0.74130 0.74460 0.39770 0.01500
C 	C 	0.66476 0.78340 0.36815 0.07800
H 	H 	0.65380 0.79430 0.34660 0.01400
C 	C 	0.69674 0.75320 0.43127 -0.12400
H 	H 	0.70800 0.74330 0.45320 0.07700
C 	C 	0.66064 0.76650 0.43274 0.05500
C 	C 	0.63876 0.76480 0.46774 0.07200
C 	C 	0.64530 0.78200 0.40054 -0.12800
H 	H 	0.62070 0.79190 0.40130 0.07000
C 	C 	0.60048 0.76260 0.46690 -0.12600
H 	H 	0.58780 0.76170 0.44360 0.06800
C 	C 	0.51870 0.77400 0.47160 -0.03300
H 	H 	0.53150 0.78410 0.45060 0.03600
C 	C 	0.52070 0.73900 0.47420 -0.03700
H 	H 	0.53440 0.72440 0.45680 0.03900
O 	O 	0.67087 0.24855 0.75210 -0.52300
O 	O 	0.69532 0.29317 0.78780 -0.53400
C 	C 	0.66936 0.27883 0.76978 0.46200
C 	C 	0.63354 0.29909 0.76878 -0.17000
C 	C 	0.60163 0.28343 0.75420 0.07900
H 	H 	0.60230 0.25870 0.74460 0.01500
C 	C 	0.63185 0.33524 0.78340 0.07800
H 	H 	0.65340 0.34620 0.79430 0.01400
C 	C 	0.56873 0.30326 0.75320 -0.12400
H 	H 	0.54680 0.29200 0.74330 0.07700
C 	C 	0.56726 0.33936 0.76650 0.05500
C 	C 	0.53226 0.36124 0.76480 0.07200
C 	C 	0.59946 0.35470 0.78200 -0.12800
H 	H 	0.59870 0.37930 0.79190 0.07000
C 	C 	0.53310 0.39952 0.76260 -0.12600
H 	H 	0.55640 0.41220 0.76170 0.06800
C 	C 	0.52840 0.48130 0.77400 -0.03300
H 	H 	0.54940 0.46850 0.78410 0.03600
C 	C 	0.52580 0.47930 0.73900 -0.03700
H 	H 	0.54320 0.46560 0.72440 0.03900
O 	O 	0.32913 0.24855 0.24790 -0.52300
O 	O 	0.30468 0.29317 0.21220 -0.53400
C 	C 	0.33064 0.27883 0.23022 0.46200
C 	C 	0.36646 0.29909 0.23122 -0.17000
C 	C 	0.39837 0.28343 0.24580 0.07900
H 	H 	0.39770 0.25870 0.25540 0.01500
C 	C 	0.36815 0.33524 0.21660 0.07800
H 	H 	0.34660 0.34620 0.20570 0.01500
C 	C 	0.43127 0.30326 0.24680 -0.12400
H 	H 	0.45320 0.29200 0.25670 0.07700
C 	C 	0.43274 0.33936 0.23350 0.05500
C 	C 	0.46774 0.36124 0.23520 0.07200
C 	C 	0.40054 0.35470 0.21800 -0.12800
H 	H 	0.40130 0.37930 0.20810 0.07000
C 	C 	0.46690 0.39952 0.23740 -0.12600
H 	H 	0.44360 0.41220 0.23830 0.06800
C 	C 	0.47160 0.48130 0.22600 -0.03300
H 	H 	0.45060 0.46850 0.21590 0.03600
C 	C 	0.47420 0.47930 0.26100 -0.03700
H 	H 	0.45680 0.46560 0.27560 0.03900
O 	O 	0.67087 0.75145 0.24790 -0.52300
O 	O 	0.69532 0.70683 0.21220 -0.53400
C 	C 	0.66936 0.72117 0.23022 0.46200
C 	C 	0.63354 0.70091 0.23122 -0.17000
C 	C 	0.60163 0.71657 0.24580 0.07900
H 	H 	0.60230 0.74130 0.25540 0.01500
C 	C 	0.63185 0.66476 0.21660 0.07800
H 	H 	0.65340 0.65380 0.20570 0.01500
C 	C 	0.56873 0.69674 0.24680 -0.12400
H 	H 	0.54680 0.70800 0.25670 0.07700
C 	C 	0.56726 0.66064 0.23350 0.05500
C 	C 	0.53226 0.63876 0.23520 0.07200
C 	C 	0.59946 0.64530 0.21800 -0.12800
H 	H 	0.59870 0.62070 0.20810 0.07000
C 	C 	0.53310 0.60048 0.23740 -0.12600
H 	H 	0.55640 0.58780 0.23830 0.06800
C 	C 	0.52840 0.51870 0.22600 -0.03300
H 	H 	0.54940 0.53150 0.21590 0.03600
C 	C 	0.52580 0.52070 0.26100 -0.03700
H 	H 	0.54320 0.53440 0.27560 0.03900
O 	O 	0.32913 0.75145 0.75210 -0.52300
O 	O 	0.30468 0.70683 0.78780 -0.53400
C 	C 	0.33064 0.72117 0.76978 0.46200
C 	C 	0.36646 0.70091 0.76878 -0.17000
C 	C 	0.39837 0.71657 0.75420 0.07900
H 	H 	0.39770 0.74130 0.74460 0.01500
C 	C 	0.36815 0.66476 0.78340 0.07800
H 	H 	0.34660 0.65380 0.79430 0.01400
C 	C 	0.43127 0.69674 0.75320 -0.12400
H 	H 	0.45320 0.70800 0.74330 0.07700
C 	C 	0.43274 0.66064 0.76650 0.05500
C 	C 	0.46774 0.63876 0.76480 0.07200
C 	C 	0.40054 0.64530 0.78200 -0.12800
H 	H 	0.40130 0.62070 0.79190 0.07000
C 	C 	0.46690 0.60048 0.76260 -0.12600
H 	H 	0.44360 0.58780 0.76170 0.06800
C 	C 	0.47160 0.51870 0.77400 -0.03300
H 	H 	0.45060 0.53150 0.78410 0.03600
C 	C 	0.47420 0.52070 0.73900 -0.03700
H 	H 	0.45680 0.53440 0.72440 0.03900
O 	O 	0.17087 0.25210 0.25145 -0.52300
O 	O 	0.19532 0.28780 0.20683 -0.53400
C 	C 	0.16936 0.26978 0.22117 0.46200
C 	C 	0.13354 0.26878 0.20091 -0.16900
C 	C 	0.10163 0.25420 0.21657 0.07900
H 	H 	0.10230 0.24460 0.24130 0.01500
C 	C 	0.13185 0.28340 0.16476 0.07800
H 	H 	0.15340 0.29430 0.15380 0.01500
C 	C 	0.06873 0.25320 0.19674 -0.12400
H 	H 	0.04680 0.24330 0.20800 0.07700
C 	C 	0.06726 0.26650 0.16064 0.05500
C 	C 	0.03226 0.26480 0.13876 0.07300
C 	C 	0.09946 0.28200 0.14530 -0.12800
H 	H 	0.09870 0.29190 0.12070 0.07000
C 	C 	0.03310 0.26260 0.10048 -0.12700
H 	H 	0.05640 0.26170 0.08780 0.06800
C 	C 	0.02840 0.27400 0.01870 -0.03100
H 	H 	0.04940 0.28410 0.03150 0.03500
C 	C 	0.02580 0.23900 0.02070 -0.03700
H 	H 	0.04320 0.22440 0.03440 0.03900
O 	O 	0.82913 0.74790 0.25145 -0.52300
O 	O 	0.80468 0.71220 0.20683 -0.53400
C 	C 	0.83064 0.73022 0.22117 0.46200
C 	C 	0.86646 0.73122 0.20091 -0.17000
C 	C 	0.89837 0.74580 0.21657 0.07900
H 	H 	0.89770 0.75540 0.24130 0.01500
C 	C 	0.86815 0.71660 0.16476 0.07800
H 	H 	0.84660 0.70570 0.15380 0.01500
C 	C 	0.93127 0.74680 0.19674 -0.12400
H 	H 	0.95320 0.75670 0.20800 0.07700
C 	C 	0.93274 0.73350 0.16064 0.05500
C 	C 	0.96774 0.73520 0.13876 0.07200
C 	C 	0.90054 0.71800 0.14530 -0.12800
H 	H 	0.90130 0.70810 0.12070 0.07000
C 	C 	0.96690 0.73740 0.10048 -0.12700
H 	H 	0.94360 0.73830 0.08780 0.06800
C 	C 	0.97160 0.72600 0.01870 -0.03100
H 	H 	0.95060 0.71590 0.03150 0.03500
C 	C 	0.97420 0.76100 0.02070 -0.03700
H 	H 	0.95680 0.77560 0.03440 0.03900
O 	O 	0.17087 0.74790 0.74855 -0.52300
O 	O 	0.19532 0.71220 0.79317 -0.53400
C 	C 	0.16936 0.73022 0.77883 0.46200
C 	C 	0.13354 0.73122 0.79909 -0.17000
C 	C 	0.10163 0.74580 0.78343 0.07900
H 	H 	0.10230 0.75540 0.75870 0.01500
C 	C 	0.13185 0.71660 0.83524 0.07800
H 	H 	0.15340 0.70570 0.84620 0.01400
C 	C 	0.06873 0.74680 0.80326 -0.12500
H 	H 	0.04680 0.75670 0.79200 0.07700
C 	C 	0.06726 0.73350 0.83936 0.05500
C 	C 	0.03226 0.73520 0.86124 0.07200
C 	C 	0.09946 0.71800 0.85470 -0.12800
H 	H 	0.09870 0.70810 0.87930 0.07000
C 	C 	0.03310 0.73740 0.89952 -0.12600
H 	H 	0.05640 0.73830 0.91220 0.06800
C 	C 	0.02840 0.72600 0.98130 -0.03500
H 	H 	0.04940 0.71590 0.96850 0.03600
C 	C 	0.02580 0.76100 0.97930 -0.03700
H 	H 	0.04320 0.77560 0.96560 0.03900
O 	O 	0.82913 0.25210 0.74855 -0.52300
O 	O 	0.80468 0.28780 0.79317 -0.53400
C 	C 	0.83064 0.26978 0.77883 0.46200
C 	C 	0.86646 0.26878 0.79909 -0.17000
C 	C 	0.89837 0.25420 0.78343 0.07900
H 	H 	0.89770 0.24460 0.75870 0.01500
C 	C 	0.86815 0.28340 0.83524 0.07800
H 	H 	0.84660 0.29430 0.84620 0.01400
C 	C 	0.93127 0.25320 0.80326 -0.12500
H 	H 	0.95320 0.24330 0.79200 0.07700
C 	C 	0.93274 0.26650 0.83936 0.05500
C 	C 	0.96774 0.26480 0.86124 0.07200
C 	C 	0.90054 0.28200 0.85470 -0.12800
H 	H 	0.90130 0.29190 0.87930 0.07000
C 	C 	0.96690 0.26260 0.89952 -0.12600
H 	H 	0.94360 0.26170 0.91220 0.06800
C 	C 	0.97160 0.27400 0.98130 -0.03500
H 	H 	0.95060 0.28410 0.96850 0.03600
C 	C 	0.97420 0.23900 0.97930 -0.03800
H 	H 	0.95680 0.22440 0.96560 0.03900
O 	O 	0.25210 0.74855 0.82913 -0.52300
O 	O 	0.28780 0.79317 0.80468 -0.53400
C 	C 	0.26978 0.77883 0.83064 0.46200
C 	C 	0.26878 0.79909 0.86646 -0.17000
C 	C 	0.25420 0.78343 0.89837 0.07900
H 	H 	0.24460 0.75870 0.89770 0.01500
C 	C 	0.28340 0.83524 0.86815 0.07800
H 	H 	0.29430 0.84620 0.84660 0.01400
C 	C 	0.25320 0.80326 0.93127 -0.12500
H 	H 	0.24330 0.79200 0.95320 0.07700
C 	C 	0.26650 0.83936 0.93274 0.05500
C 	C 	0.26480 0.86124 0.96774 0.07200
C 	C 	0.28200 0.85470 0.90054 -0.12800
H 	H 	0.29190 0.87930 0.90130 0.07000
C 	C 	0.26260 0.89952 0.96690 -0.12600
H 	H 	0.26170 0.91220 0.94360 0.06800
C 	C 	0.27400 0.98130 0.97160 -0.03500
H 	H 	0.28410 0.96850 0.95060 0.03600
C 	C 	0.23900 0.97930 0.97420 -0.03800
H 	H 	0.22440 0.96560 0.95680 0.03900
O 	O 	0.74790 0.74855 0.17087 -0.52300
O 	O 	0.71220 0.79317 0.19532 -0.53400
C 	C 	0.73022 0.77883 0.16936 0.46200
C 	C 	0.73122 0.79909 0.13354 -0.17000
C 	C 	0.74580 0.78343 0.10163 0.07900
H 	H 	0.75540 0.75870 0.10230 0.01500
C 	C 	0.71660 0.83524 0.13185 0.07800
H 	H 	0.70570 0.84620 0.15340 0.01400
C 	C 	0.74680 0.80326 0.06873 -0.12500
H 	H 	0.75670 0.79200 0.04680 0.07700
C 	C 	0.73350 0.83936 0.06726 0.05500
C 	C 	0.73520 0.86124 0.03226 0.07200
C 	C 	0.71800 0.85470 0.09946 -0.12800
H 	H 	0.70810 0.87930 0.09870 0.07000
C 	C 	0.73740 0.89952 0.03310 -0.12600
H 	H 	0.73830 0.91220 0.05640 0.06800
C 	C 	0.72600 0.98130 0.02840 -0.03500
H 	H 	0.71590 0.96850 0.04940 0.03600
C 	C 	0.76100 0.97930 0.02580 -0.03700
H 	H 	0.77560 0.96560 0.04320 0.03900
O 	O 	0.74790 0.25145 0.82913 -0.52300
O 	O 	0.71220 0.20683 0.80468 -0.53400
C 	C 	0.73022 0.22117 0.83064 0.46200
C 	C 	0.73122 0.20091 0.86646 -0.17000
C 	C 	0.74580 0.21657 0.89837 0.07900
H 	H 	0.75540 0.24130 0.89770 0.01500
C 	C 	0.71660 0.16476 0.86815 0.07800
H 	H 	0.70570 0.15380 0.84660 0.01500
C 	C 	0.74680 0.19674 0.93127 -0.12400
H 	H 	0.75670 0.20800 0.95320 0.07700
C 	C 	0.73350 0.16064 0.93274 0.05500
C 	C 	0.73520 0.13876 0.96774 0.07200
C 	C 	0.71800 0.14530 0.90054 -0.12800
H 	H 	0.70810 0.12070 0.90130 0.07000
C 	C 	0.73740 0.10048 0.96690 -0.12700
H 	H 	0.73830 0.08780 0.94360 0.06800
C 	C 	0.72600 0.01870 0.97160 -0.03100
H 	H 	0.71590 0.03150 0.95060 0.03500
C 	C 	0.76100 0.02070 0.97420 -0.03700
H 	H 	0.77560 0.03440 0.95680 0.03900
O 	O 	0.25210 0.25145 0.17087 -0.52300
O 	O 	0.28780 0.20683 0.19532 -0.53400
C 	C 	0.26978 0.22117 0.16936 0.46200
C 	C 	0.26878 0.20091 0.13354 -0.16900
C 	C 	0.25420 0.21657 0.10163 0.07900
H 	H 	0.24460 0.24130 0.10230 0.01500
C 	C 	0.28340 0.16476 0.13185 0.07800
H 	H 	0.29430 0.15380 0.15340 0.01500
C 	C 	0.25320 0.19674 0.06873 -0.12400
H 	H 	0.24330 0.20800 0.04680 0.07700
C 	C 	0.26650 0.16064 0.06726 0.05500
C 	C 	0.26480 0.13876 0.03226 0.07300
C 	C 	0.28200 0.14530 0.09946 -0.12800
H 	H 	0.29190 0.12070 0.09870 0.07000
C 	C 	0.26260 0.10048 0.03310 -0.12700
H 	H 	0.26170 0.08780 0.05640 0.06800
C 	C 	0.27400 0.01870 0.02840 -0.03100
H 	H 	0.28410 0.03150 0.04940 0.03500
C 	C 	0.23900 0.02070 0.02580 -0.03700
H 	H 	0.22440 0.03440 0.04320 0.03900
O 	O 	0.74855 0.17087 0.74790 -0.52300
O 	O 	0.79317 0.19532 0.71220 -0.53400
C 	C 	0.77883 0.16936 0.73022 0.46200
C 	C 	0.79909 0.13354 0.73122 -0.17000
C 	C 	0.78343 0.10163 0.74580 0.07900
H 	H 	0.75870 0.10230 0.75540 0.01500
C 	C 	0.83524 0.13185 0.71660 0.07800
H 	H 	0.84620 0.15340 0.70570 0.01400
C 	C 	0.80326 0.06873 0.74680 -0.12500
H 	H 	0.79200 0.04680 0.75670 0.07700
C 	C 	0.83936 0.06726 0.73350 0.05500
C 	C 	0.86124 0.03226 0.73520 0.07200
C 	C 	0.85470 0.09946 0.71800 -0.12800
H 	H 	0.87930 0.09870 0.70810 0.07000
C 	C 	0.89952 0.03310 0.73740 -0.12600
H 	H 	0.91220 0.05640 0.73830 0.06800
C 	C 	0.98130 0.02840 0.72600 -0.03500
H 	H 	0.96850 0.04940 0.71590 0.03600
C 	C 	0.97930 0.02580 0.76100 -0.03700
H 	H 	0.96560 0.04320 0.77560 0.03900
O 	O 	0.74855 0.82913 0.25210 -0.52300
O 	O 	0.79317 0.80468 0.28780 -0.53400
C 	C 	0.77883 0.83064 0.26978 0.46200
C 	C 	0.79909 0.86646 0.26878 -0.17000
C 	C 	0.78343 0.89837 0.25420 0.07900
H 	H 	0.75870 0.89770 0.24460 0.01500
C 	C 	0.83524 0.86815 0.28340 0.07800
H 	H 	0.84620 0.84660 0.29430 0.01400
C 	C 	0.80326 0.93127 0.25320 -0.12500
H 	H 	0.79200 0.95320 0.24330 0.07700
C 	C 	0.83936 0.93274 0.26650 0.05500
C 	C 	0.86124 0.96774 0.26480 0.07200
C 	C 	0.85470 0.90054 0.28200 -0.12800
H 	H 	0.87930 0.90130 0.29190 0.07000
C 	C 	0.89952 0.96690 0.26260 -0.12600
H 	H 	0.91220 0.94360 0.26170 0.06800
C 	C 	0.98130 0.97160 0.27400 -0.03500
H 	H 	0.96850 0.95060 0.28410 0.03600
C 	C 	0.97930 0.97420 0.23900 -0.03800
H 	H 	0.96560 0.95680 0.22440 0.03900
O 	O 	0.25145 0.17087 0.25210 -0.52300
O 	O 	0.20683 0.19532 0.28780 -0.53400
C 	C 	0.22117 0.16936 0.26978 0.46200
C 	C 	0.20091 0.13354 0.26878 -0.16900
C 	C 	0.21657 0.10163 0.25420 0.07900
H 	H 	0.24130 0.10230 0.24460 0.01500
C 	C 	0.16476 0.13185 0.28340 0.07800
H 	H 	0.15380 0.15340 0.29430 0.01500
C 	C 	0.19674 0.06873 0.25320 -0.12400
H 	H 	0.20800 0.04680 0.24330 0.07700
C 	C 	0.16064 0.06726 0.26650 0.05500
C 	C 	0.13876 0.03226 0.26480 0.07300
C 	C 	0.14530 0.09946 0.28200 -0.12800
H 	H 	0.12070 0.09870 0.29190 0.07000
C 	C 	0.10048 0.03310 0.26260 -0.12700
H 	H 	0.08780 0.05640 0.26170 0.06800
C 	C 	0.01870 0.02840 0.27400 -0.03100
H 	H 	0.03150 0.04940 0.28410 0.03500
C 	C 	0.02070 0.02580 0.23900 -0.03700
H 	H 	0.03440 0.04320 0.22440 0.03900
O 	O 	0.25145 0.82913 0.74790 -0.52300
O 	O 	0.20683 0.80468 0.71220 -0.53400
C 	C 	0.22117 0.83064 0.73022 0.46200
C 	C 	0.20091 0.86646 0.73122 -0.17000
C 	C 	0.21657 0.89837 0.74580 0.07900
H 	H 	0.24130 0.89770 0.75540 0.01500
C 	C 	0.16476 0.86815 0.71660 0.07800
H 	H 	0.15380 0.84660 0.70570 0.01500
C 	C 	0.19674 0.93127 0.74680 -0.12400
H 	H 	0.20800 0.95320 0.75670 0.07700
C 	C 	0.16064 0.93274 0.73350 0.05500
C 	C 	0.13876 0.96774 0.73520 0.07200
C 	C 	0.14530 0.90054 0.71800 -0.12800
H 	H 	0.12070 0.90130 0.70810 0.07000
C 	C 	0.10048 0.96690 0.73740 -0.12700
H 	H 	0.08780 0.94360 0.73830 0.06800
C 	C 	0.01870 0.97160 0.72600 -0.03100
H 	H 	0.03150 0.95060 0.71590 0.03500
C 	C 	0.02070 0.97420 0.76100 -0.03700
H 	H 	0.03440 0.95680 0.77560 0.03900
O 	O 	0.24790 0.32913 0.75145 -0.52300
O 	O 	0.21220 0.30468 0.70683 -0.53400
C 	C 	0.23022 0.33064 0.72117 0.46200
C 	C 	0.23122 0.36646 0.70091 -0.17000
C 	C 	0.24580 0.39837 0.71657 0.07900
H 	H 	0.25540 0.39770 0.74130 0.01500
C 	C 	0.21660 0.36815 0.66476 0.07800
H 	H 	0.20570 0.34660 0.65380 0.01500
C 	C 	0.24680 0.43127 0.69674 -0.12400
H 	H 	0.25670 0.45320 0.70800 0.07700
C 	C 	0.23350 0.43274 0.66064 0.05500
C 	C 	0.23520 0.46774 0.63876 0.07200
C 	C 	0.21800 0.40054 0.64530 -0.12800
H 	H 	0.20810 0.40130 0.62070 0.07000
C 	C 	0.23740 0.46690 0.60048 -0.12600
H 	H 	0.23830 0.44360 0.58780 0.06800
C 	C 	0.22600 0.47160 0.51870 -0.03300
H 	H 	0.21590 0.45060 0.53150 0.03600
C 	C 	0.26100 0.47420 0.52070 -0.03700
H 	H 	0.27560 0.45680 0.53440 0.03900
O 	O 	0.75210 0.67087 0.75145 -0.52300
O 	O 	0.78780 0.69532 0.70683 -0.53400
C 	C 	0.76978 0.66936 0.72117 0.46200
C 	C 	0.76878 0.63354 0.70091 -0.17000
C 	C 	0.75420 0.60163 0.71657 0.07900
H 	H 	0.74460 0.60230 0.74130 0.01500
C 	C 	0.78340 0.63185 0.66476 0.07800
H 	H 	0.79430 0.65340 0.65380 0.01400
C 	C 	0.75320 0.56873 0.69674 -0.12400
H 	H 	0.74330 0.54680 0.70800 0.07700
C 	C 	0.76650 0.56726 0.66064 0.05500
C 	C 	0.76480 0.53226 0.63876 0.07200
C 	C 	0.78200 0.59946 0.64530 -0.12800
H 	H 	0.79190 0.59870 0.62070 0.07000
C 	C 	0.76260 0.53310 0.60048 -0.12600
H 	H 	0.76170 0.55640 0.58780 0.06800
C 	C 	0.77400 0.52840 0.51870 -0.03300
H 	H 	0.78410 0.54940 0.53150 0.03600
C 	C 	0.73900 0.52580 0.52070 -0.03700
H 	H 	0.72440 0.54320 0.53440 0.03900
O 	O 	0.75210 0.32913 0.24855 -0.52300
O 	O 	0.78780 0.30468 0.29317 -0.53400
C 	C 	0.76978 0.33064 0.27883 0.46200
C 	C 	0.76878 0.36646 0.29909 -0.17000
C 	C 	0.75420 0.39837 0.28343 0.07900
H 	H 	0.74460 0.39770 0.25870 0.01500
C 	C 	0.78340 0.36815 0.33524 0.07800
H 	H 	0.79430 0.34660 0.34620 0.01400
C 	C 	0.75320 0.43127 0.30326 -0.12400
H 	H 	0.74330 0.45320 0.29200 0.07700
C 	C 	0.76650 0.43274 0.33936 0.05500
C 	C 	0.76480 0.46774 0.36124 0.07200
C 	C 	0.78200 0.40054 0.35470 -0.12800
H 	H 	0.79190 0.40130 0.37930 0.07000
C 	C 	0.76260 0.46690 0.39952 -0.12600
H 	H 	0.76170 0.44360 0.41220 0.06800
C 	C 	0.77400 0.47160 0.48130 -0.03300
H 	H 	0.78410 0.45060 0.46850 0.03600
C 	C 	0.73900 0.47420 0.47930 -0.03700
H 	H 	0.72440 0.45680 0.46560 0.03900
O 	O 	0.24790 0.67087 0.24855 -0.52300
O 	O 	0.21220 0.69532 0.29317 -0.53400
C 	C 	0.23022 0.66936 0.27883 0.46200
C 	C 	0.23122 0.63354 0.29909 -0.17000
C 	C 	0.24580 0.60163 0.28343 0.07900
H 	H 	0.25540 0.60230 0.25870 0.01500
C 	C 	0.21660 0.63185 0.33524 0.07800
H 	H 	0.20570 0.65340 0.34620 0.01500
C 	C 	0.24680 0.56873 0.30326 -0.12400
H 	H 	0.25670 0.54680 0.29200 0.07700
C 	C 	0.23350 0.56726 0.33936 0.05500
C 	C 	0.23520 0.53226 0.36124 0.07200
C 	C 	0.21800 0.59946 0.35470 -0.12800
H 	H 	0.20810 0.59870 0.37930 0.07000
C 	C 	0.23740 0.53310 0.39952 -0.12600
H 	H 	0.23830 0.55640 0.41220 0.06800
C 	C 	0.22600 0.52840 0.48130 -0.03300
H 	H 	0.21590 0.54940 0.46850 0.03600
C 	C 	0.26100 0.52580 0.47930 -0.03700
H 	H 	0.27560 0.54320 0.46560 0.03900
O 	O 	0.75145 0.24790 0.32913 -0.52300
O 	O 	0.70683 0.21220 0.30468 -0.53400
C 	C 	0.72117 0.23022 0.33064 0.46200
C 	C 	0.70091 0.23122 0.36646 -0.17000
C 	C 	0.71657 0.24580 0.39837 0.07900
H 	H 	0.74130 0.25540 0.39770 0.01500
C 	C 	0.66476 0.21660 0.36815 0.07800
H 	H 	0.65380 0.20570 0.34660 0.01500
C 	C 	0.69674 0.24680 0.43127 -0.12400
H 	H 	0.70800 0.25670 0.45320 0.07700
C 	C 	0.66064 0.23350 0.43274 0.05500
C 	C 	0.63876 0.23520 0.46774 0.07200
C 	C 	0.64530 0.21800 0.40054 -0.12800
H 	H 	0.62070 0.20810 0.40130 0.07000
C 	C 	0.60048 0.23740 0.46690 -0.12600
H 	H 	0.58780 0.23830 0.44360 0.06800
C 	C 	0.51870 0.22600 0.47160 -0.03300
H 	H 	0.53150 0.21590 0.45060 0.03600
C 	C 	0.52070 0.26100 0.47420 -0.03700
H 	H 	0.53440 0.27560 0.45680 0.03900
O 	O 	0.75145 0.75210 0.67087 -0.52300
O 	O 	0.70683 0.78780 0.69532 -0.53400
C 	C 	0.72117 0.76978 0.66936 0.46200
C 	C 	0.70091 0.76878 0.63354 -0.17000
C 	C 	0.71657 0.75420 0.60163 0.07900
H 	H 	0.74130 0.74460 0.60230 0.01500
C 	C 	0.66476 0.78340 0.63185 0.07800
H 	H 	0.65380 0.79430 0.65340 0.01400
C 	C 	0.69674 0.75320 0.56873 -0.12400
H 	H 	0.70800 0.74330 0.54680 0.07700
C 	C 	0.66064 0.76650 0.56726 0.05500
C 	C 	0.63876 0.76480 0.53226 0.07200
C 	C 	0.64530 0.78200 0.59946 -0.12800
H 	H 	0.62070 0.79190 0.59870 0.07000
C 	C 	0.60048 0.76260 0.53310 -0.12600
H 	H 	0.58780 0.76170 0.55640 0.06800
C 	C 	0.51870 0.77400 0.52840 -0.03300
H 	H 	0.53150 0.78410 0.54940 0.03600
C 	C 	0.52070 0.73900 0.52580 -0.03700
H 	H 	0.53440 0.72440 0.54320 0.03900
O 	O 	0.24855 0.75210 0.32913 -0.52300
O 	O 	0.29317 0.78780 0.30468 -0.53400
C 	C 	0.27883 0.76978 0.33064 0.46200
C 	C 	0.29909 0.76878 0.36646 -0.17000
C 	C 	0.28343 0.75420 0.39837 0.07900
H 	H 	0.25870 0.74460 0.39770 0.01500
C 	C 	0.33524 0.78340 0.36815 0.07800
H 	H 	0.34620 0.79430 0.34660 0.01400
C 	C 	0.30326 0.75320 0.43127 -0.12400
H 	H 	0.29200 0.74330 0.45320 0.07700
C 	C 	0.33936 0.76650 0.43274 0.05500
C 	C 	0.36124 0.76480 0.46774 0.07200
C 	C 	0.35470 0.78200 0.40054 -0.12800
H 	H 	0.37930 0.79190 0.40130 0.07000
C 	C 	0.39952 0.76260 0.46690 -0.12600
H 	H 	0.41220 0.76170 0.44360 0.06800
C 	C 	0.48130 0.77400 0.47160 -0.03300
H 	H 	0.46850 0.78410 0.45060 0.03600
C 	C 	0.47930 0.73900 0.47420 -0.03700
H 	H 	0.46560 0.72440 0.45680 0.03900
O 	O 	0.24855 0.24790 0.67087 -0.52300
O 	O 	0.29317 0.21220 0.69532 -0.53400
C 	C 	0.27883 0.23022 0.66936 0.46200
C 	C 	0.29909 0.23122 0.63354 -0.17000
C 	C 	0.28343 0.24580 0.60163 0.07900
H 	H 	0.25870 0.25540 0.60230 0.01500
C 	C 	0.33524 0.21660 0.63185 0.07800
H 	H 	0.34620 0.20570 0.65340 0.01500
C 	C 	0.30326 0.24680 0.56873 -0.12400
H 	H 	0.29200 0.25670 0.54680 0.07700
C 	C 	0.33936 0.23350 0.56726 0.05500
C 	C 	0.36124 0.23520 0.53226 0.07200
C 	C 	0.35470 0.21800 0.59946 -0.12800
H 	H 	0.37930 0.20810 0.59870 0.07000
C 	C 	0.39952 0.23740 0.53310 -0.12600
H 	H 	0.41220 0.23830 0.55640 0.06800
C 	C 	0.48130 0.22600 0.52840 -0.03300
H 	H 	0.46850 0.21590 0.54940 0.03600
C 	C 	0.47930 0.26100 0.52580 -0.03700
H 	H 	0.46560 0.27560 0.54320 0.03900
O 	O 	0.32913 0.75145 0.24790 -0.52300
O 	O 	0.30468 0.70683 0.21220 -0.53400
C 	C 	0.33064 0.72117 0.23022 0.46200
C 	C 	0.36646 0.70091 0.23122 -0.17000
C 	C 	0.39837 0.71657 0.24580 0.07900
H 	H 	0.39770 0.74130 0.25540 0.01500
C 	C 	0.36815 0.66476 0.21660 0.07800
H 	H 	0.34660 0.65380 0.20570 0.01500
C 	C 	0.43127 0.69674 0.24680 -0.12400
H 	H 	0.45320 0.70800 0.25670 0.07700
C 	C 	0.43274 0.66064 0.23350 0.05500
C 	C 	0.46774 0.63876 0.23520 0.07200
C 	C 	0.40054 0.64530 0.21800 -0.12800
H 	H 	0.40130 0.62070 0.20810 0.07000
C 	C 	0.46690 0.60048 0.23740 -0.12600
H 	H 	0.44360 0.58780 0.23830 0.06800
C 	C 	0.47160 0.51870 0.22600 -0.03300
H 	H 	0.45060 0.53150 0.21590 0.03600
C 	C 	0.47420 0.52070 0.26100 -0.03700
H 	H 	0.45680 0.53440 0.27560 0.03900
O 	O 	0.67087 0.75145 0.75210 -0.52300
O 	O 	0.69532 0.70683 0.78780 -0.53400
C 	C 	0.66936 0.72117 0.76978 0.46200
C 	C 	0.63354 0.70091 0.76878 -0.17000
C 	C 	0.60163 0.71657 0.75420 0.07900
H 	H 	0.60230 0.74130 0.74460 0.01500
C 	C 	0.63185 0.66476 0.78340 0.07800
H 	H 	0.65340 0.65380 0.79430 0.01400
C 	C 	0.56873 0.69674 0.75320 -0.12400
H 	H 	0.54680 0.70800 0.74330 0.07700
C 	C 	0.56726 0.66064 0.76650 0.05500
C 	C 	0.53226 0.63876 0.76480 0.07200
C 	C 	0.59946 0.64530 0.78200 -0.12800
H 	H 	0.59870 0.62070 0.79190 0.07000
C 	C 	0.53310 0.60048 0.76260 -0.12600
H 	H 	0.55640 0.58780 0.76170 0.06800
C 	C 	0.52840 0.51870 0.77400 -0.03300
H 	H 	0.54940 0.53150 0.78410 0.03600
C 	C 	0.52580 0.52070 0.73900 -0.03700
H 	H 	0.54320 0.53440 0.72440 0.03900
O 	O 	0.32913 0.24855 0.75210 -0.52300
O 	O 	0.30468 0.29317 0.78780 -0.53400
C 	C 	0.33064 0.27883 0.76978 0.46200
C 	C 	0.36646 0.29909 0.76878 -0.17000
C 	C 	0.39837 0.28343 0.75420 0.07900
H 	H 	0.39770 0.25870 0.74460 0.01500
C 	C 	0.36815 0.33524 0.78340 0.07800
H 	H 	0.34660 0.34620 0.79430 0.01400
C 	C 	0.43127 0.30326 0.75320 -0.12400
H 	H 	0.45320 0.29200 0.74330 0.07700
C 	C 	0.43274 0.33936 0.76650 0.05500
C 	C 	0.46774 0.36124 0.76480 0.07200
C 	C 	0.40054 0.35470 0.78200 -0.12800
H 	H 	0.40130 0.37930 0.79190 0.07000
C 	C 	0.46690 0.39952 0.76260 -0.12600
H 	H 	0.44360 0.41220 0.76170 0.06800
C 	C 	0.47160 0.48130 0.77400 -0.03300
H 	H 	0.45060 0.46850 0.78410 0.03600
C 	C 	0.47420 0.47930 0.73900 -0.03700
H 	H 	0.45680 0.46560 0.72440 0.03900
O 	O 	0.67087 0.24855 0.24790 -0.52300
O 	O 	0.69532 0.29317 0.21220 -0.53400
C 	C 	0.66936 0.27883 0.23022 0.46200
C 	C 	0.63354 0.29909 0.23122 -0.17000
C 	C 	0.60163 0.28343 0.24580 0.07900
H 	H 	0.60230 0.25870 0.25540 0.01500
C 	C 	0.63185 0.33524 0.21660 0.07800
H 	H 	0.65340 0.34620 0.20570 0.01500
C 	C 	0.56873 0.30326 0.24680 -0.12400
H 	H 	0.54680 0.29200 0.25670 0.07700
C 	C 	0.56726 0.33936 0.23350 0.05500
C 	C 	0.53226 0.36124 0.23520 0.07200
C 	C 	0.59946 0.35470 0.21800 -0.12800
H 	H 	0.59870 0.37930 0.20810 0.07000
C 	C 	0.53310 0.39952 0.23740 -0.12600
H 	H 	0.55640 0.41220 0.23830 0.06800
C 	C 	0.52840 0.48130 0.22600 -0.03300
H 	H 	0.54940 0.46850 0.21590 0.03600
C 	C 	0.52580 0.47930 0.26100 -0.03700
H 	H 	0.54320 0.46560 0.27560 0.03900
O 	O 	0.82913 0.74790 0.74855 -0.52300
O 	O 	0.80468 0.71220 0.79317 -0.53400
C 	C 	0.83064 0.73022 0.77883 0.46200
C 	C 	0.86646 0.73122 0.79909 -0.17000
C 	C 	0.89837 0.74580 0.78343 0.07900
H 	H 	0.89770 0.75540 0.75870 0.01500
C 	C 	0.86815 0.71660 0.83524 0.07800
H 	H 	0.84660 0.70570 0.84620 0.01400
C 	C 	0.93127 0.74680 0.80326 -0.12500
H 	H 	0.95320 0.75670 0.79200 0.07700
C 	C 	0.93274 0.73350 0.83936 0.05500
C 	C 	0.96774 0.73520 0.86124 0.07200
C 	C 	0.90054 0.71800 0.85470 -0.12800
H 	H 	0.90130 0.70810 0.87930 0.07000
C 	C 	0.96690 0.73740 0.89952 -0.12600
H 	H 	0.94360 0.73830 0.91220 0.06800
C 	C 	0.97160 0.72600 0.98130 -0.03500
H 	H 	0.95060 0.71590 0.96850 0.03600
C 	C 	0.97420 0.76100 0.97930 -0.03800
H 	H 	0.95680 0.77560 0.96560 0.03900
O 	O 	0.17087 0.25210 0.74855 -0.52300
O 	O 	0.19532 0.28780 0.79317 -0.53400
C 	C 	0.16936 0.26978 0.77883 0.46200
C 	C 	0.13354 0.26878 0.79909 -0.17000
C 	C 	0.10163 0.25420 0.78343 0.07900
H 	H 	0.10230 0.24460 0.75870 0.01500
C 	C 	0.13185 0.28340 0.83524 0.07800
H 	H 	0.15340 0.29430 0.84620 0.01400
C 	C 	0.06873 0.25320 0.80326 -0.12400
H 	H 	0.04680 0.24330 0.79200 0.07700
C 	C 	0.06726 0.26650 0.83936 0.05500
C 	C 	0.03226 0.26480 0.86124 0.07200
C 	C 	0.09946 0.28200 0.85470 -0.12800
H 	H 	0.09870 0.29190 0.87930 0.07000
C 	C 	0.03310 0.26260 0.89952 -0.12600
H 	H 	0.05640 0.26170 0.91220 0.06800
C 	C 	0.02840 0.27400 0.98130 -0.03500
H 	H 	0.04940 0.28410 0.96850 0.03600
C 	C 	0.02580 0.23900 0.97930 -0.03700
H 	H 	0.04320 0.22440 0.96560 0.03900
O 	O 	0.82913 0.25210 0.25145 -0.52300
O 	O 	0.80468 0.28780 0.20683 -0.53400
C 	C 	0.83064 0.26978 0.22117 0.46200
C 	C 	0.86646 0.26878 0.20091 -0.17000
C 	C 	0.89837 0.25420 0.21657 0.07900
H 	H 	0.89770 0.24460 0.24130 0.01500
C 	C 	0.86815 0.28340 0.16476 0.07800
H 	H 	0.84660 0.29430 0.15380 0.01500
C 	C 	0.93127 0.25320 0.19674 -0.12400
H 	H 	0.95320 0.24330 0.20800 0.07700
C 	C 	0.93274 0.26650 0.16064 0.05500
C 	C 	0.96774 0.26480 0.13876 0.07200
C 	C 	0.90054 0.28200 0.14530 -0.12800
H 	H 	0.90130 0.29190 0.12070 0.07000
C 	C 	0.96690 0.26260 0.10048 -0.12700
H 	H 	0.94360 0.26170 0.08780 0.06800
C 	C 	0.97160 0.27400 0.01870 -0.03100
H 	H 	0.95060 0.28410 0.03150 0.03500
C 	C 	0.97420 0.23900 0.02070 -0.03700
H 	H 	0.95680 0.22440 0.03440 0.03900
O 	O 	0.17087 0.74790 0.25145 -0.52300
O 	O 	0.19532 0.71220 0.20683 -0.53400
C 	C 	0.16936 0.73022 0.22117 0.46200
C 	C 	0.13354 0.73122 0.20091 -0.16900
C 	C 	0.10163 0.74580 0.21657 0.07900
H 	H 	0.10230 0.75540 0.24130 0.01500
C 	C 	0.13185 0.71660 0.16476 0.07800
H 	H 	0.15340 0.70570 0.15380 0.01500
C 	C 	0.06873 0.74680 0.19674 -0.12400
H 	H 	0.04680 0.75670 0.20800 0.07700
C 	C 	0.06726 0.73350 0.16064 0.05500
C 	C 	0.03226 0.73520 0.13876 0.07300
C 	C 	0.09946 0.71800 0.14530 -0.12800
H 	H 	0.09870 0.70810 0.12070 0.07000
C 	C 	0.03310 0.73740 0.10048 -0.12700
H 	H 	0.05640 0.73830 0.08780 0.06800
C 	C 	0.02840 0.72600 0.01870 -0.03100
H 	H 	0.04940 0.71590 0.03150 0.03500
C 	C 	0.02580 0.76100 0.02070 -0.03700
H 	H 	0.04320 0.77560 0.03440 0.03900
O 	O 	0.74790 0.25145 0.17087 -0.52300
O 	O 	0.71220 0.20683 0.19532 -0.53400
C 	C 	0.73022 0.22117 0.16936 0.46200
C 	C 	0.73122 0.20091 0.13354 -0.16900
C 	C 	0.74580 0.21657 0.10163 0.07900
H 	H 	0.75540 0.24130 0.10230 0.01500
C 	C 	0.71660 0.16476 0.13185 0.07800
H 	H 	0.70570 0.15380 0.15340 0.01500
C 	C 	0.74680 0.19674 0.06873 -0.12400
H 	H 	0.75670 0.20800 0.04680 0.07700
C 	C 	0.73350 0.16064 0.06726 0.05500
C 	C 	0.73520 0.13876 0.03226 0.07300
C 	C 	0.71800 0.14530 0.09946 -0.12800
H 	H 	0.70810 0.12070 0.09870 0.07000
C 	C 	0.73740 0.10048 0.03310 -0.12700
H 	H 	0.73830 0.08780 0.05640 0.06800
C 	C 	0.72600 0.01870 0.02840 -0.03100
H 	H 	0.71590 0.03150 0.04940 0.03500
C 	C 	0.76100 0.02070 0.02580 -0.03700
H 	H 	0.77560 0.03440 0.04320 0.03900
O 	O 	0.25210 0.25145 0.82913 -0.52300
O 	O 	0.28780 0.20683 0.80468 -0.53400
C 	C 	0.26978 0.22117 0.83064 0.46200
C 	C 	0.26878 0.20091 0.86646 -0.17000
C 	C 	0.25420 0.21657 0.89837 0.07900
H 	H 	0.24460 0.24130 0.89770 0.01500
C 	C 	0.28340 0.16476 0.86815 0.07800
H 	H 	0.29430 0.15380 0.84660 0.01500
C 	C 	0.25320 0.19674 0.93127 -0.12400
H 	H 	0.24330 0.20800 0.95320 0.07700
C 	C 	0.26650 0.16064 0.93274 0.05500
C 	C 	0.26480 0.13876 0.96774 0.07200
C 	C 	0.28200 0.14530 0.90054 -0.12800
H 	H 	0.29190 0.12070 0.90130 0.07000
C 	C 	0.26260 0.10048 0.96690 -0.12700
H 	H 	0.26170 0.08780 0.94360 0.06800
C 	C 	0.27400 0.01870 0.97160 -0.03100
H 	H 	0.28410 0.03150 0.95060 0.03500
C 	C 	0.23900 0.02070 0.97420 -0.03700
H 	H 	0.22440 0.03440 0.95680 0.03900
O 	O 	0.25210 0.74855 0.17087 -0.52300
O 	O 	0.28780 0.79317 0.19532 -0.53400
C 	C 	0.26978 0.77883 0.16936 0.46200
C 	C 	0.26878 0.79909 0.13354 -0.17000
C 	C 	0.25420 0.78343 0.10163 0.07900
H 	H 	0.24460 0.75870 0.10230 0.01500
C 	C 	0.28340 0.83524 0.13185 0.07800
H 	H 	0.29430 0.84620 0.15340 0.01400
C 	C 	0.25320 0.80326 0.06873 -0.12400
H 	H 	0.24330 0.79200 0.04680 0.07700
C 	C 	0.26650 0.83936 0.06726 0.05500
C 	C 	0.26480 0.86124 0.03226 0.07200
C 	C 	0.28200 0.85470 0.09946 -0.12800
H 	H 	0.29190 0.87930 0.09870 0.07000
C 	C 	0.26260 0.89952 0.03310 -0.12600
H 	H 	0.26170 0.91220 0.05640 0.06800
C 	C 	0.27400 0.98130 0.02840 -0.03500
H 	H 	0.28410 0.96850 0.04940 0.03600
C 	C 	0.23900 0.97930 0.02580 -0.03700
H 	H 	0.22440 0.96560 0.04320 0.03900
O 	O 	0.74790 0.74855 0.82913 -0.52300
O 	O 	0.71220 0.79317 0.80468 -0.53400
C 	C 	0.73022 0.77883 0.83064 0.46200
C 	C 	0.73122 0.79909 0.86646 -0.17000
C 	C 	0.74580 0.78343 0.89837 0.07900
H 	H 	0.75540 0.75870 0.89770 0.01500
C 	C 	0.71660 0.83524 0.86815 0.07800
H 	H 	0.70570 0.84620 0.84660 0.01400
C 	C 	0.74680 0.80326 0.93127 -0.12500
H 	H 	0.75670 0.79200 0.95320 0.07700
C 	C 	0.73350 0.83936 0.93274 0.05500
C 	C 	0.73520 0.86124 0.96774 0.07200
C 	C 	0.71800 0.85470 0.90054 -0.12800
H 	H 	0.70810 0.87930 0.90130 0.07000
C 	C 	0.73740 0.89952 0.96690 -0.12600
H 	H 	0.73830 0.91220 0.94360 0.06800
C 	C 	0.72600 0.98130 0.97160 -0.03500
H 	H 	0.71590 0.96850 0.95060 0.03600
C 	C 	0.76100 0.97930 0.97420 -0.03800
H 	H 	0.77560 0.96560 0.95680 0.03900
O 	O 	0.25145 0.82913 0.25210 -0.52300
O 	O 	0.20683 0.80468 0.28780 -0.53400
C 	C 	0.22117 0.83064 0.26978 0.46200
C 	C 	0.20091 0.86646 0.26878 -0.17000
C 	C 	0.21657 0.89837 0.25420 0.07900
H 	H 	0.24130 0.89770 0.24460 0.01500
C 	C 	0.16476 0.86815 0.28340 0.07800
H 	H 	0.15380 0.84660 0.29430 0.01500
C 	C 	0.19674 0.93127 0.25320 -0.12400
H 	H 	0.20800 0.95320 0.24330 0.07700
C 	C 	0.16064 0.93274 0.26650 0.05500
C 	C 	0.13876 0.96774 0.26480 0.07200
C 	C 	0.14530 0.90054 0.28200 -0.12800
H 	H 	0.12070 0.90130 0.29190 0.07000
C 	C 	0.10048 0.96690 0.26260 -0.12700
H 	H 	0.08780 0.94360 0.26170 0.06800
C 	C 	0.01870 0.97160 0.27400 -0.03100
H 	H 	0.03150 0.95060 0.28410 0.03500
C 	C 	0.02070 0.97420 0.23900 -0.03700
H 	H 	0.03440 0.95680 0.22440 0.03900
O 	O 	0.25145 0.17087 0.74790 -0.52300
O 	O 	0.20683 0.19532 0.71220 -0.53400
C 	C 	0.22117 0.16936 0.73022 0.46200
C 	C 	0.20091 0.13354 0.73122 -0.16900
C 	C 	0.21657 0.10163 0.74580 0.07900
H 	H 	0.24130 0.10230 0.75540 0.01500
C 	C 	0.16476 0.13185 0.71660 0.07800
H 	H 	0.15380 0.15340 0.70570 0.01500
C 	C 	0.19674 0.06873 0.74680 -0.12400
H 	H 	0.20800 0.04680 0.75670 0.07700
C 	C 	0.16064 0.06726 0.73350 0.05500
C 	C 	0.13876 0.03226 0.73520 0.07300
C 	C 	0.14530 0.09946 0.71800 -0.12800
H 	H 	0.12070 0.09870 0.70810 0.07000
C 	C 	0.10048 0.03310 0.73740 -0.12700
H 	H 	0.08780 0.05640 0.73830 0.06800
C 	C 	0.01870 0.02840 0.72600 -0.03100
H 	H 	0.03150 0.04940 0.71590 0.03500
C 	C 	0.02070 0.02580 0.76100 -0.03700
H 	H 	0.03440 0.04320 0.77560 0.03900
O 	O 	0.74855 0.82913 0.74790 -0.52300
O 	O 	0.79317 0.80468 0.71220 -0.53400
C 	C 	0.77883 0.83064 0.73022 0.46200
C 	C 	0.79909 0.86646 0.73122 -0.17000
C 	C 	0.78343 0.89837 0.74580 0.07900
H 	H 	0.75870 0.89770 0.75540 0.01500
C 	C 	0.83524 0.86815 0.71660 0.07800
H 	H 	0.84620 0.84660 0.70570 0.01400
C 	C 	0.80326 0.93127 0.74680 -0.12500
H 	H 	0.79200 0.95320 0.75670 0.07700
C 	C 	0.83936 0.93274 0.73350 0.05500
C 	C 	0.86124 0.96774 0.73520 0.07200
C 	C 	0.85470 0.90054 0.71800 -0.12800
H 	H 	0.87930 0.90130 0.70810 0.07000
C 	C 	0.89952 0.96690 0.73740 -0.12600
H 	H 	0.91220 0.94360 0.73830 0.06800
C 	C 	0.98130 0.97160 0.72600 -0.03500
H 	H 	0.96850 0.95060 0.71590 0.03600
C 	C 	0.97930 0.97420 0.76100 -0.03800
H 	H 	0.96560 0.95680 0.77560 0.03900
O 	O 	0.74855 0.17087 0.25210 -0.52300
O 	O 	0.79317 0.19532 0.28780 -0.53400
C 	C 	0.77883 0.16936 0.26978 0.46200
C 	C 	0.79909 0.13354 0.26878 -0.17000
C 	C 	0.78343 0.10163 0.25420 0.07900
H 	H 	0.75870 0.10230 0.24460 0.01500
C 	C 	0.83524 0.13185 0.28340 0.07800
H 	H 	0.84620 0.15340 0.29430 0.01400
C 	C 	0.80326 0.06873 0.25320 -0.12400
H 	H 	0.79200 0.04680 0.24330 0.07700
C 	C 	0.83936 0.06726 0.26650 0.05500
C 	C 	0.86124 0.03226 0.26480 0.07200
C 	C 	0.85470 0.09946 0.28200 -0.12800
H 	H 	0.87930 0.09870 0.29190 0.07000
C 	C 	0.89952 0.03310 0.26260 -0.12600
H 	H 	0.91220 0.05640 0.26170 0.06800
C 	C 	0.98130 0.02840 0.27400 -0.03500
H 	H 	0.96850 0.04940 0.28410 0.03600
C 	C 	0.97930 0.02580 0.23900 -0.03700
H 	H 	0.96560 0.04320 0.22440 0.03900
Cr	Cr	0.75000 0.71250 0.21250 1.55500
Cr	Cr	0.25000 0.28750 0.21250 1.55500
Cr	Cr	0.25000 0.71250 0.78750 1.55500
Cr	Cr	0.75000 0.28750 0.78750 1.55500
Cr	Cr	0.21250 0.75000 0.71250 1.55500
Cr	Cr	0.21250 0.25000 0.28750 1.55500
Cr	Cr	0.78750 0.25000 0.71250 1.55500
Cr	Cr	0.78750 0.75000 0.28750 1.55500
Cr	Cr	0.71250 0.21250 0.75000 1.55500
Cr	Cr	0.28750 0.21250 0.25000 1.55500
Cr	Cr	0.71250 0.78750 0.25000 1.55500
Cr	Cr	0.28750 0.78750 0.75000 1.55500
Cr	Cr	0.25000 0.28750 0.78750 1.55500
Cr	Cr	0.75000 0.71250 0.78750 1.55500
Cr	Cr	0.75000 0.28750 0.21250 1.55500
Cr	Cr	0.25000 0.71250 0.21250 1.55500
Cr	Cr	0.78750 0.25000 0.28750 1.55500
Cr	Cr	0.78750 0.75000 0.71250 1.55500
Cr	Cr	0.21250 0.75000 0.28750 1.55500
Cr	Cr	0.21250 0.25000 0.71250 1.55500
Cr	Cr	0.28750 0.78750 0.25000 1.55500
Cr	Cr	0.71250 0.78750 0.75000 1.55500
Cr	Cr	0.28750 0.21250 0.75000 1.55500
Cr	Cr	0.71250 0.21250 0.25000 1.55500
O 	O 	0.75000 0.75000 0.25000 -0.82000
O 	O 	0.25000 0.25000 0.25000 -0.82000
O 	O 	0.25000 0.75000 0.75000 -0.82000
O 	O 	0.75000 0.25000 0.75000 -0.82000
O 	O 	0.25000 0.25000 0.75000 -0.82000
O 	O 	0.75000 0.75000 0.75000 -0.82000
O 	O 	0.75000 0.25000 0.25000 -0.82000
O 	O 	0.25000 0.75000 0.25000 -0.82000
N 	N 	0.76520 0.50000 0.34202 -0.13000
C 	C 	0.76160 0.50000 0.41990 0.06000
C 	C 	0.76060 0.50000 0.46120 0.00700
N 	N 	0.23480 0.50000 0.34202 -0.13000
C 	C 	0.23840 0.50000 0.41990 0.06000
C 	C 	0.23940 0.50000 0.46120 0.00700
N 	N 	0.23480 0.50000 0.65798 -0.13000
C 	C 	0.23840 0.50000 0.58010 0.06000
C 	C 	0.23940 0.50000 0.53880 0.00700
N 	N 	0.76520 0.50000 0.65798 -0.13100
C 	C 	0.76160 0.50000 0.58010 0.06000
C 	C 	0.76060 0.50000 0.53880 0.00700
N 	N 	0.34202 0.76520 0.50000 -0.13000
C 	C 	0.41990 0.76160 0.50000 0.06000
C 	C 	0.46120 0.76060 0.50000 0.00700
N 	N 	0.34202 0.23480 0.50000 -0.13000
C 	C 	0.41990 0.23840 0.50000 0.06000
C 	C 	0.46120 0.23940 0.50000 0.00700
N 	N 	0.65798 0.23480 0.50000 -0.13000
C 	C 	0.58010 0.23840 0.50000 0.06000
C 	C 	0.53880 0.23940 0.50000 0.00700
N 	N 	0.65798 0.76520 0.50000 -0.13100
C 	C 	0.58010 0.76160 0.50000 0.06000
C 	C 	0.53880 0.76060 0.50000 0.00700
N 	N 	0.50000 0.34202 0.76520 -0.13000
C 	C 	0.50000 0.41990 0.76160 0.06000
C 	C 	0.50000 0.46120 0.76060 0.00700
N 	N 	0.50000 0.34202 0.23480 -0.13000
C 	C 	0.50000 0.41990 0.23840 0.06000
C 	C 	0.50000 0.46120 0.23940 0.00700
N 	N 	0.50000 0.65798 0.23480 -0.13000
C 	C 	0.50000 0.58010 0.23840 0.06000
C 	C 	0.50000 0.53880 0.23940 0.00700
N 	N 	0.50000 0.65798 0.76520 -0.13100
C 	C 	0.50000 0.58010 0.76160 0.06000
C 	C 	0.50000 0.53880 0.76060 0.00700
N 	N 	0.00000 0.26520 0.15798 -0.13000
C 	C 	0.00000 0.26160 0.08010 0.06100
C 	C 	-0.00000 0.26060 0.03880 0.00600
N 	N 	0.00000 0.73480 0.15798 -0.13000
C 	C 	-0.00000 0.73840 0.08010 0.06100
C 	C 	-0.00000 0.73940 0.03880 0.00600
N 	N 	-0.00000 0.73480 0.84202 -0.13000
C 	C 	0.00000 0.73840 0.91990 0.05900
C 	C 	0.00000 0.73940 0.96120 0.01000
N 	N 	-0.00000 0.26520 0.84202 -0.13000
C 	C 	-0.00000 0.26160 0.91990 0.05900
C 	C 	0.00000 0.26060 0.96120 0.01000
N 	N 	0.26520 0.84202 -0.00000 -0.13000
C 	C 	0.26160 0.91990 -0.00000 0.05900
C 	C 	0.26060 0.96120 -0.00000 0.01000
N 	N 	0.73480 0.84202 -0.00000 -0.13000
C 	C 	0.73840 0.91990 -0.00000 0.05900
C 	C 	0.73940 0.96120 -0.00000 0.01000
N 	N 	0.73480 0.15798 -0.00000 -0.13000
C 	C 	0.73840 0.08010 -0.00000 0.06100
C 	C 	0.73940 0.03880 -0.00000 0.00600
N 	N 	0.26520 0.15798 -0.00000 -0.13000
C 	C 	0.26160 0.08010 -0.00000 0.06100
C 	C 	0.26060 0.03880 -0.00000 0.00600
N 	N 	0.84202 0.00000 0.73480 -0.13000
C 	C 	0.91990 0.00000 0.73840 0.05900
C 	C 	0.96120 0.00000 0.73940 0.01000
N 	N 	0.84202 0.00000 0.26520 -0.13000
C 	C 	0.91990 0.00000 0.26160 0.05900
C 	C 	0.96120 0.00000 0.26060 0.01000
N 	N 	0.15798 0.00000 0.26520 -0.13000
C 	C 	0.08010 0.00000 0.26160 0.06100
C 	C 	0.03880 0.00000 0.26060 0.00600
N 	N 	0.15798 0.00000 0.73480 -0.13000
C 	C 	0.08010 0.00000 0.73840 0.06100
C 	C 	0.03880 0.00000 0.73940 0.00600
