data_crystal

_cell_length_a 10.29000
_cell_length_b 10.29000
_cell_length_c 14.50000
_cell_angle_alpha 90.00000
_cell_angle_beta  90.00000
_cell_angle_gamma 90.00000

_symmetry_space_group_name_	'P 1'
_symmetry_space_group_name_H-M	'P 1'

loop_
_symmetry_equiv_pos_as_xyz
  x,y,z

loop_
_atom_site_label
_atom_site_type_symbol
_atom_site_fract_x
_atom_site_fract_y
_atom_site_fract_z
_atom_site_charge
Y 	Y 	0.85085 0.14915 0.62500 2.39300
Y 	Y 	0.14915 0.85085 0.12500 2.39200
Y 	Y 	0.85085 0.85085 0.87500 2.39600
Y 	Y 	0.14915 0.14915 0.37500 2.38900
H 	H 	0.55850 0.07620 0.37680 -0.03200
H 	H 	0.44150 0.92380 0.87680 -0.03500
H 	H 	0.92380 0.55850 0.62680 -0.03300
H 	H 	0.07620 0.44150 0.12680 -0.03600
H 	H 	0.44150 0.07620 0.62320 -0.03400
H 	H 	0.55850 0.92380 0.12320 -0.03700
H 	H 	0.07620 0.55850 0.37320 -0.03100
H 	H 	0.92380 0.44150 0.87320 -0.04100
H 	H 	0.89970 0.00000 0.25000 -0.03600
H 	H 	0.10030 0.00000 0.75000 -0.05700
H 	H 	-0.00000 0.89970 0.50000 -0.03600
H 	H 	-0.00000 0.10030 -0.00000 -0.06000
C 	C 	0.60460 0.04490 0.32630 0.20600
C 	C 	0.73920 0.04320 0.32760 -0.26100
C 	C 	0.81620 0.08850 0.40980 0.53100
C 	C 	0.39540 0.95510 0.82630 0.24300
C 	C 	0.26080 0.95680 0.82760 -0.24300
C 	C 	0.18380 0.91150 0.90980 0.53600
C 	C 	0.95510 0.60460 0.57630 0.23400
C 	C 	0.95680 0.73920 0.57760 -0.23400
C 	C 	0.91150 0.81620 0.65980 0.53100
C 	C 	0.04490 0.39540 0.07630 0.21400
C 	C 	0.04320 0.26080 0.07760 -0.27700
C 	C 	0.08850 0.18380 0.15980 0.53700
C 	C 	0.39540 0.04490 0.67370 0.21100
C 	C 	0.26080 0.04320 0.67240 -0.27500
C 	C 	0.18380 0.08850 0.59020 0.53700
C 	C 	0.60460 0.95510 0.17370 0.23800
C 	C 	0.73920 0.95680 0.17240 -0.23300
C 	C 	0.81620 0.91150 0.09020 0.53200
C 	C 	0.04490 0.60460 0.42370 0.20400
C 	C 	0.04320 0.73920 0.42240 -0.26100
C 	C 	0.08850 0.81620 0.34020 0.53200
C 	C 	0.95510 0.39540 0.92370 0.25700
C 	C 	0.95680 0.26080 0.92240 -0.24000
C 	C 	0.91150 0.18380 0.84020 0.53600
C 	C 	0.53980 0.00000 0.25000 -0.30800
C 	C 	0.39110 0.00000 0.25000 0.51800
C 	C 	0.80930 0.00000 0.25000 0.14700
C 	C 	0.46020 0.00000 0.75000 -0.31100
C 	C 	0.60890 0.00000 0.75000 0.51800
C 	C 	0.19070 0.00000 0.75000 0.15400
C 	C 	0.00000 0.53980 0.50000 -0.30300
C 	C 	0.00000 0.39110 0.50000 0.52100
C 	C 	0.00000 0.80930 0.50000 0.15100
C 	C 	0.00000 0.46020 -0.00000 -0.32700
C 	C 	-0.00000 0.60890 -0.00000 0.50500
C 	C 	-0.00000 0.19070 -0.00000 0.14000
O 	O 	0.75850 0.09550 0.48640 -0.60100
O 	O 	0.33620 0.07250 0.30760 -0.61600
O 	O 	0.93350 0.11270 0.39970 -0.61600
O 	O 	0.24150 0.90450 0.98640 -0.58400
O 	O 	0.66380 0.92750 0.80760 -0.58100
O 	O 	0.06650 0.88730 0.89970 -0.62500
O 	O 	0.90450 0.75850 0.73640 -0.58700
O 	O 	0.92750 0.33620 0.55760 -0.58700
O 	O 	0.88730 0.93350 0.64970 -0.59700
O 	O 	0.09550 0.24150 0.23640 -0.61000
O 	O 	0.07250 0.66380 0.05760 -0.61700
O 	O 	0.11270 0.06650 0.14970 -0.65600
O 	O 	0.24150 0.09550 0.51360 -0.60900
O 	O 	0.66380 0.07250 0.69240 -0.61400
O 	O 	0.06650 0.11270 0.60030 -0.65100
O 	O 	0.75850 0.90450 0.01360 -0.59200
O 	O 	0.33620 0.92750 0.19240 -0.58700
O 	O 	0.93350 0.88730 0.10030 -0.59700
O 	O 	0.09550 0.75850 0.26360 -0.60200
O 	O 	0.07250 0.33620 0.44240 -0.61600
O 	O 	0.11270 0.93350 0.35030 -0.61500
O 	O 	0.90450 0.24150 0.76360 -0.59500
O 	O 	0.92750 0.66380 0.94240 -0.57400
O 	O 	0.88730 0.06650 0.85030 -0.63300
