data_crystal

_cell_length_a 10.27000
_cell_length_b 10.27000
_cell_length_c 14.46000
_cell_angle_alpha 90.00000
_cell_angle_beta  90.00000
_cell_angle_gamma 90.00000

_symmetry_space_group_name_	'P 1'
_symmetry_space_group_name_H-M	'P 1'

loop_
_symmetry_equiv_pos_as_xyz
  x,y,z

loop_
_atom_site_label
_atom_site_type_symbol
_atom_site_fract_x
_atom_site_fract_y
_atom_site_fract_z
_atom_site_charge
Er	Er	0.35133 0.64867 0.87500 1.91000
Er	Er	0.64867 0.35133 0.37500 1.91300
Er	Er	0.35133 0.35133 0.62500 1.91300
Er	Er	0.64867 0.64867 0.12500 1.91300
H 	H 	0.42490 0.05920 0.87160 -0.02500
H 	H 	0.57510 0.94080 0.37160 -0.02500
H 	H 	0.94080 0.42490 0.62160 -0.02400
H 	H 	0.05920 0.57510 0.12160 -0.02400
H 	H 	0.57510 0.05920 0.12840 -0.02400
H 	H 	0.42490 0.94080 0.62840 -0.02500
H 	H 	0.05920 0.42490 0.37840 -0.02400
H 	H 	0.94080 0.57510 0.87840 -0.02400
H 	H 	0.50000 0.39920 1.00000 -0.04900
H 	H 	0.50000 0.60080 0.50000 -0.04800
H 	H 	0.60080 0.50000 0.75000 -0.04800
H 	H 	0.39920 0.50000 0.25000 -0.04800
C 	C 	0.41220 0.31660 0.83930 0.54100
C 	C 	0.45540 0.10460 0.92280 0.19300
C 	C 	0.45680 0.24000 0.92270 -0.27500
C 	C 	0.58780 0.68340 0.33930 0.54200
C 	C 	0.54460 0.89540 0.42280 0.19500
C 	C 	0.54320 0.76000 0.42270 -0.27600
C 	C 	0.68340 0.41220 0.58930 0.54200
C 	C 	0.89540 0.45540 0.67280 0.19500
C 	C 	0.76000 0.45680 0.67270 -0.27500
C 	C 	0.31660 0.58780 0.08930 0.54100
C 	C 	0.10460 0.54460 0.17280 0.19400
C 	C 	0.24000 0.54320 0.17270 -0.27500
C 	C 	0.58780 0.31660 0.16070 0.54100
C 	C 	0.54460 0.10460 0.07720 0.19200
C 	C 	0.54320 0.24000 0.07730 -0.27500
C 	C 	0.41220 0.68340 0.66070 0.54200
C 	C 	0.45540 0.89540 0.57720 0.19500
C 	C 	0.45680 0.76000 0.57730 -0.27600
C 	C 	0.31660 0.41220 0.41070 0.54100
C 	C 	0.10460 0.45540 0.32720 0.19500
C 	C 	0.24000 0.45680 0.32730 -0.27500
C 	C 	0.68340 0.58780 0.91070 0.54100
C 	C 	0.89540 0.54460 0.82720 0.19500
C 	C 	0.76000 0.54320 0.82730 -0.27500
C 	C 	0.50000 0.88970 1.00000 0.54200
C 	C 	0.50000 0.03740 1.00000 -0.26500
C 	C 	0.50000 0.30870 -0.00000 0.20900
C 	C 	0.50000 0.11030 0.50000 0.54700
C 	C 	0.50000 0.96260 0.50000 -0.26900
C 	C 	0.50000 0.69130 0.50000 0.20900
C 	C 	0.11030 0.50000 0.75000 0.54600
C 	C 	0.96260 0.50000 0.75000 -0.26800
C 	C 	0.69130 0.50000 0.75000 0.20900
C 	C 	0.88970 0.50000 0.25000 0.54600
C 	C 	0.03740 0.50000 0.25000 -0.26800
C 	C 	0.30870 0.50000 0.25000 0.20900
O 	O 	0.42770 0.83610 0.94200 -0.53600
O 	O 	0.38860 0.43310 0.84990 -0.54500
O 	O 	0.40410 0.25830 0.76330 -0.53000
O 	O 	0.57230 0.16390 0.44200 -0.53700
O 	O 	0.61140 0.56690 0.34990 -0.54500
O 	O 	0.59590 0.74170 0.26330 -0.53000
O 	O 	0.16390 0.42770 0.69200 -0.53700
O 	O 	0.56690 0.38860 0.59990 -0.54500
O 	O 	0.74170 0.40410 0.51330 -0.53000
O 	O 	0.83610 0.57230 0.19200 -0.53700
O 	O 	0.43310 0.61140 0.09990 -0.54500
O 	O 	0.25830 0.59590 0.01330 -0.52800
O 	O 	0.57230 0.83610 0.05800 -0.53300
O 	O 	0.61140 0.43310 0.15010 -0.54500
O 	O 	0.59590 0.25830 0.23670 -0.53100
O 	O 	0.42770 0.16390 0.55800 -0.53700
O 	O 	0.38860 0.56690 0.65010 -0.54500
O 	O 	0.40410 0.74170 0.73670 -0.53000
O 	O 	0.83610 0.42770 0.30800 -0.53700
O 	O 	0.43310 0.38860 0.40010 -0.54500
O 	O 	0.25830 0.40410 0.48670 -0.53000
O 	O 	0.16390 0.57230 0.80800 -0.53700
O 	O 	0.56690 0.61140 0.90010 -0.54500
O 	O 	0.74170 0.59590 0.98670 -0.53100
