data_crystal

_cell_length_a 10.26700
_cell_length_b 10.26700
_cell_length_c 14.46200
_cell_angle_alpha 90.00000
_cell_angle_beta  90.00000
_cell_angle_gamma 90.00000

_symmetry_space_group_name_	'P 1'
_symmetry_space_group_name_H-M	'P 1'

loop_
_symmetry_equiv_pos_as_xyz
  x,y,z

loop_
_atom_site_label
_atom_site_type_symbol
_atom_site_fract_x
_atom_site_fract_y
_atom_site_fract_z
_atom_site_charge
Er	Er	0.85258 0.85258 0.87500 1.97800
Er	Er	0.14741 0.14741 0.37500 1.86900
Er	Er	0.14741 0.85258 0.12500 1.90500
Er	Er	0.85258 0.14741 0.62500 1.91900
H 	H 	0.92540 0.44180 0.87140 -0.03600
H 	H 	0.07460 0.55820 0.37140 -0.02500
H 	H 	0.55820 0.92540 0.12140 -0.03200
H 	H 	0.44180 0.07460 0.62140 -0.02900
H 	H 	0.07460 0.44180 0.12860 -0.03000
H 	H 	0.92540 0.55820 0.62860 -0.02800
H 	H 	0.44180 0.92540 0.87860 -0.03100
H 	H 	0.55820 0.07460 0.37860 -0.02500
H 	H 	-0.00000 0.10250 -0.00000 -0.06100
H 	H 	-0.00000 0.89750 0.50000 -0.03400
H 	H 	0.89750 0.00000 0.25000 -0.03300
H 	H 	0.10250 -0.00000 0.75000 -0.05800
C 	C 	0.95560 0.39670 0.92290 0.24900
C 	C 	0.95620 0.26080 0.92270 -0.25100
C 	C 	0.91320 0.18400 0.83950 0.54900
C 	C 	0.04440 0.60330 0.42290 0.19400
C 	C 	0.04380 0.73920 0.42270 -0.26700
C 	C 	0.08680 0.81600 0.33950 0.53600
C 	C 	0.60330 0.95560 0.17290 0.22900
C 	C 	0.73920 0.95620 0.17270 -0.24000
C 	C 	0.81600 0.91320 0.08950 0.54200
C 	C 	0.39670 0.04440 0.67290 0.20400
C 	C 	0.26080 0.04380 0.67270 -0.28500
C 	C 	0.18400 0.08680 0.58950 0.54500
C 	C 	0.04440 0.39670 0.07710 0.20400
C 	C 	0.04380 0.26080 0.07730 -0.28500
C 	C 	0.08680 0.18400 0.16050 0.54300
C 	C 	0.95560 0.60330 0.57710 0.22500
C 	C 	0.95620 0.73920 0.57730 -0.24200
C 	C 	0.91320 0.81600 0.66050 0.54200
C 	C 	0.39670 0.95560 0.82710 0.23800
C 	C 	0.26080 0.95620 0.82730 -0.25600
C 	C 	0.18400 0.91320 0.91050 0.54900
C 	C 	0.60330 0.04440 0.32710 0.19400
C 	C 	0.73920 0.04380 0.32730 -0.26700
C 	C 	0.81600 0.08680 0.41050 0.53600
C 	C 	-0.00000 0.46510 -0.00000 -0.32300
C 	C 	-0.00000 0.61060 -0.00000 0.50700
C 	C 	-0.00000 0.19300 -0.00000 0.16100
C 	C 	0.00000 0.53490 0.50000 -0.29800
C 	C 	0.00000 0.38940 0.50000 0.51600
C 	C 	-0.00000 0.80700 0.50000 0.16800
C 	C 	0.53490 0.00000 0.25000 -0.30200
C 	C 	0.38940 0.00000 0.25000 0.51200
C 	C 	0.80700 0.00000 0.25000 0.16400
C 	C 	0.46510 -0.00000 0.75000 -0.31100
C 	C 	0.61060 -0.00000 0.75000 0.52000
C 	C 	0.19300 -0.00000 0.75000 0.17600
O 	O 	0.90570 0.24140 0.76286 -0.52600
O 	O 	0.92810 0.66530 0.94175 -0.50200
O 	O 	0.88840 0.06800 0.84960 -0.56300
O 	O 	0.09430 0.75860 0.26286 -0.52800
O 	O 	0.07190 0.33470 0.44175 -0.52800
O 	O 	0.11160 0.93200 0.34960 -0.52800
O 	O 	0.75860 0.90570 0.01286 -0.53000
O 	O 	0.33470 0.92810 0.19175 -0.50300
O 	O 	0.93200 0.88840 0.09960 -0.51800
O 	O 	0.24140 0.09430 0.51286 -0.53300
O 	O 	0.66530 0.07190 0.69175 -0.53600
O 	O 	0.06800 0.11160 0.59960 -0.57100
O 	O 	0.09430 0.24140 0.23714 -0.53300
O 	O 	0.07190 0.66530 0.05825 -0.53600
O 	O 	0.11160 0.06800 0.15040 -0.57400
O 	O 	0.90570 0.75860 0.73714 -0.52500
O 	O 	0.92810 0.33470 0.55825 -0.50500
O 	O 	0.88840 0.93200 0.65040 -0.51900
O 	O 	0.24140 0.90570 0.98714 -0.51400
O 	O 	0.66530 0.92810 0.80825 -0.51000
O 	O 	0.06800 0.88840 0.90040 -0.55500
O 	O 	0.75860 0.09430 0.48714 -0.53000
O 	O 	0.33470 0.07190 0.30825 -0.52800
O 	O 	0.93200 0.11160 0.40040 -0.53000
