data_crystal

_cell_length_a 10.33000
_cell_length_b 10.33000
_cell_length_c 14.51000
_cell_angle_alpha 90.00000
_cell_angle_beta  90.00000
_cell_angle_gamma 90.00000

_symmetry_space_group_name_	'P 1'
_symmetry_space_group_name_H-M	'P 1'

loop_
_symmetry_equiv_pos_as_xyz
  x,y,z

loop_
_atom_site_label
_atom_site_type_symbol
_atom_site_fract_x
_atom_site_fract_y
_atom_site_fract_z
_atom_site_charge
Tb	Tb	0.85298 0.85298 0.87500 2.11200
Tb	Tb	0.14702 0.14702 0.37500 1.99800
Tb	Tb	0.14702 0.85298 0.12500 2.03400
Tb	Tb	0.85298 0.14702 0.62500 2.04900
H 	H 	0.92810 0.44130 0.87120 -0.04600
H 	H 	0.07190 0.55870 0.37120 -0.03400
H 	H 	0.55870 0.92810 0.12120 -0.04100
H 	H 	0.44130 0.07190 0.62120 -0.03900
H 	H 	0.07190 0.44130 0.12880 -0.04000
H 	H 	0.92810 0.55870 0.62880 -0.03800
H 	H 	0.44130 0.92810 0.87880 -0.04100
H 	H 	0.55870 0.07190 0.37880 -0.03500
H 	H 	-0.00000 0.10440 -0.00000 -0.07400
H 	H 	-0.00000 0.89560 0.50000 -0.04700
H 	H 	0.89560 0.00000 0.25000 -0.04600
H 	H 	0.10440 -0.00000 0.75000 -0.07100
C 	C 	0.95700 0.39620 0.92270 0.26800
C 	C 	0.95720 0.26160 0.92230 -0.27700
C 	C 	0.91440 0.18620 0.83960 0.57100
C 	C 	0.04300 0.60380 0.42270 0.21300
C 	C 	0.04280 0.73840 0.42230 -0.29200
C 	C 	0.08560 0.81380 0.33960 0.55800
C 	C 	0.60380 0.95700 0.17270 0.24800
C 	C 	0.73840 0.95720 0.17230 -0.26500
C 	C 	0.81380 0.91440 0.08960 0.56400
C 	C 	0.39620 0.04300 0.67270 0.22300
C 	C 	0.26160 0.04280 0.67230 -0.31100
C 	C 	0.18620 0.08560 0.58960 0.56800
C 	C 	0.04300 0.39620 0.07730 0.22400
C 	C 	0.04280 0.26160 0.07770 -0.31100
C 	C 	0.08560 0.18620 0.16040 0.56600
C 	C 	0.95700 0.60380 0.57730 0.24400
C 	C 	0.95720 0.73840 0.57770 -0.26700
C 	C 	0.91440 0.81380 0.66040 0.56400
C 	C 	0.39620 0.95700 0.82730 0.25700
C 	C 	0.26160 0.95720 0.82770 -0.28100
C 	C 	0.18620 0.91440 0.91040 0.57100
C 	C 	0.60380 0.04300 0.32730 0.21300
C 	C 	0.73840 0.04280 0.32770 -0.29200
C 	C 	0.81380 0.08560 0.41040 0.55800
C 	C 	-0.00000 0.46400 -0.00000 -0.34300
C 	C 	-0.00000 0.60940 -0.00000 0.52400
C 	C 	0.00000 0.19450 -0.00000 0.18200
C 	C 	-0.00000 0.53600 0.50000 -0.31700
C 	C 	-0.00000 0.39060 0.50000 0.53300
C 	C 	0.00000 0.80550 0.50000 0.18800
C 	C 	0.53600 0.00000 0.25000 -0.32100
C 	C 	0.39060 0.00000 0.25000 0.52900
C 	C 	0.80550 0.00000 0.25000 0.18400
C 	C 	0.46400 -0.00000 0.75000 -0.33100
C 	C 	0.60940 -0.00000 0.75000 0.53700
C 	C 	0.19450 -0.00000 0.75000 0.19600
O 	O 	0.90760 0.24400 0.76389 -0.54900
O 	O 	0.93050 0.66410 0.94120 -0.52800
O 	O 	0.89100 0.07090 0.84790 -0.58900
O 	O 	0.09240 0.75600 0.26389 -0.55100
O 	O 	0.06950 0.33590 0.44120 -0.55400
O 	O 	0.10900 0.92910 0.34790 -0.55300
O 	O 	0.75600 0.90760 0.01389 -0.55300
O 	O 	0.33590 0.93050 0.19120 -0.52800
O 	O 	0.92910 0.89100 0.09790 -0.54400
O 	O 	0.24400 0.09240 0.51389 -0.55500
O 	O 	0.66410 0.06950 0.69120 -0.56200
O 	O 	0.07090 0.10900 0.59790 -0.59700
O 	O 	0.09240 0.24400 0.23611 -0.55600
O 	O 	0.06950 0.66410 0.05880 -0.56200
O 	O 	0.10900 0.07090 0.15210 -0.59900
O 	O 	0.90760 0.75600 0.73611 -0.54800
O 	O 	0.93050 0.33590 0.55880 -0.53000
O 	O 	0.89100 0.92910 0.65210 -0.54500
O 	O 	0.24400 0.90760 0.98611 -0.53600
O 	O 	0.66410 0.93050 0.80880 -0.53500
O 	O 	0.07090 0.89100 0.90210 -0.58000
O 	O 	0.75600 0.09240 0.48611 -0.55300
O 	O 	0.33590 0.06950 0.30880 -0.55400
O 	O 	0.92910 0.10900 0.40210 -0.55500
