data_crystal

_cell_length_a 25.88200
_cell_length_b 25.88200
_cell_length_c 25.88200
_cell_angle_alpha 90.00000
_cell_angle_beta  90.00000
_cell_angle_gamma 90.00000

_symmetry_space_group_name_	'P 1'
_symmetry_space_group_name_H-M	'P 1'

loop_
_symmetry_equiv_pos_as_xyz
  x,y,z

loop_
_atom_site_label
_atom_site_type_symbol
_atom_site_fract_x
_atom_site_fract_y
_atom_site_fract_z
_atom_site_charge
Zn	Zn	0.29342 0.29342 0.20658 1.21200
Zn	Zn	0.70658 0.70658 0.20658 1.21200
Zn	Zn	0.20658 0.20658 0.20658 1.21200
Zn	Zn	0.70658 0.29342 0.79342 1.21200
Zn	Zn	0.20658 0.29342 0.29342 1.21200
Zn	Zn	0.29342 0.70658 0.79342 1.21200
Zn	Zn	0.29342 0.20658 0.29342 1.21200
Zn	Zn	0.20658 0.79342 0.79342 1.21200
Zn	Zn	0.20658 0.70658 0.70658 1.21200
Zn	Zn	0.79342 0.70658 0.29342 1.21200
Zn	Zn	0.79342 0.20658 0.79342 1.21200
Zn	Zn	0.79342 0.29342 0.70658 1.21200
Zn	Zn	0.79342 0.79342 0.20658 1.21200
Zn	Zn	0.70658 0.20658 0.70658 1.21200
Zn	Zn	0.29342 0.79342 0.70658 1.21200
Zn	Zn	0.70658 0.79342 0.29342 1.21200
Zn	Zn	0.29342 0.29342 0.79342 1.21200
Zn	Zn	0.70658 0.70658 0.79342 1.21200
Zn	Zn	0.70658 0.20658 0.29342 1.21200
Zn	Zn	0.20658 0.70658 0.29342 1.21200
Zn	Zn	0.29342 0.70658 0.20658 1.21200
Zn	Zn	0.70658 0.29342 0.20658 1.21200
Zn	Zn	0.20658 0.79342 0.20658 1.21200
Zn	Zn	0.29342 0.20658 0.70658 1.21200
Zn	Zn	0.20658 0.20658 0.79342 1.21200
Zn	Zn	0.70658 0.79342 0.70658 1.21200
Zn	Zn	0.20658 0.29342 0.70658 1.21200
Zn	Zn	0.29342 0.79342 0.29342 1.21200
Zn	Zn	0.79342 0.29342 0.29342 1.21200
Zn	Zn	0.79342 0.79342 0.79342 1.21200
Zn	Zn	0.79342 0.70658 0.70658 1.21200
Zn	Zn	0.79342 0.20658 0.20658 1.21200
O 	O 	0.25000 0.25000 0.25000 -0.96000
O 	O 	0.75000 0.75000 0.25000 -0.96000
O 	O 	0.75000 0.25000 0.75000 -0.96000
O 	O 	0.25000 0.75000 0.75000 -0.96000
O 	O 	0.25000 0.25000 0.75000 -0.96000
O 	O 	0.75000 0.75000 0.75000 -0.96000
O 	O 	0.75000 0.25000 0.25000 -0.96000
O 	O 	0.25000 0.75000 0.25000 -0.96000
O 	O 	0.28055 0.36630 0.21945 -0.50900
C 	C 	0.28270 0.47302 0.21730 -0.01400
H 	H 	0.30520 0.45460 0.19480 0.04800
O 	O 	0.28055 0.86630 0.71945 -0.50900
C 	C 	0.28270 0.97302 0.71730 -0.01400
H 	H 	0.30520 0.95460 0.69480 0.04800
O 	O 	0.71945 0.63370 0.21945 -0.50900
C 	C 	0.71730 0.52698 0.21730 -0.01400
H 	H 	0.69480 0.54540 0.19480 0.04800
O 	O 	0.71945 0.13370 0.71945 -0.50900
C 	C 	0.71730 0.02698 0.71730 -0.01400
H 	H 	0.69480 0.04540 0.69480 0.04800
O 	O 	0.21945 0.13370 0.21945 -0.50900
C 	C 	0.21730 0.02698 0.21730 -0.01400
H 	H 	0.19480 0.04540 0.19480 0.04800
O 	O 	0.71945 0.36630 0.78055 -0.50900
C 	C 	0.71730 0.47302 0.78270 -0.01400
H 	H 	0.69480 0.45460 0.80520 0.04800
O 	O 	0.71945 0.86630 0.28055 -0.50900
C 	C 	0.71730 0.97302 0.28270 -0.01400
H 	H 	0.69480 0.95460 0.30520 0.04800
O 	O 	0.21945 0.36630 0.28055 -0.50900
C 	C 	0.21730 0.47302 0.28270 -0.01400
H 	H 	0.19480 0.45460 0.30520 0.04800
O 	O 	0.28055 0.63370 0.78055 -0.50900
C 	C 	0.28270 0.52698 0.78270 -0.01400
H 	H 	0.30520 0.54540 0.80520 0.04800
O 	O 	0.28055 0.13370 0.28055 -0.50900
C 	C 	0.28270 0.02698 0.28270 -0.01400
H 	H 	0.30520 0.04540 0.30520 0.04800
O 	O 	0.21945 0.28055 0.36630 -0.50900
C 	C 	0.21730 0.28270 0.47302 -0.01400
H 	H 	0.19480 0.30520 0.45460 0.04800
O 	O 	0.21945 0.78055 0.86630 -0.50900
C 	C 	0.21730 0.78270 0.97302 -0.01400
H 	H 	0.19480 0.80520 0.95460 0.04800
O 	O 	0.21945 0.71945 0.63370 -0.50900
C 	C 	0.21730 0.71730 0.52698 -0.01400
H 	H 	0.19480 0.69480 0.54540 0.04800
O 	O 	0.21945 0.21945 0.13370 -0.50900
C 	C 	0.21730 0.21730 0.02698 -0.01400
H 	H 	0.19480 0.19480 0.04540 0.04800
O 	O 	0.78055 0.71945 0.36630 -0.50900
C 	C 	0.78270 0.71730 0.47302 -0.01400
H 	H 	0.80520 0.69480 0.45460 0.04800
O 	O 	0.78055 0.21945 0.86630 -0.50900
C 	C 	0.78270 0.21730 0.97302 -0.01400
H 	H 	0.80520 0.19480 0.95460 0.04800
O 	O 	0.28055 0.21945 0.36630 -0.50900
C 	C 	0.28270 0.21730 0.47302 -0.01400
H 	H 	0.30520 0.19480 0.45460 0.04800
O 	O 	0.78055 0.28055 0.63370 -0.50900
C 	C 	0.78270 0.28270 0.52698 -0.01400
H 	H 	0.80520 0.30520 0.54540 0.04800
O 	O 	0.78055 0.78055 0.13370 -0.50900
C 	C 	0.78270 0.78270 0.02698 -0.01400
H 	H 	0.80520 0.80520 0.04540 0.04800
O 	O 	0.28055 0.28055 0.13370 -0.50900
C 	C 	0.28270 0.28270 0.02698 -0.01400
H 	H 	0.30520 0.30520 0.04540 0.04800
O 	O 	0.36630 0.21945 0.28055 -0.50900
C 	C 	0.47302 0.21730 0.28270 -0.01400
H 	H 	0.45460 0.19480 0.30520 0.04800
O 	O 	0.86630 0.21945 0.78055 -0.50900
C 	C 	0.97302 0.21730 0.78270 -0.01400
H 	H 	0.95460 0.19480 0.80520 0.04800
O 	O 	0.63370 0.21945 0.71945 -0.50900
C 	C 	0.52698 0.21730 0.71730 -0.01400
H 	H 	0.54540 0.19480 0.69480 0.04800
O 	O 	0.13370 0.21945 0.21945 -0.50900
C 	C 	0.02698 0.21730 0.21730 -0.01400
H 	H 	0.04540 0.19480 0.19480 0.04800
O 	O 	0.36630 0.78055 0.71945 -0.50900
C 	C 	0.47302 0.78270 0.71730 -0.01400
H 	H 	0.45460 0.80520 0.69480 0.04800
O 	O 	0.36630 0.28055 0.21945 -0.50900
C 	C 	0.47302 0.28270 0.21730 -0.01400
H 	H 	0.45460 0.30520 0.19480 0.04800
O 	O 	0.86630 0.78055 0.21945 -0.50900
C 	C 	0.97302 0.78270 0.21730 -0.01400
H 	H 	0.95460 0.80520 0.19480 0.04800
O 	O 	0.63370 0.78055 0.28055 -0.50900
C 	C 	0.52698 0.78270 0.28270 -0.01400
H 	H 	0.54540 0.80520 0.30520 0.04800
O 	O 	0.13370 0.78055 0.78055 -0.50900
C 	C 	0.02698 0.78270 0.78270 -0.01400
H 	H 	0.04540 0.80520 0.80520 0.04800
O 	O 	0.13370 0.28055 0.28055 -0.50900
C 	C 	0.02698 0.28270 0.28270 -0.01400
H 	H 	0.04540 0.30520 0.30520 0.04800
O 	O 	0.36630 0.28055 0.78055 -0.50900
C 	C 	0.47302 0.28270 0.78270 -0.01400
H 	H 	0.45460 0.30520 0.80520 0.04800
O 	O 	0.86630 0.28055 0.28055 -0.50900
C 	C 	0.97302 0.28270 0.28270 -0.01400
H 	H 	0.95460 0.30520 0.30520 0.04800
O 	O 	0.63370 0.71945 0.78055 -0.50900
C 	C 	0.52698 0.71730 0.78270 -0.01400
H 	H 	0.54540 0.69480 0.80520 0.04800
O 	O 	0.63370 0.21945 0.28055 -0.50900
C 	C 	0.52698 0.21730 0.28270 -0.01400
H 	H 	0.54540 0.19480 0.30520 0.04800
O 	O 	0.13370 0.71945 0.28055 -0.50900
C 	C 	0.02698 0.71730 0.28270 -0.01400
H 	H 	0.04540 0.69480 0.30520 0.04800
O 	O 	0.36630 0.71945 0.21945 -0.50900
C 	C 	0.47302 0.71730 0.21730 -0.01400
H 	H 	0.45460 0.69480 0.19480 0.04800
O 	O 	0.86630 0.71945 0.71945 -0.50900
C 	C 	0.97302 0.71730 0.71730 -0.01400
H 	H 	0.95460 0.69480 0.69480 0.04800
O 	O 	0.86630 0.21945 0.21945 -0.50900
C 	C 	0.97302 0.21730 0.21730 -0.01400
H 	H 	0.95460 0.19480 0.19480 0.04800
O 	O 	0.63370 0.28055 0.21945 -0.50900
C 	C 	0.52698 0.28270 0.21730 -0.01400
H 	H 	0.54540 0.30520 0.19480 0.04800
O 	O 	0.13370 0.28055 0.71945 -0.50900
C 	C 	0.02698 0.28270 0.71730 -0.01400
H 	H 	0.04540 0.30520 0.69480 0.04800
O 	O 	0.28055 0.21945 0.63370 -0.50900
C 	C 	0.28270 0.21730 0.52698 -0.01400
H 	H 	0.30520 0.19480 0.54540 0.04800
O 	O 	0.28055 0.71945 0.13370 -0.50900
C 	C 	0.28270 0.71730 0.02698 -0.01400
H 	H 	0.30520 0.69480 0.04540 0.04800
O 	O 	0.71945 0.21945 0.36630 -0.50900
C 	C 	0.71730 0.21730 0.47302 -0.01400
H 	H 	0.69480 0.19480 0.45460 0.04800
O 	O 	0.71945 0.71945 0.86630 -0.50900
C 	C 	0.71730 0.71730 0.97302 -0.01400
H 	H 	0.69480 0.69480 0.95460 0.04800
O 	O 	0.21945 0.21945 0.86630 -0.50900
C 	C 	0.21730 0.21730 0.97302 -0.01400
H 	H 	0.19480 0.19480 0.95460 0.04800
O 	O 	0.71945 0.78055 0.63370 -0.50900
C 	C 	0.71730 0.78270 0.52698 -0.01400
H 	H 	0.69480 0.80520 0.54540 0.04800
O 	O 	0.71945 0.28055 0.13370 -0.50900
C 	C 	0.71730 0.28270 0.02698 -0.01400
H 	H 	0.69480 0.30520 0.04540 0.04800
O 	O 	0.21945 0.28055 0.63370 -0.50900
C 	C 	0.21730 0.28270 0.52698 -0.01400
H 	H 	0.19480 0.30520 0.54540 0.04800
O 	O 	0.28055 0.78055 0.36630 -0.50900
C 	C 	0.28270 0.78270 0.47302 -0.01400
H 	H 	0.30520 0.80520 0.45460 0.04800
O 	O 	0.28055 0.28055 0.86630 -0.50900
C 	C 	0.28270 0.28270 0.97302 -0.01400
H 	H 	0.30520 0.30520 0.95460 0.04800
O 	O 	0.21945 0.36630 0.71945 -0.50900
C 	C 	0.21730 0.47302 0.71730 -0.01400
H 	H 	0.19480 0.45460 0.69480 0.04800
O 	O 	0.21945 0.86630 0.21945 -0.50900
C 	C 	0.21730 0.97302 0.21730 -0.01400
H 	H 	0.19480 0.95460 0.19480 0.04800
O 	O 	0.21945 0.63370 0.28055 -0.50900
C 	C 	0.21730 0.52698 0.28270 -0.01400
H 	H 	0.19480 0.54540 0.30520 0.04800
O 	O 	0.21945 0.13370 0.78055 -0.50900
C 	C 	0.21730 0.02698 0.78270 -0.01400
H 	H 	0.19480 0.04540 0.80520 0.04800
O 	O 	0.78055 0.36630 0.28055 -0.50900
C 	C 	0.78270 0.47302 0.28270 -0.01400
H 	H 	0.80520 0.45460 0.30520 0.04800
O 	O 	0.78055 0.86630 0.78055 -0.50900
C 	C 	0.78270 0.97302 0.78270 -0.01400
H 	H 	0.80520 0.95460 0.80520 0.04800
O 	O 	0.28055 0.86630 0.28055 -0.50900
C 	C 	0.28270 0.97302 0.28270 -0.01400
H 	H 	0.30520 0.95460 0.30520 0.04800
O 	O 	0.78055 0.63370 0.71945 -0.50900
C 	C 	0.78270 0.52698 0.71730 -0.01400
H 	H 	0.80520 0.54540 0.69480 0.04800
O 	O 	0.78055 0.13370 0.21945 -0.50900
C 	C 	0.78270 0.02698 0.21730 -0.01400
H 	H 	0.80520 0.04540 0.19480 0.04800
O 	O 	0.28055 0.63370 0.21945 -0.50900
C 	C 	0.28270 0.52698 0.21730 -0.01400
H 	H 	0.30520 0.54540 0.19480 0.04800
O 	O 	0.71945 0.63370 0.78055 -0.50900
C 	C 	0.71730 0.52698 0.78270 -0.01400
H 	H 	0.69480 0.54540 0.80520 0.04800
O 	O 	0.71945 0.13370 0.28055 -0.50900
C 	C 	0.71730 0.02698 0.28270 -0.01400
H 	H 	0.69480 0.04540 0.30520 0.04800
O 	O 	0.28055 0.36630 0.78055 -0.50900
C 	C 	0.28270 0.47302 0.78270 -0.01400
H 	H 	0.30520 0.45460 0.80520 0.04800
O 	O 	0.28055 0.13370 0.71945 -0.50900
C 	C 	0.28270 0.02698 0.71730 -0.01400
H 	H 	0.30520 0.04540 0.69480 0.04800
O 	O 	0.71945 0.36630 0.21945 -0.50900
C 	C 	0.71730 0.47302 0.21730 -0.01400
H 	H 	0.69480 0.45460 0.19480 0.04800
O 	O 	0.71945 0.86630 0.71945 -0.50900
C 	C 	0.71730 0.97302 0.71730 -0.01400
H 	H 	0.69480 0.95460 0.69480 0.04800
O 	O 	0.78055 0.71945 0.63370 -0.50900
C 	C 	0.78270 0.71730 0.52698 -0.01400
H 	H 	0.80520 0.69480 0.54540 0.04800
O 	O 	0.78055 0.21945 0.13370 -0.50900
C 	C 	0.78270 0.21730 0.02698 -0.01400
H 	H 	0.80520 0.19480 0.04540 0.04800
O 	O 	0.78055 0.28055 0.36630 -0.50900
C 	C 	0.78270 0.28270 0.47302 -0.01400
H 	H 	0.80520 0.30520 0.45460 0.04800
O 	O 	0.78055 0.78055 0.86630 -0.50900
C 	C 	0.78270 0.78270 0.97302 -0.01400
H 	H 	0.80520 0.80520 0.95460 0.04800
O 	O 	0.21945 0.78055 0.13370 -0.50900
C 	C 	0.21730 0.78270 0.02698 -0.01400
H 	H 	0.19480 0.80520 0.04540 0.04800
O 	O 	0.21945 0.71945 0.36630 -0.50900
C 	C 	0.21730 0.71730 0.47302 -0.01400
H 	H 	0.19480 0.69480 0.45460 0.04800
O 	O 	0.63370 0.78055 0.71945 -0.50900
C 	C 	0.52698 0.78270 0.71730 -0.01400
H 	H 	0.54540 0.80520 0.69480 0.04800
O 	O 	0.13370 0.78055 0.21945 -0.50900
C 	C 	0.02698 0.78270 0.21730 -0.01400
H 	H 	0.04540 0.80520 0.19480 0.04800
O 	O 	0.36630 0.78055 0.28055 -0.50900
C 	C 	0.47302 0.78270 0.28270 -0.01400
H 	H 	0.45460 0.80520 0.30520 0.04800
O 	O 	0.86630 0.78055 0.78055 -0.50900
C 	C 	0.97302 0.78270 0.78270 -0.01400
H 	H 	0.95460 0.80520 0.80520 0.04800
O 	O 	0.13370 0.21945 0.78055 -0.50900
C 	C 	0.02698 0.21730 0.78270 -0.01400
H 	H 	0.04540 0.19480 0.80520 0.04800
O 	O 	0.36630 0.21945 0.71945 -0.50900
C 	C 	0.47302 0.21730 0.71730 -0.01400
H 	H 	0.45460 0.19480 0.69480 0.04800
O 	O 	0.63370 0.71945 0.21945 -0.50900
C 	C 	0.52698 0.71730 0.21730 -0.01400
H 	H 	0.54540 0.69480 0.19480 0.04800
O 	O 	0.13370 0.71945 0.71945 -0.50900
C 	C 	0.02698 0.71730 0.71730 -0.01400
H 	H 	0.04540 0.69480 0.69480 0.04800
O 	O 	0.86630 0.28055 0.71945 -0.50900
C 	C 	0.97302 0.28270 0.71730 -0.01400
H 	H 	0.95460 0.30520 0.69480 0.04800
O 	O 	0.63370 0.28055 0.78055 -0.50900
C 	C 	0.52698 0.28270 0.78270 -0.01400
H 	H 	0.54540 0.30520 0.80520 0.04800
O 	O 	0.36630 0.71945 0.78055 -0.50900
C 	C 	0.47302 0.71730 0.78270 -0.01400
H 	H 	0.45460 0.69480 0.80520 0.04800
O 	O 	0.86630 0.71945 0.28055 -0.50900
C 	C 	0.97302 0.71730 0.28270 -0.01400
H 	H 	0.95460 0.69480 0.30520 0.04800
O 	O 	0.71945 0.78055 0.36630 -0.50900
C 	C 	0.71730 0.78270 0.47302 -0.01400
H 	H 	0.69480 0.80520 0.45460 0.04800
O 	O 	0.71945 0.28055 0.86630 -0.50900
C 	C 	0.71730 0.28270 0.97302 -0.01400
H 	H 	0.69480 0.30520 0.95460 0.04800
O 	O 	0.28055 0.78055 0.63370 -0.50900
C 	C 	0.28270 0.78270 0.52698 -0.01400
H 	H 	0.30520 0.80520 0.54540 0.04800
O 	O 	0.28055 0.71945 0.86630 -0.50900
C 	C 	0.28270 0.71730 0.97302 -0.01400
H 	H 	0.30520 0.69480 0.95460 0.04800
O 	O 	0.71945 0.21945 0.63370 -0.50900
C 	C 	0.71730 0.21730 0.52698 -0.01400
H 	H 	0.69480 0.19480 0.54540 0.04800
O 	O 	0.71945 0.71945 0.13370 -0.50900
C 	C 	0.71730 0.71730 0.02698 -0.01400
H 	H 	0.69480 0.69480 0.04540 0.04800
O 	O 	0.78055 0.63370 0.28055 -0.50900
C 	C 	0.78270 0.52698 0.28270 -0.01400
H 	H 	0.80520 0.54540 0.30520 0.04800
O 	O 	0.78055 0.13370 0.78055 -0.50900
C 	C 	0.78270 0.02698 0.78270 -0.01400
H 	H 	0.80520 0.04540 0.80520 0.04800
O 	O 	0.78055 0.36630 0.71945 -0.50900
C 	C 	0.78270 0.47302 0.71730 -0.01400
H 	H 	0.80520 0.45460 0.69480 0.04800
O 	O 	0.78055 0.86630 0.21945 -0.50900
C 	C 	0.78270 0.97302 0.21730 -0.01400
H 	H 	0.80520 0.95460 0.19480 0.04800
O 	O 	0.21945 0.63370 0.71945 -0.50900
C 	C 	0.21730 0.52698 0.71730 -0.01400
H 	H 	0.19480 0.54540 0.69480 0.04800
O 	O 	0.21945 0.86630 0.78055 -0.50900
C 	C 	0.21730 0.97302 0.78270 -0.01400
H 	H 	0.19480 0.95460 0.80520 0.04800
C 	C 	0.25000 0.38840 0.25000 0.39000
C 	C 	0.25000 0.44650 0.25000 -0.08800
C 	C 	0.25000 0.88840 0.75000 0.39000
C 	C 	0.25000 0.94650 0.75000 -0.08800
C 	C 	0.75000 0.61160 0.25000 0.39000
C 	C 	0.75000 0.55350 0.25000 -0.08800
C 	C 	0.75000 0.11160 0.75000 0.39000
C 	C 	0.75000 0.05350 0.75000 -0.08800
C 	C 	0.25000 0.11160 0.25000 0.39000
C 	C 	0.25000 0.05350 0.25000 -0.08800
C 	C 	0.75000 0.38840 0.75000 0.39000
C 	C 	0.75000 0.44650 0.75000 -0.08800
C 	C 	0.75000 0.88840 0.25000 0.39000
C 	C 	0.75000 0.94650 0.25000 -0.08800
C 	C 	0.25000 0.61160 0.75000 0.39000
C 	C 	0.25000 0.55350 0.75000 -0.08800
C 	C 	0.25000 0.25000 0.38840 0.39000
C 	C 	0.25000 0.25000 0.44650 -0.08800
C 	C 	0.25000 0.75000 0.88840 0.39000
C 	C 	0.25000 0.75000 0.94650 -0.08800
C 	C 	0.25000 0.75000 0.61160 0.39000
C 	C 	0.25000 0.75000 0.55350 -0.08800
C 	C 	0.25000 0.25000 0.11160 0.39000
C 	C 	0.25000 0.25000 0.05350 -0.08800
C 	C 	0.75000 0.75000 0.38840 0.39000
C 	C 	0.75000 0.75000 0.44650 -0.08800
C 	C 	0.75000 0.25000 0.88840 0.39000
C 	C 	0.75000 0.25000 0.94650 -0.08800
C 	C 	0.75000 0.25000 0.61160 0.39000
C 	C 	0.75000 0.25000 0.55350 -0.08800
C 	C 	0.75000 0.75000 0.11160 0.39000
C 	C 	0.75000 0.75000 0.05350 -0.08800
C 	C 	0.38840 0.25000 0.25000 0.39000
C 	C 	0.44650 0.25000 0.25000 -0.08800
C 	C 	0.88840 0.25000 0.75000 0.39000
C 	C 	0.94650 0.25000 0.75000 -0.08800
C 	C 	0.61160 0.25000 0.75000 0.39000
C 	C 	0.55350 0.25000 0.75000 -0.08800
C 	C 	0.11160 0.25000 0.25000 0.39000
C 	C 	0.05350 0.25000 0.25000 -0.08800
C 	C 	0.38840 0.75000 0.75000 0.39000
C 	C 	0.44650 0.75000 0.75000 -0.08800
C 	C 	0.88840 0.75000 0.25000 0.39000
C 	C 	0.94650 0.75000 0.25000 -0.08800
C 	C 	0.61160 0.75000 0.25000 0.39000
C 	C 	0.55350 0.75000 0.25000 -0.08800
C 	C 	0.11160 0.75000 0.75000 0.39000
C 	C 	0.05350 0.75000 0.75000 -0.08800
C 	C 	0.38840 0.25000 0.75000 0.39000
C 	C 	0.44650 0.25000 0.75000 -0.08800
C 	C 	0.88840 0.25000 0.25000 0.39000
C 	C 	0.94650 0.25000 0.25000 -0.08800
C 	C 	0.61160 0.75000 0.75000 0.39000
C 	C 	0.55350 0.75000 0.75000 -0.08800
C 	C 	0.61160 0.25000 0.25000 0.39000
C 	C 	0.55350 0.25000 0.25000 -0.08800
C 	C 	0.11160 0.75000 0.25000 0.39000
C 	C 	0.05350 0.75000 0.25000 -0.08800
C 	C 	0.38840 0.75000 0.25000 0.39000
C 	C 	0.44650 0.75000 0.25000 -0.08800
C 	C 	0.88840 0.75000 0.75000 0.39000
C 	C 	0.94650 0.75000 0.75000 -0.08800
C 	C 	0.11160 0.25000 0.75000 0.39000
C 	C 	0.05350 0.25000 0.75000 -0.08800
C 	C 	0.25000 0.25000 0.61160 0.39000
C 	C 	0.25000 0.25000 0.55350 -0.08800
C 	C 	0.25000 0.75000 0.11160 0.39000
C 	C 	0.25000 0.75000 0.05350 -0.08800
C 	C 	0.75000 0.25000 0.38840 0.39000
C 	C 	0.75000 0.25000 0.44650 -0.08800
C 	C 	0.75000 0.75000 0.88840 0.39000
C 	C 	0.75000 0.75000 0.94650 -0.08800
C 	C 	0.25000 0.25000 0.88840 0.39000
C 	C 	0.25000 0.25000 0.94650 -0.08800
C 	C 	0.75000 0.75000 0.61160 0.39000
C 	C 	0.75000 0.75000 0.55350 -0.08800
C 	C 	0.75000 0.25000 0.11160 0.39000
C 	C 	0.75000 0.25000 0.05350 -0.08800
C 	C 	0.25000 0.75000 0.38840 0.39000
C 	C 	0.25000 0.75000 0.44650 -0.08800
C 	C 	0.25000 0.38840 0.75000 0.39000
C 	C 	0.25000 0.44650 0.75000 -0.08800
C 	C 	0.25000 0.88840 0.25000 0.39000
C 	C 	0.25000 0.94650 0.25000 -0.08800
C 	C 	0.25000 0.61160 0.25000 0.39000
C 	C 	0.25000 0.55350 0.25000 -0.08800
C 	C 	0.25000 0.11160 0.75000 0.39000
C 	C 	0.25000 0.05350 0.75000 -0.08800
C 	C 	0.75000 0.38840 0.25000 0.39000
C 	C 	0.75000 0.44650 0.25000 -0.08800
C 	C 	0.75000 0.88840 0.75000 0.39000
C 	C 	0.75000 0.94650 0.75000 -0.08800
C 	C 	0.75000 0.61160 0.75000 0.39000
C 	C 	0.75000 0.55350 0.75000 -0.08800
C 	C 	0.75000 0.11160 0.25000 0.39000
C 	C 	0.75000 0.05350 0.25000 -0.08800
