data_crystal

_cell_length_a 16.03310
_cell_length_b 33.32400
_cell_length_c 16.84960
_cell_angle_alpha 90.00000
_cell_angle_beta  90.00000
_cell_angle_gamma 90.00000

_symmetry_space_group_name_	'P 1'
_symmetry_space_group_name_H-M	'P 1'

loop_
_symmetry_equiv_pos_as_xyz
  x,y,z

loop_
_atom_site_label
_atom_site_type_symbol
_atom_site_fract_x
_atom_site_fract_y
_atom_site_fract_z
_atom_site_charge
Tm	Tm	0.01719 0.05398 0.55448 1.50700
Zn	Zn	0.43700 0.16666 0.67424 1.16900
Zn	Zn	0.73028 0.15976 0.43043 1.20800
Zn	Zn	0.76234 0.99031 0.28736 1.19600
O 	O 	0.36530 0.20760 0.25910 -0.42800
O 	O 	0.31210 0.16390 0.17630 -0.39400
O 	O 	0.37850 0.20830 0.45390 -0.44000
O 	O 	0.36840 0.18960 0.57950 -0.49400
O 	O 	0.51130 0.20780 0.34590 -0.39800
O 	O 	0.63150 0.17660 0.34830 -0.41100
O 	O 	0.94060 0.01720 0.64180 -0.42300
O 	O 	0.82760 0.99530 0.69930 -0.45600
O 	O 	0.03730 0.08750 0.66680 -0.45200
O 	O 	0.01590 0.14170 0.73640 -0.47500
O 	O 	0.90060 0.08810 0.54720 -0.46600
O 	O 	0.82150 0.13900 0.51680 -0.44800
O 	O 	0.93480 0.01480 0.46780 -0.52000
O 	O 	0.86000 0.97970 0.38710 -0.52400
N 	N 	0.27350 0.21710 0.06800 -0.28200
N 	N 	0.52830 0.17360 0.59510 -0.31100
N 	N 	0.62900 0.16770 0.50540 -0.29100
N 	N 	0.80560 0.05930 0.78940 -0.31300
N 	N 	0.87720 0.11500 0.80380 -0.31100
N 	N 	0.73520 0.09890 0.40950 -0.28100
N 	N 	0.75220 0.03800 0.35470 -0.31100
N 	N 	0.85200 0.98120 0.20440 -0.27700
N 	N 	0.15540 0.92310 0.92170 -0.13800
C 	C 	0.32810 0.19870 0.19450 0.34900
C 	C 	0.30540 0.22900 0.13590 -0.05400
C 	C 	0.40850 0.19570 0.51740 0.37200
C 	C 	0.49760 0.18570 0.52110 -0.10200
C 	C 	0.56120 0.18180 0.46790 -0.05500
C 	C 	0.56870 0.18960 0.38270 0.32800
C 	C 	0.60800 0.16360 0.58300 0.32700
C 	C 	0.66480 0.15260 0.64790 -0.92600
H 	H 	0.63910 0.13240 0.68030 0.29700
H 	H 	0.67650 0.17580 0.67960 0.26400
H 	H 	0.71580 0.14230 0.62610 0.28800
C 	C 	0.88280 0.02120 0.68970 0.35800
C 	C 	0.87340 0.05730 0.73880 -0.06500
C 	C 	0.91730 0.09200 0.74790 -0.07600
C 	C 	0.99390 0.10730 0.71490 0.34700
C 	C 	0.81000 0.09420 0.82510 0.34300
C 	C 	0.74850 0.10990 0.88330 -0.90500
H 	H 	0.73020 0.08850 0.91720 0.26400
H 	H 	0.70140 0.12090 0.85550 0.27300
H 	H 	0.77410 0.13050 0.91480 0.28500
C 	C 	0.84520 0.10360 0.50700 0.36800
C 	C 	0.80170 0.08080 0.44530 -0.06800
C 	C 	0.81260 0.04330 0.41240 -0.07600
C 	C 	0.87230 0.01190 0.42400 0.34900
C 	C 	0.70870 0.07250 0.35480 0.35300
C 	C 	0.63450 0.07980 0.30340 -0.97200
H 	H 	0.63660 0.06220 0.25840 0.31500
H 	H 	0.63470 0.10720 0.28570 0.32000
H 	H 	0.58460 0.07470 0.33320 0.31100
C 	C 	0.92760 0.99820 0.20280 0.10100
H 	H 	0.93980 0.01790 0.24030 -0.02500
C 	C 	0.98680 0.98840 0.14980 -0.15200
H 	H 	0.03870 0.00080 0.15230 0.06200
C 	C 	0.97190 0.96060 0.09250 0.08500
C 	C 	0.89410 0.94400 0.09310 -0.17300
H 	H 	0.88070 0.92470 0.05540 0.07600
C 	C 	0.83670 0.95480 0.14660 0.09500
H 	H 	0.78380 0.94350 0.14340 -0.02900
C 	C 	0.16760 0.95420 0.97020 0.06000
H 	H 	0.21870 0.96730 0.96750 -0.00200
C 	C 	0.11100 0.96800 0.02320 -0.12600
H 	H 	0.12180 0.99080 0.05330 0.05300
C 	C 	0.03640 0.94730 0.03150 0.01700
C 	C 	0.02430 0.91550 0.98480 -0.10900
H 	H 	0.97490 0.90090 0.98860 0.04700
C 	C 	0.08380 0.90420 0.93140 0.04700
H 	H 	0.07340 0.88180 0.90000 0.02000
H 	H 	0.16450 0.24220 0.94390 0.13800
H 	H 	0.22730 0.27640 0.92150 0.13500
H 	H 	0.25360 0.23140 0.91210 0.12800
Tm	Tm	0.48281 0.94602 0.05448 1.50700
Zn	Zn	0.06300 0.83334 0.17424 1.16900
Zn	Zn	0.76972 0.84024 0.93043 1.20800
Zn	Zn	0.73766 0.00969 0.78736 1.19700
O 	O 	0.13470 0.79240 0.75910 -0.42800
O 	O 	0.18790 0.83610 0.67630 -0.39400
O 	O 	0.12150 0.79170 0.95390 -0.43400
O 	O 	0.13160 0.81040 0.07950 -0.49400
O 	O 	0.98870 0.79220 0.84590 -0.40000
O 	O 	0.86850 0.82340 0.84830 -0.41100
O 	O 	0.55940 0.98280 0.14180 -0.42200
O 	O 	0.67240 0.00470 0.19930 -0.45500
O 	O 	0.46270 0.91250 0.16680 -0.45700
O 	O 	0.48410 0.85830 0.23640 -0.48000
O 	O 	0.59940 0.91190 0.04720 -0.46600
O 	O 	0.67850 0.86100 0.01680 -0.44800
O 	O 	0.56520 0.98520 0.96780 -0.52000
O 	O 	0.64000 0.02030 0.88710 -0.52400
N 	N 	0.22650 0.78290 0.56800 -0.28200
N 	N 	0.97170 0.82640 0.09510 -0.30600
N 	N 	0.87100 0.83230 0.00540 -0.28800
N 	N 	0.69440 0.94070 0.28940 -0.31300
N 	N 	0.62280 0.88500 0.30380 -0.31100
N 	N 	0.76480 0.90110 0.90950 -0.28100
N 	N 	0.74780 0.96200 0.85470 -0.31100
N 	N 	0.64800 0.01880 0.70440 -0.27600
N 	N 	0.34460 0.07690 0.42170 -0.14200
C 	C 	0.17190 0.80130 0.69450 0.34900
C 	C 	0.19460 0.77100 0.63590 -0.05400
C 	C 	0.09150 0.80430 0.01740 0.36600
C 	C 	0.00240 0.81430 0.02110 -0.10700
C 	C 	0.93880 0.81820 0.96790 -0.05700
C 	C 	0.93130 0.81040 0.88270 0.32900
C 	C 	0.89200 0.83640 0.08300 0.32900
C 	C 	0.83520 0.84740 0.14790 -0.92800
H 	H 	0.86090 0.86760 0.18030 0.29800
H 	H 	0.82350 0.82420 0.17960 0.26400
H 	H 	0.78420 0.85770 0.12610 0.28900
C 	C 	0.61720 0.97880 0.18970 0.35800
C 	C 	0.62660 0.94270 0.23880 -0.06300
C 	C 	0.58270 0.90800 0.24790 -0.07800
C 	C 	0.50610 0.89270 0.21490 0.35600
C 	C 	0.69000 0.90580 0.32510 0.34400
C 	C 	0.75150 0.89010 0.38330 -0.90800
H 	H 	0.76980 0.91150 0.41720 0.26500
H 	H 	0.79860 0.87910 0.35550 0.27400
H 	H 	0.72590 0.86950 0.41480 0.28700
C 	C 	0.65480 0.89640 0.00700 0.36900
C 	C 	0.69830 0.91920 0.94530 -0.07000
C 	C 	0.68740 0.95670 0.91240 -0.07500
C 	C 	0.62770 0.98810 0.92400 0.34900
C 	C 	0.79130 0.92750 0.85480 0.35300
C 	C 	0.86550 0.92020 0.80340 -0.96900
H 	H 	0.86340 0.93780 0.75840 0.31400
H 	H 	0.86530 0.89280 0.78570 0.31900
H 	H 	0.91540 0.92530 0.83320 0.31000
C 	C 	0.57240 0.00180 0.70280 0.10000
H 	H 	0.56020 0.98210 0.74030 -0.02600
C 	C 	0.51320 0.01160 0.64980 -0.15100
H 	H 	0.46130 0.99920 0.65230 0.06400
C 	C 	0.52810 0.03940 0.59250 0.06800
C 	C 	0.60590 0.05600 0.59310 -0.16200
H 	H 	0.61930 0.07530 0.55540 0.07100
C 	C 	0.66330 0.04520 0.64660 0.08900
H 	H 	0.71620 0.05650 0.64340 -0.02700
C 	C 	0.33240 0.04580 0.47020 0.06000
H 	H 	0.28130 0.03270 0.46750 -0.00300
C 	C 	0.38900 0.03200 0.52320 -0.13200
H 	H 	0.37820 0.00920 0.55330 0.05700
C 	C 	0.46360 0.05270 0.53150 0.04500
C 	C 	0.47570 0.08450 0.48480 -0.14800
H 	H 	0.52510 0.09910 0.48860 0.06500
C 	C 	0.41620 0.09580 0.43140 0.06500
H 	H 	0.42660 0.11820 0.40000 0.01200
H 	H 	0.33550 0.75780 0.44390 0.13800
H 	H 	0.27270 0.72360 0.42150 0.13600
H 	H 	0.24640 0.76860 0.41210 0.12900
Tm	Tm	0.98281 0.55398 0.44552 1.50800
Zn	Zn	0.56300 0.66666 0.32576 1.17000
Zn	Zn	0.26972 0.65976 0.56957 1.20900
Zn	Zn	0.23766 0.49031 0.71264 1.19700
O 	O 	0.63470 0.70760 0.74090 -0.42800
O 	O 	0.68790 0.66390 0.82370 -0.39400
O 	O 	0.62150 0.70830 0.54610 -0.44000
O 	O 	0.63160 0.68960 0.42050 -0.49400
O 	O 	0.48870 0.70780 0.65410 -0.39800
O 	O 	0.36850 0.67660 0.65170 -0.41100
O 	O 	0.05940 0.51720 0.35820 -0.42300
O 	O 	0.17240 0.49530 0.30070 -0.45600
O 	O 	0.96270 0.58750 0.33320 -0.45200
O 	O 	0.98410 0.64170 0.26360 -0.47500
O 	O 	0.09940 0.58810 0.45280 -0.46600
O 	O 	0.17850 0.63900 0.48320 -0.44800
O 	O 	0.06520 0.51480 0.53220 -0.52000
O 	O 	0.14000 0.47970 0.61290 -0.52300
N 	N 	0.72650 0.71710 0.93200 -0.28200
N 	N 	0.47170 0.67360 0.40490 -0.31100
N 	N 	0.37100 0.66770 0.49460 -0.29100
N 	N 	0.19440 0.55930 0.21060 -0.31200
N 	N 	0.12280 0.61500 0.19620 -0.31100
N 	N 	0.26480 0.59890 0.59050 -0.28100
N 	N 	0.24780 0.53800 0.64530 -0.31100
N 	N 	0.14800 0.48120 0.79560 -0.27700
N 	N 	0.84460 0.42310 0.07830 -0.13800
C 	C 	0.67190 0.69870 0.80550 0.34900
C 	C 	0.69460 0.72900 0.86410 -0.05400
C 	C 	0.59150 0.69570 0.48260 0.37200
C 	C 	0.50240 0.68570 0.47890 -0.10200
C 	C 	0.43880 0.68180 0.53210 -0.05500
C 	C 	0.43130 0.68960 0.61730 0.32800
C 	C 	0.39200 0.66360 0.41700 0.32700
C 	C 	0.33520 0.65260 0.35210 -0.92600
H 	H 	0.36090 0.63240 0.31970 0.29700
H 	H 	0.32350 0.67580 0.32040 0.26400
H 	H 	0.28420 0.64230 0.37390 0.28800
C 	C 	0.11720 0.52120 0.31030 0.35900
C 	C 	0.12660 0.55730 0.26120 -0.06500
C 	C 	0.08270 0.59200 0.25210 -0.07600
C 	C 	0.00610 0.60730 0.28510 0.34700
C 	C 	0.19000 0.59420 0.17490 0.34300
C 	C 	0.25150 0.60990 0.11670 -0.90600
H 	H 	0.26980 0.58850 0.08280 0.26400
H 	H 	0.29860 0.62090 0.14450 0.27300
H 	H 	0.22590 0.63050 0.08520 0.28500
C 	C 	0.15480 0.60360 0.49300 0.36800
C 	C 	0.19830 0.58080 0.55470 -0.06800
C 	C 	0.18740 0.54330 0.58760 -0.07600
C 	C 	0.12770 0.51190 0.57600 0.34800
C 	C 	0.29130 0.57250 0.64520 0.35300
C 	C 	0.36550 0.57980 0.69660 -0.97200
H 	H 	0.36340 0.56220 0.74160 0.31500
H 	H 	0.36530 0.60720 0.71430 0.32000
H 	H 	0.41540 0.57470 0.66680 0.31100
C 	C 	0.07240 0.49820 0.79720 0.10100
H 	H 	0.06020 0.51790 0.75970 -0.02500
C 	C 	0.01320 0.48840 0.85020 -0.15000
H 	H 	0.96130 0.50080 0.84770 0.06100
C 	C 	0.02810 0.46060 0.90750 0.08400
C 	C 	0.10590 0.44400 0.90690 -0.17200
H 	H 	0.11930 0.42470 0.94460 0.07600
C 	C 	0.16330 0.45480 0.85340 0.09500
H 	H 	0.21620 0.44350 0.85660 -0.02800
C 	C 	0.83240 0.45420 0.02980 0.05900
H 	H 	0.78130 0.46730 0.03250 -0.00200
C 	C 	0.88900 0.46800 0.97680 -0.12500
H 	H 	0.87820 0.49080 0.94670 0.05300
C 	C 	0.96360 0.44730 0.96850 0.01800
C 	C 	0.97570 0.41550 0.01520 -0.11000
H 	H 	0.02510 0.40090 0.01140 0.04700
C 	C 	0.91620 0.40420 0.06860 0.04800
H 	H 	0.92660 0.38180 0.10000 0.01900
H 	H 	0.83550 0.74220 0.05610 0.13800
H 	H 	0.77270 0.77640 0.07850 0.13500
H 	H 	0.74640 0.73140 0.08790 0.12800
Tm	Tm	0.51719 0.44602 0.94552 1.50700
Zn	Zn	0.93700 0.33334 0.82576 1.16900
Zn	Zn	0.23028 0.34024 0.06957 1.20800
Zn	Zn	0.26234 0.50969 0.21264 1.19700
O 	O 	0.86530 0.29240 0.24090 -0.42800
O 	O 	0.81210 0.33610 0.32370 -0.39400
O 	O 	0.87850 0.29170 0.04610 -0.43400
O 	O 	0.86840 0.31040 0.92050 -0.49400
O 	O 	0.01130 0.29220 0.15410 -0.40000
O 	O 	0.13150 0.32340 0.15170 -0.41200
O 	O 	0.44060 0.48280 0.85820 -0.42200
O 	O 	0.32760 0.50470 0.80070 -0.45600
O 	O 	0.53730 0.41250 0.83320 -0.45700
O 	O 	0.51590 0.35830 0.76360 -0.48000
O 	O 	0.40060 0.41190 0.95280 -0.46600
O 	O 	0.32150 0.36100 0.98320 -0.44800
O 	O 	0.43480 0.48520 0.03220 -0.52000
O 	O 	0.36000 0.52030 0.11290 -0.52400
N 	N 	0.77350 0.28290 0.43200 -0.28200
N 	N 	0.02830 0.32640 0.90490 -0.30600
N 	N 	0.12900 0.33230 0.99460 -0.28800
N 	N 	0.30560 0.44070 0.71060 -0.31300
N 	N 	0.37720 0.38500 0.69620 -0.31100
N 	N 	0.23520 0.40110 0.09050 -0.28100
N 	N 	0.25220 0.46200 0.14530 -0.31100
N 	N 	0.35200 0.51880 0.29560 -0.27600
N 	N 	0.65540 0.57690 0.57830 -0.14200
C 	C 	0.82810 0.30130 0.30550 0.34900
C 	C 	0.80540 0.27100 0.36410 -0.05400
C 	C 	0.90850 0.30430 0.98260 0.36600
C 	C 	0.99760 0.31430 0.97890 -0.10700
C 	C 	0.06120 0.31820 0.03210 -0.05700
C 	C 	0.06870 0.31040 0.11730 0.32900
C 	C 	0.10800 0.33640 0.91700 0.32900
C 	C 	0.16480 0.34740 0.85210 -0.92800
H 	H 	0.13910 0.36760 0.81970 0.29800
H 	H 	0.17650 0.32420 0.82040 0.26400
H 	H 	0.21580 0.35770 0.87390 0.28900
C 	C 	0.38280 0.47880 0.81030 0.35900
C 	C 	0.37340 0.44270 0.76120 -0.06300
C 	C 	0.41730 0.40800 0.75210 -0.07700
C 	C 	0.49390 0.39270 0.78510 0.35600
C 	C 	0.31000 0.40580 0.67490 0.34400
C 	C 	0.24850 0.39010 0.61670 -0.90800
H 	H 	0.23020 0.41150 0.58280 0.26500
H 	H 	0.20140 0.37910 0.64450 0.27400
H 	H 	0.27410 0.36950 0.58520 0.28700
C 	C 	0.34520 0.39640 0.99300 0.37000
C 	C 	0.30170 0.41920 0.05470 -0.07000
C 	C 	0.31260 0.45670 0.08760 -0.07500
C 	C 	0.37230 0.48810 0.07600 0.34800
C 	C 	0.20870 0.42750 0.14520 0.35200
C 	C 	0.13450 0.42020 0.19660 -0.96900
H 	H 	0.13660 0.43780 0.24160 0.31400
H 	H 	0.13470 0.39280 0.21430 0.31900
H 	H 	0.08460 0.42530 0.16680 0.30900
C 	C 	0.42760 0.50180 0.29720 0.10000
H 	H 	0.43980 0.48210 0.25970 -0.02600
C 	C 	0.48680 0.51160 0.35020 -0.15100
H 	H 	0.53870 0.49920 0.34770 0.06400
C 	C 	0.47190 0.53940 0.40750 0.06800
C 	C 	0.39410 0.55600 0.40690 -0.16200
H 	H 	0.38070 0.57530 0.44460 0.07100
C 	C 	0.33670 0.54520 0.35340 0.08900
H 	H 	0.28380 0.55650 0.35660 -0.02700
C 	C 	0.66760 0.54580 0.52980 0.06000
H 	H 	0.71870 0.53270 0.53250 -0.00300
C 	C 	0.61100 0.53200 0.47680 -0.13200
H 	H 	0.62180 0.50920 0.44670 0.05700
C 	C 	0.53640 0.55270 0.46850 0.04500
C 	C 	0.52430 0.58450 0.51520 -0.14800
H 	H 	0.47490 0.59910 0.51140 0.06500
C 	C 	0.58380 0.59580 0.56860 0.06500
H 	H 	0.57340 0.61820 0.60000 0.01200
H 	H 	0.66450 0.25780 0.55610 0.13800
H 	H 	0.72730 0.22360 0.57850 0.13600
H 	H 	0.75360 0.26860 0.58790 0.12900
Tm	Tm	0.98281 0.94602 0.44552 1.50800
Zn	Zn	0.56300 0.83334 0.32576 1.17000
Zn	Zn	0.26972 0.84024 0.56957 1.20900
Zn	Zn	0.23766 0.00969 0.71264 1.19700
O 	O 	0.63470 0.79240 0.74090 -0.42800
O 	O 	0.68790 0.83610 0.82370 -0.39400
O 	O 	0.62150 0.79170 0.54610 -0.44000
O 	O 	0.63160 0.81040 0.42050 -0.49400
O 	O 	0.48870 0.79220 0.65410 -0.39800
O 	O 	0.36850 0.82340 0.65170 -0.41100
O 	O 	0.05940 0.98280 0.35820 -0.42300
O 	O 	0.17240 0.00470 0.30070 -0.45600
O 	O 	0.96270 0.91250 0.33320 -0.45200
O 	O 	0.98410 0.85830 0.26360 -0.47500
O 	O 	0.09940 0.91190 0.45280 -0.46600
O 	O 	0.17850 0.86100 0.48320 -0.44800
O 	O 	0.06520 0.98520 0.53220 -0.52000
O 	O 	0.14000 0.02030 0.61290 -0.52400
N 	N 	0.72650 0.78290 0.93200 -0.28200
N 	N 	0.47170 0.82640 0.40490 -0.31100
N 	N 	0.37100 0.83230 0.49460 -0.29100
N 	N 	0.19440 0.94070 0.21060 -0.31300
N 	N 	0.12280 0.88500 0.19620 -0.31100
N 	N 	0.26480 0.90110 0.59050 -0.28100
N 	N 	0.24780 0.96200 0.64530 -0.31100
N 	N 	0.14800 0.01880 0.79560 -0.27700
N 	N 	0.84460 0.07690 0.07830 -0.13800
C 	C 	0.67190 0.80130 0.80550 0.34900
C 	C 	0.69460 0.77100 0.86410 -0.05400
C 	C 	0.59150 0.80430 0.48260 0.37200
C 	C 	0.50240 0.81430 0.47890 -0.10200
C 	C 	0.43880 0.81820 0.53210 -0.05500
C 	C 	0.43130 0.81040 0.61730 0.32800
C 	C 	0.39200 0.83640 0.41700 0.32700
C 	C 	0.33520 0.84740 0.35210 -0.92600
H 	H 	0.36090 0.86760 0.31970 0.29700
H 	H 	0.32350 0.82420 0.32040 0.26400
H 	H 	0.28420 0.85770 0.37390 0.28800
C 	C 	0.11720 0.97880 0.31030 0.35800
C 	C 	0.12660 0.94270 0.26120 -0.06500
C 	C 	0.08270 0.90800 0.25210 -0.07600
C 	C 	0.00610 0.89270 0.28510 0.34700
C 	C 	0.19000 0.90580 0.17490 0.34300
C 	C 	0.25150 0.89010 0.11670 -0.90500
H 	H 	0.26980 0.91150 0.08280 0.26400
H 	H 	0.29860 0.87910 0.14450 0.27300
H 	H 	0.22590 0.86950 0.08520 0.28500
C 	C 	0.15480 0.89640 0.49300 0.36800
C 	C 	0.19830 0.91920 0.55470 -0.06800
C 	C 	0.18740 0.95670 0.58760 -0.07600
C 	C 	0.12770 0.98810 0.57600 0.34900
C 	C 	0.29130 0.92750 0.64520 0.35300
C 	C 	0.36550 0.92020 0.69660 -0.97200
H 	H 	0.36340 0.93780 0.74160 0.31500
H 	H 	0.36530 0.89280 0.71430 0.32000
H 	H 	0.41540 0.92530 0.66680 0.31100
C 	C 	0.07240 0.00180 0.79720 0.10100
H 	H 	0.06020 0.98210 0.75970 -0.02500
C 	C 	0.01320 0.01160 0.85020 -0.15200
H 	H 	0.96130 0.99920 0.84770 0.06200
C 	C 	0.02810 0.03940 0.90750 0.08500
C 	C 	0.10590 0.05600 0.90690 -0.17300
H 	H 	0.11930 0.07530 0.94460 0.07600
C 	C 	0.16330 0.04520 0.85340 0.09500
H 	H 	0.21620 0.05650 0.85660 -0.02900
C 	C 	0.83240 0.04580 0.02980 0.06000
H 	H 	0.78130 0.03270 0.03250 -0.00200
C 	C 	0.88900 0.03200 0.97680 -0.12600
H 	H 	0.87820 0.00920 0.94670 0.05300
C 	C 	0.96360 0.05270 0.96850 0.01700
C 	C 	0.97570 0.08450 0.01520 -0.10900
H 	H 	0.02510 0.09910 0.01140 0.04700
C 	C 	0.91620 0.09580 0.06860 0.04700
H 	H 	0.92660 0.11820 0.10000 0.02000
H 	H 	0.83550 0.75780 0.05610 0.13800
H 	H 	0.77270 0.72360 0.07850 0.13500
H 	H 	0.74640 0.76860 0.08790 0.12800
Tm	Tm	0.51719 0.05398 0.94552 1.50700
Zn	Zn	0.93700 0.16666 0.82576 1.16900
Zn	Zn	0.23028 0.15976 0.06957 1.20800
Zn	Zn	0.26234 0.99031 0.21264 1.19700
O 	O 	0.86530 0.20760 0.24090 -0.42800
O 	O 	0.81210 0.16390 0.32370 -0.39400
O 	O 	0.87850 0.20830 0.04610 -0.43400
O 	O 	0.86840 0.18960 0.92050 -0.49400
O 	O 	0.01130 0.20780 0.15410 -0.40000
O 	O 	0.13150 0.17660 0.15170 -0.41100
O 	O 	0.44060 0.01720 0.85820 -0.42200
O 	O 	0.32760 0.99530 0.80070 -0.45500
O 	O 	0.53730 0.08750 0.83320 -0.45700
O 	O 	0.51590 0.14170 0.76360 -0.48000
O 	O 	0.40060 0.08810 0.95280 -0.46600
O 	O 	0.32150 0.13900 0.98320 -0.44800
O 	O 	0.43480 0.01480 0.03220 -0.52000
O 	O 	0.36000 0.97970 0.11290 -0.52400
N 	N 	0.77350 0.21710 0.43200 -0.28200
N 	N 	0.02830 0.17360 0.90490 -0.30600
N 	N 	0.12900 0.16770 0.99460 -0.28800
N 	N 	0.30560 0.05930 0.71060 -0.31300
N 	N 	0.37720 0.11500 0.69620 -0.31100
N 	N 	0.23520 0.09890 0.09050 -0.28100
N 	N 	0.25220 0.03800 0.14530 -0.31100
N 	N 	0.35200 0.98120 0.29560 -0.27600
N 	N 	0.65540 0.92310 0.57830 -0.14200
C 	C 	0.82810 0.19870 0.30550 0.34900
C 	C 	0.80540 0.22900 0.36410 -0.05400
C 	C 	0.90850 0.19570 0.98260 0.36600
C 	C 	0.99760 0.18570 0.97890 -0.10700
C 	C 	0.06120 0.18180 0.03210 -0.05700
C 	C 	0.06870 0.18960 0.11730 0.32900
C 	C 	0.10800 0.16360 0.91700 0.32900
C 	C 	0.16480 0.15260 0.85210 -0.92800
H 	H 	0.13910 0.13240 0.81970 0.29800
H 	H 	0.17650 0.17580 0.82040 0.26400
H 	H 	0.21580 0.14230 0.87390 0.28900
C 	C 	0.38280 0.02120 0.81030 0.35800
C 	C 	0.37340 0.05730 0.76120 -0.06300
C 	C 	0.41730 0.09200 0.75210 -0.07800
C 	C 	0.49390 0.10730 0.78510 0.35600
C 	C 	0.31000 0.09420 0.67490 0.34400
C 	C 	0.24850 0.10990 0.61670 -0.90800
H 	H 	0.23020 0.08850 0.58280 0.26500
H 	H 	0.20140 0.12090 0.64450 0.27400
H 	H 	0.27410 0.13050 0.58520 0.28700
C 	C 	0.34520 0.10360 0.99300 0.36900
C 	C 	0.30170 0.08080 0.05470 -0.07000
C 	C 	0.31260 0.04330 0.08760 -0.07500
C 	C 	0.37230 0.01190 0.07600 0.34900
C 	C 	0.20870 0.07250 0.14520 0.35300
C 	C 	0.13450 0.07980 0.19660 -0.96900
H 	H 	0.13660 0.06220 0.24160 0.31400
H 	H 	0.13470 0.10720 0.21430 0.31900
H 	H 	0.08460 0.07470 0.16680 0.31000
C 	C 	0.42760 0.99820 0.29720 0.10000
H 	H 	0.43980 0.01790 0.25970 -0.02600
C 	C 	0.48680 0.98840 0.35020 -0.15100
H 	H 	0.53870 0.00080 0.34770 0.06400
C 	C 	0.47190 0.96060 0.40750 0.06800
C 	C 	0.39410 0.94400 0.40690 -0.16200
H 	H 	0.38070 0.92470 0.44460 0.07100
C 	C 	0.33670 0.95480 0.35340 0.08900
H 	H 	0.28380 0.94350 0.35660 -0.02700
C 	C 	0.66760 0.95420 0.52980 0.06000
H 	H 	0.71870 0.96730 0.53250 -0.00300
C 	C 	0.61100 0.96800 0.47680 -0.13200
H 	H 	0.62180 0.99080 0.44670 0.05700
C 	C 	0.53640 0.94730 0.46850 0.04500
C 	C 	0.52430 0.91550 0.51520 -0.14800
H 	H 	0.47490 0.90090 0.51140 0.06500
C 	C 	0.58380 0.90420 0.56860 0.06500
H 	H 	0.57340 0.88180 0.60000 0.01200
H 	H 	0.66450 0.24220 0.55610 0.13800
H 	H 	0.72730 0.27640 0.57850 0.13600
H 	H 	0.75360 0.23140 0.58790 0.12900
Tm	Tm	0.01719 0.44602 0.55448 1.50800
Zn	Zn	0.43700 0.33334 0.67424 1.17000
Zn	Zn	0.73028 0.34024 0.43043 1.20900
Zn	Zn	0.76234 0.50969 0.28736 1.19700
O 	O 	0.36530 0.29240 0.25910 -0.42800
O 	O 	0.31210 0.33610 0.17630 -0.39400
O 	O 	0.37850 0.29170 0.45390 -0.44000
O 	O 	0.36840 0.31040 0.57950 -0.49400
O 	O 	0.51130 0.29220 0.34590 -0.39800
O 	O 	0.63150 0.32340 0.34830 -0.41100
O 	O 	0.94060 0.48280 0.64180 -0.42300
O 	O 	0.82760 0.50470 0.69930 -0.45600
O 	O 	0.03730 0.41250 0.66680 -0.45200
O 	O 	0.01590 0.35830 0.73640 -0.47500
O 	O 	0.90060 0.41190 0.54720 -0.46600
O 	O 	0.82150 0.36100 0.51680 -0.44800
O 	O 	0.93480 0.48520 0.46780 -0.52000
O 	O 	0.86000 0.52030 0.38710 -0.52300
N 	N 	0.27350 0.28290 0.06800 -0.28200
N 	N 	0.52830 0.32640 0.59510 -0.31100
N 	N 	0.62900 0.33230 0.50540 -0.29100
N 	N 	0.80560 0.44070 0.78940 -0.31200
N 	N 	0.87720 0.38500 0.80380 -0.31100
N 	N 	0.73520 0.40110 0.40950 -0.28100
N 	N 	0.75220 0.46200 0.35470 -0.31100
N 	N 	0.85200 0.51880 0.20440 -0.27700
N 	N 	0.15540 0.57690 0.92170 -0.13800
C 	C 	0.32810 0.30130 0.19450 0.34900
C 	C 	0.30540 0.27100 0.13590 -0.05400
C 	C 	0.40850 0.30430 0.51740 0.37200
C 	C 	0.49760 0.31430 0.52110 -0.10200
C 	C 	0.56120 0.31820 0.46790 -0.05500
C 	C 	0.56870 0.31040 0.38270 0.32800
C 	C 	0.60800 0.33640 0.58300 0.32700
C 	C 	0.66480 0.34740 0.64790 -0.92600
H 	H 	0.63910 0.36760 0.68030 0.29700
H 	H 	0.67650 0.32420 0.67960 0.26400
H 	H 	0.71580 0.35770 0.62610 0.28800
C 	C 	0.88280 0.47880 0.68970 0.35900
C 	C 	0.87340 0.44270 0.73880 -0.06500
C 	C 	0.91730 0.40800 0.74790 -0.07600
C 	C 	0.99390 0.39270 0.71490 0.34700
C 	C 	0.81000 0.40580 0.82510 0.34300
C 	C 	0.74850 0.39010 0.88330 -0.90600
H 	H 	0.73020 0.41150 0.91720 0.26400
H 	H 	0.70140 0.37910 0.85550 0.27300
H 	H 	0.77410 0.36950 0.91480 0.28500
C 	C 	0.84520 0.39640 0.50700 0.36800
C 	C 	0.80170 0.41920 0.44530 -0.06800
C 	C 	0.81260 0.45670 0.41240 -0.07600
C 	C 	0.87230 0.48810 0.42400 0.34800
C 	C 	0.70870 0.42750 0.35480 0.35300
C 	C 	0.63450 0.42020 0.30340 -0.97200
H 	H 	0.63660 0.43780 0.25840 0.31500
H 	H 	0.63470 0.39280 0.28570 0.32000
H 	H 	0.58460 0.42530 0.33320 0.31100
C 	C 	0.92760 0.50180 0.20280 0.10100
H 	H 	0.93980 0.48210 0.24030 -0.02500
C 	C 	0.98680 0.51160 0.14980 -0.15000
H 	H 	0.03870 0.49920 0.15230 0.06100
C 	C 	0.97190 0.53940 0.09250 0.08400
C 	C 	0.89410 0.55600 0.09310 -0.17200
H 	H 	0.88070 0.57530 0.05540 0.07600
C 	C 	0.83670 0.54520 0.14660 0.09500
H 	H 	0.78380 0.55650 0.14340 -0.02800
C 	C 	0.16760 0.54580 0.97020 0.05900
H 	H 	0.21870 0.53270 0.96750 -0.00200
C 	C 	0.11100 0.53200 0.02320 -0.12500
H 	H 	0.12180 0.50920 0.05330 0.05300
C 	C 	0.03640 0.55270 0.03150 0.01800
C 	C 	0.02430 0.58450 0.98480 -0.11000
H 	H 	0.97490 0.59910 0.98860 0.04700
C 	C 	0.08380 0.59580 0.93140 0.04800
H 	H 	0.07340 0.61820 0.90000 0.01900
H 	H 	0.16450 0.25780 0.94390 0.13800
H 	H 	0.22730 0.22360 0.92150 0.13500
H 	H 	0.25360 0.26860 0.91210 0.12800
Tm	Tm	0.48281 0.55398 0.05448 1.50700
Zn	Zn	0.06300 0.66666 0.17424 1.16900
Zn	Zn	0.76972 0.65976 0.93043 1.20800
Zn	Zn	0.73766 0.49031 0.78736 1.19700
O 	O 	0.13470 0.70760 0.75910 -0.42800
O 	O 	0.18790 0.66390 0.67630 -0.39400
O 	O 	0.12150 0.70830 0.95390 -0.43400
O 	O 	0.13160 0.68960 0.07950 -0.49400
O 	O 	0.98870 0.70780 0.84590 -0.40000
O 	O 	0.86850 0.67660 0.84830 -0.41200
O 	O 	0.55940 0.51720 0.14180 -0.42200
O 	O 	0.67240 0.49530 0.19930 -0.45600
O 	O 	0.46270 0.58750 0.16680 -0.45700
O 	O 	0.48410 0.64170 0.23640 -0.48000
O 	O 	0.59940 0.58810 0.04720 -0.46600
O 	O 	0.67850 0.63900 0.01680 -0.44800
O 	O 	0.56520 0.51480 0.96780 -0.52000
O 	O 	0.64000 0.47970 0.88710 -0.52400
N 	N 	0.22650 0.71710 0.56800 -0.28200
N 	N 	0.97170 0.67360 0.09510 -0.30600
N 	N 	0.87100 0.66770 0.00540 -0.28800
N 	N 	0.69440 0.55930 0.28940 -0.31300
N 	N 	0.62280 0.61500 0.30380 -0.31100
N 	N 	0.76480 0.59890 0.90950 -0.28100
N 	N 	0.74780 0.53800 0.85470 -0.31100
N 	N 	0.64800 0.48120 0.70440 -0.27600
N 	N 	0.34460 0.42310 0.42170 -0.14200
C 	C 	0.17190 0.69870 0.69450 0.34900
C 	C 	0.19460 0.72900 0.63590 -0.05400
C 	C 	0.09150 0.69570 0.01740 0.36600
C 	C 	0.00240 0.68570 0.02110 -0.10700
C 	C 	0.93880 0.68180 0.96790 -0.05700
C 	C 	0.93130 0.68960 0.88270 0.32900
C 	C 	0.89200 0.66360 0.08300 0.32900
C 	C 	0.83520 0.65260 0.14790 -0.92800
H 	H 	0.86090 0.63240 0.18030 0.29800
H 	H 	0.82350 0.67580 0.17960 0.26400
H 	H 	0.78420 0.64230 0.12610 0.28900
C 	C 	0.61720 0.52120 0.18970 0.35900
C 	C 	0.62660 0.55730 0.23880 -0.06300
C 	C 	0.58270 0.59200 0.24790 -0.07700
C 	C 	0.50610 0.60730 0.21490 0.35600
C 	C 	0.69000 0.59420 0.32510 0.34400
C 	C 	0.75150 0.60990 0.38330 -0.90800
H 	H 	0.76980 0.58850 0.41720 0.26500
H 	H 	0.79860 0.62090 0.35550 0.27400
H 	H 	0.72590 0.63050 0.41480 0.28700
C 	C 	0.65480 0.60360 0.00700 0.37000
C 	C 	0.69830 0.58080 0.94530 -0.07000
C 	C 	0.68740 0.54330 0.91240 -0.07500
C 	C 	0.62770 0.51190 0.92400 0.34800
C 	C 	0.79130 0.57250 0.85480 0.35200
C 	C 	0.86550 0.57980 0.80340 -0.96900
H 	H 	0.86340 0.56220 0.75840 0.31400
H 	H 	0.86530 0.60720 0.78570 0.31900
H 	H 	0.91540 0.57470 0.83320 0.30900
C 	C 	0.57240 0.49820 0.70280 0.10000
H 	H 	0.56020 0.51790 0.74030 -0.02600
C 	C 	0.51320 0.48840 0.64980 -0.15100
H 	H 	0.46130 0.50080 0.65230 0.06400
C 	C 	0.52810 0.46060 0.59250 0.06800
C 	C 	0.60590 0.44400 0.59310 -0.16200
H 	H 	0.61930 0.42470 0.55540 0.07100
C 	C 	0.66330 0.45480 0.64660 0.08900
H 	H 	0.71620 0.44350 0.64340 -0.02700
C 	C 	0.33240 0.45420 0.47020 0.06000
H 	H 	0.28130 0.46730 0.46750 -0.00300
C 	C 	0.38900 0.46800 0.52320 -0.13200
H 	H 	0.37820 0.49080 0.55330 0.05700
C 	C 	0.46360 0.44730 0.53150 0.04500
C 	C 	0.47570 0.41550 0.48480 -0.14800
H 	H 	0.52510 0.40090 0.48860 0.06500
C 	C 	0.41620 0.40420 0.43140 0.06500
H 	H 	0.42660 0.38180 0.40000 0.01200
H 	H 	0.33550 0.74220 0.44390 0.13800
H 	H 	0.27270 0.77640 0.42150 0.13600
H 	H 	0.24640 0.73140 0.41210 0.12900
Tm	Tm	0.40206 0.25000 0.35137 1.57700
C 	C 	0.25470 0.25000 0.02610 0.31900
C 	C 	0.22210 0.25000 0.94360 -0.89600
Tm	Tm	0.09794 0.75000 0.85137 1.57900
C 	C 	0.24530 0.75000 0.52610 0.32400
C 	C 	0.27790 0.75000 0.44360 -0.90400
Tm	Tm	0.59794 0.75000 0.64863 1.57700
C 	C 	0.74530 0.75000 0.97390 0.31900
C 	C 	0.77790 0.75000 0.05640 -0.89600
Tm	Tm	0.90206 0.25000 0.14863 1.57900
C 	C 	0.75470 0.25000 0.47390 0.32400
C 	C 	0.72210 0.25000 0.55640 -0.90400
