data_crystal

_cell_length_a 34.95000
_cell_length_b 17.27400
_cell_length_c 16.67600
_cell_angle_alpha 90.00000
_cell_angle_beta  90.00000
_cell_angle_gamma 90.00000

_symmetry_space_group_name_	'P 1'
_symmetry_space_group_name_H-M	'P 1'

loop_
_symmetry_equiv_pos_as_xyz
  x,y,z

loop_
_atom_site_label
_atom_site_type_symbol
_atom_site_fract_x
_atom_site_fract_y
_atom_site_fract_z
_atom_site_charge
O 	O 	0.52000 0.38600 0.64040 -0.48300
C 	C 	0.48830 0.42410 0.62790 0.27100
N 	N 	0.33330 0.99520 0.37060 -0.27500
Er	Er	0.44615 0.55481 0.48225 1.46800
Zn	Zn	0.34026 0.43164 0.76865 1.19300
Zn	Zn	0.49068 0.78812 0.76159 1.18000
Zn	Zn	0.33401 0.82752 0.56453 1.15500
O 	O 	0.29160 0.04760 0.61960 -0.41800
O 	O 	0.41150 0.54580 0.59730 -0.43700
O 	O 	0.48440 0.46820 0.56400 -0.46800
O 	O 	0.48270 0.64180 0.55970 -0.39100
N 	N 	0.32680 0.90580 0.47210 -0.29400
O 	O 	0.50530 0.70070 0.67060 -0.41600
O 	O 	0.35860 0.73720 0.48610 -0.45000
O 	O 	0.33710 0.32680 0.68450 -0.37000
N 	N 	0.44090 0.79070 0.69240 -0.28900
N 	N 	0.46120 0.35600 0.74920 -0.29600
O 	O 	0.36090 0.51530 0.67690 -0.43000
O 	O 	0.32330 0.15240 0.36710 -0.40300
N 	N 	0.40130 0.40970 0.76540 -0.25500
C 	C 	0.30390 0.98510 0.58920 0.31300
C 	C 	0.47880 0.69140 0.61600 0.29800
C 	C 	0.40870 0.74890 0.58370 -0.06300
C 	C 	0.39290 0.71570 0.50800 0.31100
N 	N 	0.38500 0.80380 0.62270 -0.29000
C 	C 	0.41930 0.44720 0.69860 -0.06700
N 	N 	0.28260 0.43410 0.72730 -0.30000
O 	O 	0.31120 0.92340 0.63310 -0.45200
C 	C 	0.45660 0.41280 0.68920 -0.04500
O 	O 	0.29120 0.15610 0.48500 -0.41300
C 	C 	0.27060 0.36440 0.69370 -0.04700
C 	C 	0.44250 0.73940 0.62800 -0.04500
C 	C 	0.33760 0.91730 0.39480 0.23900
C 	C 	0.31880 0.03280 0.43820 -0.05800
C 	C 	0.31010 0.12040 0.42830 0.31700
O 	O 	0.29190 0.24630 0.62740 -0.42200
C 	C 	0.46170 0.59270 0.97320 0.03400
C 	C 	0.39560 0.50650 0.65400 0.32900
C 	C 	0.42830 0.35520 0.79210 0.29300
C 	C 	0.31500 0.98100 0.50160 -0.09200
C 	C 	0.44820 0.53220 0.03240 0.03300
C 	C 	0.48960 0.64840 0.98530 -0.10300
H 	H 	0.50200 0.64910 0.03460 0.04700
O 	O 	0.41260 0.66810 0.46490 -0.43300
C 	C 	0.30220 0.30800 0.67050 0.30400
C 	C 	0.41620 0.48270 0.02000 -0.12400
H 	H 	0.40320 0.48300 0.97140 0.06100
N 	N 	0.48200 0.70340 0.85030 -0.25100
C 	C 	0.40630 0.82750 0.69110 0.28600
N 	N 	0.42390 0.42530 0.15670 -0.20300
C 	C 	0.46860 0.52600 0.11000 -0.11500
H 	H 	0.48990 0.55650 0.12040 0.05000
C 	C 	0.45720 0.64620 0.83410 0.04900
H 	H 	0.44700 0.64260 0.78280 -0.01500
C 	C 	0.39090 0.88360 0.74840 -0.82900
H 	H 	0.38190 0.85690 0.79530 0.24600
H 	H 	0.37000 0.91110 0.72420 0.25800
H 	H 	0.41050 0.91960 0.76340 0.24100
C 	C 	0.34850 0.85270 0.33890 -0.77400
H 	H 	0.32570 0.82890 0.31820 0.20300
H 	H 	0.36330 0.81490 0.36750 0.24900
H 	H 	0.36330 0.87310 0.29530 0.23800
C 	C 	0.41910 0.30350 0.86230 -0.85400
H 	H 	0.42090 0.25030 0.84600 0.27300
H 	H 	0.39360 0.31400 0.88060 0.28000
H 	H 	0.43690 0.31330 0.90490 0.27400
C 	C 	0.45500 0.47260 0.16820 0.05400
H 	H 	0.46780 0.46960 0.21690 -0.00900
C 	C 	0.40420 0.43200 0.08400 0.05100
H 	H 	0.38220 0.40240 0.07660 0.01100
C 	C 	0.44620 0.59080 0.89250 -0.11400
H 	H 	0.42860 0.55260 0.87880 0.05700
C 	C 	0.49970 0.70050 0.93190 0.04000
H 	H 	0.51840 0.73660 0.94520 -0.00500
H 	H 	0.26280 0.59120 0.74520 0.27000
H 	H 	0.22410 0.57340 0.78910 0.27200
H 	H 	0.26310 0.55610 0.83190 0.27900
H 	H 	0.41690 0.39270 0.19280 0.10500
O 	O 	0.48000 0.88600 0.85960 -0.48400
C 	C 	0.51170 0.92410 0.87210 0.26900
N 	N 	0.66670 0.49520 0.12940 -0.27700
Er	Er	0.55385 0.05481 0.01775 1.46200
Zn	Zn	0.65974 0.93164 0.73135 1.19200
Zn	Zn	0.50932 0.28812 0.73841 1.17900
Zn	Zn	0.66599 0.32752 0.93547 1.15500
O 	O 	0.70840 0.54760 0.88040 -0.42000
O 	O 	0.58850 0.04580 0.90270 -0.43600
O 	O 	0.51560 0.96820 0.93600 -0.47000
O 	O 	0.51730 0.14180 0.94030 -0.39000
N 	N 	0.67320 0.40580 0.02790 -0.29400
O 	O 	0.49470 0.20070 0.82940 -0.41600
O 	O 	0.64140 0.23720 0.01390 -0.45300
O 	O 	0.66290 0.82680 0.81550 -0.37000
N 	N 	0.55910 0.29070 0.80760 -0.28900
N 	N 	0.53880 0.85600 0.75080 -0.29600
O 	O 	0.63910 0.01530 0.82310 -0.42900
O 	O 	0.67670 0.65240 0.13290 -0.40200
N 	N 	0.59870 0.90970 0.73460 -0.25500
C 	C 	0.69610 0.48510 0.91080 0.31400
C 	C 	0.52120 0.19140 0.88400 0.29700
C 	C 	0.59130 0.24890 0.91630 -0.06400
C 	C 	0.60710 0.21570 0.99200 0.31500
N 	N 	0.61500 0.30380 0.87730 -0.28900
C 	C 	0.58070 0.94720 0.80140 -0.07000
N 	N 	0.71740 0.93410 0.77270 -0.30000
O 	O 	0.68880 0.42340 0.86690 -0.45200
C 	C 	0.54340 0.91280 0.81080 -0.04500
O 	O 	0.70880 0.65610 0.01500 -0.41100
C 	C 	0.72940 0.86440 0.80630 -0.04800
C 	C 	0.55750 0.23940 0.87200 -0.04400
C 	C 	0.66240 0.41730 0.10520 0.23900
C 	C 	0.68120 0.53280 0.06180 -0.05600
C 	C 	0.68990 0.62040 0.07170 0.31600
O 	O 	0.70810 0.74630 0.87260 -0.42200
C 	C 	0.53830 0.09270 0.52680 0.03300
C 	C 	0.60440 0.00650 0.84600 0.33100
C 	C 	0.57170 0.85520 0.70790 0.29200
C 	C 	0.68500 0.48100 0.99840 -0.09400
C 	C 	0.55180 0.03220 0.46760 0.03200
C 	C 	0.51040 0.14840 0.51470 -0.09900
H 	H 	0.49800 0.14910 0.46540 0.04500
O 	O 	0.58740 0.16810 0.03510 -0.43500
C 	C 	0.69780 0.80800 0.82950 0.30300
C 	C 	0.58380 0.98270 0.48000 -0.12300
H 	H 	0.59680 0.98300 0.52860 0.06000
N 	N 	0.51800 0.20340 0.64970 -0.25100
C 	C 	0.59370 0.32750 0.80890 0.28600
N 	N 	0.57610 0.92530 0.34330 -0.20300
C 	C 	0.53140 0.02600 0.39000 -0.11700
H 	H 	0.51010 0.05650 0.37960 0.05000
C 	C 	0.54280 0.14620 0.66590 0.04900
H 	H 	0.55300 0.14260 0.71720 -0.01500
C 	C 	0.60910 0.38360 0.75160 -0.83000
H 	H 	0.61810 0.35690 0.70470 0.24700
H 	H 	0.63000 0.41110 0.77580 0.25800
H 	H 	0.58950 0.41960 0.73660 0.24200
C 	C 	0.65150 0.35270 0.16110 -0.77300
H 	H 	0.67430 0.32890 0.18180 0.20200
H 	H 	0.63670 0.31490 0.13250 0.24900
H 	H 	0.63670 0.37310 0.20470 0.23800
C 	C 	0.58090 0.80350 0.63770 -0.85200
H 	H 	0.57910 0.75030 0.65400 0.27200
H 	H 	0.60640 0.81400 0.61940 0.27900
H 	H 	0.56310 0.81330 0.59510 0.27300
C 	C 	0.54500 0.97260 0.33180 0.05500
H 	H 	0.53220 0.96960 0.28310 -0.00800
C 	C 	0.59580 0.93200 0.41600 0.05100
H 	H 	0.61780 0.90240 0.42340 0.01100
C 	C 	0.55380 0.09080 0.60750 -0.11300
H 	H 	0.57140 0.05260 0.62120 0.05700
C 	C 	0.50030 0.20050 0.56810 0.03800
H 	H 	0.48160 0.23660 0.55480 -0.00400
H 	H 	0.73720 0.09120 0.75480 0.26800
H 	H 	0.77590 0.07340 0.71090 0.27100
H 	H 	0.73690 0.05610 0.66810 0.27800
H 	H 	0.58310 0.89270 0.30720 0.10500
O 	O 	0.02000 0.61400 0.35960 -0.48400
C 	C 	0.98830 0.57590 0.37210 0.27000
N 	N 	0.83330 0.00480 0.62940 -0.27600
Er	Er	0.94615 0.44519 0.51775 1.46700
Zn	Zn	0.84026 0.56836 0.23135 1.19200
Zn	Zn	0.99068 0.21188 0.23841 1.17900
Zn	Zn	0.83401 0.17248 0.43547 1.15400
O 	O 	0.79160 0.95240 0.38040 -0.41900
O 	O 	0.91150 0.45420 0.40270 -0.43800
O 	O 	0.98440 0.53180 0.43600 -0.46900
O 	O 	0.98270 0.35820 0.44030 -0.39200
N 	N 	0.82680 0.09420 0.52790 -0.29500
O 	O 	0.00530 0.29930 0.32940 -0.41700
O 	O 	0.85860 0.26280 0.51390 -0.45100
O 	O 	0.83710 0.67320 0.31550 -0.37000
N 	N 	0.94090 0.20930 0.30760 -0.28900
N 	N 	0.96120 0.64400 0.25080 -0.29500
O 	O 	0.86090 0.48470 0.32310 -0.43000
O 	O 	0.82330 0.84760 0.63290 -0.40300
N 	N 	0.90130 0.59030 0.23460 -0.25500
C 	C 	0.80390 0.01490 0.41080 0.31200
C 	C 	0.97880 0.30860 0.38400 0.29700
C 	C 	0.90870 0.25110 0.41630 -0.06300
C 	C 	0.89290 0.28430 0.49200 0.31100
N 	N 	0.88500 0.19620 0.37730 -0.29000
C 	C 	0.91930 0.55280 0.30140 -0.06700
N 	N 	0.78260 0.56590 0.27270 -0.30000
O 	O 	0.81120 0.07660 0.36690 -0.45200
C 	C 	0.95660 0.58720 0.31080 -0.04500
O 	O 	0.79120 0.84390 0.51500 -0.41300
C 	C 	0.77060 0.63560 0.30630 -0.04700
C 	C 	0.94250 0.26060 0.37200 -0.04500
C 	C 	0.83760 0.08270 0.60520 0.23900
C 	C 	0.81880 0.96720 0.56180 -0.05800
C 	C 	0.81010 0.87960 0.57170 0.31600
O 	O 	0.79190 0.75370 0.37260 -0.42200
C 	C 	0.96170 0.40730 0.02680 0.03400
C 	C 	0.89560 0.49350 0.34600 0.32900
C 	C 	0.92830 0.64480 0.20790 0.29300
C 	C 	0.81500 0.01900 0.49840 -0.09200
C 	C 	0.94820 0.46780 0.96760 0.03200
C 	C 	0.98960 0.35160 0.01470 -0.10300
H 	H 	0.00200 0.35090 0.96540 0.04800
O 	O 	0.91260 0.33190 0.53510 -0.43300
C 	C 	0.80220 0.69200 0.32950 0.30400
C 	C 	0.91620 0.51730 0.98000 -0.12400
H 	H 	0.90320 0.51700 0.02860 0.06100
N 	N 	0.98200 0.29660 0.14970 -0.25100
C 	C 	0.90630 0.17250 0.30890 0.28600
N 	N 	0.92390 0.57470 0.84330 -0.20300
C 	C 	0.96860 0.47400 0.89000 -0.11500
H 	H 	0.98990 0.44350 0.87960 0.05000
C 	C 	0.95720 0.35380 0.16590 0.05000
H 	H 	0.94700 0.35740 0.21720 -0.01500
C 	C 	0.89090 0.11640 0.25160 -0.82800
H 	H 	0.88190 0.14310 0.20470 0.24600
H 	H 	0.87000 0.08890 0.27580 0.25700
H 	H 	0.91050 0.08040 0.23660 0.24100
C 	C 	0.84850 0.14730 0.66110 -0.77400
H 	H 	0.82570 0.17110 0.68180 0.20300
H 	H 	0.86330 0.18510 0.63250 0.24900
H 	H 	0.86330 0.12690 0.70470 0.23800
C 	C 	0.91910 0.69650 0.13770 -0.85400
H 	H 	0.92090 0.74970 0.15400 0.27300
H 	H 	0.89360 0.68600 0.11940 0.28000
H 	H 	0.93690 0.68670 0.09510 0.27400
C 	C 	0.95500 0.52740 0.83180 0.05400
H 	H 	0.96780 0.53040 0.78310 -0.00900
C 	C 	0.90420 0.56800 0.91600 0.05100
H 	H 	0.88220 0.59760 0.92340 0.01100
C 	C 	0.94620 0.40920 0.10750 -0.11400
H 	H 	0.92860 0.44740 0.12120 0.05700
C 	C 	0.99970 0.29950 0.06810 0.03900
H 	H 	0.01840 0.26340 0.05480 -0.00500
H 	H 	0.76280 0.40880 0.25480 0.27000
H 	H 	0.72410 0.42660 0.21090 0.27200
H 	H 	0.76310 0.44390 0.16810 0.27900
H 	H 	0.91690 0.60730 0.80720 0.10500
O 	O 	0.98000 0.11400 0.14040 -0.48400
C 	C 	0.01170 0.07590 0.12790 0.27000
N 	N 	0.16670 0.50480 0.87060 -0.27700
Er	Er	0.05385 0.94519 0.98225 1.46200
Zn	Zn	0.15974 0.06836 0.26865 1.19200
Zn	Zn	0.00932 0.71188 0.26159 1.17900
Zn	Zn	0.16599 0.67248 0.06453 1.15500
O 	O 	0.20840 0.45240 0.11960 -0.42000
O 	O 	0.08850 0.95420 0.09730 -0.43600
O 	O 	0.01560 0.03180 0.06400 -0.46900
O 	O 	0.01730 0.85820 0.05970 -0.39000
N 	N 	0.17320 0.59420 0.97210 -0.29400
O 	O 	0.99470 0.79930 0.17060 -0.41600
O 	O 	0.14140 0.76280 0.98610 -0.45300
O 	O 	0.16290 0.17320 0.18450 -0.37000
N 	N 	0.05910 0.70930 0.19240 -0.28900
N 	N 	0.03880 0.14400 0.24920 -0.29500
O 	O 	0.13910 0.98470 0.17690 -0.42900
O 	O 	0.17670 0.34760 0.86710 -0.40200
N 	N 	0.09870 0.09030 0.26540 -0.25500
C 	C 	0.19610 0.51490 0.08920 0.31400
C 	C 	0.02120 0.80860 0.11600 0.29600
C 	C 	0.09130 0.75110 0.08370 -0.06400
C 	C 	0.10710 0.78430 0.00800 0.31500
N 	N 	0.11500 0.69620 0.12270 -0.28900
C 	C 	0.08070 0.05280 0.19860 -0.06900
N 	N 	0.21740 0.06590 0.22730 -0.30000
O 	O 	0.18880 0.57660 0.13310 -0.45200
C 	C 	0.04340 0.08720 0.18920 -0.04500
O 	O 	0.20880 0.34390 0.98500 -0.41100
C 	C 	0.22940 0.13560 0.19370 -0.04800
C 	C 	0.05750 0.76060 0.12800 -0.04400
C 	C 	0.16240 0.58270 0.89480 0.23900
C 	C 	0.18120 0.46720 0.93820 -0.05600
C 	C 	0.18990 0.37960 0.92830 0.31600
O 	O 	0.20810 0.25370 0.12740 -0.42200
C 	C 	0.03830 0.90730 0.47320 0.03300
C 	C 	0.10440 0.99350 0.15400 0.33000
C 	C 	0.07170 0.14480 0.29210 0.29200
C 	C 	0.18500 0.51900 0.00160 -0.09400
C 	C 	0.05180 0.96780 0.53240 0.03200
C 	C 	0.01040 0.85160 0.48530 -0.10000
H 	H 	0.99800 0.85090 0.53460 0.04600
O 	O 	0.08740 0.83190 0.96490 -0.43500
C 	C 	0.19780 0.19200 0.17050 0.30300
C 	C 	0.08380 0.01730 0.52000 -0.12200
H 	H 	0.09680 0.01700 0.47140 0.05900
N 	N 	0.01800 0.79660 0.35030 -0.25100
C 	C 	0.09370 0.67250 0.19110 0.28600
N 	N 	0.07610 0.07470 0.65670 -0.20300
C 	C 	0.03140 0.97400 0.61000 -0.11800
H 	H 	0.01010 0.94350 0.62040 0.05000
C 	C 	0.04280 0.85380 0.33410 0.04900
H 	H 	0.05300 0.85740 0.28280 -0.01500
C 	C 	0.10910 0.61640 0.24840 -0.83000
H 	H 	0.11810 0.64310 0.29530 0.24700
H 	H 	0.13000 0.58890 0.22420 0.25800
H 	H 	0.08950 0.58040 0.26340 0.24200
C 	C 	0.15150 0.64730 0.83890 -0.77300
H 	H 	0.17430 0.67110 0.81820 0.20200
H 	H 	0.13670 0.68510 0.86750 0.24900
H 	H 	0.13670 0.62690 0.79530 0.23800
C 	C 	0.08090 0.19650 0.36230 -0.85200
H 	H 	0.07910 0.24970 0.34600 0.27200
H 	H 	0.10640 0.18600 0.38060 0.27900
H 	H 	0.06310 0.18670 0.40490 0.27300
C 	C 	0.04500 0.02740 0.66820 0.05600
H 	H 	0.03220 0.03040 0.71690 -0.00900
C 	C 	0.09580 0.06800 0.58400 0.05000
H 	H 	0.11780 0.09760 0.57660 0.01100
C 	C 	0.05380 0.90920 0.39250 -0.11300
H 	H 	0.07140 0.94740 0.37880 0.05700
C 	C 	0.00030 0.79950 0.43190 0.03800
H 	H 	0.98160 0.76340 0.44520 -0.00400
H 	H 	0.23720 0.90880 0.24520 0.26800
H 	H 	0.27590 0.92660 0.28910 0.27100
H 	H 	0.23690 0.94390 0.33190 0.27800
H 	H 	0.08310 0.10730 0.69280 0.10500
O 	O 	0.48000 0.61400 0.35960 -0.48400
C 	C 	0.51170 0.57590 0.37210 0.27000
N 	N 	0.66670 0.00480 0.62940 -0.27600
Er	Er	0.55385 0.44519 0.51775 1.46700
Zn	Zn	0.65974 0.56836 0.23135 1.19200
Zn	Zn	0.50932 0.21188 0.23841 1.17900
Zn	Zn	0.66599 0.17248 0.43547 1.15400
O 	O 	0.70840 0.95240 0.38040 -0.41900
O 	O 	0.58850 0.45420 0.40270 -0.43800
O 	O 	0.51560 0.53180 0.43600 -0.46900
O 	O 	0.51730 0.35820 0.44030 -0.39200
N 	N 	0.67320 0.09420 0.52790 -0.29500
O 	O 	0.49470 0.29930 0.32940 -0.41700
O 	O 	0.64140 0.26280 0.51390 -0.45100
O 	O 	0.66290 0.67320 0.31550 -0.37000
N 	N 	0.55910 0.20930 0.30760 -0.28900
N 	N 	0.53880 0.64400 0.25080 -0.29600
O 	O 	0.63910 0.48470 0.32310 -0.43000
O 	O 	0.67670 0.84760 0.63290 -0.40300
N 	N 	0.59870 0.59030 0.23460 -0.25500
C 	C 	0.69610 0.01490 0.41080 0.31300
C 	C 	0.52120 0.30860 0.38400 0.29800
C 	C 	0.59130 0.25110 0.41630 -0.06300
C 	C 	0.60710 0.28430 0.49200 0.31100
N 	N 	0.61500 0.19620 0.37730 -0.29000
C 	C 	0.58070 0.55280 0.30140 -0.06700
N 	N 	0.71740 0.56590 0.27270 -0.30000
O 	O 	0.68880 0.07660 0.36690 -0.45200
C 	C 	0.54340 0.58720 0.31080 -0.04500
O 	O 	0.70880 0.84390 0.51500 -0.41300
C 	C 	0.72940 0.63560 0.30630 -0.04700
C 	C 	0.55750 0.26060 0.37200 -0.04500
C 	C 	0.66240 0.08270 0.60520 0.23900
C 	C 	0.68120 0.96720 0.56180 -0.05800
C 	C 	0.68990 0.87960 0.57170 0.31700
O 	O 	0.70810 0.75370 0.37260 -0.42200
C 	C 	0.53830 0.40730 0.02680 0.03400
C 	C 	0.60440 0.49350 0.34600 0.32900
C 	C 	0.57170 0.64480 0.20790 0.29300
C 	C 	0.68500 0.01900 0.49840 -0.09200
C 	C 	0.55180 0.46780 0.96760 0.03300
C 	C 	0.51040 0.35160 0.01470 -0.10300
H 	H 	0.49800 0.35090 0.96540 0.04700
O 	O 	0.58740 0.33190 0.53510 -0.43300
C 	C 	0.69780 0.69200 0.32950 0.30400
C 	C 	0.58380 0.51730 0.98000 -0.12400
H 	H 	0.59680 0.51700 0.02860 0.06100
N 	N 	0.51800 0.29660 0.14970 -0.25100
C 	C 	0.59370 0.17250 0.30890 0.28600
N 	N 	0.57610 0.57470 0.84330 -0.20300
C 	C 	0.53140 0.47400 0.89000 -0.11500
H 	H 	0.51010 0.44350 0.87960 0.05000
C 	C 	0.54280 0.35380 0.16590 0.04900
H 	H 	0.55300 0.35740 0.21720 -0.01500
C 	C 	0.60910 0.11640 0.25160 -0.82900
H 	H 	0.61810 0.14310 0.20470 0.24600
H 	H 	0.63000 0.08890 0.27580 0.25800
H 	H 	0.58950 0.08040 0.23660 0.24100
C 	C 	0.65150 0.14730 0.66110 -0.77400
H 	H 	0.67430 0.17110 0.68180 0.20300
H 	H 	0.63670 0.18510 0.63250 0.24900
H 	H 	0.63670 0.12690 0.70470 0.23800
C 	C 	0.58090 0.69650 0.13770 -0.85400
H 	H 	0.57910 0.74970 0.15400 0.27300
H 	H 	0.60640 0.68600 0.11940 0.28000
H 	H 	0.56310 0.68670 0.09510 0.27400
C 	C 	0.54500 0.52740 0.83180 0.05400
H 	H 	0.53220 0.53040 0.78310 -0.00900
C 	C 	0.59580 0.56800 0.91600 0.05100
H 	H 	0.61780 0.59760 0.92340 0.01100
C 	C 	0.55380 0.40920 0.10750 -0.11400
H 	H 	0.57140 0.44740 0.12120 0.05700
C 	C 	0.50030 0.29950 0.06810 0.04000
H 	H 	0.48160 0.26340 0.05480 -0.00500
H 	H 	0.73720 0.40880 0.25480 0.27000
H 	H 	0.77590 0.42660 0.21090 0.27200
H 	H 	0.73690 0.44390 0.16810 0.27900
H 	H 	0.58310 0.60730 0.80720 0.10500
O 	O 	0.52000 0.11400 0.14040 -0.48400
C 	C 	0.48830 0.07590 0.12790 0.26900
N 	N 	0.33330 0.50480 0.87060 -0.27700
Er	Er	0.44615 0.94519 0.98225 1.46200
Zn	Zn	0.34026 0.06836 0.26865 1.19200
Zn	Zn	0.49068 0.71188 0.26159 1.17900
Zn	Zn	0.33401 0.67248 0.06453 1.15500
O 	O 	0.29160 0.45240 0.11960 -0.42000
O 	O 	0.41150 0.95420 0.09730 -0.43600
O 	O 	0.48440 0.03180 0.06400 -0.47000
O 	O 	0.48270 0.85820 0.05970 -0.39000
N 	N 	0.32680 0.59420 0.97210 -0.29400
O 	O 	0.50530 0.79930 0.17060 -0.41600
O 	O 	0.35860 0.76280 0.98610 -0.45300
O 	O 	0.33710 0.17320 0.18450 -0.37000
N 	N 	0.44090 0.70930 0.19240 -0.28900
N 	N 	0.46120 0.14400 0.24920 -0.29600
O 	O 	0.36090 0.98470 0.17690 -0.42900
O 	O 	0.32330 0.34760 0.86710 -0.40200
N 	N 	0.40130 0.09030 0.26540 -0.25500
C 	C 	0.30390 0.51490 0.08920 0.31400
C 	C 	0.47880 0.80860 0.11600 0.29700
C 	C 	0.40870 0.75110 0.08370 -0.06400
C 	C 	0.39290 0.78430 0.00800 0.31500
N 	N 	0.38500 0.69620 0.12270 -0.28900
C 	C 	0.41930 0.05280 0.19860 -0.07000
N 	N 	0.28260 0.06590 0.22730 -0.30000
O 	O 	0.31120 0.57660 0.13310 -0.45200
C 	C 	0.45660 0.08720 0.18920 -0.04500
O 	O 	0.29120 0.34390 0.98500 -0.41100
C 	C 	0.27060 0.13560 0.19370 -0.04800
C 	C 	0.44250 0.76060 0.12800 -0.04400
C 	C 	0.33760 0.58270 0.89480 0.23900
C 	C 	0.31880 0.46720 0.93820 -0.05600
C 	C 	0.31010 0.37960 0.92830 0.31600
O 	O 	0.29190 0.25370 0.12740 -0.42200
C 	C 	0.46170 0.90730 0.47320 0.03300
C 	C 	0.39560 0.99350 0.15400 0.33100
C 	C 	0.42830 0.14480 0.29210 0.29200
C 	C 	0.31500 0.51900 0.00160 -0.09400
C 	C 	0.44820 0.96780 0.53240 0.03200
C 	C 	0.48960 0.85160 0.48530 -0.09900
H 	H 	0.50200 0.85090 0.53460 0.04500
O 	O 	0.41260 0.83190 0.96490 -0.43500
C 	C 	0.30220 0.19200 0.17050 0.30300
C 	C 	0.41620 0.01730 0.52000 -0.12300
H 	H 	0.40320 0.01700 0.47140 0.06000
N 	N 	0.48200 0.79660 0.35030 -0.25100
C 	C 	0.40630 0.67250 0.19110 0.28600
N 	N 	0.42390 0.07470 0.65670 -0.20300
C 	C 	0.46860 0.97400 0.61000 -0.11700
H 	H 	0.48990 0.94350 0.62040 0.05000
C 	C 	0.45720 0.85380 0.33410 0.04900
H 	H 	0.44700 0.85740 0.28280 -0.01500
C 	C 	0.39090 0.61640 0.24840 -0.83000
H 	H 	0.38190 0.64310 0.29530 0.24700
H 	H 	0.37000 0.58890 0.22420 0.25800
H 	H 	0.41050 0.58040 0.26340 0.24200
C 	C 	0.34850 0.64730 0.83890 -0.77300
H 	H 	0.32570 0.67110 0.81820 0.20200
H 	H 	0.36330 0.68510 0.86750 0.24900
H 	H 	0.36330 0.62690 0.79530 0.23800
C 	C 	0.41910 0.19650 0.36230 -0.85200
H 	H 	0.42090 0.24970 0.34600 0.27200
H 	H 	0.39360 0.18600 0.38060 0.27900
H 	H 	0.43690 0.18670 0.40490 0.27300
C 	C 	0.45500 0.02740 0.66820 0.05500
H 	H 	0.46780 0.03040 0.71690 -0.00800
C 	C 	0.40420 0.06800 0.58400 0.05100
H 	H 	0.38220 0.09760 0.57660 0.01100
C 	C 	0.44620 0.90920 0.39250 -0.11300
H 	H 	0.42860 0.94740 0.37880 0.05700
C 	C 	0.49970 0.79950 0.43190 0.03800
H 	H 	0.51840 0.76340 0.44520 -0.00400
H 	H 	0.26280 0.90880 0.24520 0.26800
H 	H 	0.22410 0.92660 0.28910 0.27100
H 	H 	0.26310 0.94390 0.33190 0.27800
H 	H 	0.41690 0.10730 0.69280 0.10500
O 	O 	0.98000 0.38600 0.64040 -0.48400
C 	C 	0.01170 0.42410 0.62790 0.27000
N 	N 	0.16670 0.99520 0.37060 -0.27600
Er	Er	0.05385 0.55481 0.48225 1.46700
Zn	Zn	0.15974 0.43164 0.76865 1.19200
Zn	Zn	0.00932 0.78812 0.76159 1.17900
Zn	Zn	0.16599 0.82752 0.56453 1.15400
O 	O 	0.20840 0.04760 0.61960 -0.41900
O 	O 	0.08850 0.54580 0.59730 -0.43800
O 	O 	0.01560 0.46820 0.56400 -0.46900
O 	O 	0.01730 0.64180 0.55970 -0.39200
N 	N 	0.17320 0.90580 0.47210 -0.29500
O 	O 	0.99470 0.70070 0.67060 -0.41700
O 	O 	0.14140 0.73720 0.48610 -0.45100
O 	O 	0.16290 0.32680 0.68450 -0.37000
N 	N 	0.05910 0.79070 0.69240 -0.28900
N 	N 	0.03880 0.35600 0.74920 -0.29500
O 	O 	0.13910 0.51530 0.67690 -0.43000
O 	O 	0.17670 0.15240 0.36710 -0.40300
N 	N 	0.09870 0.40970 0.76540 -0.25500
C 	C 	0.19610 0.98510 0.58920 0.31200
C 	C 	0.02120 0.69140 0.61600 0.29700
C 	C 	0.09130 0.74890 0.58370 -0.06300
C 	C 	0.10710 0.71570 0.50800 0.31100
N 	N 	0.11500 0.80380 0.62270 -0.29000
C 	C 	0.08070 0.44720 0.69860 -0.06700
N 	N 	0.21740 0.43410 0.72730 -0.30000
O 	O 	0.18880 0.92340 0.63310 -0.45200
C 	C 	0.04340 0.41280 0.68920 -0.04500
O 	O 	0.20880 0.15610 0.48500 -0.41300
C 	C 	0.22940 0.36440 0.69370 -0.04700
C 	C 	0.05750 0.73940 0.62800 -0.04500
C 	C 	0.16240 0.91730 0.39480 0.23900
C 	C 	0.18120 0.03280 0.43820 -0.05800
C 	C 	0.18990 0.12040 0.42830 0.31600
O 	O 	0.20810 0.24630 0.62740 -0.42200
C 	C 	0.03830 0.59270 0.97320 0.03400
C 	C 	0.10440 0.50650 0.65400 0.32900
C 	C 	0.07170 0.35520 0.79210 0.29300
C 	C 	0.18500 0.98100 0.50160 -0.09200
C 	C 	0.05180 0.53220 0.03240 0.03200
C 	C 	0.01040 0.64840 0.98530 -0.10300
H 	H 	0.99800 0.64910 0.03460 0.04800
O 	O 	0.08740 0.66810 0.46490 -0.43300
C 	C 	0.19780 0.30800 0.67050 0.30400
C 	C 	0.08380 0.48270 0.02000 -0.12400
H 	H 	0.09680 0.48300 0.97140 0.06100
N 	N 	0.01800 0.70340 0.85030 -0.25100
C 	C 	0.09370 0.82750 0.69110 0.28600
N 	N 	0.07610 0.42530 0.15670 -0.20300
C 	C 	0.03140 0.52600 0.11000 -0.11500
H 	H 	0.01010 0.55650 0.12040 0.05000
C 	C 	0.04280 0.64620 0.83410 0.05000
H 	H 	0.05300 0.64260 0.78280 -0.01500
C 	C 	0.10910 0.88360 0.74840 -0.82800
H 	H 	0.11810 0.85690 0.79530 0.24600
H 	H 	0.13000 0.91110 0.72420 0.25700
H 	H 	0.08950 0.91960 0.76340 0.24100
C 	C 	0.15150 0.85270 0.33890 -0.77400
H 	H 	0.17430 0.82890 0.31820 0.20300
H 	H 	0.13670 0.81490 0.36750 0.24900
H 	H 	0.13670 0.87310 0.29530 0.23800
C 	C 	0.08090 0.30350 0.86230 -0.85400
H 	H 	0.07910 0.25030 0.84600 0.27300
H 	H 	0.10640 0.31400 0.88060 0.28000
H 	H 	0.06310 0.31330 0.90490 0.27400
C 	C 	0.04500 0.47260 0.16820 0.05400
H 	H 	0.03220 0.46960 0.21690 -0.00900
C 	C 	0.09580 0.43200 0.08400 0.05100
H 	H 	0.11780 0.40240 0.07660 0.01100
C 	C 	0.05380 0.59080 0.89250 -0.11400
H 	H 	0.07140 0.55260 0.87880 0.05700
C 	C 	0.00030 0.70050 0.93190 0.03900
H 	H 	0.98160 0.73660 0.94520 -0.00500
H 	H 	0.23720 0.59120 0.74520 0.27000
H 	H 	0.27590 0.57340 0.78910 0.27200
H 	H 	0.23690 0.55610 0.83190 0.27900
H 	H 	0.08310 0.39270 0.19280 0.10500
O 	O 	0.02000 0.88600 0.85960 -0.48400
C 	C 	0.98830 0.92410 0.87210 0.27000
N 	N 	0.83330 0.49520 0.12940 -0.27700
Er	Er	0.94615 0.05481 0.01775 1.46200
Zn	Zn	0.84026 0.93164 0.73135 1.19200
Zn	Zn	0.99068 0.28812 0.73841 1.17900
Zn	Zn	0.83401 0.32752 0.93547 1.15500
O 	O 	0.79160 0.54760 0.88040 -0.42000
O 	O 	0.91150 0.04580 0.90270 -0.43600
O 	O 	0.98440 0.96820 0.93600 -0.46900
O 	O 	0.98270 0.14180 0.94030 -0.39000
N 	N 	0.82680 0.40580 0.02790 -0.29400
O 	O 	0.00530 0.20070 0.82940 -0.41600
O 	O 	0.85860 0.23720 0.01390 -0.45300
O 	O 	0.83710 0.82680 0.81550 -0.37000
N 	N 	0.94090 0.29070 0.80760 -0.28900
N 	N 	0.96120 0.85600 0.75080 -0.29500
O 	O 	0.86090 0.01530 0.82310 -0.42900
O 	O 	0.82330 0.65240 0.13290 -0.40200
N 	N 	0.90130 0.90970 0.73460 -0.25500
C 	C 	0.80390 0.48510 0.91080 0.31400
C 	C 	0.97880 0.19140 0.88400 0.29600
C 	C 	0.90870 0.24890 0.91630 -0.06400
C 	C 	0.89290 0.21570 0.99200 0.31500
N 	N 	0.88500 0.30380 0.87730 -0.28900
C 	C 	0.91930 0.94720 0.80140 -0.06900
N 	N 	0.78260 0.93410 0.77270 -0.30000
O 	O 	0.81120 0.42340 0.86690 -0.45200
C 	C 	0.95660 0.91280 0.81080 -0.04500
O 	O 	0.79120 0.65610 0.01500 -0.41100
C 	C 	0.77060 0.86440 0.80630 -0.04800
C 	C 	0.94250 0.23940 0.87200 -0.04400
C 	C 	0.83760 0.41730 0.10520 0.23900
C 	C 	0.81880 0.53280 0.06180 -0.05600
C 	C 	0.81010 0.62040 0.07170 0.31600
O 	O 	0.79190 0.74630 0.87260 -0.42200
C 	C 	0.96170 0.09270 0.52680 0.03300
C 	C 	0.89560 0.00650 0.84600 0.33000
C 	C 	0.92830 0.85520 0.70790 0.29200
C 	C 	0.81500 0.48100 0.99840 -0.09400
C 	C 	0.94820 0.03220 0.46760 0.03200
C 	C 	0.98960 0.14840 0.51470 -0.10000
H 	H 	0.00200 0.14910 0.46540 0.04600
O 	O 	0.91260 0.16810 0.03510 -0.43500
C 	C 	0.80220 0.80800 0.82950 0.30300
C 	C 	0.91620 0.98270 0.48000 -0.12200
H 	H 	0.90320 0.98300 0.52860 0.05900
N 	N 	0.98200 0.20340 0.64970 -0.25100
C 	C 	0.90630 0.32750 0.80890 0.28600
N 	N 	0.92390 0.92530 0.34330 -0.20300
C 	C 	0.96860 0.02600 0.39000 -0.11800
H 	H 	0.98990 0.05650 0.37960 0.05000
C 	C 	0.95720 0.14620 0.66590 0.04900
H 	H 	0.94700 0.14260 0.71720 -0.01500
C 	C 	0.89090 0.38360 0.75160 -0.83000
H 	H 	0.88190 0.35690 0.70470 0.24700
H 	H 	0.87000 0.41110 0.77580 0.25800
H 	H 	0.91050 0.41960 0.73660 0.24200
C 	C 	0.84850 0.35270 0.16110 -0.77300
H 	H 	0.82570 0.32890 0.18180 0.20200
H 	H 	0.86330 0.31490 0.13250 0.24900
H 	H 	0.86330 0.37310 0.20470 0.23800
C 	C 	0.91910 0.80350 0.63770 -0.85200
H 	H 	0.92090 0.75030 0.65400 0.27200
H 	H 	0.89360 0.81400 0.61940 0.27900
H 	H 	0.93690 0.81330 0.59510 0.27300
C 	C 	0.95500 0.97260 0.33180 0.05600
H 	H 	0.96780 0.96960 0.28310 -0.00900
C 	C 	0.90420 0.93200 0.41600 0.05000
H 	H 	0.88220 0.90240 0.42340 0.01100
C 	C 	0.94620 0.09080 0.60750 -0.11300
H 	H 	0.92860 0.05260 0.62120 0.05700
C 	C 	0.99970 0.20050 0.56810 0.03800
H 	H 	0.01840 0.23660 0.55480 -0.00400
H 	H 	0.76280 0.09120 0.75480 0.26800
H 	H 	0.72410 0.07340 0.71090 0.27100
H 	H 	0.76310 0.05610 0.66810 0.27800
H 	H 	0.91690 0.89270 0.30720 0.10500
Er	Er	0.25000 0.15071 0.59507 1.80100
C 	C 	0.25000 0.55650 0.78130 -1.66100
C 	C 	0.25000 0.47400 0.74550 0.44400
O 	O 	0.25000 0.13840 0.74360 -0.43800
H 	H 	0.25000 0.18400 0.76400 0.21700
Er	Er	0.75000 0.65071 0.90493 1.79800
C 	C 	0.75000 0.05650 0.71870 -1.65200
C 	C 	0.75000 0.97400 0.75450 0.44000
O 	O 	0.75000 0.63840 0.75640 -0.43900
H 	H 	0.75000 0.68400 0.73600 0.21700
Er	Er	0.75000 0.84929 0.40493 1.80100
C 	C 	0.75000 0.44350 0.21870 -1.66100
C 	C 	0.75000 0.52600 0.25450 0.44400
O 	O 	0.75000 0.86160 0.25640 -0.43800
H 	H 	0.75000 0.81600 0.23600 0.21700
Er	Er	0.25000 0.34929 0.09507 1.79800
C 	C 	0.25000 0.94350 0.28130 -1.65200
C 	C 	0.25000 0.02600 0.24550 0.44000
O 	O 	0.25000 0.36160 0.24360 -0.43900
H 	H 	0.25000 0.31600 0.26400 0.21700
