data_crystal

_cell_length_a 16.28250
_cell_length_b 33.84050
_cell_length_c 16.96490
_cell_angle_alpha 90.00000
_cell_angle_beta  90.00000
_cell_angle_gamma 90.00000

_symmetry_space_group_name_	'P 1'
_symmetry_space_group_name_H-M	'P 1'

loop_
_symmetry_equiv_pos_as_xyz
  x,y,z

loop_
_atom_site_label
_atom_site_type_symbol
_atom_site_fract_x
_atom_site_fract_y
_atom_site_fract_z
_atom_site_charge
Eu	Eu	0.48219 0.55374 0.44509 1.86700
Zn	Zn	0.73878 0.49086 0.71149 1.18900
Zn	Zn	0.56346 0.66557 0.17236 1.16300
Zn	Zn	0.26818 0.65983 0.93124 1.20300
O 	O 	0.56590 0.51502 0.53240 -0.60300
O 	O 	0.63980 0.47992 0.61370 -0.56500
O 	O 	0.59830 0.58773 0.45320 -0.53300
O 	O 	0.67800 0.63899 0.48380 -0.46400
O 	O 	0.46310 0.58714 0.33140 -0.52500
O 	O 	0.48480 0.64140 0.26200 -0.49100
O 	O 	0.55950 0.51717 0.35770 -0.48200
O 	O 	0.67140 0.49498 0.29890 -0.46500
O 	O 	0.61940 0.70860 0.95300 -0.53900
O 	O 	0.63200 0.68820 0.07750 -0.49100
O 	O 	0.48480 0.70890 0.84480 -0.50300
O 	O 	0.36620 0.67648 0.84820 -0.42200
O 	O 	0.63090 0.70730 0.75640 -0.54500
O 	O 	0.68600 0.66354 0.67380 -0.41000
N 	N 	0.74760 0.53930 0.64420 -0.30600
N 	N 	0.76300 0.59885 0.59020 -0.27600
N 	N 	0.62230 0.61401 0.19540 -0.29900
N 	N 	0.69330 0.55866 0.20900 -0.30100
N 	N 	0.47210 0.67260 0.09400 -0.30200
N 	N 	0.36970 0.66730 0.00590 -0.28500
N 	N 	0.72650 0.71667 0.56640 -0.30600
N 	N 	0.64910 0.48190 0.79520 -0.27200
N 	N 	0.34620 0.42410 0.07600 -0.13900
C 	C 	0.62760 0.51210 0.57670 0.36900
C 	C 	0.68730 0.54380 0.58670 -0.08000
C 	C 	0.69890 0.58100 0.55390 -0.06800
C 	C 	0.65420 0.60420 0.49360 0.38500
C 	C 	0.79050 0.57300 0.64350 0.33600
C 	C 	0.86310 0.58120 0.69540 -0.92000
H 	H 	0.91280 0.57790 0.66560 0.29300
H 	H 	0.86300 0.56310 0.73910 0.29200
H 	H 	0.86010 0.60780 0.71480 0.29900
C 	C 	0.50500 0.60690 0.28370 0.38200
C 	C 	0.58290 0.59100 0.25020 -0.07200
C 	C 	0.62630 0.55720 0.26020 -0.06800
C 	C 	0.61670 0.52100 0.30910 0.37700
C 	C 	0.68900 0.59300 0.17260 0.29200
C 	C 	0.75130 0.60900 0.11640 -0.77300
H 	H 	0.78090 0.63020 0.14110 0.22500
H 	H 	0.72420 0.61870 0.07010 0.24000
H 	H 	0.78900 0.58840 0.10200 0.20700
C 	C 	0.58920 0.69540 0.01560 0.38500
C 	C 	0.50100 0.68520 0.02040 -0.10700
C 	C 	0.43800 0.68190 0.96720 -0.08000
C 	C 	0.43030 0.68970 0.88180 0.36900
C 	C 	0.39200 0.66320 0.08140 0.27300
C 	C 	0.33400 0.65110 0.14590 -0.82300
H 	H 	0.31550 0.67420 0.17360 0.21900
H 	H 	0.36170 0.63380 0.18190 0.26700
H 	H 	0.28760 0.63770 0.12340 0.25500
C 	C 	0.66820 0.69850 0.69270 0.39000
C 	C 	0.69220 0.72930 0.63590 -0.07600
C 	C 	0.57290 0.49900 0.79650 0.08600
H 	H 	0.56110 0.51830 0.75920 -0.02600
C 	C 	0.51330 0.48910 0.85000 -0.13800
H 	H 	0.46210 0.50130 0.84810 0.06000
C 	C 	0.52970 0.46090 0.90680 0.06300
C 	C 	0.60910 0.44590 0.90860 -0.15600
H 	H 	0.62480 0.42890 0.94900 0.07100
C 	C 	0.66390 0.45590 0.85150 0.08900
H 	H 	0.71500 0.44360 0.85220 -0.03100
C 	C 	0.33600 0.45520 0.02900 0.05300
H 	H 	0.28690 0.46900 0.03350 -0.00400
C 	C 	0.39180 0.46860 0.97460 -0.11900
H 	H 	0.38000 0.49080 0.94410 0.05000
C 	C 	0.46700 0.44850 0.96520 0.02800
C 	C 	0.47890 0.41650 0.01510 -0.12400
H 	H 	0.52820 0.40280 0.01250 0.05700
C 	C 	0.41970 0.40430 0.06860 0.04000
H 	H 	0.42980 0.38230 0.10010 0.01300
H 	H 	0.78670 0.77660 0.42510 0.24400
H 	H 	0.83760 0.73880 0.44690 0.24900
H 	H 	0.75010 0.73450 0.40950 0.23700
Eu	Eu	0.01781 0.44626 0.94509 1.86100
Zn	Zn	0.76122 0.50914 0.21149 1.19000
Zn	Zn	0.93654 0.33443 0.67236 1.16500
Zn	Zn	0.23182 0.34017 0.43124 1.20500
O 	O 	0.93410 0.48498 0.03240 -0.60200
O 	O 	0.86020 0.52008 0.11370 -0.56400
O 	O 	0.90170 0.41227 0.95320 -0.53000
O 	O 	0.82200 0.36101 0.98380 -0.46200
O 	O 	0.03690 0.41286 0.83140 -0.52700
O 	O 	0.01520 0.35860 0.76200 -0.49300
O 	O 	0.94050 0.48283 0.85770 -0.47800
O 	O 	0.82860 0.50502 0.79890 -0.46300
O 	O 	0.88060 0.29140 0.45300 -0.54000
O 	O 	0.86800 0.31180 0.57750 -0.49100
O 	O 	0.01520 0.29110 0.34480 -0.50100
O 	O 	0.13380 0.32352 0.34820 -0.42100
O 	O 	0.86910 0.29270 0.25640 -0.54500
O 	O 	0.81400 0.33646 0.17380 -0.41000
N 	N 	0.75240 0.46070 0.14420 -0.30600
N 	N 	0.73700 0.40115 0.09020 -0.27600
N 	N 	0.87770 0.38599 0.69540 -0.29900
N 	N 	0.80670 0.44134 0.70900 -0.30100
N 	N 	0.02790 0.32740 0.59400 -0.30200
N 	N 	0.13030 0.33270 0.50590 -0.28600
N 	N 	0.77350 0.28333 0.06640 -0.30600
N 	N 	0.85090 0.51810 0.29520 -0.27200
N 	N 	0.15380 0.57590 0.57600 -0.14000
C 	C 	0.87240 0.48790 0.07670 0.36800
C 	C 	0.81270 0.45620 0.08670 -0.08000
C 	C 	0.80110 0.41900 0.05390 -0.07200
C 	C 	0.84580 0.39580 0.99360 0.38800
C 	C 	0.70950 0.42700 0.14350 0.33500
C 	C 	0.63690 0.41880 0.19540 -0.91800
H 	H 	0.58720 0.42210 0.16560 0.29200
H 	H 	0.63700 0.43690 0.23910 0.29100
H 	H 	0.63990 0.39220 0.21480 0.29800
C 	C 	0.99500 0.39310 0.78370 0.38800
C 	C 	0.91710 0.40900 0.75020 -0.07400
C 	C 	0.87370 0.44280 0.76020 -0.06600
C 	C 	0.88330 0.47900 0.80910 0.37600
C 	C 	0.81100 0.40700 0.67260 0.29300
C 	C 	0.74870 0.39100 0.61640 -0.77400
H 	H 	0.71910 0.36980 0.64110 0.22600
H 	H 	0.77580 0.38130 0.57010 0.24100
H 	H 	0.71100 0.41160 0.60200 0.20800
C 	C 	0.91080 0.30460 0.51560 0.38700
C 	C 	0.99900 0.31480 0.52040 -0.10900
C 	C 	0.06200 0.31810 0.46720 -0.07800
C 	C 	0.06970 0.31030 0.38180 0.36800
C 	C 	0.10800 0.33680 0.58140 0.27200
C 	C 	0.16600 0.34890 0.64590 -0.82200
H 	H 	0.18450 0.32580 0.67360 0.21800
H 	H 	0.13830 0.36620 0.68190 0.26700
H 	H 	0.21240 0.36230 0.62340 0.25500
C 	C 	0.83180 0.30150 0.19270 0.39000
C 	C 	0.80780 0.27070 0.13590 -0.07600
C 	C 	0.92710 0.50100 0.29650 0.08800
H 	H 	0.93890 0.48170 0.25920 -0.02700
C 	C 	0.98670 0.51090 0.35000 -0.14300
H 	H 	0.03790 0.49870 0.34810 0.06200
C 	C 	0.97030 0.53910 0.40680 0.06400
C 	C 	0.89090 0.55410 0.40860 -0.15700
H 	H 	0.87520 0.57110 0.44900 0.07100
C 	C 	0.83610 0.54410 0.35150 0.08900
H 	H 	0.78500 0.55640 0.35220 -0.03100
C 	C 	0.16400 0.54480 0.52900 0.05100
H 	H 	0.21310 0.53100 0.53350 -0.00400
C 	C 	0.10820 0.53140 0.47460 -0.11600
H 	H 	0.12000 0.50920 0.44410 0.04900
C 	C 	0.03300 0.55150 0.46520 0.02800
C 	C 	0.02110 0.58350 0.51510 -0.12600
H 	H 	0.97180 0.59720 0.51250 0.05800
C 	C 	0.08030 0.59570 0.56860 0.04100
H 	H 	0.07020 0.61770 0.60010 0.01200
H 	H 	0.71330 0.22340 0.92510 0.24300
H 	H 	0.66240 0.26120 0.94690 0.24800
H 	H 	0.74990 0.26550 0.90950 0.23600
Eu	Eu	0.51781 0.05374 0.55491 1.86800
Zn	Zn	0.26122 0.99086 0.28851 1.19000
Zn	Zn	0.43654 0.16557 0.82764 1.16400
Zn	Zn	0.73182 0.15983 0.06876 1.20400
O 	O 	0.43410 0.01502 0.46760 -0.60200
O 	O 	0.36020 0.97992 0.38630 -0.56500
O 	O 	0.40170 0.08773 0.54680 -0.53200
O 	O 	0.32200 0.13899 0.51620 -0.46300
O 	O 	0.53690 0.08714 0.66860 -0.52400
O 	O 	0.51520 0.14140 0.73800 -0.49000
O 	O 	0.44050 0.01717 0.64230 -0.48100
O 	O 	0.32860 0.99498 0.70110 -0.46300
O 	O 	0.38060 0.20860 0.04700 -0.53900
O 	O 	0.36800 0.18820 0.92250 -0.49100
O 	O 	0.51520 0.20890 0.15520 -0.50300
O 	O 	0.63380 0.17648 0.15180 -0.42200
O 	O 	0.36910 0.20730 0.24360 -0.54400
O 	O 	0.31400 0.16354 0.32620 -0.41000
N 	N 	0.25240 0.03930 0.35580 -0.30600
N 	N 	0.23700 0.09885 0.40980 -0.27600
N 	N 	0.37770 0.11401 0.80460 -0.29900
N 	N 	0.30670 0.05866 0.79100 -0.30100
N 	N 	0.52790 0.17260 0.90600 -0.30200
N 	N 	0.63030 0.16730 0.99410 -0.28500
N 	N 	0.27350 0.21667 0.43360 -0.30600
N 	N 	0.35090 0.98190 0.20480 -0.27200
N 	N 	0.65380 0.92410 0.92400 -0.13900
C 	C 	0.37240 0.01210 0.42330 0.36900
C 	C 	0.31270 0.04380 0.41330 -0.08000
C 	C 	0.30110 0.08100 0.44610 -0.06800
C 	C 	0.34580 0.10420 0.50640 0.38500
C 	C 	0.20950 0.07300 0.35650 0.33600
C 	C 	0.13690 0.08120 0.30460 -0.92000
H 	H 	0.08720 0.07790 0.33440 0.29300
H 	H 	0.13700 0.06310 0.26090 0.29300
H 	H 	0.13990 0.10780 0.28520 0.30000
C 	C 	0.49500 0.10690 0.71630 0.38200
C 	C 	0.41710 0.09100 0.74980 -0.07300
C 	C 	0.37370 0.05720 0.73980 -0.06800
C 	C 	0.38330 0.02100 0.69090 0.37600
C 	C 	0.31100 0.09300 0.82740 0.29200
C 	C 	0.24870 0.10900 0.88360 -0.77200
H 	H 	0.21910 0.13020 0.85890 0.22500
H 	H 	0.27580 0.11870 0.92990 0.24000
H 	H 	0.21100 0.08840 0.89800 0.20700
C 	C 	0.41080 0.19540 0.98440 0.38500
C 	C 	0.49900 0.18520 0.97960 -0.10800
C 	C 	0.56200 0.18190 0.03280 -0.08000
C 	C 	0.56970 0.18970 0.11820 0.36900
C 	C 	0.60800 0.16320 0.91860 0.27200
C 	C 	0.66600 0.15110 0.85410 -0.82300
H 	H 	0.68450 0.17420 0.82640 0.21900
H 	H 	0.63830 0.13380 0.81810 0.26700
H 	H 	0.71240 0.13770 0.87660 0.25500
C 	C 	0.33180 0.19850 0.30730 0.39000
C 	C 	0.30780 0.22930 0.36410 -0.07600
C 	C 	0.42710 0.99900 0.20350 0.08600
H 	H 	0.43890 0.01830 0.24080 -0.02600
C 	C 	0.48670 0.98910 0.15000 -0.14000
H 	H 	0.53790 0.00130 0.15190 0.06100
C 	C 	0.47030 0.96090 0.09320 0.06300
C 	C 	0.39090 0.94590 0.09140 -0.15700
H 	H 	0.37520 0.92890 0.05100 0.07100
C 	C 	0.33610 0.95590 0.14850 0.08900
H 	H 	0.28500 0.94360 0.14780 -0.03100
C 	C 	0.66400 0.95520 0.97100 0.05400
H 	H 	0.71310 0.96900 0.96650 -0.00400
C 	C 	0.60820 0.96860 0.02540 -0.12000
H 	H 	0.62000 0.99080 0.05590 0.05000
C 	C 	0.53300 0.94850 0.03480 0.02700
C 	C 	0.52110 0.91650 0.98490 -0.12300
H 	H 	0.47180 0.90280 0.98750 0.05600
C 	C 	0.58030 0.90430 0.93140 0.04000
H 	H 	0.57020 0.88230 0.89990 0.01300
H 	H 	0.21330 0.27660 0.57490 0.24400
H 	H 	0.16240 0.23880 0.55310 0.24900
H 	H 	0.24990 0.23450 0.59050 0.23700
Eu	Eu	0.98219 0.94626 0.05491 1.86000
Zn	Zn	0.23878 0.00914 0.78851 1.19000
Zn	Zn	0.06346 0.83443 0.32764 1.16500
Zn	Zn	0.76818 0.84017 0.56876 1.20500
O 	O 	0.06590 0.98498 0.96760 -0.60200
O 	O 	0.13980 0.02008 0.88630 -0.56500
O 	O 	0.09830 0.91227 0.04680 -0.53000
O 	O 	0.17800 0.86101 0.01620 -0.46200
O 	O 	0.96310 0.91286 0.16860 -0.52700
O 	O 	0.98480 0.85860 0.23800 -0.49300
O 	O 	0.05950 0.98283 0.14230 -0.47800
O 	O 	0.17140 0.00502 0.20110 -0.46200
O 	O 	0.11940 0.79140 0.54700 -0.54000
O 	O 	0.13200 0.81180 0.42250 -0.49100
O 	O 	0.98480 0.79110 0.65520 -0.50100
O 	O 	0.86620 0.82352 0.65180 -0.42100
O 	O 	0.13090 0.79270 0.74360 -0.54500
O 	O 	0.18600 0.83646 0.82620 -0.41000
N 	N 	0.24760 0.96070 0.85580 -0.30600
N 	N 	0.26300 0.90115 0.90980 -0.27600
N 	N 	0.12230 0.88599 0.30460 -0.29900
N 	N 	0.19330 0.94134 0.29100 -0.30100
N 	N 	0.97210 0.82740 0.40600 -0.30200
N 	N 	0.86970 0.83270 0.49410 -0.28600
N 	N 	0.22650 0.78333 0.93360 -0.30600
N 	N 	0.14910 0.01810 0.70480 -0.27200
N 	N 	0.84620 0.07590 0.42400 -0.14000
C 	C 	0.12760 0.98790 0.92330 0.36900
C 	C 	0.18730 0.95620 0.91330 -0.08000
C 	C 	0.19890 0.91900 0.94610 -0.07100
C 	C 	0.15420 0.89580 0.00640 0.38700
C 	C 	0.29050 0.92700 0.85650 0.33500
C 	C 	0.36310 0.91880 0.80460 -0.91800
H 	H 	0.41280 0.92210 0.83440 0.29200
H 	H 	0.36300 0.93690 0.76090 0.29100
H 	H 	0.36010 0.89220 0.78520 0.29800
C 	C 	0.00500 0.89310 0.21630 0.38800
C 	C 	0.08290 0.90900 0.24980 -0.07400
C 	C 	0.12630 0.94280 0.23980 -0.06600
C 	C 	0.11670 0.97900 0.19090 0.37500
C 	C 	0.18900 0.90700 0.32740 0.29300
C 	C 	0.25130 0.89100 0.38360 -0.77400
H 	H 	0.28090 0.86980 0.35890 0.22600
H 	H 	0.22420 0.88130 0.42990 0.24100
H 	H 	0.28900 0.91160 0.39800 0.20800
C 	C 	0.08920 0.80460 0.48440 0.38700
C 	C 	0.00100 0.81480 0.47960 -0.10900
C 	C 	0.93800 0.81810 0.53280 -0.07800
C 	C 	0.93030 0.81030 0.61820 0.36800
C 	C 	0.89200 0.83680 0.41860 0.27200
C 	C 	0.83400 0.84890 0.35410 -0.82200
H 	H 	0.81550 0.82580 0.32640 0.21800
H 	H 	0.86170 0.86620 0.31810 0.26700
H 	H 	0.78760 0.86230 0.37660 0.25500
C 	C 	0.16820 0.80150 0.80730 0.39000
C 	C 	0.19220 0.77070 0.86410 -0.07600
C 	C 	0.07290 0.00100 0.70350 0.08700
H 	H 	0.06110 0.98170 0.74080 -0.02700
C 	C 	0.01330 0.01090 0.65000 -0.14300
H 	H 	0.96210 0.99870 0.65190 0.06300
C 	C 	0.02970 0.03910 0.59320 0.06400
C 	C 	0.10910 0.05410 0.59140 -0.15700
H 	H 	0.12480 0.07110 0.55100 0.07100
C 	C 	0.16390 0.04410 0.64850 0.08900
H 	H 	0.21500 0.05640 0.64780 -0.03100
C 	C 	0.83600 0.04480 0.47100 0.05100
H 	H 	0.78690 0.03100 0.46650 -0.00400
C 	C 	0.89180 0.03140 0.52540 -0.11600
H 	H 	0.88000 0.00920 0.55590 0.04900
C 	C 	0.96700 0.05150 0.53480 0.02800
C 	C 	0.97890 0.08350 0.48490 -0.12600
H 	H 	0.02820 0.09720 0.48750 0.05800
C 	C 	0.91970 0.09570 0.43140 0.04100
H 	H 	0.92980 0.11770 0.39990 0.01200
H 	H 	0.28670 0.72340 0.07490 0.24300
H 	H 	0.33760 0.76120 0.05310 0.24800
H 	H 	0.25010 0.76550 0.09050 0.23600
Eu	Eu	0.51781 0.44626 0.55491 1.86800
Zn	Zn	0.26122 0.50914 0.28851 1.19000
Zn	Zn	0.43654 0.33443 0.82764 1.16400
Zn	Zn	0.73182 0.34017 0.06876 1.20400
O 	O 	0.43410 0.48498 0.46760 -0.60200
O 	O 	0.36020 0.52008 0.38630 -0.56400
O 	O 	0.40170 0.41227 0.54680 -0.53200
O 	O 	0.32200 0.36101 0.51620 -0.46300
O 	O 	0.53690 0.41286 0.66860 -0.52400
O 	O 	0.51520 0.35860 0.73800 -0.49000
O 	O 	0.44050 0.48283 0.64230 -0.48100
O 	O 	0.32860 0.50502 0.70110 -0.46400
O 	O 	0.38060 0.29140 0.04700 -0.53900
O 	O 	0.36800 0.31180 0.92250 -0.49100
O 	O 	0.51520 0.29110 0.15520 -0.50300
O 	O 	0.63380 0.32352 0.15180 -0.42200
O 	O 	0.36910 0.29270 0.24360 -0.54500
O 	O 	0.31400 0.33646 0.32620 -0.41000
N 	N 	0.25240 0.46070 0.35580 -0.30600
N 	N 	0.23700 0.40115 0.40980 -0.27600
N 	N 	0.37770 0.38599 0.80460 -0.29900
N 	N 	0.30670 0.44134 0.79100 -0.30100
N 	N 	0.52790 0.32740 0.90600 -0.30200
N 	N 	0.63030 0.33270 0.99410 -0.28500
N 	N 	0.27350 0.28333 0.43360 -0.30600
N 	N 	0.35090 0.51810 0.20480 -0.27200
N 	N 	0.65380 0.57590 0.92400 -0.13900
C 	C 	0.37240 0.48790 0.42330 0.36900
C 	C 	0.31270 0.45620 0.41330 -0.08000
C 	C 	0.30110 0.41900 0.44610 -0.06800
C 	C 	0.34580 0.39580 0.50640 0.38500
C 	C 	0.20950 0.42700 0.35650 0.33600
C 	C 	0.13690 0.41880 0.30460 -0.92000
H 	H 	0.08720 0.42210 0.33440 0.29300
H 	H 	0.13700 0.43690 0.26090 0.29200
H 	H 	0.13990 0.39220 0.28520 0.29900
C 	C 	0.49500 0.39310 0.71630 0.38200
C 	C 	0.41710 0.40900 0.74980 -0.07200
C 	C 	0.37370 0.44280 0.73980 -0.06800
C 	C 	0.38330 0.47900 0.69090 0.37700
C 	C 	0.31100 0.40700 0.82740 0.29200
C 	C 	0.24870 0.39100 0.88360 -0.77300
H 	H 	0.21910 0.36980 0.85890 0.22500
H 	H 	0.27580 0.38130 0.92990 0.24000
H 	H 	0.21100 0.41160 0.89800 0.20700
C 	C 	0.41080 0.30460 0.98440 0.38500
C 	C 	0.49900 0.31480 0.97960 -0.10700
C 	C 	0.56200 0.31810 0.03280 -0.08000
C 	C 	0.56970 0.31030 0.11820 0.36900
C 	C 	0.60800 0.33680 0.91860 0.27300
C 	C 	0.66600 0.34890 0.85410 -0.82300
H 	H 	0.68450 0.32580 0.82640 0.21900
H 	H 	0.63830 0.36620 0.81810 0.26700
H 	H 	0.71240 0.36230 0.87660 0.25500
C 	C 	0.33180 0.30150 0.30730 0.39000
C 	C 	0.30780 0.27070 0.36410 -0.07600
C 	C 	0.42710 0.50100 0.20350 0.08600
H 	H 	0.43890 0.48170 0.24080 -0.02600
C 	C 	0.48670 0.51090 0.15000 -0.13800
H 	H 	0.53790 0.49870 0.15190 0.06000
C 	C 	0.47030 0.53910 0.09320 0.06300
C 	C 	0.39090 0.55410 0.09140 -0.15600
H 	H 	0.37520 0.57110 0.05100 0.07100
C 	C 	0.33610 0.54410 0.14850 0.08900
H 	H 	0.28500 0.55640 0.14780 -0.03100
C 	C 	0.66400 0.54480 0.97100 0.05300
H 	H 	0.71310 0.53100 0.96650 -0.00400
C 	C 	0.60820 0.53140 0.02540 -0.11900
H 	H 	0.62000 0.50920 0.05590 0.05000
C 	C 	0.53300 0.55150 0.03480 0.02800
C 	C 	0.52110 0.58350 0.98490 -0.12400
H 	H 	0.47180 0.59720 0.98750 0.05700
C 	C 	0.58030 0.59570 0.93140 0.04000
H 	H 	0.57020 0.61770 0.89990 0.01300
H 	H 	0.21330 0.22340 0.57490 0.24400
H 	H 	0.16240 0.26120 0.55310 0.24900
H 	H 	0.24990 0.26550 0.59050 0.23700
Eu	Eu	0.98219 0.55374 0.05491 1.86100
Zn	Zn	0.23878 0.49086 0.78851 1.19000
Zn	Zn	0.06346 0.66557 0.32764 1.16500
Zn	Zn	0.76818 0.65983 0.56876 1.20500
O 	O 	0.06590 0.51502 0.96760 -0.60200
O 	O 	0.13980 0.47992 0.88630 -0.56400
O 	O 	0.09830 0.58773 0.04680 -0.53000
O 	O 	0.17800 0.63899 0.01620 -0.46200
O 	O 	0.96310 0.58714 0.16860 -0.52700
O 	O 	0.98480 0.64140 0.23800 -0.49300
O 	O 	0.05950 0.51717 0.14230 -0.47800
O 	O 	0.17140 0.49498 0.20110 -0.46300
O 	O 	0.11940 0.70860 0.54700 -0.54000
O 	O 	0.13200 0.68820 0.42250 -0.49100
O 	O 	0.98480 0.70890 0.65520 -0.50100
O 	O 	0.86620 0.67648 0.65180 -0.42100
O 	O 	0.13090 0.70730 0.74360 -0.54500
O 	O 	0.18600 0.66354 0.82620 -0.41000
N 	N 	0.24760 0.53930 0.85580 -0.30600
N 	N 	0.26300 0.59885 0.90980 -0.27600
N 	N 	0.12230 0.61401 0.30460 -0.29900
N 	N 	0.19330 0.55866 0.29100 -0.30100
N 	N 	0.97210 0.67260 0.40600 -0.30200
N 	N 	0.86970 0.66730 0.49410 -0.28600
N 	N 	0.22650 0.71667 0.93360 -0.30600
N 	N 	0.14910 0.48190 0.70480 -0.27200
N 	N 	0.84620 0.42410 0.42400 -0.14000
C 	C 	0.12760 0.51210 0.92330 0.36800
C 	C 	0.18730 0.54380 0.91330 -0.08000
C 	C 	0.19890 0.58100 0.94610 -0.07200
C 	C 	0.15420 0.60420 0.00640 0.38800
C 	C 	0.29050 0.57300 0.85650 0.33500
C 	C 	0.36310 0.58120 0.80460 -0.91800
H 	H 	0.41280 0.57790 0.83440 0.29200
H 	H 	0.36300 0.56310 0.76090 0.29100
H 	H 	0.36010 0.60780 0.78520 0.29800
C 	C 	0.00500 0.60690 0.21630 0.38800
C 	C 	0.08290 0.59100 0.24980 -0.07400
C 	C 	0.12630 0.55720 0.23980 -0.06600
C 	C 	0.11670 0.52100 0.19090 0.37600
C 	C 	0.18900 0.59300 0.32740 0.29300
C 	C 	0.25130 0.60900 0.38360 -0.77400
H 	H 	0.28090 0.63020 0.35890 0.22600
H 	H 	0.22420 0.61870 0.42990 0.24100
H 	H 	0.28900 0.58840 0.39800 0.20800
C 	C 	0.08920 0.69540 0.48440 0.38700
C 	C 	0.00100 0.68520 0.47960 -0.10900
C 	C 	0.93800 0.68190 0.53280 -0.07800
C 	C 	0.93030 0.68970 0.61820 0.36800
C 	C 	0.89200 0.66320 0.41860 0.27200
C 	C 	0.83400 0.65110 0.35410 -0.82200
H 	H 	0.81550 0.67420 0.32640 0.21800
H 	H 	0.86170 0.63380 0.31810 0.26700
H 	H 	0.78760 0.63770 0.37660 0.25500
C 	C 	0.16820 0.69850 0.80730 0.39000
C 	C 	0.19220 0.72930 0.86410 -0.07600
C 	C 	0.07290 0.49900 0.70350 0.08800
H 	H 	0.06110 0.51830 0.74080 -0.02700
C 	C 	0.01330 0.48910 0.65000 -0.14300
H 	H 	0.96210 0.50130 0.65190 0.06200
C 	C 	0.02970 0.46090 0.59320 0.06400
C 	C 	0.10910 0.44590 0.59140 -0.15700
H 	H 	0.12480 0.42890 0.55100 0.07100
C 	C 	0.16390 0.45590 0.64850 0.08900
H 	H 	0.21500 0.44360 0.64780 -0.03100
C 	C 	0.83600 0.45520 0.47100 0.05100
H 	H 	0.78690 0.46900 0.46650 -0.00400
C 	C 	0.89180 0.46860 0.52540 -0.11600
H 	H 	0.88000 0.49080 0.55590 0.04900
C 	C 	0.96700 0.44850 0.53480 0.02800
C 	C 	0.97890 0.41650 0.48490 -0.12600
H 	H 	0.02820 0.40280 0.48750 0.05800
C 	C 	0.91970 0.40430 0.43140 0.04100
H 	H 	0.92980 0.38230 0.39990 0.01200
H 	H 	0.28670 0.77660 0.07490 0.24300
H 	H 	0.33760 0.73880 0.05310 0.24800
H 	H 	0.25010 0.73450 0.09050 0.23600
Eu	Eu	0.48219 0.94626 0.44509 1.86800
Zn	Zn	0.73878 0.00914 0.71149 1.19000
Zn	Zn	0.56346 0.83443 0.17236 1.16400
Zn	Zn	0.26818 0.84017 0.93124 1.20400
O 	O 	0.56590 0.98498 0.53240 -0.60200
O 	O 	0.63980 0.02008 0.61370 -0.56500
O 	O 	0.59830 0.91227 0.45320 -0.53200
O 	O 	0.67800 0.86101 0.48380 -0.46300
O 	O 	0.46310 0.91286 0.33140 -0.52400
O 	O 	0.48480 0.85860 0.26200 -0.49000
O 	O 	0.55950 0.98283 0.35770 -0.48100
O 	O 	0.67140 0.00502 0.29890 -0.46300
O 	O 	0.61940 0.79140 0.95300 -0.53900
O 	O 	0.63200 0.81180 0.07750 -0.49100
O 	O 	0.48480 0.79110 0.84480 -0.50300
O 	O 	0.36620 0.82352 0.84820 -0.42200
O 	O 	0.63090 0.79270 0.75640 -0.54400
O 	O 	0.68600 0.83646 0.67380 -0.41000
N 	N 	0.74760 0.96070 0.64420 -0.30600
N 	N 	0.76300 0.90115 0.59020 -0.27600
N 	N 	0.62230 0.88599 0.19540 -0.29900
N 	N 	0.69330 0.94134 0.20900 -0.30100
N 	N 	0.47210 0.82740 0.09400 -0.30200
N 	N 	0.36970 0.83270 0.00590 -0.28500
N 	N 	0.72650 0.78333 0.56640 -0.30600
N 	N 	0.64910 0.01810 0.79520 -0.27200
N 	N 	0.34620 0.07590 0.07600 -0.13900
C 	C 	0.62760 0.98790 0.57670 0.36900
C 	C 	0.68730 0.95620 0.58670 -0.08000
C 	C 	0.69890 0.91900 0.55390 -0.06800
C 	C 	0.65420 0.89580 0.49360 0.38500
C 	C 	0.79050 0.92700 0.64350 0.33600
C 	C 	0.86310 0.91880 0.69540 -0.92000
H 	H 	0.91280 0.92210 0.66560 0.29300
H 	H 	0.86300 0.93690 0.73910 0.29300
H 	H 	0.86010 0.89220 0.71480 0.30000
C 	C 	0.50500 0.89310 0.28370 0.38200
C 	C 	0.58290 0.90900 0.25020 -0.07300
C 	C 	0.62630 0.94280 0.26020 -0.06800
C 	C 	0.61670 0.97900 0.30910 0.37600
C 	C 	0.68900 0.90700 0.17260 0.29200
C 	C 	0.75130 0.89100 0.11640 -0.77200
H 	H 	0.78090 0.86980 0.14110 0.22500
H 	H 	0.72420 0.88130 0.07010 0.24000
H 	H 	0.78900 0.91160 0.10200 0.20700
C 	C 	0.58920 0.80460 0.01560 0.38500
C 	C 	0.50100 0.81480 0.02040 -0.10800
C 	C 	0.43800 0.81810 0.96720 -0.08000
C 	C 	0.43030 0.81030 0.88180 0.36900
C 	C 	0.39200 0.83680 0.08140 0.27200
C 	C 	0.33400 0.84890 0.14590 -0.82300
H 	H 	0.31550 0.82580 0.17360 0.21900
H 	H 	0.36170 0.86620 0.18190 0.26700
H 	H 	0.28760 0.86230 0.12340 0.25500
C 	C 	0.66820 0.80150 0.69270 0.39000
C 	C 	0.69220 0.77070 0.63590 -0.07600
C 	C 	0.57290 0.00100 0.79650 0.08600
H 	H 	0.56110 0.98170 0.75920 -0.02600
C 	C 	0.51330 0.01090 0.85000 -0.14000
H 	H 	0.46210 0.99870 0.84810 0.06100
C 	C 	0.52970 0.03910 0.90680 0.06300
C 	C 	0.60910 0.05410 0.90860 -0.15700
H 	H 	0.62480 0.07110 0.94900 0.07100
C 	C 	0.66390 0.04410 0.85150 0.08900
H 	H 	0.71500 0.05640 0.85220 -0.03100
C 	C 	0.33600 0.04480 0.02900 0.05400
H 	H 	0.28690 0.03100 0.03350 -0.00400
C 	C 	0.39180 0.03140 0.97460 -0.12000
H 	H 	0.38000 0.00920 0.94410 0.05000
C 	C 	0.46700 0.05150 0.96520 0.02700
C 	C 	0.47890 0.08350 0.01510 -0.12300
H 	H 	0.52820 0.09720 0.01250 0.05600
C 	C 	0.41970 0.09570 0.06860 0.04000
H 	H 	0.42980 0.11770 0.10010 0.01300
H 	H 	0.78670 0.72340 0.42510 0.24400
H 	H 	0.83760 0.76120 0.44690 0.24900
H 	H 	0.75010 0.76550 0.40950 0.23700
Eu	Eu	0.01781 0.05374 0.94509 1.86000
Zn	Zn	0.76122 0.99086 0.21149 1.19000
Zn	Zn	0.93654 0.16557 0.67236 1.16500
Zn	Zn	0.23182 0.15983 0.43124 1.20500
O 	O 	0.93410 0.01502 0.03240 -0.60200
O 	O 	0.86020 0.97992 0.11370 -0.56500
O 	O 	0.90170 0.08773 0.95320 -0.53000
O 	O 	0.82200 0.13899 0.98380 -0.46200
O 	O 	0.03690 0.08714 0.83140 -0.52700
O 	O 	0.01520 0.14140 0.76200 -0.49300
O 	O 	0.94050 0.01717 0.85770 -0.47800
O 	O 	0.82860 0.99498 0.79890 -0.46200
O 	O 	0.88060 0.20860 0.45300 -0.54000
O 	O 	0.86800 0.18820 0.57750 -0.49100
O 	O 	0.01520 0.20890 0.34480 -0.50100
O 	O 	0.13380 0.17648 0.34820 -0.42100
O 	O 	0.86910 0.20730 0.25640 -0.54500
O 	O 	0.81400 0.16354 0.17380 -0.41000
N 	N 	0.75240 0.03930 0.14420 -0.30600
N 	N 	0.73700 0.09885 0.09020 -0.27600
N 	N 	0.87770 0.11401 0.69540 -0.29900
N 	N 	0.80670 0.05866 0.70900 -0.30100
N 	N 	0.02790 0.17260 0.59400 -0.30200
N 	N 	0.13030 0.16730 0.50590 -0.28600
N 	N 	0.77350 0.21667 0.06640 -0.30600
N 	N 	0.85090 0.98190 0.29520 -0.27200
N 	N 	0.15380 0.92410 0.57600 -0.14000
C 	C 	0.87240 0.01210 0.07670 0.36900
C 	C 	0.81270 0.04380 0.08670 -0.08000
C 	C 	0.80110 0.08100 0.05390 -0.07100
C 	C 	0.84580 0.10420 0.99360 0.38700
C 	C 	0.70950 0.07300 0.14350 0.33500
C 	C 	0.63690 0.08120 0.19540 -0.91800
H 	H 	0.58720 0.07790 0.16560 0.29200
H 	H 	0.63700 0.06310 0.23910 0.29100
H 	H 	0.63990 0.10780 0.21480 0.29800
C 	C 	0.99500 0.10690 0.78370 0.38800
C 	C 	0.91710 0.09100 0.75020 -0.07400
C 	C 	0.87370 0.05720 0.76020 -0.06600
C 	C 	0.88330 0.02100 0.80910 0.37500
C 	C 	0.81100 0.09300 0.67260 0.29300
C 	C 	0.74870 0.10900 0.61640 -0.77400
H 	H 	0.71910 0.13020 0.64110 0.22600
H 	H 	0.77580 0.11870 0.57010 0.24100
H 	H 	0.71100 0.08840 0.60200 0.20800
C 	C 	0.91080 0.19540 0.51560 0.38700
C 	C 	0.99900 0.18520 0.52040 -0.10900
C 	C 	0.06200 0.18190 0.46720 -0.07800
C 	C 	0.06970 0.18970 0.38180 0.36800
C 	C 	0.10800 0.16320 0.58140 0.27200
C 	C 	0.16600 0.15110 0.64590 -0.82200
H 	H 	0.18450 0.17420 0.67360 0.21800
H 	H 	0.13830 0.13380 0.68190 0.26700
H 	H 	0.21240 0.13770 0.62340 0.25500
C 	C 	0.83180 0.19850 0.19270 0.39000
C 	C 	0.80780 0.22930 0.13590 -0.07600
C 	C 	0.92710 0.99900 0.29650 0.08700
H 	H 	0.93890 0.01830 0.25920 -0.02700
C 	C 	0.98670 0.98910 0.35000 -0.14300
H 	H 	0.03790 0.00130 0.34810 0.06300
C 	C 	0.97030 0.96090 0.40680 0.06400
C 	C 	0.89090 0.94590 0.40860 -0.15700
H 	H 	0.87520 0.92890 0.44900 0.07100
C 	C 	0.83610 0.95590 0.35150 0.08900
H 	H 	0.78500 0.94360 0.35220 -0.03100
C 	C 	0.16400 0.95520 0.52900 0.05100
H 	H 	0.21310 0.96900 0.53350 -0.00400
C 	C 	0.10820 0.96860 0.47460 -0.11600
H 	H 	0.12000 0.99080 0.44410 0.04900
C 	C 	0.03300 0.94850 0.46520 0.02800
C 	C 	0.02110 0.91650 0.51510 -0.12600
H 	H 	0.97180 0.90280 0.51250 0.05800
C 	C 	0.08030 0.90430 0.56860 0.04100
H 	H 	0.07020 0.88230 0.60010 0.01200
H 	H 	0.71330 0.27660 0.92510 0.24300
H 	H 	0.66240 0.23880 0.94690 0.24800
H 	H 	0.74990 0.23450 0.90950 0.23600
Eu	Eu	0.59507 0.75000 0.84996 2.20100
C 	C 	0.74540 0.75000 0.52630 0.43700
C 	C 	0.78350 0.75000 0.44440 -1.50700
Eu	Eu	0.90493 0.25000 0.34996 2.19600
C 	C 	0.75460 0.25000 0.02630 0.43200
C 	C 	0.71650 0.25000 0.94440 -1.49700
Eu	Eu	0.40493 0.25000 0.15004 2.20100
C 	C 	0.25460 0.25000 0.47370 0.43700
C 	C 	0.21650 0.25000 0.55560 -1.50700
Eu	Eu	0.09507 0.75000 0.65004 2.19600
C 	C 	0.24540 0.75000 0.97370 0.43200
C 	C 	0.28350 0.75000 0.05560 -1.49700
