data_crystal

_cell_length_a 16.28250
_cell_length_b 33.84050
_cell_length_c 16.96490
_cell_angle_alpha 90.00000
_cell_angle_beta  90.00000
_cell_angle_gamma 90.00000

_symmetry_space_group_name_	'P 1'
_symmetry_space_group_name_H-M	'P 1'

loop_
_symmetry_equiv_pos_as_xyz
  x,y,z

loop_
_atom_site_label
_atom_site_type_symbol
_atom_site_fract_x
_atom_site_fract_y
_atom_site_fract_z
_atom_site_charge
Eu	Eu	0.48219 0.55375 0.44508 1.87200
Zn	Zn	0.73881 0.49087 0.71146 1.19200
Zn	Zn	0.56340 0.66551 0.17231 1.16600
Zn	Zn	0.26818 0.65984 0.93129 1.20400
O 	O 	0.56540 0.51485 0.53250 -0.60000
O 	O 	0.63950 0.48009 0.61400 -0.56200
O 	O 	0.59770 0.58822 0.45350 -0.53800
O 	O 	0.67720 0.63929 0.48340 -0.46400
O 	O 	0.46300 0.58707 0.33120 -0.52700
O 	O 	0.48500 0.64148 0.26210 -0.49500
O 	O 	0.55970 0.51710 0.35800 -0.47500
O 	O 	0.67140 0.49487 0.29850 -0.46500
O 	O 	0.61970 0.70824 0.95260 -0.53200
O 	O 	0.63220 0.68805 0.07720 -0.49600
O 	O 	0.48510 0.70894 0.84520 -0.50500
O 	O 	0.36640 0.67651 0.84830 -0.42500
O 	O 	0.63050 0.70762 0.75580 -0.54600
O 	O 	0.68600 0.66363 0.67380 -0.40800
N 	N 	0.74770 0.53903 0.64390 -0.30600
N 	N 	0.76350 0.59862 0.58990 -0.27500
N 	N 	0.62200 0.61440 0.19540 -0.30400
N 	N 	0.69300 0.55866 0.20920 -0.30000
N 	N 	0.47180 0.67273 0.09410 -0.30300
N 	N 	0.37030 0.66720 0.00650 -0.28700
N 	N 	0.72740 0.71701 0.56640 -0.30900
N 	N 	0.64930 0.48249 0.79520 -0.26900
N 	N 	0.34690 0.42400 0.07540 -0.14100
C 	C 	0.62790 0.51216 0.57670 0.36500
C 	C 	0.68720 0.54368 0.58700 -0.08000
C 	C 	0.69830 0.58085 0.55400 -0.07000
C 	C 	0.65340 0.60439 0.49320 0.39100
C 	C 	0.79100 0.57274 0.64330 0.33300
C 	C 	0.86340 0.58080 0.69600 -0.92200
H 	H 	0.91270 0.58160 0.66500 0.29500
H 	H 	0.86780 0.56020 0.73470 0.29400
H 	H 	0.85600 0.60570 0.72200 0.29900
C 	C 	0.50470 0.60730 0.28380 0.38900
C 	C 	0.58210 0.59148 0.25000 -0.07700
C 	C 	0.62620 0.55684 0.25970 -0.06700
C 	C 	0.61790 0.52102 0.30880 0.36900
C 	C 	0.68870 0.59370 0.17320 0.30100
C 	C 	0.75130 0.60910 0.11690 -0.81300
H 	H 	0.79880 0.61780 0.14560 0.23700
H 	H 	0.72860 0.63080 0.08800 0.25200
H 	H 	0.76690 0.58850 0.08100 0.22600
C 	C 	0.58920 0.69510 0.01650 0.38000
C 	C 	0.50100 0.68550 0.02140 -0.10800
C 	C 	0.43770 0.68200 0.96800 -0.07500
C 	C 	0.42970 0.68982 0.88150 0.37200
C 	C 	0.39200 0.66288 0.08160 0.28500
C 	C 	0.33450 0.65160 0.14640 -0.84200
H 	H 	0.32270 0.67440 0.17820 0.22800
H 	H 	0.35940 0.63160 0.17850 0.27100
H 	H 	0.28440 0.64160 0.12420 0.25800
C 	C 	0.66830 0.69888 0.69280 0.39000
C 	C 	0.69270 0.72939 0.63600 -0.07600
C 	C 	0.57480 0.49960 0.79600 0.08500
H 	H 	0.56330 0.51900 0.75880 -0.02600
C 	C 	0.51390 0.48950 0.85020 -0.13000
H 	H 	0.46300 0.50190 0.84810 0.05800
C 	C 	0.52940 0.46100 0.90730 0.05200
C 	C 	0.60830 0.44490 0.90770 -0.14200
H 	H 	0.62250 0.42640 0.94580 0.06500
C 	C 	0.66500 0.45610 0.85220 0.07100
H 	H 	0.71710 0.44490 0.85430 -0.02400
C 	C 	0.33500 0.45520 0.02890 0.05200
H 	H 	0.28540 0.46860 0.03300 -0.00600
C 	C 	0.39250 0.46900 0.97410 -0.12200
H 	H 	0.38160 0.49140 0.94400 0.05200
C 	C 	0.46660 0.44870 0.96540 0.03700
C 	C 	0.47850 0.41650 0.01490 -0.13300
H 	H 	0.52800 0.40280 0.01280 0.05900
C 	C 	0.41880 0.40450 0.06680 0.05300
H 	H 	0.42820 0.38200 0.09720 0.00900
H 	H 	0.78230 0.77650 0.42460 0.23200
H 	H 	0.74790 0.73380 0.41090 0.22400
H 	H 	0.83610 0.73970 0.44600 0.23400
Eu	Eu	0.01781 0.44625 0.94508 1.86400
Zn	Zn	0.76119 0.50913 0.21146 1.19100
Zn	Zn	0.93660 0.33449 0.67231 1.16500
Zn	Zn	0.23182 0.34016 0.43129 1.20300
O 	O 	0.93460 0.48515 0.03250 -0.60100
O 	O 	0.86050 0.51991 0.11400 -0.56100
O 	O 	0.90230 0.41178 0.95350 -0.53600
O 	O 	0.82280 0.36071 0.98340 -0.46300
O 	O 	0.03700 0.41293 0.83120 -0.53000
O 	O 	0.01500 0.35852 0.76210 -0.49800
O 	O 	0.94030 0.48290 0.85800 -0.47100
O 	O 	0.82860 0.50513 0.79850 -0.46400
O 	O 	0.88030 0.29176 0.45260 -0.53400
O 	O 	0.86780 0.31195 0.57720 -0.49600
O 	O 	0.01490 0.29106 0.34520 -0.50300
O 	O 	0.13360 0.32349 0.34830 -0.42400
O 	O 	0.86950 0.29238 0.25580 -0.54600
O 	O 	0.81400 0.33637 0.17380 -0.40800
N 	N 	0.75230 0.46097 0.14390 -0.30600
N 	N 	0.73650 0.40138 0.08990 -0.27500
N 	N 	0.87800 0.38560 0.69540 -0.30300
N 	N 	0.80700 0.44134 0.70920 -0.30000
N 	N 	0.02820 0.32727 0.59410 -0.30300
N 	N 	0.12970 0.33280 0.50650 -0.28800
N 	N 	0.77260 0.28299 0.06640 -0.30800
N 	N 	0.85070 0.51751 0.29520 -0.26900
N 	N 	0.15310 0.57600 0.57540 -0.14100
C 	C 	0.87210 0.48784 0.07670 0.36400
C 	C 	0.81280 0.45632 0.08700 -0.07900
C 	C 	0.80170 0.41915 0.05400 -0.07400
C 	C 	0.84660 0.39561 0.99320 0.39400
C 	C 	0.70900 0.42726 0.14330 0.33200
C 	C 	0.63660 0.41920 0.19600 -0.92000
H 	H 	0.58730 0.41840 0.16500 0.29300
H 	H 	0.63220 0.43980 0.23470 0.29300
H 	H 	0.64400 0.39430 0.22200 0.29800
C 	C 	0.99530 0.39270 0.78380 0.39600
C 	C 	0.91790 0.40852 0.75000 -0.07800
C 	C 	0.87380 0.44316 0.75970 -0.06600
C 	C 	0.88210 0.47898 0.80880 0.36800
C 	C 	0.81130 0.40630 0.67320 0.30100
C 	C 	0.74870 0.39090 0.61690 -0.81400
H 	H 	0.70120 0.38220 0.64560 0.23700
H 	H 	0.77140 0.36920 0.58800 0.25200
H 	H 	0.73310 0.41150 0.58100 0.22700
C 	C 	0.91080 0.30490 0.51650 0.38300
C 	C 	0.99900 0.31450 0.52140 -0.11000
C 	C 	0.06230 0.31800 0.46800 -0.07300
C 	C 	0.07030 0.31018 0.38150 0.37100
C 	C 	0.10800 0.33712 0.58160 0.28500
C 	C 	0.16550 0.34840 0.64640 -0.84100
H 	H 	0.17730 0.32560 0.67820 0.22700
H 	H 	0.14060 0.36840 0.67850 0.27100
H 	H 	0.21560 0.35840 0.62420 0.25700
C 	C 	0.83170 0.30112 0.19280 0.39000
C 	C 	0.80730 0.27061 0.13600 -0.07600
C 	C 	0.92520 0.50040 0.29600 0.08700
H 	H 	0.93670 0.48100 0.25880 -0.02800
C 	C 	0.98610 0.51050 0.35020 -0.13500
H 	H 	0.03700 0.49810 0.34810 0.06000
C 	C 	0.97060 0.53900 0.40730 0.05300
C 	C 	0.89170 0.55510 0.40770 -0.14300
H 	H 	0.87750 0.57360 0.44580 0.06500
C 	C 	0.83500 0.54390 0.35220 0.07100
H 	H 	0.78290 0.55510 0.35430 -0.02400
C 	C 	0.16500 0.54480 0.52890 0.05000
H 	H 	0.21460 0.53140 0.53300 -0.00600
C 	C 	0.10750 0.53100 0.47410 -0.12000
H 	H 	0.11840 0.50860 0.44400 0.05100
C 	C 	0.03340 0.55130 0.46540 0.03700
C 	C 	0.02150 0.58350 0.51490 -0.13500
H 	H 	0.97200 0.59720 0.51280 0.06000
C 	C 	0.08120 0.59550 0.56680 0.05300
H 	H 	0.07180 0.61800 0.59720 0.00800
H 	H 	0.71770 0.22350 0.92460 0.23100
H 	H 	0.75210 0.26620 0.91090 0.22300
H 	H 	0.66390 0.26030 0.94600 0.23200
Eu	Eu	0.51781 0.05375 0.55492 1.87100
Zn	Zn	0.26119 0.99087 0.28854 1.19100
Zn	Zn	0.43660 0.16551 0.82769 1.16500
Zn	Zn	0.73182 0.15984 0.06871 1.20300
O 	O 	0.43460 0.01485 0.46750 -0.60000
O 	O 	0.36050 0.98009 0.38600 -0.56200
O 	O 	0.40230 0.08822 0.54650 -0.53800
O 	O 	0.32280 0.13929 0.51660 -0.46400
O 	O 	0.53700 0.08707 0.66880 -0.52700
O 	O 	0.51500 0.14148 0.73790 -0.49500
O 	O 	0.44030 0.01710 0.64200 -0.47500
O 	O 	0.32860 0.99487 0.70150 -0.46500
O 	O 	0.38030 0.20824 0.04740 -0.53200
O 	O 	0.36780 0.18805 0.92280 -0.49600
O 	O 	0.51490 0.20894 0.15480 -0.50500
O 	O 	0.63360 0.17651 0.15170 -0.42500
O 	O 	0.36950 0.20762 0.24420 -0.54600
O 	O 	0.31400 0.16363 0.32620 -0.40800
N 	N 	0.25230 0.03903 0.35610 -0.30500
N 	N 	0.23650 0.09862 0.41010 -0.27500
N 	N 	0.37800 0.11440 0.80460 -0.30400
N 	N 	0.30700 0.05866 0.79080 -0.30000
N 	N 	0.52820 0.17273 0.90590 -0.30300
N 	N 	0.62970 0.16720 0.99350 -0.28700
N 	N 	0.27260 0.21701 0.43360 -0.30900
N 	N 	0.35070 0.98249 0.20480 -0.26900
N 	N 	0.65310 0.92400 0.92460 -0.14100
C 	C 	0.37210 0.01216 0.42330 0.36500
C 	C 	0.31280 0.04368 0.41300 -0.08000
C 	C 	0.30170 0.08085 0.44600 -0.07000
C 	C 	0.34660 0.10439 0.50680 0.39100
C 	C 	0.20900 0.07274 0.35670 0.33300
C 	C 	0.13660 0.08080 0.30400 -0.92200
H 	H 	0.08730 0.08160 0.33500 0.29500
H 	H 	0.13220 0.06020 0.26530 0.29400
H 	H 	0.14400 0.10570 0.27800 0.30000
C 	C 	0.49530 0.10730 0.71620 0.38900
C 	C 	0.41790 0.09148 0.75000 -0.07700
C 	C 	0.37380 0.05684 0.74030 -0.06700
C 	C 	0.38210 0.02102 0.69120 0.36900
C 	C 	0.31130 0.09370 0.82680 0.30100
C 	C 	0.24870 0.10910 0.88310 -0.81300
H 	H 	0.20120 0.11780 0.85440 0.23700
H 	H 	0.27140 0.13080 0.91200 0.25100
H 	H 	0.23310 0.08850 0.91900 0.22600
C 	C 	0.41080 0.19510 0.98350 0.38000
C 	C 	0.49900 0.18550 0.97860 -0.10800
C 	C 	0.56230 0.18200 0.03200 -0.07500
C 	C 	0.57030 0.18982 0.11850 0.37200
C 	C 	0.60800 0.16288 0.91840 0.28500
C 	C 	0.66550 0.15160 0.85360 -0.84200
H 	H 	0.67730 0.17440 0.82180 0.22800
H 	H 	0.64060 0.13160 0.82150 0.27100
H 	H 	0.71560 0.14160 0.87580 0.25800
C 	C 	0.33170 0.19888 0.30720 0.39000
C 	C 	0.30730 0.22939 0.36400 -0.07600
C 	C 	0.42520 0.99960 0.20400 0.08500
H 	H 	0.43670 0.01900 0.24120 -0.02600
C 	C 	0.48610 0.98950 0.14980 -0.13200
H 	H 	0.53700 0.00190 0.15190 0.05900
C 	C 	0.47060 0.96100 0.09270 0.05300
C 	C 	0.39170 0.94490 0.09230 -0.14200
H 	H 	0.37750 0.92640 0.05420 0.06500
C 	C 	0.33500 0.95610 0.14780 0.07100
H 	H 	0.28290 0.94490 0.14570 -0.02400
C 	C 	0.66500 0.95520 0.97110 0.05300
H 	H 	0.71460 0.96860 0.96700 -0.00600
C 	C 	0.60750 0.96900 0.02590 -0.12300
H 	H 	0.61840 0.99140 0.05600 0.05200
C 	C 	0.53340 0.94870 0.03460 0.03600
C 	C 	0.52150 0.91650 0.98510 -0.13200
H 	H 	0.47200 0.90280 0.98720 0.05900
C 	C 	0.58120 0.90450 0.93320 0.05300
H 	H 	0.57180 0.88200 0.90280 0.00900
H 	H 	0.21770 0.27650 0.57540 0.23200
H 	H 	0.25210 0.23380 0.58910 0.22400
H 	H 	0.16390 0.23970 0.55400 0.23400
Eu	Eu	0.98219 0.94625 0.05492 1.86200
Zn	Zn	0.23881 0.00913 0.78854 1.19000
Zn	Zn	0.06340 0.83449 0.32769 1.16500
Zn	Zn	0.76818 0.84016 0.56871 1.20300
O 	O 	0.06540 0.98515 0.96750 -0.60000
O 	O 	0.13950 0.01991 0.88600 -0.56200
O 	O 	0.09770 0.91178 0.04650 -0.53600
O 	O 	0.17720 0.86071 0.01660 -0.46300
O 	O 	0.96300 0.91293 0.16880 -0.53000
O 	O 	0.98500 0.85852 0.23790 -0.49800
O 	O 	0.05970 0.98290 0.14200 -0.47100
O 	O 	0.17140 0.00513 0.20150 -0.46300
O 	O 	0.11970 0.79176 0.54740 -0.53400
O 	O 	0.13220 0.81195 0.42280 -0.49600
O 	O 	0.98510 0.79106 0.65480 -0.50300
O 	O 	0.86640 0.82349 0.65170 -0.42400
O 	O 	0.13050 0.79238 0.74420 -0.54600
O 	O 	0.18600 0.83637 0.82620 -0.40800
N 	N 	0.24770 0.96097 0.85610 -0.30500
N 	N 	0.26350 0.90138 0.91010 -0.27500
N 	N 	0.12200 0.88560 0.30460 -0.30300
N 	N 	0.19300 0.94134 0.29080 -0.30000
N 	N 	0.97180 0.82727 0.40590 -0.30300
N 	N 	0.87030 0.83280 0.49350 -0.28800
N 	N 	0.22740 0.78299 0.93360 -0.30800
N 	N 	0.14930 0.01751 0.70480 -0.26900
N 	N 	0.84690 0.07600 0.42460 -0.14100
C 	C 	0.12790 0.98784 0.92330 0.36500
C 	C 	0.18720 0.95632 0.91300 -0.07900
C 	C 	0.19830 0.91915 0.94600 -0.07300
C 	C 	0.15340 0.89561 0.00680 0.39300
C 	C 	0.29100 0.92726 0.85670 0.33200
C 	C 	0.36340 0.91920 0.80400 -0.92000
H 	H 	0.41270 0.91840 0.83500 0.29400
H 	H 	0.36780 0.93980 0.76530 0.29300
H 	H 	0.35600 0.89430 0.77800 0.29800
C 	C 	0.00470 0.89270 0.21620 0.39500
C 	C 	0.08210 0.90852 0.25000 -0.07800
C 	C 	0.12620 0.94316 0.24030 -0.06500
C 	C 	0.11790 0.97898 0.19120 0.36800
C 	C 	0.18870 0.90630 0.32680 0.30100
C 	C 	0.25130 0.89090 0.38310 -0.81400
H 	H 	0.29880 0.88220 0.35440 0.23700
H 	H 	0.22860 0.86920 0.41200 0.25200
H 	H 	0.26690 0.91150 0.41900 0.22700
C 	C 	0.08920 0.80490 0.48350 0.38300
C 	C 	0.00100 0.81450 0.47860 -0.11000
C 	C 	0.93770 0.81800 0.53200 -0.07300
C 	C 	0.92970 0.81018 0.61850 0.37100
C 	C 	0.89200 0.83712 0.41840 0.28500
C 	C 	0.83450 0.84840 0.35360 -0.84100
H 	H 	0.82270 0.82560 0.32180 0.22700
H 	H 	0.85940 0.86840 0.32150 0.27100
H 	H 	0.78440 0.85840 0.37580 0.25700
C 	C 	0.16830 0.80112 0.80720 0.39000
C 	C 	0.19270 0.77061 0.86400 -0.07600
C 	C 	0.07480 0.00040 0.70400 0.08600
H 	H 	0.06330 0.98100 0.74120 -0.02700
C 	C 	0.01390 0.01050 0.64980 -0.13500
H 	H 	0.96300 0.99810 0.65190 0.06000
C 	C 	0.02940 0.03900 0.59270 0.05400
C 	C 	0.10830 0.05510 0.59230 -0.14300
H 	H 	0.12250 0.07360 0.55420 0.06500
C 	C 	0.16500 0.04390 0.64780 0.07100
H 	H 	0.21710 0.05510 0.64570 -0.02500
C 	C 	0.83500 0.04480 0.47110 0.05000
H 	H 	0.78540 0.03140 0.46700 -0.00600
C 	C 	0.89250 0.03100 0.52590 -0.12000
H 	H 	0.88160 0.00860 0.55600 0.05100
C 	C 	0.96660 0.05130 0.53460 0.03700
C 	C 	0.97850 0.08350 0.48510 -0.13500
H 	H 	0.02800 0.09720 0.48720 0.06000
C 	C 	0.91880 0.09550 0.43320 0.05300
H 	H 	0.92820 0.11800 0.40280 0.00800
H 	H 	0.28230 0.72350 0.07540 0.23100
H 	H 	0.24790 0.76620 0.08910 0.22300
H 	H 	0.33610 0.76030 0.05400 0.23200
Eu	Eu	0.51781 0.44625 0.55492 1.87100
Zn	Zn	0.26119 0.50913 0.28854 1.19100
Zn	Zn	0.43660 0.33449 0.82769 1.16500
Zn	Zn	0.73182 0.34016 0.06871 1.20300
O 	O 	0.43460 0.48515 0.46750 -0.60000
O 	O 	0.36050 0.51991 0.38600 -0.56200
O 	O 	0.40230 0.41178 0.54650 -0.53800
O 	O 	0.32280 0.36071 0.51660 -0.46400
O 	O 	0.53700 0.41293 0.66880 -0.52700
O 	O 	0.51500 0.35852 0.73790 -0.49500
O 	O 	0.44030 0.48290 0.64200 -0.47500
O 	O 	0.32860 0.50513 0.70150 -0.46500
O 	O 	0.38030 0.29176 0.04740 -0.53200
O 	O 	0.36780 0.31195 0.92280 -0.49600
O 	O 	0.51490 0.29106 0.15480 -0.50500
O 	O 	0.63360 0.32349 0.15170 -0.42500
O 	O 	0.36950 0.29238 0.24420 -0.54600
O 	O 	0.31400 0.33637 0.32620 -0.40800
N 	N 	0.25230 0.46097 0.35610 -0.30600
N 	N 	0.23650 0.40138 0.41010 -0.27500
N 	N 	0.37800 0.38560 0.80460 -0.30400
N 	N 	0.30700 0.44134 0.79080 -0.30000
N 	N 	0.52820 0.32727 0.90590 -0.30300
N 	N 	0.62970 0.33280 0.99350 -0.28700
N 	N 	0.27260 0.28299 0.43360 -0.30900
N 	N 	0.35070 0.51751 0.20480 -0.26900
N 	N 	0.65310 0.57600 0.92460 -0.14100
C 	C 	0.37210 0.48784 0.42330 0.36500
C 	C 	0.31280 0.45632 0.41300 -0.08000
C 	C 	0.30170 0.41915 0.44600 -0.07000
C 	C 	0.34660 0.39561 0.50680 0.39100
C 	C 	0.20900 0.42726 0.35670 0.33300
C 	C 	0.13660 0.41920 0.30400 -0.92200
H 	H 	0.08730 0.41840 0.33500 0.29500
H 	H 	0.13220 0.43980 0.26530 0.29400
H 	H 	0.14400 0.39430 0.27800 0.29900
C 	C 	0.49530 0.39270 0.71620 0.38900
C 	C 	0.41790 0.40852 0.75000 -0.07700
C 	C 	0.37380 0.44316 0.74030 -0.06700
C 	C 	0.38210 0.47898 0.69120 0.36900
C 	C 	0.31130 0.40630 0.82680 0.30100
C 	C 	0.24870 0.39090 0.88310 -0.81300
H 	H 	0.20120 0.38220 0.85440 0.23700
H 	H 	0.27140 0.36920 0.91200 0.25200
H 	H 	0.23310 0.41150 0.91900 0.22600
C 	C 	0.41080 0.30490 0.98350 0.38000
C 	C 	0.49900 0.31450 0.97860 -0.10800
C 	C 	0.56230 0.31800 0.03200 -0.07500
C 	C 	0.57030 0.31018 0.11850 0.37200
C 	C 	0.60800 0.33712 0.91840 0.28500
C 	C 	0.66550 0.34840 0.85360 -0.84200
H 	H 	0.67730 0.32560 0.82180 0.22800
H 	H 	0.64060 0.36840 0.82150 0.27100
H 	H 	0.71560 0.35840 0.87580 0.25800
C 	C 	0.33170 0.30112 0.30720 0.39000
C 	C 	0.30730 0.27061 0.36400 -0.07600
C 	C 	0.42520 0.50040 0.20400 0.08500
H 	H 	0.43670 0.48100 0.24120 -0.02600
C 	C 	0.48610 0.51050 0.14980 -0.13000
H 	H 	0.53700 0.49810 0.15190 0.05800
C 	C 	0.47060 0.53900 0.09270 0.05200
C 	C 	0.39170 0.55510 0.09230 -0.14200
H 	H 	0.37750 0.57360 0.05420 0.06500
C 	C 	0.33500 0.54390 0.14780 0.07100
H 	H 	0.28290 0.55510 0.14570 -0.02400
C 	C 	0.66500 0.54480 0.97110 0.05200
H 	H 	0.71460 0.53140 0.96700 -0.00600
C 	C 	0.60750 0.53100 0.02590 -0.12200
H 	H 	0.61840 0.50860 0.05600 0.05200
C 	C 	0.53340 0.55130 0.03460 0.03700
C 	C 	0.52150 0.58350 0.98510 -0.13300
H 	H 	0.47200 0.59720 0.98720 0.05900
C 	C 	0.58120 0.59550 0.93320 0.05300
H 	H 	0.57180 0.61800 0.90280 0.00900
H 	H 	0.21770 0.22350 0.57540 0.23200
H 	H 	0.25210 0.26620 0.58910 0.22400
H 	H 	0.16390 0.26030 0.55400 0.23400
Eu	Eu	0.98219 0.55375 0.05492 1.86400
Zn	Zn	0.23881 0.49087 0.78854 1.19100
Zn	Zn	0.06340 0.66551 0.32769 1.16500
Zn	Zn	0.76818 0.65984 0.56871 1.20300
O 	O 	0.06540 0.51485 0.96750 -0.60100
O 	O 	0.13950 0.48009 0.88600 -0.56100
O 	O 	0.09770 0.58822 0.04650 -0.53600
O 	O 	0.17720 0.63929 0.01660 -0.46300
O 	O 	0.96300 0.58707 0.16880 -0.53000
O 	O 	0.98500 0.64148 0.23790 -0.49800
O 	O 	0.05970 0.51710 0.14200 -0.47100
O 	O 	0.17140 0.49487 0.20150 -0.46400
O 	O 	0.11970 0.70824 0.54740 -0.53400
O 	O 	0.13220 0.68805 0.42280 -0.49600
O 	O 	0.98510 0.70894 0.65480 -0.50300
O 	O 	0.86640 0.67651 0.65170 -0.42400
O 	O 	0.13050 0.70762 0.74420 -0.54600
O 	O 	0.18600 0.66363 0.82620 -0.40800
N 	N 	0.24770 0.53903 0.85610 -0.30600
N 	N 	0.26350 0.59862 0.91010 -0.27500
N 	N 	0.12200 0.61440 0.30460 -0.30300
N 	N 	0.19300 0.55866 0.29080 -0.30000
N 	N 	0.97180 0.67273 0.40590 -0.30300
N 	N 	0.87030 0.66720 0.49350 -0.28800
N 	N 	0.22740 0.71701 0.93360 -0.30800
N 	N 	0.14930 0.48249 0.70480 -0.26900
N 	N 	0.84690 0.42400 0.42460 -0.14100
C 	C 	0.12790 0.51216 0.92330 0.36400
C 	C 	0.18720 0.54368 0.91300 -0.07900
C 	C 	0.19830 0.58085 0.94600 -0.07400
C 	C 	0.15340 0.60439 0.00680 0.39400
C 	C 	0.29100 0.57274 0.85670 0.33200
C 	C 	0.36340 0.58080 0.80400 -0.92000
H 	H 	0.41270 0.58160 0.83500 0.29300
H 	H 	0.36780 0.56020 0.76530 0.29300
H 	H 	0.35600 0.60570 0.77800 0.29800
C 	C 	0.00470 0.60730 0.21620 0.39600
C 	C 	0.08210 0.59148 0.25000 -0.07800
C 	C 	0.12620 0.55684 0.24030 -0.06600
C 	C 	0.11790 0.52102 0.19120 0.36800
C 	C 	0.18870 0.59370 0.32680 0.30100
C 	C 	0.25130 0.60910 0.38310 -0.81400
H 	H 	0.29880 0.61780 0.35440 0.23700
H 	H 	0.22860 0.63080 0.41200 0.25200
H 	H 	0.26690 0.58850 0.41900 0.22700
C 	C 	0.08920 0.69510 0.48350 0.38300
C 	C 	0.00100 0.68550 0.47860 -0.11000
C 	C 	0.93770 0.68200 0.53200 -0.07300
C 	C 	0.92970 0.68982 0.61850 0.37100
C 	C 	0.89200 0.66288 0.41840 0.28500
C 	C 	0.83450 0.65160 0.35360 -0.84100
H 	H 	0.82270 0.67440 0.32180 0.22700
H 	H 	0.85940 0.63160 0.32150 0.27100
H 	H 	0.78440 0.64160 0.37580 0.25700
C 	C 	0.16830 0.69888 0.80720 0.39000
C 	C 	0.19270 0.72939 0.86400 -0.07600
C 	C 	0.07480 0.49960 0.70400 0.08700
H 	H 	0.06330 0.51900 0.74120 -0.02800
C 	C 	0.01390 0.48950 0.64980 -0.13500
H 	H 	0.96300 0.50190 0.65190 0.06000
C 	C 	0.02940 0.46100 0.59270 0.05300
C 	C 	0.10830 0.44490 0.59230 -0.14300
H 	H 	0.12250 0.42640 0.55420 0.06500
C 	C 	0.16500 0.45610 0.64780 0.07100
H 	H 	0.21710 0.44490 0.64570 -0.02400
C 	C 	0.83500 0.45520 0.47110 0.05000
H 	H 	0.78540 0.46860 0.46700 -0.00600
C 	C 	0.89250 0.46900 0.52590 -0.12000
H 	H 	0.88160 0.49140 0.55600 0.05100
C 	C 	0.96660 0.44870 0.53460 0.03700
C 	C 	0.97850 0.41650 0.48510 -0.13500
H 	H 	0.02800 0.40280 0.48720 0.06000
C 	C 	0.91880 0.40450 0.43320 0.05300
H 	H 	0.92820 0.38200 0.40280 0.00800
H 	H 	0.28230 0.77650 0.07540 0.23100
H 	H 	0.24790 0.73380 0.08910 0.22300
H 	H 	0.33610 0.73970 0.05400 0.23200
Eu	Eu	0.48219 0.94625 0.44508 1.87100
Zn	Zn	0.73881 0.00913 0.71146 1.19100
Zn	Zn	0.56340 0.83449 0.17231 1.16500
Zn	Zn	0.26818 0.84016 0.93129 1.20300
O 	O 	0.56540 0.98515 0.53250 -0.60000
O 	O 	0.63950 0.01991 0.61400 -0.56200
O 	O 	0.59770 0.91178 0.45350 -0.53800
O 	O 	0.67720 0.86071 0.48340 -0.46400
O 	O 	0.46300 0.91293 0.33120 -0.52700
O 	O 	0.48500 0.85852 0.26210 -0.49500
O 	O 	0.55970 0.98290 0.35800 -0.47500
O 	O 	0.67140 0.00513 0.29850 -0.46500
O 	O 	0.61970 0.79176 0.95260 -0.53200
O 	O 	0.63220 0.81195 0.07720 -0.49600
O 	O 	0.48510 0.79106 0.84520 -0.50500
O 	O 	0.36640 0.82349 0.84830 -0.42500
O 	O 	0.63050 0.79238 0.75580 -0.54600
O 	O 	0.68600 0.83637 0.67380 -0.40800
N 	N 	0.74770 0.96097 0.64390 -0.30500
N 	N 	0.76350 0.90138 0.58990 -0.27500
N 	N 	0.62200 0.88560 0.19540 -0.30400
N 	N 	0.69300 0.94134 0.20920 -0.30000
N 	N 	0.47180 0.82727 0.09410 -0.30300
N 	N 	0.37030 0.83280 0.00650 -0.28700
N 	N 	0.72740 0.78299 0.56640 -0.30900
N 	N 	0.64930 0.01751 0.79520 -0.26900
N 	N 	0.34690 0.07600 0.07540 -0.14100
C 	C 	0.62790 0.98784 0.57670 0.36500
C 	C 	0.68720 0.95632 0.58700 -0.08000
C 	C 	0.69830 0.91915 0.55400 -0.07000
C 	C 	0.65340 0.89561 0.49320 0.39100
C 	C 	0.79100 0.92726 0.64330 0.33300
C 	C 	0.86340 0.91920 0.69600 -0.92200
H 	H 	0.91270 0.91840 0.66500 0.29500
H 	H 	0.86780 0.93980 0.73470 0.29400
H 	H 	0.85600 0.89430 0.72200 0.30000
C 	C 	0.50470 0.89270 0.28380 0.38900
C 	C 	0.58210 0.90852 0.25000 -0.07700
C 	C 	0.62620 0.94316 0.25970 -0.06700
C 	C 	0.61790 0.97898 0.30880 0.36900
C 	C 	0.68870 0.90630 0.17320 0.30100
C 	C 	0.75130 0.89090 0.11690 -0.81300
H 	H 	0.79880 0.88220 0.14560 0.23700
H 	H 	0.72860 0.86920 0.08800 0.25100
H 	H 	0.76690 0.91150 0.08100 0.22600
C 	C 	0.58920 0.80490 0.01650 0.38000
C 	C 	0.50100 0.81450 0.02140 -0.10800
C 	C 	0.43770 0.81800 0.96800 -0.07500
C 	C 	0.42970 0.81018 0.88150 0.37200
C 	C 	0.39200 0.83712 0.08160 0.28500
C 	C 	0.33450 0.84840 0.14640 -0.84200
H 	H 	0.32270 0.82560 0.17820 0.22800
H 	H 	0.35940 0.86840 0.17850 0.27100
H 	H 	0.28440 0.85840 0.12420 0.25800
C 	C 	0.66830 0.80112 0.69280 0.39000
C 	C 	0.69270 0.77061 0.63600 -0.07600
C 	C 	0.57480 0.00040 0.79600 0.08500
H 	H 	0.56330 0.98100 0.75880 -0.02600
C 	C 	0.51390 0.01050 0.85020 -0.13200
H 	H 	0.46300 0.99810 0.84810 0.05900
C 	C 	0.52940 0.03900 0.90730 0.05300
C 	C 	0.60830 0.05510 0.90770 -0.14200
H 	H 	0.62250 0.07360 0.94580 0.06500
C 	C 	0.66500 0.04390 0.85220 0.07100
H 	H 	0.71710 0.05510 0.85430 -0.02400
C 	C 	0.33500 0.04480 0.02890 0.05300
H 	H 	0.28540 0.03140 0.03300 -0.00600
C 	C 	0.39250 0.03100 0.97410 -0.12300
H 	H 	0.38160 0.00860 0.94400 0.05200
C 	C 	0.46660 0.05130 0.96540 0.03600
C 	C 	0.47850 0.08350 0.01490 -0.13200
H 	H 	0.52800 0.09720 0.01280 0.05900
C 	C 	0.41880 0.09550 0.06680 0.05300
H 	H 	0.42820 0.11800 0.09720 0.00900
H 	H 	0.78230 0.72350 0.42460 0.23200
H 	H 	0.74790 0.76620 0.41090 0.22400
H 	H 	0.83610 0.76030 0.44600 0.23400
Eu	Eu	0.01781 0.05375 0.94508 1.86200
Zn	Zn	0.76119 0.99087 0.21146 1.19000
Zn	Zn	0.93660 0.16551 0.67231 1.16500
Zn	Zn	0.23182 0.15984 0.43129 1.20300
O 	O 	0.93460 0.01485 0.03250 -0.60000
O 	O 	0.86050 0.98009 0.11400 -0.56200
O 	O 	0.90230 0.08822 0.95350 -0.53600
O 	O 	0.82280 0.13929 0.98340 -0.46300
O 	O 	0.03700 0.08707 0.83120 -0.53000
O 	O 	0.01500 0.14148 0.76210 -0.49800
O 	O 	0.94030 0.01710 0.85800 -0.47100
O 	O 	0.82860 0.99487 0.79850 -0.46300
O 	O 	0.88030 0.20824 0.45260 -0.53400
O 	O 	0.86780 0.18805 0.57720 -0.49600
O 	O 	0.01490 0.20894 0.34520 -0.50300
O 	O 	0.13360 0.17651 0.34830 -0.42400
O 	O 	0.86950 0.20762 0.25580 -0.54600
O 	O 	0.81400 0.16363 0.17380 -0.40800
N 	N 	0.75230 0.03903 0.14390 -0.30500
N 	N 	0.73650 0.09862 0.08990 -0.27500
N 	N 	0.87800 0.11440 0.69540 -0.30300
N 	N 	0.80700 0.05866 0.70920 -0.30000
N 	N 	0.02820 0.17273 0.59410 -0.30300
N 	N 	0.12970 0.16720 0.50650 -0.28800
N 	N 	0.77260 0.21701 0.06640 -0.30800
N 	N 	0.85070 0.98249 0.29520 -0.26900
N 	N 	0.15310 0.92400 0.57540 -0.14100
C 	C 	0.87210 0.01216 0.07670 0.36500
C 	C 	0.81280 0.04368 0.08700 -0.07900
C 	C 	0.80170 0.08085 0.05400 -0.07300
C 	C 	0.84660 0.10439 0.99320 0.39300
C 	C 	0.70900 0.07274 0.14330 0.33200
C 	C 	0.63660 0.08080 0.19600 -0.92000
H 	H 	0.58730 0.08160 0.16500 0.29400
H 	H 	0.63220 0.06020 0.23470 0.29300
H 	H 	0.64400 0.10570 0.22200 0.29800
C 	C 	0.99530 0.10730 0.78380 0.39500
C 	C 	0.91790 0.09148 0.75000 -0.07800
C 	C 	0.87380 0.05684 0.75970 -0.06500
C 	C 	0.88210 0.02102 0.80880 0.36800
C 	C 	0.81130 0.09370 0.67320 0.30100
C 	C 	0.74870 0.10910 0.61690 -0.81400
H 	H 	0.70120 0.11780 0.64560 0.23700
H 	H 	0.77140 0.13080 0.58800 0.25200
H 	H 	0.73310 0.08850 0.58100 0.22700
C 	C 	0.91080 0.19510 0.51650 0.38300
C 	C 	0.99900 0.18550 0.52140 -0.11000
C 	C 	0.06230 0.18200 0.46800 -0.07300
C 	C 	0.07030 0.18982 0.38150 0.37100
C 	C 	0.10800 0.16288 0.58160 0.28500
C 	C 	0.16550 0.15160 0.64640 -0.84100
H 	H 	0.17730 0.17440 0.67820 0.22700
H 	H 	0.14060 0.13160 0.67850 0.27100
H 	H 	0.21560 0.14160 0.62420 0.25700
C 	C 	0.83170 0.19888 0.19280 0.39000
C 	C 	0.80730 0.22939 0.13600 -0.07600
C 	C 	0.92520 0.99960 0.29600 0.08600
H 	H 	0.93670 0.01900 0.25880 -0.02700
C 	C 	0.98610 0.98950 0.35020 -0.13500
H 	H 	0.03700 0.00190 0.34810 0.06000
C 	C 	0.97060 0.96100 0.40730 0.05400
C 	C 	0.89170 0.94490 0.40770 -0.14300
H 	H 	0.87750 0.92640 0.44580 0.06500
C 	C 	0.83500 0.95610 0.35220 0.07100
H 	H 	0.78290 0.94490 0.35430 -0.02500
C 	C 	0.16500 0.95520 0.52890 0.05000
H 	H 	0.21460 0.96860 0.53300 -0.00600
C 	C 	0.10750 0.96900 0.47410 -0.12000
H 	H 	0.11840 0.99140 0.44400 0.05100
C 	C 	0.03340 0.94870 0.46540 0.03700
C 	C 	0.02150 0.91650 0.51490 -0.13500
H 	H 	0.97200 0.90280 0.51280 0.06000
C 	C 	0.08120 0.90450 0.56680 0.05300
H 	H 	0.07180 0.88200 0.59720 0.00800
H 	H 	0.71770 0.27650 0.92460 0.23100
H 	H 	0.75210 0.23380 0.91090 0.22300
H 	H 	0.66390 0.23970 0.94600 0.23200
Eu	Eu	0.59508 0.75000 0.84997 2.20200
C 	C 	0.74620 0.75000 0.52570 0.44900
C 	C 	0.78120 0.75000 0.44460 -1.44900
Eu	Eu	0.90492 0.25000 0.34997 2.19700
C 	C 	0.75380 0.25000 0.02570 0.44400
C 	C 	0.71880 0.25000 0.94460 -1.43900
Eu	Eu	0.40492 0.25000 0.15003 2.20200
C 	C 	0.25380 0.25000 0.47430 0.44900
C 	C 	0.21880 0.25000 0.55540 -1.44900
Eu	Eu	0.09508 0.75000 0.65003 2.19700
C 	C 	0.24620 0.75000 0.97430 0.44400
C 	C 	0.28120 0.75000 0.05540 -1.43900
