data_crystal

_cell_length_a 16.05390
_cell_length_b 33.20400
_cell_length_c 17.11780
_cell_angle_alpha 90.00000
_cell_angle_beta  90.00000
_cell_angle_gamma 90.00000

_symmetry_space_group_name_	'P 1'
_symmetry_space_group_name_H-M	'P 1'

loop_
_symmetry_equiv_pos_as_xyz
  x,y,z

loop_
_atom_site_label
_atom_site_type_symbol
_atom_site_fract_x
_atom_site_fract_y
_atom_site_fract_z
_atom_site_charge
Tb	Tb	0.51695 0.05548 0.94707 1.69500
Zn	Zn	0.72371 0.16036 0.43238 1.20700
Zn	Zn	0.43365 0.16925 0.67667 1.16400
Zn	Zn	0.23713 0.00931 0.71333 1.19500
O 	O 	0.84490 0.20520 0.23410 -0.52500
O 	O 	0.80260 0.16270 0.32240 -0.40500
O 	O 	0.62520 0.17760 0.35260 -0.42600
O 	O 	0.50060 0.20670 0.34940 -0.49000
O 	O 	0.36160 0.18980 0.58160 -0.50800
O 	O 	0.36930 0.20650 0.45860 -0.51700
O 	O 	0.53600 0.08990 0.83500 -0.50600
O 	O 	0.51340 0.14470 0.76510 -0.49900
O 	O 	0.44020 0.01720 0.85800 -0.44900
O 	O 	0.32740 0.99520 0.80020 -0.46200
O 	O 	0.14180 0.02040 0.61540 -0.53800
O 	O 	0.06820 0.98540 0.53170 -0.56700
O 	O 	0.10550 0.91160 0.45250 -0.49100
O 	O 	0.18500 0.85960 0.48370 -0.46500
N 	N 	0.77110 0.21720 0.42840 -0.32500
N 	N 	0.62410 0.16920 0.50780 -0.29200
N 	N 	0.52230 0.17540 0.59450 -0.30100
N 	N 	0.37490 0.11670 0.69860 -0.31800
N 	N 	0.30530 0.05980 0.71090 -0.31900
N 	N 	0.24880 0.96080 0.64690 -0.31100
N 	N 	0.26830 0.90100 0.59110 -0.27700
C 	C 	0.81840 0.19750 0.30120 0.39700
C 	C 	0.79810 0.22860 0.36220 -0.06300
C 	C 	0.55890 0.19110 0.38490 0.37800
C 	C 	0.55400 0.18350 0.47010 -0.07600
C 	C 	0.49190 0.18720 0.52290 -0.10700
C 	C 	0.40120 0.19570 0.51860 0.42000
C 	C 	0.60330 0.16580 0.58230 0.26500
C 	C 	0.66350 0.15460 0.64660 -0.81900
H 	H 	0.63640 0.13710 0.68310 0.26300
H 	H 	0.68160 0.17860 0.67310 0.21100
H 	H 	0.71090 0.14120 0.62450 0.25400
C 	C 	0.49320 0.11020 0.78780 0.38900
C 	C 	0.41600 0.09370 0.75430 -0.08300
C 	C 	0.37340 0.05850 0.76130 -0.05900
C 	C 	0.38180 0.02160 0.81070 0.37200
C 	C 	0.30960 0.09510 0.67700 0.37200
C 	C 	0.24840 0.11020 0.62170 -0.93900
H 	H 	0.20250 0.12180 0.64960 0.27900
H 	H 	0.22880 0.08850 0.58970 0.26800
H 	H 	0.27370 0.13040 0.58910 0.29000
C 	C 	0.12900 0.98810 0.57660 0.36500
C 	C 	0.19030 0.95660 0.58670 -0.07900
C 	C 	0.20330 0.91860 0.55420 -0.06800
C 	C 	0.16120 0.89490 0.49400 0.37100
C 	C 	0.29180 0.92680 0.64730 0.34500
C 	C 	0.36410 0.91840 0.70080 -0.93900
H 	H 	0.36510 0.93810 0.74190 0.30100
H 	H 	0.41510 0.91980 0.67170 0.30100
H 	H 	0.35820 0.89200 0.72290 0.30700
N 	N 	0.14610 0.01870 0.79480 -0.25600
C 	C 	0.16510 0.04780 0.85040 0.04400
H 	H 	0.21710 0.06010 0.85030 -0.01400
C 	C 	0.10620 0.05860 0.90610 -0.12500
H 	H 	0.11890 0.07800 0.94330 0.06100
C 	C 	0.02840 0.04020 0.90630 0.05500
C 	C 	0.00940 0.01110 0.85070 -0.11200
H 	H 	0.95730 0.99880 0.85080 0.04900
C 	C 	0.06830 0.00030 0.79500 0.06100
H 	H 	0.05560 0.98090 0.75780 -0.01500
N 	N 	0.84530 0.07620 0.07560 -0.12900
C 	C 	0.91990 0.09710 0.06840 0.02700
H 	H 	0.93040 0.11930 0.10020 0.02200
C 	C 	0.97880 0.08500 0.01370 -0.09300
H 	H 	0.02870 0.09900 0.00890 0.04400
C 	C 	0.96300 0.05190 0.96630 0.01600
C 	C 	0.88850 0.03090 0.97350 -0.11000
H 	H 	0.87790 0.00880 0.94170 0.04700
C 	C 	0.82960 0.04310 0.02810 0.03700
H 	H 	0.77970 0.02910 0.03290 0.00200
H 	H 	0.76700 0.23850 0.58570 0.26600
H 	H 	0.67490 0.23430 0.55640 0.27700
H 	H 	0.71390 0.27720 0.56880 0.26500
Tb	Tb	0.98305 0.94452 0.44707 1.69800
Zn	Zn	0.77629 0.83964 0.93238 1.20600
Zn	Zn	0.06635 0.83075 0.17667 1.16200
Zn	Zn	0.26287 0.99069 0.21333 1.19400
O 	O 	0.65510 0.79480 0.73410 -0.52600
O 	O 	0.69740 0.83730 0.82240 -0.40600
O 	O 	0.87480 0.82240 0.85260 -0.42800
O 	O 	0.99940 0.79330 0.84940 -0.49300
O 	O 	0.13840 0.81020 0.08160 -0.50900
O 	O 	0.13070 0.79350 0.95860 -0.51300
O 	O 	0.96400 0.91010 0.33500 -0.50300
O 	O 	0.98660 0.85530 0.26510 -0.49500
O 	O 	0.05980 0.98280 0.35800 -0.45100
O 	O 	0.17260 0.00480 0.30020 -0.46400
O 	O 	0.35820 0.97960 0.11540 -0.54000
O 	O 	0.43180 0.01460 0.03170 -0.56700
O 	O 	0.39450 0.08840 0.95250 -0.49200
O 	O 	0.31500 0.14040 0.98370 -0.46500
N 	N 	0.72890 0.78280 0.92840 -0.32500
N 	N 	0.87590 0.83080 0.00780 -0.29000
N 	N 	0.97770 0.82460 0.09450 -0.29700
N 	N 	0.12510 0.88330 0.19860 -0.31900
N 	N 	0.19470 0.94020 0.21090 -0.31900
N 	N 	0.25120 0.03920 0.14690 -0.31100
N 	N 	0.23170 0.09900 0.09110 -0.27700
C 	C 	0.68160 0.80250 0.80120 0.39600
C 	C 	0.70190 0.77140 0.86220 -0.06300
C 	C 	0.94110 0.80890 0.88490 0.37900
C 	C 	0.94600 0.81650 0.97010 -0.07800
C 	C 	0.00810 0.81280 0.02290 -0.11200
C 	C 	0.09880 0.80430 0.01860 0.41400
C 	C 	0.89670 0.83420 0.08230 0.26700
C 	C 	0.83650 0.84540 0.14660 -0.82000
H 	H 	0.86360 0.86290 0.18310 0.26400
H 	H 	0.81840 0.82140 0.17310 0.21200
H 	H 	0.78910 0.85880 0.12450 0.25400
C 	C 	0.00680 0.88980 0.28780 0.38100
C 	C 	0.08400 0.90630 0.25430 -0.08200
C 	C 	0.12660 0.94150 0.26130 -0.06100
C 	C 	0.11820 0.97840 0.31070 0.37200
C 	C 	0.19040 0.90490 0.17700 0.37100
C 	C 	0.25160 0.88980 0.12170 -0.93600
H 	H 	0.29750 0.87820 0.14960 0.27800
H 	H 	0.27120 0.91150 0.08970 0.26600
H 	H 	0.22630 0.86960 0.08910 0.28800
C 	C 	0.37100 0.01190 0.07660 0.36500
C 	C 	0.30970 0.04340 0.08670 -0.07900
C 	C 	0.29670 0.08140 0.05420 -0.07000
C 	C 	0.33880 0.10510 0.99400 0.37300
C 	C 	0.20820 0.07320 0.14730 0.34400
C 	C 	0.13590 0.08160 0.20080 -0.93600
H 	H 	0.13490 0.06190 0.24190 0.30000
H 	H 	0.08490 0.08020 0.17170 0.29900
H 	H 	0.14180 0.10800 0.22290 0.30600
N 	N 	0.35390 0.98130 0.29480 -0.25600
C 	C 	0.33490 0.95220 0.35040 0.04100
H 	H 	0.28290 0.93990 0.35030 -0.01200
C 	C 	0.39380 0.94140 0.40610 -0.11900
H 	H 	0.38110 0.92200 0.44330 0.05700
C 	C 	0.47160 0.95980 0.40630 0.04300
C 	C 	0.49060 0.98890 0.35070 -0.11400
H 	H 	0.54270 0.00120 0.35080 0.05100
C 	C 	0.43170 0.99970 0.29500 0.06100
H 	H 	0.44440 0.01910 0.25780 -0.01600
N 	N 	0.65470 0.92380 0.57560 -0.13200
C 	C 	0.58010 0.90290 0.56840 0.03900
H 	H 	0.56960 0.88070 0.60020 0.01600
C 	C 	0.52120 0.91500 0.51370 -0.12500
H 	H 	0.47130 0.90100 0.50890 0.05800
C 	C 	0.53700 0.94810 0.46630 0.03700
C 	C 	0.61150 0.96910 0.47350 -0.11300
H 	H 	0.62210 0.99120 0.44170 0.05000
C 	C 	0.67040 0.95690 0.52810 0.03400
H 	H 	0.72030 0.97090 0.53290 0.00200
H 	H 	0.73300 0.76150 0.08570 0.26500
H 	H 	0.82510 0.76570 0.05640 0.27600
H 	H 	0.78610 0.72280 0.06880 0.26300
Tb	Tb	0.48305 0.55548 0.05293 1.69600
Zn	Zn	0.27629 0.66036 0.56762 1.20600
Zn	Zn	0.56635 0.66925 0.32333 1.16300
Zn	Zn	0.76287 0.50931 0.28667 1.19400
O 	O 	0.15510 0.70520 0.76590 -0.52600
O 	O 	0.19740 0.66270 0.67760 -0.40600
O 	O 	0.37480 0.67760 0.64740 -0.42700
O 	O 	0.49940 0.70670 0.65060 -0.49100
O 	O 	0.63840 0.68980 0.41840 -0.50900
O 	O 	0.63070 0.70650 0.54140 -0.51800
O 	O 	0.46400 0.58990 0.16500 -0.50700
O 	O 	0.48660 0.64470 0.23490 -0.50000
O 	O 	0.55980 0.51720 0.14200 -0.45000
O 	O 	0.67260 0.49520 0.19980 -0.46400
O 	O 	0.85820 0.52040 0.38460 -0.53900
O 	O 	0.93180 0.48540 0.46830 -0.56800
O 	O 	0.89450 0.41160 0.54750 -0.49200
O 	O 	0.81500 0.35960 0.51630 -0.46600
N 	N 	0.22890 0.71720 0.57160 -0.32600
N 	N 	0.37590 0.66920 0.49220 -0.29300
N 	N 	0.47770 0.67540 0.40550 -0.30100
N 	N 	0.62510 0.61670 0.30140 -0.31800
N 	N 	0.69470 0.55980 0.28910 -0.31900
N 	N 	0.75120 0.46080 0.35310 -0.31100
N 	N 	0.73170 0.40100 0.40890 -0.27700
C 	C 	0.18160 0.69750 0.69880 0.39700
C 	C 	0.20190 0.72860 0.63780 -0.06300
C 	C 	0.44110 0.69110 0.61510 0.37800
C 	C 	0.44600 0.68350 0.52990 -0.07600
C 	C 	0.50810 0.68720 0.47710 -0.10700
C 	C 	0.59880 0.69570 0.48140 0.42000
C 	C 	0.39670 0.66580 0.41770 0.26500
C 	C 	0.33650 0.65460 0.35340 -0.81900
H 	H 	0.36360 0.63710 0.31690 0.26300
H 	H 	0.31840 0.67860 0.32690 0.21100
H 	H 	0.28910 0.64120 0.37550 0.25400
C 	C 	0.50680 0.61020 0.21220 0.38900
C 	C 	0.58400 0.59370 0.24570 -0.08300
C 	C 	0.62660 0.55850 0.23870 -0.05900
C 	C 	0.61820 0.52160 0.18930 0.37200
C 	C 	0.69040 0.59510 0.32300 0.37200
C 	C 	0.75160 0.61020 0.37830 -0.93900
H 	H 	0.79750 0.62180 0.35040 0.27900
H 	H 	0.77120 0.58850 0.41030 0.26800
H 	H 	0.72630 0.63040 0.41090 0.29000
C 	C 	0.87100 0.48810 0.42340 0.36500
C 	C 	0.80970 0.45660 0.41330 -0.07900
C 	C 	0.79670 0.41860 0.44580 -0.06800
C 	C 	0.83880 0.39490 0.50600 0.37100
C 	C 	0.70820 0.42680 0.35270 0.34500
C 	C 	0.63590 0.41840 0.29920 -0.93800
H 	H 	0.63490 0.43810 0.25810 0.30100
H 	H 	0.58490 0.41980 0.32830 0.30100
H 	H 	0.64180 0.39200 0.27710 0.30700
N 	N 	0.85390 0.51870 0.20520 -0.25600
C 	C 	0.83490 0.54780 0.14960 0.04400
H 	H 	0.78290 0.56010 0.14970 -0.01300
C 	C 	0.89380 0.55860 0.09390 -0.12500
H 	H 	0.88110 0.57800 0.05670 0.06100
C 	C 	0.97160 0.54020 0.09370 0.05400
C 	C 	0.99060 0.51110 0.14930 -0.11000
H 	H 	0.04270 0.49880 0.14920 0.04700
C 	C 	0.93170 0.50030 0.20500 0.06100
H 	H 	0.94440 0.48090 0.24220 -0.01500
N 	N 	0.15470 0.57620 0.92440 -0.12900
C 	C 	0.08010 0.59710 0.93160 0.02700
H 	H 	0.06960 0.61930 0.89980 0.02200
C 	C 	0.02120 0.58500 0.98630 -0.09400
H 	H 	0.97130 0.59900 0.99110 0.04400
C 	C 	0.03700 0.55190 0.03370 0.01700
C 	C 	0.11150 0.53090 0.02650 -0.10900
H 	H 	0.12210 0.50880 0.05830 0.04700
C 	C 	0.17040 0.54310 0.97190 0.03600
H 	H 	0.22030 0.52910 0.96710 0.00300
H 	H 	0.23300 0.73850 0.41430 0.26600
H 	H 	0.32510 0.73430 0.44360 0.27700
H 	H 	0.28610 0.77720 0.43120 0.26500
Tb	Tb	0.01695 0.44452 0.55293 1.69800
Zn	Zn	0.22371 0.33964 0.06762 1.20600
Zn	Zn	0.93365 0.33075 0.82333 1.16200
Zn	Zn	0.73713 0.49069 0.78667 1.19400
O 	O 	0.34490 0.29480 0.26590 -0.52600
O 	O 	0.30260 0.33730 0.17760 -0.40600
O 	O 	0.12520 0.32240 0.14740 -0.42800
O 	O 	0.00060 0.29330 0.15060 -0.49300
O 	O 	0.86160 0.31020 0.91840 -0.50900
O 	O 	0.86930 0.29350 0.04140 -0.51300
O 	O 	0.03600 0.41010 0.66500 -0.50300
O 	O 	0.01340 0.35530 0.73490 -0.49500
O 	O 	0.94020 0.48280 0.64200 -0.45100
O 	O 	0.82740 0.50480 0.69980 -0.46400
O 	O 	0.64180 0.47960 0.88460 -0.53900
O 	O 	0.56820 0.51460 0.96830 -0.56700
O 	O 	0.60550 0.58840 0.04750 -0.49200
O 	O 	0.68500 0.64040 0.01630 -0.46500
N 	N 	0.27110 0.28280 0.07160 -0.32500
N 	N 	0.12410 0.33080 0.99220 -0.29000
N 	N 	0.02230 0.32460 0.90550 -0.29700
N 	N 	0.87490 0.38330 0.80140 -0.31900
N 	N 	0.80530 0.44020 0.78910 -0.31900
N 	N 	0.74880 0.53920 0.85310 -0.31200
N 	N 	0.76830 0.59900 0.90890 -0.27700
C 	C 	0.31840 0.30250 0.19880 0.39600
C 	C 	0.29810 0.27140 0.13780 -0.06300
C 	C 	0.05890 0.30890 0.11510 0.37900
C 	C 	0.05400 0.31650 0.02990 -0.07900
C 	C 	0.99190 0.31280 0.97710 -0.11200
C 	C 	0.90120 0.30430 0.98140 0.41400
C 	C 	0.10330 0.33420 0.91770 0.26700
C 	C 	0.16350 0.34540 0.85340 -0.82000
H 	H 	0.13640 0.36290 0.81690 0.26400
H 	H 	0.18160 0.32140 0.82690 0.21200
H 	H 	0.21090 0.35880 0.87550 0.25400
C 	C 	0.99320 0.38980 0.71220 0.38100
C 	C 	0.91600 0.40630 0.74570 -0.08200
C 	C 	0.87340 0.44150 0.73870 -0.06100
C 	C 	0.88180 0.47840 0.68930 0.37300
C 	C 	0.80960 0.40490 0.82300 0.37100
C 	C 	0.74840 0.38980 0.87830 -0.93600
H 	H 	0.70250 0.37820 0.85040 0.27800
H 	H 	0.72880 0.41150 0.91030 0.26700
H 	H 	0.77370 0.36960 0.91090 0.28800
C 	C 	0.62900 0.51190 0.92340 0.36400
C 	C 	0.69030 0.54340 0.91330 -0.07800
C 	C 	0.70330 0.58140 0.94580 -0.07100
C 	C 	0.66120 0.60510 0.00600 0.37400
C 	C 	0.79180 0.57320 0.85270 0.34400
C 	C 	0.86410 0.58160 0.79920 -0.93600
H 	H 	0.86510 0.56190 0.75810 0.30000
H 	H 	0.91510 0.58020 0.82830 0.29900
H 	H 	0.85820 0.60800 0.77710 0.30600
N 	N 	0.64610 0.48130 0.70520 -0.25600
C 	C 	0.66510 0.45220 0.64960 0.04100
H 	H 	0.71710 0.43990 0.64970 -0.01200
C 	C 	0.60620 0.44140 0.59390 -0.11900
H 	H 	0.61890 0.42200 0.55670 0.05700
C 	C 	0.52840 0.45980 0.59370 0.04300
C 	C 	0.50940 0.48890 0.64930 -0.11400
H 	H 	0.45730 0.50120 0.64920 0.05100
C 	C 	0.56830 0.49970 0.70500 0.06200
H 	H 	0.55560 0.51910 0.74220 -0.01600
N 	N 	0.34530 0.42380 0.42440 -0.13200
C 	C 	0.41990 0.40290 0.43160 0.03900
H 	H 	0.43040 0.38070 0.39980 0.01600
C 	C 	0.47880 0.41500 0.48630 -0.12500
H 	H 	0.52870 0.40100 0.49110 0.05800
C 	C 	0.46300 0.44810 0.53370 0.03700
C 	C 	0.38850 0.46910 0.52650 -0.11300
H 	H 	0.37790 0.49120 0.55830 0.05000
C 	C 	0.32960 0.45690 0.47190 0.03400
H 	H 	0.27970 0.47090 0.46710 0.00200
H 	H 	0.26700 0.26150 0.91430 0.26500
H 	H 	0.17490 0.26570 0.94360 0.27600
H 	H 	0.21390 0.22280 0.93120 0.26300
Tb	Tb	0.48305 0.94452 0.05293 1.69400
Zn	Zn	0.27629 0.83964 0.56762 1.20600
Zn	Zn	0.56635 0.83075 0.32333 1.16300
Zn	Zn	0.76287 0.99069 0.28667 1.19400
O 	O 	0.15510 0.79480 0.76590 -0.52600
O 	O 	0.19740 0.83730 0.67760 -0.40600
O 	O 	0.37480 0.82240 0.64740 -0.42700
O 	O 	0.49940 0.79330 0.65060 -0.49100
O 	O 	0.63840 0.81020 0.41840 -0.50900
O 	O 	0.63070 0.79350 0.54140 -0.51800
O 	O 	0.46400 0.91010 0.16500 -0.50700
O 	O 	0.48660 0.85530 0.23490 -0.50000
O 	O 	0.55980 0.98280 0.14200 -0.45000
O 	O 	0.67260 0.00480 0.19980 -0.46300
O 	O 	0.85820 0.97960 0.38460 -0.53900
O 	O 	0.93180 0.01460 0.46830 -0.56800
O 	O 	0.89450 0.08840 0.54750 -0.49200
O 	O 	0.81500 0.14040 0.51630 -0.46600
N 	N 	0.22890 0.78280 0.57160 -0.32600
N 	N 	0.37590 0.83080 0.49220 -0.29300
N 	N 	0.47770 0.82460 0.40550 -0.30100
N 	N 	0.62510 0.88330 0.30140 -0.31800
N 	N 	0.69470 0.94020 0.28910 -0.31900
N 	N 	0.75120 0.03920 0.35310 -0.31100
N 	N 	0.73170 0.09900 0.40890 -0.27700
C 	C 	0.18160 0.80250 0.69880 0.39700
C 	C 	0.20190 0.77140 0.63780 -0.06300
C 	C 	0.44110 0.80890 0.61510 0.37800
C 	C 	0.44600 0.81650 0.52990 -0.07600
C 	C 	0.50810 0.81280 0.47710 -0.10700
C 	C 	0.59880 0.80430 0.48140 0.42000
C 	C 	0.39670 0.83420 0.41770 0.26500
C 	C 	0.33650 0.84540 0.35340 -0.81900
H 	H 	0.36360 0.86290 0.31690 0.26300
H 	H 	0.31840 0.82140 0.32690 0.21100
H 	H 	0.28910 0.85880 0.37550 0.25400
C 	C 	0.50680 0.88980 0.21220 0.38900
C 	C 	0.58400 0.90630 0.24570 -0.08300
C 	C 	0.62660 0.94150 0.23870 -0.05900
C 	C 	0.61820 0.97840 0.18930 0.37200
C 	C 	0.69040 0.90490 0.32300 0.37200
C 	C 	0.75160 0.88980 0.37830 -0.93900
H 	H 	0.79750 0.87820 0.35040 0.27900
H 	H 	0.77120 0.91150 0.41030 0.26800
H 	H 	0.72630 0.86960 0.41090 0.29000
C 	C 	0.87100 0.01190 0.42340 0.36500
C 	C 	0.80970 0.04340 0.41330 -0.07900
C 	C 	0.79670 0.08140 0.44580 -0.06800
C 	C 	0.83880 0.10510 0.50600 0.37100
C 	C 	0.70820 0.07320 0.35270 0.34500
C 	C 	0.63590 0.08160 0.29920 -0.93900
H 	H 	0.63490 0.06190 0.25810 0.30100
H 	H 	0.58490 0.08020 0.32830 0.30100
H 	H 	0.64180 0.10800 0.27710 0.30700
N 	N 	0.85390 0.98130 0.20520 -0.25600
C 	C 	0.83490 0.95220 0.14960 0.04400
H 	H 	0.78290 0.93990 0.14970 -0.01400
C 	C 	0.89380 0.94140 0.09390 -0.12500
H 	H 	0.88110 0.92200 0.05670 0.06100
C 	C 	0.97160 0.95980 0.09370 0.05500
C 	C 	0.99060 0.98890 0.14930 -0.11200
H 	H 	0.04270 0.00120 0.14920 0.04900
C 	C 	0.93170 0.99970 0.20500 0.06100
H 	H 	0.94440 0.01910 0.24220 -0.01500
N 	N 	0.15470 0.92380 0.92440 -0.12900
C 	C 	0.08010 0.90290 0.93160 0.02700
H 	H 	0.06960 0.88070 0.89980 0.02200
C 	C 	0.02120 0.91500 0.98630 -0.09300
H 	H 	0.97130 0.90100 0.99110 0.04400
C 	C 	0.03700 0.94810 0.03370 0.01600
C 	C 	0.11150 0.96910 0.02650 -0.11000
H 	H 	0.12210 0.99120 0.05830 0.04700
C 	C 	0.17040 0.95690 0.97190 0.03700
H 	H 	0.22030 0.97090 0.96710 0.00200
H 	H 	0.23300 0.76150 0.41430 0.26600
H 	H 	0.32510 0.76570 0.44360 0.27700
H 	H 	0.28610 0.72280 0.43120 0.26500
Tb	Tb	0.01695 0.05548 0.55293 1.69800
Zn	Zn	0.22371 0.16036 0.06762 1.20600
Zn	Zn	0.93365 0.16925 0.82333 1.16200
Zn	Zn	0.73713 0.00931 0.78667 1.19400
O 	O 	0.34490 0.20520 0.26590 -0.52600
O 	O 	0.30260 0.16270 0.17760 -0.40600
O 	O 	0.12520 0.17760 0.14740 -0.42800
O 	O 	0.00060 0.20670 0.15060 -0.49300
O 	O 	0.86160 0.18980 0.91840 -0.50900
O 	O 	0.86930 0.20650 0.04140 -0.51300
O 	O 	0.03600 0.08990 0.66500 -0.50300
O 	O 	0.01340 0.14470 0.73490 -0.49500
O 	O 	0.94020 0.01720 0.64200 -0.45100
O 	O 	0.82740 0.99520 0.69980 -0.46400
O 	O 	0.64180 0.02040 0.88460 -0.54000
O 	O 	0.56820 0.98540 0.96830 -0.56700
O 	O 	0.60550 0.91160 0.04750 -0.49200
O 	O 	0.68500 0.85960 0.01630 -0.46500
N 	N 	0.27110 0.21720 0.07160 -0.32500
N 	N 	0.12410 0.16920 0.99220 -0.29000
N 	N 	0.02230 0.17540 0.90550 -0.29700
N 	N 	0.87490 0.11670 0.80140 -0.31900
N 	N 	0.80530 0.05980 0.78910 -0.31900
N 	N 	0.74880 0.96080 0.85310 -0.31100
N 	N 	0.76830 0.90100 0.90890 -0.27700
C 	C 	0.31840 0.19750 0.19880 0.39600
C 	C 	0.29810 0.22860 0.13780 -0.06300
C 	C 	0.05890 0.19110 0.11510 0.37900
C 	C 	0.05400 0.18350 0.02990 -0.07800
C 	C 	0.99190 0.18720 0.97710 -0.11200
C 	C 	0.90120 0.19570 0.98140 0.41400
C 	C 	0.10330 0.16580 0.91770 0.26700
C 	C 	0.16350 0.15460 0.85340 -0.82000
H 	H 	0.13640 0.13710 0.81690 0.26400
H 	H 	0.18160 0.17860 0.82690 0.21200
H 	H 	0.21090 0.14120 0.87550 0.25400
C 	C 	0.99320 0.11020 0.71220 0.38100
C 	C 	0.91600 0.09370 0.74570 -0.08200
C 	C 	0.87340 0.05850 0.73870 -0.06100
C 	C 	0.88180 0.02160 0.68930 0.37200
C 	C 	0.80960 0.09510 0.82300 0.37100
C 	C 	0.74840 0.11020 0.87830 -0.93600
H 	H 	0.70250 0.12180 0.85040 0.27800
H 	H 	0.72880 0.08850 0.91030 0.26600
H 	H 	0.77370 0.13040 0.91090 0.28800
C 	C 	0.62900 0.98810 0.92340 0.36500
C 	C 	0.69030 0.95660 0.91330 -0.07900
C 	C 	0.70330 0.91860 0.94580 -0.07000
C 	C 	0.66120 0.89490 0.00600 0.37300
C 	C 	0.79180 0.92680 0.85270 0.34400
C 	C 	0.86410 0.91840 0.79920 -0.93600
H 	H 	0.86510 0.93810 0.75810 0.30000
H 	H 	0.91510 0.91980 0.82830 0.29900
H 	H 	0.85820 0.89200 0.77710 0.30600
N 	N 	0.64610 0.01870 0.70520 -0.25600
C 	C 	0.66510 0.04780 0.64960 0.04100
H 	H 	0.71710 0.06010 0.64970 -0.01200
C 	C 	0.60620 0.05860 0.59390 -0.11900
H 	H 	0.61890 0.07800 0.55670 0.05700
C 	C 	0.52840 0.04020 0.59370 0.04300
C 	C 	0.50940 0.01110 0.64930 -0.11400
H 	H 	0.45730 0.99880 0.64920 0.05100
C 	C 	0.56830 0.00030 0.70500 0.06100
H 	H 	0.55560 0.98090 0.74220 -0.01600
N 	N 	0.34530 0.07620 0.42440 -0.13200
C 	C 	0.41990 0.09710 0.43160 0.03900
H 	H 	0.43040 0.11930 0.39980 0.01600
C 	C 	0.47880 0.08500 0.48630 -0.12500
H 	H 	0.52870 0.09900 0.49110 0.05800
C 	C 	0.46300 0.05190 0.53370 0.03700
C 	C 	0.38850 0.03090 0.52650 -0.11300
H 	H 	0.37790 0.00880 0.55830 0.05000
C 	C 	0.32960 0.04310 0.47190 0.03400
H 	H 	0.27970 0.02910 0.46710 0.00200
H 	H 	0.26700 0.23850 0.91430 0.26500
H 	H 	0.17490 0.23430 0.94360 0.27600
H 	H 	0.21390 0.27720 0.93120 0.26300
Tb	Tb	0.51695 0.44452 0.94707 1.69600
Zn	Zn	0.72371 0.33964 0.43238 1.20600
Zn	Zn	0.43365 0.33075 0.67667 1.16300
Zn	Zn	0.23713 0.49069 0.71333 1.19400
O 	O 	0.84490 0.29480 0.23410 -0.52600
O 	O 	0.80260 0.33730 0.32240 -0.40600
O 	O 	0.62520 0.32240 0.35260 -0.42700
O 	O 	0.50060 0.29330 0.34940 -0.49100
O 	O 	0.36160 0.31020 0.58160 -0.50900
O 	O 	0.36930 0.29350 0.45860 -0.51800
O 	O 	0.53600 0.41010 0.83500 -0.50700
O 	O 	0.51340 0.35530 0.76510 -0.50000
O 	O 	0.44020 0.48280 0.85800 -0.45000
O 	O 	0.32740 0.50480 0.80020 -0.46400
O 	O 	0.14180 0.47960 0.61540 -0.53900
O 	O 	0.06820 0.51460 0.53170 -0.56800
O 	O 	0.10550 0.58840 0.45250 -0.49200
O 	O 	0.18500 0.64040 0.48370 -0.46600
N 	N 	0.77110 0.28280 0.42840 -0.32600
N 	N 	0.62410 0.33080 0.50780 -0.29300
N 	N 	0.52230 0.32460 0.59450 -0.30100
N 	N 	0.37490 0.38330 0.69860 -0.31800
N 	N 	0.30530 0.44020 0.71090 -0.31900
N 	N 	0.24880 0.53920 0.64690 -0.31100
N 	N 	0.26830 0.59900 0.59110 -0.27700
C 	C 	0.81840 0.30250 0.30120 0.39700
C 	C 	0.79810 0.27140 0.36220 -0.06300
C 	C 	0.55890 0.30890 0.38490 0.37800
C 	C 	0.55400 0.31650 0.47010 -0.07600
C 	C 	0.49190 0.31280 0.52290 -0.10700
C 	C 	0.40120 0.30430 0.51860 0.42000
C 	C 	0.60330 0.33420 0.58230 0.26500
C 	C 	0.66350 0.34540 0.64660 -0.81900
H 	H 	0.63640 0.36290 0.68310 0.26300
H 	H 	0.68160 0.32140 0.67310 0.21100
H 	H 	0.71090 0.35880 0.62450 0.25400
C 	C 	0.49320 0.38980 0.78780 0.38900
C 	C 	0.41600 0.40630 0.75430 -0.08300
C 	C 	0.37340 0.44150 0.76130 -0.05900
C 	C 	0.38180 0.47840 0.81070 0.37200
C 	C 	0.30960 0.40490 0.67700 0.37200
C 	C 	0.24840 0.38980 0.62170 -0.93900
H 	H 	0.20250 0.37820 0.64960 0.27900
H 	H 	0.22880 0.41150 0.58970 0.26800
H 	H 	0.27370 0.36960 0.58910 0.29000
C 	C 	0.12900 0.51190 0.57660 0.36500
C 	C 	0.19030 0.54340 0.58670 -0.07900
C 	C 	0.20330 0.58140 0.55420 -0.06800
C 	C 	0.16120 0.60510 0.49400 0.37100
C 	C 	0.29180 0.57320 0.64730 0.34500
C 	C 	0.36410 0.58160 0.70080 -0.93800
H 	H 	0.36510 0.56190 0.74190 0.30100
H 	H 	0.41510 0.58020 0.67170 0.30100
H 	H 	0.35820 0.60800 0.72290 0.30700
N 	N 	0.14610 0.48130 0.79480 -0.25600
C 	C 	0.16510 0.45220 0.85040 0.04400
H 	H 	0.21710 0.43990 0.85030 -0.01300
C 	C 	0.10620 0.44140 0.90610 -0.12500
H 	H 	0.11890 0.42200 0.94330 0.06100
C 	C 	0.02840 0.45980 0.90630 0.05400
C 	C 	0.00940 0.48890 0.85070 -0.11000
H 	H 	0.95730 0.50120 0.85080 0.04700
C 	C 	0.06830 0.49970 0.79500 0.06100
H 	H 	0.05560 0.51910 0.75780 -0.01500
N 	N 	0.84530 0.42380 0.07560 -0.12900
C 	C 	0.91990 0.40290 0.06840 0.02700
H 	H 	0.93040 0.38070 0.10020 0.02200
C 	C 	0.97880 0.41500 0.01370 -0.09400
H 	H 	0.02870 0.40100 0.00890 0.04400
C 	C 	0.96300 0.44810 0.96630 0.01700
C 	C 	0.88850 0.46910 0.97350 -0.10900
H 	H 	0.87790 0.49120 0.94170 0.04700
C 	C 	0.82960 0.45690 0.02810 0.03600
H 	H 	0.77970 0.47090 0.03290 0.00300
H 	H 	0.76700 0.26150 0.58570 0.26600
H 	H 	0.67490 0.26570 0.55640 0.27700
H 	H 	0.71390 0.22280 0.56880 0.26500
Tb	Tb	0.98305 0.55548 0.44707 1.69800
Zn	Zn	0.77629 0.66036 0.93238 1.20600
Zn	Zn	0.06635 0.66925 0.17667 1.16200
Zn	Zn	0.26287 0.50931 0.21333 1.19400
O 	O 	0.65510 0.70520 0.73410 -0.52600
O 	O 	0.69740 0.66270 0.82240 -0.40600
O 	O 	0.87480 0.67760 0.85260 -0.42800
O 	O 	0.99940 0.70670 0.84940 -0.49300
O 	O 	0.13840 0.68980 0.08160 -0.50900
O 	O 	0.13070 0.70650 0.95860 -0.51300
O 	O 	0.96400 0.58990 0.33500 -0.50300
O 	O 	0.98660 0.64470 0.26510 -0.49500
O 	O 	0.05980 0.51720 0.35800 -0.45100
O 	O 	0.17260 0.49520 0.30020 -0.46400
O 	O 	0.35820 0.52040 0.11540 -0.53900
O 	O 	0.43180 0.48540 0.03170 -0.56700
O 	O 	0.39450 0.41160 0.95250 -0.49200
O 	O 	0.31500 0.35960 0.98370 -0.46500
N 	N 	0.72890 0.71720 0.92840 -0.32500
N 	N 	0.87590 0.66920 0.00780 -0.29000
N 	N 	0.97770 0.67540 0.09450 -0.29700
N 	N 	0.12510 0.61670 0.19860 -0.31900
N 	N 	0.19470 0.55980 0.21090 -0.31900
N 	N 	0.25120 0.46080 0.14690 -0.31200
N 	N 	0.23170 0.40100 0.09110 -0.27700
C 	C 	0.68160 0.69750 0.80120 0.39600
C 	C 	0.70190 0.72860 0.86220 -0.06300
C 	C 	0.94110 0.69110 0.88490 0.37900
C 	C 	0.94600 0.68350 0.97010 -0.07900
C 	C 	0.00810 0.68720 0.02290 -0.11200
C 	C 	0.09880 0.69570 0.01860 0.41400
C 	C 	0.89670 0.66580 0.08230 0.26700
C 	C 	0.83650 0.65460 0.14660 -0.82000
H 	H 	0.86360 0.63710 0.18310 0.26400
H 	H 	0.81840 0.67860 0.17310 0.21200
H 	H 	0.78910 0.64120 0.12450 0.25400
C 	C 	0.00680 0.61020 0.28780 0.38100
C 	C 	0.08400 0.59370 0.25430 -0.08200
C 	C 	0.12660 0.55850 0.26130 -0.06100
C 	C 	0.11820 0.52160 0.31070 0.37300
C 	C 	0.19040 0.59510 0.17700 0.37100
C 	C 	0.25160 0.61020 0.12170 -0.93600
H 	H 	0.29750 0.62180 0.14960 0.27800
H 	H 	0.27120 0.58850 0.08970 0.26700
H 	H 	0.22630 0.63040 0.08910 0.28800
C 	C 	0.37100 0.48810 0.07660 0.36400
C 	C 	0.30970 0.45660 0.08670 -0.07800
C 	C 	0.29670 0.41860 0.05420 -0.07100
C 	C 	0.33880 0.39490 0.99400 0.37400
C 	C 	0.20820 0.42680 0.14730 0.34400
C 	C 	0.13590 0.41840 0.20080 -0.93600
H 	H 	0.13490 0.43810 0.24190 0.30000
H 	H 	0.08490 0.41980 0.17170 0.29900
H 	H 	0.14180 0.39200 0.22290 0.30600
N 	N 	0.35390 0.51870 0.29480 -0.25600
C 	C 	0.33490 0.54780 0.35040 0.04100
H 	H 	0.28290 0.56010 0.35030 -0.01200
C 	C 	0.39380 0.55860 0.40610 -0.11900
H 	H 	0.38110 0.57800 0.44330 0.05700
C 	C 	0.47160 0.54020 0.40630 0.04300
C 	C 	0.49060 0.51110 0.35070 -0.11400
H 	H 	0.54270 0.49880 0.35080 0.05100
C 	C 	0.43170 0.50030 0.29500 0.06200
H 	H 	0.44440 0.48090 0.25780 -0.01600
N 	N 	0.65470 0.57620 0.57560 -0.13200
C 	C 	0.58010 0.59710 0.56840 0.03900
H 	H 	0.56960 0.61930 0.60020 0.01600
C 	C 	0.52120 0.58500 0.51370 -0.12500
H 	H 	0.47130 0.59900 0.50890 0.05800
C 	C 	0.53700 0.55190 0.46630 0.03700
C 	C 	0.61150 0.53090 0.47350 -0.11300
H 	H 	0.62210 0.50880 0.44170 0.05000
C 	C 	0.67040 0.54310 0.52810 0.03400
H 	H 	0.72030 0.52910 0.53290 0.00200
H 	H 	0.73300 0.73850 0.08570 0.26500
H 	H 	0.82510 0.73430 0.05640 0.27600
H 	H 	0.78610 0.77720 0.06880 0.26300
Tb	Tb	0.88974 0.25000 0.14667 2.00500
C 	C 	0.75500 0.25000 0.46930 0.50200
C 	C 	0.72500 0.25000 0.55260 -1.66800
Tb	Tb	0.61026 0.75000 0.64667 2.00000
C 	C 	0.74500 0.75000 0.96930 0.49700
C 	C 	0.77500 0.75000 0.05260 -1.65700
Tb	Tb	0.11026 0.75000 0.85333 2.00500
C 	C 	0.24500 0.75000 0.53070 0.50200
C 	C 	0.27500 0.75000 0.44740 -1.66800
Tb	Tb	0.38974 0.25000 0.35333 2.00000
C 	C 	0.25500 0.25000 0.03070 0.49700
C 	C 	0.22500 0.25000 0.94740 -1.65700
