data_crystal

_cell_length_a 19.37700
_cell_length_b 19.37700
_cell_length_c 19.81000
_cell_angle_alpha 90.00000
_cell_angle_beta  90.00000
_cell_angle_gamma 120.00000

_symmetry_space_group_name_	'P 1'
_symmetry_space_group_name_H-M	'P 1'

loop_
_symmetry_equiv_pos_as_xyz
  x,y,z

loop_
_atom_site_label
_atom_site_type_symbol
_atom_site_fract_x
_atom_site_fract_y
_atom_site_fract_z
_atom_site_charge
Cd	Cd	0.31704 0.77862 0.58215 1.21200
O 	O 	0.54586 0.80854 0.51133 -0.33800
O 	O 	0.41979 0.76686 0.53327 -0.53600
O 	O 	0.58311 0.14375 0.33767 -0.53900
O 	O 	0.47008 0.06300 0.28659 -0.34300
N 	N 	0.36110 0.87040 0.49305 -0.20900
N 	N 	0.37650 0.97710 0.41589 -0.11600
S 	S 	0.31385 0.91515 0.46851 0.11600
C 	C 	0.48600 0.81600 0.50490 0.35400
C 	C 	0.49100 0.88150 0.46246 -0.12500
C 	C 	0.55730 0.92480 0.42310 0.01300
H 	H 	0.59770 0.91230 0.42450 0.05400
C 	C 	0.56700 0.98810 0.38010 -0.03200
H 	H 	0.61330 0.01550 0.35460 0.06800
C 	C 	0.51000 0.00920 0.37560 -0.10000
C 	C 	0.43950 0.96530 0.41446 0.07300
C 	C 	0.43030 0.90280 0.45853 0.07900
C 	C 	0.52110 0.07590 0.33045 0.36500
Cd	Cd	0.98371 0.11195 0.91548 1.20900
O 	O 	0.21253 0.14187 0.84466 -0.33700
O 	O 	0.08646 0.10019 0.86660 -0.53600
O 	O 	0.24978 0.47708 0.67100 -0.54000
O 	O 	0.13675 0.39633 0.61992 -0.34400
N 	N 	0.02777 0.20373 0.82638 -0.20500
N 	N 	0.04317 0.31043 0.74922 -0.11300
S 	S 	0.98052 0.24848 0.80184 0.10800
C 	C 	0.15267 0.14933 0.83823 0.35300
C 	C 	0.15767 0.21483 0.79579 -0.12200
C 	C 	0.22397 0.25813 0.75643 0.00700
H 	H 	0.26437 0.24563 0.75783 0.05700
C 	C 	0.23367 0.32143 0.71343 -0.02000
H 	H 	0.27997 0.34883 0.68793 0.06300
C 	C 	0.17667 0.34253 0.70893 -0.10800
C 	C 	0.10617 0.29863 0.74779 0.07800
C 	C 	0.09697 0.23613 0.79186 0.07700
C 	C 	0.18777 0.40923 0.66378 0.36700
Cd	Cd	0.65037 0.44529 0.24882 1.21300
O 	O 	0.87919 0.47521 0.17800 -0.33600
O 	O 	0.75312 0.43353 0.19994 -0.53500
O 	O 	0.91644 0.81042 0.00434 -0.53800
O 	O 	0.80341 0.72967 0.95326 -0.34400
N 	N 	0.69443 0.53707 0.15972 -0.20800
N 	N 	0.70983 0.64377 0.08256 -0.11600
S 	S 	0.64718 0.58182 0.13518 0.11600
C 	C 	0.81933 0.48267 0.17157 0.35300
C 	C 	0.82433 0.54817 0.12913 -0.12200
C 	C 	0.89063 0.59147 0.08977 0.00900
H 	H 	0.93103 0.57897 0.09117 0.05700
C 	C 	0.90033 0.65477 0.04677 -0.02200
H 	H 	0.94663 0.68217 0.02127 0.06400
C 	C 	0.84333 0.67587 0.04227 -0.10500
C 	C 	0.77283 0.63197 0.08113 0.07600
C 	C 	0.76363 0.56947 0.12520 0.07700
C 	C 	0.85443 0.74257 0.99712 0.36200
Cd	Cd	0.22138 0.53842 0.58215 1.21300
O 	O 	0.19146 0.73732 0.51133 -0.33700
O 	O 	0.23314 0.65293 0.53327 -0.53600
O 	O 	0.85625 0.43936 0.33767 -0.53900
O 	O 	0.93700 0.40708 0.28659 -0.34300
N 	N 	0.12960 0.49070 0.49305 -0.20900
N 	N 	0.02290 0.39940 0.41589 -0.11600
S 	S 	0.08485 0.39870 0.46851 0.11600
C 	C 	0.18400 0.67000 0.50490 0.35400
C 	C 	0.11850 0.60950 0.46246 -0.12500
C 	C 	0.07520 0.63250 0.42310 0.01300
H 	H 	0.08770 0.68540 0.42450 0.05400
C 	C 	0.01190 0.57890 0.38010 -0.03100
H 	H 	0.98450 0.59780 0.35460 0.06800
C 	C 	0.99080 0.50080 0.37560 -0.10000
C 	C 	0.03470 0.47420 0.41446 0.07300
C 	C 	0.09720 0.52750 0.45853 0.07900
C 	C 	0.92410 0.44520 0.33045 0.36500
Cd	Cd	0.88805 0.87175 0.91548 1.21200
O 	O 	0.85813 0.07065 0.84466 -0.33700
O 	O 	0.89981 0.98626 0.86660 -0.53100
O 	O 	0.52292 0.77269 0.67100 -0.54000
O 	O 	0.60367 0.74041 0.61992 -0.34400
N 	N 	0.79627 0.82403 0.82638 -0.20800
N 	N 	0.68957 0.73273 0.74922 -0.11600
S 	S 	0.75152 0.73203 0.80184 0.11600
C 	C 	0.85067 0.00333 0.83823 0.34300
C 	C 	0.78517 0.94283 0.79579 -0.11800
C 	C 	0.74187 0.96583 0.75643 0.01300
H 	H 	0.75437 0.01873 0.75783 0.05200
C 	C 	0.67857 0.91223 0.71343 -0.02300
H 	H 	0.65117 0.93113 0.68793 0.06400
C 	C 	0.65747 0.83413 0.70893 -0.10700
C 	C 	0.70137 0.80753 0.74779 0.07700
C 	C 	0.76387 0.86083 0.79186 0.07600
C 	C 	0.59077 0.77853 0.66378 0.36700
Cd	Cd	0.55471 0.20509 0.24882 1.21300
O 	O 	0.52479 0.40399 0.17800 -0.33600
O 	O 	0.56647 0.31960 0.19994 -0.53500
O 	O 	0.18958 0.10603 0.00434 -0.53900
O 	O 	0.27033 0.07375 0.95326 -0.34600
N 	N 	0.46293 0.15737 0.15972 -0.20800
N 	N 	0.35623 0.06607 0.08256 -0.11500
S 	S 	0.41818 0.06537 0.13518 0.11800
C 	C 	0.51733 0.33667 0.17157 0.35300
C 	C 	0.45183 0.27617 0.12913 -0.12300
C 	C 	0.40853 0.29917 0.08977 0.00800
H 	H 	0.42103 0.35207 0.09117 0.05600
C 	C 	0.34523 0.24557 0.04677 -0.02200
H 	H 	0.31783 0.26447 0.02127 0.06300
C 	C 	0.32413 0.16747 0.04227 -0.10500
C 	C 	0.36803 0.14087 0.08113 0.07700
C 	C 	0.43053 0.19417 0.12520 0.07700
C 	C 	0.25743 0.11187 0.99712 0.36300
Cd	Cd	0.46158 0.68296 0.58215 1.21300
O 	O 	0.26268 0.45414 0.51133 -0.33600
O 	O 	0.34707 0.58021 0.53327 -0.53500
O 	O 	0.56064 0.41689 0.33767 -0.54000
O 	O 	0.59292 0.52992 0.28659 -0.34400
N 	N 	0.50930 0.63890 0.49305 -0.20800
N 	N 	0.60060 0.62350 0.41589 -0.11600
S 	S 	0.60130 0.68615 0.46851 0.11600
C 	C 	0.33000 0.51400 0.50490 0.35300
C 	C 	0.39050 0.50900 0.46246 -0.12200
C 	C 	0.36750 0.44270 0.42310 0.00700
H 	H 	0.31460 0.40230 0.42450 0.05700
C 	C 	0.42110 0.43300 0.38010 -0.02000
H 	H 	0.40220 0.38670 0.35460 0.06300
C 	C 	0.49920 0.49000 0.37560 -0.10800
C 	C 	0.52580 0.56050 0.41446 0.07700
C 	C 	0.47250 0.56970 0.45853 0.07600
C 	C 	0.55480 0.47890 0.33045 0.36700
Cd	Cd	0.12825 0.01629 0.91548 1.21100
O 	O 	0.92935 0.78747 0.84466 -0.33500
O 	O 	0.01374 0.91354 0.86660 -0.52700
O 	O 	0.22731 0.75022 0.67100 -0.54000
O 	O 	0.25959 0.86325 0.61992 -0.34400
N 	N 	0.17597 0.97223 0.82638 -0.20500
N 	N 	0.26727 0.95683 0.74922 -0.11300
S 	S 	0.26797 0.01948 0.80184 0.10900
C 	C 	0.99667 0.84733 0.83823 0.34200
C 	C 	0.05717 0.84233 0.79579 -0.11700
C 	C 	0.03417 0.77603 0.75643 0.01300
H 	H 	0.98127 0.73563 0.75783 0.05200
C 	C 	0.08777 0.76633 0.71343 -0.02300
H 	H 	0.06887 0.72003 0.68793 0.06400
C 	C 	0.16587 0.82333 0.70893 -0.10700
C 	C 	0.19247 0.89383 0.74779 0.07800
C 	C 	0.13917 0.90303 0.79186 0.07600
C 	C 	0.22147 0.81223 0.66378 0.36700
Cd	Cd	0.79491 0.34963 0.24882 1.21300
O 	O 	0.59601 0.12081 0.17800 -0.33600
O 	O 	0.68040 0.24688 0.19994 -0.53500
O 	O 	0.89397 0.08356 0.00434 -0.52300
O 	O 	0.92625 0.19659 0.95326 -0.34200
N 	N 	0.84263 0.30557 0.15972 -0.20900
N 	N 	0.93393 0.29017 0.08256 -0.11300
S 	S 	0.93463 0.35282 0.13518 0.11900
C 	C 	0.66333 0.18067 0.17157 0.35400
C 	C 	0.72383 0.17567 0.12913 -0.12600
C 	C 	0.70083 0.10937 0.08977 0.01500
H 	H 	0.64793 0.06897 0.09117 0.05500
C 	C 	0.75443 0.09967 0.04677 -0.03200
H 	H 	0.73553 0.05337 0.02127 0.07000
C 	C 	0.83253 0.15667 0.04227 -0.08800
C 	C 	0.85913 0.22717 0.08113 0.07200
C 	C 	0.80583 0.23637 0.12520 0.08000
C 	C 	0.88813 0.14557 0.99712 0.33900
Cd	Cd	0.68296 0.22138 0.41785 1.21300
O 	O 	0.45414 0.19146 0.48867 -0.33700
O 	O 	0.58021 0.23314 0.46673 -0.53600
O 	O 	0.41689 0.85625 0.66233 -0.53900
O 	O 	0.52992 0.93700 0.71341 -0.34300
N 	N 	0.63890 0.12960 0.50695 -0.20900
N 	N 	0.62350 0.02290 0.58411 -0.11600
S 	S 	0.68615 0.08485 0.53149 0.11600
C 	C 	0.51400 0.18400 0.49510 0.35400
C 	C 	0.50900 0.11850 0.53754 -0.12500
C 	C 	0.44270 0.07520 0.57690 0.01300
H 	H 	0.40230 0.08770 0.57550 0.05400
C 	C 	0.43300 0.01190 0.61990 -0.03200
H 	H 	0.38670 0.98450 0.64540 0.06800
C 	C 	0.49000 0.99080 0.62440 -0.10000
C 	C 	0.56050 0.03470 0.58554 0.07300
C 	C 	0.56970 0.09720 0.54147 0.07900
C 	C 	0.47890 0.92410 0.66955 0.36500
Cd	Cd	0.34963 0.55471 0.75118 1.21300
O 	O 	0.12081 0.52479 0.82200 -0.33600
O 	O 	0.24688 0.56647 0.80006 -0.53500
O 	O 	0.08356 0.18958 0.99566 -0.53800
O 	O 	0.19659 0.27033 0.04674 -0.34400
N 	N 	0.30557 0.46293 0.84028 -0.20800
N 	N 	0.29017 0.35623 0.91744 -0.11600
S 	S 	0.35282 0.41818 0.86482 0.11600
C 	C 	0.18067 0.51733 0.82843 0.35300
C 	C 	0.17567 0.45183 0.87087 -0.12200
C 	C 	0.10937 0.40853 0.91023 0.00900
H 	H 	0.06897 0.42103 0.90883 0.05700
C 	C 	0.09967 0.34523 0.95323 -0.02200
H 	H 	0.05337 0.31783 0.97873 0.06400
C 	C 	0.15667 0.32413 0.95773 -0.10500
C 	C 	0.22717 0.36803 0.91887 0.07600
C 	C 	0.23637 0.43053 0.87480 0.07700
C 	C 	0.14557 0.25743 0.00288 0.36200
Cd	Cd	0.01629 0.88805 0.08452 1.20900
O 	O 	0.78747 0.85813 0.15534 -0.33700
O 	O 	0.91354 0.89981 0.13340 -0.53600
O 	O 	0.75022 0.52292 0.32900 -0.54000
O 	O 	0.86325 0.60367 0.38008 -0.34400
N 	N 	0.97223 0.79627 0.17362 -0.20500
N 	N 	0.95683 0.68957 0.25078 -0.11300
S 	S 	0.01948 0.75152 0.19816 0.10800
C 	C 	0.84733 0.85067 0.16177 0.35300
C 	C 	0.84233 0.78517 0.20421 -0.12200
C 	C 	0.77603 0.74187 0.24357 0.00700
H 	H 	0.73563 0.75437 0.24217 0.05700
C 	C 	0.76633 0.67857 0.28657 -0.02000
H 	H 	0.72003 0.65117 0.31207 0.06300
C 	C 	0.82333 0.65747 0.29107 -0.10800
C 	C 	0.89383 0.70137 0.25221 0.07800
C 	C 	0.90303 0.76387 0.20814 0.07700
C 	C 	0.81223 0.59077 0.33622 0.36700
Cd	Cd	0.77862 0.46158 0.41785 1.21300
O 	O 	0.80854 0.26268 0.48867 -0.33700
O 	O 	0.76686 0.34707 0.46673 -0.53600
O 	O 	0.14375 0.56064 0.66233 -0.53900
O 	O 	0.06300 0.59292 0.71341 -0.34300
N 	N 	0.87040 0.50930 0.50695 -0.20900
N 	N 	0.97710 0.60060 0.58411 -0.11600
S 	S 	0.91515 0.60130 0.53149 0.11600
C 	C 	0.81600 0.33000 0.49510 0.35400
C 	C 	0.88150 0.39050 0.53754 -0.12500
C 	C 	0.92480 0.36750 0.57690 0.01300
H 	H 	0.91230 0.31460 0.57550 0.05400
C 	C 	0.98810 0.42110 0.61990 -0.03100
H 	H 	0.01550 0.40220 0.64540 0.06800
C 	C 	0.00920 0.49920 0.62440 -0.10000
C 	C 	0.96530 0.52580 0.58554 0.07300
C 	C 	0.90280 0.47250 0.54147 0.07900
C 	C 	0.07590 0.55480 0.66955 0.36500
Cd	Cd	0.44529 0.79491 0.75118 1.21300
O 	O 	0.47521 0.59601 0.82200 -0.33600
O 	O 	0.43353 0.68040 0.80006 -0.53500
O 	O 	0.81042 0.89397 0.99566 -0.53900
O 	O 	0.72967 0.92625 0.04674 -0.34600
N 	N 	0.53707 0.84263 0.84028 -0.20800
N 	N 	0.64377 0.93393 0.91744 -0.11500
S 	S 	0.58182 0.93463 0.86482 0.11800
C 	C 	0.48267 0.66333 0.82843 0.35300
C 	C 	0.54817 0.72383 0.87087 -0.12300
C 	C 	0.59147 0.70083 0.91023 0.00800
H 	H 	0.57897 0.64793 0.90883 0.05600
C 	C 	0.65477 0.75443 0.95323 -0.02200
H 	H 	0.68217 0.73553 0.97873 0.06300
C 	C 	0.67587 0.83253 0.95773 -0.10500
C 	C 	0.63197 0.85913 0.91887 0.07700
C 	C 	0.56947 0.80583 0.87480 0.07700
C 	C 	0.74257 0.88813 0.00288 0.36300
Cd	Cd	0.11195 0.12825 0.08452 1.21200
O 	O 	0.14187 0.92935 0.15534 -0.33700
O 	O 	0.10019 0.01374 0.13340 -0.53100
O 	O 	0.47708 0.22731 0.32900 -0.54000
O 	O 	0.39633 0.25959 0.38008 -0.34400
N 	N 	0.20373 0.17597 0.17362 -0.20800
N 	N 	0.31043 0.26727 0.25078 -0.11600
S 	S 	0.24848 0.26797 0.19816 0.11600
C 	C 	0.14933 0.99667 0.16177 0.34300
C 	C 	0.21483 0.05717 0.20421 -0.11800
C 	C 	0.25813 0.03417 0.24357 0.01300
H 	H 	0.24563 0.98127 0.24217 0.05200
C 	C 	0.32143 0.08777 0.28657 -0.02300
H 	H 	0.34883 0.06887 0.31207 0.06400
C 	C 	0.34253 0.16587 0.29107 -0.10700
C 	C 	0.29863 0.19247 0.25221 0.07700
C 	C 	0.23613 0.13917 0.20814 0.07600
C 	C 	0.40923 0.22147 0.33622 0.36700
Cd	Cd	0.53842 0.31704 0.41785 1.21300
O 	O 	0.73732 0.54586 0.48867 -0.33600
O 	O 	0.65293 0.41979 0.46673 -0.53500
O 	O 	0.43936 0.58311 0.66233 -0.54000
O 	O 	0.40708 0.47008 0.71341 -0.34400
N 	N 	0.49070 0.36110 0.50695 -0.20800
N 	N 	0.39940 0.37650 0.58411 -0.11600
S 	S 	0.39870 0.31385 0.53149 0.11600
C 	C 	0.67000 0.48600 0.49510 0.35300
C 	C 	0.60950 0.49100 0.53754 -0.12200
C 	C 	0.63250 0.55730 0.57690 0.00700
H 	H 	0.68540 0.59770 0.57550 0.05700
C 	C 	0.57890 0.56700 0.61990 -0.02000
H 	H 	0.59780 0.61330 0.64540 0.06300
C 	C 	0.50080 0.51000 0.62440 -0.10800
C 	C 	0.47420 0.43950 0.58554 0.07700
C 	C 	0.52750 0.43030 0.54147 0.07600
C 	C 	0.44520 0.52110 0.66955 0.36700
Cd	Cd	0.20509 0.65037 0.75118 1.21300
O 	O 	0.40399 0.87919 0.82200 -0.33600
O 	O 	0.31960 0.75312 0.80006 -0.53500
O 	O 	0.10603 0.91644 0.99566 -0.52300
O 	O 	0.07375 0.80341 0.04674 -0.34200
N 	N 	0.15737 0.69443 0.84028 -0.20900
N 	N 	0.06607 0.70983 0.91744 -0.11300
S 	S 	0.06537 0.64718 0.86482 0.11900
C 	C 	0.33667 0.81933 0.82843 0.35400
C 	C 	0.27617 0.82433 0.87087 -0.12600
C 	C 	0.29917 0.89063 0.91023 0.01500
H 	H 	0.35207 0.93103 0.90883 0.05500
C 	C 	0.24557 0.90033 0.95323 -0.03200
H 	H 	0.26447 0.94663 0.97873 0.07000
C 	C 	0.16747 0.84333 0.95773 -0.08800
C 	C 	0.14087 0.77283 0.91887 0.07200
C 	C 	0.19417 0.76363 0.87480 0.08000
C 	C 	0.11187 0.85443 0.00288 0.33900
Cd	Cd	0.87175 0.98371 0.08452 1.21100
O 	O 	0.07065 0.21253 0.15534 -0.33500
O 	O 	0.98626 0.08646 0.13340 -0.52700
O 	O 	0.77269 0.24978 0.32900 -0.54000
O 	O 	0.74041 0.13675 0.38008 -0.34400
N 	N 	0.82403 0.02777 0.17362 -0.20500
N 	N 	0.73273 0.04317 0.25078 -0.11300
S 	S 	0.73203 0.98052 0.19816 0.10900
C 	C 	0.00333 0.15267 0.16177 0.34200
C 	C 	0.94283 0.15767 0.20421 -0.11700
C 	C 	0.96583 0.22397 0.24357 0.01300
H 	H 	0.01873 0.26437 0.24217 0.05200
C 	C 	0.91223 0.23367 0.28657 -0.02300
H 	H 	0.93113 0.27997 0.31207 0.06400
C 	C 	0.83413 0.17667 0.29107 -0.10700
C 	C 	0.80753 0.10617 0.25221 0.07800
C 	C 	0.86083 0.09697 0.20814 0.07600
C 	C 	0.77853 0.18777 0.33622 0.36700
