data_crystal

_cell_length_a 19.65000
_cell_length_b 37.98000
_cell_length_c 28.82000
_cell_angle_alpha 90.00000
_cell_angle_beta  94.57000
_cell_angle_gamma 90.00000

_symmetry_space_group_name_	'P 1'
_symmetry_space_group_name_H-M	'P 1'

loop_
_symmetry_equiv_pos_as_xyz
  x,y,z

loop_
_atom_site_label
_atom_site_type_symbol
_atom_site_fract_x
_atom_site_fract_y
_atom_site_fract_z
_atom_site_charge
Zn	Zn	0.65820 0.79120 0.47650 1.21200
Zn	Zn	0.75580 0.78270 0.56830 1.22400
Zn	Zn	0.80530 0.82640 0.48210 1.22300
Zn	Zn	0.78820 0.75640 0.97630 1.24400
Cu	Cu	0.12920 0.54860 0.72250 0.84900
Cu	Cu	0.47860 0.91700 0.67380 0.86800
Cu	Cu	0.17000 0.73080 0.67860 0.85700
C 	C 	0.30550 0.75800 0.83470 0.01500
C 	C 	0.22940 0.74450 0.76840 0.03400
C 	C 	0.23910 0.74820 0.81640 -0.01800
C 	C 	0.18490 0.74280 0.84380 0.02700
C 	C 	0.12090 0.73390 0.82310 -0.03400
C 	C 	0.11120 0.73030 0.77500 0.07500
N 	N 	0.16540 0.73560 0.74760 -0.22100
C 	C 	0.33740 0.76860 0.76890 -0.00100
C 	C 	0.28120 0.75460 0.74240 0.00800
C 	C 	0.33660 0.76850 0.81950 -0.00800
N 	N 	0.07760 0.50790 0.74820 -0.21600
N 	N 	0.03200 0.56220 0.70290 -0.22000
C 	C 	0.88400 0.58150 0.69900 0.01200
C 	C 	0.94700 0.60050 0.66990 -0.02800
C 	C 	0.01560 0.58880 0.67840 0.07600
C 	C 	0.09450 0.48090 0.77980 0.04300
C 	C 	0.05880 0.46180 0.80930 -0.02300
C 	C 	0.06770 0.61130 0.65520 -0.06600
C 	C 	0.98580 0.47500 0.82080 0.01400
C 	C 	0.97840 0.53800 0.72340 0.01100
C 	C 	0.91770 0.55430 0.72850 -0.00100
C 	C 	0.87640 0.53520 0.76510 -0.00400
C 	C 	0.00580 0.51070 0.74900 0.04200
C 	C 	0.97000 0.49530 0.78340 -0.01800
C 	C 	0.89380 0.51130 0.77860 0.01000
C 	C 	0.43870 0.99860 0.66260 0.08500
C 	C 	0.42820 0.02770 0.68720 -0.05100
C 	C 	0.43550 0.02790 0.73120 0.03100
C 	C 	0.46510 0.00730 0.81240 0.00600
C 	C 	0.46250 0.97110 0.73150 0.03500
C 	C 	0.49200 0.97470 0.83890 0.00100
C 	C 	0.95780 0.71910 0.90940 -0.14200
C 	C 	0.97850 0.75250 0.89650 0.06000
C 	C 	0.66990 0.76700 0.91360 0.25900
C 	C 	0.03740 0.75520 0.86730 -0.01300
C 	C 	0.07180 0.72560 0.85310 0.02900
C 	C 	0.05120 0.69220 0.86600 -0.02800
C 	C 	0.99610 0.68840 0.89300 0.05700
C 	C 	0.60370 0.78700 0.56740 0.51100
C 	C 	0.16780 0.34200 0.92200 0.59800
C 	C 	0.82860 0.71650 0.56580 0.46800
C 	C 	0.89700 0.71630 0.93490 0.42900
C 	C 	0.32900 0.14420 0.57660 0.39200
C 	C 	0.35020 0.11230 0.60130 -0.14800
C 	C 	0.41280 0.11600 0.62690 0.05500
C 	C 	0.43850 0.08860 0.65510 -0.02900
C 	C 	0.40170 0.05750 0.65760 0.03400
C 	C 	0.33910 0.05380 0.63200 -0.03200
C 	C 	0.31340 0.08120 0.60390 0.06500
C 	C 	0.13750 0.37360 0.89100 -0.15700
C 	C 	0.12430 0.36920 0.84320 0.07200
C 	C 	0.10360 0.39780 0.81540 -0.02500
C 	C 	0.09600 0.43070 0.83530 0.02500
C 	C 	0.10920 0.43510 0.88310 -0.03200
C 	C 	0.13000 0.40660 0.91090 0.07100
C 	C 	0.86310 0.68840 0.59810 -0.14600
C 	C 	0.86440 0.68730 0.64630 0.06900
C 	C 	0.88580 0.65690 0.67010 -0.03400
C 	C 	0.90580 0.62770 0.64560 0.02900
C 	C 	0.90440 0.62880 0.59740 -0.01700
C 	C 	0.88310 0.65920 0.57360 0.05800
C 	C 	0.27270 0.55460 0.70090 -0.04400
C 	C 	0.27420 0.56170 0.75030 0.20600
C 	C 	0.21080 0.56720 0.81500 0.00700
C 	C 	0.27100 0.57010 0.84380 -0.01300
C 	C 	0.33280 0.57120 0.82490 0.03200
C 	C 	0.33530 0.56670 0.77640 -0.09200
C 	C 	0.39850 0.56820 0.75410 0.02900
C 	C 	0.39760 0.56420 0.70790 -0.02000
C 	C 	0.33600 0.55710 0.67920 0.01500
C 	C 	0.33040 0.55280 0.63050 0.01000
C 	C 	0.26870 0.54570 0.60720 -0.02900
C 	C 	0.21000 0.54290 0.63150 0.10400
C 	C 	0.52670 0.89070 0.58920 0.04900
C 	C 	0.45290 0.89340 0.58480 -0.00600
C 	C 	0.35480 0.90640 0.62200 0.05400
C 	C 	0.41620 0.88420 0.54390 0.00200
C 	C 	0.31440 0.89530 0.58270 -0.01700
C 	C 	0.34420 0.88550 0.54320 0.00800
C 	C 	0.45070 0.87480 0.50330 -0.00600
C 	C 	0.51900 0.87440 0.50590 0.01400
C 	C 	0.66530 0.88980 0.59610 -0.02600
C 	C 	0.62810 0.89710 0.63440 0.06000
C 	C 	0.63210 0.88260 0.55370 0.00100
C 	C 	0.56020 0.88210 0.54810 -0.01600
C 	C 	0.54760 0.78260 0.59680 -0.19400
C 	C 	0.48500 0.79660 0.58000 0.07900
C 	C 	0.42960 0.79500 0.60710 -0.03700
C 	C 	0.43680 0.77950 0.65090 0.03300
C 	C 	0.49930 0.76560 0.66760 -0.03700
C 	C 	0.55480 0.76710 0.64060 0.07600
C 	C 	0.62850 0.80550 0.89810 -0.04000
C 	C 	0.55910 0.80230 0.88520 0.02900
C 	C 	0.52560 0.82820 0.85790 -0.01300
C 	C 	0.56140 0.85720 0.84370 0.01400
C 	C 	0.63080 0.86040 0.85650 -0.00500
C 	C 	0.66440 0.83450 0.88380 0.02400
C 	C 	0.52210 0.85060 0.73800 -0.04500
C 	C 	0.51930 0.87730 0.77360 0.04300
C 	C 	0.53210 0.88390 0.82090 -0.02100
C 	C 	0.52330 0.91760 0.83810 0.01400
C 	C 	0.50160 0.94470 0.80800 -0.01400
C 	C 	0.48950 0.93810 0.76160 0.02200
C 	C 	0.31210 0.75750 0.66350 0.09300
C 	C 	0.38050 0.76630 0.68070 -0.04000
C 	C 	0.40230 0.76820 0.72710 0.01400
C 	C 	0.05350 0.71450 0.75170 -0.06100
C 	C 	0.29380 0.75250 0.61620 -0.06500
C 	C 	0.04940 0.77570 0.64250 0.06800
C 	C 	0.99130 0.78500 0.60480 -0.02400
C 	C 	0.97890 0.76510 0.57260 0.00500
C 	C 	0.01770 0.73630 0.56470 -0.02900
C 	C 	0.06900 0.72850 0.59920 0.06300
C 	C 	0.11000 0.69910 0.59490 -0.01000
C 	C 	0.09980 0.67740 0.55610 0.00500
C 	C 	0.04850 0.68520 0.52160 -0.00100
C 	C 	0.00750 0.71470 0.52590 0.01100
C 	C 	0.15180 0.64680 0.55460 0.01500
C 	C 	0.19940 0.64320 0.58700 -0.01900
C 	C 	0.20790 0.66520 0.63340 0.07800
C 	C 	0.45790 0.00230 0.76040 -0.02400
N 	N 	0.21470 0.54920 0.67080 -0.19700
N 	N 	0.22930 0.56430 0.76160 -0.26500
N 	N 	0.55920 0.90340 0.62440 -0.19700
N 	N 	0.46510 0.97120 0.68800 -0.21300
N 	N 	0.50480 0.91000 0.73530 -0.23500
N 	N 	0.41620 0.89540 0.62560 -0.22100
N 	N 	0.26600 0.75070 0.69100 -0.22200
N 	N 	0.08650 0.74870 0.63330 -0.22300
N 	N 	0.16450 0.68720 0.62860 -0.20400
O 	O 	0.59850 0.79590 0.53000 -0.55100
O 	O 	0.36140 0.16280 0.55660 -0.50100
O 	O 	0.62000 0.74740 0.93520 -0.40900
O 	O 	0.80490 0.74020 0.59030 -0.50000
O 	O 	0.88150 0.68580 0.94780 -0.50700
O 	O 	0.16400 0.34780 0.96000 -0.62700
O 	O 	0.72170 0.77490 0.94210 -0.52800
O 	O 	0.81530 0.71660 0.52390 -0.57800
O 	O 	0.19250 0.31910 0.90110 -0.58200
O 	O 	0.25670 0.14480 0.55600 -0.46100
O 	O 	0.66600 0.78630 0.58830 -0.51600
O 	O 	0.87560 0.74350 0.95150 -0.51100
O 	O 	0.75040 0.78600 0.49960 -0.94400
C 	C 	0.42860 0.98760 0.61390 -0.05600
C 	C 	0.23100 0.92000 0.65400 0.00900
C 	C 	0.30100 0.91000 0.65300 -0.01200
C 	C 	0.34500 0.91700 0.69300 -0.07400
C 	C 	0.31800 0.92500 0.73500 0.00400
C 	C 	0.24900 0.93100 0.73700 0.07500
C 	C 	0.20500 0.92700 0.69600 -0.01600
C 	C 	0.14300 0.57700 0.83800 -0.00800
C 	C 	0.13000 0.55700 0.87700 -0.00400
C 	C 	0.06000 0.55200 0.88800 0.00000
C 	C 	0.00900 0.56500 0.85900 -0.00500
C 	C 	0.02200 0.58400 0.82000 0.00400
C 	C 	0.08900 0.59000 0.80900 -0.05500
C 	C 	0.01200 0.52200 0.56600 0.11200
C 	C 	0.03600 0.50400 0.60600 -0.02200
C 	C 	0.10200 0.51100 0.62500 -0.01600
C 	C 	0.14300 0.53400 0.60500 -0.05300
C 	C 	0.11900 0.55200 0.56500 0.02300
C 	C 	0.05300 0.54600 0.54500 -0.00500
C 	C 	0.68000 0.92400 0.77200 0.08000
C 	C 	0.72200 0.89800 0.75200 -0.00100
C 	C 	0.71100 0.89100 0.70500 0.00900
C 	C 	0.66200 0.91000 0.67800 -0.02600
C 	C 	0.62400 0.93600 0.69800 -0.03100
C 	C 	0.64000 0.94300 0.74500 -0.03200
C 	C 	0.06200 0.79700 0.68500 -0.05200
C 	C 	0.12900 0.80800 0.69600 -0.01900
C 	C 	0.14700 0.82500 0.73700 -0.03700
C 	C 	0.09800 0.83200 0.76800 0.14500
C 	C 	0.03000 0.82200 0.75700 -0.02500
C 	C 	0.01200 0.80400 0.71600 0.02100
C 	C 	0.25600 0.65800 0.67000 -0.05400
C 	C 	0.23200 0.66000 0.71400 -0.04400
C 	C 	0.27700 0.66000 0.75400 -0.00100
C 	C 	0.34600 0.65800 0.75000 -0.00200
C 	C 	0.37100 0.65500 0.70600 -0.00600
C 	C 	0.32600 0.65600 0.66600 0.01000
O 	O 	0.72900 0.93100 0.81400 -0.18800
O 	O 	0.10000 0.83900 0.81100 -0.17800
C 	C 	0.25600 0.95100 0.87700 0.01000
C 	C 	0.28000 0.92400 0.83900 0.07600
O 	O 	0.95100 0.53100 0.54100 -0.15700
O 	O 	0.25000 0.93800 0.79200 -0.17000
C 	C 	0.68000 0.95300 0.83000 0.08100
Zn	Zn	0.34180 0.29120 0.02350 1.21100
Zn	Zn	0.24420 0.28270 0.93170 1.22300
Zn	Zn	0.19470 0.32640 0.01790 1.22200
Zn	Zn	0.21180 0.25640 0.52370 1.24300
Cu	Cu	0.87080 0.04860 0.77750 0.84800
Cu	Cu	0.52140 0.41700 0.82620 0.86700
Cu	Cu	0.83000 0.23080 0.82140 0.85600
C 	C 	0.69450 0.25800 0.66530 0.01400
C 	C 	0.77060 0.24450 0.73160 0.03300
C 	C 	0.76090 0.24820 0.68360 -0.01900
C 	C 	0.81510 0.24280 0.65620 0.02600
C 	C 	0.87910 0.23390 0.67690 -0.03500
C 	C 	0.88880 0.23030 0.72500 0.07400
N 	N 	0.83460 0.23560 0.75240 -0.22200
C 	C 	0.66260 0.26860 0.73110 -0.00200
C 	C 	0.71880 0.25460 0.75760 0.00700
C 	C 	0.66340 0.26850 0.68050 -0.00900
N 	N 	0.92240 0.00790 0.75180 -0.21700
N 	N 	0.96800 0.06220 0.79710 -0.22200
C 	C 	0.11600 0.08150 0.80100 0.01100
C 	C 	0.05300 0.10050 0.83010 -0.02700
C 	C 	0.98440 0.08880 0.82160 0.07600
C 	C 	0.90550 0.98090 0.72020 0.04300
C 	C 	0.94120 0.96180 0.69070 -0.02300
C 	C 	0.93230 0.11130 0.84480 -0.06600
C 	C 	0.01420 0.97500 0.67920 0.01400
C 	C 	0.02160 0.03800 0.77660 0.01200
C 	C 	0.08230 0.05430 0.77150 -0.00100
C 	C 	0.12360 0.03520 0.73490 -0.00400
C 	C 	0.99420 0.01070 0.75100 0.04000
C 	C 	0.03000 0.99530 0.71660 -0.01700
C 	C 	0.10620 0.01130 0.72140 0.01000
C 	C 	0.56130 0.49860 0.83740 0.08500
C 	C 	0.57180 0.52770 0.81280 -0.05100
C 	C 	0.56450 0.52790 0.76880 0.03100
C 	C 	0.53490 0.50730 0.68760 0.00600
C 	C 	0.53750 0.47110 0.76850 0.03500
C 	C 	0.50800 0.47470 0.66110 0.00100
C 	C 	0.04220 0.21910 0.59060 -0.14300
C 	C 	0.02150 0.25250 0.60350 0.06100
C 	C 	0.33010 0.26700 0.58640 0.25900
C 	C 	0.96260 0.25520 0.63270 -0.01400
C 	C 	0.92820 0.22560 0.64690 0.02900
C 	C 	0.94880 0.19220 0.63400 -0.02800
C 	C 	0.00390 0.18840 0.60700 0.05800
C 	C 	0.39630 0.28700 0.93260 0.51100
C 	C 	0.83220 0.84200 0.57800 0.59800
C 	C 	0.17140 0.21650 0.93420 0.46800
C 	C 	0.10300 0.21630 0.56510 0.42900
C 	C 	0.67100 0.64420 0.92340 0.39200
C 	C 	0.64980 0.61230 0.89870 -0.14800
C 	C 	0.58720 0.61600 0.87310 0.05500
C 	C 	0.56150 0.58860 0.84490 -0.02900
C 	C 	0.59830 0.55750 0.84240 0.03400
C 	C 	0.66090 0.55380 0.86800 -0.03200
C 	C 	0.68660 0.58120 0.89610 0.06500
C 	C 	0.86250 0.87360 0.60900 -0.15700
C 	C 	0.87570 0.86920 0.65680 0.07200
C 	C 	0.89640 0.89780 0.68460 -0.02500
C 	C 	0.90400 0.93070 0.66470 0.02500
C 	C 	0.89080 0.93510 0.61690 -0.03200
C 	C 	0.87000 0.90660 0.58910 0.07100
C 	C 	0.13690 0.18840 0.90190 -0.14600
C 	C 	0.13560 0.18730 0.85370 0.06900
C 	C 	0.11420 0.15690 0.82990 -0.03400
C 	C 	0.09420 0.12770 0.85440 0.02900
C 	C 	0.09560 0.12880 0.90260 -0.01700
C 	C 	0.11690 0.15920 0.92640 0.05900
C 	C 	0.72730 0.05460 0.79910 -0.04400
C 	C 	0.72580 0.06170 0.74970 0.20600
C 	C 	0.78920 0.06720 0.68500 0.00700
C 	C 	0.72900 0.07010 0.65620 -0.01400
C 	C 	0.66720 0.07120 0.67510 0.03200
C 	C 	0.66470 0.06670 0.72360 -0.09200
C 	C 	0.60150 0.06820 0.74590 0.02900
C 	C 	0.60240 0.06420 0.79210 -0.02000
C 	C 	0.66400 0.05710 0.82080 0.01500
C 	C 	0.66960 0.05280 0.86950 0.01000
C 	C 	0.73130 0.04570 0.89280 -0.02900
C 	C 	0.79000 0.04290 0.86850 0.10400
C 	C 	0.47330 0.39070 0.91080 0.04900
C 	C 	0.54710 0.39340 0.91520 -0.00600
C 	C 	0.64520 0.40640 0.87800 0.05400
C 	C 	0.58380 0.38420 0.95610 0.00200
C 	C 	0.68560 0.39530 0.91730 -0.01700
C 	C 	0.65580 0.38550 0.95680 0.00800
C 	C 	0.54930 0.37480 0.99670 -0.00600
C 	C 	0.48100 0.37440 0.99410 0.01400
C 	C 	0.33470 0.38980 0.90390 -0.02600
C 	C 	0.37190 0.39710 0.86560 0.06000
C 	C 	0.36790 0.38260 0.94630 0.00100
C 	C 	0.43980 0.38210 0.95190 -0.01600
C 	C 	0.45240 0.28260 0.90320 -0.19400
C 	C 	0.51500 0.29660 0.92000 0.07900
C 	C 	0.57040 0.29500 0.89290 -0.03700
C 	C 	0.56320 0.27950 0.84910 0.03300
C 	C 	0.50070 0.26560 0.83240 -0.03700
C 	C 	0.44520 0.26710 0.85940 0.07600
C 	C 	0.37150 0.30550 0.60190 -0.04000
C 	C 	0.44090 0.30230 0.61480 0.02900
C 	C 	0.47440 0.32820 0.64210 -0.01300
C 	C 	0.43860 0.35720 0.65630 0.01400
C 	C 	0.36920 0.36040 0.64350 -0.00500
C 	C 	0.33560 0.33450 0.61620 0.02400
C 	C 	0.47790 0.35060 0.76200 -0.04500
C 	C 	0.48070 0.37730 0.72640 0.04300
C 	C 	0.46790 0.38390 0.67910 -0.02100
C 	C 	0.47670 0.41760 0.66190 0.01400
C 	C 	0.49840 0.44470 0.69200 -0.01400
C 	C 	0.51050 0.43810 0.73840 0.02200
C 	C 	0.68790 0.25750 0.83650 0.09300
C 	C 	0.61950 0.26630 0.81930 -0.04000
C 	C 	0.59770 0.26820 0.77290 0.01400
C 	C 	0.94650 0.21450 0.74830 -0.06100
C 	C 	0.70620 0.25250 0.88380 -0.06500
C 	C 	0.95060 0.27570 0.85750 0.06700
C 	C 	0.00870 0.28500 0.89520 -0.02400
C 	C 	0.02110 0.26510 0.92740 0.00500
C 	C 	0.98230 0.23630 0.93530 -0.03000
C 	C 	0.93100 0.22850 0.90080 0.06300
C 	C 	0.89000 0.19910 0.90510 -0.01000
C 	C 	0.90020 0.17740 0.94390 0.00500
C 	C 	0.95150 0.18520 0.97840 -0.00100
C 	C 	0.99250 0.21470 0.97410 0.01100
C 	C 	0.84820 0.14680 0.94540 0.01500
C 	C 	0.80060 0.14320 0.91300 -0.01900
C 	C 	0.79210 0.16520 0.86660 0.07800
C 	C 	0.54210 0.50230 0.73960 -0.02400
N 	N 	0.78530 0.04920 0.82920 -0.19700
N 	N 	0.77070 0.06430 0.73840 -0.26500
N 	N 	0.44080 0.40340 0.87560 -0.19700
N 	N 	0.53490 0.47120 0.81200 -0.21300
N 	N 	0.49520 0.41000 0.76470 -0.23500
N 	N 	0.58380 0.39540 0.87440 -0.22100
N 	N 	0.73400 0.25070 0.80900 -0.22200
N 	N 	0.91350 0.24870 0.86670 -0.22300
N 	N 	0.83550 0.18720 0.87140 -0.20400
O 	O 	0.40150 0.29590 0.97000 -0.55100
O 	O 	0.63860 0.66280 0.94340 -0.50200
O 	O 	0.38000 0.24740 0.56480 -0.40900
O 	O 	0.19510 0.24020 0.90970 -0.50000
O 	O 	0.11850 0.18580 0.55220 -0.50700
O 	O 	0.83600 0.84780 0.54000 -0.62800
O 	O 	0.27830 0.27490 0.55790 -0.52800
O 	O 	0.18470 0.21660 0.97610 -0.57800
O 	O 	0.80750 0.81910 0.59890 -0.58300
O 	O 	0.74330 0.64480 0.94400 -0.46100
O 	O 	0.33400 0.28630 0.91170 -0.51600
O 	O 	0.12440 0.24350 0.54850 -0.51100
O 	O 	0.24960 0.28600 0.00040 -0.94400
C 	C 	0.57140 0.48760 0.88610 -0.05600
C 	C 	0.76900 0.42000 0.84600 0.00900
C 	C 	0.69900 0.41000 0.84700 -0.01200
C 	C 	0.65500 0.41700 0.80700 -0.07400
C 	C 	0.68200 0.42500 0.76500 0.00400
C 	C 	0.75100 0.43100 0.76300 0.07500
C 	C 	0.79500 0.42700 0.80400 -0.01600
C 	C 	0.85700 0.07700 0.66200 -0.00800
C 	C 	0.87000 0.05700 0.62300 -0.00400
C 	C 	0.94000 0.05200 0.61200 0.00000
C 	C 	0.99100 0.06500 0.64100 -0.00500
C 	C 	0.97800 0.08400 0.68000 0.00300
C 	C 	0.91100 0.09000 0.69100 -0.05500
C 	C 	0.98800 0.02200 0.93400 0.11100
C 	C 	0.96400 0.00400 0.89400 -0.02200
C 	C 	0.89800 0.01100 0.87500 -0.01600
C 	C 	0.85700 0.03400 0.89500 -0.05300
C 	C 	0.88100 0.05200 0.93500 0.02300
C 	C 	0.94700 0.04600 0.95500 -0.00500
C 	C 	0.32000 0.42400 0.72800 0.08000
C 	C 	0.27800 0.39800 0.74800 -0.00100
C 	C 	0.28900 0.39100 0.79500 0.00900
C 	C 	0.33800 0.41000 0.82200 -0.02600
C 	C 	0.37600 0.43600 0.80200 -0.03100
C 	C 	0.36000 0.44300 0.75500 -0.03200
C 	C 	0.93800 0.29700 0.81500 -0.05200
C 	C 	0.87100 0.30800 0.80400 -0.01900
C 	C 	0.85300 0.32500 0.76300 -0.03700
C 	C 	0.90200 0.33200 0.73200 0.14500
C 	C 	0.97000 0.32200 0.74300 -0.02500
C 	C 	0.98800 0.30400 0.78400 0.02100
C 	C 	0.74400 0.15800 0.83000 -0.05400
C 	C 	0.76800 0.16000 0.78600 -0.04400
C 	C 	0.72300 0.16000 0.74600 -0.00100
C 	C 	0.65400 0.15800 0.75000 -0.00200
C 	C 	0.62900 0.15500 0.79400 -0.00600
C 	C 	0.67400 0.15600 0.83400 0.01000
O 	O 	0.27100 0.43100 0.68600 -0.18800
O 	O 	0.90000 0.33900 0.68900 -0.17800
C 	C 	0.74400 0.45100 0.62300 0.01000
C 	C 	0.72000 0.42400 0.66100 0.07600
O 	O 	0.04900 0.03100 0.95900 -0.15600
O 	O 	0.75000 0.43800 0.70800 -0.17000
C 	C 	0.32000 0.45300 0.67000 0.08100
Zn	Zn	0.34180 0.20880 0.52350 1.21100
Zn	Zn	0.24420 0.21730 0.43170 1.22300
Zn	Zn	0.19470 0.17360 0.51790 1.22200
Zn	Zn	0.21180 0.24360 0.02370 1.24300
Cu	Cu	0.87080 0.45140 0.27750 0.84800
Cu	Cu	0.52140 0.08300 0.32620 0.86700
Cu	Cu	0.83000 0.26920 0.32140 0.85600
C 	C 	0.69450 0.24200 0.16530 0.01400
C 	C 	0.77060 0.25550 0.23160 0.03300
C 	C 	0.76090 0.25180 0.18360 -0.01900
C 	C 	0.81510 0.25720 0.15620 0.02600
C 	C 	0.87910 0.26610 0.17690 -0.03500
C 	C 	0.88880 0.26970 0.22500 0.07400
N 	N 	0.83460 0.26440 0.25240 -0.22200
C 	C 	0.66260 0.23140 0.23110 -0.00200
C 	C 	0.71880 0.24540 0.25760 0.00700
C 	C 	0.66340 0.23150 0.18050 -0.00900
N 	N 	0.92240 0.49210 0.25180 -0.21700
N 	N 	0.96800 0.43780 0.29710 -0.22100
C 	C 	0.11600 0.41850 0.30100 0.01100
C 	C 	0.05300 0.39950 0.33010 -0.02800
C 	C 	0.98440 0.41120 0.32160 0.07600
C 	C 	0.90550 0.51910 0.22020 0.04300
C 	C 	0.94120 0.53820 0.19070 -0.02300
C 	C 	0.93230 0.38870 0.34480 -0.06600
C 	C 	0.01420 0.52500 0.17920 0.01400
C 	C 	0.02160 0.46200 0.27660 0.01100
C 	C 	0.08230 0.44570 0.27150 -0.00100
C 	C 	0.12360 0.46480 0.23490 -0.00400
C 	C 	0.99420 0.48930 0.25100 0.04200
C 	C 	0.03000 0.50470 0.21660 -0.01800
C 	C 	0.10620 0.48870 0.22140 0.01000
C 	C 	0.56130 0.00140 0.33740 0.08500
C 	C 	0.57180 0.97230 0.31280 -0.05100
C 	C 	0.56450 0.97210 0.26880 0.03100
C 	C 	0.53490 0.99270 0.18760 0.00600
C 	C 	0.53750 0.02890 0.26850 0.03500
C 	C 	0.50800 0.02530 0.16110 0.00100
C 	C 	0.04220 0.28090 0.09060 -0.14200
C 	C 	0.02150 0.24750 0.10350 0.06000
C 	C 	0.33010 0.23300 0.08640 0.25900
C 	C 	0.96260 0.24480 0.13270 -0.01300
C 	C 	0.92820 0.27440 0.14690 0.02900
C 	C 	0.94880 0.30780 0.13400 -0.02800
C 	C 	0.00390 0.31160 0.10700 0.05700
C 	C 	0.39630 0.21300 0.43260 0.51100
C 	C 	0.83220 0.65800 0.07800 0.59800
C 	C 	0.17140 0.28350 0.43420 0.46800
C 	C 	0.10300 0.28370 0.06510 0.42900
C 	C 	0.67100 0.85580 0.42340 0.39200
C 	C 	0.64980 0.88770 0.39870 -0.14800
C 	C 	0.58720 0.88400 0.37310 0.05500
C 	C 	0.56150 0.91140 0.34490 -0.02900
C 	C 	0.59830 0.94250 0.34240 0.03400
C 	C 	0.66090 0.94620 0.36800 -0.03200
C 	C 	0.68660 0.91880 0.39610 0.06500
C 	C 	0.86250 0.62640 0.10900 -0.15700
C 	C 	0.87570 0.63080 0.15680 0.07200
C 	C 	0.89640 0.60220 0.18460 -0.02500
C 	C 	0.90400 0.56930 0.16470 0.02500
C 	C 	0.89080 0.56490 0.11690 -0.03200
C 	C 	0.87000 0.59340 0.08910 0.07100
C 	C 	0.13690 0.31160 0.40190 -0.14600
C 	C 	0.13560 0.31270 0.35370 0.06900
C 	C 	0.11420 0.34310 0.32990 -0.03400
C 	C 	0.09420 0.37230 0.35440 0.02900
C 	C 	0.09560 0.37120 0.40260 -0.01700
C 	C 	0.11690 0.34080 0.42640 0.05800
C 	C 	0.72730 0.44540 0.29910 -0.04400
C 	C 	0.72580 0.43830 0.24970 0.20600
C 	C 	0.78920 0.43280 0.18500 0.00700
C 	C 	0.72900 0.42990 0.15620 -0.01300
C 	C 	0.66720 0.42880 0.17510 0.03200
C 	C 	0.66470 0.43330 0.22360 -0.09200
C 	C 	0.60150 0.43180 0.24590 0.02900
C 	C 	0.60240 0.43580 0.29210 -0.02000
C 	C 	0.66400 0.44290 0.32080 0.01500
C 	C 	0.66960 0.44720 0.36950 0.01000
C 	C 	0.73130 0.45430 0.39280 -0.02900
C 	C 	0.79000 0.45710 0.36850 0.10400
C 	C 	0.47330 0.10930 0.41080 0.04900
C 	C 	0.54710 0.10660 0.41520 -0.00600
C 	C 	0.64520 0.09360 0.37800 0.05400
C 	C 	0.58380 0.11580 0.45610 0.00200
C 	C 	0.68560 0.10470 0.41730 -0.01700
C 	C 	0.65580 0.11450 0.45680 0.00800
C 	C 	0.54930 0.12520 0.49670 -0.00600
C 	C 	0.48100 0.12560 0.49410 0.01400
C 	C 	0.33470 0.11020 0.40390 -0.02600
C 	C 	0.37190 0.10290 0.36560 0.06000
C 	C 	0.36790 0.11740 0.44630 0.00100
C 	C 	0.43980 0.11790 0.45190 -0.01600
C 	C 	0.45240 0.21740 0.40320 -0.19400
C 	C 	0.51500 0.20340 0.42000 0.07900
C 	C 	0.57040 0.20500 0.39290 -0.03700
C 	C 	0.56320 0.22050 0.34910 0.03300
C 	C 	0.50070 0.23440 0.33240 -0.03700
C 	C 	0.44520 0.23290 0.35940 0.07600
C 	C 	0.37150 0.19450 0.10190 -0.04000
C 	C 	0.44090 0.19770 0.11480 0.02900
C 	C 	0.47440 0.17180 0.14210 -0.01300
C 	C 	0.43860 0.14280 0.15630 0.01400
C 	C 	0.36920 0.13960 0.14350 -0.00500
C 	C 	0.33560 0.16550 0.11620 0.02400
C 	C 	0.47790 0.14940 0.26200 -0.04500
C 	C 	0.48070 0.12270 0.22640 0.04300
C 	C 	0.46790 0.11610 0.17910 -0.02100
C 	C 	0.47670 0.08240 0.16190 0.01400
C 	C 	0.49840 0.05530 0.19200 -0.01400
C 	C 	0.51050 0.06190 0.23840 0.02200
C 	C 	0.68790 0.24250 0.33650 0.09300
C 	C 	0.61950 0.23370 0.31930 -0.04000
C 	C 	0.59770 0.23180 0.27290 0.01400
C 	C 	0.94650 0.28550 0.24830 -0.06100
C 	C 	0.70620 0.24750 0.38380 -0.06500
C 	C 	0.95060 0.22430 0.35750 0.06800
C 	C 	0.00870 0.21500 0.39520 -0.02400
C 	C 	0.02110 0.23490 0.42740 0.00500
C 	C 	0.98230 0.26370 0.43530 -0.02900
C 	C 	0.93100 0.27150 0.40080 0.06300
C 	C 	0.89000 0.30090 0.40510 -0.01000
C 	C 	0.90020 0.32260 0.44390 0.00500
C 	C 	0.95150 0.31480 0.47840 -0.00100
C 	C 	0.99250 0.28530 0.47410 0.01100
C 	C 	0.84820 0.35320 0.44540 0.01500
C 	C 	0.80060 0.35680 0.41300 -0.01900
C 	C 	0.79210 0.33480 0.36660 0.07800
C 	C 	0.54210 0.99770 0.23960 -0.02400
N 	N 	0.78530 0.45080 0.32920 -0.19700
N 	N 	0.77070 0.43570 0.23840 -0.26500
N 	N 	0.44080 0.09660 0.37560 -0.19700
N 	N 	0.53490 0.02880 0.31200 -0.21300
N 	N 	0.49520 0.09000 0.26470 -0.23500
N 	N 	0.58380 0.10460 0.37440 -0.22100
N 	N 	0.73400 0.24930 0.30900 -0.22200
N 	N 	0.91350 0.25130 0.36670 -0.22300
N 	N 	0.83550 0.31280 0.37140 -0.20400
O 	O 	0.40150 0.20410 0.47000 -0.55100
O 	O 	0.63860 0.83720 0.44340 -0.50100
O 	O 	0.38000 0.25260 0.06480 -0.40900
O 	O 	0.19510 0.25980 0.40970 -0.50000
O 	O 	0.11850 0.31420 0.05220 -0.50700
O 	O 	0.83600 0.65220 0.04000 -0.62700
O 	O 	0.27830 0.22510 0.05790 -0.52800
O 	O 	0.18470 0.28340 0.47610 -0.57800
O 	O 	0.80750 0.68090 0.09890 -0.58200
O 	O 	0.74330 0.85520 0.44400 -0.46100
O 	O 	0.33400 0.21370 0.41170 -0.51600
O 	O 	0.12440 0.25650 0.04850 -0.51100
O 	O 	0.24960 0.21400 0.50040 -0.94400
C 	C 	0.57140 0.01240 0.38610 -0.05600
C 	C 	0.76900 0.08000 0.34600 0.00900
C 	C 	0.69900 0.09000 0.34700 -0.01200
C 	C 	0.65500 0.08300 0.30700 -0.07400
C 	C 	0.68200 0.07500 0.26500 0.00400
C 	C 	0.75100 0.06900 0.26300 0.07500
C 	C 	0.79500 0.07300 0.30400 -0.01600
C 	C 	0.85700 0.42300 0.16200 -0.00800
C 	C 	0.87000 0.44300 0.12300 -0.00400
C 	C 	0.94000 0.44800 0.11200 0.00000
C 	C 	0.99100 0.43500 0.14100 -0.00500
C 	C 	0.97800 0.41600 0.18000 0.00400
C 	C 	0.91100 0.41000 0.19100 -0.05500
C 	C 	0.98800 0.47800 0.43400 0.11200
C 	C 	0.96400 0.49600 0.39400 -0.02200
C 	C 	0.89800 0.48900 0.37500 -0.01600
C 	C 	0.85700 0.46600 0.39500 -0.05300
C 	C 	0.88100 0.44800 0.43500 0.02300
C 	C 	0.94700 0.45400 0.45500 -0.00500
C 	C 	0.32000 0.07600 0.22800 0.08000
C 	C 	0.27800 0.10200 0.24800 -0.00100
C 	C 	0.28900 0.10900 0.29500 0.00900
C 	C 	0.33800 0.09000 0.32200 -0.02600
C 	C 	0.37600 0.06400 0.30200 -0.03100
C 	C 	0.36000 0.05700 0.25500 -0.03200
C 	C 	0.93800 0.20300 0.31500 -0.05200
C 	C 	0.87100 0.19200 0.30400 -0.01900
C 	C 	0.85300 0.17500 0.26300 -0.03700
C 	C 	0.90200 0.16800 0.23200 0.14500
C 	C 	0.97000 0.17800 0.24300 -0.02500
C 	C 	0.98800 0.19600 0.28400 0.02100
C 	C 	0.74400 0.34200 0.33000 -0.05400
C 	C 	0.76800 0.34000 0.28600 -0.04400
C 	C 	0.72300 0.34000 0.24600 -0.00100
C 	C 	0.65400 0.34200 0.25000 -0.00200
C 	C 	0.62900 0.34500 0.29400 -0.00600
C 	C 	0.67400 0.34400 0.33400 0.01000
O 	O 	0.27100 0.06900 0.18600 -0.18800
O 	O 	0.90000 0.16100 0.18900 -0.17800
C 	C 	0.74400 0.04900 0.12300 0.01000
C 	C 	0.72000 0.07600 0.16100 0.07600
O 	O 	0.04900 0.46900 0.45900 -0.15700
O 	O 	0.75000 0.06200 0.20800 -0.17000
C 	C 	0.32000 0.04700 0.17000 0.08100
Zn	Zn	0.65820 0.70880 0.97650 1.21100
Zn	Zn	0.75580 0.71730 0.06830 1.22300
Zn	Zn	0.80530 0.67360 0.98210 1.22200
Zn	Zn	0.78820 0.74360 0.47630 1.24300
Cu	Cu	0.12920 0.95140 0.22250 0.84800
Cu	Cu	0.47860 0.58300 0.17380 0.86700
Cu	Cu	0.17000 0.76920 0.17860 0.85600
C 	C 	0.30550 0.74200 0.33470 0.01400
C 	C 	0.22940 0.75550 0.26840 0.03300
C 	C 	0.23910 0.75180 0.31640 -0.01900
C 	C 	0.18490 0.75720 0.34380 0.02600
C 	C 	0.12090 0.76610 0.32310 -0.03500
C 	C 	0.11120 0.76970 0.27500 0.07400
N 	N 	0.16540 0.76440 0.24760 -0.22200
C 	C 	0.33740 0.73140 0.26890 -0.00200
C 	C 	0.28120 0.74540 0.24240 0.00700
C 	C 	0.33660 0.73150 0.31950 -0.00900
N 	N 	0.07760 0.99210 0.24820 -0.21700
N 	N 	0.03200 0.93780 0.20290 -0.22200
C 	C 	0.88400 0.91850 0.19900 0.01100
C 	C 	0.94700 0.89950 0.16990 -0.02700
C 	C 	0.01560 0.91120 0.17840 0.07600
C 	C 	0.09450 0.01910 0.27980 0.04300
C 	C 	0.05880 0.03820 0.30930 -0.02300
C 	C 	0.06770 0.88870 0.15520 -0.06600
C 	C 	0.98580 0.02500 0.32080 0.01400
C 	C 	0.97840 0.96200 0.22340 0.01200
C 	C 	0.91770 0.94570 0.22850 -0.00100
C 	C 	0.87640 0.96480 0.26510 -0.00400
C 	C 	0.00580 0.98930 0.24900 0.04000
C 	C 	0.97000 0.00470 0.28340 -0.01700
C 	C 	0.89380 0.98870 0.27860 0.01000
C 	C 	0.43870 0.50140 0.16260 0.08500
C 	C 	0.42820 0.47230 0.18720 -0.05100
C 	C 	0.43550 0.47210 0.23120 0.03100
C 	C 	0.46510 0.49270 0.31240 0.00600
C 	C 	0.46250 0.52890 0.23150 0.03500
C 	C 	0.49200 0.52530 0.33890 0.00100
C 	C 	0.95780 0.78090 0.40940 -0.14300
C 	C 	0.97850 0.74750 0.39650 0.06100
C 	C 	0.66990 0.73300 0.41360 0.25900
C 	C 	0.03740 0.74480 0.36730 -0.01400
C 	C 	0.07180 0.77440 0.35310 0.02900
C 	C 	0.05120 0.80780 0.36600 -0.02800
C 	C 	0.99610 0.81160 0.39300 0.05800
C 	C 	0.60370 0.71300 0.06740 0.51100
C 	C 	0.16780 0.15800 0.42200 0.59800
C 	C 	0.82860 0.78350 0.06580 0.46800
C 	C 	0.89700 0.78370 0.43490 0.42900
C 	C 	0.32900 0.35580 0.07660 0.39200
C 	C 	0.35020 0.38770 0.10130 -0.14800
C 	C 	0.41280 0.38400 0.12690 0.05500
C 	C 	0.43850 0.41140 0.15510 -0.02900
C 	C 	0.40170 0.44250 0.15760 0.03400
C 	C 	0.33910 0.44620 0.13200 -0.03200
C 	C 	0.31340 0.41880 0.10390 0.06500
C 	C 	0.13750 0.12640 0.39100 -0.15700
C 	C 	0.12430 0.13080 0.34320 0.07200
C 	C 	0.10360 0.10220 0.31540 -0.02500
C 	C 	0.09600 0.06930 0.33530 0.02500
C 	C 	0.10920 0.06490 0.38310 -0.03200
C 	C 	0.13000 0.09340 0.41090 0.07100
C 	C 	0.86310 0.81160 0.09810 -0.14600
C 	C 	0.86440 0.81270 0.14630 0.06900
C 	C 	0.88580 0.84310 0.17010 -0.03400
C 	C 	0.90580 0.87230 0.14560 0.02900
C 	C 	0.90440 0.87120 0.09740 -0.01700
C 	C 	0.88310 0.84080 0.07360 0.05900
C 	C 	0.27270 0.94540 0.20090 -0.04400
C 	C 	0.27420 0.93830 0.25030 0.20600
C 	C 	0.21080 0.93280 0.31500 0.00700
C 	C 	0.27100 0.92990 0.34380 -0.01400
C 	C 	0.33280 0.92880 0.32490 0.03200
C 	C 	0.33530 0.93330 0.27640 -0.09200
C 	C 	0.39850 0.93180 0.25410 0.02900
C 	C 	0.39760 0.93580 0.20790 -0.02000
C 	C 	0.33600 0.94290 0.17920 0.01500
C 	C 	0.33040 0.94720 0.13050 0.01000
C 	C 	0.26870 0.95430 0.10720 -0.02900
C 	C 	0.21000 0.95710 0.13150 0.10400
C 	C 	0.52670 0.60930 0.08920 0.04900
C 	C 	0.45290 0.60660 0.08480 -0.00600
C 	C 	0.35480 0.59360 0.12200 0.05400
C 	C 	0.41620 0.61580 0.04390 0.00200
C 	C 	0.31440 0.60470 0.08270 -0.01700
C 	C 	0.34420 0.61450 0.04320 0.00800
C 	C 	0.45070 0.62520 0.00330 -0.00600
C 	C 	0.51900 0.62560 0.00590 0.01400
C 	C 	0.66530 0.61020 0.09610 -0.02600
C 	C 	0.62810 0.60290 0.13440 0.06000
C 	C 	0.63210 0.61740 0.05370 0.00100
C 	C 	0.56020 0.61790 0.04810 -0.01600
C 	C 	0.54760 0.71740 0.09680 -0.19400
C 	C 	0.48500 0.70340 0.08000 0.07900
C 	C 	0.42960 0.70500 0.10710 -0.03700
C 	C 	0.43680 0.72050 0.15090 0.03300
C 	C 	0.49930 0.73440 0.16760 -0.03700
C 	C 	0.55480 0.73290 0.14060 0.07600
C 	C 	0.62850 0.69450 0.39810 -0.04000
C 	C 	0.55910 0.69770 0.38520 0.02900
C 	C 	0.52560 0.67180 0.35790 -0.01300
C 	C 	0.56140 0.64280 0.34370 0.01400
C 	C 	0.63080 0.63960 0.35650 -0.00500
C 	C 	0.66440 0.66550 0.38380 0.02400
C 	C 	0.52210 0.64940 0.23800 -0.04500
C 	C 	0.51930 0.62270 0.27360 0.04300
C 	C 	0.53210 0.61610 0.32090 -0.02100
C 	C 	0.52330 0.58240 0.33810 0.01400
C 	C 	0.50160 0.55530 0.30800 -0.01400
C 	C 	0.48950 0.56190 0.26160 0.02200
C 	C 	0.31210 0.74250 0.16350 0.09300
C 	C 	0.38050 0.73370 0.18070 -0.04000
C 	C 	0.40230 0.73180 0.22710 0.01400
C 	C 	0.05350 0.78550 0.25170 -0.06100
C 	C 	0.29380 0.74750 0.11620 -0.06500
C 	C 	0.04940 0.72430 0.14250 0.06700
C 	C 	0.99130 0.71500 0.10480 -0.02400
C 	C 	0.97890 0.73490 0.07260 0.00500
C 	C 	0.01770 0.76370 0.06470 -0.03000
C 	C 	0.06900 0.77150 0.09920 0.06300
C 	C 	0.11000 0.80090 0.09490 -0.01000
C 	C 	0.09980 0.82260 0.05610 0.00500
C 	C 	0.04850 0.81480 0.02160 -0.00100
C 	C 	0.00750 0.78530 0.02590 0.01100
C 	C 	0.15180 0.85320 0.05460 0.01500
C 	C 	0.19940 0.85680 0.08700 -0.01900
C 	C 	0.20790 0.83480 0.13340 0.07800
C 	C 	0.45790 0.49770 0.26040 -0.02400
N 	N 	0.21470 0.95080 0.17080 -0.19700
N 	N 	0.22930 0.93570 0.26160 -0.26500
N 	N 	0.55920 0.59660 0.12440 -0.19700
N 	N 	0.46510 0.52880 0.18800 -0.21300
N 	N 	0.50480 0.59000 0.23530 -0.23500
N 	N 	0.41620 0.60460 0.12560 -0.22100
N 	N 	0.26600 0.74930 0.19100 -0.22200
N 	N 	0.08650 0.75130 0.13330 -0.22300
N 	N 	0.16450 0.81280 0.12860 -0.20400
O 	O 	0.59850 0.70410 0.03000 -0.55100
O 	O 	0.36140 0.33720 0.05660 -0.50200
O 	O 	0.62000 0.75260 0.43520 -0.40900
O 	O 	0.80490 0.75980 0.09030 -0.50000
O 	O 	0.88150 0.81420 0.44780 -0.50700
O 	O 	0.16400 0.15220 0.46000 -0.62800
O 	O 	0.72170 0.72510 0.44210 -0.52800
O 	O 	0.81530 0.78340 0.02390 -0.57800
O 	O 	0.19250 0.18090 0.40110 -0.58300
O 	O 	0.25670 0.35520 0.05600 -0.46100
O 	O 	0.66600 0.71370 0.08830 -0.51600
O 	O 	0.87560 0.75650 0.45150 -0.51100
O 	O 	0.75040 0.71400 0.99960 -0.94400
C 	C 	0.42860 0.51240 0.11390 -0.05600
C 	C 	0.23100 0.58000 0.15400 0.00900
C 	C 	0.30100 0.59000 0.15300 -0.01200
C 	C 	0.34500 0.58300 0.19300 -0.07400
C 	C 	0.31800 0.57500 0.23500 0.00400
C 	C 	0.24900 0.56900 0.23700 0.07500
C 	C 	0.20500 0.57300 0.19600 -0.01600
C 	C 	0.14300 0.92300 0.33800 -0.00800
C 	C 	0.13000 0.94300 0.37700 -0.00400
C 	C 	0.06000 0.94800 0.38800 0.00000
C 	C 	0.00900 0.93500 0.35900 -0.00500
C 	C 	0.02200 0.91600 0.32000 0.00300
C 	C 	0.08900 0.91000 0.30900 -0.05500
C 	C 	0.01200 0.97800 0.06600 0.11100
C 	C 	0.03600 0.99600 0.10600 -0.02200
C 	C 	0.10200 0.98900 0.12500 -0.01600
C 	C 	0.14300 0.96600 0.10500 -0.05300
C 	C 	0.11900 0.94800 0.06500 0.02300
C 	C 	0.05300 0.95400 0.04500 -0.00500
C 	C 	0.68000 0.57600 0.27200 0.08000
C 	C 	0.72200 0.60200 0.25200 -0.00100
C 	C 	0.71100 0.60900 0.20500 0.00900
C 	C 	0.66200 0.59000 0.17800 -0.02600
C 	C 	0.62400 0.56400 0.19800 -0.03100
C 	C 	0.64000 0.55700 0.24500 -0.03200
C 	C 	0.06200 0.70300 0.18500 -0.05200
C 	C 	0.12900 0.69200 0.19600 -0.01900
C 	C 	0.14700 0.67500 0.23700 -0.03700
C 	C 	0.09800 0.66800 0.26800 0.14500
C 	C 	0.03000 0.67800 0.25700 -0.02500
C 	C 	0.01200 0.69600 0.21600 0.02100
C 	C 	0.25600 0.84200 0.17000 -0.05400
C 	C 	0.23200 0.84000 0.21400 -0.04400
C 	C 	0.27700 0.84000 0.25400 -0.00100
C 	C 	0.34600 0.84200 0.25000 -0.00200
C 	C 	0.37100 0.84500 0.20600 -0.00600
C 	C 	0.32600 0.84400 0.16600 0.01000
O 	O 	0.72900 0.56900 0.31400 -0.18800
O 	O 	0.10000 0.66100 0.31100 -0.17800
C 	C 	0.25600 0.54900 0.37700 0.01000
C 	C 	0.28000 0.57600 0.33900 0.07600
O 	O 	0.95100 0.96900 0.04100 -0.15600
O 	O 	0.25000 0.56200 0.29200 -0.17000
C 	C 	0.68000 0.54700 0.33000 0.08100
