data_crystal

_cell_length_a 45.29580
_cell_length_b 45.29580
_cell_length_c 45.29580
_cell_angle_alpha 60.00000
_cell_angle_beta  60.00000
_cell_angle_gamma 60.00000

_symmetry_space_group_name_	'P 1'
_symmetry_space_group_name_H-M	'P 1'

loop_
_symmetry_equiv_pos_as_xyz
  x,y,z

loop_
_atom_site_label
_atom_site_type_symbol
_atom_site_fract_x
_atom_site_fract_y
_atom_site_fract_z
_atom_site_charge
Co	Co	0.98952 0.01048 0.25000 1.12000
Co	Co	0.51048 0.48952 0.75000 1.12000
Co	Co	0.75000 0.75000 0.48952 1.12000
Co	Co	0.25000 0.25000 0.01048 1.12000
Co	Co	0.98952 0.25000 0.75000 1.12000
Co	Co	0.51048 0.75000 0.25000 1.12000
Co	Co	0.75000 0.48952 0.01048 1.12000
Co	Co	0.25000 0.01048 0.48952 1.12000
Co	Co	0.98952 0.75000 0.01048 1.12000
Co	Co	0.51048 0.25000 0.48952 1.12000
Co	Co	0.75000 0.01048 0.75000 1.12000
Co	Co	0.25000 0.48952 0.25000 1.12000
Co	Co	0.01048 0.98952 0.75000 1.12000
Co	Co	0.48952 0.51048 0.25000 1.12000
Co	Co	0.25000 0.25000 0.51048 1.12000
Co	Co	0.75000 0.75000 0.98952 1.12000
Co	Co	0.01048 0.75000 0.25000 1.12000
Co	Co	0.48952 0.25000 0.75000 1.12000
Co	Co	0.25000 0.51048 0.98952 1.12000
Co	Co	0.75000 0.98952 0.51048 1.12000
Co	Co	0.01048 0.25000 0.98952 1.12000
Co	Co	0.48952 0.75000 0.51048 1.12000
Co	Co	0.25000 0.98952 0.25000 1.12000
Co	Co	0.75000 0.51048 0.75000 1.12000
Co	Co	0.00220 0.24780 0.24780 1.12200
Co	Co	0.74780 0.50220 0.50220 1.12200
Co	Co	0.00220 0.24780 0.50220 1.12200
Co	Co	0.74780 0.50220 0.24780 1.12200
Co	Co	0.00220 0.50220 0.24780 1.12200
Co	Co	0.74780 0.24780 0.50220 1.12200
Co	Co	0.75220 0.99780 0.25220 1.12200
Co	Co	0.49780 0.25220 0.99780 1.12200
Co	Co	0.75220 0.99780 0.99780 1.12200
Co	Co	0.49780 0.25220 0.25220 1.12200
Co	Co	0.49780 0.99780 0.25220 1.12200
Co	Co	0.75220 0.25220 0.99780 1.12200
Co	Co	0.99780 0.75220 0.75220 1.12200
Co	Co	0.25220 0.49780 0.49780 1.12200
Co	Co	0.99780 0.75220 0.49780 1.12200
Co	Co	0.25220 0.49780 0.75220 1.12200
Co	Co	0.99780 0.49780 0.75220 1.12200
Co	Co	0.25220 0.75220 0.49780 1.12200
Co	Co	0.24780 0.00220 0.74780 1.12200
Co	Co	0.50220 0.74780 0.00220 1.12200
Co	Co	0.24780 0.00220 0.00220 1.12200
Co	Co	0.50220 0.74780 0.74780 1.12200
Co	Co	0.50220 0.00220 0.74780 1.12200
Co	Co	0.24780 0.74780 0.00220 1.12200
H 	H 	0.95320 0.04560 0.31320 0.00200
H 	H 	0.93510 0.10090 0.31830 0.06700
H 	H 	0.94560 0.15040 0.26600 0.03800
H 	H 	0.97910 0.08890 0.20750 0.01400
H 	H 	0.99260 0.17920 0.01760 -0.00100
H 	H 	0.98310 0.13010 0.06910 0.06700
H 	H 	0.97620 0.12940 0.12460 0.03900
H 	H 	0.99210 0.22550 0.07170 0.01700
H 	H 	0.99170 0.20970 0.21650 0.01100
H 	H 	0.02080 0.29580 0.16540 0.00300
H 	H 	0.01740 0.30400 0.11280 0.06700
H 	H 	0.00440 0.26160 0.10960 0.03900
H 	H 	0.92890 0.27470 0.23850 0.00100
H 	H 	0.88190 0.32590 0.22530 0.06800
H 	H 	0.87850 0.38070 0.22250 0.03900
H 	H 	0.97100 0.32780 0.24560 0.01300
H 	H 	0.54560 0.45320 0.68800 0.00200
H 	H 	0.60090 0.43510 0.64570 0.06700
H 	H 	0.65040 0.44560 0.63800 0.03800
H 	H 	0.58890 0.47910 0.72450 0.01400
H 	H 	0.67920 0.49260 0.81060 -0.00100
H 	H 	0.63010 0.48310 0.81770 0.06600
H 	H 	0.62940 0.47620 0.76980 0.03900
H 	H 	0.72550 0.49210 0.71070 0.01700
H 	H 	0.70970 0.49170 0.58210 0.01100
H 	H 	0.79580 0.52080 0.51800 0.00300
H 	H 	0.80400 0.51740 0.56580 0.06700
H 	H 	0.76160 0.50440 0.62440 0.03900
H 	H 	0.77470 0.42890 0.55790 0.00100
H 	H 	0.82590 0.38190 0.56690 0.06800
H 	H 	0.88070 0.37850 0.51830 0.03900
H 	H 	0.82780 0.47100 0.45560 0.01300
H 	H 	0.81320 0.68800 0.45320 0.00200
H 	H 	0.81830 0.64570 0.43510 0.06700
H 	H 	0.76600 0.63800 0.44560 0.03800
H 	H 	0.70750 0.72450 0.47910 0.01400
H 	H 	0.51760 0.81060 0.49260 -0.00200
H 	H 	0.56910 0.81770 0.48310 0.06500
H 	H 	0.62460 0.76980 0.47620 0.03800
H 	H 	0.57170 0.71070 0.49210 0.01600
H 	H 	0.71650 0.58210 0.49170 0.01000
H 	H 	0.66540 0.51800 0.52080 0.00200
H 	H 	0.61280 0.56580 0.51740 0.06600
H 	H 	0.60960 0.62440 0.50440 0.03800
H 	H 	0.73850 0.55790 0.42890 -0.00000
H 	H 	0.72530 0.56690 0.38190 0.06700
H 	H 	0.72250 0.51830 0.37850 0.03800
H 	H 	0.74560 0.45560 0.47100 0.01200
H 	H 	0.18800 0.31320 0.04560 0.00100
H 	H 	0.14570 0.31830 0.10090 0.06600
H 	H 	0.13800 0.26600 0.15040 0.03700
H 	H 	0.22450 0.20750 0.08890 0.01300
H 	H 	0.31060 0.01760 0.17920 -0.00200
H 	H 	0.31770 0.06910 0.13010 0.06500
H 	H 	0.26980 0.12460 0.12940 0.03800
H 	H 	0.21070 0.07170 0.22550 0.01600
H 	H 	0.08210 0.21650 0.20970 0.01000
H 	H 	0.01800 0.16540 0.29580 0.00200
H 	H 	0.06580 0.11280 0.30400 0.06600
H 	H 	0.12440 0.10960 0.26160 0.03800
H 	H 	0.05790 0.23850 0.27470 -0.00000
H 	H 	0.06690 0.22530 0.32590 0.06700
H 	H 	0.01830 0.22250 0.38070 0.03800
H 	H 	0.95560 0.24560 0.32780 0.01200
H 	H 	0.95320 0.31320 0.68800 0.00100
H 	H 	0.93510 0.31830 0.64570 0.06600
H 	H 	0.94560 0.26600 0.63800 0.03700
H 	H 	0.97910 0.20750 0.72450 0.01300
H 	H 	0.99260 0.01760 0.81060 -0.00200
H 	H 	0.98310 0.06910 0.81770 0.06600
H 	H 	0.97620 0.12460 0.76980 0.03800
H 	H 	0.99210 0.07170 0.71070 0.01600
H 	H 	0.99170 0.21650 0.58210 0.01000
H 	H 	0.02080 0.16540 0.51800 0.00200
H 	H 	0.01740 0.11280 0.56580 0.06600
H 	H 	0.00440 0.10960 0.62440 0.03800
H 	H 	0.92890 0.23850 0.55790 -0.00000
H 	H 	0.88190 0.22530 0.56690 0.06700
H 	H 	0.87850 0.22250 0.51830 0.03800
H 	H 	0.97100 0.24560 0.45560 0.01200
H 	H 	0.54560 0.68800 0.31320 0.00100
H 	H 	0.60090 0.64570 0.31830 0.06600
H 	H 	0.65040 0.63800 0.26600 0.03700
H 	H 	0.58890 0.72450 0.20750 0.01300
H 	H 	0.67920 0.81060 0.01760 -0.00200
H 	H 	0.63010 0.81770 0.06910 0.06500
H 	H 	0.62940 0.76980 0.12460 0.03800
H 	H 	0.72550 0.71070 0.07170 0.01600
H 	H 	0.70970 0.58210 0.21650 0.01000
H 	H 	0.79580 0.51800 0.16540 0.00200
H 	H 	0.80400 0.56580 0.11280 0.06600
H 	H 	0.76160 0.62440 0.10960 0.03800
H 	H 	0.77470 0.55790 0.23850 -0.00000
H 	H 	0.82590 0.56690 0.22530 0.06700
H 	H 	0.88070 0.51830 0.22250 0.03800
H 	H 	0.82780 0.45560 0.24560 0.01200
H 	H 	0.81320 0.45320 0.04560 0.00100
H 	H 	0.81830 0.43510 0.10090 0.06600
H 	H 	0.76600 0.44560 0.15040 0.03700
H 	H 	0.70750 0.47910 0.08890 0.01300
H 	H 	0.51760 0.49260 0.17920 -0.00200
H 	H 	0.56910 0.48310 0.13010 0.06500
H 	H 	0.62460 0.47620 0.12940 0.03800
H 	H 	0.57170 0.49210 0.22550 0.01600
H 	H 	0.71650 0.49170 0.20970 0.01000
H 	H 	0.66540 0.52080 0.29580 0.00200
H 	H 	0.61280 0.51740 0.30400 0.06600
H 	H 	0.60960 0.50440 0.26160 0.03800
H 	H 	0.73850 0.42890 0.27470 -0.00000
H 	H 	0.72530 0.38190 0.32590 0.06700
H 	H 	0.72250 0.37850 0.38070 0.03800
H 	H 	0.74560 0.47100 0.32780 0.01200
H 	H 	0.18800 0.04560 0.45320 0.00100
H 	H 	0.14570 0.10090 0.43510 0.06600
H 	H 	0.13800 0.15040 0.44560 0.03700
H 	H 	0.22450 0.08890 0.47910 0.01300
H 	H 	0.31060 0.17920 0.49260 -0.00200
H 	H 	0.31770 0.13010 0.48310 0.06500
H 	H 	0.26980 0.12940 0.47620 0.03800
H 	H 	0.21070 0.22550 0.49210 0.01600
H 	H 	0.08210 0.20970 0.49170 0.01000
H 	H 	0.01800 0.29580 0.52080 0.00200
H 	H 	0.06580 0.30400 0.51740 0.06600
H 	H 	0.12440 0.26160 0.50440 0.03800
H 	H 	0.05790 0.27470 0.42890 -0.00000
H 	H 	0.06690 0.32590 0.38190 0.06700
H 	H 	0.01830 0.38070 0.37850 0.03800
H 	H 	0.95560 0.32780 0.47100 0.01200
H 	H 	0.95320 0.68800 0.04560 0.00100
H 	H 	0.93510 0.64570 0.10090 0.06600
H 	H 	0.94560 0.63800 0.15040 0.03700
H 	H 	0.97910 0.72450 0.08890 0.01300
H 	H 	0.99260 0.81060 0.17920 -0.00200
H 	H 	0.98310 0.81770 0.13010 0.06600
H 	H 	0.97620 0.76980 0.12940 0.03800
H 	H 	0.99210 0.71070 0.22550 0.01600
H 	H 	0.99170 0.58210 0.20970 0.01000
H 	H 	0.02080 0.51800 0.29580 0.00200
H 	H 	0.01740 0.56580 0.30400 0.06600
H 	H 	0.00440 0.62440 0.26160 0.03800
H 	H 	0.92890 0.55790 0.27470 -0.00000
H 	H 	0.88190 0.56690 0.32590 0.06700
H 	H 	0.87850 0.51830 0.38070 0.03800
H 	H 	0.97100 0.45560 0.32780 0.01200
H 	H 	0.54560 0.31320 0.45320 0.00100
H 	H 	0.60090 0.31830 0.43510 0.06600
H 	H 	0.65040 0.26600 0.44560 0.03700
H 	H 	0.58890 0.20750 0.47910 0.01300
H 	H 	0.67920 0.01760 0.49260 -0.00200
H 	H 	0.63010 0.06910 0.48310 0.06500
H 	H 	0.62940 0.12460 0.47620 0.03800
H 	H 	0.72550 0.07170 0.49210 0.01600
H 	H 	0.70970 0.21650 0.49170 0.01000
H 	H 	0.79580 0.16540 0.52080 0.00200
H 	H 	0.80400 0.11280 0.51740 0.06600
H 	H 	0.76160 0.10960 0.50440 0.03800
H 	H 	0.77470 0.23850 0.42890 -0.00000
H 	H 	0.82590 0.22530 0.38190 0.06700
H 	H 	0.88070 0.22250 0.37850 0.03800
H 	H 	0.82780 0.24560 0.47100 0.01200
H 	H 	0.81320 0.04560 0.68800 0.00100
H 	H 	0.81830 0.10090 0.64570 0.06600
H 	H 	0.76600 0.15040 0.63800 0.03700
H 	H 	0.70750 0.08890 0.72450 0.01300
H 	H 	0.51760 0.17920 0.81060 -0.00200
H 	H 	0.56910 0.13010 0.81770 0.06500
H 	H 	0.62460 0.12940 0.76980 0.03800
H 	H 	0.57170 0.22550 0.71070 0.01600
H 	H 	0.71650 0.20970 0.58210 0.01000
H 	H 	0.66540 0.29580 0.51800 0.00200
H 	H 	0.61280 0.30400 0.56580 0.06600
H 	H 	0.60960 0.26160 0.62440 0.03800
H 	H 	0.73850 0.27470 0.55790 -0.00000
H 	H 	0.72530 0.32590 0.56690 0.06700
H 	H 	0.72250 0.38070 0.51830 0.03800
H 	H 	0.74560 0.32780 0.45560 0.01200
H 	H 	0.18800 0.45320 0.31320 0.00100
H 	H 	0.14570 0.43510 0.31830 0.06600
H 	H 	0.13800 0.44560 0.26600 0.03700
H 	H 	0.22450 0.47910 0.20750 0.01300
H 	H 	0.31060 0.49260 0.01760 -0.00200
H 	H 	0.31770 0.48310 0.06910 0.06500
H 	H 	0.26980 0.47620 0.12460 0.03800
H 	H 	0.21070 0.49210 0.07170 0.01600
H 	H 	0.08210 0.49170 0.21650 0.01000
H 	H 	0.01800 0.52080 0.16540 0.00200
H 	H 	0.06580 0.51740 0.11280 0.06600
H 	H 	0.12440 0.50440 0.10960 0.03800
H 	H 	0.05790 0.42890 0.23850 -0.00000
H 	H 	0.06690 0.38190 0.22530 0.06700
H 	H 	0.01830 0.37850 0.22250 0.03800
H 	H 	0.95560 0.47100 0.24560 0.01200
H 	H 	0.95440 0.04680 0.18680 0.00100
H 	H 	0.89910 0.06490 0.18170 0.06600
H 	H 	0.84960 0.05440 0.23400 0.03700
H 	H 	0.91110 0.02090 0.29250 0.01300
H 	H 	0.82080 0.00740 0.48240 -0.00200
H 	H 	0.86990 0.01690 0.43090 0.06500
H 	H 	0.87060 0.02380 0.37540 0.03800
H 	H 	0.77450 0.00790 0.42830 0.01600
H 	H 	0.79030 0.00830 0.28350 0.01000
H 	H 	0.70420 0.97920 0.33460 0.00200
H 	H 	0.69600 0.98260 0.38720 0.06600
H 	H 	0.73840 0.99560 0.39040 0.03800
H 	H 	0.72530 0.07110 0.26150 -0.00000
H 	H 	0.67410 0.11810 0.27470 0.06700
H 	H 	0.61930 0.12150 0.27750 0.03800
H 	H 	0.67220 0.02900 0.25440 0.01200
H 	H 	0.54680 0.45440 0.81200 0.00100
H 	H 	0.56490 0.39910 0.85430 0.06600
H 	H 	0.55440 0.34960 0.86200 0.03700
H 	H 	0.52090 0.41110 0.77550 0.01300
H 	H 	0.50740 0.32080 0.68940 -0.00200
H 	H 	0.51690 0.36990 0.68230 0.06500
H 	H 	0.52380 0.37060 0.73020 0.03800
H 	H 	0.50790 0.27450 0.78930 0.01600
H 	H 	0.50830 0.29030 0.91790 0.01000
H 	H 	0.47920 0.20420 0.98200 0.00200
H 	H 	0.48260 0.19600 0.93420 0.06600
H 	H 	0.49560 0.23840 0.87560 0.03800
H 	H 	0.57110 0.22530 0.94210 -0.00000
H 	H 	0.61810 0.17410 0.93310 0.06700
H 	H 	0.62150 0.11930 0.98170 0.03800
H 	H 	0.52900 0.17220 0.04440 0.01200
H 	H 	0.31200 0.18680 0.04680 0.00100
H 	H 	0.35430 0.18170 0.06490 0.06600
H 	H 	0.36200 0.23400 0.05440 0.03700
H 	H 	0.27550 0.29250 0.02090 0.01300
H 	H 	0.18940 0.48240 0.00740 -0.00200
H 	H 	0.18230 0.43090 0.01690 0.06500
H 	H 	0.23020 0.37540 0.02380 0.03800
H 	H 	0.28930 0.42830 0.00790 0.01600
H 	H 	0.41790 0.28350 0.00830 0.01000
H 	H 	0.48200 0.33460 0.97920 0.00200
H 	H 	0.43420 0.38720 0.98260 0.06600
H 	H 	0.37560 0.39040 0.99560 0.03800
H 	H 	0.44210 0.26150 0.07110 -0.00000
H 	H 	0.43310 0.27470 0.11810 0.06700
H 	H 	0.48170 0.27750 0.12150 0.03800
H 	H 	0.54440 0.25440 0.02900 0.01200
H 	H 	0.68680 0.81200 0.45440 0.00100
H 	H 	0.68170 0.85430 0.39910 0.06600
H 	H 	0.73400 0.86200 0.34960 0.03700
H 	H 	0.79250 0.77550 0.41110 0.01300
H 	H 	0.98240 0.68940 0.32080 -0.00200
H 	H 	0.93090 0.68230 0.36990 0.06500
H 	H 	0.87540 0.73020 0.37060 0.03800
H 	H 	0.92830 0.78930 0.27450 0.01600
H 	H 	0.78350 0.91790 0.29030 0.01000
H 	H 	0.83460 0.98200 0.20420 0.00200
H 	H 	0.88720 0.93420 0.19600 0.06600
H 	H 	0.89040 0.87560 0.23840 0.03800
H 	H 	0.76150 0.94210 0.22530 -0.00000
H 	H 	0.77470 0.93310 0.17410 0.06700
H 	H 	0.77750 0.98170 0.11930 0.03800
H 	H 	0.75440 0.04440 0.17220 0.01200
H 	H 	0.68680 0.04680 0.81200 0.00100
H 	H 	0.68170 0.06490 0.85430 0.06600
H 	H 	0.73400 0.05440 0.86200 0.03700
H 	H 	0.79250 0.02090 0.77550 0.01300
H 	H 	0.98240 0.00740 0.68940 -0.00200
H 	H 	0.93090 0.01690 0.68230 0.06600
H 	H 	0.87540 0.02380 0.73020 0.03800
H 	H 	0.92830 0.00790 0.78930 0.01600
H 	H 	0.78350 0.00830 0.91790 0.01000
H 	H 	0.83460 0.97920 0.98200 0.00200
H 	H 	0.88720 0.98260 0.93420 0.06600
H 	H 	0.89040 0.99560 0.87560 0.03800
H 	H 	0.76150 0.07110 0.94210 -0.00000
H 	H 	0.77470 0.11810 0.93310 0.06700
H 	H 	0.77750 0.12150 0.98170 0.03800
H 	H 	0.75440 0.02900 0.04440 0.01200
H 	H 	0.31200 0.45440 0.18680 0.00100
H 	H 	0.35430 0.39910 0.18170 0.06600
H 	H 	0.36200 0.34960 0.23400 0.03700
H 	H 	0.27550 0.41110 0.29250 0.01300
H 	H 	0.18940 0.32080 0.48240 -0.00200
H 	H 	0.18230 0.36990 0.43090 0.06500
H 	H 	0.23020 0.37060 0.37540 0.03800
H 	H 	0.28930 0.27450 0.42830 0.01600
H 	H 	0.41790 0.29030 0.28350 0.01000
H 	H 	0.48200 0.20420 0.33460 0.00200
H 	H 	0.43420 0.19600 0.38720 0.06600
H 	H 	0.37560 0.23840 0.39040 0.03800
H 	H 	0.44210 0.22530 0.26150 -0.00000
H 	H 	0.43310 0.17410 0.27470 0.06700
H 	H 	0.48170 0.11930 0.27750 0.03800
H 	H 	0.54440 0.17220 0.25440 0.01200
H 	H 	0.54680 0.18680 0.45440 0.00100
H 	H 	0.56490 0.18170 0.39910 0.06600
H 	H 	0.55440 0.23400 0.34960 0.03700
H 	H 	0.52090 0.29250 0.41110 0.01300
H 	H 	0.50740 0.48240 0.32080 -0.00200
H 	H 	0.51690 0.43090 0.36990 0.06500
H 	H 	0.52380 0.37540 0.37060 0.03800
H 	H 	0.50790 0.42830 0.27450 0.01600
H 	H 	0.50830 0.28350 0.29030 0.01000
H 	H 	0.47920 0.33460 0.20420 0.00200
H 	H 	0.48260 0.38720 0.19600 0.06600
H 	H 	0.49560 0.39040 0.23840 0.03800
H 	H 	0.57110 0.26150 0.22530 -0.00000
H 	H 	0.61810 0.27470 0.17410 0.06700
H 	H 	0.62150 0.27750 0.11930 0.03800
H 	H 	0.52900 0.25440 0.17220 0.01200
H 	H 	0.95440 0.81200 0.04680 0.00100
H 	H 	0.89910 0.85430 0.06490 0.06600
H 	H 	0.84960 0.86200 0.05440 0.03700
H 	H 	0.91110 0.77550 0.02090 0.01300
H 	H 	0.82080 0.68940 0.00740 -0.00200
H 	H 	0.86990 0.68230 0.01690 0.06500
H 	H 	0.87060 0.73020 0.02380 0.03800
H 	H 	0.77450 0.78930 0.00790 0.01600
H 	H 	0.79030 0.91790 0.00830 0.01000
H 	H 	0.70420 0.98200 0.97920 0.00200
H 	H 	0.69600 0.93420 0.98260 0.06600
H 	H 	0.73840 0.87560 0.99560 0.03800
H 	H 	0.72530 0.94210 0.07110 -0.00000
H 	H 	0.67410 0.93310 0.11810 0.06700
H 	H 	0.61930 0.98170 0.12150 0.03800
H 	H 	0.67220 0.04440 0.02900 0.01200
H 	H 	0.31200 0.04680 0.45440 0.00100
H 	H 	0.35430 0.06490 0.39910 0.06600
H 	H 	0.36200 0.05440 0.34960 0.03700
H 	H 	0.27550 0.02090 0.41110 0.01300
H 	H 	0.18940 0.00740 0.32080 -0.00200
H 	H 	0.18230 0.01690 0.36990 0.06500
H 	H 	0.23020 0.02380 0.37060 0.03800
H 	H 	0.28930 0.00790 0.27450 0.01600
H 	H 	0.41790 0.00830 0.29030 0.01000
H 	H 	0.48200 0.97920 0.20420 0.00200
H 	H 	0.43420 0.98260 0.19600 0.06600
H 	H 	0.37560 0.99560 0.23840 0.03800
H 	H 	0.44210 0.07110 0.22530 -0.00000
H 	H 	0.43310 0.11810 0.17410 0.06700
H 	H 	0.48170 0.12150 0.11930 0.03800
H 	H 	0.54440 0.02900 0.17220 0.01200
H 	H 	0.68680 0.45440 0.04680 0.00100
H 	H 	0.68170 0.39910 0.06490 0.06600
H 	H 	0.73400 0.34960 0.05440 0.03700
H 	H 	0.79250 0.41110 0.02090 0.01300
H 	H 	0.98240 0.32080 0.00740 -0.00200
H 	H 	0.93090 0.36990 0.01690 0.06600
H 	H 	0.87540 0.37060 0.02380 0.03800
H 	H 	0.92830 0.27450 0.00790 0.01600
H 	H 	0.78350 0.29030 0.00830 0.01000
H 	H 	0.83460 0.20420 0.97920 0.00200
H 	H 	0.88720 0.19600 0.98260 0.06600
H 	H 	0.89040 0.23840 0.99560 0.03800
H 	H 	0.76150 0.22530 0.07110 -0.00000
H 	H 	0.77470 0.17410 0.11810 0.06700
H 	H 	0.77750 0.11930 0.12150 0.03800
H 	H 	0.75440 0.17220 0.02900 0.01200
H 	H 	0.95440 0.18680 0.81200 0.00100
H 	H 	0.89910 0.18170 0.85430 0.06600
H 	H 	0.84960 0.23400 0.86200 0.03700
H 	H 	0.91110 0.29250 0.77550 0.01300
H 	H 	0.82080 0.48240 0.68940 -0.00200
H 	H 	0.86990 0.43090 0.68230 0.06500
H 	H 	0.87060 0.37540 0.73020 0.03800
H 	H 	0.77450 0.42830 0.78930 0.01600
H 	H 	0.79030 0.28350 0.91790 0.01000
H 	H 	0.70420 0.33460 0.98200 0.00200
H 	H 	0.69600 0.38720 0.93420 0.06600
H 	H 	0.73840 0.39040 0.87560 0.03800
H 	H 	0.72530 0.26150 0.94210 -0.00000
H 	H 	0.67410 0.27470 0.93310 0.06700
H 	H 	0.61930 0.27750 0.98170 0.03800
H 	H 	0.67220 0.25440 0.04440 0.01200
H 	H 	0.54680 0.81200 0.18680 0.00100
H 	H 	0.56490 0.85430 0.18170 0.06600
H 	H 	0.55440 0.86200 0.23400 0.03700
H 	H 	0.52090 0.77550 0.29250 0.01300
H 	H 	0.50740 0.68940 0.48240 -0.00200
H 	H 	0.51690 0.68230 0.43090 0.06500
H 	H 	0.52380 0.73020 0.37540 0.03800
H 	H 	0.50790 0.78930 0.42830 0.01600
H 	H 	0.50830 0.91790 0.28350 0.01000
H 	H 	0.47920 0.98200 0.33460 0.00200
H 	H 	0.48260 0.93420 0.38720 0.06600
H 	H 	0.49560 0.87560 0.39040 0.03800
H 	H 	0.57110 0.94210 0.26150 -0.00000
H 	H 	0.61810 0.93310 0.27470 0.06700
H 	H 	0.62150 0.98170 0.27750 0.03800
H 	H 	0.52900 0.04440 0.25440 0.01200
H 	H 	0.04680 0.95440 0.68680 0.00100
H 	H 	0.06490 0.89910 0.68170 0.06600
H 	H 	0.05440 0.84960 0.73400 0.03700
H 	H 	0.02090 0.91110 0.79250 0.01300
H 	H 	0.00740 0.82080 0.98240 -0.00200
H 	H 	0.01690 0.86990 0.93090 0.06600
H 	H 	0.02380 0.87060 0.87540 0.03800
H 	H 	0.00790 0.77450 0.92830 0.01600
H 	H 	0.00830 0.79030 0.78350 0.01000
H 	H 	0.97920 0.70420 0.83460 0.00200
H 	H 	0.98260 0.69600 0.88720 0.06600
H 	H 	0.99560 0.73840 0.89040 0.03800
H 	H 	0.07110 0.72530 0.76150 -0.00000
H 	H 	0.11810 0.67410 0.77470 0.06700
H 	H 	0.12150 0.61930 0.77750 0.03800
H 	H 	0.02900 0.67220 0.75440 0.01200
H 	H 	0.45440 0.54680 0.31200 0.00100
H 	H 	0.39910 0.56490 0.35430 0.06600
H 	H 	0.34960 0.55440 0.36200 0.03700
H 	H 	0.41110 0.52090 0.27550 0.01300
H 	H 	0.32080 0.50740 0.18940 -0.00200
H 	H 	0.36990 0.51690 0.18230 0.06500
H 	H 	0.37060 0.52380 0.23020 0.03800
H 	H 	0.27450 0.50790 0.28930 0.01600
H 	H 	0.29030 0.50830 0.41790 0.01000
H 	H 	0.20420 0.47920 0.48200 0.00200
H 	H 	0.19600 0.48260 0.43420 0.06600
H 	H 	0.23840 0.49560 0.37560 0.03800
H 	H 	0.22530 0.57110 0.44210 -0.00000
H 	H 	0.17410 0.61810 0.43310 0.06700
H 	H 	0.11930 0.62150 0.48170 0.03800
H 	H 	0.17220 0.52900 0.54440 0.01200
H 	H 	0.18680 0.31200 0.54680 0.00100
H 	H 	0.18170 0.35430 0.56490 0.06600
H 	H 	0.23400 0.36200 0.55440 0.03700
H 	H 	0.29250 0.27550 0.52090 0.01300
H 	H 	0.48240 0.18940 0.50740 -0.00200
H 	H 	0.43090 0.18230 0.51690 0.06500
H 	H 	0.37540 0.23020 0.52380 0.03800
H 	H 	0.42830 0.28930 0.50790 0.01600
H 	H 	0.28350 0.41790 0.50830 0.01000
H 	H 	0.33460 0.48200 0.47920 0.00200
H 	H 	0.38720 0.43420 0.48260 0.06600
H 	H 	0.39040 0.37560 0.49560 0.03800
H 	H 	0.26150 0.44210 0.57110 -0.00000
H 	H 	0.27470 0.43310 0.61810 0.06700
H 	H 	0.27750 0.48170 0.62150 0.03800
H 	H 	0.25440 0.54440 0.52900 0.01200
H 	H 	0.81200 0.68680 0.95440 0.00100
H 	H 	0.85430 0.68170 0.89910 0.06600
H 	H 	0.86200 0.73400 0.84960 0.03700
H 	H 	0.77550 0.79250 0.91110 0.01300
H 	H 	0.68940 0.98240 0.82080 -0.00200
H 	H 	0.68230 0.93090 0.86990 0.06500
H 	H 	0.73020 0.87540 0.87060 0.03800
H 	H 	0.78930 0.92830 0.77450 0.01600
H 	H 	0.91790 0.78350 0.79030 0.01000
H 	H 	0.98200 0.83460 0.70420 0.00200
H 	H 	0.93420 0.88720 0.69600 0.06600
H 	H 	0.87560 0.89040 0.73840 0.03800
H 	H 	0.94210 0.76150 0.72530 -0.00000
H 	H 	0.93310 0.77470 0.67410 0.06700
H 	H 	0.98170 0.77750 0.61930 0.03800
H 	H 	0.04440 0.75440 0.67220 0.01200
H 	H 	0.04680 0.68680 0.31200 0.00100
H 	H 	0.06490 0.68170 0.35430 0.06600
H 	H 	0.05440 0.73400 0.36200 0.03700
H 	H 	0.02090 0.79250 0.27550 0.01300
H 	H 	0.00740 0.98240 0.18940 -0.00200
H 	H 	0.01690 0.93090 0.18230 0.06600
H 	H 	0.02380 0.87540 0.23020 0.03800
H 	H 	0.00790 0.92830 0.28930 0.01600
H 	H 	0.00830 0.78350 0.41790 0.01000
H 	H 	0.97920 0.83460 0.48200 0.00200
H 	H 	0.98260 0.88720 0.43420 0.06600
H 	H 	0.99560 0.89040 0.37560 0.03800
H 	H 	0.07110 0.76150 0.44210 -0.00000
H 	H 	0.11810 0.77470 0.43310 0.06700
H 	H 	0.12150 0.77750 0.48170 0.03800
H 	H 	0.02900 0.75440 0.54440 0.01200
H 	H 	0.45440 0.31200 0.68680 0.00100
H 	H 	0.39910 0.35430 0.68170 0.06600
H 	H 	0.34960 0.36200 0.73400 0.03700
H 	H 	0.41110 0.27550 0.79250 0.01300
H 	H 	0.32080 0.18940 0.98240 -0.00200
H 	H 	0.36990 0.18230 0.93090 0.06500
H 	H 	0.37060 0.23020 0.87540 0.03800
H 	H 	0.27450 0.28930 0.92830 0.01600
H 	H 	0.29030 0.41790 0.78350 0.01000
H 	H 	0.20420 0.48200 0.83460 0.00200
H 	H 	0.19600 0.43420 0.88720 0.06600
H 	H 	0.23840 0.37560 0.89040 0.03800
H 	H 	0.22530 0.44210 0.76150 -0.00000
H 	H 	0.17410 0.43310 0.77470 0.06700
H 	H 	0.11930 0.48170 0.77750 0.03800
H 	H 	0.17220 0.54440 0.75440 0.01200
H 	H 	0.18680 0.54680 0.95440 0.00100
H 	H 	0.18170 0.56490 0.89910 0.06600
H 	H 	0.23400 0.55440 0.84960 0.03700
H 	H 	0.29250 0.52090 0.91110 0.01300
H 	H 	0.48240 0.50740 0.82080 -0.00200
H 	H 	0.43090 0.51690 0.86990 0.06500
H 	H 	0.37540 0.52380 0.87060 0.03800
H 	H 	0.42830 0.50790 0.77450 0.01600
H 	H 	0.28350 0.50830 0.79030 0.01000
H 	H 	0.33460 0.47920 0.70420 0.00200
H 	H 	0.38720 0.48260 0.69600 0.06600
H 	H 	0.39040 0.49560 0.73840 0.03800
H 	H 	0.26150 0.57110 0.72530 -0.00000
H 	H 	0.27470 0.61810 0.67410 0.06700
H 	H 	0.27750 0.62150 0.61930 0.03800
H 	H 	0.25440 0.52900 0.67220 0.01200
H 	H 	0.81200 0.95440 0.54680 0.00100
H 	H 	0.85430 0.89910 0.56490 0.06600
H 	H 	0.86200 0.84960 0.55440 0.03700
H 	H 	0.77550 0.91110 0.52090 0.01300
H 	H 	0.68940 0.82080 0.50740 -0.00200
H 	H 	0.68230 0.86990 0.51690 0.06500
H 	H 	0.73020 0.87060 0.52380 0.03800
H 	H 	0.78930 0.77450 0.50790 0.01600
H 	H 	0.91790 0.79030 0.50830 0.01000
H 	H 	0.98200 0.70420 0.47920 0.00200
H 	H 	0.93420 0.69600 0.48260 0.06600
H 	H 	0.87560 0.73840 0.49560 0.03800
H 	H 	0.94210 0.72530 0.57110 -0.00000
H 	H 	0.93310 0.67410 0.61810 0.06700
H 	H 	0.98170 0.61930 0.62150 0.03800
H 	H 	0.04440 0.67220 0.52900 0.01200
H 	H 	0.04680 0.31200 0.95440 0.00100
H 	H 	0.06490 0.35430 0.89910 0.06600
H 	H 	0.05440 0.36200 0.84960 0.03700
H 	H 	0.02090 0.27550 0.91110 0.01300
H 	H 	0.00740 0.18940 0.82080 -0.00200
H 	H 	0.01690 0.18230 0.86990 0.06600
H 	H 	0.02380 0.23020 0.87060 0.03800
H 	H 	0.00790 0.28930 0.77450 0.01600
H 	H 	0.00830 0.41790 0.79030 0.01000
H 	H 	0.97920 0.48200 0.70420 0.00200
H 	H 	0.98260 0.43420 0.69600 0.06600
H 	H 	0.99560 0.37560 0.73840 0.03800
H 	H 	0.07110 0.44210 0.72530 -0.00000
H 	H 	0.11810 0.43310 0.67410 0.06700
H 	H 	0.12150 0.48170 0.61930 0.03800
H 	H 	0.02900 0.54440 0.67220 0.01200
H 	H 	0.45440 0.68680 0.54680 0.00100
H 	H 	0.39910 0.68170 0.56490 0.06600
H 	H 	0.34960 0.73400 0.55440 0.03700
H 	H 	0.41110 0.79250 0.52090 0.01300
H 	H 	0.32080 0.98240 0.50740 -0.00200
H 	H 	0.36990 0.93090 0.51690 0.06500
H 	H 	0.37060 0.87540 0.52380 0.03800
H 	H 	0.27450 0.92830 0.50790 0.01600
H 	H 	0.29030 0.78350 0.50830 0.01000
H 	H 	0.20420 0.83460 0.47920 0.00200
H 	H 	0.19600 0.88720 0.48260 0.06600
H 	H 	0.23840 0.89040 0.49560 0.03800
H 	H 	0.22530 0.76150 0.57110 -0.00000
H 	H 	0.17410 0.77470 0.61810 0.06700
H 	H 	0.11930 0.77750 0.62150 0.03800
H 	H 	0.17220 0.75440 0.52900 0.01200
H 	H 	0.18680 0.95440 0.31200 0.00100
H 	H 	0.18170 0.89910 0.35430 0.06600
H 	H 	0.23400 0.84960 0.36200 0.03700
H 	H 	0.29250 0.91110 0.27550 0.01300
H 	H 	0.48240 0.82080 0.18940 -0.00200
H 	H 	0.43090 0.86990 0.18230 0.06500
H 	H 	0.37540 0.87060 0.23020 0.03800
H 	H 	0.42830 0.77450 0.28930 0.01600
H 	H 	0.28350 0.79030 0.41790 0.01000
H 	H 	0.33460 0.70420 0.48200 0.00200
H 	H 	0.38720 0.69600 0.43420 0.06600
H 	H 	0.39040 0.73840 0.37560 0.03800
H 	H 	0.26150 0.72530 0.44210 -0.00000
H 	H 	0.27470 0.67410 0.43310 0.06700
H 	H 	0.27750 0.61930 0.48170 0.03800
H 	H 	0.25440 0.67220 0.54440 0.01200
H 	H 	0.81200 0.54680 0.68680 0.00100
H 	H 	0.85430 0.56490 0.68170 0.06600
H 	H 	0.86200 0.55440 0.73400 0.03700
H 	H 	0.77550 0.52090 0.79250 0.01300
H 	H 	0.68940 0.50740 0.98240 -0.00200
H 	H 	0.68230 0.51690 0.93090 0.06500
H 	H 	0.73020 0.52380 0.87540 0.03800
H 	H 	0.78930 0.50790 0.92830 0.01600
H 	H 	0.91790 0.50830 0.78350 0.01000
H 	H 	0.98200 0.47920 0.83460 0.00200
H 	H 	0.93420 0.48260 0.88720 0.06600
H 	H 	0.87560 0.49560 0.89040 0.03800
H 	H 	0.94210 0.57110 0.76150 -0.00000
H 	H 	0.93310 0.61810 0.77470 0.06700
H 	H 	0.98170 0.62150 0.77750 0.03800
H 	H 	0.04440 0.52900 0.75440 0.01200
H 	H 	0.04560 0.95320 0.81320 0.00100
H 	H 	0.10090 0.93510 0.81830 0.06600
H 	H 	0.15040 0.94560 0.76600 0.03700
H 	H 	0.08890 0.97910 0.70750 0.01300
H 	H 	0.17920 0.99260 0.51760 -0.00200
H 	H 	0.13010 0.98310 0.56910 0.06500
H 	H 	0.12940 0.97620 0.62460 0.03800
H 	H 	0.22550 0.99210 0.57170 0.01600
H 	H 	0.20970 0.99170 0.71650 0.01000
H 	H 	0.29580 0.02080 0.66540 0.00200
H 	H 	0.30400 0.01740 0.61280 0.06600
H 	H 	0.26160 0.00440 0.60960 0.03800
H 	H 	0.27470 0.92890 0.73850 -0.00000
H 	H 	0.32590 0.88190 0.72530 0.06700
H 	H 	0.38070 0.87850 0.72250 0.03800
H 	H 	0.32780 0.97100 0.74560 0.01200
H 	H 	0.45320 0.54560 0.18800 0.00100
H 	H 	0.43510 0.60090 0.14570 0.06600
H 	H 	0.44560 0.65040 0.13800 0.03700
H 	H 	0.47910 0.58890 0.22450 0.01300
H 	H 	0.49260 0.67920 0.31060 -0.00200
H 	H 	0.48310 0.63010 0.31770 0.06500
H 	H 	0.47620 0.62940 0.26980 0.03800
H 	H 	0.49210 0.72550 0.21070 0.01600
H 	H 	0.49170 0.70970 0.08210 0.01000
H 	H 	0.52080 0.79580 0.01800 0.00200
H 	H 	0.51740 0.80400 0.06580 0.06600
H 	H 	0.50440 0.76160 0.12440 0.03800
H 	H 	0.42890 0.77470 0.05790 -0.00000
H 	H 	0.38190 0.82590 0.06690 0.06700
H 	H 	0.37850 0.88070 0.01830 0.03800
H 	H 	0.47100 0.82780 0.95560 0.01200
H 	H 	0.68800 0.81320 0.95320 0.00100
H 	H 	0.64570 0.81830 0.93510 0.06600
H 	H 	0.63800 0.76600 0.94560 0.03700
H 	H 	0.72450 0.70750 0.97910 0.01300
H 	H 	0.81060 0.51760 0.99260 -0.00200
H 	H 	0.81770 0.56910 0.98310 0.06500
H 	H 	0.76980 0.62460 0.97620 0.03800
H 	H 	0.71070 0.57170 0.99210 0.01600
H 	H 	0.58210 0.71650 0.99170 0.01000
H 	H 	0.51800 0.66540 0.02080 0.00200
H 	H 	0.56580 0.61280 0.01740 0.06600
H 	H 	0.62440 0.60960 0.00440 0.03800
H 	H 	0.55790 0.73850 0.92890 -0.00000
H 	H 	0.56690 0.72530 0.88190 0.06700
H 	H 	0.51830 0.72250 0.87850 0.03800
H 	H 	0.45560 0.74560 0.97100 0.01200
H 	H 	0.31320 0.18800 0.54560 0.00100
H 	H 	0.31830 0.14570 0.60090 0.06600
H 	H 	0.26600 0.13800 0.65040 0.03700
H 	H 	0.20750 0.22450 0.58890 0.01300
H 	H 	0.01760 0.31060 0.67920 -0.00200
H 	H 	0.06910 0.31770 0.63010 0.06500
H 	H 	0.12460 0.26980 0.62940 0.03800
H 	H 	0.07170 0.21070 0.72550 0.01600
H 	H 	0.21650 0.08210 0.70970 0.01000
H 	H 	0.16540 0.01800 0.79580 0.00200
H 	H 	0.11280 0.06580 0.80400 0.06600
H 	H 	0.10960 0.12440 0.76160 0.03800
H 	H 	0.23850 0.05790 0.77470 -0.00000
H 	H 	0.22530 0.06690 0.82590 0.06700
H 	H 	0.22250 0.01830 0.88070 0.03800
H 	H 	0.24560 0.95560 0.82780 0.01200
H 	H 	0.31320 0.95320 0.18800 0.00100
H 	H 	0.31830 0.93510 0.14570 0.06600
H 	H 	0.26600 0.94560 0.13800 0.03700
H 	H 	0.20750 0.97910 0.22450 0.01300
H 	H 	0.01760 0.99260 0.31060 -0.00200
H 	H 	0.06910 0.98310 0.31770 0.06600
H 	H 	0.12460 0.97620 0.26980 0.03800
H 	H 	0.07170 0.99210 0.21070 0.01600
H 	H 	0.21650 0.99170 0.08210 0.01000
H 	H 	0.16540 0.02080 0.01800 0.00200
H 	H 	0.11280 0.01740 0.06580 0.06600
H 	H 	0.10960 0.00440 0.12440 0.03800
H 	H 	0.23850 0.92890 0.05790 -0.00000
H 	H 	0.22530 0.88190 0.06690 0.06700
H 	H 	0.22250 0.87850 0.01830 0.03800
H 	H 	0.24560 0.97100 0.95560 0.01200
H 	H 	0.68800 0.54560 0.81320 0.00100
H 	H 	0.64570 0.60090 0.81830 0.06600
H 	H 	0.63800 0.65040 0.76600 0.03700
H 	H 	0.72450 0.58890 0.70750 0.01300
H 	H 	0.81060 0.67920 0.51760 -0.00200
H 	H 	0.81770 0.63010 0.56910 0.06500
H 	H 	0.76980 0.62940 0.62460 0.03800
H 	H 	0.71070 0.72550 0.57170 0.01600
H 	H 	0.58210 0.70970 0.71650 0.01000
H 	H 	0.51800 0.79580 0.66540 0.00200
H 	H 	0.56580 0.80400 0.61280 0.06600
H 	H 	0.62440 0.76160 0.60960 0.03800
H 	H 	0.55790 0.77470 0.73850 -0.00000
H 	H 	0.56690 0.82590 0.72530 0.06700
H 	H 	0.51830 0.88070 0.72250 0.03800
H 	H 	0.45560 0.82780 0.74560 0.01200
H 	H 	0.45320 0.81320 0.54560 0.00100
H 	H 	0.43510 0.81830 0.60090 0.06600
H 	H 	0.44560 0.76600 0.65040 0.03700
H 	H 	0.47910 0.70750 0.58890 0.01300
H 	H 	0.49260 0.51760 0.67920 -0.00200
H 	H 	0.48310 0.56910 0.63010 0.06500
H 	H 	0.47620 0.62460 0.62940 0.03800
H 	H 	0.49210 0.57170 0.72550 0.01600
H 	H 	0.49170 0.71650 0.70970 0.01000
H 	H 	0.52080 0.66540 0.79580 0.00200
H 	H 	0.51740 0.61280 0.80400 0.06600
H 	H 	0.50440 0.60960 0.76160 0.03800
H 	H 	0.42890 0.73850 0.77470 -0.00000
H 	H 	0.38190 0.72530 0.82590 0.06700
H 	H 	0.37850 0.72250 0.88070 0.03800
H 	H 	0.47100 0.74560 0.82780 0.01200
H 	H 	0.04560 0.18800 0.95320 0.00100
H 	H 	0.10090 0.14570 0.93510 0.06600
H 	H 	0.15040 0.13800 0.94560 0.03700
H 	H 	0.08890 0.22450 0.97910 0.01300
H 	H 	0.17920 0.31060 0.99260 -0.00200
H 	H 	0.13010 0.31770 0.98310 0.06500
H 	H 	0.12940 0.26980 0.97620 0.03800
H 	H 	0.22550 0.21070 0.99210 0.01600
H 	H 	0.20970 0.08210 0.99170 0.01000
H 	H 	0.29580 0.01800 0.02080 0.00200
H 	H 	0.30400 0.06580 0.01740 0.06600
H 	H 	0.26160 0.12440 0.00440 0.03800
H 	H 	0.27470 0.05790 0.92890 -0.00000
H 	H 	0.32590 0.06690 0.88190 0.06700
H 	H 	0.38070 0.01830 0.87850 0.03800
H 	H 	0.32780 0.95560 0.97100 0.01200
H 	H 	0.68800 0.95320 0.54560 0.00100
H 	H 	0.64570 0.93510 0.60090 0.06600
H 	H 	0.63800 0.94560 0.65040 0.03700
H 	H 	0.72450 0.97910 0.58890 0.01300
H 	H 	0.81060 0.99260 0.67920 -0.00200
H 	H 	0.81770 0.98310 0.63010 0.06500
H 	H 	0.76980 0.97620 0.62940 0.03800
H 	H 	0.71070 0.99210 0.72550 0.01600
H 	H 	0.58210 0.99170 0.70970 0.01000
H 	H 	0.51800 0.02080 0.79580 0.00200
H 	H 	0.56580 0.01740 0.80400 0.06600
H 	H 	0.62440 0.00440 0.76160 0.03800
H 	H 	0.55790 0.92890 0.77470 -0.00000
H 	H 	0.56690 0.88190 0.82590 0.06700
H 	H 	0.51830 0.87850 0.88070 0.03800
H 	H 	0.45560 0.97100 0.82780 0.01200
H 	H 	0.31320 0.54560 0.95320 0.00100
H 	H 	0.31830 0.60090 0.93510 0.06600
H 	H 	0.26600 0.65040 0.94560 0.03700
H 	H 	0.20750 0.58890 0.97910 0.01300
H 	H 	0.01760 0.67920 0.99260 -0.00200
H 	H 	0.06910 0.63010 0.98310 0.06600
H 	H 	0.12460 0.62940 0.97620 0.03800
H 	H 	0.07170 0.72550 0.99210 0.01600
H 	H 	0.21650 0.70970 0.99170 0.01000
H 	H 	0.16540 0.79580 0.02080 0.00200
H 	H 	0.11280 0.80400 0.01740 0.06600
H 	H 	0.10960 0.76160 0.00440 0.03800
H 	H 	0.23850 0.77470 0.92890 -0.00000
H 	H 	0.22530 0.82590 0.88190 0.06700
H 	H 	0.22250 0.88070 0.87850 0.03800
H 	H 	0.24560 0.82780 0.97100 0.01200
H 	H 	0.04560 0.81320 0.18800 0.00100
H 	H 	0.10090 0.81830 0.14570 0.06600
H 	H 	0.15040 0.76600 0.13800 0.03700
H 	H 	0.08890 0.70750 0.22450 0.01300
H 	H 	0.17920 0.51760 0.31060 -0.00200
H 	H 	0.13010 0.56910 0.31770 0.06500
H 	H 	0.12940 0.62460 0.26980 0.03800
H 	H 	0.22550 0.57170 0.21070 0.01600
H 	H 	0.20970 0.71650 0.08210 0.01000
H 	H 	0.29580 0.66540 0.01800 0.00200
H 	H 	0.30400 0.61280 0.06580 0.06600
H 	H 	0.26160 0.60960 0.12440 0.03800
H 	H 	0.27470 0.73850 0.05790 -0.00000
H 	H 	0.32590 0.72530 0.06690 0.06700
H 	H 	0.38070 0.72250 0.01830 0.03800
H 	H 	0.32780 0.74560 0.95560 0.01200
H 	H 	0.45320 0.18800 0.81320 0.00100
H 	H 	0.43510 0.14570 0.81830 0.06600
H 	H 	0.44560 0.13800 0.76600 0.03700
H 	H 	0.47910 0.22450 0.70750 0.01300
H 	H 	0.49260 0.31060 0.51760 -0.00200
H 	H 	0.48310 0.31770 0.56910 0.06500
H 	H 	0.47620 0.26980 0.62460 0.03800
H 	H 	0.49210 0.21070 0.57170 0.01600
H 	H 	0.49170 0.08210 0.71650 0.01000
H 	H 	0.52080 0.01800 0.66540 0.00200
H 	H 	0.51740 0.06580 0.61280 0.06600
H 	H 	0.50440 0.12440 0.60960 0.03800
H 	H 	0.42890 0.05790 0.73850 -0.00000
H 	H 	0.38190 0.06690 0.72530 0.06700
H 	H 	0.37850 0.01830 0.72250 0.03800
H 	H 	0.47100 0.95560 0.74560 0.01200
C 	C 	0.96014 0.97778 0.33582 0.10100
C 	C 	0.95563 0.06597 0.29189 0.05800
C 	C 	0.94545 0.09869 0.29515 -0.10000
C 	C 	0.95054 0.12820 0.26438 0.00900
C 	C 	0.96292 0.12450 0.23134 -0.05000
C 	C 	0.97127 0.09105 0.23033 0.03700
C 	C 	0.99074 0.17884 0.03960 0.06100
C 	C 	0.98472 0.14956 0.07024 -0.09900
C 	C 	0.98100 0.14894 0.10294 0.00700
C 	C 	0.98447 0.17761 0.10311 -0.04800
C 	C 	0.99044 0.20568 0.07124 0.03500
C 	C 	0.98168 0.17822 0.13674 0.13400
C 	C 	0.97074 0.15396 0.19686 0.13800
C 	C 	0.98535 0.20421 0.16535 0.13400
C 	C 	0.99530 0.23138 0.16406 -0.05100
C 	C 	0.99704 0.22904 0.19490 0.04300
C 	C 	0.01386 0.27930 0.16514 0.06000
C 	C 	0.01253 0.28389 0.13365 -0.09900
C 	C 	0.00412 0.25946 0.13176 0.00800
C 	C 	0.94580 0.20458 0.29678 0.11200
C 	C 	0.92796 0.29678 0.23712 0.06100
C 	C 	0.89995 0.32683 0.22955 -0.10200
C 	C 	0.89782 0.35918 0.22808 0.00900
C 	C 	0.92419 0.35955 0.23481 -0.05100
C 	C 	0.95253 0.32753 0.24161 0.03900
C 	C 	0.92344 0.39310 0.23356 0.13700
C 	C 	0.47778 0.46014 0.72626 0.10100
C 	C 	0.56597 0.45563 0.68651 0.05800
C 	C 	0.59869 0.44545 0.66071 -0.10000
C 	C 	0.62820 0.45054 0.65688 0.00900
C 	C 	0.62450 0.46292 0.68124 -0.05000
C 	C 	0.59105 0.47127 0.70735 0.03700
C 	C 	0.67884 0.49074 0.79082 0.06100
C 	C 	0.64956 0.48472 0.79548 -0.09900
C 	C 	0.64894 0.48100 0.76712 0.00700
C 	C 	0.67761 0.48447 0.73481 -0.04800
C 	C 	0.70568 0.49044 0.73264 0.03500
C 	C 	0.67822 0.48168 0.70336 0.13400
C 	C 	0.65396 0.47074 0.67844 0.13800
C 	C 	0.70421 0.48535 0.64509 0.13400
C 	C 	0.73138 0.49530 0.60926 -0.05100
C 	C 	0.72904 0.49704 0.57902 0.04300
C 	C 	0.77930 0.51386 0.54170 0.06000
C 	C 	0.78389 0.51253 0.56993 -0.09900
C 	C 	0.75946 0.50412 0.60466 0.00800
C 	C 	0.70458 0.44580 0.55284 0.11200
C 	C 	0.79678 0.42796 0.53814 0.06100
C 	C 	0.82683 0.39995 0.54367 -0.10200
C 	C 	0.85918 0.39782 0.51492 0.00900
C 	C 	0.85955 0.42419 0.48145 -0.05100
C 	C 	0.82753 0.45253 0.47833 0.03900
C 	C 	0.89310 0.42344 0.44990 0.13700
C 	C 	0.83582 0.72626 0.46014 0.10100
C 	C 	0.79189 0.68651 0.45563 0.05800
C 	C 	0.79515 0.66071 0.44545 -0.10000
C 	C 	0.76438 0.65688 0.45054 0.00900
C 	C 	0.73134 0.68124 0.46292 -0.05000
C 	C 	0.73033 0.70735 0.47127 0.03700
C 	C 	0.53960 0.79082 0.49074 0.06100
C 	C 	0.57024 0.79548 0.48472 -0.09900
C 	C 	0.60294 0.76712 0.48100 0.00700
C 	C 	0.60311 0.73481 0.48447 -0.04800
C 	C 	0.57124 0.73264 0.49044 0.03500
C 	C 	0.63674 0.70336 0.48168 0.13400
C 	C 	0.69686 0.67844 0.47074 0.13800
C 	C 	0.66535 0.64509 0.48535 0.13400
C 	C 	0.66406 0.60926 0.49530 -0.05100
C 	C 	0.69490 0.57902 0.49704 0.04300
C 	C 	0.66514 0.54170 0.51386 0.06000
C 	C 	0.63365 0.56993 0.51253 -0.09900
C 	C 	0.63176 0.60466 0.50412 0.00800
C 	C 	0.79678 0.55284 0.44580 0.11200
C 	C 	0.73712 0.53814 0.42796 0.06100
C 	C 	0.72955 0.54367 0.39995 -0.10200
C 	C 	0.72808 0.51492 0.39782 0.00900
C 	C 	0.73481 0.48145 0.42419 -0.05100
C 	C 	0.74161 0.47833 0.45253 0.03900
C 	C 	0.73356 0.44990 0.42344 0.13700
C 	C 	0.22626 0.33582 0.97778 0.10100
C 	C 	0.18651 0.29189 0.06597 0.05800
C 	C 	0.16071 0.29515 0.09869 -0.10000
C 	C 	0.15688 0.26438 0.12820 0.00900
C 	C 	0.18124 0.23134 0.12450 -0.05000
C 	C 	0.20735 0.23033 0.09105 0.03700
C 	C 	0.29082 0.03960 0.17884 0.06100
C 	C 	0.29548 0.07024 0.14956 -0.09900
C 	C 	0.26712 0.10294 0.14894 0.00700
C 	C 	0.23481 0.10311 0.17761 -0.04800
C 	C 	0.23264 0.07124 0.20568 0.03500
C 	C 	0.20336 0.13674 0.17822 0.13400
C 	C 	0.17844 0.19686 0.15396 0.13800
C 	C 	0.14509 0.16535 0.20421 0.13400
C 	C 	0.10926 0.16406 0.23138 -0.05100
C 	C 	0.07902 0.19490 0.22904 0.04300
C 	C 	0.04170 0.16514 0.27930 0.06000
C 	C 	0.06993 0.13365 0.28389 -0.09900
C 	C 	0.10466 0.13176 0.25946 0.00800
C 	C 	0.05284 0.29678 0.20458 0.11200
C 	C 	0.03814 0.23712 0.29678 0.06100
C 	C 	0.04367 0.22955 0.32683 -0.10200
C 	C 	0.01492 0.22808 0.35918 0.00900
C 	C 	0.98145 0.23481 0.35955 -0.05100
C 	C 	0.97833 0.24161 0.32753 0.03900
C 	C 	0.94990 0.23356 0.39310 0.13700
C 	C 	0.96014 0.33582 0.72626 0.10100
C 	C 	0.95563 0.29189 0.68651 0.05800
C 	C 	0.94545 0.29515 0.66071 -0.10000
C 	C 	0.95054 0.26438 0.65688 0.00900
C 	C 	0.96292 0.23134 0.68124 -0.05000
C 	C 	0.97127 0.23033 0.70735 0.03700
C 	C 	0.99074 0.03960 0.79082 0.06100
C 	C 	0.98472 0.07024 0.79548 -0.09900
C 	C 	0.98100 0.10294 0.76712 0.00700
C 	C 	0.98447 0.10311 0.73481 -0.04800
C 	C 	0.99044 0.07124 0.73264 0.03500
C 	C 	0.98168 0.13674 0.70336 0.13400
C 	C 	0.97074 0.19686 0.67844 0.13800
C 	C 	0.98535 0.16535 0.64509 0.13400
C 	C 	0.99530 0.16406 0.60926 -0.05100
C 	C 	0.99704 0.19490 0.57902 0.04300
C 	C 	0.01386 0.16514 0.54170 0.06000
C 	C 	0.01253 0.13365 0.56993 -0.09900
C 	C 	0.00412 0.13176 0.60466 0.00800
C 	C 	0.94580 0.29678 0.55284 0.11200
C 	C 	0.92796 0.23712 0.53814 0.06100
C 	C 	0.89995 0.22955 0.54367 -0.10200
C 	C 	0.89782 0.22808 0.51492 0.00900
C 	C 	0.92419 0.23481 0.48145 -0.05100
C 	C 	0.95253 0.24161 0.47833 0.03900
C 	C 	0.92344 0.23356 0.44990 0.13700
C 	C 	0.47778 0.72626 0.33582 0.10100
C 	C 	0.56597 0.68651 0.29189 0.05800
C 	C 	0.59869 0.66071 0.29515 -0.10000
C 	C 	0.62820 0.65688 0.26438 0.00900
C 	C 	0.62450 0.68124 0.23134 -0.05000
C 	C 	0.59105 0.70735 0.23033 0.03700
C 	C 	0.67884 0.79082 0.03960 0.06100
C 	C 	0.64956 0.79548 0.07024 -0.09900
C 	C 	0.64894 0.76712 0.10294 0.00700
C 	C 	0.67761 0.73481 0.10311 -0.04800
C 	C 	0.70568 0.73264 0.07124 0.03500
C 	C 	0.67822 0.70336 0.13674 0.13400
C 	C 	0.65396 0.67844 0.19686 0.13800
C 	C 	0.70421 0.64509 0.16535 0.13400
C 	C 	0.73138 0.60926 0.16406 -0.05100
C 	C 	0.72904 0.57902 0.19490 0.04300
C 	C 	0.77930 0.54170 0.16514 0.06000
C 	C 	0.78389 0.56993 0.13365 -0.09900
C 	C 	0.75946 0.60466 0.13176 0.00800
C 	C 	0.70458 0.55284 0.29678 0.11200
C 	C 	0.79678 0.53814 0.23712 0.06100
C 	C 	0.82683 0.54367 0.22955 -0.10200
C 	C 	0.85918 0.51492 0.22808 0.00900
C 	C 	0.85955 0.48145 0.23481 -0.05100
C 	C 	0.82753 0.47833 0.24161 0.03900
C 	C 	0.89310 0.44990 0.23356 0.13700
C 	C 	0.83582 0.46014 0.97778 0.10100
C 	C 	0.79189 0.45563 0.06597 0.05800
C 	C 	0.79515 0.44545 0.09869 -0.10000
C 	C 	0.76438 0.45054 0.12820 0.00900
C 	C 	0.73134 0.46292 0.12450 -0.05000
C 	C 	0.73033 0.47127 0.09105 0.03700
C 	C 	0.53960 0.49074 0.17884 0.06100
C 	C 	0.57024 0.48472 0.14956 -0.09900
C 	C 	0.60294 0.48100 0.14894 0.00700
C 	C 	0.60311 0.48447 0.17761 -0.04800
C 	C 	0.57124 0.49044 0.20568 0.03500
C 	C 	0.63674 0.48168 0.17822 0.13400
C 	C 	0.69686 0.47074 0.15396 0.13800
C 	C 	0.66535 0.48535 0.20421 0.13400
C 	C 	0.66406 0.49530 0.23138 -0.05100
C 	C 	0.69490 0.49704 0.22904 0.04300
C 	C 	0.66514 0.51386 0.27930 0.06000
C 	C 	0.63365 0.51253 0.28389 -0.09900
C 	C 	0.63176 0.50412 0.25946 0.00800
C 	C 	0.79678 0.44580 0.20458 0.11200
C 	C 	0.73712 0.42796 0.29678 0.06100
C 	C 	0.72955 0.39995 0.32683 -0.10200
C 	C 	0.72808 0.39782 0.35918 0.00900
C 	C 	0.73481 0.42419 0.35955 -0.05100
C 	C 	0.74161 0.45253 0.32753 0.03900
C 	C 	0.73356 0.42344 0.39310 0.13700
C 	C 	0.22626 0.97778 0.46014 0.10100
C 	C 	0.18651 0.06597 0.45563 0.05800
C 	C 	0.16071 0.09869 0.44545 -0.10000
C 	C 	0.15688 0.12820 0.45054 0.00900
C 	C 	0.18124 0.12450 0.46292 -0.05000
C 	C 	0.20735 0.09105 0.47127 0.03700
C 	C 	0.29082 0.17884 0.49074 0.06100
C 	C 	0.29548 0.14956 0.48472 -0.09900
C 	C 	0.26712 0.14894 0.48100 0.00700
C 	C 	0.23481 0.17761 0.48447 -0.04800
C 	C 	0.23264 0.20568 0.49044 0.03500
C 	C 	0.20336 0.17822 0.48168 0.13400
C 	C 	0.17844 0.15396 0.47074 0.13800
C 	C 	0.14509 0.20421 0.48535 0.13400
C 	C 	0.10926 0.23138 0.49530 -0.05100
C 	C 	0.07902 0.22904 0.49704 0.04300
C 	C 	0.04170 0.27930 0.51386 0.06000
C 	C 	0.06993 0.28389 0.51253 -0.09900
C 	C 	0.10466 0.25946 0.50412 0.00800
C 	C 	0.05284 0.20458 0.44580 0.11200
C 	C 	0.03814 0.29678 0.42796 0.06100
C 	C 	0.04367 0.32683 0.39995 -0.10200
C 	C 	0.01492 0.35918 0.39782 0.00900
C 	C 	0.98145 0.35955 0.42419 -0.05100
C 	C 	0.97833 0.32753 0.45253 0.03900
C 	C 	0.94990 0.39310 0.42344 0.13700
C 	C 	0.96014 0.72626 0.97778 0.10100
C 	C 	0.95563 0.68651 0.06597 0.05800
C 	C 	0.94545 0.66071 0.09869 -0.10000
C 	C 	0.95054 0.65688 0.12820 0.00900
C 	C 	0.96292 0.68124 0.12450 -0.05000
C 	C 	0.97127 0.70735 0.09105 0.03700
C 	C 	0.99074 0.79082 0.17884 0.06100
C 	C 	0.98472 0.79548 0.14956 -0.09900
C 	C 	0.98100 0.76712 0.14894 0.00700
C 	C 	0.98447 0.73481 0.17761 -0.04800
C 	C 	0.99044 0.73264 0.20568 0.03500
C 	C 	0.98168 0.70336 0.17822 0.13400
C 	C 	0.97074 0.67844 0.15396 0.13800
C 	C 	0.98535 0.64509 0.20421 0.13400
C 	C 	0.99530 0.60926 0.23138 -0.05100
C 	C 	0.99704 0.57902 0.22904 0.04300
C 	C 	0.01386 0.54170 0.27930 0.06000
C 	C 	0.01253 0.56993 0.28389 -0.09900
C 	C 	0.00412 0.60466 0.25946 0.00800
C 	C 	0.94580 0.55284 0.20458 0.11200
C 	C 	0.92796 0.53814 0.29678 0.06100
C 	C 	0.89995 0.54367 0.32683 -0.10200
C 	C 	0.89782 0.51492 0.35918 0.00900
C 	C 	0.92419 0.48145 0.35955 -0.05100
C 	C 	0.95253 0.47833 0.32753 0.03900
C 	C 	0.92344 0.44990 0.39310 0.13700
C 	C 	0.47778 0.33582 0.46014 0.10100
C 	C 	0.56597 0.29189 0.45563 0.05800
C 	C 	0.59869 0.29515 0.44545 -0.10000
C 	C 	0.62820 0.26438 0.45054 0.00900
C 	C 	0.62450 0.23134 0.46292 -0.05000
C 	C 	0.59105 0.23033 0.47127 0.03700
C 	C 	0.67884 0.03960 0.49074 0.06100
C 	C 	0.64956 0.07024 0.48472 -0.09900
C 	C 	0.64894 0.10294 0.48100 0.00700
C 	C 	0.67761 0.10311 0.48447 -0.04800
C 	C 	0.70568 0.07124 0.49044 0.03500
C 	C 	0.67822 0.13674 0.48168 0.13400
C 	C 	0.65396 0.19686 0.47074 0.13800
C 	C 	0.70421 0.16535 0.48535 0.13400
C 	C 	0.73138 0.16406 0.49530 -0.05100
C 	C 	0.72904 0.19490 0.49704 0.04300
C 	C 	0.77930 0.16514 0.51386 0.06000
C 	C 	0.78389 0.13365 0.51253 -0.09900
C 	C 	0.75946 0.13176 0.50412 0.00800
C 	C 	0.70458 0.29678 0.44580 0.11200
C 	C 	0.79678 0.23712 0.42796 0.06100
C 	C 	0.82683 0.22955 0.39995 -0.10200
C 	C 	0.85918 0.22808 0.39782 0.00900
C 	C 	0.85955 0.23481 0.42419 -0.05100
C 	C 	0.82753 0.24161 0.45253 0.03900
C 	C 	0.89310 0.23356 0.42344 0.13700
C 	C 	0.83582 0.97778 0.72626 0.10100
C 	C 	0.79189 0.06597 0.68651 0.05800
C 	C 	0.79515 0.09869 0.66071 -0.10000
C 	C 	0.76438 0.12820 0.65688 0.00900
C 	C 	0.73134 0.12450 0.68124 -0.05000
C 	C 	0.73033 0.09105 0.70735 0.03700
C 	C 	0.53960 0.17884 0.79082 0.06100
C 	C 	0.57024 0.14956 0.79548 -0.09900
C 	C 	0.60294 0.14894 0.76712 0.00700
C 	C 	0.60311 0.17761 0.73481 -0.04800
C 	C 	0.57124 0.20568 0.73264 0.03500
C 	C 	0.63674 0.17822 0.70336 0.13400
C 	C 	0.69686 0.15396 0.67844 0.13800
C 	C 	0.66535 0.20421 0.64509 0.13400
C 	C 	0.66406 0.23138 0.60926 -0.05100
C 	C 	0.69490 0.22904 0.57902 0.04300
C 	C 	0.66514 0.27930 0.54170 0.06000
C 	C 	0.63365 0.28389 0.56993 -0.09900
C 	C 	0.63176 0.25946 0.60466 0.00800
C 	C 	0.79678 0.20458 0.55284 0.11200
C 	C 	0.73712 0.29678 0.53814 0.06100
C 	C 	0.72955 0.32683 0.54367 -0.10200
C 	C 	0.72808 0.35918 0.51492 0.00900
C 	C 	0.73481 0.35955 0.48145 -0.05100
C 	C 	0.74161 0.32753 0.47833 0.03900
C 	C 	0.73356 0.39310 0.44990 0.13700
C 	C 	0.22626 0.46014 0.33582 0.10100
C 	C 	0.18651 0.45563 0.29189 0.05800
C 	C 	0.16071 0.44545 0.29515 -0.10000
C 	C 	0.15688 0.45054 0.26438 0.00900
C 	C 	0.18124 0.46292 0.23134 -0.05000
C 	C 	0.20735 0.47127 0.23033 0.03700
C 	C 	0.29082 0.49074 0.03960 0.06100
C 	C 	0.29548 0.48472 0.07024 -0.09900
C 	C 	0.26712 0.48100 0.10294 0.00700
C 	C 	0.23481 0.48447 0.10311 -0.04800
C 	C 	0.23264 0.49044 0.07124 0.03500
C 	C 	0.20336 0.48168 0.13674 0.13400
C 	C 	0.17844 0.47074 0.19686 0.13800
C 	C 	0.14509 0.48535 0.16535 0.13400
C 	C 	0.10926 0.49530 0.16406 -0.05100
C 	C 	0.07902 0.49704 0.19490 0.04300
C 	C 	0.04170 0.51386 0.16514 0.06000
C 	C 	0.06993 0.51253 0.13365 -0.09900
C 	C 	0.10466 0.50412 0.13176 0.00800
C 	C 	0.05284 0.44580 0.29678 0.11200
C 	C 	0.03814 0.42796 0.23712 0.06100
C 	C 	0.04367 0.39995 0.22955 -0.10200
C 	C 	0.01492 0.39782 0.22808 0.00900
C 	C 	0.98145 0.42419 0.23481 -0.05100
C 	C 	0.97833 0.45253 0.24161 0.03900
C 	C 	0.94990 0.42344 0.23356 0.13700
C 	C 	0.02222 0.03986 0.16418 0.10100
C 	C 	0.93403 0.04437 0.20811 0.05800
C 	C 	0.90131 0.05455 0.20485 -0.10000
C 	C 	0.87180 0.04946 0.23562 0.00900
C 	C 	0.87550 0.03708 0.26866 -0.05000
C 	C 	0.90895 0.02873 0.26967 0.03700
C 	C 	0.82116 0.00926 0.46040 0.06100
C 	C 	0.85044 0.01528 0.42976 -0.09900
C 	C 	0.85106 0.01900 0.39706 0.00700
C 	C 	0.82239 0.01553 0.39689 -0.04800
C 	C 	0.79432 0.00956 0.42876 0.03500
C 	C 	0.82178 0.01832 0.36326 0.13400
C 	C 	0.84604 0.02926 0.30314 0.13800
C 	C 	0.79579 0.01465 0.33465 0.13400
C 	C 	0.76862 0.00470 0.33594 -0.05100
C 	C 	0.77096 0.00296 0.30510 0.04300
C 	C 	0.72070 0.98614 0.33486 0.06000
C 	C 	0.71611 0.98747 0.36635 -0.09900
C 	C 	0.74054 0.99588 0.36824 0.00800
C 	C 	0.79542 0.05420 0.20322 0.11200
C 	C 	0.70322 0.07204 0.26288 0.06100
C 	C 	0.67317 0.10005 0.27045 -0.10200
C 	C 	0.64082 0.10218 0.27192 0.00900
C 	C 	0.64045 0.07581 0.26519 -0.05100
C 	C 	0.67247 0.04747 0.25839 0.03900
C 	C 	0.60690 0.07656 0.26644 0.13700
C 	C 	0.53986 0.52222 0.77374 0.10100
C 	C 	0.54437 0.43403 0.81349 0.05800
C 	C 	0.55455 0.40131 0.83929 -0.10000
C 	C 	0.54946 0.37180 0.84312 0.00900
C 	C 	0.53708 0.37550 0.81876 -0.05000
C 	C 	0.52873 0.40895 0.79265 0.03700
C 	C 	0.50926 0.32116 0.70918 0.06100
C 	C 	0.51528 0.35044 0.70452 -0.09900
C 	C 	0.51900 0.35106 0.73288 0.00700
C 	C 	0.51553 0.32239 0.76519 -0.04800
C 	C 	0.50956 0.29432 0.76736 0.03500
C 	C 	0.51832 0.32178 0.79664 0.13400
C 	C 	0.52926 0.34604 0.82156 0.13800
C 	C 	0.51465 0.29579 0.85491 0.13400
C 	C 	0.50470 0.26862 0.89074 -0.05100
C 	C 	0.50296 0.27096 0.92098 0.04300
C 	C 	0.48614 0.22070 0.95830 0.06000
C 	C 	0.48747 0.21611 0.93007 -0.09900
C 	C 	0.49588 0.24054 0.89534 0.00800
C 	C 	0.55420 0.29542 0.94716 0.11200
C 	C 	0.57204 0.20322 0.96186 0.06100
C 	C 	0.60005 0.17317 0.95633 -0.10200
C 	C 	0.60218 0.14082 0.98508 0.00900
C 	C 	0.57581 0.14045 0.01855 -0.05100
C 	C 	0.54747 0.17247 0.02167 0.03900
C 	C 	0.57656 0.10690 0.05010 0.13700
C 	C 	0.27374 0.16418 0.03986 0.10100
C 	C 	0.31349 0.20811 0.04437 0.05800
C 	C 	0.33929 0.20485 0.05455 -0.10000
C 	C 	0.34312 0.23562 0.04946 0.00900
C 	C 	0.31876 0.26866 0.03708 -0.05000
C 	C 	0.29265 0.26967 0.02873 0.03700
C 	C 	0.20918 0.46040 0.00926 0.06100
C 	C 	0.20452 0.42976 0.01528 -0.09900
C 	C 	0.23288 0.39706 0.01900 0.00700
C 	C 	0.26519 0.39689 0.01553 -0.04800
C 	C 	0.26736 0.42876 0.00956 0.03500
C 	C 	0.29664 0.36326 0.01832 0.13400
C 	C 	0.32156 0.30314 0.02926 0.13800
C 	C 	0.35491 0.33465 0.01465 0.13400
C 	C 	0.39074 0.33594 0.00470 -0.05100
C 	C 	0.42098 0.30510 0.00296 0.04300
C 	C 	0.45830 0.33486 0.98614 0.06000
C 	C 	0.43007 0.36635 0.98747 -0.09900
C 	C 	0.39534 0.36824 0.99588 0.00800
C 	C 	0.44716 0.20322 0.05420 0.11200
C 	C 	0.46186 0.26288 0.07204 0.06100
C 	C 	0.45633 0.27045 0.10005 -0.10200
C 	C 	0.48508 0.27192 0.10218 0.00900
C 	C 	0.51855 0.26519 0.07581 -0.05100
C 	C 	0.52167 0.25839 0.04747 0.03900
C 	C 	0.55010 0.26644 0.07656 0.13700
C 	C 	0.66418 0.77374 0.52222 0.10100
C 	C 	0.70811 0.81349 0.43403 0.05800
C 	C 	0.70485 0.83929 0.40131 -0.10000
C 	C 	0.73562 0.84312 0.37180 0.00900
C 	C 	0.76866 0.81876 0.37550 -0.05000
C 	C 	0.76967 0.79265 0.40895 0.03700
C 	C 	0.96040 0.70918 0.32116 0.06100
C 	C 	0.92976 0.70452 0.35044 -0.09900
C 	C 	0.89706 0.73288 0.35106 0.00700
C 	C 	0.89689 0.76519 0.32239 -0.04800
C 	C 	0.92876 0.76736 0.29432 0.03500
C 	C 	0.86326 0.79664 0.32178 0.13400
C 	C 	0.80314 0.82156 0.34604 0.13800
C 	C 	0.83465 0.85491 0.29579 0.13400
C 	C 	0.83594 0.89074 0.26862 -0.05100
C 	C 	0.80510 0.92098 0.27096 0.04300
C 	C 	0.83486 0.95830 0.22070 0.06000
C 	C 	0.86635 0.93007 0.21611 -0.09900
C 	C 	0.86824 0.89534 0.24054 0.00800
C 	C 	0.70322 0.94716 0.29542 0.11200
C 	C 	0.76288 0.96186 0.20322 0.06100
C 	C 	0.77045 0.95633 0.17317 -0.10200
C 	C 	0.77192 0.98508 0.14082 0.00900
C 	C 	0.76519 0.01855 0.14045 -0.05100
C 	C 	0.75839 0.02167 0.17247 0.03900
C 	C 	0.76644 0.05010 0.10690 0.13700
C 	C 	0.66418 0.03986 0.77374 0.10100
C 	C 	0.70811 0.04437 0.81349 0.05800
C 	C 	0.70485 0.05455 0.83929 -0.10000
C 	C 	0.73562 0.04946 0.84312 0.00900
C 	C 	0.76866 0.03708 0.81876 -0.05000
C 	C 	0.76967 0.02873 0.79265 0.03700
C 	C 	0.96040 0.00926 0.70918 0.06100
C 	C 	0.92976 0.01528 0.70452 -0.09900
C 	C 	0.89706 0.01900 0.73288 0.00700
C 	C 	0.89689 0.01553 0.76519 -0.04800
C 	C 	0.92876 0.00956 0.76736 0.03500
C 	C 	0.86326 0.01832 0.79664 0.13400
C 	C 	0.80314 0.02926 0.82156 0.13800
C 	C 	0.83465 0.01465 0.85491 0.13400
C 	C 	0.83594 0.00470 0.89074 -0.05100
C 	C 	0.80510 0.00296 0.92098 0.04300
C 	C 	0.83486 0.98614 0.95830 0.06000
C 	C 	0.86635 0.98747 0.93007 -0.09900
C 	C 	0.86824 0.99588 0.89534 0.00800
C 	C 	0.70322 0.05420 0.94716 0.11200
C 	C 	0.76288 0.07204 0.96186 0.06100
C 	C 	0.77045 0.10005 0.95633 -0.10200
C 	C 	0.77192 0.10218 0.98508 0.00900
C 	C 	0.76519 0.07581 0.01855 -0.05100
C 	C 	0.75839 0.04747 0.02167 0.03900
C 	C 	0.76644 0.07656 0.05010 0.13700
C 	C 	0.27374 0.52222 0.16418 0.10100
C 	C 	0.31349 0.43403 0.20811 0.05800
C 	C 	0.33929 0.40131 0.20485 -0.10000
C 	C 	0.34312 0.37180 0.23562 0.00900
C 	C 	0.31876 0.37550 0.26866 -0.05000
C 	C 	0.29265 0.40895 0.26967 0.03700
C 	C 	0.20918 0.32116 0.46040 0.06100
C 	C 	0.20452 0.35044 0.42976 -0.09900
C 	C 	0.23288 0.35106 0.39706 0.00700
C 	C 	0.26519 0.32239 0.39689 -0.04800
C 	C 	0.26736 0.29432 0.42876 0.03500
C 	C 	0.29664 0.32178 0.36326 0.13400
C 	C 	0.32156 0.34604 0.30314 0.13800
C 	C 	0.35491 0.29579 0.33465 0.13400
C 	C 	0.39074 0.26862 0.33594 -0.05100
C 	C 	0.42098 0.27096 0.30510 0.04300
C 	C 	0.45830 0.22070 0.33486 0.06000
C 	C 	0.43007 0.21611 0.36635 -0.09900
C 	C 	0.39534 0.24054 0.36824 0.00800
C 	C 	0.44716 0.29542 0.20322 0.11200
C 	C 	0.46186 0.20322 0.26288 0.06100
C 	C 	0.45633 0.17317 0.27045 -0.10200
C 	C 	0.48508 0.14082 0.27192 0.00900
C 	C 	0.51855 0.14045 0.26519 -0.05100
C 	C 	0.52167 0.17247 0.25839 0.03900
C 	C 	0.55010 0.10690 0.26644 0.13700
C 	C 	0.53986 0.16418 0.52222 0.10100
C 	C 	0.54437 0.20811 0.43403 0.05800
C 	C 	0.55455 0.20485 0.40131 -0.10000
C 	C 	0.54946 0.23562 0.37180 0.00900
C 	C 	0.53708 0.26866 0.37550 -0.05000
C 	C 	0.52873 0.26967 0.40895 0.03700
C 	C 	0.50926 0.46040 0.32116 0.06100
C 	C 	0.51528 0.42976 0.35044 -0.09900
C 	C 	0.51900 0.39706 0.35106 0.00700
C 	C 	0.51553 0.39689 0.32239 -0.04800
C 	C 	0.50956 0.42876 0.29432 0.03500
C 	C 	0.51832 0.36326 0.32178 0.13400
C 	C 	0.52926 0.30314 0.34604 0.13800
C 	C 	0.51465 0.33465 0.29579 0.13400
C 	C 	0.50470 0.33594 0.26862 -0.05100
C 	C 	0.50296 0.30510 0.27096 0.04300
C 	C 	0.48614 0.33486 0.22070 0.06000
C 	C 	0.48747 0.36635 0.21611 -0.09900
C 	C 	0.49588 0.36824 0.24054 0.00800
C 	C 	0.55420 0.20322 0.29542 0.11200
C 	C 	0.57204 0.26288 0.20322 0.06100
C 	C 	0.60005 0.27045 0.17317 -0.10200
C 	C 	0.60218 0.27192 0.14082 0.00900
C 	C 	0.57581 0.26519 0.14045 -0.05100
C 	C 	0.54747 0.25839 0.17247 0.03900
C 	C 	0.57656 0.26644 0.10690 0.13700
C 	C 	0.02222 0.77374 0.03986 0.10100
C 	C 	0.93403 0.81349 0.04437 0.05800
C 	C 	0.90131 0.83929 0.05455 -0.10000
C 	C 	0.87180 0.84312 0.04946 0.00900
C 	C 	0.87550 0.81876 0.03708 -0.05000
C 	C 	0.90895 0.79265 0.02873 0.03700
C 	C 	0.82116 0.70918 0.00926 0.06100
C 	C 	0.85044 0.70452 0.01528 -0.09900
C 	C 	0.85106 0.73288 0.01900 0.00700
C 	C 	0.82239 0.76519 0.01553 -0.04800
C 	C 	0.79432 0.76736 0.00956 0.03500
C 	C 	0.82178 0.79664 0.01832 0.13400
C 	C 	0.84604 0.82156 0.02926 0.13800
C 	C 	0.79579 0.85491 0.01465 0.13400
C 	C 	0.76862 0.89074 0.00470 -0.05100
C 	C 	0.77096 0.92098 0.00296 0.04300
C 	C 	0.72070 0.95830 0.98614 0.06000
C 	C 	0.71611 0.93007 0.98747 -0.09900
C 	C 	0.74054 0.89534 0.99588 0.00800
C 	C 	0.79542 0.94716 0.05420 0.11200
C 	C 	0.70322 0.96186 0.07204 0.06100
C 	C 	0.67317 0.95633 0.10005 -0.10200
C 	C 	0.64082 0.98508 0.10218 0.00900
C 	C 	0.64045 0.01855 0.07581 -0.05100
C 	C 	0.67247 0.02167 0.04747 0.03900
C 	C 	0.60690 0.05010 0.07656 0.13700
C 	C 	0.27374 0.03986 0.52222 0.10100
C 	C 	0.31349 0.04437 0.43403 0.05800
C 	C 	0.33929 0.05455 0.40131 -0.10000
C 	C 	0.34312 0.04946 0.37180 0.00900
C 	C 	0.31876 0.03708 0.37550 -0.05000
C 	C 	0.29265 0.02873 0.40895 0.03700
C 	C 	0.20918 0.00926 0.32116 0.06100
C 	C 	0.20452 0.01528 0.35044 -0.09900
C 	C 	0.23288 0.01900 0.35106 0.00700
C 	C 	0.26519 0.01553 0.32239 -0.04800
C 	C 	0.26736 0.00956 0.29432 0.03500
C 	C 	0.29664 0.01832 0.32178 0.13400
C 	C 	0.32156 0.02926 0.34604 0.13800
C 	C 	0.35491 0.01465 0.29579 0.13400
C 	C 	0.39074 0.00470 0.26862 -0.05100
C 	C 	0.42098 0.00296 0.27096 0.04300
C 	C 	0.45830 0.98614 0.22070 0.06000
C 	C 	0.43007 0.98747 0.21611 -0.09900
C 	C 	0.39534 0.99588 0.24054 0.00800
C 	C 	0.44716 0.05420 0.29542 0.11200
C 	C 	0.46186 0.07204 0.20322 0.06100
C 	C 	0.45633 0.10005 0.17317 -0.10200
C 	C 	0.48508 0.10218 0.14082 0.00900
C 	C 	0.51855 0.07581 0.14045 -0.05100
C 	C 	0.52167 0.04747 0.17247 0.03900
C 	C 	0.55010 0.07656 0.10690 0.13700
C 	C 	0.66418 0.52222 0.03986 0.10100
C 	C 	0.70811 0.43403 0.04437 0.05800
C 	C 	0.70485 0.40131 0.05455 -0.10000
C 	C 	0.73562 0.37180 0.04946 0.00900
C 	C 	0.76866 0.37550 0.03708 -0.05000
C 	C 	0.76967 0.40895 0.02873 0.03700
C 	C 	0.96040 0.32116 0.00926 0.06100
C 	C 	0.92976 0.35044 0.01528 -0.09900
C 	C 	0.89706 0.35106 0.01900 0.00700
C 	C 	0.89689 0.32239 0.01553 -0.04800
C 	C 	0.92876 0.29432 0.00956 0.03500
C 	C 	0.86326 0.32178 0.01832 0.13400
C 	C 	0.80314 0.34604 0.02926 0.13800
C 	C 	0.83465 0.29579 0.01465 0.13400
C 	C 	0.83594 0.26862 0.00470 -0.05000
C 	C 	0.80510 0.27096 0.00296 0.04300
C 	C 	0.83486 0.22070 0.98614 0.06000
C 	C 	0.86635 0.21611 0.98747 -0.09900
C 	C 	0.86824 0.24054 0.99588 0.00800
C 	C 	0.70322 0.29542 0.05420 0.11200
C 	C 	0.76288 0.20322 0.07204 0.06100
C 	C 	0.77045 0.17317 0.10005 -0.10200
C 	C 	0.77192 0.14082 0.10218 0.00900
C 	C 	0.76519 0.14045 0.07581 -0.05100
C 	C 	0.75839 0.17247 0.04747 0.03900
C 	C 	0.76644 0.10690 0.07656 0.13700
C 	C 	0.02222 0.16418 0.77374 0.10100
C 	C 	0.93403 0.20811 0.81349 0.05800
C 	C 	0.90131 0.20485 0.83929 -0.10000
C 	C 	0.87180 0.23562 0.84312 0.00900
C 	C 	0.87550 0.26866 0.81876 -0.05000
C 	C 	0.90895 0.26967 0.79265 0.03700
C 	C 	0.82116 0.46040 0.70918 0.06100
C 	C 	0.85044 0.42976 0.70452 -0.09900
C 	C 	0.85106 0.39706 0.73288 0.00700
C 	C 	0.82239 0.39689 0.76519 -0.04800
C 	C 	0.79432 0.42876 0.76736 0.03500
C 	C 	0.82178 0.36326 0.79664 0.13400
C 	C 	0.84604 0.30314 0.82156 0.13800
C 	C 	0.79579 0.33465 0.85491 0.13400
C 	C 	0.76862 0.33594 0.89074 -0.05100
C 	C 	0.77096 0.30510 0.92098 0.04300
C 	C 	0.72070 0.33486 0.95830 0.06000
C 	C 	0.71611 0.36635 0.93007 -0.09900
C 	C 	0.74054 0.36824 0.89534 0.00800
C 	C 	0.79542 0.20322 0.94716 0.11200
C 	C 	0.70322 0.26288 0.96186 0.06100
C 	C 	0.67317 0.27045 0.95633 -0.10200
C 	C 	0.64082 0.27192 0.98508 0.00900
C 	C 	0.64045 0.26519 0.01855 -0.05100
C 	C 	0.67247 0.25839 0.02167 0.03900
C 	C 	0.60690 0.26644 0.05010 0.13700
C 	C 	0.53986 0.77374 0.16418 0.10100
C 	C 	0.54437 0.81349 0.20811 0.05800
C 	C 	0.55455 0.83929 0.20485 -0.10000
C 	C 	0.54946 0.84312 0.23562 0.00900
C 	C 	0.53708 0.81876 0.26866 -0.05000
C 	C 	0.52873 0.79265 0.26967 0.03700
C 	C 	0.50926 0.70918 0.46040 0.06100
C 	C 	0.51528 0.70452 0.42976 -0.09900
C 	C 	0.51900 0.73288 0.39706 0.00700
C 	C 	0.51553 0.76519 0.39689 -0.04800
C 	C 	0.50956 0.76736 0.42876 0.03500
C 	C 	0.51832 0.79664 0.36326 0.13400
C 	C 	0.52926 0.82156 0.30314 0.13800
C 	C 	0.51465 0.85491 0.33465 0.13400
C 	C 	0.50470 0.89074 0.33594 -0.05100
C 	C 	0.50296 0.92098 0.30510 0.04300
C 	C 	0.48614 0.95830 0.33486 0.06000
C 	C 	0.48747 0.93007 0.36635 -0.09900
C 	C 	0.49588 0.89534 0.36824 0.00800
C 	C 	0.55420 0.94716 0.20322 0.11200
C 	C 	0.57204 0.96186 0.26288 0.06100
C 	C 	0.60005 0.95633 0.27045 -0.10200
C 	C 	0.60218 0.98508 0.27192 0.00900
C 	C 	0.57581 0.01855 0.26519 -0.05100
C 	C 	0.54747 0.02167 0.25839 0.03900
C 	C 	0.57656 0.05010 0.26644 0.13700
C 	C 	0.03986 0.02222 0.66418 0.10100
C 	C 	0.04437 0.93403 0.70811 0.05800
C 	C 	0.05455 0.90131 0.70485 -0.10000
C 	C 	0.04946 0.87180 0.73562 0.00900
C 	C 	0.03708 0.87550 0.76866 -0.05000
C 	C 	0.02873 0.90895 0.76967 0.03700
C 	C 	0.00926 0.82116 0.96040 0.06100
C 	C 	0.01528 0.85044 0.92976 -0.09900
C 	C 	0.01900 0.85106 0.89706 0.00700
C 	C 	0.01553 0.82239 0.89689 -0.04800
C 	C 	0.00956 0.79432 0.92876 0.03500
C 	C 	0.01832 0.82178 0.86326 0.13400
C 	C 	0.02926 0.84604 0.80314 0.13800
C 	C 	0.01465 0.79579 0.83465 0.13400
C 	C 	0.00470 0.76862 0.83594 -0.05100
C 	C 	0.00296 0.77096 0.80510 0.04300
C 	C 	0.98614 0.72070 0.83486 0.06000
C 	C 	0.98747 0.71611 0.86635 -0.09900
C 	C 	0.99588 0.74054 0.86824 0.00800
C 	C 	0.05420 0.79542 0.70322 0.11200
C 	C 	0.07204 0.70322 0.76288 0.06100
C 	C 	0.10005 0.67317 0.77045 -0.10200
C 	C 	0.10218 0.64082 0.77192 0.00900
C 	C 	0.07581 0.64045 0.76519 -0.05100
C 	C 	0.04747 0.67247 0.75839 0.03900
C 	C 	0.07656 0.60690 0.76644 0.13700
C 	C 	0.52222 0.53986 0.27374 0.10100
C 	C 	0.43403 0.54437 0.31349 0.05800
C 	C 	0.40131 0.55455 0.33929 -0.10000
C 	C 	0.37180 0.54946 0.34312 0.00900
C 	C 	0.37550 0.53708 0.31876 -0.05000
C 	C 	0.40895 0.52873 0.29265 0.03700
C 	C 	0.32116 0.50926 0.20918 0.06100
C 	C 	0.35044 0.51528 0.20452 -0.09900
C 	C 	0.35106 0.51900 0.23288 0.00700
C 	C 	0.32239 0.51553 0.26519 -0.04800
C 	C 	0.29432 0.50956 0.26736 0.03500
C 	C 	0.32178 0.51832 0.29664 0.13400
C 	C 	0.34604 0.52926 0.32156 0.13800
C 	C 	0.29579 0.51465 0.35491 0.13400
C 	C 	0.26862 0.50470 0.39074 -0.05100
C 	C 	0.27096 0.50296 0.42098 0.04300
C 	C 	0.22070 0.48614 0.45830 0.06000
C 	C 	0.21611 0.48747 0.43007 -0.09900
C 	C 	0.24054 0.49588 0.39534 0.00800
C 	C 	0.29542 0.55420 0.44716 0.11200
C 	C 	0.20322 0.57204 0.46186 0.06100
C 	C 	0.17317 0.60005 0.45633 -0.10200
C 	C 	0.14082 0.60218 0.48508 0.00900
C 	C 	0.14045 0.57581 0.51855 -0.05100
C 	C 	0.17247 0.54747 0.52167 0.03900
C 	C 	0.10690 0.57656 0.55010 0.13700
C 	C 	0.16418 0.27374 0.53986 0.10100
C 	C 	0.20811 0.31349 0.54437 0.05800
C 	C 	0.20485 0.33929 0.55455 -0.10000
C 	C 	0.23562 0.34312 0.54946 0.00900
C 	C 	0.26866 0.31876 0.53708 -0.05000
C 	C 	0.26967 0.29265 0.52873 0.03700
C 	C 	0.46040 0.20918 0.50926 0.06100
C 	C 	0.42976 0.20452 0.51528 -0.09900
C 	C 	0.39706 0.23288 0.51900 0.00700
C 	C 	0.39689 0.26519 0.51553 -0.04800
C 	C 	0.42876 0.26736 0.50956 0.03500
C 	C 	0.36326 0.29664 0.51832 0.13400
C 	C 	0.30314 0.32156 0.52926 0.13800
C 	C 	0.33465 0.35491 0.51465 0.13400
C 	C 	0.33594 0.39074 0.50470 -0.05100
C 	C 	0.30510 0.42098 0.50296 0.04300
C 	C 	0.33486 0.45830 0.48614 0.06000
C 	C 	0.36635 0.43007 0.48747 -0.09900
C 	C 	0.36824 0.39534 0.49588 0.00800
C 	C 	0.20322 0.44716 0.55420 0.11200
C 	C 	0.26288 0.46186 0.57204 0.06100
C 	C 	0.27045 0.45633 0.60005 -0.10200
C 	C 	0.27192 0.48508 0.60218 0.00900
C 	C 	0.26519 0.51855 0.57581 -0.05100
C 	C 	0.25839 0.52167 0.54747 0.03900
C 	C 	0.26644 0.55010 0.57656 0.13700
C 	C 	0.77374 0.66418 0.02222 0.10100
C 	C 	0.81349 0.70811 0.93403 0.05800
C 	C 	0.83929 0.70485 0.90131 -0.10000
C 	C 	0.84312 0.73562 0.87180 0.00900
C 	C 	0.81876 0.76866 0.87550 -0.05000
C 	C 	0.79265 0.76967 0.90895 0.03700
C 	C 	0.70918 0.96040 0.82116 0.06100
C 	C 	0.70452 0.92976 0.85044 -0.09900
C 	C 	0.73288 0.89706 0.85106 0.00700
C 	C 	0.76519 0.89689 0.82239 -0.04800
C 	C 	0.76736 0.92876 0.79432 0.03500
C 	C 	0.79664 0.86326 0.82178 0.13400
C 	C 	0.82156 0.80314 0.84604 0.13800
C 	C 	0.85491 0.83465 0.79579 0.13400
C 	C 	0.89074 0.83594 0.76862 -0.05100
C 	C 	0.92098 0.80510 0.77096 0.04300
C 	C 	0.95830 0.83486 0.72070 0.06000
C 	C 	0.93007 0.86635 0.71611 -0.09900
C 	C 	0.89534 0.86824 0.74054 0.00800
C 	C 	0.94716 0.70322 0.79542 0.11200
C 	C 	0.96186 0.76288 0.70322 0.06100
C 	C 	0.95633 0.77045 0.67317 -0.10200
C 	C 	0.98508 0.77192 0.64082 0.00900
C 	C 	0.01855 0.76519 0.64045 -0.05100
C 	C 	0.02167 0.75839 0.67247 0.03900
C 	C 	0.05010 0.76644 0.60690 0.13700
C 	C 	0.03986 0.66418 0.27374 0.10100
C 	C 	0.04437 0.70811 0.31349 0.05800
C 	C 	0.05455 0.70485 0.33929 -0.10000
C 	C 	0.04946 0.73562 0.34312 0.00900
C 	C 	0.03708 0.76866 0.31876 -0.05000
C 	C 	0.02873 0.76967 0.29265 0.03700
C 	C 	0.00926 0.96040 0.20918 0.06100
C 	C 	0.01528 0.92976 0.20452 -0.09900
C 	C 	0.01900 0.89706 0.23288 0.00700
C 	C 	0.01553 0.89689 0.26519 -0.04800
C 	C 	0.00956 0.92876 0.26736 0.03500
C 	C 	0.01832 0.86326 0.29664 0.13400
C 	C 	0.02926 0.80314 0.32156 0.13800
C 	C 	0.01465 0.83465 0.35491 0.13400
C 	C 	0.00470 0.83594 0.39074 -0.05100
C 	C 	0.00296 0.80510 0.42098 0.04300
C 	C 	0.98614 0.83486 0.45830 0.06000
C 	C 	0.98747 0.86635 0.43007 -0.09900
C 	C 	0.99588 0.86824 0.39534 0.00800
C 	C 	0.05420 0.70322 0.44716 0.11200
C 	C 	0.07204 0.76288 0.46186 0.06100
C 	C 	0.10005 0.77045 0.45633 -0.10200
C 	C 	0.10218 0.77192 0.48508 0.00900
C 	C 	0.07581 0.76519 0.51855 -0.05100
C 	C 	0.04747 0.75839 0.52167 0.03900
C 	C 	0.07656 0.76644 0.55010 0.13700
C 	C 	0.52222 0.27374 0.66418 0.10100
C 	C 	0.43403 0.31349 0.70811 0.05800
C 	C 	0.40131 0.33929 0.70485 -0.10000
C 	C 	0.37180 0.34312 0.73562 0.00900
C 	C 	0.37550 0.31876 0.76866 -0.05000
C 	C 	0.40895 0.29265 0.76967 0.03700
C 	C 	0.32116 0.20918 0.96040 0.06100
C 	C 	0.35044 0.20452 0.92976 -0.09900
C 	C 	0.35106 0.23288 0.89706 0.00700
C 	C 	0.32239 0.26519 0.89689 -0.04800
C 	C 	0.29432 0.26736 0.92876 0.03500
C 	C 	0.32178 0.29664 0.86326 0.13400
C 	C 	0.34604 0.32156 0.80314 0.13800
C 	C 	0.29579 0.35491 0.83465 0.13400
C 	C 	0.26862 0.39074 0.83594 -0.05100
C 	C 	0.27096 0.42098 0.80510 0.04300
C 	C 	0.22070 0.45830 0.83486 0.06000
C 	C 	0.21611 0.43007 0.86635 -0.09900
C 	C 	0.24054 0.39534 0.86824 0.00800
C 	C 	0.29542 0.44716 0.70322 0.11200
C 	C 	0.20322 0.46186 0.76288 0.06100
C 	C 	0.17317 0.45633 0.77045 -0.10200
C 	C 	0.14082 0.48508 0.77192 0.00900
C 	C 	0.14045 0.51855 0.76519 -0.05100
C 	C 	0.17247 0.52167 0.75839 0.03900
C 	C 	0.10690 0.55010 0.76644 0.13700
C 	C 	0.16418 0.53986 0.02222 0.10100
C 	C 	0.20811 0.54437 0.93403 0.05800
C 	C 	0.20485 0.55455 0.90131 -0.10000
C 	C 	0.23562 0.54946 0.87180 0.00900
C 	C 	0.26866 0.53708 0.87550 -0.05000
C 	C 	0.26967 0.52873 0.90895 0.03700
C 	C 	0.46040 0.50926 0.82116 0.06100
C 	C 	0.42976 0.51528 0.85044 -0.09900
C 	C 	0.39706 0.51900 0.85106 0.00700
C 	C 	0.39689 0.51553 0.82239 -0.04800
C 	C 	0.42876 0.50956 0.79432 0.03500
C 	C 	0.36326 0.51832 0.82178 0.13400
C 	C 	0.30314 0.52926 0.84604 0.13800
C 	C 	0.33465 0.51465 0.79579 0.13400
C 	C 	0.33594 0.50470 0.76862 -0.05100
C 	C 	0.30510 0.50296 0.77096 0.04300
C 	C 	0.33486 0.48614 0.72070 0.06000
C 	C 	0.36635 0.48747 0.71611 -0.09900
C 	C 	0.36824 0.49588 0.74054 0.00800
C 	C 	0.20322 0.55420 0.79542 0.11200
C 	C 	0.26288 0.57204 0.70322 0.06100
C 	C 	0.27045 0.60005 0.67317 -0.10200
C 	C 	0.27192 0.60218 0.64082 0.00900
C 	C 	0.26519 0.57581 0.64045 -0.05100
C 	C 	0.25839 0.54747 0.67247 0.03900
C 	C 	0.26644 0.57656 0.60690 0.13700
C 	C 	0.77374 0.02222 0.53986 0.10100
C 	C 	0.81349 0.93403 0.54437 0.05800
C 	C 	0.83929 0.90131 0.55455 -0.10000
C 	C 	0.84312 0.87180 0.54946 0.00900
C 	C 	0.81876 0.87550 0.53708 -0.05000
C 	C 	0.79265 0.90895 0.52873 0.03700
C 	C 	0.70918 0.82116 0.50926 0.06100
C 	C 	0.70452 0.85044 0.51528 -0.09900
C 	C 	0.73288 0.85106 0.51900 0.00700
C 	C 	0.76519 0.82239 0.51553 -0.04800
C 	C 	0.76736 0.79432 0.50956 0.03500
C 	C 	0.79664 0.82178 0.51832 0.13400
C 	C 	0.82156 0.84604 0.52926 0.13800
C 	C 	0.85491 0.79579 0.51465 0.13400
C 	C 	0.89074 0.76862 0.50470 -0.05100
C 	C 	0.92098 0.77096 0.50296 0.04300
C 	C 	0.95830 0.72070 0.48614 0.06000
C 	C 	0.93007 0.71611 0.48747 -0.09900
C 	C 	0.89534 0.74054 0.49588 0.00800
C 	C 	0.94716 0.79542 0.55420 0.11200
C 	C 	0.96186 0.70322 0.57204 0.06100
C 	C 	0.95633 0.67317 0.60005 -0.10200
C 	C 	0.98508 0.64082 0.60218 0.00900
C 	C 	0.01855 0.64045 0.57581 -0.05100
C 	C 	0.02167 0.67247 0.54747 0.03900
C 	C 	0.05010 0.60690 0.57656 0.13700
C 	C 	0.03986 0.27374 0.02222 0.10100
C 	C 	0.04437 0.31349 0.93403 0.05800
C 	C 	0.05455 0.33929 0.90131 -0.10000
C 	C 	0.04946 0.34312 0.87180 0.00900
C 	C 	0.03708 0.31876 0.87550 -0.05000
C 	C 	0.02873 0.29265 0.90895 0.03700
C 	C 	0.00926 0.20918 0.82116 0.06100
C 	C 	0.01528 0.20452 0.85044 -0.09900
C 	C 	0.01900 0.23288 0.85106 0.00700
C 	C 	0.01553 0.26519 0.82239 -0.04800
C 	C 	0.00956 0.26736 0.79432 0.03500
C 	C 	0.01832 0.29664 0.82178 0.13400
C 	C 	0.02926 0.32156 0.84604 0.13800
C 	C 	0.01465 0.35491 0.79579 0.13400
C 	C 	0.00470 0.39074 0.76862 -0.05100
C 	C 	0.00296 0.42098 0.77096 0.04300
C 	C 	0.98614 0.45830 0.72070 0.06000
C 	C 	0.98747 0.43007 0.71611 -0.09900
C 	C 	0.99588 0.39534 0.74054 0.00800
C 	C 	0.05420 0.44716 0.79542 0.11200
C 	C 	0.07204 0.46186 0.70322 0.06100
C 	C 	0.10005 0.45633 0.67317 -0.10200
C 	C 	0.10218 0.48508 0.64082 0.00900
C 	C 	0.07581 0.51855 0.64045 -0.05100
C 	C 	0.04747 0.52167 0.67247 0.03900
C 	C 	0.07656 0.55010 0.60690 0.13700
C 	C 	0.52222 0.66418 0.53986 0.10100
C 	C 	0.43403 0.70811 0.54437 0.05800
C 	C 	0.40131 0.70485 0.55455 -0.10000
C 	C 	0.37180 0.73562 0.54946 0.00900
C 	C 	0.37550 0.76866 0.53708 -0.05000
C 	C 	0.40895 0.76967 0.52873 0.03700
C 	C 	0.32116 0.96040 0.50926 0.06100
C 	C 	0.35044 0.92976 0.51528 -0.09900
C 	C 	0.35106 0.89706 0.51900 0.00700
C 	C 	0.32239 0.89689 0.51553 -0.04800
C 	C 	0.29432 0.92876 0.50956 0.03500
C 	C 	0.32178 0.86326 0.51832 0.13400
C 	C 	0.34604 0.80314 0.52926 0.13800
C 	C 	0.29579 0.83465 0.51465 0.13400
C 	C 	0.26862 0.83594 0.50470 -0.05100
C 	C 	0.27096 0.80510 0.50296 0.04300
C 	C 	0.22070 0.83486 0.48614 0.06000
C 	C 	0.21611 0.86635 0.48747 -0.09900
C 	C 	0.24054 0.86824 0.49588 0.00800
C 	C 	0.29542 0.70322 0.55420 0.11200
C 	C 	0.20322 0.76288 0.57204 0.06100
C 	C 	0.17317 0.77045 0.60005 -0.10200
C 	C 	0.14082 0.77192 0.60218 0.00900
C 	C 	0.14045 0.76519 0.57581 -0.05100
C 	C 	0.17247 0.75839 0.54747 0.03900
C 	C 	0.10690 0.76644 0.57656 0.13700
C 	C 	0.16418 0.02222 0.27374 0.10100
C 	C 	0.20811 0.93403 0.31349 0.05800
C 	C 	0.20485 0.90131 0.33929 -0.10000
C 	C 	0.23562 0.87180 0.34312 0.00900
C 	C 	0.26866 0.87550 0.31876 -0.05000
C 	C 	0.26967 0.90895 0.29265 0.03700
C 	C 	0.46040 0.82116 0.20918 0.06100
C 	C 	0.42976 0.85044 0.20452 -0.09900
C 	C 	0.39706 0.85106 0.23288 0.00700
C 	C 	0.39689 0.82239 0.26519 -0.04800
C 	C 	0.42876 0.79432 0.26736 0.03500
C 	C 	0.36326 0.82178 0.29664 0.13400
C 	C 	0.30314 0.84604 0.32156 0.13800
C 	C 	0.33465 0.79579 0.35491 0.13400
C 	C 	0.33594 0.76862 0.39074 -0.05100
C 	C 	0.30510 0.77096 0.42098 0.04300
C 	C 	0.33486 0.72070 0.45830 0.06000
C 	C 	0.36635 0.71611 0.43007 -0.09900
C 	C 	0.36824 0.74054 0.39534 0.00800
C 	C 	0.20322 0.79542 0.44716 0.11200
C 	C 	0.26288 0.70322 0.46186 0.06100
C 	C 	0.27045 0.67317 0.45633 -0.10200
C 	C 	0.27192 0.64082 0.48508 0.00900
C 	C 	0.26519 0.64045 0.51855 -0.05100
C 	C 	0.25839 0.67247 0.52167 0.03900
C 	C 	0.26644 0.60690 0.55010 0.13700
C 	C 	0.77374 0.53986 0.66418 0.10100
C 	C 	0.81349 0.54437 0.70811 0.05800
C 	C 	0.83929 0.55455 0.70485 -0.10000
C 	C 	0.84312 0.54946 0.73562 0.00900
C 	C 	0.81876 0.53708 0.76866 -0.05000
C 	C 	0.79265 0.52873 0.76967 0.03700
C 	C 	0.70918 0.50926 0.96040 0.06100
C 	C 	0.70452 0.51528 0.92976 -0.09900
C 	C 	0.73288 0.51900 0.89706 0.00700
C 	C 	0.76519 0.51553 0.89689 -0.04800
C 	C 	0.76736 0.50956 0.92876 0.03500
C 	C 	0.79664 0.51832 0.86326 0.13400
C 	C 	0.82156 0.52926 0.80314 0.13800
C 	C 	0.85491 0.51465 0.83465 0.13400
C 	C 	0.89074 0.50470 0.83594 -0.05100
C 	C 	0.92098 0.50296 0.80510 0.04300
C 	C 	0.95830 0.48614 0.83486 0.06000
C 	C 	0.93007 0.48747 0.86635 -0.09900
C 	C 	0.89534 0.49588 0.86824 0.00800
C 	C 	0.94716 0.55420 0.70322 0.11200
C 	C 	0.96186 0.57204 0.76288 0.06100
C 	C 	0.95633 0.60005 0.77045 -0.10200
C 	C 	0.98508 0.60218 0.77192 0.00900
C 	C 	0.01855 0.57581 0.76519 -0.05100
C 	C 	0.02167 0.54747 0.75839 0.03900
C 	C 	0.05010 0.57656 0.76644 0.13700
C 	C 	0.97778 0.96014 0.83582 0.10100
C 	C 	0.06597 0.95563 0.79189 0.05800
C 	C 	0.09869 0.94545 0.79515 -0.10000
C 	C 	0.12820 0.95054 0.76438 0.00900
C 	C 	0.12450 0.96292 0.73134 -0.05000
C 	C 	0.09105 0.97127 0.73033 0.03700
C 	C 	0.17884 0.99074 0.53960 0.06100
C 	C 	0.14956 0.98472 0.57024 -0.09900
C 	C 	0.14894 0.98100 0.60294 0.00700
C 	C 	0.17761 0.98447 0.60311 -0.04800
C 	C 	0.20568 0.99044 0.57124 0.03500
C 	C 	0.17822 0.98168 0.63674 0.13400
C 	C 	0.15396 0.97074 0.69686 0.13800
C 	C 	0.20421 0.98535 0.66535 0.13400
C 	C 	0.23138 0.99530 0.66406 -0.05100
C 	C 	0.22904 0.99704 0.69490 0.04300
C 	C 	0.27930 0.01386 0.66514 0.06000
C 	C 	0.28389 0.01253 0.63365 -0.09900
C 	C 	0.25946 0.00412 0.63176 0.00800
C 	C 	0.20458 0.94580 0.79678 0.11200
C 	C 	0.29678 0.92796 0.73712 0.06100
C 	C 	0.32683 0.89995 0.72955 -0.10200
C 	C 	0.35918 0.89782 0.72808 0.00900
C 	C 	0.35955 0.92419 0.73481 -0.05100
C 	C 	0.32753 0.95253 0.74161 0.03900
C 	C 	0.39310 0.92344 0.73356 0.13700
C 	C 	0.46014 0.47778 0.22626 0.10100
C 	C 	0.45563 0.56597 0.18651 0.05800
C 	C 	0.44545 0.59869 0.16071 -0.10000
C 	C 	0.45054 0.62820 0.15688 0.00900
C 	C 	0.46292 0.62450 0.18124 -0.05000
C 	C 	0.47127 0.59105 0.20735 0.03700
C 	C 	0.49074 0.67884 0.29082 0.06100
C 	C 	0.48472 0.64956 0.29548 -0.09900
C 	C 	0.48100 0.64894 0.26712 0.00700
C 	C 	0.48447 0.67761 0.23481 -0.04800
C 	C 	0.49044 0.70568 0.23264 0.03500
C 	C 	0.48168 0.67822 0.20336 0.13400
C 	C 	0.47074 0.65396 0.17844 0.13800
C 	C 	0.48535 0.70421 0.14509 0.13400
C 	C 	0.49530 0.73138 0.10926 -0.05100
C 	C 	0.49704 0.72904 0.07902 0.04300
C 	C 	0.51386 0.77930 0.04170 0.06000
C 	C 	0.51253 0.78389 0.06993 -0.09900
C 	C 	0.50412 0.75946 0.10466 0.00800
C 	C 	0.44580 0.70458 0.05284 0.11200
C 	C 	0.42796 0.79678 0.03814 0.06100
C 	C 	0.39995 0.82683 0.04367 -0.10200
C 	C 	0.39782 0.85918 0.01492 0.00900
C 	C 	0.42419 0.85955 0.98145 -0.05100
C 	C 	0.45253 0.82753 0.97833 0.03900
C 	C 	0.42344 0.89310 0.94990 0.13700
C 	C 	0.72626 0.83582 0.96014 0.10100
C 	C 	0.68651 0.79189 0.95563 0.05800
C 	C 	0.66071 0.79515 0.94545 -0.10000
C 	C 	0.65688 0.76438 0.95054 0.00900
C 	C 	0.68124 0.73134 0.96292 -0.05000
C 	C 	0.70735 0.73033 0.97127 0.03700
C 	C 	0.79082 0.53960 0.99074 0.06100
C 	C 	0.79548 0.57024 0.98472 -0.09900
C 	C 	0.76712 0.60294 0.98100 0.00700
C 	C 	0.73481 0.60311 0.98447 -0.04800
C 	C 	0.73264 0.57124 0.99044 0.03500
C 	C 	0.70336 0.63674 0.98168 0.13400
C 	C 	0.67844 0.69686 0.97074 0.13800
C 	C 	0.64509 0.66535 0.98535 0.13400
C 	C 	0.60926 0.66406 0.99530 -0.05100
C 	C 	0.57902 0.69490 0.99704 0.04300
C 	C 	0.54170 0.66514 0.01386 0.06000
C 	C 	0.56993 0.63365 0.01253 -0.09900
C 	C 	0.60466 0.63176 0.00412 0.00800
C 	C 	0.55284 0.79678 0.94580 0.11200
C 	C 	0.53814 0.73712 0.92796 0.06100
C 	C 	0.54367 0.72955 0.89995 -0.10200
C 	C 	0.51492 0.72808 0.89782 0.00900
C 	C 	0.48145 0.73481 0.92419 -0.05100
C 	C 	0.47833 0.74161 0.95253 0.03900
C 	C 	0.44990 0.73356 0.92344 0.13700
C 	C 	0.33582 0.22626 0.47778 0.10100
C 	C 	0.29189 0.18651 0.56597 0.05800
C 	C 	0.29515 0.16071 0.59869 -0.10000
C 	C 	0.26438 0.15688 0.62820 0.00900
C 	C 	0.23134 0.18124 0.62450 -0.05000
C 	C 	0.23033 0.20735 0.59105 0.03700
C 	C 	0.03960 0.29082 0.67884 0.06100
C 	C 	0.07024 0.29548 0.64956 -0.09900
C 	C 	0.10294 0.26712 0.64894 0.00700
C 	C 	0.10311 0.23481 0.67761 -0.04800
C 	C 	0.07124 0.23264 0.70568 0.03500
C 	C 	0.13674 0.20336 0.67822 0.13400
C 	C 	0.19686 0.17844 0.65396 0.13800
C 	C 	0.16535 0.14509 0.70421 0.13400
C 	C 	0.16406 0.10926 0.73138 -0.05100
C 	C 	0.19490 0.07902 0.72904 0.04300
C 	C 	0.16514 0.04170 0.77930 0.06000
C 	C 	0.13365 0.06993 0.78389 -0.09900
C 	C 	0.13176 0.10466 0.75946 0.00800
C 	C 	0.29678 0.05284 0.70458 0.11200
C 	C 	0.23712 0.03814 0.79678 0.06100
C 	C 	0.22955 0.04367 0.82683 -0.10200
C 	C 	0.22808 0.01492 0.85918 0.00900
C 	C 	0.23481 0.98145 0.85955 -0.05100
C 	C 	0.24161 0.97833 0.82753 0.03900
C 	C 	0.23356 0.94990 0.89310 0.13700
C 	C 	0.33582 0.96014 0.22626 0.10100
C 	C 	0.29189 0.95563 0.18651 0.05800
C 	C 	0.29515 0.94545 0.16071 -0.10000
C 	C 	0.26438 0.95054 0.15688 0.00900
C 	C 	0.23134 0.96292 0.18124 -0.05000
C 	C 	0.23033 0.97127 0.20735 0.03700
C 	C 	0.03960 0.99074 0.29082 0.06100
C 	C 	0.07024 0.98472 0.29548 -0.09900
C 	C 	0.10294 0.98100 0.26712 0.00700
C 	C 	0.10311 0.98447 0.23481 -0.04800
C 	C 	0.07124 0.99044 0.23264 0.03500
C 	C 	0.13674 0.98168 0.20336 0.13400
C 	C 	0.19686 0.97074 0.17844 0.13800
C 	C 	0.16535 0.98535 0.14509 0.13400
C 	C 	0.16406 0.99530 0.10926 -0.05100
C 	C 	0.19490 0.99704 0.07902 0.04300
C 	C 	0.16514 0.01386 0.04170 0.06000
C 	C 	0.13365 0.01253 0.06993 -0.09900
C 	C 	0.13176 0.00412 0.10466 0.00800
C 	C 	0.29678 0.94580 0.05284 0.11200
C 	C 	0.23712 0.92796 0.03814 0.06100
C 	C 	0.22955 0.89995 0.04367 -0.10200
C 	C 	0.22808 0.89782 0.01492 0.00900
C 	C 	0.23481 0.92419 0.98145 -0.05100
C 	C 	0.24161 0.95253 0.97833 0.03900
C 	C 	0.23356 0.92344 0.94990 0.13700
C 	C 	0.72626 0.47778 0.83582 0.10100
C 	C 	0.68651 0.56597 0.79189 0.05800
C 	C 	0.66071 0.59869 0.79515 -0.10000
C 	C 	0.65688 0.62820 0.76438 0.00900
C 	C 	0.68124 0.62450 0.73134 -0.05000
C 	C 	0.70735 0.59105 0.73033 0.03700
C 	C 	0.79082 0.67884 0.53960 0.06100
C 	C 	0.79548 0.64956 0.57024 -0.09900
C 	C 	0.76712 0.64894 0.60294 0.00700
C 	C 	0.73481 0.67761 0.60311 -0.04800
C 	C 	0.73264 0.70568 0.57124 0.03500
C 	C 	0.70336 0.67822 0.63674 0.13400
C 	C 	0.67844 0.65396 0.69686 0.13800
C 	C 	0.64509 0.70421 0.66535 0.13400
C 	C 	0.60926 0.73138 0.66406 -0.05100
C 	C 	0.57902 0.72904 0.69490 0.04300
C 	C 	0.54170 0.77930 0.66514 0.06000
C 	C 	0.56993 0.78389 0.63365 -0.09900
C 	C 	0.60466 0.75946 0.63176 0.00800
C 	C 	0.55284 0.70458 0.79678 0.11200
C 	C 	0.53814 0.79678 0.73712 0.06100
C 	C 	0.54367 0.82683 0.72955 -0.10200
C 	C 	0.51492 0.85918 0.72808 0.00900
C 	C 	0.48145 0.85955 0.73481 -0.05100
C 	C 	0.47833 0.82753 0.74161 0.03900
C 	C 	0.44990 0.89310 0.73356 0.13700
C 	C 	0.46014 0.83582 0.47778 0.10100
C 	C 	0.45563 0.79189 0.56597 0.05800
C 	C 	0.44545 0.79515 0.59869 -0.10000
C 	C 	0.45054 0.76438 0.62820 0.00900
C 	C 	0.46292 0.73134 0.62450 -0.05000
C 	C 	0.47127 0.73033 0.59105 0.03700
C 	C 	0.49074 0.53960 0.67884 0.06100
C 	C 	0.48472 0.57024 0.64956 -0.09900
C 	C 	0.48100 0.60294 0.64894 0.00700
C 	C 	0.48447 0.60311 0.67761 -0.04800
C 	C 	0.49044 0.57124 0.70568 0.03500
C 	C 	0.48168 0.63674 0.67822 0.13400
C 	C 	0.47074 0.69686 0.65396 0.13800
C 	C 	0.48535 0.66535 0.70421 0.13400
C 	C 	0.49530 0.66406 0.73138 -0.05100
C 	C 	0.49704 0.69490 0.72904 0.04300
C 	C 	0.51386 0.66514 0.77930 0.06000
C 	C 	0.51253 0.63365 0.78389 -0.09900
C 	C 	0.50412 0.63176 0.75946 0.00800
C 	C 	0.44580 0.79678 0.70458 0.11200
C 	C 	0.42796 0.73712 0.79678 0.06100
C 	C 	0.39995 0.72955 0.82683 -0.10200
C 	C 	0.39782 0.72808 0.85918 0.00900
C 	C 	0.42419 0.73481 0.85955 -0.05100
C 	C 	0.45253 0.74161 0.82753 0.03900
C 	C 	0.42344 0.73356 0.89310 0.13700
C 	C 	0.97778 0.22626 0.96014 0.10100
C 	C 	0.06597 0.18651 0.95563 0.05800
C 	C 	0.09869 0.16071 0.94545 -0.10000
C 	C 	0.12820 0.15688 0.95054 0.00900
C 	C 	0.12450 0.18124 0.96292 -0.05000
C 	C 	0.09105 0.20735 0.97127 0.03700
C 	C 	0.17884 0.29082 0.99074 0.06100
C 	C 	0.14956 0.29548 0.98472 -0.09900
C 	C 	0.14894 0.26712 0.98100 0.00700
C 	C 	0.17761 0.23481 0.98447 -0.04800
C 	C 	0.20568 0.23264 0.99044 0.03500
C 	C 	0.17822 0.20336 0.98168 0.13400
C 	C 	0.15396 0.17844 0.97074 0.13800
C 	C 	0.20421 0.14509 0.98535 0.13400
C 	C 	0.23138 0.10926 0.99530 -0.05100
C 	C 	0.22904 0.07902 0.99704 0.04300
C 	C 	0.27930 0.04170 0.01386 0.06000
C 	C 	0.28389 0.06993 0.01253 -0.09900
C 	C 	0.25946 0.10466 0.00412 0.00800
C 	C 	0.20458 0.05284 0.94580 0.11200
C 	C 	0.29678 0.03814 0.92796 0.06100
C 	C 	0.32683 0.04367 0.89995 -0.10200
C 	C 	0.35918 0.01492 0.89782 0.00900
C 	C 	0.35955 0.98145 0.92419 -0.05100
C 	C 	0.32753 0.97833 0.95253 0.03900
C 	C 	0.39310 0.94990 0.92344 0.13700
C 	C 	0.72626 0.96014 0.47778 0.10100
C 	C 	0.68651 0.95563 0.56597 0.05800
C 	C 	0.66071 0.94545 0.59869 -0.10000
C 	C 	0.65688 0.95054 0.62820 0.00900
C 	C 	0.68124 0.96292 0.62450 -0.05000
C 	C 	0.70735 0.97127 0.59105 0.03700
C 	C 	0.79082 0.99074 0.67884 0.06100
C 	C 	0.79548 0.98472 0.64956 -0.09900
C 	C 	0.76712 0.98100 0.64894 0.00700
C 	C 	0.73481 0.98447 0.67761 -0.04800
C 	C 	0.73264 0.99044 0.70568 0.03500
C 	C 	0.70336 0.98168 0.67822 0.13400
C 	C 	0.67844 0.97074 0.65396 0.13800
C 	C 	0.64509 0.98535 0.70421 0.13400
C 	C 	0.60926 0.99530 0.73138 -0.05100
C 	C 	0.57902 0.99704 0.72904 0.04300
C 	C 	0.54170 0.01386 0.77930 0.06000
C 	C 	0.56993 0.01253 0.78389 -0.09900
C 	C 	0.60466 0.00412 0.75946 0.00800
C 	C 	0.55284 0.94580 0.70458 0.11200
C 	C 	0.53814 0.92796 0.79678 0.06100
C 	C 	0.54367 0.89995 0.82683 -0.10200
C 	C 	0.51492 0.89782 0.85918 0.00900
C 	C 	0.48145 0.92419 0.85955 -0.05100
C 	C 	0.47833 0.95253 0.82753 0.03900
C 	C 	0.44990 0.92344 0.89310 0.13700
C 	C 	0.33582 0.47778 0.96014 0.10100
C 	C 	0.29189 0.56597 0.95563 0.05800
C 	C 	0.29515 0.59869 0.94545 -0.10000
C 	C 	0.26438 0.62820 0.95054 0.00900
C 	C 	0.23134 0.62450 0.96292 -0.05000
C 	C 	0.23033 0.59105 0.97127 0.03700
C 	C 	0.03960 0.67884 0.99074 0.06100
C 	C 	0.07024 0.64956 0.98472 -0.09900
C 	C 	0.10294 0.64894 0.98100 0.00700
C 	C 	0.10311 0.67761 0.98447 -0.04800
C 	C 	0.07124 0.70568 0.99044 0.03500
C 	C 	0.13674 0.67822 0.98168 0.13400
C 	C 	0.19686 0.65396 0.97074 0.13800
C 	C 	0.16535 0.70421 0.98535 0.13400
C 	C 	0.16406 0.73138 0.99530 -0.05000
C 	C 	0.19490 0.72904 0.99704 0.04300
C 	C 	0.16514 0.77930 0.01386 0.06000
C 	C 	0.13365 0.78389 0.01253 -0.09900
C 	C 	0.13176 0.75946 0.00412 0.00800
C 	C 	0.29678 0.70458 0.94580 0.11200
C 	C 	0.23712 0.79678 0.92796 0.06100
C 	C 	0.22955 0.82683 0.89995 -0.10200
C 	C 	0.22808 0.85918 0.89782 0.00900
C 	C 	0.23481 0.85955 0.92419 -0.05100
C 	C 	0.24161 0.82753 0.95253 0.03900
C 	C 	0.23356 0.89310 0.92344 0.13700
C 	C 	0.97778 0.83582 0.22626 0.10100
C 	C 	0.06597 0.79189 0.18651 0.05800
C 	C 	0.09869 0.79515 0.16071 -0.10000
C 	C 	0.12820 0.76438 0.15688 0.00900
C 	C 	0.12450 0.73134 0.18124 -0.05000
C 	C 	0.09105 0.73033 0.20735 0.03700
C 	C 	0.17884 0.53960 0.29082 0.06100
C 	C 	0.14956 0.57024 0.29548 -0.09900
C 	C 	0.14894 0.60294 0.26712 0.00700
C 	C 	0.17761 0.60311 0.23481 -0.04800
C 	C 	0.20568 0.57124 0.23264 0.03500
C 	C 	0.17822 0.63674 0.20336 0.13400
C 	C 	0.15396 0.69686 0.17844 0.13800
C 	C 	0.20421 0.66535 0.14509 0.13400
C 	C 	0.23138 0.66406 0.10926 -0.05100
C 	C 	0.22904 0.69490 0.07902 0.04300
C 	C 	0.27930 0.66514 0.04170 0.06000
C 	C 	0.28389 0.63365 0.06993 -0.09900
C 	C 	0.25946 0.63176 0.10466 0.00800
C 	C 	0.20458 0.79678 0.05284 0.11200
C 	C 	0.29678 0.73712 0.03814 0.06100
C 	C 	0.32683 0.72955 0.04367 -0.10200
C 	C 	0.35918 0.72808 0.01492 0.00900
C 	C 	0.35955 0.73481 0.98145 -0.05100
C 	C 	0.32753 0.74161 0.97833 0.03900
C 	C 	0.39310 0.73356 0.94990 0.13700
C 	C 	0.46014 0.22626 0.83582 0.10100
C 	C 	0.45563 0.18651 0.79189 0.05800
C 	C 	0.44545 0.16071 0.79515 -0.10000
C 	C 	0.45054 0.15688 0.76438 0.00900
C 	C 	0.46292 0.18124 0.73134 -0.05000
C 	C 	0.47127 0.20735 0.73033 0.03700
C 	C 	0.49074 0.29082 0.53960 0.06100
C 	C 	0.48472 0.29548 0.57024 -0.09900
C 	C 	0.48100 0.26712 0.60294 0.00700
C 	C 	0.48447 0.23481 0.60311 -0.04800
C 	C 	0.49044 0.23264 0.57124 0.03500
C 	C 	0.48168 0.20336 0.63674 0.13400
C 	C 	0.47074 0.17844 0.69686 0.13800
C 	C 	0.48535 0.14509 0.66535 0.13400
C 	C 	0.49530 0.10926 0.66406 -0.05100
C 	C 	0.49704 0.07902 0.69490 0.04300
C 	C 	0.51386 0.04170 0.66514 0.06000
C 	C 	0.51253 0.06993 0.63365 -0.09900
C 	C 	0.50412 0.10466 0.63176 0.00800
C 	C 	0.44580 0.05284 0.79678 0.11200
C 	C 	0.42796 0.03814 0.73712 0.06100
C 	C 	0.39995 0.04367 0.72955 -0.10200
C 	C 	0.39782 0.01492 0.72808 0.00900
C 	C 	0.42419 0.98145 0.73481 -0.05100
C 	C 	0.45253 0.97833 0.74161 0.03900
C 	C 	0.42344 0.94990 0.73356 0.13700
S 	S 	0.95114 0.96800 0.37876 -0.06300
S 	S 	0.91607 0.18383 0.32365 -0.06500
S 	S 	0.46800 0.45114 0.70210 -0.06300
S 	S 	0.68383 0.41607 0.57645 -0.06500
S 	S 	0.87876 0.70210 0.45114 -0.06300
S 	S 	0.82365 0.57645 0.41607 -0.06500
S 	S 	0.20210 0.37876 0.96800 -0.06300
S 	S 	0.07645 0.32365 0.18383 -0.06500
S 	S 	0.95114 0.37876 0.70210 -0.06300
S 	S 	0.91607 0.32365 0.57645 -0.06500
S 	S 	0.46800 0.70210 0.37876 -0.06300
S 	S 	0.68383 0.57645 0.32365 -0.06500
S 	S 	0.87876 0.45114 0.96800 -0.06300
S 	S 	0.82365 0.41607 0.18383 -0.06500
S 	S 	0.20210 0.96800 0.45114 -0.06300
S 	S 	0.07645 0.18383 0.41607 -0.06500
S 	S 	0.95114 0.70210 0.96800 -0.06300
S 	S 	0.91607 0.57645 0.18383 -0.06500
S 	S 	0.46800 0.37876 0.45114 -0.06300
S 	S 	0.68383 0.32365 0.41607 -0.06500
S 	S 	0.87876 0.96800 0.70210 -0.06300
S 	S 	0.82365 0.18383 0.57645 -0.06500
S 	S 	0.20210 0.45114 0.37876 -0.06300
S 	S 	0.07645 0.41607 0.32365 -0.06500
S 	S 	0.03200 0.04886 0.12124 -0.06300
S 	S 	0.81617 0.08393 0.17635 -0.06500
S 	S 	0.54886 0.53200 0.79790 -0.06300
S 	S 	0.58393 0.31617 0.92355 -0.06500
S 	S 	0.29790 0.12124 0.04886 -0.06300
S 	S 	0.42355 0.17635 0.08393 -0.06500
S 	S 	0.62124 0.79790 0.53200 -0.06300
S 	S 	0.67635 0.92355 0.31617 -0.06500
S 	S 	0.62124 0.04886 0.79790 -0.06300
S 	S 	0.67635 0.08393 0.92355 -0.06500
S 	S 	0.29790 0.53200 0.12124 -0.06300
S 	S 	0.42355 0.31617 0.17635 -0.06500
S 	S 	0.54886 0.12124 0.53200 -0.06300
S 	S 	0.58393 0.17635 0.31617 -0.06500
S 	S 	0.03200 0.79790 0.04886 -0.06300
S 	S 	0.81617 0.92355 0.08393 -0.06500
S 	S 	0.29790 0.04886 0.53200 -0.06300
S 	S 	0.42355 0.08393 0.31617 -0.06500
S 	S 	0.62124 0.53200 0.04886 -0.06300
S 	S 	0.67635 0.31617 0.08393 -0.06500
S 	S 	0.03200 0.12124 0.79790 -0.06300
S 	S 	0.81617 0.17635 0.92355 -0.06500
S 	S 	0.54886 0.79790 0.12124 -0.06300
S 	S 	0.58393 0.92355 0.17635 -0.06500
S 	S 	0.04886 0.03200 0.62124 -0.06300
S 	S 	0.08393 0.81617 0.67635 -0.06500
S 	S 	0.53200 0.54886 0.29790 -0.06300
S 	S 	0.31617 0.58393 0.42355 -0.06500
S 	S 	0.12124 0.29790 0.54886 -0.06300
S 	S 	0.17635 0.42355 0.58393 -0.06500
S 	S 	0.79790 0.62124 0.03200 -0.06300
S 	S 	0.92355 0.67635 0.81617 -0.06500
S 	S 	0.04886 0.62124 0.29790 -0.06300
S 	S 	0.08393 0.67635 0.42355 -0.06500
S 	S 	0.53200 0.29790 0.62124 -0.06300
S 	S 	0.31617 0.42355 0.67635 -0.06500
S 	S 	0.12124 0.54886 0.03200 -0.06300
S 	S 	0.17635 0.58393 0.81617 -0.06500
S 	S 	0.79790 0.03200 0.54886 -0.06300
S 	S 	0.92355 0.81617 0.58393 -0.06500
S 	S 	0.04886 0.29790 0.03200 -0.06300
S 	S 	0.08393 0.42355 0.81617 -0.06500
S 	S 	0.53200 0.62124 0.54886 -0.06300
S 	S 	0.31617 0.67635 0.58393 -0.06500
S 	S 	0.12124 0.03200 0.29790 -0.06300
S 	S 	0.17635 0.81617 0.42355 -0.06500
S 	S 	0.79790 0.54886 0.62124 -0.06300
S 	S 	0.92355 0.58393 0.67635 -0.06500
S 	S 	0.96800 0.95114 0.87876 -0.06300
S 	S 	0.18383 0.91607 0.82365 -0.06500
S 	S 	0.45114 0.46800 0.20210 -0.06300
S 	S 	0.41607 0.68383 0.07645 -0.06500
S 	S 	0.70210 0.87876 0.95114 -0.06300
S 	S 	0.57645 0.82365 0.91607 -0.06500
S 	S 	0.37876 0.20210 0.46800 -0.06300
S 	S 	0.32365 0.07645 0.68383 -0.06500
S 	S 	0.37876 0.95114 0.20210 -0.06300
S 	S 	0.32365 0.91607 0.07645 -0.06500
S 	S 	0.70210 0.46800 0.87876 -0.06300
S 	S 	0.57645 0.68383 0.82365 -0.06500
S 	S 	0.45114 0.87876 0.46800 -0.06300
S 	S 	0.41607 0.82365 0.68383 -0.06500
S 	S 	0.96800 0.20210 0.95114 -0.06300
S 	S 	0.18383 0.07645 0.91607 -0.06500
S 	S 	0.70210 0.95114 0.46800 -0.06300
S 	S 	0.57645 0.91607 0.68383 -0.06500
S 	S 	0.37876 0.46800 0.95114 -0.06300
S 	S 	0.32365 0.68383 0.91607 -0.06500
S 	S 	0.96800 0.87876 0.20210 -0.06300
S 	S 	0.18383 0.82365 0.07645 -0.06500
S 	S 	0.45114 0.20210 0.87876 -0.06300
S 	S 	0.41607 0.07645 0.82365 -0.06500
N 	N 	0.96734 0.98592 0.30524 -0.26200
N 	N 	0.96898 0.06152 0.25964 -0.22400
N 	N 	0.99421 0.20663 0.03921 -0.22600
N 	N 	0.97331 0.15151 0.16721 -0.15100
N 	N 	0.98827 0.20533 0.13383 -0.15100
N 	N 	0.97584 0.17956 0.19754 -0.15400
N 	N 	0.00571 0.25231 0.19589 -0.22800
N 	N 	0.96613 0.21903 0.27857 -0.26700
N 	N 	0.95465 0.29633 0.24281 -0.22700
N 	N 	0.95260 0.39240 0.23426 -0.15400
N 	N 	0.48592 0.46734 0.74150 -0.26200
N 	N 	0.56152 0.46898 0.70986 -0.22400
N 	N 	0.70663 0.49421 0.75995 -0.22600
N 	N 	0.65151 0.47331 0.70797 -0.15100
N 	N 	0.70533 0.48827 0.67257 -0.15100
N 	N 	0.67956 0.47584 0.64706 -0.15400
N 	N 	0.75231 0.50571 0.54609 -0.22800
N 	N 	0.71903 0.46613 0.53627 -0.26700
N 	N 	0.79633 0.45465 0.50621 -0.22700
N 	N 	0.89240 0.45260 0.42074 -0.15400
N 	N 	0.80524 0.74150 0.46734 -0.26200
N 	N 	0.75964 0.70986 0.46898 -0.22400
N 	N 	0.53921 0.75995 0.49421 -0.22600
N 	N 	0.66721 0.70797 0.47331 -0.15100
N 	N 	0.63383 0.67257 0.48827 -0.15100
N 	N 	0.69754 0.64706 0.47584 -0.15400
N 	N 	0.69589 0.54609 0.50571 -0.22800
N 	N 	0.77857 0.53627 0.46613 -0.26700
N 	N 	0.74281 0.50621 0.45465 -0.22700
N 	N 	0.73426 0.42074 0.45260 -0.15400
N 	N 	0.24150 0.30524 0.98592 -0.26200
N 	N 	0.20986 0.25964 0.06152 -0.22400
N 	N 	0.25995 0.03921 0.20663 -0.22600
N 	N 	0.20797 0.16721 0.15151 -0.15100
N 	N 	0.17257 0.13383 0.20533 -0.15100
N 	N 	0.14706 0.19754 0.17956 -0.15400
N 	N 	0.04609 0.19589 0.25231 -0.22800
N 	N 	0.03627 0.27857 0.21903 -0.26700
N 	N 	0.00621 0.24281 0.29633 -0.22700
N 	N 	0.92074 0.23426 0.39240 -0.15400
N 	N 	0.96734 0.30524 0.74150 -0.26200
N 	N 	0.96898 0.25964 0.70986 -0.22400
N 	N 	0.99421 0.03921 0.75995 -0.22600
N 	N 	0.97331 0.16721 0.70797 -0.15100
N 	N 	0.98827 0.13383 0.67257 -0.15100
N 	N 	0.97584 0.19754 0.64706 -0.15400
N 	N 	0.00571 0.19589 0.54609 -0.22800
N 	N 	0.96613 0.27857 0.53627 -0.26700
N 	N 	0.95465 0.24281 0.50621 -0.22700
N 	N 	0.95260 0.23426 0.42074 -0.15400
N 	N 	0.48592 0.74150 0.30524 -0.26200
N 	N 	0.56152 0.70986 0.25964 -0.22400
N 	N 	0.70663 0.75995 0.03921 -0.22600
N 	N 	0.65151 0.70797 0.16721 -0.15100
N 	N 	0.70533 0.67257 0.13383 -0.15100
N 	N 	0.67956 0.64706 0.19754 -0.15400
N 	N 	0.75231 0.54609 0.19589 -0.22800
N 	N 	0.71903 0.53627 0.27857 -0.26700
N 	N 	0.79633 0.50621 0.24281 -0.22700
N 	N 	0.89240 0.42074 0.23426 -0.15400
N 	N 	0.80524 0.46734 0.98592 -0.26200
N 	N 	0.75964 0.46898 0.06152 -0.22400
N 	N 	0.53921 0.49421 0.20663 -0.22600
N 	N 	0.66721 0.47331 0.15151 -0.15100
N 	N 	0.63383 0.48827 0.20533 -0.15100
N 	N 	0.69754 0.47584 0.17956 -0.15400
N 	N 	0.69589 0.50571 0.25231 -0.22800
N 	N 	0.77857 0.46613 0.21903 -0.26700
N 	N 	0.74281 0.45465 0.29633 -0.22700
N 	N 	0.73426 0.45260 0.39240 -0.15400
N 	N 	0.24150 0.98592 0.46734 -0.26200
N 	N 	0.20986 0.06152 0.46898 -0.22400
N 	N 	0.25995 0.20663 0.49421 -0.22600
N 	N 	0.20797 0.15151 0.47331 -0.15100
N 	N 	0.17257 0.20533 0.48827 -0.15100
N 	N 	0.14706 0.17956 0.47584 -0.15400
N 	N 	0.04609 0.25231 0.50571 -0.22800
N 	N 	0.03627 0.21903 0.46613 -0.26700
N 	N 	0.00621 0.29633 0.45465 -0.22700
N 	N 	0.92074 0.39240 0.45260 -0.15400
N 	N 	0.96734 0.74150 0.98592 -0.26200
N 	N 	0.96898 0.70986 0.06152 -0.22400
N 	N 	0.99421 0.75995 0.20663 -0.22600
N 	N 	0.97331 0.70797 0.15151 -0.15100
N 	N 	0.98827 0.67257 0.20533 -0.15100
N 	N 	0.97584 0.64706 0.17956 -0.15400
N 	N 	0.00571 0.54609 0.25231 -0.22800
N 	N 	0.96613 0.53627 0.21903 -0.26700
N 	N 	0.95465 0.50621 0.29633 -0.22700
N 	N 	0.95260 0.42074 0.39240 -0.15400
N 	N 	0.48592 0.30524 0.46734 -0.26200
N 	N 	0.56152 0.25964 0.46898 -0.22400
N 	N 	0.70663 0.03921 0.49421 -0.22600
N 	N 	0.65151 0.16721 0.47331 -0.15100
N 	N 	0.70533 0.13383 0.48827 -0.15100
N 	N 	0.67956 0.19754 0.47584 -0.15400
N 	N 	0.75231 0.19589 0.50571 -0.22800
N 	N 	0.71903 0.27857 0.46613 -0.26700
N 	N 	0.79633 0.24281 0.45465 -0.22700
N 	N 	0.89240 0.23426 0.45260 -0.15400
N 	N 	0.80524 0.98592 0.74150 -0.26200
N 	N 	0.75964 0.06152 0.70986 -0.22400
N 	N 	0.53921 0.20663 0.75995 -0.22600
N 	N 	0.66721 0.15151 0.70797 -0.15100
N 	N 	0.63383 0.20533 0.67257 -0.15100
N 	N 	0.69754 0.17956 0.64706 -0.15400
N 	N 	0.69589 0.25231 0.54609 -0.22800
N 	N 	0.77857 0.21903 0.53627 -0.26700
N 	N 	0.74281 0.29633 0.50621 -0.22700
N 	N 	0.73426 0.39240 0.42074 -0.15400
N 	N 	0.24150 0.46734 0.30524 -0.26200
N 	N 	0.20986 0.46898 0.25964 -0.22400
N 	N 	0.25995 0.49421 0.03921 -0.22600
N 	N 	0.20797 0.47331 0.16721 -0.15100
N 	N 	0.17257 0.48827 0.13383 -0.15100
N 	N 	0.14706 0.47584 0.19754 -0.15400
N 	N 	0.04609 0.50571 0.19589 -0.22800
N 	N 	0.03627 0.46613 0.27857 -0.26700
N 	N 	0.00621 0.45465 0.24281 -0.22700
N 	N 	0.92074 0.45260 0.23426 -0.15400
N 	N 	0.01408 0.03266 0.19476 -0.26200
N 	N 	0.93848 0.03102 0.24036 -0.22400
N 	N 	0.79337 0.00579 0.46079 -0.22600
N 	N 	0.84849 0.02669 0.33279 -0.15100
N 	N 	0.79467 0.01173 0.36617 -0.15100
N 	N 	0.82044 0.02416 0.30246 -0.15400
N 	N 	0.74769 0.99429 0.30411 -0.22800
N 	N 	0.78097 0.03387 0.22143 -0.26700
N 	N 	0.70367 0.04535 0.25719 -0.22700
N 	N 	0.60760 0.04740 0.26574 -0.15400
N 	N 	0.53266 0.51408 0.75850 -0.26200
N 	N 	0.53102 0.43848 0.79014 -0.22400
N 	N 	0.50579 0.29337 0.74005 -0.22600
N 	N 	0.52669 0.34849 0.79203 -0.15100
N 	N 	0.51173 0.29467 0.82743 -0.15100
N 	N 	0.52416 0.32044 0.85294 -0.15400
N 	N 	0.49429 0.24769 0.95391 -0.22800
N 	N 	0.53387 0.28097 0.96373 -0.26700
N 	N 	0.54535 0.20367 0.99379 -0.22700
N 	N 	0.54740 0.10760 0.07926 -0.15400
N 	N 	0.25850 0.19476 0.03266 -0.26200
N 	N 	0.29014 0.24036 0.03102 -0.22400
N 	N 	0.24005 0.46079 0.00579 -0.22600
N 	N 	0.29203 0.33279 0.02669 -0.15100
N 	N 	0.32743 0.36617 0.01173 -0.15100
N 	N 	0.35294 0.30246 0.02416 -0.15400
N 	N 	0.45391 0.30411 0.99429 -0.22800
N 	N 	0.46373 0.22143 0.03387 -0.26700
N 	N 	0.49379 0.25719 0.04535 -0.22700
N 	N 	0.57926 0.26574 0.04740 -0.15400
N 	N 	0.69476 0.75850 0.51408 -0.26200
N 	N 	0.74036 0.79014 0.43848 -0.22400
N 	N 	0.96079 0.74005 0.29337 -0.22600
N 	N 	0.83279 0.79203 0.34849 -0.15100
N 	N 	0.86617 0.82743 0.29467 -0.15100
N 	N 	0.80246 0.85294 0.32044 -0.15400
N 	N 	0.80411 0.95391 0.24769 -0.22800
N 	N 	0.72143 0.96373 0.28097 -0.26700
N 	N 	0.75719 0.99379 0.20367 -0.22700
N 	N 	0.76574 0.07926 0.10760 -0.15400
N 	N 	0.69476 0.03266 0.75850 -0.26200
N 	N 	0.74036 0.03102 0.79014 -0.22400
N 	N 	0.96079 0.00579 0.74005 -0.22600
N 	N 	0.83279 0.02669 0.79203 -0.15100
N 	N 	0.86617 0.01173 0.82743 -0.15100
N 	N 	0.80246 0.02416 0.85294 -0.15400
N 	N 	0.80411 0.99429 0.95391 -0.22800
N 	N 	0.72143 0.03387 0.96373 -0.26700
N 	N 	0.75719 0.04535 0.99379 -0.22700
N 	N 	0.76574 0.04740 0.07926 -0.15400
N 	N 	0.25850 0.51408 0.19476 -0.26200
N 	N 	0.29014 0.43848 0.24036 -0.22400
N 	N 	0.24005 0.29337 0.46079 -0.22600
N 	N 	0.29203 0.34849 0.33279 -0.15100
N 	N 	0.32743 0.29467 0.36617 -0.15100
N 	N 	0.35294 0.32044 0.30246 -0.15400
N 	N 	0.45391 0.24769 0.30411 -0.22800
N 	N 	0.46373 0.28097 0.22143 -0.26700
N 	N 	0.49379 0.20367 0.25719 -0.22700
N 	N 	0.57926 0.10760 0.26574 -0.15400
N 	N 	0.53266 0.19476 0.51408 -0.26200
N 	N 	0.53102 0.24036 0.43848 -0.22400
N 	N 	0.50579 0.46079 0.29337 -0.22600
N 	N 	0.52669 0.33279 0.34849 -0.15100
N 	N 	0.51173 0.36617 0.29467 -0.15100
N 	N 	0.52416 0.30246 0.32044 -0.15400
N 	N 	0.49429 0.30411 0.24769 -0.22800
N 	N 	0.53387 0.22143 0.28097 -0.26700
N 	N 	0.54535 0.25719 0.20367 -0.22700
N 	N 	0.54740 0.26574 0.10760 -0.15400
N 	N 	0.01408 0.75850 0.03266 -0.26200
N 	N 	0.93848 0.79014 0.03102 -0.22400
N 	N 	0.79337 0.74005 0.00579 -0.22600
N 	N 	0.84849 0.79203 0.02669 -0.15100
N 	N 	0.79467 0.82743 0.01173 -0.15100
N 	N 	0.82044 0.85294 0.02416 -0.15400
N 	N 	0.74769 0.95391 0.99429 -0.22800
N 	N 	0.78097 0.96373 0.03387 -0.26700
N 	N 	0.70367 0.99379 0.04535 -0.22700
N 	N 	0.60760 0.07926 0.04740 -0.15400
N 	N 	0.25850 0.03266 0.51408 -0.26200
N 	N 	0.29014 0.03102 0.43848 -0.22400
N 	N 	0.24005 0.00579 0.29337 -0.22600
N 	N 	0.29203 0.02669 0.34849 -0.15100
N 	N 	0.32743 0.01173 0.29467 -0.15100
N 	N 	0.35294 0.02416 0.32044 -0.15400
N 	N 	0.45391 0.99429 0.24769 -0.22800
N 	N 	0.46373 0.03387 0.28097 -0.26700
N 	N 	0.49379 0.04535 0.20367 -0.22700
N 	N 	0.57926 0.04740 0.10760 -0.15400
N 	N 	0.69476 0.51408 0.03266 -0.26200
N 	N 	0.74036 0.43848 0.03102 -0.22400
N 	N 	0.96079 0.29337 0.00579 -0.22600
N 	N 	0.83279 0.34849 0.02669 -0.15100
N 	N 	0.86617 0.29467 0.01173 -0.15100
N 	N 	0.80246 0.32044 0.02416 -0.15400
N 	N 	0.80411 0.24769 0.99429 -0.22800
N 	N 	0.72143 0.28097 0.03387 -0.26700
N 	N 	0.75719 0.20367 0.04535 -0.22700
N 	N 	0.76574 0.10760 0.04740 -0.15400
N 	N 	0.01408 0.19476 0.75850 -0.26200
N 	N 	0.93848 0.24036 0.79014 -0.22400
N 	N 	0.79337 0.46079 0.74005 -0.22600
N 	N 	0.84849 0.33279 0.79203 -0.15100
N 	N 	0.79467 0.36617 0.82743 -0.15100
N 	N 	0.82044 0.30246 0.85294 -0.15400
N 	N 	0.74769 0.30411 0.95391 -0.22800
N 	N 	0.78097 0.22143 0.96373 -0.26700
N 	N 	0.70367 0.25719 0.99379 -0.22700
N 	N 	0.60760 0.26574 0.07926 -0.15400
N 	N 	0.53266 0.75850 0.19476 -0.26200
N 	N 	0.53102 0.79014 0.24036 -0.22400
N 	N 	0.50579 0.74005 0.46079 -0.22600
N 	N 	0.52669 0.79203 0.33279 -0.15100
N 	N 	0.51173 0.82743 0.36617 -0.15100
N 	N 	0.52416 0.85294 0.30246 -0.15400
N 	N 	0.49429 0.95391 0.30411 -0.22800
N 	N 	0.53387 0.96373 0.22143 -0.26700
N 	N 	0.54535 0.99379 0.25719 -0.22700
N 	N 	0.54740 0.07926 0.26574 -0.15400
N 	N 	0.03266 0.01408 0.69476 -0.26200
N 	N 	0.03102 0.93848 0.74036 -0.22400
N 	N 	0.00579 0.79337 0.96079 -0.22600
N 	N 	0.02669 0.84849 0.83279 -0.15100
N 	N 	0.01173 0.79467 0.86617 -0.15100
N 	N 	0.02416 0.82044 0.80246 -0.15400
N 	N 	0.99429 0.74769 0.80411 -0.22800
N 	N 	0.03387 0.78097 0.72143 -0.26700
N 	N 	0.04535 0.70367 0.75719 -0.22700
N 	N 	0.04740 0.60760 0.76574 -0.15400
N 	N 	0.51408 0.53266 0.25850 -0.26200
N 	N 	0.43848 0.53102 0.29014 -0.22400
N 	N 	0.29337 0.50579 0.24005 -0.22600
N 	N 	0.34849 0.52669 0.29203 -0.15100
N 	N 	0.29467 0.51173 0.32743 -0.15100
N 	N 	0.32044 0.52416 0.35294 -0.15400
N 	N 	0.24769 0.49429 0.45391 -0.22800
N 	N 	0.28097 0.53387 0.46373 -0.26700
N 	N 	0.20367 0.54535 0.49379 -0.22700
N 	N 	0.10760 0.54740 0.57926 -0.15400
N 	N 	0.19476 0.25850 0.53266 -0.26200
N 	N 	0.24036 0.29014 0.53102 -0.22400
N 	N 	0.46079 0.24005 0.50579 -0.22600
N 	N 	0.33279 0.29203 0.52669 -0.15100
N 	N 	0.36617 0.32743 0.51173 -0.15100
N 	N 	0.30246 0.35294 0.52416 -0.15400
N 	N 	0.30411 0.45391 0.49429 -0.22800
N 	N 	0.22143 0.46373 0.53387 -0.26700
N 	N 	0.25719 0.49379 0.54535 -0.22700
N 	N 	0.26574 0.57926 0.54740 -0.15400
N 	N 	0.75850 0.69476 0.01408 -0.26200
N 	N 	0.79014 0.74036 0.93848 -0.22400
N 	N 	0.74005 0.96079 0.79337 -0.22600
N 	N 	0.79203 0.83279 0.84849 -0.15100
N 	N 	0.82743 0.86617 0.79467 -0.15100
N 	N 	0.85294 0.80246 0.82044 -0.15400
N 	N 	0.95391 0.80411 0.74769 -0.22800
N 	N 	0.96373 0.72143 0.78097 -0.26700
N 	N 	0.99379 0.75719 0.70367 -0.22700
N 	N 	0.07926 0.76574 0.60760 -0.15400
N 	N 	0.03266 0.69476 0.25850 -0.26200
N 	N 	0.03102 0.74036 0.29014 -0.22400
N 	N 	0.00579 0.96079 0.24005 -0.22600
N 	N 	0.02669 0.83279 0.29203 -0.15100
N 	N 	0.01173 0.86617 0.32743 -0.15100
N 	N 	0.02416 0.80246 0.35294 -0.15400
N 	N 	0.99429 0.80411 0.45391 -0.22800
N 	N 	0.03387 0.72143 0.46373 -0.26700
N 	N 	0.04535 0.75719 0.49379 -0.22700
N 	N 	0.04740 0.76574 0.57926 -0.15400
N 	N 	0.51408 0.25850 0.69476 -0.26200
N 	N 	0.43848 0.29014 0.74036 -0.22400
N 	N 	0.29337 0.24005 0.96079 -0.22600
N 	N 	0.34849 0.29203 0.83279 -0.15100
N 	N 	0.29467 0.32743 0.86617 -0.15100
N 	N 	0.32044 0.35294 0.80246 -0.15400
N 	N 	0.24769 0.45391 0.80411 -0.22800
N 	N 	0.28097 0.46373 0.72143 -0.26700
N 	N 	0.20367 0.49379 0.75719 -0.22700
N 	N 	0.10760 0.57926 0.76574 -0.15400
N 	N 	0.19476 0.53266 0.01408 -0.26200
N 	N 	0.24036 0.53102 0.93848 -0.22400
N 	N 	0.46079 0.50579 0.79337 -0.22600
N 	N 	0.33279 0.52669 0.84849 -0.15100
N 	N 	0.36617 0.51173 0.79467 -0.15100
N 	N 	0.30246 0.52416 0.82044 -0.15400
N 	N 	0.30411 0.49429 0.74769 -0.22800
N 	N 	0.22143 0.53387 0.78097 -0.26700
N 	N 	0.25719 0.54535 0.70367 -0.22700
N 	N 	0.26574 0.54740 0.60760 -0.15400
N 	N 	0.75850 0.01408 0.53266 -0.26200
N 	N 	0.79014 0.93848 0.53102 -0.22400
N 	N 	0.74005 0.79337 0.50579 -0.22600
N 	N 	0.79203 0.84849 0.52669 -0.15100
N 	N 	0.82743 0.79467 0.51173 -0.15100
N 	N 	0.85294 0.82044 0.52416 -0.15400
N 	N 	0.95391 0.74769 0.49429 -0.22800
N 	N 	0.96373 0.78097 0.53387 -0.26700
N 	N 	0.99379 0.70367 0.54535 -0.22700
N 	N 	0.07926 0.60760 0.54740 -0.15400
N 	N 	0.03266 0.25850 0.01408 -0.26200
N 	N 	0.03102 0.29014 0.93848 -0.22400
N 	N 	0.00579 0.24005 0.79337 -0.22600
N 	N 	0.02669 0.29203 0.84849 -0.15100
N 	N 	0.01173 0.32743 0.79467 -0.15100
N 	N 	0.02416 0.35294 0.82044 -0.15400
N 	N 	0.99429 0.45391 0.74769 -0.22800
N 	N 	0.03387 0.46373 0.78097 -0.26700
N 	N 	0.04535 0.49379 0.70367 -0.22700
N 	N 	0.04740 0.57926 0.60760 -0.15400
N 	N 	0.51408 0.69476 0.53266 -0.26200
N 	N 	0.43848 0.74036 0.53102 -0.22400
N 	N 	0.29337 0.96079 0.50579 -0.22600
N 	N 	0.34849 0.83279 0.52669 -0.15100
N 	N 	0.29467 0.86617 0.51173 -0.15100
N 	N 	0.32044 0.80246 0.52416 -0.15400
N 	N 	0.24769 0.80411 0.49429 -0.22800
N 	N 	0.28097 0.72143 0.53387 -0.26700
N 	N 	0.20367 0.75719 0.54535 -0.22700
N 	N 	0.10760 0.76574 0.54740 -0.15400
N 	N 	0.19476 0.01408 0.25850 -0.26200
N 	N 	0.24036 0.93848 0.29014 -0.22400
N 	N 	0.46079 0.79337 0.24005 -0.22600
N 	N 	0.33279 0.84849 0.29203 -0.15100
N 	N 	0.36617 0.79467 0.32743 -0.15100
N 	N 	0.30246 0.82044 0.35294 -0.15400
N 	N 	0.30411 0.74769 0.45391 -0.22800
N 	N 	0.22143 0.78097 0.46373 -0.26700
N 	N 	0.25719 0.70367 0.49379 -0.22700
N 	N 	0.26574 0.60760 0.57926 -0.15400
N 	N 	0.75850 0.53266 0.69476 -0.26200
N 	N 	0.79014 0.53102 0.74036 -0.22400
N 	N 	0.74005 0.50579 0.96079 -0.22600
N 	N 	0.79203 0.52669 0.83279 -0.15100
N 	N 	0.82743 0.51173 0.86617 -0.15100
N 	N 	0.85294 0.52416 0.80246 -0.15400
N 	N 	0.95391 0.49429 0.80411 -0.22800
N 	N 	0.96373 0.53387 0.72143 -0.26700
N 	N 	0.99379 0.54535 0.75719 -0.22700
N 	N 	0.07926 0.54740 0.76574 -0.15400
N 	N 	0.98592 0.96734 0.80524 -0.26200
N 	N 	0.06152 0.96898 0.75964 -0.22400
N 	N 	0.20663 0.99421 0.53921 -0.22600
N 	N 	0.15151 0.97331 0.66721 -0.15100
N 	N 	0.20533 0.98827 0.63383 -0.15100
N 	N 	0.17956 0.97584 0.69754 -0.15400
N 	N 	0.25231 0.00571 0.69589 -0.22800
N 	N 	0.21903 0.96613 0.77857 -0.26700
N 	N 	0.29633 0.95465 0.74281 -0.22700
N 	N 	0.39240 0.95260 0.73426 -0.15400
N 	N 	0.46734 0.48592 0.24150 -0.26200
N 	N 	0.46898 0.56152 0.20986 -0.22400
N 	N 	0.49421 0.70663 0.25995 -0.22600
N 	N 	0.47331 0.65151 0.20797 -0.15100
N 	N 	0.48827 0.70533 0.17257 -0.15100
N 	N 	0.47584 0.67956 0.14706 -0.15400
N 	N 	0.50571 0.75231 0.04609 -0.22800
N 	N 	0.46613 0.71903 0.03627 -0.26700
N 	N 	0.45465 0.79633 0.00621 -0.22700
N 	N 	0.45260 0.89240 0.92074 -0.15400
N 	N 	0.74150 0.80524 0.96734 -0.26200
N 	N 	0.70986 0.75964 0.96898 -0.22400
N 	N 	0.75995 0.53921 0.99421 -0.22600
N 	N 	0.70797 0.66721 0.97331 -0.15100
N 	N 	0.67257 0.63383 0.98827 -0.15100
N 	N 	0.64706 0.69754 0.97584 -0.15400
N 	N 	0.54609 0.69589 0.00571 -0.22800
N 	N 	0.53627 0.77857 0.96613 -0.26700
N 	N 	0.50621 0.74281 0.95465 -0.22700
N 	N 	0.42074 0.73426 0.95260 -0.15400
N 	N 	0.30524 0.24150 0.48592 -0.26200
N 	N 	0.25964 0.20986 0.56152 -0.22400
N 	N 	0.03921 0.25995 0.70663 -0.22600
N 	N 	0.16721 0.20797 0.65151 -0.15100
N 	N 	0.13383 0.17257 0.70533 -0.15100
N 	N 	0.19754 0.14706 0.67956 -0.15400
N 	N 	0.19589 0.04609 0.75231 -0.22800
N 	N 	0.27857 0.03627 0.71903 -0.26700
N 	N 	0.24281 0.00621 0.79633 -0.22700
N 	N 	0.23426 0.92074 0.89240 -0.15400
N 	N 	0.30524 0.96734 0.24150 -0.26200
N 	N 	0.25964 0.96898 0.20986 -0.22400
N 	N 	0.03921 0.99421 0.25995 -0.22600
N 	N 	0.16721 0.97331 0.20797 -0.15100
N 	N 	0.13383 0.98827 0.17257 -0.15100
N 	N 	0.19754 0.97584 0.14706 -0.15400
N 	N 	0.19589 0.00571 0.04609 -0.22800
N 	N 	0.27857 0.96613 0.03627 -0.26700
N 	N 	0.24281 0.95465 0.00621 -0.22700
N 	N 	0.23426 0.95260 0.92074 -0.15400
N 	N 	0.74150 0.48592 0.80524 -0.26200
N 	N 	0.70986 0.56152 0.75964 -0.22400
N 	N 	0.75995 0.70663 0.53921 -0.22600
N 	N 	0.70797 0.65151 0.66721 -0.15100
N 	N 	0.67257 0.70533 0.63383 -0.15100
N 	N 	0.64706 0.67956 0.69754 -0.15400
N 	N 	0.54609 0.75231 0.69589 -0.22800
N 	N 	0.53627 0.71903 0.77857 -0.26700
N 	N 	0.50621 0.79633 0.74281 -0.22700
N 	N 	0.42074 0.89240 0.73426 -0.15400
N 	N 	0.46734 0.80524 0.48592 -0.26200
N 	N 	0.46898 0.75964 0.56152 -0.22400
N 	N 	0.49421 0.53921 0.70663 -0.22600
N 	N 	0.47331 0.66721 0.65151 -0.15100
N 	N 	0.48827 0.63383 0.70533 -0.15100
N 	N 	0.47584 0.69754 0.67956 -0.15400
N 	N 	0.50571 0.69589 0.75231 -0.22800
N 	N 	0.46613 0.77857 0.71903 -0.26700
N 	N 	0.45465 0.74281 0.79633 -0.22700
N 	N 	0.45260 0.73426 0.89240 -0.15400
N 	N 	0.98592 0.24150 0.96734 -0.26200
N 	N 	0.06152 0.20986 0.96898 -0.22400
N 	N 	0.20663 0.25995 0.99421 -0.22600
N 	N 	0.15151 0.20797 0.97331 -0.15100
N 	N 	0.20533 0.17257 0.98827 -0.15100
N 	N 	0.17956 0.14706 0.97584 -0.15400
N 	N 	0.25231 0.04609 0.00571 -0.22800
N 	N 	0.21903 0.03627 0.96613 -0.26700
N 	N 	0.29633 0.00621 0.95465 -0.22700
N 	N 	0.39240 0.92074 0.95260 -0.15400
N 	N 	0.74150 0.96734 0.48592 -0.26200
N 	N 	0.70986 0.96898 0.56152 -0.22400
N 	N 	0.75995 0.99421 0.70663 -0.22600
N 	N 	0.70797 0.97331 0.65151 -0.15100
N 	N 	0.67257 0.98827 0.70533 -0.15100
N 	N 	0.64706 0.97584 0.67956 -0.15400
N 	N 	0.54609 0.00571 0.75231 -0.22800
N 	N 	0.53627 0.96613 0.71903 -0.26700
N 	N 	0.50621 0.95465 0.79633 -0.22700
N 	N 	0.42074 0.95260 0.89240 -0.15400
N 	N 	0.30524 0.48592 0.96734 -0.26200
N 	N 	0.25964 0.56152 0.96898 -0.22400
N 	N 	0.03921 0.70663 0.99421 -0.22600
N 	N 	0.16721 0.65151 0.97331 -0.15100
N 	N 	0.13383 0.70533 0.98827 -0.15100
N 	N 	0.19754 0.67956 0.97584 -0.15400
N 	N 	0.19589 0.75231 0.00571 -0.22800
N 	N 	0.27857 0.71903 0.96613 -0.26700
N 	N 	0.24281 0.79633 0.95465 -0.22700
N 	N 	0.23426 0.89240 0.95260 -0.15400
N 	N 	0.98592 0.80524 0.24150 -0.26200
N 	N 	0.06152 0.75964 0.20986 -0.22400
N 	N 	0.20663 0.53921 0.25995 -0.22600
N 	N 	0.15151 0.66721 0.20797 -0.15100
N 	N 	0.20533 0.63383 0.17257 -0.15100
N 	N 	0.17956 0.69754 0.14706 -0.15400
N 	N 	0.25231 0.69589 0.04609 -0.22800
N 	N 	0.21903 0.77857 0.03627 -0.26700
N 	N 	0.29633 0.74281 0.00621 -0.22700
N 	N 	0.39240 0.73426 0.92074 -0.15400
N 	N 	0.46734 0.24150 0.80524 -0.26200
N 	N 	0.46898 0.20986 0.75964 -0.22400
N 	N 	0.49421 0.25995 0.53921 -0.22600
N 	N 	0.47331 0.20797 0.66721 -0.15100
N 	N 	0.48827 0.17257 0.63383 -0.15100
N 	N 	0.47584 0.14706 0.69754 -0.15400
N 	N 	0.50571 0.04609 0.69589 -0.22800
N 	N 	0.46613 0.03627 0.77857 -0.26700
N 	N 	0.45465 0.00621 0.74281 -0.22700
N 	N 	0.45260 0.92074 0.73426 -0.15400
