data_crystal

_cell_length_a 7.95290
_cell_length_b 17.24660
_cell_length_c 23.27020
_cell_angle_alpha 90.00000
_cell_angle_beta  90.00000
_cell_angle_gamma 90.00000

_symmetry_space_group_name_	'P 1'
_symmetry_space_group_name_H-M	'P 1'

loop_
_symmetry_equiv_pos_as_xyz
  x,y,z

loop_
_atom_site_label
_atom_site_type_symbol
_atom_site_fract_x
_atom_site_fract_y
_atom_site_fract_z
_atom_site_charge
Pr	Pr	0.86085 0.89596 0.28162 2.07200
Pr	Pr	0.63915 0.10404 0.78162 2.05900
Pr	Pr	0.13915 0.39596 0.21838 2.05500
Pr	Pr	0.36085 0.60404 0.71838 2.06200
Pr	Pr	0.13915 0.10404 0.71838 2.05000
Pr	Pr	0.36085 0.89596 0.21838 2.06600
Pr	Pr	0.86085 0.60404 0.78162 2.06800
Pr	Pr	0.63915 0.39596 0.28162 2.06200
Cu	Cu	0.50000 0.00000 -0.00000 0.86900
Cu	Cu	-0.00000 0.00000 0.50000 0.87100
Cu	Cu	0.50000 0.50000 0.50000 0.90800
Cu	Cu	-0.00000 0.50000 -0.00000 0.88100
H 	H 	0.12550 0.83000 0.99330 0.08400
H 	H 	0.88070 0.75780 0.99020 0.09500
H 	H 	0.68080 0.77380 0.06130 0.03400
H 	H 	0.29450 0.83670 0.83840 0.06500
H 	H 	0.28030 0.93070 0.90840 0.05100
H 	H 	0.75120 0.89720 0.94900 0.04400
H 	H 	0.77450 0.79960 0.88330 0.07600
H 	H 	0.37450 0.17000 0.49330 0.02400
H 	H 	0.61930 0.24220 0.49020 0.07200
H 	H 	0.81920 0.22620 0.56130 0.03900
H 	H 	0.20550 0.16330 0.33840 0.07000
H 	H 	0.21970 0.06930 0.40840 0.03700
H 	H 	0.74880 0.10280 0.44900 0.01500
H 	H 	0.72550 0.20040 0.38330 0.07300
H 	H 	0.87450 0.33000 0.50670 0.01400
H 	H 	0.11930 0.25780 0.50980 0.08300
H 	H 	0.31920 0.27380 0.43870 0.02700
H 	H 	0.70550 0.33670 0.66160 0.06700
H 	H 	0.71970 0.43070 0.59160 0.04100
H 	H 	0.24880 0.39720 0.55100 0.02000
H 	H 	0.22550 0.29960 0.61670 0.06400
H 	H 	0.62550 0.67000 0.00670 -0.00900
H 	H 	0.38070 0.74220 0.00980 0.02400
H 	H 	0.18080 0.72620 0.93870 0.04700
H 	H 	0.79450 0.66330 0.16160 0.05800
H 	H 	0.78030 0.56930 0.09160 0.03300
H 	H 	0.25120 0.60280 0.05100 0.01700
H 	H 	0.27450 0.70040 0.11670 0.06700
H 	H 	0.87450 0.17000 0.00670 -0.02700
H 	H 	0.11930 0.24220 0.00980 0.04200
H 	H 	0.31920 0.22620 0.93870 0.03800
H 	H 	0.70550 0.16330 0.16160 0.06500
H 	H 	0.71970 0.06930 0.09160 0.03100
H 	H 	0.24880 0.10280 0.05100 0.00300
H 	H 	0.22550 0.20040 0.11670 0.06300
H 	H 	0.62550 0.83000 0.50670 0.03300
H 	H 	0.38070 0.75780 0.50980 0.06400
H 	H 	0.18080 0.77380 0.43870 0.03600
H 	H 	0.79450 0.83670 0.66160 0.06100
H 	H 	0.78030 0.93070 0.59160 0.04600
H 	H 	0.25120 0.89720 0.55100 0.03500
H 	H 	0.27450 0.79960 0.61670 0.06800
H 	H 	0.12550 0.67000 0.49330 0.04100
H 	H 	0.88070 0.74220 0.49020 0.05600
H 	H 	0.68080 0.72620 0.56130 0.04400
H 	H 	0.29450 0.66330 0.33840 0.06300
H 	H 	0.28030 0.56930 0.40840 0.03800
H 	H 	0.75120 0.60280 0.44900 0.02700
H 	H 	0.77450 0.70040 0.38330 0.07500
H 	H 	0.37450 0.33000 0.99330 0.06800
H 	H 	0.61930 0.25780 0.99020 0.11200
H 	H 	0.81920 0.27380 0.06130 0.02800
H 	H 	0.20550 0.33670 0.83840 0.07300
H 	H 	0.21970 0.43070 0.90840 0.04700
H 	H 	0.74880 0.39720 0.94900 0.03100
H 	H 	0.72550 0.29960 0.88330 0.07400
C 	C 	0.66980 0.85830 0.15224 0.33000
C 	C 	0.99040 0.96170 0.15287 0.40700
C 	C 	0.24090 0.92810 0.06926 0.40800
C 	C 	0.80380 0.85490 0.10730 -0.08100
C 	C 	0.95350 0.89840 0.10941 -0.03000
C 	C 	0.07400 0.88730 0.06673 -0.09300
C 	C 	0.04530 0.83570 0.02200 -0.05700
C 	C 	0.89890 0.79280 0.01990 -0.09400
C 	C 	0.77940 0.80280 0.06260 0.01700
C 	C 	0.55490 0.74250 0.80966 0.40600
C 	C 	0.53630 0.80630 0.85338 -0.06600
C 	C 	0.38800 0.84730 0.86110 -0.04400
C 	C 	0.38090 0.90420 0.90290 0.02500
C 	C 	0.65760 0.88390 0.92710 0.03500
C 	C 	0.67300 0.82580 0.88740 -0.04600
C 	C 	0.83020 0.14170 0.65224 0.33700
C 	C 	0.50960 0.03830 0.65287 0.25200
C 	C 	0.25910 0.07190 0.56926 0.42200
C 	C 	0.69620 0.14510 0.60730 -0.10700
C 	C 	0.54650 0.10160 0.60941 -0.00700
C 	C 	0.42600 0.11270 0.56673 -0.13000
C 	C 	0.45470 0.16430 0.52200 0.04700
C 	C 	0.60110 0.20720 0.51990 -0.10700
C 	C 	0.72060 0.19720 0.56260 0.02900
C 	C 	0.94510 0.25750 0.30966 0.43200
C 	C 	0.96370 0.19370 0.35338 -0.03900
C 	C 	0.11200 0.15270 0.36110 -0.08600
C 	C 	0.11910 0.09580 0.40290 -0.00600
C 	C 	0.84240 0.11610 0.42710 0.03600
C 	C 	0.82700 0.17420 0.38740 -0.06300
C 	C 	0.33020 0.35830 0.34776 0.33700
C 	C 	0.00960 0.46170 0.34713 0.29100
C 	C 	0.75910 0.42810 0.43074 0.42100
C 	C 	0.19620 0.35490 0.39270 -0.10900
C 	C 	0.04650 0.39840 0.39059 -0.03800
C 	C 	0.92600 0.38730 0.43327 -0.10400
C 	C 	0.95470 0.33570 0.47800 0.09400
C 	C 	0.10110 0.29280 0.48010 -0.16200
C 	C 	0.22060 0.30280 0.43740 0.04800
C 	C 	0.44510 0.24250 0.69034 0.40600
C 	C 	0.46370 0.30630 0.64662 -0.07000
C 	C 	0.61200 0.34730 0.63890 -0.04800
C 	C 	0.61910 0.40420 0.59710 0.01900
C 	C 	0.34240 0.38390 0.57290 0.02800
C 	C 	0.32700 0.32580 0.61260 -0.05000
C 	C 	0.16980 0.64170 0.84776 0.33200
C 	C 	0.49040 0.53830 0.84713 0.32100
C 	C 	0.74090 0.57190 0.93074 0.41900
C 	C 	0.30380 0.64510 0.89270 -0.08800
C 	C 	0.45350 0.60160 0.89059 -0.02300
C 	C 	0.57400 0.61270 0.93327 -0.11800
C 	C 	0.54530 0.66430 0.97800 0.08000
C 	C 	0.39890 0.70720 0.98010 -0.04100
C 	C 	0.27940 0.69720 0.93740 -0.00400
C 	C 	0.05490 0.75750 0.19034 0.38300
C 	C 	0.03630 0.69370 0.14662 -0.09500
C 	C 	0.88800 0.65270 0.13890 -0.02100
C 	C 	0.88090 0.59580 0.09710 0.03400
C 	C 	0.15760 0.61610 0.07290 0.02000
C 	C 	0.17300 0.67420 0.11260 -0.04600
C 	C 	0.33020 0.14170 0.84776 0.33800
C 	C 	0.00960 0.03830 0.84713 0.21300
C 	C 	0.75910 0.07190 0.93074 0.42500
C 	C 	0.19620 0.14510 0.89270 -0.11300
C 	C 	0.04650 0.10160 0.89059 -0.02100
C 	C 	0.92600 0.11270 0.93327 -0.12500
C 	C 	0.95470 0.16430 0.97800 0.14100
C 	C 	0.10110 0.20720 0.98010 -0.11100
C 	C 	0.22060 0.19720 0.93740 0.02900
C 	C 	0.44510 0.25750 0.19034 0.40500
C 	C 	0.46370 0.19370 0.14662 -0.07200
C 	C 	0.61200 0.15270 0.13890 -0.05200
C 	C 	0.61910 0.09580 0.09710 0.01200
C 	C 	0.34240 0.11610 0.07290 0.02300
C 	C 	0.32700 0.17420 0.11260 -0.05600
C 	C 	0.16980 0.85830 0.34776 0.33100
C 	C 	0.49040 0.96170 0.34713 0.39100
C 	C 	0.74090 0.92810 0.43074 0.41200
C 	C 	0.30380 0.85490 0.39270 -0.08300
C 	C 	0.45350 0.89840 0.39059 -0.04100
C 	C 	0.57400 0.88730 0.43327 -0.09300
C 	C 	0.54530 0.83570 0.47800 0.02900
C 	C 	0.39890 0.79280 0.48010 -0.08900
C 	C 	0.27940 0.80280 0.43740 0.01400
C 	C 	0.05490 0.74250 0.69034 0.38400
C 	C 	0.03630 0.80630 0.64662 -0.09000
C 	C 	0.88800 0.84730 0.63890 -0.01900
C 	C 	0.88090 0.90420 0.59710 0.03600
C 	C 	0.15760 0.88390 0.57290 0.02500
C 	C 	0.17300 0.82580 0.61260 -0.04100
C 	C 	0.66980 0.64170 0.65224 0.33100
C 	C 	0.99040 0.53830 0.65287 0.34800
C 	C 	0.24090 0.57190 0.56926 0.41700
C 	C 	0.80380 0.64510 0.60730 -0.08700
C 	C 	0.95350 0.60160 0.60941 -0.01100
C 	C 	0.07400 0.61270 0.56673 -0.12200
C 	C 	0.04530 0.66430 0.52200 -0.00600
C 	C 	0.89890 0.70720 0.51990 -0.04700
C 	C 	0.77940 0.69720 0.56260 0.00000
C 	C 	0.55490 0.75750 0.30966 0.40500
C 	C 	0.53630 0.69370 0.35338 -0.06800
C 	C 	0.38800 0.65270 0.36110 -0.04900
C 	C 	0.38090 0.59580 0.40290 0.01900
C 	C 	0.65760 0.61610 0.42710 0.03000
C 	C 	0.67300 0.67420 0.38740 -0.05100
C 	C 	0.83020 0.35830 0.15224 0.33500
C 	C 	0.50960 0.46170 0.15287 0.32200
C 	C 	0.25910 0.42810 0.06926 0.41500
C 	C 	0.69620 0.35490 0.10730 -0.10300
C 	C 	0.54650 0.39840 0.10941 -0.02500
C 	C 	0.42600 0.38730 0.06673 -0.10400
C 	C 	0.45470 0.33570 0.02200 -0.00400
C 	C 	0.60110 0.29280 0.01990 -0.15500
C 	C 	0.72060 0.30280 0.06260 0.04600
C 	C 	0.94510 0.24250 0.80966 0.43400
C 	C 	0.96370 0.30630 0.85338 -0.04000
C 	C 	0.11200 0.34730 0.86110 -0.08000
C 	C 	0.11910 0.40420 0.90290 0.00400
C 	C 	0.84240 0.38390 0.92710 0.04000
C 	C 	0.82700 0.32580 0.88740 -0.05700
N 	N 	0.51320 0.92270 0.93589 -0.17800
N 	N 	0.98680 0.07730 0.43589 -0.18800
N 	N 	0.48680 0.42270 0.56411 -0.20100
N 	N 	0.01320 0.57730 0.06411 -0.21900
N 	N 	0.48680 0.07730 0.06411 -0.21300
N 	N 	0.01320 0.92270 0.56411 -0.19800
N 	N 	0.51320 0.57730 0.43589 -0.20100
N 	N 	0.98680 0.42270 0.93589 -0.17500
O 	O 	0.68410 0.90790 0.19344 -0.57700
O 	O 	0.54490 0.81560 0.14885 -0.41000
O 	O 	0.04700 0.94124 0.20241 -0.62000
O 	O 	0.97090 0.02910 0.13671 -0.32900
O 	O 	0.31570 0.93560 0.11499 -0.47900
O 	O 	0.29300 0.95170 0.02069 -0.41500
O 	O 	0.69800 0.71310 0.80657 -0.49500
O 	O 	0.42990 0.72281 0.78023 -0.44300
O 	O 	0.81590 0.09210 0.69344 -0.59300
O 	O 	0.95510 0.18440 0.64885 -0.39700
O 	O 	0.45300 0.05876 0.70241 -0.58800
O 	O 	0.52910 0.97090 0.63671 -0.21800
O 	O 	0.18430 0.06440 0.61499 -0.51700
O 	O 	0.20700 0.04830 0.52069 -0.44700
O 	O 	0.80200 0.28690 0.30657 -0.50400
O 	O 	0.07010 0.27719 0.28023 -0.47400
O 	O 	0.31590 0.40790 0.30656 -0.59200
O 	O 	0.45510 0.31560 0.35115 -0.41300
O 	O 	0.95300 0.44124 0.29759 -0.56300
O 	O 	0.02910 0.52910 0.36329 -0.28100
O 	O 	0.68430 0.43560 0.38501 -0.49000
O 	O 	0.70700 0.45170 0.47931 -0.42400
O 	O 	0.30200 0.21310 0.69343 -0.50300
O 	O 	0.57010 0.22281 0.71977 -0.44300
O 	O 	0.18410 0.59210 0.80656 -0.59400
O 	O 	0.04490 0.68440 0.85115 -0.42200
O 	O 	0.54700 0.55876 0.79759 -0.59300
O 	O 	0.47090 0.47090 0.86329 -0.27600
O 	O 	0.81570 0.56440 0.88501 -0.48300
O 	O 	0.79300 0.54830 0.97931 -0.39500
O 	O 	0.19800 0.78690 0.19343 -0.49600
O 	O 	0.92990 0.77719 0.21977 -0.42200
O 	O 	0.31590 0.09210 0.80656 -0.60200
O 	O 	0.45510 0.18440 0.85115 -0.41300
O 	O 	0.95300 0.05876 0.79759 -0.55300
O 	O 	0.02910 0.97090 0.86329 -0.21300
O 	O 	0.68430 0.06440 0.88501 -0.50200
O 	O 	0.70700 0.04830 0.97931 -0.41800
O 	O 	0.30200 0.28690 0.19343 -0.50400
O 	O 	0.57010 0.27719 0.21977 -0.44500
O 	O 	0.18410 0.90790 0.30656 -0.58300
O 	O 	0.04490 0.81560 0.35115 -0.42200
O 	O 	0.54700 0.94124 0.29759 -0.59800
O 	O 	0.47090 0.02910 0.36329 -0.33800
O 	O 	0.81570 0.93560 0.38501 -0.47000
O 	O 	0.79300 0.95170 0.47931 -0.39200
O 	O 	0.19800 0.71310 0.69343 -0.49500
O 	O 	0.92990 0.72281 0.71977 -0.42000
O 	O 	0.68410 0.59210 0.69344 -0.58700
O 	O 	0.54490 0.68440 0.64885 -0.41000
O 	O 	0.04700 0.55876 0.70241 -0.62000
O 	O 	0.97090 0.47090 0.63671 -0.27400
O 	O 	0.31570 0.56440 0.61499 -0.49700
O 	O 	0.29300 0.54830 0.52069 -0.42800
O 	O 	0.69800 0.78690 0.30657 -0.49600
O 	O 	0.42990 0.77719 0.28023 -0.44500
O 	O 	0.81590 0.40790 0.19344 -0.58400
O 	O 	0.95510 0.31560 0.14885 -0.39800
O 	O 	0.45300 0.44124 0.20241 -0.59300
O 	O 	0.52910 0.52910 0.13671 -0.28000
O 	O 	0.18430 0.43560 0.11499 -0.50200
O 	O 	0.20700 0.45170 0.02069 -0.44500
O 	O 	0.80200 0.21310 0.80657 -0.50300
O 	O 	0.07010 0.22281 0.78023 -0.47300
