data_crystal

_cell_length_a 22.40040
_cell_length_b 22.40040
_cell_length_c 22.40040
_cell_angle_alpha 109.47100
_cell_angle_beta  109.47100
_cell_angle_gamma 109.47100

_symmetry_space_group_name_	'P 1'
_symmetry_space_group_name_H-M	'P 1'

loop_
_symmetry_equiv_pos_as_xyz
  x,y,z

loop_
_atom_site_label
_atom_site_type_symbol
_atom_site_fract_x
_atom_site_fract_y
_atom_site_fract_z
_atom_site_charge
Cu	Cu	0.90816 0.50563 -0.00000 0.91400
Cu	Cu	0.50563 0.90816 -0.00000 0.90100
Cu	Cu	0.49437 0.49437 0.40253 0.91400
Cu	Cu	0.09184 0.09184 0.59747 0.91400
Cu	Cu	0.40253 0.49437 0.49437 0.91300
Cu	Cu	0.59747 0.09184 0.09184 0.91300
Cu	Cu	0.00000 0.90816 0.50563 0.90000
Cu	Cu	0.00000 0.50563 0.90816 0.90500
Cu	Cu	0.90816 1.00000 0.50563 0.90000
Cu	Cu	0.50563 1.00000 0.90816 0.90600
Cu	Cu	0.09184 0.59747 0.09184 0.90900
Cu	Cu	0.49437 0.40253 0.49437 0.91300
Cu	Cu	0.55187 0.00000 0.55187 0.91000
Cu	Cu	0.44813 0.00000 0.44813 0.90900
Cu	Cu	0.55187 0.55187 -0.00000 0.88400
Cu	Cu	0.44813 0.44813 -0.00000 0.88900
Cu	Cu	0.00000 0.44813 0.44813 0.88700
Cu	Cu	0.00000 0.55187 0.55187 0.89300
H 	H 	0.74610 0.40180 0.85310 0.01300
H 	H 	0.54870 0.89300 0.14690 -0.00100
H 	H 	0.45130 0.59820 0.34430 0.00600
H 	H 	0.25390 0.10700 0.65570 0.00200
H 	H 	0.34430 0.45130 0.59820 0.00700
H 	H 	0.65570 0.25390 0.10700 0.02100
H 	H 	0.85310 0.74610 0.40180 0.01600
H 	H 	0.14690 0.54870 0.89300 -0.00500
H 	H 	0.89300 0.14690 0.54870 0.00300
H 	H 	0.40180 0.85310 0.74610 0.00500
H 	H 	0.10700 0.65570 0.25390 0.00600
H 	H 	0.59820 0.34430 0.45130 0.00800
H 	H 	0.89300 0.54870 0.14690 -0.00300
H 	H 	0.40180 0.74610 0.85310 0.01300
H 	H 	0.10700 0.25390 0.65570 0.00800
H 	H 	0.59820 0.45130 0.34430 0.00700
H 	H 	0.74610 0.85310 0.40180 0.00100
H 	H 	0.54870 0.14690 0.89300 0.01900
H 	H 	0.45130 0.34430 0.59820 0.00800
H 	H 	0.25390 0.65570 0.10700 0.00200
H 	H 	0.34430 0.59820 0.45130 0.00600
H 	H 	0.65570 0.10700 0.25390 -0.00200
H 	H 	0.85310 0.40180 0.74610 0.01600
H 	H 	0.14690 0.89300 0.54870 0.00500
H 	H 	0.53010 0.23040 0.53010 0.07600
H 	H 	0.69140 0.23660 0.69140 0.09000
H 	H 	0.70240 0.42480 0.70240 0.09600
H 	H 	0.70030 0.00000 0.46990 0.09500
H 	H 	0.54520 1.00000 0.30860 0.04400
H 	H 	0.72240 0.00000 0.29760 0.18000
H 	H 	0.29970 0.76960 0.29970 0.06900
H 	H 	0.45480 0.76340 0.45480 0.08000
H 	H 	0.27760 0.57520 0.27760 0.08600
H 	H 	0.46990 1.00000 0.70030 0.11400
H 	H 	0.30860 1.00000 0.54520 0.05400
H 	H 	0.29760 1.00000 0.72240 0.11500
H 	H 	0.29970 0.29970 0.76960 0.07800
H 	H 	0.45480 0.45480 0.76340 0.08700
H 	H 	0.27760 0.27760 0.57520 0.09000
H 	H 	0.70030 0.46990 1.00000 0.11300
H 	H 	0.54520 0.30860 1.00000 0.06200
H 	H 	0.72240 0.29760 1.00000 0.04700
H 	H 	0.53010 0.53010 0.23040 0.07200
H 	H 	0.69140 0.69140 0.23660 0.08100
H 	H 	0.70240 0.70240 0.42480 0.09100
H 	H 	0.46990 0.70030 -0.00000 0.00800
H 	H 	0.30860 0.54520 1.00000 0.06900
H 	H 	0.29760 0.72240 1.00000 0.09200
H 	H 	-0.00000 0.46990 0.70030 0.07300
H 	H 	0.00000 0.30860 0.54520 0.07800
H 	H 	0.00000 0.29760 0.72240 0.09100
H 	H 	0.23040 0.53010 0.53010 0.07200
H 	H 	0.23660 0.69140 0.69140 0.08200
H 	H 	0.42480 0.70240 0.70240 0.09100
H 	H 	1.00000 0.70030 0.46990 0.14000
H 	H 	-0.00000 0.54520 0.30860 0.08200
H 	H 	-0.00000 0.72240 0.29760 0.08800
H 	H 	0.76960 0.29970 0.29970 0.07800
H 	H 	0.76340 0.45480 0.45480 0.08800
H 	H 	0.57520 0.27760 0.27760 0.09000
H 	H 	0.00000 0.47400 -0.00000 0.23100
H 	H 	0.47400 0.00000 -0.00000 0.24200
H 	H 	0.52600 0.52600 0.52600 0.24400
H 	H 	0.00000 0.00000 0.47400 0.24000
C 	C 	0.78464 0.40886 0.84230 0.12400
C 	C 	0.56656 0.94234 0.15770 0.11700
C 	C 	0.43344 0.59114 0.37578 0.11800
C 	C 	0.21536 0.05766 0.62422 0.15200
C 	C 	0.37578 0.43344 0.59114 0.11900
C 	C 	0.62422 0.21536 0.05766 0.07300
C 	C 	0.84230 0.78464 0.40886 0.12100
C 	C 	0.15770 0.56656 0.94234 0.15300
C 	C 	0.94234 0.15770 0.56656 0.16900
C 	C 	0.40886 0.84230 0.78464 0.11900
C 	C 	0.05766 0.62422 0.21536 0.11300
C 	C 	0.59114 0.37578 0.43344 0.12000
C 	C 	0.94234 0.56656 0.15770 0.16200
C 	C 	0.40886 0.78464 0.84230 0.12100
C 	C 	0.05766 0.21536 0.62422 0.11500
C 	C 	0.59114 0.43344 0.37578 0.11900
C 	C 	0.78464 0.84230 0.40886 0.11700
C 	C 	0.56656 0.15770 0.94234 0.12000
C 	C 	0.43344 0.37578 0.59114 0.11900
C 	C 	0.21536 0.62422 0.05766 0.11100
C 	C 	0.37578 0.59114 0.43344 0.11800
C 	C 	0.62422 0.05766 0.21536 0.15600
C 	C 	0.84230 0.40886 0.78464 0.12400
C 	C 	0.15770 0.94234 0.56656 0.11400
C 	C 	0.58023 0.37286 0.58023 0.28200
C 	C 	0.61129 0.33300 0.61129 -0.01600
C 	C 	0.57498 0.25792 0.57498 -0.02900
C 	C 	0.60683 0.22106 0.60683 -0.02800
C 	C 	0.67042 0.26006 0.67042 -0.08300
C 	C 	0.70536 0.33778 0.70536 0.11400
C 	C 	0.67733 0.37286 0.67733 -0.10000
C 	C 	0.56569 0.13898 0.56569 0.33000
C 	C 	0.79263 1.00000 0.41977 0.13800
C 	C 	0.72171 -0.00000 0.38871 0.12800
C 	C 	0.68294 -0.00000 0.42502 -0.05700
C 	C 	0.61423 1.00000 0.39317 -0.06400
C 	C 	0.58964 -0.00000 0.32958 -0.03500
C 	C 	0.63242 0.00000 0.29464 0.20700
C 	C 	0.69553 1.00000 0.32267 -0.30700
C 	C 	0.57329 1.00000 0.43431 0.26500
C 	C 	0.20737 0.62714 0.20737 0.28600
C 	C 	0.27829 0.66700 0.27829 -0.02600
C 	C 	0.31706 0.74208 0.31706 -0.02400
C 	C 	0.38577 0.77894 0.38577 -0.04000
C 	C 	0.41036 0.73994 0.41036 -0.07700
C 	C 	0.36758 0.66222 0.36758 0.10300
C 	C 	0.30447 0.62714 0.30447 -0.09400
C 	C 	0.42671 0.86102 0.42671 0.33400
C 	C 	0.41977 1.00000 0.79263 0.21600
C 	C 	0.38871 -0.00000 0.72171 0.12900
C 	C 	0.42502 1.00000 0.68294 -0.17600
C 	C 	0.39317 0.00000 0.61423 0.07100
C 	C 	0.32958 0.00000 0.58964 -0.06100
C 	C 	0.29464 1.00000 0.63242 0.11300
C 	C 	0.32267 1.00000 0.69553 -0.19400
C 	C 	0.43431 1.00000 0.57329 0.20900
C 	C 	0.20737 0.20737 0.62714 0.28300
C 	C 	0.27829 0.27829 0.66700 -0.01800
C 	C 	0.31706 0.31706 0.74208 -0.02800
C 	C 	0.38577 0.38577 0.77894 -0.02800
C 	C 	0.41036 0.41036 0.73994 -0.08200
C 	C 	0.36758 0.36758 0.66222 0.10900
C 	C 	0.30447 0.30447 0.62714 -0.09800
C 	C 	0.42671 0.42671 0.86102 0.32700
C 	C 	0.79263 0.41977 1.00000 0.38100
C 	C 	0.72171 0.38871 -0.00000 -0.13300
C 	C 	0.68294 0.42502 -0.00000 -0.06100
C 	C 	0.61423 0.39317 1.00000 -0.03000
C 	C 	0.58964 0.32958 1.00000 0.01700
C 	C 	0.63242 0.29464 -0.00000 -0.04500
C 	C 	0.69553 0.32267 1.00000 0.08000
C 	C 	0.57329 0.43431 1.00000 0.33200
C 	C 	0.58023 0.58023 0.37286 0.28400
C 	C 	0.61129 0.61129 0.33300 -0.02100
C 	C 	0.57498 0.57498 0.25792 -0.02600
C 	C 	0.60683 0.60683 0.22106 -0.03600
C 	C 	0.67042 0.67042 0.26006 -0.07900
C 	C 	0.70536 0.70536 0.33778 0.10600
C 	C 	0.67733 0.67733 0.37286 -0.09700
C 	C 	0.56569 0.56569 0.13898 0.33000
C 	C 	0.41977 0.79263 -0.00000 0.27000
C 	C 	0.38871 0.72171 1.00000 -0.04100
C 	C 	0.42502 0.68294 1.00000 0.10200
C 	C 	0.39317 0.61423 -0.00000 -0.14200
C 	C 	0.32958 0.58964 1.00000 0.00500
C 	C 	0.29464 0.63242 1.00000 0.09800
C 	C 	0.32267 0.69553 1.00000 -0.07200
C 	C 	0.43431 0.57329 -0.00000 0.31800
C 	C 	-0.00000 0.41977 0.79263 0.22500
C 	C 	0.00000 0.38871 0.72171 -0.00200
C 	C 	0.00000 0.42502 0.68294 -0.04900
C 	C 	0.00000 0.39317 0.61423 -0.01700
C 	C 	0.00000 0.32958 0.58964 -0.09800
C 	C 	-0.00000 0.29464 0.63242 0.11100
C 	C 	0.00000 0.32267 0.69553 -0.11400
C 	C 	-0.00000 0.43431 0.57329 0.27500
C 	C 	0.37286 0.58023 0.58023 0.28400
C 	C 	0.33300 0.61129 0.61129 -0.02100
C 	C 	0.25792 0.57498 0.57498 -0.02600
C 	C 	0.22106 0.60683 0.60683 -0.03500
C 	C 	0.26006 0.67042 0.67042 -0.07900
C 	C 	0.33778 0.70536 0.70536 0.10700
C 	C 	0.37286 0.67733 0.67733 -0.09700
C 	C 	0.13898 0.56569 0.56569 0.33100
C 	C 	-0.00000 0.79263 0.41977 0.26800
C 	C 	0.00000 0.72171 0.38871 0.01000
C 	C 	0.00000 0.68294 0.42502 -0.11800
C 	C 	0.00000 0.61423 0.39317 -0.00500
C 	C 	0.00000 0.58964 0.32958 -0.10400
C 	C 	0.00000 0.63242 0.29464 0.11500
C 	C 	0.00000 0.69553 0.32267 -0.12100
C 	C 	-0.00000 0.57329 0.43431 0.31500
C 	C 	0.62714 0.20737 0.20737 0.28300
C 	C 	0.66700 0.27829 0.27829 -0.01800
C 	C 	0.74208 0.31706 0.31706 -0.02900
C 	C 	0.77894 0.38577 0.38577 -0.02600
C 	C 	0.73994 0.41036 0.41036 -0.08300
C 	C 	0.66222 0.36758 0.36758 0.11000
C 	C 	0.62714 0.30447 0.30447 -0.09900
C 	C 	0.86102 0.42671 0.42671 0.32700
S 	S 	-0.00000 0.65544 -0.00000 0.55200
S 	S 	0.65544 0.00000 -0.00000 0.62200
S 	S 	0.34456 0.34456 0.34456 0.63100
S 	S 	0.00000 0.00000 0.65544 0.64600
N 	N 	0.85472 0.44685 0.89175 -0.17300
N 	N 	0.55510 0.96297 0.10825 -0.20400
N 	N 	0.44490 0.55315 0.40787 -0.18900
N 	N 	0.14528 0.03703 0.59213 -0.18200
N 	N 	0.40787 0.44490 0.55315 -0.18900
N 	N 	0.59213 0.14528 0.03703 -0.19500
N 	N 	0.89175 0.85472 0.44685 -0.17900
N 	N 	0.10825 0.55510 0.96297 -0.18200
N 	N 	0.96297 0.10825 0.55510 -0.17100
N 	N 	0.44685 0.89175 0.85472 -0.18900
N 	N 	0.03703 0.59213 0.14528 -0.20400
N 	N 	0.55315 0.40787 0.44490 -0.18900
N 	N 	0.96297 0.55510 0.10825 -0.17900
N 	N 	0.44685 0.85472 0.89175 -0.18000
N 	N 	0.03703 0.14528 0.59213 -0.20400
N 	N 	0.55315 0.44490 0.40787 -0.18900
N 	N 	0.85472 0.89175 0.44685 -0.19200
N 	N 	0.55510 0.10825 0.96297 -0.16400
N 	N 	0.44490 0.40787 0.55315 -0.18900
N 	N 	0.14528 0.59213 0.03703 -0.20200
N 	N 	0.40787 0.55315 0.44490 -0.18900
N 	N 	0.59213 0.03703 0.14528 -0.18300
N 	N 	0.89175 0.44685 0.85472 -0.17300
N 	N 	0.10825 0.96297 0.55510 -0.20200
N 	N 	0.77550 0.38200 0.77550 -0.15500
N 	N 	0.60650 1.00000 0.22450 -0.19900
N 	N 	0.39350 0.61800 0.39350 -0.15600
N 	N 	0.22450 1.00000 0.60650 -0.17500
N 	N 	0.39350 0.39350 0.61800 -0.15600
N 	N 	0.60650 0.22450 1.00000 -0.10300
N 	N 	0.77550 0.77550 0.38200 -0.15600
N 	N 	0.22450 0.60650 -0.00000 -0.18500
N 	N 	0.00000 0.22450 0.60650 -0.18000
N 	N 	0.38200 0.77550 0.77550 -0.15600
N 	N 	0.00000 0.60650 0.22450 -0.18000
N 	N 	0.61800 0.39350 0.39350 -0.15600
O 	O 	0.52044 0.33444 0.52044 -0.35700
O 	O 	0.61312 0.44158 0.61312 -0.28200
O 	O 	0.59505 0.10796 0.59505 -0.37700
O 	O 	0.50725 0.10642 0.50725 -0.39500
O 	O 	0.81400 0.00000 0.47956 -0.29400
O 	O 	0.82846 -0.00000 0.38688 -0.21800
O 	O 	0.51291 -0.00000 0.40495 -0.34300
O 	O 	0.59917 -0.00000 0.49275 -0.35600
O 	O 	0.18600 0.66556 0.18600 -0.36300
O 	O 	0.17154 0.55842 0.17154 -0.29500
O 	O 	0.48709 0.89204 0.48709 -0.39800
O 	O 	0.40083 0.89358 0.40083 -0.41600
O 	O 	0.47956 1.00000 0.81400 -0.35200
O 	O 	0.38688 1.00000 0.82846 -0.27600
O 	O 	0.40495 -0.00000 0.51291 -0.33200
O 	O 	0.49275 0.00000 0.59917 -0.33900
O 	O 	0.18600 0.18600 0.66556 -0.35600
O 	O 	0.17154 0.17154 0.55842 -0.28800
O 	O 	0.48709 0.48709 0.89204 -0.37000
O 	O 	0.40083 0.40083 0.89358 -0.38300
O 	O 	0.81400 0.47956 -0.00000 -0.40800
O 	O 	0.82846 0.38688 1.00000 -0.28300
O 	O 	0.51291 0.40495 1.00000 -0.36500
O 	O 	0.59917 0.49275 1.00000 -0.37800
O 	O 	0.52044 0.52044 0.33444 -0.36000
O 	O 	0.61312 0.61312 0.44158 -0.28400
O 	O 	0.59505 0.59505 0.10796 -0.39200
O 	O 	0.50725 0.50725 0.10642 -0.40600
O 	O 	0.47956 0.81400 -0.00000 -0.36800
O 	O 	0.38688 0.82846 -0.00000 -0.30400
O 	O 	0.40495 0.51291 -0.00000 -0.39400
O 	O 	0.49275 0.59917 1.00000 -0.35800
O 	O 	1.00000 0.47956 0.81400 -0.29600
O 	O 	0.00000 0.38688 0.82846 -0.27800
O 	O 	1.00000 0.40495 0.51291 -0.32400
O 	O 	-0.00000 0.49275 0.59917 -0.39500
O 	O 	0.33444 0.52044 0.52044 -0.36000
O 	O 	0.44158 0.61312 0.61312 -0.28500
O 	O 	0.10796 0.59505 0.59505 -0.38500
O 	O 	0.10642 0.50725 0.50725 -0.40400
O 	O 	0.00000 0.81400 0.47956 -0.36900
O 	O 	-0.00000 0.82846 0.38688 -0.30000
O 	O 	0.00000 0.51291 0.40495 -0.39100
O 	O 	-0.00000 0.59917 0.49275 -0.40800
O 	O 	0.66556 0.18600 0.18600 -0.35600
O 	O 	0.55842 0.17154 0.17154 -0.28700
O 	O 	0.89204 0.48709 0.48709 -0.36000
O 	O 	0.89358 0.40083 0.40083 -0.37800
O 	O 	0.00000 0.51166 -0.00000 -0.72800
O 	O 	0.00000 0.72136 -0.00000 -0.23800
O 	O 	0.51166 0.00000 -0.00000 -0.70000
O 	O 	0.72136 0.00000 -0.00000 -0.21600
O 	O 	0.48834 0.48834 0.48834 -0.70300
O 	O 	0.27864 0.27864 0.27864 -0.22900
O 	O 	0.00000 0.00000 0.51166 -0.70300
O 	O 	0.00000 1.00000 0.72136 -0.25800
O 	O 	0.93352 0.61146 -0.00000 -0.32100
O 	O 	0.61146 0.93352 -0.00000 -0.37900
O 	O 	0.38854 0.38854 0.32206 -0.35300
O 	O 	0.06648 0.06648 0.67794 -0.35000
O 	O 	0.32206 0.38854 0.38854 -0.35300
O 	O 	0.67794 0.06648 0.06648 -0.34600
O 	O 	0.00000 0.93352 0.61146 -0.38100
O 	O 	0.00000 0.61146 0.93352 -0.33000
O 	O 	0.93352 0.00000 0.61146 -0.30700
O 	O 	0.61146 0.00000 0.93352 -0.30700
O 	O 	0.06648 0.67794 0.06648 -0.35000
O 	O 	0.38854 0.32206 0.38854 -0.35100
