data_crystal

_cell_length_a 15.32500
_cell_length_b 16.47200
_cell_length_c 17.07200
_cell_angle_alpha 70.14400
_cell_angle_beta  64.56700
_cell_angle_gamma 67.51600

_symmetry_space_group_name_	'P 1'
_symmetry_space_group_name_H-M	'P 1'

loop_
_symmetry_equiv_pos_as_xyz
  x,y,z

loop_
_atom_site_label
_atom_site_type_symbol
_atom_site_fract_x
_atom_site_fract_y
_atom_site_fract_z
_atom_site_charge
Cu	Cu	0.43081 0.31558 0.12237 0.84000
Cu	Cu	0.14128 0.12045 0.33330 0.83500
Cu	Cu	0.87295 0.06977 0.68996 0.84100
Cu	Cu	0.78916 0.08210 0.91655 0.84500
Cu	Cu	0.64414 0.30704 0.93371 0.87900
Cu	Cu	0.56919 0.68442 0.87763 0.85200
Cu	Cu	0.85872 0.87955 0.66670 0.85300
Cu	Cu	0.12705 0.93023 0.31004 0.86800
Cu	Cu	0.21084 0.91790 0.08345 0.83600
Cu	Cu	0.35586 0.69296 0.06629 0.83800
Cu	Cu	0.50000 0.50000 -0.00000 0.82300
Cu	Cu	-0.00000 0.00000 -0.00000 0.76600
Cu	Cu	-0.00000 0.00000 0.50000 0.80400
H 	H 	0.99760 0.07360 0.34880 0.15700
H 	H 	0.58420 0.35770 0.06990 0.09400
H 	H 	0.40360 0.22720 0.33550 -0.00500
H 	H 	0.27950 0.13620 0.42360 -0.01100
H 	H 	0.07150 0.27800 0.45090 0.02600
H 	H 	0.94690 0.26200 0.60320 -0.00400
H 	H 	0.26450 0.18480 0.12210 -0.00900
H 	H 	0.70290 0.90430 0.98480 0.03500
H 	H 	0.16510 0.98230 0.80840 0.06900
H 	H 	0.11620 0.02090 0.67650 -0.01800
H 	H 	0.81070 0.32210 0.01610 0.00900
H 	H 	0.94750 0.18500 0.05180 -0.01200
H 	H 	0.71660 0.26930 0.63090 -0.00300
H 	H 	0.62490 0.37300 0.73480 0.00300
H 	H 	0.59850 0.00140 0.07390 -0.02700
H 	H 	0.44930 0.09990 0.16170 0.01100
H 	H 	0.23790 0.42430 0.27740 0.00800
H 	H 	0.20220 0.58960 0.24900 0.00100
H 	H 	0.00240 0.92640 0.65120 0.07600
H 	H 	0.41580 0.64230 0.93010 0.10500
H 	H 	0.59640 0.77280 0.66450 0.00500
H 	H 	0.72050 0.86380 0.57640 0.00600
H 	H 	0.92850 0.72200 0.54910 -0.01400
H 	H 	0.05310 0.73800 0.39680 0.03800
H 	H 	0.73550 0.81520 0.87790 0.00900
H 	H 	0.29710 0.09570 0.01520 -0.03100
H 	H 	0.83490 0.01770 0.19160 -0.06900
H 	H 	0.88380 0.97910 0.32350 0.01500
H 	H 	0.18930 0.67790 0.98390 -0.01200
H 	H 	0.05250 0.81500 0.94820 0.00900
H 	H 	0.28340 0.73070 0.36910 -0.00200
H 	H 	0.37510 0.62700 0.26520 -0.00200
H 	H 	0.40150 0.99860 0.92610 0.03500
H 	H 	0.55070 0.90010 0.83830 0.02300
H 	H 	0.76210 0.57570 0.72260 0.02000
H 	H 	0.79780 0.41040 0.75100 0.01700
C 	C 	0.35830 0.21890 0.31650 -0.01200
C 	C 	0.29030 0.17000 0.36440 -0.00100
C 	C 	0.04220 0.22950 0.48140 -0.09000
C 	C 	0.97400 0.22110 0.56500 0.09000
C 	C 	0.24960 0.12960 0.13590 -0.01000
C 	C 	0.73330 0.91940 0.92220 0.00700
C 	C 	0.09850 0.00080 0.80790 -0.09800
C 	C 	0.07130 0.02230 0.73570 -0.01200
C 	C 	0.82590 0.26340 0.00760 -0.07000
C 	C 	0.90210 0.18800 0.02600 0.01800
C 	C 	0.71690 0.25720 0.68930 -0.00000
C 	C 	0.66660 0.31350 0.74580 -0.00400
C 	C 	0.58440 0.06470 0.06430 -0.00400
C 	C 	0.50280 0.11810 0.11180 -0.01900
C 	C 	0.27340 0.46090 0.22660 -0.01200
C 	C 	0.25510 0.55140 0.21130 0.00500
C 	C 	0.64170 0.78110 0.68350 -0.00400
C 	C 	0.70970 0.83000 0.63560 0.00700
C 	C 	0.95780 0.77050 0.51860 0.11500
C 	C 	0.02600 0.77890 0.43500 -0.11200
C 	C 	0.75040 0.87040 0.86410 0.01400
C 	C 	0.26670 0.08060 0.07780 -0.01700
C 	C 	0.90150 0.99920 0.19210 0.09300
C 	C 	0.92870 0.97770 0.26430 0.02900
C 	C 	0.17410 0.73660 0.99240 0.06200
C 	C 	0.09790 0.81200 0.97400 -0.01600
C 	C 	0.28310 0.74280 0.31070 -0.00100
C 	C 	0.33340 0.68650 0.25420 -0.00800
C 	C 	0.41560 0.93530 0.93570 0.01200
C 	C 	0.49720 0.88190 0.88820 0.00300
C 	C 	0.72660 0.53910 0.77340 0.00100
C 	C 	0.74490 0.44860 0.78870 0.01400
N 	N 	0.24220 0.17920 0.31190 -0.20400
N 	N 	0.28030 0.22890 0.23230 -0.09900
N 	N 	0.34730 0.25290 0.23610 -0.19100
N 	N 	0.95200 0.14230 0.58330 -0.18900
N 	N 	0.00450 0.10680 0.51130 -0.24000
N 	N 	0.06140 0.15950 0.44930 -0.19500
N 	N 	0.20770 0.08380 0.21560 -0.20500
N 	N 	0.80150 0.98810 0.79340 -0.15100
N 	N 	0.76660 0.99260 0.87610 -0.16200
N 	N 	0.97260 0.04530 0.76140 -0.15500
N 	N 	0.93820 0.03820 0.84830 -0.15600
N 	N 	0.01530 0.01050 0.87670 -0.21000
N 	N 	0.89970 0.12130 0.00100 -0.22300
N 	N 	0.82570 0.15030 0.97000 -0.14600
N 	N 	0.77830 0.23550 0.97510 -0.13100
N 	N 	0.76840 0.17950 0.73100 -0.20100
N 	N 	0.74740 0.19020 0.81090 -0.15100
N 	N 	0.68710 0.26860 0.82210 -0.19100
N 	N 	0.64380 0.11500 0.00010 -0.21800
N 	N 	0.59440 0.19890 0.00990 -0.18600
N 	N 	0.51000 0.20360 0.07600 -0.20100
N 	N 	0.35020 0.43370 0.15710 -0.20600
N 	N 	0.37980 0.50500 0.10130 -0.21100
N 	N 	0.32240 0.57790 0.13570 -0.20600
N 	N 	0.75780 0.82080 0.68810 -0.19600
N 	N 	0.71970 0.77110 0.76770 -0.08700
N 	N 	0.65270 0.74710 0.76390 -0.18700
N 	N 	0.04800 0.85770 0.41670 -0.20000
N 	N 	0.99550 0.89320 0.48870 -0.15900
N 	N 	0.93860 0.84050 0.55070 -0.21000
N 	N 	0.79230 0.91620 0.78440 -0.19200
N 	N 	0.19850 0.01190 0.20660 -0.18900
N 	N 	0.23340 0.00740 0.12390 -0.21700
N 	N 	0.02740 0.95470 0.23860 -0.19600
N 	N 	0.06180 0.96180 0.15170 -0.19300
N 	N 	0.98470 0.98950 0.12330 -0.17600
N 	N 	0.10030 0.87870 0.99900 -0.15400
N 	N 	0.17430 0.84970 0.03000 -0.20700
N 	N 	0.22170 0.76450 0.02490 -0.21500
N 	N 	0.23160 0.82050 0.26900 -0.19300
N 	N 	0.25260 0.80980 0.18910 -0.15400
N 	N 	0.31290 0.73140 0.17790 -0.20200
N 	N 	0.35620 0.88500 0.99990 -0.16200
N 	N 	0.40560 0.80110 0.99010 -0.14800
N 	N 	0.49000 0.79640 0.92400 -0.19200
N 	N 	0.64980 0.56630 0.84290 -0.19800
N 	N 	0.62020 0.49500 0.89870 -0.18500
N 	N 	0.67760 0.42210 0.86430 -0.19000
O 	O 	0.05620 0.03790 0.36920 -0.71800
O 	O 	0.54290 0.36790 0.03350 -0.67400
O 	O 	0.94380 0.96210 0.63080 -0.56900
O 	O 	0.45710 0.63210 0.96650 -0.62100
