data_crystal

_cell_length_a 37.16340
_cell_length_b 37.16340
_cell_length_c 37.16340
_cell_angle_alpha 60.00000
_cell_angle_beta  60.00000
_cell_angle_gamma 60.00000

_symmetry_space_group_name_	'P 1'
_symmetry_space_group_name_H-M	'P 1'

loop_
_symmetry_equiv_pos_as_xyz
  x,y,z

loop_
_atom_site_label
_atom_site_type_symbol
_atom_site_fract_x
_atom_site_fract_y
_atom_site_fract_z
_atom_site_charge
Cu	Cu	0.78492 0.21508 -0.00000 0.88700
Cu	Cu	0.71380 0.28620 -0.00000 0.89000
Cu	Cu	0.21508 0.78492 -0.00000 0.88800
Cu	Cu	0.28620 0.71380 -0.00000 0.89100
Cu	Cu	-0.00000 -0.00000 0.78492 0.87900
Cu	Cu	-0.00000 0.00000 0.71380 0.88000
Cu	Cu	-0.00000 -0.00000 0.21508 0.87700
Cu	Cu	0.00000 0.00000 0.28620 0.88000
Cu	Cu	0.78492 0.00000 -0.00000 0.87400
Cu	Cu	0.71380 0.00000 -0.00000 0.87600
Cu	Cu	0.21508 0.00000 -0.00000 0.87200
Cu	Cu	0.28620 0.00000 -0.00000 0.87500
Cu	Cu	1.00000 0.78492 0.21508 0.92000
Cu	Cu	0.00000 0.71380 0.28620 0.89600
Cu	Cu	0.00000 0.21508 0.78492 0.89400
Cu	Cu	0.00000 0.28620 0.71380 0.89600
Cu	Cu	0.78492 1.00000 0.21508 0.92300
Cu	Cu	0.71380 0.00000 0.28620 0.89300
Cu	Cu	0.21508 -0.00000 0.78492 0.89100
Cu	Cu	0.28620 0.00000 0.71380 0.89400
Cu	Cu	-0.00000 0.21508 -0.00000 0.87500
Cu	Cu	0.00000 0.28620 -0.00000 0.87800
Cu	Cu	0.00000 0.78492 -0.00000 0.87600
Cu	Cu	1.00000 0.71380 -0.00000 0.90500
H 	H 	0.75420 0.36040 0.86100 0.09200
H 	H 	0.78710 0.47910 0.69030 0.04100
H 	H 	0.74680 0.54660 0.64840 0.04500
H 	H 	0.36040 0.75420 0.02440 0.08100
H 	H 	0.47910 0.78710 0.04350 0.04100
H 	H 	0.54660 0.74680 0.05820 0.04200
H 	H 	0.86100 0.02440 0.75420 0.08500
H 	H 	0.69030 0.04350 0.78710 0.04200
H 	H 	0.64840 0.05820 0.74680 0.04200
H 	H 	0.02440 0.86100 0.36040 0.08600
H 	H 	0.04350 0.69030 0.47910 0.03900
H 	H 	0.05820 0.64840 0.54660 0.04200
H 	H 	0.75420 0.86100 0.02440 0.08500
H 	H 	0.78710 0.69030 0.04350 0.04100
H 	H 	0.74680 0.64840 0.05820 0.04200
H 	H 	0.36040 0.02440 0.86100 0.08500
H 	H 	0.47910 0.04350 0.69030 0.03900
H 	H 	0.54660 0.05820 0.64840 0.04100
H 	H 	0.86100 0.75420 0.36040 0.09100
H 	H 	0.69030 0.78710 0.47910 0.04100
H 	H 	0.64840 0.74680 0.54660 0.04600
H 	H 	0.02440 0.36040 0.75420 0.08300
H 	H 	0.04350 0.47910 0.78710 0.04200
H 	H 	0.05820 0.54660 0.74680 0.04300
H 	H 	0.75420 0.02440 0.36040 0.08200
H 	H 	0.78710 0.04350 0.47910 0.04100
H 	H 	0.74680 0.05820 0.54660 0.04200
H 	H 	0.36040 0.86100 0.75420 0.09200
H 	H 	0.47910 0.69030 0.78710 0.04200
H 	H 	0.54660 0.64840 0.74680 0.04600
H 	H 	0.86100 0.36040 0.02440 0.08300
H 	H 	0.69030 0.47910 0.04350 0.03900
H 	H 	0.64840 0.54660 0.05820 0.04100
H 	H 	0.02440 0.75420 0.86100 0.08700
H 	H 	0.04350 0.78710 0.69030 0.04200
H 	H 	0.05820 0.74680 0.64840 0.04300
H 	H 	0.63960 0.24580 0.13900 0.08300
H 	H 	0.52090 0.21290 0.30970 0.03600
H 	H 	0.45340 0.25320 0.35160 0.04400
H 	H 	0.24580 0.63960 0.97560 0.09400
H 	H 	0.21290 0.52090 0.95650 0.03700
H 	H 	0.25320 0.45340 0.94180 0.04800
H 	H 	0.97560 0.13900 0.24580 0.08900
H 	H 	0.95650 0.30970 0.21290 0.03600
H 	H 	0.94180 0.35160 0.25320 0.04600
H 	H 	0.13900 0.97560 0.63960 0.09100
H 	H 	0.30970 0.95650 0.52090 0.03800
H 	H 	0.35160 0.94180 0.45340 0.04800
H 	H 	0.13900 0.24580 0.97560 0.09100
H 	H 	0.30970 0.21290 0.95650 0.03600
H 	H 	0.35160 0.25320 0.94180 0.04800
H 	H 	0.97560 0.63960 0.13900 0.08900
H 	H 	0.95650 0.52090 0.30970 0.03800
H 	H 	0.94180 0.45340 0.35160 0.04700
H 	H 	0.24580 0.13900 0.63960 0.08300
H 	H 	0.21290 0.30970 0.52090 0.03700
H 	H 	0.25320 0.35160 0.45340 0.04400
H 	H 	0.63960 0.97560 0.24580 0.09300
H 	H 	0.52090 0.95650 0.21290 0.03600
H 	H 	0.45340 0.94180 0.25320 0.04700
H 	H 	0.97560 0.24580 0.63960 0.09200
H 	H 	0.95650 0.21290 0.52090 0.03700
H 	H 	0.94180 0.25320 0.45340 0.04600
H 	H 	0.13900 0.63960 0.24580 0.08300
H 	H 	0.30970 0.52090 0.21290 0.03600
H 	H 	0.35160 0.45340 0.25320 0.04300
H 	H 	0.63960 0.13900 0.97560 0.09200
H 	H 	0.52090 0.30970 0.95650 0.03800
H 	H 	0.45340 0.35160 0.94180 0.04800
H 	H 	0.24580 0.97560 0.13900 0.09000
H 	H 	0.21290 0.95650 0.30970 0.03700
H 	H 	0.25320 0.94180 0.35160 0.04700
H 	H 	0.24580 0.63960 0.13900 0.08300
H 	H 	0.21290 0.52090 0.30970 0.03600
H 	H 	0.25320 0.45340 0.35160 0.04400
H 	H 	0.63960 0.24580 0.97560 0.09400
H 	H 	0.52090 0.21290 0.95650 0.03700
H 	H 	0.45340 0.25320 0.94180 0.04700
H 	H 	0.13900 0.97560 0.24580 0.09000
H 	H 	0.30970 0.95650 0.21290 0.03600
H 	H 	0.35160 0.94180 0.25320 0.04700
H 	H 	0.97560 0.13900 0.63960 0.09000
H 	H 	0.95650 0.30970 0.52090 0.03800
H 	H 	0.94180 0.35160 0.45340 0.04700
H 	H 	0.24580 0.13900 0.97560 0.09100
H 	H 	0.21290 0.30970 0.95650 0.03700
H 	H 	0.25320 0.35160 0.94180 0.04800
H 	H 	0.63960 0.97560 0.13900 0.09000
H 	H 	0.52090 0.95650 0.30970 0.03800
H 	H 	0.45340 0.94180 0.35160 0.04800
H 	H 	0.13900 0.24580 0.63960 0.08400
H 	H 	0.30970 0.21290 0.52090 0.03600
H 	H 	0.35160 0.25320 0.45340 0.04400
H 	H 	0.97560 0.63960 0.24580 0.09200
H 	H 	0.95650 0.52090 0.21290 0.03600
H 	H 	0.94180 0.45340 0.25320 0.04600
H 	H 	0.24580 0.97560 0.63960 0.09300
H 	H 	0.21290 0.95650 0.52090 0.03700
H 	H 	0.25320 0.94180 0.45340 0.04700
H 	H 	0.63960 0.13900 0.24580 0.08300
H 	H 	0.52090 0.30970 0.21290 0.03600
H 	H 	0.45340 0.35160 0.25320 0.04300
H 	H 	0.13900 0.63960 0.97560 0.09200
H 	H 	0.30970 0.52090 0.95650 0.03800
H 	H 	0.35160 0.45340 0.94180 0.04800
H 	H 	0.97560 0.24580 0.13900 0.08800
H 	H 	0.95650 0.21290 0.30970 0.03600
H 	H 	0.94180 0.25320 0.35160 0.04600
H 	H 	0.36040 0.75420 0.86100 0.09200
H 	H 	0.47910 0.78710 0.69030 0.04100
H 	H 	0.54660 0.74680 0.64840 0.04600
H 	H 	0.75420 0.36040 0.02440 0.08100
H 	H 	0.78710 0.47910 0.04350 0.04100
H 	H 	0.74680 0.54660 0.05820 0.04200
H 	H 	0.02440 0.86100 0.75420 0.08700
H 	H 	0.04350 0.69030 0.78710 0.04200
H 	H 	0.05820 0.64840 0.74680 0.04300
H 	H 	0.86100 0.02440 0.36040 0.08400
H 	H 	0.69030 0.04350 0.47910 0.03900
H 	H 	0.64840 0.05820 0.54660 0.04100
H 	H 	0.86100 0.75420 0.02440 0.08400
H 	H 	0.69030 0.78710 0.04350 0.04100
H 	H 	0.64840 0.74680 0.05820 0.04200
H 	H 	0.02440 0.36040 0.86100 0.08600
H 	H 	0.04350 0.47910 0.69030 0.03900
H 	H 	0.05820 0.54660 0.64840 0.04200
H 	H 	0.75420 0.86100 0.36040 0.09100
H 	H 	0.78710 0.69030 0.47910 0.04100
H 	H 	0.74680 0.64840 0.54660 0.04500
H 	H 	0.36040 0.02440 0.75420 0.08200
H 	H 	0.47910 0.04350 0.78710 0.04200
H 	H 	0.54660 0.05820 0.74680 0.04300
H 	H 	0.02440 0.75420 0.36040 0.08300
H 	H 	0.04350 0.78710 0.47910 0.04100
H 	H 	0.05820 0.74680 0.54660 0.04300
H 	H 	0.86100 0.36040 0.75420 0.09100
H 	H 	0.69030 0.47910 0.78710 0.04200
H 	H 	0.64840 0.54660 0.74680 0.04600
H 	H 	0.36040 0.86100 0.02440 0.08400
H 	H 	0.47910 0.69030 0.04350 0.03900
H 	H 	0.54660 0.64840 0.05820 0.04100
H 	H 	0.75420 0.02440 0.86100 0.08600
H 	H 	0.78710 0.04350 0.69030 0.04100
H 	H 	0.74680 0.05820 0.64840 0.04200
H 	H 	0.86370 0.25630 0.86370 0.07600
H 	H 	0.76390 0.41210 0.76390 0.13300
H 	H 	0.25630 0.86370 0.01630 0.06500
H 	H 	0.41210 0.76390 0.06010 0.12900
H 	H 	0.86370 0.01630 0.86370 0.07100
H 	H 	0.76390 0.06010 0.76390 0.13000
H 	H 	0.01630 0.86370 0.25630 0.06700
H 	H 	0.06010 0.76390 0.41210 0.13000
H 	H 	0.86370 0.86370 0.01630 0.06900
H 	H 	0.76390 0.76390 0.06010 0.13000
H 	H 	0.25630 0.01630 0.86370 0.06700
H 	H 	0.41210 0.06010 0.76390 0.13000
H 	H 	0.86370 0.86370 0.25630 0.07400
H 	H 	0.76390 0.76390 0.41210 0.13300
H 	H 	0.01630 0.25630 0.86370 0.06800
H 	H 	0.06010 0.41210 0.76390 0.13000
H 	H 	0.86370 0.01630 0.25630 0.06500
H 	H 	0.76390 0.06010 0.41210 0.13000
H 	H 	0.25630 0.86370 0.86370 0.07600
H 	H 	0.41210 0.76390 0.76390 0.13300
H 	H 	0.86370 0.25630 0.01630 0.06400
H 	H 	0.76390 0.41210 0.06010 0.12900
H 	H 	0.01630 0.86370 0.86370 0.07200
H 	H 	0.06010 0.76390 0.76390 0.13100
H 	H 	0.74370 0.13630 0.13630 0.06300
H 	H 	0.58790 0.23610 0.23610 0.13100
H 	H 	0.13630 0.74370 0.98370 0.07600
H 	H 	0.23610 0.58790 0.93990 0.13500
H 	H 	0.98370 0.13630 0.13630 0.06900
H 	H 	0.93990 0.23610 0.23610 0.13400
H 	H 	0.13630 0.98370 0.74370 0.07500
H 	H 	0.23610 0.93990 0.58790 0.13500
H 	H 	0.13630 0.13630 0.98370 0.07200
H 	H 	0.23610 0.23610 0.93990 0.13500
H 	H 	0.98370 0.74370 0.13630 0.07200
H 	H 	0.93990 0.58790 0.23610 0.13400
H 	H 	0.13630 0.13630 0.74370 0.06500
H 	H 	0.23610 0.23610 0.58790 0.13200
H 	H 	0.74370 0.98370 0.13630 0.07300
H 	H 	0.58790 0.93990 0.23610 0.13500
H 	H 	0.98370 0.13630 0.74370 0.07300
H 	H 	0.93990 0.23610 0.58790 0.13400
H 	H 	0.13630 0.74370 0.13630 0.06400
H 	H 	0.23610 0.58790 0.23610 0.13100
H 	H 	0.74370 0.13630 0.98370 0.07500
H 	H 	0.58790 0.23610 0.93990 0.13500
H 	H 	0.13630 0.98370 0.13630 0.07000
H 	H 	0.23610 0.93990 0.23610 0.13400
H 	H 	0.72600 0.61820 0.61820 0.09200
H 	H 	0.61820 0.72600 0.03760 0.09100
H 	H 	0.61820 0.03760 0.72600 0.09200
H 	H 	0.03760 0.61820 0.61820 0.09100
H 	H 	0.72600 0.61820 0.03760 0.09100
H 	H 	0.61820 0.03760 0.61820 0.09000
H 	H 	0.61820 0.72600 0.61820 0.09300
H 	H 	0.03760 0.61820 0.72600 0.09200
H 	H 	0.72600 0.03760 0.61820 0.09100
H 	H 	0.61820 0.61820 0.72600 0.09300
H 	H 	0.61820 0.61820 0.03760 0.09000
H 	H 	0.03760 0.72600 0.61820 0.09200
H 	H 	0.38180 0.27400 0.38180 0.08900
H 	H 	0.27400 0.38180 0.96240 0.09100
H 	H 	0.96240 0.38180 0.27400 0.09000
H 	H 	0.38180 0.96240 0.38180 0.09100
H 	H 	0.38180 0.27400 0.96240 0.09100
H 	H 	0.96240 0.38180 0.38180 0.09100
H 	H 	0.27400 0.38180 0.38180 0.08900
H 	H 	0.38180 0.96240 0.27400 0.09000
H 	H 	0.96240 0.27400 0.38180 0.09000
H 	H 	0.38180 0.38180 0.27400 0.08900
H 	H 	0.38180 0.38180 0.96240 0.09200
H 	H 	0.27400 0.96240 0.38180 0.09100
C 	C 	0.78359 0.28535 0.91887 0.32900
C 	C 	0.80584 0.30632 0.87082 -0.02100
C 	C 	0.78364 0.34680 0.84686 -0.09800
C 	C 	0.76176 0.49892 0.70494 -0.02100
C 	C 	0.73829 0.53895 0.67965 -0.04800
C 	C 	0.28535 0.78359 0.01219 0.33400
C 	C 	0.30632 0.80584 0.01702 -0.03900
C 	C 	0.34680 0.78364 0.02270 -0.09000
C 	C 	0.49892 0.76176 0.03438 -0.03100
C 	C 	0.53895 0.73829 0.04311 -0.04400
C 	C 	0.91887 0.01219 0.78359 0.33000
C 	C 	0.87082 0.01702 0.80584 -0.03100
C 	C 	0.84686 0.02270 0.78364 -0.09400
C 	C 	0.70494 0.03438 0.76176 -0.03000
C 	C 	0.67965 0.04311 0.73829 -0.04400
C 	C 	0.01219 0.91887 0.28535 0.33100
C 	C 	0.01702 0.87082 0.30632 -0.03300
C 	C 	0.02270 0.84686 0.34680 -0.09200
C 	C 	0.03438 0.70494 0.49892 -0.02800
C 	C 	0.04311 0.67965 0.53895 -0.04600
C 	C 	0.78359 0.91887 0.01219 0.33000
C 	C 	0.80584 0.87082 0.01702 -0.03300
C 	C 	0.78364 0.84686 0.02270 -0.09200
C 	C 	0.76176 0.70494 0.03438 -0.03200
C 	C 	0.73829 0.67965 0.04311 -0.04400
C 	C 	0.28535 0.01219 0.91887 0.33000
C 	C 	0.30632 0.01702 0.87082 -0.03300
C 	C 	0.34680 0.02270 0.84686 -0.09200
C 	C 	0.49892 0.03438 0.70494 -0.03000
C 	C 	0.53895 0.04311 0.67965 -0.04500
C 	C 	0.91887 0.78359 0.28535 0.33100
C 	C 	0.87082 0.80584 0.30632 -0.02400
C 	C 	0.84686 0.78364 0.34680 -0.09700
C 	C 	0.70494 0.76176 0.49892 -0.02000
C 	C 	0.67965 0.73829 0.53895 -0.04800
C 	C 	0.01219 0.28535 0.78359 0.33300
C 	C 	0.01702 0.30632 0.80584 -0.03600
C 	C 	0.02270 0.34680 0.78364 -0.09200
C 	C 	0.03438 0.49892 0.76176 -0.02800
C 	C 	0.04311 0.53895 0.73829 -0.04500
C 	C 	0.78359 0.01219 0.28535 0.33500
C 	C 	0.80584 0.01702 0.30632 -0.03900
C 	C 	0.78364 0.02270 0.34680 -0.09000
C 	C 	0.76176 0.03438 0.49892 -0.02900
C 	C 	0.73829 0.04311 0.53895 -0.04500
C 	C 	0.28535 0.91887 0.78359 0.32900
C 	C 	0.30632 0.87082 0.80584 -0.02100
C 	C 	0.34680 0.84686 0.78364 -0.09800
C 	C 	0.49892 0.70494 0.76176 -0.02000
C 	C 	0.53895 0.67965 0.73829 -0.04800
C 	C 	0.91887 0.28535 0.01219 0.33200
C 	C 	0.87082 0.30632 0.01702 -0.03700
C 	C 	0.84686 0.34680 0.02270 -0.09000
C 	C 	0.70494 0.49892 0.03438 -0.03200
C 	C 	0.67965 0.53895 0.04311 -0.04500
C 	C 	0.01219 0.78359 0.91887 0.33100
C 	C 	0.01702 0.80584 0.87082 -0.02900
C 	C 	0.02270 0.78364 0.84686 -0.09400
C 	C 	0.03438 0.76176 0.70494 -0.02800
C 	C 	0.04311 0.73829 0.67965 -0.04500
C 	C 	0.71465 0.21641 0.08113 0.33400
C 	C 	0.69368 0.19416 0.12918 -0.03900
C 	C 	0.65320 0.21636 0.15314 -0.09000
C 	C 	0.50108 0.23824 0.29506 -0.01900
C 	C 	0.46105 0.26171 0.32035 -0.05200
C 	C 	0.21641 0.71465 0.98781 0.32900
C 	C 	0.19416 0.69368 0.98298 -0.01900
C 	C 	0.21636 0.65320 0.97730 -0.10000
C 	C 	0.23824 0.50108 0.96562 -0.00900
C 	C 	0.26171 0.46105 0.95689 -0.05500
C 	C 	0.98781 0.08113 0.21641 0.33100
C 	C 	0.98298 0.12918 0.19416 -0.02900
C 	C 	0.97730 0.15314 0.21636 -0.09500
C 	C 	0.96562 0.29506 0.23824 -0.01100
C 	C 	0.95689 0.32035 0.26171 -0.05500
C 	C 	0.08113 0.98781 0.71465 0.32900
C 	C 	0.12918 0.98298 0.69368 -0.02200
C 	C 	0.15314 0.97730 0.65320 -0.09900
C 	C 	0.29506 0.96562 0.50108 -0.01000
C 	C 	0.32035 0.95689 0.46105 -0.05400
C 	C 	0.08113 0.21641 0.98781 0.32900
C 	C 	0.12918 0.19416 0.98298 -0.02400
C 	C 	0.15314 0.21636 0.97730 -0.09800
C 	C 	0.29506 0.23824 0.96562 -0.00800
C 	C 	0.32035 0.26171 0.95689 -0.05600
C 	C 	0.98781 0.71465 0.08113 0.33100
C 	C 	0.98298 0.69368 0.12918 -0.02700
C 	C 	0.97730 0.65320 0.15314 -0.09600
C 	C 	0.96562 0.50108 0.29506 -0.01100
C 	C 	0.95689 0.46105 0.32035 -0.05300
C 	C 	0.21641 0.08113 0.71465 0.33300
C 	C 	0.19416 0.12918 0.69368 -0.03700
C 	C 	0.21636 0.15314 0.65320 -0.09100
C 	C 	0.23824 0.29506 0.50108 -0.02000
C 	C 	0.26171 0.32035 0.46105 -0.05100
C 	C 	0.71465 0.98781 0.21641 0.33100
C 	C 	0.69368 0.98298 0.19416 -0.02300
C 	C 	0.65320 0.97730 0.21636 -0.09800
C 	C 	0.50108 0.96562 0.23824 -0.01000
C 	C 	0.46105 0.95689 0.26171 -0.05500
C 	C 	0.98781 0.21641 0.71465 0.33000
C 	C 	0.98298 0.19416 0.69368 -0.02300
C 	C 	0.97730 0.21636 0.65320 -0.09800
C 	C 	0.96562 0.23824 0.50108 -0.01200
C 	C 	0.95689 0.26171 0.46105 -0.05400
C 	C 	0.08113 0.71465 0.21641 0.33500
C 	C 	0.12918 0.69368 0.19416 -0.03800
C 	C 	0.15314 0.65320 0.21636 -0.09000
C 	C 	0.29506 0.50108 0.23824 -0.02000
C 	C 	0.32035 0.46105 0.26171 -0.05200
C 	C 	0.71465 0.08113 0.98781 0.32900
C 	C 	0.69368 0.12918 0.98298 -0.02100
C 	C 	0.65320 0.15314 0.97730 -0.09900
C 	C 	0.50108 0.29506 0.96562 -0.00800
C 	C 	0.46105 0.32035 0.95689 -0.05500
C 	C 	0.21641 0.98781 0.08113 0.33000
C 	C 	0.19416 0.98298 0.12918 -0.02700
C 	C 	0.21636 0.97730 0.15314 -0.09700
C 	C 	0.23824 0.96562 0.29506 -0.01000
C 	C 	0.26171 0.95689 0.32035 -0.05500
C 	C 	0.21641 0.71465 0.08113 0.33400
C 	C 	0.19416 0.69368 0.12918 -0.03800
C 	C 	0.21636 0.65320 0.15314 -0.09000
C 	C 	0.23824 0.50108 0.29506 -0.01900
C 	C 	0.26171 0.46105 0.32035 -0.05100
C 	C 	0.71465 0.21641 0.98781 0.32900
C 	C 	0.69368 0.19416 0.98298 -0.01900
C 	C 	0.65320 0.21636 0.97730 -0.10000
C 	C 	0.50108 0.23824 0.96562 -0.00900
C 	C 	0.46105 0.26171 0.95689 -0.05500
C 	C 	0.08113 0.98781 0.21641 0.33000
C 	C 	0.12918 0.98298 0.19416 -0.02600
C 	C 	0.15314 0.97730 0.21636 -0.09700
C 	C 	0.29506 0.96562 0.23824 -0.01000
C 	C 	0.32035 0.95689 0.26171 -0.05500
C 	C 	0.98781 0.08113 0.71465 0.33000
C 	C 	0.98298 0.12918 0.69368 -0.02500
C 	C 	0.97730 0.15314 0.65320 -0.09700
C 	C 	0.96562 0.29506 0.50108 -0.01100
C 	C 	0.95689 0.32035 0.46105 -0.05300
C 	C 	0.21641 0.08113 0.98781 0.32900
C 	C 	0.19416 0.12918 0.98298 -0.02400
C 	C 	0.21636 0.15314 0.97730 -0.09800
C 	C 	0.23824 0.29506 0.96562 -0.00800
C 	C 	0.26171 0.32035 0.95689 -0.05500
C 	C 	0.71465 0.98781 0.08113 0.32900
C 	C 	0.69368 0.98298 0.12918 -0.02500
C 	C 	0.65320 0.97730 0.15314 -0.09800
C 	C 	0.50108 0.96562 0.29506 -0.01000
C 	C 	0.46105 0.95689 0.32035 -0.05400
C 	C 	0.08113 0.21641 0.71465 0.33300
C 	C 	0.12918 0.19416 0.69368 -0.03700
C 	C 	0.15314 0.21636 0.65320 -0.09100
C 	C 	0.29506 0.23824 0.50108 -0.02000
C 	C 	0.32035 0.26171 0.46105 -0.05100
C 	C 	0.98781 0.71465 0.21641 0.33100
C 	C 	0.98298 0.69368 0.19416 -0.02400
C 	C 	0.97730 0.65320 0.21636 -0.09700
C 	C 	0.96562 0.50108 0.23824 -0.01200
C 	C 	0.95689 0.46105 0.26171 -0.05400
C 	C 	0.21641 0.98781 0.71465 0.32900
C 	C 	0.19416 0.98298 0.69368 -0.02100
C 	C 	0.21636 0.97730 0.65320 -0.09900
C 	C 	0.23824 0.96562 0.50108 -0.01000
C 	C 	0.26171 0.95689 0.46105 -0.05400
C 	C 	0.71465 0.08113 0.21641 0.33500
C 	C 	0.69368 0.12918 0.19416 -0.03900
C 	C 	0.65320 0.15314 0.21636 -0.09000
C 	C 	0.50108 0.29506 0.23824 -0.02000
C 	C 	0.46105 0.32035 0.26171 -0.05200
C 	C 	0.08113 0.71465 0.98781 0.33000
C 	C 	0.12918 0.69368 0.98298 -0.02100
C 	C 	0.15314 0.65320 0.97730 -0.09900
C 	C 	0.29506 0.50108 0.96562 -0.00800
C 	C 	0.32035 0.46105 0.95689 -0.05500
C 	C 	0.98781 0.21641 0.08113 0.33100
C 	C 	0.98298 0.19416 0.12918 -0.02900
C 	C 	0.97730 0.21636 0.15314 -0.09500
C 	C 	0.96562 0.23824 0.29506 -0.01100
C 	C 	0.95689 0.26171 0.32035 -0.05500
C 	C 	0.28535 0.78359 0.91887 0.32900
C 	C 	0.30632 0.80584 0.87082 -0.02100
C 	C 	0.34680 0.78364 0.84686 -0.09800
C 	C 	0.49892 0.76176 0.70494 -0.02100
C 	C 	0.53895 0.73829 0.67965 -0.04800
C 	C 	0.78359 0.28535 0.01219 0.33400
C 	C 	0.80584 0.30632 0.01702 -0.04000
C 	C 	0.78364 0.34680 0.02270 -0.08900
C 	C 	0.76176 0.49892 0.03438 -0.03100
C 	C 	0.73829 0.53895 0.04311 -0.04400
C 	C 	0.01219 0.91887 0.78359 0.33000
C 	C 	0.01702 0.87082 0.80584 -0.02900
C 	C 	0.02270 0.84686 0.78364 -0.09500
C 	C 	0.03438 0.70494 0.76176 -0.02800
C 	C 	0.04311 0.67965 0.73829 -0.04500
C 	C 	0.91887 0.01219 0.28535 0.33200
C 	C 	0.87082 0.01702 0.30632 -0.03600
C 	C 	0.84686 0.02270 0.34680 -0.09100
C 	C 	0.70494 0.03438 0.49892 -0.03000
C 	C 	0.67965 0.04311 0.53895 -0.04600
C 	C 	0.91887 0.78359 0.01219 0.33200
C 	C 	0.87082 0.80584 0.01702 -0.03400
C 	C 	0.84686 0.78364 0.02270 -0.09200
C 	C 	0.70494 0.76176 0.03438 -0.03100
C 	C 	0.67965 0.73829 0.04311 -0.04400
C 	C 	0.01219 0.28535 0.91887 0.33000
C 	C 	0.01702 0.30632 0.87082 -0.03200
C 	C 	0.02270 0.34680 0.84686 -0.09300
C 	C 	0.03438 0.49892 0.70494 -0.02900
C 	C 	0.04311 0.53895 0.67965 -0.04600
C 	C 	0.78359 0.91887 0.28535 0.33100
C 	C 	0.80584 0.87082 0.30632 -0.02400
C 	C 	0.78364 0.84686 0.34680 -0.09700
C 	C 	0.76176 0.70494 0.49892 -0.02000
C 	C 	0.73829 0.67965 0.53895 -0.04800
C 	C 	0.28535 0.01219 0.78359 0.33300
C 	C 	0.30632 0.01702 0.80584 -0.03700
C 	C 	0.34680 0.02270 0.78364 -0.09100
C 	C 	0.49892 0.03438 0.76176 -0.02900
C 	C 	0.53895 0.04311 0.73829 -0.04500
C 	C 	0.01219 0.78359 0.28535 0.33400
C 	C 	0.01702 0.80584 0.30632 -0.03700
C 	C 	0.02270 0.78364 0.34680 -0.09100
C 	C 	0.03438 0.76176 0.49892 -0.02800
C 	C 	0.04311 0.73829 0.53895 -0.04600
C 	C 	0.91887 0.28535 0.78359 0.33000
C 	C 	0.87082 0.30632 0.80584 -0.02200
C 	C 	0.84686 0.34680 0.78364 -0.09800
C 	C 	0.70494 0.49892 0.76176 -0.02000
C 	C 	0.67965 0.53895 0.73829 -0.04800
C 	C 	0.28535 0.91887 0.01219 0.33100
C 	C 	0.30632 0.87082 0.01702 -0.03600
C 	C 	0.34680 0.84686 0.02270 -0.09100
C 	C 	0.49892 0.70494 0.03438 -0.03200
C 	C 	0.53895 0.67965 0.04311 -0.04500
C 	C 	0.78359 0.01219 0.91887 0.33000
C 	C 	0.80584 0.01702 0.87082 -0.03000
C 	C 	0.78364 0.02270 0.84686 -0.09400
C 	C 	0.76176 0.03438 0.70494 -0.03000
C 	C 	0.73829 0.04311 0.67965 -0.04500
C 	C 	0.84909 0.28511 0.84909 -0.02300
C 	C 	0.80289 0.36835 0.80289 0.13200
C 	C 	0.77610 0.44774 0.77610 0.21000
C 	C 	0.74937 0.48847 0.74937 -0.03500
C 	C 	0.70168 0.56836 0.70168 -0.00400
C 	C 	0.67678 0.61366 0.67678 0.10500
C 	C 	0.28511 0.84909 0.01671 -0.01600
C 	C 	0.36835 0.80289 0.02587 0.11500
C 	C 	0.44774 0.77610 0.00006 0.15800
C 	C 	0.48847 0.74937 0.01279 -0.02700
C 	C 	0.56836 0.70168 0.02828 -0.01400
C 	C 	0.61366 0.67678 0.03278 0.10500
C 	C 	0.84909 0.01671 0.84909 -0.02000
C 	C 	0.80289 0.02587 0.80289 0.12100
C 	C 	0.77610 0.00006 0.77610 0.16700
C 	C 	0.74937 0.01279 0.74937 -0.02700
C 	C 	0.70168 0.02828 0.70168 -0.01200
C 	C 	0.67678 0.03278 0.67678 0.10500
C 	C 	0.01671 0.84909 0.28511 -0.01700
C 	C 	0.02587 0.80289 0.36835 0.11900
C 	C 	0.00006 0.77610 0.44774 0.17300
C 	C 	0.01279 0.74937 0.48847 -0.03000
C 	C 	0.02828 0.70168 0.56836 -0.01100
C 	C 	0.03278 0.67678 0.61366 0.10500
C 	C 	0.84909 0.84909 0.01671 -0.01800
C 	C 	0.80289 0.80289 0.02587 0.11800
C 	C 	0.77610 0.77610 0.00006 0.15900
C 	C 	0.74937 0.74937 0.01279 -0.02600
C 	C 	0.70168 0.70168 0.02828 -0.01400
C 	C 	0.67678 0.67678 0.03278 0.10500
C 	C 	0.28511 0.01671 0.84909 -0.01700
C 	C 	0.36835 0.02587 0.80289 0.11800
C 	C 	0.44774 0.00006 0.77610 0.16600
C 	C 	0.48847 0.01279 0.74937 -0.02800
C 	C 	0.56836 0.02828 0.70168 -0.01200
C 	C 	0.61366 0.03278 0.67678 0.10500
C 	C 	0.84909 0.84909 0.28511 -0.02200
C 	C 	0.80289 0.80289 0.36835 0.13100
C 	C 	0.77610 0.77610 0.44774 0.21000
C 	C 	0.74937 0.74937 0.48847 -0.03500
C 	C 	0.70168 0.70168 0.56836 -0.00400
C 	C 	0.67678 0.67678 0.61366 0.10500
C 	C 	0.01671 0.28511 0.84909 -0.01800
C 	C 	0.02587 0.36835 0.80289 0.12000
C 	C 	0.00006 0.44774 0.77610 0.17300
C 	C 	0.01279 0.48847 0.74937 -0.02900
C 	C 	0.02828 0.56836 0.70168 -0.01100
C 	C 	0.03278 0.61366 0.67678 0.10500
C 	C 	0.84909 0.01671 0.28511 -0.01600
C 	C 	0.80289 0.02587 0.36835 0.11700
C 	C 	0.77610 0.00006 0.44774 0.16600
C 	C 	0.74937 0.01279 0.48847 -0.02900
C 	C 	0.70168 0.02828 0.56836 -0.01300
C 	C 	0.67678 0.03278 0.61366 0.10500
C 	C 	0.28511 0.84909 0.84909 -0.02400
C 	C 	0.36835 0.80289 0.80289 0.13200
C 	C 	0.44774 0.77610 0.77610 0.21000
C 	C 	0.48847 0.74937 0.74937 -0.03500
C 	C 	0.56836 0.70168 0.70168 -0.00400
C 	C 	0.61366 0.67678 0.67678 0.10500
C 	C 	0.84909 0.28511 0.01671 -0.01600
C 	C 	0.80289 0.36835 0.02587 0.11500
C 	C 	0.77610 0.44774 0.00006 0.15800
C 	C 	0.74937 0.48847 0.01279 -0.02700
C 	C 	0.70168 0.56836 0.02828 -0.01400
C 	C 	0.67678 0.61366 0.03278 0.10500
C 	C 	0.01671 0.84909 0.84909 -0.02100
C 	C 	0.02587 0.80289 0.80289 0.12300
C 	C 	0.00006 0.77610 0.77610 0.17400
C 	C 	0.01279 0.74937 0.74937 -0.02800
C 	C 	0.02828 0.70168 0.70168 -0.01100
C 	C 	0.03278 0.67678 0.67678 0.10500
C 	C 	0.71489 0.15091 0.15091 -0.01500
C 	C 	0.63165 0.19711 0.19711 0.12000
C 	C 	0.55226 0.22390 0.22390 0.20900
C 	C 	0.51153 0.25063 0.25063 -0.04400
C 	C 	0.43164 0.29832 0.29832 -0.00700
C 	C 	0.38634 0.32322 0.32322 0.10000
C 	C 	0.15091 0.71489 0.98329 -0.02400
C 	C 	0.19711 0.63165 0.97413 0.13900
C 	C 	0.22390 0.55226 0.99994 0.26100
C 	C 	0.25063 0.51153 0.98721 -0.05100
C 	C 	0.29832 0.43164 0.97172 0.00300
C 	C 	0.32322 0.38634 0.96722 0.10100
C 	C 	0.98329 0.15091 0.15091 -0.02000
C 	C 	0.97413 0.19711 0.19711 0.13100
C 	C 	0.99994 0.22390 0.22390 0.24700
C 	C 	0.98721 0.25063 0.25063 -0.05000
C 	C 	0.97172 0.29832 0.29832 0.00000
C 	C 	0.96722 0.32322 0.32322 0.10000
C 	C 	0.15091 0.98329 0.71489 -0.02400
C 	C 	0.19711 0.97413 0.63165 0.13700
C 	C 	0.22390 0.99994 0.55226 0.25400
C 	C 	0.25063 0.98721 0.51153 -0.04900
C 	C 	0.29832 0.97172 0.43164 0.00200
C 	C 	0.32322 0.96722 0.38634 0.10100
C 	C 	0.15091 0.15091 0.98329 -0.02200
C 	C 	0.19711 0.19711 0.97413 0.13600
C 	C 	0.22390 0.22390 0.99994 0.26100
C 	C 	0.25063 0.25063 0.98721 -0.05200
C 	C 	0.29832 0.29832 0.97172 0.00300
C 	C 	0.32322 0.32322 0.96722 0.10000
C 	C 	0.98329 0.71489 0.15091 -0.02100
C 	C 	0.97413 0.63165 0.19711 0.13300
C 	C 	0.99994 0.55226 0.22390 0.24600
C 	C 	0.98721 0.51153 0.25063 -0.04900
C 	C 	0.97172 0.43164 0.29832 0.00000
C 	C 	0.96722 0.38634 0.32322 0.10100
C 	C 	0.15091 0.15091 0.71489 -0.01600
C 	C 	0.19711 0.19711 0.63165 0.12100
C 	C 	0.22390 0.22390 0.55226 0.20900
C 	C 	0.25063 0.25063 0.51153 -0.04300
C 	C 	0.29832 0.29832 0.43164 -0.00700
C 	C 	0.32322 0.32322 0.38634 0.10100
C 	C 	0.71489 0.98329 0.15091 -0.02200
C 	C 	0.63165 0.97413 0.19711 0.13600
C 	C 	0.55226 0.99994 0.22390 0.25400
C 	C 	0.51153 0.98721 0.25063 -0.05000
C 	C 	0.43164 0.97172 0.29832 0.00200
C 	C 	0.38634 0.96722 0.32322 0.10000
C 	C 	0.98329 0.15091 0.71489 -0.02200
C 	C 	0.97413 0.19711 0.63165 0.13400
C 	C 	0.99994 0.22390 0.55226 0.24700
C 	C 	0.98721 0.25063 0.51153 -0.04800
C 	C 	0.97172 0.29832 0.43164 0.00000
C 	C 	0.96722 0.32322 0.38634 0.10100
C 	C 	0.15091 0.71489 0.15091 -0.01500
C 	C 	0.19711 0.63165 0.19711 0.12100
C 	C 	0.22390 0.55226 0.22390 0.20900
C 	C 	0.25063 0.51153 0.25063 -0.04300
C 	C 	0.29832 0.43164 0.29832 -0.00700
C 	C 	0.32322 0.38634 0.32322 0.10000
C 	C 	0.71489 0.15091 0.98329 -0.02400
C 	C 	0.63165 0.19711 0.97413 0.13800
C 	C 	0.55226 0.22390 0.99994 0.26200
C 	C 	0.51153 0.25063 0.98721 -0.05100
C 	C 	0.43164 0.29832 0.97172 0.00300
C 	C 	0.38634 0.32322 0.96722 0.10000
C 	C 	0.15091 0.98329 0.15091 -0.02100
C 	C 	0.19711 0.97413 0.19711 0.13400
C 	C 	0.22390 0.99994 0.22390 0.25500
C 	C 	0.25063 0.98721 0.25063 -0.05100
C 	C 	0.29832 0.97172 0.29832 0.00200
C 	C 	0.32322 0.96722 0.32322 0.10000
C 	C 	0.69809 0.63351 0.63351 -0.16800
C 	C 	0.63351 0.69809 0.03489 -0.17300
C 	C 	0.63351 0.03489 0.69809 -0.17200
C 	C 	0.03489 0.63351 0.63351 -0.17100
C 	C 	0.69809 0.63351 0.03489 -0.17300
C 	C 	0.63351 0.03489 0.63351 -0.17200
C 	C 	0.63351 0.69809 0.63351 -0.16800
C 	C 	0.03489 0.63351 0.69809 -0.17100
C 	C 	0.69809 0.03489 0.63351 -0.17200
C 	C 	0.63351 0.63351 0.69809 -0.16800
C 	C 	0.63351 0.63351 0.03489 -0.17300
C 	C 	0.03489 0.69809 0.63351 -0.17100
C 	C 	0.36649 0.30191 0.36649 -0.16800
C 	C 	0.30191 0.36649 0.96511 -0.16300
C 	C 	0.96511 0.36649 0.30191 -0.16400
C 	C 	0.36649 0.96511 0.36649 -0.16400
C 	C 	0.36649 0.30191 0.96511 -0.16300
C 	C 	0.96511 0.36649 0.36649 -0.16400
C 	C 	0.30191 0.36649 0.36649 -0.16800
C 	C 	0.36649 0.96511 0.30191 -0.16400
C 	C 	0.96511 0.30191 0.36649 -0.16400
C 	C 	0.36649 0.36649 0.30191 -0.16800
C 	C 	0.36649 0.36649 0.96511 -0.16300
C 	C 	0.30191 0.96511 0.36649 -0.16400
N 	N 	0.77757 0.41123 0.77757 -0.24200
N 	N 	0.41123 0.77757 0.03363 -0.23100
N 	N 	0.77757 0.03363 0.77757 -0.23300
N 	N 	0.03363 0.77757 0.41123 -0.23400
N 	N 	0.77757 0.77757 0.03363 -0.23100
N 	N 	0.41123 0.03363 0.77757 -0.23300
N 	N 	0.77757 0.77757 0.41123 -0.24100
N 	N 	0.03363 0.41123 0.77757 -0.23400
N 	N 	0.77757 0.03363 0.41123 -0.23300
N 	N 	0.41123 0.77757 0.77757 -0.24200
N 	N 	0.77757 0.41123 0.03363 -0.23100
N 	N 	0.03363 0.77757 0.77757 -0.23400
N 	N 	0.58877 0.22243 0.22243 -0.24200
N 	N 	0.22243 0.58877 0.96637 -0.25200
N 	N 	0.96637 0.22243 0.22243 -0.24900
N 	N 	0.22243 0.96637 0.58877 -0.25100
N 	N 	0.22243 0.22243 0.96637 -0.25200
N 	N 	0.96637 0.58877 0.22243 -0.24900
N 	N 	0.22243 0.22243 0.58877 -0.24200
N 	N 	0.58877 0.96637 0.22243 -0.25100
N 	N 	0.96637 0.22243 0.58877 -0.24900
N 	N 	0.22243 0.58877 0.22243 -0.24200
N 	N 	0.58877 0.22243 0.96637 -0.25200
N 	N 	0.22243 0.96637 0.22243 -0.25100
O 	O 	0.80614 0.24629 0.93709 -0.37500
O 	O 	0.74554 0.30691 0.93747 -0.38200
O 	O 	0.24630 0.80613 0.01048 -0.40400
O 	O 	0.30691 0.74554 0.01008 -0.41300
O 	O 	0.93710 0.01048 0.80613 -0.38700
O 	O 	0.93748 0.01008 0.74553 -0.39700
O 	O 	0.01049 0.93709 0.24629 -0.38700
O 	O 	0.01008 0.93748 0.30691 -0.39300
O 	O 	0.80614 0.93709 0.01048 -0.38800
O 	O 	0.74554 0.93747 0.01008 -0.39600
O 	O 	0.24630 0.01048 0.93709 -0.38600
O 	O 	0.30692 0.01008 0.93747 -0.39200
O 	O 	0.93710 0.80613 0.24629 -0.38600
O 	O 	0.93747 0.74554 0.30691 -0.38900
O 	O 	0.01049 0.24629 0.80613 -0.40000
O 	O 	0.01009 0.30691 0.74553 -0.40900
O 	O 	0.80614 0.01048 0.24629 -0.40900
O 	O 	0.74554 0.01008 0.30691 -0.41200
O 	O 	0.24630 0.93709 0.80613 -0.37700
O 	O 	0.30691 0.93748 0.74553 -0.38500
O 	O 	0.93710 0.24629 0.01048 -0.39300
O 	O 	0.93747 0.30691 0.01008 -0.39900
O 	O 	0.01049 0.80613 0.93709 -0.38300
O 	O 	0.01008 0.74554 0.93747 -0.39600
O 	O 	0.75370 0.19387 0.06291 -0.40500
O 	O 	0.69308 0.25447 0.06253 -0.41200
O 	O 	0.19386 0.75371 0.98952 -0.37500
O 	O 	0.25446 0.69309 0.98992 -0.38100
O 	O 	0.98951 0.06291 0.19387 -0.39000
O 	O 	0.98992 0.06253 0.25446 -0.39500
O 	O 	0.06290 0.98952 0.75371 -0.38200
O 	O 	0.06253 0.98992 0.69309 -0.39000
O 	O 	0.06290 0.19387 0.98952 -0.38300
O 	O 	0.06252 0.25447 0.98992 -0.38800
O 	O 	0.98951 0.75371 0.06291 -0.38900
O 	O 	0.98991 0.69309 0.06253 -0.40200
O 	O 	0.19386 0.06291 0.75371 -0.40300
O 	O 	0.25446 0.06253 0.69309 -0.41000
O 	O 	0.75370 0.98952 0.19387 -0.38500
O 	O 	0.69309 0.98992 0.25446 -0.38600
O 	O 	0.98951 0.19387 0.75371 -0.38000
O 	O 	0.98991 0.25447 0.69309 -0.38700
O 	O 	0.06290 0.75371 0.19387 -0.40700
O 	O 	0.06253 0.69309 0.25446 -0.41000
O 	O 	0.75370 0.06291 0.98952 -0.38100
O 	O 	0.69309 0.06253 0.98992 -0.38900
O 	O 	0.19386 0.98952 0.06291 -0.38700
O 	O 	0.25447 0.98992 0.06252 -0.39400
O 	O 	0.19386 0.75371 0.06291 -0.40400
O 	O 	0.25446 0.69309 0.06253 -0.41200
O 	O 	0.75370 0.19387 0.98952 -0.37500
O 	O 	0.69308 0.25447 0.98992 -0.38100
O 	O 	0.06290 0.98952 0.19387 -0.38500
O 	O 	0.06253 0.98992 0.25446 -0.39100
O 	O 	0.98951 0.06291 0.75371 -0.38600
O 	O 	0.98991 0.06253 0.69309 -0.39500
O 	O 	0.19386 0.06291 0.98952 -0.38300
O 	O 	0.25446 0.06253 0.98992 -0.38900
O 	O 	0.75370 0.98952 0.06291 -0.38500
O 	O 	0.69308 0.98992 0.06253 -0.39300
O 	O 	0.06290 0.19387 0.75371 -0.40200
O 	O 	0.06252 0.25447 0.69309 -0.40900
O 	O 	0.98951 0.75371 0.19387 -0.38600
O 	O 	0.98991 0.69309 0.25447 -0.38900
O 	O 	0.19386 0.98952 0.75371 -0.37700
O 	O 	0.25446 0.98992 0.69309 -0.38400
O 	O 	0.75370 0.06291 0.19387 -0.41000
O 	O 	0.69309 0.06253 0.25446 -0.41200
O 	O 	0.06290 0.75371 0.98952 -0.38100
O 	O 	0.06253 0.69309 0.98992 -0.39300
O 	O 	0.98951 0.19387 0.06291 -0.39100
O 	O 	0.98991 0.25447 0.06253 -0.39700
O 	O 	0.24630 0.80613 0.93709 -0.37500
O 	O 	0.30691 0.74554 0.93747 -0.38200
O 	O 	0.80614 0.24629 0.01048 -0.40400
O 	O 	0.74554 0.30691 0.01008 -0.41300
O 	O 	0.01049 0.93709 0.80613 -0.38400
O 	O 	0.01008 0.93748 0.74553 -0.39300
O 	O 	0.93710 0.01048 0.24629 -0.39200
O 	O 	0.93748 0.01008 0.30691 -0.39800
O 	O 	0.93710 0.80613 0.01048 -0.39100
O 	O 	0.93747 0.74554 0.01008 -0.40400
O 	O 	0.01049 0.24629 0.93709 -0.38500
O 	O 	0.01009 0.30691 0.93747 -0.39100
O 	O 	0.80614 0.93709 0.24629 -0.38400
O 	O 	0.74554 0.93747 0.30691 -0.38700
O 	O 	0.24630 0.01048 0.80613 -0.40200
O 	O 	0.30692 0.01008 0.74553 -0.41100
O 	O 	0.01049 0.80613 0.24629 -0.40600
O 	O 	0.01008 0.74554 0.30691 -0.41000
O 	O 	0.93710 0.24629 0.80613 -0.37900
O 	O 	0.93748 0.30691 0.74553 -0.38700
O 	O 	0.24630 0.93709 0.01048 -0.39000
O 	O 	0.30692 0.93747 0.01008 -0.39700
O 	O 	0.80614 0.01048 0.93709 -0.38300
O 	O 	0.74554 0.01008 0.93747 -0.39200
O 	O 	0.79449 0.45203 0.79449 -0.18400
O 	O 	0.45203 0.79449 0.95899 -0.13600
O 	O 	0.79449 0.95899 0.79449 -0.14100
O 	O 	0.95899 0.79449 0.45203 -0.15100
O 	O 	0.79449 0.79449 0.95899 -0.13400
O 	O 	0.45203 0.95899 0.79449 -0.14300
O 	O 	0.79449 0.79449 0.45203 -0.18400
O 	O 	0.95899 0.45203 0.79449 -0.15000
O 	O 	0.79449 0.95899 0.45203 -0.14500
O 	O 	0.45203 0.79449 0.79449 -0.18300
O 	O 	0.79449 0.45203 0.95899 -0.13700
O 	O 	0.95899 0.79449 0.79449 -0.14700
O 	O 	0.54797 0.20551 0.20551 -0.20200
O 	O 	0.20551 0.54797 0.04101 -0.24800
O 	O 	0.04101 0.20551 0.20551 -0.23900
O 	O 	0.20551 0.04101 0.54797 -0.24100
O 	O 	0.20551 0.20551 0.04101 -0.25200
O 	O 	0.04101 0.54797 0.20551 -0.23500
O 	O 	0.20551 0.20551 0.54797 -0.20000
O 	O 	0.54797 0.04101 0.20551 -0.24200
O 	O 	0.04101 0.20551 0.54797 -0.23500
O 	O 	0.20551 0.54797 0.20551 -0.20100
O 	O 	0.54797 0.20551 0.04101 -0.24900
O 	O 	0.20551 0.04101 0.20551 -0.24600
