data_crystal

_cell_length_a 32.35990
_cell_length_b 32.35990
_cell_length_c 38.45210
_cell_angle_alpha 65.11610
_cell_angle_beta  65.11610
_cell_angle_gamma 60.00000

_symmetry_space_group_name_	'P 1'
_symmetry_space_group_name_H-M	'P 1'

loop_
_symmetry_equiv_pos_as_xyz
  x,y,z

loop_
_atom_site_label
_atom_site_type_symbol
_atom_site_fract_x
_atom_site_fract_y
_atom_site_fract_z
_atom_site_charge
Zn	Zn	0.78708 0.82005 0.49724 1.22200
Zn	Zn	0.82005 0.89563 0.49724 1.22200
Zn	Zn	0.89563 0.78708 0.49724 1.22200
Zn	Zn	0.71292 0.60437 0.00276 1.22200
Zn	Zn	0.67995 0.71292 0.00276 1.22200
Zn	Zn	0.60437 0.67995 0.00276 1.22200
Zn	Zn	0.21292 0.17995 0.50276 1.22200
Zn	Zn	0.17995 0.10437 0.50276 1.22200
Zn	Zn	0.10437 0.21292 0.50276 1.22200
Zn	Zn	0.28708 0.39563 0.99724 1.22200
Zn	Zn	0.32005 0.28708 0.99724 1.22200
Zn	Zn	0.39563 0.32005 0.99724 1.22200
Zn	Zn	0.85937 0.85937 0.42189 1.25100
Zn	Zn	0.64063 0.64063 0.07811 1.25100
Zn	Zn	0.14063 0.14063 0.57811 1.25100
Zn	Zn	0.35937 0.35937 0.92189 1.25100
H 	H 	0.77020 0.87340 0.35990 0.19700
H 	H 	0.71270 0.83040 0.41630 -0.04500
H 	H 	0.73380 0.90890 0.30650 0.02200
H 	H 	0.68560 0.92290 0.26870 0.07600
H 	H 	0.66490 0.82620 0.39950 0.05600
H 	H 	0.64140 0.92420 0.23690 0.06200
H 	H 	0.60620 0.95800 0.26690 0.06200
H 	H 	0.48640 0.94720 0.28130 0.06500
H 	H 	0.52170 0.91140 0.30980 0.06800
H 	H 	0.44140 0.94820 0.34130 0.06700
H 	H 	0.37000 0.97930 0.38930 0.03800
H 	H 	0.40710 0.09060 0.36860 0.06700
H 	H 	0.51630 0.11230 0.29480 0.10700
H 	H 	0.47920 0.11070 0.33740 0.10100
H 	H 	0.45910 0.13460 0.29990 0.10300
H 	H 	0.31090 0.04330 0.42920 -0.02200
H 	H 	0.35120 0.10570 0.41090 0.17400
H 	H 	0.57950 0.78410 0.42080 0.12600
H 	H 	0.57520 0.83370 0.42260 0.12400
H 	H 	0.62530 0.78730 0.42260 0.12100
H 	H 	0.87340 0.99650 0.35990 0.19700
H 	H 	0.83040 0.04060 0.41630 -0.04500
H 	H 	0.90890 0.05080 0.30650 0.02200
H 	H 	0.92290 0.12280 0.26870 0.07600
H 	H 	0.82620 0.10940 0.39950 0.05600
H 	H 	0.92420 0.19750 0.23690 0.06200
H 	H 	0.95800 0.16890 0.26690 0.06200
H 	H 	0.94720 0.28510 0.28130 0.06500
H 	H 	0.91140 0.25710 0.30980 0.06800
H 	H 	0.94820 0.26910 0.34130 0.06700
H 	H 	0.97930 0.26140 0.38930 0.03800
H 	H 	0.09060 0.13370 0.36860 0.06700
H 	H 	0.11230 0.07660 0.29480 0.10700
H 	H 	0.11070 0.07270 0.33740 0.10100
H 	H 	0.13460 0.10640 0.29990 0.10300
H 	H 	0.04330 0.21660 0.42920 -0.02200
H 	H 	0.10570 0.13220 0.41090 0.17400
H 	H 	0.78410 0.21560 0.42080 0.12600
H 	H 	0.83370 0.16850 0.42260 0.12400
H 	H 	0.78730 0.16480 0.42260 0.12100
H 	H 	0.99650 0.77020 0.35990 0.19700
H 	H 	0.04060 0.71270 0.41630 -0.04500
H 	H 	0.05080 0.73380 0.30650 0.02100
H 	H 	0.12280 0.68560 0.26870 0.07500
H 	H 	0.10940 0.66490 0.39950 0.05500
H 	H 	0.19750 0.64140 0.23690 0.06100
H 	H 	0.16890 0.60620 0.26690 0.06100
H 	H 	0.28510 0.48640 0.28130 0.06400
H 	H 	0.25710 0.52170 0.30980 0.06700
H 	H 	0.26910 0.44140 0.34130 0.06600
H 	H 	0.26140 0.37000 0.38930 0.03700
H 	H 	0.13370 0.40710 0.36860 0.06600
H 	H 	0.07660 0.51630 0.29480 0.10600
H 	H 	0.07270 0.47920 0.33740 0.10000
H 	H 	0.10640 0.45910 0.29990 0.10200
H 	H 	0.21660 0.31090 0.42920 -0.02300
H 	H 	0.13220 0.35120 0.41090 0.17300
H 	H 	0.21560 0.57950 0.42080 0.12500
H 	H 	0.16850 0.57520 0.42260 0.12300
H 	H 	0.16480 0.62530 0.42260 0.12000
H 	H 	0.72980 0.50350 0.14010 0.19600
H 	H 	0.78730 0.45940 0.08370 -0.04600
H 	H 	0.76620 0.44920 0.19350 0.02200
H 	H 	0.81440 0.37720 0.23130 0.07500
H 	H 	0.83510 0.39060 0.10050 0.05500
H 	H 	0.85860 0.30250 0.26310 0.06100
H 	H 	0.89380 0.33110 0.23310 0.06100
H 	H 	0.01360 0.21490 0.21870 0.06400
H 	H 	0.97830 0.24290 0.19020 0.06700
H 	H 	0.05860 0.23090 0.15870 0.06600
H 	H 	0.13000 0.23860 0.11070 0.03700
H 	H 	0.09290 0.36630 0.13140 0.06600
H 	H 	0.98370 0.42340 0.20520 0.10600
H 	H 	0.02080 0.42730 0.16260 0.10000
H 	H 	0.04090 0.39360 0.20010 0.10200
H 	H 	0.18910 0.28340 0.07080 -0.02300
H 	H 	0.14880 0.36780 0.08910 0.17300
H 	H 	0.92050 0.28440 0.07920 0.12500
H 	H 	0.92480 0.33150 0.07740 0.12300
H 	H 	0.87470 0.33520 0.07740 0.12000
H 	H 	0.62660 0.72980 0.14010 0.19600
H 	H 	0.66960 0.78730 0.08370 -0.04600
H 	H 	0.59110 0.76620 0.19350 0.02200
H 	H 	0.57710 0.81440 0.23130 0.07500
H 	H 	0.67380 0.83510 0.10050 0.05500
H 	H 	0.57580 0.85860 0.26310 0.06100
H 	H 	0.54200 0.89380 0.23310 0.06100
H 	H 	0.55280 0.01360 0.21870 0.06400
H 	H 	0.58860 0.97830 0.19020 0.06700
H 	H 	0.55180 0.05860 0.15870 0.06600
H 	H 	0.52070 0.13000 0.11070 0.03700
H 	H 	0.40940 0.09290 0.13140 0.06600
H 	H 	0.38770 0.98370 0.20520 0.10600
H 	H 	0.38930 0.02080 0.16260 0.10000
H 	H 	0.36540 0.04090 0.20010 0.10200
H 	H 	0.45670 0.18910 0.07080 -0.02300
H 	H 	0.39430 0.14880 0.08910 0.17300
H 	H 	0.71590 0.92050 0.07920 0.12500
H 	H 	0.66630 0.92480 0.07740 0.12300
H 	H 	0.71270 0.87470 0.07740 0.12000
H 	H 	0.50350 0.62660 0.14010 0.19600
H 	H 	0.45940 0.66960 0.08370 -0.04600
H 	H 	0.44920 0.59110 0.19350 0.02200
H 	H 	0.37720 0.57710 0.23130 0.07500
H 	H 	0.39060 0.67380 0.10050 0.05500
H 	H 	0.30250 0.57580 0.26310 0.06100
H 	H 	0.33110 0.54200 0.23310 0.06100
H 	H 	0.21490 0.55280 0.21870 0.06400
H 	H 	0.24290 0.58860 0.19020 0.06700
H 	H 	0.23090 0.55180 0.15870 0.06600
H 	H 	0.23860 0.52070 0.11070 0.03700
H 	H 	0.36630 0.40940 0.13140 0.06600
H 	H 	0.42340 0.38770 0.20520 0.10600
H 	H 	0.42730 0.38930 0.16260 0.10000
H 	H 	0.39360 0.36540 0.20010 0.10200
H 	H 	0.28340 0.45670 0.07080 -0.02300
H 	H 	0.36780 0.39430 0.08910 0.17300
H 	H 	0.28440 0.71590 0.07920 0.12500
H 	H 	0.33150 0.66630 0.07740 0.12300
H 	H 	0.33520 0.71270 0.07740 0.12000
H 	H 	0.22980 0.12660 0.64010 0.19600
H 	H 	0.28730 0.16960 0.58370 -0.04600
H 	H 	0.26620 0.09110 0.69350 0.02100
H 	H 	0.31440 0.07710 0.73130 0.07500
H 	H 	0.33510 0.17380 0.60050 0.05500
H 	H 	0.35860 0.07580 0.76310 0.06100
H 	H 	0.39380 0.04200 0.73310 0.06100
H 	H 	0.51360 0.05280 0.71870 0.06400
H 	H 	0.47830 0.08860 0.69020 0.06700
H 	H 	0.55860 0.05180 0.65870 0.06600
H 	H 	0.63000 0.02070 0.61070 0.03700
H 	H 	0.59290 0.90940 0.63140 0.06600
H 	H 	0.48370 0.88770 0.70520 0.10600
H 	H 	0.52080 0.88930 0.66260 0.10000
H 	H 	0.54090 0.86540 0.70010 0.10200
H 	H 	0.68910 0.95670 0.57080 -0.02300
H 	H 	0.64880 0.89430 0.58910 0.17300
H 	H 	0.42050 0.21590 0.57920 0.12500
H 	H 	0.42480 0.16630 0.57740 0.12300
H 	H 	0.37470 0.21270 0.57740 0.12000
H 	H 	0.12660 0.00350 0.64010 0.19600
H 	H 	0.16960 0.95940 0.58370 -0.04600
H 	H 	0.09110 0.94920 0.69350 0.02100
H 	H 	0.07710 0.87720 0.73130 0.07500
H 	H 	0.17380 0.89060 0.60050 0.05500
H 	H 	0.07580 0.80250 0.76310 0.06100
H 	H 	0.04200 0.83110 0.73310 0.06100
H 	H 	0.05280 0.71490 0.71870 0.06400
H 	H 	0.08860 0.74290 0.69020 0.06700
H 	H 	0.05180 0.73090 0.65870 0.06600
H 	H 	0.02070 0.73860 0.61070 0.03700
H 	H 	0.90940 0.86630 0.63140 0.06600
H 	H 	0.88770 0.92340 0.70520 0.10600
H 	H 	0.88930 0.92730 0.66260 0.10000
H 	H 	0.86540 0.89360 0.70010 0.10200
H 	H 	0.95670 0.78340 0.57080 -0.02300
H 	H 	0.89430 0.86780 0.58910 0.17300
H 	H 	0.21590 0.78440 0.57920 0.12500
H 	H 	0.16630 0.83150 0.57740 0.12300
H 	H 	0.21270 0.83520 0.57740 0.12000
H 	H 	0.00350 0.22980 0.64010 0.19600
H 	H 	0.95940 0.28730 0.58370 -0.04600
H 	H 	0.94920 0.26620 0.69350 0.02100
H 	H 	0.87720 0.31440 0.73130 0.07500
H 	H 	0.89060 0.33510 0.60050 0.05500
H 	H 	0.80250 0.35860 0.76310 0.06100
H 	H 	0.83110 0.39380 0.73310 0.06100
H 	H 	0.71490 0.51360 0.71870 0.06400
H 	H 	0.74290 0.47830 0.69020 0.06700
H 	H 	0.73090 0.55860 0.65870 0.06600
H 	H 	0.73860 0.63000 0.61070 0.03700
H 	H 	0.86630 0.59290 0.63140 0.06600
H 	H 	0.92340 0.48370 0.70520 0.10600
H 	H 	0.92730 0.52080 0.66260 0.10000
H 	H 	0.89360 0.54090 0.70010 0.10200
H 	H 	0.78340 0.68910 0.57080 -0.02300
H 	H 	0.86780 0.64880 0.58910 0.17300
H 	H 	0.78440 0.42050 0.57920 0.12500
H 	H 	0.83150 0.42480 0.57740 0.12300
H 	H 	0.83520 0.37470 0.57740 0.12000
H 	H 	0.27020 0.49650 0.85990 0.19600
H 	H 	0.21270 0.54060 0.91630 -0.04600
H 	H 	0.23380 0.55080 0.80650 0.02200
H 	H 	0.18560 0.62280 0.76870 0.07500
H 	H 	0.16490 0.60940 0.89950 0.05500
H 	H 	0.14140 0.69750 0.73690 0.06100
H 	H 	0.10620 0.66890 0.76690 0.06100
H 	H 	0.98640 0.78510 0.78130 0.06400
H 	H 	0.02170 0.75710 0.80980 0.06700
H 	H 	0.94140 0.76910 0.84130 0.06600
H 	H 	0.87000 0.76140 0.88930 0.03700
H 	H 	0.90710 0.63370 0.86860 0.06600
H 	H 	0.01630 0.57660 0.79480 0.10600
H 	H 	0.97920 0.57270 0.83740 0.10000
H 	H 	0.95910 0.60640 0.79990 0.10200
H 	H 	0.81090 0.71660 0.92920 -0.02300
H 	H 	0.85120 0.63220 0.91090 0.17300
H 	H 	0.07950 0.71560 0.92080 0.12500
H 	H 	0.07520 0.66850 0.92260 0.12300
H 	H 	0.12530 0.66480 0.92260 0.12000
H 	H 	0.37340 0.27020 0.85990 0.19600
H 	H 	0.33040 0.21270 0.91630 -0.04600
H 	H 	0.40890 0.23380 0.80650 0.02200
H 	H 	0.42290 0.18560 0.76870 0.07500
H 	H 	0.32620 0.16490 0.89950 0.05500
H 	H 	0.42420 0.14140 0.73690 0.06100
H 	H 	0.45800 0.10620 0.76690 0.06100
H 	H 	0.44720 0.98640 0.78130 0.06400
H 	H 	0.41140 0.02170 0.80980 0.06700
H 	H 	0.44820 0.94140 0.84130 0.06600
H 	H 	0.47930 0.87000 0.88930 0.03700
H 	H 	0.59060 0.90710 0.86860 0.06600
H 	H 	0.61230 0.01630 0.79480 0.10600
H 	H 	0.61070 0.97920 0.83740 0.10000
H 	H 	0.63460 0.95910 0.79990 0.10200
H 	H 	0.54330 0.81090 0.92920 -0.02300
H 	H 	0.60570 0.85120 0.91090 0.17300
H 	H 	0.28410 0.07950 0.92080 0.12500
H 	H 	0.33370 0.07520 0.92260 0.12300
H 	H 	0.28730 0.12530 0.92260 0.12000
H 	H 	0.49650 0.37340 0.85990 0.19600
H 	H 	0.54060 0.33040 0.91630 -0.04600
H 	H 	0.55080 0.40890 0.80650 0.02200
H 	H 	0.62280 0.42290 0.76870 0.07500
H 	H 	0.60940 0.32620 0.89950 0.05500
H 	H 	0.69750 0.42420 0.73690 0.06100
H 	H 	0.66890 0.45800 0.76690 0.06100
H 	H 	0.78510 0.44720 0.78130 0.06400
H 	H 	0.75710 0.41140 0.80980 0.06700
H 	H 	0.76910 0.44820 0.84130 0.06600
H 	H 	0.76140 0.47930 0.88930 0.03700
H 	H 	0.63370 0.59060 0.86860 0.06600
H 	H 	0.57660 0.61230 0.79480 0.10600
H 	H 	0.57270 0.61070 0.83740 0.10000
H 	H 	0.60640 0.63460 0.79990 0.10200
H 	H 	0.71660 0.54330 0.92920 -0.02300
H 	H 	0.63220 0.60570 0.91090 0.17300
H 	H 	0.71560 0.28410 0.92080 0.12500
H 	H 	0.66850 0.33370 0.92260 0.12300
H 	H 	0.66480 0.28730 0.92260 0.12000
C 	C 	0.77670 0.85060 0.41840 0.46700
C 	C 	0.75625 0.85895 0.38585 -0.43900
C 	C 	0.72506 0.84876 0.39152 0.25900
C 	C 	0.70414 0.86614 0.35678 -0.06900
C 	C 	0.71030 0.89510 0.31760 0.01700
C 	C 	0.68141 0.90341 0.29507 -0.12100
C 	C 	0.64637 0.88277 0.31169 0.10200
C 	C 	0.64010 0.85380 0.35090 0.06300
C 	C 	0.66900 0.84560 0.37340 -0.06900
C 	C 	0.61195 0.93025 0.25925 -0.04500
C 	C 	0.51521 0.94101 0.28787 -0.05700
C 	C 	0.46689 0.00079 0.32633 0.08100
C 	C 	0.43446 0.97676 0.34682 -0.09300
C 	C 	0.39180 0.99530 0.37550 -0.02500
C 	C 	0.38157 0.03787 0.38369 -0.02000
C 	C 	0.41400 0.06190 0.36320 -0.11500
C 	C 	0.45666 0.04336 0.33452 0.12600
C 	C 	0.48560 0.10870 0.31130 -0.22600
C 	C 	0.33371 0.05801 0.41597 0.19800
C 	C 	0.32888 0.09058 0.42206 -0.38800
C 	C 	0.27954 0.10644 0.45158 0.38100
C 	C 	0.59670 0.80500 0.41270 -0.28700
C 	C 	0.85060 0.95430 0.41840 0.46700
C 	C 	0.85895 0.99895 0.38585 -0.43900
C 	C 	0.84876 0.03466 0.39152 0.25900
C 	C 	0.86614 0.07294 0.35678 -0.06900
C 	C 	0.89510 0.07700 0.31760 0.01700
C 	C 	0.90341 0.12011 0.29507 -0.12100
C 	C 	0.88277 0.15917 0.31169 0.10200
C 	C 	0.85380 0.15520 0.35090 0.06300
C 	C 	0.84560 0.11200 0.37340 -0.06900
C 	C 	0.93025 0.19855 0.25925 -0.04500
C 	C 	0.94101 0.25591 0.28787 -0.05700
C 	C 	0.00079 0.20599 0.32633 0.08200
C 	C 	0.97676 0.24196 0.34682 -0.09300
C 	C 	0.99530 0.23740 0.37550 -0.02500
C 	C 	0.03787 0.19687 0.38369 -0.02000
C 	C 	0.06190 0.16090 0.36320 -0.11500
C 	C 	0.04336 0.16546 0.33452 0.12600
C 	C 	0.10870 0.09440 0.31130 -0.22600
C 	C 	0.05801 0.19231 0.41597 0.19800
C 	C 	0.09058 0.15848 0.42206 -0.38800
C 	C 	0.10644 0.16244 0.45158 0.38100
C 	C 	0.80500 0.18560 0.41270 -0.28700
C 	C 	0.95430 0.77670 0.41840 0.46800
C 	C 	0.99895 0.75625 0.38585 -0.43900
C 	C 	0.03466 0.72506 0.39152 0.26000
C 	C 	0.07294 0.70414 0.35678 -0.06900
C 	C 	0.07700 0.71030 0.31760 0.01700
C 	C 	0.12011 0.68141 0.29507 -0.12100
C 	C 	0.15917 0.64637 0.31169 0.10300
C 	C 	0.15520 0.64010 0.35090 0.06300
C 	C 	0.11200 0.66900 0.37340 -0.06800
C 	C 	0.19855 0.61195 0.25925 -0.04500
C 	C 	0.25591 0.51521 0.28787 -0.05700
C 	C 	0.20599 0.46689 0.32633 0.08100
C 	C 	0.24196 0.43446 0.34682 -0.09300
C 	C 	0.23740 0.39180 0.37550 -0.02500
C 	C 	0.19687 0.38157 0.38369 -0.02000
C 	C 	0.16090 0.41400 0.36320 -0.11500
C 	C 	0.16546 0.45666 0.33452 0.12600
C 	C 	0.09440 0.48560 0.31130 -0.22600
C 	C 	0.19231 0.33371 0.41597 0.19800
C 	C 	0.15848 0.32888 0.42206 -0.38800
C 	C 	0.16244 0.27954 0.45158 0.38100
C 	C 	0.18560 0.59670 0.41270 -0.28700
C 	C 	0.72330 0.54570 0.08160 0.46700
C 	C 	0.74375 0.50105 0.11415 -0.43900
C 	C 	0.77494 0.46534 0.10848 0.25900
C 	C 	0.79586 0.42706 0.14322 -0.06900
C 	C 	0.78970 0.42300 0.18240 0.01700
C 	C 	0.81859 0.37989 0.20493 -0.12100
C 	C 	0.85363 0.34083 0.18831 0.10200
C 	C 	0.85990 0.34480 0.14910 0.06300
C 	C 	0.83100 0.38800 0.12660 -0.06900
C 	C 	0.88805 0.30145 0.24075 -0.04500
C 	C 	0.98479 0.24409 0.21213 -0.05800
C 	C 	0.03311 0.29401 0.17367 0.08100
C 	C 	0.06554 0.25804 0.15318 -0.09300
C 	C 	0.10820 0.26260 0.12450 -0.02500
C 	C 	0.11843 0.30313 0.11631 -0.02000
C 	C 	0.08600 0.33910 0.13680 -0.11500
C 	C 	0.04334 0.33454 0.16548 0.12600
C 	C 	0.01440 0.40560 0.18870 -0.22500
C 	C 	0.16629 0.30769 0.08403 0.19800
C 	C 	0.17112 0.34152 0.07794 -0.38800
C 	C 	0.22046 0.33756 0.04842 0.38100
C 	C 	0.90330 0.31440 0.08730 -0.28700
C 	C 	0.64940 0.72330 0.08160 0.46700
C 	C 	0.64105 0.74375 0.11415 -0.43900
C 	C 	0.65124 0.77494 0.10848 0.25900
C 	C 	0.63386 0.79586 0.14322 -0.06900
C 	C 	0.60490 0.78970 0.18240 0.01700
C 	C 	0.59659 0.81859 0.20493 -0.12100
C 	C 	0.61723 0.85363 0.18831 0.10200
C 	C 	0.64620 0.85990 0.14910 0.06300
C 	C 	0.65440 0.83100 0.12660 -0.06900
C 	C 	0.56975 0.88805 0.24075 -0.04500
C 	C 	0.55899 0.98479 0.21213 -0.05800
C 	C 	0.49921 0.03311 0.17367 0.08100
C 	C 	0.52324 0.06554 0.15318 -0.09300
C 	C 	0.50470 0.10820 0.12450 -0.02500
C 	C 	0.46213 0.11843 0.11631 -0.02000
C 	C 	0.43810 0.08600 0.13680 -0.11500
C 	C 	0.45664 0.04334 0.16548 0.12700
C 	C 	0.39130 0.01440 0.18870 -0.22500
C 	C 	0.44199 0.16629 0.08403 0.19800
C 	C 	0.40942 0.17112 0.07794 -0.38800
C 	C 	0.39356 0.22046 0.04842 0.38100
C 	C 	0.69500 0.90330 0.08730 -0.28700
C 	C 	0.54570 0.64940 0.08160 0.46700
C 	C 	0.50105 0.64105 0.11415 -0.43900
C 	C 	0.46534 0.65124 0.10848 0.25900
C 	C 	0.42706 0.63386 0.14322 -0.06900
C 	C 	0.42300 0.60490 0.18240 0.01700
C 	C 	0.37989 0.59659 0.20493 -0.12100
C 	C 	0.34083 0.61723 0.18831 0.10200
C 	C 	0.34480 0.64620 0.14910 0.06300
C 	C 	0.38800 0.65440 0.12660 -0.06900
C 	C 	0.30145 0.56975 0.24075 -0.04500
C 	C 	0.24409 0.55899 0.21213 -0.05700
C 	C 	0.29401 0.49921 0.17367 0.08100
C 	C 	0.25804 0.52324 0.15318 -0.09300
C 	C 	0.26260 0.50470 0.12450 -0.02500
C 	C 	0.30313 0.46213 0.11631 -0.02000
C 	C 	0.33910 0.43810 0.13680 -0.11500
C 	C 	0.33454 0.45664 0.16548 0.12700
C 	C 	0.40560 0.39130 0.18870 -0.22600
C 	C 	0.30769 0.44199 0.08403 0.19800
C 	C 	0.34152 0.40942 0.07794 -0.38800
C 	C 	0.33756 0.39356 0.04842 0.38100
C 	C 	0.31440 0.69500 0.08730 -0.28700
C 	C 	0.22330 0.14940 0.58160 0.46700
C 	C 	0.24375 0.14105 0.61415 -0.43900
C 	C 	0.27494 0.15124 0.60848 0.25900
C 	C 	0.29586 0.13386 0.64322 -0.06900
C 	C 	0.28970 0.10490 0.68240 0.01700
C 	C 	0.31859 0.09659 0.70493 -0.12100
C 	C 	0.35363 0.11723 0.68831 0.10200
C 	C 	0.35990 0.14620 0.64910 0.06300
C 	C 	0.33100 0.15440 0.62660 -0.06900
C 	C 	0.38805 0.06975 0.74075 -0.04500
C 	C 	0.48479 0.05899 0.71213 -0.05700
C 	C 	0.53311 0.99921 0.67367 0.08100
C 	C 	0.56554 0.02324 0.65318 -0.09300
C 	C 	0.60820 0.00470 0.62450 -0.02500
C 	C 	0.61843 0.96213 0.61631 -0.02000
C 	C 	0.58600 0.93810 0.63680 -0.11500
C 	C 	0.54334 0.95664 0.66548 0.12600
C 	C 	0.51440 0.89130 0.68870 -0.22600
C 	C 	0.66629 0.94199 0.58403 0.19800
C 	C 	0.67112 0.90942 0.57794 -0.38800
C 	C 	0.72046 0.89356 0.54842 0.38100
C 	C 	0.40330 0.19500 0.58730 -0.28700
C 	C 	0.14940 0.04570 0.58160 0.46700
C 	C 	0.14105 0.00105 0.61415 -0.43900
C 	C 	0.15124 0.96534 0.60848 0.25900
C 	C 	0.13386 0.92706 0.64322 -0.06900
C 	C 	0.10490 0.92300 0.68240 0.01700
C 	C 	0.09659 0.87989 0.70493 -0.12100
C 	C 	0.11723 0.84083 0.68831 0.10200
C 	C 	0.14620 0.84480 0.64910 0.06300
C 	C 	0.15440 0.88800 0.62660 -0.06900
C 	C 	0.06975 0.80145 0.74075 -0.04500
C 	C 	0.05899 0.74409 0.71213 -0.05700
C 	C 	0.99921 0.79401 0.67367 0.08200
C 	C 	0.02324 0.75804 0.65318 -0.09300
C 	C 	0.00470 0.76260 0.62450 -0.02500
C 	C 	0.96213 0.80313 0.61631 -0.02000
C 	C 	0.93810 0.83910 0.63680 -0.11500
C 	C 	0.95664 0.83454 0.66548 0.12600
C 	C 	0.89130 0.90560 0.68870 -0.22600
C 	C 	0.94199 0.80769 0.58403 0.19800
C 	C 	0.90942 0.84152 0.57794 -0.38800
C 	C 	0.89356 0.83756 0.54842 0.38100
C 	C 	0.19500 0.81440 0.58730 -0.28700
C 	C 	0.04570 0.22330 0.58160 0.46800
C 	C 	0.00105 0.24375 0.61415 -0.43900
C 	C 	0.96534 0.27494 0.60848 0.26000
C 	C 	0.92706 0.29586 0.64322 -0.06900
C 	C 	0.92300 0.28970 0.68240 0.01700
C 	C 	0.87989 0.31859 0.70493 -0.12100
C 	C 	0.84083 0.35363 0.68831 0.10300
C 	C 	0.84480 0.35990 0.64910 0.06300
C 	C 	0.88800 0.33100 0.62660 -0.06800
C 	C 	0.80145 0.38805 0.74075 -0.04500
C 	C 	0.74409 0.48479 0.71213 -0.05700
C 	C 	0.79401 0.53311 0.67367 0.08100
C 	C 	0.75804 0.56554 0.65318 -0.09300
C 	C 	0.76260 0.60820 0.62450 -0.02500
C 	C 	0.80313 0.61843 0.61631 -0.02000
C 	C 	0.83910 0.58600 0.63680 -0.11500
C 	C 	0.83454 0.54334 0.66548 0.12600
C 	C 	0.90560 0.51440 0.68870 -0.22600
C 	C 	0.80769 0.66629 0.58403 0.19800
C 	C 	0.84152 0.67112 0.57794 -0.38800
C 	C 	0.83756 0.72046 0.54842 0.38100
C 	C 	0.81440 0.40330 0.58730 -0.28700
C 	C 	0.27670 0.45430 0.91840 0.46700
C 	C 	0.25625 0.49895 0.88585 -0.43900
C 	C 	0.22506 0.53466 0.89152 0.25900
C 	C 	0.20414 0.57294 0.85678 -0.06900
C 	C 	0.21030 0.57700 0.81760 0.01700
C 	C 	0.18141 0.62011 0.79507 -0.12100
C 	C 	0.14637 0.65917 0.81169 0.10200
C 	C 	0.14010 0.65520 0.85090 0.06300
C 	C 	0.16900 0.61200 0.87340 -0.06900
C 	C 	0.11195 0.69855 0.75925 -0.04500
C 	C 	0.01521 0.75591 0.78787 -0.05800
C 	C 	0.96689 0.70599 0.82633 0.08100
C 	C 	0.93446 0.74196 0.84682 -0.09300
C 	C 	0.89180 0.73740 0.87550 -0.02500
C 	C 	0.88157 0.69687 0.88369 -0.02000
C 	C 	0.91400 0.66090 0.86320 -0.11500
C 	C 	0.95666 0.66546 0.83452 0.12600
C 	C 	0.98560 0.59440 0.81130 -0.22500
C 	C 	0.83371 0.69231 0.91597 0.19800
C 	C 	0.82888 0.65848 0.92206 -0.38800
C 	C 	0.77954 0.66244 0.95158 0.38100
C 	C 	0.09670 0.68560 0.91270 -0.28700
C 	C 	0.35060 0.27670 0.91840 0.46700
C 	C 	0.35895 0.25625 0.88585 -0.43900
C 	C 	0.34876 0.22506 0.89152 0.25900
C 	C 	0.36614 0.20414 0.85678 -0.06900
C 	C 	0.39510 0.21030 0.81760 0.01700
C 	C 	0.40341 0.18141 0.79507 -0.12100
C 	C 	0.38277 0.14637 0.81169 0.10200
C 	C 	0.35380 0.14010 0.85090 0.06300
C 	C 	0.34560 0.16900 0.87340 -0.06900
C 	C 	0.43025 0.11195 0.75925 -0.04500
C 	C 	0.44101 0.01521 0.78787 -0.05800
C 	C 	0.50079 0.96689 0.82633 0.08100
C 	C 	0.47676 0.93446 0.84682 -0.09300
C 	C 	0.49530 0.89180 0.87550 -0.02500
C 	C 	0.53787 0.88157 0.88369 -0.02000
C 	C 	0.56190 0.91400 0.86320 -0.11500
C 	C 	0.54336 0.95666 0.83452 0.12700
C 	C 	0.60870 0.98560 0.81130 -0.22500
C 	C 	0.55801 0.83371 0.91597 0.19800
C 	C 	0.59058 0.82888 0.92206 -0.38800
C 	C 	0.60644 0.77954 0.95158 0.38100
C 	C 	0.30500 0.09670 0.91270 -0.28700
C 	C 	0.45430 0.35060 0.91840 0.46700
C 	C 	0.49895 0.35895 0.88585 -0.43900
C 	C 	0.53466 0.34876 0.89152 0.25900
C 	C 	0.57294 0.36614 0.85678 -0.06900
C 	C 	0.57700 0.39510 0.81760 0.01700
C 	C 	0.62011 0.40341 0.79507 -0.12100
C 	C 	0.65917 0.38277 0.81169 0.10200
C 	C 	0.65520 0.35380 0.85090 0.06300
C 	C 	0.61200 0.34560 0.87340 -0.06900
C 	C 	0.69855 0.43025 0.75925 -0.04500
C 	C 	0.75591 0.44101 0.78787 -0.05700
C 	C 	0.70599 0.50079 0.82633 0.08100
C 	C 	0.74196 0.47676 0.84682 -0.09300
C 	C 	0.73740 0.49530 0.87550 -0.02500
C 	C 	0.69687 0.53787 0.88369 -0.02000
C 	C 	0.66090 0.56190 0.86320 -0.11500
C 	C 	0.66546 0.54336 0.83452 0.12700
C 	C 	0.59440 0.60870 0.81130 -0.22600
C 	C 	0.69231 0.55801 0.91597 0.19800
C 	C 	0.65848 0.59058 0.92206 -0.38800
C 	C 	0.66244 0.60644 0.95158 0.38100
C 	C 	0.68560 0.30500 0.91270 -0.28700
C 	C 	0.56275 0.93725 0.25000 0.08100
C 	C 	0.93725 0.25000 0.25000 0.08100
C 	C 	0.25000 0.56275 0.25000 0.08100
C 	C 	0.43725 0.06275 0.75000 0.08100
C 	C 	0.06275 0.75000 0.75000 0.08100
C 	C 	0.75000 0.43725 0.75000 0.08100
O 	O 	0.81505 0.86445 0.40265 -0.53300
O 	O 	0.24683 0.08433 0.47201 -0.48200
O 	O 	0.76555 0.82725 0.45365 -0.51800
O 	O 	0.26612 0.14312 0.46844 -0.49000
O 	O 	0.61424 0.88654 0.29228 -0.16800
O 	O 	0.50991 0.98411 0.29627 -0.16200
O 	O 	0.48926 0.05976 0.31412 -0.16900
O 	O 	0.61272 0.82132 0.36794 -0.12800
O 	O 	0.86445 0.91785 0.40265 -0.53400
O 	O 	0.08433 0.19683 0.47201 -0.48200
O 	O 	0.82725 0.95355 0.45365 -0.51800
O 	O 	0.14312 0.12232 0.46844 -0.49000
O 	O 	0.88654 0.20694 0.29228 -0.16800
O 	O 	0.98411 0.20971 0.29627 -0.16200
O 	O 	0.05976 0.13686 0.31412 -0.16900
O 	O 	0.82132 0.19802 0.36794 -0.12800
O 	O 	0.91785 0.81505 0.40265 -0.53400
O 	O 	0.19683 0.24683 0.47201 -0.48200
O 	O 	0.95355 0.76555 0.45365 -0.51800
O 	O 	0.12232 0.26612 0.46844 -0.49000
O 	O 	0.20694 0.61424 0.29228 -0.16800
O 	O 	0.20971 0.50991 0.29627 -0.16200
O 	O 	0.13686 0.48926 0.31412 -0.16900
O 	O 	0.19802 0.61272 0.36794 -0.12800
O 	O 	0.68495 0.58215 0.09735 -0.53300
O 	O 	0.25317 0.30317 0.02799 -0.48100
O 	O 	0.73445 0.54645 0.04635 -0.51800
O 	O 	0.23388 0.37768 0.03156 -0.48900
O 	O 	0.88576 0.29306 0.20772 -0.16800
O 	O 	0.99009 0.29029 0.20373 -0.16200
O 	O 	0.01074 0.36314 0.18588 -0.16900
O 	O 	0.88728 0.30198 0.13206 -0.12800
O 	O 	0.63555 0.68495 0.09735 -0.53300
O 	O 	0.41567 0.25317 0.02799 -0.48100
O 	O 	0.67275 0.73445 0.04635 -0.51800
O 	O 	0.35688 0.23388 0.03156 -0.48900
O 	O 	0.61346 0.88576 0.20772 -0.16800
O 	O 	0.51589 0.99009 0.20373 -0.16200
O 	O 	0.44024 0.01074 0.18588 -0.16900
O 	O 	0.67868 0.88728 0.13206 -0.12800
O 	O 	0.58215 0.63555 0.09735 -0.53300
O 	O 	0.30317 0.41567 0.02799 -0.48100
O 	O 	0.54645 0.67275 0.04635 -0.51800
O 	O 	0.37768 0.35688 0.03156 -0.48900
O 	O 	0.29306 0.61346 0.20772 -0.16800
O 	O 	0.29029 0.51589 0.20373 -0.16200
O 	O 	0.36314 0.44024 0.18588 -0.16900
O 	O 	0.30198 0.67868 0.13206 -0.12800
O 	O 	0.18495 0.13555 0.59735 -0.53300
O 	O 	0.75317 0.91567 0.52799 -0.48200
O 	O 	0.23445 0.17275 0.54635 -0.51800
O 	O 	0.73388 0.85688 0.53156 -0.49000
O 	O 	0.38576 0.11346 0.70772 -0.16800
O 	O 	0.49009 0.01589 0.70373 -0.16200
O 	O 	0.51074 0.94024 0.68588 -0.16900
O 	O 	0.38728 0.17868 0.63206 -0.12800
O 	O 	0.13555 0.08215 0.59735 -0.53400
O 	O 	0.91567 0.80317 0.52799 -0.48200
O 	O 	0.17275 0.04645 0.54635 -0.51800
O 	O 	0.85688 0.87768 0.53156 -0.49000
O 	O 	0.11346 0.79306 0.70772 -0.16800
O 	O 	0.01589 0.79029 0.70373 -0.16200
O 	O 	0.94024 0.86314 0.68588 -0.16900
O 	O 	0.17868 0.80198 0.63206 -0.12800
O 	O 	0.08215 0.18495 0.59735 -0.53400
O 	O 	0.80317 0.75317 0.52799 -0.48200
O 	O 	0.04645 0.23445 0.54635 -0.51800
O 	O 	0.87768 0.73388 0.53156 -0.49000
O 	O 	0.79306 0.38576 0.70772 -0.16800
O 	O 	0.79029 0.49009 0.70373 -0.16200
O 	O 	0.86314 0.51074 0.68588 -0.16900
O 	O 	0.80198 0.38728 0.63206 -0.12800
O 	O 	0.31505 0.41785 0.90265 -0.53300
O 	O 	0.74683 0.69683 0.97201 -0.48100
O 	O 	0.26555 0.45355 0.95365 -0.51800
O 	O 	0.76612 0.62232 0.96844 -0.48900
O 	O 	0.11424 0.70694 0.79228 -0.16800
O 	O 	0.00991 0.70971 0.79627 -0.16200
O 	O 	0.98926 0.63686 0.81412 -0.16900
O 	O 	0.11272 0.69802 0.86794 -0.12800
O 	O 	0.36445 0.31505 0.90265 -0.53300
O 	O 	0.58433 0.74683 0.97201 -0.48100
O 	O 	0.32725 0.26555 0.95365 -0.51800
O 	O 	0.64312 0.76612 0.96844 -0.48900
O 	O 	0.38654 0.11424 0.79228 -0.16800
O 	O 	0.48411 0.00991 0.79627 -0.16200
O 	O 	0.55976 0.98926 0.81412 -0.16900
O 	O 	0.32132 0.11272 0.86794 -0.12800
O 	O 	0.41785 0.36445 0.90265 -0.53300
O 	O 	0.69683 0.58433 0.97201 -0.48100
O 	O 	0.45355 0.32725 0.95365 -0.51800
O 	O 	0.62232 0.64312 0.96844 -0.48900
O 	O 	0.70694 0.38654 0.79228 -0.16800
O 	O 	0.70971 0.48411 0.79627 -0.16200
O 	O 	0.63686 0.55976 0.81412 -0.16900
O 	O 	0.69802 0.32132 0.86794 -0.12800
O 	O 	0.84083 0.84083 0.47751 -0.97300
O 	O 	0.65917 0.65917 0.02249 -0.97300
O 	O 	0.15917 0.15917 0.52249 -0.97300
O 	O 	0.34083 0.34083 0.97751 -0.97300
