data_crystal

_cell_length_a 26.20000
_cell_length_b 17.46500
_cell_length_c 17.27500
_cell_angle_alpha 90.00000
_cell_angle_beta  118.18300
_cell_angle_gamma 90.00000

_symmetry_space_group_name_	'P 1'
_symmetry_space_group_name_H-M	'P 1'

loop_
_symmetry_equiv_pos_as_xyz
  x,y,z

loop_
_atom_site_label
_atom_site_type_symbol
_atom_site_fract_x
_atom_site_fract_y
_atom_site_fract_z
_atom_site_charge
Co	Co	0.17809 0.59423 0.23947 1.08300
O 	O 	0.46448 0.45980 0.39810 -0.25100
O 	O 	0.63522 0.46204 0.36490 -0.25000
O 	O 	0.61061 0.27100 0.54090 -0.25500
O 	O 	0.08820 0.60640 0.20210 -0.63600
N 	N 	0.01430 0.68240 0.20560 -1.39800
N 	N 	0.00920 0.51480 0.12300 0.20900
N 	N 	0.26830 0.57530 0.28040 -0.26700
N 	N 	0.18950 0.71290 0.27480 -0.27600
N 	N 	0.15630 0.47640 0.19990 -0.25200
C 	C 	0.51740 0.43060 0.41460 0.36600
C 	C 	0.55190 0.46340 0.38280 -0.34800
H 	H 	0.54040 0.50880 0.34830 0.15800
C 	C 	0.60460 0.42720 0.40330 0.35300
C 	C 	0.62300 0.36340 0.45530 -0.35700
H 	H 	0.65890 0.33980 0.46870 0.16800
C 	C 	0.58770 0.33410 0.48800 0.37200
C 	C 	0.53480 0.36640 0.46810 -0.35800
H 	H 	0.51100 0.34520 0.49040 0.16500
C 	C 	0.44510 0.52620 0.34590 -0.02600
H 	H 	0.44690 0.51840 0.29050 0.05000
H 	H 	0.47040 0.57000 0.37740 0.03700
C 	C 	0.29820 0.52010 0.33780 0.08900
H 	H 	0.27920 0.49160 0.36360 -0.03200
C 	C 	0.35510 0.50240 0.36150 -0.15600
H 	H 	0.37420 0.46220 0.40220 0.09700
C 	C 	0.38400 0.54320 0.32590 0.11400
C 	C 	0.35390 0.60170 0.26870 -0.16000
H 	H 	0.37220 0.63180 0.24320 0.07800
C 	C 	0.29740 0.61660 0.24850 0.09000
H 	H 	0.27810 0.65810 0.21020 -0.03400
C 	C 	0.69160 0.43230 0.38910 -0.02200
H 	H 	0.71300 0.42640 0.45370 0.02300
H 	H 	0.71290 0.46980 0.37220 0.03900
C 	C 	0.14820 0.76470 0.23180 0.14800
H 	H 	0.11770 0.75180 0.17540 -0.02000
C 	C 	0.14760 0.83680 0.26590 -0.09000
H 	H 	0.11750 0.87210 0.23290 0.15300
C 	C 	0.69060 0.35630 0.34700 0.09900
C 	C 	0.73430 0.30370 0.39090 -0.15900
H 	H 	0.76560 0.31590 0.44680 0.08300
C 	C 	0.23230 0.73320 0.35300 0.09500
H 	H 	0.26270 0.69770 0.38410 -0.02500
C 	C 	0.57800 0.23860 0.58040 -0.03100
H 	H 	0.57720 0.27440 0.62430 0.03500
H 	H 	0.53760 0.22850 0.53510 0.03700
C 	C 	0.12740 0.43300 0.23080 0.07600
H 	H 	0.12340 0.45120 0.27950 -0.03300
C 	C 	0.10330 0.36290 0.19450 -0.17000
H 	H 	0.08370 0.33410 0.21920 0.04000
C 	C 	0.60720 0.16530 0.62380 0.10500
C 	C 	0.63830 0.12190 0.59340 -0.15800
H 	H 	0.64330 0.13950 0.54530 0.08800
C 	C 	0.16190 0.44680 0.13320 0.08300
H 	H 	0.18360 0.47490 0.11160 -0.03300
C 	C 	0.06780 0.66380 0.23910 1.25100
H 	H 	0.09500 0.68940 0.29080 0.02000
C 	C 	0.05100 0.56060 0.12530 0.03800
H 	H 	0.05660 0.56340 0.07490 -0.01200
C 	C 	0.97430 0.65090 0.11650 1.46600
H 	H 	0.99360 0.65190 0.07980 -0.28600
H 	H 	0.93910 0.68210 0.08910 -0.10900
H 	H 	0.96410 0.59800 0.12230 -0.36900
C 	C 	0.00120 0.49740 0.19840 -3.00000
H 	H 	0.03460 0.51580 0.25180 1.15700
H 	H 	0.99740 0.44190 0.20240 1.11100
H 	H 	0.96600 0.52270 0.19200 1.30800
H 	H 	0.02510 0.73160 0.31340 -3.20600
H 	H 	0.95950 0.73080 0.23650 -3.25400
H 	H 	0.00530 0.78850 0.23150 -2.37000
C 	C 	0.97140 0.47390 0.04220 -0.31200
H 	H 	0.98300 0.48530 0.99720 0.23100
H 	H 	0.93130 0.49020 0.02150 0.14500
H 	H 	0.97460 0.41870 0.05380 0.18900
Co	Co	0.67809 0.09423 0.23947 1.08100
O 	O 	0.96448 0.95980 0.39810 -0.02100
O 	O 	0.13522 0.96204 0.36490 -0.22400
O 	O 	0.11061 0.77100 0.54090 -0.21500
O 	O 	0.58820 0.10640 0.20210 -0.46500
N 	N 	0.51430 0.18240 0.20560 -0.43000
N 	N 	0.50920 0.01480 0.12300 -0.10300
N 	N 	0.76830 0.07530 0.28040 -0.27700
N 	N 	0.68950 0.21290 0.27480 -0.26700
N 	N 	0.65630 0.97640 0.19990 -0.26000
C 	C 	0.01740 0.93060 0.41460 0.10000
C 	C 	0.05190 0.96340 0.38280 -0.15000
H 	H 	0.04040 0.00880 0.34830 0.04800
C 	C 	0.10460 0.92720 0.40330 0.30500
C 	C 	0.12300 0.86340 0.45530 -0.20700
H 	H 	0.15890 0.83980 0.46870 0.14800
C 	C 	0.08770 0.83410 0.48800 0.34400
C 	C 	0.03480 0.86640 0.46810 -0.15000
H 	H 	0.01100 0.84520 0.49040 0.06300
C 	C 	0.94510 0.02620 0.34590 -0.17100
H 	H 	0.94690 0.01840 0.29050 0.15600
H 	H 	0.97040 0.07000 0.37740 0.12700
C 	C 	0.79820 0.02010 0.33780 0.11100
H 	H 	0.77920 0.99160 0.36360 -0.03900
C 	C 	0.85510 0.00240 0.36150 -0.21100
H 	H 	0.87420 0.96220 0.40220 0.12500
C 	C 	0.88400 0.04320 0.32590 0.18600
C 	C 	0.85390 0.10170 0.26870 -0.21100
H 	H 	0.87220 0.13180 0.24320 0.10700
C 	C 	0.79740 0.11660 0.24850 0.11500
H 	H 	0.77810 0.15810 0.21020 -0.03900
C 	C 	0.19160 0.93230 0.38910 -0.01700
H 	H 	0.21300 0.92640 0.45370 0.02000
H 	H 	0.21290 0.96980 0.37220 0.03400
C 	C 	0.64820 0.26470 0.23180 0.10100
H 	H 	0.61770 0.25180 0.17540 -0.01500
C 	C 	0.64760 0.33680 0.26590 -0.13900
H 	H 	0.61750 0.37210 0.23290 0.11900
C 	C 	0.19060 0.85630 0.34700 0.11200
C 	C 	0.23430 0.80370 0.39090 -0.15100
H 	H 	0.26560 0.81590 0.44680 0.07400
C 	C 	0.73230 0.23320 0.35300 0.08600
H 	H 	0.76270 0.19770 0.38410 -0.02400
C 	C 	0.07800 0.73860 0.58040 -0.01900
H 	H 	0.07720 0.77440 0.62430 0.01400
H 	H 	0.03760 0.72850 0.53510 0.02300
C 	C 	0.62740 0.93300 0.23080 0.09100
H 	H 	0.62340 0.95120 0.27950 -0.03200
C 	C 	0.60330 0.86290 0.19450 -0.16800
H 	H 	0.58370 0.83410 0.21920 0.07300
C 	C 	0.10720 0.66530 0.62380 0.08700
C 	C 	0.13830 0.62190 0.59340 -0.15300
H 	H 	0.14330 0.63950 0.54530 0.10000
C 	C 	0.66190 0.94680 0.13320 0.08600
H 	H 	0.68360 0.97490 0.11160 -0.03600
C 	C 	0.56780 0.16380 0.23910 0.45400
H 	H 	0.59500 0.18940 0.29080 -0.02700
C 	C 	0.55100 0.06060 0.12530 0.14400
H 	H 	0.55660 0.06340 0.07490 -0.04600
C 	C 	0.47430 0.15090 0.11650 0.14000
H 	H 	0.49360 0.15190 0.07980 0.00000
H 	H 	0.43910 0.18210 0.08910 0.06600
H 	H 	0.46410 0.09800 0.12230 -0.00500
C 	C 	0.50120 0.99740 0.19840 -0.14800
H 	H 	0.53460 0.01580 0.25180 0.06200
H 	H 	0.49740 0.94190 0.20240 0.06100
H 	H 	0.46600 0.02270 0.19200 0.05100
H 	H 	0.52510 0.23160 0.31340 -0.78800
H 	H 	0.45950 0.23080 0.23650 -0.84300
H 	H 	0.50530 0.28850 0.23150 -0.56100
C 	C 	0.47140 0.97390 0.04220 -0.19500
H 	H 	0.48300 0.98530 0.99720 0.05500
H 	H 	0.43130 0.99020 0.02150 0.08000
H 	H 	0.47460 0.91870 0.05380 0.08200
Co	Co	0.82191 0.59423 0.26053 1.08500
O 	O 	0.53552 0.45980 0.10190 -0.25000
O 	O 	0.36478 0.46204 0.13510 -0.24900
O 	O 	0.38939 0.27100 0.95910 -0.26600
O 	O 	0.91180 0.60640 0.29790 -0.68100
N 	N 	0.98570 0.68240 0.29440 -1.11300
N 	N 	0.99080 0.51480 0.37700 -0.43400
N 	N 	0.73170 0.57530 0.21960 -0.26600
N 	N 	0.81050 0.71290 0.22520 -0.27000
N 	N 	0.84370 0.47640 0.30010 -0.26800
C 	C 	0.48260 0.43060 0.08540 0.37200
C 	C 	0.44810 0.46340 0.11720 -0.35100
H 	H 	0.45960 0.50880 0.15170 0.15900
C 	C 	0.39540 0.42720 0.09670 0.35900
C 	C 	0.37700 0.36340 0.04470 -0.36400
H 	H 	0.34110 0.33980 0.03130 0.17400
C 	C 	0.41230 0.33410 0.01200 0.38800
C 	C 	0.46520 0.36640 0.03190 -0.36500
H 	H 	0.48900 0.34520 0.00960 0.17100
C 	C 	0.55490 0.52620 0.15410 -0.02700
H 	H 	0.55310 0.51840 0.20950 0.05000
H 	H 	0.52960 0.57000 0.12260 0.03900
C 	C 	0.70180 0.52010 0.16220 0.08900
H 	H 	0.72080 0.49160 0.13640 -0.03000
C 	C 	0.64490 0.50240 0.13850 -0.15500
H 	H 	0.62580 0.46220 0.09780 0.09900
C 	C 	0.61600 0.54320 0.17410 0.11500
C 	C 	0.64610 0.60170 0.23130 -0.16000
H 	H 	0.62780 0.63180 0.25680 0.07800
C 	C 	0.70260 0.61660 0.25150 0.09000
H 	H 	0.72190 0.65810 0.28980 -0.03100
C 	C 	0.30840 0.43230 0.11090 -0.02400
H 	H 	0.28700 0.42640 0.04630 0.02700
H 	H 	0.28710 0.46980 0.12780 0.04000
C 	C 	0.85180 0.76470 0.26820 0.14000
H 	H 	0.88230 0.75180 0.32460 0.02900
C 	C 	0.85240 0.83680 0.23410 -0.07300
H 	H 	0.88250 0.87210 0.26710 0.17600
C 	C 	0.30940 0.35630 0.15300 0.10100
C 	C 	0.26570 0.30370 0.10910 -0.16000
H 	H 	0.23440 0.31590 0.05320 0.08700
C 	C 	0.76770 0.73320 0.14700 0.09300
H 	H 	0.73730 0.69770 0.11590 -0.02200
C 	C 	0.42200 0.23860 0.91960 -0.02500
H 	H 	0.42280 0.27440 0.87570 0.03200
H 	H 	0.46240 0.22850 0.96490 0.03100
C 	C 	0.87260 0.43300 0.26920 0.11200
H 	H 	0.87660 0.45120 0.22050 -0.03100
C 	C 	0.89670 0.36290 0.30550 -0.18200
H 	H 	0.91630 0.33410 0.28080 0.11500
C 	C 	0.39280 0.16530 0.87620 0.10100
C 	C 	0.36170 0.12190 0.90660 -0.15700
H 	H 	0.35670 0.13950 0.95470 0.08500
C 	C 	0.83810 0.44680 0.36680 0.09800
H 	H 	0.81640 0.47490 0.38840 -0.04000
C 	C 	0.93220 0.66380 0.26090 1.28100
H 	H 	0.90500 0.68940 0.20920 0.01400
C 	C 	0.94900 0.56060 0.37470 0.42000
H 	H 	0.94340 0.56340 0.42510 -0.12000
C 	C 	0.02570 0.65090 0.38350 1.13700
H 	H 	0.00640 0.65190 0.42020 -0.36700
H 	H 	0.06090 0.68210 0.41090 -0.02700
H 	H 	0.03590 0.59800 0.37770 -0.35900
C 	C 	0.99880 0.49740 0.30160 2.77700
H 	H 	0.96540 0.51580 0.24820 -1.07700
H 	H 	0.00260 0.44190 0.29760 -1.00900
H 	H 	0.03400 0.52270 0.30800 -1.19400
H 	H 	0.97490 0.73160 0.18660 -2.96500
H 	H 	0.04050 0.73080 0.26350 -3.22200
H 	H 	0.99470 0.78850 0.26850 -1.87600
C 	C 	0.02860 0.47390 0.45780 -0.07300
H 	H 	0.01700 0.48530 0.50280 -0.10600
H 	H 	0.06870 0.49020 0.47850 0.02400
H 	H 	0.02540 0.41870 0.44620 -0.01800
Co	Co	0.32191 0.09423 0.26053 1.08100
O 	O 	0.03552 0.95980 0.10190 -0.44400
O 	O 	0.86478 0.96204 0.13510 -0.24900
O 	O 	0.88939 0.77100 0.95910 -0.26000
O 	O 	0.41180 0.10640 0.29790 -0.46400
N 	N 	0.48570 0.18240 0.29440 -0.43000
N 	N 	0.49080 0.01480 0.37700 -0.09100
N 	N 	0.23170 0.07530 0.21960 -0.25900
N 	N 	0.31050 0.21290 0.22520 -0.26700
N 	N 	0.34370 0.97640 0.30010 -0.25900
C 	C 	0.98260 0.93060 0.08540 0.72900
C 	C 	0.94810 0.96340 0.11720 -0.43000
H 	H 	0.95960 0.00880 0.15170 0.26200
C 	C 	0.89540 0.92720 0.09670 0.49100
C 	C 	0.87700 0.86340 0.04470 -0.37000
H 	H 	0.84110 0.83980 0.03130 0.20700
C 	C 	0.91230 0.83410 0.01200 0.55100
C 	C 	0.96520 0.86640 0.03190 -0.44900
H 	H 	0.98900 0.84520 0.00960 0.28000
C 	C 	0.05490 0.02620 0.15410 0.09400
H 	H 	0.05310 0.01840 0.20950 -0.00600
H 	H 	0.02960 0.07000 0.12260 -0.05000
C 	C 	0.20180 0.02010 0.16220 0.06400
H 	H 	0.22080 0.99160 0.13640 -0.02500
C 	C 	0.14490 0.00240 0.13850 -0.12000
H 	H 	0.12580 0.96220 0.09780 0.07700
C 	C 	0.11600 0.04320 0.17410 0.05700
C 	C 	0.14610 0.10170 0.23130 -0.12200
H 	H 	0.12780 0.13180 0.25680 0.05300
C 	C 	0.20260 0.11660 0.25150 0.06800
H 	H 	0.22190 0.15810 0.28980 -0.02800
C 	C 	0.80840 0.93230 0.11090 -0.00100
H 	H 	0.78700 0.92640 0.04630 0.01700
H 	H 	0.78710 0.96980 0.12780 0.03300
C 	C 	0.35180 0.26470 0.26820 0.10100
H 	H 	0.38230 0.25180 0.32460 -0.01600
C 	C 	0.35240 0.33680 0.23410 -0.14000
H 	H 	0.38250 0.37210 0.26710 0.11900
C 	C 	0.80940 0.85630 0.15300 0.10300
C 	C 	0.76570 0.80370 0.10910 -0.14500
H 	H 	0.73440 0.81590 0.05320 0.07400
C 	C 	0.26770 0.23320 0.14700 0.08600
H 	H 	0.23730 0.19770 0.11590 -0.02000
C 	C 	0.92200 0.73860 0.91960 -0.05600
H 	H 	0.92280 0.77440 0.87570 0.05300
H 	H 	0.96240 0.72850 0.96490 0.10400
C 	C 	0.37260 0.93300 0.26920 0.08800
H 	H 	0.37660 0.95120 0.22050 -0.03000
C 	C 	0.39670 0.86290 0.30550 -0.16500
H 	H 	0.41630 0.83410 0.28080 0.07200
C 	C 	0.89280 0.66530 0.87620 0.14600
C 	C 	0.86170 0.62190 0.90660 -0.17700
H 	H 	0.85670 0.63950 0.95470 0.10600
C 	C 	0.33810 0.94680 0.36680 0.08300
H 	H 	0.31640 0.97490 0.38840 -0.03700
C 	C 	0.43220 0.16380 0.26090 0.45400
H 	H 	0.40500 0.18940 0.20920 -0.02700
C 	C 	0.44900 0.06060 0.37470 0.14100
H 	H 	0.44340 0.06340 0.42510 -0.04500
C 	C 	0.52570 0.15090 0.38350 0.14300
H 	H 	0.50640 0.15190 0.42020 -0.00300
H 	H 	0.56090 0.18210 0.41090 0.06300
H 	H 	0.53590 0.09800 0.37770 -0.00700
C 	C 	0.49880 0.99740 0.30160 -0.17200
H 	H 	0.46540 0.01580 0.24820 0.07200
H 	H 	0.50260 0.94190 0.29760 0.06800
H 	H 	0.53400 0.02270 0.30800 0.06100
H 	H 	0.47490 0.23160 0.18660 -0.78800
H 	H 	0.54050 0.23080 0.26350 -0.84300
H 	H 	0.49470 0.28850 0.26850 -0.56100
C 	C 	0.52860 0.97390 0.45780 -0.25200
H 	H 	0.51700 0.98530 0.50280 0.09000
H 	H 	0.56870 0.99020 0.47850 0.09100
H 	H 	0.52540 0.91870 0.44620 0.09500
Co	Co	0.82191 0.40577 0.76053 1.08400
O 	O 	0.53552 0.54020 0.60190 -0.25200
O 	O 	0.36478 0.53796 0.63510 -0.25000
O 	O 	0.38939 0.72900 0.45910 -0.25500
O 	O 	0.91180 0.39360 0.79790 -0.68100
N 	N 	0.98570 0.31760 0.79440 -1.11200
N 	N 	0.99080 0.48520 0.87700 -0.42600
N 	N 	0.73170 0.42470 0.71960 -0.26700
N 	N 	0.81050 0.28710 0.72520 -0.27100
N 	N 	0.84370 0.52360 0.80010 -0.26800
C 	C 	0.48260 0.56940 0.58540 0.36600
C 	C 	0.44810 0.53660 0.61720 -0.34800
H 	H 	0.45960 0.49120 0.65170 0.15800
C 	C 	0.39540 0.57280 0.59670 0.35300
C 	C 	0.37700 0.63660 0.54470 -0.35700
H 	H 	0.34110 0.66020 0.53130 0.16800
C 	C 	0.41230 0.66590 0.51200 0.37200
C 	C 	0.46520 0.63360 0.53190 -0.35900
H 	H 	0.48900 0.65480 0.50960 0.16500
C 	C 	0.55490 0.47380 0.65410 -0.02600
H 	H 	0.55310 0.48160 0.70950 0.05000
H 	H 	0.52960 0.43000 0.62260 0.03600
C 	C 	0.70180 0.47990 0.66220 0.08800
H 	H 	0.72080 0.50840 0.63640 -0.03200
C 	C 	0.64490 0.49760 0.63850 -0.15500
H 	H 	0.62580 0.53780 0.59780 0.09700
C 	C 	0.61600 0.45680 0.67410 0.11300
C 	C 	0.64610 0.39830 0.73130 -0.15900
H 	H 	0.62780 0.36820 0.75680 0.07700
C 	C 	0.70260 0.38340 0.75150 0.08900
H 	H 	0.72190 0.34190 0.78980 -0.03200
C 	C 	0.30840 0.56770 0.61090 -0.02200
H 	H 	0.28700 0.57360 0.54630 0.02400
H 	H 	0.28710 0.53020 0.62780 0.03800
C 	C 	0.85180 0.23530 0.76820 0.13900
H 	H 	0.88230 0.24820 0.82460 0.02700
C 	C 	0.85240 0.16320 0.73410 -0.07400
H 	H 	0.88250 0.12790 0.76710 0.17500
C 	C 	0.30940 0.64370 0.65300 0.10000
C 	C 	0.26570 0.69630 0.60910 -0.15900
H 	H 	0.23440 0.68410 0.55320 0.08400
C 	C 	0.76770 0.26680 0.64700 0.09200
H 	H 	0.73730 0.30230 0.61590 -0.02400
C 	C 	0.42200 0.76140 0.41960 -0.03100
H 	H 	0.42280 0.72560 0.37570 0.03600
H 	H 	0.46240 0.77150 0.46490 0.03700
C 	C 	0.87260 0.56700 0.76920 0.10900
H 	H 	0.87660 0.54880 0.72050 -0.03200
C 	C 	0.89670 0.63710 0.80550 -0.17800
H 	H 	0.91630 0.66590 0.78080 0.11200
C 	C 	0.39280 0.83470 0.37620 0.10500
C 	C 	0.36170 0.87810 0.40660 -0.15900
H 	H 	0.35670 0.86050 0.45470 0.08800
C 	C 	0.83810 0.55320 0.86680 0.09500
H 	H 	0.81640 0.52510 0.88840 -0.04100
C 	C 	0.93220 0.33620 0.76090 1.27700
H 	H 	0.90500 0.31060 0.70920 0.01300
C 	C 	0.94900 0.43940 0.87470 0.41600
H 	H 	0.94340 0.43660 0.92510 -0.12000
C 	C 	0.02570 0.34910 0.88350 1.13800
H 	H 	0.00640 0.34810 0.92020 -0.37000
H 	H 	0.06090 0.31790 0.91090 -0.03100
H 	H 	0.03590 0.40200 0.87770 -0.36000
C 	C 	0.99880 0.50260 0.80160 2.76500
H 	H 	0.96540 0.48420 0.74820 -1.07300
H 	H 	0.00260 0.55810 0.79760 -1.00600
H 	H 	0.03400 0.47730 0.80800 -1.19100
H 	H 	0.97490 0.26840 0.68660 -2.95600
H 	H 	0.04050 0.26920 0.76350 -3.21300
H 	H 	0.99470 0.21150 0.76850 -1.87100
C 	C 	0.02860 0.52610 0.95780 -0.13600
H 	H 	0.01700 0.51470 0.00280 -0.06100
H 	H 	0.06870 0.50980 0.97850 0.03800
H 	H 	0.02540 0.58130 0.94620 -0.00300
Co	Co	0.32191 0.90577 0.76053 1.08000
O 	O 	0.03552 0.04020 0.60190 -0.44800
O 	O 	0.86478 0.03796 0.63510 -0.25000
O 	O 	0.88939 0.22900 0.45910 -0.24100
O 	O 	0.41180 0.89360 0.79790 -0.46500
N 	N 	0.48570 0.81760 0.79440 -0.43000
N 	N 	0.49080 0.98520 0.87700 -0.09200
N 	N 	0.23170 0.92470 0.71960 -0.26000
N 	N 	0.31050 0.78710 0.72520 -0.26700
N 	N 	0.34370 0.02360 0.80010 -0.25900
C 	C 	0.98260 0.06940 0.58540 0.72300
C 	C 	0.94810 0.03660 0.61720 -0.42800
H 	H 	0.95960 0.99120 0.65170 0.26200
C 	C 	0.89540 0.07280 0.59670 0.48400
C 	C 	0.87700 0.13660 0.54470 -0.36000
H 	H 	0.84110 0.16020 0.53130 0.19900
C 	C 	0.91230 0.16590 0.51200 0.52500
C 	C 	0.96520 0.13360 0.53190 -0.43900
H 	H 	0.98900 0.15480 0.50960 0.27000
C 	C 	0.05490 0.97380 0.65410 0.09700
H 	H 	0.05310 0.98160 0.70950 -0.00800
H 	H 	0.02960 0.93000 0.62260 -0.05500
C 	C 	0.20180 0.97990 0.66220 0.06100
H 	H 	0.22080 0.00840 0.63640 -0.02700
C 	C 	0.14490 0.99760 0.63850 -0.11800
H 	H 	0.12580 0.03780 0.59780 0.07300
C 	C 	0.11600 0.95680 0.67410 0.05200
C 	C 	0.14610 0.89830 0.73130 -0.12000
H 	H 	0.12780 0.86820 0.75680 0.05100
C 	C 	0.20260 0.88340 0.75150 0.06600
H 	H 	0.22190 0.84190 0.78980 -0.02800
C 	C 	0.80840 0.06770 0.61090 0.00100
H 	H 	0.78700 0.07360 0.54630 0.01400
H 	H 	0.78710 0.03020 0.62780 0.03200
C 	C 	0.35180 0.73530 0.76820 0.10100
H 	H 	0.38230 0.74820 0.82460 -0.01800
C 	C 	0.35240 0.66320 0.73410 -0.13900
H 	H 	0.38250 0.62790 0.76710 0.11900
C 	C 	0.80940 0.14370 0.65300 0.10200
C 	C 	0.76570 0.19630 0.60910 -0.14500
H 	H 	0.73440 0.18410 0.55320 0.07100
C 	C 	0.26770 0.76680 0.64700 0.08500
H 	H 	0.23730 0.80230 0.61590 -0.02200
C 	C 	0.92200 0.26140 0.41960 -0.06800
H 	H 	0.92280 0.22560 0.37570 0.06000
H 	H 	0.96240 0.27150 0.46490 0.11600
C 	C 	0.37260 0.06700 0.76920 0.08700
H 	H 	0.37660 0.04880 0.72050 -0.03100
C 	C 	0.39670 0.13710 0.80550 -0.16300
H 	H 	0.41630 0.16590 0.78080 0.07000
C 	C 	0.89280 0.33470 0.37620 0.15500
C 	C 	0.86170 0.37810 0.40660 -0.18100
H 	H 	0.85670 0.36050 0.45470 0.11100
C 	C 	0.33810 0.05320 0.86680 0.08200
H 	H 	0.31640 0.02510 0.88840 -0.03700
C 	C 	0.43220 0.83620 0.76090 0.45300
H 	H 	0.40500 0.81060 0.70920 -0.02700
C 	C 	0.44900 0.93940 0.87470 0.14100
H 	H 	0.44340 0.93660 0.92510 -0.04600
C 	C 	0.52570 0.84910 0.88350 0.14800
H 	H 	0.50640 0.84810 0.92020 -0.00700
H 	H 	0.56090 0.81790 0.91090 0.05700
H 	H 	0.53590 0.90200 0.87770 -0.01000
C 	C 	0.49880 0.00260 0.80160 -0.15300
H 	H 	0.46540 0.98420 0.74820 0.06400
H 	H 	0.50260 0.05810 0.79760 0.06200
H 	H 	0.53400 0.97730 0.80800 0.05200
H 	H 	0.47490 0.76840 0.68660 -0.78500
H 	H 	0.54050 0.76920 0.76350 -0.84000
H 	H 	0.49470 0.71150 0.76850 -0.55900
C 	C 	0.52860 0.02610 0.95780 -0.27900
H 	H 	0.51700 0.01470 0.00280 0.11300
H 	H 	0.56870 0.00980 0.97850 0.09600
H 	H 	0.52540 0.08130 0.94620 0.10100
Co	Co	0.17809 0.40577 0.73947 1.08300
O 	O 	0.46448 0.54020 0.89810 -0.25200
O 	O 	0.63522 0.53796 0.86490 -0.25000
O 	O 	0.61061 0.72900 0.04090 -0.24000
O 	O 	0.08820 0.39360 0.70210 -0.63600
N 	N 	0.01430 0.31760 0.70560 -1.39600
N 	N 	0.00920 0.48520 0.62300 0.21700
N 	N 	0.26830 0.42470 0.78040 -0.26700
N 	N 	0.18950 0.28710 0.77480 -0.27700
N 	N 	0.15630 0.52360 0.69990 -0.25200
C 	C 	0.51740 0.56940 0.91460 0.35900
C 	C 	0.55190 0.53660 0.88280 -0.34400
H 	H 	0.54040 0.49120 0.84830 0.15500
C 	C 	0.60460 0.57280 0.90330 0.34600
C 	C 	0.62300 0.63660 0.95530 -0.34800
H 	H 	0.65890 0.66020 0.96870 0.16100
C 	C 	0.58770 0.66590 0.98800 0.35000
C 	C 	0.53480 0.63360 0.96810 -0.34900
H 	H 	0.51100 0.65480 0.99040 0.15700
C 	C 	0.44510 0.47380 0.84590 -0.02500
H 	H 	0.44690 0.48160 0.79050 0.05000
H 	H 	0.47040 0.43000 0.87740 0.03400
C 	C 	0.29820 0.47990 0.83780 0.08700
H 	H 	0.27920 0.50840 0.86360 -0.03400
C 	C 	0.35510 0.49760 0.86150 -0.15600
H 	H 	0.37420 0.53780 0.90220 0.09400
C 	C 	0.38400 0.45680 0.82590 0.11200
C 	C 	0.35390 0.39830 0.76870 -0.16000
H 	H 	0.37220 0.36820 0.74320 0.07700
C 	C 	0.29740 0.38340 0.74850 0.08900
H 	H 	0.27810 0.34190 0.71020 -0.03500
C 	C 	0.69160 0.56770 0.88910 -0.02000
H 	H 	0.71300 0.57360 0.95370 0.02000
H 	H 	0.71290 0.53020 0.87220 0.03700
C 	C 	0.14820 0.23530 0.73180 0.14800
H 	H 	0.11770 0.24820 0.67540 -0.02200
C 	C 	0.14760 0.16320 0.76590 -0.09100
H 	H 	0.11750 0.12790 0.73290 0.15300
C 	C 	0.69060 0.64370 0.84700 0.09800
C 	C 	0.73430 0.69630 0.89090 -0.15900
H 	H 	0.76560 0.68410 0.94680 0.07900
C 	C 	0.23230 0.26680 0.85300 0.09400
H 	H 	0.26270 0.30230 0.88410 -0.02700
C 	C 	0.57800 0.76140 0.08040 -0.04000
H 	H 	0.57720 0.72560 0.12430 0.04000
H 	H 	0.53760 0.77150 0.03510 0.04500
C 	C 	0.12740 0.56700 0.73080 0.07300
H 	H 	0.12340 0.54880 0.77950 -0.03300
C 	C 	0.10330 0.63710 0.69450 -0.16700
H 	H 	0.08370 0.66590 0.71920 0.03700
C 	C 	0.60720 0.83470 0.12380 0.11100
C 	C 	0.63830 0.87810 0.09340 -0.16100
H 	H 	0.64330 0.86050 0.04530 0.09200
C 	C 	0.16190 0.55320 0.63320 0.08100
H 	H 	0.18360 0.52510 0.61160 -0.03400
C 	C 	0.06780 0.33620 0.73910 1.24700
H 	H 	0.09500 0.31060 0.79080 0.01900
C 	C 	0.05100 0.43940 0.62530 0.03500
H 	H 	0.05660 0.43660 0.57490 -0.01200
C 	C 	0.97430 0.34910 0.61650 1.46700
H 	H 	0.99360 0.34810 0.57980 -0.29000
H 	H 	0.93910 0.31790 0.58910 -0.11400
H 	H 	0.96410 0.40200 0.62230 -0.37100
C 	C 	0.00120 0.50260 0.69840 -3.00500
H 	H 	0.03460 0.48420 0.75180 1.15800
H 	H 	0.99740 0.55810 0.70240 1.11100
H 	H 	0.96600 0.47730 0.69200 1.30900
H 	H 	0.02510 0.26840 0.81340 -3.19600
H 	H 	0.95950 0.26920 0.73650 -3.24400
H 	H 	0.00530 0.21150 0.73150 -2.36300
C 	C 	0.97140 0.52610 0.54220 -0.37700
H 	H 	0.98300 0.51470 0.49720 0.27600
H 	H 	0.93130 0.50980 0.52150 0.15800
H 	H 	0.97460 0.58130 0.55380 0.20400
Co	Co	0.67809 0.90577 0.73947 1.08000
O 	O 	0.96448 0.04020 0.89810 -0.02400
O 	O 	0.13522 0.03796 0.86490 -0.22200
O 	O 	0.11061 0.22900 0.04090 -0.20000
O 	O 	0.58820 0.89360 0.70210 -0.46500
N 	N 	0.51430 0.81760 0.70560 -0.42900
N 	N 	0.50920 0.98520 0.62300 -0.09400
N 	N 	0.76830 0.92470 0.78040 -0.27700
N 	N 	0.68950 0.78710 0.77480 -0.26700
N 	N 	0.65630 0.02360 0.69990 -0.25900
C 	C 	0.01740 0.06940 0.91460 0.09300
C 	C 	0.05190 0.03660 0.88280 -0.13900
H 	H 	0.04040 0.99120 0.84830 0.04100
C 	C 	0.10460 0.07280 0.90330 0.29600
C 	C 	0.12300 0.13660 0.95530 -0.19700
H 	H 	0.15890 0.16020 0.96870 0.14100
C 	C 	0.08770 0.16590 0.98800 0.32400
C 	C 	0.03480 0.13360 0.96810 -0.14000
H 	H 	0.01100 0.15480 0.99040 0.05600
C 	C 	0.94510 0.97380 0.84590 -0.17200
H 	H 	0.94690 0.98160 0.79050 0.15600
H 	H 	0.97040 0.93000 0.87740 0.12200
C 	C 	0.79820 0.97990 0.83780 0.10700
H 	H 	0.77920 0.00840 0.86360 -0.04000
C 	C 	0.85510 0.99760 0.86150 -0.21500
H 	H 	0.87420 0.03780 0.90220 0.12400
C 	C 	0.88400 0.95680 0.82590 0.18500
C 	C 	0.85390 0.89830 0.76870 -0.21100
H 	H 	0.87220 0.86820 0.74320 0.10600
C 	C 	0.79740 0.88340 0.74850 0.11400
H 	H 	0.77810 0.84190 0.71020 -0.03900
C 	C 	0.19160 0.06770 0.88910 -0.01700
H 	H 	0.21300 0.07360 0.95370 0.01800
H 	H 	0.21290 0.03020 0.87220 0.03400
C 	C 	0.64820 0.73530 0.73180 0.10000
H 	H 	0.61770 0.74820 0.67540 -0.01600
C 	C 	0.64760 0.66320 0.76590 -0.13800
H 	H 	0.61750 0.62790 0.73290 0.11800
C 	C 	0.19060 0.14370 0.84700 0.11100
C 	C 	0.23430 0.19630 0.89090 -0.15100
H 	H 	0.26560 0.18410 0.94680 0.07200
C 	C 	0.73230 0.76680 0.85300 0.08400
H 	H 	0.76270 0.80230 0.88410 -0.02700
C 	C 	0.07800 0.26140 0.08040 -0.02900
H 	H 	0.07720 0.22560 0.12430 0.01900
H 	H 	0.03760 0.27150 0.03510 0.03300
C 	C 	0.62740 0.06700 0.73080 0.08800
H 	H 	0.62340 0.04880 0.77950 -0.03200
C 	C 	0.60330 0.13710 0.69450 -0.16500
H 	H 	0.58370 0.16590 0.71920 0.07100
C 	C 	0.10720 0.33470 0.12380 0.09400
C 	C 	0.13830 0.37810 0.09340 -0.15600
H 	H 	0.14330 0.36050 0.04530 0.10500
C 	C 	0.66190 0.05320 0.63320 0.08300
H 	H 	0.68360 0.02510 0.61160 -0.03700
C 	C 	0.56780 0.83620 0.73910 0.45300
H 	H 	0.59500 0.81060 0.79080 -0.02800
C 	C 	0.55100 0.93940 0.62530 0.14100
H 	H 	0.55660 0.93660 0.57490 -0.04500
C 	C 	0.47430 0.84910 0.61650 0.14200
H 	H 	0.49360 0.84810 0.57980 -0.00200
H 	H 	0.43910 0.81790 0.58910 0.06300
H 	H 	0.46410 0.90200 0.62230 -0.00700
C 	C 	0.50120 0.00260 0.69840 -0.16100
H 	H 	0.53460 0.98420 0.75180 0.06700
H 	H 	0.49740 0.05810 0.70240 0.06500
H 	H 	0.46600 0.97730 0.69200 0.05700
H 	H 	0.52510 0.76840 0.81340 -0.78500
H 	H 	0.45950 0.76920 0.73650 -0.83900
H 	H 	0.50530 0.71150 0.73150 -0.55900
C 	C 	0.47140 0.02610 0.54220 -0.25000
H 	H 	0.48300 0.01470 0.49720 0.08900
H 	H 	0.43130 0.00980 0.52150 0.09100
H 	H 	0.47460 0.08130 0.55380 0.09400
C 	C 	0.00000 0.73730 0.25000 14.57500
C 	C 	0.50000 0.23730 0.25000 3.89400
C 	C 	0.00000 0.26270 0.75000 14.53200
C 	C 	0.50000 0.76270 0.75000 3.87800
