data_crystal

_cell_length_a 39.48400
_cell_length_b 39.48400
_cell_length_c 39.48400
_cell_angle_alpha 90.00000
_cell_angle_beta  90.00000
_cell_angle_gamma 90.00000

_symmetry_space_group_name_	'P 1'
_symmetry_space_group_name_H-M	'P 1'

loop_
_symmetry_equiv_pos_as_xyz
  x,y,z

loop_
_atom_site_label
_atom_site_type_symbol
_atom_site_fract_x
_atom_site_fract_y
_atom_site_fract_z
_atom_site_charge
Cu	Cu	0.96457 0.45913 0.73619 0.90900
Cu	Cu	0.97446 0.47071 0.67147 0.90200
Cu	Cu	0.53543 0.54087 0.23619 0.90900
Cu	Cu	0.52554 0.52929 0.17147 0.90200
Cu	Cu	0.03543 0.95913 0.76381 0.90900
Cu	Cu	0.02554 0.97071 0.82853 0.90200
Cu	Cu	0.46457 0.04087 0.26381 0.90900
Cu	Cu	0.47446 0.02929 0.32853 0.90200
Cu	Cu	0.73619 0.96457 0.45913 0.90900
Cu	Cu	0.67147 0.97446 0.47071 0.90200
Cu	Cu	0.23619 0.53543 0.54087 0.90900
Cu	Cu	0.17147 0.52554 0.52929 0.90200
Cu	Cu	0.76381 0.03543 0.95913 0.90900
Cu	Cu	0.82853 0.02554 0.97071 0.90200
Cu	Cu	0.26381 0.46457 0.04087 0.90900
Cu	Cu	0.32853 0.47446 0.02929 0.90200
Cu	Cu	0.45913 0.73619 0.96457 0.90900
Cu	Cu	0.47071 0.67147 0.97446 0.90200
Cu	Cu	0.54087 0.23619 0.53543 0.91000
Cu	Cu	0.52929 0.17147 0.52554 0.90300
Cu	Cu	0.95913 0.76381 0.03543 0.91000
Cu	Cu	0.97071 0.82853 0.02554 0.90300
Cu	Cu	0.04087 0.26381 0.46457 0.91000
Cu	Cu	0.02929 0.32853 0.47446 0.90300
Cu	Cu	0.03543 0.54087 0.26381 0.91000
Cu	Cu	0.02554 0.52929 0.32853 0.90300
Cu	Cu	0.46457 0.45913 0.76381 0.91000
Cu	Cu	0.47446 0.47071 0.82853 0.90300
Cu	Cu	0.96457 0.04087 0.23619 0.91000
Cu	Cu	0.97446 0.02929 0.17147 0.90300
Cu	Cu	0.53543 0.95913 0.73619 0.91000
Cu	Cu	0.52554 0.97071 0.67147 0.90300
Cu	Cu	0.26381 0.03543 0.54087 0.91000
Cu	Cu	0.32853 0.02554 0.52929 0.90300
Cu	Cu	0.76381 0.46457 0.45913 0.91000
Cu	Cu	0.82853 0.47446 0.47071 0.90300
Cu	Cu	0.23619 0.96457 0.04087 0.91000
Cu	Cu	0.17147 0.97446 0.02929 0.90300
Cu	Cu	0.73619 0.53543 0.95913 0.91000
Cu	Cu	0.67147 0.52554 0.97071 0.90300
Cu	Cu	0.54087 0.26381 0.03543 0.91000
Cu	Cu	0.52929 0.32853 0.02554 0.90300
Cu	Cu	0.45913 0.76381 0.46457 0.91000
Cu	Cu	0.47071 0.82853 0.47446 0.90300
Cu	Cu	0.04087 0.23619 0.96457 0.91000
Cu	Cu	0.02929 0.17147 0.97446 0.90300
Cu	Cu	0.95913 0.73619 0.53543 0.91000
Cu	Cu	0.97071 0.67147 0.52554 0.90300
H 	H 	0.96330 0.58080 0.66970 0.05200
H 	H 	0.96820 0.55820 0.77230 0.04800
H 	H 	0.96820 0.62240 0.78380 0.06900
H 	H 	0.96260 0.72950 0.70150 0.07400
H 	H 	0.95910 0.73990 0.64300 0.03600
H 	H 	0.95990 0.63650 0.62780 0.05700
H 	H 	0.01120 0.67290 0.77770 0.06500
H 	H 	0.01530 0.71250 0.81880 0.06300
H 	H 	0.93410 0.75920 0.78950 0.06000
H 	H 	0.92500 0.71870 0.74600 0.06500
H 	H 	0.96750 0.71780 0.87720 0.08000
H 	H 	0.96300 0.72820 0.93190 0.02600
H 	H 	0.98900 0.82830 0.91860 0.05100
H 	H 	0.00660 0.86790 0.86060 0.04000
H 	H 	0.00210 0.79960 0.76630 0.09500
H 	H 	0.01590 0.85200 0.76120 0.00800
H 	H 	0.53670 0.41920 0.16970 0.05200
H 	H 	0.53180 0.44180 0.27230 0.04800
H 	H 	0.53180 0.37760 0.28380 0.06900
H 	H 	0.53740 0.27050 0.20150 0.07400
H 	H 	0.54090 0.26010 0.14300 0.03600
H 	H 	0.54010 0.36350 0.12780 0.05700
H 	H 	0.48880 0.32710 0.27770 0.06500
H 	H 	0.48470 0.28750 0.31880 0.06300
H 	H 	0.56590 0.24080 0.28950 0.06000
H 	H 	0.57500 0.28130 0.24600 0.06500
H 	H 	0.53250 0.28220 0.37720 0.08000
H 	H 	0.53700 0.27180 0.43190 0.02600
H 	H 	0.51100 0.17170 0.41860 0.05100
H 	H 	0.49340 0.13210 0.36060 0.04000
H 	H 	0.49790 0.20040 0.26630 0.09500
H 	H 	0.48410 0.14800 0.26120 0.00800
H 	H 	0.03670 0.08080 0.83030 0.05200
H 	H 	0.03180 0.05820 0.72770 0.04800
H 	H 	0.03180 0.12240 0.71620 0.06900
H 	H 	0.03740 0.22950 0.79850 0.07400
H 	H 	0.04090 0.23990 0.85700 0.03600
H 	H 	0.04010 0.13650 0.87220 0.05700
H 	H 	0.98880 0.17290 0.72230 0.06500
H 	H 	0.98470 0.21250 0.68120 0.06300
H 	H 	0.06590 0.25920 0.71050 0.06000
H 	H 	0.07500 0.21870 0.75400 0.06500
H 	H 	0.03250 0.21780 0.62280 0.08000
H 	H 	0.03700 0.22820 0.56810 0.02600
H 	H 	0.01100 0.32830 0.58140 0.05100
H 	H 	0.99340 0.36790 0.63940 0.04000
H 	H 	0.99790 0.29960 0.73370 0.09500
H 	H 	0.98410 0.35200 0.73880 0.00800
H 	H 	0.46330 0.91920 0.33030 0.05200
H 	H 	0.46820 0.94180 0.22770 0.04800
H 	H 	0.46820 0.87760 0.21620 0.06900
H 	H 	0.46260 0.77050 0.29850 0.07400
H 	H 	0.45910 0.76010 0.35700 0.03600
H 	H 	0.45990 0.86350 0.37220 0.05700
H 	H 	0.51120 0.82710 0.22230 0.06500
H 	H 	0.51530 0.78750 0.18120 0.06300
H 	H 	0.43410 0.74080 0.21050 0.06000
H 	H 	0.42500 0.78130 0.25400 0.06500
H 	H 	0.46750 0.78220 0.12280 0.08000
H 	H 	0.46300 0.77180 0.06810 0.02600
H 	H 	0.48900 0.67170 0.08140 0.05100
H 	H 	0.50660 0.63210 0.13940 0.04000
H 	H 	0.50210 0.70040 0.23370 0.09500
H 	H 	0.51590 0.64800 0.23880 0.00800
H 	H 	0.66970 0.96330 0.58080 0.05200
H 	H 	0.77230 0.96820 0.55820 0.04800
H 	H 	0.78380 0.96820 0.62240 0.06900
H 	H 	0.70150 0.96260 0.72950 0.07400
H 	H 	0.64300 0.95910 0.73990 0.03600
H 	H 	0.62780 0.95990 0.63650 0.05700
H 	H 	0.77770 0.01120 0.67290 0.06500
H 	H 	0.81880 0.01530 0.71250 0.06300
H 	H 	0.78950 0.93410 0.75920 0.06000
H 	H 	0.74600 0.92500 0.71870 0.06500
H 	H 	0.87720 0.96750 0.71780 0.08000
H 	H 	0.93190 0.96300 0.72820 0.02600
H 	H 	0.91860 0.98900 0.82830 0.05100
H 	H 	0.86060 0.00660 0.86790 0.04000
H 	H 	0.76630 0.00210 0.79960 0.09500
H 	H 	0.76120 0.01590 0.85200 0.00800
H 	H 	0.16970 0.53670 0.41920 0.05200
H 	H 	0.27230 0.53180 0.44180 0.04800
H 	H 	0.28380 0.53180 0.37760 0.06900
H 	H 	0.20150 0.53740 0.27050 0.07400
H 	H 	0.14300 0.54090 0.26010 0.03600
H 	H 	0.12780 0.54010 0.36350 0.05700
H 	H 	0.27770 0.48880 0.32710 0.06500
H 	H 	0.31880 0.48470 0.28750 0.06300
H 	H 	0.28950 0.56590 0.24080 0.06000
H 	H 	0.24600 0.57500 0.28130 0.06500
H 	H 	0.37720 0.53250 0.28220 0.08000
H 	H 	0.43190 0.53700 0.27180 0.02600
H 	H 	0.41860 0.51100 0.17170 0.05100
H 	H 	0.36060 0.49340 0.13210 0.04000
H 	H 	0.26630 0.49790 0.20040 0.09500
H 	H 	0.26120 0.48410 0.14800 0.00800
H 	H 	0.83030 0.03670 0.08080 0.05200
H 	H 	0.72770 0.03180 0.05820 0.04800
H 	H 	0.71620 0.03180 0.12240 0.06900
H 	H 	0.79850 0.03740 0.22950 0.07400
H 	H 	0.85700 0.04090 0.23990 0.03600
H 	H 	0.87220 0.04010 0.13650 0.05700
H 	H 	0.72230 0.98880 0.17290 0.06500
H 	H 	0.68120 0.98470 0.21250 0.06300
H 	H 	0.71050 0.06590 0.25920 0.06000
H 	H 	0.75400 0.07500 0.21870 0.06500
H 	H 	0.62280 0.03250 0.21780 0.08000
H 	H 	0.56810 0.03700 0.22820 0.02600
H 	H 	0.58140 0.01100 0.32830 0.05100
H 	H 	0.63940 0.99340 0.36790 0.04000
H 	H 	0.73370 0.99790 0.29960 0.09500
H 	H 	0.73880 0.98410 0.35200 0.00800
H 	H 	0.33030 0.46330 0.91920 0.05200
H 	H 	0.22770 0.46820 0.94180 0.04800
H 	H 	0.21620 0.46820 0.87760 0.06900
H 	H 	0.29850 0.46260 0.77050 0.07400
H 	H 	0.35700 0.45910 0.76010 0.03600
H 	H 	0.37220 0.45990 0.86350 0.05700
H 	H 	0.22230 0.51120 0.82710 0.06500
H 	H 	0.18120 0.51530 0.78750 0.06300
H 	H 	0.21050 0.43410 0.74080 0.06000
H 	H 	0.25400 0.42500 0.78130 0.06500
H 	H 	0.12280 0.46750 0.78220 0.08000
H 	H 	0.06810 0.46300 0.77180 0.02600
H 	H 	0.08140 0.48900 0.67170 0.05100
H 	H 	0.13940 0.50660 0.63210 0.04000
H 	H 	0.23370 0.50210 0.70040 0.09500
H 	H 	0.23880 0.51590 0.64800 0.00800
H 	H 	0.58080 0.66970 0.96330 0.05200
H 	H 	0.55820 0.77230 0.96820 0.04800
H 	H 	0.62240 0.78380 0.96820 0.06900
H 	H 	0.72950 0.70150 0.96260 0.07400
H 	H 	0.73990 0.64300 0.95910 0.03600
H 	H 	0.63650 0.62780 0.95990 0.05700
H 	H 	0.67290 0.77770 0.01120 0.06500
H 	H 	0.71250 0.81880 0.01530 0.06300
H 	H 	0.75920 0.78950 0.93410 0.06000
H 	H 	0.71870 0.74600 0.92500 0.06500
H 	H 	0.71780 0.87720 0.96750 0.08000
H 	H 	0.72820 0.93190 0.96300 0.02600
H 	H 	0.82830 0.91860 0.98900 0.05100
H 	H 	0.86790 0.86060 0.00660 0.04000
H 	H 	0.79960 0.76630 0.00210 0.09500
H 	H 	0.85200 0.76120 0.01590 0.00800
H 	H 	0.41920 0.16970 0.53670 0.05200
H 	H 	0.44180 0.27230 0.53180 0.04800
H 	H 	0.37760 0.28380 0.53180 0.06900
H 	H 	0.27050 0.20150 0.53740 0.07400
H 	H 	0.26010 0.14300 0.54090 0.03600
H 	H 	0.36350 0.12780 0.54010 0.05700
H 	H 	0.32710 0.27770 0.48880 0.06500
H 	H 	0.28750 0.31880 0.48470 0.06300
H 	H 	0.24080 0.28950 0.56590 0.06000
H 	H 	0.28130 0.24600 0.57500 0.06500
H 	H 	0.28220 0.37720 0.53250 0.08000
H 	H 	0.27180 0.43190 0.53700 0.02600
H 	H 	0.17170 0.41860 0.51100 0.05100
H 	H 	0.13210 0.36060 0.49340 0.04000
H 	H 	0.20040 0.26630 0.49790 0.09500
H 	H 	0.14800 0.26120 0.48410 0.00800
H 	H 	0.08080 0.83030 0.03670 0.05200
H 	H 	0.05820 0.72770 0.03180 0.04800
H 	H 	0.12240 0.71620 0.03180 0.06900
H 	H 	0.22950 0.79850 0.03740 0.07400
H 	H 	0.23990 0.85700 0.04090 0.03600
H 	H 	0.13650 0.87220 0.04010 0.05700
H 	H 	0.17290 0.72230 0.98880 0.06500
H 	H 	0.21250 0.68120 0.98470 0.06300
H 	H 	0.25920 0.71050 0.06590 0.06000
H 	H 	0.21870 0.75400 0.07500 0.06500
H 	H 	0.21780 0.62280 0.03250 0.08000
H 	H 	0.22820 0.56810 0.03700 0.02600
H 	H 	0.32830 0.58140 0.01100 0.05100
H 	H 	0.36790 0.63940 0.99340 0.04000
H 	H 	0.29960 0.73370 0.99790 0.09500
H 	H 	0.35200 0.73880 0.98410 0.00800
H 	H 	0.91920 0.33030 0.46330 0.05200
H 	H 	0.94180 0.22770 0.46820 0.04800
H 	H 	0.87760 0.21620 0.46820 0.06900
H 	H 	0.77050 0.29850 0.46260 0.07400
H 	H 	0.76010 0.35700 0.45910 0.03600
H 	H 	0.86350 0.37220 0.45990 0.05700
H 	H 	0.82710 0.22230 0.51120 0.06500
H 	H 	0.78750 0.18120 0.51530 0.06300
H 	H 	0.74080 0.21050 0.43410 0.06000
H 	H 	0.78130 0.25400 0.42500 0.06500
H 	H 	0.78220 0.12280 0.46750 0.08000
H 	H 	0.77180 0.06810 0.46300 0.02600
H 	H 	0.67170 0.08140 0.48900 0.05100
H 	H 	0.63210 0.13940 0.50660 0.04000
H 	H 	0.70040 0.23370 0.50210 0.09500
H 	H 	0.64800 0.23880 0.51590 0.00800
H 	H 	0.03670 0.41920 0.33030 0.05200
H 	H 	0.03180 0.44180 0.22770 0.04800
H 	H 	0.03180 0.37760 0.21620 0.06900
H 	H 	0.03740 0.27050 0.29850 0.07400
H 	H 	0.04090 0.26010 0.35700 0.03600
H 	H 	0.04010 0.36350 0.37220 0.05700
H 	H 	0.98880 0.32710 0.22230 0.06500
H 	H 	0.98470 0.28750 0.18120 0.06300
H 	H 	0.06590 0.24080 0.21050 0.06000
H 	H 	0.07500 0.28130 0.25400 0.06500
H 	H 	0.03250 0.28220 0.12280 0.08000
H 	H 	0.03700 0.27180 0.06810 0.02600
H 	H 	0.01100 0.17170 0.08140 0.05100
H 	H 	0.99340 0.13210 0.13940 0.04000
H 	H 	0.99790 0.20040 0.23370 0.09500
H 	H 	0.98410 0.14800 0.23880 0.00800
H 	H 	0.46330 0.58080 0.83030 0.05200
H 	H 	0.46820 0.55820 0.72770 0.04800
H 	H 	0.46820 0.62240 0.71620 0.06900
H 	H 	0.46260 0.72950 0.79850 0.07400
H 	H 	0.45910 0.73990 0.85700 0.03600
H 	H 	0.45990 0.63650 0.87220 0.05700
H 	H 	0.51120 0.67290 0.72230 0.06500
H 	H 	0.51530 0.71250 0.68120 0.06300
H 	H 	0.43410 0.75920 0.71050 0.06000
H 	H 	0.42500 0.71870 0.75400 0.06500
H 	H 	0.46750 0.71780 0.62280 0.08000
H 	H 	0.46300 0.72820 0.56810 0.02600
H 	H 	0.48900 0.82830 0.58140 0.05100
H 	H 	0.50660 0.86790 0.63940 0.04000
H 	H 	0.50210 0.79960 0.73370 0.09500
H 	H 	0.51590 0.85200 0.73880 0.00800
H 	H 	0.96330 0.91920 0.16970 0.05200
H 	H 	0.96820 0.94180 0.27230 0.04800
H 	H 	0.96820 0.87760 0.28380 0.06900
H 	H 	0.96260 0.77050 0.20150 0.07400
H 	H 	0.95910 0.76010 0.14300 0.03600
H 	H 	0.95990 0.86350 0.12780 0.05700
H 	H 	0.01120 0.82710 0.27770 0.06500
H 	H 	0.01530 0.78750 0.31880 0.06300
H 	H 	0.93410 0.74080 0.28950 0.06000
H 	H 	0.92500 0.78130 0.24600 0.06500
H 	H 	0.96750 0.78220 0.37720 0.08000
H 	H 	0.96300 0.77180 0.43190 0.02600
H 	H 	0.98900 0.67170 0.41860 0.05100
H 	H 	0.00660 0.63210 0.36060 0.04000
H 	H 	0.00210 0.70040 0.26630 0.09500
H 	H 	0.01590 0.64800 0.26120 0.00800
H 	H 	0.53670 0.08080 0.66970 0.05200
H 	H 	0.53180 0.05820 0.77230 0.04800
H 	H 	0.53180 0.12240 0.78380 0.06900
H 	H 	0.53740 0.22950 0.70150 0.07400
H 	H 	0.54090 0.23990 0.64300 0.03600
H 	H 	0.54010 0.13650 0.62780 0.05700
H 	H 	0.48880 0.17290 0.77770 0.06500
H 	H 	0.48470 0.21250 0.81880 0.06300
H 	H 	0.56590 0.25920 0.78950 0.06000
H 	H 	0.57500 0.21870 0.74600 0.06500
H 	H 	0.53250 0.21780 0.87720 0.08000
H 	H 	0.53700 0.22820 0.93190 0.02600
H 	H 	0.51100 0.32830 0.91860 0.05100
H 	H 	0.49340 0.36790 0.86060 0.04000
H 	H 	0.49790 0.29960 0.76630 0.09500
H 	H 	0.48410 0.35200 0.76120 0.00800
H 	H 	0.33030 0.03670 0.41920 0.05200
H 	H 	0.22770 0.03180 0.44180 0.04800
H 	H 	0.21620 0.03180 0.37760 0.06900
H 	H 	0.29850 0.03740 0.27050 0.07400
H 	H 	0.35700 0.04090 0.26010 0.03600
H 	H 	0.37220 0.04010 0.36350 0.05700
H 	H 	0.22230 0.98880 0.32710 0.06500
H 	H 	0.18120 0.98470 0.28750 0.06300
H 	H 	0.21050 0.06590 0.24080 0.06000
H 	H 	0.25400 0.07500 0.28130 0.06500
H 	H 	0.12280 0.03250 0.28220 0.08000
H 	H 	0.06810 0.03700 0.27180 0.02600
H 	H 	0.08140 0.01100 0.17170 0.05100
H 	H 	0.13940 0.99340 0.13210 0.04000
H 	H 	0.23370 0.99790 0.20040 0.09500
H 	H 	0.23880 0.98410 0.14800 0.00800
H 	H 	0.83030 0.46330 0.58080 0.05200
H 	H 	0.72770 0.46820 0.55820 0.04800
H 	H 	0.71620 0.46820 0.62240 0.06900
H 	H 	0.79850 0.46260 0.72950 0.07400
H 	H 	0.85700 0.45910 0.73990 0.03600
H 	H 	0.87220 0.45990 0.63650 0.05700
H 	H 	0.72230 0.51120 0.67290 0.06500
H 	H 	0.68120 0.51530 0.71250 0.06300
H 	H 	0.71050 0.43410 0.75920 0.06000
H 	H 	0.75400 0.42500 0.71870 0.06500
H 	H 	0.62280 0.46750 0.71780 0.08000
H 	H 	0.56810 0.46300 0.72820 0.02600
H 	H 	0.58140 0.48900 0.82830 0.05100
H 	H 	0.63940 0.50660 0.86790 0.04000
H 	H 	0.73370 0.50210 0.79960 0.09500
H 	H 	0.73880 0.51590 0.85200 0.00800
H 	H 	0.16970 0.96330 0.91920 0.05200
H 	H 	0.27230 0.96820 0.94180 0.04800
H 	H 	0.28380 0.96820 0.87760 0.06900
H 	H 	0.20150 0.96260 0.77050 0.07400
H 	H 	0.14300 0.95910 0.76010 0.03600
H 	H 	0.12780 0.95990 0.86350 0.05700
H 	H 	0.27770 0.01120 0.82710 0.06500
H 	H 	0.31880 0.01530 0.78750 0.06300
H 	H 	0.28950 0.93410 0.74080 0.06000
H 	H 	0.24600 0.92500 0.78130 0.06500
H 	H 	0.37720 0.96750 0.78220 0.08000
H 	H 	0.43190 0.96300 0.77180 0.02600
H 	H 	0.41860 0.98900 0.67170 0.05100
H 	H 	0.36060 0.00660 0.63210 0.04000
H 	H 	0.26630 0.00210 0.70040 0.09500
H 	H 	0.26120 0.01590 0.64800 0.00800
H 	H 	0.66970 0.53670 0.08080 0.05200
H 	H 	0.77230 0.53180 0.05820 0.04800
H 	H 	0.78380 0.53180 0.12240 0.06900
H 	H 	0.70150 0.53740 0.22950 0.07400
H 	H 	0.64300 0.54090 0.23990 0.03600
H 	H 	0.62780 0.54010 0.13650 0.05700
H 	H 	0.77770 0.48880 0.17290 0.06500
H 	H 	0.81880 0.48470 0.21250 0.06300
H 	H 	0.78950 0.56590 0.25920 0.06000
H 	H 	0.74600 0.57500 0.21870 0.06500
H 	H 	0.87720 0.53250 0.21780 0.08000
H 	H 	0.93190 0.53700 0.22820 0.02600
H 	H 	0.91860 0.51100 0.32830 0.05100
H 	H 	0.86060 0.49340 0.36790 0.04000
H 	H 	0.76630 0.49790 0.29960 0.09500
H 	H 	0.76120 0.48410 0.35200 0.00800
H 	H 	0.41920 0.33030 0.03670 0.05200
H 	H 	0.44180 0.22770 0.03180 0.04800
H 	H 	0.37760 0.21620 0.03180 0.06900
H 	H 	0.27050 0.29850 0.03740 0.07400
H 	H 	0.26010 0.35700 0.04090 0.03600
H 	H 	0.36350 0.37220 0.04010 0.05700
H 	H 	0.32710 0.22230 0.98880 0.06500
H 	H 	0.28750 0.18120 0.98470 0.06300
H 	H 	0.24080 0.21050 0.06590 0.06000
H 	H 	0.28130 0.25400 0.07500 0.06500
H 	H 	0.28220 0.12280 0.03250 0.08000
H 	H 	0.27180 0.06810 0.03700 0.02600
H 	H 	0.17170 0.08140 0.01100 0.05100
H 	H 	0.13210 0.13940 0.99340 0.04000
H 	H 	0.20040 0.23370 0.99790 0.09500
H 	H 	0.14800 0.23880 0.98410 0.00800
H 	H 	0.58080 0.83030 0.46330 0.05200
H 	H 	0.55820 0.72770 0.46820 0.04800
H 	H 	0.62240 0.71620 0.46820 0.06900
H 	H 	0.72950 0.79850 0.46260 0.07400
H 	H 	0.73990 0.85700 0.45910 0.03600
H 	H 	0.63650 0.87220 0.45990 0.05700
H 	H 	0.67290 0.72230 0.51120 0.06500
H 	H 	0.71250 0.68120 0.51530 0.06300
H 	H 	0.75920 0.71050 0.43410 0.06000
H 	H 	0.71870 0.75400 0.42500 0.06500
H 	H 	0.71780 0.62280 0.46750 0.08000
H 	H 	0.72820 0.56810 0.46300 0.02600
H 	H 	0.82830 0.58140 0.48900 0.05100
H 	H 	0.86790 0.63940 0.50660 0.04000
H 	H 	0.79960 0.73370 0.50210 0.09500
H 	H 	0.85200 0.73880 0.51590 0.00800
H 	H 	0.91920 0.16970 0.96330 0.05200
H 	H 	0.94180 0.27230 0.96820 0.04800
H 	H 	0.87760 0.28380 0.96820 0.06900
H 	H 	0.77050 0.20150 0.96260 0.07400
H 	H 	0.76010 0.14300 0.95910 0.03600
H 	H 	0.86350 0.12780 0.95990 0.05700
H 	H 	0.82710 0.27770 0.01120 0.06500
H 	H 	0.78750 0.31880 0.01530 0.06300
H 	H 	0.74080 0.28950 0.93410 0.06000
H 	H 	0.78130 0.24600 0.92500 0.06500
H 	H 	0.78220 0.37720 0.96750 0.08000
H 	H 	0.77180 0.43190 0.96300 0.02600
H 	H 	0.67170 0.41860 0.98900 0.05100
H 	H 	0.63210 0.36060 0.00660 0.04000
H 	H 	0.70040 0.26630 0.00210 0.09500
H 	H 	0.64800 0.26120 0.01590 0.00800
H 	H 	0.08080 0.66970 0.53670 0.05200
H 	H 	0.05820 0.77230 0.53180 0.04800
H 	H 	0.12240 0.78380 0.53180 0.06900
H 	H 	0.22950 0.70150 0.53740 0.07400
H 	H 	0.23990 0.64300 0.54090 0.03600
H 	H 	0.13650 0.62780 0.54010 0.05700
H 	H 	0.17290 0.77770 0.48880 0.06500
H 	H 	0.21250 0.81880 0.48470 0.06300
H 	H 	0.25920 0.78950 0.56590 0.06000
H 	H 	0.21870 0.74600 0.57500 0.06500
H 	H 	0.21780 0.87720 0.53250 0.08000
H 	H 	0.22820 0.93190 0.53700 0.02600
H 	H 	0.32830 0.91860 0.51100 0.05100
H 	H 	0.36790 0.86060 0.49340 0.04000
H 	H 	0.29960 0.76630 0.49790 0.09500
H 	H 	0.35200 0.76120 0.48410 0.00800
C 	C 	0.96649 0.52810 0.71489 0.28100
C 	C 	0.96422 0.58839 0.69254 -0.00600
C 	C 	0.96595 0.56334 0.71915 -0.07200
C 	C 	0.96730 0.57419 0.75439 -0.00100
C 	C 	0.96715 0.61300 0.76160 -0.09800
C 	C 	0.96521 0.63370 0.73020 0.10100
C 	C 	0.96384 0.62029 0.69826 -0.03400
C 	C 	0.96211 0.64817 0.67739 -0.00700
C 	C 	0.96237 0.67987 0.69919 0.08300
C 	C 	0.96172 0.71080 0.68630 -0.11900
C 	C 	0.95985 0.71750 0.65180 0.02800
C 	C 	0.95917 0.68830 0.63036 -0.07800
C 	C 	0.96035 0.65488 0.64322 -0.02200
C 	C 	0.95768 0.69265 0.59272 0.34300
C 	C 	0.96868 0.69051 0.75640 0.11700
C 	C 	0.99450 0.69020 0.77900 -0.08800
C 	C 	0.99670 0.71440 0.80360 -0.08000
C 	C 	0.97729 0.73858 0.80859 0.09000
C 	C 	0.94969 0.74101 0.78670 -0.07000
C 	C 	0.94420 0.71720 0.76040 -0.08800
C 	C 	0.98814 0.80087 0.87500 -0.02500
C 	C 	0.98205 0.76900 0.86260 0.11100
C 	C 	0.97180 0.73984 0.88597 -0.13800
C 	C 	0.96923 0.74584 0.91680 0.05600
C 	C 	0.97567 0.77949 0.92991 -0.09500
C 	C 	0.98495 0.80649 0.90924 -0.00400
C 	C 	0.97152 0.78569 0.96806 0.36300
C 	C 	0.00555 0.85329 0.84152 0.03400
C 	C 	0.99641 0.81988 0.84812 -0.03900
C 	C 	0.99517 0.79750 0.81750 0.12300
C 	C 	0.00298 0.81309 0.78619 -0.18300
C 	C 	0.01096 0.84378 0.78324 0.10400
C 	C 	0.01312 0.86763 0.81140 -0.15300
C 	C 	0.02162 0.90084 0.80711 0.35700
C 	C 	0.53351 0.47190 0.21489 0.28100
C 	C 	0.53578 0.41161 0.19254 -0.00600
C 	C 	0.53405 0.43666 0.21915 -0.07200
C 	C 	0.53270 0.42581 0.25439 -0.00100
C 	C 	0.53285 0.38700 0.26160 -0.09800
C 	C 	0.53479 0.36630 0.23020 0.10100
C 	C 	0.53616 0.37971 0.19826 -0.03400
C 	C 	0.53789 0.35183 0.17739 -0.00700
C 	C 	0.53763 0.32013 0.19919 0.08300
C 	C 	0.53828 0.28920 0.18630 -0.11900
C 	C 	0.54015 0.28250 0.15180 0.02800
C 	C 	0.54083 0.31170 0.13036 -0.07800
C 	C 	0.53965 0.34512 0.14322 -0.02200
C 	C 	0.54232 0.30735 0.09272 0.34300
C 	C 	0.53132 0.30949 0.25640 0.11700
C 	C 	0.50550 0.30980 0.27900 -0.08800
C 	C 	0.50330 0.28560 0.30360 -0.08000
C 	C 	0.52271 0.26142 0.30859 0.09000
C 	C 	0.55031 0.25899 0.28670 -0.07000
C 	C 	0.55580 0.28280 0.26040 -0.08800
C 	C 	0.51186 0.19913 0.37500 -0.02500
C 	C 	0.51795 0.23100 0.36260 0.11100
C 	C 	0.52820 0.26016 0.38597 -0.13800
C 	C 	0.53077 0.25416 0.41680 0.05600
C 	C 	0.52433 0.22051 0.42991 -0.09500
C 	C 	0.51505 0.19351 0.40924 -0.00400
C 	C 	0.52848 0.21431 0.46806 0.36300
C 	C 	0.49445 0.14671 0.34152 0.03400
C 	C 	0.50359 0.18012 0.34812 -0.03900
C 	C 	0.50483 0.20250 0.31750 0.12300
C 	C 	0.49702 0.18691 0.28619 -0.18200
C 	C 	0.48904 0.15622 0.28324 0.10400
C 	C 	0.48688 0.13237 0.31140 -0.15300
C 	C 	0.47838 0.09916 0.30711 0.35700
C 	C 	0.03351 0.02810 0.78511 0.28100
C 	C 	0.03578 0.08839 0.80746 -0.00600
C 	C 	0.03405 0.06334 0.78085 -0.07200
C 	C 	0.03270 0.07419 0.74561 -0.00100
C 	C 	0.03285 0.11300 0.73840 -0.09800
C 	C 	0.03479 0.13370 0.76980 0.10100
C 	C 	0.03616 0.12029 0.80174 -0.03400
C 	C 	0.03789 0.14817 0.82261 -0.00700
C 	C 	0.03763 0.17987 0.80081 0.08300
C 	C 	0.03828 0.21080 0.81370 -0.11900
C 	C 	0.04015 0.21750 0.84820 0.02800
C 	C 	0.04083 0.18830 0.86964 -0.07800
C 	C 	0.03965 0.15488 0.85678 -0.02200
C 	C 	0.04232 0.19265 0.90728 0.34300
C 	C 	0.03132 0.19051 0.74360 0.11700
C 	C 	0.00550 0.19020 0.72100 -0.08800
C 	C 	0.00330 0.21440 0.69640 -0.08000
C 	C 	0.02271 0.23858 0.69141 0.09000
C 	C 	0.05031 0.24101 0.71330 -0.07000
C 	C 	0.05580 0.21720 0.73960 -0.08800
C 	C 	0.01186 0.30087 0.62500 -0.02500
C 	C 	0.01795 0.26900 0.63740 0.11100
C 	C 	0.02820 0.23984 0.61403 -0.13800
C 	C 	0.03077 0.24584 0.58320 0.05600
C 	C 	0.02433 0.27949 0.57009 -0.09500
C 	C 	0.01505 0.30649 0.59076 -0.00400
C 	C 	0.02848 0.28569 0.53194 0.36300
C 	C 	0.99445 0.35329 0.65848 0.03400
C 	C 	0.00359 0.31988 0.65188 -0.03900
C 	C 	0.00483 0.29750 0.68250 0.12300
C 	C 	0.99702 0.31309 0.71381 -0.18200
C 	C 	0.98904 0.34378 0.71676 0.10400
C 	C 	0.98688 0.36763 0.68860 -0.15300
C 	C 	0.97838 0.40084 0.69289 0.35700
C 	C 	0.46649 0.97190 0.28511 0.28100
C 	C 	0.46422 0.91161 0.30746 -0.00600
C 	C 	0.46595 0.93666 0.28085 -0.07200
C 	C 	0.46730 0.92581 0.24561 -0.00100
C 	C 	0.46715 0.88700 0.23840 -0.09800
C 	C 	0.46521 0.86630 0.26980 0.10100
C 	C 	0.46384 0.87971 0.30174 -0.03400
C 	C 	0.46211 0.85183 0.32261 -0.00700
C 	C 	0.46237 0.82013 0.30081 0.08300
C 	C 	0.46172 0.78920 0.31370 -0.11900
C 	C 	0.45985 0.78250 0.34820 0.02800
C 	C 	0.45917 0.81170 0.36964 -0.07800
C 	C 	0.46035 0.84512 0.35678 -0.02200
C 	C 	0.45768 0.80735 0.40728 0.34300
C 	C 	0.46868 0.80949 0.24360 0.11700
C 	C 	0.49450 0.80980 0.22100 -0.08800
C 	C 	0.49670 0.78560 0.19640 -0.08000
C 	C 	0.47729 0.76142 0.19141 0.09000
C 	C 	0.44969 0.75899 0.21330 -0.07000
C 	C 	0.44420 0.78280 0.23960 -0.08800
C 	C 	0.48814 0.69913 0.12500 -0.02500
C 	C 	0.48205 0.73100 0.13740 0.11100
C 	C 	0.47180 0.76016 0.11403 -0.13800
C 	C 	0.46923 0.75416 0.08320 0.05600
C 	C 	0.47567 0.72051 0.07009 -0.09500
C 	C 	0.48495 0.69351 0.09076 -0.00400
C 	C 	0.47152 0.71431 0.03194 0.36300
C 	C 	0.50555 0.64671 0.15848 0.03400
C 	C 	0.49641 0.68012 0.15188 -0.03900
C 	C 	0.49517 0.70250 0.18250 0.12300
C 	C 	0.50298 0.68691 0.21381 -0.18200
C 	C 	0.51096 0.65622 0.21676 0.10400
C 	C 	0.51312 0.63237 0.18860 -0.15300
C 	C 	0.52162 0.59916 0.19289 0.35700
C 	C 	0.71489 0.96649 0.52810 0.28100
C 	C 	0.69254 0.96422 0.58839 -0.00600
C 	C 	0.71915 0.96595 0.56334 -0.07200
C 	C 	0.75439 0.96730 0.57419 -0.00100
C 	C 	0.76160 0.96715 0.61300 -0.09800
C 	C 	0.73020 0.96521 0.63370 0.10100
C 	C 	0.69826 0.96384 0.62029 -0.03400
C 	C 	0.67739 0.96211 0.64817 -0.00700
C 	C 	0.69919 0.96237 0.67987 0.08300
C 	C 	0.68630 0.96172 0.71080 -0.11900
C 	C 	0.65180 0.95985 0.71750 0.02800
C 	C 	0.63036 0.95917 0.68830 -0.07800
C 	C 	0.64322 0.96035 0.65488 -0.02200
C 	C 	0.59272 0.95768 0.69265 0.34300
C 	C 	0.75640 0.96868 0.69051 0.11700
C 	C 	0.77900 0.99450 0.69020 -0.08800
C 	C 	0.80360 0.99670 0.71440 -0.08000
C 	C 	0.80859 0.97729 0.73858 0.09000
C 	C 	0.78670 0.94969 0.74101 -0.07000
C 	C 	0.76040 0.94420 0.71720 -0.08800
C 	C 	0.87500 0.98814 0.80087 -0.02500
C 	C 	0.86260 0.98205 0.76900 0.11100
C 	C 	0.88597 0.97180 0.73984 -0.13800
C 	C 	0.91680 0.96923 0.74584 0.05600
C 	C 	0.92991 0.97567 0.77949 -0.09500
C 	C 	0.90924 0.98495 0.80649 -0.00400
C 	C 	0.96806 0.97152 0.78569 0.36300
C 	C 	0.84152 0.00555 0.85329 0.03400
C 	C 	0.84812 0.99641 0.81988 -0.03900
C 	C 	0.81750 0.99517 0.79750 0.12300
C 	C 	0.78619 0.00298 0.81309 -0.18300
C 	C 	0.78324 0.01096 0.84378 0.10400
C 	C 	0.81140 0.01312 0.86763 -0.15300
C 	C 	0.80711 0.02162 0.90084 0.35700
C 	C 	0.21489 0.53351 0.47190 0.28100
C 	C 	0.19254 0.53578 0.41161 -0.00600
C 	C 	0.21915 0.53405 0.43666 -0.07200
C 	C 	0.25439 0.53270 0.42581 -0.00100
C 	C 	0.26160 0.53285 0.38700 -0.09800
C 	C 	0.23020 0.53479 0.36630 0.10100
C 	C 	0.19826 0.53616 0.37971 -0.03400
C 	C 	0.17739 0.53789 0.35183 -0.00700
C 	C 	0.19919 0.53763 0.32013 0.08300
C 	C 	0.18630 0.53828 0.28920 -0.11900
C 	C 	0.15180 0.54015 0.28250 0.02800
C 	C 	0.13036 0.54083 0.31170 -0.07800
C 	C 	0.14322 0.53965 0.34512 -0.02200
C 	C 	0.09272 0.54232 0.30735 0.34300
C 	C 	0.25640 0.53132 0.30949 0.11700
C 	C 	0.27900 0.50550 0.30980 -0.08800
C 	C 	0.30360 0.50330 0.28560 -0.08000
C 	C 	0.30859 0.52271 0.26142 0.09000
C 	C 	0.28670 0.55031 0.25899 -0.07000
C 	C 	0.26040 0.55580 0.28280 -0.08800
C 	C 	0.37500 0.51186 0.19913 -0.02500
C 	C 	0.36260 0.51795 0.23100 0.11100
C 	C 	0.38597 0.52820 0.26016 -0.13800
C 	C 	0.41680 0.53077 0.25416 0.05600
C 	C 	0.42991 0.52433 0.22051 -0.09500
C 	C 	0.40924 0.51505 0.19351 -0.00400
C 	C 	0.46806 0.52848 0.21431 0.36300
C 	C 	0.34152 0.49445 0.14671 0.03400
C 	C 	0.34812 0.50359 0.18012 -0.03900
C 	C 	0.31750 0.50483 0.20250 0.12300
C 	C 	0.28619 0.49702 0.18691 -0.18200
C 	C 	0.28324 0.48904 0.15622 0.10400
C 	C 	0.31140 0.48688 0.13237 -0.15300
C 	C 	0.30711 0.47838 0.09916 0.35700
C 	C 	0.78511 0.03351 0.02810 0.28100
C 	C 	0.80746 0.03578 0.08839 -0.00600
C 	C 	0.78085 0.03405 0.06334 -0.07200
C 	C 	0.74561 0.03270 0.07419 -0.00100
C 	C 	0.73840 0.03285 0.11300 -0.09800
C 	C 	0.76980 0.03479 0.13370 0.10100
C 	C 	0.80174 0.03616 0.12029 -0.03400
C 	C 	0.82261 0.03789 0.14817 -0.00700
C 	C 	0.80081 0.03763 0.17987 0.08300
C 	C 	0.81370 0.03828 0.21080 -0.11900
C 	C 	0.84820 0.04015 0.21750 0.02800
C 	C 	0.86964 0.04083 0.18830 -0.07800
C 	C 	0.85678 0.03965 0.15488 -0.02200
C 	C 	0.90728 0.04232 0.19265 0.34300
C 	C 	0.74360 0.03132 0.19051 0.11700
C 	C 	0.72100 0.00550 0.19020 -0.08800
C 	C 	0.69640 0.00330 0.21440 -0.08000
C 	C 	0.69141 0.02271 0.23858 0.09000
C 	C 	0.71330 0.05031 0.24101 -0.07000
C 	C 	0.73960 0.05580 0.21720 -0.08800
C 	C 	0.62500 0.01186 0.30087 -0.02500
C 	C 	0.63740 0.01795 0.26900 0.11100
C 	C 	0.61403 0.02820 0.23984 -0.13800
C 	C 	0.58320 0.03077 0.24584 0.05600
C 	C 	0.57009 0.02433 0.27949 -0.09500
C 	C 	0.59076 0.01505 0.30649 -0.00400
C 	C 	0.53194 0.02848 0.28569 0.36300
C 	C 	0.65848 0.99445 0.35329 0.03400
C 	C 	0.65188 0.00359 0.31988 -0.03900
C 	C 	0.68250 0.00483 0.29750 0.12300
C 	C 	0.71381 0.99702 0.31309 -0.18200
C 	C 	0.71676 0.98904 0.34378 0.10400
C 	C 	0.68860 0.98688 0.36763 -0.15300
C 	C 	0.69289 0.97838 0.40084 0.35700
C 	C 	0.28511 0.46649 0.97190 0.28100
C 	C 	0.30746 0.46422 0.91161 -0.00600
C 	C 	0.28085 0.46595 0.93666 -0.07200
C 	C 	0.24561 0.46730 0.92581 -0.00100
C 	C 	0.23840 0.46715 0.88700 -0.09800
C 	C 	0.26980 0.46521 0.86630 0.10100
C 	C 	0.30174 0.46384 0.87971 -0.03400
C 	C 	0.32261 0.46211 0.85183 -0.00700
C 	C 	0.30081 0.46237 0.82013 0.08300
C 	C 	0.31370 0.46172 0.78920 -0.11900
C 	C 	0.34820 0.45985 0.78250 0.02800
C 	C 	0.36964 0.45917 0.81170 -0.07800
C 	C 	0.35678 0.46035 0.84512 -0.02200
C 	C 	0.40728 0.45768 0.80735 0.34300
C 	C 	0.24360 0.46868 0.80949 0.11700
C 	C 	0.22100 0.49450 0.80980 -0.08800
C 	C 	0.19640 0.49670 0.78560 -0.08000
C 	C 	0.19141 0.47729 0.76142 0.09000
C 	C 	0.21330 0.44969 0.75899 -0.07000
C 	C 	0.23960 0.44420 0.78280 -0.08800
C 	C 	0.12500 0.48814 0.69913 -0.02500
C 	C 	0.13740 0.48205 0.73100 0.11100
C 	C 	0.11403 0.47180 0.76016 -0.13800
C 	C 	0.08320 0.46923 0.75416 0.05600
C 	C 	0.07009 0.47567 0.72051 -0.09500
C 	C 	0.09076 0.48495 0.69351 -0.00400
C 	C 	0.03194 0.47152 0.71431 0.36300
C 	C 	0.15848 0.50555 0.64671 0.03400
C 	C 	0.15188 0.49641 0.68012 -0.03900
C 	C 	0.18250 0.49517 0.70250 0.12300
C 	C 	0.21381 0.50298 0.68691 -0.18200
C 	C 	0.21676 0.51096 0.65622 0.10400
C 	C 	0.18860 0.51312 0.63237 -0.15300
C 	C 	0.19289 0.52162 0.59916 0.35700
C 	C 	0.52810 0.71489 0.96649 0.28100
C 	C 	0.58839 0.69254 0.96422 -0.00600
C 	C 	0.56334 0.71915 0.96595 -0.07200
C 	C 	0.57419 0.75439 0.96730 -0.00100
C 	C 	0.61300 0.76160 0.96715 -0.09800
C 	C 	0.63370 0.73020 0.96521 0.10100
C 	C 	0.62029 0.69826 0.96384 -0.03400
C 	C 	0.64817 0.67739 0.96211 -0.00700
C 	C 	0.67987 0.69919 0.96237 0.08300
C 	C 	0.71080 0.68630 0.96172 -0.11900
C 	C 	0.71750 0.65180 0.95985 0.02800
C 	C 	0.68830 0.63036 0.95917 -0.07800
C 	C 	0.65488 0.64322 0.96035 -0.02200
C 	C 	0.69265 0.59272 0.95768 0.34300
C 	C 	0.69051 0.75640 0.96868 0.11700
C 	C 	0.69020 0.77900 0.99450 -0.08800
C 	C 	0.71440 0.80360 0.99670 -0.08000
C 	C 	0.73858 0.80859 0.97729 0.09000
C 	C 	0.74101 0.78670 0.94969 -0.07000
C 	C 	0.71720 0.76040 0.94420 -0.08800
C 	C 	0.80087 0.87500 0.98814 -0.02500
C 	C 	0.76900 0.86260 0.98205 0.11100
C 	C 	0.73984 0.88597 0.97180 -0.13800
C 	C 	0.74584 0.91680 0.96923 0.05600
C 	C 	0.77949 0.92991 0.97567 -0.09500
C 	C 	0.80649 0.90924 0.98495 -0.00400
C 	C 	0.78569 0.96806 0.97152 0.36300
C 	C 	0.85329 0.84152 0.00555 0.03400
C 	C 	0.81988 0.84812 0.99641 -0.03900
C 	C 	0.79750 0.81750 0.99517 0.12300
C 	C 	0.81309 0.78619 0.00298 -0.18300
C 	C 	0.84378 0.78324 0.01096 0.10400
C 	C 	0.86763 0.81140 0.01312 -0.15300
C 	C 	0.90084 0.80711 0.02162 0.35700
C 	C 	0.47190 0.21489 0.53351 0.28100
C 	C 	0.41161 0.19254 0.53578 -0.00600
C 	C 	0.43666 0.21915 0.53405 -0.07200
C 	C 	0.42581 0.25439 0.53270 -0.00100
C 	C 	0.38700 0.26160 0.53285 -0.09800
C 	C 	0.36630 0.23020 0.53479 0.10100
C 	C 	0.37971 0.19826 0.53616 -0.03400
C 	C 	0.35183 0.17739 0.53789 -0.00700
C 	C 	0.32013 0.19919 0.53763 0.08300
C 	C 	0.28920 0.18630 0.53828 -0.11900
C 	C 	0.28250 0.15180 0.54015 0.02800
C 	C 	0.31170 0.13036 0.54083 -0.07800
C 	C 	0.34512 0.14322 0.53965 -0.02200
C 	C 	0.30735 0.09272 0.54232 0.34300
C 	C 	0.30949 0.25640 0.53132 0.11700
C 	C 	0.30980 0.27900 0.50550 -0.08800
C 	C 	0.28560 0.30360 0.50330 -0.08000
C 	C 	0.26142 0.30859 0.52271 0.09000
C 	C 	0.25899 0.28670 0.55031 -0.07000
C 	C 	0.28280 0.26040 0.55580 -0.08800
C 	C 	0.19913 0.37500 0.51186 -0.02500
C 	C 	0.23100 0.36260 0.51795 0.11100
C 	C 	0.26016 0.38597 0.52820 -0.13800
C 	C 	0.25416 0.41680 0.53077 0.05600
C 	C 	0.22051 0.42991 0.52433 -0.09500
C 	C 	0.19351 0.40924 0.51505 -0.00400
C 	C 	0.21431 0.46806 0.52848 0.36300
C 	C 	0.14671 0.34152 0.49445 0.03400
C 	C 	0.18012 0.34812 0.50359 -0.03900
C 	C 	0.20250 0.31750 0.50483 0.12300
C 	C 	0.18691 0.28619 0.49702 -0.18200
C 	C 	0.15622 0.28324 0.48904 0.10400
C 	C 	0.13237 0.31140 0.48688 -0.15300
C 	C 	0.09916 0.30711 0.47838 0.35700
C 	C 	0.02810 0.78511 0.03351 0.28100
C 	C 	0.08839 0.80746 0.03578 -0.00600
C 	C 	0.06334 0.78085 0.03405 -0.07200
C 	C 	0.07419 0.74561 0.03270 -0.00100
C 	C 	0.11300 0.73840 0.03285 -0.09800
C 	C 	0.13370 0.76980 0.03479 0.10100
C 	C 	0.12029 0.80174 0.03616 -0.03400
C 	C 	0.14817 0.82261 0.03789 -0.00700
C 	C 	0.17987 0.80081 0.03763 0.08300
C 	C 	0.21080 0.81370 0.03828 -0.11900
C 	C 	0.21750 0.84820 0.04015 0.02800
C 	C 	0.18830 0.86964 0.04083 -0.07800
C 	C 	0.15488 0.85678 0.03965 -0.02200
C 	C 	0.19265 0.90728 0.04232 0.34300
C 	C 	0.19051 0.74360 0.03132 0.11700
C 	C 	0.19020 0.72100 0.00550 -0.08800
C 	C 	0.21440 0.69640 0.00330 -0.08000
C 	C 	0.23858 0.69141 0.02271 0.09000
C 	C 	0.24101 0.71330 0.05031 -0.07000
C 	C 	0.21720 0.73960 0.05580 -0.08800
C 	C 	0.30087 0.62500 0.01186 -0.02500
C 	C 	0.26900 0.63740 0.01795 0.11100
C 	C 	0.23984 0.61403 0.02820 -0.13800
C 	C 	0.24584 0.58320 0.03077 0.05600
C 	C 	0.27949 0.57009 0.02433 -0.09500
C 	C 	0.30649 0.59076 0.01505 -0.00400
C 	C 	0.28569 0.53194 0.02848 0.36300
C 	C 	0.35329 0.65848 0.99445 0.03400
C 	C 	0.31988 0.65188 0.00359 -0.03900
C 	C 	0.29750 0.68250 0.00483 0.12300
C 	C 	0.31309 0.71381 0.99702 -0.18200
C 	C 	0.34378 0.71676 0.98904 0.10400
C 	C 	0.36763 0.68860 0.98688 -0.15300
C 	C 	0.40084 0.69289 0.97838 0.35700
C 	C 	0.97190 0.28511 0.46649 0.28100
C 	C 	0.91161 0.30746 0.46422 -0.00600
C 	C 	0.93666 0.28085 0.46595 -0.07200
C 	C 	0.92581 0.24561 0.46730 -0.00100
C 	C 	0.88700 0.23840 0.46715 -0.09800
C 	C 	0.86630 0.26980 0.46521 0.10100
C 	C 	0.87971 0.30174 0.46384 -0.03400
C 	C 	0.85183 0.32261 0.46211 -0.00700
C 	C 	0.82013 0.30081 0.46237 0.08300
C 	C 	0.78920 0.31370 0.46172 -0.11900
C 	C 	0.78250 0.34820 0.45985 0.02800
C 	C 	0.81170 0.36964 0.45917 -0.07800
C 	C 	0.84512 0.35678 0.46035 -0.02200
C 	C 	0.80735 0.40728 0.45768 0.34300
C 	C 	0.80949 0.24360 0.46868 0.11700
C 	C 	0.80980 0.22100 0.49450 -0.08800
C 	C 	0.78560 0.19640 0.49670 -0.08000
C 	C 	0.76142 0.19141 0.47729 0.09000
C 	C 	0.75899 0.21330 0.44969 -0.07000
C 	C 	0.78280 0.23960 0.44420 -0.08800
C 	C 	0.69913 0.12500 0.48814 -0.02500
C 	C 	0.73100 0.13740 0.48205 0.11100
C 	C 	0.76016 0.11403 0.47180 -0.13800
C 	C 	0.75416 0.08320 0.46923 0.05600
C 	C 	0.72051 0.07009 0.47567 -0.09500
C 	C 	0.69351 0.09076 0.48495 -0.00400
C 	C 	0.71431 0.03194 0.47152 0.36300
C 	C 	0.64671 0.15848 0.50555 0.03400
C 	C 	0.68012 0.15188 0.49641 -0.03900
C 	C 	0.70250 0.18250 0.49517 0.12300
C 	C 	0.68691 0.21381 0.50298 -0.18200
C 	C 	0.65622 0.21676 0.51096 0.10400
C 	C 	0.63237 0.18860 0.51312 -0.15300
C 	C 	0.59916 0.19289 0.52162 0.35700
C 	C 	0.03351 0.47190 0.28511 0.28100
C 	C 	0.03578 0.41161 0.30746 -0.00600
C 	C 	0.03405 0.43666 0.28085 -0.07200
C 	C 	0.03270 0.42581 0.24561 -0.00100
C 	C 	0.03285 0.38700 0.23840 -0.09800
C 	C 	0.03479 0.36630 0.26980 0.10100
C 	C 	0.03616 0.37971 0.30174 -0.03400
C 	C 	0.03789 0.35183 0.32261 -0.00700
C 	C 	0.03763 0.32013 0.30081 0.08300
C 	C 	0.03828 0.28920 0.31370 -0.11900
C 	C 	0.04015 0.28250 0.34820 0.02800
C 	C 	0.04083 0.31170 0.36964 -0.07800
C 	C 	0.03965 0.34512 0.35678 -0.02200
C 	C 	0.04232 0.30735 0.40728 0.34300
C 	C 	0.03132 0.30949 0.24360 0.11700
C 	C 	0.00550 0.30980 0.22100 -0.08800
C 	C 	0.00330 0.28560 0.19640 -0.08000
C 	C 	0.02271 0.26142 0.19141 0.09000
C 	C 	0.05031 0.25899 0.21330 -0.07000
C 	C 	0.05580 0.28280 0.23960 -0.08800
C 	C 	0.01186 0.19913 0.12500 -0.02500
C 	C 	0.01795 0.23100 0.13740 0.11100
C 	C 	0.02820 0.26016 0.11403 -0.13800
C 	C 	0.03077 0.25416 0.08320 0.05600
C 	C 	0.02433 0.22051 0.07009 -0.09500
C 	C 	0.01505 0.19351 0.09076 -0.00400
C 	C 	0.02848 0.21431 0.03194 0.36300
C 	C 	0.99445 0.14671 0.15848 0.03400
C 	C 	0.00359 0.18012 0.15188 -0.03900
C 	C 	0.00483 0.20250 0.18250 0.12300
C 	C 	0.99702 0.18691 0.21381 -0.18300
C 	C 	0.98904 0.15622 0.21676 0.10400
C 	C 	0.98688 0.13237 0.18860 -0.15300
C 	C 	0.97838 0.09916 0.19289 0.35700
C 	C 	0.46649 0.52810 0.78511 0.28100
C 	C 	0.46422 0.58839 0.80746 -0.00600
C 	C 	0.46595 0.56334 0.78085 -0.07200
C 	C 	0.46730 0.57419 0.74561 -0.00100
C 	C 	0.46715 0.61300 0.73840 -0.09800
C 	C 	0.46521 0.63370 0.76980 0.10100
C 	C 	0.46384 0.62029 0.80174 -0.03400
C 	C 	0.46211 0.64817 0.82261 -0.00700
C 	C 	0.46237 0.67987 0.80081 0.08300
C 	C 	0.46172 0.71080 0.81370 -0.11900
C 	C 	0.45985 0.71750 0.84820 0.02800
C 	C 	0.45917 0.68830 0.86964 -0.07800
C 	C 	0.46035 0.65488 0.85678 -0.02200
C 	C 	0.45768 0.69265 0.90728 0.34300
C 	C 	0.46868 0.69051 0.74360 0.11700
C 	C 	0.49450 0.69020 0.72100 -0.08800
C 	C 	0.49670 0.71440 0.69640 -0.08000
C 	C 	0.47729 0.73858 0.69141 0.09000
C 	C 	0.44969 0.74101 0.71330 -0.07000
C 	C 	0.44420 0.71720 0.73960 -0.08800
C 	C 	0.48814 0.80087 0.62500 -0.02500
C 	C 	0.48205 0.76900 0.63740 0.11100
C 	C 	0.47180 0.73984 0.61403 -0.13800
C 	C 	0.46923 0.74584 0.58320 0.05600
C 	C 	0.47567 0.77949 0.57009 -0.09500
C 	C 	0.48495 0.80649 0.59076 -0.00400
C 	C 	0.47152 0.78569 0.53194 0.36300
C 	C 	0.50555 0.85329 0.65848 0.03400
C 	C 	0.49641 0.81988 0.65188 -0.03900
C 	C 	0.49517 0.79750 0.68250 0.12300
C 	C 	0.50298 0.81309 0.71381 -0.18200
C 	C 	0.51096 0.84378 0.71676 0.10400
C 	C 	0.51312 0.86763 0.68860 -0.15300
C 	C 	0.52162 0.90084 0.69289 0.35700
C 	C 	0.96649 0.97190 0.21489 0.28100
C 	C 	0.96422 0.91161 0.19254 -0.00600
C 	C 	0.96595 0.93666 0.21915 -0.07200
C 	C 	0.96730 0.92581 0.25439 -0.00100
C 	C 	0.96715 0.88700 0.26160 -0.09800
C 	C 	0.96521 0.86630 0.23020 0.10100
C 	C 	0.96384 0.87971 0.19826 -0.03400
C 	C 	0.96211 0.85183 0.17739 -0.00700
C 	C 	0.96237 0.82013 0.19919 0.08300
C 	C 	0.96172 0.78920 0.18630 -0.11900
C 	C 	0.95985 0.78250 0.15180 0.02800
C 	C 	0.95917 0.81170 0.13036 -0.07800
C 	C 	0.96035 0.84512 0.14322 -0.02200
C 	C 	0.95768 0.80735 0.09272 0.34300
C 	C 	0.96868 0.80949 0.25640 0.11700
C 	C 	0.99450 0.80980 0.27900 -0.08800
C 	C 	0.99670 0.78560 0.30360 -0.08000
C 	C 	0.97729 0.76142 0.30859 0.09000
C 	C 	0.94969 0.75899 0.28670 -0.07000
C 	C 	0.94420 0.78280 0.26040 -0.08800
C 	C 	0.98814 0.69913 0.37500 -0.02500
C 	C 	0.98205 0.73100 0.36260 0.11100
C 	C 	0.97180 0.76016 0.38597 -0.13800
C 	C 	0.96923 0.75416 0.41680 0.05600
C 	C 	0.97567 0.72051 0.42991 -0.09500
C 	C 	0.98495 0.69351 0.40924 -0.00400
C 	C 	0.97152 0.71431 0.46806 0.36300
C 	C 	0.00555 0.64671 0.34152 0.03400
C 	C 	0.99641 0.68012 0.34812 -0.03900
C 	C 	0.99517 0.70250 0.31750 0.12300
C 	C 	0.00298 0.68691 0.28619 -0.18200
C 	C 	0.01096 0.65622 0.28324 0.10400
C 	C 	0.01312 0.63237 0.31140 -0.15300
C 	C 	0.02162 0.59916 0.30711 0.35700
C 	C 	0.53351 0.02810 0.71489 0.28100
C 	C 	0.53578 0.08839 0.69254 -0.00600
C 	C 	0.53405 0.06334 0.71915 -0.07200
C 	C 	0.53270 0.07419 0.75439 -0.00100
C 	C 	0.53285 0.11300 0.76160 -0.09800
C 	C 	0.53479 0.13370 0.73020 0.10100
C 	C 	0.53616 0.12029 0.69826 -0.03400
C 	C 	0.53789 0.14817 0.67739 -0.00700
C 	C 	0.53763 0.17987 0.69919 0.08300
C 	C 	0.53828 0.21080 0.68630 -0.11900
C 	C 	0.54015 0.21750 0.65180 0.02800
C 	C 	0.54083 0.18830 0.63036 -0.07800
C 	C 	0.53965 0.15488 0.64322 -0.02200
C 	C 	0.54232 0.19265 0.59272 0.34300
C 	C 	0.53132 0.19051 0.75640 0.11700
C 	C 	0.50550 0.19020 0.77900 -0.08800
C 	C 	0.50330 0.21440 0.80360 -0.08000
C 	C 	0.52271 0.23858 0.80859 0.09000
C 	C 	0.55031 0.24101 0.78670 -0.07000
C 	C 	0.55580 0.21720 0.76040 -0.08800
C 	C 	0.51186 0.30087 0.87500 -0.02500
C 	C 	0.51795 0.26900 0.86260 0.11100
C 	C 	0.52820 0.23984 0.88597 -0.13800
C 	C 	0.53077 0.24584 0.91680 0.05600
C 	C 	0.52433 0.27949 0.92991 -0.09500
C 	C 	0.51505 0.30649 0.90924 -0.00400
C 	C 	0.52848 0.28569 0.96806 0.36300
C 	C 	0.49445 0.35329 0.84152 0.03400
C 	C 	0.50359 0.31988 0.84812 -0.03900
C 	C 	0.50483 0.29750 0.81750 0.12300
C 	C 	0.49702 0.31309 0.78619 -0.18200
C 	C 	0.48904 0.34378 0.78324 0.10400
C 	C 	0.48688 0.36763 0.81140 -0.15300
C 	C 	0.47838 0.40084 0.80711 0.35700
C 	C 	0.28511 0.03351 0.47190 0.28100
C 	C 	0.30746 0.03578 0.41161 -0.00600
C 	C 	0.28085 0.03405 0.43666 -0.07200
C 	C 	0.24561 0.03270 0.42581 -0.00100
C 	C 	0.23840 0.03285 0.38700 -0.09800
C 	C 	0.26980 0.03479 0.36630 0.10100
C 	C 	0.30174 0.03616 0.37971 -0.03400
C 	C 	0.32261 0.03789 0.35183 -0.00700
C 	C 	0.30081 0.03763 0.32013 0.08300
C 	C 	0.31370 0.03828 0.28920 -0.11900
C 	C 	0.34820 0.04015 0.28250 0.02800
C 	C 	0.36964 0.04083 0.31170 -0.07800
C 	C 	0.35678 0.03965 0.34512 -0.02200
C 	C 	0.40728 0.04232 0.30735 0.34300
C 	C 	0.24360 0.03132 0.30949 0.11700
C 	C 	0.22100 0.00550 0.30980 -0.08800
C 	C 	0.19640 0.00330 0.28560 -0.08000
C 	C 	0.19141 0.02271 0.26142 0.09000
C 	C 	0.21330 0.05031 0.25899 -0.07000
C 	C 	0.23960 0.05580 0.28280 -0.08800
C 	C 	0.12500 0.01186 0.19913 -0.02500
C 	C 	0.13740 0.01795 0.23100 0.11100
C 	C 	0.11403 0.02820 0.26016 -0.13800
C 	C 	0.08320 0.03077 0.25416 0.05600
C 	C 	0.07009 0.02433 0.22051 -0.09500
C 	C 	0.09076 0.01505 0.19351 -0.00400
C 	C 	0.03194 0.02848 0.21431 0.36300
C 	C 	0.15848 0.99445 0.14671 0.03400
C 	C 	0.15188 0.00359 0.18012 -0.03900
C 	C 	0.18250 0.00483 0.20250 0.12300
C 	C 	0.21381 0.99702 0.18691 -0.18300
C 	C 	0.21676 0.98904 0.15622 0.10400
C 	C 	0.18860 0.98688 0.13237 -0.15300
C 	C 	0.19289 0.97838 0.09916 0.35700
C 	C 	0.78511 0.46649 0.52810 0.28100
C 	C 	0.80746 0.46422 0.58839 -0.00600
C 	C 	0.78085 0.46595 0.56334 -0.07200
C 	C 	0.74561 0.46730 0.57419 -0.00100
C 	C 	0.73840 0.46715 0.61300 -0.09800
C 	C 	0.76980 0.46521 0.63370 0.10100
C 	C 	0.80174 0.46384 0.62029 -0.03400
C 	C 	0.82261 0.46211 0.64817 -0.00700
C 	C 	0.80081 0.46237 0.67987 0.08300
C 	C 	0.81370 0.46172 0.71080 -0.11900
C 	C 	0.84820 0.45985 0.71750 0.02800
C 	C 	0.86964 0.45917 0.68830 -0.07800
C 	C 	0.85678 0.46035 0.65488 -0.02200
C 	C 	0.90728 0.45768 0.69265 0.34300
C 	C 	0.74360 0.46868 0.69051 0.11700
C 	C 	0.72100 0.49450 0.69020 -0.08800
C 	C 	0.69640 0.49670 0.71440 -0.08000
C 	C 	0.69141 0.47729 0.73858 0.09000
C 	C 	0.71330 0.44969 0.74101 -0.07000
C 	C 	0.73960 0.44420 0.71720 -0.08800
C 	C 	0.62500 0.48814 0.80087 -0.02500
C 	C 	0.63740 0.48205 0.76900 0.11100
C 	C 	0.61403 0.47180 0.73984 -0.13800
C 	C 	0.58320 0.46923 0.74584 0.05600
C 	C 	0.57009 0.47567 0.77949 -0.09500
C 	C 	0.59076 0.48495 0.80649 -0.00400
C 	C 	0.53194 0.47152 0.78569 0.36300
C 	C 	0.65848 0.50555 0.85329 0.03400
C 	C 	0.65188 0.49641 0.81988 -0.03900
C 	C 	0.68250 0.49517 0.79750 0.12300
C 	C 	0.71381 0.50298 0.81309 -0.18200
C 	C 	0.71676 0.51096 0.84378 0.10400
C 	C 	0.68860 0.51312 0.86763 -0.15300
C 	C 	0.69289 0.52162 0.90084 0.35700
C 	C 	0.21489 0.96649 0.97190 0.28100
C 	C 	0.19254 0.96422 0.91161 -0.00600
C 	C 	0.21915 0.96595 0.93666 -0.07200
C 	C 	0.25439 0.96730 0.92581 -0.00100
C 	C 	0.26160 0.96715 0.88700 -0.09800
C 	C 	0.23020 0.96521 0.86630 0.10100
C 	C 	0.19826 0.96384 0.87971 -0.03400
C 	C 	0.17739 0.96211 0.85183 -0.00700
C 	C 	0.19919 0.96237 0.82013 0.08300
C 	C 	0.18630 0.96172 0.78920 -0.11900
C 	C 	0.15180 0.95985 0.78250 0.02800
C 	C 	0.13036 0.95917 0.81170 -0.07800
C 	C 	0.14322 0.96035 0.84512 -0.02200
C 	C 	0.09272 0.95768 0.80735 0.34300
C 	C 	0.25640 0.96868 0.80949 0.11700
C 	C 	0.27900 0.99450 0.80980 -0.08800
C 	C 	0.30360 0.99670 0.78560 -0.08000
C 	C 	0.30859 0.97729 0.76142 0.09000
C 	C 	0.28670 0.94969 0.75899 -0.07000
C 	C 	0.26040 0.94420 0.78280 -0.08800
C 	C 	0.37500 0.98814 0.69913 -0.02500
C 	C 	0.36260 0.98205 0.73100 0.11100
C 	C 	0.38597 0.97180 0.76016 -0.13800
C 	C 	0.41680 0.96923 0.75416 0.05600
C 	C 	0.42991 0.97567 0.72051 -0.09500
C 	C 	0.40924 0.98495 0.69351 -0.00400
C 	C 	0.46806 0.97152 0.71431 0.36300
C 	C 	0.34152 0.00555 0.64671 0.03400
C 	C 	0.34812 0.99641 0.68012 -0.03900
C 	C 	0.31750 0.99517 0.70250 0.12300
C 	C 	0.28619 0.00298 0.68691 -0.18200
C 	C 	0.28324 0.01096 0.65622 0.10400
C 	C 	0.31140 0.01312 0.63237 -0.15300
C 	C 	0.30711 0.02162 0.59916 0.35700
C 	C 	0.71489 0.53351 0.02810 0.28100
C 	C 	0.69254 0.53578 0.08839 -0.00600
C 	C 	0.71915 0.53405 0.06334 -0.07200
C 	C 	0.75439 0.53270 0.07419 -0.00100
C 	C 	0.76160 0.53285 0.11300 -0.09800
C 	C 	0.73020 0.53479 0.13370 0.10100
C 	C 	0.69826 0.53616 0.12029 -0.03400
C 	C 	0.67739 0.53789 0.14817 -0.00700
C 	C 	0.69919 0.53763 0.17987 0.08300
C 	C 	0.68630 0.53828 0.21080 -0.11900
C 	C 	0.65180 0.54015 0.21750 0.02800
C 	C 	0.63036 0.54083 0.18830 -0.07800
C 	C 	0.64322 0.53965 0.15488 -0.02200
C 	C 	0.59272 0.54232 0.19265 0.34300
C 	C 	0.75640 0.53132 0.19051 0.11700
C 	C 	0.77900 0.50550 0.19020 -0.08800
C 	C 	0.80360 0.50330 0.21440 -0.08000
C 	C 	0.80859 0.52271 0.23858 0.09000
C 	C 	0.78670 0.55031 0.24101 -0.07000
C 	C 	0.76040 0.55580 0.21720 -0.08800
C 	C 	0.87500 0.51186 0.30087 -0.02500
C 	C 	0.86260 0.51795 0.26900 0.11100
C 	C 	0.88597 0.52820 0.23984 -0.13800
C 	C 	0.91680 0.53077 0.24584 0.05600
C 	C 	0.92991 0.52433 0.27949 -0.09500
C 	C 	0.90924 0.51505 0.30649 -0.00400
C 	C 	0.96806 0.52848 0.28569 0.36300
C 	C 	0.84152 0.49445 0.35329 0.03400
C 	C 	0.84812 0.50359 0.31988 -0.03900
C 	C 	0.81750 0.50483 0.29750 0.12300
C 	C 	0.78619 0.49702 0.31309 -0.18200
C 	C 	0.78324 0.48904 0.34378 0.10400
C 	C 	0.81140 0.48688 0.36763 -0.15300
C 	C 	0.80711 0.47838 0.40084 0.35700
C 	C 	0.47190 0.28511 0.03351 0.28100
C 	C 	0.41161 0.30746 0.03578 -0.00600
C 	C 	0.43666 0.28085 0.03405 -0.07200
C 	C 	0.42581 0.24561 0.03270 -0.00100
C 	C 	0.38700 0.23840 0.03285 -0.09800
C 	C 	0.36630 0.26980 0.03479 0.10100
C 	C 	0.37971 0.30174 0.03616 -0.03400
C 	C 	0.35183 0.32261 0.03789 -0.00700
C 	C 	0.32013 0.30081 0.03763 0.08300
C 	C 	0.28920 0.31370 0.03828 -0.11900
C 	C 	0.28250 0.34820 0.04015 0.02800
C 	C 	0.31170 0.36964 0.04083 -0.07800
C 	C 	0.34512 0.35678 0.03965 -0.02200
C 	C 	0.30735 0.40728 0.04232 0.34300
C 	C 	0.30949 0.24360 0.03132 0.11700
C 	C 	0.30980 0.22100 0.00550 -0.08800
C 	C 	0.28560 0.19640 0.00330 -0.08000
C 	C 	0.26142 0.19141 0.02271 0.09000
C 	C 	0.25899 0.21330 0.05031 -0.07000
C 	C 	0.28280 0.23960 0.05580 -0.08800
C 	C 	0.19913 0.12500 0.01186 -0.02500
C 	C 	0.23100 0.13740 0.01795 0.11100
C 	C 	0.26016 0.11403 0.02820 -0.13800
C 	C 	0.25416 0.08320 0.03077 0.05600
C 	C 	0.22051 0.07009 0.02433 -0.09500
C 	C 	0.19351 0.09076 0.01505 -0.00400
C 	C 	0.21431 0.03194 0.02848 0.36300
C 	C 	0.14671 0.15848 0.99445 0.03400
C 	C 	0.18012 0.15188 0.00359 -0.03900
C 	C 	0.20250 0.18250 0.00483 0.12300
C 	C 	0.18691 0.21381 0.99702 -0.18300
C 	C 	0.15622 0.21676 0.98904 0.10400
C 	C 	0.13237 0.18860 0.98688 -0.15300
C 	C 	0.09916 0.19289 0.97838 0.35700
C 	C 	0.52810 0.78511 0.46649 0.28100
C 	C 	0.58839 0.80746 0.46422 -0.00600
C 	C 	0.56334 0.78085 0.46595 -0.07200
C 	C 	0.57419 0.74561 0.46730 -0.00100
C 	C 	0.61300 0.73840 0.46715 -0.09800
C 	C 	0.63370 0.76980 0.46521 0.10100
C 	C 	0.62029 0.80174 0.46384 -0.03400
C 	C 	0.64817 0.82261 0.46211 -0.00700
C 	C 	0.67987 0.80081 0.46237 0.08300
C 	C 	0.71080 0.81370 0.46172 -0.11900
C 	C 	0.71750 0.84820 0.45985 0.02800
C 	C 	0.68830 0.86964 0.45917 -0.07800
C 	C 	0.65488 0.85678 0.46035 -0.02200
C 	C 	0.69265 0.90728 0.45768 0.34300
C 	C 	0.69051 0.74360 0.46868 0.11700
C 	C 	0.69020 0.72100 0.49450 -0.08800
C 	C 	0.71440 0.69640 0.49670 -0.08000
C 	C 	0.73858 0.69141 0.47729 0.09000
C 	C 	0.74101 0.71330 0.44969 -0.07000
C 	C 	0.71720 0.73960 0.44420 -0.08800
C 	C 	0.80087 0.62500 0.48814 -0.02500
C 	C 	0.76900 0.63740 0.48205 0.11100
C 	C 	0.73984 0.61403 0.47180 -0.13800
C 	C 	0.74584 0.58320 0.46923 0.05600
C 	C 	0.77949 0.57009 0.47567 -0.09500
C 	C 	0.80649 0.59076 0.48495 -0.00400
C 	C 	0.78569 0.53194 0.47152 0.36300
C 	C 	0.85329 0.65848 0.50555 0.03400
C 	C 	0.81988 0.65188 0.49641 -0.03900
C 	C 	0.79750 0.68250 0.49517 0.12300
C 	C 	0.81309 0.71381 0.50298 -0.18200
C 	C 	0.84378 0.71676 0.51096 0.10400
C 	C 	0.86763 0.68860 0.51312 -0.15300
C 	C 	0.90084 0.69289 0.52162 0.35700
C 	C 	0.97190 0.21489 0.96649 0.28100
C 	C 	0.91161 0.19254 0.96422 -0.00600
C 	C 	0.93666 0.21915 0.96595 -0.07200
C 	C 	0.92581 0.25439 0.96730 -0.00100
C 	C 	0.88700 0.26160 0.96715 -0.09800
C 	C 	0.86630 0.23020 0.96521 0.10100
C 	C 	0.87971 0.19826 0.96384 -0.03400
C 	C 	0.85183 0.17739 0.96211 -0.00700
C 	C 	0.82013 0.19919 0.96237 0.08300
C 	C 	0.78920 0.18630 0.96172 -0.11900
C 	C 	0.78250 0.15180 0.95985 0.02800
C 	C 	0.81170 0.13036 0.95917 -0.07800
C 	C 	0.84512 0.14322 0.96035 -0.02200
C 	C 	0.80735 0.09272 0.95768 0.34300
C 	C 	0.80949 0.25640 0.96868 0.11700
C 	C 	0.80980 0.27900 0.99450 -0.08800
C 	C 	0.78560 0.30360 0.99670 -0.08000
C 	C 	0.76142 0.30859 0.97729 0.09000
C 	C 	0.75899 0.28670 0.94969 -0.07000
C 	C 	0.78280 0.26040 0.94420 -0.08800
C 	C 	0.69913 0.37500 0.98814 -0.02500
C 	C 	0.73100 0.36260 0.98205 0.11100
C 	C 	0.76016 0.38597 0.97180 -0.13800
C 	C 	0.75416 0.41680 0.96923 0.05600
C 	C 	0.72051 0.42991 0.97567 -0.09500
C 	C 	0.69351 0.40924 0.98495 -0.00400
C 	C 	0.71431 0.46806 0.97152 0.36300
C 	C 	0.64671 0.34152 0.00555 0.03400
C 	C 	0.68012 0.34812 0.99641 -0.03900
C 	C 	0.70250 0.31750 0.99517 0.12300
C 	C 	0.68691 0.28619 0.00298 -0.18200
C 	C 	0.65622 0.28324 0.01096 0.10400
C 	C 	0.63237 0.31140 0.01312 -0.15300
C 	C 	0.59916 0.30711 0.02162 0.35700
C 	C 	0.02810 0.71489 0.53351 0.28100
C 	C 	0.08839 0.69254 0.53578 -0.00600
C 	C 	0.06334 0.71915 0.53405 -0.07200
C 	C 	0.07419 0.75439 0.53270 -0.00100
C 	C 	0.11300 0.76160 0.53285 -0.09800
C 	C 	0.13370 0.73020 0.53479 0.10100
C 	C 	0.12029 0.69826 0.53616 -0.03400
C 	C 	0.14817 0.67739 0.53789 -0.00700
C 	C 	0.17987 0.69919 0.53763 0.08300
C 	C 	0.21080 0.68630 0.53828 -0.11900
C 	C 	0.21750 0.65180 0.54015 0.02800
C 	C 	0.18830 0.63036 0.54083 -0.07800
C 	C 	0.15488 0.64322 0.53965 -0.02200
C 	C 	0.19265 0.59272 0.54232 0.34300
C 	C 	0.19051 0.75640 0.53132 0.11700
C 	C 	0.19020 0.77900 0.50550 -0.08800
C 	C 	0.21440 0.80360 0.50330 -0.08000
C 	C 	0.23858 0.80859 0.52271 0.09000
C 	C 	0.24101 0.78670 0.55031 -0.07000
C 	C 	0.21720 0.76040 0.55580 -0.08800
C 	C 	0.30087 0.87500 0.51186 -0.02500
C 	C 	0.26900 0.86260 0.51795 0.11100
C 	C 	0.23984 0.88597 0.52820 -0.13800
C 	C 	0.24584 0.91680 0.53077 0.05600
C 	C 	0.27949 0.92991 0.52433 -0.09500
C 	C 	0.30649 0.90924 0.51505 -0.00400
C 	C 	0.28569 0.96806 0.52848 0.36300
C 	C 	0.35329 0.84152 0.49445 0.03400
C 	C 	0.31988 0.84812 0.50359 -0.03900
C 	C 	0.29750 0.81750 0.50483 0.12300
C 	C 	0.31309 0.78619 0.49702 -0.18200
C 	C 	0.34378 0.78324 0.48904 0.10400
C 	C 	0.36763 0.81140 0.48688 -0.15300
C 	C 	0.40084 0.80711 0.47838 0.35700
N 	N 	0.96401 0.66695 0.73419 -0.16300
N 	N 	0.98597 0.76770 0.83060 -0.16700
N 	N 	0.53599 0.33305 0.23419 -0.16300
N 	N 	0.51403 0.23230 0.33060 -0.16700
N 	N 	0.03599 0.16695 0.76581 -0.16300
N 	N 	0.01403 0.26770 0.66940 -0.16700
N 	N 	0.46401 0.83305 0.26581 -0.16300
N 	N 	0.48597 0.73230 0.16940 -0.16700
N 	N 	0.73419 0.96401 0.66695 -0.16300
N 	N 	0.83060 0.98597 0.76770 -0.16700
N 	N 	0.23419 0.53599 0.33305 -0.16300
N 	N 	0.33060 0.51403 0.23230 -0.16700
N 	N 	0.76581 0.03599 0.16695 -0.16300
N 	N 	0.66940 0.01403 0.26770 -0.16700
N 	N 	0.26581 0.46401 0.83305 -0.16300
N 	N 	0.16940 0.48597 0.73230 -0.16700
N 	N 	0.66695 0.73419 0.96401 -0.16300
N 	N 	0.76770 0.83060 0.98597 -0.16700
N 	N 	0.33305 0.23419 0.53599 -0.16300
N 	N 	0.23230 0.33060 0.51403 -0.16700
N 	N 	0.16695 0.76581 0.03599 -0.16300
N 	N 	0.26770 0.66940 0.01403 -0.16700
N 	N 	0.83305 0.26581 0.46401 -0.16300
N 	N 	0.73230 0.16940 0.48597 -0.16700
N 	N 	0.03599 0.33305 0.26581 -0.16300
N 	N 	0.01403 0.23230 0.16940 -0.16700
N 	N 	0.46401 0.66695 0.76581 -0.16300
N 	N 	0.48597 0.76770 0.66940 -0.16700
N 	N 	0.96401 0.83305 0.23419 -0.16300
N 	N 	0.98597 0.73230 0.33060 -0.16700
N 	N 	0.53599 0.16695 0.73419 -0.16300
N 	N 	0.51403 0.26770 0.83060 -0.16700
N 	N 	0.26581 0.03599 0.33305 -0.16300
N 	N 	0.16940 0.01403 0.23230 -0.16700
N 	N 	0.76581 0.46401 0.66695 -0.16300
N 	N 	0.66940 0.48597 0.76770 -0.16700
N 	N 	0.23419 0.96401 0.83305 -0.16300
N 	N 	0.33060 0.98597 0.73230 -0.16700
N 	N 	0.73419 0.53599 0.16695 -0.16300
N 	N 	0.83060 0.51403 0.26770 -0.16700
N 	N 	0.33305 0.26581 0.03599 -0.16300
N 	N 	0.23230 0.16940 0.01403 -0.16700
N 	N 	0.66695 0.76581 0.46401 -0.16300
N 	N 	0.76770 0.66940 0.48597 -0.16700
N 	N 	0.83305 0.23419 0.96401 -0.16300
N 	N 	0.73230 0.33060 0.98597 -0.16700
N 	N 	0.16695 0.73419 0.53599 -0.16300
N 	N 	0.26770 0.83060 0.51403 -0.16700
O 	O 	0.96632 0.51852 0.68225 -0.36500
O 	O 	0.96502 0.50639 0.74095 -0.38400
O 	O 	0.96243 0.66682 0.57405 -0.40000
O 	O 	0.96020 0.72303 0.58284 -0.40300
O 	O 	0.96194 0.76052 0.98638 -0.40200
O 	O 	0.97632 0.81440 0.97896 -0.41900
O 	O 	0.01582 0.92134 0.83131 -0.39100
O 	O 	0.03374 0.91267 0.77783 -0.39900
O 	O 	0.53368 0.48148 0.18225 -0.36500
O 	O 	0.53498 0.49361 0.24095 -0.38400
O 	O 	0.53757 0.33318 0.07405 -0.40000
O 	O 	0.53980 0.27697 0.08284 -0.40300
O 	O 	0.53806 0.23948 0.48638 -0.40200
O 	O 	0.52368 0.18560 0.47896 -0.41900
O 	O 	0.48418 0.07866 0.33131 -0.39100
O 	O 	0.46626 0.08733 0.27783 -0.39900
O 	O 	0.03368 0.01852 0.81775 -0.36500
O 	O 	0.03498 0.00639 0.75905 -0.38400
O 	O 	0.03757 0.16682 0.92595 -0.40000
O 	O 	0.03980 0.22303 0.91716 -0.40300
O 	O 	0.03806 0.26052 0.51362 -0.40200
O 	O 	0.02368 0.31440 0.52104 -0.41900
O 	O 	0.98418 0.42134 0.66869 -0.39100
O 	O 	0.96626 0.41267 0.72217 -0.39900
O 	O 	0.46632 0.98148 0.31775 -0.36500
O 	O 	0.46502 0.99361 0.25905 -0.38400
O 	O 	0.46243 0.83318 0.42595 -0.40000
O 	O 	0.46020 0.77697 0.41716 -0.40300
O 	O 	0.46194 0.73948 0.01362 -0.40200
O 	O 	0.47632 0.68560 0.02104 -0.41900
O 	O 	0.51582 0.57866 0.16869 -0.39100
O 	O 	0.53374 0.58733 0.22217 -0.39900
O 	O 	0.68225 0.96632 0.51852 -0.36500
O 	O 	0.74095 0.96502 0.50639 -0.38400
O 	O 	0.57405 0.96243 0.66682 -0.40000
O 	O 	0.58284 0.96020 0.72303 -0.40300
O 	O 	0.98638 0.96194 0.76052 -0.40200
O 	O 	0.97896 0.97632 0.81440 -0.41900
O 	O 	0.83131 0.01582 0.92134 -0.39100
O 	O 	0.77783 0.03374 0.91267 -0.39900
O 	O 	0.18225 0.53368 0.48148 -0.36500
O 	O 	0.24095 0.53498 0.49361 -0.38400
O 	O 	0.07405 0.53757 0.33318 -0.40000
O 	O 	0.08284 0.53980 0.27697 -0.40300
O 	O 	0.48638 0.53806 0.23948 -0.40200
O 	O 	0.47896 0.52368 0.18560 -0.41900
O 	O 	0.33131 0.48418 0.07866 -0.39100
O 	O 	0.27783 0.46626 0.08733 -0.39900
O 	O 	0.81775 0.03368 0.01852 -0.36500
O 	O 	0.75905 0.03498 0.00639 -0.38400
O 	O 	0.92595 0.03757 0.16682 -0.40000
O 	O 	0.91716 0.03980 0.22303 -0.40300
O 	O 	0.51362 0.03806 0.26052 -0.40200
O 	O 	0.52104 0.02368 0.31440 -0.41900
O 	O 	0.66869 0.98418 0.42134 -0.39100
O 	O 	0.72217 0.96626 0.41267 -0.39900
O 	O 	0.31775 0.46632 0.98148 -0.36500
O 	O 	0.25905 0.46502 0.99361 -0.38400
O 	O 	0.42595 0.46243 0.83318 -0.40000
O 	O 	0.41716 0.46020 0.77697 -0.40300
O 	O 	0.01362 0.46194 0.73948 -0.40200
O 	O 	0.02104 0.47632 0.68560 -0.41900
O 	O 	0.16869 0.51582 0.57866 -0.39100
O 	O 	0.22217 0.53374 0.58733 -0.39900
O 	O 	0.51852 0.68225 0.96632 -0.36500
O 	O 	0.50639 0.74095 0.96502 -0.38400
O 	O 	0.66682 0.57405 0.96243 -0.40000
O 	O 	0.72303 0.58284 0.96020 -0.40300
O 	O 	0.76052 0.98638 0.96194 -0.40200
O 	O 	0.81440 0.97896 0.97632 -0.41900
O 	O 	0.92134 0.83131 0.01582 -0.39100
O 	O 	0.91267 0.77783 0.03374 -0.39900
O 	O 	0.48148 0.18225 0.53368 -0.36500
O 	O 	0.49361 0.24095 0.53498 -0.38400
O 	O 	0.33318 0.07405 0.53757 -0.40000
O 	O 	0.27697 0.08284 0.53980 -0.40300
O 	O 	0.23948 0.48638 0.53806 -0.40200
O 	O 	0.18560 0.47896 0.52368 -0.41900
O 	O 	0.07866 0.33131 0.48418 -0.39100
O 	O 	0.08733 0.27783 0.46626 -0.39900
O 	O 	0.01852 0.81775 0.03368 -0.36500
O 	O 	0.00639 0.75905 0.03498 -0.38400
O 	O 	0.16682 0.92595 0.03757 -0.40000
O 	O 	0.22303 0.91716 0.03980 -0.40300
O 	O 	0.26052 0.51362 0.03806 -0.40200
O 	O 	0.31440 0.52104 0.02368 -0.41900
O 	O 	0.42134 0.66869 0.98418 -0.39100
O 	O 	0.41267 0.72217 0.96626 -0.39900
O 	O 	0.98148 0.31775 0.46632 -0.36500
O 	O 	0.99361 0.25905 0.46502 -0.38400
O 	O 	0.83318 0.42595 0.46243 -0.40000
O 	O 	0.77697 0.41716 0.46020 -0.40300
O 	O 	0.73948 0.01362 0.46194 -0.40200
O 	O 	0.68560 0.02104 0.47632 -0.41900
O 	O 	0.57866 0.16869 0.51582 -0.39100
O 	O 	0.58733 0.22217 0.53374 -0.39900
O 	O 	0.03368 0.48148 0.31775 -0.36500
O 	O 	0.03498 0.49361 0.25905 -0.38400
O 	O 	0.03757 0.33318 0.42595 -0.40000
O 	O 	0.03980 0.27697 0.41716 -0.40300
O 	O 	0.03806 0.23948 0.01362 -0.40200
O 	O 	0.02368 0.18560 0.02104 -0.41900
O 	O 	0.98418 0.07866 0.16869 -0.39100
O 	O 	0.96626 0.08733 0.22217 -0.39900
O 	O 	0.46632 0.51852 0.81775 -0.36500
O 	O 	0.46502 0.50639 0.75905 -0.38400
O 	O 	0.46243 0.66682 0.92595 -0.40000
O 	O 	0.46020 0.72303 0.91716 -0.40300
O 	O 	0.46194 0.76052 0.51362 -0.40200
O 	O 	0.47632 0.81440 0.52104 -0.41900
O 	O 	0.51582 0.92134 0.66869 -0.39100
O 	O 	0.53374 0.91267 0.72217 -0.39900
O 	O 	0.96632 0.98148 0.18225 -0.36500
O 	O 	0.96502 0.99361 0.24095 -0.38400
O 	O 	0.96243 0.83318 0.07405 -0.40000
O 	O 	0.96020 0.77697 0.08284 -0.40300
O 	O 	0.96194 0.73948 0.48638 -0.40200
O 	O 	0.97632 0.68560 0.47896 -0.41900
O 	O 	0.01582 0.57866 0.33131 -0.39100
O 	O 	0.03374 0.58733 0.27783 -0.39900
O 	O 	0.53368 0.01852 0.68225 -0.36500
O 	O 	0.53498 0.00639 0.74095 -0.38400
O 	O 	0.53757 0.16682 0.57405 -0.40000
O 	O 	0.53980 0.22303 0.58284 -0.40300
O 	O 	0.53806 0.26052 0.98638 -0.40200
O 	O 	0.52368 0.31440 0.97896 -0.41900
O 	O 	0.48418 0.42134 0.83131 -0.39100
O 	O 	0.46626 0.41267 0.77783 -0.39900
O 	O 	0.31775 0.03368 0.48148 -0.36500
O 	O 	0.25905 0.03498 0.49361 -0.38400
O 	O 	0.42595 0.03757 0.33318 -0.40000
O 	O 	0.41716 0.03980 0.27697 -0.40300
O 	O 	0.01362 0.03806 0.23948 -0.40200
O 	O 	0.02104 0.02368 0.18560 -0.41900
O 	O 	0.16869 0.98418 0.07866 -0.39100
O 	O 	0.22217 0.96626 0.08733 -0.39900
O 	O 	0.81775 0.46632 0.51852 -0.36500
O 	O 	0.75905 0.46502 0.50639 -0.38400
O 	O 	0.92595 0.46243 0.66682 -0.40000
O 	O 	0.91716 0.46020 0.72303 -0.40300
O 	O 	0.51362 0.46194 0.76052 -0.40200
O 	O 	0.52104 0.47632 0.81440 -0.41900
O 	O 	0.66869 0.51582 0.92134 -0.39100
O 	O 	0.72217 0.53374 0.91267 -0.39900
O 	O 	0.18225 0.96632 0.98148 -0.36500
O 	O 	0.24095 0.96502 0.99361 -0.38400
O 	O 	0.07405 0.96243 0.83318 -0.40000
O 	O 	0.08284 0.96020 0.77697 -0.40300
O 	O 	0.48638 0.96194 0.73948 -0.40200
O 	O 	0.47896 0.97632 0.68560 -0.41900
O 	O 	0.33131 0.01582 0.57866 -0.39100
O 	O 	0.27783 0.03374 0.58733 -0.39900
O 	O 	0.68225 0.53368 0.01852 -0.36500
O 	O 	0.74095 0.53498 0.00639 -0.38400
O 	O 	0.57405 0.53757 0.16682 -0.40000
O 	O 	0.58284 0.53980 0.22303 -0.40300
O 	O 	0.98638 0.53806 0.26052 -0.40200
O 	O 	0.97896 0.52368 0.31440 -0.41900
O 	O 	0.83131 0.48418 0.42134 -0.39100
O 	O 	0.77783 0.46626 0.41267 -0.39900
O 	O 	0.48148 0.31775 0.03368 -0.36500
O 	O 	0.49361 0.25905 0.03498 -0.38400
O 	O 	0.33318 0.42595 0.03757 -0.40000
O 	O 	0.27697 0.41716 0.03980 -0.40300
O 	O 	0.23948 0.01362 0.03806 -0.40200
O 	O 	0.18560 0.02104 0.02368 -0.41900
O 	O 	0.07866 0.16869 0.98418 -0.39100
O 	O 	0.08733 0.22217 0.96626 -0.39900
O 	O 	0.51852 0.81775 0.46632 -0.36500
O 	O 	0.50639 0.75905 0.46502 -0.38400
O 	O 	0.66682 0.92595 0.46243 -0.40000
O 	O 	0.72303 0.91716 0.46020 -0.40300
O 	O 	0.76052 0.51362 0.46194 -0.40200
O 	O 	0.81440 0.52104 0.47632 -0.41900
O 	O 	0.92134 0.66869 0.51582 -0.39100
O 	O 	0.91267 0.72217 0.53374 -0.39900
O 	O 	0.98148 0.18225 0.96632 -0.36500
O 	O 	0.99361 0.24095 0.96502 -0.38400
O 	O 	0.83318 0.07405 0.96243 -0.40000
O 	O 	0.77697 0.08284 0.96020 -0.40300
O 	O 	0.73948 0.48638 0.96194 -0.40200
O 	O 	0.68560 0.47896 0.97632 -0.41900
O 	O 	0.57866 0.33131 0.01582 -0.39100
O 	O 	0.58733 0.27783 0.03374 -0.39900
O 	O 	0.01852 0.68225 0.53368 -0.36500
O 	O 	0.00639 0.74095 0.53498 -0.38400
O 	O 	0.16682 0.57405 0.53757 -0.40000
O 	O 	0.22303 0.58284 0.53980 -0.40300
O 	O 	0.26052 0.98638 0.53806 -0.40200
O 	O 	0.31440 0.97896 0.52368 -0.41900
O 	O 	0.42134 0.83131 0.48418 -0.39100
O 	O 	0.41267 0.77783 0.46626 -0.39900
