data_crystal

_cell_length_a 40.02600
_cell_length_b 40.02600
_cell_length_c 40.02600
_cell_angle_alpha 90.00000
_cell_angle_beta  90.00000
_cell_angle_gamma 90.00000

_symmetry_space_group_name_	'P 1'
_symmetry_space_group_name_H-M	'P 1'

loop_
_symmetry_equiv_pos_as_xyz
  x,y,z

loop_
_atom_site_label
_atom_site_type_symbol
_atom_site_fract_x
_atom_site_fract_y
_atom_site_fract_z
_atom_site_charge
O 	O 	0.94430 0.75280 0.79350 -0.13500
C 	C 	0.94510 0.72830 0.81620 -0.10500
H 	H 	0.93310 0.70880 0.80770 0.05500
H 	H 	0.93450 0.73610 0.83690 0.07500
H 	H 	0.96840 0.72220 0.82080 0.05700
C 	C 	0.97120 0.75200 0.77300 0.06200
O 	O 	0.94430 0.25280 0.29350 -0.13500
C 	C 	0.94510 0.22830 0.31620 -0.10400
H 	H 	0.93310 0.20880 0.30770 0.05500
H 	H 	0.93450 0.23610 0.33690 0.07500
H 	H 	0.96840 0.22220 0.32080 0.05600
C 	C 	0.97120 0.25200 0.27300 0.06200
O 	O 	0.44430 0.75280 0.29350 -0.13600
C 	C 	0.44510 0.72830 0.31620 -0.10100
H 	H 	0.43310 0.70880 0.30770 0.05400
H 	H 	0.43450 0.73610 0.33690 0.07300
H 	H 	0.46840 0.72220 0.32080 0.05300
C 	C 	0.47120 0.75200 0.27300 0.05900
O 	O 	0.44430 0.25280 0.79350 -0.13600
C 	C 	0.44510 0.22830 0.81620 -0.10200
H 	H 	0.43310 0.20880 0.80770 0.05400
H 	H 	0.43450 0.23610 0.83690 0.07300
H 	H 	0.46840 0.22220 0.82080 0.05400
C 	C 	0.47120 0.25200 0.77300 0.05900
O 	O 	0.05570 0.24720 0.79350 -0.13600
C 	C 	0.05490 0.27170 0.81620 -0.10100
H 	H 	0.06690 0.29120 0.80770 0.05400
H 	H 	0.06550 0.26390 0.83690 0.07300
H 	H 	0.03160 0.27780 0.82080 0.05300
C 	C 	0.02880 0.24800 0.77300 0.05900
O 	O 	0.05570 0.74720 0.29350 -0.13700
C 	C 	0.05490 0.77170 0.31620 -0.10000
H 	H 	0.06690 0.79120 0.30770 0.05300
H 	H 	0.06550 0.76390 0.33690 0.07300
H 	H 	0.03160 0.77780 0.32080 0.05300
C 	C 	0.02880 0.74800 0.27300 0.06000
O 	O 	0.55570 0.24720 0.29350 -0.13600
C 	C 	0.55490 0.27170 0.31620 -0.10100
H 	H 	0.56690 0.29120 0.30770 0.05400
H 	H 	0.56550 0.26390 0.33690 0.07300
H 	H 	0.53160 0.27780 0.32080 0.05300
C 	C 	0.52880 0.24800 0.27300 0.05900
O 	O 	0.55570 0.74720 0.79350 -0.13600
C 	C 	0.55490 0.77170 0.81620 -0.10200
H 	H 	0.56690 0.79120 0.80770 0.05400
H 	H 	0.56550 0.76390 0.83690 0.07400
H 	H 	0.53160 0.77780 0.82080 0.05500
C 	C 	0.52880 0.74800 0.77300 0.06000
O 	O 	0.05570 0.75280 0.20650 -0.13600
C 	C 	0.05490 0.72830 0.18380 -0.09900
H 	H 	0.06690 0.70880 0.19230 0.05400
H 	H 	0.06550 0.73610 0.16310 0.07300
H 	H 	0.03160 0.72220 0.17920 0.05300
C 	C 	0.02880 0.75200 0.22700 0.06100
O 	O 	0.05570 0.25280 0.70650 -0.13600
C 	C 	0.05490 0.22830 0.68380 -0.09900
H 	H 	0.06690 0.20880 0.69230 0.05400
H 	H 	0.06550 0.23610 0.66310 0.07300
H 	H 	0.03160 0.22220 0.67920 0.05300
C 	C 	0.02880 0.25200 0.72700 0.06100
O 	O 	0.55570 0.75280 0.70650 -0.13500
C 	C 	0.55490 0.72830 0.68380 -0.10000
H 	H 	0.56690 0.70880 0.69230 0.05500
H 	H 	0.56550 0.73610 0.66310 0.07400
H 	H 	0.53160 0.72220 0.67920 0.05400
C 	C 	0.52880 0.75200 0.72700 0.06000
O 	O 	0.55570 0.25280 0.20650 -0.13500
C 	C 	0.55490 0.22830 0.18380 -0.10000
H 	H 	0.56690 0.20880 0.19230 0.05500
H 	H 	0.56550 0.23610 0.16310 0.07400
H 	H 	0.53160 0.22220 0.17920 0.05400
C 	C 	0.52880 0.25200 0.22700 0.06000
O 	O 	0.94430 0.24720 0.20650 -0.13400
C 	C 	0.94510 0.27170 0.18380 -0.10300
H 	H 	0.93310 0.29120 0.19230 0.05600
H 	H 	0.93450 0.26390 0.16310 0.07600
H 	H 	0.96840 0.27780 0.17920 0.05700
C 	C 	0.97120 0.24800 0.22700 0.06300
O 	O 	0.94430 0.74720 0.70650 -0.13400
C 	C 	0.94510 0.77170 0.68380 -0.10300
H 	H 	0.93310 0.79120 0.69230 0.05600
H 	H 	0.93450 0.76390 0.66310 0.07600
H 	H 	0.96840 0.77780 0.67920 0.05700
C 	C 	0.97120 0.74800 0.72700 0.06300
O 	O 	0.44430 0.24720 0.70650 -0.13500
C 	C 	0.44510 0.27170 0.68380 -0.10000
H 	H 	0.43310 0.29120 0.69230 0.05500
H 	H 	0.43450 0.26390 0.66310 0.07400
H 	H 	0.46840 0.27780 0.67920 0.05400
C 	C 	0.47120 0.24800 0.72700 0.06000
O 	O 	0.44430 0.74720 0.20650 -0.13500
C 	C 	0.44510 0.77170 0.18380 -0.10000
H 	H 	0.43310 0.79120 0.19230 0.05500
H 	H 	0.43450 0.76390 0.16310 0.07400
H 	H 	0.46840 0.77780 0.17920 0.05400
C 	C 	0.47120 0.74800 0.22700 0.06000
O 	O 	0.79350 0.94430 0.75280 -0.13400
C 	C 	0.81620 0.94510 0.72830 -0.10400
H 	H 	0.80770 0.93310 0.70880 0.05600
H 	H 	0.83690 0.93450 0.73610 0.07600
H 	H 	0.82080 0.96840 0.72220 0.05800
C 	C 	0.77300 0.97120 0.75200 0.06300
O 	O 	0.79350 0.44430 0.25280 -0.13500
C 	C 	0.81620 0.44510 0.22830 -0.10100
H 	H 	0.80770 0.43310 0.20880 0.05500
H 	H 	0.83690 0.43450 0.23610 0.07400
H 	H 	0.82080 0.46840 0.22220 0.05500
C 	C 	0.77300 0.47120 0.25200 0.06000
O 	O 	0.29350 0.94430 0.25280 -0.13400
C 	C 	0.31620 0.94510 0.22830 -0.10300
H 	H 	0.30770 0.93310 0.20880 0.05600
H 	H 	0.33690 0.93450 0.23610 0.07600
H 	H 	0.32080 0.96840 0.22220 0.05700
C 	C 	0.27300 0.97120 0.25200 0.06300
O 	O 	0.29350 0.44430 0.75280 -0.13500
C 	C 	0.31620 0.44510 0.72830 -0.10000
H 	H 	0.30770 0.43310 0.70880 0.05500
H 	H 	0.33690 0.43450 0.73610 0.07400
H 	H 	0.32080 0.46840 0.72220 0.05400
C 	C 	0.27300 0.47120 0.75200 0.06000
O 	O 	0.79350 0.05570 0.24720 -0.13500
C 	C 	0.81620 0.05490 0.27170 -0.10000
H 	H 	0.80770 0.06690 0.29120 0.05500
H 	H 	0.83690 0.06550 0.26390 0.07400
H 	H 	0.82080 0.03160 0.27780 0.05400
C 	C 	0.77300 0.02880 0.24800 0.06000
O 	O 	0.79350 0.55570 0.74720 -0.13500
C 	C 	0.81620 0.55490 0.77170 -0.10100
H 	H 	0.80770 0.56690 0.79120 0.05500
H 	H 	0.83690 0.56550 0.76390 0.07400
H 	H 	0.82080 0.53160 0.77780 0.05500
C 	C 	0.77300 0.52880 0.74800 0.06000
O 	O 	0.29350 0.05570 0.74720 -0.13600
C 	C 	0.31620 0.05490 0.77170 -0.09900
H 	H 	0.30770 0.06690 0.79120 0.05400
H 	H 	0.33690 0.06550 0.76390 0.07400
H 	H 	0.32080 0.03160 0.77780 0.05400
C 	C 	0.27300 0.02880 0.74800 0.06100
O 	O 	0.29350 0.55570 0.24720 -0.13500
C 	C 	0.31620 0.55490 0.27170 -0.10000
H 	H 	0.30770 0.56690 0.29120 0.05500
H 	H 	0.33690 0.56550 0.26390 0.07400
H 	H 	0.32080 0.53160 0.27780 0.05400
C 	C 	0.27300 0.52880 0.24800 0.06000
O 	O 	0.20650 0.05570 0.75280 -0.13600
C 	C 	0.18380 0.05490 0.72830 -0.09900
H 	H 	0.19230 0.06690 0.70880 0.05400
H 	H 	0.16310 0.06550 0.73610 0.07300
H 	H 	0.17920 0.03160 0.72220 0.05300
C 	C 	0.22700 0.02880 0.75200 0.06100
O 	O 	0.20650 0.55570 0.25280 -0.13500
C 	C 	0.18380 0.55490 0.22830 -0.10000
H 	H 	0.19230 0.56690 0.20880 0.05500
H 	H 	0.16310 0.56550 0.23610 0.07400
H 	H 	0.17920 0.53160 0.22220 0.05400
C 	C 	0.22700 0.52880 0.25200 0.06000
O 	O 	0.70650 0.05570 0.25280 -0.13600
C 	C 	0.68380 0.05490 0.22830 -0.09900
H 	H 	0.69230 0.06690 0.20880 0.05400
H 	H 	0.66310 0.06550 0.23610 0.07300
H 	H 	0.67920 0.03160 0.22220 0.05300
C 	C 	0.72700 0.02880 0.25200 0.06100
O 	O 	0.70650 0.55570 0.75280 -0.13500
C 	C 	0.68380 0.55490 0.72830 -0.10000
H 	H 	0.69230 0.56690 0.70880 0.05500
H 	H 	0.66310 0.56550 0.73610 0.07400
H 	H 	0.67920 0.53160 0.72220 0.05400
C 	C 	0.72700 0.52880 0.75200 0.06000
O 	O 	0.20650 0.94430 0.24720 -0.13400
C 	C 	0.18380 0.94510 0.27170 -0.10300
H 	H 	0.19230 0.93310 0.29120 0.05600
H 	H 	0.16310 0.93450 0.26390 0.07600
H 	H 	0.17920 0.96840 0.27780 0.05700
C 	C 	0.22700 0.97120 0.24800 0.06300
O 	O 	0.20650 0.44430 0.74720 -0.13500
C 	C 	0.18380 0.44510 0.77170 -0.10000
H 	H 	0.19230 0.43310 0.79120 0.05500
H 	H 	0.16310 0.43450 0.76390 0.07400
H 	H 	0.17920 0.46840 0.77780 0.05400
C 	C 	0.22700 0.47120 0.74800 0.06000
O 	O 	0.70650 0.94430 0.74720 -0.13400
C 	C 	0.68380 0.94510 0.77170 -0.10300
H 	H 	0.69230 0.93310 0.79120 0.05600
H 	H 	0.66310 0.93450 0.76390 0.07600
H 	H 	0.67920 0.96840 0.77780 0.05700
C 	C 	0.72700 0.97120 0.74800 0.06300
O 	O 	0.70650 0.44430 0.24720 -0.13500
C 	C 	0.68380 0.44510 0.27170 -0.10000
H 	H 	0.69230 0.43310 0.29120 0.05500
H 	H 	0.66310 0.43450 0.26390 0.07400
H 	H 	0.67920 0.46840 0.27780 0.05400
C 	C 	0.72700 0.47120 0.24800 0.06000
O 	O 	0.75280 0.79350 0.94430 -0.13400
C 	C 	0.72830 0.81620 0.94510 -0.10400
H 	H 	0.70880 0.80770 0.93310 0.05600
H 	H 	0.73610 0.83690 0.93450 0.07600
H 	H 	0.72220 0.82080 0.96840 0.05800
C 	C 	0.75200 0.77300 0.97120 0.06300
O 	O 	0.75280 0.29350 0.44430 -0.13500
C 	C 	0.72830 0.31620 0.44510 -0.10000
H 	H 	0.70880 0.30770 0.43310 0.05500
H 	H 	0.73610 0.33690 0.43450 0.07400
H 	H 	0.72220 0.32080 0.46840 0.05400
C 	C 	0.75200 0.27300 0.47120 0.06000
O 	O 	0.25280 0.79350 0.44430 -0.13500
C 	C 	0.22830 0.81620 0.44510 -0.10100
H 	H 	0.20880 0.80770 0.43310 0.05500
H 	H 	0.23610 0.83690 0.43450 0.07400
H 	H 	0.22220 0.82080 0.46840 0.05500
C 	C 	0.25200 0.77300 0.47120 0.06000
O 	O 	0.25280 0.29350 0.94430 -0.13400
C 	C 	0.22830 0.31620 0.94510 -0.10300
H 	H 	0.20880 0.30770 0.93310 0.05600
H 	H 	0.23610 0.33690 0.93450 0.07600
H 	H 	0.22220 0.32080 0.96840 0.05700
C 	C 	0.25200 0.27300 0.97120 0.06300
O 	O 	0.24720 0.79350 0.05570 -0.13500
C 	C 	0.27170 0.81620 0.05490 -0.10000
H 	H 	0.29120 0.80770 0.06690 0.05500
H 	H 	0.26390 0.83690 0.06550 0.07400
H 	H 	0.27780 0.82080 0.03160 0.05400
C 	C 	0.24800 0.77300 0.02880 0.06000
O 	O 	0.24720 0.29350 0.55570 -0.13500
C 	C 	0.27170 0.31620 0.55490 -0.10000
H 	H 	0.29120 0.30770 0.56690 0.05500
H 	H 	0.26390 0.33690 0.56550 0.07400
H 	H 	0.27780 0.32080 0.53160 0.05400
C 	C 	0.24800 0.27300 0.52880 0.06000
O 	O 	0.74720 0.79350 0.55570 -0.13500
C 	C 	0.77170 0.81620 0.55490 -0.10100
H 	H 	0.79120 0.80770 0.56690 0.05500
H 	H 	0.76390 0.83690 0.56550 0.07400
H 	H 	0.77780 0.82080 0.53160 0.05500
C 	C 	0.74800 0.77300 0.52880 0.06000
O 	O 	0.74720 0.29350 0.05570 -0.13600
C 	C 	0.77170 0.31620 0.05490 -0.09900
H 	H 	0.79120 0.30770 0.06690 0.05400
H 	H 	0.76390 0.33690 0.06550 0.07400
H 	H 	0.77780 0.32080 0.03160 0.05400
C 	C 	0.74800 0.27300 0.02880 0.06100
O 	O 	0.75280 0.20650 0.05570 -0.13600
C 	C 	0.72830 0.18380 0.05490 -0.09900
H 	H 	0.70880 0.19230 0.06690 0.05400
H 	H 	0.73610 0.16310 0.06550 0.07300
H 	H 	0.72220 0.17920 0.03160 0.05300
C 	C 	0.75200 0.22700 0.02880 0.06100
O 	O 	0.75280 0.70650 0.55570 -0.13500
C 	C 	0.72830 0.68380 0.55490 -0.10000
H 	H 	0.70880 0.69230 0.56690 0.05500
H 	H 	0.73610 0.66310 0.56550 0.07400
H 	H 	0.72220 0.67920 0.53160 0.05400
C 	C 	0.75200 0.72700 0.52880 0.06000
O 	O 	0.25280 0.20650 0.55570 -0.13500
C 	C 	0.22830 0.18380 0.55490 -0.10000
H 	H 	0.20880 0.19230 0.56690 0.05500
H 	H 	0.23610 0.16310 0.56550 0.07400
H 	H 	0.22220 0.17920 0.53160 0.05400
C 	C 	0.25200 0.22700 0.52880 0.06000
O 	O 	0.25280 0.70650 0.05570 -0.13600
C 	C 	0.22830 0.68380 0.05490 -0.09900
H 	H 	0.20880 0.69230 0.06690 0.05400
H 	H 	0.23610 0.66310 0.06550 0.07300
H 	H 	0.22220 0.67920 0.03160 0.05300
C 	C 	0.25200 0.72700 0.02880 0.06100
O 	O 	0.24720 0.20650 0.94430 -0.13400
C 	C 	0.27170 0.18380 0.94510 -0.10300
H 	H 	0.29120 0.19230 0.93310 0.05600
H 	H 	0.26390 0.16310 0.93450 0.07600
H 	H 	0.27780 0.17920 0.96840 0.05700
C 	C 	0.24800 0.22700 0.97120 0.06300
O 	O 	0.24720 0.70650 0.44430 -0.13500
C 	C 	0.27170 0.68380 0.44510 -0.10000
H 	H 	0.29120 0.69230 0.43310 0.05500
H 	H 	0.26390 0.66310 0.43450 0.07400
H 	H 	0.27780 0.67920 0.46840 0.05400
C 	C 	0.24800 0.72700 0.47120 0.06000
O 	O 	0.74720 0.20650 0.44430 -0.13500
C 	C 	0.77170 0.18380 0.44510 -0.10000
H 	H 	0.79120 0.19230 0.43310 0.05500
H 	H 	0.76390 0.16310 0.43450 0.07400
H 	H 	0.77780 0.17920 0.46840 0.05400
C 	C 	0.74800 0.22700 0.47120 0.06000
O 	O 	0.74720 0.70650 0.94430 -0.13400
C 	C 	0.77170 0.68380 0.94510 -0.10300
H 	H 	0.79120 0.69230 0.93310 0.05600
H 	H 	0.76390 0.66310 0.93450 0.07600
H 	H 	0.77780 0.67920 0.96840 0.05700
C 	C 	0.74800 0.72700 0.97120 0.06300
O 	O 	0.75280 0.94430 0.20650 -0.13400
C 	C 	0.72830 0.94510 0.18380 -0.10300
H 	H 	0.70880 0.93310 0.19230 0.05600
H 	H 	0.73610 0.93450 0.16310 0.07600
H 	H 	0.72220 0.96840 0.17920 0.05700
C 	C 	0.75200 0.97120 0.22700 0.06300
O 	O 	0.75280 0.44430 0.70650 -0.13500
C 	C 	0.72830 0.44510 0.68380 -0.10000
H 	H 	0.70880 0.43310 0.69230 0.05500
H 	H 	0.73610 0.43450 0.66310 0.07400
H 	H 	0.72220 0.46840 0.67920 0.05400
C 	C 	0.75200 0.47120 0.72700 0.06000
O 	O 	0.25280 0.94430 0.70650 -0.13400
C 	C 	0.22830 0.94510 0.68380 -0.10300
H 	H 	0.20880 0.93310 0.69230 0.05600
H 	H 	0.23610 0.93450 0.66310 0.07600
H 	H 	0.22220 0.96840 0.67920 0.05700
C 	C 	0.25200 0.97120 0.72700 0.06300
O 	O 	0.25280 0.44430 0.20650 -0.13500
C 	C 	0.22830 0.44510 0.18380 -0.10000
H 	H 	0.20880 0.43310 0.19230 0.05500
H 	H 	0.23610 0.43450 0.16310 0.07400
H 	H 	0.22220 0.46840 0.17920 0.05400
C 	C 	0.25200 0.47120 0.22700 0.06000
O 	O 	0.24720 0.05570 0.20650 -0.13600
C 	C 	0.27170 0.05490 0.18380 -0.09900
H 	H 	0.29120 0.06690 0.19230 0.05400
H 	H 	0.26390 0.06550 0.16310 0.07300
H 	H 	0.27780 0.03160 0.17920 0.05300
C 	C 	0.24800 0.02880 0.22700 0.06100
O 	O 	0.24720 0.55570 0.70650 -0.13500
C 	C 	0.27170 0.55490 0.68380 -0.10000
H 	H 	0.29120 0.56690 0.69230 0.05500
H 	H 	0.26390 0.56550 0.66310 0.07400
H 	H 	0.27780 0.53160 0.67920 0.05400
C 	C 	0.24800 0.52880 0.72700 0.06000
O 	O 	0.74720 0.05570 0.70650 -0.13600
C 	C 	0.77170 0.05490 0.68380 -0.09900
H 	H 	0.79120 0.06690 0.69230 0.05400
H 	H 	0.76390 0.06550 0.66310 0.07400
H 	H 	0.77780 0.03160 0.67920 0.05400
C 	C 	0.74800 0.02880 0.72700 0.06100
O 	O 	0.74720 0.55570 0.20650 -0.13500
C 	C 	0.77170 0.55490 0.18380 -0.10000
H 	H 	0.79120 0.56690 0.19230 0.05500
H 	H 	0.76390 0.56550 0.16310 0.07400
H 	H 	0.77780 0.53160 0.17920 0.05400
C 	C 	0.74800 0.52880 0.22700 0.06000
O 	O 	0.75280 0.05570 0.79350 -0.13500
C 	C 	0.72830 0.05490 0.81620 -0.10000
H 	H 	0.70880 0.06690 0.80770 0.05500
H 	H 	0.73610 0.06550 0.83690 0.07400
H 	H 	0.72220 0.03160 0.82080 0.05400
C 	C 	0.75200 0.02880 0.77300 0.06000
O 	O 	0.75280 0.55570 0.29350 -0.13500
C 	C 	0.72830 0.55490 0.31620 -0.10000
H 	H 	0.70880 0.56690 0.30770 0.05500
H 	H 	0.73610 0.56550 0.33690 0.07400
H 	H 	0.72220 0.53160 0.32080 0.05400
C 	C 	0.75200 0.52880 0.27300 0.06000
O 	O 	0.25280 0.05570 0.29350 -0.13600
C 	C 	0.22830 0.05490 0.31620 -0.09900
H 	H 	0.20880 0.06690 0.30770 0.05400
H 	H 	0.23610 0.06550 0.33690 0.07300
H 	H 	0.22220 0.03160 0.32080 0.05300
C 	C 	0.25200 0.02880 0.27300 0.06100
O 	O 	0.25280 0.55570 0.79350 -0.13500
C 	C 	0.22830 0.55490 0.81620 -0.10100
H 	H 	0.20880 0.56690 0.80770 0.05500
H 	H 	0.23610 0.56550 0.83690 0.07400
H 	H 	0.22220 0.53160 0.82080 0.05500
C 	C 	0.25200 0.52880 0.77300 0.06000
O 	O 	0.24720 0.94430 0.79350 -0.13400
C 	C 	0.27170 0.94510 0.81620 -0.10400
H 	H 	0.29120 0.93310 0.80770 0.05600
H 	H 	0.26390 0.93450 0.83690 0.07600
H 	H 	0.27780 0.96840 0.82080 0.05800
C 	C 	0.24800 0.97120 0.77300 0.06300
O 	O 	0.24720 0.44430 0.29350 -0.13500
C 	C 	0.27170 0.44510 0.31620 -0.10000
H 	H 	0.29120 0.43310 0.30770 0.05500
H 	H 	0.26390 0.43450 0.33690 0.07400
H 	H 	0.27780 0.46840 0.32080 0.05400
C 	C 	0.24800 0.47120 0.27300 0.06000
O 	O 	0.74720 0.94430 0.29350 -0.13400
C 	C 	0.77170 0.94510 0.31620 -0.10300
H 	H 	0.79120 0.93310 0.30770 0.05600
H 	H 	0.76390 0.93450 0.33690 0.07600
H 	H 	0.77780 0.96840 0.32080 0.05700
C 	C 	0.74800 0.97120 0.27300 0.06300
O 	O 	0.74720 0.44430 0.79350 -0.13500
C 	C 	0.77170 0.44510 0.81620 -0.10100
H 	H 	0.79120 0.43310 0.80770 0.05500
H 	H 	0.76390 0.43450 0.83690 0.07500
H 	H 	0.77780 0.46840 0.82080 0.05500
C 	C 	0.74800 0.47120 0.77300 0.06000
O 	O 	0.94430 0.79350 0.24720 -0.13400
C 	C 	0.94510 0.81620 0.27170 -0.10400
H 	H 	0.93310 0.80770 0.29120 0.05600
H 	H 	0.93450 0.83690 0.26390 0.07600
H 	H 	0.96840 0.82080 0.27780 0.05800
C 	C 	0.97120 0.77300 0.24800 0.06300
O 	O 	0.94430 0.29350 0.74720 -0.13400
C 	C 	0.94510 0.31620 0.77170 -0.10300
H 	H 	0.93310 0.30770 0.79120 0.05600
H 	H 	0.93450 0.33690 0.76390 0.07600
H 	H 	0.96840 0.32080 0.77780 0.05700
C 	C 	0.97120 0.27300 0.74800 0.06300
O 	O 	0.44430 0.79350 0.74720 -0.13500
C 	C 	0.44510 0.81620 0.77170 -0.10100
H 	H 	0.43310 0.80770 0.79120 0.05500
H 	H 	0.43450 0.83690 0.76390 0.07500
H 	H 	0.46840 0.82080 0.77780 0.05500
C 	C 	0.47120 0.77300 0.74800 0.06000
O 	O 	0.44430 0.29350 0.24720 -0.13500
C 	C 	0.44510 0.31620 0.27170 -0.10000
H 	H 	0.43310 0.30770 0.29120 0.05500
H 	H 	0.43450 0.33690 0.26390 0.07400
H 	H 	0.46840 0.32080 0.27780 0.05400
C 	C 	0.47120 0.27300 0.24800 0.06000
O 	O 	0.05570 0.79350 0.75280 -0.13500
C 	C 	0.05490 0.81620 0.72830 -0.10000
H 	H 	0.06690 0.80770 0.70880 0.05500
H 	H 	0.06550 0.83690 0.73610 0.07400
H 	H 	0.03160 0.82080 0.72220 0.05400
C 	C 	0.02880 0.77300 0.75200 0.06000
O 	O 	0.05570 0.29350 0.25280 -0.13600
C 	C 	0.05490 0.31620 0.22830 -0.09900
H 	H 	0.06690 0.30770 0.20880 0.05400
H 	H 	0.06550 0.33690 0.23610 0.07300
H 	H 	0.03160 0.32080 0.22220 0.05300
C 	C 	0.02880 0.27300 0.25200 0.06100
O 	O 	0.55570 0.79350 0.25280 -0.13500
C 	C 	0.55490 0.81620 0.22830 -0.10100
H 	H 	0.56690 0.80770 0.20880 0.05500
H 	H 	0.56550 0.83690 0.23610 0.07400
H 	H 	0.53160 0.82080 0.22220 0.05500
C 	C 	0.52880 0.77300 0.25200 0.06000
O 	O 	0.55570 0.29350 0.75280 -0.13500
C 	C 	0.55490 0.31620 0.72830 -0.10000
H 	H 	0.56690 0.30770 0.70880 0.05500
H 	H 	0.56550 0.33690 0.73610 0.07400
H 	H 	0.53160 0.32080 0.72220 0.05400
C 	C 	0.52880 0.27300 0.75200 0.06000
O 	O 	0.05570 0.20650 0.24720 -0.13600
C 	C 	0.05490 0.18380 0.27170 -0.09900
H 	H 	0.06690 0.19230 0.29120 0.05400
H 	H 	0.06550 0.16310 0.26390 0.07300
H 	H 	0.03160 0.17920 0.27780 0.05300
C 	C 	0.02880 0.22700 0.24800 0.06100
O 	O 	0.05570 0.70650 0.74720 -0.13600
C 	C 	0.05490 0.68380 0.77170 -0.09900
H 	H 	0.06690 0.69230 0.79120 0.05400
H 	H 	0.06550 0.66310 0.76390 0.07400
H 	H 	0.03160 0.67920 0.77780 0.05400
C 	C 	0.02880 0.72700 0.74800 0.06100
O 	O 	0.55570 0.20650 0.74720 -0.13500
C 	C 	0.55490 0.18380 0.77170 -0.10000
H 	H 	0.56690 0.19230 0.79120 0.05500
H 	H 	0.56550 0.16310 0.76390 0.07400
H 	H 	0.53160 0.17920 0.77780 0.05400
C 	C 	0.52880 0.22700 0.74800 0.06000
O 	O 	0.55570 0.70650 0.24720 -0.13500
C 	C 	0.55490 0.68380 0.27170 -0.10000
H 	H 	0.56690 0.69230 0.29120 0.05500
H 	H 	0.56550 0.66310 0.26390 0.07400
H 	H 	0.53160 0.67920 0.27780 0.05400
C 	C 	0.52880 0.72700 0.24800 0.06000
O 	O 	0.94430 0.20650 0.75280 -0.13400
C 	C 	0.94510 0.18380 0.72830 -0.10300
H 	H 	0.93310 0.19230 0.70880 0.05600
H 	H 	0.93450 0.16310 0.73610 0.07600
H 	H 	0.96840 0.17920 0.72220 0.05700
C 	C 	0.97120 0.22700 0.75200 0.06300
O 	O 	0.94430 0.70650 0.25280 -0.13400
C 	C 	0.94510 0.68380 0.22830 -0.10300
H 	H 	0.93310 0.69230 0.20880 0.05600
H 	H 	0.93450 0.66310 0.23610 0.07600
H 	H 	0.96840 0.67920 0.22220 0.05700
C 	C 	0.97120 0.72700 0.25200 0.06300
O 	O 	0.44430 0.20650 0.25280 -0.13500
C 	C 	0.44510 0.18380 0.22830 -0.10000
H 	H 	0.43310 0.19230 0.20880 0.05500
H 	H 	0.43450 0.16310 0.23610 0.07400
H 	H 	0.46840 0.17920 0.22220 0.05400
C 	C 	0.47120 0.22700 0.25200 0.06000
O 	O 	0.44430 0.70650 0.75280 -0.13500
C 	C 	0.44510 0.68380 0.72830 -0.10000
H 	H 	0.43310 0.69230 0.70880 0.05500
H 	H 	0.43450 0.66310 0.73610 0.07400
H 	H 	0.46840 0.67920 0.72220 0.05400
C 	C 	0.47120 0.72700 0.75200 0.06000
O 	O 	0.79350 0.75280 0.05570 -0.13500
C 	C 	0.81620 0.72830 0.05490 -0.10000
H 	H 	0.80770 0.70880 0.06690 0.05500
H 	H 	0.83690 0.73610 0.06550 0.07400
H 	H 	0.82080 0.72220 0.03160 0.05400
C 	C 	0.77300 0.75200 0.02880 0.06000
O 	O 	0.79350 0.25280 0.55570 -0.13500
C 	C 	0.81620 0.22830 0.55490 -0.10100
H 	H 	0.80770 0.20880 0.56690 0.05500
H 	H 	0.83690 0.23610 0.56550 0.07400
H 	H 	0.82080 0.22220 0.53160 0.05500
C 	C 	0.77300 0.25200 0.52880 0.06000
O 	O 	0.29350 0.75280 0.55570 -0.13500
C 	C 	0.31620 0.72830 0.55490 -0.10000
H 	H 	0.30770 0.70880 0.56690 0.05500
H 	H 	0.33690 0.73610 0.56550 0.07400
H 	H 	0.32080 0.72220 0.53160 0.05400
C 	C 	0.27300 0.75200 0.52880 0.06000
O 	O 	0.29350 0.25280 0.05570 -0.13600
C 	C 	0.31620 0.22830 0.05490 -0.09900
H 	H 	0.30770 0.20880 0.06690 0.05400
H 	H 	0.33690 0.23610 0.06550 0.07300
H 	H 	0.32080 0.22220 0.03160 0.05300
C 	C 	0.27300 0.25200 0.02880 0.06100
O 	O 	0.79350 0.24720 0.94430 -0.13400
C 	C 	0.81620 0.27170 0.94510 -0.10400
H 	H 	0.80770 0.29120 0.93310 0.05600
H 	H 	0.83690 0.26390 0.93450 0.07600
H 	H 	0.82080 0.27780 0.96840 0.05800
C 	C 	0.77300 0.24800 0.97120 0.06300
O 	O 	0.79350 0.74720 0.44430 -0.13500
C 	C 	0.81620 0.77170 0.44510 -0.10100
H 	H 	0.80770 0.79120 0.43310 0.05500
H 	H 	0.83690 0.76390 0.43450 0.07500
H 	H 	0.82080 0.77780 0.46840 0.05500
C 	C 	0.77300 0.74800 0.47120 0.06000
O 	O 	0.29350 0.24720 0.44430 -0.13500
C 	C 	0.31620 0.27170 0.44510 -0.10000
H 	H 	0.30770 0.29120 0.43310 0.05500
H 	H 	0.33690 0.26390 0.43450 0.07400
H 	H 	0.32080 0.27780 0.46840 0.05400
C 	C 	0.27300 0.24800 0.47120 0.06000
O 	O 	0.29350 0.74720 0.94430 -0.13400
C 	C 	0.31620 0.77170 0.94510 -0.10300
H 	H 	0.30770 0.79120 0.93310 0.05600
H 	H 	0.33690 0.76390 0.93450 0.07600
H 	H 	0.32080 0.77780 0.96840 0.05700
C 	C 	0.27300 0.74800 0.97120 0.06300
O 	O 	0.20650 0.75280 0.94430 -0.13400
C 	C 	0.18380 0.72830 0.94510 -0.10300
H 	H 	0.19230 0.70880 0.93310 0.05600
H 	H 	0.16310 0.73610 0.93450 0.07600
H 	H 	0.17920 0.72220 0.96840 0.05700
C 	C 	0.22700 0.75200 0.97120 0.06300
O 	O 	0.20650 0.25280 0.44430 -0.13500
C 	C 	0.18380 0.22830 0.44510 -0.10000
H 	H 	0.19230 0.20880 0.43310 0.05500
H 	H 	0.16310 0.23610 0.43450 0.07400
H 	H 	0.17920 0.22220 0.46840 0.05400
C 	C 	0.22700 0.25200 0.47120 0.06000
O 	O 	0.70650 0.75280 0.44430 -0.13500
C 	C 	0.68380 0.72830 0.44510 -0.10000
H 	H 	0.69230 0.70880 0.43310 0.05500
H 	H 	0.66310 0.73610 0.43450 0.07400
H 	H 	0.67920 0.72220 0.46840 0.05400
C 	C 	0.72700 0.75200 0.47120 0.06000
O 	O 	0.70650 0.25280 0.94430 -0.13400
C 	C 	0.68380 0.22830 0.94510 -0.10300
H 	H 	0.69230 0.20880 0.93310 0.05600
H 	H 	0.66310 0.23610 0.93450 0.07600
H 	H 	0.67920 0.22220 0.96840 0.05700
C 	C 	0.72700 0.25200 0.97120 0.06300
O 	O 	0.20650 0.24720 0.05570 -0.13600
C 	C 	0.18380 0.27170 0.05490 -0.09900
H 	H 	0.19230 0.29120 0.06690 0.05400
H 	H 	0.16310 0.26390 0.06550 0.07300
H 	H 	0.17920 0.27780 0.03160 0.05300
C 	C 	0.22700 0.24800 0.02880 0.06100
O 	O 	0.20650 0.74720 0.55570 -0.13500
C 	C 	0.18380 0.77170 0.55490 -0.10000
H 	H 	0.19230 0.79120 0.56690 0.05500
H 	H 	0.16310 0.76390 0.56550 0.07400
H 	H 	0.17920 0.77780 0.53160 0.05400
C 	C 	0.22700 0.74800 0.52880 0.06000
O 	O 	0.70650 0.24720 0.55570 -0.13500
C 	C 	0.68380 0.27170 0.55490 -0.10000
H 	H 	0.69230 0.29120 0.56690 0.05500
H 	H 	0.66310 0.26390 0.56550 0.07400
H 	H 	0.67920 0.27780 0.53160 0.05400
C 	C 	0.72700 0.24800 0.52880 0.06000
O 	O 	0.70650 0.74720 0.05570 -0.13600
C 	C 	0.68380 0.77170 0.05490 -0.09900
H 	H 	0.69230 0.79120 0.06690 0.05400
H 	H 	0.66310 0.76390 0.06550 0.07400
H 	H 	0.67920 0.77780 0.03160 0.05400
C 	C 	0.72700 0.74800 0.02880 0.06100
O 	O 	0.05570 0.24720 0.20650 -0.13600
C 	C 	0.05490 0.27170 0.18380 -0.09900
H 	H 	0.06690 0.29120 0.19230 0.05400
H 	H 	0.06550 0.26390 0.16310 0.07300
H 	H 	0.03160 0.27780 0.17920 0.05300
C 	C 	0.02880 0.24800 0.22700 0.06100
O 	O 	0.05570 0.74720 0.70650 -0.13600
C 	C 	0.05490 0.77170 0.68380 -0.09900
H 	H 	0.06690 0.79120 0.69230 0.05400
H 	H 	0.06550 0.76390 0.66310 0.07400
H 	H 	0.03160 0.77780 0.67920 0.05400
C 	C 	0.02880 0.74800 0.72700 0.06100
O 	O 	0.55570 0.24720 0.70650 -0.13500
C 	C 	0.55490 0.27170 0.68380 -0.10000
H 	H 	0.56690 0.29120 0.69230 0.05500
H 	H 	0.56550 0.26390 0.66310 0.07400
H 	H 	0.53160 0.27780 0.67920 0.05400
C 	C 	0.52880 0.24800 0.72700 0.06000
O 	O 	0.55570 0.74720 0.20650 -0.13500
C 	C 	0.55490 0.77170 0.18380 -0.10000
H 	H 	0.56690 0.79120 0.19230 0.05500
H 	H 	0.56550 0.76390 0.16310 0.07400
H 	H 	0.53160 0.77780 0.17920 0.05400
C 	C 	0.52880 0.74800 0.22700 0.06000
O 	O 	0.94430 0.75280 0.20650 -0.13400
C 	C 	0.94510 0.72830 0.18380 -0.10300
H 	H 	0.93310 0.70880 0.19230 0.05600
H 	H 	0.93450 0.73610 0.16310 0.07600
H 	H 	0.96840 0.72220 0.17920 0.05700
C 	C 	0.97120 0.75200 0.22700 0.06300
O 	O 	0.94430 0.25280 0.70650 -0.13400
C 	C 	0.94510 0.22830 0.68380 -0.10300
H 	H 	0.93310 0.20880 0.69230 0.05600
H 	H 	0.93450 0.23610 0.66310 0.07600
H 	H 	0.96840 0.22220 0.67920 0.05700
C 	C 	0.97120 0.25200 0.72700 0.06300
O 	O 	0.44430 0.75280 0.70650 -0.13500
C 	C 	0.44510 0.72830 0.68380 -0.10000
H 	H 	0.43310 0.70880 0.69230 0.05500
H 	H 	0.43450 0.73610 0.66310 0.07400
H 	H 	0.46840 0.72220 0.67920 0.05400
C 	C 	0.47120 0.75200 0.72700 0.06000
O 	O 	0.44430 0.25280 0.20650 -0.13500
C 	C 	0.44510 0.22830 0.18380 -0.10000
H 	H 	0.43310 0.20880 0.19230 0.05500
H 	H 	0.43450 0.23610 0.16310 0.07400
H 	H 	0.46840 0.22220 0.17920 0.05400
C 	C 	0.47120 0.25200 0.22700 0.06000
O 	O 	0.94430 0.24720 0.79350 -0.13400
C 	C 	0.94510 0.27170 0.81620 -0.10400
H 	H 	0.93310 0.29120 0.80770 0.05600
H 	H 	0.93450 0.26390 0.83690 0.07600
H 	H 	0.96840 0.27780 0.82080 0.05800
C 	C 	0.97120 0.24800 0.77300 0.06300
O 	O 	0.94430 0.74720 0.29350 -0.13400
C 	C 	0.94510 0.77170 0.31620 -0.10300
H 	H 	0.93310 0.79120 0.30770 0.05600
H 	H 	0.93450 0.76390 0.33690 0.07600
H 	H 	0.96840 0.77780 0.32080 0.05700
C 	C 	0.97120 0.74800 0.27300 0.06300
O 	O 	0.44430 0.24720 0.29350 -0.13500
C 	C 	0.44510 0.27170 0.31620 -0.10000
H 	H 	0.43310 0.29120 0.30770 0.05500
H 	H 	0.43450 0.26390 0.33690 0.07400
H 	H 	0.46840 0.27780 0.32080 0.05400
C 	C 	0.47120 0.24800 0.27300 0.06000
O 	O 	0.44430 0.74720 0.79350 -0.13500
C 	C 	0.44510 0.77170 0.81620 -0.10100
H 	H 	0.43310 0.79120 0.80770 0.05500
H 	H 	0.43450 0.76390 0.83690 0.07500
H 	H 	0.46840 0.77780 0.82080 0.05500
C 	C 	0.47120 0.74800 0.77300 0.06000
O 	O 	0.05570 0.75280 0.79350 -0.13500
C 	C 	0.05490 0.72830 0.81620 -0.10000
H 	H 	0.06690 0.70880 0.80770 0.05500
H 	H 	0.06550 0.73610 0.83690 0.07400
H 	H 	0.03160 0.72220 0.82080 0.05400
C 	C 	0.02880 0.75200 0.77300 0.06000
O 	O 	0.05570 0.25280 0.29350 -0.13600
C 	C 	0.05490 0.22830 0.31620 -0.09900
H 	H 	0.06690 0.20880 0.30770 0.05400
H 	H 	0.06550 0.23610 0.33690 0.07300
H 	H 	0.03160 0.22220 0.32080 0.05300
C 	C 	0.02880 0.25200 0.27300 0.06100
O 	O 	0.55570 0.75280 0.29350 -0.13500
C 	C 	0.55490 0.72830 0.31620 -0.10000
H 	H 	0.56690 0.70880 0.30770 0.05500
H 	H 	0.56550 0.73610 0.33690 0.07400
H 	H 	0.53160 0.72220 0.32080 0.05400
C 	C 	0.52880 0.75200 0.27300 0.06000
O 	O 	0.55570 0.25280 0.79350 -0.13500
C 	C 	0.55490 0.22830 0.81620 -0.10100
H 	H 	0.56690 0.20880 0.80770 0.05500
H 	H 	0.56550 0.23610 0.83690 0.07400
H 	H 	0.53160 0.22220 0.82080 0.05500
C 	C 	0.52880 0.25200 0.77300 0.06000
O 	O 	0.20650 0.05570 0.24720 -0.13600
C 	C 	0.18380 0.05490 0.27170 -0.09900
H 	H 	0.19230 0.06690 0.29120 0.05400
H 	H 	0.16310 0.06550 0.26390 0.07300
H 	H 	0.17920 0.03160 0.27780 0.05300
C 	C 	0.22700 0.02880 0.24800 0.06100
O 	O 	0.20650 0.55570 0.74720 -0.13500
C 	C 	0.18380 0.55490 0.77170 -0.10000
H 	H 	0.19230 0.56690 0.79120 0.05500
H 	H 	0.16310 0.56550 0.76390 0.07400
H 	H 	0.17920 0.53160 0.77780 0.05400
C 	C 	0.22700 0.52880 0.74800 0.06000
O 	O 	0.70650 0.05570 0.74720 -0.13600
C 	C 	0.68380 0.05490 0.77170 -0.09900
H 	H 	0.69230 0.06690 0.79120 0.05400
H 	H 	0.66310 0.06550 0.76390 0.07400
H 	H 	0.67920 0.03160 0.77780 0.05400
C 	C 	0.72700 0.02880 0.74800 0.06100
O 	O 	0.70650 0.55570 0.24720 -0.13500
C 	C 	0.68380 0.55490 0.27170 -0.10000
H 	H 	0.69230 0.56690 0.29120 0.05500
H 	H 	0.66310 0.56550 0.26390 0.07400
H 	H 	0.67920 0.53160 0.27780 0.05400
C 	C 	0.72700 0.52880 0.24800 0.06000
O 	O 	0.20650 0.94430 0.75280 -0.13400
C 	C 	0.18380 0.94510 0.72830 -0.10300
H 	H 	0.19230 0.93310 0.70880 0.05600
H 	H 	0.16310 0.93450 0.73610 0.07600
H 	H 	0.17920 0.96840 0.72220 0.05700
C 	C 	0.22700 0.97120 0.75200 0.06300
O 	O 	0.20650 0.44430 0.25280 -0.13500
C 	C 	0.18380 0.44510 0.22830 -0.10000
H 	H 	0.19230 0.43310 0.20880 0.05500
H 	H 	0.16310 0.43450 0.23610 0.07400
H 	H 	0.17920 0.46840 0.22220 0.05400
C 	C 	0.22700 0.47120 0.25200 0.06000
O 	O 	0.70650 0.94430 0.25280 -0.13400
C 	C 	0.68380 0.94510 0.22830 -0.10300
H 	H 	0.69230 0.93310 0.20880 0.05600
H 	H 	0.66310 0.93450 0.23610 0.07600
H 	H 	0.67920 0.96840 0.22220 0.05700
C 	C 	0.72700 0.97120 0.25200 0.06300
O 	O 	0.70650 0.44430 0.75280 -0.13500
C 	C 	0.68380 0.44510 0.72830 -0.10000
H 	H 	0.69230 0.43310 0.70880 0.05500
H 	H 	0.66310 0.43450 0.73610 0.07400
H 	H 	0.67920 0.46840 0.72220 0.05400
C 	C 	0.72700 0.47120 0.75200 0.06000
O 	O 	0.79350 0.94430 0.24720 -0.13400
C 	C 	0.81620 0.94510 0.27170 -0.10400
H 	H 	0.80770 0.93310 0.29120 0.05600
H 	H 	0.83690 0.93450 0.26390 0.07600
H 	H 	0.82080 0.96840 0.27780 0.05800
C 	C 	0.77300 0.97120 0.24800 0.06300
O 	O 	0.79350 0.44430 0.74720 -0.13500
C 	C 	0.81620 0.44510 0.77170 -0.10100
H 	H 	0.80770 0.43310 0.79120 0.05500
H 	H 	0.83690 0.43450 0.76390 0.07500
H 	H 	0.82080 0.46840 0.77780 0.05500
C 	C 	0.77300 0.47120 0.74800 0.06000
O 	O 	0.29350 0.94430 0.74720 -0.13400
C 	C 	0.31620 0.94510 0.77170 -0.10300
H 	H 	0.30770 0.93310 0.79120 0.05600
H 	H 	0.33690 0.93450 0.76390 0.07600
H 	H 	0.32080 0.96840 0.77780 0.05700
C 	C 	0.27300 0.97120 0.74800 0.06300
O 	O 	0.29350 0.44430 0.24720 -0.13500
C 	C 	0.31620 0.44510 0.27170 -0.10000
H 	H 	0.30770 0.43310 0.29120 0.05500
H 	H 	0.33690 0.43450 0.26390 0.07400
H 	H 	0.32080 0.46840 0.27780 0.05400
C 	C 	0.27300 0.47120 0.24800 0.06000
O 	O 	0.79350 0.05570 0.75280 -0.13500
C 	C 	0.81620 0.05490 0.72830 -0.10000
H 	H 	0.80770 0.06690 0.70880 0.05500
H 	H 	0.83690 0.06550 0.73610 0.07400
H 	H 	0.82080 0.03160 0.72220 0.05400
C 	C 	0.77300 0.02880 0.75200 0.06000
O 	O 	0.79350 0.55570 0.25280 -0.13500
C 	C 	0.81620 0.55490 0.22830 -0.10100
H 	H 	0.80770 0.56690 0.20880 0.05500
H 	H 	0.83690 0.56550 0.23610 0.07400
H 	H 	0.82080 0.53160 0.22220 0.05500
C 	C 	0.77300 0.52880 0.25200 0.06000
O 	O 	0.29350 0.05570 0.25280 -0.13600
C 	C 	0.31620 0.05490 0.22830 -0.09900
H 	H 	0.30770 0.06690 0.20880 0.05400
H 	H 	0.33690 0.06550 0.23610 0.07300
H 	H 	0.32080 0.03160 0.22220 0.05300
C 	C 	0.27300 0.02880 0.25200 0.06100
O 	O 	0.29350 0.55570 0.75280 -0.13500
C 	C 	0.31620 0.55490 0.72830 -0.10000
H 	H 	0.30770 0.56690 0.70880 0.05500
H 	H 	0.33690 0.56550 0.73610 0.07400
H 	H 	0.32080 0.53160 0.72220 0.05400
C 	C 	0.27300 0.52880 0.75200 0.06000
O 	O 	0.24720 0.20650 0.05570 -0.13600
C 	C 	0.27170 0.18380 0.05490 -0.09900
H 	H 	0.29120 0.19230 0.06690 0.05400
H 	H 	0.26390 0.16310 0.06550 0.07300
H 	H 	0.27780 0.17920 0.03160 0.05300
C 	C 	0.24800 0.22700 0.02880 0.06100
O 	O 	0.24720 0.70650 0.55570 -0.13500
C 	C 	0.27170 0.68380 0.55490 -0.10000
H 	H 	0.29120 0.69230 0.56690 0.05500
H 	H 	0.26390 0.66310 0.56550 0.07400
H 	H 	0.27780 0.67920 0.53160 0.05400
C 	C 	0.24800 0.72700 0.52880 0.06000
O 	O 	0.74720 0.20650 0.55570 -0.13500
C 	C 	0.77170 0.18380 0.55490 -0.10000
H 	H 	0.79120 0.19230 0.56690 0.05500
H 	H 	0.76390 0.16310 0.56550 0.07400
H 	H 	0.77780 0.17920 0.53160 0.05400
C 	C 	0.74800 0.22700 0.52880 0.06000
O 	O 	0.74720 0.70650 0.05570 -0.13600
C 	C 	0.77170 0.68380 0.05490 -0.09900
H 	H 	0.79120 0.69230 0.06690 0.05400
H 	H 	0.76390 0.66310 0.06550 0.07400
H 	H 	0.77780 0.67920 0.03160 0.05400
C 	C 	0.74800 0.72700 0.02880 0.06100
O 	O 	0.75280 0.20650 0.94430 -0.13400
C 	C 	0.72830 0.18380 0.94510 -0.10300
H 	H 	0.70880 0.19230 0.93310 0.05600
H 	H 	0.73610 0.16310 0.93450 0.07600
H 	H 	0.72220 0.17920 0.96840 0.05700
C 	C 	0.75200 0.22700 0.97120 0.06300
O 	O 	0.75280 0.70650 0.44430 -0.13500
C 	C 	0.72830 0.68380 0.44510 -0.10000
H 	H 	0.70880 0.69230 0.43310 0.05500
H 	H 	0.73610 0.66310 0.43450 0.07400
H 	H 	0.72220 0.67920 0.46840 0.05400
C 	C 	0.75200 0.72700 0.47120 0.06000
O 	O 	0.25280 0.20650 0.44430 -0.13500
C 	C 	0.22830 0.18380 0.44510 -0.10000
H 	H 	0.20880 0.19230 0.43310 0.05500
H 	H 	0.23610 0.16310 0.43450 0.07400
H 	H 	0.22220 0.17920 0.46840 0.05400
C 	C 	0.25200 0.22700 0.47120 0.06000
O 	O 	0.25280 0.70650 0.94430 -0.13400
C 	C 	0.22830 0.68380 0.94510 -0.10300
H 	H 	0.20880 0.69230 0.93310 0.05600
H 	H 	0.23610 0.66310 0.93450 0.07600
H 	H 	0.22220 0.67920 0.96840 0.05700
C 	C 	0.25200 0.72700 0.97120 0.06300
O 	O 	0.24720 0.79350 0.94430 -0.13400
C 	C 	0.27170 0.81620 0.94510 -0.10400
H 	H 	0.29120 0.80770 0.93310 0.05600
H 	H 	0.26390 0.83690 0.93450 0.07600
H 	H 	0.27780 0.82080 0.96840 0.05800
C 	C 	0.24800 0.77300 0.97120 0.06300
O 	O 	0.24720 0.29350 0.44430 -0.13500
C 	C 	0.27170 0.31620 0.44510 -0.10000
H 	H 	0.29120 0.30770 0.43310 0.05500
H 	H 	0.26390 0.33690 0.43450 0.07400
H 	H 	0.27780 0.32080 0.46840 0.05400
C 	C 	0.24800 0.27300 0.47120 0.06000
O 	O 	0.74720 0.79350 0.44430 -0.13500
C 	C 	0.77170 0.81620 0.44510 -0.10100
H 	H 	0.79120 0.80770 0.43310 0.05500
H 	H 	0.76390 0.83690 0.43450 0.07500
H 	H 	0.77780 0.82080 0.46840 0.05500
C 	C 	0.74800 0.77300 0.47120 0.06000
O 	O 	0.74720 0.29350 0.94430 -0.13400
C 	C 	0.77170 0.31620 0.94510 -0.10300
H 	H 	0.79120 0.30770 0.93310 0.05600
H 	H 	0.76390 0.33690 0.93450 0.07600
H 	H 	0.77780 0.32080 0.96840 0.05700
C 	C 	0.74800 0.27300 0.97120 0.06300
O 	O 	0.75280 0.79350 0.05570 -0.13500
C 	C 	0.72830 0.81620 0.05490 -0.10000
H 	H 	0.70880 0.80770 0.06690 0.05500
H 	H 	0.73610 0.83690 0.06550 0.07400
H 	H 	0.72220 0.82080 0.03160 0.05400
C 	C 	0.75200 0.77300 0.02880 0.06000
O 	O 	0.75280 0.29350 0.55570 -0.13500
C 	C 	0.72830 0.31620 0.55490 -0.10000
H 	H 	0.70880 0.30770 0.56690 0.05500
H 	H 	0.73610 0.33690 0.56550 0.07400
H 	H 	0.72220 0.32080 0.53160 0.05400
C 	C 	0.75200 0.27300 0.52880 0.06000
O 	O 	0.25280 0.79350 0.55570 -0.13500
C 	C 	0.22830 0.81620 0.55490 -0.10100
H 	H 	0.20880 0.80770 0.56690 0.05500
H 	H 	0.23610 0.83690 0.56550 0.07400
H 	H 	0.22220 0.82080 0.53160 0.05500
C 	C 	0.25200 0.77300 0.52880 0.06000
O 	O 	0.25280 0.29350 0.05570 -0.13600
C 	C 	0.22830 0.31620 0.05490 -0.09900
H 	H 	0.20880 0.30770 0.06690 0.05400
H 	H 	0.23610 0.33690 0.06550 0.07300
H 	H 	0.22220 0.32080 0.03160 0.05300
C 	C 	0.25200 0.27300 0.02880 0.06100
O 	O 	0.24720 0.05570 0.79350 -0.13500
C 	C 	0.27170 0.05490 0.81620 -0.10000
H 	H 	0.29120 0.06690 0.80770 0.05500
H 	H 	0.26390 0.06550 0.83690 0.07400
H 	H 	0.27780 0.03160 0.82080 0.05400
C 	C 	0.24800 0.02880 0.77300 0.06000
O 	O 	0.24720 0.55570 0.29350 -0.13500
C 	C 	0.27170 0.55490 0.31620 -0.10000
H 	H 	0.29120 0.56690 0.30770 0.05500
H 	H 	0.26390 0.56550 0.33690 0.07400
H 	H 	0.27780 0.53160 0.32080 0.05400
C 	C 	0.24800 0.52880 0.27300 0.06000
O 	O 	0.74720 0.05570 0.29350 -0.13600
C 	C 	0.77170 0.05490 0.31620 -0.09900
H 	H 	0.79120 0.06690 0.30770 0.05400
H 	H 	0.76390 0.06550 0.33690 0.07400
H 	H 	0.77780 0.03160 0.32080 0.05400
C 	C 	0.74800 0.02880 0.27300 0.06100
O 	O 	0.74720 0.55570 0.79350 -0.13500
C 	C 	0.77170 0.55490 0.81620 -0.10100
H 	H 	0.79120 0.56690 0.80770 0.05500
H 	H 	0.76390 0.56550 0.83690 0.07400
H 	H 	0.77780 0.53160 0.82080 0.05500
C 	C 	0.74800 0.52880 0.77300 0.06000
O 	O 	0.75280 0.94430 0.79350 -0.13400
C 	C 	0.72830 0.94510 0.81620 -0.10400
H 	H 	0.70880 0.93310 0.80770 0.05600
H 	H 	0.73610 0.93450 0.83690 0.07600
H 	H 	0.72220 0.96840 0.82080 0.05800
C 	C 	0.75200 0.97120 0.77300 0.06300
O 	O 	0.75280 0.44430 0.29350 -0.13500
C 	C 	0.72830 0.44510 0.31620 -0.10000
H 	H 	0.70880 0.43310 0.30770 0.05500
H 	H 	0.73610 0.43450 0.33690 0.07400
H 	H 	0.72220 0.46840 0.32080 0.05400
C 	C 	0.75200 0.47120 0.27300 0.06000
O 	O 	0.25280 0.94430 0.29350 -0.13400
C 	C 	0.22830 0.94510 0.31620 -0.10300
H 	H 	0.20880 0.93310 0.30770 0.05600
H 	H 	0.23610 0.93450 0.33690 0.07600
H 	H 	0.22220 0.96840 0.32080 0.05700
C 	C 	0.25200 0.97120 0.27300 0.06300
O 	O 	0.25280 0.44430 0.79350 -0.13500
C 	C 	0.22830 0.44510 0.81620 -0.10100
H 	H 	0.20880 0.43310 0.80770 0.05500
H 	H 	0.23610 0.43450 0.83690 0.07400
H 	H 	0.22220 0.46840 0.82080 0.05500
C 	C 	0.25200 0.47120 0.77300 0.06000
O 	O 	0.24720 0.94430 0.20650 -0.13400
C 	C 	0.27170 0.94510 0.18380 -0.10300
H 	H 	0.29120 0.93310 0.19230 0.05600
H 	H 	0.26390 0.93450 0.16310 0.07600
H 	H 	0.27780 0.96840 0.17920 0.05700
C 	C 	0.24800 0.97120 0.22700 0.06300
O 	O 	0.24720 0.44430 0.70650 -0.13500
C 	C 	0.27170 0.44510 0.68380 -0.10000
H 	H 	0.29120 0.43310 0.69230 0.05500
H 	H 	0.26390 0.43450 0.66310 0.07400
H 	H 	0.27780 0.46840 0.67920 0.05400
C 	C 	0.24800 0.47120 0.72700 0.06000
O 	O 	0.74720 0.94430 0.70650 -0.13400
C 	C 	0.77170 0.94510 0.68380 -0.10300
H 	H 	0.79120 0.93310 0.69230 0.05600
H 	H 	0.76390 0.93450 0.66310 0.07600
H 	H 	0.77780 0.96840 0.67920 0.05700
C 	C 	0.74800 0.97120 0.72700 0.06300
O 	O 	0.74720 0.44430 0.20650 -0.13500
C 	C 	0.77170 0.44510 0.18380 -0.10000
H 	H 	0.79120 0.43310 0.19230 0.05500
H 	H 	0.76390 0.43450 0.16310 0.07400
H 	H 	0.77780 0.46840 0.17920 0.05400
C 	C 	0.74800 0.47120 0.22700 0.06000
O 	O 	0.75280 0.05570 0.20650 -0.13600
C 	C 	0.72830 0.05490 0.18380 -0.09900
H 	H 	0.70880 0.06690 0.19230 0.05400
H 	H 	0.73610 0.06550 0.16310 0.07300
H 	H 	0.72220 0.03160 0.17920 0.05300
C 	C 	0.75200 0.02880 0.22700 0.06100
O 	O 	0.75280 0.55570 0.70650 -0.13500
C 	C 	0.72830 0.55490 0.68380 -0.10000
H 	H 	0.70880 0.56690 0.69230 0.05500
H 	H 	0.73610 0.56550 0.66310 0.07400
H 	H 	0.72220 0.53160 0.67920 0.05400
C 	C 	0.75200 0.52880 0.72700 0.06000
O 	O 	0.25280 0.05570 0.70650 -0.13600
C 	C 	0.22830 0.05490 0.68380 -0.09900
H 	H 	0.20880 0.06690 0.69230 0.05400
H 	H 	0.23610 0.06550 0.66310 0.07300
H 	H 	0.22220 0.03160 0.67920 0.05300
C 	C 	0.25200 0.02880 0.72700 0.06100
O 	O 	0.25280 0.55570 0.20650 -0.13500
C 	C 	0.22830 0.55490 0.18380 -0.10000
H 	H 	0.20880 0.56690 0.19230 0.05500
H 	H 	0.23610 0.56550 0.16310 0.07400
H 	H 	0.22220 0.53160 0.17920 0.05400
C 	C 	0.25200 0.52880 0.22700 0.06000
O 	O 	0.05570 0.20650 0.75280 -0.13600
C 	C 	0.05490 0.18380 0.72830 -0.09900
H 	H 	0.06690 0.19230 0.70880 0.05400
H 	H 	0.06550 0.16310 0.73610 0.07300
H 	H 	0.03160 0.17920 0.72220 0.05300
C 	C 	0.02880 0.22700 0.75200 0.06100
O 	O 	0.05570 0.70650 0.25280 -0.13600
C 	C 	0.05490 0.68380 0.22830 -0.09900
H 	H 	0.06690 0.69230 0.20880 0.05400
H 	H 	0.06550 0.66310 0.23610 0.07300
H 	H 	0.03160 0.67920 0.22220 0.05300
C 	C 	0.02880 0.72700 0.25200 0.06100
O 	O 	0.55570 0.20650 0.25280 -0.13500
C 	C 	0.55490 0.18380 0.22830 -0.10000
H 	H 	0.56690 0.19230 0.20880 0.05500
H 	H 	0.56550 0.16310 0.23610 0.07400
H 	H 	0.53160 0.17920 0.22220 0.05400
C 	C 	0.52880 0.22700 0.25200 0.06000
O 	O 	0.55570 0.70650 0.75280 -0.13500
C 	C 	0.55490 0.68380 0.72830 -0.10000
H 	H 	0.56690 0.69230 0.70880 0.05500
H 	H 	0.56550 0.66310 0.73610 0.07400
H 	H 	0.53160 0.67920 0.72220 0.05400
C 	C 	0.52880 0.72700 0.75200 0.06000
O 	O 	0.94430 0.20650 0.24720 -0.13400
C 	C 	0.94510 0.18380 0.27170 -0.10300
H 	H 	0.93310 0.19230 0.29120 0.05600
H 	H 	0.93450 0.16310 0.26390 0.07600
H 	H 	0.96840 0.17920 0.27780 0.05700
C 	C 	0.97120 0.22700 0.24800 0.06300
O 	O 	0.94430 0.70650 0.74720 -0.13400
C 	C 	0.94510 0.68380 0.77170 -0.10300
H 	H 	0.93310 0.69230 0.79120 0.05600
H 	H 	0.93450 0.66310 0.76390 0.07600
H 	H 	0.96840 0.67920 0.77780 0.05700
C 	C 	0.97120 0.72700 0.74800 0.06300
O 	O 	0.44430 0.20650 0.74720 -0.13500
C 	C 	0.44510 0.18380 0.77170 -0.10000
H 	H 	0.43310 0.19230 0.79120 0.05500
H 	H 	0.43450 0.16310 0.76390 0.07400
H 	H 	0.46840 0.17920 0.77780 0.05400
C 	C 	0.47120 0.22700 0.74800 0.06000
O 	O 	0.44430 0.70650 0.24720 -0.13500
C 	C 	0.44510 0.68380 0.27170 -0.10000
H 	H 	0.43310 0.69230 0.29120 0.05500
H 	H 	0.43450 0.66310 0.26390 0.07400
H 	H 	0.46840 0.67920 0.27780 0.05400
C 	C 	0.47120 0.72700 0.24800 0.06000
O 	O 	0.94430 0.79350 0.75280 -0.13400
C 	C 	0.94510 0.81620 0.72830 -0.10400
H 	H 	0.93310 0.80770 0.70880 0.05600
H 	H 	0.93450 0.83690 0.73610 0.07600
H 	H 	0.96840 0.82080 0.72220 0.05800
C 	C 	0.97120 0.77300 0.75200 0.06300
O 	O 	0.94430 0.29350 0.25280 -0.13400
C 	C 	0.94510 0.31620 0.22830 -0.10300
H 	H 	0.93310 0.30770 0.20880 0.05600
H 	H 	0.93450 0.33690 0.23610 0.07600
H 	H 	0.96840 0.32080 0.22220 0.05700
C 	C 	0.97120 0.27300 0.25200 0.06300
O 	O 	0.44430 0.79350 0.25280 -0.13500
C 	C 	0.44510 0.81620 0.22830 -0.10100
H 	H 	0.43310 0.80770 0.20880 0.05500
H 	H 	0.43450 0.83690 0.23610 0.07400
H 	H 	0.46840 0.82080 0.22220 0.05500
C 	C 	0.47120 0.77300 0.25200 0.06000
O 	O 	0.44430 0.29350 0.75280 -0.13500
C 	C 	0.44510 0.31620 0.72830 -0.10000
H 	H 	0.43310 0.30770 0.70880 0.05500
H 	H 	0.43450 0.33690 0.73610 0.07400
H 	H 	0.46840 0.32080 0.72220 0.05400
C 	C 	0.47120 0.27300 0.75200 0.06000
O 	O 	0.05570 0.79350 0.24720 -0.13500
C 	C 	0.05490 0.81620 0.27170 -0.10000
H 	H 	0.06690 0.80770 0.29120 0.05500
H 	H 	0.06550 0.83690 0.26390 0.07400
H 	H 	0.03160 0.82080 0.27780 0.05400
C 	C 	0.02880 0.77300 0.24800 0.06000
O 	O 	0.05570 0.29350 0.74720 -0.13600
C 	C 	0.05490 0.31620 0.77170 -0.09900
H 	H 	0.06690 0.30770 0.79120 0.05400
H 	H 	0.06550 0.33690 0.76390 0.07400
H 	H 	0.03160 0.32080 0.77780 0.05400
C 	C 	0.02880 0.27300 0.74800 0.06100
O 	O 	0.55570 0.79350 0.74720 -0.13500
C 	C 	0.55490 0.81620 0.77170 -0.10100
H 	H 	0.56690 0.80770 0.79120 0.05500
H 	H 	0.56550 0.83690 0.76390 0.07400
H 	H 	0.53160 0.82080 0.77780 0.05500
C 	C 	0.52880 0.77300 0.74800 0.06000
O 	O 	0.55570 0.29350 0.24720 -0.13500
C 	C 	0.55490 0.31620 0.27170 -0.10000
H 	H 	0.56690 0.30770 0.29120 0.05500
H 	H 	0.56550 0.33690 0.26390 0.07400
H 	H 	0.53160 0.32080 0.27780 0.05400
C 	C 	0.52880 0.27300 0.24800 0.06000
O 	O 	0.20650 0.24720 0.94430 -0.13400
C 	C 	0.18380 0.27170 0.94510 -0.10300
H 	H 	0.19230 0.29120 0.93310 0.05600
H 	H 	0.16310 0.26390 0.93450 0.07600
H 	H 	0.17920 0.27780 0.96840 0.05700
C 	C 	0.22700 0.24800 0.97120 0.06300
O 	O 	0.20650 0.74720 0.44430 -0.13500
C 	C 	0.18380 0.77170 0.44510 -0.10000
H 	H 	0.19230 0.79120 0.43310 0.05500
H 	H 	0.16310 0.76390 0.43450 0.07400
H 	H 	0.17920 0.77780 0.46840 0.05400
C 	C 	0.22700 0.74800 0.47120 0.06000
O 	O 	0.70650 0.24720 0.44430 -0.13500
C 	C 	0.68380 0.27170 0.44510 -0.10000
H 	H 	0.69230 0.29120 0.43310 0.05500
H 	H 	0.66310 0.26390 0.43450 0.07400
H 	H 	0.67920 0.27780 0.46840 0.05400
C 	C 	0.72700 0.24800 0.47120 0.06000
O 	O 	0.70650 0.74720 0.94430 -0.13400
C 	C 	0.68380 0.77170 0.94510 -0.10300
H 	H 	0.69230 0.79120 0.93310 0.05600
H 	H 	0.66310 0.76390 0.93450 0.07600
H 	H 	0.67920 0.77780 0.96840 0.05700
C 	C 	0.72700 0.74800 0.97120 0.06300
O 	O 	0.20650 0.75280 0.05570 -0.13600
C 	C 	0.18380 0.72830 0.05490 -0.09900
H 	H 	0.19230 0.70880 0.06690 0.05400
H 	H 	0.16310 0.73610 0.06550 0.07300
H 	H 	0.17920 0.72220 0.03160 0.05300
C 	C 	0.22700 0.75200 0.02880 0.06100
O 	O 	0.20650 0.25280 0.55570 -0.13500
C 	C 	0.18380 0.22830 0.55490 -0.10000
H 	H 	0.19230 0.20880 0.56690 0.05500
H 	H 	0.16310 0.23610 0.56550 0.07400
H 	H 	0.17920 0.22220 0.53160 0.05400
C 	C 	0.22700 0.25200 0.52880 0.06000
O 	O 	0.70650 0.75280 0.55570 -0.13500
C 	C 	0.68380 0.72830 0.55490 -0.10000
H 	H 	0.69230 0.70880 0.56690 0.05500
H 	H 	0.66310 0.73610 0.56550 0.07400
H 	H 	0.67920 0.72220 0.53160 0.05400
C 	C 	0.72700 0.75200 0.52880 0.06000
O 	O 	0.70650 0.25280 0.05570 -0.13600
C 	C 	0.68380 0.22830 0.05490 -0.09900
H 	H 	0.69230 0.20880 0.06690 0.05400
H 	H 	0.66310 0.23610 0.06550 0.07300
H 	H 	0.67920 0.22220 0.03160 0.05300
C 	C 	0.72700 0.25200 0.02880 0.06100
O 	O 	0.79350 0.24720 0.05570 -0.13500
C 	C 	0.81620 0.27170 0.05490 -0.10000
H 	H 	0.80770 0.29120 0.06690 0.05500
H 	H 	0.83690 0.26390 0.06550 0.07400
H 	H 	0.82080 0.27780 0.03160 0.05400
C 	C 	0.77300 0.24800 0.02880 0.06000
O 	O 	0.79350 0.74720 0.55570 -0.13500
C 	C 	0.81620 0.77170 0.55490 -0.10100
H 	H 	0.80770 0.79120 0.56690 0.05500
H 	H 	0.83690 0.76390 0.56550 0.07400
H 	H 	0.82080 0.77780 0.53160 0.05500
C 	C 	0.77300 0.74800 0.52880 0.06000
O 	O 	0.29350 0.24720 0.55570 -0.13500
C 	C 	0.31620 0.27170 0.55490 -0.10000
H 	H 	0.30770 0.29120 0.56690 0.05500
H 	H 	0.33690 0.26390 0.56550 0.07400
H 	H 	0.32080 0.27780 0.53160 0.05400
C 	C 	0.27300 0.24800 0.52880 0.06000
O 	O 	0.29350 0.74720 0.05570 -0.13600
C 	C 	0.31620 0.77170 0.05490 -0.09900
H 	H 	0.30770 0.79120 0.06690 0.05400
H 	H 	0.33690 0.76390 0.06550 0.07400
H 	H 	0.32080 0.77780 0.03160 0.05400
C 	C 	0.27300 0.74800 0.02880 0.06100
O 	O 	0.79350 0.75280 0.94430 -0.13400
C 	C 	0.81620 0.72830 0.94510 -0.10400
H 	H 	0.80770 0.70880 0.93310 0.05600
H 	H 	0.83690 0.73610 0.93450 0.07600
H 	H 	0.82080 0.72220 0.96840 0.05800
C 	C 	0.77300 0.75200 0.97120 0.06300
O 	O 	0.79350 0.25280 0.44430 -0.13500
C 	C 	0.81620 0.22830 0.44510 -0.10100
H 	H 	0.80770 0.20880 0.43310 0.05500
H 	H 	0.83690 0.23610 0.43450 0.07400
H 	H 	0.82080 0.22220 0.46840 0.05500
C 	C 	0.77300 0.25200 0.47120 0.06000
O 	O 	0.29350 0.75280 0.44430 -0.13500
C 	C 	0.31620 0.72830 0.44510 -0.10000
H 	H 	0.30770 0.70880 0.43310 0.05500
H 	H 	0.33690 0.73610 0.43450 0.07400
H 	H 	0.32080 0.72220 0.46840 0.05400
C 	C 	0.27300 0.75200 0.47120 0.06000
O 	O 	0.29350 0.25280 0.94430 -0.13400
C 	C 	0.31620 0.22830 0.94510 -0.10300
H 	H 	0.30770 0.20880 0.93310 0.05600
H 	H 	0.33690 0.23610 0.93450 0.07600
H 	H 	0.32080 0.22220 0.96840 0.05700
C 	C 	0.27300 0.25200 0.97120 0.06300
Cu	Cu	0.00000 0.82720 -0.00000 0.90100
Cu	Cu	-0.00000 0.76156 -0.00000 0.89800
Cu	Cu	0.00000 0.32720 0.50000 0.90200
Cu	Cu	0.00000 0.26156 0.50000 0.89900
Cu	Cu	0.50000 0.82720 0.50000 0.90300
Cu	Cu	0.50000 0.76156 0.50000 0.90000
Cu	Cu	0.50000 0.32720 -0.00000 0.90200
Cu	Cu	0.50000 0.26156 -0.00000 0.89900
Cu	Cu	-0.00000 0.17280 -0.00000 0.90000
Cu	Cu	0.00000 0.23844 -0.00000 0.89800
Cu	Cu	-0.00000 0.67280 0.50000 0.90200
Cu	Cu	-0.00000 0.73844 0.50000 0.89900
Cu	Cu	0.50000 0.17280 0.50000 0.90300
Cu	Cu	0.50000 0.23844 0.50000 0.90000
Cu	Cu	0.50000 0.67280 -0.00000 0.90200
Cu	Cu	0.50000 0.73844 -0.00000 0.89900
Cu	Cu	0.00000 0.00000 0.82720 0.90100
Cu	Cu	0.00000 0.00000 0.76156 0.89800
Cu	Cu	0.00000 0.50000 0.32720 0.90200
Cu	Cu	0.00000 0.50000 0.26156 0.89900
Cu	Cu	0.50000 0.00000 0.32720 0.90200
Cu	Cu	0.50000 0.00000 0.26156 0.89900
Cu	Cu	0.50000 0.50000 0.82720 0.90300
Cu	Cu	0.50000 0.50000 0.76156 0.90000
Cu	Cu	0.00000 0.00000 0.17280 0.90000
Cu	Cu	0.00000 0.00000 0.23844 0.89800
Cu	Cu	-0.00000 0.50000 0.67280 0.90200
Cu	Cu	-0.00000 0.50000 0.73844 0.89900
Cu	Cu	0.50000 0.00000 0.67280 0.90200
Cu	Cu	0.50000 0.00000 0.73844 0.89900
Cu	Cu	0.50000 0.50000 0.17280 0.90300
Cu	Cu	0.50000 0.50000 0.23844 0.90000
Cu	Cu	0.82720 0.00000 -0.00000 0.90100
Cu	Cu	0.76156 0.00000 -0.00000 0.89800
Cu	Cu	0.82720 0.50000 0.50000 0.90300
Cu	Cu	0.76156 0.50000 0.50000 0.90000
Cu	Cu	0.32720 0.00000 0.50000 0.90200
Cu	Cu	0.26156 0.00000 0.50000 0.89900
Cu	Cu	0.32720 0.50000 -0.00000 0.90200
Cu	Cu	0.26156 0.50000 -0.00000 0.89900
Cu	Cu	0.17280 0.00000 -0.00000 0.90000
Cu	Cu	0.23844 0.00000 -0.00000 0.89800
Cu	Cu	0.17280 0.50000 0.50000 0.90300
Cu	Cu	0.23844 0.50000 0.50000 0.90000
Cu	Cu	0.67280 0.00000 0.50000 0.90200
Cu	Cu	0.73844 0.00000 0.50000 0.89900
Cu	Cu	0.67280 0.50000 -0.00000 0.90200
Cu	Cu	0.73844 0.50000 -0.00000 0.89900
O 	O 	0.00000 0.82321 0.95129 -0.40900
O 	O 	-0.00000 0.76583 0.95156 -0.40000
C 	C 	-0.00000 0.79550 0.93854 0.34200
C 	C 	0.00000 0.79520 0.89990 -0.08100
C 	C 	0.00000 0.82500 0.88450 -0.00700
H 	H 	0.00000 0.84520 0.89700 0.05700
C 	C 	-0.00000 0.82560 0.84860 -0.02100
C 	C 	-0.00000 0.79480 0.83460 0.10800
C 	C 	0.00000 0.76450 0.85100 -0.12700
H 	H 	0.00000 0.74390 0.83920 0.07000
C 	C 	0.00000 0.76560 0.88330 0.04400
H 	H 	0.00000 0.74540 0.89560 0.02900
O 	O 	-0.00000 0.32321 0.45129 -0.41300
O 	O 	-0.00000 0.26583 0.45156 -0.40300
C 	C 	-0.00000 0.29550 0.43854 0.34200
C 	C 	0.00000 0.29520 0.39990 -0.08200
C 	C 	0.00000 0.32500 0.38450 -0.00700
H 	H 	-0.00000 0.34520 0.39700 0.05600
C 	C 	0.00000 0.32560 0.34860 -0.02200
C 	C 	0.00000 0.29480 0.33460 0.10900
C 	C 	0.00000 0.26450 0.35100 -0.12800
H 	H 	0.00000 0.24390 0.33920 0.07100
C 	C 	0.00000 0.26560 0.38330 0.04400
H 	H 	0.00000 0.24540 0.39560 0.02800
O 	O 	0.50000 0.82321 0.45129 -0.41100
O 	O 	0.50000 0.76583 0.45156 -0.40100
C 	C 	0.50000 0.79550 0.43854 0.34200
C 	C 	0.50000 0.79520 0.39990 -0.08100
C 	C 	0.50000 0.82500 0.38450 -0.00600
H 	H 	0.50000 0.84520 0.39700 0.05700
C 	C 	0.50000 0.82560 0.34860 -0.02200
C 	C 	0.50000 0.79480 0.33460 0.11000
C 	C 	0.50000 0.76450 0.35100 -0.12800
H 	H 	0.50000 0.74390 0.33920 0.07200
C 	C 	0.50000 0.76560 0.38330 0.04500
H 	H 	0.50000 0.74540 0.39560 0.02900
O 	O 	0.50000 0.32321 0.95129 -0.40800
O 	O 	0.50000 0.26583 0.95156 -0.39800
C 	C 	0.50000 0.29550 0.93854 0.34200
C 	C 	0.50000 0.29520 0.89990 -0.08000
C 	C 	0.50000 0.32500 0.88450 -0.00700
H 	H 	0.50000 0.34520 0.89700 0.05700
C 	C 	0.50000 0.32560 0.84860 -0.02100
C 	C 	0.50000 0.29480 0.83460 0.10900
C 	C 	0.50000 0.26450 0.85100 -0.12700
H 	H 	0.50000 0.24390 0.83920 0.07200
C 	C 	0.50000 0.26560 0.88330 0.04400
H 	H 	0.50000 0.24540 0.89560 0.02900
O 	O 	0.00000 0.17679 0.95129 -0.40900
O 	O 	-0.00000 0.23417 0.95156 -0.40000
C 	C 	-0.00000 0.20450 0.93854 0.34200
C 	C 	0.00000 0.20480 0.89990 -0.08100
C 	C 	0.00000 0.17500 0.88450 -0.00700
H 	H 	0.00000 0.15480 0.89700 0.05700
C 	C 	0.00000 0.17440 0.84860 -0.02100
C 	C 	-0.00000 0.20520 0.83460 0.10800
C 	C 	0.00000 0.23550 0.85100 -0.12700
H 	H 	0.00000 0.25610 0.83920 0.07000
C 	C 	0.00000 0.23440 0.88330 0.04400
H 	H 	-0.00000 0.25460 0.89560 0.02900
O 	O 	0.00000 0.67679 0.45129 -0.41300
O 	O 	0.00000 0.73417 0.45156 -0.40300
C 	C 	0.00000 0.70450 0.43854 0.34200
C 	C 	0.00000 0.70480 0.39990 -0.08200
C 	C 	0.00000 0.67500 0.38450 -0.00700
H 	H 	-0.00000 0.65480 0.39700 0.05600
C 	C 	0.00000 0.67440 0.34860 -0.02200
C 	C 	0.00000 0.70520 0.33460 0.10800
C 	C 	0.00000 0.73550 0.35100 -0.12800
H 	H 	0.00000 0.75610 0.33920 0.07100
C 	C 	0.00000 0.73440 0.38330 0.04400
H 	H 	-0.00000 0.75460 0.39560 0.02800
O 	O 	0.50000 0.17679 0.45129 -0.41100
O 	O 	0.50000 0.23417 0.45156 -0.40200
C 	C 	0.50000 0.20450 0.43854 0.34200
C 	C 	0.50000 0.20480 0.39990 -0.08200
C 	C 	0.50000 0.17500 0.38450 -0.00700
H 	H 	0.50000 0.15480 0.39700 0.05600
C 	C 	0.50000 0.17440 0.34860 -0.02200
C 	C 	0.50000 0.20520 0.33460 0.11000
C 	C 	0.50000 0.23550 0.35100 -0.12800
H 	H 	0.50000 0.25610 0.33920 0.07200
C 	C 	0.50000 0.23440 0.38330 0.04500
H 	H 	0.50000 0.25460 0.39560 0.02900
O 	O 	0.50000 0.67679 0.95129 -0.40800
O 	O 	0.50000 0.73417 0.95156 -0.39800
C 	C 	0.50000 0.70450 0.93854 0.34200
C 	C 	0.50000 0.70480 0.89990 -0.08000
C 	C 	0.50000 0.67500 0.88450 -0.00700
H 	H 	0.50000 0.65480 0.89700 0.05700
C 	C 	0.50000 0.67440 0.84860 -0.02100
C 	C 	0.50000 0.70520 0.83460 0.10900
C 	C 	0.50000 0.73550 0.85100 -0.12700
H 	H 	0.50000 0.75610 0.83920 0.07200
C 	C 	0.50000 0.73440 0.88330 0.04400
H 	H 	0.50000 0.75460 0.89560 0.03000
O 	O 	0.00000 0.82321 0.04871 -0.41200
O 	O 	-0.00000 0.76583 0.04844 -0.40300
C 	C 	0.00000 0.79550 0.06146 0.34200
C 	C 	0.00000 0.79520 0.10010 -0.08200
C 	C 	-0.00000 0.82500 0.11550 -0.00700
H 	H 	-0.00000 0.84520 0.10300 0.05600
C 	C 	0.00000 0.82560 0.15140 -0.02200
C 	C 	-0.00000 0.79480 0.16540 0.10900
C 	C 	-0.00000 0.76450 0.14900 -0.12800
H 	H 	0.00000 0.74390 0.16080 0.07100
C 	C 	0.00000 0.76560 0.11670 0.04500
H 	H 	-0.00000 0.74540 0.10440 0.02800
O 	O 	0.00000 0.32321 0.54871 -0.41300
O 	O 	0.00000 0.26583 0.54844 -0.40300
C 	C 	0.00000 0.29550 0.56146 0.34200
C 	C 	0.00000 0.29520 0.60010 -0.08200
C 	C 	-0.00000 0.32500 0.61550 -0.00700
H 	H 	-0.00000 0.34520 0.60300 0.05600
C 	C 	0.00000 0.32560 0.65140 -0.02200
C 	C 	0.00000 0.29480 0.66540 0.10900
C 	C 	0.00000 0.26450 0.64900 -0.12800
H 	H 	0.00000 0.24390 0.66080 0.07100
C 	C 	0.00000 0.26560 0.61670 0.04500
H 	H 	-0.00000 0.24540 0.60440 0.02800
O 	O 	0.50000 0.82321 0.54871 -0.41100
O 	O 	0.50000 0.76583 0.54844 -0.40200
C 	C 	0.50000 0.79550 0.56146 0.34200
C 	C 	0.50000 0.79520 0.60010 -0.08100
C 	C 	0.50000 0.82500 0.61550 -0.00600
H 	H 	0.50000 0.84520 0.60300 0.05700
C 	C 	0.50000 0.82560 0.65140 -0.02200
C 	C 	0.50000 0.79480 0.66540 0.11000
C 	C 	0.50000 0.76450 0.64900 -0.12800
H 	H 	0.50000 0.74390 0.66080 0.07200
C 	C 	0.50000 0.76560 0.61670 0.04500
H 	H 	0.50000 0.74540 0.60440 0.02900
O 	O 	0.50000 0.32321 0.04871 -0.41200
O 	O 	0.50000 0.26583 0.04844 -0.40200
C 	C 	0.50000 0.29550 0.06146 0.34300
C 	C 	0.50000 0.29520 0.10010 -0.08200
C 	C 	0.50000 0.32500 0.11550 -0.00600
H 	H 	0.50000 0.34520 0.10300 0.05600
C 	C 	0.50000 0.32560 0.15140 -0.02200
C 	C 	0.50000 0.29480 0.16540 0.11000
C 	C 	0.50000 0.26450 0.14900 -0.12800
H 	H 	0.50000 0.24390 0.16080 0.07200
C 	C 	0.50000 0.26560 0.11670 0.04500
H 	H 	0.50000 0.24540 0.10440 0.02800
O 	O 	-0.00000 0.17679 0.04871 -0.41300
O 	O 	0.00000 0.23417 0.04844 -0.40300
C 	C 	0.00000 0.20450 0.06146 0.34200
C 	C 	0.00000 0.20480 0.10010 -0.08200
C 	C 	0.00000 0.17500 0.11550 -0.00700
H 	H 	-0.00000 0.15480 0.10300 0.05600
C 	C 	0.00000 0.17440 0.15140 -0.02200
C 	C 	-0.00000 0.20520 0.16540 0.10900
C 	C 	0.00000 0.23550 0.14900 -0.12800
H 	H 	-0.00000 0.25610 0.16080 0.07100
C 	C 	-0.00000 0.23440 0.11670 0.04500
H 	H 	0.00000 0.25460 0.10440 0.02800
O 	O 	0.00000 0.67679 0.54871 -0.41300
O 	O 	0.00000 0.73417 0.54844 -0.40300
C 	C 	0.00000 0.70450 0.56146 0.34200
C 	C 	0.00000 0.70480 0.60010 -0.08200
C 	C 	0.00000 0.67500 0.61550 -0.00700
H 	H 	0.00000 0.65480 0.60300 0.05600
C 	C 	0.00000 0.67440 0.65140 -0.02200
C 	C 	0.00000 0.70520 0.66540 0.10800
C 	C 	0.00000 0.73550 0.64900 -0.12800
H 	H 	0.00000 0.75610 0.66080 0.07100
C 	C 	0.00000 0.73440 0.61670 0.04400
H 	H 	-0.00000 0.75460 0.60440 0.02800
O 	O 	0.50000 0.17679 0.54871 -0.41200
O 	O 	0.50000 0.23417 0.54844 -0.40200
C 	C 	0.50000 0.20450 0.56146 0.34200
C 	C 	0.50000 0.20480 0.60010 -0.08200
C 	C 	0.50000 0.17500 0.61550 -0.00600
H 	H 	0.50000 0.15480 0.60300 0.05600
C 	C 	0.50000 0.17440 0.65140 -0.02200
C 	C 	0.50000 0.20520 0.66540 0.11000
C 	C 	0.50000 0.23550 0.64900 -0.12800
H 	H 	0.50000 0.25610 0.66080 0.07200
C 	C 	0.50000 0.23440 0.61670 0.04500
H 	H 	0.50000 0.25460 0.60440 0.02900
O 	O 	0.50000 0.67679 0.04871 -0.41200
O 	O 	0.50000 0.73417 0.04844 -0.40200
C 	C 	0.50000 0.70450 0.06146 0.34300
C 	C 	0.50000 0.70480 0.10010 -0.08200
C 	C 	0.50000 0.67500 0.11550 -0.00600
H 	H 	0.50000 0.65480 0.10300 0.05600
C 	C 	0.50000 0.67440 0.15140 -0.02200
C 	C 	0.50000 0.70520 0.16540 0.11000
C 	C 	0.50000 0.73550 0.14900 -0.12800
H 	H 	0.50000 0.75610 0.16080 0.07200
C 	C 	0.50000 0.73440 0.11670 0.04500
H 	H 	0.50000 0.75460 0.10440 0.02900
O 	O 	0.95129 0.00000 0.82321 -0.40900
O 	O 	0.95156 0.00000 0.76583 -0.40000
C 	C 	0.93854 0.00000 0.79550 0.34200
C 	C 	0.89990 0.00000 0.79520 -0.08100
C 	C 	0.88450 0.00000 0.82500 -0.00700
H 	H 	0.89700 0.00000 0.84520 0.05700
C 	C 	0.84860 0.00000 0.82560 -0.02100
C 	C 	0.83460 0.00000 0.79480 0.10800
C 	C 	0.85100 0.00000 0.76450 -0.12700
H 	H 	0.83920 0.00000 0.74390 0.07000
C 	C 	0.88330 0.00000 0.76560 0.04400
H 	H 	0.89560 0.00000 0.74540 0.02900
O 	O 	0.95129 0.50000 0.32321 -0.40800
O 	O 	0.95156 0.50000 0.26583 -0.39800
C 	C 	0.93854 0.50000 0.29550 0.34200
C 	C 	0.89990 0.50000 0.29520 -0.08000
C 	C 	0.88450 0.50000 0.32500 -0.00700
H 	H 	0.89700 0.50000 0.34520 0.05700
C 	C 	0.84860 0.50000 0.32560 -0.02100
C 	C 	0.83460 0.50000 0.29480 0.10900
C 	C 	0.85100 0.50000 0.26450 -0.12700
H 	H 	0.83920 0.50000 0.24390 0.07200
C 	C 	0.88330 0.50000 0.26560 0.04400
H 	H 	0.89560 0.50000 0.24540 0.02900
O 	O 	0.45129 0.00000 0.32321 -0.41300
O 	O 	0.45156 0.00000 0.26583 -0.40300
C 	C 	0.43854 0.00000 0.29550 0.34200
C 	C 	0.39990 0.00000 0.29520 -0.08200
C 	C 	0.38450 0.00000 0.32500 -0.00700
H 	H 	0.39700 0.00000 0.34520 0.05600
C 	C 	0.34860 0.00000 0.32560 -0.02200
C 	C 	0.33460 0.00000 0.29480 0.10900
C 	C 	0.35100 0.00000 0.26450 -0.12800
H 	H 	0.33920 0.00000 0.24390 0.07100
C 	C 	0.38330 0.00000 0.26560 0.04400
H 	H 	0.39560 0.00000 0.24540 0.02800
O 	O 	0.45129 0.50000 0.82321 -0.41100
O 	O 	0.45156 0.50000 0.76583 -0.40100
C 	C 	0.43854 0.50000 0.79550 0.34200
C 	C 	0.39990 0.50000 0.79520 -0.08100
C 	C 	0.38450 0.50000 0.82500 -0.00600
H 	H 	0.39700 0.50000 0.84520 0.05700
C 	C 	0.34860 0.50000 0.82560 -0.02200
C 	C 	0.33460 0.50000 0.79480 0.11000
C 	C 	0.35100 0.50000 0.76450 -0.12800
H 	H 	0.33920 0.50000 0.74390 0.07200
C 	C 	0.38330 0.50000 0.76560 0.04500
H 	H 	0.39560 0.50000 0.74540 0.02900
O 	O 	0.95129 0.00000 0.17679 -0.40900
O 	O 	0.95156 0.00000 0.23417 -0.40000
C 	C 	0.93854 0.00000 0.20450 0.34200
C 	C 	0.89990 0.00000 0.20480 -0.08100
C 	C 	0.88450 0.00000 0.17500 -0.00700
H 	H 	0.89700 0.00000 0.15480 0.05700
C 	C 	0.84860 0.00000 0.17440 -0.02100
C 	C 	0.83460 -0.00000 0.20520 0.10800
C 	C 	0.85100 0.00000 0.23550 -0.12700
H 	H 	0.83920 -0.00000 0.25610 0.07000
C 	C 	0.88330 0.00000 0.23440 0.04400
H 	H 	0.89560 0.00000 0.25460 0.02900
O 	O 	0.95129 0.50000 0.67679 -0.40800
O 	O 	0.95156 0.50000 0.73417 -0.39800
C 	C 	0.93854 0.50000 0.70450 0.34200
C 	C 	0.89990 0.50000 0.70480 -0.08000
C 	C 	0.88450 0.50000 0.67500 -0.00700
H 	H 	0.89700 0.50000 0.65480 0.05700
C 	C 	0.84860 0.50000 0.67440 -0.02100
C 	C 	0.83460 0.50000 0.70520 0.10900
C 	C 	0.85100 0.50000 0.73550 -0.12700
H 	H 	0.83920 0.50000 0.75610 0.07200
C 	C 	0.88330 0.50000 0.73440 0.04400
H 	H 	0.89560 0.50000 0.75460 0.03000
O 	O 	0.45129 0.00000 0.67679 -0.41300
O 	O 	0.45156 0.00000 0.73417 -0.40300
C 	C 	0.43854 0.00000 0.70450 0.34200
C 	C 	0.39990 0.00000 0.70480 -0.08200
C 	C 	0.38450 0.00000 0.67500 -0.00700
H 	H 	0.39700 0.00000 0.65480 0.05600
C 	C 	0.34860 0.00000 0.67440 -0.02200
C 	C 	0.33460 0.00000 0.70520 0.10800
C 	C 	0.35100 -0.00000 0.73550 -0.12800
H 	H 	0.33920 0.00000 0.75610 0.07100
C 	C 	0.38330 0.00000 0.73440 0.04400
H 	H 	0.39560 0.00000 0.75460 0.02800
O 	O 	0.45129 0.50000 0.17679 -0.41100
O 	O 	0.45156 0.50000 0.23417 -0.40200
C 	C 	0.43854 0.50000 0.20450 0.34200
C 	C 	0.39990 0.50000 0.20480 -0.08200
C 	C 	0.38450 0.50000 0.17500 -0.00700
H 	H 	0.39700 0.50000 0.15480 0.05600
C 	C 	0.34860 0.50000 0.17440 -0.02200
C 	C 	0.33460 0.50000 0.20520 0.11000
C 	C 	0.35100 0.50000 0.23550 -0.12800
H 	H 	0.33920 0.50000 0.25610 0.07200
C 	C 	0.38330 0.50000 0.23440 0.04500
H 	H 	0.39560 0.50000 0.25460 0.02900
O 	O 	0.04871 0.00000 0.82321 -0.41200
O 	O 	0.04844 0.00000 0.76583 -0.40300
C 	C 	0.06146 0.00000 0.79550 0.34200
C 	C 	0.10010 0.00000 0.79520 -0.08200
C 	C 	0.11550 0.00000 0.82500 -0.00700
H 	H 	0.10300 0.00000 0.84520 0.05600
C 	C 	0.15140 0.00000 0.82560 -0.02200
C 	C 	0.16540 0.00000 0.79480 0.10900
C 	C 	0.14900 0.00000 0.76450 -0.12800
H 	H 	0.16080 0.00000 0.74390 0.07100
C 	C 	0.11670 0.00000 0.76560 0.04500
H 	H 	0.10440 0.00000 0.74540 0.02800
O 	O 	0.04871 0.50000 0.32321 -0.41200
O 	O 	0.04844 0.50000 0.26583 -0.40200
C 	C 	0.06146 0.50000 0.29550 0.34300
C 	C 	0.10010 0.50000 0.29520 -0.08200
C 	C 	0.11550 0.50000 0.32500 -0.00600
H 	H 	0.10300 0.50000 0.34520 0.05600
C 	C 	0.15140 0.50000 0.32560 -0.02200
C 	C 	0.16540 0.50000 0.29480 0.11000
C 	C 	0.14900 0.50000 0.26450 -0.12800
H 	H 	0.16080 0.50000 0.24390 0.07200
C 	C 	0.11670 0.50000 0.26560 0.04500
H 	H 	0.10440 0.50000 0.24540 0.02800
O 	O 	0.54871 0.00000 0.32321 -0.41300
O 	O 	0.54844 0.00000 0.26583 -0.40300
C 	C 	0.56146 0.00000 0.29550 0.34200
C 	C 	0.60010 0.00000 0.29520 -0.08200
C 	C 	0.61550 0.00000 0.32500 -0.00700
H 	H 	0.60300 0.00000 0.34520 0.05600
C 	C 	0.65140 0.00000 0.32560 -0.02200
C 	C 	0.66540 0.00000 0.29480 0.10900
C 	C 	0.64900 0.00000 0.26450 -0.12800
H 	H 	0.66080 0.00000 0.24390 0.07100
C 	C 	0.61670 0.00000 0.26560 0.04500
H 	H 	0.60440 0.00000 0.24540 0.02800
O 	O 	0.54871 0.50000 0.82321 -0.41100
O 	O 	0.54844 0.50000 0.76583 -0.40200
C 	C 	0.56146 0.50000 0.79550 0.34200
C 	C 	0.60010 0.50000 0.79520 -0.08100
C 	C 	0.61550 0.50000 0.82500 -0.00600
H 	H 	0.60300 0.50000 0.84520 0.05700
C 	C 	0.65140 0.50000 0.82560 -0.02200
C 	C 	0.66540 0.50000 0.79480 0.11000
C 	C 	0.64900 0.50000 0.76450 -0.12800
H 	H 	0.66080 0.50000 0.74390 0.07200
C 	C 	0.61670 0.50000 0.76560 0.04500
H 	H 	0.60440 0.50000 0.74540 0.02900
O 	O 	0.04871 0.00000 0.17679 -0.41300
O 	O 	0.04844 0.00000 0.23417 -0.40300
C 	C 	0.06146 0.00000 0.20450 0.34200
C 	C 	0.10010 0.00000 0.20480 -0.08200
C 	C 	0.11550 0.00000 0.17500 -0.00700
H 	H 	0.10300 0.00000 0.15480 0.05600
C 	C 	0.15140 0.00000 0.17440 -0.02200
C 	C 	0.16540 -0.00000 0.20520 0.10900
C 	C 	0.14900 0.00000 0.23550 -0.12800
H 	H 	0.16080 -0.00000 0.25610 0.07100
C 	C 	0.11670 0.00000 0.23440 0.04500
H 	H 	0.10440 0.00000 0.25460 0.02800
O 	O 	0.04871 0.50000 0.67679 -0.41200
O 	O 	0.04844 0.50000 0.73417 -0.40200
C 	C 	0.06146 0.50000 0.70450 0.34300
C 	C 	0.10010 0.50000 0.70480 -0.08200
C 	C 	0.11550 0.50000 0.67500 -0.00600
H 	H 	0.10300 0.50000 0.65480 0.05600
C 	C 	0.15140 0.50000 0.67440 -0.02200
C 	C 	0.16540 0.50000 0.70520 0.11000
C 	C 	0.14900 0.50000 0.73550 -0.12800
H 	H 	0.16080 0.50000 0.75610 0.07200
C 	C 	0.11670 0.50000 0.73440 0.04500
H 	H 	0.10440 0.50000 0.75460 0.02900
O 	O 	0.54871 0.00000 0.67679 -0.41300
O 	O 	0.54844 0.00000 0.73417 -0.40300
C 	C 	0.56146 0.00000 0.70450 0.34200
C 	C 	0.60010 0.00000 0.70480 -0.08200
C 	C 	0.61550 0.00000 0.67500 -0.00700
H 	H 	0.60300 0.00000 0.65480 0.05600
C 	C 	0.65140 0.00000 0.67440 -0.02200
C 	C 	0.66540 0.00000 0.70520 0.10800
C 	C 	0.64900 -0.00000 0.73550 -0.12800
H 	H 	0.66080 0.00000 0.75610 0.07100
C 	C 	0.61670 0.00000 0.73440 0.04400
H 	H 	0.60440 0.00000 0.75460 0.02800
O 	O 	0.54871 0.50000 0.17679 -0.41200
O 	O 	0.54844 0.50000 0.23417 -0.40200
C 	C 	0.56146 0.50000 0.20450 0.34200
C 	C 	0.60010 0.50000 0.20480 -0.08200
C 	C 	0.61550 0.50000 0.17500 -0.00600
H 	H 	0.60300 0.50000 0.15480 0.05600
C 	C 	0.65140 0.50000 0.17440 -0.02200
C 	C 	0.66540 0.50000 0.20520 0.11000
C 	C 	0.64900 0.50000 0.23550 -0.12800
H 	H 	0.66080 0.50000 0.25610 0.07200
C 	C 	0.61670 0.50000 0.23440 0.04500
H 	H 	0.60440 0.50000 0.25460 0.02900
O 	O 	0.82321 0.95129 -0.00000 -0.40900
O 	O 	0.76583 0.95156 -0.00000 -0.40000
C 	C 	0.79550 0.93854 -0.00000 0.34200
C 	C 	0.79520 0.89990 -0.00000 -0.08100
C 	C 	0.82500 0.88450 -0.00000 -0.00700
H 	H 	0.84520 0.89700 -0.00000 0.05700
C 	C 	0.82560 0.84860 -0.00000 -0.02100
C 	C 	0.79480 0.83460 -0.00000 0.10800
C 	C 	0.76450 0.85100 -0.00000 -0.12700
H 	H 	0.74390 0.83920 -0.00000 0.07000
C 	C 	0.76560 0.88330 -0.00000 0.04400
H 	H 	0.74540 0.89560 -0.00000 0.02900
O 	O 	0.82321 0.45129 0.50000 -0.41100
O 	O 	0.76583 0.45156 0.50000 -0.40100
C 	C 	0.79550 0.43854 0.50000 0.34200
C 	C 	0.79520 0.39990 0.50000 -0.08100
C 	C 	0.82500 0.38450 0.50000 -0.00600
H 	H 	0.84520 0.39700 0.50000 0.05700
C 	C 	0.82560 0.34860 0.50000 -0.02200
C 	C 	0.79480 0.33460 0.50000 0.11000
C 	C 	0.76450 0.35100 0.50000 -0.12800
H 	H 	0.74390 0.33920 0.50000 0.07200
C 	C 	0.76560 0.38330 0.50000 0.04500
H 	H 	0.74540 0.39560 0.50000 0.02900
O 	O 	0.32321 0.95129 0.50000 -0.40800
O 	O 	0.26583 0.95156 0.50000 -0.39800
C 	C 	0.29550 0.93854 0.50000 0.34200
C 	C 	0.29520 0.89990 0.50000 -0.08000
C 	C 	0.32500 0.88450 0.50000 -0.00700
H 	H 	0.34520 0.89700 0.50000 0.05700
C 	C 	0.32560 0.84860 0.50000 -0.02100
C 	C 	0.29480 0.83460 0.50000 0.10900
C 	C 	0.26450 0.85100 0.50000 -0.12700
H 	H 	0.24390 0.83920 0.50000 0.07200
C 	C 	0.26560 0.88330 0.50000 0.04400
H 	H 	0.24540 0.89560 0.50000 0.02900
O 	O 	0.32321 0.45129 -0.00000 -0.41300
O 	O 	0.26583 0.45156 -0.00000 -0.40300
C 	C 	0.29550 0.43854 -0.00000 0.34200
C 	C 	0.29520 0.39990 -0.00000 -0.08200
C 	C 	0.32500 0.38450 -0.00000 -0.00700
H 	H 	0.34520 0.39700 -0.00000 0.05600
C 	C 	0.32560 0.34860 -0.00000 -0.02200
C 	C 	0.29480 0.33460 -0.00000 0.10900
C 	C 	0.26450 0.35100 -0.00000 -0.12800
H 	H 	0.24390 0.33920 -0.00000 0.07100
C 	C 	0.26560 0.38330 -0.00000 0.04400
H 	H 	0.24540 0.39560 -0.00000 0.02800
O 	O 	0.17679 0.95129 -0.00000 -0.40900
O 	O 	0.23417 0.95156 -0.00000 -0.40000
C 	C 	0.20450 0.93854 -0.00000 0.34200
C 	C 	0.20480 0.89990 -0.00000 -0.08100
C 	C 	0.17500 0.88450 -0.00000 -0.00700
H 	H 	0.15480 0.89700 -0.00000 0.05700
C 	C 	0.17440 0.84860 -0.00000 -0.02100
C 	C 	0.20520 0.83460 -0.00000 0.10800
C 	C 	0.23550 0.85100 -0.00000 -0.12700
H 	H 	0.25610 0.83920 -0.00000 0.07000
C 	C 	0.23440 0.88330 -0.00000 0.04400
H 	H 	0.25460 0.89560 -0.00000 0.02900
O 	O 	0.17679 0.45129 0.50000 -0.41100
O 	O 	0.23417 0.45156 0.50000 -0.40200
C 	C 	0.20450 0.43854 0.50000 0.34200
C 	C 	0.20480 0.39990 0.50000 -0.08200
C 	C 	0.17500 0.38450 0.50000 -0.00700
H 	H 	0.15480 0.39700 0.50000 0.05600
C 	C 	0.17440 0.34860 0.50000 -0.02200
C 	C 	0.20520 0.33460 0.50000 0.11000
C 	C 	0.23550 0.35100 0.50000 -0.12800
H 	H 	0.25610 0.33920 0.50000 0.07200
C 	C 	0.23440 0.38330 0.50000 0.04500
H 	H 	0.25460 0.39560 0.50000 0.02900
O 	O 	0.67679 0.95129 0.50000 -0.40800
O 	O 	0.73417 0.95156 0.50000 -0.39800
C 	C 	0.70450 0.93854 0.50000 0.34200
C 	C 	0.70480 0.89990 0.50000 -0.08000
C 	C 	0.67500 0.88450 0.50000 -0.00700
H 	H 	0.65480 0.89700 0.50000 0.05700
C 	C 	0.67440 0.84860 0.50000 -0.02100
C 	C 	0.70520 0.83460 0.50000 0.10900
C 	C 	0.73550 0.85100 0.50000 -0.12700
H 	H 	0.75610 0.83920 0.50000 0.07200
C 	C 	0.73440 0.88330 0.50000 0.04400
H 	H 	0.75460 0.89560 0.50000 0.03000
O 	O 	0.67679 0.45129 -0.00000 -0.41300
O 	O 	0.73417 0.45156 -0.00000 -0.40300
C 	C 	0.70450 0.43854 -0.00000 0.34200
C 	C 	0.70480 0.39990 -0.00000 -0.08200
C 	C 	0.67500 0.38450 -0.00000 -0.00700
H 	H 	0.65480 0.39700 -0.00000 0.05600
C 	C 	0.67440 0.34860 -0.00000 -0.02200
C 	C 	0.70520 0.33460 -0.00000 0.10800
C 	C 	0.73550 0.35100 -0.00000 -0.12800
H 	H 	0.75610 0.33920 -0.00000 0.07100
C 	C 	0.73440 0.38330 -0.00000 0.04400
H 	H 	0.75460 0.39560 -0.00000 0.02800
O 	O 	0.82321 0.04871 -0.00000 -0.41200
O 	O 	0.76583 0.04844 -0.00000 -0.40300
C 	C 	0.79550 0.06146 -0.00000 0.34200
C 	C 	0.79520 0.10010 -0.00000 -0.08200
C 	C 	0.82500 0.11550 -0.00000 -0.00700
H 	H 	0.84520 0.10300 -0.00000 0.05600
C 	C 	0.82560 0.15140 -0.00000 -0.02200
C 	C 	0.79480 0.16540 -0.00000 0.10900
C 	C 	0.76450 0.14900 -0.00000 -0.12800
H 	H 	0.74390 0.16080 -0.00000 0.07100
C 	C 	0.76560 0.11670 -0.00000 0.04500
H 	H 	0.74540 0.10440 -0.00000 0.02800
O 	O 	0.82321 0.54871 0.50000 -0.41100
O 	O 	0.76583 0.54844 0.50000 -0.40200
C 	C 	0.79550 0.56146 0.50000 0.34200
C 	C 	0.79520 0.60010 0.50000 -0.08100
C 	C 	0.82500 0.61550 0.50000 -0.00600
H 	H 	0.84520 0.60300 0.50000 0.05700
C 	C 	0.82560 0.65140 0.50000 -0.02200
C 	C 	0.79480 0.66540 0.50000 0.11000
C 	C 	0.76450 0.64900 0.50000 -0.12800
H 	H 	0.74390 0.66080 0.50000 0.07200
C 	C 	0.76560 0.61670 0.50000 0.04500
H 	H 	0.74540 0.60440 0.50000 0.02900
O 	O 	0.32321 0.04871 0.50000 -0.41200
O 	O 	0.26583 0.04844 0.50000 -0.40200
C 	C 	0.29550 0.06146 0.50000 0.34300
C 	C 	0.29520 0.10010 0.50000 -0.08200
C 	C 	0.32500 0.11550 0.50000 -0.00600
H 	H 	0.34520 0.10300 0.50000 0.05600
C 	C 	0.32560 0.15140 0.50000 -0.02200
C 	C 	0.29480 0.16540 0.50000 0.11000
C 	C 	0.26450 0.14900 0.50000 -0.12800
H 	H 	0.24390 0.16080 0.50000 0.07200
C 	C 	0.26560 0.11670 0.50000 0.04500
H 	H 	0.24540 0.10440 0.50000 0.02800
O 	O 	0.32321 0.54871 -0.00000 -0.41300
O 	O 	0.26583 0.54844 -0.00000 -0.40300
C 	C 	0.29550 0.56146 -0.00000 0.34200
C 	C 	0.29520 0.60010 -0.00000 -0.08200
C 	C 	0.32500 0.61550 -0.00000 -0.00700
H 	H 	0.34520 0.60300 -0.00000 0.05600
C 	C 	0.32560 0.65140 -0.00000 -0.02200
C 	C 	0.29480 0.66540 -0.00000 0.10900
C 	C 	0.26450 0.64900 -0.00000 -0.12800
H 	H 	0.24390 0.66080 -0.00000 0.07100
C 	C 	0.26560 0.61670 -0.00000 0.04500
H 	H 	0.24540 0.60440 -0.00000 0.02800
O 	O 	0.17679 0.04871 -0.00000 -0.41300
O 	O 	0.23417 0.04844 -0.00000 -0.40300
C 	C 	0.20450 0.06146 -0.00000 0.34200
C 	C 	0.20480 0.10010 -0.00000 -0.08200
C 	C 	0.17500 0.11550 -0.00000 -0.00700
H 	H 	0.15480 0.10300 -0.00000 0.05600
C 	C 	0.17440 0.15140 -0.00000 -0.02200
C 	C 	0.20520 0.16540 -0.00000 0.10900
C 	C 	0.23550 0.14900 -0.00000 -0.12800
H 	H 	0.25610 0.16080 -0.00000 0.07100
C 	C 	0.23440 0.11670 -0.00000 0.04500
H 	H 	0.25460 0.10440 -0.00000 0.02800
O 	O 	0.17679 0.54871 0.50000 -0.41200
O 	O 	0.23417 0.54844 0.50000 -0.40200
C 	C 	0.20450 0.56146 0.50000 0.34200
C 	C 	0.20480 0.60010 0.50000 -0.08200
C 	C 	0.17500 0.61550 0.50000 -0.00600
H 	H 	0.15480 0.60300 0.50000 0.05600
C 	C 	0.17440 0.65140 0.50000 -0.02200
C 	C 	0.20520 0.66540 0.50000 0.11000
C 	C 	0.23550 0.64900 0.50000 -0.12800
H 	H 	0.25610 0.66080 0.50000 0.07200
C 	C 	0.23440 0.61670 0.50000 0.04500
H 	H 	0.25460 0.60440 0.50000 0.02900
O 	O 	0.67679 0.04871 0.50000 -0.41200
O 	O 	0.73417 0.04844 0.50000 -0.40200
C 	C 	0.70450 0.06146 0.50000 0.34300
C 	C 	0.70480 0.10010 0.50000 -0.08200
C 	C 	0.67500 0.11550 0.50000 -0.00600
H 	H 	0.65480 0.10300 0.50000 0.05600
C 	C 	0.67440 0.15140 0.50000 -0.02200
C 	C 	0.70520 0.16540 0.50000 0.11000
C 	C 	0.73550 0.14900 0.50000 -0.12800
H 	H 	0.75610 0.16080 0.50000 0.07200
C 	C 	0.73440 0.11670 0.50000 0.04500
H 	H 	0.75460 0.10440 0.50000 0.02900
O 	O 	0.67679 0.54871 -0.00000 -0.41300
O 	O 	0.73417 0.54844 -0.00000 -0.40300
C 	C 	0.70450 0.56146 -0.00000 0.34200
C 	C 	0.70480 0.60010 -0.00000 -0.08200
C 	C 	0.67500 0.61550 -0.00000 -0.00700
H 	H 	0.65480 0.60300 -0.00000 0.05600
C 	C 	0.67440 0.65140 -0.00000 -0.02200
C 	C 	0.70520 0.66540 -0.00000 0.10800
C 	C 	0.73550 0.64900 -0.00000 -0.12800
H 	H 	0.75610 0.66080 -0.00000 0.07100
C 	C 	0.73440 0.61670 -0.00000 0.04400
H 	H 	0.75460 0.60440 -0.00000 0.02800
O 	O 	0.82321 0.00000 0.04871 -0.41200
O 	O 	0.76583 0.00000 0.04844 -0.40300
C 	C 	0.79550 0.00000 0.06146 0.34200
C 	C 	0.79520 0.00000 0.10010 -0.08200
C 	C 	0.82500 0.00000 0.11550 -0.00700
H 	H 	0.84520 -0.00000 0.10300 0.05600
C 	C 	0.82560 0.00000 0.15140 -0.02200
C 	C 	0.79480 0.00000 0.16540 0.10900
C 	C 	0.76450 0.00000 0.14900 -0.12800
H 	H 	0.74390 0.00000 0.16080 0.07100
C 	C 	0.76560 0.00000 0.11670 0.04500
H 	H 	0.74540 0.00000 0.10440 0.02800
O 	O 	0.82321 0.50000 0.54871 -0.41100
O 	O 	0.76583 0.50000 0.54844 -0.40200
C 	C 	0.79550 0.50000 0.56146 0.34200
C 	C 	0.79520 0.50000 0.60010 -0.08100
C 	C 	0.82500 0.50000 0.61550 -0.00600
H 	H 	0.84520 0.50000 0.60300 0.05700
C 	C 	0.82560 0.50000 0.65140 -0.02200
C 	C 	0.79480 0.50000 0.66540 0.11000
C 	C 	0.76450 0.50000 0.64900 -0.12800
H 	H 	0.74390 0.50000 0.66080 0.07200
C 	C 	0.76560 0.50000 0.61670 0.04500
H 	H 	0.74540 0.50000 0.60440 0.02900
O 	O 	0.32321 0.00000 0.54871 -0.41300
O 	O 	0.26583 0.00000 0.54844 -0.40300
C 	C 	0.29550 0.00000 0.56146 0.34200
C 	C 	0.29520 0.00000 0.60010 -0.08200
C 	C 	0.32500 0.00000 0.61550 -0.00700
H 	H 	0.34520 0.00000 0.60300 0.05600
C 	C 	0.32560 0.00000 0.65140 -0.02200
C 	C 	0.29480 0.00000 0.66540 0.10900
C 	C 	0.26450 0.00000 0.64900 -0.12800
H 	H 	0.24390 0.00000 0.66080 0.07100
C 	C 	0.26560 0.00000 0.61670 0.04500
H 	H 	0.24540 0.00000 0.60440 0.02800
O 	O 	0.32321 0.50000 0.04871 -0.41200
O 	O 	0.26583 0.50000 0.04844 -0.40200
C 	C 	0.29550 0.50000 0.06146 0.34300
C 	C 	0.29520 0.50000 0.10010 -0.08200
C 	C 	0.32500 0.50000 0.11550 -0.00600
H 	H 	0.34520 0.50000 0.10300 0.05600
C 	C 	0.32560 0.50000 0.15140 -0.02200
C 	C 	0.29480 0.50000 0.16540 0.11000
C 	C 	0.26450 0.50000 0.14900 -0.12800
H 	H 	0.24390 0.50000 0.16080 0.07200
C 	C 	0.26560 0.50000 0.11670 0.04500
H 	H 	0.24540 0.50000 0.10440 0.02800
O 	O 	0.17679 0.00000 0.04871 -0.41300
O 	O 	0.23417 0.00000 0.04844 -0.40300
C 	C 	0.20450 0.00000 0.06146 0.34200
C 	C 	0.20480 0.00000 0.10010 -0.08200
C 	C 	0.17500 0.00000 0.11550 -0.00700
H 	H 	0.15480 -0.00000 0.10300 0.05600
C 	C 	0.17440 0.00000 0.15140 -0.02200
C 	C 	0.20520 0.00000 0.16540 0.10900
C 	C 	0.23550 0.00000 0.14900 -0.12800
H 	H 	0.25610 0.00000 0.16080 0.07100
C 	C 	0.23440 0.00000 0.11670 0.04500
H 	H 	0.25460 0.00000 0.10440 0.02800
O 	O 	0.17679 0.50000 0.54871 -0.41200
O 	O 	0.23417 0.50000 0.54844 -0.40200
C 	C 	0.20450 0.50000 0.56146 0.34200
C 	C 	0.20480 0.50000 0.60010 -0.08200
C 	C 	0.17500 0.50000 0.61550 -0.00600
H 	H 	0.15480 0.50000 0.60300 0.05600
C 	C 	0.17440 0.50000 0.65140 -0.02200
C 	C 	0.20520 0.50000 0.66540 0.11000
C 	C 	0.23550 0.50000 0.64900 -0.12800
H 	H 	0.25610 0.50000 0.66080 0.07200
C 	C 	0.23440 0.50000 0.61670 0.04500
H 	H 	0.25460 0.50000 0.60440 0.02900
O 	O 	0.67679 0.00000 0.54871 -0.41300
O 	O 	0.73417 0.00000 0.54844 -0.40300
C 	C 	0.70450 0.00000 0.56146 0.34200
C 	C 	0.70480 0.00000 0.60010 -0.08200
C 	C 	0.67500 0.00000 0.61550 -0.00700
H 	H 	0.65480 0.00000 0.60300 0.05600
C 	C 	0.67440 0.00000 0.65140 -0.02200
C 	C 	0.70520 0.00000 0.66540 0.10800
C 	C 	0.73550 0.00000 0.64900 -0.12800
H 	H 	0.75610 0.00000 0.66080 0.07100
C 	C 	0.73440 0.00000 0.61670 0.04400
H 	H 	0.75460 0.00000 0.60440 0.02800
O 	O 	0.67679 0.50000 0.04871 -0.41200
O 	O 	0.73417 0.50000 0.04844 -0.40200
C 	C 	0.70450 0.50000 0.06146 0.34300
C 	C 	0.70480 0.50000 0.10010 -0.08200
C 	C 	0.67500 0.50000 0.11550 -0.00600
H 	H 	0.65480 0.50000 0.10300 0.05600
C 	C 	0.67440 0.50000 0.15140 -0.02200
C 	C 	0.70520 0.50000 0.16540 0.11000
C 	C 	0.73550 0.50000 0.14900 -0.12800
H 	H 	0.75610 0.50000 0.16080 0.07200
C 	C 	0.73440 0.50000 0.11670 0.04500
H 	H 	0.75460 0.50000 0.10440 0.02900
O 	O 	0.82321 0.00000 0.95129 -0.40900
O 	O 	0.76583 0.00000 0.95156 -0.40000
C 	C 	0.79550 0.00000 0.93854 0.34200
C 	C 	0.79520 0.00000 0.89990 -0.08100
C 	C 	0.82500 0.00000 0.88450 -0.00700
H 	H 	0.84520 0.00000 0.89700 0.05700
C 	C 	0.82560 -0.00000 0.84860 -0.02100
C 	C 	0.79480 0.00000 0.83460 0.10800
C 	C 	0.76450 0.00000 0.85100 -0.12700
H 	H 	0.74390 0.00000 0.83920 0.07000
C 	C 	0.76560 0.00000 0.88330 0.04400
H 	H 	0.74540 0.00000 0.89560 0.02900
O 	O 	0.82321 0.50000 0.45129 -0.41100
O 	O 	0.76583 0.50000 0.45156 -0.40100
C 	C 	0.79550 0.50000 0.43854 0.34200
C 	C 	0.79520 0.50000 0.39990 -0.08100
C 	C 	0.82500 0.50000 0.38450 -0.00600
H 	H 	0.84520 0.50000 0.39700 0.05700
C 	C 	0.82560 0.50000 0.34860 -0.02200
C 	C 	0.79480 0.50000 0.33460 0.11000
C 	C 	0.76450 0.50000 0.35100 -0.12800
H 	H 	0.74390 0.50000 0.33920 0.07200
C 	C 	0.76560 0.50000 0.38330 0.04500
H 	H 	0.74540 0.50000 0.39560 0.02900
O 	O 	0.32321 0.00000 0.45129 -0.41300
O 	O 	0.26583 -0.00000 0.45156 -0.40300
C 	C 	0.29550 -0.00000 0.43854 0.34200
C 	C 	0.29520 0.00000 0.39990 -0.08200
C 	C 	0.32500 0.00000 0.38450 -0.00700
H 	H 	0.34520 -0.00000 0.39700 0.05600
C 	C 	0.32560 0.00000 0.34860 -0.02200
C 	C 	0.29480 0.00000 0.33460 0.10900
C 	C 	0.26450 0.00000 0.35100 -0.12800
H 	H 	0.24390 0.00000 0.33920 0.07100
C 	C 	0.26560 0.00000 0.38330 0.04400
H 	H 	0.24540 0.00000 0.39560 0.02800
O 	O 	0.32321 0.50000 0.95129 -0.40800
O 	O 	0.26583 0.50000 0.95156 -0.39800
C 	C 	0.29550 0.50000 0.93854 0.34200
C 	C 	0.29520 0.50000 0.89990 -0.08000
C 	C 	0.32500 0.50000 0.88450 -0.00700
H 	H 	0.34520 0.50000 0.89700 0.05700
C 	C 	0.32560 0.50000 0.84860 -0.02100
C 	C 	0.29480 0.50000 0.83460 0.10900
C 	C 	0.26450 0.50000 0.85100 -0.12700
H 	H 	0.24390 0.50000 0.83920 0.07200
C 	C 	0.26560 0.50000 0.88330 0.04400
H 	H 	0.24540 0.50000 0.89560 0.02900
O 	O 	0.17679 0.00000 0.95129 -0.40900
O 	O 	0.23417 0.00000 0.95156 -0.40000
C 	C 	0.20450 0.00000 0.93854 0.34200
C 	C 	0.20480 0.00000 0.89990 -0.08100
C 	C 	0.17500 0.00000 0.88450 -0.00700
H 	H 	0.15480 0.00000 0.89700 0.05700
C 	C 	0.17440 -0.00000 0.84860 -0.02100
C 	C 	0.20520 0.00000 0.83460 0.10800
C 	C 	0.23550 0.00000 0.85100 -0.12700
H 	H 	0.25610 0.00000 0.83920 0.07000
C 	C 	0.23440 0.00000 0.88330 0.04400
H 	H 	0.25460 0.00000 0.89560 0.02900
O 	O 	0.17679 0.50000 0.45129 -0.41100
O 	O 	0.23417 0.50000 0.45156 -0.40200
C 	C 	0.20450 0.50000 0.43854 0.34200
C 	C 	0.20480 0.50000 0.39990 -0.08200
C 	C 	0.17500 0.50000 0.38450 -0.00700
H 	H 	0.15480 0.50000 0.39700 0.05600
C 	C 	0.17440 0.50000 0.34860 -0.02200
C 	C 	0.20520 0.50000 0.33460 0.11000
C 	C 	0.23550 0.50000 0.35100 -0.12800
H 	H 	0.25610 0.50000 0.33920 0.07200
C 	C 	0.23440 0.50000 0.38330 0.04500
H 	H 	0.25460 0.50000 0.39560 0.02900
O 	O 	0.67679 0.00000 0.45129 -0.41300
O 	O 	0.73417 -0.00000 0.45156 -0.40300
C 	C 	0.70450 -0.00000 0.43854 0.34200
C 	C 	0.70480 0.00000 0.39990 -0.08200
C 	C 	0.67500 0.00000 0.38450 -0.00700
H 	H 	0.65480 -0.00000 0.39700 0.05600
C 	C 	0.67440 0.00000 0.34860 -0.02200
C 	C 	0.70520 0.00000 0.33460 0.10800
C 	C 	0.73550 0.00000 0.35100 -0.12800
H 	H 	0.75610 0.00000 0.33920 0.07100
C 	C 	0.73440 0.00000 0.38330 0.04400
H 	H 	0.75460 0.00000 0.39560 0.02800
O 	O 	0.67679 0.50000 0.95129 -0.40800
O 	O 	0.73417 0.50000 0.95156 -0.39800
C 	C 	0.70450 0.50000 0.93854 0.34200
C 	C 	0.70480 0.50000 0.89990 -0.08000
C 	C 	0.67500 0.50000 0.88450 -0.00700
H 	H 	0.65480 0.50000 0.89700 0.05700
C 	C 	0.67440 0.50000 0.84860 -0.02100
C 	C 	0.70520 0.50000 0.83460 0.10900
C 	C 	0.73550 0.50000 0.85100 -0.12700
H 	H 	0.75610 0.50000 0.83920 0.07200
C 	C 	0.73440 0.50000 0.88330 0.04400
H 	H 	0.75460 0.50000 0.89560 0.03000
O 	O 	0.00000 0.95129 0.17679 -0.40900
O 	O 	-0.00000 0.95156 0.23417 -0.40000
C 	C 	-0.00000 0.93854 0.20450 0.34200
C 	C 	0.00000 0.89990 0.20480 -0.08100
C 	C 	0.00000 0.88450 0.17500 -0.00700
H 	H 	0.00000 0.89700 0.15480 0.05700
C 	C 	0.00000 0.84860 0.17440 -0.02100
C 	C 	0.00000 0.83460 0.20520 0.10800
C 	C 	0.00000 0.85100 0.23550 -0.12700
H 	H 	0.00000 0.83920 0.25610 0.07000
C 	C 	0.00000 0.88330 0.23440 0.04400
H 	H 	0.00000 0.89560 0.25460 0.02900
O 	O 	0.00000 0.45129 0.67679 -0.41300
O 	O 	0.00000 0.45156 0.73417 -0.40300
C 	C 	0.00000 0.43854 0.70450 0.34200
C 	C 	0.00000 0.39990 0.70480 -0.08200
C 	C 	0.00000 0.38450 0.67500 -0.00700
H 	H 	-0.00000 0.39700 0.65480 0.05600
C 	C 	0.00000 0.34860 0.67440 -0.02200
C 	C 	-0.00000 0.33460 0.70520 0.10800
C 	C 	-0.00000 0.35100 0.73550 -0.12800
H 	H 	-0.00000 0.33920 0.75610 0.07100
C 	C 	0.00000 0.38330 0.73440 0.04400
H 	H 	-0.00000 0.39560 0.75460 0.02800
O 	O 	0.50000 0.95129 0.67679 -0.40800
O 	O 	0.50000 0.95156 0.73417 -0.39800
C 	C 	0.50000 0.93854 0.70450 0.34200
C 	C 	0.50000 0.89990 0.70480 -0.08000
C 	C 	0.50000 0.88450 0.67500 -0.00700
H 	H 	0.50000 0.89700 0.65480 0.05700
C 	C 	0.50000 0.84860 0.67440 -0.02100
C 	C 	0.50000 0.83460 0.70520 0.10900
C 	C 	0.50000 0.85100 0.73550 -0.12700
H 	H 	0.50000 0.83920 0.75610 0.07200
C 	C 	0.50000 0.88330 0.73440 0.04400
H 	H 	0.50000 0.89560 0.75460 0.03000
O 	O 	0.50000 0.45129 0.17679 -0.41100
O 	O 	0.50000 0.45156 0.23417 -0.40200
C 	C 	0.50000 0.43854 0.20450 0.34200
C 	C 	0.50000 0.39990 0.20480 -0.08200
C 	C 	0.50000 0.38450 0.17500 -0.00700
H 	H 	0.50000 0.39700 0.15480 0.05600
C 	C 	0.50000 0.34860 0.17440 -0.02200
C 	C 	0.50000 0.33460 0.20520 0.11000
C 	C 	0.50000 0.35100 0.23550 -0.12800
H 	H 	0.50000 0.33920 0.25610 0.07200
C 	C 	0.50000 0.38330 0.23440 0.04500
H 	H 	0.50000 0.39560 0.25460 0.02900
O 	O 	0.00000 0.95129 0.82321 -0.40900
O 	O 	-0.00000 0.95156 0.76583 -0.40000
C 	C 	-0.00000 0.93854 0.79550 0.34200
C 	C 	0.00000 0.89990 0.79520 -0.08100
C 	C 	0.00000 0.88450 0.82500 -0.00700
H 	H 	0.00000 0.89700 0.84520 0.05700
C 	C 	-0.00000 0.84860 0.82560 -0.02100
C 	C 	-0.00000 0.83460 0.79480 0.10800
C 	C 	0.00000 0.85100 0.76450 -0.12700
H 	H 	0.00000 0.83920 0.74390 0.07000
C 	C 	0.00000 0.88330 0.76560 0.04400
H 	H 	0.00000 0.89560 0.74540 0.02900
O 	O 	-0.00000 0.45129 0.32321 -0.41300
O 	O 	0.00000 0.45156 0.26583 -0.40300
C 	C 	-0.00000 0.43854 0.29550 0.34200
C 	C 	0.00000 0.39990 0.29520 -0.08200
C 	C 	0.00000 0.38450 0.32500 -0.00700
H 	H 	-0.00000 0.39700 0.34520 0.05600
C 	C 	0.00000 0.34860 0.32560 -0.02200
C 	C 	0.00000 0.33460 0.29480 0.10900
C 	C 	0.00000 0.35100 0.26450 -0.12800
H 	H 	0.00000 0.33920 0.24390 0.07100
C 	C 	0.00000 0.38330 0.26560 0.04400
H 	H 	0.00000 0.39560 0.24540 0.02800
O 	O 	0.50000 0.95129 0.32321 -0.40800
O 	O 	0.50000 0.95156 0.26583 -0.39800
C 	C 	0.50000 0.93854 0.29550 0.34200
C 	C 	0.50000 0.89990 0.29520 -0.08000
C 	C 	0.50000 0.88450 0.32500 -0.00700
H 	H 	0.50000 0.89700 0.34520 0.05700
C 	C 	0.50000 0.84860 0.32560 -0.02100
C 	C 	0.50000 0.83460 0.29480 0.10900
C 	C 	0.50000 0.85100 0.26450 -0.12700
H 	H 	0.50000 0.83920 0.24390 0.07200
C 	C 	0.50000 0.88330 0.26560 0.04400
H 	H 	0.50000 0.89560 0.24540 0.02900
O 	O 	0.50000 0.45129 0.82321 -0.41100
O 	O 	0.50000 0.45156 0.76583 -0.40100
C 	C 	0.50000 0.43854 0.79550 0.34200
C 	C 	0.50000 0.39990 0.79520 -0.08100
C 	C 	0.50000 0.38450 0.82500 -0.00600
H 	H 	0.50000 0.39700 0.84520 0.05700
C 	C 	0.50000 0.34860 0.82560 -0.02200
C 	C 	0.50000 0.33460 0.79480 0.11000
C 	C 	0.50000 0.35100 0.76450 -0.12800
H 	H 	0.50000 0.33920 0.74390 0.07200
C 	C 	0.50000 0.38330 0.76560 0.04500
H 	H 	0.50000 0.39560 0.74540 0.02900
O 	O 	-0.00000 0.04871 0.17679 -0.41300
O 	O 	0.00000 0.04844 0.23417 -0.40300
C 	C 	0.00000 0.06146 0.20450 0.34200
C 	C 	0.00000 0.10010 0.20480 -0.08200
C 	C 	0.00000 0.11550 0.17500 -0.00700
H 	H 	-0.00000 0.10300 0.15480 0.05600
C 	C 	0.00000 0.15140 0.17440 -0.02200
C 	C 	-0.00000 0.16540 0.20520 0.10900
C 	C 	-0.00000 0.14900 0.23550 -0.12800
H 	H 	0.00000 0.16080 0.25610 0.07100
C 	C 	-0.00000 0.11670 0.23440 0.04500
H 	H 	0.00000 0.10440 0.25460 0.02800
O 	O 	0.00000 0.54871 0.67679 -0.41300
O 	O 	0.00000 0.54844 0.73417 -0.40300
C 	C 	0.00000 0.56146 0.70450 0.34200
C 	C 	0.00000 0.60010 0.70480 -0.08200
C 	C 	0.00000 0.61550 0.67500 -0.00700
H 	H 	0.00000 0.60300 0.65480 0.05600
C 	C 	0.00000 0.65140 0.67440 -0.02200
C 	C 	0.00000 0.66540 0.70520 0.10800
C 	C 	0.00000 0.64900 0.73550 -0.12800
H 	H 	-0.00000 0.66080 0.75610 0.07100
C 	C 	0.00000 0.61670 0.73440 0.04400
H 	H 	-0.00000 0.60440 0.75460 0.02800
O 	O 	0.50000 0.04871 0.67679 -0.41200
O 	O 	0.50000 0.04844 0.73417 -0.40200
C 	C 	0.50000 0.06146 0.70450 0.34300
C 	C 	0.50000 0.10010 0.70480 -0.08200
C 	C 	0.50000 0.11550 0.67500 -0.00600
H 	H 	0.50000 0.10300 0.65480 0.05600
C 	C 	0.50000 0.15140 0.67440 -0.02200
C 	C 	0.50000 0.16540 0.70520 0.11000
C 	C 	0.50000 0.14900 0.73550 -0.12800
H 	H 	0.50000 0.16080 0.75610 0.07200
C 	C 	0.50000 0.11670 0.73440 0.04500
H 	H 	0.50000 0.10440 0.75460 0.02900
O 	O 	0.50000 0.54871 0.17679 -0.41200
O 	O 	0.50000 0.54844 0.23417 -0.40200
C 	C 	0.50000 0.56146 0.20450 0.34200
C 	C 	0.50000 0.60010 0.20480 -0.08200
C 	C 	0.50000 0.61550 0.17500 -0.00600
H 	H 	0.50000 0.60300 0.15480 0.05600
C 	C 	0.50000 0.65140 0.17440 -0.02200
C 	C 	0.50000 0.66540 0.20520 0.11000
C 	C 	0.50000 0.64900 0.23550 -0.12800
H 	H 	0.50000 0.66080 0.25610 0.07200
C 	C 	0.50000 0.61670 0.23440 0.04500
H 	H 	0.50000 0.60440 0.25460 0.02900
O 	O 	0.00000 0.04871 0.82321 -0.41200
O 	O 	-0.00000 0.04844 0.76583 -0.40300
C 	C 	0.00000 0.06146 0.79550 0.34200
C 	C 	0.00000 0.10010 0.79520 -0.08200
C 	C 	-0.00000 0.11550 0.82500 -0.00700
H 	H 	-0.00000 0.10300 0.84520 0.05600
C 	C 	0.00000 0.15140 0.82560 -0.02200
C 	C 	-0.00000 0.16540 0.79480 0.10900
C 	C 	-0.00000 0.14900 0.76450 -0.12800
H 	H 	0.00000 0.16080 0.74390 0.07100
C 	C 	0.00000 0.11670 0.76560 0.04500
H 	H 	-0.00000 0.10440 0.74540 0.02800
O 	O 	0.00000 0.54871 0.32321 -0.41300
O 	O 	0.00000 0.54844 0.26583 -0.40300
C 	C 	0.00000 0.56146 0.29550 0.34200
C 	C 	0.00000 0.60010 0.29520 -0.08200
C 	C 	-0.00000 0.61550 0.32500 -0.00700
H 	H 	-0.00000 0.60300 0.34520 0.05600
C 	C 	0.00000 0.65140 0.32560 -0.02200
C 	C 	0.00000 0.66540 0.29480 0.10900
C 	C 	0.00000 0.64900 0.26450 -0.12800
H 	H 	0.00000 0.66080 0.24390 0.07100
C 	C 	0.00000 0.61670 0.26560 0.04500
H 	H 	-0.00000 0.60440 0.24540 0.02800
O 	O 	0.50000 0.04871 0.32321 -0.41200
O 	O 	0.50000 0.04844 0.26583 -0.40200
C 	C 	0.50000 0.06146 0.29550 0.34300
C 	C 	0.50000 0.10010 0.29520 -0.08200
C 	C 	0.50000 0.11550 0.32500 -0.00600
H 	H 	0.50000 0.10300 0.34520 0.05600
C 	C 	0.50000 0.15140 0.32560 -0.02200
C 	C 	0.50000 0.16540 0.29480 0.11000
C 	C 	0.50000 0.14900 0.26450 -0.12800
H 	H 	0.50000 0.16080 0.24390 0.07200
C 	C 	0.50000 0.11670 0.26560 0.04500
H 	H 	0.50000 0.10440 0.24540 0.02800
O 	O 	0.50000 0.54871 0.82321 -0.41100
O 	O 	0.50000 0.54844 0.76583 -0.40200
C 	C 	0.50000 0.56146 0.79550 0.34200
C 	C 	0.50000 0.60010 0.79520 -0.08100
C 	C 	0.50000 0.61550 0.82500 -0.00600
H 	H 	0.50000 0.60300 0.84520 0.05700
C 	C 	0.50000 0.65140 0.82560 -0.02200
C 	C 	0.50000 0.66540 0.79480 0.11000
C 	C 	0.50000 0.64900 0.76450 -0.12800
H 	H 	0.50000 0.66080 0.74390 0.07200
C 	C 	0.50000 0.61670 0.76560 0.04500
H 	H 	0.50000 0.60440 0.74540 0.02900
O 	O 	0.95129 0.82321 -0.00000 -0.40900
O 	O 	0.95156 0.76583 -0.00000 -0.40000
C 	C 	0.93854 0.79550 -0.00000 0.34200
C 	C 	0.89990 0.79520 -0.00000 -0.08100
C 	C 	0.88450 0.82500 -0.00000 -0.00700
H 	H 	0.89700 0.84520 -0.00000 0.05700
C 	C 	0.84860 0.82560 -0.00000 -0.02100
C 	C 	0.83460 0.79480 -0.00000 0.10800
C 	C 	0.85100 0.76450 -0.00000 -0.12700
H 	H 	0.83920 0.74390 -0.00000 0.07000
C 	C 	0.88330 0.76560 -0.00000 0.04400
H 	H 	0.89560 0.74540 -0.00000 0.02900
O 	O 	0.95129 0.32321 0.50000 -0.40800
O 	O 	0.95156 0.26583 0.50000 -0.39800
C 	C 	0.93854 0.29550 0.50000 0.34200
C 	C 	0.89990 0.29520 0.50000 -0.08000
C 	C 	0.88450 0.32500 0.50000 -0.00700
H 	H 	0.89700 0.34520 0.50000 0.05700
C 	C 	0.84860 0.32560 0.50000 -0.02100
C 	C 	0.83460 0.29480 0.50000 0.10900
C 	C 	0.85100 0.26450 0.50000 -0.12700
H 	H 	0.83920 0.24390 0.50000 0.07200
C 	C 	0.88330 0.26560 0.50000 0.04400
H 	H 	0.89560 0.24540 0.50000 0.02900
O 	O 	0.45129 0.82321 0.50000 -0.41100
O 	O 	0.45156 0.76583 0.50000 -0.40100
C 	C 	0.43854 0.79550 0.50000 0.34200
C 	C 	0.39990 0.79520 0.50000 -0.08100
C 	C 	0.38450 0.82500 0.50000 -0.00600
H 	H 	0.39700 0.84520 0.50000 0.05700
C 	C 	0.34860 0.82560 0.50000 -0.02200
C 	C 	0.33460 0.79480 0.50000 0.11000
C 	C 	0.35100 0.76450 0.50000 -0.12800
H 	H 	0.33920 0.74390 0.50000 0.07200
C 	C 	0.38330 0.76560 0.50000 0.04500
H 	H 	0.39560 0.74540 0.50000 0.02900
O 	O 	0.45129 0.32321 -0.00000 -0.41300
O 	O 	0.45156 0.26583 -0.00000 -0.40300
C 	C 	0.43854 0.29550 -0.00000 0.34200
C 	C 	0.39990 0.29520 -0.00000 -0.08200
C 	C 	0.38450 0.32500 -0.00000 -0.00700
H 	H 	0.39700 0.34520 -0.00000 0.05600
C 	C 	0.34860 0.32560 -0.00000 -0.02200
C 	C 	0.33460 0.29480 -0.00000 0.10900
C 	C 	0.35100 0.26450 -0.00000 -0.12800
H 	H 	0.33920 0.24390 -0.00000 0.07100
C 	C 	0.38330 0.26560 -0.00000 0.04400
H 	H 	0.39560 0.24540 -0.00000 0.02800
O 	O 	0.95129 0.17679 -0.00000 -0.40900
O 	O 	0.95156 0.23417 -0.00000 -0.40000
C 	C 	0.93854 0.20450 -0.00000 0.34200
C 	C 	0.89990 0.20480 -0.00000 -0.08100
C 	C 	0.88450 0.17500 -0.00000 -0.00700
H 	H 	0.89700 0.15480 -0.00000 0.05700
C 	C 	0.84860 0.17440 -0.00000 -0.02100
C 	C 	0.83460 0.20520 -0.00000 0.10800
C 	C 	0.85100 0.23550 -0.00000 -0.12700
H 	H 	0.83920 0.25610 -0.00000 0.07000
C 	C 	0.88330 0.23440 -0.00000 0.04400
H 	H 	0.89560 0.25460 -0.00000 0.02900
O 	O 	0.95129 0.67679 0.50000 -0.40800
O 	O 	0.95156 0.73417 0.50000 -0.39800
C 	C 	0.93854 0.70450 0.50000 0.34200
C 	C 	0.89990 0.70480 0.50000 -0.08000
C 	C 	0.88450 0.67500 0.50000 -0.00700
H 	H 	0.89700 0.65480 0.50000 0.05700
C 	C 	0.84860 0.67440 0.50000 -0.02100
C 	C 	0.83460 0.70520 0.50000 0.10900
C 	C 	0.85100 0.73550 0.50000 -0.12700
H 	H 	0.83920 0.75610 0.50000 0.07200
C 	C 	0.88330 0.73440 0.50000 0.04400
H 	H 	0.89560 0.75460 0.50000 0.03000
O 	O 	0.45129 0.17679 0.50000 -0.41100
O 	O 	0.45156 0.23417 0.50000 -0.40200
C 	C 	0.43854 0.20450 0.50000 0.34200
C 	C 	0.39990 0.20480 0.50000 -0.08200
C 	C 	0.38450 0.17500 0.50000 -0.00700
H 	H 	0.39700 0.15480 0.50000 0.05600
C 	C 	0.34860 0.17440 0.50000 -0.02200
C 	C 	0.33460 0.20520 0.50000 0.11000
C 	C 	0.35100 0.23550 0.50000 -0.12800
H 	H 	0.33920 0.25610 0.50000 0.07200
C 	C 	0.38330 0.23440 0.50000 0.04500
H 	H 	0.39560 0.25460 0.50000 0.02900
O 	O 	0.45129 0.67679 -0.00000 -0.41300
O 	O 	0.45156 0.73417 -0.00000 -0.40300
C 	C 	0.43854 0.70450 -0.00000 0.34200
C 	C 	0.39990 0.70480 -0.00000 -0.08200
C 	C 	0.38450 0.67500 -0.00000 -0.00700
H 	H 	0.39700 0.65480 -0.00000 0.05600
C 	C 	0.34860 0.67440 -0.00000 -0.02200
C 	C 	0.33460 0.70520 -0.00000 0.10800
C 	C 	0.35100 0.73550 -0.00000 -0.12800
H 	H 	0.33920 0.75610 -0.00000 0.07100
C 	C 	0.38330 0.73440 -0.00000 0.04400
H 	H 	0.39560 0.75460 -0.00000 0.02800
O 	O 	0.04871 0.82321 -0.00000 -0.41200
O 	O 	0.04844 0.76583 -0.00000 -0.40300
C 	C 	0.06146 0.79550 -0.00000 0.34200
C 	C 	0.10010 0.79520 -0.00000 -0.08200
C 	C 	0.11550 0.82500 -0.00000 -0.00700
H 	H 	0.10300 0.84520 -0.00000 0.05600
C 	C 	0.15140 0.82560 -0.00000 -0.02200
C 	C 	0.16540 0.79480 -0.00000 0.10900
C 	C 	0.14900 0.76450 -0.00000 -0.12800
H 	H 	0.16080 0.74390 -0.00000 0.07100
C 	C 	0.11670 0.76560 -0.00000 0.04500
H 	H 	0.10440 0.74540 -0.00000 0.02800
O 	O 	0.04871 0.32321 0.50000 -0.41200
O 	O 	0.04844 0.26583 0.50000 -0.40200
C 	C 	0.06146 0.29550 0.50000 0.34300
C 	C 	0.10010 0.29520 0.50000 -0.08200
C 	C 	0.11550 0.32500 0.50000 -0.00600
H 	H 	0.10300 0.34520 0.50000 0.05600
C 	C 	0.15140 0.32560 0.50000 -0.02200
C 	C 	0.16540 0.29480 0.50000 0.11000
C 	C 	0.14900 0.26450 0.50000 -0.12800
H 	H 	0.16080 0.24390 0.50000 0.07200
C 	C 	0.11670 0.26560 0.50000 0.04500
H 	H 	0.10440 0.24540 0.50000 0.02800
O 	O 	0.54871 0.82321 0.50000 -0.41100
O 	O 	0.54844 0.76583 0.50000 -0.40200
C 	C 	0.56146 0.79550 0.50000 0.34200
C 	C 	0.60010 0.79520 0.50000 -0.08100
C 	C 	0.61550 0.82500 0.50000 -0.00600
H 	H 	0.60300 0.84520 0.50000 0.05700
C 	C 	0.65140 0.82560 0.50000 -0.02200
C 	C 	0.66540 0.79480 0.50000 0.11000
C 	C 	0.64900 0.76450 0.50000 -0.12800
H 	H 	0.66080 0.74390 0.50000 0.07200
C 	C 	0.61670 0.76560 0.50000 0.04500
H 	H 	0.60440 0.74540 0.50000 0.02900
O 	O 	0.54871 0.32321 -0.00000 -0.41300
O 	O 	0.54844 0.26583 -0.00000 -0.40300
C 	C 	0.56146 0.29550 -0.00000 0.34200
C 	C 	0.60010 0.29520 -0.00000 -0.08200
C 	C 	0.61550 0.32500 -0.00000 -0.00700
H 	H 	0.60300 0.34520 -0.00000 0.05600
C 	C 	0.65140 0.32560 -0.00000 -0.02200
C 	C 	0.66540 0.29480 -0.00000 0.10900
C 	C 	0.64900 0.26450 -0.00000 -0.12800
H 	H 	0.66080 0.24390 -0.00000 0.07100
C 	C 	0.61670 0.26560 -0.00000 0.04500
H 	H 	0.60440 0.24540 -0.00000 0.02800
O 	O 	0.04871 0.17679 -0.00000 -0.41300
O 	O 	0.04844 0.23417 -0.00000 -0.40300
C 	C 	0.06146 0.20450 -0.00000 0.34200
C 	C 	0.10010 0.20480 -0.00000 -0.08200
C 	C 	0.11550 0.17500 -0.00000 -0.00700
H 	H 	0.10300 0.15480 -0.00000 0.05600
C 	C 	0.15140 0.17440 -0.00000 -0.02200
C 	C 	0.16540 0.20520 -0.00000 0.10900
C 	C 	0.14900 0.23550 -0.00000 -0.12800
H 	H 	0.16080 0.25610 -0.00000 0.07100
C 	C 	0.11670 0.23440 -0.00000 0.04500
H 	H 	0.10440 0.25460 -0.00000 0.02800
O 	O 	0.04871 0.67679 0.50000 -0.41200
O 	O 	0.04844 0.73417 0.50000 -0.40200
C 	C 	0.06146 0.70450 0.50000 0.34300
C 	C 	0.10010 0.70480 0.50000 -0.08200
C 	C 	0.11550 0.67500 0.50000 -0.00600
H 	H 	0.10300 0.65480 0.50000 0.05600
C 	C 	0.15140 0.67440 0.50000 -0.02200
C 	C 	0.16540 0.70520 0.50000 0.11000
C 	C 	0.14900 0.73550 0.50000 -0.12800
H 	H 	0.16080 0.75610 0.50000 0.07200
C 	C 	0.11670 0.73440 0.50000 0.04500
H 	H 	0.10440 0.75460 0.50000 0.02900
O 	O 	0.54871 0.17679 0.50000 -0.41200
O 	O 	0.54844 0.23417 0.50000 -0.40200
C 	C 	0.56146 0.20450 0.50000 0.34200
C 	C 	0.60010 0.20480 0.50000 -0.08200
C 	C 	0.61550 0.17500 0.50000 -0.00600
H 	H 	0.60300 0.15480 0.50000 0.05600
C 	C 	0.65140 0.17440 0.50000 -0.02200
C 	C 	0.66540 0.20520 0.50000 0.11000
C 	C 	0.64900 0.23550 0.50000 -0.12800
H 	H 	0.66080 0.25610 0.50000 0.07200
C 	C 	0.61670 0.23440 0.50000 0.04500
H 	H 	0.60440 0.25460 0.50000 0.02900
O 	O 	0.54871 0.67679 -0.00000 -0.41300
O 	O 	0.54844 0.73417 -0.00000 -0.40300
C 	C 	0.56146 0.70450 -0.00000 0.34200
C 	C 	0.60010 0.70480 -0.00000 -0.08200
C 	C 	0.61550 0.67500 -0.00000 -0.00700
H 	H 	0.60300 0.65480 -0.00000 0.05600
C 	C 	0.65140 0.67440 -0.00000 -0.02200
C 	C 	0.66540 0.70520 -0.00000 0.10800
C 	C 	0.64900 0.73550 -0.00000 -0.12800
H 	H 	0.66080 0.75610 -0.00000 0.07100
C 	C 	0.61670 0.73440 -0.00000 0.04400
H 	H 	0.60440 0.75460 -0.00000 0.02800
N 	N 	-0.00000 0.79920 0.79920 -0.11200
C 	C 	0.00000 0.77220 0.77220 -0.03200
N 	N 	0.00000 0.29920 0.29920 -0.11200
C 	C 	0.00000 0.27220 0.27220 -0.03200
N 	N 	0.50000 0.79920 0.29920 -0.11200
C 	C 	0.50000 0.77220 0.27220 -0.02600
N 	N 	0.50000 0.29920 0.79920 -0.11200
C 	C 	0.50000 0.27220 0.77220 -0.02600
N 	N 	0.00000 0.20080 0.79920 -0.11200
C 	C 	0.00000 0.22780 0.77220 -0.03200
N 	N 	0.00000 0.70080 0.29920 -0.11200
C 	C 	0.00000 0.72780 0.27220 -0.03200
N 	N 	0.50000 0.20080 0.29920 -0.11200
C 	C 	0.50000 0.22780 0.27220 -0.02600
N 	N 	0.50000 0.70080 0.79920 -0.11200
C 	C 	0.50000 0.72780 0.77220 -0.02600
N 	N 	0.00000 0.79920 0.20080 -0.11200
C 	C 	0.00000 0.77220 0.22780 -0.03200
N 	N 	0.00000 0.29920 0.70080 -0.11200
C 	C 	-0.00000 0.27220 0.72780 -0.03200
N 	N 	0.50000 0.79920 0.70080 -0.11200
C 	C 	0.50000 0.77220 0.72780 -0.02600
N 	N 	0.50000 0.29920 0.20080 -0.11200
C 	C 	0.50000 0.27220 0.22780 -0.02600
N 	N 	0.00000 0.20080 0.20080 -0.11200
C 	C 	0.00000 0.22780 0.22780 -0.03200
N 	N 	0.00000 0.70080 0.70080 -0.11200
C 	C 	-0.00000 0.72780 0.72780 -0.03200
N 	N 	0.50000 0.20080 0.70080 -0.11200
C 	C 	0.50000 0.22780 0.72780 -0.02600
N 	N 	0.50000 0.70080 0.20080 -0.11200
C 	C 	0.50000 0.72780 0.22780 -0.02600
N 	N 	0.79920 0.00000 0.79920 -0.11200
C 	C 	0.77220 0.00000 0.77220 -0.03200
N 	N 	0.79920 0.50000 0.29920 -0.11200
C 	C 	0.77220 0.50000 0.27220 -0.02600
N 	N 	0.29920 0.00000 0.29920 -0.11200
C 	C 	0.27220 0.00000 0.27220 -0.03200
N 	N 	0.29920 0.50000 0.79920 -0.11200
C 	C 	0.27220 0.50000 0.77220 -0.02600
N 	N 	0.79920 0.00000 0.20080 -0.11200
C 	C 	0.77220 0.00000 0.22780 -0.03200
N 	N 	0.79920 0.50000 0.70080 -0.11200
C 	C 	0.77220 0.50000 0.72780 -0.02600
N 	N 	0.29920 0.00000 0.70080 -0.11200
C 	C 	0.27220 0.00000 0.72780 -0.03200
N 	N 	0.29920 0.50000 0.20080 -0.11200
C 	C 	0.27220 0.50000 0.22780 -0.02600
N 	N 	0.20080 0.00000 0.79920 -0.11200
C 	C 	0.22780 0.00000 0.77220 -0.03200
N 	N 	0.20080 0.50000 0.29920 -0.11200
C 	C 	0.22780 0.50000 0.27220 -0.02600
N 	N 	0.70080 0.00000 0.29920 -0.11200
C 	C 	0.72780 0.00000 0.27220 -0.03200
N 	N 	0.70080 0.50000 0.79920 -0.11200
C 	C 	0.72780 0.50000 0.77220 -0.02600
N 	N 	0.20080 0.00000 0.20080 -0.11200
C 	C 	0.22780 0.00000 0.22780 -0.03200
N 	N 	0.20080 0.50000 0.70080 -0.11200
C 	C 	0.22780 0.50000 0.72780 -0.02600
N 	N 	0.70080 0.00000 0.70080 -0.11200
C 	C 	0.72780 0.00000 0.72780 -0.03200
N 	N 	0.70080 0.50000 0.20080 -0.11200
C 	C 	0.72780 0.50000 0.22780 -0.02600
N 	N 	0.79920 0.79920 -0.00000 -0.11200
C 	C 	0.77220 0.77220 -0.00000 -0.03200
N 	N 	0.79920 0.29920 0.50000 -0.11200
C 	C 	0.77220 0.27220 0.50000 -0.02600
N 	N 	0.29920 0.79920 0.50000 -0.11200
C 	C 	0.27220 0.77220 0.50000 -0.02600
N 	N 	0.29920 0.29920 -0.00000 -0.11200
C 	C 	0.27220 0.27220 -0.00000 -0.03200
N 	N 	0.20080 0.79920 -0.00000 -0.11200
C 	C 	0.22780 0.77220 -0.00000 -0.03200
N 	N 	0.20080 0.29920 0.50000 -0.11200
C 	C 	0.22780 0.27220 0.50000 -0.02600
N 	N 	0.70080 0.79920 0.50000 -0.11200
C 	C 	0.72780 0.77220 0.50000 -0.02600
N 	N 	0.70080 0.29920 -0.00000 -0.11200
C 	C 	0.72780 0.27220 -0.00000 -0.03200
N 	N 	0.79920 0.20080 -0.00000 -0.11200
C 	C 	0.77220 0.22780 -0.00000 -0.03200
N 	N 	0.79920 0.70080 0.50000 -0.11200
C 	C 	0.77220 0.72780 0.50000 -0.02600
N 	N 	0.29920 0.20080 0.50000 -0.11200
C 	C 	0.27220 0.22780 0.50000 -0.02600
N 	N 	0.29920 0.70080 -0.00000 -0.11200
C 	C 	0.27220 0.72780 -0.00000 -0.03200
N 	N 	0.20080 0.20080 -0.00000 -0.11200
C 	C 	0.22780 0.22780 -0.00000 -0.03200
N 	N 	0.20080 0.70080 0.50000 -0.11200
C 	C 	0.22780 0.72780 0.50000 -0.02600
N 	N 	0.70080 0.20080 0.50000 -0.11200
C 	C 	0.72780 0.22780 0.50000 -0.02600
N 	N 	0.70080 0.70080 -0.00000 -0.11200
C 	C 	0.72780 0.72780 -0.00000 -0.03200
