data_crystal

_cell_length_a 5.97950
_cell_length_b 11.35920
_cell_length_c 17.05830
_cell_angle_alpha 90.00000
_cell_angle_beta  90.00000
_cell_angle_gamma 91.25700

_symmetry_space_group_name_	'P 1'
_symmetry_space_group_name_H-M	'P 1'

loop_
_symmetry_equiv_pos_as_xyz
  x,y,z

loop_
_atom_site_label
_atom_site_type_symbol
_atom_site_fract_x
_atom_site_fract_y
_atom_site_fract_z
_atom_site_charge
Sr	Sr	0.72232 0.90441 0.99810 1.51100
Sr	Sr	0.77768 0.59559 0.49810 1.51300
Sr	Sr	0.27768 0.09559 0.00190 1.51200
Sr	Sr	0.22232 0.40441 0.50190 1.51400
H 	H 	0.11600 0.33600 0.68650 0.00500
H 	H 	0.15600 0.22550 0.81250 0.00800
H 	H 	0.38400 0.16400 0.18650 0.01000
H 	H 	0.34400 0.27450 0.31250 0.00300
H 	H 	0.88400 0.66400 0.31350 0.00500
H 	H 	0.84400 0.77450 0.18750 0.00800
H 	H 	0.61600 0.83600 0.81350 0.01000
H 	H 	0.65600 0.72550 0.68750 0.00300
C 	C 	0.78360 0.10510 0.87895 0.39700
C 	C 	0.82110 0.17947 0.80857 -0.13400
C 	C 	0.01740 0.23223 0.78424 -0.01400
C 	C 	0.99450 0.29282 0.71234 0.00600
C 	C 	0.78130 0.28395 0.68302 -0.14000
C 	C 	0.69200 0.32906 0.60743 0.41100
C 	C 	0.71640 0.39490 0.37895 0.40000
C 	C 	0.67890 0.32053 0.30857 -0.14300
C 	C 	0.48260 0.26777 0.28424 0.00200
C 	C 	0.50550 0.20718 0.21234 -0.00800
C 	C 	0.71870 0.21605 0.18302 -0.13700
C 	C 	0.80800 0.17094 0.10743 0.41200
C 	C 	0.21640 0.89490 0.12105 0.39700
C 	C 	0.17890 0.82053 0.19143 -0.13400
C 	C 	0.98260 0.76777 0.21576 -0.01400
C 	C 	0.00550 0.70718 0.28766 0.00600
C 	C 	0.21870 0.71605 0.31698 -0.14000
C 	C 	0.30800 0.67094 0.39257 0.41100
C 	C 	0.28360 0.60510 0.62105 0.40000
C 	C 	0.32110 0.67947 0.69143 -0.14300
C 	C 	0.51740 0.73223 0.71576 0.00200
C 	C 	0.49450 0.79282 0.78766 -0.00800
C 	C 	0.28130 0.78395 0.81698 -0.13700
C 	C 	0.19200 0.82906 0.89257 0.41200
S 	S 	0.60750 0.20338 0.74379 0.04600
S 	S 	0.89250 0.29662 0.24379 0.04600
S 	S 	0.39250 0.79662 0.25621 0.04600
S 	S 	0.10750 0.70338 0.75621 0.04600
O 	O 	0.58663 0.07470 0.89650 -0.51900
O 	O 	0.95366 0.07317 0.91648 -0.55100
O 	O 	0.48731 0.31005 0.59437 -0.46800
O 	O 	0.82865 0.38075 0.56214 -0.55100
O 	O 	0.91337 0.42530 0.39650 -0.52300
O 	O 	0.54634 0.42683 0.41648 -0.55700
O 	O 	0.01269 0.18995 0.09437 -0.47200
O 	O 	0.67135 0.11925 0.06214 -0.55400
O 	O 	0.41337 0.92530 0.10350 -0.51900
O 	O 	0.04634 0.92683 0.08352 -0.55100
O 	O 	0.51269 0.68995 0.40563 -0.46800
O 	O 	0.17135 0.61925 0.43786 -0.55100
O 	O 	0.08663 0.57470 0.60350 -0.52300
O 	O 	0.45366 0.57317 0.58352 -0.55700
O 	O 	0.98731 0.81005 0.90563 -0.47200
O 	O 	0.32865 0.88075 0.93786 -0.55400
