data_crystal

_cell_length_a 6.00780
_cell_length_b 16.94010
_cell_length_c 13.00610
_cell_angle_alpha 90.00000
_cell_angle_beta  116.15800
_cell_angle_gamma 90.00000

_symmetry_space_group_name_	'P 1'
_symmetry_space_group_name_H-M	'P 1'

loop_
_symmetry_equiv_pos_as_xyz
  x,y,z

loop_
_atom_site_label
_atom_site_type_symbol
_atom_site_fract_x
_atom_site_fract_y
_atom_site_fract_z
_atom_site_charge
Sr	Sr	0.81786 0.49947 0.59430 1.51100
S 	S 	0.40700 0.24147 0.29953 0.04400
O 	O 	0.17860 0.09262 0.18845 -0.47200
O 	O 	0.44810 0.06210 0.11886 -0.55400
O 	O 	0.51560 0.39432 0.42877 -0.52100
O 	O 	0.88100 0.41452 0.43023 -0.56000
C 	C 	0.68180 0.37694 0.39900 0.40600
C 	C 	0.64700 0.30611 0.32670 -0.14700
C 	C 	0.79090 0.28169 0.27580 0.00400
H 	H 	0.92930 0.30920 0.28070 0.00000
C 	C 	0.70750 0.21037 0.21490 -0.01200
H 	H 	0.78470 0.18600 0.17520 0.01100
C 	C 	0.50160 0.18086 0.22040 -0.13700
C 	C 	0.36450 0.10591 0.17150 0.41600
Sr	Sr	0.18214 0.99947 0.90570 1.51000
S 	S 	0.59300 0.74147 0.20047 0.04600
O 	O 	0.82140 0.59262 0.31155 -0.47200
O 	O 	0.55190 0.56210 0.38114 -0.55000
O 	O 	0.48440 0.89432 0.07123 -0.51700
O 	O 	0.11900 0.91452 0.06977 -0.55600
C 	C 	0.31820 0.87694 0.10100 0.40600
C 	C 	0.35300 0.80611 0.17330 -0.14500
C 	C 	0.20910 0.78169 0.22420 0.00400
H 	H 	0.07070 0.80920 0.21930 0.00200
C 	C 	0.29250 0.71037 0.28510 -0.01200
H 	H 	0.21530 0.68600 0.32480 0.01300
C 	C 	0.49840 0.68086 0.27960 -0.13600
C 	C 	0.63550 0.60591 0.32850 0.41600
Sr	Sr	0.18214 0.50053 0.40570 1.51200
S 	S 	0.59300 0.75853 0.70047 0.04500
O 	O 	0.82140 0.90738 0.81155 -0.47100
O 	O 	0.55190 0.93790 0.88114 -0.55300
O 	O 	0.48440 0.60568 0.57123 -0.52100
O 	O 	0.11900 0.58548 0.56977 -0.56000
C 	C 	0.31820 0.62306 0.60100 0.40600
C 	C 	0.35300 0.69389 0.67330 -0.14700
C 	C 	0.20910 0.71831 0.72420 0.00400
H 	H 	0.07070 0.69080 0.71930 0.00000
C 	C 	0.29250 0.78963 0.78510 -0.01200
H 	H 	0.21530 0.81400 0.82480 0.01100
C 	C 	0.49840 0.81914 0.77960 -0.13700
C 	C 	0.63550 0.89409 0.82850 0.41600
Sr	Sr	0.81786 0.00053 0.09430 1.51000
S 	S 	0.40700 0.25853 0.79953 0.04600
O 	O 	0.17860 0.40738 0.68845 -0.47200
O 	O 	0.44810 0.43790 0.61886 -0.55000
O 	O 	0.51560 0.10568 0.92877 -0.51700
O 	O 	0.88100 0.08548 0.93023 -0.55600
C 	C 	0.68180 0.12306 0.89900 0.40600
C 	C 	0.64700 0.19389 0.82670 -0.14500
C 	C 	0.79090 0.21831 0.77580 0.00400
H 	H 	0.92930 0.19080 0.78070 0.00200
C 	C 	0.70750 0.28963 0.71490 -0.01200
H 	H 	0.78470 0.31400 0.67520 0.01300
C 	C 	0.50160 0.31914 0.72040 -0.13600
C 	C 	0.36450 0.39409 0.67150 0.41600
