data_crystal

_cell_length_a 6.25870
_cell_length_b 15.15380
_cell_length_c 15.15380
_cell_angle_alpha 61.86370
_cell_angle_beta  82.08700
_cell_angle_gamma 97.91300

_symmetry_space_group_name_	'P 1'
_symmetry_space_group_name_H-M	'P 1'

loop_
_symmetry_equiv_pos_as_xyz
  x,y,z

loop_
_atom_site_label
_atom_site_type_symbol
_atom_site_fract_x
_atom_site_fract_y
_atom_site_fract_z
_atom_site_charge
Cu	Cu	0.92905 0.26049 0.43333 0.92200
Cu	Cu	0.36238 0.43333 0.30618 0.92300
Cu	Cu	0.66856 0.30618 0.26049 0.92300
Cu	Cu	0.07095 0.73951 0.56667 0.92200
Cu	Cu	0.63762 0.56667 0.69382 0.92300
Cu	Cu	0.33144 0.69382 0.73951 0.92300
H 	H 	0.31470 0.43960 0.53900 0.08200
H 	H 	0.85370 0.53900 0.02140 0.08200
H 	H 	0.87510 0.02140 0.43960 0.08100
H 	H 	0.68530 0.56040 0.46100 0.08200
H 	H 	0.14630 0.46100 0.97860 0.08200
H 	H 	0.12490 0.97860 0.56040 0.08100
C 	C 	0.18550 0.46390 0.52280 -0.08300
C 	C 	0.71820 0.42990 0.39850 0.38400
C 	C 	0.06390 0.42860 0.47130 0.17400
C 	C 	0.87250 0.46670 0.44850 -0.15500
C 	C 	0.70830 0.52280 0.01330 -0.08300
C 	C 	0.11670 0.39850 0.17160 0.38400
C 	C 	0.53520 0.47130 0.10010 0.17400
C 	C 	0.32100 0.44850 0.08480 -0.15400
C 	C 	0.72160 0.01330 0.46390 -0.08400
C 	C 	0.28830 0.17160 0.42990 0.38300
C 	C 	0.63530 0.10010 0.42860 0.17400
C 	C 	0.40580 0.08480 0.46670 -0.15300
C 	C 	0.81450 0.53610 0.47720 -0.08300
C 	C 	0.28180 0.57010 0.60150 0.38400
C 	C 	0.93610 0.57140 0.52870 0.17400
C 	C 	0.12750 0.53330 0.55150 -0.15500
C 	C 	0.29170 0.47720 0.98670 -0.08300
C 	C 	0.88330 0.60150 0.82840 0.38400
C 	C 	0.46480 0.52870 0.89990 0.17400
C 	C 	0.67900 0.55150 0.91520 -0.15400
C 	C 	0.27840 0.98670 0.53610 -0.08400
C 	C 	0.71170 0.82840 0.57010 0.38300
C 	C 	0.36470 0.89990 0.57140 0.17400
C 	C 	0.59420 0.91520 0.53330 -0.15300
O 	O 	0.13822 0.36365 0.44289 -0.43700
O 	O 	0.71667 0.34634 0.39963 -0.47900
O 	O 	0.58641 0.48460 0.35837 -0.40900
O 	O 	0.58111 0.44289 0.19346 -0.43800
O 	O 	0.11630 0.39963 0.25403 -0.47800
O 	O 	0.94478 0.35837 0.15703 -0.40900
O 	O 	0.77457 0.19346 0.36365 -0.43800
O 	O 	0.37033 0.25403 0.34634 -0.47800
O 	O 	0.10181 0.15703 0.48460 -0.40800
O 	O 	0.86178 0.63635 0.55711 -0.43700
O 	O 	0.28333 0.65366 0.60037 -0.47900
O 	O 	0.41359 0.51540 0.64163 -0.40900
O 	O 	0.41889 0.55711 0.80654 -0.43800
O 	O 	0.88370 0.60037 0.74597 -0.47800
O 	O 	0.05522 0.64163 0.84297 -0.40900
O 	O 	0.22543 0.80654 0.63635 -0.43800
O 	O 	0.62967 0.74597 0.65366 -0.47800
O 	O 	0.89819 0.84297 0.51540 -0.40800
