data_crystal

_cell_length_a 48.39310
_cell_length_b 48.39310
_cell_length_c 9.99980
_cell_angle_alpha 90.00000
_cell_angle_beta  90.00000
_cell_angle_gamma 90.00000

_symmetry_space_group_name_	'P 1'
_symmetry_space_group_name_H-M	'P 1'

loop_
_symmetry_equiv_pos_as_xyz
  x,y,z

loop_
_atom_site_label
_atom_site_type_symbol
_atom_site_fract_x
_atom_site_fract_y
_atom_site_fract_z
_atom_site_charge
Zn	Zn	0.37491 0.48206 0.32751 1.23300
Zn	Zn	0.43870 0.52212 0.17014 1.22900
P 	P 	0.31086 0.48433 0.28188 0.47800
P 	P 	0.40039 0.53913 0.39899 0.43300
P 	P 	0.41595 0.53755 0.89033 0.49800
O 	O 	0.28832 0.46271 0.29830 -0.52000
O 	O 	0.31535 0.49329 0.13630 -0.53300
O 	O 	0.33696 0.47337 0.34410 -0.44000
O 	O 	0.42974 0.53456 0.34940 -0.46600
O 	O 	0.37941 0.52221 0.32140 -0.47100
O 	O 	0.39928 0.53549 0.54780 -0.46600
O 	O 	0.47514 0.53522 0.12650 -0.45400
O 	O 	0.38697 0.53156 0.84480 -0.42000
O 	O 	0.41589 0.53949 0.03970 -0.48900
O 	O 	0.43787 0.51828 0.83320 -0.47100
H 	H 	0.29990 0.50960 0.37320 0.00800
H 	H 	0.39190 0.56790 0.37470 -0.01100
H 	H 	0.42130 0.56110 0.82130 -0.02000
Zn	Zn	0.87491 0.98206 0.82751 1.23700
Zn	Zn	0.93870 0.02212 0.67014 1.23000
P 	P 	0.81086 0.98433 0.78188 0.48100
P 	P 	0.90039 0.03913 0.89899 0.47600
P 	P 	0.91595 0.03755 0.39033 0.45100
O 	O 	0.78832 0.96271 0.79830 -0.50600
O 	O 	0.81535 0.99329 0.63630 -0.51300
O 	O 	0.83696 0.97337 0.84410 -0.42100
O 	O 	0.92974 0.03456 0.84940 -0.45800
O 	O 	0.87941 0.02221 0.82140 -0.46600
O 	O 	0.89928 0.03549 0.04780 -0.51400
O 	O 	0.97514 0.03522 0.62650 -0.43600
O 	O 	0.88697 0.03156 0.34480 -0.43200
O 	O 	0.91589 0.03949 0.53970 -0.44500
O 	O 	0.93787 0.01828 0.33320 -0.48300
H 	H 	0.79990 0.00960 0.87320 0.02000
H 	H 	0.89190 0.06790 0.87470 0.00100
H 	H 	0.92130 0.06110 0.32130 -0.03100
Zn	Zn	0.12509 0.51794 0.82751 1.23600
Zn	Zn	0.06130 0.47788 0.67014 1.23100
P 	P 	0.18914 0.51567 0.78188 0.47900
P 	P 	0.09961 0.46087 0.89899 0.47700
P 	P 	0.08405 0.46245 0.39033 0.45100
O 	O 	0.21168 0.53729 0.79830 -0.50600
O 	O 	0.18465 0.50671 0.63630 -0.51500
O 	O 	0.16304 0.52663 0.84410 -0.42100
O 	O 	0.07026 0.46544 0.84940 -0.45800
O 	O 	0.12059 0.47779 0.82140 -0.46400
O 	O 	0.10072 0.46451 0.04780 -0.51400
O 	O 	0.02486 0.46478 0.62650 -0.43600
O 	O 	0.11303 0.46844 0.34480 -0.43100
O 	O 	0.08411 0.46051 0.53970 -0.44500
O 	O 	0.06213 0.48172 0.33320 -0.48200
H 	H 	0.20010 0.49040 0.87320 0.02200
H 	H 	0.10810 0.43210 0.87470 0.00100
H 	H 	0.07870 0.43890 0.32130 -0.03100
Zn	Zn	0.62509 0.01794 0.32751 1.23100
Zn	Zn	0.56130 0.97788 0.17014 1.22800
P 	P 	0.68914 0.01567 0.28188 0.47500
P 	P 	0.59961 0.96087 0.39899 0.43200
P 	P 	0.58405 0.96245 0.89033 0.49700
O 	O 	0.71168 0.03729 0.29830 -0.52100
O 	O 	0.68465 0.00671 0.13630 -0.53600
O 	O 	0.66304 0.02663 0.34410 -0.44200
O 	O 	0.57026 0.96544 0.34940 -0.46600
O 	O 	0.62059 0.97779 0.32140 -0.47000
O 	O 	0.60072 0.96451 0.54780 -0.46500
O 	O 	0.52486 0.96478 0.12650 -0.45300
O 	O 	0.61303 0.96844 0.84480 -0.41900
O 	O 	0.58411 0.96051 0.03970 -0.48800
O 	O 	0.56213 0.98172 0.83320 -0.46900
H 	H 	0.70010 0.99040 0.37320 0.01000
H 	H 	0.60810 0.93210 0.37470 -0.01100
H 	H 	0.57870 0.93890 0.82130 -0.02000
Zn	Zn	0.76794 0.12491 0.57751 1.23300
Zn	Zn	0.72788 0.18870 0.42014 1.23000
P 	P 	0.76567 0.06086 0.53188 0.47700
P 	P 	0.71087 0.15039 0.64899 0.43100
P 	P 	0.71245 0.16595 0.14033 0.45100
O 	O 	0.78729 0.03832 0.54830 -0.51600
O 	O 	0.75671 0.06535 0.38630 -0.51700
O 	O 	0.77663 0.08696 0.59410 -0.43600
O 	O 	0.71544 0.17974 0.59940 -0.46200
O 	O 	0.72779 0.12941 0.57140 -0.46800
O 	O 	0.71451 0.14928 0.79780 -0.45100
O 	O 	0.71478 0.22514 0.37650 -0.44000
O 	O 	0.71844 0.13697 0.09480 -0.45500
O 	O 	0.71051 0.16589 0.28970 -0.44800
O 	O 	0.73172 0.18787 0.08320 -0.49800
H 	H 	0.74040 0.04990 0.62320 0.00800
H 	H 	0.68210 0.14190 0.62470 -0.00400
H 	H 	0.68890 0.17130 0.07130 -0.04000
Zn	Zn	0.26794 0.62491 0.07751 1.22200
Zn	Zn	0.22788 0.68870 0.92014 1.24100
P 	P 	0.26567 0.56086 0.03188 0.43300
P 	P 	0.21087 0.65039 0.14899 0.43000
P 	P 	0.21245 0.66595 0.64033 0.45100
O 	O 	0.28729 0.53832 0.04830 -0.53100
O 	O 	0.25671 0.56535 0.88630 -0.47500
O 	O 	0.27663 0.58696 0.09410 -0.44500
O 	O 	0.21544 0.67974 0.09940 -0.48900
O 	O 	0.22779 0.62941 0.07140 -0.48700
O 	O 	0.21451 0.64928 0.29780 -0.46800
O 	O 	0.21478 0.72514 0.87650 -0.43400
O 	O 	0.21844 0.63697 0.59480 -0.42500
O 	O 	0.21051 0.66589 0.78970 -0.42900
O 	O 	0.23172 0.68787 0.58320 -0.47700
H 	H 	0.24040 0.54990 0.12320 0.00300
H 	H 	0.18210 0.64190 0.12470 -0.01800
H 	H 	0.18890 0.67130 0.57130 -0.02200
Zn	Zn	0.73206 0.87509 0.07751 1.22200
Zn	Zn	0.77212 0.81130 0.92014 1.24100
P 	P 	0.73433 0.93914 0.03188 0.43300
P 	P 	0.78913 0.84961 0.14899 0.43100
P 	P 	0.78755 0.83405 0.64033 0.45100
O 	O 	0.71271 0.96168 0.04830 -0.53000
O 	O 	0.74329 0.93465 0.88630 -0.47500
O 	O 	0.72337 0.91304 0.09410 -0.44500
O 	O 	0.78456 0.82026 0.09940 -0.48900
O 	O 	0.77221 0.87059 0.07140 -0.48700
O 	O 	0.78549 0.85072 0.29780 -0.46800
O 	O 	0.78522 0.77486 0.87650 -0.43400
O 	O 	0.78156 0.86303 0.59480 -0.42500
O 	O 	0.78949 0.83411 0.78970 -0.42900
O 	O 	0.76828 0.81213 0.58320 -0.47700
H 	H 	0.75960 0.95010 0.12320 0.00300
H 	H 	0.81790 0.85810 0.12470 -0.01800
H 	H 	0.81110 0.82870 0.57130 -0.02200
Zn	Zn	0.23206 0.37509 0.57751 1.23300
Zn	Zn	0.27212 0.31130 0.42014 1.23000
P 	P 	0.23433 0.43914 0.53188 0.47700
P 	P 	0.28913 0.34961 0.64899 0.43100
P 	P 	0.28755 0.33405 0.14033 0.45100
O 	O 	0.21271 0.46168 0.54830 -0.51500
O 	O 	0.24329 0.43465 0.38630 -0.51700
O 	O 	0.22337 0.41304 0.59410 -0.43600
O 	O 	0.28456 0.32026 0.59940 -0.46200
O 	O 	0.27221 0.37059 0.57140 -0.46800
O 	O 	0.28549 0.35072 0.79780 -0.45100
O 	O 	0.28522 0.27486 0.37650 -0.44000
O 	O 	0.28156 0.36303 0.09480 -0.45500
O 	O 	0.28949 0.33411 0.28970 -0.44800
O 	O 	0.26828 0.31213 0.08320 -0.49800
H 	H 	0.25960 0.45010 0.62320 0.00800
H 	H 	0.31790 0.35810 0.62470 -0.00400
H 	H 	0.31110 0.32870 0.07130 -0.04000
Zn	Zn	0.12509 0.48206 0.17249 1.23000
Zn	Zn	0.06130 0.52212 0.32986 1.23000
P 	P 	0.18914 0.48433 0.21812 0.47400
P 	P 	0.09961 0.53913 0.10101 0.38800
P 	P 	0.08405 0.53755 0.60967 0.45100
O 	O 	0.21168 0.46271 0.20170 -0.52700
O 	O 	0.18465 0.49329 0.36370 -0.51600
O 	O 	0.16304 0.47337 0.15590 -0.45300
O 	O 	0.07026 0.53456 0.15060 -0.47300
O 	O 	0.12059 0.52221 0.17860 -0.47100
O 	O 	0.10072 0.53549 0.95220 -0.42000
O 	O 	0.02486 0.53522 0.37350 -0.43800
O 	O 	0.11303 0.53156 0.65520 -0.42600
O 	O 	0.08411 0.53949 0.46030 -0.44400
O 	O 	0.06213 0.51828 0.66680 -0.47200
H 	H 	0.20010 0.50960 0.12680 -0.00600
H 	H 	0.10810 0.56790 0.12530 -0.01500
H 	H 	0.07870 0.56110 0.67870 -0.01800
Zn	Zn	0.62509 0.98206 0.67249 1.23400
Zn	Zn	0.56130 0.02212 0.82986 1.23200
P 	P 	0.68914 0.98433 0.71812 0.47800
P 	P 	0.59961 0.03913 0.60101 0.43200
P 	P 	0.58405 0.03755 0.10967 0.40500
O 	O 	0.71168 0.96271 0.70170 -0.51100
O 	O 	0.68465 0.99329 0.86370 -0.49100
O 	O 	0.66304 0.97337 0.65590 -0.43300
O 	O 	0.57026 0.03456 0.65060 -0.46600
O 	O 	0.62059 0.02221 0.67860 -0.46500
O 	O 	0.60072 0.03549 0.45220 -0.46800
O 	O 	0.52486 0.03522 0.87350 -0.42100
O 	O 	0.61303 0.03156 0.15520 -0.43800
O 	O 	0.58411 0.03949 0.96030 -0.40000
O 	O 	0.56213 0.01828 0.16680 -0.48500
H 	H 	0.70010 0.00960 0.62680 0.00600
H 	H 	0.60810 0.06790 0.62530 -0.00500
H 	H 	0.57870 0.06110 0.17870 -0.02900
Zn	Zn	0.37491 0.51794 0.67249 1.23400
Zn	Zn	0.43870 0.47788 0.82986 1.23300
P 	P 	0.31086 0.51567 0.71812 0.47600
P 	P 	0.40039 0.46087 0.60101 0.43200
P 	P 	0.41595 0.46245 0.10967 0.40500
O 	O 	0.28832 0.53729 0.70170 -0.51100
O 	O 	0.31535 0.50671 0.86370 -0.49200
O 	O 	0.33696 0.52663 0.65590 -0.43400
O 	O 	0.42974 0.46544 0.65060 -0.46500
O 	O 	0.37941 0.47779 0.67860 -0.46300
O 	O 	0.39928 0.46451 0.45220 -0.46700
O 	O 	0.47514 0.46478 0.87350 -0.42000
O 	O 	0.38697 0.46844 0.15520 -0.43700
O 	O 	0.41589 0.46051 0.96030 -0.39900
O 	O 	0.43787 0.48172 0.16680 -0.48400
H 	H 	0.29990 0.49040 0.62680 0.00900
H 	H 	0.39190 0.43210 0.62530 -0.00500
H 	H 	0.42130 0.43890 0.17870 -0.02900
Zn	Zn	0.87491 0.01794 0.17249 1.22900
Zn	Zn	0.93870 0.97788 0.32986 1.23000
P 	P 	0.81086 0.01567 0.21812 0.47200
P 	P 	0.90039 0.96087 0.10101 0.38800
P 	P 	0.91595 0.96245 0.60967 0.45100
O 	O 	0.78832 0.03729 0.20170 -0.52700
O 	O 	0.81535 0.00671 0.36370 -0.51700
O 	O 	0.83696 0.02663 0.15590 -0.45400
O 	O 	0.92974 0.96544 0.15060 -0.47200
O 	O 	0.87941 0.97779 0.17860 -0.46900
O 	O 	0.89928 0.96451 0.95220 -0.41900
O 	O 	0.97514 0.96478 0.37350 -0.43600
O 	O 	0.88697 0.96844 0.65520 -0.42600
O 	O 	0.91589 0.96051 0.46030 -0.44300
O 	O 	0.93787 0.98172 0.66680 -0.47000
H 	H 	0.79990 0.99040 0.12680 -0.00300
H 	H 	0.89190 0.93210 0.12530 -0.01500
H 	H 	0.92130 0.93890 0.67870 -0.01800
Zn	Zn	0.73206 0.12491 0.92249 1.24400
Zn	Zn	0.77212 0.18870 0.07986 1.21800
P 	P 	0.73433 0.06086 0.96812 0.52100
P 	P 	0.78913 0.15039 0.85101 0.43300
P 	P 	0.78755 0.16595 0.35967 0.45200
O 	O 	0.71271 0.03832 0.95170 -0.49700
O 	O 	0.74329 0.06535 0.11370 -0.55700
O 	O 	0.72337 0.08696 0.90590 -0.42900
O 	O 	0.78456 0.17974 0.90060 -0.44100
O 	O 	0.77221 0.12941 0.92860 -0.44600
O 	O 	0.78549 0.14928 0.70220 -0.46500
O 	O 	0.78522 0.22514 0.12350 -0.44000
O 	O 	0.78156 0.13697 0.40520 -0.43300
O 	O 	0.78949 0.16589 0.21030 -0.46100
O 	O 	0.76828 0.18787 0.41680 -0.47800
H 	H 	0.75960 0.04990 0.87680 0.01300
H 	H 	0.81790 0.14190 0.87530 0.00400
H 	H 	0.81110 0.17130 0.42870 -0.02700
Zn	Zn	0.23206 0.62491 0.42249 1.23300
Zn	Zn	0.27212 0.68870 0.57986 1.23000
P 	P 	0.23433 0.56086 0.46812 0.47700
P 	P 	0.28913 0.65039 0.35101 0.43200
P 	P 	0.28755 0.66595 0.85967 0.45100
O 	O 	0.21271 0.53832 0.45170 -0.51700
O 	O 	0.24329 0.56535 0.61370 -0.51300
O 	O 	0.22337 0.58696 0.40590 -0.43800
O 	O 	0.28456 0.67974 0.40060 -0.47000
O 	O 	0.27221 0.62941 0.42860 -0.46700
O 	O 	0.28549 0.64928 0.20220 -0.48200
O 	O 	0.28522 0.72514 0.62350 -0.43400
O 	O 	0.28156 0.63697 0.90520 -0.40300
O 	O 	0.28949 0.66589 0.71030 -0.44200
O 	O 	0.26828 0.68787 0.91680 -0.45800
H 	H 	0.25960 0.54990 0.37680 0.00800
H 	H 	0.31790 0.64190 0.37530 -0.01100
H 	H 	0.31110 0.67130 0.92870 -0.01000
Zn	Zn	0.76794 0.87509 0.42249 1.23300
Zn	Zn	0.72788 0.81130 0.57986 1.23000
P 	P 	0.76567 0.93914 0.46812 0.47700
P 	P 	0.71087 0.84961 0.35101 0.43200
P 	P 	0.71245 0.83405 0.85967 0.45100
O 	O 	0.78729 0.96168 0.45170 -0.51600
O 	O 	0.75671 0.93465 0.61370 -0.51300
O 	O 	0.77663 0.91304 0.40590 -0.43800
O 	O 	0.71544 0.82026 0.40060 -0.47000
O 	O 	0.72779 0.87059 0.42860 -0.46700
O 	O 	0.71451 0.85072 0.20220 -0.48200
O 	O 	0.71478 0.77486 0.62350 -0.43400
O 	O 	0.71844 0.86303 0.90520 -0.40300
O 	O 	0.71051 0.83411 0.71030 -0.44200
O 	O 	0.73172 0.81213 0.91680 -0.45800
H 	H 	0.74040 0.95010 0.37680 0.00800
H 	H 	0.68210 0.85810 0.37530 -0.01100
H 	H 	0.68890 0.82870 0.92870 -0.01000
Zn	Zn	0.26794 0.37509 0.92249 1.24400
Zn	Zn	0.22788 0.31130 0.07986 1.21800
P 	P 	0.26567 0.43914 0.96812 0.52100
P 	P 	0.21087 0.34961 0.85101 0.43300
P 	P 	0.21245 0.33405 0.35967 0.45200
O 	O 	0.28729 0.46168 0.95170 -0.49600
O 	O 	0.25671 0.43465 0.11370 -0.55700
O 	O 	0.27663 0.41304 0.90590 -0.42900
O 	O 	0.21544 0.32026 0.90060 -0.44100
O 	O 	0.22779 0.37059 0.92860 -0.44600
O 	O 	0.21451 0.35072 0.70220 -0.46500
O 	O 	0.21478 0.27486 0.12350 -0.44000
O 	O 	0.21844 0.36303 0.40520 -0.43300
O 	O 	0.21051 0.33411 0.21030 -0.46100
O 	O 	0.23172 0.31213 0.41680 -0.47800
H 	H 	0.24040 0.45010 0.87680 0.01400
H 	H 	0.18210 0.35810 0.87530 0.00400
H 	H 	0.18890 0.32870 0.42870 -0.02700
Zn	Zn	0.62509 0.51794 0.67249 1.23400
Zn	Zn	0.56130 0.47788 0.82986 1.23300
P 	P 	0.68914 0.51567 0.71812 0.47600
P 	P 	0.59961 0.46087 0.60101 0.43200
P 	P 	0.58405 0.46245 0.10967 0.40500
O 	O 	0.71168 0.53729 0.70170 -0.51100
O 	O 	0.68465 0.50671 0.86370 -0.49200
O 	O 	0.66304 0.52663 0.65590 -0.43400
O 	O 	0.57026 0.46544 0.65060 -0.46500
O 	O 	0.62059 0.47779 0.67860 -0.46300
O 	O 	0.60072 0.46451 0.45220 -0.46700
O 	O 	0.52486 0.46478 0.87350 -0.42000
O 	O 	0.61303 0.46844 0.15520 -0.43700
O 	O 	0.58411 0.46051 0.96030 -0.39900
O 	O 	0.56213 0.48172 0.16680 -0.48400
H 	H 	0.70010 0.49040 0.62680 0.00900
H 	H 	0.60810 0.43210 0.62530 -0.00500
H 	H 	0.57870 0.43890 0.17870 -0.02900
Zn	Zn	0.12509 0.01794 0.17249 1.22900
Zn	Zn	0.06130 0.97788 0.32986 1.23000
P 	P 	0.18914 0.01567 0.21812 0.47200
P 	P 	0.09961 0.96087 0.10101 0.38800
P 	P 	0.08405 0.96245 0.60967 0.45100
O 	O 	0.21168 0.03729 0.20170 -0.52700
O 	O 	0.18465 0.00671 0.36370 -0.51700
O 	O 	0.16304 0.02663 0.15590 -0.45400
O 	O 	0.07026 0.96544 0.15060 -0.47200
O 	O 	0.12059 0.97779 0.17860 -0.46900
O 	O 	0.10072 0.96451 0.95220 -0.41900
O 	O 	0.02486 0.96478 0.37350 -0.43700
O 	O 	0.11303 0.96844 0.65520 -0.42600
O 	O 	0.08411 0.96051 0.46030 -0.44300
O 	O 	0.06213 0.98172 0.66680 -0.47000
H 	H 	0.20010 0.99040 0.12680 -0.00300
H 	H 	0.10810 0.93210 0.12530 -0.01500
H 	H 	0.07870 0.93890 0.67870 -0.01800
Zn	Zn	0.87491 0.48206 0.17249 1.23000
Zn	Zn	0.93870 0.52212 0.32986 1.23000
P 	P 	0.81086 0.48433 0.21812 0.47400
P 	P 	0.90039 0.53913 0.10101 0.38800
P 	P 	0.91595 0.53755 0.60967 0.45100
O 	O 	0.78832 0.46271 0.20170 -0.52700
O 	O 	0.81535 0.49329 0.36370 -0.51600
O 	O 	0.83696 0.47337 0.15590 -0.45300
O 	O 	0.92974 0.53456 0.15060 -0.47300
O 	O 	0.87941 0.52221 0.17860 -0.47100
O 	O 	0.89928 0.53549 0.95220 -0.42000
O 	O 	0.97514 0.53522 0.37350 -0.43700
O 	O 	0.88697 0.53156 0.65520 -0.42600
O 	O 	0.91589 0.53949 0.46030 -0.44400
O 	O 	0.93787 0.51828 0.66680 -0.47200
H 	H 	0.79990 0.50960 0.12680 -0.00600
H 	H 	0.89190 0.56790 0.12530 -0.01500
H 	H 	0.92130 0.56110 0.67870 -0.01800
Zn	Zn	0.37491 0.98206 0.67249 1.23400
Zn	Zn	0.43870 0.02212 0.82986 1.23200
P 	P 	0.31086 0.98433 0.71812 0.47800
P 	P 	0.40039 0.03913 0.60101 0.43200
P 	P 	0.41595 0.03755 0.10967 0.40500
O 	O 	0.28832 0.96271 0.70170 -0.51100
O 	O 	0.31535 0.99329 0.86370 -0.49100
O 	O 	0.33696 0.97337 0.65590 -0.43300
O 	O 	0.42974 0.03456 0.65060 -0.46600
O 	O 	0.37941 0.02221 0.67860 -0.46500
O 	O 	0.39928 0.03549 0.45220 -0.46800
O 	O 	0.47514 0.03522 0.87350 -0.42100
O 	O 	0.38697 0.03156 0.15520 -0.43800
O 	O 	0.41589 0.03949 0.96030 -0.40000
O 	O 	0.43787 0.01828 0.16680 -0.48500
H 	H 	0.29990 0.00960 0.62680 0.00600
H 	H 	0.39190 0.06790 0.62530 -0.00500
H 	H 	0.42130 0.06110 0.17870 -0.02900
Zn	Zn	0.23206 0.87509 0.42249 1.23300
Zn	Zn	0.27212 0.81130 0.57986 1.23000
P 	P 	0.23433 0.93914 0.46812 0.47700
P 	P 	0.28913 0.84961 0.35101 0.43200
P 	P 	0.28755 0.83405 0.85967 0.45100
O 	O 	0.21271 0.96168 0.45170 -0.51600
O 	O 	0.24329 0.93465 0.61370 -0.51300
O 	O 	0.22337 0.91304 0.40590 -0.43800
O 	O 	0.28456 0.82026 0.40060 -0.47000
O 	O 	0.27221 0.87059 0.42860 -0.46700
O 	O 	0.28549 0.85072 0.20220 -0.48200
O 	O 	0.28522 0.77486 0.62350 -0.43400
O 	O 	0.28156 0.86303 0.90520 -0.40300
O 	O 	0.28949 0.83411 0.71030 -0.44200
O 	O 	0.26828 0.81213 0.91680 -0.45800
H 	H 	0.25960 0.95010 0.37680 0.00800
H 	H 	0.31790 0.85810 0.37530 -0.01100
H 	H 	0.31110 0.82870 0.92870 -0.01000
Zn	Zn	0.73206 0.37509 0.92249 1.24400
Zn	Zn	0.77212 0.31130 0.07986 1.21800
P 	P 	0.73433 0.43914 0.96812 0.52100
P 	P 	0.78913 0.34961 0.85101 0.43300
P 	P 	0.78755 0.33405 0.35967 0.45200
O 	O 	0.71271 0.46168 0.95170 -0.49600
O 	O 	0.74329 0.43465 0.11370 -0.55700
O 	O 	0.72337 0.41304 0.90590 -0.42900
O 	O 	0.78456 0.32026 0.90060 -0.44100
O 	O 	0.77221 0.37059 0.92860 -0.44600
O 	O 	0.78549 0.35072 0.70220 -0.46500
O 	O 	0.78522 0.27486 0.12350 -0.44000
O 	O 	0.78156 0.36303 0.40520 -0.43300
O 	O 	0.78949 0.33411 0.21030 -0.46100
O 	O 	0.76828 0.31213 0.41680 -0.47800
H 	H 	0.75960 0.45010 0.87680 0.01400
H 	H 	0.81790 0.35810 0.87530 0.00400
H 	H 	0.81110 0.32870 0.42870 -0.02700
Zn	Zn	0.26794 0.12491 0.92249 1.24400
Zn	Zn	0.22788 0.18870 0.07986 1.21800
P 	P 	0.26567 0.06086 0.96812 0.52100
P 	P 	0.21087 0.15039 0.85101 0.43300
P 	P 	0.21245 0.16595 0.35967 0.45200
O 	O 	0.28729 0.03832 0.95170 -0.49700
O 	O 	0.25671 0.06535 0.11370 -0.55700
O 	O 	0.27663 0.08696 0.90590 -0.42900
O 	O 	0.21544 0.17974 0.90060 -0.44100
O 	O 	0.22779 0.12941 0.92860 -0.44600
O 	O 	0.21451 0.14928 0.70220 -0.46500
O 	O 	0.21478 0.22514 0.12350 -0.44000
O 	O 	0.21844 0.13697 0.40520 -0.43300
O 	O 	0.21051 0.16589 0.21030 -0.46100
O 	O 	0.23172 0.18787 0.41680 -0.47800
H 	H 	0.24040 0.04990 0.87680 0.01300
H 	H 	0.18210 0.14190 0.87530 0.00400
H 	H 	0.18890 0.17130 0.42870 -0.02700
Zn	Zn	0.76794 0.62491 0.42249 1.23300
Zn	Zn	0.72788 0.68870 0.57986 1.23000
P 	P 	0.76567 0.56086 0.46812 0.47700
P 	P 	0.71087 0.65039 0.35101 0.43200
P 	P 	0.71245 0.66595 0.85967 0.45100
O 	O 	0.78729 0.53832 0.45170 -0.51700
O 	O 	0.75671 0.56535 0.61370 -0.51300
O 	O 	0.77663 0.58696 0.40590 -0.43800
O 	O 	0.71544 0.67974 0.40060 -0.47000
O 	O 	0.72779 0.62941 0.42860 -0.46700
O 	O 	0.71451 0.64928 0.20220 -0.48200
O 	O 	0.71478 0.72514 0.62350 -0.43400
O 	O 	0.71844 0.63697 0.90520 -0.40300
O 	O 	0.71051 0.66589 0.71030 -0.44200
O 	O 	0.73172 0.68787 0.91680 -0.45800
H 	H 	0.74040 0.54990 0.37680 0.00800
H 	H 	0.68210 0.64190 0.37530 -0.01100
H 	H 	0.68890 0.67130 0.92870 -0.01000
Zn	Zn	0.87491 0.51794 0.82751 1.23600
Zn	Zn	0.93870 0.47788 0.67014 1.23100
P 	P 	0.81086 0.51567 0.78188 0.47900
P 	P 	0.90039 0.46087 0.89899 0.47700
P 	P 	0.91595 0.46245 0.39033 0.45100
O 	O 	0.78832 0.53729 0.79830 -0.50600
O 	O 	0.81535 0.50671 0.63630 -0.51500
O 	O 	0.83696 0.52663 0.84410 -0.42100
O 	O 	0.92974 0.46544 0.84940 -0.45700
O 	O 	0.87941 0.47779 0.82140 -0.46400
O 	O 	0.89928 0.46451 0.04780 -0.51400
O 	O 	0.97514 0.46478 0.62650 -0.43500
O 	O 	0.88697 0.46844 0.34480 -0.43100
O 	O 	0.91589 0.46051 0.53970 -0.44500
O 	O 	0.93787 0.48172 0.33320 -0.48200
H 	H 	0.79990 0.49040 0.87320 0.02200
H 	H 	0.89190 0.43210 0.87470 0.00100
H 	H 	0.92130 0.43890 0.32130 -0.03100
Zn	Zn	0.37491 0.01794 0.32751 1.23100
Zn	Zn	0.43870 0.97788 0.17014 1.22800
P 	P 	0.31086 0.01567 0.28188 0.47500
P 	P 	0.40039 0.96087 0.39899 0.43200
P 	P 	0.41595 0.96245 0.89033 0.49700
O 	O 	0.28832 0.03729 0.29830 -0.52100
O 	O 	0.31535 0.00671 0.13630 -0.53600
O 	O 	0.33696 0.02663 0.34410 -0.44200
O 	O 	0.42974 0.96544 0.34940 -0.46600
O 	O 	0.37941 0.97779 0.32140 -0.47000
O 	O 	0.39928 0.96451 0.54780 -0.46500
O 	O 	0.47514 0.96478 0.12650 -0.45300
O 	O 	0.38697 0.96844 0.84480 -0.41900
O 	O 	0.41589 0.96051 0.03970 -0.48800
O 	O 	0.43787 0.98172 0.83320 -0.46900
H 	H 	0.29990 0.99040 0.37320 0.01000
H 	H 	0.39190 0.93210 0.37470 -0.01100
H 	H 	0.42130 0.93890 0.82130 -0.02000
Zn	Zn	0.62509 0.48206 0.32751 1.23200
Zn	Zn	0.56130 0.52212 0.17014 1.22800
P 	P 	0.68914 0.48433 0.28188 0.47700
P 	P 	0.59961 0.53913 0.39899 0.43200
P 	P 	0.58405 0.53755 0.89033 0.49600
O 	O 	0.71168 0.46271 0.29830 -0.52100
O 	O 	0.68465 0.49329 0.13630 -0.53400
O 	O 	0.66304 0.47337 0.34410 -0.44100
O 	O 	0.57026 0.53456 0.34940 -0.46700
O 	O 	0.62059 0.52221 0.32140 -0.47200
O 	O 	0.60072 0.53549 0.54780 -0.46600
O 	O 	0.52486 0.53522 0.12650 -0.45400
O 	O 	0.61303 0.53156 0.84480 -0.42000
O 	O 	0.58411 0.53949 0.03970 -0.48900
O 	O 	0.56213 0.51828 0.83320 -0.47100
H 	H 	0.70010 0.50960 0.37320 0.00800
H 	H 	0.60810 0.56790 0.37470 -0.01100
H 	H 	0.57870 0.56110 0.82130 -0.02000
Zn	Zn	0.12509 0.98206 0.82751 1.23700
Zn	Zn	0.06130 0.02212 0.67014 1.23000
P 	P 	0.18914 0.98433 0.78188 0.48100
P 	P 	0.09961 0.03913 0.89899 0.47600
P 	P 	0.08405 0.03755 0.39033 0.45100
O 	O 	0.21168 0.96271 0.79830 -0.50600
O 	O 	0.18465 0.99329 0.63630 -0.51300
O 	O 	0.16304 0.97337 0.84410 -0.42100
O 	O 	0.07026 0.03456 0.84940 -0.45800
O 	O 	0.12059 0.02221 0.82140 -0.46600
O 	O 	0.10072 0.03549 0.04780 -0.51500
O 	O 	0.02486 0.03522 0.62650 -0.43700
O 	O 	0.11303 0.03156 0.34480 -0.43200
O 	O 	0.08411 0.03949 0.53970 -0.44600
O 	O 	0.06213 0.01828 0.33320 -0.48400
H 	H 	0.20010 0.00960 0.87320 0.02000
H 	H 	0.10810 0.06790 0.87470 0.00100
H 	H 	0.07870 0.06110 0.32130 -0.03100
Zn	Zn	0.26794 0.87509 0.07751 1.22200
Zn	Zn	0.22788 0.81130 0.92014 1.24100
P 	P 	0.26567 0.93914 0.03188 0.43300
P 	P 	0.21087 0.84961 0.14899 0.43000
P 	P 	0.21245 0.83405 0.64033 0.45100
O 	O 	0.28729 0.96168 0.04830 -0.53000
O 	O 	0.25671 0.93465 0.88630 -0.47500
O 	O 	0.27663 0.91304 0.09410 -0.44500
O 	O 	0.21544 0.82026 0.09940 -0.48900
O 	O 	0.22779 0.87059 0.07140 -0.48700
O 	O 	0.21451 0.85072 0.29780 -0.46800
O 	O 	0.21478 0.77486 0.87650 -0.43400
O 	O 	0.21844 0.86303 0.59480 -0.42500
O 	O 	0.21051 0.83411 0.78970 -0.42900
O 	O 	0.23172 0.81213 0.58320 -0.47700
H 	H 	0.24040 0.95010 0.12320 0.00300
H 	H 	0.18210 0.85810 0.12470 -0.01800
H 	H 	0.18890 0.82870 0.57130 -0.02200
Zn	Zn	0.76794 0.37509 0.57751 1.23300
Zn	Zn	0.72788 0.31130 0.42014 1.23000
P 	P 	0.76567 0.43914 0.53188 0.47700
P 	P 	0.71087 0.34961 0.64899 0.43100
P 	P 	0.71245 0.33405 0.14033 0.45100
O 	O 	0.78729 0.46168 0.54830 -0.51500
O 	O 	0.75671 0.43465 0.38630 -0.51700
O 	O 	0.77663 0.41304 0.59410 -0.43600
O 	O 	0.71544 0.32026 0.59940 -0.46200
O 	O 	0.72779 0.37059 0.57140 -0.46800
O 	O 	0.71451 0.35072 0.79780 -0.45100
O 	O 	0.71478 0.27486 0.37650 -0.44000
O 	O 	0.71844 0.36303 0.09480 -0.45500
O 	O 	0.71051 0.33411 0.28970 -0.44800
O 	O 	0.73172 0.31213 0.08320 -0.49800
H 	H 	0.74040 0.45010 0.62320 0.00800
H 	H 	0.68210 0.35810 0.62470 -0.00400
H 	H 	0.68890 0.32870 0.07130 -0.04000
Zn	Zn	0.23206 0.12491 0.57751 1.23300
Zn	Zn	0.27212 0.18870 0.42014 1.23000
P 	P 	0.23433 0.06086 0.53188 0.47700
P 	P 	0.28913 0.15039 0.64899 0.43100
P 	P 	0.28755 0.16595 0.14033 0.45100
O 	O 	0.21271 0.03832 0.54830 -0.51600
O 	O 	0.24329 0.06535 0.38630 -0.51700
O 	O 	0.22337 0.08696 0.59410 -0.43600
O 	O 	0.28456 0.17974 0.59940 -0.46200
O 	O 	0.27221 0.12941 0.57140 -0.46800
O 	O 	0.28549 0.14928 0.79780 -0.45100
O 	O 	0.28522 0.22514 0.37650 -0.44000
O 	O 	0.28156 0.13697 0.09480 -0.45500
O 	O 	0.28949 0.16589 0.28970 -0.44800
O 	O 	0.26828 0.18787 0.08320 -0.49800
H 	H 	0.25960 0.04990 0.62320 0.00800
H 	H 	0.31790 0.14190 0.62470 -0.00400
H 	H 	0.31110 0.17130 0.07130 -0.04000
Zn	Zn	0.73206 0.62491 0.07751 1.22200
Zn	Zn	0.77212 0.68870 0.92014 1.24100
P 	P 	0.73433 0.56086 0.03188 0.43300
P 	P 	0.78913 0.65039 0.14899 0.43100
P 	P 	0.78755 0.66595 0.64033 0.45100
O 	O 	0.71271 0.53832 0.04830 -0.53100
O 	O 	0.74329 0.56535 0.88630 -0.47500
O 	O 	0.72337 0.58696 0.09410 -0.44500
O 	O 	0.78456 0.67974 0.09940 -0.48900
O 	O 	0.77221 0.62941 0.07140 -0.48700
O 	O 	0.78549 0.64928 0.29780 -0.46800
O 	O 	0.78522 0.72514 0.87650 -0.43400
O 	O 	0.78156 0.63697 0.59480 -0.42500
O 	O 	0.78949 0.66589 0.78970 -0.42900
O 	O 	0.76828 0.68787 0.58320 -0.47700
H 	H 	0.75960 0.54990 0.12320 0.00300
H 	H 	0.81790 0.64190 0.12470 -0.01800
H 	H 	0.81110 0.67130 0.57130 -0.02200
Ga	Ga	0.25000 0.46290 0.25000 2.10400
Ga	Ga	0.75000 0.96290 0.75000 2.10500
Ga	Ga	0.25000 0.53710 0.75000 2.10500
Ga	Ga	0.75000 0.03710 0.25000 2.10400
Ga	Ga	0.78710 0.00000 0.50000 2.10400
Ga	Ga	0.28710 0.50000 -0.00000 2.09300
Ga	Ga	0.71290 0.00000 -0.00000 2.09200
Ga	Ga	0.21290 0.50000 0.50000 2.10400
Ga	Ga	0.75000 0.53710 0.75000 2.10500
Ga	Ga	0.25000 0.03710 0.25000 2.10400
Ga	Ga	0.75000 0.46290 0.25000 2.10400
Ga	Ga	0.25000 0.96290 0.75000 2.10500
Ga	Ga	0.21290 0.00000 0.50000 2.10400
Ga	Ga	0.71290 0.50000 -0.00000 2.09300
Ga	Ga	0.28710 0.00000 -0.00000 2.09200
Ga	Ga	0.78710 0.50000 0.50000 2.10400
Zn	Zn	0.50000 0.50000 0.50000 1.15100
Zn	Zn	-0.00000 0.00000 -0.00000 1.13300
Zn	Zn	-0.00000 0.50000 -0.00000 1.13400
Zn	Zn	0.50000 0.00000 0.50000 1.15000
Zn	Zn	0.75000 0.25000 0.75000 1.15500
Zn	Zn	0.75000 0.75000 0.25000 1.14800
Zn	Zn	0.25000 0.75000 0.25000 1.14800
Zn	Zn	0.25000 0.25000 0.75000 1.15500
P 	P 	0.50000 0.53479 0.21515 0.47600
O 	O 	0.50000 0.51050 0.30840 -0.53200
H 	H 	0.50000 0.55770 0.28810 -0.07200
P 	P 	0.00000 0.03479 0.71515 0.47400
O 	O 	-0.00000 0.01050 0.80840 -0.51000
H 	H 	-0.00000 0.05770 0.78810 -0.06000
P 	P 	0.00000 0.46521 0.71515 0.47400
O 	O 	0.00000 0.48950 0.80840 -0.50800
H 	H 	0.00000 0.44230 0.78810 -0.06000
P 	P 	0.50000 0.96521 0.21515 0.47600
O 	O 	0.50000 0.98950 0.30840 -0.53000
H 	H 	0.50000 0.94230 0.28810 -0.07200
P 	P 	0.71521 0.25000 0.46515 0.47500
O 	O 	0.73950 0.25000 0.55840 -0.52500
H 	H 	0.69230 0.25000 0.53810 -0.06600
P 	P 	0.78479 0.75000 0.96515 0.55700
O 	O 	0.76050 0.75000 0.05840 -0.58000
H 	H 	0.80770 0.75000 0.03810 -0.10900
P 	P 	-0.00000 0.53479 0.28485 0.47400
O 	O 	-0.00000 0.51050 0.19160 -0.54000
H 	H 	-0.00000 0.55770 0.21190 -0.07700
P 	P 	0.50000 0.03479 0.78485 0.47400
O 	O 	0.50000 0.01050 0.69160 -0.52600
H 	H 	0.50000 0.05770 0.71190 -0.06600
P 	P 	0.50000 0.46521 0.78485 0.47400
O 	O 	0.50000 0.48950 0.69160 -0.52400
H 	H 	0.50000 0.44230 0.71190 -0.06600
P 	P 	-0.00000 0.96521 0.28485 0.47400
O 	O 	0.00000 0.98950 0.19160 -0.53700
H 	H 	-0.00000 0.94230 0.21190 -0.07600
P 	P 	0.78479 0.25000 0.03485 0.38600
O 	O 	0.76050 0.25000 0.94160 -0.47200
H 	H 	0.80770 0.25000 0.96190 -0.02500
P 	P 	0.71521 0.75000 0.53485 0.47500
O 	O 	0.73950 0.75000 0.44160 -0.53100
H 	H 	0.69230 0.75000 0.46190 -0.07200
P 	P 	0.28479 0.75000 0.53485 0.47500
O 	O 	0.26050 0.75000 0.44160 -0.53100
H 	H 	0.30770 0.75000 0.46190 -0.07200
P 	P 	0.21521 0.25000 0.03485 0.38600
O 	O 	0.23950 0.25000 0.94160 -0.47100
H 	H 	0.19230 0.25000 0.96190 -0.02500
P 	P 	0.21521 0.75000 0.96515 0.55700
O 	O 	0.23950 0.75000 0.05840 -0.58000
H 	H 	0.19230 0.75000 0.03810 -0.10900
P 	P 	0.28479 0.25000 0.46515 0.47500
O 	O 	0.26050 0.25000 0.55840 -0.52500
H 	H 	0.30770 0.25000 0.53810 -0.06600
F 	F 	0.24263 0.49263 0.37500 -0.84400
F 	F 	0.25737 0.50737 0.87500 -0.82600
F 	F 	0.75737 0.99263 0.62500 -0.84200
F 	F 	0.74263 0.00737 0.12500 -0.86000
F 	F 	0.25737 0.49263 0.12500 -0.85900
F 	F 	0.24263 0.50737 0.62500 -0.84400
F 	F 	0.74263 0.99263 0.87500 -0.82400
F 	F 	0.75737 0.00737 0.37500 -0.84500
F 	F 	0.75737 0.50737 0.62500 -0.84400
F 	F 	0.74263 0.49263 0.12500 -0.85900
F 	F 	0.24263 0.99263 0.62500 -0.84200
F 	F 	0.24263 0.00737 0.37500 -0.84500
F 	F 	0.25737 0.99263 0.87500 -0.82400
F 	F 	0.74263 0.50737 0.87500 -0.82600
F 	F 	0.75737 0.49263 0.37500 -0.84400
F 	F 	0.25737 0.00737 0.12500 -0.86000
