data_crystal

_cell_length_a 52.17490
_cell_length_b 52.17490
_cell_length_c 10.02290
_cell_angle_alpha 90.00000
_cell_angle_beta  90.00000
_cell_angle_gamma 90.00000

_symmetry_space_group_name_	'P 1'
_symmetry_space_group_name_H-M	'P 1'

loop_
_symmetry_equiv_pos_as_xyz
  x,y,z

loop_
_atom_site_label
_atom_site_type_symbol
_atom_site_fract_x
_atom_site_fract_y
_atom_site_fract_z
_atom_site_charge
Zn	Zn	0.53128 0.31047 0.03708 1.23300
Zn	Zn	0.61162 0.39036 0.04589 1.23100
Zn	Zn	0.67968 0.40601 0.20159 1.23000
P 	P 	0.72018 0.44956 0.15590 0.49800
P 	P 	0.56285 0.35796 0.08760 0.55500
P 	P 	0.50619 0.29934 0.76250 0.40600
P 	P 	0.62575 0.42659 0.27330 0.45000
P 	P 	0.66546 0.36624 0.98370 0.42500
O 	O 	0.74923 0.45020 0.17260 -0.51200
O 	O 	0.71158 0.45226 0.01050 -0.50600
O 	O 	0.71061 0.42515 0.21190 -0.44000
O 	O 	0.54770 0.34205 0.99070 -0.46000
O 	O 	0.57751 0.34219 0.18270 -0.53200
O 	O 	0.57870 0.37510 0.00390 -0.45100
O 	O 	0.50537 0.30090 0.91430 -0.46400
O 	O 	0.53221 0.30579 0.70320 -0.46400
O 	O 	0.48449 0.31622 0.70850 -0.44000
O 	O 	0.65053 0.42940 0.19740 -0.47200
O 	O 	0.60981 0.40444 0.22610 -0.47000
O 	O 	0.62820 0.42520 0.42050 -0.46500
O 	O 	0.63790 0.36460 0.04100 -0.47000
O 	O 	0.66660 0.36490 0.83730 -0.44500
O 	O 	0.67970 0.38960 0.02700 -0.41700
H 	H 	0.70930 0.46890 0.23210 -0.02000
H 	H 	0.54880 0.36090 0.17320 -0.12300
H 	H 	0.49060 0.27800 0.74520 -0.05500
H 	H 	0.61550 0.45140 0.26260 -0.01500
H 	H 	0.68330 0.35030 0.05300 -0.01000
Zn	Zn	0.03128 0.81047 0.53708 1.23100
Zn	Zn	0.11162 0.89036 0.54589 1.23000
Zn	Zn	0.17968 0.90601 0.70159 1.23000
P 	P 	0.22018 0.94956 0.65590 0.49900
P 	P 	0.06285 0.85796 0.58760 0.54700
P 	P 	0.00619 0.79934 0.26250 0.40800
P 	P 	0.12575 0.92659 0.77330 0.45100
P 	P 	0.16546 0.86624 0.48370 0.45000
O 	O 	0.24923 0.95020 0.67260 -0.51500
O 	O 	0.21158 0.95226 0.51050 -0.51100
O 	O 	0.21061 0.92515 0.71190 -0.44200
O 	O 	0.04770 0.84205 0.49070 -0.44700
O 	O 	0.07751 0.84219 0.68270 -0.53300
O 	O 	0.07870 0.87510 0.50390 -0.45400
O 	O 	0.00537 0.80090 0.41430 -0.45800
O 	O 	0.03221 0.80579 0.20320 -0.46100
O 	O 	0.98449 0.81622 0.20850 -0.43600
O 	O 	0.15053 0.92940 0.69740 -0.47500
O 	O 	0.10981 0.90444 0.72610 -0.47300
O 	O 	0.12820 0.92520 0.92050 -0.47300
O 	O 	0.13790 0.86460 0.54100 -0.48100
O 	O 	0.16660 0.86490 0.33730 -0.44400
O 	O 	0.17970 0.88960 0.52700 -0.42800
H 	H 	0.20930 0.96890 0.73210 -0.02400
H 	H 	0.04880 0.86090 0.67320 -0.12400
H 	H 	0.99060 0.77800 0.24520 -0.05300
H 	H 	0.11550 0.95140 0.76260 -0.01800
H 	H 	0.18330 0.85030 0.55300 -0.01800
Zn	Zn	0.96872 0.68953 0.53708 1.23100
Zn	Zn	0.88838 0.60964 0.54589 1.23000
Zn	Zn	0.82032 0.59399 0.70159 1.23000
P 	P 	0.77982 0.55044 0.65590 0.49900
P 	P 	0.93715 0.64204 0.58760 0.54700
P 	P 	0.99381 0.70066 0.26250 0.40800
P 	P 	0.87425 0.57341 0.77330 0.45100
P 	P 	0.83454 0.63376 0.48370 0.45000
O 	O 	0.75077 0.54980 0.67260 -0.51500
O 	O 	0.78842 0.54774 0.51050 -0.51100
O 	O 	0.78939 0.57485 0.71190 -0.44200
O 	O 	0.95230 0.65795 0.49070 -0.44700
O 	O 	0.92249 0.65781 0.68270 -0.53300
O 	O 	0.92130 0.62490 0.50390 -0.45400
O 	O 	0.99463 0.69910 0.41430 -0.45800
O 	O 	0.96779 0.69421 0.20320 -0.46100
O 	O 	0.01551 0.68378 0.20850 -0.43600
O 	O 	0.84947 0.57060 0.69740 -0.47500
O 	O 	0.89019 0.59556 0.72610 -0.47300
O 	O 	0.87180 0.57480 0.92050 -0.47200
O 	O 	0.86210 0.63540 0.54100 -0.48100
O 	O 	0.83340 0.63510 0.33730 -0.44400
O 	O 	0.82030 0.61040 0.52700 -0.42800
H 	H 	0.79070 0.53110 0.73210 -0.02400
H 	H 	0.95120 0.63910 0.67320 -0.12400
H 	H 	0.00940 0.72200 0.24520 -0.05300
H 	H 	0.88450 0.54860 0.76260 -0.01800
H 	H 	0.81670 0.64970 0.55300 -0.01800
Zn	Zn	0.46872 0.18953 0.03708 1.23400
Zn	Zn	0.38838 0.10964 0.04589 1.23200
Zn	Zn	0.32032 0.09399 0.20159 1.23100
P 	P 	0.27982 0.05044 0.15590 0.49900
P 	P 	0.43715 0.14204 0.08760 0.55600
P 	P 	0.49381 0.20066 0.76250 0.40700
P 	P 	0.37425 0.07341 0.27330 0.45100
P 	P 	0.33454 0.13376 0.98370 0.42600
O 	O 	0.25077 0.04980 0.17260 -0.51100
O 	O 	0.28842 0.04774 0.01050 -0.50400
O 	O 	0.28939 0.07485 0.21190 -0.43900
O 	O 	0.45230 0.15795 0.99070 -0.45900
O 	O 	0.42249 0.15781 0.18270 -0.53100
O 	O 	0.42130 0.12490 0.00390 -0.45000
O 	O 	0.49463 0.19910 0.91430 -0.46400
O 	O 	0.46779 0.19421 0.70320 -0.46400
O 	O 	0.51551 0.18378 0.70850 -0.44000
O 	O 	0.34947 0.07060 0.19740 -0.47200
O 	O 	0.39019 0.09556 0.22610 -0.47000
O 	O 	0.37180 0.07480 0.42050 -0.46500
O 	O 	0.36210 0.13540 0.04100 -0.47000
O 	O 	0.33340 0.13510 0.83730 -0.44500
O 	O 	0.32030 0.11040 0.02700 -0.41700
H 	H 	0.29070 0.03110 0.23210 -0.02000
H 	H 	0.45120 0.13910 0.17320 -0.12300
H 	H 	0.50940 0.22200 0.74520 -0.05500
H 	H 	0.38450 0.04860 0.26260 -0.01500
H 	H 	0.31670 0.14970 0.05300 -0.01000
Zn	Zn	0.93953 0.28128 0.28708 1.23100
Zn	Zn	0.85964 0.36162 0.29589 1.23100
Zn	Zn	0.84399 0.42968 0.45159 1.23100
P 	P 	0.80044 0.47018 0.40590 0.49900
P 	P 	0.89204 0.31285 0.33760 0.54700
P 	P 	0.95066 0.25619 0.01250 0.43000
P 	P 	0.82341 0.37575 0.52330 0.45100
P 	P 	0.88376 0.41546 0.23370 0.45000
O 	O 	0.79980 0.49923 0.42260 -0.51400
O 	O 	0.79774 0.46158 0.26050 -0.50900
O 	O 	0.82485 0.46061 0.46190 -0.44000
O 	O 	0.90795 0.29770 0.24070 -0.44500
O 	O 	0.90781 0.32751 0.43270 -0.53100
O 	O 	0.87490 0.32870 0.25390 -0.45100
O 	O 	0.94910 0.25537 0.16430 -0.45800
O 	O 	0.94421 0.28221 0.95320 -0.47400
O 	O 	0.93378 0.23449 0.95850 -0.44800
O 	O 	0.82060 0.40053 0.44740 -0.47300
O 	O 	0.84556 0.35981 0.47610 -0.47100
O 	O 	0.82480 0.37820 0.67050 -0.46600
O 	O 	0.88540 0.38790 0.29100 -0.47900
O 	O 	0.88510 0.41660 0.08730 -0.43800
O 	O 	0.86040 0.42970 0.27700 -0.42700
H 	H 	0.78110 0.45930 0.48210 -0.02100
H 	H 	0.88910 0.29880 0.42320 -0.12200
H 	H 	0.97200 0.24060 0.99520 -0.06200
H 	H 	0.79860 0.36550 0.51260 -0.01600
H 	H 	0.89970 0.43330 0.30300 -0.01700
Zn	Zn	0.43953 0.78128 0.78708 1.23100
Zn	Zn	0.35964 0.86162 0.79589 1.23000
Zn	Zn	0.34399 0.92968 0.95159 1.22900
P 	P 	0.30044 0.97018 0.90590 0.49900
P 	P 	0.39204 0.81285 0.83760 0.54700
P 	P 	0.45066 0.75619 0.51250 0.40700
P 	P 	0.32341 0.87575 0.02330 0.46900
P 	P 	0.38376 0.91546 0.73370 0.44900
O 	O 	0.29980 0.99923 0.92260 -0.51900
O 	O 	0.29774 0.96158 0.76050 -0.51200
O 	O 	0.32485 0.96061 0.96190 -0.44400
O 	O 	0.40795 0.79770 0.74070 -0.44800
O 	O 	0.40781 0.82751 0.93270 -0.53500
O 	O 	0.37490 0.82870 0.75390 -0.45500
O 	O 	0.44910 0.75537 0.66430 -0.45900
O 	O 	0.44421 0.78221 0.45320 -0.46200
O 	O 	0.43378 0.73449 0.45850 -0.43800
O 	O 	0.32060 0.90053 0.94740 -0.48400
O 	O 	0.34556 0.85981 0.97610 -0.48200
O 	O 	0.32480 0.87820 0.17050 -0.46500
O 	O 	0.38540 0.88790 0.79100 -0.48200
O 	O 	0.38510 0.91660 0.58730 -0.44500
O 	O 	0.36040 0.92970 0.77700 -0.43000
H 	H 	0.28110 0.95930 0.98210 -0.02600
H 	H 	0.38910 0.79880 0.92320 -0.12500
H 	H 	0.47200 0.74060 0.49520 -0.05400
H 	H 	0.29860 0.86550 0.01260 -0.01400
H 	H 	0.39970 0.93330 0.80300 -0.02000
Zn	Zn	0.56047 0.71872 0.78708 1.23100
Zn	Zn	0.64036 0.63838 0.79589 1.23000
Zn	Zn	0.65601 0.57032 0.95159 1.22900
P 	P 	0.69956 0.52982 0.90590 0.49900
P 	P 	0.60796 0.68715 0.83760 0.54700
P 	P 	0.54934 0.74381 0.51250 0.40700
P 	P 	0.67659 0.62425 0.02330 0.46900
P 	P 	0.61624 0.58454 0.73370 0.44900
O 	O 	0.70020 0.50077 0.92260 -0.51900
O 	O 	0.70226 0.53842 0.76050 -0.51200
O 	O 	0.67515 0.53939 0.96190 -0.44400
O 	O 	0.59205 0.70230 0.74070 -0.44800
O 	O 	0.59219 0.67249 0.93270 -0.53500
O 	O 	0.62510 0.67130 0.75390 -0.45500
O 	O 	0.55090 0.74463 0.66430 -0.45900
O 	O 	0.55579 0.71779 0.45320 -0.46200
O 	O 	0.56622 0.76551 0.45850 -0.43800
O 	O 	0.67940 0.59947 0.94740 -0.48400
O 	O 	0.65444 0.64019 0.97610 -0.48200
O 	O 	0.67520 0.62180 0.17050 -0.46500
O 	O 	0.61460 0.61210 0.79100 -0.48200
O 	O 	0.61490 0.58340 0.58730 -0.44500
O 	O 	0.63960 0.57030 0.77700 -0.43000
H 	H 	0.71890 0.54070 0.98210 -0.02600
H 	H 	0.61090 0.70120 0.92320 -0.12500
H 	H 	0.52800 0.75940 0.49520 -0.05400
H 	H 	0.70140 0.63450 0.01260 -0.01400
H 	H 	0.60030 0.56670 0.80300 -0.02000
Zn	Zn	0.06047 0.21872 0.28708 1.23100
Zn	Zn	0.14036 0.13838 0.29589 1.23100
Zn	Zn	0.15601 0.07032 0.45159 1.23100
P 	P 	0.19956 0.02982 0.40590 0.49900
P 	P 	0.10796 0.18715 0.33760 0.54700
P 	P 	0.04934 0.24381 0.01250 0.43000
P 	P 	0.17659 0.12425 0.52330 0.45100
P 	P 	0.11624 0.08454 0.23370 0.45000
O 	O 	0.20020 0.00077 0.42260 -0.51400
O 	O 	0.20226 0.03842 0.26050 -0.50900
O 	O 	0.17515 0.03939 0.46190 -0.44000
O 	O 	0.09205 0.20230 0.24070 -0.44500
O 	O 	0.09219 0.17249 0.43270 -0.53100
O 	O 	0.12510 0.17130 0.25390 -0.45100
O 	O 	0.05090 0.24463 0.16430 -0.45800
O 	O 	0.05579 0.21779 0.95320 -0.47400
O 	O 	0.06622 0.26551 0.95850 -0.44800
O 	O 	0.17940 0.09947 0.44740 -0.47300
O 	O 	0.15444 0.14019 0.47610 -0.47100
O 	O 	0.17520 0.12180 0.67050 -0.46600
O 	O 	0.11460 0.11210 0.29100 -0.47900
O 	O 	0.11490 0.08340 0.08730 -0.43800
O 	O 	0.13960 0.07030 0.27700 -0.42700
H 	H 	0.21890 0.04070 0.48210 -0.02100
H 	H 	0.11090 0.20120 0.42320 -0.12200
H 	H 	0.02800 0.25940 0.99520 -0.06200
H 	H 	0.20140 0.13450 0.51260 -0.01600
H 	H 	0.10030 0.06670 0.30300 -0.01700
Zn	Zn	0.96872 0.31047 0.96292 1.22700
Zn	Zn	0.88838 0.39036 0.95411 1.22800
Zn	Zn	0.82032 0.40601 0.79841 1.23100
P 	P 	0.77982 0.44956 0.84410 0.49800
P 	P 	0.93715 0.35796 0.91240 0.53800
P 	P 	0.99381 0.29934 0.23750 0.40700
P 	P 	0.87425 0.42659 0.72670 0.45100
P 	P 	0.83454 0.36624 0.01630 0.47400
O 	O 	0.75077 0.45020 0.82740 -0.51800
O 	O 	0.78842 0.45226 0.98950 -0.51900
O 	O 	0.78939 0.42515 0.78810 -0.44100
O 	O 	0.95230 0.34205 0.00930 -0.43600
O 	O 	0.92249 0.34219 0.81730 -0.53100
O 	O 	0.92130 0.37510 0.99610 -0.45800
O 	O 	0.99463 0.30090 0.08570 -0.45200
O 	O 	0.96779 0.30579 0.29680 -0.46200
O 	O 	0.01551 0.31622 0.29150 -0.43700
O 	O 	0.84947 0.42940 0.80260 -0.47600
O 	O 	0.89019 0.40444 0.77390 -0.47200
O 	O 	0.87180 0.42520 0.57950 -0.46500
O 	O 	0.86210 0.36460 0.95900 -0.49100
O 	O 	0.83340 0.36490 0.16270 -0.44600
O 	O 	0.82030 0.38960 0.97300 -0.44000
H 	H 	0.79070 0.46890 0.76790 -0.02300
H 	H 	0.95120 0.36090 0.82680 -0.12200
H 	H 	0.00940 0.27800 0.25480 -0.05200
H 	H 	0.88450 0.45140 0.73740 -0.01800
H 	H 	0.81670 0.35030 0.94700 -0.02600
Zn	Zn	0.46872 0.81047 0.46292 1.23100
Zn	Zn	0.38838 0.89036 0.45411 1.23100
Zn	Zn	0.32032 0.90601 0.29841 1.23100
P 	P 	0.27982 0.94956 0.34410 0.49900
P 	P 	0.43715 0.85796 0.41240 0.54700
P 	P 	0.49381 0.79934 0.73750 0.40700
P 	P 	0.37425 0.92659 0.22670 0.45100
P 	P 	0.33454 0.86624 0.51630 0.45000
O 	O 	0.25077 0.95020 0.32740 -0.51300
O 	O 	0.28842 0.95226 0.48950 -0.51200
O 	O 	0.28939 0.92515 0.28810 -0.43800
O 	O 	0.45230 0.84205 0.50930 -0.44700
O 	O 	0.42249 0.84219 0.31730 -0.52900
O 	O 	0.42130 0.87510 0.49610 -0.45400
O 	O 	0.49463 0.80090 0.58570 -0.45800
O 	O 	0.46779 0.80579 0.79680 -0.46500
O 	O 	0.51551 0.81622 0.79150 -0.44100
O 	O 	0.34947 0.92940 0.30260 -0.47200
O 	O 	0.39019 0.90444 0.27390 -0.46900
O 	O 	0.37180 0.92520 0.07950 -0.45900
O 	O 	0.36210 0.86460 0.45900 -0.48000
O 	O 	0.33340 0.86490 0.66270 -0.44600
O 	O 	0.32030 0.88960 0.47300 -0.42800
H 	H 	0.29070 0.96890 0.26790 -0.02000
H 	H 	0.45120 0.86090 0.32680 -0.12100
H 	H 	0.50940 0.77800 0.75480 -0.05400
H 	H 	0.38450 0.95140 0.23740 -0.01500
H 	H 	0.31670 0.85030 0.44700 -0.01700
Zn	Zn	0.53128 0.68953 0.46292 1.23100
Zn	Zn	0.61162 0.60964 0.45411 1.23100
Zn	Zn	0.67968 0.59399 0.29841 1.23100
P 	P 	0.72018 0.55044 0.34410 0.49900
P 	P 	0.56285 0.64204 0.41240 0.54700
P 	P 	0.50619 0.70066 0.73750 0.40700
P 	P 	0.62575 0.57341 0.22670 0.45100
P 	P 	0.66546 0.63376 0.51630 0.45000
O 	O 	0.74923 0.54980 0.32740 -0.51300
O 	O 	0.71158 0.54774 0.48950 -0.51100
O 	O 	0.71061 0.57485 0.28810 -0.43800
O 	O 	0.54770 0.65795 0.50930 -0.44700
O 	O 	0.57751 0.65781 0.31730 -0.52900
O 	O 	0.57870 0.62490 0.49610 -0.45400
O 	O 	0.50537 0.69910 0.58570 -0.45800
O 	O 	0.53221 0.69421 0.79680 -0.46500
O 	O 	0.48449 0.68378 0.79150 -0.44100
O 	O 	0.65053 0.57060 0.30260 -0.47200
O 	O 	0.60981 0.59556 0.27390 -0.46900
O 	O 	0.62820 0.57480 0.07950 -0.45900
O 	O 	0.63790 0.63540 0.45900 -0.48000
O 	O 	0.66660 0.63510 0.66270 -0.44600
O 	O 	0.67970 0.61040 0.47300 -0.42800
H 	H 	0.70930 0.53110 0.26790 -0.01900
H 	H 	0.54880 0.63910 0.32680 -0.12100
H 	H 	0.49060 0.72200 0.75480 -0.05400
H 	H 	0.61550 0.54860 0.23740 -0.01400
H 	H 	0.68330 0.64970 0.44700 -0.01700
Zn	Zn	0.03128 0.18953 0.96292 1.22700
Zn	Zn	0.11162 0.10964 0.95411 1.22800
Zn	Zn	0.17968 0.09399 0.79841 1.23100
P 	P 	0.22018 0.05044 0.84410 0.49800
P 	P 	0.06285 0.14204 0.91240 0.53800
P 	P 	0.00619 0.20066 0.23750 0.40700
P 	P 	0.12575 0.07341 0.72670 0.45100
P 	P 	0.16546 0.13376 0.01630 0.47400
O 	O 	0.24923 0.04980 0.82740 -0.51800
O 	O 	0.21158 0.04774 0.98950 -0.51900
O 	O 	0.21061 0.07485 0.78810 -0.44100
O 	O 	0.04770 0.15795 0.00930 -0.43600
O 	O 	0.07751 0.15781 0.81730 -0.53100
O 	O 	0.07870 0.12490 0.99610 -0.45800
O 	O 	0.00537 0.19910 0.08570 -0.45200
O 	O 	0.03221 0.19421 0.29680 -0.46200
O 	O 	0.98449 0.18378 0.29150 -0.43700
O 	O 	0.15053 0.07060 0.80260 -0.47600
O 	O 	0.10981 0.09556 0.77390 -0.47200
O 	O 	0.12820 0.07480 0.57950 -0.46500
O 	O 	0.13790 0.13540 0.95900 -0.49100
O 	O 	0.16660 0.13510 0.16270 -0.44600
O 	O 	0.17970 0.11040 0.97300 -0.44000
H 	H 	0.20930 0.03110 0.76790 -0.02300
H 	H 	0.04880 0.13910 0.82680 -0.12200
H 	H 	0.99060 0.22200 0.25480 -0.05200
H 	H 	0.11550 0.04860 0.73740 -0.01800
H 	H 	0.18330 0.14970 0.94700 -0.02600
Zn	Zn	0.56047 0.28128 0.71292 1.23000
Zn	Zn	0.64036 0.36162 0.70411 1.23000
Zn	Zn	0.65601 0.42968 0.54841 1.23100
P 	P 	0.69956 0.47018 0.59410 0.49900
P 	P 	0.60796 0.31285 0.66240 0.54700
P 	P 	0.54934 0.25619 0.98750 0.38400
P 	P 	0.67659 0.37575 0.47670 0.45100
P 	P 	0.61624 0.41546 0.76630 0.45000
O 	O 	0.70020 0.49923 0.57740 -0.51400
O 	O 	0.70226 0.46158 0.73950 -0.51400
O 	O 	0.67515 0.46061 0.53810 -0.44000
O 	O 	0.59205 0.29770 0.75930 -0.45000
O 	O 	0.59219 0.32751 0.56730 -0.53100
O 	O 	0.62510 0.32870 0.74610 -0.45600
O 	O 	0.55090 0.25537 0.83570 -0.45800
O 	O 	0.55579 0.28221 0.04680 -0.45200
O 	O 	0.56622 0.23449 0.04150 -0.42900
O 	O 	0.67940 0.40053 0.55260 -0.47400
O 	O 	0.65444 0.35981 0.52390 -0.47100
O 	O 	0.67520 0.37820 0.32950 -0.46500
O 	O 	0.61460 0.38790 0.70900 -0.48200
O 	O 	0.61490 0.41660 0.91270 -0.45200
O 	O 	0.63960 0.42970 0.72300 -0.43000
H 	H 	0.71890 0.45930 0.51790 -0.02100
H 	H 	0.61090 0.29880 0.57680 -0.12300
H 	H 	0.52800 0.24060 0.00480 -0.04400
H 	H 	0.70140 0.36550 0.48740 -0.01600
H 	H 	0.60030 0.43330 0.69700 -0.01900
Zn	Zn	0.06047 0.78128 0.21292 1.23100
Zn	Zn	0.14036 0.86162 0.20411 1.23100
Zn	Zn	0.15601 0.92968 0.04841 1.23300
P 	P 	0.19956 0.97018 0.09410 0.49900
P 	P 	0.10796 0.81285 0.16240 0.54600
P 	P 	0.04934 0.75619 0.48750 0.40700
P 	P 	0.17659 0.87575 0.97670 0.43200
P 	P 	0.11624 0.91546 0.26630 0.45000
O 	O 	0.20020 0.99923 0.07740 -0.51000
O 	O 	0.20226 0.96158 0.23950 -0.51100
O 	O 	0.17515 0.96061 0.03810 -0.43600
O 	O 	0.09205 0.79770 0.25930 -0.44700
O 	O 	0.09219 0.82751 0.06730 -0.52700
O 	O 	0.12510 0.82870 0.24610 -0.45300
O 	O 	0.05090 0.75537 0.33570 -0.45800
O 	O 	0.05579 0.78221 0.54680 -0.46400
O 	O 	0.06622 0.73449 0.54150 -0.43900
O 	O 	0.17940 0.90053 0.05260 -0.46300
O 	O 	0.15444 0.85981 0.02390 -0.46000
O 	O 	0.17520 0.87820 0.82950 -0.46500
O 	O 	0.11460 0.88790 0.20900 -0.47900
O 	O 	0.11490 0.91660 0.41270 -0.44500
O 	O 	0.13960 0.92970 0.22300 -0.42700
H 	H 	0.21890 0.95930 0.01790 -0.01800
H 	H 	0.11090 0.79880 0.07680 -0.12000
H 	H 	0.02800 0.74060 0.50480 -0.05400
H 	H 	0.20140 0.86550 0.98740 -0.01900
H 	H 	0.10030 0.93330 0.19700 -0.01600
Zn	Zn	0.93953 0.71872 0.21292 1.23100
Zn	Zn	0.85964 0.63838 0.20411 1.23100
Zn	Zn	0.84399 0.57032 0.04841 1.23300
P 	P 	0.80044 0.52982 0.09410 0.49900
P 	P 	0.89204 0.68715 0.16240 0.54600
P 	P 	0.95066 0.74381 0.48750 0.40700
P 	P 	0.82341 0.62425 0.97670 0.43200
P 	P 	0.88376 0.58454 0.26630 0.45000
O 	O 	0.79980 0.50077 0.07740 -0.51000
O 	O 	0.79774 0.53842 0.23950 -0.51100
O 	O 	0.82485 0.53939 0.03810 -0.43600
O 	O 	0.90795 0.70230 0.25930 -0.44700
O 	O 	0.90781 0.67249 0.06730 -0.52700
O 	O 	0.87490 0.67130 0.24610 -0.45300
O 	O 	0.94910 0.74463 0.33570 -0.45800
O 	O 	0.94421 0.71779 0.54680 -0.46400
O 	O 	0.93378 0.76551 0.54150 -0.43900
O 	O 	0.82060 0.59947 0.05260 -0.46300
O 	O 	0.84556 0.64019 0.02390 -0.46000
O 	O 	0.82480 0.62180 0.82950 -0.46500
O 	O 	0.88540 0.61210 0.20900 -0.47900
O 	O 	0.88510 0.58340 0.41270 -0.44500
O 	O 	0.86040 0.57030 0.22300 -0.42700
H 	H 	0.78110 0.54070 0.01790 -0.01800
H 	H 	0.88910 0.70120 0.07680 -0.12000
H 	H 	0.97200 0.75940 0.50480 -0.05400
H 	H 	0.79860 0.63450 0.98740 -0.01900
H 	H 	0.89970 0.56670 0.19700 -0.01600
Zn	Zn	0.43953 0.21872 0.71292 1.23000
Zn	Zn	0.35964 0.13838 0.70411 1.23000
Zn	Zn	0.34399 0.07032 0.54841 1.23100
P 	P 	0.30044 0.02982 0.59410 0.49900
P 	P 	0.39204 0.18715 0.66240 0.54700
P 	P 	0.45066 0.24381 0.98750 0.38400
P 	P 	0.32341 0.12425 0.47670 0.45100
P 	P 	0.38376 0.08454 0.76630 0.45000
O 	O 	0.29980 0.00077 0.57740 -0.51400
O 	O 	0.29774 0.03842 0.73950 -0.51400
O 	O 	0.32485 0.03939 0.53810 -0.44000
O 	O 	0.40795 0.20230 0.75930 -0.45000
O 	O 	0.40781 0.17249 0.56730 -0.53100
O 	O 	0.37490 0.17130 0.74610 -0.45600
O 	O 	0.44910 0.24463 0.83570 -0.45800
O 	O 	0.44421 0.21779 0.04680 -0.45200
O 	O 	0.43378 0.26551 0.04150 -0.42900
O 	O 	0.32060 0.09947 0.55260 -0.47400
O 	O 	0.34556 0.14019 0.52390 -0.47100
O 	O 	0.32480 0.12180 0.32950 -0.46500
O 	O 	0.38540 0.11210 0.70900 -0.48200
O 	O 	0.38510 0.08340 0.91270 -0.45200
O 	O 	0.36040 0.07030 0.72300 -0.43000
H 	H 	0.28110 0.04070 0.51790 -0.02100
H 	H 	0.38910 0.20120 0.57680 -0.12300
H 	H 	0.47200 0.25940 0.00480 -0.04400
H 	H 	0.29860 0.13450 0.48740 -0.01600
H 	H 	0.39970 0.06670 0.69700 -0.01900
Zn	Zn	0.46872 0.68953 0.96292 1.22700
Zn	Zn	0.38838 0.60964 0.95411 1.22800
Zn	Zn	0.32032 0.59399 0.79841 1.23100
P 	P 	0.27982 0.55044 0.84410 0.49800
P 	P 	0.43715 0.64204 0.91240 0.53800
P 	P 	0.49381 0.70066 0.23750 0.40700
P 	P 	0.37425 0.57341 0.72670 0.45100
P 	P 	0.33454 0.63376 0.01630 0.47400
O 	O 	0.25077 0.54980 0.82740 -0.51800
O 	O 	0.28842 0.54774 0.98950 -0.51900
O 	O 	0.28939 0.57485 0.78810 -0.44100
O 	O 	0.45230 0.65795 0.00930 -0.43600
O 	O 	0.42249 0.65781 0.81730 -0.53100
O 	O 	0.42130 0.62490 0.99610 -0.45800
O 	O 	0.49463 0.69910 0.08570 -0.45200
O 	O 	0.46779 0.69421 0.29680 -0.46200
O 	O 	0.51551 0.68378 0.29150 -0.43700
O 	O 	0.34947 0.57060 0.80260 -0.47600
O 	O 	0.39019 0.59556 0.77390 -0.47200
O 	O 	0.37180 0.57480 0.57950 -0.46500
O 	O 	0.36210 0.63540 0.95900 -0.49100
O 	O 	0.33340 0.63510 0.16270 -0.44600
O 	O 	0.32030 0.61040 0.97300 -0.44000
H 	H 	0.29070 0.53110 0.76790 -0.02300
H 	H 	0.45120 0.63910 0.82680 -0.12200
H 	H 	0.50940 0.72200 0.25480 -0.05200
H 	H 	0.38450 0.54860 0.73740 -0.01800
H 	H 	0.31670 0.64970 0.94700 -0.02600
Zn	Zn	0.96872 0.18953 0.46292 1.23100
Zn	Zn	0.88838 0.10964 0.45411 1.23100
Zn	Zn	0.82032 0.09399 0.29841 1.23100
P 	P 	0.77982 0.05044 0.34410 0.49900
P 	P 	0.93715 0.14204 0.41240 0.54700
P 	P 	0.99381 0.20066 0.73750 0.40700
P 	P 	0.87425 0.07341 0.22670 0.45100
P 	P 	0.83454 0.13376 0.51630 0.45000
O 	O 	0.75077 0.04980 0.32740 -0.51300
O 	O 	0.78842 0.04774 0.48950 -0.51100
O 	O 	0.78939 0.07485 0.28810 -0.43800
O 	O 	0.95230 0.15795 0.50930 -0.44700
O 	O 	0.92249 0.15781 0.31730 -0.52900
O 	O 	0.92130 0.12490 0.49610 -0.45400
O 	O 	0.99463 0.19910 0.58570 -0.45800
O 	O 	0.96779 0.19421 0.79680 -0.46500
O 	O 	0.01551 0.18378 0.79150 -0.44100
O 	O 	0.84947 0.07060 0.30260 -0.47200
O 	O 	0.89019 0.09556 0.27390 -0.46900
O 	O 	0.87180 0.07480 0.07950 -0.45900
O 	O 	0.86210 0.13540 0.45900 -0.48000
O 	O 	0.83340 0.13510 0.66270 -0.44600
O 	O 	0.82030 0.11040 0.47300 -0.42800
H 	H 	0.79070 0.03110 0.26790 -0.01900
H 	H 	0.95120 0.13910 0.32680 -0.12100
H 	H 	0.00940 0.22200 0.75480 -0.05400
H 	H 	0.88450 0.04860 0.23740 -0.01400
H 	H 	0.81670 0.14970 0.44700 -0.01700
Zn	Zn	0.03128 0.31047 0.46292 1.23100
Zn	Zn	0.11162 0.39036 0.45411 1.23100
Zn	Zn	0.17968 0.40601 0.29841 1.23100
P 	P 	0.22018 0.44956 0.34410 0.49900
P 	P 	0.06285 0.35796 0.41240 0.54700
P 	P 	0.00619 0.29934 0.73750 0.40700
P 	P 	0.12575 0.42659 0.22670 0.45100
P 	P 	0.16546 0.36624 0.51630 0.45000
O 	O 	0.24923 0.45020 0.32740 -0.51300
O 	O 	0.21158 0.45226 0.48950 -0.51100
O 	O 	0.21061 0.42515 0.28810 -0.43800
O 	O 	0.04770 0.34205 0.50930 -0.44700
O 	O 	0.07751 0.34219 0.31730 -0.52900
O 	O 	0.07870 0.37510 0.49610 -0.45400
O 	O 	0.00537 0.30090 0.58570 -0.45800
O 	O 	0.03221 0.30579 0.79680 -0.46500
O 	O 	0.98449 0.31622 0.79150 -0.44100
O 	O 	0.15053 0.42940 0.30260 -0.47200
O 	O 	0.10981 0.40444 0.27390 -0.46900
O 	O 	0.12820 0.42520 0.07950 -0.45900
O 	O 	0.13790 0.36460 0.45900 -0.48000
O 	O 	0.16660 0.36490 0.66270 -0.44600
O 	O 	0.17970 0.38960 0.47300 -0.42800
H 	H 	0.20930 0.46890 0.26790 -0.01900
H 	H 	0.04880 0.36090 0.32680 -0.12100
H 	H 	0.99060 0.27800 0.75480 -0.05400
H 	H 	0.11550 0.45140 0.23740 -0.01400
H 	H 	0.18330 0.35030 0.44700 -0.01700
Zn	Zn	0.53128 0.81047 0.96292 1.22700
Zn	Zn	0.61162 0.89036 0.95411 1.22800
Zn	Zn	0.67968 0.90601 0.79841 1.23100
P 	P 	0.72018 0.94956 0.84410 0.49800
P 	P 	0.56285 0.85796 0.91240 0.53800
P 	P 	0.50619 0.79934 0.23750 0.40700
P 	P 	0.62575 0.92659 0.72670 0.45000
P 	P 	0.66546 0.86624 0.01630 0.47400
O 	O 	0.74923 0.95020 0.82740 -0.51800
O 	O 	0.71158 0.95226 0.98950 -0.51900
O 	O 	0.71061 0.92515 0.78810 -0.44100
O 	O 	0.54770 0.84205 0.00930 -0.43600
O 	O 	0.57751 0.84219 0.81730 -0.53100
O 	O 	0.57870 0.87510 0.99610 -0.45800
O 	O 	0.50537 0.80090 0.08570 -0.45200
O 	O 	0.53221 0.80579 0.29680 -0.46200
O 	O 	0.48449 0.81622 0.29150 -0.43700
O 	O 	0.65053 0.92940 0.80260 -0.47600
O 	O 	0.60981 0.90444 0.77390 -0.47200
O 	O 	0.62820 0.92520 0.57950 -0.46500
O 	O 	0.63790 0.86460 0.95900 -0.49100
O 	O 	0.66660 0.86490 0.16270 -0.44600
O 	O 	0.67970 0.88960 0.97300 -0.44000
H 	H 	0.70930 0.96890 0.76790 -0.02300
H 	H 	0.54880 0.86090 0.82680 -0.12200
H 	H 	0.49060 0.77800 0.25480 -0.05200
H 	H 	0.61550 0.95140 0.73740 -0.01800
H 	H 	0.68330 0.85030 0.94700 -0.02600
Zn	Zn	0.06047 0.71872 0.71292 1.23000
Zn	Zn	0.14036 0.63838 0.70411 1.23000
Zn	Zn	0.15601 0.57032 0.54841 1.23100
P 	P 	0.19956 0.52982 0.59410 0.49900
P 	P 	0.10796 0.68715 0.66240 0.54700
P 	P 	0.04934 0.74381 0.98750 0.38400
P 	P 	0.17659 0.62425 0.47670 0.45100
P 	P 	0.11624 0.58454 0.76630 0.45000
O 	O 	0.20020 0.50077 0.57740 -0.51400
O 	O 	0.20226 0.53842 0.73950 -0.51400
O 	O 	0.17515 0.53939 0.53810 -0.44000
O 	O 	0.09205 0.70230 0.75930 -0.45000
O 	O 	0.09219 0.67249 0.56730 -0.53100
O 	O 	0.12510 0.67130 0.74610 -0.45600
O 	O 	0.05090 0.74463 0.83570 -0.45800
O 	O 	0.05579 0.71779 0.04680 -0.45200
O 	O 	0.06622 0.76551 0.04150 -0.42900
O 	O 	0.17940 0.59947 0.55260 -0.47400
O 	O 	0.15444 0.64019 0.52390 -0.47100
O 	O 	0.17520 0.62180 0.32950 -0.46500
O 	O 	0.11460 0.61210 0.70900 -0.48200
O 	O 	0.11490 0.58340 0.91270 -0.45200
O 	O 	0.13960 0.57030 0.72300 -0.43000
H 	H 	0.21890 0.54070 0.51790 -0.02100
H 	H 	0.11090 0.70120 0.57680 -0.12300
H 	H 	0.02800 0.75940 0.00480 -0.04400
H 	H 	0.20140 0.63450 0.48740 -0.01600
H 	H 	0.10030 0.56670 0.69700 -0.01900
Zn	Zn	0.56047 0.21872 0.21292 1.23100
Zn	Zn	0.64036 0.13838 0.20411 1.23100
Zn	Zn	0.65601 0.07032 0.04841 1.23300
P 	P 	0.69956 0.02982 0.09410 0.49900
P 	P 	0.60796 0.18715 0.16240 0.54600
P 	P 	0.54934 0.24381 0.48750 0.40700
P 	P 	0.67659 0.12425 0.97670 0.43200
P 	P 	0.61624 0.08454 0.26630 0.45000
O 	O 	0.70020 0.00077 0.07740 -0.51000
O 	O 	0.70226 0.03842 0.23950 -0.51100
O 	O 	0.67515 0.03939 0.03810 -0.43600
O 	O 	0.59205 0.20230 0.25930 -0.44700
O 	O 	0.59219 0.17249 0.06730 -0.52700
O 	O 	0.62510 0.17130 0.24610 -0.45300
O 	O 	0.55090 0.24463 0.33570 -0.45800
O 	O 	0.55579 0.21779 0.54680 -0.46400
O 	O 	0.56622 0.26551 0.54150 -0.43900
O 	O 	0.67940 0.09947 0.05260 -0.46300
O 	O 	0.65444 0.14019 0.02390 -0.46000
O 	O 	0.67520 0.12180 0.82950 -0.46500
O 	O 	0.61460 0.11210 0.20900 -0.47900
O 	O 	0.61490 0.08340 0.41270 -0.44500
O 	O 	0.63960 0.07030 0.22300 -0.42700
H 	H 	0.71890 0.04070 0.01790 -0.01800
H 	H 	0.61090 0.20120 0.07680 -0.12000
H 	H 	0.52800 0.25940 0.50480 -0.05400
H 	H 	0.70140 0.13450 0.98740 -0.01900
H 	H 	0.60030 0.06670 0.19700 -0.01600
Zn	Zn	0.43953 0.28128 0.21292 1.23100
Zn	Zn	0.35964 0.36162 0.20411 1.23100
Zn	Zn	0.34399 0.42968 0.04841 1.23300
P 	P 	0.30044 0.47018 0.09410 0.49900
P 	P 	0.39204 0.31285 0.16240 0.54600
P 	P 	0.45066 0.25619 0.48750 0.40700
P 	P 	0.32341 0.37575 0.97670 0.43200
P 	P 	0.38376 0.41546 0.26630 0.45000
O 	O 	0.29980 0.49923 0.07740 -0.51000
O 	O 	0.29774 0.46158 0.23950 -0.51100
O 	O 	0.32485 0.46061 0.03810 -0.43600
O 	O 	0.40795 0.29770 0.25930 -0.44700
O 	O 	0.40781 0.32751 0.06730 -0.52700
O 	O 	0.37490 0.32870 0.24610 -0.45300
O 	O 	0.44910 0.25537 0.33570 -0.45800
O 	O 	0.44421 0.28221 0.54680 -0.46400
O 	O 	0.43378 0.23449 0.54150 -0.43900
O 	O 	0.32060 0.40053 0.05260 -0.46300
O 	O 	0.34556 0.35981 0.02390 -0.46000
O 	O 	0.32480 0.37820 0.82950 -0.46500
O 	O 	0.38540 0.38790 0.20900 -0.47900
O 	O 	0.38510 0.41660 0.41270 -0.44500
O 	O 	0.36040 0.42970 0.22300 -0.42700
H 	H 	0.28110 0.45930 0.01790 -0.01800
H 	H 	0.38910 0.29880 0.07680 -0.12000
H 	H 	0.47200 0.24060 0.50480 -0.05400
H 	H 	0.29860 0.36550 0.98740 -0.01900
H 	H 	0.39970 0.43330 0.19700 -0.01600
Zn	Zn	0.93953 0.78128 0.71292 1.23000
Zn	Zn	0.85964 0.86162 0.70411 1.23000
Zn	Zn	0.84399 0.92968 0.54841 1.23100
P 	P 	0.80044 0.97018 0.59410 0.49900
P 	P 	0.89204 0.81285 0.66240 0.54700
P 	P 	0.95066 0.75619 0.98750 0.38400
P 	P 	0.82341 0.87575 0.47670 0.45100
P 	P 	0.88376 0.91546 0.76630 0.45000
O 	O 	0.79980 0.99923 0.57740 -0.51400
O 	O 	0.79774 0.96158 0.73950 -0.51400
O 	O 	0.82485 0.96061 0.53810 -0.44000
O 	O 	0.90795 0.79770 0.75930 -0.45000
O 	O 	0.90781 0.82751 0.56730 -0.53100
O 	O 	0.87490 0.82870 0.74610 -0.45600
O 	O 	0.94910 0.75537 0.83570 -0.45800
O 	O 	0.94421 0.78221 0.04680 -0.45200
O 	O 	0.93378 0.73449 0.04150 -0.42900
O 	O 	0.82060 0.90053 0.55260 -0.47400
O 	O 	0.84556 0.85981 0.52390 -0.47100
O 	O 	0.82480 0.87820 0.32950 -0.46500
O 	O 	0.88540 0.88790 0.70900 -0.48200
O 	O 	0.88510 0.91660 0.91270 -0.45200
O 	O 	0.86040 0.92970 0.72300 -0.43000
H 	H 	0.78110 0.95930 0.51790 -0.02100
H 	H 	0.88910 0.79880 0.57680 -0.12300
H 	H 	0.97200 0.74060 0.00480 -0.04400
H 	H 	0.79860 0.86550 0.48740 -0.01600
H 	H 	0.89970 0.93330 0.69700 -0.01900
Zn	Zn	0.03128 0.68953 0.03708 1.23400
Zn	Zn	0.11162 0.60964 0.04589 1.23200
Zn	Zn	0.17968 0.59399 0.20159 1.23100
P 	P 	0.22018 0.55044 0.15590 0.49900
P 	P 	0.06285 0.64204 0.08760 0.55600
P 	P 	0.00619 0.70066 0.76250 0.40700
P 	P 	0.12575 0.57341 0.27330 0.45100
P 	P 	0.16546 0.63376 0.98370 0.42600
O 	O 	0.24923 0.54980 0.17260 -0.51100
O 	O 	0.21158 0.54774 0.01050 -0.50500
O 	O 	0.21061 0.57485 0.21190 -0.43900
O 	O 	0.04770 0.65795 0.99070 -0.45900
O 	O 	0.07751 0.65781 0.18270 -0.53100
O 	O 	0.07870 0.62490 0.00390 -0.45000
O 	O 	0.00537 0.69910 0.91430 -0.46400
O 	O 	0.03221 0.69421 0.70320 -0.46400
O 	O 	0.98449 0.68378 0.70850 -0.44000
O 	O 	0.15053 0.57060 0.19740 -0.47200
O 	O 	0.10981 0.59556 0.22610 -0.47000
O 	O 	0.12820 0.57480 0.42050 -0.46500
O 	O 	0.13790 0.63540 0.04100 -0.47000
O 	O 	0.16660 0.63510 0.83730 -0.44500
O 	O 	0.17970 0.61040 0.02700 -0.41700
H 	H 	0.20930 0.53110 0.23210 -0.02000
H 	H 	0.04880 0.63910 0.17320 -0.12300
H 	H 	0.99060 0.72200 0.74520 -0.05500
H 	H 	0.11550 0.54860 0.26260 -0.01500
H 	H 	0.18330 0.64970 0.05300 -0.01000
Zn	Zn	0.53128 0.18953 0.53708 1.23100
Zn	Zn	0.61162 0.10964 0.54589 1.23000
Zn	Zn	0.67968 0.09399 0.70159 1.23000
P 	P 	0.72018 0.05044 0.65590 0.49900
P 	P 	0.56285 0.14204 0.58760 0.54700
P 	P 	0.50619 0.20066 0.26250 0.40800
P 	P 	0.62575 0.07341 0.77330 0.45100
P 	P 	0.66546 0.13376 0.48370 0.45000
O 	O 	0.74923 0.04980 0.67260 -0.51500
O 	O 	0.71158 0.04774 0.51050 -0.51100
O 	O 	0.71061 0.07485 0.71190 -0.44200
O 	O 	0.54770 0.15795 0.49070 -0.44700
O 	O 	0.57751 0.15781 0.68270 -0.53300
O 	O 	0.57870 0.12490 0.50390 -0.45400
O 	O 	0.50537 0.19910 0.41430 -0.45800
O 	O 	0.53221 0.19421 0.20320 -0.46100
O 	O 	0.48449 0.18378 0.20850 -0.43600
O 	O 	0.65053 0.07060 0.69740 -0.47500
O 	O 	0.60981 0.09556 0.72610 -0.47300
O 	O 	0.62820 0.07480 0.92050 -0.47200
O 	O 	0.63790 0.13540 0.54100 -0.48100
O 	O 	0.66660 0.13510 0.33730 -0.44400
O 	O 	0.67970 0.11040 0.52700 -0.42800
H 	H 	0.70930 0.03110 0.73210 -0.02400
H 	H 	0.54880 0.13910 0.67320 -0.12400
H 	H 	0.49060 0.22200 0.24520 -0.05300
H 	H 	0.61550 0.04860 0.76260 -0.01800
H 	H 	0.68330 0.14970 0.55300 -0.01800
Zn	Zn	0.46872 0.31047 0.53708 1.23100
Zn	Zn	0.38838 0.39036 0.54589 1.23000
Zn	Zn	0.32032 0.40601 0.70159 1.23000
P 	P 	0.27982 0.44956 0.65590 0.49900
P 	P 	0.43715 0.35796 0.58760 0.54700
P 	P 	0.49381 0.29934 0.26250 0.40800
P 	P 	0.37425 0.42659 0.77330 0.45100
P 	P 	0.33454 0.36624 0.48370 0.45000
O 	O 	0.25077 0.45020 0.67260 -0.51500
O 	O 	0.28842 0.45226 0.51050 -0.51100
O 	O 	0.28939 0.42515 0.71190 -0.44200
O 	O 	0.45230 0.34205 0.49070 -0.44700
O 	O 	0.42249 0.34219 0.68270 -0.53300
O 	O 	0.42130 0.37510 0.50390 -0.45400
O 	O 	0.49463 0.30090 0.41430 -0.45800
O 	O 	0.46779 0.30579 0.20320 -0.46100
O 	O 	0.51551 0.31622 0.20850 -0.43600
O 	O 	0.34947 0.42940 0.69740 -0.47500
O 	O 	0.39019 0.40444 0.72610 -0.47300
O 	O 	0.37180 0.42520 0.92050 -0.47200
O 	O 	0.36210 0.36460 0.54100 -0.48100
O 	O 	0.33340 0.36490 0.33730 -0.44400
O 	O 	0.32030 0.38960 0.52700 -0.42800
H 	H 	0.29070 0.46890 0.73210 -0.02400
H 	H 	0.45120 0.36090 0.67320 -0.12400
H 	H 	0.50940 0.27800 0.24520 -0.05300
H 	H 	0.38450 0.45140 0.76260 -0.01800
H 	H 	0.31670 0.35030 0.55300 -0.01800
Zn	Zn	0.96872 0.81047 0.03708 1.23400
Zn	Zn	0.88838 0.89036 0.04589 1.23200
Zn	Zn	0.82032 0.90601 0.20159 1.23100
P 	P 	0.77982 0.94956 0.15590 0.49900
P 	P 	0.93715 0.85796 0.08760 0.55600
P 	P 	0.99381 0.79934 0.76250 0.40700
P 	P 	0.87425 0.92659 0.27330 0.45100
P 	P 	0.83454 0.86624 0.98370 0.42600
O 	O 	0.75077 0.95020 0.17260 -0.51100
O 	O 	0.78842 0.95226 0.01050 -0.50500
O 	O 	0.78939 0.92515 0.21190 -0.43900
O 	O 	0.95230 0.84205 0.99070 -0.45900
O 	O 	0.92249 0.84219 0.18270 -0.53100
O 	O 	0.92130 0.87510 0.00390 -0.45000
O 	O 	0.99463 0.80090 0.91430 -0.46400
O 	O 	0.96779 0.80579 0.70320 -0.46400
O 	O 	0.01551 0.81622 0.70850 -0.44000
O 	O 	0.84947 0.92940 0.19740 -0.47200
O 	O 	0.89019 0.90444 0.22610 -0.47000
O 	O 	0.87180 0.92520 0.42050 -0.46500
O 	O 	0.86210 0.86460 0.04100 -0.47000
O 	O 	0.83340 0.86490 0.83730 -0.44500
O 	O 	0.82030 0.88960 0.02700 -0.41700
H 	H 	0.79070 0.96890 0.23210 -0.02000
H 	H 	0.95120 0.86090 0.17320 -0.12300
H 	H 	0.00940 0.77800 0.74520 -0.05500
H 	H 	0.88450 0.95140 0.26260 -0.01500
H 	H 	0.81670 0.85030 0.05300 -0.01000
Zn	Zn	0.43953 0.71872 0.28708 1.23100
Zn	Zn	0.35964 0.63838 0.29589 1.23100
Zn	Zn	0.34399 0.57032 0.45159 1.23100
P 	P 	0.30044 0.52982 0.40590 0.49900
P 	P 	0.39204 0.68715 0.33760 0.54700
P 	P 	0.45066 0.74381 0.01250 0.43000
P 	P 	0.32341 0.62425 0.52330 0.45100
P 	P 	0.38376 0.58454 0.23370 0.45000
O 	O 	0.29980 0.50077 0.42260 -0.51400
O 	O 	0.29774 0.53842 0.26050 -0.50900
O 	O 	0.32485 0.53939 0.46190 -0.44000
O 	O 	0.40795 0.70230 0.24070 -0.44500
O 	O 	0.40781 0.67249 0.43270 -0.53100
O 	O 	0.37490 0.67130 0.25390 -0.45100
O 	O 	0.44910 0.74463 0.16430 -0.45800
O 	O 	0.44421 0.71779 0.95320 -0.47400
O 	O 	0.43378 0.76551 0.95850 -0.44800
O 	O 	0.32060 0.59947 0.44740 -0.47300
O 	O 	0.34556 0.64019 0.47610 -0.47100
O 	O 	0.32480 0.62180 0.67050 -0.46600
O 	O 	0.38540 0.61210 0.29100 -0.47900
O 	O 	0.38510 0.58340 0.08730 -0.43800
O 	O 	0.36040 0.57030 0.27700 -0.42700
H 	H 	0.28110 0.54070 0.48210 -0.02100
H 	H 	0.38910 0.70120 0.42320 -0.12200
H 	H 	0.47200 0.75940 0.99520 -0.06200
H 	H 	0.29860 0.63450 0.51260 -0.01600
H 	H 	0.39970 0.56670 0.30300 -0.01700
Zn	Zn	0.93953 0.21872 0.78708 1.23100
Zn	Zn	0.85964 0.13838 0.79589 1.23000
Zn	Zn	0.84399 0.07032 0.95159 1.22900
P 	P 	0.80044 0.02982 0.90590 0.49900
P 	P 	0.89204 0.18715 0.83760 0.54700
P 	P 	0.95066 0.24381 0.51250 0.40700
P 	P 	0.82341 0.12425 0.02330 0.46900
P 	P 	0.88376 0.08454 0.73370 0.44900
O 	O 	0.79980 0.00077 0.92260 -0.51900
O 	O 	0.79774 0.03842 0.76050 -0.51200
O 	O 	0.82485 0.03939 0.96190 -0.44400
O 	O 	0.90795 0.20230 0.74070 -0.44800
O 	O 	0.90781 0.17249 0.93270 -0.53500
O 	O 	0.87490 0.17130 0.75390 -0.45500
O 	O 	0.94910 0.24463 0.66430 -0.45900
O 	O 	0.94421 0.21779 0.45320 -0.46200
O 	O 	0.93378 0.26551 0.45850 -0.43800
O 	O 	0.82060 0.09947 0.94740 -0.48400
O 	O 	0.84556 0.14019 0.97610 -0.48200
O 	O 	0.82480 0.12180 0.17050 -0.46500
O 	O 	0.88540 0.11210 0.79100 -0.48200
O 	O 	0.88510 0.08340 0.58730 -0.44500
O 	O 	0.86040 0.07030 0.77700 -0.43000
H 	H 	0.78110 0.04070 0.98210 -0.02600
H 	H 	0.88910 0.20120 0.92320 -0.12500
H 	H 	0.97200 0.25940 0.49520 -0.05400
H 	H 	0.79860 0.13450 0.01260 -0.01400
H 	H 	0.89970 0.06670 0.80300 -0.02000
Zn	Zn	0.06047 0.28128 0.78708 1.23100
Zn	Zn	0.14036 0.36162 0.79589 1.23000
Zn	Zn	0.15601 0.42968 0.95159 1.22900
P 	P 	0.19956 0.47018 0.90590 0.49900
P 	P 	0.10796 0.31285 0.83760 0.54700
P 	P 	0.04934 0.25619 0.51250 0.40700
P 	P 	0.17659 0.37575 0.02330 0.46900
P 	P 	0.11624 0.41546 0.73370 0.44900
O 	O 	0.20020 0.49923 0.92260 -0.51900
O 	O 	0.20226 0.46158 0.76050 -0.51200
O 	O 	0.17515 0.46061 0.96190 -0.44400
O 	O 	0.09205 0.29770 0.74070 -0.44800
O 	O 	0.09219 0.32751 0.93270 -0.53500
O 	O 	0.12510 0.32870 0.75390 -0.45500
O 	O 	0.05090 0.25537 0.66430 -0.45900
O 	O 	0.05579 0.28221 0.45320 -0.46200
O 	O 	0.06622 0.23449 0.45850 -0.43800
O 	O 	0.17940 0.40053 0.94740 -0.48400
O 	O 	0.15444 0.35981 0.97610 -0.48200
O 	O 	0.17520 0.37820 0.17050 -0.46500
O 	O 	0.11460 0.38790 0.79100 -0.48200
O 	O 	0.11490 0.41660 0.58730 -0.44500
O 	O 	0.13960 0.42970 0.77700 -0.43000
H 	H 	0.21890 0.45930 0.98210 -0.02600
H 	H 	0.11090 0.29880 0.92320 -0.12500
H 	H 	0.02800 0.24060 0.49520 -0.05400
H 	H 	0.20140 0.36550 0.01260 -0.01400
H 	H 	0.10030 0.43330 0.80300 -0.02000
Zn	Zn	0.56047 0.78128 0.28708 1.23100
Zn	Zn	0.64036 0.86162 0.29589 1.23100
Zn	Zn	0.65601 0.92968 0.45159 1.23100
P 	P 	0.69956 0.97018 0.40590 0.49900
P 	P 	0.60796 0.81285 0.33760 0.54700
P 	P 	0.54934 0.75619 0.01250 0.43000
P 	P 	0.67659 0.87575 0.52330 0.45100
P 	P 	0.61624 0.91546 0.23370 0.45000
O 	O 	0.70020 0.99923 0.42260 -0.51400
O 	O 	0.70226 0.96158 0.26050 -0.50900
O 	O 	0.67515 0.96061 0.46190 -0.44000
O 	O 	0.59205 0.79770 0.24070 -0.44500
O 	O 	0.59219 0.82751 0.43270 -0.53100
O 	O 	0.62510 0.82870 0.25390 -0.45100
O 	O 	0.55090 0.75537 0.16430 -0.45800
O 	O 	0.55579 0.78221 0.95320 -0.47400
O 	O 	0.56622 0.73449 0.95850 -0.44800
O 	O 	0.67940 0.90053 0.44740 -0.47300
O 	O 	0.65444 0.85981 0.47610 -0.47100
O 	O 	0.67520 0.87820 0.67050 -0.46600
O 	O 	0.61460 0.88790 0.29100 -0.47900
O 	O 	0.61490 0.91660 0.08730 -0.43800
O 	O 	0.63960 0.92970 0.27700 -0.42700
H 	H 	0.71890 0.95930 0.48210 -0.02100
H 	H 	0.61090 0.79880 0.42320 -0.12200
H 	H 	0.52800 0.74060 0.99520 -0.06200
H 	H 	0.70140 0.86550 0.51260 -0.01600
H 	H 	0.60030 0.93330 0.30300 -0.01700
Ga	Ga	0.77425 0.47575 0.12500 2.10300
Ga	Ga	0.27425 0.97575 0.62500 2.10200
Ga	Ga	0.72575 0.52425 0.62500 2.10200
Ga	Ga	0.22575 0.02425 0.12500 2.10300
Ga	Ga	0.77425 0.52425 0.37500 2.10200
Ga	Ga	0.27425 0.02425 0.87500 2.10000
Ga	Ga	0.72575 0.47575 0.87500 2.10000
Ga	Ga	0.22575 0.97575 0.37500 2.10200
Ga	Ga	0.22575 0.52425 0.87500 2.10000
Ga	Ga	0.72575 0.02425 0.37500 2.10200
Ga	Ga	0.27425 0.47575 0.37500 2.10200
Ga	Ga	0.77425 0.97575 0.87500 2.10000
Ga	Ga	0.22575 0.47575 0.62500 2.10200
Ga	Ga	0.72575 0.97575 0.12500 2.10200
Ga	Ga	0.27425 0.52425 0.12500 2.10300
Ga	Ga	0.77425 0.02425 0.62500 2.10200
Zn	Zn	0.58518 0.33518 0.37500 1.15300
Zn	Zn	0.08518 0.83518 0.87500 1.15000
Zn	Zn	0.91482 0.66482 0.87500 1.15000
Zn	Zn	0.41482 0.16482 0.37500 1.15300
Zn	Zn	0.91482 0.33518 0.62500 1.15300
Zn	Zn	0.41482 0.83518 0.12500 1.15600
Zn	Zn	0.58518 0.66482 0.12500 1.15600
Zn	Zn	0.08518 0.16482 0.62500 1.15300
Zn	Zn	0.41482 0.66482 0.62500 1.15300
Zn	Zn	0.91482 0.16482 0.12500 1.15600
Zn	Zn	0.08518 0.33518 0.12500 1.15600
Zn	Zn	0.58518 0.83518 0.62500 1.15300
Zn	Zn	0.08518 0.66482 0.37500 1.15300
Zn	Zn	0.58518 0.16482 0.87500 1.15000
Zn	Zn	0.41482 0.33518 0.87500 1.15000
Zn	Zn	0.91482 0.83518 0.37500 1.15300
F 	F 	0.75000 0.49068 -0.00000 -0.83400
F 	F 	0.25000 0.99068 0.50000 -0.84000
F 	F 	0.75000 0.50932 0.50000 -0.84000
F 	F 	0.25000 0.00932 -0.00000 -0.83300
F 	F 	0.75932 0.50000 0.25000 -0.83900
F 	F 	0.25932 0.00000 0.75000 -0.84100
F 	F 	0.74068 0.50000 0.75000 -0.84200
F 	F 	0.24068 0.00000 0.25000 -0.83900
F 	F 	0.25000 0.50932 -0.00000 -0.83400
F 	F 	0.75000 0.00932 0.50000 -0.84000
F 	F 	0.25000 0.49068 0.50000 -0.84000
F 	F 	0.75000 0.99068 -0.00000 -0.83400
F 	F 	0.24068 0.50000 0.75000 -0.84200
F 	F 	0.74068 0.00000 0.25000 -0.83900
F 	F 	0.25932 0.50000 0.25000 -0.83900
F 	F 	0.75932 0.00000 0.75000 -0.84100
