data_crystal

_cell_length_a 48.39310
_cell_length_b 48.39310
_cell_length_c 9.99980
_cell_angle_alpha 90.00000
_cell_angle_beta  90.00000
_cell_angle_gamma 90.00000

_symmetry_space_group_name_	'P 1'
_symmetry_space_group_name_H-M	'P 1'

loop_
_symmetry_equiv_pos_as_xyz
  x,y,z

loop_
_atom_site_label
_atom_site_type_symbol
_atom_site_fract_x
_atom_site_fract_y
_atom_site_fract_z
_atom_site_charge
Zn	Zn	0.37492 0.48207 0.32752 1.23200
Zn	Zn	0.43871 0.52211 0.17020 1.22800
P 	P 	0.31085 0.48434 0.28186 0.47900
P 	P 	0.40041 0.53911 0.39897 0.43300
P 	P 	0.41596 0.46241 0.10963 0.40200
O 	O 	0.28835 0.46269 0.29810 -0.52000
O 	O 	0.31534 0.49324 0.13650 -0.53400
O 	O 	0.33696 0.47335 0.34350 -0.44100
O 	O 	0.42973 0.53439 0.34930 -0.46800
O 	O 	0.37940 0.52243 0.32140 -0.47100
O 	O 	0.39935 0.53564 0.54810 -0.46500
O 	O 	0.47522 0.53546 0.12670 -0.45300
O 	O 	0.38692 0.46847 0.15500 -0.43600
O 	O 	0.41586 0.46042 0.96000 -0.39800
O 	O 	0.43790 0.48178 0.16700 -0.48300
H 	H 	0.29990 0.50960 0.37320 0.00700
H 	H 	0.39190 0.56790 0.37470 -0.01000
H 	H 	0.42130 0.43890 0.17870 -0.02800
Zn	Zn	0.87492 0.98207 0.82752 1.23600
Zn	Zn	0.93871 0.02211 0.67020 1.23000
P 	P 	0.81085 0.98434 0.78186 0.48300
P 	P 	0.90041 0.03911 0.89897 0.47600
P 	P 	0.91596 0.96241 0.60963 0.44700
O 	O 	0.78835 0.96269 0.79810 -0.50600
O 	O 	0.81534 0.99324 0.63650 -0.51300
O 	O 	0.83696 0.97335 0.84350 -0.42200
O 	O 	0.92973 0.03439 0.84930 -0.45900
O 	O 	0.87940 0.02243 0.82140 -0.46500
O 	O 	0.89935 0.03564 0.04810 -0.51300
O 	O 	0.97522 0.03546 0.62670 -0.43600
O 	O 	0.88692 0.96847 0.65500 -0.42400
O 	O 	0.91586 0.96042 0.46000 -0.44200
O 	O 	0.93790 0.98178 0.66700 -0.47000
H 	H 	0.79990 0.00960 0.87320 0.01900
H 	H 	0.89190 0.06790 0.87470 0.00100
H 	H 	0.92130 0.93890 0.67870 -0.01700
Zn	Zn	0.12508 0.51793 0.82752 1.23500
Zn	Zn	0.06129 0.47789 0.67020 1.23100
P 	P 	0.18915 0.51566 0.78186 0.48100
P 	P 	0.09959 0.46089 0.89897 0.47600
P 	P 	0.08404 0.53759 0.60963 0.44700
O 	O 	0.21165 0.53731 0.79810 -0.50600
O 	O 	0.18466 0.50676 0.63650 -0.51500
O 	O 	0.16304 0.52665 0.84350 -0.42200
O 	O 	0.07027 0.46561 0.84930 -0.45900
O 	O 	0.12060 0.47757 0.82140 -0.46300
O 	O 	0.10065 0.46436 0.04810 -0.51300
O 	O 	0.02478 0.46454 0.62670 -0.43500
O 	O 	0.11308 0.53153 0.65500 -0.42500
O 	O 	0.08414 0.53958 0.46000 -0.44200
O 	O 	0.06210 0.51822 0.66700 -0.47200
H 	H 	0.20010 0.49040 0.87320 0.02100
H 	H 	0.10810 0.43210 0.87470 0.00100
H 	H 	0.07870 0.56110 0.67870 -0.01800
Zn	Zn	0.62508 0.01793 0.32752 1.23000
Zn	Zn	0.56129 0.97789 0.17020 1.22800
P 	P 	0.68915 0.01566 0.28186 0.47700
P 	P 	0.59959 0.96089 0.39897 0.43200
P 	P 	0.58404 0.03759 0.10963 0.40100
O 	O 	0.71165 0.03731 0.29810 -0.52100
O 	O 	0.68466 0.00676 0.13650 -0.53600
O 	O 	0.66304 0.02665 0.34350 -0.44200
O 	O 	0.57027 0.96561 0.34930 -0.46700
O 	O 	0.62060 0.97757 0.32140 -0.46900
O 	O 	0.60065 0.96436 0.54810 -0.46400
O 	O 	0.52478 0.96454 0.12670 -0.45300
O 	O 	0.61308 0.03153 0.15500 -0.43700
O 	O 	0.58414 0.03958 0.96000 -0.39900
O 	O 	0.56210 0.01822 0.16700 -0.48500
H 	H 	0.70010 0.99040 0.37320 0.00900
H 	H 	0.60810 0.93210 0.37470 -0.01000
H 	H 	0.57870 0.06110 0.17870 -0.02800
Zn	Zn	0.76793 0.12492 0.57752 1.23200
Zn	Zn	0.72789 0.18871 0.42020 1.23000
P 	P 	0.76566 0.06085 0.53186 0.47800
P 	P 	0.71089 0.15041 0.64897 0.43100
P 	P 	0.78759 0.16596 0.35963 0.44800
O 	O 	0.78731 0.03835 0.54810 -0.51600
O 	O 	0.75676 0.06534 0.38650 -0.51800
O 	O 	0.77665 0.08696 0.59350 -0.43700
O 	O 	0.71561 0.17973 0.59930 -0.46300
O 	O 	0.72757 0.12940 0.57140 -0.46700
O 	O 	0.71436 0.14935 0.79810 -0.45000
O 	O 	0.71454 0.22522 0.37670 -0.44000
O 	O 	0.78153 0.13692 0.40500 -0.43100
O 	O 	0.78958 0.16586 0.21000 -0.45900
O 	O 	0.76822 0.18790 0.41700 -0.47700
H 	H 	0.74040 0.04990 0.62320 0.00700
H 	H 	0.68210 0.14190 0.62470 -0.00400
H 	H 	0.81110 0.17130 0.42870 -0.02600
Zn	Zn	0.26793 0.62492 0.07752 1.22100
Zn	Zn	0.22789 0.68871 0.92020 1.24100
P 	P 	0.26566 0.56085 0.03186 0.43500
P 	P 	0.21089 0.65041 0.14897 0.43000
P 	P 	0.28759 0.66596 0.85963 0.44700
O 	O 	0.28731 0.53835 0.04810 -0.53200
O 	O 	0.25676 0.56534 0.88650 -0.47500
O 	O 	0.27665 0.58696 0.09350 -0.44600
O 	O 	0.21561 0.67973 0.09930 -0.49000
O 	O 	0.22757 0.62940 0.07140 -0.48700
O 	O 	0.21436 0.64935 0.29810 -0.46700
O 	O 	0.21454 0.72522 0.87670 -0.43400
O 	O 	0.28153 0.63692 0.90500 -0.40200
O 	O 	0.28958 0.66586 0.71000 -0.44000
O 	O 	0.26822 0.68790 0.91700 -0.45800
H 	H 	0.24040 0.54990 0.12320 0.00200
H 	H 	0.18210 0.64190 0.12470 -0.01800
H 	H 	0.31110 0.67130 0.92870 -0.01000
Zn	Zn	0.73207 0.87508 0.07752 1.22100
Zn	Zn	0.77211 0.81129 0.92020 1.24100
P 	P 	0.73434 0.93915 0.03186 0.43500
P 	P 	0.78911 0.84959 0.14897 0.43000
P 	P 	0.71241 0.83404 0.85963 0.44700
O 	O 	0.71269 0.96165 0.04810 -0.53000
O 	O 	0.74324 0.93466 0.88650 -0.47500
O 	O 	0.72335 0.91304 0.09350 -0.44600
O 	O 	0.78439 0.82027 0.09930 -0.49000
O 	O 	0.77243 0.87060 0.07140 -0.48700
O 	O 	0.78564 0.85065 0.29810 -0.46700
O 	O 	0.78546 0.77478 0.87670 -0.43400
O 	O 	0.71847 0.86308 0.90500 -0.40200
O 	O 	0.71042 0.83414 0.71000 -0.44000
O 	O 	0.73178 0.81210 0.91700 -0.45800
H 	H 	0.75960 0.95010 0.12320 0.00200
H 	H 	0.81790 0.85810 0.12470 -0.01700
H 	H 	0.68890 0.82870 0.92870 -0.01000
Zn	Zn	0.23207 0.37508 0.57752 1.23200
Zn	Zn	0.27211 0.31129 0.42020 1.23000
P 	P 	0.23434 0.43915 0.53186 0.47800
P 	P 	0.28911 0.34959 0.64897 0.43100
P 	P 	0.21241 0.33404 0.35963 0.44800
O 	O 	0.21269 0.46165 0.54810 -0.51500
O 	O 	0.24324 0.43466 0.38650 -0.51800
O 	O 	0.22335 0.41304 0.59350 -0.43700
O 	O 	0.28439 0.32027 0.59930 -0.46300
O 	O 	0.27243 0.37060 0.57140 -0.46700
O 	O 	0.28564 0.35065 0.79810 -0.45000
O 	O 	0.28546 0.27478 0.37670 -0.44000
O 	O 	0.21847 0.36308 0.40500 -0.43100
O 	O 	0.21042 0.33414 0.21000 -0.45900
O 	O 	0.23178 0.31210 0.41700 -0.47700
H 	H 	0.25960 0.45010 0.62320 0.00800
H 	H 	0.31790 0.35810 0.62470 -0.00400
H 	H 	0.18890 0.32870 0.42870 -0.02700
Zn	Zn	0.12508 0.48207 0.17248 1.22900
Zn	Zn	0.06129 0.52211 0.32980 1.22900
P 	P 	0.18915 0.48434 0.21814 0.47600
P 	P 	0.09959 0.53911 0.10103 0.38800
P 	P 	0.08404 0.46241 0.39037 0.44700
O 	O 	0.21165 0.46269 0.20190 -0.52700
O 	O 	0.18466 0.49324 0.36350 -0.51600
O 	O 	0.16304 0.47335 0.15650 -0.45400
O 	O 	0.07027 0.53439 0.15070 -0.47400
O 	O 	0.12060 0.52243 0.17860 -0.47000
O 	O 	0.10065 0.53564 0.95190 -0.41900
O 	O 	0.02478 0.53546 0.37330 -0.43700
O 	O 	0.11308 0.46847 0.34500 -0.42900
O 	O 	0.08414 0.46042 0.54000 -0.44300
O 	O 	0.06210 0.48178 0.33300 -0.48200
H 	H 	0.20010 0.50960 0.12680 -0.00600
H 	H 	0.10810 0.56790 0.12530 -0.01500
H 	H 	0.07870 0.43890 0.32130 -0.03000
Zn	Zn	0.62508 0.98207 0.67248 1.23300
Zn	Zn	0.56129 0.02211 0.82980 1.23200
P 	P 	0.68915 0.98434 0.71814 0.48000
P 	P 	0.59959 0.03911 0.60103 0.43200
P 	P 	0.58404 0.96241 0.89037 0.49200
O 	O 	0.71165 0.96269 0.70190 -0.51100
O 	O 	0.68466 0.99324 0.86350 -0.49100
O 	O 	0.66304 0.97335 0.65650 -0.43400
O 	O 	0.57027 0.03439 0.65070 -0.46700
O 	O 	0.62060 0.02243 0.67860 -0.46400
O 	O 	0.60065 0.03564 0.45190 -0.46700
O 	O 	0.52478 0.03546 0.87330 -0.42000
O 	O 	0.61308 0.96847 0.84500 -0.41800
O 	O 	0.58414 0.96042 0.04000 -0.48700
O 	O 	0.56210 0.98178 0.83300 -0.46900
H 	H 	0.70010 0.00960 0.62680 0.00600
H 	H 	0.60810 0.06790 0.62530 -0.00400
H 	H 	0.57870 0.93890 0.82130 -0.02000
Zn	Zn	0.37492 0.51793 0.67248 1.23300
Zn	Zn	0.43871 0.47789 0.82980 1.23300
P 	P 	0.31085 0.51566 0.71814 0.47800
P 	P 	0.40041 0.46089 0.60103 0.43200
P 	P 	0.41596 0.53759 0.89037 0.49200
O 	O 	0.28835 0.53731 0.70190 -0.51100
O 	O 	0.31534 0.50676 0.86350 -0.49300
O 	O 	0.33696 0.52665 0.65650 -0.43400
O 	O 	0.42973 0.46561 0.65070 -0.46600
O 	O 	0.37940 0.47757 0.67860 -0.46200
O 	O 	0.39935 0.46436 0.45190 -0.46700
O 	O 	0.47522 0.46454 0.87330 -0.42000
O 	O 	0.38692 0.53153 0.84500 -0.41900
O 	O 	0.41586 0.53958 0.04000 -0.48700
O 	O 	0.43790 0.51822 0.83300 -0.47000
H 	H 	0.29990 0.49040 0.62680 0.00800
H 	H 	0.39190 0.43210 0.62530 -0.00400
H 	H 	0.42130 0.56110 0.82130 -0.02000
Zn	Zn	0.87492 0.01793 0.17248 1.22800
Zn	Zn	0.93871 0.97789 0.32980 1.23000
P 	P 	0.81085 0.01566 0.21814 0.47400
P 	P 	0.90041 0.96089 0.10103 0.38800
P 	P 	0.91596 0.03759 0.39037 0.44700
O 	O 	0.78835 0.03731 0.20190 -0.52700
O 	O 	0.81534 0.00676 0.36350 -0.51700
O 	O 	0.83696 0.02665 0.15650 -0.45400
O 	O 	0.92973 0.96561 0.15070 -0.47300
O 	O 	0.87940 0.97757 0.17860 -0.46800
O 	O 	0.89935 0.96436 0.95190 -0.41800
O 	O 	0.97522 0.96454 0.37330 -0.43600
O 	O 	0.88692 0.03153 0.34500 -0.43000
O 	O 	0.91586 0.03958 0.54000 -0.44400
O 	O 	0.93790 0.01822 0.33300 -0.48300
H 	H 	0.79990 0.99040 0.12680 -0.00400
H 	H 	0.89190 0.93210 0.12530 -0.01500
H 	H 	0.92130 0.06110 0.32130 -0.03000
Zn	Zn	0.73207 0.12492 0.92248 1.24300
Zn	Zn	0.77211 0.18871 0.07980 1.21800
P 	P 	0.73434 0.06085 0.96814 0.52300
P 	P 	0.78911 0.15041 0.85103 0.43300
P 	P 	0.71241 0.16596 0.14037 0.44700
O 	O 	0.71269 0.03835 0.95190 -0.49700
O 	O 	0.74324 0.06534 0.11350 -0.55700
O 	O 	0.72335 0.08696 0.90650 -0.42900
O 	O 	0.78439 0.17973 0.90070 -0.44200
O 	O 	0.77243 0.12940 0.92860 -0.44500
O 	O 	0.78564 0.14935 0.70190 -0.46400
O 	O 	0.78546 0.22522 0.12330 -0.44000
O 	O 	0.71847 0.13692 0.09500 -0.45400
O 	O 	0.71042 0.16586 0.29000 -0.44600
O 	O 	0.73178 0.18790 0.08300 -0.49800
H 	H 	0.75960 0.04990 0.87680 0.01300
H 	H 	0.81790 0.14190 0.87530 0.00400
H 	H 	0.68890 0.17130 0.07130 -0.03900
Zn	Zn	0.23207 0.62492 0.42248 1.23200
Zn	Zn	0.27211 0.68871 0.57980 1.23000
P 	P 	0.23434 0.56085 0.46814 0.47800
P 	P 	0.28911 0.65041 0.35103 0.43200
P 	P 	0.21241 0.66596 0.64037 0.44700
O 	O 	0.21269 0.53835 0.45190 -0.51700
O 	O 	0.24324 0.56534 0.61350 -0.51300
O 	O 	0.22335 0.58696 0.40650 -0.43900
O 	O 	0.28439 0.67973 0.40070 -0.47100
O 	O 	0.27243 0.62940 0.42860 -0.46600
O 	O 	0.28564 0.64935 0.20190 -0.48100
O 	O 	0.28546 0.72522 0.62330 -0.43400
O 	O 	0.21847 0.63692 0.59500 -0.42300
O 	O 	0.21042 0.66586 0.79000 -0.42800
O 	O 	0.23178 0.68790 0.58300 -0.47600
H 	H 	0.25960 0.54990 0.37680 0.00700
H 	H 	0.31790 0.64190 0.37530 -0.01100
H 	H 	0.18890 0.67130 0.57130 -0.02200
Zn	Zn	0.76793 0.87508 0.42248 1.23200
Zn	Zn	0.72789 0.81129 0.57980 1.23000
P 	P 	0.76566 0.93915 0.46814 0.47800
P 	P 	0.71089 0.84959 0.35103 0.43200
P 	P 	0.78759 0.83404 0.64037 0.44700
O 	O 	0.78731 0.96165 0.45190 -0.51600
O 	O 	0.75676 0.93466 0.61350 -0.51300
O 	O 	0.77665 0.91304 0.40650 -0.43900
O 	O 	0.71561 0.82027 0.40070 -0.47100
O 	O 	0.72757 0.87060 0.42860 -0.46600
O 	O 	0.71436 0.85065 0.20190 -0.48100
O 	O 	0.71454 0.77478 0.62330 -0.43400
O 	O 	0.78153 0.86308 0.59500 -0.42300
O 	O 	0.78958 0.83414 0.79000 -0.42800
O 	O 	0.76822 0.81210 0.58300 -0.47600
H 	H 	0.74040 0.95010 0.37680 0.00800
H 	H 	0.68210 0.85810 0.37530 -0.01100
H 	H 	0.81110 0.82870 0.57130 -0.02200
Zn	Zn	0.26793 0.37508 0.92248 1.24300
Zn	Zn	0.22789 0.31129 0.07980 1.21800
P 	P 	0.26566 0.43915 0.96814 0.52300
P 	P 	0.21089 0.34959 0.85103 0.43300
P 	P 	0.28759 0.33404 0.14037 0.44700
O 	O 	0.28731 0.46165 0.95190 -0.49600
O 	O 	0.25676 0.43466 0.11350 -0.55700
O 	O 	0.27665 0.41304 0.90650 -0.42900
O 	O 	0.21561 0.32027 0.90070 -0.44200
O 	O 	0.22757 0.37060 0.92860 -0.44500
O 	O 	0.21436 0.35065 0.70190 -0.46400
O 	O 	0.21454 0.27478 0.12330 -0.44000
O 	O 	0.28153 0.36308 0.09500 -0.45400
O 	O 	0.28958 0.33414 0.29000 -0.44600
O 	O 	0.26822 0.31210 0.08300 -0.49800
H 	H 	0.24040 0.45010 0.87680 0.01300
H 	H 	0.18210 0.35810 0.87530 0.00400
H 	H 	0.31110 0.32870 0.07130 -0.03900
Zn	Zn	0.62508 0.51793 0.67248 1.23300
Zn	Zn	0.56129 0.47789 0.82980 1.23300
P 	P 	0.68915 0.51566 0.71814 0.47800
P 	P 	0.59959 0.46089 0.60103 0.43200
P 	P 	0.58404 0.53759 0.89037 0.49200
O 	O 	0.71165 0.53731 0.70190 -0.51100
O 	O 	0.68466 0.50676 0.86350 -0.49300
O 	O 	0.66304 0.52665 0.65650 -0.43400
O 	O 	0.57027 0.46561 0.65070 -0.46600
O 	O 	0.62060 0.47757 0.67860 -0.46200
O 	O 	0.60065 0.46436 0.45190 -0.46700
O 	O 	0.52478 0.46454 0.87330 -0.42000
O 	O 	0.61308 0.53153 0.84500 -0.41900
O 	O 	0.58414 0.53958 0.04000 -0.48700
O 	O 	0.56210 0.51822 0.83300 -0.47000
H 	H 	0.70010 0.49040 0.62680 0.00800
H 	H 	0.60810 0.43210 0.62530 -0.00400
H 	H 	0.57870 0.56110 0.82130 -0.02000
Zn	Zn	0.12508 0.01793 0.17248 1.22800
Zn	Zn	0.06129 0.97789 0.32980 1.23000
P 	P 	0.18915 0.01566 0.21814 0.47400
P 	P 	0.09959 0.96089 0.10103 0.38800
P 	P 	0.08404 0.03759 0.39037 0.44700
O 	O 	0.21165 0.03731 0.20190 -0.52700
O 	O 	0.18466 0.00676 0.36350 -0.51700
O 	O 	0.16304 0.02665 0.15650 -0.45400
O 	O 	0.07027 0.96561 0.15070 -0.47300
O 	O 	0.12060 0.97757 0.17860 -0.46800
O 	O 	0.10065 0.96436 0.95190 -0.41800
O 	O 	0.02478 0.96454 0.37330 -0.43600
O 	O 	0.11308 0.03153 0.34500 -0.43000
O 	O 	0.08414 0.03958 0.54000 -0.44400
O 	O 	0.06210 0.01822 0.33300 -0.48300
H 	H 	0.20010 0.99040 0.12680 -0.00400
H 	H 	0.10810 0.93210 0.12530 -0.01500
H 	H 	0.07870 0.06110 0.32130 -0.03000
Zn	Zn	0.87492 0.48207 0.17248 1.22900
Zn	Zn	0.93871 0.52211 0.32980 1.22900
P 	P 	0.81085 0.48434 0.21814 0.47600
P 	P 	0.90041 0.53911 0.10103 0.38800
P 	P 	0.91596 0.46241 0.39037 0.44700
O 	O 	0.78835 0.46269 0.20190 -0.52700
O 	O 	0.81534 0.49324 0.36350 -0.51600
O 	O 	0.83696 0.47335 0.15650 -0.45400
O 	O 	0.92973 0.53439 0.15070 -0.47400
O 	O 	0.87940 0.52243 0.17860 -0.47000
O 	O 	0.89935 0.53564 0.95190 -0.41900
O 	O 	0.97522 0.53546 0.37330 -0.43600
O 	O 	0.88692 0.46847 0.34500 -0.42900
O 	O 	0.91586 0.46042 0.54000 -0.44300
O 	O 	0.93790 0.48178 0.33300 -0.48100
H 	H 	0.79990 0.50960 0.12680 -0.00600
H 	H 	0.89190 0.56790 0.12530 -0.01500
H 	H 	0.92130 0.43890 0.32130 -0.03000
Zn	Zn	0.37492 0.98207 0.67248 1.23300
Zn	Zn	0.43871 0.02211 0.82980 1.23200
P 	P 	0.31085 0.98434 0.71814 0.48000
P 	P 	0.40041 0.03911 0.60103 0.43200
P 	P 	0.41596 0.96241 0.89037 0.49200
O 	O 	0.28835 0.96269 0.70190 -0.51100
O 	O 	0.31534 0.99324 0.86350 -0.49100
O 	O 	0.33696 0.97335 0.65650 -0.43400
O 	O 	0.42973 0.03439 0.65070 -0.46700
O 	O 	0.37940 0.02243 0.67860 -0.46400
O 	O 	0.39935 0.03564 0.45190 -0.46700
O 	O 	0.47522 0.03546 0.87330 -0.42000
O 	O 	0.38692 0.96847 0.84500 -0.41800
O 	O 	0.41586 0.96042 0.04000 -0.48700
O 	O 	0.43790 0.98178 0.83300 -0.46900
H 	H 	0.29990 0.00960 0.62680 0.00600
H 	H 	0.39190 0.06790 0.62530 -0.00400
H 	H 	0.42130 0.93890 0.82130 -0.02000
Zn	Zn	0.23207 0.87508 0.42248 1.23200
Zn	Zn	0.27211 0.81129 0.57980 1.23000
P 	P 	0.23434 0.93915 0.46814 0.47800
P 	P 	0.28911 0.84959 0.35103 0.43200
P 	P 	0.21241 0.83404 0.64037 0.44700
O 	O 	0.21269 0.96165 0.45190 -0.51600
O 	O 	0.24324 0.93466 0.61350 -0.51300
O 	O 	0.22335 0.91304 0.40650 -0.43900
O 	O 	0.28439 0.82027 0.40070 -0.47100
O 	O 	0.27243 0.87060 0.42860 -0.46600
O 	O 	0.28564 0.85065 0.20190 -0.48100
O 	O 	0.28546 0.77478 0.62330 -0.43400
O 	O 	0.21847 0.86308 0.59500 -0.42300
O 	O 	0.21042 0.83414 0.79000 -0.42800
O 	O 	0.23178 0.81210 0.58300 -0.47600
H 	H 	0.25960 0.95010 0.37680 0.00800
H 	H 	0.31790 0.85810 0.37530 -0.01100
H 	H 	0.18890 0.82870 0.57130 -0.02200
Zn	Zn	0.73207 0.37508 0.92248 1.24300
Zn	Zn	0.77211 0.31129 0.07980 1.21800
P 	P 	0.73434 0.43915 0.96814 0.52300
P 	P 	0.78911 0.34959 0.85103 0.43300
P 	P 	0.71241 0.33404 0.14037 0.44700
O 	O 	0.71269 0.46165 0.95190 -0.49600
O 	O 	0.74324 0.43466 0.11350 -0.55700
O 	O 	0.72335 0.41304 0.90650 -0.42900
O 	O 	0.78439 0.32027 0.90070 -0.44200
O 	O 	0.77243 0.37060 0.92860 -0.44500
O 	O 	0.78564 0.35065 0.70190 -0.46400
O 	O 	0.78546 0.27478 0.12330 -0.44000
O 	O 	0.71847 0.36308 0.09500 -0.45400
O 	O 	0.71042 0.33414 0.29000 -0.44600
O 	O 	0.73178 0.31210 0.08300 -0.49800
H 	H 	0.75960 0.45010 0.87680 0.01300
H 	H 	0.81790 0.35810 0.87530 0.00400
H 	H 	0.68890 0.32870 0.07130 -0.03900
Zn	Zn	0.26793 0.12492 0.92248 1.24300
Zn	Zn	0.22789 0.18871 0.07980 1.21800
P 	P 	0.26566 0.06085 0.96814 0.52300
P 	P 	0.21089 0.15041 0.85103 0.43300
P 	P 	0.28759 0.16596 0.14037 0.44700
O 	O 	0.28731 0.03835 0.95190 -0.49700
O 	O 	0.25676 0.06534 0.11350 -0.55700
O 	O 	0.27665 0.08696 0.90650 -0.42900
O 	O 	0.21561 0.17973 0.90070 -0.44200
O 	O 	0.22757 0.12940 0.92860 -0.44500
O 	O 	0.21436 0.14935 0.70190 -0.46400
O 	O 	0.21454 0.22522 0.12330 -0.44000
O 	O 	0.28153 0.13692 0.09500 -0.45400
O 	O 	0.28958 0.16586 0.29000 -0.44600
O 	O 	0.26822 0.18790 0.08300 -0.49800
H 	H 	0.24040 0.04990 0.87680 0.01300
H 	H 	0.18210 0.14190 0.87530 0.00400
H 	H 	0.31110 0.17130 0.07130 -0.03900
Zn	Zn	0.76793 0.62492 0.42248 1.23200
Zn	Zn	0.72789 0.68871 0.57980 1.23000
P 	P 	0.76566 0.56085 0.46814 0.47800
P 	P 	0.71089 0.65041 0.35103 0.43200
P 	P 	0.78759 0.66596 0.64037 0.44700
O 	O 	0.78731 0.53835 0.45190 -0.51700
O 	O 	0.75676 0.56534 0.61350 -0.51300
O 	O 	0.77665 0.58696 0.40650 -0.43900
O 	O 	0.71561 0.67973 0.40070 -0.47100
O 	O 	0.72757 0.62940 0.42860 -0.46600
O 	O 	0.71436 0.64935 0.20190 -0.48100
O 	O 	0.71454 0.72522 0.62330 -0.43400
O 	O 	0.78153 0.63692 0.59500 -0.42300
O 	O 	0.78958 0.66586 0.79000 -0.42800
O 	O 	0.76822 0.68790 0.58300 -0.47600
H 	H 	0.74040 0.54990 0.37680 0.00700
H 	H 	0.68210 0.64190 0.37530 -0.01100
H 	H 	0.81110 0.67130 0.57130 -0.02200
Zn	Zn	0.87492 0.51793 0.82752 1.23500
Zn	Zn	0.93871 0.47789 0.67020 1.23100
P 	P 	0.81085 0.51566 0.78186 0.48100
P 	P 	0.90041 0.46089 0.89897 0.47600
P 	P 	0.91596 0.53759 0.60963 0.44700
O 	O 	0.78835 0.53731 0.79810 -0.50600
O 	O 	0.81534 0.50676 0.63650 -0.51500
O 	O 	0.83696 0.52665 0.84350 -0.42200
O 	O 	0.92973 0.46561 0.84930 -0.45800
O 	O 	0.87940 0.47757 0.82140 -0.46300
O 	O 	0.89935 0.46436 0.04810 -0.51300
O 	O 	0.97522 0.46454 0.62670 -0.43500
O 	O 	0.88692 0.53153 0.65500 -0.42500
O 	O 	0.91586 0.53958 0.46000 -0.44200
O 	O 	0.93790 0.51822 0.66700 -0.47200
H 	H 	0.79990 0.49040 0.87320 0.02100
H 	H 	0.89190 0.43210 0.87470 0.00100
H 	H 	0.92130 0.56110 0.67870 -0.01800
Zn	Zn	0.37492 0.01793 0.32752 1.23000
Zn	Zn	0.43871 0.97789 0.17020 1.22800
P 	P 	0.31085 0.01566 0.28186 0.47700
P 	P 	0.40041 0.96089 0.39897 0.43200
P 	P 	0.41596 0.03759 0.10963 0.40100
O 	O 	0.28835 0.03731 0.29810 -0.52100
O 	O 	0.31534 0.00676 0.13650 -0.53600
O 	O 	0.33696 0.02665 0.34350 -0.44200
O 	O 	0.42973 0.96561 0.34930 -0.46700
O 	O 	0.37940 0.97757 0.32140 -0.46900
O 	O 	0.39935 0.96436 0.54810 -0.46400
O 	O 	0.47522 0.96454 0.12670 -0.45300
O 	O 	0.38692 0.03153 0.15500 -0.43700
O 	O 	0.41586 0.03958 0.96000 -0.39900
O 	O 	0.43790 0.01822 0.16700 -0.48500
H 	H 	0.29990 0.99040 0.37320 0.00900
H 	H 	0.39190 0.93210 0.37470 -0.01000
H 	H 	0.42130 0.06110 0.17870 -0.02800
Zn	Zn	0.62508 0.48207 0.32752 1.23100
Zn	Zn	0.56129 0.52211 0.17020 1.22700
P 	P 	0.68915 0.48434 0.28186 0.47800
P 	P 	0.59959 0.53911 0.39897 0.43200
P 	P 	0.58404 0.46241 0.10963 0.40100
O 	O 	0.71165 0.46269 0.29810 -0.52100
O 	O 	0.68466 0.49324 0.13650 -0.53500
O 	O 	0.66304 0.47335 0.34350 -0.44200
O 	O 	0.57027 0.53439 0.34930 -0.46800
O 	O 	0.62060 0.52243 0.32140 -0.47100
O 	O 	0.60065 0.53564 0.54810 -0.46500
O 	O 	0.52478 0.53546 0.12670 -0.45300
O 	O 	0.61308 0.46847 0.15500 -0.43600
O 	O 	0.58414 0.46042 0.96000 -0.39800
O 	O 	0.56210 0.48178 0.16700 -0.48300
H 	H 	0.70010 0.50960 0.37320 0.00700
H 	H 	0.60810 0.56790 0.37470 -0.01000
H 	H 	0.57870 0.43890 0.17870 -0.02800
Zn	Zn	0.12508 0.98207 0.82752 1.23600
Zn	Zn	0.06129 0.02211 0.67020 1.23000
P 	P 	0.18915 0.98434 0.78186 0.48300
P 	P 	0.09959 0.03911 0.89897 0.47600
P 	P 	0.08404 0.96241 0.60963 0.44700
O 	O 	0.21165 0.96269 0.79810 -0.50600
O 	O 	0.18466 0.99324 0.63650 -0.51300
O 	O 	0.16304 0.97335 0.84350 -0.42200
O 	O 	0.07027 0.03439 0.84930 -0.45900
O 	O 	0.12060 0.02243 0.82140 -0.46500
O 	O 	0.10065 0.03564 0.04810 -0.51400
O 	O 	0.02478 0.03546 0.62670 -0.43600
O 	O 	0.11308 0.96847 0.65500 -0.42400
O 	O 	0.08414 0.96042 0.46000 -0.44200
O 	O 	0.06210 0.98178 0.66700 -0.47000
H 	H 	0.20010 0.00960 0.87320 0.01900
H 	H 	0.10810 0.06790 0.87470 0.00100
H 	H 	0.07870 0.93890 0.67870 -0.01800
Zn	Zn	0.26793 0.87508 0.07752 1.22100
Zn	Zn	0.22789 0.81129 0.92020 1.24100
P 	P 	0.26566 0.93915 0.03186 0.43500
P 	P 	0.21089 0.84959 0.14897 0.43000
P 	P 	0.28759 0.83404 0.85963 0.44700
O 	O 	0.28731 0.96165 0.04810 -0.53000
O 	O 	0.25676 0.93466 0.88650 -0.47500
O 	O 	0.27665 0.91304 0.09350 -0.44600
O 	O 	0.21561 0.82027 0.09930 -0.49000
O 	O 	0.22757 0.87060 0.07140 -0.48700
O 	O 	0.21436 0.85065 0.29810 -0.46700
O 	O 	0.21454 0.77478 0.87670 -0.43400
O 	O 	0.28153 0.86308 0.90500 -0.40200
O 	O 	0.28958 0.83414 0.71000 -0.44000
O 	O 	0.26822 0.81210 0.91700 -0.45800
H 	H 	0.24040 0.95010 0.12320 0.00200
H 	H 	0.18210 0.85810 0.12470 -0.01800
H 	H 	0.31110 0.82870 0.92870 -0.01000
Zn	Zn	0.76793 0.37508 0.57752 1.23200
Zn	Zn	0.72789 0.31129 0.42020 1.23000
P 	P 	0.76566 0.43915 0.53186 0.47800
P 	P 	0.71089 0.34959 0.64897 0.43100
P 	P 	0.78759 0.33404 0.35963 0.44800
O 	O 	0.78731 0.46165 0.54810 -0.51500
O 	O 	0.75676 0.43466 0.38650 -0.51800
O 	O 	0.77665 0.41304 0.59350 -0.43700
O 	O 	0.71561 0.32027 0.59930 -0.46300
O 	O 	0.72757 0.37060 0.57140 -0.46700
O 	O 	0.71436 0.35065 0.79810 -0.45000
O 	O 	0.71454 0.27478 0.37670 -0.44000
O 	O 	0.78153 0.36308 0.40500 -0.43100
O 	O 	0.78958 0.33414 0.21000 -0.45900
O 	O 	0.76822 0.31210 0.41700 -0.47700
H 	H 	0.74040 0.45010 0.62320 0.00800
H 	H 	0.68210 0.35810 0.62470 -0.00400
H 	H 	0.81110 0.32870 0.42870 -0.02600
Zn	Zn	0.23207 0.12492 0.57752 1.23200
Zn	Zn	0.27211 0.18871 0.42020 1.23000
P 	P 	0.23434 0.06085 0.53186 0.47800
P 	P 	0.28911 0.15041 0.64897 0.43100
P 	P 	0.21241 0.16596 0.35963 0.44800
O 	O 	0.21269 0.03835 0.54810 -0.51600
O 	O 	0.24324 0.06534 0.38650 -0.51800
O 	O 	0.22335 0.08696 0.59350 -0.43700
O 	O 	0.28439 0.17973 0.59930 -0.46300
O 	O 	0.27243 0.12940 0.57140 -0.46700
O 	O 	0.28564 0.14935 0.79810 -0.45000
O 	O 	0.28546 0.22522 0.37670 -0.44000
O 	O 	0.21847 0.13692 0.40500 -0.43100
O 	O 	0.21042 0.16586 0.21000 -0.45900
O 	O 	0.23178 0.18790 0.41700 -0.47700
H 	H 	0.25960 0.04990 0.62320 0.00700
H 	H 	0.31790 0.14190 0.62470 -0.00400
H 	H 	0.18890 0.17130 0.42870 -0.02700
Zn	Zn	0.73207 0.62492 0.07752 1.22100
Zn	Zn	0.77211 0.68871 0.92020 1.24100
P 	P 	0.73434 0.56085 0.03186 0.43500
P 	P 	0.78911 0.65041 0.14897 0.43000
P 	P 	0.71241 0.66596 0.85963 0.44700
O 	O 	0.71269 0.53835 0.04810 -0.53200
O 	O 	0.74324 0.56534 0.88650 -0.47500
O 	O 	0.72335 0.58696 0.09350 -0.44600
O 	O 	0.78439 0.67973 0.09930 -0.49000
O 	O 	0.77243 0.62940 0.07140 -0.48700
O 	O 	0.78564 0.64935 0.29810 -0.46700
O 	O 	0.78546 0.72522 0.87670 -0.43400
O 	O 	0.71847 0.63692 0.90500 -0.40200
O 	O 	0.71042 0.66586 0.71000 -0.44000
O 	O 	0.73178 0.68790 0.91700 -0.45800
H 	H 	0.75960 0.54990 0.12320 0.00200
H 	H 	0.81790 0.64190 0.12470 -0.01800
H 	H 	0.68890 0.67130 0.92870 -0.01000
Ga	Ga	0.25000 0.46290 0.25000 2.10400
Ga	Ga	0.75000 0.96290 0.75000 2.10400
Ga	Ga	0.25000 0.53710 0.75000 2.10400
Ga	Ga	0.75000 0.03710 0.25000 2.10400
Ga	Ga	0.78710 0.00000 0.50000 2.10300
Ga	Ga	0.28710 0.50000 -0.00000 2.09300
Ga	Ga	0.71290 0.00000 -0.00000 2.09200
Ga	Ga	0.21290 0.50000 0.50000 2.10400
Ga	Ga	0.75000 0.53710 0.75000 2.10400
Ga	Ga	0.25000 0.03710 0.25000 2.10400
Ga	Ga	0.75000 0.46290 0.25000 2.10400
Ga	Ga	0.25000 0.96290 0.75000 2.10400
Ga	Ga	0.21290 0.00000 0.50000 2.10300
Ga	Ga	0.71290 0.50000 -0.00000 2.09300
Ga	Ga	0.28710 0.00000 -0.00000 2.09200
Ga	Ga	0.78710 0.50000 0.50000 2.10400
Zn	Zn	0.50000 0.50000 0.50000 1.15200
Zn	Zn	-0.00000 0.00000 -0.00000 1.13300
Zn	Zn	-0.00000 0.50000 -0.00000 1.13500
Zn	Zn	0.50000 0.00000 0.50000 1.15100
Zn	Zn	0.75000 0.25000 0.75000 1.15600
Zn	Zn	0.75000 0.75000 0.25000 1.14900
Zn	Zn	0.25000 0.75000 0.25000 1.14900
Zn	Zn	0.25000 0.25000 0.75000 1.15600
P 	P 	0.50000 0.53480 0.21509 0.47600
O 	O 	0.50000 0.51043 0.30890 -0.53300
H 	H 	0.50000 0.55770 0.28810 -0.07100
P 	P 	-0.00000 0.03480 0.71509 0.47400
O 	O 	0.00000 0.01043 0.80890 -0.51000
H 	H 	-0.00000 0.05770 0.78810 -0.05900
P 	P 	-0.00000 0.46520 0.71509 0.47400
O 	O 	-0.00000 0.48957 0.80890 -0.50900
H 	H 	0.00000 0.44230 0.78810 -0.05900
P 	P 	0.50000 0.96520 0.21509 0.47500
O 	O 	0.50000 0.98957 0.30890 -0.53000
H 	H 	0.50000 0.94230 0.28810 -0.07100
P 	P 	0.71520 0.25000 0.46509 0.47500
O 	O 	0.73957 0.25000 0.55890 -0.52600
H 	H 	0.69230 0.25000 0.53810 -0.06500
P 	P 	0.78480 0.75000 0.96509 0.55600
O 	O 	0.76043 0.75000 0.05890 -0.58000
H 	H 	0.80770 0.75000 0.03810 -0.10800
P 	P 	-0.00000 0.53480 0.28491 0.47400
O 	O 	-0.00000 0.51043 0.19110 -0.54000
H 	H 	-0.00000 0.55770 0.21190 -0.07600
P 	P 	0.50000 0.03480 0.78491 0.47400
O 	O 	0.50000 0.01043 0.69110 -0.52600
H 	H 	0.50000 0.05770 0.71190 -0.06600
P 	P 	0.50000 0.46520 0.78491 0.47400
O 	O 	0.50000 0.48957 0.69110 -0.52500
H 	H 	0.50000 0.44230 0.71190 -0.06600
P 	P 	0.00000 0.96520 0.28491 0.47400
O 	O 	-0.00000 0.98957 0.19110 -0.53800
H 	H 	-0.00000 0.94230 0.21190 -0.07600
P 	P 	0.78480 0.25000 0.03491 0.38600
O 	O 	0.76043 0.25000 0.94110 -0.47200
H 	H 	0.80770 0.25000 0.96190 -0.02400
P 	P 	0.71520 0.75000 0.53491 0.47500
O 	O 	0.73957 0.75000 0.44110 -0.53100
H 	H 	0.69230 0.75000 0.46190 -0.07100
P 	P 	0.28480 0.75000 0.53491 0.47500
O 	O 	0.26043 0.75000 0.44110 -0.53100
H 	H 	0.30770 0.75000 0.46190 -0.07100
P 	P 	0.21520 0.25000 0.03491 0.38600
O 	O 	0.23957 0.25000 0.94110 -0.47200
H 	H 	0.19230 0.25000 0.96190 -0.02400
P 	P 	0.21520 0.75000 0.96509 0.55600
O 	O 	0.23957 0.75000 0.05890 -0.58000
H 	H 	0.19230 0.75000 0.03810 -0.10900
P 	P 	0.28480 0.25000 0.46509 0.47500
O 	O 	0.26043 0.25000 0.55890 -0.52600
H 	H 	0.30770 0.25000 0.53810 -0.06500
F 	F 	0.24265 0.49265 0.37500 -0.84400
F 	F 	0.25735 0.50735 0.87500 -0.82600
F 	F 	0.75735 0.99265 0.62500 -0.84200
F 	F 	0.74265 0.00735 0.12500 -0.86000
F 	F 	0.25735 0.49265 0.12500 -0.85900
F 	F 	0.24265 0.50735 0.62500 -0.84400
F 	F 	0.74265 0.99265 0.87500 -0.82400
F 	F 	0.75735 0.00735 0.37500 -0.84500
F 	F 	0.75735 0.50735 0.62500 -0.84400
F 	F 	0.74265 0.49265 0.12500 -0.85900
F 	F 	0.24265 0.99265 0.62500 -0.84200
F 	F 	0.24265 0.00735 0.37500 -0.84500
F 	F 	0.25735 0.99265 0.87500 -0.82400
F 	F 	0.74265 0.50735 0.87500 -0.82600
F 	F 	0.75735 0.49265 0.37500 -0.84400
F 	F 	0.25735 0.00735 0.12500 -0.86000
