data_crystal

_cell_length_a 48.56100
_cell_length_b 66.34000
_cell_length_c 10.03760
_cell_angle_alpha 90.00000
_cell_angle_beta  90.00000
_cell_angle_gamma 90.00000

_symmetry_space_group_name_	'P 1'
_symmetry_space_group_name_H-M	'P 1'

loop_
_symmetry_equiv_pos_as_xyz
  x,y,z

loop_
_atom_site_label
_atom_site_type_symbol
_atom_site_fract_x
_atom_site_fract_y
_atom_site_fract_z
_atom_site_charge
Zn	Zn	0.23168 0.09141 0.42275 1.23300
Zn	Zn	0.43877 0.98381 0.82937 1.23400
Zn	Zn	0.22796 0.13807 0.92008 1.24100
Zn	Zn	0.22929 0.22749 0.91317 1.24100
Zn	Zn	0.37485 0.01320 0.67287 1.23400
P 	P 	0.31087 0.01145 0.71953 0.50000
P 	P 	0.23438 0.04455 0.46981 0.49000
P 	P 	0.40008 0.97160 0.60135 0.46800
P 	P 	0.21145 0.10988 0.14673 0.51200
P 	P 	0.21266 0.12150 0.64127 0.44800
P 	P 	0.21584 0.18298 0.96133 0.75600
P 	P 	0.41600 0.02724 0.89053 0.49600
P 	P 	0.21222 0.25536 0.14220 0.56300
O 	O 	0.28847 0.02702 0.70200 -0.50700
O 	O 	0.33699 0.01961 0.66130 -0.43400
O 	O 	0.31506 0.00487 0.86410 -0.49600
O 	O 	0.21318 0.02813 0.45180 -0.51300
O 	O 	0.24340 0.04756 0.61570 -0.51200
O 	O 	0.22291 0.06368 0.41080 -0.43300
O 	O 	0.37921 0.98372 0.67800 -0.46400
O 	O 	0.42944 0.97496 0.65030 -0.46500
O 	O 	0.39896 0.97400 0.45410 -0.46900
O 	O 	0.21558 0.13126 0.10010 -0.48400
O 	O 	0.21488 0.10928 0.29450 -0.47300
O 	O 	0.22791 0.09456 0.07080 -0.48700
O 	O 	0.21843 0.10033 0.59450 -0.42100
O 	O 	0.21129 0.12111 0.79100 -0.42700
O 	O 	0.23207 0.13757 0.58200 -0.47300
O 	O 	0.23956 0.18287 0.05580 -0.58800
O 	O 	0.21494 0.16479 0.87570 -0.46600
O 	O 	0.21607 0.20094 0.87120 -0.46600
O 	O 	0.38720 0.02252 0.84500 -0.42300
O 	O 	0.41607 0.02850 0.03940 -0.47700
O 	O 	0.43773 0.01314 0.83380 -0.47400
O 	O 	0.23099 0.27181 0.08660 -0.51600
O 	O 	0.21141 0.25450 0.29130 -0.47000
O 	O 	0.21793 0.23448 0.09050 -0.50200
O 	O 	0.47545 0.97464 0.87360 -0.42600
F 	F 	0.24285 0.00516 0.62640 -0.84000
H 	H 	0.30120 0.99550 0.64250 -0.01600
H 	H 	0.25790 0.03930 0.39240 -0.01200
H 	H 	0.39600 0.95390 0.63010 -0.03900
H 	H 	0.18980 0.10660 0.12530 -0.08300
H 	H 	0.19910 0.18340 0.01310 -0.25100
H 	H 	0.18850 0.12700 0.60380 -0.02600
H 	H 	0.42000 0.04510 0.83950 -0.02700
H 	H 	0.19320 0.25770 0.11280 -0.13200
Zn	Zn	0.73168 0.59141 0.42275 1.23200
Zn	Zn	0.93877 0.48381 0.82937 1.23300
Zn	Zn	0.72796 0.63807 0.92008 1.24000
Zn	Zn	0.72929 0.72749 0.91317 1.24000
Zn	Zn	0.87485 0.51320 0.67287 1.23300
P 	P 	0.81087 0.51145 0.71953 0.49900
P 	P 	0.73438 0.54455 0.46981 0.48900
P 	P 	0.90008 0.47160 0.60135 0.46700
P 	P 	0.71145 0.60988 0.14673 0.51100
P 	P 	0.71266 0.62150 0.64127 0.44700
P 	P 	0.71584 0.68298 0.96133 0.75500
P 	P 	0.91600 0.52724 0.89053 0.49500
P 	P 	0.71222 0.75536 0.14220 0.56200
O 	O 	0.78847 0.52702 0.70200 -0.50800
O 	O 	0.83699 0.51961 0.66130 -0.43500
O 	O 	0.81506 0.50487 0.86410 -0.49700
O 	O 	0.71318 0.52813 0.45180 -0.51400
O 	O 	0.74340 0.54756 0.61570 -0.51300
O 	O 	0.72291 0.56368 0.41080 -0.43400
O 	O 	0.87921 0.48372 0.67800 -0.46500
O 	O 	0.92944 0.47496 0.65030 -0.46600
O 	O 	0.89896 0.47400 0.45410 -0.47000
O 	O 	0.71558 0.63126 0.10010 -0.48500
O 	O 	0.71488 0.60928 0.29450 -0.47400
O 	O 	0.72791 0.59456 0.07080 -0.48800
O 	O 	0.71843 0.60033 0.59450 -0.42200
O 	O 	0.71129 0.62111 0.79100 -0.42800
O 	O 	0.73207 0.63757 0.58200 -0.47400
O 	O 	0.73956 0.68287 0.05580 -0.58900
O 	O 	0.71494 0.66479 0.87570 -0.46700
O 	O 	0.71607 0.70094 0.87120 -0.46600
O 	O 	0.88720 0.52252 0.84500 -0.42300
O 	O 	0.91607 0.52850 0.03940 -0.47700
O 	O 	0.93773 0.51314 0.83380 -0.47300
O 	O 	0.73099 0.77181 0.08660 -0.51600
O 	O 	0.71141 0.75450 0.29130 -0.47000
O 	O 	0.71793 0.73448 0.09050 -0.50200
O 	O 	0.97545 0.47464 0.87360 -0.42600
F 	F 	0.74285 0.50516 0.62640 -0.84000
H 	H 	0.80120 0.49550 0.64250 -0.01600
H 	H 	0.75790 0.53930 0.39240 -0.01200
H 	H 	0.89600 0.45390 0.63010 -0.03900
H 	H 	0.68980 0.60660 0.12530 -0.08300
H 	H 	0.69910 0.68340 0.01310 -0.25100
H 	H 	0.68850 0.62700 0.60380 -0.02600
H 	H 	0.92000 0.54510 0.83950 -0.02700
H 	H 	0.69320 0.75770 0.11280 -0.13200
Zn	Zn	0.76832 0.40859 0.92275 1.24000
Zn	Zn	0.56123 0.51619 0.32937 1.23100
Zn	Zn	0.77204 0.36193 0.42008 1.23100
Zn	Zn	0.77071 0.27251 0.41317 1.23200
Zn	Zn	0.62515 0.48680 0.17287 1.23000
P 	P 	0.68913 0.48855 0.21953 0.49900
P 	P 	0.76562 0.45545 0.96981 0.52200
P 	P 	0.59992 0.52840 0.10135 0.43300
P 	P 	0.78855 0.39012 0.64673 0.50700
P 	P 	0.78734 0.37850 0.14127 0.44800
P 	P 	0.78416 0.31702 0.46133 0.65500
P 	P 	0.58400 0.47276 0.39053 0.46100
P 	P 	0.78778 0.24464 0.64220 0.55700
O 	O 	0.71153 0.47298 0.20200 -0.52000
O 	O 	0.66301 0.48039 0.16130 -0.44900
O 	O 	0.68494 0.49513 0.36410 -0.51600
O 	O 	0.78682 0.47187 0.95180 -0.49800
O 	O 	0.75660 0.45244 0.11570 -0.54500
O 	O 	0.77709 0.43632 0.91080 -0.42700
O 	O 	0.62079 0.51628 0.17800 -0.47000
O 	O 	0.57056 0.52504 0.15030 -0.47300
O 	O 	0.60104 0.52600 0.95410 -0.43400
O 	O 	0.78442 0.36874 0.60010 -0.46600
O 	O 	0.78512 0.39072 0.79450 -0.46200
O 	O 	0.77209 0.40544 0.57080 -0.47300
O 	O 	0.78157 0.39967 0.09450 -0.44500
O 	O 	0.78871 0.37889 0.29100 -0.44100
O 	O 	0.76793 0.36243 0.08200 -0.48900
O 	O 	0.76044 0.31713 0.55580 -0.54400
O 	O 	0.78506 0.33521 0.37570 -0.46400
O 	O 	0.78393 0.29906 0.37120 -0.46300
O 	O 	0.61280 0.47748 0.34500 -0.43100
O 	O 	0.58393 0.47150 0.53940 -0.44300
O 	O 	0.56227 0.48686 0.33380 -0.48200
O 	O 	0.76901 0.22819 0.58660 -0.50100
O 	O 	0.78859 0.24550 0.79130 -0.45700
O 	O 	0.78207 0.26552 0.59050 -0.48300
O 	O 	0.52455 0.52536 0.37360 -0.43900
F 	F 	0.75715 0.49484 0.12640 -0.85200
H 	H 	0.69880 0.50450 0.14250 -0.02600
H 	H 	0.74210 0.46070 0.89240 -0.00800
H 	H 	0.60400 0.54610 0.13010 -0.04400
H 	H 	0.81020 0.39340 0.62530 -0.07300
H 	H 	0.80090 0.31660 0.51310 -0.19300
H 	H 	0.81150 0.37300 0.10380 -0.03800
H 	H 	0.58000 0.45490 0.33950 -0.03500
H 	H 	0.80680 0.24230 0.61280 -0.12100
Zn	Zn	0.26832 0.90859 0.92275 1.24000
Zn	Zn	0.06123 0.01619 0.32937 1.23100
Zn	Zn	0.27204 0.86193 0.42008 1.23100
Zn	Zn	0.27071 0.77251 0.41317 1.23200
Zn	Zn	0.12515 0.98680 0.17287 1.23000
P 	P 	0.18913 0.98855 0.21953 0.49900
P 	P 	0.26562 0.95545 0.96981 0.52200
P 	P 	0.09992 0.02840 0.10135 0.43300
P 	P 	0.28855 0.89012 0.64673 0.50700
P 	P 	0.28734 0.87850 0.14127 0.44800
P 	P 	0.28416 0.81702 0.46133 0.65500
P 	P 	0.08400 0.97276 0.39053 0.46100
P 	P 	0.28778 0.74464 0.64220 0.55700
O 	O 	0.21153 0.97298 0.20200 -0.52000
O 	O 	0.16301 0.98039 0.16130 -0.44900
O 	O 	0.18494 0.99513 0.36410 -0.51600
O 	O 	0.28682 0.97187 0.95180 -0.49800
O 	O 	0.25660 0.95244 0.11570 -0.54500
O 	O 	0.27709 0.93632 0.91080 -0.42700
O 	O 	0.12079 0.01628 0.17800 -0.47100
O 	O 	0.07056 0.02504 0.15030 -0.47300
O 	O 	0.10104 0.02600 0.95410 -0.43400
O 	O 	0.28442 0.86874 0.60010 -0.46600
O 	O 	0.28512 0.89072 0.79450 -0.46200
O 	O 	0.27209 0.90544 0.57080 -0.47300
O 	O 	0.28157 0.89967 0.09450 -0.44500
O 	O 	0.28871 0.87889 0.29100 -0.44100
O 	O 	0.26793 0.86243 0.08200 -0.48900
O 	O 	0.26044 0.81713 0.55580 -0.54400
O 	O 	0.28506 0.83521 0.37570 -0.46400
O 	O 	0.28393 0.79906 0.37120 -0.46300
O 	O 	0.11280 0.97748 0.34500 -0.43100
O 	O 	0.08393 0.97150 0.53940 -0.44300
O 	O 	0.06227 0.98686 0.33380 -0.48200
O 	O 	0.26901 0.72819 0.58660 -0.50100
O 	O 	0.28859 0.74550 0.79130 -0.45700
O 	O 	0.28207 0.76552 0.59050 -0.48300
O 	O 	0.02455 0.02536 0.37360 -0.43900
F 	F 	0.25715 0.99484 0.12640 -0.85200
H 	H 	0.19880 0.00450 0.14250 -0.02600
H 	H 	0.24210 0.96070 0.89240 -0.00800
H 	H 	0.10400 0.04610 0.13010 -0.04400
H 	H 	0.31020 0.89340 0.62530 -0.07300
H 	H 	0.30090 0.81660 0.51310 -0.19300
H 	H 	0.31150 0.87300 0.10380 -0.03800
H 	H 	0.08000 0.95490 0.33950 -0.03500
H 	H 	0.30680 0.74230 0.61280 -0.12200
Zn	Zn	0.76832 0.59141 0.07725 1.22400
Zn	Zn	0.56123 0.48381 0.67063 1.23200
Zn	Zn	0.77204 0.63807 0.57992 1.23200
Zn	Zn	0.77071 0.72749 0.58683 1.23200
Zn	Zn	0.62515 0.51320 0.82713 1.23500
P 	P 	0.68913 0.51145 0.78047 0.50000
P 	P 	0.76562 0.54455 0.03019 0.45700
P 	P 	0.59992 0.47160 0.89865 0.50400
P 	P 	0.78855 0.60988 0.35327 0.51000
P 	P 	0.78734 0.62150 0.85873 0.44800
P 	P 	0.78416 0.68298 0.53867 0.65600
P 	P 	0.58400 0.52724 0.60947 0.46100
P 	P 	0.78778 0.75536 0.35780 0.56100
O 	O 	0.71153 0.52702 0.79800 -0.50400
O 	O 	0.66301 0.51961 0.83870 -0.42600
O 	O 	0.68494 0.50487 0.63590 -0.51400
O 	O 	0.78682 0.52813 0.04820 -0.52500
O 	O 	0.75660 0.54756 0.88430 -0.48400
O 	O 	0.77709 0.56368 0.08920 -0.44000
O 	O 	0.62079 0.48372 0.82200 -0.46500
O 	O 	0.57056 0.47496 0.84970 -0.46100
O 	O 	0.60104 0.47400 0.04590 -0.50600
O 	O 	0.78442 0.63126 0.39990 -0.47200
O 	O 	0.78512 0.60928 0.20550 -0.48400
O 	O 	0.77209 0.59456 0.42920 -0.47300
O 	O 	0.78157 0.60033 0.90550 -0.40600
O 	O 	0.78871 0.62111 0.70900 -0.43700
O 	O 	0.76793 0.63757 0.91800 -0.46000
O 	O 	0.76044 0.68287 0.44420 -0.54800
O 	O 	0.78506 0.66479 0.62430 -0.46100
O 	O 	0.78393 0.70094 0.62880 -0.45900
O 	O 	0.61280 0.52252 0.65500 -0.42700
O 	O 	0.58393 0.52850 0.46060 -0.44300
O 	O 	0.56227 0.51314 0.66620 -0.47400
O 	O 	0.76901 0.77181 0.41340 -0.50300
O 	O 	0.78859 0.75450 0.20870 -0.47900
O 	O 	0.78207 0.73448 0.40950 -0.48900
O 	O 	0.52455 0.47464 0.62640 -0.43800
F 	F 	0.75715 0.50516 0.87360 -0.82700
H 	H 	0.69880 0.49550 0.85750 -0.00700
H 	H 	0.74210 0.53930 0.10760 -0.01600
H 	H 	0.60400 0.45390 0.86990 -0.03900
H 	H 	0.81020 0.60660 0.37470 -0.07900
H 	H 	0.80090 0.68340 0.48690 -0.19700
H 	H 	0.81150 0.62700 0.89620 -0.02000
H 	H 	0.58000 0.54510 0.66050 -0.02600
H 	H 	0.80680 0.75770 0.38720 -0.12700
Zn	Zn	0.26832 0.09141 0.07725 1.22400
Zn	Zn	0.06123 0.98381 0.67063 1.23200
Zn	Zn	0.27204 0.13807 0.57992 1.23200
Zn	Zn	0.27071 0.22749 0.58683 1.23200
Zn	Zn	0.12515 0.01320 0.82713 1.23500
P 	P 	0.18913 0.01145 0.78047 0.50000
P 	P 	0.26562 0.04455 0.03019 0.45700
P 	P 	0.09992 0.97160 0.89865 0.50400
P 	P 	0.28855 0.10988 0.35327 0.51000
P 	P 	0.28734 0.12150 0.85873 0.44800
P 	P 	0.28416 0.18298 0.53867 0.65600
P 	P 	0.08400 0.02724 0.60947 0.46100
P 	P 	0.28778 0.25536 0.35780 0.56100
O 	O 	0.21153 0.02702 0.79800 -0.50400
O 	O 	0.16301 0.01961 0.83870 -0.42600
O 	O 	0.18494 0.00487 0.63590 -0.51400
O 	O 	0.28682 0.02813 0.04820 -0.52500
O 	O 	0.25660 0.04756 0.88430 -0.48400
O 	O 	0.27709 0.06368 0.08920 -0.44000
O 	O 	0.12079 0.98372 0.82200 -0.46500
O 	O 	0.07056 0.97496 0.84970 -0.46100
O 	O 	0.10104 0.97400 0.04590 -0.50600
O 	O 	0.28442 0.13126 0.39990 -0.47200
O 	O 	0.28512 0.10928 0.20550 -0.48400
O 	O 	0.27209 0.09456 0.42920 -0.47300
O 	O 	0.28157 0.10033 0.90550 -0.40600
O 	O 	0.28871 0.12111 0.70900 -0.43700
O 	O 	0.26793 0.13757 0.91800 -0.46000
O 	O 	0.26044 0.18287 0.44420 -0.54800
O 	O 	0.28506 0.16479 0.62430 -0.46100
O 	O 	0.28393 0.20094 0.62880 -0.45900
O 	O 	0.11280 0.02252 0.65500 -0.42700
O 	O 	0.08393 0.02850 0.46060 -0.44300
O 	O 	0.06227 0.01314 0.66620 -0.47500
O 	O 	0.26901 0.27181 0.41340 -0.50300
O 	O 	0.28859 0.25450 0.20870 -0.47900
O 	O 	0.28207 0.23448 0.40950 -0.48900
O 	O 	0.02455 0.97464 0.62640 -0.43800
F 	F 	0.25715 0.00516 0.87360 -0.82700
H 	H 	0.19880 0.99550 0.85750 -0.00700
H 	H 	0.24210 0.03930 0.10760 -0.01600
H 	H 	0.10400 0.95390 0.86990 -0.03900
H 	H 	0.31020 0.10660 0.37470 -0.07900
H 	H 	0.30090 0.18340 0.48690 -0.19700
H 	H 	0.31150 0.12700 0.89620 -0.02000
H 	H 	0.08000 0.04510 0.66050 -0.02700
H 	H 	0.30680 0.25770 0.38720 -0.12700
Zn	Zn	0.23168 0.90859 0.57725 1.23200
Zn	Zn	0.43877 0.01619 0.17063 1.22900
Zn	Zn	0.22796 0.86193 0.07992 1.22300
Zn	Zn	0.22929 0.77251 0.08683 1.22400
Zn	Zn	0.37485 0.98680 0.32713 1.23200
P 	P 	0.31087 0.98855 0.28047 0.50000
P 	P 	0.23438 0.95545 0.53019 0.48900
P 	P 	0.40008 0.02840 0.39865 0.46800
P 	P 	0.21145 0.89012 0.85327 0.50700
P 	P 	0.21266 0.87850 0.35873 0.44900
P 	P 	0.21584 0.81702 0.03867 0.54700
P 	P 	0.41600 0.97276 0.10947 0.42700
P 	P 	0.21222 0.74464 0.85780 0.55600
O 	O 	0.28847 0.97298 0.29800 -0.51600
O 	O 	0.33699 0.98039 0.33870 -0.44000
O 	O 	0.31506 0.99513 0.13590 -0.53000
O 	O 	0.21318 0.97187 0.54820 -0.51200
O 	O 	0.24340 0.95244 0.38430 -0.51600
O 	O 	0.22291 0.93632 0.58920 -0.43300
O 	O 	0.37921 0.01628 0.32200 -0.47100
O 	O 	0.42944 0.02504 0.34970 -0.46800
O 	O 	0.39896 0.02600 0.54590 -0.46900
O 	O 	0.21558 0.86874 0.89990 -0.45100
O 	O 	0.21488 0.89072 0.70550 -0.47100
O 	O 	0.22791 0.90544 0.92920 -0.45600
O 	O 	0.21843 0.89967 0.40550 -0.42800
O 	O 	0.21129 0.87889 0.20900 -0.45100
O 	O 	0.23207 0.86243 0.41800 -0.47500
O 	O 	0.23956 0.81713 0.94420 -0.50000
O 	O 	0.21494 0.83521 0.12430 -0.45700
O 	O 	0.21607 0.79906 0.12880 -0.45500
O 	O 	0.38720 0.97748 0.15500 -0.43500
O 	O 	0.41607 0.97150 0.96060 -0.40900
O 	O 	0.43773 0.98686 0.16620 -0.48300
O 	O 	0.23099 0.72819 0.91340 -0.48800
O 	O 	0.21141 0.74550 0.70870 -0.46600
O 	O 	0.21793 0.76552 0.90950 -0.46900
O 	O 	0.47545 0.02536 0.12640 -0.45200
F 	F 	0.24285 0.99484 0.37360 -0.84000
H 	H 	0.30120 0.00450 0.35750 -0.01700
H 	H 	0.25790 0.96070 0.60760 -0.01200
H 	H 	0.39600 0.04610 0.36990 -0.04400
H 	H 	0.18980 0.89340 0.87470 -0.06700
H 	H 	0.19910 0.81660 0.98690 -0.13400
H 	H 	0.18850 0.87300 0.39620 -0.03100
H 	H 	0.42000 0.95490 0.16050 -0.03400
H 	H 	0.19320 0.74230 0.88720 -0.11600
Zn	Zn	0.73168 0.40859 0.57725 1.23200
Zn	Zn	0.93877 0.51619 0.17063 1.22900
Zn	Zn	0.72796 0.36193 0.07992 1.22300
Zn	Zn	0.72929 0.27251 0.08683 1.22400
Zn	Zn	0.87485 0.48680 0.32713 1.23200
P 	P 	0.81087 0.48855 0.28047 0.50000
P 	P 	0.73438 0.45545 0.53019 0.48900
P 	P 	0.90008 0.52840 0.39865 0.46800
P 	P 	0.71145 0.39012 0.85327 0.50700
P 	P 	0.71266 0.37850 0.35873 0.44900
P 	P 	0.71584 0.31702 0.03867 0.54700
P 	P 	0.91600 0.47276 0.10947 0.42700
P 	P 	0.71222 0.24464 0.85780 0.55600
O 	O 	0.78847 0.47298 0.29800 -0.51600
O 	O 	0.83699 0.48039 0.33870 -0.44000
O 	O 	0.81506 0.49513 0.13590 -0.53000
O 	O 	0.71318 0.47187 0.54820 -0.51200
O 	O 	0.74340 0.45244 0.38430 -0.51600
O 	O 	0.72291 0.43632 0.58920 -0.43300
O 	O 	0.87921 0.51628 0.32200 -0.47100
O 	O 	0.92944 0.52504 0.34970 -0.46800
O 	O 	0.89896 0.52600 0.54590 -0.46900
O 	O 	0.71558 0.36874 0.89990 -0.45100
O 	O 	0.71488 0.39072 0.70550 -0.47100
O 	O 	0.72791 0.40544 0.92920 -0.45600
O 	O 	0.71843 0.39967 0.40550 -0.42800
O 	O 	0.71129 0.37889 0.20900 -0.45100
O 	O 	0.73207 0.36243 0.41800 -0.47500
O 	O 	0.73956 0.31713 0.94420 -0.50000
O 	O 	0.71494 0.33521 0.12430 -0.45700
O 	O 	0.71607 0.29906 0.12880 -0.45500
O 	O 	0.88720 0.47748 0.15500 -0.43500
O 	O 	0.91607 0.47150 0.96060 -0.40900
O 	O 	0.93773 0.48686 0.16620 -0.48300
O 	O 	0.73099 0.22819 0.91340 -0.48800
O 	O 	0.71141 0.24550 0.70870 -0.46600
O 	O 	0.71793 0.26552 0.90950 -0.46900
O 	O 	0.97545 0.52536 0.12640 -0.45100
F 	F 	0.74285 0.49484 0.37360 -0.84000
H 	H 	0.80120 0.50450 0.35750 -0.01700
H 	H 	0.75790 0.46070 0.60760 -0.01200
H 	H 	0.89600 0.54610 0.36990 -0.04400
H 	H 	0.68980 0.39340 0.87470 -0.06700
H 	H 	0.69910 0.31660 0.98690 -0.13400
H 	H 	0.68850 0.37300 0.39620 -0.03100
H 	H 	0.92000 0.45490 0.16050 -0.03400
H 	H 	0.69320 0.24230 0.88720 -0.11600
Zn	Zn	0.76832 0.90859 0.57725 1.23200
Zn	Zn	0.56123 0.01619 0.17063 1.22900
Zn	Zn	0.77204 0.86193 0.07992 1.22300
Zn	Zn	0.77071 0.77251 0.08683 1.22400
Zn	Zn	0.62515 0.98680 0.32713 1.23200
P 	P 	0.68913 0.98855 0.28047 0.50000
P 	P 	0.76562 0.95545 0.53019 0.48900
P 	P 	0.59992 0.02840 0.39865 0.46800
P 	P 	0.78855 0.89012 0.85327 0.50700
P 	P 	0.78734 0.87850 0.35873 0.44900
P 	P 	0.78416 0.81702 0.03867 0.54700
P 	P 	0.58400 0.97276 0.10947 0.42700
P 	P 	0.78778 0.74464 0.85780 0.55600
O 	O 	0.71153 0.97298 0.29800 -0.51600
O 	O 	0.66301 0.98039 0.33870 -0.44000
O 	O 	0.68494 0.99513 0.13590 -0.53000
O 	O 	0.78682 0.97187 0.54820 -0.51200
O 	O 	0.75660 0.95244 0.38430 -0.51600
O 	O 	0.77709 0.93632 0.58920 -0.43300
O 	O 	0.62079 0.01628 0.32200 -0.47100
O 	O 	0.57056 0.02504 0.34970 -0.46800
O 	O 	0.60104 0.02600 0.54590 -0.46900
O 	O 	0.78442 0.86874 0.89990 -0.45100
O 	O 	0.78512 0.89072 0.70550 -0.47100
O 	O 	0.77209 0.90544 0.92920 -0.45600
O 	O 	0.78157 0.89967 0.40550 -0.42800
O 	O 	0.78871 0.87889 0.20900 -0.45100
O 	O 	0.76793 0.86243 0.41800 -0.47500
O 	O 	0.76044 0.81713 0.94420 -0.50000
O 	O 	0.78506 0.83521 0.12430 -0.45700
O 	O 	0.78393 0.79906 0.12880 -0.45500
O 	O 	0.61280 0.97748 0.15500 -0.43500
O 	O 	0.58393 0.97150 0.96060 -0.40900
O 	O 	0.56227 0.98686 0.16620 -0.48300
O 	O 	0.76901 0.72819 0.91340 -0.48800
O 	O 	0.78859 0.74550 0.70870 -0.46600
O 	O 	0.78207 0.76552 0.90950 -0.46900
O 	O 	0.52455 0.02536 0.12640 -0.45200
F 	F 	0.75715 0.99484 0.37360 -0.84000
H 	H 	0.69880 0.00450 0.35750 -0.01700
H 	H 	0.74210 0.96070 0.60760 -0.01200
H 	H 	0.60400 0.04610 0.36990 -0.04400
H 	H 	0.81020 0.89340 0.87470 -0.06700
H 	H 	0.80090 0.81660 0.98690 -0.13400
H 	H 	0.81150 0.87300 0.39620 -0.03100
H 	H 	0.58000 0.95490 0.16050 -0.03400
H 	H 	0.80680 0.74230 0.88720 -0.11600
Zn	Zn	0.26832 0.40859 0.57725 1.23200
Zn	Zn	0.06123 0.51619 0.17063 1.22900
Zn	Zn	0.27204 0.36193 0.07992 1.22300
Zn	Zn	0.27071 0.27251 0.08683 1.22400
Zn	Zn	0.12515 0.48680 0.32713 1.23200
P 	P 	0.18913 0.48855 0.28047 0.50000
P 	P 	0.26562 0.45545 0.53019 0.48900
P 	P 	0.09992 0.52840 0.39865 0.46800
P 	P 	0.28855 0.39012 0.85327 0.50700
P 	P 	0.28734 0.37850 0.35873 0.44900
P 	P 	0.28416 0.31702 0.03867 0.54700
P 	P 	0.08400 0.47276 0.10947 0.42700
P 	P 	0.28778 0.24464 0.85780 0.55600
O 	O 	0.21153 0.47298 0.29800 -0.51600
O 	O 	0.16301 0.48039 0.33870 -0.44000
O 	O 	0.18494 0.49513 0.13590 -0.53000
O 	O 	0.28682 0.47187 0.54820 -0.51200
O 	O 	0.25660 0.45244 0.38430 -0.51600
O 	O 	0.27709 0.43632 0.58920 -0.43300
O 	O 	0.12079 0.51628 0.32200 -0.47100
O 	O 	0.07056 0.52504 0.34970 -0.46800
O 	O 	0.10104 0.52600 0.54590 -0.46900
O 	O 	0.28442 0.36874 0.89990 -0.45100
O 	O 	0.28512 0.39072 0.70550 -0.47100
O 	O 	0.27209 0.40544 0.92920 -0.45600
O 	O 	0.28157 0.39967 0.40550 -0.42800
O 	O 	0.28871 0.37889 0.20900 -0.45100
O 	O 	0.26793 0.36243 0.41800 -0.47500
O 	O 	0.26044 0.31713 0.94420 -0.50000
O 	O 	0.28506 0.33521 0.12430 -0.45700
O 	O 	0.28393 0.29906 0.12880 -0.45500
O 	O 	0.11280 0.47748 0.15500 -0.43500
O 	O 	0.08393 0.47150 0.96060 -0.40900
O 	O 	0.06227 0.48686 0.16620 -0.48300
O 	O 	0.26901 0.22819 0.91340 -0.48800
O 	O 	0.28859 0.24550 0.70870 -0.46600
O 	O 	0.28207 0.26552 0.90950 -0.46900
O 	O 	0.02455 0.52536 0.12640 -0.45200
F 	F 	0.25715 0.49484 0.37360 -0.84000
H 	H 	0.19880 0.50450 0.35750 -0.01700
H 	H 	0.24210 0.46070 0.60760 -0.01200
H 	H 	0.10400 0.54610 0.36990 -0.04400
H 	H 	0.31020 0.39340 0.87470 -0.06700
H 	H 	0.30090 0.31660 0.98690 -0.13400
H 	H 	0.31150 0.37300 0.39620 -0.03100
H 	H 	0.08000 0.45490 0.16050 -0.03400
H 	H 	0.30680 0.24230 0.88720 -0.11600
Zn	Zn	0.23168 0.59141 0.07725 1.22400
Zn	Zn	0.43877 0.48381 0.67063 1.23200
Zn	Zn	0.22796 0.63807 0.57992 1.23200
Zn	Zn	0.22929 0.72749 0.58683 1.23200
Zn	Zn	0.37485 0.51320 0.82713 1.23500
P 	P 	0.31087 0.51145 0.78047 0.50000
P 	P 	0.23438 0.54455 0.03019 0.45700
P 	P 	0.40008 0.47160 0.89865 0.50400
P 	P 	0.21145 0.60988 0.35327 0.51000
P 	P 	0.21266 0.62150 0.85873 0.44800
P 	P 	0.21584 0.68298 0.53867 0.65600
P 	P 	0.41600 0.52724 0.60947 0.46100
P 	P 	0.21222 0.75536 0.35780 0.56100
O 	O 	0.28847 0.52702 0.79800 -0.50400
O 	O 	0.33699 0.51961 0.83870 -0.42600
O 	O 	0.31506 0.50487 0.63590 -0.51400
O 	O 	0.21318 0.52813 0.04820 -0.52500
O 	O 	0.24340 0.54756 0.88430 -0.48400
O 	O 	0.22291 0.56368 0.08920 -0.44000
O 	O 	0.37921 0.48372 0.82200 -0.46500
O 	O 	0.42944 0.47496 0.84970 -0.46100
O 	O 	0.39896 0.47400 0.04590 -0.50600
O 	O 	0.21558 0.63126 0.39990 -0.47200
O 	O 	0.21488 0.60928 0.20550 -0.48400
O 	O 	0.22791 0.59456 0.42920 -0.47300
O 	O 	0.21843 0.60033 0.90550 -0.40600
O 	O 	0.21129 0.62111 0.70900 -0.43700
O 	O 	0.23207 0.63757 0.91800 -0.46000
O 	O 	0.23956 0.68287 0.44420 -0.54800
O 	O 	0.21494 0.66479 0.62430 -0.46100
O 	O 	0.21607 0.70094 0.62880 -0.45900
O 	O 	0.38720 0.52252 0.65500 -0.42700
O 	O 	0.41607 0.52850 0.46060 -0.44300
O 	O 	0.43773 0.51314 0.66620 -0.47400
O 	O 	0.23099 0.77181 0.41340 -0.50300
O 	O 	0.21141 0.75450 0.20870 -0.47900
O 	O 	0.21793 0.73448 0.40950 -0.48900
O 	O 	0.47545 0.47464 0.62640 -0.43800
F 	F 	0.24285 0.50516 0.87360 -0.82700
H 	H 	0.30120 0.49550 0.85750 -0.00700
H 	H 	0.25790 0.53930 0.10760 -0.01600
H 	H 	0.39600 0.45390 0.86990 -0.03900
H 	H 	0.18980 0.60660 0.37470 -0.07900
H 	H 	0.19910 0.68340 0.48690 -0.19700
H 	H 	0.18850 0.62700 0.89620 -0.02000
H 	H 	0.42000 0.54510 0.66050 -0.02600
H 	H 	0.19320 0.75770 0.38720 -0.12700
Zn	Zn	0.73168 0.09141 0.07725 1.22400
Zn	Zn	0.93877 0.98381 0.67063 1.23200
Zn	Zn	0.72796 0.13807 0.57992 1.23200
Zn	Zn	0.72929 0.22749 0.58683 1.23200
Zn	Zn	0.87485 0.01320 0.82713 1.23500
P 	P 	0.81087 0.01145 0.78047 0.50000
P 	P 	0.73438 0.04455 0.03019 0.45700
P 	P 	0.90008 0.97160 0.89865 0.50400
P 	P 	0.71145 0.10988 0.35327 0.51000
P 	P 	0.71266 0.12150 0.85873 0.44800
P 	P 	0.71584 0.18298 0.53867 0.65600
P 	P 	0.91600 0.02724 0.60947 0.46100
P 	P 	0.71222 0.25536 0.35780 0.56100
O 	O 	0.78847 0.02702 0.79800 -0.50400
O 	O 	0.83699 0.01961 0.83870 -0.42600
O 	O 	0.81506 0.00487 0.63590 -0.51400
O 	O 	0.71318 0.02813 0.04820 -0.52500
O 	O 	0.74340 0.04756 0.88430 -0.48400
O 	O 	0.72291 0.06368 0.08920 -0.44000
O 	O 	0.87921 0.98372 0.82200 -0.46500
O 	O 	0.92944 0.97496 0.84970 -0.46100
O 	O 	0.89896 0.97400 0.04590 -0.50600
O 	O 	0.71558 0.13126 0.39990 -0.47200
O 	O 	0.71488 0.10928 0.20550 -0.48400
O 	O 	0.72791 0.09456 0.42920 -0.47300
O 	O 	0.71843 0.10033 0.90550 -0.40600
O 	O 	0.71129 0.12111 0.70900 -0.43700
O 	O 	0.73207 0.13757 0.91800 -0.46000
O 	O 	0.73956 0.18287 0.44420 -0.54800
O 	O 	0.71494 0.16479 0.62430 -0.46100
O 	O 	0.71607 0.20094 0.62880 -0.45900
O 	O 	0.88720 0.02252 0.65500 -0.42700
O 	O 	0.91607 0.02850 0.46060 -0.44300
O 	O 	0.93773 0.01314 0.66620 -0.47400
O 	O 	0.73099 0.27181 0.41340 -0.50300
O 	O 	0.71141 0.25450 0.20870 -0.47900
O 	O 	0.71793 0.23448 0.40950 -0.48900
O 	O 	0.97545 0.97464 0.62640 -0.43700
F 	F 	0.74285 0.00516 0.87360 -0.82700
H 	H 	0.80120 0.99550 0.85750 -0.00700
H 	H 	0.75790 0.03930 0.10760 -0.01600
H 	H 	0.89600 0.95390 0.86990 -0.03900
H 	H 	0.68980 0.10660 0.37470 -0.07900
H 	H 	0.69910 0.18340 0.48690 -0.19700
H 	H 	0.68850 0.12700 0.89620 -0.02000
H 	H 	0.92000 0.04510 0.66050 -0.02600
H 	H 	0.69320 0.25770 0.38720 -0.12700
Zn	Zn	0.23168 0.40859 0.92275 1.24000
Zn	Zn	0.43877 0.51619 0.32937 1.23100
Zn	Zn	0.22796 0.36193 0.42008 1.23100
Zn	Zn	0.22929 0.27251 0.41317 1.23200
Zn	Zn	0.37485 0.48680 0.17287 1.23000
P 	P 	0.31087 0.48855 0.21953 0.49900
P 	P 	0.23438 0.45545 0.96981 0.52200
P 	P 	0.40008 0.52840 0.10135 0.43300
P 	P 	0.21145 0.39012 0.64673 0.50700
P 	P 	0.21266 0.37850 0.14127 0.44800
P 	P 	0.21584 0.31702 0.46133 0.65500
P 	P 	0.41600 0.47276 0.39053 0.46100
P 	P 	0.21222 0.24464 0.64220 0.55700
O 	O 	0.28847 0.47298 0.20200 -0.52000
O 	O 	0.33699 0.48039 0.16130 -0.44900
O 	O 	0.31506 0.49513 0.36410 -0.51600
O 	O 	0.21318 0.47187 0.95180 -0.49800
O 	O 	0.24340 0.45244 0.11570 -0.54500
O 	O 	0.22291 0.43632 0.91080 -0.42700
O 	O 	0.37921 0.51628 0.17800 -0.47000
O 	O 	0.42944 0.52504 0.15030 -0.47300
O 	O 	0.39896 0.52600 0.95410 -0.43400
O 	O 	0.21558 0.36874 0.60010 -0.46600
O 	O 	0.21488 0.39072 0.79450 -0.46200
O 	O 	0.22791 0.40544 0.57080 -0.47300
O 	O 	0.21843 0.39967 0.09450 -0.44500
O 	O 	0.21129 0.37889 0.29100 -0.44100
O 	O 	0.23207 0.36243 0.08200 -0.48900
O 	O 	0.23956 0.31713 0.55580 -0.54400
O 	O 	0.21494 0.33521 0.37570 -0.46400
O 	O 	0.21607 0.29906 0.37120 -0.46300
O 	O 	0.38720 0.47748 0.34500 -0.43100
O 	O 	0.41607 0.47150 0.53940 -0.44300
O 	O 	0.43773 0.48686 0.33380 -0.48200
O 	O 	0.23099 0.22819 0.58660 -0.50100
O 	O 	0.21141 0.24550 0.79130 -0.45700
O 	O 	0.21793 0.26552 0.59050 -0.48300
O 	O 	0.47545 0.52536 0.37360 -0.43900
F 	F 	0.24285 0.49484 0.12640 -0.85200
H 	H 	0.30120 0.50450 0.14250 -0.02600
H 	H 	0.25790 0.46070 0.89240 -0.00800
H 	H 	0.39600 0.54610 0.13010 -0.04400
H 	H 	0.18980 0.39340 0.62530 -0.07300
H 	H 	0.19910 0.31660 0.51310 -0.19300
H 	H 	0.18850 0.37300 0.10380 -0.03800
H 	H 	0.42000 0.45490 0.33950 -0.03500
H 	H 	0.19320 0.24230 0.61280 -0.12200
Zn	Zn	0.73168 0.90859 0.92275 1.24000
Zn	Zn	0.93877 0.01619 0.32937 1.23100
Zn	Zn	0.72796 0.86193 0.42008 1.23100
Zn	Zn	0.72929 0.77251 0.41317 1.23200
Zn	Zn	0.87485 0.98680 0.17287 1.23000
P 	P 	0.81087 0.98855 0.21953 0.49900
P 	P 	0.73438 0.95545 0.96981 0.52200
P 	P 	0.90008 0.02840 0.10135 0.43300
P 	P 	0.71145 0.89012 0.64673 0.50700
P 	P 	0.71266 0.87850 0.14127 0.44800
P 	P 	0.71584 0.81702 0.46133 0.65500
P 	P 	0.91600 0.97276 0.39053 0.46100
P 	P 	0.71222 0.74464 0.64220 0.55700
O 	O 	0.78847 0.97298 0.20200 -0.52000
O 	O 	0.83699 0.98039 0.16130 -0.44900
O 	O 	0.81506 0.99513 0.36410 -0.51600
O 	O 	0.71318 0.97187 0.95180 -0.49800
O 	O 	0.74340 0.95244 0.11570 -0.54500
O 	O 	0.72291 0.93632 0.91080 -0.42700
O 	O 	0.87921 0.01628 0.17800 -0.47000
O 	O 	0.92944 0.02504 0.15030 -0.47300
O 	O 	0.89896 0.02600 0.95410 -0.43400
O 	O 	0.71558 0.86874 0.60010 -0.46600
O 	O 	0.71488 0.89072 0.79450 -0.46200
O 	O 	0.72791 0.90544 0.57080 -0.47300
O 	O 	0.71843 0.89967 0.09450 -0.44500
O 	O 	0.71129 0.87889 0.29100 -0.44100
O 	O 	0.73207 0.86243 0.08200 -0.48900
O 	O 	0.73956 0.81713 0.55580 -0.54400
O 	O 	0.71494 0.83521 0.37570 -0.46400
O 	O 	0.71607 0.79906 0.37120 -0.46300
O 	O 	0.88720 0.97748 0.34500 -0.43100
O 	O 	0.91607 0.97150 0.53940 -0.44300
O 	O 	0.93773 0.98686 0.33380 -0.48200
O 	O 	0.73099 0.72819 0.58660 -0.50100
O 	O 	0.71141 0.74550 0.79130 -0.45700
O 	O 	0.71793 0.76552 0.59050 -0.48300
O 	O 	0.97545 0.02536 0.37360 -0.43900
F 	F 	0.74285 0.99484 0.12640 -0.85200
H 	H 	0.80120 0.00450 0.14250 -0.02600
H 	H 	0.75790 0.96070 0.89240 -0.00800
H 	H 	0.89600 0.04610 0.13010 -0.04400
H 	H 	0.68980 0.89340 0.62530 -0.07300
H 	H 	0.69910 0.81660 0.51310 -0.19300
H 	H 	0.68850 0.87300 0.10380 -0.03800
H 	H 	0.92000 0.95490 0.33950 -0.03500
H 	H 	0.69320 0.74230 0.61280 -0.12200
Zn	Zn	0.76832 0.09141 0.42275 1.23200
Zn	Zn	0.56123 0.98381 0.82937 1.23300
Zn	Zn	0.77204 0.13807 0.92008 1.24000
Zn	Zn	0.77071 0.22749 0.91317 1.24000
Zn	Zn	0.62515 0.01320 0.67287 1.23300
P 	P 	0.68913 0.01145 0.71953 0.49900
P 	P 	0.76562 0.04455 0.46981 0.48900
P 	P 	0.59992 0.97160 0.60135 0.46700
P 	P 	0.78855 0.10988 0.14673 0.51100
P 	P 	0.78734 0.12150 0.64127 0.44700
P 	P 	0.78416 0.18298 0.96133 0.75500
P 	P 	0.58400 0.02724 0.89053 0.49500
P 	P 	0.78778 0.25536 0.14220 0.56200
O 	O 	0.71153 0.02702 0.70200 -0.50800
O 	O 	0.66301 0.01961 0.66130 -0.43500
O 	O 	0.68494 0.00487 0.86410 -0.49700
O 	O 	0.78682 0.02813 0.45180 -0.51400
O 	O 	0.75660 0.04756 0.61570 -0.51300
O 	O 	0.77709 0.06368 0.41080 -0.43400
O 	O 	0.62079 0.98372 0.67800 -0.46500
O 	O 	0.57056 0.97496 0.65030 -0.46600
O 	O 	0.60104 0.97400 0.45410 -0.47000
O 	O 	0.78442 0.13126 0.10010 -0.48500
O 	O 	0.78512 0.10928 0.29450 -0.47400
O 	O 	0.77209 0.09456 0.07080 -0.48800
O 	O 	0.78157 0.10033 0.59450 -0.42200
O 	O 	0.78871 0.12111 0.79100 -0.42800
O 	O 	0.76793 0.13757 0.58200 -0.47400
O 	O 	0.76044 0.18287 0.05580 -0.58900
O 	O 	0.78506 0.16479 0.87570 -0.46700
O 	O 	0.78393 0.20094 0.87120 -0.46500
O 	O 	0.61280 0.02252 0.84500 -0.42300
O 	O 	0.58393 0.02850 0.03940 -0.47700
O 	O 	0.56227 0.01314 0.83380 -0.47400
O 	O 	0.76901 0.27181 0.08660 -0.51600
O 	O 	0.78859 0.25450 0.29130 -0.47000
O 	O 	0.78207 0.23448 0.09050 -0.50200
O 	O 	0.52455 0.97464 0.87360 -0.42600
F 	F 	0.75715 0.00516 0.62640 -0.84000
H 	H 	0.69880 0.99550 0.64250 -0.01600
H 	H 	0.74210 0.03930 0.39240 -0.01200
H 	H 	0.60400 0.95390 0.63010 -0.03900
H 	H 	0.81020 0.10660 0.12530 -0.08300
H 	H 	0.80090 0.18340 0.01310 -0.25100
H 	H 	0.81150 0.12700 0.60380 -0.02600
H 	H 	0.58000 0.04510 0.83950 -0.02700
H 	H 	0.80680 0.25770 0.11280 -0.13200
Zn	Zn	0.26832 0.59141 0.42275 1.23200
Zn	Zn	0.06123 0.48381 0.82937 1.23300
Zn	Zn	0.27204 0.63807 0.92008 1.24000
Zn	Zn	0.27071 0.72749 0.91317 1.24000
Zn	Zn	0.12515 0.51320 0.67287 1.23300
P 	P 	0.18913 0.51145 0.71953 0.49900
P 	P 	0.26562 0.54455 0.46981 0.48900
P 	P 	0.09992 0.47160 0.60135 0.46700
P 	P 	0.28855 0.60988 0.14673 0.51100
P 	P 	0.28734 0.62150 0.64127 0.44700
P 	P 	0.28416 0.68298 0.96133 0.75500
P 	P 	0.08400 0.52724 0.89053 0.49500
P 	P 	0.28778 0.75536 0.14220 0.56200
O 	O 	0.21153 0.52702 0.70200 -0.50800
O 	O 	0.16301 0.51961 0.66130 -0.43500
O 	O 	0.18494 0.50487 0.86410 -0.49700
O 	O 	0.28682 0.52813 0.45180 -0.51400
O 	O 	0.25660 0.54756 0.61570 -0.51300
O 	O 	0.27709 0.56368 0.41080 -0.43400
O 	O 	0.12079 0.48372 0.67800 -0.46500
O 	O 	0.07056 0.47496 0.65030 -0.46600
O 	O 	0.10104 0.47400 0.45410 -0.47000
O 	O 	0.28442 0.63126 0.10010 -0.48500
O 	O 	0.28512 0.60928 0.29450 -0.47400
O 	O 	0.27209 0.59456 0.07080 -0.48800
O 	O 	0.28157 0.60033 0.59450 -0.42200
O 	O 	0.28871 0.62111 0.79100 -0.42800
O 	O 	0.26793 0.63757 0.58200 -0.47400
O 	O 	0.26044 0.68287 0.05580 -0.58900
O 	O 	0.28506 0.66479 0.87570 -0.46700
O 	O 	0.28393 0.70094 0.87120 -0.46600
O 	O 	0.11280 0.52252 0.84500 -0.42300
O 	O 	0.08393 0.52850 0.03940 -0.47700
O 	O 	0.06227 0.51314 0.83380 -0.47400
O 	O 	0.26901 0.77181 0.08660 -0.51600
O 	O 	0.28859 0.75450 0.29130 -0.47000
O 	O 	0.28207 0.73448 0.09050 -0.50200
O 	O 	0.02455 0.47464 0.87360 -0.42600
F 	F 	0.25715 0.50516 0.62640 -0.84000
H 	H 	0.19880 0.49550 0.64250 -0.01600
H 	H 	0.24210 0.53930 0.39240 -0.01200
H 	H 	0.10400 0.45390 0.63010 -0.03900
H 	H 	0.31020 0.60660 0.12530 -0.08300
H 	H 	0.30090 0.68340 0.01310 -0.25100
H 	H 	0.31150 0.62700 0.60380 -0.02600
H 	H 	0.08000 0.54510 0.83950 -0.02700
H 	H 	0.30680 0.75770 0.11280 -0.13200
Ga	Ga	0.25000 0.02684 0.75000 2.10500
Ga	Ga	0.75000 0.47316 0.25000 2.10400
Ga	Ga	0.75000 0.52684 0.75000 2.10500
Ga	Ga	0.25000 0.97316 0.25000 2.10400
Ga	Ga	0.75000 0.97316 0.25000 2.10400
Ga	Ga	0.25000 0.52684 0.75000 2.10500
Ga	Ga	0.25000 0.47316 0.25000 2.10400
Ga	Ga	0.75000 0.02684 0.75000 2.10500
Ga	Ga	0.21326 0.00000 0.50000 2.10200
Ga	Ga	0.71326 0.50000 0.50000 2.10200
Ga	Ga	0.78674 0.50000 -0.00000 2.09400
Ga	Ga	0.28674 0.00000 -0.00000 2.09400
Ga	Ga	0.78674 0.00000 0.50000 2.10200
Ga	Ga	0.28674 0.50000 0.50000 2.10200
Ga	Ga	0.21326 0.50000 -0.00000 2.09400
Ga	Ga	0.71326 0.00000 -0.00000 2.09400
Zn	Zn	0.50000 0.00000 0.50000 1.15200
Zn	Zn	0.00000 0.50000 0.50000 1.15200
Zn	Zn	0.50000 0.50000 -0.00000 1.13800
Zn	Zn	-0.00000 0.00000 -0.00000 1.13800
Zn	Zn	0.25000 0.18263 0.25000 1.15200
Zn	Zn	0.75000 0.31737 0.75000 1.15500
Zn	Zn	0.75000 0.68263 0.25000 1.15200
Zn	Zn	0.25000 0.81737 0.75000 1.15500
Zn	Zn	0.75000 0.81737 0.75000 1.15500
Zn	Zn	0.25000 0.68263 0.25000 1.15200
Zn	Zn	0.25000 0.31737 0.75000 1.15500
Zn	Zn	0.75000 0.18263 0.25000 1.15200
P 	P 	0.50000 0.97474 0.78539 0.50100
O 	O 	0.50000 0.99201 0.69060 -0.53100
H 	H 	0.50000 0.95810 0.72670 -0.07800
P 	P 	-0.00000 0.47474 0.78539 0.50100
O 	O 	0.00000 0.49201 0.69060 -0.53100
H 	H 	0.00000 0.45810 0.72670 -0.07800
P 	P 	0.50000 0.52526 0.28539 0.50200
O 	O 	0.50000 0.50799 0.19060 -0.54300
H 	H 	0.50000 0.54190 0.22670 -0.08500
P 	P 	-0.00000 0.02526 0.28539 0.50100
O 	O 	-0.00000 0.00799 0.19060 -0.54300
H 	H 	0.00000 0.04190 0.22670 -0.08600
P 	P 	0.50000 0.47474 0.71461 0.50100
O 	O 	0.50000 0.49201 0.80940 -0.51900
H 	H 	0.50000 0.45810 0.77330 -0.07400
P 	P 	0.00000 0.97474 0.71461 0.50100
O 	O 	0.00000 0.99201 0.80940 -0.51900
H 	H 	0.00000 0.95810 0.77330 -0.07400
P 	P 	0.50000 0.02526 0.21461 0.50300
O 	O 	0.50000 0.00799 0.30940 -0.53700
H 	H 	0.50000 0.04190 0.27330 -0.08300
P 	P 	-0.00000 0.52526 0.21461 0.50300
O 	O 	0.00000 0.50799 0.30940 -0.53700
H 	H 	-0.00000 0.54190 0.27330 -0.08300
