data_crystal

_cell_length_a 66.31300
_cell_length_b 66.31300
_cell_length_c 9.98200
_cell_angle_alpha 90.00000
_cell_angle_beta  90.00000
_cell_angle_gamma 90.00000

_symmetry_space_group_name_	'P 1'
_symmetry_space_group_name_H-M	'P 1'

loop_
_symmetry_equiv_pos_as_xyz
  x,y,z

loop_
_atom_site_label
_atom_site_type_symbol
_atom_site_fract_x
_atom_site_fract_y
_atom_site_fract_z
_atom_site_charge
Zn	Zn	0.15851 0.01317 0.92352 1.24400
Zn	Zn	0.11199 0.98368 0.07870 1.23100
Zn	Zn	0.02239 0.98485 0.08630 1.23300
P 	P 	0.14009 0.97159 0.85150 0.44200
P 	P 	0.12857 0.02737 0.14350 0.41500
P 	P 	0.20540 0.01156 0.97140 0.53100
P 	P 	0.06687 0.97547 0.03470 0.48800
P 	P 	0.00546 0.02771 0.14610 0.44500
O 	O 	0.15554 0.98374 0.92590 -0.45100
O 	O 	0.11838 0.97487 0.90190 -0.44900
O 	O 	0.14047 0.97418 0.70440 -0.46300
O 	O 	0.14983 0.02181 0.09260 -0.44900
O 	O 	0.11240 0.01256 0.08080 -0.48000
O 	O 	0.12814 0.02820 0.29440 -0.45500
O 	O 	0.22197 0.02723 0.95660 -0.49900
O 	O 	0.20245 0.00492 0.11790 -0.54900
O 	O 	0.18615 0.01942 0.91410 -0.43400
O 	O 	0.06711 0.99225 0.93770 -0.50900
O 	O 	0.04952 0.97520 0.11810 -0.46700
O 	O 	0.08490 0.97467 0.11520 -0.46400
O 	O 	0.02191 0.01400 0.08650 -0.48900
O 	O 	0.98403 0.02270 0.08640 -0.49700
O 	O 	0.00555 0.02750 0.29280 -0.48700
H 	H 	0.14630 0.95120 0.86940 -0.00600
H 	H 	0.12390 0.04760 0.09340 -0.02000
H 	H 	0.21070 0.99720 0.87070 -0.01100
H 	H 	0.06620 0.95940 0.93830 -0.04100
H 	H 	0.01010 0.04200 0.06180 -0.04600
Zn	Zn	0.65851 0.51317 0.42352 1.23600
Zn	Zn	0.61199 0.48368 0.57870 1.24000
Zn	Zn	0.52239 0.48485 0.58630 1.24100
P 	P 	0.64009 0.47159 0.35150 0.44200
P 	P 	0.62857 0.52737 0.64350 0.41600
P 	P 	0.70540 0.51156 0.47140 0.49700
P 	P 	0.56687 0.47547 0.53470 0.54500
P 	P 	0.50546 0.52771 0.64610 0.44500
O 	O 	0.65554 0.48374 0.42590 -0.46600
O 	O 	0.61838 0.47487 0.40190 -0.47000
O 	O 	0.64047 0.47418 0.20440 -0.47600
O 	O 	0.64983 0.52181 0.59260 -0.42700
O 	O 	0.61240 0.51256 0.58080 -0.46500
O 	O 	0.62814 0.52820 0.79440 -0.44300
O 	O 	0.72197 0.52723 0.45660 -0.51600
O 	O 	0.70245 0.50492 0.61790 -0.51600
O 	O 	0.68615 0.51942 0.41410 -0.44200
O 	O 	0.56711 0.49225 0.43770 -0.54900
O 	O 	0.54952 0.47520 0.61810 -0.46400
O 	O 	0.58490 0.47467 0.61520 -0.46000
O 	O 	0.52191 0.51400 0.58650 -0.47500
O 	O 	0.48403 0.52270 0.58640 -0.47700
O 	O 	0.50555 0.52750 0.79280 -0.47400
H 	H 	0.64630 0.45120 0.36940 -0.01700
H 	H 	0.62390 0.54760 0.59340 -0.00800
H 	H 	0.71070 0.49720 0.37070 -0.01300
H 	H 	0.56620 0.45940 0.43830 -0.06900
H 	H 	0.51010 0.54200 0.56180 -0.03500
Zn	Zn	0.34149 0.98683 0.42352 1.23600
Zn	Zn	0.38801 0.01632 0.57870 1.24000
Zn	Zn	0.47761 0.01515 0.58630 1.24100
P 	P 	0.35991 0.02841 0.35150 0.44200
P 	P 	0.37143 0.97263 0.64350 0.41600
P 	P 	0.29460 0.98844 0.47140 0.49700
P 	P 	0.43313 0.02453 0.53470 0.54500
P 	P 	0.49454 0.97229 0.64610 0.44500
O 	O 	0.34446 0.01626 0.42590 -0.46600
O 	O 	0.38162 0.02513 0.40190 -0.47000
O 	O 	0.35953 0.02582 0.20440 -0.47600
O 	O 	0.35017 0.97819 0.59260 -0.42700
O 	O 	0.38760 0.98744 0.58080 -0.46500
O 	O 	0.37186 0.97180 0.79440 -0.44300
O 	O 	0.27803 0.97277 0.45660 -0.51600
O 	O 	0.29755 0.99508 0.61790 -0.51600
O 	O 	0.31385 0.98058 0.41410 -0.44200
O 	O 	0.43289 0.00775 0.43770 -0.54900
O 	O 	0.45048 0.02480 0.61810 -0.46400
O 	O 	0.41510 0.02533 0.61520 -0.46000
O 	O 	0.47809 0.98600 0.58650 -0.47500
O 	O 	0.51597 0.97730 0.58640 -0.47700
O 	O 	0.49445 0.97250 0.79280 -0.47400
H 	H 	0.35370 0.04880 0.36940 -0.01700
H 	H 	0.37610 0.95240 0.59340 -0.00800
H 	H 	0.28930 0.00280 0.37070 -0.01300
H 	H 	0.43380 0.04060 0.43830 -0.06900
H 	H 	0.48990 0.95800 0.56180 -0.03500
Zn	Zn	0.84149 0.48683 0.92352 1.24400
Zn	Zn	0.88801 0.51632 0.07870 1.23100
Zn	Zn	0.97761 0.51515 0.08630 1.23300
P 	P 	0.85991 0.52841 0.85150 0.44200
P 	P 	0.87143 0.47263 0.14350 0.41500
P 	P 	0.79460 0.48844 0.97140 0.53100
P 	P 	0.93313 0.52453 0.03470 0.48800
P 	P 	0.99454 0.47229 0.14610 0.44500
O 	O 	0.84446 0.51626 0.92590 -0.45100
O 	O 	0.88162 0.52513 0.90190 -0.44900
O 	O 	0.85953 0.52582 0.70440 -0.46300
O 	O 	0.85017 0.47819 0.09260 -0.44900
O 	O 	0.88760 0.48744 0.08080 -0.48000
O 	O 	0.87186 0.47180 0.29440 -0.45500
O 	O 	0.77803 0.47277 0.95660 -0.49900
O 	O 	0.79755 0.49508 0.11790 -0.54800
O 	O 	0.81385 0.48058 0.91410 -0.43400
O 	O 	0.93289 0.50775 0.93770 -0.50900
O 	O 	0.95048 0.52480 0.11810 -0.46700
O 	O 	0.91510 0.52533 0.11520 -0.46400
O 	O 	0.97809 0.48600 0.08650 -0.48900
O 	O 	0.01597 0.47730 0.08640 -0.49700
O 	O 	0.99445 0.47250 0.29280 -0.48700
H 	H 	0.85370 0.54880 0.86940 -0.00600
H 	H 	0.87610 0.45240 0.09340 -0.02000
H 	H 	0.78930 0.50280 0.87070 -0.01100
H 	H 	0.93380 0.54060 0.93830 -0.04100
H 	H 	0.98990 0.45800 0.06180 -0.04600
Zn	Zn	0.23683 0.90851 0.17352 1.23400
Zn	Zn	0.26632 0.86199 0.32870 1.23900
Zn	Zn	0.26515 0.77239 0.33630 1.24100
P 	P 	0.27841 0.89009 0.10150 0.40800
P 	P 	0.22263 0.87857 0.39350 0.41600
P 	P 	0.23844 0.95540 0.22140 0.49600
P 	P 	0.27453 0.81687 0.28470 0.54500
P 	P 	0.22229 0.75546 0.39610 0.44500
O 	O 	0.26626 0.90554 0.17590 -0.46900
O 	O 	0.27513 0.86838 0.15190 -0.47200
O 	O 	0.27582 0.89047 0.95440 -0.42800
O 	O 	0.22819 0.89983 0.34260 -0.43100
O 	O 	0.23744 0.86240 0.33080 -0.46800
O 	O 	0.22180 0.87814 0.54440 -0.45400
O 	O 	0.22277 0.97197 0.20660 -0.52300
O 	O 	0.24508 0.95245 0.36790 -0.51900
O 	O 	0.23058 0.93615 0.16410 -0.45300
O 	O 	0.25775 0.81711 0.18770 -0.55500
O 	O 	0.27480 0.79952 0.36810 -0.46700
O 	O 	0.27533 0.83490 0.36520 -0.46300
O 	O 	0.23600 0.77191 0.33650 -0.47900
O 	O 	0.22730 0.73403 0.33640 -0.48000
O 	O 	0.22250 0.75555 0.54280 -0.48500
H 	H 	0.29880 0.89630 0.11940 -0.02000
H 	H 	0.20240 0.87390 0.34340 -0.01500
H 	H 	0.25280 0.96070 0.12070 -0.02400
H 	H 	0.29060 0.81620 0.18830 -0.07300
H 	H 	0.20800 0.76010 0.31180 -0.04000
Zn	Zn	0.73683 0.40851 0.67352 1.23700
Zn	Zn	0.76632 0.36199 0.82870 1.24100
Zn	Zn	0.76515 0.27239 0.83630 1.24300
P 	P 	0.77841 0.39009 0.60150 0.44100
P 	P 	0.72263 0.37857 0.89350 0.45000
P 	P 	0.73844 0.45540 0.72140 0.49600
P 	P 	0.77453 0.31687 0.78470 0.54400
P 	P 	0.72229 0.25546 0.89610 0.48200
O 	O 	0.76626 0.40554 0.67590 -0.46300
O 	O 	0.77513 0.36838 0.65190 -0.46600
O 	O 	0.77582 0.39047 0.45440 -0.46500
O 	O 	0.72819 0.39983 0.84260 -0.42300
O 	O 	0.73744 0.36240 0.83080 -0.46000
O 	O 	0.72180 0.37814 0.04440 -0.48700
O 	O 	0.72277 0.47197 0.70660 -0.51100
O 	O 	0.74508 0.45245 0.86790 -0.50000
O 	O 	0.73058 0.43615 0.66410 -0.43800
O 	O 	0.75775 0.31711 0.68770 -0.54400
O 	O 	0.77480 0.29952 0.86810 -0.45300
O 	O 	0.77533 0.33490 0.86520 -0.45000
O 	O 	0.73600 0.27191 0.83650 -0.47100
O 	O 	0.72730 0.23403 0.83640 -0.47300
O 	O 	0.72250 0.25555 0.04280 -0.52000
H 	H 	0.79880 0.39630 0.61940 -0.01100
H 	H 	0.70240 0.37390 0.84340 -0.00500
H 	H 	0.75280 0.46070 0.62070 -0.01200
H 	H 	0.79060 0.31620 0.68830 -0.06400
H 	H 	0.70800 0.26010 0.81180 -0.03600
Zn	Zn	0.26317 0.09149 0.67352 1.23700
Zn	Zn	0.23368 0.13801 0.82870 1.24100
Zn	Zn	0.23485 0.22761 0.83630 1.24300
P 	P 	0.22159 0.10991 0.60150 0.44100
P 	P 	0.27737 0.12143 0.89350 0.45000
P 	P 	0.26156 0.04460 0.72140 0.49600
P 	P 	0.22547 0.18313 0.78470 0.54400
P 	P 	0.27771 0.24454 0.89610 0.48200
O 	O 	0.23374 0.09446 0.67590 -0.46300
O 	O 	0.22487 0.13162 0.65190 -0.46600
O 	O 	0.22418 0.10953 0.45440 -0.46500
O 	O 	0.27181 0.10017 0.84260 -0.42300
O 	O 	0.26256 0.13760 0.83080 -0.46000
O 	O 	0.27820 0.12186 0.04440 -0.48700
O 	O 	0.27723 0.02803 0.70660 -0.51100
O 	O 	0.25492 0.04755 0.86790 -0.50000
O 	O 	0.26942 0.06385 0.66410 -0.43800
O 	O 	0.24225 0.18289 0.68770 -0.54400
O 	O 	0.22520 0.20048 0.86810 -0.45300
O 	O 	0.22467 0.16510 0.86520 -0.45000
O 	O 	0.26400 0.22809 0.83650 -0.47100
O 	O 	0.27270 0.26597 0.83640 -0.47300
O 	O 	0.27750 0.24445 0.04280 -0.52000
H 	H 	0.20120 0.10370 0.61940 -0.01100
H 	H 	0.29760 0.12610 0.84340 -0.00500
H 	H 	0.24720 0.03930 0.62070 -0.01200
H 	H 	0.20940 0.18380 0.68830 -0.06400
H 	H 	0.29200 0.23990 0.81180 -0.03600
Zn	Zn	0.76317 0.59149 0.17352 1.23400
Zn	Zn	0.73368 0.63801 0.32870 1.23900
Zn	Zn	0.73485 0.72761 0.33630 1.24100
P 	P 	0.72159 0.60991 0.10150 0.40800
P 	P 	0.77737 0.62143 0.39350 0.41600
P 	P 	0.76156 0.54460 0.22140 0.49600
P 	P 	0.72547 0.68313 0.28470 0.54500
P 	P 	0.77771 0.74454 0.39610 0.44500
O 	O 	0.73374 0.59446 0.17590 -0.46900
O 	O 	0.72487 0.63162 0.15190 -0.47200
O 	O 	0.72418 0.60953 0.95440 -0.42800
O 	O 	0.77181 0.60017 0.34260 -0.43100
O 	O 	0.76256 0.63760 0.33080 -0.46800
O 	O 	0.77820 0.62186 0.54440 -0.45400
O 	O 	0.77723 0.52803 0.20660 -0.52300
O 	O 	0.75492 0.54755 0.36790 -0.51900
O 	O 	0.76942 0.56385 0.16410 -0.45300
O 	O 	0.74225 0.68289 0.18770 -0.55500
O 	O 	0.72520 0.70048 0.36810 -0.46700
O 	O 	0.72467 0.66510 0.36520 -0.46300
O 	O 	0.76400 0.72809 0.33650 -0.47900
O 	O 	0.77270 0.76597 0.33640 -0.48000
O 	O 	0.77750 0.74445 0.54280 -0.48500
H 	H 	0.70120 0.60370 0.11940 -0.02000
H 	H 	0.79760 0.62610 0.34340 -0.01500
H 	H 	0.74720 0.53930 0.12070 -0.02400
H 	H 	0.70940 0.68380 0.18830 -0.07300
H 	H 	0.79200 0.73990 0.31180 -0.04000
Zn	Zn	0.34149 0.01317 0.07648 1.22800
Zn	Zn	0.38801 0.98368 0.92130 1.24800
Zn	Zn	0.47761 0.98485 0.91370 1.24900
P 	P 	0.35991 0.97159 0.14850 0.44000
P 	P 	0.37143 0.02737 0.85650 0.41800
P 	P 	0.29460 0.01156 0.02860 0.46300
P 	P 	0.43313 0.97547 0.96530 0.59900
P 	P 	0.49454 0.02771 0.85390 0.44400
O 	O 	0.34446 0.98374 0.07410 -0.48100
O 	O 	0.38162 0.97487 0.09810 -0.48400
O 	O 	0.35953 0.97418 0.29560 -0.46600
O 	O 	0.35017 0.02181 0.90740 -0.41000
O 	O 	0.38760 0.01256 0.91920 -0.45100
O 	O 	0.37186 0.02820 0.70560 -0.45200
O 	O 	0.27803 0.02723 0.04340 -0.52800
O 	O 	0.29755 0.00492 0.88210 -0.48700
O 	O 	0.31385 0.01942 0.08590 -0.44800
O 	O 	0.43289 0.99225 0.06230 -0.58400
O 	O 	0.45048 0.97520 0.88190 -0.46400
O 	O 	0.41510 0.97467 0.88480 -0.46000
O 	O 	0.47809 0.01400 0.91350 -0.46200
O 	O 	0.51597 0.02270 0.91360 -0.46100
O 	O 	0.49445 0.02750 0.70720 -0.48300
H 	H 	0.35370 0.95120 0.13060 -0.02100
H 	H 	0.37610 0.04760 0.90660 -0.00100
H 	H 	0.28930 0.99720 0.12930 -0.01400
H 	H 	0.43380 0.95940 0.06170 -0.09000
H 	H 	0.48990 0.04200 0.93820 -0.02600
Zn	Zn	0.84149 0.51317 0.57648 1.23600
Zn	Zn	0.88801 0.48368 0.42130 1.23900
Zn	Zn	0.97761 0.48485 0.41370 1.24100
P 	P 	0.85991 0.47159 0.64850 0.44100
P 	P 	0.87143 0.52737 0.35650 0.41700
P 	P 	0.79460 0.51156 0.52860 0.49700
P 	P 	0.93313 0.47547 0.46530 0.54500
P 	P 	0.99454 0.52771 0.35390 0.44400
O 	O 	0.84446 0.48374 0.57410 -0.46600
O 	O 	0.88162 0.47487 0.59810 -0.46400
O 	O 	0.85953 0.47418 0.79560 -0.45300
O 	O 	0.85017 0.52181 0.40740 -0.43200
O 	O 	0.88760 0.51256 0.41920 -0.46500
O 	O 	0.87186 0.52820 0.20560 -0.46500
O 	O 	0.77803 0.52723 0.54340 -0.51400
O 	O 	0.79755 0.50492 0.38210 -0.51900
O 	O 	0.81385 0.51942 0.58590 -0.44000
O 	O 	0.93289 0.49225 0.56230 -0.54500
O 	O 	0.95048 0.47520 0.38190 -0.46800
O 	O 	0.91510 0.47467 0.38480 -0.46400
O 	O 	0.97809 0.51400 0.41350 -0.47600
O 	O 	0.01597 0.52270 0.41360 -0.48200
O 	O 	0.99445 0.52750 0.20720 -0.49700
H 	H 	0.85370 0.45120 0.63060 -0.01100
H 	H 	0.87610 0.54760 0.40660 -0.01300
H 	H 	0.78930 0.49720 0.62930 -0.01200
H 	H 	0.93380 0.45940 0.56170 -0.06300
H 	H 	0.98990 0.54200 0.43820 -0.03800
Zn	Zn	0.15851 0.98683 0.57648 1.23600
Zn	Zn	0.11199 0.01632 0.42130 1.23900
Zn	Zn	0.02239 0.01515 0.41370 1.24100
P 	P 	0.14009 0.02841 0.64850 0.44100
P 	P 	0.12857 0.97263 0.35650 0.41700
P 	P 	0.20540 0.98844 0.52860 0.49700
P 	P 	0.06687 0.02453 0.46530 0.54500
P 	P 	0.00546 0.97229 0.35390 0.44400
O 	O 	0.15554 0.01626 0.57410 -0.46600
O 	O 	0.11838 0.02513 0.59810 -0.46400
O 	O 	0.14047 0.02582 0.79560 -0.45300
O 	O 	0.14983 0.97819 0.40740 -0.43200
O 	O 	0.11240 0.98744 0.41920 -0.46500
O 	O 	0.12814 0.97180 0.20560 -0.46500
O 	O 	0.22197 0.97277 0.54340 -0.51400
O 	O 	0.20245 0.99508 0.38210 -0.51900
O 	O 	0.18615 0.98058 0.58590 -0.44000
O 	O 	0.06711 0.00775 0.56230 -0.54500
O 	O 	0.04952 0.02480 0.38190 -0.46800
O 	O 	0.08490 0.02533 0.38480 -0.46400
O 	O 	0.02191 0.98600 0.41350 -0.47600
O 	O 	0.98403 0.97730 0.41360 -0.48200
O 	O 	0.00555 0.97250 0.20720 -0.49700
H 	H 	0.14630 0.04880 0.63060 -0.01100
H 	H 	0.12390 0.95240 0.40660 -0.01300
H 	H 	0.21070 0.00280 0.62930 -0.01200
H 	H 	0.06620 0.04060 0.56170 -0.06300
H 	H 	0.01010 0.95800 0.43820 -0.03800
Zn	Zn	0.65851 0.48683 0.07648 1.22800
Zn	Zn	0.61199 0.51632 0.92130 1.24800
Zn	Zn	0.52239 0.51515 0.91370 1.24900
P 	P 	0.64009 0.52841 0.14850 0.44000
P 	P 	0.62857 0.47263 0.85650 0.41800
P 	P 	0.70540 0.48844 0.02860 0.46300
P 	P 	0.56687 0.52453 0.96530 0.59900
P 	P 	0.50546 0.47229 0.85390 0.44400
O 	O 	0.65554 0.51626 0.07410 -0.48100
O 	O 	0.61838 0.52513 0.09810 -0.48400
O 	O 	0.64047 0.52582 0.29560 -0.46600
O 	O 	0.64983 0.47819 0.90740 -0.41000
O 	O 	0.61240 0.48744 0.91920 -0.45100
O 	O 	0.62814 0.47180 0.70560 -0.45200
O 	O 	0.72197 0.47277 0.04340 -0.52800
O 	O 	0.70245 0.49508 0.88210 -0.48700
O 	O 	0.68615 0.48058 0.08590 -0.44800
O 	O 	0.56711 0.50775 0.06230 -0.58400
O 	O 	0.54952 0.52480 0.88190 -0.46500
O 	O 	0.58490 0.52533 0.88480 -0.46000
O 	O 	0.52191 0.48600 0.91350 -0.46200
O 	O 	0.48403 0.47730 0.91360 -0.46100
O 	O 	0.50555 0.47250 0.70720 -0.48300
H 	H 	0.64630 0.54880 0.13060 -0.02100
H 	H 	0.62390 0.45240 0.90660 -0.00100
H 	H 	0.71070 0.50280 0.12930 -0.01400
H 	H 	0.56620 0.54060 0.06170 -0.09000
H 	H 	0.51010 0.45800 0.93820 -0.02600
Zn	Zn	0.26317 0.90851 0.82648 1.23900
Zn	Zn	0.23368 0.86199 0.67130 1.24000
Zn	Zn	0.23485 0.77239 0.66370 1.24100
P 	P 	0.22159 0.89009 0.89850 0.47500
P 	P 	0.27737 0.87857 0.60650 0.41700
P 	P 	0.26156 0.95540 0.77860 0.49700
P 	P 	0.22547 0.81687 0.71530 0.54400
P 	P 	0.27771 0.75546 0.60390 0.44400
O 	O 	0.23374 0.90554 0.82410 -0.46400
O 	O 	0.22487 0.86838 0.84810 -0.46000
O 	O 	0.22418 0.89047 0.04560 -0.50100
O 	O 	0.27181 0.89983 0.65740 -0.42800
O 	O 	0.26256 0.86240 0.66920 -0.46100
O 	O 	0.27820 0.87814 0.45560 -0.45400
O 	O 	0.27723 0.97197 0.79340 -0.50700
O 	O 	0.25492 0.95245 0.63210 -0.51700
O 	O 	0.26942 0.93615 0.83590 -0.43000
O 	O 	0.24225 0.81711 0.81230 -0.53200
O 	O 	0.22520 0.79952 0.63190 -0.46500
O 	O 	0.22467 0.83490 0.63480 -0.46100
O 	O 	0.26400 0.77191 0.66350 -0.47200
O 	O 	0.27270 0.73403 0.66360 -0.47800
O 	O 	0.27750 0.75555 0.45720 -0.48500
H 	H 	0.20120 0.89630 0.88060 -0.00700
H 	H 	0.29760 0.87390 0.65660 -0.00600
H 	H 	0.24720 0.96070 0.87930 -0.00100
H 	H 	0.20940 0.81620 0.81170 -0.05800
H 	H 	0.29200 0.76010 0.68820 -0.03200
Zn	Zn	0.76317 0.40851 0.32648 1.23600
Zn	Zn	0.73368 0.36199 0.17130 1.23800
Zn	Zn	0.73485 0.27239 0.16370 1.23900
P 	P 	0.72159 0.39009 0.39850 0.44100
P 	P 	0.77737 0.37857 0.10650 0.38300
P 	P 	0.76156 0.45540 0.27860 0.49700
P 	P 	0.72547 0.31687 0.21530 0.54500
P 	P 	0.77771 0.25546 0.10390 0.40700
O 	O 	0.73374 0.40554 0.32410 -0.46900
O 	O 	0.72487 0.36838 0.34810 -0.46800
O 	O 	0.72418 0.39047 0.54560 -0.46400
O 	O 	0.77181 0.39983 0.15740 -0.43600
O 	O 	0.76256 0.36240 0.16920 -0.47000
O 	O 	0.77820 0.37814 0.95560 -0.42000
O 	O 	0.77723 0.47197 0.29340 -0.51900
O 	O 	0.75492 0.45245 0.13210 -0.53300
O 	O 	0.76942 0.43615 0.33590 -0.44400
O 	O 	0.74225 0.31711 0.31230 -0.55000
O 	O 	0.72520 0.29952 0.13190 -0.47800
O 	O 	0.72467 0.33490 0.13480 -0.47400
O 	O 	0.76400 0.27191 0.16350 -0.48000
O 	O 	0.77270 0.23403 0.16360 -0.48400
O 	O 	0.77750 0.25555 0.95720 -0.45100
H 	H 	0.70120 0.39630 0.38060 -0.01600
H 	H 	0.79760 0.37390 0.15660 -0.01600
H 	H 	0.74720 0.46070 0.37930 -0.01300
H 	H 	0.70940 0.31620 0.31170 -0.06800
H 	H 	0.79200 0.26010 0.18820 -0.03700
Zn	Zn	0.23683 0.09149 0.32648 1.23600
Zn	Zn	0.26632 0.13801 0.17130 1.23800
Zn	Zn	0.26515 0.22761 0.16370 1.23900
P 	P 	0.27841 0.10991 0.39850 0.44100
P 	P 	0.22263 0.12143 0.10650 0.38300
P 	P 	0.23844 0.04460 0.27860 0.49700
P 	P 	0.27453 0.18313 0.21530 0.54500
P 	P 	0.22229 0.24454 0.10390 0.40700
O 	O 	0.26626 0.09446 0.32410 -0.46900
O 	O 	0.27513 0.13162 0.34810 -0.46800
O 	O 	0.27582 0.10953 0.54560 -0.46400
O 	O 	0.22819 0.10017 0.15740 -0.43600
O 	O 	0.23744 0.13760 0.16920 -0.47000
O 	O 	0.22180 0.12186 0.95560 -0.42000
O 	O 	0.22277 0.02803 0.29340 -0.51900
O 	O 	0.24508 0.04755 0.13210 -0.53300
O 	O 	0.23058 0.06385 0.33590 -0.44400
O 	O 	0.25775 0.18289 0.31230 -0.55000
O 	O 	0.27480 0.20048 0.13190 -0.47800
O 	O 	0.27533 0.16510 0.13480 -0.47400
O 	O 	0.23600 0.22809 0.16350 -0.48000
O 	O 	0.22730 0.26597 0.16360 -0.48400
O 	O 	0.22250 0.24445 0.95720 -0.45100
H 	H 	0.29880 0.10370 0.38060 -0.01600
H 	H 	0.20240 0.12610 0.15660 -0.01600
H 	H 	0.25280 0.03930 0.37930 -0.01300
H 	H 	0.29060 0.18380 0.31170 -0.06800
H 	H 	0.20800 0.23990 0.18820 -0.03700
Zn	Zn	0.73683 0.59149 0.82648 1.23900
Zn	Zn	0.76632 0.63801 0.67130 1.24000
Zn	Zn	0.76515 0.72761 0.66370 1.24100
P 	P 	0.77841 0.60991 0.89850 0.47500
P 	P 	0.72263 0.62143 0.60650 0.41700
P 	P 	0.73844 0.54460 0.77860 0.49700
P 	P 	0.77453 0.68313 0.71530 0.54400
P 	P 	0.72229 0.74454 0.60390 0.44400
O 	O 	0.76626 0.59446 0.82410 -0.46400
O 	O 	0.77513 0.63162 0.84810 -0.46000
O 	O 	0.77582 0.60953 0.04560 -0.50100
O 	O 	0.72819 0.60017 0.65740 -0.42800
O 	O 	0.73744 0.63760 0.66920 -0.46100
O 	O 	0.72180 0.62186 0.45560 -0.45400
O 	O 	0.72277 0.52803 0.79340 -0.50700
O 	O 	0.74508 0.54755 0.63210 -0.51700
O 	O 	0.73058 0.56385 0.83590 -0.43000
O 	O 	0.75775 0.68289 0.81230 -0.53200
O 	O 	0.77480 0.70048 0.63190 -0.46500
O 	O 	0.77533 0.66510 0.63480 -0.46100
O 	O 	0.73600 0.72809 0.66350 -0.47200
O 	O 	0.72730 0.76597 0.66360 -0.47800
O 	O 	0.72250 0.74445 0.45720 -0.48500
H 	H 	0.79880 0.60370 0.88060 -0.00700
H 	H 	0.70240 0.62610 0.65660 -0.00600
H 	H 	0.75280 0.53930 0.87930 -0.00100
H 	H 	0.79060 0.68380 0.81170 -0.05800
H 	H 	0.70800 0.73990 0.68820 -0.03200
Zn	Zn	0.84149 0.98683 0.07648 1.22800
Zn	Zn	0.88801 0.01632 0.92130 1.24800
Zn	Zn	0.97761 0.01515 0.91370 1.24900
P 	P 	0.85991 0.02841 0.14850 0.44000
P 	P 	0.87143 0.97263 0.85650 0.41800
P 	P 	0.79460 0.98844 0.02860 0.46300
P 	P 	0.93313 0.02453 0.96530 0.59900
P 	P 	0.99454 0.97229 0.85390 0.44400
O 	O 	0.84446 0.01626 0.07410 -0.48100
O 	O 	0.88162 0.02513 0.09810 -0.48400
O 	O 	0.85953 0.02582 0.29560 -0.46600
O 	O 	0.85017 0.97819 0.90740 -0.41000
O 	O 	0.88760 0.98744 0.91920 -0.45100
O 	O 	0.87186 0.97180 0.70560 -0.45200
O 	O 	0.77803 0.97277 0.04340 -0.52800
O 	O 	0.79755 0.99508 0.88210 -0.48700
O 	O 	0.81385 0.98058 0.08590 -0.44800
O 	O 	0.93289 0.00775 0.06230 -0.58400
O 	O 	0.95048 0.02480 0.88190 -0.46500
O 	O 	0.91510 0.02533 0.88480 -0.46000
O 	O 	0.97809 0.98600 0.91350 -0.46200
O 	O 	0.01597 0.97730 0.91360 -0.46100
O 	O 	0.99445 0.97250 0.70720 -0.48300
H 	H 	0.85370 0.04880 0.13060 -0.02100
H 	H 	0.87610 0.95240 0.90660 -0.00100
H 	H 	0.78930 0.00280 0.12930 -0.01400
H 	H 	0.93380 0.04060 0.06170 -0.09000
H 	H 	0.98990 0.95800 0.93820 -0.02600
Zn	Zn	0.34149 0.48683 0.57648 1.23600
Zn	Zn	0.38801 0.51632 0.42130 1.23900
Zn	Zn	0.47761 0.51515 0.41370 1.24100
P 	P 	0.35991 0.52841 0.64850 0.44100
P 	P 	0.37143 0.47263 0.35650 0.41700
P 	P 	0.29460 0.48844 0.52860 0.49700
P 	P 	0.43313 0.52453 0.46530 0.54500
P 	P 	0.49454 0.47229 0.35390 0.44400
O 	O 	0.34446 0.51626 0.57410 -0.46600
O 	O 	0.38162 0.52513 0.59810 -0.46400
O 	O 	0.35953 0.52582 0.79560 -0.45300
O 	O 	0.35017 0.47819 0.40740 -0.43200
O 	O 	0.38760 0.48744 0.41920 -0.46500
O 	O 	0.37186 0.47180 0.20560 -0.46500
O 	O 	0.27803 0.47277 0.54340 -0.51400
O 	O 	0.29755 0.49508 0.38210 -0.51900
O 	O 	0.31385 0.48058 0.58590 -0.44000
O 	O 	0.43289 0.50775 0.56230 -0.54500
O 	O 	0.45048 0.52480 0.38190 -0.46800
O 	O 	0.41510 0.52533 0.38480 -0.46400
O 	O 	0.47809 0.48600 0.41350 -0.47600
O 	O 	0.51597 0.47730 0.41360 -0.48200
O 	O 	0.49445 0.47250 0.20720 -0.49700
H 	H 	0.35370 0.54880 0.63060 -0.01100
H 	H 	0.37610 0.45240 0.40660 -0.01300
H 	H 	0.28930 0.50280 0.62930 -0.01200
H 	H 	0.43380 0.54060 0.56170 -0.06300
H 	H 	0.48990 0.45800 0.43820 -0.03800
Zn	Zn	0.65851 0.01317 0.57648 1.23600
Zn	Zn	0.61199 0.98368 0.42130 1.23900
Zn	Zn	0.52239 0.98485 0.41370 1.24100
P 	P 	0.64009 0.97159 0.64850 0.44100
P 	P 	0.62857 0.02737 0.35650 0.41700
P 	P 	0.70540 0.01156 0.52860 0.49700
P 	P 	0.56687 0.97547 0.46530 0.54500
P 	P 	0.50546 0.02771 0.35390 0.44400
O 	O 	0.65554 0.98374 0.57410 -0.46600
O 	O 	0.61838 0.97487 0.59810 -0.46400
O 	O 	0.64047 0.97418 0.79560 -0.45300
O 	O 	0.64983 0.02181 0.40740 -0.43200
O 	O 	0.61240 0.01256 0.41920 -0.46500
O 	O 	0.62814 0.02820 0.20560 -0.46500
O 	O 	0.72197 0.02723 0.54340 -0.51400
O 	O 	0.70245 0.00492 0.38210 -0.51900
O 	O 	0.68615 0.01942 0.58590 -0.44000
O 	O 	0.56711 0.99225 0.56230 -0.54500
O 	O 	0.54952 0.97520 0.38190 -0.46800
O 	O 	0.58490 0.97467 0.38480 -0.46400
O 	O 	0.52191 0.01400 0.41350 -0.47600
O 	O 	0.48403 0.02270 0.41360 -0.48200
O 	O 	0.50555 0.02750 0.20720 -0.49700
H 	H 	0.64630 0.95120 0.63060 -0.01100
H 	H 	0.62390 0.04760 0.40660 -0.01300
H 	H 	0.71070 0.99720 0.62930 -0.01200
H 	H 	0.56620 0.95940 0.56170 -0.06300
H 	H 	0.51010 0.04200 0.43820 -0.03800
Zn	Zn	0.15851 0.51317 0.07648 1.22800
Zn	Zn	0.11199 0.48368 0.92130 1.24800
Zn	Zn	0.02239 0.48485 0.91370 1.24900
P 	P 	0.14009 0.47159 0.14850 0.44000
P 	P 	0.12857 0.52737 0.85650 0.41800
P 	P 	0.20540 0.51156 0.02860 0.46300
P 	P 	0.06687 0.47547 0.96530 0.59900
P 	P 	0.00546 0.52771 0.85390 0.44400
O 	O 	0.15554 0.48374 0.07410 -0.48100
O 	O 	0.11838 0.47487 0.09810 -0.48400
O 	O 	0.14047 0.47418 0.29560 -0.46600
O 	O 	0.14983 0.52181 0.90740 -0.41000
O 	O 	0.11240 0.51256 0.91920 -0.45100
O 	O 	0.12814 0.52820 0.70560 -0.45200
O 	O 	0.22197 0.52723 0.04340 -0.52800
O 	O 	0.20245 0.50492 0.88210 -0.48700
O 	O 	0.18615 0.51942 0.08590 -0.44800
O 	O 	0.06711 0.49225 0.06230 -0.58400
O 	O 	0.04952 0.47520 0.88190 -0.46500
O 	O 	0.08490 0.47467 0.88480 -0.46000
O 	O 	0.02191 0.51400 0.91350 -0.46200
O 	O 	0.98403 0.52270 0.91360 -0.46100
O 	O 	0.00555 0.52750 0.70720 -0.48300
H 	H 	0.14630 0.45120 0.13060 -0.02100
H 	H 	0.12390 0.54760 0.90660 -0.00100
H 	H 	0.21070 0.49720 0.12930 -0.01400
H 	H 	0.06620 0.45940 0.06170 -0.09000
H 	H 	0.01010 0.54200 0.93820 -0.02600
Zn	Zn	0.76317 0.09149 0.82648 1.23900
Zn	Zn	0.73368 0.13801 0.67130 1.24000
Zn	Zn	0.73485 0.22761 0.66370 1.24100
P 	P 	0.72159 0.10991 0.89850 0.47500
P 	P 	0.77737 0.12143 0.60650 0.41700
P 	P 	0.76156 0.04460 0.77860 0.49700
P 	P 	0.72547 0.18313 0.71530 0.54400
P 	P 	0.77771 0.24454 0.60390 0.44400
O 	O 	0.73374 0.09446 0.82410 -0.46400
O 	O 	0.72487 0.13162 0.84810 -0.46000
O 	O 	0.72418 0.10953 0.04560 -0.50100
O 	O 	0.77181 0.10017 0.65740 -0.42800
O 	O 	0.76256 0.13760 0.66920 -0.46100
O 	O 	0.77820 0.12186 0.45560 -0.45400
O 	O 	0.77723 0.02803 0.79340 -0.50700
O 	O 	0.75492 0.04755 0.63210 -0.51700
O 	O 	0.76942 0.06385 0.83590 -0.43000
O 	O 	0.74225 0.18289 0.81230 -0.53200
O 	O 	0.72520 0.20048 0.63190 -0.46500
O 	O 	0.72467 0.16510 0.63480 -0.46100
O 	O 	0.76400 0.22809 0.66350 -0.47200
O 	O 	0.77270 0.26597 0.66360 -0.47800
O 	O 	0.77750 0.24445 0.45720 -0.48500
H 	H 	0.70120 0.10370 0.88060 -0.00700
H 	H 	0.79760 0.12610 0.65660 -0.00600
H 	H 	0.74720 0.03930 0.87930 -0.00100
H 	H 	0.70940 0.18380 0.81170 -0.05800
H 	H 	0.79200 0.23990 0.68820 -0.03200
Zn	Zn	0.26317 0.59149 0.32648 1.23600
Zn	Zn	0.23368 0.63801 0.17130 1.23800
Zn	Zn	0.23485 0.72761 0.16370 1.23900
P 	P 	0.22159 0.60991 0.39850 0.44100
P 	P 	0.27737 0.62143 0.10650 0.38300
P 	P 	0.26156 0.54460 0.27860 0.49700
P 	P 	0.22547 0.68313 0.21530 0.54500
P 	P 	0.27771 0.74454 0.10390 0.40700
O 	O 	0.23374 0.59446 0.32410 -0.46900
O 	O 	0.22487 0.63162 0.34810 -0.46800
O 	O 	0.22418 0.60953 0.54560 -0.46400
O 	O 	0.27181 0.60017 0.15740 -0.43600
O 	O 	0.26256 0.63760 0.16920 -0.47000
O 	O 	0.27820 0.62186 0.95560 -0.42000
O 	O 	0.27723 0.52803 0.29340 -0.51900
O 	O 	0.25492 0.54755 0.13210 -0.53300
O 	O 	0.26942 0.56385 0.33590 -0.44400
O 	O 	0.24225 0.68289 0.31230 -0.55000
O 	O 	0.22520 0.70048 0.13190 -0.47800
O 	O 	0.22467 0.66510 0.13480 -0.47400
O 	O 	0.26400 0.72809 0.16350 -0.48000
O 	O 	0.27270 0.76597 0.16360 -0.48400
O 	O 	0.27750 0.74445 0.95720 -0.45100
H 	H 	0.20120 0.60370 0.38060 -0.01600
H 	H 	0.29760 0.62610 0.15660 -0.01600
H 	H 	0.24720 0.53930 0.37930 -0.01300
H 	H 	0.20940 0.68380 0.31170 -0.06800
H 	H 	0.29200 0.73990 0.18820 -0.03700
Zn	Zn	0.73683 0.90851 0.32648 1.23600
Zn	Zn	0.76632 0.86199 0.17130 1.23800
Zn	Zn	0.76515 0.77239 0.16370 1.23900
P 	P 	0.77841 0.89009 0.39850 0.44100
P 	P 	0.72263 0.87857 0.10650 0.38300
P 	P 	0.73844 0.95540 0.27860 0.49700
P 	P 	0.77453 0.81687 0.21530 0.54500
P 	P 	0.72229 0.75546 0.10390 0.40700
O 	O 	0.76626 0.90554 0.32410 -0.46900
O 	O 	0.77513 0.86838 0.34810 -0.46800
O 	O 	0.77582 0.89047 0.54560 -0.46400
O 	O 	0.72819 0.89983 0.15740 -0.43600
O 	O 	0.73744 0.86240 0.16920 -0.47000
O 	O 	0.72180 0.87814 0.95560 -0.42000
O 	O 	0.72277 0.97197 0.29340 -0.51900
O 	O 	0.74508 0.95245 0.13210 -0.53300
O 	O 	0.73058 0.93615 0.33590 -0.44400
O 	O 	0.75775 0.81711 0.31230 -0.55000
O 	O 	0.77480 0.79952 0.13190 -0.47800
O 	O 	0.77533 0.83490 0.13480 -0.47400
O 	O 	0.73600 0.77191 0.16350 -0.48000
O 	O 	0.72730 0.73403 0.16360 -0.48400
O 	O 	0.72250 0.75555 0.95720 -0.45100
H 	H 	0.79880 0.89630 0.38060 -0.01600
H 	H 	0.70240 0.87390 0.15660 -0.01600
H 	H 	0.75280 0.96070 0.37930 -0.01300
H 	H 	0.79060 0.81620 0.31170 -0.06800
H 	H 	0.70800 0.76010 0.18820 -0.03700
Zn	Zn	0.23683 0.40851 0.82648 1.23900
Zn	Zn	0.26632 0.36199 0.67130 1.24000
Zn	Zn	0.26515 0.27239 0.66370 1.24100
P 	P 	0.27841 0.39009 0.89850 0.47500
P 	P 	0.22263 0.37857 0.60650 0.41700
P 	P 	0.23844 0.45540 0.77860 0.49700
P 	P 	0.27453 0.31687 0.71530 0.54400
P 	P 	0.22229 0.25546 0.60390 0.44400
O 	O 	0.26626 0.40554 0.82410 -0.46400
O 	O 	0.27513 0.36838 0.84810 -0.46000
O 	O 	0.27582 0.39047 0.04560 -0.50100
O 	O 	0.22819 0.39983 0.65740 -0.42800
O 	O 	0.23744 0.36240 0.66920 -0.46100
O 	O 	0.22180 0.37814 0.45560 -0.45400
O 	O 	0.22277 0.47197 0.79340 -0.50700
O 	O 	0.24508 0.45245 0.63210 -0.51700
O 	O 	0.23058 0.43615 0.83590 -0.43000
O 	O 	0.25775 0.31711 0.81230 -0.53200
O 	O 	0.27480 0.29952 0.63190 -0.46500
O 	O 	0.27533 0.33490 0.63480 -0.46100
O 	O 	0.23600 0.27191 0.66350 -0.47200
O 	O 	0.22730 0.23403 0.66360 -0.47800
O 	O 	0.22250 0.25555 0.45720 -0.48500
H 	H 	0.29880 0.39630 0.88060 -0.00700
H 	H 	0.20240 0.37390 0.65660 -0.00600
H 	H 	0.25280 0.46070 0.87930 -0.00100
H 	H 	0.29060 0.31620 0.81170 -0.05800
H 	H 	0.20800 0.26010 0.68820 -0.03200
Zn	Zn	0.65851 0.98683 0.92352 1.24400
Zn	Zn	0.61199 0.01632 0.07870 1.23100
Zn	Zn	0.52239 0.01515 0.08630 1.23300
P 	P 	0.64009 0.02841 0.85150 0.44200
P 	P 	0.62857 0.97263 0.14350 0.41500
P 	P 	0.70540 0.98844 0.97140 0.53100
P 	P 	0.56687 0.02453 0.03470 0.48800
P 	P 	0.50546 0.97229 0.14610 0.44500
O 	O 	0.65554 0.01626 0.92590 -0.45100
O 	O 	0.61838 0.02513 0.90190 -0.44900
O 	O 	0.64047 0.02582 0.70440 -0.46300
O 	O 	0.64983 0.97819 0.09260 -0.44900
O 	O 	0.61240 0.98744 0.08080 -0.48000
O 	O 	0.62814 0.97180 0.29440 -0.45500
O 	O 	0.72197 0.97277 0.95660 -0.49900
O 	O 	0.70245 0.99508 0.11790 -0.54800
O 	O 	0.68615 0.98058 0.91410 -0.43400
O 	O 	0.56711 0.00775 0.93770 -0.50900
O 	O 	0.54952 0.02480 0.11810 -0.46700
O 	O 	0.58490 0.02533 0.11520 -0.46400
O 	O 	0.52191 0.98600 0.08650 -0.48900
O 	O 	0.48403 0.97730 0.08640 -0.49700
O 	O 	0.50555 0.97250 0.29280 -0.48700
H 	H 	0.64630 0.04880 0.86940 -0.00600
H 	H 	0.62390 0.95240 0.09340 -0.02000
H 	H 	0.71070 0.00280 0.87070 -0.01100
H 	H 	0.56620 0.04060 0.93830 -0.04100
H 	H 	0.51010 0.95800 0.06180 -0.04600
Zn	Zn	0.15851 0.48683 0.42352 1.23600
Zn	Zn	0.11199 0.51632 0.57870 1.24000
Zn	Zn	0.02239 0.51515 0.58630 1.24100
P 	P 	0.14009 0.52841 0.35150 0.44200
P 	P 	0.12857 0.47263 0.64350 0.41600
P 	P 	0.20540 0.48844 0.47140 0.49700
P 	P 	0.06687 0.52453 0.53470 0.54500
P 	P 	0.00546 0.47229 0.64610 0.44500
O 	O 	0.15554 0.51626 0.42590 -0.46600
O 	O 	0.11838 0.52513 0.40190 -0.47000
O 	O 	0.14047 0.52582 0.20440 -0.47600
O 	O 	0.14983 0.47819 0.59260 -0.42700
O 	O 	0.11240 0.48744 0.58080 -0.46500
O 	O 	0.12814 0.47180 0.79440 -0.44300
O 	O 	0.22197 0.47277 0.45660 -0.51600
O 	O 	0.20245 0.49508 0.61790 -0.51600
O 	O 	0.18615 0.48058 0.41410 -0.44200
O 	O 	0.06711 0.50775 0.43770 -0.54900
O 	O 	0.04952 0.52480 0.61810 -0.46400
O 	O 	0.08490 0.52533 0.61520 -0.46000
O 	O 	0.02191 0.48600 0.58650 -0.47500
O 	O 	0.98403 0.47730 0.58640 -0.47700
O 	O 	0.00555 0.47250 0.79280 -0.47400
H 	H 	0.14630 0.54880 0.36940 -0.01700
H 	H 	0.12390 0.45240 0.59340 -0.00800
H 	H 	0.21070 0.50280 0.37070 -0.01300
H 	H 	0.06620 0.54060 0.43830 -0.06900
H 	H 	0.01010 0.45800 0.56180 -0.03500
Zn	Zn	0.84149 0.01317 0.42352 1.23600
Zn	Zn	0.88801 0.98368 0.57870 1.24000
Zn	Zn	0.97761 0.98485 0.58630 1.24100
P 	P 	0.85991 0.97159 0.35150 0.44200
P 	P 	0.87143 0.02737 0.64350 0.41600
P 	P 	0.79460 0.01156 0.47140 0.49700
P 	P 	0.93313 0.97547 0.53470 0.54500
P 	P 	0.99454 0.02771 0.64610 0.44500
O 	O 	0.84446 0.98374 0.42590 -0.46600
O 	O 	0.88162 0.97487 0.40190 -0.47000
O 	O 	0.85953 0.97418 0.20440 -0.47600
O 	O 	0.85017 0.02181 0.59260 -0.42700
O 	O 	0.88760 0.01256 0.58080 -0.46500
O 	O 	0.87186 0.02820 0.79440 -0.44300
O 	O 	0.77803 0.02723 0.45660 -0.51600
O 	O 	0.79755 0.00492 0.61790 -0.51600
O 	O 	0.81385 0.01942 0.41410 -0.44200
O 	O 	0.93289 0.99225 0.43770 -0.54900
O 	O 	0.95048 0.97520 0.61810 -0.46400
O 	O 	0.91510 0.97467 0.61520 -0.46000
O 	O 	0.97809 0.01400 0.58650 -0.47500
O 	O 	0.01597 0.02270 0.58640 -0.47700
O 	O 	0.99445 0.02750 0.79280 -0.47400
H 	H 	0.85370 0.95120 0.36940 -0.01700
H 	H 	0.87610 0.04760 0.59340 -0.00800
H 	H 	0.78930 0.99720 0.37070 -0.01300
H 	H 	0.93380 0.95940 0.43830 -0.06900
H 	H 	0.98990 0.04200 0.56180 -0.03500
Zn	Zn	0.34149 0.51317 0.92352 1.24400
Zn	Zn	0.38801 0.48368 0.07870 1.23100
Zn	Zn	0.47761 0.48485 0.08630 1.23300
P 	P 	0.35991 0.47159 0.85150 0.44200
P 	P 	0.37143 0.52737 0.14350 0.41500
P 	P 	0.29460 0.51156 0.97140 0.53100
P 	P 	0.43313 0.47547 0.03470 0.48800
P 	P 	0.49454 0.52771 0.14610 0.44500
O 	O 	0.34446 0.48374 0.92590 -0.45100
O 	O 	0.38162 0.47487 0.90190 -0.44900
O 	O 	0.35953 0.47418 0.70440 -0.46300
O 	O 	0.35017 0.52181 0.09260 -0.44900
O 	O 	0.38760 0.51256 0.08080 -0.48000
O 	O 	0.37186 0.52820 0.29440 -0.45500
O 	O 	0.27803 0.52723 0.95660 -0.49900
O 	O 	0.29755 0.50492 0.11790 -0.54800
O 	O 	0.31385 0.51942 0.91410 -0.43400
O 	O 	0.43289 0.49225 0.93770 -0.50900
O 	O 	0.45048 0.47520 0.11810 -0.46700
O 	O 	0.41510 0.47467 0.11520 -0.46400
O 	O 	0.47809 0.51400 0.08650 -0.48900
O 	O 	0.51597 0.52270 0.08640 -0.49700
O 	O 	0.49445 0.52750 0.29280 -0.48700
H 	H 	0.35370 0.45120 0.86940 -0.00600
H 	H 	0.37610 0.54760 0.09340 -0.02000
H 	H 	0.28930 0.49720 0.87070 -0.01100
H 	H 	0.43380 0.45940 0.93830 -0.04100
H 	H 	0.48990 0.54200 0.06180 -0.04600
Zn	Zn	0.73683 0.09149 0.17352 1.23400
Zn	Zn	0.76632 0.13801 0.32870 1.23900
Zn	Zn	0.76515 0.22761 0.33630 1.24100
P 	P 	0.77841 0.10991 0.10150 0.40800
P 	P 	0.72263 0.12143 0.39350 0.41600
P 	P 	0.73844 0.04460 0.22140 0.49600
P 	P 	0.77453 0.18313 0.28470 0.54500
P 	P 	0.72229 0.24454 0.39610 0.44500
O 	O 	0.76626 0.09446 0.17590 -0.46900
O 	O 	0.77513 0.13162 0.15190 -0.47200
O 	O 	0.77582 0.10953 0.95440 -0.42800
O 	O 	0.72819 0.10017 0.34260 -0.43100
O 	O 	0.73744 0.13760 0.33080 -0.46800
O 	O 	0.72180 0.12186 0.54440 -0.45400
O 	O 	0.72277 0.02803 0.20660 -0.52300
O 	O 	0.74508 0.04755 0.36790 -0.51900
O 	O 	0.73058 0.06385 0.16410 -0.45300
O 	O 	0.75775 0.18289 0.18770 -0.55500
O 	O 	0.77480 0.20048 0.36810 -0.46700
O 	O 	0.77533 0.16510 0.36520 -0.46300
O 	O 	0.73600 0.22809 0.33650 -0.47900
O 	O 	0.72730 0.26597 0.33640 -0.48000
O 	O 	0.72250 0.24445 0.54280 -0.48500
H 	H 	0.79880 0.10370 0.11940 -0.02000
H 	H 	0.70240 0.12610 0.34340 -0.01500
H 	H 	0.75280 0.03930 0.12070 -0.02400
H 	H 	0.79060 0.18380 0.18830 -0.07300
H 	H 	0.70800 0.23990 0.31180 -0.04000
Zn	Zn	0.23683 0.59149 0.67352 1.23700
Zn	Zn	0.26632 0.63801 0.82870 1.24100
Zn	Zn	0.26515 0.72761 0.83630 1.24300
P 	P 	0.27841 0.60991 0.60150 0.44100
P 	P 	0.22263 0.62143 0.89350 0.45000
P 	P 	0.23844 0.54460 0.72140 0.49600
P 	P 	0.27453 0.68313 0.78470 0.54400
P 	P 	0.22229 0.74454 0.89610 0.48200
O 	O 	0.26626 0.59446 0.67590 -0.46300
O 	O 	0.27513 0.63162 0.65190 -0.46600
O 	O 	0.27582 0.60953 0.45440 -0.46500
O 	O 	0.22819 0.60017 0.84260 -0.42300
O 	O 	0.23744 0.63760 0.83080 -0.46000
O 	O 	0.22180 0.62186 0.04440 -0.48700
O 	O 	0.22277 0.52803 0.70660 -0.51100
O 	O 	0.24508 0.54755 0.86790 -0.50000
O 	O 	0.23058 0.56385 0.66410 -0.43800
O 	O 	0.25775 0.68289 0.68770 -0.54400
O 	O 	0.27480 0.70048 0.86810 -0.45300
O 	O 	0.27533 0.66510 0.86520 -0.45000
O 	O 	0.23600 0.72809 0.83650 -0.47100
O 	O 	0.22730 0.76597 0.83640 -0.47300
O 	O 	0.22250 0.74445 0.04280 -0.52000
H 	H 	0.29880 0.60370 0.61940 -0.01100
H 	H 	0.20240 0.62610 0.84340 -0.00500
H 	H 	0.25280 0.53930 0.62070 -0.01200
H 	H 	0.29060 0.68380 0.68830 -0.06400
H 	H 	0.20800 0.73990 0.81180 -0.03600
Zn	Zn	0.76317 0.90851 0.67352 1.23700
Zn	Zn	0.73368 0.86199 0.82870 1.24100
Zn	Zn	0.73485 0.77239 0.83630 1.24300
P 	P 	0.72159 0.89009 0.60150 0.44100
P 	P 	0.77737 0.87857 0.89350 0.45000
P 	P 	0.76156 0.95540 0.72140 0.49600
P 	P 	0.72547 0.81687 0.78470 0.54400
P 	P 	0.77771 0.75546 0.89610 0.48200
O 	O 	0.73374 0.90554 0.67590 -0.46300
O 	O 	0.72487 0.86838 0.65190 -0.46600
O 	O 	0.72418 0.89047 0.45440 -0.46500
O 	O 	0.77181 0.89983 0.84260 -0.42300
O 	O 	0.76256 0.86240 0.83080 -0.46000
O 	O 	0.77820 0.87814 0.04440 -0.48700
O 	O 	0.77723 0.97197 0.70660 -0.51100
O 	O 	0.75492 0.95245 0.86790 -0.50000
O 	O 	0.76942 0.93615 0.66410 -0.43800
O 	O 	0.74225 0.81711 0.68770 -0.54400
O 	O 	0.72520 0.79952 0.86810 -0.45300
O 	O 	0.72467 0.83490 0.86520 -0.45000
O 	O 	0.76400 0.77191 0.83650 -0.47100
O 	O 	0.77270 0.73403 0.83640 -0.47300
O 	O 	0.77750 0.75555 0.04280 -0.52000
H 	H 	0.70120 0.89630 0.61940 -0.01100
H 	H 	0.79760 0.87390 0.84340 -0.00500
H 	H 	0.74720 0.96070 0.62070 -0.01200
H 	H 	0.70940 0.81620 0.68830 -0.06400
H 	H 	0.79200 0.76010 0.81180 -0.03600
Zn	Zn	0.26317 0.40851 0.17352 1.23400
Zn	Zn	0.23368 0.36199 0.32870 1.23900
Zn	Zn	0.23485 0.27239 0.33630 1.24100
P 	P 	0.22159 0.39009 0.10150 0.40800
P 	P 	0.27737 0.37857 0.39350 0.41600
P 	P 	0.26156 0.45540 0.22140 0.49600
P 	P 	0.22547 0.31687 0.28470 0.54500
P 	P 	0.27771 0.25546 0.39610 0.44500
O 	O 	0.23374 0.40554 0.17590 -0.46900
O 	O 	0.22487 0.36838 0.15190 -0.47200
O 	O 	0.22418 0.39047 0.95440 -0.42800
O 	O 	0.27181 0.39983 0.34260 -0.43100
O 	O 	0.26256 0.36240 0.33080 -0.46800
O 	O 	0.27820 0.37814 0.54440 -0.45400
O 	O 	0.27723 0.47197 0.20660 -0.52300
O 	O 	0.25492 0.45245 0.36790 -0.51900
O 	O 	0.26942 0.43615 0.16410 -0.45300
O 	O 	0.24225 0.31711 0.18770 -0.55500
O 	O 	0.22520 0.29952 0.36810 -0.46700
O 	O 	0.22467 0.33490 0.36520 -0.46300
O 	O 	0.26400 0.27191 0.33650 -0.47900
O 	O 	0.27270 0.23403 0.33640 -0.48000
O 	O 	0.27750 0.25555 0.54280 -0.48500
H 	H 	0.20120 0.39630 0.11940 -0.02000
H 	H 	0.29760 0.37390 0.34340 -0.01500
H 	H 	0.24720 0.46070 0.12070 -0.02400
H 	H 	0.20940 0.31620 0.18830 -0.07300
H 	H 	0.29200 0.26010 0.31180 -0.04000
Ga	Ga	0.25000 0.02700 -0.00000 2.10100
Ga	Ga	0.75000 0.52700 0.50000 2.11000
Ga	Ga	0.25000 0.97300 0.50000 2.11000
Ga	Ga	0.75000 0.47300 -0.00000 2.10100
Ga	Ga	0.22300 0.00000 0.25000 2.11000
Ga	Ga	0.72300 0.50000 0.75000 2.11000
Ga	Ga	0.27700 0.00000 0.75000 2.11000
Ga	Ga	0.77700 0.50000 0.25000 2.11000
Ga	Ga	0.75000 0.97300 -0.00000 2.10100
Ga	Ga	0.25000 0.47300 0.50000 2.11000
Ga	Ga	0.75000 0.02700 0.50000 2.11000
Ga	Ga	0.25000 0.52700 -0.00000 2.10100
Ga	Ga	0.77700 0.00000 0.75000 2.11000
Ga	Ga	0.27700 0.50000 0.25000 2.11000
Ga	Ga	0.72300 0.00000 0.25000 2.11000
Ga	Ga	0.22300 0.50000 0.75000 2.11000
Zn	Zn	0.06722 0.00000 0.75000 1.16300
Zn	Zn	0.56722 0.50000 0.25000 1.15800
Zn	Zn	0.43278 0.00000 0.25000 1.15800
Zn	Zn	0.93278 0.50000 0.75000 1.16300
Zn	Zn	0.25000 0.81722 -0.00000 1.14700
Zn	Zn	0.75000 0.31722 0.50000 1.16100
Zn	Zn	0.25000 0.18278 0.50000 1.16100
Zn	Zn	0.75000 0.68278 -0.00000 1.14700
Zn	Zn	0.93278 0.00000 0.25000 1.15800
Zn	Zn	0.43278 0.50000 0.75000 1.16300
Zn	Zn	0.56722 0.00000 0.75000 1.16300
Zn	Zn	0.06722 0.50000 0.25000 1.15800
Zn	Zn	0.75000 0.18278 -0.00000 1.14700
Zn	Zn	0.25000 0.68278 0.50000 1.16100
Zn	Zn	0.75000 0.81722 0.50000 1.16100
Zn	Zn	0.25000 0.31722 -0.00000 1.14700
F 	F 	0.24446 0.00554 0.12500 -0.85600
F 	F 	0.74446 0.50554 0.62500 -0.84400
F 	F 	0.25554 0.99446 0.62500 -0.84400
F 	F 	0.75554 0.49446 0.12500 -0.85600
F 	F 	0.24446 0.99446 0.37500 -0.84400
F 	F 	0.74446 0.49446 0.87500 -0.83000
F 	F 	0.25554 0.00554 0.87500 -0.83000
F 	F 	0.75554 0.50554 0.37500 -0.84400
F 	F 	0.75554 0.99446 0.87500 -0.83000
F 	F 	0.25554 0.49446 0.37500 -0.84400
F 	F 	0.74446 0.00554 0.37500 -0.84400
F 	F 	0.24446 0.50554 0.87500 -0.83000
F 	F 	0.75554 0.00554 0.62500 -0.84400
F 	F 	0.25554 0.50554 0.12500 -0.85600
F 	F 	0.74446 0.99446 0.12500 -0.85600
F 	F 	0.24446 0.49446 0.62500 -0.84400
