data_crystal

_cell_length_a 84.11500
_cell_length_b 84.11500
_cell_length_c 10.06940
_cell_angle_alpha 90.00000
_cell_angle_beta  90.00000
_cell_angle_gamma 90.00000

_symmetry_space_group_name_	'P 1'
_symmetry_space_group_name_H-M	'P 1'

loop_
_symmetry_equiv_pos_as_xyz
  x,y,z

loop_
_atom_site_label
_atom_site_type_symbol
_atom_site_fract_x
_atom_site_fract_y
_atom_site_fract_z
_atom_site_charge
Ga	Ga	0.74864 0.52136 0.24950 1.08800
Zn	Zn	0.82221 0.51042 0.32640 1.23000
Zn	Zn	0.85891 0.48720 0.17090 1.22900
Zn	Zn	0.92937 0.48823 0.16320 1.22500
Zn	Zn	0.96485 0.48830 0.66400 1.22800
P 	P 	0.78518 0.50922 0.27720 0.47600
P 	P 	0.83623 0.47740 0.39800 0.45900
P 	P 	0.84566 0.52141 0.10990 0.41300
P 	P 	0.89438 0.48037 0.21650 0.47200
P 	P 	0.94248 0.47791 0.89320 0.47100
P 	P 	0.95163 0.47814 0.39340 0.39700
O 	O 	0.80061 0.51561 0.33510 -0.43800
O 	O 	0.77195 0.52184 0.29360 -0.53200
O 	O 	0.78744 0.50424 0.13320 -0.53200
O 	O 	0.82401 0.48695 0.32920 -0.47600
O 	O 	0.83640 0.47975 0.54440 -0.46800
O 	O 	0.85269 0.48006 0.35110 -0.47200
O 	O 	0.85846 0.51040 0.16500 -0.47500
O 	O 	0.84583 0.52262 0.95780 -0.43000
O 	O 	0.82886 0.51780 0.15360 -0.42900
O 	O 	0.89383 0.49430 0.30610 -0.52400
O 	O 	0.90840 0.48170 0.12260 -0.44600
O 	O 	0.87986 0.48030 0.13330 -0.45100
O 	O 	0.94340 0.47790 0.03900 -0.48200
O 	O 	0.95910 0.48130 0.84340 -0.47400
O 	O 	0.92960 0.48890 0.84200 -0.49200
O 	O 	0.95060 0.47740 0.54500 -0.44900
O 	O 	0.96480 0.48890 0.33700 -0.48800
O 	O 	0.93470 0.48070 0.34400 -0.46200
O 	O 	0.98530 0.48110 0.62440 -0.43600
H 	H 	0.89480 0.46680 0.30130 -0.06700
H 	H 	0.84770 0.53680 0.17850 -0.01500
H 	H 	0.93800 0.46520 0.82350 -0.03800
H 	H 	0.78080 0.49380 0.36550 0.00200
H 	H 	0.83220 0.45810 0.37200 -0.00100
H 	H 	0.95690 0.46250 0.34520 -0.01400
Ga	Ga	0.24864 0.02136 0.74950 1.08900
Zn	Zn	0.32221 0.01042 0.82640 1.23200
Zn	Zn	0.35891 0.98720 0.67090 1.23100
Zn	Zn	0.42937 0.98823 0.66320 1.22700
Zn	Zn	0.46485 0.98830 0.16400 1.22600
P 	P 	0.28518 0.00922 0.77720 0.47600
P 	P 	0.33623 0.97740 0.89800 0.47200
P 	P 	0.34566 0.02141 0.60990 0.42300
P 	P 	0.39438 0.98037 0.71650 0.47200
P 	P 	0.44248 0.97791 0.39320 0.45900
P 	P 	0.45163 0.97814 0.89340 0.41200
O 	O 	0.30061 0.01561 0.83510 -0.43300
O 	O 	0.27195 0.02184 0.79360 -0.52900
O 	O 	0.28744 0.00424 0.63320 -0.52700
O 	O 	0.32401 0.98695 0.82920 -0.47400
O 	O 	0.33640 0.97975 0.04440 -0.48200
O 	O 	0.35269 0.98006 0.85110 -0.46900
O 	O 	0.35846 0.01040 0.66500 -0.47100
O 	O 	0.34583 0.02262 0.45780 -0.44000
O 	O 	0.32886 0.01780 0.65360 -0.42600
O 	O 	0.39383 0.99430 0.80610 -0.51600
O 	O 	0.40840 0.98170 0.62260 -0.44100
O 	O 	0.37986 0.98030 0.63330 -0.44700
O 	O 	0.44340 0.97790 0.53900 -0.47000
O 	O 	0.45910 0.98130 0.34340 -0.47700
O 	O 	0.42960 0.98890 0.34200 -0.49500
O 	O 	0.45060 0.97740 0.04500 -0.46500
O 	O 	0.46480 0.98890 0.83700 -0.48400
O 	O 	0.43470 0.98070 0.84400 -0.45900
O 	O 	0.48530 0.98110 0.12440 -0.44200
H 	H 	0.39480 0.96680 0.80130 -0.06300
H 	H 	0.34770 0.03680 0.67850 -0.01100
H 	H 	0.43800 0.96520 0.32350 -0.04100
H 	H 	0.28080 0.99380 0.86550 0.00500
H 	H 	0.33220 0.95810 0.87200 0.00300
H 	H 	0.45690 0.96250 0.84520 -0.01100
Ga	Ga	0.75136 0.47864 0.74950 1.08900
Zn	Zn	0.67779 0.48958 0.82640 1.23200
Zn	Zn	0.64109 0.51280 0.67090 1.23100
Zn	Zn	0.57063 0.51177 0.66320 1.22700
Zn	Zn	0.53515 0.51170 0.16400 1.22600
P 	P 	0.71482 0.49078 0.77720 0.47600
P 	P 	0.66377 0.52260 0.89800 0.47200
P 	P 	0.65434 0.47859 0.60990 0.42300
P 	P 	0.60562 0.51963 0.71650 0.47200
P 	P 	0.55752 0.52209 0.39320 0.45900
P 	P 	0.54837 0.52186 0.89340 0.41200
O 	O 	0.69939 0.48439 0.83510 -0.43300
O 	O 	0.72805 0.47816 0.79360 -0.52900
O 	O 	0.71256 0.49576 0.63320 -0.52700
O 	O 	0.67599 0.51305 0.82920 -0.47400
O 	O 	0.66360 0.52025 0.04440 -0.48200
O 	O 	0.64731 0.51994 0.85110 -0.46900
O 	O 	0.64154 0.48960 0.66500 -0.47100
O 	O 	0.65417 0.47738 0.45780 -0.44000
O 	O 	0.67114 0.48220 0.65360 -0.42600
O 	O 	0.60617 0.50570 0.80610 -0.51600
O 	O 	0.59160 0.51830 0.62260 -0.44100
O 	O 	0.62014 0.51970 0.63330 -0.44700
O 	O 	0.55660 0.52210 0.53900 -0.47000
O 	O 	0.54090 0.51870 0.34340 -0.47700
O 	O 	0.57040 0.51110 0.34200 -0.49500
O 	O 	0.54940 0.52260 0.04500 -0.46500
O 	O 	0.53520 0.51110 0.83700 -0.48400
O 	O 	0.56530 0.51930 0.84400 -0.45900
O 	O 	0.51470 0.51890 0.12440 -0.44200
H 	H 	0.60520 0.53320 0.80130 -0.06300
H 	H 	0.65230 0.46320 0.67850 -0.01100
H 	H 	0.56200 0.53480 0.32350 -0.04100
H 	H 	0.71920 0.50620 0.86550 0.00500
H 	H 	0.66780 0.54190 0.87200 0.00300
H 	H 	0.54310 0.53750 0.84520 -0.01100
Ga	Ga	0.25136 0.97864 0.24950 1.08900
Zn	Zn	0.17779 0.98958 0.32640 1.23100
Zn	Zn	0.14109 0.01280 0.17090 1.23000
Zn	Zn	0.07063 0.01177 0.16320 1.22600
Zn	Zn	0.03515 0.01170 0.66400 1.22800
P 	P 	0.21482 0.99078 0.27720 0.47600
P 	P 	0.16377 0.02260 0.39800 0.45900
P 	P 	0.15434 0.97859 0.10990 0.41300
P 	P 	0.10562 0.01963 0.21650 0.47200
P 	P 	0.05752 0.02209 0.89320 0.47100
P 	P 	0.04837 0.02186 0.39340 0.39700
O 	O 	0.19939 0.98439 0.33510 -0.43800
O 	O 	0.22805 0.97816 0.29360 -0.53200
O 	O 	0.21256 0.99576 0.13320 -0.53200
O 	O 	0.17599 0.01305 0.32920 -0.47600
O 	O 	0.16360 0.02025 0.54440 -0.46800
O 	O 	0.14731 0.01994 0.35110 -0.47200
O 	O 	0.14154 0.98960 0.16500 -0.47500
O 	O 	0.15417 0.97738 0.95780 -0.43000
O 	O 	0.17114 0.98220 0.15360 -0.42900
O 	O 	0.10617 0.00570 0.30610 -0.52400
O 	O 	0.09160 0.01830 0.12260 -0.44600
O 	O 	0.12014 0.01970 0.13330 -0.45100
O 	O 	0.05660 0.02210 0.03900 -0.48200
O 	O 	0.04090 0.01870 0.84340 -0.47400
O 	O 	0.07040 0.01110 0.84200 -0.49200
O 	O 	0.04940 0.02260 0.54500 -0.44900
O 	O 	0.03520 0.01110 0.33700 -0.48800
O 	O 	0.06530 0.01930 0.34400 -0.46200
O 	O 	0.01470 0.01890 0.62440 -0.43600
H 	H 	0.10520 0.03320 0.30130 -0.06700
H 	H 	0.15230 0.96320 0.17850 -0.01500
H 	H 	0.06200 0.03480 0.82350 -0.03800
H 	H 	0.21920 0.00620 0.36550 0.00200
H 	H 	0.16780 0.04190 0.37200 -0.00100
H 	H 	0.04310 0.03750 0.34520 -0.01400
Ga	Ga	0.72864 0.49864 0.49950 1.08900
Zn	Zn	0.73958 0.57221 0.57640 1.23100
Zn	Zn	0.76280 0.60891 0.42090 1.23100
Zn	Zn	0.76177 0.67937 0.41320 1.22700
Zn	Zn	0.76170 0.71485 0.91400 1.23000
P 	P 	0.74078 0.53518 0.52720 0.47600
P 	P 	0.77260 0.58623 0.64800 0.45900
P 	P 	0.72859 0.59566 0.35990 0.42300
P 	P 	0.76963 0.64438 0.46650 0.47200
P 	P 	0.77209 0.69248 0.14320 0.45900
P 	P 	0.77186 0.70163 0.64340 0.39700
O 	O 	0.73439 0.55061 0.58510 -0.43700
O 	O 	0.72816 0.52195 0.54360 -0.53100
O 	O 	0.74576 0.53744 0.38320 -0.52700
O 	O 	0.76305 0.57401 0.57920 -0.47500
O 	O 	0.77025 0.58640 0.79440 -0.46400
O 	O 	0.76994 0.60269 0.60110 -0.47100
O 	O 	0.73960 0.60846 0.41500 -0.47300
O 	O 	0.72738 0.59583 0.20780 -0.44400
O 	O 	0.73220 0.57886 0.40360 -0.42800
O 	O 	0.75570 0.64383 0.55610 -0.52200
O 	O 	0.76830 0.65840 0.37260 -0.44200
O 	O 	0.76970 0.62986 0.38330 -0.44800
O 	O 	0.77210 0.69340 0.28900 -0.47000
O 	O 	0.76870 0.70910 0.09340 -0.48300
O 	O 	0.76110 0.67960 0.09200 -0.49800
O 	O 	0.77260 0.70060 0.79500 -0.44600
O 	O 	0.76110 0.71480 0.58700 -0.48700
O 	O 	0.76930 0.68470 0.59400 -0.46100
O 	O 	0.76890 0.73530 0.87440 -0.43500
H 	H 	0.78320 0.64480 0.55130 -0.06600
H 	H 	0.71320 0.59770 0.42850 -0.01400
H 	H 	0.78480 0.68800 0.07350 -0.04200
H 	H 	0.75620 0.53080 0.61550 0.00200
H 	H 	0.79190 0.58220 0.62200 0.00100
H 	H 	0.78750 0.70690 0.59520 -0.01300
Ga	Ga	0.22864 0.99864 0.99950 1.12900
Zn	Zn	0.23958 0.07221 0.07640 1.22900
Zn	Zn	0.26280 0.10891 0.92090 1.23300
Zn	Zn	0.26177 0.17937 0.91320 1.22900
Zn	Zn	0.26170 0.21485 0.41400 1.22800
P 	P 	0.24078 0.03518 0.02720 0.46600
P 	P 	0.27260 0.08623 0.14800 0.45800
P 	P 	0.22859 0.09566 0.85990 0.42300
P 	P 	0.26963 0.14438 0.96650 0.48700
P 	P 	0.27209 0.19248 0.64320 0.45900
P 	P 	0.27186 0.20163 0.14340 0.39700
O 	O 	0.23439 0.05061 0.08510 -0.43900
O 	O 	0.22816 0.02195 0.04360 -0.53300
O 	O 	0.24576 0.03744 0.88320 -0.51700
O 	O 	0.26305 0.07401 0.07920 -0.47900
O 	O 	0.27025 0.08640 0.29440 -0.46800
O 	O 	0.26994 0.10269 0.10110 -0.47700
O 	O 	0.23960 0.10846 0.91500 -0.46900
O 	O 	0.22738 0.09583 0.70780 -0.43900
O 	O 	0.23220 0.07886 0.90360 -0.42100
O 	O 	0.25570 0.14383 0.05610 -0.53300
O 	O 	0.26830 0.15840 0.87260 -0.44100
O 	O 	0.26970 0.12986 0.88330 -0.44700
O 	O 	0.27210 0.19340 0.78900 -0.46700
O 	O 	0.26870 0.20910 0.59340 -0.47600
O 	O 	0.26110 0.17960 0.59200 -0.49400
O 	O 	0.27260 0.20060 0.29500 -0.44900
O 	O 	0.26110 0.21480 0.08700 -0.49000
O 	O 	0.26930 0.18470 0.09400 -0.46600
O 	O 	0.26890 0.23530 0.37440 -0.43600
H 	H 	0.28320 0.14480 0.05130 -0.07300
H 	H 	0.21320 0.09770 0.92850 -0.01000
H 	H 	0.28480 0.18800 0.57350 -0.03800
H 	H 	0.25620 0.03080 0.11550 0.00000
H 	H 	0.29190 0.08220 0.12200 -0.00200
H 	H 	0.28750 0.20690 0.09520 -0.01500
Ga	Ga	0.77136 0.50136 0.99950 1.12900
Zn	Zn	0.76042 0.42779 0.07640 1.22900
Zn	Zn	0.73720 0.39109 0.92090 1.23300
Zn	Zn	0.73823 0.32063 0.91320 1.22900
Zn	Zn	0.73830 0.28515 0.41400 1.22800
P 	P 	0.75922 0.46482 0.02720 0.46600
P 	P 	0.72740 0.41377 0.14800 0.45800
P 	P 	0.77141 0.40434 0.85990 0.42300
P 	P 	0.73037 0.35562 0.96650 0.48700
P 	P 	0.72791 0.30752 0.64320 0.45900
P 	P 	0.72814 0.29837 0.14340 0.39700
O 	O 	0.76561 0.44939 0.08510 -0.43900
O 	O 	0.77184 0.47805 0.04360 -0.53300
O 	O 	0.75424 0.46256 0.88320 -0.51700
O 	O 	0.73695 0.42599 0.07920 -0.47900
O 	O 	0.72975 0.41360 0.29440 -0.46800
O 	O 	0.73006 0.39731 0.10110 -0.47700
O 	O 	0.76040 0.39154 0.91500 -0.46900
O 	O 	0.77262 0.40417 0.70780 -0.43900
O 	O 	0.76780 0.42114 0.90360 -0.42100
O 	O 	0.74430 0.35617 0.05610 -0.53300
O 	O 	0.73170 0.34160 0.87260 -0.44100
O 	O 	0.73030 0.37014 0.88330 -0.44700
O 	O 	0.72790 0.30660 0.78900 -0.46700
O 	O 	0.73130 0.29090 0.59340 -0.47600
O 	O 	0.73890 0.32040 0.59200 -0.49400
O 	O 	0.72740 0.29940 0.29500 -0.44900
O 	O 	0.73890 0.28520 0.08700 -0.49000
O 	O 	0.73070 0.31530 0.09400 -0.46600
O 	O 	0.73110 0.26470 0.37440 -0.43600
H 	H 	0.71680 0.35520 0.05130 -0.07300
H 	H 	0.78680 0.40230 0.92850 -0.01000
H 	H 	0.71520 0.31200 0.57350 -0.03800
H 	H 	0.74380 0.46920 0.11550 0.00000
H 	H 	0.70810 0.41780 0.12200 -0.00200
H 	H 	0.71250 0.29310 0.09520 -0.01500
Ga	Ga	0.27136 0.00136 0.49950 1.08900
Zn	Zn	0.26042 0.92779 0.57640 1.23100
Zn	Zn	0.23720 0.89109 0.42090 1.23100
Zn	Zn	0.23823 0.82063 0.41320 1.22700
Zn	Zn	0.23830 0.78515 0.91400 1.23000
P 	P 	0.25922 0.96482 0.52720 0.47600
P 	P 	0.22740 0.91377 0.64800 0.45900
P 	P 	0.27141 0.90434 0.35990 0.42300
P 	P 	0.23037 0.85562 0.46650 0.47200
P 	P 	0.22791 0.80752 0.14320 0.45900
P 	P 	0.22814 0.79837 0.64340 0.39700
O 	O 	0.26561 0.94939 0.58510 -0.43700
O 	O 	0.27184 0.97805 0.54360 -0.53100
O 	O 	0.25424 0.96256 0.38320 -0.52700
O 	O 	0.23695 0.92599 0.57920 -0.47500
O 	O 	0.22975 0.91360 0.79440 -0.46400
O 	O 	0.23006 0.89731 0.60110 -0.47100
O 	O 	0.26040 0.89154 0.41500 -0.47300
O 	O 	0.27262 0.90417 0.20780 -0.44400
O 	O 	0.26780 0.92114 0.40360 -0.42800
O 	O 	0.24430 0.85617 0.55610 -0.52200
O 	O 	0.23170 0.84160 0.37260 -0.44200
O 	O 	0.23030 0.87014 0.38330 -0.44800
O 	O 	0.22790 0.80660 0.28900 -0.47000
O 	O 	0.23130 0.79090 0.09340 -0.48300
O 	O 	0.23890 0.82040 0.09200 -0.49800
O 	O 	0.22740 0.79940 0.79500 -0.44600
O 	O 	0.23890 0.78520 0.58700 -0.48700
O 	O 	0.23070 0.81530 0.59400 -0.46100
O 	O 	0.23110 0.76470 0.87440 -0.43500
H 	H 	0.21680 0.85520 0.55130 -0.06600
H 	H 	0.28680 0.90230 0.42850 -0.01400
H 	H 	0.21520 0.81200 0.07350 -0.04200
H 	H 	0.24380 0.96920 0.61550 0.00200
H 	H 	0.20810 0.91780 0.62200 0.00100
H 	H 	0.21250 0.79310 0.59520 -0.01300
Ga	Ga	0.75136 0.52136 0.25050 1.08900
Zn	Zn	0.67779 0.51042 0.17360 1.23100
Zn	Zn	0.64109 0.48720 0.32910 1.23100
Zn	Zn	0.57063 0.48823 0.33680 1.22700
Zn	Zn	0.53515 0.48830 0.83600 1.22900
P 	P 	0.71482 0.50922 0.22280 0.47500
P 	P 	0.66377 0.47740 0.10200 0.44600
P 	P 	0.65434 0.52141 0.39010 0.42300
P 	P 	0.60562 0.48037 0.28350 0.47200
P 	P 	0.55752 0.47791 0.60680 0.45900
P 	P 	0.54837 0.47814 0.10660 0.38200
O 	O 	0.69939 0.51561 0.16490 -0.44100
O 	O 	0.72805 0.52184 0.20640 -0.53400
O 	O 	0.71256 0.50424 0.36680 -0.52700
O 	O 	0.67599 0.48695 0.17080 -0.47600
O 	O 	0.66360 0.47975 0.95560 -0.45400
O 	O 	0.64731 0.48006 0.14890 -0.47400
O 	O 	0.64154 0.51040 0.33500 -0.47400
O 	O 	0.65417 0.52262 0.54220 -0.44000
O 	O 	0.67114 0.51780 0.34640 -0.42700
O 	O 	0.60617 0.49430 0.19390 -0.52600
O 	O 	0.59160 0.48170 0.37740 -0.44200
O 	O 	0.62014 0.48030 0.36670 -0.44800
O 	O 	0.55660 0.47790 0.46100 -0.47000
O 	O 	0.54090 0.48130 0.65660 -0.47600
O 	O 	0.57040 0.48890 0.65800 -0.49200
O 	O 	0.54940 0.47740 0.95500 -0.43400
O 	O 	0.53520 0.48890 0.16300 -0.48900
O 	O 	0.56530 0.48070 0.15600 -0.46400
O 	O 	0.51470 0.48110 0.87560 -0.43000
H 	H 	0.60520 0.46680 0.19870 -0.06900
H 	H 	0.65230 0.53680 0.32150 -0.01500
H 	H 	0.56200 0.46520 0.67650 -0.03700
H 	H 	0.71920 0.49380 0.13450 -0.00100
H 	H 	0.66780 0.45810 0.12800 -0.00200
H 	H 	0.54310 0.46250 0.15480 -0.01600
Ga	Ga	0.25136 0.02136 0.75050 1.08900
Zn	Zn	0.17779 0.01042 0.67360 1.23200
Zn	Zn	0.14109 0.98720 0.82910 1.23100
Zn	Zn	0.07063 0.98823 0.83680 1.22800
Zn	Zn	0.03515 0.98830 0.33600 1.22700
P 	P 	0.21482 0.00922 0.72280 0.47600
P 	P 	0.16377 0.97740 0.60200 0.45900
P 	P 	0.15434 0.02141 0.89010 0.43300
P 	P 	0.10562 0.98037 0.78350 0.47200
P 	P 	0.05752 0.97791 0.10680 0.44700
P 	P 	0.04837 0.97814 0.60660 0.39700
O 	O 	0.19939 0.01561 0.66490 -0.43600
O 	O 	0.22805 0.02184 0.70640 -0.53000
O 	O 	0.21256 0.00424 0.86680 -0.52100
O 	O 	0.17599 0.98695 0.67080 -0.47400
O 	O 	0.16360 0.97975 0.45560 -0.46800
O 	O 	0.14731 0.98006 0.64890 -0.47200
O 	O 	0.14154 0.01040 0.83500 -0.47100
O 	O 	0.15417 0.02262 0.04220 -0.44900
O 	O 	0.17114 0.01780 0.84640 -0.42500
O 	O 	0.10617 0.99430 0.69390 -0.52200
O 	O 	0.09160 0.98170 0.87740 -0.43700
O 	O 	0.12014 0.98030 0.86670 -0.44400
O 	O 	0.05660 0.97790 0.96100 -0.45800
O 	O 	0.04090 0.98130 0.15660 -0.47900
O 	O 	0.07040 0.98890 0.15800 -0.49500
O 	O 	0.04940 0.97740 0.45500 -0.44900
O 	O 	0.03520 0.98890 0.66300 -0.48500
O 	O 	0.06530 0.98070 0.65600 -0.46200
O 	O 	0.01470 0.98110 0.37560 -0.43600
H 	H 	0.10520 0.96680 0.69870 -0.06600
H 	H 	0.15230 0.03680 0.82150 -0.01200
H 	H 	0.06200 0.96520 0.17650 -0.04000
H 	H 	0.21920 0.99380 0.63450 0.00200
H 	H 	0.16780 0.95810 0.62800 0.00100
H 	H 	0.04310 0.96250 0.65480 -0.01200
Ga	Ga	0.74864 0.47864 0.75050 1.08900
Zn	Zn	0.82221 0.48958 0.67360 1.23200
Zn	Zn	0.85891 0.51280 0.82910 1.23100
Zn	Zn	0.92937 0.51177 0.83680 1.22800
Zn	Zn	0.96485 0.51170 0.33600 1.22700
P 	P 	0.78518 0.49078 0.72280 0.47600
P 	P 	0.83623 0.52260 0.60200 0.45900
P 	P 	0.84566 0.47859 0.89010 0.43300
P 	P 	0.89438 0.51963 0.78350 0.47200
P 	P 	0.94248 0.52209 0.10680 0.44700
P 	P 	0.95163 0.52186 0.60660 0.39700
O 	O 	0.80061 0.48439 0.66490 -0.43600
O 	O 	0.77195 0.47816 0.70640 -0.53000
O 	O 	0.78744 0.49576 0.86680 -0.52100
O 	O 	0.82401 0.51305 0.67080 -0.47400
O 	O 	0.83640 0.52025 0.45560 -0.46800
O 	O 	0.85269 0.51994 0.64890 -0.47200
O 	O 	0.85846 0.48960 0.83500 -0.47100
O 	O 	0.84583 0.47738 0.04220 -0.44900
O 	O 	0.82886 0.48220 0.84640 -0.42500
O 	O 	0.89383 0.50570 0.69390 -0.52200
O 	O 	0.90840 0.51830 0.87740 -0.43700
O 	O 	0.87986 0.51970 0.86670 -0.44400
O 	O 	0.94340 0.52210 0.96100 -0.45800
O 	O 	0.95910 0.51870 0.15660 -0.47900
O 	O 	0.92960 0.51110 0.15800 -0.49500
O 	O 	0.95060 0.52260 0.45500 -0.44900
O 	O 	0.96480 0.51110 0.66300 -0.48500
O 	O 	0.93470 0.51930 0.65600 -0.46200
O 	O 	0.98530 0.51890 0.37560 -0.43600
H 	H 	0.89480 0.53320 0.69870 -0.06600
H 	H 	0.84770 0.46320 0.82150 -0.01200
H 	H 	0.93800 0.53480 0.17650 -0.04000
H 	H 	0.78080 0.50620 0.63450 0.00200
H 	H 	0.83220 0.54190 0.62800 0.00100
H 	H 	0.95690 0.53750 0.65480 -0.01200
Ga	Ga	0.24864 0.97864 0.25050 1.08900
Zn	Zn	0.32221 0.98958 0.17360 1.23100
Zn	Zn	0.35891 0.01280 0.32910 1.23100
Zn	Zn	0.42937 0.01177 0.33680 1.22700
Zn	Zn	0.46485 0.01170 0.83600 1.22900
P 	P 	0.28518 0.99078 0.22280 0.47500
P 	P 	0.33623 0.02260 0.10200 0.44600
P 	P 	0.34566 0.97859 0.39010 0.42300
P 	P 	0.39438 0.01963 0.28350 0.47200
P 	P 	0.44248 0.02209 0.60680 0.45900
P 	P 	0.45163 0.02186 0.10660 0.38200
O 	O 	0.30061 0.98439 0.16490 -0.44100
O 	O 	0.27195 0.97816 0.20640 -0.53400
O 	O 	0.28744 0.99576 0.36680 -0.52700
O 	O 	0.32401 0.01305 0.17080 -0.47600
O 	O 	0.33640 0.02025 0.95560 -0.45400
O 	O 	0.35269 0.01994 0.14890 -0.47400
O 	O 	0.35846 0.98960 0.33500 -0.47400
O 	O 	0.34583 0.97738 0.54220 -0.44000
O 	O 	0.32886 0.98220 0.34640 -0.42700
O 	O 	0.39383 0.00570 0.19390 -0.52600
O 	O 	0.40840 0.01830 0.37740 -0.44200
O 	O 	0.37986 0.01970 0.36670 -0.44800
O 	O 	0.44340 0.02210 0.46100 -0.47000
O 	O 	0.45910 0.01870 0.65660 -0.47600
O 	O 	0.42960 0.01110 0.65800 -0.49200
O 	O 	0.45060 0.02260 0.95500 -0.43400
O 	O 	0.46480 0.01110 0.16300 -0.48900
O 	O 	0.43470 0.01930 0.15600 -0.46400
O 	O 	0.48530 0.01890 0.87560 -0.43000
H 	H 	0.39480 0.03320 0.19870 -0.06900
H 	H 	0.34770 0.96320 0.32150 -0.01500
H 	H 	0.43800 0.03480 0.67650 -0.03700
H 	H 	0.28080 0.00620 0.13450 -0.00100
H 	H 	0.33220 0.04190 0.12800 -0.00200
H 	H 	0.45690 0.03750 0.15480 -0.01600
Ga	Ga	0.77136 0.49864 0.00050 1.04900
Zn	Zn	0.76042 0.57221 0.92360 1.23400
Zn	Zn	0.73720 0.60891 0.07910 1.22800
Zn	Zn	0.73823 0.67937 0.08680 1.22400
Zn	Zn	0.73830 0.71485 0.58600 1.22700
P 	P 	0.75922 0.53518 0.97280 0.48700
P 	P 	0.72740 0.58623 0.85200 0.45900
P 	P 	0.77141 0.59566 0.14010 0.42300
P 	P 	0.73037 0.64438 0.03350 0.45100
P 	P 	0.72791 0.69248 0.35680 0.45900
P 	P 	0.72814 0.70163 0.85660 0.39800
O 	O 	0.76561 0.55061 0.91490 -0.43500
O 	O 	0.77184 0.52195 0.95640 -0.52900
O 	O 	0.75424 0.53744 0.11680 -0.53700
O 	O 	0.73695 0.57401 0.92080 -0.47000
O 	O 	0.72975 0.58640 0.70560 -0.46700
O 	O 	0.73006 0.60269 0.89890 -0.46600
O 	O 	0.76040 0.60846 0.08500 -0.47800
O 	O 	0.77262 0.59583 0.29220 -0.44000
O 	O 	0.76780 0.57886 0.09640 -0.43300
O 	O 	0.74430 0.64383 0.94390 -0.50900
O 	O 	0.73170 0.65840 0.12740 -0.44300
O 	O 	0.73030 0.62986 0.11670 -0.44900
O 	O 	0.72790 0.69340 0.21100 -0.47400
O 	O 	0.73130 0.70910 0.40660 -0.47800
O 	O 	0.73890 0.67960 0.40800 -0.49400
O 	O 	0.72740 0.70060 0.70500 -0.44900
O 	O 	0.73890 0.71480 0.91300 -0.48200
O 	O 	0.73070 0.68470 0.90600 -0.45600
O 	O 	0.73110 0.73530 0.62560 -0.43500
H 	H 	0.71680 0.64480 0.94870 -0.05700
H 	H 	0.78680 0.59770 0.07150 -0.01700
H 	H 	0.71520 0.68800 0.42650 -0.03900
H 	H 	0.74380 0.53080 0.88450 0.00300
H 	H 	0.70810 0.58220 0.87800 0.00400
H 	H 	0.71250 0.70690 0.90480 -0.01000
Ga	Ga	0.27136 0.99864 0.50050 1.08900
Zn	Zn	0.26042 0.07221 0.42360 1.23100
Zn	Zn	0.23720 0.10891 0.57910 1.23100
Zn	Zn	0.23823 0.17937 0.58680 1.22700
Zn	Zn	0.23830 0.21485 0.08600 1.22600
P 	P 	0.25922 0.03518 0.47280 0.47600
P 	P 	0.22740 0.08623 0.35200 0.45900
P 	P 	0.27141 0.09566 0.64010 0.42300
P 	P 	0.23037 0.14438 0.53350 0.47200
P 	P 	0.22791 0.19248 0.85680 0.45900
P 	P 	0.22814 0.20163 0.35660 0.39700
O 	O 	0.26561 0.05061 0.41490 -0.43700
O 	O 	0.27184 0.02195 0.45640 -0.53100
O 	O 	0.25424 0.03744 0.61680 -0.52600
O 	O 	0.23695 0.07401 0.42080 -0.47500
O 	O 	0.22975 0.08640 0.20560 -0.47100
O 	O 	0.23006 0.10269 0.39890 -0.47300
O 	O 	0.26040 0.10846 0.58500 -0.47300
O 	O 	0.27262 0.09583 0.79220 -0.43600
O 	O 	0.26780 0.07886 0.59640 -0.42600
O 	O 	0.24430 0.14383 0.44390 -0.52300
O 	O 	0.23170 0.15840 0.62740 -0.44100
O 	O 	0.23030 0.12986 0.61670 -0.44700
O 	O 	0.22790 0.19340 0.71100 -0.46900
O 	O 	0.23130 0.20910 0.90660 -0.47200
O 	O 	0.23890 0.17960 0.90800 -0.49100
O 	O 	0.22740 0.20060 0.20500 -0.45200
O 	O 	0.23890 0.21480 0.41300 -0.48700
O 	O 	0.23070 0.18470 0.40600 -0.46300
O 	O 	0.23110 0.23530 0.12560 -0.43700
H 	H 	0.21680 0.14480 0.44870 -0.06700
H 	H 	0.28680 0.09770 0.57150 -0.01300
H 	H 	0.21520 0.18800 0.92650 -0.03600
H 	H 	0.24380 0.03080 0.38450 0.00200
H 	H 	0.20810 0.08220 0.37800 -0.00100
H 	H 	0.21250 0.20690 0.40480 -0.01400
Ga	Ga	0.72864 0.50136 0.50050 1.08900
Zn	Zn	0.73958 0.42779 0.42360 1.23100
Zn	Zn	0.76280 0.39109 0.57910 1.23100
Zn	Zn	0.76177 0.32063 0.58680 1.22700
Zn	Zn	0.76170 0.28515 0.08600 1.22600
P 	P 	0.74078 0.46482 0.47280 0.47600
P 	P 	0.77260 0.41377 0.35200 0.45900
P 	P 	0.72859 0.40434 0.64010 0.42300
P 	P 	0.76963 0.35562 0.53350 0.47200
P 	P 	0.77209 0.30752 0.85680 0.45900
P 	P 	0.77186 0.29837 0.35660 0.39700
O 	O 	0.73439 0.44939 0.41490 -0.43700
O 	O 	0.72816 0.47805 0.45640 -0.53100
O 	O 	0.74576 0.46256 0.61680 -0.52600
O 	O 	0.76305 0.42599 0.42080 -0.47500
O 	O 	0.77025 0.41360 0.20560 -0.47100
O 	O 	0.76994 0.39731 0.39890 -0.47300
O 	O 	0.73960 0.39154 0.58500 -0.47300
O 	O 	0.72738 0.40417 0.79220 -0.43600
O 	O 	0.73220 0.42114 0.59640 -0.42600
O 	O 	0.75570 0.35617 0.44390 -0.52300
O 	O 	0.76830 0.34160 0.62740 -0.44100
O 	O 	0.76970 0.37014 0.61670 -0.44700
O 	O 	0.77210 0.30660 0.71100 -0.46900
O 	O 	0.76870 0.29090 0.90660 -0.47200
O 	O 	0.76110 0.32040 0.90800 -0.49100
O 	O 	0.77260 0.29940 0.20500 -0.45200
O 	O 	0.76110 0.28520 0.41300 -0.48700
O 	O 	0.76930 0.31530 0.40600 -0.46300
O 	O 	0.76890 0.26470 0.12560 -0.43700
H 	H 	0.78320 0.35520 0.44870 -0.06700
H 	H 	0.71320 0.40230 0.57150 -0.01300
H 	H 	0.78480 0.31200 0.92650 -0.03600
H 	H 	0.75620 0.46920 0.38450 0.00200
H 	H 	0.79190 0.41780 0.37800 -0.00100
H 	H 	0.78750 0.29310 0.40480 -0.01400
Ga	Ga	0.22864 0.00136 0.00050 1.04900
Zn	Zn	0.23958 0.92779 0.92360 1.23400
Zn	Zn	0.26280 0.89109 0.07910 1.22800
Zn	Zn	0.26177 0.82063 0.08680 1.22400
Zn	Zn	0.26170 0.78515 0.58600 1.22700
P 	P 	0.24078 0.96482 0.97280 0.48700
P 	P 	0.27260 0.91377 0.85200 0.45900
P 	P 	0.22859 0.90434 0.14010 0.42300
P 	P 	0.26963 0.85562 0.03350 0.45100
P 	P 	0.27209 0.80752 0.35680 0.45900
P 	P 	0.27186 0.79837 0.85660 0.39800
O 	O 	0.23439 0.94939 0.91490 -0.43500
O 	O 	0.22816 0.97805 0.95640 -0.52900
O 	O 	0.24576 0.96256 0.11680 -0.53700
O 	O 	0.26305 0.92599 0.92080 -0.47000
O 	O 	0.27025 0.91360 0.70560 -0.46700
O 	O 	0.26994 0.89731 0.89890 -0.46600
O 	O 	0.23960 0.89154 0.08500 -0.47800
O 	O 	0.22738 0.90417 0.29220 -0.44000
O 	O 	0.23220 0.92114 0.09640 -0.43300
O 	O 	0.25570 0.85617 0.94390 -0.50900
O 	O 	0.26830 0.84160 0.12740 -0.44300
O 	O 	0.26970 0.87014 0.11670 -0.44900
O 	O 	0.27210 0.80660 0.21100 -0.47400
O 	O 	0.26870 0.79090 0.40660 -0.47800
O 	O 	0.26110 0.82040 0.40800 -0.49400
O 	O 	0.27260 0.79940 0.70500 -0.44900
O 	O 	0.26110 0.78520 0.91300 -0.48200
O 	O 	0.26930 0.81530 0.90600 -0.45600
O 	O 	0.26890 0.76470 0.62560 -0.43500
H 	H 	0.28320 0.85520 0.94870 -0.05700
H 	H 	0.21320 0.90230 0.07150 -0.01700
H 	H 	0.28480 0.81200 0.42650 -0.03900
H 	H 	0.25620 0.96920 0.88450 0.00300
H 	H 	0.29190 0.91780 0.87800 0.00400
H 	H 	0.28750 0.79310 0.90480 -0.01000
Ga	Ga	0.25136 0.47864 0.75050 1.08900
Zn	Zn	0.17779 0.48958 0.67360 1.23200
Zn	Zn	0.14109 0.51280 0.82910 1.23100
Zn	Zn	0.07063 0.51177 0.83680 1.22800
Zn	Zn	0.03515 0.51170 0.33600 1.22700
P 	P 	0.21482 0.49078 0.72280 0.47600
P 	P 	0.16377 0.52260 0.60200 0.45900
P 	P 	0.15434 0.47859 0.89010 0.43300
P 	P 	0.10562 0.51963 0.78350 0.47200
P 	P 	0.05752 0.52209 0.10680 0.44700
P 	P 	0.04837 0.52186 0.60660 0.39700
O 	O 	0.19939 0.48439 0.66490 -0.43600
O 	O 	0.22805 0.47816 0.70640 -0.53000
O 	O 	0.21256 0.49576 0.86680 -0.52100
O 	O 	0.17599 0.51305 0.67080 -0.47400
O 	O 	0.16360 0.52025 0.45560 -0.46800
O 	O 	0.14731 0.51994 0.64890 -0.47200
O 	O 	0.14154 0.48960 0.83500 -0.47100
O 	O 	0.15417 0.47738 0.04220 -0.44900
O 	O 	0.17114 0.48220 0.84640 -0.42500
O 	O 	0.10617 0.50570 0.69390 -0.52200
O 	O 	0.09160 0.51830 0.87740 -0.43700
O 	O 	0.12014 0.51970 0.86670 -0.44400
O 	O 	0.05660 0.52210 0.96100 -0.45800
O 	O 	0.04090 0.51870 0.15660 -0.47900
O 	O 	0.07040 0.51110 0.15800 -0.49500
O 	O 	0.04940 0.52260 0.45500 -0.44900
O 	O 	0.03520 0.51110 0.66300 -0.48500
O 	O 	0.06530 0.51930 0.65600 -0.46200
O 	O 	0.01470 0.51890 0.37560 -0.43600
H 	H 	0.10520 0.53320 0.69870 -0.06600
H 	H 	0.15230 0.46320 0.82150 -0.01200
H 	H 	0.06200 0.53480 0.17650 -0.04000
H 	H 	0.21920 0.50620 0.63450 0.00200
H 	H 	0.16780 0.54190 0.62800 0.00100
H 	H 	0.04310 0.53750 0.65480 -0.01200
Ga	Ga	0.75136 0.97864 0.25050 1.08900
Zn	Zn	0.67779 0.98958 0.17360 1.23100
Zn	Zn	0.64109 0.01280 0.32910 1.23100
Zn	Zn	0.57063 0.01177 0.33680 1.22700
Zn	Zn	0.53515 0.01170 0.83600 1.22900
P 	P 	0.71482 0.99078 0.22280 0.47500
P 	P 	0.66377 0.02260 0.10200 0.44600
P 	P 	0.65434 0.97859 0.39010 0.42300
P 	P 	0.60562 0.01963 0.28350 0.47200
P 	P 	0.55752 0.02209 0.60680 0.45900
P 	P 	0.54837 0.02186 0.10660 0.38200
O 	O 	0.69939 0.98439 0.16490 -0.44100
O 	O 	0.72805 0.97816 0.20640 -0.53400
O 	O 	0.71256 0.99576 0.36680 -0.52700
O 	O 	0.67599 0.01305 0.17080 -0.47600
O 	O 	0.66360 0.02025 0.95560 -0.45400
O 	O 	0.64731 0.01994 0.14890 -0.47400
O 	O 	0.64154 0.98960 0.33500 -0.47400
O 	O 	0.65417 0.97738 0.54220 -0.44000
O 	O 	0.67114 0.98220 0.34640 -0.42700
O 	O 	0.60617 0.00570 0.19390 -0.52600
O 	O 	0.59160 0.01830 0.37740 -0.44200
O 	O 	0.62014 0.01970 0.36670 -0.44800
O 	O 	0.55660 0.02210 0.46100 -0.47000
O 	O 	0.54090 0.01870 0.65660 -0.47600
O 	O 	0.57040 0.01110 0.65800 -0.49200
O 	O 	0.54940 0.02260 0.95500 -0.43400
O 	O 	0.53520 0.01110 0.16300 -0.48900
O 	O 	0.56530 0.01930 0.15600 -0.46400
O 	O 	0.51470 0.01890 0.87560 -0.43000
H 	H 	0.60520 0.03320 0.19870 -0.06900
H 	H 	0.65230 0.96320 0.32150 -0.01500
H 	H 	0.56200 0.03480 0.67650 -0.03700
H 	H 	0.71920 0.00620 0.13450 -0.00100
H 	H 	0.66780 0.04190 0.12800 -0.00200
H 	H 	0.54310 0.03750 0.15480 -0.01600
Ga	Ga	0.24864 0.52136 0.25050 1.08900
Zn	Zn	0.32221 0.51042 0.17360 1.23100
Zn	Zn	0.35891 0.48720 0.32910 1.23100
Zn	Zn	0.42937 0.48823 0.33680 1.22700
Zn	Zn	0.46485 0.48830 0.83600 1.22900
P 	P 	0.28518 0.50922 0.22280 0.47500
P 	P 	0.33623 0.47740 0.10200 0.44600
P 	P 	0.34566 0.52141 0.39010 0.42300
P 	P 	0.39438 0.48037 0.28350 0.47200
P 	P 	0.44248 0.47791 0.60680 0.45900
P 	P 	0.45163 0.47814 0.10660 0.38200
O 	O 	0.30061 0.51561 0.16490 -0.44100
O 	O 	0.27195 0.52184 0.20640 -0.53400
O 	O 	0.28744 0.50424 0.36680 -0.52700
O 	O 	0.32401 0.48695 0.17080 -0.47600
O 	O 	0.33640 0.47975 0.95560 -0.45400
O 	O 	0.35269 0.48006 0.14890 -0.47400
O 	O 	0.35846 0.51040 0.33500 -0.47400
O 	O 	0.34583 0.52262 0.54220 -0.44000
O 	O 	0.32886 0.51780 0.34640 -0.42700
O 	O 	0.39383 0.49430 0.19390 -0.52600
O 	O 	0.40840 0.48170 0.37740 -0.44200
O 	O 	0.37986 0.48030 0.36670 -0.44800
O 	O 	0.44340 0.47790 0.46100 -0.47000
O 	O 	0.45910 0.48130 0.65660 -0.47600
O 	O 	0.42960 0.48890 0.65800 -0.49200
O 	O 	0.45060 0.47740 0.95500 -0.43400
O 	O 	0.46480 0.48890 0.16300 -0.48900
O 	O 	0.43470 0.48070 0.15600 -0.46400
O 	O 	0.48530 0.48110 0.87560 -0.43000
H 	H 	0.39480 0.46680 0.19870 -0.06900
H 	H 	0.34770 0.53680 0.32150 -0.01500
H 	H 	0.43800 0.46520 0.67650 -0.03700
H 	H 	0.28080 0.49380 0.13450 -0.00100
H 	H 	0.33220 0.45810 0.12800 -0.00200
H 	H 	0.45690 0.46250 0.15480 -0.01600
Ga	Ga	0.74864 0.02136 0.75050 1.08900
Zn	Zn	0.82221 0.01042 0.67360 1.23200
Zn	Zn	0.85891 0.98720 0.82910 1.23100
Zn	Zn	0.92937 0.98823 0.83680 1.22800
Zn	Zn	0.96485 0.98830 0.33600 1.22700
P 	P 	0.78518 0.00922 0.72280 0.47600
P 	P 	0.83623 0.97740 0.60200 0.45900
P 	P 	0.84566 0.02141 0.89010 0.43300
P 	P 	0.89438 0.98037 0.78350 0.47200
P 	P 	0.94248 0.97791 0.10680 0.44700
P 	P 	0.95163 0.97814 0.60660 0.39700
O 	O 	0.80061 0.01561 0.66490 -0.43600
O 	O 	0.77195 0.02184 0.70640 -0.53000
O 	O 	0.78744 0.00424 0.86680 -0.52100
O 	O 	0.82401 0.98695 0.67080 -0.47400
O 	O 	0.83640 0.97975 0.45560 -0.46800
O 	O 	0.85269 0.98006 0.64890 -0.47200
O 	O 	0.85846 0.01040 0.83500 -0.47100
O 	O 	0.84583 0.02262 0.04220 -0.44900
O 	O 	0.82886 0.01780 0.84640 -0.42500
O 	O 	0.89383 0.99430 0.69390 -0.52200
O 	O 	0.90840 0.98170 0.87740 -0.43700
O 	O 	0.87986 0.98030 0.86670 -0.44400
O 	O 	0.94340 0.97790 0.96100 -0.45800
O 	O 	0.95910 0.98130 0.15660 -0.47900
O 	O 	0.92960 0.98890 0.15800 -0.49500
O 	O 	0.95060 0.97740 0.45500 -0.44900
O 	O 	0.96480 0.98890 0.66300 -0.48500
O 	O 	0.93470 0.98070 0.65600 -0.46200
O 	O 	0.98530 0.98110 0.37560 -0.43600
H 	H 	0.89480 0.96680 0.69870 -0.06600
H 	H 	0.84770 0.03680 0.82150 -0.01200
H 	H 	0.93800 0.96520 0.17650 -0.04000
H 	H 	0.78080 0.99380 0.63450 0.00200
H 	H 	0.83220 0.95810 0.62800 0.00100
H 	H 	0.95690 0.96250 0.65480 -0.01200
Ga	Ga	0.27136 0.50136 0.50050 1.08900
Zn	Zn	0.26042 0.42779 0.42360 1.23100
Zn	Zn	0.23720 0.39109 0.57910 1.23100
Zn	Zn	0.23823 0.32063 0.58680 1.22700
Zn	Zn	0.23830 0.28515 0.08600 1.22600
P 	P 	0.25922 0.46482 0.47280 0.47600
P 	P 	0.22740 0.41377 0.35200 0.45900
P 	P 	0.27141 0.40434 0.64010 0.42300
P 	P 	0.23037 0.35562 0.53350 0.47200
P 	P 	0.22791 0.30752 0.85680 0.45900
P 	P 	0.22814 0.29837 0.35660 0.39700
O 	O 	0.26561 0.44939 0.41490 -0.43700
O 	O 	0.27184 0.47805 0.45640 -0.53100
O 	O 	0.25424 0.46256 0.61680 -0.52600
O 	O 	0.23695 0.42599 0.42080 -0.47500
O 	O 	0.22975 0.41360 0.20560 -0.47100
O 	O 	0.23006 0.39731 0.39890 -0.47300
O 	O 	0.26040 0.39154 0.58500 -0.47300
O 	O 	0.27262 0.40417 0.79220 -0.43600
O 	O 	0.26780 0.42114 0.59640 -0.42600
O 	O 	0.24430 0.35617 0.44390 -0.52300
O 	O 	0.23170 0.34160 0.62740 -0.44100
O 	O 	0.23030 0.37014 0.61670 -0.44700
O 	O 	0.22790 0.30660 0.71100 -0.46900
O 	O 	0.23130 0.29090 0.90660 -0.47200
O 	O 	0.23890 0.32040 0.90800 -0.49100
O 	O 	0.22740 0.29940 0.20500 -0.45200
O 	O 	0.23890 0.28520 0.41300 -0.48700
O 	O 	0.23070 0.31530 0.40600 -0.46300
O 	O 	0.23110 0.26470 0.12560 -0.43700
H 	H 	0.21680 0.35520 0.44870 -0.06700
H 	H 	0.28680 0.40230 0.57150 -0.01300
H 	H 	0.21520 0.31200 0.92650 -0.03600
H 	H 	0.24380 0.46920 0.38450 0.00200
H 	H 	0.20810 0.41780 0.37800 -0.00100
H 	H 	0.21250 0.29310 0.40480 -0.01400
Ga	Ga	0.77136 0.00136 0.00050 1.04900
Zn	Zn	0.76042 0.92779 0.92360 1.23400
Zn	Zn	0.73720 0.89109 0.07910 1.22800
Zn	Zn	0.73823 0.82063 0.08680 1.22400
Zn	Zn	0.73830 0.78515 0.58600 1.22700
P 	P 	0.75922 0.96482 0.97280 0.48700
P 	P 	0.72740 0.91377 0.85200 0.45900
P 	P 	0.77141 0.90434 0.14010 0.42300
P 	P 	0.73037 0.85562 0.03350 0.45100
P 	P 	0.72791 0.80752 0.35680 0.45900
P 	P 	0.72814 0.79837 0.85660 0.39800
O 	O 	0.76561 0.94939 0.91490 -0.43500
O 	O 	0.77184 0.97805 0.95640 -0.52900
O 	O 	0.75424 0.96256 0.11680 -0.53700
O 	O 	0.73695 0.92599 0.92080 -0.47000
O 	O 	0.72975 0.91360 0.70560 -0.46700
O 	O 	0.73006 0.89731 0.89890 -0.46600
O 	O 	0.76040 0.89154 0.08500 -0.47800
O 	O 	0.77262 0.90417 0.29220 -0.44000
O 	O 	0.76780 0.92114 0.09640 -0.43300
O 	O 	0.74430 0.85617 0.94390 -0.50900
O 	O 	0.73170 0.84160 0.12740 -0.44300
O 	O 	0.73030 0.87014 0.11670 -0.44900
O 	O 	0.72790 0.80660 0.21100 -0.47400
O 	O 	0.73130 0.79090 0.40660 -0.47800
O 	O 	0.73890 0.82040 0.40800 -0.49400
O 	O 	0.72740 0.79940 0.70500 -0.44900
O 	O 	0.73890 0.78520 0.91300 -0.48200
O 	O 	0.73070 0.81530 0.90600 -0.45600
O 	O 	0.73110 0.76470 0.62560 -0.43500
H 	H 	0.71680 0.85520 0.94870 -0.05700
H 	H 	0.78680 0.90230 0.07150 -0.01700
H 	H 	0.71520 0.81200 0.42650 -0.03900
H 	H 	0.74380 0.96920 0.88450 0.00300
H 	H 	0.70810 0.91780 0.87800 0.00400
H 	H 	0.71250 0.79310 0.90480 -0.01000
Ga	Ga	0.22864 0.49864 0.00050 1.04900
Zn	Zn	0.23958 0.57221 0.92360 1.23400
Zn	Zn	0.26280 0.60891 0.07910 1.22800
Zn	Zn	0.26177 0.67937 0.08680 1.22400
Zn	Zn	0.26170 0.71485 0.58600 1.22700
P 	P 	0.24078 0.53518 0.97280 0.48700
P 	P 	0.27260 0.58623 0.85200 0.45900
P 	P 	0.22859 0.59566 0.14010 0.42300
P 	P 	0.26963 0.64438 0.03350 0.45100
P 	P 	0.27209 0.69248 0.35680 0.45900
P 	P 	0.27186 0.70163 0.85660 0.39800
O 	O 	0.23439 0.55061 0.91490 -0.43500
O 	O 	0.22816 0.52195 0.95640 -0.52900
O 	O 	0.24576 0.53744 0.11680 -0.53700
O 	O 	0.26305 0.57401 0.92080 -0.47000
O 	O 	0.27025 0.58640 0.70560 -0.46700
O 	O 	0.26994 0.60269 0.89890 -0.46600
O 	O 	0.23960 0.60846 0.08500 -0.47800
O 	O 	0.22738 0.59583 0.29220 -0.44000
O 	O 	0.23220 0.57886 0.09640 -0.43300
O 	O 	0.25570 0.64383 0.94390 -0.50900
O 	O 	0.26830 0.65840 0.12740 -0.44300
O 	O 	0.26970 0.62986 0.11670 -0.44900
O 	O 	0.27210 0.69340 0.21100 -0.47400
O 	O 	0.26870 0.70910 0.40660 -0.47800
O 	O 	0.26110 0.67960 0.40800 -0.49400
O 	O 	0.27260 0.70060 0.70500 -0.44900
O 	O 	0.26110 0.71480 0.91300 -0.48200
O 	O 	0.26930 0.68470 0.90600 -0.45600
O 	O 	0.26890 0.73530 0.62560 -0.43500
H 	H 	0.28320 0.64480 0.94870 -0.05700
H 	H 	0.21320 0.59770 0.07150 -0.01700
H 	H 	0.28480 0.68800 0.42650 -0.03900
H 	H 	0.25620 0.53080 0.88450 0.00300
H 	H 	0.29190 0.58220 0.87800 0.00400
H 	H 	0.28750 0.70690 0.90480 -0.01000
Ga	Ga	0.72864 0.99864 0.50050 1.08900
Zn	Zn	0.73958 0.07221 0.42360 1.23100
Zn	Zn	0.76280 0.10891 0.57910 1.23100
Zn	Zn	0.76177 0.17937 0.58680 1.22700
Zn	Zn	0.76170 0.21485 0.08600 1.22600
P 	P 	0.74078 0.03518 0.47280 0.47600
P 	P 	0.77260 0.08623 0.35200 0.45900
P 	P 	0.72859 0.09566 0.64010 0.42300
P 	P 	0.76963 0.14438 0.53350 0.47200
P 	P 	0.77209 0.19248 0.85680 0.45900
P 	P 	0.77186 0.20163 0.35660 0.39700
O 	O 	0.73439 0.05061 0.41490 -0.43700
O 	O 	0.72816 0.02195 0.45640 -0.53100
O 	O 	0.74576 0.03744 0.61680 -0.52600
O 	O 	0.76305 0.07401 0.42080 -0.47500
O 	O 	0.77025 0.08640 0.20560 -0.47100
O 	O 	0.76994 0.10269 0.39890 -0.47300
O 	O 	0.73960 0.10846 0.58500 -0.47300
O 	O 	0.72738 0.09583 0.79220 -0.43600
O 	O 	0.73220 0.07886 0.59640 -0.42600
O 	O 	0.75570 0.14383 0.44390 -0.52300
O 	O 	0.76830 0.15840 0.62740 -0.44100
O 	O 	0.76970 0.12986 0.61670 -0.44700
O 	O 	0.77210 0.19340 0.71100 -0.46900
O 	O 	0.76870 0.20910 0.90660 -0.47200
O 	O 	0.76110 0.17960 0.90800 -0.49100
O 	O 	0.77260 0.20060 0.20500 -0.45200
O 	O 	0.76110 0.21480 0.41300 -0.48700
O 	O 	0.76930 0.18470 0.40600 -0.46300
O 	O 	0.76890 0.23530 0.12560 -0.43700
H 	H 	0.78320 0.14480 0.44870 -0.06700
H 	H 	0.71320 0.09770 0.57150 -0.01300
H 	H 	0.78480 0.18800 0.92650 -0.03600
H 	H 	0.75620 0.03080 0.38450 0.00200
H 	H 	0.79190 0.08220 0.37800 -0.00100
H 	H 	0.78750 0.20690 0.40480 -0.01400
Ga	Ga	0.24864 0.47864 0.74950 1.08900
Zn	Zn	0.32221 0.48958 0.82640 1.23200
Zn	Zn	0.35891 0.51280 0.67090 1.23100
Zn	Zn	0.42937 0.51177 0.66320 1.22700
Zn	Zn	0.46485 0.51170 0.16400 1.22600
P 	P 	0.28518 0.49078 0.77720 0.47600
P 	P 	0.33623 0.52260 0.89800 0.47200
P 	P 	0.34566 0.47859 0.60990 0.42300
P 	P 	0.39438 0.51963 0.71650 0.47200
P 	P 	0.44248 0.52209 0.39320 0.45900
P 	P 	0.45163 0.52186 0.89340 0.41200
O 	O 	0.30061 0.48439 0.83510 -0.43300
O 	O 	0.27195 0.47816 0.79360 -0.52900
O 	O 	0.28744 0.49576 0.63320 -0.52700
O 	O 	0.32401 0.51305 0.82920 -0.47400
O 	O 	0.33640 0.52025 0.04440 -0.48200
O 	O 	0.35269 0.51994 0.85110 -0.46900
O 	O 	0.35846 0.48960 0.66500 -0.47100
O 	O 	0.34583 0.47738 0.45780 -0.44000
O 	O 	0.32886 0.48220 0.65360 -0.42600
O 	O 	0.39383 0.50570 0.80610 -0.51600
O 	O 	0.40840 0.51830 0.62260 -0.44100
O 	O 	0.37986 0.51970 0.63330 -0.44700
O 	O 	0.44340 0.52210 0.53900 -0.47000
O 	O 	0.45910 0.51870 0.34340 -0.47700
O 	O 	0.42960 0.51110 0.34200 -0.49500
O 	O 	0.45060 0.52260 0.04500 -0.46500
O 	O 	0.46480 0.51110 0.83700 -0.48400
O 	O 	0.43470 0.51930 0.84400 -0.45900
O 	O 	0.48530 0.51890 0.12440 -0.44200
H 	H 	0.39480 0.53320 0.80130 -0.06300
H 	H 	0.34770 0.46320 0.67850 -0.01100
H 	H 	0.43800 0.53480 0.32350 -0.04100
H 	H 	0.28080 0.50620 0.86550 0.00500
H 	H 	0.33220 0.54190 0.87200 0.00300
H 	H 	0.45690 0.53750 0.84520 -0.01100
Ga	Ga	0.74864 0.97864 0.24950 1.08900
Zn	Zn	0.82221 0.98958 0.32640 1.23100
Zn	Zn	0.85891 0.01280 0.17090 1.23000
Zn	Zn	0.92937 0.01177 0.16320 1.22600
Zn	Zn	0.96485 0.01170 0.66400 1.22800
P 	P 	0.78518 0.99078 0.27720 0.47600
P 	P 	0.83623 0.02260 0.39800 0.45900
P 	P 	0.84566 0.97859 0.10990 0.41300
P 	P 	0.89438 0.01963 0.21650 0.47200
P 	P 	0.94248 0.02209 0.89320 0.47100
P 	P 	0.95163 0.02186 0.39340 0.39700
O 	O 	0.80061 0.98439 0.33510 -0.43800
O 	O 	0.77195 0.97816 0.29360 -0.53200
O 	O 	0.78744 0.99576 0.13320 -0.53200
O 	O 	0.82401 0.01305 0.32920 -0.47600
O 	O 	0.83640 0.02025 0.54440 -0.46800
O 	O 	0.85269 0.01994 0.35110 -0.47200
O 	O 	0.85846 0.98960 0.16500 -0.47500
O 	O 	0.84583 0.97738 0.95780 -0.43000
O 	O 	0.82886 0.98220 0.15360 -0.42900
O 	O 	0.89383 0.00570 0.30610 -0.52400
O 	O 	0.90840 0.01830 0.12260 -0.44600
O 	O 	0.87986 0.01970 0.13330 -0.45100
O 	O 	0.94340 0.02210 0.03900 -0.48200
O 	O 	0.95910 0.01870 0.84340 -0.47400
O 	O 	0.92960 0.01110 0.84200 -0.49200
O 	O 	0.95060 0.02260 0.54500 -0.44900
O 	O 	0.96480 0.01110 0.33700 -0.48800
O 	O 	0.93470 0.01930 0.34400 -0.46200
O 	O 	0.98530 0.01890 0.62440 -0.43600
H 	H 	0.89480 0.03320 0.30130 -0.06700
H 	H 	0.84770 0.96320 0.17850 -0.01500
H 	H 	0.93800 0.03480 0.82350 -0.03800
H 	H 	0.78080 0.00620 0.36550 0.00200
H 	H 	0.83220 0.04190 0.37200 -0.00100
H 	H 	0.95690 0.03750 0.34520 -0.01400
Ga	Ga	0.25136 0.52136 0.24950 1.08900
Zn	Zn	0.17779 0.51042 0.32640 1.23100
Zn	Zn	0.14109 0.48720 0.17090 1.23000
Zn	Zn	0.07063 0.48823 0.16320 1.22600
Zn	Zn	0.03515 0.48830 0.66400 1.22800
P 	P 	0.21482 0.50922 0.27720 0.47600
P 	P 	0.16377 0.47740 0.39800 0.45900
P 	P 	0.15434 0.52141 0.10990 0.41300
P 	P 	0.10562 0.48037 0.21650 0.47200
P 	P 	0.05752 0.47791 0.89320 0.47100
P 	P 	0.04837 0.47814 0.39340 0.39700
O 	O 	0.19939 0.51561 0.33510 -0.43800
O 	O 	0.22805 0.52184 0.29360 -0.53200
O 	O 	0.21256 0.50424 0.13320 -0.53200
O 	O 	0.17599 0.48695 0.32920 -0.47600
O 	O 	0.16360 0.47975 0.54440 -0.46800
O 	O 	0.14731 0.48006 0.35110 -0.47200
O 	O 	0.14154 0.51040 0.16500 -0.47500
O 	O 	0.15417 0.52262 0.95780 -0.43000
O 	O 	0.17114 0.51780 0.15360 -0.42900
O 	O 	0.10617 0.49430 0.30610 -0.52400
O 	O 	0.09160 0.48170 0.12260 -0.44600
O 	O 	0.12014 0.48030 0.13330 -0.45100
O 	O 	0.05660 0.47790 0.03900 -0.48200
O 	O 	0.04090 0.48130 0.84340 -0.47400
O 	O 	0.07040 0.48890 0.84200 -0.49200
O 	O 	0.04940 0.47740 0.54500 -0.44900
O 	O 	0.03520 0.48890 0.33700 -0.48800
O 	O 	0.06530 0.48070 0.34400 -0.46200
O 	O 	0.01470 0.48110 0.62440 -0.43600
H 	H 	0.10520 0.46680 0.30130 -0.06700
H 	H 	0.15230 0.53680 0.17850 -0.01500
H 	H 	0.06200 0.46520 0.82350 -0.03800
H 	H 	0.21920 0.49380 0.36550 0.00200
H 	H 	0.16780 0.45810 0.37200 -0.00100
H 	H 	0.04310 0.46250 0.34520 -0.01400
Ga	Ga	0.75136 0.02136 0.74950 1.08900
Zn	Zn	0.67779 0.01042 0.82640 1.23200
Zn	Zn	0.64109 0.98720 0.67090 1.23100
Zn	Zn	0.57063 0.98823 0.66320 1.22700
Zn	Zn	0.53515 0.98830 0.16400 1.22600
P 	P 	0.71482 0.00922 0.77720 0.47600
P 	P 	0.66377 0.97740 0.89800 0.47200
P 	P 	0.65434 0.02141 0.60990 0.42300
P 	P 	0.60562 0.98037 0.71650 0.47200
P 	P 	0.55752 0.97791 0.39320 0.45900
P 	P 	0.54837 0.97814 0.89340 0.41200
O 	O 	0.69939 0.01561 0.83510 -0.43300
O 	O 	0.72805 0.02184 0.79360 -0.52900
O 	O 	0.71256 0.00424 0.63320 -0.52700
O 	O 	0.67599 0.98695 0.82920 -0.47400
O 	O 	0.66360 0.97975 0.04440 -0.48200
O 	O 	0.64731 0.98006 0.85110 -0.46900
O 	O 	0.64154 0.01040 0.66500 -0.47100
O 	O 	0.65417 0.02262 0.45780 -0.44000
O 	O 	0.67114 0.01780 0.65360 -0.42600
O 	O 	0.60617 0.99430 0.80610 -0.51600
O 	O 	0.59160 0.98170 0.62260 -0.44100
O 	O 	0.62014 0.98030 0.63330 -0.44700
O 	O 	0.55660 0.97790 0.53900 -0.47000
O 	O 	0.54090 0.98130 0.34340 -0.47700
O 	O 	0.57040 0.98890 0.34200 -0.49500
O 	O 	0.54940 0.97740 0.04500 -0.46500
O 	O 	0.53520 0.98890 0.83700 -0.48400
O 	O 	0.56530 0.98070 0.84400 -0.45900
O 	O 	0.51470 0.98110 0.12440 -0.44200
H 	H 	0.60520 0.96680 0.80130 -0.06300
H 	H 	0.65230 0.03680 0.67850 -0.01100
H 	H 	0.56200 0.96520 0.32350 -0.04100
H 	H 	0.71920 0.99380 0.86550 0.00500
H 	H 	0.66780 0.95810 0.87200 0.00300
H 	H 	0.54310 0.96250 0.84520 -0.01100
Ga	Ga	0.22864 0.50136 0.99950 1.12900
Zn	Zn	0.23958 0.42779 0.07640 1.22900
Zn	Zn	0.26280 0.39109 0.92090 1.23300
Zn	Zn	0.26177 0.32063 0.91320 1.22900
Zn	Zn	0.26170 0.28515 0.41400 1.22800
P 	P 	0.24078 0.46482 0.02720 0.46600
P 	P 	0.27260 0.41377 0.14800 0.45800
P 	P 	0.22859 0.40434 0.85990 0.42300
P 	P 	0.26963 0.35562 0.96650 0.48700
P 	P 	0.27209 0.30752 0.64320 0.45900
P 	P 	0.27186 0.29837 0.14340 0.39700
O 	O 	0.23439 0.44939 0.08510 -0.43900
O 	O 	0.22816 0.47805 0.04360 -0.53300
O 	O 	0.24576 0.46256 0.88320 -0.51700
O 	O 	0.26305 0.42599 0.07920 -0.47900
O 	O 	0.27025 0.41360 0.29440 -0.46800
O 	O 	0.26994 0.39731 0.10110 -0.47700
O 	O 	0.23960 0.39154 0.91500 -0.46900
O 	O 	0.22738 0.40417 0.70780 -0.43900
O 	O 	0.23220 0.42114 0.90360 -0.42100
O 	O 	0.25570 0.35617 0.05610 -0.53300
O 	O 	0.26830 0.34160 0.87260 -0.44100
O 	O 	0.26970 0.37014 0.88330 -0.44700
O 	O 	0.27210 0.30660 0.78900 -0.46700
O 	O 	0.26870 0.29090 0.59340 -0.47600
O 	O 	0.26110 0.32040 0.59200 -0.49400
O 	O 	0.27260 0.29940 0.29500 -0.44900
O 	O 	0.26110 0.28520 0.08700 -0.49000
O 	O 	0.26930 0.31530 0.09400 -0.46600
O 	O 	0.26890 0.26470 0.37440 -0.43600
H 	H 	0.28320 0.35520 0.05130 -0.07300
H 	H 	0.21320 0.40230 0.92850 -0.01000
H 	H 	0.28480 0.31200 0.57350 -0.03800
H 	H 	0.25620 0.46920 0.11550 0.00000
H 	H 	0.29190 0.41780 0.12200 -0.00200
H 	H 	0.28750 0.29310 0.09520 -0.01500
Ga	Ga	0.72864 0.00136 0.49950 1.08900
Zn	Zn	0.73958 0.92779 0.57640 1.23100
Zn	Zn	0.76280 0.89109 0.42090 1.23100
Zn	Zn	0.76177 0.82063 0.41320 1.22700
Zn	Zn	0.76170 0.78515 0.91400 1.23000
P 	P 	0.74078 0.96482 0.52720 0.47600
P 	P 	0.77260 0.91377 0.64800 0.45900
P 	P 	0.72859 0.90434 0.35990 0.42300
P 	P 	0.76963 0.85562 0.46650 0.47200
P 	P 	0.77209 0.80752 0.14320 0.45900
P 	P 	0.77186 0.79837 0.64340 0.39700
O 	O 	0.73439 0.94939 0.58510 -0.43700
O 	O 	0.72816 0.97805 0.54360 -0.53100
O 	O 	0.74576 0.96256 0.38320 -0.52700
O 	O 	0.76305 0.92599 0.57920 -0.47500
O 	O 	0.77025 0.91360 0.79440 -0.46400
O 	O 	0.76994 0.89731 0.60110 -0.47100
O 	O 	0.73960 0.89154 0.41500 -0.47300
O 	O 	0.72738 0.90417 0.20780 -0.44400
O 	O 	0.73220 0.92114 0.40360 -0.42800
O 	O 	0.75570 0.85617 0.55610 -0.52200
O 	O 	0.76830 0.84160 0.37260 -0.44200
O 	O 	0.76970 0.87014 0.38330 -0.44800
O 	O 	0.77210 0.80660 0.28900 -0.47000
O 	O 	0.76870 0.79090 0.09340 -0.48300
O 	O 	0.76110 0.82040 0.09200 -0.49800
O 	O 	0.77260 0.79940 0.79500 -0.44600
O 	O 	0.76110 0.78520 0.58700 -0.48700
O 	O 	0.76930 0.81530 0.59400 -0.46100
O 	O 	0.76890 0.76470 0.87440 -0.43500
H 	H 	0.78320 0.85520 0.55130 -0.06600
H 	H 	0.71320 0.90230 0.42850 -0.01400
H 	H 	0.78480 0.81200 0.07350 -0.04200
H 	H 	0.75620 0.96920 0.61550 0.00200
H 	H 	0.79190 0.91780 0.62200 0.00100
H 	H 	0.78750 0.79310 0.59520 -0.01300
Ga	Ga	0.27136 0.49864 0.49950 1.08900
Zn	Zn	0.26042 0.57221 0.57640 1.23100
Zn	Zn	0.23720 0.60891 0.42090 1.23100
Zn	Zn	0.23823 0.67937 0.41320 1.22700
Zn	Zn	0.23830 0.71485 0.91400 1.23000
P 	P 	0.25922 0.53518 0.52720 0.47600
P 	P 	0.22740 0.58623 0.64800 0.45900
P 	P 	0.27141 0.59566 0.35990 0.42300
P 	P 	0.23037 0.64438 0.46650 0.47200
P 	P 	0.22791 0.69248 0.14320 0.45900
P 	P 	0.22814 0.70163 0.64340 0.39700
O 	O 	0.26561 0.55061 0.58510 -0.43700
O 	O 	0.27184 0.52195 0.54360 -0.53100
O 	O 	0.25424 0.53744 0.38320 -0.52700
O 	O 	0.23695 0.57401 0.57920 -0.47500
O 	O 	0.22975 0.58640 0.79440 -0.46400
O 	O 	0.23006 0.60269 0.60110 -0.47100
O 	O 	0.26040 0.60846 0.41500 -0.47300
O 	O 	0.27262 0.59583 0.20780 -0.44400
O 	O 	0.26780 0.57886 0.40360 -0.42800
O 	O 	0.24430 0.64383 0.55610 -0.52200
O 	O 	0.23170 0.65840 0.37260 -0.44200
O 	O 	0.23030 0.62986 0.38330 -0.44800
O 	O 	0.22790 0.69340 0.28900 -0.47000
O 	O 	0.23130 0.70910 0.09340 -0.48300
O 	O 	0.23890 0.67960 0.09200 -0.49800
O 	O 	0.22740 0.70060 0.79500 -0.44600
O 	O 	0.23890 0.71480 0.58700 -0.48700
O 	O 	0.23070 0.68470 0.59400 -0.46100
O 	O 	0.23110 0.73530 0.87440 -0.43500
H 	H 	0.21680 0.64480 0.55130 -0.06600
H 	H 	0.28680 0.59770 0.42850 -0.01400
H 	H 	0.21520 0.68800 0.07350 -0.04200
H 	H 	0.24380 0.53080 0.61550 0.00200
H 	H 	0.20810 0.58220 0.62200 0.00100
H 	H 	0.21250 0.70690 0.59520 -0.01300
Ga	Ga	0.77136 0.99864 0.99950 1.12900
Zn	Zn	0.76042 0.07221 0.07640 1.22900
Zn	Zn	0.73720 0.10891 0.92090 1.23300
Zn	Zn	0.73823 0.17937 0.91320 1.22900
Zn	Zn	0.73830 0.21485 0.41400 1.22800
P 	P 	0.75922 0.03518 0.02720 0.46600
P 	P 	0.72740 0.08623 0.14800 0.45800
P 	P 	0.77141 0.09566 0.85990 0.42300
P 	P 	0.73037 0.14438 0.96650 0.48700
P 	P 	0.72791 0.19248 0.64320 0.45900
P 	P 	0.72814 0.20163 0.14340 0.39700
O 	O 	0.76561 0.05061 0.08510 -0.43900
O 	O 	0.77184 0.02195 0.04360 -0.53300
O 	O 	0.75424 0.03744 0.88320 -0.51700
O 	O 	0.73695 0.07401 0.07920 -0.47900
O 	O 	0.72975 0.08640 0.29440 -0.46800
O 	O 	0.73006 0.10269 0.10110 -0.47700
O 	O 	0.76040 0.10846 0.91500 -0.46900
O 	O 	0.77262 0.09583 0.70780 -0.43900
O 	O 	0.76780 0.07886 0.90360 -0.42100
O 	O 	0.74430 0.14383 0.05610 -0.53300
O 	O 	0.73170 0.15840 0.87260 -0.44100
O 	O 	0.73030 0.12986 0.88330 -0.44700
O 	O 	0.72790 0.19340 0.78900 -0.46700
O 	O 	0.73130 0.20910 0.59340 -0.47600
O 	O 	0.73890 0.17960 0.59200 -0.49400
O 	O 	0.72740 0.20060 0.29500 -0.44900
O 	O 	0.73890 0.21480 0.08700 -0.49000
O 	O 	0.73070 0.18470 0.09400 -0.46600
O 	O 	0.73110 0.23530 0.37440 -0.43600
H 	H 	0.71680 0.14480 0.05130 -0.07300
H 	H 	0.78680 0.09770 0.92850 -0.01000
H 	H 	0.71520 0.18800 0.57350 -0.03800
H 	H 	0.74380 0.03080 0.11550 0.00000
H 	H 	0.70810 0.08220 0.12200 -0.00200
H 	H 	0.71250 0.20690 0.09520 -0.01500
Zn	Zn	0.89403 0.50000 0.50000 1.14600
Zn	Zn	0.39403 0.00000 -0.00000 1.14000
Zn	Zn	0.60597 0.50000 -0.00000 1.14000
Zn	Zn	0.10597 0.00000 0.50000 1.14600
Zn	Zn	0.75000 0.64403 0.75000 1.14700
Zn	Zn	0.25000 0.14403 0.25000 1.14500
Zn	Zn	0.75000 0.35597 0.25000 1.14500
Zn	Zn	0.25000 0.85597 0.75000 1.14700
Zn	Zn	0.10597 0.50000 0.50000 1.14600
Zn	Zn	0.60597 0.00000 -0.00000 1.14000
Zn	Zn	0.39403 0.50000 -0.00000 1.14000
Zn	Zn	0.89403 0.00000 0.50000 1.14600
Zn	Zn	0.25000 0.35597 0.25000 1.14500
Zn	Zn	0.75000 0.85597 0.75000 1.14700
Zn	Zn	0.25000 0.64403 0.75000 1.14700
Zn	Zn	0.75000 0.14403 0.25000 1.14500
Zn	Zn	-0.00000 0.50000 -0.00000 1.13700
Zn	Zn	0.50000 0.00000 0.50000 1.14200
Zn	Zn	0.50000 0.50000 0.50000 1.14200
Zn	Zn	-0.00000 0.00000 -0.00000 1.13700
Zn	Zn	0.75000 0.75000 0.25000 1.14100
Zn	Zn	0.75000 0.25000 0.75000 1.14300
Zn	Zn	0.25000 0.25000 0.75000 1.14300
Zn	Zn	0.25000 0.75000 0.25000 1.14100
P 	P 	0.00000 0.48030 0.71680 0.40100
O 	O 	-0.00000 0.49440 0.80500 -0.50700
P 	P 	0.50000 0.98030 0.21680 0.39900
O 	O 	0.50000 0.99440 0.30500 -0.51300
P 	P 	0.50000 0.51970 0.21680 0.39900
O 	O 	0.50000 0.50560 0.30500 -0.51300
P 	P 	0.00000 0.01970 0.71680 0.40100
O 	O 	0.00000 0.00560 0.80500 -0.50700
P 	P 	0.76970 0.75000 0.96680 0.41200
O 	O 	0.75560 0.75000 0.05500 -0.52400
P 	P 	0.73030 0.25000 0.46680 0.40000
O 	O 	0.74440 0.25000 0.55500 -0.51200
P 	P 	0.50000 0.48030 0.78320 0.40000
O 	O 	0.50000 0.49440 0.69500 -0.51100
P 	P 	-0.00000 0.98030 0.28320 0.39800
O 	O 	0.00000 0.99440 0.19500 -0.51500
P 	P 	0.00000 0.51970 0.28320 0.39800
O 	O 	0.00000 0.50560 0.19500 -0.51500
P 	P 	0.50000 0.01970 0.78320 0.40000
O 	O 	0.50000 0.00560 0.69500 -0.51100
P 	P 	0.73030 0.75000 0.53320 0.39900
O 	O 	0.74440 0.75000 0.44500 -0.51300
P 	P 	0.76970 0.25000 0.03320 0.39000
O 	O 	0.75560 0.25000 0.94500 -0.50300
P 	P 	0.23030 0.25000 0.03320 0.39000
O 	O 	0.24440 0.25000 0.94500 -0.50300
P 	P 	0.26970 0.75000 0.53320 0.39900
O 	O 	0.25560 0.75000 0.44500 -0.51300
P 	P 	0.26970 0.25000 0.46680 0.40000
O 	O 	0.25560 0.25000 0.55500 -0.51200
P 	P 	0.23030 0.75000 0.96680 0.41200
O 	O 	0.24440 0.75000 0.05500 -0.52400
F 	F 	0.75434 0.50434 0.12500 -0.86200
F 	F 	0.25434 0.00434 0.62500 -0.85800
F 	F 	0.74566 0.49566 0.62500 -0.85800
F 	F 	0.24566 0.99566 0.12500 -0.86200
F 	F 	0.74566 0.50434 0.37500 -0.85800
F 	F 	0.24566 0.00434 0.87500 -0.85400
F 	F 	0.75434 0.49566 0.87500 -0.85400
F 	F 	0.25434 0.99566 0.37500 -0.85800
F 	F 	0.24566 0.49566 0.87500 -0.85400
F 	F 	0.74566 0.99566 0.37500 -0.85800
F 	F 	0.25434 0.50434 0.37500 -0.85800
F 	F 	0.75434 0.00434 0.87500 -0.85400
F 	F 	0.25434 0.49566 0.62500 -0.85800
F 	F 	0.75434 0.99566 0.12500 -0.86200
F 	F 	0.24566 0.50434 0.12500 -0.86200
F 	F 	0.74566 0.00434 0.62500 -0.85800
