data_crystal

_cell_length_a 84.04300
_cell_length_b 66.29800
_cell_length_c 10.03560
_cell_angle_alpha 90.00000
_cell_angle_beta  90.00000
_cell_angle_gamma 90.00000

_symmetry_space_group_name_	'P 1'
_symmetry_space_group_name_H-M	'P 1'

loop_
_symmetry_equiv_pos_as_xyz
  x,y,z

loop_
_atom_site_label
_atom_site_type_symbol
_atom_site_fract_x
_atom_site_fract_y
_atom_site_fract_z
_atom_site_charge
Zn	Zn	0.14112 0.98366 0.17131 1.23600
Zn	Zn	0.17780 0.98677 0.67371 1.23000
Zn	Zn	0.26026 0.90857 0.42416 1.23000
Zn	Zn	0.26300 0.86197 0.92154 1.24200
Zn	Zn	0.07069 0.98490 0.16360 1.22700
Zn	Zn	0.03514 0.98488 0.66360 1.23100
Zn	Zn	0.26199 0.77250 0.91410 1.23400
P 	P 	0.25909 0.95546 0.47350 0.47200
P 	P 	0.10566 0.97538 0.21820 0.48300
P 	P 	0.27254 0.89070 0.14810 0.42400
P 	P 	0.15423 0.97260 0.89210 0.46700
P 	P 	0.16367 0.97108 0.39740 0.45300
P 	P 	0.26965 0.81679 0.97000 0.49700
P 	P 	0.27157 0.87826 0.64290 0.44000
P 	P 	0.05761 0.97173 0.89620 0.46300
P 	P 	0.04834 0.97205 0.39440 0.42200
P 	P 	0.21485 0.98852 0.72260 0.47700
P 	P 	0.22820 0.75604 0.85910 0.45300
O 	O 	0.27149 0.97217 0.45310 -0.51600
O 	O 	0.25394 0.95244 0.61930 -0.52300
O 	O 	0.26561 0.93604 0.41430 -0.43600
O 	O 	0.12011 0.97444 0.13450 -0.46200
O 	O 	0.09190 0.97584 0.12660 -0.46400
O 	O 	0.10605 0.99242 0.30780 -0.54600
O 	O 	0.27076 0.89104 0.29830 -0.46500
O 	O 	0.27005 0.86930 0.10010 -0.48800
O 	O 	0.26275 0.90625 0.07430 -0.48500
O 	O 	0.15393 0.97141 0.04290 -0.48200
O 	O 	0.17047 0.97793 0.85060 -0.42400
O 	O 	0.14149 0.98707 0.83660 -0.46900
O 	O 	0.14672 0.97514 0.34700 -0.48000
O 	O 	0.17559 0.98316 0.32860 -0.47500
O 	O 	0.16417 0.97375 0.54420 -0.47300
O 	O 	0.27009 0.83569 0.88470 -0.44300
O 	O 	0.26901 0.79951 0.87490 -0.44000
O 	O 	0.25630 0.81734 0.05660 -0.58000
O 	O 	0.26750 0.89883 0.60290 -0.42000
O 	O 	0.26023 0.86226 0.58550 -0.47400
O 	O 	0.27268 0.87851 0.79330 -0.43700
O 	O 	0.05671 0.97232 0.04240 -0.51000
O 	O 	0.04080 0.97659 0.84310 -0.46800
O 	O 	0.07019 0.98600 0.84280 -0.48600
O 	O 	0.04878 0.97152 0.54150 -0.47400
O 	O 	0.03525 0.98650 0.33840 -0.49100
O 	O 	0.06469 0.97585 0.34460 -0.47600
O 	O 	0.19974 0.98033 0.66360 -0.43300
O 	O 	0.22792 0.97248 0.70330 -0.50600
O 	O 	0.21246 0.99478 0.86750 -0.50700
O 	O 	0.23918 0.77250 0.91170 -0.48500
O 	O 	0.23092 0.73507 0.90630 -0.46700
O 	O 	0.22782 0.75520 0.71380 -0.47300
O 	O 	0.01397 0.97619 0.62800 -0.43200
F 	F 	0.25406 0.99492 0.62440 -0.82900
H 	H 	0.24460 0.96070 0.38510 0.00100
H 	H 	0.10430 0.95400 0.30390 -0.04500
H 	H 	0.29020 0.89530 0.11560 -0.01300
H 	H 	0.14970 0.94970 0.84610 0.00200
H 	H 	0.16810 0.94730 0.36540 -0.00400
H 	H 	0.28730 0.87530 0.56730 -0.01200
H 	H 	0.06260 0.94910 0.83930 -0.00600
H 	H 	0.21320 0.76270 0.92640 -0.01300
Zn	Zn	0.64112 0.48366 0.17131 1.23500
Zn	Zn	0.67780 0.48677 0.67371 1.22900
Zn	Zn	0.76026 0.40857 0.42416 1.23000
Zn	Zn	0.76300 0.36197 0.92154 1.24200
Zn	Zn	0.57069 0.48490 0.16360 1.22700
Zn	Zn	0.53514 0.48488 0.66360 1.23100
Zn	Zn	0.76199 0.27250 0.91410 1.23400
P 	P 	0.75909 0.45546 0.47350 0.47200
P 	P 	0.60566 0.47538 0.21820 0.48300
P 	P 	0.77254 0.39070 0.14810 0.42400
P 	P 	0.65423 0.47260 0.89210 0.46700
P 	P 	0.66367 0.47108 0.39740 0.45300
P 	P 	0.76965 0.31679 0.97000 0.49700
P 	P 	0.77157 0.37826 0.64290 0.44000
P 	P 	0.55761 0.47173 0.89620 0.46300
P 	P 	0.54834 0.47205 0.39440 0.42200
P 	P 	0.71485 0.48852 0.72260 0.47700
P 	P 	0.72820 0.25604 0.85910 0.45300
O 	O 	0.77149 0.47217 0.45310 -0.51600
O 	O 	0.75394 0.45244 0.61930 -0.52300
O 	O 	0.76561 0.43604 0.41430 -0.43600
O 	O 	0.62011 0.47444 0.13450 -0.46200
O 	O 	0.59190 0.47584 0.12660 -0.46400
O 	O 	0.60605 0.49242 0.30780 -0.54600
O 	O 	0.77076 0.39104 0.29830 -0.46500
O 	O 	0.77005 0.36930 0.10010 -0.48800
O 	O 	0.76275 0.40625 0.07430 -0.48500
O 	O 	0.65393 0.47141 0.04290 -0.48200
O 	O 	0.67047 0.47793 0.85060 -0.42400
O 	O 	0.64149 0.48707 0.83660 -0.46900
O 	O 	0.64672 0.47514 0.34700 -0.48000
O 	O 	0.67559 0.48316 0.32860 -0.47500
O 	O 	0.66417 0.47375 0.54420 -0.47300
O 	O 	0.77009 0.33569 0.88470 -0.44300
O 	O 	0.76901 0.29951 0.87490 -0.44000
O 	O 	0.75630 0.31734 0.05660 -0.58000
O 	O 	0.76750 0.39883 0.60290 -0.42000
O 	O 	0.76023 0.36226 0.58550 -0.47400
O 	O 	0.77268 0.37851 0.79330 -0.43700
O 	O 	0.55671 0.47232 0.04240 -0.51000
O 	O 	0.54080 0.47659 0.84310 -0.46800
O 	O 	0.57019 0.48600 0.84280 -0.48600
O 	O 	0.54878 0.47152 0.54150 -0.47400
O 	O 	0.53525 0.48650 0.33840 -0.49100
O 	O 	0.56469 0.47585 0.34460 -0.47700
O 	O 	0.69974 0.48033 0.66360 -0.43300
O 	O 	0.72792 0.47248 0.70330 -0.50600
O 	O 	0.71246 0.49478 0.86750 -0.50700
O 	O 	0.73918 0.27250 0.91170 -0.48500
O 	O 	0.73092 0.23507 0.90630 -0.46700
O 	O 	0.72782 0.25520 0.71380 -0.47300
O 	O 	0.51397 0.47619 0.62800 -0.43200
F 	F 	0.75406 0.49492 0.62440 -0.82900
H 	H 	0.74460 0.46070 0.38510 0.00100
H 	H 	0.60430 0.45400 0.30390 -0.04500
H 	H 	0.79020 0.39530 0.11560 -0.01300
H 	H 	0.64970 0.44970 0.84610 0.00200
H 	H 	0.66810 0.44730 0.36540 -0.00400
H 	H 	0.78730 0.37530 0.56730 -0.01200
H 	H 	0.56260 0.44910 0.83930 -0.00600
H 	H 	0.71320 0.26270 0.92640 -0.01300
Zn	Zn	0.85888 0.51634 0.67131 1.23700
Zn	Zn	0.82220 0.51323 0.17371 1.22600
Zn	Zn	0.73974 0.59143 0.92416 1.23800
Zn	Zn	0.73700 0.63803 0.42154 1.23400
Zn	Zn	0.92931 0.51510 0.66360 1.22900
Zn	Zn	0.96486 0.51512 0.16360 1.22900
Zn	Zn	0.73801 0.72750 0.41410 1.22600
P 	P 	0.74091 0.54454 0.97350 0.50500
P 	P 	0.89434 0.52462 0.71820 0.48400
P 	P 	0.72746 0.60930 0.64810 0.42500
P 	P 	0.84577 0.52740 0.39210 0.43400
P 	P 	0.83633 0.52892 0.89740 0.48800
P 	P 	0.73035 0.68321 0.47000 0.45600
P 	P 	0.72843 0.62174 0.14290 0.43900
P 	P 	0.94239 0.52827 0.39620 0.43000
P 	P 	0.95166 0.52795 0.89440 0.45900
P 	P 	0.78515 0.51148 0.22260 0.47100
P 	P 	0.77180 0.74396 0.35910 0.45300
O 	O 	0.72851 0.52783 0.95310 -0.50000
O 	O 	0.74606 0.54756 0.11930 -0.55500
O 	O 	0.73439 0.56396 0.91430 -0.42900
O 	O 	0.87989 0.52556 0.63450 -0.44900
O 	O 	0.90810 0.52416 0.62660 -0.45100
O 	O 	0.89395 0.50758 0.80780 -0.52900
O 	O 	0.72924 0.60896 0.79830 -0.45300
O 	O 	0.72995 0.63070 0.60010 -0.46700
O 	O 	0.73725 0.59375 0.57430 -0.47100
O 	O 	0.84607 0.52859 0.54290 -0.44900
O 	O 	0.82953 0.52207 0.35060 -0.43200
O 	O 	0.85851 0.51293 0.33660 -0.47700
O 	O 	0.85328 0.52486 0.84700 -0.47300
O 	O 	0.82441 0.51684 0.82860 -0.47000
O 	O 	0.83583 0.52625 0.04420 -0.50900
O 	O 	0.72991 0.66431 0.38470 -0.44800
O 	O 	0.73099 0.70049 0.37490 -0.44400
O 	O 	0.74370 0.68266 0.55660 -0.53800
O 	O 	0.73250 0.60117 0.10290 -0.44100
O 	O 	0.73977 0.63774 0.08550 -0.48800
O 	O 	0.72732 0.62149 0.29330 -0.44900
O 	O 	0.94329 0.52768 0.54240 -0.47600
O 	O 	0.95920 0.52341 0.34310 -0.47500
O 	O 	0.92981 0.51400 0.34280 -0.49400
O 	O 	0.95122 0.52848 0.04150 -0.50700
O 	O 	0.96475 0.51350 0.83840 -0.48400
O 	O 	0.93531 0.52415 0.84460 -0.47000
O 	O 	0.80026 0.51967 0.16360 -0.44600
O 	O 	0.77208 0.52752 0.20330 -0.51700
O 	O 	0.78754 0.50522 0.36750 -0.52500
O 	O 	0.76082 0.72750 0.41170 -0.49800
O 	O 	0.76908 0.76493 0.40630 -0.48700
O 	O 	0.77218 0.74480 0.21380 -0.48500
O 	O 	0.98603 0.52381 0.12800 -0.44400
F 	F 	0.74594 0.50508 0.12440 -0.84100
H 	H 	0.75540 0.53930 0.88510 0.00600
H 	H 	0.89570 0.54600 0.80390 -0.03500
H 	H 	0.70980 0.60470 0.61560 -0.00200
H 	H 	0.85030 0.55030 0.34610 -0.00900
H 	H 	0.83190 0.55270 0.86540 0.00500
H 	H 	0.71270 0.62470 0.06730 -0.02400
H 	H 	0.93740 0.55090 0.33930 -0.01600
H 	H 	0.78680 0.73730 0.42640 -0.02400
Zn	Zn	0.35888 0.01634 0.67131 1.23700
Zn	Zn	0.32220 0.01323 0.17371 1.22600
Zn	Zn	0.23974 0.09143 0.92416 1.23800
Zn	Zn	0.23700 0.13803 0.42154 1.23400
Zn	Zn	0.42931 0.01510 0.66360 1.22900
Zn	Zn	0.46486 0.01512 0.16360 1.22900
Zn	Zn	0.23801 0.22750 0.41410 1.22600
P 	P 	0.24091 0.04454 0.97350 0.50500
P 	P 	0.39434 0.02462 0.71820 0.48400
P 	P 	0.22746 0.10930 0.64810 0.42500
P 	P 	0.34577 0.02740 0.39210 0.43400
P 	P 	0.33633 0.02892 0.89740 0.48800
P 	P 	0.23035 0.18321 0.47000 0.45600
P 	P 	0.22843 0.12174 0.14290 0.43900
P 	P 	0.44239 0.02827 0.39620 0.43000
P 	P 	0.45166 0.02795 0.89440 0.45900
P 	P 	0.28515 0.01148 0.22260 0.47100
P 	P 	0.27180 0.24396 0.35910 0.45300
O 	O 	0.22851 0.02783 0.95310 -0.50000
O 	O 	0.24606 0.04756 0.11930 -0.55500
O 	O 	0.23439 0.06396 0.91430 -0.42900
O 	O 	0.37989 0.02556 0.63450 -0.44900
O 	O 	0.40810 0.02416 0.62660 -0.45100
O 	O 	0.39395 0.00758 0.80780 -0.52900
O 	O 	0.22924 0.10896 0.79830 -0.45300
O 	O 	0.22995 0.13070 0.60010 -0.46700
O 	O 	0.23725 0.09375 0.57430 -0.47100
O 	O 	0.34607 0.02859 0.54290 -0.44900
O 	O 	0.32953 0.02207 0.35060 -0.43200
O 	O 	0.35851 0.01293 0.33660 -0.47700
O 	O 	0.35328 0.02486 0.84700 -0.47300
O 	O 	0.32441 0.01684 0.82860 -0.47000
O 	O 	0.33583 0.02625 0.04420 -0.50900
O 	O 	0.22991 0.16431 0.38470 -0.44800
O 	O 	0.23099 0.20049 0.37490 -0.44400
O 	O 	0.24370 0.18266 0.55660 -0.53800
O 	O 	0.23250 0.10117 0.10290 -0.44100
O 	O 	0.23977 0.13774 0.08550 -0.48800
O 	O 	0.22732 0.12149 0.29330 -0.44900
O 	O 	0.44329 0.02768 0.54240 -0.47600
O 	O 	0.45920 0.02341 0.34310 -0.47500
O 	O 	0.42981 0.01400 0.34280 -0.49400
O 	O 	0.45122 0.02848 0.04150 -0.50700
O 	O 	0.46475 0.01350 0.83840 -0.48400
O 	O 	0.43531 0.02415 0.84460 -0.47000
O 	O 	0.30026 0.01967 0.16360 -0.44600
O 	O 	0.27208 0.02752 0.20330 -0.51700
O 	O 	0.28754 0.00522 0.36750 -0.52500
O 	O 	0.26082 0.22750 0.41170 -0.49800
O 	O 	0.26908 0.26493 0.40630 -0.48700
O 	O 	0.27218 0.24480 0.21380 -0.48500
O 	O 	0.48603 0.02381 0.12800 -0.44500
F 	F 	0.24594 0.00508 0.12440 -0.84100
H 	H 	0.25540 0.03930 0.88510 0.00600
H 	H 	0.39570 0.04600 0.80390 -0.03500
H 	H 	0.20980 0.10470 0.61560 -0.00200
H 	H 	0.35030 0.05030 0.34610 -0.00900
H 	H 	0.33190 0.05270 0.86540 0.00500
H 	H 	0.21270 0.12470 0.06730 -0.02400
H 	H 	0.43740 0.05090 0.33930 -0.01600
H 	H 	0.28680 0.23730 0.42640 -0.02400
Zn	Zn	0.85888 0.48366 0.32869 1.23600
Zn	Zn	0.82220 0.48677 0.82629 1.23100
Zn	Zn	0.73974 0.40857 0.07584 1.22200
Zn	Zn	0.73700 0.36197 0.57846 1.23400
Zn	Zn	0.92931 0.48490 0.33640 1.22800
Zn	Zn	0.96486 0.48488 0.83640 1.23300
Zn	Zn	0.73801 0.27250 0.58590 1.22600
P 	P 	0.74091 0.45546 0.02650 0.43900
P 	P 	0.89434 0.47538 0.28180 0.48200
P 	P 	0.72746 0.39070 0.35190 0.42500
P 	P 	0.84577 0.47260 0.60790 0.43600
P 	P 	0.83633 0.47108 0.10260 0.42000
P 	P 	0.73035 0.31679 0.53000 0.45200
P 	P 	0.72843 0.37826 0.85710 0.44100
P 	P 	0.94239 0.47173 0.60380 0.43200
P 	P 	0.95166 0.47205 0.10560 0.38900
P 	P 	0.78515 0.48852 0.77740 0.48300
P 	P 	0.77180 0.25604 0.64090 0.45200
O 	O 	0.72851 0.47217 0.04690 -0.52700
O 	O 	0.74606 0.45244 0.88070 -0.49500
O 	O 	0.73439 0.43604 0.08570 -0.44200
O 	O 	0.87989 0.47444 0.36550 -0.45000
O 	O 	0.90810 0.47584 0.37340 -0.45200
O 	O 	0.89395 0.49242 0.19220 -0.55200
O 	O 	0.72924 0.39104 0.20170 -0.47500
O 	O 	0.72995 0.36930 0.39990 -0.47400
O 	O 	0.73725 0.40625 0.42570 -0.47000
O 	O 	0.84607 0.47141 0.45710 -0.44900
O 	O 	0.82953 0.47793 0.64940 -0.42900
O 	O 	0.85851 0.48707 0.66340 -0.47000
O 	O 	0.85328 0.47514 0.15300 -0.48500
O 	O 	0.82441 0.48316 0.17140 -0.47500
O 	O 	0.83583 0.47375 0.95580 -0.43800
O 	O 	0.72991 0.33569 0.61530 -0.44500
O 	O 	0.73099 0.29951 0.62510 -0.44000
O 	O 	0.74370 0.31734 0.44340 -0.54300
O 	O 	0.73250 0.39883 0.89710 -0.40500
O 	O 	0.73977 0.36226 0.91450 -0.46000
O 	O 	0.72732 0.37851 0.70670 -0.44600
O 	O 	0.94329 0.47232 0.45760 -0.47800
O 	O 	0.95920 0.47659 0.65690 -0.47300
O 	O 	0.92981 0.48600 0.65720 -0.48800
O 	O 	0.95122 0.47152 0.95850 -0.44100
O 	O 	0.96475 0.48650 0.16160 -0.49400
O 	O 	0.93531 0.47585 0.15540 -0.48000
O 	O 	0.80026 0.48033 0.83640 -0.42500
O 	O 	0.77208 0.47248 0.79670 -0.50200
O 	O 	0.78754 0.49478 0.63250 -0.52500
O 	O 	0.76082 0.27250 0.58830 -0.49800
O 	O 	0.76908 0.23507 0.59370 -0.48200
O 	O 	0.77218 0.25520 0.78620 -0.46500
O 	O 	0.98603 0.47619 0.87200 -0.42000
F 	F 	0.74594 0.49492 0.87560 -0.81500
H 	H 	0.75540 0.46070 0.11490 -0.00300
H 	H 	0.89570 0.45400 0.19610 -0.04900
H 	H 	0.70980 0.39530 0.38440 -0.00700
H 	H 	0.85030 0.44970 0.65390 -0.00100
H 	H 	0.83190 0.44730 0.13460 -0.00800
H 	H 	0.71270 0.37530 0.93270 -0.00200
H 	H 	0.93740 0.44910 0.66070 -0.00900
H 	H 	0.78680 0.26270 0.57360 -0.02200
Zn	Zn	0.35888 0.98366 0.32869 1.23600
Zn	Zn	0.32220 0.98677 0.82629 1.23100
Zn	Zn	0.23974 0.90857 0.07584 1.22200
Zn	Zn	0.23700 0.86197 0.57846 1.23400
Zn	Zn	0.42931 0.98490 0.33640 1.22800
Zn	Zn	0.46486 0.98488 0.83640 1.23300
Zn	Zn	0.23801 0.77250 0.58590 1.22600
P 	P 	0.24091 0.95546 0.02650 0.43900
P 	P 	0.39434 0.97538 0.28180 0.48200
P 	P 	0.22746 0.89070 0.35190 0.42500
P 	P 	0.34577 0.97260 0.60790 0.43600
P 	P 	0.33633 0.97108 0.10260 0.42000
P 	P 	0.23035 0.81679 0.53000 0.45200
P 	P 	0.22843 0.87826 0.85710 0.44100
P 	P 	0.44239 0.97173 0.60380 0.43200
P 	P 	0.45166 0.97205 0.10560 0.38900
P 	P 	0.28515 0.98852 0.77740 0.48300
P 	P 	0.27180 0.75604 0.64090 0.45200
O 	O 	0.22851 0.97217 0.04690 -0.52700
O 	O 	0.24606 0.95244 0.88070 -0.49500
O 	O 	0.23439 0.93604 0.08570 -0.44200
O 	O 	0.37989 0.97444 0.36550 -0.45000
O 	O 	0.40810 0.97584 0.37340 -0.45200
O 	O 	0.39395 0.99242 0.19220 -0.55200
O 	O 	0.22924 0.89104 0.20170 -0.47500
O 	O 	0.22995 0.86930 0.39990 -0.47400
O 	O 	0.23725 0.90625 0.42570 -0.47000
O 	O 	0.34607 0.97141 0.45710 -0.44900
O 	O 	0.32953 0.97793 0.64940 -0.42900
O 	O 	0.35851 0.98707 0.66340 -0.47000
O 	O 	0.35328 0.97514 0.15300 -0.48400
O 	O 	0.32441 0.98316 0.17140 -0.47500
O 	O 	0.33583 0.97375 0.95580 -0.43800
O 	O 	0.22991 0.83569 0.61530 -0.44500
O 	O 	0.23099 0.79951 0.62510 -0.44000
O 	O 	0.24370 0.81734 0.44340 -0.54300
O 	O 	0.23250 0.89883 0.89710 -0.40500
O 	O 	0.23977 0.86226 0.91450 -0.46000
O 	O 	0.22732 0.87851 0.70670 -0.44600
O 	O 	0.44329 0.97232 0.45760 -0.47800
O 	O 	0.45920 0.97659 0.65690 -0.47300
O 	O 	0.42981 0.98600 0.65720 -0.48800
O 	O 	0.45122 0.97152 0.95850 -0.44100
O 	O 	0.46475 0.98650 0.16160 -0.49400
O 	O 	0.43531 0.97585 0.15540 -0.48000
O 	O 	0.30026 0.98033 0.83640 -0.42500
O 	O 	0.27208 0.97248 0.79670 -0.50200
O 	O 	0.28754 0.99478 0.63250 -0.52500
O 	O 	0.26082 0.77250 0.58830 -0.49800
O 	O 	0.26908 0.73507 0.59370 -0.48200
O 	O 	0.27218 0.75520 0.78620 -0.46500
O 	O 	0.48603 0.97619 0.87200 -0.42000
F 	F 	0.24594 0.99492 0.87560 -0.81500
H 	H 	0.25540 0.96070 0.11490 -0.00300
H 	H 	0.39570 0.95400 0.19610 -0.04900
H 	H 	0.20980 0.89530 0.38440 -0.00700
H 	H 	0.35030 0.94970 0.65390 -0.00100
H 	H 	0.33190 0.94730 0.13460 -0.00800
H 	H 	0.21270 0.87530 0.93270 -0.00200
H 	H 	0.43740 0.94910 0.66070 -0.00900
H 	H 	0.28680 0.76270 0.57360 -0.02200
Zn	Zn	0.14112 0.01634 0.82869 1.23800
Zn	Zn	0.17780 0.01323 0.32629 1.22800
Zn	Zn	0.26026 0.09143 0.57584 1.23000
Zn	Zn	0.26300 0.13803 0.07846 1.22500
Zn	Zn	0.07069 0.01510 0.83640 1.23100
Zn	Zn	0.03514 0.01512 0.33640 1.23000
Zn	Zn	0.26199 0.22750 0.08590 1.21900
P 	P 	0.25909 0.04454 0.52650 0.47200
P 	P 	0.10566 0.02462 0.78180 0.48200
P 	P 	0.27254 0.10930 0.85190 0.42700
P 	P 	0.15423 0.02740 0.10790 0.40400
P 	P 	0.16367 0.02892 0.60260 0.45400
P 	P 	0.26965 0.18321 0.03000 0.41000
P 	P 	0.27157 0.12174 0.35710 0.44100
P 	P 	0.05761 0.02827 0.10380 0.39800
P 	P 	0.04834 0.02795 0.60560 0.42600
P 	P 	0.21485 0.01148 0.27740 0.47700
P 	P 	0.22820 0.24396 0.14090 0.45200
O 	O 	0.27149 0.02783 0.54690 -0.51400
O 	O 	0.25394 0.04756 0.38070 -0.52600
O 	O 	0.26561 0.06396 0.58570 -0.43500
O 	O 	0.12011 0.02556 0.86550 -0.43800
O 	O 	0.09190 0.02416 0.87340 -0.43900
O 	O 	0.10605 0.00758 0.69220 -0.54100
O 	O 	0.27076 0.10896 0.70170 -0.46300
O 	O 	0.27005 0.13070 0.89990 -0.45200
O 	O 	0.26275 0.09375 0.92570 -0.45600
O 	O 	0.15393 0.02859 0.95710 -0.41600
O 	O 	0.17047 0.02207 0.14940 -0.43700
O 	O 	0.14149 0.01293 0.16340 -0.47900
O 	O 	0.14672 0.02486 0.65300 -0.47800
O 	O 	0.17559 0.01684 0.67140 -0.46900
O 	O 	0.16417 0.02625 0.45580 -0.47400
O 	O 	0.27009 0.16431 0.11530 -0.45000
O 	O 	0.26901 0.20049 0.12510 -0.44400
O 	O 	0.25630 0.18266 0.94340 -0.50100
O 	O 	0.26750 0.10117 0.39710 -0.42500
O 	O 	0.26023 0.13774 0.41450 -0.47400
O 	O 	0.27268 0.12149 0.20670 -0.45800
O 	O 	0.05671 0.02768 0.95760 -0.44400
O 	O 	0.04080 0.02341 0.15690 -0.47900
O 	O 	0.07019 0.01400 0.15720 -0.49600
O 	O 	0.04878 0.02848 0.45850 -0.47500
O 	O 	0.03525 0.01350 0.66160 -0.48600
O 	O 	0.06469 0.02415 0.65540 -0.47500
O 	O 	0.19974 0.01967 0.33640 -0.43800
O 	O 	0.22792 0.02752 0.29670 -0.51300
O 	O 	0.21246 0.00522 0.13250 -0.54000
O 	O 	0.23918 0.22750 0.08830 -0.51100
O 	O 	0.23092 0.26493 0.09370 -0.50200
O 	O 	0.22782 0.24480 0.28620 -0.47700
O 	O 	0.01397 0.02381 0.37200 -0.43300
F 	F 	0.25406 0.00508 0.37560 -0.83000
H 	H 	0.24460 0.03930 0.61490 0.00200
H 	H 	0.10430 0.04600 0.69610 -0.04000
H 	H 	0.29020 0.10470 0.88440 0.00500
H 	H 	0.14970 0.05030 0.15390 -0.01200
H 	H 	0.16810 0.05270 0.63460 0.00100
H 	H 	0.28730 0.12470 0.43270 -0.01400
H 	H 	0.06260 0.05090 0.16070 -0.01900
H 	H 	0.21320 0.23730 0.07360 -0.03300
Zn	Zn	0.64112 0.51634 0.82869 1.23800
Zn	Zn	0.67780 0.51323 0.32629 1.22800
Zn	Zn	0.76026 0.59143 0.57584 1.23000
Zn	Zn	0.76300 0.63803 0.07846 1.22500
Zn	Zn	0.57069 0.51510 0.83640 1.23100
Zn	Zn	0.53514 0.51512 0.33640 1.23000
Zn	Zn	0.76199 0.72750 0.08590 1.21900
P 	P 	0.75909 0.54454 0.52650 0.47200
P 	P 	0.60566 0.52462 0.78180 0.48200
P 	P 	0.77254 0.60930 0.85190 0.42700
P 	P 	0.65423 0.52740 0.10790 0.40400
P 	P 	0.66367 0.52892 0.60260 0.45400
P 	P 	0.76965 0.68321 0.03000 0.41000
P 	P 	0.77157 0.62174 0.35710 0.44100
P 	P 	0.55761 0.52827 0.10380 0.39800
P 	P 	0.54834 0.52795 0.60560 0.42600
P 	P 	0.71485 0.51148 0.27740 0.47700
P 	P 	0.72820 0.74396 0.14090 0.45200
O 	O 	0.77149 0.52783 0.54690 -0.51400
O 	O 	0.75394 0.54756 0.38070 -0.52600
O 	O 	0.76561 0.56396 0.58570 -0.43500
O 	O 	0.62011 0.52556 0.86550 -0.43800
O 	O 	0.59190 0.52416 0.87340 -0.43900
O 	O 	0.60605 0.50758 0.69220 -0.54100
O 	O 	0.77076 0.60896 0.70170 -0.46300
O 	O 	0.77005 0.63070 0.89990 -0.45200
O 	O 	0.76275 0.59375 0.92570 -0.45600
O 	O 	0.65393 0.52859 0.95710 -0.41600
O 	O 	0.67047 0.52207 0.14940 -0.43700
O 	O 	0.64149 0.51293 0.16340 -0.47900
O 	O 	0.64672 0.52486 0.65300 -0.47800
O 	O 	0.67559 0.51684 0.67140 -0.46900
O 	O 	0.66417 0.52625 0.45580 -0.47400
O 	O 	0.77009 0.66431 0.11530 -0.45000
O 	O 	0.76901 0.70049 0.12510 -0.44400
O 	O 	0.75630 0.68266 0.94340 -0.50100
O 	O 	0.76750 0.60117 0.39710 -0.42500
O 	O 	0.76023 0.63774 0.41450 -0.47400
O 	O 	0.77268 0.62149 0.20670 -0.45800
O 	O 	0.55671 0.52768 0.95760 -0.44400
O 	O 	0.54080 0.52341 0.15690 -0.47900
O 	O 	0.57019 0.51400 0.15720 -0.49600
O 	O 	0.54878 0.52848 0.45850 -0.47500
O 	O 	0.53525 0.51350 0.66160 -0.48500
O 	O 	0.56469 0.52415 0.65540 -0.47500
O 	O 	0.69974 0.51967 0.33640 -0.43800
O 	O 	0.72792 0.52752 0.29670 -0.51300
O 	O 	0.71246 0.50522 0.13250 -0.54000
O 	O 	0.73918 0.72750 0.08830 -0.51100
O 	O 	0.73092 0.76493 0.09370 -0.50200
O 	O 	0.72782 0.74480 0.28620 -0.47700
O 	O 	0.51397 0.52381 0.37200 -0.43300
F 	F 	0.75406 0.50508 0.37560 -0.83000
H 	H 	0.74460 0.53930 0.61490 0.00200
H 	H 	0.60430 0.54600 0.69610 -0.04000
H 	H 	0.79020 0.60470 0.88440 0.00500
H 	H 	0.64970 0.55030 0.15390 -0.01200
H 	H 	0.66810 0.55270 0.63460 0.00100
H 	H 	0.78730 0.62470 0.43270 -0.01400
H 	H 	0.56260 0.55090 0.16070 -0.01900
H 	H 	0.71320 0.73730 0.07360 -0.03300
Zn	Zn	0.85888 0.01634 0.82869 1.23800
Zn	Zn	0.82220 0.01323 0.32629 1.22800
Zn	Zn	0.73974 0.09143 0.57584 1.23000
Zn	Zn	0.73700 0.13803 0.07846 1.22500
Zn	Zn	0.92931 0.01510 0.83640 1.23100
Zn	Zn	0.96486 0.01512 0.33640 1.23000
Zn	Zn	0.73801 0.22750 0.08590 1.21900
P 	P 	0.74091 0.04454 0.52650 0.47200
P 	P 	0.89434 0.02462 0.78180 0.48200
P 	P 	0.72746 0.10930 0.85190 0.42700
P 	P 	0.84577 0.02740 0.10790 0.40400
P 	P 	0.83633 0.02892 0.60260 0.45400
P 	P 	0.73035 0.18321 0.03000 0.41000
P 	P 	0.72843 0.12174 0.35710 0.44100
P 	P 	0.94239 0.02827 0.10380 0.39800
P 	P 	0.95166 0.02795 0.60560 0.42600
P 	P 	0.78515 0.01148 0.27740 0.47700
P 	P 	0.77180 0.24396 0.14090 0.45200
O 	O 	0.72851 0.02783 0.54690 -0.51400
O 	O 	0.74606 0.04756 0.38070 -0.52600
O 	O 	0.73439 0.06396 0.58570 -0.43500
O 	O 	0.87989 0.02556 0.86550 -0.43800
O 	O 	0.90810 0.02416 0.87340 -0.43900
O 	O 	0.89395 0.00758 0.69220 -0.54100
O 	O 	0.72924 0.10896 0.70170 -0.46300
O 	O 	0.72995 0.13070 0.89990 -0.45200
O 	O 	0.73725 0.09375 0.92570 -0.45600
O 	O 	0.84607 0.02859 0.95710 -0.41600
O 	O 	0.82953 0.02207 0.14940 -0.43700
O 	O 	0.85851 0.01293 0.16340 -0.47900
O 	O 	0.85328 0.02486 0.65300 -0.47800
O 	O 	0.82441 0.01684 0.67140 -0.46900
O 	O 	0.83583 0.02625 0.45580 -0.47400
O 	O 	0.72991 0.16431 0.11530 -0.45000
O 	O 	0.73099 0.20049 0.12510 -0.44400
O 	O 	0.74370 0.18266 0.94340 -0.50100
O 	O 	0.73250 0.10117 0.39710 -0.42500
O 	O 	0.73977 0.13774 0.41450 -0.47400
O 	O 	0.72732 0.12149 0.20670 -0.45800
O 	O 	0.94329 0.02768 0.95760 -0.44400
O 	O 	0.95920 0.02341 0.15690 -0.47900
O 	O 	0.92981 0.01400 0.15720 -0.49600
O 	O 	0.95122 0.02848 0.45850 -0.47500
O 	O 	0.96475 0.01350 0.66160 -0.48600
O 	O 	0.93531 0.02415 0.65540 -0.47500
O 	O 	0.80026 0.01967 0.33640 -0.43800
O 	O 	0.77208 0.02752 0.29670 -0.51300
O 	O 	0.78754 0.00522 0.13250 -0.54000
O 	O 	0.76082 0.22750 0.08830 -0.51100
O 	O 	0.76908 0.26493 0.09370 -0.50200
O 	O 	0.77218 0.24480 0.28620 -0.47700
O 	O 	0.98603 0.02381 0.37200 -0.43300
F 	F 	0.74594 0.00508 0.37560 -0.83000
H 	H 	0.75540 0.03930 0.61490 0.00200
H 	H 	0.89570 0.04600 0.69610 -0.04000
H 	H 	0.70980 0.10470 0.88440 0.00500
H 	H 	0.85030 0.05030 0.15390 -0.01200
H 	H 	0.83190 0.05270 0.63460 0.00100
H 	H 	0.71270 0.12470 0.43270 -0.01400
H 	H 	0.93740 0.05090 0.16070 -0.01900
H 	H 	0.78680 0.23730 0.07360 -0.03300
Zn	Zn	0.35888 0.51634 0.82869 1.23800
Zn	Zn	0.32220 0.51323 0.32629 1.22800
Zn	Zn	0.23974 0.59143 0.57584 1.23000
Zn	Zn	0.23700 0.63803 0.07846 1.22500
Zn	Zn	0.42931 0.51510 0.83640 1.23100
Zn	Zn	0.46486 0.51512 0.33640 1.23000
Zn	Zn	0.23801 0.72750 0.08590 1.21900
P 	P 	0.24091 0.54454 0.52650 0.47200
P 	P 	0.39434 0.52462 0.78180 0.48200
P 	P 	0.22746 0.60930 0.85190 0.42700
P 	P 	0.34577 0.52740 0.10790 0.40400
P 	P 	0.33633 0.52892 0.60260 0.45400
P 	P 	0.23035 0.68321 0.03000 0.41000
P 	P 	0.22843 0.62174 0.35710 0.44100
P 	P 	0.44239 0.52827 0.10380 0.39800
P 	P 	0.45166 0.52795 0.60560 0.42600
P 	P 	0.28515 0.51148 0.27740 0.47700
P 	P 	0.27180 0.74396 0.14090 0.45200
O 	O 	0.22851 0.52783 0.54690 -0.51400
O 	O 	0.24606 0.54756 0.38070 -0.52600
O 	O 	0.23439 0.56396 0.58570 -0.43500
O 	O 	0.37989 0.52556 0.86550 -0.43800
O 	O 	0.40810 0.52416 0.87340 -0.43900
O 	O 	0.39395 0.50758 0.69220 -0.54100
O 	O 	0.22924 0.60896 0.70170 -0.46300
O 	O 	0.22995 0.63070 0.89990 -0.45200
O 	O 	0.23725 0.59375 0.92570 -0.45600
O 	O 	0.34607 0.52859 0.95710 -0.41600
O 	O 	0.32953 0.52207 0.14940 -0.43700
O 	O 	0.35851 0.51293 0.16340 -0.47900
O 	O 	0.35328 0.52486 0.65300 -0.47800
O 	O 	0.32441 0.51684 0.67140 -0.46900
O 	O 	0.33583 0.52625 0.45580 -0.47400
O 	O 	0.22991 0.66431 0.11530 -0.45000
O 	O 	0.23099 0.70049 0.12510 -0.44400
O 	O 	0.24370 0.68266 0.94340 -0.50100
O 	O 	0.23250 0.60117 0.39710 -0.42500
O 	O 	0.23977 0.63774 0.41450 -0.47400
O 	O 	0.22732 0.62149 0.20670 -0.45800
O 	O 	0.44329 0.52768 0.95760 -0.44400
O 	O 	0.45920 0.52341 0.15690 -0.47900
O 	O 	0.42981 0.51400 0.15720 -0.49600
O 	O 	0.45122 0.52848 0.45850 -0.47500
O 	O 	0.46475 0.51350 0.66160 -0.48500
O 	O 	0.43531 0.52415 0.65540 -0.47500
O 	O 	0.30026 0.51967 0.33640 -0.43800
O 	O 	0.27208 0.52752 0.29670 -0.51300
O 	O 	0.28754 0.50522 0.13250 -0.54000
O 	O 	0.26082 0.72750 0.08830 -0.51100
O 	O 	0.26908 0.76493 0.09370 -0.50200
O 	O 	0.27218 0.74480 0.28620 -0.47700
O 	O 	0.48603 0.52381 0.37200 -0.43300
F 	F 	0.24594 0.50508 0.37560 -0.83000
H 	H 	0.25540 0.53930 0.61490 0.00200
H 	H 	0.39570 0.54600 0.69610 -0.04000
H 	H 	0.20980 0.60470 0.88440 0.00500
H 	H 	0.35030 0.55030 0.15390 -0.01200
H 	H 	0.33190 0.55270 0.63460 0.00100
H 	H 	0.21270 0.62470 0.43270 -0.01400
H 	H 	0.43740 0.55090 0.16070 -0.01900
H 	H 	0.28680 0.73730 0.07360 -0.03300
Zn	Zn	0.14112 0.48366 0.32869 1.23600
Zn	Zn	0.17780 0.48677 0.82629 1.23100
Zn	Zn	0.26026 0.40857 0.07584 1.22200
Zn	Zn	0.26300 0.36197 0.57846 1.23400
Zn	Zn	0.07069 0.48490 0.33640 1.22800
Zn	Zn	0.03514 0.48488 0.83640 1.23300
Zn	Zn	0.26199 0.27250 0.58590 1.22600
P 	P 	0.25909 0.45546 0.02650 0.43900
P 	P 	0.10566 0.47538 0.28180 0.48200
P 	P 	0.27254 0.39070 0.35190 0.42500
P 	P 	0.15423 0.47260 0.60790 0.43600
P 	P 	0.16367 0.47108 0.10260 0.42000
P 	P 	0.26965 0.31679 0.53000 0.45200
P 	P 	0.27157 0.37826 0.85710 0.44100
P 	P 	0.05761 0.47173 0.60380 0.43200
P 	P 	0.04834 0.47205 0.10560 0.38900
P 	P 	0.21485 0.48852 0.77740 0.48300
P 	P 	0.22820 0.25604 0.64090 0.45200
O 	O 	0.27149 0.47217 0.04690 -0.52700
O 	O 	0.25394 0.45244 0.88070 -0.49500
O 	O 	0.26561 0.43604 0.08570 -0.44200
O 	O 	0.12011 0.47444 0.36550 -0.45000
O 	O 	0.09190 0.47584 0.37340 -0.45200
O 	O 	0.10605 0.49242 0.19220 -0.55200
O 	O 	0.27076 0.39104 0.20170 -0.47500
O 	O 	0.27005 0.36930 0.39990 -0.47400
O 	O 	0.26275 0.40625 0.42570 -0.47000
O 	O 	0.15393 0.47141 0.45710 -0.44900
O 	O 	0.17047 0.47793 0.64940 -0.42900
O 	O 	0.14149 0.48707 0.66340 -0.47000
O 	O 	0.14672 0.47514 0.15300 -0.48500
O 	O 	0.17559 0.48316 0.17140 -0.47500
O 	O 	0.16417 0.47375 0.95580 -0.43800
O 	O 	0.27009 0.33569 0.61530 -0.44500
O 	O 	0.26901 0.29951 0.62510 -0.44000
O 	O 	0.25630 0.31734 0.44340 -0.54300
O 	O 	0.26750 0.39883 0.89710 -0.40500
O 	O 	0.26023 0.36226 0.91450 -0.46000
O 	O 	0.27268 0.37851 0.70670 -0.44600
O 	O 	0.05671 0.47232 0.45760 -0.47800
O 	O 	0.04080 0.47659 0.65690 -0.47300
O 	O 	0.07019 0.48600 0.65720 -0.48800
O 	O 	0.04878 0.47152 0.95850 -0.44100
O 	O 	0.03525 0.48650 0.16160 -0.49400
O 	O 	0.06469 0.47585 0.15540 -0.48000
O 	O 	0.19974 0.48033 0.83640 -0.42500
O 	O 	0.22792 0.47248 0.79670 -0.50200
O 	O 	0.21246 0.49478 0.63250 -0.52500
O 	O 	0.23918 0.27250 0.58830 -0.49800
O 	O 	0.23092 0.23507 0.59370 -0.48200
O 	O 	0.22782 0.25520 0.78620 -0.46500
O 	O 	0.01397 0.47619 0.87200 -0.42000
F 	F 	0.25406 0.49492 0.87560 -0.81500
H 	H 	0.24460 0.46070 0.11490 -0.00300
H 	H 	0.10430 0.45400 0.19610 -0.04900
H 	H 	0.29020 0.39530 0.38440 -0.00700
H 	H 	0.14970 0.44970 0.65390 -0.00100
H 	H 	0.16810 0.44730 0.13460 -0.00800
H 	H 	0.28730 0.37530 0.93270 -0.00200
H 	H 	0.06260 0.44910 0.66070 -0.00900
H 	H 	0.21320 0.26270 0.57360 -0.02200
Zn	Zn	0.64112 0.98366 0.32869 1.23600
Zn	Zn	0.67780 0.98677 0.82629 1.23100
Zn	Zn	0.76026 0.90857 0.07584 1.22200
Zn	Zn	0.76300 0.86197 0.57846 1.23400
Zn	Zn	0.57069 0.98490 0.33640 1.22800
Zn	Zn	0.53514 0.98488 0.83640 1.23300
Zn	Zn	0.76199 0.77250 0.58590 1.22600
P 	P 	0.75909 0.95546 0.02650 0.43900
P 	P 	0.60566 0.97538 0.28180 0.48200
P 	P 	0.77254 0.89070 0.35190 0.42500
P 	P 	0.65423 0.97260 0.60790 0.43600
P 	P 	0.66367 0.97108 0.10260 0.42000
P 	P 	0.76965 0.81679 0.53000 0.45200
P 	P 	0.77157 0.87826 0.85710 0.44100
P 	P 	0.55761 0.97173 0.60380 0.43200
P 	P 	0.54834 0.97205 0.10560 0.38900
P 	P 	0.71485 0.98852 0.77740 0.48300
P 	P 	0.72820 0.75604 0.64090 0.45200
O 	O 	0.77149 0.97217 0.04690 -0.52700
O 	O 	0.75394 0.95244 0.88070 -0.49500
O 	O 	0.76561 0.93604 0.08570 -0.44200
O 	O 	0.62011 0.97444 0.36550 -0.45000
O 	O 	0.59190 0.97584 0.37340 -0.45200
O 	O 	0.60605 0.99242 0.19220 -0.55200
O 	O 	0.77076 0.89104 0.20170 -0.47500
O 	O 	0.77005 0.86930 0.39990 -0.47400
O 	O 	0.76275 0.90625 0.42570 -0.47000
O 	O 	0.65393 0.97141 0.45710 -0.44900
O 	O 	0.67047 0.97793 0.64940 -0.42900
O 	O 	0.64149 0.98707 0.66340 -0.47000
O 	O 	0.64672 0.97514 0.15300 -0.48400
O 	O 	0.67559 0.98316 0.17140 -0.47500
O 	O 	0.66417 0.97375 0.95580 -0.43800
O 	O 	0.77009 0.83569 0.61530 -0.44500
O 	O 	0.76901 0.79951 0.62510 -0.44000
O 	O 	0.75630 0.81734 0.44340 -0.54300
O 	O 	0.76750 0.89883 0.89710 -0.40500
O 	O 	0.76023 0.86226 0.91450 -0.46000
O 	O 	0.77268 0.87851 0.70670 -0.44600
O 	O 	0.55671 0.97232 0.45760 -0.47800
O 	O 	0.54080 0.97659 0.65690 -0.47300
O 	O 	0.57019 0.98600 0.65720 -0.48800
O 	O 	0.54878 0.97152 0.95850 -0.44100
O 	O 	0.53525 0.98650 0.16160 -0.49400
O 	O 	0.56469 0.97585 0.15540 -0.48000
O 	O 	0.69974 0.98033 0.83640 -0.42500
O 	O 	0.72792 0.97248 0.79670 -0.50200
O 	O 	0.71246 0.99478 0.63250 -0.52500
O 	O 	0.73918 0.77250 0.58830 -0.49800
O 	O 	0.73092 0.73507 0.59370 -0.48200
O 	O 	0.72782 0.75520 0.78620 -0.46500
O 	O 	0.51397 0.97619 0.87200 -0.42000
F 	F 	0.75406 0.99492 0.87560 -0.81500
H 	H 	0.74460 0.96070 0.11490 -0.00300
H 	H 	0.60430 0.95400 0.19610 -0.04900
H 	H 	0.79020 0.89530 0.38440 -0.00700
H 	H 	0.64970 0.94970 0.65390 -0.00100
H 	H 	0.66810 0.94730 0.13460 -0.00800
H 	H 	0.78730 0.87530 0.93270 -0.00200
H 	H 	0.56260 0.94910 0.66070 -0.00900
H 	H 	0.71320 0.76270 0.57360 -0.02200
Zn	Zn	0.14112 0.51634 0.67131 1.23700
Zn	Zn	0.17780 0.51323 0.17371 1.22600
Zn	Zn	0.26026 0.59143 0.92416 1.23800
Zn	Zn	0.26300 0.63803 0.42154 1.23400
Zn	Zn	0.07069 0.51510 0.66360 1.22900
Zn	Zn	0.03514 0.51512 0.16360 1.22900
Zn	Zn	0.26199 0.72750 0.41410 1.22600
P 	P 	0.25909 0.54454 0.97350 0.50500
P 	P 	0.10566 0.52462 0.71820 0.48400
P 	P 	0.27254 0.60930 0.64810 0.42500
P 	P 	0.15423 0.52740 0.39210 0.43400
P 	P 	0.16367 0.52892 0.89740 0.48800
P 	P 	0.26965 0.68321 0.47000 0.45600
P 	P 	0.27157 0.62174 0.14290 0.43900
P 	P 	0.05761 0.52827 0.39620 0.43000
P 	P 	0.04834 0.52795 0.89440 0.45900
P 	P 	0.21485 0.51148 0.22260 0.47100
P 	P 	0.22820 0.74396 0.35910 0.45300
O 	O 	0.27149 0.52783 0.95310 -0.50000
O 	O 	0.25394 0.54756 0.11930 -0.55500
O 	O 	0.26561 0.56396 0.91430 -0.42900
O 	O 	0.12011 0.52556 0.63450 -0.44900
O 	O 	0.09190 0.52416 0.62660 -0.45100
O 	O 	0.10605 0.50758 0.80780 -0.52900
O 	O 	0.27076 0.60896 0.79830 -0.45300
O 	O 	0.27005 0.63070 0.60010 -0.46700
O 	O 	0.26275 0.59375 0.57430 -0.47100
O 	O 	0.15393 0.52859 0.54290 -0.44900
O 	O 	0.17047 0.52207 0.35060 -0.43200
O 	O 	0.14149 0.51293 0.33660 -0.47700
O 	O 	0.14672 0.52486 0.84700 -0.47300
O 	O 	0.17559 0.51684 0.82860 -0.47000
O 	O 	0.16417 0.52625 0.04420 -0.50900
O 	O 	0.27009 0.66431 0.38470 -0.44800
O 	O 	0.26901 0.70049 0.37490 -0.44400
O 	O 	0.25630 0.68266 0.55660 -0.53800
O 	O 	0.26750 0.60117 0.10290 -0.44100
O 	O 	0.26023 0.63774 0.08550 -0.48800
O 	O 	0.27268 0.62149 0.29330 -0.44900
O 	O 	0.05671 0.52768 0.54240 -0.47600
O 	O 	0.04080 0.52341 0.34310 -0.47500
O 	O 	0.07019 0.51400 0.34280 -0.49400
O 	O 	0.04878 0.52848 0.04150 -0.50700
O 	O 	0.03525 0.51350 0.83840 -0.48400
O 	O 	0.06469 0.52415 0.84460 -0.47000
O 	O 	0.19974 0.51967 0.16360 -0.44600
O 	O 	0.22792 0.52752 0.20330 -0.51700
O 	O 	0.21246 0.50522 0.36750 -0.52500
O 	O 	0.23918 0.72750 0.41170 -0.49800
O 	O 	0.23092 0.76493 0.40630 -0.48700
O 	O 	0.22782 0.74480 0.21380 -0.48500
O 	O 	0.01397 0.52381 0.12800 -0.44400
F 	F 	0.25406 0.50508 0.12440 -0.84100
H 	H 	0.24460 0.53930 0.88510 0.00600
H 	H 	0.10430 0.54600 0.80390 -0.03500
H 	H 	0.29020 0.60470 0.61560 -0.00200
H 	H 	0.14970 0.55030 0.34610 -0.00900
H 	H 	0.16810 0.55270 0.86540 0.00500
H 	H 	0.28730 0.62470 0.06730 -0.02400
H 	H 	0.06260 0.55090 0.33930 -0.01600
H 	H 	0.21320 0.73730 0.42640 -0.02400
Zn	Zn	0.64112 0.01634 0.67131 1.23700
Zn	Zn	0.67780 0.01323 0.17371 1.22600
Zn	Zn	0.76026 0.09143 0.92416 1.23800
Zn	Zn	0.76300 0.13803 0.42154 1.23400
Zn	Zn	0.57069 0.01510 0.66360 1.22900
Zn	Zn	0.53514 0.01512 0.16360 1.22900
Zn	Zn	0.76199 0.22750 0.41410 1.22600
P 	P 	0.75909 0.04454 0.97350 0.50500
P 	P 	0.60566 0.02462 0.71820 0.48400
P 	P 	0.77254 0.10930 0.64810 0.42500
P 	P 	0.65423 0.02740 0.39210 0.43400
P 	P 	0.66367 0.02892 0.89740 0.48800
P 	P 	0.76965 0.18321 0.47000 0.45600
P 	P 	0.77157 0.12174 0.14290 0.43900
P 	P 	0.55761 0.02827 0.39620 0.43000
P 	P 	0.54834 0.02795 0.89440 0.45900
P 	P 	0.71485 0.01148 0.22260 0.47100
P 	P 	0.72820 0.24396 0.35910 0.45300
O 	O 	0.77149 0.02783 0.95310 -0.50000
O 	O 	0.75394 0.04756 0.11930 -0.55500
O 	O 	0.76561 0.06396 0.91430 -0.42900
O 	O 	0.62011 0.02556 0.63450 -0.44900
O 	O 	0.59190 0.02416 0.62660 -0.45100
O 	O 	0.60605 0.00758 0.80780 -0.52900
O 	O 	0.77076 0.10896 0.79830 -0.45300
O 	O 	0.77005 0.13070 0.60010 -0.46700
O 	O 	0.76275 0.09375 0.57430 -0.47100
O 	O 	0.65393 0.02859 0.54290 -0.44900
O 	O 	0.67047 0.02207 0.35060 -0.43200
O 	O 	0.64149 0.01293 0.33660 -0.47700
O 	O 	0.64672 0.02486 0.84700 -0.47300
O 	O 	0.67559 0.01684 0.82860 -0.47000
O 	O 	0.66417 0.02625 0.04420 -0.50900
O 	O 	0.77009 0.16431 0.38470 -0.44800
O 	O 	0.76901 0.20049 0.37490 -0.44400
O 	O 	0.75630 0.18266 0.55660 -0.53800
O 	O 	0.76750 0.10117 0.10290 -0.44100
O 	O 	0.76023 0.13774 0.08550 -0.48800
O 	O 	0.77268 0.12149 0.29330 -0.44900
O 	O 	0.55671 0.02768 0.54240 -0.47600
O 	O 	0.54080 0.02341 0.34310 -0.47500
O 	O 	0.57019 0.01400 0.34280 -0.49400
O 	O 	0.54878 0.02848 0.04150 -0.50700
O 	O 	0.53525 0.01350 0.83840 -0.48400
O 	O 	0.56469 0.02415 0.84460 -0.47000
O 	O 	0.69974 0.01967 0.16360 -0.44600
O 	O 	0.72792 0.02752 0.20330 -0.51700
O 	O 	0.71246 0.00522 0.36750 -0.52500
O 	O 	0.73918 0.22750 0.41170 -0.49800
O 	O 	0.73092 0.26493 0.40630 -0.48700
O 	O 	0.72782 0.24480 0.21380 -0.48500
O 	O 	0.51397 0.02381 0.12800 -0.44500
F 	F 	0.75406 0.00508 0.12440 -0.84100
H 	H 	0.74460 0.03930 0.88510 0.00600
H 	H 	0.60430 0.04600 0.80390 -0.03500
H 	H 	0.79020 0.10470 0.61560 -0.00200
H 	H 	0.64970 0.05030 0.34610 -0.00900
H 	H 	0.66810 0.05270 0.86540 0.00500
H 	H 	0.78730 0.12470 0.06730 -0.02400
H 	H 	0.56260 0.05090 0.33930 -0.01600
H 	H 	0.71320 0.23730 0.42640 -0.02400
Zn	Zn	0.85888 0.98366 0.17131 1.23500
Zn	Zn	0.82220 0.98677 0.67371 1.22900
Zn	Zn	0.73974 0.90857 0.42416 1.23000
Zn	Zn	0.73700 0.86197 0.92154 1.24200
Zn	Zn	0.92931 0.98490 0.16360 1.22700
Zn	Zn	0.96486 0.98488 0.66360 1.23100
Zn	Zn	0.73801 0.77250 0.91410 1.23400
P 	P 	0.74091 0.95546 0.47350 0.47200
P 	P 	0.89434 0.97538 0.21820 0.48300
P 	P 	0.72746 0.89070 0.14810 0.42400
P 	P 	0.84577 0.97260 0.89210 0.46700
P 	P 	0.83633 0.97108 0.39740 0.45300
P 	P 	0.73035 0.81679 0.97000 0.49700
P 	P 	0.72843 0.87826 0.64290 0.44000
P 	P 	0.94239 0.97173 0.89620 0.46300
P 	P 	0.95166 0.97205 0.39440 0.42200
P 	P 	0.78515 0.98852 0.72260 0.47700
P 	P 	0.77180 0.75604 0.85910 0.45300
O 	O 	0.72851 0.97217 0.45310 -0.51600
O 	O 	0.74606 0.95244 0.61930 -0.52300
O 	O 	0.73439 0.93604 0.41430 -0.43600
O 	O 	0.87989 0.97444 0.13450 -0.46200
O 	O 	0.90810 0.97584 0.12660 -0.46400
O 	O 	0.89395 0.99242 0.30780 -0.54600
O 	O 	0.72924 0.89104 0.29830 -0.46500
O 	O 	0.72995 0.86930 0.10010 -0.48800
O 	O 	0.73725 0.90625 0.07430 -0.48500
O 	O 	0.84607 0.97141 0.04290 -0.48200
O 	O 	0.82953 0.97793 0.85060 -0.42400
O 	O 	0.85851 0.98707 0.83660 -0.46900
O 	O 	0.85328 0.97514 0.34700 -0.48000
O 	O 	0.82441 0.98316 0.32860 -0.47500
O 	O 	0.83583 0.97375 0.54420 -0.47300
O 	O 	0.72991 0.83569 0.88470 -0.44300
O 	O 	0.73099 0.79951 0.87490 -0.44000
O 	O 	0.74370 0.81734 0.05660 -0.58000
O 	O 	0.73250 0.89883 0.60290 -0.42000
O 	O 	0.73977 0.86226 0.58550 -0.47400
O 	O 	0.72732 0.87851 0.79330 -0.43700
O 	O 	0.94329 0.97232 0.04240 -0.51000
O 	O 	0.95920 0.97659 0.84310 -0.46800
O 	O 	0.92981 0.98600 0.84280 -0.48600
O 	O 	0.95122 0.97152 0.54150 -0.47400
O 	O 	0.96475 0.98650 0.33840 -0.49100
O 	O 	0.93531 0.97585 0.34460 -0.47600
O 	O 	0.80026 0.98033 0.66360 -0.43300
O 	O 	0.77208 0.97248 0.70330 -0.50600
O 	O 	0.78754 0.99478 0.86750 -0.50700
O 	O 	0.76082 0.77250 0.91170 -0.48500
O 	O 	0.76908 0.73507 0.90630 -0.46700
O 	O 	0.77218 0.75520 0.71380 -0.47300
O 	O 	0.98603 0.97619 0.62800 -0.43200
F 	F 	0.74594 0.99492 0.62440 -0.82900
H 	H 	0.75540 0.96070 0.38510 0.00100
H 	H 	0.89570 0.95400 0.30390 -0.04500
H 	H 	0.70980 0.89530 0.11560 -0.01300
H 	H 	0.85030 0.94970 0.84610 0.00200
H 	H 	0.83190 0.94730 0.36540 -0.00400
H 	H 	0.71270 0.87530 0.56730 -0.01200
H 	H 	0.93740 0.94910 0.83930 -0.00600
H 	H 	0.78680 0.76270 0.92640 -0.01300
Zn	Zn	0.35888 0.48366 0.17131 1.23500
Zn	Zn	0.32220 0.48677 0.67371 1.22900
Zn	Zn	0.23974 0.40857 0.42416 1.23000
Zn	Zn	0.23700 0.36197 0.92154 1.24200
Zn	Zn	0.42931 0.48490 0.16360 1.22700
Zn	Zn	0.46486 0.48488 0.66360 1.23100
Zn	Zn	0.23801 0.27250 0.91410 1.23400
P 	P 	0.24091 0.45546 0.47350 0.47200
P 	P 	0.39434 0.47538 0.21820 0.48300
P 	P 	0.22746 0.39070 0.14810 0.42400
P 	P 	0.34577 0.47260 0.89210 0.46700
P 	P 	0.33633 0.47108 0.39740 0.45300
P 	P 	0.23035 0.31679 0.97000 0.49700
P 	P 	0.22843 0.37826 0.64290 0.44000
P 	P 	0.44239 0.47173 0.89620 0.46300
P 	P 	0.45166 0.47205 0.39440 0.42200
P 	P 	0.28515 0.48852 0.72260 0.47700
P 	P 	0.27180 0.25604 0.85910 0.45300
O 	O 	0.22851 0.47217 0.45310 -0.51600
O 	O 	0.24606 0.45244 0.61930 -0.52300
O 	O 	0.23439 0.43604 0.41430 -0.43600
O 	O 	0.37989 0.47444 0.13450 -0.46200
O 	O 	0.40810 0.47584 0.12660 -0.46400
O 	O 	0.39395 0.49242 0.30780 -0.54600
O 	O 	0.22924 0.39104 0.29830 -0.46500
O 	O 	0.22995 0.36930 0.10010 -0.48800
O 	O 	0.23725 0.40625 0.07430 -0.48500
O 	O 	0.34607 0.47141 0.04290 -0.48200
O 	O 	0.32953 0.47793 0.85060 -0.42400
O 	O 	0.35851 0.48707 0.83660 -0.46900
O 	O 	0.35328 0.47514 0.34700 -0.48000
O 	O 	0.32441 0.48316 0.32860 -0.47500
O 	O 	0.33583 0.47375 0.54420 -0.47300
O 	O 	0.22991 0.33569 0.88470 -0.44300
O 	O 	0.23099 0.29951 0.87490 -0.44000
O 	O 	0.24370 0.31734 0.05660 -0.58000
O 	O 	0.23250 0.39883 0.60290 -0.42000
O 	O 	0.23977 0.36226 0.58550 -0.47400
O 	O 	0.22732 0.37851 0.79330 -0.43700
O 	O 	0.44329 0.47232 0.04240 -0.51000
O 	O 	0.45920 0.47659 0.84310 -0.46800
O 	O 	0.42981 0.48600 0.84280 -0.48600
O 	O 	0.45122 0.47152 0.54150 -0.47400
O 	O 	0.46475 0.48650 0.33840 -0.49100
O 	O 	0.43531 0.47585 0.34460 -0.47700
O 	O 	0.30026 0.48033 0.66360 -0.43300
O 	O 	0.27208 0.47248 0.70330 -0.50600
O 	O 	0.28754 0.49478 0.86750 -0.50700
O 	O 	0.26082 0.27250 0.91170 -0.48500
O 	O 	0.26908 0.23507 0.90630 -0.46700
O 	O 	0.27218 0.25520 0.71380 -0.47300
O 	O 	0.48603 0.47619 0.62800 -0.43200
F 	F 	0.24594 0.49492 0.62440 -0.82900
H 	H 	0.25540 0.46070 0.38510 0.00100
H 	H 	0.39570 0.45400 0.30390 -0.04500
H 	H 	0.20980 0.39530 0.11560 -0.01300
H 	H 	0.35030 0.44970 0.84610 0.00200
H 	H 	0.33190 0.44730 0.36540 -0.00400
H 	H 	0.21270 0.37530 0.56730 -0.01200
H 	H 	0.43740 0.44910 0.83930 -0.00600
H 	H 	0.28680 0.26270 0.92640 -0.01300
Ga	Ga	0.25000 0.97286 0.75000 2.10500
Ga	Ga	0.75000 0.52714 0.25000 2.10500
Ga	Ga	0.75000 0.47286 0.75000 2.10500
Ga	Ga	0.25000 0.02714 0.25000 2.10500
Ga	Ga	0.75000 0.02714 0.25000 2.10500
Ga	Ga	0.25000 0.52714 0.25000 2.10500
Ga	Ga	0.25000 0.47286 0.75000 2.10500
Ga	Ga	0.75000 0.97286 0.75000 2.10500
Ga	Ga	0.22855 0.00000 -0.00000 2.09700
Ga	Ga	0.72855 0.50000 -0.00000 2.09700
Ga	Ga	0.77145 0.50000 0.50000 2.10600
Ga	Ga	0.27145 0.00000 0.50000 2.10600
Ga	Ga	0.77145 0.00000 -0.00000 2.09700
Ga	Ga	0.27145 0.50000 -0.00000 2.09700
Ga	Ga	0.22855 0.50000 0.50000 2.10600
Ga	Ga	0.72855 0.00000 0.50000 2.10600
Zn	Zn	0.25000 0.81729 0.25000 1.14100
Zn	Zn	0.75000 0.68271 0.75000 1.14600
Zn	Zn	0.75000 0.31729 0.25000 1.14100
Zn	Zn	0.25000 0.18271 0.75000 1.14600
Zn	Zn	0.75000 0.18271 0.75000 1.14600
Zn	Zn	0.25000 0.31729 0.25000 1.14100
Zn	Zn	0.25000 0.68271 0.75000 1.14600
Zn	Zn	0.75000 0.81729 0.25000 1.14100
Zn	Zn	-0.00000 0.00000 -0.00000 1.12600
Zn	Zn	0.50000 0.50000 -0.00000 1.12600
Zn	Zn	-0.00000 0.50000 0.50000 1.13800
Zn	Zn	0.50000 0.00000 0.50000 1.13800
Zn	Zn	0.10596 0.00000 0.50000 1.14700
Zn	Zn	0.60596 0.50000 0.50000 1.14700
Zn	Zn	0.89404 0.50000 -0.00000 1.13400
Zn	Zn	0.39404 0.00000 -0.00000 1.13400
Zn	Zn	0.89404 0.00000 0.50000 1.14700
Zn	Zn	0.39404 0.50000 0.50000 1.14700
Zn	Zn	0.10596 0.50000 -0.00000 1.13400
Zn	Zn	0.60596 0.00000 -0.00000 1.13400
P 	P 	0.00000 0.97484 0.72120 0.41200
O 	O 	-0.00000 0.99370 0.80140 -0.49300
P 	P 	0.50000 0.47484 0.72120 0.41200
O 	O 	0.50000 0.49370 0.80140 -0.49300
P 	P 	-0.00000 0.52516 0.22120 0.40700
O 	O 	-0.00000 0.50630 0.30140 -0.50900
P 	P 	0.50000 0.02516 0.22120 0.40700
O 	O 	0.50000 0.00630 0.30140 -0.50900
P 	P 	0.00000 0.47484 0.77880 0.40800
O 	O 	-0.00000 0.49370 0.69860 -0.50300
P 	P 	0.50000 0.97484 0.77880 0.40800
O 	O 	0.50000 0.99370 0.69860 -0.50300
P 	P 	0.00000 0.02516 0.27880 0.40200
O 	O 	0.00000 0.00630 0.19860 -0.51300
P 	P 	0.50000 0.52516 0.27880 0.40200
O 	O 	0.50000 0.50630 0.19860 -0.51300
