data_crystal

_cell_length_a 30.47870
_cell_length_b 30.47870
_cell_length_c 30.47870
_cell_angle_alpha 109.47100
_cell_angle_beta  109.47100
_cell_angle_gamma 109.47100

_symmetry_space_group_name_	'P 1'
_symmetry_space_group_name_H-M	'P 1'

loop_
_symmetry_equiv_pos_as_xyz
  x,y,z

loop_
_atom_site_label
_atom_site_type_symbol
_atom_site_fract_x
_atom_site_fract_y
_atom_site_fract_z
_atom_site_charge
Mg	Mg	0.76940 0.21540 0.21540 1.47000
Mg	Mg	0.67350 0.24300 0.24300 1.45600
Mg	Mg	-0.00000 0.55400 0.78460 1.47000
Mg	Mg	1.00000 0.43050 0.75700 1.45600
Mg	Mg	-0.00000 0.78460 0.55400 1.47000
Mg	Mg	1.00000 0.75700 0.43050 1.45600
Mg	Mg	0.23060 0.44600 0.44600 1.47000
Mg	Mg	0.32650 0.56950 0.56950 1.45600
Mg	Mg	0.55400 -0.00000 0.78460 1.46700
Mg	Mg	0.43050 0.00000 0.75700 1.45400
Mg	Mg	0.44600 0.23060 0.44600 1.47100
Mg	Mg	0.56950 0.32650 0.56950 1.45700
Mg	Mg	0.21540 0.76940 0.21540 1.47200
Mg	Mg	0.24300 0.67350 0.24300 1.45700
Mg	Mg	0.78460 0.00000 0.55400 1.46700
Mg	Mg	0.75700 0.00000 0.43050 1.45400
Mg	Mg	0.55400 0.78460 1.00000 1.47200
Mg	Mg	0.43050 0.75700 1.00000 1.45700
Mg	Mg	0.21540 0.21540 0.76940 1.47100
Mg	Mg	0.24300 0.24300 0.67350 1.45700
Mg	Mg	0.44600 0.44600 0.23060 1.47100
Mg	Mg	0.56950 0.56950 0.32650 1.45700
Mg	Mg	0.78460 0.55400 -0.00000 1.47100
Mg	Mg	0.75700 0.43050 1.00000 1.45700
Mg	Mg	0.78460 0.23060 0.78460 1.47100
Mg	Mg	0.75700 0.32650 0.75700 1.45700
Mg	Mg	0.44600 0.00000 0.21540 1.46700
Mg	Mg	0.56950 0.00000 0.24300 1.45400
Mg	Mg	0.21540 0.00000 0.44600 1.46700
Mg	Mg	0.24300 0.00000 0.56950 1.45400
Mg	Mg	0.55400 0.76940 0.55400 1.47200
Mg	Mg	0.43050 0.67350 0.43050 1.45700
Mg	Mg	-0.00000 0.44600 0.21540 1.47100
Mg	Mg	-0.00000 0.56950 0.24300 1.45700
Mg	Mg	0.76940 0.55400 0.55400 1.47100
Mg	Mg	0.67350 0.43050 0.43050 1.45700
Mg	Mg	0.23060 0.78460 0.78460 1.47100
Mg	Mg	0.32650 0.75700 0.75700 1.45700
Mg	Mg	1.00000 0.21540 0.44600 1.47200
Mg	Mg	-0.00000 0.24300 0.56950 1.45700
Mg	Mg	0.21540 0.44600 -0.00000 1.47100
Mg	Mg	0.24300 0.56950 1.00000 1.45700
Mg	Mg	0.78460 0.78460 0.23060 1.47100
Mg	Mg	0.75700 0.75700 0.32650 1.45700
Mg	Mg	0.55400 0.55400 0.76940 1.47100
Mg	Mg	0.43050 0.43050 0.67350 1.45700
Mg	Mg	0.44600 0.21540 -0.00000 1.47100
Mg	Mg	0.56950 0.24300 -0.00000 1.45700
H 	H 	0.67390 0.34910 0.27240 0.00700
H 	H 	0.61130 0.31140 0.24750 0.00400
H 	H 	0.75830 0.32020 0.37430 0.05500
H 	H 	0.79650 0.27270 0.13260 0.06600
H 	H 	0.07670 0.40150 0.72760 0.00500
H 	H 	0.06390 0.36380 0.75250 0.00100
H 	H 	0.94590 0.38400 0.62570 0.05500
H 	H 	0.14010 0.66390 0.86740 0.06600
H 	H 	0.92330 0.65090 0.32480 0.01000
H 	H 	0.93610 0.68860 0.29990 0.00800
H 	H 	0.05410 0.67980 0.43810 0.05400
H 	H 	0.85990 0.72730 0.52380 0.06500
H 	H 	0.32610 0.59850 0.67520 0.00700
H 	H 	0.38870 0.63620 0.70010 0.00400
H 	H 	0.24170 0.61600 0.56190 0.05500
H 	H 	0.20350 0.33610 0.47620 0.06400
H 	H 	0.32480 0.92330 0.65090 0.00200
H 	H 	0.29990 0.93610 0.68860 0.00500
H 	H 	0.43810 0.05410 0.67980 0.04700
H 	H 	0.52380 0.85990 0.72730 0.06600
H 	H 	0.67520 0.32610 0.59850 0.00700
H 	H 	0.70010 0.38870 0.63620 0.00400
H 	H 	0.56190 0.24170 0.61600 0.05400
H 	H 	0.47620 0.20350 0.33610 0.06300
H 	H 	0.27240 0.67390 0.34910 0.00700
H 	H 	0.24750 0.61130 0.31140 0.00400
H 	H 	0.37430 0.75830 0.32020 0.05500
H 	H 	0.13260 0.79650 0.27270 0.06700
H 	H 	0.72760 0.07670 0.40150 0.00700
H 	H 	0.75250 0.06390 0.36380 0.00000
H 	H 	0.62570 0.94590 0.38400 0.06700
H 	H 	0.86740 0.14010 0.66390 0.06200
H 	H 	0.40150 0.72760 0.07670 0.00800
H 	H 	0.36380 0.75250 0.06390 0.00500
H 	H 	0.38400 0.62570 0.94590 0.05500
H 	H 	0.66390 0.86740 0.14010 0.08800
H 	H 	0.34910 0.27240 0.67390 0.00700
H 	H 	0.31140 0.24750 0.61130 0.00400
H 	H 	0.32020 0.37430 0.75830 0.05500
H 	H 	0.27270 0.13260 0.79650 0.06400
H 	H 	0.59850 0.67520 0.32610 0.00700
H 	H 	0.63620 0.70010 0.38870 0.00400
H 	H 	0.61600 0.56190 0.24170 0.05500
H 	H 	0.33610 0.47620 0.20350 0.06500
H 	H 	0.65090 0.32480 0.92330 0.00700
H 	H 	0.68860 0.29990 0.93610 0.00400
H 	H 	0.67980 0.43810 0.05410 0.05400
H 	H 	0.72730 0.52380 0.85990 0.06500
H 	H 	0.65090 0.32610 0.72760 0.00700
H 	H 	0.68860 0.38870 0.75250 0.00400
H 	H 	0.67980 0.24170 0.62570 0.05400
H 	H 	0.72730 0.20350 0.86740 0.06300
H 	H 	0.59850 0.92330 0.27240 0.00100
H 	H 	0.63620 0.93610 0.24750 0.00300
H 	H 	0.61600 0.05410 0.37430 0.04700
H 	H 	0.33610 0.85990 0.13260 0.06600
H 	H 	0.34910 0.07670 0.67520 0.00600
H 	H 	0.31140 0.06390 0.70010 0.00000
H 	H 	0.32020 0.94590 0.56190 0.06700
H 	H 	0.27270 0.14010 0.47620 0.06400
H 	H 	0.40150 0.67390 0.32480 0.00700
H 	H 	0.36380 0.61130 0.29990 0.00400
H 	H 	0.38400 0.75830 0.43810 0.05500
H 	H 	0.66390 0.79650 0.52380 0.06700
H 	H 	0.07670 0.67520 0.34910 0.00400
H 	H 	0.06390 0.70010 0.31140 0.00000
H 	H 	0.94590 0.56190 0.32020 0.05600
H 	H 	0.14010 0.47620 0.27270 0.06500
H 	H 	0.67390 0.32480 0.40150 0.00700
H 	H 	0.61130 0.29990 0.36380 0.00400
H 	H 	0.75830 0.43810 0.38400 0.05500
H 	H 	0.79650 0.52380 0.66390 0.06500
H 	H 	0.32610 0.72760 0.65090 0.00800
H 	H 	0.38870 0.75250 0.68860 0.00500
H 	H 	0.24170 0.62570 0.67980 0.05500
H 	H 	0.20350 0.86740 0.72730 0.06500
H 	H 	0.92330 0.27240 0.59850 0.01000
H 	H 	0.93610 0.24750 0.63620 0.00700
H 	H 	0.05410 0.37430 0.61600 0.05400
H 	H 	0.85990 0.13260 0.33610 0.04900
H 	H 	0.27240 0.59850 0.92330 0.00700
H 	H 	0.24750 0.63620 0.93610 0.00400
H 	H 	0.37430 0.61600 0.05410 0.05400
H 	H 	0.13260 0.33610 0.85990 0.06700
H 	H 	0.72760 0.65090 0.32610 0.00700
H 	H 	0.75250 0.68860 0.38870 0.00400
H 	H 	0.62570 0.67980 0.24170 0.05500
H 	H 	0.86740 0.72730 0.20350 0.06500
H 	H 	0.32480 0.40150 0.67390 0.00700
H 	H 	0.29990 0.36380 0.61130 0.00400
H 	H 	0.43810 0.38400 0.75830 0.05500
H 	H 	0.52380 0.66390 0.79650 0.06600
H 	H 	0.67520 0.34910 0.07670 0.00700
H 	H 	0.70010 0.31140 0.06390 0.00400
H 	H 	0.56190 0.32020 0.94590 0.05600
H 	H 	0.47620 0.27270 0.14010 0.06500
H 	H 	0.32610 0.65090 0.72760 0.00700
H 	H 	0.38870 0.68860 0.75250 0.00400
H 	H 	0.24170 0.67980 0.62570 0.05500
H 	H 	0.20350 0.72730 0.86740 0.06400
H 	H 	0.92330 0.59850 0.27240 0.00400
H 	H 	0.93610 0.63620 0.24750 0.00100
H 	H 	0.05410 0.61600 0.37430 0.05400
H 	H 	0.85990 0.33610 0.13260 0.06400
H 	H 	0.07670 0.34910 0.67520 0.01000
H 	H 	0.06390 0.31140 0.70010 0.00700
H 	H 	0.94590 0.32020 0.56190 0.05500
H 	H 	0.14010 0.27270 0.47620 0.06500
H 	H 	0.67390 0.40150 0.32480 0.00700
H 	H 	0.61130 0.36380 0.29990 0.00400
H 	H 	0.75830 0.38400 0.43810 0.05500
H 	H 	0.79650 0.66390 0.52380 0.06600
H 	H 	0.67520 0.07670 0.34910 0.00600
H 	H 	0.70010 0.06390 0.31140 -0.00100
H 	H 	0.56190 0.94590 0.32020 0.06700
H 	H 	0.47620 0.14010 0.27270 0.06400
H 	H 	0.32480 0.67390 0.40150 0.00700
H 	H 	0.29990 0.61130 0.36380 0.00400
H 	H 	0.43810 0.75830 0.38400 0.05500
H 	H 	0.52380 0.79650 0.66390 0.06700
H 	H 	0.72760 0.32610 0.65090 0.00700
H 	H 	0.75250 0.38870 0.68860 0.00400
H 	H 	0.62570 0.24170 0.67980 0.05400
H 	H 	0.86740 0.20350 0.72730 0.06600
H 	H 	0.27240 0.92330 0.59850 0.00200
H 	H 	0.24750 0.93610 0.63620 0.00400
H 	H 	0.37430 0.05410 0.61600 0.04700
H 	H 	0.13260 0.85990 0.33610 0.06600
H 	H 	0.59850 0.27240 0.92330 0.00600
H 	H 	0.63620 0.24750 0.93610 0.00400
H 	H 	0.61600 0.37430 0.05410 0.05400
H 	H 	0.33610 0.13260 0.85990 0.06400
H 	H 	0.65090 0.72760 0.32610 0.00800
H 	H 	0.68860 0.75250 0.38870 0.00500
H 	H 	0.67980 0.62570 0.24170 0.05500
H 	H 	0.72730 0.86740 0.20350 0.05000
H 	H 	0.40150 0.32480 0.67390 0.00700
H 	H 	0.36380 0.29990 0.61130 0.00400
H 	H 	0.38400 0.43810 0.75830 0.05500
H 	H 	0.66390 0.52380 0.79650 0.06500
H 	H 	0.34910 0.67520 0.07670 0.00700
H 	H 	0.31140 0.70010 0.06390 0.00400
H 	H 	0.32020 0.56190 0.94590 0.05500
H 	H 	0.27270 0.47620 0.14010 0.06500
H 	H 	0.34910 0.67390 0.27240 0.00700
H 	H 	0.31140 0.61130 0.24750 0.00400
H 	H 	0.32020 0.75830 0.37430 0.05500
H 	H 	0.27270 0.79650 0.13260 0.06700
H 	H 	0.40150 0.07670 0.72760 0.00600
H 	H 	0.36380 0.06390 0.75250 0.00000
H 	H 	0.38400 0.94590 0.62570 0.06600
H 	H 	0.66390 0.14010 0.86740 0.06500
H 	H 	0.65090 0.92330 0.32480 0.00200
H 	H 	0.68860 0.93610 0.29990 0.00500
H 	H 	0.67980 0.05410 0.43810 0.04700
H 	H 	0.72730 0.85990 0.52380 0.06700
H 	H 	0.59850 0.32610 0.67520 0.00700
H 	H 	0.63620 0.38870 0.70010 0.00400
H 	H 	0.61600 0.24170 0.56190 0.05400
H 	H 	0.33610 0.20350 0.47620 0.06300
H 	H 	0.92330 0.32480 0.65090 0.00400
H 	H 	0.93610 0.29990 0.68860 0.00200
H 	H 	0.05410 0.43810 0.67980 0.05400
H 	H 	0.85990 0.52380 0.72730 0.06500
H 	H 	0.32610 0.67520 0.59850 0.00700
H 	H 	0.38870 0.70010 0.63620 0.00400
H 	H 	0.24170 0.56190 0.61600 0.05500
H 	H 	0.20350 0.47620 0.33610 0.06500
H 	H 	0.67390 0.27240 0.34910 0.00700
H 	H 	0.61130 0.24750 0.31140 0.00400
H 	H 	0.75830 0.37430 0.32020 0.05500
H 	H 	0.79650 0.13260 0.27270 0.08700
H 	H 	0.07670 0.72760 0.40150 0.01100
H 	H 	0.06390 0.75250 0.36380 0.00800
H 	H 	0.94590 0.62570 0.38400 0.05500
H 	H 	0.14010 0.86740 0.66390 0.06500
H 	H 	0.72760 0.40150 0.07670 0.00700
H 	H 	0.75250 0.36380 0.06390 0.00400
H 	H 	0.62570 0.38400 0.94590 0.05600
H 	H 	0.86740 0.66390 0.14010 0.06600
H 	H 	0.27240 0.34910 0.67390 0.00700
H 	H 	0.24750 0.31140 0.61130 0.00400
H 	H 	0.37430 0.32020 0.75830 0.05500
H 	H 	0.13260 0.27270 0.79650 0.06300
H 	H 	0.67520 0.59850 0.32610 0.00700
H 	H 	0.70010 0.63620 0.38870 0.00400
H 	H 	0.56190 0.61600 0.24170 0.05500
H 	H 	0.47620 0.33610 0.20350 0.06400
H 	H 	0.32480 0.65090 0.92330 0.00700
H 	H 	0.29990 0.68860 0.93610 0.00400
H 	H 	0.43810 0.67980 0.05410 0.05400
H 	H 	0.52380 0.72730 0.85990 0.06500
H 	H 	0.85610 0.22930 0.37320 0.02900
H 	H 	0.85610 0.48290 0.62680 0.03000
H 	H 	0.14390 0.77070 0.62680 0.03000
H 	H 	0.14390 0.51710 0.37320 0.02900
H 	H 	0.62680 0.14390 0.77070 0.02700
H 	H 	0.37320 0.14390 0.51710 0.02700
H 	H 	0.37320 0.85610 0.22930 0.03200
H 	H 	0.62680 0.85610 0.48290 0.03200
H 	H 	0.48290 0.62680 0.85610 0.03000
H 	H 	0.22930 0.37320 0.85610 0.02900
H 	H 	0.51710 0.37320 0.14390 0.02900
H 	H 	0.77070 0.62680 0.14390 0.03000
H 	H 	0.77070 0.14390 0.62680 0.02700
H 	H 	0.51710 0.14390 0.37320 0.02700
H 	H 	0.22930 0.85610 0.37320 0.03200
H 	H 	0.48290 0.85610 0.62680 0.03200
H 	H 	0.85610 0.37320 0.22930 0.02900
H 	H 	0.85610 0.62680 0.48290 0.03000
H 	H 	0.14390 0.62680 0.77070 0.03000
H 	H 	0.14390 0.37320 0.51710 0.02900
H 	H 	0.37320 0.51710 0.14390 0.02900
H 	H 	0.62680 0.77070 0.14390 0.03000
H 	H 	0.62680 0.48290 0.85610 0.03000
H 	H 	0.37320 0.22930 0.85610 0.02900
H 	H 	0.63260 0.11420 1.00000 0.03000
H 	H 	0.11420 0.63260 -0.00000 0.03800
H 	H 	0.88580 0.88580 0.51840 0.04600
H 	H 	0.36740 0.36740 0.48160 0.03700
H 	H 	0.51840 0.88580 0.88580 0.04600
H 	H 	0.48160 0.36740 0.36740 0.03700
H 	H 	-0.00000 0.63260 0.11420 0.03800
H 	H 	1.00000 0.11420 0.63260 0.03800
H 	H 	0.63260 0.00000 0.11420 -0.09100
H 	H 	0.11420 -0.00000 0.63260 0.04600
H 	H 	0.36740 0.48160 0.36740 0.03700
H 	H 	0.88580 0.51840 0.88580 0.03900
H 	H 	0.88580 0.36740 -0.00000 0.03900
H 	H 	0.36740 0.88580 1.00000 0.05100
H 	H 	0.11420 0.11420 0.48160 0.03100
H 	H 	0.63260 0.63260 0.51840 0.03800
H 	H 	0.11420 0.48160 0.11420 0.03600
H 	H 	0.63260 0.51840 0.63260 0.03800
H 	H 	0.36740 0.00000 0.88580 0.04700
H 	H 	0.88580 -0.00000 0.36740 0.05200
H 	H 	-0.00000 0.36740 0.88580 0.03200
H 	H 	-0.00000 0.88580 0.36740 0.04600
H 	H 	0.51840 0.63260 0.63260 0.03800
H 	H 	0.48160 0.11420 0.11420 0.03100
C 	C 	0.64670 0.33050 0.28040 0.03500
C 	C 	0.78170 0.25180 0.32450 0.40200
C 	C 	0.81810 0.27240 0.38410 -0.13400
C 	C 	0.81542 0.31060 0.42382 0.07000
C 	C 	0.78155 0.33290 0.41105 -0.06300
C 	C 	0.70810 0.18416 0.09786 0.34500
C 	C 	0.70697 0.18133 0.04902 -0.15600
C 	C 	0.74580 0.22180 0.05022 0.08000
C 	C 	0.79268 0.26879 0.09909 -0.07400
C 	C 	0.05010 0.36630 0.71960 0.04300
C 	C 	0.92730 0.45720 0.67550 0.40100
C 	C 	0.88830 0.43400 0.61590 -0.13400
C 	C 	0.88678 0.39160 0.57618 0.07000
C 	C 	0.92185 0.37050 0.58895 -0.06300
C 	C 	0.08630 0.61024 0.90214 0.34200
C 	C 	0.13231 0.65795 0.95098 -0.13800
C 	C 	0.17158 0.69558 0.94978 0.07700
C 	C 	0.16970 0.69359 0.90091 -0.06900
C 	C 	0.94990 0.66950 0.31620 0.02400
C 	C 	0.07270 0.74820 0.52990 0.40100
C 	C 	0.11170 0.72760 0.54570 -0.13400
C 	C 	0.11322 0.68940 0.50482 0.07000
C 	C 	0.07815 0.66710 0.44865 -0.06300
C 	C 	0.91370 0.81584 0.52394 0.34200
C 	C 	0.86769 0.81867 0.52564 -0.13800
C 	C 	0.82842 0.77820 0.52400 0.07200
C 	C 	0.83030 0.73121 0.52389 -0.06600
C 	C 	0.35330 0.63370 0.68380 0.03500
C 	C 	0.21830 0.54280 0.47010 0.40200
C 	C 	0.18190 0.56600 0.45430 -0.13500
C 	C 	0.18458 0.60840 0.49518 0.07000
C 	C 	0.21845 0.62950 0.55135 -0.06400
C 	C 	0.29190 0.38976 0.47606 0.34300
C 	C 	0.29303 0.34205 0.47436 -0.14400
C 	C 	0.25420 0.30442 0.47600 0.07300
C 	C 	0.20732 0.30641 0.47611 -0.06800
C 	C 	0.31620 0.94990 0.66950 0.07300
C 	C 	0.52990 0.07270 0.74820 0.39900
C 	C 	0.54570 0.11170 0.72760 -0.13800
C 	C 	0.50482 0.11322 0.68940 0.06700
C 	C 	0.44865 0.07815 0.66710 -0.06700
C 	C 	0.52394 0.91370 0.81584 0.34000
C 	C 	0.52564 0.86769 0.81867 -0.13500
C 	C 	0.52400 0.82842 0.77820 0.07200
C 	C 	0.52389 0.83030 0.73121 -0.06500
C 	C 	0.68380 0.35330 0.63370 0.03500
C 	C 	0.47010 0.21830 0.54280 0.40200
C 	C 	0.45430 0.18190 0.56600 -0.13700
C 	C 	0.49518 0.18458 0.60840 0.06900
C 	C 	0.55135 0.21845 0.62950 -0.06400
C 	C 	0.47606 0.29190 0.38976 0.34300
C 	C 	0.47436 0.29303 0.34205 -0.14400
C 	C 	0.47600 0.25420 0.30442 0.07300
C 	C 	0.47611 0.20732 0.30641 -0.06900
C 	C 	0.28040 0.64670 0.33050 0.03500
C 	C 	0.32450 0.78170 0.25180 0.40100
C 	C 	0.38410 0.81810 0.27240 -0.13200
C 	C 	0.42382 0.81542 0.31060 0.07100
C 	C 	0.41105 0.78155 0.33290 -0.06200
C 	C 	0.09786 0.70810 0.18416 0.34200
C 	C 	0.04902 0.70697 0.18133 -0.14100
C 	C 	0.05022 0.74580 0.22180 0.07500
C 	C 	0.09909 0.79268 0.26879 -0.06800
C 	C 	0.71960 0.05010 0.36630 0.03400
C 	C 	0.67550 0.92730 0.45720 0.40200
C 	C 	0.61590 0.88830 0.43400 -0.12900
C 	C 	0.57618 0.88678 0.39160 0.07300
C 	C 	0.58895 0.92185 0.37050 -0.06000
C 	C 	0.90214 0.08630 0.61024 0.34100
C 	C 	0.95098 0.13231 0.65795 -0.14000
C 	C 	0.94978 0.17158 0.69558 0.06800
C 	C 	0.90091 0.16970 0.69359 -0.06400
C 	C 	0.36630 0.71960 0.05010 0.03200
C 	C 	0.45720 0.67550 0.92730 0.40100
C 	C 	0.43400 0.61590 0.88830 -0.13400
C 	C 	0.39160 0.57618 0.88678 0.07000
C 	C 	0.37050 0.58895 0.92185 -0.06300
C 	C 	0.61024 0.90214 0.08630 0.39400
C 	C 	0.65795 0.95098 0.13231 -0.26600
C 	C 	0.69558 0.94978 0.17158 0.20600
C 	C 	0.69359 0.90091 0.16970 -0.13100
C 	C 	0.33050 0.28040 0.64670 0.03500
C 	C 	0.25180 0.32450 0.78170 0.40200
C 	C 	0.27240 0.38410 0.81810 -0.13400
C 	C 	0.31060 0.42382 0.81542 0.07000
C 	C 	0.33290 0.41105 0.78155 -0.06300
C 	C 	0.18416 0.09786 0.70810 0.33400
C 	C 	0.18133 0.04902 0.70697 -0.12600
C 	C 	0.22180 0.05022 0.74580 0.06900
C 	C 	0.26879 0.09909 0.79268 -0.06900
C 	C 	0.63370 0.68380 0.35330 0.03500
C 	C 	0.54280 0.47010 0.21830 0.40200
C 	C 	0.56600 0.45430 0.18190 -0.13500
C 	C 	0.60840 0.49518 0.18458 0.07000
C 	C 	0.62950 0.55135 0.21845 -0.06300
C 	C 	0.38976 0.47606 0.29190 0.34300
C 	C 	0.34205 0.47436 0.29303 -0.14400
C 	C 	0.30442 0.47600 0.25420 0.07300
C 	C 	0.30641 0.47611 0.20732 -0.06900
C 	C 	0.66950 0.31620 0.94990 0.03700
C 	C 	0.74820 0.52990 0.07270 0.40100
C 	C 	0.72760 0.54570 0.11170 -0.13400
C 	C 	0.68940 0.50482 0.11322 0.07000
C 	C 	0.66710 0.44865 0.07815 -0.06300
C 	C 	0.81584 0.52394 0.91370 0.34200
C 	C 	0.81867 0.52564 0.86769 -0.14200
C 	C 	0.77820 0.52400 0.82842 0.07400
C 	C 	0.73121 0.52389 0.83030 -0.06700
C 	C 	0.66950 0.35330 0.71960 0.03500
C 	C 	0.74820 0.21830 0.67550 0.40200
C 	C 	0.72760 0.18190 0.61590 -0.13700
C 	C 	0.68940 0.18458 0.57618 0.06900
C 	C 	0.66710 0.21845 0.58895 -0.06400
C 	C 	0.81584 0.29190 0.90214 0.34200
C 	C 	0.81867 0.29303 0.95098 -0.13800
C 	C 	0.77820 0.25420 0.94978 0.07400
C 	C 	0.73121 0.20732 0.90091 -0.06600
C 	C 	0.63370 0.94990 0.28040 0.07600
C 	C 	0.54280 0.07270 0.32450 0.39900
C 	C 	0.56600 0.11170 0.38410 -0.13800
C 	C 	0.60840 0.11322 0.42382 0.06700
C 	C 	0.62950 0.07815 0.41105 -0.06700
C 	C 	0.38976 0.91370 0.09786 0.33800
C 	C 	0.34205 0.86769 0.04902 -0.13100
C 	C 	0.30442 0.82842 0.05022 0.07000
C 	C 	0.30641 0.83030 0.09909 -0.06400
C 	C 	0.33050 0.05010 0.68380 0.03600
C 	C 	0.25180 0.92730 0.47010 0.40200
C 	C 	0.27240 0.88830 0.45430 -0.12900
C 	C 	0.31060 0.88678 0.49518 0.07300
C 	C 	0.33290 0.92185 0.55135 -0.06000
C 	C 	0.18416 0.08630 0.47606 0.34400
C 	C 	0.18133 0.13231 0.47436 -0.15000
C 	C 	0.22180 0.17158 0.47600 0.07500
C 	C 	0.26879 0.16970 0.47611 -0.07100
C 	C 	0.36630 0.64670 0.31620 0.03500
C 	C 	0.45720 0.78170 0.52990 0.40100
C 	C 	0.43400 0.81810 0.54570 -0.13200
C 	C 	0.39160 0.81542 0.50482 0.07100
C 	C 	0.37050 0.78155 0.44865 -0.06200
C 	C 	0.61024 0.70810 0.52394 0.34200
C 	C 	0.65795 0.70697 0.52564 -0.14200
C 	C 	0.69558 0.74580 0.52400 0.07500
C 	C 	0.69359 0.79268 0.52389 -0.06800
C 	C 	0.05010 0.68380 0.33050 0.04600
C 	C 	0.92730 0.47010 0.25180 0.40200
C 	C 	0.88830 0.45430 0.27240 -0.13400
C 	C 	0.88678 0.49518 0.31060 0.07000
C 	C 	0.92185 0.55135 0.33290 -0.06300
C 	C 	0.08630 0.47606 0.18416 0.34300
C 	C 	0.13231 0.47436 0.18133 -0.14500
C 	C 	0.17158 0.47600 0.22180 0.07400
C 	C 	0.16970 0.47611 0.26879 -0.06900
C 	C 	0.64670 0.31620 0.36630 0.03500
C 	C 	0.78170 0.52990 0.45720 0.40100
C 	C 	0.81810 0.54570 0.43400 -0.13400
C 	C 	0.81542 0.50482 0.39160 0.07000
C 	C 	0.78155 0.44865 0.37050 -0.06300
C 	C 	0.70810 0.52394 0.61024 0.34200
C 	C 	0.70697 0.52564 0.65795 -0.14200
C 	C 	0.74580 0.52400 0.69558 0.07400
C 	C 	0.79268 0.52389 0.69359 -0.06800
C 	C 	0.35330 0.71960 0.66950 0.03400
C 	C 	0.21830 0.67550 0.74820 0.40100
C 	C 	0.18190 0.61590 0.72760 -0.13400
C 	C 	0.18458 0.57618 0.68940 0.07000
C 	C 	0.21845 0.58895 0.66710 -0.06300
C 	C 	0.29190 0.90214 0.81584 0.32800
C 	C 	0.29303 0.95098 0.81867 -0.08000
C 	C 	0.25420 0.94978 0.77820 0.10600
C 	C 	0.20732 0.90091 0.73121 -0.06600
C 	C 	0.94990 0.28040 0.63370 0.02600
C 	C 	0.07270 0.32450 0.54280 0.40200
C 	C 	0.11170 0.38410 0.56600 -0.13500
C 	C 	0.11322 0.42382 0.60840 0.07000
C 	C 	0.07815 0.41105 0.62950 -0.06300
C 	C 	0.91370 0.09786 0.38976 0.32700
C 	C 	0.86769 0.04902 0.34205 -0.10800
C 	C 	0.82842 0.05022 0.30442 0.03700
C 	C 	0.83030 0.09909 0.30641 -0.02300
C 	C 	0.28040 0.63370 0.94990 0.03500
C 	C 	0.32450 0.54280 0.07270 0.40200
C 	C 	0.38410 0.56600 0.11170 -0.13500
C 	C 	0.42382 0.60840 0.11322 0.07000
C 	C 	0.41105 0.62950 0.07815 -0.06400
C 	C 	0.09786 0.38976 0.91370 0.34500
C 	C 	0.04902 0.34205 0.86769 -0.15200
C 	C 	0.05022 0.30442 0.82842 0.08000
C 	C 	0.09909 0.30641 0.83030 -0.07500
C 	C 	0.71960 0.66950 0.35330 0.03400
C 	C 	0.67550 0.74820 0.21830 0.40100
C 	C 	0.61590 0.72760 0.18190 -0.13400
C 	C 	0.57618 0.68940 0.18458 0.07000
C 	C 	0.58895 0.66710 0.21845 -0.06300
C 	C 	0.90214 0.81584 0.29190 0.34200
C 	C 	0.95098 0.81867 0.29303 -0.13400
C 	C 	0.94978 0.77820 0.25420 0.07400
C 	C 	0.90091 0.73121 0.20732 -0.06600
C 	C 	0.31620 0.36630 0.64670 0.03500
C 	C 	0.52990 0.45720 0.78170 0.40100
C 	C 	0.54570 0.43400 0.81810 -0.13400
C 	C 	0.50482 0.39160 0.81542 0.07000
C 	C 	0.44865 0.37050 0.78155 -0.06300
C 	C 	0.52394 0.61024 0.70810 0.34200
C 	C 	0.52564 0.65795 0.70697 -0.14200
C 	C 	0.52400 0.69558 0.74580 0.07500
C 	C 	0.52389 0.69359 0.79268 -0.06800
C 	C 	0.68380 0.33050 0.05010 0.03500
C 	C 	0.47010 0.25180 0.92730 0.40200
C 	C 	0.45430 0.27240 0.88830 -0.13400
C 	C 	0.49518 0.31060 0.88678 0.07000
C 	C 	0.55135 0.33290 0.92185 -0.06300
C 	C 	0.47606 0.18416 0.08630 0.34300
C 	C 	0.47436 0.18133 0.13231 -0.14800
C 	C 	0.47600 0.22180 0.17158 0.07500
C 	C 	0.47611 0.26879 0.16970 -0.07000
C 	C 	0.35330 0.66950 0.71960 0.03400
C 	C 	0.21830 0.74820 0.67550 0.40100
C 	C 	0.18190 0.72760 0.61590 -0.13400
C 	C 	0.18458 0.68940 0.57618 0.07000
C 	C 	0.21845 0.66710 0.58895 -0.06300
C 	C 	0.29190 0.81584 0.90214 0.34000
C 	C 	0.29303 0.81867 0.95098 -0.13100
C 	C 	0.25420 0.77820 0.94978 0.07300
C 	C 	0.20732 0.73121 0.90091 -0.06500
C 	C 	0.94990 0.63370 0.28040 0.04800
C 	C 	0.07270 0.54280 0.32450 0.40100
C 	C 	0.11170 0.56600 0.38410 -0.13500
C 	C 	0.11322 0.60840 0.42382 0.07000
C 	C 	0.07815 0.62950 0.41105 -0.06400
C 	C 	0.91370 0.38976 0.09786 0.34100
C 	C 	0.86769 0.34205 0.04902 -0.14100
C 	C 	0.82842 0.30442 0.05022 0.07100
C 	C 	0.83030 0.30641 0.09909 -0.06600
C 	C 	0.05010 0.33050 0.68380 0.02400
C 	C 	0.92730 0.25180 0.47010 0.40200
C 	C 	0.88830 0.27240 0.45430 -0.13400
C 	C 	0.88678 0.31060 0.49518 0.07000
C 	C 	0.92185 0.33290 0.55135 -0.06300
C 	C 	0.08630 0.18416 0.47606 0.34300
C 	C 	0.13231 0.18133 0.47436 -0.14800
C 	C 	0.17158 0.22180 0.47600 0.07500
C 	C 	0.16970 0.26879 0.47611 -0.07000
C 	C 	0.64670 0.36630 0.31620 0.03500
C 	C 	0.78170 0.45720 0.52990 0.40100
C 	C 	0.81810 0.43400 0.54570 -0.13400
C 	C 	0.81542 0.39160 0.50482 0.07000
C 	C 	0.78155 0.37050 0.44865 -0.06300
C 	C 	0.70810 0.61024 0.52394 0.34200
C 	C 	0.70697 0.65795 0.52564 -0.14200
C 	C 	0.74580 0.69558 0.52400 0.07500
C 	C 	0.79268 0.69359 0.52389 -0.06800
C 	C 	0.68380 0.05010 0.33050 0.03700
C 	C 	0.47010 0.92730 0.25180 0.40200
C 	C 	0.45430 0.88830 0.27240 -0.12900
C 	C 	0.49518 0.88678 0.31060 0.07300
C 	C 	0.55135 0.92185 0.33290 -0.06000
C 	C 	0.47606 0.08630 0.18416 0.34400
C 	C 	0.47436 0.13231 0.18133 -0.15000
C 	C 	0.47600 0.17158 0.22180 0.07500
C 	C 	0.47611 0.16970 0.26879 -0.07100
C 	C 	0.31620 0.64670 0.36630 0.03500
C 	C 	0.52990 0.78170 0.45720 0.40100
C 	C 	0.54570 0.81810 0.43400 -0.13200
C 	C 	0.50482 0.81542 0.39160 0.07100
C 	C 	0.44865 0.78155 0.37050 -0.06200
C 	C 	0.52394 0.70810 0.61024 0.34200
C 	C 	0.52564 0.70697 0.65795 -0.14200
C 	C 	0.52400 0.74580 0.69558 0.07500
C 	C 	0.52389 0.79268 0.69359 -0.06800
C 	C 	0.71960 0.35330 0.66950 0.03500
C 	C 	0.67550 0.21830 0.74820 0.40200
C 	C 	0.61590 0.18190 0.72760 -0.13700
C 	C 	0.57618 0.18458 0.68940 0.06900
C 	C 	0.58895 0.21845 0.66710 -0.06400
C 	C 	0.90214 0.29190 0.81584 0.34600
C 	C 	0.95098 0.29303 0.81867 -0.15100
C 	C 	0.94978 0.25420 0.77820 0.08200
C 	C 	0.90091 0.20732 0.73121 -0.07500
C 	C 	0.28040 0.94990 0.63370 0.07300
C 	C 	0.32450 0.07270 0.54280 0.39900
C 	C 	0.38410 0.11170 0.56600 -0.13800
C 	C 	0.42382 0.11322 0.60840 0.06700
C 	C 	0.41105 0.07815 0.62950 -0.06700
C 	C 	0.09786 0.91370 0.38976 0.33900
C 	C 	0.04902 0.86769 0.34205 -0.13400
C 	C 	0.05022 0.82842 0.30442 0.07200
C 	C 	0.09909 0.83030 0.30641 -0.06500
C 	C 	0.63370 0.28040 0.94990 0.03800
C 	C 	0.54280 0.32450 0.07270 0.40200
C 	C 	0.56600 0.38410 0.11170 -0.13500
C 	C 	0.60840 0.42382 0.11322 0.07000
C 	C 	0.62950 0.41105 0.07815 -0.06400
C 	C 	0.38976 0.09786 0.91370 0.33400
C 	C 	0.34205 0.04902 0.86769 -0.12600
C 	C 	0.30442 0.05022 0.82842 0.06800
C 	C 	0.30641 0.09909 0.83030 -0.06800
C 	C 	0.66950 0.71960 0.35330 0.03400
C 	C 	0.74820 0.67550 0.21830 0.40100
C 	C 	0.72760 0.61590 0.18190 -0.13400
C 	C 	0.68940 0.57618 0.18458 0.07000
C 	C 	0.66710 0.58895 0.21845 -0.06300
C 	C 	0.81584 0.90214 0.29190 0.32200
C 	C 	0.81867 0.95098 0.29303 -0.06100
C 	C 	0.77820 0.94978 0.25420 0.07600
C 	C 	0.73121 0.90091 0.20732 -0.02100
C 	C 	0.36630 0.31620 0.64670 0.03500
C 	C 	0.45720 0.52990 0.78170 0.40100
C 	C 	0.43400 0.54570 0.81810 -0.13400
C 	C 	0.39160 0.50482 0.81542 0.07000
C 	C 	0.37050 0.44865 0.78155 -0.06300
C 	C 	0.61024 0.52394 0.70810 0.34200
C 	C 	0.65795 0.52564 0.70697 -0.14200
C 	C 	0.69558 0.52400 0.74580 0.07400
C 	C 	0.69359 0.52389 0.79268 -0.06800
C 	C 	0.33050 0.68380 0.05010 0.03200
C 	C 	0.25180 0.47010 0.92730 0.40200
C 	C 	0.27240 0.45430 0.88830 -0.13400
C 	C 	0.31060 0.49518 0.88678 0.07000
C 	C 	0.33290 0.55135 0.92185 -0.06300
C 	C 	0.18416 0.47606 0.08630 0.34300
C 	C 	0.18133 0.47436 0.13231 -0.14500
C 	C 	0.22180 0.47600 0.17158 0.07400
C 	C 	0.26879 0.47611 0.16970 -0.06900
C 	C 	0.33050 0.64670 0.28040 0.03500
C 	C 	0.25180 0.78170 0.32450 0.40100
C 	C 	0.27240 0.81810 0.38410 -0.13200
C 	C 	0.31060 0.81542 0.42382 0.07100
C 	C 	0.33290 0.78155 0.41105 -0.06200
C 	C 	0.18416 0.70810 0.09786 0.34200
C 	C 	0.18133 0.70697 0.04902 -0.14100
C 	C 	0.22180 0.74580 0.05022 0.07500
C 	C 	0.26879 0.79268 0.09909 -0.06900
C 	C 	0.36630 0.05010 0.71960 0.03500
C 	C 	0.45720 0.92730 0.67550 0.40200
C 	C 	0.43400 0.88830 0.61590 -0.12900
C 	C 	0.39160 0.88678 0.57618 0.07300
C 	C 	0.37050 0.92185 0.58895 -0.06000
C 	C 	0.61024 0.08630 0.90214 0.34600
C 	C 	0.65795 0.13231 0.95098 -0.15500
C 	C 	0.69558 0.17158 0.94978 0.08300
C 	C 	0.69359 0.16970 0.90091 -0.07500
C 	C 	0.66950 0.94990 0.31620 0.07200
C 	C 	0.74820 0.07270 0.52990 0.39900
C 	C 	0.72760 0.11170 0.54570 -0.13800
C 	C 	0.68940 0.11322 0.50482 0.06700
C 	C 	0.66710 0.07815 0.44865 -0.06700
C 	C 	0.81584 0.91370 0.52394 0.34000
C 	C 	0.81867 0.86769 0.52564 -0.13500
C 	C 	0.77820 0.82842 0.52400 0.07200
C 	C 	0.73121 0.83030 0.52389 -0.06500
C 	C 	0.63370 0.35330 0.68380 0.03500
C 	C 	0.54280 0.21830 0.47010 0.40200
C 	C 	0.56600 0.18190 0.45430 -0.13700
C 	C 	0.60840 0.18458 0.49518 0.06900
C 	C 	0.62950 0.21845 0.55135 -0.06400
C 	C 	0.38976 0.29190 0.47606 0.34300
C 	C 	0.34205 0.29303 0.47436 -0.14400
C 	C 	0.30442 0.25420 0.47600 0.07300
C 	C 	0.30641 0.20732 0.47611 -0.06900
C 	C 	0.94990 0.31620 0.66950 0.04500
C 	C 	0.07270 0.52990 0.74820 0.40100
C 	C 	0.11170 0.54570 0.72760 -0.13400
C 	C 	0.11322 0.50482 0.68940 0.07000
C 	C 	0.07815 0.44865 0.66710 -0.06300
C 	C 	0.91370 0.52394 0.81584 0.34200
C 	C 	0.86769 0.52564 0.81867 -0.14200
C 	C 	0.82842 0.52400 0.77820 0.07400
C 	C 	0.83030 0.52389 0.73121 -0.06700
C 	C 	0.35330 0.68380 0.63370 0.03500
C 	C 	0.21830 0.47010 0.54280 0.40200
C 	C 	0.18190 0.45430 0.56600 -0.13500
C 	C 	0.18458 0.49518 0.60840 0.07000
C 	C 	0.21845 0.55135 0.62950 -0.06300
C 	C 	0.29190 0.47606 0.38976 0.34300
C 	C 	0.29303 0.47436 0.34205 -0.14400
C 	C 	0.25420 0.47600 0.30442 0.07300
C 	C 	0.20732 0.47611 0.30641 -0.06900
C 	C 	0.64670 0.28040 0.33050 0.03500
C 	C 	0.78170 0.32450 0.25180 0.40200
C 	C 	0.81810 0.38410 0.27240 -0.13400
C 	C 	0.81542 0.42382 0.31060 0.07000
C 	C 	0.78155 0.41105 0.33290 -0.06300
C 	C 	0.70810 0.09786 0.18416 0.40000
C 	C 	0.70697 0.04902 0.18133 -0.31400
C 	C 	0.74580 0.05022 0.22180 0.16800
C 	C 	0.79268 0.09909 0.26879 -0.13300
C 	C 	0.05010 0.71960 0.36630 0.02100
C 	C 	0.92730 0.67550 0.45720 0.40100
C 	C 	0.88830 0.61590 0.43400 -0.13400
C 	C 	0.88678 0.57618 0.39160 0.07000
C 	C 	0.92185 0.58895 0.37050 -0.06300
C 	C 	0.08630 0.90214 0.61024 0.32800
C 	C 	0.13231 0.95098 0.65795 -0.08000
C 	C 	0.17158 0.94978 0.69558 0.10600
C 	C 	0.16970 0.90091 0.69359 -0.06600
C 	C 	0.71960 0.36630 0.05010 0.03400
C 	C 	0.67550 0.45720 0.92730 0.40100
C 	C 	0.61590 0.43400 0.88830 -0.13400
C 	C 	0.57618 0.39160 0.88678 0.07000
C 	C 	0.58895 0.37050 0.92185 -0.06300
C 	C 	0.90214 0.61024 0.08630 0.34200
C 	C 	0.95098 0.65795 0.13231 -0.13800
C 	C 	0.94978 0.69558 0.17158 0.07700
C 	C 	0.90091 0.69359 0.16970 -0.06800
C 	C 	0.28040 0.33050 0.64670 0.03500
C 	C 	0.32450 0.25180 0.78170 0.40200
C 	C 	0.38410 0.27240 0.81810 -0.13400
C 	C 	0.42382 0.31060 0.81542 0.07000
C 	C 	0.41105 0.33290 0.78155 -0.06300
C 	C 	0.09786 0.18416 0.70810 0.34000
C 	C 	0.04902 0.18133 0.70697 -0.14000
C 	C 	0.05022 0.22180 0.74580 0.06600
C 	C 	0.09909 0.26879 0.79268 -0.06300
C 	C 	0.68380 0.63370 0.35330 0.03500
C 	C 	0.47010 0.54280 0.21830 0.40200
C 	C 	0.45430 0.56600 0.18190 -0.13500
C 	C 	0.49518 0.60840 0.18458 0.07000
C 	C 	0.55135 0.62950 0.21845 -0.06400
C 	C 	0.47606 0.38976 0.29190 0.34300
C 	C 	0.47436 0.34205 0.29303 -0.14400
C 	C 	0.47600 0.30442 0.25420 0.07300
C 	C 	0.47611 0.30641 0.20732 -0.06800
C 	C 	0.31620 0.66950 0.94990 0.03400
C 	C 	0.52990 0.74820 0.07270 0.40100
C 	C 	0.54570 0.72760 0.11170 -0.13400
C 	C 	0.50482 0.68940 0.11322 0.07000
C 	C 	0.44865 0.66710 0.07815 -0.06300
C 	C 	0.52394 0.81584 0.91370 0.34200
C 	C 	0.52564 0.81867 0.86769 -0.13700
C 	C 	0.52400 0.77820 0.82842 0.07200
C 	C 	0.52389 0.73121 0.83030 -0.06600
C 	C 	0.85440 0.25450 0.40010 0.06900
C 	C 	0.85140 0.33160 0.48020 -0.03000
C 	C 	0.85440 0.45430 0.59990 0.06900
C 	C 	0.85140 0.37120 0.51980 -0.02900
C 	C 	0.14560 0.74550 0.59990 0.06900
C 	C 	0.14860 0.66840 0.51980 -0.02900
C 	C 	0.14560 0.54570 0.40010 0.06900
C 	C 	0.14860 0.62880 0.48020 -0.03000
C 	C 	0.59990 0.14560 0.74550 0.06900
C 	C 	0.51980 0.14860 0.66840 -0.03200
C 	C 	0.40010 0.14560 0.54570 0.06900
C 	C 	0.48020 0.14860 0.62880 -0.03200
C 	C 	0.40010 0.85440 0.25450 0.06900
C 	C 	0.48020 0.85140 0.33160 -0.02800
C 	C 	0.59990 0.85440 0.45430 0.06900
C 	C 	0.51980 0.85140 0.37120 -0.02700
C 	C 	0.45430 0.59990 0.85440 0.06900
C 	C 	0.37120 0.51980 0.85140 -0.02900
C 	C 	0.25450 0.40010 0.85440 0.06900
C 	C 	0.33160 0.48020 0.85140 -0.03000
C 	C 	0.54570 0.40010 0.14560 0.06900
C 	C 	0.62880 0.48020 0.14860 -0.03000
C 	C 	0.74550 0.59990 0.14560 0.06900
C 	C 	0.66840 0.51980 0.14860 -0.03000
C 	C 	0.74550 0.14560 0.59990 0.06900
C 	C 	0.66840 0.14860 0.51980 -0.03200
C 	C 	0.54570 0.14560 0.40010 0.06900
C 	C 	0.62880 0.14860 0.48020 -0.03200
C 	C 	0.25450 0.85440 0.40010 0.06900
C 	C 	0.33160 0.85140 0.48020 -0.02800
C 	C 	0.45430 0.85440 0.59990 0.06900
C 	C 	0.37120 0.85140 0.51980 -0.02700
C 	C 	0.85440 0.40010 0.25450 0.06900
C 	C 	0.85140 0.48020 0.33160 -0.03000
C 	C 	0.85440 0.59990 0.45430 0.06900
C 	C 	0.85140 0.51980 0.37120 -0.02900
C 	C 	0.14560 0.59990 0.74550 0.06900
C 	C 	0.14860 0.51980 0.66840 -0.03000
C 	C 	0.14560 0.40010 0.54570 0.06900
C 	C 	0.14860 0.48020 0.62880 -0.03000
C 	C 	0.40010 0.54570 0.14560 0.06900
C 	C 	0.48020 0.62880 0.14860 -0.03000
C 	C 	0.59990 0.74550 0.14560 0.06900
C 	C 	0.51980 0.66840 0.14860 -0.03000
C 	C 	0.59990 0.45430 0.85440 0.06900
C 	C 	0.51980 0.37120 0.85140 -0.02900
C 	C 	0.40010 0.25450 0.85440 0.06900
C 	C 	0.48020 0.33160 0.85140 -0.03000
C 	C 	0.74256 0.21566 -0.00000 -0.04400
C 	C 	0.66160 0.13900 1.00000 0.07100
C 	C 	0.21566 0.74256 -0.00000 -0.03800
C 	C 	0.13900 0.66160 -0.00000 0.05200
C 	C 	0.78434 0.78434 0.52690 -0.03100
C 	C 	0.86100 0.86100 0.52260 0.05600
C 	C 	0.25744 0.25744 0.47310 -0.03500
C 	C 	0.33840 0.33840 0.47740 0.05800
C 	C 	0.52690 0.78434 0.78434 -0.03100
C 	C 	0.52260 0.86100 0.86100 0.05600
C 	C 	0.47310 0.25744 0.25744 -0.03500
C 	C 	0.47740 0.33840 0.33840 0.05800
C 	C 	-0.00000 0.74256 0.21566 -0.03700
C 	C 	0.00000 0.66160 0.13900 0.05300
C 	C 	1.00000 0.21566 0.74256 -0.02600
C 	C 	-0.00000 0.13900 0.66160 0.04700
C 	C 	0.74256 0.00000 0.21566 -0.15000
C 	C 	0.66160 1.00000 0.13900 0.32800
C 	C 	0.21566 0.00000 0.74256 -0.07300
C 	C 	0.13900 0.00000 0.66160 -0.02300
C 	C 	0.25744 0.47310 0.25744 -0.03500
C 	C 	0.33840 0.47740 0.33840 0.05800
C 	C 	0.78434 0.52690 0.78434 -0.03300
C 	C 	0.86100 0.52260 0.86100 0.05800
C 	C 	0.78434 0.25744 -0.00000 -0.03500
C 	C 	0.86100 0.33840 -0.00000 0.05100
C 	C 	0.25744 0.78434 -0.00000 -0.03300
C 	C 	0.33840 0.86100 -0.00000 0.04400
C 	C 	0.21566 0.21566 0.47310 -0.03700
C 	C 	0.13900 0.13900 0.47740 0.06000
C 	C 	0.74256 0.74256 0.52690 -0.03400
C 	C 	0.66160 0.66160 0.52260 0.05800
C 	C 	0.21566 0.47310 0.21566 -0.03500
C 	C 	0.13900 0.47740 0.13900 0.05800
C 	C 	0.74256 0.52690 0.74256 -0.03400
C 	C 	0.66160 0.52260 0.66160 0.05800
C 	C 	0.25744 0.00000 0.78434 -0.07300
C 	C 	0.33840 0.00000 0.86100 -0.02200
C 	C 	0.78434 0.00000 0.25744 -0.03600
C 	C 	0.86100 0.00000 0.33840 -0.04000
C 	C 	-0.00000 0.25744 0.78434 -0.04500
C 	C 	1.00000 0.33840 0.86100 0.07100
C 	C 	0.00000 0.78434 0.25744 -0.03400
C 	C 	0.00000 0.86100 0.33840 0.05100
C 	C 	0.52690 0.74256 0.74256 -0.03400
C 	C 	0.52260 0.66160 0.66160 0.05800
C 	C 	0.47310 0.21566 0.21566 -0.03700
C 	C 	0.47740 0.13900 0.13900 0.06000
O 	O 	0.80243 0.23851 0.29564 -0.49200
O 	O 	0.73468 0.24302 0.30870 -0.49400
O 	O 	0.74960 0.19631 0.13735 -0.45700
O 	O 	0.66087 0.17204 0.09779 -0.25100
O 	O 	0.94287 0.50679 0.70436 -0.49000
O 	O 	0.93432 0.42598 0.69130 -0.49300
O 	O 	0.05896 0.61225 0.86265 -0.45200
O 	O 	0.07425 0.56308 0.90221 -0.24600
O 	O 	0.05713 0.76149 0.56392 -0.49200
O 	O 	0.06568 0.75698 0.49166 -0.49400
O 	O 	0.94104 0.80369 0.55329 -0.44800
O 	O 	0.92575 0.82796 0.48883 -0.24100
O 	O 	0.19757 0.49321 0.43608 -0.49300
O 	O 	0.26532 0.57402 0.50834 -0.49400
O 	O 	0.25040 0.38775 0.44671 -0.45400
O 	O 	0.33913 0.43692 0.51117 -0.24700
O 	O 	0.56392 0.05713 0.76149 -0.50600
O 	O 	0.49166 0.06568 0.75698 -0.50000
O 	O 	0.55329 0.94104 0.80369 -0.43000
O 	O 	0.48883 0.92575 0.82796 -0.22600
O 	O 	0.43608 0.19757 0.49321 -0.49600
O 	O 	0.50834 0.26532 0.57402 -0.49400
O 	O 	0.44671 0.25040 0.38775 -0.45600
O 	O 	0.51117 0.33913 0.43692 -0.24700
O 	O 	0.29564 0.80243 0.23851 -0.48800
O 	O 	0.30870 0.73468 0.24302 -0.49400
O 	O 	0.13735 0.74960 0.19631 -0.45000
O 	O 	0.09779 0.66087 0.17204 -0.24700
O 	O 	0.70436 0.94287 0.50679 -0.47100
O 	O 	0.69130 0.93432 0.42598 -0.47400
O 	O 	0.86265 0.05896 0.61225 -0.46700
O 	O 	0.90221 0.07425 0.56308 -0.25500
O 	O 	0.50679 0.70436 0.94287 -0.49000
O 	O 	0.42598 0.69130 0.93432 -0.49300
O 	O 	0.61225 0.86265 0.05896 -0.46400
O 	O 	0.56308 0.90221 0.07425 -0.24400
O 	O 	0.23851 0.29564 0.80243 -0.49200
O 	O 	0.24302 0.30870 0.73468 -0.49400
O 	O 	0.19631 0.13735 0.74960 -0.45400
O 	O 	0.17204 0.09779 0.66087 -0.25000
O 	O 	0.49321 0.43608 0.19757 -0.49300
O 	O 	0.57402 0.50834 0.26532 -0.49400
O 	O 	0.38775 0.44671 0.25040 -0.45400
O 	O 	0.43692 0.51117 0.33913 -0.24700
O 	O 	0.76149 0.56392 0.05713 -0.49300
O 	O 	0.75698 0.49166 0.06568 -0.49500
O 	O 	0.80369 0.55329 0.94104 -0.45100
O 	O 	0.82796 0.48883 0.92575 -0.24500
O 	O 	0.76149 0.19757 0.70436 -0.49500
O 	O 	0.75698 0.26532 0.69130 -0.49400
O 	O 	0.80369 0.25040 0.86265 -0.45500
O 	O 	0.82796 0.33913 0.90221 -0.24500
O 	O 	0.49321 0.05713 0.29564 -0.50700
O 	O 	0.57402 0.06568 0.30870 -0.50100
O 	O 	0.38775 0.94104 0.13735 -0.42900
O 	O 	0.43692 0.92575 0.09779 -0.22600
O 	O 	0.23851 0.94287 0.43608 -0.47100
O 	O 	0.24302 0.93432 0.50834 -0.47400
O 	O 	0.19631 0.05896 0.44671 -0.46900
O 	O 	0.17204 0.07425 0.51117 -0.25600
O 	O 	0.50679 0.80243 0.56392 -0.48800
O 	O 	0.42598 0.73468 0.49166 -0.49400
O 	O 	0.61225 0.74960 0.55329 -0.45000
O 	O 	0.56308 0.66087 0.48883 -0.24600
O 	O 	0.94287 0.43608 0.23851 -0.49100
O 	O 	0.93432 0.50834 0.24302 -0.49300
O 	O 	0.05896 0.44671 0.19631 -0.45500
O 	O 	0.07425 0.51117 0.17204 -0.24700
O 	O 	0.80243 0.56392 0.50679 -0.49100
O 	O 	0.73468 0.49166 0.42598 -0.49400
O 	O 	0.74960 0.55329 0.61225 -0.45200
O 	O 	0.66087 0.48883 0.56308 -0.24600
O 	O 	0.19757 0.70436 0.76149 -0.49100
O 	O 	0.26532 0.69130 0.75698 -0.49400
O 	O 	0.25040 0.86265 0.80369 -0.44500
O 	O 	0.33913 0.90221 0.82796 -0.22900
O 	O 	0.05713 0.29564 0.49321 -0.49300
O 	O 	0.06568 0.30870 0.57402 -0.49500
O 	O 	0.94104 0.13735 0.38775 -0.45100
O 	O 	0.92575 0.09779 0.43692 -0.24800
O 	O 	0.29564 0.49321 0.05713 -0.49400
O 	O 	0.30870 0.57402 0.06568 -0.49600
O 	O 	0.13735 0.38775 0.94104 -0.45300
O 	O 	0.09779 0.43692 0.92575 -0.24700
O 	O 	0.70436 0.76149 0.19757 -0.49100
O 	O 	0.69130 0.75698 0.26532 -0.49300
O 	O 	0.86265 0.80369 0.25040 -0.44900
O 	O 	0.90221 0.82796 0.33913 -0.24100
O 	O 	0.56392 0.50679 0.80243 -0.49100
O 	O 	0.49166 0.42598 0.73468 -0.49400
O 	O 	0.55329 0.61225 0.74960 -0.45200
O 	O 	0.48883 0.56308 0.66087 -0.24600
O 	O 	0.43608 0.23851 0.94287 -0.49100
O 	O 	0.50834 0.24302 0.93432 -0.49300
O 	O 	0.44671 0.19631 0.05896 -0.45800
O 	O 	0.51117 0.17204 0.07425 -0.25100
O 	O 	0.19757 0.76149 0.70436 -0.49100
O 	O 	0.26532 0.75698 0.69130 -0.49300
O 	O 	0.25040 0.80369 0.86265 -0.44900
O 	O 	0.33913 0.82796 0.90221 -0.24100
O 	O 	0.05713 0.49321 0.29564 -0.49300
O 	O 	0.06568 0.57402 0.30870 -0.49400
O 	O 	0.94104 0.38775 0.13735 -0.45200
O 	O 	0.92575 0.43692 0.09779 -0.24500
O 	O 	0.94287 0.23851 0.43608 -0.49100
O 	O 	0.93432 0.24302 0.50834 -0.49300
O 	O 	0.05896 0.19631 0.44671 -0.45700
O 	O 	0.07425 0.17204 0.51117 -0.25000
O 	O 	0.80243 0.50679 0.56392 -0.49100
O 	O 	0.73468 0.42598 0.49166 -0.49400
O 	O 	0.74960 0.61225 0.55329 -0.45200
O 	O 	0.66087 0.56308 0.48883 -0.24600
O 	O 	0.43608 0.94287 0.23851 -0.47100
O 	O 	0.50834 0.93432 0.24302 -0.47400
O 	O 	0.44671 0.05896 0.19631 -0.46900
O 	O 	0.51117 0.07425 0.17204 -0.25600
O 	O 	0.56392 0.80243 0.50679 -0.48800
O 	O 	0.49166 0.73468 0.42598 -0.49400
O 	O 	0.55329 0.74960 0.61225 -0.45000
O 	O 	0.48883 0.66087 0.56308 -0.24600
O 	O 	0.70436 0.19757 0.76149 -0.49500
O 	O 	0.69130 0.26532 0.75698 -0.49400
O 	O 	0.86265 0.25040 0.80369 -0.45600
O 	O 	0.90221 0.33913 0.82796 -0.24600
O 	O 	0.29564 0.05713 0.49321 -0.50700
O 	O 	0.30870 0.06568 0.57402 -0.50100
O 	O 	0.13735 0.94104 0.38775 -0.43000
O 	O 	0.09779 0.92575 0.43692 -0.22600
O 	O 	0.49321 0.29564 0.05713 -0.49400
O 	O 	0.57402 0.30870 0.06568 -0.49500
O 	O 	0.38775 0.13735 0.94104 -0.45200
O 	O 	0.43692 0.09779 0.92575 -0.24900
O 	O 	0.76149 0.70436 0.19757 -0.49100
O 	O 	0.75698 0.69130 0.26532 -0.49400
O 	O 	0.80369 0.86265 0.25040 -0.44200
O 	O 	0.82796 0.90221 0.33913 -0.22700
O 	O 	0.50679 0.56392 0.80243 -0.49100
O 	O 	0.42598 0.49166 0.73468 -0.49400
O 	O 	0.61225 0.55329 0.74960 -0.45200
O 	O 	0.56308 0.48883 0.66087 -0.24600
O 	O 	0.23851 0.43608 0.94287 -0.49100
O 	O 	0.24302 0.50834 0.93432 -0.49300
O 	O 	0.19631 0.44671 0.05896 -0.45600
O 	O 	0.17204 0.51117 0.07425 -0.24800
O 	O 	0.23851 0.80243 0.29564 -0.48800
O 	O 	0.24302 0.73468 0.30870 -0.49400
O 	O 	0.19631 0.74960 0.13735 -0.45000
O 	O 	0.17204 0.66087 0.09779 -0.24700
O 	O 	0.50679 0.94287 0.70436 -0.47100
O 	O 	0.42598 0.93432 0.69130 -0.47400
O 	O 	0.61225 0.05896 0.86265 -0.46900
O 	O 	0.56308 0.07425 0.90221 -0.25500
O 	O 	0.76149 0.05713 0.56392 -0.50700
O 	O 	0.75698 0.06568 0.49166 -0.50100
O 	O 	0.80369 0.94104 0.55329 -0.43000
O 	O 	0.82796 0.92575 0.48883 -0.22600
O 	O 	0.49321 0.19757 0.43608 -0.49600
O 	O 	0.57402 0.26532 0.50834 -0.49400
O 	O 	0.38775 0.25040 0.44671 -0.45600
O 	O 	0.43692 0.33913 0.51117 -0.24700
O 	O 	0.05713 0.56392 0.76149 -0.49200
O 	O 	0.06568 0.49166 0.75698 -0.49400
O 	O 	0.94104 0.55329 0.80369 -0.45100
O 	O 	0.92575 0.48883 0.82796 -0.24500
O 	O 	0.19757 0.43608 0.49321 -0.49300
O 	O 	0.26532 0.50834 0.57402 -0.49400
O 	O 	0.25040 0.44671 0.38775 -0.45400
O 	O 	0.33913 0.51117 0.43692 -0.24700
O 	O 	0.80243 0.29564 0.23851 -0.49200
O 	O 	0.73468 0.30870 0.24302 -0.49400
O 	O 	0.74960 0.13735 0.19631 -0.47300
O 	O 	0.66087 0.09779 0.17204 -0.26600
O 	O 	0.94287 0.70436 0.50679 -0.49000
O 	O 	0.93432 0.69130 0.42598 -0.49300
O 	O 	0.05896 0.86265 0.61225 -0.44600
O 	O 	0.07425 0.90221 0.56308 -0.22900
O 	O 	0.70436 0.50679 0.94287 -0.49000
O 	O 	0.69130 0.42598 0.93432 -0.49300
O 	O 	0.86265 0.61225 0.05896 -0.45300
O 	O 	0.90221 0.56308 0.07425 -0.24600
O 	O 	0.29564 0.23851 0.80243 -0.49200
O 	O 	0.30870 0.24302 0.73468 -0.49400
O 	O 	0.13735 0.19631 0.74960 -0.45500
O 	O 	0.09779 0.17204 0.66087 -0.24900
O 	O 	0.43608 0.49321 0.19757 -0.49300
O 	O 	0.50834 0.57402 0.26532 -0.49400
O 	O 	0.44671 0.38775 0.25040 -0.45400
O 	O 	0.51117 0.43692 0.33913 -0.24700
O 	O 	0.56392 0.76149 0.05713 -0.49200
O 	O 	0.49166 0.75698 0.06568 -0.49400
O 	O 	0.55329 0.80369 0.94104 -0.44800
O 	O 	0.48883 0.82796 0.92575 -0.24100
O 	O 	0.68900 0.19280 0.19280 -0.53100
O 	O 	0.65702 0.28931 0.28931 -0.44700
O 	O 	-0.00000 0.49620 0.80720 -0.53100
O 	O 	-0.00000 0.36771 0.71069 -0.45200
O 	O 	0.00000 0.80720 0.49620 -0.53000
O 	O 	1.00000 0.71069 0.36771 -0.44000
O 	O 	0.31100 0.50380 0.50380 -0.53000
O 	O 	0.34298 0.63229 0.63229 -0.44800
O 	O 	0.49620 0.00000 0.80720 -0.55900
O 	O 	0.36771 0.00000 0.71069 -0.48700
O 	O 	0.50380 0.31100 0.50380 -0.53000
O 	O 	0.63229 0.34298 0.63229 -0.44700
O 	O 	0.19280 0.68900 0.19280 -0.53000
O 	O 	0.28931 0.65702 0.28931 -0.44700
O 	O 	0.80720 0.00000 0.49620 -0.56000
O 	O 	0.71069 0.00000 0.36771 -0.48800
O 	O 	0.49620 0.80720 -0.00000 -0.53000
O 	O 	0.36771 0.71069 1.00000 -0.44400
O 	O 	0.19280 0.19280 0.68900 -0.53100
O 	O 	0.28931 0.28931 0.65702 -0.44700
O 	O 	0.50380 0.50380 0.31100 -0.53000
O 	O 	0.63229 0.63229 0.34298 -0.44800
O 	O 	0.80720 0.49620 1.00000 -0.52700
O 	O 	0.71069 0.36771 -0.00000 -0.45000
O 	O 	0.80720 0.31100 0.80720 -0.52900
O 	O 	0.71069 0.34298 0.71069 -0.44700
O 	O 	0.50380 0.00000 0.19280 -0.56000
O 	O 	0.63229 0.00000 0.28931 -0.49000
O 	O 	0.19280 0.00000 0.50380 -0.55900
O 	O 	0.28931 -0.00000 0.63229 -0.48800
O 	O 	0.49620 0.68900 0.49620 -0.52900
O 	O 	0.36771 0.65702 0.36771 -0.44700
O 	O 	0.00000 0.50380 0.19280 -0.53100
O 	O 	-0.00000 0.63229 0.28931 -0.45400
O 	O 	0.68900 0.49620 0.49620 -0.52900
O 	O 	0.65702 0.36771 0.36771 -0.44700
O 	O 	0.31100 0.80720 0.80720 -0.52800
O 	O 	0.34298 0.71069 0.71069 -0.44700
O 	O 	0.00000 0.19280 0.50380 -0.53200
O 	O 	1.00000 0.28931 0.63229 -0.44200
O 	O 	0.19280 0.50380 1.00000 -0.52700
O 	O 	0.28931 0.63229 1.00000 -0.44400
O 	O 	0.80720 0.80720 0.31100 -0.52800
O 	O 	0.71069 0.71069 0.34298 -0.44700
O 	O 	0.49620 0.49620 0.68900 -0.52900
O 	O 	0.36771 0.36771 0.65702 -0.44700
O 	O 	0.50380 0.19280 1.00000 -0.52700
O 	O 	0.63229 0.28931 -0.00000 -0.45100
