data_crystal

_cell_length_a 8.01730
_cell_length_b 15.50520
_cell_length_c 18.32320
_cell_angle_alpha 74.63110
_cell_angle_beta  77.36290
_cell_angle_gamma 75.01680

_symmetry_space_group_name_	'P 1'
_symmetry_space_group_name_H-M	'P 1'

loop_
_symmetry_equiv_pos_as_xyz
  x,y,z

loop_
_atom_site_label
_atom_site_type_symbol
_atom_site_fract_x
_atom_site_fract_y
_atom_site_fract_z
_atom_site_charge
Co	Co	0.14522 0.87324 0.89760 1.12200
Co	Co	0.82203 0.97806 0.99354 1.12300
Co	Co	0.88274 0.74885 0.98683 1.15200
Co	Co	0.91606 0.62676 0.60240 1.12300
Co	Co	0.79363 0.52194 0.50646 1.13100
Co	Co	0.61842 0.75115 0.51317 1.15800
Co	Co	0.85478 0.12676 0.10240 1.12100
Co	Co	0.17797 0.02194 0.00646 1.12200
Co	Co	0.11726 0.25115 0.01317 1.15200
Co	Co	0.08394 0.37324 0.39760 1.12300
Co	Co	0.20637 0.47806 0.49354 1.13100
Co	Co	0.38158 0.24885 0.48683 1.15800
H 	H 	0.04240 0.82180 0.04760 0.16000
H 	H 	0.04520 0.05500 0.87860 0.17600
H 	H 	0.50190 0.72500 0.86580 0.16500
H 	H 	0.67190 0.69160 0.89500 0.14500
H 	H 	0.51470 0.94400 0.08520 0.14100
H 	H 	0.64260 0.85840 0.10020 0.13300
H 	H 	0.59590 0.32510 0.24930 0.01500
H 	H 	0.88880 0.48940 0.09940 0.02800
H 	H 	0.56510 0.57630 0.27890 0.01900
H 	H 	0.91180 0.67820 0.45240 0.16900
H 	H 	0.97880 0.44500 0.62140 0.17400
H 	H 	0.09270 0.77500 0.63420 0.16600
H 	H 	0.25850 0.80840 0.60500 0.14600
H 	H 	0.54390 0.55600 0.41480 0.13700
H 	H 	0.60120 0.64160 0.39980 0.13100
H 	H 	0.17030 0.17490 0.25070 0.01200
H 	H 	0.47760 0.01060 0.40060 0.02700
H 	H 	0.42030 0.92370 0.22110 0.01700
H 	H 	0.95760 0.17820 0.95240 0.16000
H 	H 	0.95480 0.94500 0.12140 0.17600
H 	H 	0.49810 0.27500 0.13420 0.16500
H 	H 	0.32810 0.30840 0.10500 0.14500
H 	H 	0.48530 0.05600 0.91480 0.14100
H 	H 	0.35740 0.14160 0.89980 0.13300
H 	H 	0.40410 0.67490 0.75070 0.01500
H 	H 	0.11120 0.51060 0.90060 0.02800
H 	H 	0.43490 0.42370 0.72110 0.01900
H 	H 	0.08820 0.32180 0.54760 0.16900
H 	H 	0.02120 0.55500 0.37860 0.17400
H 	H 	0.90730 0.22500 0.36580 0.16600
H 	H 	0.74150 0.19160 0.39500 0.14600
H 	H 	0.45610 0.44400 0.58520 0.13700
H 	H 	0.39880 0.35840 0.60020 0.13100
H 	H 	0.82970 0.82510 0.74930 0.01200
H 	H 	0.52240 0.98940 0.59940 0.02700
H 	H 	0.57970 0.07630 0.77890 0.01700
C 	C 	0.51948 0.79054 0.93970 0.20100
C 	C 	0.52887 0.86856 0.01710 0.18200
C 	C 	0.56048 0.44824 0.27560 -0.16200
C 	C 	0.63136 0.38058 0.23350 0.07900
C 	C 	0.75529 0.39622 0.16780 -0.15600
C 	C 	0.80667 0.47886 0.14340 0.07600
C 	C 	0.73460 0.54620 0.18520 -0.14600
C 	C 	0.61216 0.53088 0.25120 0.07600
C 	C 	0.42881 0.43118 0.34700 0.37700
C 	C 	0.84076 0.32228 0.12420 0.39500
C 	C 	0.24972 0.70946 0.56030 0.20200
C 	C 	0.41453 0.63144 0.48290 0.16500
C 	C 	0.28432 0.05176 0.22440 -0.17300
C 	C 	0.24544 0.11942 0.26650 0.08300
C 	C 	0.31931 0.10378 0.33220 -0.15900
C 	C 	0.42893 0.02114 0.35660 0.07300
C 	C 	0.46600 0.95380 0.31480 -0.14700
C 	C 	0.39424 0.96912 0.24880 0.08600
C 	C 	0.20699 0.06882 0.15300 0.38100
C 	C 	0.28724 0.17772 0.37580 0.39600
C 	C 	0.48052 0.20946 0.06030 0.20100
C 	C 	0.47113 0.13144 0.98290 0.18200
C 	C 	0.43952 0.55176 0.72440 -0.16200
C 	C 	0.36864 0.61942 0.76650 0.07900
C 	C 	0.24471 0.60378 0.83220 -0.15600
C 	C 	0.19333 0.52114 0.85660 0.07600
C 	C 	0.26540 0.45380 0.81480 -0.14600
C 	C 	0.38784 0.46912 0.74880 0.07600
C 	C 	0.57119 0.56882 0.65300 0.37700
C 	C 	0.15924 0.67772 0.87580 0.39500
C 	C 	0.75028 0.29054 0.43970 0.20200
C 	C 	0.58547 0.36856 0.51710 0.16500
C 	C 	0.71568 0.94824 0.77560 -0.17300
C 	C 	0.75456 0.88058 0.73350 0.08300
C 	C 	0.68069 0.89622 0.66780 -0.15900
C 	C 	0.57107 0.97886 0.64340 0.07300
C 	C 	0.53400 0.04620 0.68520 -0.14700
C 	C 	0.60576 0.03088 0.75120 0.08600
C 	C 	0.79301 0.93118 0.84700 0.38100
C 	C 	0.71276 0.82228 0.62420 0.39600
S 	S 	0.81960 0.64570 0.16254 0.53400
S 	S 	0.62784 0.85430 0.33746 0.53500
S 	S 	0.18040 0.35430 0.83746 0.53400
S 	S 	0.37216 0.14570 0.66254 0.53500
N 	N 	0.37355 0.90085 0.99605 -0.24200
N 	N 	0.36745 0.84976 0.94374 -0.25600
N 	N 	0.62635 0.79885 0.98445 -0.30400
N 	N 	0.57067 0.72806 0.89460 -0.34200
N 	N 	0.60000 0.90421 0.06279 -0.37500
N 	N 	0.27045 0.59915 0.50395 -0.23500
N 	N 	0.16095 0.65024 0.55626 -0.25500
N 	N 	0.40965 0.70115 0.51555 -0.29700
N 	N 	0.19333 0.77194 0.60540 -0.34300
N 	N 	0.56700 0.59579 0.43721 -0.37400
N 	N 	0.62645 0.09915 0.00395 -0.24200
N 	N 	0.63255 0.15024 0.05626 -0.25600
N 	N 	0.37365 0.20115 0.01555 -0.30400
N 	N 	0.42933 0.27194 0.10540 -0.34200
N 	N 	0.40000 0.09579 0.93721 -0.37500
N 	N 	0.72955 0.40085 0.49605 -0.23500
N 	N 	0.83905 0.34976 0.44374 -0.25500
N 	N 	0.59035 0.29885 0.48445 -0.29700
N 	N 	0.80667 0.22806 0.39460 -0.34300
N 	N 	0.43300 0.40421 0.56279 -0.37400
O 	O 	0.39690 0.48378 0.39222 -0.46400
O 	O 	0.36092 0.36325 0.35811 -0.49700
O 	O 	0.76798 0.25679 0.13385 -0.45900
O 	O 	0.98417 0.33231 0.08055 -0.46300
O 	O 	0.93496 0.62793 0.21755 -0.28500
O 	O 	0.91695 0.64960 0.08410 -0.42600
O 	O 	0.67719 0.72254 0.16768 -0.30100
O 	O 	0.98079 0.84203 0.00339 -0.70800
O 	O 	0.05814 0.00365 0.92307 -0.69300
O 	O 	0.27290 0.01622 0.10778 -0.47200
O 	O 	0.08228 0.13675 0.14189 -0.50300
O 	O 	0.15862 0.24321 0.36615 -0.46000
O 	O 	0.39703 0.16769 0.41945 -0.46600
O 	O 	0.78044 0.87207 0.28245 -0.28400
O 	O 	0.65065 0.85040 0.41590 -0.43000
O 	O 	0.56741 0.77746 0.33232 -0.30300
O 	O 	0.82621 0.65797 0.49661 -0.72600
O 	O 	0.98486 0.49635 0.57693 -0.70400
O 	O 	0.60310 0.51622 0.60778 -0.46400
O 	O 	0.63908 0.63675 0.64189 -0.49700
O 	O 	0.23202 0.74321 0.86615 -0.45900
O 	O 	0.01583 0.66769 0.91945 -0.46300
O 	O 	0.06504 0.37207 0.78245 -0.28500
O 	O 	0.08305 0.35040 0.91590 -0.42600
O 	O 	0.32281 0.27746 0.83232 -0.30100
O 	O 	0.01921 0.15797 0.99661 -0.70800
O 	O 	0.94186 0.99635 0.07693 -0.69300
O 	O 	0.72710 0.98378 0.89222 -0.47200
O 	O 	0.91772 0.86325 0.85811 -0.50300
O 	O 	0.84138 0.75679 0.63385 -0.46000
O 	O 	0.60297 0.83231 0.58055 -0.46600
O 	O 	0.21956 0.12793 0.71755 -0.28400
O 	O 	0.34935 0.14960 0.58410 -0.43000
O 	O 	0.43259 0.22254 0.66768 -0.30300
O 	O 	0.17379 0.34203 0.50339 -0.72600
O 	O 	0.01514 0.50365 0.42307 -0.70400
