data_crystal

_cell_length_a 12.98790
_cell_length_b 12.98790
_cell_length_c 25.02500
_cell_angle_alpha 90.00000
_cell_angle_beta  90.00000
_cell_angle_gamma 90.00000

_symmetry_space_group_name_	'P 1'
_symmetry_space_group_name_H-M	'P 1'

loop_
_symmetry_equiv_pos_as_xyz
  x,y,z

loop_
_atom_site_label
_atom_site_type_symbol
_atom_site_fract_x
_atom_site_fract_y
_atom_site_fract_z
_atom_site_charge
C 	C 	0.40620 0.06910 0.70602 -0.28600
C 	C 	0.37580 0.17020 0.71540 0.12200
H 	H 	0.40580 0.20670 0.74340 -0.02300
C 	C 	0.30110 0.21790 0.68380 -0.17400
H 	H 	0.27960 0.28450 0.69160 0.08800
C 	C 	0.25930 0.16580 0.64080 0.07500
H 	H 	0.21000 0.19790 0.61960 -0.00300
C 	C 	0.29000 0.06710 0.62920 -0.14900
C 	C 	0.36360 0.01980 0.66105 0.05900
H 	H 	0.38540 0.95360 0.65250 0.03100
C 	C 	0.24510 0.01020 0.58165 0.31600
O 	O 	0.28480 0.92550 0.56846 -0.38500
O 	O 	0.16720 0.04610 0.55801 -0.50400
C 	C 	0.90620 0.56910 0.20602 -0.29000
C 	C 	0.87580 0.67020 0.21540 0.14100
H 	H 	0.90580 0.70670 0.24340 -0.01800
C 	C 	0.80110 0.71790 0.18380 -0.19800
H 	H 	0.77960 0.78450 0.19160 0.10000
C 	C 	0.75930 0.66580 0.14080 0.11100
H 	H 	0.71000 0.69790 0.11960 -0.01600
C 	C 	0.79000 0.56710 0.12920 -0.19700
C 	C 	0.86360 0.51980 0.16105 0.14900
H 	H 	0.88540 0.45360 0.15250 -0.01800
C 	C 	0.74510 0.51020 0.08165 0.37500
O 	O 	0.78480 0.42550 0.06846 -0.44500
O 	O 	0.66720 0.54610 0.05801 -0.52700
C 	C 	0.59380 0.93090 0.70602 -0.32300
C 	C 	0.62420 0.82980 0.71540 0.17300
H 	H 	0.59420 0.79330 0.74340 -0.03700
C 	C 	0.69890 0.78210 0.68380 -0.22800
H 	H 	0.72040 0.71550 0.69160 0.10900
C 	C 	0.74070 0.83420 0.64080 0.15200
H 	H 	0.79000 0.80210 0.61960 -0.02300
C 	C 	0.71000 0.93290 0.62920 -0.23600
C 	C 	0.63640 0.98020 0.66105 0.24300
H 	H 	0.61460 0.04640 0.65250 -0.07100
C 	C 	0.75490 0.98980 0.58165 0.43000
O 	O 	0.71520 0.07450 0.56846 -0.45400
O 	O 	0.83280 0.95390 0.55801 -0.49600
C 	C 	0.09380 0.43090 0.20602 -0.33200
C 	C 	0.12420 0.32980 0.21540 0.16000
H 	H 	0.09420 0.29330 0.24340 -0.04600
C 	C 	0.19890 0.28210 0.18380 -0.22200
H 	H 	0.22040 0.21550 0.19160 0.09500
C 	C 	0.24070 0.33420 0.14080 0.12100
H 	H 	0.29000 0.30210 0.11960 -0.02500
C 	C 	0.21000 0.43290 0.12920 -0.21500
C 	C 	0.13640 0.48020 0.16105 0.16300
H 	H 	0.11460 0.54640 0.15250 -0.03600
C 	C 	0.25490 0.48980 0.08165 0.37700
O 	O 	0.21520 0.57450 0.06846 -0.45400
O 	O 	0.33280 0.45390 0.05801 -0.53100
C 	C 	0.93090 0.40620 0.70602 -0.32500
C 	C 	0.82980 0.37580 0.71540 0.17400
H 	H 	0.79330 0.40580 0.74340 -0.03700
C 	C 	0.78210 0.30110 0.68380 -0.23300
H 	H 	0.71550 0.27960 0.69160 0.10900
C 	C 	0.83420 0.25930 0.64080 0.15200
H 	H 	0.80210 0.21000 0.61960 -0.02800
C 	C 	0.93290 0.29000 0.62920 -0.24200
C 	C 	0.98020 0.36360 0.66105 0.24500
H 	H 	0.04640 0.38540 0.65250 -0.07200
C 	C 	0.98980 0.24510 0.58165 0.43200
O 	O 	0.07450 0.28480 0.56846 -0.45700
O 	O 	0.95390 0.16720 0.55801 -0.51000
C 	C 	0.43090 0.90620 0.20602 -0.28900
C 	C 	0.32980 0.87580 0.21540 0.13800
H 	H 	0.29330 0.90580 0.24340 -0.02100
C 	C 	0.28210 0.80110 0.18380 -0.19600
H 	H 	0.21550 0.77960 0.19160 0.09100
C 	C 	0.33420 0.75930 0.14080 0.10700
H 	H 	0.30210 0.71000 0.11960 -0.01700
C 	C 	0.43290 0.79000 0.12920 -0.19500
C 	C 	0.48020 0.86360 0.16105 0.14700
H 	H 	0.54640 0.88540 0.15250 -0.01600
C 	C 	0.48980 0.74510 0.08165 0.37300
O 	O 	0.57450 0.78480 0.06846 -0.44200
O 	O 	0.45390 0.66720 0.05801 -0.52700
C 	C 	0.06910 0.59380 0.70602 -0.28300
C 	C 	0.17020 0.62420 0.71540 0.12200
H 	H 	0.20670 0.59420 0.74340 -0.02200
C 	C 	0.21790 0.69890 0.68380 -0.17000
H 	H 	0.28450 0.72040 0.69160 0.08800
C 	C 	0.16580 0.74070 0.64080 0.07400
H 	H 	0.19790 0.79000 0.61960 0.00200
C 	C 	0.06710 0.71000 0.62920 -0.14300
C 	C 	0.01980 0.63640 0.66105 0.05800
H 	H 	0.95360 0.61460 0.65250 0.03200
C 	C 	0.01020 0.75490 0.58165 0.31300
O 	O 	0.92550 0.71520 0.56846 -0.38200
O 	O 	0.04610 0.83280 0.55801 -0.49000
C 	C 	0.56910 0.09380 0.20602 -0.33300
C 	C 	0.67020 0.12420 0.21540 0.16300
H 	H 	0.70670 0.09420 0.24340 -0.04300
C 	C 	0.71790 0.19890 0.18380 -0.22300
H 	H 	0.78450 0.22040 0.19160 0.10300
C 	C 	0.66580 0.24070 0.14080 0.12600
H 	H 	0.69790 0.29000 0.11960 -0.02300
C 	C 	0.56710 0.21000 0.12920 -0.21600
C 	C 	0.51980 0.13640 0.16105 0.16600
H 	H 	0.45360 0.11460 0.15250 -0.03800
C 	C 	0.51020 0.25490 0.08165 0.37900
O 	O 	0.42550 0.21520 0.06846 -0.45700
O 	O 	0.54610 0.33280 0.05801 -0.53000
C 	C 	0.59380 0.93090 0.29398 -0.32500
C 	C 	0.62420 0.82980 0.28460 0.17300
H 	H 	0.59420 0.79330 0.25660 -0.03700
C 	C 	0.69890 0.78210 0.31620 -0.23000
H 	H 	0.72040 0.71550 0.30840 0.11000
C 	C 	0.74070 0.83420 0.35920 0.15200
H 	H 	0.79000 0.80210 0.38040 -0.02300
C 	C 	0.71000 0.93290 0.37080 -0.23700
C 	C 	0.63640 0.98020 0.33895 0.24500
H 	H 	0.61460 0.04640 0.34750 -0.07100
C 	C 	0.75490 0.98980 0.41835 0.43000
O 	O 	0.71520 0.07450 0.43154 -0.45400
O 	O 	0.83280 0.95390 0.44199 -0.49600
C 	C 	0.09380 0.43090 0.79398 -0.31900
C 	C 	0.12420 0.32980 0.78460 0.15300
H 	H 	0.09420 0.29330 0.75660 -0.04000
C 	C 	0.19890 0.28210 0.81620 -0.20300
H 	H 	0.22040 0.21550 0.80840 0.09700
C 	C 	0.24070 0.33420 0.85920 0.11300
H 	H 	0.29000 0.30210 0.88040 -0.00600
C 	C 	0.21000 0.43290 0.87080 -0.18300
C 	C 	0.13640 0.48020 0.83895 0.15200
H 	H 	0.11460 0.54640 0.84750 -0.02100
C 	C 	0.25490 0.48980 0.91835 0.36600
O 	O 	0.21520 0.57450 0.93154 -0.37800
O 	O 	0.33280 0.45390 0.94199 -0.44900
C 	C 	0.40620 0.06910 0.29398 -0.28800
C 	C 	0.37580 0.17020 0.28460 0.12400
H 	H 	0.40580 0.20670 0.25660 -0.02300
C 	C 	0.30110 0.21790 0.31620 -0.17600
H 	H 	0.27960 0.28450 0.30840 0.08900
C 	C 	0.25930 0.16580 0.35920 0.07600
H 	H 	0.21000 0.19790 0.38040 -0.00300
C 	C 	0.29000 0.06710 0.37080 -0.15000
C 	C 	0.36360 0.01980 0.33895 0.06100
H 	H 	0.38540 0.95360 0.34750 0.03100
C 	C 	0.24510 0.01020 0.41835 0.31600
O 	O 	0.28480 0.92550 0.43154 -0.38500
O 	O 	0.16720 0.04610 0.44199 -0.50400
C 	C 	0.90620 0.56910 0.79398 -0.27700
C 	C 	0.87580 0.67020 0.78460 0.13500
H 	H 	0.90580 0.70670 0.75660 -0.01300
C 	C 	0.80110 0.71790 0.81620 -0.17800
H 	H 	0.77960 0.78450 0.80840 0.10200
C 	C 	0.75930 0.66580 0.85920 0.10300
H 	H 	0.71000 0.69790 0.88040 0.00300
C 	C 	0.79000 0.56710 0.87080 -0.16500
C 	C 	0.86360 0.51980 0.83895 0.13700
H 	H 	0.88540 0.45360 0.84750 -0.00300
C 	C 	0.74510 0.51020 0.91835 0.36300
O 	O 	0.78480 0.42550 0.93154 -0.36900
O 	O 	0.66720 0.54610 0.94199 -0.44600
C 	C 	0.06910 0.59380 0.29398 -0.28600
C 	C 	0.17020 0.62420 0.28460 0.12300
H 	H 	0.20670 0.59420 0.25660 -0.02200
C 	C 	0.21790 0.69890 0.31620 -0.17100
H 	H 	0.28450 0.72040 0.30840 0.08800
C 	C 	0.16580 0.74070 0.35920 0.07500
H 	H 	0.19790 0.79000 0.38040 0.00200
C 	C 	0.06710 0.71000 0.37080 -0.14400
C 	C 	0.01980 0.63640 0.33895 0.05900
H 	H 	0.95360 0.61460 0.34750 0.03200
C 	C 	0.01020 0.75490 0.41835 0.31400
O 	O 	0.92550 0.71520 0.43154 -0.38200
O 	O 	0.04610 0.83280 0.44199 -0.49000
C 	C 	0.56910 0.09380 0.79398 -0.31900
C 	C 	0.67020 0.12420 0.78460 0.15600
H 	H 	0.70670 0.09420 0.75660 -0.03700
C 	C 	0.71790 0.19890 0.81620 -0.20400
H 	H 	0.78450 0.22040 0.80840 0.10500
C 	C 	0.66580 0.24070 0.85920 0.11700
H 	H 	0.69790 0.29000 0.88040 -0.00500
C 	C 	0.56710 0.21000 0.87080 -0.18500
C 	C 	0.51980 0.13640 0.83895 0.15400
H 	H 	0.45360 0.11460 0.84750 -0.02300
C 	C 	0.51020 0.25490 0.91835 0.36800
O 	O 	0.42550 0.21520 0.93154 -0.38100
O 	O 	0.54610 0.33280 0.94199 -0.44900
C 	C 	0.93090 0.40620 0.29398 -0.32800
C 	C 	0.82980 0.37580 0.28460 0.17400
H 	H 	0.79330 0.40580 0.25660 -0.03700
C 	C 	0.78210 0.30110 0.31620 -0.23400
H 	H 	0.71550 0.27960 0.30840 0.11000
C 	C 	0.83420 0.25930 0.35920 0.15300
H 	H 	0.80210 0.21000 0.38040 -0.02800
C 	C 	0.93290 0.29000 0.37080 -0.24300
C 	C 	0.98020 0.36360 0.33895 0.24600
H 	H 	0.04640 0.38540 0.34750 -0.07200
C 	C 	0.98980 0.24510 0.41835 0.43300
O 	O 	0.07450 0.28480 0.43154 -0.45700
O 	O 	0.95390 0.16720 0.44199 -0.51000
C 	C 	0.43090 0.90620 0.79398 -0.27600
C 	C 	0.32980 0.87580 0.78460 0.13100
H 	H 	0.29330 0.90580 0.75660 -0.01600
C 	C 	0.28210 0.80110 0.81620 -0.17700
H 	H 	0.21550 0.77960 0.80840 0.09300
C 	C 	0.33420 0.75930 0.85920 0.09800
H 	H 	0.30210 0.71000 0.88040 0.00200
C 	C 	0.43290 0.79000 0.87080 -0.16400
C 	C 	0.48020 0.86360 0.83895 0.13500
H 	H 	0.54640 0.88540 0.84750 -0.00100
C 	C 	0.48980 0.74510 0.91835 0.36100
O 	O 	0.57450 0.78480 0.93154 -0.36600
O 	O 	0.45390 0.66720 0.94199 -0.44600
Cd	Cd	0.17497 0.88411 0.50000 1.21700
Cd	Cd	0.67497 0.38411 -0.00000 1.17300
Cd	Cd	0.82503 0.11589 0.50000 1.21200
Cd	Cd	0.32503 0.61589 -0.00000 1.17300
Cd	Cd	0.11589 0.17497 0.50000 1.20800
Cd	Cd	0.61589 0.67497 -0.00000 1.17400
Cd	Cd	0.88411 0.82503 0.50000 1.22100
Cd	Cd	0.38411 0.32503 -0.00000 1.17100
Si	Si	0.50000 0.00000 0.75000 0.75500
Si	Si	0.00000 0.50000 0.75000 0.75500
Si	Si	0.50000 0.00000 0.25000 0.76200
Si	Si	0.00000 0.50000 0.25000 0.76200
