data_crystal

_cell_length_a 15.87300
_cell_length_b 16.90610
_cell_length_c 22.82970
_cell_angle_alpha 90.00000
_cell_angle_beta  90.00000
_cell_angle_gamma 90.00000

_symmetry_space_group_name_	'P 1'
_symmetry_space_group_name_H-M	'P 1'

loop_
_symmetry_equiv_pos_as_xyz
  x,y,z

loop_
_atom_site_label
_atom_site_type_symbol
_atom_site_fract_x
_atom_site_fract_y
_atom_site_fract_z
_atom_site_charge
Ag	Ag	0.31211 0.79303 0.80175 0.48400
Ag	Ag	0.60041 0.80381 0.81186 0.48700
Ag	Ag	0.88722 0.84802 0.82244 0.49900
Cu	Cu	0.04281 0.88170 0.49996 0.90000
Cu	Cu	0.37574 0.87844 0.48875 0.89500
C 	C 	0.98470 0.76220 0.57148 0.31600
C 	C 	0.07380 0.77520 0.59604 -0.12800
H 	H 	0.10600 0.72660 0.58920 0.08800
C 	C 	0.07370 0.79100 0.66174 -0.02500
H 	H 	0.03720 0.75300 0.68100 0.02800
H 	H 	0.05150 0.84350 0.66920 0.01300
C 	C 	0.16250 0.78470 0.68726 -0.16700
H 	H 	0.20180 0.81050 0.66090 0.07100
H 	H 	0.17820 0.72930 0.68980 0.06800
C 	C 	0.17460 0.93230 0.74040 -0.44600
H 	H 	0.17950 0.96330 0.77550 0.16300
H 	H 	0.12380 0.94650 0.72010 0.14200
H 	H 	0.22220 0.94220 0.71560 0.13500
C 	C 	0.32310 0.75560 0.55869 0.31600
C 	C 	0.40690 0.77770 0.58855 -0.12100
H 	H 	0.44340 0.73100 0.58850 0.08600
C 	C 	0.39080 0.80180 0.65241 -0.03900
H 	H 	0.36880 0.85530 0.65350 0.01400
H 	H 	0.34880 0.76700 0.66930 0.02100
C 	C 	0.47100 0.79760 0.68850 -0.14700
H 	H 	0.51470 0.82750 0.66860 0.06000
H 	H 	0.48930 0.74300 0.69050 0.05500
C 	C 	0.45600 0.94090 0.75060 -0.39800
H 	H 	0.45010 0.96760 0.78750 0.14200
H 	H 	0.40870 0.95330 0.72610 0.12200
H 	H 	0.50700 0.95790 0.73180 0.12400
C 	C 	0.64930 0.75430 0.56152 0.32100
C 	C 	0.72880 0.77360 0.59654 -0.12000
H 	H 	0.76370 0.72600 0.59970 0.08900
C 	C 	0.70140 0.79960 0.65801 -0.04500
H 	H 	0.67560 0.85160 0.65560 0.01800
H 	H 	0.65930 0.76300 0.67260 0.02900
C 	C 	0.77410 0.80270 0.70048 -0.13700
H 	H 	0.81980 0.83250 0.68290 0.05200
H 	H 	0.79410 0.74930 0.70750 0.05000
C 	C 	0.73230 0.94900 0.74790 -0.39000
H 	H 	0.71670 0.98010 0.78140 0.13300
H 	H 	0.68860 0.95200 0.71890 0.11900
H 	H 	0.78400 0.96890 0.73180 0.11900
C 	C 	0.51330 0.00830 0.92067 0.29700
C 	C 	0.44350 0.96500 0.95364 -0.09200
C 	C 	0.40100 0.90120 0.91728 -0.05500
H 	H 	0.44320 0.86420 0.90340 0.02300
H 	H 	0.37470 0.92530 0.88330 0.04100
C 	C 	0.33450 0.85640 0.95232 -0.14500
H 	H 	0.29070 0.89320 0.96400 0.06400
H 	H 	0.36030 0.83590 0.98770 0.06100
C 	C 	0.35870 0.69670 0.93040 -0.41900
H 	H 	0.34040 0.64860 0.91190 0.11600
H 	H 	0.36030 0.68930 0.97210 0.14100
H 	H 	0.41400 0.71020 0.91660 0.12100
C 	C 	0.83630 0.01070 0.91704 0.30800
C 	C 	0.77050 0.96720 0.95439 -0.10700
H 	H 	0.80110 0.94180 0.98650 0.03100
C 	C 	0.72490 0.90170 0.92125 -0.04000
H 	H 	0.69540 0.92470 0.88820 0.03600
H 	H 	0.76630 0.86480 0.90600 0.00400
C 	C 	0.66200 0.85650 0.95889 -0.15000
H 	H 	0.61980 0.89320 0.97310 0.06600
H 	H 	0.69140 0.83520 0.99270 0.06500
C 	C 	0.69040 0.70190 0.92400 -0.41700
H 	H 	0.67070 0.65460 0.90530 0.11400
H 	H 	0.70420 0.69060 0.96410 0.14200
H 	H 	0.73970 0.72100 0.90410 0.11700
C 	C 	0.31610 0.98670 0.40960 0.29600
C 	C 	0.38990 0.02920 0.43950 -0.09100
C 	C 	0.43220 0.09290 0.40330 -0.06400
H 	H 	0.38950 0.12480 0.38410 0.04000
H 	H 	0.46660 0.06850 0.37320 0.03600
C 	C 	0.48690 0.14560 0.44160 -0.14000
H 	H 	0.52600 0.11210 0.46280 0.05300
H 	H 	0.45090 0.17100 0.47030 0.06300
C 	C 	0.46620 0.28720 0.37680 -0.41000
H 	H 	0.49190 0.33030 0.35600 0.12000
H 	H 	0.43390 0.30760 0.40900 0.13600
H 	H 	0.42980 0.25850 0.35080 0.12500
N 	N 	0.11620 0.83990 0.56366 -0.30900
H 	H 	0.16460 0.82170 0.54810 0.12200
H 	H 	0.12900 0.87930 0.58860 0.08300
N 	N 	0.44900 0.84110 0.55473 -0.31100
H 	H 	0.49800 0.82270 0.54020 0.12300
H 	H 	0.46080 0.88200 0.57860 0.08200
N 	N 	0.77720 0.83640 0.56662 -0.31000
H 	H 	0.82690 0.81670 0.55440 0.12900
H 	H 	0.78790 0.87590 0.59200 0.08700
N 	N 	0.38600 0.02490 0.97934 -0.33600
N 	N 	0.71533 0.02720 0.98101 -0.32000
H 	H 	0.69240 0.00850 0.01430 0.08600
H 	H 	0.67350 0.04020 0.95620 0.13400
N 	N 	0.44800 0.96730 0.46170 -0.36900
O 	O 	0.96079 0.80643 0.52979 -0.41200
O 	O 	0.94058 0.70830 0.59144 -0.32600
O 	O 	0.29707 0.79806 0.51657 -0.41200
O 	O 	0.28373 0.69723 0.57678 -0.33200
O 	O 	0.62838 0.80133 0.52035 -0.41100
O 	O 	0.60698 0.69553 0.57534 -0.33700
O 	O 	0.54801 0.97710 0.87851 -0.29200
O 	O 	0.53477 0.07559 0.94149 -0.38300
O 	O 	0.85756 0.07948 0.93515 -0.38500
O 	O 	0.86696 0.98000 0.87331 -0.32700
O 	O 	0.27380 0.02140 0.37276 -0.28800
O 	O 	0.29883 0.91758 0.42833 -0.38200
S 	S 	0.17124 0.82909 0.75914 -0.06200
S 	S 	0.46011 0.83552 0.76276 -0.14800
S 	S 	0.74652 0.84769 0.76985 -0.14700
S 	S 	0.28654 0.77514 0.91285 -0.05800
S 	S 	0.60927 0.77619 0.92145 -0.06400
S 	S 	0.54716 0.22180 0.40428 -0.07900
H 	H 	0.34600 0.04100 0.94780 0.11100
H 	H 	0.36400 0.00700 0.00800 0.12600
H 	H 	0.47600 0.98200 0.48600 0.16000
H 	H 	0.48000 0.94600 0.42800 0.11500
H 	H 	0.47400 0.94300 0.98800 0.02700
H 	H 	0.36700 0.05400 0.47300 0.02900
Ag	Ag	0.18789 0.20697 0.30175 0.48500
Ag	Ag	0.89959 0.19619 0.31186 0.48800
Ag	Ag	0.61278 0.15198 0.32244 0.50000
Cu	Cu	0.45719 0.11830 0.99996 0.90100
Cu	Cu	0.12426 0.12156 0.98875 0.89500
C 	C 	0.51530 0.23780 0.07148 0.31600
C 	C 	0.42620 0.22480 0.09604 -0.12600
H 	H 	0.39400 0.27340 0.08920 0.08800
C 	C 	0.42630 0.20900 0.16174 -0.02500
H 	H 	0.46280 0.24700 0.18100 0.03000
H 	H 	0.44850 0.15650 0.16920 0.01500
C 	C 	0.33750 0.21530 0.18726 -0.16600
H 	H 	0.29820 0.18950 0.16090 0.07100
H 	H 	0.32180 0.27070 0.18980 0.06800
C 	C 	0.32540 0.06770 0.24040 -0.44700
H 	H 	0.32050 0.03670 0.27550 0.16300
H 	H 	0.37620 0.05350 0.22010 0.14300
H 	H 	0.27780 0.05780 0.21560 0.13600
C 	C 	0.17690 0.24440 0.05869 0.31500
C 	C 	0.09310 0.22230 0.08855 -0.12000
H 	H 	0.05660 0.26900 0.08850 0.08600
C 	C 	0.10920 0.19820 0.15241 -0.04100
H 	H 	0.13120 0.14470 0.15350 0.01500
H 	H 	0.15120 0.23300 0.16930 0.02200
C 	C 	0.02900 0.20240 0.18850 -0.14500
H 	H 	0.98530 0.17250 0.16860 0.05900
H 	H 	0.01070 0.25700 0.19050 0.05400
C 	C 	0.04400 0.05910 0.25060 -0.39500
H 	H 	0.04990 0.03240 0.28750 0.14100
H 	H 	0.09130 0.04670 0.22610 0.12100
H 	H 	0.99300 0.04210 0.23180 0.12300
C 	C 	0.85070 0.24570 0.06152 0.32100
C 	C 	0.77120 0.22640 0.09654 -0.12000
H 	H 	0.73630 0.27400 0.09970 0.08900
C 	C 	0.79860 0.20040 0.15801 -0.04500
H 	H 	0.82440 0.14840 0.15560 0.01900
H 	H 	0.84070 0.23700 0.17260 0.02900
C 	C 	0.72590 0.19730 0.20048 -0.13700
H 	H 	0.68020 0.16750 0.18290 0.05200
H 	H 	0.70590 0.25070 0.20750 0.05000
C 	C 	0.76770 0.05100 0.24790 -0.39000
H 	H 	0.78330 0.01990 0.28140 0.13300
H 	H 	0.81140 0.04800 0.21890 0.11900
H 	H 	0.71600 0.03110 0.23180 0.12000
C 	C 	0.98670 0.99170 0.42067 0.29900
C 	C 	0.05650 0.03500 0.45364 -0.09300
C 	C 	0.09900 0.09880 0.41728 -0.05500
H 	H 	0.05680 0.13580 0.40340 0.02300
H 	H 	0.12530 0.07470 0.38330 0.04100
C 	C 	0.16550 0.14360 0.45232 -0.14500
H 	H 	0.20930 0.10680 0.46400 0.06400
H 	H 	0.13970 0.16410 0.48770 0.06100
C 	C 	0.14130 0.30330 0.43040 -0.41800
H 	H 	0.15960 0.35140 0.41190 0.11500
H 	H 	0.13970 0.31070 0.47210 0.14100
H 	H 	0.08600 0.28980 0.41660 0.12100
C 	C 	0.66370 0.98930 0.41704 0.31100
C 	C 	0.72950 0.03280 0.45439 -0.11000
H 	H 	0.69890 0.05820 0.48650 0.03100
C 	C 	0.77510 0.09830 0.42125 -0.04000
H 	H 	0.80460 0.07530 0.38820 0.03500
H 	H 	0.73370 0.13520 0.40600 0.00400
C 	C 	0.83800 0.14350 0.45889 -0.15000
H 	H 	0.88020 0.10680 0.47310 0.06600
H 	H 	0.80860 0.16480 0.49270 0.06400
C 	C 	0.80960 0.29810 0.42400 -0.41500
H 	H 	0.82930 0.34540 0.40530 0.11400
H 	H 	0.79580 0.30940 0.46410 0.14100
H 	H 	0.76030 0.27900 0.40410 0.11700
C 	C 	0.18390 0.01330 0.90960 0.29700
C 	C 	0.11010 0.97080 0.93950 -0.09400
C 	C 	0.06780 0.90710 0.90330 -0.06000
H 	H 	0.11050 0.87520 0.88410 0.03900
H 	H 	0.03340 0.93150 0.87320 0.03400
C 	C 	0.01310 0.85440 0.94160 -0.14700
H 	H 	0.97400 0.88790 0.96280 0.05600
H 	H 	0.04910 0.82900 0.97030 0.06500
C 	C 	0.03380 0.71280 0.87680 -0.41300
H 	H 	0.00810 0.66970 0.85600 0.12100
H 	H 	0.06610 0.69240 0.90900 0.13700
H 	H 	0.07020 0.74150 0.85080 0.12600
N 	N 	0.38380 0.16010 0.06366 -0.30900
H 	H 	0.33540 0.17830 0.04810 0.12200
H 	H 	0.37100 0.12070 0.08860 0.08300
N 	N 	0.05100 0.15890 0.05473 -0.31100
H 	H 	0.00200 0.17730 0.04020 0.12400
H 	H 	0.03920 0.11800 0.07860 0.08300
N 	N 	0.72280 0.16360 0.06662 -0.31000
H 	H 	0.67310 0.18330 0.05440 0.12900
H 	H 	0.71210 0.12410 0.09200 0.08700
N 	N 	0.11400 0.97510 0.47934 -0.33400
N 	N 	0.78467 0.97280 0.48101 -0.31800
H 	H 	0.80760 0.99150 0.51430 0.08400
H 	H 	0.82650 0.95980 0.45620 0.13400
N 	N 	0.05200 0.03270 0.96170 -0.36900
O 	O 	0.53921 0.19357 0.02979 -0.41200
O 	O 	0.55942 0.29170 0.09144 -0.32600
O 	O 	0.20293 0.20194 0.01657 -0.41100
O 	O 	0.21627 0.30277 0.07678 -0.33200
O 	O 	0.87162 0.19867 0.02035 -0.41100
O 	O 	0.89302 0.30447 0.07534 -0.33700
O 	O 	0.95199 0.02290 0.37851 -0.29400
O 	O 	0.96523 0.92441 0.44149 -0.38300
O 	O 	0.64244 0.92052 0.43515 -0.38600
O 	O 	0.63304 0.02000 0.37331 -0.32800
O 	O 	0.22620 0.97860 0.87276 -0.28900
O 	O 	0.20117 0.08242 0.92833 -0.38300
S 	S 	0.32876 0.17091 0.25914 -0.06200
S 	S 	0.03989 0.16448 0.26276 -0.14800
S 	S 	0.75348 0.15231 0.26985 -0.14700
S 	S 	0.21346 0.22486 0.41285 -0.05900
S 	S 	0.89073 0.22381 0.42145 -0.06500
S 	S 	0.95284 0.77820 0.90428 -0.07500
H 	H 	0.15400 0.95900 0.44780 0.11100
H 	H 	0.13600 0.99300 0.50800 0.12300
H 	H 	0.02400 0.01800 0.98600 0.15900
H 	H 	0.02000 0.05400 0.92800 0.11500
H 	H 	0.02600 0.05700 0.48800 0.02700
H 	H 	0.13300 0.94600 0.97300 0.03000
Cu	Cu	0.78698 0.12133 0.99792 0.90200
Cu	Cu	0.71302 0.87867 0.49792 0.90200
Cu	Cu	0.21302 0.62133 0.50208 0.90200
Cu	Cu	0.28698 0.37867 0.00208 0.90200
Ag	Ag	0.68789 0.29303 0.69825 0.48500
Ag	Ag	0.39959 0.30381 0.68814 0.48800
Ag	Ag	0.11278 0.34802 0.67756 0.49900
Cu	Cu	0.95719 0.38170 0.00004 0.90200
Cu	Cu	0.62426 0.37844 0.01125 0.89600
C 	C 	0.01530 0.26220 0.92852 0.31500
C 	C 	0.92620 0.27520 0.90396 -0.12500
H 	H 	0.89400 0.22660 0.91080 0.08800
C 	C 	0.92630 0.29100 0.83826 -0.02500
H 	H 	0.96280 0.25300 0.81900 0.03000
H 	H 	0.94850 0.34350 0.83080 0.01500
C 	C 	0.83750 0.28470 0.81274 -0.16500
H 	H 	0.79820 0.31050 0.83910 0.07100
H 	H 	0.82180 0.22930 0.81020 0.06800
C 	C 	0.82540 0.43230 0.75960 -0.44700
H 	H 	0.82050 0.46330 0.72450 0.16300
H 	H 	0.87620 0.44650 0.77990 0.14200
H 	H 	0.77780 0.44220 0.78440 0.13500
C 	C 	0.67690 0.25560 0.94131 0.31600
C 	C 	0.59310 0.27770 0.91145 -0.12100
H 	H 	0.55660 0.23100 0.91150 0.08600
C 	C 	0.60920 0.30180 0.84759 -0.03900
H 	H 	0.63120 0.35530 0.84650 0.01400
H 	H 	0.65120 0.26700 0.83070 0.02100
C 	C 	0.52900 0.29760 0.81150 -0.14700
H 	H 	0.48530 0.32750 0.83140 0.06000
H 	H 	0.51070 0.24300 0.80950 0.05500
C 	C 	0.54400 0.44090 0.74940 -0.39800
H 	H 	0.54990 0.46760 0.71250 0.14200
H 	H 	0.59130 0.45330 0.77390 0.12200
H 	H 	0.49300 0.45790 0.76820 0.12400
C 	C 	0.35070 0.25430 0.93848 0.32100
C 	C 	0.27120 0.27360 0.90346 -0.12000
H 	H 	0.23630 0.22600 0.90030 0.08900
C 	C 	0.29860 0.29960 0.84199 -0.04500
H 	H 	0.32440 0.35160 0.84440 0.01900
H 	H 	0.34070 0.26300 0.82740 0.02900
C 	C 	0.22590 0.30270 0.79952 -0.13700
H 	H 	0.18020 0.33250 0.81710 0.05200
H 	H 	0.20590 0.24930 0.79250 0.05000
C 	C 	0.26770 0.44900 0.75210 -0.38900
H 	H 	0.28330 0.48010 0.71860 0.13300
H 	H 	0.31140 0.45200 0.78110 0.11900
H 	H 	0.21600 0.46890 0.76820 0.11900
C 	C 	0.48670 0.50830 0.57933 0.30000
C 	C 	0.55650 0.46500 0.54636 -0.09500
C 	C 	0.59900 0.40120 0.58272 -0.05400
H 	H 	0.55680 0.36420 0.59660 0.02300
H 	H 	0.62530 0.42530 0.61670 0.04000
C 	C 	0.66550 0.35640 0.54768 -0.14500
H 	H 	0.70930 0.39320 0.53600 0.06300
H 	H 	0.63970 0.33590 0.51230 0.06100
C 	C 	0.64130 0.19670 0.56960 -0.41800
H 	H 	0.65960 0.14860 0.58810 0.11500
H 	H 	0.63970 0.18930 0.52790 0.14000
H 	H 	0.58600 0.21020 0.58340 0.12100
C 	C 	0.16370 0.51070 0.58296 0.31200
C 	C 	0.22950 0.46720 0.54561 -0.11100
H 	H 	0.19890 0.44180 0.51350 0.03200
C 	C 	0.27510 0.40170 0.57875 -0.03900
H 	H 	0.30460 0.42470 0.61180 0.03500
H 	H 	0.23370 0.36480 0.59400 0.00400
C 	C 	0.33800 0.35650 0.54111 -0.15000
H 	H 	0.38020 0.39320 0.52690 0.06600
H 	H 	0.30860 0.33520 0.50730 0.06400
C 	C 	0.30960 0.20190 0.57600 -0.41600
H 	H 	0.32930 0.15460 0.59470 0.11400
H 	H 	0.29580 0.19060 0.53590 0.14100
H 	H 	0.26030 0.22100 0.59590 0.11700
C 	C 	0.68390 0.48670 0.09040 0.29900
C 	C 	0.61010 0.52920 0.06050 -0.09400
C 	C 	0.56780 0.59290 0.09670 -0.06300
H 	H 	0.61050 0.62480 0.11590 0.04000
H 	H 	0.53340 0.56850 0.12680 0.03500
C 	C 	0.51310 0.64560 0.05840 -0.14000
H 	H 	0.47400 0.61210 0.03720 0.05300
H 	H 	0.54910 0.67100 0.02970 0.06200
C 	C 	0.53380 0.78720 0.12320 -0.40900
H 	H 	0.50810 0.83030 0.14400 0.11900
H 	H 	0.56610 0.80760 0.09100 0.13500
H 	H 	0.57020 0.75850 0.14920 0.12500
N 	N 	0.88380 0.33990 0.93634 -0.30900
H 	H 	0.83540 0.32170 0.95190 0.12200
H 	H 	0.87100 0.37930 0.91140 0.08300
N 	N 	0.55100 0.34110 0.94527 -0.31100
H 	H 	0.50200 0.32270 0.95980 0.12300
H 	H 	0.53920 0.38200 0.92140 0.08200
N 	N 	0.22280 0.33640 0.93338 -0.31000
H 	H 	0.17310 0.31670 0.94560 0.12800
H 	H 	0.21210 0.37590 0.90800 0.08700
N 	N 	0.61400 0.52490 0.52066 -0.33300
N 	N 	0.28467 0.52720 0.51899 -0.31800
H 	H 	0.30760 0.50850 0.48570 0.08400
H 	H 	0.32650 0.54020 0.54380 0.13400
N 	N 	0.55200 0.46730 0.03830 -0.36900
O 	O 	0.03921 0.30643 0.97021 -0.41300
O 	O 	0.05942 0.20830 0.90856 -0.32600
O 	O 	0.70293 0.29806 0.98343 -0.41200
O 	O 	0.71627 0.19723 0.92322 -0.33200
O 	O 	0.37162 0.30133 0.97965 -0.41100
O 	O 	0.39302 0.19553 0.92466 -0.33700
O 	O 	0.45199 0.47710 0.62149 -0.29400
O 	O 	0.46523 0.57559 0.55851 -0.38300
O 	O 	0.14244 0.57948 0.56485 -0.38600
O 	O 	0.13304 0.48000 0.62669 -0.32900
O 	O 	0.72620 0.52140 0.12724 -0.29000
O 	O 	0.70117 0.41758 0.07167 -0.38300
S 	S 	0.82876 0.32909 0.74086 -0.06200
S 	S 	0.53989 0.33552 0.73724 -0.14800
S 	S 	0.25348 0.34769 0.73015 -0.14700
S 	S 	0.71346 0.27514 0.58715 -0.05900
S 	S 	0.39073 0.27619 0.57855 -0.06400
S 	S 	0.45284 0.72180 0.09572 -0.07900
H 	H 	0.65400 0.54100 0.55220 0.11100
H 	H 	0.63600 0.50700 0.49200 0.12300
H 	H 	0.52400 0.48200 0.01400 0.16000
H 	H 	0.52000 0.44600 0.07200 0.11500
H 	H 	0.52600 0.44300 0.51200 0.02700
H 	H 	0.63300 0.55400 0.02700 0.02900
Ag	Ag	0.81211 0.70697 0.19825 0.48500
Ag	Ag	0.10041 0.69619 0.18814 0.48800
Ag	Ag	0.38722 0.65198 0.17756 0.50000
Cu	Cu	0.54281 0.61830 0.50004 0.90200
Cu	Cu	0.87574 0.62156 0.51125 0.89600
C 	C 	0.48470 0.73780 0.42852 0.31600
C 	C 	0.57380 0.72480 0.40396 -0.12600
H 	H 	0.60600 0.77340 0.41080 0.08800
C 	C 	0.57370 0.70900 0.33826 -0.02500
H 	H 	0.53720 0.74700 0.31900 0.02900
H 	H 	0.55150 0.65650 0.33080 0.01500
C 	C 	0.66250 0.71530 0.31274 -0.16600
H 	H 	0.70180 0.68950 0.33910 0.07100
H 	H 	0.67820 0.77070 0.31020 0.06800
C 	C 	0.67460 0.56770 0.25960 -0.44600
H 	H 	0.67950 0.53670 0.22450 0.16300
H 	H 	0.62380 0.55350 0.27990 0.14200
H 	H 	0.72220 0.55780 0.28440 0.13500
C 	C 	0.82310 0.74440 0.44131 0.31600
C 	C 	0.90690 0.72230 0.41145 -0.12100
H 	H 	0.94340 0.76900 0.41150 0.08600
C 	C 	0.89080 0.69820 0.34759 -0.04000
H 	H 	0.86880 0.64470 0.34650 0.01400
H 	H 	0.84880 0.73300 0.33070 0.02100
C 	C 	0.97100 0.70240 0.31150 -0.14700
H 	H 	0.01470 0.67250 0.33140 0.06000
H 	H 	0.98930 0.75700 0.30950 0.05500
C 	C 	0.95600 0.55910 0.24940 -0.39800
H 	H 	0.95010 0.53240 0.21250 0.14200
H 	H 	0.90870 0.54670 0.27390 0.12200
H 	H 	0.00700 0.54210 0.26820 0.12400
C 	C 	0.14930 0.74570 0.43848 0.32100
C 	C 	0.22880 0.72640 0.40346 -0.12000
H 	H 	0.26370 0.77400 0.40030 0.08900
C 	C 	0.20140 0.70040 0.34199 -0.04500
H 	H 	0.17560 0.64840 0.34440 0.01900
H 	H 	0.15930 0.73700 0.32740 0.02900
C 	C 	0.27410 0.69730 0.29952 -0.13700
H 	H 	0.31980 0.66750 0.31710 0.05200
H 	H 	0.29410 0.75070 0.29250 0.05000
C 	C 	0.23230 0.55100 0.25210 -0.38900
H 	H 	0.21670 0.51990 0.21860 0.13300
H 	H 	0.18860 0.54800 0.28110 0.11900
H 	H 	0.28400 0.53110 0.26820 0.11900
C 	C 	0.01330 0.49170 0.07933 0.30000
C 	C 	0.94350 0.53500 0.04636 -0.09500
C 	C 	0.90100 0.59880 0.08272 -0.05400
H 	H 	0.94320 0.63580 0.09660 0.02300
H 	H 	0.87470 0.57470 0.11670 0.04100
C 	C 	0.83450 0.64360 0.04768 -0.14500
H 	H 	0.79070 0.60680 0.03600 0.06300
H 	H 	0.86030 0.66410 0.01230 0.06100
C 	C 	0.85870 0.80330 0.06960 -0.41600
H 	H 	0.84040 0.85140 0.08810 0.11400
H 	H 	0.86030 0.81070 0.02790 0.13900
H 	H 	0.91400 0.78980 0.08340 0.12000
C 	C 	0.33630 0.48930 0.08296 0.31200
C 	C 	0.27050 0.53280 0.04561 -0.11100
H 	H 	0.30110 0.55820 0.01350 0.03200
C 	C 	0.22490 0.59830 0.07875 -0.03900
H 	H 	0.19540 0.57530 0.11180 0.03500
H 	H 	0.26630 0.63520 0.09400 0.00400
C 	C 	0.16200 0.64350 0.04111 -0.15000
H 	H 	0.11980 0.60680 0.02690 0.06600
H 	H 	0.19140 0.66480 0.00730 0.06400
C 	C 	0.19040 0.79810 0.07600 -0.41400
H 	H 	0.17070 0.84540 0.09470 0.11300
H 	H 	0.20420 0.80940 0.03590 0.14000
H 	H 	0.23970 0.77900 0.09590 0.11600
C 	C 	0.81610 0.51330 0.59040 0.29900
C 	C 	0.88990 0.47080 0.56050 -0.09400
C 	C 	0.93220 0.40710 0.59670 -0.06300
H 	H 	0.88950 0.37520 0.61590 0.04000
H 	H 	0.96660 0.43150 0.62680 0.03500
C 	C 	0.98690 0.35440 0.55840 -0.14100
H 	H 	0.02600 0.38790 0.53720 0.05300
H 	H 	0.95090 0.32900 0.52970 0.06300
C 	C 	0.96620 0.21280 0.62320 -0.41000
H 	H 	0.99190 0.16970 0.64400 0.12000
H 	H 	0.93390 0.19240 0.59100 0.13600
H 	H 	0.92980 0.24150 0.64920 0.12500
N 	N 	0.61620 0.66010 0.43634 -0.30900
H 	H 	0.66460 0.67830 0.45190 0.12200
H 	H 	0.62900 0.62070 0.41140 0.08300
N 	N 	0.94900 0.65890 0.44527 -0.31100
H 	H 	0.99800 0.67730 0.45980 0.12300
H 	H 	0.96080 0.61800 0.42140 0.08200
N 	N 	0.27720 0.66360 0.43338 -0.31000
H 	H 	0.32690 0.68330 0.44560 0.12900
H 	H 	0.28790 0.62410 0.40800 0.08700
N 	N 	0.88600 0.47510 0.02066 -0.33400
N 	N 	0.21533 0.47280 0.01899 -0.31800
H 	H 	0.19240 0.49150 0.98570 0.08400
H 	H 	0.17350 0.45980 0.04380 0.13400
N 	N 	0.94800 0.53270 0.53830 -0.36900
O 	O 	0.46079 0.69357 0.47021 -0.41200
O 	O 	0.44058 0.79170 0.40856 -0.32600
O 	O 	0.79707 0.70194 0.48343 -0.41200
O 	O 	0.78373 0.80277 0.42322 -0.33200
O 	O 	0.12838 0.69867 0.47965 -0.41100
O 	O 	0.10698 0.80447 0.42466 -0.33700
O 	O 	0.04801 0.52290 0.12149 -0.29400
O 	O 	0.03477 0.42441 0.05851 -0.38300
O 	O 	0.35756 0.42052 0.06485 -0.38600
O 	O 	0.36696 0.52000 0.12669 -0.32900
O 	O 	0.77380 0.47860 0.62724 -0.29000
O 	O 	0.79883 0.58242 0.57167 -0.38300
S 	S 	0.67124 0.67091 0.24086 -0.06200
S 	S 	0.96011 0.66448 0.23724 -0.14800
S 	S 	0.24652 0.65231 0.23015 -0.14700
S 	S 	0.78654 0.72486 0.08715 -0.06000
S 	S 	0.10927 0.72381 0.07855 -0.06500
S 	S 	0.04716 0.27820 0.59572 -0.07800
H 	H 	0.84600 0.45900 0.05220 0.11200
H 	H 	0.86400 0.49300 0.99200 0.12400
H 	H 	0.97600 0.51800 0.51400 0.16000
H 	H 	0.98000 0.55400 0.57200 0.11500
H 	H 	0.97400 0.55700 0.01200 0.02700
H 	H 	0.86700 0.44600 0.52700 0.02900
