data_crystal

_cell_length_a 30.55360
_cell_length_b 15.64300
_cell_length_c 21.97010
_cell_angle_alpha 90.00000
_cell_angle_beta  133.09100
_cell_angle_gamma 90.00000

_symmetry_space_group_name_	'P 1'
_symmetry_space_group_name_H-M	'P 1'

loop_
_symmetry_equiv_pos_as_xyz
  x,y,z

loop_
_atom_site_label
_atom_site_type_symbol
_atom_site_fract_x
_atom_site_fract_y
_atom_site_fract_z
_atom_site_charge
Nd	Nd	0.33129 0.87170 0.48589 1.68600
Nd	Nd	0.61055 0.86345 0.67363 1.66900
O 	O 	0.25281 0.76910 0.37230 -0.51800
O 	O 	0.22330 0.65210 0.29520 -0.47100
O 	O 	0.44050 0.85700 0.56960 -0.50600
O 	O 	0.52050 0.78480 0.61390 -0.53400
O 	O 	0.63390 0.97210 0.61740 -0.54000
O 	O 	0.67330 0.09590 0.62560 -0.51500
O 	O 	0.62230 0.88280 0.79510 -0.50100
O 	O 	0.65730 0.95270 0.90910 -0.54400
N 	N 	0.36650 0.73450 0.46420 -0.18100
N 	N 	0.66170 0.00130 0.75790 -0.17600
C 	C 	0.32760 0.67640 0.40690 -0.08300
C 	C 	0.34590 0.60110 0.39570 -0.00200
H 	H 	0.31730 0.56090 0.35410 0.01600
C 	C 	0.40650 0.58650 0.44690 -0.09600
H 	H 	0.42040 0.53510 0.44190 0.03200
C 	C 	0.44660 0.64700 0.50490 0.00900
H 	H 	0.48850 0.63850 0.53970 -0.00400
C 	C 	0.42530 0.72040 0.51220 -0.10500
C 	C 	0.26230 0.70110 0.35340 0.39500
C 	C 	0.46520 0.79210 0.57030 0.40000
C 	C 	0.68470 0.05460 0.73850 -0.09700
C 	C 	0.72600 0.11790 0.79300 0.01400
H 	H 	0.74450 0.15220 0.78020 -0.00100
C 	C 	0.73900 0.12860 0.86640 -0.10100
H 	H 	0.76640 0.17170 0.90480 0.02900
C 	C 	0.71220 0.07650 0.88380 0.01300
H 	H 	0.71960 0.08480 0.93300 -0.00600
C 	C 	0.67440 0.01230 0.82830 -0.10000
C 	C 	0.66270 0.04050 0.65390 0.41600
C 	C 	0.64950 0.94570 0.84650 0.40500
Nd	Nd	0.83129 0.37170 0.48589 1.68500
Nd	Nd	0.11055 0.36345 0.67363 1.66700
O 	O 	0.75281 0.26910 0.37230 -0.51900
O 	O 	0.72330 0.15210 0.29520 -0.47100
O 	O 	0.94050 0.35700 0.56960 -0.50600
O 	O 	0.02050 0.28480 0.61390 -0.53400
O 	O 	0.13390 0.47210 0.61740 -0.54000
O 	O 	0.17330 0.59590 0.62560 -0.51500
O 	O 	0.12230 0.38280 0.79510 -0.50100
O 	O 	0.15730 0.45270 0.90910 -0.54600
N 	N 	0.86650 0.23450 0.46420 -0.18100
N 	N 	0.16170 0.50130 0.75790 -0.17600
C 	C 	0.82760 0.17640 0.40690 -0.08300
C 	C 	0.84590 0.10110 0.39570 -0.00300
H 	H 	0.81730 0.06090 0.35410 0.01600
C 	C 	0.90650 0.08650 0.44690 -0.09600
H 	H 	0.92040 0.03510 0.44190 0.03200
C 	C 	0.94660 0.14700 0.50490 0.00900
H 	H 	0.98850 0.13850 0.53970 -0.00500
C 	C 	0.92530 0.22040 0.51220 -0.10500
C 	C 	0.76230 0.20110 0.35340 0.39500
C 	C 	0.96520 0.29210 0.57030 0.40000
C 	C 	0.18470 0.55460 0.73850 -0.09700
C 	C 	0.22600 0.61790 0.79300 0.01400
H 	H 	0.24450 0.65220 0.78020 -0.00000
C 	C 	0.23900 0.62860 0.86640 -0.10000
H 	H 	0.26640 0.67170 0.90480 0.02900
C 	C 	0.21220 0.57650 0.88380 0.01200
H 	H 	0.21960 0.58480 0.93300 -0.00500
C 	C 	0.17440 0.51230 0.82830 -0.09800
C 	C 	0.16270 0.54050 0.65390 0.41700
C 	C 	0.14950 0.44570 0.84650 0.40300
Nd	Nd	0.66871 0.87170 0.01411 1.68300
Nd	Nd	0.38946 0.86345 0.82637 1.66900
O 	O 	0.74719 0.76910 0.12770 -0.51900
O 	O 	0.77670 0.65210 0.20480 -0.47100
O 	O 	0.55950 0.85700 0.93040 -0.50500
O 	O 	0.47950 0.78480 0.88610 -0.53400
O 	O 	0.36610 0.97210 0.88260 -0.53800
O 	O 	0.32670 0.09590 0.87440 -0.51500
O 	O 	0.37770 0.88280 0.70490 -0.50100
O 	O 	0.34270 0.95270 0.59090 -0.54600
N 	N 	0.63350 0.73450 0.03580 -0.18100
N 	N 	0.33830 0.00130 0.74210 -0.17600
C 	C 	0.67240 0.67640 0.09310 -0.08300
C 	C 	0.65410 0.60110 0.10430 -0.00200
H 	H 	0.68270 0.56090 0.14590 0.01600
C 	C 	0.59350 0.58650 0.05310 -0.09700
H 	H 	0.57960 0.53510 0.05810 0.03200
C 	C 	0.55340 0.64700 0.99510 0.01100
H 	H 	0.51150 0.63850 0.96030 -0.00500
C 	C 	0.57470 0.72040 0.98780 -0.10400
C 	C 	0.73770 0.70110 0.14660 0.39500
C 	C 	0.53480 0.79210 0.92970 0.40000
C 	C 	0.31530 0.05460 0.76150 -0.09700
C 	C 	0.27400 0.11790 0.70700 0.01400
H 	H 	0.25550 0.15220 0.71980 -0.00000
C 	C 	0.26100 0.12860 0.63360 -0.10100
H 	H 	0.23360 0.17170 0.59520 0.02900
C 	C 	0.28780 0.07650 0.61620 0.01200
H 	H 	0.28040 0.08480 0.56700 -0.00600
C 	C 	0.32560 0.01230 0.67170 -0.09900
C 	C 	0.33730 0.04050 0.84610 0.41400
C 	C 	0.35050 0.94570 0.65350 0.40400
Nd	Nd	0.16871 0.37170 0.01411 1.68900
Nd	Nd	0.88946 0.36345 0.82637 1.66700
O 	O 	0.24719 0.26910 0.12770 -0.51900
O 	O 	0.27670 0.15210 0.20480 -0.47000
O 	O 	0.05950 0.35700 0.93040 -0.50700
O 	O 	0.97950 0.28480 0.88610 -0.53400
O 	O 	0.86610 0.47210 0.88260 -0.54000
O 	O 	0.82670 0.59590 0.87440 -0.51600
O 	O 	0.87770 0.38280 0.70490 -0.50100
O 	O 	0.84270 0.45270 0.59090 -0.54600
N 	N 	0.13350 0.23450 0.03580 -0.18000
N 	N 	0.83830 0.50130 0.74210 -0.17600
C 	C 	0.17240 0.17640 0.09310 -0.08200
C 	C 	0.15410 0.10110 0.10430 -0.00400
H 	H 	0.18270 0.06090 0.14590 0.01600
C 	C 	0.09350 0.08650 0.05310 -0.09300
H 	H 	0.07960 0.03510 0.05810 0.03100
C 	C 	0.05340 0.14700 0.99510 0.00700
H 	H 	0.01150 0.13850 0.96030 -0.00400
C 	C 	0.07470 0.22040 0.98780 -0.10500
C 	C 	0.23770 0.20110 0.14660 0.39500
C 	C 	0.03480 0.29210 0.92970 0.40000
C 	C 	0.81530 0.55460 0.76150 -0.09700
C 	C 	0.77400 0.61790 0.70700 0.01400
H 	H 	0.75550 0.65220 0.71980 -0.00000
C 	C 	0.76100 0.62860 0.63360 -0.10100
H 	H 	0.73360 0.67170 0.59520 0.02900
C 	C 	0.78780 0.57650 0.61620 0.01200
H 	H 	0.78040 0.58480 0.56700 -0.00600
C 	C 	0.82560 0.51230 0.67170 -0.09800
C 	C 	0.83730 0.54050 0.84610 0.41700
C 	C 	0.85050 0.44570 0.65350 0.40300
Nd	Nd	0.66871 0.12830 0.51411 1.68500
Nd	Nd	0.38946 0.13655 0.32637 1.66800
O 	O 	0.74719 0.23090 0.62770 -0.51900
O 	O 	0.77670 0.34790 0.70480 -0.47100
O 	O 	0.55950 0.14300 0.43040 -0.50600
O 	O 	0.47950 0.21520 0.38610 -0.53400
O 	O 	0.36610 0.02790 0.38260 -0.54000
O 	O 	0.32670 0.90410 0.37440 -0.51500
O 	O 	0.37770 0.11720 0.20490 -0.50100
O 	O 	0.34270 0.04730 0.09090 -0.54400
N 	N 	0.63350 0.26550 0.53580 -0.18100
N 	N 	0.33830 0.99870 0.24210 -0.17600
C 	C 	0.67240 0.32360 0.59310 -0.08300
C 	C 	0.65410 0.39890 0.60430 -0.00200
H 	H 	0.68270 0.43910 0.64590 0.01600
C 	C 	0.59350 0.41350 0.55310 -0.09600
H 	H 	0.57960 0.46490 0.55810 0.03200
C 	C 	0.55340 0.35300 0.49510 0.00900
H 	H 	0.51150 0.36150 0.46030 -0.00400
C 	C 	0.57470 0.27960 0.48780 -0.10500
C 	C 	0.73770 0.29890 0.64660 0.39500
C 	C 	0.53480 0.20790 0.42970 0.40000
C 	C 	0.31530 0.94540 0.26150 -0.09700
C 	C 	0.27400 0.88210 0.20700 0.01400
H 	H 	0.25550 0.84780 0.21980 -0.00100
C 	C 	0.26100 0.87140 0.13360 -0.10100
H 	H 	0.23360 0.82830 0.09520 0.02900
C 	C 	0.28780 0.92350 0.11620 0.01300
H 	H 	0.28040 0.91520 0.06700 -0.00600
C 	C 	0.32560 0.98770 0.17170 -0.10000
C 	C 	0.33730 0.95950 0.34610 0.41600
C 	C 	0.35050 0.05430 0.15350 0.40500
Nd	Nd	0.16871 0.62830 0.51411 1.68500
Nd	Nd	0.88946 0.63655 0.32637 1.66700
O 	O 	0.24719 0.73090 0.62770 -0.51900
O 	O 	0.27670 0.84790 0.70480 -0.47100
O 	O 	0.05950 0.64300 0.43040 -0.50600
O 	O 	0.97950 0.71520 0.38610 -0.53400
O 	O 	0.86610 0.52790 0.38260 -0.54000
O 	O 	0.82670 0.40410 0.37440 -0.51500
O 	O 	0.87770 0.61720 0.20490 -0.50100
O 	O 	0.84270 0.54730 0.09090 -0.54600
N 	N 	0.13350 0.76550 0.53580 -0.18100
N 	N 	0.83830 0.49870 0.24210 -0.17600
C 	C 	0.17240 0.82360 0.59310 -0.08300
C 	C 	0.15410 0.89890 0.60430 -0.00300
H 	H 	0.18270 0.93910 0.64590 0.01600
C 	C 	0.09350 0.91350 0.55310 -0.09600
H 	H 	0.07960 0.96490 0.55810 0.03200
C 	C 	0.05340 0.85300 0.49510 0.00900
H 	H 	0.01150 0.86150 0.46030 -0.00500
C 	C 	0.07470 0.77960 0.48780 -0.10500
C 	C 	0.23770 0.79890 0.64660 0.39500
C 	C 	0.03480 0.70790 0.42970 0.40000
C 	C 	0.81530 0.44540 0.26150 -0.09700
C 	C 	0.77400 0.38210 0.20700 0.01400
H 	H 	0.75550 0.34780 0.21980 -0.00000
C 	C 	0.76100 0.37140 0.13360 -0.10000
H 	H 	0.73360 0.32830 0.09520 0.02900
C 	C 	0.78780 0.42350 0.11620 0.01200
H 	H 	0.78040 0.41520 0.06700 -0.00500
C 	C 	0.82560 0.48770 0.17170 -0.09800
C 	C 	0.83730 0.45950 0.34610 0.41700
C 	C 	0.85050 0.55430 0.15350 0.40300
Nd	Nd	0.33129 0.12830 0.98589 1.68300
Nd	Nd	0.61055 0.13655 0.17363 1.66900
O 	O 	0.25281 0.23090 0.87230 -0.51900
O 	O 	0.22330 0.34790 0.79520 -0.47100
O 	O 	0.44050 0.14300 0.06960 -0.50500
O 	O 	0.52050 0.21520 0.11390 -0.53300
O 	O 	0.63390 0.02790 0.11740 -0.53800
O 	O 	0.67330 0.90410 0.12560 -0.51500
O 	O 	0.62230 0.11720 0.29510 -0.50100
O 	O 	0.65730 0.04730 0.40910 -0.54600
N 	N 	0.36650 0.26550 0.96420 -0.18100
N 	N 	0.66170 0.99870 0.25790 -0.17600
C 	C 	0.32760 0.32360 0.90690 -0.08300
C 	C 	0.34590 0.39890 0.89570 -0.00200
H 	H 	0.31730 0.43910 0.85410 0.01600
C 	C 	0.40650 0.41350 0.94690 -0.09700
H 	H 	0.42040 0.46490 0.94190 0.03200
C 	C 	0.44660 0.35300 0.00490 0.01100
H 	H 	0.48850 0.36150 0.03970 -0.00500
C 	C 	0.42530 0.27960 0.01220 -0.10400
C 	C 	0.26230 0.29890 0.85340 0.39500
C 	C 	0.46520 0.20790 0.07030 0.40000
C 	C 	0.68470 0.94540 0.23850 -0.09700
C 	C 	0.72600 0.88210 0.29300 0.01400
H 	H 	0.74450 0.84780 0.28020 -0.00000
C 	C 	0.73900 0.87140 0.36640 -0.10100
H 	H 	0.76640 0.82830 0.40480 0.02900
C 	C 	0.71220 0.92350 0.38380 0.01200
H 	H 	0.71960 0.91520 0.43300 -0.00600
C 	C 	0.67440 0.98770 0.32830 -0.09900
C 	C 	0.66270 0.95950 0.15390 0.41400
C 	C 	0.64950 0.05430 0.34650 0.40400
Nd	Nd	0.83129 0.62830 0.98589 1.68900
Nd	Nd	0.11055 0.63655 0.17363 1.66700
O 	O 	0.75281 0.73090 0.87230 -0.51900
O 	O 	0.72330 0.84790 0.79520 -0.47000
O 	O 	0.94050 0.64300 0.06960 -0.50700
O 	O 	0.02050 0.71520 0.11390 -0.53400
O 	O 	0.13390 0.52790 0.11740 -0.54000
O 	O 	0.17330 0.40410 0.12560 -0.51600
O 	O 	0.12230 0.61720 0.29510 -0.50100
O 	O 	0.15730 0.54730 0.40910 -0.54600
N 	N 	0.86650 0.76550 0.96420 -0.18000
N 	N 	0.16170 0.49870 0.25790 -0.17600
C 	C 	0.82760 0.82360 0.90690 -0.08200
C 	C 	0.84590 0.89890 0.89570 -0.00400
H 	H 	0.81730 0.93910 0.85410 0.01600
C 	C 	0.90650 0.91350 0.94690 -0.09300
H 	H 	0.92040 0.96490 0.94190 0.03100
C 	C 	0.94660 0.85300 0.00490 0.00700
H 	H 	0.98850 0.86150 0.03970 -0.00400
C 	C 	0.92530 0.77960 0.01220 -0.10500
C 	C 	0.76230 0.79890 0.85340 0.39500
C 	C 	0.96520 0.70790 0.07030 0.40000
C 	C 	0.18470 0.44540 0.23850 -0.09700
C 	C 	0.22600 0.38210 0.29300 0.01400
H 	H 	0.24450 0.34780 0.28020 -0.00000
C 	C 	0.23900 0.37140 0.36640 -0.10100
H 	H 	0.26640 0.32830 0.40480 0.02900
C 	C 	0.21220 0.42350 0.38380 0.01200
H 	H 	0.21960 0.41520 0.43300 -0.00600
C 	C 	0.17440 0.48770 0.32830 -0.09800
C 	C 	0.16270 0.45950 0.15390 0.41700
C 	C 	0.14950 0.55430 0.34650 0.40300
