data_crystal

_cell_length_a 50.81700
_cell_length_b 50.81700
_cell_length_c 50.81700
_cell_angle_alpha 90.00000
_cell_angle_beta  90.00000
_cell_angle_gamma 90.00000

_symmetry_space_group_name_	'P 1'
_symmetry_space_group_name_H-M	'P 1'

loop_
_symmetry_equiv_pos_as_xyz
  x,y,z

loop_
_atom_site_label
_atom_site_type_symbol
_atom_site_fract_x
_atom_site_fract_y
_atom_site_fract_z
_atom_site_charge
S 	S 	0.70816 0.87629 0.08698 0.10400
O 	O 	0.83434 0.87509 0.03738 -0.43300
O 	O 	0.82019 0.88822 0.07721 -0.44300
O 	O 	0.66120 0.87558 0.12008 -0.42800
C 	C 	0.81735 0.88058 0.05402 0.38500
C 	C 	0.78890 0.87794 0.04544 -0.05200
C 	C 	0.74933 0.87562 0.02015 0.00100
C 	C 	0.74223 0.87586 0.04682 -0.00300
C 	C 	0.71545 0.87559 0.05395 -0.00900
C 	C 	0.76866 0.87930 0.05944 -0.07800
H 	H 	0.77010 0.88080 0.07780 -0.00100
S 	S 	0.78204 0.87666 0.01052 0.08700
C 	C 	0.77823 0.87589 0.02214 -0.06900
H 	H 	0.78870 0.87450 0.00700 0.00500
S 	S 	0.76461 0.87696 0.07156 0.10400
C 	C 	0.69835 0.87633 0.07717 -0.04700
H 	H 	0.70620 0.87570 0.09390 -0.01600
S 	S 	0.70816 0.37629 0.58698 0.10400
O 	O 	0.83434 0.37509 0.53738 -0.43300
O 	O 	0.82019 0.38822 0.57721 -0.44300
O 	O 	0.66120 0.37558 0.62008 -0.42800
C 	C 	0.81735 0.38058 0.55402 0.38500
C 	C 	0.78890 0.37794 0.54544 -0.05200
C 	C 	0.74933 0.37562 0.52015 0.00100
C 	C 	0.74223 0.37586 0.54682 -0.00300
C 	C 	0.71545 0.37559 0.55395 -0.00900
C 	C 	0.76866 0.37930 0.55944 -0.07800
H 	H 	0.77010 0.38080 0.57780 -0.00100
S 	S 	0.78204 0.37666 0.51052 0.08700
C 	C 	0.77823 0.37589 0.52214 -0.06900
H 	H 	0.78870 0.37450 0.50700 0.00500
S 	S 	0.76461 0.37696 0.57156 0.10400
C 	C 	0.69835 0.37633 0.57717 -0.04700
H 	H 	0.70620 0.37570 0.59390 -0.01600
S 	S 	0.20816 0.87629 0.58698 0.10400
O 	O 	0.33434 0.87509 0.53738 -0.43300
O 	O 	0.32019 0.88822 0.57721 -0.44300
O 	O 	0.16120 0.87558 0.62008 -0.42800
C 	C 	0.31735 0.88058 0.55402 0.38500
C 	C 	0.28890 0.87794 0.54544 -0.05200
C 	C 	0.24933 0.87562 0.52015 0.00100
C 	C 	0.24223 0.87586 0.54682 -0.00300
C 	C 	0.21545 0.87559 0.55395 -0.00900
C 	C 	0.26866 0.87930 0.55944 -0.07800
H 	H 	0.27010 0.88080 0.57780 -0.00100
S 	S 	0.28204 0.87666 0.51052 0.08700
C 	C 	0.27823 0.87589 0.52214 -0.06900
H 	H 	0.28870 0.87450 0.50700 0.00500
S 	S 	0.26461 0.87696 0.57156 0.10400
C 	C 	0.19835 0.87633 0.57717 -0.04700
H 	H 	0.20620 0.87570 0.59390 -0.01600
S 	S 	0.20816 0.37629 0.08698 0.10400
O 	O 	0.33434 0.37509 0.03738 -0.43300
O 	O 	0.32019 0.38822 0.07721 -0.44300
O 	O 	0.16120 0.37558 0.12008 -0.42800
C 	C 	0.31735 0.38058 0.05402 0.38500
C 	C 	0.28890 0.37794 0.04544 -0.05200
C 	C 	0.24933 0.37562 0.02015 0.00100
C 	C 	0.24223 0.37586 0.04682 -0.00300
C 	C 	0.21545 0.37559 0.05395 -0.00900
C 	C 	0.26866 0.37930 0.05944 -0.07800
H 	H 	0.27010 0.38080 0.07780 -0.00100
S 	S 	0.28204 0.37666 0.01052 0.08700
C 	C 	0.27823 0.37589 0.02214 -0.06900
H 	H 	0.28870 0.37450 0.00700 0.00500
S 	S 	0.26461 0.37696 0.07156 0.10400
C 	C 	0.19835 0.37633 0.07717 -0.04700
H 	H 	0.20620 0.37570 0.09390 -0.01600
S 	S 	0.04184 0.37371 0.58698 0.10400
O 	O 	0.91566 0.37491 0.53738 -0.43300
O 	O 	0.92981 0.36178 0.57721 -0.44300
O 	O 	0.08880 0.37442 0.62008 -0.42800
C 	C 	0.93265 0.36942 0.55402 0.38500
C 	C 	0.96110 0.37206 0.54544 -0.05200
C 	C 	0.00067 0.37438 0.52015 0.00100
C 	C 	0.00777 0.37414 0.54682 -0.00300
C 	C 	0.03455 0.37441 0.55395 -0.00900
C 	C 	0.98134 0.37070 0.55944 -0.07800
H 	H 	0.97990 0.36920 0.57780 -0.00100
S 	S 	0.96796 0.37334 0.51052 0.08700
C 	C 	0.97177 0.37411 0.52214 -0.06900
H 	H 	0.96130 0.37550 0.50700 0.00500
S 	S 	0.98539 0.37304 0.57156 0.10400
C 	C 	0.05165 0.37367 0.57717 -0.04700
H 	H 	0.04380 0.37430 0.59390 -0.01600
S 	S 	0.04184 0.87371 0.08698 0.10400
O 	O 	0.91566 0.87491 0.03738 -0.43300
O 	O 	0.92981 0.86178 0.07721 -0.44300
O 	O 	0.08880 0.87442 0.12008 -0.42800
C 	C 	0.93265 0.86942 0.05402 0.38500
C 	C 	0.96110 0.87206 0.04544 -0.05200
C 	C 	0.00067 0.87438 0.02015 0.00100
C 	C 	0.00777 0.87414 0.04682 -0.00300
C 	C 	0.03455 0.87441 0.05395 -0.00900
C 	C 	0.98134 0.87070 0.05944 -0.07800
H 	H 	0.97990 0.86920 0.07780 -0.00100
S 	S 	0.96796 0.87334 0.01052 0.08600
C 	C 	0.97177 0.87411 0.02214 -0.07000
H 	H 	0.96130 0.87550 0.00700 0.00400
S 	S 	0.98539 0.87304 0.07156 0.10300
C 	C 	0.05165 0.87367 0.07717 -0.04800
H 	H 	0.04380 0.87430 0.09390 -0.01700
S 	S 	0.54184 0.37371 0.08698 0.10300
O 	O 	0.41566 0.37491 0.03738 -0.43400
O 	O 	0.42981 0.36178 0.07721 -0.44400
O 	O 	0.58880 0.37442 0.12008 -0.42900
C 	C 	0.43265 0.36942 0.05402 0.38400
C 	C 	0.46110 0.37206 0.04544 -0.05300
C 	C 	0.50067 0.37438 0.02015 -0.00000
C 	C 	0.50777 0.37414 0.04682 -0.00400
C 	C 	0.53455 0.37441 0.05395 -0.01000
C 	C 	0.48134 0.37070 0.05944 -0.07900
H 	H 	0.47990 0.36920 0.07780 -0.00200
S 	S 	0.46796 0.37334 0.01052 0.08600
C 	C 	0.47177 0.37411 0.02214 -0.07000
H 	H 	0.46130 0.37550 0.00700 0.00400
S 	S 	0.48539 0.37304 0.07156 0.10300
C 	C 	0.55165 0.37367 0.07717 -0.04800
H 	H 	0.54380 0.37430 0.09390 -0.01700
S 	S 	0.54184 0.87371 0.58698 0.10300
O 	O 	0.41566 0.87491 0.53738 -0.43400
O 	O 	0.42981 0.86178 0.57721 -0.44400
O 	O 	0.58880 0.87442 0.62008 -0.42900
C 	C 	0.43265 0.86942 0.55402 0.38400
C 	C 	0.46110 0.87206 0.54544 -0.05300
C 	C 	0.50067 0.87438 0.52015 -0.00000
C 	C 	0.50777 0.87414 0.54682 -0.00400
C 	C 	0.53455 0.87441 0.55395 -0.01000
C 	C 	0.48134 0.87070 0.55944 -0.07900
H 	H 	0.47990 0.86920 0.57780 -0.00200
S 	S 	0.46796 0.87334 0.51052 0.08600
C 	C 	0.47177 0.87411 0.52214 -0.07000
H 	H 	0.46130 0.87550 0.50700 0.00400
S 	S 	0.48539 0.87304 0.57156 0.10300
C 	C 	0.55165 0.87367 0.57717 -0.04800
H 	H 	0.54380 0.87430 0.59390 -0.01700
S 	S 	0.54184 0.37629 0.66302 0.10300
O 	O 	0.41566 0.37509 0.71262 -0.43400
O 	O 	0.42981 0.38822 0.67279 -0.44400
O 	O 	0.58880 0.37558 0.62992 -0.42900
C 	C 	0.43265 0.38058 0.69598 0.38400
C 	C 	0.46110 0.37794 0.70456 -0.05300
C 	C 	0.50067 0.37562 0.72985 -0.00000
C 	C 	0.50777 0.37586 0.70318 -0.00400
C 	C 	0.53455 0.37559 0.69605 -0.01000
C 	C 	0.48134 0.37930 0.69056 -0.07900
H 	H 	0.47990 0.38080 0.67220 -0.00200
S 	S 	0.46796 0.37666 0.73948 0.08600
C 	C 	0.47177 0.37589 0.72786 -0.07000
H 	H 	0.46130 0.37450 0.74300 0.00400
S 	S 	0.48539 0.37696 0.67844 0.10300
C 	C 	0.55165 0.37633 0.67283 -0.04800
H 	H 	0.54380 0.37570 0.65610 -0.01700
S 	S 	0.54184 0.87629 0.16302 0.10300
O 	O 	0.41566 0.87509 0.21262 -0.43400
O 	O 	0.42981 0.88822 0.17279 -0.44400
O 	O 	0.58880 0.87558 0.12992 -0.42900
C 	C 	0.43265 0.88058 0.19598 0.38400
C 	C 	0.46110 0.87794 0.20456 -0.05300
C 	C 	0.50067 0.87562 0.22985 -0.00000
C 	C 	0.50777 0.87586 0.20318 -0.00400
C 	C 	0.53455 0.87559 0.19605 -0.01000
C 	C 	0.48134 0.87930 0.19056 -0.07900
H 	H 	0.47990 0.88080 0.17220 -0.00200
S 	S 	0.46796 0.87666 0.23948 0.08600
C 	C 	0.47177 0.87589 0.22786 -0.07000
H 	H 	0.46130 0.87450 0.24300 0.00400
S 	S 	0.48539 0.87696 0.17844 0.10300
C 	C 	0.55165 0.87633 0.17283 -0.04800
H 	H 	0.54380 0.87570 0.15610 -0.01700
S 	S 	0.04184 0.37629 0.16302 0.10300
O 	O 	0.91566 0.37509 0.21262 -0.43400
O 	O 	0.92981 0.38822 0.17279 -0.44400
O 	O 	0.08880 0.37558 0.12992 -0.42900
C 	C 	0.93265 0.38058 0.19598 0.38400
C 	C 	0.96110 0.37794 0.20456 -0.05300
C 	C 	0.00067 0.37562 0.22985 -0.00000
C 	C 	0.00777 0.37586 0.20318 -0.00400
C 	C 	0.03455 0.37559 0.19605 -0.01000
C 	C 	0.98134 0.37930 0.19056 -0.07900
H 	H 	0.97990 0.38080 0.17220 -0.00200
S 	S 	0.96796 0.37666 0.23948 0.08600
C 	C 	0.97177 0.37589 0.22786 -0.07000
H 	H 	0.96130 0.37450 0.24300 0.00400
S 	S 	0.98539 0.37696 0.17844 0.10300
C 	C 	0.05165 0.37633 0.17283 -0.04800
H 	H 	0.04380 0.37570 0.15610 -0.01700
S 	S 	0.04184 0.87629 0.66302 0.10300
O 	O 	0.91566 0.87509 0.71262 -0.43400
O 	O 	0.92981 0.88822 0.67279 -0.44400
O 	O 	0.08880 0.87558 0.62992 -0.42900
C 	C 	0.93265 0.88058 0.69598 0.38400
C 	C 	0.96110 0.87794 0.70456 -0.05300
C 	C 	0.00067 0.87562 0.72985 -0.00000
C 	C 	0.00777 0.87586 0.70318 -0.00400
C 	C 	0.03455 0.87559 0.69605 -0.01000
C 	C 	0.98134 0.87930 0.69056 -0.07900
H 	H 	0.97990 0.88080 0.67220 -0.00200
S 	S 	0.96796 0.87666 0.73948 0.08600
C 	C 	0.97177 0.87589 0.72786 -0.07000
H 	H 	0.96130 0.87450 0.74300 0.00400
S 	S 	0.98539 0.87696 0.67844 0.10300
C 	C 	0.05165 0.87633 0.67283 -0.04800
H 	H 	0.04380 0.87570 0.65610 -0.01700
S 	S 	0.20816 0.87371 0.16302 0.10300
O 	O 	0.33434 0.87491 0.21262 -0.43400
O 	O 	0.32019 0.86178 0.17279 -0.44400
O 	O 	0.16120 0.87442 0.12992 -0.42900
C 	C 	0.31735 0.86942 0.19598 0.38400
C 	C 	0.28890 0.87206 0.20456 -0.05300
C 	C 	0.24933 0.87438 0.22985 -0.00000
C 	C 	0.24223 0.87414 0.20318 -0.00400
C 	C 	0.21545 0.87441 0.19605 -0.01000
C 	C 	0.26866 0.87070 0.19056 -0.07900
H 	H 	0.27010 0.86920 0.17220 -0.00200
S 	S 	0.28204 0.87334 0.23948 0.08600
C 	C 	0.27823 0.87411 0.22786 -0.07000
H 	H 	0.28870 0.87550 0.24300 0.00400
S 	S 	0.26461 0.87304 0.17844 0.10300
C 	C 	0.19835 0.87367 0.17283 -0.04800
H 	H 	0.20620 0.87430 0.15610 -0.01700
S 	S 	0.20816 0.37371 0.66302 0.10300
O 	O 	0.33434 0.37491 0.71262 -0.43400
O 	O 	0.32019 0.36178 0.67279 -0.44400
O 	O 	0.16120 0.37442 0.62992 -0.42900
C 	C 	0.31735 0.36942 0.69598 0.38400
C 	C 	0.28890 0.37206 0.70456 -0.05300
C 	C 	0.24933 0.37438 0.72985 -0.00000
C 	C 	0.24223 0.37414 0.70318 -0.00400
C 	C 	0.21545 0.37441 0.69605 -0.01000
C 	C 	0.26866 0.37070 0.69056 -0.07900
H 	H 	0.27010 0.36920 0.67220 -0.00200
S 	S 	0.28204 0.37334 0.73948 0.08600
C 	C 	0.27823 0.37411 0.72786 -0.07000
H 	H 	0.28870 0.37550 0.74300 0.00400
S 	S 	0.26461 0.37304 0.67844 0.10300
C 	C 	0.19835 0.37367 0.67283 -0.04800
H 	H 	0.20620 0.37430 0.65610 -0.01700
S 	S 	0.70816 0.87371 0.66302 0.10300
O 	O 	0.83434 0.87491 0.71262 -0.43400
O 	O 	0.82019 0.86178 0.67279 -0.44400
O 	O 	0.66120 0.87442 0.62992 -0.42900
C 	C 	0.81735 0.86942 0.69598 0.38400
C 	C 	0.78890 0.87206 0.70456 -0.05300
C 	C 	0.74933 0.87438 0.72985 -0.00000
C 	C 	0.74223 0.87414 0.70318 -0.00400
C 	C 	0.71545 0.87441 0.69605 -0.01000
C 	C 	0.76866 0.87070 0.69056 -0.07900
H 	H 	0.77010 0.86920 0.67220 -0.00200
S 	S 	0.78204 0.87334 0.73948 0.08600
C 	C 	0.77823 0.87411 0.72786 -0.07000
H 	H 	0.78870 0.87550 0.74300 0.00400
S 	S 	0.76461 0.87304 0.67844 0.10300
C 	C 	0.69835 0.87367 0.67283 -0.04800
H 	H 	0.70620 0.87430 0.65610 -0.01700
S 	S 	0.70816 0.37371 0.16302 0.10300
O 	O 	0.83434 0.37491 0.21262 -0.43400
O 	O 	0.82019 0.36178 0.17279 -0.44400
O 	O 	0.66120 0.37442 0.12992 -0.42900
C 	C 	0.81735 0.36942 0.19598 0.38400
C 	C 	0.78890 0.37206 0.20456 -0.05300
C 	C 	0.74933 0.37438 0.22985 -0.00000
C 	C 	0.74223 0.37414 0.20318 -0.00400
C 	C 	0.71545 0.37441 0.19605 -0.01000
C 	C 	0.76866 0.37070 0.19056 -0.07900
H 	H 	0.77010 0.36920 0.17220 -0.00200
S 	S 	0.78204 0.37334 0.23948 0.08600
C 	C 	0.77823 0.37411 0.22786 -0.07000
H 	H 	0.78870 0.37550 0.24300 0.00400
S 	S 	0.76461 0.37304 0.17844 0.10300
C 	C 	0.69835 0.37367 0.17283 -0.04800
H 	H 	0.70620 0.37430 0.15610 -0.01700
S 	S 	0.08698 0.70816 0.87629 0.10300
O 	O 	0.03738 0.83434 0.87509 -0.43400
O 	O 	0.07721 0.82019 0.88822 -0.44400
O 	O 	0.12008 0.66120 0.87558 -0.42900
C 	C 	0.05402 0.81735 0.88058 0.38400
C 	C 	0.04544 0.78890 0.87794 -0.05300
C 	C 	0.02015 0.74933 0.87562 -0.00000
C 	C 	0.04682 0.74223 0.87586 -0.00400
C 	C 	0.05395 0.71545 0.87559 -0.01000
C 	C 	0.05944 0.76866 0.87930 -0.07900
H 	H 	0.07780 0.77010 0.88080 -0.00200
S 	S 	0.01052 0.78204 0.87666 0.08600
C 	C 	0.02214 0.77823 0.87589 -0.07000
H 	H 	0.00700 0.78870 0.87450 0.00400
S 	S 	0.07156 0.76461 0.87696 0.10300
C 	C 	0.07717 0.69835 0.87633 -0.04800
H 	H 	0.09390 0.70620 0.87570 -0.01700
S 	S 	0.08698 0.20816 0.37629 0.10300
O 	O 	0.03738 0.33434 0.37509 -0.43400
O 	O 	0.07721 0.32019 0.38822 -0.44400
O 	O 	0.12008 0.16120 0.37558 -0.42900
C 	C 	0.05402 0.31735 0.38058 0.38400
C 	C 	0.04544 0.28890 0.37794 -0.05300
C 	C 	0.02015 0.24933 0.37562 -0.00000
C 	C 	0.04682 0.24223 0.37586 -0.00400
C 	C 	0.05395 0.21545 0.37559 -0.01000
C 	C 	0.05944 0.26866 0.37930 -0.07900
H 	H 	0.07780 0.27010 0.38080 -0.00200
S 	S 	0.01052 0.28204 0.37666 0.08600
C 	C 	0.02214 0.27823 0.37589 -0.07000
H 	H 	0.00700 0.28870 0.37450 0.00400
S 	S 	0.07156 0.26461 0.37696 0.10300
C 	C 	0.07717 0.19835 0.37633 -0.04800
H 	H 	0.09390 0.20620 0.37570 -0.01700
S 	S 	0.58698 0.70816 0.37629 0.10300
O 	O 	0.53738 0.83434 0.37509 -0.43400
O 	O 	0.57721 0.82019 0.38822 -0.44400
O 	O 	0.62008 0.66120 0.37558 -0.42900
C 	C 	0.55402 0.81735 0.38058 0.38400
C 	C 	0.54544 0.78890 0.37794 -0.05300
C 	C 	0.52015 0.74933 0.37562 -0.00000
C 	C 	0.54682 0.74223 0.37586 -0.00400
C 	C 	0.55395 0.71545 0.37559 -0.01000
C 	C 	0.55944 0.76866 0.37930 -0.07900
H 	H 	0.57780 0.77010 0.38080 -0.00200
S 	S 	0.51052 0.78204 0.37666 0.08600
C 	C 	0.52214 0.77823 0.37589 -0.07000
H 	H 	0.50700 0.78870 0.37450 0.00400
S 	S 	0.57156 0.76461 0.37696 0.10300
C 	C 	0.57717 0.69835 0.37633 -0.04800
H 	H 	0.59390 0.70620 0.37570 -0.01700
S 	S 	0.58698 0.20816 0.87629 0.10300
O 	O 	0.53738 0.33434 0.87509 -0.43400
O 	O 	0.57721 0.32019 0.88822 -0.44400
O 	O 	0.62008 0.16120 0.87558 -0.42900
C 	C 	0.55402 0.31735 0.88058 0.38400
C 	C 	0.54544 0.28890 0.87794 -0.05300
C 	C 	0.52015 0.24933 0.87562 -0.00000
C 	C 	0.54682 0.24223 0.87586 -0.00400
C 	C 	0.55395 0.21545 0.87559 -0.01000
C 	C 	0.55944 0.26866 0.87930 -0.07900
H 	H 	0.57780 0.27010 0.88080 -0.00200
S 	S 	0.51052 0.28204 0.87666 0.08600
C 	C 	0.52214 0.27823 0.87589 -0.07000
H 	H 	0.50700 0.28870 0.87450 0.00400
S 	S 	0.57156 0.26461 0.87696 0.10300
C 	C 	0.57717 0.19835 0.87633 -0.04800
H 	H 	0.59390 0.20620 0.87570 -0.01700
S 	S 	0.58698 0.04184 0.37371 0.10300
O 	O 	0.53738 0.91566 0.37491 -0.43400
O 	O 	0.57721 0.92981 0.36178 -0.44400
O 	O 	0.62008 0.08880 0.37442 -0.42900
C 	C 	0.55402 0.93265 0.36942 0.38400
C 	C 	0.54544 0.96110 0.37206 -0.05300
C 	C 	0.52015 0.00067 0.37438 -0.00000
C 	C 	0.54682 0.00777 0.37414 -0.00400
C 	C 	0.55395 0.03455 0.37441 -0.01000
C 	C 	0.55944 0.98134 0.37070 -0.07900
H 	H 	0.57780 0.97990 0.36920 -0.00200
S 	S 	0.51052 0.96796 0.37334 0.08600
C 	C 	0.52214 0.97177 0.37411 -0.07000
H 	H 	0.50700 0.96130 0.37550 0.00400
S 	S 	0.57156 0.98539 0.37304 0.10300
C 	C 	0.57717 0.05165 0.37367 -0.04800
H 	H 	0.59390 0.04380 0.37430 -0.01700
S 	S 	0.58698 0.54184 0.87371 0.10300
O 	O 	0.53738 0.41566 0.87491 -0.43400
O 	O 	0.57721 0.42981 0.86178 -0.44400
O 	O 	0.62008 0.58880 0.87442 -0.42900
C 	C 	0.55402 0.43265 0.86942 0.38400
C 	C 	0.54544 0.46110 0.87206 -0.05300
C 	C 	0.52015 0.50067 0.87438 -0.00000
C 	C 	0.54682 0.50777 0.87414 -0.00400
C 	C 	0.55395 0.53455 0.87441 -0.01000
C 	C 	0.55944 0.48134 0.87070 -0.07900
H 	H 	0.57780 0.47990 0.86920 -0.00200
S 	S 	0.51052 0.46796 0.87334 0.08600
C 	C 	0.52214 0.47177 0.87411 -0.07000
H 	H 	0.50700 0.46130 0.87550 0.00400
S 	S 	0.57156 0.48539 0.87304 0.10300
C 	C 	0.57717 0.55165 0.87367 -0.04800
H 	H 	0.59390 0.54380 0.87430 -0.01700
S 	S 	0.08698 0.04184 0.87371 0.10300
O 	O 	0.03738 0.91566 0.87491 -0.43400
O 	O 	0.07721 0.92981 0.86178 -0.44400
O 	O 	0.12008 0.08880 0.87442 -0.42900
C 	C 	0.05402 0.93265 0.86942 0.38400
C 	C 	0.04544 0.96110 0.87206 -0.05300
C 	C 	0.02015 0.00067 0.87438 -0.00000
C 	C 	0.04682 0.00777 0.87414 -0.00400
C 	C 	0.05395 0.03455 0.87441 -0.01000
C 	C 	0.05944 0.98134 0.87070 -0.07900
H 	H 	0.07780 0.97990 0.86920 -0.00200
S 	S 	0.01052 0.96796 0.87334 0.08600
C 	C 	0.02214 0.97177 0.87411 -0.07000
H 	H 	0.00700 0.96130 0.87550 0.00400
S 	S 	0.07156 0.98539 0.87304 0.10300
C 	C 	0.07717 0.05165 0.87367 -0.04800
H 	H 	0.09390 0.04380 0.87430 -0.01700
S 	S 	0.08698 0.54184 0.37371 0.10300
O 	O 	0.03738 0.41566 0.37491 -0.43400
O 	O 	0.07721 0.42981 0.36178 -0.44400
O 	O 	0.12008 0.58880 0.37442 -0.42900
C 	C 	0.05402 0.43265 0.36942 0.38400
C 	C 	0.04544 0.46110 0.37206 -0.05300
C 	C 	0.02015 0.50067 0.37438 -0.00000
C 	C 	0.04682 0.50777 0.37414 -0.00400
C 	C 	0.05395 0.53455 0.37441 -0.01000
C 	C 	0.05944 0.48134 0.37070 -0.07900
H 	H 	0.07780 0.47990 0.36920 -0.00200
S 	S 	0.01052 0.46796 0.37334 0.08600
C 	C 	0.02214 0.47177 0.37411 -0.07000
H 	H 	0.00700 0.46130 0.37550 0.00400
S 	S 	0.07156 0.48539 0.37304 0.10300
C 	C 	0.07717 0.55165 0.37367 -0.04800
H 	H 	0.09390 0.54380 0.37430 -0.01700
S 	S 	0.66302 0.54184 0.37629 0.10300
O 	O 	0.71262 0.41566 0.37509 -0.43400
O 	O 	0.67279 0.42981 0.38822 -0.44400
O 	O 	0.62992 0.58880 0.37558 -0.42900
C 	C 	0.69598 0.43265 0.38058 0.38400
C 	C 	0.70456 0.46110 0.37794 -0.05300
C 	C 	0.72985 0.50067 0.37562 -0.00000
C 	C 	0.70318 0.50777 0.37586 -0.00400
C 	C 	0.69605 0.53455 0.37559 -0.01000
C 	C 	0.69056 0.48134 0.37930 -0.07900
H 	H 	0.67220 0.47990 0.38080 -0.00200
S 	S 	0.73948 0.46796 0.37666 0.08600
C 	C 	0.72786 0.47177 0.37589 -0.07000
H 	H 	0.74300 0.46130 0.37450 0.00400
S 	S 	0.67844 0.48539 0.37696 0.10300
C 	C 	0.67283 0.55165 0.37633 -0.04800
H 	H 	0.65610 0.54380 0.37570 -0.01700
S 	S 	0.66302 0.04184 0.87629 0.10300
O 	O 	0.71262 0.91566 0.87509 -0.43400
O 	O 	0.67279 0.92981 0.88822 -0.44400
O 	O 	0.62992 0.08880 0.87558 -0.42900
C 	C 	0.69598 0.93265 0.88058 0.38400
C 	C 	0.70456 0.96110 0.87794 -0.05300
C 	C 	0.72985 0.00067 0.87562 -0.00000
C 	C 	0.70318 0.00777 0.87586 -0.00400
C 	C 	0.69605 0.03455 0.87559 -0.01000
C 	C 	0.69056 0.98134 0.87930 -0.07900
H 	H 	0.67220 0.97990 0.88080 -0.00200
S 	S 	0.73948 0.96796 0.87666 0.08600
C 	C 	0.72786 0.97177 0.87589 -0.07000
H 	H 	0.74300 0.96130 0.87450 0.00400
S 	S 	0.67844 0.98539 0.87696 0.10300
C 	C 	0.67283 0.05165 0.87633 -0.04800
H 	H 	0.65610 0.04380 0.87570 -0.01700
S 	S 	0.16302 0.54184 0.87629 0.10300
O 	O 	0.21262 0.41566 0.87509 -0.43400
O 	O 	0.17279 0.42981 0.88822 -0.44400
O 	O 	0.12992 0.58880 0.87558 -0.42900
C 	C 	0.19598 0.43265 0.88058 0.38400
C 	C 	0.20456 0.46110 0.87794 -0.05300
C 	C 	0.22985 0.50067 0.87562 -0.00000
C 	C 	0.20318 0.50777 0.87586 -0.00400
C 	C 	0.19605 0.53455 0.87559 -0.01000
C 	C 	0.19056 0.48134 0.87930 -0.07900
H 	H 	0.17220 0.47990 0.88080 -0.00200
S 	S 	0.23948 0.46796 0.87666 0.08600
C 	C 	0.22786 0.47177 0.87589 -0.07000
H 	H 	0.24300 0.46130 0.87450 0.00400
S 	S 	0.17844 0.48539 0.87696 0.10300
C 	C 	0.17283 0.55165 0.87633 -0.04800
H 	H 	0.15610 0.54380 0.87570 -0.01700
S 	S 	0.16302 0.04184 0.37629 0.10300
O 	O 	0.21262 0.91566 0.37509 -0.43400
O 	O 	0.17279 0.92981 0.38822 -0.44400
O 	O 	0.12992 0.08880 0.37558 -0.42900
C 	C 	0.19598 0.93265 0.38058 0.38400
C 	C 	0.20456 0.96110 0.37794 -0.05300
C 	C 	0.22985 0.00067 0.37562 -0.00000
C 	C 	0.20318 0.00777 0.37586 -0.00400
C 	C 	0.19605 0.03455 0.37559 -0.01000
C 	C 	0.19056 0.98134 0.37930 -0.07900
H 	H 	0.17220 0.97990 0.38080 -0.00200
S 	S 	0.23948 0.96796 0.37666 0.08600
C 	C 	0.22786 0.97177 0.37589 -0.07000
H 	H 	0.24300 0.96130 0.37450 0.00400
S 	S 	0.17844 0.98539 0.37696 0.10300
C 	C 	0.17283 0.05165 0.37633 -0.04800
H 	H 	0.15610 0.04380 0.37570 -0.01700
S 	S 	0.16302 0.20816 0.87371 0.10300
O 	O 	0.21262 0.33434 0.87491 -0.43400
O 	O 	0.17279 0.32019 0.86178 -0.44400
O 	O 	0.12992 0.16120 0.87442 -0.42900
C 	C 	0.19598 0.31735 0.86942 0.38400
C 	C 	0.20456 0.28890 0.87206 -0.05300
C 	C 	0.22985 0.24933 0.87438 -0.00000
C 	C 	0.20318 0.24223 0.87414 -0.00400
C 	C 	0.19605 0.21545 0.87441 -0.01000
C 	C 	0.19056 0.26866 0.87070 -0.07900
H 	H 	0.17220 0.27010 0.86920 -0.00200
S 	S 	0.23948 0.28204 0.87334 0.08600
C 	C 	0.22786 0.27823 0.87411 -0.07000
H 	H 	0.24300 0.28870 0.87550 0.00400
S 	S 	0.17844 0.26461 0.87304 0.10300
C 	C 	0.17283 0.19835 0.87367 -0.04800
H 	H 	0.15610 0.20620 0.87430 -0.01700
S 	S 	0.16302 0.70816 0.37371 0.10300
O 	O 	0.21262 0.83434 0.37491 -0.43400
O 	O 	0.17279 0.82019 0.36178 -0.44400
O 	O 	0.12992 0.66120 0.37442 -0.42900
C 	C 	0.19598 0.81735 0.36942 0.38400
C 	C 	0.20456 0.78890 0.37206 -0.05300
C 	C 	0.22985 0.74933 0.37438 -0.00000
C 	C 	0.20318 0.74223 0.37414 -0.00400
C 	C 	0.19605 0.71545 0.37441 -0.01000
C 	C 	0.19056 0.76866 0.37070 -0.07900
H 	H 	0.17220 0.77010 0.36920 -0.00200
S 	S 	0.23948 0.78204 0.37334 0.08600
C 	C 	0.22786 0.77823 0.37411 -0.07000
H 	H 	0.24300 0.78870 0.37550 0.00400
S 	S 	0.17844 0.76461 0.37304 0.10300
C 	C 	0.17283 0.69835 0.37367 -0.04800
H 	H 	0.15610 0.70620 0.37430 -0.01700
S 	S 	0.66302 0.20816 0.37371 0.10300
O 	O 	0.71262 0.33434 0.37491 -0.43400
O 	O 	0.67279 0.32019 0.36178 -0.44400
O 	O 	0.62992 0.16120 0.37442 -0.42900
C 	C 	0.69598 0.31735 0.36942 0.38400
C 	C 	0.70456 0.28890 0.37206 -0.05300
C 	C 	0.72985 0.24933 0.37438 -0.00000
C 	C 	0.70318 0.24223 0.37414 -0.00400
C 	C 	0.69605 0.21545 0.37441 -0.01000
C 	C 	0.69056 0.26866 0.37070 -0.07900
H 	H 	0.67220 0.27010 0.36920 -0.00200
S 	S 	0.73948 0.28204 0.37334 0.08600
C 	C 	0.72786 0.27823 0.37411 -0.07000
H 	H 	0.74300 0.28870 0.37550 0.00400
S 	S 	0.67844 0.26461 0.37304 0.10300
C 	C 	0.67283 0.19835 0.37367 -0.04800
H 	H 	0.65610 0.20620 0.37430 -0.01700
S 	S 	0.66302 0.70816 0.87371 0.10300
O 	O 	0.71262 0.83434 0.87491 -0.43400
O 	O 	0.67279 0.82019 0.86178 -0.44400
O 	O 	0.62992 0.66120 0.87442 -0.42900
C 	C 	0.69598 0.81735 0.86942 0.38400
C 	C 	0.70456 0.78890 0.87206 -0.05300
C 	C 	0.72985 0.74933 0.87438 -0.00000
C 	C 	0.70318 0.74223 0.87414 -0.00400
C 	C 	0.69605 0.71545 0.87441 -0.01000
C 	C 	0.69056 0.76866 0.87070 -0.07900
H 	H 	0.67220 0.77010 0.86920 -0.00200
S 	S 	0.73948 0.78204 0.87334 0.08600
C 	C 	0.72786 0.77823 0.87411 -0.07000
H 	H 	0.74300 0.78870 0.87550 0.00400
S 	S 	0.67844 0.76461 0.87304 0.10300
C 	C 	0.67283 0.69835 0.87367 -0.04800
H 	H 	0.65610 0.70620 0.87430 -0.01700
S 	S 	0.87629 0.08698 0.70816 0.10300
O 	O 	0.87509 0.03738 0.83434 -0.43400
O 	O 	0.88822 0.07721 0.82019 -0.44400
O 	O 	0.87558 0.12008 0.66120 -0.42900
C 	C 	0.88058 0.05402 0.81735 0.38400
C 	C 	0.87794 0.04544 0.78890 -0.05300
C 	C 	0.87562 0.02015 0.74933 -0.00000
C 	C 	0.87586 0.04682 0.74223 -0.00400
C 	C 	0.87559 0.05395 0.71545 -0.01000
C 	C 	0.87930 0.05944 0.76866 -0.07900
H 	H 	0.88080 0.07780 0.77010 -0.00200
S 	S 	0.87666 0.01052 0.78204 0.08600
C 	C 	0.87589 0.02214 0.77823 -0.07000
H 	H 	0.87450 0.00700 0.78870 0.00400
S 	S 	0.87696 0.07156 0.76461 0.10300
C 	C 	0.87633 0.07717 0.69835 -0.04800
H 	H 	0.87570 0.09390 0.70620 -0.01700
S 	S 	0.87629 0.58698 0.20816 0.10300
O 	O 	0.87509 0.53738 0.33434 -0.43400
O 	O 	0.88822 0.57721 0.32019 -0.44400
O 	O 	0.87558 0.62008 0.16120 -0.42900
C 	C 	0.88058 0.55402 0.31735 0.38400
C 	C 	0.87794 0.54544 0.28890 -0.05300
C 	C 	0.87562 0.52015 0.24933 -0.00000
C 	C 	0.87586 0.54682 0.24223 -0.00400
C 	C 	0.87559 0.55395 0.21545 -0.01000
C 	C 	0.87930 0.55944 0.26866 -0.07900
H 	H 	0.88080 0.57780 0.27010 -0.00200
S 	S 	0.87666 0.51052 0.28204 0.08600
C 	C 	0.87589 0.52214 0.27823 -0.07000
H 	H 	0.87450 0.50700 0.28870 0.00400
S 	S 	0.87696 0.57156 0.26461 0.10300
C 	C 	0.87633 0.57717 0.19835 -0.04800
H 	H 	0.87570 0.59390 0.20620 -0.01700
S 	S 	0.37629 0.08698 0.20816 0.10300
O 	O 	0.37509 0.03738 0.33434 -0.43400
O 	O 	0.38822 0.07721 0.32019 -0.44400
O 	O 	0.37558 0.12008 0.16120 -0.42900
C 	C 	0.38058 0.05402 0.31735 0.38400
C 	C 	0.37794 0.04544 0.28890 -0.05300
C 	C 	0.37562 0.02015 0.24933 -0.00000
C 	C 	0.37586 0.04682 0.24223 -0.00400
C 	C 	0.37559 0.05395 0.21545 -0.01000
C 	C 	0.37930 0.05944 0.26866 -0.07900
H 	H 	0.38080 0.07780 0.27010 -0.00200
S 	S 	0.37666 0.01052 0.28204 0.08600
C 	C 	0.37589 0.02214 0.27823 -0.07000
H 	H 	0.37450 0.00700 0.28870 0.00400
S 	S 	0.37696 0.07156 0.26461 0.10300
C 	C 	0.37633 0.07717 0.19835 -0.04800
H 	H 	0.37570 0.09390 0.20620 -0.01700
S 	S 	0.37629 0.58698 0.70816 0.10300
O 	O 	0.37509 0.53738 0.83434 -0.43400
O 	O 	0.38822 0.57721 0.82019 -0.44400
O 	O 	0.37558 0.62008 0.66120 -0.42900
C 	C 	0.38058 0.55402 0.81735 0.38400
C 	C 	0.37794 0.54544 0.78890 -0.05300
C 	C 	0.37562 0.52015 0.74933 -0.00000
C 	C 	0.37586 0.54682 0.74223 -0.00400
C 	C 	0.37559 0.55395 0.71545 -0.01000
C 	C 	0.37930 0.55944 0.76866 -0.07900
H 	H 	0.38080 0.57780 0.77010 -0.00200
S 	S 	0.37666 0.51052 0.78204 0.08600
C 	C 	0.37589 0.52214 0.77823 -0.07000
H 	H 	0.37450 0.50700 0.78870 0.00400
S 	S 	0.37696 0.57156 0.76461 0.10300
C 	C 	0.37633 0.57717 0.69835 -0.04800
H 	H 	0.37570 0.59390 0.70620 -0.01700
S 	S 	0.37371 0.58698 0.04184 0.10300
O 	O 	0.37491 0.53738 0.91566 -0.43400
O 	O 	0.36178 0.57721 0.92981 -0.44400
O 	O 	0.37442 0.62008 0.08880 -0.42900
C 	C 	0.36942 0.55402 0.93265 0.38400
C 	C 	0.37206 0.54544 0.96110 -0.05300
C 	C 	0.37438 0.52015 0.00067 -0.00000
C 	C 	0.37414 0.54682 0.00777 -0.00400
C 	C 	0.37441 0.55395 0.03455 -0.01000
C 	C 	0.37070 0.55944 0.98134 -0.07900
H 	H 	0.36920 0.57780 0.97990 -0.00200
S 	S 	0.37334 0.51052 0.96796 0.08600
C 	C 	0.37411 0.52214 0.97177 -0.07000
H 	H 	0.37550 0.50700 0.96130 0.00400
S 	S 	0.37304 0.57156 0.98539 0.10300
C 	C 	0.37367 0.57717 0.05165 -0.04800
H 	H 	0.37430 0.59390 0.04380 -0.01700
S 	S 	0.37371 0.08698 0.54184 0.10300
O 	O 	0.37491 0.03738 0.41566 -0.43400
O 	O 	0.36178 0.07721 0.42981 -0.44400
O 	O 	0.37442 0.12008 0.58880 -0.42900
C 	C 	0.36942 0.05402 0.43265 0.38400
C 	C 	0.37206 0.04544 0.46110 -0.05300
C 	C 	0.37438 0.02015 0.50067 -0.00000
C 	C 	0.37414 0.04682 0.50777 -0.00400
C 	C 	0.37441 0.05395 0.53455 -0.01000
C 	C 	0.37070 0.05944 0.48134 -0.07900
H 	H 	0.36920 0.07780 0.47990 -0.00200
S 	S 	0.37334 0.01052 0.46796 0.08600
C 	C 	0.37411 0.02214 0.47177 -0.07000
H 	H 	0.37550 0.00700 0.46130 0.00400
S 	S 	0.37304 0.07156 0.48539 0.10300
C 	C 	0.37367 0.07717 0.55165 -0.04800
H 	H 	0.37430 0.09390 0.54380 -0.01700
S 	S 	0.87371 0.58698 0.54184 0.10300
O 	O 	0.87491 0.53738 0.41566 -0.43400
O 	O 	0.86178 0.57721 0.42981 -0.44400
O 	O 	0.87442 0.62008 0.58880 -0.42900
C 	C 	0.86942 0.55402 0.43265 0.38400
C 	C 	0.87206 0.54544 0.46110 -0.05300
C 	C 	0.87438 0.52015 0.50067 -0.00000
C 	C 	0.87414 0.54682 0.50777 -0.00400
C 	C 	0.87441 0.55395 0.53455 -0.01000
C 	C 	0.87070 0.55944 0.48134 -0.07900
H 	H 	0.86920 0.57780 0.47990 -0.00200
S 	S 	0.87334 0.51052 0.46796 0.08600
C 	C 	0.87411 0.52214 0.47177 -0.07000
H 	H 	0.87550 0.50700 0.46130 0.00400
S 	S 	0.87304 0.57156 0.48539 0.10300
C 	C 	0.87367 0.57717 0.55165 -0.04800
H 	H 	0.87430 0.59390 0.54380 -0.01700
S 	S 	0.87371 0.08698 0.04184 0.10300
O 	O 	0.87491 0.03738 0.91566 -0.43400
O 	O 	0.86178 0.07721 0.92981 -0.44400
O 	O 	0.87442 0.12008 0.08880 -0.42900
C 	C 	0.86942 0.05402 0.93265 0.38400
C 	C 	0.87206 0.04544 0.96110 -0.05300
C 	C 	0.87438 0.02015 0.00067 -0.00000
C 	C 	0.87414 0.04682 0.00777 -0.00400
C 	C 	0.87441 0.05395 0.03455 -0.01000
C 	C 	0.87070 0.05944 0.98134 -0.07900
H 	H 	0.86920 0.07780 0.97990 -0.00200
S 	S 	0.87334 0.01052 0.96796 0.08600
C 	C 	0.87411 0.02214 0.97177 -0.07000
H 	H 	0.87550 0.00700 0.96130 0.00400
S 	S 	0.87304 0.07156 0.98539 0.10300
C 	C 	0.87367 0.07717 0.05165 -0.04800
H 	H 	0.87430 0.09390 0.04380 -0.01700
S 	S 	0.37629 0.66302 0.54184 0.10300
O 	O 	0.37509 0.71262 0.41566 -0.43400
O 	O 	0.38822 0.67279 0.42981 -0.44400
O 	O 	0.37558 0.62992 0.58880 -0.42900
C 	C 	0.38058 0.69598 0.43265 0.38400
C 	C 	0.37794 0.70456 0.46110 -0.05300
C 	C 	0.37562 0.72985 0.50067 -0.00000
C 	C 	0.37586 0.70318 0.50777 -0.00400
C 	C 	0.37559 0.69605 0.53455 -0.01000
C 	C 	0.37930 0.69056 0.48134 -0.07900
H 	H 	0.38080 0.67220 0.47990 -0.00200
S 	S 	0.37666 0.73948 0.46796 0.08600
C 	C 	0.37589 0.72786 0.47177 -0.07000
H 	H 	0.37450 0.74300 0.46130 0.00400
S 	S 	0.37696 0.67844 0.48539 0.10300
C 	C 	0.37633 0.67283 0.55165 -0.04800
H 	H 	0.37570 0.65610 0.54380 -0.01700
S 	S 	0.37629 0.16302 0.04184 0.10300
O 	O 	0.37509 0.21262 0.91566 -0.43400
O 	O 	0.38822 0.17279 0.92981 -0.44400
O 	O 	0.37558 0.12992 0.08880 -0.42900
C 	C 	0.38058 0.19598 0.93265 0.38400
C 	C 	0.37794 0.20456 0.96110 -0.05300
C 	C 	0.37562 0.22985 0.00067 -0.00000
C 	C 	0.37586 0.20318 0.00777 -0.00400
C 	C 	0.37559 0.19605 0.03455 -0.01000
C 	C 	0.37930 0.19056 0.98134 -0.07900
H 	H 	0.38080 0.17220 0.97990 -0.00200
S 	S 	0.37666 0.23948 0.96796 0.08600
C 	C 	0.37589 0.22786 0.97177 -0.07000
H 	H 	0.37450 0.24300 0.96130 0.00400
S 	S 	0.37696 0.17844 0.98539 0.10300
C 	C 	0.37633 0.17283 0.05165 -0.04800
H 	H 	0.37570 0.15610 0.04380 -0.01700
S 	S 	0.87629 0.66302 0.04184 0.10300
O 	O 	0.87509 0.71262 0.91566 -0.43400
O 	O 	0.88822 0.67279 0.92981 -0.44400
O 	O 	0.87558 0.62992 0.08880 -0.42900
C 	C 	0.88058 0.69598 0.93265 0.38400
C 	C 	0.87794 0.70456 0.96110 -0.05300
C 	C 	0.87562 0.72985 0.00067 -0.00000
C 	C 	0.87586 0.70318 0.00777 -0.00400
C 	C 	0.87559 0.69605 0.03455 -0.01000
C 	C 	0.87930 0.69056 0.98134 -0.07900
H 	H 	0.88080 0.67220 0.97990 -0.00200
S 	S 	0.87666 0.73948 0.96796 0.08600
C 	C 	0.87589 0.72786 0.97177 -0.07000
H 	H 	0.87450 0.74300 0.96130 0.00400
S 	S 	0.87696 0.67844 0.98539 0.10300
C 	C 	0.87633 0.67283 0.05165 -0.04800
H 	H 	0.87570 0.65610 0.04380 -0.01700
S 	S 	0.87629 0.16302 0.54184 0.10300
O 	O 	0.87509 0.21262 0.41566 -0.43400
O 	O 	0.88822 0.17279 0.42981 -0.44400
O 	O 	0.87558 0.12992 0.58880 -0.42900
C 	C 	0.88058 0.19598 0.43265 0.38400
C 	C 	0.87794 0.20456 0.46110 -0.05300
C 	C 	0.87562 0.22985 0.50067 -0.00000
C 	C 	0.87586 0.20318 0.50777 -0.00400
C 	C 	0.87559 0.19605 0.53455 -0.01000
C 	C 	0.87930 0.19056 0.48134 -0.07900
H 	H 	0.88080 0.17220 0.47990 -0.00200
S 	S 	0.87666 0.23948 0.46796 0.08600
C 	C 	0.87589 0.22786 0.47177 -0.07000
H 	H 	0.87450 0.24300 0.46130 0.00400
S 	S 	0.87696 0.17844 0.48539 0.10300
C 	C 	0.87633 0.17283 0.55165 -0.04800
H 	H 	0.87570 0.15610 0.54380 -0.01700
S 	S 	0.87371 0.16302 0.20816 0.10300
O 	O 	0.87491 0.21262 0.33434 -0.43400
O 	O 	0.86178 0.17279 0.32019 -0.44400
O 	O 	0.87442 0.12992 0.16120 -0.42900
C 	C 	0.86942 0.19598 0.31735 0.38400
C 	C 	0.87206 0.20456 0.28890 -0.05300
C 	C 	0.87438 0.22985 0.24933 -0.00000
C 	C 	0.87414 0.20318 0.24223 -0.00400
C 	C 	0.87441 0.19605 0.21545 -0.01000
C 	C 	0.87070 0.19056 0.26866 -0.07900
H 	H 	0.86920 0.17220 0.27010 -0.00200
S 	S 	0.87334 0.23948 0.28204 0.08600
C 	C 	0.87411 0.22786 0.27823 -0.07000
H 	H 	0.87550 0.24300 0.28870 0.00400
S 	S 	0.87304 0.17844 0.26461 0.10300
C 	C 	0.87367 0.17283 0.19835 -0.04800
H 	H 	0.87430 0.15610 0.20620 -0.01700
S 	S 	0.87371 0.66302 0.70816 0.10300
O 	O 	0.87491 0.71262 0.83434 -0.43400
O 	O 	0.86178 0.67279 0.82019 -0.44400
O 	O 	0.87442 0.62992 0.66120 -0.42900
C 	C 	0.86942 0.69598 0.81735 0.38400
C 	C 	0.87206 0.70456 0.78890 -0.05300
C 	C 	0.87438 0.72985 0.74933 -0.00000
C 	C 	0.87414 0.70318 0.74223 -0.00400
C 	C 	0.87441 0.69605 0.71545 -0.01000
C 	C 	0.87070 0.69056 0.76866 -0.07900
H 	H 	0.86920 0.67220 0.77010 -0.00200
S 	S 	0.87334 0.73948 0.78204 0.08600
C 	C 	0.87411 0.72786 0.77823 -0.07000
H 	H 	0.87550 0.74300 0.78870 0.00400
S 	S 	0.87304 0.67844 0.76461 0.10300
C 	C 	0.87367 0.67283 0.69835 -0.04800
H 	H 	0.87430 0.65610 0.70620 -0.01700
S 	S 	0.37371 0.16302 0.70816 0.10300
O 	O 	0.37491 0.21262 0.83434 -0.43400
O 	O 	0.36178 0.17279 0.82019 -0.44400
O 	O 	0.37442 0.12992 0.66120 -0.42900
C 	C 	0.36942 0.19598 0.81735 0.38400
C 	C 	0.37206 0.20456 0.78890 -0.05300
C 	C 	0.37438 0.22985 0.74933 -0.00000
C 	C 	0.37414 0.20318 0.74223 -0.00400
C 	C 	0.37441 0.19605 0.71545 -0.01000
C 	C 	0.37070 0.19056 0.76866 -0.07900
H 	H 	0.36920 0.17220 0.77010 -0.00200
S 	S 	0.37334 0.23948 0.78204 0.08600
C 	C 	0.37411 0.22786 0.77823 -0.07000
H 	H 	0.37550 0.24300 0.78870 0.00400
S 	S 	0.37304 0.17844 0.76461 0.10300
C 	C 	0.37367 0.17283 0.69835 -0.04800
H 	H 	0.37430 0.15610 0.70620 -0.01700
S 	S 	0.37371 0.66302 0.20816 0.10300
O 	O 	0.37491 0.71262 0.33434 -0.43400
O 	O 	0.36178 0.67279 0.32019 -0.44400
O 	O 	0.37442 0.62992 0.16120 -0.42900
C 	C 	0.36942 0.69598 0.31735 0.38400
C 	C 	0.37206 0.70456 0.28890 -0.05300
C 	C 	0.37438 0.72985 0.24933 -0.00000
C 	C 	0.37414 0.70318 0.24223 -0.00400
C 	C 	0.37441 0.69605 0.21545 -0.01000
C 	C 	0.37070 0.69056 0.26866 -0.07900
H 	H 	0.36920 0.67220 0.27010 -0.00200
S 	S 	0.37334 0.73948 0.28204 0.08600
C 	C 	0.37411 0.72786 0.27823 -0.07000
H 	H 	0.37550 0.74300 0.28870 0.00400
S 	S 	0.37304 0.67844 0.26461 0.10300
C 	C 	0.37367 0.67283 0.19835 -0.04800
H 	H 	0.37430 0.65610 0.20620 -0.01700
S 	S 	0.62629 0.95816 0.41302 0.10300
O 	O 	0.62509 0.08434 0.46262 -0.43400
O 	O 	0.63822 0.07019 0.42279 -0.44400
O 	O 	0.62558 0.91120 0.37992 -0.42900
C 	C 	0.63058 0.06735 0.44598 0.38400
C 	C 	0.62794 0.03890 0.45456 -0.05300
C 	C 	0.62562 0.99933 0.47985 -0.00000
C 	C 	0.62586 0.99223 0.45318 -0.00400
C 	C 	0.62559 0.96545 0.44605 -0.01000
C 	C 	0.62930 0.01866 0.44056 -0.07900
H 	H 	0.63080 0.02010 0.42220 -0.00200
S 	S 	0.62666 0.03204 0.48948 0.08600
C 	C 	0.62589 0.02823 0.47786 -0.07000
H 	H 	0.62450 0.03870 0.49300 0.00400
S 	S 	0.62696 0.01461 0.42844 0.10300
C 	C 	0.62633 0.94835 0.42283 -0.04800
H 	H 	0.62570 0.95620 0.40610 -0.01700
S 	S 	0.62629 0.45816 0.91302 0.10300
O 	O 	0.62509 0.58434 0.96262 -0.43400
O 	O 	0.63822 0.57019 0.92279 -0.44400
O 	O 	0.62558 0.41120 0.87992 -0.42900
C 	C 	0.63058 0.56735 0.94598 0.38400
C 	C 	0.62794 0.53890 0.95456 -0.05300
C 	C 	0.62562 0.49933 0.97985 -0.00000
C 	C 	0.62586 0.49223 0.95318 -0.00400
C 	C 	0.62559 0.46545 0.94605 -0.01000
C 	C 	0.62930 0.51866 0.94056 -0.07900
H 	H 	0.63080 0.52010 0.92220 -0.00200
S 	S 	0.62666 0.53204 0.98948 0.08600
C 	C 	0.62589 0.52823 0.97786 -0.07000
H 	H 	0.62450 0.53870 0.99300 0.00400
S 	S 	0.62696 0.51461 0.92844 0.10300
C 	C 	0.62633 0.44835 0.92283 -0.04800
H 	H 	0.62570 0.45620 0.90610 -0.01700
S 	S 	0.12629 0.95816 0.91302 0.10300
O 	O 	0.12509 0.08434 0.96262 -0.43400
O 	O 	0.13822 0.07019 0.92279 -0.44400
O 	O 	0.12558 0.91120 0.87992 -0.42900
C 	C 	0.13058 0.06735 0.94598 0.38400
C 	C 	0.12794 0.03890 0.95456 -0.05300
C 	C 	0.12562 0.99933 0.97985 -0.00000
C 	C 	0.12586 0.99223 0.95318 -0.00400
C 	C 	0.12559 0.96545 0.94605 -0.01000
C 	C 	0.12930 0.01866 0.94056 -0.07900
H 	H 	0.13080 0.02010 0.92220 -0.00200
S 	S 	0.12666 0.03204 0.98948 0.08600
C 	C 	0.12589 0.02823 0.97786 -0.07000
H 	H 	0.12450 0.03870 0.99300 0.00400
S 	S 	0.12696 0.01461 0.92844 0.10300
C 	C 	0.12633 0.94835 0.92283 -0.04800
H 	H 	0.12570 0.95620 0.90610 -0.01700
S 	S 	0.12629 0.45816 0.41302 0.10300
O 	O 	0.12509 0.58434 0.46262 -0.43400
O 	O 	0.13822 0.57019 0.42279 -0.44400
O 	O 	0.12558 0.41120 0.37992 -0.42900
C 	C 	0.13058 0.56735 0.44598 0.38400
C 	C 	0.12794 0.53890 0.45456 -0.05300
C 	C 	0.12562 0.49933 0.47985 -0.00000
C 	C 	0.12586 0.49223 0.45318 -0.00400
C 	C 	0.12559 0.46545 0.44605 -0.01000
C 	C 	0.12930 0.51866 0.44056 -0.07900
H 	H 	0.13080 0.52010 0.42220 -0.00200
S 	S 	0.12666 0.53204 0.48948 0.08600
C 	C 	0.12589 0.52823 0.47786 -0.07000
H 	H 	0.12450 0.53870 0.49300 0.00400
S 	S 	0.12696 0.51461 0.42844 0.10300
C 	C 	0.12633 0.44835 0.42283 -0.04800
H 	H 	0.12570 0.45620 0.40610 -0.01700
S 	S 	0.12371 0.29184 0.91302 0.10300
O 	O 	0.12491 0.16566 0.96262 -0.43400
O 	O 	0.11178 0.17981 0.92279 -0.44400
O 	O 	0.12442 0.33880 0.87992 -0.42900
C 	C 	0.11942 0.18265 0.94598 0.38400
C 	C 	0.12206 0.21110 0.95456 -0.05300
C 	C 	0.12438 0.25067 0.97985 -0.00000
C 	C 	0.12414 0.25777 0.95318 -0.00400
C 	C 	0.12441 0.28455 0.94605 -0.01000
C 	C 	0.12070 0.23134 0.94056 -0.07900
H 	H 	0.11920 0.22990 0.92220 -0.00200
S 	S 	0.12334 0.21796 0.98948 0.08600
C 	C 	0.12411 0.22177 0.97786 -0.07000
H 	H 	0.12550 0.21130 0.99300 0.00400
S 	S 	0.12304 0.23539 0.92844 0.10300
C 	C 	0.12367 0.30165 0.92283 -0.04800
H 	H 	0.12430 0.29380 0.90610 -0.01700
S 	S 	0.12371 0.79184 0.41302 0.10300
O 	O 	0.12491 0.66566 0.46262 -0.43400
O 	O 	0.11178 0.67981 0.42279 -0.44400
O 	O 	0.12442 0.83880 0.37992 -0.42900
C 	C 	0.11942 0.68265 0.44598 0.38400
C 	C 	0.12206 0.71110 0.45456 -0.05300
C 	C 	0.12438 0.75067 0.47985 -0.00000
C 	C 	0.12414 0.75777 0.45318 -0.00400
C 	C 	0.12441 0.78455 0.44605 -0.01000
C 	C 	0.12070 0.73134 0.44056 -0.07900
H 	H 	0.11920 0.72990 0.42220 -0.00200
S 	S 	0.12334 0.71796 0.48948 0.08600
C 	C 	0.12411 0.72177 0.47786 -0.07000
H 	H 	0.12550 0.71130 0.49300 0.00400
S 	S 	0.12304 0.73539 0.42844 0.10300
C 	C 	0.12367 0.80165 0.42283 -0.04800
H 	H 	0.12430 0.79380 0.40610 -0.01700
S 	S 	0.62371 0.29184 0.41302 0.10300
O 	O 	0.62491 0.16566 0.46262 -0.43400
O 	O 	0.61178 0.17981 0.42279 -0.44400
O 	O 	0.62442 0.33880 0.37992 -0.42900
C 	C 	0.61942 0.18265 0.44598 0.38400
C 	C 	0.62206 0.21110 0.45456 -0.05300
C 	C 	0.62438 0.25067 0.47985 -0.00000
C 	C 	0.62414 0.25777 0.45318 -0.00400
C 	C 	0.62441 0.28455 0.44605 -0.01000
C 	C 	0.62070 0.23134 0.44056 -0.07900
H 	H 	0.61920 0.22990 0.42220 -0.00200
S 	S 	0.62334 0.21796 0.48948 0.08600
C 	C 	0.62411 0.22177 0.47786 -0.07000
H 	H 	0.62550 0.21130 0.49300 0.00400
S 	S 	0.62304 0.23539 0.42844 0.10300
C 	C 	0.62367 0.30165 0.42283 -0.04800
H 	H 	0.62430 0.29380 0.40610 -0.01700
S 	S 	0.62371 0.79184 0.91302 0.10300
O 	O 	0.62491 0.66566 0.96262 -0.43400
O 	O 	0.61178 0.67981 0.92279 -0.44400
O 	O 	0.62442 0.83880 0.87992 -0.42900
C 	C 	0.61942 0.68265 0.94598 0.38400
C 	C 	0.62206 0.71110 0.95456 -0.05300
C 	C 	0.62438 0.75067 0.97985 -0.00000
C 	C 	0.62414 0.75777 0.95318 -0.00400
C 	C 	0.62441 0.78455 0.94605 -0.01000
C 	C 	0.62070 0.73134 0.94056 -0.07900
H 	H 	0.61920 0.72990 0.92220 -0.00200
S 	S 	0.62334 0.71796 0.98948 0.08600
C 	C 	0.62411 0.72177 0.97786 -0.07000
H 	H 	0.62550 0.71130 0.99300 0.00400
S 	S 	0.62304 0.73539 0.92844 0.10300
C 	C 	0.62367 0.80165 0.92283 -0.04800
H 	H 	0.62430 0.79380 0.90610 -0.01700
S 	S 	0.12629 0.79184 0.83698 0.10300
O 	O 	0.12509 0.66566 0.78738 -0.43400
O 	O 	0.13822 0.67981 0.82721 -0.44400
O 	O 	0.12558 0.83880 0.87008 -0.42900
C 	C 	0.13058 0.68265 0.80402 0.38400
C 	C 	0.12794 0.71110 0.79544 -0.05300
C 	C 	0.12562 0.75067 0.77015 -0.00000
C 	C 	0.12586 0.75777 0.79682 -0.00400
C 	C 	0.12559 0.78455 0.80395 -0.01000
C 	C 	0.12930 0.73134 0.80944 -0.07900
H 	H 	0.13080 0.72990 0.82780 -0.00200
S 	S 	0.12666 0.71796 0.76052 0.08600
C 	C 	0.12589 0.72177 0.77214 -0.07000
H 	H 	0.12450 0.71130 0.75700 0.00400
S 	S 	0.12696 0.73539 0.82156 0.10300
C 	C 	0.12633 0.80165 0.82717 -0.04800
H 	H 	0.12570 0.79380 0.84390 -0.01700
S 	S 	0.12629 0.29184 0.33698 0.10300
O 	O 	0.12509 0.16566 0.28738 -0.43400
O 	O 	0.13822 0.17981 0.32721 -0.44400
O 	O 	0.12558 0.33880 0.37008 -0.42900
C 	C 	0.13058 0.18265 0.30402 0.38400
C 	C 	0.12794 0.21110 0.29544 -0.05300
C 	C 	0.12562 0.25067 0.27015 -0.00000
C 	C 	0.12586 0.25777 0.29682 -0.00400
C 	C 	0.12559 0.28455 0.30395 -0.01000
C 	C 	0.12930 0.23134 0.30944 -0.07900
H 	H 	0.13080 0.22990 0.32780 -0.00200
S 	S 	0.12666 0.21796 0.26052 0.08600
C 	C 	0.12589 0.22177 0.27214 -0.07000
H 	H 	0.12450 0.21130 0.25700 0.00400
S 	S 	0.12696 0.23539 0.32156 0.10300
C 	C 	0.12633 0.30165 0.32717 -0.04800
H 	H 	0.12570 0.29380 0.34390 -0.01700
S 	S 	0.62629 0.79184 0.33698 0.10300
O 	O 	0.62509 0.66566 0.28738 -0.43400
O 	O 	0.63822 0.67981 0.32721 -0.44400
O 	O 	0.62558 0.83880 0.37008 -0.42900
C 	C 	0.63058 0.68265 0.30402 0.38400
C 	C 	0.62794 0.71110 0.29544 -0.05300
C 	C 	0.62562 0.75067 0.27015 -0.00000
C 	C 	0.62586 0.75777 0.29682 -0.00400
C 	C 	0.62559 0.78455 0.30395 -0.01000
C 	C 	0.62930 0.73134 0.30944 -0.07900
H 	H 	0.63080 0.72990 0.32780 -0.00200
S 	S 	0.62666 0.71796 0.26052 0.08600
C 	C 	0.62589 0.72177 0.27214 -0.07000
H 	H 	0.62450 0.71130 0.25700 0.00400
S 	S 	0.62696 0.73539 0.32156 0.10300
C 	C 	0.62633 0.80165 0.32717 -0.04800
H 	H 	0.62570 0.79380 0.34390 -0.01700
S 	S 	0.62629 0.29184 0.83698 0.10300
O 	O 	0.62509 0.16566 0.78738 -0.43400
O 	O 	0.63822 0.17981 0.82721 -0.44400
O 	O 	0.62558 0.33880 0.87008 -0.42900
C 	C 	0.63058 0.18265 0.80402 0.38400
C 	C 	0.62794 0.21110 0.79544 -0.05300
C 	C 	0.62562 0.25067 0.77015 -0.00000
C 	C 	0.62586 0.25777 0.79682 -0.00400
C 	C 	0.62559 0.28455 0.80395 -0.01000
C 	C 	0.62930 0.23134 0.80944 -0.07900
H 	H 	0.63080 0.22990 0.82780 -0.00200
S 	S 	0.62666 0.21796 0.76052 0.08600
C 	C 	0.62589 0.22177 0.77214 -0.07000
H 	H 	0.62450 0.21130 0.75700 0.00400
S 	S 	0.62696 0.23539 0.82156 0.10300
C 	C 	0.62633 0.30165 0.82717 -0.04800
H 	H 	0.62570 0.29380 0.84390 -0.01700
S 	S 	0.62371 0.45816 0.33698 0.10300
O 	O 	0.62491 0.58434 0.28738 -0.43400
O 	O 	0.61178 0.57019 0.32721 -0.44400
O 	O 	0.62442 0.41120 0.37008 -0.42900
C 	C 	0.61942 0.56735 0.30402 0.38400
C 	C 	0.62206 0.53890 0.29544 -0.05300
C 	C 	0.62438 0.49933 0.27015 -0.00000
C 	C 	0.62414 0.49223 0.29682 -0.00400
C 	C 	0.62441 0.46545 0.30395 -0.01000
C 	C 	0.62070 0.51866 0.30944 -0.07900
H 	H 	0.61920 0.52010 0.32780 -0.00200
S 	S 	0.62334 0.53204 0.26052 0.08600
C 	C 	0.62411 0.52823 0.27214 -0.07000
H 	H 	0.62550 0.53870 0.25700 0.00400
S 	S 	0.62304 0.51461 0.32156 0.10300
C 	C 	0.62367 0.44835 0.32717 -0.04800
H 	H 	0.62430 0.45620 0.34390 -0.01700
S 	S 	0.62371 0.95816 0.83698 0.10300
O 	O 	0.62491 0.08434 0.78738 -0.43400
O 	O 	0.61178 0.07019 0.82721 -0.44400
O 	O 	0.62442 0.91120 0.87008 -0.42900
C 	C 	0.61942 0.06735 0.80402 0.38400
C 	C 	0.62206 0.03890 0.79544 -0.05300
C 	C 	0.62438 0.99933 0.77015 -0.00000
C 	C 	0.62414 0.99223 0.79682 -0.00400
C 	C 	0.62441 0.96545 0.80395 -0.01000
C 	C 	0.62070 0.01866 0.80944 -0.07900
H 	H 	0.61920 0.02010 0.82780 -0.00200
S 	S 	0.62334 0.03204 0.76052 0.08600
C 	C 	0.62411 0.02823 0.77214 -0.07000
H 	H 	0.62550 0.03870 0.75700 0.00400
S 	S 	0.62304 0.01461 0.82156 0.10300
C 	C 	0.62367 0.94835 0.82717 -0.04800
H 	H 	0.62430 0.95620 0.84390 -0.01700
S 	S 	0.12371 0.45816 0.83698 0.10300
O 	O 	0.12491 0.58434 0.78738 -0.43400
O 	O 	0.11178 0.57019 0.82721 -0.44400
O 	O 	0.12442 0.41120 0.87008 -0.42900
C 	C 	0.11942 0.56735 0.80402 0.38400
C 	C 	0.12206 0.53890 0.79544 -0.05300
C 	C 	0.12438 0.49933 0.77015 -0.00000
C 	C 	0.12414 0.49223 0.79682 -0.00400
C 	C 	0.12441 0.46545 0.80395 -0.01000
C 	C 	0.12070 0.51866 0.80944 -0.07900
H 	H 	0.11920 0.52010 0.82780 -0.00200
S 	S 	0.12334 0.53204 0.76052 0.08600
C 	C 	0.12411 0.52823 0.77214 -0.07000
H 	H 	0.12550 0.53870 0.75700 0.00400
S 	S 	0.12304 0.51461 0.82156 0.10300
C 	C 	0.12367 0.44835 0.82717 -0.04800
H 	H 	0.12430 0.45620 0.84390 -0.01700
S 	S 	0.12371 0.95816 0.33698 0.10300
O 	O 	0.12491 0.08434 0.28738 -0.43400
O 	O 	0.11178 0.07019 0.32721 -0.44400
O 	O 	0.12442 0.91120 0.37008 -0.42900
C 	C 	0.11942 0.06735 0.30402 0.38400
C 	C 	0.12206 0.03890 0.29544 -0.05300
C 	C 	0.12438 0.99933 0.27015 -0.00000
C 	C 	0.12414 0.99223 0.29682 -0.00400
C 	C 	0.12441 0.96545 0.30395 -0.01000
C 	C 	0.12070 0.01866 0.30944 -0.07900
H 	H 	0.11920 0.02010 0.32780 -0.00200
S 	S 	0.12334 0.03204 0.26052 0.08600
C 	C 	0.12411 0.02823 0.27214 -0.07000
H 	H 	0.12550 0.03870 0.25700 0.00400
S 	S 	0.12304 0.01461 0.32156 0.10300
C 	C 	0.12367 0.94835 0.32717 -0.04800
H 	H 	0.12430 0.95620 0.34390 -0.01700
S 	S 	0.45816 0.33698 0.62371 0.10300
O 	O 	0.58434 0.28738 0.62491 -0.43400
O 	O 	0.57019 0.32721 0.61178 -0.44400
O 	O 	0.41120 0.37008 0.62442 -0.42900
C 	C 	0.56735 0.30402 0.61942 0.38400
C 	C 	0.53890 0.29544 0.62206 -0.05300
C 	C 	0.49933 0.27015 0.62438 -0.00000
C 	C 	0.49223 0.29682 0.62414 -0.00400
C 	C 	0.46545 0.30395 0.62441 -0.01000
C 	C 	0.51866 0.30944 0.62070 -0.07900
H 	H 	0.52010 0.32780 0.61920 -0.00200
S 	S 	0.53204 0.26052 0.62334 0.08600
C 	C 	0.52823 0.27214 0.62411 -0.07000
H 	H 	0.53870 0.25700 0.62550 0.00400
S 	S 	0.51461 0.32156 0.62304 0.10300
C 	C 	0.44835 0.32717 0.62367 -0.04800
H 	H 	0.45620 0.34390 0.62430 -0.01700
S 	S 	0.45816 0.83698 0.12371 0.10300
O 	O 	0.58434 0.78738 0.12491 -0.43400
O 	O 	0.57019 0.82721 0.11178 -0.44400
O 	O 	0.41120 0.87008 0.12442 -0.42900
C 	C 	0.56735 0.80402 0.11942 0.38400
C 	C 	0.53890 0.79544 0.12206 -0.05300
C 	C 	0.49933 0.77015 0.12438 -0.00000
C 	C 	0.49223 0.79682 0.12414 -0.00400
C 	C 	0.46545 0.80395 0.12441 -0.01000
C 	C 	0.51866 0.80944 0.12070 -0.07900
H 	H 	0.52010 0.82780 0.11920 -0.00200
S 	S 	0.53204 0.76052 0.12334 0.08600
C 	C 	0.52823 0.77214 0.12411 -0.07000
H 	H 	0.53870 0.75700 0.12550 0.00400
S 	S 	0.51461 0.82156 0.12304 0.10300
C 	C 	0.44835 0.82717 0.12367 -0.04800
H 	H 	0.45620 0.84390 0.12430 -0.01700
S 	S 	0.95816 0.33698 0.12371 0.10300
O 	O 	0.08434 0.28738 0.12491 -0.43400
O 	O 	0.07019 0.32721 0.11178 -0.44400
O 	O 	0.91120 0.37008 0.12442 -0.42900
C 	C 	0.06735 0.30402 0.11942 0.38400
C 	C 	0.03890 0.29544 0.12206 -0.05300
C 	C 	0.99933 0.27015 0.12438 -0.00000
C 	C 	0.99223 0.29682 0.12414 -0.00400
C 	C 	0.96545 0.30395 0.12441 -0.01000
C 	C 	0.01866 0.30944 0.12070 -0.07900
H 	H 	0.02010 0.32780 0.11920 -0.00200
S 	S 	0.03204 0.26052 0.12334 0.08600
C 	C 	0.02823 0.27214 0.12411 -0.07000
H 	H 	0.03870 0.25700 0.12550 0.00400
S 	S 	0.01461 0.32156 0.12304 0.10300
C 	C 	0.94835 0.32717 0.12367 -0.04800
H 	H 	0.95620 0.34390 0.12430 -0.01700
S 	S 	0.95816 0.83698 0.62371 0.10300
O 	O 	0.08434 0.78738 0.62491 -0.43400
O 	O 	0.07019 0.82721 0.61178 -0.44400
O 	O 	0.91120 0.87008 0.62442 -0.42900
C 	C 	0.06735 0.80402 0.61942 0.38400
C 	C 	0.03890 0.79544 0.62206 -0.05300
C 	C 	0.99933 0.77015 0.62438 -0.00000
C 	C 	0.99223 0.79682 0.62414 -0.00400
C 	C 	0.96545 0.80395 0.62441 -0.01000
C 	C 	0.01866 0.80944 0.62070 -0.07900
H 	H 	0.02010 0.82780 0.61920 -0.00200
S 	S 	0.03204 0.76052 0.62334 0.08600
C 	C 	0.02823 0.77214 0.62411 -0.07000
H 	H 	0.03870 0.75700 0.62550 0.00400
S 	S 	0.01461 0.82156 0.62304 0.10300
C 	C 	0.94835 0.82717 0.62367 -0.04800
H 	H 	0.95620 0.84390 0.62430 -0.01700
S 	S 	0.79184 0.83698 0.12629 0.10300
O 	O 	0.66566 0.78738 0.12509 -0.43400
O 	O 	0.67981 0.82721 0.13822 -0.44400
O 	O 	0.83880 0.87008 0.12558 -0.42900
C 	C 	0.68265 0.80402 0.13058 0.38400
C 	C 	0.71110 0.79544 0.12794 -0.05300
C 	C 	0.75067 0.77015 0.12562 -0.00000
C 	C 	0.75777 0.79682 0.12586 -0.00400
C 	C 	0.78455 0.80395 0.12559 -0.01000
C 	C 	0.73134 0.80944 0.12930 -0.07900
H 	H 	0.72990 0.82780 0.13080 -0.00200
S 	S 	0.71796 0.76052 0.12666 0.08600
C 	C 	0.72177 0.77214 0.12589 -0.07000
H 	H 	0.71130 0.75700 0.12450 0.00400
S 	S 	0.73539 0.82156 0.12696 0.10300
C 	C 	0.80165 0.82717 0.12633 -0.04800
H 	H 	0.79380 0.84390 0.12570 -0.01700
S 	S 	0.79184 0.33698 0.62629 0.10300
O 	O 	0.66566 0.28738 0.62509 -0.43400
O 	O 	0.67981 0.32721 0.63822 -0.44400
O 	O 	0.83880 0.37008 0.62558 -0.42900
C 	C 	0.68265 0.30402 0.63058 0.38400
C 	C 	0.71110 0.29544 0.62794 -0.05300
C 	C 	0.75067 0.27015 0.62562 -0.00000
C 	C 	0.75777 0.29682 0.62586 -0.00400
C 	C 	0.78455 0.30395 0.62559 -0.01000
C 	C 	0.73134 0.30944 0.62930 -0.07900
H 	H 	0.72990 0.32780 0.63080 -0.00200
S 	S 	0.71796 0.26052 0.62666 0.08600
C 	C 	0.72177 0.27214 0.62589 -0.07000
H 	H 	0.71130 0.25700 0.62450 0.00400
S 	S 	0.73539 0.32156 0.62696 0.10300
C 	C 	0.80165 0.32717 0.62633 -0.04800
H 	H 	0.79380 0.34390 0.62570 -0.01700
S 	S 	0.29184 0.83698 0.62629 0.10300
O 	O 	0.16566 0.78738 0.62509 -0.43400
O 	O 	0.17981 0.82721 0.63822 -0.44400
O 	O 	0.33880 0.87008 0.62558 -0.42900
C 	C 	0.18265 0.80402 0.63058 0.38400
C 	C 	0.21110 0.79544 0.62794 -0.05300
C 	C 	0.25067 0.77015 0.62562 -0.00000
C 	C 	0.25777 0.79682 0.62586 -0.00400
C 	C 	0.28455 0.80395 0.62559 -0.01000
C 	C 	0.23134 0.80944 0.62930 -0.07900
H 	H 	0.22990 0.82780 0.63080 -0.00200
S 	S 	0.21796 0.76052 0.62666 0.08600
C 	C 	0.22177 0.77214 0.62589 -0.07000
H 	H 	0.21130 0.75700 0.62450 0.00400
S 	S 	0.23539 0.82156 0.62696 0.10300
C 	C 	0.30165 0.82717 0.62633 -0.04800
H 	H 	0.29380 0.84390 0.62570 -0.01700
S 	S 	0.29184 0.33698 0.12629 0.10300
O 	O 	0.16566 0.28738 0.12509 -0.43400
O 	O 	0.17981 0.32721 0.13822 -0.44400
O 	O 	0.33880 0.37008 0.12558 -0.42900
C 	C 	0.18265 0.30402 0.13058 0.38400
C 	C 	0.21110 0.29544 0.12794 -0.05300
C 	C 	0.25067 0.27015 0.12562 -0.00000
C 	C 	0.25777 0.29682 0.12586 -0.00400
C 	C 	0.28455 0.30395 0.12559 -0.01000
C 	C 	0.23134 0.30944 0.12930 -0.07900
H 	H 	0.22990 0.32780 0.13080 -0.00200
S 	S 	0.21796 0.26052 0.12666 0.08600
C 	C 	0.22177 0.27214 0.12589 -0.07000
H 	H 	0.21130 0.25700 0.12450 0.00400
S 	S 	0.23539 0.32156 0.12696 0.10300
C 	C 	0.30165 0.32717 0.12633 -0.04800
H 	H 	0.29380 0.34390 0.12570 -0.01700
S 	S 	0.29184 0.91302 0.12371 0.10300
O 	O 	0.16566 0.96262 0.12491 -0.43400
O 	O 	0.17981 0.92279 0.11178 -0.44400
O 	O 	0.33880 0.87992 0.12442 -0.42900
C 	C 	0.18265 0.94598 0.11942 0.38400
C 	C 	0.21110 0.95456 0.12206 -0.05300
C 	C 	0.25067 0.97985 0.12438 -0.00000
C 	C 	0.25777 0.95318 0.12414 -0.00400
C 	C 	0.28455 0.94605 0.12441 -0.01000
C 	C 	0.23134 0.94056 0.12070 -0.07900
H 	H 	0.22990 0.92220 0.11920 -0.00200
S 	S 	0.21796 0.98948 0.12334 0.08600
C 	C 	0.22177 0.97786 0.12411 -0.07000
H 	H 	0.21130 0.99300 0.12550 0.00400
S 	S 	0.23539 0.92844 0.12304 0.10300
C 	C 	0.30165 0.92283 0.12367 -0.04800
H 	H 	0.29380 0.90610 0.12430 -0.01700
S 	S 	0.29184 0.41302 0.62371 0.10300
O 	O 	0.16566 0.46262 0.62491 -0.43400
O 	O 	0.17981 0.42279 0.61178 -0.44400
O 	O 	0.33880 0.37992 0.62442 -0.42900
C 	C 	0.18265 0.44598 0.61942 0.38400
C 	C 	0.21110 0.45456 0.62206 -0.05300
C 	C 	0.25067 0.47985 0.62438 -0.00000
C 	C 	0.25777 0.45318 0.62414 -0.00400
C 	C 	0.28455 0.44605 0.62441 -0.01000
C 	C 	0.23134 0.44056 0.62070 -0.07900
H 	H 	0.22990 0.42220 0.61920 -0.00200
S 	S 	0.21796 0.48948 0.62334 0.08600
C 	C 	0.22177 0.47786 0.62411 -0.07000
H 	H 	0.21130 0.49300 0.62550 0.00400
S 	S 	0.23539 0.42844 0.62304 0.10300
C 	C 	0.30165 0.42283 0.62367 -0.04800
H 	H 	0.29380 0.40610 0.62430 -0.01700
S 	S 	0.79184 0.91302 0.62371 0.10300
O 	O 	0.66566 0.96262 0.62491 -0.43400
O 	O 	0.67981 0.92279 0.61178 -0.44400
O 	O 	0.83880 0.87992 0.62442 -0.42900
C 	C 	0.68265 0.94598 0.61942 0.38400
C 	C 	0.71110 0.95456 0.62206 -0.05300
C 	C 	0.75067 0.97985 0.62438 -0.00000
C 	C 	0.75777 0.95318 0.62414 -0.00400
C 	C 	0.78455 0.94605 0.62441 -0.01000
C 	C 	0.73134 0.94056 0.62070 -0.07900
H 	H 	0.72990 0.92220 0.61920 -0.00200
S 	S 	0.71796 0.98948 0.62334 0.08600
C 	C 	0.72177 0.97786 0.62411 -0.07000
H 	H 	0.71130 0.99300 0.62550 0.00400
S 	S 	0.73539 0.92844 0.62304 0.10300
C 	C 	0.80165 0.92283 0.62367 -0.04800
H 	H 	0.79380 0.90610 0.62430 -0.01700
S 	S 	0.79184 0.41302 0.12371 0.10300
O 	O 	0.66566 0.46262 0.12491 -0.43400
O 	O 	0.67981 0.42279 0.11178 -0.44400
O 	O 	0.83880 0.37992 0.12442 -0.42900
C 	C 	0.68265 0.44598 0.11942 0.38400
C 	C 	0.71110 0.45456 0.12206 -0.05300
C 	C 	0.75067 0.47985 0.12438 -0.00000
C 	C 	0.75777 0.45318 0.12414 -0.00400
C 	C 	0.78455 0.44605 0.12441 -0.01000
C 	C 	0.73134 0.44056 0.12070 -0.07900
H 	H 	0.72990 0.42220 0.11920 -0.00200
S 	S 	0.71796 0.48948 0.12334 0.08600
C 	C 	0.72177 0.47786 0.12411 -0.07000
H 	H 	0.71130 0.49300 0.12550 0.00400
S 	S 	0.73539 0.42844 0.12304 0.10300
C 	C 	0.80165 0.42283 0.12367 -0.04800
H 	H 	0.79380 0.40610 0.12430 -0.01700
S 	S 	0.95816 0.41302 0.62629 0.10300
O 	O 	0.08434 0.46262 0.62509 -0.43400
O 	O 	0.07019 0.42279 0.63822 -0.44400
O 	O 	0.91120 0.37992 0.62558 -0.42900
C 	C 	0.06735 0.44598 0.63058 0.38400
C 	C 	0.03890 0.45456 0.62794 -0.05300
C 	C 	0.99933 0.47985 0.62562 -0.00000
C 	C 	0.99223 0.45318 0.62586 -0.00400
C 	C 	0.96545 0.44605 0.62559 -0.01000
C 	C 	0.01866 0.44056 0.62930 -0.07900
H 	H 	0.02010 0.42220 0.63080 -0.00200
S 	S 	0.03204 0.48948 0.62666 0.08600
C 	C 	0.02823 0.47786 0.62589 -0.07000
H 	H 	0.03870 0.49300 0.62450 0.00400
S 	S 	0.01461 0.42844 0.62696 0.10300
C 	C 	0.94835 0.42283 0.62633 -0.04800
H 	H 	0.95620 0.40610 0.62570 -0.01700
S 	S 	0.95816 0.91302 0.12629 0.10300
O 	O 	0.08434 0.96262 0.12509 -0.43400
O 	O 	0.07019 0.92279 0.13822 -0.44400
O 	O 	0.91120 0.87992 0.12558 -0.42900
C 	C 	0.06735 0.94598 0.13058 0.38400
C 	C 	0.03890 0.95456 0.12794 -0.05300
C 	C 	0.99933 0.97985 0.12562 -0.00000
C 	C 	0.99223 0.95318 0.12586 -0.00400
C 	C 	0.96545 0.94605 0.12559 -0.01000
C 	C 	0.01866 0.94056 0.12930 -0.07900
H 	H 	0.02010 0.92220 0.13080 -0.00200
S 	S 	0.03204 0.98948 0.12666 0.08600
C 	C 	0.02823 0.97786 0.12589 -0.07000
H 	H 	0.03870 0.99300 0.12450 0.00400
S 	S 	0.01461 0.92844 0.12696 0.10300
C 	C 	0.94835 0.92283 0.12633 -0.04800
H 	H 	0.95620 0.90610 0.12570 -0.01700
S 	S 	0.45816 0.41302 0.12629 0.10300
O 	O 	0.58434 0.46262 0.12509 -0.43400
O 	O 	0.57019 0.42279 0.13822 -0.44400
O 	O 	0.41120 0.37992 0.12558 -0.42900
C 	C 	0.56735 0.44598 0.13058 0.38400
C 	C 	0.53890 0.45456 0.12794 -0.05300
C 	C 	0.49933 0.47985 0.12562 -0.00000
C 	C 	0.49223 0.45318 0.12586 -0.00400
C 	C 	0.46545 0.44605 0.12559 -0.01000
C 	C 	0.51866 0.44056 0.12930 -0.07900
H 	H 	0.52010 0.42220 0.13080 -0.00200
S 	S 	0.53204 0.48948 0.12666 0.08600
C 	C 	0.52823 0.47786 0.12589 -0.07000
H 	H 	0.53870 0.49300 0.12450 0.00400
S 	S 	0.51461 0.42844 0.12696 0.10300
C 	C 	0.44835 0.42283 0.12633 -0.04800
H 	H 	0.45620 0.40610 0.12570 -0.01700
S 	S 	0.45816 0.91302 0.62629 0.10300
O 	O 	0.58434 0.96262 0.62509 -0.43400
O 	O 	0.57019 0.92279 0.63822 -0.44400
O 	O 	0.41120 0.87992 0.62558 -0.42900
C 	C 	0.56735 0.94598 0.63058 0.38400
C 	C 	0.53890 0.95456 0.62794 -0.05300
C 	C 	0.49933 0.97985 0.62562 -0.00000
C 	C 	0.49223 0.95318 0.62586 -0.00400
C 	C 	0.46545 0.94605 0.62559 -0.01000
C 	C 	0.51866 0.94056 0.62930 -0.07900
H 	H 	0.52010 0.92220 0.63080 -0.00200
S 	S 	0.53204 0.98948 0.62666 0.08600
C 	C 	0.52823 0.97786 0.62589 -0.07000
H 	H 	0.53870 0.99300 0.62450 0.00400
S 	S 	0.51461 0.92844 0.62696 0.10300
C 	C 	0.44835 0.92283 0.62633 -0.04800
H 	H 	0.45620 0.90610 0.62570 -0.01700
S 	S 	0.83698 0.12629 0.79184 0.10300
O 	O 	0.78738 0.12509 0.66566 -0.43400
O 	O 	0.82721 0.13822 0.67981 -0.44400
O 	O 	0.87008 0.12558 0.83880 -0.42900
C 	C 	0.80402 0.13058 0.68265 0.38400
C 	C 	0.79544 0.12794 0.71110 -0.05300
C 	C 	0.77015 0.12562 0.75067 -0.00000
C 	C 	0.79682 0.12586 0.75777 -0.00400
C 	C 	0.80395 0.12559 0.78455 -0.01000
C 	C 	0.80944 0.12930 0.73134 -0.07900
H 	H 	0.82780 0.13080 0.72990 -0.00200
S 	S 	0.76052 0.12666 0.71796 0.08600
C 	C 	0.77214 0.12589 0.72177 -0.07000
H 	H 	0.75700 0.12450 0.71130 0.00400
S 	S 	0.82156 0.12696 0.73539 0.10300
C 	C 	0.82717 0.12633 0.80165 -0.04800
H 	H 	0.84390 0.12570 0.79380 -0.01700
S 	S 	0.83698 0.62629 0.29184 0.10300
O 	O 	0.78738 0.62509 0.16566 -0.43400
O 	O 	0.82721 0.63822 0.17981 -0.44400
O 	O 	0.87008 0.62558 0.33880 -0.42900
C 	C 	0.80402 0.63058 0.18265 0.38400
C 	C 	0.79544 0.62794 0.21110 -0.05300
C 	C 	0.77015 0.62562 0.25067 -0.00000
C 	C 	0.79682 0.62586 0.25777 -0.00400
C 	C 	0.80395 0.62559 0.28455 -0.01000
C 	C 	0.80944 0.62930 0.23134 -0.07900
H 	H 	0.82780 0.63080 0.22990 -0.00200
S 	S 	0.76052 0.62666 0.21796 0.08600
C 	C 	0.77214 0.62589 0.22177 -0.07000
H 	H 	0.75700 0.62450 0.21130 0.00400
S 	S 	0.82156 0.62696 0.23539 0.10300
C 	C 	0.82717 0.62633 0.30165 -0.04800
H 	H 	0.84390 0.62570 0.29380 -0.01700
S 	S 	0.33698 0.12629 0.29184 0.10300
O 	O 	0.28738 0.12509 0.16566 -0.43400
O 	O 	0.32721 0.13822 0.17981 -0.44400
O 	O 	0.37008 0.12558 0.33880 -0.42900
C 	C 	0.30402 0.13058 0.18265 0.38400
C 	C 	0.29544 0.12794 0.21110 -0.05300
C 	C 	0.27015 0.12562 0.25067 -0.00000
C 	C 	0.29682 0.12586 0.25777 -0.00400
C 	C 	0.30395 0.12559 0.28455 -0.01000
C 	C 	0.30944 0.12930 0.23134 -0.07900
H 	H 	0.32780 0.13080 0.22990 -0.00200
S 	S 	0.26052 0.12666 0.21796 0.08600
C 	C 	0.27214 0.12589 0.22177 -0.07000
H 	H 	0.25700 0.12450 0.21130 0.00400
S 	S 	0.32156 0.12696 0.23539 0.10300
C 	C 	0.32717 0.12633 0.30165 -0.04800
H 	H 	0.34390 0.12570 0.29380 -0.01700
S 	S 	0.33698 0.62629 0.79184 0.10300
O 	O 	0.28738 0.62509 0.66566 -0.43400
O 	O 	0.32721 0.63822 0.67981 -0.44400
O 	O 	0.37008 0.62558 0.83880 -0.42900
C 	C 	0.30402 0.63058 0.68265 0.38400
C 	C 	0.29544 0.62794 0.71110 -0.05300
C 	C 	0.27015 0.62562 0.75067 -0.00000
C 	C 	0.29682 0.62586 0.75777 -0.00400
C 	C 	0.30395 0.62559 0.78455 -0.01000
C 	C 	0.30944 0.62930 0.73134 -0.07900
H 	H 	0.32780 0.63080 0.72990 -0.00200
S 	S 	0.26052 0.62666 0.71796 0.08600
C 	C 	0.27214 0.62589 0.72177 -0.07000
H 	H 	0.25700 0.62450 0.71130 0.00400
S 	S 	0.32156 0.62696 0.73539 0.10300
C 	C 	0.32717 0.62633 0.80165 -0.04800
H 	H 	0.34390 0.62570 0.79380 -0.01700
S 	S 	0.33698 0.62371 0.45816 0.10300
O 	O 	0.28738 0.62491 0.58434 -0.43400
O 	O 	0.32721 0.61178 0.57019 -0.44400
O 	O 	0.37008 0.62442 0.41120 -0.42900
C 	C 	0.30402 0.61942 0.56735 0.38400
C 	C 	0.29544 0.62206 0.53890 -0.05300
C 	C 	0.27015 0.62438 0.49933 -0.00000
C 	C 	0.29682 0.62414 0.49223 -0.00400
C 	C 	0.30395 0.62441 0.46545 -0.01000
C 	C 	0.30944 0.62070 0.51866 -0.07900
H 	H 	0.32780 0.61920 0.52010 -0.00200
S 	S 	0.26052 0.62334 0.53204 0.08600
C 	C 	0.27214 0.62411 0.52823 -0.07000
H 	H 	0.25700 0.62550 0.53870 0.00400
S 	S 	0.32156 0.62304 0.51461 0.10300
C 	C 	0.32717 0.62367 0.44835 -0.04800
H 	H 	0.34390 0.62430 0.45620 -0.01700
S 	S 	0.33698 0.12371 0.95816 0.10300
O 	O 	0.28738 0.12491 0.08434 -0.43400
O 	O 	0.32721 0.11178 0.07019 -0.44400
O 	O 	0.37008 0.12442 0.91120 -0.42900
C 	C 	0.30402 0.11942 0.06735 0.38400
C 	C 	0.29544 0.12206 0.03890 -0.05300
C 	C 	0.27015 0.12438 0.99933 -0.00000
C 	C 	0.29682 0.12414 0.99223 -0.00400
C 	C 	0.30395 0.12441 0.96545 -0.01000
C 	C 	0.30944 0.12070 0.01866 -0.07900
H 	H 	0.32780 0.11920 0.02010 -0.00200
S 	S 	0.26052 0.12334 0.03204 0.08600
C 	C 	0.27214 0.12411 0.02823 -0.07000
H 	H 	0.25700 0.12550 0.03870 0.00400
S 	S 	0.32156 0.12304 0.01461 0.10300
C 	C 	0.32717 0.12367 0.94835 -0.04800
H 	H 	0.34390 0.12430 0.95620 -0.01700
S 	S 	0.83698 0.62371 0.95816 0.10300
O 	O 	0.78738 0.62491 0.08434 -0.43400
O 	O 	0.82721 0.61178 0.07019 -0.44400
O 	O 	0.87008 0.62442 0.91120 -0.42900
C 	C 	0.80402 0.61942 0.06735 0.38400
C 	C 	0.79544 0.62206 0.03890 -0.05300
C 	C 	0.77015 0.62438 0.99933 -0.00000
C 	C 	0.79682 0.62414 0.99223 -0.00400
C 	C 	0.80395 0.62441 0.96545 -0.01000
C 	C 	0.80944 0.62070 0.01866 -0.07900
H 	H 	0.82780 0.61920 0.02010 -0.00200
S 	S 	0.76052 0.62334 0.03204 0.08600
C 	C 	0.77214 0.62411 0.02823 -0.07000
H 	H 	0.75700 0.62550 0.03870 0.00400
S 	S 	0.82156 0.62304 0.01461 0.10300
C 	C 	0.82717 0.62367 0.94835 -0.04800
H 	H 	0.84390 0.62430 0.95620 -0.01700
S 	S 	0.83698 0.12371 0.45816 0.10300
O 	O 	0.78738 0.12491 0.58434 -0.43400
O 	O 	0.82721 0.11178 0.57019 -0.44400
O 	O 	0.87008 0.12442 0.41120 -0.42900
C 	C 	0.80402 0.11942 0.56735 0.38400
C 	C 	0.79544 0.12206 0.53890 -0.05300
C 	C 	0.77015 0.12438 0.49933 -0.00000
C 	C 	0.79682 0.12414 0.49223 -0.00400
C 	C 	0.80395 0.12441 0.46545 -0.01000
C 	C 	0.80944 0.12070 0.51866 -0.07900
H 	H 	0.82780 0.11920 0.52010 -0.00200
S 	S 	0.76052 0.12334 0.53204 0.08600
C 	C 	0.77214 0.12411 0.52823 -0.07000
H 	H 	0.75700 0.12550 0.53870 0.00400
S 	S 	0.82156 0.12304 0.51461 0.10300
C 	C 	0.82717 0.12367 0.44835 -0.04800
H 	H 	0.84390 0.12430 0.45620 -0.01700
S 	S 	0.41302 0.62629 0.95816 0.10300
O 	O 	0.46262 0.62509 0.08434 -0.43400
O 	O 	0.42279 0.63822 0.07019 -0.44400
O 	O 	0.37992 0.62558 0.91120 -0.42900
C 	C 	0.44598 0.63058 0.06735 0.38400
C 	C 	0.45456 0.62794 0.03890 -0.05300
C 	C 	0.47985 0.62562 0.99933 -0.00000
C 	C 	0.45318 0.62586 0.99223 -0.00400
C 	C 	0.44605 0.62559 0.96545 -0.01000
C 	C 	0.44056 0.62930 0.01866 -0.07900
H 	H 	0.42220 0.63080 0.02010 -0.00200
S 	S 	0.48948 0.62666 0.03204 0.08600
C 	C 	0.47786 0.62589 0.02823 -0.07000
H 	H 	0.49300 0.62450 0.03870 0.00400
S 	S 	0.42844 0.62696 0.01461 0.10300
C 	C 	0.42283 0.62633 0.94835 -0.04800
H 	H 	0.40610 0.62570 0.95620 -0.01700
S 	S 	0.41302 0.12629 0.45816 0.10300
O 	O 	0.46262 0.12509 0.58434 -0.43400
O 	O 	0.42279 0.13822 0.57019 -0.44400
O 	O 	0.37992 0.12558 0.41120 -0.42900
C 	C 	0.44598 0.13058 0.56735 0.38400
C 	C 	0.45456 0.12794 0.53890 -0.05300
C 	C 	0.47985 0.12562 0.49933 -0.00000
C 	C 	0.45318 0.12586 0.49223 -0.00400
C 	C 	0.44605 0.12559 0.46545 -0.01000
C 	C 	0.44056 0.12930 0.51866 -0.07900
H 	H 	0.42220 0.13080 0.52010 -0.00200
S 	S 	0.48948 0.12666 0.53204 0.08600
C 	C 	0.47786 0.12589 0.52823 -0.07000
H 	H 	0.49300 0.12450 0.53870 0.00400
S 	S 	0.42844 0.12696 0.51461 0.10300
C 	C 	0.42283 0.12633 0.44835 -0.04800
H 	H 	0.40610 0.12570 0.45620 -0.01700
S 	S 	0.91302 0.62629 0.45816 0.10300
O 	O 	0.96262 0.62509 0.58434 -0.43400
O 	O 	0.92279 0.63822 0.57019 -0.44400
O 	O 	0.87992 0.62558 0.41120 -0.42900
C 	C 	0.94598 0.63058 0.56735 0.38400
C 	C 	0.95456 0.62794 0.53890 -0.05300
C 	C 	0.97985 0.62562 0.49933 -0.00000
C 	C 	0.95318 0.62586 0.49223 -0.00400
C 	C 	0.94605 0.62559 0.46545 -0.01000
C 	C 	0.94056 0.62930 0.51866 -0.07900
H 	H 	0.92220 0.63080 0.52010 -0.00200
S 	S 	0.98948 0.62666 0.53204 0.08600
C 	C 	0.97786 0.62589 0.52823 -0.07000
H 	H 	0.99300 0.62450 0.53870 0.00400
S 	S 	0.92844 0.62696 0.51461 0.10300
C 	C 	0.92283 0.62633 0.44835 -0.04800
H 	H 	0.90610 0.62570 0.45620 -0.01700
S 	S 	0.91302 0.12629 0.95816 0.10300
O 	O 	0.96262 0.12509 0.08434 -0.43400
O 	O 	0.92279 0.13822 0.07019 -0.44400
O 	O 	0.87992 0.12558 0.91120 -0.42900
C 	C 	0.94598 0.13058 0.06735 0.38400
C 	C 	0.95456 0.12794 0.03890 -0.05300
C 	C 	0.97985 0.12562 0.99933 -0.00000
C 	C 	0.95318 0.12586 0.99223 -0.00400
C 	C 	0.94605 0.12559 0.96545 -0.01000
C 	C 	0.94056 0.12930 0.01866 -0.07900
H 	H 	0.92220 0.13080 0.02010 -0.00200
S 	S 	0.98948 0.12666 0.03204 0.08600
C 	C 	0.97786 0.12589 0.02823 -0.07000
H 	H 	0.99300 0.12450 0.03870 0.00400
S 	S 	0.92844 0.12696 0.01461 0.10300
C 	C 	0.92283 0.12633 0.94835 -0.04800
H 	H 	0.90610 0.12570 0.95620 -0.01700
S 	S 	0.91302 0.12371 0.29184 0.10300
O 	O 	0.96262 0.12491 0.16566 -0.43400
O 	O 	0.92279 0.11178 0.17981 -0.44400
O 	O 	0.87992 0.12442 0.33880 -0.42900
C 	C 	0.94598 0.11942 0.18265 0.38400
C 	C 	0.95456 0.12206 0.21110 -0.05300
C 	C 	0.97985 0.12438 0.25067 -0.00000
C 	C 	0.95318 0.12414 0.25777 -0.00400
C 	C 	0.94605 0.12441 0.28455 -0.01000
C 	C 	0.94056 0.12070 0.23134 -0.07900
H 	H 	0.92220 0.11920 0.22990 -0.00200
S 	S 	0.98948 0.12334 0.21796 0.08600
C 	C 	0.97786 0.12411 0.22177 -0.07000
H 	H 	0.99300 0.12550 0.21130 0.00400
S 	S 	0.92844 0.12304 0.23539 0.10300
C 	C 	0.92283 0.12367 0.30165 -0.04800
H 	H 	0.90610 0.12430 0.29380 -0.01700
S 	S 	0.91302 0.62371 0.79184 0.10300
O 	O 	0.96262 0.62491 0.66566 -0.43400
O 	O 	0.92279 0.61178 0.67981 -0.44400
O 	O 	0.87992 0.62442 0.83880 -0.42900
C 	C 	0.94598 0.61942 0.68265 0.38400
C 	C 	0.95456 0.62206 0.71110 -0.05300
C 	C 	0.97985 0.62438 0.75067 -0.00000
C 	C 	0.95318 0.62414 0.75777 -0.00400
C 	C 	0.94605 0.62441 0.78455 -0.01000
C 	C 	0.94056 0.62070 0.73134 -0.07900
H 	H 	0.92220 0.61920 0.72990 -0.00200
S 	S 	0.98948 0.62334 0.71796 0.08600
C 	C 	0.97786 0.62411 0.72177 -0.07000
H 	H 	0.99300 0.62550 0.71130 0.00400
S 	S 	0.92844 0.62304 0.73539 0.10300
C 	C 	0.92283 0.62367 0.80165 -0.04800
H 	H 	0.90610 0.62430 0.79380 -0.01700
S 	S 	0.41302 0.12371 0.79184 0.10300
O 	O 	0.46262 0.12491 0.66566 -0.43400
O 	O 	0.42279 0.11178 0.67981 -0.44400
O 	O 	0.37992 0.12442 0.83880 -0.42900
C 	C 	0.44598 0.11942 0.68265 0.38400
C 	C 	0.45456 0.12206 0.71110 -0.05300
C 	C 	0.47985 0.12438 0.75067 -0.00000
C 	C 	0.45318 0.12414 0.75777 -0.00400
C 	C 	0.44605 0.12441 0.78455 -0.01000
C 	C 	0.44056 0.12070 0.73134 -0.07900
H 	H 	0.42220 0.11920 0.72990 -0.00200
S 	S 	0.48948 0.12334 0.71796 0.08600
C 	C 	0.47786 0.12411 0.72177 -0.07000
H 	H 	0.49300 0.12550 0.71130 0.00400
S 	S 	0.42844 0.12304 0.73539 0.10300
C 	C 	0.42283 0.12367 0.80165 -0.04800
H 	H 	0.40610 0.12430 0.79380 -0.01700
S 	S 	0.41302 0.62371 0.29184 0.10300
O 	O 	0.46262 0.62491 0.16566 -0.43400
O 	O 	0.42279 0.61178 0.17981 -0.44400
O 	O 	0.37992 0.62442 0.33880 -0.42900
C 	C 	0.44598 0.61942 0.18265 0.38400
C 	C 	0.45456 0.62206 0.21110 -0.05300
C 	C 	0.47985 0.62438 0.25067 -0.00000
C 	C 	0.45318 0.62414 0.25777 -0.00400
C 	C 	0.44605 0.62441 0.28455 -0.01000
C 	C 	0.44056 0.62070 0.23134 -0.07900
H 	H 	0.42220 0.61920 0.22990 -0.00200
S 	S 	0.48948 0.62334 0.21796 0.08600
C 	C 	0.47786 0.62411 0.22177 -0.07000
H 	H 	0.49300 0.62550 0.21130 0.00400
S 	S 	0.42844 0.62304 0.23539 0.10300
C 	C 	0.42283 0.62367 0.30165 -0.04800
H 	H 	0.40610 0.62430 0.29380 -0.01700
S 	S 	0.29184 0.12371 0.91302 0.10300
O 	O 	0.16566 0.12491 0.96262 -0.43400
O 	O 	0.17981 0.11178 0.92279 -0.44400
O 	O 	0.33880 0.12442 0.87992 -0.42900
C 	C 	0.18265 0.11942 0.94598 0.38400
C 	C 	0.21110 0.12206 0.95456 -0.05300
C 	C 	0.25067 0.12438 0.97985 -0.00000
C 	C 	0.25777 0.12414 0.95318 -0.00400
C 	C 	0.28455 0.12441 0.94605 -0.01000
C 	C 	0.23134 0.12070 0.94056 -0.07900
H 	H 	0.22990 0.11920 0.92220 -0.00200
S 	S 	0.21796 0.12334 0.98948 0.08600
C 	C 	0.22177 0.12411 0.97786 -0.07000
H 	H 	0.21130 0.12550 0.99300 0.00400
S 	S 	0.23539 0.12304 0.92844 0.10300
C 	C 	0.30165 0.12367 0.92283 -0.04800
H 	H 	0.29380 0.12430 0.90610 -0.01700
S 	S 	0.29184 0.62371 0.41302 0.10300
O 	O 	0.16566 0.62491 0.46262 -0.43400
O 	O 	0.17981 0.61178 0.42279 -0.44400
O 	O 	0.33880 0.62442 0.37992 -0.42900
C 	C 	0.18265 0.61942 0.44598 0.38400
C 	C 	0.21110 0.62206 0.45456 -0.05300
C 	C 	0.25067 0.62438 0.47985 -0.00000
C 	C 	0.25777 0.62414 0.45318 -0.00400
C 	C 	0.28455 0.62441 0.44605 -0.01000
C 	C 	0.23134 0.62070 0.44056 -0.07900
H 	H 	0.22990 0.61920 0.42220 -0.00200
S 	S 	0.21796 0.62334 0.48948 0.08600
C 	C 	0.22177 0.62411 0.47786 -0.07000
H 	H 	0.21130 0.62550 0.49300 0.00400
S 	S 	0.23539 0.62304 0.42844 0.10300
C 	C 	0.30165 0.62367 0.42283 -0.04800
H 	H 	0.29380 0.62430 0.40610 -0.01700
S 	S 	0.79184 0.12371 0.41302 0.10300
O 	O 	0.66566 0.12491 0.46262 -0.43400
O 	O 	0.67981 0.11178 0.42279 -0.44400
O 	O 	0.83880 0.12442 0.37992 -0.42900
C 	C 	0.68265 0.11942 0.44598 0.38400
C 	C 	0.71110 0.12206 0.45456 -0.05300
C 	C 	0.75067 0.12438 0.47985 -0.00000
C 	C 	0.75777 0.12414 0.45318 -0.00400
C 	C 	0.78455 0.12441 0.44605 -0.01000
C 	C 	0.73134 0.12070 0.44056 -0.07900
H 	H 	0.72990 0.11920 0.42220 -0.00200
S 	S 	0.71796 0.12334 0.48948 0.08600
C 	C 	0.72177 0.12411 0.47786 -0.07000
H 	H 	0.71130 0.12550 0.49300 0.00400
S 	S 	0.73539 0.12304 0.42844 0.10300
C 	C 	0.80165 0.12367 0.42283 -0.04800
H 	H 	0.79380 0.12430 0.40610 -0.01700
S 	S 	0.79184 0.62371 0.91302 0.10300
O 	O 	0.66566 0.62491 0.96262 -0.43400
O 	O 	0.67981 0.61178 0.92279 -0.44400
O 	O 	0.83880 0.62442 0.87992 -0.42900
C 	C 	0.68265 0.61942 0.94598 0.38400
C 	C 	0.71110 0.62206 0.95456 -0.05300
C 	C 	0.75067 0.62438 0.97985 -0.00000
C 	C 	0.75777 0.62414 0.95318 -0.00400
C 	C 	0.78455 0.62441 0.94605 -0.01000
C 	C 	0.73134 0.62070 0.94056 -0.07900
H 	H 	0.72990 0.61920 0.92220 -0.00200
S 	S 	0.71796 0.62334 0.98948 0.08600
C 	C 	0.72177 0.62411 0.97786 -0.07000
H 	H 	0.71130 0.62550 0.99300 0.00400
S 	S 	0.73539 0.62304 0.92844 0.10300
C 	C 	0.80165 0.62367 0.92283 -0.04800
H 	H 	0.79380 0.62430 0.90610 -0.01700
S 	S 	0.95816 0.62629 0.41302 0.10300
O 	O 	0.08434 0.62509 0.46262 -0.43400
O 	O 	0.07019 0.63822 0.42279 -0.44400
O 	O 	0.91120 0.62558 0.37992 -0.42900
C 	C 	0.06735 0.63058 0.44598 0.38400
C 	C 	0.03890 0.62794 0.45456 -0.05300
C 	C 	0.99933 0.62562 0.47985 -0.00000
C 	C 	0.99223 0.62586 0.45318 -0.00400
C 	C 	0.96545 0.62559 0.44605 -0.01000
C 	C 	0.01866 0.62930 0.44056 -0.07900
H 	H 	0.02010 0.63080 0.42220 -0.00200
S 	S 	0.03204 0.62666 0.48948 0.08600
C 	C 	0.02823 0.62589 0.47786 -0.07000
H 	H 	0.03870 0.62450 0.49300 0.00400
S 	S 	0.01461 0.62696 0.42844 0.10300
C 	C 	0.94835 0.62633 0.42283 -0.04800
H 	H 	0.95620 0.62570 0.40610 -0.01700
S 	S 	0.95816 0.12629 0.91302 0.10300
O 	O 	0.08434 0.12509 0.96262 -0.43400
O 	O 	0.07019 0.13822 0.92279 -0.44400
O 	O 	0.91120 0.12558 0.87992 -0.42900
C 	C 	0.06735 0.13058 0.94598 0.38400
C 	C 	0.03890 0.12794 0.95456 -0.05300
C 	C 	0.99933 0.12562 0.97985 -0.00000
C 	C 	0.99223 0.12586 0.95318 -0.00400
C 	C 	0.96545 0.12559 0.94605 -0.01000
C 	C 	0.01866 0.12930 0.94056 -0.07900
H 	H 	0.02010 0.13080 0.92220 -0.00200
S 	S 	0.03204 0.12666 0.98948 0.08600
C 	C 	0.02823 0.12589 0.97786 -0.07000
H 	H 	0.03870 0.12450 0.99300 0.00400
S 	S 	0.01461 0.12696 0.92844 0.10300
C 	C 	0.94835 0.12633 0.92283 -0.04800
H 	H 	0.95620 0.12570 0.90610 -0.01700
S 	S 	0.45816 0.62629 0.91302 0.10300
O 	O 	0.58434 0.62509 0.96262 -0.43400
O 	O 	0.57019 0.63822 0.92279 -0.44400
O 	O 	0.41120 0.62558 0.87992 -0.42900
C 	C 	0.56735 0.63058 0.94598 0.38400
C 	C 	0.53890 0.62794 0.95456 -0.05300
C 	C 	0.49933 0.62562 0.97985 -0.00000
C 	C 	0.49223 0.62586 0.95318 -0.00400
C 	C 	0.46545 0.62559 0.94605 -0.01000
C 	C 	0.51866 0.62930 0.94056 -0.07900
H 	H 	0.52010 0.63080 0.92220 -0.00200
S 	S 	0.53204 0.62666 0.98948 0.08600
C 	C 	0.52823 0.62589 0.97786 -0.07000
H 	H 	0.53870 0.62450 0.99300 0.00400
S 	S 	0.51461 0.62696 0.92844 0.10300
C 	C 	0.44835 0.62633 0.92283 -0.04800
H 	H 	0.45620 0.62570 0.90610 -0.01700
S 	S 	0.45816 0.12629 0.41302 0.10300
O 	O 	0.58434 0.12509 0.46262 -0.43400
O 	O 	0.57019 0.13822 0.42279 -0.44400
O 	O 	0.41120 0.12558 0.37992 -0.42900
C 	C 	0.56735 0.13058 0.44598 0.38400
C 	C 	0.53890 0.12794 0.45456 -0.05300
C 	C 	0.49933 0.12562 0.47985 -0.00000
C 	C 	0.49223 0.12586 0.45318 -0.00400
C 	C 	0.46545 0.12559 0.44605 -0.01000
C 	C 	0.51866 0.12930 0.44056 -0.07900
H 	H 	0.52010 0.13080 0.42220 -0.00200
S 	S 	0.53204 0.12666 0.48948 0.08600
C 	C 	0.52823 0.12589 0.47786 -0.07000
H 	H 	0.53870 0.12450 0.49300 0.00400
S 	S 	0.51461 0.12696 0.42844 0.10300
C 	C 	0.44835 0.12633 0.42283 -0.04800
H 	H 	0.45620 0.12570 0.40610 -0.01700
S 	S 	0.45816 0.62371 0.33698 0.10300
O 	O 	0.58434 0.62491 0.28738 -0.43400
O 	O 	0.57019 0.61178 0.32721 -0.44400
O 	O 	0.41120 0.62442 0.37008 -0.42900
C 	C 	0.56735 0.61942 0.30402 0.38400
C 	C 	0.53890 0.62206 0.29544 -0.05300
C 	C 	0.49933 0.62438 0.27015 -0.00000
C 	C 	0.49223 0.62414 0.29682 -0.00400
C 	C 	0.46545 0.62441 0.30395 -0.01000
C 	C 	0.51866 0.62070 0.30944 -0.07900
H 	H 	0.52010 0.61920 0.32780 -0.00200
S 	S 	0.53204 0.62334 0.26052 0.08600
C 	C 	0.52823 0.62411 0.27214 -0.07000
H 	H 	0.53870 0.62550 0.25700 0.00400
S 	S 	0.51461 0.62304 0.32156 0.10300
C 	C 	0.44835 0.62367 0.32717 -0.04800
H 	H 	0.45620 0.62430 0.34390 -0.01700
S 	S 	0.45816 0.12371 0.83698 0.10300
O 	O 	0.58434 0.12491 0.78738 -0.43400
O 	O 	0.57019 0.11178 0.82721 -0.44400
O 	O 	0.41120 0.12442 0.87008 -0.42900
C 	C 	0.56735 0.11942 0.80402 0.38400
C 	C 	0.53890 0.12206 0.79544 -0.05300
C 	C 	0.49933 0.12438 0.77015 -0.00000
C 	C 	0.49223 0.12414 0.79682 -0.00400
C 	C 	0.46545 0.12441 0.80395 -0.01000
C 	C 	0.51866 0.12070 0.80944 -0.07900
H 	H 	0.52010 0.11920 0.82780 -0.00200
S 	S 	0.53204 0.12334 0.76052 0.08600
C 	C 	0.52823 0.12411 0.77214 -0.07000
H 	H 	0.53870 0.12550 0.75700 0.00400
S 	S 	0.51461 0.12304 0.82156 0.10300
C 	C 	0.44835 0.12367 0.82717 -0.04800
H 	H 	0.45620 0.12430 0.84390 -0.01700
S 	S 	0.95816 0.62371 0.83698 0.10300
O 	O 	0.08434 0.62491 0.78738 -0.43400
O 	O 	0.07019 0.61178 0.82721 -0.44400
O 	O 	0.91120 0.62442 0.87008 -0.42900
C 	C 	0.06735 0.61942 0.80402 0.38400
C 	C 	0.03890 0.62206 0.79544 -0.05300
C 	C 	0.99933 0.62438 0.77015 -0.00000
C 	C 	0.99223 0.62414 0.79682 -0.00400
C 	C 	0.96545 0.62441 0.80395 -0.01000
C 	C 	0.01866 0.62070 0.80944 -0.07900
H 	H 	0.02010 0.61920 0.82780 -0.00200
S 	S 	0.03204 0.62334 0.76052 0.08600
C 	C 	0.02823 0.62411 0.77214 -0.07000
H 	H 	0.03870 0.62550 0.75700 0.00400
S 	S 	0.01461 0.62304 0.82156 0.10300
C 	C 	0.94835 0.62367 0.82717 -0.04800
H 	H 	0.95620 0.62430 0.84390 -0.01700
S 	S 	0.95816 0.12371 0.33698 0.10300
O 	O 	0.08434 0.12491 0.28738 -0.43400
O 	O 	0.07019 0.11178 0.32721 -0.44400
O 	O 	0.91120 0.12442 0.37008 -0.42900
C 	C 	0.06735 0.11942 0.30402 0.38400
C 	C 	0.03890 0.12206 0.29544 -0.05300
C 	C 	0.99933 0.12438 0.27015 -0.00000
C 	C 	0.99223 0.12414 0.29682 -0.00400
C 	C 	0.96545 0.12441 0.30395 -0.01000
C 	C 	0.01866 0.12070 0.30944 -0.07900
H 	H 	0.02010 0.11920 0.32780 -0.00200
S 	S 	0.03204 0.12334 0.26052 0.08600
C 	C 	0.02823 0.12411 0.27214 -0.07000
H 	H 	0.03870 0.12550 0.25700 0.00400
S 	S 	0.01461 0.12304 0.32156 0.10300
C 	C 	0.94835 0.12367 0.32717 -0.04800
H 	H 	0.95620 0.12430 0.34390 -0.01700
S 	S 	0.79184 0.12629 0.83698 0.10300
O 	O 	0.66566 0.12509 0.78738 -0.43400
O 	O 	0.67981 0.13822 0.82721 -0.44400
O 	O 	0.83880 0.12558 0.87008 -0.42900
C 	C 	0.68265 0.13058 0.80402 0.38400
C 	C 	0.71110 0.12794 0.79544 -0.05300
C 	C 	0.75067 0.12562 0.77015 -0.00000
C 	C 	0.75777 0.12586 0.79682 -0.00400
C 	C 	0.78455 0.12559 0.80395 -0.01000
C 	C 	0.73134 0.12930 0.80944 -0.07900
H 	H 	0.72990 0.13080 0.82780 -0.00200
S 	S 	0.71796 0.12666 0.76052 0.08600
C 	C 	0.72177 0.12589 0.77214 -0.07000
H 	H 	0.71130 0.12450 0.75700 0.00400
S 	S 	0.73539 0.12696 0.82156 0.10300
C 	C 	0.80165 0.12633 0.82717 -0.04800
H 	H 	0.79380 0.12570 0.84390 -0.01700
S 	S 	0.79184 0.62629 0.33698 0.10300
O 	O 	0.66566 0.62509 0.28738 -0.43400
O 	O 	0.67981 0.63822 0.32721 -0.44400
O 	O 	0.83880 0.62558 0.37008 -0.42900
C 	C 	0.68265 0.63058 0.30402 0.38400
C 	C 	0.71110 0.62794 0.29544 -0.05300
C 	C 	0.75067 0.62562 0.27015 -0.00000
C 	C 	0.75777 0.62586 0.29682 -0.00400
C 	C 	0.78455 0.62559 0.30395 -0.01000
C 	C 	0.73134 0.62930 0.30944 -0.07900
H 	H 	0.72990 0.63080 0.32780 -0.00200
S 	S 	0.71796 0.62666 0.26052 0.08600
C 	C 	0.72177 0.62589 0.27214 -0.07000
H 	H 	0.71130 0.62450 0.25700 0.00400
S 	S 	0.73539 0.62696 0.32156 0.10300
C 	C 	0.80165 0.62633 0.32717 -0.04800
H 	H 	0.79380 0.62570 0.34390 -0.01700
S 	S 	0.29184 0.12629 0.33698 0.10300
O 	O 	0.16566 0.12509 0.28738 -0.43400
O 	O 	0.17981 0.13822 0.32721 -0.44400
O 	O 	0.33880 0.12558 0.37008 -0.42900
C 	C 	0.18265 0.13058 0.30402 0.38400
C 	C 	0.21110 0.12794 0.29544 -0.05300
C 	C 	0.25067 0.12562 0.27015 -0.00000
C 	C 	0.25777 0.12586 0.29682 -0.00400
C 	C 	0.28455 0.12559 0.30395 -0.01000
C 	C 	0.23134 0.12930 0.30944 -0.07900
H 	H 	0.22990 0.13080 0.32780 -0.00200
S 	S 	0.21796 0.12666 0.26052 0.08600
C 	C 	0.22177 0.12589 0.27214 -0.07000
H 	H 	0.21130 0.12450 0.25700 0.00400
S 	S 	0.23539 0.12696 0.32156 0.10300
C 	C 	0.30165 0.12633 0.32717 -0.04800
H 	H 	0.29380 0.12570 0.34390 -0.01700
S 	S 	0.29184 0.62629 0.83698 0.10300
O 	O 	0.16566 0.62509 0.78738 -0.43400
O 	O 	0.17981 0.63822 0.82721 -0.44400
O 	O 	0.33880 0.62558 0.87008 -0.42900
C 	C 	0.18265 0.63058 0.80402 0.38400
C 	C 	0.21110 0.62794 0.79544 -0.05300
C 	C 	0.25067 0.62562 0.77015 -0.00000
C 	C 	0.25777 0.62586 0.79682 -0.00400
C 	C 	0.28455 0.62559 0.80395 -0.01000
C 	C 	0.23134 0.62930 0.80944 -0.07900
H 	H 	0.22990 0.63080 0.82780 -0.00200
S 	S 	0.21796 0.62666 0.76052 0.08600
C 	C 	0.22177 0.62589 0.77214 -0.07000
H 	H 	0.21130 0.62450 0.75700 0.00400
S 	S 	0.23539 0.62696 0.82156 0.10300
C 	C 	0.30165 0.62633 0.82717 -0.04800
H 	H 	0.29380 0.62570 0.84390 -0.01700
S 	S 	0.91302 0.29184 0.12371 0.10300
O 	O 	0.96262 0.16566 0.12491 -0.43400
O 	O 	0.92279 0.17981 0.11178 -0.44400
O 	O 	0.87992 0.33880 0.12442 -0.42900
C 	C 	0.94598 0.18265 0.11942 0.38400
C 	C 	0.95456 0.21110 0.12206 -0.05300
C 	C 	0.97985 0.25067 0.12438 -0.00000
C 	C 	0.95318 0.25777 0.12414 -0.00400
C 	C 	0.94605 0.28455 0.12441 -0.01000
C 	C 	0.94056 0.23134 0.12070 -0.07900
H 	H 	0.92220 0.22990 0.11920 -0.00200
S 	S 	0.98948 0.21796 0.12334 0.08600
C 	C 	0.97786 0.22177 0.12411 -0.07000
H 	H 	0.99300 0.21130 0.12550 0.00400
S 	S 	0.92844 0.23539 0.12304 0.10300
C 	C 	0.92283 0.30165 0.12367 -0.04800
H 	H 	0.90610 0.29380 0.12430 -0.01700
S 	S 	0.91302 0.79184 0.62371 0.10300
O 	O 	0.96262 0.66566 0.62491 -0.43400
O 	O 	0.92279 0.67981 0.61178 -0.44400
O 	O 	0.87992 0.83880 0.62442 -0.42900
C 	C 	0.94598 0.68265 0.61942 0.38400
C 	C 	0.95456 0.71110 0.62206 -0.05300
C 	C 	0.97985 0.75067 0.62438 -0.00000
C 	C 	0.95318 0.75777 0.62414 -0.00400
C 	C 	0.94605 0.78455 0.62441 -0.01000
C 	C 	0.94056 0.73134 0.62070 -0.07900
H 	H 	0.92220 0.72990 0.61920 -0.00200
S 	S 	0.98948 0.71796 0.62334 0.08600
C 	C 	0.97786 0.72177 0.62411 -0.07000
H 	H 	0.99300 0.71130 0.62550 0.00400
S 	S 	0.92844 0.73539 0.62304 0.10300
C 	C 	0.92283 0.80165 0.62367 -0.04800
H 	H 	0.90610 0.79380 0.62430 -0.01700
S 	S 	0.41302 0.29184 0.62371 0.10300
O 	O 	0.46262 0.16566 0.62491 -0.43400
O 	O 	0.42279 0.17981 0.61178 -0.44400
O 	O 	0.37992 0.33880 0.62442 -0.42900
C 	C 	0.44598 0.18265 0.61942 0.38400
C 	C 	0.45456 0.21110 0.62206 -0.05300
C 	C 	0.47985 0.25067 0.62438 -0.00000
C 	C 	0.45318 0.25777 0.62414 -0.00400
C 	C 	0.44605 0.28455 0.62441 -0.01000
C 	C 	0.44056 0.23134 0.62070 -0.07900
H 	H 	0.42220 0.22990 0.61920 -0.00200
S 	S 	0.48948 0.21796 0.62334 0.08600
C 	C 	0.47786 0.22177 0.62411 -0.07000
H 	H 	0.49300 0.21130 0.62550 0.00400
S 	S 	0.42844 0.23539 0.62304 0.10300
C 	C 	0.42283 0.30165 0.62367 -0.04800
H 	H 	0.40610 0.29380 0.62430 -0.01700
S 	S 	0.41302 0.79184 0.12371 0.10300
O 	O 	0.46262 0.66566 0.12491 -0.43400
O 	O 	0.42279 0.67981 0.11178 -0.44400
O 	O 	0.37992 0.83880 0.12442 -0.42900
C 	C 	0.44598 0.68265 0.11942 0.38400
C 	C 	0.45456 0.71110 0.12206 -0.05300
C 	C 	0.47985 0.75067 0.12438 -0.00000
C 	C 	0.45318 0.75777 0.12414 -0.00400
C 	C 	0.44605 0.78455 0.12441 -0.01000
C 	C 	0.44056 0.73134 0.12070 -0.07900
H 	H 	0.42220 0.72990 0.11920 -0.00200
S 	S 	0.48948 0.71796 0.12334 0.08600
C 	C 	0.47786 0.72177 0.12411 -0.07000
H 	H 	0.49300 0.71130 0.12550 0.00400
S 	S 	0.42844 0.73539 0.12304 0.10300
C 	C 	0.42283 0.80165 0.12367 -0.04800
H 	H 	0.40610 0.79380 0.12430 -0.01700
S 	S 	0.41302 0.95816 0.62629 0.10300
O 	O 	0.46262 0.08434 0.62509 -0.43400
O 	O 	0.42279 0.07019 0.63822 -0.44400
O 	O 	0.37992 0.91120 0.62558 -0.42900
C 	C 	0.44598 0.06735 0.63058 0.38400
C 	C 	0.45456 0.03890 0.62794 -0.05300
C 	C 	0.47985 0.99933 0.62562 -0.00000
C 	C 	0.45318 0.99223 0.62586 -0.00400
C 	C 	0.44605 0.96545 0.62559 -0.01000
C 	C 	0.44056 0.01866 0.62930 -0.07900
H 	H 	0.42220 0.02010 0.63080 -0.00200
S 	S 	0.48948 0.03204 0.62666 0.08600
C 	C 	0.47786 0.02823 0.62589 -0.07000
H 	H 	0.49300 0.03870 0.62450 0.00400
S 	S 	0.42844 0.01461 0.62696 0.10300
C 	C 	0.42283 0.94835 0.62633 -0.04800
H 	H 	0.40610 0.95620 0.62570 -0.01700
S 	S 	0.41302 0.45816 0.12629 0.10300
O 	O 	0.46262 0.58434 0.12509 -0.43400
O 	O 	0.42279 0.57019 0.13822 -0.44400
O 	O 	0.37992 0.41120 0.12558 -0.42900
C 	C 	0.44598 0.56735 0.13058 0.38400
C 	C 	0.45456 0.53890 0.12794 -0.05300
C 	C 	0.47985 0.49933 0.12562 -0.00000
C 	C 	0.45318 0.49223 0.12586 -0.00400
C 	C 	0.44605 0.46545 0.12559 -0.01000
C 	C 	0.44056 0.51866 0.12930 -0.07900
H 	H 	0.42220 0.52010 0.13080 -0.00200
S 	S 	0.48948 0.53204 0.12666 0.08600
C 	C 	0.47786 0.52823 0.12589 -0.07000
H 	H 	0.49300 0.53870 0.12450 0.00400
S 	S 	0.42844 0.51461 0.12696 0.10300
C 	C 	0.42283 0.44835 0.12633 -0.04800
H 	H 	0.40610 0.45620 0.12570 -0.01700
S 	S 	0.91302 0.95816 0.12629 0.10300
O 	O 	0.96262 0.08434 0.12509 -0.43400
O 	O 	0.92279 0.07019 0.13822 -0.44400
O 	O 	0.87992 0.91120 0.12558 -0.42900
C 	C 	0.94598 0.06735 0.13058 0.38400
C 	C 	0.95456 0.03890 0.12794 -0.05300
C 	C 	0.97985 0.99933 0.12562 -0.00000
C 	C 	0.95318 0.99223 0.12586 -0.00400
C 	C 	0.94605 0.96545 0.12559 -0.01000
C 	C 	0.94056 0.01866 0.12930 -0.07900
H 	H 	0.92220 0.02010 0.13080 -0.00200
S 	S 	0.98948 0.03204 0.12666 0.08600
C 	C 	0.97786 0.02823 0.12589 -0.07000
H 	H 	0.99300 0.03870 0.12450 0.00400
S 	S 	0.92844 0.01461 0.12696 0.10300
C 	C 	0.92283 0.94835 0.12633 -0.04800
H 	H 	0.90610 0.95620 0.12570 -0.01700
S 	S 	0.91302 0.45816 0.62629 0.10300
O 	O 	0.96262 0.58434 0.62509 -0.43400
O 	O 	0.92279 0.57019 0.63822 -0.44400
O 	O 	0.87992 0.41120 0.62558 -0.42900
C 	C 	0.94598 0.56735 0.63058 0.38400
C 	C 	0.95456 0.53890 0.62794 -0.05300
C 	C 	0.97985 0.49933 0.62562 -0.00000
C 	C 	0.95318 0.49223 0.62586 -0.00400
C 	C 	0.94605 0.46545 0.62559 -0.01000
C 	C 	0.94056 0.51866 0.62930 -0.07900
H 	H 	0.92220 0.52010 0.63080 -0.00200
S 	S 	0.98948 0.53204 0.62666 0.08600
C 	C 	0.97786 0.52823 0.62589 -0.07000
H 	H 	0.99300 0.53870 0.62450 0.00400
S 	S 	0.92844 0.51461 0.62696 0.10300
C 	C 	0.92283 0.44835 0.62633 -0.04800
H 	H 	0.90610 0.45620 0.62570 -0.01700
S 	S 	0.33698 0.45816 0.62371 0.10300
O 	O 	0.28738 0.58434 0.62491 -0.43400
O 	O 	0.32721 0.57019 0.61178 -0.44400
O 	O 	0.37008 0.41120 0.62442 -0.42900
C 	C 	0.30402 0.56735 0.61942 0.38400
C 	C 	0.29544 0.53890 0.62206 -0.05300
C 	C 	0.27015 0.49933 0.62438 -0.00000
C 	C 	0.29682 0.49223 0.62414 -0.00400
C 	C 	0.30395 0.46545 0.62441 -0.01000
C 	C 	0.30944 0.51866 0.62070 -0.07900
H 	H 	0.32780 0.52010 0.61920 -0.00200
S 	S 	0.26052 0.53204 0.62334 0.08600
C 	C 	0.27214 0.52823 0.62411 -0.07000
H 	H 	0.25700 0.53870 0.62550 0.00400
S 	S 	0.32156 0.51461 0.62304 0.10300
C 	C 	0.32717 0.44835 0.62367 -0.04800
H 	H 	0.34390 0.45620 0.62430 -0.01700
S 	S 	0.33698 0.95816 0.12371 0.10300
O 	O 	0.28738 0.08434 0.12491 -0.43400
O 	O 	0.32721 0.07019 0.11178 -0.44400
O 	O 	0.37008 0.91120 0.12442 -0.42900
C 	C 	0.30402 0.06735 0.11942 0.38400
C 	C 	0.29544 0.03890 0.12206 -0.05300
C 	C 	0.27015 0.99933 0.12438 -0.00000
C 	C 	0.29682 0.99223 0.12414 -0.00400
C 	C 	0.30395 0.96545 0.12441 -0.01000
C 	C 	0.30944 0.01866 0.12070 -0.07900
H 	H 	0.32780 0.02010 0.11920 -0.00200
S 	S 	0.26052 0.03204 0.12334 0.08600
C 	C 	0.27214 0.02823 0.12411 -0.07000
H 	H 	0.25700 0.03870 0.12550 0.00400
S 	S 	0.32156 0.01461 0.12304 0.10300
C 	C 	0.32717 0.94835 0.12367 -0.04800
H 	H 	0.34390 0.95620 0.12430 -0.01700
S 	S 	0.83698 0.45816 0.12371 0.10300
O 	O 	0.78738 0.58434 0.12491 -0.43400
O 	O 	0.82721 0.57019 0.11178 -0.44400
O 	O 	0.87008 0.41120 0.12442 -0.42900
C 	C 	0.80402 0.56735 0.11942 0.38400
C 	C 	0.79544 0.53890 0.12206 -0.05300
C 	C 	0.77015 0.49933 0.12438 -0.00000
C 	C 	0.79682 0.49223 0.12414 -0.00400
C 	C 	0.80395 0.46545 0.12441 -0.01000
C 	C 	0.80944 0.51866 0.12070 -0.07900
H 	H 	0.82780 0.52010 0.11920 -0.00200
S 	S 	0.76052 0.53204 0.12334 0.08600
C 	C 	0.77214 0.52823 0.12411 -0.07000
H 	H 	0.75700 0.53870 0.12550 0.00400
S 	S 	0.82156 0.51461 0.12304 0.10300
C 	C 	0.82717 0.44835 0.12367 -0.04800
H 	H 	0.84390 0.45620 0.12430 -0.01700
S 	S 	0.83698 0.95816 0.62371 0.10300
O 	O 	0.78738 0.08434 0.62491 -0.43400
O 	O 	0.82721 0.07019 0.61178 -0.44400
O 	O 	0.87008 0.91120 0.62442 -0.42900
C 	C 	0.80402 0.06735 0.61942 0.38400
C 	C 	0.79544 0.03890 0.62206 -0.05300
C 	C 	0.77015 0.99933 0.62438 -0.00000
C 	C 	0.79682 0.99223 0.62414 -0.00400
C 	C 	0.80395 0.96545 0.62441 -0.01000
C 	C 	0.80944 0.01866 0.62070 -0.07900
H 	H 	0.82780 0.02010 0.61920 -0.00200
S 	S 	0.76052 0.03204 0.62334 0.08600
C 	C 	0.77214 0.02823 0.62411 -0.07000
H 	H 	0.75700 0.03870 0.62550 0.00400
S 	S 	0.82156 0.01461 0.62304 0.10300
C 	C 	0.82717 0.94835 0.62367 -0.04800
H 	H 	0.84390 0.95620 0.62430 -0.01700
S 	S 	0.83698 0.79184 0.12629 0.10300
O 	O 	0.78738 0.66566 0.12509 -0.43400
O 	O 	0.82721 0.67981 0.13822 -0.44400
O 	O 	0.87008 0.83880 0.12558 -0.42900
C 	C 	0.80402 0.68265 0.13058 0.38400
C 	C 	0.79544 0.71110 0.12794 -0.05300
C 	C 	0.77015 0.75067 0.12562 -0.00000
C 	C 	0.79682 0.75777 0.12586 -0.00400
C 	C 	0.80395 0.78455 0.12559 -0.01000
C 	C 	0.80944 0.73134 0.12930 -0.07900
H 	H 	0.82780 0.72990 0.13080 -0.00200
S 	S 	0.76052 0.71796 0.12666 0.08600
C 	C 	0.77214 0.72177 0.12589 -0.07000
H 	H 	0.75700 0.71130 0.12450 0.00400
S 	S 	0.82156 0.73539 0.12696 0.10300
C 	C 	0.82717 0.80165 0.12633 -0.04800
H 	H 	0.84390 0.79380 0.12570 -0.01700
S 	S 	0.83698 0.29184 0.62629 0.10300
O 	O 	0.78738 0.16566 0.62509 -0.43400
O 	O 	0.82721 0.17981 0.63822 -0.44400
O 	O 	0.87008 0.33880 0.62558 -0.42900
C 	C 	0.80402 0.18265 0.63058 0.38400
C 	C 	0.79544 0.21110 0.62794 -0.05300
C 	C 	0.77015 0.25067 0.62562 -0.00000
C 	C 	0.79682 0.25777 0.62586 -0.00400
C 	C 	0.80395 0.28455 0.62559 -0.01000
C 	C 	0.80944 0.23134 0.62930 -0.07900
H 	H 	0.82780 0.22990 0.63080 -0.00200
S 	S 	0.76052 0.21796 0.62666 0.08600
C 	C 	0.77214 0.22177 0.62589 -0.07000
H 	H 	0.75700 0.21130 0.62450 0.00400
S 	S 	0.82156 0.23539 0.62696 0.10300
C 	C 	0.82717 0.30165 0.62633 -0.04800
H 	H 	0.84390 0.29380 0.62570 -0.01700
S 	S 	0.33698 0.79184 0.62629 0.10300
O 	O 	0.28738 0.66566 0.62509 -0.43400
O 	O 	0.32721 0.67981 0.63822 -0.44400
O 	O 	0.37008 0.83880 0.62558 -0.42900
C 	C 	0.30402 0.68265 0.63058 0.38400
C 	C 	0.29544 0.71110 0.62794 -0.05300
C 	C 	0.27015 0.75067 0.62562 -0.00000
C 	C 	0.29682 0.75777 0.62586 -0.00400
C 	C 	0.30395 0.78455 0.62559 -0.01000
C 	C 	0.30944 0.73134 0.62930 -0.07900
H 	H 	0.32780 0.72990 0.63080 -0.00200
S 	S 	0.26052 0.71796 0.62666 0.08600
C 	C 	0.27214 0.72177 0.62589 -0.07000
H 	H 	0.25700 0.71130 0.62450 0.00400
S 	S 	0.32156 0.73539 0.62696 0.10300
C 	C 	0.32717 0.80165 0.62633 -0.04800
H 	H 	0.34390 0.79380 0.62570 -0.01700
S 	S 	0.33698 0.29184 0.12629 0.10300
O 	O 	0.28738 0.16566 0.12509 -0.43400
O 	O 	0.32721 0.17981 0.13822 -0.44400
O 	O 	0.37008 0.33880 0.12558 -0.42900
C 	C 	0.30402 0.18265 0.13058 0.38400
C 	C 	0.29544 0.21110 0.12794 -0.05300
C 	C 	0.27015 0.25067 0.12562 -0.00000
C 	C 	0.29682 0.25777 0.12586 -0.00400
C 	C 	0.30395 0.28455 0.12559 -0.01000
C 	C 	0.30944 0.23134 0.12930 -0.07900
H 	H 	0.32780 0.22990 0.13080 -0.00200
S 	S 	0.26052 0.21796 0.12666 0.08600
C 	C 	0.27214 0.22177 0.12589 -0.07000
H 	H 	0.25700 0.21130 0.12450 0.00400
S 	S 	0.32156 0.23539 0.12696 0.10300
C 	C 	0.32717 0.30165 0.12633 -0.04800
H 	H 	0.34390 0.29380 0.12570 -0.01700
S 	S 	0.12371 0.91302 0.29184 0.10300
O 	O 	0.12491 0.96262 0.16566 -0.43400
O 	O 	0.11178 0.92279 0.17981 -0.44400
O 	O 	0.12442 0.87992 0.33880 -0.42900
C 	C 	0.11942 0.94598 0.18265 0.38400
C 	C 	0.12206 0.95456 0.21110 -0.05300
C 	C 	0.12438 0.97985 0.25067 -0.00000
C 	C 	0.12414 0.95318 0.25777 -0.00400
C 	C 	0.12441 0.94605 0.28455 -0.01000
C 	C 	0.12070 0.94056 0.23134 -0.07900
H 	H 	0.11920 0.92220 0.22990 -0.00200
S 	S 	0.12334 0.98948 0.21796 0.08600
C 	C 	0.12411 0.97786 0.22177 -0.07000
H 	H 	0.12550 0.99300 0.21130 0.00400
S 	S 	0.12304 0.92844 0.23539 0.10300
C 	C 	0.12367 0.92283 0.30165 -0.04800
H 	H 	0.12430 0.90610 0.29380 -0.01700
S 	S 	0.12371 0.41302 0.79184 0.10300
O 	O 	0.12491 0.46262 0.66566 -0.43400
O 	O 	0.11178 0.42279 0.67981 -0.44400
O 	O 	0.12442 0.37992 0.83880 -0.42900
C 	C 	0.11942 0.44598 0.68265 0.38400
C 	C 	0.12206 0.45456 0.71110 -0.05300
C 	C 	0.12438 0.47985 0.75067 -0.00000
C 	C 	0.12414 0.45318 0.75777 -0.00400
C 	C 	0.12441 0.44605 0.78455 -0.01000
C 	C 	0.12070 0.44056 0.73134 -0.07900
H 	H 	0.11920 0.42220 0.72990 -0.00200
S 	S 	0.12334 0.48948 0.71796 0.08600
C 	C 	0.12411 0.47786 0.72177 -0.07000
H 	H 	0.12550 0.49300 0.71130 0.00400
S 	S 	0.12304 0.42844 0.73539 0.10300
C 	C 	0.12367 0.42283 0.80165 -0.04800
H 	H 	0.12430 0.40610 0.79380 -0.01700
S 	S 	0.62371 0.91302 0.79184 0.10300
O 	O 	0.62491 0.96262 0.66566 -0.43400
O 	O 	0.61178 0.92279 0.67981 -0.44400
O 	O 	0.62442 0.87992 0.83880 -0.42900
C 	C 	0.61942 0.94598 0.68265 0.38400
C 	C 	0.62206 0.95456 0.71110 -0.05300
C 	C 	0.62438 0.97985 0.75067 -0.00000
C 	C 	0.62414 0.95318 0.75777 -0.00400
C 	C 	0.62441 0.94605 0.78455 -0.01000
C 	C 	0.62070 0.94056 0.73134 -0.07900
H 	H 	0.61920 0.92220 0.72990 -0.00200
S 	S 	0.62334 0.98948 0.71796 0.08600
C 	C 	0.62411 0.97786 0.72177 -0.07000
H 	H 	0.62550 0.99300 0.71130 0.00400
S 	S 	0.62304 0.92844 0.73539 0.10300
C 	C 	0.62367 0.92283 0.80165 -0.04800
H 	H 	0.62430 0.90610 0.79380 -0.01700
S 	S 	0.62371 0.41302 0.29184 0.10300
O 	O 	0.62491 0.46262 0.16566 -0.43400
O 	O 	0.61178 0.42279 0.17981 -0.44400
O 	O 	0.62442 0.37992 0.33880 -0.42900
C 	C 	0.61942 0.44598 0.18265 0.38400
C 	C 	0.62206 0.45456 0.21110 -0.05300
C 	C 	0.62438 0.47985 0.25067 -0.00000
C 	C 	0.62414 0.45318 0.25777 -0.00400
C 	C 	0.62441 0.44605 0.28455 -0.01000
C 	C 	0.62070 0.44056 0.23134 -0.07900
H 	H 	0.61920 0.42220 0.22990 -0.00200
S 	S 	0.62334 0.48948 0.21796 0.08600
C 	C 	0.62411 0.47786 0.22177 -0.07000
H 	H 	0.62550 0.49300 0.21130 0.00400
S 	S 	0.62304 0.42844 0.23539 0.10300
C 	C 	0.62367 0.42283 0.30165 -0.04800
H 	H 	0.62430 0.40610 0.29380 -0.01700
S 	S 	0.62629 0.41302 0.95816 0.10300
O 	O 	0.62509 0.46262 0.08434 -0.43400
O 	O 	0.63822 0.42279 0.07019 -0.44400
O 	O 	0.62558 0.37992 0.91120 -0.42900
C 	C 	0.63058 0.44598 0.06735 0.38400
C 	C 	0.62794 0.45456 0.03890 -0.05300
C 	C 	0.62562 0.47985 0.99933 -0.00000
C 	C 	0.62586 0.45318 0.99223 -0.00400
C 	C 	0.62559 0.44605 0.96545 -0.01000
C 	C 	0.62930 0.44056 0.01866 -0.07900
H 	H 	0.63080 0.42220 0.02010 -0.00200
S 	S 	0.62666 0.48948 0.03204 0.08600
C 	C 	0.62589 0.47786 0.02823 -0.07000
H 	H 	0.62450 0.49300 0.03870 0.00400
S 	S 	0.62696 0.42844 0.01461 0.10300
C 	C 	0.62633 0.42283 0.94835 -0.04800
H 	H 	0.62570 0.40610 0.95620 -0.01700
S 	S 	0.62629 0.91302 0.45816 0.10300
O 	O 	0.62509 0.96262 0.58434 -0.43400
O 	O 	0.63822 0.92279 0.57019 -0.44400
O 	O 	0.62558 0.87992 0.41120 -0.42900
C 	C 	0.63058 0.94598 0.56735 0.38400
C 	C 	0.62794 0.95456 0.53890 -0.05300
C 	C 	0.62562 0.97985 0.49933 -0.00000
C 	C 	0.62586 0.95318 0.49223 -0.00400
C 	C 	0.62559 0.94605 0.46545 -0.01000
C 	C 	0.62930 0.94056 0.51866 -0.07900
H 	H 	0.63080 0.92220 0.52010 -0.00200
S 	S 	0.62666 0.98948 0.53204 0.08600
C 	C 	0.62589 0.97786 0.52823 -0.07000
H 	H 	0.62450 0.99300 0.53870 0.00400
S 	S 	0.62696 0.92844 0.51461 0.10300
C 	C 	0.62633 0.92283 0.44835 -0.04800
H 	H 	0.62570 0.90610 0.45620 -0.01700
S 	S 	0.12629 0.41302 0.45816 0.10300
O 	O 	0.12509 0.46262 0.58434 -0.43400
O 	O 	0.13822 0.42279 0.57019 -0.44400
O 	O 	0.12558 0.37992 0.41120 -0.42900
C 	C 	0.13058 0.44598 0.56735 0.38400
C 	C 	0.12794 0.45456 0.53890 -0.05300
C 	C 	0.12562 0.47985 0.49933 -0.00000
C 	C 	0.12586 0.45318 0.49223 -0.00400
C 	C 	0.12559 0.44605 0.46545 -0.01000
C 	C 	0.12930 0.44056 0.51866 -0.07900
H 	H 	0.13080 0.42220 0.52010 -0.00200
S 	S 	0.12666 0.48948 0.53204 0.08600
C 	C 	0.12589 0.47786 0.52823 -0.07000
H 	H 	0.12450 0.49300 0.53870 0.00400
S 	S 	0.12696 0.42844 0.51461 0.10300
C 	C 	0.12633 0.42283 0.44835 -0.04800
H 	H 	0.12570 0.40610 0.45620 -0.01700
S 	S 	0.12629 0.91302 0.95816 0.10300
O 	O 	0.12509 0.96262 0.08434 -0.43400
O 	O 	0.13822 0.92279 0.07019 -0.44400
O 	O 	0.12558 0.87992 0.91120 -0.42900
C 	C 	0.13058 0.94598 0.06735 0.38400
C 	C 	0.12794 0.95456 0.03890 -0.05300
C 	C 	0.12562 0.97985 0.99933 -0.00000
C 	C 	0.12586 0.95318 0.99223 -0.00400
C 	C 	0.12559 0.94605 0.96545 -0.01000
C 	C 	0.12930 0.94056 0.01866 -0.07900
H 	H 	0.13080 0.92220 0.02010 -0.00200
S 	S 	0.12666 0.98948 0.03204 0.08600
C 	C 	0.12589 0.97786 0.02823 -0.07000
H 	H 	0.12450 0.99300 0.03870 0.00400
S 	S 	0.12696 0.92844 0.01461 0.10300
C 	C 	0.12633 0.92283 0.94835 -0.04800
H 	H 	0.12570 0.90610 0.95620 -0.01700
S 	S 	0.62371 0.33698 0.45816 0.10300
O 	O 	0.62491 0.28738 0.58434 -0.43400
O 	O 	0.61178 0.32721 0.57019 -0.44400
O 	O 	0.62442 0.37008 0.41120 -0.42900
C 	C 	0.61942 0.30402 0.56735 0.38400
C 	C 	0.62206 0.29544 0.53890 -0.05300
C 	C 	0.62438 0.27015 0.49933 -0.00000
C 	C 	0.62414 0.29682 0.49223 -0.00400
C 	C 	0.62441 0.30395 0.46545 -0.01000
C 	C 	0.62070 0.30944 0.51866 -0.07900
H 	H 	0.61920 0.32780 0.52010 -0.00200
S 	S 	0.62334 0.26052 0.53204 0.08600
C 	C 	0.62411 0.27214 0.52823 -0.07000
H 	H 	0.62550 0.25700 0.53870 0.00400
S 	S 	0.62304 0.32156 0.51461 0.10300
C 	C 	0.62367 0.32717 0.44835 -0.04800
H 	H 	0.62430 0.34390 0.45620 -0.01700
S 	S 	0.62371 0.83698 0.95816 0.10300
O 	O 	0.62491 0.78738 0.08434 -0.43400
O 	O 	0.61178 0.82721 0.07019 -0.44400
O 	O 	0.62442 0.87008 0.91120 -0.42900
C 	C 	0.61942 0.80402 0.06735 0.38400
C 	C 	0.62206 0.79544 0.03890 -0.05300
C 	C 	0.62438 0.77015 0.99933 -0.00000
C 	C 	0.62414 0.79682 0.99223 -0.00400
C 	C 	0.62441 0.80395 0.96545 -0.01000
C 	C 	0.62070 0.80944 0.01866 -0.07900
H 	H 	0.61920 0.82780 0.02010 -0.00200
S 	S 	0.62334 0.76052 0.03204 0.08600
C 	C 	0.62411 0.77214 0.02823 -0.07000
H 	H 	0.62550 0.75700 0.03870 0.00400
S 	S 	0.62304 0.82156 0.01461 0.10300
C 	C 	0.62367 0.82717 0.94835 -0.04800
H 	H 	0.62430 0.84390 0.95620 -0.01700
S 	S 	0.12371 0.33698 0.95816 0.10300
O 	O 	0.12491 0.28738 0.08434 -0.43400
O 	O 	0.11178 0.32721 0.07019 -0.44400
O 	O 	0.12442 0.37008 0.91120 -0.42900
C 	C 	0.11942 0.30402 0.06735 0.38400
C 	C 	0.12206 0.29544 0.03890 -0.05300
C 	C 	0.12438 0.27015 0.99933 -0.00000
C 	C 	0.12414 0.29682 0.99223 -0.00400
C 	C 	0.12441 0.30395 0.96545 -0.01000
C 	C 	0.12070 0.30944 0.01866 -0.07900
H 	H 	0.11920 0.32780 0.02010 -0.00200
S 	S 	0.12334 0.26052 0.03204 0.08600
C 	C 	0.12411 0.27214 0.02823 -0.07000
H 	H 	0.12550 0.25700 0.03870 0.00400
S 	S 	0.12304 0.32156 0.01461 0.10300
C 	C 	0.12367 0.32717 0.94835 -0.04800
H 	H 	0.12430 0.34390 0.95620 -0.01700
S 	S 	0.12371 0.83698 0.45816 0.10300
O 	O 	0.12491 0.78738 0.58434 -0.43400
O 	O 	0.11178 0.82721 0.57019 -0.44400
O 	O 	0.12442 0.87008 0.41120 -0.42900
C 	C 	0.11942 0.80402 0.56735 0.38400
C 	C 	0.12206 0.79544 0.53890 -0.05300
C 	C 	0.12438 0.77015 0.49933 -0.00000
C 	C 	0.12414 0.79682 0.49223 -0.00400
C 	C 	0.12441 0.80395 0.46545 -0.01000
C 	C 	0.12070 0.80944 0.51866 -0.07900
H 	H 	0.11920 0.82780 0.52010 -0.00200
S 	S 	0.12334 0.76052 0.53204 0.08600
C 	C 	0.12411 0.77214 0.52823 -0.07000
H 	H 	0.12550 0.75700 0.53870 0.00400
S 	S 	0.12304 0.82156 0.51461 0.10300
C 	C 	0.12367 0.82717 0.44835 -0.04800
H 	H 	0.12430 0.84390 0.45620 -0.01700
S 	S 	0.12629 0.83698 0.79184 0.10300
O 	O 	0.12509 0.78738 0.66566 -0.43400
O 	O 	0.13822 0.82721 0.67981 -0.44400
O 	O 	0.12558 0.87008 0.83880 -0.42900
C 	C 	0.13058 0.80402 0.68265 0.38400
C 	C 	0.12794 0.79544 0.71110 -0.05300
C 	C 	0.12562 0.77015 0.75067 -0.00000
C 	C 	0.12586 0.79682 0.75777 -0.00400
C 	C 	0.12559 0.80395 0.78455 -0.01000
C 	C 	0.12930 0.80944 0.73134 -0.07900
H 	H 	0.13080 0.82780 0.72990 -0.00200
S 	S 	0.12666 0.76052 0.71796 0.08600
C 	C 	0.12589 0.77214 0.72177 -0.07000
H 	H 	0.12450 0.75700 0.71130 0.00400
S 	S 	0.12696 0.82156 0.73539 0.10300
C 	C 	0.12633 0.82717 0.80165 -0.04800
H 	H 	0.12570 0.84390 0.79380 -0.01700
S 	S 	0.12629 0.33698 0.29184 0.10300
O 	O 	0.12509 0.28738 0.16566 -0.43400
O 	O 	0.13822 0.32721 0.17981 -0.44400
O 	O 	0.12558 0.37008 0.33880 -0.42900
C 	C 	0.13058 0.30402 0.18265 0.38400
C 	C 	0.12794 0.29544 0.21110 -0.05300
C 	C 	0.12562 0.27015 0.25067 -0.00000
C 	C 	0.12586 0.29682 0.25777 -0.00400
C 	C 	0.12559 0.30395 0.28455 -0.01000
C 	C 	0.12930 0.30944 0.23134 -0.07900
H 	H 	0.13080 0.32780 0.22990 -0.00200
S 	S 	0.12666 0.26052 0.21796 0.08600
C 	C 	0.12589 0.27214 0.22177 -0.07000
H 	H 	0.12450 0.25700 0.21130 0.00400
S 	S 	0.12696 0.32156 0.23539 0.10300
C 	C 	0.12633 0.32717 0.30165 -0.04800
H 	H 	0.12570 0.34390 0.29380 -0.01700
S 	S 	0.62629 0.83698 0.29184 0.10300
O 	O 	0.62509 0.78738 0.16566 -0.43400
O 	O 	0.63822 0.82721 0.17981 -0.44400
O 	O 	0.62558 0.87008 0.33880 -0.42900
C 	C 	0.63058 0.80402 0.18265 0.38400
C 	C 	0.62794 0.79544 0.21110 -0.05300
C 	C 	0.62562 0.77015 0.25067 -0.00000
C 	C 	0.62586 0.79682 0.25777 -0.00400
C 	C 	0.62559 0.80395 0.28455 -0.01000
C 	C 	0.62930 0.80944 0.23134 -0.07900
H 	H 	0.63080 0.82780 0.22990 -0.00200
S 	S 	0.62666 0.76052 0.21796 0.08600
C 	C 	0.62589 0.77214 0.22177 -0.07000
H 	H 	0.62450 0.75700 0.21130 0.00400
S 	S 	0.62696 0.82156 0.23539 0.10300
C 	C 	0.62633 0.82717 0.30165 -0.04800
H 	H 	0.62570 0.84390 0.29380 -0.01700
S 	S 	0.62629 0.33698 0.79184 0.10300
O 	O 	0.62509 0.28738 0.66566 -0.43400
O 	O 	0.63822 0.32721 0.67981 -0.44400
O 	O 	0.62558 0.37008 0.83880 -0.42900
C 	C 	0.63058 0.30402 0.68265 0.38400
C 	C 	0.62794 0.29544 0.71110 -0.05300
C 	C 	0.62562 0.27015 0.75067 -0.00000
C 	C 	0.62586 0.29682 0.75777 -0.00400
C 	C 	0.62559 0.30395 0.78455 -0.01000
C 	C 	0.62930 0.30944 0.73134 -0.07900
H 	H 	0.63080 0.32780 0.72990 -0.00200
S 	S 	0.62666 0.26052 0.71796 0.08600
C 	C 	0.62589 0.27214 0.72177 -0.07000
H 	H 	0.62450 0.25700 0.71130 0.00400
S 	S 	0.62696 0.32156 0.73539 0.10300
C 	C 	0.62633 0.32717 0.80165 -0.04800
H 	H 	0.62570 0.34390 0.79380 -0.01700
S 	S 	0.37371 0.04184 0.58698 0.10300
O 	O 	0.37491 0.91566 0.53738 -0.43400
O 	O 	0.36178 0.92981 0.57721 -0.44400
O 	O 	0.37442 0.08880 0.62008 -0.42900
C 	C 	0.36942 0.93265 0.55402 0.38400
C 	C 	0.37206 0.96110 0.54544 -0.05300
C 	C 	0.37438 0.00067 0.52015 -0.00000
C 	C 	0.37414 0.00777 0.54682 -0.00400
C 	C 	0.37441 0.03455 0.55395 -0.01000
C 	C 	0.37070 0.98134 0.55944 -0.07900
H 	H 	0.36920 0.97990 0.57780 -0.00200
S 	S 	0.37334 0.96796 0.51052 0.08600
C 	C 	0.37411 0.97177 0.52214 -0.07000
H 	H 	0.37550 0.96130 0.50700 0.00400
S 	S 	0.37304 0.98539 0.57156 0.10300
C 	C 	0.37367 0.05165 0.57717 -0.04800
H 	H 	0.37430 0.04380 0.59390 -0.01700
S 	S 	0.37371 0.54184 0.08698 0.10300
O 	O 	0.37491 0.41566 0.03738 -0.43400
O 	O 	0.36178 0.42981 0.07721 -0.44400
O 	O 	0.37442 0.58880 0.12008 -0.42900
C 	C 	0.36942 0.43265 0.05402 0.38400
C 	C 	0.37206 0.46110 0.04544 -0.05300
C 	C 	0.37438 0.50067 0.02015 -0.00000
C 	C 	0.37414 0.50777 0.04682 -0.00400
C 	C 	0.37441 0.53455 0.05395 -0.01000
C 	C 	0.37070 0.48134 0.05944 -0.07900
H 	H 	0.36920 0.47990 0.07780 -0.00200
S 	S 	0.37334 0.46796 0.01052 0.08600
C 	C 	0.37411 0.47177 0.02214 -0.07000
H 	H 	0.37550 0.46130 0.00700 0.00400
S 	S 	0.37304 0.48539 0.07156 0.10300
C 	C 	0.37367 0.55165 0.07717 -0.04800
H 	H 	0.37430 0.54380 0.09390 -0.01700
S 	S 	0.87371 0.04184 0.08698 0.10300
O 	O 	0.87491 0.91566 0.03738 -0.43400
O 	O 	0.86178 0.92981 0.07721 -0.44400
O 	O 	0.87442 0.08880 0.12008 -0.42900
C 	C 	0.86942 0.93265 0.05402 0.38400
C 	C 	0.87206 0.96110 0.04544 -0.05300
C 	C 	0.87438 0.00067 0.02015 -0.00000
C 	C 	0.87414 0.00777 0.04682 -0.00400
C 	C 	0.87441 0.03455 0.05395 -0.01000
C 	C 	0.87070 0.98134 0.05944 -0.07900
H 	H 	0.86920 0.97990 0.07780 -0.00200
S 	S 	0.87334 0.96796 0.01052 0.08600
C 	C 	0.87411 0.97177 0.02214 -0.07000
H 	H 	0.87550 0.96130 0.00700 0.00400
S 	S 	0.87304 0.98539 0.07156 0.10300
C 	C 	0.87367 0.05165 0.07717 -0.04800
H 	H 	0.87430 0.04380 0.09390 -0.01700
S 	S 	0.87371 0.54184 0.58698 0.10300
O 	O 	0.87491 0.41566 0.53738 -0.43400
O 	O 	0.86178 0.42981 0.57721 -0.44400
O 	O 	0.87442 0.58880 0.62008 -0.42900
C 	C 	0.86942 0.43265 0.55402 0.38400
C 	C 	0.87206 0.46110 0.54544 -0.05300
C 	C 	0.87438 0.50067 0.52015 -0.00000
C 	C 	0.87414 0.50777 0.54682 -0.00400
C 	C 	0.87441 0.53455 0.55395 -0.01000
C 	C 	0.87070 0.48134 0.55944 -0.07900
H 	H 	0.86920 0.47990 0.57780 -0.00200
S 	S 	0.87334 0.46796 0.51052 0.08600
C 	C 	0.87411 0.47177 0.52214 -0.07000
H 	H 	0.87550 0.46130 0.50700 0.00400
S 	S 	0.87304 0.48539 0.57156 0.10300
C 	C 	0.87367 0.55165 0.57717 -0.04800
H 	H 	0.87430 0.54380 0.59390 -0.01700
S 	S 	0.87629 0.70816 0.08698 0.10300
O 	O 	0.87509 0.83434 0.03738 -0.43400
O 	O 	0.88822 0.82019 0.07721 -0.44400
O 	O 	0.87558 0.66120 0.12008 -0.42900
C 	C 	0.88058 0.81735 0.05402 0.38400
C 	C 	0.87794 0.78890 0.04544 -0.05300
C 	C 	0.87562 0.74933 0.02015 -0.00000
C 	C 	0.87586 0.74223 0.04682 -0.00400
C 	C 	0.87559 0.71545 0.05395 -0.01000
C 	C 	0.87930 0.76866 0.05944 -0.07900
H 	H 	0.88080 0.77010 0.07780 -0.00200
S 	S 	0.87666 0.78204 0.01052 0.08600
C 	C 	0.87589 0.77823 0.02214 -0.07000
H 	H 	0.87450 0.78870 0.00700 0.00400
S 	S 	0.87696 0.76461 0.07156 0.10300
C 	C 	0.87633 0.69835 0.07717 -0.04800
H 	H 	0.87570 0.70620 0.09390 -0.01700
S 	S 	0.87629 0.20816 0.58698 0.10300
O 	O 	0.87509 0.33434 0.53738 -0.43400
O 	O 	0.88822 0.32019 0.57721 -0.44400
O 	O 	0.87558 0.16120 0.62008 -0.42900
C 	C 	0.88058 0.31735 0.55402 0.38400
C 	C 	0.87794 0.28890 0.54544 -0.05300
C 	C 	0.87562 0.24933 0.52015 -0.00000
C 	C 	0.87586 0.24223 0.54682 -0.00400
C 	C 	0.87559 0.21545 0.55395 -0.01000
C 	C 	0.87930 0.26866 0.55944 -0.07900
H 	H 	0.88080 0.27010 0.57780 -0.00200
S 	S 	0.87666 0.28204 0.51052 0.08600
C 	C 	0.87589 0.27823 0.52214 -0.07000
H 	H 	0.87450 0.28870 0.50700 0.00400
S 	S 	0.87696 0.26461 0.57156 0.10300
C 	C 	0.87633 0.19835 0.57717 -0.04800
H 	H 	0.87570 0.20620 0.59390 -0.01700
S 	S 	0.37629 0.70816 0.58698 0.10300
O 	O 	0.37509 0.83434 0.53738 -0.43400
O 	O 	0.38822 0.82019 0.57721 -0.44400
O 	O 	0.37558 0.66120 0.62008 -0.42900
C 	C 	0.38058 0.81735 0.55402 0.38400
C 	C 	0.37794 0.78890 0.54544 -0.05300
C 	C 	0.37562 0.74933 0.52015 -0.00000
C 	C 	0.37586 0.74223 0.54682 -0.00400
C 	C 	0.37559 0.71545 0.55395 -0.01000
C 	C 	0.37930 0.76866 0.55944 -0.07900
H 	H 	0.38080 0.77010 0.57780 -0.00200
S 	S 	0.37666 0.78204 0.51052 0.08600
C 	C 	0.37589 0.77823 0.52214 -0.07000
H 	H 	0.37450 0.78870 0.50700 0.00400
S 	S 	0.37696 0.76461 0.57156 0.10300
C 	C 	0.37633 0.69835 0.57717 -0.04800
H 	H 	0.37570 0.70620 0.59390 -0.01700
S 	S 	0.37629 0.20816 0.08698 0.10300
O 	O 	0.37509 0.33434 0.03738 -0.43400
O 	O 	0.38822 0.32019 0.07721 -0.44400
O 	O 	0.37558 0.16120 0.12008 -0.42900
C 	C 	0.38058 0.31735 0.05402 0.38400
C 	C 	0.37794 0.28890 0.04544 -0.05300
C 	C 	0.37562 0.24933 0.02015 -0.00000
C 	C 	0.37586 0.24223 0.04682 -0.00400
C 	C 	0.37559 0.21545 0.05395 -0.01000
C 	C 	0.37930 0.26866 0.05944 -0.07900
H 	H 	0.38080 0.27010 0.07780 -0.00200
S 	S 	0.37666 0.28204 0.01052 0.08600
C 	C 	0.37589 0.27823 0.02214 -0.07000
H 	H 	0.37450 0.28870 0.00700 0.00400
S 	S 	0.37696 0.26461 0.07156 0.10300
C 	C 	0.37633 0.19835 0.07717 -0.04800
H 	H 	0.37570 0.20620 0.09390 -0.01700
S 	S 	0.87371 0.20816 0.16302 0.10300
O 	O 	0.87491 0.33434 0.21262 -0.43400
O 	O 	0.86178 0.32019 0.17279 -0.44400
O 	O 	0.87442 0.16120 0.12992 -0.42900
C 	C 	0.86942 0.31735 0.19598 0.38400
C 	C 	0.87206 0.28890 0.20456 -0.05300
C 	C 	0.87438 0.24933 0.22985 -0.00000
C 	C 	0.87414 0.24223 0.20318 -0.00400
C 	C 	0.87441 0.21545 0.19605 -0.01000
C 	C 	0.87070 0.26866 0.19056 -0.07900
H 	H 	0.86920 0.27010 0.17220 -0.00200
S 	S 	0.87334 0.28204 0.23948 0.08600
C 	C 	0.87411 0.27823 0.22786 -0.07000
H 	H 	0.87550 0.28870 0.24300 0.00400
S 	S 	0.87304 0.26461 0.17844 0.10300
C 	C 	0.87367 0.19835 0.17283 -0.04800
H 	H 	0.87430 0.20620 0.15610 -0.01700
S 	S 	0.87371 0.70816 0.66302 0.10300
O 	O 	0.87491 0.83434 0.71262 -0.43400
O 	O 	0.86178 0.82019 0.67279 -0.44400
O 	O 	0.87442 0.66120 0.62992 -0.42900
C 	C 	0.86942 0.81735 0.69598 0.38400
C 	C 	0.87206 0.78890 0.70456 -0.05300
C 	C 	0.87438 0.74933 0.72985 -0.00000
C 	C 	0.87414 0.74223 0.70318 -0.00400
C 	C 	0.87441 0.71545 0.69605 -0.01000
C 	C 	0.87070 0.76866 0.69056 -0.07900
H 	H 	0.86920 0.77010 0.67220 -0.00200
S 	S 	0.87334 0.78204 0.73948 0.08600
C 	C 	0.87411 0.77823 0.72786 -0.07000
H 	H 	0.87550 0.78870 0.74300 0.00400
S 	S 	0.87304 0.76461 0.67844 0.10300
C 	C 	0.87367 0.69835 0.67283 -0.04800
H 	H 	0.87430 0.70620 0.65610 -0.01700
S 	S 	0.37371 0.20816 0.66302 0.10300
O 	O 	0.37491 0.33434 0.71262 -0.43400
O 	O 	0.36178 0.32019 0.67279 -0.44400
O 	O 	0.37442 0.16120 0.62992 -0.42900
C 	C 	0.36942 0.31735 0.69598 0.38400
C 	C 	0.37206 0.28890 0.70456 -0.05300
C 	C 	0.37438 0.24933 0.72985 -0.00000
C 	C 	0.37414 0.24223 0.70318 -0.00400
C 	C 	0.37441 0.21545 0.69605 -0.01000
C 	C 	0.37070 0.26866 0.69056 -0.07900
H 	H 	0.36920 0.27010 0.67220 -0.00200
S 	S 	0.37334 0.28204 0.73948 0.08600
C 	C 	0.37411 0.27823 0.72786 -0.07000
H 	H 	0.37550 0.28870 0.74300 0.00400
S 	S 	0.37304 0.26461 0.67844 0.10300
C 	C 	0.37367 0.19835 0.67283 -0.04800
H 	H 	0.37430 0.20620 0.65610 -0.01700
S 	S 	0.37371 0.70816 0.16302 0.10300
O 	O 	0.37491 0.83434 0.21262 -0.43400
O 	O 	0.36178 0.82019 0.17279 -0.44400
O 	O 	0.37442 0.66120 0.12992 -0.42900
C 	C 	0.36942 0.81735 0.19598 0.38400
C 	C 	0.37206 0.78890 0.20456 -0.05300
C 	C 	0.37438 0.74933 0.22985 -0.00000
C 	C 	0.37414 0.74223 0.20318 -0.00400
C 	C 	0.37441 0.71545 0.19605 -0.01000
C 	C 	0.37070 0.76866 0.19056 -0.07900
H 	H 	0.36920 0.77010 0.17220 -0.00200
S 	S 	0.37334 0.78204 0.23948 0.08600
C 	C 	0.37411 0.77823 0.22786 -0.07000
H 	H 	0.37550 0.78870 0.24300 0.00400
S 	S 	0.37304 0.76461 0.17844 0.10300
C 	C 	0.37367 0.69835 0.17283 -0.04800
H 	H 	0.37430 0.70620 0.15610 -0.01700
S 	S 	0.37629 0.54184 0.66302 0.10300
O 	O 	0.37509 0.41566 0.71262 -0.43400
O 	O 	0.38822 0.42981 0.67279 -0.44400
O 	O 	0.37558 0.58880 0.62992 -0.42900
C 	C 	0.38058 0.43265 0.69598 0.38400
C 	C 	0.37794 0.46110 0.70456 -0.05300
C 	C 	0.37562 0.50067 0.72985 -0.00000
C 	C 	0.37586 0.50777 0.70318 -0.00400
C 	C 	0.37559 0.53455 0.69605 -0.01000
C 	C 	0.37930 0.48134 0.69056 -0.07900
H 	H 	0.38080 0.47990 0.67220 -0.00200
S 	S 	0.37666 0.46796 0.73948 0.08600
C 	C 	0.37589 0.47177 0.72786 -0.07000
H 	H 	0.37450 0.46130 0.74300 0.00400
S 	S 	0.37696 0.48539 0.67844 0.10300
C 	C 	0.37633 0.55165 0.67283 -0.04800
H 	H 	0.37570 0.54380 0.65610 -0.01700
S 	S 	0.37629 0.04184 0.16302 0.10300
O 	O 	0.37509 0.91566 0.21262 -0.43400
O 	O 	0.38822 0.92981 0.17279 -0.44400
O 	O 	0.37558 0.08880 0.12992 -0.42900
C 	C 	0.38058 0.93265 0.19598 0.38400
C 	C 	0.37794 0.96110 0.20456 -0.05300
C 	C 	0.37562 0.00067 0.22985 -0.00000
C 	C 	0.37586 0.00777 0.20318 -0.00400
C 	C 	0.37559 0.03455 0.19605 -0.01000
C 	C 	0.37930 0.98134 0.19056 -0.07900
H 	H 	0.38080 0.97990 0.17220 -0.00200
S 	S 	0.37666 0.96796 0.23948 0.08600
C 	C 	0.37589 0.97177 0.22786 -0.07000
H 	H 	0.37450 0.96130 0.24300 0.00400
S 	S 	0.37696 0.98539 0.17844 0.10300
C 	C 	0.37633 0.05165 0.17283 -0.04800
H 	H 	0.37570 0.04380 0.15610 -0.01700
S 	S 	0.87629 0.54184 0.16302 0.10300
O 	O 	0.87509 0.41566 0.21262 -0.43400
O 	O 	0.88822 0.42981 0.17279 -0.44400
O 	O 	0.87558 0.58880 0.12992 -0.42900
C 	C 	0.88058 0.43265 0.19598 0.38400
C 	C 	0.87794 0.46110 0.20456 -0.05300
C 	C 	0.87562 0.50067 0.22985 -0.00000
C 	C 	0.87586 0.50777 0.20318 -0.00400
C 	C 	0.87559 0.53455 0.19605 -0.01000
C 	C 	0.87930 0.48134 0.19056 -0.07900
H 	H 	0.88080 0.47990 0.17220 -0.00200
S 	S 	0.87666 0.46796 0.23948 0.08600
C 	C 	0.87589 0.47177 0.22786 -0.07000
H 	H 	0.87450 0.46130 0.24300 0.00400
S 	S 	0.87696 0.48539 0.17844 0.10300
C 	C 	0.87633 0.55165 0.17283 -0.04800
H 	H 	0.87570 0.54380 0.15610 -0.01700
S 	S 	0.87629 0.04184 0.66302 0.10300
O 	O 	0.87509 0.91566 0.71262 -0.43400
O 	O 	0.88822 0.92981 0.67279 -0.44400
O 	O 	0.87558 0.08880 0.62992 -0.42900
C 	C 	0.88058 0.93265 0.69598 0.38400
C 	C 	0.87794 0.96110 0.70456 -0.05300
C 	C 	0.87562 0.00067 0.72985 -0.00000
C 	C 	0.87586 0.00777 0.70318 -0.00400
C 	C 	0.87559 0.03455 0.69605 -0.01000
C 	C 	0.87930 0.98134 0.69056 -0.07900
H 	H 	0.88080 0.97990 0.67220 -0.00200
S 	S 	0.87666 0.96796 0.73948 0.08600
C 	C 	0.87589 0.97177 0.72786 -0.07000
H 	H 	0.87450 0.96130 0.74300 0.00400
S 	S 	0.87696 0.98539 0.67844 0.10300
C 	C 	0.87633 0.05165 0.67283 -0.04800
H 	H 	0.87570 0.04380 0.65610 -0.01700
S 	S 	0.54184 0.66302 0.37629 0.10300
O 	O 	0.41566 0.71262 0.37509 -0.43400
O 	O 	0.42981 0.67279 0.38822 -0.44400
O 	O 	0.58880 0.62992 0.37558 -0.42900
C 	C 	0.43265 0.69598 0.38058 0.38400
C 	C 	0.46110 0.70456 0.37794 -0.05300
C 	C 	0.50067 0.72985 0.37562 -0.00000
C 	C 	0.50777 0.70318 0.37586 -0.00400
C 	C 	0.53455 0.69605 0.37559 -0.01000
C 	C 	0.48134 0.69056 0.37930 -0.07900
H 	H 	0.47990 0.67220 0.38080 -0.00200
S 	S 	0.46796 0.73948 0.37666 0.08600
C 	C 	0.47177 0.72786 0.37589 -0.07000
H 	H 	0.46130 0.74300 0.37450 0.00400
S 	S 	0.48539 0.67844 0.37696 0.10300
C 	C 	0.55165 0.67283 0.37633 -0.04800
H 	H 	0.54380 0.65610 0.37570 -0.01700
S 	S 	0.54184 0.16302 0.87629 0.10300
O 	O 	0.41566 0.21262 0.87509 -0.43400
O 	O 	0.42981 0.17279 0.88822 -0.44400
O 	O 	0.58880 0.12992 0.87558 -0.42900
C 	C 	0.43265 0.19598 0.88058 0.38400
C 	C 	0.46110 0.20456 0.87794 -0.05300
C 	C 	0.50067 0.22985 0.87562 -0.00000
C 	C 	0.50777 0.20318 0.87586 -0.00400
C 	C 	0.53455 0.19605 0.87559 -0.01000
C 	C 	0.48134 0.19056 0.87930 -0.07900
H 	H 	0.47990 0.17220 0.88080 -0.00200
S 	S 	0.46796 0.23948 0.87666 0.08600
C 	C 	0.47177 0.22786 0.87589 -0.07000
H 	H 	0.46130 0.24300 0.87450 0.00400
S 	S 	0.48539 0.17844 0.87696 0.10300
C 	C 	0.55165 0.17283 0.87633 -0.04800
H 	H 	0.54380 0.15610 0.87570 -0.01700
S 	S 	0.04184 0.66302 0.87629 0.10300
O 	O 	0.91566 0.71262 0.87509 -0.43400
O 	O 	0.92981 0.67279 0.88822 -0.44400
O 	O 	0.08880 0.62992 0.87558 -0.42900
C 	C 	0.93265 0.69598 0.88058 0.38400
C 	C 	0.96110 0.70456 0.87794 -0.05300
C 	C 	0.00067 0.72985 0.87562 -0.00000
C 	C 	0.00777 0.70318 0.87586 -0.00400
C 	C 	0.03455 0.69605 0.87559 -0.01000
C 	C 	0.98134 0.69056 0.87930 -0.07900
H 	H 	0.97990 0.67220 0.88080 -0.00200
S 	S 	0.96796 0.73948 0.87666 0.08600
C 	C 	0.97177 0.72786 0.87589 -0.07000
H 	H 	0.96130 0.74300 0.87450 0.00400
S 	S 	0.98539 0.67844 0.87696 0.10300
C 	C 	0.05165 0.67283 0.87633 -0.04800
H 	H 	0.04380 0.65610 0.87570 -0.01700
S 	S 	0.04184 0.16302 0.37629 0.10300
O 	O 	0.91566 0.21262 0.37509 -0.43400
O 	O 	0.92981 0.17279 0.38822 -0.44400
O 	O 	0.08880 0.12992 0.37558 -0.42900
C 	C 	0.93265 0.19598 0.38058 0.38400
C 	C 	0.96110 0.20456 0.37794 -0.05300
C 	C 	0.00067 0.22985 0.37562 -0.00000
C 	C 	0.00777 0.20318 0.37586 -0.00400
C 	C 	0.03455 0.19605 0.37559 -0.01000
C 	C 	0.98134 0.19056 0.37930 -0.07900
H 	H 	0.97990 0.17220 0.38080 -0.00200
S 	S 	0.96796 0.23948 0.37666 0.08600
C 	C 	0.97177 0.22786 0.37589 -0.07000
H 	H 	0.96130 0.24300 0.37450 0.00400
S 	S 	0.98539 0.17844 0.37696 0.10300
C 	C 	0.05165 0.17283 0.37633 -0.04800
H 	H 	0.04380 0.15610 0.37570 -0.01700
S 	S 	0.20816 0.16302 0.87371 0.10300
O 	O 	0.33434 0.21262 0.87491 -0.43400
O 	O 	0.32019 0.17279 0.86178 -0.44400
O 	O 	0.16120 0.12992 0.87442 -0.42900
C 	C 	0.31735 0.19598 0.86942 0.38400
C 	C 	0.28890 0.20456 0.87206 -0.05300
C 	C 	0.24933 0.22985 0.87438 -0.00000
C 	C 	0.24223 0.20318 0.87414 -0.00400
C 	C 	0.21545 0.19605 0.87441 -0.01000
C 	C 	0.26866 0.19056 0.87070 -0.07900
H 	H 	0.27010 0.17220 0.86920 -0.00200
S 	S 	0.28204 0.23948 0.87334 0.08600
C 	C 	0.27823 0.22786 0.87411 -0.07000
H 	H 	0.28870 0.24300 0.87550 0.00400
S 	S 	0.26461 0.17844 0.87304 0.10300
C 	C 	0.19835 0.17283 0.87367 -0.04800
H 	H 	0.20620 0.15610 0.87430 -0.01700
S 	S 	0.20816 0.66302 0.37371 0.10300
O 	O 	0.33434 0.71262 0.37491 -0.43400
O 	O 	0.32019 0.67279 0.36178 -0.44400
O 	O 	0.16120 0.62992 0.37442 -0.42900
C 	C 	0.31735 0.69598 0.36942 0.38400
C 	C 	0.28890 0.70456 0.37206 -0.05300
C 	C 	0.24933 0.72985 0.37438 -0.00000
C 	C 	0.24223 0.70318 0.37414 -0.00400
C 	C 	0.21545 0.69605 0.37441 -0.01000
C 	C 	0.26866 0.69056 0.37070 -0.07900
H 	H 	0.27010 0.67220 0.36920 -0.00200
S 	S 	0.28204 0.73948 0.37334 0.08600
C 	C 	0.27823 0.72786 0.37411 -0.07000
H 	H 	0.28870 0.74300 0.37550 0.00400
S 	S 	0.26461 0.67844 0.37304 0.10300
C 	C 	0.19835 0.67283 0.37367 -0.04800
H 	H 	0.20620 0.65610 0.37430 -0.01700
S 	S 	0.70816 0.16302 0.37371 0.10300
O 	O 	0.83434 0.21262 0.37491 -0.43400
O 	O 	0.82019 0.17279 0.36178 -0.44400
O 	O 	0.66120 0.12992 0.37442 -0.42900
C 	C 	0.81735 0.19598 0.36942 0.38400
C 	C 	0.78890 0.20456 0.37206 -0.05300
C 	C 	0.74933 0.22985 0.37438 -0.00000
C 	C 	0.74223 0.20318 0.37414 -0.00400
C 	C 	0.71545 0.19605 0.37441 -0.01000
C 	C 	0.76866 0.19056 0.37070 -0.07900
H 	H 	0.77010 0.17220 0.36920 -0.00200
S 	S 	0.78204 0.23948 0.37334 0.08600
C 	C 	0.77823 0.22786 0.37411 -0.07000
H 	H 	0.78870 0.24300 0.37550 0.00400
S 	S 	0.76461 0.17844 0.37304 0.10300
C 	C 	0.69835 0.17283 0.37367 -0.04800
H 	H 	0.70620 0.15610 0.37430 -0.01700
S 	S 	0.70816 0.66302 0.87371 0.10300
O 	O 	0.83434 0.71262 0.87491 -0.43400
O 	O 	0.82019 0.67279 0.86178 -0.44400
O 	O 	0.66120 0.62992 0.87442 -0.42900
C 	C 	0.81735 0.69598 0.86942 0.38400
C 	C 	0.78890 0.70456 0.87206 -0.05300
C 	C 	0.74933 0.72985 0.87438 -0.00000
C 	C 	0.74223 0.70318 0.87414 -0.00400
C 	C 	0.71545 0.69605 0.87441 -0.01000
C 	C 	0.76866 0.69056 0.87070 -0.07900
H 	H 	0.77010 0.67220 0.86920 -0.00200
S 	S 	0.78204 0.73948 0.87334 0.08600
C 	C 	0.77823 0.72786 0.87411 -0.07000
H 	H 	0.78870 0.74300 0.87550 0.00400
S 	S 	0.76461 0.67844 0.87304 0.10300
C 	C 	0.69835 0.67283 0.87367 -0.04800
H 	H 	0.70620 0.65610 0.87430 -0.01700
S 	S 	0.70816 0.08698 0.87629 0.10300
O 	O 	0.83434 0.03738 0.87509 -0.43400
O 	O 	0.82019 0.07721 0.88822 -0.44400
O 	O 	0.66120 0.12008 0.87558 -0.42900
C 	C 	0.81735 0.05402 0.88058 0.38400
C 	C 	0.78890 0.04544 0.87794 -0.05300
C 	C 	0.74933 0.02015 0.87562 -0.00000
C 	C 	0.74223 0.04682 0.87586 -0.00400
C 	C 	0.71545 0.05395 0.87559 -0.01000
C 	C 	0.76866 0.05944 0.87930 -0.07900
H 	H 	0.77010 0.07780 0.88080 -0.00200
S 	S 	0.78204 0.01052 0.87666 0.08600
C 	C 	0.77823 0.02214 0.87589 -0.07000
H 	H 	0.78870 0.00700 0.87450 0.00400
S 	S 	0.76461 0.07156 0.87696 0.10300
C 	C 	0.69835 0.07717 0.87633 -0.04800
H 	H 	0.70620 0.09390 0.87570 -0.01700
S 	S 	0.70816 0.58698 0.37629 0.10300
O 	O 	0.83434 0.53738 0.37509 -0.43400
O 	O 	0.82019 0.57721 0.38822 -0.44400
O 	O 	0.66120 0.62008 0.37558 -0.42900
C 	C 	0.81735 0.55402 0.38058 0.38400
C 	C 	0.78890 0.54544 0.37794 -0.05300
C 	C 	0.74933 0.52015 0.37562 -0.00000
C 	C 	0.74223 0.54682 0.37586 -0.00400
C 	C 	0.71545 0.55395 0.37559 -0.01000
C 	C 	0.76866 0.55944 0.37930 -0.07900
H 	H 	0.77010 0.57780 0.38080 -0.00200
S 	S 	0.78204 0.51052 0.37666 0.08600
C 	C 	0.77823 0.52214 0.37589 -0.07000
H 	H 	0.78870 0.50700 0.37450 0.00400
S 	S 	0.76461 0.57156 0.37696 0.10300
C 	C 	0.69835 0.57717 0.37633 -0.04800
H 	H 	0.70620 0.59390 0.37570 -0.01700
S 	S 	0.20816 0.08698 0.37629 0.10300
O 	O 	0.33434 0.03738 0.37509 -0.43400
O 	O 	0.32019 0.07721 0.38822 -0.44400
O 	O 	0.16120 0.12008 0.37558 -0.42900
C 	C 	0.31735 0.05402 0.38058 0.38400
C 	C 	0.28890 0.04544 0.37794 -0.05300
C 	C 	0.24933 0.02015 0.37562 -0.00000
C 	C 	0.24223 0.04682 0.37586 -0.00400
C 	C 	0.21545 0.05395 0.37559 -0.01000
C 	C 	0.26866 0.05944 0.37930 -0.07900
H 	H 	0.27010 0.07780 0.38080 -0.00200
S 	S 	0.28204 0.01052 0.37666 0.08600
C 	C 	0.27823 0.02214 0.37589 -0.07000
H 	H 	0.28870 0.00700 0.37450 0.00400
S 	S 	0.26461 0.07156 0.37696 0.10300
C 	C 	0.19835 0.07717 0.37633 -0.04800
H 	H 	0.20620 0.09390 0.37570 -0.01700
S 	S 	0.20816 0.58698 0.87629 0.10300
O 	O 	0.33434 0.53738 0.87509 -0.43400
O 	O 	0.32019 0.57721 0.88822 -0.44400
O 	O 	0.16120 0.62008 0.87558 -0.42900
C 	C 	0.31735 0.55402 0.88058 0.38400
C 	C 	0.28890 0.54544 0.87794 -0.05300
C 	C 	0.24933 0.52015 0.87562 -0.00000
C 	C 	0.24223 0.54682 0.87586 -0.00400
C 	C 	0.21545 0.55395 0.87559 -0.01000
C 	C 	0.26866 0.55944 0.87930 -0.07900
H 	H 	0.27010 0.57780 0.88080 -0.00200
S 	S 	0.28204 0.51052 0.87666 0.08600
C 	C 	0.27823 0.52214 0.87589 -0.07000
H 	H 	0.28870 0.50700 0.87450 0.00400
S 	S 	0.26461 0.57156 0.87696 0.10300
C 	C 	0.19835 0.57717 0.87633 -0.04800
H 	H 	0.20620 0.59390 0.87570 -0.01700
S 	S 	0.04184 0.58698 0.37371 0.10300
O 	O 	0.91566 0.53738 0.37491 -0.43400
O 	O 	0.92981 0.57721 0.36178 -0.44400
O 	O 	0.08880 0.62008 0.37442 -0.42900
C 	C 	0.93265 0.55402 0.36942 0.38400
C 	C 	0.96110 0.54544 0.37206 -0.05300
C 	C 	0.00067 0.52015 0.37438 -0.00000
C 	C 	0.00777 0.54682 0.37414 -0.00400
C 	C 	0.03455 0.55395 0.37441 -0.01000
C 	C 	0.98134 0.55944 0.37070 -0.07900
H 	H 	0.97990 0.57780 0.36920 -0.00200
S 	S 	0.96796 0.51052 0.37334 0.08600
C 	C 	0.97177 0.52214 0.37411 -0.07000
H 	H 	0.96130 0.50700 0.37550 0.00400
S 	S 	0.98539 0.57156 0.37304 0.10300
C 	C 	0.05165 0.57717 0.37367 -0.04800
H 	H 	0.04380 0.59390 0.37430 -0.01700
S 	S 	0.04184 0.08698 0.87371 0.10300
O 	O 	0.91566 0.03738 0.87491 -0.43400
O 	O 	0.92981 0.07721 0.86178 -0.44400
O 	O 	0.08880 0.12008 0.87442 -0.42900
C 	C 	0.93265 0.05402 0.86942 0.38400
C 	C 	0.96110 0.04544 0.87206 -0.05300
C 	C 	0.00067 0.02015 0.87438 -0.00000
C 	C 	0.00777 0.04682 0.87414 -0.00400
C 	C 	0.03455 0.05395 0.87441 -0.01000
C 	C 	0.98134 0.05944 0.87070 -0.07900
H 	H 	0.97990 0.07780 0.86920 -0.00200
S 	S 	0.96796 0.01052 0.87334 0.08600
C 	C 	0.97177 0.02214 0.87411 -0.07000
H 	H 	0.96130 0.00700 0.87550 0.00400
S 	S 	0.98539 0.07156 0.87304 0.10300
C 	C 	0.05165 0.07717 0.87367 -0.04800
H 	H 	0.04380 0.09390 0.87430 -0.01700
S 	S 	0.54184 0.58698 0.87371 0.10300
O 	O 	0.41566 0.53738 0.87491 -0.43400
O 	O 	0.42981 0.57721 0.86178 -0.44400
O 	O 	0.58880 0.62008 0.87442 -0.42900
C 	C 	0.43265 0.55402 0.86942 0.38400
C 	C 	0.46110 0.54544 0.87206 -0.05300
C 	C 	0.50067 0.52015 0.87438 -0.00000
C 	C 	0.50777 0.54682 0.87414 -0.00400
C 	C 	0.53455 0.55395 0.87441 -0.01000
C 	C 	0.48134 0.55944 0.87070 -0.07900
H 	H 	0.47990 0.57780 0.86920 -0.00200
S 	S 	0.46796 0.51052 0.87334 0.08600
C 	C 	0.47177 0.52214 0.87411 -0.07000
H 	H 	0.46130 0.50700 0.87550 0.00400
S 	S 	0.48539 0.57156 0.87304 0.10300
C 	C 	0.55165 0.57717 0.87367 -0.04800
H 	H 	0.54380 0.59390 0.87430 -0.01700
S 	S 	0.54184 0.08698 0.37371 0.10300
O 	O 	0.41566 0.03738 0.37491 -0.43400
O 	O 	0.42981 0.07721 0.36178 -0.44400
O 	O 	0.58880 0.12008 0.37442 -0.42900
C 	C 	0.43265 0.05402 0.36942 0.38400
C 	C 	0.46110 0.04544 0.37206 -0.05300
C 	C 	0.50067 0.02015 0.37438 -0.00000
C 	C 	0.50777 0.04682 0.37414 -0.00400
C 	C 	0.53455 0.05395 0.37441 -0.01000
C 	C 	0.48134 0.05944 0.37070 -0.07900
H 	H 	0.47990 0.07780 0.36920 -0.00200
S 	S 	0.46796 0.01052 0.37334 0.08600
C 	C 	0.47177 0.02214 0.37411 -0.07000
H 	H 	0.46130 0.00700 0.37550 0.00400
S 	S 	0.48539 0.07156 0.37304 0.10300
C 	C 	0.55165 0.07717 0.37367 -0.04800
H 	H 	0.54380 0.09390 0.37430 -0.01700
S 	S 	0.16302 0.87371 0.20816 0.10300
O 	O 	0.21262 0.87491 0.33434 -0.43400
O 	O 	0.17279 0.86178 0.32019 -0.44400
O 	O 	0.12992 0.87442 0.16120 -0.42900
C 	C 	0.19598 0.86942 0.31735 0.38400
C 	C 	0.20456 0.87206 0.28890 -0.05300
C 	C 	0.22985 0.87438 0.24933 -0.00000
C 	C 	0.20318 0.87414 0.24223 -0.00400
C 	C 	0.19605 0.87441 0.21545 -0.01000
C 	C 	0.19056 0.87070 0.26866 -0.07900
H 	H 	0.17220 0.86920 0.27010 -0.00200
S 	S 	0.23948 0.87334 0.28204 0.08600
C 	C 	0.22786 0.87411 0.27823 -0.07000
H 	H 	0.24300 0.87550 0.28870 0.00400
S 	S 	0.17844 0.87304 0.26461 0.10300
C 	C 	0.17283 0.87367 0.19835 -0.04800
H 	H 	0.15610 0.87430 0.20620 -0.01700
S 	S 	0.16302 0.37371 0.70816 0.10300
O 	O 	0.21262 0.37491 0.83434 -0.43400
O 	O 	0.17279 0.36178 0.82019 -0.44400
O 	O 	0.12992 0.37442 0.66120 -0.42900
C 	C 	0.19598 0.36942 0.81735 0.38400
C 	C 	0.20456 0.37206 0.78890 -0.05300
C 	C 	0.22985 0.37438 0.74933 -0.00000
C 	C 	0.20318 0.37414 0.74223 -0.00400
C 	C 	0.19605 0.37441 0.71545 -0.01000
C 	C 	0.19056 0.37070 0.76866 -0.07900
H 	H 	0.17220 0.36920 0.77010 -0.00200
S 	S 	0.23948 0.37334 0.78204 0.08600
C 	C 	0.22786 0.37411 0.77823 -0.07000
H 	H 	0.24300 0.37550 0.78870 0.00400
S 	S 	0.17844 0.37304 0.76461 0.10300
C 	C 	0.17283 0.37367 0.69835 -0.04800
H 	H 	0.15610 0.37430 0.70620 -0.01700
S 	S 	0.66302 0.87371 0.70816 0.10300
O 	O 	0.71262 0.87491 0.83434 -0.43400
O 	O 	0.67279 0.86178 0.82019 -0.44400
O 	O 	0.62992 0.87442 0.66120 -0.42900
C 	C 	0.69598 0.86942 0.81735 0.38400
C 	C 	0.70456 0.87206 0.78890 -0.05300
C 	C 	0.72985 0.87438 0.74933 -0.00000
C 	C 	0.70318 0.87414 0.74223 -0.00400
C 	C 	0.69605 0.87441 0.71545 -0.01000
C 	C 	0.69056 0.87070 0.76866 -0.07900
H 	H 	0.67220 0.86920 0.77010 -0.00200
S 	S 	0.73948 0.87334 0.78204 0.08600
C 	C 	0.72786 0.87411 0.77823 -0.07000
H 	H 	0.74300 0.87550 0.78870 0.00400
S 	S 	0.67844 0.87304 0.76461 0.10300
C 	C 	0.67283 0.87367 0.69835 -0.04800
H 	H 	0.65610 0.87430 0.70620 -0.01700
S 	S 	0.66302 0.37371 0.20816 0.10300
O 	O 	0.71262 0.37491 0.33434 -0.43400
O 	O 	0.67279 0.36178 0.32019 -0.44400
O 	O 	0.62992 0.37442 0.16120 -0.42900
C 	C 	0.69598 0.36942 0.31735 0.38400
C 	C 	0.70456 0.37206 0.28890 -0.05300
C 	C 	0.72985 0.37438 0.24933 -0.00000
C 	C 	0.70318 0.37414 0.24223 -0.00400
C 	C 	0.69605 0.37441 0.21545 -0.01000
C 	C 	0.69056 0.37070 0.26866 -0.07900
H 	H 	0.67220 0.36920 0.27010 -0.00200
S 	S 	0.73948 0.37334 0.28204 0.08600
C 	C 	0.72786 0.37411 0.27823 -0.07000
H 	H 	0.74300 0.37550 0.28870 0.00400
S 	S 	0.67844 0.37304 0.26461 0.10300
C 	C 	0.67283 0.37367 0.19835 -0.04800
H 	H 	0.65610 0.37430 0.20620 -0.01700
S 	S 	0.66302 0.37629 0.54184 0.10300
O 	O 	0.71262 0.37509 0.41566 -0.43400
O 	O 	0.67279 0.38822 0.42981 -0.44400
O 	O 	0.62992 0.37558 0.58880 -0.42900
C 	C 	0.69598 0.38058 0.43265 0.38400
C 	C 	0.70456 0.37794 0.46110 -0.05300
C 	C 	0.72985 0.37562 0.50067 -0.00000
C 	C 	0.70318 0.37586 0.50777 -0.00400
C 	C 	0.69605 0.37559 0.53455 -0.01000
C 	C 	0.69056 0.37930 0.48134 -0.07900
H 	H 	0.67220 0.38080 0.47990 -0.00200
S 	S 	0.73948 0.37666 0.46796 0.08600
C 	C 	0.72786 0.37589 0.47177 -0.07000
H 	H 	0.74300 0.37450 0.46130 0.00400
S 	S 	0.67844 0.37696 0.48539 0.10300
C 	C 	0.67283 0.37633 0.55165 -0.04800
H 	H 	0.65610 0.37570 0.54380 -0.01700
S 	S 	0.66302 0.87629 0.04184 0.10300
O 	O 	0.71262 0.87509 0.91566 -0.43400
O 	O 	0.67279 0.88822 0.92981 -0.44400
O 	O 	0.62992 0.87558 0.08880 -0.42900
C 	C 	0.69598 0.88058 0.93265 0.38400
C 	C 	0.70456 0.87794 0.96110 -0.05300
C 	C 	0.72985 0.87562 0.00067 -0.00000
C 	C 	0.70318 0.87586 0.00777 -0.00400
C 	C 	0.69605 0.87559 0.03455 -0.01000
C 	C 	0.69056 0.87930 0.98134 -0.07900
H 	H 	0.67220 0.88080 0.97990 -0.00200
S 	S 	0.73948 0.87666 0.96796 0.08600
C 	C 	0.72786 0.87589 0.97177 -0.07000
H 	H 	0.74300 0.87450 0.96130 0.00400
S 	S 	0.67844 0.87696 0.98539 0.10300
C 	C 	0.67283 0.87633 0.05165 -0.04800
H 	H 	0.65610 0.87570 0.04380 -0.01700
S 	S 	0.16302 0.37629 0.04184 0.10300
O 	O 	0.21262 0.37509 0.91566 -0.43400
O 	O 	0.17279 0.38822 0.92981 -0.44400
O 	O 	0.12992 0.37558 0.08880 -0.42900
C 	C 	0.19598 0.38058 0.93265 0.38400
C 	C 	0.20456 0.37794 0.96110 -0.05300
C 	C 	0.22985 0.37562 0.00067 -0.00000
C 	C 	0.20318 0.37586 0.00777 -0.00400
C 	C 	0.19605 0.37559 0.03455 -0.01000
C 	C 	0.19056 0.37930 0.98134 -0.07900
H 	H 	0.17220 0.38080 0.97990 -0.00200
S 	S 	0.23948 0.37666 0.96796 0.08600
C 	C 	0.22786 0.37589 0.97177 -0.07000
H 	H 	0.24300 0.37450 0.96130 0.00400
S 	S 	0.17844 0.37696 0.98539 0.10300
C 	C 	0.17283 0.37633 0.05165 -0.04800
H 	H 	0.15610 0.37570 0.04380 -0.01700
S 	S 	0.16302 0.87629 0.54184 0.10300
O 	O 	0.21262 0.87509 0.41566 -0.43400
O 	O 	0.17279 0.88822 0.42981 -0.44400
O 	O 	0.12992 0.87558 0.58880 -0.42900
C 	C 	0.19598 0.88058 0.43265 0.38400
C 	C 	0.20456 0.87794 0.46110 -0.05300
C 	C 	0.22985 0.87562 0.50067 -0.00000
C 	C 	0.20318 0.87586 0.50777 -0.00400
C 	C 	0.19605 0.87559 0.53455 -0.01000
C 	C 	0.19056 0.87930 0.48134 -0.07900
H 	H 	0.17220 0.88080 0.47990 -0.00200
S 	S 	0.23948 0.87666 0.46796 0.08600
C 	C 	0.22786 0.87589 0.47177 -0.07000
H 	H 	0.24300 0.87450 0.46130 0.00400
S 	S 	0.17844 0.87696 0.48539 0.10300
C 	C 	0.17283 0.87633 0.55165 -0.04800
H 	H 	0.15610 0.87570 0.54380 -0.01700
S 	S 	0.58698 0.37371 0.04184 0.10300
O 	O 	0.53738 0.37491 0.91566 -0.43400
O 	O 	0.57721 0.36178 0.92981 -0.44400
O 	O 	0.62008 0.37442 0.08880 -0.42900
C 	C 	0.55402 0.36942 0.93265 0.38400
C 	C 	0.54544 0.37206 0.96110 -0.05300
C 	C 	0.52015 0.37438 0.00067 -0.00000
C 	C 	0.54682 0.37414 0.00777 -0.00400
C 	C 	0.55395 0.37441 0.03455 -0.01000
C 	C 	0.55944 0.37070 0.98134 -0.07900
H 	H 	0.57780 0.36920 0.97990 -0.00200
S 	S 	0.51052 0.37334 0.96796 0.08600
C 	C 	0.52214 0.37411 0.97177 -0.07000
H 	H 	0.50700 0.37550 0.96130 0.00400
S 	S 	0.57156 0.37304 0.98539 0.10300
C 	C 	0.57717 0.37367 0.05165 -0.04800
H 	H 	0.59390 0.37430 0.04380 -0.01700
S 	S 	0.58698 0.87371 0.54184 0.10300
O 	O 	0.53738 0.87491 0.41566 -0.43400
O 	O 	0.57721 0.86178 0.42981 -0.44400
O 	O 	0.62008 0.87442 0.58880 -0.42900
C 	C 	0.55402 0.86942 0.43265 0.38400
C 	C 	0.54544 0.87206 0.46110 -0.05300
C 	C 	0.52015 0.87438 0.50067 -0.00000
C 	C 	0.54682 0.87414 0.50777 -0.00400
C 	C 	0.55395 0.87441 0.53455 -0.01000
C 	C 	0.55944 0.87070 0.48134 -0.07900
H 	H 	0.57780 0.86920 0.47990 -0.00200
S 	S 	0.51052 0.87334 0.46796 0.08600
C 	C 	0.52214 0.87411 0.47177 -0.07000
H 	H 	0.50700 0.87550 0.46130 0.00400
S 	S 	0.57156 0.87304 0.48539 0.10300
C 	C 	0.57717 0.87367 0.55165 -0.04800
H 	H 	0.59390 0.87430 0.54380 -0.01700
S 	S 	0.08698 0.37371 0.54184 0.10300
O 	O 	0.03738 0.37491 0.41566 -0.43400
O 	O 	0.07721 0.36178 0.42981 -0.44400
O 	O 	0.12008 0.37442 0.58880 -0.42900
C 	C 	0.05402 0.36942 0.43265 0.38400
C 	C 	0.04544 0.37206 0.46110 -0.05300
C 	C 	0.02015 0.37438 0.50067 -0.00000
C 	C 	0.04682 0.37414 0.50777 -0.00400
C 	C 	0.05395 0.37441 0.53455 -0.01000
C 	C 	0.05944 0.37070 0.48134 -0.07900
H 	H 	0.07780 0.36920 0.47990 -0.00200
S 	S 	0.01052 0.37334 0.46796 0.08600
C 	C 	0.02214 0.37411 0.47177 -0.07000
H 	H 	0.00700 0.37550 0.46130 0.00400
S 	S 	0.07156 0.37304 0.48539 0.10300
C 	C 	0.07717 0.37367 0.55165 -0.04800
H 	H 	0.09390 0.37430 0.54380 -0.01700
S 	S 	0.08698 0.87371 0.04184 0.10300
O 	O 	0.03738 0.87491 0.91566 -0.43400
O 	O 	0.07721 0.86178 0.92981 -0.44400
O 	O 	0.12008 0.87442 0.08880 -0.42900
C 	C 	0.05402 0.86942 0.93265 0.38400
C 	C 	0.04544 0.87206 0.96110 -0.05300
C 	C 	0.02015 0.87438 0.00067 -0.00000
C 	C 	0.04682 0.87414 0.00777 -0.00400
C 	C 	0.05395 0.87441 0.03455 -0.01000
C 	C 	0.05944 0.87070 0.98134 -0.07900
H 	H 	0.07780 0.86920 0.97990 -0.00200
S 	S 	0.01052 0.87334 0.96796 0.08600
C 	C 	0.02214 0.87411 0.97177 -0.07000
H 	H 	0.00700 0.87550 0.96130 0.00400
S 	S 	0.07156 0.87304 0.98539 0.10300
C 	C 	0.07717 0.87367 0.05165 -0.04800
H 	H 	0.09390 0.87430 0.04380 -0.01700
S 	S 	0.08698 0.87629 0.70816 0.10300
O 	O 	0.03738 0.87509 0.83434 -0.43400
O 	O 	0.07721 0.88822 0.82019 -0.44400
O 	O 	0.12008 0.87558 0.66120 -0.42900
C 	C 	0.05402 0.88058 0.81735 0.38400
C 	C 	0.04544 0.87794 0.78890 -0.05300
C 	C 	0.02015 0.87562 0.74933 -0.00000
C 	C 	0.04682 0.87586 0.74223 -0.00400
C 	C 	0.05395 0.87559 0.71545 -0.01000
C 	C 	0.05944 0.87930 0.76866 -0.07900
H 	H 	0.07780 0.88080 0.77010 -0.00200
S 	S 	0.01052 0.87666 0.78204 0.08600
C 	C 	0.02214 0.87589 0.77823 -0.07000
H 	H 	0.00700 0.87450 0.78870 0.00400
S 	S 	0.07156 0.87696 0.76461 0.10300
C 	C 	0.07717 0.87633 0.69835 -0.04800
H 	H 	0.09390 0.87570 0.70620 -0.01700
S 	S 	0.08698 0.37629 0.20816 0.10300
O 	O 	0.03738 0.37509 0.33434 -0.43400
O 	O 	0.07721 0.38822 0.32019 -0.44400
O 	O 	0.12008 0.37558 0.16120 -0.42900
C 	C 	0.05402 0.38058 0.31735 0.38400
C 	C 	0.04544 0.37794 0.28890 -0.05300
C 	C 	0.02015 0.37562 0.24933 -0.00000
C 	C 	0.04682 0.37586 0.24223 -0.00400
C 	C 	0.05395 0.37559 0.21545 -0.01000
C 	C 	0.05944 0.37930 0.26866 -0.07900
H 	H 	0.07780 0.38080 0.27010 -0.00200
S 	S 	0.01052 0.37666 0.28204 0.08600
C 	C 	0.02214 0.37589 0.27823 -0.07000
H 	H 	0.00700 0.37450 0.28870 0.00400
S 	S 	0.07156 0.37696 0.26461 0.10300
C 	C 	0.07717 0.37633 0.19835 -0.04800
H 	H 	0.09390 0.37570 0.20620 -0.01700
S 	S 	0.58698 0.87629 0.20816 0.10300
O 	O 	0.53738 0.87509 0.33434 -0.43400
O 	O 	0.57721 0.88822 0.32019 -0.44400
O 	O 	0.62008 0.87558 0.16120 -0.42900
C 	C 	0.55402 0.88058 0.31735 0.38400
C 	C 	0.54544 0.87794 0.28890 -0.05300
C 	C 	0.52015 0.87562 0.24933 -0.00000
C 	C 	0.54682 0.87586 0.24223 -0.00400
C 	C 	0.55395 0.87559 0.21545 -0.01000
C 	C 	0.55944 0.87930 0.26866 -0.07900
H 	H 	0.57780 0.88080 0.27010 -0.00200
S 	S 	0.51052 0.87666 0.28204 0.08600
C 	C 	0.52214 0.87589 0.27823 -0.07000
H 	H 	0.50700 0.87450 0.28870 0.00400
S 	S 	0.57156 0.87696 0.26461 0.10300
C 	C 	0.57717 0.87633 0.19835 -0.04800
H 	H 	0.59390 0.87570 0.20620 -0.01700
S 	S 	0.58698 0.37629 0.70816 0.10300
O 	O 	0.53738 0.37509 0.83434 -0.43400
O 	O 	0.57721 0.38822 0.82019 -0.44400
O 	O 	0.62008 0.37558 0.66120 -0.42900
C 	C 	0.55402 0.38058 0.81735 0.38400
C 	C 	0.54544 0.37794 0.78890 -0.05300
C 	C 	0.52015 0.37562 0.74933 -0.00000
C 	C 	0.54682 0.37586 0.74223 -0.00400
C 	C 	0.55395 0.37559 0.71545 -0.01000
C 	C 	0.55944 0.37930 0.76866 -0.07900
H 	H 	0.57780 0.38080 0.77010 -0.00200
S 	S 	0.51052 0.37666 0.78204 0.08600
C 	C 	0.52214 0.37589 0.77823 -0.07000
H 	H 	0.50700 0.37450 0.78870 0.00400
S 	S 	0.57156 0.37696 0.76461 0.10300
C 	C 	0.57717 0.37633 0.69835 -0.04800
H 	H 	0.59390 0.37570 0.70620 -0.01700
Fe	Fe	0.87500 0.87500 0.03970 1.19900
O 	O 	0.87500 0.87500 0.08021 -0.57100
Fe	Fe	0.87500 0.37500 0.53970 1.19900
O 	O 	0.87500 0.37500 0.58021 -0.57100
Fe	Fe	0.37500 0.37500 0.71030 1.19900
O 	O 	0.37500 0.37500 0.66979 -0.57100
Fe	Fe	0.87500 0.87500 0.71030 1.19900
O 	O 	0.87500 0.87500 0.66979 -0.57100
Fe	Fe	0.37500 0.87500 0.21030 1.19900
O 	O 	0.37500 0.87500 0.16979 -0.57100
Fe	Fe	0.03970 0.87500 0.87500 1.19900
O 	O 	0.08021 0.87500 0.87500 -0.57100
Fe	Fe	0.03970 0.37500 0.37500 1.19900
O 	O 	0.08021 0.37500 0.37500 -0.57100
Fe	Fe	0.53970 0.87500 0.37500 1.19900
O 	O 	0.58021 0.87500 0.37500 -0.57100
Fe	Fe	0.71030 0.37500 0.37500 1.19900
O 	O 	0.66979 0.37500 0.37500 -0.57100
Fe	Fe	0.71030 0.87500 0.87500 1.19900
O 	O 	0.66979 0.87500 0.87500 -0.57100
Fe	Fe	0.21030 0.37500 0.87500 1.19900
O 	O 	0.16979 0.37500 0.87500 -0.57100
Fe	Fe	0.87500 0.03970 0.87500 1.19900
O 	O 	0.87500 0.08021 0.87500 -0.57100
Fe	Fe	0.37500 0.53970 0.87500 1.19900
O 	O 	0.37500 0.58021 0.87500 -0.57100
Fe	Fe	0.37500 0.03970 0.37500 1.19900
O 	O 	0.37500 0.08021 0.37500 -0.57100
Fe	Fe	0.37500 0.71030 0.37500 1.19900
O 	O 	0.37500 0.66979 0.37500 -0.57100
Fe	Fe	0.87500 0.21030 0.37500 1.19900
O 	O 	0.87500 0.16979 0.37500 -0.57100
Fe	Fe	0.87500 0.71030 0.87500 1.19900
O 	O 	0.87500 0.66979 0.87500 -0.57100
Fe	Fe	0.62500 0.12500 0.46030 1.19900
O 	O 	0.62500 0.12500 0.41979 -0.57100
Fe	Fe	0.62500 0.62500 0.96030 1.19900
O 	O 	0.62500 0.62500 0.91979 -0.57100
Fe	Fe	0.12500 0.12500 0.96030 1.19900
O 	O 	0.12500 0.12500 0.91979 -0.57100
Fe	Fe	0.12500 0.62500 0.78970 1.19900
O 	O 	0.12500 0.62500 0.83021 -0.57100
Fe	Fe	0.12500 0.12500 0.28970 1.19900
O 	O 	0.12500 0.12500 0.33021 -0.57100
Fe	Fe	0.62500 0.62500 0.28970 1.19900
O 	O 	0.62500 0.62500 0.33021 -0.57100
Fe	Fe	0.62500 0.28970 0.62500 1.19900
O 	O 	0.62500 0.33021 0.62500 -0.57100
Fe	Fe	0.62500 0.78970 0.12500 1.19900
O 	O 	0.62500 0.83021 0.12500 -0.57100
Fe	Fe	0.12500 0.96030 0.12500 1.19900
O 	O 	0.12500 0.91979 0.12500 -0.57100
Fe	Fe	0.12500 0.46030 0.62500 1.19900
O 	O 	0.12500 0.41979 0.62500 -0.57100
Fe	Fe	0.62500 0.96030 0.62500 1.19900
O 	O 	0.62500 0.91979 0.62500 -0.57100
Fe	Fe	0.78970 0.12500 0.62500 1.19900
O 	O 	0.83021 0.12500 0.62500 -0.57100
Fe	Fe	0.28970 0.62500 0.62500 1.19900
O 	O 	0.33021 0.62500 0.62500 -0.57100
Fe	Fe	0.28970 0.12500 0.12500 1.19900
O 	O 	0.33021 0.12500 0.12500 -0.57100
Fe	Fe	0.46030 0.62500 0.12500 1.19900
O 	O 	0.41979 0.62500 0.12500 -0.57100
Fe	Fe	0.96030 0.12500 0.12500 1.19900
O 	O 	0.91979 0.12500 0.12500 -0.57100
Fe	Fe	0.96030 0.62500 0.62500 1.19900
O 	O 	0.91979 0.62500 0.62500 -0.57100
Fe	Fe	0.12500 0.62500 0.46030 1.19900
O 	O 	0.12500 0.62500 0.41979 -0.57100
Fe	Fe	0.62500 0.12500 0.78970 1.19900
O 	O 	0.62500 0.12500 0.83021 -0.57100
Fe	Fe	0.46030 0.12500 0.62500 1.19900
O 	O 	0.41979 0.12500 0.62500 -0.57100
Fe	Fe	0.78970 0.62500 0.12500 1.19900
O 	O 	0.83021 0.62500 0.12500 -0.57100
Fe	Fe	0.62500 0.46030 0.12500 1.19900
O 	O 	0.62500 0.41979 0.12500 -0.57100
Fe	Fe	0.12500 0.78970 0.62500 1.19900
O 	O 	0.12500 0.83021 0.62500 -0.57100
Fe	Fe	0.12500 0.28970 0.12500 1.19900
O 	O 	0.12500 0.33021 0.12500 -0.57100
Fe	Fe	0.37500 0.87500 0.53970 1.19900
O 	O 	0.37500 0.87500 0.58021 -0.57100
Fe	Fe	0.37500 0.37500 0.03970 1.19900
O 	O 	0.37500 0.37500 0.08021 -0.57100
Fe	Fe	0.87500 0.37500 0.21030 1.19900
O 	O 	0.87500 0.37500 0.16979 -0.57100
Fe	Fe	0.37500 0.21030 0.87500 1.19900
O 	O 	0.37500 0.16979 0.87500 -0.57100
Fe	Fe	0.87500 0.53970 0.37500 1.19900
O 	O 	0.87500 0.58021 0.37500 -0.57100
Fe	Fe	0.21030 0.87500 0.37500 1.19900
O 	O 	0.16979 0.87500 0.37500 -0.57100
Fe	Fe	0.53970 0.37500 0.87500 1.19900
O 	O 	0.58021 0.37500 0.87500 -0.57100
Fe	Fe	0.85054 0.89946 0.10066 1.20400
Fe	Fe	0.85054 0.39946 0.60066 1.20400
Fe	Fe	0.89946 0.35054 0.60066 1.20400
Fe	Fe	0.39946 0.35054 0.10066 1.20400
Fe	Fe	0.39946 0.39946 0.64934 1.20400
Fe	Fe	0.39946 0.89946 0.14934 1.20400
Fe	Fe	0.89946 0.39946 0.14934 1.20400
Fe	Fe	0.89946 0.89946 0.64934 1.20400
Fe	Fe	0.35054 0.85054 0.14934 1.20400
Fe	Fe	0.35054 0.35054 0.64934 1.20400
Fe	Fe	0.10066 0.85054 0.89946 1.20400
Fe	Fe	0.10066 0.35054 0.39946 1.20400
Fe	Fe	0.60066 0.89946 0.35054 1.20400
Fe	Fe	0.60066 0.39946 0.85054 1.20400
Fe	Fe	0.64934 0.39946 0.39946 1.20400
Fe	Fe	0.64934 0.89946 0.89946 1.20400
Fe	Fe	0.14934 0.39946 0.89946 1.20400
Fe	Fe	0.14934 0.89946 0.39946 1.20400
Fe	Fe	0.14934 0.35054 0.85054 1.20400
Fe	Fe	0.64934 0.35054 0.35054 1.20400
Fe	Fe	0.89946 0.10066 0.85054 1.20400
Fe	Fe	0.39946 0.10066 0.35054 1.20400
Fe	Fe	0.35054 0.60066 0.89946 1.20400
Fe	Fe	0.35054 0.10066 0.39946 1.20400
Fe	Fe	0.39946 0.64934 0.39946 1.20400
Fe	Fe	0.39946 0.14934 0.89946 1.20400
Fe	Fe	0.89946 0.64934 0.89946 1.20400
Fe	Fe	0.89946 0.14934 0.39946 1.20400
Fe	Fe	0.85054 0.14934 0.35054 1.20400
Fe	Fe	0.85054 0.64934 0.85054 1.20400
Fe	Fe	0.64946 0.10054 0.39934 1.20400
Fe	Fe	0.64946 0.60054 0.89934 1.20400
Fe	Fe	0.10054 0.14946 0.89934 1.20400
Fe	Fe	0.60054 0.14946 0.39934 1.20400
Fe	Fe	0.14946 0.64946 0.85066 1.20400
Fe	Fe	0.14946 0.14946 0.35066 1.20400
Fe	Fe	0.60054 0.60054 0.35066 1.20400
Fe	Fe	0.60054 0.10054 0.85066 1.20400
Fe	Fe	0.10054 0.60054 0.85066 1.20400
Fe	Fe	0.10054 0.10054 0.35066 1.20400
Fe	Fe	0.60054 0.35066 0.60054 1.20400
Fe	Fe	0.60054 0.85066 0.10054 1.20400
Fe	Fe	0.10054 0.35066 0.10054 1.20400
Fe	Fe	0.10054 0.85066 0.60054 1.20400
Fe	Fe	0.64946 0.85066 0.14946 1.20400
Fe	Fe	0.64946 0.35066 0.64946 1.20400
Fe	Fe	0.14946 0.89934 0.10054 1.20400
Fe	Fe	0.14946 0.39934 0.60054 1.20400
Fe	Fe	0.10054 0.39934 0.64946 1.20400
Fe	Fe	0.60054 0.39934 0.14946 1.20400
Fe	Fe	0.85066 0.14946 0.64946 1.20400
Fe	Fe	0.35066 0.14946 0.14946 1.20400
Fe	Fe	0.35066 0.60054 0.60054 1.20400
Fe	Fe	0.35066 0.10054 0.10054 1.20400
Fe	Fe	0.85066 0.60054 0.10054 1.20400
Fe	Fe	0.85066 0.10054 0.60054 1.20400
Fe	Fe	0.39934 0.64946 0.10054 1.20400
Fe	Fe	0.39934 0.14946 0.60054 1.20400
Fe	Fe	0.89934 0.10054 0.14946 1.20400
Fe	Fe	0.89934 0.60054 0.64946 1.20400
Fe	Fe	0.14946 0.10054 0.89934 1.20400
Fe	Fe	0.14946 0.60054 0.39934 1.20400
Fe	Fe	0.10054 0.64946 0.39934 1.20400
Fe	Fe	0.60054 0.64946 0.89934 1.20400
Fe	Fe	0.64946 0.14946 0.85066 1.20400
Fe	Fe	0.64946 0.64946 0.35066 1.20400
Fe	Fe	0.89934 0.14946 0.10054 1.20400
Fe	Fe	0.89934 0.64946 0.60054 1.20400
Fe	Fe	0.39934 0.10054 0.64946 1.20400
Fe	Fe	0.39934 0.60054 0.14946 1.20400
Fe	Fe	0.85066 0.64946 0.14946 1.20400
Fe	Fe	0.35066 0.64946 0.64946 1.20400
Fe	Fe	0.10054 0.89934 0.14946 1.20400
Fe	Fe	0.60054 0.89934 0.64946 1.20400
Fe	Fe	0.64946 0.39934 0.10054 1.20400
Fe	Fe	0.64946 0.89934 0.60054 1.20400
Fe	Fe	0.14946 0.85066 0.64946 1.20400
Fe	Fe	0.14946 0.35066 0.14946 1.20400
Fe	Fe	0.35054 0.89946 0.60066 1.20400
Fe	Fe	0.35054 0.39946 0.10066 1.20400
Fe	Fe	0.89946 0.85054 0.10066 1.20400
Fe	Fe	0.39946 0.85054 0.60066 1.20400
Fe	Fe	0.85054 0.35054 0.14934 1.20400
Fe	Fe	0.85054 0.85054 0.64934 1.20400
Fe	Fe	0.35054 0.14934 0.85054 1.20400
Fe	Fe	0.35054 0.64934 0.35054 1.20400
Fe	Fe	0.85054 0.10066 0.89946 1.20400
Fe	Fe	0.85054 0.60066 0.39946 1.20400
Fe	Fe	0.89946 0.60066 0.35054 1.20400
Fe	Fe	0.39946 0.60066 0.85054 1.20400
Fe	Fe	0.14934 0.85054 0.35054 1.20400
Fe	Fe	0.64934 0.85054 0.85054 1.20400
Fe	Fe	0.60066 0.35054 0.89946 1.20400
Fe	Fe	0.60066 0.85054 0.39946 1.20400
Fe	Fe	0.10066 0.89946 0.85054 1.20400
Fe	Fe	0.10066 0.39946 0.35054 1.20400
C 	C 	0.67386 0.87653 0.07614 -0.07700
C 	C 	0.65314 0.87590 0.09686 0.37800
C 	C 	0.17386 0.87653 0.57614 -0.07700
C 	C 	0.15314 0.87590 0.59686 0.37800
C 	C 	0.17386 0.37653 0.07614 -0.07700
C 	C 	0.15314 0.37590 0.09686 0.37800
C 	C 	0.07614 0.37347 0.57614 -0.07700
C 	C 	0.09686 0.37410 0.59686 0.37800
C 	C 	0.07614 0.87347 0.07614 -0.07700
C 	C 	0.09686 0.87410 0.09686 0.37800
C 	C 	0.57614 0.87347 0.57614 -0.07700
C 	C 	0.59686 0.87410 0.59686 0.37800
C 	C 	0.57614 0.37653 0.67386 -0.07700
C 	C 	0.59686 0.37590 0.65314 0.37800
C 	C 	0.57614 0.87653 0.17386 -0.07700
C 	C 	0.59686 0.87590 0.15314 0.37800
C 	C 	0.07614 0.37653 0.17386 -0.07700
C 	C 	0.09686 0.37590 0.15314 0.37800
C 	C 	0.17386 0.87347 0.17386 -0.07700
C 	C 	0.15314 0.87410 0.15314 0.37800
C 	C 	0.17386 0.37347 0.67386 -0.07700
C 	C 	0.15314 0.37410 0.65314 0.37800
C 	C 	0.67386 0.87347 0.67386 -0.07700
C 	C 	0.65314 0.87410 0.65314 0.37800
C 	C 	0.67386 0.37347 0.17386 -0.07700
C 	C 	0.65314 0.37410 0.15314 0.37800
C 	C 	0.07614 0.67386 0.87653 -0.07700
C 	C 	0.09686 0.65314 0.87590 0.37800
C 	C 	0.07614 0.17386 0.37653 -0.07700
C 	C 	0.09686 0.15314 0.37590 0.37800
C 	C 	0.57614 0.07614 0.37347 -0.07700
C 	C 	0.59686 0.09686 0.37410 0.37800
C 	C 	0.57614 0.57614 0.87347 -0.07700
C 	C 	0.59686 0.59686 0.87410 0.37800
C 	C 	0.67386 0.57614 0.37653 -0.07700
C 	C 	0.65314 0.59686 0.37590 0.37800
C 	C 	0.17386 0.57614 0.87653 -0.07700
C 	C 	0.15314 0.59686 0.87590 0.37800
C 	C 	0.17386 0.07614 0.37653 -0.07700
C 	C 	0.15314 0.09686 0.37590 0.37800
C 	C 	0.17386 0.17386 0.87347 -0.07700
C 	C 	0.15314 0.15314 0.87410 0.37800
C 	C 	0.17386 0.67386 0.37347 -0.07700
C 	C 	0.15314 0.65314 0.37410 0.37800
C 	C 	0.67386 0.17386 0.37347 -0.07700
C 	C 	0.65314 0.15314 0.37410 0.37800
C 	C 	0.67386 0.67386 0.87347 -0.07700
C 	C 	0.65314 0.65314 0.87410 0.37800
C 	C 	0.87653 0.07614 0.67386 -0.07700
C 	C 	0.87590 0.09686 0.65314 0.37800
C 	C 	0.87653 0.57614 0.17386 -0.07700
C 	C 	0.87590 0.59686 0.15314 0.37800
C 	C 	0.37653 0.07614 0.17386 -0.07700
C 	C 	0.37590 0.09686 0.15314 0.37800
C 	C 	0.37347 0.57614 0.07614 -0.07700
C 	C 	0.37410 0.59686 0.09686 0.37800
C 	C 	0.87347 0.57614 0.57614 -0.07700
C 	C 	0.87410 0.59686 0.59686 0.37800
C 	C 	0.37653 0.67386 0.57614 -0.07700
C 	C 	0.37590 0.65314 0.59686 0.37800
C 	C 	0.37653 0.17386 0.07614 -0.07700
C 	C 	0.37590 0.15314 0.09686 0.37800
C 	C 	0.87347 0.17386 0.17386 -0.07700
C 	C 	0.87410 0.15314 0.15314 0.37800
C 	C 	0.87347 0.67386 0.67386 -0.07700
C 	C 	0.87410 0.65314 0.65314 0.37800
C 	C 	0.37347 0.17386 0.67386 -0.07700
C 	C 	0.37410 0.15314 0.65314 0.37800
C 	C 	0.37347 0.67386 0.17386 -0.07700
C 	C 	0.37410 0.65314 0.15314 0.37800
C 	C 	0.62653 0.92386 0.42386 -0.07700
C 	C 	0.62590 0.90314 0.40314 0.37800
C 	C 	0.12653 0.92386 0.92386 -0.07700
C 	C 	0.12590 0.90314 0.90314 0.37800
C 	C 	0.12347 0.32614 0.92386 -0.07700
C 	C 	0.12410 0.34686 0.90314 0.37800
C 	C 	0.12347 0.82614 0.42386 -0.07700
C 	C 	0.12410 0.84686 0.40314 0.37800
C 	C 	0.12653 0.82614 0.82614 -0.07700
C 	C 	0.12590 0.84686 0.84686 0.37800
C 	C 	0.12653 0.32614 0.32614 -0.07700
C 	C 	0.12590 0.34686 0.34686 0.37800
C 	C 	0.62653 0.82614 0.32614 -0.07700
C 	C 	0.62590 0.84686 0.34686 0.37800
C 	C 	0.62653 0.32614 0.82614 -0.07700
C 	C 	0.62590 0.34686 0.84686 0.37800
C 	C 	0.62347 0.42386 0.32614 -0.07700
C 	C 	0.62410 0.40314 0.34686 0.37800
C 	C 	0.62347 0.92386 0.82614 -0.07700
C 	C 	0.62410 0.90314 0.84686 0.37800
C 	C 	0.42386 0.32614 0.62347 -0.07700
C 	C 	0.40314 0.34686 0.62410 0.37800
C 	C 	0.42386 0.82614 0.12347 -0.07700
C 	C 	0.40314 0.84686 0.12410 0.37800
C 	C 	0.82614 0.82614 0.12653 -0.07700
C 	C 	0.84686 0.84686 0.12590 0.37800
C 	C 	0.82614 0.32614 0.62653 -0.07700
C 	C 	0.84686 0.34686 0.62590 0.37800
C 	C 	0.32614 0.82614 0.62653 -0.07700
C 	C 	0.34686 0.84686 0.62590 0.37800
C 	C 	0.32614 0.32614 0.12653 -0.07700
C 	C 	0.34686 0.34686 0.12590 0.37800
C 	C 	0.32614 0.92386 0.12347 -0.07700
C 	C 	0.34686 0.90314 0.12410 0.37800
C 	C 	0.82614 0.92386 0.62347 -0.07700
C 	C 	0.84686 0.90314 0.62410 0.37800
C 	C 	0.92386 0.42386 0.62653 -0.07700
C 	C 	0.90314 0.40314 0.62590 0.37800
C 	C 	0.92386 0.92386 0.12653 -0.07700
C 	C 	0.90314 0.90314 0.12590 0.37800
C 	C 	0.82614 0.12653 0.82614 -0.07700
C 	C 	0.84686 0.12590 0.84686 0.37800
C 	C 	0.82614 0.62653 0.32614 -0.07700
C 	C 	0.84686 0.62590 0.34686 0.37800
C 	C 	0.32614 0.12653 0.32614 -0.07700
C 	C 	0.34686 0.12590 0.34686 0.37800
C 	C 	0.32614 0.62653 0.82614 -0.07700
C 	C 	0.34686 0.62590 0.84686 0.37800
C 	C 	0.32614 0.62347 0.42386 -0.07700
C 	C 	0.34686 0.62410 0.40314 0.37800
C 	C 	0.82614 0.62347 0.92386 -0.07700
C 	C 	0.84686 0.62410 0.90314 0.37800
C 	C 	0.42386 0.62653 0.92386 -0.07700
C 	C 	0.40314 0.62590 0.90314 0.37800
C 	C 	0.42386 0.12653 0.42386 -0.07700
C 	C 	0.40314 0.12590 0.40314 0.37800
C 	C 	0.92386 0.12653 0.92386 -0.07700
C 	C 	0.90314 0.12590 0.90314 0.37800
C 	C 	0.92386 0.12347 0.32614 -0.07700
C 	C 	0.90314 0.12410 0.34686 0.37800
C 	C 	0.92386 0.62347 0.82614 -0.07700
C 	C 	0.90314 0.62410 0.84686 0.37800
C 	C 	0.32614 0.12347 0.92386 -0.07700
C 	C 	0.34686 0.12410 0.90314 0.37800
C 	C 	0.82614 0.12347 0.42386 -0.07700
C 	C 	0.84686 0.12410 0.40314 0.37800
C 	C 	0.92386 0.62653 0.42386 -0.07700
C 	C 	0.90314 0.62590 0.40314 0.37800
C 	C 	0.42386 0.62347 0.32614 -0.07700
C 	C 	0.40314 0.62410 0.34686 0.37800
C 	C 	0.42386 0.12347 0.82614 -0.07700
C 	C 	0.40314 0.12410 0.84686 0.37800
C 	C 	0.92386 0.32614 0.12347 -0.07700
C 	C 	0.90314 0.34686 0.12410 0.37800
C 	C 	0.92386 0.82614 0.62347 -0.07700
C 	C 	0.90314 0.84686 0.62410 0.37800
C 	C 	0.42386 0.92386 0.62653 -0.07700
C 	C 	0.40314 0.90314 0.62590 0.37800
C 	C 	0.42386 0.42386 0.12653 -0.07700
C 	C 	0.40314 0.40314 0.12590 0.37800
C 	C 	0.32614 0.42386 0.62347 -0.07700
C 	C 	0.34686 0.40314 0.62410 0.37800
C 	C 	0.82614 0.42386 0.12347 -0.07700
C 	C 	0.84686 0.40314 0.12410 0.37800
C 	C 	0.12347 0.92386 0.32614 -0.07700
C 	C 	0.12410 0.90314 0.34686 0.37800
C 	C 	0.12347 0.42386 0.82614 -0.07700
C 	C 	0.12410 0.40314 0.84686 0.37800
C 	C 	0.62653 0.42386 0.92386 -0.07700
C 	C 	0.62590 0.40314 0.90314 0.37800
C 	C 	0.12653 0.42386 0.42386 -0.07700
C 	C 	0.12590 0.40314 0.40314 0.37800
C 	C 	0.62347 0.32614 0.42386 -0.07700
C 	C 	0.62410 0.34686 0.40314 0.37800
C 	C 	0.62347 0.82614 0.92386 -0.07700
C 	C 	0.62410 0.84686 0.90314 0.37800
C 	C 	0.37347 0.07614 0.57614 -0.07700
C 	C 	0.37410 0.09686 0.59686 0.37800
C 	C 	0.87347 0.07614 0.07614 -0.07700
C 	C 	0.87410 0.09686 0.09686 0.37800
C 	C 	0.87653 0.67386 0.07614 -0.07700
C 	C 	0.87590 0.65314 0.09686 0.37800
C 	C 	0.87653 0.17386 0.57614 -0.07700
C 	C 	0.87590 0.15314 0.59686 0.37800
C 	C 	0.37653 0.57614 0.67386 -0.07700
C 	C 	0.37590 0.59686 0.65314 0.37800
C 	C 	0.57614 0.67386 0.37653 -0.07700
C 	C 	0.59686 0.65314 0.37590 0.37800
C 	C 	0.57614 0.17386 0.87653 -0.07700
C 	C 	0.59686 0.15314 0.87590 0.37800
C 	C 	0.67386 0.07614 0.87653 -0.07700
C 	C 	0.65314 0.09686 0.87590 0.37800
C 	C 	0.07614 0.57614 0.37347 -0.07700
C 	C 	0.09686 0.59686 0.37410 0.37800
C 	C 	0.07614 0.07614 0.87347 -0.07700
C 	C 	0.09686 0.09686 0.87410 0.37800
C 	C 	0.67386 0.37653 0.57614 -0.07700
C 	C 	0.65314 0.37590 0.59686 0.37800
C 	C 	0.57614 0.37347 0.07614 -0.07700
C 	C 	0.59686 0.37410 0.09686 0.37800
C 	C 	0.07614 0.87653 0.67386 -0.07700
C 	C 	0.09686 0.87590 0.65314 0.37800
