data_crystal

_cell_length_a 22.59700
_cell_length_b 22.59700
_cell_length_c 35.80400
_cell_angle_alpha 90.00000
_cell_angle_beta  90.00000
_cell_angle_gamma 120.00000

_symmetry_space_group_name_	'P 1'
_symmetry_space_group_name_H-M	'P 1'

loop_
_symmetry_equiv_pos_as_xyz
  x,y,z

loop_
_atom_site_label
_atom_site_type_symbol
_atom_site_fract_x
_atom_site_fract_y
_atom_site_fract_z
_atom_site_charge
Cu	Cu	0.31331 0.20948 0.29141 0.85200
Cu	Cu	0.33005 0.16333 0.20425 0.87300
Cu	Cu	0.35753 0.12745 0.11670 0.85800
O 	O 	0.34880 0.16970 0.25660 -0.48100
O 	O 	0.32340 0.16600 0.15160 -0.49000
N 	N 	0.39080 0.08280 0.08170 -0.21200
N 	N 	0.35040 0.17070 0.06980 -0.23600
N 	N 	0.37630 0.10490 0.19630 -0.15200
N 	N 	0.41150 0.08800 0.21740 -0.10400
N 	N 	0.37910 0.08760 0.16160 -0.17900
C 	C 	0.36890 0.15050 0.03720 0.04100
C 	C 	0.39110 0.10210 0.04480 0.04500
C 	C 	0.36550 0.17380 0.00190 -0.13200
H 	H 	0.36790 0.15300 0.97990 0.07200
C 	C 	0.33680 0.22240 0.06700 0.07400
H 	H 	0.32360 0.23640 0.08820 -0.00600
C 	C 	0.35810 0.23120 0.00260 0.05300
H 	H 	0.36440 0.25520 0.98040 -0.01000
N 	N 	0.42050 0.04600 0.07970 -0.16700
N 	N 	0.41890 0.07360 0.02100 -0.09900
N 	N 	0.43980 0.04140 0.04770 -0.16500
C 	C 	0.43690 0.06160 0.19640 0.08600
C 	C 	0.48930 0.03920 0.20230 0.01700
C 	C 	0.58050 0.99890 0.20840 -0.03500
H 	H 	0.61040 0.98180 0.20910 0.04100
C 	C 	0.52180 0.04760 0.23610 -0.07900
H 	H 	0.51350 0.06930 0.25580 0.04700
N 	N 	0.42220 0.06340 0.16260 -0.21400
N 	N 	0.50440 0.01790 0.17170 -0.22300
C 	C 	0.54900 0.00000 0.17490 -0.01900
H 	H 	0.56180 0.98650 0.15330 0.03500
C 	C 	0.34190 0.25430 0.03430 -0.16500
H 	H 	0.33450 0.29120 0.03320 0.07800
C 	C 	0.56630 0.02370 0.24050 -0.04900
H 	H 	0.58570 0.02410 0.26350 0.01800
Cu	Cu	0.97998 0.54281 0.62474 0.84500
Cu	Cu	0.99672 0.49666 0.53758 0.86500
Cu	Cu	0.02420 0.46078 0.45003 0.86400
O 	O 	0.01547 0.50303 0.58993 -0.46600
O 	O 	0.99007 0.49933 0.48493 -0.50100
N 	N 	0.05747 0.41613 0.41503 -0.20900
N 	N 	0.01707 0.50403 0.40313 -0.24400
N 	N 	0.04297 0.43823 0.52963 -0.14600
N 	N 	0.07817 0.42133 0.55073 -0.10000
N 	N 	0.04577 0.42093 0.49493 -0.17400
C 	C 	0.03557 0.48383 0.37053 0.05100
C 	C 	0.05777 0.43543 0.37813 0.04700
C 	C 	0.03217 0.50713 0.33523 -0.14700
H 	H 	0.03457 0.48633 0.31323 0.08300
C 	C 	0.00347 0.55573 0.40033 0.12900
H 	H 	0.99027 0.56973 0.42153 -0.04100
C 	C 	0.02477 0.56453 0.33593 0.08000
H 	H 	0.03107 0.58853 0.31373 -0.01600
N 	N 	0.08717 0.37933 0.41303 -0.16300
N 	N 	0.08557 0.40693 0.35433 -0.09600
N 	N 	0.10647 0.37473 0.38103 -0.16000
C 	C 	0.10357 0.39493 0.52973 0.08300
C 	C 	0.15597 0.37253 0.53563 0.05000
C 	C 	0.24717 0.33223 0.54173 -0.16800
H 	H 	0.27707 0.31513 0.54243 0.08200
C 	C 	0.18847 0.38093 0.56943 -0.14100
H 	H 	0.18017 0.40263 0.58913 0.07300
N 	N 	0.08887 0.39673 0.49593 -0.21000
N 	N 	0.17107 0.35123 0.50503 -0.24800
C 	C 	0.21567 0.33333 0.50823 0.09800
H 	H 	0.22847 0.31983 0.48663 -0.01700
C 	C 	0.00857 0.58763 0.36763 -0.20200
H 	H 	0.00117 0.62453 0.36653 0.09700
C 	C 	0.23297 0.35703 0.57383 0.05800
H 	H 	0.25237 0.35743 0.59683 -0.01300
Cu	Cu	0.64664 0.87615 0.95808 0.85300
Cu	Cu	0.66338 0.83000 0.87092 0.87300
Cu	Cu	0.69086 0.79412 0.78337 0.85900
O 	O 	0.68213 0.83637 0.92327 -0.47900
O 	O 	0.65673 0.83267 0.81827 -0.48800
N 	N 	0.72413 0.74947 0.74837 -0.21100
N 	N 	0.68373 0.83737 0.73647 -0.23600
N 	N 	0.70963 0.77157 0.86297 -0.15100
N 	N 	0.74483 0.75467 0.88407 -0.10100
N 	N 	0.71243 0.75427 0.82827 -0.17800
C 	C 	0.70223 0.81717 0.70387 0.04200
C 	C 	0.72443 0.76877 0.71147 0.04600
C 	C 	0.69883 0.84047 0.66857 -0.13300
H 	H 	0.70123 0.81967 0.64657 0.07400
C 	C 	0.67013 0.88907 0.73367 0.07500
H 	H 	0.65693 0.90307 0.75487 -0.00500
C 	C 	0.69143 0.89787 0.66927 0.05400
H 	H 	0.69773 0.92187 0.64707 -0.00800
N 	N 	0.75383 0.71267 0.74637 -0.16500
N 	N 	0.75223 0.74027 0.68767 -0.09800
N 	N 	0.77313 0.70807 0.71437 -0.16200
C 	C 	0.77023 0.72827 0.86307 0.08000
C 	C 	0.82263 0.70587 0.86897 0.04800
C 	C 	0.91383 0.66557 0.87507 -0.16800
H 	H 	0.94373 0.64847 0.87577 0.07600
C 	C 	0.85513 0.71427 0.90277 -0.14100
H 	H 	0.84683 0.73597 0.92247 0.07100
N 	N 	0.75553 0.73007 0.82927 -0.21100
N 	N 	0.83773 0.68457 0.83837 -0.24900
C 	C 	0.88233 0.66667 0.84157 0.09500
H 	H 	0.89513 0.65317 0.81997 -0.01900
C 	C 	0.67523 0.92097 0.70097 -0.16500
H 	H 	0.66783 0.95787 0.69987 0.08400
C 	C 	0.89963 0.69037 0.90717 0.05500
H 	H 	0.91903 0.69077 0.93017 -0.01600
Cu	Cu	0.79052 0.68669 0.79141 0.85100
Cu	Cu	0.83667 0.66995 0.70425 0.87200
Cu	Cu	0.87255 0.64247 0.61670 0.85700
O 	O 	0.83030 0.65120 0.75660 -0.48200
O 	O 	0.83400 0.67660 0.65160 -0.49100
N 	N 	0.91720 0.60920 0.58170 -0.21300
N 	N 	0.82930 0.64960 0.56980 -0.23700
N 	N 	0.89510 0.62370 0.69630 -0.15300
N 	N 	0.91200 0.58850 0.71740 -0.10400
N 	N 	0.91240 0.62090 0.66160 -0.18000
C 	C 	0.84950 0.63110 0.53720 0.04000
C 	C 	0.89790 0.60890 0.54480 0.04400
C 	C 	0.82620 0.63450 0.50190 -0.13300
H 	H 	0.84700 0.63210 0.47990 0.07100
C 	C 	0.77760 0.66320 0.56700 0.07200
H 	H 	0.76360 0.67640 0.58820 -0.00700
C 	C 	0.76880 0.64190 0.50260 0.05100
H 	H 	0.74480 0.63560 0.48040 -0.01100
N 	N 	0.95400 0.57950 0.57970 -0.16800
N 	N 	0.92640 0.58110 0.52100 -0.10000
N 	N 	0.95860 0.56020 0.54770 -0.16500
C 	C 	0.93840 0.56310 0.69640 0.07900
C 	C 	0.96080 0.51070 0.70230 0.03800
C 	C 	0.00110 0.41950 0.70840 -0.13300
H 	H 	0.01820 0.38960 0.70910 0.07500
C 	C 	0.95240 0.47820 0.73610 -0.12400
H 	H 	0.93070 0.48650 0.75580 0.06200
N 	N 	0.93660 0.57780 0.66260 -0.21300
N 	N 	0.98210 0.49560 0.67170 -0.25700
C 	C 	0.00000 0.45100 0.67490 0.10600
H 	H 	0.01350 0.43820 0.65330 -0.01500
C 	C 	0.74570 0.65810 0.53430 -0.16400
H 	H 	0.70880 0.66550 0.53320 0.07800
C 	C 	0.97630 0.43370 0.74050 0.01600
H 	H 	0.97590 0.41430 0.76350 -0.00600
Cu	Cu	0.45719 0.02002 0.12474 0.84500
Cu	Cu	0.50334 0.00328 0.03758 0.86500
Cu	Cu	0.53922 0.97580 0.95003 0.86400
O 	O 	0.49697 0.98453 0.08993 -0.46700
O 	O 	0.50067 0.00993 0.98493 -0.50000
N 	N 	0.58387 0.94253 0.91503 -0.20900
N 	N 	0.49597 0.98293 0.90313 -0.24400
N 	N 	0.56177 0.95703 0.02963 -0.14600
N 	N 	0.57867 0.92183 0.05073 -0.10000
N 	N 	0.57907 0.95423 0.99493 -0.17400
C 	C 	0.51617 0.96443 0.87053 0.05100
C 	C 	0.56457 0.94223 0.87813 0.04700
C 	C 	0.49287 0.96783 0.83523 -0.14700
H 	H 	0.51367 0.96543 0.81323 0.08300
C 	C 	0.44427 0.99653 0.90033 0.12700
H 	H 	0.43027 0.00973 0.92153 -0.03900
C 	C 	0.43547 0.97523 0.83593 0.08000
H 	H 	0.41147 0.96893 0.81373 -0.01700
N 	N 	0.62067 0.91283 0.91303 -0.16300
N 	N 	0.59307 0.91443 0.85433 -0.09600
N 	N 	0.62527 0.89353 0.88103 -0.16000
C 	C 	0.60507 0.89643 0.02973 0.08300
C 	C 	0.62747 0.84403 0.03563 0.05000
C 	C 	0.66777 0.75283 0.04173 -0.16900
H 	H 	0.68487 0.72293 0.04243 0.08300
C 	C 	0.61907 0.81153 0.06943 -0.14100
H 	H 	0.59737 0.81983 0.08913 0.07300
N 	N 	0.60327 0.91113 0.99593 -0.21100
N 	N 	0.64877 0.82893 0.00503 -0.24800
C 	C 	0.66667 0.78433 0.00823 0.10000
H 	H 	0.68017 0.77153 0.98663 -0.01800
C 	C 	0.41237 0.99143 0.86763 -0.20100
H 	H 	0.37547 0.99883 0.86653 0.09600
C 	C 	0.64297 0.76703 0.07383 0.05900
H 	H 	0.64257 0.74763 0.09683 -0.01400
Cu	Cu	0.12385 0.35336 0.45808 0.85300
Cu	Cu	0.17000 0.33662 0.37092 0.87300
Cu	Cu	0.20588 0.30914 0.28337 0.85900
O 	O 	0.16363 0.31787 0.42327 -0.47900
O 	O 	0.16733 0.34327 0.31827 -0.48800
N 	N 	0.25053 0.27587 0.24837 -0.21100
N 	N 	0.16263 0.31627 0.23647 -0.23600
N 	N 	0.22843 0.29037 0.36297 -0.15100
N 	N 	0.24533 0.25517 0.38407 -0.10100
N 	N 	0.24573 0.28757 0.32827 -0.17800
C 	C 	0.18283 0.29777 0.20387 0.04300
C 	C 	0.23123 0.27557 0.21147 0.04600
C 	C 	0.15953 0.30117 0.16857 -0.13300
H 	H 	0.18033 0.29877 0.14657 0.07400
C 	C 	0.11093 0.32987 0.23367 0.07500
H 	H 	0.09693 0.34307 0.25487 -0.00500
C 	C 	0.10213 0.30857 0.16927 0.05500
H 	H 	0.07813 0.30227 0.14707 -0.00800
N 	N 	0.28733 0.24617 0.24637 -0.16500
N 	N 	0.25973 0.24777 0.18767 -0.09800
N 	N 	0.29193 0.22687 0.21437 -0.16200
C 	C 	0.27173 0.22977 0.36307 0.08000
C 	C 	0.29413 0.17737 0.36897 0.04800
C 	C 	0.33443 0.08617 0.37507 -0.16800
H 	H 	0.35153 0.05627 0.37577 0.07600
C 	C 	0.28573 0.14487 0.40277 -0.14100
H 	H 	0.26403 0.15317 0.42247 0.07200
N 	N 	0.26993 0.24447 0.32927 -0.21100
N 	N 	0.31543 0.16227 0.33837 -0.24900
C 	C 	0.33333 0.11767 0.34157 0.09500
H 	H 	0.34683 0.10487 0.31997 -0.01900
C 	C 	0.07903 0.32477 0.20097 -0.16500
H 	H 	0.04213 0.33217 0.19987 0.08400
C 	C 	0.30963 0.10037 0.40717 0.05500
H 	H 	0.30923 0.08097 0.43017 -0.01600
Cu	Cu	0.79052 0.10383 0.29141 0.84900
Cu	Cu	0.83667 0.16672 0.20425 0.87100
Cu	Cu	0.87255 0.23008 0.11670 0.85600
O 	O 	0.83030 0.17910 0.25660 -0.48400
O 	O 	0.83400 0.15740 0.15160 -0.49400
N 	N 	0.91720 0.30800 0.08170 -0.21300
N 	N 	0.82930 0.17970 0.06980 -0.23800
N 	N 	0.89510 0.27140 0.19630 -0.15300
N 	N 	0.91200 0.32350 0.21740 -0.10400
N 	N 	0.91240 0.29150 0.16160 -0.18000
C 	C 	0.84950 0.21840 0.03720 0.03900
C 	C 	0.89790 0.28900 0.04480 0.04400
C 	C 	0.82620 0.19170 0.00190 -0.13300
H 	H 	0.84700 0.21490 0.97990 0.07100
C 	C 	0.77760 0.11440 0.06700 0.07000
H 	H 	0.76360 0.08720 0.08820 -0.01000
C 	C 	0.76880 0.12690 0.00260 0.04900
H 	H 	0.74480 0.10920 0.98040 -0.01200
N 	N 	0.95400 0.37450 0.07970 -0.16800
N 	N 	0.92640 0.34530 0.02100 -0.10000
N 	N 	0.95860 0.39840 0.04770 -0.16500
C 	C 	0.93840 0.37530 0.19640 0.07900
C 	C 	0.96080 0.45010 0.20230 0.03700
C 	C 	0.00110 0.58160 0.20840 -0.13200
H 	H 	0.01820 0.62860 0.20910 0.07500
C 	C 	0.95240 0.47420 0.23610 -0.12300
H 	H 	0.93070 0.44420 0.25580 0.06200
N 	N 	0.93660 0.35880 0.16260 -0.21300
N 	N 	0.98210 0.48650 0.17170 -0.25700
C 	C 	-0.00000 0.54900 0.17490 0.10600
H 	H 	0.01350 0.57530 0.15330 -0.01500
C 	C 	0.74570 0.08760 0.03430 -0.16400
H 	H 	0.70880 0.04330 0.03320 0.07100
C 	C 	0.97630 0.54260 0.24050 0.01500
H 	H 	0.97590 0.56160 0.26350 -0.00600
Cu	Cu	0.45719 0.43716 0.62474 0.85100
Cu	Cu	0.50334 0.50005 0.53758 0.87300
Cu	Cu	0.53922 0.56341 0.45003 0.85800
O 	O 	0.49697 0.51243 0.58993 -0.48000
O 	O 	0.50067 0.49073 0.48493 -0.49000
N 	N 	0.58387 0.64133 0.41503 -0.21100
N 	N 	0.49597 0.51303 0.40313 -0.23700
N 	N 	0.56177 0.60473 0.52963 -0.15100
N 	N 	0.57867 0.65683 0.55073 -0.10100
N 	N 	0.57907 0.62483 0.49493 -0.17800
C 	C 	0.51617 0.55173 0.37053 0.04200
C 	C 	0.56457 0.62233 0.37813 0.04600
C 	C 	0.49287 0.52503 0.33523 -0.13300
H 	H 	0.51367 0.54823 0.31323 0.07300
C 	C 	0.44427 0.44773 0.40033 0.07300
H 	H 	0.43027 0.42053 0.42153 -0.00700
C 	C 	0.43547 0.46023 0.33593 0.05200
H 	H 	0.41147 0.44253 0.31373 -0.01100
N 	N 	0.62067 0.70783 0.41303 -0.16500
N 	N 	0.59307 0.67863 0.35433 -0.09800
N 	N 	0.62527 0.73173 0.38103 -0.16100
C 	C 	0.60507 0.70863 0.52973 0.08000
C 	C 	0.62747 0.78343 0.53563 0.05000
C 	C 	0.66777 0.91493 0.54173 -0.16800
H 	H 	0.68487 0.96193 0.54243 0.08800
C 	C 	0.61907 0.80753 0.56943 -0.14100
H 	H 	0.59737 0.77753 0.58913 0.07300
N 	N 	0.60327 0.69213 0.49593 -0.21100
N 	N 	0.64877 0.81983 0.50503 -0.24900
C 	C 	0.66667 0.88233 0.50823 0.09900
H 	H 	0.68017 0.90863 0.48663 -0.01500
C 	C 	0.41237 0.42093 0.36763 -0.16400
H 	H 	0.37547 0.37663 0.36653 0.07800
C 	C 	0.64297 0.87593 0.57383 0.06000
H 	H 	0.64257 0.89493 0.59683 -0.01100
Cu	Cu	0.12385 0.77050 0.95808 0.85300
Cu	Cu	0.17000 0.83339 0.87092 0.87400
Cu	Cu	0.20588 0.89675 0.78337 0.86000
O 	O 	0.16363 0.84577 0.92327 -0.47600
O 	O 	0.16733 0.82407 0.81827 -0.48600
N 	N 	0.25053 0.97467 0.74837 -0.20400
N 	N 	0.16263 0.84637 0.73647 -0.23500
N 	N 	0.22843 0.93807 0.86297 -0.15000
N 	N 	0.24533 0.99017 0.88407 -0.08800
N 	N 	0.24573 0.95817 0.82827 -0.17000
C 	C 	0.18283 0.88507 0.70387 0.04000
C 	C 	0.23123 0.95567 0.71147 0.06400
C 	C 	0.15953 0.85837 0.66857 -0.12800
H 	H 	0.18033 0.88157 0.64657 0.07600
C 	C 	0.11093 0.78107 0.73367 0.07600
H 	H 	0.09693 0.75387 0.75487 -0.00500
C 	C 	0.10213 0.79357 0.66927 0.05400
H 	H 	0.07813 0.77587 0.64707 -0.00700
N 	N 	0.28733 0.04117 0.74637 -0.17300
N 	N 	0.25973 0.01197 0.68767 -0.10900
N 	N 	0.29193 0.06507 0.71437 -0.16300
C 	C 	0.27173 0.04197 0.86307 0.06200
C 	C 	0.29413 0.11677 0.86897 0.05200
C 	C 	0.33443 0.24827 0.87507 -0.17000
H 	H 	0.35153 0.29527 0.87577 0.08200
C 	C 	0.28573 0.14087 0.90277 -0.14400
H 	H 	0.26403 0.11087 0.92247 0.07100
N 	N 	0.26993 0.02547 0.82927 -0.21700
N 	N 	0.31543 0.15317 0.83837 -0.25000
C 	C 	0.33333 0.21567 0.84157 0.09800
H 	H 	0.34683 0.24197 0.81997 -0.01700
C 	C 	0.07903 0.75427 0.70097 -0.16300
H 	H 	0.04213 0.70997 0.69987 0.08400
C 	C 	0.30963 0.20927 0.90717 0.05900
H 	H 	0.30923 0.22827 0.93017 -0.01400
Cu	Cu	0.31331 0.10383 0.79141 0.85000
Cu	Cu	0.33005 0.16672 0.70425 0.87200
Cu	Cu	0.35753 0.23008 0.61670 0.85800
O 	O 	0.34880 0.17910 0.75660 -0.48100
O 	O 	0.32340 0.15740 0.65160 -0.49100
N 	N 	0.39080 0.30800 0.58170 -0.21100
N 	N 	0.35040 0.17970 0.56980 -0.23700
N 	N 	0.37630 0.27140 0.69630 -0.15100
N 	N 	0.41150 0.32350 0.71740 -0.10200
N 	N 	0.37910 0.29150 0.66160 -0.17800
C 	C 	0.36890 0.21840 0.53720 0.04100
C 	C 	0.39110 0.28900 0.54480 0.04600
C 	C 	0.36550 0.19170 0.50190 -0.13200
H 	H 	0.36790 0.21490 0.47990 0.07300
C 	C 	0.33680 0.11440 0.56700 0.07100
H 	H 	0.32360 0.08720 0.58820 -0.01000
C 	C 	0.35810 0.12690 0.50260 0.05000
H 	H 	0.36440 0.10920 0.48040 -0.01300
N 	N 	0.42050 0.37450 0.57970 -0.16500
N 	N 	0.41890 0.34530 0.52100 -0.09800
N 	N 	0.43980 0.39840 0.54770 -0.16200
C 	C 	0.43690 0.37530 0.69640 0.08000
C 	C 	0.48930 0.45010 0.70230 0.04900
C 	C 	0.58050 0.58160 0.70840 -0.16800
H 	H 	0.61040 0.62860 0.70910 0.08200
C 	C 	0.52180 0.47420 0.73610 -0.14100
H 	H 	0.51350 0.44420 0.75580 0.07200
N 	N 	0.42220 0.35880 0.66260 -0.21100
N 	N 	0.50440 0.48650 0.67170 -0.24900
C 	C 	0.54900 0.54900 0.67490 0.09700
H 	H 	0.56180 0.57530 0.65330 -0.01700
C 	C 	0.34190 0.08760 0.53430 -0.16400
H 	H 	0.33450 0.04330 0.53320 0.07200
C 	C 	0.56630 0.54260 0.74050 0.05800
H 	H 	0.58570 0.56160 0.76350 -0.01300
Cu	Cu	0.97998 0.43716 0.12474 0.84500
Cu	Cu	0.99672 0.50005 0.03758 0.86500
Cu	Cu	0.02420 0.56341 0.95003 0.86400
O 	O 	0.01547 0.51243 0.08993 -0.46600
O 	O 	0.99007 0.49073 0.98493 -0.50100
N 	N 	0.05747 0.64133 0.91503 -0.20900
N 	N 	0.01707 0.51303 0.90313 -0.24400
N 	N 	0.04297 0.60473 0.02963 -0.14500
N 	N 	0.07817 0.65683 0.05073 -0.10000
N 	N 	0.04577 0.62483 0.99493 -0.17400
C 	C 	0.03557 0.55173 0.87053 0.05100
C 	C 	0.05777 0.62233 0.87813 0.04700
C 	C 	0.03217 0.52503 0.83523 -0.14700
H 	H 	0.03457 0.54823 0.81323 0.08300
C 	C 	0.00347 0.44773 0.90033 0.12800
H 	H 	0.99027 0.42053 0.92153 -0.04000
C 	C 	0.02477 0.46023 0.83593 0.08000
H 	H 	0.03107 0.44253 0.81373 -0.01600
N 	N 	0.08717 0.70783 0.91303 -0.16300
N 	N 	0.08557 0.67863 0.85433 -0.09500
N 	N 	0.10647 0.73173 0.88103 -0.16000
C 	C 	0.10357 0.70863 0.02973 0.08400
C 	C 	0.15597 0.78343 0.03563 0.05200
C 	C 	0.24717 0.91493 0.04173 -0.17000
H 	H 	0.27707 0.96193 0.04243 0.09000
C 	C 	0.18847 0.80753 0.06943 -0.14200
H 	H 	0.18017 0.77753 0.08913 0.07400
N 	N 	0.08887 0.69213 0.99593 -0.21000
N 	N 	0.17107 0.81983 0.00503 -0.24800
C 	C 	0.21567 0.88233 0.00823 0.10400
H 	H 	0.22847 0.90863 0.98663 -0.01600
C 	C 	0.00857 0.42093 0.86763 -0.20100
H 	H 	0.00117 0.37663 0.86653 0.09700
C 	C 	0.23297 0.87593 0.07383 0.06300
H 	H 	0.25237 0.89493 0.09683 -0.01200
Cu	Cu	0.64664 0.77050 0.45808 0.85200
Cu	Cu	0.66338 0.83339 0.37092 0.87300
Cu	Cu	0.69086 0.89675 0.28337 0.85900
O 	O 	0.68213 0.84577 0.42327 -0.47900
O 	O 	0.65673 0.82407 0.31827 -0.48900
N 	N 	0.72413 0.97467 0.24837 -0.20500
N 	N 	0.68373 0.84637 0.23647 -0.23500
N 	N 	0.70963 0.93807 0.36297 -0.15100
N 	N 	0.74483 0.99017 0.38407 -0.08900
N 	N 	0.71243 0.95817 0.32827 -0.17100
C 	C 	0.70223 0.88507 0.20387 0.03800
C 	C 	0.72443 0.95567 0.21147 0.06300
C 	C 	0.69883 0.85837 0.16857 -0.12900
H 	H 	0.70123 0.88157 0.14657 0.07400
C 	C 	0.67013 0.78107 0.23367 0.07300
H 	H 	0.65693 0.75387 0.25487 -0.00700
C 	C 	0.69143 0.79357 0.16927 0.05000
H 	H 	0.69773 0.77587 0.14707 -0.01000
N 	N 	0.75383 0.04117 0.24637 -0.17400
N 	N 	0.75223 0.01197 0.18767 -0.11100
N 	N 	0.77313 0.06507 0.21437 -0.16400
C 	C 	0.77023 0.04197 0.36307 0.06000
C 	C 	0.82263 0.11677 0.36897 0.05000
C 	C 	0.91383 0.24827 0.37507 -0.17000
H 	H 	0.94373 0.29527 0.37577 0.07600
C 	C 	0.85513 0.14087 0.40277 -0.14400
H 	H 	0.84683 0.11087 0.42247 0.06800
N 	N 	0.75553 0.02547 0.32927 -0.21800
N 	N 	0.83773 0.15317 0.33837 -0.25000
C 	C 	0.88233 0.21567 0.34157 0.09500
H 	H 	0.89513 0.24197 0.31997 -0.02000
C 	C 	0.67523 0.75427 0.20097 -0.16300
H 	H 	0.66783 0.70997 0.19987 0.07800
C 	C 	0.89963 0.20927 0.40717 0.05600
H 	H 	0.91903 0.22827 0.43017 -0.01700
Cu	Cu	0.89617 0.68669 0.29141 0.85000
Cu	Cu	0.83328 0.66995 0.20425 0.87200
Cu	Cu	0.76992 0.64247 0.11670 0.85800
O 	O 	0.82090 0.65120 0.25660 -0.48100
O 	O 	0.84260 0.67660 0.15160 -0.49100
N 	N 	0.69200 0.60920 0.08170 -0.21100
N 	N 	0.82030 0.64960 0.06980 -0.23700
N 	N 	0.72860 0.62370 0.19630 -0.15100
N 	N 	0.67650 0.58850 0.21740 -0.10200
N 	N 	0.70850 0.62090 0.16160 -0.17800
C 	C 	0.78160 0.63110 0.03720 0.04100
C 	C 	0.71100 0.60890 0.04480 0.04600
C 	C 	0.80830 0.63450 0.00190 -0.13200
H 	H 	0.78510 0.63210 0.97990 0.07200
C 	C 	0.88560 0.66320 0.06700 0.07100
H 	H 	0.91280 0.67640 0.08820 -0.01000
C 	C 	0.87310 0.64190 0.00260 0.05000
H 	H 	0.89080 0.63560 0.98040 -0.01300
N 	N 	0.62550 0.57950 0.07970 -0.16500
N 	N 	0.65470 0.58110 0.02100 -0.09800
N 	N 	0.60160 0.56020 0.04770 -0.16200
C 	C 	0.62470 0.56310 0.19640 0.08000
C 	C 	0.54990 0.51070 0.20230 0.04900
C 	C 	0.41840 0.41950 0.20840 -0.16800
H 	H 	0.37140 0.38960 0.20910 0.08200
C 	C 	0.52580 0.47820 0.23610 -0.14100
H 	H 	0.55580 0.48650 0.25580 0.07200
N 	N 	0.64120 0.57780 0.16260 -0.21100
N 	N 	0.51350 0.49560 0.17170 -0.24900
C 	C 	0.45100 0.45100 0.17490 0.09700
H 	H 	0.42470 0.43820 0.15330 -0.01700
C 	C 	0.91240 0.65810 0.03430 -0.16400
H 	H 	0.95670 0.66550 0.03320 0.07200
C 	C 	0.45740 0.43370 0.24050 0.05800
H 	H 	0.43840 0.41430 0.26350 -0.01300
Cu	Cu	0.56284 0.02002 0.62474 0.84500
Cu	Cu	0.49995 0.00328 0.53758 0.86500
Cu	Cu	0.43659 0.97580 0.45003 0.86400
O 	O 	0.48757 0.98453 0.58993 -0.46700
O 	O 	0.50927 0.00993 0.48493 -0.50000
N 	N 	0.35867 0.94253 0.41503 -0.20900
N 	N 	0.48697 0.98293 0.40313 -0.24400
N 	N 	0.39527 0.95703 0.52963 -0.14600
N 	N 	0.34317 0.92183 0.55073 -0.10000
N 	N 	0.37517 0.95423 0.49493 -0.17400
C 	C 	0.44827 0.96443 0.37053 0.05100
C 	C 	0.37767 0.94223 0.37813 0.04700
C 	C 	0.47497 0.96783 0.33523 -0.14800
H 	H 	0.45177 0.96543 0.31323 0.08300
C 	C 	0.55227 0.99653 0.40033 0.12800
H 	H 	0.57947 0.00973 0.42153 -0.04000
C 	C 	0.53977 0.97523 0.33593 0.08000
H 	H 	0.55747 0.96893 0.31373 -0.01700
N 	N 	0.29217 0.91283 0.41303 -0.16300
N 	N 	0.32137 0.91443 0.35433 -0.09500
N 	N 	0.26827 0.89353 0.38103 -0.16000
C 	C 	0.29137 0.89643 0.52973 0.08300
C 	C 	0.21657 0.84403 0.53563 0.05200
C 	C 	0.08507 0.75283 0.54173 -0.16800
H 	H 	0.03807 0.72293 0.54243 0.08900
C 	C 	0.19247 0.81153 0.56943 -0.14100
H 	H 	0.22247 0.81983 0.58913 0.07400
N 	N 	0.30787 0.91113 0.49593 -0.21000
N 	N 	0.18017 0.82893 0.50503 -0.24800
C 	C 	0.11767 0.78433 0.50823 0.10100
H 	H 	0.09137 0.77153 0.48663 -0.01400
C 	C 	0.57907 0.99143 0.36763 -0.20200
H 	H 	0.62337 0.99883 0.36653 0.09700
C 	C 	0.12407 0.76703 0.57383 0.06100
H 	H 	0.10507 0.74763 0.59683 -0.01100
Cu	Cu	0.22950 0.35336 0.95808 0.85200
Cu	Cu	0.16661 0.33662 0.87092 0.87300
Cu	Cu	0.10325 0.30914 0.78337 0.85900
O 	O 	0.15423 0.31787 0.92327 -0.47900
O 	O 	0.17593 0.34327 0.81827 -0.48900
N 	N 	0.02533 0.27587 0.74837 -0.20500
N 	N 	0.15363 0.31627 0.73647 -0.23600
N 	N 	0.06193 0.29037 0.86297 -0.15100
N 	N 	0.00983 0.25517 0.88407 -0.08900
N 	N 	0.04183 0.28757 0.82827 -0.17000
C 	C 	0.11493 0.29777 0.70387 0.03800
C 	C 	0.04433 0.27557 0.71147 0.06200
C 	C 	0.14163 0.30117 0.66857 -0.12900
H 	H 	0.11843 0.29877 0.64657 0.07400
C 	C 	0.21893 0.32987 0.73367 0.07300
H 	H 	0.24613 0.34307 0.75487 -0.00700
C 	C 	0.20643 0.30857 0.66927 0.05100
H 	H 	0.22413 0.30227 0.64707 -0.01000
N 	N 	0.95883 0.24617 0.74637 -0.17400
N 	N 	0.98803 0.24777 0.68767 -0.11100
N 	N 	0.93493 0.22687 0.71437 -0.16400
C 	C 	0.95803 0.22977 0.86307 0.06000
C 	C 	0.88323 0.17737 0.86897 0.05000
C 	C 	0.75173 0.08617 0.87507 -0.17000
H 	H 	0.70473 0.05627 0.87577 0.07700
C 	C 	0.85913 0.14487 0.90277 -0.14400
H 	H 	0.88913 0.15317 0.92247 0.06800
N 	N 	0.97453 0.24447 0.82927 -0.21700
N 	N 	0.84683 0.16227 0.83837 -0.25000
C 	C 	0.78433 0.11767 0.84157 0.09500
H 	H 	0.75803 0.10487 0.81997 -0.01900
C 	C 	0.24573 0.32477 0.70097 -0.16300
H 	H 	0.29003 0.33217 0.69987 0.07800
C 	C 	0.79073 0.10037 0.90717 0.05600
H 	H 	0.77173 0.08097 0.93017 -0.01700
Cu	Cu	0.89617 0.20948 0.79141 0.84900
Cu	Cu	0.83328 0.16333 0.70425 0.87100
Cu	Cu	0.76992 0.12745 0.61670 0.85600
O 	O 	0.82090 0.16970 0.75660 -0.48300
O 	O 	0.84260 0.16600 0.65160 -0.49400
N 	N 	0.69200 0.08280 0.58170 -0.21300
N 	N 	0.82030 0.17070 0.56980 -0.23800
N 	N 	0.72860 0.10490 0.69630 -0.15300
N 	N 	0.67650 0.08800 0.71740 -0.10500
N 	N 	0.70850 0.08760 0.66160 -0.18000
C 	C 	0.78160 0.15050 0.53720 0.03900
C 	C 	0.71100 0.10210 0.54480 0.04400
C 	C 	0.80830 0.17380 0.50190 -0.13300
H 	H 	0.78510 0.15300 0.47990 0.07100
C 	C 	0.88560 0.22240 0.56700 0.07000
H 	H 	0.91280 0.23640 0.58820 -0.01000
C 	C 	0.87310 0.23120 0.50260 0.04900
H 	H 	0.89080 0.25520 0.48040 -0.01300
N 	N 	0.62550 0.04600 0.57970 -0.16800
N 	N 	0.65470 0.07360 0.52100 -0.10000
N 	N 	0.60160 0.04140 0.54770 -0.16500
C 	C 	0.62470 0.06160 0.69640 0.08600
C 	C 	0.54990 0.03920 0.70230 0.01800
C 	C 	0.41840 0.99890 0.70840 -0.03700
H 	H 	0.37140 0.98180 0.70910 0.04200
C 	C 	0.52580 0.04760 0.73610 -0.08000
H 	H 	0.55580 0.06930 0.75580 0.04700
N 	N 	0.64120 0.06340 0.66260 -0.21400
N 	N 	0.51350 0.01790 0.67170 -0.22300
C 	C 	0.45100 0.00000 0.67490 -0.01700
H 	H 	0.42470 0.98650 0.65330 0.03400
C 	C 	0.91240 0.25430 0.53430 -0.16400
H 	H 	0.95670 0.29120 0.53320 0.07100
C 	C 	0.45740 0.02370 0.74050 -0.04700
H 	H 	0.43840 0.02410 0.76350 0.01700
Cu	Cu	0.56284 0.54281 0.12474 0.85100
Cu	Cu	0.49995 0.49666 0.03758 0.87300
Cu	Cu	0.43659 0.46078 0.95003 0.85800
O 	O 	0.48757 0.50303 0.08993 -0.48000
O 	O 	0.50927 0.49933 0.98493 -0.49000
N 	N 	0.35867 0.41613 0.91503 -0.21100
N 	N 	0.48697 0.50403 0.90313 -0.23700
N 	N 	0.39527 0.43823 0.02963 -0.15100
N 	N 	0.34317 0.42133 0.05073 -0.10100
N 	N 	0.37517 0.42093 0.99493 -0.17800
C 	C 	0.44827 0.48383 0.87053 0.04200
C 	C 	0.37767 0.43543 0.87813 0.04600
C 	C 	0.47497 0.50713 0.83523 -0.13300
H 	H 	0.45177 0.48633 0.81323 0.07300
C 	C 	0.55227 0.55573 0.90033 0.07300
H 	H 	0.57947 0.56973 0.92153 -0.00700
C 	C 	0.53977 0.56453 0.83593 0.05200
H 	H 	0.55747 0.58853 0.81373 -0.01100
N 	N 	0.29217 0.37933 0.91303 -0.16500
N 	N 	0.32137 0.40693 0.85433 -0.09800
N 	N 	0.26827 0.37473 0.88103 -0.16100
C 	C 	0.29137 0.39493 0.02973 0.08100
C 	C 	0.21657 0.37253 0.03563 0.05000
C 	C 	0.08507 0.33223 0.04173 -0.16900
H 	H 	0.03807 0.31513 0.04243 0.08900
C 	C 	0.19247 0.38093 0.06943 -0.14200
H 	H 	0.22247 0.40263 0.08913 0.07300
N 	N 	0.30787 0.39673 0.99593 -0.21100
N 	N 	0.18017 0.35123 0.00503 -0.24900
C 	C 	0.11767 0.33333 0.00823 0.10100
H 	H 	0.09137 0.31983 0.98663 -0.01600
C 	C 	0.57907 0.58763 0.86763 -0.16500
H 	H 	0.62337 0.62453 0.86653 0.07800
C 	C 	0.12407 0.35703 0.07383 0.06100
H 	H 	0.10507 0.35743 0.09683 -0.01200
Cu	Cu	0.22950 0.87615 0.45808 0.85400
Cu	Cu	0.16661 0.83000 0.37092 0.87400
Cu	Cu	0.10325 0.79412 0.28337 0.86000
O 	O 	0.15423 0.83637 0.42327 -0.47600
O 	O 	0.17593 0.83267 0.31827 -0.48600
N 	N 	0.02533 0.74947 0.24837 -0.20400
N 	N 	0.15363 0.83737 0.23647 -0.23500
N 	N 	0.06193 0.77157 0.36297 -0.15000
N 	N 	0.00983 0.75467 0.38407 -0.08700
N 	N 	0.04183 0.75427 0.32827 -0.17000
C 	C 	0.11493 0.81717 0.20387 0.04000
C 	C 	0.04433 0.76877 0.21147 0.06300
C 	C 	0.14163 0.84047 0.16857 -0.12800
H 	H 	0.11843 0.81967 0.14657 0.07600
C 	C 	0.21893 0.88907 0.23367 0.07600
H 	H 	0.24613 0.90307 0.25487 -0.00500
C 	C 	0.20643 0.89787 0.16927 0.05400
H 	H 	0.22413 0.92187 0.14707 -0.00700
N 	N 	0.95883 0.71267 0.24637 -0.17300
N 	N 	0.98803 0.74027 0.18767 -0.11000
N 	N 	0.93493 0.70807 0.21437 -0.16400
C 	C 	0.95803 0.72827 0.36307 0.06100
C 	C 	0.88323 0.70587 0.36897 0.05300
C 	C 	0.75173 0.66557 0.37507 -0.17000
H 	H 	0.70473 0.64847 0.37577 0.08200
C 	C 	0.85913 0.71427 0.40277 -0.14500
H 	H 	0.88913 0.73597 0.42247 0.07100
N 	N 	0.97453 0.73007 0.32927 -0.21700
N 	N 	0.84683 0.68457 0.33837 -0.25000
C 	C 	0.78433 0.66667 0.34157 0.09800
H 	H 	0.75803 0.65317 0.31997 -0.01700
C 	C 	0.24573 0.92097 0.20097 -0.16300
H 	H 	0.29003 0.95787 0.19987 0.08400
C 	C 	0.79073 0.69037 0.40717 0.06000
H 	H 	0.77173 0.69077 0.43017 -0.01400
