data_crystal

_cell_length_a 30.42650
_cell_length_b 15.60320
_cell_length_c 21.90060
_cell_angle_alpha 90.00000
_cell_angle_beta  133.01600
_cell_angle_gamma 90.00000

_symmetry_space_group_name_	'P 1'
_symmetry_space_group_name_H-M	'P 1'

loop_
_symmetry_equiv_pos_as_xyz
  x,y,z

loop_
_atom_site_label
_atom_site_type_symbol
_atom_site_fract_x
_atom_site_fract_y
_atom_site_fract_z
_atom_site_charge
Sm	Sm	0.83148 0.87253 0.98570 1.57200
Sm	Sm	0.11041 0.86397 0.17475 1.56200
O 	O 	0.75240 0.77200 0.87130 -0.48800
O 	O 	0.72240 0.65340 0.79510 -0.44800
O 	O 	0.94000 0.85930 0.06950 -0.47900
O 	O 	0.02110 0.78680 0.11570 -0.51200
O 	O 	0.13400 0.96990 0.11800 -0.51400
O 	O 	0.17260 0.09470 0.12410 -0.49000
O 	O 	0.12160 0.88290 0.29510 -0.48900
O 	O 	0.15680 0.95230 0.40950 -0.52300
N 	N 	0.86580 0.73700 0.96390 -0.17700
N 	N 	0.16170 0.00060 0.25820 -0.17000
C 	C 	0.82690 0.67850 0.90600 -0.07400
C 	C 	0.84530 0.60240 0.89570 -0.00900
H 	H 	0.81690 0.56160 0.85470 0.02200
C 	C 	0.90680 0.58820 0.94740 -0.08700
H 	H 	0.92080 0.53700 0.94200 0.03300
C 	C 	0.94710 0.64820 0.00600 0.00500
H 	H 	0.98910 0.63920 0.04130 0.00200
C 	C 	0.92560 0.72230 0.01300 -0.09500
C 	C 	0.76200 0.70240 0.85350 0.37900
C 	C 	0.96560 0.79390 0.07160 0.39100
C 	C 	0.18480 0.05390 0.23830 -0.08900
C 	C 	0.22550 0.11660 0.29210 0.01300
H 	H 	0.24380 0.15100 0.27870 0.00600
C 	C 	0.23930 0.12830 0.36630 -0.09800
H 	H 	0.26660 0.17180 0.40440 0.03300
C 	C 	0.21260 0.07550 0.38400 0.01400
H 	H 	0.22040 0.08390 0.43360 -0.00100
C 	C 	0.17490 0.01120 0.32970 -0.09400
C 	C 	0.16250 0.03840 0.15350 0.40300
C 	C 	0.14830 0.94420 0.34570 0.40800
Sm	Sm	0.33148 0.37253 0.98570 1.57700
Sm	Sm	0.61041 0.36397 0.17475 1.56000
O 	O 	0.25240 0.27200 0.87130 -0.48900
O 	O 	0.22240 0.15340 0.79510 -0.44900
O 	O 	0.44000 0.35930 0.06950 -0.48100
O 	O 	0.52110 0.28680 0.11570 -0.51200
O 	O 	0.63400 0.46990 0.11800 -0.51600
O 	O 	0.67260 0.59470 0.12410 -0.49100
O 	O 	0.62160 0.38290 0.29510 -0.48900
O 	O 	0.65680 0.45230 0.40950 -0.52300
N 	N 	0.36580 0.23700 0.96390 -0.17600
N 	N 	0.66170 0.50060 0.25820 -0.16900
C 	C 	0.32690 0.17850 0.90600 -0.07300
C 	C 	0.34530 0.10240 0.89570 -0.01100
H 	H 	0.31690 0.06160 0.85470 0.02300
C 	C 	0.40680 0.08820 0.94740 -0.08200
H 	H 	0.42080 0.03700 0.94200 0.03200
C 	C 	0.44710 0.14820 0.00600 0.00000
H 	H 	0.48910 0.13920 0.04130 0.00300
C 	C 	0.42560 0.22230 0.01300 -0.09600
C 	C 	0.26200 0.20240 0.85350 0.37900
C 	C 	0.46560 0.29390 0.07160 0.39000
C 	C 	0.68480 0.55390 0.23830 -0.08900
C 	C 	0.72550 0.61660 0.29210 0.01300
H 	H 	0.74380 0.65100 0.27870 0.00600
C 	C 	0.73930 0.62830 0.36630 -0.09800
H 	H 	0.76660 0.67180 0.40440 0.03300
C 	C 	0.71260 0.57550 0.38400 0.01400
H 	H 	0.72040 0.58390 0.43360 -0.00100
C 	C 	0.67490 0.51120 0.32970 -0.09400
C 	C 	0.66250 0.53840 0.15350 0.40500
C 	C 	0.64830 0.44420 0.34570 0.40700
Sm	Sm	0.16852 0.87253 0.51430 1.57300
Sm	Sm	0.88959 0.86397 0.32525 1.56000
O 	O 	0.24760 0.77200 0.62870 -0.48900
O 	O 	0.27760 0.65340 0.70490 -0.44900
O 	O 	0.06000 0.85930 0.43050 -0.48100
O 	O 	0.97890 0.78680 0.38430 -0.51200
O 	O 	0.86600 0.96990 0.38200 -0.51600
O 	O 	0.82740 0.09470 0.37590 -0.49100
O 	O 	0.87840 0.88290 0.20490 -0.48900
O 	O 	0.84320 0.95230 0.09050 -0.52100
N 	N 	0.13420 0.73700 0.53610 -0.17700
N 	N 	0.83830 0.00060 0.24180 -0.17000
C 	C 	0.17310 0.67850 0.59400 -0.07400
C 	C 	0.15470 0.60240 0.60430 -0.00900
H 	H 	0.18310 0.56160 0.64530 0.02200
C 	C 	0.09320 0.58820 0.55260 -0.08500
H 	H 	0.07920 0.53700 0.55800 0.03200
C 	C 	0.05290 0.64820 0.49400 0.00300
H 	H 	0.01090 0.63920 0.45870 0.00200
C 	C 	0.07440 0.72230 0.48700 -0.09600
C 	C 	0.23800 0.70240 0.64650 0.37900
C 	C 	0.03440 0.79390 0.42840 0.39000
C 	C 	0.81520 0.05390 0.26170 -0.08900
C 	C 	0.77450 0.11660 0.20790 0.01300
H 	H 	0.75620 0.15100 0.22130 0.00600
C 	C 	0.76070 0.12830 0.13370 -0.09900
H 	H 	0.73340 0.17180 0.09560 0.03300
C 	C 	0.78740 0.07550 0.11600 0.01500
H 	H 	0.77960 0.08390 0.06640 -0.00200
C 	C 	0.82510 0.01120 0.17030 -0.09600
C 	C 	0.83750 0.03840 0.34650 0.40400
C 	C 	0.85170 0.94420 0.15430 0.40900
Sm	Sm	0.66852 0.37253 0.51430 1.57400
Sm	Sm	0.38959 0.36397 0.32525 1.56000
O 	O 	0.74760 0.27200 0.62870 -0.48900
O 	O 	0.77760 0.15340 0.70490 -0.44900
O 	O 	0.56000 0.35930 0.43050 -0.48100
O 	O 	0.47890 0.28680 0.38430 -0.51200
O 	O 	0.36600 0.46990 0.38200 -0.51600
O 	O 	0.32740 0.59470 0.37590 -0.49100
O 	O 	0.37840 0.38290 0.20490 -0.48900
O 	O 	0.34320 0.45230 0.09050 -0.52300
N 	N 	0.63420 0.23700 0.53610 -0.17700
N 	N 	0.33830 0.50060 0.24180 -0.16900
C 	C 	0.67310 0.17850 0.59400 -0.07400
C 	C 	0.65470 0.10240 0.60430 -0.00900
H 	H 	0.68310 0.06160 0.64530 0.02200
C 	C 	0.59320 0.08820 0.55260 -0.08500
H 	H 	0.57920 0.03700 0.55800 0.03300
C 	C 	0.55290 0.14820 0.49400 0.00300
H 	H 	0.51090 0.13920 0.45870 0.00200
C 	C 	0.57440 0.22230 0.48700 -0.09600
C 	C 	0.73800 0.20240 0.64650 0.37900
C 	C 	0.53440 0.29390 0.42840 0.39000
C 	C 	0.31520 0.55390 0.26170 -0.08900
C 	C 	0.27450 0.61660 0.20790 0.01300
H 	H 	0.25620 0.65100 0.22130 0.00600
C 	C 	0.26070 0.62830 0.13370 -0.09800
H 	H 	0.23340 0.67180 0.09560 0.03300
C 	C 	0.28740 0.57550 0.11600 0.01400
H 	H 	0.27960 0.58390 0.06640 -0.00100
C 	C 	0.32510 0.51120 0.17030 -0.09400
C 	C 	0.33750 0.53840 0.34650 0.40500
C 	C 	0.35170 0.44420 0.15430 0.40700
Sm	Sm	0.16852 0.12747 0.01430 1.57100
Sm	Sm	0.88959 0.13603 0.82525 1.56100
O 	O 	0.24760 0.22800 0.12870 -0.48900
O 	O 	0.27760 0.34660 0.20490 -0.44900
O 	O 	0.06000 0.14070 0.93050 -0.48000
O 	O 	0.97890 0.21320 0.88430 -0.51300
O 	O 	0.86600 0.03010 0.88200 -0.51500
O 	O 	0.82740 0.90530 0.87590 -0.49100
O 	O 	0.87840 0.11710 0.70490 -0.48900
O 	O 	0.84320 0.04770 0.59050 -0.52300
N 	N 	0.13420 0.26300 0.03610 -0.17700
N 	N 	0.83830 0.99940 0.74180 -0.17000
C 	C 	0.17310 0.32150 0.09400 -0.07400
C 	C 	0.15470 0.39760 0.10430 -0.00900
H 	H 	0.18310 0.43840 0.14530 0.02200
C 	C 	0.09320 0.41180 0.05260 -0.08700
H 	H 	0.07920 0.46300 0.05800 0.03300
C 	C 	0.05290 0.35180 0.99400 0.00500
H 	H 	0.01090 0.36080 0.95870 0.00200
C 	C 	0.07440 0.27770 0.98700 -0.09500
C 	C 	0.23800 0.29760 0.14650 0.37900
C 	C 	0.03440 0.20610 0.92840 0.39100
C 	C 	0.81520 0.94610 0.76170 -0.08900
C 	C 	0.77450 0.88340 0.70790 0.01300
H 	H 	0.75620 0.84900 0.72130 0.00600
C 	C 	0.76070 0.87170 0.63370 -0.09800
H 	H 	0.73340 0.82820 0.59560 0.03300
C 	C 	0.78740 0.92450 0.61600 0.01400
H 	H 	0.77960 0.91610 0.56640 -0.00100
C 	C 	0.82510 0.98880 0.67030 -0.09400
C 	C 	0.83750 0.96160 0.84650 0.40300
C 	C 	0.85170 0.05580 0.65430 0.40800
Sm	Sm	0.66852 0.62747 0.01430 1.57700
Sm	Sm	0.38959 0.63603 0.82525 1.56000
O 	O 	0.74760 0.72800 0.12870 -0.48900
O 	O 	0.77760 0.84660 0.20490 -0.44900
O 	O 	0.56000 0.64070 0.93050 -0.48100
O 	O 	0.47890 0.71320 0.88430 -0.51200
O 	O 	0.36600 0.53010 0.88200 -0.51600
O 	O 	0.32740 0.40530 0.87590 -0.49100
O 	O 	0.37840 0.61710 0.70490 -0.48900
O 	O 	0.34320 0.54770 0.59050 -0.52300
N 	N 	0.63420 0.76300 0.03610 -0.17600
N 	N 	0.33830 0.49940 0.74180 -0.16900
C 	C 	0.67310 0.82150 0.09400 -0.07300
C 	C 	0.65470 0.89760 0.10430 -0.01100
H 	H 	0.68310 0.93840 0.14530 0.02300
C 	C 	0.59320 0.91180 0.05260 -0.08200
H 	H 	0.57920 0.96300 0.05800 0.03200
C 	C 	0.55290 0.85180 0.99400 0.00000
H 	H 	0.51090 0.86080 0.95870 0.00300
C 	C 	0.57440 0.77770 0.98700 -0.09600
C 	C 	0.73800 0.79760 0.14650 0.37900
C 	C 	0.53440 0.70610 0.92840 0.39000
C 	C 	0.31520 0.44610 0.76170 -0.08900
C 	C 	0.27450 0.38340 0.70790 0.01300
H 	H 	0.25620 0.34900 0.72130 0.00600
C 	C 	0.26070 0.37170 0.63370 -0.09800
H 	H 	0.23340 0.32820 0.59560 0.03300
C 	C 	0.28740 0.42450 0.61600 0.01400
H 	H 	0.27960 0.41610 0.56640 -0.00100
C 	C 	0.32510 0.48880 0.67030 -0.09400
C 	C 	0.33750 0.46160 0.84650 0.40500
C 	C 	0.35170 0.55580 0.65430 0.40700
Sm	Sm	0.83148 0.12747 0.48570 1.57300
Sm	Sm	0.11041 0.13603 0.67475 1.56000
O 	O 	0.75240 0.22800 0.37130 -0.48900
O 	O 	0.72240 0.34660 0.29510 -0.44900
O 	O 	0.94000 0.14070 0.56950 -0.48100
O 	O 	0.02110 0.21320 0.61570 -0.51200
O 	O 	0.13400 0.03010 0.61800 -0.51600
O 	O 	0.17260 0.90530 0.62410 -0.49100
O 	O 	0.12160 0.11710 0.79510 -0.48900
O 	O 	0.15680 0.04770 0.90950 -0.52100
N 	N 	0.86580 0.26300 0.46390 -0.17700
N 	N 	0.16170 0.99940 0.75820 -0.17000
C 	C 	0.82690 0.32150 0.40600 -0.07400
C 	C 	0.84530 0.39760 0.39570 -0.00900
H 	H 	0.81690 0.43840 0.35470 0.02200
C 	C 	0.90680 0.41180 0.44740 -0.08500
H 	H 	0.92080 0.46300 0.44200 0.03200
C 	C 	0.94710 0.35180 0.50600 0.00300
H 	H 	0.98910 0.36080 0.54130 0.00200
C 	C 	0.92560 0.27770 0.51300 -0.09600
C 	C 	0.76200 0.29760 0.35350 0.37900
C 	C 	0.96560 0.20610 0.57160 0.39000
C 	C 	0.18480 0.94610 0.73830 -0.08900
C 	C 	0.22550 0.88340 0.79210 0.01300
H 	H 	0.24380 0.84900 0.77870 0.00600
C 	C 	0.23930 0.87170 0.86630 -0.09900
H 	H 	0.26660 0.82820 0.90440 0.03300
C 	C 	0.21260 0.92450 0.88400 0.01500
H 	H 	0.22040 0.91610 0.93360 -0.00200
C 	C 	0.17490 0.98880 0.82970 -0.09600
C 	C 	0.16250 0.96160 0.65350 0.40400
C 	C 	0.14830 0.05580 0.84570 0.40900
Sm	Sm	0.33148 0.62747 0.48570 1.57400
Sm	Sm	0.61041 0.63603 0.67475 1.56000
O 	O 	0.25240 0.72800 0.37130 -0.48900
O 	O 	0.22240 0.84660 0.29510 -0.44900
O 	O 	0.44000 0.64070 0.56950 -0.48100
O 	O 	0.52110 0.71320 0.61570 -0.51200
O 	O 	0.63400 0.53010 0.61800 -0.51600
O 	O 	0.67260 0.40530 0.62410 -0.49100
O 	O 	0.62160 0.61710 0.79510 -0.48900
O 	O 	0.65680 0.54770 0.90950 -0.52300
N 	N 	0.36580 0.76300 0.46390 -0.17700
N 	N 	0.66170 0.49940 0.75820 -0.16900
C 	C 	0.32690 0.82150 0.40600 -0.07400
C 	C 	0.34530 0.89760 0.39570 -0.00900
H 	H 	0.31690 0.93840 0.35470 0.02200
C 	C 	0.40680 0.91180 0.44740 -0.08500
H 	H 	0.42080 0.96300 0.44200 0.03300
C 	C 	0.44710 0.85180 0.50600 0.00300
H 	H 	0.48910 0.86080 0.54130 0.00200
C 	C 	0.42560 0.77770 0.51300 -0.09600
C 	C 	0.26200 0.79760 0.35350 0.37900
C 	C 	0.46560 0.70610 0.57160 0.39000
C 	C 	0.68480 0.44610 0.73830 -0.08900
C 	C 	0.72550 0.38340 0.79210 0.01300
H 	H 	0.74380 0.34900 0.77870 0.00600
C 	C 	0.73930 0.37170 0.86630 -0.09800
H 	H 	0.76660 0.32820 0.90440 0.03300
C 	C 	0.71260 0.42450 0.88400 0.01400
H 	H 	0.72040 0.41610 0.93360 -0.00100
C 	C 	0.67490 0.48880 0.82970 -0.09400
C 	C 	0.66250 0.46160 0.65350 0.40500
C 	C 	0.64830 0.55580 0.84570 0.40700
