data_crystal

_cell_length_a 13.12330
_cell_length_b 13.12330
_cell_length_c 13.87900
_cell_angle_alpha 89.21440
_cell_angle_beta  89.21440
_cell_angle_gamma 82.75630

_symmetry_space_group_name_	'P 1'
_symmetry_space_group_name_H-M	'P 1'

loop_
_symmetry_equiv_pos_as_xyz
  x,y,z

loop_
_atom_site_label
_atom_site_type_symbol
_atom_site_fract_x
_atom_site_fract_y
_atom_site_fract_z
_atom_site_charge
Cd	Cd	0.82580 0.35136 0.67747 1.17600
Cd	Cd	0.75473 0.96569 0.39963 1.16900
Cd	Cd	0.64864 0.17420 0.82253 1.17500
Cd	Cd	0.03431 0.24527 0.10037 1.14100
Cd	Cd	0.17420 0.64864 0.32253 1.17100
Cd	Cd	0.24527 0.03431 0.60037 1.14900
Cd	Cd	0.35136 0.82580 0.17747 1.17300
Cd	Cd	0.96569 0.75473 0.89963 1.17300
Cd	Cd	0.37546 0.62454 0.75000 1.13600
Cd	Cd	0.62454 0.37546 0.25000 1.13300
Cd	Cd	0.50000 0.00000 -0.00000 1.15200
Cd	Cd	-0.00000 0.50000 0.50000 1.16400
H 	H 	0.62500 0.55060 0.68350 -0.06100
H 	H 	0.66510 0.00390 0.62870 -0.07400
H 	H 	0.84660 0.17260 0.49350 -0.04400
H 	H 	0.35040 0.64980 0.99390 -0.06400
H 	H 	0.49980 0.81920 0.82130 -0.06000
H 	H 	0.83830 0.54570 0.85210 -0.05600
H 	H 	0.01320 0.68000 0.67350 -0.08500
H 	H 	0.17960 0.27800 0.49510 -0.06100
H 	H 	0.01610 0.14810 0.68370 -0.02800
H 	H 	0.00240 0.02200 0.40860 -0.09600
H 	H 	0.44940 0.37500 0.81650 -0.05900
H 	H 	0.99610 0.33490 0.87130 -0.05400
H 	H 	0.82740 0.15340 0.00650 -0.09600
H 	H 	0.35020 0.64960 0.50610 -0.06400
H 	H 	0.18080 0.50020 0.67870 -0.07000
H 	H 	0.45430 0.16170 0.64790 -0.06700
H 	H 	0.32000 0.98680 0.82650 -0.00900
H 	H 	0.72200 0.82040 0.00490 -0.09700
H 	H 	0.85190 0.98390 0.81630 -0.02100
H 	H 	0.97800 0.99760 0.09140 0.02300
H 	H 	0.37500 0.44940 0.31650 -0.06400
H 	H 	0.33490 0.99610 0.37130 -0.05800
H 	H 	0.15340 0.82740 0.50650 -0.04800
H 	H 	0.64960 0.35020 0.00610 -0.06500
H 	H 	0.50020 0.18080 0.17870 -0.07300
H 	H 	0.16170 0.45430 0.14790 -0.07300
H 	H 	0.98680 0.32000 0.32650 -0.00800
H 	H 	0.82040 0.72200 0.50490 -0.05500
H 	H 	0.98390 0.85190 0.31630 -0.02100
H 	H 	0.99760 0.97800 0.59140 0.02400
H 	H 	0.55060 0.62500 0.18350 -0.06500
H 	H 	0.00390 0.66510 0.12870 -0.08000
H 	H 	0.17260 0.84660 0.99350 0.00100
H 	H 	0.64980 0.35040 0.49390 -0.06600
H 	H 	0.81920 0.49980 0.32130 -0.06200
H 	H 	0.54570 0.83830 0.35210 -0.06200
H 	H 	0.68000 0.01320 0.17350 -0.09400
H 	H 	0.27800 0.17960 0.99510 -0.00700
H 	H 	0.14810 0.01610 0.18370 -0.02900
H 	H 	0.02200 0.00240 0.90860 -0.08000
H 	H 	0.83000 0.17000 0.25000 -0.11800
H 	H 	0.17000 0.83000 0.75000 -0.11400
C 	C 	0.60070 0.49310 0.71430 0.08200
C 	C 	0.70620 0.05660 0.61300 0.07700
C 	C 	0.80310 0.14710 0.54080 0.08400
C 	C 	0.38710 0.70270 0.96950 0.11500
C 	C 	0.46730 0.79370 0.87660 0.07400
C 	C 	0.87660 0.56180 0.79660 0.07600
C 	C 	0.97050 0.63370 0.70070 0.12500
C 	C 	0.12630 0.26510 0.53900 0.09300
C 	C 	0.03940 0.19600 0.63930 0.04600
C 	C 	0.97710 0.05610 0.35130 0.18200
C 	C 	0.50690 0.39930 0.78570 0.08300
C 	C 	0.94340 0.29380 0.88700 0.08500
C 	C 	0.85290 0.19690 0.95920 0.15500
C 	C 	0.29730 0.61290 0.53050 0.07700
C 	C 	0.20630 0.53270 0.62340 0.07000
C 	C 	0.43820 0.12340 0.70340 0.07200
C 	C 	0.36630 0.02950 0.79930 0.02300
C 	C 	0.73490 0.87370 0.96100 0.15800
C 	C 	0.80400 0.96060 0.86070 0.11300
C 	C 	0.94390 0.02290 0.14870 0.01400
C 	C 	0.39930 0.50690 0.28570 0.07800
C 	C 	0.29380 0.94340 0.38700 0.08400
C 	C 	0.19690 0.85290 0.45920 0.08700
C 	C 	0.61290 0.29730 0.03050 0.03500
C 	C 	0.53270 0.20630 0.12340 0.06800
C 	C 	0.12340 0.43820 0.20340 0.07000
C 	C 	0.02950 0.36630 0.29930 0.01300
C 	C 	0.87370 0.73490 0.46100 0.09900
C 	C 	0.96060 0.80400 0.36070 0.11600
C 	C 	0.02290 0.94390 0.64870 0.02500
C 	C 	0.49310 0.60070 0.21430 0.07800
C 	C 	0.05660 0.70620 0.11300 0.07500
C 	C 	0.14710 0.80310 0.04080 0.02000
C 	C 	0.70270 0.38710 0.46950 0.07800
C 	C 	0.79370 0.46730 0.37660 0.07100
C 	C 	0.56180 0.87660 0.29660 0.07400
C 	C 	0.63370 0.97050 0.20070 0.13000
C 	C 	0.26510 0.12630 0.03900 0.01700
C 	C 	0.19600 0.03940 0.13930 0.03900
C 	C 	0.05610 0.97710 0.85130 0.17100
C 	C 	0.88480 0.11520 0.25000 0.19200
C 	C 	0.11520 0.88480 0.75000 0.19100
N 	N 	0.65800 0.40300 0.72640 -0.23000
N 	N 	0.77980 0.19300 0.62290 -0.22100
N 	N 	0.71650 0.13350 0.67030 -0.23000
N 	N 	0.75980 0.06040 0.52950 -0.30100
N 	N 	0.41260 0.77740 0.02240 -0.25600
N 	N 	0.41840 0.70860 0.87650 -0.30600
N 	N 	0.46440 0.83700 0.96200 -0.20500
N 	N 	0.88350 0.50710 0.71690 -0.22500
N 	N 	0.93020 0.64340 0.79030 -0.29500
N 	N 	0.94490 0.55390 0.65430 -0.23000
N 	N 	0.04560 0.33200 0.55550 -0.24400
N 	N 	0.12770 0.17750 0.58890 -0.27500
N 	N 	0.98810 0.28690 0.62120 -0.19900
N 	N 	0.88080 0.05260 0.32050 -0.29600
N 	N 	0.03330 0.10990 0.29650 -0.20500
N 	N 	0.59700 0.34200 0.77360 -0.22900
N 	N 	0.80700 0.22020 0.87710 -0.23100
N 	N 	0.86650 0.28350 0.82970 -0.22600
N 	N 	0.93960 0.24020 0.97050 -0.28700
N 	N 	0.22260 0.58740 0.47760 -0.22700
N 	N 	0.29140 0.58160 0.62350 -0.30400
N 	N 	0.16300 0.53560 0.53800 -0.23200
N 	N 	0.49290 0.11650 0.78310 -0.22800
N 	N 	0.35660 0.06980 0.70970 -0.29100
N 	N 	0.44610 0.05510 0.84570 -0.21800
N 	N 	0.66800 0.95440 0.94450 -0.21500
N 	N 	0.82250 0.87230 0.91110 -0.27800
N 	N 	0.71310 0.01190 0.87880 -0.24600
N 	N 	0.94740 0.11920 0.17950 -0.25500
N 	N 	0.89010 0.96670 0.20350 -0.12900
N 	N 	0.34200 0.59700 0.27360 -0.23300
N 	N 	0.22020 0.80700 0.37710 -0.22300
N 	N 	0.28350 0.86650 0.32970 -0.22700
N 	N 	0.24020 0.93960 0.47050 -0.28800
N 	N 	0.58740 0.22260 0.97760 -0.19000
N 	N 	0.58160 0.29140 0.12350 -0.30100
N 	N 	0.53560 0.16300 0.03800 -0.25100
N 	N 	0.11650 0.49290 0.28310 -0.23000
N 	N 	0.06980 0.35660 0.20970 -0.29400
N 	N 	0.05510 0.44610 0.34570 -0.22500
N 	N 	0.95440 0.66800 0.44450 -0.21200
N 	N 	0.87230 0.82250 0.41110 -0.27400
N 	N 	0.01190 0.71310 0.37880 -0.25300
N 	N 	0.11920 0.94740 0.67950 -0.25400
N 	N 	0.96670 0.89010 0.70350 -0.13200
N 	N 	0.40300 0.65800 0.22640 -0.23300
N 	N 	0.19300 0.77980 0.12290 -0.21400
N 	N 	0.13350 0.71650 0.17030 -0.23100
N 	N 	0.06040 0.75980 0.02950 -0.30200
N 	N 	0.77740 0.41260 0.52240 -0.22500
N 	N 	0.70860 0.41840 0.37650 -0.30400
N 	N 	0.83700 0.46440 0.46200 -0.22300
N 	N 	0.50710 0.88350 0.21690 -0.22700
N 	N 	0.64340 0.93020 0.29030 -0.29900
N 	N 	0.55390 0.94490 0.15430 -0.23400
N 	N 	0.33200 0.04560 0.05550 -0.24000
N 	N 	0.17750 0.12770 0.08890 -0.26900
N 	N 	0.28690 0.98810 0.12120 -0.19800
N 	N 	0.05260 0.88080 0.82050 -0.29000
N 	N 	0.10990 0.03330 0.79650 -0.19700
N 	N 	0.50550 0.49450 0.75000 -0.28900
N 	N 	0.49450 0.50550 0.25000 -0.29100
