data_crystal

_cell_length_a 17.58110
_cell_length_b 14.09780
_cell_length_c 18.78710
_cell_angle_alpha 90.00000
_cell_angle_beta  97.72300
_cell_angle_gamma 90.00000

_symmetry_space_group_name_	'P 1'
_symmetry_space_group_name_H-M	'P 1'

loop_
_symmetry_equiv_pos_as_xyz
  x,y,z

loop_
_atom_site_label
_atom_site_type_symbol
_atom_site_fract_x
_atom_site_fract_y
_atom_site_fract_z
_atom_site_charge
Mn	Mn	0.61542 0.42917 0.99462 1.29800
Mn	Mn	0.86755 0.57668 0.99482 1.30000
N 	N 	0.67566 0.31326 0.93197 -0.21900
O 	O 	0.81913 0.02675 0.55779 -0.45500
O 	O 	0.71076 0.09754 0.57924 -0.43800
C 	C 	0.77784 0.06765 0.59772 0.40100
C 	C 	0.81179 0.08453 0.67527 -0.11400
C 	C 	0.77125 0.13520 0.72116 0.00200
H 	H 	0.72150 0.15840 0.70380 0.03800
C 	C 	0.80230 0.15274 0.79236 -0.03500
C 	C 	0.87612 0.11909 0.81655 -0.02300
H 	H 	0.89880 0.13190 0.86440 0.03800
C 	C 	0.91646 0.06733 0.77141 -0.06800
H 	H 	0.96610 0.04370 0.78870 0.05400
C 	C 	0.88443 0.04982 0.70080 0.01300
H 	H 	0.91220 0.01410 0.67000 0.03500
C 	C 	0.64150 0.24671 0.88724 0.08100
H 	H 	0.58810 0.23620 0.88670 -0.00100
C 	C 	0.67998 0.19276 0.84198 -0.14600
H 	H 	0.65300 0.14660 0.81150 0.07700
C 	C 	0.75826 0.20633 0.84113 0.08800
C 	C 	0.79410 0.27345 0.88873 -0.14100
H 	H 	0.84780 0.28380 0.89140 0.08500
C 	C 	0.75169 0.32477 0.93186 0.07400
H 	H 	0.77750 0.37080 0.96330 0.00100
N 	N 	0.54589 0.16195 0.56484 -0.22800
O 	O 	0.41212 0.45405 0.93935 -0.44800
O 	O 	0.52372 0.40370 0.90836 -0.44600
C 	C 	0.45275 0.42038 0.89576 0.39000
C 	C 	0.41376 0.39516 0.82099 -0.10500
C 	C 	0.45332 0.34543 0.77356 -0.00200
H 	H 	0.50510 0.32750 0.78830 0.04000
C 	C 	0.41855 0.32119 0.70465 -0.03100
C 	C 	0.34262 0.34976 0.68323 -0.02500
H 	H 	0.31820 0.33510 0.63630 0.03900
C 	C 	0.30291 0.39948 0.73036 -0.06400
H 	H 	0.25150 0.41880 0.71540 0.05200
C 	C 	0.33791 0.42118 0.79933 0.01200
H 	H 	0.30990 0.45380 0.83170 0.03600
C 	C 	0.55686 0.15001 0.63663 0.07500
H 	H 	0.59440 0.10550 0.65650 0.00100
C 	C 	0.51649 0.19906 0.68280 -0.13800
H 	H 	0.52600 0.18710 0.73300 0.07700
C 	C 	0.46143 0.26650 0.65592 0.08600
C 	C 	0.44909 0.27758 0.58177 -0.14300
H 	H 	0.41170 0.32130 0.56030 0.07600
C 	C 	0.49177 0.22435 0.53935 0.08100
H 	H 	0.48190 0.23280 0.48880 -0.00500
N 	N 	0.07258 0.18314 0.57050 -0.22600
O 	O 	0.92325 0.46674 0.94139 -0.44200
O 	O 	0.03598 0.40659 0.92025 -0.43000
C 	C 	0.96783 0.43324 0.90095 0.39000
C 	C 	0.93740 0.42144 0.82254 -0.11100
C 	C 	0.97867 0.36959 0.77757 -0.00600
H 	H 	0.02770 0.34500 0.79590 0.04200
C 	C 	0.94905 0.35329 0.70610 -0.03000
C 	C 	0.87725 0.39087 0.67943 -0.02600
H 	H 	0.85610 0.37960 0.63090 0.04000
C 	C 	0.83718 0.44416 0.72333 -0.06400
H 	H 	0.78910 0.47100 0.70440 0.05500
C 	C 	0.86616 0.45927 0.79509 0.01000
H 	H 	0.83760 0.49510 0.82520 0.03400
C 	C 	0.10892 0.24556 0.61732 0.07700
H 	H 	0.16310 0.25120 0.61990 0.00100
C 	C 	0.07190 0.30185 0.66189 -0.14000
H 	H 	0.10040 0.34450 0.69440 0.07700
C 	C 	0.99218 0.29577 0.65888 0.08100
C 	C 	0.95442 0.23182 0.60968 -0.13600
H 	H 	0.90010 0.22620 0.60480 0.08300
C 	C 	0.99605 0.17681 0.56815 0.07000
H 	H 	0.96930 0.13210 0.53620 0.00800
N 	N 	0.80877 0.80626 0.55365 -0.22400
O 	O 	0.66322 0.52969 0.92912 -0.45100
O 	O 	0.77492 0.58999 0.90652 -0.44300
C 	C 	0.70700 0.56211 0.88780 0.40100
C 	C 	0.67616 0.56943 0.80835 -0.10500
C 	C 	0.71610 0.62170 0.76243 -0.00100
H 	H 	0.76320 0.65120 0.78090 0.04000
C 	C 	0.68789 0.63130 0.68961 -0.03000
C 	C 	0.61879 0.58606 0.66333 -0.02700
H 	H 	0.59870 0.59190 0.61400 0.03600
C 	C 	0.57949 0.53296 0.70854 -0.06300
H 	H 	0.53300 0.50200 0.68990 0.05100
C 	C 	0.60772 0.52465 0.78117 0.01000
H 	H 	0.58040 0.48850 0.81210 0.03900
C 	C 	0.84657 0.74978 0.60464 0.07300
H 	H 	0.90110 0.75010 0.61040 0.00300
C 	C 	0.81065 0.69151 0.64893 -0.13900
H 	H 	0.84020 0.65370 0.68420 0.07700
C 	C 	0.73011 0.68851 0.64147 0.08100
C 	C 	0.69195 0.74438 0.58708 -0.13300
H 	H 	0.63750 0.74280 0.57820 0.07900
C 	C 	0.73177 0.80186 0.54597 0.06800
H 	H 	0.70340 0.84040 0.51030 0.01100
Mn	Mn	0.38458 0.92917 0.50538 1.29900
Mn	Mn	0.13245 0.07668 0.50518 1.30200
N 	N 	0.32434 0.81326 0.56803 -0.21800
O 	O 	0.18087 0.52675 0.94221 -0.45200
O 	O 	0.28924 0.59754 0.92076 -0.43600
C 	C 	0.22216 0.56765 0.90228 0.40200
C 	C 	0.18821 0.58453 0.82473 -0.11300
C 	C 	0.22875 0.63520 0.77884 0.00300
H 	H 	0.27850 0.65840 0.79620 0.04000
C 	C 	0.19770 0.65274 0.70764 -0.03400
C 	C 	0.12388 0.61909 0.68345 -0.02300
H 	H 	0.10120 0.63190 0.63560 0.03800
C 	C 	0.08354 0.56733 0.72859 -0.06800
H 	H 	0.03390 0.54370 0.71130 0.05600
C 	C 	0.11557 0.54982 0.79920 0.01300
H 	H 	0.08780 0.51410 0.83000 0.03500
C 	C 	0.35850 0.74671 0.61276 0.08100
H 	H 	0.41190 0.73620 0.61330 -0.00100
C 	C 	0.32002 0.69276 0.65802 -0.14500
H 	H 	0.34700 0.64660 0.68850 0.07700
C 	C 	0.24174 0.70633 0.65887 0.08800
C 	C 	0.20590 0.77345 0.61127 -0.14100
H 	H 	0.15220 0.78380 0.60860 0.08500
C 	C 	0.24831 0.82477 0.56814 0.07400
H 	H 	0.22250 0.87080 0.53670 0.00100
N 	N 	0.45411 0.66195 0.93516 -0.22800
O 	O 	0.58788 0.95405 0.56065 -0.44800
O 	O 	0.47628 0.90370 0.59164 -0.44600
C 	C 	0.54725 0.92038 0.60424 0.39000
C 	C 	0.58624 0.89516 0.67901 -0.10500
C 	C 	0.54668 0.84543 0.72644 -0.00200
H 	H 	0.49490 0.82750 0.71170 0.04000
C 	C 	0.58145 0.82119 0.79535 -0.03100
C 	C 	0.65738 0.84976 0.81677 -0.02500
H 	H 	0.68180 0.83510 0.86370 0.03900
C 	C 	0.69709 0.89948 0.76964 -0.06400
H 	H 	0.74850 0.91880 0.78460 0.05200
C 	C 	0.66209 0.92118 0.70067 0.01200
H 	H 	0.69010 0.95380 0.66830 0.03600
C 	C 	0.44314 0.65001 0.86337 0.07500
H 	H 	0.40560 0.60550 0.84350 0.00100
C 	C 	0.48351 0.69906 0.81720 -0.13800
H 	H 	0.47400 0.68710 0.76700 0.07700
C 	C 	0.53857 0.76650 0.84408 0.08600
C 	C 	0.55091 0.77758 0.91823 -0.14200
H 	H 	0.58830 0.82130 0.93970 0.07600
C 	C 	0.50823 0.72435 0.96065 0.08000
H 	H 	0.51810 0.73280 0.01120 -0.00400
N 	N 	0.92742 0.68314 0.92950 -0.23100
O 	O 	0.07675 0.96674 0.55861 -0.44300
O 	O 	0.96402 0.90659 0.57975 -0.43700
C 	C 	0.03217 0.93324 0.59905 0.40000
C 	C 	0.06260 0.92144 0.67746 -0.11900
C 	C 	0.02133 0.86959 0.72243 0.01200
H 	H 	0.97230 0.84500 0.70410 0.03300
C 	C 	0.05095 0.85329 0.79390 -0.04000
C 	C 	0.12275 0.89087 0.82057 -0.01800
H 	H 	0.14390 0.87960 0.86910 0.03700
C 	C 	0.16282 0.94416 0.77667 -0.07100
H 	H 	0.21090 0.97100 0.79560 0.05700
C 	C 	0.13384 0.95927 0.70491 0.01800
H 	H 	0.16240 0.99510 0.67480 0.03100
C 	C 	0.89108 0.74556 0.88268 0.08200
H 	H 	0.83690 0.75120 0.88010 -0.00200
C 	C 	0.92810 0.80185 0.83811 -0.15400
H 	H 	0.89960 0.84450 0.80560 0.08100
C 	C 	0.00782 0.79577 0.84112 0.09500
C 	C 	0.04558 0.73182 0.89032 -0.14500
H 	H 	0.09990 0.72620 0.89520 0.08600
C 	C 	0.00395 0.67681 0.93185 0.08000
H 	H 	0.03070 0.63210 0.96380 0.00600
N 	N 	0.19123 0.30626 0.94635 -0.22300
O 	O 	0.33678 0.02969 0.57088 -0.45000
O 	O 	0.22508 0.08999 0.59348 -0.44200
C 	C 	0.29300 0.06211 0.61220 0.40100
C 	C 	0.32384 0.06943 0.69165 -0.10500
C 	C 	0.28390 0.12170 0.73757 -0.00100
H 	H 	0.23680 0.15120 0.71910 0.04000
C 	C 	0.31211 0.13130 0.81039 -0.03000
C 	C 	0.38121 0.08606 0.83667 -0.02700
H 	H 	0.40130 0.09190 0.88600 0.03600
C 	C 	0.42051 0.03296 0.79146 -0.06300
H 	H 	0.46700 0.00200 0.81010 0.05100
C 	C 	0.39228 0.02465 0.71883 0.01000
H 	H 	0.41960 0.98850 0.68790 0.03800
C 	C 	0.15343 0.24978 0.89536 0.07300
H 	H 	0.09890 0.25010 0.88960 0.00400
C 	C 	0.18935 0.19151 0.85107 -0.13900
H 	H 	0.15980 0.15370 0.81580 0.07800
C 	C 	0.26989 0.18851 0.85853 0.08100
C 	C 	0.30805 0.24438 0.91292 -0.13300
H 	H 	0.36250 0.24280 0.92180 0.07900
C 	C 	0.26823 0.30186 0.95403 0.06800
H 	H 	0.29660 0.34040 0.98970 0.01200
Mn	Mn	0.38458 0.57083 0.00538 1.29900
Mn	Mn	0.13245 0.42332 0.00518 1.30100
N 	N 	0.32434 0.68674 0.06803 -0.21800
O 	O 	0.18087 0.97325 0.44221 -0.45400
O 	O 	0.28924 0.90246 0.42076 -0.43700
C 	C 	0.22216 0.93235 0.40228 0.40200
C 	C 	0.18821 0.91547 0.32473 -0.11300
C 	C 	0.22875 0.86480 0.27884 0.00300
H 	H 	0.27850 0.84160 0.29620 0.03900
C 	C 	0.19770 0.84726 0.20764 -0.03400
C 	C 	0.12388 0.88091 0.18345 -0.02300
H 	H 	0.10120 0.86810 0.13560 0.03800
C 	C 	0.08354 0.93267 0.22859 -0.06800
H 	H 	0.03390 0.95630 0.21130 0.05400
C 	C 	0.11557 0.95018 0.29920 0.01300
H 	H 	0.08780 0.98590 0.33000 0.03500
C 	C 	0.35850 0.75329 0.11276 0.08100
H 	H 	0.41190 0.76380 0.11330 -0.00100
C 	C 	0.32002 0.80724 0.15802 -0.14600
H 	H 	0.34700 0.85340 0.18850 0.07700
C 	C 	0.24174 0.79367 0.15887 0.08800
C 	C 	0.20590 0.72655 0.11127 -0.14100
H 	H 	0.15220 0.71620 0.10860 0.08500
C 	C 	0.24831 0.67523 0.06814 0.07400
H 	H 	0.22250 0.62920 0.03670 0.00100
N 	N 	0.45411 0.83805 0.43516 -0.22800
O 	O 	0.58788 0.54595 0.06065 -0.44800
O 	O 	0.47628 0.59630 0.09164 -0.44600
C 	C 	0.54725 0.57962 0.10424 0.39000
C 	C 	0.58624 0.60484 0.17901 -0.10500
C 	C 	0.54668 0.65457 0.22644 -0.00200
H 	H 	0.49490 0.67250 0.21170 0.04000
C 	C 	0.58145 0.67881 0.29535 -0.03100
C 	C 	0.65738 0.65024 0.31677 -0.02500
H 	H 	0.68180 0.66490 0.36370 0.03900
C 	C 	0.69709 0.60052 0.26964 -0.06400
H 	H 	0.74850 0.58120 0.28460 0.05200
C 	C 	0.66209 0.57882 0.20067 0.01200
H 	H 	0.69010 0.54620 0.16830 0.03600
C 	C 	0.44314 0.84999 0.36337 0.07500
H 	H 	0.40560 0.89450 0.34350 0.00100
C 	C 	0.48351 0.80094 0.31720 -0.13800
H 	H 	0.47400 0.81290 0.26700 0.07700
C 	C 	0.53857 0.73350 0.34408 0.08600
C 	C 	0.55091 0.72242 0.41823 -0.14300
H 	H 	0.58830 0.67870 0.43970 0.07600
C 	C 	0.50823 0.77565 0.46065 0.08100
H 	H 	0.51810 0.76720 0.51120 -0.00500
N 	N 	0.92742 0.81686 0.42950 -0.22600
O 	O 	0.07675 0.53326 0.05861 -0.44200
O 	O 	0.96402 0.59341 0.07975 -0.43000
C 	C 	0.03217 0.56676 0.09905 0.39000
C 	C 	0.06260 0.57856 0.17746 -0.11100
C 	C 	0.02133 0.63041 0.22243 -0.00600
H 	H 	0.97230 0.65500 0.20410 0.04200
C 	C 	0.05095 0.64671 0.29390 -0.03000
C 	C 	0.12275 0.60913 0.32057 -0.02600
H 	H 	0.14390 0.62040 0.36910 0.04000
C 	C 	0.16282 0.55584 0.27667 -0.06400
H 	H 	0.21090 0.52900 0.29560 0.05500
C 	C 	0.13384 0.54073 0.20491 0.01000
H 	H 	0.16240 0.50490 0.17480 0.03400
C 	C 	0.89108 0.75444 0.38268 0.07700
H 	H 	0.83690 0.74880 0.38010 0.00100
C 	C 	0.92810 0.69815 0.33811 -0.14000
H 	H 	0.89960 0.65550 0.30560 0.07700
C 	C 	0.00782 0.70423 0.34112 0.08100
C 	C 	0.04558 0.76818 0.39032 -0.13600
H 	H 	0.09990 0.77380 0.39520 0.08300
C 	C 	0.00395 0.82319 0.43185 0.07000
H 	H 	0.03070 0.86790 0.46380 0.00800
N 	N 	0.19123 0.19374 0.44635 -0.22400
O 	O 	0.33678 0.47031 0.07088 -0.45100
O 	O 	0.22508 0.41001 0.09348 -0.44300
C 	C 	0.29300 0.43789 0.11220 0.40100
C 	C 	0.32384 0.43057 0.19165 -0.10500
C 	C 	0.28390 0.37830 0.23757 -0.00100
H 	H 	0.23680 0.34880 0.21910 0.04000
C 	C 	0.31211 0.36870 0.31039 -0.03000
C 	C 	0.38121 0.41394 0.33667 -0.02700
H 	H 	0.40130 0.40810 0.38600 0.03600
C 	C 	0.42051 0.46704 0.29146 -0.06300
H 	H 	0.46700 0.49800 0.31010 0.05100
C 	C 	0.39228 0.47535 0.21883 0.01000
H 	H 	0.41960 0.51150 0.18790 0.03900
C 	C 	0.15343 0.25022 0.39536 0.07300
H 	H 	0.09890 0.24990 0.38960 0.00300
C 	C 	0.18935 0.30849 0.35107 -0.13900
H 	H 	0.15980 0.34630 0.31580 0.07700
C 	C 	0.26989 0.31149 0.35853 0.08100
C 	C 	0.30805 0.25562 0.41292 -0.13300
H 	H 	0.36250 0.25720 0.42180 0.07900
C 	C 	0.26823 0.19814 0.45403 0.06800
H 	H 	0.29660 0.15960 0.48970 0.01100
Mn	Mn	0.61542 0.07083 0.49462 1.29900
Mn	Mn	0.86755 0.92332 0.49482 1.30200
N 	N 	0.67566 0.18674 0.43197 -0.21800
O 	O 	0.81913 0.47325 0.05779 -0.45200
O 	O 	0.71076 0.40246 0.07924 -0.43600
C 	C 	0.77784 0.43235 0.09772 0.40200
C 	C 	0.81179 0.41547 0.17527 -0.11300
C 	C 	0.77125 0.36480 0.22116 0.00300
H 	H 	0.72150 0.34160 0.20380 0.04000
C 	C 	0.80230 0.34726 0.29236 -0.03400
C 	C 	0.87612 0.38091 0.31655 -0.02300
H 	H 	0.89880 0.36810 0.36440 0.03800
C 	C 	0.91646 0.43267 0.27141 -0.06800
H 	H 	0.96610 0.45630 0.28870 0.05600
C 	C 	0.88443 0.45018 0.20080 0.01300
H 	H 	0.91220 0.48590 0.17000 0.03500
C 	C 	0.64150 0.25329 0.38724 0.08100
H 	H 	0.58810 0.26380 0.38670 -0.00100
C 	C 	0.67998 0.30724 0.34198 -0.14500
H 	H 	0.65300 0.35340 0.31150 0.07700
C 	C 	0.75826 0.29367 0.34113 0.08800
C 	C 	0.79410 0.22655 0.38873 -0.14100
H 	H 	0.84780 0.21620 0.39140 0.08500
C 	C 	0.75169 0.17523 0.43186 0.07400
H 	H 	0.77750 0.12920 0.46330 0.00100
N 	N 	0.54589 0.33805 0.06484 -0.22800
O 	O 	0.41212 0.04595 0.43935 -0.44800
O 	O 	0.52372 0.09630 0.40836 -0.44600
C 	C 	0.45275 0.07962 0.39576 0.39000
C 	C 	0.41376 0.10484 0.32099 -0.10500
C 	C 	0.45332 0.15457 0.27356 -0.00200
H 	H 	0.50510 0.17250 0.28830 0.04000
C 	C 	0.41855 0.17881 0.20465 -0.03100
C 	C 	0.34262 0.15024 0.18323 -0.02500
H 	H 	0.31820 0.16490 0.13630 0.03900
C 	C 	0.30291 0.10052 0.23036 -0.06400
H 	H 	0.25150 0.08120 0.21540 0.05200
C 	C 	0.33791 0.07882 0.29933 0.01200
H 	H 	0.30990 0.04620 0.33170 0.03600
C 	C 	0.55686 0.34999 0.13663 0.07500
H 	H 	0.59440 0.39450 0.15650 0.00100
C 	C 	0.51649 0.30094 0.18280 -0.13800
H 	H 	0.52600 0.31290 0.23300 0.07700
C 	C 	0.46143 0.23350 0.15592 0.08600
C 	C 	0.44909 0.22242 0.08177 -0.14200
H 	H 	0.41170 0.17870 0.06030 0.07600
C 	C 	0.49177 0.27565 0.03935 0.08000
H 	H 	0.48190 0.26720 0.98880 -0.00400
N 	N 	0.07258 0.31686 0.07050 -0.23100
O 	O 	0.92325 0.03326 0.44139 -0.44300
O 	O 	0.03598 0.09341 0.42025 -0.43700
C 	C 	0.96783 0.06676 0.40095 0.40000
C 	C 	0.93740 0.07856 0.32254 -0.11900
C 	C 	0.97867 0.13041 0.27757 0.01200
H 	H 	0.02770 0.15500 0.29590 0.03300
C 	C 	0.94905 0.14671 0.20610 -0.04000
C 	C 	0.87725 0.10913 0.17943 -0.01800
H 	H 	0.85610 0.12040 0.13090 0.03700
C 	C 	0.83718 0.05584 0.22333 -0.07100
H 	H 	0.78910 0.02900 0.20440 0.05700
C 	C 	0.86616 0.04073 0.29509 0.01800
H 	H 	0.83760 0.00490 0.32520 0.03100
C 	C 	0.10892 0.25444 0.11732 0.08200
H 	H 	0.16310 0.24880 0.11990 -0.00200
C 	C 	0.07190 0.19815 0.16189 -0.15400
H 	H 	0.10040 0.15550 0.19440 0.08100
C 	C 	0.99218 0.20423 0.15888 0.09500
C 	C 	0.95442 0.26818 0.10968 -0.14500
H 	H 	0.90010 0.27380 0.10480 0.08600
C 	C 	0.99605 0.32319 0.06815 0.08000
H 	H 	0.96930 0.36790 0.03620 0.00600
N 	N 	0.80877 0.69374 0.05365 -0.22300
O 	O 	0.66322 0.97031 0.42912 -0.45000
O 	O 	0.77492 0.91001 0.40652 -0.44200
C 	C 	0.70700 0.93789 0.38780 0.40100
C 	C 	0.67616 0.93057 0.30835 -0.10500
C 	C 	0.71610 0.87830 0.26243 -0.00100
H 	H 	0.76320 0.84880 0.28090 0.04000
C 	C 	0.68789 0.86870 0.18961 -0.03000
C 	C 	0.61879 0.91394 0.16333 -0.02700
H 	H 	0.59870 0.90810 0.11400 0.03600
C 	C 	0.57949 0.96704 0.20854 -0.06300
H 	H 	0.53300 0.99800 0.18990 0.05100
C 	C 	0.60772 0.97535 0.28117 0.01000
H 	H 	0.58040 0.01150 0.31210 0.03800
C 	C 	0.84657 0.75022 0.10464 0.07300
H 	H 	0.90110 0.74990 0.11040 0.00400
C 	C 	0.81065 0.80849 0.14893 -0.13900
H 	H 	0.84020 0.84630 0.18420 0.07800
C 	C 	0.73011 0.81149 0.14147 0.08100
C 	C 	0.69195 0.75562 0.08708 -0.13300
H 	H 	0.63750 0.75720 0.07820 0.07900
C 	C 	0.73177 0.69814 0.04597 0.06800
H 	H 	0.70340 0.65960 0.01030 0.01200
