data_crystal

_cell_length_a 33.61670
_cell_length_b 33.61670
_cell_length_c 33.61670
_cell_angle_alpha 90.00000
_cell_angle_beta  90.00000
_cell_angle_gamma 90.00000

_symmetry_space_group_name_	'P 1'
_symmetry_space_group_name_H-M	'P 1'

loop_
_symmetry_equiv_pos_as_xyz
  x,y,z

loop_
_atom_site_label
_atom_site_type_symbol
_atom_site_fract_x
_atom_site_fract_y
_atom_site_fract_z
_atom_site_charge
O 	O 	0.96060 0.24466 0.19990 -0.38500
C 	C 	0.89270 0.15737 0.20980 0.06200
O 	O 	0.96060 0.74466 0.69990 -0.38400
C 	C 	0.89270 0.65737 0.70980 0.06700
O 	O 	0.46060 0.24466 0.69990 -0.39400
C 	C 	0.39270 0.15737 0.70980 0.06100
O 	O 	0.46060 0.74466 0.19990 -0.39400
C 	C 	0.39270 0.65737 0.20980 0.06200
O 	O 	0.03940 0.75534 0.19990 -0.40000
C 	C 	0.10730 0.84263 0.20980 0.06100
O 	O 	0.03940 0.25534 0.69990 -0.39900
C 	C 	0.10730 0.34263 0.70980 0.06000
O 	O 	0.53940 0.75534 0.69990 -0.39300
C 	C 	0.60730 0.84263 0.70980 0.06600
O 	O 	0.53940 0.25534 0.19990 -0.39500
C 	C 	0.60730 0.34263 0.20980 0.06200
O 	O 	0.03940 0.24466 0.80010 -0.39800
C 	C 	0.10730 0.15737 0.79020 0.05800
O 	O 	0.03940 0.74466 0.30010 -0.39800
C 	C 	0.10730 0.65737 0.29020 0.05900
O 	O 	0.53940 0.24466 0.30010 -0.39400
C 	C 	0.60730 0.15737 0.29020 0.06000
O 	O 	0.53940 0.74466 0.80010 -0.39200
C 	C 	0.60730 0.65737 0.79020 0.06400
O 	O 	0.96060 0.75534 0.80010 -0.38200
C 	C 	0.89270 0.84263 0.79020 0.07000
O 	O 	0.96060 0.25534 0.30010 -0.38400
C 	C 	0.89270 0.34263 0.29020 0.06600
O 	O 	0.46060 0.75534 0.30010 -0.39300
C 	C 	0.39270 0.84263 0.29020 0.06500
O 	O 	0.46060 0.25534 0.80010 -0.39300
C 	C 	0.39270 0.34263 0.79020 0.06400
O 	O 	0.19990 0.96060 0.24466 -0.38400
C 	C 	0.20980 0.89270 0.15737 0.06300
O 	O 	0.19990 0.46060 0.74466 -0.39400
C 	C 	0.20980 0.39270 0.65737 0.06200
O 	O 	0.69990 0.96060 0.74466 -0.38300
C 	C 	0.70980 0.89270 0.65737 0.06700
O 	O 	0.69990 0.46060 0.24466 -0.39400
C 	C 	0.70980 0.39270 0.15737 0.06100
O 	O 	0.19990 0.03940 0.75534 -0.40000
C 	C 	0.20980 0.10730 0.84263 0.06100
O 	O 	0.19990 0.53940 0.25534 -0.39500
C 	C 	0.20980 0.60730 0.34263 0.06200
O 	O 	0.69990 0.03940 0.25534 -0.39900
C 	C 	0.70980 0.10730 0.34263 0.06000
O 	O 	0.69990 0.53940 0.75534 -0.39300
C 	C 	0.70980 0.60730 0.84263 0.06600
O 	O 	0.80010 0.03940 0.24466 -0.39800
C 	C 	0.79020 0.10730 0.15737 0.05800
O 	O 	0.80010 0.53940 0.74466 -0.39200
C 	C 	0.79020 0.60730 0.65737 0.06400
O 	O 	0.30010 0.03940 0.74466 -0.39800
C 	C 	0.29020 0.10730 0.65737 0.05900
O 	O 	0.30010 0.53940 0.24466 -0.39400
C 	C 	0.29020 0.60730 0.15737 0.06000
O 	O 	0.80010 0.96060 0.75534 -0.38200
C 	C 	0.79020 0.89270 0.84263 0.07000
O 	O 	0.80010 0.46060 0.25534 -0.39300
C 	C 	0.79020 0.39270 0.34263 0.06400
O 	O 	0.30010 0.96060 0.25534 -0.38400
C 	C 	0.29020 0.89270 0.34263 0.06600
O 	O 	0.30010 0.46060 0.75534 -0.39300
C 	C 	0.29020 0.39270 0.84263 0.06500
O 	O 	0.24466 0.19990 0.96060 -0.38400
C 	C 	0.15737 0.20980 0.89270 0.06300
O 	O 	0.24466 0.69990 0.46060 -0.39400
C 	C 	0.15737 0.70980 0.39270 0.06100
O 	O 	0.74466 0.19990 0.46060 -0.39400
C 	C 	0.65737 0.20980 0.39270 0.06200
O 	O 	0.74466 0.69990 0.96060 -0.38300
C 	C 	0.65737 0.70980 0.89270 0.06700
O 	O 	0.75534 0.19990 0.03940 -0.40000
C 	C 	0.84263 0.20980 0.10730 0.06100
O 	O 	0.75534 0.69990 0.53940 -0.39300
C 	C 	0.84263 0.70980 0.60730 0.06600
O 	O 	0.25534 0.19990 0.53940 -0.39500
C 	C 	0.34263 0.20980 0.60730 0.06200
O 	O 	0.25534 0.69990 0.03940 -0.39900
C 	C 	0.34263 0.70980 0.10730 0.06000
O 	O 	0.24466 0.80010 0.03940 -0.39800
C 	C 	0.15737 0.79020 0.10730 0.05800
O 	O 	0.24466 0.30010 0.53940 -0.39400
C 	C 	0.15737 0.29020 0.60730 0.06000
O 	O 	0.74466 0.80010 0.53940 -0.39200
C 	C 	0.65737 0.79020 0.60730 0.06400
O 	O 	0.74466 0.30010 0.03940 -0.39800
C 	C 	0.65737 0.29020 0.10730 0.05900
O 	O 	0.75534 0.80010 0.96060 -0.38200
C 	C 	0.84263 0.79020 0.89270 0.07000
O 	O 	0.75534 0.30010 0.46060 -0.39300
C 	C 	0.84263 0.29020 0.39270 0.06500
O 	O 	0.25534 0.80010 0.46060 -0.39300
C 	C 	0.34263 0.79020 0.39270 0.06400
O 	O 	0.25534 0.30010 0.96060 -0.38400
C 	C 	0.34263 0.29020 0.89270 0.06600
O 	O 	0.24466 0.96060 0.80010 -0.38200
C 	C 	0.15737 0.89270 0.79020 0.06500
O 	O 	0.24466 0.46060 0.30010 -0.39400
C 	C 	0.15737 0.39270 0.29020 0.06000
O 	O 	0.74466 0.96060 0.30010 -0.38300
C 	C 	0.65737 0.89270 0.29020 0.06600
O 	O 	0.74466 0.46060 0.80010 -0.39200
C 	C 	0.65737 0.39270 0.79020 0.06400
O 	O 	0.75534 0.03940 0.80010 -0.39800
C 	C 	0.84263 0.10730 0.79020 0.06300
O 	O 	0.75534 0.53940 0.30010 -0.39300
C 	C 	0.84263 0.60730 0.29020 0.06500
O 	O 	0.25534 0.03940 0.30010 -0.39900
C 	C 	0.34263 0.10730 0.29020 0.05900
O 	O 	0.25534 0.53940 0.80010 -0.39300
C 	C 	0.34263 0.60730 0.79020 0.06400
O 	O 	0.24466 0.03940 0.19990 -0.40000
C 	C 	0.15737 0.10730 0.20980 0.05600
O 	O 	0.24466 0.53940 0.69990 -0.39400
C 	C 	0.15737 0.60730 0.70980 0.06100
O 	O 	0.74466 0.03940 0.69990 -0.39800
C 	C 	0.65737 0.10730 0.70980 0.06000
O 	O 	0.74466 0.53940 0.19990 -0.39400
C 	C 	0.65737 0.60730 0.20980 0.06200
O 	O 	0.75534 0.96060 0.19990 -0.38400
C 	C 	0.84263 0.89270 0.20980 0.06800
O 	O 	0.75534 0.46060 0.69990 -0.39300
C 	C 	0.84263 0.39270 0.70980 0.06600
O 	O 	0.25534 0.96060 0.69990 -0.38400
C 	C 	0.34263 0.89270 0.70980 0.06700
O 	O 	0.25534 0.46060 0.19990 -0.39500
C 	C 	0.34263 0.39270 0.20980 0.06200
O 	O 	0.96060 0.19990 0.75534 -0.38400
C 	C 	0.89270 0.20980 0.84263 0.06800
O 	O 	0.96060 0.69990 0.25534 -0.38400
C 	C 	0.89270 0.70980 0.34263 0.06700
O 	O 	0.46060 0.19990 0.25534 -0.39500
C 	C 	0.39270 0.20980 0.34263 0.06200
O 	O 	0.46060 0.69990 0.75534 -0.39300
C 	C 	0.39270 0.70980 0.84263 0.06600
O 	O 	0.03940 0.19990 0.24466 -0.40000
C 	C 	0.10730 0.20980 0.15737 0.05600
O 	O 	0.03940 0.69990 0.74466 -0.39800
C 	C 	0.10730 0.70980 0.65737 0.06000
O 	O 	0.53940 0.19990 0.74466 -0.39400
C 	C 	0.60730 0.20980 0.65737 0.06200
O 	O 	0.53940 0.69990 0.24466 -0.39400
C 	C 	0.60730 0.70980 0.15737 0.06100
O 	O 	0.03940 0.80010 0.75534 -0.39800
C 	C 	0.10730 0.79020 0.84263 0.06300
O 	O 	0.03940 0.30010 0.25534 -0.39900
C 	C 	0.10730 0.29020 0.34263 0.05900
O 	O 	0.53940 0.80010 0.25534 -0.39300
C 	C 	0.60730 0.79020 0.34263 0.06400
O 	O 	0.53940 0.30010 0.75534 -0.39300
C 	C 	0.60730 0.29020 0.84263 0.06500
O 	O 	0.96060 0.80010 0.24466 -0.38200
C 	C 	0.89270 0.79020 0.15737 0.06500
O 	O 	0.96060 0.30010 0.74466 -0.38300
C 	C 	0.89270 0.29020 0.65737 0.06600
O 	O 	0.46060 0.80010 0.74466 -0.39200
C 	C 	0.39270 0.79020 0.65737 0.06400
O 	O 	0.46060 0.30010 0.24466 -0.39400
C 	C 	0.39270 0.29020 0.15737 0.06000
O 	O 	0.19990 0.24466 0.03940 -0.40000
C 	C 	0.20980 0.15737 0.10730 0.05600
O 	O 	0.19990 0.74466 0.53940 -0.39400
C 	C 	0.20980 0.65737 0.60730 0.06200
O 	O 	0.69990 0.24466 0.53940 -0.39400
C 	C 	0.70980 0.15737 0.60730 0.06100
O 	O 	0.69990 0.74466 0.03940 -0.39800
C 	C 	0.70980 0.65737 0.10730 0.06000
O 	O 	0.19990 0.75534 0.96060 -0.38400
C 	C 	0.20980 0.84263 0.89270 0.06800
O 	O 	0.19990 0.25534 0.46060 -0.39500
C 	C 	0.20980 0.34263 0.39270 0.06200
O 	O 	0.69990 0.75534 0.46060 -0.39300
C 	C 	0.70980 0.84263 0.39270 0.06600
O 	O 	0.69990 0.25534 0.96060 -0.38400
C 	C 	0.70980 0.34263 0.89270 0.06700
O 	O 	0.80010 0.24466 0.96060 -0.38200
C 	C 	0.79020 0.15737 0.89270 0.06500
O 	O 	0.80010 0.74466 0.46060 -0.39200
C 	C 	0.79020 0.65737 0.39270 0.06400
O 	O 	0.30010 0.24466 0.46060 -0.39400
C 	C 	0.29020 0.15737 0.39270 0.06000
O 	O 	0.30010 0.74466 0.96060 -0.38300
C 	C 	0.29020 0.65737 0.89270 0.06600
O 	O 	0.80010 0.75534 0.03940 -0.39800
C 	C 	0.79020 0.84263 0.10730 0.06300
O 	O 	0.80010 0.25534 0.53940 -0.39300
C 	C 	0.79020 0.34263 0.60730 0.06400
O 	O 	0.30010 0.75534 0.53940 -0.39300
C 	C 	0.29020 0.84263 0.60730 0.06500
O 	O 	0.30010 0.25534 0.03940 -0.39900
C 	C 	0.29020 0.34263 0.10730 0.05900
O 	O 	0.03940 0.75534 0.80010 -0.39800
C 	C 	0.10730 0.84263 0.79020 0.06300
O 	O 	0.03940 0.25534 0.30010 -0.39900
C 	C 	0.10730 0.34263 0.29020 0.05900
O 	O 	0.53940 0.75534 0.30010 -0.39300
C 	C 	0.60730 0.84263 0.29020 0.06500
O 	O 	0.53940 0.25534 0.80010 -0.39300
C 	C 	0.60730 0.34263 0.79020 0.06400
O 	O 	0.96060 0.24466 0.80010 -0.38200
C 	C 	0.89270 0.15737 0.79020 0.06500
O 	O 	0.96060 0.74466 0.30010 -0.38300
C 	C 	0.89270 0.65737 0.29020 0.06600
O 	O 	0.46060 0.24466 0.30010 -0.39400
C 	C 	0.39270 0.15737 0.29020 0.06000
O 	O 	0.46060 0.74466 0.80010 -0.39200
C 	C 	0.39270 0.65737 0.79020 0.06400
O 	O 	0.96060 0.75534 0.19990 -0.38400
C 	C 	0.89270 0.84263 0.20980 0.06800
O 	O 	0.96060 0.25534 0.69990 -0.38400
C 	C 	0.89270 0.34263 0.70980 0.06700
O 	O 	0.46060 0.75534 0.69990 -0.39300
C 	C 	0.39270 0.84263 0.70980 0.06600
O 	O 	0.46060 0.25534 0.19990 -0.39500
C 	C 	0.39270 0.34263 0.20980 0.06200
O 	O 	0.03940 0.24466 0.19990 -0.40000
C 	C 	0.10730 0.15737 0.20980 0.05600
O 	O 	0.03940 0.74466 0.69990 -0.39800
C 	C 	0.10730 0.65737 0.70980 0.06000
O 	O 	0.53940 0.24466 0.69990 -0.39400
C 	C 	0.60730 0.15737 0.70980 0.06100
O 	O 	0.53940 0.74466 0.19990 -0.39400
C 	C 	0.60730 0.65737 0.20980 0.06200
O 	O 	0.80010 0.03940 0.75534 -0.39800
C 	C 	0.79020 0.10730 0.84263 0.06300
O 	O 	0.80010 0.53940 0.25534 -0.39300
C 	C 	0.79020 0.60730 0.34263 0.06400
O 	O 	0.30010 0.03940 0.25534 -0.39900
C 	C 	0.29020 0.10730 0.34263 0.05900
O 	O 	0.30010 0.53940 0.75534 -0.39300
C 	C 	0.29020 0.60730 0.84263 0.06500
O 	O 	0.80010 0.96060 0.24466 -0.38200
C 	C 	0.79020 0.89270 0.15737 0.06500
O 	O 	0.80010 0.46060 0.74466 -0.39200
C 	C 	0.79020 0.39270 0.65737 0.06400
O 	O 	0.30010 0.96060 0.74466 -0.38300
C 	C 	0.29020 0.89270 0.65737 0.06600
O 	O 	0.30010 0.46060 0.24466 -0.39400
C 	C 	0.29020 0.39270 0.15737 0.06000
O 	O 	0.19990 0.96060 0.75534 -0.38400
C 	C 	0.20980 0.89270 0.84263 0.06800
O 	O 	0.19990 0.46060 0.25534 -0.39500
C 	C 	0.20980 0.39270 0.34263 0.06200
O 	O 	0.69990 0.96060 0.25534 -0.38400
C 	C 	0.70980 0.89270 0.34263 0.06700
O 	O 	0.69990 0.46060 0.75534 -0.39300
C 	C 	0.70980 0.39270 0.84263 0.06600
O 	O 	0.19990 0.03940 0.24466 -0.40000
C 	C 	0.20980 0.10730 0.15737 0.05600
O 	O 	0.19990 0.53940 0.74466 -0.39400
C 	C 	0.20980 0.60730 0.65737 0.06200
O 	O 	0.69990 0.03940 0.74466 -0.39800
C 	C 	0.70980 0.10730 0.65737 0.06000
O 	O 	0.69990 0.53940 0.24466 -0.39400
C 	C 	0.70980 0.60730 0.15737 0.06100
O 	O 	0.75534 0.80010 0.03940 -0.39800
C 	C 	0.84263 0.79020 0.10730 0.06300
O 	O 	0.75534 0.30010 0.53940 -0.39300
C 	C 	0.84263 0.29020 0.60730 0.06500
O 	O 	0.25534 0.80010 0.53940 -0.39300
C 	C 	0.34263 0.79020 0.60730 0.06400
O 	O 	0.25534 0.30010 0.03940 -0.39900
C 	C 	0.34263 0.29020 0.10730 0.05900
O 	O 	0.24466 0.80010 0.96060 -0.38200
C 	C 	0.15737 0.79020 0.89270 0.06500
O 	O 	0.24466 0.30010 0.46060 -0.39400
C 	C 	0.15737 0.29020 0.39270 0.06000
O 	O 	0.74466 0.80010 0.46060 -0.39200
C 	C 	0.65737 0.79020 0.39270 0.06400
O 	O 	0.74466 0.30010 0.96060 -0.38300
C 	C 	0.65737 0.29020 0.89270 0.06600
O 	O 	0.75534 0.19990 0.96060 -0.38400
C 	C 	0.84263 0.20980 0.89270 0.06800
O 	O 	0.75534 0.69990 0.46060 -0.39300
C 	C 	0.84263 0.70980 0.39270 0.06600
O 	O 	0.25534 0.19990 0.46060 -0.39500
C 	C 	0.34263 0.20980 0.39270 0.06200
O 	O 	0.25534 0.69990 0.96060 -0.38400
C 	C 	0.34263 0.70980 0.89270 0.06700
O 	O 	0.24466 0.19990 0.03940 -0.40000
C 	C 	0.15737 0.20980 0.10730 0.05600
O 	O 	0.24466 0.69990 0.53940 -0.39400
C 	C 	0.15737 0.70980 0.60730 0.06100
O 	O 	0.74466 0.19990 0.53940 -0.39400
C 	C 	0.65737 0.20980 0.60730 0.06200
O 	O 	0.74466 0.69990 0.03940 -0.39800
C 	C 	0.65737 0.70980 0.10730 0.06000
O 	O 	0.75534 0.03940 0.19990 -0.40000
C 	C 	0.84263 0.10730 0.20980 0.06100
O 	O 	0.75534 0.53940 0.69990 -0.39300
C 	C 	0.84263 0.60730 0.70980 0.06600
O 	O 	0.25534 0.03940 0.69990 -0.39900
C 	C 	0.34263 0.10730 0.70980 0.06000
O 	O 	0.25534 0.53940 0.19990 -0.39500
C 	C 	0.34263 0.60730 0.20980 0.06200
O 	O 	0.24466 0.96060 0.19990 -0.38400
C 	C 	0.15737 0.89270 0.20980 0.06300
O 	O 	0.24466 0.46060 0.69990 -0.39400
C 	C 	0.15737 0.39270 0.70980 0.06100
O 	O 	0.74466 0.96060 0.69990 -0.38300
C 	C 	0.65737 0.89270 0.70980 0.06700
O 	O 	0.74466 0.46060 0.19990 -0.39400
C 	C 	0.65737 0.39270 0.20980 0.06200
O 	O 	0.75534 0.96060 0.80010 -0.38200
C 	C 	0.84263 0.89270 0.79020 0.07000
O 	O 	0.75534 0.46060 0.30010 -0.39300
C 	C 	0.84263 0.39270 0.29020 0.06500
O 	O 	0.25534 0.96060 0.30010 -0.38400
C 	C 	0.34263 0.89270 0.29020 0.06600
O 	O 	0.25534 0.46060 0.80010 -0.39300
C 	C 	0.34263 0.39270 0.79020 0.06400
O 	O 	0.24466 0.03940 0.80010 -0.39800
C 	C 	0.15737 0.10730 0.79020 0.05800
O 	O 	0.24466 0.53940 0.30010 -0.39400
C 	C 	0.15737 0.60730 0.29020 0.06000
O 	O 	0.74466 0.03940 0.30010 -0.39800
C 	C 	0.65737 0.10730 0.29020 0.05900
O 	O 	0.74466 0.53940 0.80010 -0.39200
C 	C 	0.65737 0.60730 0.79020 0.06400
O 	O 	0.03940 0.80010 0.24466 -0.39800
C 	C 	0.10730 0.79020 0.15737 0.05800
O 	O 	0.03940 0.30010 0.74466 -0.39800
C 	C 	0.10730 0.29020 0.65737 0.05900
O 	O 	0.53940 0.80010 0.74466 -0.39200
C 	C 	0.60730 0.79020 0.65737 0.06400
O 	O 	0.53940 0.30010 0.24466 -0.39400
C 	C 	0.60730 0.29020 0.15737 0.06000
O 	O 	0.96060 0.80010 0.75534 -0.38200
C 	C 	0.89270 0.79020 0.84263 0.07000
O 	O 	0.96060 0.30010 0.25534 -0.38400
C 	C 	0.89270 0.29020 0.34263 0.06600
O 	O 	0.46060 0.80010 0.25534 -0.39300
C 	C 	0.39270 0.79020 0.34263 0.06400
O 	O 	0.46060 0.30010 0.75534 -0.39300
C 	C 	0.39270 0.29020 0.84263 0.06500
O 	O 	0.96060 0.19990 0.24466 -0.38400
C 	C 	0.89270 0.20980 0.15737 0.06300
O 	O 	0.96060 0.69990 0.74466 -0.38300
C 	C 	0.89270 0.70980 0.65737 0.06700
O 	O 	0.46060 0.19990 0.74466 -0.39400
C 	C 	0.39270 0.20980 0.65737 0.06200
O 	O 	0.46060 0.69990 0.24466 -0.39400
C 	C 	0.39270 0.70980 0.15737 0.06100
O 	O 	0.03940 0.19990 0.75534 -0.40000
C 	C 	0.10730 0.20980 0.84263 0.06100
O 	O 	0.03940 0.69990 0.25534 -0.39900
C 	C 	0.10730 0.70980 0.34263 0.06000
O 	O 	0.53940 0.19990 0.25534 -0.39500
C 	C 	0.60730 0.20980 0.34263 0.06200
O 	O 	0.53940 0.69990 0.75534 -0.39300
C 	C 	0.60730 0.70980 0.84263 0.06600
O 	O 	0.80010 0.75534 0.96060 -0.38200
C 	C 	0.79020 0.84263 0.89270 0.07000
O 	O 	0.80010 0.25534 0.46060 -0.39300
C 	C 	0.79020 0.34263 0.39270 0.06400
O 	O 	0.30010 0.75534 0.46060 -0.39300
C 	C 	0.29020 0.84263 0.39270 0.06500
O 	O 	0.30010 0.25534 0.96060 -0.38400
C 	C 	0.29020 0.34263 0.89270 0.06600
O 	O 	0.80010 0.24466 0.03940 -0.39800
C 	C 	0.79020 0.15737 0.10730 0.05800
O 	O 	0.80010 0.74466 0.53940 -0.39200
C 	C 	0.79020 0.65737 0.60730 0.06400
O 	O 	0.30010 0.24466 0.53940 -0.39400
C 	C 	0.29020 0.15737 0.60730 0.06000
O 	O 	0.30010 0.74466 0.03940 -0.39800
C 	C 	0.29020 0.65737 0.10730 0.05900
O 	O 	0.19990 0.75534 0.03940 -0.40000
C 	C 	0.20980 0.84263 0.10730 0.06100
O 	O 	0.19990 0.25534 0.53940 -0.39500
C 	C 	0.20980 0.34263 0.60730 0.06200
O 	O 	0.69990 0.75534 0.53940 -0.39300
C 	C 	0.70980 0.84263 0.60730 0.06600
O 	O 	0.69990 0.25534 0.03940 -0.39900
C 	C 	0.70980 0.34263 0.10730 0.06000
O 	O 	0.19990 0.24466 0.96060 -0.38400
C 	C 	0.20980 0.15737 0.89270 0.06300
O 	O 	0.19990 0.74466 0.46060 -0.39400
C 	C 	0.20980 0.65737 0.39270 0.06200
O 	O 	0.69990 0.24466 0.46060 -0.39400
C 	C 	0.70980 0.15737 0.39270 0.06100
O 	O 	0.69990 0.74466 0.96060 -0.38300
C 	C 	0.70980 0.65737 0.89270 0.06700
Cu	Cu	-0.00000 0.27616 0.22384 0.91700
Cu	Cu	0.50000 0.27616 0.72384 0.92700
Cu	Cu	0.00000 0.72384 0.22384 0.91700
Cu	Cu	0.50000 0.72384 0.72384 0.92700
Cu	Cu	0.50000 0.22384 0.22384 0.92600
Cu	Cu	-0.00000 0.27616 0.77616 0.91800
Cu	Cu	0.50000 0.27616 0.27616 0.92700
Cu	Cu	-0.00000 0.72384 0.77616 0.91800
Cu	Cu	-0.00000 0.22384 0.27616 0.91700
Cu	Cu	0.50000 0.72384 0.27616 0.92700
Cu	Cu	0.22384 -0.00000 0.27616 0.91700
Cu	Cu	0.22384 0.50000 0.77616 0.92700
Cu	Cu	0.22384 -0.00000 0.72384 0.91700
Cu	Cu	0.22384 0.50000 0.22384 0.92600
Cu	Cu	0.77616 -0.00000 0.27616 0.91800
Cu	Cu	0.77616 0.50000 0.77616 0.92800
Cu	Cu	0.27616 0.50000 0.27616 0.92700
Cu	Cu	0.77616 -0.00000 0.72384 0.91800
Cu	Cu	0.77616 0.50000 0.22384 0.92700
Cu	Cu	0.27616 0.00000 0.22384 0.91700
Cu	Cu	0.27616 0.22384 -0.00000 0.91700
Cu	Cu	0.27616 0.72384 0.50000 0.92700
Cu	Cu	0.72384 0.22384 -0.00000 0.91700
Cu	Cu	0.72384 0.72384 0.50000 0.92700
Cu	Cu	0.22384 0.22384 0.50000 0.92600
Cu	Cu	0.27616 0.77616 -0.00000 0.91800
Cu	Cu	0.27616 0.27616 0.50000 0.92700
Cu	Cu	0.72384 0.77616 -0.00000 0.91800
Cu	Cu	0.72384 0.27616 0.50000 0.92700
Cu	Cu	0.22384 0.27616 -0.00000 0.91700
Cu	Cu	0.27616 0.00000 0.77616 0.91800
Cu	Cu	0.72384 0.00000 0.77616 0.91800
Cu	Cu	0.72384 0.50000 0.27616 0.92700
Cu	Cu	0.27616 0.50000 0.72384 0.92700
Cu	Cu	0.72384 0.00000 0.22384 0.91700
Cu	Cu	0.72384 0.50000 0.72384 0.92700
Cu	Cu	-0.00000 0.22384 0.72384 0.91700
Cu	Cu	0.50000 0.22384 0.77616 0.92700
Cu	Cu	-0.00000 0.77616 0.72384 0.91800
Cu	Cu	0.50000 0.77616 0.22384 0.92700
Cu	Cu	-0.00000 0.77616 0.27616 0.91800
Cu	Cu	0.50000 0.77616 0.77616 0.92800
Cu	Cu	0.22384 0.77616 0.50000 0.92700
Cu	Cu	0.22384 0.72384 -0.00000 0.91700
Cu	Cu	0.77616 0.27616 -0.00000 0.91800
Cu	Cu	0.77616 0.77616 0.50000 0.92800
Cu	Cu	0.77616 0.72384 -0.00000 0.91800
Cu	Cu	0.77616 0.22384 0.50000 0.92700
C 	C 	0.94240 0.21350 0.21350 0.35000
C 	C 	0.90800 0.19354 0.19354 -0.11700
C 	C 	0.94240 0.71350 0.71350 0.35100
C 	C 	0.90800 0.69354 0.69354 -0.11800
C 	C 	0.44240 0.21350 0.71350 0.35200
C 	C 	0.40800 0.19354 0.69354 -0.11900
C 	C 	0.44240 0.71350 0.21350 0.35200
C 	C 	0.40800 0.69354 0.19354 -0.11900
C 	C 	0.05760 0.78650 0.21350 0.35200
C 	C 	0.09200 0.80646 0.19354 -0.12000
C 	C 	0.05760 0.28650 0.71350 0.35200
C 	C 	0.09200 0.30646 0.69354 -0.12000
C 	C 	0.55760 0.78650 0.71350 0.35300
C 	C 	0.59200 0.80646 0.69354 -0.12000
C 	C 	0.55760 0.28650 0.21350 0.35200
C 	C 	0.59200 0.30646 0.19354 -0.11900
C 	C 	0.05760 0.21350 0.78650 0.35200
C 	C 	0.09200 0.19354 0.80646 -0.12000
C 	C 	0.05760 0.71350 0.28650 0.35200
C 	C 	0.09200 0.69354 0.30646 -0.12000
C 	C 	0.55760 0.21350 0.28650 0.35200
C 	C 	0.59200 0.19354 0.30646 -0.11900
C 	C 	0.55760 0.71350 0.78650 0.35300
C 	C 	0.59200 0.69354 0.80646 -0.12000
C 	C 	0.94240 0.78650 0.78650 0.35200
C 	C 	0.90800 0.80646 0.80646 -0.11900
C 	C 	0.94240 0.28650 0.28650 0.35100
C 	C 	0.90800 0.30646 0.30646 -0.11800
C 	C 	0.44240 0.78650 0.28650 0.35300
C 	C 	0.40800 0.80646 0.30646 -0.12000
C 	C 	0.44240 0.28650 0.78650 0.35300
C 	C 	0.40800 0.30646 0.80646 -0.12000
C 	C 	0.21350 0.94240 0.21350 0.35000
C 	C 	0.19354 0.90800 0.19354 -0.11700
C 	C 	0.21350 0.44240 0.71350 0.35200
C 	C 	0.19354 0.40800 0.69354 -0.11900
C 	C 	0.71350 0.94240 0.71350 0.35100
C 	C 	0.69354 0.90800 0.69354 -0.11800
C 	C 	0.71350 0.44240 0.21350 0.35200
C 	C 	0.69354 0.40800 0.19354 -0.11900
C 	C 	0.21350 0.05760 0.78650 0.35200
C 	C 	0.19354 0.09200 0.80646 -0.12000
C 	C 	0.21350 0.55760 0.28650 0.35200
C 	C 	0.19354 0.59200 0.30646 -0.11900
C 	C 	0.71350 0.05760 0.28650 0.35200
C 	C 	0.69354 0.09200 0.30646 -0.12000
C 	C 	0.71350 0.55760 0.78650 0.35300
C 	C 	0.69354 0.59200 0.80646 -0.12000
C 	C 	0.78650 0.05760 0.21350 0.35200
C 	C 	0.80646 0.09200 0.19354 -0.12000
C 	C 	0.78650 0.55760 0.71350 0.35300
C 	C 	0.80646 0.59200 0.69354 -0.12000
C 	C 	0.28650 0.05760 0.71350 0.35200
C 	C 	0.30646 0.09200 0.69354 -0.12000
C 	C 	0.28650 0.55760 0.21350 0.35200
C 	C 	0.30646 0.59200 0.19354 -0.11900
C 	C 	0.78650 0.94240 0.78650 0.35200
C 	C 	0.80646 0.90800 0.80646 -0.11900
C 	C 	0.78650 0.44240 0.28650 0.35300
C 	C 	0.80646 0.40800 0.30646 -0.12000
C 	C 	0.28650 0.94240 0.28650 0.35100
C 	C 	0.30646 0.90800 0.30646 -0.11800
C 	C 	0.28650 0.44240 0.78650 0.35300
C 	C 	0.30646 0.40800 0.80646 -0.12000
C 	C 	0.21350 0.21350 0.94240 0.35000
C 	C 	0.19354 0.19354 0.90800 -0.11700
C 	C 	0.21350 0.71350 0.44240 0.35200
C 	C 	0.19354 0.69354 0.40800 -0.11900
C 	C 	0.71350 0.21350 0.44240 0.35200
C 	C 	0.69354 0.19354 0.40800 -0.11900
C 	C 	0.71350 0.71350 0.94240 0.35100
C 	C 	0.69354 0.69354 0.90800 -0.11800
C 	C 	0.78650 0.21350 0.05760 0.35200
C 	C 	0.80646 0.19354 0.09200 -0.12000
C 	C 	0.78650 0.71350 0.55760 0.35300
C 	C 	0.80646 0.69354 0.59200 -0.12000
C 	C 	0.28650 0.21350 0.55760 0.35200
C 	C 	0.30646 0.19354 0.59200 -0.11900
C 	C 	0.28650 0.71350 0.05760 0.35200
C 	C 	0.30646 0.69354 0.09200 -0.12000
C 	C 	0.21350 0.78650 0.05760 0.35200
C 	C 	0.19354 0.80646 0.09200 -0.12000
C 	C 	0.21350 0.28650 0.55760 0.35200
C 	C 	0.19354 0.30646 0.59200 -0.11900
C 	C 	0.71350 0.78650 0.55760 0.35300
C 	C 	0.69354 0.80646 0.59200 -0.12000
C 	C 	0.71350 0.28650 0.05760 0.35200
C 	C 	0.69354 0.30646 0.09200 -0.12000
C 	C 	0.78650 0.78650 0.94240 0.35200
C 	C 	0.80646 0.80646 0.90800 -0.11900
C 	C 	0.78650 0.28650 0.44240 0.35300
C 	C 	0.80646 0.30646 0.40800 -0.12000
C 	C 	0.28650 0.78650 0.44240 0.35300
C 	C 	0.30646 0.80646 0.40800 -0.12000
C 	C 	0.28650 0.28650 0.94240 0.35100
C 	C 	0.30646 0.30646 0.90800 -0.11800
C 	C 	0.21350 0.94240 0.78650 0.35100
C 	C 	0.19354 0.90800 0.80646 -0.11800
C 	C 	0.21350 0.44240 0.28650 0.35200
C 	C 	0.19354 0.40800 0.30646 -0.11900
C 	C 	0.71350 0.94240 0.28650 0.35100
C 	C 	0.69354 0.90800 0.30646 -0.11800
C 	C 	0.71350 0.44240 0.78650 0.35300
C 	C 	0.69354 0.40800 0.80646 -0.12000
C 	C 	0.78650 0.05760 0.78650 0.35300
C 	C 	0.80646 0.09200 0.80646 -0.12000
C 	C 	0.78650 0.55760 0.28650 0.35300
C 	C 	0.80646 0.59200 0.30646 -0.12000
C 	C 	0.28650 0.05760 0.28650 0.35200
C 	C 	0.30646 0.09200 0.30646 -0.12000
C 	C 	0.28650 0.55760 0.78650 0.35300
C 	C 	0.30646 0.59200 0.80646 -0.12000
C 	C 	0.21350 0.05760 0.21350 0.35100
C 	C 	0.19354 0.09200 0.19354 -0.11900
C 	C 	0.21350 0.55760 0.71350 0.35200
C 	C 	0.19354 0.59200 0.69354 -0.11900
C 	C 	0.71350 0.05760 0.71350 0.35200
C 	C 	0.69354 0.09200 0.69354 -0.12000
C 	C 	0.71350 0.55760 0.21350 0.35200
C 	C 	0.69354 0.59200 0.19354 -0.11900
C 	C 	0.78650 0.94240 0.21350 0.35100
C 	C 	0.80646 0.90800 0.19354 -0.11800
C 	C 	0.78650 0.44240 0.71350 0.35300
C 	C 	0.80646 0.40800 0.69354 -0.12000
C 	C 	0.28650 0.94240 0.71350 0.35100
C 	C 	0.30646 0.90800 0.69354 -0.11800
C 	C 	0.28650 0.44240 0.21350 0.35200
C 	C 	0.30646 0.40800 0.19354 -0.11900
C 	C 	0.94240 0.21350 0.78650 0.35100
C 	C 	0.90800 0.19354 0.80646 -0.11800
C 	C 	0.94240 0.71350 0.28650 0.35100
C 	C 	0.90800 0.69354 0.30646 -0.11800
C 	C 	0.44240 0.21350 0.28650 0.35200
C 	C 	0.40800 0.19354 0.30646 -0.11900
C 	C 	0.44240 0.71350 0.78650 0.35300
C 	C 	0.40800 0.69354 0.80646 -0.12000
C 	C 	0.05760 0.21350 0.21350 0.35100
C 	C 	0.09200 0.19354 0.19354 -0.11900
C 	C 	0.05760 0.71350 0.71350 0.35200
C 	C 	0.09200 0.69354 0.69354 -0.12000
C 	C 	0.55760 0.21350 0.71350 0.35200
C 	C 	0.59200 0.19354 0.69354 -0.11900
C 	C 	0.55760 0.71350 0.21350 0.35200
C 	C 	0.59200 0.69354 0.19354 -0.11900
C 	C 	0.05760 0.78650 0.78650 0.35300
C 	C 	0.09200 0.80646 0.80646 -0.12000
C 	C 	0.05760 0.28650 0.28650 0.35200
C 	C 	0.09200 0.30646 0.30646 -0.12000
C 	C 	0.55760 0.78650 0.28650 0.35300
C 	C 	0.59200 0.80646 0.30646 -0.12000
C 	C 	0.55760 0.28650 0.78650 0.35300
C 	C 	0.59200 0.30646 0.80646 -0.12000
C 	C 	0.94240 0.78650 0.21350 0.35100
C 	C 	0.90800 0.80646 0.19354 -0.11800
C 	C 	0.94240 0.28650 0.71350 0.35100
C 	C 	0.90800 0.30646 0.69354 -0.11800
C 	C 	0.44240 0.78650 0.71350 0.35300
C 	C 	0.40800 0.80646 0.69354 -0.12000
C 	C 	0.44240 0.28650 0.21350 0.35200
C 	C 	0.40800 0.30646 0.19354 -0.11900
C 	C 	0.21350 0.21350 0.05760 0.35100
C 	C 	0.19354 0.19354 0.09200 -0.11900
C 	C 	0.21350 0.71350 0.55760 0.35200
C 	C 	0.19354 0.69354 0.59200 -0.11900
C 	C 	0.71350 0.21350 0.55760 0.35200
C 	C 	0.69354 0.19354 0.59200 -0.11900
C 	C 	0.71350 0.71350 0.05760 0.35200
C 	C 	0.69354 0.69354 0.09200 -0.12000
C 	C 	0.21350 0.78650 0.94240 0.35100
C 	C 	0.19354 0.80646 0.90800 -0.11800
C 	C 	0.21350 0.28650 0.44240 0.35200
C 	C 	0.19354 0.30646 0.40800 -0.11900
C 	C 	0.71350 0.78650 0.44240 0.35300
C 	C 	0.69354 0.80646 0.40800 -0.12000
C 	C 	0.71350 0.28650 0.94240 0.35100
C 	C 	0.69354 0.30646 0.90800 -0.11800
C 	C 	0.78650 0.21350 0.94240 0.35100
C 	C 	0.80646 0.19354 0.90800 -0.11800
C 	C 	0.78650 0.71350 0.44240 0.35300
C 	C 	0.80646 0.69354 0.40800 -0.12000
C 	C 	0.28650 0.21350 0.44240 0.35200
C 	C 	0.30646 0.19354 0.40800 -0.11900
C 	C 	0.28650 0.71350 0.94240 0.35100
C 	C 	0.30646 0.69354 0.90800 -0.11800
C 	C 	0.78650 0.78650 0.05760 0.35300
C 	C 	0.80646 0.80646 0.09200 -0.12000
C 	C 	0.78650 0.28650 0.55760 0.35300
C 	C 	0.80646 0.30646 0.59200 -0.12000
C 	C 	0.28650 0.78650 0.55760 0.35300
C 	C 	0.30646 0.80646 0.59200 -0.12000
C 	C 	0.28650 0.28650 0.05760 0.35200
C 	C 	0.30646 0.30646 0.09200 -0.12000
C 	C 	0.85880 0.14120 0.19220 -0.05500
C 	C 	0.85880 0.64120 0.69220 -0.05700
C 	C 	0.35880 0.14120 0.69220 -0.05500
C 	C 	0.35880 0.64120 0.19220 -0.05500
C 	C 	0.14120 0.85880 0.19220 -0.05500
C 	C 	0.14120 0.35880 0.69220 -0.05500
C 	C 	0.64120 0.85880 0.69220 -0.05700
C 	C 	0.64120 0.35880 0.19220 -0.05500
C 	C 	0.14120 0.14120 0.80780 -0.05400
C 	C 	0.14120 0.64120 0.30780 -0.05500
C 	C 	0.64120 0.14120 0.30780 -0.05500
C 	C 	0.64120 0.64120 0.80780 -0.05700
C 	C 	0.85880 0.85880 0.80780 -0.05900
C 	C 	0.85880 0.35880 0.30780 -0.05700
C 	C 	0.35880 0.85880 0.30780 -0.05700
C 	C 	0.35880 0.35880 0.80780 -0.05600
C 	C 	0.19220 0.85880 0.14120 -0.05500
C 	C 	0.19220 0.35880 0.64120 -0.05500
C 	C 	0.69220 0.85880 0.64120 -0.05700
C 	C 	0.69220 0.35880 0.14120 -0.05500
C 	C 	0.19220 0.14120 0.85880 -0.05500
C 	C 	0.19220 0.64120 0.35880 -0.05500
C 	C 	0.69220 0.14120 0.35880 -0.05500
C 	C 	0.69220 0.64120 0.85880 -0.05700
C 	C 	0.80780 0.14120 0.14120 -0.05400
C 	C 	0.80780 0.64120 0.64120 -0.05700
C 	C 	0.30780 0.14120 0.64120 -0.05500
C 	C 	0.30780 0.64120 0.14120 -0.05500
C 	C 	0.80780 0.85880 0.85880 -0.05900
C 	C 	0.80780 0.35880 0.35880 -0.05600
C 	C 	0.30780 0.85880 0.35880 -0.05700
C 	C 	0.30780 0.35880 0.85880 -0.05700
C 	C 	0.14120 0.19220 0.85880 -0.05500
C 	C 	0.14120 0.69220 0.35880 -0.05500
C 	C 	0.64120 0.19220 0.35880 -0.05500
C 	C 	0.64120 0.69220 0.85880 -0.05700
C 	C 	0.85880 0.19220 0.14120 -0.05500
C 	C 	0.85880 0.69220 0.64120 -0.05700
C 	C 	0.35880 0.19220 0.64120 -0.05500
C 	C 	0.35880 0.69220 0.14120 -0.05500
C 	C 	0.14120 0.80780 0.14120 -0.05400
C 	C 	0.14120 0.30780 0.64120 -0.05500
C 	C 	0.64120 0.80780 0.64120 -0.05700
C 	C 	0.64120 0.30780 0.14120 -0.05500
C 	C 	0.85880 0.80780 0.85880 -0.05900
C 	C 	0.85880 0.30780 0.35880 -0.05700
C 	C 	0.35880 0.80780 0.35880 -0.05600
C 	C 	0.35880 0.30780 0.85880 -0.05700
C 	C 	0.14120 0.85880 0.80780 -0.05600
C 	C 	0.14120 0.35880 0.30780 -0.05500
C 	C 	0.64120 0.85880 0.30780 -0.05700
C 	C 	0.64120 0.35880 0.80780 -0.05700
C 	C 	0.85880 0.14120 0.80780 -0.05600
C 	C 	0.85880 0.64120 0.30780 -0.05700
C 	C 	0.35880 0.14120 0.30780 -0.05500
C 	C 	0.35880 0.64120 0.80780 -0.05700
C 	C 	0.14120 0.14120 0.19220 -0.05300
C 	C 	0.14120 0.64120 0.69220 -0.05500
C 	C 	0.64120 0.14120 0.69220 -0.05500
C 	C 	0.64120 0.64120 0.19220 -0.05500
C 	C 	0.85880 0.85880 0.19220 -0.05700
C 	C 	0.85880 0.35880 0.69220 -0.05700
C 	C 	0.35880 0.85880 0.69220 -0.05700
C 	C 	0.35880 0.35880 0.19220 -0.05500
C 	C 	0.85880 0.19220 0.85880 -0.05700
C 	C 	0.85880 0.69220 0.35880 -0.05700
C 	C 	0.35880 0.19220 0.35880 -0.05500
C 	C 	0.35880 0.69220 0.85880 -0.05700
C 	C 	0.14120 0.19220 0.14120 -0.05300
C 	C 	0.14120 0.69220 0.64120 -0.05500
C 	C 	0.64120 0.19220 0.64120 -0.05500
C 	C 	0.64120 0.69220 0.14120 -0.05500
C 	C 	0.14120 0.80780 0.85880 -0.05600
C 	C 	0.14120 0.30780 0.35880 -0.05500
C 	C 	0.64120 0.80780 0.35880 -0.05700
C 	C 	0.64120 0.30780 0.85880 -0.05700
C 	C 	0.85880 0.80780 0.14120 -0.05600
C 	C 	0.85880 0.30780 0.64120 -0.05700
C 	C 	0.35880 0.80780 0.64120 -0.05700
C 	C 	0.35880 0.30780 0.14120 -0.05500
C 	C 	0.19220 0.14120 0.14120 -0.05300
C 	C 	0.19220 0.64120 0.64120 -0.05500
C 	C 	0.69220 0.14120 0.64120 -0.05500
C 	C 	0.69220 0.64120 0.14120 -0.05500
C 	C 	0.19220 0.85880 0.85880 -0.05700
C 	C 	0.19220 0.35880 0.35880 -0.05500
C 	C 	0.69220 0.85880 0.35880 -0.05700
C 	C 	0.69220 0.35880 0.85880 -0.05700
C 	C 	0.80780 0.14120 0.85880 -0.05600
C 	C 	0.80780 0.64120 0.35880 -0.05700
C 	C 	0.30780 0.14120 0.35880 -0.05500
C 	C 	0.30780 0.64120 0.85880 -0.05700
C 	C 	0.80780 0.85880 0.14120 -0.05600
C 	C 	0.80780 0.35880 0.64120 -0.05700
C 	C 	0.30780 0.85880 0.64120 -0.05700
C 	C 	0.30780 0.35880 0.14120 -0.05500
C 	C 	0.84340 0.15660 0.15660 0.06000
C 	C 	0.84340 0.65660 0.65660 0.06400
C 	C 	0.34340 0.15660 0.65660 0.06000
C 	C 	0.34340 0.65660 0.15660 0.06000
C 	C 	0.15660 0.84340 0.15660 0.06000
C 	C 	0.15660 0.34340 0.65660 0.06000
C 	C 	0.65660 0.84340 0.65660 0.06400
C 	C 	0.65660 0.34340 0.15660 0.06000
C 	C 	0.15660 0.15660 0.84340 0.06000
C 	C 	0.15660 0.65660 0.34340 0.06000
C 	C 	0.65660 0.15660 0.34340 0.06000
C 	C 	0.65660 0.65660 0.84340 0.06400
C 	C 	0.84340 0.84340 0.84340 0.06700
C 	C 	0.84340 0.34340 0.34340 0.06300
C 	C 	0.34340 0.84340 0.34340 0.06300
C 	C 	0.34340 0.34340 0.84340 0.06300
C 	C 	0.15660 0.84340 0.84340 0.06300
C 	C 	0.15660 0.34340 0.34340 0.05900
C 	C 	0.65660 0.84340 0.34340 0.06300
C 	C 	0.65660 0.34340 0.84340 0.06300
C 	C 	0.84340 0.15660 0.84340 0.06300
C 	C 	0.84340 0.65660 0.34340 0.06300
C 	C 	0.34340 0.15660 0.34340 0.05900
C 	C 	0.34340 0.65660 0.84340 0.06300
C 	C 	0.15660 0.15660 0.15660 0.05600
C 	C 	0.15660 0.65660 0.65660 0.06000
C 	C 	0.65660 0.15660 0.65660 0.06000
C 	C 	0.65660 0.65660 0.15660 0.06000
C 	C 	0.84340 0.84340 0.15660 0.06300
C 	C 	0.84340 0.34340 0.65660 0.06300
C 	C 	0.34340 0.84340 0.65660 0.06300
C 	C 	0.34340 0.34340 0.15660 0.05900
