data_crystal

_cell_length_a 29.83070
_cell_length_b 29.83070
_cell_length_c 29.83070
_cell_angle_alpha 90.00000
_cell_angle_beta  90.00000
_cell_angle_gamma 90.00000

_symmetry_space_group_name_	'P 1'
_symmetry_space_group_name_H-M	'P 1'

loop_
_symmetry_equiv_pos_as_xyz
  x,y,z

loop_
_atom_site_label
_atom_site_type_symbol
_atom_site_fract_x
_atom_site_fract_y
_atom_site_fract_z
_atom_site_charge
O 	O 	0.16880 0.27200 0.45960 -0.40100
C 	C 	0.18130 0.23150 0.43740 0.36800
C 	C 	0.15840 0.21210 0.39870 -0.27500
O 	O 	0.16880 0.77200 0.95960 -0.36900
C 	C 	0.18130 0.73150 0.93740 0.36700
C 	C 	0.15840 0.71210 0.89870 -0.27000
O 	O 	0.66880 0.27200 0.95960 -0.36700
C 	C 	0.68130 0.23150 0.93740 0.36800
C 	C 	0.65840 0.21210 0.89870 -0.26900
O 	O 	0.66880 0.77200 0.45960 -0.39500
C 	C 	0.68130 0.73150 0.43740 0.37100
C 	C 	0.65840 0.71210 0.39870 -0.27500
O 	O 	0.83120 0.72800 0.45960 -0.39300
C 	C 	0.81870 0.76850 0.43740 0.37400
C 	C 	0.84160 0.78790 0.39870 -0.27300
O 	O 	0.83120 0.22800 0.95960 -0.36500
C 	C 	0.81870 0.26850 0.93740 0.37100
C 	C 	0.84160 0.28790 0.89870 -0.26800
O 	O 	0.33120 0.72800 0.95960 -0.36600
C 	C 	0.31870 0.76850 0.93740 0.37100
C 	C 	0.34160 0.78790 0.89870 -0.26700
O 	O 	0.33120 0.22800 0.45960 -0.39800
C 	C 	0.31870 0.26850 0.43740 0.37200
C 	C 	0.34160 0.28790 0.39870 -0.27400
O 	O 	0.83120 0.27200 0.54040 -0.39200
C 	C 	0.81870 0.23150 0.56260 0.37200
C 	C 	0.84160 0.21210 0.60130 -0.27300
O 	O 	0.83120 0.77200 0.04040 -0.40500
C 	C 	0.81870 0.73150 0.06260 0.36900
C 	C 	0.84160 0.71210 0.10130 -0.27500
O 	O 	0.33120 0.27200 0.04040 -0.41200
C 	C 	0.31870 0.23150 0.06260 0.36600
C 	C 	0.34160 0.21210 0.10130 -0.27600
O 	O 	0.33120 0.77200 0.54040 -0.39400
C 	C 	0.31870 0.73150 0.56260 0.37200
C 	C 	0.34160 0.71210 0.60130 -0.27400
O 	O 	0.16880 0.72800 0.54040 -0.40000
C 	C 	0.18130 0.76850 0.56260 0.37100
C 	C 	0.15840 0.78790 0.60130 -0.27400
O 	O 	0.16880 0.22800 0.04040 -0.41600
C 	C 	0.18130 0.26850 0.06260 0.36600
C 	C 	0.15840 0.28790 0.10130 -0.27600
O 	O 	0.66880 0.72800 0.04040 -0.41100
C 	C 	0.68130 0.76850 0.06260 0.36900
C 	C 	0.65840 0.78790 0.10130 -0.27600
O 	O 	0.66880 0.22800 0.54040 -0.39800
C 	C 	0.68130 0.26850 0.56260 0.37200
C 	C 	0.65840 0.28790 0.60130 -0.27400
O 	O 	0.45960 0.16880 0.27200 -0.40000
C 	C 	0.43740 0.18130 0.23150 0.36900
C 	C 	0.39870 0.15840 0.21210 -0.27400
O 	O 	0.45960 0.66880 0.77200 -0.39400
C 	C 	0.43740 0.68130 0.73150 0.37200
C 	C 	0.39870 0.65840 0.71210 -0.27400
O 	O 	0.95960 0.16880 0.77200 -0.36800
C 	C 	0.93740 0.18130 0.73150 0.36800
C 	C 	0.89870 0.15840 0.71210 -0.26900
O 	O 	0.95960 0.66880 0.27200 -0.36600
C 	C 	0.93740 0.68130 0.23150 0.36900
C 	C 	0.89870 0.65840 0.21210 -0.26800
O 	O 	0.45960 0.83120 0.72800 -0.39200
C 	C 	0.43740 0.81870 0.76850 0.37500
C 	C 	0.39870 0.84160 0.78790 -0.27200
O 	O 	0.45960 0.33120 0.22800 -0.39800
C 	C 	0.43740 0.31870 0.26850 0.37200
C 	C 	0.39870 0.34160 0.28790 -0.27400
O 	O 	0.95960 0.83120 0.22800 -0.36400
C 	C 	0.93740 0.81870 0.26850 0.37200
C 	C 	0.89870 0.84160 0.28790 -0.26700
O 	O 	0.95960 0.33120 0.72800 -0.36600
C 	C 	0.93740 0.31870 0.76850 0.37100
C 	C 	0.89870 0.34160 0.78790 -0.26700
O 	O 	0.54040 0.83120 0.27200 -0.39200
C 	C 	0.56260 0.81870 0.23150 0.37200
C 	C 	0.60130 0.84160 0.21210 -0.27300
O 	O 	0.54040 0.33120 0.77200 -0.39400
C 	C 	0.56260 0.31870 0.73150 0.37200
C 	C 	0.60130 0.34160 0.71210 -0.27400
O 	O 	0.04040 0.83120 0.77200 -0.40500
C 	C 	0.06260 0.81870 0.73150 0.36900
C 	C 	0.10130 0.84160 0.71210 -0.27500
O 	O 	0.04040 0.33120 0.27200 -0.41200
C 	C 	0.06260 0.31870 0.23150 0.36600
C 	C 	0.10130 0.34160 0.21210 -0.27600
O 	O 	0.54040 0.16880 0.72800 -0.40000
C 	C 	0.56260 0.18130 0.76850 0.37100
C 	C 	0.60130 0.15840 0.78790 -0.27400
O 	O 	0.54040 0.66880 0.22800 -0.39800
C 	C 	0.56260 0.68130 0.26850 0.37200
C 	C 	0.60130 0.65840 0.28790 -0.27400
O 	O 	0.04040 0.16880 0.22800 -0.41600
C 	C 	0.06260 0.18130 0.26850 0.36600
C 	C 	0.10130 0.15840 0.28790 -0.27600
O 	O 	0.04040 0.66880 0.72800 -0.41100
C 	C 	0.06260 0.68130 0.76850 0.36900
C 	C 	0.10130 0.65840 0.78790 -0.27600
O 	O 	0.27200 0.45960 0.16880 -0.40000
C 	C 	0.23150 0.43740 0.18130 0.36900
C 	C 	0.21210 0.39870 0.15840 -0.27400
O 	O 	0.27200 0.95960 0.66880 -0.36600
C 	C 	0.23150 0.93740 0.68130 0.36900
C 	C 	0.21210 0.89870 0.65840 -0.26800
O 	O 	0.77200 0.45960 0.66880 -0.39400
C 	C 	0.73150 0.43740 0.68130 0.37200
C 	C 	0.71210 0.39870 0.65840 -0.27400
O 	O 	0.77200 0.95960 0.16880 -0.36800
C 	C 	0.73150 0.93740 0.18130 0.36800
C 	C 	0.71210 0.89870 0.15840 -0.26900
O 	O 	0.72800 0.45960 0.83120 -0.39200
C 	C 	0.76850 0.43740 0.81870 0.37500
C 	C 	0.78790 0.39870 0.84160 -0.27200
O 	O 	0.72800 0.95960 0.33120 -0.36600
C 	C 	0.76850 0.93740 0.31870 0.37100
C 	C 	0.78790 0.89870 0.34160 -0.26700
O 	O 	0.22800 0.45960 0.33120 -0.39800
C 	C 	0.26850 0.43740 0.31870 0.37200
C 	C 	0.28790 0.39870 0.34160 -0.27400
O 	O 	0.22800 0.95960 0.83120 -0.36400
C 	C 	0.26850 0.93740 0.81870 0.37200
C 	C 	0.28790 0.89870 0.84160 -0.26700
O 	O 	0.27200 0.54040 0.83120 -0.39200
C 	C 	0.23150 0.56260 0.81870 0.37200
C 	C 	0.21210 0.60130 0.84160 -0.27300
O 	O 	0.27200 0.04040 0.33120 -0.41200
C 	C 	0.23150 0.06260 0.31870 0.36600
C 	C 	0.21210 0.10130 0.34160 -0.27600
O 	O 	0.77200 0.54040 0.33120 -0.39400
C 	C 	0.73150 0.56260 0.31870 0.37200
C 	C 	0.71210 0.60130 0.34160 -0.27400
O 	O 	0.77200 0.04040 0.83120 -0.40500
C 	C 	0.73150 0.06260 0.81870 0.36900
C 	C 	0.71210 0.10130 0.84160 -0.27500
O 	O 	0.72800 0.54040 0.16880 -0.40000
C 	C 	0.76850 0.56260 0.18130 0.37100
C 	C 	0.78790 0.60130 0.15840 -0.27400
O 	O 	0.72800 0.04040 0.66880 -0.41100
C 	C 	0.76850 0.06260 0.68130 0.36900
C 	C 	0.78790 0.10130 0.65840 -0.27600
O 	O 	0.22800 0.54040 0.66880 -0.39800
C 	C 	0.26850 0.56260 0.68130 0.37200
C 	C 	0.28790 0.60130 0.65840 -0.27400
O 	O 	0.22800 0.04040 0.16880 -0.41600
C 	C 	0.26850 0.06260 0.18130 0.36600
C 	C 	0.28790 0.10130 0.15840 -0.27600
O 	O 	0.27200 0.16880 0.54040 -0.40000
C 	C 	0.23150 0.18130 0.56260 0.36900
C 	C 	0.21210 0.15840 0.60130 -0.27400
O 	O 	0.27200 0.66880 0.04040 -0.41200
C 	C 	0.23150 0.68130 0.06260 0.36600
C 	C 	0.21210 0.65840 0.10130 -0.27600
O 	O 	0.77200 0.16880 0.04040 -0.41300
C 	C 	0.73150 0.18130 0.06260 0.36600
C 	C 	0.71210 0.15840 0.10130 -0.27700
O 	O 	0.77200 0.66880 0.54040 -0.39500
C 	C 	0.73150 0.68130 0.56260 0.37200
C 	C 	0.71210 0.65840 0.60130 -0.27400
O 	O 	0.72800 0.83120 0.54040 -0.39200
C 	C 	0.76850 0.81870 0.56260 0.37500
C 	C 	0.78790 0.84160 0.60130 -0.27200
O 	O 	0.72800 0.33120 0.04040 -0.41100
C 	C 	0.76850 0.31870 0.06260 0.36900
C 	C 	0.78790 0.34160 0.10130 -0.27500
O 	O 	0.22800 0.83120 0.04040 -0.40900
C 	C 	0.26850 0.81870 0.06260 0.36900
C 	C 	0.28790 0.84160 0.10130 -0.27500
O 	O 	0.22800 0.33120 0.54040 -0.39800
C 	C 	0.26850 0.31870 0.56260 0.37200
C 	C 	0.28790 0.34160 0.60130 -0.27400
O 	O 	0.27200 0.83120 0.45960 -0.39200
C 	C 	0.23150 0.81870 0.43740 0.37200
C 	C 	0.21210 0.84160 0.39870 -0.27300
O 	O 	0.27200 0.33120 0.95960 -0.36600
C 	C 	0.23150 0.31870 0.93740 0.36900
C 	C 	0.21210 0.34160 0.89870 -0.26800
O 	O 	0.77200 0.83120 0.95960 -0.36000
C 	C 	0.73150 0.81870 0.93740 0.37200
C 	C 	0.71210 0.84160 0.89870 -0.26700
O 	O 	0.77200 0.33120 0.45960 -0.39400
C 	C 	0.73150 0.31870 0.43740 0.37200
C 	C 	0.71210 0.34160 0.39870 -0.27400
O 	O 	0.72800 0.16880 0.45960 -0.40000
C 	C 	0.76850 0.18130 0.43740 0.37100
C 	C 	0.78790 0.15840 0.39870 -0.27400
O 	O 	0.72800 0.66880 0.95960 -0.36600
C 	C 	0.76850 0.68130 0.93740 0.37100
C 	C 	0.78790 0.65840 0.89870 -0.26800
O 	O 	0.22800 0.16880 0.95960 -0.37100
C 	C 	0.26850 0.18130 0.93740 0.36800
C 	C 	0.28790 0.15840 0.89870 -0.26800
O 	O 	0.22800 0.66880 0.45960 -0.39800
C 	C 	0.26850 0.68130 0.43740 0.37200
C 	C 	0.28790 0.65840 0.39870 -0.27400
O 	O 	0.16880 0.45960 0.72800 -0.40000
C 	C 	0.18130 0.43740 0.76850 0.37100
C 	C 	0.15840 0.39870 0.78790 -0.27400
O 	O 	0.16880 0.95960 0.22800 -0.37100
C 	C 	0.18130 0.93740 0.26850 0.36800
C 	C 	0.15840 0.89870 0.28790 -0.26800
O 	O 	0.66880 0.45960 0.22800 -0.39800
C 	C 	0.68130 0.43740 0.26850 0.37200
C 	C 	0.65840 0.39870 0.28790 -0.27400
O 	O 	0.66880 0.95960 0.72800 -0.36600
C 	C 	0.68130 0.93740 0.76850 0.37100
C 	C 	0.65840 0.89870 0.78790 -0.26800
O 	O 	0.83120 0.45960 0.27200 -0.39200
C 	C 	0.81870 0.43740 0.23150 0.37200
C 	C 	0.84160 0.39870 0.21210 -0.27300
O 	O 	0.83120 0.95960 0.77200 -0.36000
C 	C 	0.81870 0.93740 0.73150 0.37200
C 	C 	0.84160 0.89870 0.71210 -0.26700
O 	O 	0.33120 0.45960 0.77200 -0.39400
C 	C 	0.31870 0.43740 0.73150 0.37200
C 	C 	0.34160 0.39870 0.71210 -0.27400
O 	O 	0.33120 0.95960 0.27200 -0.36600
C 	C 	0.31870 0.93740 0.23150 0.36900
C 	C 	0.34160 0.89870 0.21210 -0.26800
O 	O 	0.83120 0.54040 0.72800 -0.39200
C 	C 	0.81870 0.56260 0.76850 0.37500
C 	C 	0.84160 0.60130 0.78790 -0.27200
O 	O 	0.83120 0.04040 0.22800 -0.40900
C 	C 	0.81870 0.06260 0.26850 0.36900
C 	C 	0.84160 0.10130 0.28790 -0.27500
O 	O 	0.33120 0.54040 0.22800 -0.39800
C 	C 	0.31870 0.56260 0.26850 0.37200
C 	C 	0.34160 0.60130 0.28790 -0.27400
O 	O 	0.33120 0.04040 0.72800 -0.41100
C 	C 	0.31870 0.06260 0.76850 0.36900
C 	C 	0.34160 0.10130 0.78790 -0.27500
O 	O 	0.16880 0.54040 0.27200 -0.40000
C 	C 	0.18130 0.56260 0.23150 0.36900
C 	C 	0.15840 0.60130 0.21210 -0.27400
O 	O 	0.16880 0.04040 0.77200 -0.41300
C 	C 	0.18130 0.06260 0.73150 0.36600
C 	C 	0.15840 0.10130 0.71210 -0.27700
O 	O 	0.66880 0.54040 0.77200 -0.39500
C 	C 	0.68130 0.56260 0.73150 0.37200
C 	C 	0.65840 0.60130 0.71210 -0.27400
O 	O 	0.66880 0.04040 0.27200 -0.41200
C 	C 	0.68130 0.06260 0.23150 0.36600
C 	C 	0.65840 0.10130 0.21210 -0.27600
O 	O 	0.45960 0.27200 0.83120 -0.39200
C 	C 	0.43740 0.23150 0.81870 0.37200
C 	C 	0.39870 0.21210 0.84160 -0.27300
O 	O 	0.45960 0.77200 0.33120 -0.39400
C 	C 	0.43740 0.73150 0.31870 0.37200
C 	C 	0.39870 0.71210 0.34160 -0.27400
O 	O 	0.95960 0.27200 0.33120 -0.36600
C 	C 	0.93740 0.23150 0.31870 0.36900
C 	C 	0.89870 0.21210 0.34160 -0.26800
O 	O 	0.95960 0.77200 0.83120 -0.36000
C 	C 	0.93740 0.73150 0.81870 0.37200
C 	C 	0.89870 0.71210 0.84160 -0.26700
O 	O 	0.45960 0.72800 0.16880 -0.40000
C 	C 	0.43740 0.76850 0.18130 0.37100
C 	C 	0.39870 0.78790 0.15840 -0.27400
O 	O 	0.45960 0.22800 0.66880 -0.39800
C 	C 	0.43740 0.26850 0.68130 0.37200
C 	C 	0.39870 0.28790 0.65840 -0.27400
O 	O 	0.95960 0.72800 0.66880 -0.36600
C 	C 	0.93740 0.76850 0.68130 0.37100
C 	C 	0.89870 0.78790 0.65840 -0.26800
O 	O 	0.95960 0.22800 0.16880 -0.37100
C 	C 	0.93740 0.26850 0.18130 0.36800
C 	C 	0.89870 0.28790 0.15840 -0.26800
O 	O 	0.54040 0.27200 0.16880 -0.40000
C 	C 	0.56260 0.23150 0.18130 0.36900
C 	C 	0.60130 0.21210 0.15840 -0.27400
O 	O 	0.54040 0.77200 0.66880 -0.39500
C 	C 	0.56260 0.73150 0.68130 0.37200
C 	C 	0.60130 0.71210 0.65840 -0.27400
O 	O 	0.04040 0.27200 0.66880 -0.41200
C 	C 	0.06260 0.23150 0.68130 0.36600
C 	C 	0.10130 0.21210 0.65840 -0.27600
O 	O 	0.04040 0.77200 0.16880 -0.41300
C 	C 	0.06260 0.73150 0.18130 0.36600
C 	C 	0.10130 0.71210 0.15840 -0.27700
O 	O 	0.54040 0.72800 0.83120 -0.39200
C 	C 	0.56260 0.76850 0.81870 0.37500
C 	C 	0.60130 0.78790 0.84160 -0.27200
O 	O 	0.54040 0.22800 0.33120 -0.39800
C 	C 	0.56260 0.26850 0.31870 0.37200
C 	C 	0.60130 0.28790 0.34160 -0.27400
O 	O 	0.04040 0.72800 0.33120 -0.41100
C 	C 	0.06260 0.76850 0.31870 0.36900
C 	C 	0.10130 0.78790 0.34160 -0.27500
O 	O 	0.04040 0.22800 0.83120 -0.40900
C 	C 	0.06260 0.26850 0.81870 0.36900
C 	C 	0.10130 0.28790 0.84160 -0.27500
O 	O 	0.83120 0.72800 0.54040 -0.39200
C 	C 	0.81870 0.76850 0.56260 0.37500
C 	C 	0.84160 0.78790 0.60130 -0.27200
O 	O 	0.83120 0.22800 0.04040 -0.40900
C 	C 	0.81870 0.26850 0.06260 0.36900
C 	C 	0.84160 0.28790 0.10130 -0.27500
O 	O 	0.33120 0.72800 0.04040 -0.41100
C 	C 	0.31870 0.76850 0.06260 0.36900
C 	C 	0.34160 0.78790 0.10130 -0.27500
O 	O 	0.33120 0.22800 0.54040 -0.39800
C 	C 	0.31870 0.26850 0.56260 0.37200
C 	C 	0.34160 0.28790 0.60130 -0.27400
O 	O 	0.16880 0.27200 0.54040 -0.40000
C 	C 	0.18130 0.23150 0.56260 0.36900
C 	C 	0.15840 0.21210 0.60130 -0.27400
O 	O 	0.16880 0.77200 0.04040 -0.41300
C 	C 	0.18130 0.73150 0.06260 0.36600
C 	C 	0.15840 0.71210 0.10130 -0.27700
O 	O 	0.66880 0.27200 0.04040 -0.41200
C 	C 	0.68130 0.23150 0.06260 0.36600
C 	C 	0.65840 0.21210 0.10130 -0.27600
O 	O 	0.66880 0.77200 0.54040 -0.39500
C 	C 	0.68130 0.73150 0.56260 0.37200
C 	C 	0.65840 0.71210 0.60130 -0.27400
O 	O 	0.16880 0.72800 0.45960 -0.40000
C 	C 	0.18130 0.76850 0.43740 0.37100
C 	C 	0.15840 0.78790 0.39870 -0.27400
O 	O 	0.16880 0.22800 0.95960 -0.37100
C 	C 	0.18130 0.26850 0.93740 0.36800
C 	C 	0.15840 0.28790 0.89870 -0.26800
O 	O 	0.66880 0.72800 0.95960 -0.36600
C 	C 	0.68130 0.76850 0.93740 0.37100
C 	C 	0.65840 0.78790 0.89870 -0.26800
O 	O 	0.66880 0.22800 0.45960 -0.39800
C 	C 	0.68130 0.26850 0.43740 0.37200
C 	C 	0.65840 0.28790 0.39870 -0.27400
O 	O 	0.83120 0.27200 0.45960 -0.39200
C 	C 	0.81870 0.23150 0.43740 0.37200
C 	C 	0.84160 0.21210 0.39870 -0.27300
O 	O 	0.83120 0.77200 0.95960 -0.36000
C 	C 	0.81870 0.73150 0.93740 0.37200
C 	C 	0.84160 0.71210 0.89870 -0.26700
O 	O 	0.33120 0.27200 0.95960 -0.36600
C 	C 	0.31870 0.23150 0.93740 0.36900
C 	C 	0.34160 0.21210 0.89870 -0.26800
O 	O 	0.33120 0.77200 0.45960 -0.39400
C 	C 	0.31870 0.73150 0.43740 0.37200
C 	C 	0.34160 0.71210 0.39870 -0.27400
O 	O 	0.54040 0.83120 0.72800 -0.39200
C 	C 	0.56260 0.81870 0.76850 0.37500
C 	C 	0.60130 0.84160 0.78790 -0.27200
O 	O 	0.54040 0.33120 0.22800 -0.39800
C 	C 	0.56260 0.31870 0.26850 0.37200
C 	C 	0.60130 0.34160 0.28790 -0.27400
O 	O 	0.04040 0.83120 0.22800 -0.40900
C 	C 	0.06260 0.81870 0.26850 0.36900
C 	C 	0.10130 0.84160 0.28790 -0.27500
O 	O 	0.04040 0.33120 0.72800 -0.41100
C 	C 	0.06260 0.31870 0.76850 0.36900
C 	C 	0.10130 0.34160 0.78790 -0.27500
O 	O 	0.54040 0.16880 0.27200 -0.40000
C 	C 	0.56260 0.18130 0.23150 0.36900
C 	C 	0.60130 0.15840 0.21210 -0.27400
O 	O 	0.54040 0.66880 0.77200 -0.39500
C 	C 	0.56260 0.68130 0.73150 0.37200
C 	C 	0.60130 0.65840 0.71210 -0.27400
O 	O 	0.04040 0.16880 0.77200 -0.41300
C 	C 	0.06260 0.18130 0.73150 0.36600
C 	C 	0.10130 0.15840 0.71210 -0.27700
O 	O 	0.04040 0.66880 0.27200 -0.41200
C 	C 	0.06260 0.68130 0.23150 0.36600
C 	C 	0.10130 0.65840 0.21210 -0.27600
O 	O 	0.45960 0.16880 0.72800 -0.40000
C 	C 	0.43740 0.18130 0.76850 0.37100
C 	C 	0.39870 0.15840 0.78790 -0.27400
O 	O 	0.45960 0.66880 0.22800 -0.39800
C 	C 	0.43740 0.68130 0.26850 0.37200
C 	C 	0.39870 0.65840 0.28790 -0.27400
O 	O 	0.95960 0.16880 0.22800 -0.37100
C 	C 	0.93740 0.18130 0.26850 0.36800
C 	C 	0.89870 0.15840 0.28790 -0.26800
O 	O 	0.95960 0.66880 0.72800 -0.36600
C 	C 	0.93740 0.68130 0.76850 0.37100
C 	C 	0.89870 0.65840 0.78790 -0.26800
O 	O 	0.45960 0.83120 0.27200 -0.39200
C 	C 	0.43740 0.81870 0.23150 0.37200
C 	C 	0.39870 0.84160 0.21210 -0.27300
O 	O 	0.45960 0.33120 0.77200 -0.39400
C 	C 	0.43740 0.31870 0.73150 0.37200
C 	C 	0.39870 0.34160 0.71210 -0.27400
O 	O 	0.95960 0.83120 0.77200 -0.36000
C 	C 	0.93740 0.81870 0.73150 0.37200
C 	C 	0.89870 0.84160 0.71210 -0.26700
O 	O 	0.95960 0.33120 0.27200 -0.36600
C 	C 	0.93740 0.31870 0.23150 0.36900
C 	C 	0.89870 0.34160 0.21210 -0.26800
O 	O 	0.72800 0.54040 0.83120 -0.39200
C 	C 	0.76850 0.56260 0.81870 0.37500
C 	C 	0.78790 0.60130 0.84160 -0.27200
O 	O 	0.72800 0.04040 0.33120 -0.41100
C 	C 	0.76850 0.06260 0.31870 0.36900
C 	C 	0.78790 0.10130 0.34160 -0.27500
O 	O 	0.22800 0.54040 0.33120 -0.39800
C 	C 	0.26850 0.56260 0.31870 0.37200
C 	C 	0.28790 0.60130 0.34160 -0.27400
O 	O 	0.22800 0.04040 0.83120 -0.40900
C 	C 	0.26850 0.06260 0.81870 0.36900
C 	C 	0.28790 0.10130 0.84160 -0.27500
O 	O 	0.27200 0.54040 0.16880 -0.40000
C 	C 	0.23150 0.56260 0.18130 0.36900
C 	C 	0.21210 0.60130 0.15840 -0.27400
O 	O 	0.27200 0.04040 0.66880 -0.41200
C 	C 	0.23150 0.06260 0.68130 0.36600
C 	C 	0.21210 0.10130 0.65840 -0.27600
O 	O 	0.77200 0.54040 0.66880 -0.39500
C 	C 	0.73150 0.56260 0.68130 0.37200
C 	C 	0.71210 0.60130 0.65840 -0.27400
O 	O 	0.77200 0.04040 0.16880 -0.41300
C 	C 	0.73150 0.06260 0.18130 0.36600
C 	C 	0.71210 0.10130 0.15840 -0.27700
O 	O 	0.72800 0.45960 0.16880 -0.40000
C 	C 	0.76850 0.43740 0.18130 0.37100
C 	C 	0.78790 0.39870 0.15840 -0.27400
O 	O 	0.72800 0.95960 0.66880 -0.36600
C 	C 	0.76850 0.93740 0.68130 0.37100
C 	C 	0.78790 0.89870 0.65840 -0.26800
O 	O 	0.22800 0.45960 0.66880 -0.39800
C 	C 	0.26850 0.43740 0.68130 0.37200
C 	C 	0.28790 0.39870 0.65840 -0.27400
O 	O 	0.22800 0.95960 0.16880 -0.37100
C 	C 	0.26850 0.93740 0.18130 0.36800
C 	C 	0.28790 0.89870 0.15840 -0.26800
O 	O 	0.27200 0.45960 0.83120 -0.39200
C 	C 	0.23150 0.43740 0.81870 0.37200
C 	C 	0.21210 0.39870 0.84160 -0.27300
O 	O 	0.27200 0.95960 0.33120 -0.36600
C 	C 	0.23150 0.93740 0.31870 0.36900
C 	C 	0.21210 0.89870 0.34160 -0.26800
O 	O 	0.77200 0.45960 0.33120 -0.39400
C 	C 	0.73150 0.43740 0.31870 0.37200
C 	C 	0.71210 0.39870 0.34160 -0.27400
O 	O 	0.77200 0.95960 0.83120 -0.36000
C 	C 	0.73150 0.93740 0.81870 0.37200
C 	C 	0.71210 0.89870 0.84160 -0.26700
O 	O 	0.72800 0.83120 0.45960 -0.39200
C 	C 	0.76850 0.81870 0.43740 0.37500
C 	C 	0.78790 0.84160 0.39870 -0.27200
O 	O 	0.72800 0.33120 0.95960 -0.36600
C 	C 	0.76850 0.31870 0.93740 0.37100
C 	C 	0.78790 0.34160 0.89870 -0.26700
O 	O 	0.22800 0.83120 0.95960 -0.36400
C 	C 	0.26850 0.81870 0.93740 0.37200
C 	C 	0.28790 0.84160 0.89870 -0.26700
O 	O 	0.22800 0.33120 0.45960 -0.39800
C 	C 	0.26850 0.31870 0.43740 0.37200
C 	C 	0.28790 0.34160 0.39870 -0.27400
O 	O 	0.27200 0.16880 0.45960 -0.40000
C 	C 	0.23150 0.18130 0.43740 0.36900
C 	C 	0.21210 0.15840 0.39870 -0.27400
O 	O 	0.27200 0.66880 0.95960 -0.36600
C 	C 	0.23150 0.68130 0.93740 0.36900
C 	C 	0.21210 0.65840 0.89870 -0.26800
O 	O 	0.77200 0.16880 0.95960 -0.36800
C 	C 	0.73150 0.18130 0.93740 0.36800
C 	C 	0.71210 0.15840 0.89870 -0.26900
O 	O 	0.77200 0.66880 0.45960 -0.39400
C 	C 	0.73150 0.68130 0.43740 0.37200
C 	C 	0.71210 0.65840 0.39870 -0.27400
O 	O 	0.72800 0.16880 0.54040 -0.40000
C 	C 	0.76850 0.18130 0.56260 0.37100
C 	C 	0.78790 0.15840 0.60130 -0.27400
O 	O 	0.72800 0.66880 0.04040 -0.41100
C 	C 	0.76850 0.68130 0.06260 0.36900
C 	C 	0.78790 0.65840 0.10130 -0.27600
O 	O 	0.22800 0.16880 0.04040 -0.41600
C 	C 	0.26850 0.18130 0.06260 0.36600
C 	C 	0.28790 0.15840 0.10130 -0.27600
O 	O 	0.22800 0.66880 0.54040 -0.39800
C 	C 	0.26850 0.68130 0.56260 0.37200
C 	C 	0.28790 0.65840 0.60130 -0.27400
O 	O 	0.27200 0.83120 0.54040 -0.39200
C 	C 	0.23150 0.81870 0.56260 0.37200
C 	C 	0.21210 0.84160 0.60130 -0.27300
O 	O 	0.27200 0.33120 0.04040 -0.41200
C 	C 	0.23150 0.31870 0.06260 0.36600
C 	C 	0.21210 0.34160 0.10130 -0.27600
O 	O 	0.77200 0.83120 0.04040 -0.40500
C 	C 	0.73150 0.81870 0.06260 0.36900
C 	C 	0.71210 0.84160 0.10130 -0.27500
O 	O 	0.77200 0.33120 0.54040 -0.39400
C 	C 	0.73150 0.31870 0.56260 0.37200
C 	C 	0.71210 0.34160 0.60130 -0.27400
O 	O 	0.83120 0.54040 0.27200 -0.39200
C 	C 	0.81870 0.56260 0.23150 0.37200
C 	C 	0.84160 0.60130 0.21210 -0.27300
O 	O 	0.83120 0.04040 0.77200 -0.40500
C 	C 	0.81870 0.06260 0.73150 0.36900
C 	C 	0.84160 0.10130 0.71210 -0.27500
O 	O 	0.33120 0.54040 0.77200 -0.39400
C 	C 	0.31870 0.56260 0.73150 0.37200
C 	C 	0.34160 0.60130 0.71210 -0.27400
O 	O 	0.33120 0.04040 0.27200 -0.41200
C 	C 	0.31870 0.06260 0.23150 0.36600
C 	C 	0.34160 0.10130 0.21210 -0.27600
O 	O 	0.16880 0.54040 0.72800 -0.40000
C 	C 	0.18130 0.56260 0.76850 0.37100
C 	C 	0.15840 0.60130 0.78790 -0.27400
O 	O 	0.16880 0.04040 0.22800 -0.41600
C 	C 	0.18130 0.06260 0.26850 0.36600
C 	C 	0.15840 0.10130 0.28790 -0.27600
O 	O 	0.66880 0.54040 0.22800 -0.39800
C 	C 	0.68130 0.56260 0.26850 0.37200
C 	C 	0.65840 0.60130 0.28790 -0.27400
O 	O 	0.66880 0.04040 0.72800 -0.41100
C 	C 	0.68130 0.06260 0.76850 0.36900
C 	C 	0.65840 0.10130 0.78790 -0.27600
O 	O 	0.16880 0.45960 0.27200 -0.40000
C 	C 	0.18130 0.43740 0.23150 0.36900
C 	C 	0.15840 0.39870 0.21210 -0.27400
O 	O 	0.16880 0.95960 0.77200 -0.36800
C 	C 	0.18130 0.93740 0.73150 0.36800
C 	C 	0.15840 0.89870 0.71210 -0.26900
O 	O 	0.66880 0.45960 0.77200 -0.39400
C 	C 	0.68130 0.43740 0.73150 0.37200
C 	C 	0.65840 0.39870 0.71210 -0.27400
O 	O 	0.66880 0.95960 0.27200 -0.36600
C 	C 	0.68130 0.93740 0.23150 0.36900
C 	C 	0.65840 0.89870 0.21210 -0.26800
O 	O 	0.83120 0.45960 0.72800 -0.39200
C 	C 	0.81870 0.43740 0.76850 0.37500
C 	C 	0.84160 0.39870 0.78790 -0.27200
O 	O 	0.83120 0.95960 0.22800 -0.36400
C 	C 	0.81870 0.93740 0.26850 0.37200
C 	C 	0.84160 0.89870 0.28790 -0.26700
O 	O 	0.33120 0.45960 0.22800 -0.39800
C 	C 	0.31870 0.43740 0.26850 0.37200
C 	C 	0.34160 0.39870 0.28790 -0.27400
O 	O 	0.33120 0.95960 0.72800 -0.36600
C 	C 	0.31870 0.93740 0.76850 0.37100
C 	C 	0.34160 0.89870 0.78790 -0.26700
O 	O 	0.54040 0.72800 0.16880 -0.40000
C 	C 	0.56260 0.76850 0.18130 0.37100
C 	C 	0.60130 0.78790 0.15840 -0.27400
O 	O 	0.54040 0.22800 0.66880 -0.39800
C 	C 	0.56260 0.26850 0.68130 0.37200
C 	C 	0.60130 0.28790 0.65840 -0.27400
O 	O 	0.04040 0.72800 0.66880 -0.41100
C 	C 	0.06260 0.76850 0.68130 0.36900
C 	C 	0.10130 0.78790 0.65840 -0.27600
O 	O 	0.04040 0.22800 0.16880 -0.41600
C 	C 	0.06260 0.26850 0.18130 0.36600
C 	C 	0.10130 0.28790 0.15840 -0.27600
O 	O 	0.54040 0.27200 0.83120 -0.39200
C 	C 	0.56260 0.23150 0.81870 0.37200
C 	C 	0.60130 0.21210 0.84160 -0.27300
O 	O 	0.54040 0.77200 0.33120 -0.39400
C 	C 	0.56260 0.73150 0.31870 0.37200
C 	C 	0.60130 0.71210 0.34160 -0.27400
O 	O 	0.04040 0.27200 0.33120 -0.41200
C 	C 	0.06260 0.23150 0.31870 0.36600
C 	C 	0.10130 0.21210 0.34160 -0.27600
O 	O 	0.04040 0.77200 0.83120 -0.40500
C 	C 	0.06260 0.73150 0.81870 0.36900
C 	C 	0.10130 0.71210 0.84160 -0.27500
O 	O 	0.45960 0.72800 0.83120 -0.39200
C 	C 	0.43740 0.76850 0.81870 0.37500
C 	C 	0.39870 0.78790 0.84160 -0.27200
O 	O 	0.45960 0.22800 0.33120 -0.39800
C 	C 	0.43740 0.26850 0.31870 0.37200
C 	C 	0.39870 0.28790 0.34160 -0.27400
O 	O 	0.95960 0.72800 0.33120 -0.36600
C 	C 	0.93740 0.76850 0.31870 0.37100
C 	C 	0.89870 0.78790 0.34160 -0.26700
O 	O 	0.95960 0.22800 0.83120 -0.36400
C 	C 	0.93740 0.26850 0.81870 0.37200
C 	C 	0.89870 0.28790 0.84160 -0.26700
O 	O 	0.45960 0.27200 0.16880 -0.40000
C 	C 	0.43740 0.23150 0.18130 0.36900
C 	C 	0.39870 0.21210 0.15840 -0.27400
O 	O 	0.45960 0.77200 0.66880 -0.39400
C 	C 	0.43740 0.73150 0.68130 0.37200
C 	C 	0.39870 0.71210 0.65840 -0.27400
O 	O 	0.95960 0.27200 0.66880 -0.36600
C 	C 	0.93740 0.23150 0.68130 0.36900
C 	C 	0.89870 0.21210 0.65840 -0.26800
O 	O 	0.95960 0.77200 0.16880 -0.36800
C 	C 	0.93740 0.73150 0.18130 0.36800
C 	C 	0.89870 0.71210 0.15840 -0.26900
Cu	Cu	0.25000 0.25000 0.50000 0.93300
Cu	Cu	0.25000 0.75000 -0.00000 0.90700
Cu	Cu	0.75000 0.75000 0.50000 0.93200
Cu	Cu	0.75000 0.25000 -0.00000 0.90700
Cu	Cu	0.75000 0.25000 0.50000 0.93200
Cu	Cu	0.75000 0.75000 -0.00000 0.90700
Cu	Cu	0.25000 0.25000 -0.00000 0.90700
Cu	Cu	0.25000 0.75000 0.50000 0.93200
Cu	Cu	0.50000 0.25000 0.25000 0.93300
Cu	Cu	-0.00000 0.25000 0.75000 0.90700
Cu	Cu	0.50000 0.75000 0.75000 0.93200
Cu	Cu	-0.00000 0.75000 0.25000 0.90700
Cu	Cu	0.50000 0.75000 0.25000 0.93200
Cu	Cu	0.00000 0.75000 0.75000 0.90700
Cu	Cu	-0.00000 0.25000 0.25000 0.90700
Cu	Cu	0.50000 0.25000 0.75000 0.93200
Cu	Cu	0.25000 0.50000 0.25000 0.93300
Cu	Cu	0.25000 0.00000 0.75000 0.90700
Cu	Cu	0.75000 0.50000 0.75000 0.93200
Cu	Cu	0.75000 0.00000 0.25000 0.90700
Cu	Cu	0.25000 0.50000 0.75000 0.93200
Cu	Cu	0.25000 0.00000 0.25000 0.90700
Cu	Cu	0.75000 0.50000 0.25000 0.93200
Cu	Cu	0.75000 0.00000 0.75000 0.90700
Cu	Cu	0.19385 0.30615 0.50000 0.96000
Cu	Cu	0.19385 0.80615 -0.00000 0.93400
Cu	Cu	0.80615 0.69385 0.50000 0.96300
Cu	Cu	0.80615 0.19385 -0.00000 0.93400
Cu	Cu	0.80615 0.30615 0.50000 0.96300
Cu	Cu	0.80615 0.80615 -0.00000 0.93700
Cu	Cu	0.19385 0.69385 0.50000 0.96000
Cu	Cu	0.19385 0.19385 -0.00000 0.93200
Cu	Cu	0.50000 0.19385 0.30615 0.96000
Cu	Cu	-0.00000 0.19385 0.80615 0.93400
Cu	Cu	0.50000 0.80615 0.69385 0.96300
Cu	Cu	-0.00000 0.80615 0.19385 0.93400
Cu	Cu	0.50000 0.80615 0.30615 0.96300
Cu	Cu	-0.00000 0.80615 0.80615 0.93700
Cu	Cu	0.50000 0.19385 0.69385 0.96000
Cu	Cu	0.00000 0.19385 0.19385 0.93200
Cu	Cu	0.30615 0.50000 0.19385 0.96000
Cu	Cu	0.30615 0.00000 0.69385 0.93400
Cu	Cu	0.69385 0.50000 0.80615 0.96300
Cu	Cu	0.69385 -0.00000 0.30615 0.93400
Cu	Cu	0.30615 0.50000 0.80615 0.96300
Cu	Cu	0.30615 -0.00000 0.30615 0.93400
Cu	Cu	0.69385 0.50000 0.19385 0.96000
Cu	Cu	0.69385 0.00000 0.69385 0.93400
Cu	Cu	0.30615 0.19385 0.50000 0.96000
Cu	Cu	0.30615 0.69385 -0.00000 0.93400
Cu	Cu	0.69385 0.80615 0.50000 0.96300
Cu	Cu	0.69385 0.30615 -0.00000 0.93400
Cu	Cu	0.30615 0.80615 0.50000 0.96300
Cu	Cu	0.30615 0.30615 -0.00000 0.93400
Cu	Cu	0.69385 0.19385 0.50000 0.96000
Cu	Cu	0.69385 0.69385 -0.00000 0.93400
Cu	Cu	0.19385 0.50000 0.69385 0.96000
Cu	Cu	0.19385 0.00000 0.19385 0.93200
Cu	Cu	0.80615 0.50000 0.30615 0.96300
Cu	Cu	0.80615 0.00000 0.80615 0.93700
Cu	Cu	0.80615 0.50000 0.69385 0.96300
Cu	Cu	0.80615 0.00000 0.19385 0.93400
Cu	Cu	0.19385 0.50000 0.30615 0.96000
Cu	Cu	0.19385 0.00000 0.80615 0.93400
Cu	Cu	0.50000 0.30615 0.80615 0.96300
Cu	Cu	-0.00000 0.30615 0.30615 0.93400
Cu	Cu	0.50000 0.69385 0.19385 0.96000
Cu	Cu	-0.00000 0.69385 0.69385 0.93400
Cu	Cu	0.50000 0.30615 0.19385 0.96000
Cu	Cu	-0.00000 0.30615 0.69385 0.93400
Cu	Cu	0.50000 0.69385 0.80615 0.96300
Cu	Cu	-0.00000 0.69385 0.30615 0.93400
O 	O 	0.21930 0.21930 0.45630 -0.50700
C 	C 	0.17520 0.17520 0.38320 0.29200
O 	O 	0.21930 0.71930 0.95630 -0.48400
C 	C 	0.17520 0.67520 0.88320 0.29500
O 	O 	0.71930 0.21930 0.95630 -0.48400
C 	C 	0.67520 0.17520 0.88320 0.29500
O 	O 	0.71930 0.71930 0.45630 -0.50800
C 	C 	0.67520 0.67520 0.38320 0.29700
O 	O 	0.78070 0.78070 0.45630 -0.50800
C 	C 	0.82480 0.82480 0.38320 0.30000
O 	O 	0.78070 0.28070 0.95630 -0.48400
C 	C 	0.82480 0.32480 0.88320 0.29800
O 	O 	0.28070 0.78070 0.95630 -0.48400
C 	C 	0.32480 0.82480 0.88320 0.29800
O 	O 	0.28070 0.28070 0.45630 -0.50700
C 	C 	0.32480 0.32480 0.38320 0.29700
O 	O 	0.78070 0.21930 0.54370 -0.50800
C 	C 	0.82480 0.17520 0.61680 0.29600
O 	O 	0.78070 0.71930 0.04370 -0.51600
C 	C 	0.82480 0.67520 0.11680 0.29600
O 	O 	0.28070 0.21930 0.04370 -0.51500
C 	C 	0.32480 0.17520 0.11680 0.29200
O 	O 	0.28070 0.71930 0.54370 -0.50800
C 	C 	0.32480 0.67520 0.61680 0.29700
O 	O 	0.21930 0.78070 0.54370 -0.50800
C 	C 	0.17520 0.82480 0.61680 0.29600
O 	O 	0.21930 0.28070 0.04370 -0.51500
C 	C 	0.17520 0.32480 0.11680 0.29200
O 	O 	0.71930 0.78070 0.04370 -0.51600
C 	C 	0.67520 0.82480 0.11680 0.29600
O 	O 	0.71930 0.28070 0.54370 -0.50800
C 	C 	0.67520 0.32480 0.61680 0.29700
O 	O 	0.45630 0.21930 0.21930 -0.50700
C 	C 	0.38320 0.17520 0.17520 0.29200
O 	O 	0.45630 0.71930 0.71930 -0.50800
C 	C 	0.38320 0.67520 0.67520 0.29700
O 	O 	0.95630 0.21930 0.71930 -0.48400
C 	C 	0.88320 0.17520 0.67520 0.29500
O 	O 	0.95630 0.71930 0.21930 -0.48400
C 	C 	0.88320 0.67520 0.17520 0.29500
O 	O 	0.45630 0.78070 0.78070 -0.50800
C 	C 	0.38320 0.82480 0.82480 0.30000
O 	O 	0.45630 0.28070 0.28070 -0.50700
C 	C 	0.38320 0.32480 0.32480 0.29700
O 	O 	0.95630 0.78070 0.28070 -0.48400
C 	C 	0.88320 0.82480 0.32480 0.29800
O 	O 	0.95630 0.28070 0.78070 -0.48400
C 	C 	0.88320 0.32480 0.82480 0.29800
O 	O 	0.54370 0.78070 0.21930 -0.50800
C 	C 	0.61680 0.82480 0.17520 0.29600
O 	O 	0.54370 0.28070 0.71930 -0.50800
C 	C 	0.61680 0.32480 0.67520 0.29700
O 	O 	0.04370 0.78070 0.71930 -0.51600
C 	C 	0.11680 0.82480 0.67520 0.29600
O 	O 	0.04370 0.28070 0.21930 -0.51500
C 	C 	0.11680 0.32480 0.17520 0.29200
O 	O 	0.54370 0.21930 0.78070 -0.50800
C 	C 	0.61680 0.17520 0.82480 0.29600
O 	O 	0.54370 0.71930 0.28070 -0.50800
C 	C 	0.61680 0.67520 0.32480 0.29700
O 	O 	0.04370 0.21930 0.28070 -0.51500
C 	C 	0.11680 0.17520 0.32480 0.29200
O 	O 	0.04370 0.71930 0.78070 -0.51600
C 	C 	0.11680 0.67520 0.82480 0.29600
O 	O 	0.21930 0.45630 0.21930 -0.50700
C 	C 	0.17520 0.38320 0.17520 0.29200
O 	O 	0.21930 0.95630 0.71930 -0.48400
C 	C 	0.17520 0.88320 0.67520 0.29500
O 	O 	0.71930 0.45630 0.71930 -0.50800
C 	C 	0.67520 0.38320 0.67520 0.29700
O 	O 	0.71930 0.95630 0.21930 -0.48400
C 	C 	0.67520 0.88320 0.17520 0.29500
O 	O 	0.78070 0.45630 0.78070 -0.50800
C 	C 	0.82480 0.38320 0.82480 0.30000
O 	O 	0.78070 0.95630 0.28070 -0.48400
C 	C 	0.82480 0.88320 0.32480 0.29800
O 	O 	0.28070 0.45630 0.28070 -0.50700
C 	C 	0.32480 0.38320 0.32480 0.29700
O 	O 	0.28070 0.95630 0.78070 -0.48400
C 	C 	0.32480 0.88320 0.82480 0.29800
O 	O 	0.21930 0.54370 0.78070 -0.50800
C 	C 	0.17520 0.61680 0.82480 0.29600
O 	O 	0.21930 0.04370 0.28070 -0.51500
C 	C 	0.17520 0.11680 0.32480 0.29200
O 	O 	0.71930 0.54370 0.28070 -0.50800
C 	C 	0.67520 0.61680 0.32480 0.29700
O 	O 	0.71930 0.04370 0.78070 -0.51600
C 	C 	0.67520 0.11680 0.82480 0.29600
O 	O 	0.78070 0.54370 0.21930 -0.50800
C 	C 	0.82480 0.61680 0.17520 0.29600
O 	O 	0.78070 0.04370 0.71930 -0.51600
C 	C 	0.82480 0.11680 0.67520 0.29600
O 	O 	0.28070 0.54370 0.71930 -0.50800
C 	C 	0.32480 0.61680 0.67520 0.29700
O 	O 	0.28070 0.04370 0.21930 -0.51500
C 	C 	0.32480 0.11680 0.17520 0.29200
O 	O 	0.21930 0.21930 0.54370 -0.50700
C 	C 	0.17520 0.17520 0.61680 0.29200
O 	O 	0.21930 0.71930 0.04370 -0.51600
C 	C 	0.17520 0.67520 0.11680 0.29200
O 	O 	0.71930 0.21930 0.04370 -0.51600
C 	C 	0.67520 0.17520 0.11680 0.29200
O 	O 	0.71930 0.71930 0.54370 -0.50800
C 	C 	0.67520 0.67520 0.61680 0.29800
O 	O 	0.78070 0.78070 0.54370 -0.50800
C 	C 	0.82480 0.82480 0.61680 0.30000
O 	O 	0.78070 0.28070 0.04370 -0.51600
C 	C 	0.82480 0.32480 0.11680 0.29600
O 	O 	0.28070 0.78070 0.04370 -0.51600
C 	C 	0.32480 0.82480 0.11680 0.29600
O 	O 	0.28070 0.28070 0.54370 -0.50700
C 	C 	0.32480 0.32480 0.61680 0.29700
O 	O 	0.21930 0.78070 0.45630 -0.50800
C 	C 	0.17520 0.82480 0.38320 0.29600
O 	O 	0.21930 0.28070 0.95630 -0.48300
C 	C 	0.17520 0.32480 0.88320 0.29400
O 	O 	0.71930 0.78070 0.95630 -0.48400
C 	C 	0.67520 0.82480 0.88320 0.29900
O 	O 	0.71930 0.28070 0.45630 -0.50800
C 	C 	0.67520 0.32480 0.38320 0.29700
O 	O 	0.78070 0.21930 0.45630 -0.50800
C 	C 	0.82480 0.17520 0.38320 0.29600
O 	O 	0.78070 0.71930 0.95630 -0.48400
C 	C 	0.82480 0.67520 0.88320 0.29900
O 	O 	0.28070 0.21930 0.95630 -0.48300
C 	C 	0.32480 0.17520 0.88320 0.29400
O 	O 	0.28070 0.71930 0.45630 -0.50800
C 	C 	0.32480 0.67520 0.38320 0.29700
O 	O 	0.21930 0.45630 0.78070 -0.50800
C 	C 	0.17520 0.38320 0.82480 0.29600
O 	O 	0.21930 0.95630 0.28070 -0.48300
C 	C 	0.17520 0.88320 0.32480 0.29400
O 	O 	0.71930 0.45630 0.28070 -0.50800
C 	C 	0.67520 0.38320 0.32480 0.29700
O 	O 	0.71930 0.95630 0.78070 -0.48400
C 	C 	0.67520 0.88320 0.82480 0.29900
O 	O 	0.78070 0.45630 0.21930 -0.50800
C 	C 	0.82480 0.38320 0.17520 0.29600
O 	O 	0.78070 0.95630 0.71930 -0.48400
C 	C 	0.82480 0.88320 0.67520 0.29900
O 	O 	0.28070 0.45630 0.71930 -0.50800
C 	C 	0.32480 0.38320 0.67520 0.29700
O 	O 	0.28070 0.95630 0.21930 -0.48300
C 	C 	0.32480 0.88320 0.17520 0.29400
O 	O 	0.78070 0.54370 0.78070 -0.50800
C 	C 	0.82480 0.61680 0.82480 0.30000
O 	O 	0.78070 0.04370 0.28070 -0.51600
C 	C 	0.82480 0.11680 0.32480 0.29600
O 	O 	0.28070 0.54370 0.28070 -0.50700
C 	C 	0.32480 0.61680 0.32480 0.29700
O 	O 	0.28070 0.04370 0.78070 -0.51600
C 	C 	0.32480 0.11680 0.82480 0.29600
O 	O 	0.21930 0.54370 0.21930 -0.50700
C 	C 	0.17520 0.61680 0.17520 0.29200
O 	O 	0.21930 0.04370 0.71930 -0.51600
C 	C 	0.17520 0.11680 0.67520 0.29200
O 	O 	0.71930 0.54370 0.71930 -0.50800
C 	C 	0.67520 0.61680 0.67520 0.29800
O 	O 	0.71930 0.04370 0.21930 -0.51600
C 	C 	0.67520 0.11680 0.17520 0.29200
O 	O 	0.45630 0.21930 0.78070 -0.50800
C 	C 	0.38320 0.17520 0.82480 0.29600
O 	O 	0.45630 0.71930 0.28070 -0.50800
C 	C 	0.38320 0.67520 0.32480 0.29700
O 	O 	0.95630 0.21930 0.28070 -0.48300
C 	C 	0.88320 0.17520 0.32480 0.29400
O 	O 	0.95630 0.71930 0.78070 -0.48400
C 	C 	0.88320 0.67520 0.82480 0.29900
O 	O 	0.45630 0.78070 0.21930 -0.50800
C 	C 	0.38320 0.82480 0.17520 0.29600
O 	O 	0.45630 0.28070 0.71930 -0.50800
C 	C 	0.38320 0.32480 0.67520 0.29700
O 	O 	0.95630 0.78070 0.71930 -0.48400
C 	C 	0.88320 0.82480 0.67520 0.29900
O 	O 	0.95630 0.28070 0.21930 -0.48300
C 	C 	0.88320 0.32480 0.17520 0.29400
O 	O 	0.54370 0.21930 0.21930 -0.50700
C 	C 	0.61680 0.17520 0.17520 0.29200
O 	O 	0.54370 0.71930 0.71930 -0.50800
C 	C 	0.61680 0.67520 0.67520 0.29800
O 	O 	0.04370 0.21930 0.71930 -0.51600
C 	C 	0.11680 0.17520 0.67520 0.29200
O 	O 	0.04370 0.71930 0.21930 -0.51600
C 	C 	0.11680 0.67520 0.17520 0.29200
O 	O 	0.54370 0.78070 0.78070 -0.50800
C 	C 	0.61680 0.82480 0.82480 0.30000
O 	O 	0.54370 0.28070 0.28070 -0.50700
C 	C 	0.61680 0.32480 0.32480 0.29700
O 	O 	0.04370 0.78070 0.28070 -0.51600
C 	C 	0.11680 0.82480 0.32480 0.29600
O 	O 	0.04370 0.28070 0.78070 -0.51600
C 	C 	0.11680 0.32480 0.82480 0.29600
C 	C 	0.12350 0.23600 0.37650 0.17200
C 	C 	0.12350 0.73600 0.87650 0.18000
C 	C 	0.87650 0.76400 0.37650 0.18500
C 	C 	0.87650 0.26400 0.87650 0.18800
C 	C 	0.37650 0.26400 0.37650 0.17800
C 	C 	0.87650 0.23600 0.62350 0.18300
C 	C 	0.87650 0.73600 0.12350 0.18000
C 	C 	0.37650 0.23600 0.12350 0.17200
C 	C 	0.12350 0.76400 0.62350 0.17400
C 	C 	0.12350 0.26400 0.12350 0.16600
C 	C 	0.37650 0.12350 0.23600 0.17200
C 	C 	0.37650 0.62350 0.73600 0.18100
C 	C 	0.37650 0.87650 0.76400 0.18500
C 	C 	0.37650 0.37650 0.26400 0.17800
C 	C 	0.62350 0.87650 0.23600 0.18300
C 	C 	0.62350 0.37650 0.73600 0.18100
C 	C 	0.12350 0.37650 0.23600 0.17200
C 	C 	0.62350 0.12350 0.76400 0.17400
C 	C 	0.62350 0.62350 0.26400 0.17700
C 	C 	0.12350 0.12350 0.26400 0.16600
C 	C 	0.23600 0.37650 0.12350 0.17200
C 	C 	0.73600 0.37650 0.62350 0.18100
C 	C 	0.76400 0.37650 0.87650 0.18500
C 	C 	0.26400 0.37650 0.37650 0.17800
C 	C 	0.23600 0.62350 0.87650 0.18300
C 	C 	0.23600 0.12350 0.37650 0.17200
C 	C 	0.73600 0.62350 0.37650 0.18100
C 	C 	0.76400 0.62350 0.12350 0.17400
C 	C 	0.26400 0.62350 0.62350 0.17700
C 	C 	0.26400 0.12350 0.12350 0.16600
C 	C 	0.23600 0.12350 0.62350 0.17200
C 	C 	0.73600 0.12350 0.12350 0.16900
C 	C 	0.76400 0.87650 0.62350 0.18500
C 	C 	0.76400 0.37650 0.12350 0.17400
C 	C 	0.26400 0.87650 0.12350 0.17700
C 	C 	0.23600 0.87650 0.37650 0.18300
C 	C 	0.73600 0.87650 0.87650 0.19100
C 	C 	0.73600 0.37650 0.37650 0.18100
C 	C 	0.76400 0.12350 0.37650 0.17400
C 	C 	0.26400 0.12350 0.87650 0.17700
C 	C 	0.12350 0.37650 0.76400 0.17400
C 	C 	0.12350 0.87650 0.26400 0.17700
C 	C 	0.87650 0.37650 0.23600 0.18300
C 	C 	0.87650 0.87650 0.73600 0.19100
C 	C 	0.37650 0.37650 0.73600 0.18100
C 	C 	0.87650 0.62350 0.76400 0.18500
C 	C 	0.87650 0.12350 0.26400 0.17700
C 	C 	0.37650 0.12350 0.76400 0.17400
C 	C 	0.12350 0.62350 0.23600 0.17200
C 	C 	0.12350 0.12350 0.73600 0.16900
C 	C 	0.37650 0.23600 0.87650 0.18300
C 	C 	0.37650 0.73600 0.37650 0.18100
C 	C 	0.37650 0.76400 0.12350 0.17400
C 	C 	0.37650 0.26400 0.62350 0.17800
C 	C 	0.62350 0.23600 0.12350 0.17200
C 	C 	0.62350 0.73600 0.62350 0.18100
C 	C 	0.12350 0.73600 0.12350 0.16900
C 	C 	0.62350 0.76400 0.87650 0.18500
C 	C 	0.62350 0.26400 0.37650 0.17800
C 	C 	0.12350 0.76400 0.37650 0.17400
C 	C 	0.87650 0.76400 0.62350 0.18500
C 	C 	0.87650 0.26400 0.12350 0.17700
C 	C 	0.12350 0.23600 0.62350 0.17200
C 	C 	0.12350 0.26400 0.87650 0.17700
C 	C 	0.87650 0.23600 0.37650 0.18300
C 	C 	0.87650 0.73600 0.87650 0.19100
C 	C 	0.62350 0.87650 0.76400 0.18500
C 	C 	0.62350 0.37650 0.26400 0.17800
C 	C 	0.62350 0.12350 0.23600 0.17200
C 	C 	0.62350 0.62350 0.73600 0.18100
C 	C 	0.37650 0.62350 0.26400 0.17800
C 	C 	0.37650 0.87650 0.23600 0.18300
C 	C 	0.76400 0.62350 0.87650 0.18500
C 	C 	0.26400 0.62350 0.37650 0.17800
C 	C 	0.23600 0.62350 0.12350 0.17200
C 	C 	0.73600 0.62350 0.62350 0.18100
C 	C 	0.26400 0.37650 0.62350 0.17800
C 	C 	0.23600 0.37650 0.87650 0.18300
C 	C 	0.76400 0.87650 0.37650 0.18500
C 	C 	0.26400 0.87650 0.87650 0.18800
C 	C 	0.73600 0.12350 0.87650 0.18000
C 	C 	0.76400 0.12350 0.62350 0.17400
C 	C 	0.23600 0.87650 0.62350 0.18300
C 	C 	0.73600 0.87650 0.12350 0.18000
C 	C 	0.87650 0.62350 0.23600 0.18300
C 	C 	0.87650 0.12350 0.73600 0.18000
C 	C 	0.12350 0.62350 0.76400 0.17400
C 	C 	0.12350 0.87650 0.73600 0.18000
C 	C 	0.87650 0.37650 0.76400 0.18500
C 	C 	0.87650 0.87650 0.26400 0.18800
C 	C 	0.62350 0.76400 0.12350 0.17400
C 	C 	0.62350 0.26400 0.62350 0.17700
C 	C 	0.62350 0.23600 0.87650 0.18300
C 	C 	0.62350 0.73600 0.37650 0.18100
C 	C 	0.37650 0.76400 0.87650 0.18500
C 	C 	0.37650 0.73600 0.62350 0.18100
C 	C 	0.15780 0.15780 0.34220 -0.25600
C 	C 	0.84220 0.84220 0.34220 -0.25400
C 	C 	0.34220 0.34220 0.34220 -0.25600
C 	C 	0.84220 0.15780 0.65780 -0.25500
C 	C 	0.34220 0.15780 0.15780 -0.25600
C 	C 	0.15780 0.84220 0.65780 -0.25500
C 	C 	0.15780 0.34220 0.15780 -0.25600
C 	C 	0.34220 0.65780 0.65780 -0.25700
C 	C 	0.34220 0.84220 0.84220 -0.25400
C 	C 	0.65780 0.84220 0.15780 -0.25500
C 	C 	0.65780 0.34220 0.65780 -0.25700
C 	C 	0.65780 0.15780 0.84220 -0.25500
C 	C 	0.65780 0.65780 0.34220 -0.25700
C 	C 	0.84220 0.34220 0.84220 -0.25400
C 	C 	0.15780 0.65780 0.84220 -0.25500
C 	C 	0.84220 0.65780 0.15780 -0.25500
C 	C 	0.15780 0.15780 0.65780 -0.25700
C 	C 	0.84220 0.84220 0.65780 -0.25400
C 	C 	0.84220 0.34220 0.15780 -0.25500
C 	C 	0.34220 0.84220 0.15780 -0.25500
C 	C 	0.15780 0.84220 0.34220 -0.25500
C 	C 	0.84220 0.15780 0.34220 -0.25500
C 	C 	0.34220 0.65780 0.34220 -0.25700
C 	C 	0.15780 0.34220 0.84220 -0.25500
C 	C 	0.34220 0.34220 0.65780 -0.25700
C 	C 	0.84220 0.65780 0.84220 -0.25400
C 	C 	0.34220 0.15780 0.84220 -0.25500
C 	C 	0.15780 0.65780 0.15780 -0.25700
C 	C 	0.65780 0.15780 0.15780 -0.25700
C 	C 	0.65780 0.65780 0.65780 -0.25700
C 	C 	0.65780 0.84220 0.84220 -0.25400
C 	C 	0.65780 0.34220 0.34220 -0.25700
