data_crystal

_cell_length_a 24.77700
_cell_length_b 24.77700
_cell_length_c 26.48900
_cell_angle_alpha 90.00000
_cell_angle_beta  90.00000
_cell_angle_gamma 120.00000

_symmetry_space_group_name_	'P 1'
_symmetry_space_group_name_H-M	'P 1'

loop_
_symmetry_equiv_pos_as_xyz
  x,y,z

loop_
_atom_site_label
_atom_site_type_symbol
_atom_site_fract_x
_atom_site_fract_y
_atom_site_fract_z
_atom_site_charge
Cu	Cu	0.13271 0.64661 0.02762 0.86200
N 	N 	0.03280 0.52660 0.07058 -0.18800
N 	N 	0.08450 0.58280 0.08360 -0.19500
N 	N 	0.04960 0.52280 0.15060 -0.14300
N 	N 	0.08350 0.47000 0.26860 -0.19600
N 	N 	0.13850 0.57730 0.99269 -0.19500
N 	N 	0.08680 0.52170 0.97802 -0.18000
N 	N 	0.16880 0.51650 0.95920 -0.14600
N 	N 	0.29360 0.47970 0.97140 -0.19800
C 	C 	0.01260 0.49200 0.11060 0.08300
H 	H 	0.97810 0.45220 0.11180 0.02200
C 	C 	0.09460 0.57900 0.13200 0.09800
H 	H 	0.12740 0.60980 0.15060 -0.01600
C 	C 	0.04250 0.49780 0.20030 0.07200
C 	C 	0.98660 0.47730 0.22400 -0.07300
H 	H 	0.95530 0.48240 0.20950 0.06800
C 	C 	0.97830 0.44830 0.27140 -0.02200
H 	H 	0.94040 0.43120 0.28810 0.04700
C 	C 	0.09000 0.49580 0.22320 -0.02500
H 	H 	0.12830 0.51290 0.20690 0.01900
C 	C 	0.02810 0.44610 0.29220 0.00500
H 	H 	0.02320 0.42750 0.32360 0.03900
C 	C 	0.18680 0.57290 0.98090 0.10900
H 	H 	0.22790 0.60370 0.98640 -0.01800
C 	C 	0.10620 0.48650 0.95860 0.11400
H 	H 	0.08060 0.44640 0.94610 0.01000
C 	C 	0.20930 0.49390 0.94550 0.06500
C 	C 	0.25230 0.49850 0.98050 0.02400
H 	H 	0.25280 0.51540 0.01200 -0.01800
C 	C 	0.29030 0.45430 0.92620 0.03000
H 	H 	0.31890 0.44160 0.91850 0.03600
C 	C 	0.24640 0.44610 0.89070 -0.04900
H 	H 	0.24520 0.42710 0.86020 0.05200
C 	C 	0.20460 0.46550 0.89960 -0.07200
H 	H 	0.17450 0.45990 0.87590 0.06200
Cl	Cl	0.02836 0.61478 0.98257 -0.49100
Cu	Cu	0.79938 0.97994 0.36095 0.87600
N 	N 	0.69947 0.85993 0.40391 -0.18800
N 	N 	0.75117 0.91613 0.41693 -0.19100
N 	N 	0.71627 0.85613 0.48393 -0.14900
N 	N 	0.75017 0.80333 0.60193 -0.19700
N 	N 	0.80517 0.91063 0.32602 -0.20100
N 	N 	0.75347 0.85503 0.31135 -0.18700
N 	N 	0.83547 0.84983 0.29253 -0.15200
N 	N 	0.96027 0.81303 0.30473 -0.19200
C 	C 	0.67927 0.82533 0.44393 0.10700
H 	H 	0.64477 0.78553 0.44513 0.00600
C 	C 	0.76127 0.91233 0.46533 0.10000
H 	H 	0.79407 0.94313 0.48393 -0.01400
C 	C 	0.70917 0.83113 0.53363 0.08700
C 	C 	0.65327 0.81063 0.55733 -0.08700
H 	H 	0.62197 0.81573 0.54283 0.07000
C 	C 	0.64497 0.78163 0.60473 -0.03500
H 	H 	0.60707 0.76453 0.62143 0.04900
C 	C 	0.75667 0.82913 0.55653 -0.02900
H 	H 	0.79497 0.84623 0.54023 0.02300
C 	C 	0.69477 0.77943 0.62553 0.02100
H 	H 	0.68987 0.76083 0.65693 0.03600
C 	C 	0.85347 0.90623 0.31423 0.10700
H 	H 	0.89457 0.93703 0.31973 -0.01900
C 	C 	0.77287 0.81983 0.29193 0.11300
H 	H 	0.74727 0.77973 0.27943 0.00700
C 	C 	0.87597 0.82723 0.27883 0.08600
C 	C 	0.91897 0.83183 0.31383 -0.03000
H 	H 	0.91947 0.84873 0.34533 0.02100
C 	C 	0.95697 0.78763 0.25953 0.02100
H 	H 	0.98557 0.77493 0.25183 0.04100
C 	C 	0.91307 0.77943 0.22403 -0.03600
H 	H 	0.91187 0.76043 0.19353 0.04800
C 	C 	0.87127 0.79883 0.23293 -0.08800
H 	H 	0.84117 0.79323 0.20923 0.06800
Cl	Cl	0.69503 0.94811 0.31590 -0.50400
Cu	Cu	0.46604 0.31328 0.69429 0.87200
N 	N 	0.36613 0.19327 0.73725 -0.18800
N 	N 	0.41783 0.24947 0.75027 -0.19200
N 	N 	0.38293 0.18947 0.81727 -0.14900
N 	N 	0.41683 0.13667 0.93527 -0.19500
N 	N 	0.47183 0.24397 0.65936 -0.20200
N 	N 	0.42013 0.18837 0.64469 -0.18700
N 	N 	0.50213 0.18317 0.62587 -0.15300
N 	N 	0.62693 0.14637 0.63807 -0.19500
C 	C 	0.34593 0.15867 0.77727 0.10700
H 	H 	0.31143 0.11887 0.77847 0.00400
C 	C 	0.42793 0.24567 0.79867 0.10000
H 	H 	0.46073 0.27647 0.81727 -0.01600
C 	C 	0.37583 0.16447 0.86697 0.08700
C 	C 	0.31993 0.14397 0.89067 -0.08700
H 	H 	0.28863 0.14907 0.87617 0.07000
C 	C 	0.31163 0.11497 0.93807 -0.03400
H 	H 	0.27373 0.09787 0.95477 0.05100
C 	C 	0.42333 0.16247 0.88987 -0.02900
H 	H 	0.46163 0.17957 0.87357 0.02200
C 	C 	0.36143 0.11277 0.95887 0.02200
H 	H 	0.35653 0.09417 0.99027 0.04400
C 	C 	0.52013 0.23957 0.64757 0.10600
H 	H 	0.56123 0.27037 0.65307 -0.02300
C 	C 	0.43953 0.15317 0.62527 0.11200
H 	H 	0.41393 0.11307 0.61277 0.00600
C 	C 	0.54263 0.16057 0.61217 0.08500
C 	C 	0.58563 0.16517 0.64717 -0.03100
H 	H 	0.58613 0.18207 0.67867 0.01900
C 	C 	0.62363 0.12097 0.59287 0.02000
H 	H 	0.65223 0.10827 0.58517 0.03700
C 	C 	0.57973 0.11277 0.55737 -0.03700
H 	H 	0.57853 0.09377 0.52687 0.04600
C 	C 	0.53793 0.13217 0.56627 -0.08900
H 	H 	0.50783 0.12657 0.54257 0.06700
Cl	Cl	0.36169 0.28145 0.64924 -0.50900
Cu	Cu	0.35339 0.48610 0.02762 0.86200
N 	N 	0.47340 0.50620 0.07058 -0.19100
N 	N 	0.41720 0.50170 0.08360 -0.19600
N 	N 	0.47720 0.52680 0.15060 -0.14900
N 	N 	0.53000 0.61350 0.26860 -0.19800
N 	N 	0.42270 0.56120 0.99269 -0.19600
N 	N 	0.47830 0.56510 0.97802 -0.18100
N 	N 	0.48350 0.65230 0.95920 -0.14700
N 	N 	0.52030 0.81390 0.97140 -0.19900
C 	C 	0.50800 0.52060 0.11060 0.10600
H 	H 	0.54780 0.52590 0.11180 0.00500
C 	C 	0.42100 0.51560 0.13200 0.09800
H 	H 	0.39020 0.51760 0.15060 -0.01700
C 	C 	0.50220 0.54470 0.20030 0.08600
C 	C 	0.52270 0.50930 0.22400 -0.08700
H 	H 	0.51760 0.47290 0.20950 0.06900
C 	C 	0.55170 0.53000 0.27140 -0.03600
H 	H 	0.56880 0.50920 0.28810 0.04900
C 	C 	0.50420 0.59420 0.22320 -0.02900
H 	H 	0.48710 0.61540 0.20690 0.02100
C 	C 	0.55390 0.58200 0.29220 0.02100
H 	H 	0.57250 0.59570 0.32360 0.03600
C 	C 	0.42710 0.61390 0.98090 0.10900
H 	H 	0.39630 0.62420 0.98640 -0.01800
C 	C 	0.51350 0.61970 0.95860 0.11400
H 	H 	0.55360 0.63420 0.94610 0.01200
C 	C 	0.50610 0.71540 0.94550 0.06600
C 	C 	0.50150 0.75380 0.98050 0.02300
H 	H 	0.48460 0.73740 0.01200 -0.01700
C 	C 	0.54570 0.83600 0.92620 0.03100
H 	H 	0.55840 0.87730 0.91850 0.03700
C 	C 	0.55390 0.80030 0.89070 -0.04900
H 	H 	0.57290 0.81810 0.86020 0.05300
C 	C 	0.53450 0.73910 0.89960 -0.07200
H 	H 	0.54010 0.71460 0.87590 0.06300
Cl	Cl	0.38522 0.41358 0.98257 -0.48800
Cu	Cu	0.02006 0.81943 0.36095 0.86800
N 	N 	0.14007 0.83953 0.40391 -0.18800
N 	N 	0.08387 0.83503 0.41693 -0.19400
N 	N 	0.14387 0.86013 0.48393 -0.14900
N 	N 	0.19667 0.94683 0.60193 -0.19500
N 	N 	0.08937 0.89453 0.32602 -0.20300
N 	N 	0.14497 0.89843 0.31135 -0.18700
N 	N 	0.15017 0.98563 0.29253 -0.14700
N 	N 	0.18697 0.14723 0.30473 -0.19600
C 	C 	0.17467 0.85393 0.44393 0.10700
H 	H 	0.21447 0.85923 0.44513 0.00600
C 	C 	0.08767 0.84893 0.46533 0.09900
H 	H 	0.05687 0.85093 0.48393 -0.01900
C 	C 	0.16887 0.87803 0.53363 0.08700
C 	C 	0.18937 0.84263 0.55733 -0.08700
H 	H 	0.18427 0.80623 0.54283 0.06900
C 	C 	0.21837 0.86333 0.60473 -0.03500
H 	H 	0.23547 0.84253 0.62143 0.04900
C 	C 	0.17087 0.92753 0.55653 -0.02900
H 	H 	0.15377 0.94873 0.54023 0.02300
C 	C 	0.22057 0.91533 0.62553 0.02100
H 	H 	0.23917 0.92903 0.65693 0.03800
C 	C 	0.09377 0.94723 0.31423 0.10600
H 	H 	0.06297 0.95753 0.31973 -0.02300
C 	C 	0.18017 0.95303 0.29193 0.11200
H 	H 	0.22027 0.96753 0.27943 0.01000
C 	C 	0.17277 0.04873 0.27883 0.07300
C 	C 	0.16817 0.08713 0.31383 -0.02600
H 	H 	0.15127 0.07073 0.34533 0.01500
C 	C 	0.21237 0.16933 0.25953 0.02200
H 	H 	0.22507 0.21063 0.25183 0.03600
C 	C 	0.22057 0.13363 0.22403 -0.04200
H 	H 	0.23957 0.15143 0.19353 0.04700
C 	C 	0.20117 0.07243 0.23293 -0.08300
H 	H 	0.20677 0.04793 0.20923 0.06200
Cl	Cl	0.05189 0.74691 0.31590 -0.51500
Cu	Cu	0.68672 0.15277 0.69429 0.87200
N 	N 	0.80673 0.17287 0.73725 -0.18800
N 	N 	0.75053 0.16837 0.75027 -0.19300
N 	N 	0.81053 0.19347 0.81727 -0.14900
N 	N 	0.86333 0.28017 0.93527 -0.19500
N 	N 	0.75603 0.22787 0.65936 -0.20200
N 	N 	0.81163 0.23177 0.64469 -0.18700
N 	N 	0.81683 0.31897 0.62587 -0.15200
N 	N 	0.85363 0.48057 0.63807 -0.19500
C 	C 	0.84133 0.18727 0.77727 0.10700
H 	H 	0.88113 0.19257 0.77847 0.00700
C 	C 	0.75433 0.18227 0.79867 0.09900
H 	H 	0.72353 0.18427 0.81727 -0.01600
C 	C 	0.83553 0.21137 0.86697 0.08700
C 	C 	0.85603 0.17597 0.89067 -0.08600
H 	H 	0.85093 0.13957 0.87617 0.07000
C 	C 	0.88503 0.19667 0.93807 -0.03400
H 	H 	0.90213 0.17587 0.95477 0.05300
C 	C 	0.83753 0.26087 0.88987 -0.02800
H 	H 	0.82043 0.28207 0.87357 0.02200
C 	C 	0.88723 0.24867 0.95887 0.02300
H 	H 	0.90583 0.26237 0.99027 0.04400
C 	C 	0.76043 0.28057 0.64757 0.10600
H 	H 	0.72963 0.29087 0.65307 -0.02300
C 	C 	0.84683 0.28637 0.62527 0.11300
H 	H 	0.88693 0.30087 0.61277 0.00900
C 	C 	0.83943 0.38207 0.61217 0.08500
C 	C 	0.83483 0.42047 0.64717 -0.03000
H 	H 	0.81793 0.40407 0.67867 0.01900
C 	C 	0.87903 0.50267 0.59287 0.02200
H 	H 	0.89173 0.54397 0.58517 0.03800
C 	C 	0.88723 0.46697 0.55737 -0.03700
H 	H 	0.90623 0.48477 0.52687 0.04900
C 	C 	0.86783 0.40577 0.56627 -0.08800
H 	H 	0.87343 0.38127 0.54257 0.06900
Cl	Cl	0.71855 0.08025 0.64924 -0.51100
Cu	Cu	0.51390 0.86729 0.02762 0.86200
N 	N 	0.49380 0.96720 0.07058 -0.19200
N 	N 	0.49830 0.91550 0.08360 -0.19600
N 	N 	0.47320 0.95040 0.15060 -0.15200
N 	N 	0.38650 0.91650 0.26860 -0.19800
N 	N 	0.43880 0.86150 0.99269 -0.19600
N 	N 	0.43490 0.91320 0.97802 -0.17800
N 	N 	0.34770 0.83120 0.95920 -0.14700
N 	N 	0.18610 0.70640 0.97140 -0.19900
C 	C 	0.47940 0.98740 0.11060 0.12300
H 	H 	0.47410 0.02190 0.11180 -0.00600
C 	C 	0.48440 0.90540 0.13200 0.10000
H 	H 	0.48240 0.87260 0.15060 -0.01800
C 	C 	0.45530 0.95750 0.20030 0.09700
C 	C 	0.49070 0.01340 0.22400 -0.09700
H 	H 	0.52710 0.04470 0.20950 0.07000
C 	C 	0.47000 0.02170 0.27140 -0.04700
H 	H 	0.49080 0.05960 0.28810 0.05000
C 	C 	0.40580 0.91000 0.22320 -0.03200
H 	H 	0.38460 0.87170 0.20690 0.02200
C 	C 	0.41800 0.97190 0.29220 0.03300
H 	H 	0.40430 0.97680 0.32360 0.03400
C 	C 	0.38610 0.81320 0.98090 0.10900
H 	H 	0.37580 0.77210 0.98640 -0.01800
C 	C 	0.38030 0.89380 0.95860 0.11500
H 	H 	0.36580 0.91940 0.94610 0.01400
C 	C 	0.28460 0.79070 0.94550 0.06600
C 	C 	0.24620 0.74770 0.98050 0.02500
H 	H 	0.26260 0.74720 0.01200 -0.01800
C 	C 	0.16400 0.70970 0.92620 0.03000
H 	H 	0.12270 0.68110 0.91850 0.03600
C 	C 	0.19970 0.75360 0.89070 -0.04900
H 	H 	0.18190 0.75480 0.86020 0.05200
C 	C 	0.26090 0.79540 0.89960 -0.07200
H 	H 	0.28540 0.82550 0.87590 0.06400
Cl	Cl	0.58642 0.97164 0.98257 -0.48100
Cu	Cu	0.18057 0.20062 0.36095 0.87200
N 	N 	0.16047 0.30053 0.40391 -0.18800
N 	N 	0.16497 0.24883 0.41693 -0.19300
N 	N 	0.13987 0.28373 0.48393 -0.14900
N 	N 	0.05317 0.24983 0.60193 -0.20000
N 	N 	0.10547 0.19483 0.32602 -0.20300
N 	N 	0.10157 0.24653 0.31135 -0.18700
N 	N 	0.01437 0.16453 0.29253 -0.15900
N 	N 	0.85277 0.03973 0.30473 -0.19600
C 	C 	0.14607 0.32073 0.44393 0.10600
H 	H 	0.14077 0.35523 0.44513 0.00500
C 	C 	0.15107 0.23873 0.46533 0.09900
H 	H 	0.14907 0.20593 0.48393 -0.01800
C 	C 	0.12197 0.29083 0.53363 0.08500
C 	C 	0.15737 0.34673 0.55733 -0.08700
H 	H 	0.19377 0.37803 0.54283 0.06900
C 	C 	0.13667 0.35503 0.60473 -0.03700
H 	H 	0.15747 0.39293 0.62143 0.04800
C 	C 	0.07247 0.24333 0.55653 -0.02900
H 	H 	0.05127 0.20503 0.54023 0.01800
C 	C 	0.08467 0.30523 0.62553 0.02000
H 	H 	0.07097 0.31013 0.65693 0.03400
C 	C 	0.05277 0.14653 0.31423 0.10500
H 	H 	0.04247 0.10543 0.31973 -0.02700
C 	C 	0.04697 0.22713 0.29193 0.11200
H 	H 	0.03247 0.25273 0.27943 0.00500
C 	C 	0.95127 0.12403 0.27883 0.09700
C 	C 	0.91287 0.08103 0.31383 -0.03500
H 	H 	0.92927 0.08053 0.34533 0.02200
C 	C 	0.83067 0.04303 0.25953 0.01800
H 	H 	0.78937 0.01443 0.25183 0.03500
C 	C 	0.86637 0.08693 0.22403 -0.03300
H 	H 	0.84857 0.08813 0.19353 0.04400
C 	C 	0.92757 0.12873 0.23293 -0.09500
H 	H 	0.95207 0.15883 0.20923 0.07200
Cl	Cl	0.25309 0.30497 0.31590 -0.50900
Cu	Cu	0.84723 0.53396 0.69429 0.87200
N 	N 	0.82713 0.63387 0.73725 -0.18800
N 	N 	0.83163 0.58217 0.75027 -0.19200
N 	N 	0.80653 0.61707 0.81727 -0.14900
N 	N 	0.71983 0.58317 0.93527 -0.19400
N 	N 	0.77213 0.52817 0.65936 -0.20200
N 	N 	0.76823 0.57987 0.64469 -0.18700
N 	N 	0.68103 0.49787 0.62587 -0.15300
N 	N 	0.51943 0.37307 0.63807 -0.19500
C 	C 	0.81273 0.65407 0.77727 0.10700
H 	H 	0.80743 0.68857 0.77847 0.00600
C 	C 	0.81773 0.57207 0.79867 0.10000
H 	H 	0.81573 0.53927 0.81727 -0.01600
C 	C 	0.78863 0.62417 0.86697 0.08800
C 	C 	0.82403 0.68007 0.89067 -0.08600
H 	H 	0.86043 0.71137 0.87617 0.07300
C 	C 	0.80333 0.68837 0.93807 -0.03300
H 	H 	0.82413 0.72627 0.95477 0.05400
C 	C 	0.73913 0.57667 0.88987 -0.02800
H 	H 	0.71793 0.53837 0.87357 0.02200
C 	C 	0.75133 0.63857 0.95887 0.02300
H 	H 	0.73763 0.64347 0.99027 0.04500
C 	C 	0.71943 0.47987 0.64757 0.10600
H 	H 	0.70913 0.43877 0.65307 -0.02300
C 	C 	0.71363 0.56047 0.62527 0.11300
H 	H 	0.69913 0.58607 0.61277 0.00800
C 	C 	0.61793 0.45737 0.61217 0.08500
C 	C 	0.57953 0.41437 0.64717 -0.03000
H 	H 	0.59593 0.41387 0.67867 0.01900
C 	C 	0.49733 0.37637 0.59287 0.02100
H 	H 	0.45603 0.34777 0.58517 0.03800
C 	C 	0.53303 0.42027 0.55737 -0.03700
H 	H 	0.51523 0.42147 0.52687 0.04700
C 	C 	0.59423 0.46207 0.56627 -0.08800
H 	H 	0.61873 0.49217 0.54257 0.06800
Cl	Cl	0.91975 0.63831 0.64924 -0.50600
Cu	Cu	0.86729 0.35339 0.97238 0.88200
N 	N 	0.96720 0.47340 0.92942 -0.18300
N 	N 	0.91550 0.41720 0.91640 -0.18900
N 	N 	0.95040 0.47720 0.84940 -0.15200
N 	N 	0.91650 0.53000 0.73140 -0.19800
N 	N 	0.86150 0.42270 0.00731 -0.20800
N 	N 	0.91320 0.47830 0.02198 -0.18700
N 	N 	0.83120 0.48350 0.04080 -0.15700
N 	N 	0.70640 0.52030 0.02860 -0.19100
C 	C 	0.98740 0.50800 0.88940 0.12400
H 	H 	0.02190 0.54780 0.88820 -0.00500
C 	C 	0.90540 0.42100 0.86800 0.10100
H 	H 	0.87260 0.39020 0.84940 -0.01600
C 	C 	0.95750 0.50220 0.79970 0.09800
C 	C 	0.01340 0.52270 0.77600 -0.09700
H 	H 	0.04470 0.51760 0.79050 0.07100
C 	C 	0.02170 0.55170 0.72860 -0.04700
H 	H 	0.05960 0.56880 0.71190 0.05000
C 	C 	0.91000 0.50420 0.77680 -0.03200
H 	H 	0.87170 0.48710 0.79310 0.02300
C 	C 	0.97190 0.55390 0.70780 0.03300
H 	H 	0.97680 0.57250 0.67640 0.03400
C 	C 	0.81320 0.42710 0.01910 0.10400
H 	H 	0.77210 0.39630 0.01360 -0.02700
C 	C 	0.89380 0.51350 0.04140 0.11100
H 	H 	0.91940 0.55360 0.05390 0.00700
C 	C 	0.79070 0.50610 0.05450 0.10400
C 	C 	0.74770 0.50150 0.01950 -0.08000
H 	H 	0.74720 0.48460 0.98800 0.05300
C 	C 	0.70970 0.54570 0.07380 0.01200
H 	H 	0.68110 0.55840 0.08150 0.03900
C 	C 	0.75360 0.55390 0.10930 -0.02600
H 	H 	0.75480 0.57290 0.13980 0.04300
C 	C 	0.79540 0.53450 0.10040 -0.10300
H 	H 	0.82550 0.54010 0.12410 0.07400
Cl	Cl	0.97164 0.38522 0.01743 -0.51900
Cu	Cu	0.53396 0.68672 0.30571 0.87200
N 	N 	0.63387 0.80673 0.26275 -0.18800
N 	N 	0.58217 0.75053 0.24973 -0.19300
N 	N 	0.61707 0.81053 0.18273 -0.14900
N 	N 	0.58317 0.86333 0.06473 -0.20100
N 	N 	0.52817 0.75603 0.34064 -0.20200
N 	N 	0.57987 0.81163 0.35531 -0.18700
N 	N 	0.49787 0.81683 0.37413 -0.15200
N 	N 	0.37307 0.85363 0.36193 -0.19500
C 	C 	0.65407 0.84133 0.22273 0.10700
H 	H 	0.68857 0.88113 0.22153 0.00700
C 	C 	0.57207 0.75433 0.20133 0.09900
H 	H 	0.53927 0.72353 0.18273 -0.01800
C 	C 	0.62417 0.83553 0.13303 0.08500
C 	C 	0.68007 0.85603 0.10933 -0.08700
H 	H 	0.71137 0.85093 0.12383 0.06900
C 	C 	0.68837 0.88503 0.06193 -0.03800
H 	H 	0.72627 0.90213 0.04523 0.04600
C 	C 	0.57667 0.83753 0.11013 -0.02900
H 	H 	0.53837 0.82043 0.12643 0.02000
C 	C 	0.63857 0.88723 0.04113 0.01900
H 	H 	0.64347 0.90583 0.00973 0.02800
C 	C 	0.47987 0.76043 0.35243 0.10600
H 	H 	0.43877 0.72963 0.34693 -0.02300
C 	C 	0.56047 0.84683 0.37473 0.11300
H 	H 	0.58607 0.88693 0.38723 0.00900
C 	C 	0.45737 0.83943 0.38783 0.08500
C 	C 	0.41437 0.83483 0.35283 -0.03000
H 	H 	0.41387 0.81793 0.32133 0.01900
C 	C 	0.37637 0.87903 0.40713 0.02200
H 	H 	0.34777 0.89173 0.41483 0.03800
C 	C 	0.42027 0.88723 0.44263 -0.03700
H 	H 	0.42147 0.90623 0.47313 0.04900
C 	C 	0.46207 0.86783 0.43373 -0.08800
H 	H 	0.49217 0.87343 0.45743 0.06900
Cl	Cl	0.63831 0.71855 0.35076 -0.50900
Cu	Cu	0.20062 0.02006 0.63905 0.86800
N 	N 	0.30053 0.14007 0.59609 -0.18800
N 	N 	0.24883 0.08387 0.58307 -0.19400
N 	N 	0.28373 0.14387 0.51607 -0.14900
N 	N 	0.24983 0.19667 0.39807 -0.19800
N 	N 	0.19483 0.08937 0.67398 -0.20400
N 	N 	0.24653 0.14497 0.68865 -0.18700
N 	N 	0.16453 0.15017 0.70747 -0.15300
N 	N 	0.03973 0.18697 0.69527 -0.19800
C 	C 	0.32073 0.17467 0.55607 0.10600
H 	H 	0.35523 0.21447 0.55487 0.00600
C 	C 	0.23873 0.08767 0.53467 0.09800
H 	H 	0.20593 0.05687 0.51607 -0.01900
C 	C 	0.29083 0.16887 0.46637 0.08500
C 	C 	0.34673 0.18937 0.44267 -0.08700
H 	H 	0.37803 0.18427 0.45717 0.06900
C 	C 	0.35503 0.21837 0.39527 -0.03700
H 	H 	0.39293 0.23547 0.37857 0.04800
C 	C 	0.24333 0.17087 0.44347 -0.02900
H 	H 	0.20503 0.15377 0.45977 0.02000
C 	C 	0.30523 0.22057 0.37447 0.02000
H 	H 	0.31013 0.23917 0.34307 0.03600
C 	C 	0.14653 0.09377 0.68577 0.10500
H 	H 	0.10543 0.06297 0.68027 -0.02600
C 	C 	0.22713 0.18017 0.70807 0.11200
H 	H 	0.25273 0.22027 0.72057 0.00800
C 	C 	0.12403 0.17277 0.72117 0.08400
C 	C 	0.08103 0.16817 0.68617 -0.03100
H 	H 	0.08053 0.15127 0.65467 0.01700
C 	C 	0.04303 0.21237 0.74047 0.02100
H 	H 	0.01443 0.22507 0.74817 0.03500
C 	C 	0.08693 0.22057 0.77597 -0.03900
H 	H 	0.08813 0.23957 0.80647 0.04800
C 	C 	0.12873 0.20117 0.76707 -0.08800
H 	H 	0.15883 0.20677 0.79077 0.06800
Cl	Cl	0.30497 0.05189 0.68410 -0.51500
Cu	Cu	0.64661 0.51390 0.97238 0.88200
N 	N 	0.52660 0.49380 0.92942 -0.18200
N 	N 	0.58280 0.49830 0.91640 -0.18900
N 	N 	0.52280 0.47320 0.84940 -0.14900
N 	N 	0.47000 0.38650 0.73140 -0.19800
N 	N 	0.57730 0.43880 0.00731 -0.20800
N 	N 	0.52170 0.43490 0.02198 -0.19000
N 	N 	0.51650 0.34770 0.04080 -0.15800
N 	N 	0.47970 0.18610 0.02860 -0.19100
C 	C 	0.49200 0.47940 0.88940 0.10700
H 	H 	0.45220 0.47410 0.88820 0.00600
C 	C 	0.57900 0.48440 0.86800 0.10000
H 	H 	0.60980 0.48240 0.84940 -0.01600
C 	C 	0.49780 0.45530 0.79970 0.08700
C 	C 	0.47730 0.49070 0.77600 -0.08700
H 	H 	0.48240 0.52710 0.79050 0.07000
C 	C 	0.44830 0.47000 0.72860 -0.03600
H 	H 	0.43120 0.49080 0.71190 0.04800
C 	C 	0.49580 0.40580 0.77680 -0.02900
H 	H 	0.51290 0.38460 0.79310 0.02200
C 	C 	0.44610 0.41800 0.70780 0.02000
H 	H 	0.42750 0.40430 0.67640 0.03600
C 	C 	0.57290 0.38610 0.01910 0.10400
H 	H 	0.60370 0.37580 0.01360 -0.02700
C 	C 	0.48650 0.38030 0.04140 0.11000
H 	H 	0.44640 0.36580 0.05390 0.00400
C 	C 	0.49390 0.28460 0.05450 0.10300
C 	C 	0.49850 0.24620 0.01950 -0.08100
H 	H 	0.51540 0.26260 0.98800 0.05300
C 	C 	0.45430 0.16400 0.07380 0.01200
H 	H 	0.44160 0.12270 0.08150 0.03800
C 	C 	0.44610 0.19970 0.10930 -0.02600
H 	H 	0.42710 0.18190 0.13980 0.04200
C 	C 	0.46550 0.26090 0.10040 -0.10400
H 	H 	0.45990 0.28540 0.12410 0.07200
Cl	Cl	0.61478 0.58642 0.01743 -0.52700
Cu	Cu	0.31328 0.84723 0.30571 0.87200
N 	N 	0.19327 0.82713 0.26275 -0.18800
N 	N 	0.24947 0.83163 0.24973 -0.19300
N 	N 	0.18947 0.80653 0.18273 -0.14900
N 	N 	0.13667 0.71983 0.06473 -0.20100
N 	N 	0.24397 0.77213 0.34064 -0.20200
N 	N 	0.18837 0.76823 0.35531 -0.18700
N 	N 	0.18317 0.68103 0.37413 -0.15300
N 	N 	0.14637 0.51943 0.36193 -0.19500
C 	C 	0.15867 0.81273 0.22273 0.10700
H 	H 	0.11887 0.80743 0.22153 0.00400
C 	C 	0.24567 0.81773 0.20133 0.09900
H 	H 	0.27647 0.81573 0.18273 -0.01800
C 	C 	0.16447 0.78863 0.13303 0.08500
C 	C 	0.14397 0.82403 0.10933 -0.08900
H 	H 	0.14907 0.86043 0.12383 0.06800
C 	C 	0.11497 0.80333 0.06193 -0.03900
H 	H 	0.09787 0.82413 0.04523 0.04300
C 	C 	0.16247 0.73913 0.11013 -0.03000
H 	H 	0.17957 0.71793 0.12643 0.02000
C 	C 	0.11277 0.75133 0.04113 0.01800
H 	H 	0.09417 0.73763 0.00973 0.02700
C 	C 	0.23957 0.71943 0.35243 0.10600
H 	H 	0.27037 0.70913 0.34693 -0.02300
C 	C 	0.15317 0.71363 0.37473 0.11200
H 	H 	0.11307 0.69913 0.38723 0.00600
C 	C 	0.16057 0.61793 0.38783 0.08500
C 	C 	0.16517 0.57953 0.35283 -0.03000
H 	H 	0.18207 0.59593 0.32133 0.01900
C 	C 	0.12097 0.49733 0.40713 0.02000
H 	H 	0.10827 0.45603 0.41483 0.03700
C 	C 	0.11277 0.53303 0.44263 -0.03800
H 	H 	0.09377 0.51523 0.47313 0.04600
C 	C 	0.13217 0.59423 0.43373 -0.08900
H 	H 	0.12657 0.61873 0.45743 0.06700
Cl	Cl	0.28145 0.91975 0.35076 -0.50700
Cu	Cu	0.97994 0.18057 0.63905 0.87600
N 	N 	0.85993 0.16047 0.59609 -0.18800
N 	N 	0.91613 0.16497 0.58307 -0.19200
N 	N 	0.85613 0.13987 0.51607 -0.14900
N 	N 	0.80333 0.05317 0.39807 -0.20000
N 	N 	0.91063 0.10547 0.67398 -0.20200
N 	N 	0.85503 0.10157 0.68865 -0.18700
N 	N 	0.84983 0.01437 0.70747 -0.15900
N 	N 	0.81303 0.85277 0.69527 -0.19300
C 	C 	0.82533 0.14607 0.55607 0.10600
H 	H 	0.78553 0.14077 0.55487 0.00500
C 	C 	0.91233 0.15107 0.53467 0.10000
H 	H 	0.94313 0.14907 0.51607 -0.01500
C 	C 	0.83113 0.12197 0.46637 0.08600
C 	C 	0.81063 0.15737 0.44267 -0.08700
H 	H 	0.81573 0.19377 0.45717 0.07000
C 	C 	0.78163 0.13667 0.39527 -0.03600
H 	H 	0.76453 0.15747 0.37857 0.04900
C 	C 	0.82913 0.07247 0.44347 -0.02900
H 	H 	0.84623 0.05127 0.45977 0.02000
C 	C 	0.77943 0.08467 0.37447 0.02000
H 	H 	0.76083 0.07097 0.34307 0.03400
C 	C 	0.90623 0.05277 0.68577 0.10700
H 	H 	0.93703 0.04247 0.68027 -0.02300
C 	C 	0.81983 0.04697 0.70807 0.11300
H 	H 	0.77973 0.03247 0.72057 0.00500
C 	C 	0.82723 0.95127 0.72117 0.09800
C 	C 	0.83183 0.91287 0.68617 -0.03400
H 	H 	0.84873 0.92927 0.65467 0.02400
C 	C 	0.78763 0.83067 0.74047 0.01900
H 	H 	0.77493 0.78937 0.74817 0.03900
C 	C 	0.77943 0.86637 0.77597 -0.03100
H 	H 	0.76043 0.84857 0.80647 0.04800
C 	C 	0.79883 0.92757 0.76707 -0.09400
H 	H 	0.79323 0.95207 0.79077 0.07500
Cl	Cl	0.94811 0.25309 0.68410 -0.50400
Cu	Cu	0.48610 0.13271 0.97238 0.88200
N 	N 	0.50620 0.03280 0.92942 -0.18100
N 	N 	0.50170 0.08450 0.91640 -0.19000
N 	N 	0.52680 0.04960 0.84940 -0.14400
N 	N 	0.61350 0.08350 0.73140 -0.19700
N 	N 	0.56120 0.13850 0.00731 -0.20800
N 	N 	0.56510 0.08680 0.02198 -0.19100
N 	N 	0.65230 0.16880 0.04080 -0.15700
N 	N 	0.81390 0.29360 0.02860 -0.19100
C 	C 	0.52060 0.01260 0.88940 0.08600
H 	H 	0.52590 0.97810 0.88820 0.02000
C 	C 	0.51560 0.09460 0.86800 0.09900
H 	H 	0.51760 0.12740 0.84940 -0.01600
C 	C 	0.54470 0.04250 0.79970 0.07300
C 	C 	0.50930 0.98660 0.77600 -0.07500
H 	H 	0.47290 0.95530 0.79050 0.06800
C 	C 	0.53000 0.97830 0.72860 -0.02400
H 	H 	0.50920 0.94040 0.71190 0.04700
C 	C 	0.59420 0.09000 0.77680 -0.02500
H 	H 	0.61540 0.12830 0.79310 0.02100
C 	C 	0.58200 0.02810 0.70780 0.00600
H 	H 	0.59570 0.02320 0.67640 0.03900
C 	C 	0.61390 0.18680 0.01910 0.10400
H 	H 	0.62420 0.22790 0.01360 -0.02700
C 	C 	0.61970 0.10620 0.04140 0.11000
H 	H 	0.63420 0.08060 0.05390 0.00200
C 	C 	0.71540 0.20930 0.05450 0.10200
C 	C 	0.75380 0.25230 0.01950 -0.07800
H 	H 	0.73740 0.25280 0.98800 0.05200
C 	C 	0.83600 0.29030 0.07380 0.01300
H 	H 	0.87730 0.31890 0.08150 0.03900
C 	C 	0.80030 0.24640 0.10930 -0.02700
H 	H 	0.81810 0.24520 0.13980 0.04400
C 	C 	0.73910 0.20460 0.10040 -0.10200
H 	H 	0.71460 0.17450 0.12410 0.07200
Cl	Cl	0.41358 0.02836 0.01743 -0.53200
Cu	Cu	0.15277 0.46604 0.30571 0.87200
N 	N 	0.17287 0.36613 0.26275 -0.18800
N 	N 	0.16837 0.41783 0.24973 -0.19300
N 	N 	0.19347 0.38293 0.18273 -0.14900
N 	N 	0.28017 0.41683 0.06473 -0.20100
N 	N 	0.22787 0.47183 0.34064 -0.20200
N 	N 	0.23177 0.42013 0.35531 -0.18700
N 	N 	0.31897 0.50213 0.37413 -0.15300
N 	N 	0.48057 0.62693 0.36193 -0.19500
C 	C 	0.18727 0.34593 0.22273 0.10600
H 	H 	0.19257 0.31143 0.22153 0.00500
C 	C 	0.18227 0.42793 0.20133 0.09800
H 	H 	0.18427 0.46073 0.18273 -0.01800
C 	C 	0.21137 0.37583 0.13303 0.08400
C 	C 	0.17597 0.31993 0.10933 -0.08800
H 	H 	0.13957 0.28863 0.12383 0.06600
C 	C 	0.19667 0.31163 0.06193 -0.03900
H 	H 	0.17587 0.27373 0.04523 0.04300
C 	C 	0.26087 0.42333 0.11013 -0.03000
H 	H 	0.28207 0.46163 0.12643 0.02000
C 	C 	0.24867 0.36143 0.04113 0.01800
H 	H 	0.26237 0.35653 0.00973 0.02700
C 	C 	0.28057 0.52013 0.35243 0.10600
H 	H 	0.29087 0.56123 0.34693 -0.02300
C 	C 	0.28637 0.43953 0.37473 0.11200
H 	H 	0.30087 0.41393 0.38723 0.00800
C 	C 	0.38207 0.54263 0.38783 0.08500
C 	C 	0.42047 0.58563 0.35283 -0.03000
H 	H 	0.40407 0.58613 0.32133 0.01900
C 	C 	0.50267 0.62363 0.40713 0.02100
H 	H 	0.54397 0.65223 0.41483 0.03800
C 	C 	0.46697 0.57973 0.44263 -0.03700
H 	H 	0.48477 0.57853 0.47313 0.04800
C 	C 	0.40577 0.53793 0.43373 -0.08800
H 	H 	0.38127 0.50783 0.45743 0.06800
Cl	Cl	0.08025 0.36169 0.35076 -0.51200
Cu	Cu	0.81943 0.79938 0.63905 0.87300
N 	N 	0.83953 0.69947 0.59609 -0.18800
N 	N 	0.83503 0.75117 0.58307 -0.19200
N 	N 	0.86013 0.71627 0.51607 -0.14900
N 	N 	0.94683 0.75017 0.39807 -0.19500
N 	N 	0.89453 0.80517 0.67398 -0.20200
N 	N 	0.89843 0.75347 0.68865 -0.18600
N 	N 	0.98563 0.83547 0.70747 -0.14700
N 	N 	0.14723 0.96027 0.69527 -0.19300
C 	C 	0.85393 0.67927 0.55607 0.10700
H 	H 	0.85923 0.64477 0.55487 0.00600
C 	C 	0.84893 0.76127 0.53467 0.10000
H 	H 	0.85093 0.79407 0.51607 -0.01600
C 	C 	0.87803 0.70917 0.46637 0.08800
C 	C 	0.84263 0.65327 0.44267 -0.08700
H 	H 	0.80623 0.62197 0.45717 0.07000
C 	C 	0.86333 0.64497 0.39527 -0.03500
H 	H 	0.84253 0.60707 0.37857 0.04900
C 	C 	0.92753 0.75667 0.44347 -0.02900
H 	H 	0.94873 0.79497 0.45977 0.02400
C 	C 	0.91533 0.69477 0.37447 0.02100
H 	H 	0.92903 0.68987 0.34307 0.03800
C 	C 	0.94723 0.85347 0.68577 0.10700
H 	H 	0.95753 0.89457 0.68027 -0.01900
C 	C 	0.95303 0.77287 0.70807 0.11300
H 	H 	0.96753 0.74727 0.72057 0.01000
C 	C 	0.04873 0.87597 0.72117 0.07600
C 	C 	0.08713 0.91897 0.68617 -0.02600
H 	H 	0.07073 0.91947 0.65467 0.01700
C 	C 	0.16933 0.95697 0.74047 0.02400
H 	H 	0.21063 0.98557 0.74817 0.04100
C 	C 	0.13363 0.91307 0.77597 -0.04000
H 	H 	0.15143 0.91187 0.80647 0.05100
C 	C 	0.07243 0.87127 0.76707 -0.08200
H 	H 	0.04793 0.84117 0.79077 0.06500
Cl	Cl	0.74691 0.69503 0.68410 -0.50900
Cu	Cu	0.00000 0.50000 -0.00000 0.88200
Cu	Cu	0.66667 0.83333 0.33333 0.89800
Cu	Cu	0.33333 0.16667 0.66667 0.89700
Cu	Cu	0.50000 0.50000 -0.00000 0.88700
Cu	Cu	0.16667 0.83333 0.33333 0.89800
Cu	Cu	0.83333 0.16667 0.66667 0.89700
Cu	Cu	0.50000 0.00000 -0.00000 0.88400
Cu	Cu	0.16667 0.33333 0.33333 0.89700
Cu	Cu	0.83333 0.66667 0.66667 0.89800
