data_crystal

_cell_length_a 24.05950
_cell_length_b 24.05950
_cell_length_c 30.98600
_cell_angle_alpha 90.00000
_cell_angle_beta  90.00000
_cell_angle_gamma 90.00000

_symmetry_space_group_name_	'P 1'
_symmetry_space_group_name_H-M	'P 1'

loop_
_symmetry_equiv_pos_as_xyz
  x,y,z

loop_
_atom_site_label
_atom_site_type_symbol
_atom_site_fract_x
_atom_site_fract_y
_atom_site_fract_z
_atom_site_charge
Zn	Zn	0.57245 0.12589 0.12217 1.22000
C 	C 	0.29816 0.23813 0.07780 0.39100
C 	C 	0.34830 0.23610 0.04859 -0.37800
H 	H 	0.33620 0.23440 0.01880 0.16700
H 	H 	0.37000 0.26970 0.05230 0.14900
C 	C 	0.47837 0.16468 0.08112 0.42500
C 	C 	0.44225 0.19450 0.04897 -0.39000
H 	H 	0.45110 0.23390 0.04940 0.15100
H 	H 	0.45010 0.18060 0.02020 0.16600
C 	C 	0.36078 0.13556 0.03870 -0.18000
H 	H 	0.32210 0.13210 0.04710 0.07400
H 	H 	0.38050 0.10410 0.05090 0.06900
C 	C 	0.36394 0.13126 0.98975 0.09800
C 	C 	0.40790 0.10400 0.96975 -0.11000
H 	H 	0.43530 0.08750 0.98660 0.07100
C 	C 	0.41140 0.10090 0.92529 -0.02100
H 	H 	0.44160 0.08300 0.91270 0.04800
C 	C 	0.37077 0.12390 0.89920 0.00400
C 	C 	0.32650 0.15146 0.91908 -0.02300
H 	H 	0.29890 0.16770 0.90230 0.05800
C 	C 	0.32349 0.15480 0.96350 -0.10400
H 	H 	0.29370 0.17330 0.97610 0.07500
C 	C 	0.69740 0.11870 0.10820 0.00800
H 	H 	0.70370 0.15400 0.11940 0.03300
C 	C 	0.73740 0.08430 0.09427 0.01100
H 	H 	0.77550 0.09050 0.09440 0.04100
C 	C 	0.65560 0.04650 0.08698 0.10800
H 	H 	0.62820 0.02060 0.08070 -0.00700
C 	C 	0.73580 0.98860 0.06050 0.03800
C 	C 	0.73010 0.97300 0.01630 -0.02200
N 	N 	0.38335 0.18705 0.05841 -0.09100
N 	N 	0.64627 0.09506 0.10368 -0.26100
N 	N 	0.71031 0.03870 0.07995 -0.12500
O 	O 	0.25668 0.26456 0.06574 -0.27200
O 	O 	0.30090 0.21343 0.11411 -0.43500
O 	O 	0.45882 0.15317 0.11733 -0.49300
O 	O 	0.52810 0.15387 0.07105 -0.46300
Zn	Zn	0.07245 0.62589 0.62216 1.22000
C 	C 	0.79816 0.73813 0.57780 0.39100
C 	C 	0.84830 0.73610 0.54859 -0.37800
H 	H 	0.83620 0.73440 0.51880 0.16800
H 	H 	0.87000 0.76970 0.55230 0.14900
C 	C 	0.97837 0.66468 0.58112 0.42500
C 	C 	0.94225 0.69450 0.54897 -0.39100
H 	H 	0.95110 0.73390 0.54940 0.15000
H 	H 	0.95010 0.68060 0.52020 0.16600
C 	C 	0.86078 0.63556 0.53870 -0.18100
H 	H 	0.82210 0.63210 0.54710 0.07300
H 	H 	0.88050 0.60410 0.55090 0.06800
C 	C 	0.86394 0.63126 0.48975 0.09600
C 	C 	0.90790 0.60400 0.46975 -0.11100
H 	H 	0.93530 0.58750 0.48660 0.07000
C 	C 	0.91140 0.60090 0.42529 -0.02300
H 	H 	0.94160 0.58300 0.41270 0.04700
C 	C 	0.87077 0.62390 0.39920 0.00300
C 	C 	0.82650 0.65146 0.41908 -0.02400
H 	H 	0.79890 0.66770 0.40230 0.05700
C 	C 	0.82349 0.65480 0.46350 -0.10500
H 	H 	0.79370 0.67330 0.47610 0.07300
C 	C 	0.19740 0.61870 0.60820 0.00700
H 	H 	0.20370 0.65400 0.61940 0.03200
C 	C 	0.23740 0.58430 0.59427 0.01000
H 	H 	0.27550 0.59050 0.59440 0.04000
C 	C 	0.15560 0.54650 0.58698 0.10700
H 	H 	0.12820 0.52060 0.58070 -0.00800
C 	C 	0.23580 0.48860 0.56050 0.03600
C 	C 	0.23010 0.47300 0.51630 -0.02300
N 	N 	0.88335 0.68705 0.55841 -0.09200
N 	N 	0.14627 0.59506 0.60368 -0.26200
N 	N 	0.21031 0.53870 0.57995 -0.12600
O 	O 	0.75668 0.76456 0.56574 -0.27300
O 	O 	0.80090 0.71343 0.61411 -0.43600
O 	O 	0.95882 0.65317 0.61733 -0.49400
O 	O 	0.02810 0.65387 0.57105 -0.46400
Zn	Zn	0.92755 0.87411 0.62216 1.21900
C 	C 	0.20184 0.76187 0.57780 0.39000
C 	C 	0.15170 0.76390 0.54859 -0.37900
H 	H 	0.16380 0.76560 0.51880 0.16700
H 	H 	0.13000 0.73030 0.55230 0.14800
C 	C 	0.02163 0.83532 0.58112 0.42400
C 	C 	0.05775 0.80550 0.54897 -0.39100
H 	H 	0.04890 0.76610 0.54940 0.15000
H 	H 	0.04990 0.81940 0.52020 0.16600
C 	C 	0.13922 0.86444 0.53870 -0.18100
H 	H 	0.17790 0.86790 0.54710 0.07300
H 	H 	0.11950 0.89590 0.55090 0.06800
C 	C 	0.13606 0.86874 0.48975 0.09600
C 	C 	0.09210 0.89600 0.46975 -0.11100
H 	H 	0.06470 0.91250 0.48660 0.07000
C 	C 	0.08860 0.89910 0.42529 -0.02300
H 	H 	0.05840 0.91700 0.41270 0.04700
C 	C 	0.12923 0.87610 0.39920 0.00300
C 	C 	0.17350 0.84854 0.41908 -0.02400
H 	H 	0.20110 0.83230 0.40230 0.05700
C 	C 	0.17651 0.84520 0.46350 -0.10500
H 	H 	0.20630 0.82670 0.47610 0.07300
C 	C 	0.80260 0.88130 0.60820 0.00700
H 	H 	0.79630 0.84600 0.61940 0.03200
C 	C 	0.76260 0.91570 0.59427 0.01000
H 	H 	0.72450 0.90950 0.59440 0.04000
C 	C 	0.84440 0.95350 0.58698 0.10700
H 	H 	0.87180 0.97940 0.58070 -0.00800
C 	C 	0.76420 0.01140 0.56050 0.03600
C 	C 	0.76990 0.02700 0.51630 -0.02400
N 	N 	0.11665 0.81295 0.55841 -0.09200
N 	N 	0.85373 0.90494 0.60368 -0.26200
N 	N 	0.78969 0.96130 0.57995 -0.12600
O 	O 	0.24332 0.73544 0.56574 -0.27300
O 	O 	0.19910 0.78657 0.61411 -0.43600
O 	O 	0.04118 0.84683 0.61733 -0.49400
O 	O 	0.97190 0.84613 0.57105 -0.46400
Zn	Zn	0.42755 0.37411 0.12217 1.21900
C 	C 	0.70184 0.26187 0.07780 0.39000
C 	C 	0.65170 0.26390 0.04859 -0.37900
H 	H 	0.66380 0.26560 0.01880 0.16600
H 	H 	0.63000 0.23030 0.05230 0.14800
C 	C 	0.52163 0.33532 0.08112 0.42400
C 	C 	0.55775 0.30550 0.04897 -0.39100
H 	H 	0.54890 0.26610 0.04940 0.15000
H 	H 	0.54990 0.31940 0.02020 0.16500
C 	C 	0.63922 0.36444 0.03870 -0.18100
H 	H 	0.67790 0.36790 0.04710 0.07300
H 	H 	0.61950 0.39590 0.05090 0.06800
C 	C 	0.63606 0.36874 0.98975 0.09700
C 	C 	0.59210 0.39600 0.96975 -0.11100
H 	H 	0.56470 0.41250 0.98660 0.07100
C 	C 	0.58860 0.39910 0.92529 -0.02200
H 	H 	0.55840 0.41700 0.91270 0.04700
C 	C 	0.62923 0.37610 0.89920 0.00300
C 	C 	0.67350 0.34854 0.91908 -0.02400
H 	H 	0.70110 0.33230 0.90230 0.05700
C 	C 	0.67651 0.34520 0.96350 -0.10500
H 	H 	0.70630 0.32670 0.97610 0.07400
C 	C 	0.30260 0.38130 0.10820 0.00700
H 	H 	0.29630 0.34600 0.11940 0.03200
C 	C 	0.26260 0.41570 0.09427 0.01000
H 	H 	0.22450 0.40950 0.09440 0.04000
C 	C 	0.34440 0.45350 0.08698 0.10700
H 	H 	0.37180 0.47940 0.08070 -0.00800
C 	C 	0.26420 0.51140 0.06050 0.03600
C 	C 	0.26990 0.52700 0.01630 -0.02400
N 	N 	0.61665 0.31295 0.05841 -0.09200
N 	N 	0.35373 0.40494 0.10368 -0.26200
N 	N 	0.28969 0.46130 0.07995 -0.12600
O 	O 	0.74332 0.23544 0.06574 -0.27300
O 	O 	0.69910 0.28657 0.11411 -0.43600
O 	O 	0.54118 0.34683 0.11733 -0.49400
O 	O 	0.47190 0.34613 0.07105 -0.46400
Zn	Zn	0.12411 0.32245 0.37216 1.21900
C 	C 	0.01187 0.04816 0.32780 0.39000
C 	C 	0.01390 0.09830 0.29859 -0.37900
H 	H 	0.01560 0.08620 0.26880 0.16700
H 	H 	0.98030 0.12000 0.30230 0.14800
C 	C 	0.08532 0.22837 0.33112 0.42400
C 	C 	0.05550 0.19225 0.29897 -0.39100
H 	H 	0.01610 0.20110 0.29940 0.15000
H 	H 	0.06940 0.20010 0.27020 0.16600
C 	C 	0.11444 0.11078 0.28870 -0.18100
H 	H 	0.11790 0.07210 0.29710 0.07300
H 	H 	0.14590 0.13050 0.30090 0.06800
C 	C 	0.11874 0.11394 0.23975 0.09600
C 	C 	0.14600 0.15790 0.21975 -0.11100
H 	H 	0.16250 0.18530 0.23660 0.07000
C 	C 	0.14910 0.16140 0.17529 -0.02300
H 	H 	0.16700 0.19160 0.16270 0.04700
C 	C 	0.12610 0.12077 0.14920 0.00300
C 	C 	0.09854 0.07650 0.16908 -0.02400
H 	H 	0.08230 0.04890 0.15230 0.05700
C 	C 	0.09520 0.07349 0.21350 -0.10500
H 	H 	0.07670 0.04370 0.22610 0.07300
C 	C 	0.13130 0.44740 0.35820 0.00700
H 	H 	0.09600 0.45370 0.36940 0.03200
C 	C 	0.16570 0.48740 0.34427 0.01000
H 	H 	0.15950 0.52550 0.34440 0.04000
C 	C 	0.20350 0.40560 0.33698 0.10700
H 	H 	0.22940 0.37820 0.33070 -0.00800
C 	C 	0.26140 0.48580 0.31050 0.03600
C 	C 	0.27700 0.48010 0.26630 -0.02300
N 	N 	0.06295 0.13335 0.30841 -0.09200
N 	N 	0.15494 0.39627 0.35368 -0.26200
N 	N 	0.21130 0.46031 0.32995 -0.12600
O 	O 	0.98544 0.00668 0.31574 -0.27300
O 	O 	0.03657 0.05090 0.36411 -0.43700
O 	O 	0.09683 0.20882 0.36733 -0.49400
O 	O 	0.09613 0.27810 0.32105 -0.46400
Zn	Zn	0.62411 0.82245 0.87216 1.21900
C 	C 	0.51187 0.54816 0.82780 0.39000
C 	C 	0.51390 0.59830 0.79859 -0.37900
H 	H 	0.51560 0.58620 0.76880 0.16700
H 	H 	0.48030 0.62000 0.80230 0.14800
C 	C 	0.58532 0.72837 0.83112 0.42400
C 	C 	0.55550 0.69225 0.79897 -0.39100
H 	H 	0.51610 0.70110 0.79940 0.15000
H 	H 	0.56940 0.70010 0.77020 0.16600
C 	C 	0.61444 0.61078 0.78870 -0.18100
H 	H 	0.61790 0.57210 0.79710 0.07300
H 	H 	0.64590 0.63050 0.80090 0.06800
C 	C 	0.61874 0.61394 0.73975 0.09600
C 	C 	0.64600 0.65790 0.71975 -0.11100
H 	H 	0.66250 0.68530 0.73660 0.07000
C 	C 	0.64910 0.66140 0.67529 -0.02300
H 	H 	0.66700 0.69160 0.66270 0.04700
C 	C 	0.62610 0.62077 0.64920 0.00300
C 	C 	0.59854 0.57650 0.66908 -0.02400
H 	H 	0.58230 0.54890 0.65230 0.05700
C 	C 	0.59520 0.57349 0.71350 -0.10500
H 	H 	0.57670 0.54370 0.72610 0.07300
C 	C 	0.63130 0.94740 0.85820 0.00600
H 	H 	0.59600 0.95370 0.86940 0.03300
C 	C 	0.66570 0.98740 0.84427 0.01000
H 	H 	0.65950 0.02550 0.84440 0.04000
C 	C 	0.70350 0.90560 0.83698 0.10700
H 	H 	0.72940 0.87820 0.83070 -0.00800
C 	C 	0.76140 0.98580 0.81050 0.03600
C 	C 	0.77700 0.98010 0.76630 -0.02300
N 	N 	0.56295 0.63335 0.80841 -0.09200
N 	N 	0.65494 0.89627 0.85368 -0.26200
N 	N 	0.71130 0.96031 0.82995 -0.12600
O 	O 	0.48544 0.50668 0.81574 -0.27300
O 	O 	0.53657 0.55090 0.86411 -0.43600
O 	O 	0.59683 0.70882 0.86733 -0.49400
O 	O 	0.59613 0.77810 0.82105 -0.46400
Zn	Zn	0.37589 0.67755 0.87216 1.21900
C 	C 	0.48813 0.95184 0.82780 0.39000
C 	C 	0.48610 0.90170 0.79859 -0.37900
H 	H 	0.48440 0.91380 0.76880 0.16700
H 	H 	0.51970 0.88000 0.80230 0.14800
C 	C 	0.41468 0.77163 0.83112 0.42400
C 	C 	0.44450 0.80775 0.79897 -0.39100
H 	H 	0.48390 0.79890 0.79940 0.15000
H 	H 	0.43060 0.79990 0.77020 0.16600
C 	C 	0.38556 0.88922 0.78870 -0.18100
H 	H 	0.38210 0.92790 0.79710 0.07300
H 	H 	0.35410 0.86950 0.80090 0.06800
C 	C 	0.38126 0.88606 0.73975 0.09600
C 	C 	0.35400 0.84210 0.71975 -0.11100
H 	H 	0.33750 0.81470 0.73660 0.07000
C 	C 	0.35090 0.83860 0.67529 -0.02300
H 	H 	0.33300 0.80840 0.66270 0.04700
C 	C 	0.37390 0.87923 0.64920 0.00300
C 	C 	0.40146 0.92350 0.66908 -0.02400
H 	H 	0.41770 0.95110 0.65230 0.05700
C 	C 	0.40480 0.92651 0.71350 -0.10500
H 	H 	0.42330 0.95630 0.72610 0.07300
C 	C 	0.36870 0.55260 0.85820 0.00700
H 	H 	0.40400 0.54630 0.86940 0.03200
C 	C 	0.33430 0.51260 0.84427 0.01000
H 	H 	0.34050 0.47450 0.84440 0.04000
C 	C 	0.29650 0.59440 0.83698 0.10700
H 	H 	0.27060 0.62180 0.83070 -0.00800
C 	C 	0.23860 0.51420 0.81050 0.03600
C 	C 	0.22300 0.51990 0.76630 -0.02300
N 	N 	0.43705 0.86665 0.80841 -0.09200
N 	N 	0.34506 0.60373 0.85368 -0.26200
N 	N 	0.28870 0.53969 0.82995 -0.12600
O 	O 	0.51456 0.99332 0.81574 -0.27300
O 	O 	0.46343 0.94910 0.86411 -0.43600
O 	O 	0.40317 0.79118 0.86733 -0.49400
O 	O 	0.40387 0.72190 0.82105 -0.46400
Zn	Zn	0.87589 0.17755 0.37216 1.21900
C 	C 	0.98813 0.45184 0.32780 0.39000
C 	C 	0.98610 0.40170 0.29859 -0.37900
H 	H 	0.98440 0.41380 0.26880 0.16700
H 	H 	0.01970 0.38000 0.30230 0.14800
C 	C 	0.91468 0.27163 0.33112 0.42400
C 	C 	0.94450 0.30775 0.29897 -0.39100
H 	H 	0.98390 0.29890 0.29940 0.15000
H 	H 	0.93060 0.29990 0.27020 0.16600
C 	C 	0.88556 0.38922 0.28870 -0.18100
H 	H 	0.88210 0.42790 0.29710 0.07300
H 	H 	0.85410 0.36950 0.30090 0.06800
C 	C 	0.88126 0.38606 0.23975 0.09600
C 	C 	0.85400 0.34210 0.21975 -0.11100
H 	H 	0.83750 0.31470 0.23660 0.07000
C 	C 	0.85090 0.33860 0.17529 -0.02200
H 	H 	0.83300 0.30840 0.16270 0.04700
C 	C 	0.87390 0.37923 0.14920 0.00300
C 	C 	0.90146 0.42350 0.16908 -0.02400
H 	H 	0.91770 0.45110 0.15230 0.05700
C 	C 	0.90480 0.42651 0.21350 -0.10500
H 	H 	0.92330 0.45630 0.22610 0.07300
C 	C 	0.86870 0.05260 0.35820 0.00700
H 	H 	0.90400 0.04630 0.36940 0.03200
C 	C 	0.83430 0.01260 0.34427 0.00800
H 	H 	0.84050 0.97450 0.34440 0.04100
C 	C 	0.79650 0.09440 0.33698 0.10700
H 	H 	0.77060 0.12180 0.33070 -0.00800
C 	C 	0.73860 0.01420 0.31050 0.03600
C 	C 	0.72300 0.01990 0.26630 -0.02300
N 	N 	0.93705 0.36665 0.30841 -0.09200
N 	N 	0.84506 0.10373 0.35368 -0.26200
N 	N 	0.78870 0.03969 0.32995 -0.12600
O 	O 	0.01456 0.49332 0.31574 -0.27300
O 	O 	0.96343 0.44910 0.36411 -0.43600
O 	O 	0.90317 0.29118 0.36733 -0.49400
O 	O 	0.90387 0.22190 0.32105 -0.46400
Zn	Zn	0.92755 0.12589 0.87783 1.21900
C 	C 	0.20184 0.23813 0.92220 0.39000
C 	C 	0.15170 0.23610 0.95141 -0.37900
H 	H 	0.16380 0.23440 0.98120 0.16700
H 	H 	0.13000 0.26970 0.94770 0.14800
C 	C 	0.02163 0.16468 0.91888 0.42400
C 	C 	0.05775 0.19450 0.95103 -0.39100
H 	H 	0.04890 0.23390 0.95060 0.15000
H 	H 	0.04990 0.18060 0.97980 0.16600
C 	C 	0.13922 0.13556 0.96130 -0.18000
H 	H 	0.17790 0.13210 0.95290 0.07300
H 	H 	0.11950 0.10410 0.94910 0.06800
C 	C 	0.13606 0.13126 0.01025 0.09600
C 	C 	0.09210 0.10400 0.03025 -0.11000
H 	H 	0.06470 0.08750 0.01340 0.07000
C 	C 	0.08860 0.10090 0.07471 -0.02300
H 	H 	0.05840 0.08300 0.08730 0.04700
C 	C 	0.12923 0.12390 0.10080 0.00300
C 	C 	0.17350 0.15146 0.08092 -0.02500
H 	H 	0.20110 0.16770 0.09770 0.05700
C 	C 	0.17651 0.15480 0.03650 -0.10400
H 	H 	0.20630 0.17330 0.02390 0.07300
C 	C 	0.80260 0.11870 0.89180 0.00700
H 	H 	0.79630 0.15400 0.88060 0.03200
C 	C 	0.76260 0.08430 0.90573 0.01000
H 	H 	0.72450 0.09050 0.90560 0.04000
C 	C 	0.84440 0.04650 0.91302 0.10700
H 	H 	0.87180 0.02060 0.91930 -0.00800
C 	C 	0.76420 0.98860 0.93950 0.03600
C 	C 	0.76990 0.97300 0.98370 -0.02200
N 	N 	0.11665 0.18705 0.94159 -0.09200
N 	N 	0.85373 0.09506 0.89632 -0.26200
N 	N 	0.78969 0.03870 0.92005 -0.12600
O 	O 	0.24332 0.26456 0.93426 -0.27300
O 	O 	0.19910 0.21343 0.88589 -0.43600
O 	O 	0.04118 0.15317 0.88267 -0.49400
O 	O 	0.97190 0.15387 0.92895 -0.46400
Zn	Zn	0.42755 0.62589 0.37783 1.21900
C 	C 	0.70184 0.73813 0.42220 0.39000
C 	C 	0.65170 0.73610 0.45141 -0.37900
H 	H 	0.66380 0.73440 0.48120 0.16700
H 	H 	0.63000 0.76970 0.44770 0.14800
C 	C 	0.52163 0.66468 0.41888 0.42400
C 	C 	0.55775 0.69450 0.45103 -0.39100
H 	H 	0.54890 0.73390 0.45060 0.15000
H 	H 	0.54990 0.68060 0.47980 0.16600
C 	C 	0.63922 0.63556 0.46130 -0.18100
H 	H 	0.67790 0.63210 0.45290 0.07300
H 	H 	0.61950 0.60410 0.44910 0.06800
C 	C 	0.63606 0.63126 0.51025 0.09600
C 	C 	0.59210 0.60400 0.53025 -0.11100
H 	H 	0.56470 0.58750 0.51340 0.07000
C 	C 	0.58860 0.60090 0.57471 -0.02300
H 	H 	0.55840 0.58300 0.58730 0.04700
C 	C 	0.62923 0.62390 0.60080 0.00300
C 	C 	0.67350 0.65146 0.58092 -0.02400
H 	H 	0.70110 0.66770 0.59770 0.05700
C 	C 	0.67651 0.65480 0.53650 -0.10500
H 	H 	0.70630 0.67330 0.52390 0.07300
C 	C 	0.30260 0.61870 0.39180 0.00700
H 	H 	0.29630 0.65400 0.38060 0.03200
C 	C 	0.26260 0.58430 0.40573 0.01000
H 	H 	0.22450 0.59050 0.40560 0.04000
C 	C 	0.34440 0.54650 0.41302 0.10700
H 	H 	0.37180 0.52060 0.41930 -0.00800
C 	C 	0.26420 0.48860 0.43950 0.03600
C 	C 	0.26990 0.47300 0.48370 -0.02300
N 	N 	0.61665 0.68705 0.44159 -0.09200
N 	N 	0.35373 0.59506 0.39632 -0.26200
N 	N 	0.28969 0.53870 0.42005 -0.12600
O 	O 	0.74332 0.76456 0.43426 -0.27300
O 	O 	0.69910 0.71343 0.38589 -0.43600
O 	O 	0.54118 0.65317 0.38267 -0.49400
O 	O 	0.47190 0.65387 0.42895 -0.46400
Zn	Zn	0.57245 0.87411 0.37783 1.21900
C 	C 	0.29816 0.76187 0.42220 0.39000
C 	C 	0.34830 0.76390 0.45141 -0.37900
H 	H 	0.33620 0.76560 0.48120 0.16700
H 	H 	0.37000 0.73030 0.44770 0.14800
C 	C 	0.47837 0.83532 0.41888 0.42400
C 	C 	0.44225 0.80550 0.45103 -0.39100
H 	H 	0.45110 0.76610 0.45060 0.15000
H 	H 	0.45010 0.81940 0.47980 0.16600
C 	C 	0.36078 0.86444 0.46130 -0.18100
H 	H 	0.32210 0.86790 0.45290 0.07300
H 	H 	0.38050 0.89590 0.44910 0.06800
C 	C 	0.36394 0.86874 0.51025 0.09600
C 	C 	0.40790 0.89600 0.53025 -0.11100
H 	H 	0.43530 0.91250 0.51340 0.07000
C 	C 	0.41140 0.89910 0.57471 -0.02300
H 	H 	0.44160 0.91700 0.58730 0.04700
C 	C 	0.37077 0.87610 0.60080 0.00300
C 	C 	0.32650 0.84854 0.58092 -0.02400
H 	H 	0.29890 0.83230 0.59770 0.05700
C 	C 	0.32349 0.84520 0.53650 -0.10500
H 	H 	0.29370 0.82670 0.52390 0.07300
C 	C 	0.69740 0.88130 0.39180 0.00700
H 	H 	0.70370 0.84600 0.38060 0.03200
C 	C 	0.73740 0.91570 0.40573 0.01000
H 	H 	0.77550 0.90950 0.40560 0.04000
C 	C 	0.65560 0.95350 0.41302 0.10700
H 	H 	0.62820 0.97940 0.41930 -0.00800
C 	C 	0.73580 0.01140 0.43950 0.03600
C 	C 	0.73010 0.02700 0.48370 -0.02400
N 	N 	0.38335 0.81295 0.44159 -0.09200
N 	N 	0.64627 0.90494 0.39632 -0.26200
N 	N 	0.71031 0.96130 0.42005 -0.12600
O 	O 	0.25668 0.73544 0.43426 -0.27300
O 	O 	0.30090 0.78657 0.38589 -0.43600
O 	O 	0.45882 0.84683 0.38267 -0.49400
O 	O 	0.52810 0.84613 0.42895 -0.46400
Zn	Zn	0.07245 0.37411 0.87783 1.21900
C 	C 	0.79816 0.26187 0.92220 0.39000
C 	C 	0.84830 0.26390 0.95141 -0.37900
H 	H 	0.83620 0.26560 0.98120 0.16700
H 	H 	0.87000 0.23030 0.94770 0.14800
C 	C 	0.97837 0.33532 0.91888 0.42400
C 	C 	0.94225 0.30550 0.95103 -0.39100
H 	H 	0.95110 0.26610 0.95060 0.15000
H 	H 	0.95010 0.31940 0.97980 0.16600
C 	C 	0.86078 0.36444 0.96130 -0.18000
H 	H 	0.82210 0.36790 0.95290 0.07300
H 	H 	0.88050 0.39590 0.94910 0.06800
C 	C 	0.86394 0.36874 0.01025 0.09600
C 	C 	0.90790 0.39600 0.03025 -0.11000
H 	H 	0.93530 0.41250 0.01340 0.07000
C 	C 	0.91140 0.39910 0.07471 -0.02300
H 	H 	0.94160 0.41700 0.08730 0.04700
C 	C 	0.87077 0.37610 0.10080 0.00300
C 	C 	0.82650 0.34854 0.08092 -0.02500
H 	H 	0.79890 0.33230 0.09770 0.05700
C 	C 	0.82349 0.34520 0.03650 -0.10400
H 	H 	0.79370 0.32670 0.02390 0.07300
C 	C 	0.19740 0.38130 0.89180 0.00700
H 	H 	0.20370 0.34600 0.88060 0.03200
C 	C 	0.23740 0.41570 0.90573 0.01000
H 	H 	0.27550 0.40950 0.90560 0.04000
C 	C 	0.15560 0.45350 0.91302 0.10700
H 	H 	0.12820 0.47940 0.91930 -0.00800
C 	C 	0.23580 0.51140 0.93950 0.03600
C 	C 	0.23010 0.52700 0.98370 -0.02300
N 	N 	0.88335 0.31295 0.94159 -0.09200
N 	N 	0.14627 0.40494 0.89632 -0.26200
N 	N 	0.21031 0.46130 0.92005 -0.12600
O 	O 	0.75668 0.23544 0.93426 -0.27300
O 	O 	0.80090 0.28657 0.88589 -0.43600
O 	O 	0.95882 0.34683 0.88267 -0.49400
O 	O 	0.02810 0.34613 0.92895 -0.46400
Zn	Zn	0.37589 0.32245 0.62783 1.21900
C 	C 	0.48813 0.04816 0.67220 0.39000
C 	C 	0.48610 0.09830 0.70141 -0.37900
H 	H 	0.48440 0.08620 0.73120 0.16700
H 	H 	0.51970 0.12000 0.69770 0.14800
C 	C 	0.41468 0.22837 0.66888 0.42400
C 	C 	0.44450 0.19225 0.70103 -0.39100
H 	H 	0.48390 0.20110 0.70060 0.15000
H 	H 	0.43060 0.20010 0.72980 0.16600
C 	C 	0.38556 0.11078 0.71130 -0.18000
H 	H 	0.38210 0.07210 0.70290 0.07200
H 	H 	0.35410 0.13050 0.69910 0.06800
C 	C 	0.38126 0.11394 0.76025 0.09600
C 	C 	0.35400 0.15790 0.78025 -0.11100
H 	H 	0.33750 0.18530 0.76340 0.07000
C 	C 	0.35090 0.16140 0.82471 -0.02300
H 	H 	0.33300 0.19160 0.83730 0.04700
C 	C 	0.37390 0.12077 0.85080 0.00300
C 	C 	0.40146 0.07650 0.83092 -0.02500
H 	H 	0.41770 0.04890 0.84770 0.05700
C 	C 	0.40480 0.07349 0.78650 -0.10500
H 	H 	0.42330 0.04370 0.77390 0.07300
C 	C 	0.36870 0.44740 0.64180 0.00700
H 	H 	0.40400 0.45370 0.63060 0.03200
C 	C 	0.33430 0.48740 0.65573 0.01000
H 	H 	0.34050 0.52550 0.65560 0.04000
C 	C 	0.29650 0.40560 0.66302 0.10700
H 	H 	0.27060 0.37820 0.66930 -0.00800
C 	C 	0.23860 0.48580 0.68950 0.03600
C 	C 	0.22300 0.48010 0.73370 -0.02300
N 	N 	0.43705 0.13335 0.69159 -0.09200
N 	N 	0.34506 0.39627 0.64632 -0.26200
N 	N 	0.28870 0.46031 0.67005 -0.12600
O 	O 	0.51456 0.00668 0.68426 -0.27300
O 	O 	0.46343 0.05090 0.63589 -0.43700
O 	O 	0.40317 0.20882 0.63267 -0.49400
O 	O 	0.40387 0.27810 0.67895 -0.46400
Zn	Zn	0.87589 0.82245 0.12783 1.21900
C 	C 	0.98813 0.54816 0.17220 0.39000
C 	C 	0.98610 0.59830 0.20141 -0.37900
H 	H 	0.98440 0.58620 0.23120 0.16700
H 	H 	0.01970 0.62000 0.19770 0.14800
C 	C 	0.91468 0.72837 0.16888 0.42400
C 	C 	0.94450 0.69225 0.20103 -0.39100
H 	H 	0.98390 0.70110 0.20060 0.15000
H 	H 	0.93060 0.70010 0.22980 0.16600
C 	C 	0.88556 0.61078 0.21130 -0.18100
H 	H 	0.88210 0.57210 0.20290 0.07300
H 	H 	0.85410 0.63050 0.19910 0.06800
C 	C 	0.88126 0.61394 0.26025 0.09600
C 	C 	0.85400 0.65790 0.28025 -0.11100
H 	H 	0.83750 0.68530 0.26340 0.07000
C 	C 	0.85090 0.66140 0.32471 -0.02300
H 	H 	0.83300 0.69160 0.33730 0.04700
C 	C 	0.87390 0.62077 0.35080 0.00300
C 	C 	0.90146 0.57650 0.33092 -0.02400
H 	H 	0.91770 0.54890 0.34770 0.05700
C 	C 	0.90480 0.57349 0.28650 -0.10500
H 	H 	0.92330 0.54370 0.27390 0.07300
C 	C 	0.86870 0.94740 0.14180 0.00600
H 	H 	0.90400 0.95370 0.13060 0.03300
C 	C 	0.83430 0.98740 0.15573 0.01000
H 	H 	0.84050 0.02550 0.15560 0.04000
C 	C 	0.79650 0.90560 0.16302 0.10700
H 	H 	0.77060 0.87820 0.16930 -0.00800
C 	C 	0.73860 0.98580 0.18950 0.03600
C 	C 	0.72300 0.98010 0.23370 -0.02300
N 	N 	0.93705 0.63335 0.19159 -0.09200
N 	N 	0.84506 0.89627 0.14632 -0.26200
N 	N 	0.78870 0.96031 0.17005 -0.12600
O 	O 	0.01456 0.50668 0.18426 -0.27300
O 	O 	0.96343 0.55090 0.13589 -0.43600
O 	O 	0.90317 0.70882 0.13267 -0.49400
O 	O 	0.90387 0.77810 0.17895 -0.46400
Zn	Zn	0.12411 0.67755 0.12783 1.21900
C 	C 	0.01187 0.95184 0.17220 0.39000
C 	C 	0.01390 0.90170 0.20141 -0.37900
H 	H 	0.01560 0.91380 0.23120 0.16700
H 	H 	0.98030 0.88000 0.19770 0.14800
C 	C 	0.08532 0.77163 0.16888 0.42400
C 	C 	0.05550 0.80775 0.20103 -0.39100
H 	H 	0.01610 0.79890 0.20060 0.15000
H 	H 	0.06940 0.79990 0.22980 0.16600
C 	C 	0.11444 0.88922 0.21130 -0.18100
H 	H 	0.11790 0.92790 0.20290 0.07300
H 	H 	0.14590 0.86950 0.19910 0.06800
C 	C 	0.11874 0.88606 0.26025 0.09600
C 	C 	0.14600 0.84210 0.28025 -0.11100
H 	H 	0.16250 0.81470 0.26340 0.07000
C 	C 	0.14910 0.83860 0.32471 -0.02300
H 	H 	0.16700 0.80840 0.33730 0.04700
C 	C 	0.12610 0.87923 0.35080 0.00300
C 	C 	0.09854 0.92350 0.33092 -0.02400
H 	H 	0.08230 0.95110 0.34770 0.05700
C 	C 	0.09520 0.92651 0.28650 -0.10500
H 	H 	0.07670 0.95630 0.27390 0.07300
C 	C 	0.13130 0.55260 0.14180 0.00700
H 	H 	0.09600 0.54630 0.13060 0.03200
C 	C 	0.16570 0.51260 0.15573 0.01000
H 	H 	0.15950 0.47450 0.15560 0.04000
C 	C 	0.20350 0.59440 0.16302 0.10700
H 	H 	0.22940 0.62180 0.16930 -0.00800
C 	C 	0.26140 0.51420 0.18950 0.03600
C 	C 	0.27700 0.51990 0.23370 -0.02300
N 	N 	0.06295 0.86665 0.19159 -0.09200
N 	N 	0.15494 0.60373 0.14632 -0.26200
N 	N 	0.21130 0.53969 0.17005 -0.12600
O 	O 	0.98544 0.99332 0.18426 -0.27300
O 	O 	0.03657 0.94910 0.13589 -0.43600
O 	O 	0.09683 0.79118 0.13267 -0.49400
O 	O 	0.09613 0.72190 0.17895 -0.46400
Zn	Zn	0.62411 0.17755 0.62783 1.21900
C 	C 	0.51187 0.45184 0.67220 0.39000
C 	C 	0.51390 0.40170 0.70141 -0.37900
H 	H 	0.51560 0.41380 0.73120 0.16700
H 	H 	0.48030 0.38000 0.69770 0.14800
C 	C 	0.58532 0.27163 0.66888 0.42400
C 	C 	0.55550 0.30775 0.70103 -0.39100
H 	H 	0.51610 0.29890 0.70060 0.15000
H 	H 	0.56940 0.29990 0.72980 0.16600
C 	C 	0.61444 0.38922 0.71130 -0.18100
H 	H 	0.61790 0.42790 0.70290 0.07300
H 	H 	0.64590 0.36950 0.69910 0.06800
C 	C 	0.61874 0.38606 0.76025 0.09600
C 	C 	0.64600 0.34210 0.78025 -0.11100
H 	H 	0.66250 0.31470 0.76340 0.07000
C 	C 	0.64910 0.33860 0.82471 -0.02300
H 	H 	0.66700 0.30840 0.83730 0.04700
C 	C 	0.62610 0.37923 0.85080 0.00300
C 	C 	0.59854 0.42350 0.83092 -0.02500
H 	H 	0.58230 0.45110 0.84770 0.05700
C 	C 	0.59520 0.42651 0.78650 -0.10500
H 	H 	0.57670 0.45630 0.77390 0.07300
C 	C 	0.63130 0.05260 0.64180 0.00700
H 	H 	0.59600 0.04630 0.63060 0.03200
C 	C 	0.66570 0.01260 0.65573 0.00800
H 	H 	0.65950 0.97450 0.65560 0.04100
C 	C 	0.70350 0.09440 0.66302 0.10700
H 	H 	0.72940 0.12180 0.66930 -0.00800
C 	C 	0.76140 0.01420 0.68950 0.03600
C 	C 	0.77700 0.01990 0.73370 -0.02300
N 	N 	0.56295 0.36665 0.69159 -0.09200
N 	N 	0.65494 0.10373 0.64632 -0.26200
N 	N 	0.71130 0.03969 0.67005 -0.12600
O 	O 	0.48544 0.49332 0.68426 -0.27300
O 	O 	0.53657 0.44910 0.63589 -0.43600
O 	O 	0.59683 0.29118 0.63267 -0.49400
O 	O 	0.59613 0.22190 0.67895 -0.46400
Zn	Zn	0.42755 0.87411 0.87783 1.21900
C 	C 	0.70184 0.76187 0.92220 0.39000
C 	C 	0.65170 0.76390 0.95141 -0.37900
H 	H 	0.66380 0.76560 0.98120 0.16700
H 	H 	0.63000 0.73030 0.94770 0.14800
C 	C 	0.52163 0.83532 0.91888 0.42400
C 	C 	0.55775 0.80550 0.95103 -0.39100
H 	H 	0.54890 0.76610 0.95060 0.15000
H 	H 	0.54990 0.81940 0.97980 0.16600
C 	C 	0.63922 0.86444 0.96130 -0.18000
H 	H 	0.67790 0.86790 0.95290 0.07300
H 	H 	0.61950 0.89590 0.94910 0.06800
C 	C 	0.63606 0.86874 0.01025 0.09600
C 	C 	0.59210 0.89600 0.03025 -0.11000
H 	H 	0.56470 0.91250 0.01340 0.07000
C 	C 	0.58860 0.89910 0.07471 -0.02300
H 	H 	0.55840 0.91700 0.08730 0.04700
C 	C 	0.62923 0.87610 0.10080 0.00300
C 	C 	0.67350 0.84854 0.08092 -0.02500
H 	H 	0.70110 0.83230 0.09770 0.05700
C 	C 	0.67651 0.84520 0.03650 -0.10400
H 	H 	0.70630 0.82670 0.02390 0.07300
C 	C 	0.30260 0.88130 0.89180 0.00700
H 	H 	0.29630 0.84600 0.88060 0.03200
C 	C 	0.26260 0.91570 0.90573 0.01000
H 	H 	0.22450 0.90950 0.90560 0.04000
C 	C 	0.34440 0.95350 0.91302 0.10700
H 	H 	0.37180 0.97940 0.91930 -0.00800
C 	C 	0.26420 0.01140 0.93950 0.03600
C 	C 	0.26990 0.02700 0.98370 -0.02300
N 	N 	0.61665 0.81295 0.94159 -0.09200
N 	N 	0.35373 0.90494 0.89632 -0.26200
N 	N 	0.28969 0.96130 0.92005 -0.12600
O 	O 	0.74332 0.73544 0.93426 -0.27300
O 	O 	0.69910 0.78657 0.88589 -0.43600
O 	O 	0.54118 0.84683 0.88267 -0.49400
O 	O 	0.47190 0.84613 0.92895 -0.46400
Zn	Zn	0.92755 0.37411 0.37783 1.21900
C 	C 	0.20184 0.26187 0.42220 0.39000
C 	C 	0.15170 0.26390 0.45141 -0.37900
H 	H 	0.16380 0.26560 0.48120 0.16700
H 	H 	0.13000 0.23030 0.44770 0.14800
C 	C 	0.02163 0.33532 0.41888 0.42400
C 	C 	0.05775 0.30550 0.45103 -0.39100
H 	H 	0.04890 0.26610 0.45060 0.15000
H 	H 	0.04990 0.31940 0.47980 0.16600
C 	C 	0.13922 0.36444 0.46130 -0.18100
H 	H 	0.17790 0.36790 0.45290 0.07300
H 	H 	0.11950 0.39590 0.44910 0.06800
C 	C 	0.13606 0.36874 0.51025 0.09600
C 	C 	0.09210 0.39600 0.53025 -0.11100
H 	H 	0.06470 0.41250 0.51340 0.07000
C 	C 	0.08860 0.39910 0.57471 -0.02300
H 	H 	0.05840 0.41700 0.58730 0.04700
C 	C 	0.12923 0.37610 0.60080 0.00300
C 	C 	0.17350 0.34854 0.58092 -0.02400
H 	H 	0.20110 0.33230 0.59770 0.05700
C 	C 	0.17651 0.34520 0.53650 -0.10500
H 	H 	0.20630 0.32670 0.52390 0.07300
C 	C 	0.80260 0.38130 0.39180 0.00700
H 	H 	0.79630 0.34600 0.38060 0.03200
C 	C 	0.76260 0.41570 0.40573 0.01000
H 	H 	0.72450 0.40950 0.40560 0.04000
C 	C 	0.84440 0.45350 0.41302 0.10700
H 	H 	0.87180 0.47940 0.41930 -0.00800
C 	C 	0.76420 0.51140 0.43950 0.03600
C 	C 	0.76990 0.52700 0.48370 -0.02300
N 	N 	0.11665 0.31295 0.44159 -0.09200
N 	N 	0.85373 0.40494 0.39632 -0.26200
N 	N 	0.78969 0.46130 0.42005 -0.12600
O 	O 	0.24332 0.23544 0.43426 -0.27300
O 	O 	0.19910 0.28657 0.38589 -0.43600
O 	O 	0.04118 0.34683 0.38267 -0.49400
O 	O 	0.97190 0.34613 0.42895 -0.46400
Zn	Zn	0.07245 0.12589 0.37783 1.21900
C 	C 	0.79816 0.23813 0.42220 0.39000
C 	C 	0.84830 0.23610 0.45141 -0.37900
H 	H 	0.83620 0.23440 0.48120 0.16700
H 	H 	0.87000 0.26970 0.44770 0.14800
C 	C 	0.97837 0.16468 0.41888 0.42400
C 	C 	0.94225 0.19450 0.45103 -0.39100
H 	H 	0.95110 0.23390 0.45060 0.15000
H 	H 	0.95010 0.18060 0.47980 0.16500
C 	C 	0.86078 0.13556 0.46130 -0.18100
H 	H 	0.82210 0.13210 0.45290 0.07300
H 	H 	0.88050 0.10410 0.44910 0.06800
C 	C 	0.86394 0.13126 0.51025 0.09600
C 	C 	0.90790 0.10400 0.53025 -0.11100
H 	H 	0.93530 0.08750 0.51340 0.07000
C 	C 	0.91140 0.10090 0.57471 -0.02300
H 	H 	0.94160 0.08300 0.58730 0.04700
C 	C 	0.87077 0.12390 0.60080 0.00300
C 	C 	0.82650 0.15146 0.58092 -0.02400
H 	H 	0.79890 0.16770 0.59770 0.05700
C 	C 	0.82349 0.15480 0.53650 -0.10500
H 	H 	0.79370 0.17330 0.52390 0.07300
C 	C 	0.19740 0.11870 0.39180 0.00700
H 	H 	0.20370 0.15400 0.38060 0.03200
C 	C 	0.23740 0.08430 0.40573 0.01000
H 	H 	0.27550 0.09050 0.40560 0.04000
C 	C 	0.15560 0.04650 0.41302 0.10700
H 	H 	0.12820 0.02060 0.41930 -0.00800
C 	C 	0.23580 0.98860 0.43950 0.03600
C 	C 	0.23010 0.97300 0.48370 -0.02300
N 	N 	0.88335 0.18705 0.44159 -0.09200
N 	N 	0.14627 0.09506 0.39632 -0.26200
N 	N 	0.21031 0.03870 0.42005 -0.12600
O 	O 	0.75668 0.26456 0.43426 -0.27300
O 	O 	0.80090 0.21343 0.38589 -0.43600
O 	O 	0.95882 0.15317 0.38267 -0.49400
O 	O 	0.02810 0.15387 0.42895 -0.46400
Zn	Zn	0.57245 0.62589 0.87783 1.21900
C 	C 	0.29816 0.73813 0.92220 0.39000
C 	C 	0.34830 0.73610 0.95141 -0.37900
H 	H 	0.33620 0.73440 0.98120 0.16700
H 	H 	0.37000 0.76970 0.94770 0.14800
C 	C 	0.47837 0.66468 0.91888 0.42400
C 	C 	0.44225 0.69450 0.95103 -0.39100
H 	H 	0.45110 0.73390 0.95060 0.15000
H 	H 	0.45010 0.68060 0.97980 0.16600
C 	C 	0.36078 0.63556 0.96130 -0.18000
H 	H 	0.32210 0.63210 0.95290 0.07300
H 	H 	0.38050 0.60410 0.94910 0.06800
C 	C 	0.36394 0.63126 0.01025 0.09600
C 	C 	0.40790 0.60400 0.03025 -0.11000
H 	H 	0.43530 0.58750 0.01340 0.07000
C 	C 	0.41140 0.60090 0.07471 -0.02300
H 	H 	0.44160 0.58300 0.08730 0.04700
C 	C 	0.37077 0.62390 0.10080 0.00300
C 	C 	0.32650 0.65146 0.08092 -0.02500
H 	H 	0.29890 0.66770 0.09770 0.05700
C 	C 	0.32349 0.65480 0.03650 -0.10400
H 	H 	0.29370 0.67330 0.02390 0.07300
C 	C 	0.69740 0.61870 0.89180 0.00700
H 	H 	0.70370 0.65400 0.88060 0.03200
C 	C 	0.73740 0.58430 0.90573 0.01000
H 	H 	0.77550 0.59050 0.90560 0.04000
C 	C 	0.65560 0.54650 0.91302 0.10700
H 	H 	0.62820 0.52060 0.91930 -0.00800
C 	C 	0.73580 0.48860 0.93950 0.03600
C 	C 	0.73010 0.47300 0.98370 -0.02300
N 	N 	0.38335 0.68705 0.94159 -0.09200
N 	N 	0.64627 0.59506 0.89632 -0.26200
N 	N 	0.71031 0.53870 0.92005 -0.12600
O 	O 	0.25668 0.76456 0.93426 -0.27300
O 	O 	0.30090 0.71343 0.88589 -0.43600
O 	O 	0.45882 0.65317 0.88267 -0.49400
O 	O 	0.52810 0.65387 0.92895 -0.46400
Zn	Zn	0.87589 0.67755 0.62783 1.21900
C 	C 	0.98813 0.95184 0.67220 0.39000
C 	C 	0.98610 0.90170 0.70141 -0.37900
H 	H 	0.98440 0.91380 0.73120 0.16700
H 	H 	0.01970 0.88000 0.69770 0.14800
C 	C 	0.91468 0.77163 0.66888 0.42400
C 	C 	0.94450 0.80775 0.70103 -0.39100
H 	H 	0.98390 0.79890 0.70060 0.15000
H 	H 	0.93060 0.79990 0.72980 0.16600
C 	C 	0.88556 0.88922 0.71130 -0.18100
H 	H 	0.88210 0.92790 0.70290 0.07300
H 	H 	0.85410 0.86950 0.69910 0.06800
C 	C 	0.88126 0.88606 0.76025 0.09600
C 	C 	0.85400 0.84210 0.78025 -0.11100
H 	H 	0.83750 0.81470 0.76340 0.07000
C 	C 	0.85090 0.83860 0.82471 -0.02300
H 	H 	0.83300 0.80840 0.83730 0.04700
C 	C 	0.87390 0.87923 0.85080 0.00300
C 	C 	0.90146 0.92350 0.83092 -0.02500
H 	H 	0.91770 0.95110 0.84770 0.05700
C 	C 	0.90480 0.92651 0.78650 -0.10500
H 	H 	0.92330 0.95630 0.77390 0.07300
C 	C 	0.86870 0.55260 0.64180 0.00700
H 	H 	0.90400 0.54630 0.63060 0.03200
C 	C 	0.83430 0.51260 0.65573 0.01000
H 	H 	0.84050 0.47450 0.65560 0.04000
C 	C 	0.79650 0.59440 0.66302 0.10700
H 	H 	0.77060 0.62180 0.66930 -0.00800
C 	C 	0.73860 0.51420 0.68950 0.03600
C 	C 	0.72300 0.51990 0.73370 -0.02300
N 	N 	0.93705 0.86665 0.69159 -0.09200
N 	N 	0.84506 0.60373 0.64632 -0.26200
N 	N 	0.78870 0.53969 0.67005 -0.12600
O 	O 	0.01456 0.99332 0.68426 -0.27300
O 	O 	0.96343 0.94910 0.63589 -0.43600
O 	O 	0.90317 0.79118 0.63267 -0.49400
O 	O 	0.90387 0.72190 0.67895 -0.46400
Zn	Zn	0.37589 0.17755 0.12783 1.21900
C 	C 	0.48813 0.45184 0.17220 0.39000
C 	C 	0.48610 0.40170 0.20141 -0.37900
H 	H 	0.48440 0.41380 0.23120 0.16700
H 	H 	0.51970 0.38000 0.19770 0.14800
C 	C 	0.41468 0.27163 0.16888 0.42400
C 	C 	0.44450 0.30775 0.20103 -0.39100
H 	H 	0.48390 0.29890 0.20060 0.15000
H 	H 	0.43060 0.29990 0.22980 0.16600
C 	C 	0.38556 0.38922 0.21130 -0.18100
H 	H 	0.38210 0.42790 0.20290 0.07300
H 	H 	0.35410 0.36950 0.19910 0.06800
C 	C 	0.38126 0.38606 0.26025 0.09600
C 	C 	0.35400 0.34210 0.28025 -0.11100
H 	H 	0.33750 0.31470 0.26340 0.07000
C 	C 	0.35090 0.33860 0.32471 -0.02300
H 	H 	0.33300 0.30840 0.33730 0.04700
C 	C 	0.37390 0.37923 0.35080 0.00300
C 	C 	0.40146 0.42350 0.33092 -0.02400
H 	H 	0.41770 0.45110 0.34770 0.05700
C 	C 	0.40480 0.42651 0.28650 -0.10500
H 	H 	0.42330 0.45630 0.27390 0.07300
C 	C 	0.36870 0.05260 0.14180 0.00700
H 	H 	0.40400 0.04630 0.13060 0.03200
C 	C 	0.33430 0.01260 0.15573 0.00800
H 	H 	0.34050 0.97450 0.15560 0.04100
C 	C 	0.29650 0.09440 0.16302 0.10700
H 	H 	0.27060 0.12180 0.16930 -0.00800
C 	C 	0.23860 0.01420 0.18950 0.03600
C 	C 	0.22300 0.01990 0.23370 -0.02300
N 	N 	0.43705 0.36665 0.19159 -0.09200
N 	N 	0.34506 0.10373 0.14632 -0.26200
N 	N 	0.28870 0.03969 0.17005 -0.12600
O 	O 	0.51456 0.49332 0.18426 -0.27300
O 	O 	0.46343 0.44910 0.13589 -0.43600
O 	O 	0.40317 0.29118 0.13267 -0.49400
O 	O 	0.40387 0.22190 0.17895 -0.46400
Zn	Zn	0.62411 0.32245 0.12783 1.21900
C 	C 	0.51187 0.04816 0.17220 0.39000
C 	C 	0.51390 0.09830 0.20141 -0.37900
H 	H 	0.51560 0.08620 0.23120 0.16700
H 	H 	0.48030 0.12000 0.19770 0.14800
C 	C 	0.58532 0.22837 0.16888 0.42400
C 	C 	0.55550 0.19225 0.20103 -0.39100
H 	H 	0.51610 0.20110 0.20060 0.15000
H 	H 	0.56940 0.20010 0.22980 0.16600
C 	C 	0.61444 0.11078 0.21130 -0.18100
H 	H 	0.61790 0.07210 0.20290 0.07200
H 	H 	0.64590 0.13050 0.19910 0.06800
C 	C 	0.61874 0.11394 0.26025 0.09600
C 	C 	0.64600 0.15790 0.28025 -0.11100
H 	H 	0.66250 0.18530 0.26340 0.07000
C 	C 	0.64910 0.16140 0.32471 -0.02300
H 	H 	0.66700 0.19160 0.33730 0.04700
C 	C 	0.62610 0.12077 0.35080 0.00300
C 	C 	0.59854 0.07650 0.33092 -0.02500
H 	H 	0.58230 0.04890 0.34770 0.05700
C 	C 	0.59520 0.07349 0.28650 -0.10500
H 	H 	0.57670 0.04370 0.27390 0.07300
C 	C 	0.63130 0.44740 0.14180 0.00700
H 	H 	0.59600 0.45370 0.13060 0.03200
C 	C 	0.66570 0.48740 0.15573 0.01000
H 	H 	0.65950 0.52550 0.15560 0.04000
C 	C 	0.70350 0.40560 0.16302 0.10700
H 	H 	0.72940 0.37820 0.16930 -0.00800
C 	C 	0.76140 0.48580 0.18950 0.03600
C 	C 	0.77700 0.48010 0.23370 -0.02300
N 	N 	0.56295 0.13335 0.19159 -0.09200
N 	N 	0.65494 0.39627 0.14632 -0.26200
N 	N 	0.71130 0.46031 0.17005 -0.12600
O 	O 	0.48544 0.00668 0.18426 -0.27300
O 	O 	0.53657 0.05090 0.13589 -0.43700
O 	O 	0.59683 0.20882 0.13267 -0.49400
O 	O 	0.59613 0.27810 0.17895 -0.46400
Zn	Zn	0.12411 0.82245 0.62783 1.21900
C 	C 	0.01187 0.54816 0.67220 0.39000
C 	C 	0.01390 0.59830 0.70141 -0.37900
H 	H 	0.01560 0.58620 0.73120 0.16700
H 	H 	0.98030 0.62000 0.69770 0.14800
C 	C 	0.08532 0.72837 0.66888 0.42400
C 	C 	0.05550 0.69225 0.70103 -0.39100
H 	H 	0.01610 0.70110 0.70060 0.15000
H 	H 	0.06940 0.70010 0.72980 0.16600
C 	C 	0.11444 0.61078 0.71130 -0.18100
H 	H 	0.11790 0.57210 0.70290 0.07300
H 	H 	0.14590 0.63050 0.69910 0.06800
C 	C 	0.11874 0.61394 0.76025 0.09600
C 	C 	0.14600 0.65790 0.78025 -0.11100
H 	H 	0.16250 0.68530 0.76340 0.07000
C 	C 	0.14910 0.66140 0.82471 -0.02300
H 	H 	0.16700 0.69160 0.83730 0.04700
C 	C 	0.12610 0.62077 0.85080 0.00300
C 	C 	0.09854 0.57650 0.83092 -0.02500
H 	H 	0.08230 0.54890 0.84770 0.05700
C 	C 	0.09520 0.57349 0.78650 -0.10500
H 	H 	0.07670 0.54370 0.77390 0.07300
C 	C 	0.13130 0.94740 0.64180 0.00600
H 	H 	0.09600 0.95370 0.63060 0.03300
C 	C 	0.16570 0.98740 0.65573 0.01000
H 	H 	0.15950 0.02550 0.65560 0.04000
C 	C 	0.20350 0.90560 0.66302 0.10700
H 	H 	0.22940 0.87820 0.66930 -0.00800
C 	C 	0.26140 0.98580 0.68950 0.03600
C 	C 	0.27700 0.98010 0.73370 -0.02300
N 	N 	0.06295 0.63335 0.69159 -0.09200
N 	N 	0.15494 0.89627 0.64632 -0.26200
N 	N 	0.21130 0.96031 0.67005 -0.12600
O 	O 	0.98544 0.50668 0.68426 -0.27300
O 	O 	0.03657 0.55090 0.63589 -0.43600
O 	O 	0.09683 0.70882 0.63267 -0.49400
O 	O 	0.09613 0.77810 0.67895 -0.46400
Zn	Zn	0.07245 0.87411 0.12217 1.21900
C 	C 	0.79816 0.76187 0.07780 0.39000
C 	C 	0.84830 0.76390 0.04859 -0.37900
H 	H 	0.83620 0.76560 0.01880 0.16600
H 	H 	0.87000 0.73030 0.05230 0.14800
C 	C 	0.97837 0.83532 0.08112 0.42400
C 	C 	0.94225 0.80550 0.04897 -0.39100
H 	H 	0.95110 0.76610 0.04940 0.15000
H 	H 	0.95010 0.81940 0.02020 0.16500
C 	C 	0.86078 0.86444 0.03870 -0.18100
H 	H 	0.82210 0.86790 0.04710 0.07300
H 	H 	0.88050 0.89590 0.05090 0.06800
C 	C 	0.86394 0.86874 0.98975 0.09700
C 	C 	0.90790 0.89600 0.96975 -0.11100
H 	H 	0.93530 0.91250 0.98660 0.07100
C 	C 	0.91140 0.89910 0.92529 -0.02200
H 	H 	0.94160 0.91700 0.91270 0.04700
C 	C 	0.87077 0.87610 0.89920 0.00300
C 	C 	0.82650 0.84854 0.91908 -0.02400
H 	H 	0.79890 0.83230 0.90230 0.05700
C 	C 	0.82349 0.84520 0.96350 -0.10500
H 	H 	0.79370 0.82670 0.97610 0.07400
C 	C 	0.19740 0.88130 0.10820 0.00700
H 	H 	0.20370 0.84600 0.11940 0.03200
C 	C 	0.23740 0.91570 0.09427 0.01000
H 	H 	0.27550 0.90950 0.09440 0.04000
C 	C 	0.15560 0.95350 0.08698 0.10700
H 	H 	0.12820 0.97940 0.08070 -0.00800
C 	C 	0.23580 0.01140 0.06050 0.03600
C 	C 	0.23010 0.02700 0.01630 -0.02400
N 	N 	0.88335 0.81295 0.05841 -0.09200
N 	N 	0.14627 0.90494 0.10368 -0.26200
N 	N 	0.21031 0.96130 0.07995 -0.12600
O 	O 	0.75668 0.73544 0.06574 -0.27300
O 	O 	0.80090 0.78657 0.11411 -0.43600
O 	O 	0.95882 0.84683 0.11733 -0.49400
O 	O 	0.02810 0.84613 0.07105 -0.46400
Zn	Zn	0.57245 0.37411 0.62216 1.21900
C 	C 	0.29816 0.26187 0.57780 0.39000
C 	C 	0.34830 0.26390 0.54859 -0.37900
H 	H 	0.33620 0.26560 0.51880 0.16700
H 	H 	0.37000 0.23030 0.55230 0.14800
C 	C 	0.47837 0.33532 0.58112 0.42400
C 	C 	0.44225 0.30550 0.54897 -0.39100
H 	H 	0.45110 0.26610 0.54940 0.15000
H 	H 	0.45010 0.31940 0.52020 0.16600
C 	C 	0.36078 0.36444 0.53870 -0.18100
H 	H 	0.32210 0.36790 0.54710 0.07300
H 	H 	0.38050 0.39590 0.55090 0.06800
C 	C 	0.36394 0.36874 0.48975 0.09600
C 	C 	0.40790 0.39600 0.46975 -0.11100
H 	H 	0.43530 0.41250 0.48660 0.07000
C 	C 	0.41140 0.39910 0.42529 -0.02300
H 	H 	0.44160 0.41700 0.41270 0.04700
C 	C 	0.37077 0.37610 0.39920 0.00300
C 	C 	0.32650 0.34854 0.41908 -0.02400
H 	H 	0.29890 0.33230 0.40230 0.05700
C 	C 	0.32349 0.34520 0.46350 -0.10500
H 	H 	0.29370 0.32670 0.47610 0.07300
C 	C 	0.69740 0.38130 0.60820 0.00700
H 	H 	0.70370 0.34600 0.61940 0.03200
C 	C 	0.73740 0.41570 0.59427 0.01000
H 	H 	0.77550 0.40950 0.59440 0.04000
C 	C 	0.65560 0.45350 0.58698 0.10700
H 	H 	0.62820 0.47940 0.58070 -0.00800
C 	C 	0.73580 0.51140 0.56050 0.03600
C 	C 	0.73010 0.52700 0.51630 -0.02300
N 	N 	0.38335 0.31295 0.55841 -0.09200
N 	N 	0.64627 0.40494 0.60368 -0.26200
N 	N 	0.71031 0.46130 0.57995 -0.12600
O 	O 	0.25668 0.23544 0.56574 -0.27300
O 	O 	0.30090 0.28657 0.61411 -0.43600
O 	O 	0.45882 0.34683 0.61733 -0.49400
O 	O 	0.52810 0.34613 0.57105 -0.46400
Zn	Zn	0.42755 0.12589 0.62216 1.21900
C 	C 	0.70184 0.23813 0.57780 0.39000
C 	C 	0.65170 0.23610 0.54859 -0.37900
H 	H 	0.66380 0.23440 0.51880 0.16700
H 	H 	0.63000 0.26970 0.55230 0.14800
C 	C 	0.52163 0.16468 0.58112 0.42400
C 	C 	0.55775 0.19450 0.54897 -0.39100
H 	H 	0.54890 0.23390 0.54940 0.15000
H 	H 	0.54990 0.18060 0.52020 0.16600
C 	C 	0.63922 0.13556 0.53870 -0.18100
H 	H 	0.67790 0.13210 0.54710 0.07300
H 	H 	0.61950 0.10410 0.55090 0.06800
C 	C 	0.63606 0.13126 0.48975 0.09600
C 	C 	0.59210 0.10400 0.46975 -0.11100
H 	H 	0.56470 0.08750 0.48660 0.07000
C 	C 	0.58860 0.10090 0.42529 -0.02300
H 	H 	0.55840 0.08300 0.41270 0.04700
C 	C 	0.62923 0.12390 0.39920 0.00300
C 	C 	0.67350 0.15146 0.41908 -0.02400
H 	H 	0.70110 0.16770 0.40230 0.05700
C 	C 	0.67651 0.15480 0.46350 -0.10500
H 	H 	0.70630 0.17330 0.47610 0.07300
C 	C 	0.30260 0.11870 0.60820 0.00700
H 	H 	0.29630 0.15400 0.61940 0.03200
C 	C 	0.26260 0.08430 0.59427 0.01000
H 	H 	0.22450 0.09050 0.59440 0.04000
C 	C 	0.34440 0.04650 0.58698 0.10700
H 	H 	0.37180 0.02060 0.58070 -0.00800
C 	C 	0.26420 0.98860 0.56050 0.03600
C 	C 	0.26990 0.97300 0.51630 -0.02300
N 	N 	0.61665 0.18705 0.55841 -0.09200
N 	N 	0.35373 0.09506 0.60368 -0.26200
N 	N 	0.28969 0.03870 0.57995 -0.12600
O 	O 	0.74332 0.26456 0.56574 -0.27300
O 	O 	0.69910 0.21343 0.61411 -0.43600
O 	O 	0.54118 0.15317 0.61733 -0.49400
O 	O 	0.47190 0.15387 0.57105 -0.46400
Zn	Zn	0.92755 0.62589 0.12217 1.21900
C 	C 	0.20184 0.73813 0.07780 0.39000
C 	C 	0.15170 0.73610 0.04859 -0.37900
H 	H 	0.16380 0.73440 0.01880 0.16600
H 	H 	0.13000 0.76970 0.05230 0.14800
C 	C 	0.02163 0.66468 0.08112 0.42400
C 	C 	0.05775 0.69450 0.04897 -0.39100
H 	H 	0.04890 0.73390 0.04940 0.15000
H 	H 	0.04990 0.68060 0.02020 0.16500
C 	C 	0.13922 0.63556 0.03870 -0.18100
H 	H 	0.17790 0.63210 0.04710 0.07300
H 	H 	0.11950 0.60410 0.05090 0.06800
C 	C 	0.13606 0.63126 0.98975 0.09700
C 	C 	0.09210 0.60400 0.96975 -0.11100
H 	H 	0.06470 0.58750 0.98660 0.07100
C 	C 	0.08860 0.60090 0.92529 -0.02200
H 	H 	0.05840 0.58300 0.91270 0.04700
C 	C 	0.12923 0.62390 0.89920 0.00300
C 	C 	0.17350 0.65146 0.91908 -0.02400
H 	H 	0.20110 0.66770 0.90230 0.05700
C 	C 	0.17651 0.65480 0.96350 -0.10500
H 	H 	0.20630 0.67330 0.97610 0.07400
C 	C 	0.80260 0.61870 0.10820 0.00700
H 	H 	0.79630 0.65400 0.11940 0.03200
C 	C 	0.76260 0.58430 0.09427 0.01000
H 	H 	0.72450 0.59050 0.09440 0.04000
C 	C 	0.84440 0.54650 0.08698 0.10700
H 	H 	0.87180 0.52060 0.08070 -0.00800
C 	C 	0.76420 0.48860 0.06050 0.03600
C 	C 	0.76990 0.47300 0.01630 -0.02400
N 	N 	0.11665 0.68705 0.05841 -0.09200
N 	N 	0.85373 0.59506 0.10368 -0.26200
N 	N 	0.78969 0.53870 0.07995 -0.12600
O 	O 	0.24332 0.76456 0.06574 -0.27300
O 	O 	0.19910 0.71343 0.11411 -0.43600
O 	O 	0.04118 0.65317 0.11733 -0.49400
O 	O 	0.97190 0.65387 0.07105 -0.46400
Zn	Zn	0.62411 0.67755 0.37216 1.21900
C 	C 	0.51187 0.95184 0.32780 0.39000
C 	C 	0.51390 0.90170 0.29859 -0.37900
H 	H 	0.51560 0.91380 0.26880 0.16700
H 	H 	0.48030 0.88000 0.30230 0.14800
C 	C 	0.58532 0.77163 0.33112 0.42400
C 	C 	0.55550 0.80775 0.29897 -0.39100
H 	H 	0.51610 0.79890 0.29940 0.15000
H 	H 	0.56940 0.79990 0.27020 0.16600
C 	C 	0.61444 0.88922 0.28870 -0.18100
H 	H 	0.61790 0.92790 0.29710 0.07300
H 	H 	0.64590 0.86950 0.30090 0.06800
C 	C 	0.61874 0.88606 0.23975 0.09600
C 	C 	0.64600 0.84210 0.21975 -0.11100
H 	H 	0.66250 0.81470 0.23660 0.07000
C 	C 	0.64910 0.83860 0.17529 -0.02200
H 	H 	0.66700 0.80840 0.16270 0.04700
C 	C 	0.62610 0.87923 0.14920 0.00300
C 	C 	0.59854 0.92350 0.16908 -0.02400
H 	H 	0.58230 0.95110 0.15230 0.05700
C 	C 	0.59520 0.92651 0.21350 -0.10500
H 	H 	0.57670 0.95630 0.22610 0.07300
C 	C 	0.63130 0.55260 0.35820 0.00700
H 	H 	0.59600 0.54630 0.36940 0.03200
C 	C 	0.66570 0.51260 0.34427 0.01000
H 	H 	0.65950 0.47450 0.34440 0.04000
C 	C 	0.70350 0.59440 0.33698 0.10700
H 	H 	0.72940 0.62180 0.33070 -0.00800
C 	C 	0.76140 0.51420 0.31050 0.03600
C 	C 	0.77700 0.51990 0.26630 -0.02300
N 	N 	0.56295 0.86665 0.30841 -0.09200
N 	N 	0.65494 0.60373 0.35368 -0.26200
N 	N 	0.71130 0.53969 0.32995 -0.12600
O 	O 	0.48544 0.99332 0.31574 -0.27300
O 	O 	0.53657 0.94910 0.36411 -0.43600
O 	O 	0.59683 0.79118 0.36733 -0.49400
O 	O 	0.59613 0.72190 0.32105 -0.46400
Zn	Zn	0.12411 0.17755 0.87216 1.21900
C 	C 	0.01187 0.45184 0.82780 0.39000
C 	C 	0.01390 0.40170 0.79859 -0.37900
H 	H 	0.01560 0.41380 0.76880 0.16700
H 	H 	0.98030 0.38000 0.80230 0.14800
C 	C 	0.08532 0.27163 0.83112 0.42400
C 	C 	0.05550 0.30775 0.79897 -0.39100
H 	H 	0.01610 0.29890 0.79940 0.15000
H 	H 	0.06940 0.29990 0.77020 0.16600
C 	C 	0.11444 0.38922 0.78870 -0.18100
H 	H 	0.11790 0.42790 0.79710 0.07300
H 	H 	0.14590 0.36950 0.80090 0.06800
C 	C 	0.11874 0.38606 0.73975 0.09600
C 	C 	0.14600 0.34210 0.71975 -0.11100
H 	H 	0.16250 0.31470 0.73660 0.07000
C 	C 	0.14910 0.33860 0.67529 -0.02300
H 	H 	0.16700 0.30840 0.66270 0.04700
C 	C 	0.12610 0.37923 0.64920 0.00300
C 	C 	0.09854 0.42350 0.66908 -0.02400
H 	H 	0.08230 0.45110 0.65230 0.05700
C 	C 	0.09520 0.42651 0.71350 -0.10500
H 	H 	0.07670 0.45630 0.72610 0.07300
C 	C 	0.13130 0.05260 0.85820 0.00700
H 	H 	0.09600 0.04630 0.86940 0.03200
C 	C 	0.16570 0.01260 0.84427 0.00800
H 	H 	0.15950 0.97450 0.84440 0.04100
C 	C 	0.20350 0.09440 0.83698 0.10700
H 	H 	0.22940 0.12180 0.83070 -0.00800
C 	C 	0.26140 0.01420 0.81050 0.03600
C 	C 	0.27700 0.01990 0.76630 -0.02300
N 	N 	0.06295 0.36665 0.80841 -0.09200
N 	N 	0.15494 0.10373 0.85368 -0.26200
N 	N 	0.21130 0.03969 0.82995 -0.12600
O 	O 	0.98544 0.49332 0.81574 -0.27300
O 	O 	0.03657 0.44910 0.86411 -0.43600
O 	O 	0.09683 0.29118 0.86733 -0.49400
O 	O 	0.09613 0.22190 0.82105 -0.46400
Zn	Zn	0.87589 0.32245 0.87216 1.21900
C 	C 	0.98813 0.04816 0.82780 0.39000
C 	C 	0.98610 0.09830 0.79859 -0.37900
H 	H 	0.98440 0.08620 0.76880 0.16700
H 	H 	0.01970 0.12000 0.80230 0.14800
C 	C 	0.91468 0.22837 0.83112 0.42400
C 	C 	0.94450 0.19225 0.79897 -0.39100
H 	H 	0.98390 0.20110 0.79940 0.15000
H 	H 	0.93060 0.20010 0.77020 0.16600
C 	C 	0.88556 0.11078 0.78870 -0.18100
H 	H 	0.88210 0.07210 0.79710 0.07200
H 	H 	0.85410 0.13050 0.80090 0.06800
C 	C 	0.88126 0.11394 0.73975 0.09600
C 	C 	0.85400 0.15790 0.71975 -0.11100
H 	H 	0.83750 0.18530 0.73660 0.07000
C 	C 	0.85090 0.16140 0.67529 -0.02300
H 	H 	0.83300 0.19160 0.66270 0.04700
C 	C 	0.87390 0.12077 0.64920 0.00300
C 	C 	0.90146 0.07650 0.66908 -0.02500
H 	H 	0.91770 0.04890 0.65230 0.05700
C 	C 	0.90480 0.07349 0.71350 -0.10500
H 	H 	0.92330 0.04370 0.72610 0.07300
C 	C 	0.86870 0.44740 0.85820 0.00700
H 	H 	0.90400 0.45370 0.86940 0.03200
C 	C 	0.83430 0.48740 0.84427 0.01000
H 	H 	0.84050 0.52550 0.84440 0.04000
C 	C 	0.79650 0.40560 0.83698 0.10700
H 	H 	0.77060 0.37820 0.83070 -0.00800
C 	C 	0.73860 0.48580 0.81050 0.03600
C 	C 	0.72300 0.48010 0.76630 -0.02300
N 	N 	0.93705 0.13335 0.80841 -0.09200
N 	N 	0.84506 0.39627 0.85368 -0.26200
N 	N 	0.78870 0.46031 0.82995 -0.12600
O 	O 	0.01456 0.00668 0.81574 -0.27300
O 	O 	0.96343 0.05090 0.86411 -0.43700
O 	O 	0.90317 0.20882 0.86733 -0.49400
O 	O 	0.90387 0.27810 0.82105 -0.46400
Zn	Zn	0.37589 0.82245 0.37216 1.21900
C 	C 	0.48813 0.54816 0.32780 0.39000
C 	C 	0.48610 0.59830 0.29859 -0.37900
H 	H 	0.48440 0.58620 0.26880 0.16700
H 	H 	0.51970 0.62000 0.30230 0.14800
C 	C 	0.41468 0.72837 0.33112 0.42400
C 	C 	0.44450 0.69225 0.29897 -0.39100
H 	H 	0.48390 0.70110 0.29940 0.15000
H 	H 	0.43060 0.70010 0.27020 0.16600
C 	C 	0.38556 0.61078 0.28870 -0.18100
H 	H 	0.38210 0.57210 0.29710 0.07300
H 	H 	0.35410 0.63050 0.30090 0.06800
C 	C 	0.38126 0.61394 0.23975 0.09600
C 	C 	0.35400 0.65790 0.21975 -0.11100
H 	H 	0.33750 0.68530 0.23660 0.07000
C 	C 	0.35090 0.66140 0.17529 -0.02200
H 	H 	0.33300 0.69160 0.16270 0.04700
C 	C 	0.37390 0.62077 0.14920 0.00300
C 	C 	0.40146 0.57650 0.16908 -0.02400
H 	H 	0.41770 0.54890 0.15230 0.05700
C 	C 	0.40480 0.57349 0.21350 -0.10500
H 	H 	0.42330 0.54370 0.22610 0.07300
C 	C 	0.36870 0.94740 0.35820 0.00600
H 	H 	0.40400 0.95370 0.36940 0.03300
C 	C 	0.33430 0.98740 0.34427 0.01000
H 	H 	0.34050 0.02550 0.34440 0.04000
C 	C 	0.29650 0.90560 0.33698 0.10700
H 	H 	0.27060 0.87820 0.33070 -0.00800
C 	C 	0.23860 0.98580 0.31050 0.03600
C 	C 	0.22300 0.98010 0.26630 -0.02300
N 	N 	0.43705 0.63335 0.30841 -0.09200
N 	N 	0.34506 0.89627 0.35368 -0.26200
N 	N 	0.28870 0.96031 0.32995 -0.12600
O 	O 	0.51456 0.50668 0.31574 -0.27300
O 	O 	0.46343 0.55090 0.36411 -0.43600
O 	O 	0.40317 0.70882 0.36733 -0.49400
O 	O 	0.40387 0.77810 0.32105 -0.46400
C 	C 	0.75000 0.01550 -0.00000 0.01400
C 	C 	0.25000 0.51550 0.50000 0.01600
C 	C 	0.75000 0.98450 0.50000 0.01600
C 	C 	0.25000 0.48450 -0.00000 0.01500
C 	C 	0.23450 0.50000 0.25000 0.01600
C 	C 	0.73450 -0.00000 0.75000 0.01500
C 	C 	0.26550 0.50000 0.75000 0.01600
C 	C 	0.76550 -0.00000 0.25000 0.01500
C 	C 	0.25000 0.98450 -0.00000 0.01600
C 	C 	0.75000 0.48450 0.50000 0.01600
C 	C 	0.25000 0.01550 0.50000 0.01500
C 	C 	0.75000 0.51550 -0.00000 0.01500
C 	C 	0.76550 0.50000 0.75000 0.01600
C 	C 	0.26550 -0.00000 0.25000 0.01500
C 	C 	0.73450 0.50000 0.25000 0.01600
C 	C 	0.23450 -0.00000 0.75000 0.01500
