data_crystal

_cell_length_a 11.08000
_cell_length_b 16.58300
_cell_length_c 16.60000
_cell_angle_alpha 68.53300
_cell_angle_beta  89.20800
_cell_angle_gamma 89.16700

_symmetry_space_group_name_	'P 1'
_symmetry_space_group_name_H-M	'P 1'

loop_
_symmetry_equiv_pos_as_xyz
  x,y,z

loop_
_atom_site_label
_atom_site_type_symbol
_atom_site_fract_x
_atom_site_fract_y
_atom_site_fract_z
_atom_site_charge
Ni	Ni	0.64014 0.00459 0.49658 1.10100
Ni	Ni	0.49827 0.81226 0.50446 1.07900
O 	O 	0.35680 0.90845 0.62862 -0.41700
C 	C 	0.10820 0.72170 0.48720 -0.02700
H 	H 	0.18120 0.69350 0.48670 0.05000
C 	C 	0.03790 0.52040 0.57120 0.03400
C 	C 	0.00210 0.58570 0.49640 -0.04600
C 	C 	0.03510 0.43100 0.57610 0.03700
C 	C 	0.40810 0.83610 0.66680 0.36800
C 	C 	0.39510 0.79730 0.76300 -0.09500
C 	C 	0.57850 0.55690 0.93980 0.03600
C 	C 	0.42540 0.71100 0.80840 -0.03700
H 	H 	0.44800 0.67610 0.77770 0.05100
C 	C 	0.46060 0.58370 0.94920 -0.04500
O 	O 	0.85730 0.62830 0.80650 -0.15400
C 	C 	0.00040 0.67740 0.49210 0.01600
C 	C 	0.06960 0.36540 0.65540 -0.14300
H 	H 	0.06600 0.30790 0.65990 0.08600
C 	C 	0.07880 0.53520 0.64570 -0.13300
H 	H 	0.08230 0.59190 0.64380 0.08500
O 	O 	0.15700 0.47900 0.79150 -0.13600
C 	C 	0.61870 0.47280 0.99180 0.03100
O 	O 	0.93350 0.48190 0.91000 -0.13600
C 	C 	0.42290 0.67540 0.89770 0.02100
C 	C 	0.35900 0.84850 0.80890 0.02700
H 	H 	0.33940 0.90650 0.77900 0.05000
O 	O 	0.31890 0.80585 0.48530 -0.46500
C 	C 	0.11260 0.47050 0.71850 0.09900
O 	O 	0.13350 0.32280 0.80290 -0.15200
C 	C 	0.38700 0.72960 0.94200 -0.04200
H 	H 	0.38680 0.70760 0.00220 0.06400
C 	C 	0.10700 0.38210 0.72410 0.10800
C 	C 	0.74100 0.44700 0.98330 -0.12400
H 	H 	0.76850 0.39270 0.01940 0.07800
C 	C 	0.66360 0.61180 0.87810 -0.13800
H 	H 	0.64070 0.66830 0.84490 0.08600
C 	C 	0.31260 0.86730 0.95050 0.37400
C 	C 	0.77540 0.58370 0.86730 0.10600
C 	C 	0.81720 0.50090 0.92310 0.09500
C 	C 	0.80880 0.70500 0.73500 -0.26100
H 	H 	0.86720 0.72420 0.68880 0.12100
H 	H 	0.79210 0.75080 0.75610 0.11200
H 	H 	0.73570 0.68960 0.71400 0.11900
O 	O 	0.28310 0.94700 0.90650 -0.48700
H 	H 	0.26250 0.97110 0.93970 0.28000
C 	C 	0.16790 0.56560 0.78880 -0.26700
H 	H 	0.22000 0.59750 0.74150 0.11500
H 	H 	0.20140 0.56470 0.84210 0.12600
H 	H 	0.08970 0.59290 0.78080 0.13300
O 	O 	0.30090 0.83410 0.02900 -0.28200
C 	C 	0.97530 0.39680 0.96300 -0.25800
H 	H 	0.06070 0.39240 0.95480 0.13500
H 	H 	0.93470 0.35430 0.94680 0.12600
H 	H 	0.95840 0.38690 0.02270 0.11900
C 	C 	0.35160 0.81530 0.89830 -0.08700
C 	C 	0.11760 0.23430 0.81540 -0.23200
H 	H 	0.17430 0.21790 0.77980 0.10500
H 	H 	0.03690 0.22590 0.79990 0.10800
H 	H 	0.13080 0.19920 0.87510 0.11100
C 	C 	0.89180 0.72040 0.49380 -0.03300
H 	H 	0.81940 0.69160 0.49730 0.04700
C 	C 	0.88960 0.80550 0.49020 -0.09400
C 	C 	0.99940 0.84820 0.48500 0.03000
H 	H 	0.99880 0.90510 0.48290 0.05000
C 	C 	0.10890 0.80730 0.48310 -0.10300
O 	O 	0.47010 0.79492 0.63160 -0.44300
O 	O 	0.50240 0.93993 0.46513 -0.68700
H 	H 	0.50010 0.96150 0.40170 0.14400
O 	O 	0.22330 0.92800 0.47540 -0.42700
C 	C 	0.77100 0.84820 0.49290 0.34900
O 	O 	0.76990 0.93023 0.46610 -0.40200
O 	O 	0.68290 0.79949 0.52400 -0.44800
C 	C 	0.22590 0.85060 0.48200 0.39400
Ni	Ni	0.35986 0.99541 0.50342 1.10000
Ni	Ni	0.50173 0.18774 0.49554 1.07800
O 	O 	0.64320 0.09155 0.37138 -0.41800
C 	C 	0.89180 0.27830 0.51280 -0.02800
H 	H 	0.81880 0.30650 0.51330 0.04900
C 	C 	0.96210 0.47960 0.42880 0.03300
C 	C 	0.99790 0.41430 0.50360 -0.04700
C 	C 	0.96490 0.56900 0.42390 0.03600
C 	C 	0.59190 0.16390 0.33320 0.36700
C 	C 	0.60490 0.20270 0.23700 -0.09600
C 	C 	0.42150 0.44310 0.06020 0.03600
C 	C 	0.57460 0.28900 0.19160 -0.03700
H 	H 	0.55200 0.32390 0.22230 0.05100
C 	C 	0.53940 0.41630 0.05080 -0.04500
O 	O 	0.14270 0.37170 0.19350 -0.15400
C 	C 	0.99960 0.32260 0.50790 0.01600
C 	C 	0.93040 0.63460 0.34460 -0.14300
H 	H 	0.93400 0.69210 0.34010 0.08600
C 	C 	0.92120 0.46480 0.35430 -0.13300
H 	H 	0.91770 0.40810 0.35620 0.08500
O 	O 	0.84300 0.52100 0.20850 -0.13600
C 	C 	0.38130 0.52720 0.00820 0.03100
O 	O 	0.06650 0.51810 0.09000 -0.13600
C 	C 	0.57710 0.32460 0.10230 0.02100
C 	C 	0.64100 0.15150 0.19110 0.02700
H 	H 	0.66060 0.09350 0.22100 0.05000
O 	O 	0.68110 0.19415 0.51470 -0.46500
C 	C 	0.88740 0.52950 0.28150 0.09900
O 	O 	0.86650 0.67720 0.19710 -0.15200
C 	C 	0.61300 0.27040 0.05800 -0.04200
H 	H 	0.61320 0.29240 0.99780 0.06400
C 	C 	0.89300 0.61790 0.27590 0.10800
C 	C 	0.25900 0.55300 0.01670 -0.12400
H 	H 	0.23150 0.60730 0.98060 0.07800
C 	C 	0.33640 0.38820 0.12190 -0.13800
H 	H 	0.35930 0.33170 0.15510 0.08600
C 	C 	0.68740 0.13270 0.04950 0.37400
C 	C 	0.22460 0.41630 0.13270 0.10600
C 	C 	0.18280 0.49910 0.07690 0.09500
C 	C 	0.19120 0.29500 0.26500 -0.26100
H 	H 	0.13280 0.27580 0.31120 0.12100
H 	H 	0.20790 0.24920 0.24390 0.11200
H 	H 	0.26430 0.31040 0.28600 0.11900
O 	O 	0.71690 0.05300 0.09350 -0.48700
H 	H 	0.73750 0.02890 0.06030 0.28000
C 	C 	0.83210 0.43440 0.21120 -0.26700
H 	H 	0.78000 0.40250 0.25850 0.11500
H 	H 	0.79860 0.43530 0.15790 0.12600
H 	H 	0.91030 0.40710 0.21920 0.13300
O 	O 	0.69910 0.16590 0.97100 -0.28200
C 	C 	0.02470 0.60320 0.03700 -0.25800
H 	H 	0.93930 0.60760 0.04520 0.13500
H 	H 	0.06530 0.64570 0.05320 0.12600
H 	H 	0.04160 0.61310 0.97730 0.11900
C 	C 	0.64840 0.18470 0.10170 -0.08700
C 	C 	0.88240 0.76570 0.18460 -0.23200
H 	H 	0.82570 0.78210 0.22020 0.10500
H 	H 	0.96310 0.77410 0.20010 0.10800
H 	H 	0.86920 0.80080 0.12490 0.11100
C 	C 	0.10820 0.27960 0.50620 -0.03300
H 	H 	0.18060 0.30840 0.50270 0.04700
C 	C 	0.11040 0.19450 0.50980 -0.09400
C 	C 	0.00060 0.15180 0.51500 0.03000
H 	H 	0.00120 0.09490 0.51710 0.05000
C 	C 	0.89110 0.19270 0.51690 -0.10300
O 	O 	0.52990 0.20508 0.36840 -0.44300
O 	O 	0.49760 0.06007 0.53487 -0.68700
H 	H 	0.49990 0.03850 0.59830 0.14400
O 	O 	0.77670 0.07200 0.52460 -0.42700
C 	C 	0.22900 0.15180 0.50710 0.34900
O 	O 	0.23010 0.06977 0.53390 -0.40200
O 	O 	0.31710 0.20051 0.47600 -0.44800
C 	C 	0.77410 0.14940 0.51800 0.39400
