data_crystal

_cell_length_a 11.09000
_cell_length_b 23.20600
_cell_length_c 23.91000
_cell_angle_alpha 90.00000
_cell_angle_beta  90.00000
_cell_angle_gamma 90.00000

_symmetry_space_group_name_	'P 1'
_symmetry_space_group_name_H-M	'P 1'

loop_
_symmetry_equiv_pos_as_xyz
  x,y,z

loop_
_atom_site_label
_atom_site_type_symbol
_atom_site_fract_x
_atom_site_fract_y
_atom_site_fract_z
_atom_site_charge
Se	Se	0.25226 0.93302 0.43114 -0.44300
N 	N 	0.22590 0.07400 0.29190 -0.20900
C 	C 	0.27790 0.04490 0.32300 -0.21600
Se	Se	0.25226 0.43302 0.93114 -0.44300
N 	N 	0.22590 0.57400 0.79190 -0.20900
C 	C 	0.27790 0.54490 0.82300 -0.21700
Se	Se	0.75226 0.93302 0.93114 -0.44200
N 	N 	0.72590 0.07400 0.79190 -0.20900
C 	C 	0.77790 0.04490 0.82300 -0.21600
Se	Se	0.75226 0.43302 0.43114 -0.44200
N 	N 	0.72590 0.57400 0.29190 -0.20800
C 	C 	0.77790 0.54490 0.32300 -0.21600
Se	Se	0.49774 0.81698 0.43114 -0.44200
N 	N 	0.52410 0.67600 0.29190 -0.20800
C 	C 	0.47210 0.70510 0.32300 -0.21600
Se	Se	0.49774 0.31698 0.93114 -0.44200
N 	N 	0.52410 0.17600 0.79190 -0.20800
C 	C 	0.47210 0.20510 0.82300 -0.21600
Se	Se	0.99774 0.81698 0.93114 -0.44200
N 	N 	0.02410 0.67600 0.79190 -0.20800
C 	C 	0.97210 0.70510 0.82300 -0.21600
Se	Se	0.99774 0.31698 0.43114 -0.44300
N 	N 	0.02410 0.17600 0.29190 -0.20800
C 	C 	0.97210 0.20510 0.32300 -0.21600
Se	Se	0.49774 0.93302 0.31886 -0.44200
N 	N 	0.52410 0.07400 0.45810 -0.20800
C 	C 	0.47210 0.04490 0.42700 -0.21500
Se	Se	0.49774 0.43302 0.81886 -0.44200
N 	N 	0.52410 0.57400 0.95810 -0.20800
C 	C 	0.47210 0.54490 0.92700 -0.21600
Se	Se	0.99774 0.93302 0.81886 -0.44200
N 	N 	0.02410 0.07400 0.95810 -0.20700
C 	C 	0.97210 0.04490 0.92700 -0.21700
Se	Se	0.99774 0.43302 0.31886 -0.44200
N 	N 	0.02410 0.57400 0.45810 -0.20900
C 	C 	0.97210 0.54490 0.42700 -0.21600
Se	Se	0.25226 0.81698 0.31886 -0.44200
N 	N 	0.22590 0.67600 0.45810 -0.20900
C 	C 	0.27790 0.70510 0.42700 -0.21600
Se	Se	0.25226 0.31698 0.81886 -0.44200
N 	N 	0.22590 0.17600 0.95810 -0.20800
C 	C 	0.27790 0.20510 0.92700 -0.21500
Se	Se	0.75226 0.81698 0.81886 -0.44200
N 	N 	0.72590 0.67600 0.95810 -0.20900
C 	C 	0.77790 0.70510 0.92700 -0.21600
Se	Se	0.75226 0.31698 0.31886 -0.44200
N 	N 	0.72590 0.17600 0.45810 -0.20800
C 	C 	0.77790 0.20510 0.42700 -0.21600
Se	Se	0.74774 0.06698 0.56886 -0.44200
N 	N 	0.77410 0.92600 0.70810 -0.20800
C 	C 	0.72210 0.95510 0.67700 -0.21500
Se	Se	0.74774 0.56698 0.06886 -0.44200
N 	N 	0.77410 0.42600 0.20810 -0.20800
C 	C 	0.72210 0.45510 0.17700 -0.21600
Se	Se	0.24774 0.06698 0.06886 -0.44100
N 	N 	0.27410 0.92600 0.20810 -0.20800
C 	C 	0.22210 0.95510 0.17700 -0.21600
Se	Se	0.24774 0.56698 0.56886 -0.44200
N 	N 	0.27410 0.42600 0.70810 -0.20800
C 	C 	0.22210 0.45510 0.67700 -0.21600
Se	Se	0.50226 0.18302 0.56886 -0.44200
N 	N 	0.47590 0.32400 0.70810 -0.20800
C 	C 	0.52790 0.29490 0.67700 -0.21600
Se	Se	0.50226 0.68302 0.06886 -0.44200
N 	N 	0.47590 0.82400 0.20810 -0.20800
C 	C 	0.52790 0.79490 0.17700 -0.21600
Se	Se	0.00226 0.18302 0.06886 -0.44200
N 	N 	0.97590 0.32400 0.20810 -0.20800
C 	C 	0.02790 0.29490 0.17700 -0.21600
Se	Se	0.00226 0.68302 0.56886 -0.44300
N 	N 	0.97590 0.82400 0.70810 -0.20800
C 	C 	0.02790 0.79490 0.67700 -0.21600
Se	Se	0.50226 0.06698 0.68114 -0.44200
N 	N 	0.47590 0.92600 0.54190 -0.20800
C 	C 	0.52790 0.95510 0.57300 -0.21500
Se	Se	0.50226 0.56698 0.18114 -0.44200
N 	N 	0.47590 0.42600 0.04190 -0.20800
C 	C 	0.52790 0.45510 0.07300 -0.21600
Se	Se	0.00226 0.06698 0.18114 -0.44200
N 	N 	0.97590 0.92600 0.04190 -0.20700
C 	C 	0.02790 0.95510 0.07300 -0.21700
Se	Se	0.00226 0.56698 0.68114 -0.44200
N 	N 	0.97590 0.42600 0.54190 -0.20900
C 	C 	0.02790 0.45510 0.57300 -0.21600
Se	Se	0.74774 0.18302 0.68114 -0.44200
N 	N 	0.77410 0.32400 0.54190 -0.20900
C 	C 	0.72210 0.29490 0.57300 -0.21600
Se	Se	0.74774 0.68302 0.18114 -0.44200
N 	N 	0.77410 0.82400 0.04190 -0.20800
C 	C 	0.72210 0.79490 0.07300 -0.21500
Se	Se	0.24774 0.18302 0.18114 -0.44200
N 	N 	0.27410 0.32400 0.04190 -0.20900
C 	C 	0.22210 0.29490 0.07300 -0.21600
Se	Se	0.24774 0.68302 0.68114 -0.44200
N 	N 	0.27410 0.82400 0.54190 -0.20800
C 	C 	0.22210 0.79490 0.57300 -0.21600
W 	W 	0.37500 0.87500 0.37500 0.21100
W 	W 	0.37500 0.37500 0.87500 0.21100
W 	W 	0.87500 0.87500 0.87500 0.21100
W 	W 	0.87500 0.37500 0.37500 0.21100
W 	W 	0.62500 0.12500 0.62500 0.21100
W 	W 	0.62500 0.62500 0.12500 0.21100
W 	W 	0.12500 0.12500 0.12500 0.21100
W 	W 	0.12500 0.62500 0.62500 0.21100
Cu	Cu	0.37500 0.87500 0.25579 0.81300
Cu	Cu	0.37500 0.37500 0.75579 0.81300
Cu	Cu	0.87500 0.87500 0.75579 0.81300
Cu	Cu	0.87500 0.37500 0.25579 0.81300
Cu	Cu	0.37500 0.87500 0.49421 0.81300
Cu	Cu	0.37500 0.37500 0.99421 0.81300
Cu	Cu	0.87500 0.87500 0.99421 0.81300
Cu	Cu	0.87500 0.37500 0.49421 0.81300
Cu	Cu	0.62500 0.12500 0.74421 0.81300
Cu	Cu	0.62500 0.62500 0.24421 0.81300
Cu	Cu	0.12500 0.12500 0.24421 0.81300
Cu	Cu	0.12500 0.62500 0.74421 0.81300
Cu	Cu	0.62500 0.12500 0.50579 0.81300
Cu	Cu	0.62500 0.62500 0.00579 0.81300
Cu	Cu	0.12500 0.12500 0.00579 0.81300
Cu	Cu	0.12500 0.62500 0.50579 0.81300
Cu	Cu	0.37500 0.00027 0.37500 0.81400
Cu	Cu	0.37500 0.50027 0.87500 0.81400
Cu	Cu	0.87500 0.00027 0.87500 0.81400
Cu	Cu	0.87500 0.50027 0.37500 0.81400
Cu	Cu	0.37500 0.74973 0.37500 0.81400
Cu	Cu	0.37500 0.24973 0.87500 0.81400
Cu	Cu	0.87500 0.74973 0.87500 0.81400
Cu	Cu	0.87500 0.24973 0.37500 0.81400
Cu	Cu	0.62500 0.99973 0.62500 0.81400
Cu	Cu	0.62500 0.49973 0.12500 0.81400
Cu	Cu	0.12500 0.99973 0.12500 0.81400
Cu	Cu	0.12500 0.49973 0.62500 0.81400
Cu	Cu	0.62500 0.25027 0.62500 0.81400
Cu	Cu	0.62500 0.75027 0.12500 0.81400
Cu	Cu	0.12500 0.25027 0.12500 0.81400
Cu	Cu	0.12500 0.75027 0.62500 0.81400
