data_crystal

_cell_length_a 7.30530
_cell_length_b 17.50560
_cell_length_c 12.67310
_cell_angle_alpha 90.00000
_cell_angle_beta  90.00000
_cell_angle_gamma 90.00000

_symmetry_space_group_name_	'P 1'
_symmetry_space_group_name_H-M	'P 1'

loop_
_symmetry_equiv_pos_as_xyz
  x,y,z

loop_
_atom_site_label
_atom_site_type_symbol
_atom_site_fract_x
_atom_site_fract_y
_atom_site_fract_z
_atom_site_charge
O 	O 	0.34400 0.16631 0.64993 -0.49100
O 	O 	0.65080 0.16382 0.65647 -0.49200
C 	C 	0.49750 0.06727 0.56130 -0.13300
C 	C 	0.55910 0.06963 0.45670 0.05100
C 	C 	0.61820 0.13911 0.40790 -0.08300
C 	C 	0.67780 0.14040 0.30730 -0.02400
C 	C 	0.68510 0.07300 0.24670 -0.02300
C 	C 	0.63030 0.00628 0.28850 -0.08100
C 	C 	0.56470 0.00120 0.39440 0.05100
C 	C 	0.49780 0.13890 0.62870 0.42000
H 	H 	0.61700 0.18410 0.44780 0.05900
H 	H 	0.71540 0.18690 0.27710 0.03500
H 	H 	0.72800 0.07490 0.17660 0.04500
H 	H 	0.63480 0.96170 0.24730 0.06900
O 	O 	0.15600 0.83369 0.14993 -0.49000
O 	O 	0.84920 0.83618 0.15647 -0.48800
C 	C 	0.00250 0.93273 0.06130 -0.13400
C 	C 	0.94090 0.93037 0.95670 0.05200
C 	C 	0.88180 0.86089 0.90790 -0.08400
C 	C 	0.82220 0.85960 0.80730 -0.02300
C 	C 	0.81490 0.92700 0.74670 -0.02500
C 	C 	0.86970 0.99372 0.78850 -0.07900
C 	C 	0.93530 0.99880 0.89440 0.05100
C 	C 	0.00220 0.86110 0.12870 0.41700
H 	H 	0.88300 0.81590 0.94780 0.05900
H 	H 	0.78460 0.81310 0.77710 0.03400
H 	H 	0.77200 0.92510 0.67660 0.04500
H 	H 	0.86520 0.03830 0.74730 0.06800
O 	O 	0.65600 0.66631 0.35007 -0.49000
O 	O 	0.34920 0.66382 0.34353 -0.49100
C 	C 	0.50250 0.56727 0.43870 -0.13300
C 	C 	0.44090 0.56963 0.54330 0.05100
C 	C 	0.38180 0.63911 0.59210 -0.08400
C 	C 	0.32220 0.64040 0.69270 -0.02400
C 	C 	0.31490 0.57300 0.75330 -0.02400
C 	C 	0.36970 0.50628 0.71150 -0.08000
C 	C 	0.43530 0.50120 0.60560 0.05100
C 	C 	0.50220 0.63890 0.37130 0.42000
H 	H 	0.38300 0.68410 0.55220 0.05900
H 	H 	0.28460 0.68690 0.72290 0.03400
H 	H 	0.27200 0.57490 0.82340 0.04500
H 	H 	0.36520 0.46170 0.75270 0.06900
O 	O 	0.84400 0.33369 0.85007 -0.49000
O 	O 	0.15080 0.33618 0.84353 -0.48800
C 	C 	0.99750 0.43273 0.93870 -0.13400
C 	C 	0.05910 0.43037 0.04330 0.05100
C 	C 	0.11820 0.36089 0.09210 -0.08300
C 	C 	0.17780 0.35960 0.19270 -0.02400
C 	C 	0.18510 0.42700 0.25330 -0.02400
C 	C 	0.13030 0.49372 0.21150 -0.08000
C 	C 	0.06470 0.49880 0.10560 0.05100
C 	C 	0.99780 0.36110 0.87130 0.41700
H 	H 	0.11700 0.31590 0.05220 0.05900
H 	H 	0.21540 0.31310 0.22290 0.03400
H 	H 	0.22800 0.42510 0.32340 0.04500
H 	H 	0.13480 0.53830 0.25270 0.06800
O 	O 	0.65600 0.83369 0.35007 -0.49000
O 	O 	0.34920 0.83618 0.34353 -0.49100
C 	C 	0.50250 0.93273 0.43870 -0.13300
C 	C 	0.44090 0.93037 0.54330 0.05100
C 	C 	0.38180 0.86089 0.59210 -0.08300
C 	C 	0.32220 0.85960 0.69270 -0.02400
C 	C 	0.31490 0.92700 0.75330 -0.02300
C 	C 	0.36970 0.99372 0.71150 -0.08100
C 	C 	0.43530 0.99880 0.60560 0.05100
C 	C 	0.50220 0.86110 0.37130 0.42000
H 	H 	0.38300 0.81590 0.55220 0.05900
H 	H 	0.28460 0.81310 0.72290 0.03500
H 	H 	0.27200 0.92510 0.82340 0.04500
H 	H 	0.36520 0.03830 0.75270 0.06900
O 	O 	0.84400 0.16631 0.85007 -0.49000
O 	O 	0.15080 0.16382 0.84353 -0.48800
C 	C 	0.99750 0.06727 0.93870 -0.13400
C 	C 	0.05910 0.06963 0.04330 0.05200
C 	C 	0.11820 0.13911 0.09210 -0.08400
C 	C 	0.17780 0.14040 0.19270 -0.02300
C 	C 	0.18510 0.07300 0.25330 -0.02500
C 	C 	0.13030 0.00628 0.21150 -0.07900
C 	C 	0.06470 0.00120 0.10560 0.05100
C 	C 	0.99780 0.13890 0.87130 0.41700
H 	H 	0.11700 0.18410 0.05220 0.05900
H 	H 	0.21540 0.18690 0.22290 0.03400
H 	H 	0.22800 0.07490 0.32340 0.04500
H 	H 	0.13480 0.96170 0.25270 0.06800
O 	O 	0.34400 0.33369 0.64993 -0.49000
O 	O 	0.65080 0.33618 0.65647 -0.49100
C 	C 	0.49750 0.43273 0.56130 -0.13300
C 	C 	0.55910 0.43037 0.45670 0.05100
C 	C 	0.61820 0.36089 0.40790 -0.08400
C 	C 	0.67780 0.35960 0.30730 -0.02400
C 	C 	0.68510 0.42700 0.24670 -0.02400
C 	C 	0.63030 0.49372 0.28850 -0.08000
C 	C 	0.56470 0.49880 0.39440 0.05100
C 	C 	0.49780 0.36110 0.62870 0.42000
H 	H 	0.61700 0.31590 0.44780 0.05900
H 	H 	0.71540 0.31310 0.27710 0.03400
H 	H 	0.72800 0.42510 0.17660 0.04500
H 	H 	0.63480 0.53830 0.24730 0.06900
O 	O 	0.15600 0.66631 0.14993 -0.49000
O 	O 	0.84920 0.66382 0.15647 -0.48800
C 	C 	0.00250 0.56727 0.06130 -0.13400
C 	C 	0.94090 0.56963 0.95670 0.05100
C 	C 	0.88180 0.63911 0.90790 -0.08300
C 	C 	0.82220 0.64040 0.80730 -0.02400
C 	C 	0.81490 0.57300 0.74670 -0.02400
C 	C 	0.86970 0.50628 0.78850 -0.08000
C 	C 	0.93530 0.50120 0.89440 0.05100
C 	C 	0.00220 0.63890 0.12870 0.41700
H 	H 	0.88300 0.68410 0.94780 0.05900
H 	H 	0.78460 0.68690 0.77710 0.03400
H 	H 	0.77200 0.57490 0.67660 0.04500
H 	H 	0.86520 0.46170 0.74730 0.06800
Zn	Zn	0.24380 0.25000 0.74642 1.19400
Zn	Zn	0.25620 0.75000 0.24642 1.19400
Zn	Zn	0.75620 0.75000 0.25358 1.19400
Zn	Zn	0.74380 0.25000 0.75358 1.19400
