data_crystal

_cell_length_a 21.61700
_cell_length_b 11.12700
_cell_length_c 16.29400
_cell_angle_alpha 90.00000
_cell_angle_beta  111.61000
_cell_angle_gamma 90.00000

_symmetry_space_group_name_	'P 1'
_symmetry_space_group_name_H-M	'P 1'

loop_
_symmetry_equiv_pos_as_xyz
  x,y,z

loop_
_atom_site_label
_atom_site_type_symbol
_atom_site_fract_x
_atom_site_fract_y
_atom_site_fract_z
_atom_site_charge
Cu	Cu	0.97536 0.00637 0.67789 0.82900
Cu	Cu	0.52029 0.00792 0.69666 0.82900
C 	C 	0.82370 0.33470 0.74370 -0.04800
C 	C 	0.82050 0.20760 0.73750 -0.03900
C 	C 	0.76210 0.14910 0.72180 -0.00500
C 	C 	0.70510 0.21480 0.71070 -0.04600
C 	C 	0.70700 0.34060 0.71310 -0.02700
C 	C 	0.76640 0.39990 0.73210 -0.00300
C 	C 	0.88670 0.39410 0.76260 0.09100
N 	N 	0.93770 0.43590 0.78070 -0.28400
C 	C 	0.87950 0.14150 0.74140 0.07400
N 	N 	0.92470 0.08930 0.74010 -0.26600
C 	C 	0.64310 0.15190 0.69440 0.08400
N 	N 	0.59410 0.10360 0.68280 -0.26900
C 	C 	0.64600 0.40650 0.69980 0.06400
N 	N 	0.59690 0.45510 0.68590 -0.15100
C 	C 	0.79180 0.79800 0.50980 -0.05000
C 	C 	0.79150 0.67310 0.50590 -0.02600
C 	C 	0.73400 0.61270 0.45850 -0.00600
C 	C 	0.67620 0.67610 0.41640 -0.04000
C 	C 	0.67570 0.80180 0.42250 -0.04900
C 	C 	0.73380 0.86290 0.46920 -0.00400
N 	N 	0.90200 0.90850 0.59420 -0.27100
C 	C 	0.85380 0.86080 0.55760 0.09000
C 	C 	0.85180 0.60670 0.55110 0.06200
N 	N 	0.90110 0.55690 0.58540 -0.14900
C 	C 	0.61670 0.61470 0.36000 0.07800
N 	N 	0.57100 0.56750 0.31180 -0.26600
C 	C 	0.61460 0.86850 0.37940 0.08800
N 	N 	0.56550 0.91670 0.34750 -0.28400
Cu	Cu	0.02464 0.50637 0.82211 0.82900
Cu	Cu	0.47971 0.50792 0.80334 0.82800
C 	C 	0.17630 0.83470 0.75630 -0.04900
C 	C 	0.17950 0.70760 0.76250 -0.04000
C 	C 	0.23790 0.64910 0.77820 -0.00600
C 	C 	0.29490 0.71480 0.78930 -0.04700
C 	C 	0.29300 0.84060 0.78690 -0.02800
C 	C 	0.23360 0.89990 0.76790 -0.00400
C 	C 	0.11330 0.89410 0.73740 0.09000
N 	N 	0.06230 0.93590 0.71930 -0.28500
C 	C 	0.12050 0.64150 0.75860 0.07500
N 	N 	0.07530 0.58930 0.75990 -0.26600
C 	C 	0.35690 0.65190 0.80560 0.08400
N 	N 	0.40590 0.60360 0.81720 -0.26900
C 	C 	0.35400 0.90650 0.80020 0.06400
N 	N 	0.40310 0.95510 0.81410 -0.15100
C 	C 	0.20820 0.29800 0.99020 -0.05000
C 	C 	0.20850 0.17310 0.99410 -0.02800
C 	C 	0.26600 0.11270 0.04150 -0.00300
C 	C 	0.32380 0.17610 0.08360 -0.04000
C 	C 	0.32430 0.30180 0.07750 -0.04800
C 	C 	0.26620 0.36290 0.03080 -0.00400
N 	N 	0.09800 0.40850 0.90580 -0.27200
C 	C 	0.14620 0.36080 0.94240 0.08900
C 	C 	0.14820 0.10670 0.94890 0.06200
N 	N 	0.09890 0.05690 0.91460 -0.14900
C 	C 	0.38330 0.11470 0.14000 0.07900
N 	N 	0.42900 0.06750 0.18820 -0.26600
C 	C 	0.38540 0.36850 0.12060 0.08800
N 	N 	0.43450 0.41670 0.15250 -0.28400
Cu	Cu	0.02464 0.99363 0.32211 0.82800
Cu	Cu	0.47971 0.99208 0.30334 0.82800
C 	C 	0.17630 0.66530 0.25630 -0.04900
C 	C 	0.17950 0.79240 0.26250 -0.04000
C 	C 	0.23790 0.85090 0.27820 -0.00600
C 	C 	0.29490 0.78520 0.28930 -0.04700
C 	C 	0.29300 0.65940 0.28690 -0.02800
C 	C 	0.23360 0.60010 0.26790 -0.00400
C 	C 	0.11330 0.60590 0.23740 0.09000
N 	N 	0.06230 0.56410 0.21930 -0.28500
C 	C 	0.12050 0.85850 0.25860 0.07400
N 	N 	0.07530 0.91070 0.25990 -0.26600
C 	C 	0.35690 0.84810 0.30560 0.08400
N 	N 	0.40590 0.89640 0.31720 -0.26900
C 	C 	0.35400 0.59350 0.30020 0.06400
N 	N 	0.40310 0.54490 0.31410 -0.15100
C 	C 	0.20820 0.20200 0.49020 -0.05000
C 	C 	0.20850 0.32690 0.49410 -0.02600
C 	C 	0.26600 0.38730 0.54150 -0.00600
C 	C 	0.32380 0.32390 0.58360 -0.04000
C 	C 	0.32430 0.19820 0.57750 -0.04900
C 	C 	0.26620 0.13710 0.53080 -0.00400
N 	N 	0.09800 0.09150 0.40580 -0.27100
C 	C 	0.14620 0.13920 0.44240 0.09000
C 	C 	0.14820 0.39330 0.44890 0.06200
N 	N 	0.09890 0.44310 0.41460 -0.14900
C 	C 	0.38330 0.38530 0.64000 0.07800
N 	N 	0.42900 0.43250 0.68820 -0.26600
C 	C 	0.38540 0.13150 0.62060 0.08800
N 	N 	0.43450 0.08330 0.65250 -0.28400
Cu	Cu	0.97536 0.49363 0.17789 0.82900
Cu	Cu	0.52029 0.49208 0.19666 0.82800
C 	C 	0.82370 0.16530 0.24370 -0.04900
C 	C 	0.82050 0.29240 0.23750 -0.04000
C 	C 	0.76210 0.35090 0.22180 -0.00600
C 	C 	0.70510 0.28520 0.21070 -0.04700
C 	C 	0.70700 0.15940 0.21310 -0.02800
C 	C 	0.76640 0.10010 0.23210 -0.00400
C 	C 	0.88670 0.10590 0.26260 0.09000
N 	N 	0.93770 0.06410 0.28070 -0.28500
C 	C 	0.87950 0.35850 0.24140 0.07500
N 	N 	0.92470 0.41070 0.24010 -0.26600
C 	C 	0.64310 0.34810 0.19440 0.08400
N 	N 	0.59410 0.39640 0.18280 -0.26900
C 	C 	0.64600 0.09350 0.19980 0.06400
N 	N 	0.59690 0.04490 0.18590 -0.15100
C 	C 	0.79180 0.70200 0.00980 -0.05000
C 	C 	0.79150 0.82690 0.00590 -0.02800
C 	C 	0.73400 0.88730 0.95850 -0.00300
C 	C 	0.67620 0.82390 0.91640 -0.04000
C 	C 	0.67570 0.69820 0.92250 -0.04800
C 	C 	0.73380 0.63710 0.96920 -0.00400
N 	N 	0.90200 0.59150 0.09420 -0.27200
C 	C 	0.85380 0.63920 0.05760 0.08900
C 	C 	0.85180 0.89330 0.05110 0.06200
N 	N 	0.90110 0.94310 0.08540 -0.14900
C 	C 	0.61670 0.88530 0.86000 0.07900
N 	N 	0.57100 0.93250 0.81180 -0.26600
C 	C 	0.61460 0.63150 0.87940 0.08800
N 	N 	0.56550 0.58330 0.84750 -0.28400
