data_crystal

_cell_length_a 13.48600
_cell_length_b 13.48600
_cell_length_c 18.31000
_cell_angle_alpha 90.00000
_cell_angle_beta  90.00000
_cell_angle_gamma 120.00000

_symmetry_space_group_name_	'P 1'
_symmetry_space_group_name_H-M	'P 1'

loop_
_symmetry_equiv_pos_as_xyz
  x,y,z

loop_
_atom_site_label
_atom_site_type_symbol
_atom_site_fract_x
_atom_site_fract_y
_atom_site_fract_z
_atom_site_charge
Fe	Fe	0.29352 0.43733 0.45609 1.23900
P 	P 	0.15791 0.18893 0.37080 0.56200
H 	H 	0.22730 0.19520 0.34910 -0.13200
P 	P 	0.50478 0.63193 0.55280 0.56400
H 	H 	0.50310 0.67600 0.59490 -0.10900
O 	O 	0.06590 0.14050 0.31224 -0.42800
O 	O 	0.13080 0.11460 0.43815 -0.44100
O 	O 	0.32810 0.55560 0.38063 -0.37700
O 	O 	0.38170 0.54580 0.53510 -0.40200
O 	O 	0.57390 0.57630 0.57590 -0.39300
O 	O 	0.56650 0.71780 0.49170 -0.40200
O 	O 	0.18480 0.31070 0.38900 -0.38200
Fe	Fe	0.56267 0.85619 0.45609 1.26800
P 	P 	0.81107 0.96898 0.37080 0.78400
H 	H 	0.80480 0.03210 0.34910 -0.23400
P 	P 	0.36807 0.87285 0.55280 0.56800
H 	H 	0.32400 0.82710 0.59490 -0.11300
O 	O 	0.85950 0.92540 0.31224 -0.32800
O 	O 	0.88540 0.01620 0.43815 -0.44600
O 	O 	0.44440 0.77250 0.38063 -0.35400
O 	O 	0.45420 0.83590 0.53510 -0.38300
O 	O 	0.42370 0.99760 0.57590 -0.33000
O 	O 	0.28220 0.84870 0.49170 -0.39200
O 	O 	0.68930 0.87410 0.38900 -0.37400
Fe	Fe	0.14381 0.70648 0.45609 1.21200
P 	P 	0.03102 0.84209 0.37080 0.32700
H 	H 	0.96790 0.77270 0.34910 0.00800
P 	P 	0.12715 0.49522 0.55280 0.56700
H 	H 	0.17290 0.49690 0.59490 -0.11900
O 	O 	0.07460 0.93410 0.31224 -0.29900
O 	O 	0.98380 0.86920 0.43815 -0.25600
O 	O 	0.22750 0.67190 0.38063 -0.38400
O 	O 	0.16410 0.61830 0.53510 -0.42100
O 	O 	0.00240 0.42610 0.57590 -0.45900
O 	O 	0.15130 0.43350 0.49170 -0.42500
O 	O 	0.12590 0.81520 0.38900 -0.34400
Fe	Fe	0.43733 0.29352 0.04391 1.22800
P 	P 	0.18893 0.15791 0.12920 0.56100
H 	H 	0.19520 0.22730 0.15090 -0.13300
P 	P 	0.63193 0.50478 0.94720 0.59600
H 	H 	0.67600 0.50310 0.90510 -0.11500
O 	O 	0.14050 0.06590 0.18776 -0.42900
O 	O 	0.11460 0.13080 0.06185 -0.45200
O 	O 	0.55560 0.32810 0.11937 -0.38000
O 	O 	0.54580 0.38170 0.96490 -0.38700
O 	O 	0.57630 0.57390 0.92410 -0.38900
O 	O 	0.71780 0.56650 0.00830 -0.43100
O 	O 	0.31070 0.18480 0.11100 -0.38600
Fe	Fe	0.85619 0.56267 0.04391 1.25600
P 	P 	0.96898 0.81107 0.12920 0.76700
H 	H 	0.03210 0.80480 0.15090 -0.22600
P 	P 	0.87285 0.36807 0.94720 0.60300
H 	H 	0.82710 0.32400 0.90510 -0.11900
O 	O 	0.92540 0.85950 0.18776 -0.32600
O 	O 	0.01620 0.88540 0.06185 -0.44600
O 	O 	0.77250 0.44440 0.11937 -0.35900
O 	O 	0.83590 0.45420 0.96490 -0.36900
O 	O 	0.99760 0.42370 0.92410 -0.32600
O 	O 	0.84870 0.28220 0.00830 -0.42600
O 	O 	0.87410 0.68930 0.11100 -0.37600
Fe	Fe	0.70648 0.14381 0.04391 1.19900
P 	P 	0.84209 0.03102 0.12920 0.31000
H 	H 	0.77270 0.96790 0.15090 0.01600
P 	P 	0.49522 0.12715 0.94720 0.60100
H 	H 	0.49690 0.17290 0.90510 -0.12500
O 	O 	0.93410 0.07460 0.18776 -0.30200
O 	O 	0.86920 0.98380 0.06185 -0.26000
O 	O 	0.67190 0.22750 0.11937 -0.38900
O 	O 	0.61830 0.16410 0.96490 -0.40400
O 	O 	0.42610 0.00240 0.92410 -0.45200
O 	O 	0.43350 0.15130 0.00830 -0.45800
O 	O 	0.81520 0.12590 0.11100 -0.34700
Fe	Fe	0.70648 0.56267 0.54391 1.24000
P 	P 	0.84209 0.81107 0.62920 0.54800
H 	H 	0.77270 0.80480 0.65090 -0.10400
P 	P 	0.49522 0.36807 0.44720 0.56800
H 	H 	0.49690 0.32400 0.40510 -0.11900
O 	O 	0.93410 0.85950 0.68776 -0.28200
O 	O 	0.86920 0.88540 0.56185 -0.32400
O 	O 	0.67190 0.44440 0.61937 -0.36700
O 	O 	0.61830 0.45420 0.46490 -0.40200
O 	O 	0.42610 0.42370 0.42410 -0.39600
O 	O 	0.43350 0.28220 0.50830 -0.41200
O 	O 	0.81520 0.68930 0.61100 -0.35200
Fe	Fe	0.43733 0.14381 0.54391 1.20900
P 	P 	0.18893 0.03102 0.62920 0.30300
H 	H 	0.19520 0.96790 0.65090 0.01200
P 	P 	0.63193 0.12715 0.44720 0.56500
H 	H 	0.67600 0.17290 0.40510 -0.11400
O 	O 	0.14050 0.07460 0.68776 -0.37700
O 	O 	0.11460 0.98380 0.56185 -0.29700
O 	O 	0.55560 0.22750 0.61937 -0.38900
O 	O 	0.54580 0.16410 0.46490 -0.42200
O 	O 	0.57630 0.00240 0.42410 -0.45800
O 	O 	0.71780 0.15130 0.50830 -0.41900
O 	O 	0.31070 0.12590 0.61100 -0.35700
Fe	Fe	0.85619 0.29352 0.54391 1.26800
P 	P 	0.96898 0.15791 0.62920 0.81600
H 	H 	0.03210 0.22730 0.65090 -0.26100
P 	P 	0.87285 0.50478 0.44720 0.56600
H 	H 	0.82710 0.50310 0.40510 -0.10900
O 	O 	0.92540 0.06590 0.68776 -0.39600
O 	O 	0.01620 0.13080 0.56185 -0.51900
O 	O 	0.77250 0.32810 0.61937 -0.35900
O 	O 	0.83590 0.38170 0.46490 -0.38300
O 	O 	0.99760 0.57390 0.42410 -0.33100
O 	O 	0.84870 0.56650 0.50830 -0.38900
O 	O 	0.87410 0.18480 0.61100 -0.39000
Fe	Fe	0.56267 0.70648 0.95609 1.24900
P 	P 	0.81107 0.84209 0.87080 0.54700
H 	H 	0.80480 0.77270 0.84910 -0.10200
P 	P 	0.36807 0.49522 0.05280 0.53800
H 	H 	0.32400 0.49690 0.09490 -0.11300
O 	O 	0.85950 0.93410 0.81224 -0.28300
O 	O 	0.88540 0.86920 0.93815 -0.30900
O 	O 	0.44440 0.67190 0.88063 -0.36400
O 	O 	0.45420 0.61830 0.03510 -0.41500
O 	O 	0.42370 0.42610 0.07590 -0.40000
O 	O 	0.28220 0.43350 0.99170 -0.38300
O 	O 	0.68930 0.81520 0.88900 -0.34900
Fe	Fe	0.14381 0.43733 0.95609 1.21900
P 	P 	0.03102 0.18893 0.87080 0.29500
H 	H 	0.96790 0.19520 0.84910 0.01800
P 	P 	0.12715 0.63193 0.05280 0.53900
H 	H 	0.17290 0.67600 0.09490 -0.10900
O 	O 	0.07460 0.14050 0.81224 -0.37500
O 	O 	0.98380 0.11460 0.93815 -0.27500
O 	O 	0.22750 0.55560 0.88063 -0.38600
O 	O 	0.16410 0.54580 0.03510 -0.43400
O 	O 	0.00240 0.57630 0.07590 -0.45800
O 	O 	0.15130 0.71780 0.99170 -0.39500
O 	O 	0.12590 0.31070 0.88900 -0.35300
Fe	Fe	0.29352 0.85619 0.95609 1.27500
P 	P 	0.15791 0.96898 0.87080 0.80000
H 	H 	0.22730 0.03210 0.84910 -0.25100
P 	P 	0.50478 0.87285 0.05280 0.53900
H 	H 	0.50310 0.82710 0.09490 -0.10400
O 	O 	0.06590 0.92540 0.81224 -0.39600
O 	O 	0.13080 0.01620 0.93815 -0.49600
O 	O 	0.32810 0.77250 0.88063 -0.35700
O 	O 	0.38170 0.83590 0.03510 -0.39400
O 	O 	0.57390 0.99760 0.07590 -0.33100
O 	O 	0.56650 0.84870 0.99170 -0.36400
O 	O 	0.18480 0.87410 0.88900 -0.38700
Fe	Fe	-0.00000 0.00000 0.25000 1.15200
Fe	Fe	0.00000 0.00000 0.75000 1.15400
Fe	Fe	-0.00000 0.00000 0.50000 1.15100
Fe	Fe	-0.00000 0.00000 -0.00000 1.13000
P 	P 	0.33333 0.66667 0.36092 0.47800
P 	P 	0.66667 0.33333 0.13908 0.47600
P 	P 	0.66667 0.33333 0.63908 0.47900
P 	P 	0.33333 0.66667 0.86092 0.48000
