data_crystal

_cell_length_a 23.16900
_cell_length_b 23.16900
_cell_length_c 26.95030
_cell_angle_alpha 64.54210
_cell_angle_beta  64.54210
_cell_angle_gamma 89.99990

_symmetry_space_group_name_	'P 1'
_symmetry_space_group_name_H-M	'P 1'

loop_
_symmetry_equiv_pos_as_xyz
  x,y,z

loop_
_atom_site_label
_atom_site_type_symbol
_atom_site_fract_x
_atom_site_fract_y
_atom_site_fract_z
_atom_site_charge
Co	Co	0.34278 0.94271 0.85014 1.09600
Co	Co	0.30708 0.20715 0.85014 1.09700
Co	Co	0.44271 0.80708 0.35014 1.09700
Co	Co	0.70715 0.84278 0.35014 1.09700
Co	Co	0.65722 0.05729 0.14986 1.09600
Co	Co	0.69292 0.79285 0.14986 1.09700
Co	Co	0.55729 0.19292 0.64986 1.09700
Co	Co	0.29285 0.15722 0.64986 1.09700
Co	Co	0.37500 0.12500 0.75000 1.08000
Co	Co	0.62500 0.87500 0.25000 1.08000
H 	H 	0.25900 0.85670 0.82180 0.05500
H 	H 	0.20070 0.83080 0.78100 0.03500
H 	H 	0.17740 0.91120 0.70860 0.03400
H 	H 	0.21370 0.02230 0.67360 0.05400
H 	H 	0.26020 0.89670 0.00460 0.06000
H 	H 	0.20840 0.90180 0.09700 0.04400
H 	H 	0.11960 0.85150 0.91080 0.05800
H 	H 	0.02640 0.85430 0.90200 0.05700
H 	H 	0.92010 0.79650 0.08660 0.05600
H 	H 	0.01350 0.79120 0.09560 0.05800
H 	H 	0.41920 0.32150 0.82180 0.05600
H 	H 	0.51830 0.38820 0.78100 0.03400
H 	H 	0.61400 0.38020 0.70860 0.03500
H 	H 	0.61270 0.30410 0.67360 0.05300
H 	H 	0.23520 0.09870 0.00460 0.06100
H 	H 	0.19460 0.00120 0.09700 0.04300
H 	H 	0.46960 0.23770 0.91080 0.05700
H 	H 	0.57160 0.24370 0.90200 0.05800
H 	H 	0.49330 0.11690 0.08660 0.05800
H 	H 	0.39090 0.11320 0.09560 0.05800
H 	H 	0.35670 0.91920 0.32180 0.05700
H 	H 	0.33080 0.01830 0.28100 0.03600
H 	H 	0.41120 0.11400 0.20860 0.03600
H 	H 	0.52230 0.11270 0.17360 0.05300
H 	H 	0.39670 0.73520 0.50460 0.06200
H 	H 	0.40180 0.69460 0.59700 0.04500
H 	H 	0.35150 0.96960 0.41080 0.05800
H 	H 	0.35430 0.07160 0.40200 0.05800
H 	H 	0.29650 0.99330 0.58660 0.05800
H 	H 	0.29120 0.89090 0.59560 0.05900
H 	H 	0.82150 0.75900 0.32180 0.05700
H 	H 	0.88820 0.70070 0.28100 0.03500
H 	H 	0.88020 0.67740 0.20860 0.03600
H 	H 	0.80410 0.71370 0.17360 0.05400
H 	H 	0.59870 0.76020 0.50460 0.06200
H 	H 	0.50120 0.70840 0.59700 0.04500
H 	H 	0.73770 0.61960 0.41080 0.05800
H 	H 	0.74370 0.52640 0.40200 0.05800
H 	H 	0.61690 0.42010 0.58660 0.05800
H 	H 	0.61320 0.51350 0.59560 0.05900
H 	H 	0.74100 0.14330 0.17820 0.05600
H 	H 	0.79930 0.16920 0.21900 0.03600
H 	H 	0.82260 0.08880 0.29140 0.03500
H 	H 	0.78630 0.97770 0.32640 0.05500
H 	H 	0.73980 0.10330 0.99540 0.06100
H 	H 	0.79160 0.09820 0.90300 0.04500
H 	H 	0.88040 0.14850 0.08920 0.05900
H 	H 	0.97360 0.14570 0.09800 0.05800
H 	H 	0.07990 0.20350 0.91340 0.05700
H 	H 	0.98650 0.20880 0.90440 0.05900
H 	H 	0.58080 0.67850 0.17820 0.05700
H 	H 	0.48170 0.61180 0.21900 0.03500
H 	H 	0.38600 0.61980 0.29140 0.03600
H 	H 	0.38730 0.69590 0.32640 0.05400
H 	H 	0.76480 0.90130 0.99540 0.06200
H 	H 	0.80540 0.99880 0.90300 0.04400
H 	H 	0.53040 0.76230 0.08920 0.05800
H 	H 	0.42840 0.75630 0.09800 0.05900
H 	H 	0.50670 0.88310 0.91340 0.05800
H 	H 	0.60910 0.88680 0.90440 0.05800
H 	H 	0.64330 0.08080 0.67820 0.05700
H 	H 	0.66920 0.98170 0.71900 0.03600
H 	H 	0.58880 0.88600 0.79140 0.03600
H 	H 	0.47770 0.88730 0.82640 0.05300
H 	H 	0.60330 0.26480 0.49540 0.06200
H 	H 	0.59820 0.30540 0.40300 0.04500
H 	H 	0.64850 0.03040 0.58920 0.05800
H 	H 	0.64570 0.92840 0.59800 0.05800
H 	H 	0.70350 0.00670 0.41340 0.05800
H 	H 	0.70880 0.10910 0.40440 0.05900
H 	H 	0.17850 0.24100 0.67820 0.05700
H 	H 	0.11180 0.29930 0.71900 0.03500
H 	H 	0.11980 0.32260 0.79140 0.03600
H 	H 	0.19590 0.28630 0.82640 0.05400
H 	H 	0.40130 0.23980 0.49540 0.06200
H 	H 	0.49880 0.29160 0.40300 0.04500
H 	H 	0.26230 0.38040 0.58920 0.05800
H 	H 	0.25630 0.47360 0.59800 0.05800
H 	H 	0.38310 0.57990 0.41340 0.05800
H 	H 	0.38680 0.48650 0.40440 0.05900
C 	C 	0.27316 0.95609 0.77040 0.04800
C 	C 	0.25054 0.88934 0.79212 -0.10800
C 	C 	0.21581 0.87461 0.76798 -0.02000
C 	C 	0.20186 0.92356 0.72368 -0.02300
C 	C 	0.22350 0.98980 0.70220 -0.11300
C 	C 	0.26073 0.00496 0.72594 0.05600
C 	C 	0.27985 0.99615 0.94810 0.05400
C 	C 	0.25547 0.93657 0.00446 -0.09700
C 	C 	0.22445 0.94005 0.05910 -0.02100
C 	C 	0.13421 0.79071 0.06858 0.10800
C 	C 	0.19863 0.84696 0.95728 0.12900
C 	C 	0.13604 0.81654 0.00992 -0.12700
C 	C 	0.07796 0.81896 0.00428 0.07300
C 	C 	0.07934 0.83924 0.94632 -0.07300
C 	C 	0.02381 0.84151 0.94078 -0.06600
C 	C 	0.96133 0.82443 0.99414 0.06900
C 	C 	0.96010 0.80660 0.05140 -0.07000
C 	C 	0.01597 0.80357 0.05686 -0.07100
C 	C 	0.90268 0.82658 0.98884 -0.12500
C 	C 	0.84134 0.81552 0.03976 0.13100
C 	C 	0.90116 0.84176 0.93288 0.10600
C 	C 	0.45644 0.27351 0.77040 0.05000
C 	C 	0.45734 0.31854 0.79212 -0.11000
C 	C 	0.51621 0.35741 0.76798 -0.01700
C 	C 	0.57446 0.35276 0.72368 -0.02500
C 	C 	0.57430 0.30800 0.70220 -0.10900
C 	C 	0.51333 0.26910 0.72594 0.05300
C 	C 	0.27205 0.05575 0.94810 0.06200
C 	C 	0.24007 0.05897 0.00446 -0.10400
C 	C 	0.21645 0.00085 0.05910 -0.01900
C 	C 	0.29721 0.14071 0.06858 0.10700
C 	C 	0.34409 0.19576 0.95728 0.13100
C 	C 	0.35404 0.17354 0.00992 -0.12800
C 	C 	0.41776 0.17676 0.00428 0.07000
C 	C 	0.47434 0.21444 0.94632 -0.06900
C 	C 	0.53541 0.21771 0.94078 -0.06800
C 	C 	0.54453 0.18143 0.99414 0.07100
C 	C 	0.48850 0.14200 0.05140 -0.07300
C 	C 	0.42717 0.13957 0.05686 -0.06800
C 	C 	0.60848 0.18458 0.98884 -0.12500
C 	C 	0.61890 0.14472 0.03976 0.12900
C 	C 	0.66596 0.22536 0.93288 0.10700
C 	C 	0.45609 0.95644 0.27040 0.05000
C 	C 	0.38934 0.95734 0.29212 -0.10900
C 	C 	0.37461 0.01621 0.26798 -0.01800
C 	C 	0.42356 0.07446 0.22368 -0.02500
C 	C 	0.48980 0.07430 0.20220 -0.10900
C 	C 	0.50496 0.01333 0.22594 0.05200
C 	C 	0.49615 0.77205 0.44810 0.05800
C 	C 	0.43657 0.74007 0.50446 -0.10100
C 	C 	0.44005 0.71645 0.55910 -0.02000
C 	C 	0.29071 0.79721 0.56858 0.10700
C 	C 	0.34696 0.84409 0.45728 0.13000
C 	C 	0.31654 0.85404 0.50992 -0.12700
C 	C 	0.31896 0.91776 0.50428 0.07100
C 	C 	0.33924 0.97434 0.44632 -0.07100
C 	C 	0.34151 0.03541 0.44078 -0.06700
C 	C 	0.32443 0.04453 0.49414 0.07000
C 	C 	0.30660 0.98850 0.55140 -0.07100
C 	C 	0.30357 0.92717 0.55686 -0.07000
C 	C 	0.32658 0.10848 0.48884 -0.12500
C 	C 	0.31552 0.11890 0.53976 0.13000
C 	C 	0.34176 0.16596 0.43288 0.10700
C 	C 	0.77351 0.77316 0.27040 0.05000
C 	C 	0.81854 0.75054 0.29212 -0.11000
C 	C 	0.85741 0.71581 0.26798 -0.01700
C 	C 	0.85276 0.70186 0.22368 -0.02500
C 	C 	0.80800 0.72350 0.20220 -0.10900
C 	C 	0.76910 0.76073 0.22594 0.05300
C 	C 	0.55575 0.77985 0.44810 0.05800
C 	C 	0.55897 0.75547 0.50446 -0.10100
C 	C 	0.50085 0.72445 0.55910 -0.02000
C 	C 	0.64071 0.63421 0.56858 0.10800
C 	C 	0.69576 0.69863 0.45728 0.13000
C 	C 	0.67354 0.63604 0.50992 -0.12700
C 	C 	0.67676 0.57796 0.50428 0.07200
C 	C 	0.71444 0.57934 0.44632 -0.07200
C 	C 	0.71771 0.52381 0.44078 -0.06600
C 	C 	0.68143 0.46133 0.49414 0.07000
C 	C 	0.64200 0.46010 0.55140 -0.07100
C 	C 	0.63957 0.51597 0.55686 -0.07000
C 	C 	0.68458 0.40268 0.48884 -0.12500
C 	C 	0.64472 0.34134 0.53976 0.13000
C 	C 	0.72536 0.40116 0.43288 0.10700
C 	C 	0.72684 0.04391 0.22960 0.04800
C 	C 	0.74946 0.11066 0.20788 -0.10800
C 	C 	0.78419 0.12539 0.23202 -0.02000
C 	C 	0.79814 0.07644 0.27632 -0.02300
C 	C 	0.77650 0.01020 0.29780 -0.11300
C 	C 	0.73927 0.99504 0.27406 0.05600
C 	C 	0.72015 0.00385 0.05190 0.05400
C 	C 	0.74453 0.06343 0.99554 -0.09700
C 	C 	0.77555 0.05995 0.94090 -0.02100
C 	C 	0.86579 0.20929 0.93142 0.10800
C 	C 	0.80137 0.15304 0.04272 0.12900
C 	C 	0.86396 0.18346 0.99008 -0.12700
C 	C 	0.92204 0.18104 0.99572 0.07300
C 	C 	0.92066 0.16076 0.05368 -0.07300
C 	C 	0.97619 0.15849 0.05922 -0.06600
C 	C 	0.03867 0.17557 0.00586 0.06900
C 	C 	0.03990 0.19340 0.94860 -0.07000
C 	C 	0.98403 0.19643 0.94314 -0.07100
C 	C 	0.09732 0.17342 0.01116 -0.12500
C 	C 	0.15866 0.18448 0.96024 0.13100
C 	C 	0.09884 0.15824 0.06712 0.10600
C 	C 	0.54356 0.72649 0.22960 0.05000
C 	C 	0.54266 0.68146 0.20788 -0.11000
C 	C 	0.48379 0.64259 0.23202 -0.01700
C 	C 	0.42554 0.64724 0.27632 -0.02500
C 	C 	0.42570 0.69200 0.29780 -0.10900
C 	C 	0.48667 0.73090 0.27406 0.05300
C 	C 	0.72795 0.94425 0.05190 0.06200
C 	C 	0.75993 0.94103 0.99554 -0.10400
C 	C 	0.78355 0.99915 0.94090 -0.01900
C 	C 	0.70279 0.85929 0.93142 0.10700
C 	C 	0.65591 0.80424 0.04272 0.13100
C 	C 	0.64596 0.82646 0.99008 -0.12800
C 	C 	0.58224 0.82324 0.99572 0.07000
C 	C 	0.52566 0.78556 0.05368 -0.06900
C 	C 	0.46459 0.78229 0.05922 -0.06800
C 	C 	0.45547 0.81857 0.00586 0.07100
C 	C 	0.51150 0.85800 0.94860 -0.07300
C 	C 	0.57283 0.86043 0.94314 -0.06800
C 	C 	0.39152 0.81542 0.01116 -0.12500
C 	C 	0.38110 0.85528 0.96024 0.12900
C 	C 	0.33404 0.77464 0.06712 0.10700
C 	C 	0.54391 0.04356 0.72960 0.05000
C 	C 	0.61066 0.04266 0.70788 -0.10900
C 	C 	0.62539 0.98379 0.73202 -0.01800
C 	C 	0.57644 0.92554 0.77632 -0.02500
C 	C 	0.51020 0.92570 0.79780 -0.10900
C 	C 	0.49504 0.98667 0.77406 0.05200
C 	C 	0.50385 0.22795 0.55190 0.05800
C 	C 	0.56343 0.25993 0.49554 -0.10100
C 	C 	0.55995 0.28355 0.44090 -0.02000
C 	C 	0.70929 0.20279 0.43142 0.10700
C 	C 	0.65304 0.15591 0.54272 0.13000
C 	C 	0.68346 0.14596 0.49008 -0.12700
C 	C 	0.68104 0.08224 0.49572 0.07100
C 	C 	0.66076 0.02566 0.55368 -0.07100
C 	C 	0.65849 0.96459 0.55922 -0.06700
C 	C 	0.67557 0.95547 0.50586 0.07000
C 	C 	0.69340 0.01150 0.44860 -0.07100
C 	C 	0.69643 0.07283 0.44314 -0.07000
C 	C 	0.67342 0.89152 0.51116 -0.12500
C 	C 	0.68448 0.88110 0.46024 0.13000
C 	C 	0.65824 0.83404 0.56712 0.10700
C 	C 	0.22649 0.22684 0.72960 0.05000
C 	C 	0.18146 0.24946 0.70788 -0.11000
C 	C 	0.14259 0.28419 0.73202 -0.01700
C 	C 	0.14724 0.29814 0.77632 -0.02500
C 	C 	0.19200 0.27650 0.79780 -0.10900
C 	C 	0.23090 0.23927 0.77406 0.05300
C 	C 	0.44425 0.22015 0.55190 0.05800
C 	C 	0.44103 0.24453 0.49554 -0.10100
C 	C 	0.49915 0.27555 0.44090 -0.02000
C 	C 	0.35929 0.36579 0.43142 0.10800
C 	C 	0.30424 0.30137 0.54272 0.13000
C 	C 	0.32646 0.36396 0.49008 -0.12700
C 	C 	0.32324 0.42204 0.49572 0.07200
C 	C 	0.28556 0.42066 0.55368 -0.07200
C 	C 	0.28229 0.47619 0.55922 -0.06600
C 	C 	0.31857 0.53867 0.50586 0.07000
C 	C 	0.35800 0.53990 0.44860 -0.07100
C 	C 	0.36043 0.48403 0.44314 -0.07000
C 	C 	0.31542 0.59732 0.51116 -0.12500
C 	C 	0.35528 0.65866 0.46024 0.13000
C 	C 	0.27464 0.59884 0.56712 0.10700
N 	N 	0.31007 0.98716 0.78422 -0.22200
N 	N 	0.31925 0.05120 0.74952 -0.18300
N 	N 	0.29053 0.06398 0.71358 -0.22400
N 	N 	0.31261 0.00885 0.88722 -0.20900
N 	N 	0.13177 0.77027 0.11646 -0.14100
N 	N 	0.25037 0.87429 0.91618 -0.26900
N 	N 	0.79127 0.80717 0.08096 -0.26800
N 	N 	0.90209 0.85459 0.88622 -0.14600
N 	N 	0.40571 0.22862 0.78422 -0.22200
N 	N 	0.43123 0.19928 0.74952 -0.18300
N 	N 	0.49589 0.22244 0.71358 -0.22300
N 	N 	0.30017 0.10393 0.88722 -0.21100
N 	N 	0.25177 0.11327 0.11646 -0.14100
N 	N 	0.33345 0.20953 0.91618 -0.26900
N 	N 	0.62777 0.11187 0.08096 -0.26800
N 	N 	0.71169 0.25919 0.88622 -0.14600
N 	N 	0.48716 0.90571 0.28422 -0.22200
N 	N 	0.55120 0.93123 0.24952 -0.18300
N 	N 	0.56398 0.99589 0.21358 -0.22300
N 	N 	0.50885 0.80017 0.38722 -0.21000
N 	N 	0.27027 0.75177 0.61646 -0.14100
N 	N 	0.37429 0.83345 0.41618 -0.26900
N 	N 	0.30717 0.12777 0.58096 -0.26800
N 	N 	0.35459 0.21169 0.38622 -0.14600
N 	N 	0.72862 0.81007 0.28422 -0.22200
N 	N 	0.69928 0.81925 0.24952 -0.18300
N 	N 	0.72244 0.79053 0.21358 -0.22300
N 	N 	0.60393 0.81261 0.38722 -0.21000
N 	N 	0.61327 0.63177 0.61646 -0.14100
N 	N 	0.70953 0.75037 0.41618 -0.26900
N 	N 	0.61187 0.29127 0.58096 -0.26800
N 	N 	0.75919 0.40209 0.38622 -0.14600
N 	N 	0.68993 0.01284 0.21578 -0.22200
N 	N 	0.68075 0.94880 0.25048 -0.18300
N 	N 	0.70947 0.93602 0.28642 -0.22400
N 	N 	0.68739 0.99115 0.11278 -0.20900
N 	N 	0.86823 0.22973 0.88354 -0.14100
N 	N 	0.74963 0.12571 0.08382 -0.26900
N 	N 	0.20873 0.19283 0.91904 -0.26800
N 	N 	0.09791 0.14541 0.11378 -0.14600
N 	N 	0.59429 0.77138 0.21578 -0.22200
N 	N 	0.56877 0.80072 0.25048 -0.18300
N 	N 	0.50411 0.77756 0.28642 -0.22300
N 	N 	0.69983 0.89607 0.11278 -0.21100
N 	N 	0.74823 0.88673 0.88354 -0.14100
N 	N 	0.66655 0.79047 0.08382 -0.26900
N 	N 	0.37223 0.88813 0.91904 -0.26800
N 	N 	0.28831 0.74081 0.11378 -0.14600
N 	N 	0.51284 0.09429 0.71578 -0.22200
N 	N 	0.44880 0.06877 0.75048 -0.18300
N 	N 	0.43602 0.00411 0.78642 -0.22300
N 	N 	0.49115 0.19983 0.61278 -0.21000
N 	N 	0.72973 0.24823 0.38354 -0.14100
N 	N 	0.62571 0.16655 0.58382 -0.26900
N 	N 	0.69283 0.87223 0.41904 -0.26800
N 	N 	0.64541 0.78831 0.61378 -0.14600
N 	N 	0.27138 0.18993 0.71578 -0.22200
N 	N 	0.30072 0.18075 0.75048 -0.18300
N 	N 	0.27756 0.20947 0.78642 -0.22300
N 	N 	0.39607 0.18739 0.61278 -0.21000
N 	N 	0.38673 0.36823 0.38354 -0.14100
N 	N 	0.29047 0.24963 0.58382 -0.26900
N 	N 	0.38813 0.70873 0.41904 -0.26800
N 	N 	0.24081 0.59791 0.61378 -0.14600
N 	N 	0.32371 0.07371 0.85258 -0.17800
N 	N 	0.57371 0.82371 0.35258 -0.17900
N 	N 	0.67629 0.92629 0.14742 -0.17800
N 	N 	0.42629 0.17629 0.64742 -0.17900
Co	Co	0.19292 0.55729 0.14986 1.09800
Co	Co	0.15722 0.29285 0.14986 1.09800
Co	Co	0.79285 0.69292 0.64986 1.09800
Co	Co	0.05729 0.65722 0.64986 1.09800
Co	Co	0.80708 0.44271 0.85014 1.09800
Co	Co	0.84278 0.70715 0.85014 1.09800
Co	Co	0.20715 0.30708 0.35014 1.09800
Co	Co	0.94271 0.34278 0.35014 1.09800
Co	Co	0.12500 0.37500 0.25000 1.08100
Co	Co	0.87500 0.62500 0.75000 1.08100
H 	H 	0.08080 0.64330 0.17820 0.05700
H 	H 	0.98170 0.66920 0.21900 0.03500
H 	H 	0.88600 0.58880 0.29140 0.03600
H 	H 	0.88730 0.47770 0.32640 0.05400
H 	H 	0.26480 0.60330 0.99540 0.06200
H 	H 	0.30540 0.59820 0.90300 0.04500
H 	H 	0.03040 0.64850 0.08920 0.05800
H 	H 	0.92840 0.64570 0.09800 0.05800
H 	H 	0.00670 0.70350 0.91340 0.05800
H 	H 	0.10910 0.70880 0.90440 0.05900
H 	H 	0.24100 0.17850 0.17820 0.05700
H 	H 	0.29930 0.11180 0.21900 0.03500
H 	H 	0.32260 0.11980 0.29140 0.03600
H 	H 	0.28630 0.19590 0.32640 0.05400
H 	H 	0.23980 0.40130 0.99540 0.06200
H 	H 	0.29160 0.49880 0.90300 0.04500
H 	H 	0.38040 0.26230 0.08920 0.05900
H 	H 	0.47360 0.25630 0.09800 0.05800
H 	H 	0.57990 0.38310 0.91340 0.05700
H 	H 	0.48650 0.38680 0.90440 0.05900
H 	H 	0.67850 0.58080 0.67820 0.05700
H 	H 	0.61180 0.48170 0.71900 0.03500
H 	H 	0.61980 0.38600 0.79140 0.03600
H 	H 	0.69590 0.38730 0.82640 0.05400
H 	H 	0.90130 0.76480 0.49540 0.06200
H 	H 	0.99880 0.80540 0.40300 0.04500
H 	H 	0.76230 0.53040 0.58920 0.05800
H 	H 	0.75630 0.42840 0.59800 0.05800
H 	H 	0.88310 0.50670 0.41340 0.05800
H 	H 	0.88680 0.60910 0.40440 0.05900
H 	H 	0.14330 0.74100 0.67820 0.05700
H 	H 	0.16920 0.79930 0.71900 0.03600
H 	H 	0.08880 0.82260 0.79140 0.03500
H 	H 	0.97770 0.78630 0.82640 0.05400
H 	H 	0.10330 0.73980 0.49540 0.06100
H 	H 	0.09820 0.79160 0.40300 0.04500
H 	H 	0.14850 0.88040 0.58920 0.05800
H 	H 	0.14570 0.97360 0.59800 0.05800
H 	H 	0.20350 0.07990 0.41340 0.05800
H 	H 	0.20880 0.98650 0.40440 0.05900
H 	H 	0.91920 0.35670 0.82180 0.05700
H 	H 	0.01830 0.33080 0.78100 0.03500
H 	H 	0.11400 0.41120 0.70860 0.03600
H 	H 	0.11270 0.52230 0.67360 0.05400
H 	H 	0.73520 0.39670 0.00460 0.06200
H 	H 	0.69460 0.40180 0.09700 0.04500
H 	H 	0.96960 0.35150 0.91080 0.05800
H 	H 	0.07160 0.35430 0.90200 0.05800
H 	H 	0.99330 0.29650 0.08660 0.05800
H 	H 	0.89090 0.29120 0.09560 0.05900
H 	H 	0.75900 0.82150 0.82180 0.05700
H 	H 	0.70070 0.88820 0.78100 0.03500
H 	H 	0.67740 0.88020 0.70860 0.03600
H 	H 	0.71370 0.80410 0.67360 0.05400
H 	H 	0.76020 0.59870 0.00460 0.06200
H 	H 	0.70840 0.50120 0.09700 0.04500
H 	H 	0.61960 0.73770 0.91080 0.05900
H 	H 	0.52640 0.74370 0.90200 0.05800
H 	H 	0.42010 0.61690 0.08660 0.05700
H 	H 	0.51350 0.61320 0.09560 0.05900
H 	H 	0.32150 0.41920 0.32180 0.05700
H 	H 	0.38820 0.51830 0.28100 0.03500
H 	H 	0.38020 0.61400 0.20860 0.03600
H 	H 	0.30410 0.61270 0.17360 0.05400
H 	H 	0.09870 0.23520 0.50460 0.06200
H 	H 	0.00120 0.19460 0.59700 0.04500
H 	H 	0.23770 0.46960 0.41080 0.05800
H 	H 	0.24370 0.57160 0.40200 0.05800
H 	H 	0.11690 0.49330 0.58660 0.05800
H 	H 	0.11320 0.39090 0.59560 0.05900
H 	H 	0.85670 0.25900 0.32180 0.05700
H 	H 	0.83080 0.20070 0.28100 0.03600
H 	H 	0.91120 0.17740 0.20860 0.03500
H 	H 	0.02230 0.21370 0.17360 0.05400
H 	H 	0.89670 0.26020 0.50460 0.06100
H 	H 	0.90180 0.20840 0.59700 0.04500
H 	H 	0.85150 0.11960 0.41080 0.05800
H 	H 	0.85430 0.02640 0.40200 0.05800
H 	H 	0.79650 0.92010 0.58660 0.05800
H 	H 	0.79120 0.01350 0.59560 0.05900
C 	C 	0.04356 0.54391 0.22960 0.05000
C 	C 	0.04266 0.61066 0.20788 -0.11000
C 	C 	0.98379 0.62539 0.23202 -0.01700
C 	C 	0.92554 0.57644 0.27632 -0.02500
C 	C 	0.92570 0.51020 0.29780 -0.10900
C 	C 	0.98667 0.49504 0.27406 0.05300
C 	C 	0.22795 0.50385 0.05190 0.05900
C 	C 	0.25993 0.56343 0.99554 -0.10100
C 	C 	0.28355 0.55995 0.94090 -0.02000
C 	C 	0.20279 0.70929 0.93142 0.10700
C 	C 	0.15591 0.65304 0.04272 0.13100
C 	C 	0.14596 0.68346 0.99008 -0.12700
C 	C 	0.08224 0.68104 0.99572 0.07000
C 	C 	0.02566 0.66076 0.05368 -0.06900
C 	C 	0.96459 0.65849 0.05922 -0.06800
C 	C 	0.95547 0.67557 0.00586 0.07100
C 	C 	0.01150 0.69340 0.94860 -0.07300
C 	C 	0.07283 0.69643 0.94314 -0.06900
C 	C 	0.89152 0.67342 0.01116 -0.12500
C 	C 	0.88110 0.68448 0.96024 0.13000
C 	C 	0.83404 0.65824 0.06712 0.10700
C 	C 	0.22684 0.22649 0.22960 0.05000
C 	C 	0.24946 0.18146 0.20788 -0.11000
C 	C 	0.28419 0.14259 0.23202 -0.01700
C 	C 	0.29814 0.14724 0.27632 -0.02500
C 	C 	0.27650 0.19200 0.29780 -0.10900
C 	C 	0.23927 0.23090 0.27406 0.05300
C 	C 	0.22015 0.44425 0.05190 0.05800
C 	C 	0.24453 0.44103 0.99554 -0.10100
C 	C 	0.27555 0.49915 0.94090 -0.02000
C 	C 	0.36579 0.35929 0.93142 0.10800
C 	C 	0.30137 0.30424 0.04272 0.13000
C 	C 	0.36396 0.32646 0.99008 -0.12700
C 	C 	0.42204 0.32324 0.99572 0.07300
C 	C 	0.42066 0.28556 0.05368 -0.07300
C 	C 	0.47619 0.28229 0.05922 -0.06600
C 	C 	0.53867 0.31857 0.00586 0.06900
C 	C 	0.53990 0.35800 0.94860 -0.07000
C 	C 	0.48403 0.36043 0.94314 -0.07100
C 	C 	0.59732 0.31542 0.01116 -0.12500
C 	C 	0.65866 0.35528 0.96024 0.13000
C 	C 	0.59884 0.27464 0.06712 0.10600
C 	C 	0.72649 0.54356 0.72960 0.05000
C 	C 	0.68146 0.54266 0.70788 -0.11000
C 	C 	0.64259 0.48379 0.73202 -0.01700
C 	C 	0.64724 0.42554 0.77632 -0.02500
C 	C 	0.69200 0.42570 0.79780 -0.10900
C 	C 	0.73090 0.48667 0.77406 0.05300
C 	C 	0.94425 0.72795 0.55190 0.05800
C 	C 	0.94103 0.75993 0.49554 -0.10100
C 	C 	0.99915 0.78355 0.44090 -0.02000
C 	C 	0.85929 0.70279 0.43142 0.10700
C 	C 	0.80424 0.65591 0.54272 0.13000
C 	C 	0.82646 0.64596 0.49008 -0.12700
C 	C 	0.82324 0.58224 0.49572 0.07200
C 	C 	0.78556 0.52566 0.55368 -0.07200
C 	C 	0.78229 0.46459 0.55922 -0.06600
C 	C 	0.81857 0.45547 0.50586 0.07000
C 	C 	0.85800 0.51150 0.44860 -0.07100
C 	C 	0.86043 0.57283 0.44314 -0.07000
C 	C 	0.81542 0.39152 0.51116 -0.12500
C 	C 	0.85528 0.38110 0.46024 0.13000
C 	C 	0.77464 0.33404 0.56712 0.10700
C 	C 	0.04391 0.72684 0.72960 0.04900
C 	C 	0.11066 0.74946 0.70788 -0.10900
C 	C 	0.12539 0.78419 0.73202 -0.01800
C 	C 	0.07644 0.79814 0.77632 -0.02400
C 	C 	0.01020 0.77650 0.79780 -0.11100
C 	C 	0.99504 0.73927 0.77406 0.05400
C 	C 	0.00385 0.72015 0.55190 0.05800
C 	C 	0.06343 0.74453 0.49554 -0.10000
C 	C 	0.05995 0.77555 0.44090 -0.02000
C 	C 	0.20929 0.86579 0.43142 0.10800
C 	C 	0.15304 0.80137 0.54272 0.13000
C 	C 	0.18346 0.86396 0.49008 -0.12700
C 	C 	0.18104 0.92204 0.49572 0.07200
C 	C 	0.16076 0.92066 0.55368 -0.07100
C 	C 	0.15849 0.97619 0.55922 -0.06700
C 	C 	0.17557 0.03867 0.50586 0.07000
C 	C 	0.19340 0.03990 0.44860 -0.07100
C 	C 	0.19643 0.98403 0.44314 -0.07000
C 	C 	0.17342 0.09732 0.51116 -0.12500
C 	C 	0.18448 0.15866 0.46024 0.13000
C 	C 	0.15824 0.09884 0.56712 0.10700
C 	C 	0.95644 0.45609 0.77040 0.05000
C 	C 	0.95734 0.38934 0.79212 -0.11000
C 	C 	0.01621 0.37461 0.76798 -0.01700
C 	C 	0.07446 0.42356 0.72368 -0.02500
C 	C 	0.07430 0.48980 0.70220 -0.10900
C 	C 	0.01333 0.50496 0.72594 0.05300
C 	C 	0.77205 0.49615 0.94810 0.05900
C 	C 	0.74007 0.43657 0.00446 -0.10100
C 	C 	0.71645 0.44005 0.05910 -0.02000
C 	C 	0.79721 0.29071 0.06858 0.10700
C 	C 	0.84409 0.34696 0.95728 0.13100
C 	C 	0.85404 0.31654 0.00992 -0.12700
C 	C 	0.91776 0.31896 0.00428 0.07000
C 	C 	0.97434 0.33924 0.94632 -0.06900
C 	C 	0.03541 0.34151 0.94078 -0.06800
C 	C 	0.04453 0.32443 0.99414 0.07100
C 	C 	0.98850 0.30660 0.05140 -0.07300
C 	C 	0.92717 0.30357 0.05686 -0.06900
C 	C 	0.10848 0.32658 0.98884 -0.12500
C 	C 	0.11890 0.31552 0.03976 0.13000
C 	C 	0.16596 0.34176 0.93288 0.10700
C 	C 	0.77316 0.77351 0.77040 0.05000
C 	C 	0.75054 0.81854 0.79212 -0.11000
C 	C 	0.71581 0.85741 0.76798 -0.01700
C 	C 	0.70186 0.85276 0.72368 -0.02500
C 	C 	0.72350 0.80800 0.70220 -0.10900
C 	C 	0.76073 0.76910 0.72594 0.05300
C 	C 	0.77985 0.55575 0.94810 0.05800
C 	C 	0.75547 0.55897 0.00446 -0.10100
C 	C 	0.72445 0.50085 0.05910 -0.02000
C 	C 	0.63421 0.64071 0.06858 0.10800
C 	C 	0.69863 0.69576 0.95728 0.13000
C 	C 	0.63604 0.67354 0.00992 -0.12700
C 	C 	0.57796 0.67676 0.00428 0.07300
C 	C 	0.57934 0.71444 0.94632 -0.07300
C 	C 	0.52381 0.71771 0.94078 -0.06600
C 	C 	0.46133 0.68143 0.99414 0.06900
C 	C 	0.46010 0.64200 0.05140 -0.07000
C 	C 	0.51597 0.63957 0.05686 -0.07100
C 	C 	0.40268 0.68458 0.98884 -0.12500
C 	C 	0.34134 0.64472 0.03976 0.13000
C 	C 	0.40116 0.72536 0.93288 0.10600
C 	C 	0.27351 0.45644 0.27040 0.05000
C 	C 	0.31854 0.45734 0.29212 -0.11000
C 	C 	0.35741 0.51621 0.26798 -0.01700
C 	C 	0.35276 0.57446 0.22368 -0.02500
C 	C 	0.30800 0.57430 0.20220 -0.10900
C 	C 	0.26910 0.51333 0.22594 0.05300
C 	C 	0.05575 0.27205 0.44810 0.05800
C 	C 	0.05897 0.24007 0.50446 -0.10100
C 	C 	0.00085 0.21645 0.55910 -0.02000
C 	C 	0.14071 0.29721 0.56858 0.10700
C 	C 	0.19576 0.34409 0.45728 0.13000
C 	C 	0.17354 0.35404 0.50992 -0.12700
C 	C 	0.17676 0.41776 0.50428 0.07200
C 	C 	0.21444 0.47434 0.44632 -0.07200
C 	C 	0.21771 0.53541 0.44078 -0.06600
C 	C 	0.18143 0.54453 0.49414 0.07000
C 	C 	0.14200 0.48850 0.55140 -0.07100
C 	C 	0.13957 0.42717 0.55686 -0.07000
C 	C 	0.18458 0.60848 0.48884 -0.12500
C 	C 	0.14472 0.61890 0.53976 0.13000
C 	C 	0.22536 0.66596 0.43288 0.10700
C 	C 	0.95609 0.27316 0.27040 0.04900
C 	C 	0.88934 0.25054 0.29212 -0.10900
C 	C 	0.87461 0.21581 0.26798 -0.01800
C 	C 	0.92356 0.20186 0.22368 -0.02400
C 	C 	0.98980 0.22350 0.20220 -0.11100
C 	C 	0.00496 0.26073 0.22594 0.05400
C 	C 	0.99615 0.27985 0.44810 0.05800
C 	C 	0.93657 0.25547 0.50446 -0.10000
C 	C 	0.94005 0.22445 0.55910 -0.02000
C 	C 	0.79071 0.13421 0.56858 0.10800
C 	C 	0.84696 0.19863 0.45728 0.13000
C 	C 	0.81654 0.13604 0.50992 -0.12700
C 	C 	0.81896 0.07796 0.50428 0.07200
C 	C 	0.83924 0.07934 0.44632 -0.07100
C 	C 	0.84151 0.02381 0.44078 -0.06700
C 	C 	0.82443 0.96133 0.49414 0.07000
C 	C 	0.80660 0.96010 0.55140 -0.07100
C 	C 	0.80357 0.01597 0.55686 -0.07000
C 	C 	0.82658 0.90268 0.48884 -0.12500
C 	C 	0.81552 0.84134 0.53976 0.13000
C 	C 	0.84176 0.90116 0.43288 0.10700
N 	N 	0.09429 0.51284 0.21578 -0.22200
N 	N 	0.06877 0.44880 0.25048 -0.18300
N 	N 	0.00411 0.43602 0.28642 -0.22300
N 	N 	0.19983 0.49115 0.11278 -0.21000
N 	N 	0.24823 0.72973 0.88354 -0.14100
N 	N 	0.16655 0.62571 0.08382 -0.26900
N 	N 	0.87223 0.69283 0.91904 -0.26800
N 	N 	0.78831 0.64541 0.11378 -0.14600
N 	N 	0.18993 0.27138 0.21578 -0.22200
N 	N 	0.18075 0.30072 0.25048 -0.18300
N 	N 	0.20947 0.27756 0.28642 -0.22300
N 	N 	0.18739 0.39607 0.11278 -0.21000
N 	N 	0.36823 0.38673 0.88354 -0.14100
N 	N 	0.24963 0.29047 0.08382 -0.26900
N 	N 	0.70873 0.38813 0.91904 -0.26800
N 	N 	0.59791 0.24081 0.11378 -0.14600
N 	N 	0.77138 0.59429 0.71578 -0.22200
N 	N 	0.80072 0.56877 0.75048 -0.18300
N 	N 	0.77756 0.50411 0.78642 -0.22300
N 	N 	0.89607 0.69983 0.61278 -0.21000
N 	N 	0.88673 0.74823 0.38354 -0.14100
N 	N 	0.79047 0.66655 0.58382 -0.26900
N 	N 	0.88813 0.37223 0.41904 -0.26800
N 	N 	0.74081 0.28831 0.61378 -0.14600
N 	N 	0.01284 0.68993 0.71578 -0.22200
N 	N 	0.94880 0.68075 0.75048 -0.18300
N 	N 	0.93602 0.70947 0.78642 -0.22400
N 	N 	0.99115 0.68739 0.61278 -0.21000
N 	N 	0.22973 0.86823 0.38354 -0.14100
N 	N 	0.12571 0.74963 0.58382 -0.26900
N 	N 	0.19283 0.20873 0.41904 -0.26800
N 	N 	0.14541 0.09791 0.61378 -0.14600
N 	N 	0.90571 0.48716 0.78422 -0.22200
N 	N 	0.93123 0.55120 0.74952 -0.18300
N 	N 	0.99589 0.56398 0.71358 -0.22300
N 	N 	0.80017 0.50885 0.88722 -0.21000
N 	N 	0.75177 0.27027 0.11646 -0.14100
N 	N 	0.83345 0.37429 0.91618 -0.26900
N 	N 	0.12777 0.30717 0.08096 -0.26800
N 	N 	0.21169 0.35459 0.88622 -0.14600
N 	N 	0.81007 0.72862 0.78422 -0.22200
N 	N 	0.81925 0.69928 0.74952 -0.18300
N 	N 	0.79053 0.72244 0.71358 -0.22300
N 	N 	0.81261 0.60393 0.88722 -0.21000
N 	N 	0.63177 0.61327 0.11646 -0.14100
N 	N 	0.75037 0.70953 0.91618 -0.26900
N 	N 	0.29127 0.61187 0.08096 -0.26800
N 	N 	0.40209 0.75919 0.88622 -0.14600
N 	N 	0.22862 0.40571 0.28422 -0.22200
N 	N 	0.19928 0.43123 0.24952 -0.18300
N 	N 	0.22244 0.49589 0.21358 -0.22300
N 	N 	0.10393 0.30017 0.38722 -0.21000
N 	N 	0.11327 0.25177 0.61646 -0.14100
N 	N 	0.20953 0.33345 0.41618 -0.26900
N 	N 	0.11187 0.62777 0.58096 -0.26800
N 	N 	0.25919 0.71169 0.38622 -0.14600
N 	N 	0.98716 0.31007 0.28422 -0.22200
N 	N 	0.05120 0.31925 0.24952 -0.18300
N 	N 	0.06398 0.29053 0.21358 -0.22400
N 	N 	0.00885 0.31261 0.38722 -0.21000
N 	N 	0.77027 0.13177 0.61646 -0.14100
N 	N 	0.87429 0.25037 0.41618 -0.26900
N 	N 	0.80717 0.79127 0.58096 -0.26800
N 	N 	0.85459 0.90209 0.38622 -0.14600
N 	N 	0.17629 0.42629 0.14742 -0.17900
N 	N 	0.92629 0.67629 0.64742 -0.17900
N 	N 	0.82371 0.57371 0.85258 -0.17900
N 	N 	0.07371 0.32371 0.35258 -0.17900
