data_crystal

_cell_length_a 7.80050
_cell_length_b 11.29470
_cell_length_c 13.15520
_cell_angle_alpha 82.71900
_cell_angle_beta  80.49900
_cell_angle_gamma 83.19400

_symmetry_space_group_name_	'P 1'
_symmetry_space_group_name_H-M	'P 1'

loop_
_symmetry_equiv_pos_as_xyz
  x,y,z

loop_
_atom_site_label
_atom_site_type_symbol
_atom_site_fract_x
_atom_site_fract_y
_atom_site_fract_z
_atom_site_charge
Zn	Zn	0.71638 0.76470 0.73578 1.19400
Zn	Zn	0.28362 0.23530 0.26422 1.19400
H 	H 	0.75220 0.11460 0.56650 0.05100
H 	H 	0.28220 0.52080 0.20970 -0.03500
H 	H 	0.34400 0.46520 0.66390 0.04900
H 	H 	0.52900 0.61400 0.12140 0.13000
H 	H 	0.12370 0.90570 0.85540 0.05100
H 	H 	0.87630 0.09430 0.14460 0.05100
H 	H 	0.52860 0.02090 0.75720 -0.00500
H 	H 	0.47140 0.97910 0.24280 -0.00500
H 	H 	0.71780 0.47920 0.79030 -0.03500
H 	H 	0.62770 0.37860 0.62770 0.04400
H 	H 	0.29910 0.98680 0.94790 0.06500
H 	H 	0.95610 0.31640 0.09430 0.05000
H 	H 	0.78900 0.72240 0.49780 -0.02900
H 	H 	0.70090 0.01320 0.05210 0.06500
H 	H 	0.65200 0.26940 0.12860 0.03000
H 	H 	0.42560 0.79330 0.57970 0.02000
H 	H 	0.21100 0.27760 0.50220 -0.02900
H 	H 	0.06060 0.63890 0.41240 0.12400
H 	H 	0.10190 0.62680 0.70370 0.02300
H 	H 	0.04390 0.68360 0.90570 0.05000
H 	H 	0.24780 0.88540 0.43350 0.05100
H 	H 	0.57440 0.20670 0.42030 0.02000
H 	H 	0.98660 0.08080 0.65450 0.05800
H 	H 	0.34800 0.73060 0.87140 0.03000
H 	H 	0.23130 0.35280 0.01080 0.04500
H 	H 	0.37230 0.62140 0.37230 0.04400
H 	H 	0.65600 0.53480 0.33610 0.04900
H 	H 	0.89810 0.37320 0.29630 0.02300
H 	H 	0.47100 0.38600 0.87860 0.13000
H 	H 	0.76870 0.64720 0.98920 0.04500
H 	H 	0.01340 0.91920 0.34550 0.05800
H 	H 	0.93940 0.36110 0.58760 0.12400
C 	C 	0.92630 0.05690 0.08610 -0.01900
C 	C 	0.67150 0.44580 0.47720 -0.00600
C 	C 	0.02670 0.60950 0.94360 -0.06300
C 	C 	0.17870 0.99270 0.96860 -0.03100
C 	C 	0.40830 0.65560 0.86270 -0.03100
C 	C 	0.14930 0.61120 0.54930 0.05800
C 	C 	0.14780 0.93140 0.46050 -0.06300
C 	C 	0.89510 0.94850 0.94520 -0.06100
C 	C 	0.88650 0.69280 0.52870 0.12400
C 	C 	0.86120 0.58770 0.99380 -0.05100
C 	C 	0.85220 0.06860 0.53950 -0.06300
C 	C 	0.14290 0.97820 0.55380 0.00900
C 	C 	0.34190 0.54850 0.89550 0.06300
C 	C 	0.85070 0.38880 0.45070 0.05800
C 	C 	0.97330 0.39050 0.05640 -0.06300
C 	C 	0.16840 0.52210 0.94890 -0.00200
C 	C 	0.13880 0.41230 0.00620 -0.05100
C 	C 	0.10490 0.05150 0.05480 -0.06100
C 	C 	0.52410 0.01460 0.28810 0.09000
C 	C 	0.94110 0.36000 0.35900 -0.02600
C 	C 	0.59170 0.34440 0.13730 -0.03100
C 	C 	0.41880 0.86100 0.61430 -0.01500
C 	C 	0.99220 0.04810 0.59250 -0.06000
C 	C 	0.40640 0.48000 0.59770 -0.05900
C 	C 	0.78050 0.89000 0.88970 0.31900
C 	C 	0.61210 0.51830 0.81820 0.12800
C 	C 	0.42310 0.57300 0.42420 -0.05300
C 	C 	0.11350 0.30720 0.47130 0.12400
C 	C 	0.83160 0.47790 0.05110 -0.00200
C 	C 	0.47590 0.98540 0.71190 0.09000
C 	C 	0.32850 0.55420 0.52280 -0.00600
C 	C 	0.29390 0.95550 0.60910 0.03900
C 	C 	0.82130 0.00730 0.03140 -0.03100
C 	C 	0.65810 0.45150 0.10450 0.06300
C 	C 	0.59360 0.52000 0.40230 -0.05900
C 	C 	0.57690 0.42700 0.57580 -0.05300
C 	C 	0.58120 0.13900 0.38570 -0.01500
C 	C 	0.07370 0.94310 0.91390 -0.01900
C 	C 	0.38790 0.48170 0.18180 0.12800
C 	C 	0.00780 0.95190 0.40750 -0.06000
C 	C 	0.70610 0.04450 0.39090 0.03900
C 	C 	0.21950 0.11000 0.11030 0.31900
C 	C 	0.05890 0.64000 0.64100 -0.02600
C 	C 	0.85710 0.02180 0.44620 0.00900
N 	N 	0.96230 0.35410 0.52220 -0.21200
N 	N 	0.42090 0.36430 0.18560 -0.27600
N 	N 	0.52490 0.53770 0.13290 -0.21800
N 	N 	0.53360 0.88010 0.67800 -0.26900
N 	N 	0.89380 0.69160 0.62820 -0.27500
N 	N 	0.33240 0.03450 0.67280 -0.12500
N 	N 	0.10620 0.30840 0.37180 -0.27500
N 	N 	0.57910 0.63570 0.81440 -0.27600
N 	N 	0.47510 0.46230 0.86710 -0.21800
N 	N 	0.03770 0.64590 0.47780 -0.21200
N 	N 	0.46640 0.11990 0.32200 -0.26900
N 	N 	0.66760 0.96550 0.32720 -0.12500
O 	O 	0.14330 0.15100 0.19466 -0.46800
O 	O 	0.62580 0.88130 0.92530 -0.31200
O 	O 	0.85670 0.84900 0.80534 -0.46800
O 	O 	0.37420 0.11870 0.07470 -0.31200
