data_crystal

_cell_length_a 23.08070
_cell_length_b 23.08070
_cell_length_c 26.69620
_cell_angle_alpha 64.38720
_cell_angle_beta  64.38720
_cell_angle_gamma 89.99980

_symmetry_space_group_name_	'P 1'
_symmetry_space_group_name_H-M	'P 1'

loop_
_symmetry_equiv_pos_as_xyz
  x,y,z

loop_
_atom_site_label
_atom_site_type_symbol
_atom_site_fract_x
_atom_site_fract_y
_atom_site_fract_z
_atom_site_charge
Ni	Ni	0.31094 0.94434 0.84942 1.04200
Ni	Ni	0.33964 0.20624 0.84942 1.04200
Ni	Ni	0.44434 0.83964 0.34942 1.04200
Ni	Ni	0.70624 0.81094 0.34942 1.04200
Ni	Ni	0.68906 0.05566 0.15058 1.04200
Ni	Ni	0.66036 0.79376 0.15058 1.04200
Ni	Ni	0.55566 0.16036 0.65058 1.04200
Ni	Ni	0.29376 0.18906 0.65058 1.04200
Ni	Ni	0.37500 0.12500 0.75000 1.02600
Ni	Ni	0.62500 0.87500 0.25000 1.02600
H 	H 	0.42250 0.85790 0.82140 0.05800
H 	H 	0.52360 0.83420 0.78040 0.03500
H 	H 	0.61910 0.91690 0.70840 0.03400
H 	H 	0.61660 0.02690 0.67160 0.05700
H 	H 	0.23740 0.89550 0.00540 0.06100
H 	H 	0.19590 0.90020 0.09900 0.04600
H 	H 	0.39560 0.79340 0.09600 0.05800
H 	H 	0.49810 0.79930 0.08700 0.05700
H 	H 	0.57790 0.85290 0.90140 0.05800
H 	H 	0.47500 0.85020 0.90960 0.05800
H 	H 	0.25610 0.32070 0.82140 0.05900
H 	H 	0.19600 0.38540 0.78040 0.03500
H 	H 	0.17250 0.37470 0.70840 0.03500
H 	H 	0.21180 0.30150 0.67160 0.05600
H 	H 	0.25720 0.09910 0.00540 0.06400
H 	H 	0.20510 0.00080 0.09900 0.04300
H 	H 	0.00840 0.11060 0.09600 0.05800
H 	H 	0.91490 0.11370 0.08700 0.06000
H 	H 	0.02070 0.24570 0.90140 0.06000
H 	H 	0.11540 0.24020 0.90960 0.05800
H 	H 	0.35790 0.75610 0.32140 0.06000
H 	H 	0.33420 0.69600 0.28040 0.03600
H 	H 	0.41690 0.67250 0.20840 0.03600
H 	H 	0.52690 0.71180 0.17160 0.05700
H 	H 	0.39550 0.75720 0.50540 0.06300
H 	H 	0.40020 0.70510 0.59900 0.04500
H 	H 	0.29340 0.50840 0.59600 0.05900
H 	H 	0.29930 0.41490 0.58700 0.05900
H 	H 	0.35290 0.52070 0.40140 0.05900
H 	H 	0.35020 0.61540 0.40960 0.05900
H 	H 	0.82070 0.92250 0.32140 0.05900
H 	H 	0.88540 0.02360 0.28040 0.03600
H 	H 	0.87470 0.11910 0.20840 0.03500
H 	H 	0.80150 0.11660 0.17160 0.05700
H 	H 	0.59910 0.73740 0.50540 0.06300
H 	H 	0.50080 0.69590 0.59900 0.04500
H 	H 	0.61060 0.89560 0.59600 0.05900
H 	H 	0.61370 0.99810 0.58700 0.05900
H 	H 	0.74570 0.07790 0.40140 0.05900
H 	H 	0.74020 0.97500 0.40960 0.05900
H 	H 	0.57750 0.14210 0.17860 0.05900
H 	H 	0.47640 0.16580 0.21960 0.03600
H 	H 	0.38090 0.08310 0.29160 0.03500
H 	H 	0.38340 0.97310 0.32840 0.05800
H 	H 	0.76260 0.10450 0.99460 0.06200
H 	H 	0.80410 0.09980 0.90100 0.04700
H 	H 	0.60440 0.20660 0.90400 0.05900
H 	H 	0.50190 0.20070 0.91300 0.05800
H 	H 	0.42210 0.14710 0.09860 0.05900
H 	H 	0.52500 0.14980 0.09040 0.05900
H 	H 	0.74390 0.67930 0.17860 0.06000
H 	H 	0.80400 0.61460 0.21960 0.03600
H 	H 	0.82750 0.62530 0.29160 0.03600
H 	H 	0.78820 0.69850 0.32840 0.05700
H 	H 	0.74280 0.90090 0.99460 0.06500
H 	H 	0.79490 0.99920 0.90100 0.04400
H 	H 	0.99160 0.88940 0.90400 0.05800
H 	H 	0.08510 0.88630 0.91300 0.06000
H 	H 	0.97930 0.75430 0.09860 0.06000
H 	H 	0.88460 0.75980 0.09040 0.05800
H 	H 	0.64210 0.24390 0.67860 0.06000
H 	H 	0.66580 0.30400 0.71960 0.03600
H 	H 	0.58310 0.32750 0.79160 0.03600
H 	H 	0.47310 0.28820 0.82840 0.05700
H 	H 	0.60450 0.24280 0.49460 0.06300
H 	H 	0.59980 0.29490 0.40100 0.04500
H 	H 	0.70660 0.49160 0.40400 0.05900
H 	H 	0.70070 0.58510 0.41300 0.05900
H 	H 	0.64710 0.47930 0.59860 0.05900
H 	H 	0.64980 0.38460 0.59040 0.05900
H 	H 	0.17930 0.07750 0.67860 0.05900
H 	H 	0.11460 0.97640 0.71960 0.03600
H 	H 	0.12530 0.88090 0.79160 0.03500
H 	H 	0.19850 0.88340 0.82840 0.05700
H 	H 	0.40090 0.26260 0.49460 0.06300
H 	H 	0.49920 0.30410 0.40100 0.04500
H 	H 	0.38940 0.10440 0.40400 0.05900
H 	H 	0.38630 0.00190 0.41300 0.05900
H 	H 	0.25430 0.92210 0.59860 0.05900
H 	H 	0.25980 0.02500 0.59040 0.05900
C 	C 	0.45879 0.95898 0.77020 0.05200
C 	C 	0.46055 0.89130 0.79198 -0.10800
C 	C 	0.52065 0.87805 0.76750 -0.01900
C 	C 	0.57898 0.92858 0.72304 -0.02300
C 	C 	0.57804 0.99382 0.70112 -0.10900
C 	C 	0.51555 0.00870 0.72548 0.05500
C 	C 	0.27283 0.99602 0.94814 0.05400
C 	C 	0.24131 0.93561 0.00538 -0.09400
C 	C 	0.21684 0.93904 0.06052 -0.02300
C 	C 	0.34851 0.84960 0.95610 0.13100
C 	C 	0.30127 0.79247 0.06926 0.10700
C 	C 	0.35863 0.81769 0.00962 -0.12500
C 	C 	0.42270 0.82044 0.00356 0.07200
C 	C 	0.43207 0.80546 0.05688 -0.06900
C 	C 	0.49340 0.80841 0.05158 -0.07000
C 	C 	0.55001 0.82510 0.99350 0.07100
C 	C 	0.54133 0.84097 0.94046 -0.06800
C 	C 	0.47939 0.83893 0.94554 -0.07200
C 	C 	0.61394 0.82656 0.98882 -0.12700
C 	C 	0.67124 0.84184 0.93272 0.10800
C 	C 	0.62310 0.81521 0.04100 0.13100
C 	C 	0.27101 0.27082 0.77020 0.05300
C 	C 	0.24747 0.31672 0.79198 -0.10900
C 	C 	0.21185 0.35445 0.76750 -0.01800
C 	C 	0.19798 0.34838 0.72304 -0.02400
C 	C 	0.22084 0.30506 0.70112 -0.10700
C 	C 	0.25897 0.26582 0.72548 0.05400
C 	C 	0.27903 0.05584 0.94814 0.06400
C 	C 	0.25331 0.05901 0.00538 -0.10300
C 	C 	0.22264 0.00044 0.06052 -0.01600
C 	C 	0.19539 0.19430 0.95610 0.13200
C 	C 	0.12947 0.13827 0.06926 0.10700
C 	C 	0.13175 0.17269 0.00962 -0.12400
C 	C 	0.07374 0.17600 0.00356 0.06800
C 	C 	0.01105 0.13766 0.05688 -0.06400
C 	C 	0.95502 0.14001 0.05158 -0.07800
C 	C 	0.95649 0.18140 0.99350 0.07500
C 	C 	0.01821 0.21857 0.94046 -0.07100
C 	C 	0.07507 0.21553 0.94554 -0.06800
C 	C 	0.89724 0.18462 0.98882 -0.12600
C 	C 	0.89604 0.22544 0.93272 0.10800
C 	C 	0.83590 0.14379 0.04100 0.13000
C 	C 	0.45898 0.77101 0.27020 0.05300
C 	C 	0.39130 0.74747 0.29198 -0.10900
C 	C 	0.37805 0.71185 0.26750 -0.01800
C 	C 	0.42858 0.69798 0.22304 -0.02400
C 	C 	0.49382 0.72084 0.20112 -0.10700
C 	C 	0.50870 0.75897 0.22548 0.05400
C 	C 	0.49602 0.77903 0.44814 0.06000
C 	C 	0.43561 0.75331 0.50538 -0.09900
C 	C 	0.43904 0.72264 0.56052 -0.01900
C 	C 	0.34960 0.69539 0.45610 0.13200
C 	C 	0.29247 0.62947 0.56926 0.10700
C 	C 	0.31769 0.63175 0.50962 -0.12500
C 	C 	0.32044 0.57374 0.50356 0.07100
C 	C 	0.30546 0.51105 0.55688 -0.06800
C 	C 	0.30841 0.45502 0.55158 -0.07200
C 	C 	0.32510 0.45649 0.49350 0.07200
C 	C 	0.34097 0.51821 0.44046 -0.06900
C 	C 	0.33893 0.57507 0.44554 -0.07000
C 	C 	0.32656 0.39724 0.48882 -0.12600
C 	C 	0.34184 0.39604 0.43272 0.10800
C 	C 	0.31521 0.33590 0.54100 0.13100
C 	C 	0.77082 0.95879 0.27020 0.05400
C 	C 	0.81672 0.96055 0.29198 -0.10700
C 	C 	0.85445 0.02065 0.26750 -0.02100
C 	C 	0.84838 0.07898 0.22304 -0.02300
C 	C 	0.80506 0.07804 0.20112 -0.10700
C 	C 	0.76582 0.01555 0.22548 0.05200
C 	C 	0.55584 0.77283 0.44814 0.06000
C 	C 	0.55901 0.74131 0.50538 -0.09900
C 	C 	0.50044 0.71684 0.56052 -0.01900
C 	C 	0.69430 0.84851 0.45610 0.13200
C 	C 	0.63827 0.80127 0.56926 0.10700
C 	C 	0.67269 0.85863 0.50962 -0.12500
C 	C 	0.67600 0.92270 0.50356 0.07000
C 	C 	0.63766 0.93207 0.55688 -0.06800
C 	C 	0.64001 0.99340 0.55158 -0.07200
C 	C 	0.68140 0.05001 0.49350 0.07200
C 	C 	0.71857 0.04133 0.44046 -0.07100
C 	C 	0.71553 0.97939 0.44554 -0.06900
C 	C 	0.68462 0.11394 0.48882 -0.12600
C 	C 	0.72544 0.17124 0.43272 0.10800
C 	C 	0.64379 0.12310 0.54100 0.13100
C 	C 	0.54121 0.04102 0.22980 0.05200
C 	C 	0.53945 0.10870 0.20802 -0.10800
C 	C 	0.47935 0.12195 0.23250 -0.01900
C 	C 	0.42102 0.07142 0.27696 -0.02300
C 	C 	0.42196 0.00618 0.29888 -0.10900
C 	C 	0.48445 0.99130 0.27452 0.05500
C 	C 	0.72717 0.00398 0.05186 0.05400
C 	C 	0.75869 0.06439 0.99462 -0.09400
C 	C 	0.78316 0.06096 0.93948 -0.02300
C 	C 	0.65149 0.15040 0.04390 0.13100
C 	C 	0.69873 0.20753 0.93074 0.10700
C 	C 	0.64137 0.18231 0.99038 -0.12500
C 	C 	0.57730 0.17956 0.99644 0.07200
C 	C 	0.56793 0.19454 0.94312 -0.06900
C 	C 	0.50660 0.19159 0.94842 -0.07000
C 	C 	0.44999 0.17490 0.00650 0.07100
C 	C 	0.45867 0.15903 0.05954 -0.06800
C 	C 	0.52061 0.16107 0.05446 -0.07200
C 	C 	0.38606 0.17344 0.01118 -0.12700
C 	C 	0.32876 0.15816 0.06728 0.10800
C 	C 	0.37690 0.18479 0.95900 0.13100
C 	C 	0.72899 0.72918 0.22980 0.05300
C 	C 	0.75253 0.68328 0.20802 -0.10900
C 	C 	0.78815 0.64555 0.23250 -0.01800
C 	C 	0.80202 0.65162 0.27696 -0.02400
C 	C 	0.77916 0.69494 0.29888 -0.10700
C 	C 	0.74103 0.73418 0.27452 0.05400
C 	C 	0.72097 0.94416 0.05186 0.06400
C 	C 	0.74669 0.94099 0.99462 -0.10300
C 	C 	0.77736 0.99956 0.93948 -0.01600
C 	C 	0.80461 0.80570 0.04390 0.13200
C 	C 	0.87053 0.86173 0.93074 0.10700
C 	C 	0.86825 0.82731 0.99038 -0.12400
C 	C 	0.92626 0.82400 0.99644 0.06800
C 	C 	0.98895 0.86234 0.94312 -0.06400
C 	C 	0.04498 0.85999 0.94842 -0.07800
C 	C 	0.04351 0.81860 0.00650 0.07500
C 	C 	0.98179 0.78143 0.05954 -0.07100
C 	C 	0.92493 0.78447 0.05446 -0.06800
C 	C 	0.10276 0.81538 0.01118 -0.12600
C 	C 	0.10396 0.77456 0.06728 0.10800
C 	C 	0.16410 0.85621 0.95900 0.13000
C 	C 	0.54102 0.22899 0.72980 0.05300
C 	C 	0.60870 0.25253 0.70802 -0.10900
C 	C 	0.62195 0.28815 0.73250 -0.01800
C 	C 	0.57142 0.30202 0.77696 -0.02400
C 	C 	0.50618 0.27916 0.79888 -0.10700
C 	C 	0.49130 0.24103 0.77452 0.05400
C 	C 	0.50398 0.22097 0.55186 0.06000
C 	C 	0.56439 0.24669 0.49462 -0.09900
C 	C 	0.56096 0.27736 0.43948 -0.01900
C 	C 	0.65040 0.30461 0.54390 0.13200
C 	C 	0.70753 0.37053 0.43074 0.10700
C 	C 	0.68231 0.36825 0.49038 -0.12500
C 	C 	0.67956 0.42626 0.49644 0.07100
C 	C 	0.69454 0.48895 0.44312 -0.06800
C 	C 	0.69159 0.54498 0.44842 -0.07200
C 	C 	0.67490 0.54351 0.50650 0.07200
C 	C 	0.65903 0.48179 0.55954 -0.06900
C 	C 	0.66107 0.42493 0.55446 -0.07000
C 	C 	0.67344 0.60276 0.51118 -0.12600
C 	C 	0.65816 0.60396 0.56728 0.10800
C 	C 	0.68479 0.66410 0.45900 0.13100
C 	C 	0.22918 0.04121 0.72980 0.05400
C 	C 	0.18328 0.03945 0.70802 -0.10700
C 	C 	0.14555 0.97935 0.73250 -0.02100
C 	C 	0.15162 0.92102 0.77696 -0.02300
C 	C 	0.19494 0.92196 0.79888 -0.10700
C 	C 	0.23418 0.98445 0.77452 0.05200
C 	C 	0.44416 0.22717 0.55186 0.06000
C 	C 	0.44099 0.25869 0.49462 -0.09900
C 	C 	0.49956 0.28316 0.43948 -0.01900
C 	C 	0.30570 0.15149 0.54390 0.13200
C 	C 	0.36173 0.19873 0.43074 0.10700
C 	C 	0.32731 0.14137 0.49038 -0.12500
C 	C 	0.32400 0.07730 0.49644 0.07000
C 	C 	0.36234 0.06793 0.44312 -0.06800
C 	C 	0.35999 0.00660 0.44842 -0.07200
C 	C 	0.31860 0.94999 0.50650 0.07200
C 	C 	0.28143 0.95867 0.55954 -0.07100
C 	C 	0.28447 0.02061 0.55446 -0.06900
C 	C 	0.31538 0.88606 0.51118 -0.12600
C 	C 	0.27456 0.82876 0.56728 0.10800
C 	C 	0.35621 0.87690 0.45900 0.13100
N 	N 	0.43217 0.05329 0.74970 -0.17400
N 	N 	0.40737 0.98884 0.78476 -0.21900
N 	N 	0.49695 0.06706 0.71348 -0.21600
N 	N 	0.30211 0.00921 0.88648 -0.20200
N 	N 	0.33819 0.87790 0.91474 -0.26300
N 	N 	0.25521 0.77091 0.11758 -0.14000
N 	N 	0.71869 0.85439 0.88622 -0.14400
N 	N 	0.63178 0.80714 0.08276 -0.26400
N 	N 	0.31813 0.19701 0.74970 -0.17500
N 	N 	0.30787 0.22640 0.78476 -0.21800
N 	N 	0.28957 0.21946 0.71348 -0.21600
N 	N 	0.31141 0.10431 0.88648 -0.20400
N 	N 	0.24707 0.20736 0.91474 -0.26300
N 	N 	0.12721 0.11151 0.11758 -0.13900
N 	N 	0.89509 0.25939 0.88622 -0.14400
N 	N 	0.78546 0.11010 0.08276 -0.26400
N 	N 	0.55329 0.81813 0.24970 -0.17500
N 	N 	0.48884 0.80787 0.28476 -0.21800
N 	N 	0.56706 0.78957 0.21348 -0.21600
N 	N 	0.50921 0.81141 0.38648 -0.20400
N 	N 	0.37790 0.74707 0.41474 -0.26300
N 	N 	0.27091 0.62721 0.61758 -0.14000
N 	N 	0.35439 0.39509 0.38622 -0.14400
N 	N 	0.30714 0.28546 0.58276 -0.26400
N 	N 	0.69701 0.93217 0.24970 -0.17500
N 	N 	0.72640 0.90737 0.28476 -0.21800
N 	N 	0.71946 0.99695 0.21348 -0.21500
N 	N 	0.60431 0.80211 0.38648 -0.20400
N 	N 	0.70736 0.83819 0.41474 -0.26300
N 	N 	0.61151 0.75521 0.61758 -0.13900
N 	N 	0.75939 0.21869 0.38622 -0.14400
N 	N 	0.61010 0.13178 0.58276 -0.26400
N 	N 	0.56783 0.94671 0.25030 -0.17400
N 	N 	0.59263 0.01116 0.21524 -0.21900
N 	N 	0.50305 0.93294 0.28652 -0.21600
N 	N 	0.69789 0.99079 0.11352 -0.20200
N 	N 	0.66181 0.12210 0.08526 -0.26300
N 	N 	0.74479 0.22909 0.88242 -0.14000
N 	N 	0.28131 0.14561 0.11378 -0.14400
N 	N 	0.36822 0.19286 0.91724 -0.26400
N 	N 	0.68187 0.80299 0.25030 -0.17500
N 	N 	0.69213 0.77360 0.21524 -0.21800
N 	N 	0.71043 0.78054 0.28652 -0.21600
N 	N 	0.68859 0.89569 0.11352 -0.20400
N 	N 	0.75293 0.79264 0.08526 -0.26300
N 	N 	0.87279 0.88849 0.88242 -0.13900
N 	N 	0.10491 0.74061 0.11378 -0.14400
N 	N 	0.21454 0.88990 0.91724 -0.26400
N 	N 	0.44671 0.18187 0.75030 -0.17500
N 	N 	0.51116 0.19213 0.71524 -0.21800
N 	N 	0.43294 0.21043 0.78652 -0.21600
N 	N 	0.49079 0.18859 0.61352 -0.20400
N 	N 	0.62210 0.25293 0.58526 -0.26300
N 	N 	0.72909 0.37279 0.38242 -0.14000
N 	N 	0.64561 0.60491 0.61378 -0.14400
N 	N 	0.69286 0.71454 0.41724 -0.26400
N 	N 	0.30299 0.06783 0.75030 -0.17500
N 	N 	0.27360 0.09263 0.71524 -0.21800
N 	N 	0.28054 0.00305 0.78652 -0.21500
N 	N 	0.39569 0.19789 0.61352 -0.20400
N 	N 	0.29264 0.16181 0.58526 -0.26300
N 	N 	0.38849 0.24479 0.38242 -0.13900
N 	N 	0.24061 0.78131 0.61378 -0.14400
N 	N 	0.38990 0.86822 0.41724 -0.26400
N 	N 	0.32450 0.07450 0.85100 -0.17400
N 	N 	0.57450 0.82450 0.35100 -0.17400
N 	N 	0.67550 0.92550 0.14900 -0.17400
N 	N 	0.42550 0.17550 0.64900 -0.17400
Ni	Ni	0.16036 0.55566 0.15058 1.04300
Ni	Ni	0.18906 0.29376 0.15058 1.04300
Ni	Ni	0.79376 0.66036 0.65058 1.04300
Ni	Ni	0.05566 0.68906 0.65058 1.04300
Ni	Ni	0.83964 0.44434 0.84942 1.04300
Ni	Ni	0.81094 0.70624 0.84942 1.04300
Ni	Ni	0.20624 0.33964 0.34942 1.04300
Ni	Ni	0.94434 0.31094 0.34942 1.04300
Ni	Ni	0.12500 0.37500 0.25000 1.02700
Ni	Ni	0.87500 0.62500 0.75000 1.02700
H 	H 	0.24390 0.64210 0.17860 0.06000
H 	H 	0.30400 0.66580 0.21960 0.03600
H 	H 	0.32750 0.58310 0.29160 0.03600
H 	H 	0.28820 0.47310 0.32840 0.05700
H 	H 	0.24280 0.60450 0.99460 0.06300
H 	H 	0.29490 0.59980 0.90100 0.04500
H 	H 	0.49160 0.70660 0.90400 0.05900
H 	H 	0.58510 0.70070 0.91300 0.05900
H 	H 	0.47930 0.64710 0.09860 0.05900
H 	H 	0.38460 0.64980 0.09040 0.05900
H 	H 	0.07750 0.17930 0.17860 0.05900
H 	H 	0.97640 0.11460 0.21960 0.03600
H 	H 	0.88090 0.12530 0.29160 0.03500
H 	H 	0.88340 0.19850 0.32840 0.05700
H 	H 	0.26260 0.40090 0.99460 0.06300
H 	H 	0.30410 0.49920 0.90100 0.04500
H 	H 	0.10440 0.38940 0.90400 0.05900
H 	H 	0.00190 0.38630 0.91300 0.05900
H 	H 	0.92210 0.25430 0.09860 0.06000
H 	H 	0.02500 0.25980 0.09040 0.05800
H 	H 	0.67930 0.74390 0.67860 0.06000
H 	H 	0.61460 0.80400 0.71960 0.03600
H 	H 	0.62530 0.82750 0.79160 0.03600
H 	H 	0.69850 0.78820 0.82840 0.05700
H 	H 	0.90090 0.74280 0.49460 0.06400
H 	H 	0.99920 0.79490 0.40100 0.04500
H 	H 	0.88940 0.99160 0.40400 0.05900
H 	H 	0.88630 0.08510 0.41300 0.05900
H 	H 	0.75430 0.97930 0.59860 0.05900
H 	H 	0.75980 0.88460 0.59040 0.05900
H 	H 	0.14210 0.57750 0.67860 0.05900
H 	H 	0.16580 0.47640 0.71960 0.03600
H 	H 	0.08310 0.38090 0.79160 0.03500
H 	H 	0.97310 0.38340 0.82840 0.05700
H 	H 	0.10450 0.76260 0.49460 0.06300
H 	H 	0.09980 0.80410 0.40100 0.04600
H 	H 	0.20660 0.60440 0.40400 0.05900
H 	H 	0.20070 0.50190 0.41300 0.05900
H 	H 	0.14710 0.42210 0.59860 0.05900
H 	H 	0.14980 0.52500 0.59040 0.05900
H 	H 	0.75610 0.35790 0.82140 0.06000
H 	H 	0.69600 0.33420 0.78040 0.03600
H 	H 	0.67250 0.41690 0.70840 0.03600
H 	H 	0.71180 0.52690 0.67160 0.05700
H 	H 	0.75720 0.39550 0.00540 0.06300
H 	H 	0.70510 0.40020 0.09900 0.04500
H 	H 	0.50840 0.29340 0.09600 0.05900
H 	H 	0.41490 0.29930 0.08700 0.05900
H 	H 	0.52070 0.35290 0.90140 0.05900
H 	H 	0.61540 0.35020 0.90960 0.05900
H 	H 	0.92250 0.82070 0.82140 0.05900
H 	H 	0.02360 0.88540 0.78040 0.03600
H 	H 	0.11910 0.87470 0.70840 0.03500
H 	H 	0.11660 0.80150 0.67160 0.05700
H 	H 	0.73740 0.59910 0.00540 0.06300
H 	H 	0.69590 0.50080 0.09900 0.04500
H 	H 	0.89560 0.61060 0.09600 0.05900
H 	H 	0.99810 0.61370 0.08700 0.05900
H 	H 	0.07790 0.74570 0.90140 0.06000
H 	H 	0.97500 0.74020 0.90960 0.05800
H 	H 	0.32070 0.25610 0.32140 0.06000
H 	H 	0.38540 0.19600 0.28040 0.03600
H 	H 	0.37470 0.17250 0.20840 0.03600
H 	H 	0.30150 0.21180 0.17160 0.05700
H 	H 	0.09910 0.25720 0.50540 0.06400
H 	H 	0.00080 0.20510 0.59900 0.04500
H 	H 	0.11060 0.00840 0.59600 0.05900
H 	H 	0.11370 0.91490 0.58700 0.05900
H 	H 	0.24570 0.02070 0.40140 0.05900
H 	H 	0.24020 0.11540 0.40960 0.05900
H 	H 	0.85790 0.42250 0.32140 0.05900
H 	H 	0.83420 0.52360 0.28040 0.03600
H 	H 	0.91690 0.61910 0.20840 0.03500
H 	H 	0.02690 0.61660 0.17160 0.05700
H 	H 	0.89550 0.23740 0.50540 0.06300
H 	H 	0.90020 0.19590 0.59900 0.04600
H 	H 	0.79340 0.39560 0.59600 0.05900
H 	H 	0.79930 0.49810 0.58700 0.05900
H 	H 	0.85290 0.57790 0.40140 0.05900
H 	H 	0.85020 0.47500 0.40960 0.05900
C 	C 	0.22899 0.54102 0.22980 0.05300
C 	C 	0.25253 0.60870 0.20802 -0.10900
C 	C 	0.28815 0.62195 0.23250 -0.01800
C 	C 	0.30202 0.57142 0.27696 -0.02400
C 	C 	0.27916 0.50618 0.29888 -0.10700
C 	C 	0.24103 0.49130 0.27452 0.05400
C 	C 	0.22097 0.50398 0.05186 0.06000
C 	C 	0.24669 0.56439 0.99462 -0.10000
C 	C 	0.27736 0.56096 0.93948 -0.01900
C 	C 	0.30461 0.65040 0.04390 0.13200
C 	C 	0.37053 0.70753 0.93074 0.10700
C 	C 	0.36825 0.68231 0.99038 -0.12500
C 	C 	0.42626 0.67956 0.99644 0.07000
C 	C 	0.48895 0.69454 0.94312 -0.06700
C 	C 	0.54498 0.69159 0.94842 -0.07300
C 	C 	0.54351 0.67490 0.00650 0.07300
C 	C 	0.48179 0.65903 0.05954 -0.07000
C 	C 	0.42493 0.66107 0.05446 -0.06900
C 	C 	0.60276 0.67344 0.01118 -0.12600
C 	C 	0.60396 0.65816 0.06728 0.10800
C 	C 	0.66410 0.68479 0.95900 0.13000
C 	C 	0.04121 0.22918 0.22980 0.05300
C 	C 	0.03945 0.18328 0.20802 -0.10700
C 	C 	0.97935 0.14555 0.23250 -0.02100
C 	C 	0.92102 0.15162 0.27696 -0.02300
C 	C 	0.92196 0.19494 0.29888 -0.10800
C 	C 	0.98445 0.23418 0.27452 0.05300
C 	C 	0.22717 0.44416 0.05186 0.06000
C 	C 	0.25869 0.44099 0.99462 -0.09900
C 	C 	0.28316 0.49956 0.93948 -0.02000
C 	C 	0.15149 0.30570 0.04390 0.13200
C 	C 	0.19873 0.36173 0.93074 0.10700
C 	C 	0.14137 0.32731 0.99038 -0.12500
C 	C 	0.07730 0.32400 0.99644 0.07000
C 	C 	0.06793 0.36234 0.94312 -0.06800
C 	C 	0.00660 0.35999 0.94842 -0.07200
C 	C 	0.94999 0.31860 0.00650 0.07200
C 	C 	0.95867 0.28143 0.05954 -0.07100
C 	C 	0.02061 0.28447 0.05446 -0.06900
C 	C 	0.88606 0.31538 0.01118 -0.12700
C 	C 	0.82876 0.27456 0.06728 0.10800
C 	C 	0.87690 0.35621 0.95900 0.13100
C 	C 	0.72918 0.72899 0.72980 0.05300
C 	C 	0.68328 0.75253 0.70802 -0.10900
C 	C 	0.64555 0.78815 0.73250 -0.01800
C 	C 	0.65162 0.80202 0.77696 -0.02400
C 	C 	0.69494 0.77916 0.79888 -0.10700
C 	C 	0.73418 0.74103 0.77452 0.05400
C 	C 	0.94416 0.72097 0.55186 0.06200
C 	C 	0.94099 0.74669 0.49462 -0.10100
C 	C 	0.99956 0.77736 0.43948 -0.01700
C 	C 	0.80570 0.80461 0.54390 0.13200
C 	C 	0.86173 0.87053 0.43074 0.10700
C 	C 	0.82731 0.86825 0.49038 -0.12500
C 	C 	0.82400 0.92626 0.49644 0.07000
C 	C 	0.86234 0.98895 0.44312 -0.06600
C 	C 	0.85999 0.04498 0.44842 -0.07400
C 	C 	0.81860 0.04351 0.50650 0.07200
C 	C 	0.78143 0.98179 0.55954 -0.06900
C 	C 	0.78447 0.92493 0.55446 -0.07000
C 	C 	0.81538 0.10276 0.51118 -0.12600
C 	C 	0.77456 0.10396 0.56728 0.10800
C 	C 	0.85621 0.16410 0.45900 0.13100
C 	C 	0.04102 0.54121 0.72980 0.05300
C 	C 	0.10870 0.53945 0.70802 -0.10900
C 	C 	0.12195 0.47935 0.73250 -0.01800
C 	C 	0.07142 0.42102 0.77696 -0.02300
C 	C 	0.00618 0.42196 0.79888 -0.10800
C 	C 	0.99130 0.48445 0.77452 0.05400
C 	C 	0.00398 0.72717 0.55186 0.05700
C 	C 	0.06439 0.75869 0.49462 -0.09700
C 	C 	0.06096 0.78316 0.43948 -0.02200
C 	C 	0.15040 0.65149 0.54390 0.13200
C 	C 	0.20753 0.69873 0.43074 0.10700
C 	C 	0.18231 0.64137 0.49038 -0.12500
C 	C 	0.17956 0.57730 0.49644 0.07100
C 	C 	0.19454 0.56793 0.44312 -0.06800
C 	C 	0.19159 0.50660 0.44842 -0.07200
C 	C 	0.17490 0.44999 0.50650 0.07200
C 	C 	0.15903 0.45867 0.55954 -0.06900
C 	C 	0.16107 0.52061 0.55446 -0.07000
C 	C 	0.17344 0.38606 0.51118 -0.12600
C 	C 	0.15816 0.32876 0.56728 0.10800
C 	C 	0.18479 0.37690 0.45900 0.13100
C 	C 	0.77101 0.45898 0.77020 0.05300
C 	C 	0.74747 0.39130 0.79198 -0.10900
C 	C 	0.71185 0.37805 0.76750 -0.01800
C 	C 	0.69798 0.42858 0.72304 -0.02400
C 	C 	0.72084 0.49382 0.70112 -0.10700
C 	C 	0.75897 0.50870 0.72548 0.05400
C 	C 	0.77903 0.49602 0.94814 0.06000
C 	C 	0.75331 0.43561 0.00538 -0.10000
C 	C 	0.72264 0.43904 0.06052 -0.01900
C 	C 	0.69539 0.34960 0.95610 0.13200
C 	C 	0.62947 0.29247 0.06926 0.10700
C 	C 	0.63175 0.31769 0.00962 -0.12500
C 	C 	0.57374 0.32044 0.00356 0.07000
C 	C 	0.51105 0.30546 0.05688 -0.06700
C 	C 	0.45502 0.30841 0.05158 -0.07300
C 	C 	0.45649 0.32510 0.99350 0.07300
C 	C 	0.51821 0.34097 0.94046 -0.07000
C 	C 	0.57507 0.33893 0.94554 -0.06900
C 	C 	0.39724 0.32656 0.98882 -0.12600
C 	C 	0.39604 0.34184 0.93272 0.10800
C 	C 	0.33590 0.31521 0.04100 0.13000
C 	C 	0.95879 0.77082 0.77020 0.05300
C 	C 	0.96055 0.81672 0.79198 -0.10700
C 	C 	0.02065 0.85445 0.76750 -0.02100
C 	C 	0.07898 0.84838 0.72304 -0.02300
C 	C 	0.07804 0.80506 0.70112 -0.10800
C 	C 	0.01555 0.76582 0.72548 0.05300
C 	C 	0.77283 0.55584 0.94814 0.06000
C 	C 	0.74131 0.55901 0.00538 -0.09900
C 	C 	0.71684 0.50044 0.06052 -0.02000
C 	C 	0.84851 0.69430 0.95610 0.13200
C 	C 	0.80127 0.63827 0.06926 0.10700
C 	C 	0.85863 0.67269 0.00962 -0.12500
C 	C 	0.92270 0.67600 0.00356 0.07000
C 	C 	0.93207 0.63766 0.05688 -0.06800
C 	C 	0.99340 0.64001 0.05158 -0.07200
C 	C 	0.05001 0.68140 0.99350 0.07200
C 	C 	0.04133 0.71857 0.94046 -0.07100
C 	C 	0.97939 0.71553 0.94554 -0.06900
C 	C 	0.11394 0.68462 0.98882 -0.12700
C 	C 	0.17124 0.72544 0.93272 0.10800
C 	C 	0.12310 0.64379 0.04100 0.13100
C 	C 	0.27082 0.27101 0.27020 0.05300
C 	C 	0.31672 0.24747 0.29198 -0.10900
C 	C 	0.35445 0.21185 0.26750 -0.01800
C 	C 	0.34838 0.19798 0.22304 -0.02400
C 	C 	0.30506 0.22084 0.20112 -0.10700
C 	C 	0.26582 0.25897 0.22548 0.05400
C 	C 	0.05584 0.27903 0.44814 0.06200
C 	C 	0.05901 0.25331 0.50538 -0.10100
C 	C 	0.00044 0.22264 0.56052 -0.01700
C 	C 	0.19430 0.19539 0.45610 0.13200
C 	C 	0.13827 0.12947 0.56926 0.10700
C 	C 	0.17269 0.13175 0.50962 -0.12500
C 	C 	0.17600 0.07374 0.50356 0.07000
C 	C 	0.13766 0.01105 0.55688 -0.06600
C 	C 	0.14001 0.95502 0.55158 -0.07400
C 	C 	0.18140 0.95649 0.49350 0.07200
C 	C 	0.21857 0.01821 0.44046 -0.06900
C 	C 	0.21553 0.07507 0.44554 -0.07000
C 	C 	0.18462 0.89724 0.48882 -0.12600
C 	C 	0.22544 0.89604 0.43272 0.10800
C 	C 	0.14379 0.83590 0.54100 0.13100
C 	C 	0.95898 0.45879 0.27020 0.05300
C 	C 	0.89130 0.46055 0.29198 -0.10900
C 	C 	0.87805 0.52065 0.26750 -0.01800
C 	C 	0.92858 0.57898 0.22304 -0.02300
C 	C 	0.99382 0.57804 0.20112 -0.10800
C 	C 	0.00870 0.51555 0.22548 0.05400
C 	C 	0.99602 0.27283 0.44814 0.05700
C 	C 	0.93561 0.24131 0.50538 -0.09700
C 	C 	0.93904 0.21684 0.56052 -0.02200
C 	C 	0.84960 0.34851 0.45610 0.13200
C 	C 	0.79247 0.30127 0.56926 0.10700
C 	C 	0.81769 0.35863 0.50962 -0.12500
C 	C 	0.82044 0.42270 0.50356 0.07100
C 	C 	0.80546 0.43207 0.55688 -0.06800
C 	C 	0.80841 0.49340 0.55158 -0.07200
C 	C 	0.82510 0.55001 0.49350 0.07200
C 	C 	0.84097 0.54133 0.44046 -0.06900
C 	C 	0.83893 0.47939 0.44554 -0.07000
C 	C 	0.82656 0.61394 0.48882 -0.12600
C 	C 	0.84184 0.67124 0.43272 0.10800
C 	C 	0.81521 0.62310 0.54100 0.13100
N 	N 	0.18187 0.44671 0.25030 -0.17500
N 	N 	0.19213 0.51116 0.21524 -0.21800
N 	N 	0.21043 0.43294 0.28652 -0.21600
N 	N 	0.18859 0.49079 0.11352 -0.20400
N 	N 	0.25293 0.62210 0.08526 -0.26300
N 	N 	0.37279 0.72909 0.88242 -0.14000
N 	N 	0.60491 0.64561 0.11378 -0.14400
N 	N 	0.71454 0.69286 0.91724 -0.26400
N 	N 	0.06783 0.30299 0.25030 -0.17500
N 	N 	0.09263 0.27360 0.21524 -0.21800
N 	N 	0.00305 0.28054 0.28652 -0.21600
N 	N 	0.19789 0.39569 0.11352 -0.20400
N 	N 	0.16181 0.29264 0.08526 -0.26300
N 	N 	0.24479 0.38849 0.88242 -0.13900
N 	N 	0.78131 0.24061 0.11378 -0.14400
N 	N 	0.86822 0.38990 0.91724 -0.26400
N 	N 	0.80299 0.68187 0.75030 -0.17500
N 	N 	0.77360 0.69213 0.71524 -0.21800
N 	N 	0.78054 0.71043 0.78652 -0.21600
N 	N 	0.89569 0.68859 0.61352 -0.20400
N 	N 	0.79264 0.75293 0.58526 -0.26300
N 	N 	0.88849 0.87279 0.38242 -0.13900
N 	N 	0.74061 0.10491 0.61378 -0.14400
N 	N 	0.88990 0.21454 0.41724 -0.26400
N 	N 	0.94671 0.56783 0.75030 -0.17500
N 	N 	0.01116 0.59263 0.71524 -0.21800
N 	N 	0.93294 0.50305 0.78652 -0.21600
N 	N 	0.99079 0.69789 0.61352 -0.20300
N 	N 	0.12210 0.66181 0.58526 -0.26300
N 	N 	0.22909 0.74479 0.38242 -0.14000
N 	N 	0.14561 0.28131 0.61378 -0.14400
N 	N 	0.19286 0.36822 0.41724 -0.26400
N 	N 	0.81813 0.55329 0.74970 -0.17500
N 	N 	0.80787 0.48884 0.78476 -0.21800
N 	N 	0.78957 0.56706 0.71348 -0.21600
N 	N 	0.81141 0.50921 0.88648 -0.20400
N 	N 	0.74707 0.37790 0.91474 -0.26300
N 	N 	0.62721 0.27091 0.11758 -0.14000
N 	N 	0.39509 0.35439 0.88622 -0.14400
N 	N 	0.28546 0.30714 0.08276 -0.26400
N 	N 	0.93217 0.69701 0.74970 -0.17500
N 	N 	0.90737 0.72640 0.78476 -0.21800
N 	N 	0.99695 0.71946 0.71348 -0.21600
N 	N 	0.80211 0.60431 0.88648 -0.20400
N 	N 	0.83819 0.70736 0.91474 -0.26300
N 	N 	0.75521 0.61151 0.11758 -0.13900
N 	N 	0.21869 0.75939 0.88622 -0.14400
N 	N 	0.13178 0.61010 0.08276 -0.26400
N 	N 	0.19701 0.31813 0.24970 -0.17500
N 	N 	0.22640 0.30787 0.28476 -0.21800
N 	N 	0.21946 0.28957 0.21348 -0.21600
N 	N 	0.10431 0.31141 0.38648 -0.20400
N 	N 	0.20736 0.24707 0.41474 -0.26300
N 	N 	0.11151 0.12721 0.61758 -0.13900
N 	N 	0.25939 0.89509 0.38622 -0.14400
N 	N 	0.11010 0.78546 0.58276 -0.26400
N 	N 	0.05329 0.43217 0.24970 -0.17500
N 	N 	0.98884 0.40737 0.28476 -0.21800
N 	N 	0.06706 0.49695 0.21348 -0.21600
N 	N 	0.00921 0.30211 0.38648 -0.20300
N 	N 	0.87790 0.33819 0.41474 -0.26300
N 	N 	0.77091 0.25521 0.61758 -0.14000
N 	N 	0.85439 0.71869 0.38622 -0.14400
N 	N 	0.80714 0.63178 0.58276 -0.26400
N 	N 	0.17550 0.42550 0.14900 -0.17400
N 	N 	0.92550 0.67550 0.64900 -0.17400
N 	N 	0.82450 0.57450 0.85100 -0.17400
N 	N 	0.07450 0.32450 0.35100 -0.17400
