data_crystal

_cell_length_a 13.10200
_cell_length_b 26.10400
_cell_length_c 26.27900
_cell_angle_alpha 90.00000
_cell_angle_beta  90.00000
_cell_angle_gamma 93.92300

_symmetry_space_group_name_	'P 1'
_symmetry_space_group_name_H-M	'P 1'

loop_
_symmetry_equiv_pos_as_xyz
  x,y,z

loop_
_atom_site_label
_atom_site_type_symbol
_atom_site_fract_x
_atom_site_fract_y
_atom_site_fract_z
_atom_site_charge
Tb	Tb	0.52724 0.61657 0.70988 1.93900
Tb	Tb	0.52724 0.11657 0.79012 1.93900
V 	V 	0.86116 0.69552 0.20389 1.73900
V 	V 	0.87917 0.57114 0.19337 1.74200
V 	V 	0.06815 0.65156 0.15410 1.73600
V 	V 	0.08573 0.58160 0.24461 1.74600
V 	V 	0.06751 0.70543 0.25571 1.74000
V 	V 	0.87879 0.62503 0.29497 1.73200
V 	V 	0.86116 0.19552 0.29611 1.74000
V 	V 	0.87917 0.07114 0.30663 1.74300
V 	V 	0.06815 0.15156 0.34590 1.73700
V 	V 	0.08573 0.08160 0.25539 1.74600
V 	V 	0.06751 0.20543 0.24429 1.73900
V 	V 	0.87879 0.12503 0.20503 1.73200
H 	H 	0.97640 0.67290 0.39220 -0.03200
H 	H 	0.06910 0.71130 0.37260 -0.03500
H 	H 	0.22460 0.67670 0.33520 -0.04100
H 	H 	0.23400 0.61620 0.32800 -0.04100
H 	H 	0.09100 0.55360 0.36210 -0.01800
H 	H 	0.98930 0.57670 0.38430 -0.02600
H 	H 	0.14940 0.69990 0.43990 0.04900
H 	H 	0.24770 0.68400 0.40890 0.05200
H 	H 	0.88270 0.56330 0.07570 -0.04100
H 	H 	0.97180 0.60430 0.05710 -0.04400
H 	H 	0.95210 0.70140 0.06680 -0.03300
H 	H 	0.85030 0.72020 0.09250 -0.03600
H 	H 	0.71010 0.65650 0.11870 -0.02900
H 	H 	0.72180 0.59600 0.11560 -0.03800
H 	H 	0.74970 0.70520 0.01220 0.06000
H 	H 	0.66120 0.66500 0.03360 0.06000
H 	H 	0.75800 0.72420 0.93540 0.06100
H 	H 	0.70880 0.70460 0.84490 0.00900
H 	H 	0.59190 0.56340 0.86780 0.03300
H 	H 	0.63530 0.57530 0.96090 0.06000
H 	H 	0.45850 0.61020 0.52290 0.03200
H 	H 	0.37020 0.63320 0.44880 0.06900
H 	H 	0.15110 0.68960 0.53630 0.06200
H 	H 	0.23910 0.66680 0.61150 0.02400
H 	H 	0.41490 0.73440 0.67980 0.00100
H 	H 	0.38630 0.81590 0.70470 0.04000
H 	H 	0.68850 0.84310 0.73050 0.06500
H 	H 	0.71150 0.76170 0.70340 0.01200
H 	H 	0.63300 0.00250 0.76770 0.02000
H 	H 	0.66100 0.91980 0.73480 0.02900
H 	H 	0.36110 0.88090 0.74900 0.05500
H 	H 	0.33370 0.96070 0.77570 0.02800
H 	H 	0.28580 0.69420 0.73840 -0.01200
H 	H 	0.11160 0.68570 0.72590 0.06500
H 	H 	0.11270 0.53430 0.75510 0.05500
H 	H 	0.28690 0.54760 0.77330 -0.00100
H 	H 	0.77930 0.66840 0.72180 0.00500
H 	H 	0.94800 0.67490 0.74680 0.03500
H 	H 	0.97400 0.52990 0.70500 0.04700
H 	H 	0.80860 0.52540 0.67500 0.00600
H 	H 	0.13740 0.60090 0.43940 0.10200
H 	H 	0.82230 0.61390 0.00890 0.09700
H 	H 	0.97640 0.17290 0.10780 -0.02300
H 	H 	0.06910 0.21130 0.12740 -0.03000
H 	H 	0.22460 0.17670 0.16480 -0.04000
H 	H 	0.23400 0.11620 0.17200 -0.04000
H 	H 	0.09100 0.05360 0.13790 -0.01400
H 	H 	0.98930 0.07670 0.11570 -0.01800
H 	H 	0.14940 0.19990 0.06010 0.04600
H 	H 	0.24770 0.18400 0.09110 0.05200
H 	H 	0.88270 0.06330 0.42430 -0.04100
H 	H 	0.97180 0.10430 0.44290 -0.04400
H 	H 	0.95210 0.20140 0.43320 -0.03400
H 	H 	0.85030 0.22020 0.40750 -0.03700
H 	H 	0.71010 0.15650 0.38130 -0.02900
H 	H 	0.72180 0.09600 0.38440 -0.03800
H 	H 	0.74970 0.20520 0.48780 0.06000
H 	H 	0.66120 0.16500 0.46640 0.06100
H 	H 	0.75800 0.22420 0.56460 0.06200
H 	H 	0.70880 0.20460 0.65510 0.00900
H 	H 	0.59190 0.06340 0.63220 0.03200
H 	H 	0.63530 0.07530 0.53910 0.06100
H 	H 	0.45850 0.11020 0.97710 0.03200
H 	H 	0.37020 0.13320 0.05120 0.06800
H 	H 	0.15110 0.18960 0.96370 0.06100
H 	H 	0.23910 0.16680 0.88850 0.02400
H 	H 	0.41490 0.23440 0.82020 0.00100
H 	H 	0.38630 0.31590 0.79530 0.04000
H 	H 	0.68850 0.34310 0.76950 0.06500
H 	H 	0.71150 0.26170 0.79660 0.01200
H 	H 	0.63300 0.50250 0.73230 0.01900
H 	H 	0.66100 0.41980 0.76520 0.03000
H 	H 	0.36110 0.38090 0.75100 0.05500
H 	H 	0.33370 0.46070 0.72430 0.02800
H 	H 	0.28580 0.19420 0.76160 -0.01200
H 	H 	0.11160 0.18570 0.77410 0.06400
H 	H 	0.11270 0.03430 0.74490 0.05300
H 	H 	0.28690 0.04760 0.72670 -0.00100
H 	H 	0.77930 0.16840 0.77820 0.00500
H 	H 	0.94800 0.17490 0.75320 0.03700
H 	H 	0.97400 0.02990 0.79500 0.04800
H 	H 	0.80860 0.02540 0.82500 0.00500
H 	H 	0.13740 0.10090 0.06060 0.10100
H 	H 	0.82230 0.11390 0.49110 0.09600
C 	C 	0.02880 0.67870 0.36530 0.11500
C 	C 	0.18620 0.64390 0.32630 0.16000
C 	C 	0.10060 0.63310 0.36410 -0.12500
C 	C 	0.04370 0.58140 0.35830 0.09500
C 	C 	0.19700 0.67260 0.43540 -0.08600
C 	C 	0.91890 0.59690 0.08350 0.13500
C 	C 	0.90060 0.69370 0.09380 0.12400
C 	C 	0.84350 0.63860 0.08330 -0.12600
C 	C 	0.75920 0.62950 0.12240 0.13300
C 	C 	0.72300 0.66880 0.01220 -0.10300
C 	C 	0.70000 0.64990 0.95700 0.06800
C 	C 	0.72580 0.69230 0.92460 -0.12500
C 	C 	0.69490 0.67930 0.87040 0.04500
C 	C 	0.65150 0.63650 0.85730 -0.12600
C 	C 	0.62400 0.59390 0.88200 0.02700
C 	C 	0.65100 0.60250 0.93800 -0.11200
C 	C 	0.61750 0.62980 0.80530 0.32600
C 	C 	0.41350 0.62390 0.62070 0.31200
C 	C 	0.35790 0.63610 0.57310 -0.09600
C 	C 	0.39600 0.62640 0.52590 0.03000
C 	C 	0.34280 0.64030 0.48130 -0.11800
C 	C 	0.25210 0.66380 0.48460 0.07200
C 	C 	0.21370 0.67350 0.53340 -0.11800
C 	C 	0.26580 0.65990 0.57880 0.02400
C 	C 	0.47090 0.75700 0.69010 0.04900
C 	C 	0.45400 0.80500 0.70540 -0.12000
C 	C 	0.53050 0.83750 0.72130 0.05400
C 	C 	0.63170 0.82090 0.72020 -0.13000
C 	C 	0.64440 0.77340 0.70430 0.05800
C 	C 	0.51490 0.89210 0.73760 0.02700
C 	C 	0.57710 0.97770 0.76340 0.01800
C 	C 	0.59370 0.92790 0.74370 -0.08600
C 	C 	0.41740 0.90570 0.75160 -0.10600
C 	C 	0.40180 0.95250 0.76850 0.02500
C 	C 	0.24910 0.66210 0.74420 0.07900
C 	C 	0.14650 0.65640 0.73520 -0.14500
C 	C 	0.09230 0.61020 0.73930 0.06500
C 	C 	0.14610 0.56770 0.75310 -0.13300
C 	C 	0.24950 0.57600 0.76380 0.06100
C 	C 	0.82010 0.64000 0.71780 0.04300
C 	C 	0.91940 0.64380 0.73230 -0.10900
C 	C 	0.97910 0.60290 0.72610 0.03600
C 	C 	0.93520 0.55930 0.70720 -0.12000
C 	C 	0.83690 0.55580 0.69100 0.04200
C 	C 	0.02880 0.17870 0.13470 0.09600
C 	C 	0.18620 0.14390 0.17370 0.15600
C 	C 	0.10060 0.13310 0.13590 -0.11800
C 	C 	0.04370 0.08140 0.14170 0.07600
C 	C 	0.19700 0.17260 0.06460 -0.08300
C 	C 	0.91890 0.09690 0.41650 0.13600
C 	C 	0.90060 0.19370 0.40620 0.12400
C 	C 	0.84350 0.13860 0.41670 -0.12700
C 	C 	0.75920 0.12950 0.37760 0.13400
C 	C 	0.72300 0.16880 0.48780 -0.10700
C 	C 	0.70000 0.14990 0.54300 0.07200
C 	C 	0.72580 0.19230 0.57540 -0.12600
C 	C 	0.69490 0.17930 0.62960 0.04700
C 	C 	0.65150 0.13650 0.64270 -0.12700
C 	C 	0.62400 0.09390 0.61800 0.02800
C 	C 	0.65100 0.10250 0.56200 -0.11400
C 	C 	0.61750 0.12980 0.69470 0.32700
C 	C 	0.41350 0.12390 0.87930 0.31200
C 	C 	0.35790 0.13610 0.92690 -0.09500
C 	C 	0.39600 0.12640 0.97410 0.03100
C 	C 	0.34280 0.14030 0.01870 -0.11800
C 	C 	0.25210 0.16380 0.01540 0.06700
C 	C 	0.21370 0.17350 0.96660 -0.11300
C 	C 	0.26580 0.15990 0.92120 0.02200
C 	C 	0.47090 0.25700 0.80990 0.04900
C 	C 	0.45400 0.30500 0.79460 -0.12000
C 	C 	0.53050 0.33750 0.77870 0.05300
C 	C 	0.63170 0.32090 0.77980 -0.13000
C 	C 	0.64440 0.27340 0.79570 0.05800
C 	C 	0.51490 0.39210 0.76240 0.02700
C 	C 	0.57710 0.47770 0.73660 0.02000
C 	C 	0.59370 0.42790 0.75630 -0.08700
C 	C 	0.41740 0.40570 0.74840 -0.10600
C 	C 	0.40180 0.45250 0.73150 0.02600
C 	C 	0.24910 0.16210 0.75580 0.07800
C 	C 	0.14650 0.15640 0.76480 -0.14200
C 	C 	0.09230 0.11020 0.76070 0.06100
C 	C 	0.14610 0.06770 0.74690 -0.13100
C 	C 	0.24950 0.07600 0.73620 0.05900
C 	C 	0.82010 0.14000 0.78220 0.04400
C 	C 	0.91940 0.14380 0.76770 -0.11200
C 	C 	0.97910 0.10290 0.77390 0.04100
C 	C 	0.93520 0.05930 0.79280 -0.12300
C 	C 	0.83690 0.05580 0.80900 0.04400
N 	N 	0.14550 0.62860 0.42040 -0.14800
N 	N 	0.79960 0.63650 0.03020 -0.14400
N 	N 	0.77990 0.59630 0.69800 -0.06000
N 	N 	0.56470 0.74110 0.68940 -0.07100
N 	N 	0.29760 0.62190 0.76110 -0.07400
N 	N 	0.48020 0.98960 0.77600 -0.04700
N 	N 	0.14550 0.12860 0.07960 -0.15000
N 	N 	0.79960 0.13650 0.46980 -0.14400
N 	N 	0.77990 0.09630 0.80200 -0.06100
N 	N 	0.56470 0.24110 0.81060 -0.07100
N 	N 	0.29760 0.12190 0.73890 -0.07400
N 	N 	0.48020 0.48960 0.72400 -0.04800
O 	O 	0.98010 0.68120 0.31570 -0.68000
O 	O 	0.99850 0.58050 0.30620 -0.66600
O 	O 	0.14750 0.64710 0.27650 -0.68700
O 	O 	0.80130 0.67180 0.26390 -0.77900
O 	O 	0.95420 0.73860 0.23450 -0.79200
O 	O 	0.82370 0.57060 0.25470 -0.79200
O 	O 	0.97410 0.63750 0.22450 -1.05000
O 	O 	0.12450 0.70440 0.19350 -0.79100
O 	O 	0.99290 0.53810 0.21410 -0.78200
O 	O 	0.14340 0.60500 0.18550 -0.79600
O 	O 	0.79710 0.63000 0.17350 -0.68000
O 	O 	0.95030 0.69550 0.14240 -0.68500
O 	O 	0.96650 0.59480 0.13280 -0.67800
O 	O 	0.61180 0.66610 0.77440 -0.43300
O 	O 	0.59610 0.58370 0.78760 -0.40400
O 	O 	0.37660 0.63570 0.66310 -0.41200
O 	O 	0.49990 0.60430 0.61830 -0.38500
O 	O 	0.68280 0.59150 0.68220 -0.32900
O 	O 	0.58280 0.69550 0.67070 -0.30500
O 	O 	0.39940 0.62810 0.76980 -0.31800
O 	O 	0.46010 0.03320 0.79670 -0.33300
O 	O 	0.98010 0.18120 0.18430 -0.67400
O 	O 	0.99850 0.08050 0.19380 -0.66000
O 	O 	0.14750 0.14710 0.22350 -0.68700
O 	O 	0.80130 0.17180 0.23610 -0.77900
O 	O 	0.95420 0.23860 0.26550 -0.79100
O 	O 	0.82370 0.07060 0.24530 -0.79200
O 	O 	0.97410 0.13750 0.27550 -1.04900
O 	O 	0.12450 0.20440 0.30650 -0.79100
O 	O 	0.99290 0.03810 0.28590 -0.78100
O 	O 	0.14340 0.10500 0.31450 -0.79700
O 	O 	0.79710 0.13000 0.32650 -0.68000
O 	O 	0.95030 0.19550 0.35760 -0.68500
O 	O 	0.96650 0.09480 0.36720 -0.67800
O 	O 	0.61180 0.16610 0.72560 -0.43300
O 	O 	0.59610 0.08370 0.71240 -0.40400
O 	O 	0.37660 0.13570 0.83690 -0.41200
O 	O 	0.49990 0.10430 0.88170 -0.38500
O 	O 	0.68280 0.09150 0.81780 -0.32900
O 	O 	0.58280 0.19550 0.82930 -0.30600
O 	O 	0.39940 0.12810 0.73020 -0.31800
O 	O 	0.46010 0.53320 0.70330 -0.33300
Tb	Tb	0.47276 0.88343 0.20988 1.94000
Tb	Tb	0.47276 0.38343 0.29012 1.94000
V 	V 	0.13884 0.80448 0.70389 1.74000
V 	V 	0.12083 0.92886 0.69337 1.74300
V 	V 	0.93185 0.84844 0.65410 1.73700
V 	V 	0.91427 0.91840 0.74461 1.74600
V 	V 	0.93249 0.79457 0.75571 1.73900
V 	V 	0.12121 0.87497 0.79497 1.73200
V 	V 	0.13884 0.30448 0.79611 1.74000
V 	V 	0.12083 0.42886 0.80663 1.74300
V 	V 	0.93185 0.34844 0.84590 1.73700
V 	V 	0.91427 0.41840 0.75539 1.74700
V 	V 	0.93249 0.29457 0.74429 1.74000
V 	V 	0.12121 0.37497 0.70503 1.73200
H 	H 	0.02360 0.82710 0.89220 -0.02300
H 	H 	0.93090 0.78870 0.87260 -0.03000
H 	H 	0.77540 0.82330 0.83520 -0.04000
H 	H 	0.76600 0.88380 0.82800 -0.04000
H 	H 	0.90900 0.94640 0.86210 -0.01400
H 	H 	0.01070 0.92330 0.88430 -0.01800
H 	H 	0.85060 0.80010 0.93990 0.04600
H 	H 	0.75230 0.81600 0.90890 0.05200
H 	H 	0.11730 0.93670 0.57570 -0.04100
H 	H 	0.02820 0.89570 0.55710 -0.04400
H 	H 	0.04790 0.79860 0.56680 -0.03400
H 	H 	0.14970 0.77980 0.59250 -0.03700
H 	H 	0.28990 0.84350 0.61870 -0.02900
H 	H 	0.27820 0.90400 0.61560 -0.03800
H 	H 	0.25030 0.79480 0.51220 0.06000
H 	H 	0.33880 0.83500 0.53360 0.06100
H 	H 	0.24200 0.77580 0.43540 0.06200
H 	H 	0.29120 0.79540 0.34490 0.00900
H 	H 	0.40810 0.93660 0.36780 0.03200
H 	H 	0.36470 0.92470 0.46090 0.06100
H 	H 	0.54150 0.88980 0.02290 0.03200
H 	H 	0.62980 0.86680 0.94880 0.06800
H 	H 	0.84890 0.81040 0.03630 0.06100
H 	H 	0.76090 0.83320 0.11150 0.02400
H 	H 	0.58510 0.76560 0.17980 0.00100
H 	H 	0.61370 0.68410 0.20470 0.04000
H 	H 	0.31150 0.65690 0.23050 0.06500
H 	H 	0.28850 0.73830 0.20340 0.01200
H 	H 	0.36700 0.49750 0.26770 0.01900
H 	H 	0.33900 0.58020 0.23480 0.03000
H 	H 	0.63890 0.61910 0.24900 0.05500
H 	H 	0.66630 0.53930 0.27570 0.02800
H 	H 	0.71420 0.80580 0.23840 -0.01200
H 	H 	0.88840 0.81430 0.22590 0.06400
H 	H 	0.88730 0.96570 0.25510 0.05300
H 	H 	0.71310 0.95240 0.27330 -0.00100
H 	H 	0.22070 0.83160 0.22180 0.00500
H 	H 	0.05200 0.82510 0.24680 0.03700
H 	H 	0.02600 0.97010 0.20500 0.04800
H 	H 	0.19140 0.97460 0.17500 0.00500
H 	H 	0.86260 0.89910 0.93940 0.10100
H 	H 	0.17770 0.88610 0.50890 0.09600
H 	H 	0.02360 0.32710 0.60780 -0.03200
H 	H 	0.93090 0.28870 0.62740 -0.03500
H 	H 	0.77540 0.32330 0.66480 -0.04100
H 	H 	0.76600 0.38380 0.67200 -0.04100
H 	H 	0.90900 0.44640 0.63790 -0.01800
H 	H 	0.01070 0.42330 0.61570 -0.02600
H 	H 	0.85060 0.30010 0.56010 0.04900
H 	H 	0.75230 0.31600 0.59110 0.05200
H 	H 	0.11730 0.43670 0.92430 -0.04100
H 	H 	0.02820 0.39570 0.94290 -0.04400
H 	H 	0.04790 0.29860 0.93320 -0.03300
H 	H 	0.14970 0.27980 0.90750 -0.03600
H 	H 	0.28990 0.34350 0.88130 -0.02900
H 	H 	0.27820 0.40400 0.88440 -0.03800
H 	H 	0.25030 0.29480 0.98780 0.06000
H 	H 	0.33880 0.33500 0.96640 0.06000
H 	H 	0.24200 0.27580 0.06460 0.06100
H 	H 	0.29120 0.29540 0.15510 0.00900
H 	H 	0.40810 0.43660 0.13220 0.03300
H 	H 	0.36470 0.42470 0.03910 0.06000
H 	H 	0.54150 0.38980 0.47710 0.03200
H 	H 	0.62980 0.36680 0.55120 0.06900
H 	H 	0.84890 0.31040 0.46370 0.06200
H 	H 	0.76090 0.33320 0.38850 0.02400
H 	H 	0.58510 0.26560 0.32020 0.00100
H 	H 	0.61370 0.18410 0.29530 0.04000
H 	H 	0.31150 0.15690 0.26950 0.06500
H 	H 	0.28850 0.23830 0.29660 0.01200
H 	H 	0.36700 0.99750 0.23230 0.02000
H 	H 	0.33900 0.08020 0.26520 0.02900
H 	H 	0.63890 0.11910 0.25100 0.05500
H 	H 	0.66630 0.03930 0.22430 0.02800
H 	H 	0.71420 0.30580 0.26160 -0.01200
H 	H 	0.88840 0.31430 0.27410 0.06500
H 	H 	0.88730 0.46570 0.24490 0.05500
H 	H 	0.71310 0.45240 0.22670 -0.00100
H 	H 	0.22070 0.33160 0.27820 0.00500
H 	H 	0.05200 0.32510 0.25320 0.03500
H 	H 	0.02600 0.47010 0.29500 0.04700
H 	H 	0.19140 0.47460 0.32500 0.00600
H 	H 	0.86260 0.39910 0.56060 0.10200
H 	H 	0.17770 0.38610 0.99110 0.09700
C 	C 	0.97120 0.82130 0.86530 0.09600
C 	C 	0.81380 0.85610 0.82630 0.15600
C 	C 	0.89940 0.86690 0.86410 -0.11800
C 	C 	0.95630 0.91860 0.85830 0.07600
C 	C 	0.80300 0.82740 0.93540 -0.08300
C 	C 	0.08110 0.90310 0.58350 0.13600
C 	C 	0.09940 0.80630 0.59380 0.12400
C 	C 	0.15650 0.86140 0.58330 -0.12700
C 	C 	0.24080 0.87050 0.62240 0.13400
C 	C 	0.27700 0.83120 0.51220 -0.10700
C 	C 	0.30000 0.85010 0.45700 0.07200
C 	C 	0.27420 0.80770 0.42460 -0.12600
C 	C 	0.30510 0.82070 0.37040 0.04700
C 	C 	0.34850 0.86350 0.35730 -0.12700
C 	C 	0.37600 0.90610 0.38200 0.02800
C 	C 	0.34900 0.89750 0.43800 -0.11400
C 	C 	0.38250 0.87020 0.30530 0.32700
C 	C 	0.58650 0.87610 0.12070 0.31200
C 	C 	0.64210 0.86390 0.07310 -0.09500
C 	C 	0.60400 0.87360 0.02590 0.03100
C 	C 	0.65720 0.85970 0.98130 -0.11800
C 	C 	0.74790 0.83620 0.98460 0.06700
C 	C 	0.78630 0.82650 0.03340 -0.11300
C 	C 	0.73420 0.84010 0.07880 0.02200
C 	C 	0.52910 0.74300 0.19010 0.04900
C 	C 	0.54600 0.69500 0.20540 -0.12000
C 	C 	0.46950 0.66250 0.22130 0.05300
C 	C 	0.36830 0.67910 0.22020 -0.13000
C 	C 	0.35560 0.72660 0.20430 0.05800
C 	C 	0.48510 0.60790 0.23760 0.02700
C 	C 	0.42290 0.52230 0.26340 0.02000
C 	C 	0.40630 0.57210 0.24370 -0.08700
C 	C 	0.58260 0.59430 0.25160 -0.10600
C 	C 	0.59820 0.54750 0.26850 0.02600
C 	C 	0.75090 0.83790 0.24420 0.07800
C 	C 	0.85350 0.84360 0.23520 -0.14200
C 	C 	0.90770 0.88980 0.23930 0.06100
C 	C 	0.85390 0.93230 0.25310 -0.13100
C 	C 	0.75050 0.92400 0.26380 0.05900
C 	C 	0.17990 0.86000 0.21780 0.04400
C 	C 	0.08060 0.85620 0.23230 -0.11200
C 	C 	0.02090 0.89710 0.22610 0.04100
C 	C 	0.06480 0.94070 0.20720 -0.12300
C 	C 	0.16310 0.94420 0.19100 0.04400
C 	C 	0.97120 0.32130 0.63470 0.11500
C 	C 	0.81380 0.35610 0.67370 0.16000
C 	C 	0.89940 0.36690 0.63590 -0.12500
C 	C 	0.95630 0.41860 0.64170 0.09500
C 	C 	0.80300 0.32740 0.56460 -0.08600
C 	C 	0.08110 0.40310 0.91650 0.13500
C 	C 	0.09940 0.30630 0.90620 0.12400
C 	C 	0.15650 0.36140 0.91670 -0.12600
C 	C 	0.24080 0.37050 0.87760 0.13300
C 	C 	0.27700 0.33120 0.98780 -0.10300
C 	C 	0.30000 0.35010 0.04300 0.06800
C 	C 	0.27420 0.30770 0.07540 -0.12500
C 	C 	0.30510 0.32070 0.12960 0.04500
C 	C 	0.34850 0.36350 0.14270 -0.12600
C 	C 	0.37600 0.40610 0.11800 0.02700
C 	C 	0.34900 0.39750 0.06200 -0.11200
C 	C 	0.38250 0.37020 0.19470 0.32600
C 	C 	0.58650 0.37610 0.37930 0.31200
C 	C 	0.64210 0.36390 0.42690 -0.09600
C 	C 	0.60400 0.37360 0.47410 0.03000
C 	C 	0.65720 0.35970 0.51870 -0.11800
C 	C 	0.74790 0.33620 0.51540 0.07200
C 	C 	0.78630 0.32650 0.46660 -0.11800
C 	C 	0.73420 0.34010 0.42120 0.02400
C 	C 	0.52910 0.24300 0.30990 0.04900
C 	C 	0.54600 0.19500 0.29460 -0.12000
C 	C 	0.46950 0.16250 0.27870 0.05400
C 	C 	0.36830 0.17910 0.27980 -0.13000
C 	C 	0.35560 0.22660 0.29570 0.05800
C 	C 	0.48510 0.10790 0.26240 0.02700
C 	C 	0.42290 0.02230 0.23660 0.01800
C 	C 	0.40630 0.07210 0.25630 -0.08600
C 	C 	0.58260 0.09430 0.24840 -0.10600
C 	C 	0.59820 0.04750 0.23150 0.02500
C 	C 	0.75090 0.33790 0.25580 0.07900
C 	C 	0.85350 0.34360 0.26480 -0.14500
C 	C 	0.90770 0.38980 0.26070 0.06500
C 	C 	0.85390 0.43230 0.24690 -0.13300
C 	C 	0.75050 0.42400 0.23620 0.06100
C 	C 	0.17990 0.36000 0.28220 0.04300
C 	C 	0.08060 0.35620 0.26770 -0.10900
C 	C 	0.02090 0.39710 0.27390 0.03600
C 	C 	0.06480 0.44070 0.29280 -0.12000
C 	C 	0.16310 0.44420 0.30900 0.04200
N 	N 	0.85450 0.87140 0.92040 -0.15000
N 	N 	0.20040 0.86350 0.53020 -0.14400
N 	N 	0.22010 0.90370 0.19800 -0.06100
N 	N 	0.43530 0.75890 0.18940 -0.07100
N 	N 	0.70240 0.87810 0.26110 -0.07400
N 	N 	0.51980 0.51040 0.27600 -0.04800
N 	N 	0.85450 0.37140 0.57960 -0.14800
N 	N 	0.20040 0.36350 0.96980 -0.14400
N 	N 	0.22010 0.40370 0.30200 -0.06000
N 	N 	0.43530 0.25890 0.31060 -0.07100
N 	N 	0.70240 0.37810 0.23890 -0.07400
N 	N 	0.51980 0.01040 0.22400 -0.04700
O 	O 	0.01990 0.81880 0.81570 -0.67400
O 	O 	0.00150 0.91950 0.80620 -0.66000
O 	O 	0.85250 0.85290 0.77650 -0.68700
O 	O 	0.19870 0.82820 0.76390 -0.77900
O 	O 	0.04580 0.76140 0.73450 -0.79100
O 	O 	0.17630 0.92940 0.75470 -0.79200
O 	O 	0.02590 0.86250 0.72450 -1.04900
O 	O 	0.87550 0.79560 0.69350 -0.79100
O 	O 	0.00710 0.96190 0.71410 -0.78100
O 	O 	0.85660 0.89500 0.68550 -0.79700
O 	O 	0.20290 0.87000 0.67350 -0.68000
O 	O 	0.04970 0.80450 0.64240 -0.68500
O 	O 	0.03350 0.90520 0.63280 -0.67800
O 	O 	0.38820 0.83390 0.27440 -0.43300
O 	O 	0.40390 0.91630 0.28760 -0.40400
O 	O 	0.62340 0.86430 0.16310 -0.41200
O 	O 	0.50010 0.89570 0.11830 -0.38500
O 	O 	0.31720 0.90850 0.18220 -0.32900
O 	O 	0.41720 0.80450 0.17070 -0.30600
O 	O 	0.60060 0.87190 0.26980 -0.31800
O 	O 	0.53990 0.46680 0.29670 -0.33300
O 	O 	0.01990 0.31880 0.68430 -0.68000
O 	O 	0.00150 0.41950 0.69380 -0.66600
O 	O 	0.85250 0.35290 0.72350 -0.68700
O 	O 	0.19870 0.32820 0.73610 -0.77900
O 	O 	0.04580 0.26140 0.76550 -0.79200
O 	O 	0.17630 0.42940 0.74530 -0.79200
O 	O 	0.02590 0.36250 0.77550 -1.05000
O 	O 	0.87550 0.29560 0.80650 -0.79100
O 	O 	0.00710 0.46190 0.78590 -0.78200
O 	O 	0.85660 0.39500 0.81450 -0.79600
O 	O 	0.20290 0.37000 0.82650 -0.68000
O 	O 	0.04970 0.30450 0.85760 -0.68500
O 	O 	0.03350 0.40520 0.86720 -0.67800
O 	O 	0.38820 0.33390 0.22560 -0.43300
O 	O 	0.40390 0.41630 0.21240 -0.40400
O 	O 	0.62340 0.36430 0.33690 -0.41200
O 	O 	0.50010 0.39570 0.38170 -0.38500
O 	O 	0.31720 0.40850 0.31780 -0.32900
O 	O 	0.41720 0.30450 0.32930 -0.30500
O 	O 	0.60060 0.37190 0.23020 -0.31800
O 	O 	0.53990 0.96680 0.20330 -0.33300
