data_crystal

_cell_length_a 18.69100
_cell_length_b 18.69100
_cell_length_c 9.42300
_cell_angle_alpha 90.00000
_cell_angle_beta  90.00000
_cell_angle_gamma 90.00000

_symmetry_space_group_name_	'P 1'
_symmetry_space_group_name_H-M	'P 1'

loop_
_symmetry_equiv_pos_as_xyz
  x,y,z

loop_
_atom_site_label
_atom_site_type_symbol
_atom_site_fract_x
_atom_site_fract_y
_atom_site_fract_z
_atom_site_charge
P 	P 	0.06489 0.55720 0.33558 0.83400
O 	O 	0.05926 0.62405 0.24510 -0.79500
O 	O 	0.07494 0.58091 0.48910 -0.76200
O 	O 	0.12878 0.51258 0.29380 -0.81200
O 	O 	0.99539 0.51641 0.32140 -0.84200
Al	Al	0.06521 0.66548 0.08049 2.39500
P 	P 	0.94966 0.66641 0.83978 0.83000
O 	O 	0.98524 0.65644 0.98360 -0.85200
O 	O 	0.99713 0.63711 0.72160 -0.83100
O 	O 	0.87815 0.62916 0.84260 -0.78100
O 	O 	0.93742 0.74461 0.80880 -0.76600
Al	Al	0.16393 0.45581 0.15605 2.39000
P 	P 	0.16582 0.56733 0.90451 0.84400
O 	O 	0.15410 0.49995 0.98860 -0.84200
O 	O 	0.13802 0.63261 0.98300 -0.83400
O 	O 	0.13009 0.56064 0.76090 -0.79400
O 	O 	0.24457 0.58017 0.87770 -0.77100
Al	Al	0.05065 0.56577 0.66541 2.39500
P 	P 	0.43511 0.94280 0.33558 0.83500
O 	O 	0.44074 0.87595 0.24510 -0.79300
O 	O 	0.42506 0.91909 0.48910 -0.76400
O 	O 	0.37122 0.98742 0.29380 -0.81400
O 	O 	0.50461 0.98359 0.32140 -0.84400
Al	Al	0.43479 0.83452 0.08049 2.39500
P 	P 	0.55034 0.83359 0.83978 0.83000
O 	O 	0.51476 0.84356 0.98360 -0.85200
O 	O 	0.50287 0.86289 0.72160 -0.83200
O 	O 	0.62185 0.87084 0.84260 -0.78100
O 	O 	0.56258 0.75539 0.80880 -0.76600
Al	Al	0.33607 0.04419 0.15605 2.39000
P 	P 	0.33418 0.93267 0.90451 0.83600
O 	O 	0.34590 0.00005 0.98860 -0.83500
O 	O 	0.36198 0.86739 0.98300 -0.83600
O 	O 	0.36991 0.93936 0.76090 -0.79500
O 	O 	0.25543 0.91983 0.87770 -0.77300
Al	Al	0.44935 0.93423 0.66541 2.39500
P 	P 	0.94280 0.06489 0.33558 0.82500
O 	O 	0.87595 0.05926 0.24510 -0.79600
O 	O 	0.91909 0.07494 0.48910 -0.76600
O 	O 	0.98742 0.12878 0.29380 -0.81600
O 	O 	0.98359 0.99539 0.32140 -0.83100
Al	Al	0.83452 0.06521 0.08049 2.39400
P 	P 	0.83359 0.94966 0.83978 0.83000
O 	O 	0.84356 0.98524 0.98360 -0.85100
O 	O 	0.86289 0.99713 0.72160 -0.82900
O 	O 	0.87084 0.87815 0.84260 -0.78000
O 	O 	0.75539 0.93742 0.80880 -0.76600
Al	Al	0.04419 0.16393 0.15605 2.39000
P 	P 	0.93267 0.16582 0.90451 0.83300
O 	O 	0.00005 0.15410 0.98860 -0.82900
O 	O 	0.86739 0.13802 0.98300 -0.83500
O 	O 	0.93936 0.13009 0.76090 -0.79700
O 	O 	0.91983 0.24457 0.87770 -0.77200
Al	Al	0.93423 0.05065 0.66541 2.39400
P 	P 	0.55720 0.43511 0.33558 0.83500
O 	O 	0.62405 0.44074 0.24510 -0.79400
O 	O 	0.58091 0.42506 0.48910 -0.76300
O 	O 	0.51258 0.37122 0.29380 -0.81300
O 	O 	0.51641 0.50461 0.32140 -0.84500
Al	Al	0.66548 0.43479 0.08049 2.39500
P 	P 	0.66641 0.55034 0.83978 0.83000
O 	O 	0.65644 0.51476 0.98360 -0.85100
O 	O 	0.63711 0.50287 0.72160 -0.83200
O 	O 	0.62916 0.62185 0.84260 -0.78000
O 	O 	0.74461 0.56258 0.80880 -0.76600
Al	Al	0.45581 0.33607 0.15605 2.39100
P 	P 	0.56733 0.33418 0.90451 0.84400
O 	O 	0.49995 0.34590 0.98860 -0.84400
O 	O 	0.63261 0.36198 0.98300 -0.83500
O 	O 	0.56064 0.36991 0.76090 -0.79400
O 	O 	0.58017 0.25543 0.87770 -0.77000
Al	Al	0.56577 0.44935 0.66541 2.39500
P 	P 	0.93511 0.44280 0.66442 0.83300
O 	O 	0.94074 0.37595 0.75490 -0.79600
O 	O 	0.92506 0.41909 0.51090 -0.76300
O 	O 	0.87122 0.48742 0.70620 -0.81300
O 	O 	0.00461 0.48359 0.67860 -0.84300
Al	Al	0.93479 0.33452 0.91951 2.39400
P 	P 	0.05034 0.33359 0.16022 0.83000
O 	O 	0.01476 0.34356 0.01640 -0.85200
O 	O 	0.00287 0.36289 0.27840 -0.83100
O 	O 	0.12185 0.37084 0.15740 -0.78100
O 	O 	0.06258 0.25539 0.19120 -0.76600
Al	Al	0.83607 0.54419 0.84395 2.39000
P 	P 	0.83418 0.43267 0.09549 0.84400
O 	O 	0.84590 0.50005 0.01140 -0.84200
O 	O 	0.86198 0.36739 0.01700 -0.83400
O 	O 	0.86991 0.43936 0.23910 -0.79400
O 	O 	0.75543 0.41983 0.12230 -0.77100
Al	Al	0.94935 0.43423 0.33459 2.39500
P 	P 	0.56489 0.05720 0.66442 0.83500
O 	O 	0.55926 0.12405 0.75490 -0.79300
O 	O 	0.57494 0.08091 0.51090 -0.76400
O 	O 	0.62878 0.01258 0.70620 -0.81400
O 	O 	0.49539 0.01641 0.67860 -0.84400
Al	Al	0.56521 0.16548 0.91951 2.39500
P 	P 	0.44966 0.16641 0.16022 0.83000
O 	O 	0.48524 0.15644 0.01640 -0.85200
O 	O 	0.49713 0.13711 0.27840 -0.83200
O 	O 	0.37815 0.12916 0.15740 -0.78100
O 	O 	0.43742 0.24461 0.19120 -0.76600
Al	Al	0.66393 0.95581 0.84395 2.39000
P 	P 	0.66582 0.06733 0.09549 0.83600
O 	O 	0.65410 0.99995 0.01140 -0.83500
O 	O 	0.63802 0.13261 0.01700 -0.83600
O 	O 	0.63009 0.06064 0.23910 -0.79500
O 	O 	0.74457 0.08017 0.12230 -0.77300
Al	Al	0.55065 0.06577 0.33459 2.39500
P 	P 	0.05720 0.93511 0.66442 0.82500
O 	O 	0.12405 0.94074 0.75490 -0.79600
O 	O 	0.08091 0.92506 0.51090 -0.76600
O 	O 	0.01258 0.87122 0.70620 -0.81600
O 	O 	0.01641 0.00461 0.67860 -0.83100
Al	Al	0.16548 0.93479 0.91951 2.39400
P 	P 	0.16641 0.05034 0.16022 0.83000
O 	O 	0.15644 0.01476 0.01640 -0.85100
O 	O 	0.13711 0.00287 0.27840 -0.82900
O 	O 	0.12916 0.12185 0.15740 -0.78000
O 	O 	0.24461 0.06258 0.19120 -0.76600
Al	Al	0.95581 0.83607 0.84395 2.39000
P 	P 	0.06733 0.83418 0.09549 0.83300
O 	O 	0.99995 0.84590 0.01140 -0.82900
O 	O 	0.13261 0.86198 0.01700 -0.83500
O 	O 	0.06064 0.86991 0.23910 -0.79700
O 	O 	0.08017 0.75543 0.12230 -0.77200
Al	Al	0.06577 0.94935 0.33459 2.39400
P 	P 	0.44280 0.56489 0.66442 0.83500
O 	O 	0.37595 0.55926 0.75490 -0.79400
O 	O 	0.41909 0.57494 0.51090 -0.76300
O 	O 	0.48742 0.62878 0.70620 -0.81300
O 	O 	0.48359 0.49539 0.67860 -0.84500
Al	Al	0.33452 0.56521 0.91951 2.39500
P 	P 	0.33359 0.44966 0.16022 0.83000
O 	O 	0.34356 0.48524 0.01640 -0.85100
O 	O 	0.36289 0.49713 0.27840 -0.83200
O 	O 	0.37084 0.37815 0.15740 -0.78000
O 	O 	0.25539 0.43742 0.19120 -0.76600
Al	Al	0.54419 0.66393 0.84395 2.39100
P 	P 	0.43267 0.66582 0.09549 0.84400
O 	O 	0.50005 0.65410 0.01140 -0.84400
O 	O 	0.36739 0.63802 0.01700 -0.83500
O 	O 	0.43936 0.63009 0.23910 -0.79400
O 	O 	0.41983 0.74457 0.12230 -0.77000
Al	Al	0.43423 0.55065 0.33459 2.39500
