data_crystal

_cell_length_a 18.74000
_cell_length_b 18.74000
_cell_length_c 9.43900
_cell_angle_alpha 90.00000
_cell_angle_beta  90.00000
_cell_angle_gamma 90.00000

_symmetry_space_group_name_	'P 1'
_symmetry_space_group_name_H-M	'P 1'

loop_
_symmetry_equiv_pos_as_xyz
  x,y,z

loop_
_atom_site_label
_atom_site_type_symbol
_atom_site_fract_x
_atom_site_fract_y
_atom_site_fract_z
_atom_site_charge
Al	Al	0.06610 0.55131 0.33500 2.40000
O 	O 	0.06020 0.62780 0.23960 -0.77700
O 	O 	0.08030 0.57450 0.50580 -0.76200
O 	O 	0.13700 0.50020 0.28240 -0.80200
O 	O 	0.98710 0.50510 0.31980 -0.82700
P 	P 	0.06750 0.66610 0.09240 0.76300
Al	Al	0.95474 0.66417 0.84290 2.39500
O 	O 	0.99920 0.65440 0.00600 -0.80400
O 	O 	0.00970 0.63060 0.70910 -0.79600
O 	O 	0.87350 0.62140 0.84450 -0.77000
O 	O 	0.93610 0.75240 0.80860 -0.75100
P 	P 	0.16630 0.45100 0.15960 0.73500
Al	Al	0.16560 0.56600 0.91670 2.39900
O 	O 	0.15600 0.48730 0.01140 -0.81600
O 	O 	0.13320 0.63650 0.00960 -0.82900
O 	O 	0.12340 0.55990 0.75690 -0.77300
O 	O 	0.08000 0.74700 0.12550 -0.76000
P 	P 	0.05544 0.56510 0.66390 0.77300
Al	Al	0.43390 0.94869 0.33500 2.40000
O 	O 	0.43980 0.87220 0.23960 -0.77500
O 	O 	0.41970 0.92550 0.50580 -0.76100
O 	O 	0.36300 0.99980 0.28240 -0.79900
O 	O 	0.51290 0.99490 0.31980 -0.82600
P 	P 	0.43250 0.83390 0.09240 0.77000
Al	Al	0.54526 0.83583 0.84290 2.39600
O 	O 	0.50080 0.84560 0.00600 -0.81100
O 	O 	0.49030 0.86940 0.70910 -0.79700
O 	O 	0.62650 0.87860 0.84450 -0.76900
O 	O 	0.56390 0.74760 0.80860 -0.75000
P 	P 	0.33370 0.04900 0.15960 0.73400
Al	Al	0.33440 0.93400 0.91670 2.39900
O 	O 	0.34400 0.01270 0.01140 -0.81800
O 	O 	0.36680 0.86350 0.00960 -0.82600
O 	O 	0.37660 0.94010 0.75690 -0.77600
O 	O 	0.42000 0.75300 0.12550 -0.75900
P 	P 	0.44456 0.93490 0.66390 0.77100
Al	Al	0.94869 0.06610 0.33500 2.40000
O 	O 	0.87220 0.06020 0.23960 -0.77800
O 	O 	0.92550 0.08030 0.50580 -0.76300
O 	O 	0.99980 0.13700 0.28240 -0.80200
O 	O 	0.99490 0.98710 0.31980 -0.81900
P 	P 	0.83390 0.06750 0.09240 0.76100
Al	Al	0.83583 0.95474 0.84290 2.39500
O 	O 	0.84560 0.99920 0.00600 -0.80000
O 	O 	0.86940 0.00970 0.70910 -0.79800
O 	O 	0.87860 0.87350 0.84450 -0.77000
O 	O 	0.74760 0.93610 0.80860 -0.75100
P 	P 	0.04900 0.16630 0.15960 0.73500
Al	Al	0.93400 0.16560 0.91670 2.39900
O 	O 	0.01270 0.15600 0.01140 -0.81800
O 	O 	0.86350 0.13320 0.00960 -0.82700
O 	O 	0.94010 0.12340 0.75690 -0.77500
O 	O 	0.75300 0.08000 0.12550 -0.76000
P 	P 	0.93490 0.05544 0.66390 0.76700
Al	Al	0.55131 0.43390 0.33500 2.40000
O 	O 	0.62780 0.43980 0.23960 -0.77600
O 	O 	0.57450 0.41970 0.50580 -0.76100
O 	O 	0.50020 0.36300 0.28240 -0.80100
O 	O 	0.50510 0.51290 0.31980 -0.82900
P 	P 	0.66610 0.43250 0.09240 0.77000
Al	Al	0.66417 0.54526 0.84290 2.39600
O 	O 	0.65440 0.50080 0.00600 -0.81300
O 	O 	0.63060 0.49030 0.70910 -0.79700
O 	O 	0.62140 0.62650 0.84450 -0.76800
O 	O 	0.75240 0.56390 0.80860 -0.75000
P 	P 	0.45100 0.33370 0.15960 0.73500
Al	Al	0.56600 0.33440 0.91670 2.39900
O 	O 	0.48730 0.34400 0.01140 -0.81500
O 	O 	0.63650 0.36680 0.00960 -0.82800
O 	O 	0.55990 0.37660 0.75690 -0.77400
O 	O 	0.74700 0.42000 0.12550 -0.75800
P 	P 	0.56510 0.44456 0.66390 0.77300
Al	Al	0.93390 0.44869 0.66500 2.40000
O 	O 	0.93980 0.37220 0.76040 -0.77700
O 	O 	0.91970 0.42550 0.49420 -0.76200
O 	O 	0.86300 0.49980 0.71760 -0.80200
O 	O 	0.01290 0.49490 0.68020 -0.82700
P 	P 	0.93250 0.33390 0.90760 0.76300
Al	Al	0.04526 0.33583 0.15710 2.39500
O 	O 	0.00080 0.34560 0.99400 -0.80400
O 	O 	0.99030 0.36940 0.29090 -0.79600
O 	O 	0.12650 0.37860 0.15550 -0.77000
O 	O 	0.06390 0.24760 0.19140 -0.75100
P 	P 	0.83370 0.54900 0.84040 0.73500
Al	Al	0.83440 0.43400 0.08330 2.39900
O 	O 	0.84400 0.51270 0.98860 -0.81600
O 	O 	0.86680 0.36350 0.99040 -0.82900
O 	O 	0.87660 0.44010 0.24310 -0.77300
O 	O 	0.92000 0.25300 0.87450 -0.76000
P 	P 	0.94456 0.43490 0.33610 0.77300
Al	Al	0.56610 0.05131 0.66500 2.40000
O 	O 	0.56020 0.12780 0.76040 -0.77500
O 	O 	0.58030 0.07450 0.49420 -0.76100
O 	O 	0.63700 0.00020 0.71760 -0.79900
O 	O 	0.48710 0.00510 0.68020 -0.82600
P 	P 	0.56750 0.16610 0.90760 0.77000
Al	Al	0.45474 0.16417 0.15710 2.39600
O 	O 	0.49920 0.15440 0.99400 -0.81100
O 	O 	0.50970 0.13060 0.29090 -0.79700
O 	O 	0.37350 0.12140 0.15550 -0.76900
O 	O 	0.43610 0.25240 0.19140 -0.75000
P 	P 	0.66630 0.95100 0.84040 0.73400
Al	Al	0.66560 0.06600 0.08330 2.39900
O 	O 	0.65600 0.98730 0.98860 -0.81800
O 	O 	0.63320 0.13650 0.99040 -0.82600
O 	O 	0.62340 0.05990 0.24310 -0.77600
O 	O 	0.58000 0.24700 0.87450 -0.75900
P 	P 	0.55544 0.06510 0.33610 0.77100
Al	Al	0.05131 0.93390 0.66500 2.40000
O 	O 	0.12780 0.93980 0.76040 -0.77800
O 	O 	0.07450 0.91970 0.49420 -0.76300
O 	O 	0.00020 0.86300 0.71760 -0.80200
O 	O 	0.00510 0.01290 0.68020 -0.81900
P 	P 	0.16610 0.93250 0.90760 0.76100
Al	Al	0.16417 0.04526 0.15710 2.39500
O 	O 	0.15440 0.00080 0.99400 -0.80000
O 	O 	0.13060 0.99030 0.29090 -0.79800
O 	O 	0.12140 0.12650 0.15550 -0.77000
O 	O 	0.25240 0.06390 0.19140 -0.75100
P 	P 	0.95100 0.83370 0.84040 0.73500
Al	Al	0.06600 0.83440 0.08330 2.39900
O 	O 	0.98730 0.84400 0.98860 -0.81800
O 	O 	0.13650 0.86680 0.99040 -0.82700
O 	O 	0.05990 0.87660 0.24310 -0.77500
O 	O 	0.24700 0.92000 0.87450 -0.76000
P 	P 	0.06510 0.94456 0.33610 0.76700
Al	Al	0.44869 0.56610 0.66500 2.40000
O 	O 	0.37220 0.56020 0.76040 -0.77600
O 	O 	0.42550 0.58030 0.49420 -0.76100
O 	O 	0.49980 0.63700 0.71760 -0.80100
O 	O 	0.49490 0.48710 0.68020 -0.82900
P 	P 	0.33390 0.56750 0.90760 0.77000
Al	Al	0.33583 0.45474 0.15710 2.39600
O 	O 	0.34560 0.49920 0.99400 -0.81300
O 	O 	0.36940 0.50970 0.29090 -0.79700
O 	O 	0.37860 0.37350 0.15550 -0.76800
O 	O 	0.24760 0.43610 0.19140 -0.75000
P 	P 	0.54900 0.66630 0.84040 0.73500
Al	Al	0.43400 0.66560 0.08330 2.39900
O 	O 	0.51270 0.65600 0.98860 -0.81500
O 	O 	0.36350 0.63320 0.99040 -0.82800
O 	O 	0.44010 0.62340 0.24310 -0.77400
O 	O 	0.25300 0.58000 0.87450 -0.75800
P 	P 	0.43490 0.55544 0.33610 0.77300
