data_crystal

_cell_length_a 35.53870
_cell_length_b 35.53870
_cell_length_c 53.26070
_cell_angle_alpha 90.00000
_cell_angle_beta  90.00000
_cell_angle_gamma 90.00000

_symmetry_space_group_name_	'P 1'
_symmetry_space_group_name_H-M	'P 1'

loop_
_symmetry_equiv_pos_as_xyz
  x,y,z

loop_
_atom_site_label
_atom_site_type_symbol
_atom_site_fract_x
_atom_site_fract_y
_atom_site_fract_z
_atom_site_charge
Cd	Cd	0.19870 0.07812 0.14955 1.15900
Cd	Cd	0.12509 0.99128 0.15900 1.14700
Cd	Cd	0.08943 0.10622 0.16931 1.15100
Cd	Cd	0.16802 0.05573 0.22100 1.14500
Cd	Cd	0.97798 0.06007 0.16386 1.13400
Cd	Cd	0.09950 0.91172 0.21577 1.13500
Cd	Cd	0.05355 0.02219 0.21910 1.11800
Cd	Cd	0.13089 0.98961 0.27757 1.12800
Cd	Cd	0.00505 0.13376 0.21666 1.13700
Cd	Cd	0.09279 0.09592 0.27512 1.13300
Cd	Cd	0.92863 0.16112 0.27146 1.14800
Cd	Cd	0.97965 0.05427 0.27322 1.11000
Cd	Cd	0.90944 0.08543 0.33270 1.14600
Cd	Cd	0.94172 0.97486 0.32958 1.12900
Cd	Cd	0.01861 0.13484 0.32646 1.15100
Cd	Cd	0.92638 0.19705 0.34567 1.16100
Se	Se	0.11045 0.04422 0.19187 -1.08000
Se	Se	0.07827 0.96633 0.24628 -1.16500
Se	Se	0.03438 0.08089 0.24568 -1.13600
Se	Se	0.95949 0.11135 0.30112 -1.09100
Se	Se	0.95042 0.11775 0.18644 -0.82500
Se	Se	0.11802 0.04626 0.30631 -0.84400
S 	S 	0.89670 0.25160 0.36940 -0.47200
S 	S 	0.17770 0.01660 0.13132 -0.51800
S 	S 	0.14710 0.12700 0.14607 -0.51800
S 	S 	0.22460 0.07400 0.19362 -0.53100
S 	S 	0.93050 0.02820 0.13353 -0.52400
S 	S 	0.15260 0.94350 0.18987 -0.57600
S 	S 	0.03890 0.07790 0.14053 -0.55500
S 	S 	0.18780 0.00280 0.24889 -0.54500
S 	S 	0.05990 0.16010 0.19100 -0.53500
S 	S 	0.14120 0.11440 0.24213 -0.58700
S 	S 	0.87360 0.13680 0.24725 -0.54400
S 	S 	0.85720 0.07330 0.30064 -0.55700
S 	S 	0.98660 0.18580 0.24757 -0.54800
S 	S 	0.06990 0.15520 0.29813 -0.54500
S 	S 	0.91150 0.21540 0.30081 -0.49300
S 	S 	0.93160 0.03130 0.35920 -0.54100
S 	S 	0.89050 0.14050 0.35956 -0.52200
S 	S 	0.03060 0.08070 0.35512 -0.55800
S 	S 	0.99690 0.19230 0.35189 -0.53700
C 	C 	0.16010 0.03370 0.10290 0.07100
C 	C 	0.18910 0.03950 0.08460 -0.06500
C 	C 	0.17480 0.05550 0.06100 0.01300
C 	C 	0.13140 0.06510 0.05600 -0.01300
C 	C 	0.10920 0.05700 0.07710 0.03200
C 	C 	0.12320 0.04470 0.10270 -0.11500
C 	C 	0.90980 0.06490 0.11380 0.04400
C 	C 	0.90880 0.05800 0.08810 -0.01700
C 	C 	0.89190 0.08380 0.07210 0.01000
C 	C 	0.87610 0.11650 0.08170 -0.01700
C 	C 	0.87700 0.12340 0.10740 0.02400
C 	C 	0.89390 0.09760 0.12340 -0.10300
C 	C 	0.17720 0.91110 0.17140 0.09000
C 	C 	0.16600 0.87050 0.17710 -0.08900
C 	C 	0.19200 0.83910 0.16140 0.01200
C 	C 	0.22000 0.85180 0.14530 -0.02400
C 	C 	0.22610 0.90130 0.14870 0.02400
C 	C 	0.20460 0.92420 0.15690 -0.09600
C 	C 	0.02690 0.11280 0.12050 0.10200
C 	C 	0.99020 0.12510 0.11680 -0.11900
C 	C 	0.98180 0.14900 0.09690 0.02200
C 	C 	0.01010 0.16060 0.08070 -0.00800
C 	C 	0.04690 0.14830 0.08440 0.02100
C 	C 	0.05520 0.12440 0.10420 -0.07000
C 	C 	0.85190 0.17610 0.23180 0.05600
C 	C 	0.86950 0.19670 0.21560 -0.09100
C 	C 	0.96960 0.22670 0.23270 0.06800
C 	C 	0.95750 0.25540 0.24820 -0.05700
C 	C 	0.94260 0.28920 0.23550 0.01100
C 	C 	0.94810 0.28750 0.20790 -0.01300
C 	C 	0.95680 0.25900 0.19090 0.01200
C 	C 	0.97370 0.22960 0.20540 -0.08100
C 	C 	0.85960 0.21920 0.29880 0.03000
C 	C 	0.83570 0.18690 0.30200 -0.08900
C 	C 	0.79620 0.18970 0.30100 0.01700
C 	C 	0.78470 0.22530 0.29550 -0.02100
C 	C 	0.80830 0.25300 0.28590 0.00200
C 	C 	0.84450 0.25680 0.28970 -0.01800
C 	C 	0.88780 0.02590 0.38090 0.02500
C 	C 	0.85660 0.01490 0.36950 -0.10000
C 	C 	0.90660 0.12880 0.39300 -0.04100
C 	C 	0.06420 0.09780 0.37980 0.01100
C 	C 	0.10150 0.07220 0.38050 -0.07100
C 	C 	0.01850 0.23080 0.33400 0.05600
C 	C 	0.01090 0.23460 0.30860 -0.10600
C 	C 	0.02500 0.26520 0.29530 0.04000
C 	C 	0.04680 0.29200 0.30760 -0.01400
C 	C 	0.05450 0.28820 0.33310 0.01200
C 	C 	0.04030 0.25760 0.34630 -0.03000
Cd	Cd	0.69870 0.57812 0.64955 1.15800
Cd	Cd	0.62509 0.49128 0.65900 1.14900
Cd	Cd	0.58943 0.60622 0.66931 1.15000
Cd	Cd	0.66802 0.55573 0.72100 1.14300
Cd	Cd	0.47798 0.56007 0.66386 1.13600
Cd	Cd	0.59950 0.41172 0.71577 1.13400
Cd	Cd	0.55355 0.52219 0.71910 1.11500
Cd	Cd	0.63089 0.48961 0.77757 1.13100
Cd	Cd	0.50505 0.63376 0.71666 1.13200
Cd	Cd	0.59279 0.59592 0.77512 1.13200
Cd	Cd	0.42863 0.66112 0.77146 1.14700
Cd	Cd	0.47965 0.55427 0.77322 1.11300
Cd	Cd	0.40944 0.58543 0.83270 1.14500
Cd	Cd	0.44172 0.47486 0.82958 1.13300
Cd	Cd	0.51861 0.63484 0.82646 1.14700
Cd	Cd	0.42638 0.69705 0.84567 1.16000
Se	Se	0.61045 0.54422 0.69187 -1.08700
Se	Se	0.57827 0.46633 0.74628 -1.15700
Se	Se	0.53438 0.58089 0.74568 -1.14500
Se	Se	0.45949 0.61135 0.80112 -1.08400
Se	Se	0.45042 0.61775 0.68644 -0.81800
Se	Se	0.61802 0.54626 0.80631 -0.85100
S 	S 	0.39670 0.75160 0.86940 -0.47100
S 	S 	0.67770 0.51660 0.63132 -0.52600
S 	S 	0.64710 0.62700 0.64607 -0.51800
S 	S 	0.72460 0.57400 0.69362 -0.53400
S 	S 	0.43050 0.52820 0.63353 -0.52600
S 	S 	0.65260 0.44350 0.68987 -0.57000
S 	S 	0.53890 0.57790 0.64053 -0.56100
S 	S 	0.68780 0.50280 0.74889 -0.55500
S 	S 	0.55990 0.66010 0.69100 -0.54000
S 	S 	0.64120 0.61440 0.74213 -0.58800
S 	S 	0.37360 0.63680 0.74725 -0.54500
S 	S 	0.35720 0.57330 0.80064 -0.56100
S 	S 	0.48660 0.68580 0.74757 -0.53900
S 	S 	0.56990 0.65520 0.79813 -0.54900
S 	S 	0.41150 0.71540 0.80081 -0.49100
S 	S 	0.43160 0.53130 0.85920 -0.54200
S 	S 	0.39050 0.64050 0.85956 -0.52200
S 	S 	0.53060 0.58070 0.85512 -0.56700
S 	S 	0.49690 0.69230 0.85189 -0.52300
C 	C 	0.66010 0.53370 0.60290 0.07200
C 	C 	0.68910 0.53950 0.58460 -0.06900
C 	C 	0.67480 0.55550 0.56100 0.01200
C 	C 	0.63140 0.56510 0.55600 -0.01600
C 	C 	0.60920 0.55700 0.57710 0.02900
C 	C 	0.62320 0.54470 0.60270 -0.11800
C 	C 	0.40980 0.56490 0.61380 0.04400
C 	C 	0.40880 0.55800 0.58810 -0.01900
C 	C 	0.39190 0.58380 0.57210 0.01000
C 	C 	0.37610 0.61650 0.58170 -0.01700
C 	C 	0.37700 0.62340 0.60740 0.02400
C 	C 	0.39390 0.59760 0.62340 -0.10400
C 	C 	0.67720 0.41110 0.67140 0.08800
C 	C 	0.66600 0.37050 0.67710 -0.08900
C 	C 	0.69200 0.33910 0.66140 0.01100
C 	C 	0.72000 0.35180 0.64530 -0.02300
C 	C 	0.72610 0.40130 0.64870 0.02400
C 	C 	0.70460 0.42420 0.65690 -0.09200
C 	C 	0.52690 0.61280 0.62050 0.09200
C 	C 	0.49020 0.62510 0.61680 -0.11000
C 	C 	0.48180 0.64900 0.59690 0.03200
C 	C 	0.51010 0.66060 0.58070 -0.02300
C 	C 	0.54690 0.64830 0.58440 0.02200
C 	C 	0.55520 0.62440 0.60420 -0.06900
C 	C 	0.35190 0.67610 0.73180 0.05600
C 	C 	0.36950 0.69670 0.71560 -0.09100
C 	C 	0.46960 0.72670 0.73270 0.06600
C 	C 	0.45750 0.75540 0.74820 -0.05400
C 	C 	0.44260 0.78920 0.73550 0.01200
C 	C 	0.44810 0.78750 0.70790 -0.01100
C 	C 	0.45680 0.75900 0.69090 0.01300
C 	C 	0.47370 0.72960 0.70540 -0.07800
C 	C 	0.35960 0.71920 0.79880 0.02900
C 	C 	0.33570 0.68690 0.80200 -0.08900
C 	C 	0.29620 0.68970 0.80100 0.01600
C 	C 	0.28470 0.72530 0.79550 -0.02100
C 	C 	0.30830 0.75300 0.78590 0.00200
C 	C 	0.34450 0.75680 0.78970 -0.01800
C 	C 	0.38780 0.52590 0.88090 0.02400
C 	C 	0.35660 0.51490 0.86950 -0.10600
C 	C 	0.40660 0.62880 0.89300 -0.04100
C 	C 	0.56420 0.59780 0.87980 0.00900
C 	C 	0.60150 0.57220 0.88050 -0.07600
C 	C 	0.51850 0.73080 0.83400 0.04600
C 	C 	0.51090 0.73460 0.80860 -0.11000
C 	C 	0.52500 0.76520 0.79530 0.03600
C 	C 	0.54680 0.79200 0.80760 -0.01600
C 	C 	0.55450 0.78820 0.83310 0.01100
C 	C 	0.54030 0.75760 0.84630 -0.03100
Cd	Cd	0.80130 0.92188 0.14955 1.15800
Cd	Cd	0.87491 0.00872 0.15900 1.15300
Cd	Cd	0.91057 0.89378 0.16931 1.15000
Cd	Cd	0.83198 0.94427 0.22100 1.14300
Cd	Cd	0.02202 0.93993 0.16386 1.13600
Cd	Cd	0.90050 0.08828 0.21577 1.13400
Cd	Cd	0.94645 0.97781 0.21910 1.10900
Cd	Cd	0.86911 0.01039 0.27757 1.13500
Cd	Cd	0.99495 0.86624 0.21666 1.12900
Cd	Cd	0.90721 0.90408 0.27512 1.13200
Cd	Cd	0.07137 0.83888 0.27146 1.14700
Cd	Cd	0.02035 0.94573 0.27322 1.11300
Cd	Cd	0.09056 0.91457 0.33270 1.14500
Cd	Cd	0.05828 0.02514 0.32958 1.13500
Cd	Cd	0.98139 0.86516 0.32646 1.14400
Cd	Cd	0.07362 0.80295 0.34567 1.16000
Se	Se	0.88955 0.95578 0.19187 -1.09600
Se	Se	0.92173 0.03367 0.24628 -1.15400
Se	Se	0.96562 0.91911 0.24568 -1.15800
Se	Se	0.04051 0.88865 0.30112 -1.07900
Se	Se	0.04958 0.88225 0.18644 -0.81400
Se	Se	0.88198 0.95374 0.30631 -0.86000
S 	S 	0.10330 0.74840 0.36940 -0.47100
S 	S 	0.82230 0.98340 0.13132 -0.53500
S 	S 	0.85290 0.87300 0.14607 -0.51800
S 	S 	0.77540 0.92600 0.19362 -0.53500
S 	S 	0.06950 0.97180 0.13353 -0.53300
S 	S 	0.84740 0.05650 0.18987 -0.56400
S 	S 	0.96110 0.92210 0.14053 -0.56900
S 	S 	0.81220 0.99720 0.24889 -0.56500
S 	S 	0.94010 0.83990 0.19100 -0.54500
S 	S 	0.85880 0.88560 0.24213 -0.58900
S 	S 	0.12640 0.86320 0.24725 -0.54500
S 	S 	0.14280 0.92670 0.30064 -0.56500
S 	S 	0.01340 0.81420 0.24757 -0.53000
S 	S 	0.93010 0.84480 0.29813 -0.55300
S 	S 	0.08850 0.78460 0.30081 -0.48900
S 	S 	0.06840 0.96870 0.35920 -0.54600
S 	S 	0.10950 0.85950 0.35956 -0.52200
S 	S 	0.96940 0.91930 0.35512 -0.57800
S 	S 	0.00310 0.80770 0.35189 -0.50800
C 	C 	0.83990 0.96630 0.10290 0.07300
C 	C 	0.81090 0.96050 0.08460 -0.07200
C 	C 	0.82520 0.94450 0.06100 0.01000
C 	C 	0.86860 0.93490 0.05600 -0.01800
C 	C 	0.89080 0.94300 0.07710 0.02700
C 	C 	0.87680 0.95530 0.10270 -0.12100
C 	C 	0.09020 0.93510 0.11380 0.04500
C 	C 	0.09120 0.94200 0.08810 -0.02100
C 	C 	0.10810 0.91620 0.07210 0.01000
C 	C 	0.12390 0.88350 0.08170 -0.01700
C 	C 	0.12300 0.87660 0.10740 0.02400
C 	C 	0.10610 0.90240 0.12340 -0.10400
C 	C 	0.82280 0.08890 0.17140 0.08700
C 	C 	0.83400 0.12950 0.17710 -0.08800
C 	C 	0.80800 0.16090 0.16140 0.01100
C 	C 	0.78000 0.14820 0.14530 -0.02200
C 	C 	0.77390 0.09870 0.14870 0.02500
C 	C 	0.79540 0.07580 0.15690 -0.08800
C 	C 	0.97310 0.88720 0.12050 0.08200
C 	C 	0.00980 0.87490 0.11680 -0.10100
C 	C 	0.01820 0.85100 0.09690 0.04300
C 	C 	0.98990 0.83940 0.08070 -0.03700
C 	C 	0.95310 0.85170 0.08440 0.02200
C 	C 	0.94480 0.87560 0.10420 -0.07000
C 	C 	0.14810 0.82390 0.23180 0.05500
C 	C 	0.13050 0.80330 0.21560 -0.09100
C 	C 	0.03040 0.77330 0.23270 0.06500
C 	C 	0.04250 0.74460 0.24820 -0.05100
C 	C 	0.05740 0.71080 0.23550 0.01300
C 	C 	0.05190 0.71250 0.20790 -0.00900
C 	C 	0.04320 0.74100 0.19090 0.01500
C 	C 	0.02630 0.77040 0.20540 -0.07400
C 	C 	0.14040 0.78080 0.29880 0.02900
C 	C 	0.16430 0.81310 0.30200 -0.08900
C 	C 	0.20380 0.81030 0.30100 0.01500
C 	C 	0.21530 0.77470 0.29550 -0.02100
C 	C 	0.19170 0.74700 0.28590 0.00200
C 	C 	0.15550 0.74320 0.28970 -0.01700
C 	C 	0.11220 0.97410 0.38090 0.02300
C 	C 	0.14340 0.98510 0.36950 -0.11100
C 	C 	0.09340 0.87120 0.39300 -0.04000
C 	C 	0.93580 0.90220 0.37980 0.00600
C 	C 	0.89850 0.92780 0.38050 -0.08200
C 	C 	0.98150 0.76920 0.33400 0.03800
C 	C 	0.98910 0.76540 0.30860 -0.11300
C 	C 	0.97500 0.73480 0.29530 0.03100
C 	C 	0.95320 0.70800 0.30760 -0.01700
C 	C 	0.94550 0.71180 0.33310 0.00900
C 	C 	0.95970 0.74240 0.34630 -0.03300
Cd	Cd	0.30130 0.42188 0.64955 1.15800
Cd	Cd	0.37491 0.50872 0.65900 1.14900
Cd	Cd	0.41057 0.39378 0.66931 1.15000
Cd	Cd	0.33198 0.44427 0.72100 1.14300
Cd	Cd	0.52202 0.43993 0.66386 1.13600
Cd	Cd	0.40050 0.58828 0.71577 1.13400
Cd	Cd	0.44645 0.47781 0.71910 1.11400
Cd	Cd	0.36911 0.51039 0.77757 1.13100
Cd	Cd	0.49495 0.36624 0.71666 1.13200
Cd	Cd	0.40721 0.40408 0.77512 1.13200
Cd	Cd	0.57137 0.33888 0.77146 1.14700
Cd	Cd	0.52035 0.44573 0.77322 1.11300
Cd	Cd	0.59056 0.41457 0.83270 1.14500
Cd	Cd	0.55828 0.52514 0.82958 1.13300
Cd	Cd	0.48139 0.36516 0.82646 1.14700
Cd	Cd	0.57362 0.30295 0.84567 1.16000
Se	Se	0.38955 0.45578 0.69187 -1.08700
Se	Se	0.42173 0.53367 0.74628 -1.15700
Se	Se	0.46562 0.41911 0.74568 -1.14500
Se	Se	0.54051 0.38865 0.80112 -1.08400
Se	Se	0.54958 0.38225 0.68644 -0.81800
Se	Se	0.38198 0.45374 0.80631 -0.85100
S 	S 	0.60330 0.24840 0.86940 -0.47100
S 	S 	0.32230 0.48340 0.63132 -0.52600
S 	S 	0.35290 0.37300 0.64607 -0.51800
S 	S 	0.27540 0.42600 0.69362 -0.53300
S 	S 	0.56950 0.47180 0.63353 -0.52600
S 	S 	0.34740 0.55650 0.68987 -0.57000
S 	S 	0.46110 0.42210 0.64053 -0.56100
S 	S 	0.31220 0.49720 0.74889 -0.55500
S 	S 	0.44010 0.33990 0.69100 -0.54000
S 	S 	0.35880 0.38560 0.74213 -0.58800
S 	S 	0.62640 0.36320 0.74725 -0.54500
S 	S 	0.64280 0.42670 0.80064 -0.56100
S 	S 	0.51340 0.31420 0.74757 -0.53900
S 	S 	0.43010 0.34480 0.79813 -0.54900
S 	S 	0.58850 0.28460 0.80081 -0.49100
S 	S 	0.56840 0.46870 0.85920 -0.54200
S 	S 	0.60950 0.35950 0.85956 -0.52200
S 	S 	0.46940 0.41930 0.85512 -0.56700
S 	S 	0.50310 0.30770 0.85189 -0.52300
C 	C 	0.33990 0.46630 0.60290 0.07200
C 	C 	0.31090 0.46050 0.58460 -0.06900
C 	C 	0.32520 0.44450 0.56100 0.01200
C 	C 	0.36860 0.43490 0.55600 -0.01600
C 	C 	0.39080 0.44300 0.57710 0.02900
C 	C 	0.37680 0.45530 0.60270 -0.11800
C 	C 	0.59020 0.43510 0.61380 0.04400
C 	C 	0.59120 0.44200 0.58810 -0.01900
C 	C 	0.60810 0.41620 0.57210 0.01000
C 	C 	0.62390 0.38350 0.58170 -0.01700
C 	C 	0.62300 0.37660 0.60740 0.02400
C 	C 	0.60610 0.40240 0.62340 -0.10400
C 	C 	0.32280 0.58890 0.67140 0.08800
C 	C 	0.33400 0.62950 0.67710 -0.08900
C 	C 	0.30800 0.66090 0.66140 0.01200
C 	C 	0.28000 0.64820 0.64530 -0.02300
C 	C 	0.27390 0.59870 0.64870 0.02500
C 	C 	0.29540 0.57580 0.65690 -0.09200
C 	C 	0.47310 0.38720 0.62050 0.09200
C 	C 	0.50980 0.37490 0.61680 -0.11000
C 	C 	0.51820 0.35100 0.59690 0.03200
C 	C 	0.48990 0.33940 0.58070 -0.02300
C 	C 	0.45310 0.35170 0.58440 0.02100
C 	C 	0.44480 0.37560 0.60420 -0.07000
C 	C 	0.64810 0.32390 0.73180 0.05600
C 	C 	0.63050 0.30330 0.71560 -0.09100
C 	C 	0.53040 0.27330 0.73270 0.06600
C 	C 	0.54250 0.24460 0.74820 -0.05400
C 	C 	0.55740 0.21080 0.73550 0.01300
C 	C 	0.55190 0.21250 0.70790 -0.01100
C 	C 	0.54320 0.24100 0.69090 0.01300
C 	C 	0.52630 0.27040 0.70540 -0.07800
C 	C 	0.64040 0.28080 0.79880 0.02900
C 	C 	0.66430 0.31310 0.80200 -0.08900
C 	C 	0.70380 0.31030 0.80100 0.01600
C 	C 	0.71530 0.27470 0.79550 -0.02100
C 	C 	0.69170 0.24700 0.78590 0.00200
C 	C 	0.65550 0.24320 0.78970 -0.01700
C 	C 	0.61220 0.47410 0.88090 0.02400
C 	C 	0.64340 0.48510 0.86950 -0.10600
C 	C 	0.59340 0.37120 0.89300 -0.04100
C 	C 	0.43580 0.40220 0.87980 0.00900
C 	C 	0.39850 0.42780 0.88050 -0.07600
C 	C 	0.48150 0.26920 0.83400 0.04600
C 	C 	0.48910 0.26540 0.80860 -0.11000
C 	C 	0.47500 0.23480 0.79530 0.03600
C 	C 	0.45320 0.20800 0.80760 -0.01600
C 	C 	0.44550 0.21180 0.83310 0.01000
C 	C 	0.45970 0.24240 0.84630 -0.03100
Cd	Cd	0.42188 0.80130 0.89955 1.15800
Cd	Cd	0.50872 0.87491 0.90900 1.14900
Cd	Cd	0.39378 0.91057 0.91931 1.15000
Cd	Cd	0.44427 0.83198 0.97100 1.14300
Cd	Cd	0.43993 0.02202 0.91386 1.13800
Cd	Cd	0.58828 0.90050 0.96577 1.13400
Cd	Cd	0.47781 0.94645 0.96910 1.11300
Cd	Cd	0.51039 0.86911 0.02757 1.13100
Cd	Cd	0.36624 0.99495 0.96666 1.12900
Cd	Cd	0.40408 0.90721 0.02512 1.13200
Cd	Cd	0.33888 0.07137 0.02146 1.14700
Cd	Cd	0.44573 0.02035 0.02322 1.11500
Cd	Cd	0.41457 0.09056 0.08270 1.14500
Cd	Cd	0.52514 0.05828 0.07958 1.13400
Cd	Cd	0.36516 0.98139 0.07646 1.14400
Cd	Cd	0.30295 0.07362 0.09567 1.16000
Se	Se	0.45578 0.88955 0.94187 -1.08900
Se	Se	0.53367 0.92173 0.99628 -1.16100
Se	Se	0.41911 0.96562 0.99568 -1.15500
Se	Se	0.38865 0.04051 0.05112 -1.07800
Se	Se	0.38225 0.04958 0.93644 -0.81300
Se	Se	0.45374 0.88198 0.05631 -0.85200
S 	S 	0.24840 0.10330 0.11940 -0.47100
S 	S 	0.48340 0.82230 0.88132 -0.52600
S 	S 	0.37300 0.85290 0.89607 -0.51900
S 	S 	0.42600 0.77540 0.94362 -0.53300
S 	S 	0.47180 0.06950 0.88353 -0.52400
S 	S 	0.55650 0.84740 0.93987 -0.57000
S 	S 	0.42210 0.96110 0.89053 -0.56500
S 	S 	0.49720 0.81220 0.99889 -0.55500
S 	S 	0.33990 0.94010 0.94100 -0.54600
S 	S 	0.38560 0.85880 0.99213 -0.58800
S 	S 	0.36320 0.12640 0.99725 -0.54500
S 	S 	0.42670 0.14280 0.05064 -0.56100
S 	S 	0.31420 0.01340 0.99757 -0.53000
S 	S 	0.34480 0.93010 0.04813 -0.55300
S 	S 	0.28460 0.08850 0.05081 -0.48900
S 	S 	0.46870 0.06840 0.10920 -0.53900
S 	S 	0.35950 0.10950 0.10956 -0.52200
S 	S 	0.41930 0.96940 0.10512 -0.57500
S 	S 	0.30770 0.00310 0.10189 -0.50800
C 	C 	0.46630 0.83990 0.85290 0.07200
C 	C 	0.46050 0.81090 0.83460 -0.06900
C 	C 	0.44450 0.82520 0.81100 0.01200
C 	C 	0.43490 0.86860 0.80600 -0.01700
C 	C 	0.44300 0.89080 0.82710 0.02800
C 	C 	0.45530 0.87680 0.85270 -0.11800
C 	C 	0.43510 0.09020 0.86380 0.04400
C 	C 	0.44200 0.09120 0.83810 -0.01800
C 	C 	0.41620 0.10810 0.82210 0.01100
C 	C 	0.38350 0.12390 0.83170 -0.01700
C 	C 	0.37660 0.12300 0.85740 0.02400
C 	C 	0.40240 0.10610 0.87340 -0.10400
C 	C 	0.58890 0.82280 0.92140 0.08800
C 	C 	0.62950 0.83400 0.92710 -0.08900
C 	C 	0.66090 0.80800 0.91140 0.01100
C 	C 	0.64820 0.78000 0.89530 -0.02300
C 	C 	0.59870 0.77390 0.89870 0.02500
C 	C 	0.57580 0.79540 0.90690 -0.09200
C 	C 	0.38720 0.97310 0.87050 0.08100
C 	C 	0.37490 0.00980 0.86680 -0.10000
C 	C 	0.35100 0.01820 0.84690 0.04300
C 	C 	0.33940 0.98990 0.83070 -0.03700
C 	C 	0.35170 0.95310 0.83440 0.02200
C 	C 	0.37560 0.94480 0.85420 -0.06900
C 	C 	0.32390 0.14810 0.98180 0.05500
C 	C 	0.30330 0.13050 0.96560 -0.09100
C 	C 	0.27330 0.03040 0.98270 0.06500
C 	C 	0.24460 0.04250 0.99820 -0.05100
C 	C 	0.21080 0.05740 0.98550 0.01400
C 	C 	0.21250 0.05190 0.95790 -0.00900
C 	C 	0.24100 0.04320 0.94090 0.01500
C 	C 	0.27040 0.02630 0.95540 -0.07400
C 	C 	0.28080 0.14040 0.04880 0.02900
C 	C 	0.31310 0.16430 0.05200 -0.08900
C 	C 	0.31030 0.20380 0.05100 0.01600
C 	C 	0.27470 0.21530 0.04550 -0.02100
C 	C 	0.24700 0.19170 0.03590 0.00200
C 	C 	0.24320 0.15550 0.03970 -0.01700
C 	C 	0.47410 0.11220 0.13090 0.02500
C 	C 	0.48510 0.14340 0.11950 -0.10600
C 	C 	0.37120 0.09340 0.14300 -0.03900
C 	C 	0.40220 0.93580 0.12980 0.00700
C 	C 	0.42780 0.89850 0.13050 -0.07700
C 	C 	0.26920 0.98150 0.08400 0.03700
C 	C 	0.26540 0.98910 0.05860 -0.11300
C 	C 	0.23480 0.97500 0.04530 0.03100
C 	C 	0.20800 0.95320 0.05760 -0.01700
C 	C 	0.21180 0.94550 0.08310 0.00900
C 	C 	0.24240 0.95970 0.09630 -0.03300
Cd	Cd	0.92188 0.30130 0.39955 1.15800
Cd	Cd	0.00872 0.37491 0.40900 1.15300
Cd	Cd	0.89378 0.41057 0.41931 1.15100
Cd	Cd	0.94427 0.33198 0.47100 1.14300
Cd	Cd	0.93993 0.52202 0.41386 1.13400
Cd	Cd	0.08828 0.40050 0.46577 1.13400
Cd	Cd	0.97781 0.44645 0.46910 1.11100
Cd	Cd	0.01039 0.36911 0.52757 1.13500
Cd	Cd	0.86624 0.49495 0.46666 1.13200
Cd	Cd	0.90408 0.40721 0.52512 1.13200
Cd	Cd	0.83888 0.57137 0.52146 1.14700
Cd	Cd	0.94573 0.52035 0.52322 1.11100
Cd	Cd	0.91457 0.59056 0.58270 1.14500
Cd	Cd	0.02514 0.55828 0.57958 1.13500
Cd	Cd	0.86516 0.48139 0.57646 1.14700
Cd	Cd	0.80295 0.57362 0.59567 1.16000
Se	Se	0.95578 0.38955 0.44187 -1.09400
Se	Se	0.03367 0.42173 0.49628 -1.15000
Se	Se	0.91911 0.46562 0.49568 -1.14900
Se	Se	0.88865 0.54051 0.55112 -1.08500
Se	Se	0.88225 0.54958 0.43644 -0.81900
Se	Se	0.95374 0.38198 0.55631 -0.85900
S 	S 	0.74840 0.60330 0.61940 -0.47100
S 	S 	0.98340 0.32230 0.38132 -0.53500
S 	S 	0.87300 0.35290 0.39607 -0.51800
S 	S 	0.92600 0.27540 0.44362 -0.53500
S 	S 	0.97180 0.56950 0.38353 -0.53500
S 	S 	0.05650 0.34740 0.43987 -0.56400
S 	S 	0.92210 0.46110 0.39053 -0.56500
S 	S 	0.99720 0.31220 0.49889 -0.56500
S 	S 	0.83990 0.44010 0.44100 -0.54000
S 	S 	0.88560 0.35880 0.49213 -0.58800
S 	S 	0.86320 0.62640 0.49725 -0.54500
S 	S 	0.92670 0.64280 0.55064 -0.56500
S 	S 	0.81420 0.51340 0.49757 -0.53900
S 	S 	0.84480 0.43010 0.54813 -0.54900
S 	S 	0.78460 0.58850 0.55081 -0.49100
S 	S 	0.96870 0.56840 0.60920 -0.54900
S 	S 	0.85950 0.60950 0.60956 -0.52300
S 	S 	0.91930 0.46940 0.60512 -0.57000
S 	S 	0.80770 0.50310 0.60189 -0.52300
C 	C 	0.96630 0.33990 0.35290 0.07200
C 	C 	0.96050 0.31090 0.33460 -0.07200
C 	C 	0.94450 0.32520 0.31100 0.01000
C 	C 	0.93490 0.36860 0.30600 -0.01700
C 	C 	0.94300 0.39080 0.32710 0.02800
C 	C 	0.95530 0.37680 0.35270 -0.12100
C 	C 	0.93510 0.59020 0.36380 0.04600
C 	C 	0.94200 0.59120 0.33810 -0.02300
C 	C 	0.91620 0.60810 0.32210 0.00900
C 	C 	0.88350 0.62390 0.33170 -0.01800
C 	C 	0.87660 0.62300 0.35740 0.02400
C 	C 	0.90240 0.60610 0.37340 -0.10400
C 	C 	0.08890 0.32280 0.42140 0.08700
C 	C 	0.12950 0.33400 0.42710 -0.08800
C 	C 	0.16090 0.30800 0.41140 0.01200
C 	C 	0.14820 0.28000 0.39530 -0.02200
C 	C 	0.09870 0.27390 0.39870 0.02500
C 	C 	0.07580 0.29540 0.40690 -0.08800
C 	C 	0.88720 0.47310 0.37050 0.09300
C 	C 	0.87490 0.50980 0.36680 -0.11000
C 	C 	0.85100 0.51820 0.34690 0.03200
C 	C 	0.83940 0.48990 0.33070 -0.02300
C 	C 	0.85170 0.45310 0.33440 0.02100
C 	C 	0.87560 0.44480 0.35420 -0.07000
C 	C 	0.82390 0.64810 0.48180 0.05500
C 	C 	0.80330 0.63050 0.46560 -0.09100
C 	C 	0.77330 0.53040 0.48270 0.06600
C 	C 	0.74460 0.54250 0.49820 -0.05400
C 	C 	0.71080 0.55740 0.48550 0.01200
C 	C 	0.71250 0.55190 0.45790 -0.01100
C 	C 	0.74100 0.54320 0.44090 0.01300
C 	C 	0.77040 0.52630 0.45540 -0.07800
C 	C 	0.78080 0.64040 0.54880 0.02900
C 	C 	0.81310 0.66430 0.55200 -0.08900
C 	C 	0.81030 0.70380 0.55100 0.01500
C 	C 	0.77470 0.71530 0.54550 -0.02100
C 	C 	0.74700 0.69170 0.53590 0.00200
C 	C 	0.74320 0.65550 0.53970 -0.01700
C 	C 	0.97410 0.61220 0.63090 0.02200
C 	C 	0.98510 0.64340 0.61950 -0.11100
C 	C 	0.87120 0.59340 0.64300 -0.04200
C 	C 	0.90220 0.43580 0.62980 0.00800
C 	C 	0.92780 0.39850 0.63050 -0.08100
C 	C 	0.76920 0.48150 0.58400 0.04700
C 	C 	0.76540 0.48910 0.55860 -0.11000
C 	C 	0.73480 0.47500 0.54530 0.03600
C 	C 	0.70800 0.45320 0.55760 -0.01600
C 	C 	0.71180 0.44550 0.58310 0.01000
C 	C 	0.74240 0.45970 0.59630 -0.03100
Cd	Cd	0.57812 0.19870 0.89955 1.15800
Cd	Cd	0.49128 0.12509 0.90900 1.14900
Cd	Cd	0.60622 0.08943 0.91931 1.15100
Cd	Cd	0.55573 0.16802 0.97100 1.14300
Cd	Cd	0.56007 0.97798 0.91386 1.13300
Cd	Cd	0.41172 0.09950 0.96577 1.13400
Cd	Cd	0.52219 0.05355 0.96910 1.11500
Cd	Cd	0.48961 0.13089 0.02757 1.13100
Cd	Cd	0.63376 0.00505 0.96666 1.13600
Cd	Cd	0.59592 0.09279 0.02512 1.13200
Cd	Cd	0.66112 0.92863 0.02146 1.14700
Cd	Cd	0.55427 0.97965 0.02322 1.10900
Cd	Cd	0.58543 0.90944 0.08270 1.14500
Cd	Cd	0.47486 0.94172 0.07958 1.13200
Cd	Cd	0.63484 0.01861 0.07646 1.15000
Cd	Cd	0.69705 0.92638 0.09567 1.16000
Se	Se	0.54422 0.11045 0.94187 -1.08700
Se	Se	0.46633 0.07827 0.99628 -1.15600
Se	Se	0.58089 0.03438 0.99568 -1.13800
Se	Se	0.61135 0.95949 0.05112 -1.09200
Se	Se	0.61775 0.95042 0.93644 -0.82500
Se	Se	0.54626 0.11802 0.05631 -0.85100
S 	S 	0.75160 0.89670 0.11940 -0.47200
S 	S 	0.51660 0.17770 0.88132 -0.52600
S 	S 	0.62700 0.14710 0.89607 -0.51800
S 	S 	0.57400 0.22460 0.94362 -0.53300
S 	S 	0.52820 0.93050 0.88353 -0.53000
S 	S 	0.44350 0.15260 0.93987 -0.57000
S 	S 	0.57790 0.03890 0.89053 -0.55700
S 	S 	0.50280 0.18780 0.99889 -0.55500
S 	S 	0.66010 0.05990 0.94100 -0.53500
S 	S 	0.61440 0.14120 0.99213 -0.58800
S 	S 	0.63680 0.87360 0.99725 -0.54500
S 	S 	0.57330 0.85720 0.05064 -0.56100
S 	S 	0.68580 0.98660 0.99757 -0.54800
S 	S 	0.65520 0.06990 0.04813 -0.54500
S 	S 	0.71540 0.91150 0.05081 -0.49300
S 	S 	0.53130 0.93160 0.10920 -0.54700
S 	S 	0.64050 0.89050 0.10956 -0.52300
S 	S 	0.58070 0.03060 0.10512 -0.56000
S 	S 	0.69230 0.99690 0.10189 -0.53700
C 	C 	0.53370 0.16010 0.85290 0.07200
C 	C 	0.53950 0.18910 0.83460 -0.06900
C 	C 	0.55550 0.17480 0.81100 0.01200
C 	C 	0.56510 0.13140 0.80600 -0.01500
C 	C 	0.55700 0.10920 0.82710 0.03100
C 	C 	0.54470 0.12320 0.85270 -0.11800
C 	C 	0.56490 0.90980 0.86380 0.04500
C 	C 	0.55800 0.90880 0.83810 -0.02100
C 	C 	0.58380 0.89190 0.82210 0.00900
C 	C 	0.61650 0.87610 0.83170 -0.01700
C 	C 	0.62340 0.87700 0.85740 0.02400
C 	C 	0.59760 0.89390 0.87340 -0.10400
C 	C 	0.41110 0.17720 0.92140 0.08800
C 	C 	0.37050 0.16600 0.92710 -0.08900
C 	C 	0.33910 0.19200 0.91140 0.01200
C 	C 	0.35180 0.22000 0.89530 -0.02300
C 	C 	0.40130 0.22610 0.89870 0.02400
C 	C 	0.42420 0.20460 0.90690 -0.09200
C 	C 	0.61280 0.02690 0.87050 0.10300
C 	C 	0.62510 0.99020 0.86680 -0.11900
C 	C 	0.64900 0.98180 0.84690 0.02200
C 	C 	0.66060 0.01010 0.83070 -0.00800
C 	C 	0.64830 0.04690 0.83440 0.02100
C 	C 	0.62440 0.05520 0.85420 -0.07000
C 	C 	0.67610 0.85190 0.98180 0.05600
C 	C 	0.69670 0.86950 0.96560 -0.09100
C 	C 	0.72670 0.96960 0.98270 0.06800
C 	C 	0.75540 0.95750 0.99820 -0.05700
C 	C 	0.78920 0.94260 0.98550 0.01100
C 	C 	0.78750 0.94810 0.95790 -0.01300
C 	C 	0.75900 0.95680 0.94090 0.01200
C 	C 	0.72960 0.97370 0.95540 -0.08100
C 	C 	0.71920 0.85960 0.04880 0.03000
C 	C 	0.68690 0.83570 0.05200 -0.08900
C 	C 	0.68970 0.79620 0.05100 0.01600
C 	C 	0.72530 0.78470 0.04550 -0.02100
C 	C 	0.75300 0.80830 0.03590 0.00200
C 	C 	0.75680 0.84450 0.03970 -0.01800
C 	C 	0.52590 0.88780 0.13090 0.02300
C 	C 	0.51490 0.85660 0.11950 -0.10600
C 	C 	0.62880 0.90660 0.14300 -0.04300
C 	C 	0.59780 0.06420 0.12980 0.01100
C 	C 	0.57220 0.10150 0.13050 -0.07600
C 	C 	0.73080 0.01850 0.08400 0.05500
C 	C 	0.73460 0.01090 0.05860 -0.10600
C 	C 	0.76520 0.02500 0.04530 0.04000
C 	C 	0.79200 0.04680 0.05760 -0.01500
C 	C 	0.78820 0.05450 0.08310 0.01200
C 	C 	0.75760 0.04030 0.09630 -0.03000
Cd	Cd	0.07812 0.69870 0.39955 1.15800
Cd	Cd	0.99128 0.62509 0.40900 1.14600
Cd	Cd	0.10622 0.58943 0.41931 1.15000
Cd	Cd	0.05573 0.66802 0.47100 1.14400
Cd	Cd	0.06007 0.47798 0.41386 1.13600
Cd	Cd	0.91172 0.59950 0.46577 1.13400
Cd	Cd	0.02219 0.55355 0.46910 1.11600
Cd	Cd	0.98961 0.63089 0.52757 1.12700
Cd	Cd	0.13376 0.50505 0.46666 1.13200
Cd	Cd	0.09592 0.59279 0.52512 1.13200
Cd	Cd	0.16112 0.42863 0.52146 1.14700
Cd	Cd	0.05427 0.47965 0.52322 1.11300
Cd	Cd	0.08543 0.40944 0.58270 1.14500
Cd	Cd	0.97486 0.44172 0.57958 1.13000
Cd	Cd	0.13484 0.51861 0.57646 1.14700
Cd	Cd	0.19705 0.42638 0.59567 1.16000
Se	Se	0.04422 0.61045 0.44187 -1.08100
Se	Se	0.96633 0.57827 0.49628 -1.16700
Se	Se	0.08089 0.53438 0.49568 -1.14400
Se	Se	0.11135 0.45949 0.55112 -1.08400
Se	Se	0.11775 0.45042 0.43644 -0.81800
Se	Se	0.04626 0.61802 0.55631 -0.84400
S 	S 	0.25160 0.39670 0.61940 -0.47100
S 	S 	0.01660 0.67770 0.38132 -0.51800
S 	S 	0.12700 0.64710 0.39607 -0.51800
S 	S 	0.07400 0.72460 0.44362 -0.53100
S 	S 	0.02820 0.43050 0.38353 -0.51900
S 	S 	0.94350 0.65260 0.43987 -0.57600
S 	S 	0.07790 0.53890 0.39053 -0.55800
S 	S 	0.00280 0.68780 0.49889 -0.54500
S 	S 	0.16010 0.55990 0.44100 -0.54000
S 	S 	0.11440 0.64120 0.49213 -0.58800
S 	S 	0.13680 0.37360 0.49725 -0.54400
S 	S 	0.07330 0.35720 0.55064 -0.55700
S 	S 	0.18580 0.48660 0.49757 -0.53900
S 	S 	0.15520 0.56990 0.54813 -0.54900
S 	S 	0.21540 0.41150 0.55081 -0.49100
S 	S 	0.03130 0.43160 0.60920 -0.53600
S 	S 	0.14050 0.39050 0.60956 -0.52200
S 	S 	0.08070 0.53060 0.60512 -0.56500
S 	S 	0.19230 0.49690 0.60189 -0.52300
C 	C 	0.03370 0.66010 0.35290 0.07100
C 	C 	0.03950 0.68910 0.33460 -0.06500
C 	C 	0.05550 0.67480 0.31100 0.01300
C 	C 	0.06510 0.63140 0.30600 -0.01400
C 	C 	0.05700 0.60920 0.32710 0.03100
C 	C 	0.04470 0.62320 0.35270 -0.11500
C 	C 	0.06490 0.40980 0.36380 0.04400
C 	C 	0.05800 0.40880 0.33810 -0.01600
C 	C 	0.08380 0.39190 0.32210 0.01100
C 	C 	0.11650 0.37610 0.33170 -0.01700
C 	C 	0.12340 0.37700 0.35740 0.02400
C 	C 	0.09760 0.39390 0.37340 -0.10300
C 	C 	0.91110 0.67720 0.42140 0.09000
C 	C 	0.87050 0.66600 0.42710 -0.08900
C 	C 	0.83910 0.69200 0.41140 0.01100
C 	C 	0.85180 0.72000 0.39530 -0.02400
C 	C 	0.90130 0.72610 0.39870 0.02400
C 	C 	0.92420 0.70460 0.40690 -0.09600
C 	C 	0.11280 0.52690 0.37050 0.09100
C 	C 	0.12510 0.49020 0.36680 -0.10900
C 	C 	0.14900 0.48180 0.34690 0.03200
C 	C 	0.16060 0.51010 0.33070 -0.02200
C 	C 	0.14830 0.54690 0.33440 0.02200
C 	C 	0.12440 0.55520 0.35420 -0.06900
C 	C 	0.17610 0.35190 0.48180 0.05600
C 	C 	0.19670 0.36950 0.46560 -0.09100
C 	C 	0.22670 0.46960 0.48270 0.06600
C 	C 	0.25540 0.45750 0.49820 -0.05400
C 	C 	0.28920 0.44260 0.48550 0.01200
C 	C 	0.28750 0.44810 0.45790 -0.01100
C 	C 	0.25900 0.45680 0.44090 0.01300
C 	C 	0.22960 0.47370 0.45540 -0.07800
C 	C 	0.21920 0.35960 0.54880 0.02900
C 	C 	0.18690 0.33570 0.55200 -0.08900
C 	C 	0.18970 0.29620 0.55100 0.01700
C 	C 	0.22530 0.28470 0.54550 -0.02100
C 	C 	0.25300 0.30830 0.53590 0.00200
C 	C 	0.25680 0.34450 0.53970 -0.01700
C 	C 	0.02590 0.38780 0.63090 0.02600
C 	C 	0.01490 0.35660 0.61950 -0.10000
C 	C 	0.12880 0.40660 0.64300 -0.04000
C 	C 	0.09780 0.56420 0.62980 0.00900
C 	C 	0.07220 0.60150 0.63050 -0.07200
C 	C 	0.23080 0.51850 0.58400 0.04600
C 	C 	0.23460 0.51090 0.55860 -0.11000
C 	C 	0.26520 0.52500 0.54530 0.03600
C 	C 	0.29200 0.54680 0.55760 -0.01600
C 	C 	0.28820 0.55450 0.58310 0.01000
C 	C 	0.25760 0.54030 0.59630 -0.03100
Se	Se	0.00000 0.00000 0.18918 -1.12000
Se	Se	0.00000 0.00000 0.30337 -1.13200
Se	Se	0.50000 0.50000 0.68918 -1.14400
Se	Se	0.50000 0.50000 0.80337 -1.15600
Se	Se	0.50000 0.00000 0.93918 -1.13200
Se	Se	0.50000 0.00000 0.05337 -1.14400
Se	Se	-0.00000 0.50000 0.43918 -1.13200
Se	Se	0.00000 0.50000 0.55337 -1.14400
Cd	Cd	0.07812 0.80130 0.85045 1.15800
Cd	Cd	0.99128 0.87491 0.84100 1.14600
Cd	Cd	0.10622 0.91057 0.83069 1.15000
Cd	Cd	0.05573 0.83198 0.77900 1.14400
Cd	Cd	0.06007 0.02202 0.83614 1.13800
Cd	Cd	0.91172 0.90050 0.78423 1.13400
Cd	Cd	0.02219 0.94645 0.78090 1.11400
Cd	Cd	0.98961 0.86911 0.72243 1.12700
Cd	Cd	0.13376 0.99495 0.78334 1.12800
Cd	Cd	0.09592 0.90721 0.72488 1.13200
Cd	Cd	0.16112 0.07137 0.72854 1.14700
Cd	Cd	0.05427 0.02035 0.72678 1.11500
Cd	Cd	0.08543 0.09056 0.66730 1.14500
Cd	Cd	0.97486 0.05828 0.67042 1.13000
Cd	Cd	0.13484 0.98139 0.67354 1.14400
Cd	Cd	0.19705 0.07362 0.65433 1.16000
Se	Se	0.04422 0.88955 0.80813 -1.08300
Se	Se	0.96633 0.92173 0.75372 -1.17100
Se	Se	0.08089 0.96562 0.75432 -1.15300
Se	Se	0.11135 0.04051 0.69888 -1.07800
Se	Se	0.11775 0.04958 0.81356 -0.81300
Se	Se	0.04626 0.88198 0.69369 -0.84500
S 	S 	0.25160 0.10330 0.63060 -0.47100
S 	S 	0.01660 0.82230 0.86868 -0.51700
S 	S 	0.12700 0.85290 0.85393 -0.51900
S 	S 	0.07400 0.77540 0.80638 -0.53000
S 	S 	0.02820 0.06950 0.86647 -0.51700
S 	S 	0.94350 0.84740 0.81013 -0.57600
S 	S 	0.07790 0.96110 0.85947 -0.56300
S 	S 	0.00280 0.81220 0.75111 -0.54500
S 	S 	0.16010 0.94010 0.80900 -0.54600
S 	S 	0.11440 0.85880 0.75787 -0.58800
S 	S 	0.13680 0.12640 0.75275 -0.54400
S 	S 	0.07330 0.14280 0.69936 -0.55700
S 	S 	0.18580 0.01340 0.75243 -0.53000
S 	S 	0.15520 0.93010 0.70187 -0.55300
S 	S 	0.21540 0.08850 0.69919 -0.48900
S 	S 	0.03130 0.06840 0.64080 -0.53300
S 	S 	0.14050 0.10950 0.64044 -0.52200
S 	S 	0.08070 0.96940 0.64488 -0.57300
S 	S 	0.19230 0.00310 0.64811 -0.50800
C 	C 	0.03370 0.83990 0.89710 0.07100
C 	C 	0.03950 0.81090 0.91540 -0.06500
C 	C 	0.05550 0.82520 0.93900 0.01300
C 	C 	0.06510 0.86860 0.94400 -0.01500
C 	C 	0.05700 0.89080 0.92290 0.03000
C 	C 	0.04470 0.87680 0.89730 -0.11500
C 	C 	0.06490 0.09020 0.88620 0.04300
C 	C 	0.05800 0.09120 0.91190 -0.01400
C 	C 	0.08380 0.10810 0.92790 0.01200
C 	C 	0.11650 0.12390 0.91830 -0.01700
C 	C 	0.12340 0.12300 0.89260 0.02400
C 	C 	0.09760 0.10610 0.87660 -0.10300
C 	C 	0.91110 0.82280 0.82860 0.09000
C 	C 	0.87050 0.83400 0.82290 -0.08900
C 	C 	0.83910 0.80800 0.83860 0.01100
C 	C 	0.85180 0.78000 0.85470 -0.02300
C 	C 	0.90130 0.77390 0.85130 0.02400
C 	C 	0.92420 0.79540 0.84310 -0.09600
C 	C 	0.11280 0.97310 0.87950 0.08100
C 	C 	0.12510 0.00980 0.88320 -0.10000
C 	C 	0.14900 0.01820 0.90310 0.04300
C 	C 	0.16060 0.98990 0.91930 -0.03700
C 	C 	0.14830 0.95310 0.91560 0.02200
C 	C 	0.12440 0.94480 0.89580 -0.06900
C 	C 	0.17610 0.14810 0.76820 0.05600
C 	C 	0.19670 0.13050 0.78440 -0.09100
C 	C 	0.22670 0.03040 0.76730 0.06500
C 	C 	0.25540 0.04250 0.75180 -0.05100
C 	C 	0.28920 0.05740 0.76450 0.01300
C 	C 	0.28750 0.05190 0.79210 -0.00900
C 	C 	0.25900 0.04320 0.80910 0.01500
C 	C 	0.22960 0.02630 0.79460 -0.07400
C 	C 	0.21920 0.14040 0.70120 0.02900
C 	C 	0.18690 0.16430 0.69800 -0.08900
C 	C 	0.18970 0.20380 0.69900 0.01700
C 	C 	0.22530 0.21530 0.70450 -0.02100
C 	C 	0.25300 0.19170 0.71410 0.00200
C 	C 	0.25680 0.15550 0.71030 -0.01700
C 	C 	0.02590 0.11220 0.61910 0.02600
C 	C 	0.01490 0.14340 0.63050 -0.10000
C 	C 	0.12880 0.09340 0.60700 -0.03700
C 	C 	0.09780 0.93580 0.62020 0.00700
C 	C 	0.07220 0.89850 0.61950 -0.07300
C 	C 	0.23080 0.98150 0.66600 0.03700
C 	C 	0.23460 0.98910 0.69140 -0.11300
C 	C 	0.26520 0.97500 0.70470 0.03100
C 	C 	0.29200 0.95320 0.69240 -0.01700
C 	C 	0.28820 0.94550 0.66690 0.00900
C 	C 	0.25760 0.95970 0.65370 -0.03200
Cd	Cd	0.57812 0.30130 0.35045 1.15800
Cd	Cd	0.49128 0.37491 0.34100 1.14900
Cd	Cd	0.60622 0.41057 0.33069 1.15000
Cd	Cd	0.55573 0.33198 0.27900 1.14300
Cd	Cd	0.56007 0.52202 0.33614 1.13600
Cd	Cd	0.41172 0.40050 0.28423 1.13400
Cd	Cd	0.52219 0.44645 0.28090 1.11400
Cd	Cd	0.48961 0.36911 0.22243 1.13100
Cd	Cd	0.63376 0.49495 0.28334 1.13200
Cd	Cd	0.59592 0.40721 0.22488 1.13200
Cd	Cd	0.66112 0.57137 0.22854 1.14700
Cd	Cd	0.55427 0.52035 0.22678 1.11300
Cd	Cd	0.58543 0.59056 0.16730 1.14500
Cd	Cd	0.47486 0.55828 0.17042 1.13300
Cd	Cd	0.63484 0.48139 0.17354 1.14700
Cd	Cd	0.69705 0.57362 0.15433 1.16000
Se	Se	0.54422 0.38955 0.30813 -1.08700
Se	Se	0.46633 0.42173 0.25372 -1.15700
Se	Se	0.58089 0.46562 0.25432 -1.14500
Se	Se	0.61135 0.54051 0.19888 -1.08400
Se	Se	0.61775 0.54958 0.31356 -0.81800
Se	Se	0.54626 0.38198 0.19369 -0.85100
S 	S 	0.75160 0.60330 0.13060 -0.47100
S 	S 	0.51660 0.32230 0.36868 -0.52600
S 	S 	0.62700 0.35290 0.35393 -0.51800
S 	S 	0.57400 0.27540 0.30638 -0.53300
S 	S 	0.52820 0.56950 0.36647 -0.52600
S 	S 	0.44350 0.34740 0.31013 -0.57000
S 	S 	0.57790 0.46110 0.35947 -0.56100
S 	S 	0.50280 0.31220 0.25111 -0.55500
S 	S 	0.66010 0.44010 0.30900 -0.54000
S 	S 	0.61440 0.35880 0.25787 -0.58800
S 	S 	0.63680 0.62640 0.25275 -0.54500
S 	S 	0.57330 0.64280 0.19936 -0.56100
S 	S 	0.68580 0.51340 0.25243 -0.53900
S 	S 	0.65520 0.43010 0.20187 -0.54900
S 	S 	0.71540 0.58850 0.19919 -0.49100
S 	S 	0.53130 0.56840 0.14080 -0.54200
S 	S 	0.64050 0.60950 0.14044 -0.52200
S 	S 	0.58070 0.46940 0.14488 -0.56700
S 	S 	0.69230 0.50310 0.14811 -0.52300
C 	C 	0.53370 0.33990 0.39710 0.07200
C 	C 	0.53950 0.31090 0.41540 -0.06900
C 	C 	0.55550 0.32520 0.43900 0.01200
C 	C 	0.56510 0.36860 0.44400 -0.01600
C 	C 	0.55700 0.39080 0.42290 0.02900
C 	C 	0.54470 0.37680 0.39730 -0.11800
C 	C 	0.56490 0.59020 0.38620 0.04400
C 	C 	0.55800 0.59120 0.41190 -0.01900
C 	C 	0.58380 0.60810 0.42790 0.01000
C 	C 	0.61650 0.62390 0.41830 -0.01700
C 	C 	0.62340 0.62300 0.39260 0.02400
C 	C 	0.59760 0.60610 0.37660 -0.10400
C 	C 	0.41110 0.32280 0.32860 0.08800
C 	C 	0.37050 0.33400 0.32290 -0.08900
C 	C 	0.33910 0.30800 0.33860 0.01200
C 	C 	0.35180 0.28000 0.35470 -0.02300
C 	C 	0.40130 0.27390 0.35130 0.02500
C 	C 	0.42420 0.29540 0.34310 -0.09200
C 	C 	0.61280 0.47310 0.37950 0.09200
C 	C 	0.62510 0.50980 0.38320 -0.11000
C 	C 	0.64900 0.51820 0.40310 0.03200
C 	C 	0.66060 0.48990 0.41930 -0.02300
C 	C 	0.64830 0.45310 0.41560 0.02200
C 	C 	0.62440 0.44480 0.39580 -0.06900
C 	C 	0.67610 0.64810 0.26820 0.05600
C 	C 	0.69670 0.63050 0.28440 -0.09100
C 	C 	0.72670 0.53040 0.26730 0.06600
C 	C 	0.75540 0.54250 0.25180 -0.05400
C 	C 	0.78920 0.55740 0.26450 0.01200
C 	C 	0.78750 0.55190 0.29210 -0.01100
C 	C 	0.75900 0.54320 0.30910 0.01300
C 	C 	0.72960 0.52630 0.29460 -0.07800
C 	C 	0.71920 0.64040 0.20120 0.02900
C 	C 	0.68690 0.66430 0.19800 -0.08900
C 	C 	0.68970 0.70380 0.19900 0.01600
C 	C 	0.72530 0.71530 0.20450 -0.02100
C 	C 	0.75300 0.69170 0.21410 0.00200
C 	C 	0.75680 0.65550 0.21030 -0.01700
C 	C 	0.52590 0.61220 0.11910 0.02400
C 	C 	0.51490 0.64340 0.13050 -0.10600
C 	C 	0.62880 0.59340 0.10700 -0.04100
C 	C 	0.59780 0.43580 0.12020 0.00900
C 	C 	0.57220 0.39850 0.11950 -0.07600
C 	C 	0.73080 0.48150 0.16600 0.04600
C 	C 	0.73460 0.48910 0.19140 -0.11000
C 	C 	0.76520 0.47500 0.20470 0.03600
C 	C 	0.79200 0.45320 0.19240 -0.01600
C 	C 	0.78820 0.44550 0.16690 0.01100
C 	C 	0.75760 0.45970 0.15370 -0.03100
Cd	Cd	0.92188 0.19870 0.85045 1.15700
Cd	Cd	0.00872 0.12509 0.84100 1.15300
Cd	Cd	0.89378 0.08943 0.83069 1.15100
Cd	Cd	0.94427 0.16802 0.77900 1.14300
Cd	Cd	0.93993 0.97798 0.83614 1.13100
Cd	Cd	0.08828 0.09950 0.78423 1.13500
Cd	Cd	0.97781 0.05355 0.78090 1.11100
Cd	Cd	0.01039 0.13089 0.72243 1.13500
Cd	Cd	0.86624 0.00505 0.78334 1.13600
Cd	Cd	0.90408 0.09279 0.72488 1.13200
Cd	Cd	0.83888 0.92863 0.72854 1.14700
Cd	Cd	0.94573 0.97965 0.72678 1.10700
Cd	Cd	0.91457 0.90944 0.66730 1.14500
Cd	Cd	0.02514 0.94172 0.67042 1.13400
Cd	Cd	0.86516 0.01861 0.67354 1.15000
Cd	Cd	0.80295 0.92638 0.65433 1.16000
Se	Se	0.95578 0.11045 0.80813 -1.09400
Se	Se	0.03367 0.07827 0.75372 -1.14900
Se	Se	0.91911 0.03438 0.75432 -1.14200
Se	Se	0.88865 0.95949 0.69888 -1.09300
Se	Se	0.88225 0.95042 0.81356 -0.82500
Se	Se	0.95374 0.11802 0.69369 -0.85900
S 	S 	0.74840 0.89670 0.63060 -0.47200
S 	S 	0.98340 0.17770 0.86868 -0.53500
S 	S 	0.87300 0.14710 0.85393 -0.51800
S 	S 	0.92600 0.22460 0.80638 -0.53600
S 	S 	0.97180 0.93050 0.86647 -0.53900
S 	S 	0.05650 0.15260 0.81013 -0.56400
S 	S 	0.92210 0.03890 0.85947 -0.56100
S 	S 	0.99720 0.18780 0.75111 -0.56500
S 	S 	0.83990 0.05990 0.80900 -0.53500
S 	S 	0.88560 0.14120 0.75787 -0.58800
S 	S 	0.86320 0.87360 0.75275 -0.54500
S 	S 	0.92670 0.85720 0.69936 -0.56400
S 	S 	0.81420 0.98660 0.75243 -0.54800
S 	S 	0.84480 0.06990 0.70187 -0.54600
S 	S 	0.78460 0.91150 0.69919 -0.49200
S 	S 	0.96870 0.93160 0.64080 -0.55400
S 	S 	0.85950 0.89050 0.64044 -0.52300
S 	S 	0.91930 0.03060 0.64488 -0.56400
S 	S 	0.80770 0.99690 0.64811 -0.53700
C 	C 	0.96630 0.16010 0.89710 0.07200
C 	C 	0.96050 0.18910 0.91540 -0.07200
C 	C 	0.94450 0.17480 0.93900 0.01000
C 	C 	0.93490 0.13140 0.94400 -0.01600
C 	C 	0.94300 0.10920 0.92290 0.02900
C 	C 	0.95530 0.12320 0.89730 -0.12100
C 	C 	0.93510 0.90980 0.88620 0.04600
C 	C 	0.94200 0.90880 0.91190 -0.02400
C 	C 	0.91620 0.89190 0.92790 0.00800
C 	C 	0.88350 0.87610 0.91830 -0.01800
C 	C 	0.87660 0.87700 0.89260 0.02500
C 	C 	0.90240 0.89390 0.87660 -0.10500
C 	C 	0.08890 0.17720 0.82860 0.08700
C 	C 	0.12950 0.16600 0.82290 -0.08800
C 	C 	0.16090 0.19200 0.83860 0.01100
C 	C 	0.14820 0.22000 0.85470 -0.02200
C 	C 	0.09870 0.22610 0.85130 0.02500
C 	C 	0.07580 0.20460 0.84310 -0.08800
C 	C 	0.88720 0.02690 0.87950 0.10300
C 	C 	0.87490 0.99020 0.88320 -0.12000
C 	C 	0.85100 0.98180 0.90310 0.02200
C 	C 	0.83940 0.01010 0.91930 -0.00900
C 	C 	0.85170 0.04690 0.91560 0.02100
C 	C 	0.87560 0.05520 0.89580 -0.07100
C 	C 	0.82390 0.85190 0.76820 0.05500
C 	C 	0.80330 0.86950 0.78440 -0.09000
C 	C 	0.77330 0.96960 0.76730 0.06800
C 	C 	0.74460 0.95750 0.75180 -0.05700
C 	C 	0.71080 0.94260 0.76450 0.01100
C 	C 	0.71250 0.94810 0.79210 -0.01300
C 	C 	0.74100 0.95680 0.80910 0.01200
C 	C 	0.77040 0.97370 0.79460 -0.08100
C 	C 	0.78080 0.85960 0.70120 0.03000
C 	C 	0.81310 0.83570 0.69800 -0.08900
C 	C 	0.81030 0.79620 0.69900 0.01500
C 	C 	0.77470 0.78470 0.70450 -0.02100
C 	C 	0.74700 0.80830 0.71410 0.00200
C 	C 	0.74320 0.84450 0.71030 -0.01700
C 	C 	0.97410 0.88780 0.61910 0.02200
C 	C 	0.98510 0.85660 0.63050 -0.11100
C 	C 	0.87120 0.90660 0.60700 -0.04400
C 	C 	0.90220 0.06420 0.62020 0.01100
C 	C 	0.92780 0.10150 0.61950 -0.08000
C 	C 	0.76920 0.01850 0.66600 0.05500
C 	C 	0.76540 0.01090 0.69140 -0.10600
C 	C 	0.73480 0.02500 0.70470 0.04000
C 	C 	0.70800 0.04680 0.69240 -0.01400
C 	C 	0.71180 0.05450 0.66690 0.01200
C 	C 	0.74240 0.04030 0.65370 -0.03000
Cd	Cd	0.42188 0.69870 0.35045 1.15800
Cd	Cd	0.50872 0.62509 0.34100 1.14900
Cd	Cd	0.39378 0.58943 0.33069 1.15000
Cd	Cd	0.44427 0.66802 0.27900 1.14300
Cd	Cd	0.43993 0.47798 0.33614 1.13600
Cd	Cd	0.58828 0.59950 0.28423 1.13400
Cd	Cd	0.47781 0.55355 0.28090 1.11500
Cd	Cd	0.51039 0.63089 0.22243 1.13100
Cd	Cd	0.36624 0.50505 0.28334 1.13200
Cd	Cd	0.40408 0.59279 0.22488 1.13200
Cd	Cd	0.33888 0.42863 0.22854 1.14700
Cd	Cd	0.44573 0.47965 0.22678 1.11300
Cd	Cd	0.41457 0.40944 0.16730 1.14500
Cd	Cd	0.52514 0.44172 0.17042 1.13300
Cd	Cd	0.36516 0.51861 0.17354 1.14700
Cd	Cd	0.30295 0.42638 0.15433 1.16000
Se	Se	0.45578 0.61045 0.30813 -1.08700
Se	Se	0.53367 0.57827 0.25372 -1.15700
Se	Se	0.41911 0.53438 0.25432 -1.14500
Se	Se	0.38865 0.45949 0.19888 -1.08400
Se	Se	0.38225 0.45042 0.31356 -0.81800
Se	Se	0.45374 0.61802 0.19369 -0.85100
S 	S 	0.24840 0.39670 0.13060 -0.47100
S 	S 	0.48340 0.67770 0.36868 -0.52600
S 	S 	0.37300 0.64710 0.35393 -0.51800
S 	S 	0.42600 0.72460 0.30638 -0.53400
S 	S 	0.47180 0.43050 0.36647 -0.52600
S 	S 	0.55650 0.65260 0.31013 -0.57000
S 	S 	0.42210 0.53890 0.35947 -0.56100
S 	S 	0.49720 0.68780 0.25111 -0.55600
S 	S 	0.33990 0.55990 0.30900 -0.54000
S 	S 	0.38560 0.64120 0.25787 -0.58800
S 	S 	0.36320 0.37360 0.25275 -0.54500
S 	S 	0.42670 0.35720 0.19936 -0.56100
S 	S 	0.31420 0.48660 0.25243 -0.53900
S 	S 	0.34480 0.56990 0.20187 -0.54900
S 	S 	0.28460 0.41150 0.19919 -0.49100
S 	S 	0.46870 0.43160 0.14080 -0.54200
S 	S 	0.35950 0.39050 0.14044 -0.52200
S 	S 	0.41930 0.53060 0.14488 -0.56700
S 	S 	0.30770 0.49690 0.14811 -0.52300
C 	C 	0.46630 0.66010 0.39710 0.07200
C 	C 	0.46050 0.68910 0.41540 -0.06900
C 	C 	0.44450 0.67480 0.43900 0.01200
C 	C 	0.43490 0.63140 0.44400 -0.01600
C 	C 	0.44300 0.60920 0.42290 0.02900
C 	C 	0.45530 0.62320 0.39730 -0.11800
C 	C 	0.43510 0.40980 0.38620 0.04400
C 	C 	0.44200 0.40880 0.41190 -0.01900
C 	C 	0.41620 0.39190 0.42790 0.01000
C 	C 	0.38350 0.37610 0.41830 -0.01700
C 	C 	0.37660 0.37700 0.39260 0.02400
C 	C 	0.40240 0.39390 0.37660 -0.10400
C 	C 	0.58890 0.67720 0.32860 0.08800
C 	C 	0.62950 0.66600 0.32290 -0.08900
C 	C 	0.66090 0.69200 0.33860 0.01100
C 	C 	0.64820 0.72000 0.35470 -0.02300
C 	C 	0.59870 0.72610 0.35130 0.02400
C 	C 	0.57580 0.70460 0.34310 -0.09200
C 	C 	0.38720 0.52690 0.37950 0.09200
C 	C 	0.37490 0.49020 0.38320 -0.11000
C 	C 	0.35100 0.48180 0.40310 0.03200
C 	C 	0.33940 0.51010 0.41930 -0.02300
C 	C 	0.35170 0.54690 0.41560 0.02100
C 	C 	0.37560 0.55520 0.39580 -0.07000
C 	C 	0.32390 0.35190 0.26820 0.05600
C 	C 	0.30330 0.36950 0.28440 -0.09100
C 	C 	0.27330 0.46960 0.26730 0.06600
C 	C 	0.24460 0.45750 0.25180 -0.05400
C 	C 	0.21080 0.44260 0.26450 0.01300
C 	C 	0.21250 0.44810 0.29210 -0.01100
C 	C 	0.24100 0.45680 0.30910 0.01300
C 	C 	0.27040 0.47370 0.29460 -0.07800
C 	C 	0.28080 0.35960 0.20120 0.02900
C 	C 	0.31310 0.33570 0.19800 -0.08900
C 	C 	0.31030 0.29620 0.19900 0.01600
C 	C 	0.27470 0.28470 0.20450 -0.02100
C 	C 	0.24700 0.30830 0.21410 0.00200
C 	C 	0.24320 0.34450 0.21030 -0.01700
C 	C 	0.47410 0.38780 0.11910 0.02400
C 	C 	0.48510 0.35660 0.13050 -0.10600
C 	C 	0.37120 0.40660 0.10700 -0.04100
C 	C 	0.40220 0.56420 0.12020 0.00900
C 	C 	0.42780 0.60150 0.11950 -0.07600
C 	C 	0.26920 0.51850 0.16600 0.04600
C 	C 	0.26540 0.51090 0.19140 -0.11000
C 	C 	0.23480 0.52500 0.20470 0.03600
C 	C 	0.20800 0.54680 0.19240 -0.01600
C 	C 	0.21180 0.55450 0.16690 0.01000
C 	C 	0.24240 0.54030 0.15370 -0.03100
Cd	Cd	0.30130 0.07812 0.60045 1.15800
Cd	Cd	0.37491 0.99128 0.59100 1.14600
Cd	Cd	0.41057 0.10622 0.58069 1.15000
Cd	Cd	0.33198 0.05573 0.52900 1.14400
Cd	Cd	0.52202 0.06007 0.58614 1.13600
Cd	Cd	0.40050 0.91172 0.53423 1.13400
Cd	Cd	0.44645 0.02219 0.53090 1.11600
Cd	Cd	0.36911 0.98961 0.47243 1.12700
Cd	Cd	0.49495 0.13376 0.53334 1.13200
Cd	Cd	0.40721 0.09592 0.47488 1.13200
Cd	Cd	0.57137 0.16112 0.47854 1.14700
Cd	Cd	0.52035 0.05427 0.47678 1.11300
Cd	Cd	0.59056 0.08543 0.41730 1.14500
Cd	Cd	0.55828 0.97486 0.42042 1.13000
Cd	Cd	0.48139 0.13484 0.42354 1.14700
Cd	Cd	0.57362 0.19705 0.40433 1.16000
Se	Se	0.38955 0.04422 0.55813 -1.08100
Se	Se	0.42173 0.96633 0.50372 -1.16700
Se	Se	0.46562 0.08089 0.50432 -1.14400
Se	Se	0.54051 0.11135 0.44888 -1.08400
Se	Se	0.54958 0.11775 0.56356 -0.81800
Se	Se	0.38198 0.04626 0.44369 -0.84400
S 	S 	0.60330 0.25160 0.38060 -0.47100
S 	S 	0.32230 0.01660 0.61868 -0.51700
S 	S 	0.35290 0.12700 0.60393 -0.51800
S 	S 	0.27540 0.07400 0.55638 -0.53000
S 	S 	0.56950 0.02820 0.61647 -0.51900
S 	S 	0.34740 0.94350 0.56013 -0.57600
S 	S 	0.46110 0.07790 0.60947 -0.55800
S 	S 	0.31220 0.00280 0.50111 -0.54400
S 	S 	0.44010 0.16010 0.55900 -0.54000
S 	S 	0.35880 0.11440 0.50787 -0.58700
S 	S 	0.62640 0.13680 0.50275 -0.54400
S 	S 	0.64280 0.07330 0.44936 -0.55700
S 	S 	0.51340 0.18580 0.50243 -0.53900
S 	S 	0.43010 0.15520 0.45187 -0.54900
S 	S 	0.58850 0.21540 0.44919 -0.49100
S 	S 	0.56840 0.03130 0.39080 -0.53600
S 	S 	0.60950 0.14050 0.39044 -0.52200
S 	S 	0.46940 0.08070 0.39488 -0.56500
S 	S 	0.50310 0.19230 0.39811 -0.52300
C 	C 	0.33990 0.03370 0.64710 0.07100
C 	C 	0.31090 0.03950 0.66540 -0.06500
C 	C 	0.32520 0.05550 0.68900 0.01300
C 	C 	0.36860 0.06510 0.69400 -0.01400
C 	C 	0.39080 0.05700 0.67290 0.03100
C 	C 	0.37680 0.04470 0.64730 -0.11500
C 	C 	0.59020 0.06490 0.63620 0.04400
C 	C 	0.59120 0.05800 0.66190 -0.01600
C 	C 	0.60810 0.08380 0.67790 0.01100
C 	C 	0.62390 0.11650 0.66830 -0.01700
C 	C 	0.62300 0.12340 0.64260 0.02400
C 	C 	0.60610 0.09760 0.62660 -0.10300
C 	C 	0.32280 0.91110 0.57860 0.09000
C 	C 	0.33400 0.87050 0.57290 -0.08900
C 	C 	0.30800 0.83910 0.58860 0.01200
C 	C 	0.28000 0.85180 0.60470 -0.02300
C 	C 	0.27390 0.90130 0.60130 0.02400
C 	C 	0.29540 0.92420 0.59310 -0.09600
C 	C 	0.47310 0.11280 0.62950 0.09100
C 	C 	0.50980 0.12510 0.63320 -0.10900
C 	C 	0.51820 0.14900 0.65310 0.03200
C 	C 	0.48990 0.16060 0.66930 -0.02200
C 	C 	0.45310 0.14830 0.66560 0.02200
C 	C 	0.44480 0.12440 0.64580 -0.06900
C 	C 	0.64810 0.17610 0.51820 0.05600
C 	C 	0.63050 0.19670 0.53440 -0.09100
C 	C 	0.53040 0.22670 0.51730 0.06600
C 	C 	0.54250 0.25540 0.50180 -0.05400
C 	C 	0.55740 0.28920 0.51450 0.01200
C 	C 	0.55190 0.28750 0.54210 -0.01100
C 	C 	0.54320 0.25900 0.55910 0.01300
C 	C 	0.52630 0.22960 0.54460 -0.07800
C 	C 	0.64040 0.21920 0.45120 0.02900
C 	C 	0.66430 0.18690 0.44800 -0.08900
C 	C 	0.70380 0.18970 0.44900 0.01700
C 	C 	0.71530 0.22530 0.45450 -0.02100
C 	C 	0.69170 0.25300 0.46410 0.00200
C 	C 	0.65550 0.25680 0.46030 -0.01700
C 	C 	0.61220 0.02590 0.36910 0.02600
C 	C 	0.64340 0.01490 0.38050 -0.10000
C 	C 	0.59340 0.12880 0.35700 -0.03900
C 	C 	0.43580 0.09780 0.37020 0.00900
C 	C 	0.39850 0.07220 0.36950 -0.07200
C 	C 	0.48150 0.23080 0.41600 0.04600
C 	C 	0.48910 0.23460 0.44140 -0.11000
C 	C 	0.47500 0.26520 0.45470 0.03600
C 	C 	0.45320 0.29200 0.44240 -0.01600
C 	C 	0.44550 0.28820 0.41690 0.01000
C 	C 	0.45970 0.25760 0.40370 -0.03100
Cd	Cd	0.80130 0.57812 0.10045 1.15800
Cd	Cd	0.87491 0.49128 0.09100 1.14900
Cd	Cd	0.91057 0.60622 0.08069 1.15000
Cd	Cd	0.83198 0.55573 0.02900 1.14300
Cd	Cd	0.02202 0.56007 0.08614 1.13800
Cd	Cd	0.90050 0.41172 0.03423 1.13400
Cd	Cd	0.94645 0.52219 0.03090 1.11300
Cd	Cd	0.86911 0.48961 0.97243 1.13100
Cd	Cd	0.99495 0.63376 0.03334 1.12900
Cd	Cd	0.90721 0.59592 0.97488 1.13200
Cd	Cd	0.07137 0.66112 0.97854 1.14700
Cd	Cd	0.02035 0.55427 0.97678 1.11500
Cd	Cd	0.09056 0.58543 0.91730 1.14500
Cd	Cd	0.05828 0.47486 0.92042 1.13400
Cd	Cd	0.98139 0.63484 0.92354 1.14400
Cd	Cd	0.07362 0.69705 0.90433 1.16000
Se	Se	0.88955 0.54422 0.05813 -1.08900
Se	Se	0.92173 0.46633 0.00372 -1.16100
Se	Se	0.96562 0.58089 0.00432 -1.15500
Se	Se	0.04051 0.61135 0.94888 -1.07800
Se	Se	0.04958 0.61775 0.06356 -0.81300
Se	Se	0.88198 0.54626 0.94369 -0.85200
S 	S 	0.10330 0.75160 0.88060 -0.47100
S 	S 	0.82230 0.51660 0.11868 -0.52600
S 	S 	0.85290 0.62700 0.10393 -0.51900
S 	S 	0.77540 0.57400 0.05638 -0.53300
S 	S 	0.06950 0.52820 0.11647 -0.52400
S 	S 	0.84740 0.44350 0.06013 -0.57000
S 	S 	0.96110 0.57790 0.10947 -0.56500
S 	S 	0.81220 0.50280 0.00111 -0.55500
S 	S 	0.94010 0.66010 0.05900 -0.54600
S 	S 	0.85880 0.61440 0.00787 -0.58800
S 	S 	0.12640 0.63680 0.00275 -0.54500
S 	S 	0.14280 0.57330 0.94936 -0.56100
S 	S 	0.01340 0.68580 0.00243 -0.53000
S 	S 	0.93010 0.65520 0.95187 -0.55300
S 	S 	0.08850 0.71540 0.94919 -0.48900
S 	S 	0.06840 0.53130 0.89080 -0.53800
S 	S 	0.10950 0.64050 0.89044 -0.52200
S 	S 	0.96940 0.58070 0.89488 -0.57500
S 	S 	0.00310 0.69230 0.89811 -0.50800
C 	C 	0.83990 0.53370 0.14710 0.07200
C 	C 	0.81090 0.53950 0.16540 -0.06900
C 	C 	0.82520 0.55550 0.18900 0.01200
C 	C 	0.86860 0.56510 0.19400 -0.01700
C 	C 	0.89080 0.55700 0.17290 0.02800
C 	C 	0.87680 0.54470 0.14730 -0.11800
C 	C 	0.09020 0.56490 0.13620 0.04400
C 	C 	0.09120 0.55800 0.16190 -0.01800
C 	C 	0.10810 0.58380 0.17790 0.01100
C 	C 	0.12390 0.61650 0.16830 -0.01700
C 	C 	0.12300 0.62340 0.14260 0.02400
C 	C 	0.10610 0.59760 0.12660 -0.10400
C 	C 	0.82280 0.41110 0.07860 0.08800
C 	C 	0.83400 0.37050 0.07290 -0.08900
C 	C 	0.80800 0.33910 0.08860 0.01100
C 	C 	0.78000 0.35180 0.10470 -0.02300
C 	C 	0.77390 0.40130 0.10130 0.02500
C 	C 	0.79540 0.42420 0.09310 -0.09200
C 	C 	0.97310 0.61280 0.12950 0.08100
C 	C 	0.00980 0.62510 0.13320 -0.10000
C 	C 	0.01820 0.64900 0.15310 0.04300
C 	C 	0.98990 0.66060 0.16930 -0.03700
C 	C 	0.95310 0.64830 0.16560 0.02200
C 	C 	0.94480 0.62440 0.14580 -0.06900
C 	C 	0.14810 0.67610 0.01820 0.05500
C 	C 	0.13050 0.69670 0.03440 -0.09100
C 	C 	0.03040 0.72670 0.01730 0.06500
C 	C 	0.04250 0.75540 0.00180 -0.05100
C 	C 	0.05740 0.78920 0.01450 0.01300
C 	C 	0.05190 0.78750 0.04210 -0.00900
C 	C 	0.04320 0.75900 0.05910 0.01500
C 	C 	0.02630 0.72960 0.04460 -0.07400
C 	C 	0.14040 0.71920 0.95120 0.02900
C 	C 	0.16430 0.68690 0.94800 -0.08900
C 	C 	0.20380 0.68970 0.94900 0.01600
C 	C 	0.21530 0.72530 0.95450 -0.02100
C 	C 	0.19170 0.75300 0.96410 0.00200
C 	C 	0.15550 0.75680 0.96030 -0.01700
C 	C 	0.11220 0.52590 0.86910 0.02500
C 	C 	0.14340 0.51490 0.88050 -0.10600
C 	C 	0.09340 0.62880 0.85700 -0.03900
C 	C 	0.93580 0.59780 0.87020 0.00700
C 	C 	0.89850 0.57220 0.86950 -0.07700
C 	C 	0.98150 0.73080 0.91600 0.03700
C 	C 	0.98910 0.73460 0.94140 -0.11300
C 	C 	0.97500 0.76520 0.95470 0.03100
C 	C 	0.95320 0.79200 0.94240 -0.01700
C 	C 	0.94550 0.78820 0.91690 0.00900
C 	C 	0.95970 0.75760 0.90370 -0.03300
Cd	Cd	0.69870 0.92188 0.60045 1.15800
Cd	Cd	0.62509 0.00872 0.59100 1.15300
Cd	Cd	0.58943 0.89378 0.58069 1.15100
Cd	Cd	0.66802 0.94427 0.52900 1.14300
Cd	Cd	0.47798 0.93993 0.58614 1.13400
Cd	Cd	0.59950 0.08828 0.53423 1.13400
Cd	Cd	0.55355 0.97781 0.53090 1.11100
Cd	Cd	0.63089 0.01039 0.47243 1.13500
Cd	Cd	0.50505 0.86624 0.53334 1.13200
Cd	Cd	0.59279 0.90408 0.47488 1.13200
Cd	Cd	0.42863 0.83888 0.47854 1.14700
Cd	Cd	0.47965 0.94573 0.47678 1.11100
Cd	Cd	0.40944 0.91457 0.41730 1.14500
Cd	Cd	0.44172 0.02514 0.42042 1.13500
Cd	Cd	0.51861 0.86516 0.42354 1.14700
Cd	Cd	0.42638 0.80295 0.40433 1.16000
Se	Se	0.61045 0.95578 0.55813 -1.09400
Se	Se	0.57827 0.03367 0.50372 -1.15000
Se	Se	0.53438 0.91911 0.50432 -1.14900
Se	Se	0.45949 0.88865 0.44888 -1.08500
Se	Se	0.45042 0.88225 0.56356 -0.81900
Se	Se	0.61802 0.95374 0.44369 -0.85900
S 	S 	0.39670 0.74840 0.38060 -0.47200
S 	S 	0.67770 0.98340 0.61868 -0.53500
S 	S 	0.64710 0.87300 0.60393 -0.51800
S 	S 	0.72460 0.92600 0.55638 -0.53600
S 	S 	0.43050 0.97180 0.61647 -0.53500
S 	S 	0.65260 0.05650 0.56013 -0.56400
S 	S 	0.53890 0.92210 0.60947 -0.56500
S 	S 	0.68780 0.99720 0.50111 -0.56500
S 	S 	0.55990 0.83990 0.55900 -0.54000
S 	S 	0.64120 0.88560 0.50787 -0.58900
S 	S 	0.37360 0.86320 0.50275 -0.54500
S 	S 	0.35720 0.92670 0.44936 -0.56400
S 	S 	0.48660 0.81420 0.50243 -0.53900
S 	S 	0.56990 0.84480 0.45187 -0.54900
S 	S 	0.41150 0.78460 0.44919 -0.49100
S 	S 	0.43160 0.96870 0.39080 -0.54900
S 	S 	0.39050 0.85950 0.39044 -0.52300
S 	S 	0.53060 0.91930 0.39488 -0.57000
S 	S 	0.49690 0.80770 0.39811 -0.52300
C 	C 	0.66010 0.96630 0.64710 0.07200
C 	C 	0.68910 0.96050 0.66540 -0.07200
C 	C 	0.67480 0.94450 0.68900 0.01000
C 	C 	0.63140 0.93490 0.69400 -0.01700
C 	C 	0.60920 0.94300 0.67290 0.02800
C 	C 	0.62320 0.95530 0.64730 -0.12100
C 	C 	0.40980 0.93510 0.63620 0.04600
C 	C 	0.40880 0.94200 0.66190 -0.02300
C 	C 	0.39190 0.91620 0.67790 0.00900
C 	C 	0.37610 0.88350 0.66830 -0.01800
C 	C 	0.37700 0.87660 0.64260 0.02400
C 	C 	0.39390 0.90240 0.62660 -0.10400
C 	C 	0.67720 0.08890 0.57860 0.08700
C 	C 	0.66600 0.12950 0.57290 -0.08800
C 	C 	0.69200 0.16090 0.58860 0.01100
C 	C 	0.72000 0.14820 0.60470 -0.02300
C 	C 	0.72610 0.09870 0.60130 0.02500
C 	C 	0.70460 0.07580 0.59310 -0.08800
C 	C 	0.52690 0.88720 0.62950 0.09300
C 	C 	0.49020 0.87490 0.63320 -0.11000
C 	C 	0.48180 0.85100 0.65310 0.03200
C 	C 	0.51010 0.83940 0.66930 -0.02300
C 	C 	0.54690 0.85170 0.66560 0.02100
C 	C 	0.55520 0.87560 0.64580 -0.07000
C 	C 	0.35190 0.82390 0.51820 0.05500
C 	C 	0.36950 0.80330 0.53440 -0.09000
C 	C 	0.46960 0.77330 0.51730 0.06600
C 	C 	0.45750 0.74460 0.50180 -0.05400
C 	C 	0.44260 0.71080 0.51450 0.01200
C 	C 	0.44810 0.71250 0.54210 -0.01100
C 	C 	0.45680 0.74100 0.55910 0.01300
C 	C 	0.47370 0.77040 0.54460 -0.07800
C 	C 	0.35960 0.78080 0.45120 0.02900
C 	C 	0.33570 0.81310 0.44800 -0.08900
C 	C 	0.29620 0.81030 0.44900 0.01500
C 	C 	0.28470 0.77470 0.45450 -0.02100
C 	C 	0.30830 0.74700 0.46410 0.00200
C 	C 	0.34450 0.74320 0.46030 -0.01700
C 	C 	0.38780 0.97410 0.36910 0.02200
C 	C 	0.35660 0.98510 0.38050 -0.11100
C 	C 	0.40660 0.87120 0.35700 -0.04200
C 	C 	0.56420 0.90220 0.37020 0.00800
C 	C 	0.60150 0.92780 0.36950 -0.08100
C 	C 	0.51850 0.76920 0.41600 0.04700
C 	C 	0.51090 0.76540 0.44140 -0.11000
C 	C 	0.52500 0.73480 0.45470 0.03600
C 	C 	0.54680 0.70800 0.44240 -0.01600
C 	C 	0.55450 0.71180 0.41690 0.01000
C 	C 	0.54030 0.74240 0.40370 -0.03100
Cd	Cd	0.19870 0.42188 0.10045 1.15800
Cd	Cd	0.12509 0.50872 0.09100 1.14900
Cd	Cd	0.08943 0.39378 0.08069 1.15100
Cd	Cd	0.16802 0.44427 0.02900 1.14300
Cd	Cd	0.97798 0.43993 0.08614 1.13300
Cd	Cd	0.09950 0.58828 0.03423 1.13400
Cd	Cd	0.05355 0.47781 0.03090 1.11500
Cd	Cd	0.13089 0.51039 0.97243 1.13100
Cd	Cd	0.00505 0.36624 0.03334 1.13600
Cd	Cd	0.09279 0.40408 0.97488 1.13200
Cd	Cd	0.92863 0.33888 0.97854 1.14700
Cd	Cd	0.97965 0.44573 0.97678 1.10900
Cd	Cd	0.90944 0.41457 0.91730 1.14500
Cd	Cd	0.94172 0.52514 0.92042 1.13200
Cd	Cd	0.01861 0.36516 0.92354 1.15000
Cd	Cd	0.92638 0.30295 0.90433 1.16000
Se	Se	0.11045 0.45578 0.05813 -1.08700
Se	Se	0.07827 0.53367 0.00372 -1.15600
Se	Se	0.03438 0.41911 0.00432 -1.13800
Se	Se	0.95949 0.38865 0.94888 -1.09200
Se	Se	0.95042 0.38225 0.06356 -0.82500
Se	Se	0.11802 0.45374 0.94369 -0.85100
S 	S 	0.89670 0.24840 0.88060 -0.47200
S 	S 	0.17770 0.48340 0.11868 -0.52600
S 	S 	0.14710 0.37300 0.10393 -0.51800
S 	S 	0.22460 0.42600 0.05638 -0.53300
S 	S 	0.93050 0.47180 0.11647 -0.53000
S 	S 	0.15260 0.55650 0.06013 -0.57000
S 	S 	0.03890 0.42210 0.10947 -0.55700
S 	S 	0.18780 0.49720 0.00111 -0.55500
S 	S 	0.05990 0.33990 0.05900 -0.53500
S 	S 	0.14120 0.38560 0.00787 -0.58800
S 	S 	0.87360 0.36320 0.00275 -0.54500
S 	S 	0.85720 0.42670 0.94936 -0.56100
S 	S 	0.98660 0.31420 0.00243 -0.54800
S 	S 	0.06990 0.34480 0.95187 -0.54600
S 	S 	0.91150 0.28460 0.94919 -0.49300
S 	S 	0.93160 0.46870 0.89080 -0.54700
S 	S 	0.89050 0.35950 0.89044 -0.52300
S 	S 	0.03060 0.41930 0.89488 -0.56000
S 	S 	0.99690 0.30770 0.89811 -0.53700
C 	C 	0.16010 0.46630 0.14710 0.07200
C 	C 	0.18910 0.46050 0.16540 -0.06900
C 	C 	0.17480 0.44450 0.18900 0.01200
C 	C 	0.13140 0.43490 0.19400 -0.01500
C 	C 	0.10920 0.44300 0.17290 0.03000
C 	C 	0.12320 0.45530 0.14730 -0.11800
C 	C 	0.90980 0.43510 0.13620 0.04500
C 	C 	0.90880 0.44200 0.16190 -0.02100
C 	C 	0.89190 0.41620 0.17790 0.00900
C 	C 	0.87610 0.38350 0.16830 -0.01800
C 	C 	0.87700 0.37660 0.14260 0.02400
C 	C 	0.89390 0.40240 0.12660 -0.10400
C 	C 	0.17720 0.58890 0.07860 0.08800
C 	C 	0.16600 0.62950 0.07290 -0.08900
C 	C 	0.19200 0.66090 0.08860 0.01200
C 	C 	0.22000 0.64820 0.10470 -0.02300
C 	C 	0.22610 0.59870 0.10130 0.02400
C 	C 	0.20460 0.57580 0.09310 -0.09200
C 	C 	0.02690 0.38720 0.12950 0.10300
C 	C 	0.99020 0.37490 0.13320 -0.11900
C 	C 	0.98180 0.35100 0.15310 0.02200
C 	C 	0.01010 0.33940 0.16930 -0.00800
C 	C 	0.04690 0.35170 0.16560 0.02100
C 	C 	0.05520 0.37560 0.14580 -0.07000
C 	C 	0.85190 0.32390 0.01820 0.05600
C 	C 	0.86950 0.30330 0.03440 -0.09100
C 	C 	0.96960 0.27330 0.01730 0.06800
C 	C 	0.95750 0.24460 0.00180 -0.05700
C 	C 	0.94260 0.21080 0.01450 0.01200
C 	C 	0.94810 0.21250 0.04210 -0.01300
C 	C 	0.95680 0.24100 0.05910 0.01200
C 	C 	0.97370 0.27040 0.04460 -0.08100
C 	C 	0.85960 0.28080 0.95120 0.03000
C 	C 	0.83570 0.31310 0.94800 -0.08900
C 	C 	0.79620 0.31030 0.94900 0.01600
C 	C 	0.78470 0.27470 0.95450 -0.02100
C 	C 	0.80830 0.24700 0.96410 0.00200
C 	C 	0.84450 0.24320 0.96030 -0.01700
C 	C 	0.88780 0.47410 0.86910 0.02300
C 	C 	0.85660 0.48510 0.88050 -0.10600
C 	C 	0.90660 0.37120 0.85700 -0.04300
C 	C 	0.06420 0.40220 0.87020 0.01100
C 	C 	0.10150 0.42780 0.86950 -0.07600
C 	C 	0.01850 0.26920 0.91600 0.05600
C 	C 	0.01090 0.26540 0.94140 -0.10600
C 	C 	0.02500 0.23480 0.95470 0.04000
C 	C 	0.04680 0.20800 0.94240 -0.01400
C 	C 	0.05450 0.21180 0.91690 0.01200
C 	C 	0.04030 0.24240 0.90370 -0.03000
Se	Se	0.00000 0.00000 0.81082 -1.12000
Se	Se	0.00000 0.00000 0.69663 -1.13200
Se	Se	0.50000 0.50000 0.31082 -1.14400
Se	Se	0.50000 0.50000 0.19663 -1.15600
Se	Se	0.50000 0.00000 0.56082 -1.13200
Se	Se	0.50000 0.00000 0.44663 -1.14400
Se	Se	-0.00000 0.50000 0.06082 -1.13200
Se	Se	0.00000 0.50000 0.94663 -1.14400
