data_crystal

_cell_length_a 27.70560
_cell_length_b 23.39500
_cell_length_c 21.07090
_cell_angle_alpha 90.00000
_cell_angle_beta  113.91100
_cell_angle_gamma 90.00000

_symmetry_space_group_name_	'P 1'
_symmetry_space_group_name_H-M	'P 1'

loop_
_symmetry_equiv_pos_as_xyz
  x,y,z

loop_
_atom_site_label
_atom_site_type_symbol
_atom_site_fract_x
_atom_site_fract_y
_atom_site_fract_z
_atom_site_charge
C 	C 	0.58963 0.27310 0.09724 0.29900
C 	C 	0.54830 0.31047 0.84637 0.40300
C 	C 	0.36007 0.28862 0.67741 0.29600
C 	C 	0.26918 0.30038 0.58906 -0.01700
H 	H 	0.25340 0.27480 0.61600 0.05800
C 	C 	0.82786 0.41941 0.97700 0.32100
C 	C 	0.86200 0.28282 0.17485 0.29300
C 	C 	0.75416 0.36707 0.99251 -0.02200
H 	H 	0.73080 0.38470 0.95220 0.06800
C 	C 	0.64012 0.32227 0.93855 0.00100
H 	H 	0.65110 0.33210 0.90370 0.05500
C 	C 	0.58713 0.31003 0.92108 -0.11000
C 	C 	0.32181 0.31487 0.61151 -0.06000
C 	C 	0.31557 0.41708 0.47000 0.31000
C 	C 	0.84313 0.35143 0.07556 0.00400
H 	H 	0.87910 0.35920 0.09210 0.05900
C 	C 	0.73443 0.33033 0.02821 0.01600
C 	C 	0.65900 0.30682 0.05859 -0.02300
H 	H 	0.68230 0.30800 0.10510 0.06500
C 	C 	0.60654 0.29188 0.04153 -0.07000
C 	C 	0.23051 0.32442 0.52878 0.01200
C 	C 	0.17405 0.31036 0.50810 0.01100
C 	C 	0.08877 0.25890 0.59750 0.30300
C 	C 	0.06870 0.27804 0.47255 0.01900
H 	H 	0.03410 0.26600 0.46060 0.04700
C 	C 	0.13741 0.31108 0.43860 -0.01600
H 	H 	0.14830 0.32200 0.40400 0.06200
C 	C 	0.67749 0.32009 0.00766 -0.00400
C 	C 	0.80842 0.37813 0.01581 -0.06800
C 	C 	0.10444 0.27863 0.54176 -0.06200
C 	C 	0.77197 0.30315 0.08717 -0.04300
H 	H 	0.76020 0.27710 0.11100 0.07200
C 	C 	0.57068 0.29294 0.97266 0.03400
H 	H 	0.53580 0.28230 0.96090 0.04600
C 	C 	0.08537 0.29585 0.42081 -0.09900
C 	C 	0.15602 0.29570 0.55843 -0.03100
H 	H 	0.17930 0.29750 0.60490 0.06600
C 	C 	0.33807 0.35304 0.57300 0.00700
H 	H 	0.37350 0.36300 0.58800 0.05400
C 	C 	0.30094 0.37583 0.51235 -0.06100
C 	C 	0.24755 0.36148 0.49027 -0.03500
H 	H 	0.22300 0.37690 0.44920 0.07300
C 	C 	0.04661 0.29517 0.34540 0.40700
C 	C 	0.90670 0.61350 0.84980 0.65800
H 	H 	0.94310 0.61050 0.87470 -0.18200
C 	C 	0.88380 0.10690 0.33090 0.60400
H 	H 	0.91800 0.10110 0.36380 -0.20300
O 	O 	0.50101 0.29831 0.83191 -0.45500
O 	O 	0.55112 0.23942 0.08306 -0.35700
O 	O 	0.84466 0.24418 0.20041 -0.33600
O 	O 	0.05404 0.22150 0.58593 -0.36500
O 	O 	0.34667 0.24696 0.70362 -0.33400
O 	O 	0.89412 0.65567 0.81052 -0.48300
O 	O 	0.91048 0.29750 0.20226 -0.35600
O 	O 	0.06272 0.30956 0.30015 -0.43400
O 	O 	0.56537 0.32327 0.80164 -0.44000
O 	O 	0.11211 0.28055 0.65775 -0.35600
O 	O 	0.61503 0.29024 0.15925 -0.34900
O 	O 	0.87597 0.43361 0.00276 -0.36400
O 	O 	0.79734 0.43941 0.92086 -0.34100
O 	O 	0.40709 0.30838 0.70617 -0.35900
O 	O 	0.00061 0.27966 0.33227 -0.47000
O 	O 	0.87769 0.14970 0.29465 -0.47500
O 	O 	0.36311 0.43222 0.48725 -0.37600
O 	O 	0.85210 0.07125 0.33014 -0.50300
O 	O 	0.88387 0.57701 0.86259 -0.50300
C 	C 	0.82474 0.31332 0.11081 -0.04900
O 	O 	0.28115 0.43805 0.41688 -0.34400
Tm	Tm	0.43408 0.23553 0.79378 1.55700
Tm	Tm	0.93025 0.22295 0.28999 1.55800
C 	C 	0.08963 0.77310 0.09724 0.30000
C 	C 	0.04830 0.81047 0.84637 0.40600
C 	C 	0.86007 0.78862 0.67741 0.29500
C 	C 	0.76918 0.80038 0.58906 -0.01900
H 	H 	0.75340 0.77480 0.61600 0.06000
C 	C 	0.32786 0.91941 0.97700 0.31500
C 	C 	0.36200 0.78282 0.17485 0.29200
C 	C 	0.25416 0.86707 0.99251 -0.02400
H 	H 	0.23080 0.88470 0.95220 0.07700
C 	C 	0.14012 0.82227 0.93855 0.00400
H 	H 	0.15110 0.83210 0.90370 0.05800
C 	C 	0.08713 0.81003 0.92108 -0.10800
C 	C 	0.82181 0.81487 0.61151 -0.05200
C 	C 	0.81557 0.91708 0.47000 0.30200
C 	C 	0.34313 0.85143 0.07556 0.00000
H 	H 	0.37910 0.85920 0.09210 0.06600
C 	C 	0.23443 0.83033 0.02821 0.02100
C 	C 	0.15900 0.80682 0.05859 -0.02100
H 	H 	0.18230 0.80800 0.10510 0.06800
C 	C 	0.10654 0.79188 0.04153 -0.06900
C 	C 	0.73051 0.82442 0.52878 0.01800
C 	C 	0.67405 0.81036 0.50810 0.01500
C 	C 	0.58877 0.75890 0.59750 0.30200
C 	C 	0.56870 0.77804 0.47255 0.01800
H 	H 	0.53410 0.76600 0.46060 0.05100
C 	C 	0.63741 0.81108 0.43860 -0.01600
H 	H 	0.64830 0.82200 0.40400 0.06600
C 	C 	0.17749 0.82009 0.00766 -0.00300
C 	C 	0.30842 0.87813 0.01581 -0.05500
C 	C 	0.60444 0.77863 0.54176 -0.05600
C 	C 	0.27197 0.80315 0.08717 -0.04500
H 	H 	0.26020 0.77710 0.11100 0.07400
C 	C 	0.07068 0.79294 0.97266 0.03700
H 	H 	0.03580 0.78230 0.96090 0.04500
C 	C 	0.58537 0.79585 0.42081 -0.09300
C 	C 	0.65602 0.79570 0.55843 -0.03100
H 	H 	0.67930 0.79750 0.60490 0.07000
C 	C 	0.83807 0.85304 0.57300 0.00100
H 	H 	0.87350 0.86300 0.58800 0.06300
C 	C 	0.80094 0.87583 0.51235 -0.04500
C 	C 	0.74755 0.86148 0.49027 -0.03900
H 	H 	0.72300 0.87690 0.44920 0.08300
C 	C 	0.54661 0.79517 0.34540 0.40800
C 	C 	0.40670 0.11350 0.84980 0.65900
H 	H 	0.44310 0.11050 0.87470 -0.18800
C 	C 	0.38380 0.60690 0.33090 0.60300
H 	H 	0.41800 0.60110 0.36380 -0.19600
O 	O 	0.00101 0.79831 0.83191 -0.45500
O 	O 	0.05112 0.73942 0.08306 -0.35900
O 	O 	0.34466 0.74418 0.20041 -0.33500
O 	O 	0.55404 0.72150 0.58593 -0.36000
O 	O 	0.84667 0.74696 0.70362 -0.33200
O 	O 	0.39412 0.15567 0.81052 -0.48600
O 	O 	0.41048 0.79750 0.20226 -0.35300
O 	O 	0.56272 0.80956 0.30015 -0.42700
O 	O 	0.06537 0.82327 0.80164 -0.43500
O 	O 	0.61211 0.78055 0.65775 -0.35000
O 	O 	0.11503 0.79024 0.15925 -0.34500
O 	O 	0.37597 0.93361 0.00276 -0.33200
O 	O 	0.29734 0.93941 0.92086 -0.30400
O 	O 	0.90709 0.80838 0.70617 -0.35100
O 	O 	0.50061 0.77966 0.33227 -0.46100
O 	O 	0.37769 0.64970 0.29465 -0.47200
O 	O 	0.86311 0.93222 0.48725 -0.34500
O 	O 	0.35210 0.57125 0.33014 -0.49400
O 	O 	0.38387 0.07701 0.86259 -0.50900
C 	C 	0.32474 0.81332 0.11081 -0.04300
O 	O 	0.78115 0.93805 0.41688 -0.30700
Tm	Tm	0.93408 0.73553 0.79378 1.56000
Tm	Tm	0.43025 0.72295 0.28999 1.55700
C 	C 	0.41037 0.27310 0.90276 0.29100
C 	C 	0.45170 0.31047 0.15363 0.39600
C 	C 	0.63993 0.28862 0.32259 0.29700
C 	C 	0.73082 0.30038 0.41094 -0.01600
H 	H 	0.74660 0.27480 0.38400 0.05800
C 	C 	0.17214 0.41941 0.02300 0.27600
C 	C 	0.13800 0.28282 0.82515 0.28600
C 	C 	0.24584 0.36707 0.00749 -0.08500
H 	H 	0.26920 0.38470 0.04780 0.08600
C 	C 	0.35988 0.32227 0.06145 -0.02600
H 	H 	0.34890 0.33210 0.09630 0.06200
C 	C 	0.41287 0.31003 0.07892 -0.09300
C 	C 	0.67819 0.31487 0.38849 -0.06000
C 	C 	0.68443 0.41708 0.53000 0.31000
C 	C 	0.15687 0.35143 0.92444 -0.03000
H 	H 	0.12090 0.35920 0.90790 0.07000
C 	C 	0.26557 0.33033 0.97179 0.04900
C 	C 	0.34100 0.30682 0.94141 -0.03700
H 	H 	0.31770 0.30800 0.89490 0.06900
C 	C 	0.39346 0.29188 0.95847 -0.04100
C 	C 	0.76949 0.32442 0.47122 0.01100
C 	C 	0.82595 0.31036 0.49190 0.01300
C 	C 	0.91123 0.25890 0.40250 0.30200
C 	C 	0.93130 0.27804 0.52745 0.01600
H 	H 	0.96590 0.26600 0.53940 0.05200
C 	C 	0.86259 0.31108 0.56140 -0.01800
H 	H 	0.85170 0.32200 0.59600 0.06300
C 	C 	0.32251 0.32009 0.99234 0.01200
C 	C 	0.19158 0.37813 0.98419 -0.01000
C 	C 	0.89556 0.27863 0.45824 -0.05900
C 	C 	0.22803 0.30315 0.91283 -0.06500
H 	H 	0.23980 0.27710 0.88900 0.08000
C 	C 	0.42932 0.29294 0.02734 -0.00100
H 	H 	0.46420 0.28230 0.03910 0.05400
C 	C 	0.91463 0.29585 0.57919 -0.09600
C 	C 	0.84398 0.29570 0.44157 -0.03300
H 	H 	0.82070 0.29750 0.39510 0.06700
C 	C 	0.66193 0.35304 0.42700 0.00700
H 	H 	0.62650 0.36300 0.41200 0.05400
C 	C 	0.69906 0.37583 0.48765 -0.06100
C 	C 	0.75245 0.36148 0.50973 -0.03400
H 	H 	0.77700 0.37690 0.55080 0.07300
C 	C 	0.95339 0.29517 0.65460 0.40600
C 	C 	0.09330 0.61350 0.15020 0.66000
H 	H 	0.05690 0.61050 0.12530 -0.18700
C 	C 	0.11620 0.10690 0.66910 0.60500
H 	H 	0.08200 0.10110 0.63620 -0.20500
O 	O 	0.49899 0.29831 0.16809 -0.45400
O 	O 	0.44888 0.23942 0.91694 -0.35000
O 	O 	0.15534 0.24418 0.79959 -0.33400
O 	O 	0.94596 0.22150 0.41407 -0.35900
O 	O 	0.65333 0.24696 0.29638 -0.33400
O 	O 	0.10588 0.65567 0.18948 -0.48500
O 	O 	0.08952 0.29750 0.79774 -0.35800
O 	O 	0.93728 0.30956 0.69985 -0.43100
O 	O 	0.43463 0.32327 0.19836 -0.43900
O 	O 	0.88789 0.28055 0.34225 -0.35400
O 	O 	0.38497 0.29024 0.84075 -0.34700
O 	O 	0.12403 0.43361 0.99724 -0.34400
O 	O 	0.20266 0.43941 0.07914 -0.33200
O 	O 	0.59291 0.30838 0.29383 -0.35900
O 	O 	0.99939 0.27966 0.66773 -0.46000
O 	O 	0.12231 0.14970 0.70535 -0.47600
O 	O 	0.63689 0.43222 0.51275 -0.37600
O 	O 	0.14790 0.07125 0.66986 -0.50400
O 	O 	0.11613 0.57701 0.13741 -0.50600
C 	C 	0.17526 0.31332 0.88919 -0.02600
O 	O 	0.71885 0.43805 0.58312 -0.34400
Tm	Tm	0.56592 0.23553 0.20622 1.55700
Tm	Tm	0.06975 0.22295 0.71001 1.55400
C 	C 	0.91037 0.77310 0.90276 0.29200
C 	C 	0.95170 0.81047 0.15363 0.39700
C 	C 	0.13993 0.78862 0.32259 0.29600
C 	C 	0.23082 0.80038 0.41094 -0.01800
H 	H 	0.24660 0.77480 0.38400 0.06000
C 	C 	0.67214 0.91941 0.02300 0.27200
C 	C 	0.63800 0.78282 0.82515 0.28500
C 	C 	0.74584 0.86707 0.00749 -0.08300
H 	H 	0.76920 0.88470 0.04780 0.09500
C 	C 	0.85988 0.82227 0.06145 -0.02200
H 	H 	0.84890 0.83210 0.09630 0.06500
C 	C 	0.91287 0.81003 0.07892 -0.08800
C 	C 	0.17819 0.81487 0.38849 -0.05300
C 	C 	0.18443 0.91708 0.53000 0.30300
C 	C 	0.65687 0.85143 0.92444 -0.03200
H 	H 	0.62090 0.85920 0.90790 0.07800
C 	C 	0.76557 0.83033 0.97179 0.05300
C 	C 	0.84100 0.80682 0.94141 -0.03500
H 	H 	0.81770 0.80800 0.89490 0.07300
C 	C 	0.89346 0.79188 0.95847 -0.03900
C 	C 	0.26949 0.82442 0.47122 0.01800
C 	C 	0.32595 0.81036 0.49190 0.01500
C 	C 	0.41123 0.75890 0.40250 0.30200
C 	C 	0.43130 0.77804 0.52745 0.01800
H 	H 	0.46590 0.76600 0.53940 0.05100
C 	C 	0.36259 0.81108 0.56140 -0.01600
H 	H 	0.35170 0.82200 0.59600 0.06600
C 	C 	0.82251 0.82009 0.99234 0.01200
C 	C 	0.69158 0.87813 0.98419 0.00000
C 	C 	0.39556 0.77863 0.45824 -0.05600
C 	C 	0.72803 0.80315 0.91283 -0.06600
H 	H 	0.73980 0.77710 0.88900 0.08200
C 	C 	0.92932 0.79294 0.02734 0.00300
H 	H 	0.96420 0.78230 0.03910 0.05800
C 	C 	0.41463 0.79585 0.57919 -0.09200
C 	C 	0.34398 0.79570 0.44157 -0.03100
H 	H 	0.32070 0.79750 0.39510 0.07000
C 	C 	0.16193 0.85304 0.42700 0.00300
H 	H 	0.12650 0.86300 0.41200 0.06100
C 	C 	0.19906 0.87583 0.48765 -0.04700
C 	C 	0.25245 0.86148 0.50973 -0.03900
H 	H 	0.27700 0.87690 0.55080 0.08300
C 	C 	0.45339 0.79517 0.65460 0.40800
C 	C 	0.59330 0.11350 0.15020 0.65900
H 	H 	0.55690 0.11050 0.12530 -0.18900
C 	C 	0.61620 0.60690 0.66910 0.60300
H 	H 	0.58200 0.60110 0.63620 -0.19500
O 	O 	0.99899 0.79831 0.16809 -0.44500
O 	O 	0.94888 0.73942 0.91694 -0.34800
O 	O 	0.65534 0.74418 0.79959 -0.33200
O 	O 	0.44596 0.72150 0.41407 -0.36000
O 	O 	0.15333 0.74696 0.29638 -0.33300
O 	O 	0.60588 0.15567 0.18948 -0.48700
O 	O 	0.58952 0.79750 0.79774 -0.35100
O 	O 	0.43728 0.80956 0.69985 -0.42700
O 	O 	0.93463 0.82327 0.19836 -0.43100
O 	O 	0.38789 0.78055 0.34225 -0.35000
O 	O 	0.88497 0.79024 0.84075 -0.34100
O 	O 	0.62403 0.93361 0.99724 -0.31100
O 	O 	0.70266 0.93941 0.07914 -0.29500
O 	O 	0.09291 0.80838 0.29383 -0.35500
O 	O 	0.49939 0.77966 0.66773 -0.46100
O 	O 	0.62231 0.64970 0.70535 -0.47100
O 	O 	0.13689 0.93222 0.51275 -0.34700
O 	O 	0.64790 0.57125 0.66986 -0.49400
O 	O 	0.61613 0.07701 0.13741 -0.51000
C 	C 	0.67526 0.81332 0.88919 -0.02000
O 	O 	0.21885 0.93805 0.58312 -0.30700
Tm	Tm	0.06592 0.73553 0.20622 1.55500
Tm	Tm	0.56975 0.72295 0.71001 1.55700
C 	C 	0.41037 0.72690 0.90276 0.29100
C 	C 	0.45170 0.68953 0.15363 0.39700
C 	C 	0.63993 0.71138 0.32259 0.29500
C 	C 	0.73082 0.69962 0.41094 -0.01700
H 	H 	0.74660 0.72520 0.38400 0.05900
C 	C 	0.17214 0.58059 0.02300 0.27700
C 	C 	0.13800 0.71718 0.82515 0.28500
C 	C 	0.24584 0.63293 0.00749 -0.08400
H 	H 	0.26920 0.61530 0.04780 0.08600
C 	C 	0.35988 0.67773 0.06145 -0.02600
H 	H 	0.34890 0.66790 0.09630 0.06200
C 	C 	0.41287 0.68997 0.07892 -0.09300
C 	C 	0.67819 0.68513 0.38849 -0.06000
C 	C 	0.68443 0.58292 0.53000 0.31000
C 	C 	0.15687 0.64857 0.92444 -0.03000
H 	H 	0.12090 0.64080 0.90790 0.07000
C 	C 	0.26557 0.66967 0.97179 0.04800
C 	C 	0.34100 0.69318 0.94141 -0.03700
H 	H 	0.31770 0.69200 0.89490 0.07000
C 	C 	0.39346 0.70812 0.95847 -0.04100
C 	C 	0.76949 0.67558 0.47122 0.01100
C 	C 	0.82595 0.68964 0.49190 0.01300
C 	C 	0.91123 0.74110 0.40250 0.30100
C 	C 	0.93130 0.72196 0.52745 0.01600
H 	H 	0.96590 0.73400 0.53940 0.05300
C 	C 	0.86259 0.68892 0.56140 -0.01900
H 	H 	0.85170 0.67800 0.59600 0.06300
C 	C 	0.32251 0.67991 0.99234 0.01100
C 	C 	0.19158 0.62187 0.98419 -0.01100
C 	C 	0.89556 0.72137 0.45824 -0.05700
C 	C 	0.22803 0.69685 0.91283 -0.06500
H 	H 	0.23980 0.72290 0.88900 0.08100
C 	C 	0.42932 0.70706 0.02734 0.00000
H 	H 	0.46420 0.71770 0.03910 0.05500
C 	C 	0.91463 0.70415 0.57919 -0.09500
C 	C 	0.84398 0.70430 0.44157 -0.03400
H 	H 	0.82070 0.70250 0.39510 0.06800
C 	C 	0.66193 0.64696 0.42700 0.00700
H 	H 	0.62650 0.63700 0.41200 0.05400
C 	C 	0.69906 0.62417 0.48765 -0.06100
C 	C 	0.75245 0.63852 0.50973 -0.03500
H 	H 	0.77700 0.62310 0.55080 0.07300
C 	C 	0.95339 0.70483 0.65460 0.40600
C 	C 	0.09330 0.38650 0.15020 0.66000
H 	H 	0.05690 0.38950 0.12530 -0.18700
C 	C 	0.11620 0.89310 0.66910 0.58700
H 	H 	0.08200 0.89890 0.63620 -0.18000
O 	O 	0.49899 0.70169 0.16809 -0.45400
O 	O 	0.44888 0.76058 0.91694 -0.34800
O 	O 	0.15534 0.75582 0.79959 -0.33200
O 	O 	0.94596 0.77850 0.41407 -0.35500
O 	O 	0.65333 0.75304 0.29638 -0.33200
O 	O 	0.10588 0.34433 0.18948 -0.48400
O 	O 	0.08952 0.70250 0.79774 -0.35800
O 	O 	0.93728 0.69044 0.69985 -0.43100
O 	O 	0.43463 0.67673 0.19836 -0.43900
O 	O 	0.88789 0.71945 0.34225 -0.35400
O 	O 	0.38497 0.70976 0.84075 -0.34600
O 	O 	0.12403 0.56639 0.99724 -0.34400
O 	O 	0.20266 0.56059 0.07914 -0.33200
O 	O 	0.59291 0.69162 0.29383 -0.35900
O 	O 	0.99939 0.72034 0.66773 -0.46000
O 	O 	0.12231 0.85030 0.70535 -0.46000
O 	O 	0.63689 0.56778 0.51275 -0.37600
O 	O 	0.14790 0.92875 0.66986 -0.45400
O 	O 	0.11613 0.42299 0.13741 -0.50600
C 	C 	0.17526 0.68668 0.88919 -0.02700
O 	O 	0.71885 0.56195 0.58312 -0.34400
Tm	Tm	0.56592 0.76447 0.20622 1.55900
Tm	Tm	0.06975 0.77705 0.71001 1.55600
C 	C 	0.91037 0.22690 0.90276 0.29100
C 	C 	0.95170 0.18953 0.15363 0.39500
C 	C 	0.13993 0.21138 0.32259 0.29700
C 	C 	0.23082 0.19962 0.41094 -0.01500
H 	H 	0.24660 0.22520 0.38400 0.05700
C 	C 	0.67214 0.08059 0.02300 0.27900
C 	C 	0.63800 0.21718 0.82515 0.28500
C 	C 	0.74584 0.13293 0.00749 -0.08000
H 	H 	0.76920 0.11530 0.04780 0.07800
C 	C 	0.85988 0.17773 0.06145 -0.02600
H 	H 	0.84890 0.16790 0.09630 0.05900
C 	C 	0.91287 0.18997 0.07892 -0.09700
C 	C 	0.17819 0.18513 0.38849 -0.06700
C 	C 	0.18443 0.08292 0.53000 0.31200
C 	C 	0.65687 0.14857 0.92444 -0.02600
H 	H 	0.62090 0.14080 0.90790 0.06500
C 	C 	0.76557 0.16967 0.97179 0.04200
C 	C 	0.84100 0.19318 0.94141 -0.03800
H 	H 	0.81770 0.19200 0.89490 0.06600
C 	C 	0.89346 0.20812 0.95847 -0.04600
C 	C 	0.26949 0.17558 0.47122 0.00600
C 	C 	0.32595 0.18964 0.49190 0.01000
C 	C 	0.41123 0.24110 0.40250 0.30200
C 	C 	0.43130 0.22196 0.52745 0.01700
H 	H 	0.46590 0.23400 0.53940 0.04800
C 	C 	0.36259 0.18892 0.56140 -0.01900
H 	H 	0.35170 0.17800 0.59600 0.06000
C 	C 	0.82251 0.17991 0.99234 0.00700
C 	C 	0.69158 0.12187 0.98419 -0.02200
C 	C 	0.39556 0.22137 0.45824 -0.06300
C 	C 	0.72803 0.19685 0.91283 -0.06300
H 	H 	0.73980 0.22290 0.88900 0.07800
C 	C 	0.92932 0.20706 0.02734 0.00100
H 	H 	0.96420 0.21770 0.03910 0.05400
C 	C 	0.41463 0.20415 0.57919 -0.10100
C 	C 	0.34398 0.20430 0.44157 -0.03300
H 	H 	0.32070 0.20250 0.39510 0.06400
C 	C 	0.16193 0.14696 0.42700 0.01000
H 	H 	0.12650 0.13700 0.41200 0.04700
C 	C 	0.19906 0.12417 0.48765 -0.07200
C 	C 	0.25245 0.13852 0.50973 -0.03300
H 	H 	0.27700 0.12310 0.55080 0.06700
C 	C 	0.45339 0.20483 0.65460 0.40500
C 	C 	0.59330 0.88650 0.15020 0.63900
H 	H 	0.55690 0.88950 0.12530 -0.16600
C 	C 	0.61620 0.39310 0.66910 0.60300
H 	H 	0.58200 0.39890 0.63620 -0.19500
O 	O 	0.99899 0.20169 0.16809 -0.45300
O 	O 	0.94888 0.26058 0.91694 -0.34800
O 	O 	0.65534 0.25582 0.79959 -0.33500
O 	O 	0.44596 0.27850 0.41407 -0.36100
O 	O 	0.15333 0.25304 0.29638 -0.33500
O 	O 	0.60588 0.84433 0.18948 -0.47000
O 	O 	0.58952 0.20250 0.79774 -0.36100
O 	O 	0.43728 0.19044 0.69985 -0.43700
O 	O 	0.93463 0.17673 0.19836 -0.44300
O 	O 	0.38789 0.21945 0.34225 -0.36000
O 	O 	0.88497 0.20976 0.84075 -0.35100
O 	O 	0.62403 0.06639 0.99724 -0.35600
O 	O 	0.70266 0.06059 0.07914 -0.34600
O 	O 	0.09291 0.19162 0.29383 -0.36700
O 	O 	0.49939 0.22034 0.66773 -0.46700
O 	O 	0.62231 0.35030 0.70535 -0.47100
O 	O 	0.13689 0.06778 0.51275 -0.39300
O 	O 	0.64790 0.42875 0.66986 -0.49400
O 	O 	0.61613 0.92299 0.13741 -0.46300
C 	C 	0.67526 0.18668 0.88919 -0.03300
O 	O 	0.21885 0.06195 0.58312 -0.35800
Tm	Tm	0.06592 0.26447 0.20622 1.55500
Tm	Tm	0.56975 0.27705 0.71001 1.55700
C 	C 	0.58963 0.72690 0.09724 0.29900
C 	C 	0.54830 0.68953 0.84637 0.40300
C 	C 	0.36007 0.71138 0.67741 0.29500
C 	C 	0.26918 0.69962 0.58906 -0.01700
H 	H 	0.25340 0.72520 0.61600 0.05900
C 	C 	0.82786 0.58059 0.97700 0.32100
C 	C 	0.86200 0.71718 0.17485 0.29100
C 	C 	0.75416 0.63293 0.99251 -0.02300
H 	H 	0.73080 0.61530 0.95220 0.06800
C 	C 	0.64012 0.67773 0.93855 -0.00000
H 	H 	0.65110 0.66790 0.90370 0.05500
C 	C 	0.58713 0.68997 0.92108 -0.11000
C 	C 	0.32181 0.68513 0.61151 -0.06000
C 	C 	0.31557 0.58292 0.47000 0.31000
C 	C 	0.84313 0.64857 0.07556 0.00300
H 	H 	0.87910 0.64080 0.09210 0.05900
C 	C 	0.73443 0.66967 0.02821 0.01600
C 	C 	0.65900 0.69318 0.05859 -0.02400
H 	H 	0.68230 0.69200 0.10510 0.06500
C 	C 	0.60654 0.70812 0.04153 -0.06900
C 	C 	0.23051 0.67558 0.52878 0.01100
C 	C 	0.17405 0.68964 0.50810 0.01100
C 	C 	0.08877 0.74110 0.59750 0.30200
C 	C 	0.06870 0.72196 0.47255 0.01900
H 	H 	0.03410 0.73400 0.46060 0.04800
C 	C 	0.13741 0.68892 0.43860 -0.01700
H 	H 	0.14830 0.67800 0.40400 0.06200
C 	C 	0.67749 0.67991 0.00766 -0.00400
C 	C 	0.80842 0.62187 0.01581 -0.06700
C 	C 	0.10444 0.72137 0.54176 -0.06100
C 	C 	0.77197 0.69685 0.08717 -0.04400
H 	H 	0.76020 0.72290 0.11100 0.07300
C 	C 	0.57068 0.70706 0.97266 0.03300
H 	H 	0.53580 0.71770 0.96090 0.04700
C 	C 	0.08537 0.70415 0.42081 -0.09900
C 	C 	0.15602 0.70430 0.55843 -0.03200
H 	H 	0.17930 0.70250 0.60490 0.06700
C 	C 	0.33807 0.64696 0.57300 0.00700
H 	H 	0.37350 0.63700 0.58800 0.05400
C 	C 	0.30094 0.62417 0.51235 -0.06100
C 	C 	0.24755 0.63852 0.49027 -0.03500
H 	H 	0.22300 0.62310 0.44920 0.07300
C 	C 	0.04661 0.70483 0.34540 0.40800
C 	C 	0.90670 0.38650 0.84980 0.65800
H 	H 	0.94310 0.38950 0.87470 -0.18200
C 	C 	0.88380 0.89310 0.33090 0.58600
H 	H 	0.91800 0.89890 0.36380 -0.17700
O 	O 	0.50101 0.70169 0.83191 -0.45500
O 	O 	0.55112 0.76058 0.08306 -0.35400
O 	O 	0.84466 0.75582 0.20041 -0.33400
O 	O 	0.05404 0.77850 0.58593 -0.36100
O 	O 	0.34667 0.75304 0.70362 -0.33200
O 	O 	0.89412 0.34433 0.81052 -0.48300
O 	O 	0.91048 0.70250 0.20226 -0.35600
O 	O 	0.06272 0.69044 0.30015 -0.43500
O 	O 	0.56537 0.67673 0.80164 -0.44000
O 	O 	0.11211 0.71945 0.65775 -0.35600
O 	O 	0.61503 0.70976 0.15925 -0.34900
O 	O 	0.87597 0.56639 0.00276 -0.36400
O 	O 	0.79734 0.56059 0.92086 -0.34100
O 	O 	0.40709 0.69162 0.70617 -0.35900
O 	O 	0.00061 0.72034 0.33227 -0.46900
O 	O 	0.87769 0.85030 0.29465 -0.45900
O 	O 	0.36311 0.56778 0.48725 -0.37600
O 	O 	0.85210 0.92875 0.33014 -0.45300
O 	O 	0.88387 0.42299 0.86259 -0.50300
C 	C 	0.82474 0.68668 0.11081 -0.04800
O 	O 	0.28115 0.56195 0.41688 -0.34400
Tm	Tm	0.43408 0.76447 0.79378 1.55900
Tm	Tm	0.93025 0.77705 0.28999 1.56100
C 	C 	0.08963 0.22690 0.09724 0.30000
C 	C 	0.04830 0.18953 0.84637 0.40400
C 	C 	0.86007 0.21138 0.67741 0.29600
C 	C 	0.76918 0.19962 0.58906 -0.01600
H 	H 	0.75340 0.22520 0.61600 0.05700
C 	C 	0.32786 0.08059 0.97700 0.32700
C 	C 	0.36200 0.21718 0.17485 0.29400
C 	C 	0.25416 0.13293 0.99251 -0.01400
H 	H 	0.23080 0.11530 0.95220 0.05900
C 	C 	0.14012 0.17773 0.93855 0.00200
H 	H 	0.15110 0.16790 0.90370 0.05200
C 	C 	0.08713 0.18997 0.92108 -0.11800
C 	C 	0.82181 0.18513 0.61151 -0.06500
C 	C 	0.81557 0.08292 0.47000 0.31200
C 	C 	0.34313 0.14857 0.07556 0.01000
H 	H 	0.37910 0.14080 0.09210 0.05200
C 	C 	0.23443 0.16967 0.02821 0.00600
C 	C 	0.15900 0.19318 0.05859 -0.02300
H 	H 	0.18230 0.19200 0.10510 0.06100
C 	C 	0.10654 0.20812 0.04153 -0.07800
C 	C 	0.73051 0.17558 0.52878 0.00600
C 	C 	0.67405 0.18964 0.50810 0.00900
C 	C 	0.58877 0.24110 0.59750 0.30200
C 	C 	0.56870 0.22196 0.47255 0.01700
H 	H 	0.53410 0.23400 0.46060 0.04800
C 	C 	0.63741 0.18892 0.43860 -0.01900
H 	H 	0.64830 0.17800 0.40400 0.06000
C 	C 	0.17749 0.17991 0.00766 -0.00900
C 	C 	0.30842 0.12187 0.01581 -0.08400
C 	C 	0.60444 0.22137 0.54176 -0.06300
C 	C 	0.27197 0.19685 0.08717 -0.03900
H 	H 	0.26020 0.22290 0.11100 0.07000
C 	C 	0.07068 0.20706 0.97266 0.03800
H 	H 	0.03580 0.21770 0.96090 0.04100
C 	C 	0.58537 0.20415 0.42081 -0.10100
C 	C 	0.65602 0.20430 0.55843 -0.03300
H 	H 	0.67930 0.20250 0.60490 0.06400
C 	C 	0.83807 0.14696 0.57300 0.00900
H 	H 	0.87350 0.13700 0.58800 0.04900
C 	C 	0.80094 0.12417 0.51235 -0.07000
C 	C 	0.74755 0.13852 0.49027 -0.03300
H 	H 	0.72300 0.12310 0.44920 0.06700
C 	C 	0.54661 0.20483 0.34540 0.40500
C 	C 	0.40670 0.88650 0.84980 0.63900
H 	H 	0.44310 0.88950 0.87470 -0.16400
C 	C 	0.38380 0.39310 0.33090 0.60300
H 	H 	0.41800 0.39890 0.36380 -0.19500
O 	O 	0.00101 0.20169 0.83191 -0.46300
O 	O 	0.05112 0.26058 0.08306 -0.36000
O 	O 	0.34466 0.25582 0.20041 -0.33800
O 	O 	0.55404 0.27850 0.58593 -0.36100
O 	O 	0.84667 0.25304 0.70362 -0.33500
O 	O 	0.39412 0.84433 0.81052 -0.47000
O 	O 	0.41048 0.20250 0.20226 -0.36300
O 	O 	0.56272 0.19044 0.30015 -0.43700
O 	O 	0.06537 0.17673 0.80164 -0.44700
O 	O 	0.61211 0.21945 0.65775 -0.36000
O 	O 	0.11503 0.20976 0.15925 -0.35600
O 	O 	0.37597 0.06639 0.00276 -0.38000
O 	O 	0.29734 0.06059 0.92086 -0.35500
O 	O 	0.90709 0.19162 0.70617 -0.36300
O 	O 	0.50061 0.22034 0.33227 -0.46700
O 	O 	0.37769 0.35030 0.29465 -0.47200
O 	O 	0.86311 0.06778 0.48725 -0.39100
O 	O 	0.35210 0.42875 0.33014 -0.49400
O 	O 	0.38387 0.92299 0.86259 -0.46100
C 	C 	0.32474 0.18668 0.11081 -0.05800
O 	O 	0.78115 0.06195 0.41688 -0.35800
Tm	Tm	0.93408 0.26447 0.79378 1.55900
Tm	Tm	0.43025 0.27705 0.28999 1.55600
C 	C 	-0.00000 0.50000 -0.00000 0.66200
C 	C 	0.50000 0.00000 -0.00000 0.66600
C 	C 	0.76060 0.50000 0.76460 0.67000
H 	H 	0.73800 0.50000 0.78750 -0.15500
O 	O 	0.95677 0.50000 0.97090 -0.55000
O 	O 	0.80591 0.50000 0.80220 -0.47000
O 	O 	0.73833 0.50000 0.70280 -0.46300
Tm	Tm	0.86618 0.50000 0.91385 1.63600
Tm	Tm	0.66118 0.50000 0.60708 1.57500
C 	C 	0.26060 0.00000 0.76460 0.68400
H 	H 	0.23800 0.00000 0.78750 -0.17800
O 	O 	0.45677 0.00000 0.97090 -0.58300
O 	O 	0.30591 0.00000 0.80220 -0.50000
O 	O 	0.23833 0.00000 0.70280 -0.49300
Tm	Tm	0.36618 0.00000 0.91385 1.59900
Tm	Tm	0.16118 0.00000 0.60708 1.53100
C 	C 	0.23940 0.50000 0.23540 0.67000
H 	H 	0.26200 0.50000 0.21250 -0.15700
O 	O 	0.04323 0.50000 0.02910 -0.56500
O 	O 	0.19409 0.50000 0.19780 -0.47100
O 	O 	0.26167 0.50000 0.29720 -0.46300
Tm	Tm	0.13382 0.50000 0.08615 1.63000
Tm	Tm	0.33882 0.50000 0.39292 1.57500
C 	C 	0.73940 0.00000 0.23540 0.68400
H 	H 	0.76200 0.00000 0.21250 -0.17900
O 	O 	0.54323 0.00000 0.02910 -0.59200
O 	O 	0.69409 0.00000 0.19780 -0.50100
O 	O 	0.76167 0.00000 0.29720 -0.49300
Tm	Tm	0.63382 0.00000 0.08615 1.59400
Tm	Tm	0.83882 0.00000 0.39292 1.53200
