data_crystal

_cell_length_a 21.85800
_cell_length_b 21.85800
_cell_length_c 25.13100
_cell_angle_alpha 90.00000
_cell_angle_beta  90.00000
_cell_angle_gamma 90.00000

_symmetry_space_group_name_	'P 1'
_symmetry_space_group_name_H-M	'P 1'

loop_
_symmetry_equiv_pos_as_xyz
  x,y,z

loop_
_atom_site_label
_atom_site_type_symbol
_atom_site_fract_x
_atom_site_fract_y
_atom_site_fract_z
_atom_site_charge
Cu	Cu	0.02536 0.94152 0.47572 0.84000
Br	Br	0.91961 0.95232 0.51232 -0.52900
Se	Se	0.99633 0.80312 0.47466 -0.03000
Se	Se	0.13698 0.94871 0.40152 -0.02100
N 	N 	0.06720 0.88560 0.52830 -0.23600
C 	C 	0.05310 0.82600 0.52970 0.06000
C 	C 	0.07680 0.78610 0.56750 -0.12300
H 	H 	0.06610 0.74400 0.56710 0.07400
C 	C 	0.11620 0.80910 0.60570 0.04500
H 	H 	0.13340 0.78290 0.63190 0.02100
C 	C 	0.13010 0.87120 0.60490 -0.12500
H 	H 	0.15700 0.88820 0.63070 0.08900
C 	C 	0.10490 0.90700 0.56710 0.06200
H 	H 	0.11400 0.94950 0.56760 0.00100
N 	N 	0.01170 0.93570 0.39540 -0.23400
C 	C 	0.06110 0.93900 0.36460 0.05900
C 	C 	0.05420 0.93540 0.31070 -0.12900
H 	H 	0.08890 0.93800 0.28810 0.07100
C 	C 	0.99660 0.92810 0.28910 0.05900
H 	H 	0.99190 0.92580 0.25160 0.01600
C 	C 	0.94750 0.92410 0.32030 -0.13600
H 	H 	0.90780 0.91880 0.30570 0.08800
C 	C 	0.95630 0.92820 0.37480 0.06900
H 	H 	0.92190 0.92550 0.39780 0.00200
Cu	Cu	0.52536 0.44152 0.97572 0.84100
Br	Br	0.41961 0.45232 0.01232 -0.52800
Se	Se	0.49633 0.30312 0.97466 -0.02900
Se	Se	0.63698 0.44871 0.90152 -0.02000
N 	N 	0.56720 0.38560 0.02830 -0.23500
C 	C 	0.55310 0.32600 0.02970 0.06100
C 	C 	0.57680 0.28610 0.06750 -0.12200
H 	H 	0.56610 0.24400 0.06710 0.07500
C 	C 	0.61620 0.30910 0.10570 0.04500
H 	H 	0.63340 0.28290 0.13190 0.02100
C 	C 	0.63010 0.37120 0.10490 -0.12500
H 	H 	0.65700 0.38820 0.13070 0.08900
C 	C 	0.60490 0.40700 0.06710 0.06200
H 	H 	0.61400 0.44950 0.06760 0.00100
N 	N 	0.51170 0.43570 0.89540 -0.23400
C 	C 	0.56110 0.43900 0.86460 0.05900
C 	C 	0.55420 0.43540 0.81070 -0.12900
H 	H 	0.58890 0.43800 0.78810 0.07100
C 	C 	0.49660 0.42810 0.78910 0.05800
H 	H 	0.49190 0.42580 0.75160 0.01600
C 	C 	0.44750 0.42410 0.82030 -0.13600
H 	H 	0.40780 0.41880 0.80570 0.08800
C 	C 	0.45630 0.42820 0.87480 0.06900
H 	H 	0.42190 0.42550 0.89780 0.00200
Cu	Cu	0.47464 0.05848 0.97572 0.84100
Br	Br	0.58039 0.04768 0.01232 -0.52800
Se	Se	0.50367 0.19688 0.97466 -0.02900
Se	Se	0.36302 0.05129 0.90152 -0.02000
N 	N 	0.43280 0.11440 0.02830 -0.23500
C 	C 	0.44690 0.17400 0.02970 0.06100
C 	C 	0.42320 0.21390 0.06750 -0.12200
H 	H 	0.43390 0.25600 0.06710 0.07500
C 	C 	0.38380 0.19090 0.10570 0.04500
H 	H 	0.36660 0.21710 0.13190 0.02100
C 	C 	0.36990 0.12880 0.10490 -0.12500
H 	H 	0.34300 0.11180 0.13070 0.08900
C 	C 	0.39510 0.09300 0.06710 0.06200
H 	H 	0.38600 0.05050 0.06760 0.00100
N 	N 	0.48830 0.06430 0.89540 -0.23400
C 	C 	0.43890 0.06100 0.86460 0.05900
C 	C 	0.44580 0.06460 0.81070 -0.12900
H 	H 	0.41110 0.06200 0.78810 0.07100
C 	C 	0.50340 0.07190 0.78910 0.05800
H 	H 	0.50810 0.07420 0.75160 0.01600
C 	C 	0.55250 0.07590 0.82030 -0.13600
H 	H 	0.59220 0.08120 0.80570 0.08800
C 	C 	0.54370 0.07180 0.87480 0.06900
H 	H 	0.57810 0.07450 0.89780 0.00200
Cu	Cu	0.97464 0.55848 0.47572 0.84100
Br	Br	0.08039 0.54768 0.51232 -0.52800
Se	Se	0.00367 0.69688 0.47466 -0.02900
Se	Se	0.86302 0.55129 0.40152 -0.02000
N 	N 	0.93280 0.61440 0.52830 -0.23500
C 	C 	0.94690 0.67400 0.52970 0.06100
C 	C 	0.92320 0.71390 0.56750 -0.12200
H 	H 	0.93390 0.75600 0.56710 0.07500
C 	C 	0.88380 0.69090 0.60570 0.04500
H 	H 	0.86660 0.71710 0.63190 0.02100
C 	C 	0.86990 0.62880 0.60490 -0.12500
H 	H 	0.84300 0.61180 0.63070 0.08900
C 	C 	0.89510 0.59300 0.56710 0.06200
H 	H 	0.88600 0.55050 0.56760 0.00100
N 	N 	0.98830 0.56430 0.39540 -0.23400
C 	C 	0.93890 0.56100 0.36460 0.05900
C 	C 	0.94580 0.56460 0.31070 -0.12900
H 	H 	0.91110 0.56200 0.28810 0.07100
C 	C 	0.00340 0.57190 0.28910 0.05900
H 	H 	0.00810 0.57420 0.25160 0.01600
C 	C 	0.05250 0.57590 0.32030 -0.13600
H 	H 	0.09220 0.58120 0.30570 0.08800
C 	C 	0.04370 0.57180 0.37480 0.06900
H 	H 	0.07810 0.57450 0.39780 0.00200
Cu	Cu	0.19152 0.77536 0.27428 0.84100
Br	Br	0.20232 0.66961 0.23768 -0.52800
Se	Se	0.05312 0.74633 0.27534 -0.02900
Se	Se	0.19871 0.88698 0.34848 -0.02000
N 	N 	0.13560 0.81720 0.22170 -0.23500
C 	C 	0.07600 0.80310 0.22030 0.06100
C 	C 	0.03610 0.82680 0.18250 -0.12200
H 	H 	0.99400 0.81610 0.18290 0.07500
C 	C 	0.05910 0.86620 0.14430 0.04500
H 	H 	0.03290 0.88340 0.11810 0.02100
C 	C 	0.12120 0.88010 0.14510 -0.12500
H 	H 	0.13820 0.90700 0.11930 0.08900
C 	C 	0.15700 0.85490 0.18290 0.06200
H 	H 	0.19950 0.86400 0.18240 0.00100
N 	N 	0.18570 0.76170 0.35460 -0.23400
C 	C 	0.18900 0.81110 0.38540 0.05900
C 	C 	0.18540 0.80420 0.43930 -0.12900
H 	H 	0.18800 0.83890 0.46190 0.07100
C 	C 	0.17810 0.74660 0.46090 0.05800
H 	H 	0.17580 0.74190 0.49840 0.01600
C 	C 	0.17410 0.69750 0.42970 -0.13600
H 	H 	0.16880 0.65780 0.44430 0.08800
C 	C 	0.17820 0.70630 0.37520 0.06900
H 	H 	0.17550 0.67190 0.35220 0.00200
Cu	Cu	0.69152 0.27536 0.77428 0.84100
Br	Br	0.70232 0.16961 0.73768 -0.52800
Se	Se	0.55312 0.24633 0.77534 -0.02900
Se	Se	0.69871 0.38698 0.84848 -0.02000
N 	N 	0.63560 0.31720 0.72170 -0.23500
C 	C 	0.57600 0.30310 0.72030 0.06100
C 	C 	0.53610 0.32680 0.68250 -0.12200
H 	H 	0.49400 0.31610 0.68290 0.07500
C 	C 	0.55910 0.36620 0.64430 0.04500
H 	H 	0.53290 0.38340 0.61810 0.02100
C 	C 	0.62120 0.38010 0.64510 -0.12500
H 	H 	0.63820 0.40700 0.61930 0.08900
C 	C 	0.65700 0.35490 0.68290 0.06200
H 	H 	0.69950 0.36400 0.68240 0.00100
N 	N 	0.68570 0.26170 0.85460 -0.23400
C 	C 	0.68900 0.31110 0.88540 0.05900
C 	C 	0.68540 0.30420 0.93930 -0.12900
H 	H 	0.68800 0.33890 0.96190 0.07100
C 	C 	0.67810 0.24660 0.96090 0.05800
H 	H 	0.67580 0.24190 0.99840 0.01600
C 	C 	0.67410 0.19750 0.92970 -0.13600
H 	H 	0.66880 0.15780 0.94430 0.08800
C 	C 	0.67820 0.20630 0.87520 0.06900
H 	H 	0.67550 0.17190 0.85220 0.00200
Cu	Cu	0.30848 0.22464 0.77428 0.84100
Br	Br	0.29768 0.33039 0.73768 -0.52800
Se	Se	0.44688 0.25367 0.77534 -0.02900
Se	Se	0.30129 0.11302 0.84848 -0.02000
N 	N 	0.36440 0.18280 0.72170 -0.23500
C 	C 	0.42400 0.19690 0.72030 0.06100
C 	C 	0.46390 0.17320 0.68250 -0.12200
H 	H 	0.50600 0.18390 0.68290 0.07500
C 	C 	0.44090 0.13380 0.64430 0.04500
H 	H 	0.46710 0.11660 0.61810 0.02100
C 	C 	0.37880 0.11990 0.64510 -0.12500
H 	H 	0.36180 0.09300 0.61930 0.08900
C 	C 	0.34300 0.14510 0.68290 0.06200
H 	H 	0.30050 0.13600 0.68240 0.00100
N 	N 	0.31430 0.23830 0.85460 -0.23400
C 	C 	0.31100 0.18890 0.88540 0.05900
C 	C 	0.31460 0.19580 0.93930 -0.12900
H 	H 	0.31200 0.16110 0.96190 0.07100
C 	C 	0.32190 0.25340 0.96090 0.05800
H 	H 	0.32420 0.25810 0.99840 0.01600
C 	C 	0.32590 0.30250 0.92970 -0.13600
H 	H 	0.33120 0.34220 0.94430 0.08800
C 	C 	0.32180 0.29370 0.87520 0.06900
H 	H 	0.32450 0.32810 0.85220 0.00200
Cu	Cu	0.80848 0.72464 0.27428 0.84100
Br	Br	0.79768 0.83039 0.23768 -0.52800
Se	Se	0.94688 0.75367 0.27534 -0.02900
Se	Se	0.80129 0.61302 0.34848 -0.02000
N 	N 	0.86440 0.68280 0.22170 -0.23500
C 	C 	0.92400 0.69690 0.22030 0.06100
C 	C 	0.96390 0.67320 0.18250 -0.12200
H 	H 	0.00600 0.68390 0.18290 0.07500
C 	C 	0.94090 0.63380 0.14430 0.04500
H 	H 	0.96710 0.61660 0.11810 0.02100
C 	C 	0.87880 0.61990 0.14510 -0.12500
H 	H 	0.86180 0.59300 0.11930 0.08900
C 	C 	0.84300 0.64510 0.18290 0.06200
H 	H 	0.80050 0.63600 0.18240 0.00100
N 	N 	0.81430 0.73830 0.35460 -0.23400
C 	C 	0.81100 0.68890 0.38540 0.05900
C 	C 	0.81460 0.69580 0.43930 -0.12900
H 	H 	0.81200 0.66110 0.46190 0.07100
C 	C 	0.82190 0.75340 0.46090 0.05800
H 	H 	0.82420 0.75810 0.49840 0.01600
C 	C 	0.82590 0.80250 0.42970 -0.13600
H 	H 	0.83120 0.84220 0.44430 0.08800
C 	C 	0.82180 0.79370 0.37520 0.06900
H 	H 	0.82450 0.82810 0.35220 0.00200
Cu	Cu	0.97464 0.05848 0.52428 0.84100
Br	Br	0.08039 0.04768 0.48768 -0.52800
Se	Se	0.00367 0.19688 0.52534 -0.02900
Se	Se	0.86302 0.05129 0.59848 -0.02000
N 	N 	0.93280 0.11440 0.47170 -0.23500
C 	C 	0.94690 0.17400 0.47030 0.06100
C 	C 	0.92320 0.21390 0.43250 -0.12200
H 	H 	0.93390 0.25600 0.43290 0.07500
C 	C 	0.88380 0.19090 0.39430 0.04500
H 	H 	0.86660 0.21710 0.36810 0.02100
C 	C 	0.86990 0.12880 0.39510 -0.12500
H 	H 	0.84300 0.11180 0.36930 0.08900
C 	C 	0.89510 0.09300 0.43290 0.06200
H 	H 	0.88600 0.05050 0.43240 0.00100
N 	N 	0.98830 0.06430 0.60460 -0.23400
C 	C 	0.93890 0.06100 0.63540 0.05900
C 	C 	0.94580 0.06460 0.68930 -0.12900
H 	H 	0.91110 0.06200 0.71190 0.07100
C 	C 	0.00340 0.07190 0.71090 0.05900
H 	H 	0.00810 0.07420 0.74840 0.01600
C 	C 	0.05250 0.07590 0.67970 -0.13600
H 	H 	0.09220 0.08120 0.69430 0.08800
C 	C 	0.04370 0.07180 0.62520 0.06900
H 	H 	0.07810 0.07450 0.60220 0.00200
Cu	Cu	0.47464 0.55848 0.02428 0.84100
Br	Br	0.58039 0.54768 0.98768 -0.52800
Se	Se	0.50367 0.69688 0.02534 -0.02900
Se	Se	0.36302 0.55129 0.09848 -0.02000
N 	N 	0.43280 0.61440 0.97170 -0.23500
C 	C 	0.44690 0.67400 0.97030 0.06100
C 	C 	0.42320 0.71390 0.93250 -0.12200
H 	H 	0.43390 0.75600 0.93290 0.07500
C 	C 	0.38380 0.69090 0.89430 0.04500
H 	H 	0.36660 0.71710 0.86810 0.02100
C 	C 	0.36990 0.62880 0.89510 -0.12500
H 	H 	0.34300 0.61180 0.86930 0.08900
C 	C 	0.39510 0.59300 0.93290 0.06200
H 	H 	0.38600 0.55050 0.93240 0.00100
N 	N 	0.48830 0.56430 0.10460 -0.23400
C 	C 	0.43890 0.56100 0.13540 0.05900
C 	C 	0.44580 0.56460 0.18930 -0.12900
H 	H 	0.41110 0.56200 0.21190 0.07100
C 	C 	0.50340 0.57190 0.21090 0.05800
H 	H 	0.50810 0.57420 0.24840 0.01600
C 	C 	0.55250 0.57590 0.17970 -0.13600
H 	H 	0.59220 0.58120 0.19430 0.08800
C 	C 	0.54370 0.57180 0.12520 0.06900
H 	H 	0.57810 0.57450 0.10220 0.00200
Cu	Cu	0.52536 0.94152 0.02428 0.84100
Br	Br	0.41961 0.95232 0.98768 -0.52800
Se	Se	0.49633 0.80312 0.02534 -0.02900
Se	Se	0.63698 0.94871 0.09848 -0.02000
N 	N 	0.56720 0.88560 0.97170 -0.23500
C 	C 	0.55310 0.82600 0.97030 0.06100
C 	C 	0.57680 0.78610 0.93250 -0.12200
H 	H 	0.56610 0.74400 0.93290 0.07500
C 	C 	0.61620 0.80910 0.89430 0.04500
H 	H 	0.63340 0.78290 0.86810 0.02100
C 	C 	0.63010 0.87120 0.89510 -0.12500
H 	H 	0.65700 0.88820 0.86930 0.08900
C 	C 	0.60490 0.90700 0.93290 0.06200
H 	H 	0.61400 0.94950 0.93240 0.00100
N 	N 	0.51170 0.93570 0.10460 -0.23400
C 	C 	0.56110 0.93900 0.13540 0.05900
C 	C 	0.55420 0.93540 0.18930 -0.12900
H 	H 	0.58890 0.93800 0.21190 0.07100
C 	C 	0.49660 0.92810 0.21090 0.05800
H 	H 	0.49190 0.92580 0.24840 0.01600
C 	C 	0.44750 0.92410 0.17970 -0.13600
H 	H 	0.40780 0.91880 0.19430 0.08800
C 	C 	0.45630 0.92820 0.12520 0.06900
H 	H 	0.42190 0.92550 0.10220 0.00200
Cu	Cu	0.02536 0.44152 0.52428 0.84100
Br	Br	0.91961 0.45232 0.48768 -0.52800
Se	Se	0.99633 0.30312 0.52534 -0.02900
Se	Se	0.13698 0.44871 0.59848 -0.02000
N 	N 	0.06720 0.38560 0.47170 -0.23500
C 	C 	0.05310 0.32600 0.47030 0.06100
C 	C 	0.07680 0.28610 0.43250 -0.12200
H 	H 	0.06610 0.24400 0.43290 0.07500
C 	C 	0.11620 0.30910 0.39430 0.04500
H 	H 	0.13340 0.28290 0.36810 0.02100
C 	C 	0.13010 0.37120 0.39510 -0.12500
H 	H 	0.15700 0.38820 0.36930 0.08900
C 	C 	0.10490 0.40700 0.43290 0.06200
H 	H 	0.11400 0.44950 0.43240 0.00100
N 	N 	0.01170 0.43570 0.60460 -0.23400
C 	C 	0.06110 0.43900 0.63540 0.05900
C 	C 	0.05420 0.43540 0.68930 -0.12900
H 	H 	0.08890 0.43800 0.71190 0.07100
C 	C 	0.99660 0.42810 0.71090 0.05900
H 	H 	0.99190 0.42580 0.74840 0.01600
C 	C 	0.94750 0.42410 0.67970 -0.13600
H 	H 	0.90780 0.41880 0.69430 0.08800
C 	C 	0.95630 0.42820 0.62520 0.06900
H 	H 	0.92190 0.42550 0.60220 0.00200
Cu	Cu	0.80848 0.22464 0.72572 0.84100
Br	Br	0.79768 0.33039 0.76232 -0.52800
Se	Se	0.94688 0.25367 0.72466 -0.02900
Se	Se	0.80129 0.11302 0.65152 -0.02000
N 	N 	0.86440 0.18280 0.77830 -0.23500
C 	C 	0.92400 0.19690 0.77970 0.06100
C 	C 	0.96390 0.17320 0.81750 -0.12200
H 	H 	0.00600 0.18390 0.81710 0.07500
C 	C 	0.94090 0.13380 0.85570 0.04500
H 	H 	0.96710 0.11660 0.88190 0.02100
C 	C 	0.87880 0.11990 0.85490 -0.12500
H 	H 	0.86180 0.09300 0.88070 0.08900
C 	C 	0.84300 0.14510 0.81710 0.06200
H 	H 	0.80050 0.13600 0.81760 0.00100
N 	N 	0.81430 0.23830 0.64540 -0.23400
C 	C 	0.81100 0.18890 0.61460 0.05900
C 	C 	0.81460 0.19580 0.56070 -0.12900
H 	H 	0.81200 0.16110 0.53810 0.07100
C 	C 	0.82190 0.25340 0.53910 0.05800
H 	H 	0.82420 0.25810 0.50160 0.01600
C 	C 	0.82590 0.30250 0.57030 -0.13600
H 	H 	0.83120 0.34220 0.55570 0.08800
C 	C 	0.82180 0.29370 0.62480 0.06900
H 	H 	0.82450 0.32810 0.64780 0.00200
Cu	Cu	0.30848 0.72464 0.22572 0.84100
Br	Br	0.29768 0.83039 0.26232 -0.52800
Se	Se	0.44688 0.75367 0.22466 -0.02900
Se	Se	0.30129 0.61302 0.15152 -0.02000
N 	N 	0.36440 0.68280 0.27830 -0.23500
C 	C 	0.42400 0.69690 0.27970 0.06100
C 	C 	0.46390 0.67320 0.31750 -0.12200
H 	H 	0.50600 0.68390 0.31710 0.07500
C 	C 	0.44090 0.63380 0.35570 0.04500
H 	H 	0.46710 0.61660 0.38190 0.02100
C 	C 	0.37880 0.61990 0.35490 -0.12500
H 	H 	0.36180 0.59300 0.38070 0.08900
C 	C 	0.34300 0.64510 0.31710 0.06200
H 	H 	0.30050 0.63600 0.31760 0.00100
N 	N 	0.31430 0.73830 0.14540 -0.23400
C 	C 	0.31100 0.68890 0.11460 0.05900
C 	C 	0.31460 0.69580 0.06070 -0.12900
H 	H 	0.31200 0.66110 0.03810 0.07100
C 	C 	0.32190 0.75340 0.03910 0.05800
H 	H 	0.32420 0.75810 0.00160 0.01600
C 	C 	0.32590 0.80250 0.07030 -0.13600
H 	H 	0.33120 0.84220 0.05570 0.08800
C 	C 	0.32180 0.79370 0.12480 0.06900
H 	H 	0.32450 0.82810 0.14780 0.00200
Cu	Cu	0.69152 0.77536 0.22572 0.84100
Br	Br	0.70232 0.66961 0.26232 -0.52800
Se	Se	0.55312 0.74633 0.22466 -0.02900
Se	Se	0.69871 0.88698 0.15152 -0.02000
N 	N 	0.63560 0.81720 0.27830 -0.23500
C 	C 	0.57600 0.80310 0.27970 0.06100
C 	C 	0.53610 0.82680 0.31750 -0.12200
H 	H 	0.49400 0.81610 0.31710 0.07500
C 	C 	0.55910 0.86620 0.35570 0.04500
H 	H 	0.53290 0.88340 0.38190 0.02100
C 	C 	0.62120 0.88010 0.35490 -0.12500
H 	H 	0.63820 0.90700 0.38070 0.08900
C 	C 	0.65700 0.85490 0.31710 0.06200
H 	H 	0.69950 0.86400 0.31760 0.00100
N 	N 	0.68570 0.76170 0.14540 -0.23400
C 	C 	0.68900 0.81110 0.11460 0.05900
C 	C 	0.68540 0.80420 0.06070 -0.12900
H 	H 	0.68800 0.83890 0.03810 0.07100
C 	C 	0.67810 0.74660 0.03910 0.05800
H 	H 	0.67580 0.74190 0.00160 0.01600
C 	C 	0.67410 0.69750 0.07030 -0.13600
H 	H 	0.66880 0.65780 0.05570 0.08800
C 	C 	0.67820 0.70630 0.12480 0.06900
H 	H 	0.67550 0.67190 0.14780 0.00200
Cu	Cu	0.19152 0.27536 0.72572 0.84100
Br	Br	0.20232 0.16961 0.76232 -0.52800
Se	Se	0.05312 0.24633 0.72466 -0.02900
Se	Se	0.19871 0.38698 0.65152 -0.02000
N 	N 	0.13560 0.31720 0.77830 -0.23500
C 	C 	0.07600 0.30310 0.77970 0.06100
C 	C 	0.03610 0.32680 0.81750 -0.12200
H 	H 	0.99400 0.31610 0.81710 0.07500
C 	C 	0.05910 0.36620 0.85570 0.04500
H 	H 	0.03290 0.38340 0.88190 0.02100
C 	C 	0.12120 0.38010 0.85490 -0.12500
H 	H 	0.13820 0.40700 0.88070 0.08900
C 	C 	0.15700 0.35490 0.81710 0.06200
H 	H 	0.19950 0.36400 0.81760 0.00100
N 	N 	0.18570 0.26170 0.64540 -0.23400
C 	C 	0.18900 0.31110 0.61460 0.05900
C 	C 	0.18540 0.30420 0.56070 -0.12900
H 	H 	0.18800 0.33890 0.53810 0.07100
C 	C 	0.17810 0.24660 0.53910 0.05800
H 	H 	0.17580 0.24190 0.50160 0.01600
C 	C 	0.17410 0.19750 0.57030 -0.13600
H 	H 	0.16880 0.15780 0.55570 0.08800
C 	C 	0.17820 0.20630 0.62480 0.06900
H 	H 	0.17550 0.17190 0.64780 0.00200
Cu	Cu	0.30848 0.77536 0.72572 0.84100
Br	Br	0.29768 0.66961 0.76232 -0.52800
Se	Se	0.44688 0.74633 0.72466 -0.02900
Se	Se	0.30129 0.88698 0.65152 -0.02000
N 	N 	0.36440 0.81720 0.77830 -0.23500
C 	C 	0.42400 0.80310 0.77970 0.06100
C 	C 	0.46390 0.82680 0.81750 -0.12200
H 	H 	0.50600 0.81610 0.81710 0.07500
C 	C 	0.44090 0.86620 0.85570 0.04500
H 	H 	0.46710 0.88340 0.88190 0.02100
C 	C 	0.37880 0.88010 0.85490 -0.12500
H 	H 	0.36180 0.90700 0.88070 0.08900
C 	C 	0.34300 0.85490 0.81710 0.06200
H 	H 	0.30050 0.86400 0.81760 0.00100
N 	N 	0.31430 0.76170 0.64540 -0.23400
C 	C 	0.31100 0.81110 0.61460 0.05900
C 	C 	0.31460 0.80420 0.56070 -0.12900
H 	H 	0.31200 0.83890 0.53810 0.07100
C 	C 	0.32190 0.74660 0.53910 0.05800
H 	H 	0.32420 0.74190 0.50160 0.01600
C 	C 	0.32590 0.69750 0.57030 -0.13600
H 	H 	0.33120 0.65780 0.55570 0.08800
C 	C 	0.32180 0.70630 0.62480 0.06900
H 	H 	0.32450 0.67190 0.64780 0.00200
Cu	Cu	0.80848 0.27536 0.22572 0.84100
Br	Br	0.79768 0.16961 0.26232 -0.52800
Se	Se	0.94688 0.24633 0.22466 -0.02900
Se	Se	0.80129 0.38698 0.15152 -0.02000
N 	N 	0.86440 0.31720 0.27830 -0.23500
C 	C 	0.92400 0.30310 0.27970 0.06100
C 	C 	0.96390 0.32680 0.31750 -0.12200
H 	H 	0.00600 0.31610 0.31710 0.07500
C 	C 	0.94090 0.36620 0.35570 0.04500
H 	H 	0.96710 0.38340 0.38190 0.02100
C 	C 	0.87880 0.38010 0.35490 -0.12500
H 	H 	0.86180 0.40700 0.38070 0.08900
C 	C 	0.84300 0.35490 0.31710 0.06200
H 	H 	0.80050 0.36400 0.31760 0.00100
N 	N 	0.81430 0.26170 0.14540 -0.23400
C 	C 	0.81100 0.31110 0.11460 0.05900
C 	C 	0.81460 0.30420 0.06070 -0.12900
H 	H 	0.81200 0.33890 0.03810 0.07100
C 	C 	0.82190 0.24660 0.03910 0.05800
H 	H 	0.82420 0.24190 0.00160 0.01600
C 	C 	0.82590 0.19750 0.07030 -0.13600
H 	H 	0.83120 0.15780 0.05570 0.08800
C 	C 	0.82180 0.20630 0.12480 0.06900
H 	H 	0.82450 0.17190 0.14780 0.00200
Cu	Cu	0.19152 0.22464 0.22572 0.84100
Br	Br	0.20232 0.33039 0.26232 -0.52800
Se	Se	0.05312 0.25367 0.22466 -0.02900
Se	Se	0.19871 0.11302 0.15152 -0.02000
N 	N 	0.13560 0.18280 0.27830 -0.23500
C 	C 	0.07600 0.19690 0.27970 0.06100
C 	C 	0.03610 0.17320 0.31750 -0.12200
H 	H 	0.99400 0.18390 0.31710 0.07500
C 	C 	0.05910 0.13380 0.35570 0.04500
H 	H 	0.03290 0.11660 0.38190 0.02100
C 	C 	0.12120 0.11990 0.35490 -0.12500
H 	H 	0.13820 0.09300 0.38070 0.08900
C 	C 	0.15700 0.14510 0.31710 0.06200
H 	H 	0.19950 0.13600 0.31760 0.00100
N 	N 	0.18570 0.23830 0.14540 -0.23400
C 	C 	0.18900 0.18890 0.11460 0.05900
C 	C 	0.18540 0.19580 0.06070 -0.12900
H 	H 	0.18800 0.16110 0.03810 0.07100
C 	C 	0.17810 0.25340 0.03910 0.05800
H 	H 	0.17580 0.25810 0.00160 0.01600
C 	C 	0.17410 0.30250 0.07030 -0.13600
H 	H 	0.16880 0.34220 0.05570 0.08800
C 	C 	0.17820 0.29370 0.12480 0.06900
H 	H 	0.17550 0.32810 0.14780 0.00200
Cu	Cu	0.69152 0.72464 0.72572 0.84100
Br	Br	0.70232 0.83039 0.76232 -0.52800
Se	Se	0.55312 0.75367 0.72466 -0.02900
Se	Se	0.69871 0.61302 0.65152 -0.02000
N 	N 	0.63560 0.68280 0.77830 -0.23500
C 	C 	0.57600 0.69690 0.77970 0.06100
C 	C 	0.53610 0.67320 0.81750 -0.12200
H 	H 	0.49400 0.68390 0.81710 0.07500
C 	C 	0.55910 0.63380 0.85570 0.04500
H 	H 	0.53290 0.61660 0.88190 0.02100
C 	C 	0.62120 0.61990 0.85490 -0.12500
H 	H 	0.63820 0.59300 0.88070 0.08900
C 	C 	0.65700 0.64510 0.81710 0.06200
H 	H 	0.69950 0.63600 0.81760 0.00100
N 	N 	0.68570 0.73830 0.64540 -0.23400
C 	C 	0.68900 0.68890 0.61460 0.05900
C 	C 	0.68540 0.69580 0.56070 -0.12900
H 	H 	0.68800 0.66110 0.53810 0.07100
C 	C 	0.67810 0.75340 0.53910 0.05800
H 	H 	0.67580 0.75810 0.50160 0.01600
C 	C 	0.67410 0.80250 0.57030 -0.13600
H 	H 	0.66880 0.84220 0.55570 0.08800
C 	C 	0.67820 0.79370 0.62480 0.06900
H 	H 	0.67550 0.82810 0.64780 0.00200
Cu	Cu	0.47464 0.94152 0.52428 0.84100
Br	Br	0.58039 0.95232 0.48768 -0.52800
Se	Se	0.50367 0.80312 0.52534 -0.02900
Se	Se	0.36302 0.94871 0.59848 -0.02000
N 	N 	0.43280 0.88560 0.47170 -0.23500
C 	C 	0.44690 0.82600 0.47030 0.06100
C 	C 	0.42320 0.78610 0.43250 -0.12200
H 	H 	0.43390 0.74400 0.43290 0.07500
C 	C 	0.38380 0.80910 0.39430 0.04500
H 	H 	0.36660 0.78290 0.36810 0.02100
C 	C 	0.36990 0.87120 0.39510 -0.12500
H 	H 	0.34300 0.88820 0.36930 0.08900
C 	C 	0.39510 0.90700 0.43290 0.06200
H 	H 	0.38600 0.94950 0.43240 0.00100
N 	N 	0.48830 0.93570 0.60460 -0.23400
C 	C 	0.43890 0.93900 0.63540 0.05900
C 	C 	0.44580 0.93540 0.68930 -0.12900
H 	H 	0.41110 0.93800 0.71190 0.07100
C 	C 	0.50340 0.92810 0.71090 0.05800
H 	H 	0.50810 0.92580 0.74840 0.01600
C 	C 	0.55250 0.92410 0.67970 -0.13600
H 	H 	0.59220 0.91880 0.69430 0.08800
C 	C 	0.54370 0.92820 0.62520 0.06900
H 	H 	0.57810 0.92550 0.60220 0.00200
Cu	Cu	0.97464 0.44152 0.02428 0.84100
Br	Br	0.08039 0.45232 0.98768 -0.52800
Se	Se	0.00367 0.30312 0.02534 -0.02900
Se	Se	0.86302 0.44871 0.09848 -0.02000
N 	N 	0.93280 0.38560 0.97170 -0.23500
C 	C 	0.94690 0.32600 0.97030 0.06100
C 	C 	0.92320 0.28610 0.93250 -0.12200
H 	H 	0.93390 0.24400 0.93290 0.07500
C 	C 	0.88380 0.30910 0.89430 0.04500
H 	H 	0.86660 0.28290 0.86810 0.02100
C 	C 	0.86990 0.37120 0.89510 -0.12500
H 	H 	0.84300 0.38820 0.86930 0.08900
C 	C 	0.89510 0.40700 0.93290 0.06200
H 	H 	0.88600 0.44950 0.93240 0.00100
N 	N 	0.98830 0.43570 0.10460 -0.23400
C 	C 	0.93890 0.43900 0.13540 0.05900
C 	C 	0.94580 0.43540 0.18930 -0.12900
H 	H 	0.91110 0.43800 0.21190 0.07100
C 	C 	0.00340 0.42810 0.21090 0.05900
H 	H 	0.00810 0.42580 0.24840 0.01600
C 	C 	0.05250 0.42410 0.17970 -0.13600
H 	H 	0.09220 0.41880 0.19430 0.08800
C 	C 	0.04370 0.42820 0.12520 0.06900
H 	H 	0.07810 0.42550 0.10220 0.00200
Cu	Cu	0.02536 0.05848 0.02428 0.84100
Br	Br	0.91961 0.04768 0.98768 -0.52800
Se	Se	0.99633 0.19688 0.02534 -0.02900
Se	Se	0.13698 0.05129 0.09848 -0.02000
N 	N 	0.06720 0.11440 0.97170 -0.23500
C 	C 	0.05310 0.17400 0.97030 0.06100
C 	C 	0.07680 0.21390 0.93250 -0.12200
H 	H 	0.06610 0.25600 0.93290 0.07500
C 	C 	0.11620 0.19090 0.89430 0.04500
H 	H 	0.13340 0.21710 0.86810 0.02100
C 	C 	0.13010 0.12880 0.89510 -0.12500
H 	H 	0.15700 0.11180 0.86930 0.08900
C 	C 	0.10490 0.09300 0.93290 0.06200
H 	H 	0.11400 0.05050 0.93240 0.00100
N 	N 	0.01170 0.06430 0.10460 -0.23400
C 	C 	0.06110 0.06100 0.13540 0.05900
C 	C 	0.05420 0.06460 0.18930 -0.12900
H 	H 	0.08890 0.06200 0.21190 0.07100
C 	C 	0.99660 0.07190 0.21090 0.05900
H 	H 	0.99190 0.07420 0.24840 0.01600
C 	C 	0.94750 0.07590 0.17970 -0.13600
H 	H 	0.90780 0.08120 0.19430 0.08800
C 	C 	0.95630 0.07180 0.12520 0.06900
H 	H 	0.92190 0.07450 0.10220 0.00200
Cu	Cu	0.52536 0.55848 0.52428 0.84100
Br	Br	0.41961 0.54768 0.48768 -0.52800
Se	Se	0.49633 0.69688 0.52534 -0.02900
Se	Se	0.63698 0.55129 0.59848 -0.02000
N 	N 	0.56720 0.61440 0.47170 -0.23500
C 	C 	0.55310 0.67400 0.47030 0.06100
C 	C 	0.57680 0.71390 0.43250 -0.12200
H 	H 	0.56610 0.75600 0.43290 0.07500
C 	C 	0.61620 0.69090 0.39430 0.04500
H 	H 	0.63340 0.71710 0.36810 0.02100
C 	C 	0.63010 0.62880 0.39510 -0.12500
H 	H 	0.65700 0.61180 0.36930 0.08900
C 	C 	0.60490 0.59300 0.43290 0.06200
H 	H 	0.61400 0.55050 0.43240 0.00100
N 	N 	0.51170 0.56430 0.60460 -0.23400
C 	C 	0.56110 0.56100 0.63540 0.05900
C 	C 	0.55420 0.56460 0.68930 -0.12900
H 	H 	0.58890 0.56200 0.71190 0.07100
C 	C 	0.49660 0.57190 0.71090 0.05800
H 	H 	0.49190 0.57420 0.74840 0.01600
C 	C 	0.44750 0.57590 0.67970 -0.13600
H 	H 	0.40780 0.58120 0.69430 0.08800
C 	C 	0.45630 0.57180 0.62520 0.06900
H 	H 	0.42190 0.57450 0.60220 0.00200
Cu	Cu	0.69152 0.22464 0.27428 0.84100
Br	Br	0.70232 0.33039 0.23768 -0.52800
Se	Se	0.55312 0.25367 0.27534 -0.02900
Se	Se	0.69871 0.11302 0.34848 -0.02000
N 	N 	0.63560 0.18280 0.22170 -0.23500
C 	C 	0.57600 0.19690 0.22030 0.06100
C 	C 	0.53610 0.17320 0.18250 -0.12200
H 	H 	0.49400 0.18390 0.18290 0.07500
C 	C 	0.55910 0.13380 0.14430 0.04500
H 	H 	0.53290 0.11660 0.11810 0.02100
C 	C 	0.62120 0.11990 0.14510 -0.12500
H 	H 	0.63820 0.09300 0.11930 0.08900
C 	C 	0.65700 0.14510 0.18290 0.06200
H 	H 	0.69950 0.13600 0.18240 0.00100
N 	N 	0.68570 0.23830 0.35460 -0.23400
C 	C 	0.68900 0.18890 0.38540 0.05900
C 	C 	0.68540 0.19580 0.43930 -0.12900
H 	H 	0.68800 0.16110 0.46190 0.07100
C 	C 	0.67810 0.25340 0.46090 0.05800
H 	H 	0.67580 0.25810 0.49840 0.01600
C 	C 	0.67410 0.30250 0.42970 -0.13600
H 	H 	0.66880 0.34220 0.44430 0.08800
C 	C 	0.67820 0.29370 0.37520 0.06900
H 	H 	0.67550 0.32810 0.35220 0.00200
Cu	Cu	0.19152 0.72464 0.77428 0.84100
Br	Br	0.20232 0.83039 0.73768 -0.52800
Se	Se	0.05312 0.75367 0.77534 -0.02900
Se	Se	0.19871 0.61302 0.84848 -0.02000
N 	N 	0.13560 0.68280 0.72170 -0.23500
C 	C 	0.07600 0.69690 0.72030 0.06100
C 	C 	0.03610 0.67320 0.68250 -0.12200
H 	H 	0.99400 0.68390 0.68290 0.07500
C 	C 	0.05910 0.63380 0.64430 0.04500
H 	H 	0.03290 0.61660 0.61810 0.02100
C 	C 	0.12120 0.61990 0.64510 -0.12500
H 	H 	0.13820 0.59300 0.61930 0.08900
C 	C 	0.15700 0.64510 0.68290 0.06200
H 	H 	0.19950 0.63600 0.68240 0.00100
N 	N 	0.18570 0.73830 0.85460 -0.23400
C 	C 	0.18900 0.68890 0.88540 0.05900
C 	C 	0.18540 0.69580 0.93930 -0.12900
H 	H 	0.18800 0.66110 0.96190 0.07100
C 	C 	0.17810 0.75340 0.96090 0.05800
H 	H 	0.17580 0.75810 0.99840 0.01600
C 	C 	0.17410 0.80250 0.92970 -0.13600
H 	H 	0.16880 0.84220 0.94430 0.08800
C 	C 	0.17820 0.79370 0.87520 0.06900
H 	H 	0.17550 0.82810 0.85220 0.00200
Cu	Cu	0.80848 0.77536 0.77428 0.84100
Br	Br	0.79768 0.66961 0.73768 -0.52800
Se	Se	0.94688 0.74633 0.77534 -0.02900
Se	Se	0.80129 0.88698 0.84848 -0.02000
N 	N 	0.86440 0.81720 0.72170 -0.23500
C 	C 	0.92400 0.80310 0.72030 0.06100
C 	C 	0.96390 0.82680 0.68250 -0.12200
H 	H 	0.00600 0.81610 0.68290 0.07500
C 	C 	0.94090 0.86620 0.64430 0.04500
H 	H 	0.96710 0.88340 0.61810 0.02100
C 	C 	0.87880 0.88010 0.64510 -0.12500
H 	H 	0.86180 0.90700 0.61930 0.08900
C 	C 	0.84300 0.85490 0.68290 0.06200
H 	H 	0.80050 0.86400 0.68240 0.00100
N 	N 	0.81430 0.76170 0.85460 -0.23400
C 	C 	0.81100 0.81110 0.88540 0.05900
C 	C 	0.81460 0.80420 0.93930 -0.12900
H 	H 	0.81200 0.83890 0.96190 0.07100
C 	C 	0.82190 0.74660 0.96090 0.05800
H 	H 	0.82420 0.74190 0.99840 0.01600
C 	C 	0.82590 0.69750 0.92970 -0.13600
H 	H 	0.83120 0.65780 0.94430 0.08800
C 	C 	0.82180 0.70630 0.87520 0.06900
H 	H 	0.82450 0.67190 0.85220 0.00200
Cu	Cu	0.30848 0.27536 0.27428 0.84100
Br	Br	0.29768 0.16961 0.23768 -0.52800
Se	Se	0.44688 0.24633 0.27534 -0.02900
Se	Se	0.30129 0.38698 0.34848 -0.02000
N 	N 	0.36440 0.31720 0.22170 -0.23500
C 	C 	0.42400 0.30310 0.22030 0.06100
C 	C 	0.46390 0.32680 0.18250 -0.12200
H 	H 	0.50600 0.31610 0.18290 0.07500
C 	C 	0.44090 0.36620 0.14430 0.04500
H 	H 	0.46710 0.38340 0.11810 0.02100
C 	C 	0.37880 0.38010 0.14510 -0.12500
H 	H 	0.36180 0.40700 0.11930 0.08900
C 	C 	0.34300 0.35490 0.18290 0.06200
H 	H 	0.30050 0.36400 0.18240 0.00100
N 	N 	0.31430 0.26170 0.35460 -0.23400
C 	C 	0.31100 0.31110 0.38540 0.05900
C 	C 	0.31460 0.30420 0.43930 -0.12900
H 	H 	0.31200 0.33890 0.46190 0.07100
C 	C 	0.32190 0.24660 0.46090 0.05800
H 	H 	0.32420 0.24190 0.49840 0.01600
C 	C 	0.32590 0.19750 0.42970 -0.13600
H 	H 	0.33120 0.15780 0.44430 0.08800
C 	C 	0.32180 0.20630 0.37520 0.06900
H 	H 	0.32450 0.17190 0.35220 0.00200
Cu	Cu	0.52536 0.05848 0.47572 0.84100
Br	Br	0.41961 0.04768 0.51232 -0.52800
Se	Se	0.49633 0.19688 0.47466 -0.02900
Se	Se	0.63698 0.05129 0.40152 -0.02000
N 	N 	0.56720 0.11440 0.52830 -0.23500
C 	C 	0.55310 0.17400 0.52970 0.06100
C 	C 	0.57680 0.21390 0.56750 -0.12200
H 	H 	0.56610 0.25600 0.56710 0.07500
C 	C 	0.61620 0.19090 0.60570 0.04500
H 	H 	0.63340 0.21710 0.63190 0.02100
C 	C 	0.63010 0.12880 0.60490 -0.12500
H 	H 	0.65700 0.11180 0.63070 0.08900
C 	C 	0.60490 0.09300 0.56710 0.06200
H 	H 	0.61400 0.05050 0.56760 0.00100
N 	N 	0.51170 0.06430 0.39540 -0.23400
C 	C 	0.56110 0.06100 0.36460 0.05900
C 	C 	0.55420 0.06460 0.31070 -0.12900
H 	H 	0.58890 0.06200 0.28810 0.07100
C 	C 	0.49660 0.07190 0.28910 0.05800
H 	H 	0.49190 0.07420 0.25160 0.01600
C 	C 	0.44750 0.07590 0.32030 -0.13600
H 	H 	0.40780 0.08120 0.30570 0.08800
C 	C 	0.45630 0.07180 0.37480 0.06900
H 	H 	0.42190 0.07450 0.39780 0.00200
Cu	Cu	0.02536 0.55848 0.97572 0.84100
Br	Br	0.91961 0.54768 0.01232 -0.52800
Se	Se	0.99633 0.69688 0.97466 -0.02900
Se	Se	0.13698 0.55129 0.90152 -0.02000
N 	N 	0.06720 0.61440 0.02830 -0.23500
C 	C 	0.05310 0.67400 0.02970 0.06100
C 	C 	0.07680 0.71390 0.06750 -0.12200
H 	H 	0.06610 0.75600 0.06710 0.07500
C 	C 	0.11620 0.69090 0.10570 0.04500
H 	H 	0.13340 0.71710 0.13190 0.02100
C 	C 	0.13010 0.62880 0.10490 -0.12500
H 	H 	0.15700 0.61180 0.13070 0.08900
C 	C 	0.10490 0.59300 0.06710 0.06200
H 	H 	0.11400 0.55050 0.06760 0.00100
N 	N 	0.01170 0.56430 0.89540 -0.23400
C 	C 	0.06110 0.56100 0.86460 0.05900
C 	C 	0.05420 0.56460 0.81070 -0.12900
H 	H 	0.08890 0.56200 0.78810 0.07100
C 	C 	0.99660 0.57190 0.78910 0.05900
H 	H 	0.99190 0.57420 0.75160 0.01600
C 	C 	0.94750 0.57590 0.82030 -0.13600
H 	H 	0.90780 0.58120 0.80570 0.08800
C 	C 	0.95630 0.57180 0.87480 0.06900
H 	H 	0.92190 0.57450 0.89780 0.00200
Cu	Cu	0.97464 0.94152 0.97572 0.84100
Br	Br	0.08039 0.95232 0.01232 -0.52800
Se	Se	0.00367 0.80312 0.97466 -0.02900
Se	Se	0.86302 0.94871 0.90152 -0.02000
N 	N 	0.93280 0.88560 0.02830 -0.23500
C 	C 	0.94690 0.82600 0.02970 0.06100
C 	C 	0.92320 0.78610 0.06750 -0.12200
H 	H 	0.93390 0.74400 0.06710 0.07500
C 	C 	0.88380 0.80910 0.10570 0.04500
H 	H 	0.86660 0.78290 0.13190 0.02100
C 	C 	0.86990 0.87120 0.10490 -0.12500
H 	H 	0.84300 0.88820 0.13070 0.08900
C 	C 	0.89510 0.90700 0.06710 0.06200
H 	H 	0.88600 0.94950 0.06760 0.00100
N 	N 	0.98830 0.93570 0.89540 -0.23400
C 	C 	0.93890 0.93900 0.86460 0.05900
C 	C 	0.94580 0.93540 0.81070 -0.12900
H 	H 	0.91110 0.93800 0.78810 0.07100
C 	C 	0.00340 0.92810 0.78910 0.05900
H 	H 	0.00810 0.92580 0.75160 0.01600
C 	C 	0.05250 0.92410 0.82030 -0.13600
H 	H 	0.09220 0.91880 0.80570 0.08800
C 	C 	0.04370 0.92820 0.87480 0.06900
H 	H 	0.07810 0.92550 0.89780 0.00200
Cu	Cu	0.47464 0.44152 0.47572 0.84100
Br	Br	0.58039 0.45232 0.51232 -0.52800
Se	Se	0.50367 0.30312 0.47466 -0.02900
Se	Se	0.36302 0.44871 0.40152 -0.02000
N 	N 	0.43280 0.38560 0.52830 -0.23500
C 	C 	0.44690 0.32600 0.52970 0.06100
C 	C 	0.42320 0.28610 0.56750 -0.12200
H 	H 	0.43390 0.24400 0.56710 0.07500
C 	C 	0.38380 0.30910 0.60570 0.04500
H 	H 	0.36660 0.28290 0.63190 0.02100
C 	C 	0.36990 0.37120 0.60490 -0.12500
H 	H 	0.34300 0.38820 0.63070 0.08900
C 	C 	0.39510 0.40700 0.56710 0.06200
H 	H 	0.38600 0.44950 0.56760 0.00100
N 	N 	0.48830 0.43570 0.39540 -0.23400
C 	C 	0.43890 0.43900 0.36460 0.05900
C 	C 	0.44580 0.43540 0.31070 -0.12900
H 	H 	0.41110 0.43800 0.28810 0.07100
C 	C 	0.50340 0.42810 0.28910 0.05800
H 	H 	0.50810 0.42580 0.25160 0.01600
C 	C 	0.55250 0.42410 0.32030 -0.13600
H 	H 	0.59220 0.41880 0.30570 0.08800
C 	C 	0.54370 0.42820 0.37480 0.06900
H 	H 	0.57810 0.42550 0.39780 0.00200
