data_crystal

_cell_length_a 28.96030
_cell_length_b 28.96030
_cell_length_c 10.50230
_cell_angle_alpha 90.00000
_cell_angle_beta  90.00000
_cell_angle_gamma 90.00000

_symmetry_space_group_name_	'P 1'
_symmetry_space_group_name_H-M	'P 1'

loop_
_symmetry_equiv_pos_as_xyz
  x,y,z

loop_
_atom_site_label
_atom_site_type_symbol
_atom_site_fract_x
_atom_site_fract_y
_atom_site_fract_z
_atom_site_charge
Y 	Y 	0.89117 0.18331 0.21466 2.38600
C 	C 	0.95807 0.28172 0.25890 0.44400
C 	C 	0.00151 0.28100 0.33320 -0.02900
C 	C 	0.02035 0.24671 0.40380 -0.00200
H 	H 	0.00790 0.21680 0.41750 0.03700
C 	C 	0.06246 0.26447 0.45360 -0.07000
H 	H 	0.08370 0.24860 0.50710 0.07400
C 	C 	0.06647 0.30770 0.41070 0.05100
C 	C 	0.10204 0.34231 0.43530 0.25800
C 	C 	0.82472 0.22298 0.98380 0.44100
C 	C 	0.78287 0.20273 0.92590 -0.02100
C 	C 	0.77110 0.15788 0.90900 -0.02500
H 	H 	0.78790 0.13160 0.93730 0.05500
C 	C 	0.99084 0.12195 0.25060 0.04300
H 	H 	0.98900 0.12300 0.16030 0.02400
C 	C 	0.02940 0.10050 0.30680 -0.06700
H 	H 	0.05280 0.08730 0.25520 0.06200
C 	C 	0.03260 0.09900 0.43640 -0.03900
H 	H 	0.05850 0.08470 0.47560 0.04700
C 	C 	0.99768 0.11836 0.51140 0.00900
C 	C 	0.99700 0.11725 0.64870 -0.04500
H 	H 	0.02270 0.10460 0.69280 0.05700
C 	C 	0.96133 0.13351 0.71560 -0.06500
H 	H 	0.96170 0.13100 0.80580 0.07300
C 	C 	0.92310 0.15437 0.65500 0.02600
C 	C 	0.88380 0.17012 0.71990 -0.05000
H 	H 	0.88250 0.16880 0.81020 0.06200
C 	C 	0.84780 0.18710 0.65370 -0.06100
H 	H 	0.82060 0.19690 0.69670 0.06600
C 	C 	0.85070 0.19025 0.52110 0.04400
H 	H 	0.82530 0.20310 0.47640 0.02900
C 	C 	0.92255 0.15721 0.51940 0.01400
C 	C 	0.96030 0.13882 0.44720 0.01700
N 	N 	0.95735 0.14050 0.31740 -0.25900
N 	N 	0.88665 0.17638 0.45460 -0.25100
O 	O 	0.94890 0.31645 0.19250 -0.53200
O 	O 	0.93370 0.24543 0.26760 -0.62200
O 	O 	0.02925 0.31900 0.33430 -0.15300
O 	O 	0.10206 0.38204 0.38610 -0.41000
O 	O 	0.13394 0.32948 0.51050 -0.46500
O 	O 	0.83070 0.26587 0.97950 -0.53200
O 	O 	0.85155 0.19385 0.03150 -0.58300
Y 	Y 	0.39117 0.68331 0.71466 2.38700
C 	C 	0.45807 0.78172 0.75890 0.44600
C 	C 	0.50151 0.78100 0.83320 -0.02900
C 	C 	0.52035 0.74671 0.90380 0.00200
H 	H 	0.50790 0.71680 0.91750 0.03600
C 	C 	0.56246 0.76447 0.95360 -0.07700
H 	H 	0.58370 0.74860 0.00710 0.08000
C 	C 	0.56647 0.80770 0.91070 0.05600
C 	C 	0.60204 0.84231 0.93530 0.25200
C 	C 	0.32472 0.72298 0.48380 0.44100
C 	C 	0.28287 0.70273 0.42590 -0.01900
C 	C 	0.27110 0.65788 0.40900 -0.02500
H 	H 	0.28790 0.63160 0.43730 0.05600
C 	C 	0.49084 0.62195 0.75060 0.04300
H 	H 	0.48900 0.62300 0.66030 0.02500
C 	C 	0.52940 0.60050 0.80680 -0.06400
H 	H 	0.55280 0.58730 0.75520 0.06300
C 	C 	0.53260 0.59900 0.93640 -0.04000
H 	H 	0.55850 0.58470 0.97560 0.04900
C 	C 	0.49768 0.61836 0.01140 0.01400
C 	C 	0.49700 0.61725 0.14870 -0.04600
H 	H 	0.52270 0.60460 0.19280 0.05900
C 	C 	0.46133 0.63351 0.21560 -0.06200
H 	H 	0.46170 0.63100 0.30580 0.07300
C 	C 	0.42310 0.65437 0.15500 0.02500
C 	C 	0.38380 0.67012 0.21990 -0.04700
H 	H 	0.38250 0.66880 0.31020 0.06300
C 	C 	0.34780 0.68710 0.15370 -0.06100
H 	H 	0.32060 0.69690 0.19670 0.06600
C 	C 	0.35070 0.69025 0.02110 0.04500
H 	H 	0.32530 0.70310 0.97640 0.02800
C 	C 	0.42255 0.65721 0.01940 0.01600
C 	C 	0.46030 0.63882 0.94720 0.01400
N 	N 	0.45735 0.64050 0.81740 -0.25900
N 	N 	0.38665 0.67638 0.95460 -0.25200
O 	O 	0.44890 0.81645 0.69250 -0.53100
O 	O 	0.43370 0.74543 0.76760 -0.62200
O 	O 	0.52925 0.81900 0.83430 -0.15300
O 	O 	0.60206 0.88204 0.88610 -0.41000
O 	O 	0.63394 0.82948 0.01050 -0.46100
O 	O 	0.33070 0.76587 0.47950 -0.53300
O 	O 	0.35155 0.69385 0.53150 -0.58100
Y 	Y 	0.10883 0.81669 0.21466 2.38700
C 	C 	0.04193 0.71828 0.25890 0.44500
C 	C 	0.99849 0.71900 0.33320 -0.02800
C 	C 	0.97965 0.75329 0.40380 -0.00100
H 	H 	0.99210 0.78320 0.41750 0.03800
C 	C 	0.93754 0.73553 0.45360 -0.06900
H 	H 	0.91630 0.75140 0.50710 0.07500
C 	C 	0.93353 0.69230 0.41070 0.05200
C 	C 	0.89796 0.65769 0.43530 0.25900
C 	C 	0.17528 0.77702 0.98380 0.44200
C 	C 	0.21713 0.79727 0.92590 -0.02000
C 	C 	0.22890 0.84212 0.90900 -0.02400
H 	H 	0.21210 0.86840 0.93730 0.05600
C 	C 	0.00916 0.87805 0.25060 0.04400
H 	H 	0.01100 0.87700 0.16030 0.02500
C 	C 	0.97060 0.89950 0.30680 -0.06600
H 	H 	0.94720 0.91270 0.25520 0.06300
C 	C 	0.96740 0.90100 0.43640 -0.03800
H 	H 	0.94150 0.91530 0.47560 0.04800
C 	C 	0.00232 0.88164 0.51140 0.01000
C 	C 	0.00300 0.88275 0.64870 -0.04400
H 	H 	0.97730 0.89540 0.69280 0.05800
C 	C 	0.03867 0.86649 0.71560 -0.06400
H 	H 	0.03830 0.86900 0.80580 0.07400
C 	C 	0.07690 0.84563 0.65500 0.02700
C 	C 	0.11620 0.82988 0.71990 -0.04900
H 	H 	0.11750 0.83120 0.81020 0.06300
C 	C 	0.15220 0.81290 0.65370 -0.06000
H 	H 	0.17940 0.80310 0.69670 0.06600
C 	C 	0.14930 0.80975 0.52110 0.04400
H 	H 	0.17470 0.79690 0.47640 0.02900
C 	C 	0.07745 0.84279 0.51940 0.01400
C 	C 	0.03970 0.86118 0.44720 0.01700
N 	N 	0.04265 0.85950 0.31740 -0.25900
N 	N 	0.11335 0.82362 0.45460 -0.25100
O 	O 	0.05110 0.68355 0.19250 -0.53200
O 	O 	0.06630 0.75457 0.26760 -0.62200
O 	O 	0.97075 0.68100 0.33430 -0.15300
O 	O 	0.89794 0.61796 0.38610 -0.41000
O 	O 	0.86606 0.67052 0.51050 -0.46500
O 	O 	0.16930 0.73413 0.97950 -0.53200
O 	O 	0.14845 0.80615 0.03150 -0.58300
Y 	Y 	0.60883 0.31669 0.71466 2.38700
C 	C 	0.54193 0.21828 0.75890 0.44600
C 	C 	0.49849 0.21900 0.83320 -0.02900
C 	C 	0.47965 0.25329 0.90380 0.00200
H 	H 	0.49210 0.28320 0.91750 0.03600
C 	C 	0.43754 0.23553 0.95360 -0.07700
H 	H 	0.41630 0.25140 0.00710 0.08000
C 	C 	0.43353 0.19230 0.91070 0.05600
C 	C 	0.39796 0.15769 0.93530 0.25200
C 	C 	0.67528 0.27702 0.48380 0.44100
C 	C 	0.71713 0.29727 0.42590 -0.01900
C 	C 	0.72890 0.34212 0.40900 -0.02500
H 	H 	0.71210 0.36840 0.43730 0.05600
C 	C 	0.50916 0.37805 0.75060 0.04300
H 	H 	0.51100 0.37700 0.66030 0.02500
C 	C 	0.47060 0.39950 0.80680 -0.06400
H 	H 	0.44720 0.41270 0.75520 0.06300
C 	C 	0.46740 0.40100 0.93640 -0.04000
H 	H 	0.44150 0.41530 0.97560 0.04900
C 	C 	0.50232 0.38164 0.01140 0.01400
C 	C 	0.50300 0.38275 0.14870 -0.04600
H 	H 	0.47730 0.39540 0.19280 0.05900
C 	C 	0.53867 0.36649 0.21560 -0.06200
H 	H 	0.53830 0.36900 0.30580 0.07300
C 	C 	0.57690 0.34563 0.15500 0.02500
C 	C 	0.61620 0.32988 0.21990 -0.04700
H 	H 	0.61750 0.33120 0.31020 0.06300
C 	C 	0.65220 0.31290 0.15370 -0.06100
H 	H 	0.67940 0.30310 0.19670 0.06600
C 	C 	0.64930 0.30975 0.02110 0.04500
H 	H 	0.67470 0.29690 0.97640 0.02800
C 	C 	0.57745 0.34279 0.01940 0.01600
C 	C 	0.53970 0.36118 0.94720 0.01400
N 	N 	0.54265 0.35950 0.81740 -0.25900
N 	N 	0.61335 0.32362 0.95460 -0.25200
O 	O 	0.55110 0.18355 0.69250 -0.53100
O 	O 	0.56630 0.25457 0.76760 -0.62200
O 	O 	0.47075 0.18100 0.83430 -0.15300
O 	O 	0.39794 0.11796 0.88610 -0.41000
O 	O 	0.36606 0.17052 0.01050 -0.46100
O 	O 	0.66930 0.23413 0.47950 -0.53300
O 	O 	0.64845 0.30615 0.53150 -0.58100
Y 	Y 	0.18331 0.10883 0.78534 2.38700
C 	C 	0.28172 0.04193 0.74110 0.44500
C 	C 	0.28100 0.99849 0.66680 -0.02800
C 	C 	0.24671 0.97965 0.59620 -0.00100
H 	H 	0.21680 0.99210 0.58250 0.03800
C 	C 	0.26447 0.93754 0.54640 -0.06900
H 	H 	0.24860 0.91630 0.49290 0.07500
C 	C 	0.30770 0.93353 0.58930 0.05200
C 	C 	0.34231 0.89796 0.56470 0.25900
C 	C 	0.22298 0.17528 0.01620 0.44200
C 	C 	0.20273 0.21713 0.07410 -0.02000
C 	C 	0.15788 0.22890 0.09100 -0.02400
H 	H 	0.13160 0.21210 0.06270 0.05600
C 	C 	0.12195 0.00916 0.74940 0.04400
H 	H 	0.12300 0.01100 0.83970 0.02500
C 	C 	0.10050 0.97060 0.69320 -0.06600
H 	H 	0.08730 0.94720 0.74480 0.06300
C 	C 	0.09900 0.96740 0.56360 -0.03800
H 	H 	0.08470 0.94150 0.52440 0.04800
C 	C 	0.11836 0.00232 0.48860 0.01000
C 	C 	0.11725 0.00300 0.35130 -0.04400
H 	H 	0.10460 0.97730 0.30720 0.05800
C 	C 	0.13351 0.03867 0.28440 -0.06400
H 	H 	0.13100 0.03830 0.19420 0.07400
C 	C 	0.15437 0.07690 0.34500 0.02700
C 	C 	0.17012 0.11620 0.28010 -0.04900
H 	H 	0.16880 0.11750 0.18980 0.06300
C 	C 	0.18710 0.15220 0.34630 -0.06000
H 	H 	0.19690 0.17940 0.30330 0.06600
C 	C 	0.19025 0.14930 0.47890 0.04400
H 	H 	0.20310 0.17470 0.52360 0.02900
C 	C 	0.15721 0.07745 0.48060 0.01400
C 	C 	0.13882 0.03970 0.55280 0.01700
N 	N 	0.14050 0.04265 0.68260 -0.25900
N 	N 	0.17638 0.11335 0.54540 -0.25100
O 	O 	0.31645 0.05110 0.80750 -0.53200
O 	O 	0.24543 0.06630 0.73240 -0.62200
O 	O 	0.31900 0.97075 0.66570 -0.15300
O 	O 	0.38204 0.89794 0.61390 -0.41000
O 	O 	0.32948 0.86606 0.48950 -0.46500
O 	O 	0.26587 0.16930 0.02050 -0.53200
O 	O 	0.19385 0.14845 0.96850 -0.58300
Y 	Y 	0.68331 0.60883 0.28534 2.38700
C 	C 	0.78172 0.54193 0.24110 0.44600
C 	C 	0.78100 0.49849 0.16680 -0.02900
C 	C 	0.74671 0.47965 0.09620 0.00200
H 	H 	0.71680 0.49210 0.08250 0.03600
C 	C 	0.76447 0.43754 0.04640 -0.07700
H 	H 	0.74860 0.41630 0.99290 0.08000
C 	C 	0.80770 0.43353 0.08930 0.05600
C 	C 	0.84231 0.39796 0.06470 0.25200
C 	C 	0.72298 0.67528 0.51620 0.44100
C 	C 	0.70273 0.71713 0.57410 -0.01900
C 	C 	0.65788 0.72890 0.59100 -0.02500
H 	H 	0.63160 0.71210 0.56270 0.05600
C 	C 	0.62195 0.50916 0.24940 0.04300
H 	H 	0.62300 0.51100 0.33970 0.02500
C 	C 	0.60050 0.47060 0.19320 -0.06400
H 	H 	0.58730 0.44720 0.24480 0.06300
C 	C 	0.59900 0.46740 0.06360 -0.04000
H 	H 	0.58470 0.44150 0.02440 0.04900
C 	C 	0.61836 0.50232 0.98860 0.01400
C 	C 	0.61725 0.50300 0.85130 -0.04600
H 	H 	0.60460 0.47730 0.80720 0.05900
C 	C 	0.63351 0.53867 0.78440 -0.06200
H 	H 	0.63100 0.53830 0.69420 0.07300
C 	C 	0.65437 0.57690 0.84500 0.02500
C 	C 	0.67012 0.61620 0.78010 -0.04700
H 	H 	0.66880 0.61750 0.68980 0.06300
C 	C 	0.68710 0.65220 0.84630 -0.06100
H 	H 	0.69690 0.67940 0.80330 0.06600
C 	C 	0.69025 0.64930 0.97890 0.04500
H 	H 	0.70310 0.67470 0.02360 0.02800
C 	C 	0.65721 0.57745 0.98060 0.01600
C 	C 	0.63882 0.53970 0.05280 0.01400
N 	N 	0.64050 0.54265 0.18260 -0.25900
N 	N 	0.67638 0.61335 0.04540 -0.25200
O 	O 	0.81645 0.55110 0.30750 -0.53100
O 	O 	0.74543 0.56630 0.23240 -0.62200
O 	O 	0.81900 0.47075 0.16570 -0.15300
O 	O 	0.88204 0.39794 0.11390 -0.41000
O 	O 	0.82948 0.36606 0.98950 -0.46100
O 	O 	0.76587 0.66930 0.52050 -0.53300
O 	O 	0.69385 0.64845 0.46850 -0.58100
Y 	Y 	0.81669 0.89117 0.78534 2.38700
C 	C 	0.71828 0.95807 0.74110 0.44500
C 	C 	0.71900 0.00151 0.66680 -0.02800
C 	C 	0.75329 0.02035 0.59620 -0.00100
H 	H 	0.78320 0.00790 0.58250 0.03800
C 	C 	0.73553 0.06246 0.54640 -0.06900
H 	H 	0.75140 0.08370 0.49290 0.07500
C 	C 	0.69230 0.06647 0.58930 0.05200
C 	C 	0.65769 0.10204 0.56470 0.25900
C 	C 	0.77702 0.82472 0.01620 0.44200
C 	C 	0.79727 0.78287 0.07410 -0.02000
C 	C 	0.84212 0.77110 0.09100 -0.02400
H 	H 	0.86840 0.78790 0.06270 0.05600
C 	C 	0.87805 0.99084 0.74940 0.04400
H 	H 	0.87700 0.98900 0.83970 0.02500
C 	C 	0.89950 0.02940 0.69320 -0.06600
H 	H 	0.91270 0.05280 0.74480 0.06300
C 	C 	0.90100 0.03260 0.56360 -0.03800
H 	H 	0.91530 0.05850 0.52440 0.04800
C 	C 	0.88164 0.99768 0.48860 0.01000
C 	C 	0.88275 0.99700 0.35130 -0.04400
H 	H 	0.89540 0.02270 0.30720 0.05800
C 	C 	0.86649 0.96133 0.28440 -0.06400
H 	H 	0.86900 0.96170 0.19420 0.07400
C 	C 	0.84563 0.92310 0.34500 0.02700
C 	C 	0.82988 0.88380 0.28010 -0.04900
H 	H 	0.83120 0.88250 0.18980 0.06300
C 	C 	0.81290 0.84780 0.34630 -0.06000
H 	H 	0.80310 0.82060 0.30330 0.06600
C 	C 	0.80975 0.85070 0.47890 0.04400
H 	H 	0.79690 0.82530 0.52360 0.02900
C 	C 	0.84279 0.92255 0.48060 0.01400
C 	C 	0.86118 0.96030 0.55280 0.01700
N 	N 	0.85950 0.95735 0.68260 -0.25900
N 	N 	0.82362 0.88665 0.54540 -0.25100
O 	O 	0.68355 0.94890 0.80750 -0.53200
O 	O 	0.75457 0.93370 0.73240 -0.62200
O 	O 	0.68100 0.02925 0.66570 -0.15300
O 	O 	0.61796 0.10206 0.61390 -0.41000
O 	O 	0.67052 0.13394 0.48950 -0.46500
O 	O 	0.73413 0.83070 0.02050 -0.53200
O 	O 	0.80615 0.85155 0.96850 -0.58300
Y 	Y 	0.31669 0.39117 0.28534 2.38700
C 	C 	0.21828 0.45807 0.24110 0.44600
C 	C 	0.21900 0.50151 0.16680 -0.02900
C 	C 	0.25329 0.52035 0.09620 0.00200
H 	H 	0.28320 0.50790 0.08250 0.03600
C 	C 	0.23553 0.56246 0.04640 -0.07700
H 	H 	0.25140 0.58370 0.99290 0.08000
C 	C 	0.19230 0.56647 0.08930 0.05600
C 	C 	0.15769 0.60204 0.06470 0.25200
C 	C 	0.27702 0.32472 0.51620 0.44100
C 	C 	0.29727 0.28287 0.57410 -0.01900
C 	C 	0.34212 0.27110 0.59100 -0.02500
H 	H 	0.36840 0.28790 0.56270 0.05600
C 	C 	0.37805 0.49084 0.24940 0.04300
H 	H 	0.37700 0.48900 0.33970 0.02500
C 	C 	0.39950 0.52940 0.19320 -0.06400
H 	H 	0.41270 0.55280 0.24480 0.06300
C 	C 	0.40100 0.53260 0.06360 -0.04000
H 	H 	0.41530 0.55850 0.02440 0.04900
C 	C 	0.38164 0.49768 0.98860 0.01400
C 	C 	0.38275 0.49700 0.85130 -0.04600
H 	H 	0.39540 0.52270 0.80720 0.05900
C 	C 	0.36649 0.46133 0.78440 -0.06200
H 	H 	0.36900 0.46170 0.69420 0.07300
C 	C 	0.34563 0.42310 0.84500 0.02500
C 	C 	0.32988 0.38380 0.78010 -0.04700
H 	H 	0.33120 0.38250 0.68980 0.06300
C 	C 	0.31290 0.34780 0.84630 -0.06100
H 	H 	0.30310 0.32060 0.80330 0.06600
C 	C 	0.30975 0.35070 0.97890 0.04500
H 	H 	0.29690 0.32530 0.02360 0.02800
C 	C 	0.34279 0.42255 0.98060 0.01600
C 	C 	0.36118 0.46030 0.05280 0.01400
N 	N 	0.35950 0.45735 0.18260 -0.25900
N 	N 	0.32362 0.38665 0.04540 -0.25200
O 	O 	0.18355 0.44890 0.30750 -0.53100
O 	O 	0.25457 0.43370 0.23240 -0.62200
O 	O 	0.18100 0.52925 0.16570 -0.15300
O 	O 	0.11796 0.60206 0.11390 -0.41000
O 	O 	0.17052 0.63394 0.98950 -0.46100
O 	O 	0.23413 0.33070 0.52050 -0.53300
O 	O 	0.30615 0.35155 0.46850 -0.58100
Y 	Y 	0.60883 0.18331 0.53534 2.38700
C 	C 	0.54193 0.28172 0.49110 0.44500
C 	C 	0.49849 0.28100 0.41680 -0.02800
C 	C 	0.47965 0.24671 0.34620 -0.00100
H 	H 	0.49210 0.21680 0.33250 0.03800
C 	C 	0.43754 0.26447 0.29640 -0.06800
H 	H 	0.41630 0.24860 0.24290 0.07600
C 	C 	0.43353 0.30770 0.33930 0.05300
C 	C 	0.39796 0.34231 0.31470 0.25900
C 	C 	0.67528 0.22298 0.76620 0.44100
C 	C 	0.71713 0.20273 0.82410 -0.01900
C 	C 	0.72890 0.15788 0.84100 -0.02500
H 	H 	0.71210 0.13160 0.81270 0.05600
C 	C 	0.50916 0.12195 0.49940 0.04300
H 	H 	0.51100 0.12300 0.58970 0.02500
C 	C 	0.47060 0.10050 0.44320 -0.06300
H 	H 	0.44720 0.08730 0.49480 0.06200
C 	C 	0.46740 0.09900 0.31360 -0.04100
H 	H 	0.44150 0.08470 0.27440 0.04900
C 	C 	0.50232 0.11836 0.23860 0.01600
C 	C 	0.50300 0.11725 0.10130 -0.05500
H 	H 	0.47730 0.10460 0.05720 0.06300
C 	C 	0.53867 0.13351 0.03440 -0.04500
H 	H 	0.53830 0.13100 0.94420 0.06400
C 	C 	0.57690 0.15437 0.09500 0.01600
C 	C 	0.61620 0.17012 0.03010 -0.03400
H 	H 	0.61750 0.16880 0.93980 0.05600
C 	C 	0.65220 0.18710 0.09630 -0.06900
H 	H 	0.67940 0.19690 0.05330 0.06900
C 	C 	0.64930 0.19025 0.22890 0.04800
H 	H 	0.67470 0.20310 0.27360 0.02700
C 	C 	0.57745 0.15721 0.23060 0.01900
C 	C 	0.53970 0.13882 0.30280 0.01400
N 	N 	0.54265 0.14050 0.43260 -0.25800
N 	N 	0.61335 0.17638 0.29540 -0.25300
O 	O 	0.55110 0.31645 0.55750 -0.53100
O 	O 	0.56630 0.24543 0.48240 -0.62200
O 	O 	0.47075 0.31900 0.41570 -0.15200
O 	O 	0.39794 0.38204 0.36390 -0.41000
O 	O 	0.36606 0.32948 0.23950 -0.46500
O 	O 	0.66930 0.26587 0.77050 -0.53300
O 	O 	0.64845 0.19385 0.71850 -0.58100
Y 	Y 	0.10883 0.68331 0.03534 2.38600
C 	C 	0.04193 0.78172 0.99110 0.44800
C 	C 	0.99849 0.78100 0.91680 -0.02800
C 	C 	0.97965 0.74671 0.84620 -0.00100
H 	H 	0.99210 0.71680 0.83250 0.03800
C 	C 	0.93754 0.76447 0.79640 -0.06900
H 	H 	0.91630 0.74860 0.74290 0.07600
C 	C 	0.93353 0.80770 0.83930 0.05300
C 	C 	0.89796 0.84231 0.81470 0.25900
C 	C 	0.17528 0.72298 0.26620 0.44100
C 	C 	0.21713 0.70273 0.32410 -0.01900
C 	C 	0.22890 0.65788 0.34100 -0.02500
H 	H 	0.21210 0.63160 0.31270 0.05600
C 	C 	0.00916 0.62195 0.99940 0.05600
H 	H 	0.01100 0.62300 0.08970 0.01800
C 	C 	0.97060 0.60050 0.94320 -0.07200
H 	H 	0.94720 0.58730 0.99480 0.06700
C 	C 	0.96740 0.59900 0.81360 -0.03300
H 	H 	0.94150 0.58470 0.77440 0.04700
C 	C 	0.00232 0.61836 0.73860 0.00800
C 	C 	0.00300 0.61725 0.60130 -0.04300
H 	H 	0.97730 0.60460 0.55720 0.05800
C 	C 	0.03867 0.63351 0.53440 -0.06400
H 	H 	0.03830 0.63100 0.44420 0.07400
C 	C 	0.07690 0.65437 0.59500 0.02700
C 	C 	0.11620 0.67012 0.53010 -0.04900
H 	H 	0.11750 0.66880 0.43980 0.06300
C 	C 	0.15220 0.68710 0.59630 -0.06000
H 	H 	0.17940 0.69690 0.55330 0.06600
C 	C 	0.14930 0.69025 0.72890 0.04400
H 	H 	0.17470 0.70310 0.77360 0.02900
C 	C 	0.07745 0.65721 0.73060 0.01400
C 	C 	0.03970 0.63882 0.80280 0.01800
N 	N 	0.04265 0.64050 0.93260 -0.26100
N 	N 	0.11335 0.67638 0.79540 -0.25100
O 	O 	0.05110 0.81645 0.05750 -0.53300
O 	O 	0.06630 0.74543 0.98240 -0.62100
O 	O 	0.97075 0.81900 0.91570 -0.15200
O 	O 	0.89794 0.88204 0.86390 -0.41000
O 	O 	0.86606 0.82948 0.73950 -0.46500
O 	O 	0.16930 0.76587 0.27050 -0.53300
O 	O 	0.14845 0.69385 0.21850 -0.58200
Y 	Y 	0.39117 0.81669 0.53534 2.38700
C 	C 	0.45807 0.71828 0.49110 0.44500
C 	C 	0.50151 0.71900 0.41680 -0.02800
C 	C 	0.52035 0.75329 0.34620 -0.00100
H 	H 	0.50790 0.78320 0.33250 0.03800
C 	C 	0.56246 0.73553 0.29640 -0.06800
H 	H 	0.58370 0.75140 0.24290 0.07600
C 	C 	0.56647 0.69230 0.33930 0.05300
C 	C 	0.60204 0.65769 0.31470 0.25900
C 	C 	0.32472 0.77702 0.76620 0.44100
C 	C 	0.28287 0.79727 0.82410 -0.01900
C 	C 	0.27110 0.84212 0.84100 -0.02500
H 	H 	0.28790 0.86840 0.81270 0.05600
C 	C 	0.49084 0.87805 0.49940 0.04300
H 	H 	0.48900 0.87700 0.58970 0.02500
C 	C 	0.52940 0.89950 0.44320 -0.06300
H 	H 	0.55280 0.91270 0.49480 0.06200
C 	C 	0.53260 0.90100 0.31360 -0.04100
H 	H 	0.55850 0.91530 0.27440 0.04900
C 	C 	0.49768 0.88164 0.23860 0.01600
C 	C 	0.49700 0.88275 0.10130 -0.05500
H 	H 	0.52270 0.89540 0.05720 0.06300
C 	C 	0.46133 0.86649 0.03440 -0.04500
H 	H 	0.46170 0.86900 0.94420 0.06400
C 	C 	0.42310 0.84563 0.09500 0.01600
C 	C 	0.38380 0.82988 0.03010 -0.03400
H 	H 	0.38250 0.83120 0.93980 0.05600
C 	C 	0.34780 0.81290 0.09630 -0.06900
H 	H 	0.32060 0.80310 0.05330 0.06900
C 	C 	0.35070 0.80975 0.22890 0.04800
H 	H 	0.32530 0.79690 0.27360 0.02700
C 	C 	0.42255 0.84279 0.23060 0.01900
C 	C 	0.46030 0.86118 0.30280 0.01400
N 	N 	0.45735 0.85950 0.43260 -0.25800
N 	N 	0.38665 0.82362 0.29540 -0.25300
O 	O 	0.44890 0.68355 0.55750 -0.53100
O 	O 	0.43370 0.75457 0.48240 -0.62200
O 	O 	0.52925 0.68100 0.41570 -0.15200
O 	O 	0.60206 0.61796 0.36390 -0.41000
O 	O 	0.63394 0.67052 0.23950 -0.46500
O 	O 	0.33070 0.73413 0.77050 -0.53300
O 	O 	0.35155 0.80615 0.71850 -0.58100
Y 	Y 	0.89117 0.31669 0.03534 2.38600
C 	C 	0.95807 0.21828 0.99110 0.44800
C 	C 	0.00151 0.21900 0.91680 -0.02800
C 	C 	0.02035 0.25329 0.84620 -0.00100
H 	H 	0.00790 0.28320 0.83250 0.03800
C 	C 	0.06246 0.23553 0.79640 -0.06900
H 	H 	0.08370 0.25140 0.74290 0.07600
C 	C 	0.06647 0.19230 0.83930 0.05300
C 	C 	0.10204 0.15769 0.81470 0.25900
C 	C 	0.82472 0.27702 0.26620 0.44100
C 	C 	0.78287 0.29727 0.32410 -0.01900
C 	C 	0.77110 0.34212 0.34100 -0.02500
H 	H 	0.78790 0.36840 0.31270 0.05600
C 	C 	0.99084 0.37805 0.99940 0.05600
H 	H 	0.98900 0.37700 0.08970 0.01800
C 	C 	0.02940 0.39950 0.94320 -0.07200
H 	H 	0.05280 0.41270 0.99480 0.06700
C 	C 	0.03260 0.40100 0.81360 -0.03300
H 	H 	0.05850 0.41530 0.77440 0.04700
C 	C 	0.99768 0.38164 0.73860 0.00800
C 	C 	0.99700 0.38275 0.60130 -0.04300
H 	H 	0.02270 0.39540 0.55720 0.05800
C 	C 	0.96133 0.36649 0.53440 -0.06400
H 	H 	0.96170 0.36900 0.44420 0.07400
C 	C 	0.92310 0.34563 0.59500 0.02700
C 	C 	0.88380 0.32988 0.53010 -0.04900
H 	H 	0.88250 0.33120 0.43980 0.06300
C 	C 	0.84780 0.31290 0.59630 -0.06000
H 	H 	0.82060 0.30310 0.55330 0.06600
C 	C 	0.85070 0.30975 0.72890 0.04400
H 	H 	0.82530 0.29690 0.77360 0.02900
C 	C 	0.92255 0.34279 0.73060 0.01400
C 	C 	0.96030 0.36118 0.80280 0.01800
N 	N 	0.95735 0.35950 0.93260 -0.26100
N 	N 	0.88665 0.32362 0.79540 -0.25100
O 	O 	0.94890 0.18355 0.05750 -0.53300
O 	O 	0.93370 0.25457 0.98240 -0.62100
O 	O 	0.02925 0.18100 0.91570 -0.15200
O 	O 	0.10206 0.11796 0.86390 -0.41000
O 	O 	0.13394 0.17052 0.73950 -0.46500
O 	O 	0.83070 0.23413 0.27050 -0.53300
O 	O 	0.85155 0.30615 0.21850 -0.58200
Y 	Y 	0.31669 0.10883 0.96466 2.38600
C 	C 	0.21828 0.04193 0.00890 0.44800
C 	C 	0.21900 0.99849 0.08320 -0.02800
C 	C 	0.25329 0.97965 0.15380 -0.00100
H 	H 	0.28320 0.99210 0.16750 0.03800
C 	C 	0.23553 0.93754 0.20360 -0.06900
H 	H 	0.25140 0.91630 0.25710 0.07600
C 	C 	0.19230 0.93353 0.16070 0.05300
C 	C 	0.15769 0.89796 0.18530 0.25900
C 	C 	0.27702 0.17528 0.73380 0.44100
C 	C 	0.29727 0.21713 0.67590 -0.01900
C 	C 	0.34212 0.22890 0.65900 -0.02500
H 	H 	0.36840 0.21210 0.68730 0.05600
C 	C 	0.37805 0.00916 0.00060 0.05600
H 	H 	0.37700 0.01100 0.91030 0.01800
C 	C 	0.39950 0.97060 0.05680 -0.07200
H 	H 	0.41270 0.94720 0.00520 0.06700
C 	C 	0.40100 0.96740 0.18640 -0.03300
H 	H 	0.41530 0.94150 0.22560 0.04700
C 	C 	0.38164 0.00232 0.26140 0.00800
C 	C 	0.38275 0.00300 0.39870 -0.04300
H 	H 	0.39540 0.97730 0.44280 0.05800
C 	C 	0.36649 0.03867 0.46560 -0.06400
H 	H 	0.36900 0.03830 0.55580 0.07400
C 	C 	0.34563 0.07690 0.40500 0.02700
C 	C 	0.32988 0.11620 0.46990 -0.04900
H 	H 	0.33120 0.11750 0.56020 0.06300
C 	C 	0.31290 0.15220 0.40370 -0.06000
H 	H 	0.30310 0.17940 0.44670 0.06600
C 	C 	0.30975 0.14930 0.27110 0.04400
H 	H 	0.29690 0.17470 0.22640 0.02900
C 	C 	0.34279 0.07745 0.26940 0.01400
C 	C 	0.36118 0.03970 0.19720 0.01800
N 	N 	0.35950 0.04265 0.06740 -0.26100
N 	N 	0.32362 0.11335 0.20460 -0.25100
O 	O 	0.18355 0.05110 0.94250 -0.53300
O 	O 	0.25457 0.06630 0.01760 -0.62100
O 	O 	0.18100 0.97075 0.08430 -0.15200
O 	O 	0.11796 0.89794 0.13610 -0.41000
O 	O 	0.17052 0.86606 0.26050 -0.46500
O 	O 	0.23413 0.16930 0.72950 -0.53300
O 	O 	0.30615 0.14845 0.78150 -0.58200
Y 	Y 	0.81669 0.60883 0.46466 2.38700
C 	C 	0.71828 0.54193 0.50890 0.44500
C 	C 	0.71900 0.49849 0.58320 -0.02800
C 	C 	0.75329 0.47965 0.65380 -0.00100
H 	H 	0.78320 0.49210 0.66750 0.03800
C 	C 	0.73553 0.43754 0.70360 -0.06800
H 	H 	0.75140 0.41630 0.75710 0.07600
C 	C 	0.69230 0.43353 0.66070 0.05300
C 	C 	0.65769 0.39796 0.68530 0.25900
C 	C 	0.77702 0.67528 0.23380 0.44100
C 	C 	0.79727 0.71713 0.17590 -0.01900
C 	C 	0.84212 0.72890 0.15900 -0.02500
H 	H 	0.86840 0.71210 0.18730 0.05600
C 	C 	0.87805 0.50916 0.50060 0.04300
H 	H 	0.87700 0.51100 0.41030 0.02500
C 	C 	0.89950 0.47060 0.55680 -0.06300
H 	H 	0.91270 0.44720 0.50520 0.06200
C 	C 	0.90100 0.46740 0.68640 -0.04100
H 	H 	0.91530 0.44150 0.72560 0.04900
C 	C 	0.88164 0.50232 0.76140 0.01600
C 	C 	0.88275 0.50300 0.89870 -0.05500
H 	H 	0.89540 0.47730 0.94280 0.06300
C 	C 	0.86649 0.53867 0.96560 -0.04500
H 	H 	0.86900 0.53830 0.05580 0.06400
C 	C 	0.84563 0.57690 0.90500 0.01600
C 	C 	0.82988 0.61620 0.96990 -0.03400
H 	H 	0.83120 0.61750 0.06020 0.05600
C 	C 	0.81290 0.65220 0.90370 -0.06900
H 	H 	0.80310 0.67940 0.94670 0.06900
C 	C 	0.80975 0.64930 0.77110 0.04800
H 	H 	0.79690 0.67470 0.72640 0.02700
C 	C 	0.84279 0.57745 0.76940 0.01900
C 	C 	0.86118 0.53970 0.69720 0.01400
N 	N 	0.85950 0.54265 0.56740 -0.25800
N 	N 	0.82362 0.61335 0.70460 -0.25300
O 	O 	0.68355 0.55110 0.44250 -0.53100
O 	O 	0.75457 0.56630 0.51760 -0.62200
O 	O 	0.68100 0.47075 0.58430 -0.15200
O 	O 	0.61796 0.39794 0.63610 -0.41000
O 	O 	0.67052 0.36606 0.76050 -0.46500
O 	O 	0.73413 0.66930 0.22950 -0.53300
O 	O 	0.80615 0.64845 0.28150 -0.58100
Y 	Y 	0.68331 0.89117 0.96466 2.38600
C 	C 	0.78172 0.95807 0.00890 0.44800
C 	C 	0.78100 0.00151 0.08320 -0.02800
C 	C 	0.74671 0.02035 0.15380 -0.00100
H 	H 	0.71680 0.00790 0.16750 0.03800
C 	C 	0.76447 0.06246 0.20360 -0.06900
H 	H 	0.74860 0.08370 0.25710 0.07600
C 	C 	0.80770 0.06647 0.16070 0.05300
C 	C 	0.84231 0.10204 0.18530 0.25900
C 	C 	0.72298 0.82472 0.73380 0.44100
C 	C 	0.70273 0.78287 0.67590 -0.01900
C 	C 	0.65788 0.77110 0.65900 -0.02500
H 	H 	0.63160 0.78790 0.68730 0.05600
C 	C 	0.62195 0.99084 0.00060 0.05600
H 	H 	0.62300 0.98900 0.91030 0.01800
C 	C 	0.60050 0.02940 0.05680 -0.07200
H 	H 	0.58730 0.05280 0.00520 0.06700
C 	C 	0.59900 0.03260 0.18640 -0.03300
H 	H 	0.58470 0.05850 0.22560 0.04700
C 	C 	0.61836 0.99768 0.26140 0.00800
C 	C 	0.61725 0.99700 0.39870 -0.04300
H 	H 	0.60460 0.02270 0.44280 0.05800
C 	C 	0.63351 0.96133 0.46560 -0.06400
H 	H 	0.63100 0.96170 0.55580 0.07400
C 	C 	0.65437 0.92310 0.40500 0.02700
C 	C 	0.67012 0.88380 0.46990 -0.04900
H 	H 	0.66880 0.88250 0.56020 0.06300
C 	C 	0.68710 0.84780 0.40370 -0.06000
H 	H 	0.69690 0.82060 0.44670 0.06600
C 	C 	0.69025 0.85070 0.27110 0.04400
H 	H 	0.70310 0.82530 0.22640 0.02900
C 	C 	0.65721 0.92255 0.26940 0.01400
C 	C 	0.63882 0.96030 0.19720 0.01800
N 	N 	0.64050 0.95735 0.06740 -0.26100
N 	N 	0.67638 0.88665 0.20460 -0.25100
O 	O 	0.81645 0.94890 0.94250 -0.53300
O 	O 	0.74543 0.93370 0.01760 -0.62100
O 	O 	0.81900 0.02925 0.08430 -0.15200
O 	O 	0.88204 0.10206 0.13610 -0.41000
O 	O 	0.82948 0.13394 0.26050 -0.46500
O 	O 	0.76587 0.83070 0.72950 -0.53300
O 	O 	0.69385 0.85155 0.78150 -0.58200
Y 	Y 	0.18331 0.39117 0.46466 2.38700
C 	C 	0.28172 0.45807 0.50890 0.44500
C 	C 	0.28100 0.50151 0.58320 -0.02800
C 	C 	0.24671 0.52035 0.65380 -0.00100
H 	H 	0.21680 0.50790 0.66750 0.03800
C 	C 	0.26447 0.56246 0.70360 -0.06800
H 	H 	0.24860 0.58370 0.75710 0.07600
C 	C 	0.30770 0.56647 0.66070 0.05300
C 	C 	0.34231 0.60204 0.68530 0.25900
C 	C 	0.22298 0.32472 0.23380 0.44100
C 	C 	0.20273 0.28287 0.17590 -0.01900
C 	C 	0.15788 0.27110 0.15900 -0.02500
H 	H 	0.13160 0.28790 0.18730 0.05600
C 	C 	0.12195 0.49084 0.50060 0.04300
H 	H 	0.12300 0.48900 0.41030 0.02500
C 	C 	0.10050 0.52940 0.55680 -0.06300
H 	H 	0.08730 0.55280 0.50520 0.06200
C 	C 	0.09900 0.53260 0.68640 -0.04100
H 	H 	0.08470 0.55850 0.72560 0.04900
C 	C 	0.11836 0.49768 0.76140 0.01600
C 	C 	0.11725 0.49700 0.89870 -0.05500
H 	H 	0.10460 0.52270 0.94280 0.06300
C 	C 	0.13351 0.46133 0.96560 -0.04500
H 	H 	0.13100 0.46170 0.05580 0.06400
C 	C 	0.15437 0.42310 0.90500 0.01600
C 	C 	0.17012 0.38380 0.96990 -0.03400
H 	H 	0.16880 0.38250 0.06020 0.05600
C 	C 	0.18710 0.34780 0.90370 -0.06900
H 	H 	0.19690 0.32060 0.94670 0.06900
C 	C 	0.19025 0.35070 0.77110 0.04800
H 	H 	0.20310 0.32530 0.72640 0.02700
C 	C 	0.15721 0.42255 0.76940 0.01900
C 	C 	0.13882 0.46030 0.69720 0.01400
N 	N 	0.14050 0.45735 0.56740 -0.25800
N 	N 	0.17638 0.38665 0.70460 -0.25300
O 	O 	0.31645 0.44890 0.44250 -0.53100
O 	O 	0.24543 0.43370 0.51760 -0.62200
O 	O 	0.31900 0.52925 0.58430 -0.15200
O 	O 	0.38204 0.60206 0.63610 -0.41000
O 	O 	0.32948 0.63394 0.76050 -0.46500
O 	O 	0.26587 0.33070 0.22950 -0.53300
O 	O 	0.19385 0.35155 0.28150 -0.58100
O 	O 	0.75000 0.23124 0.87500 -0.13700
O 	O 	0.25000 0.73124 0.37500 -0.13700
O 	O 	0.25000 0.76876 0.87500 -0.13700
O 	O 	0.75000 0.26876 0.37500 -0.13700
O 	O 	0.23124 0.25000 0.12500 -0.13700
O 	O 	0.76876 0.75000 0.12500 -0.13700
O 	O 	0.26876 0.25000 0.62500 -0.13700
O 	O 	0.73124 0.75000 0.62500 -0.13700
