data_crystal

_cell_length_a 28.93410
_cell_length_b 28.93410
_cell_length_c 10.51230
_cell_angle_alpha 90.00000
_cell_angle_beta  90.00000
_cell_angle_gamma 90.00000

_symmetry_space_group_name_	'P 1'
_symmetry_space_group_name_H-M	'P 1'

loop_
_symmetry_equiv_pos_as_xyz
  x,y,z

loop_
_atom_site_label
_atom_site_type_symbol
_atom_site_fract_x
_atom_site_fract_y
_atom_site_fract_z
_atom_site_charge
Y 	Y 	0.39105 0.81662 0.03552 2.38700
C 	C 	0.45812 0.71834 0.99060 0.45300
C 	C 	0.50107 0.71897 0.91690 -0.03600
C 	C 	0.52027 0.75293 0.84670 0.00800
H 	H 	0.50780 0.78290 0.83280 0.03600
C 	C 	0.56244 0.73560 0.79730 -0.07400
H 	H 	0.58390 0.75160 0.74490 0.07800
C 	C 	0.56599 0.69185 0.83960 0.05600
C 	C 	0.60234 0.65717 0.81470 0.26500
C 	C 	0.32472 0.72327 0.98400 0.44000
C 	C 	0.28261 0.70281 0.92730 -0.01800
C 	C 	0.27097 0.65788 0.90930 -0.02500
H 	H 	0.28770 0.63160 0.93740 0.05600
C 	C 	0.49061 0.87816 0.99950 0.05700
H 	H 	0.48850 0.87750 0.08960 0.01700
C 	C 	0.52909 0.89920 0.94380 -0.07200
H 	H 	0.55280 0.91220 0.99510 0.06700
C 	C 	0.53202 0.90080 0.81280 -0.03400
H 	H 	0.55780 0.91510 0.77320 0.04700
C 	C 	0.49743 0.88143 0.73910 0.00900
C 	C 	0.49700 0.88319 0.60200 -0.04300
H 	H 	0.52250 0.89650 0.55840 0.05700
C 	C 	0.46152 0.86648 0.53530 -0.06500
H 	H 	0.46210 0.86820 0.44500 0.07400
C 	C 	0.42326 0.84638 0.59640 0.02600
C 	C 	0.38370 0.83001 0.53150 -0.05000
H 	H 	0.38280 0.83100 0.44120 0.06400
C 	C 	0.34700 0.81290 0.59650 -0.05600
H 	H 	0.31990 0.80300 0.55310 0.06500
C 	C 	0.34996 0.81023 0.72950 0.03800
H 	H 	0.32440 0.79790 0.77490 0.03200
C 	C 	0.42248 0.84281 0.73130 0.01600
C 	C 	0.46014 0.86118 0.80320 0.01800
N 	N 	0.45734 0.85927 0.93250 -0.26100
N 	N 	0.38672 0.82399 0.79560 -0.24900
O 	O 	0.44873 0.68365 0.05730 -0.53300
O 	O 	0.43368 0.75465 0.98230 -0.62200
O 	O 	0.52914 0.68075 0.91620 -0.15100
O 	O 	0.60206 0.61794 0.86510 -0.41100
O 	O 	0.63376 0.67031 0.74020 -0.47100
O 	O 	0.33082 0.76610 0.97890 -0.53500
O 	O 	0.35143 0.69380 0.03230 -0.58300
Y 	Y 	0.89105 0.31662 0.53552 2.38700
C 	C 	0.95812 0.21834 0.49060 0.45000
C 	C 	0.00107 0.21897 0.41690 -0.03700
C 	C 	0.02027 0.25293 0.34670 0.00700
H 	H 	0.00780 0.28290 0.33280 0.03600
C 	C 	0.06244 0.23560 0.29730 -0.07300
H 	H 	0.08390 0.25160 0.24490 0.07800
C 	C 	0.06599 0.19185 0.33960 0.05600
C 	C 	0.10234 0.15717 0.31470 0.26400
C 	C 	0.82472 0.22327 0.48400 0.43800
C 	C 	0.78261 0.20281 0.42730 -0.01700
C 	C 	0.77097 0.15788 0.40930 -0.02600
H 	H 	0.78770 0.13160 0.43740 0.05700
C 	C 	0.99061 0.37816 0.49950 0.04300
H 	H 	0.98850 0.37750 0.58960 0.02500
C 	C 	0.02909 0.39920 0.44380 -0.06300
H 	H 	0.05280 0.41220 0.49510 0.06200
C 	C 	0.03202 0.40080 0.31280 -0.04200
H 	H 	0.05780 0.41510 0.27320 0.05000
C 	C 	0.99743 0.38143 0.23910 0.01700
C 	C 	0.99700 0.38319 0.10200 -0.05500
H 	H 	0.02250 0.39650 0.05840 0.06300
C 	C 	0.96152 0.36648 0.03530 -0.04500
H 	H 	0.96210 0.36820 0.94500 0.06500
C 	C 	0.92326 0.34638 0.09640 0.01500
C 	C 	0.88370 0.33001 0.03150 -0.03500
H 	H 	0.88280 0.33100 0.94120 0.05700
C 	C 	0.84700 0.31290 0.09650 -0.06500
H 	H 	0.81990 0.30300 0.05310 0.06800
C 	C 	0.84996 0.31023 0.22950 0.04200
H 	H 	0.82440 0.29790 0.27490 0.03000
C 	C 	0.92248 0.34281 0.23130 0.02100
C 	C 	0.96014 0.36118 0.30320 0.01400
N 	N 	0.95734 0.35927 0.43250 -0.25800
N 	N 	0.88672 0.32399 0.29560 -0.25100
O 	O 	0.94873 0.18365 0.55730 -0.53100
O 	O 	0.93368 0.25465 0.48230 -0.62300
O 	O 	0.02914 0.18075 0.41620 -0.15100
O 	O 	0.10206 0.11794 0.36510 -0.41200
O 	O 	0.13376 0.17031 0.24020 -0.47100
O 	O 	0.83082 0.26610 0.47890 -0.53500
O 	O 	0.85143 0.19380 0.53230 -0.58100
Y 	Y 	0.60895 0.18338 0.03552 2.38600
C 	C 	0.54188 0.28166 0.99060 0.45200
C 	C 	0.49893 0.28103 0.91690 -0.03700
C 	C 	0.47973 0.24707 0.84670 0.00700
H 	H 	0.49220 0.21710 0.83280 0.03600
C 	C 	0.43756 0.26440 0.79730 -0.07400
H 	H 	0.41610 0.24840 0.74490 0.07800
C 	C 	0.43401 0.30815 0.83960 0.05600
C 	C 	0.39766 0.34283 0.81470 0.26500
C 	C 	0.67528 0.27673 0.98400 0.44000
C 	C 	0.71739 0.29719 0.92730 -0.01800
C 	C 	0.72903 0.34212 0.90930 -0.02500
H 	H 	0.71230 0.36840 0.93740 0.05600
C 	C 	0.50939 0.12184 0.99950 0.05700
H 	H 	0.51150 0.12250 0.08960 0.01700
C 	C 	0.47091 0.10080 0.94380 -0.07200
H 	H 	0.44720 0.08780 0.99510 0.06700
C 	C 	0.46798 0.09920 0.81280 -0.03400
H 	H 	0.44220 0.08490 0.77320 0.04700
C 	C 	0.50257 0.11857 0.73910 0.00900
C 	C 	0.50300 0.11681 0.60200 -0.04300
H 	H 	0.47750 0.10350 0.55840 0.05700
C 	C 	0.53848 0.13352 0.53530 -0.06500
H 	H 	0.53790 0.13180 0.44500 0.07400
C 	C 	0.57674 0.15362 0.59640 0.02600
C 	C 	0.61630 0.16999 0.53150 -0.05000
H 	H 	0.61720 0.16900 0.44120 0.06400
C 	C 	0.65300 0.18710 0.59650 -0.05600
H 	H 	0.68010 0.19700 0.55310 0.06500
C 	C 	0.65004 0.18977 0.72950 0.03800
H 	H 	0.67560 0.20210 0.77490 0.03200
C 	C 	0.57752 0.15719 0.73130 0.01600
C 	C 	0.53986 0.13882 0.80320 0.01800
N 	N 	0.54266 0.14073 0.93250 -0.26100
N 	N 	0.61328 0.17601 0.79560 -0.24900
O 	O 	0.55127 0.31635 0.05730 -0.53300
O 	O 	0.56632 0.24535 0.98230 -0.62200
O 	O 	0.47086 0.31925 0.91620 -0.15100
O 	O 	0.39794 0.38206 0.86510 -0.41100
O 	O 	0.36624 0.32969 0.74020 -0.47100
O 	O 	0.66918 0.23390 0.97890 -0.53500
O 	O 	0.64857 0.30620 0.03230 -0.58300
Y 	Y 	0.10895 0.68338 0.53552 2.38700
C 	C 	0.04188 0.78166 0.49060 0.45000
C 	C 	0.99893 0.78103 0.41690 -0.03700
C 	C 	0.97973 0.74707 0.34670 0.00700
H 	H 	0.99220 0.71710 0.33280 0.03600
C 	C 	0.93756 0.76440 0.29730 -0.07300
H 	H 	0.91610 0.74840 0.24490 0.07800
C 	C 	0.93401 0.80815 0.33960 0.05600
C 	C 	0.89766 0.84283 0.31470 0.26400
C 	C 	0.17528 0.77673 0.48400 0.43800
C 	C 	0.21739 0.79719 0.42730 -0.01700
C 	C 	0.22903 0.84212 0.40930 -0.02600
H 	H 	0.21230 0.86840 0.43740 0.05700
C 	C 	0.00939 0.62184 0.49950 0.04300
H 	H 	0.01150 0.62250 0.58960 0.02500
C 	C 	0.97091 0.60080 0.44380 -0.06300
H 	H 	0.94720 0.58780 0.49510 0.06200
C 	C 	0.96798 0.59920 0.31280 -0.04200
H 	H 	0.94220 0.58490 0.27320 0.05000
C 	C 	0.00257 0.61857 0.23910 0.01700
C 	C 	0.00300 0.61681 0.10200 -0.05500
H 	H 	0.97750 0.60350 0.05840 0.06300
C 	C 	0.03848 0.63352 0.03530 -0.04500
H 	H 	0.03790 0.63180 0.94500 0.06500
C 	C 	0.07674 0.65362 0.09640 0.01500
C 	C 	0.11630 0.66999 0.03150 -0.03500
H 	H 	0.11720 0.66900 0.94120 0.05700
C 	C 	0.15300 0.68710 0.09650 -0.06500
H 	H 	0.18010 0.69700 0.05310 0.06800
C 	C 	0.15004 0.68977 0.22950 0.04200
H 	H 	0.17560 0.70210 0.27490 0.03000
C 	C 	0.07752 0.65719 0.23130 0.02100
C 	C 	0.03986 0.63882 0.30320 0.01400
N 	N 	0.04266 0.64073 0.43250 -0.25800
N 	N 	0.11328 0.67601 0.29560 -0.25100
O 	O 	0.05127 0.81635 0.55730 -0.53100
O 	O 	0.06632 0.74535 0.48230 -0.62300
O 	O 	0.97086 0.81925 0.41620 -0.15100
O 	O 	0.89794 0.88206 0.36510 -0.41200
O 	O 	0.86624 0.82969 0.24020 -0.47100
O 	O 	0.16918 0.73390 0.47890 -0.53500
O 	O 	0.14857 0.80620 0.53230 -0.58100
Y 	Y 	0.81662 0.60895 0.96448 2.38600
C 	C 	0.71834 0.54188 0.00940 0.45200
C 	C 	0.71897 0.49893 0.08310 -0.03700
C 	C 	0.75293 0.47973 0.15330 0.00700
H 	H 	0.78290 0.49220 0.16720 0.03600
C 	C 	0.73560 0.43756 0.20270 -0.07400
H 	H 	0.75160 0.41610 0.25510 0.07800
C 	C 	0.69185 0.43401 0.16040 0.05600
C 	C 	0.65717 0.39766 0.18530 0.26500
C 	C 	0.72327 0.67528 0.01600 0.44000
C 	C 	0.70281 0.71739 0.07270 -0.01800
C 	C 	0.65788 0.72903 0.09070 -0.02500
H 	H 	0.63160 0.71230 0.06260 0.05600
C 	C 	0.87816 0.50939 0.00050 0.05700
H 	H 	0.87750 0.51150 0.91040 0.01700
C 	C 	0.89920 0.47091 0.05620 -0.07200
H 	H 	0.91220 0.44720 0.00490 0.06700
C 	C 	0.90080 0.46798 0.18720 -0.03400
H 	H 	0.91510 0.44220 0.22680 0.04700
C 	C 	0.88143 0.50257 0.26090 0.00900
C 	C 	0.88319 0.50300 0.39800 -0.04300
H 	H 	0.89650 0.47750 0.44160 0.05700
C 	C 	0.86648 0.53848 0.46470 -0.06500
H 	H 	0.86820 0.53790 0.55500 0.07400
C 	C 	0.84638 0.57674 0.40360 0.02600
C 	C 	0.83001 0.61630 0.46850 -0.05000
H 	H 	0.83100 0.61720 0.55880 0.06400
C 	C 	0.81290 0.65300 0.40350 -0.05600
H 	H 	0.80300 0.68010 0.44690 0.06500
C 	C 	0.81023 0.65004 0.27050 0.03800
H 	H 	0.79790 0.67560 0.22510 0.03200
C 	C 	0.84281 0.57752 0.26870 0.01600
C 	C 	0.86118 0.53986 0.19680 0.01800
N 	N 	0.85927 0.54266 0.06750 -0.26100
N 	N 	0.82399 0.61328 0.20440 -0.24900
O 	O 	0.68365 0.55127 0.94270 -0.53300
O 	O 	0.75465 0.56632 0.01770 -0.62200
O 	O 	0.68075 0.47086 0.08380 -0.15100
O 	O 	0.61794 0.39794 0.13490 -0.41100
O 	O 	0.67031 0.36624 0.25980 -0.47100
O 	O 	0.76610 0.66918 0.02110 -0.53500
O 	O 	0.69380 0.64857 0.96770 -0.58300
Y 	Y 	0.31662 0.10895 0.46448 2.38700
C 	C 	0.21834 0.04188 0.50940 0.45000
C 	C 	0.21897 0.99893 0.58310 -0.03700
C 	C 	0.25293 0.97973 0.65330 0.00700
H 	H 	0.28290 0.99220 0.66720 0.03600
C 	C 	0.23560 0.93756 0.70270 -0.07300
H 	H 	0.25160 0.91610 0.75510 0.07800
C 	C 	0.19185 0.93401 0.66040 0.05600
C 	C 	0.15717 0.89766 0.68530 0.26400
C 	C 	0.22327 0.17528 0.51600 0.43800
C 	C 	0.20281 0.21739 0.57270 -0.01700
C 	C 	0.15788 0.22903 0.59070 -0.02600
H 	H 	0.13160 0.21230 0.56260 0.05700
C 	C 	0.37816 0.00939 0.50050 0.04300
H 	H 	0.37750 0.01150 0.41040 0.02500
C 	C 	0.39920 0.97091 0.55620 -0.06300
H 	H 	0.41220 0.94720 0.50490 0.06200
C 	C 	0.40080 0.96798 0.68720 -0.04200
H 	H 	0.41510 0.94220 0.72680 0.05000
C 	C 	0.38143 0.00257 0.76090 0.01700
C 	C 	0.38319 0.00300 0.89800 -0.05500
H 	H 	0.39650 0.97750 0.94160 0.06300
C 	C 	0.36648 0.03848 0.96470 -0.04500
H 	H 	0.36820 0.03790 0.05500 0.06500
C 	C 	0.34638 0.07674 0.90360 0.01500
C 	C 	0.33001 0.11630 0.96850 -0.03500
H 	H 	0.33100 0.11720 0.05880 0.05700
C 	C 	0.31290 0.15300 0.90350 -0.06500
H 	H 	0.30300 0.18010 0.94690 0.06800
C 	C 	0.31023 0.15004 0.77050 0.04200
H 	H 	0.29790 0.17560 0.72510 0.03000
C 	C 	0.34281 0.07752 0.76870 0.02100
C 	C 	0.36118 0.03986 0.69680 0.01400
N 	N 	0.35927 0.04266 0.56750 -0.25800
N 	N 	0.32399 0.11328 0.70440 -0.25100
O 	O 	0.18365 0.05127 0.44270 -0.53100
O 	O 	0.25465 0.06632 0.51770 -0.62300
O 	O 	0.18075 0.97086 0.58380 -0.15100
O 	O 	0.11794 0.89794 0.63490 -0.41200
O 	O 	0.17031 0.86624 0.75980 -0.47100
O 	O 	0.26610 0.16918 0.52110 -0.53500
O 	O 	0.19380 0.14857 0.46770 -0.58100
Y 	Y 	0.18338 0.39105 0.96448 2.38600
C 	C 	0.28166 0.45812 0.00940 0.45200
C 	C 	0.28103 0.50107 0.08310 -0.03700
C 	C 	0.24707 0.52027 0.15330 0.00700
H 	H 	0.21710 0.50780 0.16720 0.03600
C 	C 	0.26440 0.56244 0.20270 -0.07400
H 	H 	0.24840 0.58390 0.25510 0.07800
C 	C 	0.30815 0.56599 0.16040 0.05600
C 	C 	0.34283 0.60234 0.18530 0.26500
C 	C 	0.27673 0.32472 0.01600 0.44000
C 	C 	0.29719 0.28261 0.07270 -0.01800
C 	C 	0.34212 0.27097 0.09070 -0.02500
H 	H 	0.36840 0.28770 0.06260 0.05600
C 	C 	0.12184 0.49061 0.00050 0.05700
H 	H 	0.12250 0.48850 0.91040 0.01700
C 	C 	0.10080 0.52909 0.05620 -0.07200
H 	H 	0.08780 0.55280 0.00490 0.06700
C 	C 	0.09920 0.53202 0.18720 -0.03400
H 	H 	0.08490 0.55780 0.22680 0.04700
C 	C 	0.11857 0.49743 0.26090 0.00900
C 	C 	0.11681 0.49700 0.39800 -0.04300
H 	H 	0.10350 0.52250 0.44160 0.05700
C 	C 	0.13352 0.46152 0.46470 -0.06500
H 	H 	0.13180 0.46210 0.55500 0.07400
C 	C 	0.15362 0.42326 0.40360 0.02600
C 	C 	0.16999 0.38370 0.46850 -0.05000
H 	H 	0.16900 0.38280 0.55880 0.06400
C 	C 	0.18710 0.34700 0.40350 -0.05600
H 	H 	0.19700 0.31990 0.44690 0.06500
C 	C 	0.18977 0.34996 0.27050 0.03800
H 	H 	0.20210 0.32440 0.22510 0.03200
C 	C 	0.15719 0.42248 0.26870 0.01600
C 	C 	0.13882 0.46014 0.19680 0.01800
N 	N 	0.14073 0.45734 0.06750 -0.26100
N 	N 	0.17601 0.38672 0.20440 -0.24900
O 	O 	0.31635 0.44873 0.94270 -0.53300
O 	O 	0.24535 0.43368 0.01770 -0.62200
O 	O 	0.31925 0.52914 0.08380 -0.15100
O 	O 	0.38206 0.60206 0.13490 -0.41100
O 	O 	0.32969 0.63376 0.25980 -0.47100
O 	O 	0.23390 0.33082 0.02110 -0.53500
O 	O 	0.30620 0.35143 0.96770 -0.58300
Y 	Y 	0.68338 0.89105 0.46448 2.38700
C 	C 	0.78166 0.95812 0.50940 0.45000
C 	C 	0.78103 0.00107 0.58310 -0.03700
C 	C 	0.74707 0.02027 0.65330 0.00700
H 	H 	0.71710 0.00780 0.66720 0.03600
C 	C 	0.76440 0.06244 0.70270 -0.07300
H 	H 	0.74840 0.08390 0.75510 0.07800
C 	C 	0.80815 0.06599 0.66040 0.05600
C 	C 	0.84283 0.10234 0.68530 0.26400
C 	C 	0.77673 0.82472 0.51600 0.43800
C 	C 	0.79719 0.78261 0.57270 -0.01700
C 	C 	0.84212 0.77097 0.59070 -0.02600
H 	H 	0.86840 0.78770 0.56260 0.05700
C 	C 	0.62184 0.99061 0.50050 0.04300
H 	H 	0.62250 0.98850 0.41040 0.02500
C 	C 	0.60080 0.02909 0.55620 -0.06300
H 	H 	0.58780 0.05280 0.50490 0.06200
C 	C 	0.59920 0.03202 0.68720 -0.04200
H 	H 	0.58490 0.05780 0.72680 0.05000
C 	C 	0.61857 0.99743 0.76090 0.01700
C 	C 	0.61681 0.99700 0.89800 -0.05500
H 	H 	0.60350 0.02250 0.94160 0.06300
C 	C 	0.63352 0.96152 0.96470 -0.04500
H 	H 	0.63180 0.96210 0.05500 0.06500
C 	C 	0.65362 0.92326 0.90360 0.01500
C 	C 	0.66999 0.88370 0.96850 -0.03500
H 	H 	0.66900 0.88280 0.05880 0.05700
C 	C 	0.68710 0.84700 0.90350 -0.06500
H 	H 	0.69700 0.81990 0.94690 0.06800
C 	C 	0.68977 0.84996 0.77050 0.04200
H 	H 	0.70210 0.82440 0.72510 0.03000
C 	C 	0.65719 0.92248 0.76870 0.02100
C 	C 	0.63882 0.96014 0.69680 0.01400
N 	N 	0.64073 0.95734 0.56750 -0.25800
N 	N 	0.67601 0.88672 0.70440 -0.25100
O 	O 	0.81635 0.94873 0.44270 -0.53100
O 	O 	0.74535 0.93368 0.51770 -0.62300
O 	O 	0.81925 0.02914 0.58380 -0.15100
O 	O 	0.88206 0.10206 0.63490 -0.41200
O 	O 	0.82969 0.13376 0.75980 -0.47100
O 	O 	0.73390 0.83082 0.52110 -0.53500
O 	O 	0.80620 0.85143 0.46770 -0.58100
Y 	Y 	0.10895 0.81662 0.71448 2.38700
C 	C 	0.04188 0.71834 0.75940 0.45000
C 	C 	0.99893 0.71897 0.83310 -0.03900
C 	C 	0.97973 0.75293 0.90330 0.01000
H 	H 	0.99220 0.78290 0.91720 0.03400
C 	C 	0.93756 0.73560 0.95270 -0.08200
H 	H 	0.91610 0.75160 0.00510 0.08200
C 	C 	0.93401 0.69185 0.91040 0.06000
C 	C 	0.89766 0.65717 0.93530 0.25800
C 	C 	0.17528 0.72327 0.76600 0.43800
C 	C 	0.21739 0.70281 0.82270 -0.01700
C 	C 	0.22903 0.65788 0.84070 -0.02600
H 	H 	0.21230 0.63160 0.81260 0.05600
C 	C 	0.00939 0.87816 0.75050 0.04400
H 	H 	0.01150 0.87750 0.66040 0.02500
C 	C 	0.97091 0.89920 0.80620 -0.06400
H 	H 	0.94720 0.91220 0.75490 0.06300
C 	C 	0.96798 0.90080 0.93720 -0.04200
H 	H 	0.94220 0.91510 0.97680 0.04900
C 	C 	0.00257 0.88143 0.01090 0.01400
C 	C 	0.00300 0.88319 0.14800 -0.04700
H 	H 	0.97750 0.89650 0.19160 0.05900
C 	C 	0.03848 0.86648 0.21470 -0.06100
H 	H 	0.03790 0.86820 0.30500 0.07300
C 	C 	0.07674 0.84638 0.15360 0.02400
C 	C 	0.11630 0.83001 0.21850 -0.04800
H 	H 	0.11720 0.83100 0.30880 0.06300
C 	C 	0.15300 0.81290 0.15350 -0.05800
H 	H 	0.18010 0.80300 0.19690 0.06500
C 	C 	0.15004 0.81023 0.02050 0.03900
H 	H 	0.17560 0.79790 0.97510 0.03100
C 	C 	0.07752 0.84281 0.01870 0.01800
C 	C 	0.03986 0.86118 0.94680 0.01400
N 	N 	0.04266 0.85927 0.81750 -0.25800
N 	N 	0.11328 0.82399 0.95440 -0.25000
O 	O 	0.05127 0.68365 0.69270 -0.53100
O 	O 	0.06632 0.75465 0.76770 -0.62300
O 	O 	0.97086 0.68075 0.83380 -0.15200
O 	O 	0.89794 0.61794 0.88490 -0.41200
O 	O 	0.86624 0.67031 0.00980 -0.46600
O 	O 	0.16918 0.76610 0.77110 -0.53600
O 	O 	0.14857 0.69380 0.71770 -0.58100
Y 	Y 	0.60895 0.31662 0.21448 2.38700
C 	C 	0.54188 0.21834 0.25940 0.45000
C 	C 	0.49893 0.21897 0.33310 -0.03700
C 	C 	0.47973 0.25293 0.40330 0.00600
H 	H 	0.49220 0.28290 0.41720 0.03600
C 	C 	0.43756 0.23560 0.45270 -0.07400
H 	H 	0.41610 0.25160 0.50510 0.07700
C 	C 	0.43401 0.19185 0.41040 0.05600
C 	C 	0.39766 0.15717 0.43530 0.26400
C 	C 	0.67528 0.22327 0.26600 0.43800
C 	C 	0.71739 0.20281 0.32270 -0.01700
C 	C 	0.72903 0.15788 0.34070 -0.02600
H 	H 	0.71230 0.13160 0.31260 0.05700
C 	C 	0.50939 0.37816 0.25050 0.04500
H 	H 	0.51150 0.37750 0.16040 0.02400
C 	C 	0.47091 0.39920 0.30620 -0.06600
H 	H 	0.44720 0.41220 0.25490 0.06300
C 	C 	0.46798 0.40080 0.43720 -0.03900
H 	H 	0.44220 0.41510 0.47680 0.04800
C 	C 	0.50257 0.38143 0.51090 0.01100
C 	C 	0.50300 0.38319 0.64800 -0.04400
H 	H 	0.47750 0.39650 0.69160 0.05800
C 	C 	0.53848 0.36648 0.71470 -0.06400
H 	H 	0.53790 0.36820 0.80500 0.07400
C 	C 	0.57674 0.34638 0.65360 0.02600
C 	C 	0.61630 0.33001 0.71850 -0.04900
H 	H 	0.61720 0.33100 0.80880 0.06400
C 	C 	0.65300 0.31290 0.65350 -0.05600
H 	H 	0.68010 0.30300 0.69690 0.06500
C 	C 	0.65004 0.31023 0.52050 0.03800
H 	H 	0.67560 0.29790 0.47510 0.03200
C 	C 	0.57752 0.34281 0.51870 0.01600
C 	C 	0.53986 0.36118 0.44680 0.01700
N 	N 	0.54266 0.35927 0.31750 -0.25900
N 	N 	0.61328 0.32399 0.45440 -0.24900
O 	O 	0.55127 0.18365 0.19270 -0.53200
O 	O 	0.56632 0.25465 0.26770 -0.62300
O 	O 	0.47086 0.18075 0.33380 -0.15100
O 	O 	0.39794 0.11794 0.38490 -0.41200
O 	O 	0.36624 0.17031 0.50980 -0.47100
O 	O 	0.66918 0.26610 0.27110 -0.53600
O 	O 	0.64857 0.19380 0.21770 -0.58200
Y 	Y 	0.89105 0.18338 0.71448 2.38700
C 	C 	0.95812 0.28166 0.75940 0.45000
C 	C 	0.00107 0.28103 0.83310 -0.03900
C 	C 	0.02027 0.24707 0.90330 0.01000
H 	H 	0.00780 0.21710 0.91720 0.03400
C 	C 	0.06244 0.26440 0.95270 -0.08200
H 	H 	0.08390 0.24840 0.00510 0.08200
C 	C 	0.06599 0.30815 0.91040 0.06000
C 	C 	0.10234 0.34283 0.93530 0.25800
C 	C 	0.82472 0.27673 0.76600 0.43800
C 	C 	0.78261 0.29719 0.82270 -0.01700
C 	C 	0.77097 0.34212 0.84070 -0.02600
H 	H 	0.78770 0.36840 0.81260 0.05600
C 	C 	0.99061 0.12184 0.75050 0.04400
H 	H 	0.98850 0.12250 0.66040 0.02500
C 	C 	0.02909 0.10080 0.80620 -0.06400
H 	H 	0.05280 0.08780 0.75490 0.06300
C 	C 	0.03202 0.09920 0.93720 -0.04200
H 	H 	0.05780 0.08490 0.97680 0.04900
C 	C 	0.99743 0.11857 0.01090 0.01400
C 	C 	0.99700 0.11681 0.14800 -0.04700
H 	H 	0.02250 0.10350 0.19160 0.05900
C 	C 	0.96152 0.13352 0.21470 -0.06100
H 	H 	0.96210 0.13180 0.30500 0.07300
C 	C 	0.92326 0.15362 0.15360 0.02400
C 	C 	0.88370 0.16999 0.21850 -0.04800
H 	H 	0.88280 0.16900 0.30880 0.06300
C 	C 	0.84700 0.18710 0.15350 -0.05800
H 	H 	0.81990 0.19700 0.19690 0.06500
C 	C 	0.84996 0.18977 0.02050 0.03900
H 	H 	0.82440 0.20210 0.97510 0.03100
C 	C 	0.92248 0.15719 0.01870 0.01800
C 	C 	0.96014 0.13882 0.94680 0.01400
N 	N 	0.95734 0.14073 0.81750 -0.25800
N 	N 	0.88672 0.17601 0.95440 -0.25000
O 	O 	0.94873 0.31635 0.69270 -0.53100
O 	O 	0.93368 0.24535 0.76770 -0.62300
O 	O 	0.02914 0.31925 0.83380 -0.15200
O 	O 	0.10206 0.38206 0.88490 -0.41200
O 	O 	0.13376 0.32969 0.00980 -0.46600
O 	O 	0.83082 0.23390 0.77110 -0.53600
O 	O 	0.85143 0.30620 0.71770 -0.58100
Y 	Y 	0.39105 0.68338 0.21448 2.38700
C 	C 	0.45812 0.78166 0.25940 0.45000
C 	C 	0.50107 0.78103 0.33310 -0.03700
C 	C 	0.52027 0.74707 0.40330 0.00600
H 	H 	0.50780 0.71710 0.41720 0.03600
C 	C 	0.56244 0.76440 0.45270 -0.07400
H 	H 	0.58390 0.74840 0.50510 0.07700
C 	C 	0.56599 0.80815 0.41040 0.05600
C 	C 	0.60234 0.84283 0.43530 0.26400
C 	C 	0.32472 0.77673 0.26600 0.43800
C 	C 	0.28261 0.79719 0.32270 -0.01700
C 	C 	0.27097 0.84212 0.34070 -0.02600
H 	H 	0.28770 0.86840 0.31260 0.05700
C 	C 	0.49061 0.62184 0.25050 0.04500
H 	H 	0.48850 0.62250 0.16040 0.02400
C 	C 	0.52909 0.60080 0.30620 -0.06600
H 	H 	0.55280 0.58780 0.25490 0.06300
C 	C 	0.53202 0.59920 0.43720 -0.03900
H 	H 	0.55780 0.58490 0.47680 0.04800
C 	C 	0.49743 0.61857 0.51090 0.01100
C 	C 	0.49700 0.61681 0.64800 -0.04400
H 	H 	0.52250 0.60350 0.69160 0.05800
C 	C 	0.46152 0.63352 0.71470 -0.06400
H 	H 	0.46210 0.63180 0.80500 0.07400
C 	C 	0.42326 0.65362 0.65360 0.02600
C 	C 	0.38370 0.66999 0.71850 -0.04900
H 	H 	0.38280 0.66900 0.80880 0.06400
C 	C 	0.34700 0.68710 0.65350 -0.05600
H 	H 	0.31990 0.69700 0.69690 0.06500
C 	C 	0.34996 0.68977 0.52050 0.03800
H 	H 	0.32440 0.70210 0.47510 0.03200
C 	C 	0.42248 0.65719 0.51870 0.01600
C 	C 	0.46014 0.63882 0.44680 0.01700
N 	N 	0.45734 0.64073 0.31750 -0.25900
N 	N 	0.38672 0.67601 0.45440 -0.24900
O 	O 	0.44873 0.81635 0.19270 -0.53200
O 	O 	0.43368 0.74535 0.26770 -0.62300
O 	O 	0.52914 0.81925 0.33380 -0.15100
O 	O 	0.60206 0.88206 0.38490 -0.41200
O 	O 	0.63376 0.82969 0.50980 -0.47100
O 	O 	0.33082 0.73390 0.27110 -0.53600
O 	O 	0.35143 0.80620 0.21770 -0.58200
Y 	Y 	0.68338 0.60895 0.78552 2.38700
C 	C 	0.78166 0.54188 0.74060 0.45000
C 	C 	0.78103 0.49893 0.66690 -0.03700
C 	C 	0.74707 0.47973 0.59670 0.00600
H 	H 	0.71710 0.49220 0.58280 0.03600
C 	C 	0.76440 0.43756 0.54730 -0.07400
H 	H 	0.74840 0.41610 0.49490 0.07700
C 	C 	0.80815 0.43401 0.58960 0.05600
C 	C 	0.84283 0.39766 0.56470 0.26400
C 	C 	0.77673 0.67528 0.73400 0.43800
C 	C 	0.79719 0.71739 0.67730 -0.01700
C 	C 	0.84212 0.72903 0.65930 -0.02600
H 	H 	0.86840 0.71230 0.68740 0.05700
C 	C 	0.62184 0.50939 0.74950 0.04500
H 	H 	0.62250 0.51150 0.83960 0.02400
C 	C 	0.60080 0.47091 0.69380 -0.06600
H 	H 	0.58780 0.44720 0.74510 0.06300
C 	C 	0.59920 0.46798 0.56280 -0.03900
H 	H 	0.58490 0.44220 0.52320 0.04800
C 	C 	0.61857 0.50257 0.48910 0.01100
C 	C 	0.61681 0.50300 0.35200 -0.04400
H 	H 	0.60350 0.47750 0.30840 0.05800
C 	C 	0.63352 0.53848 0.28530 -0.06400
H 	H 	0.63180 0.53790 0.19500 0.07400
C 	C 	0.65362 0.57674 0.34640 0.02600
C 	C 	0.66999 0.61630 0.28150 -0.04900
H 	H 	0.66900 0.61720 0.19120 0.06400
C 	C 	0.68710 0.65300 0.34650 -0.05600
H 	H 	0.69700 0.68010 0.30310 0.06500
C 	C 	0.68977 0.65004 0.47950 0.03800
H 	H 	0.70210 0.67560 0.52490 0.03200
C 	C 	0.65719 0.57752 0.48130 0.01600
C 	C 	0.63882 0.53986 0.55320 0.01700
N 	N 	0.64073 0.54266 0.68250 -0.25900
N 	N 	0.67601 0.61328 0.54560 -0.24900
O 	O 	0.81635 0.55127 0.80730 -0.53200
O 	O 	0.74535 0.56632 0.73230 -0.62300
O 	O 	0.81925 0.47086 0.66620 -0.15100
O 	O 	0.88206 0.39794 0.61510 -0.41200
O 	O 	0.82969 0.36624 0.49020 -0.47100
O 	O 	0.73390 0.66918 0.72890 -0.53600
O 	O 	0.80620 0.64857 0.78230 -0.58200
Y 	Y 	0.18338 0.10895 0.28552 2.38700
C 	C 	0.28166 0.04188 0.24060 0.45000
C 	C 	0.28103 0.99893 0.16690 -0.03900
C 	C 	0.24707 0.97973 0.09670 0.01000
H 	H 	0.21710 0.99220 0.08280 0.03400
C 	C 	0.26440 0.93756 0.04730 -0.08200
H 	H 	0.24840 0.91610 0.99490 0.08200
C 	C 	0.30815 0.93401 0.08960 0.06000
C 	C 	0.34283 0.89766 0.06470 0.25800
C 	C 	0.27673 0.17528 0.23400 0.43800
C 	C 	0.29719 0.21739 0.17730 -0.01700
C 	C 	0.34212 0.22903 0.15930 -0.02600
H 	H 	0.36840 0.21230 0.18740 0.05600
C 	C 	0.12184 0.00939 0.24950 0.04400
H 	H 	0.12250 0.01150 0.33960 0.02500
C 	C 	0.10080 0.97091 0.19380 -0.06400
H 	H 	0.08780 0.94720 0.24510 0.06300
C 	C 	0.09920 0.96798 0.06280 -0.04200
H 	H 	0.08490 0.94220 0.02320 0.04900
C 	C 	0.11857 0.00257 0.98910 0.01400
C 	C 	0.11681 0.00300 0.85200 -0.04700
H 	H 	0.10350 0.97750 0.80840 0.05900
C 	C 	0.13352 0.03848 0.78530 -0.06100
H 	H 	0.13180 0.03790 0.69500 0.07300
C 	C 	0.15362 0.07674 0.84640 0.02400
C 	C 	0.16999 0.11630 0.78150 -0.04800
H 	H 	0.16900 0.11720 0.69120 0.06300
C 	C 	0.18710 0.15300 0.84650 -0.05800
H 	H 	0.19700 0.18010 0.80310 0.06500
C 	C 	0.18977 0.15004 0.97950 0.03900
H 	H 	0.20210 0.17560 0.02490 0.03100
C 	C 	0.15719 0.07752 0.98130 0.01800
C 	C 	0.13882 0.03986 0.05320 0.01400
N 	N 	0.14073 0.04266 0.18250 -0.25800
N 	N 	0.17601 0.11328 0.04560 -0.25000
O 	O 	0.31635 0.05127 0.30730 -0.53100
O 	O 	0.24535 0.06632 0.23230 -0.62300
O 	O 	0.31925 0.97086 0.16620 -0.15200
O 	O 	0.38206 0.89794 0.11510 -0.41200
O 	O 	0.32969 0.86624 0.99020 -0.46600
O 	O 	0.23390 0.16918 0.22890 -0.53600
O 	O 	0.30620 0.14857 0.28230 -0.58100
Y 	Y 	0.31662 0.39105 0.78552 2.38700
C 	C 	0.21834 0.45812 0.74060 0.45000
C 	C 	0.21897 0.50107 0.66690 -0.03700
C 	C 	0.25293 0.52027 0.59670 0.00600
H 	H 	0.28290 0.50780 0.58280 0.03600
C 	C 	0.23560 0.56244 0.54730 -0.07400
H 	H 	0.25160 0.58390 0.49490 0.07700
C 	C 	0.19185 0.56599 0.58960 0.05600
C 	C 	0.15717 0.60234 0.56470 0.26400
C 	C 	0.22327 0.32472 0.73400 0.43800
C 	C 	0.20281 0.28261 0.67730 -0.01700
C 	C 	0.15788 0.27097 0.65930 -0.02600
H 	H 	0.13160 0.28770 0.68740 0.05700
C 	C 	0.37816 0.49061 0.74950 0.04500
H 	H 	0.37750 0.48850 0.83960 0.02400
C 	C 	0.39920 0.52909 0.69380 -0.06600
H 	H 	0.41220 0.55280 0.74510 0.06300
C 	C 	0.40080 0.53202 0.56280 -0.03900
H 	H 	0.41510 0.55780 0.52320 0.04800
C 	C 	0.38143 0.49743 0.48910 0.01100
C 	C 	0.38319 0.49700 0.35200 -0.04400
H 	H 	0.39650 0.52250 0.30840 0.05800
C 	C 	0.36648 0.46152 0.28530 -0.06400
H 	H 	0.36820 0.46210 0.19500 0.07400
C 	C 	0.34638 0.42326 0.34640 0.02600
C 	C 	0.33001 0.38370 0.28150 -0.04900
H 	H 	0.33100 0.38280 0.19120 0.06400
C 	C 	0.31290 0.34700 0.34650 -0.05600
H 	H 	0.30300 0.31990 0.30310 0.06500
C 	C 	0.31023 0.34996 0.47950 0.03800
H 	H 	0.29790 0.32440 0.52490 0.03200
C 	C 	0.34281 0.42248 0.48130 0.01600
C 	C 	0.36118 0.46014 0.55320 0.01700
N 	N 	0.35927 0.45734 0.68250 -0.25900
N 	N 	0.32399 0.38672 0.54560 -0.24900
O 	O 	0.18365 0.44873 0.80730 -0.53200
O 	O 	0.25465 0.43368 0.73230 -0.62300
O 	O 	0.18075 0.52914 0.66620 -0.15100
O 	O 	0.11794 0.60206 0.61510 -0.41200
O 	O 	0.17031 0.63376 0.49020 -0.47100
O 	O 	0.26610 0.33082 0.72890 -0.53600
O 	O 	0.19380 0.35143 0.78230 -0.58200
Y 	Y 	0.81662 0.89105 0.28552 2.38700
C 	C 	0.71834 0.95812 0.24060 0.45000
C 	C 	0.71897 0.00107 0.16690 -0.03900
C 	C 	0.75293 0.02027 0.09670 0.01000
H 	H 	0.78290 0.00780 0.08280 0.03400
C 	C 	0.73560 0.06244 0.04730 -0.08200
H 	H 	0.75160 0.08390 0.99490 0.08200
C 	C 	0.69185 0.06599 0.08960 0.06000
C 	C 	0.65717 0.10234 0.06470 0.25800
C 	C 	0.72327 0.82472 0.23400 0.43800
C 	C 	0.70281 0.78261 0.17730 -0.01700
C 	C 	0.65788 0.77097 0.15930 -0.02600
H 	H 	0.63160 0.78770 0.18740 0.05600
C 	C 	0.87816 0.99061 0.24950 0.04400
H 	H 	0.87750 0.98850 0.33960 0.02500
C 	C 	0.89920 0.02909 0.19380 -0.06400
H 	H 	0.91220 0.05280 0.24510 0.06300
C 	C 	0.90080 0.03202 0.06280 -0.04200
H 	H 	0.91510 0.05780 0.02320 0.04900
C 	C 	0.88143 0.99743 0.98910 0.01400
C 	C 	0.88319 0.99700 0.85200 -0.04700
H 	H 	0.89650 0.02250 0.80840 0.05900
C 	C 	0.86648 0.96152 0.78530 -0.06100
H 	H 	0.86820 0.96210 0.69500 0.07300
C 	C 	0.84638 0.92326 0.84640 0.02400
C 	C 	0.83001 0.88370 0.78150 -0.04800
H 	H 	0.83100 0.88280 0.69120 0.06300
C 	C 	0.81290 0.84700 0.84650 -0.05800
H 	H 	0.80300 0.81990 0.80310 0.06500
C 	C 	0.81023 0.84996 0.97950 0.03900
H 	H 	0.79790 0.82440 0.02490 0.03100
C 	C 	0.84281 0.92248 0.98130 0.01800
C 	C 	0.86118 0.96014 0.05320 0.01400
N 	N 	0.85927 0.95734 0.18250 -0.25800
N 	N 	0.82399 0.88672 0.04560 -0.25000
O 	O 	0.68365 0.94873 0.30730 -0.53100
O 	O 	0.75465 0.93368 0.23230 -0.62300
O 	O 	0.68075 0.02914 0.16620 -0.15200
O 	O 	0.61794 0.10206 0.11510 -0.41200
O 	O 	0.67031 0.13376 0.99020 -0.46600
O 	O 	0.76610 0.83082 0.22890 -0.53600
O 	O 	0.69380 0.85143 0.28230 -0.58100
O 	O 	0.25000 0.73153 0.87500 -0.13800
O 	O 	0.75000 0.23153 0.37500 -0.13800
O 	O 	0.75000 0.26847 0.87500 -0.13800
O 	O 	0.25000 0.76847 0.37500 -0.13800
O 	O 	0.73153 0.75000 0.12500 -0.13800
O 	O 	0.26847 0.25000 0.12500 -0.13800
O 	O 	0.76847 0.75000 0.62500 -0.13800
O 	O 	0.23153 0.25000 0.62500 -0.13800
