data_crystal

_cell_length_a 29.19340
_cell_length_b 29.19340
_cell_length_c 10.50410
_cell_angle_alpha 90.00000
_cell_angle_beta  90.00000
_cell_angle_gamma 90.00000

_symmetry_space_group_name_	'P 1'
_symmetry_space_group_name_H-M	'P 1'

loop_
_symmetry_equiv_pos_as_xyz
  x,y,z

loop_
_atom_site_label
_atom_site_type_symbol
_atom_site_fract_x
_atom_site_fract_y
_atom_site_fract_z
_atom_site_charge
Eu	Eu	0.39184 0.68331 0.21445 2.00700
C 	C 	0.34190 0.60150 0.18830 0.24200
C 	C 	0.30780 0.56660 0.16090 0.06000
C 	C 	0.26390 0.56310 0.20120 -0.07800
H 	H 	0.24780 0.58470 0.25190 0.07300
C 	C 	0.24670 0.52120 0.15350 -0.00200
H 	H 	0.21710 0.50860 0.16750 0.03300
C 	C 	0.28120 0.50280 0.08350 -0.02500
C 	C 	0.28260 0.45950 0.00980 0.43100
C 	C 	0.32410 0.77630 0.26800 0.43200
C 	C 	0.28280 0.79680 0.32480 -0.02100
C 	C 	0.27050 0.84140 0.34180 -0.02700
H 	H 	0.28700 0.86750 0.31350 0.05200
C 	C 	0.49100 0.62160 0.25270 0.07000
H 	H 	0.48810 0.62150 0.16260 0.01500
C 	C 	0.53030 0.60130 0.30700 -0.08700
H 	H 	0.55420 0.58930 0.25550 0.06700
C 	C 	0.53270 0.59960 0.44050 -0.02900
H 	H 	0.55810 0.58530 0.48040 0.04300
C 	C 	0.49790 0.61890 0.51570 -0.00100
C 	C 	0.49750 0.61740 0.65270 -0.04300
H 	H 	0.52290 0.60460 0.69670 0.05600
C 	C 	0.46290 0.63320 0.71720 -0.05800
H 	H 	0.46350 0.63130 0.80740 0.06900
C 	C 	0.42430 0.65320 0.65750 0.00700
C 	C 	0.38540 0.67000 0.72200 -0.03300
H 	H 	0.38480 0.66960 0.81240 0.05400
C 	C 	0.34850 0.68670 0.65760 -0.08200
H 	H 	0.32150 0.69620 0.70070 0.06900
C 	C 	0.35210 0.68910 0.52340 0.06300
H 	H 	0.32690 0.70090 0.47680 0.02000
C 	C 	0.42410 0.65710 0.52290 0.03200
C 	C 	0.46160 0.63860 0.45100 0.02700
N 	N 	0.45850 0.64040 0.31990 -0.22900
N 	N 	0.38880 0.67600 0.45950 -0.22100
O 	O 	0.31741 0.45011 0.94660 -0.47300
O 	O 	0.24614 0.43484 0.01690 -0.53700
O 	O 	0.31876 0.52981 0.08630 -0.16400
O 	O 	0.38152 0.60115 0.13760 -0.35800
O 	O 	0.32920 0.63400 0.26350 -0.40400
O 	O 	0.33034 0.73427 0.27330 -0.47300
O 	O 	0.35179 0.80549 0.22090 -0.51100
Eu	Eu	0.89184 0.18331 0.71445 2.00800
C 	C 	0.84190 0.10150 0.68830 0.24300
C 	C 	0.80780 0.06660 0.66090 0.06100
C 	C 	0.76390 0.06310 0.70120 -0.07700
H 	H 	0.74780 0.08470 0.75190 0.07400
C 	C 	0.74670 0.02120 0.65350 -0.00100
H 	H 	0.71710 0.00860 0.66750 0.03400
C 	C 	0.78120 0.00280 0.58350 -0.02400
C 	C 	0.78260 0.95950 0.50980 0.43000
C 	C 	0.82410 0.27630 0.76800 0.43300
C 	C 	0.78280 0.29680 0.82480 -0.02100
C 	C 	0.77050 0.34140 0.84180 -0.02600
H 	H 	0.78700 0.36750 0.81350 0.05100
C 	C 	0.99100 0.12160 0.75270 0.07000
H 	H 	0.98810 0.12150 0.66260 0.01500
C 	C 	0.03030 0.10130 0.80700 -0.08500
H 	H 	0.05420 0.08930 0.75550 0.06700
C 	C 	0.03270 0.09960 0.94050 -0.03100
H 	H 	0.05810 0.08530 0.98040 0.04400
C 	C 	0.99790 0.11890 0.01570 0.00100
C 	C 	0.99750 0.11740 0.15270 -0.04500
H 	H 	0.02290 0.10460 0.19670 0.05600
C 	C 	0.96290 0.13320 0.21720 -0.05600
H 	H 	0.96350 0.13130 0.30740 0.06900
C 	C 	0.92430 0.15320 0.15750 0.00600
C 	C 	0.88540 0.17000 0.22200 -0.03200
H 	H 	0.88480 0.16960 0.31240 0.05400
C 	C 	0.84850 0.18670 0.15760 -0.08300
H 	H 	0.82150 0.19620 0.20070 0.06900
C 	C 	0.85210 0.18910 0.02340 0.06400
H 	H 	0.82690 0.20090 0.97680 0.02000
C 	C 	0.92410 0.15710 0.02290 0.03400
C 	C 	0.96160 0.13860 0.95100 0.02400
N 	N 	0.95850 0.14040 0.81990 -0.22800
N 	N 	0.88880 0.17600 0.95950 -0.22100
O 	O 	0.81741 0.95011 0.44660 -0.47100
O 	O 	0.74614 0.93484 0.51690 -0.53900
O 	O 	0.81876 0.02981 0.58630 -0.16500
O 	O 	0.88152 0.10115 0.63760 -0.35800
O 	O 	0.82920 0.13400 0.76350 -0.40400
O 	O 	0.83034 0.23427 0.77330 -0.47300
O 	O 	0.85179 0.30549 0.72090 -0.51100
Eu	Eu	0.60816 0.31669 0.21445 2.00800
C 	C 	0.65810 0.39850 0.18830 0.24300
C 	C 	0.69220 0.43340 0.16090 0.06100
C 	C 	0.73610 0.43690 0.20120 -0.07700
H 	H 	0.75220 0.41530 0.25190 0.07400
C 	C 	0.75330 0.47880 0.15350 -0.00100
H 	H 	0.78290 0.49140 0.16750 0.03400
C 	C 	0.71880 0.49720 0.08350 -0.02400
C 	C 	0.71740 0.54050 0.00980 0.43200
C 	C 	0.67590 0.22370 0.26800 0.43300
C 	C 	0.71720 0.20320 0.32480 -0.02000
C 	C 	0.72950 0.15860 0.34180 -0.02600
H 	H 	0.71300 0.13250 0.31350 0.05200
C 	C 	0.50900 0.37840 0.25270 0.07000
H 	H 	0.51190 0.37850 0.16260 0.01500
C 	C 	0.46970 0.39870 0.30700 -0.08700
H 	H 	0.44580 0.41070 0.25550 0.06700
C 	C 	0.46730 0.40040 0.44050 -0.02900
H 	H 	0.44190 0.41470 0.48040 0.04300
C 	C 	0.50210 0.38110 0.51570 -0.00100
C 	C 	0.50250 0.38260 0.65270 -0.04300
H 	H 	0.47710 0.39540 0.69670 0.05600
C 	C 	0.53710 0.36680 0.71720 -0.05800
H 	H 	0.53650 0.36870 0.80740 0.06900
C 	C 	0.57570 0.34680 0.65750 0.00700
C 	C 	0.61460 0.33000 0.72200 -0.03300
H 	H 	0.61520 0.33040 0.81240 0.05400
C 	C 	0.65150 0.31330 0.65760 -0.08200
H 	H 	0.67850 0.30380 0.70070 0.06900
C 	C 	0.64790 0.31090 0.52340 0.06300
H 	H 	0.67310 0.29910 0.47680 0.02000
C 	C 	0.57590 0.34290 0.52290 0.03200
C 	C 	0.53840 0.36140 0.45100 0.02700
N 	N 	0.54150 0.35960 0.31990 -0.22900
N 	N 	0.61120 0.32400 0.45950 -0.22100
O 	O 	0.68259 0.54989 0.94660 -0.47300
O 	O 	0.75386 0.56516 0.01690 -0.53700
O 	O 	0.68124 0.47019 0.08630 -0.16400
O 	O 	0.61848 0.39885 0.13760 -0.35800
O 	O 	0.67080 0.36600 0.26350 -0.40400
O 	O 	0.66966 0.26573 0.27330 -0.47300
O 	O 	0.64821 0.19451 0.22090 -0.51100
Eu	Eu	0.10816 0.81669 0.71445 2.00800
C 	C 	0.15810 0.89850 0.68830 0.24300
C 	C 	0.19220 0.93340 0.66090 0.06100
C 	C 	0.23610 0.93690 0.70120 -0.07700
H 	H 	0.25220 0.91530 0.75190 0.07400
C 	C 	0.25330 0.97880 0.65350 -0.00100
H 	H 	0.28290 0.99140 0.66750 0.03400
C 	C 	0.21880 0.99720 0.58350 -0.02400
C 	C 	0.21740 0.04050 0.50980 0.43000
C 	C 	0.17590 0.72370 0.76800 0.43300
C 	C 	0.21720 0.70320 0.82480 -0.02100
C 	C 	0.22950 0.65860 0.84180 -0.02600
H 	H 	0.21300 0.63250 0.81350 0.05100
C 	C 	0.00900 0.87840 0.75270 0.07000
H 	H 	0.01190 0.87850 0.66260 0.01500
C 	C 	0.96970 0.89870 0.80700 -0.08500
H 	H 	0.94580 0.91070 0.75550 0.06700
C 	C 	0.96730 0.90040 0.94050 -0.03100
H 	H 	0.94190 0.91470 0.98040 0.04400
C 	C 	0.00210 0.88110 0.01570 0.00100
C 	C 	0.00250 0.88260 0.15270 -0.04500
H 	H 	0.97710 0.89540 0.19670 0.05600
C 	C 	0.03710 0.86680 0.21720 -0.05600
H 	H 	0.03650 0.86870 0.30740 0.06900
C 	C 	0.07570 0.84680 0.15750 0.00600
C 	C 	0.11460 0.83000 0.22200 -0.03200
H 	H 	0.11520 0.83040 0.31240 0.05400
C 	C 	0.15150 0.81330 0.15760 -0.08300
H 	H 	0.17850 0.80380 0.20070 0.06900
C 	C 	0.14790 0.81090 0.02340 0.06400
H 	H 	0.17310 0.79910 0.97680 0.02000
C 	C 	0.07590 0.84290 0.02290 0.03400
C 	C 	0.03840 0.86140 0.95100 0.02400
N 	N 	0.04150 0.85960 0.81990 -0.22800
N 	N 	0.11120 0.82400 0.95950 -0.22100
O 	O 	0.18259 0.04989 0.44660 -0.47100
O 	O 	0.25386 0.06516 0.51690 -0.53900
O 	O 	0.18124 0.97019 0.58630 -0.16500
O 	O 	0.11848 0.89885 0.63760 -0.35800
O 	O 	0.17080 0.86600 0.76350 -0.40400
O 	O 	0.16966 0.76573 0.77330 -0.47300
O 	O 	0.14821 0.69451 0.72090 -0.51100
Eu	Eu	0.68331 0.60816 0.78555 2.00800
C 	C 	0.60150 0.65810 0.81170 0.24300
C 	C 	0.56660 0.69220 0.83910 0.06100
C 	C 	0.56310 0.73610 0.79880 -0.07700
H 	H 	0.58470 0.75220 0.74810 0.07400
C 	C 	0.52120 0.75330 0.84650 -0.00100
H 	H 	0.50860 0.78290 0.83250 0.03400
C 	C 	0.50280 0.71880 0.91650 -0.02400
C 	C 	0.45950 0.71740 0.99020 0.43200
C 	C 	0.77630 0.67590 0.73200 0.43300
C 	C 	0.79680 0.71720 0.67520 -0.02000
C 	C 	0.84140 0.72950 0.65820 -0.02600
H 	H 	0.86750 0.71300 0.68650 0.05200
C 	C 	0.62160 0.50900 0.74730 0.07000
H 	H 	0.62150 0.51190 0.83740 0.01500
C 	C 	0.60130 0.46970 0.69300 -0.08700
H 	H 	0.58930 0.44580 0.74450 0.06700
C 	C 	0.59960 0.46730 0.55950 -0.02900
H 	H 	0.58530 0.44190 0.51960 0.04300
C 	C 	0.61890 0.50210 0.48430 -0.00100
C 	C 	0.61740 0.50250 0.34730 -0.04300
H 	H 	0.60460 0.47710 0.30330 0.05600
C 	C 	0.63320 0.53710 0.28280 -0.05800
H 	H 	0.63130 0.53650 0.19260 0.06900
C 	C 	0.65320 0.57570 0.34250 0.00700
C 	C 	0.67000 0.61460 0.27800 -0.03300
H 	H 	0.66960 0.61520 0.18760 0.05400
C 	C 	0.68670 0.65150 0.34240 -0.08200
H 	H 	0.69620 0.67850 0.29930 0.06900
C 	C 	0.68910 0.64790 0.47660 0.06300
H 	H 	0.70090 0.67310 0.52320 0.02000
C 	C 	0.65710 0.57590 0.47710 0.03200
C 	C 	0.63860 0.53840 0.54900 0.02700
N 	N 	0.64040 0.54150 0.68010 -0.22900
N 	N 	0.67600 0.61120 0.54050 -0.22100
O 	O 	0.45011 0.68259 0.05340 -0.47300
O 	O 	0.43484 0.75386 0.98310 -0.53700
O 	O 	0.52981 0.68124 0.91370 -0.16400
O 	O 	0.60115 0.61848 0.86240 -0.35800
O 	O 	0.63400 0.67080 0.73650 -0.40400
O 	O 	0.73427 0.66966 0.72670 -0.47300
O 	O 	0.80549 0.64821 0.77910 -0.51100
Eu	Eu	0.18331 0.10816 0.28555 2.00800
C 	C 	0.10150 0.15810 0.31170 0.24300
C 	C 	0.06660 0.19220 0.33910 0.06100
C 	C 	0.06310 0.23610 0.29880 -0.07700
H 	H 	0.08470 0.25220 0.24810 0.07400
C 	C 	0.02120 0.25330 0.34650 -0.00100
H 	H 	0.00860 0.28290 0.33250 0.03400
C 	C 	0.00280 0.21880 0.41650 -0.02400
C 	C 	0.95950 0.21740 0.49020 0.43000
C 	C 	0.27630 0.17590 0.23200 0.43300
C 	C 	0.29680 0.21720 0.17520 -0.02100
C 	C 	0.34140 0.22950 0.15820 -0.02600
H 	H 	0.36750 0.21300 0.18650 0.05100
C 	C 	0.12160 0.00900 0.24730 0.07000
H 	H 	0.12150 0.01190 0.33740 0.01500
C 	C 	0.10130 0.96970 0.19300 -0.08500
H 	H 	0.08930 0.94580 0.24450 0.06700
C 	C 	0.09960 0.96730 0.05950 -0.03100
H 	H 	0.08530 0.94190 0.01960 0.04400
C 	C 	0.11890 0.00210 0.98430 0.00100
C 	C 	0.11740 0.00250 0.84730 -0.04500
H 	H 	0.10460 0.97710 0.80330 0.05600
C 	C 	0.13320 0.03710 0.78280 -0.05600
H 	H 	0.13130 0.03650 0.69260 0.06900
C 	C 	0.15320 0.07570 0.84250 0.00600
C 	C 	0.17000 0.11460 0.77800 -0.03200
H 	H 	0.16960 0.11520 0.68760 0.05400
C 	C 	0.18670 0.15150 0.84240 -0.08300
H 	H 	0.19620 0.17850 0.79930 0.06900
C 	C 	0.18910 0.14790 0.97660 0.06400
H 	H 	0.20090 0.17310 0.02320 0.02000
C 	C 	0.15710 0.07590 0.97710 0.03400
C 	C 	0.13860 0.03840 0.04900 0.02400
N 	N 	0.14040 0.04150 0.18010 -0.22800
N 	N 	0.17600 0.11120 0.04050 -0.22100
O 	O 	0.95011 0.18259 0.55340 -0.47100
O 	O 	0.93484 0.25386 0.48310 -0.53900
O 	O 	0.02981 0.18124 0.41370 -0.16500
O 	O 	0.10115 0.11848 0.36240 -0.35800
O 	O 	0.13400 0.17080 0.23650 -0.40400
O 	O 	0.23427 0.16966 0.22670 -0.47300
O 	O 	0.30549 0.14821 0.27910 -0.51100
Eu	Eu	0.31669 0.39184 0.78555 2.00800
C 	C 	0.39850 0.34190 0.81170 0.24300
C 	C 	0.43340 0.30780 0.83910 0.06100
C 	C 	0.43690 0.26390 0.79880 -0.07700
H 	H 	0.41530 0.24780 0.74810 0.07400
C 	C 	0.47880 0.24670 0.84650 -0.00100
H 	H 	0.49140 0.21710 0.83250 0.03400
C 	C 	0.49720 0.28120 0.91650 -0.02400
C 	C 	0.54050 0.28260 0.99020 0.43200
C 	C 	0.22370 0.32410 0.73200 0.43300
C 	C 	0.20320 0.28280 0.67520 -0.02000
C 	C 	0.15860 0.27050 0.65820 -0.02600
H 	H 	0.13250 0.28700 0.68650 0.05200
C 	C 	0.37840 0.49100 0.74730 0.07000
H 	H 	0.37850 0.48810 0.83740 0.01500
C 	C 	0.39870 0.53030 0.69300 -0.08700
H 	H 	0.41070 0.55420 0.74450 0.06700
C 	C 	0.40040 0.53270 0.55950 -0.02900
H 	H 	0.41470 0.55810 0.51960 0.04300
C 	C 	0.38110 0.49790 0.48430 -0.00100
C 	C 	0.38260 0.49750 0.34730 -0.04300
H 	H 	0.39540 0.52290 0.30330 0.05600
C 	C 	0.36680 0.46290 0.28280 -0.05800
H 	H 	0.36870 0.46350 0.19260 0.06900
C 	C 	0.34680 0.42430 0.34250 0.00700
C 	C 	0.33000 0.38540 0.27800 -0.03300
H 	H 	0.33040 0.38480 0.18760 0.05400
C 	C 	0.31330 0.34850 0.34240 -0.08200
H 	H 	0.30380 0.32150 0.29930 0.06900
C 	C 	0.31090 0.35210 0.47660 0.06300
H 	H 	0.29910 0.32690 0.52320 0.02000
C 	C 	0.34290 0.42410 0.47710 0.03200
C 	C 	0.36140 0.46160 0.54900 0.02700
N 	N 	0.35960 0.45850 0.68010 -0.22900
N 	N 	0.32400 0.38880 0.54050 -0.22100
O 	O 	0.54989 0.31741 0.05340 -0.47300
O 	O 	0.56516 0.24614 0.98310 -0.53700
O 	O 	0.47019 0.31876 0.91370 -0.16400
O 	O 	0.39885 0.38152 0.86240 -0.35800
O 	O 	0.36600 0.32920 0.73650 -0.40400
O 	O 	0.26573 0.33034 0.72670 -0.47300
O 	O 	0.19451 0.35179 0.77910 -0.51100
Eu	Eu	0.81669 0.89184 0.28555 2.00800
C 	C 	0.89850 0.84190 0.31170 0.24300
C 	C 	0.93340 0.80780 0.33910 0.06100
C 	C 	0.93690 0.76390 0.29880 -0.07700
H 	H 	0.91530 0.74780 0.24810 0.07400
C 	C 	0.97880 0.74670 0.34650 -0.00100
H 	H 	0.99140 0.71710 0.33250 0.03400
C 	C 	0.99720 0.78120 0.41650 -0.02400
C 	C 	0.04050 0.78260 0.49020 0.43000
C 	C 	0.72370 0.82410 0.23200 0.43300
C 	C 	0.70320 0.78280 0.17520 -0.02100
C 	C 	0.65860 0.77050 0.15820 -0.02600
H 	H 	0.63250 0.78700 0.18650 0.05100
C 	C 	0.87840 0.99100 0.24730 0.07000
H 	H 	0.87850 0.98810 0.33740 0.01500
C 	C 	0.89870 0.03030 0.19300 -0.08500
H 	H 	0.91070 0.05420 0.24450 0.06700
C 	C 	0.90040 0.03270 0.05950 -0.03100
H 	H 	0.91470 0.05810 0.01960 0.04400
C 	C 	0.88110 0.99790 0.98430 0.00100
C 	C 	0.88260 0.99750 0.84730 -0.04500
H 	H 	0.89540 0.02290 0.80330 0.05600
C 	C 	0.86680 0.96290 0.78280 -0.05600
H 	H 	0.86870 0.96350 0.69260 0.06900
C 	C 	0.84680 0.92430 0.84250 0.00600
C 	C 	0.83000 0.88540 0.77800 -0.03200
H 	H 	0.83040 0.88480 0.68760 0.05400
C 	C 	0.81330 0.84850 0.84240 -0.08300
H 	H 	0.80380 0.82150 0.79930 0.06900
C 	C 	0.81090 0.85210 0.97660 0.06400
H 	H 	0.79910 0.82690 0.02320 0.02000
C 	C 	0.84290 0.92410 0.97710 0.03400
C 	C 	0.86140 0.96160 0.04900 0.02400
N 	N 	0.85960 0.95850 0.18010 -0.22800
N 	N 	0.82400 0.88880 0.04050 -0.22100
O 	O 	0.04989 0.81741 0.55340 -0.47100
O 	O 	0.06516 0.74614 0.48310 -0.53900
O 	O 	0.97019 0.81876 0.41370 -0.16500
O 	O 	0.89885 0.88152 0.36240 -0.35800
O 	O 	0.86600 0.82920 0.23650 -0.40400
O 	O 	0.76573 0.83034 0.22670 -0.47300
O 	O 	0.69451 0.85179 0.27910 -0.51100
Eu	Eu	0.10816 0.68331 0.53555 2.00800
C 	C 	0.15810 0.60150 0.56170 0.24300
C 	C 	0.19220 0.56660 0.58910 0.06100
C 	C 	0.23610 0.56310 0.54880 -0.07700
H 	H 	0.25220 0.58470 0.49810 0.07400
C 	C 	0.25330 0.52120 0.59650 -0.00200
H 	H 	0.28290 0.50860 0.58250 0.03400
C 	C 	0.21880 0.50280 0.66650 -0.02400
C 	C 	0.21740 0.45950 0.74020 0.42900
C 	C 	0.17590 0.77630 0.48200 0.43400
C 	C 	0.21720 0.79680 0.42520 -0.02100
C 	C 	0.22950 0.84140 0.40820 -0.02600
H 	H 	0.21300 0.86750 0.43650 0.05200
C 	C 	0.00900 0.62160 0.49730 0.06900
H 	H 	0.01190 0.62150 0.58740 0.01500
C 	C 	0.96970 0.60130 0.44300 -0.08500
H 	H 	0.94580 0.58930 0.49450 0.06700
C 	C 	0.96730 0.59960 0.30950 -0.03200
H 	H 	0.94190 0.58530 0.26960 0.04400
C 	C 	0.00210 0.61890 0.23430 0.00400
C 	C 	0.00250 0.61740 0.09730 -0.05400
H 	H 	0.97710 0.60460 0.05330 0.06000
C 	C 	0.03710 0.63320 0.03280 -0.04200
H 	H 	0.03650 0.63130 0.94260 0.06100
C 	C 	0.07570 0.65320 0.09250 -0.00200
C 	C 	0.11460 0.67000 0.02800 -0.02100
H 	H 	0.11520 0.66960 0.93760 0.04800
C 	C 	0.15150 0.68670 0.09240 -0.08900
H 	H 	0.17850 0.69620 0.04930 0.07200
C 	C 	0.14790 0.68910 0.22660 0.06700
H 	H 	0.17310 0.70090 0.27320 0.01900
C 	C 	0.07590 0.65710 0.22710 0.03600
C 	C 	0.03840 0.63860 0.29900 0.02300
N 	N 	0.04150 0.64040 0.43010 -0.22800
N 	N 	0.11120 0.67600 0.29050 -0.22200
O 	O 	0.18259 0.45011 0.80340 -0.47100
O 	O 	0.25386 0.43484 0.73310 -0.53900
O 	O 	0.18124 0.52981 0.66370 -0.16500
O 	O 	0.11848 0.60115 0.61240 -0.35800
O 	O 	0.17080 0.63400 0.48650 -0.40400
O 	O 	0.16966 0.73427 0.47670 -0.47300
O 	O 	0.14821 0.80549 0.52910 -0.51100
Eu	Eu	0.60816 0.18331 0.03555 2.00000
C 	C 	0.65810 0.10150 0.06170 0.23800
C 	C 	0.69220 0.06660 0.08910 0.06400
C 	C 	0.73610 0.06310 0.04880 -0.08500
H 	H 	0.75220 0.08470 0.99810 0.07800
C 	C 	0.75330 0.02120 0.09650 0.00200
H 	H 	0.78290 0.00860 0.08250 0.03300
C 	C 	0.71880 0.00280 0.16650 -0.02500
C 	C 	0.71740 0.95950 0.24020 0.43000
C 	C 	0.67590 0.27630 0.98200 0.43400
C 	C 	0.71720 0.29680 0.92520 -0.02100
C 	C 	0.72950 0.34140 0.90820 -0.02600
H 	H 	0.71300 0.36750 0.93650 0.05100
C 	C 	0.50900 0.12160 0.99730 0.08000
H 	H 	0.51190 0.12150 0.08740 0.00900
C 	C 	0.46970 0.10130 0.94300 -0.09200
H 	H 	0.44580 0.08930 0.99450 0.07000
C 	C 	0.46730 0.09960 0.80950 -0.02600
H 	H 	0.44190 0.08530 0.76960 0.04200
C 	C 	0.50210 0.11890 0.73430 -0.00300
C 	C 	0.50250 0.11740 0.59730 -0.04200
H 	H 	0.47710 0.10460 0.55330 0.05500
C 	C 	0.53710 0.13320 0.53280 -0.05900
H 	H 	0.53650 0.13130 0.44260 0.06900
C 	C 	0.57570 0.15320 0.59250 0.00800
C 	C 	0.61460 0.17000 0.52800 -0.03400
H 	H 	0.61520 0.16960 0.43760 0.05400
C 	C 	0.65150 0.18670 0.59240 -0.08100
H 	H 	0.67850 0.19620 0.54930 0.06900
C 	C 	0.64790 0.18910 0.72660 0.06300
H 	H 	0.67310 0.20090 0.77320 0.02100
C 	C 	0.57590 0.15710 0.72710 0.03200
C 	C 	0.53840 0.13860 0.79900 0.02800
N 	N 	0.54150 0.14040 0.93010 -0.22900
N 	N 	0.61120 0.17600 0.79050 -0.22000
O 	O 	0.68259 0.95011 0.30340 -0.47100
O 	O 	0.75386 0.93484 0.23310 -0.54000
O 	O 	0.68124 0.02981 0.16370 -0.16500
O 	O 	0.61848 0.10115 0.11240 -0.35800
O 	O 	0.67080 0.13400 0.98650 -0.40000
O 	O 	0.66966 0.23427 0.97670 -0.47200
O 	O 	0.64821 0.30549 0.02910 -0.51200
Eu	Eu	0.89184 0.31669 0.53555 2.00800
C 	C 	0.84190 0.39850 0.56170 0.24300
C 	C 	0.80780 0.43340 0.58910 0.06100
C 	C 	0.76390 0.43690 0.54880 -0.07700
H 	H 	0.74780 0.41530 0.49810 0.07400
C 	C 	0.74670 0.47880 0.59650 -0.00200
H 	H 	0.71710 0.49140 0.58250 0.03400
C 	C 	0.78120 0.49720 0.66650 -0.02400
C 	C 	0.78260 0.54050 0.74020 0.42900
C 	C 	0.82410 0.22370 0.48200 0.43400
C 	C 	0.78280 0.20320 0.42520 -0.02100
C 	C 	0.77050 0.15860 0.40820 -0.02600
H 	H 	0.78700 0.13250 0.43650 0.05200
C 	C 	0.99100 0.37840 0.49730 0.06900
H 	H 	0.98810 0.37850 0.58740 0.01500
C 	C 	0.03030 0.39870 0.44300 -0.08500
H 	H 	0.05420 0.41070 0.49450 0.06700
C 	C 	0.03270 0.40040 0.30950 -0.03200
H 	H 	0.05810 0.41470 0.26960 0.04400
C 	C 	0.99790 0.38110 0.23430 0.00400
C 	C 	0.99750 0.38260 0.09730 -0.05400
H 	H 	0.02290 0.39540 0.05330 0.06000
C 	C 	0.96290 0.36680 0.03280 -0.04200
H 	H 	0.96350 0.36870 0.94260 0.06100
C 	C 	0.92430 0.34680 0.09250 -0.00200
C 	C 	0.88540 0.33000 0.02800 -0.02100
H 	H 	0.88480 0.33040 0.93760 0.04800
C 	C 	0.84850 0.31330 0.09240 -0.08900
H 	H 	0.82150 0.30380 0.04930 0.07200
C 	C 	0.85210 0.31090 0.22660 0.06700
H 	H 	0.82690 0.29910 0.27320 0.01900
C 	C 	0.92410 0.34290 0.22710 0.03600
C 	C 	0.96160 0.36140 0.29900 0.02300
N 	N 	0.95850 0.35960 0.43010 -0.22800
N 	N 	0.88880 0.32400 0.29050 -0.22200
O 	O 	0.81741 0.54989 0.80340 -0.47100
O 	O 	0.74614 0.56516 0.73310 -0.53900
O 	O 	0.81876 0.47019 0.66370 -0.16500
O 	O 	0.88152 0.39885 0.61240 -0.35800
O 	O 	0.82920 0.36600 0.48650 -0.40400
O 	O 	0.83034 0.26573 0.47670 -0.47300
O 	O 	0.85179 0.19451 0.52910 -0.51100
Eu	Eu	0.39184 0.81669 0.03555 2.00000
C 	C 	0.34190 0.89850 0.06170 0.23800
C 	C 	0.30780 0.93340 0.08910 0.06400
C 	C 	0.26390 0.93690 0.04880 -0.08500
H 	H 	0.24780 0.91530 0.99810 0.07800
C 	C 	0.24670 0.97880 0.09650 0.00200
H 	H 	0.21710 0.99140 0.08250 0.03300
C 	C 	0.28120 0.99720 0.16650 -0.02500
C 	C 	0.28260 0.04050 0.24020 0.43000
C 	C 	0.32410 0.72370 0.98200 0.43400
C 	C 	0.28280 0.70320 0.92520 -0.02100
C 	C 	0.27050 0.65860 0.90820 -0.02600
H 	H 	0.28700 0.63250 0.93650 0.05100
C 	C 	0.49100 0.87840 0.99730 0.08000
H 	H 	0.48810 0.87850 0.08740 0.00900
C 	C 	0.53030 0.89870 0.94300 -0.09200
H 	H 	0.55420 0.91070 0.99450 0.07000
C 	C 	0.53270 0.90040 0.80950 -0.02600
H 	H 	0.55810 0.91470 0.76960 0.04200
C 	C 	0.49790 0.88110 0.73430 -0.00300
C 	C 	0.49750 0.88260 0.59730 -0.04200
H 	H 	0.52290 0.89540 0.55330 0.05500
C 	C 	0.46290 0.86680 0.53280 -0.05900
H 	H 	0.46350 0.86870 0.44260 0.06900
C 	C 	0.42430 0.84680 0.59250 0.00800
C 	C 	0.38540 0.83000 0.52800 -0.03400
H 	H 	0.38480 0.83040 0.43760 0.05400
C 	C 	0.34850 0.81330 0.59240 -0.08100
H 	H 	0.32150 0.80380 0.54930 0.06900
C 	C 	0.35210 0.81090 0.72660 0.06300
H 	H 	0.32690 0.79910 0.77320 0.02100
C 	C 	0.42410 0.84290 0.72710 0.03200
C 	C 	0.46160 0.86140 0.79900 0.02800
N 	N 	0.45850 0.85960 0.93010 -0.22900
N 	N 	0.38880 0.82400 0.79050 -0.22000
O 	O 	0.31741 0.04989 0.30340 -0.47100
O 	O 	0.24614 0.06516 0.23310 -0.54000
O 	O 	0.31876 0.97019 0.16370 -0.16500
O 	O 	0.38152 0.89885 0.11240 -0.35800
O 	O 	0.32920 0.86600 0.98650 -0.40000
O 	O 	0.33034 0.76573 0.97670 -0.47200
O 	O 	0.35179 0.69451 0.02910 -0.51200
Eu	Eu	0.81669 0.60816 0.96445 2.00000
C 	C 	0.89850 0.65810 0.93830 0.23800
C 	C 	0.93340 0.69220 0.91090 0.06400
C 	C 	0.93690 0.73610 0.95120 -0.08500
H 	H 	0.91530 0.75220 0.00190 0.07800
C 	C 	0.97880 0.75330 0.90350 0.00200
H 	H 	0.99140 0.78290 0.91750 0.03300
C 	C 	0.99720 0.71880 0.83350 -0.02500
C 	C 	0.04050 0.71740 0.75980 0.43000
C 	C 	0.72370 0.67590 0.01800 0.43400
C 	C 	0.70320 0.71720 0.07480 -0.02100
C 	C 	0.65860 0.72950 0.09180 -0.02600
H 	H 	0.63250 0.71300 0.06350 0.05100
C 	C 	0.87840 0.50900 0.00270 0.08000
H 	H 	0.87850 0.51190 0.91260 0.00900
C 	C 	0.89870 0.46970 0.05700 -0.09200
H 	H 	0.91070 0.44580 0.00550 0.07000
C 	C 	0.90040 0.46730 0.19050 -0.02600
H 	H 	0.91470 0.44190 0.23040 0.04200
C 	C 	0.88110 0.50210 0.26570 -0.00300
C 	C 	0.88260 0.50250 0.40270 -0.04200
H 	H 	0.89540 0.47710 0.44670 0.05500
C 	C 	0.86680 0.53710 0.46720 -0.05900
H 	H 	0.86870 0.53650 0.55740 0.06900
C 	C 	0.84680 0.57570 0.40750 0.00800
C 	C 	0.83000 0.61460 0.47200 -0.03400
H 	H 	0.83040 0.61520 0.56240 0.05400
C 	C 	0.81330 0.65150 0.40760 -0.08100
H 	H 	0.80380 0.67850 0.45070 0.06900
C 	C 	0.81090 0.64790 0.27340 0.06300
H 	H 	0.79910 0.67310 0.22680 0.02100
C 	C 	0.84290 0.57590 0.27290 0.03200
C 	C 	0.86140 0.53840 0.20100 0.02800
N 	N 	0.85960 0.54150 0.06990 -0.22900
N 	N 	0.82400 0.61120 0.20950 -0.22000
O 	O 	0.04989 0.68259 0.69660 -0.47100
O 	O 	0.06516 0.75386 0.76690 -0.54000
O 	O 	0.97019 0.68124 0.83630 -0.16500
O 	O 	0.89885 0.61848 0.88760 -0.35800
O 	O 	0.86600 0.67080 0.01350 -0.40000
O 	O 	0.76573 0.66966 0.02330 -0.47200
O 	O 	0.69451 0.64821 0.97090 -0.51200
Eu	Eu	0.31669 0.10816 0.46445 2.00800
C 	C 	0.39850 0.15810 0.43830 0.24300
C 	C 	0.43340 0.19220 0.41090 0.06100
C 	C 	0.43690 0.23610 0.45120 -0.07700
H 	H 	0.41530 0.25220 0.50190 0.07400
C 	C 	0.47880 0.25330 0.40350 -0.00200
H 	H 	0.49140 0.28290 0.41750 0.03400
C 	C 	0.49720 0.21880 0.33350 -0.02400
C 	C 	0.54050 0.21740 0.25980 0.42900
C 	C 	0.22370 0.17590 0.51800 0.43400
C 	C 	0.20320 0.21720 0.57480 -0.02100
C 	C 	0.15860 0.22950 0.59180 -0.02600
H 	H 	0.13250 0.21300 0.56350 0.05200
C 	C 	0.37840 0.00900 0.50270 0.06900
H 	H 	0.37850 0.01190 0.41260 0.01500
C 	C 	0.39870 0.96970 0.55700 -0.08500
H 	H 	0.41070 0.94580 0.50550 0.06700
C 	C 	0.40040 0.96730 0.69050 -0.03200
H 	H 	0.41470 0.94190 0.73040 0.04400
C 	C 	0.38110 0.00210 0.76570 0.00400
C 	C 	0.38260 0.00250 0.90270 -0.05400
H 	H 	0.39540 0.97710 0.94670 0.06000
C 	C 	0.36680 0.03710 0.96720 -0.04200
H 	H 	0.36870 0.03650 0.05740 0.06100
C 	C 	0.34680 0.07570 0.90750 -0.00200
C 	C 	0.33000 0.11460 0.97200 -0.02100
H 	H 	0.33040 0.11520 0.06240 0.04800
C 	C 	0.31330 0.15150 0.90760 -0.08900
H 	H 	0.30380 0.17850 0.95070 0.07200
C 	C 	0.31090 0.14790 0.77340 0.06700
H 	H 	0.29910 0.17310 0.72680 0.01900
C 	C 	0.34290 0.07590 0.77290 0.03600
C 	C 	0.36140 0.03840 0.70100 0.02300
N 	N 	0.35960 0.04150 0.56990 -0.22800
N 	N 	0.32400 0.11120 0.70950 -0.22200
O 	O 	0.54989 0.18259 0.19660 -0.47100
O 	O 	0.56516 0.25386 0.26690 -0.53900
O 	O 	0.47019 0.18124 0.33630 -0.16500
O 	O 	0.39885 0.11848 0.38760 -0.35800
O 	O 	0.36600 0.17080 0.51350 -0.40400
O 	O 	0.26573 0.16966 0.52330 -0.47300
O 	O 	0.19451 0.14821 0.47090 -0.51100
Eu	Eu	0.18331 0.39184 0.96445 2.00000
C 	C 	0.10150 0.34190 0.93830 0.23800
C 	C 	0.06660 0.30780 0.91090 0.06400
C 	C 	0.06310 0.26390 0.95120 -0.08500
H 	H 	0.08470 0.24780 0.00190 0.07800
C 	C 	0.02120 0.24670 0.90350 0.00200
H 	H 	0.00860 0.21710 0.91750 0.03300
C 	C 	0.00280 0.28120 0.83350 -0.02500
C 	C 	0.95950 0.28260 0.75980 0.43000
C 	C 	0.27630 0.32410 0.01800 0.43400
C 	C 	0.29680 0.28280 0.07480 -0.02100
C 	C 	0.34140 0.27050 0.09180 -0.02600
H 	H 	0.36750 0.28700 0.06350 0.05100
C 	C 	0.12160 0.49100 0.00270 0.08000
H 	H 	0.12150 0.48810 0.91260 0.00900
C 	C 	0.10130 0.53030 0.05700 -0.09200
H 	H 	0.08930 0.55420 0.00550 0.07000
C 	C 	0.09960 0.53270 0.19050 -0.02600
H 	H 	0.08530 0.55810 0.23040 0.04200
C 	C 	0.11890 0.49790 0.26570 -0.00300
C 	C 	0.11740 0.49750 0.40270 -0.04200
H 	H 	0.10460 0.52290 0.44670 0.05500
C 	C 	0.13320 0.46290 0.46720 -0.05900
H 	H 	0.13130 0.46350 0.55740 0.06900
C 	C 	0.15320 0.42430 0.40750 0.00800
C 	C 	0.17000 0.38540 0.47200 -0.03400
H 	H 	0.16960 0.38480 0.56240 0.05400
C 	C 	0.18670 0.34850 0.40760 -0.08100
H 	H 	0.19620 0.32150 0.45070 0.06900
C 	C 	0.18910 0.35210 0.27340 0.06300
H 	H 	0.20090 0.32690 0.22680 0.02100
C 	C 	0.15710 0.42410 0.27290 0.03200
C 	C 	0.13860 0.46160 0.20100 0.02800
N 	N 	0.14040 0.45850 0.06990 -0.22900
N 	N 	0.17600 0.38880 0.20950 -0.22000
O 	O 	0.95011 0.31741 0.69660 -0.47100
O 	O 	0.93484 0.24614 0.76690 -0.54000
O 	O 	0.02981 0.31876 0.83630 -0.16500
O 	O 	0.10115 0.38152 0.88760 -0.35800
O 	O 	0.13400 0.32920 0.01350 -0.40000
O 	O 	0.23427 0.33034 0.02330 -0.47200
O 	O 	0.30549 0.35179 0.97090 -0.51200
Eu	Eu	0.68331 0.89184 0.46445 2.00800
C 	C 	0.60150 0.84190 0.43830 0.24300
C 	C 	0.56660 0.80780 0.41090 0.06100
C 	C 	0.56310 0.76390 0.45120 -0.07700
H 	H 	0.58470 0.74780 0.50190 0.07400
C 	C 	0.52120 0.74670 0.40350 -0.00200
H 	H 	0.50860 0.71710 0.41750 0.03400
C 	C 	0.50280 0.78120 0.33350 -0.02400
C 	C 	0.45950 0.78260 0.25980 0.42900
C 	C 	0.77630 0.82410 0.51800 0.43400
C 	C 	0.79680 0.78280 0.57480 -0.02100
C 	C 	0.84140 0.77050 0.59180 -0.02600
H 	H 	0.86750 0.78700 0.56350 0.05200
C 	C 	0.62160 0.99100 0.50270 0.06900
H 	H 	0.62150 0.98810 0.41260 0.01500
C 	C 	0.60130 0.03030 0.55700 -0.08500
H 	H 	0.58930 0.05420 0.50550 0.06700
C 	C 	0.59960 0.03270 0.69050 -0.03200
H 	H 	0.58530 0.05810 0.73040 0.04400
C 	C 	0.61890 0.99790 0.76570 0.00400
C 	C 	0.61740 0.99750 0.90270 -0.05400
H 	H 	0.60460 0.02290 0.94670 0.06000
C 	C 	0.63320 0.96290 0.96720 -0.04200
H 	H 	0.63130 0.96350 0.05740 0.06100
C 	C 	0.65320 0.92430 0.90750 -0.00200
C 	C 	0.67000 0.88540 0.97200 -0.02100
H 	H 	0.66960 0.88480 0.06240 0.04800
C 	C 	0.68670 0.84850 0.90760 -0.08900
H 	H 	0.69620 0.82150 0.95070 0.07200
C 	C 	0.68910 0.85210 0.77340 0.06700
H 	H 	0.70090 0.82690 0.72680 0.01900
C 	C 	0.65710 0.92410 0.77290 0.03600
C 	C 	0.63860 0.96160 0.70100 0.02300
N 	N 	0.64040 0.95850 0.56990 -0.22800
N 	N 	0.67600 0.88880 0.70950 -0.22200
O 	O 	0.45011 0.81741 0.19660 -0.47100
O 	O 	0.43484 0.74614 0.26690 -0.53900
O 	O 	0.52981 0.81876 0.33630 -0.16500
O 	O 	0.60115 0.88152 0.38760 -0.35800
O 	O 	0.63400 0.82920 0.51350 -0.40400
O 	O 	0.73427 0.83034 0.52330 -0.47300
O 	O 	0.80549 0.85179 0.47090 -0.51100
O 	O 	0.25000 0.76920 0.37500 -0.14700
O 	O 	0.75000 0.26920 0.87500 -0.14700
O 	O 	0.75000 0.23080 0.37500 -0.14700
O 	O 	0.25000 0.73080 0.87500 -0.14700
O 	O 	0.76920 0.75000 0.62500 -0.14700
O 	O 	0.23080 0.25000 0.62500 -0.14700
O 	O 	0.73080 0.75000 0.12500 -0.14700
O 	O 	0.26920 0.25000 0.12500 -0.14700
