data_crystal

_cell_length_a 13.61320
_cell_length_b 18.02610
_cell_length_c 22.94500
_cell_angle_alpha 69.57400
_cell_angle_beta  88.89900
_cell_angle_gamma 89.14700

_symmetry_space_group_name_	'P 1'
_symmetry_space_group_name_H-M	'P 1'

loop_
_symmetry_equiv_pos_as_xyz
  x,y,z

loop_
_atom_site_label
_atom_site_type_symbol
_atom_site_fract_x
_atom_site_fract_y
_atom_site_fract_z
_atom_site_charge
Mg	Mg	0.91179 0.79426 0.39759 1.44900
Mg	Mg	0.12418 0.86681 0.25039 1.48400
Mg	Mg	0.34246 0.94376 0.10503 1.45000
Mg	Mg	0.60702 0.69053 0.61170 1.44900
Mg	Mg	0.37601 0.63236 0.75093 1.48500
Mg	Mg	0.14780 0.56977 0.89026 1.45000
O 	O 	0.04652 0.83785 0.40443 -0.56900
O 	O 	0.16576 0.82400 0.34109 -0.50100
O 	O 	0.47113 0.65929 0.59352 -0.57000
O 	O 	0.34944 0.66705 0.65819 -0.50600
O 	O 	0.34043 0.78134 0.38177 -0.47000
H 	H 	0.29700 0.79400 0.35740 0.31400
O 	O 	0.17636 0.71824 0.61661 -0.50300
H 	H 	0.21800 0.70100 0.64030 0.33600
O 	O 	0.87627 0.89513 0.32491 -0.56400
O 	O 	0.00373 0.93261 0.25854 -0.50300
O 	O 	0.73573 0.29041 0.25039 -0.51500
O 	O 	0.86149 0.32613 0.18231 -0.58300
O 	O 	0.02405 0.07798 0.18795 -0.39900
H 	H 	0.04000 0.03000 0.20750 0.25300
O 	O 	0.71290 0.14290 0.32063 -0.47400
H 	H 	0.70900 0.18900 0.30480 0.31800
O 	O 	0.04662 0.26899 0.65676 -0.58800
O 	O 	0.95731 0.22905 0.74459 -0.50200
O 	O 	0.28694 0.54039 0.75617 -0.51200
O 	O 	0.20119 0.49857 0.84501 -0.58800
O 	O 	0.98612 0.28631 0.83088 -0.36700
H 	H 	0.96000 0.26000 0.80840 0.23800
O 	O 	0.25608 0.48450 0.66927 -0.40900
H 	H 	0.28500 0.50900 0.68990 0.26100
O 	O 	0.20340 0.96385 0.24678 -0.50300
O 	O 	0.29271 0.00416 0.15906 -0.59100
O 	O 	0.44662 0.23482 0.34564 -0.58000
O 	O 	0.53339 0.27508 0.25702 -0.50400
O 	O 	0.23460 0.02026 0.33341 -0.36700
H 	H 	0.20200 0.99200 0.31390 0.22900
O 	O 	0.50393 0.21820 0.17107 -0.38100
H 	H 	0.52900 0.24500 0.19280 0.24700
O 	O 	0.08769 0.90934 0.15855 -0.50000
O 	O 	0.20919 0.90326 0.09340 -0.57000
O 	O 	0.91288 0.95180 0.11718 -0.50400
H 	H 	0.95600 0.94000 0.13990 0.34200
O 	O 	0.40439 0.59985 0.84375 -0.50500
O 	O 	0.28449 0.59627 0.91262 -0.56500
O 	O 	0.58054 0.54862 0.88105 -0.54600
H 	H 	0.53800 0.55800 0.85970 0.37600
O 	O 	0.62238 0.59361 0.69141 -0.57300
O 	O 	0.48919 0.55634 0.75274 -0.50900
O 	O 	0.75748 0.19871 0.76090 -0.50900
O 	O 	0.62660 0.16116 0.82458 -0.56100
O 	O 	0.46302 0.40883 0.82098 -0.37500
H 	H 	0.44300 0.45700 0.79890 0.23200
O 	O 	0.79035 0.34728 0.69968 -0.41800
H 	H 	0.79700 0.29800 0.71380 0.26600
C 	C 	0.13160 0.81798 0.39432 0.46000
C 	C 	0.19910 0.78379 0.44765 -0.18700
C 	C 	0.29780 0.76704 0.43914 0.24400
C 	C 	0.35530 0.73270 0.49104 -0.08200
H 	H 	0.42090 0.72110 0.48540 0.05500
C 	C 	0.31810 0.71508 0.55132 -0.19300
C 	C 	0.21940 0.73302 0.55966 0.25800
C 	C 	0.16170 0.76738 0.50791 -0.09300
H 	H 	0.09640 0.77980 0.51340 0.05200
C 	C 	0.38500 0.67774 0.60466 0.47200
C 	C 	0.92800 0.94630 0.28545 0.46400
C 	C 	0.89810 0.03165 0.26846 -0.16300
C 	C 	0.94680 0.09200 0.22148 0.21900
C 	C 	0.91700 0.16980 0.20819 -0.06800
H 	H 	0.94990 0.20970 0.17710 0.05900
C 	C 	0.83940 0.18995 0.24004 -0.19200
C 	C 	0.79010 0.12970 0.28733 0.24800
C 	C 	0.82120 0.05210 0.30092 -0.09300
H 	H 	0.78970 0.01230 0.33280 0.07300
C 	C 	0.81060 0.27590 0.22252 0.48700
C 	C 	0.02220 0.27236 0.70850 0.47800
C 	C 	0.07190 0.33058 0.73064 -0.17300
C 	C 	0.05270 0.33390 0.78995 0.20100
C 	C 	0.10400 0.38790 0.80892 -0.06100
H 	H 	0.09260 0.38940 0.84860 0.04300
C 	C 	0.17190 0.43938 0.76985 -0.19500
C 	C 	0.19060 0.43605 0.71044 0.23000
C 	C 	0.13950 0.38320 0.69163 -0.08900
H 	H 	0.15020 0.38260 0.65170 0.05500
C 	C 	0.22340 0.49684 0.79253 0.48300
C 	C 	0.26820 0.00690 0.21092 0.48700
C 	C 	0.31860 0.06501 0.23302 -0.18400
C 	C 	0.30060 0.06847 0.29256 0.22000
C 	C 	0.35160 0.12214 0.31084 -0.07900
H 	H 	0.34010 0.12410 0.35040 0.05300
C 	C 	0.41990 0.17356 0.27155 -0.18000
C 	C 	0.43780 0.17060 0.21221 0.21400
C 	C 	0.38620 0.11660 0.19380 -0.06900
H 	H 	0.39730 0.11500 0.15410 0.04700
C 	C 	0.47000 0.23198 0.29370 0.48400
C 	C 	0.12410 0.92177 0.10482 0.46700
C 	C 	0.05830 0.96159 0.05165 -0.18700
C 	C 	0.95820 0.97490 0.06001 0.24100
C 	C 	0.90140 0.01239 0.00875 -0.07900
H 	H 	0.83480 0.02060 0.01440 0.04800
C 	C 	0.37050 0.58236 0.89847 0.47400
C 	C 	0.43920 0.54091 0.95010 -0.19100
C 	C 	0.53800 0.52572 0.93903 0.26500
C 	C 	0.40310 0.51491 0.01105 -0.09000
H 	H 	0.33780 0.52510 0.01850 0.06300
C 	C 	0.56840 0.54255 0.72878 0.47900
C 	C 	0.59820 0.45715 0.74682 -0.17300
C 	C 	0.54460 0.39590 0.79027 0.21700
C 	C 	0.57390 0.31811 0.80258 -0.07500
H 	H 	0.53820 0.27780 0.83150 0.06300
C 	C 	0.65490 0.29833 0.77308 -0.17900
C 	C 	0.70930 0.35960 0.73049 0.23100
C 	C 	0.68010 0.43736 0.71839 -0.08300
H 	H 	0.71660 0.47770 0.69020 0.06100
C 	C 	0.68160 0.21272 0.78768 0.47300
Mg	Mg	0.08821 0.20574 0.60241 1.44800
Mg	Mg	0.87582 0.13319 0.74961 1.48300
Mg	Mg	0.65754 0.05624 0.89497 1.44900
Mg	Mg	0.39298 0.30947 0.38830 1.44800
Mg	Mg	0.62399 0.36764 0.24907 1.48400
Mg	Mg	0.85220 0.43023 0.10974 1.44900
O 	O 	0.95348 0.16215 0.59557 -0.57000
O 	O 	0.83424 0.17600 0.65891 -0.50200
O 	O 	0.52887 0.34071 0.40648 -0.57100
O 	O 	0.65056 0.33295 0.34181 -0.50700
O 	O 	0.65957 0.21866 0.61823 -0.47000
H 	H 	0.70300 0.20600 0.64260 0.31400
O 	O 	0.82364 0.28176 0.38339 -0.50300
H 	H 	0.78200 0.29900 0.35970 0.33600
O 	O 	0.12373 0.10487 0.67509 -0.56400
O 	O 	0.99627 0.06739 0.74146 -0.50300
O 	O 	0.26427 0.70959 0.74961 -0.51500
O 	O 	0.13851 0.67387 0.81769 -0.58300
O 	O 	0.97595 0.92202 0.81205 -0.39900
H 	H 	0.96000 0.97000 0.79250 0.25300
O 	O 	0.28710 0.85710 0.67937 -0.47400
H 	H 	0.29100 0.81100 0.69520 0.31800
O 	O 	0.95338 0.73101 0.34324 -0.58800
O 	O 	0.04269 0.77095 0.25541 -0.50200
O 	O 	0.71306 0.45961 0.24383 -0.51200
O 	O 	0.79881 0.50143 0.15499 -0.58800
O 	O 	0.01388 0.71369 0.16912 -0.36700
H 	H 	0.04000 0.74000 0.19160 0.23800
O 	O 	0.74392 0.51550 0.33073 -0.40900
H 	H 	0.71500 0.49100 0.31010 0.26100
O 	O 	0.79660 0.03615 0.75322 -0.50300
O 	O 	0.70729 0.99584 0.84094 -0.59100
O 	O 	0.55338 0.76518 0.65436 -0.58000
O 	O 	0.46661 0.72492 0.74298 -0.50400
O 	O 	0.76540 0.97974 0.66659 -0.36700
H 	H 	0.79800 0.00800 0.68610 0.22900
O 	O 	0.49607 0.78180 0.82893 -0.38100
H 	H 	0.47100 0.75500 0.80720 0.24700
O 	O 	0.91231 0.09066 0.84145 -0.50000
O 	O 	0.79081 0.09674 0.90660 -0.57000
O 	O 	0.08712 0.04820 0.88282 -0.50400
H 	H 	0.04400 0.06000 0.86010 0.34200
O 	O 	0.59561 0.40015 0.15625 -0.50500
O 	O 	0.71551 0.40373 0.08738 -0.56500
O 	O 	0.41946 0.45138 0.11895 -0.54600
H 	H 	0.46200 0.44200 0.14030 0.37600
O 	O 	0.37762 0.40639 0.30859 -0.57300
O 	O 	0.51081 0.44366 0.24726 -0.50900
O 	O 	0.24252 0.80129 0.23910 -0.50900
O 	O 	0.37340 0.83884 0.17542 -0.56100
O 	O 	0.53698 0.59117 0.17902 -0.37500
H 	H 	0.55700 0.54300 0.20110 0.23200
O 	O 	0.20965 0.65272 0.30032 -0.41800
H 	H 	0.20300 0.70200 0.28620 0.26600
C 	C 	0.86840 0.18202 0.60568 0.46000
C 	C 	0.80090 0.21621 0.55235 -0.18700
C 	C 	0.70220 0.23296 0.56086 0.24400
C 	C 	0.64470 0.26730 0.50896 -0.08200
H 	H 	0.57910 0.27890 0.51460 0.05500
C 	C 	0.68190 0.28492 0.44868 -0.19300
C 	C 	0.78060 0.26698 0.44034 0.25800
C 	C 	0.83830 0.23262 0.49209 -0.09300
H 	H 	0.90360 0.22020 0.48660 0.05200
C 	C 	0.61500 0.32226 0.39534 0.47200
C 	C 	0.07200 0.05370 0.71455 0.46400
C 	C 	0.10190 0.96835 0.73154 -0.16300
C 	C 	0.05320 0.90800 0.77852 0.21900
C 	C 	0.08300 0.83020 0.79181 -0.06800
H 	H 	0.05010 0.79030 0.82290 0.05900
C 	C 	0.16060 0.81005 0.75996 -0.19200
C 	C 	0.20990 0.87030 0.71267 0.24800
C 	C 	0.17880 0.94790 0.69908 -0.09300
H 	H 	0.21030 0.98770 0.66720 0.07300
C 	C 	0.18940 0.72410 0.77748 0.48700
C 	C 	0.97780 0.72764 0.29150 0.47800
C 	C 	0.92810 0.66942 0.26936 -0.17300
C 	C 	0.94730 0.66610 0.21005 0.20100
C 	C 	0.89600 0.61210 0.19108 -0.06100
H 	H 	0.90740 0.61060 0.15140 0.04300
C 	C 	0.82810 0.56062 0.23015 -0.19500
C 	C 	0.80940 0.56395 0.28956 0.23000
C 	C 	0.86050 0.61680 0.30837 -0.08900
H 	H 	0.84980 0.61740 0.34830 0.05500
C 	C 	0.77660 0.50316 0.20747 0.48300
C 	C 	0.73180 0.99310 0.78908 0.48700
C 	C 	0.68140 0.93499 0.76698 -0.18400
C 	C 	0.69940 0.93153 0.70744 0.22000
C 	C 	0.64840 0.87786 0.68916 -0.07900
H 	H 	0.65990 0.87590 0.64960 0.05300
C 	C 	0.58010 0.82644 0.72845 -0.18000
C 	C 	0.56220 0.82940 0.78779 0.21400
C 	C 	0.61380 0.88340 0.80620 -0.06900
H 	H 	0.60270 0.88500 0.84590 0.04700
C 	C 	0.53000 0.76802 0.70630 0.48400
C 	C 	0.87590 0.07823 0.89518 0.46700
C 	C 	0.94170 0.03841 0.94835 -0.18700
C 	C 	0.04180 0.02510 0.93999 0.24100
C 	C 	0.09860 0.98761 0.99125 -0.07900
H 	H 	0.16520 0.97940 0.98560 0.04800
C 	C 	0.62950 0.41764 0.10153 0.47400
C 	C 	0.56080 0.45909 0.04990 -0.19100
C 	C 	0.46200 0.47428 0.06097 0.26500
C 	C 	0.59690 0.48509 0.98895 -0.09000
H 	H 	0.66220 0.47490 0.98150 0.06300
C 	C 	0.43160 0.45745 0.27122 0.47900
C 	C 	0.40180 0.54285 0.25318 -0.17300
C 	C 	0.45540 0.60410 0.20973 0.21700
C 	C 	0.42610 0.68189 0.19742 -0.07500
H 	H 	0.46180 0.72220 0.16850 0.06300
C 	C 	0.34510 0.70167 0.22692 -0.17900
C 	C 	0.29070 0.64040 0.26951 0.23100
C 	C 	0.31990 0.56264 0.28161 -0.08300
H 	H 	0.28340 0.52230 0.30980 0.06100
C 	C 	0.31840 0.78728 0.21232 0.47300
