data_crystal

_cell_length_a 27.08300
_cell_length_b 27.08300
_cell_length_c 27.08300
_cell_angle_alpha 90.00000
_cell_angle_beta  90.00000
_cell_angle_gamma 90.00000

_symmetry_space_group_name_	'P 1'
_symmetry_space_group_name_H-M	'P 1'

loop_
_symmetry_equiv_pos_as_xyz
  x,y,z

loop_
_atom_site_label
_atom_site_type_symbol
_atom_site_fract_x
_atom_site_fract_y
_atom_site_fract_z
_atom_site_charge
O 	O 	0.17290 0.08000 0.45330 -0.26100
O 	O 	0.18530 0.98070 0.44210 -0.41300
C 	C 	0.23470 0.10260 0.60940 -0.27100
O 	O 	0.21120 0.17530 0.56380 -0.30700
C 	C 	0.16630 0.13160 0.44860 0.28300
C 	C 	0.15050 0.05770 0.57660 0.27200
H 	H 	0.11880 0.04270 0.56770 -0.11300
C 	C 	0.20080 0.12810 0.57860 0.25600
C 	C 	0.13980 0.15500 0.48270 -0.26200
C 	C 	0.13510 0.05390 0.43090 -0.12800
H 	H 	0.13030 0.06620 0.39760 0.03900
H 	H 	0.10470 0.05910 0.44920 0.04900
C 	C 	0.16870 0.97800 0.62240 1.25200
C 	C 	0.12990 0.20450 0.47350 0.30300
H 	H 	0.11130 0.22240 0.49620 -0.13000
C 	C 	0.18650 0.15340 0.40760 -0.32000
C 	C 	0.18210 0.03020 0.60710 -0.64100
C 	C 	0.15840 0.10320 0.56180 -0.26900
C 	C 	0.22270 0.05280 0.62070 0.30400
H 	H 	0.24350 0.03600 0.64500 -0.11300
O 	O 	0.10900 0.97370 0.40830 -0.45100
C 	C 	0.14690 0.99770 0.42910 0.33800
C 	C 	0.14760 0.22870 0.42960 -0.68800
C 	C 	0.17440 0.20330 0.39980 0.44500
H 	H 	0.18640 0.21870 0.37160 -0.17900
C 	C 	0.11960 0.13170 0.52940 0.13400
H 	H 	0.09360 0.10880 0.52020 -0.04500
H 	H 	0.10480 0.15740 0.54940 -0.04900
C 	C 	0.18440 0.31290 0.42410 -1.74000
H 	H 	0.17910 0.34770 0.41980 0.51000
H 	H 	0.20490 0.30080 0.39790 0.52600
H 	H 	0.20020 0.30710 0.45530 0.51500
C 	C 	0.21780 0.12770 0.37300 0.19900
H 	H 	0.22700 0.15120 0.34760 -0.05900
H 	H 	0.19780 0.10260 0.35720 -0.06000
C 	C 	0.18070 0.94450 0.57580 -1.57000
H 	H 	0.16000 0.95410 0.54870 0.48500
H 	H 	0.17470 0.91050 0.58380 0.46800
H 	H 	0.21470 0.94860 0.56670 0.46200
C 	C 	0.20240 0.95820 0.66610 -1.52800
H 	H 	0.19270 0.92520 0.67450 0.43200
H 	H 	0.19850 0.97920 0.69440 0.42600
H 	H 	0.23630 0.95840 0.65590 0.45200
C 	C 	0.09250 0.30440 0.45580 -2.17100
H 	H 	0.08650 0.33830 0.44750 0.62400
H 	H 	0.10330 0.30220 0.48950 0.63200
H 	H 	0.06260 0.28580 0.45180 0.61300
C 	C 	0.11260 0.28630 0.37340 -2.30500
H 	H 	0.10190 0.31940 0.36630 0.68600
H 	H 	0.08510 0.26410 0.37020 0.65700
H 	H 	0.13810 0.27700 0.35080 0.69600
C 	C 	0.11840 0.96880 0.63580 -1.96300
H 	H 	0.09700 0.97930 0.60950 0.58600
H 	H 	0.11050 0.98680 0.66530 0.55000
H 	H 	0.11380 0.93410 0.64150 0.58600
C 	C 	0.13120 0.28410 0.42300 1.55500
C 	C 	0.19850 0.21310 0.58740 0.24800
H 	H 	0.20880 0.24200 0.56980 -0.07600
H 	H 	0.21370 0.21260 0.61940 -0.07500
H 	H 	0.16330 0.21340 0.59110 -0.08100
O 	O 	0.67290 0.58000 0.95330 -0.25900
O 	O 	0.68530 0.48070 0.94210 -0.41100
C 	C 	0.73470 0.60260 0.10940 -0.26200
O 	O 	0.71120 0.67530 0.06380 -0.30900
C 	C 	0.66630 0.63160 0.94860 0.27600
C 	C 	0.65050 0.55770 0.07660 0.25000
H 	H 	0.61880 0.54270 0.06770 -0.10500
C 	C 	0.70080 0.62810 0.07860 0.24700
C 	C 	0.63980 0.65500 0.98270 -0.24700
C 	C 	0.63510 0.55390 0.93090 -0.11900
H 	H 	0.63030 0.56620 0.89760 0.03600
H 	H 	0.60470 0.55910 0.94920 0.05000
C 	C 	0.66870 0.47800 0.12240 1.19900
C 	C 	0.62990 0.70450 0.97350 0.29800
H 	H 	0.61130 0.72240 0.99620 -0.12500
C 	C 	0.68650 0.65340 0.90760 -0.31600
C 	C 	0.68210 0.53020 0.10710 -0.60500
C 	C 	0.65840 0.60320 0.06180 -0.25600
C 	C 	0.72270 0.55280 0.12070 0.28300
H 	H 	0.74350 0.53600 0.14500 -0.10400
O 	O 	0.60900 0.47370 0.90830 -0.45100
C 	C 	0.64690 0.49770 0.92910 0.33000
C 	C 	0.64760 0.72870 0.92960 -0.69000
C 	C 	0.67440 0.70330 0.89980 0.44300
H 	H 	0.68640 0.71870 0.87160 -0.17900
C 	C 	0.61960 0.63170 0.02940 0.11300
H 	H 	0.59360 0.60880 0.02020 -0.04100
H 	H 	0.60480 0.65740 0.04940 -0.04500
C 	C 	0.68440 0.81290 0.92410 -1.75700
H 	H 	0.67910 0.84770 0.91980 0.51700
H 	H 	0.70490 0.80080 0.89790 0.53100
H 	H 	0.70020 0.80710 0.95530 0.52300
C 	C 	0.71780 0.62770 0.87300 0.19200
H 	H 	0.72700 0.65120 0.84760 -0.05800
H 	H 	0.69780 0.60260 0.85720 -0.05800
C 	C 	0.68070 0.44450 0.07580 -1.51900
H 	H 	0.66000 0.45410 0.04870 0.46600
H 	H 	0.67470 0.41050 0.08380 0.45200
H 	H 	0.71470 0.44860 0.06670 0.44500
C 	C 	0.70240 0.45820 0.16610 -1.47600
H 	H 	0.69270 0.42520 0.17450 0.41600
H 	H 	0.69850 0.47920 0.19440 0.40800
H 	H 	0.73630 0.45840 0.15590 0.43500
C 	C 	0.59250 0.80440 0.95580 -2.19800
H 	H 	0.58650 0.83830 0.94750 0.63500
H 	H 	0.60330 0.80220 0.98950 0.64300
H 	H 	0.56260 0.78580 0.95180 0.62400
C 	C 	0.61260 0.78630 0.87340 -2.32500
H 	H 	0.60190 0.81940 0.86630 0.69200
H 	H 	0.58510 0.76410 0.87020 0.66300
H 	H 	0.63810 0.77700 0.85080 0.70100
C 	C 	0.61840 0.46880 0.13580 -1.89300
H 	H 	0.59700 0.47930 0.10950 0.56300
H 	H 	0.61050 0.48680 0.16530 0.52700
H 	H 	0.61380 0.43410 0.14150 0.56500
C 	C 	0.63120 0.78410 0.92300 1.57100
C 	C 	0.69850 0.71310 0.08740 0.25100
H 	H 	0.70880 0.74200 0.06980 -0.07800
H 	H 	0.71370 0.71260 0.11940 -0.07600
H 	H 	0.66330 0.71340 0.09110 -0.08400
O 	O 	0.32710 0.92000 0.95330 -0.25800
O 	O 	0.31470 0.01930 0.94210 -0.41100
C 	C 	0.26530 0.89740 0.10940 -0.25000
O 	O 	0.28880 0.82470 0.06380 -0.30600
C 	C 	0.33370 0.86840 0.94860 0.27200
C 	C 	0.34950 0.94230 0.07660 0.23200
H 	H 	0.38120 0.95730 0.06770 -0.09600
C 	C 	0.29920 0.87190 0.07860 0.23900
C 	C 	0.36020 0.84500 0.98270 -0.24200
C 	C 	0.36490 0.94610 0.93090 -0.10900
H 	H 	0.36970 0.93380 0.89760 0.03400
H 	H 	0.39530 0.94090 0.94920 0.04800
C 	C 	0.33130 0.02200 0.12240 1.15300
C 	C 	0.37010 0.79550 0.97350 0.29400
H 	H 	0.38870 0.77760 0.99620 -0.12400
C 	C 	0.31350 0.84660 0.90760 -0.31000
C 	C 	0.31790 0.96980 0.10710 -0.57300
C 	C 	0.34160 0.89680 0.06180 -0.24400
C 	C 	0.27730 0.94720 0.12070 0.26400
H 	H 	0.25650 0.96400 0.14500 -0.09400
O 	O 	0.39100 0.02630 0.90830 -0.45200
C 	C 	0.35310 0.00230 0.92910 0.32100
C 	C 	0.35240 0.77130 0.92960 -0.68500
C 	C 	0.32560 0.79670 0.89980 0.43800
H 	H 	0.31360 0.78130 0.87160 -0.17700
C 	C 	0.38040 0.86830 0.02940 0.10500
H 	H 	0.40640 0.89120 0.02020 -0.03800
H 	H 	0.39520 0.84260 0.04940 -0.04300
C 	C 	0.31560 0.68710 0.92410 -1.75000
H 	H 	0.32090 0.65230 0.91980 0.51400
H 	H 	0.29510 0.69920 0.89790 0.52900
H 	H 	0.29980 0.69290 0.95530 0.52000
C 	C 	0.28220 0.87230 0.87300 0.18300
H 	H 	0.27300 0.84880 0.84760 -0.05500
H 	H 	0.30220 0.89740 0.85720 -0.05500
C 	C 	0.31930 0.05550 0.07580 -1.47900
H 	H 	0.34000 0.04590 0.04870 0.45300
H 	H 	0.32530 0.08950 0.08380 0.44000
H 	H 	0.28530 0.05140 0.06670 0.43200
C 	C 	0.29760 0.04180 0.16610 -1.43300
H 	H 	0.30730 0.07480 0.17450 0.40400
H 	H 	0.30150 0.02080 0.19440 0.39200
H 	H 	0.26370 0.04160 0.15590 0.42000
C 	C 	0.40750 0.69560 0.95580 -2.18900
H 	H 	0.41350 0.66170 0.94750 0.63200
H 	H 	0.39670 0.69780 0.98950 0.64000
H 	H 	0.43740 0.71420 0.95180 0.62100
C 	C 	0.38740 0.71370 0.87340 -2.31700
H 	H 	0.39810 0.68060 0.86630 0.69000
H 	H 	0.41490 0.73590 0.87020 0.66100
H 	H 	0.36190 0.72300 0.85080 0.69900
C 	C 	0.38160 0.03120 0.13580 -1.83400
H 	H 	0.40300 0.02070 0.10950 0.54300
H 	H 	0.38950 0.01320 0.16530 0.50700
H 	H 	0.38620 0.06590 0.14150 0.54800
C 	C 	0.36880 0.71590 0.92300 1.56400
C 	C 	0.30150 0.78690 0.08740 0.24600
H 	H 	0.29120 0.75800 0.06980 -0.07700
H 	H 	0.28630 0.78740 0.11940 -0.07400
H 	H 	0.33670 0.78660 0.09110 -0.08200
O 	O 	0.82710 0.42000 0.45330 -0.26300
O 	O 	0.81470 0.51930 0.44210 -0.41300
C 	C 	0.76530 0.39740 0.60940 -0.26200
O 	O 	0.78880 0.32470 0.56380 -0.30500
C 	C 	0.83370 0.36840 0.44860 0.28100
C 	C 	0.84950 0.44230 0.57660 0.25300
H 	H 	0.88120 0.45730 0.56770 -0.10500
C 	C 	0.79920 0.37190 0.57860 0.24800
C 	C 	0.86020 0.34500 0.48270 -0.26000
C 	C 	0.86490 0.44610 0.43090 -0.11700
H 	H 	0.86970 0.43380 0.39760 0.03500
H 	H 	0.89530 0.44090 0.44920 0.04800
C 	C 	0.83130 0.52200 0.62240 1.20600
C 	C 	0.87010 0.29550 0.47350 0.30300
H 	H 	0.88870 0.27760 0.49620 -0.12900
C 	C 	0.81350 0.34660 0.40760 -0.32000
C 	C 	0.81790 0.46980 0.60710 -0.60900
C 	C 	0.84160 0.39680 0.56180 -0.25800
C 	C 	0.77730 0.44720 0.62070 0.28500
H 	H 	0.75650 0.46400 0.64500 -0.10400
O 	O 	0.89100 0.52630 0.40830 -0.45200
C 	C 	0.85310 0.50230 0.42910 0.32900
C 	C 	0.85240 0.27130 0.42960 -0.69300
C 	C 	0.82560 0.29670 0.39980 0.44600
H 	H 	0.81360 0.28130 0.37160 -0.18000
C 	C 	0.88040 0.36830 0.52940 0.12600
H 	H 	0.90640 0.39120 0.52020 -0.04100
H 	H 	0.89520 0.34260 0.54940 -0.04600
C 	C 	0.81560 0.18710 0.42410 -1.75100
H 	H 	0.82090 0.15230 0.41980 0.51300
H 	H 	0.79510 0.19920 0.39790 0.52900
H 	H 	0.79980 0.19290 0.45530 0.51800
C 	C 	0.78220 0.37230 0.37300 0.19400
H 	H 	0.77300 0.34880 0.34760 -0.05800
H 	H 	0.80220 0.39740 0.35720 -0.05900
C 	C 	0.81930 0.55550 0.57580 -1.53000
H 	H 	0.84000 0.54590 0.54870 0.47100
H 	H 	0.82530 0.58950 0.58380 0.45600
H 	H 	0.78530 0.55140 0.56670 0.44900
C 	C 	0.79760 0.54180 0.66610 -1.48300
H 	H 	0.80730 0.57480 0.67450 0.41800
H 	H 	0.80150 0.52080 0.69440 0.41000
H 	H 	0.76370 0.54160 0.65590 0.43700
C 	C 	0.90750 0.19560 0.45580 -2.19500
H 	H 	0.91350 0.16170 0.44750 0.63400
H 	H 	0.89670 0.19780 0.48950 0.64000
H 	H 	0.93740 0.21420 0.45180 0.62500
C 	C 	0.88740 0.21370 0.37340 -2.32400
H 	H 	0.89810 0.18060 0.36630 0.69300
H 	H 	0.91490 0.23590 0.37020 0.66400
H 	H 	0.86190 0.22300 0.35080 0.70100
C 	C 	0.88160 0.53120 0.63580 -1.90400
H 	H 	0.90300 0.52070 0.60950 0.56700
H 	H 	0.88950 0.51320 0.66530 0.53000
H 	H 	0.88620 0.56590 0.64150 0.56900
C 	C 	0.86880 0.21590 0.42300 1.56900
C 	C 	0.80150 0.28690 0.58740 0.24300
H 	H 	0.79120 0.25800 0.56980 -0.07400
H 	H 	0.78630 0.28740 0.61940 -0.07300
H 	H 	0.83670 0.28660 0.59110 -0.08000
O 	O 	0.82710 0.58000 0.04670 -0.26600
O 	O 	0.81470 0.48070 0.05790 -0.41500
C 	C 	0.76530 0.60260 0.89060 -0.26300
O 	O 	0.78880 0.67530 0.93620 -0.30000
C 	C 	0.83370 0.63160 0.05140 0.28600
C 	C 	0.84950 0.55770 0.92340 0.25700
H 	H 	0.88120 0.54270 0.93230 -0.10500
C 	C 	0.79920 0.62810 0.92140 0.24900
C 	C 	0.86020 0.65500 0.01730 -0.27300
C 	C 	0.86490 0.55390 0.06910 -0.11500
H 	H 	0.86970 0.56620 0.10240 0.03400
H 	H 	0.89530 0.55910 0.05080 0.04500
C 	C 	0.83130 0.47800 0.87760 1.21400
C 	C 	0.87010 0.70450 0.02650 0.30900
H 	H 	0.88870 0.72240 0.00380 -0.13300
C 	C 	0.81350 0.65340 0.09240 -0.32400
C 	C 	0.81790 0.53020 0.89290 -0.61300
C 	C 	0.84160 0.60320 0.93820 -0.26000
C 	C 	0.77730 0.55280 0.87930 0.28800
H 	H 	0.75650 0.53600 0.85500 -0.10500
O 	O 	0.89100 0.47370 0.09170 -0.45200
C 	C 	0.85310 0.49770 0.07090 0.32800
C 	C 	0.85240 0.72870 0.07040 -0.69700
C 	C 	0.82560 0.70330 0.10020 0.45000
H 	H 	0.81360 0.71870 0.12840 -0.18100
C 	C 	0.88040 0.63170 0.97060 0.14000
H 	H 	0.90640 0.60880 0.97980 -0.04100
H 	H 	0.89520 0.65740 0.95060 -0.04800
C 	C 	0.81560 0.81290 0.07590 -1.75000
H 	H 	0.82090 0.84770 0.08020 0.51300
H 	H 	0.79510 0.80080 0.10210 0.52900
H 	H 	0.79980 0.80710 0.04470 0.51700
C 	C 	0.78220 0.62770 0.12700 0.19600
H 	H 	0.77300 0.65120 0.15240 -0.05900
H 	H 	0.80220 0.60260 0.14280 -0.06000
C 	C 	0.81930 0.44450 0.92420 -1.54100
H 	H 	0.84000 0.45410 0.95130 0.47700
H 	H 	0.82530 0.41050 0.91620 0.46000
H 	H 	0.78530 0.44860 0.93330 0.45400
C 	C 	0.79760 0.45820 0.83390 -1.49000
H 	H 	0.80730 0.42520 0.82550 0.42100
H 	H 	0.80150 0.47920 0.80560 0.41200
H 	H 	0.76370 0.45840 0.84410 0.43900
C 	C 	0.90750 0.80440 0.04420 -2.19400
H 	H 	0.91350 0.83830 0.05250 0.63400
H 	H 	0.89670 0.80220 0.01050 0.63900
H 	H 	0.93740 0.78580 0.04820 0.62400
C 	C 	0.88740 0.78630 0.12660 -2.32400
H 	H 	0.89810 0.81940 0.13370 0.69300
H 	H 	0.91490 0.76410 0.12980 0.66400
H 	H 	0.86190 0.77700 0.14920 0.70100
C 	C 	0.88160 0.46880 0.86420 -1.91500
H 	H 	0.90300 0.47930 0.89050 0.57100
H 	H 	0.88950 0.48680 0.83470 0.53300
H 	H 	0.88620 0.43410 0.85850 0.57200
C 	C 	0.86880 0.78410 0.07700 1.56900
C 	C 	0.80150 0.71310 0.91260 0.23400
H 	H 	0.79120 0.74200 0.93020 -0.07000
H 	H 	0.78630 0.71260 0.88060 -0.07000
H 	H 	0.83670 0.71340 0.90890 -0.07600
O 	O 	0.32710 0.08000 0.54670 -0.26300
O 	O 	0.31470 0.98070 0.55790 -0.41400
C 	C 	0.26530 0.10260 0.39060 -0.27200
O 	O 	0.28880 0.17530 0.43620 -0.30700
C 	C 	0.33370 0.13160 0.55140 0.28300
C 	C 	0.34950 0.05770 0.42340 0.27100
H 	H 	0.38120 0.04270 0.43230 -0.11400
C 	C 	0.29920 0.12810 0.42140 0.25500
C 	C 	0.36020 0.15500 0.51730 -0.26300
C 	C 	0.36490 0.05390 0.56910 -0.12800
H 	H 	0.36970 0.06620 0.60240 0.03800
H 	H 	0.39530 0.05910 0.55080 0.04900
C 	C 	0.33130 0.97800 0.37760 1.25400
C 	C 	0.37010 0.20450 0.52650 0.30500
H 	H 	0.38870 0.22240 0.50380 -0.13000
C 	C 	0.31350 0.15340 0.59240 -0.32300
C 	C 	0.31790 0.03020 0.39290 -0.64100
C 	C 	0.34160 0.10320 0.43820 -0.26900
C 	C 	0.27730 0.05280 0.37930 0.30400
H 	H 	0.25650 0.03600 0.35500 -0.11300
O 	O 	0.39100 0.97370 0.59170 -0.45100
C 	C 	0.35310 0.99770 0.57090 0.33800
C 	C 	0.35240 0.22870 0.57040 -0.69300
C 	C 	0.32560 0.20330 0.60020 0.44800
H 	H 	0.31360 0.21870 0.62840 -0.18000
C 	C 	0.38040 0.13170 0.47060 0.13400
H 	H 	0.40640 0.10880 0.47980 -0.04400
H 	H 	0.39520 0.15740 0.45060 -0.04900
C 	C 	0.31560 0.31290 0.57590 -1.74800
H 	H 	0.32090 0.34770 0.58020 0.51300
H 	H 	0.29510 0.30080 0.60210 0.52800
H 	H 	0.29980 0.30710 0.54470 0.51800
C 	C 	0.28220 0.12770 0.62700 0.20100
H 	H 	0.27300 0.15120 0.65240 -0.06000
H 	H 	0.30220 0.10260 0.64280 -0.06200
C 	C 	0.31930 0.94450 0.42420 -1.57200
H 	H 	0.34000 0.95410 0.45130 0.48500
H 	H 	0.32530 0.91050 0.41620 0.46800
H 	H 	0.28530 0.94860 0.43330 0.46300
C 	C 	0.29760 0.95820 0.33390 -1.52900
H 	H 	0.30730 0.92520 0.32550 0.43200
H 	H 	0.30150 0.97920 0.30560 0.42700
H 	H 	0.26370 0.95840 0.34410 0.45200
C 	C 	0.40750 0.30440 0.54420 -2.18700
H 	H 	0.41350 0.33830 0.55250 0.63000
H 	H 	0.39670 0.30220 0.51050 0.63700
H 	H 	0.43740 0.28580 0.54820 0.62000
C 	C 	0.38740 0.28630 0.62660 -2.31800
H 	H 	0.39810 0.31940 0.63370 0.69000
H 	H 	0.41490 0.26410 0.62980 0.66100
H 	H 	0.36190 0.27700 0.64920 0.69900
C 	C 	0.38160 0.96880 0.36420 -1.96500
H 	H 	0.40300 0.97930 0.39050 0.58700
H 	H 	0.38950 0.98680 0.33470 0.55100
H 	H 	0.38620 0.93410 0.35850 0.58700
C 	C 	0.36880 0.28410 0.57700 1.56500
C 	C 	0.30150 0.21310 0.41260 0.24700
H 	H 	0.29120 0.24200 0.43020 -0.07500
H 	H 	0.28630 0.21260 0.38060 -0.07400
H 	H 	0.33670 0.21340 0.40890 -0.08100
O 	O 	0.67290 0.42000 0.54670 -0.26200
O 	O 	0.68530 0.51930 0.55790 -0.41300
C 	C 	0.73470 0.39740 0.39060 -0.26300
O 	O 	0.71120 0.32470 0.43620 -0.30500
C 	C 	0.66630 0.36840 0.55140 0.28000
C 	C 	0.65050 0.44230 0.42340 0.25300
H 	H 	0.61880 0.45730 0.43230 -0.10500
C 	C 	0.70080 0.37190 0.42140 0.24800
C 	C 	0.63980 0.34500 0.51730 -0.25900
C 	C 	0.63510 0.44610 0.56910 -0.11800
H 	H 	0.63030 0.43380 0.60240 0.03600
H 	H 	0.60470 0.44090 0.55080 0.04800
C 	C 	0.66870 0.52200 0.37760 1.20600
C 	C 	0.62990 0.29550 0.52650 0.30100
H 	H 	0.61130 0.27760 0.50380 -0.12900
C 	C 	0.68650 0.34660 0.59240 -0.31700
C 	C 	0.68210 0.46980 0.39290 -0.60900
C 	C 	0.65840 0.39680 0.43820 -0.25800
C 	C 	0.72270 0.44720 0.37930 0.28500
H 	H 	0.74350 0.46400 0.35500 -0.10400
O 	O 	0.60900 0.52630 0.59170 -0.45200
C 	C 	0.64690 0.50230 0.57090 0.32900
C 	C 	0.64760 0.27130 0.57040 -0.68800
C 	C 	0.67440 0.29670 0.60020 0.44300
H 	H 	0.68640 0.28130 0.62840 -0.17800
C 	C 	0.61960 0.36830 0.47060 0.12600
H 	H 	0.59360 0.39120 0.47980 -0.04100
H 	H 	0.60480 0.34260 0.45060 -0.04700
C 	C 	0.68440 0.18710 0.57590 -1.74100
H 	H 	0.67910 0.15230 0.58020 0.51000
H 	H 	0.70490 0.19920 0.60210 0.52600
H 	H 	0.70020 0.19290 0.54470 0.51500
C 	C 	0.71780 0.37230 0.62700 0.19200
H 	H 	0.72700 0.34880 0.65240 -0.05800
H 	H 	0.69780 0.39740 0.64280 -0.05800
C 	C 	0.68070 0.55550 0.42420 -1.52900
H 	H 	0.66000 0.54590 0.45130 0.47100
H 	H 	0.67470 0.58950 0.41620 0.45600
H 	H 	0.71470 0.55140 0.43330 0.44900
C 	C 	0.70240 0.54180 0.33390 -1.48300
H 	H 	0.69270 0.57480 0.32550 0.41800
H 	H 	0.69850 0.52080 0.30560 0.41000
H 	H 	0.73630 0.54160 0.34410 0.43700
C 	C 	0.59250 0.19560 0.54420 -2.17800
H 	H 	0.58650 0.16170 0.55250 0.62700
H 	H 	0.60330 0.19780 0.51050 0.63400
H 	H 	0.56260 0.21420 0.54820 0.61800
C 	C 	0.61260 0.21370 0.62660 -2.31000
H 	H 	0.60190 0.18060 0.63370 0.68800
H 	H 	0.58510 0.23590 0.62980 0.65900
H 	H 	0.63810 0.22300 0.64920 0.69700
C 	C 	0.61840 0.53120 0.36420 -1.90300
H 	H 	0.59700 0.52070 0.39050 0.56600
H 	H 	0.61050 0.51320 0.33470 0.53000
H 	H 	0.61380 0.56590 0.35850 0.56800
C 	C 	0.63120 0.21590 0.57700 1.55800
C 	C 	0.69850 0.28690 0.41260 0.24400
H 	H 	0.70880 0.25800 0.43020 -0.07500
H 	H 	0.71370 0.28740 0.38060 -0.07400
H 	H 	0.66330 0.28660 0.40890 -0.08000
O 	O 	0.17290 0.92000 0.04670 -0.26500
O 	O 	0.18530 0.01930 0.05790 -0.41400
C 	C 	0.23470 0.89740 0.89060 -0.25200
O 	O 	0.21120 0.82470 0.93620 -0.29800
C 	C 	0.16630 0.86840 0.05140 0.28000
C 	C 	0.15050 0.94230 0.92340 0.23900
H 	H 	0.11880 0.95730 0.93230 -0.09700
C 	C 	0.20080 0.87190 0.92140 0.24200
C 	C 	0.13980 0.84500 0.01730 -0.26600
C 	C 	0.13510 0.94610 0.06910 -0.10700
H 	H 	0.13030 0.93380 0.10240 0.03400
H 	H 	0.10470 0.94090 0.05080 0.04500
C 	C 	0.16870 0.02200 0.87760 1.16400
C 	C 	0.12990 0.79550 0.02650 0.30100
H 	H 	0.11130 0.77760 0.00380 -0.13100
C 	C 	0.18650 0.84660 0.09240 -0.31300
C 	C 	0.18210 0.96980 0.89290 -0.57900
C 	C 	0.15840 0.89680 0.93820 -0.24900
C 	C 	0.22270 0.94720 0.87930 0.26800
H 	H 	0.24350 0.96400 0.85500 -0.09600
O 	O 	0.10900 0.02630 0.09170 -0.45300
C 	C 	0.14690 0.00230 0.07090 0.32000
C 	C 	0.14760 0.77130 0.07040 -0.68200
C 	C 	0.17440 0.79670 0.10020 0.43800
H 	H 	0.18640 0.78130 0.12840 -0.17600
C 	C 	0.11960 0.86830 0.97060 0.13200
H 	H 	0.09360 0.89120 0.97980 -0.04000
H 	H 	0.10480 0.84260 0.95060 -0.04700
C 	C 	0.18440 0.68710 0.07590 -1.72600
H 	H 	0.17910 0.65230 0.08020 0.50600
H 	H 	0.20490 0.69920 0.10210 0.52100
H 	H 	0.20020 0.69290 0.04470 0.50900
C 	C 	0.21780 0.87230 0.12700 0.18400
H 	H 	0.22700 0.84880 0.15240 -0.05500
H 	H 	0.19780 0.89740 0.14280 -0.05500
C 	C 	0.18070 0.05550 0.92420 -1.49700
H 	H 	0.16000 0.04590 0.95130 0.46200
H 	H 	0.17470 0.08950 0.91620 0.44800
H 	H 	0.21470 0.05140 0.93330 0.44000
C 	C 	0.20240 0.04180 0.83390 -1.44300
H 	H 	0.19270 0.07480 0.82550 0.40700
H 	H 	0.19850 0.02080 0.80560 0.39500
H 	H 	0.23630 0.04160 0.84410 0.42300
C 	C 	0.09250 0.69560 0.04420 -2.15300
H 	H 	0.08650 0.66170 0.05250 0.61800
H 	H 	0.10330 0.69780 0.01050 0.62500
H 	H 	0.06260 0.71420 0.04820 0.60700
C 	C 	0.11260 0.71370 0.12660 -2.28900
H 	H 	0.10190 0.68060 0.13370 0.68100
H 	H 	0.08510 0.73590 0.12980 0.65200
H 	H 	0.13810 0.72300 0.14920 0.69100
C 	C 	0.11840 0.03120 0.86420 -1.84900
H 	H 	0.09700 0.02070 0.89050 0.54800
H 	H 	0.11050 0.01320 0.83470 0.51100
H 	H 	0.11380 0.06590 0.85850 0.55200
C 	C 	0.13120 0.71590 0.07700 1.54200
C 	C 	0.19850 0.78690 0.91260 0.23200
H 	H 	0.20880 0.75800 0.93020 -0.06900
H 	H 	0.21370 0.78740 0.88060 -0.07000
H 	H 	0.16330 0.78660 0.90890 -0.07600
O 	O 	0.45330 0.17290 0.08000 -0.26200
O 	O 	0.44210 0.18530 0.98070 -0.41400
C 	C 	0.60940 0.23470 0.10260 -0.27200
O 	O 	0.56380 0.21120 0.17530 -0.30800
C 	C 	0.44860 0.16630 0.13160 0.28200
C 	C 	0.57660 0.15050 0.05770 0.27100
H 	H 	0.56770 0.11880 0.04270 -0.11400
C 	C 	0.57860 0.20080 0.12810 0.25600
C 	C 	0.48270 0.13980 0.15500 -0.26200
C 	C 	0.43090 0.13510 0.05390 -0.12800
H 	H 	0.39760 0.13030 0.06620 0.03900
H 	H 	0.44920 0.10470 0.05910 0.04900
C 	C 	0.62240 0.16870 0.97800 1.25200
C 	C 	0.47350 0.12990 0.20450 0.30300
H 	H 	0.49620 0.11130 0.22240 -0.13000
C 	C 	0.40760 0.18650 0.15340 -0.32000
C 	C 	0.60710 0.18210 0.03020 -0.64100
C 	C 	0.56180 0.15840 0.10320 -0.26900
C 	C 	0.62070 0.22270 0.05280 0.30400
H 	H 	0.64500 0.24350 0.03600 -0.11300
O 	O 	0.40830 0.10900 0.97370 -0.45100
C 	C 	0.42910 0.14690 0.99770 0.33800
C 	C 	0.42960 0.14760 0.22870 -0.68800
C 	C 	0.39980 0.17440 0.20330 0.44500
H 	H 	0.37160 0.18640 0.21870 -0.17900
C 	C 	0.52940 0.11960 0.13170 0.13400
H 	H 	0.52020 0.09360 0.10880 -0.04500
H 	H 	0.54940 0.10480 0.15740 -0.04900
C 	C 	0.42410 0.18440 0.31290 -1.74000
H 	H 	0.41980 0.17910 0.34770 0.51000
H 	H 	0.39790 0.20490 0.30080 0.52600
H 	H 	0.45530 0.20020 0.30710 0.51500
C 	C 	0.37300 0.21780 0.12770 0.19900
H 	H 	0.34760 0.22700 0.15120 -0.05900
H 	H 	0.35720 0.19780 0.10260 -0.06000
C 	C 	0.57580 0.18070 0.94450 -1.57000
H 	H 	0.54870 0.16000 0.95410 0.48500
H 	H 	0.58380 0.17470 0.91050 0.46800
H 	H 	0.56670 0.21470 0.94860 0.46200
C 	C 	0.66610 0.20240 0.95820 -1.52800
H 	H 	0.67450 0.19270 0.92520 0.43200
H 	H 	0.69440 0.19850 0.97920 0.42600
H 	H 	0.65590 0.23630 0.95840 0.45200
C 	C 	0.45580 0.09250 0.30440 -2.17100
H 	H 	0.44750 0.08650 0.33830 0.62400
H 	H 	0.48950 0.10330 0.30220 0.63200
H 	H 	0.45180 0.06260 0.28580 0.61300
C 	C 	0.37340 0.11260 0.28630 -2.30500
H 	H 	0.36630 0.10190 0.31940 0.68600
H 	H 	0.37020 0.08510 0.26410 0.65700
H 	H 	0.35080 0.13810 0.27700 0.69600
C 	C 	0.63580 0.11840 0.96880 -1.96300
H 	H 	0.60950 0.09700 0.97930 0.58600
H 	H 	0.66530 0.11050 0.98680 0.55000
H 	H 	0.64150 0.11380 0.93410 0.58600
C 	C 	0.42300 0.13120 0.28410 1.55500
C 	C 	0.58740 0.19850 0.21310 0.24800
H 	H 	0.56980 0.20880 0.24200 -0.07600
H 	H 	0.61940 0.21370 0.21260 -0.07500
H 	H 	0.59110 0.16330 0.21340 -0.08100
O 	O 	0.95330 0.67290 0.58000 -0.25900
O 	O 	0.94210 0.68530 0.48070 -0.41100
C 	C 	0.10940 0.73470 0.60260 -0.26200
O 	O 	0.06380 0.71120 0.67530 -0.30900
C 	C 	0.94860 0.66630 0.63160 0.27600
C 	C 	0.07660 0.65050 0.55770 0.25000
H 	H 	0.06770 0.61880 0.54270 -0.10500
C 	C 	0.07860 0.70080 0.62810 0.24700
C 	C 	0.98270 0.63980 0.65500 -0.24700
C 	C 	0.93090 0.63510 0.55390 -0.11900
H 	H 	0.89760 0.63030 0.56620 0.03600
H 	H 	0.94920 0.60470 0.55910 0.05000
C 	C 	0.12240 0.66870 0.47800 1.19900
C 	C 	0.97350 0.62990 0.70450 0.29800
H 	H 	0.99620 0.61130 0.72240 -0.12500
C 	C 	0.90760 0.68650 0.65340 -0.31600
C 	C 	0.10710 0.68210 0.53020 -0.60500
C 	C 	0.06180 0.65840 0.60320 -0.25600
C 	C 	0.12070 0.72270 0.55280 0.28300
H 	H 	0.14500 0.74350 0.53600 -0.10400
O 	O 	0.90830 0.60900 0.47370 -0.45100
C 	C 	0.92910 0.64690 0.49770 0.33000
C 	C 	0.92960 0.64760 0.72870 -0.69000
C 	C 	0.89980 0.67440 0.70330 0.44300
H 	H 	0.87160 0.68640 0.71870 -0.17900
C 	C 	0.02940 0.61960 0.63170 0.11300
H 	H 	0.02020 0.59360 0.60880 -0.04100
H 	H 	0.04940 0.60480 0.65740 -0.04500
C 	C 	0.92410 0.68440 0.81290 -1.75700
H 	H 	0.91980 0.67910 0.84770 0.51700
H 	H 	0.89790 0.70490 0.80080 0.53100
H 	H 	0.95530 0.70020 0.80710 0.52300
C 	C 	0.87300 0.71780 0.62770 0.19200
H 	H 	0.84760 0.72700 0.65120 -0.05800
H 	H 	0.85720 0.69780 0.60260 -0.05800
C 	C 	0.07580 0.68070 0.44450 -1.51900
H 	H 	0.04870 0.66000 0.45410 0.46600
H 	H 	0.08380 0.67470 0.41050 0.45200
H 	H 	0.06670 0.71470 0.44860 0.44500
C 	C 	0.16610 0.70240 0.45820 -1.47600
H 	H 	0.17450 0.69270 0.42520 0.41600
H 	H 	0.19440 0.69850 0.47920 0.40800
H 	H 	0.15590 0.73630 0.45840 0.43500
C 	C 	0.95580 0.59250 0.80440 -2.19800
H 	H 	0.94750 0.58650 0.83830 0.63500
H 	H 	0.98950 0.60330 0.80220 0.64300
H 	H 	0.95180 0.56260 0.78580 0.62400
C 	C 	0.87340 0.61260 0.78630 -2.32500
H 	H 	0.86630 0.60190 0.81940 0.69200
H 	H 	0.87020 0.58510 0.76410 0.66300
H 	H 	0.85080 0.63810 0.77700 0.70100
C 	C 	0.13580 0.61840 0.46880 -1.89300
H 	H 	0.10950 0.59700 0.47930 0.56300
H 	H 	0.16530 0.61050 0.48680 0.52700
H 	H 	0.14150 0.61380 0.43410 0.56500
C 	C 	0.92300 0.63120 0.78410 1.57100
C 	C 	0.08740 0.69850 0.71310 0.25100
H 	H 	0.06980 0.70880 0.74200 -0.07800
H 	H 	0.11940 0.71370 0.71260 -0.07600
H 	H 	0.09110 0.66330 0.71340 -0.08400
O 	O 	0.95330 0.32710 0.92000 -0.25800
O 	O 	0.94210 0.31470 0.01930 -0.41100
C 	C 	0.10940 0.26530 0.89740 -0.25000
O 	O 	0.06380 0.28880 0.82470 -0.30600
C 	C 	0.94860 0.33370 0.86840 0.27200
C 	C 	0.07660 0.34950 0.94230 0.23200
H 	H 	0.06770 0.38120 0.95730 -0.09600
C 	C 	0.07860 0.29920 0.87190 0.23900
C 	C 	0.98270 0.36020 0.84500 -0.24200
C 	C 	0.93090 0.36490 0.94610 -0.10900
H 	H 	0.89760 0.36970 0.93380 0.03400
H 	H 	0.94920 0.39530 0.94090 0.04800
C 	C 	0.12240 0.33130 0.02200 1.15300
C 	C 	0.97350 0.37010 0.79550 0.29400
H 	H 	0.99620 0.38870 0.77760 -0.12400
C 	C 	0.90760 0.31350 0.84660 -0.31000
C 	C 	0.10710 0.31790 0.96980 -0.57300
C 	C 	0.06180 0.34160 0.89680 -0.24400
C 	C 	0.12070 0.27730 0.94720 0.26400
H 	H 	0.14500 0.25650 0.96400 -0.09400
O 	O 	0.90830 0.39100 0.02630 -0.45200
C 	C 	0.92910 0.35310 0.00230 0.32100
C 	C 	0.92960 0.35240 0.77130 -0.68500
C 	C 	0.89980 0.32560 0.79670 0.43800
H 	H 	0.87160 0.31360 0.78130 -0.17700
C 	C 	0.02940 0.38040 0.86830 0.10500
H 	H 	0.02020 0.40640 0.89120 -0.03800
H 	H 	0.04940 0.39520 0.84260 -0.04300
C 	C 	0.92410 0.31560 0.68710 -1.75000
H 	H 	0.91980 0.32090 0.65230 0.51400
H 	H 	0.89790 0.29510 0.69920 0.52900
H 	H 	0.95530 0.29980 0.69290 0.52000
C 	C 	0.87300 0.28220 0.87230 0.18300
H 	H 	0.84760 0.27300 0.84880 -0.05500
H 	H 	0.85720 0.30220 0.89740 -0.05500
C 	C 	0.07580 0.31930 0.05550 -1.47900
H 	H 	0.04870 0.34000 0.04590 0.45300
H 	H 	0.08380 0.32530 0.08950 0.44000
H 	H 	0.06670 0.28530 0.05140 0.43200
C 	C 	0.16610 0.29760 0.04180 -1.43300
H 	H 	0.17450 0.30730 0.07480 0.40400
H 	H 	0.19440 0.30150 0.02080 0.39200
H 	H 	0.15590 0.26370 0.04160 0.42000
C 	C 	0.95580 0.40750 0.69560 -2.18900
H 	H 	0.94750 0.41350 0.66170 0.63200
H 	H 	0.98950 0.39670 0.69780 0.64000
H 	H 	0.95180 0.43740 0.71420 0.62100
C 	C 	0.87340 0.38740 0.71370 -2.31700
H 	H 	0.86630 0.39810 0.68060 0.69000
H 	H 	0.87020 0.41490 0.73590 0.66100
H 	H 	0.85080 0.36190 0.72300 0.69900
C 	C 	0.13580 0.38160 0.03120 -1.83400
H 	H 	0.10950 0.40300 0.02070 0.54300
H 	H 	0.16530 0.38950 0.01320 0.50700
H 	H 	0.14150 0.38620 0.06590 0.54800
C 	C 	0.92300 0.36880 0.71590 1.56400
C 	C 	0.08740 0.30150 0.78690 0.24600
H 	H 	0.06980 0.29120 0.75800 -0.07700
H 	H 	0.11940 0.28630 0.78740 -0.07400
H 	H 	0.09110 0.33670 0.78660 -0.08200
O 	O 	0.45330 0.82710 0.42000 -0.26300
O 	O 	0.44210 0.81470 0.51930 -0.41300
C 	C 	0.60940 0.76530 0.39740 -0.26200
O 	O 	0.56380 0.78880 0.32470 -0.30500
C 	C 	0.44860 0.83370 0.36840 0.28100
C 	C 	0.57660 0.84950 0.44230 0.25300
H 	H 	0.56770 0.88120 0.45730 -0.10500
C 	C 	0.57860 0.79920 0.37190 0.24800
C 	C 	0.48270 0.86020 0.34500 -0.26000
C 	C 	0.43090 0.86490 0.44610 -0.11700
H 	H 	0.39760 0.86970 0.43380 0.03500
H 	H 	0.44920 0.89530 0.44090 0.04800
C 	C 	0.62240 0.83130 0.52200 1.20600
C 	C 	0.47350 0.87010 0.29550 0.30300
H 	H 	0.49620 0.88870 0.27760 -0.12900
C 	C 	0.40760 0.81350 0.34660 -0.32000
C 	C 	0.60710 0.81790 0.46980 -0.60900
C 	C 	0.56180 0.84160 0.39680 -0.25800
C 	C 	0.62070 0.77730 0.44720 0.28500
H 	H 	0.64500 0.75650 0.46400 -0.10400
O 	O 	0.40830 0.89100 0.52630 -0.45200
C 	C 	0.42910 0.85310 0.50230 0.32900
C 	C 	0.42960 0.85240 0.27130 -0.69300
C 	C 	0.39980 0.82560 0.29670 0.44600
H 	H 	0.37160 0.81360 0.28130 -0.18000
C 	C 	0.52940 0.88040 0.36830 0.12600
H 	H 	0.52020 0.90640 0.39120 -0.04100
H 	H 	0.54940 0.89520 0.34260 -0.04600
C 	C 	0.42410 0.81560 0.18710 -1.75100
H 	H 	0.41980 0.82090 0.15230 0.51300
H 	H 	0.39790 0.79510 0.19920 0.52900
H 	H 	0.45530 0.79980 0.19290 0.51800
C 	C 	0.37300 0.78220 0.37230 0.19400
H 	H 	0.34760 0.77300 0.34880 -0.05800
H 	H 	0.35720 0.80220 0.39740 -0.05900
C 	C 	0.57580 0.81930 0.55550 -1.53000
H 	H 	0.54870 0.84000 0.54590 0.47100
H 	H 	0.58380 0.82530 0.58950 0.45600
H 	H 	0.56670 0.78530 0.55140 0.44900
C 	C 	0.66610 0.79760 0.54180 -1.48300
H 	H 	0.67450 0.80730 0.57480 0.41800
H 	H 	0.69440 0.80150 0.52080 0.41000
H 	H 	0.65590 0.76370 0.54160 0.43700
C 	C 	0.45580 0.90750 0.19560 -2.19500
H 	H 	0.44750 0.91350 0.16170 0.63400
H 	H 	0.48950 0.89670 0.19780 0.64000
H 	H 	0.45180 0.93740 0.21420 0.62500
C 	C 	0.37340 0.88740 0.21370 -2.32400
H 	H 	0.36630 0.89810 0.18060 0.69300
H 	H 	0.37020 0.91490 0.23590 0.66400
H 	H 	0.35080 0.86190 0.22300 0.70100
C 	C 	0.63580 0.88160 0.53120 -1.90400
H 	H 	0.60950 0.90300 0.52070 0.56700
H 	H 	0.66530 0.88950 0.51320 0.53000
H 	H 	0.64150 0.88620 0.56590 0.56900
C 	C 	0.42300 0.86880 0.21590 1.56900
C 	C 	0.58740 0.80150 0.28690 0.24300
H 	H 	0.56980 0.79120 0.25800 -0.07400
H 	H 	0.61940 0.78630 0.28740 -0.07300
H 	H 	0.59110 0.83670 0.28660 -0.08000
O 	O 	0.04670 0.82710 0.58000 -0.26600
O 	O 	0.05790 0.81470 0.48070 -0.41500
C 	C 	0.89060 0.76530 0.60260 -0.26300
O 	O 	0.93620 0.78880 0.67530 -0.30000
C 	C 	0.05140 0.83370 0.63160 0.28600
C 	C 	0.92340 0.84950 0.55770 0.25700
H 	H 	0.93230 0.88120 0.54270 -0.10500
C 	C 	0.92140 0.79920 0.62810 0.24900
C 	C 	0.01730 0.86020 0.65500 -0.27300
C 	C 	0.06910 0.86490 0.55390 -0.11500
H 	H 	0.10240 0.86970 0.56620 0.03400
H 	H 	0.05080 0.89530 0.55910 0.04500
C 	C 	0.87760 0.83130 0.47800 1.21400
C 	C 	0.02650 0.87010 0.70450 0.30900
H 	H 	0.00380 0.88870 0.72240 -0.13300
C 	C 	0.09240 0.81350 0.65340 -0.32400
C 	C 	0.89290 0.81790 0.53020 -0.61300
C 	C 	0.93820 0.84160 0.60320 -0.26000
C 	C 	0.87930 0.77730 0.55280 0.28800
H 	H 	0.85500 0.75650 0.53600 -0.10500
O 	O 	0.09170 0.89100 0.47370 -0.45200
C 	C 	0.07090 0.85310 0.49770 0.32800
C 	C 	0.07040 0.85240 0.72870 -0.69700
C 	C 	0.10020 0.82560 0.70330 0.45000
H 	H 	0.12840 0.81360 0.71870 -0.18100
C 	C 	0.97060 0.88040 0.63170 0.14000
H 	H 	0.97980 0.90640 0.60880 -0.04100
H 	H 	0.95060 0.89520 0.65740 -0.04800
C 	C 	0.07590 0.81560 0.81290 -1.75000
H 	H 	0.08020 0.82090 0.84770 0.51300
H 	H 	0.10210 0.79510 0.80080 0.52900
H 	H 	0.04470 0.79980 0.80710 0.51700
C 	C 	0.12700 0.78220 0.62770 0.19600
H 	H 	0.15240 0.77300 0.65120 -0.05900
H 	H 	0.14280 0.80220 0.60260 -0.06000
C 	C 	0.92420 0.81930 0.44450 -1.54100
H 	H 	0.95130 0.84000 0.45410 0.47700
H 	H 	0.91620 0.82530 0.41050 0.46000
H 	H 	0.93330 0.78530 0.44860 0.45400
C 	C 	0.83390 0.79760 0.45820 -1.49000
H 	H 	0.82550 0.80730 0.42520 0.42100
H 	H 	0.80560 0.80150 0.47920 0.41200
H 	H 	0.84410 0.76370 0.45840 0.43900
C 	C 	0.04420 0.90750 0.80440 -2.19400
H 	H 	0.05250 0.91350 0.83830 0.63400
H 	H 	0.01050 0.89670 0.80220 0.63900
H 	H 	0.04820 0.93740 0.78580 0.62400
C 	C 	0.12660 0.88740 0.78630 -2.32400
H 	H 	0.13370 0.89810 0.81940 0.69300
H 	H 	0.12980 0.91490 0.76410 0.66400
H 	H 	0.14920 0.86190 0.77700 0.70100
C 	C 	0.86420 0.88160 0.46880 -1.91500
H 	H 	0.89050 0.90300 0.47930 0.57100
H 	H 	0.83470 0.88950 0.48680 0.53300
H 	H 	0.85850 0.88620 0.43410 0.57200
C 	C 	0.07700 0.86880 0.78410 1.56900
C 	C 	0.91260 0.80150 0.71310 0.23400
H 	H 	0.93020 0.79120 0.74200 -0.07000
H 	H 	0.88060 0.78630 0.71260 -0.07000
H 	H 	0.90890 0.83670 0.71340 -0.07600
O 	O 	0.54670 0.32710 0.08000 -0.26300
O 	O 	0.55790 0.31470 0.98070 -0.41400
C 	C 	0.39060 0.26530 0.10260 -0.27200
O 	O 	0.43620 0.28880 0.17530 -0.30700
C 	C 	0.55140 0.33370 0.13160 0.28300
C 	C 	0.42340 0.34950 0.05770 0.27100
H 	H 	0.43230 0.38120 0.04270 -0.11400
C 	C 	0.42140 0.29920 0.12810 0.25500
C 	C 	0.51730 0.36020 0.15500 -0.26300
C 	C 	0.56910 0.36490 0.05390 -0.12800
H 	H 	0.60240 0.36970 0.06620 0.03800
H 	H 	0.55080 0.39530 0.05910 0.04900
C 	C 	0.37760 0.33130 0.97800 1.25400
C 	C 	0.52650 0.37010 0.20450 0.30500
H 	H 	0.50380 0.38870 0.22240 -0.13000
C 	C 	0.59240 0.31350 0.15340 -0.32300
C 	C 	0.39290 0.31790 0.03020 -0.64100
C 	C 	0.43820 0.34160 0.10320 -0.26900
C 	C 	0.37930 0.27730 0.05280 0.30400
H 	H 	0.35500 0.25650 0.03600 -0.11300
O 	O 	0.59170 0.39100 0.97370 -0.45100
C 	C 	0.57090 0.35310 0.99770 0.33800
C 	C 	0.57040 0.35240 0.22870 -0.69300
C 	C 	0.60020 0.32560 0.20330 0.44800
H 	H 	0.62840 0.31360 0.21870 -0.18000
C 	C 	0.47060 0.38040 0.13170 0.13400
H 	H 	0.47980 0.40640 0.10880 -0.04400
H 	H 	0.45060 0.39520 0.15740 -0.04900
C 	C 	0.57590 0.31560 0.31290 -1.74800
H 	H 	0.58020 0.32090 0.34770 0.51300
H 	H 	0.60210 0.29510 0.30080 0.52800
H 	H 	0.54470 0.29980 0.30710 0.51800
C 	C 	0.62700 0.28220 0.12770 0.20100
H 	H 	0.65240 0.27300 0.15120 -0.06000
H 	H 	0.64280 0.30220 0.10260 -0.06200
C 	C 	0.42420 0.31930 0.94450 -1.57200
H 	H 	0.45130 0.34000 0.95410 0.48500
H 	H 	0.41620 0.32530 0.91050 0.46800
H 	H 	0.43330 0.28530 0.94860 0.46300
C 	C 	0.33390 0.29760 0.95820 -1.52900
H 	H 	0.32550 0.30730 0.92520 0.43200
H 	H 	0.30560 0.30150 0.97920 0.42700
H 	H 	0.34410 0.26370 0.95840 0.45200
C 	C 	0.54420 0.40750 0.30440 -2.18700
H 	H 	0.55250 0.41350 0.33830 0.63000
H 	H 	0.51050 0.39670 0.30220 0.63700
H 	H 	0.54820 0.43740 0.28580 0.62000
C 	C 	0.62660 0.38740 0.28630 -2.31800
H 	H 	0.63370 0.39810 0.31940 0.69000
H 	H 	0.62980 0.41490 0.26410 0.66100
H 	H 	0.64920 0.36190 0.27700 0.69900
C 	C 	0.36420 0.38160 0.96880 -1.96500
H 	H 	0.39050 0.40300 0.97930 0.58700
H 	H 	0.33470 0.38950 0.98680 0.55100
H 	H 	0.35850 0.38620 0.93410 0.58700
C 	C 	0.57700 0.36880 0.28410 1.56500
C 	C 	0.41260 0.30150 0.21310 0.24700
H 	H 	0.43020 0.29120 0.24200 -0.07500
H 	H 	0.38060 0.28630 0.21260 -0.07400
H 	H 	0.40890 0.33670 0.21340 -0.08100
O 	O 	0.54670 0.67290 0.42000 -0.26200
O 	O 	0.55790 0.68530 0.51930 -0.41300
C 	C 	0.39060 0.73470 0.39740 -0.26300
O 	O 	0.43620 0.71120 0.32470 -0.30500
C 	C 	0.55140 0.66630 0.36840 0.28000
C 	C 	0.42340 0.65050 0.44230 0.25300
H 	H 	0.43230 0.61880 0.45730 -0.10500
C 	C 	0.42140 0.70080 0.37190 0.24800
C 	C 	0.51730 0.63980 0.34500 -0.25900
C 	C 	0.56910 0.63510 0.44610 -0.11800
H 	H 	0.60240 0.63030 0.43380 0.03600
H 	H 	0.55080 0.60470 0.44090 0.04800
C 	C 	0.37760 0.66870 0.52200 1.20600
C 	C 	0.52650 0.62990 0.29550 0.30100
H 	H 	0.50380 0.61130 0.27760 -0.12900
C 	C 	0.59240 0.68650 0.34660 -0.31700
C 	C 	0.39290 0.68210 0.46980 -0.60900
C 	C 	0.43820 0.65840 0.39680 -0.25800
C 	C 	0.37930 0.72270 0.44720 0.28500
H 	H 	0.35500 0.74350 0.46400 -0.10400
O 	O 	0.59170 0.60900 0.52630 -0.45200
C 	C 	0.57090 0.64690 0.50230 0.32900
C 	C 	0.57040 0.64760 0.27130 -0.68800
C 	C 	0.60020 0.67440 0.29670 0.44300
H 	H 	0.62840 0.68640 0.28130 -0.17800
C 	C 	0.47060 0.61960 0.36830 0.12600
H 	H 	0.47980 0.59360 0.39120 -0.04100
H 	H 	0.45060 0.60480 0.34260 -0.04700
C 	C 	0.57590 0.68440 0.18710 -1.74100
H 	H 	0.58020 0.67910 0.15230 0.51000
H 	H 	0.60210 0.70490 0.19920 0.52600
H 	H 	0.54470 0.70020 0.19290 0.51500
C 	C 	0.62700 0.71780 0.37230 0.19200
H 	H 	0.65240 0.72700 0.34880 -0.05800
H 	H 	0.64280 0.69780 0.39740 -0.05800
C 	C 	0.42420 0.68070 0.55550 -1.52900
H 	H 	0.45130 0.66000 0.54590 0.47100
H 	H 	0.41620 0.67470 0.58950 0.45600
H 	H 	0.43330 0.71470 0.55140 0.44900
C 	C 	0.33390 0.70240 0.54180 -1.48300
H 	H 	0.32550 0.69270 0.57480 0.41800
H 	H 	0.30560 0.69850 0.52080 0.41000
H 	H 	0.34410 0.73630 0.54160 0.43700
C 	C 	0.54420 0.59250 0.19560 -2.17800
H 	H 	0.55250 0.58650 0.16170 0.62700
H 	H 	0.51050 0.60330 0.19780 0.63400
H 	H 	0.54820 0.56260 0.21420 0.61800
C 	C 	0.62660 0.61260 0.21370 -2.31000
H 	H 	0.63370 0.60190 0.18060 0.68800
H 	H 	0.62980 0.58510 0.23590 0.65900
H 	H 	0.64920 0.63810 0.22300 0.69700
C 	C 	0.36420 0.61840 0.53120 -1.90300
H 	H 	0.39050 0.59700 0.52070 0.56600
H 	H 	0.33470 0.61050 0.51320 0.53000
H 	H 	0.35850 0.61380 0.56590 0.56800
C 	C 	0.57700 0.63120 0.21590 1.55800
C 	C 	0.41260 0.69850 0.28690 0.24400
H 	H 	0.43020 0.70880 0.25800 -0.07500
H 	H 	0.38060 0.71370 0.28740 -0.07400
H 	H 	0.40890 0.66330 0.28660 -0.08000
O 	O 	0.04670 0.17290 0.92000 -0.26500
O 	O 	0.05790 0.18530 0.01930 -0.41400
C 	C 	0.89060 0.23470 0.89740 -0.25200
O 	O 	0.93620 0.21120 0.82470 -0.29800
C 	C 	0.05140 0.16630 0.86840 0.28000
C 	C 	0.92340 0.15050 0.94230 0.23900
H 	H 	0.93230 0.11880 0.95730 -0.09700
C 	C 	0.92140 0.20080 0.87190 0.24200
C 	C 	0.01730 0.13980 0.84500 -0.26600
C 	C 	0.06910 0.13510 0.94610 -0.10700
H 	H 	0.10240 0.13030 0.93380 0.03400
H 	H 	0.05080 0.10470 0.94090 0.04500
C 	C 	0.87760 0.16870 0.02200 1.16400
C 	C 	0.02650 0.12990 0.79550 0.30100
H 	H 	0.00380 0.11130 0.77760 -0.13100
C 	C 	0.09240 0.18650 0.84660 -0.31300
C 	C 	0.89290 0.18210 0.96980 -0.57900
C 	C 	0.93820 0.15840 0.89680 -0.24900
C 	C 	0.87930 0.22270 0.94720 0.26800
H 	H 	0.85500 0.24350 0.96400 -0.09600
O 	O 	0.09170 0.10900 0.02630 -0.45300
C 	C 	0.07090 0.14690 0.00230 0.32000
C 	C 	0.07040 0.14760 0.77130 -0.68200
C 	C 	0.10020 0.17440 0.79670 0.43800
H 	H 	0.12840 0.18640 0.78130 -0.17600
C 	C 	0.97060 0.11960 0.86830 0.13200
H 	H 	0.97980 0.09360 0.89120 -0.04000
H 	H 	0.95060 0.10480 0.84260 -0.04700
C 	C 	0.07590 0.18440 0.68710 -1.72600
H 	H 	0.08020 0.17910 0.65230 0.50600
H 	H 	0.10210 0.20490 0.69920 0.52100
H 	H 	0.04470 0.20020 0.69290 0.50900
C 	C 	0.12700 0.21780 0.87230 0.18400
H 	H 	0.15240 0.22700 0.84880 -0.05500
H 	H 	0.14280 0.19780 0.89740 -0.05500
C 	C 	0.92420 0.18070 0.05550 -1.49700
H 	H 	0.95130 0.16000 0.04590 0.46200
H 	H 	0.91620 0.17470 0.08950 0.44800
H 	H 	0.93330 0.21470 0.05140 0.44000
C 	C 	0.83390 0.20240 0.04180 -1.44300
H 	H 	0.82550 0.19270 0.07480 0.40700
H 	H 	0.80560 0.19850 0.02080 0.39500
H 	H 	0.84410 0.23630 0.04160 0.42300
C 	C 	0.04420 0.09250 0.69560 -2.15300
H 	H 	0.05250 0.08650 0.66170 0.61800
H 	H 	0.01050 0.10330 0.69780 0.62500
H 	H 	0.04820 0.06260 0.71420 0.60700
C 	C 	0.12660 0.11260 0.71370 -2.28900
H 	H 	0.13370 0.10190 0.68060 0.68100
H 	H 	0.12980 0.08510 0.73590 0.65200
H 	H 	0.14920 0.13810 0.72300 0.69100
C 	C 	0.86420 0.11840 0.03120 -1.84900
H 	H 	0.89050 0.09700 0.02070 0.54800
H 	H 	0.83470 0.11050 0.01320 0.51100
H 	H 	0.85850 0.11380 0.06590 0.55200
C 	C 	0.07700 0.13120 0.71590 1.54200
C 	C 	0.91260 0.19850 0.78690 0.23200
H 	H 	0.93020 0.20880 0.75800 -0.06900
H 	H 	0.88060 0.21370 0.78740 -0.07000
H 	H 	0.90890 0.16330 0.78660 -0.07600
O 	O 	0.08000 0.45330 0.17290 -0.26200
O 	O 	0.98070 0.44210 0.18530 -0.41400
C 	C 	0.10260 0.60940 0.23470 -0.27200
O 	O 	0.17530 0.56380 0.21120 -0.30800
C 	C 	0.13160 0.44860 0.16630 0.28200
C 	C 	0.05770 0.57660 0.15050 0.27100
H 	H 	0.04270 0.56770 0.11880 -0.11400
C 	C 	0.12810 0.57860 0.20080 0.25600
C 	C 	0.15500 0.48270 0.13980 -0.26200
C 	C 	0.05390 0.43090 0.13510 -0.12800
H 	H 	0.06620 0.39760 0.13030 0.03900
H 	H 	0.05910 0.44920 0.10470 0.04900
C 	C 	0.97800 0.62240 0.16870 1.25200
C 	C 	0.20450 0.47350 0.12990 0.30300
H 	H 	0.22240 0.49620 0.11130 -0.13000
C 	C 	0.15340 0.40760 0.18650 -0.32000
C 	C 	0.03020 0.60710 0.18210 -0.64100
C 	C 	0.10320 0.56180 0.15840 -0.26900
C 	C 	0.05280 0.62070 0.22270 0.30400
H 	H 	0.03600 0.64500 0.24350 -0.11300
O 	O 	0.97370 0.40830 0.10900 -0.45100
C 	C 	0.99770 0.42910 0.14690 0.33800
C 	C 	0.22870 0.42960 0.14760 -0.68800
C 	C 	0.20330 0.39980 0.17440 0.44500
H 	H 	0.21870 0.37160 0.18640 -0.17900
C 	C 	0.13170 0.52940 0.11960 0.13400
H 	H 	0.10880 0.52020 0.09360 -0.04500
H 	H 	0.15740 0.54940 0.10480 -0.04900
C 	C 	0.31290 0.42410 0.18440 -1.74000
H 	H 	0.34770 0.41980 0.17910 0.51000
H 	H 	0.30080 0.39790 0.20490 0.52600
H 	H 	0.30710 0.45530 0.20020 0.51500
C 	C 	0.12770 0.37300 0.21780 0.19900
H 	H 	0.15120 0.34760 0.22700 -0.05900
H 	H 	0.10260 0.35720 0.19780 -0.06000
C 	C 	0.94450 0.57580 0.18070 -1.57000
H 	H 	0.95410 0.54870 0.16000 0.48500
H 	H 	0.91050 0.58380 0.17470 0.46800
H 	H 	0.94860 0.56670 0.21470 0.46200
C 	C 	0.95820 0.66610 0.20240 -1.52800
H 	H 	0.92520 0.67450 0.19270 0.43200
H 	H 	0.97920 0.69440 0.19850 0.42600
H 	H 	0.95840 0.65590 0.23630 0.45200
C 	C 	0.30440 0.45580 0.09250 -2.17100
H 	H 	0.33830 0.44750 0.08650 0.62400
H 	H 	0.30220 0.48950 0.10330 0.63200
H 	H 	0.28580 0.45180 0.06260 0.61300
C 	C 	0.28630 0.37340 0.11260 -2.30500
H 	H 	0.31940 0.36630 0.10190 0.68600
H 	H 	0.26410 0.37020 0.08510 0.65700
H 	H 	0.27700 0.35080 0.13810 0.69600
C 	C 	0.96880 0.63580 0.11840 -1.96300
H 	H 	0.97930 0.60950 0.09700 0.58600
H 	H 	0.98680 0.66530 0.11050 0.55000
H 	H 	0.93410 0.64150 0.11380 0.58600
C 	C 	0.28410 0.42300 0.13120 1.55500
C 	C 	0.21310 0.58740 0.19850 0.24800
H 	H 	0.24200 0.56980 0.20880 -0.07600
H 	H 	0.21260 0.61940 0.21370 -0.07500
H 	H 	0.21340 0.59110 0.16330 -0.08100
O 	O 	0.58000 0.95330 0.67290 -0.25900
O 	O 	0.48070 0.94210 0.68530 -0.41100
C 	C 	0.60260 0.10940 0.73470 -0.26200
O 	O 	0.67530 0.06380 0.71120 -0.30900
C 	C 	0.63160 0.94860 0.66630 0.27600
C 	C 	0.55770 0.07660 0.65050 0.25000
H 	H 	0.54270 0.06770 0.61880 -0.10500
C 	C 	0.62810 0.07860 0.70080 0.24700
C 	C 	0.65500 0.98270 0.63980 -0.24700
C 	C 	0.55390 0.93090 0.63510 -0.11900
H 	H 	0.56620 0.89760 0.63030 0.03600
H 	H 	0.55910 0.94920 0.60470 0.05000
C 	C 	0.47800 0.12240 0.66870 1.19900
C 	C 	0.70450 0.97350 0.62990 0.29800
H 	H 	0.72240 0.99620 0.61130 -0.12500
C 	C 	0.65340 0.90760 0.68650 -0.31600
C 	C 	0.53020 0.10710 0.68210 -0.60500
C 	C 	0.60320 0.06180 0.65840 -0.25600
C 	C 	0.55280 0.12070 0.72270 0.28300
H 	H 	0.53600 0.14500 0.74350 -0.10400
O 	O 	0.47370 0.90830 0.60900 -0.45100
C 	C 	0.49770 0.92910 0.64690 0.33000
C 	C 	0.72870 0.92960 0.64760 -0.69000
C 	C 	0.70330 0.89980 0.67440 0.44300
H 	H 	0.71870 0.87160 0.68640 -0.17900
C 	C 	0.63170 0.02940 0.61960 0.11300
H 	H 	0.60880 0.02020 0.59360 -0.04100
H 	H 	0.65740 0.04940 0.60480 -0.04500
C 	C 	0.81290 0.92410 0.68440 -1.75700
H 	H 	0.84770 0.91980 0.67910 0.51700
H 	H 	0.80080 0.89790 0.70490 0.53100
H 	H 	0.80710 0.95530 0.70020 0.52300
C 	C 	0.62770 0.87300 0.71780 0.19200
H 	H 	0.65120 0.84760 0.72700 -0.05800
H 	H 	0.60260 0.85720 0.69780 -0.05800
C 	C 	0.44450 0.07580 0.68070 -1.51900
H 	H 	0.45410 0.04870 0.66000 0.46600
H 	H 	0.41050 0.08380 0.67470 0.45200
H 	H 	0.44860 0.06670 0.71470 0.44500
C 	C 	0.45820 0.16610 0.70240 -1.47600
H 	H 	0.42520 0.17450 0.69270 0.41600
H 	H 	0.47920 0.19440 0.69850 0.40800
H 	H 	0.45840 0.15590 0.73630 0.43500
C 	C 	0.80440 0.95580 0.59250 -2.19800
H 	H 	0.83830 0.94750 0.58650 0.63500
H 	H 	0.80220 0.98950 0.60330 0.64300
H 	H 	0.78580 0.95180 0.56260 0.62400
C 	C 	0.78630 0.87340 0.61260 -2.32500
H 	H 	0.81940 0.86630 0.60190 0.69200
H 	H 	0.76410 0.87020 0.58510 0.66300
H 	H 	0.77700 0.85080 0.63810 0.70100
C 	C 	0.46880 0.13580 0.61840 -1.89300
H 	H 	0.47930 0.10950 0.59700 0.56300
H 	H 	0.48680 0.16530 0.61050 0.52700
H 	H 	0.43410 0.14150 0.61380 0.56500
C 	C 	0.78410 0.92300 0.63120 1.57100
C 	C 	0.71310 0.08740 0.69850 0.25100
H 	H 	0.74200 0.06980 0.70880 -0.07800
H 	H 	0.71260 0.11940 0.71370 -0.07600
H 	H 	0.71340 0.09110 0.66330 -0.08400
O 	O 	0.92000 0.95330 0.32710 -0.25800
O 	O 	0.01930 0.94210 0.31470 -0.41100
C 	C 	0.89740 0.10940 0.26530 -0.25000
O 	O 	0.82470 0.06380 0.28880 -0.30600
C 	C 	0.86840 0.94860 0.33370 0.27200
C 	C 	0.94230 0.07660 0.34950 0.23200
H 	H 	0.95730 0.06770 0.38120 -0.09600
C 	C 	0.87190 0.07860 0.29920 0.23900
C 	C 	0.84500 0.98270 0.36020 -0.24200
C 	C 	0.94610 0.93090 0.36490 -0.10900
H 	H 	0.93380 0.89760 0.36970 0.03400
H 	H 	0.94090 0.94920 0.39530 0.04800
C 	C 	0.02200 0.12240 0.33130 1.15300
C 	C 	0.79550 0.97350 0.37010 0.29400
H 	H 	0.77760 0.99620 0.38870 -0.12400
C 	C 	0.84660 0.90760 0.31350 -0.31000
C 	C 	0.96980 0.10710 0.31790 -0.57300
C 	C 	0.89680 0.06180 0.34160 -0.24400
C 	C 	0.94720 0.12070 0.27730 0.26400
H 	H 	0.96400 0.14500 0.25650 -0.09400
O 	O 	0.02630 0.90830 0.39100 -0.45200
C 	C 	0.00230 0.92910 0.35310 0.32100
C 	C 	0.77130 0.92960 0.35240 -0.68500
C 	C 	0.79670 0.89980 0.32560 0.43800
H 	H 	0.78130 0.87160 0.31360 -0.17700
C 	C 	0.86830 0.02940 0.38040 0.10500
H 	H 	0.89120 0.02020 0.40640 -0.03800
H 	H 	0.84260 0.04940 0.39520 -0.04300
C 	C 	0.68710 0.92410 0.31560 -1.75000
H 	H 	0.65230 0.91980 0.32090 0.51400
H 	H 	0.69920 0.89790 0.29510 0.52900
H 	H 	0.69290 0.95530 0.29980 0.52000
C 	C 	0.87230 0.87300 0.28220 0.18300
H 	H 	0.84880 0.84760 0.27300 -0.05500
H 	H 	0.89740 0.85720 0.30220 -0.05500
C 	C 	0.05550 0.07580 0.31930 -1.47900
H 	H 	0.04590 0.04870 0.34000 0.45300
H 	H 	0.08950 0.08380 0.32530 0.44000
H 	H 	0.05140 0.06670 0.28530 0.43200
C 	C 	0.04180 0.16610 0.29760 -1.43300
H 	H 	0.07480 0.17450 0.30730 0.40400
H 	H 	0.02080 0.19440 0.30150 0.39200
H 	H 	0.04160 0.15590 0.26370 0.42000
C 	C 	0.69560 0.95580 0.40750 -2.18900
H 	H 	0.66170 0.94750 0.41350 0.63200
H 	H 	0.69780 0.98950 0.39670 0.64000
H 	H 	0.71420 0.95180 0.43740 0.62100
C 	C 	0.71370 0.87340 0.38740 -2.31700
H 	H 	0.68060 0.86630 0.39810 0.69000
H 	H 	0.73590 0.87020 0.41490 0.66100
H 	H 	0.72300 0.85080 0.36190 0.69900
C 	C 	0.03120 0.13580 0.38160 -1.83400
H 	H 	0.02070 0.10950 0.40300 0.54300
H 	H 	0.01320 0.16530 0.38950 0.50700
H 	H 	0.06590 0.14150 0.38620 0.54800
C 	C 	0.71590 0.92300 0.36880 1.56400
C 	C 	0.78690 0.08740 0.30150 0.24600
H 	H 	0.75800 0.06980 0.29120 -0.07700
H 	H 	0.78740 0.11940 0.28630 -0.07400
H 	H 	0.78660 0.09110 0.33670 -0.08200
O 	O 	0.42000 0.45330 0.82710 -0.26300
O 	O 	0.51930 0.44210 0.81470 -0.41300
C 	C 	0.39740 0.60940 0.76530 -0.26200
O 	O 	0.32470 0.56380 0.78880 -0.30500
C 	C 	0.36840 0.44860 0.83370 0.28100
C 	C 	0.44230 0.57660 0.84950 0.25300
H 	H 	0.45730 0.56770 0.88120 -0.10500
C 	C 	0.37190 0.57860 0.79920 0.24800
C 	C 	0.34500 0.48270 0.86020 -0.26000
C 	C 	0.44610 0.43090 0.86490 -0.11700
H 	H 	0.43380 0.39760 0.86970 0.03500
H 	H 	0.44090 0.44920 0.89530 0.04800
C 	C 	0.52200 0.62240 0.83130 1.20600
C 	C 	0.29550 0.47350 0.87010 0.30300
H 	H 	0.27760 0.49620 0.88870 -0.12900
C 	C 	0.34660 0.40760 0.81350 -0.32000
C 	C 	0.46980 0.60710 0.81790 -0.60900
C 	C 	0.39680 0.56180 0.84160 -0.25800
C 	C 	0.44720 0.62070 0.77730 0.28500
H 	H 	0.46400 0.64500 0.75650 -0.10400
O 	O 	0.52630 0.40830 0.89100 -0.45200
C 	C 	0.50230 0.42910 0.85310 0.32900
C 	C 	0.27130 0.42960 0.85240 -0.69300
C 	C 	0.29670 0.39980 0.82560 0.44600
H 	H 	0.28130 0.37160 0.81360 -0.18000
C 	C 	0.36830 0.52940 0.88040 0.12600
H 	H 	0.39120 0.52020 0.90640 -0.04100
H 	H 	0.34260 0.54940 0.89520 -0.04600
C 	C 	0.18710 0.42410 0.81560 -1.75100
H 	H 	0.15230 0.41980 0.82090 0.51300
H 	H 	0.19920 0.39790 0.79510 0.52900
H 	H 	0.19290 0.45530 0.79980 0.51800
C 	C 	0.37230 0.37300 0.78220 0.19400
H 	H 	0.34880 0.34760 0.77300 -0.05800
H 	H 	0.39740 0.35720 0.80220 -0.05900
C 	C 	0.55550 0.57580 0.81930 -1.53000
H 	H 	0.54590 0.54870 0.84000 0.47100
H 	H 	0.58950 0.58380 0.82530 0.45600
H 	H 	0.55140 0.56670 0.78530 0.44900
C 	C 	0.54180 0.66610 0.79760 -1.48300
H 	H 	0.57480 0.67450 0.80730 0.41800
H 	H 	0.52080 0.69440 0.80150 0.41000
H 	H 	0.54160 0.65590 0.76370 0.43700
C 	C 	0.19560 0.45580 0.90750 -2.19500
H 	H 	0.16170 0.44750 0.91350 0.63400
H 	H 	0.19780 0.48950 0.89670 0.64000
H 	H 	0.21420 0.45180 0.93740 0.62500
C 	C 	0.21370 0.37340 0.88740 -2.32400
H 	H 	0.18060 0.36630 0.89810 0.69300
H 	H 	0.23590 0.37020 0.91490 0.66400
H 	H 	0.22300 0.35080 0.86190 0.70100
C 	C 	0.53120 0.63580 0.88160 -1.90400
H 	H 	0.52070 0.60950 0.90300 0.56700
H 	H 	0.51320 0.66530 0.88950 0.53000
H 	H 	0.56590 0.64150 0.88620 0.56900
C 	C 	0.21590 0.42300 0.86880 1.56900
C 	C 	0.28690 0.58740 0.80150 0.24300
H 	H 	0.25800 0.56980 0.79120 -0.07400
H 	H 	0.28740 0.61940 0.78630 -0.07300
H 	H 	0.28660 0.59110 0.83670 -0.08000
O 	O 	0.58000 0.04670 0.82710 -0.26600
O 	O 	0.48070 0.05790 0.81470 -0.41500
C 	C 	0.60260 0.89060 0.76530 -0.26300
O 	O 	0.67530 0.93620 0.78880 -0.30000
C 	C 	0.63160 0.05140 0.83370 0.28600
C 	C 	0.55770 0.92340 0.84950 0.25700
H 	H 	0.54270 0.93230 0.88120 -0.10500
C 	C 	0.62810 0.92140 0.79920 0.24900
C 	C 	0.65500 0.01730 0.86020 -0.27300
C 	C 	0.55390 0.06910 0.86490 -0.11500
H 	H 	0.56620 0.10240 0.86970 0.03400
H 	H 	0.55910 0.05080 0.89530 0.04500
C 	C 	0.47800 0.87760 0.83130 1.21400
C 	C 	0.70450 0.02650 0.87010 0.30900
H 	H 	0.72240 0.00380 0.88870 -0.13300
C 	C 	0.65340 0.09240 0.81350 -0.32400
C 	C 	0.53020 0.89290 0.81790 -0.61300
C 	C 	0.60320 0.93820 0.84160 -0.26000
C 	C 	0.55280 0.87930 0.77730 0.28800
H 	H 	0.53600 0.85500 0.75650 -0.10500
O 	O 	0.47370 0.09170 0.89100 -0.45200
C 	C 	0.49770 0.07090 0.85310 0.32800
C 	C 	0.72870 0.07040 0.85240 -0.69700
C 	C 	0.70330 0.10020 0.82560 0.45000
H 	H 	0.71870 0.12840 0.81360 -0.18100
C 	C 	0.63170 0.97060 0.88040 0.14000
H 	H 	0.60880 0.97980 0.90640 -0.04100
H 	H 	0.65740 0.95060 0.89520 -0.04800
C 	C 	0.81290 0.07590 0.81560 -1.75000
H 	H 	0.84770 0.08020 0.82090 0.51300
H 	H 	0.80080 0.10210 0.79510 0.52900
H 	H 	0.80710 0.04470 0.79980 0.51700
C 	C 	0.62770 0.12700 0.78220 0.19600
H 	H 	0.65120 0.15240 0.77300 -0.05900
H 	H 	0.60260 0.14280 0.80220 -0.06000
C 	C 	0.44450 0.92420 0.81930 -1.54100
H 	H 	0.45410 0.95130 0.84000 0.47700
H 	H 	0.41050 0.91620 0.82530 0.46000
H 	H 	0.44860 0.93330 0.78530 0.45400
C 	C 	0.45820 0.83390 0.79760 -1.49000
H 	H 	0.42520 0.82550 0.80730 0.42100
H 	H 	0.47920 0.80560 0.80150 0.41200
H 	H 	0.45840 0.84410 0.76370 0.43900
C 	C 	0.80440 0.04420 0.90750 -2.19400
H 	H 	0.83830 0.05250 0.91350 0.63400
H 	H 	0.80220 0.01050 0.89670 0.63900
H 	H 	0.78580 0.04820 0.93740 0.62400
C 	C 	0.78630 0.12660 0.88740 -2.32400
H 	H 	0.81940 0.13370 0.89810 0.69300
H 	H 	0.76410 0.12980 0.91490 0.66400
H 	H 	0.77700 0.14920 0.86190 0.70100
C 	C 	0.46880 0.86420 0.88160 -1.91500
H 	H 	0.47930 0.89050 0.90300 0.57100
H 	H 	0.48680 0.83470 0.88950 0.53300
H 	H 	0.43410 0.85850 0.88620 0.57200
C 	C 	0.78410 0.07700 0.86880 1.56900
C 	C 	0.71310 0.91260 0.80150 0.23400
H 	H 	0.74200 0.93020 0.79120 -0.07000
H 	H 	0.71260 0.88060 0.78630 -0.07000
H 	H 	0.71340 0.90890 0.83670 -0.07600
O 	O 	0.08000 0.54670 0.32710 -0.26300
O 	O 	0.98070 0.55790 0.31470 -0.41400
C 	C 	0.10260 0.39060 0.26530 -0.27200
O 	O 	0.17530 0.43620 0.28880 -0.30700
C 	C 	0.13160 0.55140 0.33370 0.28300
C 	C 	0.05770 0.42340 0.34950 0.27100
H 	H 	0.04270 0.43230 0.38120 -0.11400
C 	C 	0.12810 0.42140 0.29920 0.25500
C 	C 	0.15500 0.51730 0.36020 -0.26300
C 	C 	0.05390 0.56910 0.36490 -0.12800
H 	H 	0.06620 0.60240 0.36970 0.03800
H 	H 	0.05910 0.55080 0.39530 0.04900
C 	C 	0.97800 0.37760 0.33130 1.25400
C 	C 	0.20450 0.52650 0.37010 0.30500
H 	H 	0.22240 0.50380 0.38870 -0.13000
C 	C 	0.15340 0.59240 0.31350 -0.32300
C 	C 	0.03020 0.39290 0.31790 -0.64100
C 	C 	0.10320 0.43820 0.34160 -0.26900
C 	C 	0.05280 0.37930 0.27730 0.30400
H 	H 	0.03600 0.35500 0.25650 -0.11300
O 	O 	0.97370 0.59170 0.39100 -0.45100
C 	C 	0.99770 0.57090 0.35310 0.33800
C 	C 	0.22870 0.57040 0.35240 -0.69300
C 	C 	0.20330 0.60020 0.32560 0.44800
H 	H 	0.21870 0.62840 0.31360 -0.18000
C 	C 	0.13170 0.47060 0.38040 0.13400
H 	H 	0.10880 0.47980 0.40640 -0.04400
H 	H 	0.15740 0.45060 0.39520 -0.04900
C 	C 	0.31290 0.57590 0.31560 -1.74800
H 	H 	0.34770 0.58020 0.32090 0.51300
H 	H 	0.30080 0.60210 0.29510 0.52800
H 	H 	0.30710 0.54470 0.29980 0.51800
C 	C 	0.12770 0.62700 0.28220 0.20100
H 	H 	0.15120 0.65240 0.27300 -0.06000
H 	H 	0.10260 0.64280 0.30220 -0.06200
C 	C 	0.94450 0.42420 0.31930 -1.57200
H 	H 	0.95410 0.45130 0.34000 0.48500
H 	H 	0.91050 0.41620 0.32530 0.46800
H 	H 	0.94860 0.43330 0.28530 0.46300
C 	C 	0.95820 0.33390 0.29760 -1.52900
H 	H 	0.92520 0.32550 0.30730 0.43200
H 	H 	0.97920 0.30560 0.30150 0.42700
H 	H 	0.95840 0.34410 0.26370 0.45200
C 	C 	0.30440 0.54420 0.40750 -2.18700
H 	H 	0.33830 0.55250 0.41350 0.63000
H 	H 	0.30220 0.51050 0.39670 0.63700
H 	H 	0.28580 0.54820 0.43740 0.62000
C 	C 	0.28630 0.62660 0.38740 -2.31800
H 	H 	0.31940 0.63370 0.39810 0.69000
H 	H 	0.26410 0.62980 0.41490 0.66100
H 	H 	0.27700 0.64920 0.36190 0.69900
C 	C 	0.96880 0.36420 0.38160 -1.96500
H 	H 	0.97930 0.39050 0.40300 0.58700
H 	H 	0.98680 0.33470 0.38950 0.55100
H 	H 	0.93410 0.35850 0.38620 0.58700
C 	C 	0.28410 0.57700 0.36880 1.56500
C 	C 	0.21310 0.41260 0.30150 0.24700
H 	H 	0.24200 0.43020 0.29120 -0.07500
H 	H 	0.21260 0.38060 0.28630 -0.07400
H 	H 	0.21340 0.40890 0.33670 -0.08100
O 	O 	0.42000 0.54670 0.67290 -0.26200
O 	O 	0.51930 0.55790 0.68530 -0.41300
C 	C 	0.39740 0.39060 0.73470 -0.26300
O 	O 	0.32470 0.43620 0.71120 -0.30500
C 	C 	0.36840 0.55140 0.66630 0.28000
C 	C 	0.44230 0.42340 0.65050 0.25300
H 	H 	0.45730 0.43230 0.61880 -0.10500
C 	C 	0.37190 0.42140 0.70080 0.24800
C 	C 	0.34500 0.51730 0.63980 -0.25900
C 	C 	0.44610 0.56910 0.63510 -0.11800
H 	H 	0.43380 0.60240 0.63030 0.03600
H 	H 	0.44090 0.55080 0.60470 0.04800
C 	C 	0.52200 0.37760 0.66870 1.20600
C 	C 	0.29550 0.52650 0.62990 0.30100
H 	H 	0.27760 0.50380 0.61130 -0.12900
C 	C 	0.34660 0.59240 0.68650 -0.31700
C 	C 	0.46980 0.39290 0.68210 -0.60900
C 	C 	0.39680 0.43820 0.65840 -0.25800
C 	C 	0.44720 0.37930 0.72270 0.28500
H 	H 	0.46400 0.35500 0.74350 -0.10400
O 	O 	0.52630 0.59170 0.60900 -0.45200
C 	C 	0.50230 0.57090 0.64690 0.32900
C 	C 	0.27130 0.57040 0.64760 -0.68800
C 	C 	0.29670 0.60020 0.67440 0.44300
H 	H 	0.28130 0.62840 0.68640 -0.17800
C 	C 	0.36830 0.47060 0.61960 0.12600
H 	H 	0.39120 0.47980 0.59360 -0.04100
H 	H 	0.34260 0.45060 0.60480 -0.04700
C 	C 	0.18710 0.57590 0.68440 -1.74100
H 	H 	0.15230 0.58020 0.67910 0.51000
H 	H 	0.19920 0.60210 0.70490 0.52600
H 	H 	0.19290 0.54470 0.70020 0.51500
C 	C 	0.37230 0.62700 0.71780 0.19200
H 	H 	0.34880 0.65240 0.72700 -0.05800
H 	H 	0.39740 0.64280 0.69780 -0.05800
C 	C 	0.55550 0.42420 0.68070 -1.52900
H 	H 	0.54590 0.45130 0.66000 0.47100
H 	H 	0.58950 0.41620 0.67470 0.45600
H 	H 	0.55140 0.43330 0.71470 0.44900
C 	C 	0.54180 0.33390 0.70240 -1.48300
H 	H 	0.57480 0.32550 0.69270 0.41800
H 	H 	0.52080 0.30560 0.69850 0.41000
H 	H 	0.54160 0.34410 0.73630 0.43700
C 	C 	0.19560 0.54420 0.59250 -2.17800
H 	H 	0.16170 0.55250 0.58650 0.62700
H 	H 	0.19780 0.51050 0.60330 0.63400
H 	H 	0.21420 0.54820 0.56260 0.61800
C 	C 	0.21370 0.62660 0.61260 -2.31000
H 	H 	0.18060 0.63370 0.60190 0.68800
H 	H 	0.23590 0.62980 0.58510 0.65900
H 	H 	0.22300 0.64920 0.63810 0.69700
C 	C 	0.53120 0.36420 0.61840 -1.90300
H 	H 	0.52070 0.39050 0.59700 0.56600
H 	H 	0.51320 0.33470 0.61050 0.53000
H 	H 	0.56590 0.35850 0.61380 0.56800
C 	C 	0.21590 0.57700 0.63120 1.55800
C 	C 	0.28690 0.41260 0.69850 0.24400
H 	H 	0.25800 0.43020 0.70880 -0.07500
H 	H 	0.28740 0.38060 0.71370 -0.07400
H 	H 	0.28660 0.40890 0.66330 -0.08000
O 	O 	0.92000 0.04670 0.17290 -0.26500
O 	O 	0.01930 0.05790 0.18530 -0.41400
C 	C 	0.89740 0.89060 0.23470 -0.25200
O 	O 	0.82470 0.93620 0.21120 -0.29800
C 	C 	0.86840 0.05140 0.16630 0.28000
C 	C 	0.94230 0.92340 0.15050 0.23900
H 	H 	0.95730 0.93230 0.11880 -0.09700
C 	C 	0.87190 0.92140 0.20080 0.24200
C 	C 	0.84500 0.01730 0.13980 -0.26600
C 	C 	0.94610 0.06910 0.13510 -0.10700
H 	H 	0.93380 0.10240 0.13030 0.03400
H 	H 	0.94090 0.05080 0.10470 0.04500
C 	C 	0.02200 0.87760 0.16870 1.16400
C 	C 	0.79550 0.02650 0.12990 0.30100
H 	H 	0.77760 0.00380 0.11130 -0.13100
C 	C 	0.84660 0.09240 0.18650 -0.31300
C 	C 	0.96980 0.89290 0.18210 -0.57900
C 	C 	0.89680 0.93820 0.15840 -0.24900
C 	C 	0.94720 0.87930 0.22270 0.26800
H 	H 	0.96400 0.85500 0.24350 -0.09600
O 	O 	0.02630 0.09170 0.10900 -0.45300
C 	C 	0.00230 0.07090 0.14690 0.32000
C 	C 	0.77130 0.07040 0.14760 -0.68200
C 	C 	0.79670 0.10020 0.17440 0.43800
H 	H 	0.78130 0.12840 0.18640 -0.17600
C 	C 	0.86830 0.97060 0.11960 0.13200
H 	H 	0.89120 0.97980 0.09360 -0.04000
H 	H 	0.84260 0.95060 0.10480 -0.04700
C 	C 	0.68710 0.07590 0.18440 -1.72600
H 	H 	0.65230 0.08020 0.17910 0.50600
H 	H 	0.69920 0.10210 0.20490 0.52100
H 	H 	0.69290 0.04470 0.20020 0.50900
C 	C 	0.87230 0.12700 0.21780 0.18400
H 	H 	0.84880 0.15240 0.22700 -0.05500
H 	H 	0.89740 0.14280 0.19780 -0.05500
C 	C 	0.05550 0.92420 0.18070 -1.49700
H 	H 	0.04590 0.95130 0.16000 0.46200
H 	H 	0.08950 0.91620 0.17470 0.44800
H 	H 	0.05140 0.93330 0.21470 0.44000
C 	C 	0.04180 0.83390 0.20240 -1.44300
H 	H 	0.07480 0.82550 0.19270 0.40700
H 	H 	0.02080 0.80560 0.19850 0.39500
H 	H 	0.04160 0.84410 0.23630 0.42300
C 	C 	0.69560 0.04420 0.09250 -2.15300
H 	H 	0.66170 0.05250 0.08650 0.61800
H 	H 	0.69780 0.01050 0.10330 0.62500
H 	H 	0.71420 0.04820 0.06260 0.60700
C 	C 	0.71370 0.12660 0.11260 -2.28900
H 	H 	0.68060 0.13370 0.10190 0.68100
H 	H 	0.73590 0.12980 0.08510 0.65200
H 	H 	0.72300 0.14920 0.13810 0.69100
C 	C 	0.03120 0.86420 0.11840 -1.84900
H 	H 	0.02070 0.89050 0.09700 0.54800
H 	H 	0.01320 0.83470 0.11050 0.51100
H 	H 	0.06590 0.85850 0.11380 0.55200
C 	C 	0.71590 0.07700 0.13120 1.54200
C 	C 	0.78690 0.91260 0.19850 0.23200
H 	H 	0.75800 0.93020 0.20880 -0.06900
H 	H 	0.78740 0.88060 0.21370 -0.07000
H 	H 	0.78660 0.90890 0.16330 -0.07600
Rb	Rb	0.25000 0.03401 0.50000 0.68400
Rb	Rb	0.25000 0.96599 -0.00000 0.68600
Rb	Rb	0.75000 0.53401 -0.00000 0.68400
Rb	Rb	0.75000 0.46599 0.50000 0.68600
Rb	Rb	0.50000 0.25000 0.03401 0.68400
Rb	Rb	-0.00000 0.25000 0.96599 0.68600
Rb	Rb	-0.00000 0.75000 0.53401 0.68400
Rb	Rb	0.50000 0.75000 0.46599 0.68600
Rb	Rb	0.03401 0.50000 0.25000 0.68400
Rb	Rb	0.96599 -0.00000 0.25000 0.68600
Rb	Rb	0.53401 0.00000 0.75000 0.68400
Rb	Rb	0.46599 0.50000 0.75000 0.68600
Co	Co	0.10067 0.89933 0.39933 1.08000
Co	Co	0.60067 0.39933 0.89933 1.08000
Co	Co	0.39933 0.10067 0.89933 1.08000
Co	Co	0.89933 0.60067 0.39933 1.08000
Co	Co	0.89933 0.39933 0.10067 1.08000
Co	Co	0.39933 0.89933 0.60067 1.08000
Co	Co	0.60067 0.60067 0.60067 1.08000
Co	Co	0.10067 0.10067 0.10067 1.07900
