data_crystal

_cell_length_a 24.25770
_cell_length_b 24.25770
_cell_length_c 24.25770
_cell_angle_alpha 109.43600
_cell_angle_beta  109.43600
_cell_angle_gamma 109.43600

_symmetry_space_group_name_	'P 1'
_symmetry_space_group_name_H-M	'P 1'

loop_
_symmetry_equiv_pos_as_xyz
  x,y,z

loop_
_atom_site_label
_atom_site_type_symbol
_atom_site_fract_x
_atom_site_fract_y
_atom_site_fract_z
_atom_site_charge
Eu	Eu	0.59952 0.64814 0.14815 1.91700
Eu	Eu	0.64815 0.14814 0.09952 1.91500
H 	H 	0.79120 0.61160 0.28480 0.14700
H 	H 	0.68560 0.32520 0.32670 0.14400
H 	H 	0.80810 0.53120 0.33240 0.06600
H 	H 	0.79410 0.46370 0.33410 0.06300
H 	H 	0.84550 0.62250 0.46170 0.05700
H 	H 	0.77730 0.60820 0.46170 0.05300
H 	H 	0.67360 0.49280 0.37120 0.07900
H 	H 	0.69130 0.50630 0.31840 0.07500
H 	H 	0.83090 0.50880 0.47300 0.06700
H 	H 	0.75910 0.44390 0.42070 0.07100
H 	H 	0.86200 0.47340 0.29460 0.15100
H 	H 	0.93800 0.45470 0.26610 -0.04100
H 	H 	0.03840 0.48570 0.34920 0.13200
H 	H 	0.07540 0.55780 0.45730 -0.02200
H 	H 	0.82890 0.71750 0.50210 0.24500
H 	H 	0.83640 0.82040 0.52910 -0.16200
H 	H 	0.78800 0.83920 0.44710 0.26200
H 	H 	0.74700 0.76660 0.33900 -0.12000
H 	H 	0.66940 0.53400 0.16830 0.07100
H 	H 	0.72670 0.57500 0.15760 0.06300
H 	H 	0.66000 0.42920 0.16760 0.14100
H 	H 	0.69990 0.35520 0.15580 -0.02900
H 	H 	0.78370 0.37130 0.12940 0.17000
H 	H 	0.85230 0.47630 0.15140 -0.02700
H 	H 	0.82440 0.55820 0.18290 0.13700
H 	H 	0.58160 0.43540 0.25570 0.14800
H 	H 	0.47230 0.35490 0.16410 -0.03100
H 	H 	0.46060 0.25740 0.09030 0.12800
H 	H 	0.53050 0.22010 0.12580 -0.01900
H 	H 	0.77080 0.30360 0.28770 0.09100
H 	H 	0.72700 0.23800 0.28640 0.08200
H 	H 	0.85810 0.37700 0.36730 0.13400
H 	H 	0.94240 0.43630 0.47630 -0.03100
H 	H 	0.92080 0.42410 0.55810 0.15800
H 	H 	0.82710 0.32630 0.52490 -0.02100
H 	H 	0.73980 0.27040 0.41700 0.13700
H 	H 	0.82820 0.47400 0.54140 0.15000
H 	H 	0.83570 0.45660 0.62990 -0.02800
H 	H 	0.81570 0.51890 0.70640 0.12000
H 	H 	0.73490 0.54380 0.66360 0.00400
H 	H 	0.78480 0.11160 0.29120 0.14800
H 	H 	0.82670 0.82520 0.18560 0.14300
H 	H 	0.83240 0.03120 0.30810 0.06800
H 	H 	0.83410 0.96370 0.29410 0.06900
H 	H 	0.96170 0.12250 0.34550 0.05600
H 	H 	0.96170 0.10820 0.27730 0.05200
H 	H 	0.87120 0.99280 0.17360 0.07600
H 	H 	0.81840 0.00630 0.19130 0.06800
H 	H 	0.97300 0.00880 0.33090 0.05900
H 	H 	0.92070 0.94390 0.25910 0.06700
H 	H 	0.79460 0.97340 0.36200 0.13400
H 	H 	0.76610 0.95470 0.43800 -0.01600
H 	H 	0.84920 0.98570 0.53840 0.11000
H 	H 	0.95730 0.05780 0.57540 -0.00300
H 	H 	0.00210 0.21750 0.32890 0.24200
H 	H 	0.02910 0.32040 0.33640 -0.17200
H 	H 	0.94710 0.33920 0.28800 0.26900
H 	H 	0.83900 0.26660 0.24700 -0.12300
H 	H 	0.66830 0.03400 0.16940 0.06900
H 	H 	0.65760 0.07500 0.22670 0.06200
H 	H 	0.66760 0.92920 0.16000 0.13900
H 	H 	0.65580 0.85520 0.19990 -0.02800
H 	H 	0.62940 0.87130 0.28370 0.17000
H 	H 	0.65140 0.97630 0.35230 -0.02800
H 	H 	0.68290 0.05820 0.32440 0.13800
H 	H 	0.75570 0.93540 0.08160 0.13600
H 	H 	0.66410 0.85490 0.97230 -0.00700
H 	H 	0.59030 0.75740 0.96060 0.10900
H 	H 	0.62580 0.72010 0.03050 -0.00300
H 	H 	0.78770 0.80360 0.27080 0.10100
H 	H 	0.78640 0.73800 0.22700 0.09200
H 	H 	0.86730 0.87700 0.35810 0.15800
H 	H 	0.97630 0.93630 0.44240 -0.06000
H 	H 	0.05810 0.92410 0.42080 0.19100
H 	H 	0.02490 0.82630 0.32710 -0.05700
H 	H 	0.91700 0.77040 0.23980 0.16400
H 	H 	0.04140 0.97400 0.32820 0.14900
H 	H 	0.12990 0.95660 0.33570 -0.03300
H 	H 	0.20640 0.01890 0.31570 0.12300
H 	H 	0.16360 0.04380 0.23490 -0.00100
C 	C 	0.77140 0.52310 0.39760 0.08100
C 	C 	0.81160 0.51160 0.36140 -0.05400
C 	C 	0.79690 0.59800 0.43340 -0.01800
C 	C 	0.69920 0.48810 0.34850 -0.08300
C 	C 	0.78330 0.49280 0.44600 -0.06300
C 	C 	0.98850 0.55310 0.44180 -0.15100
C 	C 	0.92660 0.53050 0.39220 0.25600
C 	C 	0.90610 0.49150 0.32780 -0.32200
C 	C 	0.94990 0.47820 0.31110 0.23800
C 	C 	0.00990 0.49920 0.36000 -0.28000
C 	C 	0.03110 0.53950 0.42450 0.14900
C 	C 	0.72930 0.64720 0.27360 0.38400
C 	C 	0.75920 0.69480 0.35300 -0.39800
C 	C 	0.78420 0.68170 0.40350 0.45900
C 	C 	0.81200 0.72740 0.46830 -0.59400
C 	C 	0.81530 0.78750 0.48410 0.58300
C 	C 	0.78880 0.79910 0.43600 -0.64300
C 	C 	0.76290 0.75520 0.37170 0.47700
C 	C 	0.71750 0.55500 0.18440 -0.14600
C 	C 	0.73980 0.50290 0.17820 0.21300
C 	C 	0.70040 0.44020 0.16720 -0.28900
C 	C 	0.72180 0.39480 0.15580 0.22900
C 	C 	0.77470 0.40610 0.14470 -0.30200
C 	C 	0.81410 0.46720 0.15580 0.22300
C 	C 	0.79650 0.51510 0.17350 -0.28500
C 	C 	0.64650 0.27470 0.22910 0.34200
C 	C 	0.60260 0.30660 0.21200 -0.23900
C 	C 	0.61400 0.36950 0.25080 0.28000
C 	C 	0.56990 0.39060 0.23120 -0.30400
C 	C 	0.50690 0.34490 0.17400 0.20000
C 	C 	0.49830 0.28490 0.13340 -0.26900
C 	C 	0.54160 0.26400 0.15270 0.18900
C 	C 	0.74510 0.28640 0.30720 -0.16100
C 	C 	0.78900 0.31900 0.38130 0.21300
C 	C 	0.85060 0.36840 0.39960 -0.28200
C 	C 	0.90010 0.40420 0.46430 0.21600
C 	C 	0.88910 0.39410 0.51270 -0.28300
C 	C 	0.83150 0.33940 0.49390 0.20700
C 	C 	0.78100 0.30480 0.42930 -0.28000
C 	C 	0.74310 0.53770 0.58410 -0.11100
C 	C 	0.76960 0.51350 0.54700 0.25600
C 	C 	0.80800 0.48770 0.56560 -0.30900
C 	C 	0.81670 0.48230 0.62080 0.21000
C 	C 	0.79890 0.51230 0.66290 -0.24300
C 	C 	0.75640 0.53270 0.64000 0.11600
C 	C 	0.89760 0.02310 0.27140 0.06700
C 	C 	0.86140 0.01160 0.31160 -0.05900
C 	C 	0.93340 0.09800 0.29690 -0.01000
C 	C 	0.84850 0.98810 0.19920 -0.06500
C 	C 	0.94600 0.99280 0.28330 -0.04200
C 	C 	0.94180 0.05310 0.48850 -0.12700
C 	C 	0.89220 0.03050 0.42660 0.22000
C 	C 	0.82780 0.99150 0.40610 -0.26600
C 	C 	0.81110 0.97820 0.44990 0.16900
C 	C 	0.86000 0.99920 0.50990 -0.20800
C 	C 	0.92450 0.03950 0.53110 0.10000
C 	C 	0.77360 0.14720 0.22930 0.38500
C 	C 	0.85300 0.19480 0.25920 -0.40300
C 	C 	0.90350 0.18170 0.28420 0.46300
C 	C 	0.96830 0.22740 0.31200 -0.59600
C 	C 	0.98410 0.28750 0.31530 0.60100
C 	C 	0.93600 0.29910 0.28880 -0.65800
C 	C 	0.87170 0.25520 0.26290 0.48800
C 	C 	0.68440 0.05500 0.21750 -0.14400
C 	C 	0.67820 0.00290 0.23980 0.20900
C 	C 	0.66720 0.94020 0.20040 -0.28200
C 	C 	0.65580 0.89480 0.22180 0.22800
C 	C 	0.64470 0.90610 0.27470 -0.30400
C 	C 	0.65580 0.96720 0.31410 0.23200
C 	C 	0.67350 0.01510 0.29650 -0.29300
C 	C 	0.72910 0.77470 0.14650 0.33400
C 	C 	0.71200 0.80660 0.10260 -0.21500
C 	C 	0.75080 0.86950 0.11400 0.25800
C 	C 	0.73120 0.89060 0.06990 -0.26700
C 	C 	0.67400 0.84490 0.00690 0.14200
C 	C 	0.63340 0.78490 0.99830 -0.20800
C 	C 	0.65270 0.76400 0.04160 0.14300
C 	C 	0.80720 0.78640 0.24510 -0.19300
C 	C 	0.88130 0.81900 0.28900 0.27000
C 	C 	0.89960 0.86840 0.35060 -0.35200
C 	C 	0.96430 0.90420 0.40010 0.30200
C 	C 	0.01270 0.89410 0.38910 -0.37900
C 	C 	0.99390 0.83940 0.33150 0.30300
C 	C 	0.92930 0.80480 0.28100 -0.35400
C 	C 	0.08410 0.03770 0.24310 -0.11700
C 	C 	0.04700 0.01350 0.26960 0.24800
C 	C 	0.06560 0.98770 0.30800 -0.30800
C 	C 	0.12080 0.98230 0.31670 0.22300
C 	C 	0.16290 0.01230 0.29890 -0.26000
C 	C 	0.14000 0.03270 0.25640 0.12400
N 	N 	0.49230 0.52820 0.12220 0.06000
N 	N 	0.60830 0.73990 0.26400 0.06100
N 	N 	0.51430 0.67260 0.05540 0.05900
N 	N 	0.75520 0.60700 0.25610 -0.24100
N 	N 	0.68990 0.30140 0.29490 -0.22800
N 	N 	0.75610 0.10700 0.25520 -0.24100
N 	N 	0.79490 0.80140 0.18990 -0.22200
N 	N 	0.62220 0.02820 0.99230 0.06000
N 	N 	0.76400 0.23990 0.10830 0.06100
N 	N 	0.55540 0.17260 0.01430 0.05600
O 	O 	0.47850 0.55590 0.08850 -0.26500
O 	O 	0.55230 0.54960 0.16260 -0.28100
O 	O 	0.44900 0.46910 0.10340 -0.11700
O 	O 	0.64850 0.76060 0.24540 -0.27000
O 	O 	0.56640 0.67900 0.23570 -0.25200
O 	O 	0.60400 0.78300 0.30710 -0.12600
O 	O 	0.53630 0.70620 0.11740 -0.25400
O 	O 	0.53800 0.63510 0.03530 -0.29800
O 	O 	0.48380 0.68840 0.01640 -0.12800
O 	O 	0.88310 0.54500 0.41520 -0.21800
O 	O 	0.77800 0.61800 0.38340 -0.27900
O 	O 	0.67860 0.41190 0.30790 -0.22900
O 	O 	0.75470 0.51980 0.49050 -0.21900
O 	O 	0.68680 0.65080 0.23030 -0.47700
O 	O 	0.64580 0.22730 0.18510 -0.46000
O 	O 	0.91520 0.04500 0.38310 -0.21100
O 	O 	0.88340 0.11800 0.27800 -0.28000
O 	O 	0.80790 0.91190 0.17860 -0.22500
O 	O 	0.99050 0.01980 0.25470 -0.21900
O 	O 	0.73030 0.15080 0.18680 -0.47700
O 	O 	0.68510 0.72730 0.14580 -0.45800
O 	O 	0.58850 0.05590 0.97850 -0.26200
O 	O 	0.66260 0.04960 0.05230 -0.28600
O 	O 	0.60340 0.96910 0.94900 -0.11100
O 	O 	0.74540 0.26060 0.14850 -0.26900
O 	O 	0.73570 0.17900 0.06640 -0.25400
O 	O 	0.80710 0.28300 0.10400 -0.12500
O 	O 	0.61740 0.20620 0.03630 -0.25500
O 	O 	0.53530 0.13510 0.03800 -0.29900
O 	O 	0.51640 0.18840 0.98380 -0.12200
Eu	Eu	0.14815 0.59952 0.64814 1.91800
Eu	Eu	0.09952 0.64815 0.14814 1.91600
H 	H 	0.28480 0.79120 0.61160 0.14800
H 	H 	0.32670 0.68560 0.32520 0.14500
H 	H 	0.33240 0.80810 0.53120 0.06700
H 	H 	0.33410 0.79410 0.46370 0.06400
H 	H 	0.46170 0.84550 0.62250 0.05800
H 	H 	0.46170 0.77730 0.60820 0.05400
H 	H 	0.37120 0.67360 0.49280 0.08000
H 	H 	0.31840 0.69130 0.50630 0.07600
H 	H 	0.47300 0.83090 0.50880 0.06800
H 	H 	0.42070 0.75910 0.44390 0.07200
H 	H 	0.29460 0.86200 0.47340 0.15200
H 	H 	0.26610 0.93800 0.45470 -0.04000
H 	H 	0.34920 0.03840 0.48570 0.13300
H 	H 	0.45730 0.07540 0.55780 -0.02100
H 	H 	0.50210 0.82890 0.71750 0.24600
H 	H 	0.52910 0.83640 0.82040 -0.16100
H 	H 	0.44710 0.78800 0.83920 0.26200
H 	H 	0.33900 0.74700 0.76660 -0.12000
H 	H 	0.16830 0.66940 0.53400 0.07100
H 	H 	0.15760 0.72670 0.57500 0.06300
H 	H 	0.16760 0.66000 0.42920 0.14100
H 	H 	0.15580 0.69990 0.35520 -0.02900
H 	H 	0.12940 0.78370 0.37130 0.17000
H 	H 	0.15140 0.85230 0.47630 -0.02700
H 	H 	0.18290 0.82440 0.55820 0.13700
H 	H 	0.25570 0.58160 0.43540 0.14800
H 	H 	0.16410 0.47230 0.35490 -0.03100
H 	H 	0.09030 0.46060 0.25740 0.12800
H 	H 	0.12580 0.53050 0.22010 -0.01900
H 	H 	0.28770 0.77080 0.30360 0.09100
H 	H 	0.28640 0.72700 0.23800 0.08200
H 	H 	0.36730 0.85810 0.37700 0.13400
H 	H 	0.47630 0.94240 0.43630 -0.03100
H 	H 	0.55810 0.92080 0.42410 0.15800
H 	H 	0.52490 0.82710 0.32630 -0.02100
H 	H 	0.41700 0.73980 0.27040 0.13700
H 	H 	0.54140 0.82820 0.47400 0.15000
H 	H 	0.62990 0.83570 0.45660 -0.02800
H 	H 	0.70640 0.81570 0.51890 0.12000
H 	H 	0.66360 0.73490 0.54380 0.00400
H 	H 	0.29120 0.78480 0.11160 0.14800
H 	H 	0.18560 0.82670 0.82520 0.14300
H 	H 	0.30810 0.83240 0.03120 0.06800
H 	H 	0.29410 0.83410 0.96370 0.06900
H 	H 	0.34550 0.96170 0.12250 0.05600
H 	H 	0.27730 0.96170 0.10820 0.05200
H 	H 	0.17360 0.87120 0.99280 0.07600
H 	H 	0.19130 0.81840 0.00630 0.06800
H 	H 	0.33090 0.97300 0.00880 0.05900
H 	H 	0.25910 0.92070 0.94390 0.06700
H 	H 	0.36200 0.79460 0.97340 0.13400
H 	H 	0.43800 0.76610 0.95470 -0.01600
H 	H 	0.53840 0.84920 0.98570 0.11000
H 	H 	0.57540 0.95730 0.05780 -0.00300
H 	H 	0.32890 0.00210 0.21750 0.24200
H 	H 	0.33640 0.02910 0.32040 -0.17200
H 	H 	0.28800 0.94710 0.33920 0.26900
H 	H 	0.24700 0.83900 0.26660 -0.12300
H 	H 	0.16940 0.66830 0.03400 0.06900
H 	H 	0.22670 0.65760 0.07500 0.06200
H 	H 	0.16000 0.66760 0.92920 0.13900
H 	H 	0.19990 0.65580 0.85520 -0.02800
H 	H 	0.28370 0.62940 0.87130 0.17000
H 	H 	0.35230 0.65140 0.97630 -0.02800
H 	H 	0.32440 0.68290 0.05820 0.13800
H 	H 	0.08160 0.75570 0.93540 0.13600
H 	H 	0.97230 0.66410 0.85490 -0.00700
H 	H 	0.96060 0.59030 0.75740 0.10900
H 	H 	0.03050 0.62580 0.72010 -0.00300
H 	H 	0.27080 0.78770 0.80360 0.10100
H 	H 	0.22700 0.78640 0.73800 0.09200
H 	H 	0.35810 0.86730 0.87700 0.15800
H 	H 	0.44240 0.97630 0.93630 -0.06000
H 	H 	0.42080 0.05810 0.92410 0.19100
H 	H 	0.32710 0.02490 0.82630 -0.05700
H 	H 	0.23980 0.91700 0.77040 0.16400
H 	H 	0.32820 0.04140 0.97400 0.14900
H 	H 	0.33570 0.12990 0.95660 -0.03300
H 	H 	0.31570 0.20640 0.01890 0.12300
H 	H 	0.23490 0.16360 0.04380 -0.00100
C 	C 	0.39760 0.77140 0.52310 0.08100
C 	C 	0.36140 0.81160 0.51160 -0.05400
C 	C 	0.43340 0.79690 0.59800 -0.01800
C 	C 	0.34850 0.69920 0.48810 -0.08300
C 	C 	0.44600 0.78330 0.49280 -0.06300
C 	C 	0.44180 0.98850 0.55310 -0.15100
C 	C 	0.39220 0.92660 0.53050 0.25600
C 	C 	0.32780 0.90610 0.49150 -0.32200
C 	C 	0.31110 0.94990 0.47820 0.23800
C 	C 	0.36000 0.00990 0.49920 -0.28000
C 	C 	0.42450 0.03110 0.53950 0.14900
C 	C 	0.27360 0.72930 0.64720 0.38400
C 	C 	0.35300 0.75920 0.69480 -0.39800
C 	C 	0.40350 0.78420 0.68170 0.45900
C 	C 	0.46830 0.81200 0.72740 -0.59400
C 	C 	0.48410 0.81530 0.78750 0.58300
C 	C 	0.43600 0.78880 0.79910 -0.64300
C 	C 	0.37170 0.76290 0.75520 0.47700
C 	C 	0.18440 0.71750 0.55500 -0.14600
C 	C 	0.17820 0.73980 0.50290 0.21300
C 	C 	0.16720 0.70040 0.44020 -0.28900
C 	C 	0.15580 0.72180 0.39480 0.22900
C 	C 	0.14470 0.77470 0.40610 -0.30200
C 	C 	0.15580 0.81410 0.46720 0.22300
C 	C 	0.17350 0.79650 0.51510 -0.28500
C 	C 	0.22910 0.64650 0.27470 0.34200
C 	C 	0.21200 0.60260 0.30660 -0.23900
C 	C 	0.25080 0.61400 0.36950 0.28000
C 	C 	0.23120 0.56990 0.39060 -0.30400
C 	C 	0.17400 0.50690 0.34490 0.20000
C 	C 	0.13340 0.49830 0.28490 -0.26900
C 	C 	0.15270 0.54160 0.26400 0.18900
C 	C 	0.30720 0.74510 0.28640 -0.16100
C 	C 	0.38130 0.78900 0.31900 0.21300
C 	C 	0.39960 0.85060 0.36840 -0.28200
C 	C 	0.46430 0.90010 0.40420 0.21600
C 	C 	0.51270 0.88910 0.39410 -0.28300
C 	C 	0.49390 0.83150 0.33940 0.20700
C 	C 	0.42930 0.78100 0.30480 -0.28000
C 	C 	0.58410 0.74310 0.53770 -0.11100
C 	C 	0.54700 0.76960 0.51350 0.25600
C 	C 	0.56560 0.80800 0.48770 -0.30900
C 	C 	0.62080 0.81670 0.48230 0.21000
C 	C 	0.66290 0.79890 0.51230 -0.24300
C 	C 	0.64000 0.75640 0.53270 0.11600
C 	C 	0.27140 0.89760 0.02310 0.06700
C 	C 	0.31160 0.86140 0.01160 -0.05900
C 	C 	0.29690 0.93340 0.09800 -0.01000
C 	C 	0.19920 0.84850 0.98810 -0.06500
C 	C 	0.28330 0.94600 0.99280 -0.04200
C 	C 	0.48850 0.94180 0.05310 -0.12700
C 	C 	0.42660 0.89220 0.03050 0.22000
C 	C 	0.40610 0.82780 0.99150 -0.26600
C 	C 	0.44990 0.81110 0.97820 0.16900
C 	C 	0.50990 0.86000 0.99920 -0.20800
C 	C 	0.53110 0.92450 0.03950 0.10000
C 	C 	0.22930 0.77360 0.14720 0.38500
C 	C 	0.25920 0.85300 0.19480 -0.40300
C 	C 	0.28420 0.90350 0.18170 0.46300
C 	C 	0.31200 0.96830 0.22740 -0.59600
C 	C 	0.31530 0.98410 0.28750 0.60100
C 	C 	0.28880 0.93600 0.29910 -0.65800
C 	C 	0.26290 0.87170 0.25520 0.48800
C 	C 	0.21750 0.68440 0.05500 -0.14400
C 	C 	0.23980 0.67820 0.00290 0.20900
C 	C 	0.20040 0.66720 0.94020 -0.28200
C 	C 	0.22180 0.65580 0.89480 0.22800
C 	C 	0.27470 0.64470 0.90610 -0.30400
C 	C 	0.31410 0.65580 0.96720 0.23200
C 	C 	0.29650 0.67350 0.01510 -0.29300
C 	C 	0.14650 0.72910 0.77470 0.33400
C 	C 	0.10260 0.71200 0.80660 -0.21500
C 	C 	0.11400 0.75080 0.86950 0.25800
C 	C 	0.06990 0.73120 0.89060 -0.26700
C 	C 	0.00690 0.67400 0.84490 0.14200
C 	C 	0.99830 0.63340 0.78490 -0.20800
C 	C 	0.04160 0.65270 0.76400 0.14300
C 	C 	0.24510 0.80720 0.78640 -0.19300
C 	C 	0.28900 0.88130 0.81900 0.27000
C 	C 	0.35060 0.89960 0.86840 -0.35200
C 	C 	0.40010 0.96430 0.90420 0.30200
C 	C 	0.38910 0.01270 0.89410 -0.37900
C 	C 	0.33150 0.99390 0.83940 0.30300
C 	C 	0.28100 0.92930 0.80480 -0.35400
C 	C 	0.24310 0.08410 0.03770 -0.11700
C 	C 	0.26960 0.04700 0.01350 0.24800
C 	C 	0.30800 0.06560 0.98770 -0.30800
C 	C 	0.31670 0.12080 0.98230 0.22300
C 	C 	0.29890 0.16290 0.01230 -0.26000
C 	C 	0.25640 0.14000 0.03270 0.12400
N 	N 	0.12220 0.49230 0.52820 0.06000
N 	N 	0.26400 0.60830 0.73990 0.06100
N 	N 	0.05540 0.51430 0.67260 0.05900
N 	N 	0.25610 0.75520 0.60700 -0.24100
N 	N 	0.29490 0.68990 0.30140 -0.22800
N 	N 	0.99230 0.62220 0.02820 0.06000
N 	N 	0.10830 0.76400 0.23990 0.06100
N 	N 	0.01430 0.55540 0.17260 0.05600
N 	N 	0.25520 0.75610 0.10700 -0.24100
N 	N 	0.18990 0.79490 0.80140 -0.22200
O 	O 	0.08850 0.47850 0.55590 -0.26500
O 	O 	0.16260 0.55230 0.54960 -0.28100
O 	O 	0.10340 0.44900 0.46910 -0.11700
O 	O 	0.24540 0.64850 0.76060 -0.27000
O 	O 	0.23570 0.56640 0.67900 -0.25200
O 	O 	0.30710 0.60400 0.78300 -0.12600
O 	O 	0.11740 0.53630 0.70620 -0.25400
O 	O 	0.03530 0.53800 0.63510 -0.29800
O 	O 	0.01640 0.48380 0.68840 -0.12800
O 	O 	0.41520 0.88310 0.54500 -0.21800
O 	O 	0.38340 0.77800 0.61800 -0.27900
O 	O 	0.30790 0.67860 0.41190 -0.22900
O 	O 	0.49050 0.75470 0.51980 -0.21900
O 	O 	0.23030 0.68680 0.65080 -0.47700
O 	O 	0.18510 0.64580 0.22730 -0.46000
O 	O 	0.97850 0.58850 0.05590 -0.26200
O 	O 	0.05230 0.66260 0.04960 -0.28600
O 	O 	0.94900 0.60340 0.96910 -0.11100
O 	O 	0.14850 0.74540 0.26060 -0.26900
O 	O 	0.06640 0.73570 0.17900 -0.25400
O 	O 	0.10400 0.80710 0.28300 -0.12500
O 	O 	0.03630 0.61740 0.20620 -0.25500
O 	O 	0.03800 0.53530 0.13510 -0.29900
O 	O 	0.98380 0.51640 0.18840 -0.12200
O 	O 	0.38310 0.91520 0.04500 -0.21100
O 	O 	0.27800 0.88340 0.11800 -0.28000
O 	O 	0.17860 0.80790 0.91190 -0.22500
O 	O 	0.25470 0.99050 0.01980 -0.21900
O 	O 	0.18680 0.73030 0.15080 -0.47700
O 	O 	0.14580 0.68510 0.72730 -0.45800
Eu	Eu	0.64814 0.14815 0.59952 1.91800
Eu	Eu	0.14814 0.09952 0.64815 1.91600
H 	H 	0.61160 0.28480 0.79120 0.14800
H 	H 	0.32520 0.32670 0.68560 0.14500
H 	H 	0.53120 0.33240 0.80810 0.06700
H 	H 	0.46370 0.33410 0.79410 0.06400
H 	H 	0.62250 0.46170 0.84550 0.05800
H 	H 	0.60820 0.46170 0.77730 0.05400
H 	H 	0.49280 0.37120 0.67360 0.08000
H 	H 	0.50630 0.31840 0.69130 0.07600
H 	H 	0.50880 0.47300 0.83090 0.06800
H 	H 	0.44390 0.42070 0.75910 0.07200
H 	H 	0.47340 0.29460 0.86200 0.15200
H 	H 	0.45470 0.26610 0.93800 -0.04000
H 	H 	0.48570 0.34920 0.03840 0.13300
H 	H 	0.55780 0.45730 0.07540 -0.02100
H 	H 	0.71750 0.50210 0.82890 0.24600
H 	H 	0.82040 0.52910 0.83640 -0.16100
H 	H 	0.83920 0.44710 0.78800 0.26200
H 	H 	0.76660 0.33900 0.74700 -0.12000
H 	H 	0.53400 0.16830 0.66940 0.07100
H 	H 	0.57500 0.15760 0.72670 0.06300
H 	H 	0.42920 0.16760 0.66000 0.14100
H 	H 	0.35520 0.15580 0.69990 -0.02900
H 	H 	0.37130 0.12940 0.78370 0.17000
H 	H 	0.47630 0.15140 0.85230 -0.02700
H 	H 	0.55820 0.18290 0.82440 0.13700
H 	H 	0.43540 0.25570 0.58160 0.14800
H 	H 	0.35490 0.16410 0.47230 -0.03100
H 	H 	0.25740 0.09030 0.46060 0.12800
H 	H 	0.22010 0.12580 0.53050 -0.01900
H 	H 	0.30360 0.28770 0.77080 0.09100
H 	H 	0.23800 0.28640 0.72700 0.08200
H 	H 	0.37700 0.36730 0.85810 0.13400
H 	H 	0.43630 0.47630 0.94240 -0.03100
H 	H 	0.42410 0.55810 0.92080 0.15800
H 	H 	0.32630 0.52490 0.82710 -0.02100
H 	H 	0.27040 0.41700 0.73980 0.13700
H 	H 	0.47400 0.54140 0.82820 0.15000
H 	H 	0.45660 0.62990 0.83570 -0.02800
H 	H 	0.51890 0.70640 0.81570 0.12000
H 	H 	0.54380 0.66360 0.73490 0.00400
H 	H 	0.11160 0.29120 0.78480 0.14800
H 	H 	0.82520 0.18560 0.82670 0.14300
H 	H 	0.03120 0.30810 0.83240 0.06800
H 	H 	0.96370 0.29410 0.83410 0.06900
H 	H 	0.12250 0.34550 0.96170 0.05600
H 	H 	0.10820 0.27730 0.96170 0.05200
H 	H 	0.99280 0.17360 0.87120 0.07600
H 	H 	0.00630 0.19130 0.81840 0.06800
H 	H 	0.00880 0.33090 0.97300 0.05900
H 	H 	0.94390 0.25910 0.92070 0.06700
H 	H 	0.97340 0.36200 0.79460 0.13400
H 	H 	0.95470 0.43800 0.76610 -0.01600
H 	H 	0.98570 0.53840 0.84920 0.11000
H 	H 	0.05780 0.57540 0.95730 -0.00300
H 	H 	0.21750 0.32890 0.00210 0.24200
H 	H 	0.32040 0.33640 0.02910 -0.17200
H 	H 	0.33920 0.28800 0.94710 0.26900
H 	H 	0.26660 0.24700 0.83900 -0.12300
H 	H 	0.03400 0.16940 0.66830 0.06900
H 	H 	0.07500 0.22670 0.65760 0.06200
H 	H 	0.92920 0.16000 0.66760 0.13900
H 	H 	0.85520 0.19990 0.65580 -0.02800
H 	H 	0.87130 0.28370 0.62940 0.17000
H 	H 	0.97630 0.35230 0.65140 -0.02800
H 	H 	0.05820 0.32440 0.68290 0.13800
H 	H 	0.93540 0.08160 0.75570 0.13600
H 	H 	0.85490 0.97230 0.66410 -0.00700
H 	H 	0.75740 0.96060 0.59030 0.10900
H 	H 	0.72010 0.03050 0.62580 -0.00300
H 	H 	0.80360 0.27080 0.78770 0.10100
H 	H 	0.73800 0.22700 0.78640 0.09200
H 	H 	0.87700 0.35810 0.86730 0.15800
H 	H 	0.93630 0.44240 0.97630 -0.06000
H 	H 	0.92410 0.42080 0.05810 0.19100
H 	H 	0.82630 0.32710 0.02490 -0.05700
H 	H 	0.77040 0.23980 0.91700 0.16400
H 	H 	0.97400 0.32820 0.04140 0.14900
H 	H 	0.95660 0.33570 0.12990 -0.03300
H 	H 	0.01890 0.31570 0.20640 0.12300
H 	H 	0.04380 0.23490 0.16360 -0.00100
C 	C 	0.52310 0.39760 0.77140 0.08100
C 	C 	0.51160 0.36140 0.81160 -0.05400
C 	C 	0.59800 0.43340 0.79690 -0.01800
C 	C 	0.48810 0.34850 0.69920 -0.08300
C 	C 	0.49280 0.44600 0.78330 -0.06300
C 	C 	0.55310 0.44180 0.98850 -0.15100
C 	C 	0.53050 0.39220 0.92660 0.25600
C 	C 	0.49150 0.32780 0.90610 -0.32200
C 	C 	0.47820 0.31110 0.94990 0.23800
C 	C 	0.49920 0.36000 0.00990 -0.28000
C 	C 	0.53950 0.42450 0.03110 0.14900
C 	C 	0.64720 0.27360 0.72930 0.38400
C 	C 	0.69480 0.35300 0.75920 -0.39800
C 	C 	0.68170 0.40350 0.78420 0.45900
C 	C 	0.72740 0.46830 0.81200 -0.59400
C 	C 	0.78750 0.48410 0.81530 0.58300
C 	C 	0.79910 0.43600 0.78880 -0.64300
C 	C 	0.75520 0.37170 0.76290 0.47700
C 	C 	0.55500 0.18440 0.71750 -0.14600
C 	C 	0.50290 0.17820 0.73980 0.21300
C 	C 	0.44020 0.16720 0.70040 -0.28900
C 	C 	0.39480 0.15580 0.72180 0.22900
C 	C 	0.40610 0.14470 0.77470 -0.30200
C 	C 	0.46720 0.15580 0.81410 0.22300
C 	C 	0.51510 0.17350 0.79650 -0.28500
C 	C 	0.27470 0.22910 0.64650 0.34200
C 	C 	0.30660 0.21200 0.60260 -0.23900
C 	C 	0.36950 0.25080 0.61400 0.28000
C 	C 	0.39060 0.23120 0.56990 -0.30400
C 	C 	0.34490 0.17400 0.50690 0.20000
C 	C 	0.28490 0.13340 0.49830 -0.26900
C 	C 	0.26400 0.15270 0.54160 0.18900
C 	C 	0.28640 0.30720 0.74510 -0.16100
C 	C 	0.31900 0.38130 0.78900 0.21300
C 	C 	0.36840 0.39960 0.85060 -0.28200
C 	C 	0.40420 0.46430 0.90010 0.21600
C 	C 	0.39410 0.51270 0.88910 -0.28300
C 	C 	0.33940 0.49390 0.83150 0.20700
C 	C 	0.30480 0.42930 0.78100 -0.28000
C 	C 	0.53770 0.58410 0.74310 -0.11100
C 	C 	0.51350 0.54700 0.76960 0.25600
C 	C 	0.48770 0.56560 0.80800 -0.30900
C 	C 	0.48230 0.62080 0.81670 0.21000
C 	C 	0.51230 0.66290 0.79890 -0.24300
C 	C 	0.53270 0.64000 0.75640 0.11600
C 	C 	0.02310 0.27140 0.89760 0.06700
C 	C 	0.01160 0.31160 0.86140 -0.05900
C 	C 	0.09800 0.29690 0.93340 -0.01000
C 	C 	0.98810 0.19920 0.84850 -0.06500
C 	C 	0.99280 0.28330 0.94600 -0.04200
C 	C 	0.05310 0.48850 0.94180 -0.12700
C 	C 	0.03050 0.42660 0.89220 0.22000
C 	C 	0.99150 0.40610 0.82780 -0.26600
C 	C 	0.97820 0.44990 0.81110 0.16900
C 	C 	0.99920 0.50990 0.86000 -0.20800
C 	C 	0.03950 0.53110 0.92450 0.10000
C 	C 	0.14720 0.22930 0.77360 0.38500
C 	C 	0.19480 0.25920 0.85300 -0.40300
C 	C 	0.18170 0.28420 0.90350 0.46300
C 	C 	0.22740 0.31200 0.96830 -0.59600
C 	C 	0.28750 0.31530 0.98410 0.60100
C 	C 	0.29910 0.28880 0.93600 -0.65800
C 	C 	0.25520 0.26290 0.87170 0.48800
C 	C 	0.05500 0.21750 0.68440 -0.14400
C 	C 	0.00290 0.23980 0.67820 0.20900
C 	C 	0.94020 0.20040 0.66720 -0.28200
C 	C 	0.89480 0.22180 0.65580 0.22800
C 	C 	0.90610 0.27470 0.64470 -0.30400
C 	C 	0.96720 0.31410 0.65580 0.23200
C 	C 	0.01510 0.29650 0.67350 -0.29300
C 	C 	0.77470 0.14650 0.72910 0.33400
C 	C 	0.80660 0.10260 0.71200 -0.21500
C 	C 	0.86950 0.11400 0.75080 0.25800
C 	C 	0.89060 0.06990 0.73120 -0.26700
C 	C 	0.84490 0.00690 0.67400 0.14200
C 	C 	0.78490 0.99830 0.63340 -0.20800
C 	C 	0.76400 0.04160 0.65270 0.14300
C 	C 	0.78640 0.24510 0.80720 -0.19300
C 	C 	0.81900 0.28900 0.88130 0.27000
C 	C 	0.86840 0.35060 0.89960 -0.35200
C 	C 	0.90420 0.40010 0.96430 0.30200
C 	C 	0.89410 0.38910 0.01270 -0.37900
C 	C 	0.83940 0.33150 0.99390 0.30300
C 	C 	0.80480 0.28100 0.92930 -0.35400
C 	C 	0.03770 0.24310 0.08410 -0.11700
C 	C 	0.01350 0.26960 0.04700 0.24800
C 	C 	0.98770 0.30800 0.06560 -0.30800
C 	C 	0.98230 0.31670 0.12080 0.22300
C 	C 	0.01230 0.29890 0.16290 -0.26000
C 	C 	0.03270 0.25640 0.14000 0.12400
N 	N 	0.60700 0.25610 0.75520 -0.24100
N 	N 	0.30140 0.29490 0.68990 -0.22800
N 	N 	0.52820 0.12220 0.49230 0.06000
N 	N 	0.73990 0.26400 0.60830 0.06100
N 	N 	0.67260 0.05540 0.51430 0.05900
N 	N 	0.02820 0.99230 0.62220 0.06000
N 	N 	0.23990 0.10830 0.76400 0.06100
N 	N 	0.17260 0.01430 0.55540 0.05600
N 	N 	0.10700 0.25520 0.75610 -0.24100
N 	N 	0.80140 0.18990 0.79490 -0.22200
O 	O 	0.54500 0.41520 0.88310 -0.21800
O 	O 	0.61800 0.38340 0.77800 -0.27900
O 	O 	0.41190 0.30790 0.67860 -0.22900
O 	O 	0.51980 0.49050 0.75470 -0.21900
O 	O 	0.65080 0.23030 0.68680 -0.47700
O 	O 	0.22730 0.18510 0.64580 -0.46000
O 	O 	0.55590 0.08850 0.47850 -0.26500
O 	O 	0.54960 0.16260 0.55230 -0.28100
O 	O 	0.46910 0.10340 0.44900 -0.11700
O 	O 	0.76060 0.24540 0.64850 -0.27000
O 	O 	0.67900 0.23570 0.56640 -0.25200
O 	O 	0.78300 0.30710 0.60400 -0.12600
O 	O 	0.70620 0.11740 0.53630 -0.25400
O 	O 	0.63510 0.03530 0.53800 -0.29800
O 	O 	0.68840 0.01640 0.48380 -0.12800
O 	O 	0.05590 0.97850 0.58850 -0.26200
O 	O 	0.04960 0.05230 0.66260 -0.28600
O 	O 	0.96910 0.94900 0.60340 -0.11100
O 	O 	0.26060 0.14850 0.74540 -0.26900
O 	O 	0.17900 0.06640 0.73570 -0.25400
O 	O 	0.28300 0.10400 0.80710 -0.12500
O 	O 	0.20620 0.03630 0.61740 -0.25500
O 	O 	0.13510 0.03800 0.53530 -0.29900
O 	O 	0.18840 0.98380 0.51640 -0.12200
O 	O 	0.04500 0.38310 0.91520 -0.21100
O 	O 	0.11800 0.27800 0.88340 -0.28000
O 	O 	0.91190 0.17860 0.80790 -0.22500
O 	O 	0.01980 0.25470 0.99050 -0.21900
O 	O 	0.15080 0.18680 0.73030 -0.47700
O 	O 	0.72730 0.14580 0.68510 -0.45800
