data_crystal

_cell_length_a 24.12050
_cell_length_b 24.12050
_cell_length_c 24.12050
_cell_angle_alpha 109.46100
_cell_angle_beta  109.46100
_cell_angle_gamma 109.46100

_symmetry_space_group_name_	'P 1'
_symmetry_space_group_name_H-M	'P 1'

loop_
_symmetry_equiv_pos_as_xyz
  x,y,z

loop_
_atom_site_label
_atom_site_type_symbol
_atom_site_fract_x
_atom_site_fract_y
_atom_site_fract_z
_atom_site_charge
Er	Er	0.40152 0.35207 0.85207 1.90800
Er	Er	0.85207 0.40152 0.35207 1.90800
Er	Er	0.35207 0.85207 0.40152 1.90800
Er	Er	0.85207 0.90152 0.35207 1.90800
Er	Er	0.90152 0.35207 0.85207 1.90800
Er	Er	0.35207 0.85207 0.90152 1.90800
Er	Er	0.30283 0.30283 0.30283 1.91500
Er	Er	0.80283 0.80283 0.80283 1.91500
H 	H 	0.34900 0.47680 0.02730 0.14900
H 	H 	0.39000 0.71530 0.21220 0.15000
H 	H 	0.66850 0.67610 0.30800 0.15200
H 	H 	0.48250 0.52620 0.35290 0.17300
H 	H 	0.46460 0.66480 0.19200 0.05700
H 	H 	0.53450 0.66730 0.20870 0.05300
H 	H 	0.37760 0.53640 0.15330 0.05800
H 	H 	0.39320 0.53530 0.22160 0.05800
H 	H 	0.51370 0.63560 0.33050 0.04300
H 	H 	0.50370 0.68920 0.31150 0.04200
H 	H 	0.54690 0.57280 0.23530 0.03100
H 	H 	0.47730 0.52000 0.16810 0.03200
H 	H 	0.52340 0.70400 0.13360 0.25900
H 	H 	0.54070 0.73020 0.05740 -0.15400
H 	H 	0.51680 0.64700 0.95690 0.26300
H 	H 	0.43490 0.54510 0.92410 -0.11100
H 	H 	0.29170 0.36160 0.93400 0.04200
H 	H 	0.35810 0.37270 0.98940 0.05200
H 	H 	0.35670 0.36450 0.08660 0.09500
H 	H 	0.31420 0.37400 0.15980 0.01700
H 	H 	0.20530 0.35390 0.12080 0.11800
H 	H 	0.14870 0.34770 0.01920 0.02000
H 	H 	0.20900 0.38000 0.96920 0.09300
H 	H 	0.28360 0.50010 0.17290 0.21600
H 	H 	0.17980 0.47050 0.16500 -0.11700
H 	H 	0.16120 0.55370 0.21890 0.21300
H 	H 	0.23310 0.66010 0.24970 -0.07800
H 	H 	0.42780 0.84510 0.28760 0.08100
H 	H 	0.47220 0.82880 0.33750 0.08900
H 	H 	0.57200 0.83330 0.33490 0.13000
H 	H 	0.63860 0.83660 0.28600 -0.01500
H 	H 	0.61330 0.85340 0.19460 0.15100
H 	H 	0.51450 0.85540 0.14650 -0.01000
H 	H 	0.43860 0.82990 0.18220 0.12700
H 	H 	0.57410 0.73650 0.42630 0.16800
H 	H 	0.64570 0.83960 0.52550 -0.04900
H 	H 	0.74690 0.91110 0.53940 0.14500
H 	H 	0.78210 0.87080 0.46680 -0.02900
H 	H 	0.77220 0.70870 0.28390 0.09100
H 	H 	0.71790 0.71770 0.23500 0.09900
H 	H 	0.62230 0.62700 0.14050 0.14600
H 	H 	0.56160 0.51490 0.06160 -0.02700
H 	H 	0.57640 0.43740 0.09130 0.16600
H 	H 	0.68460 0.47820 0.17870 -0.02400
H 	H 	0.74030 0.58850 0.26260 0.14100
H 	H 	0.53720 0.46640 0.18460 0.36600
H 	H 	0.53580 0.36390 0.15380 -0.32900
H 	H 	0.49450 0.30500 0.19760 0.41900
H 	H 	0.44910 0.33110 0.25890 -0.24500
H 	H 	0.36830 0.48340 0.34850 0.05100
H 	H 	0.42400 0.49370 0.41420 0.03600
H 	H 	0.36180 0.57810 0.34760 0.10600
H 	H 	0.40330 0.69210 0.38830 0.00300
H 	H 	0.49820 0.76720 0.49160 0.13000
H 	H 	0.54520 0.72710 0.55820 0.00900
H 	H 	0.52340 0.61740 0.50400 0.10100
H 	H 	0.02730 0.34900 0.47680 0.15000
H 	H 	0.21220 0.39000 0.71530 0.15100
H 	H 	0.30800 0.66850 0.67610 0.15300
H 	H 	0.35290 0.48250 0.52620 0.17400
H 	H 	0.19200 0.46460 0.66480 0.05800
H 	H 	0.20870 0.53450 0.66730 0.05400
H 	H 	0.15330 0.37760 0.53640 0.05900
H 	H 	0.22160 0.39320 0.53530 0.05900
H 	H 	0.33050 0.51370 0.63560 0.04400
H 	H 	0.31150 0.50370 0.68920 0.04300
H 	H 	0.23530 0.54690 0.57280 0.03200
H 	H 	0.16810 0.47730 0.52000 0.03200
H 	H 	0.13360 0.52340 0.70400 0.25900
H 	H 	0.05740 0.54070 0.73020 -0.15400
H 	H 	0.95690 0.51680 0.64700 0.26300
H 	H 	0.92410 0.43490 0.54510 -0.11100
H 	H 	0.93400 0.29170 0.36160 0.04200
H 	H 	0.98940 0.35810 0.37270 0.05200
H 	H 	0.08660 0.35670 0.36450 0.09500
H 	H 	0.15980 0.31420 0.37400 0.01700
H 	H 	0.12080 0.20530 0.35390 0.11800
H 	H 	0.01920 0.14870 0.34770 0.02000
H 	H 	0.96920 0.20900 0.38000 0.09300
H 	H 	0.17290 0.28360 0.50010 0.21600
H 	H 	0.16500 0.17980 0.47050 -0.11700
H 	H 	0.21890 0.16120 0.55370 0.21300
H 	H 	0.24970 0.23310 0.66010 -0.07800
H 	H 	0.28760 0.42780 0.84510 0.08100
H 	H 	0.33750 0.47220 0.82880 0.08900
H 	H 	0.33490 0.57200 0.83330 0.13000
H 	H 	0.28600 0.63860 0.83660 -0.01500
H 	H 	0.19460 0.61330 0.85340 0.15100
H 	H 	0.14650 0.51450 0.85540 -0.01000
H 	H 	0.18220 0.43860 0.82990 0.12700
H 	H 	0.42630 0.57410 0.73650 0.16800
H 	H 	0.52550 0.64570 0.83960 -0.04900
H 	H 	0.53940 0.74690 0.91110 0.14500
H 	H 	0.46680 0.78210 0.87080 -0.02900
H 	H 	0.28390 0.77220 0.70870 0.09100
H 	H 	0.23500 0.71790 0.71770 0.09900
H 	H 	0.14050 0.62230 0.62700 0.14600
H 	H 	0.06160 0.56160 0.51490 -0.02700
H 	H 	0.09130 0.57640 0.43740 0.16600
H 	H 	0.17870 0.68460 0.47820 -0.02400
H 	H 	0.26260 0.74030 0.58850 0.14100
H 	H 	0.18460 0.53720 0.46640 0.36600
H 	H 	0.15380 0.53580 0.36390 -0.32900
H 	H 	0.19760 0.49450 0.30500 0.41900
H 	H 	0.25890 0.44910 0.33110 -0.24500
H 	H 	0.34850 0.36830 0.48340 0.05100
H 	H 	0.41420 0.42400 0.49370 0.03600
H 	H 	0.34760 0.36180 0.57810 0.10600
H 	H 	0.38830 0.40330 0.69210 0.00300
H 	H 	0.49160 0.49820 0.76720 0.13000
H 	H 	0.55820 0.54520 0.72710 0.00900
H 	H 	0.50400 0.52340 0.61740 0.10100
H 	H 	0.47680 0.02730 0.34900 0.15000
H 	H 	0.71530 0.21220 0.39000 0.15100
H 	H 	0.67610 0.30800 0.66850 0.15300
H 	H 	0.52620 0.35290 0.48250 0.17400
H 	H 	0.66480 0.19200 0.46460 0.05800
H 	H 	0.66730 0.20870 0.53450 0.05400
H 	H 	0.53640 0.15330 0.37760 0.05900
H 	H 	0.53530 0.22160 0.39320 0.05900
H 	H 	0.63560 0.33050 0.51370 0.04400
H 	H 	0.68920 0.31150 0.50370 0.04300
H 	H 	0.57280 0.23530 0.54690 0.03200
H 	H 	0.52000 0.16810 0.47730 0.03200
H 	H 	0.70400 0.13360 0.52340 0.25900
H 	H 	0.73020 0.05740 0.54070 -0.15400
H 	H 	0.64700 0.95690 0.51680 0.26300
H 	H 	0.54510 0.92410 0.43490 -0.11100
H 	H 	0.36160 0.93400 0.29170 0.04200
H 	H 	0.37270 0.98940 0.35810 0.05200
H 	H 	0.36450 0.08660 0.35670 0.09500
H 	H 	0.37400 0.15980 0.31420 0.01700
H 	H 	0.35390 0.12080 0.20530 0.11800
H 	H 	0.34770 0.01920 0.14870 0.02000
H 	H 	0.38000 0.96920 0.20900 0.09300
H 	H 	0.50010 0.17290 0.28360 0.21600
H 	H 	0.47050 0.16500 0.17980 -0.11700
H 	H 	0.55370 0.21890 0.16120 0.21300
H 	H 	0.66010 0.24970 0.23310 -0.07800
H 	H 	0.84510 0.28760 0.42780 0.08100
H 	H 	0.82880 0.33750 0.47220 0.08900
H 	H 	0.83330 0.33490 0.57200 0.13000
H 	H 	0.83660 0.28600 0.63860 -0.01500
H 	H 	0.85340 0.19460 0.61330 0.15100
H 	H 	0.85540 0.14650 0.51450 -0.01000
H 	H 	0.82990 0.18220 0.43860 0.12700
H 	H 	0.73650 0.42630 0.57410 0.16800
H 	H 	0.83960 0.52550 0.64570 -0.04900
H 	H 	0.91110 0.53940 0.74690 0.14500
H 	H 	0.87080 0.46680 0.78210 -0.02900
H 	H 	0.70870 0.28390 0.77220 0.09100
H 	H 	0.71770 0.23500 0.71790 0.09900
H 	H 	0.62700 0.14050 0.62230 0.14600
H 	H 	0.51490 0.06160 0.56160 -0.02700
H 	H 	0.43740 0.09130 0.57640 0.16600
H 	H 	0.47820 0.17870 0.68460 -0.02400
H 	H 	0.58850 0.26260 0.74030 0.14100
H 	H 	0.46640 0.18460 0.53720 0.36600
H 	H 	0.36390 0.15380 0.53580 -0.32900
H 	H 	0.30500 0.19760 0.49450 0.41900
H 	H 	0.33110 0.25890 0.44910 -0.24500
H 	H 	0.48340 0.34850 0.36830 0.05100
H 	H 	0.49370 0.41420 0.42400 0.03600
H 	H 	0.57810 0.34760 0.36180 0.10600
H 	H 	0.69210 0.38830 0.40330 0.00300
H 	H 	0.76720 0.49160 0.49820 0.13000
H 	H 	0.72710 0.55820 0.54520 0.00900
H 	H 	0.61740 0.50400 0.52340 0.10100
H 	H 	0.97680 0.84900 0.52730 0.15000
H 	H 	0.21530 0.89000 0.71220 0.15100
H 	H 	0.17610 0.16850 0.80800 0.15300
H 	H 	0.02620 0.98250 0.85290 0.17300
H 	H 	0.16480 0.96460 0.69200 0.05700
H 	H 	0.16730 0.03450 0.70870 0.05400
H 	H 	0.03640 0.87760 0.65330 0.05900
H 	H 	0.03530 0.89320 0.72160 0.05900
H 	H 	0.13560 0.01370 0.83050 0.04400
H 	H 	0.18920 0.00370 0.81150 0.04300
H 	H 	0.07280 0.04690 0.73530 0.03200
H 	H 	0.02000 0.97730 0.66810 0.03100
H 	H 	0.20400 0.02340 0.63360 0.25900
H 	H 	0.23020 0.04070 0.55740 -0.15500
H 	H 	0.14700 0.01680 0.45690 0.26300
H 	H 	0.04510 0.93490 0.42410 -0.11200
H 	H 	0.86160 0.79170 0.43400 0.04200
H 	H 	0.87270 0.85810 0.48940 0.05200
H 	H 	0.86450 0.85670 0.58660 0.09500
H 	H 	0.87400 0.81420 0.65980 0.01800
H 	H 	0.85390 0.70530 0.62080 0.11800
H 	H 	0.84770 0.64870 0.51920 0.02000
H 	H 	0.88000 0.70900 0.46920 0.09300
H 	H 	0.00010 0.78360 0.67290 0.21500
H 	H 	0.97050 0.67980 0.66500 -0.11500
H 	H 	0.05370 0.66120 0.71890 0.21200
H 	H 	0.16010 0.73310 0.74970 -0.07700
H 	H 	0.34510 0.92780 0.78760 0.08100
H 	H 	0.32880 0.97220 0.83750 0.08900
H 	H 	0.33330 0.07200 0.83490 0.13000
H 	H 	0.33660 0.13860 0.78600 -0.01500
H 	H 	0.35340 0.11330 0.69460 0.15100
H 	H 	0.35540 0.01450 0.64650 -0.00900
H 	H 	0.32990 0.93860 0.68220 0.12700
H 	H 	0.23650 0.07410 0.92630 0.16800
H 	H 	0.33960 0.14570 0.02550 -0.04900
H 	H 	0.41110 0.24690 0.03940 0.14500
H 	H 	0.37080 0.28210 0.96680 -0.02900
H 	H 	0.20870 0.27220 0.78390 0.09100
H 	H 	0.21770 0.21790 0.73500 0.09900
H 	H 	0.12700 0.12230 0.64050 0.14500
H 	H 	0.01490 0.06160 0.56160 -0.02600
H 	H 	0.93740 0.07640 0.59130 0.16500
H 	H 	0.97820 0.18460 0.67870 -0.02300
H 	H 	0.08850 0.24030 0.76260 0.14100
H 	H 	0.96640 0.03720 0.68460 0.36600
H 	H 	0.86390 0.03580 0.65380 -0.32900
H 	H 	0.80500 0.99450 0.69760 0.41800
H 	H 	0.83110 0.94910 0.75890 -0.24500
H 	H 	0.98340 0.86830 0.84850 0.05300
H 	H 	0.99370 0.92400 0.91420 0.03800
H 	H 	0.07810 0.86180 0.84760 0.10600
H 	H 	0.19210 0.90330 0.88830 0.00200
H 	H 	0.26720 0.99820 0.99160 0.13100
H 	H 	0.22710 0.04520 0.05820 0.00800
H 	H 	0.11740 0.02340 0.00400 0.10200
H 	H 	0.84900 0.52730 0.97680 0.15000
H 	H 	0.89000 0.71220 0.21530 0.15100
H 	H 	0.16850 0.80800 0.17610 0.15300
H 	H 	0.98250 0.85290 0.02620 0.17300
H 	H 	0.96460 0.69200 0.16480 0.05700
H 	H 	0.03450 0.70870 0.16730 0.05400
H 	H 	0.87760 0.65330 0.03640 0.05900
H 	H 	0.89320 0.72160 0.03530 0.05900
H 	H 	0.01370 0.83050 0.13560 0.04400
H 	H 	0.00370 0.81150 0.18920 0.04300
H 	H 	0.04690 0.73530 0.07280 0.03200
H 	H 	0.97730 0.66810 0.02000 0.03100
H 	H 	0.02340 0.63360 0.20400 0.25900
H 	H 	0.04070 0.55740 0.23020 -0.15500
H 	H 	0.01680 0.45690 0.14700 0.26300
H 	H 	0.93490 0.42410 0.04510 -0.11200
H 	H 	0.79170 0.43400 0.86160 0.04200
H 	H 	0.85810 0.48940 0.87270 0.05200
H 	H 	0.85670 0.58660 0.86450 0.09500
H 	H 	0.81420 0.65980 0.87400 0.01800
H 	H 	0.70530 0.62080 0.85390 0.11800
H 	H 	0.64870 0.51920 0.84770 0.02000
H 	H 	0.70900 0.46920 0.88000 0.09300
H 	H 	0.78360 0.67290 0.00010 0.21500
H 	H 	0.67980 0.66500 0.97050 -0.11500
H 	H 	0.66120 0.71890 0.05370 0.21200
H 	H 	0.73310 0.74970 0.16010 -0.07700
H 	H 	0.92780 0.78760 0.34510 0.08100
H 	H 	0.97220 0.83750 0.32880 0.08900
H 	H 	0.07200 0.83490 0.33330 0.13000
H 	H 	0.13860 0.78600 0.33660 -0.01500
H 	H 	0.11330 0.69460 0.35340 0.15100
H 	H 	0.01450 0.64650 0.35540 -0.00900
H 	H 	0.93860 0.68220 0.32990 0.12700
H 	H 	0.07410 0.92630 0.23650 0.16800
H 	H 	0.14570 0.02550 0.33960 -0.04900
H 	H 	0.24690 0.03940 0.41110 0.14500
H 	H 	0.28210 0.96680 0.37080 -0.02900
H 	H 	0.27220 0.78390 0.20870 0.09100
H 	H 	0.21790 0.73500 0.21770 0.09900
H 	H 	0.12230 0.64050 0.12700 0.14500
H 	H 	0.06160 0.56160 0.01490 -0.02600
H 	H 	0.07640 0.59130 0.93740 0.16500
H 	H 	0.18460 0.67870 0.97820 -0.02300
H 	H 	0.24030 0.76260 0.08850 0.14100
H 	H 	0.03720 0.68460 0.96640 0.36600
H 	H 	0.03580 0.65380 0.86390 -0.32900
H 	H 	0.99450 0.69760 0.80500 0.41800
H 	H 	0.94910 0.75890 0.83110 -0.24500
H 	H 	0.86830 0.84850 0.98340 0.05300
H 	H 	0.92400 0.91420 0.99370 0.03800
H 	H 	0.86180 0.84760 0.07810 0.10600
H 	H 	0.90330 0.88830 0.19210 0.00200
H 	H 	0.99820 0.99160 0.26720 0.13100
H 	H 	0.04520 0.05820 0.22710 0.00800
H 	H 	0.02340 0.00400 0.11740 0.10200
H 	H 	0.52730 0.97680 0.84900 0.15000
H 	H 	0.71220 0.21530 0.89000 0.15100
H 	H 	0.80800 0.17610 0.16850 0.15300
H 	H 	0.85290 0.02620 0.98250 0.17300
H 	H 	0.69200 0.16480 0.96460 0.05700
H 	H 	0.70870 0.16730 0.03450 0.05400
H 	H 	0.65330 0.03640 0.87760 0.05900
H 	H 	0.72160 0.03530 0.89320 0.05900
H 	H 	0.83050 0.13560 0.01370 0.04400
H 	H 	0.81150 0.18920 0.00370 0.04300
H 	H 	0.73530 0.07280 0.04690 0.03200
H 	H 	0.66810 0.02000 0.97730 0.03100
H 	H 	0.63360 0.20400 0.02340 0.25900
H 	H 	0.55740 0.23020 0.04070 -0.15500
H 	H 	0.45690 0.14700 0.01680 0.26300
H 	H 	0.42410 0.04510 0.93490 -0.11200
H 	H 	0.43400 0.86160 0.79170 0.04200
H 	H 	0.48940 0.87270 0.85810 0.05200
H 	H 	0.58660 0.86450 0.85670 0.09500
H 	H 	0.65980 0.87400 0.81420 0.01800
H 	H 	0.62080 0.85390 0.70530 0.11800
H 	H 	0.51920 0.84770 0.64870 0.02000
H 	H 	0.46920 0.88000 0.70900 0.09300
H 	H 	0.67290 0.00010 0.78360 0.21500
H 	H 	0.66500 0.97050 0.67980 -0.11500
H 	H 	0.71890 0.05370 0.66120 0.21200
H 	H 	0.74970 0.16010 0.73310 -0.07700
H 	H 	0.78760 0.34510 0.92780 0.08100
H 	H 	0.83750 0.32880 0.97220 0.08900
H 	H 	0.83490 0.33330 0.07200 0.13000
H 	H 	0.78600 0.33660 0.13860 -0.01500
H 	H 	0.69460 0.35340 0.11330 0.15100
H 	H 	0.64650 0.35540 0.01450 -0.00900
H 	H 	0.68220 0.32990 0.93860 0.12700
H 	H 	0.92630 0.23650 0.07410 0.16800
H 	H 	0.02550 0.33960 0.14570 -0.04900
H 	H 	0.03940 0.41110 0.24690 0.14500
H 	H 	0.96680 0.37080 0.28210 -0.02900
H 	H 	0.78390 0.20870 0.27220 0.09100
H 	H 	0.73500 0.21770 0.21790 0.09900
H 	H 	0.64050 0.12700 0.12230 0.14500
H 	H 	0.56160 0.01490 0.06160 -0.02600
H 	H 	0.59130 0.93740 0.07640 0.16500
H 	H 	0.67870 0.97820 0.18460 -0.02300
H 	H 	0.76260 0.08850 0.24030 0.14100
H 	H 	0.68460 0.96640 0.03720 0.36600
H 	H 	0.65380 0.86390 0.03580 -0.32900
H 	H 	0.69760 0.80500 0.99450 0.41800
H 	H 	0.75890 0.83110 0.94910 -0.24500
H 	H 	0.84850 0.98340 0.86830 0.05300
H 	H 	0.91420 0.99370 0.92400 0.03800
H 	H 	0.84760 0.07810 0.86180 0.10600
H 	H 	0.88830 0.19210 0.90330 0.00200
H 	H 	0.99160 0.26720 0.99820 0.13100
H 	H 	0.05820 0.22710 0.04520 0.00800
H 	H 	0.00400 0.11740 0.02340 0.10200
C 	C 	0.47600 0.60160 0.22730 0.02600
C 	C 	0.48650 0.63740 0.18940 -0.02700
C 	C 	0.40280 0.56420 0.20230 -0.03400
C 	C 	0.51930 0.65660 0.30330 0.01300
C 	C 	0.49820 0.55000 0.21650 0.04700
C 	C 	0.39550 0.47730 0.97700 0.40900
C 	C 	0.44580 0.55070 0.00870 -0.43500
C 	C 	0.47210 0.60430 0.07100 0.46100
C 	C 	0.50750 0.67000 0.09020 -0.62400
C 	C 	0.51920 0.68480 0.04570 0.57200
C 	C 	0.50150 0.63780 0.98530 -0.63400
C 	C 	0.45970 0.57660 0.97040 0.47100
C 	C 	0.32550 0.38820 0.98190 -0.02000
C 	C 	0.29090 0.37880 0.02410 0.09400
C 	C 	0.31870 0.36980 0.07760 -0.16400
C 	C 	0.29010 0.36850 0.11740 0.09600
C 	C 	0.22650 0.35940 0.09560 -0.17100
C 	C 	0.19390 0.35840 0.03710 0.09300
C 	C 	0.22830 0.37320 0.00500 -0.16400
C 	C 	0.35680 0.73280 0.27800 0.40400
C 	C 	0.30870 0.65070 0.24740 -0.35100
C 	C 	0.31930 0.59910 0.22120 0.39800
C 	C 	0.27340 0.53350 0.19110 -0.50900
C 	C 	0.21280 0.51600 0.18730 0.44800
C 	C 	0.20010 0.56370 0.21530 -0.50700
C 	C 	0.24650 0.62790 0.23850 0.36600
C 	C 	0.44770 0.81650 0.29030 -0.15000
C 	C 	0.49530 0.82400 0.26010 0.19500
C 	C 	0.55760 0.83200 0.29330 -0.26300
C 	C 	0.59920 0.83840 0.26660 0.18800
C 	C 	0.58380 0.84710 0.21180 -0.26000
C 	C 	0.52430 0.84650 0.18220 0.18500
C 	C 	0.48030 0.83320 0.20470 -0.25900
C 	C 	0.72870 0.77380 0.35170 0.36700
C 	C 	0.69390 0.78780 0.39440 -0.27200
C 	C 	0.63030 0.74960 0.38310 0.33200
C 	C 	0.61480 0.76650 0.43270 -0.36500
C 	C 	0.65770 0.82690 0.49230 0.25700
C 	C 	0.71840 0.86770 0.50150 -0.31000
C 	C 	0.73750 0.84560 0.45590 0.22500
C 	C 	0.72430 0.69390 0.25990 -0.17800
C 	C 	0.68370 0.61870 0.21250 0.23300
C 	C 	0.63240 0.59640 0.15080 -0.30700
C 	C 	0.59580 0.52970 0.10440 0.23300
C 	C 	0.60790 0.48350 0.11840 -0.30600
C 	C 	0.66800 0.50700 0.17400 0.22200
C 	C 	0.70260 0.57320 0.22200 -0.29700
C 	C 	0.43450 0.43650 0.31120 0.51100
C 	C 	0.45840 0.41520 0.25850 -0.64000
C 	C 	0.48280 0.44880 0.22930 0.64900
C 	C 	0.51600 0.43600 0.19630 -0.93400
C 	C 	0.51790 0.37840 0.18060 1.03200
C 	C 	0.49270 0.34460 0.20630 -1.10700
C 	C 	0.46480 0.35980 0.24300 0.85600
C 	C 	0.41670 0.50760 0.38030 -0.01900
C 	C 	0.44480 0.58810 0.41600 0.11000
C 	C 	0.40420 0.60950 0.38600 -0.19200
C 	C 	0.42640 0.67640 0.41270 0.13200
C 	C 	0.48160 0.72080 0.47450 -0.20000
C 	C 	0.51360 0.69820 0.51220 0.11700
C 	C 	0.49800 0.63240 0.48110 -0.18300
C 	C 	0.22730 0.47600 0.60160 0.02600
C 	C 	0.18940 0.48650 0.63740 -0.02700
C 	C 	0.20230 0.40280 0.56420 -0.03400
C 	C 	0.30330 0.51930 0.65660 0.01300
C 	C 	0.21650 0.49820 0.55000 0.04700
C 	C 	0.97700 0.39550 0.47730 0.40900
C 	C 	0.00870 0.44580 0.55070 -0.43500
C 	C 	0.07100 0.47210 0.60430 0.46100
C 	C 	0.09020 0.50750 0.67000 -0.62400
C 	C 	0.04570 0.51920 0.68480 0.57200
C 	C 	0.98530 0.50150 0.63780 -0.63400
C 	C 	0.97040 0.45970 0.57660 0.47100
C 	C 	0.98190 0.32550 0.38820 -0.02000
C 	C 	0.02410 0.29090 0.37880 0.09400
C 	C 	0.07760 0.31870 0.36980 -0.16400
C 	C 	0.11740 0.29010 0.36850 0.09600
C 	C 	0.09560 0.22650 0.35940 -0.17100
C 	C 	0.03710 0.19390 0.35840 0.09300
C 	C 	0.00500 0.22830 0.37320 -0.16400
C 	C 	0.27800 0.35680 0.73280 0.40400
C 	C 	0.24740 0.30870 0.65070 -0.35100
C 	C 	0.22120 0.31930 0.59910 0.39800
C 	C 	0.19110 0.27340 0.53350 -0.50900
C 	C 	0.18730 0.21280 0.51600 0.44800
C 	C 	0.21530 0.20010 0.56370 -0.50700
C 	C 	0.23850 0.24650 0.62790 0.36600
C 	C 	0.29030 0.44770 0.81650 -0.15000
C 	C 	0.26010 0.49530 0.82400 0.19500
C 	C 	0.29330 0.55760 0.83200 -0.26300
C 	C 	0.26660 0.59920 0.83840 0.18800
C 	C 	0.21180 0.58380 0.84710 -0.26000
C 	C 	0.18220 0.52430 0.84650 0.18500
C 	C 	0.20470 0.48030 0.83320 -0.25900
C 	C 	0.35170 0.72870 0.77380 0.36700
C 	C 	0.39440 0.69390 0.78780 -0.27200
C 	C 	0.38310 0.63030 0.74960 0.33200
C 	C 	0.43270 0.61480 0.76650 -0.36500
C 	C 	0.49230 0.65770 0.82690 0.25700
C 	C 	0.50150 0.71840 0.86770 -0.31000
C 	C 	0.45590 0.73750 0.84560 0.22500
C 	C 	0.25990 0.72430 0.69390 -0.17800
C 	C 	0.21250 0.68370 0.61870 0.23300
C 	C 	0.15080 0.63240 0.59640 -0.30700
C 	C 	0.10440 0.59580 0.52970 0.23300
C 	C 	0.11840 0.60790 0.48350 -0.30600
C 	C 	0.17400 0.66800 0.50700 0.22200
C 	C 	0.22200 0.70260 0.57320 -0.29700
C 	C 	0.31120 0.43450 0.43650 0.51100
C 	C 	0.25850 0.45840 0.41520 -0.64000
C 	C 	0.22930 0.48280 0.44880 0.64900
C 	C 	0.19630 0.51600 0.43600 -0.93400
C 	C 	0.18060 0.51790 0.37840 1.03200
C 	C 	0.20630 0.49270 0.34460 -1.10700
C 	C 	0.24300 0.46480 0.35980 0.85600
C 	C 	0.38030 0.41670 0.50760 -0.01900
C 	C 	0.41600 0.44480 0.58810 0.11000
C 	C 	0.38600 0.40420 0.60950 -0.19200
C 	C 	0.41270 0.42640 0.67640 0.13200
C 	C 	0.47450 0.48160 0.72080 -0.20000
C 	C 	0.51220 0.51360 0.69820 0.11700
C 	C 	0.48110 0.49800 0.63240 -0.18300
C 	C 	0.60160 0.22730 0.47600 0.02600
C 	C 	0.63740 0.18940 0.48650 -0.02700
C 	C 	0.56420 0.20230 0.40280 -0.03400
C 	C 	0.65660 0.30330 0.51930 0.01300
C 	C 	0.55000 0.21650 0.49820 0.04700
C 	C 	0.47730 0.97700 0.39550 0.40900
C 	C 	0.55070 0.00870 0.44580 -0.43500
C 	C 	0.60430 0.07100 0.47210 0.46100
C 	C 	0.67000 0.09020 0.50750 -0.62400
C 	C 	0.68480 0.04570 0.51920 0.57200
C 	C 	0.63780 0.98530 0.50150 -0.63400
C 	C 	0.57660 0.97040 0.45970 0.47100
C 	C 	0.38820 0.98190 0.32550 -0.02000
C 	C 	0.37880 0.02410 0.29090 0.09400
C 	C 	0.36980 0.07760 0.31870 -0.16400
C 	C 	0.36850 0.11740 0.29010 0.09600
C 	C 	0.35940 0.09560 0.22650 -0.17100
C 	C 	0.35840 0.03710 0.19390 0.09300
C 	C 	0.37320 0.00500 0.22830 -0.16400
C 	C 	0.73280 0.27800 0.35680 0.40400
C 	C 	0.65070 0.24740 0.30870 -0.35100
C 	C 	0.59910 0.22120 0.31930 0.39800
C 	C 	0.53350 0.19110 0.27340 -0.50900
C 	C 	0.51600 0.18730 0.21280 0.44800
C 	C 	0.56370 0.21530 0.20010 -0.50700
C 	C 	0.62790 0.23850 0.24650 0.36600
C 	C 	0.81650 0.29030 0.44770 -0.15000
C 	C 	0.82400 0.26010 0.49530 0.19500
C 	C 	0.83200 0.29330 0.55760 -0.26300
C 	C 	0.83840 0.26660 0.59920 0.18800
C 	C 	0.84710 0.21180 0.58380 -0.26000
C 	C 	0.84650 0.18220 0.52430 0.18500
C 	C 	0.83320 0.20470 0.48030 -0.25900
C 	C 	0.77380 0.35170 0.72870 0.36700
C 	C 	0.78780 0.39440 0.69390 -0.27200
C 	C 	0.74960 0.38310 0.63030 0.33200
C 	C 	0.76650 0.43270 0.61480 -0.36500
C 	C 	0.82690 0.49230 0.65770 0.25700
C 	C 	0.86770 0.50150 0.71840 -0.31000
C 	C 	0.84560 0.45590 0.73750 0.22500
C 	C 	0.69390 0.25990 0.72430 -0.17800
C 	C 	0.61870 0.21250 0.68370 0.23300
C 	C 	0.59640 0.15080 0.63240 -0.30700
C 	C 	0.52970 0.10440 0.59580 0.23300
C 	C 	0.48350 0.11840 0.60790 -0.30600
C 	C 	0.50700 0.17400 0.66800 0.22200
C 	C 	0.57320 0.22200 0.70260 -0.29700
C 	C 	0.43650 0.31120 0.43450 0.51100
C 	C 	0.41520 0.25850 0.45840 -0.64000
C 	C 	0.44880 0.22930 0.48280 0.64900
C 	C 	0.43600 0.19630 0.51600 -0.93400
C 	C 	0.37840 0.18060 0.51790 1.03200
C 	C 	0.34460 0.20630 0.49270 -1.10700
C 	C 	0.35980 0.24300 0.46480 0.85600
C 	C 	0.50760 0.38030 0.41670 -0.01900
C 	C 	0.58810 0.41600 0.44480 0.11000
C 	C 	0.60950 0.38600 0.40420 -0.19200
C 	C 	0.67640 0.41270 0.42640 0.13200
C 	C 	0.72080 0.47450 0.48160 -0.20000
C 	C 	0.69820 0.51220 0.51360 0.11700
C 	C 	0.63240 0.48110 0.49800 -0.18300
C 	C 	0.10160 0.97600 0.72730 0.02600
C 	C 	0.13740 0.98650 0.68940 -0.02700
C 	C 	0.06420 0.90280 0.70230 -0.03400
C 	C 	0.15660 0.01930 0.80330 0.01300
C 	C 	0.05000 0.99820 0.71650 0.04700
C 	C 	0.97730 0.89550 0.47700 0.41000
C 	C 	0.05070 0.94580 0.50870 -0.43600
C 	C 	0.10430 0.97210 0.57100 0.46200
C 	C 	0.17000 0.00750 0.59020 -0.62600
C 	C 	0.18480 0.01920 0.54570 0.57400
C 	C 	0.13780 0.00150 0.48530 -0.63600
C 	C 	0.07660 0.95970 0.47040 0.47200
C 	C 	0.88820 0.82550 0.48190 -0.02000
C 	C 	0.87880 0.79090 0.52410 0.09400
C 	C 	0.86980 0.81870 0.57760 -0.16400
C 	C 	0.86850 0.79010 0.61740 0.09600
C 	C 	0.85940 0.72650 0.59560 -0.17000
C 	C 	0.85840 0.69390 0.53710 0.09300
C 	C 	0.87320 0.72830 0.50500 -0.16400
C 	C 	0.23280 0.85680 0.77800 0.40400
C 	C 	0.15070 0.80870 0.74740 -0.35000
C 	C 	0.09910 0.81930 0.72120 0.39700
C 	C 	0.03350 0.77340 0.69110 -0.50600
C 	C 	0.01600 0.71280 0.68730 0.44400
C 	C 	0.06370 0.70010 0.71530 -0.50400
C 	C 	0.12790 0.74650 0.73850 0.36400
C 	C 	0.31650 0.94770 0.79030 -0.15000
C 	C 	0.32400 0.99530 0.76010 0.19500
C 	C 	0.33200 0.05760 0.79330 -0.26300
C 	C 	0.33840 0.09920 0.76660 0.18800
C 	C 	0.34710 0.08380 0.71180 -0.26000
C 	C 	0.34650 0.02430 0.68220 0.18500
C 	C 	0.33320 0.98030 0.70470 -0.25900
C 	C 	0.27380 0.22870 0.85170 0.36700
C 	C 	0.28780 0.19390 0.89440 -0.27200
C 	C 	0.24960 0.13030 0.88310 0.33200
C 	C 	0.26650 0.11480 0.93270 -0.36400
C 	C 	0.32690 0.15770 0.99230 0.25600
C 	C 	0.36770 0.21840 0.00150 -0.30900
C 	C 	0.34560 0.23750 0.95590 0.22400
C 	C 	0.19390 0.22430 0.75990 -0.17800
C 	C 	0.11870 0.18370 0.71250 0.23200
C 	C 	0.09640 0.13240 0.65080 -0.30500
C 	C 	0.02970 0.09580 0.60440 0.23100
C 	C 	0.98350 0.10790 0.61840 -0.30400
C 	C 	0.00700 0.16800 0.67400 0.22000
C 	C 	0.07320 0.20260 0.72200 -0.29500
C 	C 	0.93650 0.93450 0.81120 0.51000
C 	C 	0.91520 0.95840 0.75850 -0.63900
C 	C 	0.94880 0.98280 0.72930 0.65000
C 	C 	0.93600 0.01600 0.69630 -0.93300
C 	C 	0.87840 0.01790 0.68060 1.03100
C 	C 	0.84460 0.99270 0.70630 -1.10500
C 	C 	0.85980 0.96480 0.74300 0.85500
C 	C 	0.00760 0.91670 0.88030 -0.02300
C 	C 	0.08810 0.94480 0.91600 0.11300
C 	C 	0.10950 0.90420 0.88600 -0.19400
C 	C 	0.17640 0.92640 0.91270 0.13500
C 	C 	0.22080 0.98160 0.97450 -0.20200
C 	C 	0.19820 0.01360 0.01220 0.11900
C 	C 	0.13240 0.99800 0.98110 -0.18600
C 	C 	0.97600 0.72730 0.10160 0.02600
C 	C 	0.98650 0.68940 0.13740 -0.02700
C 	C 	0.90280 0.70230 0.06420 -0.03400
C 	C 	0.01930 0.80330 0.15660 0.01300
C 	C 	0.99820 0.71650 0.05000 0.04700
C 	C 	0.89550 0.47700 0.97730 0.41000
C 	C 	0.94580 0.50870 0.05070 -0.43600
C 	C 	0.97210 0.57100 0.10430 0.46200
C 	C 	0.00750 0.59020 0.17000 -0.62600
C 	C 	0.01920 0.54570 0.18480 0.57400
C 	C 	0.00150 0.48530 0.13780 -0.63600
C 	C 	0.95970 0.47040 0.07660 0.47200
C 	C 	0.82550 0.48190 0.88820 -0.02000
C 	C 	0.79090 0.52410 0.87880 0.09400
C 	C 	0.81870 0.57760 0.86980 -0.16400
C 	C 	0.79010 0.61740 0.86850 0.09600
C 	C 	0.72650 0.59560 0.85940 -0.17000
C 	C 	0.69390 0.53710 0.85840 0.09300
C 	C 	0.72830 0.50500 0.87320 -0.16400
C 	C 	0.85680 0.77800 0.23280 0.40400
C 	C 	0.80870 0.74740 0.15070 -0.35000
C 	C 	0.81930 0.72120 0.09910 0.39700
C 	C 	0.77340 0.69110 0.03350 -0.50600
C 	C 	0.71280 0.68730 0.01600 0.44400
C 	C 	0.70010 0.71530 0.06370 -0.50400
C 	C 	0.74650 0.73850 0.12790 0.36400
C 	C 	0.94770 0.79030 0.31650 -0.15000
C 	C 	0.99530 0.76010 0.32400 0.19500
C 	C 	0.05760 0.79330 0.33200 -0.26300
C 	C 	0.09920 0.76660 0.33840 0.18800
C 	C 	0.08380 0.71180 0.34710 -0.26000
C 	C 	0.02430 0.68220 0.34650 0.18500
C 	C 	0.98030 0.70470 0.33320 -0.25900
C 	C 	0.22870 0.85170 0.27380 0.36700
C 	C 	0.19390 0.89440 0.28780 -0.27200
C 	C 	0.13030 0.88310 0.24960 0.33200
C 	C 	0.11480 0.93270 0.26650 -0.36400
C 	C 	0.15770 0.99230 0.32690 0.25600
C 	C 	0.21840 0.00150 0.36770 -0.30900
C 	C 	0.23750 0.95590 0.34560 0.22400
C 	C 	0.22430 0.75990 0.19390 -0.17800
C 	C 	0.18370 0.71250 0.11870 0.23200
C 	C 	0.13240 0.65080 0.09640 -0.30500
C 	C 	0.09580 0.60440 0.02970 0.23100
C 	C 	0.10790 0.61840 0.98350 -0.30400
C 	C 	0.16800 0.67400 0.00700 0.22000
C 	C 	0.20260 0.72200 0.07320 -0.29500
C 	C 	0.93450 0.81120 0.93650 0.51000
C 	C 	0.95840 0.75850 0.91520 -0.63900
C 	C 	0.98280 0.72930 0.94880 0.65000
C 	C 	0.01600 0.69630 0.93600 -0.93300
C 	C 	0.01790 0.68060 0.87840 1.03100
C 	C 	0.99270 0.70630 0.84460 -1.10500
C 	C 	0.96480 0.74300 0.85980 0.85500
C 	C 	0.91670 0.88030 0.00760 -0.02300
C 	C 	0.94480 0.91600 0.08810 0.11300
C 	C 	0.90420 0.88600 0.10950 -0.19400
C 	C 	0.92640 0.91270 0.17640 0.13500
C 	C 	0.98160 0.97450 0.22080 -0.20200
C 	C 	0.01360 0.01220 0.19820 0.11900
C 	C 	0.99800 0.98110 0.13240 -0.18600
C 	C 	0.72730 0.10160 0.97600 0.02600
C 	C 	0.68940 0.13740 0.98650 -0.02700
C 	C 	0.70230 0.06420 0.90280 -0.03400
C 	C 	0.80330 0.15660 0.01930 0.01300
C 	C 	0.71650 0.05000 0.99820 0.04700
C 	C 	0.47700 0.97730 0.89550 0.41000
C 	C 	0.50870 0.05070 0.94580 -0.43600
C 	C 	0.57100 0.10430 0.97210 0.46200
C 	C 	0.59020 0.17000 0.00750 -0.62600
C 	C 	0.54570 0.18480 0.01920 0.57400
C 	C 	0.48530 0.13780 0.00150 -0.63600
C 	C 	0.47040 0.07660 0.95970 0.47200
C 	C 	0.48190 0.88820 0.82550 -0.02000
C 	C 	0.52410 0.87880 0.79090 0.09400
C 	C 	0.57760 0.86980 0.81870 -0.16400
C 	C 	0.61740 0.86850 0.79010 0.09600
C 	C 	0.59560 0.85940 0.72650 -0.17000
C 	C 	0.53710 0.85840 0.69390 0.09300
C 	C 	0.50500 0.87320 0.72830 -0.16400
C 	C 	0.77800 0.23280 0.85680 0.40400
C 	C 	0.74740 0.15070 0.80870 -0.35000
C 	C 	0.72120 0.09910 0.81930 0.39700
C 	C 	0.69110 0.03350 0.77340 -0.50600
C 	C 	0.68730 0.01600 0.71280 0.44400
C 	C 	0.71530 0.06370 0.70010 -0.50400
C 	C 	0.73850 0.12790 0.74650 0.36400
C 	C 	0.79030 0.31650 0.94770 -0.15000
C 	C 	0.76010 0.32400 0.99530 0.19500
C 	C 	0.79330 0.33200 0.05760 -0.26300
C 	C 	0.76660 0.33840 0.09920 0.18800
C 	C 	0.71180 0.34710 0.08380 -0.26000
C 	C 	0.68220 0.34650 0.02430 0.18500
C 	C 	0.70470 0.33320 0.98030 -0.25900
C 	C 	0.85170 0.27380 0.22870 0.36700
C 	C 	0.89440 0.28780 0.19390 -0.27200
C 	C 	0.88310 0.24960 0.13030 0.33200
C 	C 	0.93270 0.26650 0.11480 -0.36400
C 	C 	0.99230 0.32690 0.15770 0.25600
C 	C 	0.00150 0.36770 0.21840 -0.30900
C 	C 	0.95590 0.34560 0.23750 0.22400
C 	C 	0.75990 0.19390 0.22430 -0.17800
C 	C 	0.71250 0.11870 0.18370 0.23200
C 	C 	0.65080 0.09640 0.13240 -0.30500
C 	C 	0.60440 0.02970 0.09580 0.23100
C 	C 	0.61840 0.98350 0.10790 -0.30400
C 	C 	0.67400 0.00700 0.16800 0.22000
C 	C 	0.72200 0.07320 0.20260 -0.29500
C 	C 	0.81120 0.93650 0.93450 0.51000
C 	C 	0.75850 0.91520 0.95840 -0.63900
C 	C 	0.72930 0.94880 0.98280 0.65000
C 	C 	0.69630 0.93600 0.01600 -0.93300
C 	C 	0.68060 0.87840 0.01790 1.03100
C 	C 	0.70630 0.84460 0.99270 -1.10500
C 	C 	0.74300 0.85980 0.96480 0.85500
C 	C 	0.88030 0.00760 0.91670 -0.02300
C 	C 	0.91600 0.08810 0.94480 0.11300
C 	C 	0.88600 0.10950 0.90420 -0.19400
C 	C 	0.91270 0.17640 0.92640 0.13500
C 	C 	0.97450 0.22080 0.98160 -0.20200
C 	C 	0.01220 0.19820 0.01360 0.11900
C 	C 	0.98110 0.13240 0.99800 -0.18600
N 	N 	0.35500 0.44980 0.99910 -0.26200
N 	N 	0.39540 0.74460 0.24860 -0.24400
N 	N 	0.69900 0.70740 0.30800 -0.23400
N 	N 	0.44910 0.49300 0.34750 -0.33200
N 	N 	0.50860 0.46630 0.87310 0.05800
N 	N 	0.39270 0.26240 0.73630 0.06000
N 	N 	0.48270 0.32780 0.94390 0.05900
N 	N 	0.19490 0.31050 0.22140 0.06100
N 	N 	0.99910 0.35500 0.44980 -0.26200
N 	N 	0.24860 0.39540 0.74460 -0.24400
N 	N 	0.30800 0.69900 0.70740 -0.23400
N 	N 	0.34750 0.44910 0.49300 -0.33200
N 	N 	0.87310 0.50860 0.46630 0.05800
N 	N 	0.73630 0.39270 0.26240 0.06000
N 	N 	0.94390 0.48270 0.32780 0.05900
N 	N 	0.22140 0.19490 0.31050 0.06100
N 	N 	0.44980 0.99910 0.35500 -0.26200
N 	N 	0.74460 0.24860 0.39540 -0.24400
N 	N 	0.70740 0.30800 0.69900 -0.23400
N 	N 	0.49300 0.34750 0.44910 -0.33200
N 	N 	0.46630 0.87310 0.50860 0.05800
N 	N 	0.26240 0.73630 0.39270 0.06000
N 	N 	0.32780 0.94390 0.48270 0.05900
N 	N 	0.31050 0.22140 0.19490 0.06100
N 	N 	0.94980 0.85500 0.49910 -0.26200
N 	N 	0.24460 0.89540 0.74860 -0.24400
N 	N 	0.20740 0.19900 0.80800 -0.23400
N 	N 	0.99300 0.94910 0.84750 -0.33100
N 	N 	0.96630 0.00860 0.37310 0.05800
N 	N 	0.76240 0.89270 0.23630 0.06000
N 	N 	0.82780 0.98270 0.44390 0.05900
N 	N 	0.81050 0.69490 0.72140 0.06100
N 	N 	0.85500 0.49910 0.94980 -0.26200
N 	N 	0.89540 0.74860 0.24460 -0.24400
N 	N 	0.19900 0.80800 0.20740 -0.23400
N 	N 	0.94910 0.84750 0.99300 -0.33100
N 	N 	0.00860 0.37310 0.96630 0.05800
N 	N 	0.89270 0.23630 0.76240 0.06000
N 	N 	0.98270 0.44390 0.82780 0.05900
N 	N 	0.69490 0.72140 0.81050 0.06100
N 	N 	0.49910 0.94980 0.85500 -0.26200
N 	N 	0.74860 0.24460 0.89540 -0.24400
N 	N 	0.80800 0.20740 0.19900 -0.23400
N 	N 	0.84750 0.99300 0.94910 -0.33100
N 	N 	0.37310 0.96630 0.00860 0.05800
N 	N 	0.23630 0.76240 0.89270 0.06000
N 	N 	0.44390 0.82780 0.98270 0.05900
N 	N 	0.72140 0.81050 0.69490 0.06100
O 	O 	0.45530 0.58360 0.11390 -0.27300
O 	O 	0.38360 0.61990 0.22580 -0.25800
O 	O 	0.58920 0.69080 0.32280 -0.26800
O 	O 	0.48040 0.51170 0.24680 -0.31400
O 	O 	0.39520 0.43250 0.93000 -0.45000
O 	O 	0.34820 0.77270 0.31420 -0.48700
O 	O 	0.77780 0.81880 0.35630 -0.46300
O 	O 	0.39030 0.38510 0.30720 -0.47300
O 	O 	0.51970 0.43960 0.90940 -0.25000
O 	O 	0.44740 0.45020 0.83730 -0.25800
O 	O 	0.55440 0.51990 0.88620 -0.12400
O 	O 	0.35250 0.24090 0.75540 -0.26200
O 	O 	0.43770 0.32480 0.77020 -0.25900
O 	O 	0.39320 0.22230 0.68740 -0.12200
O 	O 	0.46190 0.29570 0.88130 -0.25900
O 	O 	0.46060 0.36640 0.96430 -0.26000
O 	O 	0.52250 0.31980 0.98470 -0.12100
O 	O 	0.25520 0.35270 0.24250 -0.25800
O 	O 	0.18500 0.26770 0.24110 -0.25600
O 	O 	0.14850 0.32150 0.19440 -0.12200
O 	O 	0.11390 0.45530 0.58360 -0.27300
O 	O 	0.22580 0.38360 0.61990 -0.25800
O 	O 	0.32280 0.58920 0.69080 -0.26800
O 	O 	0.24680 0.48040 0.51170 -0.31400
O 	O 	0.93000 0.39520 0.43250 -0.45000
O 	O 	0.31420 0.34820 0.77270 -0.48700
O 	O 	0.35630 0.77780 0.81880 -0.46300
O 	O 	0.30720 0.39030 0.38510 -0.47300
O 	O 	0.90940 0.51970 0.43960 -0.25000
O 	O 	0.83730 0.44740 0.45020 -0.25800
O 	O 	0.88620 0.55440 0.51990 -0.12400
O 	O 	0.75540 0.35250 0.24090 -0.26200
O 	O 	0.77020 0.43770 0.32480 -0.25900
O 	O 	0.68740 0.39320 0.22230 -0.12200
O 	O 	0.88130 0.46190 0.29570 -0.25900
O 	O 	0.96430 0.46060 0.36640 -0.26000
O 	O 	0.98470 0.52250 0.31980 -0.12100
O 	O 	0.24250 0.25520 0.35270 -0.25800
O 	O 	0.24110 0.18500 0.26770 -0.25600
O 	O 	0.19440 0.14850 0.32150 -0.12200
O 	O 	0.58360 0.11390 0.45530 -0.27300
O 	O 	0.61990 0.22580 0.38360 -0.25800
O 	O 	0.69080 0.32280 0.58920 -0.26800
O 	O 	0.51170 0.24680 0.48040 -0.31400
O 	O 	0.43250 0.93000 0.39520 -0.45000
O 	O 	0.77270 0.31420 0.34820 -0.48700
O 	O 	0.81880 0.35630 0.77780 -0.46300
O 	O 	0.38510 0.30720 0.39030 -0.47300
O 	O 	0.43960 0.90940 0.51970 -0.25000
O 	O 	0.45020 0.83730 0.44740 -0.25800
O 	O 	0.51990 0.88620 0.55440 -0.12400
O 	O 	0.24090 0.75540 0.35250 -0.26200
O 	O 	0.32480 0.77020 0.43770 -0.25900
O 	O 	0.22230 0.68740 0.39320 -0.12200
O 	O 	0.29570 0.88130 0.46190 -0.25900
O 	O 	0.36640 0.96430 0.46060 -0.26000
O 	O 	0.31980 0.98470 0.52250 -0.12100
O 	O 	0.35270 0.24250 0.25520 -0.25800
O 	O 	0.26770 0.24110 0.18500 -0.25600
O 	O 	0.32150 0.19440 0.14850 -0.12200
O 	O 	0.08360 0.95530 0.61390 -0.27300
O 	O 	0.11990 0.88360 0.72580 -0.25700
O 	O 	0.19080 0.08920 0.82280 -0.26800
O 	O 	0.01170 0.98040 0.74680 -0.31400
O 	O 	0.93250 0.89520 0.43000 -0.45000
O 	O 	0.27270 0.84820 0.81420 -0.48700
O 	O 	0.31880 0.27780 0.85630 -0.46300
O 	O 	0.88510 0.89030 0.80720 -0.47300
O 	O 	0.93960 0.01970 0.40940 -0.25000
O 	O 	0.95020 0.94740 0.33730 -0.25800
O 	O 	0.01990 0.05440 0.38620 -0.12400
O 	O 	0.74090 0.85250 0.25540 -0.26200
O 	O 	0.82480 0.93770 0.27020 -0.25900
O 	O 	0.72230 0.89320 0.18740 -0.12200
O 	O 	0.79570 0.96190 0.38130 -0.25900
O 	O 	0.86640 0.96060 0.46430 -0.25900
O 	O 	0.81980 0.02250 0.48470 -0.12100
O 	O 	0.85270 0.75520 0.74250 -0.25800
O 	O 	0.76770 0.68500 0.74110 -0.25600
O 	O 	0.82150 0.64850 0.69440 -0.12200
O 	O 	0.95530 0.61390 0.08360 -0.27300
O 	O 	0.88360 0.72580 0.11990 -0.25700
O 	O 	0.08920 0.82280 0.19080 -0.26800
O 	O 	0.98040 0.74680 0.01170 -0.31400
O 	O 	0.89520 0.43000 0.93250 -0.45000
O 	O 	0.84820 0.81420 0.27270 -0.48700
O 	O 	0.27780 0.85630 0.31880 -0.46300
O 	O 	0.89030 0.80720 0.88510 -0.47300
O 	O 	0.01970 0.40940 0.93960 -0.25000
O 	O 	0.94740 0.33730 0.95020 -0.25800
O 	O 	0.05440 0.38620 0.01990 -0.12400
O 	O 	0.85250 0.25540 0.74090 -0.26200
O 	O 	0.93770 0.27020 0.82480 -0.25900
O 	O 	0.89320 0.18740 0.72230 -0.12200
O 	O 	0.96190 0.38130 0.79570 -0.25900
O 	O 	0.96060 0.46430 0.86640 -0.25900
O 	O 	0.02250 0.48470 0.81980 -0.12100
O 	O 	0.75520 0.74250 0.85270 -0.25800
O 	O 	0.68500 0.74110 0.76770 -0.25600
O 	O 	0.64850 0.69440 0.82150 -0.12200
O 	O 	0.61390 0.08360 0.95530 -0.27300
O 	O 	0.72580 0.11990 0.88360 -0.25700
O 	O 	0.82280 0.19080 0.08920 -0.26800
O 	O 	0.74680 0.01170 0.98040 -0.31400
O 	O 	0.43000 0.93250 0.89520 -0.45000
O 	O 	0.81420 0.27270 0.84820 -0.48700
O 	O 	0.85630 0.31880 0.27780 -0.46300
O 	O 	0.80720 0.88510 0.89030 -0.47300
O 	O 	0.40940 0.93960 0.01970 -0.25000
O 	O 	0.33730 0.95020 0.94740 -0.25800
O 	O 	0.38620 0.01990 0.05440 -0.12400
O 	O 	0.25540 0.74090 0.85250 -0.26200
O 	O 	0.27020 0.82480 0.93770 -0.25900
O 	O 	0.18740 0.72230 0.89320 -0.12200
O 	O 	0.38130 0.79570 0.96190 -0.25900
O 	O 	0.46430 0.86640 0.96060 -0.25900
O 	O 	0.48470 0.81980 0.02250 -0.12100
O 	O 	0.74250 0.85270 0.75520 -0.25800
O 	O 	0.74110 0.76770 0.68500 -0.25600
O 	O 	0.69440 0.82150 0.64850 -0.12200
