data_crystal

_cell_length_a 24.25010
_cell_length_b 24.25010
_cell_length_c 24.25010
_cell_angle_alpha 109.45800
_cell_angle_beta  109.45800
_cell_angle_gamma 109.45800

_symmetry_space_group_name_	'P 1'
_symmetry_space_group_name_H-M	'P 1'

loop_
_symmetry_equiv_pos_as_xyz
  x,y,z

loop_
_atom_site_label
_atom_site_type_symbol
_atom_site_fract_x
_atom_site_fract_y
_atom_site_fract_z
_atom_site_charge
Pr	Pr	0.40159 0.35083 0.85048 2.11100
Pr	Pr	0.85048 0.40159 0.35083 2.11100
Pr	Pr	0.35083 0.85048 0.40159 2.11100
Pr	Pr	0.85083 0.90159 0.35048 2.11100
Pr	Pr	0.90159 0.35048 0.85083 2.11100
Pr	Pr	0.35048 0.85083 0.90159 2.11100
Pr	Pr	0.29937 0.29937 0.29937 2.14400
Pr	Pr	0.79937 0.79937 0.79937 2.14400
H 	H 	0.33210 0.47140 0.01270 0.12900
H 	H 	0.38260 0.70100 0.20600 0.13800
H 	H 	0.67550 0.67390 0.31250 0.14100
H 	H 	0.50730 0.52640 0.37800 0.13300
H 	H 	0.53350 0.66640 0.20790 0.04900
H 	H 	0.46310 0.66120 0.19230 0.04800
H 	H 	0.39050 0.53260 0.21980 0.04500
H 	H 	0.37410 0.53800 0.15400 0.04300
H 	H 	0.52130 0.62730 0.33150 0.04700
H 	H 	0.49930 0.67840 0.31890 0.04000
H 	H 	0.54930 0.57180 0.24170 0.03900
H 	H 	0.48280 0.52010 0.17210 0.02900
H 	H 	0.52060 0.69570 0.13390 0.12600
H 	H 	0.55780 0.72800 0.06710 0.00000
H 	H 	0.51570 0.64910 0.95740 0.10200
H 	H 	0.43990 0.53600 0.91530 0.00600
H 	H 	0.32650 0.35560 0.94990 0.09000
H 	H 	0.39550 0.40000 0.01920 0.09300
H 	H 	0.36310 0.37100 0.10850 0.10000
H 	H 	0.28500 0.35530 0.14500 0.02600
H 	H 	0.18640 0.35280 0.08650 0.10100
H 	H 	0.16860 0.37150 0.99680 0.02900
H 	H 	0.24630 0.38550 0.95940 0.09400
H 	H 	0.28290 0.49000 0.16570 0.12400
H 	H 	0.17440 0.46140 0.15190 0.00400
H 	H 	0.15060 0.54310 0.19450 0.09900
H 	H 	0.23170 0.65780 0.24710 0.01700
H 	H 	0.41840 0.82660 0.28430 0.09900
H 	H 	0.46270 0.80970 0.33220 0.09700
H 	H 	0.56470 0.82880 0.34220 0.13100
H 	H 	0.64390 0.86070 0.31090 -0.01100
H 	H 	0.61590 0.86600 0.21270 0.13900
H 	H 	0.50850 0.84520 0.14860 -0.00200
H 	H 	0.42990 0.81430 0.18160 0.12600
H 	H 	0.55900 0.74210 0.41330 0.13800
H 	H 	0.63560 0.83480 0.52120 -0.01200
H 	H 	0.74710 0.89490 0.55210 0.11000
H 	H 	0.77790 0.87040 0.46930 0.00400
H 	H 	0.76070 0.72600 0.27090 0.09400
H 	H 	0.69370 0.72590 0.23240 0.09600
H 	H 	0.59120 0.59360 0.12610 0.11600
H 	H 	0.56410 0.48370 0.07800 0.01700
H 	H 	0.64100 0.45310 0.12950 0.11000
H 	H 	0.73800 0.53440 0.23080 0.01500
H 	H 	0.76220 0.64520 0.27880 0.10600
H 	H 	0.51180 0.45580 0.15880 0.15000
H 	H 	0.53500 0.36940 0.14940 -0.01900
H 	H 	0.51420 0.31560 0.20990 0.11500
H 	H 	0.46910 0.34970 0.27730 -0.00400
H 	H 	0.37620 0.48840 0.33110 0.10000
H 	H 	0.40890 0.49010 0.39960 0.09700
H 	H 	0.36550 0.57740 0.33560 0.11800
H 	H 	0.39850 0.69180 0.39460 -0.00200
H 	H 	0.48840 0.75990 0.50210 0.12900
H 	H 	0.54910 0.71760 0.55240 0.00700
H 	H 	0.51670 0.60470 0.49340 0.12100
H 	H 	0.01270 0.33210 0.47140 0.13000
H 	H 	0.20600 0.38260 0.70100 0.13900
H 	H 	0.31250 0.67550 0.67390 0.14200
H 	H 	0.37800 0.50730 0.52640 0.13400
H 	H 	0.20790 0.53350 0.66640 0.05000
H 	H 	0.19230 0.46310 0.66120 0.04900
H 	H 	0.21980 0.39050 0.53260 0.04600
H 	H 	0.15400 0.37410 0.53800 0.04400
H 	H 	0.33150 0.52130 0.62730 0.04800
H 	H 	0.31890 0.49930 0.67840 0.04100
H 	H 	0.24170 0.54930 0.57180 0.03900
H 	H 	0.17210 0.48280 0.52010 0.02900
H 	H 	0.13390 0.52060 0.69570 0.12600
H 	H 	0.06710 0.55780 0.72800 0.00000
H 	H 	0.95740 0.51570 0.64910 0.10200
H 	H 	0.91530 0.43990 0.53600 0.00600
H 	H 	0.94990 0.32650 0.35560 0.09000
H 	H 	0.01920 0.39550 0.40000 0.09300
H 	H 	0.10850 0.36310 0.37100 0.10000
H 	H 	0.14500 0.28500 0.35530 0.02600
H 	H 	0.08650 0.18640 0.35280 0.10100
H 	H 	0.99680 0.16860 0.37150 0.02900
H 	H 	0.95940 0.24630 0.38550 0.09400
H 	H 	0.16570 0.28290 0.49000 0.12400
H 	H 	0.15190 0.17440 0.46140 0.00400
H 	H 	0.19450 0.15060 0.54310 0.09900
H 	H 	0.24710 0.23170 0.65780 0.01700
H 	H 	0.28430 0.41840 0.82660 0.09900
H 	H 	0.33220 0.46270 0.80970 0.09700
H 	H 	0.34220 0.56470 0.82880 0.13100
H 	H 	0.31090 0.64390 0.86070 -0.01100
H 	H 	0.21270 0.61590 0.86600 0.13900
H 	H 	0.14860 0.50850 0.84520 -0.00200
H 	H 	0.18160 0.42990 0.81430 0.12600
H 	H 	0.41330 0.55900 0.74210 0.13800
H 	H 	0.52120 0.63560 0.83480 -0.01200
H 	H 	0.55210 0.74710 0.89490 0.11000
H 	H 	0.46930 0.77790 0.87040 0.00400
H 	H 	0.27090 0.76070 0.72600 0.09400
H 	H 	0.23240 0.69370 0.72590 0.09600
H 	H 	0.12610 0.59120 0.59360 0.11600
H 	H 	0.07800 0.56410 0.48370 0.01700
H 	H 	0.12950 0.64100 0.45310 0.11000
H 	H 	0.23080 0.73800 0.53440 0.01500
H 	H 	0.27880 0.76220 0.64520 0.10600
H 	H 	0.15880 0.51180 0.45580 0.15000
H 	H 	0.14940 0.53500 0.36940 -0.01900
H 	H 	0.20990 0.51420 0.31560 0.11500
H 	H 	0.27730 0.46910 0.34970 -0.00400
H 	H 	0.33110 0.37620 0.48840 0.10000
H 	H 	0.39960 0.40890 0.49010 0.09700
H 	H 	0.33560 0.36550 0.57740 0.11800
H 	H 	0.39460 0.39850 0.69180 -0.00200
H 	H 	0.50210 0.48840 0.75990 0.12900
H 	H 	0.55240 0.54910 0.71760 0.00700
H 	H 	0.49340 0.51670 0.60470 0.12100
H 	H 	0.47140 0.01270 0.33210 0.13000
H 	H 	0.70100 0.20600 0.38260 0.13900
H 	H 	0.67390 0.31250 0.67550 0.14200
H 	H 	0.52640 0.37800 0.50730 0.13400
H 	H 	0.66640 0.20790 0.53350 0.05000
H 	H 	0.66120 0.19230 0.46310 0.04900
H 	H 	0.53260 0.21980 0.39050 0.04600
H 	H 	0.53800 0.15400 0.37410 0.04400
H 	H 	0.62730 0.33150 0.52130 0.04800
H 	H 	0.67840 0.31890 0.49930 0.04100
H 	H 	0.57180 0.24170 0.54930 0.03900
H 	H 	0.52010 0.17210 0.48280 0.02900
H 	H 	0.69570 0.13390 0.52060 0.12600
H 	H 	0.72800 0.06710 0.55780 0.00000
H 	H 	0.64910 0.95740 0.51570 0.10200
H 	H 	0.53600 0.91530 0.43990 0.00600
H 	H 	0.35560 0.94990 0.32650 0.09000
H 	H 	0.40000 0.01920 0.39550 0.09300
H 	H 	0.37100 0.10850 0.36310 0.10000
H 	H 	0.35530 0.14500 0.28500 0.02600
H 	H 	0.35280 0.08650 0.18640 0.10100
H 	H 	0.37150 0.99680 0.16860 0.02900
H 	H 	0.38550 0.95940 0.24630 0.09400
H 	H 	0.49000 0.16570 0.28290 0.12400
H 	H 	0.46140 0.15190 0.17440 0.00400
H 	H 	0.54310 0.19450 0.15060 0.09900
H 	H 	0.65780 0.24710 0.23170 0.01700
H 	H 	0.82660 0.28430 0.41840 0.09900
H 	H 	0.80970 0.33220 0.46270 0.09700
H 	H 	0.82880 0.34220 0.56470 0.13100
H 	H 	0.86070 0.31090 0.64390 -0.01100
H 	H 	0.86600 0.21270 0.61590 0.13900
H 	H 	0.84520 0.14860 0.50850 -0.00200
H 	H 	0.81430 0.18160 0.42990 0.12600
H 	H 	0.74210 0.41330 0.55900 0.13800
H 	H 	0.83480 0.52120 0.63560 -0.01200
H 	H 	0.89490 0.55210 0.74710 0.11000
H 	H 	0.87040 0.46930 0.77790 0.00400
H 	H 	0.72600 0.27090 0.76070 0.09400
H 	H 	0.72590 0.23240 0.69370 0.09600
H 	H 	0.59360 0.12610 0.59120 0.11600
H 	H 	0.48370 0.07800 0.56410 0.01700
H 	H 	0.45310 0.12950 0.64100 0.11000
H 	H 	0.53440 0.23080 0.73800 0.01500
H 	H 	0.64520 0.27880 0.76220 0.10600
H 	H 	0.45580 0.15880 0.51180 0.15000
H 	H 	0.36940 0.14940 0.53500 -0.01900
H 	H 	0.31560 0.20990 0.51420 0.11500
H 	H 	0.34970 0.27730 0.46910 -0.00400
H 	H 	0.48840 0.33110 0.37620 0.10000
H 	H 	0.49010 0.39960 0.40890 0.09700
H 	H 	0.57740 0.33560 0.36550 0.11800
H 	H 	0.69180 0.39460 0.39850 -0.00200
H 	H 	0.75990 0.50210 0.48840 0.12900
H 	H 	0.71760 0.55240 0.54910 0.00700
H 	H 	0.60470 0.49340 0.51670 0.12100
H 	H 	0.97140 0.83210 0.51270 0.13100
H 	H 	0.20100 0.88260 0.70600 0.13900
H 	H 	0.17390 0.17550 0.81250 0.14200
H 	H 	0.02640 0.00730 0.87800 0.13400
H 	H 	0.16640 0.03350 0.70790 0.04900
H 	H 	0.16120 0.96310 0.69230 0.05000
H 	H 	0.03260 0.89050 0.71980 0.04700
H 	H 	0.03800 0.87410 0.65400 0.04500
H 	H 	0.12730 0.02130 0.83150 0.04900
H 	H 	0.17840 0.99930 0.81890 0.04300
H 	H 	0.07180 0.04930 0.74170 0.04200
H 	H 	0.02010 0.98280 0.67210 0.03300
H 	H 	0.19570 0.02060 0.63390 0.12800
H 	H 	0.22800 0.05780 0.56710 -0.00300
H 	H 	0.14910 0.01570 0.45740 0.10500
H 	H 	0.03600 0.93990 0.41530 0.00400
H 	H 	0.85560 0.82650 0.44990 0.09500
H 	H 	0.90000 0.89550 0.51920 0.09900
H 	H 	0.87100 0.86310 0.60850 0.10800
H 	H 	0.85530 0.78500 0.64500 0.01900
H 	H 	0.85280 0.68640 0.58650 0.10900
H 	H 	0.87150 0.66860 0.49680 0.01800
H 	H 	0.88550 0.74630 0.45940 0.10300
H 	H 	0.99000 0.78290 0.66570 0.12500
H 	H 	0.96140 0.67440 0.65190 0.00500
H 	H 	0.04310 0.65060 0.69450 0.09900
H 	H 	0.15780 0.73170 0.74710 0.01700
H 	H 	0.32660 0.91840 0.78430 0.09900
H 	H 	0.30970 0.96270 0.83220 0.09800
H 	H 	0.32880 0.06470 0.84220 0.13200
H 	H 	0.36070 0.14390 0.81090 -0.01100
H 	H 	0.36600 0.11590 0.71270 0.13900
H 	H 	0.34520 0.00850 0.64860 -0.00100
H 	H 	0.31430 0.92990 0.68160 0.12500
H 	H 	0.24210 0.05900 0.91330 0.14200
H 	H 	0.33480 0.13560 0.02120 -0.02100
H 	H 	0.39490 0.24710 0.05210 0.11700
H 	H 	0.37040 0.27790 0.96930 -0.00000
H 	H 	0.22600 0.26070 0.77090 0.09200
H 	H 	0.22590 0.19370 0.73240 0.09400
H 	H 	0.09360 0.09120 0.62610 0.10900
H 	H 	0.98370 0.06410 0.57800 0.02700
H 	H 	0.95310 0.14100 0.62950 0.10300
H 	H 	0.03440 0.23800 0.73080 0.02100
H 	H 	0.14520 0.26220 0.77880 0.10000
H 	H 	0.95580 0.01180 0.65880 0.15000
H 	H 	0.86940 0.03500 0.64940 -0.01800
H 	H 	0.81560 0.01420 0.70990 0.11500
H 	H 	0.84970 0.96910 0.77730 -0.00300
H 	H 	0.98840 0.87620 0.83110 0.09500
H 	H 	0.99010 0.90890 0.89960 0.09200
H 	H 	0.07740 0.86550 0.83560 0.10900
H 	H 	0.19180 0.89850 0.89460 0.01000
H 	H 	0.25990 0.98840 0.00210 0.11500
H 	H 	0.21760 0.04910 0.05240 0.02100
H 	H 	0.10470 0.01670 0.99340 0.10800
H 	H 	0.83210 0.51270 0.97140 0.13100
H 	H 	0.88260 0.70600 0.20100 0.13900
H 	H 	0.17550 0.81250 0.17390 0.14200
H 	H 	0.00730 0.87800 0.02640 0.13400
H 	H 	0.03350 0.70790 0.16640 0.04900
H 	H 	0.96310 0.69230 0.16120 0.05000
H 	H 	0.89050 0.71980 0.03260 0.04700
H 	H 	0.87410 0.65400 0.03800 0.04500
H 	H 	0.02130 0.83150 0.12730 0.04900
H 	H 	0.99930 0.81890 0.17840 0.04300
H 	H 	0.04930 0.74170 0.07180 0.04200
H 	H 	0.98280 0.67210 0.02010 0.03300
H 	H 	0.02060 0.63390 0.19570 0.12800
H 	H 	0.05780 0.56710 0.22800 -0.00300
H 	H 	0.01570 0.45740 0.14910 0.10500
H 	H 	0.93990 0.41530 0.03600 0.00400
H 	H 	0.82650 0.44990 0.85560 0.09500
H 	H 	0.89550 0.51920 0.90000 0.09900
H 	H 	0.86310 0.60850 0.87100 0.10800
H 	H 	0.78500 0.64500 0.85530 0.01900
H 	H 	0.68640 0.58650 0.85280 0.10900
H 	H 	0.66860 0.49680 0.87150 0.01800
H 	H 	0.74630 0.45940 0.88550 0.10300
H 	H 	0.78290 0.66570 0.99000 0.12500
H 	H 	0.67440 0.65190 0.96140 0.00500
H 	H 	0.65060 0.69450 0.04310 0.09900
H 	H 	0.73170 0.74710 0.15780 0.01700
H 	H 	0.91840 0.78430 0.32660 0.09900
H 	H 	0.96270 0.83220 0.30970 0.09800
H 	H 	0.06470 0.84220 0.32880 0.13200
H 	H 	0.14390 0.81090 0.36070 -0.01100
H 	H 	0.11590 0.71270 0.36600 0.13900
H 	H 	0.00850 0.64860 0.34520 -0.00100
H 	H 	0.92990 0.68160 0.31430 0.12500
H 	H 	0.05900 0.91330 0.24210 0.14200
H 	H 	0.13560 0.02120 0.33480 -0.02100
H 	H 	0.24710 0.05210 0.39490 0.11700
H 	H 	0.27790 0.96930 0.37040 -0.00000
H 	H 	0.26070 0.77090 0.22600 0.09200
H 	H 	0.19370 0.73240 0.22590 0.09400
H 	H 	0.09120 0.62610 0.09360 0.10900
H 	H 	0.06410 0.57800 0.98370 0.02700
H 	H 	0.14100 0.62950 0.95310 0.10300
H 	H 	0.23800 0.73080 0.03440 0.02100
H 	H 	0.26220 0.77880 0.14520 0.10000
H 	H 	0.01180 0.65880 0.95580 0.15000
H 	H 	0.03500 0.64940 0.86940 -0.01800
H 	H 	0.01420 0.70990 0.81560 0.11500
H 	H 	0.96910 0.77730 0.84970 -0.00300
H 	H 	0.87620 0.83110 0.98840 0.09500
H 	H 	0.90890 0.89960 0.99010 0.09200
H 	H 	0.86550 0.83560 0.07740 0.10900
H 	H 	0.89850 0.89460 0.19180 0.01000
H 	H 	0.98840 0.00210 0.25990 0.11500
H 	H 	0.04910 0.05240 0.21760 0.02100
H 	H 	0.01670 0.99340 0.10470 0.10800
H 	H 	0.51270 0.97140 0.83210 0.13100
H 	H 	0.70600 0.20100 0.88260 0.13900
H 	H 	0.81250 0.17390 0.17550 0.14200
H 	H 	0.87800 0.02640 0.00730 0.13400
H 	H 	0.70790 0.16640 0.03350 0.04900
H 	H 	0.69230 0.16120 0.96310 0.05000
H 	H 	0.71980 0.03260 0.89050 0.04700
H 	H 	0.65400 0.03800 0.87410 0.04500
H 	H 	0.83150 0.12730 0.02130 0.04900
H 	H 	0.81890 0.17840 0.99930 0.04300
H 	H 	0.74170 0.07180 0.04930 0.04200
H 	H 	0.67210 0.02010 0.98280 0.03300
H 	H 	0.63390 0.19570 0.02060 0.12800
H 	H 	0.56710 0.22800 0.05780 -0.00300
H 	H 	0.45740 0.14910 0.01570 0.10500
H 	H 	0.41530 0.03600 0.93990 0.00400
H 	H 	0.44990 0.85560 0.82650 0.09500
H 	H 	0.51920 0.90000 0.89550 0.09900
H 	H 	0.60850 0.87100 0.86310 0.10800
H 	H 	0.64500 0.85530 0.78500 0.01900
H 	H 	0.58650 0.85280 0.68640 0.10900
H 	H 	0.49680 0.87150 0.66860 0.01800
H 	H 	0.45940 0.88550 0.74630 0.10300
H 	H 	0.66570 0.99000 0.78290 0.12500
H 	H 	0.65190 0.96140 0.67440 0.00500
H 	H 	0.69450 0.04310 0.65060 0.09900
H 	H 	0.74710 0.15780 0.73170 0.01700
H 	H 	0.78430 0.32660 0.91840 0.09900
H 	H 	0.83220 0.30970 0.96270 0.09800
H 	H 	0.84220 0.32880 0.06470 0.13200
H 	H 	0.81090 0.36070 0.14390 -0.01100
H 	H 	0.71270 0.36600 0.11590 0.13900
H 	H 	0.64860 0.34520 0.00850 -0.00100
H 	H 	0.68160 0.31430 0.92990 0.12500
H 	H 	0.91330 0.24210 0.05900 0.14200
H 	H 	0.02120 0.33480 0.13560 -0.02100
H 	H 	0.05210 0.39490 0.24710 0.11700
H 	H 	0.96930 0.37040 0.27790 -0.00000
H 	H 	0.77090 0.22600 0.26070 0.09200
H 	H 	0.73240 0.22590 0.19370 0.09400
H 	H 	0.62610 0.09360 0.09120 0.10900
H 	H 	0.57800 0.98370 0.06410 0.02700
H 	H 	0.62950 0.95310 0.14100 0.10300
H 	H 	0.73080 0.03440 0.23800 0.02100
H 	H 	0.77880 0.14520 0.26220 0.10000
H 	H 	0.65880 0.95580 0.01180 0.15000
H 	H 	0.64940 0.86940 0.03500 -0.01800
H 	H 	0.70990 0.81560 0.01420 0.11500
H 	H 	0.77730 0.84970 0.96910 -0.00300
H 	H 	0.83110 0.98840 0.87620 0.09500
H 	H 	0.89960 0.99010 0.90890 0.09200
H 	H 	0.83560 0.07740 0.86550 0.10900
H 	H 	0.89460 0.19180 0.89850 0.01000
H 	H 	0.00210 0.25990 0.98840 0.11500
H 	H 	0.05240 0.21760 0.04910 0.02100
H 	H 	0.99340 0.10470 0.01670 0.10800
C 	C 	0.47920 0.60070 0.22710 0.00400
C 	C 	0.48620 0.63520 0.18890 0.00800
C 	C 	0.40040 0.56360 0.20290 0.01500
C 	C 	0.52010 0.65180 0.30700 0.01900
C 	C 	0.50040 0.54920 0.21960 0.04100
C 	C 	0.38950 0.47930 0.97170 0.27100
C 	C 	0.43680 0.55030 0.00040 -0.20700
C 	C 	0.46040 0.59660 0.06490 0.24100
C 	C 	0.50500 0.66360 0.09010 -0.23200
C 	C 	0.52670 0.68310 0.04980 0.12500
C 	C 	0.50210 0.63620 0.98480 -0.17800
C 	C 	0.45650 0.56830 0.95940 0.11800
C 	C 	0.35050 0.39280 0.99580 -0.13800
C 	C 	0.31280 0.38060 0.03250 0.13600
C 	C 	0.32370 0.37110 0.08600 -0.18000
C 	C 	0.27690 0.36120 0.10760 0.08000
C 	C 	0.21870 0.36050 0.07320 -0.14200
C 	C 	0.20760 0.37070 0.01890 0.06200
C 	C 	0.25420 0.38000 0.99690 -0.16000
C 	C 	0.35370 0.71570 0.27600 0.24700
C 	C 	0.30520 0.64100 0.23960 -0.17800
C 	C 	0.31890 0.59150 0.21510 0.24400
C 	C 	0.27210 0.52300 0.18190 -0.23800
C 	C 	0.20740 0.50650 0.17430 0.12300
C 	C 	0.19310 0.55500 0.19890 -0.17000
C 	C 	0.24220 0.62440 0.23160 0.09400
C 	C 	0.44010 0.79970 0.28590 -0.19400
C 	C 	0.49010 0.81880 0.26540 0.21300
C 	C 	0.55330 0.83220 0.30340 -0.26300
C 	C 	0.60020 0.85060 0.28430 0.17200
C 	C 	0.58380 0.85460 0.22590 -0.23000
C 	C 	0.51990 0.84170 0.18750 0.15700
C 	C 	0.47330 0.82360 0.20750 -0.24900
C 	C 	0.72610 0.77360 0.35870 0.26800
C 	C 	0.68970 0.78660 0.39680 -0.20800
C 	C 	0.62660 0.74300 0.38260 0.30000
C 	C 	0.60450 0.76510 0.42640 -0.28400
C 	C 	0.65010 0.82220 0.49050 0.15800
C 	C 	0.71560 0.85930 0.50820 -0.20200
C 	C 	0.73460 0.84290 0.45940 0.12200
C 	C 	0.71250 0.70450 0.25450 -0.16200
C 	C 	0.67820 0.62950 0.20690 0.16900
C 	C 	0.62060 0.58110 0.14730 -0.21000
C 	C 	0.60450 0.51600 0.11810 0.10800
C 	C 	0.65020 0.49760 0.14930 -0.16200
C 	C 	0.70800 0.54610 0.20920 0.10300
C 	C 	0.72250 0.61240 0.23820 -0.19400
C 	C 	0.43850 0.43170 0.30750 0.27000
C 	C 	0.46570 0.42330 0.25930 -0.21500
C 	C 	0.47840 0.45520 0.22340 0.33600
C 	C 	0.50370 0.43430 0.18300 -0.32300
C 	C 	0.51760 0.38260 0.17700 0.18200
C 	C 	0.50500 0.35040 0.21280 -0.21300
C 	C 	0.47830 0.37140 0.25360 0.13200
C 	C 	0.41810 0.51040 0.37310 -0.17100
C 	C 	0.43830 0.58210 0.40990 0.18800
C 	C 	0.40240 0.60580 0.37920 -0.22800
C 	C 	0.42210 0.67420 0.41470 0.13900
C 	C 	0.47590 0.71470 0.47850 -0.20500
C 	C 	0.51220 0.68950 0.50880 0.13300
C 	C 	0.49290 0.62230 0.47380 -0.22700
C 	C 	0.22710 0.47920 0.60070 0.00400
C 	C 	0.18890 0.48620 0.63520 0.00800
C 	C 	0.20290 0.40040 0.56360 0.01500
C 	C 	0.30700 0.52010 0.65180 0.01900
C 	C 	0.21960 0.50040 0.54920 0.04100
C 	C 	0.97170 0.38950 0.47930 0.27100
C 	C 	0.00040 0.43680 0.55030 -0.20700
C 	C 	0.06490 0.46040 0.59660 0.24100
C 	C 	0.09010 0.50500 0.66360 -0.23200
C 	C 	0.04980 0.52670 0.68310 0.12500
C 	C 	0.98480 0.50210 0.63620 -0.17800
C 	C 	0.95940 0.45650 0.56830 0.11800
C 	C 	0.99580 0.35050 0.39280 -0.13800
C 	C 	0.03250 0.31280 0.38060 0.13600
C 	C 	0.08600 0.32370 0.37110 -0.18000
C 	C 	0.10760 0.27690 0.36120 0.08000
C 	C 	0.07320 0.21870 0.36050 -0.14200
C 	C 	0.01890 0.20760 0.37070 0.06200
C 	C 	0.99690 0.25420 0.38000 -0.16000
C 	C 	0.27600 0.35370 0.71570 0.24700
C 	C 	0.23960 0.30520 0.64100 -0.17800
C 	C 	0.21510 0.31890 0.59150 0.24400
C 	C 	0.18190 0.27210 0.52300 -0.23800
C 	C 	0.17430 0.20740 0.50650 0.12300
C 	C 	0.19890 0.19310 0.55500 -0.17000
C 	C 	0.23160 0.24220 0.62440 0.09400
C 	C 	0.28590 0.44010 0.79970 -0.19400
C 	C 	0.26540 0.49010 0.81880 0.21300
C 	C 	0.30340 0.55330 0.83220 -0.26300
C 	C 	0.28430 0.60020 0.85060 0.17200
C 	C 	0.22590 0.58380 0.85460 -0.23000
C 	C 	0.18750 0.51990 0.84170 0.15700
C 	C 	0.20750 0.47330 0.82360 -0.24900
C 	C 	0.35870 0.72610 0.77360 0.26800
C 	C 	0.39680 0.68970 0.78660 -0.20800
C 	C 	0.38260 0.62660 0.74300 0.30000
C 	C 	0.42640 0.60450 0.76510 -0.28400
C 	C 	0.49050 0.65010 0.82220 0.15800
C 	C 	0.50820 0.71560 0.85930 -0.20200
C 	C 	0.45940 0.73460 0.84290 0.12200
C 	C 	0.25450 0.71250 0.70450 -0.16200
C 	C 	0.20690 0.67820 0.62950 0.16900
C 	C 	0.14730 0.62060 0.58110 -0.21000
C 	C 	0.11810 0.60450 0.51600 0.10800
C 	C 	0.14930 0.65020 0.49760 -0.16200
C 	C 	0.20920 0.70800 0.54610 0.10300
C 	C 	0.23820 0.72250 0.61240 -0.19400
C 	C 	0.30750 0.43850 0.43170 0.27000
C 	C 	0.25930 0.46570 0.42330 -0.21500
C 	C 	0.22340 0.47840 0.45520 0.33600
C 	C 	0.18300 0.50370 0.43430 -0.32300
C 	C 	0.17700 0.51760 0.38260 0.18200
C 	C 	0.21280 0.50500 0.35040 -0.21300
C 	C 	0.25360 0.47830 0.37140 0.13200
C 	C 	0.37310 0.41810 0.51040 -0.17100
C 	C 	0.40990 0.43830 0.58210 0.18800
C 	C 	0.37920 0.40240 0.60580 -0.22800
C 	C 	0.41470 0.42210 0.67420 0.13900
C 	C 	0.47850 0.47590 0.71470 -0.20500
C 	C 	0.50880 0.51220 0.68950 0.13300
C 	C 	0.47380 0.49290 0.62230 -0.22700
C 	C 	0.60070 0.22710 0.47920 0.00400
C 	C 	0.63520 0.18890 0.48620 0.00800
C 	C 	0.56360 0.20290 0.40040 0.01500
C 	C 	0.65180 0.30700 0.52010 0.01900
C 	C 	0.54920 0.21960 0.50040 0.04100
C 	C 	0.47930 0.97170 0.38950 0.27100
C 	C 	0.55030 0.00040 0.43680 -0.20700
C 	C 	0.59660 0.06490 0.46040 0.24100
C 	C 	0.66360 0.09010 0.50500 -0.23200
C 	C 	0.68310 0.04980 0.52670 0.12500
C 	C 	0.63620 0.98480 0.50210 -0.17800
C 	C 	0.56830 0.95940 0.45650 0.11800
C 	C 	0.39280 0.99580 0.35050 -0.13800
C 	C 	0.38060 0.03250 0.31280 0.13600
C 	C 	0.37110 0.08600 0.32370 -0.18000
C 	C 	0.36120 0.10760 0.27690 0.08000
C 	C 	0.36050 0.07320 0.21870 -0.14200
C 	C 	0.37070 0.01890 0.20760 0.06200
C 	C 	0.38000 0.99690 0.25420 -0.16000
C 	C 	0.71570 0.27600 0.35370 0.24700
C 	C 	0.64100 0.23960 0.30520 -0.17800
C 	C 	0.59150 0.21510 0.31890 0.24400
C 	C 	0.52300 0.18190 0.27210 -0.23800
C 	C 	0.50650 0.17430 0.20740 0.12300
C 	C 	0.55500 0.19890 0.19310 -0.17000
C 	C 	0.62440 0.23160 0.24220 0.09400
C 	C 	0.79970 0.28590 0.44010 -0.19400
C 	C 	0.81880 0.26540 0.49010 0.21300
C 	C 	0.83220 0.30340 0.55330 -0.26300
C 	C 	0.85060 0.28430 0.60020 0.17200
C 	C 	0.85460 0.22590 0.58380 -0.23000
C 	C 	0.84170 0.18750 0.51990 0.15700
C 	C 	0.82360 0.20750 0.47330 -0.24900
C 	C 	0.77360 0.35870 0.72610 0.26800
C 	C 	0.78660 0.39680 0.68970 -0.20800
C 	C 	0.74300 0.38260 0.62660 0.30000
C 	C 	0.76510 0.42640 0.60450 -0.28400
C 	C 	0.82220 0.49050 0.65010 0.15800
C 	C 	0.85930 0.50820 0.71560 -0.20200
C 	C 	0.84290 0.45940 0.73460 0.12200
C 	C 	0.70450 0.25450 0.71250 -0.16200
C 	C 	0.62950 0.20690 0.67820 0.16900
C 	C 	0.58110 0.14730 0.62060 -0.21000
C 	C 	0.51600 0.11810 0.60450 0.10800
C 	C 	0.49760 0.14930 0.65020 -0.16200
C 	C 	0.54610 0.20920 0.70800 0.10300
C 	C 	0.61240 0.23820 0.72250 -0.19400
C 	C 	0.43170 0.30750 0.43850 0.27000
C 	C 	0.42330 0.25930 0.46570 -0.21500
C 	C 	0.45520 0.22340 0.47840 0.33600
C 	C 	0.43430 0.18300 0.50370 -0.32300
C 	C 	0.38260 0.17700 0.51760 0.18200
C 	C 	0.35040 0.21280 0.50500 -0.21300
C 	C 	0.37140 0.25360 0.47830 0.13200
C 	C 	0.51040 0.37310 0.41810 -0.17100
C 	C 	0.58210 0.40990 0.43830 0.18800
C 	C 	0.60580 0.37920 0.40240 -0.22800
C 	C 	0.67420 0.41470 0.42210 0.13900
C 	C 	0.71470 0.47850 0.47590 -0.20500
C 	C 	0.68950 0.50880 0.51220 0.13300
C 	C 	0.62230 0.47380 0.49290 -0.22700
C 	C 	0.10070 0.97920 0.72710 0.00900
C 	C 	0.13520 0.98620 0.68890 0.00800
C 	C 	0.06360 0.90040 0.70290 0.01200
C 	C 	0.15180 0.02010 0.80700 0.01400
C 	C 	0.04920 0.00040 0.71960 0.03100
C 	C 	0.97930 0.88950 0.47170 0.27100
C 	C 	0.05030 0.93680 0.50040 -0.20800
C 	C 	0.09660 0.96040 0.56490 0.24600
C 	C 	0.16360 0.00500 0.59010 -0.24000
C 	C 	0.18310 0.02670 0.54980 0.13300
C 	C 	0.13620 0.00210 0.48480 -0.18800
C 	C 	0.06830 0.95650 0.45940 0.12400
C 	C 	0.89280 0.85050 0.49580 -0.15400
C 	C 	0.88060 0.81280 0.53250 0.15800
C 	C 	0.87110 0.82370 0.58600 -0.20100
C 	C 	0.86120 0.77690 0.60760 0.10200
C 	C 	0.86050 0.71870 0.57320 -0.16500
C 	C 	0.87070 0.70760 0.51890 0.09100
C 	C 	0.88000 0.75420 0.49690 -0.18600
C 	C 	0.21570 0.85370 0.77600 0.24700
C 	C 	0.14100 0.80520 0.73960 -0.17800
C 	C 	0.09150 0.81890 0.71510 0.24400
C 	C 	0.02300 0.77210 0.68190 -0.23800
C 	C 	0.00650 0.70740 0.67430 0.12100
C 	C 	0.05500 0.69310 0.69890 -0.16900
C 	C 	0.12440 0.74220 0.73160 0.09300
C 	C 	0.29970 0.94010 0.78590 -0.19400
C 	C 	0.31880 0.99010 0.76540 0.21300
C 	C 	0.33220 0.05330 0.80340 -0.26500
C 	C 	0.35060 0.10020 0.78430 0.17200
C 	C 	0.35460 0.08380 0.72590 -0.22900
C 	C 	0.34170 0.01990 0.68750 0.15500
C 	C 	0.32360 0.97330 0.70750 -0.24700
C 	C 	0.27360 0.22610 0.85870 0.27100
C 	C 	0.28660 0.18970 0.89680 -0.21500
C 	C 	0.24300 0.12660 0.88260 0.30700
C 	C 	0.26510 0.10450 0.92640 -0.29600
C 	C 	0.32220 0.15010 0.99050 0.17900
C 	C 	0.35930 0.21560 0.00820 -0.22200
C 	C 	0.34290 0.23460 0.95940 0.13600
C 	C 	0.20450 0.21250 0.75450 -0.15500
C 	C 	0.12950 0.17820 0.70690 0.15600
C 	C 	0.08110 0.12060 0.64730 -0.19200
C 	C 	0.01600 0.10450 0.61810 0.08400
C 	C 	0.99760 0.15020 0.64930 -0.14000
C 	C 	0.04610 0.20800 0.70920 0.08400
C 	C 	0.11240 0.22250 0.73820 -0.17900
C 	C 	0.93170 0.93850 0.80750 0.27000
C 	C 	0.92330 0.96570 0.75930 -0.21500
C 	C 	0.95520 0.97840 0.72340 0.33400
C 	C 	0.93430 0.00370 0.68300 -0.32200
C 	C 	0.88260 0.01760 0.67700 0.18100
C 	C 	0.85040 0.00500 0.71280 -0.21200
C 	C 	0.87140 0.97830 0.75360 0.13100
C 	C 	0.01040 0.91810 0.87310 -0.15500
C 	C 	0.08210 0.93830 0.90990 0.16300
C 	C 	0.10580 0.90240 0.87920 -0.20100
C 	C 	0.17420 0.92210 0.91470 0.10700
C 	C 	0.21470 0.97590 0.97850 -0.16600
C 	C 	0.18950 0.01220 0.00880 0.09100
C 	C 	0.12230 0.99290 0.97380 -0.19000
C 	C 	0.97920 0.72710 0.10070 0.00900
C 	C 	0.98620 0.68890 0.13520 0.00800
C 	C 	0.90040 0.70290 0.06360 0.01200
C 	C 	0.02010 0.80700 0.15180 0.01400
C 	C 	0.00040 0.71960 0.04920 0.03100
C 	C 	0.88950 0.47170 0.97930 0.27100
C 	C 	0.93680 0.50040 0.05030 -0.20800
C 	C 	0.96040 0.56490 0.09660 0.24600
C 	C 	0.00500 0.59010 0.16360 -0.24000
C 	C 	0.02670 0.54980 0.18310 0.13300
C 	C 	0.00210 0.48480 0.13620 -0.18800
C 	C 	0.95650 0.45940 0.06830 0.12400
C 	C 	0.85050 0.49580 0.89280 -0.15400
C 	C 	0.81280 0.53250 0.88060 0.15800
C 	C 	0.82370 0.58600 0.87110 -0.20100
C 	C 	0.77690 0.60760 0.86120 0.10200
C 	C 	0.71870 0.57320 0.86050 -0.16500
C 	C 	0.70760 0.51890 0.87070 0.09100
C 	C 	0.75420 0.49690 0.88000 -0.18600
C 	C 	0.85370 0.77600 0.21570 0.24700
C 	C 	0.80520 0.73960 0.14100 -0.17800
C 	C 	0.81890 0.71510 0.09150 0.24400
C 	C 	0.77210 0.68190 0.02300 -0.23800
C 	C 	0.70740 0.67430 0.00650 0.12100
C 	C 	0.69310 0.69890 0.05500 -0.16900
C 	C 	0.74220 0.73160 0.12440 0.09300
C 	C 	0.94010 0.78590 0.29970 -0.19400
C 	C 	0.99010 0.76540 0.31880 0.21300
C 	C 	0.05330 0.80340 0.33220 -0.26500
C 	C 	0.10020 0.78430 0.35060 0.17200
C 	C 	0.08380 0.72590 0.35460 -0.22900
C 	C 	0.01990 0.68750 0.34170 0.15500
C 	C 	0.97330 0.70750 0.32360 -0.24700
C 	C 	0.22610 0.85870 0.27360 0.27100
C 	C 	0.18970 0.89680 0.28660 -0.21500
C 	C 	0.12660 0.88260 0.24300 0.30700
C 	C 	0.10450 0.92640 0.26510 -0.29600
C 	C 	0.15010 0.99050 0.32220 0.17900
C 	C 	0.21560 0.00820 0.35930 -0.22200
C 	C 	0.23460 0.95940 0.34290 0.13600
C 	C 	0.21250 0.75450 0.20450 -0.15500
C 	C 	0.17820 0.70690 0.12950 0.15600
C 	C 	0.12060 0.64730 0.08110 -0.19200
C 	C 	0.10450 0.61810 0.01600 0.08400
C 	C 	0.15020 0.64930 0.99760 -0.14000
C 	C 	0.20800 0.70920 0.04610 0.08400
C 	C 	0.22250 0.73820 0.11240 -0.17900
C 	C 	0.93850 0.80750 0.93170 0.27000
C 	C 	0.96570 0.75930 0.92330 -0.21500
C 	C 	0.97840 0.72340 0.95520 0.33400
C 	C 	0.00370 0.68300 0.93430 -0.32200
C 	C 	0.01760 0.67700 0.88260 0.18100
C 	C 	0.00500 0.71280 0.85040 -0.21200
C 	C 	0.97830 0.75360 0.87140 0.13100
C 	C 	0.91810 0.87310 0.01040 -0.15500
C 	C 	0.93830 0.90990 0.08210 0.16300
C 	C 	0.90240 0.87920 0.10580 -0.20100
C 	C 	0.92210 0.91470 0.17420 0.10700
C 	C 	0.97590 0.97850 0.21470 -0.16600
C 	C 	0.01220 0.00880 0.18950 0.09100
C 	C 	0.99290 0.97380 0.12230 -0.19000
C 	C 	0.72710 0.10070 0.97920 0.00900
C 	C 	0.68890 0.13520 0.98620 0.00800
C 	C 	0.70290 0.06360 0.90040 0.01200
C 	C 	0.80700 0.15180 0.02010 0.01400
C 	C 	0.71960 0.04920 0.00040 0.03100
C 	C 	0.47170 0.97930 0.88950 0.27100
C 	C 	0.50040 0.05030 0.93680 -0.20800
C 	C 	0.56490 0.09660 0.96040 0.24600
C 	C 	0.59010 0.16360 0.00500 -0.24000
C 	C 	0.54980 0.18310 0.02670 0.13300
C 	C 	0.48480 0.13620 0.00210 -0.18800
C 	C 	0.45940 0.06830 0.95650 0.12400
C 	C 	0.49580 0.89280 0.85050 -0.15400
C 	C 	0.53250 0.88060 0.81280 0.15800
C 	C 	0.58600 0.87110 0.82370 -0.20100
C 	C 	0.60760 0.86120 0.77690 0.10200
C 	C 	0.57320 0.86050 0.71870 -0.16500
C 	C 	0.51890 0.87070 0.70760 0.09100
C 	C 	0.49690 0.88000 0.75420 -0.18600
C 	C 	0.77600 0.21570 0.85370 0.24700
C 	C 	0.73960 0.14100 0.80520 -0.17800
C 	C 	0.71510 0.09150 0.81890 0.24400
C 	C 	0.68190 0.02300 0.77210 -0.23800
C 	C 	0.67430 0.00650 0.70740 0.12100
C 	C 	0.69890 0.05500 0.69310 -0.16900
C 	C 	0.73160 0.12440 0.74220 0.09300
C 	C 	0.78590 0.29970 0.94010 -0.19400
C 	C 	0.76540 0.31880 0.99010 0.21300
C 	C 	0.80340 0.33220 0.05330 -0.26500
C 	C 	0.78430 0.35060 0.10020 0.17200
C 	C 	0.72590 0.35460 0.08380 -0.22900
C 	C 	0.68750 0.34170 0.01990 0.15500
C 	C 	0.70750 0.32360 0.97330 -0.24700
C 	C 	0.85870 0.27360 0.22610 0.27100
C 	C 	0.89680 0.28660 0.18970 -0.21500
C 	C 	0.88260 0.24300 0.12660 0.30700
C 	C 	0.92640 0.26510 0.10450 -0.29600
C 	C 	0.99050 0.32220 0.15010 0.17900
C 	C 	0.00820 0.35930 0.21560 -0.22200
C 	C 	0.95940 0.34290 0.23460 0.13600
C 	C 	0.75450 0.20450 0.21250 -0.15500
C 	C 	0.70690 0.12950 0.17820 0.15600
C 	C 	0.64730 0.08110 0.12060 -0.19200
C 	C 	0.61810 0.01600 0.10450 0.08400
C 	C 	0.64930 0.99760 0.15020 -0.14000
C 	C 	0.70920 0.04610 0.20800 0.08400
C 	C 	0.73820 0.11240 0.22250 -0.17900
C 	C 	0.80750 0.93170 0.93850 0.27000
C 	C 	0.75930 0.92330 0.96570 -0.21500
C 	C 	0.72340 0.95520 0.97840 0.33400
C 	C 	0.68300 0.93430 0.00370 -0.32200
C 	C 	0.67700 0.88260 0.01760 0.18100
C 	C 	0.71280 0.85040 0.00500 -0.21200
C 	C 	0.75360 0.87140 0.97830 0.13100
C 	C 	0.87310 0.01040 0.91810 -0.15500
C 	C 	0.90990 0.08210 0.93830 0.16300
C 	C 	0.87920 0.10580 0.90240 -0.20100
C 	C 	0.91470 0.17420 0.92210 0.10700
C 	C 	0.97850 0.21470 0.97590 -0.16600
C 	C 	0.00880 0.18950 0.01220 0.09100
C 	C 	0.97380 0.12230 0.99290 -0.19000
N 	N 	0.35260 0.45330 0.99710 -0.20400
N 	N 	0.38940 0.72910 0.24370 -0.19000
N 	N 	0.69830 0.70840 0.31070 -0.20300
N 	N 	0.46530 0.49640 0.35760 -0.19400
N 	N 	0.51120 0.46450 0.87620 0.05000
N 	N 	0.39130 0.25470 0.73610 0.04400
N 	N 	0.48720 0.33910 0.94910 0.05300
N 	N 	0.20480 0.30560 0.21220 0.04900
N 	N 	0.99710 0.35260 0.45330 -0.20400
N 	N 	0.24370 0.38940 0.72910 -0.19000
N 	N 	0.31070 0.69830 0.70840 -0.20300
N 	N 	0.35760 0.46530 0.49640 -0.19400
N 	N 	0.87620 0.51120 0.46450 0.05000
N 	N 	0.73610 0.39130 0.25470 0.04400
N 	N 	0.94910 0.48720 0.33910 0.05300
N 	N 	0.21220 0.20480 0.30560 0.04900
N 	N 	0.45330 0.99710 0.35260 -0.20400
N 	N 	0.72910 0.24370 0.38940 -0.19000
N 	N 	0.70840 0.31070 0.69830 -0.20300
N 	N 	0.49640 0.35760 0.46530 -0.19400
N 	N 	0.46450 0.87620 0.51120 0.05000
N 	N 	0.25470 0.73610 0.39130 0.04400
N 	N 	0.33910 0.94910 0.48720 0.05300
N 	N 	0.30560 0.21220 0.20480 0.04900
N 	N 	0.95330 0.85260 0.49710 -0.20300
N 	N 	0.22910 0.88940 0.74370 -0.19000
N 	N 	0.20840 0.19830 0.81070 -0.20500
N 	N 	0.99640 0.96530 0.85760 -0.19600
N 	N 	0.96450 0.01120 0.37620 0.05100
N 	N 	0.75470 0.89130 0.23610 0.04400
N 	N 	0.83910 0.98720 0.44910 0.05400
N 	N 	0.80560 0.70480 0.71220 0.04900
N 	N 	0.85260 0.49710 0.95330 -0.20300
N 	N 	0.88940 0.74370 0.22910 -0.19000
N 	N 	0.19830 0.81070 0.20840 -0.20500
N 	N 	0.96530 0.85760 0.99640 -0.19600
N 	N 	0.01120 0.37620 0.96450 0.05100
N 	N 	0.89130 0.23610 0.75470 0.04400
N 	N 	0.98720 0.44910 0.83910 0.05400
N 	N 	0.70480 0.71220 0.80560 0.04900
N 	N 	0.49710 0.95330 0.85260 -0.20300
N 	N 	0.74370 0.22910 0.88940 -0.19000
N 	N 	0.81070 0.20840 0.19830 -0.20500
N 	N 	0.85760 0.99640 0.96530 -0.19600
N 	N 	0.37620 0.96450 0.01120 0.05100
N 	N 	0.23610 0.75470 0.89130 0.04400
N 	N 	0.44910 0.83910 0.98720 0.05400
N 	N 	0.71220 0.80560 0.70480 0.04900
O 	O 	0.45850 0.58850 0.11960 -0.23300
O 	O 	0.38360 0.61330 0.22820 -0.24300
O 	O 	0.58680 0.69420 0.32210 -0.26900
O 	O 	0.47910 0.50910 0.24650 -0.29000
O 	O 	0.38880 0.42650 0.92470 -0.43600
O 	O 	0.34350 0.76830 0.30710 -0.41600
O 	O 	0.78040 0.81680 0.35840 -0.44000
O 	O 	0.39100 0.38850 0.31390 -0.41700
O 	O 	0.52070 0.43200 0.90430 -0.28000
O 	O 	0.45170 0.45270 0.84130 -0.29700
O 	O 	0.55760 0.52400 0.89990 -0.11800
O 	O 	0.34120 0.23070 0.74240 -0.26300
O 	O 	0.42650 0.31810 0.76050 -0.29700
O 	O 	0.39660 0.21290 0.69370 -0.12100
O 	O 	0.46920 0.30890 0.88900 -0.32400
O 	O 	0.46210 0.37140 0.97280 -0.25900
O 	O 	0.52010 0.32240 0.98780 -0.11100
O 	O 	0.26150 0.35540 0.24670 -0.30600
O 	O 	0.19000 0.26270 0.23210 -0.30100
O 	O 	0.15890 0.31560 0.18180 -0.11200
O 	O 	0.11960 0.45850 0.58850 -0.23300
O 	O 	0.22820 0.38360 0.61330 -0.24300
O 	O 	0.32210 0.58680 0.69420 -0.26900
O 	O 	0.24650 0.47910 0.50910 -0.29000
O 	O 	0.92470 0.38880 0.42650 -0.43600
O 	O 	0.30710 0.34350 0.76830 -0.41600
O 	O 	0.35840 0.78040 0.81680 -0.44000
O 	O 	0.31390 0.39100 0.38850 -0.41700
O 	O 	0.90430 0.52070 0.43200 -0.28000
O 	O 	0.84130 0.45170 0.45270 -0.29700
O 	O 	0.89990 0.55760 0.52400 -0.11800
O 	O 	0.74240 0.34120 0.23070 -0.26300
O 	O 	0.76050 0.42650 0.31810 -0.29700
O 	O 	0.69370 0.39660 0.21290 -0.12100
O 	O 	0.88900 0.46920 0.30890 -0.32400
O 	O 	0.97280 0.46210 0.37140 -0.25900
O 	O 	0.98780 0.52010 0.32240 -0.11100
O 	O 	0.24670 0.26150 0.35540 -0.30600
O 	O 	0.23210 0.19000 0.26270 -0.30100
O 	O 	0.18180 0.15890 0.31560 -0.11200
O 	O 	0.58850 0.11960 0.45850 -0.23300
O 	O 	0.61330 0.22820 0.38360 -0.24300
O 	O 	0.69420 0.32210 0.58680 -0.26900
O 	O 	0.50910 0.24650 0.47910 -0.29000
O 	O 	0.42650 0.92470 0.38880 -0.43600
O 	O 	0.76830 0.30710 0.34350 -0.41600
O 	O 	0.81680 0.35840 0.78040 -0.44000
O 	O 	0.38850 0.31390 0.39100 -0.41700
O 	O 	0.43200 0.90430 0.52070 -0.28000
O 	O 	0.45270 0.84130 0.45170 -0.29700
O 	O 	0.52400 0.89990 0.55760 -0.11800
O 	O 	0.23070 0.74240 0.34120 -0.26300
O 	O 	0.31810 0.76050 0.42650 -0.29700
O 	O 	0.21290 0.69370 0.39660 -0.12100
O 	O 	0.30890 0.88900 0.46920 -0.32400
O 	O 	0.37140 0.97280 0.46210 -0.25900
O 	O 	0.32240 0.98780 0.52010 -0.11100
O 	O 	0.35540 0.24670 0.26150 -0.30600
O 	O 	0.26270 0.23210 0.19000 -0.30100
O 	O 	0.31560 0.18180 0.15890 -0.11200
O 	O 	0.08850 0.95850 0.61960 -0.23400
O 	O 	0.11330 0.88360 0.72820 -0.24300
O 	O 	0.19420 0.08680 0.82210 -0.27100
O 	O 	0.00910 0.97910 0.74650 -0.28700
O 	O 	0.92650 0.88880 0.42470 -0.43600
O 	O 	0.26830 0.84350 0.80710 -0.41600
O 	O 	0.31680 0.28040 0.85840 -0.44000
O 	O 	0.88850 0.89100 0.81390 -0.41700
O 	O 	0.93200 0.02070 0.40430 -0.28100
O 	O 	0.95270 0.95170 0.34130 -0.29600
O 	O 	0.02400 0.05760 0.39990 -0.12000
O 	O 	0.73070 0.84120 0.24240 -0.26300
O 	O 	0.81810 0.92650 0.26050 -0.29700
O 	O 	0.71290 0.89660 0.19370 -0.12100
O 	O 	0.80890 0.96920 0.38900 -0.32400
O 	O 	0.87140 0.96210 0.47280 -0.26000
O 	O 	0.82240 0.02010 0.48780 -0.11300
O 	O 	0.85540 0.76150 0.74670 -0.30600
O 	O 	0.76270 0.69000 0.73210 -0.30000
O 	O 	0.81560 0.65890 0.68180 -0.11100
O 	O 	0.95850 0.61960 0.08850 -0.23400
O 	O 	0.88360 0.72820 0.11330 -0.24300
O 	O 	0.08680 0.82210 0.19420 -0.27100
O 	O 	0.97910 0.74650 0.00910 -0.28700
O 	O 	0.88880 0.42470 0.92650 -0.43600
O 	O 	0.84350 0.80710 0.26830 -0.41600
O 	O 	0.28040 0.85840 0.31680 -0.44000
O 	O 	0.89100 0.81390 0.88850 -0.41700
O 	O 	0.02070 0.40430 0.93200 -0.28100
O 	O 	0.95170 0.34130 0.95270 -0.29600
O 	O 	0.05760 0.39990 0.02400 -0.12000
O 	O 	0.84120 0.24240 0.73070 -0.26300
O 	O 	0.92650 0.26050 0.81810 -0.29700
O 	O 	0.89660 0.19370 0.71290 -0.12100
O 	O 	0.96920 0.38900 0.80890 -0.32400
O 	O 	0.96210 0.47280 0.87140 -0.26000
O 	O 	0.02010 0.48780 0.82240 -0.11300
O 	O 	0.76150 0.74670 0.85540 -0.30600
O 	O 	0.69000 0.73210 0.76270 -0.30000
O 	O 	0.65890 0.68180 0.81560 -0.11100
O 	O 	0.61960 0.08850 0.95850 -0.23400
O 	O 	0.72820 0.11330 0.88360 -0.24300
O 	O 	0.82210 0.19420 0.08680 -0.27100
O 	O 	0.74650 0.00910 0.97910 -0.28700
O 	O 	0.42470 0.92650 0.88880 -0.43600
O 	O 	0.80710 0.26830 0.84350 -0.41600
O 	O 	0.85840 0.31680 0.28040 -0.44000
O 	O 	0.81390 0.88850 0.89100 -0.41700
O 	O 	0.40430 0.93200 0.02070 -0.28100
O 	O 	0.34130 0.95270 0.95170 -0.29600
O 	O 	0.39990 0.02400 0.05760 -0.12000
O 	O 	0.24240 0.73070 0.84120 -0.26300
O 	O 	0.26050 0.81810 0.92650 -0.29700
O 	O 	0.19370 0.71290 0.89660 -0.12100
O 	O 	0.38900 0.80890 0.96920 -0.32400
O 	O 	0.47280 0.87140 0.96210 -0.26000
O 	O 	0.48780 0.82240 0.02010 -0.11300
O 	O 	0.74670 0.85540 0.76150 -0.30600
O 	O 	0.73210 0.76270 0.69000 -0.30000
O 	O 	0.68180 0.81560 0.65890 -0.11100
