data_crystal

_cell_length_a 11.06400
_cell_length_b 15.95700
_cell_length_c 23.36200
_cell_angle_alpha 90.00000
_cell_angle_beta  92.26500
_cell_angle_gamma 90.00000

_symmetry_space_group_name_	'P 1'
_symmetry_space_group_name_H-M	'P 1'

loop_
_symmetry_equiv_pos_as_xyz
  x,y,z

loop_
_atom_site_label
_atom_site_type_symbol
_atom_site_fract_x
_atom_site_fract_y
_atom_site_fract_z
_atom_site_charge
Mg	Mg	0.35870 0.84676 0.25929 1.45300
Mg	Mg	0.64130 0.15324 0.74071 1.45300
Mg	Mg	0.55275 0.51090 0.83946 1.46900
Mg	Mg	0.55275 0.98910 0.33946 1.46900
Mg	Mg	0.44725 0.48910 0.16054 1.47000
Mg	Mg	0.44725 0.01090 0.66054 1.47000
Mg	Mg	0.64130 0.34676 0.24071 1.45400
Mg	Mg	0.35870 0.65324 0.75929 1.45400
H 	H 	0.38140 0.57580 0.99660 0.03600
H 	H 	0.21860 0.23130 0.61060 0.03900
H 	H 	0.25560 0.61660 0.53520 0.04100
H 	H 	0.79590 0.96550 0.82920 0.01400
H 	H 	0.19280 0.76890 0.39250 0.01200
H 	H 	0.25560 0.88340 0.03520 0.04100
H 	H 	0.01590 0.26090 0.59560 0.06800
H 	H 	0.74440 0.38340 0.46480 0.04100
H 	H 	0.38140 0.92420 0.49660 0.03600
H 	H 	0.16470 0.75070 0.56220 0.02700
H 	H 	0.42360 0.20400 0.24890 -0.03200
H 	H 	0.80720 0.23110 0.60750 0.01200
H 	H 	0.83530 0.24930 0.43780 0.02700
H 	H 	0.16470 0.74930 0.06220 0.02700
H 	H 	0.42360 0.29600 0.74890 -0.03200
H 	H 	0.74440 0.11660 0.96480 0.04100
H 	H 	0.78140 0.73130 0.88940 0.03900
H 	H 	0.80720 0.26890 0.10750 0.01200
H 	H 	0.79590 0.53450 0.32920 0.01400
H 	H 	0.61860 0.42420 0.00340 0.03600
H 	H 	0.73510 0.99480 0.91680 0.04100
H 	H 	0.98410 0.73910 0.40440 0.06800
H 	H 	0.26490 0.00520 0.08320 0.04100
H 	H 	0.83530 0.25070 0.93780 0.02700
H 	H 	0.57640 0.79600 0.75110 -0.03200
H 	H 	0.98410 0.76090 0.90440 0.06800
H 	H 	0.73510 0.50520 0.41680 0.04100
H 	H 	0.78140 0.76870 0.38940 0.03900
H 	H 	0.01590 0.23910 0.09560 0.06800
H 	H 	0.61860 0.07580 0.50340 0.03600
H 	H 	0.26490 0.49480 0.58320 0.04100
H 	H 	0.19280 0.73110 0.89250 0.01200
H 	H 	0.20410 0.46550 0.67080 0.01400
H 	H 	0.20410 0.03450 0.17080 0.01400
H 	H 	0.21860 0.26870 0.11060 0.03900
H 	H 	0.57640 0.70400 0.25110 -0.03200
C 	C 	0.31350 0.62740 0.09780 0.41700
C 	C 	0.80850 0.42090 0.46890 -0.05500
C 	C 	0.62660 0.95950 0.74590 0.49300
C 	C 	0.78560 0.21320 0.57060 0.03400
C 	C 	0.19690 0.50640 0.55980 -0.05400
C 	C 	0.23560 0.41150 0.67280 0.03700
C 	C 	0.68650 0.12740 0.40220 0.41700
C 	C 	0.07940 0.82260 0.96520 0.02700
C 	C 	0.67170 0.74960 0.32060 -0.17000
C 	C 	0.91130 0.10060 0.00580 -0.00800
C 	C 	0.32250 0.39130 0.71560 -0.18400
C 	C 	0.10140 0.44590 0.55550 -0.00800
C 	C 	0.32700 0.88030 0.49140 0.08300
C 	C 	0.34920 0.89160 0.38530 0.48300
C 	C 	0.72210 0.34200 0.96170 -0.13900
C 	C 	0.76440 0.91150 0.82720 0.03700
C 	C 	0.19760 0.77600 0.53040 0.01900
C 	C 	0.89860 0.94590 0.94450 -0.00800
C 	C 	0.70530 0.14720 0.56340 -0.16400
C 	C 	0.19560 0.35160 0.63310 -0.05100
C 	C 	0.89860 0.55410 0.44450 -0.00800
C 	C 	0.89750 0.62900 0.41250 0.02700
C 	C 	0.16550 0.74680 0.47560 -0.04400
C 	C 	0.80440 0.85160 0.86690 -0.05100
C 	C 	0.23560 0.08850 0.17280 0.03700
C 	C 	0.29470 0.64720 0.93660 -0.16500
C 	C 	0.62660 0.54050 0.24590 0.49300
C 	C 	0.75610 0.72840 0.36290 0.02900
C 	C 	0.08870 0.89940 0.99420 -0.00800
C 	C 	0.70530 0.35280 0.06340 -0.16500
C 	C 	0.75610 0.77160 0.86290 0.02900
C 	C 	0.80310 0.00640 0.94020 -0.05400
C 	C 	0.29470 0.85280 0.43660 -0.16400
C 	C 	0.00300 0.03880 0.01520 -0.00300
C 	C 	0.08870 0.60060 0.49420 -0.00900
C 	C 	0.01300 0.31100 0.57530 -0.10700
C 	C 	0.24390 0.27160 0.63710 0.02900
C 	C 	0.32830 0.25040 0.67940 -0.17000
C 	C 	0.63220 0.81030 0.78030 0.09700
C 	C 	0.72210 0.15800 0.46170 -0.13900
C 	C 	0.67300 0.11970 0.50860 0.08300
C 	C 	0.76440 0.58850 0.32720 0.03700
C 	C 	0.68650 0.37260 0.90220 0.41700
C 	C 	0.62160 0.83710 0.32070 0.40200
C 	C 	0.98700 0.68900 0.42470 -0.10700
C 	C 	0.67750 0.89130 0.78440 -0.18400
C 	C 	0.65080 0.39160 0.11470 0.48300
C 	C 	0.37340 0.45950 0.75410 0.49300
C 	C 	0.01300 0.18900 0.07530 -0.10700
C 	C 	0.80440 0.64840 0.36690 -0.05100
C 	C 	0.24390 0.22840 0.13710 0.02900
C 	C 	0.32700 0.61970 0.99140 0.08300
C 	C 	0.99700 0.53880 0.48480 -0.00300
C 	C 	0.00300 0.46120 0.51520 -0.00300
C 	C 	0.62160 0.66290 0.82070 0.40200
C 	C 	0.34920 0.60840 0.88530 0.48300
C 	C 	0.19560 0.14840 0.13310 -0.05100
C 	C 	0.19690 0.99360 0.05980 -0.05400
C 	C 	0.19760 0.72400 0.03040 0.01800
C 	C 	0.65080 0.10840 0.61470 0.48300
C 	C 	0.07940 0.67740 0.46520 0.02700
C 	C 	0.80850 0.07910 0.96890 -0.05600
C 	C 	0.92060 0.32260 0.53480 0.02700
C 	C 	0.78560 0.28680 0.07060 0.03400
C 	C 	0.37840 0.33710 0.17930 0.40200
C 	C 	0.83450 0.24680 0.02440 -0.04400
C 	C 	0.16550 0.75320 0.97560 -0.04400
C 	C 	0.27790 0.84200 0.53830 -0.13900
C 	C 	0.37340 0.04050 0.25410 0.49300
C 	C 	0.36780 0.18970 0.21970 0.09700
C 	C 	0.80310 0.49360 0.44020 -0.05400
C 	C 	0.67750 0.60870 0.28440 -0.18400
C 	C 	0.10140 0.05410 0.05550 -0.00800
C 	C 	0.21440 0.78680 0.42940 0.03400
C 	C 	0.19150 0.57910 0.53110 -0.05500
C 	C 	0.80240 0.27600 0.96960 0.01800
C 	C 	0.92060 0.17740 0.03480 0.02700
C 	C 	0.98700 0.81100 0.92470 -0.10700
C 	C 	0.80240 0.22400 0.46960 0.01900
C 	C 	0.89750 0.87100 0.91250 0.02700
C 	C 	0.67300 0.38030 0.00860 0.08300
C 	C 	0.67170 0.75040 0.82060 -0.17000
C 	C 	0.37840 0.16290 0.67930 0.40200
C 	C 	0.83450 0.25320 0.52440 -0.04400
C 	C 	0.19150 0.92090 0.03110 -0.05600
C 	C 	0.32830 0.24960 0.17940 -0.17000
C 	C 	0.27790 0.65800 0.03830 -0.13900
C 	C 	0.36780 0.31030 0.71970 0.09600
C 	C 	0.91130 0.39940 0.50580 -0.00900
C 	C 	0.21440 0.71320 0.92940 0.03400
C 	C 	0.63220 0.68970 0.28030 0.09600
C 	C 	0.10250 0.37100 0.58750 0.02700
C 	C 	0.10250 0.12900 0.08750 0.02700
C 	C 	0.31350 0.87260 0.59780 0.41700
C 	C 	0.32250 0.10870 0.21560 -0.18400
C 	C 	0.99700 0.96120 0.98480 -0.00300
O 	O 	0.46100 0.35710 0.21490 -0.64300
O 	O 	0.27350 0.83320 0.63930 -0.36600
O 	O 	0.72650 0.16680 0.36070 -0.36600
O 	O 	0.53900 0.64290 0.78510 -0.64300
O 	O 	0.43070 0.94480 0.39296 -0.51600
O 	O 	0.66550 0.61180 0.85680 -0.48300
O 	O 	0.56930 0.05520 0.60704 -0.51600
O 	O 	0.69100 0.13410 0.66220 -0.60500
O 	O 	0.56930 0.44480 0.10704 -0.51600
O 	O 	0.72650 0.33320 0.86070 -0.36600
O 	O 	0.56140 0.93910 0.70490 -0.58200
O 	O 	0.65220 0.03390 0.76110 -0.61500
O 	O 	0.69100 0.36590 0.16220 -0.60600
O 	O 	0.43860 0.43910 0.79510 -0.58200
O 	O 	0.37900 0.93450 0.60138 -0.51700
O 	O 	0.46100 0.14290 0.71490 -0.64300
O 	O 	0.30900 0.63410 0.83780 -0.60600
O 	O 	0.62100 0.43450 0.89862 -0.51700
O 	O 	0.62100 0.06550 0.39862 -0.51700
O 	O 	0.65220 0.46610 0.26110 -0.61500
O 	O 	0.53900 0.85710 0.28510 -0.64300
O 	O 	0.43860 0.06090 0.29510 -0.58200
O 	O 	0.34780 0.53390 0.73890 -0.61500
O 	O 	0.56140 0.56090 0.20490 -0.58200
O 	O 	0.34780 0.96610 0.23890 -0.61500
O 	O 	0.37900 0.56550 0.10138 -0.51700
O 	O 	0.30900 0.86590 0.33780 -0.60500
O 	O 	0.33450 0.38820 0.14320 -0.48300
O 	O 	0.27350 0.66680 0.13930 -0.36600
O 	O 	0.66550 0.88820 0.35680 -0.48300
O 	O 	0.33450 0.11180 0.64320 -0.48300
O 	O 	0.43070 0.55520 0.89296 -0.51600
