data_crystal

_cell_length_a 29.59550
_cell_length_b 29.59550
_cell_length_c 29.59550
_cell_angle_alpha 90.00000
_cell_angle_beta  90.00000
_cell_angle_gamma 90.00000

_symmetry_space_group_name_	'P 1'
_symmetry_space_group_name_H-M	'P 1'

loop_
_symmetry_equiv_pos_as_xyz
  x,y,z

loop_
_atom_site_label
_atom_site_type_symbol
_atom_site_fract_x
_atom_site_fract_y
_atom_site_fract_z
_atom_site_charge
Cd	Cd	0.97393 0.22813 0.75207 1.21800
Cd	Cd	0.77607 0.99793 0.52187 1.21800
Cd	Cd	0.22393 0.49793 0.97813 1.21800
Cd	Cd	0.52607 0.77187 0.25207 1.21800
Cd	Cd	0.97813 0.22393 0.49793 1.21800
Cd	Cd	0.74793 0.02607 0.72813 1.21800
Cd	Cd	0.24793 0.47393 0.27187 1.21800
Cd	Cd	0.56324 0.37500 0.18676 1.19000
Cd	Cd	0.47393 0.27187 0.24793 1.21800
Cd	Cd	0.99793 0.52187 0.77607 1.21700
Cd	Cd	0.72393 0.00207 0.02187 1.21700
Cd	Cd	0.62500 0.68676 0.93676 1.18900
Cd	Cd	0.22813 0.75207 0.97393 1.21700
Cd	Cd	0.50207 0.47813 0.27607 1.21700
Cd	Cd	0.02187 0.72393 0.00207 1.21700
Cd	Cd	0.81324 0.06324 0.12500 1.18900
Cd	Cd	0.68676 0.93676 0.62500 1.18900
Cd	Cd	0.02607 0.72813 0.74793 1.21700
Cd	Cd	0.12500 0.81324 0.06324 1.18900
Cd	Cd	0.47813 0.27607 0.50207 1.21700
Cd	Cd	0.00207 0.02187 0.72393 1.21700
Cd	Cd	0.72813 0.74793 0.02607 1.21700
Cd	Cd	0.77187 0.25207 0.52607 1.21700
Cd	Cd	0.52187 0.77607 0.99793 1.21700
Cd	Cd	0.27607 0.50207 0.47813 1.21700
Cd	Cd	0.87500 0.31324 0.43676 1.18900
Cd	Cd	0.18676 0.56324 0.37500 1.18900
Cd	Cd	0.27187 0.24793 0.47393 1.21700
Cd	Cd	0.75207 0.97393 0.22813 1.21700
Cd	Cd	0.43676 0.87500 0.31324 1.18900
Cd	Cd	0.06324 0.12500 0.81324 1.18900
Cd	Cd	0.93676 0.62500 0.68676 1.18900
Cd	Cd	0.37500 0.18676 0.56324 1.18900
Cd	Cd	0.49793 0.97813 0.22393 1.21700
Cd	Cd	0.31324 0.43676 0.87500 1.18900
Cd	Cd	0.25207 0.52607 0.77187 1.21700
H 	H 	0.93240 0.04710 0.19020 0.00800
H 	H 	0.72250 0.11210 0.34470 0.15000
H 	H 	0.36010 0.79520 0.30300 -0.02600
H 	H 	0.30980 0.06760 0.54710 0.00800
H 	H 	0.07490 0.62720 0.15880 0.02600
H 	H 	0.48180 0.75940 0.47080 0.07600
H 	H 	0.80980 0.43240 0.45290 0.00800
H 	H 	0.99550 0.33190 0.63550 0.04400
H 	H 	0.99800 0.69210 0.59580 0.02200
H 	H 	0.88790 0.84470 0.77750 0.15000
H 	H 	0.61010 0.94700 0.54520 -0.02600
H 	H 	0.79000 0.18050 0.26910 0.19000
H 	H 	0.11010 0.55300 0.45480 -0.02600
H 	H 	0.74810 0.43350 0.51790 0.09300
H 	H 	0.91770 0.71090 0.62900 0.03500
H 	H 	0.66810 0.13550 0.50450 0.04400
H 	H 	0.59690 0.94990 0.28040 -0.00200
H 	H 	0.42510 0.37280 0.65880 0.02600
H 	H 	0.57270 0.62010 0.20050 0.05300
H 	H 	0.79510 0.89880 0.62730 0.00800
H 	H 	0.53040 0.30010 0.34690 -0.00200
H 	H 	0.72900 0.83040 0.43730 0.04000
H 	H 	0.30300 0.36010 0.79520 -0.02600
H 	H 	0.82490 0.40880 0.62280 0.02600
H 	H 	0.73210 0.18350 0.99810 0.09300
H 	H 	0.85390 0.14370 0.77950 0.04400
H 	H 	0.52100 0.18730 0.08040 0.04000
H 	H 	0.44990 0.21960 0.40310 -0.00200
H 	H 	0.02950 0.10630 0.60390 0.04400
H 	H 	0.62270 0.64880 0.04510 0.00800
H 	H 	0.18730 0.08040 0.52100 0.04000
H 	H 	0.36450 0.49550 0.16810 0.04400
H 	H 	0.74800 0.84580 0.55790 0.02100
H 	H 	0.77750 0.88790 0.84470 0.15000
H 	H 	0.70050 0.92730 0.37990 0.05300
H 	H 	0.13550 0.50450 0.66810 0.04400
H 	H 	0.70470 0.44870 0.43780 0.02900
H 	H 	0.33040 0.06270 0.27100 0.03900
H 	H 	0.54950 0.12990 0.17730 0.05300
H 	H 	0.09690 0.55010 0.71960 -0.00200
H 	H 	0.55010 0.71960 0.09690 -0.00200
H 	H 	0.24550 0.61450 0.08190 0.04400
H 	H 	0.19870 0.95470 0.81220 0.02900
H 	H 	0.59580 0.99800 0.69210 0.02200
H 	H 	0.40420 0.49800 0.80790 0.02100
H 	H 	0.98090 0.93050 0.04000 0.19000
H 	H 	0.06650 0.48210 0.24810 0.09300
H 	H 	0.67560 0.15670 0.18090 0.04300
H 	H 	0.69870 0.54530 0.18780 0.02900
H 	H 	0.92730 0.37990 0.70050 0.05300
H 	H 	0.93350 0.98210 0.25190 0.09300
H 	H 	0.49550 0.16810 0.36450 0.04400
H 	H 	0.02100 0.31270 0.91960 0.04000
H 	H 	0.60630 0.89610 0.97050 0.04400
H 	H 	0.32270 0.45050 0.62990 0.05300
H 	H 	0.80300 0.13990 0.20480 -0.02600
H 	H 	0.87270 0.20490 0.39880 0.00800
H 	H 	0.00190 0.23210 0.31650 0.09400
H 	H 	0.58190 0.25450 0.38550 0.04400
H 	H 	0.68120 0.00820 0.46490 0.00200
H 	H 	0.84690 0.96960 0.69990 -0.00200
H 	H 	0.38790 0.65530 0.22250 0.15000
H 	H 	0.83040 0.43730 0.72900 0.04000
H 	H 	0.85630 0.27950 0.64610 0.04400
H 	H 	0.22050 0.35390 0.35630 0.04400
H 	H 	0.34470 0.72250 0.11210 0.15000
H 	H 	0.71000 0.81950 0.76910 0.19000
H 	H 	0.09470 0.36210 0.52750 0.15000
H 	H 	0.68780 0.80130 0.45470 0.02900
H 	H 	0.80130 0.45470 0.68780 0.02900
H 	H 	0.59470 0.13790 0.47250 0.15000
H 	H 	0.64610 0.85630 0.27950 0.04400
H 	H 	0.79530 0.55130 0.93780 0.02900
H 	H 	0.33230 0.37900 0.96090 0.03500
H 	H 	0.43240 0.45290 0.80980 0.00800
H 	H 	0.49810 0.76790 0.81650 0.09300
H 	H 	0.27100 0.33040 0.06270 0.03900
H 	H 	0.14880 0.45490 0.37730 0.00800
H 	H 	0.62100 0.46090 0.16770 0.03500
H 	H 	0.45480 0.11010 0.55300 -0.02600
H 	H 	0.96090 0.33230 0.37900 0.03500
H 	H 	0.52950 0.39370 0.39610 0.04400
H 	H 	0.61450 0.08190 0.24550 0.04400
H 	H 	0.81880 0.99180 0.96490 0.00200
H 	H 	0.68090 0.82440 0.84330 0.04300
H 	H 	0.79710 0.18240 0.05980 0.00900
H 	H 	0.37270 0.29510 0.60120 0.00800
H 	H 	0.94990 0.28040 0.59690 -0.00200
H 	H 	0.51790 0.74810 0.43350 0.09300
H 	H 	0.82270 0.04950 0.37010 0.05300
H 	H 	0.45490 0.37730 0.14880 0.00800
H 	H 	0.40310 0.44990 0.21960 -0.00200
H 	H 	0.59120 0.12280 0.67510 0.02600
H 	H 	0.50190 0.26790 0.68350 0.09300
H 	H 	0.04520 0.88990 0.05300 -0.02600
H 	H 	0.74180 0.06880 0.28510 0.00200
H 	H 	0.18240 0.05980 0.79710 0.00900
H 	H 	0.65880 0.42510 0.37280 0.02600
H 	H 	0.12280 0.67510 0.59120 0.02600
H 	H 	0.38990 0.44700 0.95480 -0.02600
H 	H 	0.58040 0.97900 0.81270 0.04000
H 	H 	0.76910 0.71000 0.81950 0.19000
H 	H 	0.86010 0.70480 0.69700 -0.02600
H 	H 	0.28910 0.12900 0.58230 0.03500
H 	H 	0.78910 0.37100 0.41770 0.03500
H 	H 	0.87990 0.79950 0.07270 0.05300
H 	H 	0.21000 0.68050 0.23090 0.19000
H 	H 	0.74550 0.88550 0.91810 0.04400
H 	H 	0.93050 0.04000 0.98090 0.19000
H 	H 	0.69990 0.84690 0.96960 -0.00200
H 	H 	0.22080 0.00940 0.76820 0.07600
H 	H 	0.12270 0.85120 0.95490 0.00800
H 	H 	0.40880 0.62280 0.82490 0.02600
H 	H 	0.06270 0.27100 0.33040 0.03900
H 	H 	0.04710 0.19020 0.93240 0.00800
H 	H 	0.73180 0.77920 0.50940 0.07600
H 	H 	0.43050 0.46000 0.01910 0.19000
H 	H 	0.27750 0.61210 0.15530 0.15000
H 	H 	0.86210 0.97250 0.90530 0.15000
H 	H 	0.15530 0.27750 0.61210 0.15000
H 	H 	0.31880 0.50820 0.03510 0.00200
H 	H 	0.13790 0.47250 0.59470 0.15000
H 	H 	0.78040 0.90310 0.05010 -0.00200
H 	H 	0.94870 0.06220 0.29530 0.02900
H 	H 	0.90420 0.00200 0.19210 0.02200
H 	H 	0.00450 0.83190 0.86450 0.04400
H 	H 	0.37010 0.82270 0.04950 0.05300
H 	H 	0.19210 0.90420 0.00200 0.02200
H 	H 	0.18350 0.99810 0.73210 0.09300
H 	H 	0.57490 0.87280 0.84120 0.02600
H 	H 	0.19020 0.93240 0.04710 0.00800
H 	H 	0.37280 0.65880 0.42510 0.02600
H 	H 	0.28510 0.74180 0.06880 0.00200
H 	H 	0.31950 0.73090 0.29000 0.19000
H 	H 	0.68050 0.23090 0.21000 0.19000
H 	H 	0.62720 0.15880 0.07490 0.02600
H 	H 	0.49060 0.23180 0.72080 0.07600
H 	H 	0.20470 0.05130 0.56220 0.02900
H 	H 	0.70290 0.81760 0.55980 0.00800
H 	H 	0.39370 0.39610 0.52950 0.04400
H 	H 	0.33190 0.63550 0.99550 0.04400
H 	H 	0.89610 0.97050 0.60630 0.04400
H 	H 	0.54000 0.51910 0.06950 0.19000
H 	H 	0.91960 0.02100 0.31270 0.04000
H 	H 	0.76790 0.81650 0.49810 0.09300
H 	H 	0.66960 0.56270 0.22900 0.04000
H 	H 	0.12720 0.34120 0.92510 0.02600
H 	H 	0.32440 0.65670 0.31910 0.04300
H 	H 	0.17560 0.34330 0.81910 0.04300
H 	H 	0.27920 0.99060 0.26820 0.07700
H 	H 	0.37900 0.96090 0.33230 0.03500
H 	H 	0.65420 0.44210 0.24800 0.02100
H 	H 	0.44870 0.43780 0.70470 0.02900
H 	H 	0.16810 0.36450 0.49550 0.04400
H 	H 	0.54520 0.61010 0.94700 -0.02600
H 	H 	0.08230 0.21090 0.87100 0.03500
H 	H 	0.96000 0.48090 0.56950 0.19000
H 	H 	0.50820 0.03510 0.31880 0.00200
H 	H 	0.37100 0.41770 0.78910 0.03500
H 	H 	0.81270 0.58040 0.97900 0.04000
H 	H 	0.50450 0.66810 0.13550 0.04400
H 	H 	0.93730 0.77100 0.16960 0.04000
H 	H 	0.24060 0.97080 0.01820 0.07600
H 	H 	0.23090 0.21000 0.68050 0.19000
H 	H 	0.37720 0.32490 0.09120 0.02600
H 	H 	0.62900 0.91770 0.71090 0.03500
H 	H 	0.48090 0.56950 0.96000 0.19000
H 	H 	0.18090 0.67560 0.15670 0.04300
H 	H 	0.25190 0.93350 0.98210 0.09300
H 	H 	0.28040 0.59690 0.94990 -0.00200
H 	H 	0.25940 0.02920 0.51820 0.07600
H 	H 	0.24800 0.65420 0.44210 0.02100
H 	H 	0.97050 0.60630 0.89610 0.04400
H 	H 	0.83230 0.12100 0.03910 0.03500
H 	H 	0.14370 0.77950 0.85390 0.04400
H 	H 	0.93090 0.40670 0.57440 0.04300
H 	H 	0.84470 0.77750 0.88790 0.15000
H 	H 	0.12900 0.58230 0.28910 0.03500
H 	H 	0.87100 0.08230 0.21090 0.03500
H 	H 	0.79520 0.30300 0.36010 -0.02600
H 	H 	0.43090 0.09330 0.42560 0.04300
H 	H 	0.97900 0.81270 0.58040 0.04000
H 	H 	0.00200 0.19210 0.90420 0.02200
H 	H 	0.37990 0.70050 0.92730 0.05300
H 	H 	0.62010 0.20050 0.57270 0.05300
H 	H 	0.87280 0.84120 0.57490 0.02600
H 	H 	0.84580 0.55790 0.74800 0.02100
H 	H 	0.49180 0.53510 0.18120 0.00200
H 	H 	0.24810 0.06650 0.48210 0.09300
H 	H 	0.36210 0.52750 0.09470 0.15000
H 	H 	0.81910 0.17560 0.34330 0.04300
H 	H 	0.24180 0.43120 0.71490 0.00200
H 	H 	0.98180 0.74060 0.52920 0.07600
H 	H 	0.12730 0.70490 0.10120 0.00800
H 	H 	0.45470 0.68780 0.80130 0.02900
H 	H 	0.68240 0.44020 0.20290 0.00800
H 	H 	0.40530 0.63790 0.02750 0.15000
H 	H 	0.31650 0.00190 0.23210 0.09400
H 	H 	0.18780 0.69870 0.54530 0.02900
H 	H 	0.71090 0.62900 0.91770 0.03500
H 	H 	0.50200 0.30790 0.09580 0.02100
H 	H 	0.62280 0.82490 0.40880 0.02600
H 	H 	0.60390 0.02950 0.10630 0.04400
H 	H 	0.99060 0.26820 0.27920 0.07700
H 	H 	0.25820 0.56880 0.21490 0.00200
H 	H 	0.54530 0.18780 0.69870 0.02900
H 	H 	0.49800 0.80790 0.40420 0.02100
H 	H 	0.64880 0.04510 0.62270 0.00800
H 	H 	0.12010 0.29950 0.42730 0.05300
H 	H 	0.23180 0.72080 0.49060 0.07600
H 	H 	0.41810 0.75450 0.11450 0.04400
H 	H 	0.25450 0.38550 0.58190 0.04400
H 	H 	0.53510 0.18120 0.49180 0.00200
H 	H 	0.81220 0.19870 0.95470 0.02900
H 	H 	0.30790 0.09580 0.50200 0.02100
H 	H 	0.08190 0.24550 0.61450 0.04400
H 	H 	0.45290 0.80980 0.43240 0.00800
H 	H 	0.90670 0.92560 0.06910 0.04300
H 	H 	0.02920 0.51820 0.25940 0.07600
H 	H 	0.34330 0.81910 0.17560 0.04300
H 	H 	0.15420 0.05790 0.75200 0.02200
H 	H 	0.39610 0.52950 0.39370 0.04400
H 	H 	0.03040 0.19990 0.65310 -0.00200
H 	H 	0.22900 0.66960 0.56270 0.04000
H 	H 	0.21090 0.87100 0.08230 0.03500
H 	H 	0.69700 0.86010 0.70480 -0.02600
H 	H 	0.20480 0.80300 0.13990 -0.02600
H 	H 	0.09580 0.50200 0.30790 0.02100
H 	H 	0.69210 0.59580 0.99800 0.02200
H 	H 	0.56910 0.59330 0.07440 0.04300
H 	H 	0.04000 0.98090 0.93050 0.19000
H 	H 	0.79950 0.07270 0.87990 0.05300
H 	H 	0.54510 0.87730 0.35120 0.00800
H 	H 	0.55980 0.70290 0.81760 0.00800
H 	H 	0.30130 0.04530 0.31220 0.02900
H 	H 	0.44020 0.20290 0.68240 0.00800
H 	H 	0.93120 0.78510 0.75820 0.00200
H 	H 	0.02750 0.40530 0.63790 0.15000
H 	H 	0.69020 0.56760 0.95290 0.00800
H 	H 	0.01790 0.75190 0.56650 0.09300
H 	H 	0.71490 0.24180 0.43120 0.00200
H 	H 	0.20490 0.39880 0.87270 0.00800
H 	H 	0.53910 0.66770 0.87900 0.03500
H 	H 	0.51820 0.25940 0.02920 0.07600
H 	H 	0.99180 0.96490 0.81880 0.00200
H 	H 	0.72080 0.49060 0.23180 0.07600
H 	H 	0.94210 0.25200 0.34580 0.02100
H 	H 	0.63790 0.02750 0.40530 0.15000
H 	H 	0.91810 0.74550 0.88550 0.04400
H 	H 	0.84330 0.68090 0.82440 0.04300
H 	H 	0.77920 0.50940 0.73180 0.07600
H 	H 	0.80010 0.15310 0.46960 -0.00200
H 	H 	0.00820 0.46490 0.68120 0.00200
H 	H 	0.81650 0.49810 0.76790 0.09300
H 	H 	0.05790 0.75200 0.15420 0.02200
H 	H 	0.82440 0.84330 0.68090 0.04300
H 	H 	0.11210 0.34470 0.72250 0.15000
H 	H 	0.29000 0.31950 0.73090 0.19000
H 	H 	0.54710 0.30980 0.06760 0.00800
H 	H 	0.05300 0.04520 0.88990 -0.02600
H 	H 	0.59330 0.07440 0.56910 0.04300
H 	H 	0.26790 0.68350 0.50190 0.09300
H 	H 	0.81950 0.76910 0.71000 0.19000
H 	H 	0.34690 0.53040 0.30010 -0.00200
H 	H 	0.43120 0.71490 0.24180 0.00200
H 	H 	0.31760 0.94020 0.29710 0.00800
H 	H 	0.66770 0.87900 0.53910 0.03500
H 	H 	0.87720 0.17510 0.90880 0.02600
H 	H 	0.31270 0.91960 0.02100 0.04000
H 	H 	0.80790 0.40420 0.49800 0.02100
H 	H 	0.95470 0.81220 0.19870 0.02900
H 	H 	0.31910 0.32440 0.65670 0.04300
H 	H 	0.46090 0.16770 0.62100 0.03500
H 	H 	0.95480 0.38990 0.44700 -0.02600
H 	H 	0.90530 0.86210 0.97250 0.15000
H 	H 	0.05010 0.78040 0.90310 -0.00200
H 	H 	0.56650 0.01790 0.75190 0.09300
H 	H 	0.47080 0.48180 0.75940 0.07600
H 	H 	0.45050 0.62990 0.32270 0.05300
H 	H 	0.71960 0.09690 0.55010 -0.00200
H 	H 	0.01910 0.43050 0.46000 0.19000
H 	H 	0.95290 0.69020 0.56760 0.00800
H 	H 	0.44210 0.24800 0.65420 0.02100
H 	H 	0.90880 0.87720 0.17510 0.02600
H 	H 	0.30010 0.34690 0.53040 -0.00200
H 	H 	0.51910 0.06950 0.54000 0.19000
H 	H 	0.52920 0.98180 0.74060 0.07600
H 	H 	0.50940 0.73180 0.77920 0.07600
H 	H 	0.10120 0.12730 0.70490 0.00800
H 	H 	0.04950 0.37010 0.82270 0.05300
H 	H 	0.35630 0.22050 0.35390 0.04400
H 	H 	0.85120 0.95490 0.12270 0.00800
H 	H 	0.17510 0.90880 0.87720 0.02600
H 	H 	0.19700 0.63990 0.29520 -0.02600
H 	H 	0.10630 0.60390 0.02950 0.04400
H 	H 	0.35120 0.54510 0.87730 0.00800
H 	H 	0.47900 0.68730 0.41960 0.04000
H 	H 	0.32490 0.09120 0.37720 0.02600
H 	H 	0.65310 0.03040 0.19990 -0.00200
H 	H 	0.64370 0.72050 0.14610 0.04400
H 	H 	0.29510 0.60120 0.37270 0.00800
H 	H 	0.06880 0.28510 0.74180 0.00200
H 	H 	0.43350 0.51790 0.74810 0.09300
H 	H 	0.46000 0.01910 0.43050 0.19000
H 	H 	0.15670 0.18090 0.67560 0.04300
H 	H 	0.75940 0.47080 0.48180 0.07600
H 	H 	0.25200 0.34580 0.94210 0.02100
H 	H 	0.16960 0.93730 0.77100 0.04000
H 	H 	0.20050 0.57270 0.62010 0.05300
H 	H 	0.23210 0.31650 0.00190 0.09400
H 	H 	0.18120 0.49180 0.53510 0.00200
H 	H 	0.46960 0.80010 0.15310 -0.00200
H 	H 	0.55130 0.93780 0.79530 0.02900
H 	H 	0.42730 0.12010 0.29950 0.05300
H 	H 	0.41960 0.47900 0.68730 0.04000
H 	H 	0.41770 0.78910 0.37100 0.03500
H 	H 	0.48210 0.24810 0.06650 0.09300
H 	H 	0.74060 0.52920 0.98180 0.07600
H 	H 	0.76820 0.22080 0.00940 0.07600
H 	H 	0.10390 0.47050 0.89370 0.04400
H 	H 	0.99810 0.73210 0.18350 0.09300
H 	H 	0.55790 0.74800 0.84580 0.02100
H 	H 	0.67510 0.59120 0.12280 0.02600
H 	H 	0.73090 0.29000 0.31950 0.19000
H 	H 	0.55300 0.45480 0.11010 -0.02600
H 	H 	0.38550 0.58190 0.25450 0.04400
H 	H 	0.56760 0.95290 0.69020 0.00800
H 	H 	0.62990 0.32270 0.45050 0.05300
H 	H 	0.17730 0.54950 0.12990 0.05300
H 	H 	0.75190 0.56650 0.01790 0.09300
H 	H 	0.05130 0.56220 0.20470 0.02900
H 	H 	0.88990 0.05300 0.04520 -0.02600
H 	H 	0.97080 0.01820 0.24060 0.07600
H 	H 	0.70490 0.10120 0.12730 0.00800
H 	H 	0.84120 0.57490 0.87280 0.02600
H 	H 	0.09120 0.37720 0.32490 0.02600
H 	H 	0.07440 0.56910 0.59330 0.04300
H 	H 	0.06910 0.90670 0.92560 0.04300
H 	H 	0.65530 0.22250 0.38790 0.15000
H 	H 	0.21960 0.40310 0.44990 -0.00200
H 	H 	0.26820 0.27920 0.99060 0.07700
H 	H 	0.11450 0.41810 0.75450 0.04400
H 	H 	0.37730 0.14880 0.45490 0.00800
H 	H 	0.31220 0.30130 0.04530 0.02900
H 	H 	0.83190 0.86450 0.00450 0.04400
H 	H 	0.13990 0.20480 0.80300 -0.02600
H 	H 	0.21490 0.25820 0.56880 0.00200
H 	H 	0.01820 0.24060 0.97080 0.07600
H 	H 	0.63550 0.99550 0.33190 0.04400
H 	H 	0.06220 0.29530 0.94870 0.02900
H 	H 	0.75200 0.15420 0.05790 0.02200
H 	H 	0.96960 0.69990 0.84690 -0.00200
H 	H 	0.43780 0.70470 0.44870 0.02900
H 	H 	0.77100 0.16960 0.93730 0.04000
H 	H 	0.39880 0.87270 0.20490 0.00800
H 	H 	0.86450 0.00450 0.83190 0.04400
H 	H 	0.92560 0.06910 0.90670 0.04300
H 	H 	0.61210 0.15530 0.27750 0.15000
H 	H 	0.16770 0.62100 0.46090 0.03500
H 	H 	0.72050 0.14610 0.64370 0.04400
H 	H 	0.77950 0.85390 0.14370 0.04400
H 	H 	0.56270 0.22900 0.66960 0.04000
H 	H 	0.88550 0.91810 0.74550 0.04400
H 	H 	0.08040 0.52100 0.18730 0.04000
H 	H 	0.34120 0.92510 0.12720 0.02600
H 	H 	0.68350 0.50190 0.26790 0.09300
H 	H 	0.81760 0.55980 0.70290 0.00800
H 	H 	0.29710 0.31760 0.94020 0.00800
H 	H 	0.14610 0.64370 0.72050 0.04400
H 	H 	0.95050 0.87010 0.67730 0.05300
H 	H 	0.87010 0.67730 0.95050 0.05300
H 	H 	0.75820 0.93120 0.78510 0.00200
H 	H 	0.95490 0.12270 0.85120 0.00800
H 	H 	0.18050 0.26910 0.79000 0.19000
H 	H 	0.47050 0.89370 0.10390 0.04400
H 	H 	0.56880 0.21490 0.25820 0.00200
H 	H 	0.60120 0.37270 0.29510 0.00800
H 	H 	0.75450 0.11450 0.41810 0.04400
H 	H 	0.89370 0.10390 0.47050 0.04400
H 	H 	0.29530 0.94870 0.06220 0.02900
H 	H 	0.92510 0.12720 0.34120 0.02600
H 	H 	0.97250 0.90530 0.86210 0.15000
H 	H 	0.07270 0.87990 0.79950 0.05300
H 	H 	0.09330 0.42560 0.43090 0.04300
H 	H 	0.27950 0.64610 0.85630 0.04400
H 	H 	0.56950 0.96000 0.48090 0.19000
H 	H 	0.04510 0.62270 0.64880 0.00800
H 	H 	0.05980 0.79710 0.18240 0.00900
H 	H 	0.19990 0.65310 0.03040 -0.00200
H 	H 	0.78510 0.75820 0.93120 0.00200
H 	H 	0.26910 0.79000 0.18050 0.19000
H 	H 	0.06760 0.54710 0.30980 0.00800
H 	H 	0.70480 0.69700 0.86010 -0.02600
H 	H 	0.52750 0.09470 0.36210 0.15000
H 	H 	0.15310 0.46960 0.80010 -0.00200
H 	H 	0.15880 0.07490 0.62720 0.02600
H 	H 	0.29520 0.19700 0.63990 -0.02600
H 	H 	0.42560 0.43090 0.09330 0.04300
H 	H 	0.06950 0.54000 0.51910 0.19000
H 	H 	0.68730 0.41960 0.47900 0.04000
H 	H 	0.12100 0.03910 0.83230 0.03500
H 	H 	0.34580 0.94210 0.25200 0.02100
H 	H 	0.40670 0.57440 0.93090 0.04300
H 	H 	0.47250 0.59470 0.13790 0.15000
H 	H 	0.04530 0.31220 0.30130 0.02900
H 	H 	0.57440 0.93090 0.40670 0.04300
H 	H 	0.94700 0.54520 0.61010 -0.02600
H 	H 	0.62730 0.79510 0.89880 0.00800
H 	H 	0.12990 0.17730 0.54950 0.05300
H 	H 	0.96490 0.81880 0.99180 0.00200
H 	H 	0.67730 0.95050 0.87010 0.05300
H 	H 	0.94020 0.29710 0.31760 0.00800
H 	H 	0.00940 0.76820 0.22080 0.07600
H 	H 	0.89880 0.62730 0.79510 0.00800
H 	H 	0.20290 0.68240 0.44020 0.00800
H 	H 	0.58230 0.28910 0.12900 0.03500
H 	H 	0.90310 0.05010 0.78040 -0.00200
H 	H 	0.87730 0.35120 0.54510 0.00800
H 	H 	0.87900 0.53910 0.66770 0.03500
H 	H 	0.46490 0.68120 0.00820 0.00200
H 	H 	0.03510 0.31880 0.50820 0.00200
H 	H 	0.63990 0.29520 0.19700 -0.02600
H 	H 	0.65670 0.31910 0.32440 0.04300
H 	H 	0.56220 0.20470 0.05130 0.02900
H 	H 	0.93780 0.79530 0.55130 0.02900
H 	H 	0.03910 0.83230 0.12100 0.03500
H 	H 	0.35390 0.35630 0.22050 0.04400
H 	H 	0.43730 0.72900 0.83040 0.04000
H 	H 	0.29950 0.42730 0.12010 0.05300
H 	H 	0.44700 0.95480 0.38990 -0.02600
H 	H 	0.22250 0.38790 0.65530 0.15000
H 	H 	0.98210 0.25190 0.93350 0.09300
C 	C 	0.27500 0.33410 0.54430 0.04200
C 	C 	0.11940 0.42000 0.55520 0.25100
C 	C 	0.82430 0.10150 0.82640 -0.07600
C 	C 	0.41420 0.47210 0.79050 0.01100
C 	C 	0.22500 0.66590 0.04430 0.04200
C 	C 	0.57210 0.60140 0.04410 0.00400
C 	C 	0.61080 0.97520 0.55910 0.09800
C 	C 	0.58030 0.47490 0.22140 0.36100
C 	C 	0.54070 0.21280 0.07470 0.01700
C 	C 	0.33470 0.15660 0.37430 -0.12600
C 	C 	0.15520 0.56960 0.11990 0.01800
C 	C 	0.98200 0.48280 0.54720 -0.39800
C 	C 	0.06120 0.51400 0.25360 -0.17000
C 	C 	0.85140 0.67790 0.79410 0.00400
C 	C 	0.61290 0.13390 0.65530 0.04700
C 	C 	0.89490 0.00240 0.82430 -0.02000
C 	C 	0.79050 0.41420 0.47210 0.01100
C 	C 	0.23280 0.23200 0.70280 -0.39800
C 	C 	0.70200 0.92670 0.29180 0.28100
C 	C 	0.62610 0.94620 0.72750 -0.12100
C 	C 	0.79430 0.91590 0.02500 0.04200
C 	C 	0.71450 0.06570 0.26980 0.09200
C 	C 	0.73020 0.21450 0.43430 0.09200
C 	C 	0.58410 0.97500 0.29430 0.04200
C 	C 	0.10070 0.86630 0.97150 0.01600
C 	C 	0.97490 0.27860 0.41970 0.36100
C 	C 	0.72490 0.66970 0.97140 0.36100
C 	C 	0.66420 0.45950 0.22210 0.01100
C 	C 	0.32330 0.59990 0.79470 0.41600
C 	C 	0.97140 0.72490 0.66970 0.36100
C 	C 	0.65660 0.12570 0.66530 -0.12600
C 	C 	0.71280 0.42530 0.45930 0.01700
C 	C 	0.24760 0.64490 0.07430 -0.02000
C 	C 	0.64020 0.91170 0.80020 0.21500
C 	C 	0.55380 0.27250 0.12610 -0.12100
C 	C 	0.17670 0.54800 0.04180 0.28100
C 	C 	0.56570 0.23020 0.28550 0.09200
C 	C 	0.12610 0.55380 0.27250 -0.12100
C 	C 	0.81020 0.85120 0.13780 0.02200
C 	C 	0.18040 0.59480 0.63010 0.01800
C 	C 	0.42670 0.20820 0.29800 0.28100
C 	C 	0.83000 0.86940 0.80520 0.25100
C 	C 	0.22210 0.66420 0.45950 0.01100
C 	C 	0.20280 0.26720 0.76800 -0.39800
C 	C 	0.46450 0.51980 0.18430 0.09200
C 	C 	0.90520 0.36990 0.68040 0.01800
C 	C 	0.74640 0.56120 0.98600 -0.17000
C 	C 	0.91590 0.02500 0.79430 0.04200
C 	C 	0.86650 0.84040 0.80010 -0.30200
C 	C 	0.72140 0.91970 0.52510 0.36100
C 	C 	0.15640 0.61970 0.59890 -0.08300
C 	C 	0.62570 0.83470 0.34340 -0.12600
C 	C 	0.63010 0.18040 0.59480 0.01800
C 	C 	0.58580 0.97210 0.70950 0.01000
C 	C 	0.77790 0.16420 0.04050 0.00900
C 	C 	0.61220 0.89880 0.93980 0.02200
C 	C 	0.65530 0.61290 0.13390 0.04700
C 	C 	0.90010 0.20530 0.82330 0.41600
C 	C 	0.34470 0.11290 0.36610 0.04700
C 	C 	0.22150 0.38370 0.85070 0.01600
C 	C 	0.17530 0.96280 0.79070 0.01600
C 	C 	0.88370 0.64930 0.77850 0.01600
C 	C 	0.57330 0.45530 0.34990 0.41600
C 	C 	0.17570 0.39490 0.49760 -0.02000
C 	C 	0.20590 0.35140 0.82210 0.00400
C 	C 	0.80010 0.86650 0.84040 -0.30200
C 	C 	0.60070 0.63370 0.02850 0.01600
C 	C 	0.91170 0.80020 0.64020 0.21500
C 	C 	0.03720 0.29070 0.32470 0.01800
C 	C 	0.72520 0.86080 0.69090 0.09800
C 	C 	0.60150 0.67360 0.17570 -0.07600
C 	C 	0.09040 0.38350 0.55010 -0.30200
C 	C 	0.92670 0.54470 0.84990 0.41600
C 	C 	0.09480 0.86990 0.81960 0.01800
C 	C 	0.69980 0.35980 0.41170 0.21500
C 	C 	0.95570 0.72500 0.83410 0.04200
C 	C 	0.39860 0.54410 0.92790 0.00400
C 	C 	0.80910 0.27480 0.36080 0.09800
C 	C 	0.70570 0.08410 0.52500 0.04200
C 	C 	0.26400 0.31120 0.99640 -0.17300
C 	C 	0.29070 0.32470 0.03720 0.01800
C 	C 	0.87390 0.05380 0.22750 -0.12100
C 	C 	0.85510 0.92570 0.74760 -0.02000
C 	C 	0.52500 0.70570 0.08410 0.04200
C 	C 	0.27250 0.12610 0.55380 -0.12100
C 	C 	0.33000 0.63060 0.19480 0.25100
C 	C 	0.89880 0.93980 0.61220 0.02200
C 	C 	0.21450 0.43430 0.73020 0.09200
C 	C 	0.29430 0.58410 0.97500 0.04200
C 	C 	0.32430 0.39850 0.17360 -0.07600
C 	C 	0.38710 0.63390 0.84470 0.04700
C 	C 	0.20820 0.29800 0.42670 0.28100
C 	C 	0.27850 0.61630 0.35070 0.01600
C 	C 	0.11610 0.36290 0.90530 0.04700
C 	C 	0.32640 0.67570 0.89850 -0.07600
C 	C 	0.38370 0.85070 0.22150 0.01600
C 	C 	0.60120 0.06020 0.11220 0.02200
C 	C 	0.04070 0.28720 0.92530 0.01700
C 	C 	0.17570 0.60150 0.67360 -0.07600
C 	C 	0.73680 0.20180 0.23350 0.32800
C 	C 	0.48350 0.04820 0.48680 0.32800
C 	C 	0.67530 0.53720 0.20930 0.01700
C 	C 	0.51400 0.25360 0.06120 -0.17000
C 	C 	0.61970 0.59890 0.15640 -0.08300
C 	C 	0.68880 0.49640 0.23600 -0.17000
C 	C 	0.88060 0.92000 0.94480 0.25100
C 	C 	0.65960 0.19990 0.36650 -0.30200
C 	C 	0.27790 0.33580 0.95950 0.01200
C 	C 	0.79800 0.07330 0.79180 0.28100
C 	C 	0.37610 0.97750 0.30380 -0.12200
C 	C 	0.40960 0.61650 0.05010 -0.30200
C 	C 	0.07330 0.79180 0.79800 0.28100
C 	C 	0.43980 0.88780 0.10120 0.02200
C 	C 	0.95820 0.67670 0.95200 0.28100
C 	C 	0.80520 0.83000 0.86940 0.25100
C 	C 	0.77500 0.16590 0.45570 0.04200
C 	C 	0.10150 0.82640 0.82430 -0.07600
C 	C 	0.36290 0.90530 0.11610 0.04700
C 	C 	0.26720 0.76800 0.20280 -0.39800
C 	C 	0.13390 0.65530 0.61290 0.04700
C 	C 	0.76320 0.79820 0.73350 0.32800
C 	C 	0.55020 0.16170 0.60980 0.21500
C 	C 	0.79410 0.85140 0.67790 0.00400
C 	C 	0.95530 0.15010 0.42670 0.41600
C 	C 	0.77480 0.13920 0.19090 0.09800
C 	C 	0.65110 0.36970 0.40640 -0.08300
C 	C 	0.70180 0.26650 0.26320 0.32800
C 	C 	0.02860 0.22490 0.83030 0.36100
C 	C 	0.29180 0.70200 0.92670 0.28100
C 	C 	0.24640 0.93880 0.01400 -0.17000
C 	C 	0.37570 0.59340 0.41530 -0.12600
C 	C 	0.45200 0.54180 0.32330 0.28100
C 	C 	0.57430 0.25240 0.35510 -0.02000
C 	C 	0.36940 0.69480 0.17000 0.25100
C 	C 	0.13010 0.31960 0.40520 0.01800
C 	C 	0.64490 0.07430 0.24760 -0.02000
C 	C 	0.13370 0.47150 0.39930 0.01600
C 	C 	0.41590 0.47500 0.20570 0.04200
C 	C 	0.77510 0.33030 0.47140 0.36100
C 	C 	0.08030 0.02510 0.77860 0.36100
C 	C 	0.76980 0.78550 0.93430 0.09200
C 	C 	0.39880 0.56020 0.38780 0.02200
C 	C 	0.79720 0.76720 0.73200 -0.39800
C 	C 	0.16420 0.04050 0.77790 0.00900
C 	C 	0.38350 0.55010 0.09040 -0.30200
C 	C 	0.48600 0.75360 0.43880 -0.17000
C 	C 	0.33030 0.47140 0.77510 0.36100
C 	C 	0.27510 0.16970 0.52860 0.36100
C 	C 	0.97150 0.10070 0.86630 0.01600
C 	C 	0.47210 0.79050 0.41420 0.01100
C 	C 	0.56960 0.11990 0.15520 0.01800
C 	C 	0.58470 0.87570 0.90660 -0.12600
C 	C 	0.94090 0.38920 0.47520 0.09800
C 	C 	0.79470 0.32330 0.59990 0.41600
C 	C 	0.23350 0.73680 0.20180 0.32800
C 	C 	0.22490 0.83030 0.02860 0.36100
C 	C 	0.54180 0.32330 0.45200 0.28100
C 	C 	0.01720 0.45280 0.48200 -0.39800
C 	C 	0.30910 0.22520 0.63920 0.09800
C 	C 	0.17670 0.40010 0.29470 0.41600
C 	C 	0.63370 0.02850 0.60070 0.01600
C 	C 	0.29050 0.08580 0.52790 0.01100
C 	C 	0.88920 0.02480 0.05910 0.09800
C 	C 	0.85070 0.22150 0.38370 0.01600
C 	C 	0.53550 0.01980 0.31570 0.09200
C 	C 	0.36610 0.34470 0.11290 0.04700
C 	C 	0.87610 0.52250 0.69620 -0.12100
C 	C 	0.83470 0.34340 0.62570 -0.12600
C 	C 	0.94990 0.90960 0.88350 -0.30200
C 	C 	0.34990 0.57330 0.45530 0.41600
C 	C 	0.87570 0.90660 0.58470 -0.12600
C 	C 	0.22140 0.58030 0.47490 0.36100
C 	C 	0.99640 0.26400 0.31120 -0.17300
C 	C 	0.10980 0.94980 0.83830 0.21500
C 	C 	0.04050 0.77790 0.16420 0.00900
C 	C 	0.35980 0.41170 0.69980 0.21500
C 	C 	0.73600 0.81120 0.50360 -0.17000
C 	C 	0.70930 0.82470 0.46280 0.01700
C 	C 	0.52850 0.89930 0.36630 0.01600
C 	C 	0.46280 0.70930 0.82470 0.01700
C 	C 	0.07430 0.42360 0.85150 -0.07600
C 	C 	0.70590 0.14860 0.17790 0.00400
C 	C 	0.68980 0.14880 0.63780 0.02200
C 	C 	0.11650 0.44990 0.59040 -0.30200
C 	C 	0.02250 0.80380 0.12390 -0.12100
C 	C 	0.12570 0.66530 0.65660 -0.12600
C 	C 	0.93980 0.61220 0.89880 0.02200
C 	C 	0.20570 0.41590 0.47500 0.04200
C 	C 	0.35510 0.57430 0.25240 -0.02000
C 	C 	0.40530 0.38390 0.63710 0.04700
C 	C 	0.55520 0.11940 0.42000 0.25100
C 	C 	0.91970 0.52510 0.72140 0.36100
C 	C 	0.88350 0.94990 0.90960 -0.30200
C 	C 	0.42530 0.45930 0.71280 0.01700
C 	C 	0.66530 0.65660 0.12570 -0.12600
C 	C 	0.15960 0.30010 0.63350 -0.30200
C 	C 	0.84360 0.11970 0.90110 -0.08300
C 	C 	0.48200 0.01720 0.45280 -0.39800
C 	C 	0.36970 0.40640 0.65110 -0.08300
C 	C 	0.44620 0.77250 0.37390 -0.12100
C 	C 	0.04470 0.65010 0.07330 0.41600
C 	C 	0.81570 0.96450 0.98020 0.09200
C 	C 	0.90660 0.58470 0.87570 -0.12600
C 	C 	0.51980 0.18430 0.46450 0.09200
C 	C 	0.60980 0.55020 0.16170 0.21500
C 	C 	0.59480 0.63010 0.18040 0.01800
C 	C 	0.65010 0.07330 0.04470 0.41600
C 	C 	0.41970 0.97490 0.27860 0.36100
C 	C 	0.47750 0.19620 0.62390 -0.12100
C 	C 	0.86990 0.81960 0.09480 0.01800
C 	C 	0.90110 0.84360 0.11970 -0.08300
C 	C 	0.36990 0.68040 0.90520 0.01800
C 	C 	0.14860 0.17790 0.70590 0.00400
C 	C 	0.54800 0.04180 0.17670 0.28100
C 	C 	0.26980 0.71450 0.06570 0.09200
C 	C 	0.75360 0.43880 0.48600 -0.17000
C 	C 	0.94620 0.72750 0.62610 -0.12100
C 	C 	0.51800 0.51720 0.04720 -0.39800
C 	C 	0.38010 0.84480 0.06960 0.01800
C 	C 	0.22520 0.63920 0.30910 0.09800
C 	C 	0.06960 0.38010 0.84480 0.01800
C 	C 	0.39020 0.05020 0.33830 0.21500
C 	C 	0.48280 0.54720 0.98200 -0.39800
C 	C 	0.19090 0.77480 0.13920 0.09800
C 	C 	0.13030 0.59360 0.15110 -0.08300
C 	C 	0.83580 0.54050 0.72210 0.01100
C 	C 	0.67670 0.09990 0.70530 0.41600
C 	C 	0.15010 0.42670 0.95530 0.41600
C 	C 	0.59360 0.15110 0.13030 -0.08300
C 	C 	0.78720 0.57470 0.95930 0.01700
C 	C 	0.16170 0.60980 0.55020 0.21500
C 	C 	0.11990 0.15520 0.56960 0.01800
C 	C 	0.89850 0.32640 0.67570 -0.07600
C 	C 	0.60140 0.04410 0.57210 0.00400
C 	C 	0.30010 0.63350 0.15960 -0.30200
C 	C 	0.92570 0.74760 0.85510 -0.02000
C 	C 	0.86970 0.09360 0.34890 -0.08300
C 	C 	0.45280 0.48200 0.01720 -0.39800
C 	C 	0.91530 0.12430 0.40660 -0.12600
C 	C 	0.61650 0.05010 0.40960 -0.30200
C 	C 	0.52860 0.27510 0.16970 0.36100
C 	C 	0.73350 0.76320 0.79820 0.32800
C 	C 	0.45590 0.42790 0.10140 0.00400
C 	C 	0.97210 0.70950 0.58580 0.01000
C 	C 	0.31120 0.99640 0.26400 -0.17300
C 	C 	0.70530 0.67670 0.09990 0.41600
C 	C 	0.10120 0.43980 0.88780 0.02200
C 	C 	0.02500 0.79430 0.91590 0.04200
C 	C 	0.55010 0.09040 0.38350 -0.30200
C 	C 	0.70950 0.58580 0.97210 0.01000
C 	C 	0.45570 0.77500 0.16590 0.04200
C 	C 	0.18980 0.35120 0.36220 0.02200
C 	C 	0.54430 0.27500 0.33410 0.04200
C 	C 	0.54820 0.01320 0.51650 0.32800
C 	C 	0.64850 0.92570 0.92360 -0.07600
C 	C 	0.09890 0.34360 0.38030 -0.08300
C 	C 	0.43880 0.48600 0.75360 -0.17000
C 	C 	0.85980 0.08830 0.30020 0.21500
C 	C 	0.48680 0.48350 0.04820 0.32800
C 	C 	0.58000 0.05520 0.38060 0.25100
C 	C 	0.04720 0.51800 0.51720 -0.39800
C 	C 	0.86630 0.97150 0.10070 0.01600
C 	C 	0.54410 0.92790 0.39860 0.00400
C 	C 	0.29470 0.17670 0.40010 0.41600
C 	C 	0.30020 0.85980 0.08830 0.21500
C 	C 	0.86610 0.15530 0.88710 0.04700
C 	C 	0.48020 0.68430 0.03550 0.09200
C 	C 	0.98020 0.81570 0.96450 0.09200
C 	C 	0.20180 0.23350 0.73680 0.32800
C 	C 	0.76650 0.23680 0.29820 0.32800
C 	C 	0.41170 0.69980 0.35980 0.21500
C 	C 	0.70280 0.23280 0.23200 -0.39800
C 	C 	0.65640 0.88030 0.40110 -0.08300
C 	C 	0.38390 0.63710 0.40530 0.04700
C 	C 	0.26650 0.26320 0.70180 0.32800
C 	C 	0.94480 0.88060 0.92000 0.25100
C 	C 	0.72210 0.83580 0.54050 0.01100
C 	C 	0.32330 0.45200 0.54180 0.28100
C 	C 	0.30520 0.67000 0.13060 0.25100
C 	C 	0.42360 0.85150 0.07430 -0.07600
C 	C 	0.20530 0.82330 0.90010 0.41600
C 	C 	0.88780 0.10120 0.43980 0.02200
C 	C 	0.29720 0.73280 0.26800 -0.39800
C 	C 	0.37390 0.44620 0.77250 -0.12100
C 	C 	0.17360 0.32430 0.39850 -0.07600
C 	C 	0.43040 0.61990 0.34480 0.01800
C 	C 	0.47140 0.77510 0.33030 0.36100
C 	C 	0.47490 0.22140 0.58030 0.36100
C 	C 	0.78550 0.93430 0.76980 0.09200
C 	C 	0.63390 0.84470 0.38710 0.04700
C 	C 	0.11630 0.14930 0.72150 0.01600
C 	C 	0.81120 0.50360 0.73600 -0.17000
C 	C 	0.20200 0.57330 0.70820 0.28100
C 	C 	0.86940 0.80520 0.83000 0.25100
C 	C 	0.11080 0.52480 0.44090 0.09800
C 	C 	0.40010 0.29470 0.17670 0.41600
C 	C 	0.86080 0.69090 0.72520 0.09800
C 	C 	0.14930 0.72150 0.11630 0.01600
C 	C 	0.98680 0.01650 0.95180 0.32800
C 	C 	0.85150 0.07430 0.42360 -0.07600
C 	C 	0.08830 0.30020 0.85980 0.21500
C 	C 	0.43430 0.73020 0.21450 0.09200
C 	C 	0.07430 0.24760 0.64490 -0.02000
C 	C 	0.92000 0.94480 0.88060 0.25100
C 	C 	0.01400 0.24640 0.93880 -0.17000
C 	C 	0.57640 0.35150 0.42570 -0.07600
C 	C 	0.61990 0.34480 0.43040 0.01800
C 	C 	0.05910 0.88920 0.02480 0.09800
C 	C 	0.52510 0.72140 0.91970 0.36100
C 	C 	0.83410 0.95570 0.72500 0.04200
C 	C 	0.29410 0.64860 0.32210 0.00400
C 	C 	0.40520 0.13010 0.31960 0.01800
C 	C 	0.29800 0.42670 0.20820 0.28100
C 	C 	0.34890 0.86970 0.09360 -0.08300
C 	C 	0.38780 0.39880 0.56020 0.02200
C 	C 	0.63920 0.30910 0.22520 0.09800
C 	C 	0.38030 0.09890 0.34360 -0.08300
C 	C 	0.31960 0.40520 0.13010 0.01800
C 	C 	0.45820 0.82330 0.04800 0.28100
C 	C 	0.44480 0.61940 0.08000 0.25100
C 	C 	0.64880 0.86220 0.31020 0.02200
C 	C 	0.63350 0.15960 0.30010 -0.30200
C 	C 	0.89020 0.44980 0.66170 0.21500
C 	C 	0.84340 0.87430 0.16530 -0.12600
C 	C 	0.68040 0.90520 0.36990 0.01800
C 	C 	0.56120 0.98600 0.74640 -0.17000
C 	C 	0.61610 0.13710 0.09470 0.04700
C 	C 	0.51320 0.98350 0.45180 0.32800
C 	C 	0.72750 0.62610 0.94620 -0.12100
C 	C 	0.59040 0.11650 0.44990 -0.30200
C 	C 	0.95200 0.95820 0.67670 0.28100
C 	C 	0.94980 0.83830 0.10980 0.21500
C 	C 	0.97500 0.29430 0.58410 0.04200
C 	C 	0.30380 0.37610 0.97750 -0.12200
C 	C 	0.09470 0.61610 0.13710 0.04700
C 	C 	0.84890 0.63030 0.90640 -0.08300
C 	C 	0.17000 0.36940 0.69480 0.25100
C 	C 	0.40110 0.65640 0.88030 -0.08300
C 	C 	0.72500 0.83410 0.95570 0.04200
C 	C 	0.01320 0.51650 0.54820 0.32800
C 	C 	0.59890 0.15640 0.61970 -0.08300
C 	C 	0.19620 0.62390 0.47750 -0.12100
C 	C 	0.92530 0.04070 0.28720 0.01700
C 	C 	0.22750 0.87390 0.05380 -0.12100
C 	C 	0.96450 0.98020 0.81570 0.09200
C 	C 	0.25240 0.35510 0.57430 -0.02000
C 	C 	0.74760 0.85510 0.92570 -0.02000
C 	C 	0.31020 0.64880 0.86220 0.02200
C 	C 	0.79820 0.73350 0.76320 0.32800
C 	C 	0.23680 0.29820 0.76650 0.32800
C 	C 	0.61630 0.35070 0.27850 0.01600
C 	C 	0.44980 0.66170 0.89020 0.21500
C 	C 	0.20930 0.67530 0.53720 0.01700
C 	C 	0.28720 0.92530 0.04070 0.01700
C 	C 	0.87430 0.16530 0.84340 -0.12600
C 	C 	0.95590 0.07210 0.89860 0.00400
C 	C 	0.16590 0.45570 0.77500 0.04200
C 	C 	0.57470 0.95930 0.78720 0.01700
C 	C 	0.42570 0.57640 0.35150 -0.07600
C 	C 	0.20950 0.91420 0.02790 0.01000
C 	C 	0.35150 0.42570 0.57640 -0.07600
C 	C 	0.04430 0.22500 0.66590 0.04200
C 	C 	0.42670 0.95530 0.15010 0.41600
C 	C 	0.02510 0.77860 0.08030 0.36100
C 	C 	0.23200 0.70280 0.23280 -0.39800
C 	C 	0.54470 0.84990 0.92670 0.41600
C 	C 	0.80020 0.64020 0.91170 0.21500
C 	C 	0.83830 0.10980 0.94980 0.21500
C 	C 	0.27860 0.41970 0.97490 0.36100
C 	C 	0.04800 0.45820 0.82330 0.28100
C 	C 	0.01650 0.95180 0.98680 0.32800
C 	C 	0.69480 0.17000 0.36940 0.25100
C 	C 	0.72150 0.11630 0.14930 0.01600
C 	C 	0.14880 0.63780 0.68980 0.02200
C 	C 	0.10140 0.45590 0.42790 0.00400
C 	C 	0.84470 0.38710 0.63390 0.04700
C 	C 	0.82210 0.20590 0.35140 0.00400
C 	C 	0.93430 0.76980 0.78550 0.09200
C 	C 	0.00360 0.76400 0.18880 -0.16900
C 	C 	0.86290 0.59470 0.88390 0.04700
C 	C 	0.13710 0.09470 0.61610 0.04700
C 	C 	0.35070 0.27850 0.61630 0.01600
C 	C 	0.34480 0.43040 0.61990 0.01800
C 	C 	0.08580 0.52790 0.29050 0.01100
C 	C 	0.15530 0.88710 0.86610 0.04700
C 	C 	0.06020 0.11220 0.60120 0.02200
C 	C 	0.69090 0.72520 0.86080 0.09800
C 	C 	0.95950 0.27790 0.33580 0.01200
C 	C 	0.68430 0.03550 0.48020 0.09200
C 	C 	0.01980 0.31570 0.53550 0.09200
C 	C 	0.61940 0.08000 0.44480 0.25100
C 	C 	0.98280 0.95280 0.01800 -0.39800
C 	C 	0.14020 0.58830 0.19980 0.21500
C 	C 	0.36220 0.18980 0.35120 0.02200
C 	C 	0.69620 0.87610 0.52250 -0.12100
C 	C 	0.76800 0.20280 0.26720 -0.39800
C 	C 	0.09990 0.70530 0.67670 0.41600
C 	C 	0.26320 0.70180 0.26650 0.32800
C 	C 	0.42000 0.55520 0.11940 0.25100
C 	C 	0.83030 0.02860 0.22490 0.36100
C 	C 	0.19480 0.33000 0.63060 0.25100
C 	C 	0.17790 0.70590 0.14860 0.00400
C 	C 	0.82470 0.46280 0.70930 0.01700
C 	C 	0.49640 0.23600 0.68880 -0.17000
C 	C 	0.67570 0.89850 0.32640 -0.07600
C 	C 	0.52480 0.44090 0.11080 0.09800
C 	C 	0.28550 0.56570 0.23020 0.09200
C 	C 	0.11220 0.60120 0.06020 0.02200
C 	C 	0.50240 0.67570 0.10510 -0.02000
C 	C 	0.77860 0.08030 0.02510 0.36100
C 	C 	0.47150 0.39930 0.13370 0.01600
C 	C 	0.12390 0.02250 0.80380 -0.12100
C 	C 	0.42790 0.10140 0.45590 0.00400
C 	C 	0.79180 0.79800 0.07330 0.28100
C 	C 	0.32210 0.29410 0.64860 0.00400
C 	C 	0.08470 0.62430 0.09340 -0.12600
C 	C 	0.98350 0.45180 0.51320 0.32800
C 	C 	0.01800 0.98280 0.95280 -0.39800
C 	C 	0.13780 0.81020 0.85120 0.02200
C 	C 	0.05010 0.40960 0.61650 -0.30200
C 	C 	0.67570 0.10510 0.50240 -0.02000
C 	C 	0.93880 0.01400 0.24640 -0.17000
C 	C 	0.04820 0.48680 0.48350 0.32800
C 	C 	0.45180 0.51320 0.98350 0.32800
C 	C 	0.67360 0.17570 0.60150 -0.07600
C 	C 	0.88710 0.86610 0.15530 0.04700
C 	C 	0.91420 0.02790 0.20950 0.01000
C 	C 	0.66170 0.89020 0.44980 0.21500
C 	C 	0.96280 0.79070 0.17530 0.01600
C 	C 	0.07330 0.04470 0.65010 0.41600
C 	C 	0.99760 0.32430 0.60510 -0.02000
C 	C 	0.88390 0.86290 0.59470 0.04700
C 	C 	0.77250 0.37390 0.44620 -0.12100
C 	C 	0.69990 0.13350 0.34040 -0.30200
C 	C 	0.34360 0.38030 0.09890 -0.08300
C 	C 	0.84480 0.06960 0.38010 0.01800
C 	C 	0.23020 0.28550 0.56570 0.09200
C 	C 	0.32470 0.03720 0.29070 0.01800
C 	C 	0.67790 0.79410 0.85140 0.00400
C 	C 	0.29820 0.76650 0.23680 0.32800
C 	C 	0.63780 0.68980 0.14880 0.02200
C 	C 	0.42570 0.75240 0.14490 -0.02000
C 	C 	0.38920 0.47520 0.94090 0.09800
C 	C 	0.39850 0.17360 0.32430 -0.07600
C 	C 	0.38060 0.58000 0.05520 0.25100
C 	C 	0.92670 0.29180 0.70200 0.28100
C 	C 	0.31570 0.53550 0.01980 0.09200
C 	C 	0.52790 0.29050 0.08580 0.01100
C 	C 	0.07470 0.54070 0.21280 0.01700
C 	C 	0.66970 0.97140 0.72490 0.36100
C 	C 	0.86220 0.31020 0.64880 0.02200
C 	C 	0.53720 0.20930 0.67530 0.01700
C 	C 	0.90640 0.84890 0.63030 -0.08300
C 	C 	0.76720 0.73200 0.79720 -0.39800
C 	C 	0.95180 0.98680 0.01650 0.32800
C 	C 	0.27480 0.36080 0.80910 0.09800
C 	C 	0.08410 0.52500 0.70570 0.04200
C 	C 	0.16970 0.52860 0.27510 0.36100
C 	C 	0.59340 0.41530 0.37570 -0.12600
C 	C 	0.34340 0.62570 0.83470 -0.12600
C 	C 	0.75240 0.14490 0.42570 -0.02000
C 	C 	0.05520 0.38060 0.58000 0.25100
C 	C 	0.41530 0.37570 0.59340 -0.12600
C 	C 	0.90530 0.11610 0.36290 0.04700
C 	C 	0.35140 0.82210 0.20590 0.00400
C 	C 	0.89930 0.36630 0.52850 0.01600
C 	C 	0.57430 0.07640 0.14850 -0.07600
C 	C 	0.92570 0.92360 0.64850 -0.07600
C 	C 	0.37430 0.33470 0.15660 -0.12600
C 	C 	0.82330 0.04800 0.45820 0.28100
C 	C 	0.09360 0.34890 0.86970 -0.08300
C 	C 	0.05380 0.22750 0.87390 -0.12100
C 	C 	0.14490 0.42570 0.75240 -0.02000
C 	C 	0.55910 0.61080 0.97520 0.09800
C 	C 	0.65520 0.93040 0.88010 0.01800
C 	C 	0.23600 0.68880 0.49640 -0.17000
C 	C 	0.63030 0.90640 0.84890 -0.08300
C 	C 	0.12430 0.40660 0.91530 -0.12600
C 	C 	0.84990 0.92670 0.54470 0.41600
C 	C 	0.15110 0.13030 0.59360 -0.08300
C 	C 	0.40660 0.91530 0.12430 -0.12600
C 	C 	0.21280 0.07470 0.54070 0.01700
C 	C 	0.81960 0.09480 0.86990 0.01800
C 	C 	0.73280 0.26800 0.29720 -0.39800
C 	C 	0.04180 0.17670 0.54800 0.28100
C 	C 	0.76400 0.18880 0.00360 -0.16900
C 	C 	0.70820 0.20200 0.57330 0.28100
C 	C 	0.36080 0.80910 0.27480 0.09800
C 	C 	0.13350 0.34040 0.69990 -0.30200
C 	C 	0.51650 0.54820 0.01320 0.32800
C 	C 	0.02850 0.60070 0.63370 0.01600
C 	C 	0.45930 0.71280 0.42530 0.01700
C 	C 	0.09340 0.08470 0.62430 -0.12600
C 	C 	0.64860 0.32210 0.29410 0.00400
C 	C 	0.45950 0.22210 0.66420 0.01100
C 	C 	0.10510 0.50240 0.67570 -0.02000
C 	C 	0.11970 0.90110 0.84360 -0.08300
C 	C 	0.67000 0.13060 0.30520 0.25100
C 	C 	0.95280 0.01800 0.98280 -0.39800
C 	C 	0.59470 0.88390 0.86290 0.04700
C 	C 	0.18430 0.46450 0.51980 0.09200
C 	C 	0.02790 0.20950 0.91420 0.01000
C 	C 	0.39490 0.49760 0.17570 -0.02000
C 	C 	0.82640 0.82430 0.10150 -0.07600
C 	C 	0.33580 0.95950 0.27790 0.01200
C 	C 	0.03550 0.48020 0.68430 0.09200
C 	C 	0.13920 0.19090 0.77480 0.09800
C 	C 	0.16530 0.84340 0.87430 -0.12600
C 	C 	0.97750 0.30380 0.37610 -0.12200
C 	C 	0.50360 0.73600 0.81120 -0.17000
C 	C 	0.52250 0.69620 0.87610 -0.12100
C 	C 	0.57330 0.70820 0.20200 0.28100
C 	C 	0.44090 0.11080 0.52480 0.09800
C 	C 	0.36630 0.52850 0.89930 0.01600
C 	C 	0.32430 0.60510 0.99760 -0.02000
C 	C 	0.02480 0.05910 0.88920 0.09800
C 	C 	0.19990 0.36650 0.65960 -0.30200
C 	C 	0.54050 0.72210 0.83580 0.01100
C 	C 	0.88030 0.40110 0.65640 -0.08300
C 	C 	0.97520 0.55910 0.61080 0.09800
C 	C 	0.84040 0.80010 0.86650 -0.30200
C 	C 	0.07640 0.14850 0.57430 -0.07600
C 	C 	0.39930 0.13370 0.47150 0.01600
C 	C 	0.82430 0.89490 0.00240 -0.02000
C 	C 	0.47500 0.20570 0.41590 0.04200
C 	C 	0.92790 0.39860 0.54410 0.00400
C 	C 	0.07210 0.89860 0.95590 0.00400
C 	C 	0.13060 0.30520 0.67000 0.25100
C 	C 	0.66590 0.04430 0.22500 0.04200
C 	C 	0.73200 0.79720 0.76720 -0.39800
C 	C 	0.63060 0.19480 0.33000 0.25100
C 	C 	0.95930 0.78720 0.57470 0.01700
C 	C 	0.05020 0.33830 0.39020 0.21500
C 	C 	0.15660 0.37430 0.33470 -0.12600
C 	C 	0.64930 0.77850 0.88370 0.01600
C 	C 	0.67670 0.95200 0.95820 0.28100
C 	C 	0.49760 0.17570 0.39490 -0.02000
C 	C 	0.36650 0.65960 0.19990 -0.30200
C 	C 	0.93040 0.88010 0.65520 0.01800
C 	C 	0.19980 0.14020 0.58830 0.21500
C 	C 	0.33410 0.54430 0.27500 0.04200
C 	C 	0.08000 0.44480 0.61940 0.25100
C 	C 	0.77850 0.88370 0.64930 0.01600
C 	C 	0.54720 0.98200 0.48280 -0.39800
C 	C 	0.47520 0.94090 0.38920 0.09800
C 	C 	0.45530 0.34990 0.57330 0.41600
C 	C 	0.79070 0.17530 0.96280 0.01600
C 	C 	0.58830 0.19980 0.14020 0.21500
C 	C 	0.59990 0.79470 0.32330 0.41600
C 	C 	0.11290 0.36610 0.34470 0.04700
C 	C 	0.89860 0.95590 0.07210 0.00400
C 	C 	0.26800 0.29720 0.73280 -0.39800
C 	C 	0.63710 0.40530 0.38390 0.04700
C 	C 	0.88010 0.65520 0.93040 0.01800
C 	C 	0.60510 0.99760 0.32430 -0.02000
C 	C 	0.62390 0.47750 0.19620 -0.12100
C 	C 	0.98600 0.74640 0.56120 -0.17000
C 	C 	0.06570 0.26980 0.71450 0.09200
C 	C 	0.85120 0.13780 0.81020 0.02200
C 	C 	0.82330 0.90010 0.20530 0.41600
C 	C 	0.18880 0.00360 0.76400 -0.16900
C 	C 	0.51720 0.04720 0.51800 -0.39800
C 	C 	0.14850 0.57430 0.07640 -0.07600
C 	C 	0.34040 0.69990 0.13350 -0.30200
C 	C 	0.35120 0.36220 0.18980 0.02200
C 	C 	0.62430 0.09340 0.08470 -0.12600
C 	C 	0.04410 0.57210 0.60140 0.00400
C 	C 	0.25360 0.06120 0.51400 -0.17000
C 	C 	0.00240 0.82430 0.89490 -0.02000
C 	C 	0.56020 0.38780 0.39880 0.02200
C 	C 	0.92360 0.64850 0.92570 -0.07600
C 	C 	0.80380 0.12390 0.02250 -0.12100
C 	C 	0.33830 0.39020 0.05020 0.21500
C 	C 	0.40640 0.65110 0.36970 -0.08300
C 	C 	0.44990 0.59040 0.11650 -0.30200
C 	C 	0.90960 0.88350 0.94990 -0.30200
N 	N 	0.97620 0.81310 0.13580 -0.12200
N 	N 	0.74040 0.16760 0.20180 -0.18000
N 	N 	0.58240 0.00960 0.54820 -0.18000
N 	N 	0.40840 0.13960 0.51380 -0.25800
N 	N 	0.81310 0.13580 0.97620 -0.12200
N 	N 	0.52610 0.15690 0.42700 -0.15300
N 	N 	0.70180 0.75960 0.83240 -0.18000
N 	N 	0.86040 0.01380 0.09160 -0.25800
N 	N 	0.45610 0.48870 0.21570 -0.24900
N 	N 	0.04390 0.51130 0.71570 -0.24900
N 	N 	0.76130 0.20610 0.46570 -0.24900
N 	N 	0.28430 0.54390 0.98870 -0.25000
N 	N 	0.00960 0.54820 0.58240 -0.18000
N 	N 	0.17700 0.40690 0.72390 -0.15300
N 	N 	0.84160 0.26380 0.38960 -0.25800
N 	N 	0.72620 0.38580 0.43690 -0.12200
N 	N 	0.75960 0.83240 0.70180 -0.18000
N 	N 	0.73870 0.79390 0.96570 -0.24900
N 	N 	0.92700 0.97390 0.84310 -0.15300
N 	N 	0.65690 0.07300 0.47390 -0.15300
N 	N 	0.04820 0.91760 0.99040 -0.18000
N 	N 	0.50960 0.95180 0.41760 -0.18000
N 	N 	0.40690 0.72390 0.17700 -0.15300
N 	N 	0.90840 0.36040 0.48620 -0.25800
N 	N 	0.65840 0.73620 0.88960 -0.25800
N 	N 	0.61040 0.34160 0.23620 -0.25800
N 	N 	0.29390 0.53430 0.26130 -0.24900
N 	N 	0.77380 0.61420 0.93690 -0.12200
N 	N 	0.96570 0.73870 0.79390 -0.24900
N 	N 	0.27380 0.88580 0.06310 -0.12200
N 	N 	0.72390 0.17700 0.40690 -0.15300
N 	N 	0.47620 0.68690 0.86420 -0.12200
N 	N 	0.98870 0.28430 0.54390 -0.25000
N 	N 	0.26130 0.29390 0.53430 -0.24900
N 	N 	0.95610 0.01130 0.78430 -0.25000
N 	N 	0.27610 0.67700 0.09310 -0.15300
N 	N 	0.56310 0.22620 0.11420 -0.12200
N 	N 	0.84310 0.92700 0.97390 -0.15300
N 	N 	0.54820 0.58240 0.00960 -0.18000
N 	N 	0.36420 0.02380 0.31310 -0.12200
N 	N 	0.13960 0.51380 0.40840 -0.25800
N 	N 	0.99040 0.04820 0.91760 -0.18000
N 	N 	0.02380 0.31310 0.36420 -0.12200
N 	N 	0.09160 0.86040 0.01380 -0.25800
N 	N 	0.08240 0.49040 0.45180 -0.18000
N 	N 	0.79390 0.96570 0.73870 -0.24900
N 	N 	0.78430 0.95610 0.01130 -0.25000
N 	N 	0.33240 0.79820 0.24040 -0.18000
N 	N 	0.01380 0.09160 0.86040 -0.25800
N 	N 	0.01130 0.78430 0.95610 -0.25000
N 	N 	0.51380 0.40840 0.13960 -0.25800
N 	N 	0.63580 0.52380 0.18690 -0.12200
N 	N 	0.59310 0.22390 0.32300 -0.15300
N 	N 	0.48870 0.21570 0.45610 -0.24900
N 	N 	0.34310 0.57300 0.02610 -0.15300
N 	N 	0.53430 0.26130 0.29390 -0.24900
N 	N 	0.29820 0.25960 0.66760 -0.18000
N 	N 	0.88580 0.06310 0.27380 -0.12200
N 	N 	0.06310 0.27380 0.88580 -0.12200
N 	N 	0.26380 0.38960 0.84160 -0.25800
N 	N 	0.77610 0.82300 0.90690 -0.15300
N 	N 	0.38580 0.43690 0.72620 -0.12200
N 	N 	0.23870 0.70610 0.03430 -0.24900
N 	N 	0.83240 0.70180 0.75960 -0.18000
N 	N 	0.61420 0.93690 0.77380 -0.12200
N 	N 	0.20610 0.46570 0.76130 -0.24900
N 	N 	0.23620 0.61040 0.34160 -0.25800
N 	N 	0.11040 0.15840 0.76380 -0.25800
N 	N 	0.82300 0.90690 0.77610 -0.15300
N 	N 	0.67700 0.09310 0.27610 -0.15300
N 	N 	0.49040 0.45180 0.08240 -0.18000
N 	N 	0.63960 0.98620 0.59160 -0.25800
N 	N 	0.73620 0.88960 0.65840 -0.25800
N 	N 	0.36040 0.48620 0.90840 -0.25800
N 	N 	0.70610 0.03430 0.23870 -0.24900
N 	N 	0.31310 0.36420 0.02380 -0.12200
N 	N 	0.03430 0.23870 0.70610 -0.24900
N 	N 	0.24040 0.33240 0.79820 -0.18000
N 	N 	0.68690 0.86420 0.47620 -0.12200
N 	N 	0.32300 0.59310 0.22390 -0.15300
N 	N 	0.95180 0.41760 0.50960 -0.18000
N 	N 	0.93690 0.77380 0.61420 -0.12200
N 	N 	0.48620 0.90840 0.36040 -0.25800
N 	N 	0.18690 0.63580 0.52380 -0.12200
N 	N 	0.38960 0.84160 0.26380 -0.25800
N 	N 	0.76380 0.11040 0.15840 -0.25800
N 	N 	0.13580 0.97620 0.81310 -0.12200
N 	N 	0.54390 0.98870 0.28430 -0.25000
N 	N 	0.45180 0.08240 0.49040 -0.18000
N 	N 	0.11420 0.56310 0.22620 -0.12200
N 	N 	0.15690 0.42700 0.52610 -0.15300
N 	N 	0.15840 0.76380 0.11040 -0.25800
N 	N 	0.86420 0.47620 0.68690 -0.12200
N 	N 	0.46570 0.76130 0.20610 -0.24900
N 	N 	0.71570 0.04390 0.51130 -0.24900
N 	N 	0.20180 0.74040 0.16760 -0.18000
N 	N 	0.98620 0.59160 0.63960 -0.25800
N 	N 	0.07300 0.47390 0.65690 -0.15300
N 	N 	0.02610 0.34310 0.57300 -0.15300
N 	N 	0.91760 0.99040 0.04820 -0.18000
N 	N 	0.57300 0.02610 0.34310 -0.15300
N 	N 	0.79820 0.24040 0.33240 -0.18000
N 	N 	0.51130 0.71570 0.04390 -0.24900
N 	N 	0.34160 0.23620 0.61040 -0.25800
N 	N 	0.21570 0.45610 0.48870 -0.24900
N 	N 	0.09310 0.27610 0.67700 -0.15300
N 	N 	0.25960 0.66760 0.29820 -0.18000
N 	N 	0.22620 0.11420 0.56310 -0.12200
N 	N 	0.66760 0.29820 0.25960 -0.18000
N 	N 	0.16760 0.20180 0.74040 -0.18000
N 	N 	0.42700 0.52610 0.15690 -0.15300
N 	N 	0.43690 0.72620 0.38580 -0.12200
N 	N 	0.88960 0.65840 0.73620 -0.25800
N 	N 	0.52380 0.18690 0.63580 -0.12200
N 	N 	0.22390 0.32300 0.59310 -0.15300
N 	N 	0.59160 0.63960 0.98620 -0.25800
N 	N 	0.41760 0.50960 0.95180 -0.18000
N 	N 	0.97390 0.84310 0.92700 -0.15300
N 	N 	0.47390 0.65690 0.07300 -0.15300
N 	N 	0.90690 0.77610 0.82300 -0.15300
O 	O 	0.68730 0.97720 0.68690 -0.55300
O 	O 	0.06310 0.77280 0.06270 -0.55300
O 	O 	0.10320 0.01620 0.66100 -0.28100
O 	O 	0.30760 0.42200 0.24890 -0.36500
O 	O 	0.24080 0.56550 0.50980 -0.36500
O 	O 	0.46360 0.95380 0.16300 -0.47400
O 	O 	0.46440 0.64050 0.92340 -0.24300
O 	O 	0.53640 0.45380 0.33700 -0.47400
O 	O 	0.93730 0.56310 0.72720 -0.55300
O 	O 	0.82800 0.05760 0.49890 -0.36500
O 	O 	0.51620 0.83900 0.89680 -0.28100
O 	O 	0.81310 0.31270 0.47720 -0.55300
O 	O 	0.55730 0.29740 0.48350 -0.32600
O 	O 	0.73380 0.64680 0.08900 -0.28100
O 	O 	0.58900 0.76620 0.35320 -0.28100
O 	O 	0.99020 0.75920 0.06550 -0.36500
O 	O 	0.50980 0.24080 0.56550 -0.36500
O 	O 	0.03640 0.04620 0.66300 -0.47400
O 	O 	0.26650 0.45260 0.19270 -0.32600
O 	O 	0.07800 0.75110 0.80760 -0.36500
O 	O 	0.48350 0.55730 0.29740 -0.32600
O 	O 	0.74020 0.31550 0.49080 -0.36500
O 	O 	0.64050 0.92340 0.46440 -0.24300
O 	O 	0.04740 0.80730 0.76650 -0.32600
O 	O 	0.29620 0.21360 0.41300 -0.47400
O 	O 	0.89050 0.78560 0.67340 -0.24300
O 	O 	0.17340 0.60950 0.21440 -0.24300
O 	O 	0.01650 0.44270 0.79740 -0.32600
O 	O 	0.47720 0.81310 0.31270 -0.55300
O 	O 	0.80760 0.07800 0.75110 -0.36500
O 	O 	0.04620 0.66300 0.03640 -0.47400
O 	O 	0.92200 0.25110 0.69240 -0.36500
O 	O 	0.43450 0.00980 0.25920 -0.36400
O 	O 	0.08700 0.70380 0.71360 -0.47400
O 	O 	0.54620 0.83700 0.96360 -0.47400
O 	O 	0.60950 0.21440 0.17340 -0.24300
O 	O 	0.03560 0.35950 0.42340 -0.24300
O 	O 	0.19270 0.26650 0.45260 -0.32600
O 	O 	0.28640 0.58700 0.79620 -0.47400
O 	O 	0.95380 0.16300 0.46360 -0.47400
O 	O 	0.35320 0.58900 0.76620 -0.28100
O 	O 	0.44240 0.50110 0.32800 -0.36500
O 	O 	0.32660 0.39050 0.71440 -0.24300
O 	O 	0.33900 0.60320 0.48380 -0.28100
O 	O 	0.71440 0.32660 0.39050 -0.24300
O 	O 	0.21440 0.17340 0.60950 -0.24300
O 	O 	0.70260 0.98350 0.94270 -0.32600
O 	O 	0.96440 0.85950 0.07660 -0.24300
O 	O 	0.74080 0.93450 0.49020 -0.36500
O 	O 	0.00920 0.25980 0.81550 -0.36400
O 	O 	0.79620 0.28640 0.58700 -0.47400
O 	O 	0.39680 0.98380 0.16100 -0.28100
O 	O 	0.14680 0.41100 0.26620 -0.28100
O 	O 	0.75920 0.06550 0.99020 -0.36500
O 	O 	0.25980 0.81550 0.00920 -0.36400
O 	O 	0.53560 0.14050 0.57660 -0.24300
O 	O 	0.50920 0.24020 0.18450 -0.36500
O 	O 	0.80730 0.76650 0.04740 -0.32600
O 	O 	0.97720 0.68690 0.68730 -0.55300
O 	O 	0.67200 0.94240 0.99890 -0.36400
O 	O 	0.43730 0.93690 0.27280 -0.55300
O 	O 	0.45260 0.19270 0.26650 -0.32600
O 	O 	0.70380 0.71360 0.08700 -0.47400
O 	O 	0.56270 0.43690 0.22720 -0.55300
O 	O 	0.85320 0.91100 0.23380 -0.28100
O 	O 	0.66300 0.03640 0.04620 -0.47400
O 	O 	0.20380 0.78640 0.91300 -0.47400
O 	O 	0.42200 0.24890 0.30760 -0.36500
O 	O 	0.93690 0.27280 0.43730 -0.55300
O 	O 	0.75110 0.80760 0.07800 -0.36500
O 	O 	0.00110 0.17200 0.55760 -0.36400
O 	O 	0.28560 0.82660 0.10950 -0.24300
O 	O 	0.78640 0.91300 0.20380 -0.47400
O 	O 	0.49890 0.82800 0.05760 -0.36500
O 	O 	0.82660 0.10950 0.28560 -0.24300
O 	O 	0.93450 0.49020 0.74080 -0.36500
O 	O 	0.35950 0.42340 0.03560 -0.24300
O 	O 	0.14050 0.57660 0.53560 -0.24300
O 	O 	0.17200 0.55760 0.00110 -0.36400
O 	O 	0.72720 0.93730 0.56310 -0.55300
O 	O 	0.27280 0.43730 0.93690 -0.55300
O 	O 	0.16100 0.39680 0.98380 -0.28100
O 	O 	0.98350 0.94270 0.70260 -0.32600
O 	O 	0.94270 0.70260 0.98350 -0.32600
O 	O 	0.32800 0.44240 0.50110 -0.36500
O 	O 	0.05760 0.49890 0.82800 -0.36500
O 	O 	0.66100 0.10320 0.01620 -0.28100
O 	O 	0.21360 0.41300 0.29620 -0.47400
O 	O 	0.91300 0.20380 0.78640 -0.47400
O 	O 	0.18690 0.81270 0.02280 -0.55300
O 	O 	0.51650 0.05730 0.20260 -0.32600
O 	O 	0.60320 0.48380 0.33900 -0.28100
O 	O 	0.76620 0.35320 0.58900 -0.28100
O 	O 	0.94240 0.99890 0.67200 -0.36400
O 	O 	0.57800 0.74890 0.19240 -0.36500
O 	O 	0.52280 0.31310 0.18730 -0.55300
O 	O 	0.77280 0.06270 0.06310 -0.55300
O 	O 	0.29740 0.48350 0.55730 -0.32600
O 	O 	0.31270 0.47720 0.81310 -0.55300
O 	O 	0.43690 0.22720 0.56270 -0.55300
O 	O 	0.74890 0.19240 0.57800 -0.36500
O 	O 	0.31310 0.18730 0.52280 -0.55300
O 	O 	0.75980 0.68450 0.99080 -0.36500
O 	O 	0.55760 0.00110 0.17200 -0.36400
O 	O 	0.10950 0.28560 0.82660 -0.24300
O 	O 	0.41300 0.29620 0.21360 -0.47400
O 	O 	0.78560 0.67340 0.89050 -0.24300
O 	O 	0.01620 0.66100 0.10320 -0.28100
O 	O 	0.25110 0.69240 0.92200 -0.36500
O 	O 	0.98380 0.16100 0.39680 -0.28100
O 	O 	0.73350 0.95260 0.30730 -0.32600
O 	O 	0.71360 0.08700 0.70380 -0.47400
O 	O 	0.06270 0.06310 0.77280 -0.55300
O 	O 	0.79740 0.01650 0.44270 -0.32600
O 	O 	0.18450 0.50920 0.24020 -0.36500
O 	O 	0.89680 0.51620 0.83900 -0.28100
O 	O 	0.22720 0.56270 0.43690 -0.55300
O 	O 	0.39050 0.71440 0.32660 -0.24300
O 	O 	0.69270 0.23350 0.54740 -0.32600
O 	O 	0.24890 0.30760 0.42200 -0.36500
O 	O 	0.68690 0.68730 0.97720 -0.55300
O 	O 	0.67340 0.89050 0.78560 -0.24300
O 	O 	0.50110 0.32800 0.44240 -0.36500
O 	O 	0.57660 0.53560 0.14050 -0.24300
O 	O 	0.49080 0.74020 0.31550 -0.36500
O 	O 	0.20260 0.51650 0.05730 -0.32600
O 	O 	0.08900 0.73380 0.64680 -0.28100
O 	O 	0.96360 0.54620 0.83700 -0.47400
O 	O 	0.44270 0.79740 0.01650 -0.32600
O 	O 	0.49020 0.74080 0.93450 -0.36500
O 	O 	0.05730 0.20260 0.51650 -0.32600
O 	O 	0.83700 0.96360 0.54620 -0.47400
O 	O 	0.06550 0.99020 0.75920 -0.36500
O 	O 	0.00980 0.25920 0.43450 -0.36400
O 	O 	0.33700 0.53640 0.45380 -0.47400
O 	O 	0.64680 0.08900 0.73380 -0.28100
O 	O 	0.42340 0.03560 0.35950 -0.24300
O 	O 	0.81270 0.02280 0.18690 -0.55300
O 	O 	0.02280 0.18690 0.81270 -0.55300
O 	O 	0.18730 0.52280 0.31310 -0.55300
O 	O 	0.58700 0.79620 0.28640 -0.47400
O 	O 	0.56310 0.72720 0.93730 -0.55300
O 	O 	0.23350 0.54740 0.69270 -0.32600
O 	O 	0.85950 0.07660 0.96440 -0.24300
O 	O 	0.91100 0.23380 0.85320 -0.28100
O 	O 	0.68450 0.99080 0.75980 -0.36500
O 	O 	0.69240 0.92200 0.25110 -0.36500
O 	O 	0.99080 0.75980 0.68450 -0.36500
O 	O 	0.16300 0.46360 0.95380 -0.47400
O 	O 	0.24020 0.18450 0.50920 -0.36500
O 	O 	0.41100 0.26620 0.14680 -0.28100
O 	O 	0.19240 0.57800 0.74890 -0.36500
O 	O 	0.81550 0.00920 0.25980 -0.36400
O 	O 	0.76650 0.04740 0.80730 -0.32600
O 	O 	0.99890 0.67200 0.94240 -0.36400
O 	O 	0.26620 0.14680 0.41100 -0.28100
O 	O 	0.56550 0.50980 0.24080 -0.36500
O 	O 	0.92340 0.46440 0.64050 -0.24300
O 	O 	0.25920 0.43450 0.00980 -0.36400
O 	O 	0.07660 0.96440 0.85950 -0.24300
O 	O 	0.95260 0.30730 0.73350 -0.32600
O 	O 	0.83900 0.89680 0.51620 -0.28100
O 	O 	0.31550 0.49080 0.74020 -0.36500
O 	O 	0.48380 0.33900 0.60320 -0.28100
O 	O 	0.30730 0.73350 0.95260 -0.32600
O 	O 	0.54740 0.69270 0.23350 -0.32600
O 	O 	0.45380 0.33700 0.53640 -0.47400
O 	O 	0.23380 0.85320 0.91100 -0.28100
