data_crystal

_cell_length_a 17.20650
_cell_length_b 17.20650
_cell_length_c 17.20650
_cell_angle_alpha 62.56430
_cell_angle_beta  74.35810
_cell_angle_gamma 105.64200

_symmetry_space_group_name_	'P 1'
_symmetry_space_group_name_H-M	'P 1'

loop_
_symmetry_equiv_pos_as_xyz
  x,y,z

loop_
_atom_site_label
_atom_site_type_symbol
_atom_site_fract_x
_atom_site_fract_y
_atom_site_fract_z
_atom_site_charge
Zn	Zn	0.50000 0.68428 0.49438 1.21400
Zn	Zn	0.50000 0.00562 0.81572 1.21300
Zn	Zn	0.82134 0.50562 0.99438 1.21300
Zn	Zn	0.17866 0.18428 0.31572 1.21400
Co	Co	0.86718 0.32175 0.05601 1.17700
Co	Co	0.37776 0.45457 0.67825 1.17500
Co	Co	0.37776 0.82175 0.04543 1.17500
Co	Co	0.13282 0.07681 0.54543 1.17400
Co	Co	0.86718 0.44399 0.17825 1.17500
Co	Co	0.62224 0.57681 0.55601 1.17500
Co	Co	0.62224 0.94399 0.92319 1.17600
Co	Co	0.13282 0.95457 0.42319 1.17600
H 	H 	0.38700 0.17730 0.86150 0.05100
H 	H 	0.29810 0.75740 0.54750 0.04700
H 	H 	0.29810 0.95250 0.74260 0.04800
H 	H 	0.96120 0.25150 0.36150 0.04800
H 	H 	0.70190 0.95930 0.34560 0.04700
H 	H 	0.03880 0.79030 0.82270 0.04900
H 	H 	0.30850 0.34780 0.50430 0.04800
H 	H 	0.03880 0.67730 0.70970 0.04900
H 	H 	0.30490 0.45930 0.24260 0.04700
H 	H 	0.69150 0.18720 0.96070 0.04700
H 	H 	0.96120 0.13850 0.24850 0.05000
H 	H 	0.14790 0.49570 0.81280 0.04900
H 	H 	0.69510 0.65440 0.04750 0.04700
H 	H 	0.85210 0.84780 0.46070 0.05000
H 	H 	0.70190 0.15440 0.54070 0.04600
H 	H 	0.61300 0.75150 0.20970 0.04800
H 	H 	0.85210 0.03930 0.65220 0.04700
H 	H 	0.14790 0.68720 0.00430 0.04900
H 	H 	0.69510 0.45250 0.84560 0.04600
H 	H 	0.30850 0.99570 0.15220 0.05200
H 	H 	0.61300 0.29030 0.74850 0.04800
H 	H 	0.30490 0.25740 0.04070 0.04700
H 	H 	0.69150 0.53930 0.31280 0.04800
H 	H 	0.38700 0.63850 0.32270 0.04800
C 	C 	0.31468 0.60067 0.65719 0.37800
C 	C 	0.91210 0.20870 0.42440 0.03300
C 	C 	0.31630 0.46860 0.28830 0.02900
C 	C 	0.00910 0.13890 0.48700 0.33400
C 	C 	0.23260 0.62230 0.67870 -0.09600
C 	C 	0.36690 0.57560 0.33650 0.03300
C 	C 	0.68532 0.78599 0.47187 0.37800
C 	C 	0.35540 0.07410 0.00310 -0.08800
C 	C 	0.63310 0.29660 0.79130 0.03300
C 	C 	0.64080 0.46980 0.71520 0.29700
C 	C 	0.83100 0.06100 0.28820 -0.07100
C 	C 	0.15240 0.73500 0.94540 0.04400
C 	C 	0.76740 0.88970 0.41130 -0.09500
C 	C 	0.68040 0.58260 0.26500 0.04600
C 	C 	0.84760 0.08260 0.59780 0.04600
C 	C 	0.92280 0.99690 0.35850 -0.09700
C 	C 	0.74214 0.34281 0.97187 0.37200
C 	C 	0.07720 0.57410 0.78130 -0.10200
C 	C 	0.08790 0.79660 0.83650 0.03100
C 	C 	0.81500 0.28480 0.35600 0.29700
C 	C 	0.36690 0.16350 0.92440 0.02100
C 	C 	0.92280 0.14150 0.50310 -0.10500
C 	C 	0.68370 0.65230 0.10460 0.02900
C 	C 	0.08790 0.66350 0.70340 0.03200
C 	C 	0.68040 0.23500 0.91740 0.04600
C 	C 	0.34920 0.23000 0.93900 -0.07100
C 	C 	0.64460 0.21870 0.85850 -0.10500
C 	C 	0.23260 0.82130 0.87770 -0.09500
C 	C 	0.35920 0.32900 0.85600 0.29600
C 	C 	0.31960 0.40220 0.44540 0.04700
C 	C 	0.37410 0.00390 0.98700 0.31900
C 	C 	0.35540 0.49690 0.42590 -0.10400
C 	C 	0.37410 0.51300 0.49610 0.33400
C 	C 	0.25786 0.10067 0.21401 0.37800
C 	C 	0.76740 0.08870 0.61030 -0.09600
C 	C 	0.75690 0.96860 0.34770 0.03000
C 	C 	0.31630 0.21170 0.03140 0.03100
C 	C 	0.81500 0.14400 0.21520 0.29600
C 	C 	0.00910 0.01300 0.36110 0.32700
C 	C 	0.68370 0.39540 0.84770 0.02800
C 	C 	0.99090 0.62980 0.99610 0.32600
C 	C 	0.65080 0.71180 0.11920 -0.07200
C 	C 	0.35920 0.64400 0.17100 0.29700
C 	C 	0.62590 0.12980 0.86110 0.33400
C 	C 	0.69900 0.32130 0.91130 -0.09600
C 	C 	0.25786 0.28599 0.39933 0.37900
C 	C 	0.24310 0.89540 0.78830 0.02800
C 	C 	0.75690 0.15230 0.53140 0.02800
C 	C 	0.30100 0.12230 0.11030 -0.09300
C 	C 	0.64080 0.78480 0.03020 0.29900
C 	C 	0.16900 0.88080 0.77000 -0.07100
C 	C 	0.24310 0.71170 0.60460 0.02800
C 	C 	0.18500 0.82900 0.53020 0.29600
C 	C 	0.84760 0.90220 0.41740 0.04300
C 	C 	0.63310 0.70870 0.20340 0.03400
C 	C 	0.64460 0.64150 0.28130 -0.10400
C 	C 	0.31960 0.05460 0.09780 0.03800
C 	C 	0.68532 0.02813 0.71401 0.37300
C 	C 	0.07720 0.71870 0.92590 -0.09900
C 	C 	0.65080 0.38080 0.78820 -0.07200
C 	C 	0.30100 0.38970 0.37770 -0.09700
C 	C 	0.16900 0.73000 0.61920 -0.07000
C 	C 	0.91210 0.07560 0.29130 0.02800
C 	C 	0.15240 0.55460 0.76500 0.04500
C 	C 	0.18500 0.96980 0.67100 0.30200
C 	C 	0.31468 0.84281 0.89933 0.37800
C 	C 	0.34920 0.56100 0.27000 -0.07100
C 	C 	0.62590 0.63890 0.37020 0.33400
C 	C 	0.83100 0.21180 0.43900 -0.07100
C 	C 	0.69900 0.58870 0.17870 -0.09600
C 	C 	0.99090 0.50390 0.87020 0.33200
C 	C 	0.74214 0.52813 0.15719 0.37900
O 	O 	0.40330 0.60100 0.47550 -0.44300
O 	O 	0.36371 0.39450 0.86279 -0.29900
O 	O 	0.07650 0.10100 0.30230 -0.44200
O 	O 	0.72934 0.50670 0.10190 -0.44200
O 	O 	0.78724 0.49978 0.20530 -0.43600
O 	O 	0.63629 0.53079 0.72650 -0.29800
O 	O 	0.63629 0.77350 0.96921 -0.30000
O 	O 	0.27066 0.16876 0.22264 -0.44300
O 	O 	0.63669 0.57284 0.43863 -0.42300
O 	O 	0.89586 0.36086 0.27660 -0.40700
O 	O 	0.78724 0.29470 0.00022 -0.43100
O 	O 	0.25729 0.03079 0.60550 -0.30300
O 	O 	0.70508 0.99978 0.78746 -0.43200
O 	O 	0.10414 0.82754 0.53500 -0.40700
O 	O 	0.92350 0.52450 0.87880 -0.44400
O 	O 	0.60860 0.77736 0.49330 -0.44300
O 	O 	0.17478 0.06549 0.43451 -0.63600
O 	O 	0.50000 0.56549 0.60929 -0.63500
O 	O 	0.74271 0.13721 0.22650 -0.29800
O 	O 	0.59670 0.12120 0.80230 -0.44500
O 	O 	0.36254 0.32754 0.77660 -0.40800
O 	O 	0.27066 0.27736 0.33124 -0.44400
O 	O 	0.63746 0.46500 0.63914 -0.40800
O 	O 	0.36331 0.92468 0.06385 -0.41700
O 	O 	0.63669 0.06137 0.92716 -0.42700
O 	O 	0.29492 0.79470 0.99254 -0.43600
O 	O 	0.40330 0.02450 0.89900 -0.44200
O 	O 	0.60860 0.00670 0.72264 -0.44400
O 	O 	0.72934 0.39810 0.99330 -0.44400
O 	O 	0.36254 0.72340 0.17246 -0.40800
O 	O 	0.63746 0.86086 0.03500 -0.40700
O 	O 	0.98853 0.56137 0.07532 -0.41800
O 	O 	0.10414 0.96500 0.67246 -0.40700
O 	O 	0.21276 0.21254 0.49254 -0.43700
O 	O 	0.36371 0.63721 0.10550 -0.29800
O 	O 	0.59670 0.69770 0.37880 -0.44300
O 	O 	0.01147 0.93615 0.42716 -0.42000
O 	O 	0.36331 0.43615 0.57532 -0.42300
O 	O 	0.01147 0.07284 0.56385 -0.42400
O 	O 	0.39140 0.66876 0.60190 -0.44300
O 	O 	0.70508 0.71254 0.50022 -0.43700
O 	O 	0.25729 0.89450 0.46921 -0.29700
O 	O 	0.74271 0.27350 0.36279 -0.29900
O 	O 	0.98853 0.42468 0.93863 -0.42600
O 	O 	0.39140 0.89810 0.83124 -0.44200
O 	O 	0.82522 0.39071 0.10929 -0.63400
O 	O 	0.21276 0.00746 0.28746 -0.43800
O 	O 	0.50000 0.89071 0.93451 -0.63400
O 	O 	0.29492 0.50746 0.70530 -0.43700
O 	O 	0.92350 0.62120 0.97550 -0.44300
O 	O 	0.89586 0.22340 0.13914 -0.40600
O 	O 	0.07650 0.19770 0.39900 -0.44400
