data_crystal

_cell_length_a 26.37000
_cell_length_b 26.37000
_cell_length_c 26.37000
_cell_angle_alpha 90.00000
_cell_angle_beta  90.00000
_cell_angle_gamma 90.00000

_symmetry_space_group_name_	'P 1'
_symmetry_space_group_name_H-M	'P 1'

loop_
_symmetry_equiv_pos_as_xyz
  x,y,z

loop_
_atom_site_label
_atom_site_type_symbol
_atom_site_fract_x
_atom_site_fract_y
_atom_site_fract_z
_atom_site_charge
O 	O 	0.81682 0.24368 0.55219 -0.39300
O 	O 	0.81682 0.74368 0.05219 -0.40700
O 	O 	0.31682 0.24368 0.05219 -0.41600
O 	O 	0.31682 0.74368 0.55219 -0.39500
O 	O 	0.18318 0.75632 0.55219 -0.40100
O 	O 	0.18318 0.25632 0.05219 -0.42100
O 	O 	0.68318 0.75632 0.05219 -0.41300
O 	O 	0.68318 0.25632 0.55219 -0.39900
O 	O 	0.18318 0.24368 0.44781 -0.40400
O 	O 	0.18318 0.74368 0.94781 -0.36700
O 	O 	0.68318 0.24368 0.94781 -0.36600
O 	O 	0.68318 0.74368 0.44781 -0.39400
O 	O 	0.81682 0.75632 0.44781 -0.39000
O 	O 	0.81682 0.25632 0.94781 -0.36100
O 	O 	0.31682 0.75632 0.94781 -0.36300
O 	O 	0.31682 0.25632 0.44781 -0.39900
O 	O 	0.55219 0.81682 0.24368 -0.39200
O 	O 	0.55219 0.31682 0.74368 -0.39400
O 	O 	0.05219 0.81682 0.74368 -0.40600
O 	O 	0.05219 0.31682 0.24368 -0.41500
O 	O 	0.55219 0.18318 0.75632 -0.40000
O 	O 	0.55219 0.68318 0.25632 -0.39800
O 	O 	0.05219 0.18318 0.25632 -0.42000
O 	O 	0.05219 0.68318 0.75632 -0.41200
O 	O 	0.44781 0.18318 0.24368 -0.40300
O 	O 	0.44781 0.68318 0.74368 -0.39400
O 	O 	0.94781 0.18318 0.74368 -0.36700
O 	O 	0.94781 0.68318 0.24368 -0.36600
O 	O 	0.44781 0.81682 0.75632 -0.39000
O 	O 	0.44781 0.31682 0.25632 -0.39900
O 	O 	0.94781 0.81682 0.25632 -0.36100
O 	O 	0.94781 0.31682 0.75632 -0.36300
O 	O 	0.24368 0.55219 0.81682 -0.39200
O 	O 	0.24368 0.05219 0.31682 -0.41500
O 	O 	0.74368 0.55219 0.31682 -0.39400
O 	O 	0.74368 0.05219 0.81682 -0.40600
O 	O 	0.75632 0.55219 0.18318 -0.40000
O 	O 	0.75632 0.05219 0.68318 -0.41200
O 	O 	0.25632 0.55219 0.68318 -0.39800
O 	O 	0.25632 0.05219 0.18318 -0.42000
O 	O 	0.24368 0.44781 0.18318 -0.40300
O 	O 	0.24368 0.94781 0.68318 -0.36600
O 	O 	0.74368 0.44781 0.68318 -0.39400
O 	O 	0.74368 0.94781 0.18318 -0.36700
O 	O 	0.75632 0.44781 0.81682 -0.39000
O 	O 	0.75632 0.94781 0.31682 -0.36300
O 	O 	0.25632 0.44781 0.31682 -0.39900
O 	O 	0.25632 0.94781 0.81682 -0.36100
O 	O 	0.24368 0.81682 0.44781 -0.39200
O 	O 	0.24368 0.31682 0.94781 -0.36600
O 	O 	0.74368 0.81682 0.94781 -0.35700
O 	O 	0.74368 0.31682 0.44781 -0.39400
O 	O 	0.75632 0.18318 0.44781 -0.40000
O 	O 	0.75632 0.68318 0.94781 -0.36300
O 	O 	0.25632 0.18318 0.94781 -0.37200
O 	O 	0.25632 0.68318 0.44781 -0.39800
O 	O 	0.24368 0.18318 0.55219 -0.40300
O 	O 	0.24368 0.68318 0.05219 -0.41400
O 	O 	0.74368 0.18318 0.05219 -0.41600
O 	O 	0.74368 0.68318 0.55219 -0.39400
O 	O 	0.75632 0.81682 0.55219 -0.38900
O 	O 	0.75632 0.31682 0.05219 -0.41200
O 	O 	0.25632 0.81682 0.05219 -0.41000
O 	O 	0.25632 0.31682 0.55219 -0.39900
O 	O 	0.81682 0.55219 0.75632 -0.38900
O 	O 	0.81682 0.05219 0.25632 -0.41000
O 	O 	0.31682 0.55219 0.25632 -0.39900
O 	O 	0.31682 0.05219 0.75632 -0.41200
O 	O 	0.18318 0.55219 0.24368 -0.40300
O 	O 	0.18318 0.05219 0.74368 -0.41600
O 	O 	0.68318 0.55219 0.74368 -0.39400
O 	O 	0.68318 0.05219 0.24368 -0.41400
O 	O 	0.18318 0.44781 0.75632 -0.40000
O 	O 	0.18318 0.94781 0.25632 -0.37200
O 	O 	0.68318 0.44781 0.25632 -0.39800
O 	O 	0.68318 0.94781 0.75632 -0.36300
O 	O 	0.81682 0.44781 0.24368 -0.39200
O 	O 	0.81682 0.94781 0.74368 -0.35700
O 	O 	0.31682 0.44781 0.74368 -0.39400
O 	O 	0.31682 0.94781 0.24368 -0.36600
O 	O 	0.55219 0.24368 0.18318 -0.40300
O 	O 	0.55219 0.74368 0.68318 -0.39400
O 	O 	0.05219 0.24368 0.68318 -0.41400
O 	O 	0.05219 0.74368 0.18318 -0.41600
O 	O 	0.55219 0.75632 0.81682 -0.38900
O 	O 	0.55219 0.25632 0.31682 -0.39900
O 	O 	0.05219 0.75632 0.31682 -0.41200
O 	O 	0.05219 0.25632 0.81682 -0.41000
O 	O 	0.44781 0.24368 0.81682 -0.39200
O 	O 	0.44781 0.74368 0.31682 -0.39400
O 	O 	0.94781 0.24368 0.31682 -0.36600
O 	O 	0.94781 0.74368 0.81682 -0.35700
O 	O 	0.44781 0.75632 0.18318 -0.40000
O 	O 	0.44781 0.25632 0.68318 -0.39800
O 	O 	0.94781 0.75632 0.68318 -0.36300
O 	O 	0.94781 0.25632 0.18318 -0.37200
O 	O 	0.18318 0.75632 0.44781 -0.40000
O 	O 	0.18318 0.25632 0.94781 -0.37200
O 	O 	0.68318 0.75632 0.94781 -0.36300
O 	O 	0.68318 0.25632 0.44781 -0.39800
O 	O 	0.81682 0.24368 0.44781 -0.39200
O 	O 	0.81682 0.74368 0.94781 -0.35700
O 	O 	0.31682 0.24368 0.94781 -0.36600
O 	O 	0.31682 0.74368 0.44781 -0.39400
O 	O 	0.81682 0.75632 0.55219 -0.38900
O 	O 	0.81682 0.25632 0.05219 -0.41000
O 	O 	0.31682 0.75632 0.05219 -0.41200
O 	O 	0.31682 0.25632 0.55219 -0.39900
O 	O 	0.18318 0.24368 0.55219 -0.40300
O 	O 	0.18318 0.74368 0.05219 -0.41600
O 	O 	0.68318 0.24368 0.05219 -0.41400
O 	O 	0.68318 0.74368 0.55219 -0.39400
O 	O 	0.44781 0.18318 0.75632 -0.40000
O 	O 	0.44781 0.68318 0.25632 -0.39800
O 	O 	0.94781 0.18318 0.25632 -0.37200
O 	O 	0.94781 0.68318 0.75632 -0.36300
O 	O 	0.44781 0.81682 0.24368 -0.39200
O 	O 	0.44781 0.31682 0.74368 -0.39400
O 	O 	0.94781 0.81682 0.74368 -0.35700
O 	O 	0.94781 0.31682 0.24368 -0.36600
O 	O 	0.55219 0.81682 0.75632 -0.38900
O 	O 	0.55219 0.31682 0.25632 -0.39900
O 	O 	0.05219 0.81682 0.25632 -0.41000
O 	O 	0.05219 0.31682 0.75632 -0.41200
O 	O 	0.55219 0.18318 0.24368 -0.40300
O 	O 	0.55219 0.68318 0.74368 -0.39400
O 	O 	0.05219 0.18318 0.74368 -0.41600
O 	O 	0.05219 0.68318 0.24368 -0.41400
O 	O 	0.75632 0.44781 0.18318 -0.40000
O 	O 	0.75632 0.94781 0.68318 -0.36300
O 	O 	0.25632 0.44781 0.68318 -0.39800
O 	O 	0.25632 0.94781 0.18318 -0.37200
O 	O 	0.24368 0.44781 0.81682 -0.39200
O 	O 	0.24368 0.94781 0.31682 -0.36600
O 	O 	0.74368 0.44781 0.31682 -0.39400
O 	O 	0.74368 0.94781 0.81682 -0.35700
O 	O 	0.75632 0.55219 0.81682 -0.38900
O 	O 	0.75632 0.05219 0.31682 -0.41200
O 	O 	0.25632 0.55219 0.31682 -0.39900
O 	O 	0.25632 0.05219 0.81682 -0.41000
O 	O 	0.24368 0.55219 0.18318 -0.40300
O 	O 	0.24368 0.05219 0.68318 -0.41400
O 	O 	0.74368 0.55219 0.68318 -0.39400
O 	O 	0.74368 0.05219 0.18318 -0.41600
O 	O 	0.75632 0.18318 0.55219 -0.40000
O 	O 	0.75632 0.68318 0.05219 -0.41200
O 	O 	0.25632 0.18318 0.05219 -0.42000
O 	O 	0.25632 0.68318 0.55219 -0.39800
O 	O 	0.24368 0.81682 0.55219 -0.39200
O 	O 	0.24368 0.31682 0.05219 -0.41500
O 	O 	0.74368 0.81682 0.05219 -0.40600
O 	O 	0.74368 0.31682 0.55219 -0.39400
O 	O 	0.75632 0.81682 0.44781 -0.39000
O 	O 	0.75632 0.31682 0.94781 -0.36300
O 	O 	0.25632 0.81682 0.94781 -0.36100
O 	O 	0.25632 0.31682 0.44781 -0.39900
O 	O 	0.24368 0.18318 0.44781 -0.40300
O 	O 	0.24368 0.68318 0.94781 -0.36600
O 	O 	0.74368 0.18318 0.94781 -0.36700
O 	O 	0.74368 0.68318 0.44781 -0.39400
O 	O 	0.18318 0.44781 0.24368 -0.40300
O 	O 	0.18318 0.94781 0.74368 -0.36700
O 	O 	0.68318 0.44781 0.74368 -0.39400
O 	O 	0.68318 0.94781 0.24368 -0.36600
O 	O 	0.81682 0.44781 0.75632 -0.39000
O 	O 	0.81682 0.94781 0.25632 -0.36100
O 	O 	0.31682 0.44781 0.25632 -0.39900
O 	O 	0.31682 0.94781 0.75632 -0.36300
O 	O 	0.81682 0.55219 0.24368 -0.39200
O 	O 	0.81682 0.05219 0.74368 -0.40600
O 	O 	0.31682 0.55219 0.74368 -0.39400
O 	O 	0.31682 0.05219 0.24368 -0.41500
O 	O 	0.18318 0.55219 0.75632 -0.40000
O 	O 	0.18318 0.05219 0.25632 -0.42000
O 	O 	0.68318 0.55219 0.25632 -0.39800
O 	O 	0.68318 0.05219 0.75632 -0.41200
O 	O 	0.44781 0.75632 0.81682 -0.39000
O 	O 	0.44781 0.25632 0.31682 -0.39900
O 	O 	0.94781 0.75632 0.31682 -0.36300
O 	O 	0.94781 0.25632 0.81682 -0.36100
O 	O 	0.44781 0.24368 0.18318 -0.40300
O 	O 	0.44781 0.74368 0.68318 -0.39400
O 	O 	0.94781 0.24368 0.68318 -0.36600
O 	O 	0.94781 0.74368 0.18318 -0.36700
O 	O 	0.55219 0.75632 0.18318 -0.40000
O 	O 	0.55219 0.25632 0.68318 -0.39800
O 	O 	0.05219 0.75632 0.68318 -0.41200
O 	O 	0.05219 0.25632 0.18318 -0.42000
O 	O 	0.55219 0.24368 0.81682 -0.39200
O 	O 	0.55219 0.74368 0.31682 -0.39400
O 	O 	0.05219 0.24368 0.31682 -0.41500
O 	O 	0.05219 0.74368 0.81682 -0.40600
Cu	Cu	0.78505 0.28505 0.50000 0.90800
Cu	Cu	0.78505 0.78505 -0.00000 0.88100
Cu	Cu	0.21495 0.71495 0.50000 0.90500
Cu	Cu	0.21495 0.21495 -0.00000 0.87400
Cu	Cu	0.21495 0.28505 0.50000 0.90500
Cu	Cu	0.21495 0.78505 -0.00000 0.87800
Cu	Cu	0.78505 0.71495 0.50000 0.90800
Cu	Cu	0.78505 0.21495 -0.00000 0.87800
Cu	Cu	0.50000 0.78505 0.28505 0.90800
Cu	Cu	0.00000 0.78505 0.78505 0.88100
Cu	Cu	0.50000 0.21495 0.71495 0.90500
Cu	Cu	0.00000 0.21495 0.21495 0.87400
Cu	Cu	0.50000 0.21495 0.28505 0.90500
Cu	Cu	0.00000 0.21495 0.78505 0.87800
Cu	Cu	0.50000 0.78505 0.71495 0.90800
Cu	Cu	0.00000 0.78505 0.21495 0.87800
Cu	Cu	0.28505 0.50000 0.78505 0.90800
Cu	Cu	0.28505 0.00000 0.28505 0.87700
Cu	Cu	0.71495 0.50000 0.21495 0.90500
Cu	Cu	0.71495 0.00000 0.71495 0.87700
Cu	Cu	0.28505 0.50000 0.21495 0.90500
Cu	Cu	0.28505 0.00000 0.71495 0.87700
Cu	Cu	0.71495 0.50000 0.78505 0.90800
Cu	Cu	0.71495 0.00000 0.28505 0.87700
Cu	Cu	0.28505 0.78505 0.50000 0.90800
Cu	Cu	0.28505 0.28505 -0.00000 0.87700
Cu	Cu	0.71495 0.21495 0.50000 0.90500
Cu	Cu	0.71495 0.71495 -0.00000 0.87700
Cu	Cu	0.28505 0.21495 0.50000 0.90500
Cu	Cu	0.28505 0.71495 -0.00000 0.87700
Cu	Cu	0.71495 0.78505 0.50000 0.90800
Cu	Cu	0.71495 0.28505 -0.00000 0.87700
Cu	Cu	0.78505 0.50000 0.71495 0.90800
Cu	Cu	0.78505 0.00000 0.21495 0.87800
Cu	Cu	0.21495 0.50000 0.28505 0.90500
Cu	Cu	0.21495 0.00000 0.78505 0.87800
Cu	Cu	0.21495 0.50000 0.71495 0.90500
Cu	Cu	0.21495 0.00000 0.21495 0.87400
Cu	Cu	0.78505 0.50000 0.28505 0.90800
Cu	Cu	0.78505 0.00000 0.78505 0.88100
Cu	Cu	0.50000 0.28505 0.21495 0.90500
Cu	Cu	0.00000 0.28505 0.71495 0.87700
Cu	Cu	0.50000 0.71495 0.78505 0.90800
Cu	Cu	0.00000 0.71495 0.28505 0.87700
Cu	Cu	0.50000 0.28505 0.78505 0.90800
Cu	Cu	-0.00000 0.28505 0.28505 0.87700
Cu	Cu	0.50000 0.71495 0.21495 0.90500
Cu	Cu	0.00000 0.71495 0.71495 0.87700
C 	C 	0.79660 0.20340 0.57000 0.34600
C 	C 	0.82270 0.17730 0.61340 -0.10900
C 	C 	0.79660 0.70340 0.07000 0.34600
C 	C 	0.82270 0.67730 0.11340 -0.11300
C 	C 	0.29660 0.20340 0.07000 0.34900
C 	C 	0.32270 0.17730 0.11340 -0.12800
C 	C 	0.29660 0.70340 0.57000 0.34600
C 	C 	0.32270 0.67730 0.61340 -0.11000
C 	C 	0.20340 0.79660 0.57000 0.34600
C 	C 	0.17730 0.82270 0.61340 -0.10900
C 	C 	0.20340 0.29660 0.07000 0.34900
C 	C 	0.17730 0.32270 0.11340 -0.12800
C 	C 	0.70340 0.79660 0.07000 0.34600
C 	C 	0.67730 0.82270 0.11340 -0.11300
C 	C 	0.70340 0.29660 0.57000 0.34600
C 	C 	0.67730 0.32270 0.61340 -0.11000
C 	C 	0.20340 0.20340 0.43000 0.34900
C 	C 	0.17730 0.17730 0.38660 -0.12300
C 	C 	0.20340 0.70340 0.93000 0.34000
C 	C 	0.17730 0.67730 0.88660 -0.10300
C 	C 	0.70340 0.20340 0.93000 0.34000
C 	C 	0.67730 0.17730 0.88660 -0.10300
C 	C 	0.70340 0.70340 0.43000 0.34500
C 	C 	0.67730 0.67730 0.38660 -0.10900
C 	C 	0.79660 0.79660 0.43000 0.34400
C 	C 	0.82270 0.82270 0.38660 -0.09700
C 	C 	0.79660 0.29660 0.93000 0.34000
C 	C 	0.82270 0.32270 0.88660 -0.09200
C 	C 	0.29660 0.79660 0.93000 0.34000
C 	C 	0.32270 0.82270 0.88660 -0.09200
C 	C 	0.29660 0.29660 0.43000 0.34800
C 	C 	0.32270 0.32270 0.38660 -0.11400
C 	C 	0.57000 0.79660 0.20340 0.34600
C 	C 	0.61340 0.82270 0.17730 -0.10900
C 	C 	0.57000 0.29660 0.70340 0.34600
C 	C 	0.61340 0.32270 0.67730 -0.11000
C 	C 	0.07000 0.79660 0.70340 0.34600
C 	C 	0.11340 0.82270 0.67730 -0.11300
C 	C 	0.07000 0.29660 0.20340 0.34900
C 	C 	0.11340 0.32270 0.17730 -0.12800
C 	C 	0.57000 0.20340 0.79660 0.34600
C 	C 	0.61340 0.17730 0.82270 -0.10900
C 	C 	0.57000 0.70340 0.29660 0.34600
C 	C 	0.61340 0.67730 0.32270 -0.11000
C 	C 	0.07000 0.20340 0.29660 0.34900
C 	C 	0.11340 0.17730 0.32270 -0.12800
C 	C 	0.07000 0.70340 0.79660 0.34600
C 	C 	0.11340 0.67730 0.82270 -0.11300
C 	C 	0.43000 0.20340 0.20340 0.34900
C 	C 	0.38660 0.17730 0.17730 -0.12300
C 	C 	0.43000 0.70340 0.70340 0.34500
C 	C 	0.38660 0.67730 0.67730 -0.10900
C 	C 	0.93000 0.20340 0.70340 0.34000
C 	C 	0.88660 0.17730 0.67730 -0.10300
C 	C 	0.93000 0.70340 0.20340 0.34000
C 	C 	0.88660 0.67730 0.17730 -0.10300
C 	C 	0.43000 0.79660 0.79660 0.34400
C 	C 	0.38660 0.82270 0.82270 -0.09700
C 	C 	0.43000 0.29660 0.29660 0.34800
C 	C 	0.38660 0.32270 0.32270 -0.11400
C 	C 	0.93000 0.79660 0.29660 0.34000
C 	C 	0.88660 0.82270 0.32270 -0.09200
C 	C 	0.93000 0.29660 0.79660 0.34000
C 	C 	0.88660 0.32270 0.82270 -0.09200
C 	C 	0.20340 0.57000 0.79660 0.34600
C 	C 	0.17730 0.61340 0.82270 -0.10900
C 	C 	0.20340 0.07000 0.29660 0.34900
C 	C 	0.17730 0.11340 0.32270 -0.12800
C 	C 	0.70340 0.57000 0.29660 0.34600
C 	C 	0.67730 0.61340 0.32270 -0.11000
C 	C 	0.70340 0.07000 0.79660 0.34600
C 	C 	0.67730 0.11340 0.82270 -0.11300
C 	C 	0.79660 0.57000 0.20340 0.34600
C 	C 	0.82270 0.61340 0.17730 -0.10900
C 	C 	0.79660 0.07000 0.70340 0.34600
C 	C 	0.82270 0.11340 0.67730 -0.11300
C 	C 	0.29660 0.57000 0.70340 0.34600
C 	C 	0.32270 0.61340 0.67730 -0.11000
C 	C 	0.29660 0.07000 0.20340 0.34900
C 	C 	0.32270 0.11340 0.17730 -0.12800
C 	C 	0.20340 0.43000 0.20340 0.34900
C 	C 	0.17730 0.38660 0.17730 -0.12300
C 	C 	0.20340 0.93000 0.70340 0.34000
C 	C 	0.17730 0.88660 0.67730 -0.10300
C 	C 	0.70340 0.43000 0.70340 0.34500
C 	C 	0.67730 0.38660 0.67730 -0.10900
C 	C 	0.70340 0.93000 0.20340 0.34000
C 	C 	0.67730 0.88660 0.17730 -0.10300
C 	C 	0.79660 0.43000 0.79660 0.34400
C 	C 	0.82270 0.38660 0.82270 -0.09700
C 	C 	0.79660 0.93000 0.29660 0.34000
C 	C 	0.82270 0.88660 0.32270 -0.09200
C 	C 	0.29660 0.43000 0.29660 0.34800
C 	C 	0.32270 0.38660 0.32270 -0.11400
C 	C 	0.29660 0.93000 0.79660 0.34000
C 	C 	0.32270 0.88660 0.82270 -0.09200
C 	C 	0.20340 0.79660 0.43000 0.34600
C 	C 	0.17730 0.82270 0.38660 -0.11000
C 	C 	0.20340 0.29660 0.93000 0.34200
C 	C 	0.17730 0.32270 0.88660 -0.10500
C 	C 	0.70340 0.79660 0.93000 0.33800
C 	C 	0.67730 0.82270 0.88660 -0.08900
C 	C 	0.70340 0.29660 0.43000 0.34700
C 	C 	0.67730 0.32270 0.38660 -0.11100
C 	C 	0.79660 0.20340 0.43000 0.34600
C 	C 	0.82270 0.17730 0.38660 -0.11000
C 	C 	0.79660 0.70340 0.93000 0.33800
C 	C 	0.82270 0.67730 0.88660 -0.08900
C 	C 	0.29660 0.20340 0.93000 0.34200
C 	C 	0.32270 0.17730 0.88660 -0.10500
C 	C 	0.29660 0.70340 0.43000 0.34700
C 	C 	0.32270 0.67730 0.38660 -0.11100
C 	C 	0.20340 0.20340 0.57000 0.34800
C 	C 	0.17730 0.17730 0.61340 -0.12200
C 	C 	0.20340 0.70340 0.07000 0.34800
C 	C 	0.17730 0.67730 0.11340 -0.12600
C 	C 	0.70340 0.20340 0.07000 0.34800
C 	C 	0.67730 0.17730 0.11340 -0.12600
C 	C 	0.70340 0.70340 0.57000 0.34500
C 	C 	0.67730 0.67730 0.61340 -0.10800
C 	C 	0.79660 0.79660 0.57000 0.34400
C 	C 	0.82270 0.82270 0.61340 -0.09600
C 	C 	0.79660 0.29660 0.07000 0.34700
C 	C 	0.82270 0.32270 0.11340 -0.11500
C 	C 	0.29660 0.79660 0.07000 0.34700
C 	C 	0.32270 0.82270 0.11340 -0.11500
C 	C 	0.29660 0.29660 0.57000 0.34800
C 	C 	0.32270 0.32270 0.61340 -0.11300
C 	C 	0.79660 0.57000 0.79660 0.34400
C 	C 	0.82270 0.61340 0.82270 -0.09600
C 	C 	0.79660 0.07000 0.29660 0.34700
C 	C 	0.82270 0.11340 0.32270 -0.11500
C 	C 	0.29660 0.57000 0.29660 0.34800
C 	C 	0.32270 0.61340 0.32270 -0.11300
C 	C 	0.29660 0.07000 0.79660 0.34700
C 	C 	0.32270 0.11340 0.82270 -0.11500
C 	C 	0.20340 0.57000 0.20340 0.34800
C 	C 	0.17730 0.61340 0.17730 -0.12200
C 	C 	0.20340 0.07000 0.70340 0.34800
C 	C 	0.17730 0.11340 0.67730 -0.12600
C 	C 	0.70340 0.57000 0.70340 0.34500
C 	C 	0.67730 0.61340 0.67730 -0.10800
C 	C 	0.70340 0.07000 0.20340 0.34800
C 	C 	0.67730 0.11340 0.17730 -0.12600
C 	C 	0.20340 0.43000 0.79660 0.34600
C 	C 	0.17730 0.38660 0.82270 -0.11000
C 	C 	0.20340 0.93000 0.29660 0.34200
C 	C 	0.17730 0.88660 0.32270 -0.10500
C 	C 	0.70340 0.43000 0.29660 0.34700
C 	C 	0.67730 0.38660 0.32270 -0.11100
C 	C 	0.70340 0.93000 0.79660 0.33800
C 	C 	0.67730 0.88660 0.82270 -0.08900
C 	C 	0.79660 0.43000 0.20340 0.34600
C 	C 	0.82270 0.38660 0.17730 -0.11000
C 	C 	0.79660 0.93000 0.70340 0.33800
C 	C 	0.82270 0.88660 0.67730 -0.08900
C 	C 	0.29660 0.43000 0.70340 0.34700
C 	C 	0.32270 0.38660 0.67730 -0.11100
C 	C 	0.29660 0.93000 0.20340 0.34200
C 	C 	0.32270 0.88660 0.17730 -0.10500
C 	C 	0.57000 0.20340 0.20340 0.34800
C 	C 	0.61340 0.17730 0.17730 -0.12200
C 	C 	0.57000 0.70340 0.70340 0.34500
C 	C 	0.61340 0.67730 0.67730 -0.10800
C 	C 	0.07000 0.20340 0.70340 0.34800
C 	C 	0.11340 0.17730 0.67730 -0.12600
C 	C 	0.07000 0.70340 0.20340 0.34800
C 	C 	0.11340 0.67730 0.17730 -0.12600
C 	C 	0.57000 0.79660 0.79660 0.34400
C 	C 	0.61340 0.82270 0.82270 -0.09600
C 	C 	0.57000 0.29660 0.29660 0.34800
C 	C 	0.61340 0.32270 0.32270 -0.11300
C 	C 	0.07000 0.79660 0.29660 0.34700
C 	C 	0.11340 0.82270 0.32270 -0.11500
C 	C 	0.07000 0.29660 0.79660 0.34700
C 	C 	0.11340 0.32270 0.82270 -0.11500
C 	C 	0.43000 0.20340 0.79660 0.34600
C 	C 	0.38660 0.17730 0.82270 -0.11000
C 	C 	0.43000 0.70340 0.29660 0.34700
C 	C 	0.38660 0.67730 0.32270 -0.11100
C 	C 	0.93000 0.20340 0.29660 0.34200
C 	C 	0.88660 0.17730 0.32270 -0.10500
C 	C 	0.93000 0.70340 0.79660 0.33800
C 	C 	0.88660 0.67730 0.82270 -0.08900
C 	C 	0.43000 0.79660 0.20340 0.34600
C 	C 	0.38660 0.82270 0.17730 -0.11000
C 	C 	0.43000 0.29660 0.70340 0.34700
C 	C 	0.38660 0.32270 0.67730 -0.11100
C 	C 	0.93000 0.79660 0.70340 0.33800
C 	C 	0.88660 0.82270 0.67730 -0.08900
C 	C 	0.93000 0.29660 0.20340 0.34200
C 	C 	0.88660 0.32270 0.17730 -0.10500
C 	C 	0.80130 0.13460 0.63460 0.05800
H 	H 	0.77020 0.12070 0.62070 0.04000
C 	C 	0.30130 0.13460 0.13460 0.06600
H 	H 	0.27020 0.12070 0.12070 0.03000
C 	C 	0.30130 0.63460 0.63460 0.05900
H 	H 	0.27020 0.62070 0.62070 0.04300
C 	C 	0.19870 0.86540 0.63460 0.05600
H 	H 	0.22980 0.87930 0.62070 0.05100
C 	C 	0.69870 0.86540 0.13460 0.05700
H 	H 	0.72980 0.87930 0.12070 0.04800
C 	C 	0.19870 0.13460 0.36540 0.06500
H 	H 	0.22980 0.12070 0.37930 0.03600
C 	C 	0.19870 0.63460 0.86540 0.05600
H 	H 	0.22980 0.62070 0.87930 0.05100
C 	C 	0.69870 0.13460 0.86540 0.05700
H 	H 	0.72980 0.12070 0.87930 0.04800
C 	C 	0.80130 0.86540 0.36540 0.05200
H 	H 	0.77020 0.87930 0.37930 0.05400
C 	C 	0.30130 0.86540 0.86540 0.05100
H 	H 	0.27020 0.87930 0.87930 0.05800
C 	C 	0.63460 0.80130 0.13460 0.05800
H 	H 	0.62070 0.77020 0.12070 0.04000
C 	C 	0.63460 0.30130 0.63460 0.05900
H 	H 	0.62070 0.27020 0.62070 0.04300
C 	C 	0.63460 0.19870 0.86540 0.05600
H 	H 	0.62070 0.22980 0.87930 0.05100
C 	C 	0.63460 0.69870 0.36540 0.05800
H 	H 	0.62070 0.72980 0.37930 0.04700
C 	C 	0.36540 0.19870 0.13460 0.06500
H 	H 	0.37930 0.22980 0.12070 0.03600
C 	C 	0.36540 0.69870 0.63460 0.05800
H 	H 	0.37930 0.72980 0.62070 0.04700
C 	C 	0.86540 0.19870 0.63460 0.05600
H 	H 	0.87930 0.22980 0.62070 0.05100
C 	C 	0.36540 0.80130 0.86540 0.05200
H 	H 	0.37930 0.77020 0.87930 0.05400
C 	C 	0.36540 0.30130 0.36540 0.06200
H 	H 	0.37930 0.27020 0.37930 0.04200
C 	C 	0.86540 0.30130 0.86540 0.05100
H 	H 	0.87930 0.27020 0.87930 0.05800
C 	C 	0.13460 0.63460 0.80130 0.05800
H 	H 	0.12070 0.62070 0.77020 0.04000
C 	C 	0.13460 0.13460 0.30130 0.06600
H 	H 	0.12070 0.12070 0.27020 0.03000
C 	C 	0.63460 0.63460 0.30130 0.05900
H 	H 	0.62070 0.62070 0.27020 0.04300
C 	C 	0.86540 0.63460 0.19870 0.05600
H 	H 	0.87930 0.62070 0.22980 0.05100
C 	C 	0.86540 0.13460 0.69870 0.05700
H 	H 	0.87930 0.12070 0.72980 0.04800
C 	C 	0.13460 0.36540 0.19870 0.06500
H 	H 	0.12070 0.37930 0.22980 0.03600
C 	C 	0.13460 0.86540 0.69870 0.05700
H 	H 	0.12070 0.87930 0.72980 0.04800
C 	C 	0.63460 0.86540 0.19870 0.05600
H 	H 	0.62070 0.87930 0.22980 0.05100
C 	C 	0.86540 0.36540 0.80130 0.05200
H 	H 	0.87930 0.37930 0.77020 0.05400
C 	C 	0.86540 0.86540 0.30130 0.05100
H 	H 	0.87930 0.87930 0.27020 0.05800
C 	C 	0.13460 0.80130 0.36540 0.06000
H 	H 	0.12070 0.77020 0.37930 0.04000
C 	C 	0.13460 0.30130 0.86540 0.05900
H 	H 	0.12070 0.27020 0.87930 0.04400
C 	C 	0.63460 0.80130 0.86540 0.05100
H 	H 	0.62070 0.77020 0.87930 0.05500
C 	C 	0.86540 0.19870 0.36540 0.05800
H 	H 	0.87930 0.22980 0.37930 0.05000
C 	C 	0.86540 0.69870 0.86540 0.04900
H 	H 	0.87930 0.72980 0.87930 0.06200
C 	C 	0.13460 0.19870 0.63460 0.06400
H 	H 	0.12070 0.22980 0.62070 0.03600
C 	C 	0.13460 0.69870 0.13460 0.06400
H 	H 	0.12070 0.72980 0.12070 0.03300
C 	C 	0.63460 0.69870 0.63460 0.05700
H 	H 	0.62070 0.72980 0.62070 0.04700
C 	C 	0.86540 0.80130 0.63460 0.05100
H 	H 	0.87930 0.77020 0.62070 0.05500
C 	C 	0.86540 0.30130 0.13460 0.05900
H 	H 	0.87930 0.27020 0.12070 0.04400
C 	C 	0.80130 0.63460 0.86540 0.05100
H 	H 	0.77020 0.62070 0.87930 0.05500
C 	C 	0.30130 0.63460 0.36540 0.06000
H 	H 	0.27020 0.62070 0.37930 0.04300
C 	C 	0.19870 0.63460 0.13460 0.06400
H 	H 	0.22980 0.62070 0.12070 0.03600
C 	C 	0.69870 0.63460 0.63460 0.05700
H 	H 	0.72980 0.62070 0.62070 0.04700
C 	C 	0.19870 0.36540 0.86540 0.05800
H 	H 	0.22980 0.37930 0.87930 0.05000
C 	C 	0.69870 0.36540 0.36540 0.06000
H 	H 	0.72980 0.37930 0.37930 0.04600
C 	C 	0.69870 0.86540 0.86540 0.04900
H 	H 	0.72980 0.87930 0.87930 0.06200
C 	C 	0.80130 0.36540 0.13460 0.06000
H 	H 	0.77020 0.37930 0.12070 0.04000
C 	C 	0.80130 0.86540 0.63460 0.05100
H 	H 	0.77020 0.87930 0.62070 0.05500
C 	C 	0.30130 0.36540 0.63460 0.06000
H 	H 	0.27020 0.37930 0.62070 0.04300
C 	C 	0.63460 0.13460 0.19870 0.06400
H 	H 	0.62070 0.12070 0.22980 0.03600
C 	C 	0.63460 0.63460 0.69870 0.05700
H 	H 	0.62070 0.62070 0.72980 0.04700
C 	C 	0.63460 0.86540 0.80130 0.05100
H 	H 	0.62070 0.87930 0.77020 0.05500
C 	C 	0.63460 0.36540 0.30130 0.06000
H 	H 	0.62070 0.37930 0.27020 0.04300
C 	C 	0.36540 0.13460 0.80130 0.06000
H 	H 	0.37930 0.12070 0.77020 0.04000
C 	C 	0.36540 0.63460 0.30130 0.06000
H 	H 	0.37930 0.62070 0.27020 0.04300
C 	C 	0.86540 0.63460 0.80130 0.05100
H 	H 	0.87930 0.62070 0.77020 0.05500
C 	C 	0.36540 0.86540 0.19870 0.05800
H 	H 	0.37930 0.87930 0.22980 0.05000
C 	C 	0.36540 0.36540 0.69870 0.06000
H 	H 	0.37930 0.37930 0.72980 0.04600
C 	C 	0.86540 0.86540 0.69870 0.04900
H 	H 	0.87930 0.87930 0.72980 0.06200
C 	C 	0.19870 0.86540 0.36540 0.05800
H 	H 	0.22980 0.87930 0.37930 0.05000
C 	C 	0.80130 0.13460 0.36540 0.06000
H 	H 	0.77020 0.12070 0.37930 0.04000
C 	C 	0.30130 0.13460 0.86540 0.05900
H 	H 	0.27020 0.12070 0.87930 0.04400
C 	C 	0.30130 0.86540 0.13460 0.05900
H 	H 	0.27020 0.87930 0.12070 0.04400
C 	C 	0.19870 0.13460 0.63460 0.06400
H 	H 	0.22980 0.12070 0.62070 0.03600
C 	C 	0.69870 0.13460 0.13460 0.06400
H 	H 	0.72980 0.12070 0.12070 0.03300
C 	C 	0.36540 0.19870 0.86540 0.05800
H 	H 	0.37930 0.22980 0.87930 0.05000
C 	C 	0.36540 0.69870 0.36540 0.06000
H 	H 	0.37930 0.72980 0.37930 0.04600
C 	C 	0.36540 0.80130 0.13460 0.06000
H 	H 	0.37930 0.77020 0.12070 0.04000
C 	C 	0.36540 0.30130 0.63460 0.06000
H 	H 	0.37930 0.27020 0.62070 0.04300
C 	C 	0.63460 0.30130 0.36540 0.06000
H 	H 	0.62070 0.27020 0.37930 0.04300
C 	C 	0.63460 0.19870 0.13460 0.06400
H 	H 	0.62070 0.22980 0.12070 0.03600
C 	C 	0.86540 0.36540 0.19870 0.05800
H 	H 	0.87930 0.37930 0.22980 0.05000
C 	C 	0.13460 0.36540 0.80130 0.06000
H 	H 	0.12070 0.37930 0.77020 0.04000
C 	C 	0.13460 0.86540 0.30130 0.05900
H 	H 	0.12070 0.87930 0.27020 0.04400
C 	C 	0.86540 0.13460 0.30130 0.05900
H 	H 	0.87930 0.12070 0.27020 0.04400
C 	C 	0.13460 0.63460 0.19870 0.06400
H 	H 	0.12070 0.62070 0.22980 0.03600
C 	C 	0.13460 0.13460 0.69870 0.06400
H 	H 	0.12070 0.12070 0.72980 0.03300
C 	C 	0.86540 0.69870 0.13460 0.05700
H 	H 	0.87930 0.72980 0.12070 0.04800
C 	C 	0.13460 0.80130 0.63460 0.05800
H 	H 	0.12070 0.77020 0.62070 0.04000
C 	C 	0.13460 0.30130 0.13460 0.06600
H 	H 	0.12070 0.27020 0.12070 0.03000
C 	C 	0.86540 0.80130 0.36540 0.05200
H 	H 	0.87930 0.77020 0.37930 0.05400
C 	C 	0.13460 0.19870 0.36540 0.06500
H 	H 	0.12070 0.22980 0.37930 0.03600
C 	C 	0.13460 0.69870 0.86540 0.05700
H 	H 	0.12070 0.72980 0.87930 0.04800
C 	C 	0.19870 0.36540 0.13460 0.06500
H 	H 	0.22980 0.37930 0.12070 0.03600
C 	C 	0.69870 0.36540 0.63460 0.05800
H 	H 	0.72980 0.37930 0.62070 0.04700
C 	C 	0.80130 0.36540 0.86540 0.05200
H 	H 	0.77020 0.37930 0.87930 0.05400
C 	C 	0.30130 0.36540 0.36540 0.06200
H 	H 	0.27020 0.37930 0.37930 0.04200
C 	C 	0.80130 0.63460 0.13460 0.05800
H 	H 	0.77020 0.62070 0.12070 0.04000
C 	C 	0.69870 0.63460 0.36540 0.05800
H 	H 	0.72980 0.62070 0.37930 0.04700
C 	C 	0.36540 0.86540 0.80130 0.05200
H 	H 	0.37930 0.87930 0.77020 0.05400
C 	C 	0.36540 0.36540 0.30130 0.06200
H 	H 	0.37930 0.37930 0.27020 0.04200
C 	C 	0.36540 0.13460 0.19870 0.06500
H 	H 	0.37930 0.12070 0.22980 0.03600
C 	C 	0.36540 0.63460 0.69870 0.05800
H 	H 	0.37930 0.62070 0.72980 0.04700
C 	C 	0.63460 0.36540 0.69870 0.05800
H 	H 	0.62070 0.37930 0.72980 0.04700
C 	C 	0.63460 0.13460 0.80130 0.05800
H 	H 	0.62070 0.12070 0.77020 0.04000
