data_crystal

_cell_length_a 26.31500
_cell_length_b 26.31500
_cell_length_c 26.31500
_cell_angle_alpha 90.00000
_cell_angle_beta  90.00000
_cell_angle_gamma 90.00000

_symmetry_space_group_name_	'P 1'
_symmetry_space_group_name_H-M	'P 1'

loop_
_symmetry_equiv_pos_as_xyz
  x,y,z

loop_
_atom_site_label
_atom_site_type_symbol
_atom_site_fract_x
_atom_site_fract_y
_atom_site_fract_z
_atom_site_charge
O 	O 	0.81701 0.24328 0.55253 -0.40100
O 	O 	0.81701 0.74328 0.05253 -0.41400
O 	O 	0.31701 0.24328 0.05253 -0.42300
O 	O 	0.31701 0.74328 0.55253 -0.40300
O 	O 	0.18299 0.75672 0.55253 -0.40800
O 	O 	0.18299 0.25672 0.05253 -0.42800
O 	O 	0.68299 0.75672 0.05253 -0.42000
O 	O 	0.68299 0.25672 0.55253 -0.40700
O 	O 	0.18299 0.24328 0.44747 -0.41100
O 	O 	0.18299 0.74328 0.94747 -0.37500
O 	O 	0.68299 0.24328 0.94747 -0.37400
O 	O 	0.68299 0.74328 0.44747 -0.40200
O 	O 	0.81701 0.75672 0.44747 -0.39800
O 	O 	0.81701 0.25672 0.94747 -0.36900
O 	O 	0.31701 0.75672 0.94747 -0.37100
O 	O 	0.31701 0.25672 0.44747 -0.40700
O 	O 	0.55253 0.81701 0.24328 -0.40100
O 	O 	0.55253 0.31701 0.74328 -0.40300
O 	O 	0.05253 0.81701 0.74328 -0.41400
O 	O 	0.05253 0.31701 0.24328 -0.42300
O 	O 	0.55253 0.18299 0.75672 -0.40800
O 	O 	0.55253 0.68299 0.25672 -0.40800
O 	O 	0.05253 0.18299 0.25672 -0.42900
O 	O 	0.05253 0.68299 0.75672 -0.42100
O 	O 	0.44747 0.18299 0.24328 -0.41200
O 	O 	0.44747 0.68299 0.74328 -0.40300
O 	O 	0.94747 0.18299 0.74328 -0.37600
O 	O 	0.94747 0.68299 0.24328 -0.37500
O 	O 	0.44747 0.81701 0.75672 -0.39900
O 	O 	0.44747 0.31701 0.25672 -0.40800
O 	O 	0.94747 0.81701 0.25672 -0.37000
O 	O 	0.94747 0.31701 0.75672 -0.37200
O 	O 	0.24328 0.55253 0.81701 -0.40200
O 	O 	0.24328 0.05253 0.31701 -0.42400
O 	O 	0.74328 0.55253 0.31701 -0.40400
O 	O 	0.74328 0.05253 0.81701 -0.41500
O 	O 	0.75672 0.55253 0.18299 -0.40900
O 	O 	0.75672 0.05253 0.68299 -0.42100
O 	O 	0.25672 0.55253 0.68299 -0.40800
O 	O 	0.25672 0.05253 0.18299 -0.42900
O 	O 	0.24328 0.44747 0.18299 -0.41200
O 	O 	0.24328 0.94747 0.68299 -0.37500
O 	O 	0.74328 0.44747 0.68299 -0.40300
O 	O 	0.74328 0.94747 0.18299 -0.37600
O 	O 	0.75672 0.44747 0.81701 -0.39900
O 	O 	0.75672 0.94747 0.31701 -0.37200
O 	O 	0.25672 0.44747 0.31701 -0.40800
O 	O 	0.25672 0.94747 0.81701 -0.37000
O 	O 	0.24328 0.81701 0.44747 -0.40200
O 	O 	0.24328 0.31701 0.94747 -0.37500
O 	O 	0.74328 0.81701 0.94747 -0.36600
O 	O 	0.74328 0.31701 0.44747 -0.40400
O 	O 	0.75672 0.18299 0.44747 -0.40900
O 	O 	0.75672 0.68299 0.94747 -0.37200
O 	O 	0.25672 0.18299 0.94747 -0.38100
O 	O 	0.25672 0.68299 0.44747 -0.40800
O 	O 	0.24328 0.18299 0.55253 -0.41200
O 	O 	0.24328 0.68299 0.05253 -0.42400
O 	O 	0.74328 0.18299 0.05253 -0.42500
O 	O 	0.74328 0.68299 0.55253 -0.40300
O 	O 	0.75672 0.81701 0.55253 -0.39900
O 	O 	0.75672 0.31701 0.05253 -0.42100
O 	O 	0.25672 0.81701 0.05253 -0.41900
O 	O 	0.25672 0.31701 0.55253 -0.40800
O 	O 	0.81701 0.55253 0.75672 -0.39900
O 	O 	0.81701 0.05253 0.25672 -0.41900
O 	O 	0.31701 0.55253 0.25672 -0.40800
O 	O 	0.31701 0.05253 0.75672 -0.42100
O 	O 	0.18299 0.55253 0.24328 -0.41200
O 	O 	0.18299 0.05253 0.74328 -0.42500
O 	O 	0.68299 0.55253 0.74328 -0.40300
O 	O 	0.68299 0.05253 0.24328 -0.42400
O 	O 	0.18299 0.44747 0.75672 -0.40900
O 	O 	0.18299 0.94747 0.25672 -0.38100
O 	O 	0.68299 0.44747 0.25672 -0.40800
O 	O 	0.68299 0.94747 0.75672 -0.37200
O 	O 	0.81701 0.44747 0.24328 -0.40200
O 	O 	0.81701 0.94747 0.74328 -0.36600
O 	O 	0.31701 0.44747 0.74328 -0.40400
O 	O 	0.31701 0.94747 0.24328 -0.37500
O 	O 	0.55253 0.24328 0.18299 -0.41200
O 	O 	0.55253 0.74328 0.68299 -0.40300
O 	O 	0.05253 0.24328 0.68299 -0.42400
O 	O 	0.05253 0.74328 0.18299 -0.42500
O 	O 	0.55253 0.75672 0.81701 -0.39900
O 	O 	0.55253 0.25672 0.31701 -0.40800
O 	O 	0.05253 0.75672 0.31701 -0.42100
O 	O 	0.05253 0.25672 0.81701 -0.41900
O 	O 	0.44747 0.24328 0.81701 -0.40200
O 	O 	0.44747 0.74328 0.31701 -0.40400
O 	O 	0.94747 0.24328 0.31701 -0.37500
O 	O 	0.94747 0.74328 0.81701 -0.36600
O 	O 	0.44747 0.75672 0.18299 -0.40900
O 	O 	0.44747 0.25672 0.68299 -0.40800
O 	O 	0.94747 0.75672 0.68299 -0.37200
O 	O 	0.94747 0.25672 0.18299 -0.38100
O 	O 	0.18299 0.75672 0.44747 -0.40900
O 	O 	0.18299 0.25672 0.94747 -0.38100
O 	O 	0.68299 0.75672 0.94747 -0.37200
O 	O 	0.68299 0.25672 0.44747 -0.40800
O 	O 	0.81701 0.24328 0.44747 -0.40200
O 	O 	0.81701 0.74328 0.94747 -0.36600
O 	O 	0.31701 0.24328 0.94747 -0.37500
O 	O 	0.31701 0.74328 0.44747 -0.40400
O 	O 	0.81701 0.75672 0.55253 -0.39900
O 	O 	0.81701 0.25672 0.05253 -0.41900
O 	O 	0.31701 0.75672 0.05253 -0.42100
O 	O 	0.31701 0.25672 0.55253 -0.40800
O 	O 	0.18299 0.24328 0.55253 -0.41200
O 	O 	0.18299 0.74328 0.05253 -0.42500
O 	O 	0.68299 0.24328 0.05253 -0.42400
O 	O 	0.68299 0.74328 0.55253 -0.40300
O 	O 	0.44747 0.18299 0.75672 -0.40900
O 	O 	0.44747 0.68299 0.25672 -0.40800
O 	O 	0.94747 0.18299 0.25672 -0.38100
O 	O 	0.94747 0.68299 0.75672 -0.37200
O 	O 	0.44747 0.81701 0.24328 -0.40200
O 	O 	0.44747 0.31701 0.74328 -0.40400
O 	O 	0.94747 0.81701 0.74328 -0.36600
O 	O 	0.94747 0.31701 0.24328 -0.37500
O 	O 	0.55253 0.81701 0.75672 -0.39900
O 	O 	0.55253 0.31701 0.25672 -0.40800
O 	O 	0.05253 0.81701 0.25672 -0.41900
O 	O 	0.05253 0.31701 0.75672 -0.42100
O 	O 	0.55253 0.18299 0.24328 -0.41200
O 	O 	0.55253 0.68299 0.74328 -0.40300
O 	O 	0.05253 0.18299 0.74328 -0.42500
O 	O 	0.05253 0.68299 0.24328 -0.42400
O 	O 	0.75672 0.44747 0.18299 -0.40900
O 	O 	0.75672 0.94747 0.68299 -0.37200
O 	O 	0.25672 0.44747 0.68299 -0.40800
O 	O 	0.25672 0.94747 0.18299 -0.38100
O 	O 	0.24328 0.44747 0.81701 -0.40200
O 	O 	0.24328 0.94747 0.31701 -0.37500
O 	O 	0.74328 0.44747 0.31701 -0.40400
O 	O 	0.74328 0.94747 0.81701 -0.36600
O 	O 	0.75672 0.55253 0.81701 -0.39900
O 	O 	0.75672 0.05253 0.31701 -0.42100
O 	O 	0.25672 0.55253 0.31701 -0.40800
O 	O 	0.25672 0.05253 0.81701 -0.41900
O 	O 	0.24328 0.55253 0.18299 -0.41200
O 	O 	0.24328 0.05253 0.68299 -0.42400
O 	O 	0.74328 0.55253 0.68299 -0.40300
O 	O 	0.74328 0.05253 0.18299 -0.42500
O 	O 	0.75672 0.18299 0.55253 -0.40900
O 	O 	0.75672 0.68299 0.05253 -0.42100
O 	O 	0.25672 0.18299 0.05253 -0.42900
O 	O 	0.25672 0.68299 0.55253 -0.40800
O 	O 	0.24328 0.81701 0.55253 -0.40200
O 	O 	0.24328 0.31701 0.05253 -0.42400
O 	O 	0.74328 0.81701 0.05253 -0.41500
O 	O 	0.74328 0.31701 0.55253 -0.40400
O 	O 	0.75672 0.81701 0.44747 -0.39900
O 	O 	0.75672 0.31701 0.94747 -0.37200
O 	O 	0.25672 0.81701 0.94747 -0.37000
O 	O 	0.25672 0.31701 0.44747 -0.40800
O 	O 	0.24328 0.18299 0.44747 -0.41200
O 	O 	0.24328 0.68299 0.94747 -0.37500
O 	O 	0.74328 0.18299 0.94747 -0.37600
O 	O 	0.74328 0.68299 0.44747 -0.40300
O 	O 	0.18299 0.44747 0.24328 -0.41200
O 	O 	0.18299 0.94747 0.74328 -0.37600
O 	O 	0.68299 0.44747 0.74328 -0.40300
O 	O 	0.68299 0.94747 0.24328 -0.37500
O 	O 	0.81701 0.44747 0.75672 -0.39900
O 	O 	0.81701 0.94747 0.25672 -0.37000
O 	O 	0.31701 0.44747 0.25672 -0.40800
O 	O 	0.31701 0.94747 0.75672 -0.37200
O 	O 	0.81701 0.55253 0.24328 -0.40200
O 	O 	0.81701 0.05253 0.74328 -0.41500
O 	O 	0.31701 0.55253 0.74328 -0.40400
O 	O 	0.31701 0.05253 0.24328 -0.42400
O 	O 	0.18299 0.55253 0.75672 -0.40900
O 	O 	0.18299 0.05253 0.25672 -0.42900
O 	O 	0.68299 0.55253 0.25672 -0.40800
O 	O 	0.68299 0.05253 0.75672 -0.42100
O 	O 	0.44747 0.75672 0.81701 -0.39900
O 	O 	0.44747 0.25672 0.31701 -0.40800
O 	O 	0.94747 0.75672 0.31701 -0.37200
O 	O 	0.94747 0.25672 0.81701 -0.37000
O 	O 	0.44747 0.24328 0.18299 -0.41200
O 	O 	0.44747 0.74328 0.68299 -0.40300
O 	O 	0.94747 0.24328 0.68299 -0.37500
O 	O 	0.94747 0.74328 0.18299 -0.37600
O 	O 	0.55253 0.75672 0.18299 -0.40900
O 	O 	0.55253 0.25672 0.68299 -0.40800
O 	O 	0.05253 0.75672 0.68299 -0.42100
O 	O 	0.05253 0.25672 0.18299 -0.42900
O 	O 	0.55253 0.24328 0.81701 -0.40200
O 	O 	0.55253 0.74328 0.31701 -0.40400
O 	O 	0.05253 0.24328 0.31701 -0.42400
O 	O 	0.05253 0.74328 0.81701 -0.41500
Cu	Cu	0.78534 0.28534 0.50000 0.90700
Cu	Cu	0.78534 0.78534 -0.00000 0.88000
Cu	Cu	0.21466 0.71466 0.50000 0.90400
Cu	Cu	0.21466 0.21466 -0.00000 0.87300
Cu	Cu	0.21466 0.28534 0.50000 0.90400
Cu	Cu	0.21466 0.78534 -0.00000 0.87600
Cu	Cu	0.78534 0.71466 0.50000 0.90700
Cu	Cu	0.78534 0.21466 -0.00000 0.87600
Cu	Cu	0.50000 0.78534 0.28534 0.90700
Cu	Cu	0.00000 0.78534 0.78534 0.88000
Cu	Cu	0.50000 0.21466 0.71466 0.90400
Cu	Cu	0.00000 0.21466 0.21466 0.87300
Cu	Cu	0.50000 0.21466 0.28534 0.90400
Cu	Cu	-0.00000 0.21466 0.78534 0.87600
Cu	Cu	0.50000 0.78534 0.71466 0.90700
Cu	Cu	0.00000 0.78534 0.21466 0.87600
Cu	Cu	0.28534 0.50000 0.78534 0.90700
Cu	Cu	0.28534 0.00000 0.28534 0.87600
Cu	Cu	0.71466 0.50000 0.21466 0.90400
Cu	Cu	0.71466 -0.00000 0.71466 0.87600
Cu	Cu	0.28534 0.50000 0.21466 0.90400
Cu	Cu	0.28534 -0.00000 0.71466 0.87600
Cu	Cu	0.71466 0.50000 0.78534 0.90700
Cu	Cu	0.71466 0.00000 0.28534 0.87600
Cu	Cu	0.28534 0.78534 0.50000 0.90700
Cu	Cu	0.28534 0.28534 -0.00000 0.87600
Cu	Cu	0.71466 0.21466 0.50000 0.90400
Cu	Cu	0.71466 0.71466 -0.00000 0.87600
Cu	Cu	0.28534 0.21466 0.50000 0.90400
Cu	Cu	0.28534 0.71466 -0.00000 0.87600
Cu	Cu	0.71466 0.78534 0.50000 0.90700
Cu	Cu	0.71466 0.28534 -0.00000 0.87600
Cu	Cu	0.78534 0.50000 0.71466 0.90700
Cu	Cu	0.78534 0.00000 0.21466 0.87600
Cu	Cu	0.21466 0.50000 0.28534 0.90400
Cu	Cu	0.21466 0.00000 0.78534 0.87600
Cu	Cu	0.21466 0.50000 0.71466 0.90400
Cu	Cu	0.21466 0.00000 0.21466 0.87300
Cu	Cu	0.78534 0.50000 0.28534 0.90700
Cu	Cu	0.78534 0.00000 0.78534 0.88000
Cu	Cu	0.50000 0.28534 0.21466 0.90400
Cu	Cu	-0.00000 0.28534 0.71466 0.87600
Cu	Cu	0.50000 0.71466 0.78534 0.90700
Cu	Cu	-0.00000 0.71466 0.28534 0.87600
Cu	Cu	0.50000 0.28534 0.78534 0.90700
Cu	Cu	-0.00000 0.28534 0.28534 0.87600
Cu	Cu	0.50000 0.71466 0.21466 0.90400
Cu	Cu	-0.00000 0.71466 0.71466 0.87600
C 	C 	0.79683 0.20317 0.56912 0.36900
C 	C 	0.82221 0.17779 0.61311 -0.12000
C 	C 	0.79683 0.70317 0.06912 0.36900
C 	C 	0.82221 0.67779 0.11311 -0.12300
C 	C 	0.29683 0.20317 0.06912 0.37300
C 	C 	0.32221 0.17779 0.11311 -0.13900
C 	C 	0.29683 0.70317 0.56912 0.36900
C 	C 	0.32221 0.67779 0.61311 -0.12100
C 	C 	0.20317 0.79683 0.56912 0.36900
C 	C 	0.17779 0.82221 0.61311 -0.12000
C 	C 	0.20317 0.29683 0.06912 0.37300
C 	C 	0.17779 0.32221 0.11311 -0.13900
C 	C 	0.70317 0.79683 0.06912 0.36900
C 	C 	0.67779 0.82221 0.11311 -0.12300
C 	C 	0.70317 0.29683 0.56912 0.36900
C 	C 	0.67779 0.32221 0.61311 -0.12100
C 	C 	0.20317 0.20317 0.43088 0.37200
C 	C 	0.17779 0.17779 0.38689 -0.13400
C 	C 	0.20317 0.70317 0.93088 0.36300
C 	C 	0.17779 0.67779 0.88689 -0.11300
C 	C 	0.70317 0.20317 0.93088 0.36300
C 	C 	0.67779 0.17779 0.88689 -0.11300
C 	C 	0.70317 0.70317 0.43088 0.36800
C 	C 	0.67779 0.67779 0.38689 -0.12000
C 	C 	0.79683 0.79683 0.43088 0.36700
C 	C 	0.82221 0.82221 0.38689 -0.10800
C 	C 	0.79683 0.29683 0.93088 0.36200
C 	C 	0.82221 0.32221 0.88689 -0.10300
C 	C 	0.29683 0.79683 0.93088 0.36200
C 	C 	0.32221 0.82221 0.88689 -0.10300
C 	C 	0.29683 0.29683 0.43088 0.37100
C 	C 	0.32221 0.32221 0.38689 -0.12500
C 	C 	0.56912 0.79683 0.20317 0.36900
C 	C 	0.61311 0.82221 0.17779 -0.12000
C 	C 	0.56912 0.29683 0.70317 0.36900
C 	C 	0.61311 0.32221 0.67779 -0.12100
C 	C 	0.06912 0.79683 0.70317 0.36900
C 	C 	0.11311 0.82221 0.67779 -0.12300
C 	C 	0.06912 0.29683 0.20317 0.37300
C 	C 	0.11311 0.32221 0.17779 -0.13900
C 	C 	0.56912 0.20317 0.79683 0.36900
C 	C 	0.61311 0.17779 0.82221 -0.12000
C 	C 	0.56912 0.70317 0.29683 0.36900
C 	C 	0.61311 0.67779 0.32221 -0.12100
C 	C 	0.06912 0.20317 0.29683 0.37300
C 	C 	0.11311 0.17779 0.32221 -0.13900
C 	C 	0.06912 0.70317 0.79683 0.36900
C 	C 	0.11311 0.67779 0.82221 -0.12300
C 	C 	0.43088 0.20317 0.20317 0.37200
C 	C 	0.38689 0.17779 0.17779 -0.13400
C 	C 	0.43088 0.70317 0.70317 0.36800
C 	C 	0.38689 0.67779 0.67779 -0.12000
C 	C 	0.93088 0.20317 0.70317 0.36300
C 	C 	0.88689 0.17779 0.67779 -0.11300
C 	C 	0.93088 0.70317 0.20317 0.36300
C 	C 	0.88689 0.67779 0.17779 -0.11300
C 	C 	0.43088 0.79683 0.79683 0.36700
C 	C 	0.38689 0.82221 0.82221 -0.10800
C 	C 	0.43088 0.29683 0.29683 0.37100
C 	C 	0.38689 0.32221 0.32221 -0.12500
C 	C 	0.93088 0.79683 0.29683 0.36200
C 	C 	0.88689 0.82221 0.32221 -0.10300
C 	C 	0.93088 0.29683 0.79683 0.36200
C 	C 	0.88689 0.32221 0.82221 -0.10300
C 	C 	0.20317 0.56912 0.79683 0.36900
C 	C 	0.17779 0.61311 0.82221 -0.12000
C 	C 	0.20317 0.06912 0.29683 0.37300
C 	C 	0.17779 0.11311 0.32221 -0.13900
C 	C 	0.70317 0.56912 0.29683 0.36900
C 	C 	0.67779 0.61311 0.32221 -0.12100
C 	C 	0.70317 0.06912 0.79683 0.36900
C 	C 	0.67779 0.11311 0.82221 -0.12300
C 	C 	0.79683 0.56912 0.20317 0.36900
C 	C 	0.82221 0.61311 0.17779 -0.12000
C 	C 	0.79683 0.06912 0.70317 0.36900
C 	C 	0.82221 0.11311 0.67779 -0.12300
C 	C 	0.29683 0.56912 0.70317 0.36900
C 	C 	0.32221 0.61311 0.67779 -0.12100
C 	C 	0.29683 0.06912 0.20317 0.37300
C 	C 	0.32221 0.11311 0.17779 -0.13900
C 	C 	0.20317 0.43088 0.20317 0.37200
C 	C 	0.17779 0.38689 0.17779 -0.13400
C 	C 	0.20317 0.93088 0.70317 0.36300
C 	C 	0.17779 0.88689 0.67779 -0.11300
C 	C 	0.70317 0.43088 0.70317 0.36800
C 	C 	0.67779 0.38689 0.67779 -0.12000
C 	C 	0.70317 0.93088 0.20317 0.36300
C 	C 	0.67779 0.88689 0.17779 -0.11300
C 	C 	0.79683 0.43088 0.79683 0.36700
C 	C 	0.82221 0.38689 0.82221 -0.10800
C 	C 	0.79683 0.93088 0.29683 0.36200
C 	C 	0.82221 0.88689 0.32221 -0.10300
C 	C 	0.29683 0.43088 0.29683 0.37100
C 	C 	0.32221 0.38689 0.32221 -0.12500
C 	C 	0.29683 0.93088 0.79683 0.36200
C 	C 	0.32221 0.88689 0.82221 -0.10300
C 	C 	0.20317 0.79683 0.43088 0.36900
C 	C 	0.17779 0.82221 0.38689 -0.12100
C 	C 	0.20317 0.29683 0.93088 0.36500
C 	C 	0.17779 0.32221 0.88689 -0.11600
C 	C 	0.70317 0.79683 0.93088 0.36100
C 	C 	0.67779 0.82221 0.88689 -0.10000
C 	C 	0.70317 0.29683 0.43088 0.37000
C 	C 	0.67779 0.32221 0.38689 -0.12200
C 	C 	0.79683 0.20317 0.43088 0.36900
C 	C 	0.82221 0.17779 0.38689 -0.12100
C 	C 	0.79683 0.70317 0.93088 0.36100
C 	C 	0.82221 0.67779 0.88689 -0.10000
C 	C 	0.29683 0.20317 0.93088 0.36500
C 	C 	0.32221 0.17779 0.88689 -0.11600
C 	C 	0.29683 0.70317 0.43088 0.37000
C 	C 	0.32221 0.67779 0.38689 -0.12200
C 	C 	0.20317 0.20317 0.56912 0.37200
C 	C 	0.17779 0.17779 0.61311 -0.13300
C 	C 	0.20317 0.70317 0.06912 0.37100
C 	C 	0.17779 0.67779 0.11311 -0.13600
C 	C 	0.70317 0.20317 0.06912 0.37100
C 	C 	0.67779 0.17779 0.11311 -0.13600
C 	C 	0.70317 0.70317 0.56912 0.36800
C 	C 	0.67779 0.67779 0.61311 -0.11900
C 	C 	0.79683 0.79683 0.56912 0.36700
C 	C 	0.82221 0.82221 0.61311 -0.10700
C 	C 	0.79683 0.29683 0.06912 0.37000
C 	C 	0.82221 0.32221 0.11311 -0.12600
C 	C 	0.29683 0.79683 0.06912 0.37000
C 	C 	0.32221 0.82221 0.11311 -0.12600
C 	C 	0.29683 0.29683 0.56912 0.37100
C 	C 	0.32221 0.32221 0.61311 -0.12400
C 	C 	0.79683 0.56912 0.79683 0.36700
C 	C 	0.82221 0.61311 0.82221 -0.10700
C 	C 	0.79683 0.06912 0.29683 0.37000
C 	C 	0.82221 0.11311 0.32221 -0.12600
C 	C 	0.29683 0.56912 0.29683 0.37100
C 	C 	0.32221 0.61311 0.32221 -0.12400
C 	C 	0.29683 0.06912 0.79683 0.37000
C 	C 	0.32221 0.11311 0.82221 -0.12600
C 	C 	0.20317 0.56912 0.20317 0.37200
C 	C 	0.17779 0.61311 0.17779 -0.13300
C 	C 	0.20317 0.06912 0.70317 0.37100
C 	C 	0.17779 0.11311 0.67779 -0.13600
C 	C 	0.70317 0.56912 0.70317 0.36800
C 	C 	0.67779 0.61311 0.67779 -0.11900
C 	C 	0.70317 0.06912 0.20317 0.37100
C 	C 	0.67779 0.11311 0.17779 -0.13600
C 	C 	0.20317 0.43088 0.79683 0.36900
C 	C 	0.17779 0.38689 0.82221 -0.12100
C 	C 	0.20317 0.93088 0.29683 0.36500
C 	C 	0.17779 0.88689 0.32221 -0.11600
C 	C 	0.70317 0.43088 0.29683 0.37000
C 	C 	0.67779 0.38689 0.32221 -0.12200
C 	C 	0.70317 0.93088 0.79683 0.36100
C 	C 	0.67779 0.88689 0.82221 -0.10000
C 	C 	0.79683 0.43088 0.20317 0.36900
C 	C 	0.82221 0.38689 0.17779 -0.12100
C 	C 	0.79683 0.93088 0.70317 0.36100
C 	C 	0.82221 0.88689 0.67779 -0.10000
C 	C 	0.29683 0.43088 0.70317 0.37000
C 	C 	0.32221 0.38689 0.67779 -0.12200
C 	C 	0.29683 0.93088 0.20317 0.36500
C 	C 	0.32221 0.88689 0.17779 -0.11600
C 	C 	0.56912 0.20317 0.20317 0.37200
C 	C 	0.61311 0.17779 0.17779 -0.13300
C 	C 	0.56912 0.70317 0.70317 0.36800
C 	C 	0.61311 0.67779 0.67779 -0.11900
C 	C 	0.06912 0.20317 0.70317 0.37100
C 	C 	0.11311 0.17779 0.67779 -0.13600
C 	C 	0.06912 0.70317 0.20317 0.37100
C 	C 	0.11311 0.67779 0.17779 -0.13600
C 	C 	0.56912 0.79683 0.79683 0.36700
C 	C 	0.61311 0.82221 0.82221 -0.10700
C 	C 	0.56912 0.29683 0.29683 0.37100
C 	C 	0.61311 0.32221 0.32221 -0.12400
C 	C 	0.06912 0.79683 0.29683 0.37000
C 	C 	0.11311 0.82221 0.32221 -0.12600
C 	C 	0.06912 0.29683 0.79683 0.37000
C 	C 	0.11311 0.32221 0.82221 -0.12600
C 	C 	0.43088 0.20317 0.79683 0.36900
C 	C 	0.38689 0.17779 0.82221 -0.12100
C 	C 	0.43088 0.70317 0.29683 0.37000
C 	C 	0.38689 0.67779 0.32221 -0.12200
C 	C 	0.93088 0.20317 0.29683 0.36500
C 	C 	0.88689 0.17779 0.32221 -0.11600
C 	C 	0.93088 0.70317 0.79683 0.36100
C 	C 	0.88689 0.67779 0.82221 -0.10000
C 	C 	0.43088 0.79683 0.20317 0.36900
C 	C 	0.38689 0.82221 0.17779 -0.12100
C 	C 	0.43088 0.29683 0.70317 0.37000
C 	C 	0.38689 0.32221 0.67779 -0.12200
C 	C 	0.93088 0.79683 0.70317 0.36100
C 	C 	0.88689 0.82221 0.67779 -0.10000
C 	C 	0.93088 0.29683 0.20317 0.36500
C 	C 	0.88689 0.32221 0.17779 -0.11600
C 	C 	0.80089 0.13465 0.63465 0.06700
H 	H 	0.77020 0.12070 0.62070 0.03800
C 	C 	0.30089 0.13465 0.13465 0.07500
H 	H 	0.27020 0.12070 0.12070 0.02700
C 	C 	0.30089 0.63465 0.63465 0.06800
H 	H 	0.27020 0.62070 0.62070 0.04100
C 	C 	0.19911 0.86535 0.63465 0.06500
H 	H 	0.22980 0.87930 0.62070 0.04900
C 	C 	0.69911 0.86535 0.13465 0.06500
H 	H 	0.72980 0.87930 0.12070 0.04600
C 	C 	0.19911 0.13465 0.36535 0.07400
H 	H 	0.22980 0.12070 0.37930 0.03400
C 	C 	0.19911 0.63465 0.86535 0.06500
H 	H 	0.22980 0.62070 0.87930 0.04900
C 	C 	0.69911 0.13465 0.86535 0.06500
H 	H 	0.72980 0.12070 0.87930 0.04600
C 	C 	0.80089 0.86535 0.36535 0.06100
H 	H 	0.77020 0.87930 0.37930 0.05200
C 	C 	0.30089 0.86535 0.86535 0.06000
H 	H 	0.27020 0.87930 0.87930 0.05600
C 	C 	0.63465 0.80089 0.13465 0.06700
H 	H 	0.62070 0.77020 0.12070 0.03800
C 	C 	0.63465 0.30089 0.63465 0.06800
H 	H 	0.62070 0.27020 0.62070 0.04100
C 	C 	0.63465 0.19911 0.86535 0.06500
H 	H 	0.62070 0.22980 0.87930 0.04900
C 	C 	0.63465 0.69911 0.36535 0.06700
H 	H 	0.62070 0.72980 0.37930 0.04400
C 	C 	0.36535 0.19911 0.13465 0.07400
H 	H 	0.37930 0.22980 0.12070 0.03400
C 	C 	0.36535 0.69911 0.63465 0.06700
H 	H 	0.37930 0.72980 0.62070 0.04400
C 	C 	0.86535 0.19911 0.63465 0.06500
H 	H 	0.87930 0.22980 0.62070 0.04900
C 	C 	0.36535 0.80089 0.86535 0.06100
H 	H 	0.37930 0.77020 0.87930 0.05200
C 	C 	0.36535 0.30089 0.36535 0.07100
H 	H 	0.37930 0.27020 0.37930 0.04000
C 	C 	0.86535 0.30089 0.86535 0.06000
H 	H 	0.87930 0.27020 0.87930 0.05600
C 	C 	0.13465 0.63465 0.80089 0.06700
H 	H 	0.12070 0.62070 0.77020 0.03800
C 	C 	0.13465 0.13465 0.30089 0.07500
H 	H 	0.12070 0.12070 0.27020 0.02700
C 	C 	0.63465 0.63465 0.30089 0.06800
H 	H 	0.62070 0.62070 0.27020 0.04100
C 	C 	0.86535 0.63465 0.19911 0.06500
H 	H 	0.87930 0.62070 0.22980 0.04900
C 	C 	0.86535 0.13465 0.69911 0.06500
H 	H 	0.87930 0.12070 0.72980 0.04600
C 	C 	0.13465 0.36535 0.19911 0.07400
H 	H 	0.12070 0.37930 0.22980 0.03400
C 	C 	0.13465 0.86535 0.69911 0.06500
H 	H 	0.12070 0.87930 0.72980 0.04600
C 	C 	0.63465 0.86535 0.19911 0.06500
H 	H 	0.62070 0.87930 0.22980 0.04900
C 	C 	0.86535 0.36535 0.80089 0.06100
H 	H 	0.87930 0.37930 0.77020 0.05200
C 	C 	0.86535 0.86535 0.30089 0.06000
H 	H 	0.87930 0.87930 0.27020 0.05600
C 	C 	0.13465 0.80089 0.36535 0.06800
H 	H 	0.12070 0.77020 0.37930 0.03800
C 	C 	0.13465 0.30089 0.86535 0.06700
H 	H 	0.12070 0.27020 0.87930 0.04200
C 	C 	0.63465 0.80089 0.86535 0.06000
H 	H 	0.62070 0.77020 0.87930 0.05200
C 	C 	0.86535 0.19911 0.36535 0.06700
H 	H 	0.87930 0.22980 0.37930 0.04800
C 	C 	0.86535 0.69911 0.86535 0.05800
H 	H 	0.87930 0.72980 0.87930 0.06000
C 	C 	0.13465 0.19911 0.63465 0.07200
H 	H 	0.12070 0.22980 0.62070 0.03400
C 	C 	0.13465 0.69911 0.13465 0.07300
H 	H 	0.12070 0.72980 0.12070 0.03100
C 	C 	0.63465 0.69911 0.63465 0.06600
H 	H 	0.62070 0.72980 0.62070 0.04500
C 	C 	0.86535 0.80089 0.63465 0.06000
H 	H 	0.87930 0.77020 0.62070 0.05200
C 	C 	0.86535 0.30089 0.13465 0.06700
H 	H 	0.87930 0.27020 0.12070 0.04200
C 	C 	0.80089 0.63465 0.86535 0.06000
H 	H 	0.77020 0.62070 0.87930 0.05200
C 	C 	0.30089 0.63465 0.36535 0.06900
H 	H 	0.27020 0.62070 0.37930 0.04000
C 	C 	0.19911 0.63465 0.13465 0.07200
H 	H 	0.22980 0.62070 0.12070 0.03400
C 	C 	0.69911 0.63465 0.63465 0.06600
H 	H 	0.72980 0.62070 0.62070 0.04500
C 	C 	0.19911 0.36535 0.86535 0.06700
H 	H 	0.22980 0.37930 0.87930 0.04800
C 	C 	0.69911 0.36535 0.36535 0.06900
H 	H 	0.72980 0.37930 0.37930 0.04400
C 	C 	0.69911 0.86535 0.86535 0.05800
H 	H 	0.72980 0.87930 0.87930 0.06000
C 	C 	0.80089 0.36535 0.13465 0.06800
H 	H 	0.77020 0.37930 0.12070 0.03800
C 	C 	0.80089 0.86535 0.63465 0.06000
H 	H 	0.77020 0.87930 0.62070 0.05200
C 	C 	0.30089 0.36535 0.63465 0.06900
H 	H 	0.27020 0.37930 0.62070 0.04000
C 	C 	0.63465 0.13465 0.19911 0.07200
H 	H 	0.62070 0.12070 0.22980 0.03400
C 	C 	0.63465 0.63465 0.69911 0.06600
H 	H 	0.62070 0.62070 0.72980 0.04500
C 	C 	0.63465 0.86535 0.80089 0.06000
H 	H 	0.62070 0.87930 0.77020 0.05200
C 	C 	0.63465 0.36535 0.30089 0.06900
H 	H 	0.62070 0.37930 0.27020 0.04000
C 	C 	0.36535 0.13465 0.80089 0.06800
H 	H 	0.37930 0.12070 0.77020 0.03800
C 	C 	0.36535 0.63465 0.30089 0.06900
H 	H 	0.37930 0.62070 0.27020 0.04000
C 	C 	0.86535 0.63465 0.80089 0.06000
H 	H 	0.87930 0.62070 0.77020 0.05200
C 	C 	0.36535 0.86535 0.19911 0.06700
H 	H 	0.37930 0.87930 0.22980 0.04800
C 	C 	0.36535 0.36535 0.69911 0.06900
H 	H 	0.37930 0.37930 0.72980 0.04400
C 	C 	0.86535 0.86535 0.69911 0.05800
H 	H 	0.87930 0.87930 0.72980 0.06000
C 	C 	0.19911 0.86535 0.36535 0.06700
H 	H 	0.22980 0.87930 0.37930 0.04800
C 	C 	0.80089 0.13465 0.36535 0.06800
H 	H 	0.77020 0.12070 0.37930 0.03800
C 	C 	0.30089 0.13465 0.86535 0.06700
H 	H 	0.27020 0.12070 0.87930 0.04200
C 	C 	0.30089 0.86535 0.13465 0.06700
H 	H 	0.27020 0.87930 0.12070 0.04200
C 	C 	0.19911 0.13465 0.63465 0.07200
H 	H 	0.22980 0.12070 0.62070 0.03400
C 	C 	0.69911 0.13465 0.13465 0.07300
H 	H 	0.72980 0.12070 0.12070 0.03100
C 	C 	0.36535 0.19911 0.86535 0.06700
H 	H 	0.37930 0.22980 0.87930 0.04800
C 	C 	0.36535 0.69911 0.36535 0.06900
H 	H 	0.37930 0.72980 0.37930 0.04400
C 	C 	0.36535 0.80089 0.13465 0.06800
H 	H 	0.37930 0.77020 0.12070 0.03800
C 	C 	0.36535 0.30089 0.63465 0.06900
H 	H 	0.37930 0.27020 0.62070 0.04000
C 	C 	0.63465 0.30089 0.36535 0.06900
H 	H 	0.62070 0.27020 0.37930 0.04000
C 	C 	0.63465 0.19911 0.13465 0.07200
H 	H 	0.62070 0.22980 0.12070 0.03400
C 	C 	0.86535 0.36535 0.19911 0.06700
H 	H 	0.87930 0.37930 0.22980 0.04800
C 	C 	0.13465 0.36535 0.80089 0.06800
H 	H 	0.12070 0.37930 0.77020 0.03800
C 	C 	0.13465 0.86535 0.30089 0.06700
H 	H 	0.12070 0.87930 0.27020 0.04200
C 	C 	0.86535 0.13465 0.30089 0.06700
H 	H 	0.87930 0.12070 0.27020 0.04200
C 	C 	0.13465 0.63465 0.19911 0.07200
H 	H 	0.12070 0.62070 0.22980 0.03400
C 	C 	0.13465 0.13465 0.69911 0.07300
H 	H 	0.12070 0.12070 0.72980 0.03100
C 	C 	0.86535 0.69911 0.13465 0.06500
H 	H 	0.87930 0.72980 0.12070 0.04600
C 	C 	0.13465 0.80089 0.63465 0.06700
H 	H 	0.12070 0.77020 0.62070 0.03800
C 	C 	0.13465 0.30089 0.13465 0.07500
H 	H 	0.12070 0.27020 0.12070 0.02700
C 	C 	0.86535 0.80089 0.36535 0.06100
H 	H 	0.87930 0.77020 0.37930 0.05200
C 	C 	0.13465 0.19911 0.36535 0.07400
H 	H 	0.12070 0.22980 0.37930 0.03400
C 	C 	0.13465 0.69911 0.86535 0.06500
H 	H 	0.12070 0.72980 0.87930 0.04600
C 	C 	0.19911 0.36535 0.13465 0.07400
H 	H 	0.22980 0.37930 0.12070 0.03400
C 	C 	0.69911 0.36535 0.63465 0.06700
H 	H 	0.72980 0.37930 0.62070 0.04400
C 	C 	0.80089 0.36535 0.86535 0.06100
H 	H 	0.77020 0.37930 0.87930 0.05200
C 	C 	0.30089 0.36535 0.36535 0.07100
H 	H 	0.27020 0.37930 0.37930 0.04000
C 	C 	0.80089 0.63465 0.13465 0.06700
H 	H 	0.77020 0.62070 0.12070 0.03800
C 	C 	0.69911 0.63465 0.36535 0.06700
H 	H 	0.72980 0.62070 0.37930 0.04400
C 	C 	0.36535 0.86535 0.80089 0.06100
H 	H 	0.37930 0.87930 0.77020 0.05200
C 	C 	0.36535 0.36535 0.30089 0.07100
H 	H 	0.37930 0.37930 0.27020 0.04000
C 	C 	0.36535 0.13465 0.19911 0.07400
H 	H 	0.37930 0.12070 0.22980 0.03400
C 	C 	0.36535 0.63465 0.69911 0.06700
H 	H 	0.37930 0.62070 0.72980 0.04400
C 	C 	0.63465 0.36535 0.69911 0.06700
H 	H 	0.62070 0.37930 0.72980 0.04400
C 	C 	0.63465 0.13465 0.80089 0.06700
H 	H 	0.62070 0.12070 0.77020 0.03800
