data_crystal

_cell_length_a 36.07900
_cell_length_b 14.97800
_cell_length_c 30.73400
_cell_angle_alpha 90.00000
_cell_angle_beta  102.47000
_cell_angle_gamma 90.00000

_symmetry_space_group_name_	'P 1'
_symmetry_space_group_name_H-M	'P 1'

loop_
_symmetry_equiv_pos_as_xyz
  x,y,z

loop_
_atom_site_label
_atom_site_type_symbol
_atom_site_fract_x
_atom_site_fract_y
_atom_site_fract_z
_atom_site_charge
Zn	Zn	0.37701 0.09068 0.43463 1.16400
Zn	Zn	0.58560 0.37260 0.58770 0.64600
Zn	Zn	0.57100 0.61000 0.09570 0.57300
Zn	Zn	0.17284 0.36472 0.27398 1.16300
I 	I 	0.39401 0.23340 0.39859 -0.35200
I 	I 	0.36370 0.07140 0.51580 -0.23000
I 	I 	0.35825 0.09320 0.50830 -0.04900
I 	I 	0.62128 0.26093 0.54738 -2.47700
I 	I 	0.60430 0.73570 0.06008 1.95100
I 	I 	0.53297 0.33708 0.62608 5.16900
I 	I 	0.51680 0.62870 0.13485 -5.51500
I 	I 	0.12649 0.33549 0.19874 -0.40100
I 	I 	0.63410 0.82180 0.21190 -0.11700
I 	I 	0.23210 0.27310 0.29830 -0.01600
I 	I 	0.74130 0.79170 0.31350 -0.30900
N 	N 	0.57440 0.72570 0.43530 -0.09500
N 	N 	0.52430 0.77180 0.46980 -0.19100
N 	N 	0.53800 0.85520 0.40890 -0.13500
C 	C 	0.55210 0.71520 0.46370 0.11600
C 	C 	0.51750 0.83820 0.43970 0.02400
C 	C 	0.56730 0.79900 0.40970 0.13400
N 	N 	0.56850 0.48070 0.54490 -0.33000
C 	C 	0.59180 0.50040 0.51860 0.05900
H 	H 	0.61200 0.46050 0.51730 0.02500
C 	C 	0.58790 0.57810 0.49260 -0.06500
H 	H 	0.60610 0.59240 0.47540 0.10100
C 	C 	0.55740 0.63330 0.49220 0.04300
C 	C 	0.53200 0.61040 0.51860 -0.06400
H 	H 	0.51030 0.64600 0.51860 0.03900
C 	C 	0.53930 0.53390 0.54520 0.01500
H 	H 	0.52260 0.51960 0.56410 0.05900
N 	N 	0.42150 0.00500 0.43770 -0.28300
C 	C 	0.43580 0.99390 0.40330 0.06700
H 	H 	0.42330 0.02300 0.37670 -0.02300
C 	C 	0.46770 0.94330 0.40110 -0.17200
H 	H 	0.47750 0.94050 0.37480 0.06900
C 	C 	0.48480 0.89650 0.44000 -0.01200
C 	C 	0.46920 0.90400 0.47620 -0.15200
H 	H 	0.47950 0.87180 0.50270 0.07400
C 	C 	0.43800 0.95930 0.47420 0.05500
H 	H 	0.42780 0.96500 0.50010 0.01800
N 	N 	0.64090 0.84940 0.32190 -0.27100
C 	C 	0.65060 0.79160 0.35550 0.08600
H 	H 	0.67450 0.76250 0.35980 -0.00500
C 	C 	0.62690 0.77270 0.38410 -0.10100
H 	H 	0.63420 0.72940 0.40690 0.10400
C 	C 	0.59280 0.81680 0.37960 0.09400
C 	C 	0.58390 0.87870 0.34540 -0.10200
H 	H 	0.56090 0.91190 0.34160 0.09400
C 	C 	0.60810 0.89260 0.31670 0.08800
H 	H 	0.60120 0.93390 0.29290 -0.01200
N 	N 	0.22070 0.95320 0.26960 -0.14300
N 	N 	0.23600 0.81460 0.30710 -0.13400
N 	N 	0.18270 0.82720 0.24560 -0.12700
C 	C 	0.19260 0.91260 0.24420 0.11400
C 	C 	0.24100 0.90270 0.30230 0.09700
C 	C 	0.20630 0.78000 0.27790 0.10500
N 	N 	0.12210 0.05860 0.13820 -0.36400
C 	C 	0.11590 0.97390 0.14620 0.10500
H 	H 	0.09410 0.94550 0.12890 -0.00600
C 	C 	0.13970 0.92550 0.17840 -0.13000
H 	H 	0.13580 0.86310 0.18070 0.11500
C 	C 	0.16840 0.96530 0.20660 0.08600
C 	C 	0.17470 0.05300 0.19930 -0.14100
H 	H 	0.19490 0.08390 0.21840 0.08300
C 	C 	0.15140 0.09710 0.16380 0.09100
H 	H 	0.15700 0.15730 0.15790 -0.05900
N 	N 	0.33390 0.03010 0.39060 -0.27900
C 	C 	0.30920 0.07510 0.36050 0.07500
H 	H 	0.31280 0.13770 0.35860 -0.00600
C 	C 	0.27860 0.03750 0.33170 -0.11900
H 	H 	0.26170 0.07390 0.31110 0.08900
C 	C 	0.27270 0.94600 0.33300 0.04700
C 	C 	0.29810 0.89730 0.36450 -0.11100
H 	H 	0.29520 0.83470 0.36750 0.10300
C 	C 	0.32830 0.94390 0.39210 0.06700
H 	H 	0.34590 0.91020 0.41320 0.02500
N 	N 	0.18510 0.50020 0.27630 -0.27500
C 	C 	0.21580 0.53560 0.30240 0.08400
H 	H 	0.23330 0.49650 0.32060 -0.00700
C 	C 	0.22370 0.62540 0.30480 -0.12900
H 	H 	0.24590 0.64710 0.32450 0.09300
C 	C 	0.19940 0.68280 0.27870 0.07100
C 	C 	0.16750 0.64660 0.24880 -0.12300
H 	H 	0.15050 0.68390 0.22880 0.09600
C 	C 	0.16200 0.55700 0.24940 0.07700
H 	H 	0.14030 0.53300 0.22960 -0.01400
Zn	Zn	0.87701 0.59068 0.43463 1.16300
Zn	Zn	0.08560 0.87260 0.58770 0.64500
Zn	Zn	0.07100 0.11000 0.09570 0.57300
Zn	Zn	0.67284 0.86472 0.27398 1.16200
I 	I 	0.89401 0.73340 0.39859 -0.35300
I 	I 	0.86370 0.57140 0.51580 -0.23100
I 	I 	0.85825 0.59320 0.50830 -0.05000
I 	I 	0.12128 0.76093 0.54738 -2.47700
I 	I 	0.10430 0.23570 0.06008 1.95000
I 	I 	0.03297 0.83708 0.62608 5.16300
I 	I 	0.01680 0.12870 0.13485 -5.51000
I 	I 	0.62649 0.83549 0.19874 -0.40100
I 	I 	0.13410 0.32180 0.21190 -0.11600
I 	I 	0.73210 0.77310 0.29830 -0.01600
I 	I 	0.24130 0.29170 0.31350 -0.30900
N 	N 	0.07440 0.22570 0.43530 -0.09600
N 	N 	0.02430 0.27180 0.46980 -0.19100
N 	N 	0.03800 0.35520 0.40890 -0.13500
C 	C 	0.05210 0.21520 0.46370 0.11600
C 	C 	0.01750 0.33820 0.43970 0.02400
C 	C 	0.06730 0.29900 0.40970 0.13400
N 	N 	0.06850 0.98070 0.54490 -0.33000
C 	C 	0.09180 0.00040 0.51860 0.05900
H 	H 	0.11200 0.96050 0.51730 0.02500
C 	C 	0.08790 0.07810 0.49260 -0.06500
H 	H 	0.10610 0.09240 0.47540 0.10000
C 	C 	0.05740 0.13330 0.49220 0.04200
C 	C 	0.03200 0.11040 0.51860 -0.06400
H 	H 	0.01030 0.14600 0.51860 0.03800
C 	C 	0.03930 0.03390 0.54520 0.01500
H 	H 	0.02260 0.01960 0.56410 0.05800
N 	N 	0.92150 0.50500 0.43770 -0.28300
C 	C 	0.93580 0.49390 0.40330 0.06900
H 	H 	0.92330 0.52300 0.37670 -0.02300
C 	C 	0.96770 0.44330 0.40110 -0.17200
H 	H 	0.97750 0.44050 0.37480 0.06900
C 	C 	0.98480 0.39650 0.44000 -0.01100
C 	C 	0.96920 0.40400 0.47620 -0.15200
H 	H 	0.97950 0.37180 0.50270 0.07400
C 	C 	0.93800 0.45930 0.47420 0.05500
H 	H 	0.92780 0.46500 0.50010 0.01700
N 	N 	0.14090 0.34940 0.32190 -0.27100
C 	C 	0.15060 0.29160 0.35550 0.08600
H 	H 	0.17450 0.26250 0.35980 -0.00500
C 	C 	0.12690 0.27270 0.38410 -0.10100
H 	H 	0.13420 0.22940 0.40690 0.10400
C 	C 	0.09280 0.31680 0.37960 0.09400
C 	C 	0.08390 0.37870 0.34540 -0.10200
H 	H 	0.06090 0.41190 0.34160 0.09400
C 	C 	0.10810 0.39260 0.31670 0.08800
H 	H 	0.10120 0.43390 0.29290 -0.01200
N 	N 	0.72070 0.45320 0.26960 -0.14300
N 	N 	0.73600 0.31460 0.30710 -0.13400
N 	N 	0.68270 0.32720 0.24560 -0.12700
C 	C 	0.69260 0.41260 0.24420 0.11400
C 	C 	0.74100 0.40270 0.30230 0.09600
C 	C 	0.70630 0.28000 0.27790 0.10500
N 	N 	0.62210 0.55860 0.13820 -0.36500
C 	C 	0.61590 0.47390 0.14620 0.10600
H 	H 	0.59410 0.44550 0.12890 -0.00600
C 	C 	0.63970 0.42550 0.17840 -0.13100
H 	H 	0.63580 0.36310 0.18070 0.11500
C 	C 	0.66840 0.46530 0.20660 0.08800
C 	C 	0.67470 0.55300 0.19930 -0.14200
H 	H 	0.69490 0.58390 0.21840 0.08300
C 	C 	0.65140 0.59710 0.16380 0.09200
H 	H 	0.65700 0.65730 0.15790 -0.05900
N 	N 	0.83390 0.53010 0.39060 -0.27900
C 	C 	0.80920 0.57510 0.36050 0.07600
H 	H 	0.81280 0.63770 0.35860 -0.00700
C 	C 	0.77860 0.53750 0.33170 -0.12000
H 	H 	0.76170 0.57390 0.31110 0.08900
C 	C 	0.77270 0.44600 0.33300 0.04800
C 	C 	0.79810 0.39730 0.36450 -0.11200
H 	H 	0.79520 0.33470 0.36750 0.10400
C 	C 	0.82830 0.44390 0.39210 0.06700
H 	H 	0.84590 0.41020 0.41320 0.02500
N 	N 	0.68510 0.00020 0.27630 -0.27500
C 	C 	0.71580 0.03560 0.30240 0.08500
H 	H 	0.73330 0.99650 0.32060 -0.00700
C 	C 	0.72370 0.12540 0.30480 -0.12900
H 	H 	0.74590 0.14710 0.32450 0.09300
C 	C 	0.69940 0.18280 0.27870 0.07200
C 	C 	0.66750 0.14660 0.24880 -0.12300
H 	H 	0.65050 0.18390 0.22880 0.09600
C 	C 	0.66200 0.05700 0.24940 0.07700
H 	H 	0.64030 0.03300 0.22960 -0.01400
Zn	Zn	0.37701 0.90932 0.93463 1.16300
Zn	Zn	0.58560 0.62740 0.08770 0.64500
Zn	Zn	0.57100 0.39000 0.59570 0.57200
Zn	Zn	0.17284 0.63528 0.77398 1.16200
I 	I 	0.39401 0.76660 0.89859 -0.35300
I 	I 	0.36370 0.92860 0.01580 -0.23100
I 	I 	0.35825 0.90680 0.00830 -0.05000
I 	I 	0.62128 0.73907 0.04738 -2.47700
I 	I 	0.60430 0.26430 0.56008 1.95100
I 	I 	0.53297 0.66292 0.12608 5.16900
I 	I 	0.51680 0.37130 0.63485 -5.51500
I 	I 	0.12649 0.66451 0.69874 -0.40100
I 	I 	0.63410 0.17820 0.71190 -0.11700
I 	I 	0.23210 0.72690 0.79830 -0.01600
I 	I 	0.74130 0.20830 0.81350 -0.30900
N 	N 	0.57440 0.27430 0.93530 -0.09500
N 	N 	0.52430 0.22820 0.96980 -0.19100
N 	N 	0.53800 0.14480 0.90890 -0.13500
C 	C 	0.55210 0.28480 0.96370 0.11600
C 	C 	0.51750 0.16180 0.93970 0.02400
C 	C 	0.56730 0.20100 0.90970 0.13400
N 	N 	0.56850 0.51930 0.04490 -0.33000
C 	C 	0.59180 0.49960 0.01860 0.05900
H 	H 	0.61200 0.53950 0.01730 0.02500
C 	C 	0.58790 0.42190 0.99260 -0.06500
H 	H 	0.60610 0.40760 0.97540 0.10100
C 	C 	0.55740 0.36670 0.99220 0.04200
C 	C 	0.53200 0.38960 0.01860 -0.06400
H 	H 	0.51030 0.35400 0.01860 0.03900
C 	C 	0.53930 0.46610 0.04520 0.01500
H 	H 	0.52260 0.48040 0.06410 0.05900
N 	N 	0.42150 0.99500 0.93770 -0.28200
C 	C 	0.43580 0.00610 0.90330 0.06600
H 	H 	0.42330 0.97700 0.87670 -0.02200
C 	C 	0.46770 0.05670 0.90110 -0.17100
H 	H 	0.47750 0.05950 0.87480 0.06900
C 	C 	0.48480 0.10350 0.94000 -0.01200
C 	C 	0.46920 0.09600 0.97620 -0.15200
H 	H 	0.47950 0.12820 0.00270 0.07400
C 	C 	0.43800 0.04070 0.97420 0.05400
H 	H 	0.42780 0.03500 0.00010 0.01800
N 	N 	0.64090 0.15060 0.82190 -0.27100
C 	C 	0.65060 0.20840 0.85550 0.08600
H 	H 	0.67450 0.23750 0.85980 -0.00500
C 	C 	0.62690 0.22730 0.88410 -0.10100
H 	H 	0.63420 0.27060 0.90690 0.10400
C 	C 	0.59280 0.18320 0.87960 0.09400
C 	C 	0.58390 0.12130 0.84540 -0.10200
H 	H 	0.56090 0.08810 0.84160 0.09400
C 	C 	0.60810 0.10740 0.81670 0.08800
H 	H 	0.60120 0.06610 0.79290 -0.01200
N 	N 	0.22070 0.04680 0.76960 -0.14300
N 	N 	0.23600 0.18540 0.80710 -0.13400
N 	N 	0.18270 0.17280 0.74560 -0.12700
C 	C 	0.19260 0.08740 0.74420 0.11400
C 	C 	0.24100 0.09730 0.80230 0.09700
C 	C 	0.20630 0.22000 0.77790 0.10500
N 	N 	0.12210 0.94140 0.63820 -0.36400
C 	C 	0.11590 0.02610 0.64620 0.10500
H 	H 	0.09410 0.05450 0.62890 -0.00600
C 	C 	0.13970 0.07450 0.67840 -0.13000
H 	H 	0.13580 0.13690 0.68070 0.11500
C 	C 	0.16840 0.03470 0.70660 0.08600
C 	C 	0.17470 0.94700 0.69930 -0.14100
H 	H 	0.19490 0.91610 0.71840 0.08300
C 	C 	0.15140 0.90290 0.66380 0.09100
H 	H 	0.15700 0.84270 0.65790 -0.05900
N 	N 	0.33390 0.96990 0.89060 -0.27900
C 	C 	0.30920 0.92490 0.86050 0.07500
H 	H 	0.31280 0.86230 0.85860 -0.00600
C 	C 	0.27860 0.96250 0.83170 -0.11800
H 	H 	0.26170 0.92610 0.81110 0.08900
C 	C 	0.27270 0.05400 0.83300 0.04700
C 	C 	0.29810 0.10270 0.86450 -0.11100
H 	H 	0.29520 0.16530 0.86750 0.10300
C 	C 	0.32830 0.05610 0.89210 0.06600
H 	H 	0.34590 0.08980 0.91320 0.02500
N 	N 	0.18510 0.49980 0.77630 -0.27500
C 	C 	0.21580 0.46440 0.80240 0.08400
H 	H 	0.23330 0.50350 0.82060 -0.00700
C 	C 	0.22370 0.37460 0.80480 -0.12900
H 	H 	0.24590 0.35290 0.82450 0.09300
C 	C 	0.19940 0.31720 0.77870 0.07100
C 	C 	0.16750 0.35340 0.74880 -0.12300
H 	H 	0.15050 0.31610 0.72880 0.09600
C 	C 	0.16200 0.44300 0.74940 0.07700
H 	H 	0.14030 0.46700 0.72960 -0.01400
Zn	Zn	0.87701 0.40932 0.93463 1.16300
Zn	Zn	0.08560 0.12740 0.08770 0.64500
Zn	Zn	0.07100 0.89000 0.59570 0.57300
Zn	Zn	0.67284 0.13528 0.77398 1.16200
I 	I 	0.89401 0.26660 0.89859 -0.35400
I 	I 	0.86370 0.42860 0.01580 -0.23100
I 	I 	0.85825 0.40680 0.00830 -0.05000
I 	I 	0.12128 0.23907 0.04738 -2.47700
I 	I 	0.10430 0.76430 0.56008 1.95000
I 	I 	0.03297 0.16292 0.12608 5.16300
I 	I 	0.01680 0.87130 0.63485 -5.51000
I 	I 	0.62649 0.16451 0.69874 -0.40100
I 	I 	0.13410 0.67820 0.71190 -0.11600
I 	I 	0.73210 0.22690 0.79830 -0.01600
I 	I 	0.24130 0.70830 0.81350 -0.30900
N 	N 	0.07440 0.77430 0.93530 -0.09600
N 	N 	0.02430 0.72820 0.96980 -0.19100
N 	N 	0.03800 0.64480 0.90890 -0.13500
C 	C 	0.05210 0.78480 0.96370 0.11600
C 	C 	0.01750 0.66180 0.93970 0.02400
C 	C 	0.06730 0.70100 0.90970 0.13400
N 	N 	0.06850 0.01930 0.04490 -0.32900
C 	C 	0.09180 0.99960 0.01860 0.05700
H 	H 	0.11200 0.03950 0.01730 0.02600
C 	C 	0.08790 0.92190 0.99260 -0.06400
H 	H 	0.10610 0.90760 0.97540 0.10000
C 	C 	0.05740 0.86670 0.99220 0.04200
C 	C 	0.03200 0.88960 0.01860 -0.06300
H 	H 	0.01030 0.85400 0.01860 0.03800
C 	C 	0.03930 0.96610 0.04520 0.01400
H 	H 	0.02260 0.98040 0.06410 0.05800
N 	N 	0.92150 0.49500 0.93770 -0.28300
C 	C 	0.93580 0.50610 0.90330 0.06900
H 	H 	0.92330 0.47700 0.87670 -0.02300
C 	C 	0.96770 0.55670 0.90110 -0.17200
H 	H 	0.97750 0.55950 0.87480 0.06900
C 	C 	0.98480 0.60350 0.94000 -0.01200
C 	C 	0.96920 0.59600 0.97620 -0.15100
H 	H 	0.97950 0.62820 0.00270 0.07300
C 	C 	0.93800 0.54070 0.97420 0.05500
H 	H 	0.92780 0.53500 0.00010 0.01700
N 	N 	0.14090 0.65060 0.82190 -0.27100
C 	C 	0.15060 0.70840 0.85550 0.08600
H 	H 	0.17450 0.73750 0.85980 -0.00500
C 	C 	0.12690 0.72730 0.88410 -0.10100
H 	H 	0.13420 0.77060 0.90690 0.10400
C 	C 	0.09280 0.68320 0.87960 0.09400
C 	C 	0.08390 0.62130 0.84540 -0.10200
H 	H 	0.06090 0.58810 0.84160 0.09400
C 	C 	0.10810 0.60740 0.81670 0.08800
H 	H 	0.10120 0.56610 0.79290 -0.01200
N 	N 	0.72070 0.54680 0.76960 -0.14300
N 	N 	0.73600 0.68540 0.80710 -0.13400
N 	N 	0.68270 0.67280 0.74560 -0.12700
C 	C 	0.69260 0.58740 0.74420 0.11400
C 	C 	0.74100 0.59730 0.80230 0.09600
C 	C 	0.70630 0.72000 0.77790 0.10500
N 	N 	0.62210 0.44140 0.63820 -0.36500
C 	C 	0.61590 0.52610 0.64620 0.10600
H 	H 	0.59410 0.55450 0.62890 -0.00600
C 	C 	0.63970 0.57450 0.67840 -0.13100
H 	H 	0.63580 0.63690 0.68070 0.11500
C 	C 	0.66840 0.53470 0.70660 0.08800
C 	C 	0.67470 0.44700 0.69930 -0.14200
H 	H 	0.69490 0.41610 0.71840 0.08300
C 	C 	0.65140 0.40290 0.66380 0.09200
H 	H 	0.65700 0.34270 0.65790 -0.05900
N 	N 	0.83390 0.46990 0.89060 -0.27900
C 	C 	0.80920 0.42490 0.86050 0.07600
H 	H 	0.81280 0.36230 0.85860 -0.00700
C 	C 	0.77860 0.46250 0.83170 -0.12000
H 	H 	0.76170 0.42610 0.81110 0.08900
C 	C 	0.77270 0.55400 0.83300 0.04800
C 	C 	0.79810 0.60270 0.86450 -0.11200
H 	H 	0.79520 0.66530 0.86750 0.10400
C 	C 	0.82830 0.55610 0.89210 0.06700
H 	H 	0.84590 0.58980 0.91320 0.02500
N 	N 	0.68510 0.99980 0.77630 -0.27500
C 	C 	0.71580 0.96440 0.80240 0.08600
H 	H 	0.73330 0.00350 0.82060 -0.00800
C 	C 	0.72370 0.87460 0.80480 -0.12900
H 	H 	0.74590 0.85290 0.82450 0.09300
C 	C 	0.69940 0.81720 0.77870 0.07200
C 	C 	0.66750 0.85340 0.74880 -0.12300
H 	H 	0.65050 0.81610 0.72880 0.09600
C 	C 	0.66200 0.94300 0.74940 0.07700
H 	H 	0.64030 0.96700 0.72960 -0.01400
Zn	Zn	0.62299 0.09068 0.06537 1.16300
Zn	Zn	0.41440 0.37260 0.91230 0.64500
Zn	Zn	0.42900 0.61000 0.40430 0.57200
Zn	Zn	0.82716 0.36472 0.22602 1.16200
I 	I 	0.60599 0.23340 0.10141 -0.35300
I 	I 	0.63630 0.07140 0.98420 -0.23100
I 	I 	0.64175 0.09320 0.99170 -0.05000
I 	I 	0.37872 0.26093 0.95262 -2.47700
I 	I 	0.39570 0.73570 0.43992 1.95100
I 	I 	0.46703 0.33708 0.87392 5.16900
I 	I 	0.48320 0.62870 0.36515 -5.51500
I 	I 	0.87351 0.33549 0.30126 -0.40100
I 	I 	0.36590 0.82180 0.28810 -0.11700
I 	I 	0.76790 0.27310 0.20170 -0.01600
I 	I 	0.25870 0.79170 0.18650 -0.30900
N 	N 	0.42560 0.72570 0.06470 -0.09500
N 	N 	0.47570 0.77180 0.03020 -0.19100
N 	N 	0.46200 0.85520 0.09110 -0.13500
C 	C 	0.44790 0.71520 0.03630 0.11600
C 	C 	0.48250 0.83820 0.06030 0.02400
C 	C 	0.43270 0.79900 0.09030 0.13400
N 	N 	0.43150 0.48070 0.95510 -0.33000
C 	C 	0.40820 0.50040 0.98140 0.05900
H 	H 	0.38800 0.46050 0.98270 0.02500
C 	C 	0.41210 0.57810 0.00740 -0.06500
H 	H 	0.39390 0.59240 0.02460 0.10100
C 	C 	0.44260 0.63330 0.00780 0.04200
C 	C 	0.46800 0.61040 0.98140 -0.06400
H 	H 	0.48970 0.64600 0.98140 0.03900
C 	C 	0.46070 0.53390 0.95480 0.01500
H 	H 	0.47740 0.51960 0.93590 0.05900
N 	N 	0.57850 0.00500 0.06230 -0.28200
C 	C 	0.56420 0.99390 0.09670 0.06600
H 	H 	0.57670 0.02300 0.12330 -0.02200
C 	C 	0.53230 0.94330 0.09890 -0.17100
H 	H 	0.52250 0.94050 0.12520 0.06900
C 	C 	0.51520 0.89650 0.06000 -0.01200
C 	C 	0.53080 0.90400 0.02380 -0.15200
H 	H 	0.52050 0.87180 0.99730 0.07400
C 	C 	0.56200 0.95930 0.02580 0.05400
H 	H 	0.57220 0.96500 0.99990 0.01800
N 	N 	0.35910 0.84940 0.17810 -0.27100
C 	C 	0.34940 0.79160 0.14450 0.08600
H 	H 	0.32550 0.76250 0.14020 -0.00500
C 	C 	0.37310 0.77270 0.11590 -0.10100
H 	H 	0.36580 0.72940 0.09310 0.10400
C 	C 	0.40720 0.81680 0.12040 0.09400
C 	C 	0.41610 0.87870 0.15460 -0.10200
H 	H 	0.43910 0.91190 0.15840 0.09400
C 	C 	0.39190 0.89260 0.18330 0.08800
H 	H 	0.39880 0.93390 0.20710 -0.01200
N 	N 	0.77930 0.95320 0.23040 -0.14300
N 	N 	0.76400 0.81460 0.19290 -0.13400
N 	N 	0.81730 0.82720 0.25440 -0.12700
C 	C 	0.80740 0.91260 0.25580 0.11400
C 	C 	0.75900 0.90270 0.19770 0.09700
C 	C 	0.79370 0.78000 0.22210 0.10500
N 	N 	0.87790 0.05860 0.36180 -0.36400
C 	C 	0.88410 0.97390 0.35380 0.10500
H 	H 	0.90590 0.94550 0.37110 -0.00600
C 	C 	0.86030 0.92550 0.32160 -0.13000
H 	H 	0.86420 0.86310 0.31930 0.11500
C 	C 	0.83160 0.96530 0.29340 0.08600
C 	C 	0.82530 0.05300 0.30070 -0.14100
H 	H 	0.80510 0.08390 0.28160 0.08300
C 	C 	0.84860 0.09710 0.33620 0.09100
H 	H 	0.84300 0.15730 0.34210 -0.05900
N 	N 	0.66610 0.03010 0.10940 -0.27900
C 	C 	0.69080 0.07510 0.13950 0.07500
H 	H 	0.68720 0.13770 0.14140 -0.00600
C 	C 	0.72140 0.03750 0.16830 -0.11800
H 	H 	0.73830 0.07390 0.18890 0.08900
C 	C 	0.72730 0.94600 0.16700 0.04700
C 	C 	0.70190 0.89730 0.13550 -0.11100
H 	H 	0.70480 0.83470 0.13250 0.10300
C 	C 	0.67170 0.94390 0.10790 0.06600
H 	H 	0.65410 0.91020 0.08680 0.02500
N 	N 	0.81490 0.50020 0.22370 -0.27500
C 	C 	0.78420 0.53560 0.19760 0.08400
H 	H 	0.76670 0.49650 0.17940 -0.00700
C 	C 	0.77630 0.62540 0.19520 -0.12900
H 	H 	0.75410 0.64710 0.17550 0.09300
C 	C 	0.80060 0.68280 0.22130 0.07100
C 	C 	0.83250 0.64660 0.25120 -0.12300
H 	H 	0.84950 0.68390 0.27120 0.09600
C 	C 	0.83800 0.55700 0.25060 0.07700
H 	H 	0.85970 0.53300 0.27040 -0.01400
Zn	Zn	0.12299 0.59068 0.06537 1.16300
Zn	Zn	0.91440 0.87260 0.91230 0.64500
Zn	Zn	0.92900 0.11000 0.40430 0.57300
Zn	Zn	0.32716 0.86472 0.22602 1.16200
I 	I 	0.10599 0.73340 0.10141 -0.35400
I 	I 	0.13630 0.57140 0.98420 -0.23100
I 	I 	0.14175 0.59320 0.99170 -0.05000
I 	I 	0.87872 0.76093 0.95262 -2.47700
I 	I 	0.89570 0.23570 0.43992 1.95000
I 	I 	0.96703 0.83708 0.87392 5.16300
I 	I 	0.98320 0.12870 0.36515 -5.51000
I 	I 	0.37351 0.83549 0.30126 -0.40100
I 	I 	0.86590 0.32180 0.28810 -0.11600
I 	I 	0.26790 0.77310 0.20170 -0.01600
I 	I 	0.75870 0.29170 0.18650 -0.30900
N 	N 	0.92560 0.22570 0.06470 -0.09600
N 	N 	0.97570 0.27180 0.03020 -0.19100
N 	N 	0.96200 0.35520 0.09110 -0.13500
C 	C 	0.94790 0.21520 0.03630 0.11600
C 	C 	0.98250 0.33820 0.06030 0.02400
C 	C 	0.93270 0.29900 0.09030 0.13400
N 	N 	0.93150 0.98070 0.95510 -0.32900
C 	C 	0.90820 0.00040 0.98140 0.05700
H 	H 	0.88800 0.96050 0.98270 0.02600
C 	C 	0.91210 0.07810 0.00740 -0.06400
H 	H 	0.89390 0.09240 0.02460 0.10000
C 	C 	0.94260 0.13330 0.00780 0.04200
C 	C 	0.96800 0.11040 0.98140 -0.06300
H 	H 	0.98970 0.14600 0.98140 0.03800
C 	C 	0.96070 0.03390 0.95480 0.01400
H 	H 	0.97740 0.01960 0.93590 0.05800
N 	N 	0.07850 0.50500 0.06230 -0.28300
C 	C 	0.06420 0.49390 0.09670 0.06900
H 	H 	0.07670 0.52300 0.12330 -0.02300
C 	C 	0.03230 0.44330 0.09890 -0.17200
H 	H 	0.02250 0.44050 0.12520 0.06900
C 	C 	0.01520 0.39650 0.06000 -0.01200
C 	C 	0.03080 0.40400 0.02380 -0.15100
H 	H 	0.02050 0.37180 0.99730 0.07300
C 	C 	0.06200 0.45930 0.02580 0.05500
H 	H 	0.07220 0.46500 0.99990 0.01700
N 	N 	0.85910 0.34940 0.17810 -0.27100
C 	C 	0.84940 0.29160 0.14450 0.08600
H 	H 	0.82550 0.26250 0.14020 -0.00500
C 	C 	0.87310 0.27270 0.11590 -0.10100
H 	H 	0.86580 0.22940 0.09310 0.10400
C 	C 	0.90720 0.31680 0.12040 0.09400
C 	C 	0.91610 0.37870 0.15460 -0.10200
H 	H 	0.93910 0.41190 0.15840 0.09400
C 	C 	0.89190 0.39260 0.18330 0.08800
H 	H 	0.89880 0.43390 0.20710 -0.01200
N 	N 	0.27930 0.45320 0.23040 -0.14300
N 	N 	0.26400 0.31460 0.19290 -0.13400
N 	N 	0.31730 0.32720 0.25440 -0.12700
C 	C 	0.30740 0.41260 0.25580 0.11400
C 	C 	0.25900 0.40270 0.19770 0.09600
C 	C 	0.29370 0.28000 0.22210 0.10500
N 	N 	0.37790 0.55860 0.36180 -0.36500
C 	C 	0.38410 0.47390 0.35380 0.10600
H 	H 	0.40590 0.44550 0.37110 -0.00600
C 	C 	0.36030 0.42550 0.32160 -0.13100
H 	H 	0.36420 0.36310 0.31930 0.11500
C 	C 	0.33160 0.46530 0.29340 0.08800
C 	C 	0.32530 0.55300 0.30070 -0.14200
H 	H 	0.30510 0.58390 0.28160 0.08300
C 	C 	0.34860 0.59710 0.33620 0.09200
H 	H 	0.34300 0.65730 0.34210 -0.05900
N 	N 	0.16610 0.53010 0.10940 -0.27900
C 	C 	0.19080 0.57510 0.13950 0.07600
H 	H 	0.18720 0.63770 0.14140 -0.00700
C 	C 	0.22140 0.53750 0.16830 -0.12000
H 	H 	0.23830 0.57390 0.18890 0.08900
C 	C 	0.22730 0.44600 0.16700 0.04800
C 	C 	0.20190 0.39730 0.13550 -0.11200
H 	H 	0.20480 0.33470 0.13250 0.10400
C 	C 	0.17170 0.44390 0.10790 0.06700
H 	H 	0.15410 0.41020 0.08680 0.02500
N 	N 	0.31490 0.00020 0.22370 -0.27500
C 	C 	0.28420 0.03560 0.19760 0.08600
H 	H 	0.26670 0.99650 0.17940 -0.00800
C 	C 	0.27630 0.12540 0.19520 -0.12900
H 	H 	0.25410 0.14710 0.17550 0.09300
C 	C 	0.30060 0.18280 0.22130 0.07200
C 	C 	0.33250 0.14660 0.25120 -0.12300
H 	H 	0.34950 0.18390 0.27120 0.09600
C 	C 	0.33800 0.05700 0.25060 0.07700
H 	H 	0.35970 0.03300 0.27040 -0.01400
Zn	Zn	0.62299 0.90932 0.56537 1.16300
Zn	Zn	0.41440 0.62740 0.41230 0.64500
Zn	Zn	0.42900 0.39000 0.90430 0.57200
Zn	Zn	0.82716 0.63528 0.72602 1.16200
I 	I 	0.60599 0.76660 0.60141 -0.35300
I 	I 	0.63630 0.92860 0.48420 -0.23100
I 	I 	0.64175 0.90680 0.49170 -0.05000
I 	I 	0.37872 0.73907 0.45262 -2.47800
I 	I 	0.39570 0.26430 0.93992 1.95100
I 	I 	0.46703 0.66292 0.37392 5.16900
I 	I 	0.48320 0.37130 0.86515 -5.51500
I 	I 	0.87351 0.66451 0.80126 -0.40100
I 	I 	0.36590 0.17820 0.78810 -0.11700
I 	I 	0.76790 0.72690 0.70170 -0.01600
I 	I 	0.25870 0.20830 0.68650 -0.30900
N 	N 	0.42560 0.27430 0.56470 -0.09500
N 	N 	0.47570 0.22820 0.53020 -0.19100
N 	N 	0.46200 0.14480 0.59110 -0.13500
C 	C 	0.44790 0.28480 0.53630 0.11600
C 	C 	0.48250 0.16180 0.56030 0.02400
C 	C 	0.43270 0.20100 0.59030 0.13400
N 	N 	0.43150 0.51930 0.45510 -0.33000
C 	C 	0.40820 0.49960 0.48140 0.05900
H 	H 	0.38800 0.53950 0.48270 0.02500
C 	C 	0.41210 0.42190 0.50740 -0.06500
H 	H 	0.39390 0.40760 0.52460 0.10100
C 	C 	0.44260 0.36670 0.50780 0.04300
C 	C 	0.46800 0.38960 0.48140 -0.06400
H 	H 	0.48970 0.35400 0.48140 0.03900
C 	C 	0.46070 0.46610 0.45480 0.01500
H 	H 	0.47740 0.48040 0.43590 0.05900
N 	N 	0.57850 0.99500 0.56230 -0.28300
C 	C 	0.56420 0.00610 0.59670 0.06700
H 	H 	0.57670 0.97700 0.62330 -0.02300
C 	C 	0.53230 0.05670 0.59890 -0.17200
H 	H 	0.52250 0.05950 0.62520 0.06900
C 	C 	0.51520 0.10350 0.56000 -0.01200
C 	C 	0.53080 0.09600 0.52380 -0.15200
H 	H 	0.52050 0.12820 0.49730 0.07400
C 	C 	0.56200 0.04070 0.52580 0.05500
H 	H 	0.57220 0.03500 0.49990 0.01800
N 	N 	0.35910 0.15060 0.67810 -0.27100
C 	C 	0.34940 0.20840 0.64450 0.08600
H 	H 	0.32550 0.23750 0.64020 -0.00500
C 	C 	0.37310 0.22730 0.61590 -0.10100
H 	H 	0.36580 0.27060 0.59310 0.10400
C 	C 	0.40720 0.18320 0.62040 0.09400
C 	C 	0.41610 0.12130 0.65460 -0.10200
H 	H 	0.43910 0.08810 0.65840 0.09400
C 	C 	0.39190 0.10740 0.68330 0.08800
H 	H 	0.39880 0.06610 0.70710 -0.01200
N 	N 	0.77930 0.04680 0.73040 -0.14300
N 	N 	0.76400 0.18540 0.69290 -0.13400
N 	N 	0.81730 0.17280 0.75440 -0.12700
C 	C 	0.80740 0.08740 0.75580 0.11400
C 	C 	0.75900 0.09730 0.69770 0.09700
C 	C 	0.79370 0.22000 0.72210 0.10500
N 	N 	0.87790 0.94140 0.86180 -0.36400
C 	C 	0.88410 0.02610 0.85380 0.10500
H 	H 	0.90590 0.05450 0.87110 -0.00600
C 	C 	0.86030 0.07450 0.82160 -0.13000
H 	H 	0.86420 0.13690 0.81930 0.11500
C 	C 	0.83160 0.03470 0.79340 0.08600
C 	C 	0.82530 0.94700 0.80070 -0.14100
H 	H 	0.80510 0.91610 0.78160 0.08300
C 	C 	0.84860 0.90290 0.83620 0.09100
H 	H 	0.84300 0.84270 0.84210 -0.05900
N 	N 	0.66610 0.96990 0.60940 -0.27900
C 	C 	0.69080 0.92490 0.63950 0.07500
H 	H 	0.68720 0.86230 0.64140 -0.00600
C 	C 	0.72140 0.96250 0.66830 -0.11900
H 	H 	0.73830 0.92610 0.68890 0.08900
C 	C 	0.72730 0.05400 0.66700 0.04700
C 	C 	0.70190 0.10270 0.63550 -0.11100
H 	H 	0.70480 0.16530 0.63250 0.10300
C 	C 	0.67170 0.05610 0.60790 0.06700
H 	H 	0.65410 0.08980 0.58680 0.02500
N 	N 	0.81490 0.49980 0.72370 -0.27500
C 	C 	0.78420 0.46440 0.69760 0.08400
H 	H 	0.76670 0.50350 0.67940 -0.00700
C 	C 	0.77630 0.37460 0.69520 -0.12900
H 	H 	0.75410 0.35290 0.67550 0.09300
C 	C 	0.80060 0.31720 0.72130 0.07100
C 	C 	0.83250 0.35340 0.75120 -0.12300
H 	H 	0.84950 0.31610 0.77120 0.09600
C 	C 	0.83800 0.44300 0.75060 0.07700
H 	H 	0.85970 0.46700 0.77040 -0.01400
Zn	Zn	0.12299 0.40932 0.56537 1.16300
Zn	Zn	0.91440 0.12740 0.41230 0.64500
Zn	Zn	0.92900 0.89000 0.90430 0.57300
Zn	Zn	0.32716 0.13528 0.72602 1.16200
I 	I 	0.10599 0.26660 0.60141 -0.35300
I 	I 	0.13630 0.42860 0.48420 -0.23100
I 	I 	0.14175 0.40680 0.49170 -0.05000
I 	I 	0.87872 0.23907 0.45262 -2.47700
I 	I 	0.89570 0.76430 0.93992 1.95000
I 	I 	0.96703 0.16292 0.37392 5.16300
I 	I 	0.98320 0.87130 0.86515 -5.51000
I 	I 	0.37351 0.16451 0.80126 -0.40100
I 	I 	0.86590 0.67820 0.78810 -0.11600
I 	I 	0.26790 0.22690 0.70170 -0.01600
I 	I 	0.75870 0.70830 0.68650 -0.30900
N 	N 	0.92560 0.77430 0.56470 -0.09600
N 	N 	0.97570 0.72820 0.53020 -0.19100
N 	N 	0.96200 0.64480 0.59110 -0.13500
C 	C 	0.94790 0.78480 0.53630 0.11600
C 	C 	0.98250 0.66180 0.56030 0.02400
C 	C 	0.93270 0.70100 0.59030 0.13400
N 	N 	0.93150 0.01930 0.45510 -0.33000
C 	C 	0.90820 0.99960 0.48140 0.05900
H 	H 	0.88800 0.03950 0.48270 0.02500
C 	C 	0.91210 0.92190 0.50740 -0.06500
H 	H 	0.89390 0.90760 0.52460 0.10000
C 	C 	0.94260 0.86670 0.50780 0.04200
C 	C 	0.96800 0.88960 0.48140 -0.06400
H 	H 	0.98970 0.85400 0.48140 0.03800
C 	C 	0.96070 0.96610 0.45480 0.01500
H 	H 	0.97740 0.98040 0.43590 0.05800
N 	N 	0.07850 0.49500 0.56230 -0.28300
C 	C 	0.06420 0.50610 0.59670 0.06900
H 	H 	0.07670 0.47700 0.62330 -0.02300
C 	C 	0.03230 0.55670 0.59890 -0.17200
H 	H 	0.02250 0.55950 0.62520 0.06900
C 	C 	0.01520 0.60350 0.56000 -0.01100
C 	C 	0.03080 0.59600 0.52380 -0.15200
H 	H 	0.02050 0.62820 0.49730 0.07400
C 	C 	0.06200 0.54070 0.52580 0.05500
H 	H 	0.07220 0.53500 0.49990 0.01700
N 	N 	0.85910 0.65060 0.67810 -0.27100
C 	C 	0.84940 0.70840 0.64450 0.08600
H 	H 	0.82550 0.73750 0.64020 -0.00500
C 	C 	0.87310 0.72730 0.61590 -0.10100
H 	H 	0.86580 0.77060 0.59310 0.10400
C 	C 	0.90720 0.68320 0.62040 0.09400
C 	C 	0.91610 0.62130 0.65460 -0.10200
H 	H 	0.93910 0.58810 0.65840 0.09400
C 	C 	0.89190 0.60740 0.68330 0.08800
H 	H 	0.89880 0.56610 0.70710 -0.01200
N 	N 	0.27930 0.54680 0.73040 -0.14300
N 	N 	0.26400 0.68540 0.69290 -0.13400
N 	N 	0.31730 0.67280 0.75440 -0.12700
C 	C 	0.30740 0.58740 0.75580 0.11400
C 	C 	0.25900 0.59730 0.69770 0.09600
C 	C 	0.29370 0.72000 0.72210 0.10500
N 	N 	0.37790 0.44140 0.86180 -0.36500
C 	C 	0.38410 0.52610 0.85380 0.10600
H 	H 	0.40590 0.55450 0.87110 -0.00600
C 	C 	0.36030 0.57450 0.82160 -0.13100
H 	H 	0.36420 0.63690 0.81930 0.11500
C 	C 	0.33160 0.53470 0.79340 0.08800
C 	C 	0.32530 0.44700 0.80070 -0.14200
H 	H 	0.30510 0.41610 0.78160 0.08300
C 	C 	0.34860 0.40290 0.83620 0.09200
H 	H 	0.34300 0.34270 0.84210 -0.05900
N 	N 	0.16610 0.46990 0.60940 -0.27900
C 	C 	0.19080 0.42490 0.63950 0.07600
H 	H 	0.18720 0.36230 0.64140 -0.00700
C 	C 	0.22140 0.46250 0.66830 -0.12000
H 	H 	0.23830 0.42610 0.68890 0.08900
C 	C 	0.22730 0.55400 0.66700 0.04800
C 	C 	0.20190 0.60270 0.63550 -0.11200
H 	H 	0.20480 0.66530 0.63250 0.10400
C 	C 	0.17170 0.55610 0.60790 0.06700
H 	H 	0.15410 0.58980 0.58680 0.02500
N 	N 	0.31490 0.99980 0.72370 -0.27500
C 	C 	0.28420 0.96440 0.69760 0.08500
H 	H 	0.26670 0.00350 0.67940 -0.00700
C 	C 	0.27630 0.87460 0.69520 -0.12900
H 	H 	0.25410 0.85290 0.67550 0.09300
C 	C 	0.30060 0.81720 0.72130 0.07200
C 	C 	0.33250 0.85340 0.75120 -0.12300
H 	H 	0.34950 0.81610 0.77120 0.09600
C 	C 	0.33800 0.94300 0.75060 0.07700
H 	H 	0.35970 0.96700 0.77040 -0.01400
