data_crystal

_cell_length_a 35.31600
_cell_length_b 14.72470
_cell_length_c 31.76600
_cell_angle_alpha 90.00000
_cell_angle_beta  101.90600
_cell_angle_gamma 90.00000

_symmetry_space_group_name_	'P 1'
_symmetry_space_group_name_H-M	'P 1'

loop_
_symmetry_equiv_pos_as_xyz
  x,y,z

loop_
_atom_site_label
_atom_site_type_symbol
_atom_site_fract_x
_atom_site_fract_y
_atom_site_fract_z
_atom_site_charge
Zn	Zn	0.37555 0.09258 0.43489 1.16400
Zn	Zn	0.58601 0.37980 0.59489 1.16200
Zn	Zn	0.67242 0.84858 0.27190 1.16200
I 	I 	0.35492 0.08869 0.50682 -0.36900
I 	I 	0.39256 0.23665 0.39840 -0.38100
I 	I 	0.62456 0.26466 0.56265 -0.38500
I 	I 	0.52541 0.35057 0.62470 -0.21800
I 	I 	0.62825 0.83335 0.19774 -0.40300
I 	I 	0.73423 0.75683 0.29336 -0.38100
N 	N 	0.57850 0.72360 0.43848 -0.13500
N 	N 	0.52751 0.77270 0.47087 -0.14900
N 	N 	0.54096 0.85110 0.41077 -0.13700
C 	C 	0.55592 0.71630 0.46780 0.09400
C 	C 	0.52080 0.83700 0.44100 0.09600
C 	C 	0.57035 0.79400 0.41160 0.10600
N 	N 	0.57445 0.48690 0.55104 -0.27000
C 	C 	0.60080 0.51260 0.52930 0.07300
H 	H 	0.62390 0.47790 0.53240 -0.01500
C 	C 	0.59660 0.58720 0.50230 -0.11800
H 	H 	0.61660 0.60440 0.48800 0.07900
C 	C 	0.56255 0.63620 0.49660 0.04900
C 	C 	0.53440 0.60960 0.51920 -0.11100
H 	H 	0.51090 0.64270 0.51650 0.06900
C 	C 	0.54130 0.53490 0.54540 0.06300
H 	H 	0.52190 0.51610 0.56030 -0.00800
N 	N 	0.42202 0.00670 0.43839 -0.27800
C 	C 	0.43880 0.99750 0.40470 0.07900
H 	H 	0.42730 0.02800 0.37880 -0.01500
C 	C 	0.47150 0.94710 0.40470 -0.12900
H 	H 	0.48330 0.94650 0.38040 0.08700
C 	C 	0.48670 0.89750 0.44090 0.05900
C 	C 	0.46940 0.90360 0.47530 -0.13600
H 	H 	0.47910 0.87010 0.50070 0.08200
C 	C 	0.43770 0.95840 0.47280 0.08500
H 	H 	0.42630 0.96200 0.49730 -0.00900
N 	N 	0.64059 0.83000 0.31857 -0.27900
C 	C 	0.65290 0.78350 0.35490 0.07900
H 	H 	0.67800 0.75750 0.35960 -0.01200
C 	C 	0.63170 0.77100 0.38550 -0.12300
H 	H 	0.64220 0.73800 0.41090 0.08700
C 	C 	0.59460 0.80690 0.37950 0.06500
C 	C 	0.58150 0.85510 0.34200 -0.12200
H 	H 	0.55650 0.88180 0.33660 0.08400
C 	C 	0.60490 0.86410 0.31270 0.07500
H 	H 	0.59520 0.89640 0.28680 -0.01800
N 	N 	0.22085 0.94710 0.27377 -0.14100
N 	N 	0.23431 0.80720 0.31170 -0.13900
N 	N 	0.18096 0.81940 0.25253 -0.13400
C 	C 	0.19111 0.90620 0.24870 0.10300
C 	C 	0.24063 0.89520 0.30580 0.09100
C 	C 	0.20419 0.77240 0.28380 0.10300
N 	N 	0.12291 0.05260 0.14435 -0.27000
C 	C 	0.11400 0.96840 0.15350 0.07600
H 	H 	0.09190 0.94080 0.13610 -0.00800
C 	C 	0.13500 0.91930 0.18670 -0.11800
H 	H 	0.12760 0.85900 0.19200 0.09100
C 	C 	0.16750 0.95900 0.21290 0.05500
C 	C 	0.17610 0.04750 0.20440 -0.12300
H 	H 	0.19720 0.07780 0.22230 0.07800
C 	C 	0.15370 0.09220 0.16940 0.06300
H 	H 	0.16030 0.15240 0.16300 -0.00800
N 	N 	0.33301 0.02750 0.39121 -0.27100
C 	C 	0.31560 0.06590 0.35350 0.06900
H 	H 	0.32430 0.12380 0.34630 -0.00200
C 	C 	0.28600 0.02490 0.32530 -0.12400
H 	H 	0.27430 0.05430 0.29930 0.09000
C 	C 	0.27344 0.94040 0.33510 0.04900
C 	C 	0.29120 0.89940 0.37360 -0.11300
H 	H 	0.28360 0.84060 0.38090 0.08500
C 	C 	0.32020 0.94600 0.40080 0.06900
H 	H 	0.33150 0.91910 0.42760 0.00100
N 	N 	0.18407 0.48710 0.27957 -0.27100
C 	C 	0.21530 0.52180 0.30540 0.07600
H 	H 	0.23340 0.48150 0.32220 -0.01200
C 	C 	0.22240 0.61300 0.30870 -0.12400
H 	H 	0.24480 0.63500 0.32780 0.08100
C 	C 	0.19700 0.67330 0.28430 0.05800
C 	C 	0.16420 0.63700 0.25770 -0.11600
H 	H 	0.14580 0.67570 0.24020 0.08200
C 	C 	0.15850 0.54460 0.25690 0.06300
H 	H 	0.13550 0.52070 0.23950 -0.01300
I 	I 	0.52640 0.64980 0.11840 -0.10800
Zn	Zn	0.87555 0.59258 0.43489 1.16500
Zn	Zn	0.08601 0.87980 0.59489 1.16300
Zn	Zn	0.17242 0.34858 0.27190 1.16300
I 	I 	0.85492 0.58869 0.50682 -0.36800
I 	I 	0.89256 0.73665 0.39840 -0.38000
I 	I 	0.12456 0.76466 0.56265 -0.38400
I 	I 	0.02541 0.85057 0.62470 -0.21700
I 	I 	0.12825 0.33335 0.19774 -0.40200
I 	I 	0.23423 0.25683 0.29336 -0.38000
N 	N 	0.07850 0.22360 0.43848 -0.13400
N 	N 	0.02751 0.27270 0.47087 -0.14800
N 	N 	0.04096 0.35110 0.41077 -0.13600
C 	C 	0.05592 0.21630 0.46780 0.09500
C 	C 	0.02080 0.33700 0.44100 0.09700
C 	C 	0.07035 0.29400 0.41160 0.10700
N 	N 	0.07445 0.98690 0.55104 -0.26900
C 	C 	0.10080 0.01260 0.52930 0.07400
H 	H 	0.12390 0.97790 0.53240 -0.01400
C 	C 	0.09660 0.08720 0.50230 -0.11800
H 	H 	0.11660 0.10440 0.48800 0.07900
C 	C 	0.06255 0.13620 0.49660 0.04900
C 	C 	0.03440 0.10960 0.51920 -0.11100
H 	H 	0.01090 0.14270 0.51650 0.06900
C 	C 	0.04130 0.03490 0.54540 0.06300
H 	H 	0.02190 0.01610 0.56030 -0.00800
N 	N 	0.92202 0.50670 0.43839 -0.27800
C 	C 	0.93880 0.49750 0.40470 0.07900
H 	H 	0.92730 0.52800 0.37880 -0.01500
C 	C 	0.97150 0.44710 0.40470 -0.12900
H 	H 	0.98330 0.44650 0.38040 0.08700
C 	C 	0.98670 0.39750 0.44090 0.05900
C 	C 	0.96940 0.40360 0.47530 -0.13600
H 	H 	0.97910 0.37010 0.50070 0.08200
C 	C 	0.93770 0.45840 0.47280 0.08500
H 	H 	0.92630 0.46200 0.49730 -0.00900
N 	N 	0.14059 0.33000 0.31857 -0.27900
C 	C 	0.15290 0.28350 0.35490 0.07900
H 	H 	0.17800 0.25750 0.35960 -0.01200
C 	C 	0.13170 0.27100 0.38550 -0.12300
H 	H 	0.14220 0.23800 0.41090 0.08700
C 	C 	0.09460 0.30690 0.37950 0.06500
C 	C 	0.08150 0.35510 0.34200 -0.12200
H 	H 	0.05650 0.38180 0.33660 0.08400
C 	C 	0.10490 0.36410 0.31270 0.07500
H 	H 	0.09520 0.39640 0.28680 -0.01800
N 	N 	0.72085 0.44710 0.27377 -0.14100
N 	N 	0.73431 0.30720 0.31170 -0.13900
N 	N 	0.68096 0.31940 0.25253 -0.13400
C 	C 	0.69111 0.40620 0.24870 0.10300
C 	C 	0.74063 0.39520 0.30580 0.09100
C 	C 	0.70419 0.27240 0.28380 0.10300
N 	N 	0.62291 0.55260 0.14435 -0.27000
C 	C 	0.61400 0.46840 0.15350 0.07500
H 	H 	0.59190 0.44080 0.13610 -0.00800
C 	C 	0.63500 0.41930 0.18670 -0.11800
H 	H 	0.62760 0.35900 0.19200 0.09100
C 	C 	0.66750 0.45900 0.21290 0.05500
C 	C 	0.67610 0.54750 0.20440 -0.12200
H 	H 	0.69720 0.57780 0.22230 0.07800
C 	C 	0.65370 0.59220 0.16940 0.06300
H 	H 	0.66030 0.65240 0.16300 -0.00800
N 	N 	0.83301 0.52750 0.39121 -0.27100
C 	C 	0.81560 0.56590 0.35350 0.06800
H 	H 	0.82430 0.62380 0.34630 -0.00200
C 	C 	0.78600 0.52490 0.32530 -0.12400
H 	H 	0.77430 0.55430 0.29930 0.09000
C 	C 	0.77344 0.44040 0.33510 0.04900
C 	C 	0.79120 0.39940 0.37360 -0.11300
H 	H 	0.78360 0.34060 0.38090 0.08500
C 	C 	0.82020 0.44600 0.40080 0.06900
H 	H 	0.83150 0.41910 0.42760 0.00100
N 	N 	0.68407 0.98710 0.27957 -0.27100
C 	C 	0.71530 0.02180 0.30540 0.07600
H 	H 	0.73340 0.98150 0.32220 -0.01200
C 	C 	0.72240 0.11300 0.30870 -0.12400
H 	H 	0.74480 0.13500 0.32780 0.08100
C 	C 	0.69700 0.17330 0.28430 0.05800
C 	C 	0.66420 0.13700 0.25770 -0.11600
H 	H 	0.64580 0.17570 0.24020 0.08200
C 	C 	0.65850 0.04460 0.25690 0.06300
H 	H 	0.63550 0.02070 0.23950 -0.01300
I 	I 	0.02640 0.14980 0.11840 -0.10900
Zn	Zn	0.37555 0.90742 0.93489 1.16500
Zn	Zn	0.58601 0.62020 0.09489 1.16300
Zn	Zn	0.67242 0.15142 0.77190 1.16300
I 	I 	0.35492 0.91131 0.00682 -0.36800
I 	I 	0.39256 0.76335 0.89840 -0.38000
I 	I 	0.62456 0.73534 0.06265 -0.38400
I 	I 	0.52541 0.64943 0.12470 -0.21700
I 	I 	0.62825 0.16665 0.69774 -0.40200
I 	I 	0.73423 0.24317 0.79335 -0.38000
N 	N 	0.57850 0.27640 0.93848 -0.13400
N 	N 	0.52751 0.22730 0.97087 -0.14800
N 	N 	0.54096 0.14890 0.91077 -0.13600
C 	C 	0.55592 0.28370 0.96780 0.09500
C 	C 	0.52080 0.16300 0.94100 0.09700
C 	C 	0.57035 0.20600 0.91160 0.10700
N 	N 	0.57445 0.51310 0.05104 -0.26900
C 	C 	0.60080 0.48740 0.02930 0.07400
H 	H 	0.62390 0.52210 0.03240 -0.01400
C 	C 	0.59660 0.41280 0.00230 -0.11800
H 	H 	0.61660 0.39560 0.98800 0.07900
C 	C 	0.56255 0.36380 0.99660 0.04900
C 	C 	0.53440 0.39040 0.01920 -0.11100
H 	H 	0.51090 0.35730 0.01650 0.06900
C 	C 	0.54130 0.46510 0.04540 0.06300
H 	H 	0.52190 0.48390 0.06030 -0.00800
N 	N 	0.42202 0.99330 0.93839 -0.27900
C 	C 	0.43880 0.00250 0.90470 0.08000
H 	H 	0.42730 0.97200 0.87880 -0.01500
C 	C 	0.47150 0.05290 0.90470 -0.12900
H 	H 	0.48330 0.05350 0.88040 0.08700
C 	C 	0.48670 0.10250 0.94090 0.05900
C 	C 	0.46940 0.09640 0.97530 -0.13600
H 	H 	0.47910 0.12990 0.00070 0.08200
C 	C 	0.43770 0.04160 0.97280 0.08500
H 	H 	0.42630 0.03800 0.99730 -0.00900
N 	N 	0.64059 0.17000 0.81857 -0.27900
C 	C 	0.65290 0.21650 0.85490 0.07900
H 	H 	0.67800 0.24250 0.85960 -0.01200
C 	C 	0.63170 0.22900 0.88550 -0.12300
H 	H 	0.64220 0.26200 0.91090 0.08700
C 	C 	0.59460 0.19310 0.87950 0.06500
C 	C 	0.58150 0.14490 0.84200 -0.12200
H 	H 	0.55650 0.11820 0.83660 0.08400
C 	C 	0.60490 0.13590 0.81270 0.07500
H 	H 	0.59520 0.10360 0.78680 -0.01800
N 	N 	0.22085 0.05290 0.77377 -0.14100
N 	N 	0.23431 0.19280 0.81170 -0.13900
N 	N 	0.18096 0.18060 0.75253 -0.13400
C 	C 	0.19111 0.09380 0.74870 0.10300
C 	C 	0.24063 0.10480 0.80580 0.09100
C 	C 	0.20419 0.22760 0.78380 0.10300
N 	N 	0.12291 0.94740 0.64435 -0.27000
C 	C 	0.11400 0.03160 0.65350 0.07500
H 	H 	0.09190 0.05920 0.63610 -0.00800
C 	C 	0.13500 0.08070 0.68670 -0.11800
H 	H 	0.12760 0.14100 0.69200 0.09100
C 	C 	0.16750 0.04100 0.71290 0.05500
C 	C 	0.17610 0.95250 0.70440 -0.12200
H 	H 	0.19720 0.92220 0.72230 0.07800
C 	C 	0.15370 0.90780 0.66940 0.06300
H 	H 	0.16030 0.84760 0.66300 -0.00800
N 	N 	0.33301 0.97250 0.89121 -0.27100
C 	C 	0.31560 0.93410 0.85350 0.06900
H 	H 	0.32430 0.87620 0.84630 -0.00200
C 	C 	0.28600 0.97510 0.82530 -0.12500
H 	H 	0.27430 0.94570 0.79930 0.09100
C 	C 	0.27344 0.05960 0.83510 0.04900
C 	C 	0.29120 0.10060 0.87360 -0.11400
H 	H 	0.28360 0.15940 0.88090 0.08500
C 	C 	0.32020 0.05400 0.90080 0.06900
H 	H 	0.33150 0.08090 0.92760 0.00100
N 	N 	0.18407 0.51290 0.77957 -0.27100
C 	C 	0.21530 0.47820 0.80540 0.07600
H 	H 	0.23340 0.51850 0.82220 -0.01200
C 	C 	0.22240 0.38700 0.80870 -0.12400
H 	H 	0.24480 0.36500 0.82780 0.08100
C 	C 	0.19700 0.32670 0.78430 0.05800
C 	C 	0.16420 0.36300 0.75770 -0.11600
H 	H 	0.14580 0.32430 0.74020 0.08200
C 	C 	0.15850 0.45540 0.75690 0.06300
H 	H 	0.13550 0.47930 0.73950 -0.01300
I 	I 	0.52640 0.35020 0.61840 -0.10800
Zn	Zn	0.87555 0.40742 0.93489 1.16500
Zn	Zn	0.08601 0.12020 0.09489 1.16300
Zn	Zn	0.17242 0.65142 0.77190 1.16300
I 	I 	0.85492 0.41131 0.00682 -0.36800
I 	I 	0.89256 0.26335 0.89840 -0.38000
I 	I 	0.12456 0.23534 0.06265 -0.38400
I 	I 	0.02541 0.14943 0.12470 -0.21700
I 	I 	0.12825 0.66665 0.69774 -0.40200
I 	I 	0.23423 0.74317 0.79336 -0.38000
N 	N 	0.07850 0.77640 0.93848 -0.13400
N 	N 	0.02751 0.72730 0.97087 -0.14800
N 	N 	0.04096 0.64890 0.91077 -0.13600
C 	C 	0.05592 0.78370 0.96780 0.09500
C 	C 	0.02080 0.66300 0.94100 0.09700
C 	C 	0.07035 0.70600 0.91160 0.10700
N 	N 	0.07445 0.01310 0.05104 -0.27000
C 	C 	0.10080 0.98740 0.02930 0.07400
H 	H 	0.12390 0.02210 0.03240 -0.01400
C 	C 	0.09660 0.91280 0.00230 -0.11700
H 	H 	0.11660 0.89560 0.98800 0.07900
C 	C 	0.06255 0.86380 0.99660 0.04800
C 	C 	0.03440 0.89040 0.01920 -0.11100
H 	H 	0.01090 0.85730 0.01650 0.06900
C 	C 	0.04130 0.96510 0.04540 0.06300
H 	H 	0.02190 0.98390 0.06030 -0.00800
N 	N 	0.92202 0.49330 0.93839 -0.27800
C 	C 	0.93880 0.50250 0.90470 0.07900
H 	H 	0.92730 0.47200 0.87880 -0.01500
C 	C 	0.97150 0.55290 0.90470 -0.12900
H 	H 	0.98330 0.55350 0.88040 0.08700
C 	C 	0.98670 0.60250 0.94090 0.05900
C 	C 	0.96940 0.59640 0.97530 -0.13700
H 	H 	0.97910 0.62990 0.00070 0.08200
C 	C 	0.93770 0.54160 0.97280 0.08500
H 	H 	0.92630 0.53800 0.99730 -0.00900
N 	N 	0.14059 0.67000 0.81857 -0.27900
C 	C 	0.15290 0.71650 0.85490 0.07900
H 	H 	0.17800 0.74250 0.85960 -0.01200
C 	C 	0.13170 0.72900 0.88550 -0.12300
H 	H 	0.14220 0.76200 0.91090 0.08700
C 	C 	0.09460 0.69310 0.87950 0.06500
C 	C 	0.08150 0.64490 0.84200 -0.12200
H 	H 	0.05650 0.61820 0.83660 0.08400
C 	C 	0.10490 0.63590 0.81270 0.07500
H 	H 	0.09520 0.60360 0.78680 -0.01800
N 	N 	0.72085 0.55290 0.77377 -0.14100
N 	N 	0.73431 0.69280 0.81170 -0.13900
N 	N 	0.68096 0.68060 0.75253 -0.13400
C 	C 	0.69111 0.59380 0.74870 0.10300
C 	C 	0.74063 0.60480 0.80580 0.09100
C 	C 	0.70419 0.72760 0.78380 0.10300
N 	N 	0.62291 0.44740 0.64435 -0.27000
C 	C 	0.61400 0.53160 0.65350 0.07500
H 	H 	0.59190 0.55920 0.63610 -0.00800
C 	C 	0.63500 0.58070 0.68670 -0.11800
H 	H 	0.62760 0.64100 0.69200 0.09100
C 	C 	0.66750 0.54100 0.71290 0.05500
C 	C 	0.67610 0.45250 0.70440 -0.12200
H 	H 	0.69720 0.42220 0.72230 0.07800
C 	C 	0.65370 0.40780 0.66940 0.06300
H 	H 	0.66030 0.34760 0.66300 -0.00800
N 	N 	0.83301 0.47250 0.89121 -0.27100
C 	C 	0.81560 0.43410 0.85350 0.06800
H 	H 	0.82430 0.37620 0.84630 -0.00200
C 	C 	0.78600 0.47510 0.82530 -0.12400
H 	H 	0.77430 0.44570 0.79930 0.09000
C 	C 	0.77344 0.55960 0.83510 0.04900
C 	C 	0.79120 0.60060 0.87360 -0.11300
H 	H 	0.78360 0.65940 0.88090 0.08500
C 	C 	0.82020 0.55400 0.90080 0.06900
H 	H 	0.83150 0.58090 0.92760 0.00100
N 	N 	0.68407 0.01290 0.77957 -0.27000
C 	C 	0.71530 0.97820 0.80540 0.07600
H 	H 	0.73340 0.01850 0.82220 -0.01200
C 	C 	0.72240 0.88700 0.80870 -0.12400
H 	H 	0.74480 0.86500 0.82780 0.08100
C 	C 	0.69700 0.82670 0.78430 0.05800
C 	C 	0.66420 0.86300 0.75770 -0.11600
H 	H 	0.64580 0.82430 0.74020 0.08100
C 	C 	0.65850 0.95540 0.75690 0.06300
H 	H 	0.63550 0.97930 0.73950 -0.01300
I 	I 	0.02640 0.85020 0.61840 -0.10900
Zn	Zn	0.62445 0.09258 0.06511 1.16500
Zn	Zn	0.41399 0.37980 0.90511 1.16300
Zn	Zn	0.32758 0.84858 0.22810 1.16300
I 	I 	0.64508 0.08869 0.99318 -0.36800
I 	I 	0.60744 0.23665 0.10160 -0.38000
I 	I 	0.37544 0.26466 0.93735 -0.38400
I 	I 	0.47459 0.35057 0.87530 -0.21700
I 	I 	0.37175 0.83335 0.30226 -0.40200
I 	I 	0.26577 0.75683 0.20665 -0.38000
N 	N 	0.42150 0.72360 0.06152 -0.13400
N 	N 	0.47249 0.77270 0.02913 -0.14800
N 	N 	0.45904 0.85110 0.08923 -0.13600
C 	C 	0.44408 0.71630 0.03220 0.09500
C 	C 	0.47920 0.83700 0.05900 0.09700
C 	C 	0.42965 0.79400 0.08840 0.10700
N 	N 	0.42555 0.48690 0.94896 -0.26900
C 	C 	0.39920 0.51260 0.97070 0.07400
H 	H 	0.37610 0.47790 0.96760 -0.01400
C 	C 	0.40340 0.58720 0.99770 -0.11800
H 	H 	0.38340 0.60440 0.01200 0.07900
C 	C 	0.43745 0.63620 0.00340 0.04900
C 	C 	0.46560 0.60960 0.98080 -0.11100
H 	H 	0.48910 0.64270 0.98350 0.06900
C 	C 	0.45870 0.53490 0.95460 0.06300
H 	H 	0.47810 0.51610 0.93970 -0.00800
N 	N 	0.57798 0.00670 0.06161 -0.27900
C 	C 	0.56120 0.99750 0.09530 0.08000
H 	H 	0.57270 0.02800 0.12120 -0.01500
C 	C 	0.52850 0.94710 0.09530 -0.12900
H 	H 	0.51670 0.94650 0.11960 0.08700
C 	C 	0.51330 0.89750 0.05910 0.05900
C 	C 	0.53060 0.90360 0.02470 -0.13600
H 	H 	0.52090 0.87010 0.99930 0.08200
C 	C 	0.56230 0.95840 0.02720 0.08500
H 	H 	0.57370 0.96200 0.00270 -0.00900
N 	N 	0.35941 0.83000 0.18143 -0.27900
C 	C 	0.34710 0.78350 0.14510 0.07900
H 	H 	0.32200 0.75750 0.14040 -0.01200
C 	C 	0.36830 0.77100 0.11450 -0.12300
H 	H 	0.35780 0.73800 0.08910 0.08700
C 	C 	0.40540 0.80690 0.12050 0.06500
C 	C 	0.41850 0.85510 0.15800 -0.12200
H 	H 	0.44350 0.88180 0.16340 0.08400
C 	C 	0.39510 0.86410 0.18730 0.07500
H 	H 	0.40480 0.89640 0.21320 -0.01800
N 	N 	0.77915 0.94710 0.22623 -0.14100
N 	N 	0.76569 0.80720 0.18830 -0.13900
N 	N 	0.81904 0.81940 0.24747 -0.13400
C 	C 	0.80889 0.90620 0.25130 0.10300
C 	C 	0.75937 0.89520 0.19420 0.09100
C 	C 	0.79581 0.77240 0.21620 0.10300
N 	N 	0.87709 0.05260 0.35565 -0.27000
C 	C 	0.88600 0.96840 0.34650 0.07500
H 	H 	0.90810 0.94080 0.36390 -0.00800
C 	C 	0.86500 0.91930 0.31330 -0.11800
H 	H 	0.87240 0.85900 0.30800 0.09100
C 	C 	0.83250 0.95900 0.28710 0.05500
C 	C 	0.82390 0.04750 0.29560 -0.12200
H 	H 	0.80280 0.07780 0.27770 0.07800
C 	C 	0.84630 0.09220 0.33060 0.06300
H 	H 	0.83970 0.15240 0.33700 -0.00800
N 	N 	0.66699 0.02750 0.10879 -0.27100
C 	C 	0.68440 0.06590 0.14650 0.06900
H 	H 	0.67570 0.12380 0.15370 -0.00200
C 	C 	0.71400 0.02490 0.17470 -0.12500
H 	H 	0.72570 0.05430 0.20070 0.09100
C 	C 	0.72656 0.94040 0.16490 0.04900
C 	C 	0.70880 0.89940 0.12640 -0.11400
H 	H 	0.71640 0.84060 0.11910 0.08500
C 	C 	0.67980 0.94600 0.09920 0.06900
H 	H 	0.66850 0.91910 0.07240 0.00100
N 	N 	0.81593 0.48710 0.22043 -0.27100
C 	C 	0.78470 0.52180 0.19460 0.07600
H 	H 	0.76660 0.48150 0.17780 -0.01200
C 	C 	0.77760 0.61300 0.19130 -0.12400
H 	H 	0.75520 0.63500 0.17220 0.08100
C 	C 	0.80300 0.67330 0.21570 0.05800
C 	C 	0.83580 0.63700 0.24230 -0.11600
H 	H 	0.85420 0.67570 0.25980 0.08200
C 	C 	0.84150 0.54460 0.24310 0.06300
H 	H 	0.86450 0.52070 0.26050 -0.01300
I 	I 	0.47360 0.64980 0.38160 -0.10800
Zn	Zn	0.12445 0.59258 0.06511 1.16500
Zn	Zn	0.91399 0.87980 0.90511 1.16300
Zn	Zn	0.82758 0.34858 0.22810 1.16300
I 	I 	0.14508 0.58869 0.99318 -0.36800
I 	I 	0.10744 0.73665 0.10160 -0.38000
I 	I 	0.87544 0.76466 0.93735 -0.38400
I 	I 	0.97459 0.85057 0.87530 -0.21700
I 	I 	0.87175 0.33335 0.30226 -0.40200
I 	I 	0.76577 0.25683 0.20664 -0.38000
N 	N 	0.92150 0.22360 0.06152 -0.13400
N 	N 	0.97249 0.27270 0.02913 -0.14800
N 	N 	0.95904 0.35110 0.08923 -0.13600
C 	C 	0.94408 0.21630 0.03220 0.09500
C 	C 	0.97920 0.33700 0.05900 0.09700
C 	C 	0.92965 0.29400 0.08840 0.10700
N 	N 	0.92555 0.98690 0.94896 -0.27000
C 	C 	0.89920 0.01260 0.97070 0.07400
H 	H 	0.87610 0.97790 0.96760 -0.01400
C 	C 	0.90340 0.08720 0.99770 -0.11700
H 	H 	0.88340 0.10440 0.01200 0.07900
C 	C 	0.93745 0.13620 0.00340 0.04800
C 	C 	0.96560 0.10960 0.98080 -0.11100
H 	H 	0.98910 0.14270 0.98350 0.06900
C 	C 	0.95870 0.03490 0.95460 0.06300
H 	H 	0.97810 0.01610 0.93970 -0.00800
N 	N 	0.07798 0.50670 0.06161 -0.27800
C 	C 	0.06120 0.49750 0.09530 0.07900
H 	H 	0.07270 0.52800 0.12120 -0.01500
C 	C 	0.02850 0.44710 0.09530 -0.12900
H 	H 	0.01670 0.44650 0.11960 0.08700
C 	C 	0.01330 0.39750 0.05910 0.05900
C 	C 	0.03060 0.40360 0.02470 -0.13700
H 	H 	0.02090 0.37010 0.99930 0.08200
C 	C 	0.06230 0.45840 0.02720 0.08500
H 	H 	0.07370 0.46200 0.00270 -0.00900
N 	N 	0.85941 0.33000 0.18143 -0.27900
C 	C 	0.84710 0.28350 0.14510 0.07900
H 	H 	0.82200 0.25750 0.14040 -0.01200
C 	C 	0.86830 0.27100 0.11450 -0.12300
H 	H 	0.85780 0.23800 0.08910 0.08700
C 	C 	0.90540 0.30690 0.12050 0.06500
C 	C 	0.91850 0.35510 0.15800 -0.12200
H 	H 	0.94350 0.38180 0.16340 0.08400
C 	C 	0.89510 0.36410 0.18730 0.07500
H 	H 	0.90480 0.39640 0.21320 -0.01800
N 	N 	0.27915 0.44710 0.22623 -0.14100
N 	N 	0.26569 0.30720 0.18830 -0.13900
N 	N 	0.31904 0.31940 0.24747 -0.13400
C 	C 	0.30889 0.40620 0.25130 0.10300
C 	C 	0.25937 0.39520 0.19420 0.09100
C 	C 	0.29581 0.27240 0.21620 0.10300
N 	N 	0.37709 0.55260 0.35565 -0.27000
C 	C 	0.38600 0.46840 0.34650 0.07500
H 	H 	0.40810 0.44080 0.36390 -0.00800
C 	C 	0.36500 0.41930 0.31330 -0.11800
H 	H 	0.37240 0.35900 0.30800 0.09100
C 	C 	0.33250 0.45900 0.28710 0.05500
C 	C 	0.32390 0.54750 0.29560 -0.12200
H 	H 	0.30280 0.57780 0.27770 0.07800
C 	C 	0.34630 0.59220 0.33060 0.06300
H 	H 	0.33970 0.65240 0.33700 -0.00800
N 	N 	0.16699 0.52750 0.10879 -0.27100
C 	C 	0.18440 0.56590 0.14650 0.06800
H 	H 	0.17570 0.62380 0.15370 -0.00200
C 	C 	0.21400 0.52490 0.17470 -0.12400
H 	H 	0.22570 0.55430 0.20070 0.09000
C 	C 	0.22656 0.44040 0.16490 0.04900
C 	C 	0.20880 0.39940 0.12640 -0.11300
H 	H 	0.21640 0.34060 0.11910 0.08500
C 	C 	0.17980 0.44600 0.09920 0.06900
H 	H 	0.16850 0.41910 0.07240 0.00100
N 	N 	0.31593 0.98710 0.22043 -0.27000
C 	C 	0.28470 0.02180 0.19460 0.07600
H 	H 	0.26660 0.98150 0.17780 -0.01200
C 	C 	0.27760 0.11300 0.19130 -0.12400
H 	H 	0.25520 0.13500 0.17220 0.08100
C 	C 	0.30300 0.17330 0.21570 0.05800
C 	C 	0.33580 0.13700 0.24230 -0.11600
H 	H 	0.35420 0.17570 0.25980 0.08100
C 	C 	0.34150 0.04460 0.24310 0.06300
H 	H 	0.36450 0.02070 0.26050 -0.01300
I 	I 	0.97360 0.14980 0.38160 -0.10900
Zn	Zn	0.62445 0.90742 0.56511 1.16500
Zn	Zn	0.41399 0.62020 0.40511 1.16300
Zn	Zn	0.32758 0.15142 0.72810 1.16300
I 	I 	0.64508 0.91131 0.49318 -0.36800
I 	I 	0.60744 0.76335 0.60160 -0.38000
I 	I 	0.37544 0.73534 0.43735 -0.38400
I 	I 	0.47459 0.64943 0.37530 -0.21700
I 	I 	0.37175 0.16665 0.80226 -0.40200
I 	I 	0.26577 0.24317 0.70664 -0.38000
N 	N 	0.42150 0.27640 0.56152 -0.13400
N 	N 	0.47249 0.22730 0.52913 -0.14800
N 	N 	0.45904 0.14890 0.58923 -0.13600
C 	C 	0.44408 0.28370 0.53220 0.09500
C 	C 	0.47920 0.16300 0.55900 0.09700
C 	C 	0.42965 0.20600 0.58840 0.10700
N 	N 	0.42555 0.51310 0.44896 -0.26900
C 	C 	0.39920 0.48740 0.47070 0.07400
H 	H 	0.37610 0.52210 0.46760 -0.01400
C 	C 	0.40340 0.41280 0.49770 -0.11800
H 	H 	0.38340 0.39560 0.51200 0.07900
C 	C 	0.43745 0.36380 0.50340 0.04900
C 	C 	0.46560 0.39040 0.48080 -0.11100
H 	H 	0.48910 0.35730 0.48350 0.06900
C 	C 	0.45870 0.46510 0.45460 0.06300
H 	H 	0.47810 0.48390 0.43970 -0.00800
N 	N 	0.57798 0.99330 0.56161 -0.27800
C 	C 	0.56120 0.00250 0.59530 0.07900
H 	H 	0.57270 0.97200 0.62120 -0.01500
C 	C 	0.52850 0.05290 0.59530 -0.12900
H 	H 	0.51670 0.05350 0.61960 0.08700
C 	C 	0.51330 0.10250 0.55910 0.05900
C 	C 	0.53060 0.09640 0.52470 -0.13600
H 	H 	0.52090 0.12990 0.49930 0.08200
C 	C 	0.56230 0.04160 0.52720 0.08500
H 	H 	0.57370 0.03800 0.50270 -0.00900
N 	N 	0.35941 0.17000 0.68143 -0.27900
C 	C 	0.34710 0.21650 0.64510 0.07900
H 	H 	0.32200 0.24250 0.64040 -0.01200
C 	C 	0.36830 0.22900 0.61450 -0.12300
H 	H 	0.35780 0.26200 0.58910 0.08700
C 	C 	0.40540 0.19310 0.62050 0.06500
C 	C 	0.41850 0.14490 0.65800 -0.12200
H 	H 	0.44350 0.11820 0.66340 0.08400
C 	C 	0.39510 0.13590 0.68730 0.07500
H 	H 	0.40480 0.10360 0.71320 -0.01800
N 	N 	0.77915 0.05290 0.72623 -0.14100
N 	N 	0.76569 0.19280 0.68830 -0.13900
N 	N 	0.81904 0.18060 0.74747 -0.13400
C 	C 	0.80889 0.09380 0.75130 0.10300
C 	C 	0.75937 0.10480 0.69420 0.09100
C 	C 	0.79581 0.22760 0.71620 0.10300
N 	N 	0.87709 0.94740 0.85565 -0.27000
C 	C 	0.88600 0.03160 0.84650 0.07600
H 	H 	0.90810 0.05920 0.86390 -0.00800
C 	C 	0.86500 0.08070 0.81330 -0.11800
H 	H 	0.87240 0.14100 0.80800 0.09100
C 	C 	0.83250 0.04100 0.78710 0.05500
C 	C 	0.82390 0.95250 0.79560 -0.12300
H 	H 	0.80280 0.92220 0.77770 0.07800
C 	C 	0.84630 0.90780 0.83060 0.06300
H 	H 	0.83970 0.84760 0.83700 -0.00800
N 	N 	0.66699 0.97250 0.60879 -0.27100
C 	C 	0.68440 0.93410 0.64650 0.06900
H 	H 	0.67570 0.87620 0.65370 -0.00200
C 	C 	0.71400 0.97510 0.67470 -0.12400
H 	H 	0.72570 0.94570 0.70070 0.09000
C 	C 	0.72656 0.05960 0.66490 0.04900
C 	C 	0.70880 0.10060 0.62640 -0.11300
H 	H 	0.71640 0.15940 0.61910 0.08500
C 	C 	0.67980 0.05400 0.59920 0.06900
H 	H 	0.66850 0.08090 0.57240 0.00100
N 	N 	0.81593 0.51290 0.72043 -0.27100
C 	C 	0.78470 0.47820 0.69460 0.07600
H 	H 	0.76660 0.51850 0.67780 -0.01200
C 	C 	0.77760 0.38700 0.69130 -0.12400
H 	H 	0.75520 0.36500 0.67220 0.08100
C 	C 	0.80300 0.32670 0.71570 0.05800
C 	C 	0.83580 0.36300 0.74230 -0.11600
H 	H 	0.85420 0.32430 0.75980 0.08200
C 	C 	0.84150 0.45540 0.74310 0.06300
H 	H 	0.86450 0.47930 0.76050 -0.01300
I 	I 	0.47360 0.35020 0.88160 -0.10800
Zn	Zn	0.12445 0.40742 0.56511 1.16500
Zn	Zn	0.91399 0.12020 0.40511 1.16300
Zn	Zn	0.82758 0.65142 0.72810 1.16300
I 	I 	0.14508 0.41131 0.49318 -0.36800
I 	I 	0.10744 0.26335 0.60160 -0.38000
I 	I 	0.87544 0.23534 0.43735 -0.38400
I 	I 	0.97459 0.14943 0.37530 -0.21700
I 	I 	0.87175 0.66665 0.80226 -0.40200
I 	I 	0.76577 0.74317 0.70664 -0.38000
N 	N 	0.92150 0.77640 0.56152 -0.13400
N 	N 	0.97249 0.72730 0.52913 -0.14800
N 	N 	0.95904 0.64890 0.58923 -0.13600
C 	C 	0.94408 0.78370 0.53220 0.09500
C 	C 	0.97920 0.66300 0.55900 0.09700
C 	C 	0.92965 0.70600 0.58840 0.10700
N 	N 	0.92555 0.01310 0.44896 -0.26900
C 	C 	0.89920 0.98740 0.47070 0.07400
H 	H 	0.87610 0.02210 0.46760 -0.01400
C 	C 	0.90340 0.91280 0.49770 -0.11800
H 	H 	0.88340 0.89560 0.51200 0.07900
C 	C 	0.93745 0.86380 0.50340 0.04900
C 	C 	0.96560 0.89040 0.48080 -0.11100
H 	H 	0.98910 0.85730 0.48350 0.06900
C 	C 	0.95870 0.96510 0.45460 0.06300
H 	H 	0.97810 0.98390 0.43970 -0.00800
N 	N 	0.07798 0.49330 0.56161 -0.27800
C 	C 	0.06120 0.50250 0.59530 0.07900
H 	H 	0.07270 0.47200 0.62120 -0.01500
C 	C 	0.02850 0.55290 0.59530 -0.12900
H 	H 	0.01670 0.55350 0.61960 0.08700
C 	C 	0.01330 0.60250 0.55910 0.05900
C 	C 	0.03060 0.59640 0.52470 -0.13600
H 	H 	0.02090 0.62990 0.49930 0.08200
C 	C 	0.06230 0.54160 0.52720 0.08500
H 	H 	0.07370 0.53800 0.50270 -0.00900
N 	N 	0.85941 0.67000 0.68143 -0.27900
C 	C 	0.84710 0.71650 0.64510 0.07900
H 	H 	0.82200 0.74250 0.64040 -0.01200
C 	C 	0.86830 0.72900 0.61450 -0.12300
H 	H 	0.85780 0.76200 0.58910 0.08700
C 	C 	0.90540 0.69310 0.62050 0.06500
C 	C 	0.91850 0.64490 0.65800 -0.12200
H 	H 	0.94350 0.61820 0.66340 0.08400
C 	C 	0.89510 0.63590 0.68730 0.07500
H 	H 	0.90480 0.60360 0.71320 -0.01800
N 	N 	0.27915 0.55290 0.72623 -0.14100
N 	N 	0.26569 0.69280 0.68830 -0.13900
N 	N 	0.31904 0.68060 0.74747 -0.13400
C 	C 	0.30889 0.59380 0.75130 0.10300
C 	C 	0.25937 0.60480 0.69420 0.09100
C 	C 	0.29581 0.72760 0.71620 0.10300
N 	N 	0.37709 0.44740 0.85565 -0.27000
C 	C 	0.38600 0.53160 0.84650 0.07500
H 	H 	0.40810 0.55920 0.86390 -0.00800
C 	C 	0.36500 0.58070 0.81330 -0.11800
H 	H 	0.37240 0.64100 0.80800 0.09100
C 	C 	0.33250 0.54100 0.78710 0.05500
C 	C 	0.32390 0.45250 0.79560 -0.12200
H 	H 	0.30280 0.42220 0.77770 0.07800
C 	C 	0.34630 0.40780 0.83060 0.06300
H 	H 	0.33970 0.34760 0.83700 -0.00800
N 	N 	0.16699 0.47250 0.60879 -0.27100
C 	C 	0.18440 0.43410 0.64650 0.06800
H 	H 	0.17570 0.37620 0.65370 -0.00200
C 	C 	0.21400 0.47510 0.67470 -0.12400
H 	H 	0.22570 0.44570 0.70070 0.09000
C 	C 	0.22656 0.55960 0.66490 0.04900
C 	C 	0.20880 0.60060 0.62640 -0.11300
H 	H 	0.21640 0.65940 0.61910 0.08500
C 	C 	0.17980 0.55400 0.59920 0.06900
H 	H 	0.16850 0.58090 0.57240 0.00100
N 	N 	0.31593 0.01290 0.72043 -0.27100
C 	C 	0.28470 0.97820 0.69460 0.07600
H 	H 	0.26660 0.01850 0.67780 -0.01200
C 	C 	0.27760 0.88700 0.69130 -0.12400
H 	H 	0.25520 0.86500 0.67220 0.08100
C 	C 	0.30300 0.82670 0.71570 0.05800
C 	C 	0.33580 0.86300 0.74230 -0.11600
H 	H 	0.35420 0.82430 0.75980 0.08200
C 	C 	0.34150 0.95540 0.74310 0.06300
H 	H 	0.36450 0.97930 0.76050 -0.01300
I 	I 	0.97360 0.85020 0.88160 -0.10900
