data_crystal

_cell_length_a 35.48700
_cell_length_b 15.08000
_cell_length_c 31.54200
_cell_angle_alpha 90.00000
_cell_angle_beta  102.10700
_cell_angle_gamma 90.00000

_symmetry_space_group_name_	'P 1'
_symmetry_space_group_name_H-M	'P 1'

loop_
_symmetry_equiv_pos_as_xyz
  x,y,z

loop_
_atom_site_label
_atom_site_type_symbol
_atom_site_fract_x
_atom_site_fract_y
_atom_site_fract_z
_atom_site_charge
I 	I 	0.73742 0.26839 0.80593 -0.38100
I 	I 	0.62990 0.32370 0.70390 -0.33400
I 	I 	0.52756 0.14493 0.63252 -0.35000
I 	I 	0.61775 0.23406 0.56141 -0.38100
I 	I 	0.39474 0.72529 0.90161 -0.38200
I 	I 	0.35576 0.58162 0.00794 -0.36700
Zn	Zn	0.67582 0.35569 0.77908 1.16200
Zn	Zn	0.58287 0.11525 0.59441 1.16500
Zn	Zn	0.37454 0.58414 0.93464 1.16500
N 	N 	0.52256 0.26430 0.96890 -0.14500
N 	N 	0.57575 0.22020 0.93830 -0.13500
N 	N 	0.53740 0.34420 0.90940 -0.13300
C 	C 	0.51640 0.32770 0.93920 0.09400
C 	C 	0.55210 0.21070 0.96580 0.09500
C 	C 	0.56780 0.29060 0.91180 0.10600
N 	N 	0.41916 0.49620 0.93680 -0.27700
C 	C 	0.43760 0.45820 0.97280 0.08400
H 	H 	0.42870 0.46970 0.99870 -0.01000
C 	C 	0.46890 0.40310 0.97550 -0.13100
H 	H 	0.48120 0.37770 0.00250 0.08100
C 	C 	0.48180 0.38570 0.93830 0.05700
C 	C 	0.46210 0.42150 0.89960 -0.12800
H 	H 	0.47000 0.40960 0.87330 0.08900
C 	C 	0.43090 0.47430 0.90010 0.07600
H 	H 	0.41680 0.49670 0.87330 -0.01300
N 	N 	0.56910 0.98580 0.04900 -0.27000
C 	C 	0.59500 0.00530 0.02480 0.06200
H 	H 	0.61720 0.96900 0.02660 -0.01200
C 	C 	0.58970 0.07770 0.99740 -0.11300
H 	H 	0.60810 0.09030 0.98030 0.07900
C 	C 	0.55830 0.13150 0.99440 0.05000
C 	C 	0.53130 0.10890 0.01930 -0.11500
H 	H 	0.50890 0.14400 0.01790 0.07200
C 	C 	0.53770 0.03550 0.04580 0.07000
H 	H 	0.51910 0.02000 0.06230 -0.01000
N 	N 	0.64220 0.34040 0.82510 -0.27500
C 	C 	0.60730 0.37640 0.81900 0.07900
H 	H 	0.59930 0.41390 0.79450 -0.02000
C 	C 	0.58230 0.36260 0.84590 -0.12200
H 	H 	0.55760 0.38990 0.84000 0.08500
C 	C 	0.59310 0.30910 0.88160 0.06200
C 	C 	0.63020 0.27100 0.88910 -0.11100
H 	H 	0.63920 0.23420 0.91360 0.08300
C 	C 	0.65340 0.28880 0.85960 0.06800
H 	H 	0.67830 0.26300 0.86440 -0.01000
C 	C 	0.74150 0.89140 0.80080 0.09200
C 	C 	0.69160 0.89980 0.74430 0.09900
C 	C 	0.70730 0.76980 0.77730 0.10500
N 	N 	0.72075 0.94210 0.77090 -0.14200
N 	N 	0.68304 0.81480 0.74720 -0.13500
N 	N 	0.73686 0.80450 0.80580 -0.14100
N 	N 	0.62210 0.04560 0.64030 -0.27200
C 	C 	0.61680 0.95990 0.64620 0.07800
H 	H 	0.59630 0.93080 0.62700 -0.00400
C 	C 	0.63940 0.91040 0.67900 -0.12500
H 	H 	0.63540 0.84840 0.68100 0.09600
C 	C 	0.66770 0.95240 0.70820 0.06400
C 	C 	0.67320 0.04110 0.70250 -0.12700
H 	H 	0.69250 0.07230 0.72230 0.07800
C 	C 	0.65070 0.08540 0.66780 0.07000
H 	H 	0.65580 0.14620 0.66340 -0.01000
N 	N 	0.68720 0.49050 0.77900 -0.27500
C 	C 	0.66210 0.54460 0.75570 0.07500
H 	H 	0.63910 0.52010 0.73880 -0.01900
C 	C 	0.66740 0.63560 0.75430 -0.12300
H 	H 	0.64870 0.67180 0.73650 0.08400
C 	C 	0.70030 0.67310 0.77920 0.05700
C 	C 	0.72670 0.61650 0.80430 -0.11800
H 	H 	0.74960 0.63940 0.82200 0.07800
C 	C 	0.71940 0.52650 0.80330 0.06500
H 	H 	0.73790 0.48830 0.82030 -0.01000
N 	N 	0.83149 0.02290 0.88970 -0.27400
C 	C 	0.82460 0.93820 0.89490 0.07200
H 	H 	0.83970 0.90770 0.91890 -0.00200
C 	C 	0.79580 0.89150 0.86660 -0.11700
H 	H 	0.79160 0.83020 0.87080 0.08500
C 	C 	0.77350 0.93720 0.83240 0.05000
C 	C 	0.78120 0.02550 0.82660 -0.12700
H 	H 	0.76660 0.05800 0.80300 0.09100
C 	C 	0.81030 0.06540 0.85560 0.07300
H 	H 	0.81580 0.12610 0.85140 -0.00400
I 	I 	0.64120 0.31500 0.71090 -0.03800
I 	I 	0.23742 0.76839 0.80593 -0.38200
I 	I 	0.12990 0.82370 0.70390 -0.33500
I 	I 	0.02756 0.64493 0.63252 -0.35100
I 	I 	0.11775 0.73406 0.56141 -0.38200
I 	I 	0.89474 0.22529 0.90161 -0.38300
I 	I 	0.85576 0.08162 0.00794 -0.36800
Zn	Zn	0.17582 0.85569 0.77908 1.16100
Zn	Zn	0.08287 0.61525 0.59441 1.16400
Zn	Zn	0.87454 0.08414 0.93464 1.16400
N 	N 	0.02256 0.76430 0.96890 -0.14600
N 	N 	0.07575 0.72020 0.93830 -0.13500
N 	N 	0.03740 0.84420 0.90940 -0.13300
C 	C 	0.01640 0.82770 0.93920 0.09500
C 	C 	0.05210 0.71070 0.96580 0.09500
C 	C 	0.06780 0.79060 0.91180 0.10600
N 	N 	0.91916 0.99620 0.93680 -0.27600
C 	C 	0.93760 0.95820 0.97280 0.08400
H 	H 	0.92870 0.96970 0.99870 -0.01000
C 	C 	0.96890 0.90310 0.97550 -0.12900
H 	H 	0.98120 0.87770 0.00250 0.08000
C 	C 	0.98180 0.88570 0.93830 0.05700
C 	C 	0.96210 0.92150 0.89960 -0.12800
H 	H 	0.97000 0.90960 0.87330 0.08800
C 	C 	0.93090 0.97430 0.90010 0.07600
H 	H 	0.91680 0.99670 0.87330 -0.01300
N 	N 	0.06910 0.48580 0.04900 -0.26900
C 	C 	0.09500 0.50530 0.02480 0.06000
H 	H 	0.11720 0.46900 0.02660 -0.01100
C 	C 	0.08970 0.57770 0.99740 -0.11100
H 	H 	0.10810 0.59030 0.98030 0.07900
C 	C 	0.05830 0.63150 0.99440 0.05000
C 	C 	0.03130 0.60890 0.01930 -0.11500
H 	H 	0.00890 0.64400 0.01790 0.07200
C 	C 	0.03770 0.53550 0.04580 0.06900
H 	H 	0.01910 0.52000 0.06230 -0.01000
N 	N 	0.14220 0.84040 0.82510 -0.27500
C 	C 	0.10730 0.87640 0.81900 0.07900
H 	H 	0.09930 0.91390 0.79450 -0.02000
C 	C 	0.08230 0.86260 0.84590 -0.12200
H 	H 	0.05760 0.88990 0.84000 0.08500
C 	C 	0.09310 0.80910 0.88160 0.06200
C 	C 	0.13020 0.77100 0.88910 -0.11100
H 	H 	0.13920 0.73420 0.91360 0.08300
C 	C 	0.15340 0.78880 0.85960 0.06800
H 	H 	0.17830 0.76300 0.86440 -0.00900
C 	C 	0.24150 0.39140 0.80080 0.09300
C 	C 	0.19160 0.39980 0.74430 0.09900
C 	C 	0.20730 0.26980 0.77730 0.10500
N 	N 	0.22075 0.44210 0.77090 -0.14200
N 	N 	0.18304 0.31480 0.74720 -0.13500
N 	N 	0.23686 0.30450 0.80580 -0.14200
N 	N 	0.12210 0.54560 0.64030 -0.27200
C 	C 	0.11680 0.45990 0.64620 0.07800
H 	H 	0.09630 0.43080 0.62700 -0.00400
C 	C 	0.13940 0.41040 0.67900 -0.12500
H 	H 	0.13540 0.34840 0.68100 0.09600
C 	C 	0.16770 0.45240 0.70820 0.06300
C 	C 	0.17320 0.54110 0.70250 -0.12700
H 	H 	0.19250 0.57230 0.72230 0.07800
C 	C 	0.15070 0.58540 0.66780 0.07000
H 	H 	0.15580 0.64620 0.66340 -0.01000
N 	N 	0.18720 0.99050 0.77900 -0.27500
C 	C 	0.16210 0.04460 0.75570 0.07400
H 	H 	0.13910 0.02010 0.73880 -0.01900
C 	C 	0.16740 0.13560 0.75430 -0.12300
H 	H 	0.14870 0.17180 0.73650 0.08400
C 	C 	0.20030 0.17310 0.77920 0.05600
C 	C 	0.22670 0.11650 0.80430 -0.11700
H 	H 	0.24960 0.13940 0.82200 0.07700
C 	C 	0.21940 0.02650 0.80330 0.06400
H 	H 	0.23790 0.98830 0.82030 -0.00900
N 	N 	0.33149 0.52290 0.88970 -0.27300
C 	C 	0.32460 0.43820 0.89490 0.07100
H 	H 	0.33970 0.40770 0.91890 -0.00200
C 	C 	0.29580 0.39150 0.86660 -0.11700
H 	H 	0.29160 0.33020 0.87080 0.08500
C 	C 	0.27350 0.43720 0.83240 0.04900
C 	C 	0.28120 0.52550 0.82660 -0.12600
H 	H 	0.26660 0.55800 0.80300 0.09100
C 	C 	0.31030 0.56540 0.85560 0.07200
H 	H 	0.31580 0.62610 0.85140 -0.00400
I 	I 	0.14120 0.81500 0.71090 -0.03800
I 	I 	0.73742 0.73161 0.30593 -0.38200
I 	I 	0.62990 0.67630 0.20390 -0.33500
I 	I 	0.52756 0.85507 0.13252 -0.35100
I 	I 	0.61775 0.76594 0.06141 -0.38200
I 	I 	0.39474 0.27471 0.40161 -0.38300
I 	I 	0.35576 0.41838 0.50794 -0.36800
Zn	Zn	0.67582 0.64431 0.27908 1.16100
Zn	Zn	0.58287 0.88475 0.09441 1.16400
Zn	Zn	0.37454 0.41586 0.43464 1.16400
N 	N 	0.52256 0.73570 0.46890 -0.14600
N 	N 	0.57575 0.77980 0.43830 -0.13500
N 	N 	0.53740 0.65580 0.40940 -0.13300
C 	C 	0.51640 0.67230 0.43920 0.09400
C 	C 	0.55210 0.78930 0.46580 0.09500
C 	C 	0.56780 0.70940 0.41180 0.10600
N 	N 	0.41916 0.50380 0.43680 -0.27700
C 	C 	0.43760 0.54180 0.47280 0.08400
H 	H 	0.42870 0.53030 0.49870 -0.01000
C 	C 	0.46890 0.59690 0.47550 -0.13000
H 	H 	0.48120 0.62230 0.50250 0.08100
C 	C 	0.48180 0.61430 0.43830 0.05700
C 	C 	0.46210 0.57850 0.39960 -0.12800
H 	H 	0.47000 0.59040 0.37330 0.08900
C 	C 	0.43090 0.52570 0.40010 0.07600
H 	H 	0.41680 0.50330 0.37330 -0.01300
N 	N 	0.56910 0.01420 0.54900 -0.26900
C 	C 	0.59500 0.99470 0.52480 0.06000
H 	H 	0.61720 0.03100 0.52660 -0.01100
C 	C 	0.58970 0.92230 0.49740 -0.11100
H 	H 	0.60810 0.90970 0.48030 0.07900
C 	C 	0.55830 0.86850 0.49440 0.05000
C 	C 	0.53130 0.89110 0.51930 -0.11400
H 	H 	0.50890 0.85600 0.51790 0.07200
C 	C 	0.53770 0.96450 0.54580 0.06900
H 	H 	0.51910 0.98000 0.56230 -0.01000
N 	N 	0.64220 0.65960 0.32510 -0.27500
C 	C 	0.60730 0.62360 0.31900 0.07900
H 	H 	0.59930 0.58610 0.29450 -0.02000
C 	C 	0.58230 0.63740 0.34590 -0.12200
H 	H 	0.55760 0.61010 0.34000 0.08500
C 	C 	0.59310 0.69090 0.38160 0.06200
C 	C 	0.63020 0.72900 0.38910 -0.11100
H 	H 	0.63920 0.76580 0.41360 0.08300
C 	C 	0.65340 0.71120 0.35960 0.06800
H 	H 	0.67830 0.73700 0.36440 -0.01000
C 	C 	0.74150 0.10860 0.30080 0.09200
C 	C 	0.69160 0.10020 0.24430 0.09900
C 	C 	0.70730 0.23020 0.27730 0.10500
N 	N 	0.72075 0.05790 0.27090 -0.14200
N 	N 	0.68304 0.18520 0.24720 -0.13500
N 	N 	0.73686 0.19550 0.30580 -0.14100
N 	N 	0.62210 0.95440 0.14030 -0.27200
C 	C 	0.61680 0.04010 0.14620 0.07800
H 	H 	0.59630 0.06920 0.12700 -0.00400
C 	C 	0.63940 0.08960 0.17900 -0.12500
H 	H 	0.63540 0.15160 0.18100 0.09600
C 	C 	0.66770 0.04760 0.20820 0.06400
C 	C 	0.67320 0.95890 0.20250 -0.12700
H 	H 	0.69250 0.92770 0.22230 0.07800
C 	C 	0.65070 0.91460 0.16780 0.07100
H 	H 	0.65580 0.85380 0.16340 -0.01000
N 	N 	0.68720 0.50950 0.27900 -0.27500
C 	C 	0.66210 0.45540 0.25570 0.07500
H 	H 	0.63910 0.47990 0.23880 -0.01900
C 	C 	0.66740 0.36440 0.25430 -0.12300
H 	H 	0.64870 0.32820 0.23650 0.08400
C 	C 	0.70030 0.32690 0.27920 0.05700
C 	C 	0.72670 0.38350 0.30430 -0.11800
H 	H 	0.74960 0.36060 0.32200 0.07800
C 	C 	0.71940 0.47350 0.30330 0.06500
H 	H 	0.73790 0.51170 0.32030 -0.01000
N 	N 	0.83149 0.97710 0.38970 -0.27300
C 	C 	0.82460 0.06180 0.39490 0.07100
H 	H 	0.83970 0.09230 0.41890 -0.00200
C 	C 	0.79580 0.10850 0.36660 -0.11700
H 	H 	0.79160 0.16980 0.37080 0.08500
C 	C 	0.77350 0.06280 0.33240 0.05000
C 	C 	0.78120 0.97450 0.32660 -0.12700
H 	H 	0.76660 0.94200 0.30300 0.09100
C 	C 	0.81030 0.93460 0.35560 0.07300
H 	H 	0.81580 0.87390 0.35140 -0.00400
I 	I 	0.64120 0.68500 0.21090 -0.03800
I 	I 	0.23742 0.23161 0.30593 -0.38200
I 	I 	0.12990 0.17630 0.20390 -0.33500
I 	I 	0.02756 0.35507 0.13252 -0.35100
I 	I 	0.11775 0.26594 0.06141 -0.38200
I 	I 	0.89474 0.77471 0.40161 -0.38300
I 	I 	0.85576 0.91838 0.50794 -0.36800
Zn	Zn	0.17582 0.14431 0.27908 1.16100
Zn	Zn	0.08287 0.38475 0.09441 1.16400
Zn	Zn	0.87454 0.91586 0.43464 1.16400
N 	N 	0.02256 0.23570 0.46890 -0.14600
N 	N 	0.07575 0.27980 0.43830 -0.13500
N 	N 	0.03740 0.15580 0.40940 -0.13300
C 	C 	0.01640 0.17230 0.43920 0.09400
C 	C 	0.05210 0.28930 0.46580 0.09500
C 	C 	0.06780 0.20940 0.41180 0.10600
N 	N 	0.91916 0.00380 0.43680 -0.27700
C 	C 	0.93760 0.04180 0.47280 0.08400
H 	H 	0.92870 0.03030 0.49870 -0.01000
C 	C 	0.96890 0.09690 0.47550 -0.13000
H 	H 	0.98120 0.12230 0.50250 0.08100
C 	C 	0.98180 0.11430 0.43830 0.05700
C 	C 	0.96210 0.07850 0.39960 -0.12800
H 	H 	0.97000 0.09040 0.37330 0.08900
C 	C 	0.93090 0.02570 0.40010 0.07600
H 	H 	0.91680 0.00330 0.37330 -0.01300
N 	N 	0.06910 0.51420 0.54900 -0.26900
C 	C 	0.09500 0.49470 0.52480 0.06000
H 	H 	0.11720 0.53100 0.52660 -0.01100
C 	C 	0.08970 0.42230 0.49740 -0.11100
H 	H 	0.10810 0.40970 0.48030 0.07900
C 	C 	0.05830 0.36850 0.49440 0.05000
C 	C 	0.03130 0.39110 0.51930 -0.11400
H 	H 	0.00890 0.35600 0.51790 0.07200
C 	C 	0.03770 0.46450 0.54580 0.06900
H 	H 	0.01910 0.48000 0.56230 -0.01000
N 	N 	0.14220 0.15960 0.32510 -0.27500
C 	C 	0.10730 0.12360 0.31900 0.07900
H 	H 	0.09930 0.08610 0.29450 -0.02000
C 	C 	0.08230 0.13740 0.34590 -0.12200
H 	H 	0.05760 0.11010 0.34000 0.08500
C 	C 	0.09310 0.19090 0.38160 0.06200
C 	C 	0.13020 0.22900 0.38910 -0.11100
H 	H 	0.13920 0.26580 0.41360 0.08300
C 	C 	0.15340 0.21120 0.35960 0.06800
H 	H 	0.17830 0.23700 0.36440 -0.01000
C 	C 	0.24150 0.60860 0.30080 0.09300
C 	C 	0.19160 0.60020 0.24430 0.09900
C 	C 	0.20730 0.73020 0.27730 0.10500
N 	N 	0.22075 0.55790 0.27090 -0.14200
N 	N 	0.18304 0.68520 0.24720 -0.13500
N 	N 	0.23686 0.69550 0.30580 -0.14200
N 	N 	0.12210 0.45440 0.14030 -0.27200
C 	C 	0.11680 0.54010 0.14620 0.07800
H 	H 	0.09630 0.56920 0.12700 -0.00400
C 	C 	0.13940 0.58960 0.17900 -0.12500
H 	H 	0.13540 0.65160 0.18100 0.09600
C 	C 	0.16770 0.54760 0.20820 0.06300
C 	C 	0.17320 0.45890 0.20250 -0.12700
H 	H 	0.19250 0.42770 0.22230 0.07800
C 	C 	0.15070 0.41460 0.16780 0.07000
H 	H 	0.15580 0.35380 0.16340 -0.01000
N 	N 	0.18720 0.00950 0.27900 -0.27500
C 	C 	0.16210 0.95540 0.25570 0.07400
H 	H 	0.13910 0.97990 0.23880 -0.01900
C 	C 	0.16740 0.86440 0.25430 -0.12300
H 	H 	0.14870 0.82820 0.23650 0.08400
C 	C 	0.20030 0.82690 0.27920 0.05700
C 	C 	0.22670 0.88350 0.30430 -0.11800
H 	H 	0.24960 0.86060 0.32200 0.07700
C 	C 	0.21940 0.97350 0.30330 0.06400
H 	H 	0.23790 0.01170 0.32030 -0.00900
N 	N 	0.33149 0.47710 0.38970 -0.27300
C 	C 	0.32460 0.56180 0.39490 0.07100
H 	H 	0.33970 0.59230 0.41890 -0.00200
C 	C 	0.29580 0.60850 0.36660 -0.11700
H 	H 	0.29160 0.66980 0.37080 0.08500
C 	C 	0.27350 0.56280 0.33240 0.04900
C 	C 	0.28120 0.47450 0.32660 -0.12600
H 	H 	0.26660 0.44200 0.30300 0.09100
C 	C 	0.31030 0.43460 0.35560 0.07200
H 	H 	0.31580 0.37390 0.35140 -0.00400
I 	I 	0.14120 0.18500 0.21090 -0.03800
I 	I 	0.26258 0.26839 0.69407 -0.38200
I 	I 	0.37010 0.32370 0.79610 -0.33500
I 	I 	0.47244 0.14493 0.86748 -0.35100
I 	I 	0.38225 0.23406 0.93859 -0.38200
I 	I 	0.60526 0.72529 0.59839 -0.38300
I 	I 	0.64424 0.58162 0.49206 -0.36800
Zn	Zn	0.32418 0.35569 0.72092 1.16100
Zn	Zn	0.41713 0.11525 0.90559 1.16400
Zn	Zn	0.62546 0.58414 0.56536 1.16400
N 	N 	0.47744 0.26430 0.53110 -0.14600
N 	N 	0.42425 0.22020 0.56170 -0.13500
N 	N 	0.46260 0.34420 0.59060 -0.13300
C 	C 	0.48360 0.32770 0.56080 0.09400
C 	C 	0.44790 0.21070 0.53420 0.09500
C 	C 	0.43220 0.29060 0.58820 0.10600
N 	N 	0.58084 0.49620 0.56320 -0.27700
C 	C 	0.56240 0.45820 0.52720 0.08400
H 	H 	0.57130 0.46970 0.50130 -0.01000
C 	C 	0.53110 0.40310 0.52450 -0.13000
H 	H 	0.51880 0.37770 0.49750 0.08100
C 	C 	0.51820 0.38570 0.56170 0.05700
C 	C 	0.53790 0.42150 0.60040 -0.12800
H 	H 	0.53000 0.40960 0.62670 0.08900
C 	C 	0.56910 0.47430 0.59990 0.07600
H 	H 	0.58320 0.49670 0.62670 -0.01300
N 	N 	0.43090 0.98580 0.45100 -0.26900
C 	C 	0.40500 0.00530 0.47520 0.06000
H 	H 	0.38280 0.96900 0.47340 -0.01100
C 	C 	0.41030 0.07770 0.50260 -0.11100
H 	H 	0.39190 0.09030 0.51970 0.07900
C 	C 	0.44170 0.13150 0.50560 0.05000
C 	C 	0.46870 0.10890 0.48070 -0.11400
H 	H 	0.49110 0.14400 0.48210 0.07200
C 	C 	0.46230 0.03550 0.45420 0.06900
H 	H 	0.48090 0.02000 0.43770 -0.01000
N 	N 	0.35780 0.34040 0.67490 -0.27500
C 	C 	0.39270 0.37640 0.68100 0.07900
H 	H 	0.40070 0.41390 0.70550 -0.02000
C 	C 	0.41770 0.36260 0.65410 -0.12200
H 	H 	0.44240 0.38990 0.66000 0.08500
C 	C 	0.40690 0.30910 0.61840 0.06200
C 	C 	0.36980 0.27100 0.61090 -0.11100
H 	H 	0.36080 0.23420 0.58640 0.08300
C 	C 	0.34660 0.28880 0.64040 0.06800
H 	H 	0.32170 0.26300 0.63560 -0.01000
C 	C 	0.25850 0.89140 0.69920 0.09200
C 	C 	0.30840 0.89980 0.75570 0.09900
C 	C 	0.29270 0.76980 0.72270 0.10500
N 	N 	0.27925 0.94210 0.72910 -0.14200
N 	N 	0.31696 0.81480 0.75280 -0.13500
N 	N 	0.26314 0.80450 0.69420 -0.14100
N 	N 	0.37790 0.04560 0.85970 -0.27200
C 	C 	0.38320 0.95990 0.85380 0.07800
H 	H 	0.40370 0.93080 0.87300 -0.00400
C 	C 	0.36060 0.91040 0.82100 -0.12500
H 	H 	0.36460 0.84840 0.81900 0.09600
C 	C 	0.33230 0.95240 0.79180 0.06400
C 	C 	0.32680 0.04110 0.79750 -0.12700
H 	H 	0.30750 0.07230 0.77770 0.07800
C 	C 	0.34930 0.08540 0.83220 0.07100
H 	H 	0.34420 0.14620 0.83660 -0.01000
N 	N 	0.31280 0.49050 0.72100 -0.27500
C 	C 	0.33790 0.54460 0.74430 0.07500
H 	H 	0.36090 0.52010 0.76120 -0.01900
C 	C 	0.33260 0.63560 0.74570 -0.12300
H 	H 	0.35130 0.67180 0.76350 0.08400
C 	C 	0.29970 0.67310 0.72080 0.05700
C 	C 	0.27330 0.61650 0.69570 -0.11800
H 	H 	0.25040 0.63940 0.67800 0.07800
C 	C 	0.28060 0.52650 0.69670 0.06500
H 	H 	0.26210 0.48830 0.67970 -0.01000
N 	N 	0.16851 0.02290 0.61030 -0.27300
C 	C 	0.17540 0.93820 0.60510 0.07100
H 	H 	0.16030 0.90770 0.58110 -0.00200
C 	C 	0.20420 0.89150 0.63340 -0.11700
H 	H 	0.20840 0.83020 0.62920 0.08500
C 	C 	0.22650 0.93720 0.66760 0.05000
C 	C 	0.21880 0.02550 0.67340 -0.12700
H 	H 	0.23340 0.05800 0.69700 0.09100
C 	C 	0.18970 0.06540 0.64440 0.07300
H 	H 	0.18420 0.12610 0.64860 -0.00400
I 	I 	0.35880 0.31500 0.78910 -0.03800
I 	I 	0.76258 0.76839 0.69407 -0.38200
I 	I 	0.87010 0.82370 0.79610 -0.33500
I 	I 	0.97244 0.64493 0.86748 -0.35100
I 	I 	0.88225 0.73406 0.93859 -0.38200
I 	I 	0.10526 0.22529 0.59839 -0.38300
I 	I 	0.14424 0.08162 0.49206 -0.36800
Zn	Zn	0.82418 0.85569 0.72092 1.16100
Zn	Zn	0.91713 0.61525 0.90559 1.16400
Zn	Zn	0.12546 0.08414 0.56536 1.16400
N 	N 	0.97744 0.76430 0.53110 -0.14600
N 	N 	0.92425 0.72020 0.56170 -0.13500
N 	N 	0.96260 0.84420 0.59060 -0.13300
C 	C 	0.98360 0.82770 0.56080 0.09400
C 	C 	0.94790 0.71070 0.53420 0.09500
C 	C 	0.93220 0.79060 0.58820 0.10600
N 	N 	0.08084 0.99620 0.56320 -0.27700
C 	C 	0.06240 0.95820 0.52720 0.08400
H 	H 	0.07130 0.96970 0.50130 -0.01000
C 	C 	0.03110 0.90310 0.52450 -0.13000
H 	H 	0.01880 0.87770 0.49750 0.08100
C 	C 	0.01820 0.88570 0.56170 0.05700
C 	C 	0.03790 0.92150 0.60040 -0.12800
H 	H 	0.03000 0.90960 0.62670 0.08900
C 	C 	0.06910 0.97430 0.59990 0.07600
H 	H 	0.08320 0.99670 0.62670 -0.01300
N 	N 	0.93090 0.48580 0.45100 -0.26900
C 	C 	0.90500 0.50530 0.47520 0.06000
H 	H 	0.88280 0.46900 0.47340 -0.01100
C 	C 	0.91030 0.57770 0.50260 -0.11100
H 	H 	0.89190 0.59030 0.51970 0.07900
C 	C 	0.94170 0.63150 0.50560 0.05000
C 	C 	0.96870 0.60890 0.48070 -0.11400
H 	H 	0.99110 0.64400 0.48210 0.07200
C 	C 	0.96230 0.53550 0.45420 0.06900
H 	H 	0.98090 0.52000 0.43770 -0.01000
N 	N 	0.85780 0.84040 0.67490 -0.27500
C 	C 	0.89270 0.87640 0.68100 0.07900
H 	H 	0.90070 0.91390 0.70550 -0.02000
C 	C 	0.91770 0.86260 0.65410 -0.12200
H 	H 	0.94240 0.88990 0.66000 0.08500
C 	C 	0.90690 0.80910 0.61840 0.06200
C 	C 	0.86980 0.77100 0.61090 -0.11100
H 	H 	0.86080 0.73420 0.58640 0.08300
C 	C 	0.84660 0.78880 0.64040 0.06800
H 	H 	0.82170 0.76300 0.63560 -0.01000
C 	C 	0.75850 0.39140 0.69920 0.09300
C 	C 	0.80840 0.39980 0.75570 0.09900
C 	C 	0.79270 0.26980 0.72270 0.10500
N 	N 	0.77925 0.44210 0.72910 -0.14200
N 	N 	0.81696 0.31480 0.75280 -0.13500
N 	N 	0.76314 0.30450 0.69420 -0.14200
N 	N 	0.87790 0.54560 0.85970 -0.27200
C 	C 	0.88320 0.45990 0.85380 0.07800
H 	H 	0.90370 0.43080 0.87300 -0.00400
C 	C 	0.86060 0.41040 0.82100 -0.12500
H 	H 	0.86460 0.34840 0.81900 0.09600
C 	C 	0.83230 0.45240 0.79180 0.06300
C 	C 	0.82680 0.54110 0.79750 -0.12700
H 	H 	0.80750 0.57230 0.77770 0.07800
C 	C 	0.84930 0.58540 0.83220 0.07000
H 	H 	0.84420 0.64620 0.83660 -0.01000
N 	N 	0.81280 0.99050 0.72100 -0.27500
C 	C 	0.83790 0.04460 0.74430 0.07400
H 	H 	0.86090 0.02010 0.76120 -0.01900
C 	C 	0.83260 0.13560 0.74570 -0.12300
H 	H 	0.85130 0.17180 0.76350 0.08400
C 	C 	0.79970 0.17310 0.72080 0.05700
C 	C 	0.77330 0.11650 0.69570 -0.11800
H 	H 	0.75040 0.13940 0.67800 0.07700
C 	C 	0.78060 0.02650 0.69670 0.06400
H 	H 	0.76210 0.98830 0.67970 -0.00900
N 	N 	0.66851 0.52290 0.61030 -0.27300
C 	C 	0.67540 0.43820 0.60510 0.07100
H 	H 	0.66030 0.40770 0.58110 -0.00200
C 	C 	0.70420 0.39150 0.63340 -0.11700
H 	H 	0.70840 0.33020 0.62920 0.08500
C 	C 	0.72650 0.43720 0.66760 0.04900
C 	C 	0.71880 0.52550 0.67340 -0.12600
H 	H 	0.73340 0.55800 0.69700 0.09100
C 	C 	0.68970 0.56540 0.64440 0.07200
H 	H 	0.68420 0.62610 0.64860 -0.00400
I 	I 	0.85880 0.81500 0.78910 -0.03800
I 	I 	0.26258 0.73161 0.19407 -0.38200
I 	I 	0.37010 0.67630 0.29610 -0.33500
I 	I 	0.47244 0.85507 0.36748 -0.35100
I 	I 	0.38225 0.76594 0.43859 -0.38200
I 	I 	0.60526 0.27471 0.09839 -0.38300
I 	I 	0.64424 0.41838 0.99206 -0.36800
Zn	Zn	0.32418 0.64431 0.22092 1.16100
Zn	Zn	0.41713 0.88475 0.40559 1.16400
Zn	Zn	0.62546 0.41586 0.06536 1.16400
N 	N 	0.47744 0.73570 0.03110 -0.14600
N 	N 	0.42425 0.77980 0.06170 -0.13500
N 	N 	0.46260 0.65580 0.09060 -0.13300
C 	C 	0.48360 0.67230 0.06080 0.09400
C 	C 	0.44790 0.78930 0.03420 0.09500
C 	C 	0.43220 0.70940 0.08820 0.10600
N 	N 	0.58084 0.50380 0.06320 -0.27700
C 	C 	0.56240 0.54180 0.02720 0.08400
H 	H 	0.57130 0.53030 0.00130 -0.01000
C 	C 	0.53110 0.59690 0.02450 -0.13100
H 	H 	0.51880 0.62230 0.99750 0.08100
C 	C 	0.51820 0.61430 0.06170 0.05700
C 	C 	0.53790 0.57850 0.10040 -0.12800
H 	H 	0.53000 0.59040 0.12670 0.08900
C 	C 	0.56910 0.52570 0.09990 0.07600
H 	H 	0.58320 0.50330 0.12670 -0.01300
N 	N 	0.43090 0.01420 0.95100 -0.27000
C 	C 	0.40500 0.99470 0.97520 0.06200
H 	H 	0.38280 0.03100 0.97340 -0.01200
C 	C 	0.41030 0.92230 0.00260 -0.11300
H 	H 	0.39190 0.90970 0.01970 0.07900
C 	C 	0.44170 0.86850 0.00560 0.05000
C 	C 	0.46870 0.89110 0.98070 -0.11500
H 	H 	0.49110 0.85600 0.98210 0.07200
C 	C 	0.46230 0.96450 0.95420 0.07000
H 	H 	0.48090 0.98000 0.93770 -0.01000
N 	N 	0.35780 0.65960 0.17490 -0.27500
C 	C 	0.39270 0.62360 0.18100 0.07900
H 	H 	0.40070 0.58610 0.20550 -0.02000
C 	C 	0.41770 0.63740 0.15410 -0.12200
H 	H 	0.44240 0.61010 0.16000 0.08500
C 	C 	0.40690 0.69090 0.11840 0.06200
C 	C 	0.36980 0.72900 0.11090 -0.11100
H 	H 	0.36080 0.76580 0.08640 0.08300
C 	C 	0.34660 0.71120 0.14040 0.06800
H 	H 	0.32170 0.73700 0.13560 -0.01000
C 	C 	0.25850 0.10860 0.19920 0.09200
C 	C 	0.30840 0.10020 0.25570 0.09900
C 	C 	0.29270 0.23020 0.22270 0.10500
N 	N 	0.27925 0.05790 0.22910 -0.14200
N 	N 	0.31696 0.18520 0.25280 -0.13500
N 	N 	0.26314 0.19550 0.19420 -0.14100
N 	N 	0.37790 0.95440 0.35970 -0.27200
C 	C 	0.38320 0.04010 0.35380 0.07800
H 	H 	0.40370 0.06920 0.37300 -0.00400
C 	C 	0.36060 0.08960 0.32100 -0.12500
H 	H 	0.36460 0.15160 0.31900 0.09600
C 	C 	0.33230 0.04760 0.29180 0.06400
C 	C 	0.32680 0.95890 0.29750 -0.12700
H 	H 	0.30750 0.92770 0.27770 0.07800
C 	C 	0.34930 0.91460 0.33220 0.07000
H 	H 	0.34420 0.85380 0.33660 -0.01000
N 	N 	0.31280 0.50950 0.22100 -0.27500
C 	C 	0.33790 0.45540 0.24430 0.07500
H 	H 	0.36090 0.47990 0.26120 -0.01900
C 	C 	0.33260 0.36440 0.24570 -0.12300
H 	H 	0.35130 0.32820 0.26350 0.08400
C 	C 	0.29970 0.32690 0.22080 0.05700
C 	C 	0.27330 0.38350 0.19570 -0.11800
H 	H 	0.25040 0.36060 0.17800 0.07800
C 	C 	0.28060 0.47350 0.19670 0.06500
H 	H 	0.26210 0.51170 0.17970 -0.01000
N 	N 	0.16851 0.97710 0.11030 -0.27400
C 	C 	0.17540 0.06180 0.10510 0.07200
H 	H 	0.16030 0.09230 0.08110 -0.00200
C 	C 	0.20420 0.10850 0.13340 -0.11700
H 	H 	0.20840 0.16980 0.12920 0.08500
C 	C 	0.22650 0.06280 0.16760 0.05000
C 	C 	0.21880 0.97450 0.17340 -0.12700
H 	H 	0.23340 0.94200 0.19700 0.09100
C 	C 	0.18970 0.93460 0.14440 0.07300
H 	H 	0.18420 0.87390 0.14860 -0.00400
I 	I 	0.35880 0.68500 0.28910 -0.03800
I 	I 	0.76258 0.23161 0.19407 -0.38200
I 	I 	0.87010 0.17630 0.29610 -0.33500
I 	I 	0.97244 0.35507 0.36748 -0.35100
I 	I 	0.88225 0.26594 0.43859 -0.38200
I 	I 	0.10526 0.77471 0.09839 -0.38300
I 	I 	0.14424 0.91838 0.99206 -0.36800
Zn	Zn	0.82418 0.14431 0.22092 1.16100
Zn	Zn	0.91713 0.38475 0.40559 1.16400
Zn	Zn	0.12546 0.91586 0.06536 1.16400
N 	N 	0.97744 0.23570 0.03110 -0.14600
N 	N 	0.92425 0.27980 0.06170 -0.13500
N 	N 	0.96260 0.15580 0.09060 -0.13300
C 	C 	0.98360 0.17230 0.06080 0.09500
C 	C 	0.94790 0.28930 0.03420 0.09500
C 	C 	0.93220 0.20940 0.08820 0.10600
N 	N 	0.08084 0.00380 0.06320 -0.27600
C 	C 	0.06240 0.04180 0.02720 0.08400
H 	H 	0.07130 0.03030 0.00130 -0.01000
C 	C 	0.03110 0.09690 0.02450 -0.12900
H 	H 	0.01880 0.12230 0.99750 0.08000
C 	C 	0.01820 0.11430 0.06170 0.05700
C 	C 	0.03790 0.07850 0.10040 -0.12800
H 	H 	0.03000 0.09040 0.12670 0.08800
C 	C 	0.06910 0.02570 0.09990 0.07600
H 	H 	0.08320 0.00330 0.12670 -0.01300
N 	N 	0.93090 0.51420 0.95100 -0.26900
C 	C 	0.90500 0.49470 0.97520 0.06000
H 	H 	0.88280 0.53100 0.97340 -0.01100
C 	C 	0.91030 0.42230 0.00260 -0.11100
H 	H 	0.89190 0.40970 0.01970 0.07900
C 	C 	0.94170 0.36850 0.00560 0.05000
C 	C 	0.96870 0.39110 0.98070 -0.11500
H 	H 	0.99110 0.35600 0.98210 0.07200
C 	C 	0.96230 0.46450 0.95420 0.06900
H 	H 	0.98090 0.48000 0.93770 -0.01000
N 	N 	0.85780 0.15960 0.17490 -0.27500
C 	C 	0.89270 0.12360 0.18100 0.07900
H 	H 	0.90070 0.08610 0.20550 -0.02000
C 	C 	0.91770 0.13740 0.15410 -0.12200
H 	H 	0.94240 0.11010 0.16000 0.08500
C 	C 	0.90690 0.19090 0.11840 0.06200
C 	C 	0.86980 0.22900 0.11090 -0.11100
H 	H 	0.86080 0.26580 0.08640 0.08300
C 	C 	0.84660 0.21120 0.14040 0.06800
H 	H 	0.82170 0.23700 0.13560 -0.00900
C 	C 	0.75850 0.60860 0.19920 0.09300
C 	C 	0.80840 0.60020 0.25570 0.09900
C 	C 	0.79270 0.73020 0.22270 0.10500
N 	N 	0.77925 0.55790 0.22910 -0.14200
N 	N 	0.81696 0.68520 0.25280 -0.13500
N 	N 	0.76314 0.69550 0.19420 -0.14200
N 	N 	0.87790 0.45440 0.35970 -0.27200
C 	C 	0.88320 0.54010 0.35380 0.07800
H 	H 	0.90370 0.56920 0.37300 -0.00400
C 	C 	0.86060 0.58960 0.32100 -0.12500
H 	H 	0.86460 0.65160 0.31900 0.09600
C 	C 	0.83230 0.54760 0.29180 0.06300
C 	C 	0.82680 0.45890 0.29750 -0.12700
H 	H 	0.80750 0.42770 0.27770 0.07800
C 	C 	0.84930 0.41460 0.33220 0.07000
H 	H 	0.84420 0.35380 0.33660 -0.01000
N 	N 	0.81280 0.00950 0.22100 -0.27500
C 	C 	0.83790 0.95540 0.24430 0.07400
H 	H 	0.86090 0.97990 0.26120 -0.01900
C 	C 	0.83260 0.86440 0.24570 -0.12300
H 	H 	0.85130 0.82820 0.26350 0.08400
C 	C 	0.79970 0.82690 0.22080 0.05600
C 	C 	0.77330 0.88350 0.19570 -0.11700
H 	H 	0.75040 0.86060 0.17800 0.07700
C 	C 	0.78060 0.97350 0.19670 0.06400
H 	H 	0.76210 0.01170 0.17970 -0.00900
N 	N 	0.66851 0.47710 0.11030 -0.27300
C 	C 	0.67540 0.56180 0.10510 0.07100
H 	H 	0.66030 0.59230 0.08110 -0.00200
C 	C 	0.70420 0.60850 0.13340 -0.11700
H 	H 	0.70840 0.66980 0.12920 0.08500
C 	C 	0.72650 0.56280 0.16760 0.04900
C 	C 	0.71880 0.47450 0.17340 -0.12600
H 	H 	0.73340 0.44200 0.19700 0.09100
C 	C 	0.68970 0.43460 0.14440 0.07200
H 	H 	0.68420 0.37390 0.14860 -0.00400
I 	I 	0.85880 0.18500 0.28910 -0.03800
