data_crystal

_cell_length_a 35.25200
_cell_length_b 39.50900
_cell_length_c 8.15300
_cell_angle_alpha 90.00000
_cell_angle_beta  90.00000
_cell_angle_gamma 90.00000

_symmetry_space_group_name_	'P 1'
_symmetry_space_group_name_H-M	'P 1'

loop_
_symmetry_equiv_pos_as_xyz
  x,y,z

loop_
_atom_site_label
_atom_site_type_symbol
_atom_site_fract_x
_atom_site_fract_y
_atom_site_fract_z
_atom_site_charge
Zn	Zn	0.99780 0.31863 0.37808 1.16400
I 	I 	0.99795 0.32247 0.06645 -0.35700
I 	I 	0.93484 0.30927 0.51727 -0.38300
I 	I 	0.29334 0.21146 0.62300 -0.38300
N 	N 	0.13820 0.22370 0.77330 -0.13900
N 	N 	0.13920 0.19550 0.51450 -0.13500
N 	N 	0.18470 0.18160 0.71920 -0.15000
C 	C 	0.16810 0.20510 0.81430 0.11900
C 	C 	0.12520 0.21760 0.62270 0.09100
C 	C 	0.16990 0.17790 0.57340 0.08400
N 	N 	0.21760 0.22670 0.28180 -0.24700
C 	C 	0.18410 0.24000 0.23860 0.03000
H 	H 	0.17170 0.25500 0.31240 0.00700
C 	C 	0.16680 0.23260 0.09040 -0.04200
H 	H 	0.14270 0.24210 0.06570 0.06900
C 	C 	0.18460 0.21150 0.97700 -0.03300
C 	C 	0.21910 0.19700 0.02730 -0.00800
H 	H 	0.23150 0.18130 0.95670 0.03000
C 	C 	0.23540 0.20470 0.17540 0.00900
H 	H 	0.25910 0.19500 0.20470 0.00900
N 	N 	0.03610 0.28260 0.45560 -0.27900
C 	C 	0.04580 0.28050 0.61310 0.07800
H 	H 	0.03190 0.29360 0.69020 -0.01700
C 	C 	0.07450 0.26050 0.66970 -0.14400
H 	H 	0.08130 0.26090 0.78230 0.08500
C 	C 	0.09320 0.23990 0.56280 0.07100
C 	C 	0.08210 0.24000 0.39970 -0.13000
H 	H 	0.09360 0.22490 0.32360 0.09900
C 	C 	0.05460 0.26210 0.34910 0.07300
H 	H 	0.04820 0.26310 0.23600 -0.01200
N 	N 	0.22600 0.10859 0.25630 -0.27100
C 	C 	0.19160 0.11950 0.22090 0.08600
H 	H 	0.17990 0.11110 0.12430 -0.01400
C 	C 	0.17130 0.14250 0.31480 -0.13000
H 	H 	0.14720 0.15060 0.28080 0.09500
C 	C 	0.18770 0.15310 0.45940 0.06100
C 	C 	0.22390 0.14180 0.50030 -0.13000
H 	H 	0.23600 0.14910 0.59810 0.09100
C 	C 	0.24180 0.11930 0.39320 0.07400
H 	H 	0.26650 0.11140 0.42030 -0.00300
Zn	Zn	0.99780 0.81863 0.87808 1.15900
I 	I 	0.99795 0.82247 0.56645 -0.38000
I 	I 	0.93484 0.80927 0.01727 -0.35800
I 	I 	0.29334 0.71146 0.12300 -0.35700
N 	N 	0.13820 0.72370 0.27330 -0.12900
N 	N 	0.13920 0.69550 0.01450 -0.13000
N 	N 	0.18470 0.68160 0.21920 -0.15000
C 	C 	0.16810 0.70510 0.31430 0.10200
C 	C 	0.12520 0.71760 0.12270 0.08300
C 	C 	0.16990 0.67790 0.07340 0.12700
N 	N 	0.21760 0.72670 0.78180 -0.26500
C 	C 	0.18410 0.74000 0.73860 0.05900
H 	H 	0.17170 0.75500 0.81240 -0.01000
C 	C 	0.16680 0.73260 0.59040 -0.10600
H 	H 	0.14270 0.74210 0.56570 0.08400
C 	C 	0.18460 0.71150 0.47700 0.04800
C 	C 	0.21910 0.69700 0.52730 -0.10600
H 	H 	0.23150 0.68130 0.45670 0.07500
C 	C 	0.23540 0.70470 0.67540 0.05300
H 	H 	0.25910 0.69500 0.70470 -0.01300
N 	N 	0.03610 0.78260 0.95560 -0.30300
C 	C 	0.04580 0.78050 0.11310 0.12500
H 	H 	0.03190 0.79360 0.19020 -0.02600
C 	C 	0.07450 0.76050 0.16970 -0.18300
H 	H 	0.08130 0.76090 0.28230 0.10400
C 	C 	0.09320 0.73990 0.06280 0.12400
C 	C 	0.08210 0.74000 0.89970 -0.18800
H 	H 	0.09360 0.72490 0.82360 0.11300
C 	C 	0.05460 0.76210 0.84910 0.09500
H 	H 	0.04820 0.76310 0.73600 -0.02300
N 	N 	0.22600 0.60859 0.75630 -0.25500
C 	C 	0.19160 0.61950 0.72090 0.05500
H 	H 	0.17990 0.61110 0.62430 -0.00800
C 	C 	0.17130 0.64250 0.81480 -0.08000
H 	H 	0.14720 0.65060 0.78080 0.07400
C 	C 	0.18770 0.65310 0.95940 -0.02800
C 	C 	0.22390 0.64180 0.00030 -0.02300
H 	H 	0.23600 0.64910 0.09810 0.05900
C 	C 	0.24180 0.61930 0.89320 0.00500
H 	H 	0.26650 0.61140 0.92030 0.01300
Zn	Zn	0.49780 0.31863 0.87808 1.15600
I 	I 	0.49795 0.32247 0.56645 -0.38900
I 	I 	0.43484 0.30927 0.01727 -0.36100
I 	I 	0.79334 0.21146 0.12300 -0.35700
N 	N 	0.63820 0.22370 0.27330 -0.12900
N 	N 	0.63920 0.19550 0.01450 -0.13000
N 	N 	0.68470 0.18160 0.21920 -0.15000
C 	C 	0.66810 0.20510 0.31430 0.10200
C 	C 	0.62520 0.21760 0.12270 0.08300
C 	C 	0.66990 0.17790 0.07340 0.12600
N 	N 	0.71760 0.22670 0.78180 -0.26500
C 	C 	0.68410 0.24000 0.73860 0.05900
H 	H 	0.67170 0.25500 0.81240 -0.01000
C 	C 	0.66680 0.23260 0.59040 -0.10600
H 	H 	0.64270 0.24210 0.56570 0.08400
C 	C 	0.68460 0.21150 0.47700 0.04800
C 	C 	0.71910 0.19700 0.52730 -0.10600
H 	H 	0.73150 0.18130 0.45670 0.07500
C 	C 	0.73540 0.20470 0.67540 0.05300
H 	H 	0.75910 0.19500 0.70470 -0.01200
N 	N 	0.53610 0.28260 0.95560 -0.30100
C 	C 	0.54580 0.28050 0.11310 0.12500
H 	H 	0.53190 0.29360 0.19020 -0.02400
C 	C 	0.57450 0.26050 0.16970 -0.18200
H 	H 	0.58130 0.26090 0.28230 0.10400
C 	C 	0.59320 0.23990 0.06280 0.12300
C 	C 	0.58210 0.24000 0.89970 -0.18800
H 	H 	0.59360 0.22490 0.82360 0.11300
C 	C 	0.55460 0.26210 0.84910 0.09500
H 	H 	0.54820 0.26310 0.73600 -0.02100
N 	N 	0.72600 0.10859 0.75630 -0.25500
C 	C 	0.69160 0.11950 0.72090 0.05500
H 	H 	0.67990 0.11110 0.62430 -0.00800
C 	C 	0.67130 0.14250 0.81480 -0.08000
H 	H 	0.64720 0.15060 0.78080 0.07400
C 	C 	0.68770 0.15310 0.95940 -0.02700
C 	C 	0.72390 0.14180 0.00030 -0.02300
H 	H 	0.73600 0.14910 0.09810 0.06000
C 	C 	0.74180 0.11930 0.89320 0.00500
H 	H 	0.76650 0.11140 0.92030 0.01300
Zn	Zn	0.49780 0.81863 0.37808 1.16300
I 	I 	0.49795 0.82247 0.06645 -0.36500
I 	I 	0.43484 0.80927 0.51727 -0.38400
I 	I 	0.79334 0.71146 0.62300 -0.38200
N 	N 	0.63820 0.72370 0.77330 -0.13800
N 	N 	0.63920 0.69550 0.51450 -0.13400
N 	N 	0.68470 0.68160 0.71920 -0.14900
C 	C 	0.66810 0.70510 0.81430 0.12000
C 	C 	0.62520 0.71760 0.62270 0.09200
C 	C 	0.66990 0.67790 0.57340 0.08400
N 	N 	0.71760 0.72670 0.28180 -0.24700
C 	C 	0.68410 0.74000 0.23860 0.03000
H 	H 	0.67170 0.75500 0.31240 0.00700
C 	C 	0.66680 0.73260 0.09040 -0.04200
H 	H 	0.64270 0.74210 0.06570 0.06900
C 	C 	0.68460 0.71150 0.97700 -0.03300
C 	C 	0.71910 0.69700 0.02730 -0.00800
H 	H 	0.73150 0.68130 0.95670 0.03000
C 	C 	0.73540 0.70470 0.17540 0.00900
H 	H 	0.75910 0.69500 0.20470 0.00900
N 	N 	0.53610 0.78260 0.45560 -0.27600
C 	C 	0.54580 0.78050 0.61310 0.07800
H 	H 	0.53190 0.79360 0.69020 -0.01500
C 	C 	0.57450 0.76050 0.66970 -0.14300
H 	H 	0.58130 0.76090 0.78230 0.08600
C 	C 	0.59320 0.73990 0.56280 0.07000
C 	C 	0.58210 0.74000 0.39970 -0.12900
H 	H 	0.59360 0.72490 0.32360 0.09800
C 	C 	0.55460 0.76210 0.34910 0.07300
H 	H 	0.54820 0.76310 0.23600 -0.01000
N 	N 	0.72600 0.60859 0.25630 -0.27100
C 	C 	0.69160 0.61950 0.22090 0.08600
H 	H 	0.67990 0.61110 0.12430 -0.01400
C 	C 	0.67130 0.64250 0.31480 -0.13000
H 	H 	0.64720 0.65060 0.28080 0.09500
C 	C 	0.68770 0.65310 0.45940 0.06100
C 	C 	0.72390 0.64180 0.50030 -0.13000
H 	H 	0.73600 0.64910 0.59810 0.09100
C 	C 	0.74180 0.61930 0.39320 0.07400
H 	H 	0.76650 0.61140 0.42030 -0.00300
Zn	Zn	0.00220 0.68137 0.37808 1.16100
I 	I 	0.00205 0.67753 0.06645 -0.37400
I 	I 	0.06516 0.69073 0.51727 -0.38700
I 	I 	0.70666 0.78854 0.62300 -0.38200
N 	N 	0.86180 0.77630 0.77330 -0.13800
N 	N 	0.86080 0.80450 0.51450 -0.13400
N 	N 	0.81530 0.81840 0.71920 -0.14900
C 	C 	0.83190 0.79490 0.81430 0.12000
C 	C 	0.87480 0.78240 0.62270 0.09200
C 	C 	0.83010 0.82210 0.57340 0.08400
N 	N 	0.78240 0.77330 0.28180 -0.24700
C 	C 	0.81590 0.76000 0.23860 0.03000
H 	H 	0.82830 0.74500 0.31240 0.00700
C 	C 	0.83320 0.76740 0.09040 -0.04200
H 	H 	0.85730 0.75790 0.06570 0.06900
C 	C 	0.81540 0.78850 0.97700 -0.03300
C 	C 	0.78090 0.80300 0.02730 -0.00800
H 	H 	0.76850 0.81870 0.95670 0.03000
C 	C 	0.76460 0.79530 0.17540 0.00900
H 	H 	0.74090 0.80500 0.20470 0.00900
N 	N 	0.96390 0.71740 0.45560 -0.27400
C 	C 	0.95420 0.71950 0.61310 0.07800
H 	H 	0.96810 0.70640 0.69020 -0.01200
C 	C 	0.92550 0.73950 0.66970 -0.14200
H 	H 	0.91870 0.73910 0.78230 0.08600
C 	C 	0.90680 0.76010 0.56280 0.07000
C 	C 	0.91790 0.76000 0.39970 -0.12800
H 	H 	0.90640 0.77510 0.32360 0.09800
C 	C 	0.94540 0.73790 0.34910 0.07300
H 	H 	0.95180 0.73690 0.23600 -0.00800
N 	N 	0.77400 0.89141 0.25630 -0.27100
C 	C 	0.80840 0.88050 0.22090 0.08600
H 	H 	0.82010 0.88890 0.12430 -0.01300
C 	C 	0.82870 0.85750 0.31480 -0.13000
H 	H 	0.85280 0.84940 0.28080 0.09500
C 	C 	0.81230 0.84690 0.45940 0.06100
C 	C 	0.77610 0.85820 0.50030 -0.13000
H 	H 	0.76400 0.85090 0.59810 0.09100
C 	C 	0.75820 0.88070 0.39320 0.07400
H 	H 	0.73350 0.88860 0.42030 -0.00300
Zn	Zn	0.00220 0.18137 0.87808 1.15400
I 	I 	0.00205 0.17753 0.56645 -0.39800
I 	I 	0.06516 0.19073 0.01727 -0.36300
I 	I 	0.70666 0.28854 0.12300 -0.35800
N 	N 	0.86180 0.27630 0.27330 -0.12900
N 	N 	0.86080 0.30450 0.01450 -0.13000
N 	N 	0.81530 0.31840 0.21920 -0.15000
C 	C 	0.83190 0.29490 0.31430 0.10200
C 	C 	0.87480 0.28240 0.12270 0.08300
C 	C 	0.83010 0.32210 0.07340 0.12700
N 	N 	0.78240 0.27330 0.78180 -0.26500
C 	C 	0.81590 0.26000 0.73860 0.05900
H 	H 	0.82830 0.24500 0.81240 -0.01000
C 	C 	0.83320 0.26740 0.59040 -0.10600
H 	H 	0.85730 0.25790 0.56570 0.08400
C 	C 	0.81540 0.28850 0.47700 0.04800
C 	C 	0.78090 0.30300 0.52730 -0.10600
H 	H 	0.76850 0.31870 0.45670 0.07500
C 	C 	0.76460 0.29530 0.67540 0.05300
H 	H 	0.74090 0.30500 0.70470 -0.01300
N 	N 	0.96390 0.21740 0.95560 -0.29900
C 	C 	0.95420 0.21950 0.11310 0.12500
H 	H 	0.96810 0.20640 0.19020 -0.02100
C 	C 	0.92550 0.23950 0.16970 -0.18100
H 	H 	0.91870 0.23910 0.28230 0.10500
C 	C 	0.90680 0.26010 0.06280 0.12300
C 	C 	0.91790 0.26000 0.89970 -0.18700
H 	H 	0.90640 0.27510 0.82360 0.11300
C 	C 	0.94540 0.23790 0.84910 0.09600
H 	H 	0.95180 0.23690 0.73600 -0.01900
N 	N 	0.77400 0.39141 0.75630 -0.25500
C 	C 	0.80840 0.38050 0.72090 0.05500
H 	H 	0.82010 0.38890 0.62430 -0.00800
C 	C 	0.82870 0.35750 0.81480 -0.08000
H 	H 	0.85280 0.34940 0.78080 0.07400
C 	C 	0.81230 0.34690 0.95940 -0.02700
C 	C 	0.77610 0.35820 0.00030 -0.02300
H 	H 	0.76400 0.35090 0.09810 0.05900
C 	C 	0.75820 0.38070 0.89320 0.00500
H 	H 	0.73350 0.38860 0.92030 0.01300
Zn	Zn	0.50220 0.68137 0.87808 1.15600
I 	I 	0.50205 0.67753 0.56645 -0.38900
I 	I 	0.56516 0.69073 0.01727 -0.36100
I 	I 	0.20666 0.78854 0.12300 -0.35800
N 	N 	0.36180 0.77630 0.27330 -0.12900
N 	N 	0.36080 0.80450 0.01450 -0.13000
N 	N 	0.31530 0.81840 0.21920 -0.15000
C 	C 	0.33190 0.79490 0.31430 0.10200
C 	C 	0.37480 0.78240 0.12270 0.08300
C 	C 	0.33010 0.82210 0.07340 0.12700
N 	N 	0.28240 0.77330 0.78180 -0.26500
C 	C 	0.31590 0.76000 0.73860 0.05900
H 	H 	0.32830 0.74500 0.81240 -0.01000
C 	C 	0.33320 0.76740 0.59040 -0.10600
H 	H 	0.35730 0.75790 0.56570 0.08400
C 	C 	0.31540 0.78850 0.47700 0.04800
C 	C 	0.28090 0.80300 0.52730 -0.10600
H 	H 	0.26850 0.81870 0.45670 0.07500
C 	C 	0.26460 0.79530 0.67540 0.05300
H 	H 	0.24090 0.80500 0.70470 -0.01300
N 	N 	0.46390 0.71740 0.95560 -0.30100
C 	C 	0.45420 0.71950 0.11310 0.12500
H 	H 	0.46810 0.70640 0.19020 -0.02400
C 	C 	0.42550 0.73950 0.16970 -0.18200
H 	H 	0.41870 0.73910 0.28230 0.10400
C 	C 	0.40680 0.76010 0.06280 0.12300
C 	C 	0.41790 0.76000 0.89970 -0.18800
H 	H 	0.40640 0.77510 0.82360 0.11300
C 	C 	0.44540 0.73790 0.84910 0.09600
H 	H 	0.45180 0.73690 0.73600 -0.02100
N 	N 	0.27400 0.89141 0.75630 -0.25500
C 	C 	0.30840 0.88050 0.72090 0.05500
H 	H 	0.32010 0.88890 0.62430 -0.00800
C 	C 	0.32870 0.85750 0.81480 -0.08000
H 	H 	0.35280 0.84940 0.78080 0.07400
C 	C 	0.31230 0.84690 0.95940 -0.02800
C 	C 	0.27610 0.85820 0.00030 -0.02200
H 	H 	0.26400 0.85090 0.09810 0.05900
C 	C 	0.25820 0.88070 0.89320 0.00500
H 	H 	0.23350 0.88860 0.92030 0.01300
Zn	Zn	0.50220 0.18137 0.37808 1.16300
I 	I 	0.50205 0.17753 0.06645 -0.36500
I 	I 	0.56516 0.19073 0.51727 -0.38400
I 	I 	0.20666 0.28854 0.62300 -0.38200
N 	N 	0.36180 0.27630 0.77330 -0.13800
N 	N 	0.36080 0.30450 0.51450 -0.13400
N 	N 	0.31530 0.31840 0.71920 -0.14900
C 	C 	0.33190 0.29490 0.81430 0.12000
C 	C 	0.37480 0.28240 0.62270 0.09200
C 	C 	0.33010 0.32210 0.57340 0.08400
N 	N 	0.28240 0.27330 0.28180 -0.24700
C 	C 	0.31590 0.26000 0.23860 0.03000
H 	H 	0.32830 0.24500 0.31240 0.00700
C 	C 	0.33320 0.26740 0.09040 -0.04200
H 	H 	0.35730 0.25790 0.06570 0.06900
C 	C 	0.31540 0.28850 0.97700 -0.03300
C 	C 	0.28090 0.30300 0.02730 -0.00800
H 	H 	0.26850 0.31870 0.95670 0.03000
C 	C 	0.26460 0.29530 0.17540 0.00900
H 	H 	0.24090 0.30500 0.20470 0.00900
N 	N 	0.46390 0.21740 0.45560 -0.27600
C 	C 	0.45420 0.21950 0.61310 0.07800
H 	H 	0.46810 0.20640 0.69020 -0.01500
C 	C 	0.42550 0.23950 0.66970 -0.14300
H 	H 	0.41870 0.23910 0.78230 0.08600
C 	C 	0.40680 0.26010 0.56280 0.07000
C 	C 	0.41790 0.26000 0.39970 -0.12900
H 	H 	0.40640 0.27510 0.32360 0.09800
C 	C 	0.44540 0.23790 0.34910 0.07300
H 	H 	0.45180 0.23690 0.23600 -0.01000
N 	N 	0.27400 0.39141 0.25630 -0.27100
C 	C 	0.30840 0.38050 0.22090 0.08700
H 	H 	0.32010 0.38890 0.12430 -0.01400
C 	C 	0.32870 0.35750 0.31480 -0.13000
H 	H 	0.35280 0.34940 0.28080 0.09500
C 	C 	0.31230 0.34690 0.45940 0.06100
C 	C 	0.27610 0.35820 0.50030 -0.13000
H 	H 	0.26400 0.35090 0.59810 0.09100
C 	C 	0.25820 0.38070 0.39320 0.07400
H 	H 	0.23350 0.38860 0.42030 -0.00300
Zn	Zn	0.24780 0.93137 0.62808 1.16300
I 	I 	0.24795 0.92753 0.31645 -0.37300
I 	I 	0.18484 0.94073 0.76727 -0.39200
I 	I 	0.54334 0.03854 0.87300 -0.39400
N 	N 	0.38820 0.02630 0.02330 -0.12200
N 	N 	0.38920 0.05450 0.76450 -0.13100
N 	N 	0.43470 0.06840 0.96920 -0.15700
C 	C 	0.41810 0.04490 0.06430 0.11800
C 	C 	0.37520 0.03240 0.87270 0.07000
C 	C 	0.41990 0.07210 0.82340 0.08200
N 	N 	0.46760 0.02330 0.53180 -0.25900
C 	C 	0.43410 0.01000 0.48860 0.04700
H 	H 	0.42170 0.99500 0.56240 0.00500
C 	C 	0.41680 0.01740 0.34040 -0.09500
H 	H 	0.39270 0.00790 0.31570 0.08100
C 	C 	0.43460 0.03850 0.22700 0.04100
C 	C 	0.46910 0.05300 0.27730 -0.10000
H 	H 	0.48150 0.06870 0.20670 0.07600
C 	C 	0.48540 0.04530 0.42540 0.05100
H 	H 	0.50910 0.05500 0.45470 -0.00800
N 	N 	0.28610 0.96740 0.70560 -0.28400
C 	C 	0.29580 0.96950 0.86310 0.10500
H 	H 	0.28190 0.95640 0.94020 -0.02500
C 	C 	0.32450 0.98950 0.91970 -0.19400
H 	H 	0.33130 0.98910 0.03230 0.12300
C 	C 	0.34320 0.01010 0.81280 0.09400
C 	C 	0.33210 0.01000 0.64970 -0.15500
H 	H 	0.34360 0.02510 0.57360 0.10600
C 	C 	0.30460 0.98790 0.59910 0.09200
H 	H 	0.29820 0.98690 0.48600 -0.01500
N 	N 	0.47600 0.14141 0.50630 -0.27200
C 	C 	0.44160 0.13050 0.47090 0.08500
H 	H 	0.42990 0.13890 0.37430 -0.01600
C 	C 	0.42130 0.10750 0.56480 -0.13000
H 	H 	0.39720 0.09940 0.53080 0.09400
C 	C 	0.43770 0.09690 0.70940 0.06000
C 	C 	0.47390 0.10820 0.75030 -0.13100
H 	H 	0.48600 0.10090 0.84810 0.08700
C 	C 	0.49180 0.13070 0.64320 0.07200
H 	H 	0.51650 0.13860 0.67030 -0.00500
Zn	Zn	0.24780 0.43137 0.12808 1.16700
I 	I 	0.24795 0.42753 0.81645 -0.39700
I 	I 	0.18484 0.44073 0.26727 -0.37400
I 	I 	0.54334 0.53854 0.37300 -0.37500
N 	N 	0.38820 0.52630 0.52330 -0.13200
N 	N 	0.38920 0.55450 0.26450 -0.13200
N 	N 	0.43470 0.56840 0.46920 -0.14800
C 	C 	0.41810 0.54490 0.56430 0.10800
C 	C 	0.37520 0.53240 0.37270 0.09000
C 	C 	0.41990 0.57210 0.32340 0.09400
N 	N 	0.46760 0.52330 0.03180 -0.22500
C 	C 	0.43410 0.51000 0.98860 -0.02200
H 	H 	0.42170 0.49500 0.06240 0.03700
C 	C 	0.41680 0.51740 0.84040 -0.06100
H 	H 	0.39270 0.50790 0.81570 0.06500
C 	C 	0.43460 0.53850 0.72700 0.02100
C 	C 	0.46910 0.55300 0.77730 -0.08000
H 	H 	0.48150 0.56870 0.70670 0.06400
C 	C 	0.48540 0.54530 0.92540 0.01700
H 	H 	0.50910 0.55500 0.95470 -0.00500
N 	N 	0.28610 0.46740 0.20560 -0.28300
C 	C 	0.29580 0.46950 0.36310 0.08600
H 	H 	0.28190 0.45640 0.44020 -0.01300
C 	C 	0.32450 0.48950 0.41970 -0.15400
H 	H 	0.33130 0.48910 0.53230 0.09400
C 	C 	0.34320 0.51010 0.31280 0.08600
C 	C 	0.33210 0.51000 0.14970 -0.15700
H 	H 	0.34360 0.52510 0.07360 0.11500
C 	C 	0.30460 0.48790 0.09910 0.12200
H 	H 	0.29820 0.48690 0.98600 -0.04100
N 	N 	0.47600 0.64141 0.00630 -0.24400
C 	C 	0.44160 0.63050 0.97090 0.01100
H 	H 	0.42990 0.63890 0.87430 0.00100
C 	C 	0.42130 0.60750 0.06480 -0.06600
H 	H 	0.39720 0.59940 0.03080 0.08100
C 	C 	0.43770 0.59690 0.20940 0.03700
C 	C 	0.47390 0.60820 0.25030 -0.10800
H 	H 	0.48600 0.60090 0.34810 0.08400
C 	C 	0.49180 0.63070 0.14320 0.06400
H 	H 	0.51650 0.63860 0.17030 0.00200
Zn	Zn	0.74780 0.93137 0.12808 1.16700
I 	I 	0.74795 0.92753 0.81645 -0.39500
I 	I 	0.68484 0.94073 0.26727 -0.37300
I 	I 	0.04334 0.03854 0.37300 -0.38400
N 	N 	0.88820 0.02630 0.52330 -0.13300
N 	N 	0.88920 0.05450 0.26450 -0.13200
N 	N 	0.93470 0.06840 0.46920 -0.14700
C 	C 	0.91810 0.04490 0.56430 0.10800
C 	C 	0.87520 0.03240 0.37270 0.09000
C 	C 	0.91990 0.07210 0.32340 0.09300
N 	N 	0.96760 0.02330 0.03180 -0.22500
C 	C 	0.93410 0.01000 0.98860 -0.03100
H 	H 	0.92170 0.99500 0.06240 0.04400
C 	C 	0.91680 0.01740 0.84040 -0.05900
H 	H 	0.89270 0.00790 0.81570 0.06300
C 	C 	0.93460 0.03850 0.72700 0.02300
C 	C 	0.96910 0.05300 0.77730 -0.08800
H 	H 	0.98150 0.06870 0.70670 0.06900
C 	C 	0.98540 0.04530 0.92540 0.03500
H 	H 	0.00910 0.05500 0.95470 -0.01700
N 	N 	0.78610 0.96740 0.20560 -0.28300
C 	C 	0.79580 0.96950 0.36310 0.08400
H 	H 	0.78190 0.95640 0.44020 -0.01200
C 	C 	0.82450 0.98950 0.41970 -0.14600
H 	H 	0.83130 0.98910 0.53230 0.09300
C 	C 	0.84320 0.01010 0.31280 0.08100
C 	C 	0.83210 0.01000 0.14970 -0.16400
H 	H 	0.84360 0.02510 0.07360 0.11700
C 	C 	0.80460 0.98790 0.09910 0.13000
H 	H 	0.79820 0.98690 0.98600 -0.04200
N 	N 	0.97600 0.14141 0.00630 -0.24500
C 	C 	0.94160 0.13050 0.97090 0.01400
H 	H 	0.92990 0.13890 0.87430 0.00100
C 	C 	0.92130 0.10750 0.06480 -0.06900
H 	H 	0.89720 0.09940 0.03080 0.08200
C 	C 	0.93770 0.09690 0.20940 0.04200
C 	C 	0.97390 0.10820 0.25030 -0.11800
H 	H 	0.98600 0.10090 0.34810 0.09000
C 	C 	0.99180 0.13070 0.14320 0.08400
H 	H 	0.01650 0.13860 0.17030 -0.00900
Zn	Zn	0.74780 0.43137 0.62808 1.16300
I 	I 	0.74795 0.42753 0.31645 -0.37500
I 	I 	0.68484 0.44073 0.76727 -0.39400
I 	I 	0.04334 0.53854 0.87300 -0.39600
N 	N 	0.88820 0.52630 0.02330 -0.12000
N 	N 	0.88920 0.55450 0.76450 -0.13100
N 	N 	0.93470 0.56840 0.96920 -0.15500
C 	C 	0.91810 0.54490 0.06430 0.11700
C 	C 	0.87520 0.53240 0.87270 0.07000
C 	C 	0.91990 0.57210 0.82340 0.08100
N 	N 	0.96760 0.52330 0.53180 -0.26200
C 	C 	0.93410 0.51000 0.48860 0.06200
H 	H 	0.92170 0.49500 0.56240 -0.00400
C 	C 	0.91680 0.51740 0.34040 -0.10500
H 	H 	0.89270 0.50790 0.31570 0.08500
C 	C 	0.93460 0.53850 0.22700 0.05000
C 	C 	0.96910 0.55300 0.27730 -0.11200
H 	H 	0.98150 0.56870 0.20670 0.08300
C 	C 	0.98540 0.54530 0.42540 0.07300
H 	H 	0.00910 0.55500 0.45470 -0.02000
N 	N 	0.78610 0.46740 0.70560 -0.28400
C 	C 	0.79580 0.46950 0.86310 0.10600
H 	H 	0.78190 0.45640 0.94020 -0.02600
C 	C 	0.82450 0.48950 0.91970 -0.20100
H 	H 	0.83130 0.48910 0.03230 0.12300
C 	C 	0.84320 0.51010 0.81280 0.09900
C 	C 	0.83210 0.51000 0.64970 -0.14800
H 	H 	0.84360 0.52510 0.57360 0.10400
C 	C 	0.80460 0.48790 0.59910 0.08400
H 	H 	0.79820 0.48690 0.48600 -0.01400
N 	N 	0.97600 0.64141 0.50630 -0.27400
C 	C 	0.94160 0.63050 0.47090 0.08800
H 	H 	0.92990 0.63890 0.37430 -0.01600
C 	C 	0.92130 0.60750 0.56480 -0.13400
H 	H 	0.89720 0.59940 0.53080 0.09500
C 	C 	0.93770 0.59690 0.70940 0.06500
C 	C 	0.97390 0.60820 0.75030 -0.14000
H 	H 	0.98600 0.60090 0.84810 0.09300
C 	C 	0.99180 0.63070 0.64320 0.09200
H 	H 	0.01650 0.63860 0.67030 -0.01600
Zn	Zn	0.25220 0.56863 0.62808 1.16300
I 	I 	0.25205 0.57247 0.31645 -0.37400
I 	I 	0.31516 0.55927 0.76727 -0.39400
I 	I 	0.95666 0.46146 0.87300 -0.38300
N 	N 	0.11180 0.47370 0.02330 -0.12100
N 	N 	0.11080 0.44550 0.76450 -0.13100
N 	N 	0.06530 0.43160 0.96920 -0.15700
C 	C 	0.08190 0.45510 0.06430 0.11900
C 	C 	0.12480 0.46760 0.87270 0.07000
C 	C 	0.08010 0.42790 0.82340 0.08300
N 	N 	0.03240 0.47670 0.53180 -0.25800
C 	C 	0.06590 0.49000 0.48860 0.05600
H 	H 	0.07830 0.50500 0.56240 -0.00200
C 	C 	0.08320 0.48260 0.34040 -0.09800
H 	H 	0.10730 0.49210 0.31570 0.08300
C 	C 	0.06540 0.46150 0.22700 0.03900
C 	C 	0.03090 0.44700 0.27730 -0.09200
H 	H 	0.01850 0.43130 0.20670 0.07100
C 	C 	0.01460 0.45470 0.42540 0.03300
H 	H 	0.99090 0.44500 0.45470 0.00500
N 	N 	0.21390 0.53260 0.70560 -0.28400
C 	C 	0.20420 0.53050 0.86310 0.10600
H 	H 	0.21810 0.54360 0.94020 -0.02600
C 	C 	0.17550 0.51050 0.91970 -0.20200
H 	H 	0.16870 0.51090 0.03230 0.12300
C 	C 	0.15680 0.48990 0.81280 0.09900
C 	C 	0.16790 0.49000 0.64970 -0.14800
H 	H 	0.15640 0.47490 0.57360 0.10400
C 	C 	0.19540 0.51210 0.59910 0.08400
H 	H 	0.20180 0.51310 0.48600 -0.01500
N 	N 	0.02400 0.35859 0.50630 -0.27100
C 	C 	0.05840 0.36950 0.47090 0.08300
H 	H 	0.07010 0.36110 0.37430 -0.01700
C 	C 	0.07870 0.39250 0.56480 -0.12700
H 	H 	0.10280 0.40060 0.53080 0.09300
C 	C 	0.06230 0.40310 0.70940 0.05500
C 	C 	0.02610 0.39180 0.75030 -0.12100
H 	H 	0.01400 0.39910 0.84810 0.08100
C 	C 	0.00820 0.36930 0.64320 0.05300
H 	H 	0.98350 0.36140 0.67030 0.00700
Zn	Zn	0.25220 0.06863 0.12808 1.16600
I 	I 	0.25205 0.07247 0.81645 -0.39800
I 	I 	0.31516 0.05927 0.26727 -0.37600
I 	I 	0.95666 0.96146 0.37300 -0.36400
N 	N 	0.11180 0.97370 0.52330 -0.13100
N 	N 	0.11080 0.94550 0.26450 -0.13200
N 	N 	0.06530 0.93160 0.46920 -0.14800
C 	C 	0.08190 0.95510 0.56430 0.10900
C 	C 	0.12480 0.96760 0.37270 0.09000
C 	C 	0.08010 0.92790 0.32340 0.09500
N 	N 	0.03240 0.97670 0.03180 -0.22400
C 	C 	0.06590 0.99000 0.98860 -0.01200
H 	H 	0.07830 0.00500 0.06240 0.02900
C 	C 	0.08320 0.98260 0.84040 -0.06400
H 	H 	0.10730 0.99210 0.81570 0.06800
C 	C 	0.06540 0.96150 0.72700 0.01900
C 	C 	0.03090 0.94700 0.77730 -0.07200
H 	H 	0.01850 0.93130 0.70670 0.05900
C 	C 	0.01460 0.95470 0.92540 -0.00100
H 	H 	0.99090 0.94500 0.95470 0.00700
N 	N 	0.21390 0.03260 0.20560 -0.28300
C 	C 	0.20420 0.03050 0.36310 0.08700
H 	H 	0.21810 0.04360 0.44020 -0.01500
C 	C 	0.17550 0.01050 0.41970 -0.16200
H 	H 	0.16870 0.01090 0.53230 0.09500
C 	C 	0.15680 0.98990 0.31280 0.09100
C 	C 	0.16790 0.99000 0.14970 -0.15000
H 	H 	0.15640 0.97490 0.07360 0.11400
C 	C 	0.19540 0.01210 0.09910 0.11500
H 	H 	0.20180 0.01310 0.98600 -0.04000
N 	N 	0.02400 0.85859 0.00630 -0.24200
C 	C 	0.05840 0.86950 0.97090 0.00800
H 	H 	0.07010 0.86110 0.87430 0.00100
C 	C 	0.07870 0.89250 0.06480 -0.06200
H 	H 	0.10280 0.90060 0.03080 0.08000
C 	C 	0.06230 0.90310 0.20940 0.03200
C 	C 	0.02610 0.89180 0.25030 -0.09900
H 	H 	0.01400 0.89910 0.34810 0.07800
C 	C 	0.00820 0.86930 0.14320 0.04400
H 	H 	0.98350 0.86140 0.17030 0.01400
Zn	Zn	0.75220 0.56863 0.12808 1.16700
I 	I 	0.75205 0.57247 0.81645 -0.39700
I 	I 	0.81516 0.55927 0.26727 -0.37400
I 	I 	0.45666 0.46146 0.37300 -0.37500
N 	N 	0.61180 0.47370 0.52330 -0.13200
N 	N 	0.61080 0.44550 0.26450 -0.13200
N 	N 	0.56530 0.43160 0.46920 -0.14800
C 	C 	0.58190 0.45510 0.56430 0.10800
C 	C 	0.62480 0.46760 0.37270 0.09000
C 	C 	0.58010 0.42790 0.32340 0.09400
N 	N 	0.53240 0.47670 0.03180 -0.22500
C 	C 	0.56590 0.49000 0.98860 -0.02200
H 	H 	0.57830 0.50500 0.06240 0.03700
C 	C 	0.58320 0.48260 0.84040 -0.06100
H 	H 	0.60730 0.49210 0.81570 0.06500
C 	C 	0.56540 0.46150 0.72700 0.02100
C 	C 	0.53090 0.44700 0.77730 -0.08000
H 	H 	0.51850 0.43130 0.70670 0.06400
C 	C 	0.51460 0.45470 0.92540 0.01700
H 	H 	0.49090 0.44500 0.95470 -0.00500
N 	N 	0.71390 0.53260 0.20560 -0.28300
C 	C 	0.70420 0.53050 0.36310 0.08600
H 	H 	0.71810 0.54360 0.44020 -0.01400
C 	C 	0.67550 0.51050 0.41970 -0.15400
H 	H 	0.66870 0.51090 0.53230 0.09400
C 	C 	0.65680 0.48990 0.31280 0.08600
C 	C 	0.66790 0.49000 0.14970 -0.15700
H 	H 	0.65640 0.47490 0.07360 0.11500
C 	C 	0.69540 0.51210 0.09910 0.12200
H 	H 	0.70180 0.51310 0.98600 -0.04100
N 	N 	0.52400 0.35859 0.00630 -0.24400
C 	C 	0.55840 0.36950 0.97090 0.01100
H 	H 	0.57010 0.36110 0.87430 0.00100
C 	C 	0.57870 0.39250 0.06480 -0.06600
H 	H 	0.60280 0.40060 0.03080 0.08100
C 	C 	0.56230 0.40310 0.20940 0.03700
C 	C 	0.52610 0.39180 0.25030 -0.10800
H 	H 	0.51400 0.39910 0.34810 0.08400
C 	C 	0.50820 0.36930 0.14320 0.06400
H 	H 	0.48350 0.36140 0.17030 0.00200
Zn	Zn	0.75220 0.06863 0.62808 1.16200
I 	I 	0.75205 0.07247 0.31645 -0.37600
I 	I 	0.81516 0.05927 0.76727 -0.39500
I 	I 	0.45666 0.96146 0.87300 -0.38600
N 	N 	0.61180 0.97370 0.02330 -0.11900
N 	N 	0.61080 0.94550 0.76450 -0.13100
N 	N 	0.56530 0.93160 0.96920 -0.15600
C 	C 	0.58190 0.95510 0.06430 0.11700
C 	C 	0.62480 0.96760 0.87270 0.07000
C 	C 	0.58010 0.92790 0.82340 0.08300
N 	N 	0.53240 0.97670 0.53180 -0.26100
C 	C 	0.56590 0.99000 0.48860 0.07100
H 	H 	0.57830 0.00500 0.56240 -0.01100
C 	C 	0.58320 0.98260 0.34040 -0.10700
H 	H 	0.60730 0.99210 0.31570 0.08800
C 	C 	0.56540 0.96150 0.22700 0.04800
C 	C 	0.53090 0.94700 0.27730 -0.10400
H 	H 	0.51850 0.93130 0.20670 0.07800
C 	C 	0.51460 0.95470 0.42540 0.05500
H 	H 	0.49090 0.94500 0.45470 -0.00800
N 	N 	0.71390 0.03260 0.70560 -0.28300
C 	C 	0.70420 0.03050 0.86310 0.10800
H 	H 	0.71810 0.04360 0.94020 -0.02700
C 	C 	0.67550 0.01050 0.91970 -0.20900
H 	H 	0.66870 0.01090 0.03230 0.12400
C 	C 	0.65680 0.98990 0.81280 0.10300
C 	C 	0.66790 0.99000 0.64970 -0.14100
H 	H 	0.65640 0.97490 0.57360 0.10300
C 	C 	0.69540 0.01210 0.59910 0.07600
H 	H 	0.70180 0.01310 0.48600 -0.01400
N 	N 	0.52400 0.85859 0.50630 -0.27200
C 	C 	0.55840 0.86950 0.47090 0.08500
H 	H 	0.57010 0.86110 0.37430 -0.01600
C 	C 	0.57870 0.89250 0.56480 -0.13000
H 	H 	0.60280 0.90060 0.53080 0.09400
C 	C 	0.56230 0.90310 0.70940 0.06000
C 	C 	0.52610 0.89180 0.75030 -0.13000
H 	H 	0.51400 0.89910 0.84810 0.08700
C 	C 	0.50820 0.86930 0.64320 0.07200
H 	H 	0.48350 0.86140 0.67030 -0.00500
Zn	Zn	0.25000 0.25000 0.46320 1.16400
Zn	Zn	0.25000 0.75000 0.96320 1.15500
Zn	Zn	0.75000 0.75000 0.46320 1.16400
Zn	Zn	0.75000 0.25000 0.96320 1.15500
Zn	Zn	0.50000 -0.00000 0.71320 1.16200
Zn	Zn	0.50000 0.50000 0.21320 1.16500
Zn	Zn	-0.00000 0.50000 0.71320 1.16200
Zn	Zn	0.00000 0.00000 0.21320 1.16100
