data_crystal

_cell_length_a 11.88700
_cell_length_b 11.88700
_cell_length_c 16.35500
_cell_angle_alpha 73.37590
_cell_angle_beta  73.37590
_cell_angle_gamma 78.41940

_symmetry_space_group_name_	'P 1'
_symmetry_space_group_name_H-M	'P 1'

loop_
_symmetry_equiv_pos_as_xyz
  x,y,z

loop_
_atom_site_label
_atom_site_type_symbol
_atom_site_fract_x
_atom_site_fract_y
_atom_site_fract_z
_atom_site_charge
Mn	Mn	0.83243 0.61587 0.54667 1.26800
Mn	Mn	0.38413 0.16757 0.95333 1.26700
Mn	Mn	0.16757 0.38413 0.45333 1.26800
Mn	Mn	0.61587 0.83243 0.04667 1.26700
H 	H 	0.16660 0.45260 0.03720 0.12800
H 	H 	0.81350 0.66330 0.27450 0.04900
H 	H 	0.14280 0.48600 0.24540 0.06200
H 	H 	0.97990 0.57390 0.04660 0.07200
H 	H 	0.32820 0.36080 0.07810 0.08200
H 	H 	0.26690 0.37810 0.17290 0.09500
H 	H 	0.29380 0.63620 0.00300 0.10900
H 	H 	0.45870 0.42390 0.18030 0.11400
H 	H 	0.57700 0.56620 0.15240 -0.02500
H 	H 	0.41420 0.77360 0.98180 -0.03200
H 	H 	0.54740 0.83340 0.46280 0.12800
H 	H 	0.33670 0.18650 0.22550 0.05000
H 	H 	0.51400 0.85720 0.25460 0.06200
H 	H 	0.42610 0.02010 0.45340 0.07200
H 	H 	0.63920 0.67180 0.42190 0.08200
H 	H 	0.62190 0.73310 0.32710 0.09500
H 	H 	0.36380 0.70620 0.49700 0.10900
H 	H 	0.57610 0.54130 0.31970 0.11400
H 	H 	0.43380 0.42300 0.34760 -0.02500
H 	H 	0.22640 0.58580 0.51820 -0.03300
H 	H 	0.83340 0.54740 0.96280 0.12900
H 	H 	0.18650 0.33670 0.72550 0.05000
H 	H 	0.85720 0.51400 0.75460 0.06200
H 	H 	0.02010 0.42610 0.95340 0.07200
H 	H 	0.67180 0.63920 0.92190 0.08200
H 	H 	0.73310 0.62190 0.82710 0.09500
H 	H 	0.70620 0.36380 0.99700 0.10900
H 	H 	0.54130 0.57610 0.81970 0.11400
H 	H 	0.42300 0.43380 0.84760 -0.02500
H 	H 	0.58580 0.22640 0.01820 -0.03200
H 	H 	0.45260 0.16660 0.53720 0.12800
H 	H 	0.66330 0.81350 0.77450 0.05000
H 	H 	0.48600 0.14280 0.74540 0.06200
H 	H 	0.57390 0.97990 0.54660 0.07200
H 	H 	0.36080 0.32820 0.57810 0.08200
H 	H 	0.37810 0.26690 0.67290 0.09500
H 	H 	0.63620 0.29380 0.50300 0.10900
H 	H 	0.42390 0.45870 0.68030 0.11400
H 	H 	0.56620 0.57700 0.65240 -0.02500
H 	H 	0.77360 0.41420 0.48180 -0.03300
C 	C 	0.97680 0.57320 0.27380 -0.08000
C 	C 	0.07840 0.51800 0.13760 0.10500
C 	C 	0.77780 0.68920 0.11670 0.26900
C 	C 	0.87950 0.62690 0.24030 -0.01000
C 	C 	0.88100 0.62600 0.15520 -0.04000
C 	C 	0.07710 0.51990 0.22270 -0.08100
C 	C 	0.97670 0.57310 0.36650 0.37600
C 	C 	0.97930 0.57310 0.10380 -0.09900
C 	C 	0.35990 0.51210 0.09620 0.17900
C 	C 	0.28380 0.41860 0.11100 -0.16900
C 	C 	0.35010 0.61970 0.03570 -0.21500
C 	C 	0.44670 0.49490 0.13940 -0.23000
C 	C 	0.51710 0.58230 0.12290 0.13600
C 	C 	0.42270 0.70250 0.02350 0.12200
C 	C 	0.42680 0.02320 0.22620 -0.07900
C 	C 	0.48200 0.92160 0.36240 0.10400
C 	C 	0.31080 0.22220 0.38330 0.26900
C 	C 	0.37310 0.12050 0.25970 -0.01000
C 	C 	0.37400 0.11900 0.34480 -0.04000
C 	C 	0.48010 0.92290 0.27730 -0.08200
C 	C 	0.42690 0.02330 0.13350 0.37700
C 	C 	0.42690 0.02070 0.39620 -0.09800
C 	C 	0.48790 0.64010 0.40380 0.18000
C 	C 	0.58140 0.71620 0.38900 -0.16900
C 	C 	0.38030 0.64990 0.46430 -0.21600
C 	C 	0.50510 0.55330 0.36060 -0.23000
C 	C 	0.41770 0.48290 0.37710 0.13600
C 	C 	0.29750 0.57730 0.47650 0.12400
C 	C 	0.02320 0.42680 0.72620 -0.08000
C 	C 	0.92160 0.48200 0.86240 0.10500
C 	C 	0.22220 0.31080 0.88330 0.26900
C 	C 	0.12050 0.37310 0.75970 -0.01000
C 	C 	0.11900 0.37400 0.84480 -0.04000
C 	C 	0.92290 0.48010 0.77730 -0.08100
C 	C 	0.02330 0.42690 0.63350 0.37600
C 	C 	0.02070 0.42690 0.89620 -0.09900
C 	C 	0.64010 0.48790 0.90380 0.17900
C 	C 	0.71620 0.58140 0.88900 -0.16900
C 	C 	0.64990 0.38030 0.96430 -0.21500
C 	C 	0.55330 0.50510 0.86060 -0.23000
C 	C 	0.48290 0.41770 0.87710 0.13600
C 	C 	0.57730 0.29750 0.97650 0.12200
C 	C 	0.57320 0.97680 0.77380 -0.07900
C 	C 	0.51800 0.07840 0.63760 0.10400
C 	C 	0.68920 0.77780 0.61670 0.26900
C 	C 	0.62690 0.87950 0.74030 -0.01000
C 	C 	0.62600 0.88100 0.65520 -0.04000
C 	C 	0.51990 0.07710 0.72270 -0.08200
C 	C 	0.57310 0.97670 0.86650 0.37700
C 	C 	0.57310 0.97930 0.60380 -0.09800
C 	C 	0.51210 0.35990 0.59620 0.18000
C 	C 	0.41860 0.28380 0.61100 -0.16900
C 	C 	0.61970 0.35010 0.53570 -0.21600
C 	C 	0.49490 0.44670 0.63940 -0.23000
C 	C 	0.58230 0.51710 0.62290 0.13600
C 	C 	0.70250 0.42270 0.52350 0.12400
N 	N 	0.17360 0.46180 0.08580 -0.17900
N 	N 	0.50530 0.68650 0.06830 -0.25400
N 	N 	0.53820 0.82640 0.41420 -0.17800
N 	N 	0.31350 0.49470 0.43170 -0.25400
N 	N 	0.82640 0.53820 0.91420 -0.17900
N 	N 	0.49470 0.31350 0.93170 -0.25400
N 	N 	0.46180 0.17360 0.58580 -0.17800
N 	N 	0.68650 0.50530 0.56830 -0.25400
O 	O 	0.68900 0.73740 0.16380 -0.40500
O 	O 	0.78490 0.69610 0.03630 -0.38500
O 	O 	0.06910 0.53670 0.39210 -0.49600
O 	O 	0.87960 0.61340 0.41240 -0.46700
O 	O 	0.26260 0.31100 0.33620 -0.40500
O 	O 	0.30390 0.21510 0.46370 -0.38500
O 	O 	0.46330 0.93090 0.10790 -0.49800
O 	O 	0.38660 0.12040 0.08760 -0.46700
O 	O 	0.31100 0.26260 0.83620 -0.40500
O 	O 	0.21510 0.30390 0.96370 -0.38500
O 	O 	0.93090 0.46330 0.60790 -0.49600
O 	O 	0.12040 0.38660 0.58760 -0.46700
O 	O 	0.73740 0.68900 0.66380 -0.40500
O 	O 	0.69610 0.78490 0.53630 -0.38500
O 	O 	0.53670 0.06910 0.89210 -0.49800
O 	O 	0.61340 0.87960 0.91240 -0.46700
