data_crystal

_cell_length_a 11.87600
_cell_length_b 11.87600
_cell_length_c 16.34100
_cell_angle_alpha 73.36070
_cell_angle_beta  73.36070
_cell_angle_gamma 78.38130

_symmetry_space_group_name_	'P 1'
_symmetry_space_group_name_H-M	'P 1'

loop_
_symmetry_equiv_pos_as_xyz
  x,y,z

loop_
_atom_site_label
_atom_site_type_symbol
_atom_site_fract_x
_atom_site_fract_y
_atom_site_fract_z
_atom_site_charge
Mn	Mn	0.83244 0.61596 0.54676 1.27000
Mn	Mn	0.38404 0.16756 0.95324 1.26900
Mn	Mn	0.16756 0.38404 0.45324 1.27000
Mn	Mn	0.61596 0.83244 0.04676 1.26900
H 	H 	0.45300 0.16700 0.53700 0.12900
H 	H 	0.66280 0.81340 0.77340 0.05000
H 	H 	0.57330 0.98210 0.54700 0.07200
H 	H 	0.48670 0.14370 0.74470 0.06300
H 	H 	0.37800 0.26700 0.67260 0.09400
H 	H 	0.36120 0.32840 0.57760 0.08100
H 	H 	0.63350 0.29350 0.50180 0.10900
H 	H 	0.42300 0.45960 0.68040 0.11300
H 	H 	0.56350 0.57830 0.65180 -0.02300
H 	H 	0.77520 0.41280 0.48410 -0.03300
H 	H 	0.83300 0.54700 0.96300 0.12900
H 	H 	0.18660 0.33720 0.72660 0.05000
H 	H 	0.01790 0.42670 0.95300 0.07300
H 	H 	0.85630 0.51330 0.75530 0.06200
H 	H 	0.73300 0.62200 0.82740 0.09400
H 	H 	0.67160 0.63880 0.92240 0.08100
H 	H 	0.70650 0.36650 0.99820 0.10900
H 	H 	0.54040 0.57700 0.81960 0.11300
H 	H 	0.42170 0.43650 0.84820 -0.02300
H 	H 	0.58720 0.22480 0.01590 -0.03200
H 	H 	0.54700 0.83300 0.46300 0.12900
H 	H 	0.33720 0.18660 0.22660 0.05000
H 	H 	0.42670 0.01790 0.45300 0.07200
H 	H 	0.51330 0.85630 0.25530 0.06300
H 	H 	0.62200 0.73300 0.32740 0.09400
H 	H 	0.63880 0.67160 0.42240 0.08100
H 	H 	0.36650 0.70650 0.49820 0.10900
H 	H 	0.57700 0.54040 0.31960 0.11300
H 	H 	0.43650 0.42170 0.34820 -0.02300
H 	H 	0.22480 0.58720 0.51590 -0.03300
H 	H 	0.16700 0.45300 0.03700 0.12900
H 	H 	0.81340 0.66280 0.27340 0.05000
H 	H 	0.98210 0.57330 0.04700 0.07300
H 	H 	0.14370 0.48670 0.24470 0.06200
H 	H 	0.26700 0.37800 0.17260 0.09400
H 	H 	0.32840 0.36120 0.07760 0.08100
H 	H 	0.29350 0.63350 0.00180 0.10900
H 	H 	0.45960 0.42300 0.18040 0.11300
H 	H 	0.57830 0.56350 0.15180 -0.02300
H 	H 	0.41280 0.77520 0.98410 -0.03200
C 	C 	0.51760 0.07920 0.63740 0.10700
C 	C 	0.57290 0.97670 0.77450 -0.08000
C 	C 	0.62550 0.88150 0.65460 -0.04000
C 	C 	0.62630 0.87970 0.73960 -0.01000
C 	C 	0.69000 0.77820 0.61640 0.27200
C 	C 	0.57240 0.98100 0.60440 -0.10000
C 	C 	0.52020 0.07740 0.72230 -0.08300
C 	C 	0.51350 0.35970 0.59580 0.17900
C 	C 	0.57270 0.97570 0.86640 0.37100
C 	C 	0.41870 0.28390 0.61060 -0.16600
C 	C 	0.61810 0.34870 0.53540 -0.21600
C 	C 	0.49440 0.44780 0.63970 -0.22900
C 	C 	0.58040 0.51740 0.62300 0.13200
C 	C 	0.70310 0.42250 0.52470 0.12200
C 	C 	0.92080 0.48240 0.86260 0.10900
C 	C 	0.02330 0.42710 0.72550 -0.08100
C 	C 	0.11850 0.37450 0.84540 -0.04000
C 	C 	0.12030 0.37370 0.76040 -0.01000
C 	C 	0.22180 0.31000 0.88360 0.27200
C 	C 	0.01900 0.42760 0.89560 -0.10200
C 	C 	0.92260 0.47980 0.77770 -0.08200
C 	C 	0.64030 0.48650 0.90420 0.17800
C 	C 	0.02430 0.42730 0.63360 0.37000
C 	C 	0.71610 0.58130 0.88940 -0.16500
C 	C 	0.65130 0.38190 0.96460 -0.21500
C 	C 	0.55220 0.50560 0.86030 -0.22800
C 	C 	0.48260 0.41960 0.87700 0.13200
C 	C 	0.57750 0.29690 0.97530 0.12100
C 	C 	0.48240 0.92080 0.36260 0.10700
C 	C 	0.42710 0.02330 0.22550 -0.08000
C 	C 	0.37450 0.11850 0.34540 -0.04000
C 	C 	0.37370 0.12030 0.26040 -0.01000
C 	C 	0.31000 0.22180 0.38360 0.27200
C 	C 	0.42760 0.01900 0.39560 -0.10000
C 	C 	0.47980 0.92260 0.27770 -0.08300
C 	C 	0.48650 0.64030 0.40420 0.17900
C 	C 	0.42730 0.02430 0.13360 0.37100
C 	C 	0.58130 0.71610 0.38940 -0.16600
C 	C 	0.38190 0.65130 0.46460 -0.21600
C 	C 	0.50560 0.55220 0.36030 -0.22900
C 	C 	0.41960 0.48260 0.37700 0.13200
C 	C 	0.29690 0.57750 0.47530 0.12200
C 	C 	0.07920 0.51760 0.13740 0.10900
C 	C 	0.97670 0.57290 0.27450 -0.08100
C 	C 	0.88150 0.62550 0.15460 -0.04000
C 	C 	0.87970 0.62630 0.23960 -0.01000
C 	C 	0.77820 0.69000 0.11640 0.27200
C 	C 	0.98100 0.57240 0.10440 -0.10200
C 	C 	0.07740 0.52020 0.22230 -0.08200
C 	C 	0.35970 0.51350 0.09580 0.17800
C 	C 	0.97570 0.57270 0.36640 0.37000
C 	C 	0.28390 0.41870 0.11060 -0.16500
C 	C 	0.34870 0.61810 0.03540 -0.21500
C 	C 	0.44780 0.49440 0.13970 -0.22800
C 	C 	0.51740 0.58040 0.12300 0.13200
C 	C 	0.42250 0.70310 0.02470 0.12100
N 	N 	0.46200 0.17400 0.58560 -0.18000
N 	N 	0.68720 0.50460 0.56830 -0.25300
N 	N 	0.82600 0.53800 0.91440 -0.18100
N 	N 	0.49540 0.31280 0.93170 -0.25300
N 	N 	0.53800 0.82600 0.41440 -0.18000
N 	N 	0.31280 0.49540 0.43170 -0.25300
N 	N 	0.17400 0.46200 0.08560 -0.18100
N 	N 	0.50460 0.68720 0.06830 -0.25300
O 	O 	0.73690 0.68930 0.66420 -0.40500
O 	O 	0.69620 0.78520 0.53650 -0.38700
O 	O 	0.53630 0.07010 0.89170 -0.49300
O 	O 	0.61460 0.87980 0.91190 -0.46500
O 	O 	0.31070 0.26310 0.83580 -0.40500
O 	O 	0.21480 0.30380 0.96350 -0.38800
O 	O 	0.92990 0.46370 0.60830 -0.49200
O 	O 	0.12020 0.38540 0.58810 -0.46600
O 	O 	0.26310 0.31070 0.33580 -0.40500
O 	O 	0.30380 0.21480 0.46350 -0.38700
O 	O 	0.46370 0.92990 0.10830 -0.49300
O 	O 	0.38540 0.12020 0.08810 -0.46500
O 	O 	0.68930 0.73690 0.16420 -0.40500
O 	O 	0.78520 0.69620 0.03650 -0.38800
O 	O 	0.07010 0.53630 0.39170 -0.49200
O 	O 	0.87980 0.61460 0.41190 -0.46600
