data_crystal

_cell_length_a 11.88450
_cell_length_b 11.88450
_cell_length_c 16.35700
_cell_angle_alpha 73.45420
_cell_angle_beta  73.45420
_cell_angle_gamma 78.48890

_symmetry_space_group_name_	'P 1'
_symmetry_space_group_name_H-M	'P 1'

loop_
_symmetry_equiv_pos_as_xyz
  x,y,z

loop_
_atom_site_label
_atom_site_type_symbol
_atom_site_fract_x
_atom_site_fract_y
_atom_site_fract_z
_atom_site_charge
Mn	Mn	0.83252 0.61562 0.54678 1.26900
Mn	Mn	0.38438 0.16748 0.95322 1.26900
Mn	Mn	0.16748 0.38438 0.45322 1.27000
Mn	Mn	0.61562 0.83252 0.04678 1.27000
H 	H 	0.16560 0.45400 0.03640 0.13000
H 	H 	0.81190 0.66110 0.27480 0.05100
H 	H 	0.14290 0.48810 0.24480 0.06300
H 	H 	0.98100 0.57440 0.04680 0.07400
H 	H 	0.32720 0.36020 0.07920 0.08100
H 	H 	0.26540 0.37880 0.17350 0.09400
H 	H 	0.29270 0.63470 0.00210 0.10600
H 	H 	0.46060 0.42320 0.18010 0.11100
H 	H 	0.57890 0.56410 0.15090 -0.02200
H 	H 	0.41390 0.77370 0.98190 -0.03000
H 	H 	0.54600 0.83440 0.46360 0.12900
H 	H 	0.33890 0.18810 0.22520 0.05100
H 	H 	0.51190 0.85710 0.25520 0.06300
H 	H 	0.42560 0.01900 0.45320 0.07300
H 	H 	0.63980 0.67280 0.42080 0.08100
H 	H 	0.62120 0.73460 0.32650 0.09400
H 	H 	0.36530 0.70730 0.49790 0.10700
H 	H 	0.57680 0.53940 0.31990 0.11100
H 	H 	0.43590 0.42110 0.34910 -0.02200
H 	H 	0.22630 0.58610 0.51810 -0.03100
H 	H 	0.83440 0.54600 0.96360 0.13000
H 	H 	0.18810 0.33890 0.72520 0.05100
H 	H 	0.85710 0.51190 0.75520 0.06300
H 	H 	0.01900 0.42560 0.95320 0.07400
H 	H 	0.67280 0.63980 0.92080 0.08100
H 	H 	0.73460 0.62120 0.82650 0.09400
H 	H 	0.70730 0.36530 0.99790 0.10600
H 	H 	0.53940 0.57680 0.81990 0.11100
H 	H 	0.42110 0.43590 0.84910 -0.02200
H 	H 	0.58610 0.22630 0.01810 -0.03000
H 	H 	0.45400 0.16560 0.53640 0.12900
H 	H 	0.66110 0.81190 0.77480 0.05100
H 	H 	0.48810 0.14290 0.74480 0.06300
H 	H 	0.57440 0.98100 0.54680 0.07300
H 	H 	0.36020 0.32720 0.57920 0.08100
H 	H 	0.37880 0.26540 0.67350 0.09400
H 	H 	0.63470 0.29270 0.50210 0.10700
H 	H 	0.42320 0.46060 0.68010 0.11100
H 	H 	0.56410 0.57890 0.65090 -0.02200
H 	H 	0.77370 0.41390 0.48190 -0.03100
C 	C 	0.07760 0.51900 0.13640 0.11000
C 	C 	0.97640 0.57380 0.27400 -0.07700
C 	C 	0.87870 0.62670 0.24030 -0.01300
C 	C 	0.88140 0.62780 0.15410 -0.03700
C 	C 	0.77840 0.69060 0.11630 0.26400
C 	C 	0.35990 0.51250 0.09650 0.17100
C 	C 	0.07680 0.52140 0.22250 -0.08200
C 	C 	0.97530 0.57310 0.36720 0.37700
C 	C 	0.98030 0.57370 0.10400 -0.10500
C 	C 	0.28300 0.41860 0.11150 -0.16500
C 	C 	0.34860 0.61920 0.03500 -0.20700
C 	C 	0.44820 0.49440 0.13940 -0.22300
C 	C 	0.51800 0.58060 0.12240 0.12800
C 	C 	0.42250 0.70250 0.02340 0.11600
C 	C 	0.48100 0.92240 0.36360 0.10900
C 	C 	0.42620 0.02360 0.22600 -0.07600
C 	C 	0.37330 0.12130 0.25970 -0.01300
C 	C 	0.37220 0.11860 0.34590 -0.03800
C 	C 	0.30940 0.22160 0.38370 0.26500
C 	C 	0.48750 0.64010 0.40350 0.17100
C 	C 	0.47860 0.92320 0.27750 -0.08300
C 	C 	0.42690 0.02470 0.13280 0.37800
C 	C 	0.42630 0.01970 0.39600 -0.10300
C 	C 	0.58140 0.71700 0.38850 -0.16500
C 	C 	0.38080 0.65140 0.46500 -0.20700
C 	C 	0.50560 0.55180 0.36060 -0.22300
C 	C 	0.41940 0.48200 0.37760 0.12800
C 	C 	0.29750 0.57750 0.47660 0.11800
C 	C 	0.92240 0.48100 0.86360 0.11000
C 	C 	0.02360 0.42620 0.72600 -0.07700
C 	C 	0.12130 0.37330 0.75970 -0.01300
C 	C 	0.11860 0.37220 0.84590 -0.03700
C 	C 	0.22160 0.30940 0.88370 0.26400
C 	C 	0.64010 0.48750 0.90350 0.17100
C 	C 	0.92320 0.47860 0.77750 -0.08200
C 	C 	0.02470 0.42690 0.63280 0.37700
C 	C 	0.01970 0.42630 0.89600 -0.10500
C 	C 	0.71700 0.58140 0.88850 -0.16500
C 	C 	0.65140 0.38080 0.96500 -0.20700
C 	C 	0.55180 0.50560 0.86060 -0.22300
C 	C 	0.48200 0.41940 0.87760 0.12800
C 	C 	0.57750 0.29750 0.97660 0.11600
C 	C 	0.51900 0.07760 0.63640 0.10900
C 	C 	0.57380 0.97640 0.77400 -0.07600
C 	C 	0.62670 0.87870 0.74030 -0.01300
C 	C 	0.62780 0.88140 0.65410 -0.03800
C 	C 	0.69060 0.77840 0.61630 0.26500
C 	C 	0.51250 0.35990 0.59650 0.17100
C 	C 	0.52140 0.07680 0.72250 -0.08300
C 	C 	0.57310 0.97530 0.86720 0.37800
C 	C 	0.57370 0.98030 0.60400 -0.10300
C 	C 	0.41860 0.28300 0.61150 -0.16500
C 	C 	0.61920 0.34860 0.53500 -0.20700
C 	C 	0.49440 0.44820 0.63940 -0.22300
C 	C 	0.58060 0.51800 0.62240 0.12800
C 	C 	0.70250 0.42250 0.52340 0.11800
N 	N 	0.50490 0.68710 0.06770 -0.25000
N 	N 	0.17210 0.46290 0.08510 -0.18200
N 	N 	0.31290 0.49510 0.43230 -0.25100
N 	N 	0.53710 0.82790 0.41490 -0.18200
N 	N 	0.49510 0.31290 0.93230 -0.25000
N 	N 	0.82790 0.53710 0.91490 -0.18200
N 	N 	0.68710 0.50490 0.56770 -0.25100
N 	N 	0.46290 0.17210 0.58510 -0.18200
O 	O 	0.68780 0.73740 0.16420 -0.40100
O 	O 	0.06960 0.53540 0.39210 -0.49500
O 	O 	0.78430 0.69770 0.03640 -0.38600
O 	O 	0.88020 0.61400 0.41220 -0.47100
O 	O 	0.26260 0.31220 0.33580 -0.40100
O 	O 	0.46460 0.93040 0.10790 -0.49600
O 	O 	0.30230 0.21570 0.46360 -0.38600
O 	O 	0.38600 0.11980 0.08780 -0.47000
O 	O 	0.31220 0.26260 0.83580 -0.40100
O 	O 	0.93040 0.46460 0.60790 -0.49500
O 	O 	0.21570 0.30230 0.96360 -0.38600
O 	O 	0.11980 0.38600 0.58780 -0.47100
O 	O 	0.73740 0.68780 0.66420 -0.40100
O 	O 	0.53540 0.06960 0.89210 -0.49600
O 	O 	0.69770 0.78430 0.53640 -0.38600
O 	O 	0.61400 0.88020 0.91220 -0.47000
