data_crystal

_cell_length_a 7.11390
_cell_length_b 6.91090
_cell_length_c 6.77990
_cell_angle_alpha 90.00000
_cell_angle_beta  90.00000
_cell_angle_gamma 90.00000

_symmetry_space_group_name_	'P 1'
_symmetry_space_group_name_H-M	'P 1'

loop_
_symmetry_equiv_pos_as_xyz
  x,y,z

loop_
_atom_site_label
_atom_site_type_symbol
_atom_site_fract_x
_atom_site_fract_y
_atom_site_fract_z
_atom_site_charge
Ni	Ni	0.50000 0.50000 -0.00000 1.05100
Fe	Fe	-0.00000 0.00000 -0.00000 1.07500
N 	N 	0.19480 0.19730 -0.00000 -0.22300
C 	C 	0.31250 0.31110 -0.00000 -0.25800
N 	N 	0.80520 0.80270 -0.00000 -0.13400
C 	C 	0.68750 0.68890 -0.00000 -0.20600
N 	N 	0.80520 0.19730 -0.00000 -0.16900
C 	C 	0.68750 0.31110 -0.00000 -0.22800
N 	N 	0.19480 0.80270 -0.00000 -0.18600
C 	C 	0.31250 0.68890 -0.00000 -0.23600
N 	N 	-0.00000 -0.00000 0.29290 -0.29700
N 	N 	-0.00000 0.00000 0.70710 -0.25600
C 	C 	0.00000 0.16410 0.39720 -0.01600
H 	H 	0.00000 0.28430 0.32920 -0.01100
C 	C 	0.00000 0.83590 0.39720 0.06400
H 	H 	0.00000 0.71570 0.32920 -0.02700
C 	C 	0.00000 0.16410 0.60280 -0.01900
H 	H 	0.00000 0.28430 0.67080 0.01900
C 	C 	0.00000 0.83590 0.60280 0.05300
H 	H 	0.00000 0.71570 0.67080 0.00400
