data_crystal

_cell_length_a 7.02800
_cell_length_b 7.01000
_cell_length_c 6.72500
_cell_angle_alpha 90.00000
_cell_angle_beta  90.00000
_cell_angle_gamma 90.00000

_symmetry_space_group_name_	'P 1'
_symmetry_space_group_name_H-M	'P 1'

loop_
_symmetry_equiv_pos_as_xyz
  x,y,z

loop_
_atom_site_label
_atom_site_type_symbol
_atom_site_fract_x
_atom_site_fract_y
_atom_site_fract_z
_atom_site_charge
Ni	Ni	0.50000 0.50000 -0.00000 1.05000
Fe	Fe	-0.00000 0.00000 -0.00000 1.07600
N 	N 	0.80490 0.19690 -0.00000 -0.16800
C 	C 	0.68650 0.31040 -0.00000 -0.22800
N 	N 	0.19510 0.80310 -0.00000 -0.18500
C 	C 	0.31350 0.68960 -0.00000 -0.23700
N 	N 	0.19510 0.19690 -0.00000 -0.22200
C 	C 	0.31350 0.31040 -0.00000 -0.25800
N 	N 	0.80490 0.80310 -0.00000 -0.13400
C 	C 	0.68650 0.68960 -0.00000 -0.20600
N 	N 	0.00000 -0.00000 0.70690 -0.25600
N 	N 	0.00000 -0.00000 0.29310 -0.29700
C 	C 	0.00000 0.16360 0.60220 -0.01900
H 	H 	0.00000 0.28180 0.67110 0.01900
C 	C 	0.00000 0.83640 0.60220 0.05200
H 	H 	0.00000 0.71820 0.67110 0.00500
C 	C 	0.00000 0.16360 0.39780 -0.01700
H 	H 	0.00000 0.28180 0.32890 -0.01100
C 	C 	0.00000 0.83640 0.39780 0.06300
H 	H 	0.00000 0.71820 0.32890 -0.02700
