data_crystal

_cell_length_a 33.14360
_cell_length_b 12.18660
_cell_length_c 18.71130
_cell_angle_alpha 90.00000
_cell_angle_beta  90.00000
_cell_angle_gamma 90.00000

_symmetry_space_group_name_	'P 1'
_symmetry_space_group_name_H-M	'P 1'

loop_
_symmetry_equiv_pos_as_xyz
  x,y,z

loop_
_atom_site_label
_atom_site_type_symbol
_atom_site_fract_x
_atom_site_fract_y
_atom_site_fract_z
_atom_site_charge
N 	N 	0.32677 0.10720 0.81190 -0.21600
N 	N 	0.28217 0.18210 0.68310 -0.24200
N 	N 	0.87743 0.18350 0.31690 -0.24000
O 	O 	0.07894 0.12160 0.51230 2.16600
S 	S 	0.31027 0.90710 0.87958 0.56500
C 	C 	0.31993 0.02440 0.84070 0.13400
C 	C 	0.28266 0.19090 0.61180 0.09500
H 	H 	0.30530 0.22190 0.59060 0.02700
C 	C 	0.25198 0.15720 0.56800 -0.11300
H 	H 	0.25420 0.16370 0.51870 0.10400
C 	C 	0.21710 0.11260 0.59930 0.07800
C 	C 	0.21571 0.10530 0.67250 -0.12200
H 	H 	0.19280 0.07800 0.69500 0.12000
C 	C 	0.24866 0.13860 0.71270 0.09000
H 	H 	0.24760 0.13070 0.76210 -0.01900
C 	C 	0.18409 0.07360 0.55640 0.08700
C 	C 	0.15683 0.03490 0.52410 -0.25600
C 	C 	0.12585 0.98240 0.48190 0.44000
C 	C 	0.13323 0.88320 0.44920 -0.35100
H 	H 	0.15830 0.85030 0.45480 0.18700
C 	C 	0.10420 0.83140 0.40840 0.42300
H 	H 	0.10990 0.76540 0.38560 -0.03300
C 	C 	0.06595 0.88080 0.40220 -0.36200
H 	H 	0.04580 0.84500 0.37660 0.64200
C 	C 	0.05777 0.98080 0.43320 0.65800
C 	C 	0.08760 0.03180 0.47370 -0.47000
C 	C 	0.01916 0.03160 0.42140 0.10500
C 	C 	0.98726 0.06700 0.40490 0.10800
C 	C 	0.94899 0.10790 0.37860 0.17800
C 	C 	0.92388 0.03710 0.34100 -0.17200
H 	H 	0.93070 0.96360 0.33530 0.23400
C 	C 	0.88861 0.07830 0.31220 0.15300
H 	H 	0.87170 0.03010 0.28810 0.03700
C 	C 	0.90120 0.24920 0.35570 0.17400
H 	H 	0.89330 0.32170 0.36230 0.11000
C 	C 	0.93701 0.21490 0.38660 -0.19200
H 	H 	0.95280 0.26390 0.41260 0.36600
C 	C 	0.08500 0.21810 0.48720 0.54100
H 	H 	0.11070 0.21790 0.46250 -2.95500
H 	H 	0.06430 0.23300 0.45180 29.12300
C 	C 	0.08530 0.31280 0.54070 17.33900
H 	H 	0.09410 0.37900 0.51650 -20.49600
H 	H 	0.10470 0.29670 0.57810 -8.19200
C 	C 	0.04530 0.33360 0.57400 10.34600
F 	F 	0.03510 0.24290 0.61290 -34.92600
F 	F 	0.01700 0.32770 0.51960 -3.68500
C 	C 	0.04180 0.43460 0.61510 -4.43800
F 	F 	0.04610 0.51850 0.56730 0.47400
F 	F 	0.07690 0.44520 0.65380 0.66200
C 	C 	0.01120 0.46990 0.66560 5.19100
F 	F 	0.02130 0.57500 0.69340 -3.55300
F 	F 	0.01390 0.40700 0.72920 -0.26600
C 	C 	0.96870 0.47000 0.64920 0.48000
F 	F 	0.95820 0.36120 0.64660 2.43100
F 	F 	0.96500 0.51490 0.58220 -0.50700
C 	C 	0.94060 0.52650 0.69320 0.49900
F 	F 	0.94160 0.63870 0.67640 -0.60400
F 	F 	0.95040 0.53500 0.76410 -0.32100
C 	C 	0.89890 0.49030 0.68640 -2.60400
F 	F 	0.89360 0.39440 0.71000 -0.76300
F 	F 	0.87480 0.55500 0.71880 0.39100
F 	F 	0.88530 0.49300 0.62270 0.35100
C 	C 	0.79260 0.20030 0.92510 -0.04500
H 	H 	0.80350 0.25800 0.95510 0.07000
H 	H 	0.76360 0.20950 0.92760 -0.03700
C 	C 	0.80250 0.24200 0.84880 0.01700
H 	H 	0.78040 0.29210 0.84040 0.14100
H 	H 	0.82560 0.28840 0.85790 0.07900
O 	O 	0.79940 0.10160 0.96820 0.31500
H 	H 	0.78960 0.11040 0.00810 0.08300
O 	O 	0.81100 0.20400 0.77690 -0.40000
H 	H 	0.81460 0.24240 0.74910 0.27600
C 	C 	0.73700 0.12000 0.03200 0.40200
H 	H 	0.72100 0.15870 0.99570 0.01100
H 	H 	0.72580 0.14520 0.07680 -0.12400
C 	C 	0.71900 0.00400 0.02700 -0.21200
H 	H 	0.72120 0.97980 0.07590 0.07000
H 	H 	0.69080 0.01930 0.01960 0.34400
O 	O 	0.77500 0.18100 0.02900 -0.46000
H 	H 	0.79230 0.14150 0.01150 0.41600
O 	O 	0.72370 0.90100 0.98800 -0.52500
H 	H 	0.70150 0.88000 0.97430 -0.02000
C 	C 	0.58940 0.21730 0.52240 -9.08000
C 	C 	0.54530 0.15600 0.47400 -1.54700
C 	C 	0.69260 0.83800 0.92440 -0.16500
C 	C 	0.57580 0.20900 0.04360 6.65700
C 	C 	0.51110 0.20500 0.42400 24.97600
C 	C 	0.72750 0.75900 0.91500 0.07200
C 	C 	0.53760 0.17730 0.08330 20.21000
C 	C 	0.53820 0.21900 0.11500 -4.26100
C 	C 	0.52350 0.07050 0.11160 -1.95600
C 	C 	0.52660 0.12800 0.16080 -7.24700
C 	C 	0.48300 0.06280 0.14320 0.20600
C 	C 	0.49790 0.05130 0.13100 0.07600
C 	C 	0.46210 0.96890 0.17820 -1.94000
C 	C 	0.47740 0.95780 0.16770 -0.44200
C 	C 	0.41970 0.95040 0.18730 0.57800
C 	C 	0.44020 0.93580 0.20790 1.67700
C 	C 	0.40730 0.85800 0.23200 -1.80800
C 	C 	0.43050 0.83100 0.24080 1.94600
F 	F 	0.40220 0.04600 0.21350 1.75200
F 	F 	0.40780 0.96600 0.16500 0.41200
F 	F 	0.41290 0.76730 0.20160 0.41300
F 	F 	0.42660 0.75530 0.19480 -0.19600
F 	F 	0.41500 0.87100 0.29710 0.08200
F 	F 	0.45880 0.78500 0.27290 -0.52700
F 	F 	0.36950 0.84800 0.23760 0.12300
F 	F 	0.39500 0.82300 0.26400 0.38600
F 	F 	0.50610 0.21070 0.03850 -1.81900
F 	F 	0.56660 0.18100 0.06500 -30.66500
F 	F 	0.53730 0.24910 0.14370 29.56700
F 	F 	0.56700 0.21800 0.34900 -3.67300
F 	F 	0.54920 0.03960 0.16140 2.79900
F 	F 	0.50900 0.17100 0.22000 -0.37400
F 	F 	0.52630 0.99510 0.05980 0.76000
F 	F 	0.56120 0.07500 0.17600 -1.03600
F 	F 	0.45590 0.09450 0.08660 3.73500
F 	F 	0.46330 0.12160 0.11090 -5.38900
F 	F 	0.48230 0.14630 0.19720 -0.76800
F 	F 	0.51950 0.99400 0.07400 -0.57900
F 	F 	0.47770 0.87960 0.14510 0.27500
F 	F 	0.47480 0.88330 0.11090 -0.12200
F 	F 	0.47810 0.97100 0.24650 -0.36900
F 	F 	0.50730 0.90740 0.20550 2.69100
F 	F 	0.40100 0.93600 0.12110 0.40800
F 	F 	0.43530 0.01900 0.25720 -0.48400
H 	H 	0.61800 0.22240 0.53270 7.67000
H 	H 	0.57360 0.23040 0.56520 -24.52200
H 	H 	0.54400 0.21170 0.51150 -6.83300
H 	H 	0.52990 0.09560 0.49380 0.16200
H 	H 	0.70070 0.89670 0.89230 0.17700
H 	H 	0.67160 0.79950 0.89860 0.13800
H 	H 	0.64950 0.92870 0.95530 0.69400
H 	H 	0.58700 0.13770 0.03130 17.04500
H 	H 	0.59290 0.23590 0.08180 5.47400
H 	H 	0.49920 0.15010 0.39300 -7.71000
H 	H 	0.49020 0.24330 0.45040 -7.08600
H 	H 	0.74650 0.80930 0.89250 0.09900
H 	H 	0.73650 0.75640 0.96430 0.10800
H 	H 	0.73150 0.16700 0.61900 0.31300
O 	O 	0.66850 0.89900 0.97590 -0.54900
O 	O 	0.74460 0.65800 0.89070 -0.40000
N 	N 	0.17323 0.89280 0.81190 -0.22000
N 	N 	0.21783 0.81790 0.68310 -0.24500
N 	N 	0.62257 0.81650 0.31690 -0.24900
O 	O 	0.42106 0.87840 0.51230 2.19400
S 	S 	0.18973 0.09290 0.87958 0.52700
C 	C 	0.18007 0.97560 0.84070 0.14300
C 	C 	0.21734 0.80910 0.61180 0.10000
H 	H 	0.19470 0.77810 0.59060 0.02500
C 	C 	0.24802 0.84280 0.56800 -0.12000
H 	H 	0.24580 0.83630 0.51870 0.10800
C 	C 	0.28290 0.88740 0.59930 0.09300
C 	C 	0.28429 0.89470 0.67250 -0.13000
H 	H 	0.30720 0.92200 0.69500 0.12700
C 	C 	0.25134 0.86140 0.71270 0.09700
H 	H 	0.25240 0.86930 0.76210 -0.02000
C 	C 	0.31591 0.92640 0.55640 0.07000
C 	C 	0.34317 0.96510 0.52410 -0.22200
C 	C 	0.37415 0.01760 0.48190 0.38400
C 	C 	0.36677 0.11680 0.44920 -0.30600
H 	H 	0.34170 0.14970 0.45480 0.16900
C 	C 	0.39580 0.16860 0.40840 0.37800
H 	H 	0.39010 0.23460 0.38560 -0.02000
C 	C 	0.43405 0.11920 0.40220 -0.31200
H 	H 	0.45420 0.15500 0.37660 0.63000
C 	C 	0.44223 0.01920 0.43320 0.59300
C 	C 	0.41240 0.96820 0.47370 -0.41900
C 	C 	0.48084 0.96840 0.42140 0.16800
C 	C 	0.51274 0.93300 0.40490 0.05600
C 	C 	0.55101 0.89210 0.37860 0.21900
C 	C 	0.57612 0.96290 0.34100 -0.22700
H 	H 	0.56930 0.03640 0.33530 0.26200
C 	C 	0.61139 0.92170 0.31220 0.17900
H 	H 	0.62830 0.96990 0.28810 0.02500
C 	C 	0.59880 0.75080 0.35570 0.18900
H 	H 	0.60670 0.67830 0.36230 0.10600
C 	C 	0.56299 0.78510 0.38660 -0.22000
H 	H 	0.54720 0.73610 0.41260 0.37800
C 	C 	0.41500 0.78190 0.48720 0.55700
H 	H 	0.38930 0.78210 0.46250 -2.99900
H 	H 	0.43570 0.76700 0.45180 29.58200
C 	C 	0.41470 0.68720 0.54070 17.56300
H 	H 	0.40590 0.62100 0.51650 -20.76100
H 	H 	0.39530 0.70330 0.57810 -8.30200
C 	C 	0.45470 0.66640 0.57400 10.50600
F 	F 	0.46490 0.75710 0.61290 -35.50100
F 	F 	0.48300 0.67230 0.51960 -3.76500
C 	C 	0.45820 0.56540 0.61510 -4.49100
F 	F 	0.45390 0.48150 0.56730 0.47800
F 	F 	0.42310 0.55480 0.65380 0.67400
C 	C 	0.48880 0.53010 0.66560 5.26400
F 	F 	0.47870 0.42500 0.69340 -3.61300
F 	F 	0.48610 0.59300 0.72920 -0.26400
C 	C 	0.53130 0.53000 0.64920 0.48200
F 	F 	0.54180 0.63880 0.64660 2.52300
F 	F 	0.53500 0.48510 0.58220 -0.52200
C 	C 	0.55940 0.47350 0.69320 0.50300
F 	F 	0.55840 0.36130 0.67640 -0.60500
F 	F 	0.54960 0.46500 0.76410 -0.32100
C 	C 	0.60110 0.50970 0.68640 -2.61400
F 	F 	0.60640 0.60560 0.71000 -0.76900
F 	F 	0.62520 0.44500 0.71880 0.39600
F 	F 	0.61470 0.50700 0.62270 0.35200
C 	C 	0.70740 0.79970 0.92510 -0.04300
H 	H 	0.69650 0.74200 0.95510 0.06700
H 	H 	0.73640 0.79050 0.92760 -0.03800
C 	C 	0.69750 0.75800 0.84880 0.01500
H 	H 	0.71960 0.70790 0.84040 0.14100
H 	H 	0.67440 0.71160 0.85790 0.08000
O 	O 	0.70060 0.89840 0.96820 0.31300
H 	H 	0.71040 0.88960 0.00810 0.08000
O 	O 	0.68900 0.79600 0.77690 -0.40200
H 	H 	0.68540 0.75760 0.74910 0.27600
C 	C 	0.76300 0.88000 0.03200 0.42200
H 	H 	0.77900 0.84130 0.99570 0.00600
H 	H 	0.77420 0.85480 0.07680 -0.12800
C 	C 	0.78100 0.99600 0.02700 -0.26000
H 	H 	0.77880 0.02020 0.07590 0.09300
H 	H 	0.80920 0.98070 0.01960 0.34300
O 	O 	0.72500 0.81900 0.02900 -0.46600
H 	H 	0.70770 0.85850 0.01150 0.43200
O 	O 	0.77630 0.09900 0.98800 -0.50100
H 	H 	0.79850 0.12000 0.97430 -0.02500
C 	C 	0.91060 0.78270 0.52240 -8.95400
C 	C 	0.95470 0.84400 0.47400 -1.49300
C 	C 	0.80740 0.16200 0.92440 -0.16500
C 	C 	0.92420 0.79100 0.04360 6.41400
C 	C 	0.98890 0.79500 0.42400 24.48900
C 	C 	0.77250 0.24100 0.91500 0.06900
C 	C 	0.96240 0.82270 0.08330 19.39400
C 	C 	0.96180 0.78100 0.11500 -4.01200
C 	C 	0.97650 0.92950 0.11160 -1.82300
C 	C 	0.97340 0.87200 0.16080 -6.91800
C 	C 	0.01700 0.93720 0.14320 0.24400
C 	C 	0.00210 0.94870 0.13100 -0.01400
C 	C 	0.03790 0.03110 0.17820 -1.85200
C 	C 	0.02260 0.04220 0.16770 -0.50200
C 	C 	0.08030 0.04960 0.18730 0.55200
C 	C 	0.05980 0.06420 0.20790 1.57800
C 	C 	0.09270 0.14200 0.23200 -1.76300
C 	C 	0.06950 0.16900 0.24080 1.95800
F 	F 	0.09780 0.95400 0.21350 1.76300
F 	F 	0.09220 0.03400 0.16500 0.44500
F 	F 	0.08710 0.23270 0.20160 0.40500
F 	F 	0.07340 0.24470 0.19480 -0.22400
F 	F 	0.08500 0.12900 0.29710 0.07200
F 	F 	0.04120 0.21500 0.27290 -0.52400
F 	F 	0.13050 0.15200 0.23760 0.11700
F 	F 	0.10500 0.17700 0.26400 0.36300
F 	F 	0.99390 0.78930 0.03850 -1.88800
F 	F 	0.93340 0.81900 0.06500 -29.46300
F 	F 	0.96270 0.75090 0.14370 28.08600
F 	F 	0.93300 0.78200 0.34900 -3.61200
F 	F 	0.95080 0.96040 0.16140 2.65400
F 	F 	0.99100 0.82900 0.22000 -0.38000
F 	F 	0.97370 0.00490 0.05980 0.72800
F 	F 	0.93880 0.92500 0.17600 -0.97900
F 	F 	0.04410 0.90550 0.08660 3.50900
F 	F 	0.03670 0.87840 0.11090 -5.07100
F 	F 	0.01770 0.85370 0.19720 -0.71400
F 	F 	0.98050 0.00600 0.07400 -0.56200
F 	F 	0.02230 0.12040 0.14510 0.30500
F 	F 	0.02520 0.11670 0.11090 -0.14000
F 	F 	0.02190 0.02900 0.24650 -0.35200
F 	F 	0.99270 0.09260 0.20550 2.59100
F 	F 	0.09900 0.06400 0.12110 0.36000
F 	F 	0.06470 0.98100 0.25720 -0.46500
H 	H 	0.88200 0.77760 0.53270 7.56200
H 	H 	0.92640 0.76960 0.56520 -24.13000
H 	H 	0.95600 0.78830 0.51150 -6.73200
H 	H 	0.97010 0.90440 0.49380 0.15100
H 	H 	0.79930 0.10330 0.89230 0.17900
H 	H 	0.82840 0.20050 0.89860 0.13900
H 	H 	0.85050 0.07130 0.95530 0.68400
H 	H 	0.91300 0.86230 0.03130 16.35200
H 	H 	0.90710 0.76410 0.08180 5.24100
H 	H 	0.00080 0.84990 0.39300 -7.54800
H 	H 	0.00980 0.75670 0.45040 -6.91200
H 	H 	0.75350 0.19070 0.89250 0.10000
H 	H 	0.76350 0.24360 0.96430 0.10800
H 	H 	0.76850 0.83300 0.61900 0.31100
O 	O 	0.83150 0.10100 0.97590 -0.54000
O 	O 	0.75540 0.34200 0.89070 -0.39900
N 	N 	0.17323 0.60720 0.68810 -0.21800
N 	N 	0.21783 0.68210 0.81690 -0.24400
N 	N 	0.62257 0.68350 0.18310 -0.24800
O 	O 	0.42106 0.62160 0.98770 2.19100
S 	S 	0.18973 0.40710 0.62042 0.55600
C 	C 	0.18007 0.52440 0.65930 0.13500
C 	C 	0.21734 0.69090 0.88820 0.09600
H 	H 	0.19470 0.72190 0.90940 0.02300
C 	C 	0.24802 0.65720 0.93200 -0.11600
H 	H 	0.24580 0.66370 0.98130 0.09900
C 	C 	0.28290 0.61260 0.90070 0.08400
C 	C 	0.28429 0.60530 0.82750 -0.12500
H 	H 	0.30720 0.57800 0.80500 0.12400
C 	C 	0.25134 0.63860 0.78730 0.09300
H 	H 	0.25240 0.63070 0.73790 -0.01900
C 	C 	0.31591 0.57360 0.94360 0.07700
C 	C 	0.34317 0.53490 0.97590 -0.24200
C 	C 	0.37415 0.48240 0.01810 0.40500
C 	C 	0.36677 0.38320 0.05080 -0.32000
H 	H 	0.34170 0.35030 0.04520 0.17600
C 	C 	0.39580 0.33140 0.09160 0.38900
H 	H 	0.39010 0.26540 0.11440 -0.02300
C 	C 	0.43405 0.38080 0.09780 -0.32100
H 	H 	0.45420 0.34500 0.12340 0.63300
C 	C 	0.44223 0.48080 0.06680 0.60200
C 	C 	0.41240 0.53180 0.02630 -0.42700
C 	C 	0.48084 0.53160 0.07860 0.16300
C 	C 	0.51274 0.56700 0.09510 0.05900
C 	C 	0.55101 0.60790 0.12140 0.21500
C 	C 	0.57612 0.53710 0.15900 -0.22200
H 	H 	0.56930 0.46360 0.16470 0.25900
C 	C 	0.61139 0.57830 0.18780 0.17600
H 	H 	0.62830 0.53010 0.21190 0.02600
C 	C 	0.59880 0.74920 0.14430 0.18700
H 	H 	0.60670 0.82170 0.13770 0.10600
C 	C 	0.56299 0.71490 0.11340 -0.21800
H 	H 	0.54720 0.76390 0.08740 0.37700
C 	C 	0.41500 0.71810 0.01280 0.55800
H 	H 	0.38930 0.71790 0.03750 -2.99800
H 	H 	0.43570 0.73300 0.04820 29.58600
C 	C 	0.41470 0.81280 0.95930 17.55600
H 	H 	0.40590 0.87900 0.98350 -20.74900
H 	H 	0.39530 0.79670 0.92190 -8.29800
C 	C 	0.45470 0.83360 0.92600 10.50300
F 	F 	0.46490 0.74290 0.88710 -35.49200
F 	F 	0.48300 0.82770 0.98040 -3.76600
C 	C 	0.45820 0.93460 0.88490 -4.49100
F 	F 	0.45390 0.01850 0.93270 0.47700
F 	F 	0.42310 0.94520 0.84620 0.67500
C 	C 	0.48880 0.96990 0.83440 5.26100
F 	F 	0.47870 0.07500 0.80660 -3.61200
F 	F 	0.48610 0.90700 0.77080 -0.26400
C 	C 	0.53130 0.97000 0.85080 0.47900
F 	F 	0.54180 0.86120 0.85340 2.51700
F 	F 	0.53500 0.01490 0.91780 -0.52000
C 	C 	0.55940 0.02650 0.80680 0.50100
F 	F 	0.55840 0.13870 0.82360 -0.60500
F 	F 	0.54960 0.03500 0.73590 -0.32000
C 	C 	0.60110 0.99030 0.81360 -2.60800
F 	F 	0.60640 0.89440 0.79000 -0.76700
F 	F 	0.62520 0.05500 0.78120 0.39700
F 	F 	0.61470 0.99300 0.87730 0.34900
C 	C 	0.70740 0.70030 0.57490 -0.04200
H 	H 	0.69650 0.75800 0.54490 0.06400
H 	H 	0.73640 0.70950 0.57240 -0.03700
C 	C 	0.69750 0.74200 0.65120 0.01500
H 	H 	0.71960 0.79210 0.65960 0.14100
H 	H 	0.67440 0.78840 0.64210 0.07900
O 	O 	0.70060 0.60160 0.53180 0.30200
H 	H 	0.71040 0.61040 0.49190 0.06700
O 	O 	0.68900 0.70400 0.72310 -0.40200
H 	H 	0.68540 0.74240 0.75090 0.27600
C 	C 	0.76300 0.62000 0.46800 0.45200
H 	H 	0.77900 0.65870 0.50430 -0.01000
H 	H 	0.77420 0.64520 0.42320 -0.13800
C 	C 	0.78100 0.50400 0.47300 -0.23200
H 	H 	0.77880 0.47980 0.42410 0.07800
H 	H 	0.80920 0.51930 0.48040 0.35000
O 	O 	0.72500 0.68100 0.47100 -0.47600
H 	H 	0.70770 0.64150 0.48850 0.46100
O 	O 	0.77630 0.40100 0.51200 -0.53300
H 	H 	0.79850 0.38000 0.52570 -0.01500
C 	C 	0.91060 0.71730 0.97760 -8.67400
C 	C 	0.95470 0.65600 0.02600 -1.37700
C 	C 	0.80740 0.33800 0.57560 -0.16400
C 	C 	0.92420 0.70900 0.45640 6.56900
C 	C 	0.98890 0.70500 0.07600 23.55300
C 	C 	0.77250 0.25900 0.58500 0.07100
C 	C 	0.96240 0.67730 0.41670 19.94600
C 	C 	0.96180 0.71900 0.38500 -4.17700
C 	C 	0.97650 0.57050 0.38840 -1.90900
C 	C 	0.97340 0.62800 0.33920 -7.14300
C 	C 	0.01700 0.56280 0.35680 0.21100
C 	C 	0.00210 0.55130 0.36900 0.05600
C 	C 	0.03790 0.46890 0.32180 -1.89800
C 	C 	0.02260 0.45780 0.33230 -0.44300
C 	C 	0.08030 0.45040 0.31270 0.56700
C 	C 	0.05980 0.43580 0.29210 1.64700
C 	C 	0.09270 0.35800 0.26800 -1.78100
C 	C 	0.06950 0.33100 0.25920 1.94700
F 	F 	0.09780 0.54600 0.28650 1.75100
F 	F 	0.09220 0.46600 0.33500 0.42500
F 	F 	0.08710 0.26730 0.29840 0.41700
F 	F 	0.07340 0.25530 0.30520 -0.21200
F 	F 	0.08500 0.37100 0.20290 0.06300
F 	F 	0.04120 0.28500 0.22710 -0.52400
F 	F 	0.13050 0.34800 0.26240 0.11900
F 	F 	0.10500 0.32300 0.23600 0.37400
F 	F 	0.99390 0.71070 0.46150 -1.84500
F 	F 	0.93340 0.68100 0.43500 -30.27600
F 	F 	0.96270 0.74910 0.35630 29.08100
F 	F 	0.93300 0.71800 0.15100 -3.49900
F 	F 	0.95080 0.53960 0.33860 2.75100
F 	F 	0.99100 0.67100 0.28000 -0.36400
F 	F 	0.97370 0.49510 0.44020 0.74500
F 	F 	0.93880 0.57500 0.32400 -1.01200
F 	F 	0.04410 0.59450 0.41340 3.62100
F 	F 	0.03670 0.62160 0.38910 -5.22800
F 	F 	0.01770 0.64630 0.30280 -0.73900
F 	F 	0.98050 0.49400 0.42600 -0.57200
F 	F 	0.02230 0.37960 0.35490 0.27800
F 	F 	0.02520 0.38330 0.38910 -0.12700
F 	F 	0.02190 0.47100 0.25350 -0.36000
F 	F 	0.99270 0.40740 0.29450 2.63800
F 	F 	0.09900 0.43600 0.37890 0.39200
F 	F 	0.06470 0.51900 0.24280 -0.47800
H 	H 	0.88200 0.72240 0.96730 7.32700
H 	H 	0.92640 0.73040 0.93480 -23.36200
H 	H 	0.95600 0.71170 0.98850 -6.52100
H 	H 	0.97010 0.59560 0.00620 0.11400
H 	H 	0.79930 0.39670 0.60770 0.17900
H 	H 	0.82840 0.29950 0.60140 0.13800
H 	H 	0.85050 0.42870 0.54470 0.69200
H 	H 	0.91300 0.63770 0.46870 16.84400
H 	H 	0.90710 0.73590 0.41820 5.40300
H 	H 	0.00080 0.65010 0.10700 -7.24800
H 	H 	0.00980 0.74330 0.04960 -6.57400
H 	H 	0.75350 0.30930 0.60750 0.10000
H 	H 	0.76350 0.25640 0.53570 0.10400
H 	H 	0.76850 0.66700 0.88100 0.31200
O 	O 	0.83150 0.39900 0.52410 -0.55100
O 	O 	0.75540 0.15800 0.60930 -0.40100
N 	N 	0.32677 0.39280 0.68810 -0.21700
N 	N 	0.28217 0.31790 0.81690 -0.24400
N 	N 	0.87743 0.31650 0.18310 -0.25100
O 	O 	0.07894 0.37840 0.98770 2.02600
S 	S 	0.31027 0.59290 0.62042 0.56400
C 	C 	0.31993 0.47560 0.65930 0.13500
C 	C 	0.28266 0.30910 0.88820 0.09600
H 	H 	0.30530 0.27810 0.90940 0.02500
C 	C 	0.25198 0.34280 0.93200 -0.11700
H 	H 	0.25420 0.33630 0.98130 0.10000
C 	C 	0.21710 0.38740 0.90070 0.08500
C 	C 	0.21571 0.39470 0.82750 -0.12700
H 	H 	0.19280 0.42200 0.80500 0.12300
C 	C 	0.24866 0.36140 0.78730 0.09400
H 	H 	0.24760 0.36930 0.73790 -0.02000
C 	C 	0.18409 0.42640 0.94360 0.07200
C 	C 	0.15683 0.46510 0.97590 -0.23500
C 	C 	0.12585 0.51760 0.01810 0.37500
C 	C 	0.13323 0.61680 0.05080 -0.28400
H 	H 	0.15830 0.64970 0.04520 0.16500
C 	C 	0.10420 0.66860 0.09160 0.34600
H 	H 	0.10990 0.73460 0.11440 -0.00400
C 	C 	0.06595 0.61920 0.09780 -0.27100
H 	H 	0.04580 0.65500 0.12340 0.59200
C 	C 	0.05777 0.51920 0.06680 0.53000
C 	C 	0.08760 0.46820 0.02630 -0.35000
C 	C 	0.01916 0.46840 0.07860 0.22800
C 	C 	0.98726 0.43300 0.09510 -0.00700
C 	C 	0.94899 0.39210 0.12140 0.24300
C 	C 	0.92388 0.46290 0.15900 -0.24000
H 	H 	0.93070 0.53640 0.16470 0.26200
C 	C 	0.88861 0.42170 0.18780 0.18400
H 	H 	0.87170 0.46990 0.21190 0.02200
C 	C 	0.90120 0.25080 0.14430 0.19400
H 	H 	0.89330 0.17830 0.13770 0.10000
C 	C 	0.93701 0.28510 0.11340 -0.23700
H 	H 	0.95280 0.23610 0.08740 0.37200
C 	C 	0.08500 0.28190 0.01280 0.52400
H 	H 	0.11070 0.28210 0.03750 -2.85700
H 	H 	0.06430 0.26700 0.04820 28.20700
C 	C 	0.08530 0.18720 0.95930 16.87000
H 	H 	0.09410 0.12100 0.98350 -19.91700
H 	H 	0.10470 0.20330 0.92190 -7.96000
C 	C 	0.04530 0.16640 0.92600 10.02300
F 	F 	0.03510 0.25710 0.88710 -33.77100
F 	F 	0.01700 0.17230 0.98040 -3.54000
C 	C 	0.04180 0.06540 0.88490 -4.32500
F 	F 	0.04610 0.98150 0.93270 0.45700
F 	F 	0.07690 0.05480 0.84620 0.63800
C 	C 	0.01120 0.03010 0.83440 5.06700
F 	F 	0.02130 0.92500 0.80660 -3.47400
F 	F 	0.01390 0.09300 0.77080 -0.27600
C 	C 	0.96870 0.03000 0.85080 0.55000
F 	F 	0.95820 0.13880 0.85340 2.33400
F 	F 	0.96500 0.98510 0.91780 -0.50200
C 	C 	0.94060 0.97350 0.80680 0.52500
F 	F 	0.94160 0.86130 0.82360 -0.59900
F 	F 	0.95040 0.96500 0.73590 -0.32100
C 	C 	0.89890 0.00970 0.81360 -2.61400
F 	F 	0.89360 0.10560 0.79000 -0.76600
F 	F 	0.87480 0.94500 0.78120 0.38600
F 	F 	0.88530 0.00700 0.87730 0.36000
C 	C 	0.79260 0.29970 0.57490 -0.04200
H 	H 	0.80350 0.24200 0.54490 0.06300
H 	H 	0.76360 0.29050 0.57240 -0.03700
C 	C 	0.80250 0.25800 0.65120 0.01400
H 	H 	0.78040 0.20790 0.65960 0.14200
H 	H 	0.82560 0.21160 0.64210 0.08100
O 	O 	0.79940 0.39840 0.53180 0.30200
H 	H 	0.78960 0.38960 0.49190 0.06700
O 	O 	0.81100 0.29600 0.72310 -0.40100
H 	H 	0.81460 0.25760 0.75090 0.27600
C 	C 	0.73700 0.38000 0.46800 0.45400
H 	H 	0.72100 0.34130 0.50430 -0.01000
H 	H 	0.72580 0.35480 0.42320 -0.14000
C 	C 	0.71900 0.49600 0.47300 -0.23500
H 	H 	0.72120 0.52020 0.42410 0.07800
H 	H 	0.69080 0.48070 0.48040 0.35400
O 	O 	0.77500 0.31900 0.47100 -0.47700
H 	H 	0.79230 0.35850 0.48850 0.46100
O 	O 	0.72370 0.59900 0.51200 -0.53100
H 	H 	0.70150 0.62000 0.52570 -0.01500
C 	C 	0.58940 0.28270 0.97760 -9.07700
C 	C 	0.54530 0.34400 0.02600 -1.54700
C 	C 	0.69260 0.66200 0.57560 -0.16500
C 	C 	0.57580 0.29100 0.45640 6.65500
C 	C 	0.51110 0.29500 0.07600 24.97000
C 	C 	0.72750 0.74100 0.58500 0.07100
C 	C 	0.53760 0.32270 0.41670 20.21500
C 	C 	0.53820 0.28100 0.38500 -4.26200
C 	C 	0.52350 0.42950 0.38840 -1.95800
C 	C 	0.52660 0.37200 0.33920 -7.24900
C 	C 	0.48300 0.43720 0.35680 0.20700
C 	C 	0.49790 0.44870 0.36900 0.07500
C 	C 	0.46210 0.53110 0.32180 -1.94200
C 	C 	0.47740 0.54220 0.33230 -0.44400
C 	C 	0.41970 0.54960 0.31270 0.58100
C 	C 	0.44020 0.56420 0.29210 1.67500
C 	C 	0.40730 0.64200 0.26800 -1.80700
C 	C 	0.43050 0.66900 0.25920 1.94600
F 	F 	0.40220 0.45400 0.28650 1.75800
F 	F 	0.40780 0.53400 0.33500 0.41300
F 	F 	0.41290 0.73270 0.29840 0.41100
F 	F 	0.42660 0.74470 0.30520 -0.19500
F 	F 	0.41500 0.62900 0.20290 0.08200
F 	F 	0.45880 0.71500 0.22710 -0.52600
F 	F 	0.36950 0.65200 0.26240 0.12300
F 	F 	0.39500 0.67700 0.23600 0.38600
F 	F 	0.50610 0.28930 0.46150 -1.82100
F 	F 	0.56660 0.31900 0.43500 -30.67400
F 	F 	0.53730 0.25090 0.35630 29.57500
F 	F 	0.56700 0.28200 0.15100 -3.67200
F 	F 	0.54920 0.46040 0.33860 2.79800
F 	F 	0.50900 0.32900 0.28000 -0.37300
F 	F 	0.52630 0.50490 0.44020 0.76100
F 	F 	0.56120 0.42500 0.32400 -1.03500
F 	F 	0.45590 0.40550 0.41340 3.74300
F 	F 	0.46330 0.37840 0.38910 -5.40100
F 	F 	0.48230 0.35370 0.30280 -0.76900
F 	F 	0.51950 0.50600 0.42600 -0.58000
F 	F 	0.47770 0.62040 0.35490 0.27600
F 	F 	0.47480 0.61670 0.38910 -0.12300
F 	F 	0.47810 0.52900 0.25350 -0.36800
F 	F 	0.50730 0.59260 0.29450 2.69200
F 	F 	0.40100 0.56400 0.37890 0.40500
F 	F 	0.43530 0.48100 0.24280 -0.48400
H 	H 	0.61800 0.27760 0.96730 7.66900
H 	H 	0.57360 0.26960 0.93480 -24.52700
H 	H 	0.54400 0.28830 0.98850 -6.83300
H 	H 	0.52990 0.40440 0.00620 0.16100
H 	H 	0.70070 0.60330 0.60770 0.17900
H 	H 	0.67160 0.70050 0.60140 0.13800
H 	H 	0.64950 0.57130 0.54470 0.69500
H 	H 	0.58700 0.36230 0.46870 17.05800
H 	H 	0.59290 0.26410 0.41820 5.47800
H 	H 	0.49920 0.34990 0.10700 -7.70900
H 	H 	0.49020 0.25670 0.04960 -7.08500
H 	H 	0.74650 0.69070 0.60750 0.09900
H 	H 	0.73650 0.74360 0.53570 0.10400
H 	H 	0.73150 0.33300 0.88100 0.31200
O 	O 	0.66850 0.60100 0.52410 -0.55100
O 	O 	0.74460 0.84200 0.60930 -0.40300
N 	N 	0.67323 0.89280 0.18810 -0.21700
N 	N 	0.71783 0.81790 0.31690 -0.24300
N 	N 	0.12257 0.81650 0.68310 -0.24100
O 	O 	0.92106 0.87840 0.48770 2.16500
S 	S 	0.68973 0.09290 0.12042 0.56400
C 	C 	0.68007 0.97560 0.15930 0.13300
C 	C 	0.71734 0.80910 0.38820 0.09500
H 	H 	0.69470 0.77810 0.40940 0.02700
C 	C 	0.74802 0.84280 0.43200 -0.11300
H 	H 	0.74580 0.83630 0.48130 0.10400
C 	C 	0.78290 0.88740 0.40070 0.07800
C 	C 	0.78429 0.89470 0.32750 -0.12200
H 	H 	0.80720 0.92200 0.30500 0.12000
C 	C 	0.75134 0.86140 0.28730 0.09000
H 	H 	0.75240 0.86930 0.23790 -0.01900
C 	C 	0.81591 0.92640 0.44360 0.08700
C 	C 	0.84317 0.96510 0.47590 -0.25600
C 	C 	0.87415 0.01760 0.51810 0.44000
C 	C 	0.86677 0.11680 0.55080 -0.35100
H 	H 	0.84170 0.14970 0.54520 0.18700
C 	C 	0.89580 0.16860 0.59160 0.42300
H 	H 	0.89010 0.23460 0.61440 -0.03300
C 	C 	0.93405 0.11920 0.59780 -0.36200
H 	H 	0.95420 0.15500 0.62340 0.64200
C 	C 	0.94223 0.01920 0.56680 0.65800
C 	C 	0.91240 0.96820 0.52630 -0.47000
C 	C 	0.98084 0.96840 0.57860 0.10500
C 	C 	0.01274 0.93300 0.59510 0.10800
C 	C 	0.05101 0.89210 0.62140 0.17800
C 	C 	0.07612 0.96290 0.65900 -0.17200
H 	H 	0.06930 0.03640 0.66470 0.23400
C 	C 	0.11139 0.92170 0.68780 0.15300
H 	H 	0.12830 0.96990 0.71190 0.03700
C 	C 	0.09880 0.75080 0.64430 0.17400
H 	H 	0.10670 0.67830 0.63770 0.11000
C 	C 	0.06299 0.78510 0.61340 -0.19200
H 	H 	0.04720 0.73610 0.58740 0.36600
C 	C 	0.91500 0.78190 0.51280 0.54100
H 	H 	0.88930 0.78210 0.53750 -2.95500
H 	H 	0.93570 0.76700 0.54820 29.12300
C 	C 	0.91470 0.68720 0.45930 17.33900
H 	H 	0.90590 0.62100 0.48350 -20.49600
H 	H 	0.89530 0.70330 0.42190 -8.19200
C 	C 	0.95470 0.66640 0.42600 10.34600
F 	F 	0.96490 0.75710 0.38710 -34.92600
F 	F 	0.98300 0.67230 0.48040 -3.68500
C 	C 	0.95820 0.56540 0.38490 -4.43800
F 	F 	0.95390 0.48150 0.43270 0.47400
F 	F 	0.92310 0.55480 0.34620 0.66200
C 	C 	0.98880 0.53010 0.33440 5.19100
F 	F 	0.97870 0.42500 0.30660 -3.55300
F 	F 	0.98610 0.59300 0.27080 -0.26600
C 	C 	0.03130 0.53000 0.35080 0.48000
F 	F 	0.04180 0.63880 0.35340 2.43100
F 	F 	0.03500 0.48510 0.41780 -0.50700
C 	C 	0.05940 0.47350 0.30680 0.49900
F 	F 	0.05840 0.36130 0.32360 -0.60400
F 	F 	0.04960 0.46500 0.23590 -0.32100
C 	C 	0.10110 0.50970 0.31360 -2.60400
F 	F 	0.10640 0.60560 0.29000 -0.76300
F 	F 	0.12520 0.44500 0.28120 0.39100
F 	F 	0.11470 0.50700 0.37730 0.35100
C 	C 	0.20740 0.79970 0.07490 -0.04500
H 	H 	0.19650 0.74200 0.04490 0.07000
H 	H 	0.23640 0.79050 0.07240 -0.03700
C 	C 	0.19750 0.75800 0.15120 0.01700
H 	H 	0.21960 0.70790 0.15960 0.14100
H 	H 	0.17440 0.71160 0.14210 0.07900
O 	O 	0.20060 0.89840 0.03180 0.31500
H 	H 	0.21040 0.88960 0.99190 0.08300
O 	O 	0.18900 0.79600 0.22310 -0.40000
H 	H 	0.18540 0.75760 0.25090 0.27600
C 	C 	0.26300 0.88000 0.96800 0.40200
H 	H 	0.27900 0.84130 0.00430 0.01100
H 	H 	0.27420 0.85480 0.92320 -0.12400
C 	C 	0.28100 0.99600 0.97300 -0.21200
H 	H 	0.27880 0.02020 0.92410 0.07000
H 	H 	0.30920 0.98070 0.98040 0.34400
O 	O 	0.22500 0.81900 0.97100 -0.46000
H 	H 	0.20770 0.85850 0.98850 0.41600
O 	O 	0.27630 0.09900 0.01200 -0.52500
H 	H 	0.29850 0.12000 0.02570 -0.02000
C 	C 	0.41060 0.78270 0.47760 -9.08000
C 	C 	0.45470 0.84400 0.52600 -1.54700
C 	C 	0.30740 0.16200 0.07560 -0.16500
C 	C 	0.42420 0.79100 0.95640 6.65700
C 	C 	0.48890 0.79500 0.57600 24.97600
C 	C 	0.27250 0.24100 0.08500 0.07200
C 	C 	0.46240 0.82270 0.91670 20.21000
C 	C 	0.46180 0.78100 0.88500 -4.26100
C 	C 	0.47650 0.92950 0.88840 -1.95600
C 	C 	0.47340 0.87200 0.83920 -7.24700
C 	C 	0.51700 0.93720 0.85680 0.20600
C 	C 	0.50210 0.94870 0.86900 0.07600
C 	C 	0.53790 0.03110 0.82180 -1.94000
C 	C 	0.52260 0.04220 0.83230 -0.44200
C 	C 	0.58030 0.04960 0.81270 0.57800
C 	C 	0.55980 0.06420 0.79210 1.67700
C 	C 	0.59270 0.14200 0.76800 -1.80800
C 	C 	0.56950 0.16900 0.75920 1.94600
F 	F 	0.59780 0.95400 0.78650 1.75200
F 	F 	0.59220 0.03400 0.83500 0.41200
F 	F 	0.58710 0.23270 0.79840 0.41300
F 	F 	0.57340 0.24470 0.80520 -0.19600
F 	F 	0.58500 0.12900 0.70290 0.08200
F 	F 	0.54120 0.21500 0.72710 -0.52700
F 	F 	0.63050 0.15200 0.76240 0.12300
F 	F 	0.60500 0.17700 0.73600 0.38600
F 	F 	0.49390 0.78930 0.96150 -1.81900
F 	F 	0.43340 0.81900 0.93500 -30.66500
F 	F 	0.46270 0.75090 0.85630 29.56700
F 	F 	0.43300 0.78200 0.65100 -3.67300
F 	F 	0.45080 0.96040 0.83860 2.79900
F 	F 	0.49100 0.82900 0.78000 -0.37400
F 	F 	0.47370 0.00490 0.94020 0.76000
F 	F 	0.43880 0.92500 0.82400 -1.03600
F 	F 	0.54410 0.90550 0.91340 3.73500
F 	F 	0.53670 0.87840 0.88910 -5.38900
F 	F 	0.51770 0.85370 0.80280 -0.76800
F 	F 	0.48050 0.00600 0.92600 -0.57900
F 	F 	0.52230 0.12040 0.85490 0.27500
F 	F 	0.52520 0.11670 0.88910 -0.12200
F 	F 	0.52190 0.02900 0.75350 -0.36900
F 	F 	0.49270 0.09260 0.79450 2.69100
F 	F 	0.59900 0.06400 0.87890 0.40800
F 	F 	0.56470 0.98100 0.74280 -0.48400
H 	H 	0.38200 0.77760 0.46730 7.67000
H 	H 	0.42640 0.76960 0.43480 -24.52200
H 	H 	0.45600 0.78830 0.48850 -6.83300
H 	H 	0.47010 0.90440 0.50620 0.16200
H 	H 	0.29930 0.10330 0.10770 0.17700
H 	H 	0.32840 0.20050 0.10140 0.13800
H 	H 	0.35050 0.07130 0.04470 0.69400
H 	H 	0.41300 0.86230 0.96870 17.04500
H 	H 	0.40710 0.76410 0.91820 5.47400
H 	H 	0.50080 0.84990 0.60700 -7.71000
H 	H 	0.50980 0.75670 0.54960 -7.08600
H 	H 	0.25350 0.19070 0.10750 0.09900
H 	H 	0.26350 0.24360 0.03570 0.10800
H 	H 	0.26850 0.83300 0.38100 0.31300
O 	O 	0.33150 0.10100 0.02410 -0.54900
O 	O 	0.25540 0.34200 0.10930 -0.40000
N 	N 	0.82677 0.10720 0.18810 -0.22000
N 	N 	0.78217 0.18210 0.31690 -0.24500
N 	N 	0.37743 0.18350 0.68310 -0.24900
O 	O 	0.57894 0.12160 0.48770 2.19400
S 	S 	0.81027 0.90710 0.12042 0.52700
C 	C 	0.81993 0.02440 0.15930 0.14300
C 	C 	0.78266 0.19090 0.38820 0.10000
H 	H 	0.80530 0.22190 0.40940 0.02500
C 	C 	0.75198 0.15720 0.43200 -0.12000
H 	H 	0.75420 0.16370 0.48130 0.10800
C 	C 	0.71710 0.11260 0.40070 0.09300
C 	C 	0.71571 0.10530 0.32750 -0.13000
H 	H 	0.69280 0.07800 0.30500 0.12700
C 	C 	0.74866 0.13860 0.28730 0.09700
H 	H 	0.74760 0.13070 0.23790 -0.02000
C 	C 	0.68409 0.07360 0.44360 0.07000
C 	C 	0.65683 0.03490 0.47590 -0.22200
C 	C 	0.62585 0.98240 0.51810 0.38400
C 	C 	0.63323 0.88320 0.55080 -0.30600
H 	H 	0.65830 0.85030 0.54520 0.16900
C 	C 	0.60420 0.83140 0.59160 0.37800
H 	H 	0.60990 0.76540 0.61440 -0.02000
C 	C 	0.56595 0.88080 0.59780 -0.31200
H 	H 	0.54580 0.84500 0.62340 0.63000
C 	C 	0.55777 0.98080 0.56680 0.59300
C 	C 	0.58760 0.03180 0.52630 -0.41900
C 	C 	0.51916 0.03160 0.57860 0.16800
C 	C 	0.48726 0.06700 0.59510 0.05600
C 	C 	0.44899 0.10790 0.62140 0.21900
C 	C 	0.42388 0.03710 0.65900 -0.22700
H 	H 	0.43070 0.96360 0.66470 0.26200
C 	C 	0.38861 0.07830 0.68780 0.17900
H 	H 	0.37170 0.03010 0.71190 0.02500
C 	C 	0.40120 0.24920 0.64430 0.18900
H 	H 	0.39330 0.32170 0.63770 0.10600
C 	C 	0.43701 0.21490 0.61340 -0.22000
H 	H 	0.45280 0.26390 0.58740 0.37800
C 	C 	0.58500 0.21810 0.51280 0.55700
H 	H 	0.61070 0.21790 0.53750 -2.99900
H 	H 	0.56430 0.23300 0.54820 29.58200
C 	C 	0.58530 0.31280 0.45930 17.56300
H 	H 	0.59410 0.37900 0.48350 -20.76100
H 	H 	0.60470 0.29670 0.42190 -8.30200
C 	C 	0.54530 0.33360 0.42600 10.50600
F 	F 	0.53510 0.24290 0.38710 -35.50100
F 	F 	0.51700 0.32770 0.48040 -3.76500
C 	C 	0.54180 0.43460 0.38490 -4.49100
F 	F 	0.54610 0.51850 0.43270 0.47800
F 	F 	0.57690 0.44520 0.34620 0.67400
C 	C 	0.51120 0.46990 0.33440 5.26400
F 	F 	0.52130 0.57500 0.30660 -3.61300
F 	F 	0.51390 0.40700 0.27080 -0.26400
C 	C 	0.46870 0.47000 0.35080 0.48200
F 	F 	0.45820 0.36120 0.35340 2.52300
F 	F 	0.46500 0.51490 0.41780 -0.52200
C 	C 	0.44060 0.52650 0.30680 0.50300
F 	F 	0.44160 0.63870 0.32360 -0.60500
F 	F 	0.45040 0.53500 0.23590 -0.32100
C 	C 	0.39890 0.49030 0.31360 -2.61400
F 	F 	0.39360 0.39440 0.29000 -0.76900
F 	F 	0.37480 0.55500 0.28120 0.39600
F 	F 	0.38530 0.49300 0.37730 0.35200
C 	C 	0.29260 0.20030 0.07490 -0.04300
H 	H 	0.30350 0.25800 0.04490 0.06700
H 	H 	0.26360 0.20950 0.07240 -0.03800
C 	C 	0.30250 0.24200 0.15120 0.01500
H 	H 	0.28040 0.29210 0.15960 0.14100
H 	H 	0.32560 0.28840 0.14210 0.08000
O 	O 	0.29940 0.10160 0.03180 0.31300
H 	H 	0.28960 0.11040 0.99190 0.08000
O 	O 	0.31100 0.20400 0.22310 -0.40200
H 	H 	0.31460 0.24240 0.25090 0.27600
C 	C 	0.23700 0.12000 0.96800 0.42200
H 	H 	0.22100 0.15870 0.00430 0.00600
H 	H 	0.22580 0.14520 0.92320 -0.12800
C 	C 	0.21900 0.00400 0.97300 -0.26000
H 	H 	0.22120 0.97980 0.92410 0.09300
H 	H 	0.19080 0.01930 0.98040 0.34300
O 	O 	0.27500 0.18100 0.97100 -0.46600
H 	H 	0.29230 0.14150 0.98850 0.43200
O 	O 	0.22370 0.90100 0.01200 -0.50100
H 	H 	0.20150 0.88000 0.02570 -0.02500
C 	C 	0.08940 0.21730 0.47760 -8.95400
C 	C 	0.04530 0.15600 0.52600 -1.49300
C 	C 	0.19260 0.83800 0.07560 -0.16500
C 	C 	0.07580 0.20900 0.95640 6.41400
C 	C 	0.01110 0.20500 0.57600 24.48900
C 	C 	0.22750 0.75900 0.08500 0.06900
C 	C 	0.03760 0.17730 0.91670 19.39400
C 	C 	0.03820 0.21900 0.88500 -4.01200
C 	C 	0.02350 0.07050 0.88840 -1.82300
C 	C 	0.02660 0.12800 0.83920 -6.91800
C 	C 	0.98300 0.06280 0.85680 0.24400
C 	C 	0.99790 0.05130 0.86900 -0.01400
C 	C 	0.96210 0.96890 0.82180 -1.85200
C 	C 	0.97740 0.95780 0.83230 -0.50200
C 	C 	0.91970 0.95040 0.81270 0.55200
C 	C 	0.94020 0.93580 0.79210 1.57800
C 	C 	0.90730 0.85800 0.76800 -1.76300
C 	C 	0.93050 0.83100 0.75920 1.95800
F 	F 	0.90220 0.04600 0.78650 1.76300
F 	F 	0.90780 0.96600 0.83500 0.44500
F 	F 	0.91290 0.76730 0.79840 0.40500
F 	F 	0.92660 0.75530 0.80520 -0.22400
F 	F 	0.91500 0.87100 0.70290 0.07200
F 	F 	0.95880 0.78500 0.72710 -0.52400
F 	F 	0.86950 0.84800 0.76240 0.11700
F 	F 	0.89500 0.82300 0.73600 0.36300
F 	F 	0.00610 0.21070 0.96150 -1.88800
F 	F 	0.06660 0.18100 0.93500 -29.46300
F 	F 	0.03730 0.24910 0.85630 28.08600
F 	F 	0.06700 0.21800 0.65100 -3.61200
F 	F 	0.04920 0.03960 0.83860 2.65400
F 	F 	0.00900 0.17100 0.78000 -0.38000
F 	F 	0.02630 0.99510 0.94020 0.72800
F 	F 	0.06120 0.07500 0.82400 -0.97900
F 	F 	0.95590 0.09450 0.91340 3.50900
F 	F 	0.96330 0.12160 0.88910 -5.07100
F 	F 	0.98230 0.14630 0.80280 -0.71400
F 	F 	0.01950 0.99400 0.92600 -0.56200
F 	F 	0.97770 0.87960 0.85490 0.30500
F 	F 	0.97480 0.88330 0.88910 -0.14000
F 	F 	0.97810 0.97100 0.75350 -0.35200
F 	F 	0.00730 0.90740 0.79450 2.59100
F 	F 	0.90100 0.93600 0.87890 0.36000
F 	F 	0.93530 0.01900 0.74280 -0.46500
H 	H 	0.11800 0.22240 0.46730 7.56200
H 	H 	0.07360 0.23040 0.43480 -24.13000
H 	H 	0.04400 0.21170 0.48850 -6.73200
H 	H 	0.02990 0.09560 0.50620 0.15100
H 	H 	0.20070 0.89670 0.10770 0.17900
H 	H 	0.17160 0.79950 0.10140 0.13900
H 	H 	0.14950 0.92870 0.04470 0.68400
H 	H 	0.08700 0.13770 0.96870 16.35200
H 	H 	0.09290 0.23590 0.91820 5.24100
H 	H 	0.99920 0.15010 0.60700 -7.54800
H 	H 	0.99020 0.24330 0.54960 -6.91200
H 	H 	0.24650 0.80930 0.10750 0.10000
H 	H 	0.23650 0.75640 0.03570 0.10800
H 	H 	0.23150 0.16700 0.38100 0.31100
O 	O 	0.16850 0.89900 0.02410 -0.54000
O 	O 	0.24460 0.65800 0.10930 -0.39900
N 	N 	0.82677 0.39280 0.31190 -0.21800
N 	N 	0.78217 0.31790 0.18310 -0.24400
N 	N 	0.37743 0.31650 0.81690 -0.24800
O 	O 	0.57894 0.37840 0.01230 2.19100
S 	S 	0.81027 0.59290 0.37958 0.55600
C 	C 	0.81993 0.47560 0.34070 0.13500
C 	C 	0.78266 0.30910 0.11180 0.09600
H 	H 	0.80530 0.27810 0.09060 0.02300
C 	C 	0.75198 0.34280 0.06800 -0.11600
H 	H 	0.75420 0.33630 0.01870 0.09900
C 	C 	0.71710 0.38740 0.09930 0.08400
C 	C 	0.71571 0.39470 0.17250 -0.12500
H 	H 	0.69280 0.42200 0.19500 0.12400
C 	C 	0.74866 0.36140 0.21270 0.09300
H 	H 	0.74760 0.36930 0.26210 -0.01900
C 	C 	0.68409 0.42640 0.05640 0.07700
C 	C 	0.65683 0.46510 0.02410 -0.24200
C 	C 	0.62585 0.51760 0.98190 0.40500
C 	C 	0.63323 0.61680 0.94920 -0.32000
H 	H 	0.65830 0.64970 0.95480 0.17600
C 	C 	0.60420 0.66860 0.90840 0.38900
H 	H 	0.60990 0.73460 0.88560 -0.02300
C 	C 	0.56595 0.61920 0.90220 -0.32100
H 	H 	0.54580 0.65500 0.87660 0.63300
C 	C 	0.55777 0.51920 0.93320 0.60200
C 	C 	0.58760 0.46820 0.97370 -0.42700
C 	C 	0.51916 0.46840 0.92140 0.16300
C 	C 	0.48726 0.43300 0.90490 0.05900
C 	C 	0.44899 0.39210 0.87860 0.21500
C 	C 	0.42388 0.46290 0.84100 -0.22200
H 	H 	0.43070 0.53640 0.83530 0.25900
C 	C 	0.38861 0.42170 0.81220 0.17600
H 	H 	0.37170 0.46990 0.78810 0.02600
C 	C 	0.40120 0.25080 0.85570 0.18700
H 	H 	0.39330 0.17830 0.86230 0.10600
C 	C 	0.43701 0.28510 0.88660 -0.21800
H 	H 	0.45280 0.23610 0.91260 0.37700
C 	C 	0.58500 0.28190 0.98720 0.55800
H 	H 	0.61070 0.28210 0.96250 -2.99800
H 	H 	0.56430 0.26700 0.95180 29.58600
C 	C 	0.58530 0.18720 0.04070 17.55600
H 	H 	0.59410 0.12100 0.01650 -20.74900
H 	H 	0.60470 0.20330 0.07810 -8.29800
C 	C 	0.54530 0.16640 0.07400 10.50300
F 	F 	0.53510 0.25710 0.11290 -35.49200
F 	F 	0.51700 0.17230 0.01960 -3.76600
C 	C 	0.54180 0.06540 0.11510 -4.49100
F 	F 	0.54610 0.98150 0.06730 0.47700
F 	F 	0.57690 0.05480 0.15380 0.67500
C 	C 	0.51120 0.03010 0.16560 5.26100
F 	F 	0.52130 0.92500 0.19340 -3.61200
F 	F 	0.51390 0.09300 0.22920 -0.26400
C 	C 	0.46870 0.03000 0.14920 0.47900
F 	F 	0.45820 0.13880 0.14660 2.51700
F 	F 	0.46500 0.98510 0.08220 -0.52000
C 	C 	0.44060 0.97350 0.19320 0.50100
F 	F 	0.44160 0.86130 0.17640 -0.60500
F 	F 	0.45040 0.96500 0.26410 -0.32000
C 	C 	0.39890 0.00970 0.18640 -2.60800
F 	F 	0.39360 0.10560 0.21000 -0.76700
F 	F 	0.37480 0.94500 0.21880 0.39700
F 	F 	0.38530 0.00700 0.12270 0.34900
C 	C 	0.29260 0.29970 0.42510 -0.04200
H 	H 	0.30350 0.24200 0.45510 0.06400
H 	H 	0.26360 0.29050 0.42760 -0.03700
C 	C 	0.30250 0.25800 0.34880 0.01500
H 	H 	0.28040 0.20790 0.34040 0.14100
H 	H 	0.32560 0.21160 0.35790 0.07900
O 	O 	0.29940 0.39840 0.46820 0.30200
H 	H 	0.28960 0.38960 0.50810 0.06700
O 	O 	0.31100 0.29600 0.27690 -0.40200
H 	H 	0.31460 0.25760 0.24910 0.27600
C 	C 	0.23700 0.38000 0.53200 0.45200
H 	H 	0.22100 0.34130 0.49570 -0.01000
H 	H 	0.22580 0.35480 0.57680 -0.13800
C 	C 	0.21900 0.49600 0.52700 -0.23200
H 	H 	0.22120 0.52020 0.57590 0.07800
H 	H 	0.19080 0.48070 0.51960 0.35000
O 	O 	0.27500 0.31900 0.52900 -0.47600
H 	H 	0.29230 0.35850 0.51150 0.46100
O 	O 	0.22370 0.59900 0.48800 -0.53300
H 	H 	0.20150 0.62000 0.47430 -0.01500
C 	C 	0.08940 0.28270 0.02240 -8.67400
C 	C 	0.04530 0.34400 0.97400 -1.37700
C 	C 	0.19260 0.66200 0.42440 -0.16400
C 	C 	0.07580 0.29100 0.54360 6.56900
C 	C 	0.01110 0.29500 0.92400 23.55300
C 	C 	0.22750 0.74100 0.41500 0.07100
C 	C 	0.03760 0.32270 0.58330 19.94600
C 	C 	0.03820 0.28100 0.61500 -4.17700
C 	C 	0.02350 0.42950 0.61160 -1.90900
C 	C 	0.02660 0.37200 0.66080 -7.14300
C 	C 	0.98300 0.43720 0.64320 0.21100
C 	C 	0.99790 0.44870 0.63100 0.05600
C 	C 	0.96210 0.53110 0.67820 -1.89800
C 	C 	0.97740 0.54220 0.66770 -0.44300
C 	C 	0.91970 0.54960 0.68730 0.56700
C 	C 	0.94020 0.56420 0.70790 1.64700
C 	C 	0.90730 0.64200 0.73200 -1.78100
C 	C 	0.93050 0.66900 0.74080 1.94700
F 	F 	0.90220 0.45400 0.71350 1.75100
F 	F 	0.90780 0.53400 0.66500 0.42500
F 	F 	0.91290 0.73270 0.70160 0.41700
F 	F 	0.92660 0.74470 0.69480 -0.21200
F 	F 	0.91500 0.62900 0.79710 0.06300
F 	F 	0.95880 0.71500 0.77290 -0.52400
F 	F 	0.86950 0.65200 0.73760 0.11900
F 	F 	0.89500 0.67700 0.76400 0.37400
F 	F 	0.00610 0.28930 0.53850 -1.84500
F 	F 	0.06660 0.31900 0.56500 -30.27600
F 	F 	0.03730 0.25090 0.64370 29.08100
F 	F 	0.06700 0.28200 0.84900 -3.49900
F 	F 	0.04920 0.46040 0.66140 2.75100
F 	F 	0.00900 0.32900 0.72000 -0.36400
F 	F 	0.02630 0.50490 0.55980 0.74500
F 	F 	0.06120 0.42500 0.67600 -1.01200
F 	F 	0.95590 0.40550 0.58660 3.62100
F 	F 	0.96330 0.37840 0.61090 -5.22800
F 	F 	0.98230 0.35370 0.69720 -0.73900
F 	F 	0.01950 0.50600 0.57400 -0.57200
F 	F 	0.97770 0.62040 0.64510 0.27800
F 	F 	0.97480 0.61670 0.61090 -0.12700
F 	F 	0.97810 0.52900 0.74650 -0.36000
F 	F 	0.00730 0.59260 0.70550 2.63800
F 	F 	0.90100 0.56400 0.62110 0.39200
F 	F 	0.93530 0.48100 0.75720 -0.47800
H 	H 	0.11800 0.27760 0.03270 7.32700
H 	H 	0.07360 0.26960 0.06520 -23.36200
H 	H 	0.04400 0.28830 0.01150 -6.52100
H 	H 	0.02990 0.40440 0.99380 0.11400
H 	H 	0.20070 0.60330 0.39230 0.17900
H 	H 	0.17160 0.70050 0.39860 0.13800
H 	H 	0.14950 0.57130 0.45530 0.69200
H 	H 	0.08700 0.36230 0.53130 16.84400
H 	H 	0.09290 0.26410 0.58180 5.40300
H 	H 	0.99920 0.34990 0.89300 -7.24800
H 	H 	0.99020 0.25670 0.95040 -6.57400
H 	H 	0.24650 0.69070 0.39250 0.10000
H 	H 	0.23650 0.74360 0.46430 0.10400
H 	H 	0.23150 0.33300 0.11900 0.31200
O 	O 	0.16850 0.60100 0.47590 -0.55100
O 	O 	0.24460 0.84200 0.39070 -0.40100
N 	N 	0.67323 0.60720 0.31190 -0.21700
N 	N 	0.71783 0.68210 0.18310 -0.24400
N 	N 	0.12257 0.68350 0.81690 -0.25100
O 	O 	0.92106 0.62160 0.01230 2.02600
S 	S 	0.68973 0.40710 0.37958 0.56400
C 	C 	0.68007 0.52440 0.34070 0.13500
C 	C 	0.71734 0.69090 0.11180 0.09600
H 	H 	0.69470 0.72190 0.09060 0.02500
C 	C 	0.74802 0.65720 0.06800 -0.11700
H 	H 	0.74580 0.66370 0.01870 0.10000
C 	C 	0.78290 0.61260 0.09930 0.08500
C 	C 	0.78429 0.60530 0.17250 -0.12700
H 	H 	0.80720 0.57800 0.19500 0.12300
C 	C 	0.75134 0.63860 0.21270 0.09400
H 	H 	0.75240 0.63070 0.26210 -0.02000
C 	C 	0.81591 0.57360 0.05640 0.07200
C 	C 	0.84317 0.53490 0.02410 -0.23500
C 	C 	0.87415 0.48240 0.98190 0.37500
C 	C 	0.86677 0.38320 0.94920 -0.28400
H 	H 	0.84170 0.35030 0.95480 0.16500
C 	C 	0.89580 0.33140 0.90840 0.34600
H 	H 	0.89010 0.26540 0.88560 -0.00400
C 	C 	0.93405 0.38080 0.90220 -0.27100
H 	H 	0.95420 0.34500 0.87660 0.59200
C 	C 	0.94223 0.48080 0.93320 0.53000
C 	C 	0.91240 0.53180 0.97370 -0.35000
C 	C 	0.98084 0.53160 0.92140 0.22800
C 	C 	0.01274 0.56700 0.90490 -0.00700
C 	C 	0.05101 0.60790 0.87860 0.24300
C 	C 	0.07612 0.53710 0.84100 -0.24000
H 	H 	0.06930 0.46360 0.83530 0.26200
C 	C 	0.11139 0.57830 0.81220 0.18400
H 	H 	0.12830 0.53010 0.78810 0.02200
C 	C 	0.09880 0.74920 0.85570 0.19400
H 	H 	0.10670 0.82170 0.86230 0.10000
C 	C 	0.06299 0.71490 0.88660 -0.23700
H 	H 	0.04720 0.76390 0.91260 0.37200
C 	C 	0.91500 0.71810 0.98720 0.52400
H 	H 	0.88930 0.71790 0.96250 -2.85700
H 	H 	0.93570 0.73300 0.95180 28.20700
C 	C 	0.91470 0.81280 0.04070 16.87000
H 	H 	0.90590 0.87900 0.01650 -19.91700
H 	H 	0.89530 0.79670 0.07810 -7.96000
C 	C 	0.95470 0.83360 0.07400 10.02300
F 	F 	0.96490 0.74290 0.11290 -33.77100
F 	F 	0.98300 0.82770 0.01960 -3.54000
C 	C 	0.95820 0.93460 0.11510 -4.32500
F 	F 	0.95390 0.01850 0.06730 0.45700
F 	F 	0.92310 0.94520 0.15380 0.63800
C 	C 	0.98880 0.96990 0.16560 5.06700
F 	F 	0.97870 0.07500 0.19340 -3.47400
F 	F 	0.98610 0.90700 0.22920 -0.27600
C 	C 	0.03130 0.97000 0.14920 0.55000
F 	F 	0.04180 0.86120 0.14660 2.33400
F 	F 	0.03500 0.01490 0.08220 -0.50200
C 	C 	0.05940 0.02650 0.19320 0.52500
F 	F 	0.05840 0.13870 0.17640 -0.59900
F 	F 	0.04960 0.03500 0.26410 -0.32100
C 	C 	0.10110 0.99030 0.18640 -2.61400
F 	F 	0.10640 0.89440 0.21000 -0.76600
F 	F 	0.12520 0.05500 0.21880 0.38600
F 	F 	0.11470 0.99300 0.12270 0.36000
C 	C 	0.20740 0.70030 0.42510 -0.04200
H 	H 	0.19650 0.75800 0.45510 0.06300
H 	H 	0.23640 0.70950 0.42760 -0.03700
C 	C 	0.19750 0.74200 0.34880 0.01400
H 	H 	0.21960 0.79210 0.34040 0.14200
H 	H 	0.17440 0.78840 0.35790 0.08100
O 	O 	0.20060 0.60160 0.46820 0.30200
H 	H 	0.21040 0.61040 0.50810 0.06700
O 	O 	0.18900 0.70400 0.27690 -0.40100
H 	H 	0.18540 0.74240 0.24910 0.27600
C 	C 	0.26300 0.62000 0.53200 0.45400
H 	H 	0.27900 0.65870 0.49570 -0.01000
H 	H 	0.27420 0.64520 0.57680 -0.14000
C 	C 	0.28100 0.50400 0.52700 -0.23500
H 	H 	0.27880 0.47980 0.57590 0.07800
H 	H 	0.30920 0.51930 0.51960 0.35400
O 	O 	0.22500 0.68100 0.52900 -0.47700
H 	H 	0.20770 0.64150 0.51150 0.46100
O 	O 	0.27630 0.40100 0.48800 -0.53100
H 	H 	0.29850 0.38000 0.47430 -0.01500
C 	C 	0.41060 0.71730 0.02240 -9.07700
C 	C 	0.45470 0.65600 0.97400 -1.54700
C 	C 	0.30740 0.33800 0.42440 -0.16500
C 	C 	0.42420 0.70900 0.54360 6.65500
C 	C 	0.48890 0.70500 0.92400 24.97000
C 	C 	0.27250 0.25900 0.41500 0.07100
C 	C 	0.46240 0.67730 0.58330 20.21500
C 	C 	0.46180 0.71900 0.61500 -4.26200
C 	C 	0.47650 0.57050 0.61160 -1.95800
C 	C 	0.47340 0.62800 0.66080 -7.24900
C 	C 	0.51700 0.56280 0.64320 0.20700
C 	C 	0.50210 0.55130 0.63100 0.07500
C 	C 	0.53790 0.46890 0.67820 -1.94200
C 	C 	0.52260 0.45780 0.66770 -0.44400
C 	C 	0.58030 0.45040 0.68730 0.58100
C 	C 	0.55980 0.43580 0.70790 1.67500
C 	C 	0.59270 0.35800 0.73200 -1.80700
C 	C 	0.56950 0.33100 0.74080 1.94600
F 	F 	0.59780 0.54600 0.71350 1.75800
F 	F 	0.59220 0.46600 0.66500 0.41300
F 	F 	0.58710 0.26730 0.70160 0.41100
F 	F 	0.57340 0.25530 0.69480 -0.19500
F 	F 	0.58500 0.37100 0.79710 0.08200
F 	F 	0.54120 0.28500 0.77290 -0.52600
F 	F 	0.63050 0.34800 0.73760 0.12300
F 	F 	0.60500 0.32300 0.76400 0.38600
F 	F 	0.49390 0.71070 0.53850 -1.82100
F 	F 	0.43340 0.68100 0.56500 -30.67400
F 	F 	0.46270 0.74910 0.64370 29.57500
F 	F 	0.43300 0.71800 0.84900 -3.67200
F 	F 	0.45080 0.53960 0.66140 2.79800
F 	F 	0.49100 0.67100 0.72000 -0.37300
F 	F 	0.47370 0.49510 0.55980 0.76100
F 	F 	0.43880 0.57500 0.67600 -1.03500
F 	F 	0.54410 0.59450 0.58660 3.74300
F 	F 	0.53670 0.62160 0.61090 -5.40100
F 	F 	0.51770 0.64630 0.69720 -0.76900
F 	F 	0.48050 0.49400 0.57400 -0.58000
F 	F 	0.52230 0.37960 0.64510 0.27600
F 	F 	0.52520 0.38330 0.61090 -0.12300
F 	F 	0.52190 0.47100 0.74650 -0.36800
F 	F 	0.49270 0.40740 0.70550 2.69200
F 	F 	0.59900 0.43600 0.62110 0.40500
F 	F 	0.56470 0.51900 0.75720 -0.48400
H 	H 	0.38200 0.72240 0.03270 7.66900
H 	H 	0.42640 0.73040 0.06520 -24.52700
H 	H 	0.45600 0.71170 0.01150 -6.83300
H 	H 	0.47010 0.59560 0.99380 0.16100
H 	H 	0.29930 0.39670 0.39230 0.17900
H 	H 	0.32840 0.29950 0.39860 0.13800
H 	H 	0.35050 0.42870 0.45530 0.69500
H 	H 	0.41300 0.63770 0.53130 17.05800
H 	H 	0.40710 0.73590 0.58180 5.47800
H 	H 	0.50080 0.65010 0.89300 -7.70900
H 	H 	0.50980 0.74330 0.95040 -7.08500
H 	H 	0.25350 0.30930 0.39250 0.09900
H 	H 	0.26350 0.25640 0.46430 0.10400
H 	H 	0.26850 0.66700 0.11900 0.31200
O 	O 	0.33150 0.39900 0.47590 -0.55100
O 	O 	0.25540 0.15800 0.39070 -0.40300
Co	Co	0.32888 0.25000 0.75000 1.13000
Co	Co	0.17112 0.75000 0.75000 1.13100
Co	Co	0.67112 0.75000 0.25000 1.13000
Co	Co	0.82888 0.25000 0.25000 1.13100
