data_crystal

_cell_length_a 8.21100
_cell_length_b 13.43080
_cell_length_c 25.66400
_cell_angle_alpha 90.00000
_cell_angle_beta  90.00000
_cell_angle_gamma 90.00000

_symmetry_space_group_name_	'P 1'
_symmetry_space_group_name_H-M	'P 1'

loop_
_symmetry_equiv_pos_as_xyz
  x,y,z

loop_
_atom_site_label
_atom_site_type_symbol
_atom_site_fract_x
_atom_site_fract_y
_atom_site_fract_z
_atom_site_charge
Cu	Cu	0.15638 0.69020 0.99707 0.94100
Cu	Cu	0.34362 0.30980 0.49707 0.94000
Cu	Cu	0.84362 0.19020 0.50293 0.93900
Cu	Cu	0.65638 0.80980 0.00293 0.94000
P 	P 	0.86500 0.68809 0.92571 0.41500
P 	P 	0.61450 0.33246 0.58099 0.44000
P 	P 	0.63500 0.31191 0.42571 0.41700
P 	P 	0.88550 0.66754 0.08099 0.44100
P 	P 	0.13500 0.18809 0.57429 0.41500
P 	P 	0.38550 0.83246 0.91901 0.44300
P 	P 	0.36500 0.81191 0.07429 0.41600
P 	P 	0.11450 0.16754 0.41901 0.44300
C 	C 	0.84330 0.82070 0.78390 -0.00700
C 	C 	0.88070 0.71180 0.85680 -0.05100
C 	C 	0.83300 0.80110 0.83820 -0.00700
C 	C 	0.98150 0.69240 0.65950 -0.03000
C 	C 	0.90510 0.76560 0.69480 -0.02900
C 	C 	0.90150 0.74470 0.74940 0.02300
C 	C 	0.94010 0.63660 0.82400 -0.00100
C 	C 	0.89410 0.60470 0.64260 0.02500
C 	C 	0.79030 0.91280 0.76260 -0.01400
C 	C 	0.78950 0.93280 0.70840 -0.08700
C 	C 	0.95200 0.65740 0.76990 -0.05300
C 	C 	0.13720 0.70650 0.64280 0.11700
C 	C 	0.84230 0.85700 0.67550 0.13200
C 	C 	0.74240 0.94930 0.60280 -0.02600
C 	C 	0.72820 0.58800 0.65580 -0.05100
C 	C 	0.32300 0.79550 0.68670 0.02000
C 	C 	0.97420 0.53360 0.60990 -0.01600
C 	C 	0.13770 0.54800 0.59610 0.00300
C 	C 	0.88770 0.45000 0.59220 -0.00400
C 	C 	0.64600 0.50700 0.63770 0.00800
C 	C 	0.72900 0.43480 0.60530 -0.07000
C 	C 	0.21900 0.63750 0.61100 -0.04300
C 	C 	0.64720 0.22610 0.66460 0.10000
C 	C 	0.53130 0.17230 0.70390 -0.05900
C 	C 	0.74000 0.42660 0.93800 -0.10500
C 	C 	0.72700 0.52230 0.94820 0.16600
C 	C 	0.65670 0.17930 0.28390 -0.00600
C 	C 	0.61930 0.28820 0.35680 -0.05100
C 	C 	0.66700 0.19890 0.33820 -0.00600
C 	C 	0.51850 0.30760 0.15950 -0.03900
C 	C 	0.59490 0.23440 0.19480 -0.02600
C 	C 	0.59850 0.25530 0.24940 0.02200
C 	C 	0.55990 0.36340 0.32400 -0.00100
C 	C 	0.60590 0.39530 0.14260 0.03300
C 	C 	0.70970 0.08720 0.26260 -0.01400
C 	C 	0.71050 0.06720 0.20840 -0.08800
C 	C 	0.54800 0.34260 0.26990 -0.05200
C 	C 	0.36280 0.29350 0.14280 0.13600
C 	C 	0.65770 0.14300 0.17550 0.13000
C 	C 	0.75760 0.05070 0.10280 -0.02900
C 	C 	0.77180 0.41200 0.15580 -0.05800
C 	C 	0.17700 0.20450 0.18670 0.02100
C 	C 	0.52580 0.46640 0.10990 -0.02600
C 	C 	0.36230 0.45200 0.09610 -0.00700
C 	C 	0.61230 0.55000 0.09220 0.03000
C 	C 	0.85400 0.49300 0.13770 0.01100
C 	C 	0.77100 0.56520 0.10530 -0.08200
C 	C 	0.28100 0.36250 0.11100 -0.09100
C 	C 	0.85280 0.77390 0.16460 0.10100
C 	C 	0.96870 0.82770 0.20390 -0.06100
C 	C 	0.76000 0.57340 0.43800 -0.10300
C 	C 	0.77300 0.47770 0.44820 0.16600
C 	C 	0.15670 0.32070 0.71610 -0.00600
C 	C 	0.11930 0.21180 0.64320 -0.05100
C 	C 	0.16700 0.30110 0.66180 -0.00700
C 	C 	0.01850 0.19240 0.84050 -0.03100
C 	C 	0.09490 0.26560 0.80520 -0.02900
C 	C 	0.09850 0.24470 0.75060 0.02200
C 	C 	0.05990 0.13660 0.67600 -0.00200
C 	C 	0.10590 0.10470 0.85740 0.03200
C 	C 	0.20970 0.41280 0.73740 -0.01400
C 	C 	0.21050 0.43280 0.79160 -0.08800
C 	C 	0.04800 0.15740 0.73010 -0.05200
C 	C 	0.86280 0.20650 0.85720 0.11800
C 	C 	0.15770 0.35700 0.82450 0.13200
C 	C 	0.25760 0.44930 0.89720 -0.03000
C 	C 	0.27180 0.08800 0.84420 -0.05600
C 	C 	0.67700 0.29550 0.81330 0.02000
C 	C 	0.02580 0.03360 0.89010 -0.03100
C 	C 	0.86230 0.04800 0.90390 0.01000
C 	C 	0.11230 0.95000 0.90780 0.03700
C 	C 	0.35400 0.00700 0.86230 0.01100
C 	C 	0.27100 0.93480 0.89470 -0.08200
C 	C 	0.78100 0.13750 0.88900 -0.04600
C 	C 	0.35280 0.72610 0.83540 0.10100
C 	C 	0.46870 0.67230 0.79610 -0.05900
C 	C 	0.26000 0.92660 0.56200 -0.10300
C 	C 	0.27300 0.02230 0.55180 0.16500
C 	C 	0.34330 0.67930 0.21610 -0.00600
C 	C 	0.38070 0.78820 0.14320 -0.05100
C 	C 	0.33300 0.69890 0.16180 -0.00600
C 	C 	0.48150 0.80760 0.34050 -0.03900
C 	C 	0.40510 0.73440 0.30520 -0.02600
C 	C 	0.40150 0.75530 0.25060 0.02200
C 	C 	0.44010 0.86340 0.17600 -0.00200
C 	C 	0.39410 0.89530 0.35740 0.03400
C 	C 	0.29030 0.58720 0.23740 -0.01400
C 	C 	0.28950 0.56720 0.29160 -0.08800
C 	C 	0.45200 0.84260 0.23010 -0.05200
C 	C 	0.63720 0.79350 0.35720 0.13600
C 	C 	0.34230 0.64300 0.32450 0.13100
C 	C 	0.24240 0.55070 0.39720 -0.03200
C 	C 	0.22820 0.91200 0.34420 -0.05900
C 	C 	0.82300 0.70450 0.31330 0.02200
C 	C 	0.47420 0.96640 0.39010 -0.02600
C 	C 	0.63770 0.95200 0.40390 -0.00600
C 	C 	0.38770 0.05000 0.40780 0.03000
C 	C 	0.14600 0.99300 0.36230 0.01400
C 	C 	0.22900 0.06520 0.39470 -0.08300
C 	C 	0.71900 0.86250 0.38900 -0.09100
C 	C 	0.14720 0.27390 0.33540 0.10100
C 	C 	0.03130 0.32770 0.29610 -0.05900
C 	C 	0.24000 0.07340 0.06200 -0.10300
C 	C 	0.22700 0.97770 0.05180 0.16800
O 	O 	0.01880 0.63690 0.94340 -0.36700
O 	O 	0.20640 0.79750 0.65270 -0.20600
O 	O 	0.84800 0.86910 0.62270 -0.18800
O 	O 	0.71400 0.61690 0.93190 -0.28900
O 	O 	0.73080 0.26500 0.55540 -0.39100
O 	O 	0.53970 0.27950 0.63063 -0.24700
O 	O 	0.47310 0.37120 0.54990 -0.36900
O 	O 	0.82340 0.78510 0.95287 -0.38300
O 	O 	0.48120 0.36310 0.44340 -0.36800
O 	O 	0.29360 0.20250 0.15270 -0.21300
O 	O 	0.65200 0.13090 0.12270 -0.18800
O 	O 	0.78600 0.38310 0.43190 -0.28900
O 	O 	0.76920 0.73500 0.05540 -0.39000
O 	O 	0.96030 0.72050 0.13063 -0.24900
O 	O 	0.02690 0.62880 0.04990 -0.37100
O 	O 	0.67660 0.21490 0.45287 -0.38600
O 	O 	0.98120 0.13690 0.55660 -0.36700
O 	O 	0.79360 0.29750 0.84730 -0.20700
O 	O 	0.15200 0.36910 0.87730 -0.18700
O 	O 	0.28600 0.11690 0.56810 -0.28800
O 	O 	0.26920 0.76500 0.94460 -0.38900
O 	O 	0.46030 0.77950 0.86937 -0.24800
O 	O 	0.52690 0.87120 0.95010 -0.36800
O 	O 	0.17660 0.28510 0.54713 -0.38700
O 	O 	0.51880 0.86310 0.05660 -0.36600
O 	O 	0.70640 0.70250 0.34730 -0.21300
O 	O 	0.34800 0.63090 0.37730 -0.18700
O 	O 	0.21400 0.88310 0.06810 -0.28800
O 	O 	0.23080 0.23500 0.44460 -0.39000
O 	O 	0.03970 0.22050 0.36937 -0.24900
O 	O 	0.97310 0.12880 0.45010 -0.37200
O 	O 	0.32340 0.71490 0.04713 -0.38600
H 	H 	0.78463 0.86068 0.86579 0.05400
H 	H 	0.97710 0.56152 0.84100 0.04600
H 	H 	0.74580 0.97467 0.78947 0.03300
H 	H 	0.74682 0.00837 0.69348 0.04900
H 	H 	0.00552 0.59950 0.74230 0.04600
H 	H 	0.60934 0.92819 0.60904 0.04400
H 	H 	0.76612 0.96039 0.55942 0.04400
H 	H 	0.77007 0.02135 0.62455 0.04200
H 	H 	0.66134 0.64297 0.68203 0.04300
H 	H 	0.43907 0.82636 0.66844 0.03400
H 	H 	0.34467 0.71548 0.69979 0.02600
H 	H 	0.28785 0.84291 0.72179 0.03700
H 	H 	0.95031 0.39282 0.56619 0.04000
H 	H 	0.51216 0.49617 0.64807 0.03600
H 	H 	0.44680 0.13308 0.73255 0.04600
H 	H 	0.75126 0.34370 0.92916 0.08400
H 	H 	0.71525 0.13965 0.36601 0.05100
H 	H 	0.52290 0.43848 0.34100 0.04600
H 	H 	0.75420 0.02533 0.28947 0.03200
H 	H 	0.75318 0.99163 0.19348 0.05000
H 	H 	0.49380 0.40235 0.24355 0.04500
H 	H 	0.75185 0.04935 0.05842 0.04500
H 	H 	0.71420 0.97611 0.11882 0.04600
H 	H 	0.88842 0.06461 0.11577 0.04300
H 	H 	0.83866 0.35703 0.18203 0.04300
H 	H 	0.15017 0.12553 0.20054 0.03600
H 	H 	0.06301 0.23751 0.16814 0.02800
H 	H 	0.21523 0.25222 0.22134 0.03000
H 	H 	0.29475 0.51167 0.07306 0.03500
H 	H 	0.98784 0.50383 0.14807 0.03200
H 	H 	0.15136 0.34662 0.09744 0.05700
H 	H 	0.05320 0.86692 0.23255 0.04800
H 	H 	0.74874 0.65630 0.42916 0.08200
H 	H 	0.21537 0.36068 0.63421 0.05300
H 	H 	0.02290 0.06152 0.65900 0.04500
H 	H 	0.25420 0.47467 0.71053 0.03200
H 	H 	0.25318 0.50837 0.80652 0.04900
H 	H 	0.99448 0.09950 0.75770 0.04500
H 	H 	0.31780 0.48930 0.86308 0.03900
H 	H 	0.35545 0.41606 0.92348 0.04600
H 	H 	0.18122 0.50456 0.92043 0.05100
H 	H 	0.33866 0.14297 0.81797 0.04400
H 	H 	0.63544 0.21536 0.80720 0.02600
H 	H 	0.72260 0.32734 0.77479 0.03600
H 	H 	0.57037 0.34205 0.82800 0.03600
H 	H 	0.48784 0.99617 0.85193 0.03600
H 	H 	0.55320 0.63308 0.76745 0.04600
H 	H 	0.24874 0.84370 0.57084 0.08300
H 	H 	0.28463 0.63932 0.13421 0.05100
H 	H 	0.47710 0.93848 0.15900 0.04500
H 	H 	0.24580 0.52533 0.21053 0.03200
H 	H 	0.24682 0.49163 0.30652 0.05000
H 	H 	0.50620 0.90235 0.25645 0.04500
H 	H 	0.32101 0.48824 0.41370 0.05300
H 	H 	0.16424 0.52044 0.36408 0.04000
H 	H 	0.16029 0.58140 0.42921 0.04600
H 	H 	0.16134 0.85703 0.31797 0.04300
H 	H 	0.77533 0.73653 0.27510 0.03100
H 	H 	0.86972 0.62565 0.30644 0.03600
H 	H 	0.92654 0.75308 0.32844 0.02600
H 	H 	0.70525 0.01167 0.42694 0.03500
H 	H 	0.01216 0.00383 0.35193 0.03100
H 	H 	0.84865 0.84770 0.40287 0.05700
H 	H 	0.94680 0.36692 0.26745 0.04600
H 	H 	0.25126 0.15630 0.07084 0.08200
