data_crystal

_cell_length_a 12.34280
_cell_length_b 14.96300
_cell_length_c 16.13700
_cell_angle_alpha 116.58900
_cell_angle_beta  90.00000
_cell_angle_gamma 90.00000

_symmetry_space_group_name_	'P 1'
_symmetry_space_group_name_H-M	'P 1'

loop_
_symmetry_equiv_pos_as_xyz
  x,y,z

loop_
_atom_site_label
_atom_site_type_symbol
_atom_site_fract_x
_atom_site_fract_y
_atom_site_fract_z
_atom_site_charge
Co	Co	0.17757 0.74925 0.02502 1.08400
Co	Co	0.54833 0.52142 0.99389 1.19200
Co	Co	0.67757 0.25075 0.97498 1.10500
Co	Co	0.04833 0.47858 0.00611 1.16700
P 	P 	0.18590 0.64064 0.16028 0.40400
P 	P 	0.39190 0.63237 0.91124 0.43000
P 	P 	0.51096 0.43012 0.12070 0.37900
P 	P 	0.24760 0.32009 0.91663 0.42100
P 	P 	0.68590 0.35936 0.83972 0.40600
P 	P 	0.89190 0.36763 0.08876 0.41100
P 	P 	0.01096 0.56988 0.87930 0.34600
P 	P 	0.74760 0.67991 0.08337 0.42100
H 	H 	0.78020 0.56800 0.75630 0.06000
H 	H 	0.87470 0.57490 0.63530 0.10600
H 	H 	0.61260 0.59360 0.84550 0.04500
H 	H 	0.33700 0.67460 0.75750 0.02900
H 	H 	0.42830 0.78690 0.39250 0.05700
H 	H 	0.09110 0.83280 0.28200 -0.00100
H 	H 	0.43060 0.68200 0.63920 0.07400
H 	H 	0.20120 0.69430 0.62660 0.09800
H 	H 	0.24200 0.61230 0.31640 0.05200
H 	H 	0.78820 0.05400 0.63130 0.09600
H 	H 	0.90340 0.51690 0.47110 -0.02100
H 	H 	0.95830 0.62360 0.53380 -0.01700
H 	H 	0.86950 0.18900 0.75280 0.01800
H 	H 	0.25280 0.62150 0.47340 0.02700
H 	H 	0.03030 0.27270 0.84380 0.01000
H 	H 	0.46120 0.88630 0.54890 0.03100
H 	H 	0.99670 0.74160 0.70260 -0.33000
H 	H 	0.98850 0.83560 0.80100 -0.33400
H 	H 	0.81380 0.78370 0.35730 0.24700
H 	H 	0.68610 0.79980 0.37420 0.23600
H 	H 	0.75200 0.73820 0.41710 0.24600
H 	H 	0.05250 0.91660 0.43760 0.05100
H 	H 	0.63370 0.49100 0.42510 0.05800
H 	H 	0.23650 0.98370 0.67560 0.04300
H 	H 	0.87490 0.56700 0.35220 0.18300
H 	H 	0.00130 0.56670 0.37440 0.13600
H 	H 	0.93590 0.67000 0.41410 0.18700
H 	H 	0.56250 0.98850 0.72790 0.31000
H 	H 	0.45650 0.93250 0.67270 0.33200
H 	H 	0.77760 0.94850 0.47510 -0.07300
H 	H 	0.71820 0.90180 0.53550 -0.07300
H 	H 	0.31680 0.12440 0.78690 0.03700
H 	H 	0.61530 0.39770 0.26770 0.04400
H 	H 	0.45380 0.62580 0.25230 0.07000
H 	H 	0.39740 0.93290 0.77510 -0.32600
H 	H 	0.49530 0.00390 0.83230 -0.32500
H 	H 	0.50350 0.88570 0.79680 -0.29400
H 	H 	0.83610 0.79980 0.73020 0.61200
H 	H 	0.88610 0.81340 0.64510 0.62000
H 	H 	0.87700 0.90740 0.74500 0.59200
H 	H 	0.28020 0.43200 0.24370 0.07900
H 	H 	0.37470 0.42510 0.36470 0.08100
H 	H 	0.11260 0.40640 0.15450 0.07900
H 	H 	0.83700 0.32540 0.24250 0.06500
H 	H 	0.92830 0.21310 0.60750 0.00800
H 	H 	0.59110 0.16720 0.71800 0.00700
H 	H 	0.93060 0.31800 0.36080 0.03100
H 	H 	0.70120 0.30570 0.37340 0.10000
H 	H 	0.74200 0.38770 0.68360 0.05300
H 	H 	0.28820 0.94600 0.36870 0.08300
H 	H 	0.40340 0.48310 0.52890 -0.06400
H 	H 	0.45830 0.37640 0.46620 -0.06500
H 	H 	0.36950 0.81100 0.24720 0.03500
H 	H 	0.75280 0.37850 0.52660 0.02900
H 	H 	0.53030 0.72730 0.15620 0.03300
H 	H 	0.96120 0.11370 0.45110 0.09600
H 	H 	0.49670 0.25840 0.29740 -0.30000
H 	H 	0.48850 0.16440 0.19900 -0.29700
H 	H 	0.31380 0.21630 0.64270 0.23200
H 	H 	0.18610 0.20020 0.62580 0.22300
H 	H 	0.25200 0.26180 0.58290 0.23500
H 	H 	0.55250 0.08340 0.56240 0.07800
H 	H 	0.13370 0.50900 0.57490 0.08600
H 	H 	0.73650 0.01630 0.32440 0.10900
H 	H 	0.37490 0.43300 0.64780 0.24500
H 	H 	0.50130 0.43330 0.62560 0.23800
H 	H 	0.43590 0.33000 0.58590 0.24200
H 	H 	0.06250 0.01150 0.27210 -0.04400
H 	H 	0.95650 0.06750 0.32730 0.00300
H 	H 	0.27760 0.05150 0.52490 -0.05200
H 	H 	0.21820 0.09820 0.46450 -0.05700
H 	H 	0.81680 0.87560 0.21310 0.01700
H 	H 	0.11530 0.60230 0.73230 0.00900
H 	H 	0.95380 0.37420 0.74770 0.00900
H 	H 	0.89740 0.06710 0.22490 0.15600
H 	H 	0.99530 0.99610 0.16770 0.11000
H 	H 	0.00350 0.11430 0.20320 0.11600
H 	H 	0.33610 0.20020 0.26980 0.56500
H 	H 	0.38610 0.18660 0.35490 0.57000
H 	H 	0.37700 0.09260 0.25500 0.55100
C 	C 	0.17060 0.71220 0.28380 -0.06900
C 	C 	0.57820 0.63980 0.66540 0.05400
C 	C 	0.56230 0.62100 0.43590 0.00000
C 	C 	0.46360 0.63270 0.81540 -0.07400
C 	C 	0.54850 0.78070 0.56880 0.04200
C 	C 	0.74400 0.58750 0.71510 -0.00300
C 	C 	0.08140 0.04160 0.68670 0.09900
C 	C 	0.74610 0.61990 0.58250 0.16300
C 	C 	0.02170 0.13040 0.73870 -0.11100
C 	C 	0.18290 0.72360 0.43840 -0.03300
C 	C 	0.63220 0.61250 0.72800 -0.02400
C 	C 	0.11970 0.81050 0.62220 0.21700
C 	C 	0.03060 0.95680 0.61670 -0.14100
C 	C 	0.79980 0.59140 0.64360 -0.16400
C 	C 	0.92410 0.96310 0.59540 0.19300
C 	C 	0.57530 0.61030 0.80280 -0.02300
C 	C 	0.41220 0.65920 0.75090 0.01600
C 	C 	0.46760 0.76040 0.42710 -0.07100
C 	C 	0.58300 0.68330 0.53210 0.00700
C 	C 	0.11350 0.80500 0.32180 0.00100
C 	C 	0.46790 0.66290 0.68030 -0.09200
C 	C 	0.63730 0.64580 0.59300 -0.07600
C 	C 	0.09030 0.85950 0.56950 -0.07000
C 	C 	0.18090 0.72370 0.58760 -0.18300
C 	C 	0.20380 0.67400 0.34140 -0.02900
C 	C 	0.86210 0.05080 0.64610 -0.17600
C 	C 	0.90430 0.58820 0.48450 0.22300
C 	C 	0.50480 0.65880 0.38220 0.02600
C 	C 	0.91140 0.13110 0.71720 0.07800
C 	C 	0.12100 0.81700 0.47610 0.04200
C 	C 	0.21130 0.68130 0.49730 0.01400
C 	C 	0.07170 0.21440 0.80860 0.01100
C 	C 	0.48780 0.81980 0.51920 -0.05100
C 	C 	0.98970 0.81530 0.73360 1.33200
C 	C 	0.75510 0.79460 0.40170 -0.68700
C 	C 	0.09030 0.85480 0.41460 -0.10200
C 	C 	0.59940 0.51970 0.39000 -0.05600
C 	C 	0.19430 0.04220 0.70830 -0.05600
C 	C 	0.93150 0.59890 0.39890 -0.45800
C 	C 	0.51540 0.92980 0.71320 -1.06300
C 	C 	0.77590 0.89070 0.48930 0.33800
C 	C 	0.17950 0.21270 0.82620 -0.08000
C 	C 	0.24160 0.12490 0.77460 -0.00100
C 	C 	0.58660 0.46360 0.29690 -0.01900
C 	C 	0.49140 0.59920 0.28770 -0.06700
C 	C 	0.53090 0.50240 0.24300 -0.02800
C 	C 	0.47600 0.93840 0.78210 1.19900
C 	C 	0.89060 0.83530 0.71200 -1.96400
C 	C 	0.67060 0.28780 0.71620 -0.06700
C 	C 	0.07820 0.36020 0.33460 -0.08600
C 	C 	0.06230 0.37900 0.56410 0.10600
C 	C 	0.96360 0.36730 0.18460 0.04100
C 	C 	0.04850 0.21930 0.43120 0.13600
C 	C 	0.24400 0.41250 0.28490 -0.07000
C 	C 	0.58140 0.95840 0.31330 0.03200
C 	C 	0.24610 0.38010 0.41750 0.12500
C 	C 	0.52170 0.86960 0.26130 -0.03000
C 	C 	0.68290 0.27640 0.56160 -0.03700
C 	C 	0.13220 0.38750 0.27200 0.07000
C 	C 	0.61970 0.18950 0.37780 0.22400
C 	C 	0.53060 0.04320 0.38330 -0.02900
C 	C 	0.29980 0.40860 0.35640 -0.11400
C 	C 	0.42410 0.03690 0.40460 0.17200
C 	C 	0.07530 0.38970 0.19720 -0.16100
C 	C 	0.91220 0.34080 0.24910 -0.09500
C 	C 	0.96760 0.23960 0.57290 0.10600
C 	C 	0.08300 0.31670 0.46790 -0.08900
C 	C 	0.61350 0.19500 0.67820 0.01500
C 	C 	0.96790 0.33710 0.31970 0.06300
C 	C 	0.13730 0.35420 0.40700 0.00400
C 	C 	0.59030 0.14050 0.43050 -0.08600
C 	C 	0.68090 0.27630 0.41240 -0.17900
C 	C 	0.70380 0.32600 0.65860 -0.02300
C 	C 	0.36210 0.94920 0.35390 -0.19300
C 	C 	0.40430 0.41180 0.51550 0.33800
C 	C 	0.00480 0.34120 0.61780 -0.18800
C 	C 	0.41140 0.86890 0.28280 -0.00800
C 	C 	0.62100 0.18300 0.52390 0.06600
C 	C 	0.71130 0.31870 0.50270 0.02200
C 	C 	0.57170 0.78560 0.19140 -0.02000
C 	C 	0.98780 0.18020 0.48080 -0.13400
C 	C 	0.48970 0.18470 0.26640 1.18000
C 	C 	0.25510 0.20540 0.59830 -0.65900
C 	C 	0.59030 0.14520 0.58540 -0.10900
C 	C 	0.09940 0.48030 0.61000 -0.15800
C 	C 	0.69430 0.95780 0.29170 -0.14500
C 	C 	0.43150 0.40110 0.60110 -0.69600
C 	C 	0.01540 0.07020 0.28680 0.19000
C 	C 	0.27590 0.10930 0.51070 0.31600
C 	C 	0.67950 0.78730 0.17380 -0.07600
C 	C 	0.74160 0.87510 0.22540 0.03000
C 	C 	0.08660 0.53640 0.70310 0.06800
C 	C 	0.99140 0.40080 0.71230 0.15700
C 	C 	0.03090 0.49760 0.75700 -0.15500
C 	C 	0.97600 0.06160 0.21790 -0.39100
C 	C 	0.39060 0.16470 0.28800 -1.80000
O 	O 	0.32000 0.72230 0.95030 -0.40300
O 	O 	0.47120 0.62470 0.97720 -0.41400
O 	O 	0.79940 0.63160 0.51290 -0.27500
O 	O 	0.26230 0.55260 0.15150 -0.22100
O 	O 	0.57940 0.83980 0.65990 -0.00100
O 	O 	0.07550 0.59690 0.12110 -0.44200
O 	O 	0.87840 0.87890 0.52440 -0.30000
O 	O 	0.31850 0.53250 0.86870 -0.21600
O 	O 	0.08790 0.85290 0.71630 -0.51600
O 	O 	0.23520 0.70340 0.11960 -0.42200
O 	O 	0.43200 0.34300 0.10960 -0.22000
O 	O 	0.62110 0.38990 0.07610 -0.40400
O 	O 	0.28210 0.29020 0.98890 -0.22000
O 	O 	0.35390 0.33700 0.86940 -0.21400
O 	O 	0.45820 0.49610 0.08230 -0.37000
O 	O 	0.18070 0.41060 0.94350 -0.39900
O 	O 	0.82000 0.27770 0.04970 -0.39500
O 	O 	0.97120 0.37530 0.02280 -0.38400
O 	O 	0.29940 0.36840 0.48710 -0.28600
O 	O 	0.76230 0.44740 0.84850 -0.21300
O 	O 	0.07940 0.16020 0.34010 -0.26400
O 	O 	0.57550 0.40310 0.87890 -0.42100
O 	O 	0.37840 0.12110 0.47560 -0.29700
O 	O 	0.81850 0.46750 0.13130 -0.20800
O 	O 	0.58790 0.14710 0.28370 -0.45800
O 	O 	0.73520 0.29660 0.88040 -0.41000
O 	O 	0.93200 0.65700 0.89040 -0.19100
O 	O 	0.12110 0.61010 0.92390 -0.40200
O 	O 	0.78210 0.70980 0.01110 -0.22400
O 	O 	0.85390 0.66300 0.13060 -0.20200
O 	O 	0.95820 0.50390 0.91770 -0.33000
O 	O 	0.68070 0.58940 0.05650 -0.39800
