data_crystal

_cell_length_a 9.96600
_cell_length_b 9.96600
_cell_length_c 20.47200
_cell_angle_alpha 90.00000
_cell_angle_beta  90.00000
_cell_angle_gamma 90.00000

_symmetry_space_group_name_	'P 1'
_symmetry_space_group_name_H-M	'P 1'

loop_
_symmetry_equiv_pos_as_xyz
  x,y,z

loop_
_atom_site_label
_atom_site_type_symbol
_atom_site_fract_x
_atom_site_fract_y
_atom_site_fract_z
_atom_site_charge
Na	Na	0.94290 0.85290 0.02078 0.58100
Na	Na	0.27680 0.79960 0.02966 0.57100
Na	Na	0.05710 0.14710 0.52078 0.58500
Na	Na	0.72320 0.20040 0.52966 0.57500
Na	Na	0.14710 0.94290 0.77078 0.58500
Na	Na	0.20040 0.27680 0.77966 0.57500
Na	Na	0.85290 0.05710 0.27078 0.58500
Na	Na	0.79960 0.72320 0.27966 0.57500
Co	Co	0.09863 0.78454 0.89562 1.16400
Co	Co	0.90137 0.21546 0.39562 1.16400
Co	Co	0.21546 0.09863 0.64562 1.16400
Co	Co	0.78454 0.90137 0.14562 1.16300
H 	H 	0.61610 0.78140 0.90430 0.03100
H 	H 	0.39870 0.75900 0.73780 0.03000
H 	H 	0.59720 0.76760 0.67620 0.06700
H 	H 	0.80200 0.78960 0.72850 0.02200
H 	H 	0.10150 0.32350 0.90200 0.00700
H 	H 	0.11590 0.48020 0.08390 0.03800
H 	H 	0.13450 0.26420 0.12720 0.04400
H 	H 	0.14270 0.07640 0.05750 0.02500
H 	H 	0.38390 0.21860 0.40430 0.02800
H 	H 	0.60130 0.24100 0.23780 0.02800
H 	H 	0.40280 0.23240 0.17620 0.06600
H 	H 	0.19800 0.21040 0.22850 0.02200
H 	H 	0.89850 0.67650 0.40200 -0.01300
H 	H 	0.88410 0.51980 0.58390 0.01300
H 	H 	0.86550 0.73580 0.62720 0.07000
H 	H 	0.85730 0.92360 0.55750 0.00000
H 	H 	0.21860 0.61610 0.65430 0.02800
H 	H 	0.24100 0.39870 0.48780 0.02900
H 	H 	0.23240 0.59720 0.42620 0.06700
H 	H 	0.21040 0.80200 0.47850 0.02100
H 	H 	0.67650 0.10150 0.65200 -0.01300
H 	H 	0.51980 0.11590 0.83390 0.01500
H 	H 	0.73580 0.13450 0.87720 0.06900
H 	H 	0.92360 0.14270 0.80750 0.00100
H 	H 	0.78140 0.38390 0.15430 0.06500
H 	H 	0.75900 0.60130 0.98780 0.12800
H 	H 	0.76760 0.40280 0.92620 -0.01900
H 	H 	0.78960 0.19800 0.97850 0.11900
H 	H 	0.32350 0.89850 0.15200 -0.01700
H 	H 	0.48020 0.88410 0.33390 0.01200
H 	H 	0.26420 0.86550 0.37720 0.07000
H 	H 	0.07640 0.85730 0.30750 -0.00100
C 	C 	0.72900 0.78830 0.82110 -0.11800
C 	C 	0.61210 0.78040 0.85790 0.05600
C 	C 	0.49060 0.77100 0.82650 -0.12600
C 	C 	0.48320 0.76620 0.75900 0.04300
C 	C 	0.60090 0.77200 0.72250 -0.10700
C 	C 	0.72190 0.78410 0.75360 0.04600
C 	C 	0.86210 0.80080 0.85540 0.33900
C 	C 	0.36420 0.77060 0.86710 0.36300
C 	C 	0.12370 0.18250 0.97290 -0.09000
C 	C 	0.10990 0.31100 0.94780 0.03000
C 	C 	0.10830 0.42190 0.98930 -0.06500
C 	C 	0.11750 0.40460 0.05560 -0.03400
C 	C 	0.12920 0.27630 0.08120 -0.05200
C 	C 	0.13340 0.16400 0.03980 -0.02700
C 	C 	0.12480 0.06470 0.92760 0.34300
C 	C 	0.09560 0.56110 0.96230 0.31900
C 	C 	0.27100 0.21170 0.32110 -0.12000
C 	C 	0.38790 0.21960 0.35790 0.05800
C 	C 	0.50940 0.22900 0.32650 -0.12900
C 	C 	0.51680 0.23380 0.25900 0.04400
C 	C 	0.39910 0.22800 0.22250 -0.10800
C 	C 	0.27810 0.21590 0.25360 0.04700
C 	C 	0.13790 0.19920 0.35540 0.34000
C 	C 	0.63580 0.22940 0.36710 0.36500
C 	C 	0.87630 0.81750 0.47290 -0.16500
C 	C 	0.89010 0.68900 0.44780 0.08900
C 	C 	0.89170 0.57810 0.48930 -0.14500
C 	C 	0.88250 0.59540 0.55560 0.06100
C 	C 	0.87080 0.72370 0.58120 -0.12500
C 	C 	0.86660 0.83600 0.53980 0.06400
C 	C 	0.87520 0.93530 0.42760 0.36800
C 	C 	0.90440 0.43890 0.46230 0.34400
C 	C 	0.21170 0.72900 0.57110 -0.12000
C 	C 	0.21960 0.61210 0.60790 0.05800
C 	C 	0.22900 0.49060 0.57650 -0.12900
C 	C 	0.23380 0.48320 0.50900 0.04500
C 	C 	0.22800 0.60090 0.47250 -0.10900
C 	C 	0.21590 0.72190 0.50360 0.04800
C 	C 	0.19920 0.86210 0.60540 0.34000
C 	C 	0.22940 0.36420 0.61710 0.36500
C 	C 	0.81750 0.12370 0.72290 -0.16500
C 	C 	0.68900 0.10990 0.69780 0.08900
C 	C 	0.57810 0.10830 0.73930 -0.14400
C 	C 	0.59540 0.11750 0.80560 0.06000
C 	C 	0.72370 0.12920 0.83120 -0.12200
C 	C 	0.83600 0.13340 0.78980 0.06300
C 	C 	0.93530 0.12480 0.67760 0.37000
C 	C 	0.43890 0.09560 0.71230 0.34300
C 	C 	0.78830 0.27100 0.07110 0.00300
C 	C 	0.78040 0.38790 0.10790 -0.05900
C 	C 	0.77100 0.50940 0.07650 -0.00700
C 	C 	0.76620 0.51680 0.00900 -0.19700
C 	C 	0.77200 0.39910 0.97250 0.15800
C 	C 	0.78410 0.27810 0.00360 -0.19600
C 	C 	0.80080 0.13790 0.10540 0.29500
C 	C 	0.77060 0.63580 0.11710 0.32000
C 	C 	0.18250 0.87630 0.22290 -0.16900
C 	C 	0.31100 0.89010 0.19780 0.09200
C 	C 	0.42190 0.89170 0.23930 -0.14800
C 	C 	0.40460 0.88250 0.30560 0.06300
C 	C 	0.27630 0.87080 0.33120 -0.12800
C 	C 	0.16400 0.86660 0.28980 0.06600
C 	C 	0.06470 0.87520 0.17760 0.37000
C 	C 	0.56110 0.90440 0.21230 0.34500
O 	O 	0.87080 0.79780 0.91607 -0.41800
O 	O 	0.96730 0.81090 0.81940 -0.44700
O 	O 	0.36720 0.75790 0.92670 -0.39500
O 	O 	0.25430 0.78730 0.83450 -0.47900
O 	O 	0.13450 0.08350 0.86662 -0.39200
O 	O 	0.11570 0.94790 0.95383 -0.50300
O 	O 	0.08870 0.57490 0.90030 -0.40100
O 	O 	0.09840 0.66160 0.99890 -0.43200
O 	O 	0.12920 0.20220 0.41607 -0.42200
O 	O 	0.03270 0.18910 0.31940 -0.44900
O 	O 	0.63280 0.24210 0.42670 -0.40200
O 	O 	0.74570 0.21270 0.33450 -0.48000
O 	O 	0.86550 0.91650 0.36662 -0.39900
O 	O 	0.88430 0.05210 0.45383 -0.51800
O 	O 	0.91130 0.42510 0.40030 -0.40800
O 	O 	0.90160 0.33840 0.49890 -0.45200
O 	O 	0.20220 0.87080 0.66607 -0.42200
O 	O 	0.18910 0.96730 0.56940 -0.44900
O 	O 	0.24210 0.36720 0.67670 -0.40200
O 	O 	0.21270 0.25430 0.58450 -0.48000
O 	O 	0.91650 0.13450 0.61662 -0.39800
O 	O 	0.05210 0.11570 0.70383 -0.52000
O 	O 	0.42510 0.08870 0.65030 -0.40700
O 	O 	0.33840 0.09840 0.74890 -0.45300
O 	O 	0.79780 0.12920 0.16607 -0.41000
O 	O 	0.81090 0.03270 0.06940 -0.44600
O 	O 	0.75790 0.63280 0.17670 -0.39100
O 	O 	0.78730 0.74570 0.08450 -0.47900
O 	O 	0.08350 0.86550 0.11662 -0.40800
O 	O 	0.94790 0.88430 0.20383 -0.51900
O 	O 	0.57490 0.91130 0.15030 -0.41200
O 	O 	0.66160 0.90160 0.24890 -0.45400
