data_crystal

_cell_length_a 24.22500
_cell_length_b 9.62540
_cell_length_c 16.37000
_cell_angle_alpha 90.00000
_cell_angle_beta  118.54000
_cell_angle_gamma 90.00000

_symmetry_space_group_name_	'P 1'
_symmetry_space_group_name_H-M	'P 1'

loop_
_symmetry_equiv_pos_as_xyz
  x,y,z

loop_
_atom_site_label
_atom_site_type_symbol
_atom_site_fract_x
_atom_site_fract_y
_atom_site_fract_z
_atom_site_charge
Cu	Cu	0.04177 0.38001 0.37793 0.82000
Cu	Cu	0.04178 0.18003 0.03391 0.82500
N 	N 	0.13637 0.01550 0.52550 -0.11400
N 	N 	0.07839 0.00270 0.51740 -0.16900
N 	N 	0.04587 0.11610 0.48080 -0.17700
N 	N 	0.08105 0.20620 0.46320 -0.21200
N 	N 	0.14096 0.21420 0.24400 -0.11000
N 	N 	0.08322 0.23750 0.17440 -0.16700
N 	N 	0.04843 0.29560 0.20620 -0.17900
N 	N 	0.08235 0.30990 0.29870 -0.21000
N 	N 	0.04060 0.43880 0.92510 -0.22700
C 	C 	0.25130 0.30180 0.42260 -0.04700
H 	H 	0.25210 0.33660 0.37010 0.04500
C 	C 	0.19460 0.25440 0.41430 -0.03700
C 	C 	0.19280 0.20100 0.49280 -0.04000
C 	C 	0.13630 0.14170 0.49140 0.10600
C 	C 	0.13890 0.25810 0.32010 0.10300
C 	C 	0.03940 0.33610 0.95790 -0.20800
Cu	Cu	0.54177 0.88001 0.37793 0.81900
Cu	Cu	0.54178 0.68003 0.03391 0.82500
N 	N 	0.63637 0.51550 0.52550 -0.11500
N 	N 	0.57839 0.50270 0.51740 -0.17000
N 	N 	0.54587 0.61610 0.48080 -0.17700
N 	N 	0.58105 0.70620 0.46320 -0.21200
N 	N 	0.64096 0.71420 0.24400 -0.11000
N 	N 	0.58322 0.73750 0.17440 -0.16700
N 	N 	0.54843 0.79560 0.20620 -0.17900
N 	N 	0.58235 0.80990 0.29870 -0.21000
N 	N 	0.54060 0.93880 0.92510 -0.22700
C 	C 	0.75130 0.80180 0.42260 -0.04700
H 	H 	0.75210 0.83660 0.37010 0.04500
C 	C 	0.69460 0.75440 0.41430 -0.03700
C 	C 	0.69280 0.70100 0.49280 -0.04000
C 	C 	0.63630 0.64170 0.49140 0.10600
C 	C 	0.63890 0.75810 0.32010 0.10300
C 	C 	0.53940 0.83610 0.95790 -0.20900
Cu	Cu	0.95823 0.38001 0.12207 0.82000
Cu	Cu	0.95822 0.18003 0.46609 0.82500
N 	N 	0.86363 0.01550 0.97450 -0.11600
N 	N 	0.92161 0.00270 0.98260 -0.17200
N 	N 	0.95413 0.11610 0.01920 -0.17500
N 	N 	0.91895 0.20620 0.03680 -0.21100
N 	N 	0.85904 0.21420 0.25600 -0.11000
N 	N 	0.91678 0.23750 0.32560 -0.16600
N 	N 	0.95157 0.29560 0.29380 -0.17800
N 	N 	0.91765 0.30990 0.20130 -0.21000
N 	N 	0.95940 0.43880 0.57490 -0.22700
C 	C 	0.74870 0.30180 0.07740 -0.04400
H 	H 	0.74790 0.33660 0.12990 0.04400
C 	C 	0.80540 0.25440 0.08570 -0.03900
C 	C 	0.80720 0.20100 0.00720 -0.03700
C 	C 	0.86370 0.14170 0.00860 0.10700
C 	C 	0.86110 0.25810 0.17990 0.10400
C 	C 	0.96060 0.33610 0.54210 -0.20900
Cu	Cu	0.45823 0.88001 0.12207 0.81900
Cu	Cu	0.45822 0.68003 0.46609 0.82500
N 	N 	0.36363 0.51550 0.97450 -0.11400
N 	N 	0.42161 0.50270 0.98260 -0.17000
N 	N 	0.45413 0.61610 0.01920 -0.17700
N 	N 	0.41895 0.70620 0.03680 -0.21200
N 	N 	0.35904 0.71420 0.25600 -0.11000
N 	N 	0.41678 0.73750 0.32560 -0.16700
N 	N 	0.45157 0.79560 0.29380 -0.17900
N 	N 	0.41765 0.80990 0.20130 -0.21000
N 	N 	0.45940 0.93880 0.57490 -0.22700
C 	C 	0.24870 0.80180 0.07740 -0.05000
H 	H 	0.24790 0.83660 0.12990 0.04600
C 	C 	0.30540 0.75440 0.08570 -0.03600
C 	C 	0.30720 0.70100 0.00720 -0.04200
C 	C 	0.36370 0.64170 0.00860 0.10600
C 	C 	0.36110 0.75810 0.17990 0.10300
C 	C 	0.46060 0.83610 0.54210 -0.20900
Cu	Cu	0.95823 0.61999 0.62207 0.81900
Cu	Cu	0.95822 0.81997 0.96609 0.82400
N 	N 	0.86363 0.98450 0.47450 -0.11500
N 	N 	0.92161 0.99730 0.48260 -0.17000
N 	N 	0.95413 0.88390 0.51920 -0.17700
N 	N 	0.91895 0.79380 0.53680 -0.21200
N 	N 	0.85904 0.78580 0.75600 -0.11000
N 	N 	0.91678 0.76250 0.82560 -0.16700
N 	N 	0.95157 0.70440 0.79380 -0.17900
N 	N 	0.91765 0.69010 0.70130 -0.21000
N 	N 	0.95940 0.56120 0.07490 -0.22700
C 	C 	0.74870 0.69820 0.57740 -0.04700
H 	H 	0.74790 0.66340 0.62990 0.04500
C 	C 	0.80540 0.74560 0.58570 -0.03700
C 	C 	0.80720 0.79900 0.50720 -0.04000
C 	C 	0.86370 0.85830 0.50860 0.10600
C 	C 	0.86110 0.74190 0.67990 0.10300
C 	C 	0.96060 0.66390 0.04210 -0.20800
Cu	Cu	0.45823 0.11999 0.62207 0.81900
Cu	Cu	0.45822 0.31997 0.96609 0.82500
N 	N 	0.36363 0.48450 0.47450 -0.11500
N 	N 	0.42161 0.49730 0.48260 -0.17000
N 	N 	0.45413 0.38390 0.51920 -0.17700
N 	N 	0.41895 0.29380 0.53680 -0.21200
N 	N 	0.35904 0.28580 0.75600 -0.11000
N 	N 	0.41678 0.26250 0.82560 -0.16700
N 	N 	0.45157 0.20440 0.79380 -0.17900
N 	N 	0.41765 0.19010 0.70130 -0.21000
N 	N 	0.45940 0.06120 0.07490 -0.22700
C 	C 	0.24870 0.19820 0.57740 -0.04700
H 	H 	0.24790 0.16340 0.62990 0.04500
C 	C 	0.30540 0.24560 0.58570 -0.03700
C 	C 	0.30720 0.29900 0.50720 -0.04000
C 	C 	0.36370 0.35830 0.50860 0.10600
C 	C 	0.36110 0.24190 0.67990 0.10300
C 	C 	0.46060 0.16390 0.04210 -0.20900
Cu	Cu	0.04177 0.61999 0.87793 0.82000
Cu	Cu	0.04178 0.81997 0.53391 0.82500
N 	N 	0.13637 0.98450 0.02550 -0.11600
N 	N 	0.07839 0.99730 0.01740 -0.17200
N 	N 	0.04587 0.88390 0.98080 -0.17500
N 	N 	0.08105 0.79380 0.96320 -0.21100
N 	N 	0.14096 0.78580 0.74400 -0.11000
N 	N 	0.08322 0.76250 0.67440 -0.16600
N 	N 	0.04843 0.70440 0.70620 -0.17800
N 	N 	0.08235 0.69010 0.79870 -0.21000
N 	N 	0.04060 0.56120 0.42510 -0.22700
C 	C 	0.25130 0.69820 0.92260 -0.04400
H 	H 	0.25210 0.66340 0.87010 0.04400
C 	C 	0.19460 0.74560 0.91430 -0.03900
C 	C 	0.19280 0.79900 0.99280 -0.03700
C 	C 	0.13630 0.85830 0.99140 0.10700
C 	C 	0.13890 0.74190 0.82010 0.10400
C 	C 	0.03940 0.66390 0.45790 -0.20900
Cu	Cu	0.54177 0.11999 0.87793 0.81900
Cu	Cu	0.54178 0.31997 0.53391 0.82500
N 	N 	0.63637 0.48450 0.02550 -0.11400
N 	N 	0.57839 0.49730 0.01740 -0.17000
N 	N 	0.54587 0.38390 0.98080 -0.17700
N 	N 	0.58105 0.29380 0.96320 -0.21200
N 	N 	0.64096 0.28580 0.74400 -0.11000
N 	N 	0.58322 0.26250 0.67440 -0.16700
N 	N 	0.54843 0.20440 0.70620 -0.17900
N 	N 	0.58235 0.19010 0.79870 -0.21000
N 	N 	0.54060 0.06120 0.42510 -0.22700
C 	C 	0.75130 0.19820 0.92260 -0.05000
H 	H 	0.75210 0.16340 0.87010 0.04600
C 	C 	0.69460 0.24560 0.91430 -0.03600
C 	C 	0.69280 0.29900 0.99280 -0.04200
C 	C 	0.63630 0.35830 0.99140 0.10600
C 	C 	0.63890 0.24190 0.82010 0.10300
C 	C 	0.53940 0.16390 0.45790 -0.20900
