data_crystal

_cell_length_a 11.03550
_cell_length_b 15.69300
_cell_length_c 16.91400
_cell_angle_alpha 90.00000
_cell_angle_beta  90.00000
_cell_angle_gamma 90.00000

_symmetry_space_group_name_	'P 1'
_symmetry_space_group_name_H-M	'P 1'

loop_
_symmetry_equiv_pos_as_xyz
  x,y,z

loop_
_atom_site_label
_atom_site_type_symbol
_atom_site_fract_x
_atom_site_fract_y
_atom_site_fract_z
_atom_site_charge
Zn	Zn	0.50000 0.83540 0.28230 1.14400
Zn	Zn	0.50000 0.16460 0.71770 1.14400
Zn	Zn	-0.00000 0.66460 0.78230 1.13300
Zn	Zn	0.00000 0.33540 0.21770 1.13300
W 	W 	0.62122 0.44993 0.06359 0.29100
W 	W 	0.62122 0.55007 0.93641 0.29100
W 	W 	0.87878 0.05007 0.56359 0.36400
W 	W 	0.87878 0.94993 0.43641 0.36400
W 	W 	0.37878 0.55007 0.93641 0.29000
W 	W 	0.37878 0.44993 0.06359 0.29000
W 	W 	0.12122 0.94993 0.43641 0.28600
W 	W 	0.12122 0.05007 0.56359 0.28600
W 	W 	0.50000 0.59732 0.06608 0.31000
W 	W 	0.50000 0.40268 0.93392 0.31000
W 	W 	-0.00000 0.90268 0.56608 0.26200
W 	W 	-0.00000 0.09732 0.43392 0.26200
C 	C 	0.76900 0.39730 0.13160 -0.00800
C 	C 	0.76900 0.60270 0.86840 -0.00800
C 	C 	0.73100 0.10270 0.63160 -0.01300
C 	C 	0.73100 0.89730 0.36840 -0.01300
C 	C 	0.23100 0.60270 0.86840 -0.02400
C 	C 	0.23100 0.39730 0.13160 -0.02400
C 	C 	0.26900 0.89730 0.36840 -0.01800
C 	C 	0.26900 0.10270 0.63160 -0.01800
C 	C 	0.50000 0.70000 0.14000 -0.05000
C 	C 	0.50000 0.30000 0.86000 -0.05000
C 	C 	-0.00000 0.80000 0.64000 -0.05800
C 	C 	-0.00000 0.20000 0.36000 -0.05800
S 	S 	0.72170 0.59050 0.06120 -0.23400
S 	S 	0.72170 0.40950 0.93880 -0.23400
S 	S 	0.77830 0.90950 0.56120 -0.23100
S 	S 	0.77830 0.09050 0.43880 -0.23100
S 	S 	0.27830 0.40950 0.93880 -0.26300
S 	S 	0.27830 0.59050 0.06120 -0.26300
S 	S 	0.22170 0.09050 0.43880 -0.24400
S 	S 	0.22170 0.90950 0.56120 -0.24400
S 	S 	0.50000 0.68100 0.94290 -0.24700
S 	S 	0.50000 0.49730 0.17690 -0.25100
S 	S 	0.50000 0.31900 0.05710 -0.24700
S 	S 	0.50000 0.50270 0.82310 -0.25100
S 	S 	-0.00000 0.81900 0.44290 -0.28700
S 	S 	-0.00000 0.00270 0.67690 -0.29100
S 	S 	-0.00000 0.18100 0.55710 -0.28700
S 	S 	-0.00000 0.99730 0.32310 -0.29100
N 	N 	0.84620 0.37210 0.17170 -0.29700
N 	N 	0.84620 0.62790 0.82830 -0.29700
N 	N 	0.65380 0.12790 0.67170 -0.31000
N 	N 	0.65380 0.87210 0.32830 -0.31000
N 	N 	0.15380 0.62790 0.82830 -0.32000
N 	N 	0.15380 0.37210 0.17170 -0.32000
N 	N 	0.34620 0.87210 0.32830 -0.31500
N 	N 	0.34620 0.12790 0.67170 -0.31500
N 	N 	0.50000 0.75800 0.19200 -0.30400
N 	N 	0.50000 0.24200 0.80800 -0.30400
N 	N 	-0.00000 0.74200 0.69200 -0.31500
N 	N 	-0.00000 0.25800 0.30800 -0.31500
