data_crystal

_cell_length_a 13.11200
_cell_length_b 13.11200
_cell_length_c 18.03000
_cell_angle_alpha 92.68580
_cell_angle_beta  92.68580
_cell_angle_gamma 113.13600

_symmetry_space_group_name_	'P 1'
_symmetry_space_group_name_H-M	'P 1'

loop_
_symmetry_equiv_pos_as_xyz
  x,y,z

loop_
_atom_site_label
_atom_site_type_symbol
_atom_site_fract_x
_atom_site_fract_y
_atom_site_fract_z
_atom_site_charge
Co	Co	0.79551 0.71529 0.69440 0.97300
Co	Co	0.28471 0.20449 0.80560 0.95800
Co	Co	0.20449 0.28471 0.30560 0.95100
Co	Co	0.71529 0.79551 0.19440 0.96800
Co	Co	0.50000 0.00000 -0.00000 0.92900
Co	Co	-0.00000 0.50000 0.50000 0.94300
W 	W 	0.95188 0.53864 0.90875 0.35900
W 	W 	0.06707 0.41733 0.94755 0.30100
W 	W 	0.13340 0.62738 0.00202 0.24000
W 	W 	0.46136 0.04812 0.59125 0.24900
W 	W 	0.58267 0.93293 0.55245 0.35000
W 	W 	0.37262 0.86660 0.49798 0.30900
W 	W 	0.04812 0.46136 0.09125 0.23300
W 	W 	0.93293 0.58267 0.05245 0.30400
W 	W 	0.86660 0.37262 0.99798 0.36300
W 	W 	0.53864 0.95188 0.40875 0.34500
W 	W 	0.41733 0.06707 0.44755 0.25300
W 	W 	0.62738 0.13340 0.50202 0.29300
C 	C 	0.89510 0.59330 0.80920 -0.05100
C 	C 	0.14300 0.32180 0.89240 -0.07000
C 	C 	0.28240 0.77220 0.00690 -0.06400
C 	C 	0.40670 0.10490 0.69080 -0.06900
C 	C 	0.67820 0.85700 0.60760 -0.05500
C 	C 	0.22780 0.71760 0.49310 -0.06800
C 	C 	0.10490 0.40670 0.19080 -0.07100
C 	C 	0.85700 0.67820 0.10760 -0.06200
C 	C 	0.71760 0.22780 0.99310 -0.05800
C 	C 	0.59330 0.89510 0.30920 -0.05200
C 	C 	0.32180 0.14300 0.39240 -0.07800
C 	C 	0.77220 0.28240 0.50690 -0.05500
S 	S 	0.13960 0.57660 0.86960 -0.30000
S 	S 	0.01840 0.72900 0.96650 -0.30300
S 	S 	0.89560 0.34240 0.86550 -0.27200
S 	S 	0.22820 0.50720 0.03640 -0.32600
S 	S 	0.42340 0.86040 0.63040 -0.28100
S 	S 	0.27100 0.98160 0.53350 -0.27200
S 	S 	0.65760 0.10440 0.63450 -0.29500
S 	S 	0.49280 0.77180 0.46360 -0.31800
S 	S 	0.86040 0.42340 0.13040 -0.30000
S 	S 	0.98160 0.27100 0.03350 -0.31400
S 	S 	0.10440 0.65760 0.13450 -0.29400
S 	S 	0.77180 0.49280 0.96360 -0.29300
S 	S 	0.57660 0.13960 0.36960 -0.31900
S 	S 	0.72900 0.01840 0.46650 -0.34500
S 	S 	0.34240 0.89560 0.36550 -0.27100
S 	S 	0.50720 0.22820 0.53640 -0.30200
N 	N 	0.85910 0.62410 0.76010 -0.30900
N 	N 	0.18820 0.27120 0.86350 -0.31600
N 	N 	0.36410 0.84830 0.00310 -0.31400
N 	N 	0.37590 0.14090 0.73990 -0.32100
N 	N 	0.72880 0.81180 0.63650 -0.30400
N 	N 	0.15170 0.63590 0.49690 -0.32100
N 	N 	0.14090 0.37590 0.23990 -0.32500
N 	N 	0.81180 0.72880 0.13650 -0.30900
N 	N 	0.63590 0.15170 0.99690 -0.30500
N 	N 	0.62410 0.85910 0.26010 -0.31300
N 	N 	0.27120 0.18820 0.36350 -0.32200
N 	N 	0.84830 0.36410 0.50310 -0.30400
