data_crystal

_cell_length_a 12.34160
_cell_length_b 20.72460
_cell_length_c 23.23060
_cell_angle_alpha 113.60300
_cell_angle_beta  105.40500
_cell_angle_gamma 90.00000

_symmetry_space_group_name_	'P 1'
_symmetry_space_group_name_H-M	'P 1'

loop_
_symmetry_equiv_pos_as_xyz
  x,y,z

loop_
_atom_site_label
_atom_site_type_symbol
_atom_site_fract_x
_atom_site_fract_y
_atom_site_fract_z
_atom_site_charge
Zn	Zn	0.25922 0.80651 0.77026 1.20100
Zn	Zn	0.00885 0.85999 0.74534 1.23000
Zn	Zn	0.65331 0.18475 0.67546 1.21000
Zn	Zn	0.48896 0.69349 0.22974 1.20100
Zn	Zn	0.26351 0.64001 0.25466 1.23000
Zn	Zn	0.97785 0.31525 0.32454 1.21000
Zn	Zn	0.74078 0.19349 0.22974 1.20100
Zn	Zn	0.99115 0.14001 0.25466 1.23000
Zn	Zn	0.34669 0.81525 0.32454 1.21000
Zn	Zn	0.51104 0.30651 0.77026 1.20100
Zn	Zn	0.73649 0.35999 0.74534 1.23000
Zn	Zn	0.02215 0.68475 0.67546 1.21000
H 	H 	0.40920 0.95750 0.77580 0.09500
H 	H 	0.25470 0.13010 0.71000 0.10800
H 	H 	0.04180 0.67690 0.50620 0.09500
H 	H 	0.31150 0.80990 0.48520 0.09400
H 	H 	0.93910 0.97730 0.07640 0.11200
H 	H 	0.07650 0.77620 0.79240 0.18200
H 	H 	0.63340 0.54250 0.22420 0.09500
H 	H 	0.54470 0.36990 0.29000 0.10700
H 	H 	0.53560 0.82310 0.49380 0.09500
H 	H 	0.82630 0.69010 0.51480 0.09400
H 	H 	0.86270 0.52270 0.92360 0.11100
H 	H 	0.28410 0.72380 0.20760 0.18200
H 	H 	0.59080 0.04250 0.22420 0.09500
H 	H 	0.74530 0.86990 0.29000 0.10800
H 	H 	0.95820 0.32310 0.49380 0.09500
H 	H 	0.68850 0.19010 0.51480 0.09400
H 	H 	0.06090 0.02270 0.92360 0.11200
H 	H 	0.92350 0.22380 0.20760 0.18200
H 	H 	0.36660 0.45750 0.77580 0.09500
H 	H 	0.45530 0.63010 0.71000 0.10700
H 	H 	0.46440 0.17690 0.50620 0.09500
H 	H 	0.17370 0.30990 0.48520 0.09400
H 	H 	0.13730 0.47730 0.07640 0.11100
H 	H 	0.71590 0.27620 0.79240 0.18200
C 	C 	0.19330 0.94480 0.76000 0.39900
C 	C 	0.26340 0.99680 0.74920 -0.09200
C 	C 	0.37760 0.99230 0.76240 -0.05500
C 	C 	0.44630 0.04170 0.75540 0.21400
C 	C 	0.40203 0.09320 0.73546 -0.10400
C 	C 	0.28690 0.09520 0.72300 -0.08700
C 	C 	0.22020 0.04950 0.72880 0.22300
C 	C 	0.47445 0.14820 0.72890 0.46500
C 	C 	0.20910 0.72450 0.37000 0.38600
C 	C 	0.19010 0.73160 0.43440 -0.07500
C 	C 	0.11190 0.69070 0.44200 0.17000
C 	C 	0.10210 0.70230 0.50360 -0.05800
C 	C 	0.17430 0.74770 0.55820 -0.10600
C 	C 	0.26000 0.78460 0.54960 0.17900
C 	C 	0.26000 0.77890 0.48840 -0.07500
C 	C 	0.16440 0.74980 0.62000 0.39800
C 	C 	0.98930 0.88810 0.87040 0.37400
C 	C 	0.99218 0.94550 0.93756 -0.07400
C 	C 	0.96520 0.98710 0.04600 -0.08400
C 	C 	0.95880 0.93210 0.98560 0.19700
C 	C 	0.43330 0.55520 0.24000 0.39900
C 	C 	0.51420 0.50320 0.25080 -0.08900
C 	C 	0.61520 0.50770 0.23760 -0.05500
C 	C 	0.69090 0.45830 0.24460 0.21300
C 	C 	0.66657 0.40680 0.26454 -0.10400
C 	C 	0.56390 0.40480 0.27700 -0.08600
C 	C 	0.49140 0.45050 0.27120 0.22100
C 	C 	0.74555 0.35180 0.27110 0.46500
C 	C 	0.83910 0.77550 0.63000 0.38600
C 	C 	0.75570 0.76840 0.56560 -0.07500
C 	C 	0.66990 0.80930 0.55800 0.17100
C 	C 	0.59850 0.79770 0.49640 -0.05800
C 	C 	0.61610 0.75230 0.44180 -0.10500
C 	C 	0.71040 0.71540 0.45040 0.17900
C 	C 	0.77160 0.72110 0.51160 -0.07500
C 	C 	0.54440 0.75020 0.38000 0.39800
C 	C 	0.11890 0.61190 0.12960 0.37000
C 	C 	0.05462 0.55450 0.06244 -0.07300
C 	C 	0.91920 0.51290 0.95400 -0.08200
C 	C 	0.97320 0.56790 0.01440 0.19500
C 	C 	0.80670 0.05520 0.24000 0.39900
C 	C 	0.73660 0.00320 0.25080 -0.09200
C 	C 	0.62240 0.00770 0.23760 -0.05500
C 	C 	0.55370 0.95830 0.24460 0.21400
C 	C 	0.59797 0.90680 0.26454 -0.10400
C 	C 	0.71310 0.90480 0.27700 -0.08700
C 	C 	0.77980 0.95050 0.27120 0.22300
C 	C 	0.52555 0.85180 0.27110 0.46500
C 	C 	0.79090 0.27550 0.63000 0.38600
C 	C 	0.80990 0.26840 0.56560 -0.07500
C 	C 	0.88810 0.30930 0.55800 0.17000
C 	C 	0.89790 0.29770 0.49640 -0.05800
C 	C 	0.82570 0.25230 0.44180 -0.10600
C 	C 	0.74000 0.21540 0.45040 0.17900
C 	C 	0.74000 0.22110 0.51160 -0.07500
C 	C 	0.83560 0.25020 0.38000 0.39800
C 	C 	0.01070 0.11190 0.12960 0.37400
C 	C 	0.00782 0.05450 0.06244 -0.07400
C 	C 	0.03480 0.01290 0.95400 -0.08400
C 	C 	0.04120 0.06790 0.01440 0.19700
C 	C 	0.56670 0.44480 0.76000 0.39900
C 	C 	0.48580 0.49680 0.74920 -0.08900
C 	C 	0.38480 0.49230 0.76240 -0.05500
C 	C 	0.30910 0.54170 0.75540 0.21300
C 	C 	0.33343 0.59320 0.73546 -0.10400
C 	C 	0.43610 0.59520 0.72300 -0.08600
C 	C 	0.50860 0.54950 0.72880 0.22100
C 	C 	0.25445 0.64820 0.72890 0.46500
C 	C 	0.16090 0.22450 0.37000 0.38600
C 	C 	0.24430 0.23160 0.43440 -0.07500
C 	C 	0.33010 0.19070 0.44200 0.17100
C 	C 	0.40150 0.20230 0.50360 -0.05800
C 	C 	0.38390 0.24770 0.55820 -0.10500
C 	C 	0.28960 0.28460 0.54960 0.17900
C 	C 	0.22840 0.27890 0.48840 -0.07500
C 	C 	0.45560 0.24980 0.62000 0.39800
C 	C 	0.88110 0.38810 0.87040 0.37000
C 	C 	0.94538 0.44550 0.93756 -0.07300
C 	C 	0.08080 0.48710 0.04600 -0.08200
C 	C 	0.02680 0.43210 0.98560 0.19500
Cl	Cl	0.58810 0.03110 0.77000 -0.29300
Cl	Cl	0.08120 0.06700 0.72260 -0.29900
Cl	Cl	0.98385 0.64630 0.36890 -0.25400
Cl	Cl	0.32070 0.87710 0.62060 -0.27600
Cl	Cl	0.90073 0.84822 0.97126 -0.27600
Cl	Cl	0.81810 0.46890 0.23000 -0.29200
Cl	Cl	0.35860 0.43300 0.27740 -0.30000
Cl	Cl	0.61495 0.85370 0.63110 -0.25500
Cl	Cl	0.70010 0.62290 0.37940 -0.27500
Cl	Cl	0.92947 0.65178 0.02874 -0.27700
Cl	Cl	0.41190 0.96890 0.23000 -0.29300
Cl	Cl	0.91880 0.93300 0.27740 -0.29900
Cl	Cl	0.01615 0.35370 0.63110 -0.25400
Cl	Cl	0.67930 0.12290 0.37940 -0.27600
Cl	Cl	0.09927 0.15178 0.02874 -0.27600
Cl	Cl	0.18190 0.53110 0.77000 -0.29200
Cl	Cl	0.64140 0.56700 0.72260 -0.30000
Cl	Cl	0.38505 0.14630 0.36890 -0.25500
Cl	Cl	0.29990 0.37710 0.62060 -0.27500
Cl	Cl	0.07053 0.34822 0.97126 -0.27700
O 	O 	0.24327 0.91660 0.79614 -0.47800
O 	O 	0.08893 0.92920 0.72846 -0.41800
O 	O 	0.45339 0.20840 0.75638 -0.50000
O 	O 	0.54901 0.12930 0.70102 -0.45500
O 	O 	0.19932 0.66030 0.32744 -0.41600
O 	O 	0.22832 0.77880 0.36284 -0.44500
O 	O 	0.23272 0.79130 0.67404 -0.43400
O 	O 	0.08290 0.70670 0.61460 -0.47500
O 	O 	0.00681 0.82840 0.86362 -0.29700
O 	O 	0.97269 0.91270 0.82818 -0.43000
O 	O 	0.08577 0.78010 0.75274 -0.77900
O 	O 	0.44713 0.58340 0.20386 -0.47700
O 	O 	0.36047 0.57080 0.27154 -0.41600
O 	O 	0.69701 0.29160 0.24362 -0.50000
O 	O 	0.84799 0.37070 0.29898 -0.45500
O 	O 	0.87188 0.83970 0.67256 -0.41500
O 	O 	0.86548 0.72120 0.63716 -0.44400
O 	O 	0.55868 0.70870 0.32596 -0.43400
O 	O 	0.46830 0.79330 0.38540 -0.47400
O 	O 	0.14319 0.67160 0.13638 -0.29400
O 	O 	0.14451 0.58730 0.17182 -0.43000
O 	O 	0.33303 0.71990 0.24726 -0.77900
O 	O 	0.75673 0.08340 0.20386 -0.47800
O 	O 	0.91107 0.07080 0.27154 -0.41800
O 	O 	0.54661 0.79160 0.24362 -0.50000
O 	O 	0.45099 0.87070 0.29898 -0.45500
O 	O 	0.80068 0.33970 0.67256 -0.41600
O 	O 	0.77168 0.22120 0.63716 -0.44500
O 	O 	0.76728 0.20870 0.32596 -0.43400
O 	O 	0.91710 0.29330 0.38540 -0.47500
O 	O 	0.99319 0.17160 0.13638 -0.29700
O 	O 	0.02731 0.08730 0.17182 -0.43000
O 	O 	0.91423 0.21990 0.24726 -0.77900
O 	O 	0.55287 0.41660 0.79614 -0.47700
O 	O 	0.63953 0.42920 0.72846 -0.41600
O 	O 	0.30299 0.70840 0.75638 -0.50000
O 	O 	0.15201 0.62930 0.70102 -0.45500
O 	O 	0.12812 0.16030 0.32744 -0.41500
O 	O 	0.13452 0.27880 0.36284 -0.44400
O 	O 	0.44132 0.29130 0.67404 -0.43400
O 	O 	0.53170 0.20670 0.61460 -0.47400
O 	O 	0.85681 0.32840 0.86362 -0.29400
O 	O 	0.85549 0.41270 0.82818 -0.43000
O 	O 	0.66697 0.28010 0.75274 -0.77900
