data_crystal

_cell_length_a 12.45800
_cell_length_b 17.31450
_cell_length_c 17.31450
_cell_angle_alpha 82.56370
_cell_angle_beta  68.91480
_cell_angle_gamma 68.91480

_symmetry_space_group_name_	'P 1'
_symmetry_space_group_name_H-M	'P 1'

loop_
_symmetry_equiv_pos_as_xyz
  x,y,z

loop_
_atom_site_label
_atom_site_type_symbol
_atom_site_fract_x
_atom_site_fract_y
_atom_site_fract_z
_atom_site_charge
Co	Co	0.16159 0.17682 0.75000 1.07300
Co	Co	0.58841 0.32318 0.75000 1.07300
Co	Co	0.41159 0.25000 0.67682 1.07300
Co	Co	0.83841 0.25000 0.82318 1.07300
Co	Co	0.83841 0.82318 0.25000 1.07300
Co	Co	0.41159 0.67682 0.25000 1.07300
Co	Co	0.58841 0.75000 0.32318 1.07300
Co	Co	0.16159 0.75000 0.17682 1.07300
H 	H 	0.18120 0.01690 0.66150 -0.01100
H 	H 	0.82100 0.10570 0.73810 -0.02000
H 	H 	0.80640 0.01590 0.65990 0.06600
H 	H 	0.35960 0.48310 0.83850 -0.01000
H 	H 	0.16480 0.39430 0.76190 -0.01900
H 	H 	0.98220 0.48410 0.84010 0.06600
H 	H 	0.34270 0.33850 0.51690 -0.01000
H 	H 	0.05910 0.26190 0.60570 -0.01900
H 	H 	0.96630 0.34010 0.51590 0.06600
H 	H 	0.69810 0.16150 0.98310 -0.01100
H 	H 	0.42670 0.23810 0.89430 -0.01900
H 	H 	0.32230 0.15990 0.98410 0.06500
H 	H 	0.64040 0.16150 0.51690 -0.01000
H 	H 	0.83520 0.23810 0.60570 -0.01900
H 	H 	0.01780 0.15990 0.51590 0.06600
H 	H 	0.81880 0.33850 0.98310 -0.01100
H 	H 	0.17900 0.26190 0.89430 -0.02000
H 	H 	0.19360 0.34010 0.98410 0.06600
H 	H 	0.30190 0.01690 0.83850 -0.01100
H 	H 	0.57330 0.10570 0.76190 -0.01900
H 	H 	0.67770 0.01590 0.84010 0.06500
H 	H 	0.65730 0.48310 0.66150 -0.01000
H 	H 	0.94090 0.39430 0.73810 -0.01900
H 	H 	0.03370 0.48410 0.65990 0.06600
H 	H 	0.81880 0.98310 0.33850 -0.01100
H 	H 	0.17900 0.89430 0.26190 -0.02000
H 	H 	0.19360 0.98410 0.34010 0.06600
H 	H 	0.64040 0.51690 0.16150 -0.01000
H 	H 	0.83520 0.60570 0.23810 -0.01900
H 	H 	0.01780 0.51590 0.15990 0.06600
H 	H 	0.65730 0.66150 0.48310 -0.01000
H 	H 	0.94090 0.73810 0.39430 -0.01900
H 	H 	0.03370 0.65990 0.48410 0.06600
H 	H 	0.30190 0.83850 0.01690 -0.01100
H 	H 	0.57330 0.76190 0.10570 -0.01900
H 	H 	0.67770 0.84010 0.01590 0.06500
H 	H 	0.35960 0.83850 0.48310 -0.01000
H 	H 	0.16480 0.76190 0.39430 -0.01900
H 	H 	0.98220 0.84010 0.48410 0.06600
H 	H 	0.18120 0.66150 0.01690 -0.01100
H 	H 	0.82100 0.73810 0.10570 -0.02000
H 	H 	0.80640 0.65990 0.01590 0.06600
H 	H 	0.69810 0.98310 0.16150 -0.01100
H 	H 	0.42670 0.89430 0.23810 -0.01900
H 	H 	0.32230 0.98410 0.15990 0.06500
H 	H 	0.34270 0.51690 0.33850 -0.01000
H 	H 	0.05910 0.60570 0.26190 -0.01900
H 	H 	0.96630 0.51590 0.34010 0.06600
H 	H 	0.15120 0.95290 0.54710 0.07100
H 	H 	0.79810 0.92700 0.57300 0.01000
H 	H 	0.15120 0.54710 0.95290 0.07100
H 	H 	0.79810 0.57300 0.92700 0.01000
H 	H 	0.19830 0.45290 0.45290 0.07000
H 	H 	0.87110 0.42700 0.42700 0.01000
H 	H 	0.60410 0.04710 0.04710 0.07000
H 	H 	0.22510 0.07300 0.07300 0.01100
H 	H 	0.84880 0.04710 0.45290 0.07100
H 	H 	0.20190 0.07300 0.42700 0.01000
H 	H 	0.84880 0.45290 0.04710 0.07100
H 	H 	0.20190 0.42700 0.07300 0.01000
H 	H 	0.39590 0.95290 0.95290 0.07000
H 	H 	0.77490 0.92700 0.92700 0.01100
H 	H 	0.80170 0.54710 0.54710 0.07000
H 	H 	0.12890 0.57300 0.57300 0.01000
C 	C 	0.10010 0.04930 0.68710 0.03300
C 	C 	0.99950 0.03440 0.68200 -0.06100
C 	C 	0.90260 0.09740 0.72900 0.02900
C 	C 	0.98980 0.98450 0.62150 0.07100
C 	C 	0.87860 0.98160 0.62340 -0.12100
C 	C 	0.33650 0.45070 0.81290 0.03200
C 	C 	0.21590 0.46560 0.81800 -0.05900
C 	C 	0.22900 0.40260 0.77100 0.02800
C 	C 	0.09580 0.51550 0.87850 0.06800
C 	C 	0.98360 0.51840 0.87660 -0.12100
C 	C 	0.28720 0.31290 0.54930 0.03200
C 	C 	0.18150 0.31800 0.53440 -0.05900
C 	C 	0.13160 0.27100 0.59740 0.02800
C 	C 	0.11130 0.37850 0.48450 0.06800
C 	C 	0.00200 0.37660 0.48160 -0.12100
C 	C 	0.64940 0.18710 0.95070 0.03200
C 	C 	0.53390 0.18200 0.96560 -0.05900
C 	C 	0.50000 0.22900 0.90260 0.02800
C 	C 	0.47430 0.12150 0.01550 0.06800
C 	C 	0.36020 0.12340 0.01840 -0.11900
C 	C 	0.66350 0.18710 0.54930 0.03200
C 	C 	0.78410 0.18200 0.53440 -0.05900
C 	C 	0.77100 0.22900 0.59740 0.02800
C 	C 	0.90420 0.12150 0.48450 0.06800
C 	C 	0.01640 0.12340 0.48160 -0.12100
C 	C 	0.89990 0.31290 0.95070 0.03300
C 	C 	0.00050 0.31800 0.96560 -0.06100
C 	C 	0.09740 0.27100 0.90260 0.02900
C 	C 	0.01020 0.37850 0.01550 0.07100
C 	C 	0.12140 0.37660 0.01840 -0.12100
C 	C 	0.35060 0.04930 0.81290 0.03200
C 	C 	0.46610 0.03440 0.81800 -0.05900
C 	C 	0.50000 0.09740 0.77100 0.02800
C 	C 	0.52570 0.98450 0.87850 0.06800
C 	C 	0.63980 0.98160 0.87660 -0.11900
C 	C 	0.71280 0.45070 0.68710 0.03200
C 	C 	0.81850 0.46560 0.68200 -0.05900
C 	C 	0.86840 0.40260 0.72900 0.02800
C 	C 	0.88870 0.51550 0.62150 0.06800
C 	C 	0.99800 0.51840 0.62340 -0.12100
C 	C 	0.89990 0.95070 0.31290 0.03300
C 	C 	0.00050 0.96560 0.31800 -0.06100
C 	C 	0.09740 0.90260 0.27100 0.02900
C 	C 	0.01020 0.01550 0.37850 0.07100
C 	C 	0.12140 0.01840 0.37660 -0.12100
C 	C 	0.66350 0.54930 0.18710 0.03200
C 	C 	0.78410 0.53440 0.18200 -0.05900
C 	C 	0.77100 0.59740 0.22900 0.02800
C 	C 	0.90420 0.48450 0.12150 0.06800
C 	C 	0.01640 0.48160 0.12340 -0.12100
C 	C 	0.71280 0.68710 0.45070 0.03200
C 	C 	0.81850 0.68200 0.46560 -0.05900
C 	C 	0.86840 0.72900 0.40260 0.02800
C 	C 	0.88870 0.62150 0.51550 0.06800
C 	C 	0.99800 0.62340 0.51840 -0.12100
C 	C 	0.35060 0.81290 0.04930 0.03200
C 	C 	0.46610 0.81800 0.03440 -0.05900
C 	C 	0.50000 0.77100 0.09740 0.02800
C 	C 	0.52570 0.87850 0.98450 0.06800
C 	C 	0.63980 0.87660 0.98160 -0.11900
C 	C 	0.33650 0.81290 0.45070 0.03200
C 	C 	0.21590 0.81800 0.46560 -0.05900
C 	C 	0.22900 0.77100 0.40260 0.02800
C 	C 	0.09580 0.87850 0.51550 0.06800
C 	C 	0.98360 0.87660 0.51840 -0.12100
C 	C 	0.10010 0.68710 0.04930 0.03300
C 	C 	0.99950 0.68200 0.03440 -0.06100
C 	C 	0.90260 0.72900 0.09740 0.02900
C 	C 	0.98980 0.62150 0.98450 0.07100
C 	C 	0.87860 0.62340 0.98160 -0.12100
C 	C 	0.64940 0.95070 0.18710 0.03200
C 	C 	0.53390 0.96560 0.18200 -0.05900
C 	C 	0.50000 0.90260 0.22900 0.02800
C 	C 	0.47430 0.01550 0.12150 0.06800
C 	C 	0.36020 0.01840 0.12340 -0.11900
C 	C 	0.28720 0.54930 0.31290 0.03200
C 	C 	0.18150 0.53440 0.31800 -0.05900
C 	C 	0.13160 0.59740 0.27100 0.02800
C 	C 	0.11130 0.48450 0.37850 0.06800
C 	C 	0.00200 0.48160 0.37660 -0.12100
C 	C 	0.10470 0.92110 0.57890 -0.12500
C 	C 	0.87300 0.92810 0.57190 0.03100
C 	C 	0.10470 0.57890 0.92110 -0.12500
C 	C 	0.87300 0.57190 0.92810 0.03100
C 	C 	0.18360 0.42110 0.42110 -0.12400
C 	C 	0.94490 0.42810 0.42810 0.03000
C 	C 	0.52580 0.07890 0.07890 -0.12400
C 	C 	0.30110 0.07190 0.07190 0.02900
C 	C 	0.89530 0.07890 0.42110 -0.12500
C 	C 	0.12700 0.07190 0.42810 0.03100
C 	C 	0.89530 0.42110 0.07890 -0.12500
C 	C 	0.12700 0.42810 0.07190 0.03100
C 	C 	0.47420 0.92110 0.92110 -0.12400
C 	C 	0.69890 0.92810 0.92810 0.02900
C 	C 	0.81640 0.57890 0.57890 -0.12400
C 	C 	0.05510 0.57190 0.57190 0.03000
N 	N 	0.06480 0.11580 0.73320 -0.25600
N 	N 	0.94090 0.14540 0.76000 -0.25900
N 	N 	0.41380 0.38420 0.76680 -0.25600
N 	N 	0.34630 0.35460 0.74000 -0.25900
N 	N 	0.29800 0.26680 0.61580 -0.25600
N 	N 	0.20090 0.24000 0.64540 -0.25900
N 	N 	0.68060 0.23320 0.88420 -0.25600
N 	N 	0.58630 0.26000 0.85460 -0.25900
N 	N 	0.58620 0.23320 0.61580 -0.25600
N 	N 	0.65370 0.26000 0.64540 -0.25900
N 	N 	0.93520 0.26680 0.88420 -0.25600
N 	N 	0.05910 0.24000 0.85460 -0.25900
N 	N 	0.31940 0.11580 0.76680 -0.25600
N 	N 	0.41370 0.14540 0.74000 -0.25900
N 	N 	0.70200 0.38420 0.73320 -0.25600
N 	N 	0.79910 0.35460 0.76000 -0.25900
N 	N 	0.93520 0.88420 0.26680 -0.25600
N 	N 	0.05910 0.85460 0.24000 -0.25900
N 	N 	0.58620 0.61580 0.23320 -0.25600
N 	N 	0.65370 0.64540 0.26000 -0.25900
N 	N 	0.70200 0.73320 0.38420 -0.25600
N 	N 	0.79910 0.76000 0.35460 -0.25900
N 	N 	0.31940 0.76680 0.11580 -0.25600
N 	N 	0.41370 0.74000 0.14540 -0.25900
N 	N 	0.41380 0.76680 0.38420 -0.25600
N 	N 	0.34630 0.74000 0.35460 -0.25900
N 	N 	0.06480 0.73320 0.11580 -0.25600
N 	N 	0.94090 0.76000 0.14540 -0.25900
N 	N 	0.68060 0.88420 0.23320 -0.25600
N 	N 	0.58630 0.85460 0.26000 -0.25900
N 	N 	0.29800 0.61580 0.26680 -0.25600
N 	N 	0.20090 0.64540 0.24000 -0.25900
