data_crystal

_cell_length_a 36.53620
_cell_length_b 36.53620
_cell_length_c 36.53620
_cell_angle_alpha 60.00000
_cell_angle_beta  60.00000
_cell_angle_gamma 60.00000

_symmetry_space_group_name_	'P 1'
_symmetry_space_group_name_H-M	'P 1'

loop_
_symmetry_equiv_pos_as_xyz
  x,y,z

loop_
_atom_site_label
_atom_site_type_symbol
_atom_site_fract_x
_atom_site_fract_y
_atom_site_fract_z
_atom_site_charge
Cu	Cu	0.78806 1.00000 0.21194 0.98200
Cu	Cu	0.71734 0.00000 0.28266 0.92700
Cu	Cu	0.00000 0.78806 -0.00000 0.92200
Cu	Cu	0.00000 0.71734 -0.00000 0.90800
Cu	Cu	0.21194 0.00000 0.78806 0.94200
Cu	Cu	0.28266 0.00000 0.71734 0.92800
Cu	Cu	0.00000 0.21194 -0.00000 0.91900
Cu	Cu	0.00000 0.28266 -0.00000 0.90700
Cu	Cu	0.78806 0.21194 -0.00000 0.93700
Cu	Cu	0.71734 0.28266 -0.00000 0.92400
Cu	Cu	0.00000 0.00000 0.21194 0.92200
Cu	Cu	-0.00000 0.00000 0.28266 0.91100
Cu	Cu	0.21194 0.78806 -0.00000 0.93700
Cu	Cu	0.28266 0.71734 -0.00000 0.92400
Cu	Cu	1.00000 0.00000 0.78806 0.95900
Cu	Cu	0.00000 0.00000 0.71734 0.91000
Cu	Cu	0.78806 0.00000 -0.00000 0.91800
Cu	Cu	0.71734 0.00000 -0.00000 0.90500
Cu	Cu	1.00000 0.21194 0.78806 0.97800
Cu	Cu	0.00000 0.28266 0.71734 0.93000
Cu	Cu	0.21194 0.00000 -0.00000 0.91600
Cu	Cu	0.28266 0.00000 -0.00000 0.90400
Cu	Cu	0.00000 0.78806 0.21194 0.94300
Cu	Cu	0.00000 0.71734 0.28266 0.93100
H 	H 	0.44320 0.26200 0.36140 0.04000
H 	H 	0.64940 0.13740 0.24560 -0.01300
H 	H 	0.51000 0.21860 0.31260 0.07800
H 	H 	0.26200 0.44320 0.93340 0.04400
H 	H 	0.13740 0.64940 0.96760 0.00800
H 	H 	0.21860 0.51000 0.95880 0.08300
H 	H 	0.36140 0.93340 0.44320 0.04400
H 	H 	0.24560 0.96760 0.64940 0.00800
H 	H 	0.31260 0.95880 0.51000 0.08400
H 	H 	0.93340 0.36140 0.26200 0.04200
H 	H 	0.96760 0.24560 0.13740 -0.00200
H 	H 	0.95880 0.31260 0.21860 0.08100
H 	H 	0.44320 0.36140 0.93340 0.04400
H 	H 	0.64940 0.24560 0.96760 0.01000
H 	H 	0.51000 0.31260 0.95880 0.08500
H 	H 	0.26200 0.93340 0.36140 0.04300
H 	H 	0.13740 0.96760 0.24560 0.00200
H 	H 	0.21860 0.95880 0.31260 0.08200
H 	H 	0.36140 0.44320 0.26200 0.04000
H 	H 	0.24560 0.64940 0.13740 -0.01200
H 	H 	0.31260 0.51000 0.21860 0.07700
H 	H 	0.93340 0.26200 0.44320 0.04300
H 	H 	0.96760 0.13740 0.64940 0.00200
H 	H 	0.95880 0.21860 0.51000 0.08100
H 	H 	0.44320 0.93340 0.26200 0.04300
H 	H 	0.64940 0.96760 0.13740 0.00300
H 	H 	0.51000 0.95880 0.21860 0.08100
H 	H 	0.26200 0.36140 0.44320 0.04000
H 	H 	0.13740 0.24560 0.64940 -0.01100
H 	H 	0.21860 0.31260 0.51000 0.07800
H 	H 	0.36140 0.26200 0.93340 0.04300
H 	H 	0.24560 0.13740 0.96760 0.00400
H 	H 	0.31260 0.21860 0.95880 0.08200
H 	H 	0.93340 0.44320 0.36140 0.04300
H 	H 	0.96760 0.64940 0.24560 0.00500
H 	H 	0.95880 0.51000 0.31260 0.08400
H 	H 	0.73800 0.55680 0.63860 0.04400
H 	H 	0.86260 0.35060 0.75440 0.00900
H 	H 	0.78140 0.49000 0.68740 0.08400
H 	H 	0.55680 0.73800 0.06660 0.04100
H 	H 	0.35060 0.86260 0.03240 -0.00500
H 	H 	0.49000 0.78140 0.04120 0.08000
H 	H 	0.06660 0.63860 0.55680 0.04100
H 	H 	0.03240 0.75440 0.35060 -0.00600
H 	H 	0.04120 0.68740 0.49000 0.07900
H 	H 	0.63860 0.06660 0.73800 0.04200
H 	H 	0.75440 0.03240 0.86260 0.00100
H 	H 	0.68740 0.04120 0.78140 0.08100
H 	H 	0.63860 0.55680 0.06660 0.04000
H 	H 	0.75440 0.35060 0.03240 -0.01000
H 	H 	0.68740 0.49000 0.04120 0.07700
H 	H 	0.06660 0.73800 0.63860 0.04200
H 	H 	0.03240 0.86260 0.75440 0.00300
H 	H 	0.04120 0.78140 0.68740 0.08100
H 	H 	0.55680 0.63860 0.73800 0.04500
H 	H 	0.35060 0.75440 0.86260 0.01200
H 	H 	0.49000 0.68740 0.78140 0.08500
H 	H 	0.73800 0.06660 0.55680 0.04200
H 	H 	0.86260 0.03240 0.35060 -0.00600
H 	H 	0.78140 0.04120 0.49000 0.08000
H 	H 	0.06660 0.55680 0.73800 0.04200
H 	H 	0.03240 0.35060 0.86260 -0.00200
H 	H 	0.04120 0.49000 0.78140 0.08200
H 	H 	0.63860 0.73800 0.55680 0.04500
H 	H 	0.75440 0.86260 0.35060 0.00800
H 	H 	0.68740 0.78140 0.49000 0.08400
H 	H 	0.73800 0.63860 0.06660 0.04100
H 	H 	0.86260 0.75440 0.03240 -0.00100
H 	H 	0.78140 0.68740 0.04120 0.08000
H 	H 	0.55680 0.06660 0.63860 0.04000
H 	H 	0.35060 0.03240 0.75440 -0.00600
H 	H 	0.49000 0.04120 0.68740 0.07800
H 	H 	0.55680 0.73800 0.63860 0.04400
H 	H 	0.35060 0.86260 0.75440 0.01100
H 	H 	0.49000 0.78140 0.68740 0.08400
H 	H 	0.73800 0.55680 0.06660 0.04100
H 	H 	0.86260 0.35060 0.03240 -0.00700
H 	H 	0.78140 0.49000 0.04120 0.08000
H 	H 	0.63860 0.06660 0.55680 0.04100
H 	H 	0.75440 0.03240 0.35060 -0.00900
H 	H 	0.68740 0.04120 0.49000 0.07800
H 	H 	0.06660 0.63860 0.73800 0.04200
H 	H 	0.03240 0.75440 0.86260 0.00400
H 	H 	0.04120 0.68740 0.78140 0.08200
H 	H 	0.55680 0.63860 0.06660 0.04000
H 	H 	0.35060 0.75440 0.03240 -0.00900
H 	H 	0.49000 0.68740 0.04120 0.07700
H 	H 	0.73800 0.06660 0.63860 0.04100
H 	H 	0.86260 0.03240 0.75440 0.00000
H 	H 	0.78140 0.04120 0.68740 0.08000
H 	H 	0.63860 0.55680 0.73800 0.04500
H 	H 	0.75440 0.35060 0.86260 0.01000
H 	H 	0.68740 0.49000 0.78140 0.08500
H 	H 	0.06660 0.73800 0.55680 0.04200
H 	H 	0.03240 0.86260 0.35060 -0.00300
H 	H 	0.04120 0.78140 0.49000 0.08100
H 	H 	0.55680 0.06660 0.73800 0.04200
H 	H 	0.35060 0.03240 0.86260 -0.00300
H 	H 	0.49000 0.04120 0.78140 0.08100
H 	H 	0.73800 0.63860 0.55680 0.04400
H 	H 	0.86260 0.75440 0.35060 0.00800
H 	H 	0.78140 0.68740 0.49000 0.08400
H 	H 	0.63860 0.73800 0.06660 0.04100
H 	H 	0.75440 0.86260 0.03240 -0.00100
H 	H 	0.68740 0.78140 0.04120 0.08000
H 	H 	0.06660 0.55680 0.63860 0.04100
H 	H 	0.03240 0.35060 0.75440 -0.00600
H 	H 	0.04120 0.49000 0.68740 0.07900
H 	H 	0.26200 0.44320 0.36140 0.04000
H 	H 	0.13740 0.64940 0.24560 -0.01100
H 	H 	0.21860 0.51000 0.31260 0.07800
H 	H 	0.44320 0.26200 0.93340 0.04300
H 	H 	0.64940 0.13740 0.96760 0.00700
H 	H 	0.51000 0.21860 0.95880 0.08200
H 	H 	0.93340 0.36140 0.44320 0.04400
H 	H 	0.96760 0.24560 0.64940 0.00400
H 	H 	0.95880 0.31260 0.51000 0.08400
H 	H 	0.36140 0.93340 0.26200 0.04300
H 	H 	0.24560 0.96760 0.13740 0.00100
H 	H 	0.31260 0.95880 0.21860 0.08100
H 	H 	0.36140 0.44320 0.93340 0.04400
H 	H 	0.24560 0.64940 0.96760 0.01100
H 	H 	0.31260 0.51000 0.95880 0.08500
H 	H 	0.93340 0.26200 0.36140 0.04200
H 	H 	0.96760 0.13740 0.24560 -0.00100
H 	H 	0.95880 0.21860 0.31260 0.08100
H 	H 	0.44320 0.36140 0.26200 0.04000
H 	H 	0.64940 0.24560 0.13740 -0.01300
H 	H 	0.51000 0.31260 0.21860 0.07700
H 	H 	0.26200 0.93340 0.44320 0.04300
H 	H 	0.13740 0.96760 0.64940 0.00500
H 	H 	0.21860 0.95880 0.51000 0.08200
H 	H 	0.93340 0.44320 0.26200 0.04200
H 	H 	0.96760 0.64940 0.13740 0.00200
H 	H 	0.95880 0.51000 0.21860 0.08100
H 	H 	0.36140 0.26200 0.44320 0.04000
H 	H 	0.24560 0.13740 0.64940 -0.01200
H 	H 	0.31260 0.21860 0.51000 0.07800
H 	H 	0.26200 0.36140 0.93340 0.04300
H 	H 	0.13740 0.24560 0.96760 0.00500
H 	H 	0.21860 0.31260 0.95880 0.08300
H 	H 	0.44320 0.93340 0.36140 0.04400
H 	H 	0.64940 0.96760 0.24560 0.00600
H 	H 	0.51000 0.95880 0.31260 0.08400
H 	H 	0.74530 0.13170 0.13170 -0.03800
H 	H 	0.13170 0.74530 0.99130 -0.00700
H 	H 	0.13170 0.99130 0.74530 -0.01000
H 	H 	0.99130 0.13170 0.13170 -0.02300
H 	H 	0.74530 0.13170 0.99130 -0.00800
H 	H 	0.13170 0.99130 0.13170 -0.01900
H 	H 	0.13170 0.74530 0.13170 -0.03500
H 	H 	0.99130 0.13170 0.74530 -0.01500
H 	H 	0.74530 0.99130 0.13170 -0.01300
H 	H 	0.13170 0.13170 0.74530 -0.03500
H 	H 	0.13170 0.13170 0.99130 -0.01500
H 	H 	0.99130 0.74530 0.13170 -0.01400
H 	H 	0.86830 0.25470 0.86830 -0.00700
H 	H 	0.25470 0.86830 0.00870 -0.02900
H 	H 	0.00870 0.86830 0.25470 -0.02600
H 	H 	0.86830 0.00870 0.86830 -0.01800
H 	H 	0.86830 0.25470 0.00870 -0.03100
H 	H 	0.00870 0.86830 0.86830 -0.01400
H 	H 	0.25470 0.86830 0.86830 -0.00400
H 	H 	0.86830 0.00870 0.25470 -0.03000
H 	H 	0.00870 0.25470 0.86830 -0.02500
H 	H 	0.86830 0.86830 0.25470 -0.00900
H 	H 	0.86830 0.86830 0.00870 -0.02000
H 	H 	0.25470 0.00870 0.86830 -0.02600
H 	H 	0.39310 0.28010 0.39310 0.06200
H 	H 	0.28010 0.39310 0.93370 0.06400
H 	H 	0.39310 0.93370 0.39310 0.06500
H 	H 	0.93370 0.39310 0.28010 0.06300
H 	H 	0.39310 0.39310 0.93370 0.06500
H 	H 	0.28010 0.93370 0.39310 0.06400
H 	H 	0.39310 0.39310 0.28010 0.06100
H 	H 	0.93370 0.28010 0.39310 0.06300
H 	H 	0.39310 0.93370 0.28010 0.06400
H 	H 	0.28010 0.39310 0.39310 0.06200
H 	H 	0.39310 0.28010 0.93370 0.06400
H 	H 	0.93370 0.39310 0.39310 0.06400
H 	H 	0.71990 0.60690 0.60690 0.06500
H 	H 	0.60690 0.71990 0.06630 0.06300
H 	H 	0.06630 0.60690 0.60690 0.06200
H 	H 	0.60690 0.06630 0.71990 0.06300
H 	H 	0.60690 0.60690 0.06630 0.06200
H 	H 	0.06630 0.71990 0.60690 0.06300
H 	H 	0.60690 0.60690 0.71990 0.06500
H 	H 	0.71990 0.06630 0.60690 0.06300
H 	H 	0.06630 0.60690 0.71990 0.06400
H 	H 	0.60690 0.71990 0.60690 0.06500
H 	H 	0.71990 0.60690 0.06630 0.06300
H 	H 	0.60690 0.06630 0.60690 0.06200
C 	C 	0.71890 0.08250 0.21170 0.43900
C 	C 	0.70160 0.12780 0.19080 -0.30900
C 	C 	0.45790 0.27430 0.33110 -0.04000
C 	C 	0.66230 0.15070 0.21510 0.17100
C 	C 	0.50100 0.24980 0.30140 -0.13700
C 	C 	0.08250 0.71890 0.98690 0.41600
C 	C 	0.12780 0.70160 0.97980 -0.25500
C 	C 	0.27430 0.45790 0.93670 -0.03900
C 	C 	0.15070 0.66230 0.97190 0.12800
C 	C 	0.24980 0.50100 0.94780 -0.12800
C 	C 	0.21170 0.98690 0.71890 0.41900
C 	C 	0.19080 0.97980 0.70160 -0.26000
C 	C 	0.33110 0.93670 0.45790 -0.03900
C 	C 	0.21510 0.97190 0.66230 0.13400
C 	C 	0.30140 0.94780 0.50100 -0.12900
C 	C 	0.98690 0.21170 0.08250 0.42500
C 	C 	0.97980 0.19080 0.12780 -0.28000
C 	C 	0.93670 0.33110 0.27430 -0.03900
C 	C 	0.97190 0.21510 0.15070 0.14800
C 	C 	0.94780 0.30140 0.24980 -0.13200
C 	C 	0.71890 0.21170 0.98690 0.41700
C 	C 	0.70160 0.19080 0.97980 -0.25500
C 	C 	0.45790 0.33110 0.93670 -0.03800
C 	C 	0.66230 0.21510 0.97190 0.13000
C 	C 	0.50100 0.30140 0.94780 -0.12900
C 	C 	0.08250 0.98690 0.21170 0.42300
C 	C 	0.12780 0.97980 0.19080 -0.27300
C 	C 	0.27430 0.93670 0.33110 -0.03900
C 	C 	0.15070 0.97190 0.21510 0.14300
C 	C 	0.24980 0.94780 0.30140 -0.13100
C 	C 	0.21170 0.71890 0.08250 0.43500
C 	C 	0.19080 0.70160 0.12780 -0.30400
C 	C 	0.33110 0.45790 0.27430 -0.04000
C 	C 	0.21510 0.66230 0.15070 0.16700
C 	C 	0.30140 0.50100 0.24980 -0.13700
C 	C 	0.98690 0.08250 0.71890 0.42400
C 	C 	0.97980 0.12780 0.70160 -0.27100
C 	C 	0.93670 0.27430 0.45790 -0.04000
C 	C 	0.97190 0.15070 0.66230 0.14100
C 	C 	0.94780 0.24980 0.50100 -0.13000
C 	C 	0.71890 0.98690 0.08250 0.42000
C 	C 	0.70160 0.97980 0.12780 -0.26600
C 	C 	0.45790 0.93670 0.27430 -0.04000
C 	C 	0.66230 0.97190 0.15070 0.13700
C 	C 	0.50100 0.94780 0.24980 -0.12900
C 	C 	0.08250 0.21170 0.71890 0.43700
C 	C 	0.12780 0.19080 0.70160 -0.30400
C 	C 	0.27430 0.33110 0.45790 -0.04000
C 	C 	0.15070 0.21510 0.66230 0.16700
C 	C 	0.24980 0.30140 0.50100 -0.13700
C 	C 	0.21170 0.08250 0.98690 0.42000
C 	C 	0.19080 0.12780 0.97980 -0.26600
C 	C 	0.33110 0.27430 0.93670 -0.03900
C 	C 	0.21510 0.15070 0.97190 0.13700
C 	C 	0.30140 0.24980 0.94780 -0.13000
C 	C 	0.98690 0.71890 0.21170 0.42200
C 	C 	0.97980 0.70160 0.19080 -0.26600
C 	C 	0.93670 0.45790 0.33110 -0.03800
C 	C 	0.97190 0.66230 0.21510 0.13800
C 	C 	0.94780 0.50100 0.30140 -0.13100
C 	C 	0.91750 0.28110 0.78830 0.42000
C 	C 	0.87220 0.29840 0.80920 -0.25600
C 	C 	0.72570 0.54210 0.66890 -0.03900
C 	C 	0.84930 0.33770 0.78490 0.13000
C 	C 	0.75020 0.49900 0.69860 -0.12800
C 	C 	0.28110 0.91750 0.01310 0.42700
C 	C 	0.29840 0.87220 0.02020 -0.29000
C 	C 	0.54210 0.72570 0.06330 -0.03900
C 	C 	0.33770 0.84930 0.02810 0.15700
C 	C 	0.49900 0.75020 0.05220 -0.13600
C 	C 	0.01310 0.78830 0.28110 0.43000
C 	C 	0.02020 0.80920 0.29840 -0.28900
C 	C 	0.06330 0.66890 0.54210 -0.04000
C 	C 	0.02810 0.78490 0.33770 0.15400
C 	C 	0.05220 0.69860 0.49900 -0.13400
C 	C 	0.78830 0.01310 0.91750 0.42100
C 	C 	0.80920 0.02020 0.87220 -0.27200
C 	C 	0.66890 0.06330 0.72570 -0.03800
C 	C 	0.78490 0.02810 0.84930 0.14300
C 	C 	0.69860 0.05220 0.75020 -0.13300
C 	C 	0.78830 0.28110 0.01310 0.43200
C 	C 	0.80920 0.29840 0.02020 -0.29700
C 	C 	0.66890 0.54210 0.06330 -0.04000
C 	C 	0.78490 0.33770 0.02810 0.16000
C 	C 	0.69860 0.49900 0.05220 -0.13600
C 	C 	0.01310 0.91750 0.78830 0.42200
C 	C 	0.02020 0.87220 0.80920 -0.26800
C 	C 	0.06330 0.72570 0.66890 -0.03800
C 	C 	0.02810 0.84930 0.78490 0.13800
C 	C 	0.05220 0.75020 0.69860 -0.13200
C 	C 	0.28110 0.78830 0.91750 0.41500
C 	C 	0.29840 0.80920 0.87220 -0.24900
C 	C 	0.54210 0.66890 0.72570 -0.03900
C 	C 	0.33770 0.78490 0.84930 0.12500
C 	C 	0.49900 0.69860 0.75020 -0.12800
C 	C 	0.91750 0.01310 0.28110 0.42900
C 	C 	0.87220 0.02020 0.29840 -0.29300
C 	C 	0.72570 0.06330 0.54210 -0.03900
C 	C 	0.84930 0.02810 0.33770 0.15900
C 	C 	0.75020 0.05220 0.49900 -0.13500
C 	C 	0.01310 0.28110 0.91750 0.42500
C 	C 	0.02020 0.29840 0.87220 -0.28200
C 	C 	0.06330 0.54210 0.72570 -0.03900
C 	C 	0.02810 0.33770 0.84930 0.15200
C 	C 	0.05220 0.49900 0.75020 -0.13300
C 	C 	0.78830 0.91750 0.28110 0.42100
C 	C 	0.80920 0.87220 0.29840 -0.25900
C 	C 	0.66890 0.72570 0.54210 -0.03900
C 	C 	0.78490 0.84930 0.33770 0.13200
C 	C 	0.69860 0.75020 0.49900 -0.12800
C 	C 	0.91750 0.78830 0.01310 0.42300
C 	C 	0.87220 0.80920 0.02020 -0.27700
C 	C 	0.72570 0.66890 0.06330 -0.03800
C 	C 	0.84930 0.78490 0.02810 0.14500
C 	C 	0.75020 0.69860 0.05220 -0.13400
C 	C 	0.28110 0.01310 0.78830 0.43000
C 	C 	0.29840 0.02020 0.80920 -0.28900
C 	C 	0.54210 0.06330 0.66890 -0.03900
C 	C 	0.33770 0.02810 0.78490 0.15400
C 	C 	0.49900 0.05220 0.69860 -0.13400
C 	C 	0.28110 0.91750 0.78830 0.41600
C 	C 	0.29840 0.87220 0.80920 -0.25000
C 	C 	0.54210 0.72570 0.66890 -0.03900
C 	C 	0.33770 0.84930 0.78490 0.12500
C 	C 	0.49900 0.75020 0.69860 -0.12700
C 	C 	0.91750 0.28110 0.01310 0.42900
C 	C 	0.87220 0.29840 0.02020 -0.29300
C 	C 	0.72570 0.54210 0.06330 -0.03900
C 	C 	0.84930 0.33770 0.02810 0.15900
C 	C 	0.75020 0.49900 0.05220 -0.13600
C 	C 	0.78830 0.01310 0.28110 0.43500
C 	C 	0.80920 0.02020 0.29840 -0.29700
C 	C 	0.66890 0.06330 0.54210 -0.04000
C 	C 	0.78490 0.02810 0.33770 0.16100
C 	C 	0.69860 0.05220 0.49900 -0.13500
C 	C 	0.01310 0.78830 0.91750 0.41900
C 	C 	0.02020 0.80920 0.87220 -0.26600
C 	C 	0.06330 0.66890 0.72570 -0.03800
C 	C 	0.02810 0.78490 0.84930 0.13800
C 	C 	0.05220 0.69860 0.75020 -0.13200
C 	C 	0.28110 0.78830 0.01310 0.43200
C 	C 	0.29840 0.80920 0.02020 -0.29500
C 	C 	0.54210 0.66890 0.06330 -0.03900
C 	C 	0.33770 0.78490 0.02810 0.15800
C 	C 	0.49900 0.69860 0.05220 -0.13500
C 	C 	0.91750 0.01310 0.78830 0.42400
C 	C 	0.87220 0.02020 0.80920 -0.27500
C 	C 	0.72570 0.06330 0.66890 -0.03900
C 	C 	0.84930 0.02810 0.78490 0.14300
C 	C 	0.75020 0.05220 0.69860 -0.13300
C 	C 	0.78830 0.28110 0.91750 0.41700
C 	C 	0.80920 0.29840 0.87220 -0.25400
C 	C 	0.66890 0.54210 0.72570 -0.03900
C 	C 	0.78490 0.33770 0.84930 0.12900
C 	C 	0.69860 0.49900 0.75020 -0.12800
C 	C 	0.01310 0.91750 0.28110 0.42600
C 	C 	0.02020 0.87220 0.29840 -0.28400
C 	C 	0.06330 0.72570 0.54210 -0.03900
C 	C 	0.02810 0.84930 0.33770 0.15300
C 	C 	0.05220 0.75020 0.49900 -0.13400
C 	C 	0.28110 0.01310 0.91750 0.42500
C 	C 	0.29840 0.02020 0.87220 -0.28400
C 	C 	0.54210 0.06330 0.72570 -0.03800
C 	C 	0.33770 0.02810 0.84930 0.15200
C 	C 	0.49900 0.05220 0.75020 -0.13500
C 	C 	0.91750 0.78830 0.28110 0.42000
C 	C 	0.87220 0.80920 0.29840 -0.25800
C 	C 	0.72570 0.66890 0.54210 -0.04000
C 	C 	0.84930 0.78490 0.33770 0.13200
C 	C 	0.75020 0.69860 0.49900 -0.12800
C 	C 	0.78830 0.91750 0.01310 0.42200
C 	C 	0.80920 0.87220 0.02020 -0.27600
C 	C 	0.66890 0.72570 0.06330 -0.03800
C 	C 	0.78490 0.84930 0.02810 0.14500
C 	C 	0.69860 0.75020 0.05220 -0.13400
C 	C 	0.01310 0.28110 0.78830 0.43200
C 	C 	0.02020 0.29840 0.80920 -0.28800
C 	C 	0.06330 0.54210 0.66890 -0.04000
C 	C 	0.02810 0.33770 0.78490 0.15400
C 	C 	0.05220 0.49900 0.69860 -0.13300
C 	C 	0.08250 0.71890 0.21170 0.43500
C 	C 	0.12780 0.70160 0.19080 -0.30300
C 	C 	0.27430 0.45790 0.33110 -0.03900
C 	C 	0.15070 0.66230 0.21510 0.16700
C 	C 	0.24980 0.50100 0.30140 -0.13700
C 	C 	0.71890 0.08250 0.98690 0.41700
C 	C 	0.70160 0.12780 0.97980 -0.25700
C 	C 	0.45790 0.27430 0.93670 -0.03900
C 	C 	0.66230 0.15070 0.97190 0.13000
C 	C 	0.50100 0.24980 0.94780 -0.12800
C 	C 	0.98690 0.21170 0.71890 0.42500
C 	C 	0.97980 0.19080 0.70160 -0.26900
C 	C 	0.93670 0.33110 0.45790 -0.03900
C 	C 	0.97190 0.21510 0.66230 0.14100
C 	C 	0.94780 0.30140 0.50100 -0.13000
C 	C 	0.21170 0.98690 0.08250 0.42200
C 	C 	0.19080 0.97980 0.12780 -0.27400
C 	C 	0.33110 0.93670 0.27430 -0.03900
C 	C 	0.21510 0.97190 0.15070 0.14300
C 	C 	0.30140 0.94780 0.24980 -0.13100
C 	C 	0.21170 0.71890 0.98690 0.41600
C 	C 	0.19080 0.70160 0.97980 -0.25300
C 	C 	0.33110 0.45790 0.93670 -0.03800
C 	C 	0.21510 0.66230 0.97190 0.12800
C 	C 	0.30140 0.50100 0.94780 -0.12800
C 	C 	0.98690 0.08250 0.21170 0.42500
C 	C 	0.97980 0.12780 0.19080 -0.27900
C 	C 	0.93670 0.27430 0.33110 -0.03900
C 	C 	0.97190 0.15070 0.21510 0.14800
C 	C 	0.94780 0.24980 0.30140 -0.13200
C 	C 	0.71890 0.21170 0.08250 0.43700
C 	C 	0.70160 0.19080 0.12780 -0.30800
C 	C 	0.45790 0.33110 0.27430 -0.04000
C 	C 	0.66230 0.21510 0.15070 0.17100
C 	C 	0.50100 0.30140 0.24980 -0.13700
C 	C 	0.08250 0.98690 0.71890 0.42100
C 	C 	0.12780 0.97980 0.70160 -0.26200
C 	C 	0.27430 0.93670 0.45790 -0.03900
C 	C 	0.15070 0.97190 0.66230 0.13400
C 	C 	0.24980 0.94780 0.50100 -0.12900
C 	C 	0.98690 0.71890 0.08250 0.42100
C 	C 	0.97980 0.70160 0.12780 -0.26800
C 	C 	0.93670 0.45790 0.27430 -0.03900
C 	C 	0.97190 0.66230 0.15070 0.13800
C 	C 	0.94780 0.50100 0.24980 -0.13100
C 	C 	0.21170 0.08250 0.71890 0.43500
C 	C 	0.19080 0.12780 0.70160 -0.30400
C 	C 	0.33110 0.27430 0.45790 -0.04000
C 	C 	0.21510 0.15070 0.66230 0.16700
C 	C 	0.30140 0.24980 0.50100 -0.13600
C 	C 	0.08250 0.21170 0.98690 0.42000
C 	C 	0.12780 0.19080 0.97980 -0.26600
C 	C 	0.27430 0.33110 0.93670 -0.03900
C 	C 	0.15070 0.21510 0.97190 0.13700
C 	C 	0.24980 0.30140 0.94780 -0.13000
C 	C 	0.71890 0.98690 0.21170 0.42300
C 	C 	0.70160 0.97980 0.19080 -0.26500
C 	C 	0.45790 0.93670 0.33110 -0.03900
C 	C 	0.66230 0.97190 0.21510 0.13700
C 	C 	0.50100 0.94780 0.30140 -0.13000
C 	C 	0.71880 0.14840 0.14840 0.28200
C 	C 	0.44750 0.30970 0.30970 0.02700
C 	C 	0.40060 0.33500 0.33500 0.04500
C 	C 	0.64320 0.19320 0.19320 -0.15600
C 	C 	0.60010 0.22070 0.22070 0.08800
C 	C 	0.56800 0.23840 0.23840 -0.11900
C 	C 	0.52460 0.26560 0.26560 0.14300
C 	C 	0.14840 0.71880 0.98440 0.23100
C 	C 	0.30970 0.44750 0.93310 0.02900
C 	C 	0.33500 0.40060 0.92940 0.04800
C 	C 	0.19320 0.64320 0.97040 -0.11000
C 	C 	0.22070 0.60010 0.95850 0.07500
C 	C 	0.23840 0.56800 0.95520 -0.09600
C 	C 	0.26560 0.52460 0.94420 0.13600
C 	C 	0.14840 0.98440 0.71880 0.23800
C 	C 	0.30970 0.93310 0.44750 0.02900
C 	C 	0.33500 0.92940 0.40060 0.04700
C 	C 	0.19320 0.97040 0.64320 -0.11600
C 	C 	0.22070 0.95850 0.60010 0.07700
C 	C 	0.23840 0.95520 0.56800 -0.09900
C 	C 	0.26560 0.94420 0.52460 0.13700
C 	C 	0.98440 0.14840 0.14840 0.25400
C 	C 	0.93310 0.30970 0.30970 0.02800
C 	C 	0.92940 0.33500 0.33500 0.04700
C 	C 	0.97040 0.19320 0.19320 -0.13200
C 	C 	0.95850 0.22070 0.22070 0.08100
C 	C 	0.95520 0.23840 0.23840 -0.10700
C 	C 	0.94420 0.26560 0.26560 0.13900
C 	C 	0.71880 0.14840 0.98440 0.23300
C 	C 	0.44750 0.30970 0.93310 0.02900
C 	C 	0.40060 0.33500 0.92940 0.04800
C 	C 	0.64320 0.19320 0.97040 -0.11200
C 	C 	0.60010 0.22070 0.95850 0.07500
C 	C 	0.56800 0.23840 0.95520 -0.09700
C 	C 	0.52460 0.26560 0.94420 0.13600
C 	C 	0.14840 0.98440 0.14840 0.24900
C 	C 	0.30970 0.93310 0.30970 0.02800
C 	C 	0.33500 0.92940 0.33500 0.04700
C 	C 	0.19320 0.97040 0.19320 -0.12600
C 	C 	0.22070 0.95850 0.22070 0.07900
C 	C 	0.23840 0.95520 0.23840 -0.10400
C 	C 	0.26560 0.94420 0.26560 0.13800
C 	C 	0.14840 0.71880 0.14840 0.27700
C 	C 	0.30970 0.44750 0.30970 0.02600
C 	C 	0.33500 0.40060 0.33500 0.04500
C 	C 	0.19320 0.64320 0.19320 -0.15300
C 	C 	0.22070 0.60010 0.22070 0.08700
C 	C 	0.23840 0.56800 0.23840 -0.11800
C 	C 	0.26560 0.52460 0.26560 0.14300
C 	C 	0.98440 0.14840 0.71880 0.24700
C 	C 	0.93310 0.30970 0.44750 0.02900
C 	C 	0.92940 0.33500 0.40060 0.04700
C 	C 	0.97040 0.19320 0.64320 -0.12300
C 	C 	0.95850 0.22070 0.60010 0.07900
C 	C 	0.95520 0.23840 0.56800 -0.10200
C 	C 	0.94420 0.26560 0.52460 0.13800
C 	C 	0.71880 0.98440 0.14840 0.24200
C 	C 	0.44750 0.93310 0.30970 0.02900
C 	C 	0.40060 0.92940 0.33500 0.04700
C 	C 	0.64320 0.97040 0.19320 -0.11900
C 	C 	0.60010 0.95850 0.22070 0.07800
C 	C 	0.56800 0.95520 0.23840 -0.10000
C 	C 	0.52460 0.94420 0.26560 0.13700
C 	C 	0.14840 0.14840 0.71880 0.27700
C 	C 	0.30970 0.30970 0.44750 0.02700
C 	C 	0.33500 0.33500 0.40060 0.04500
C 	C 	0.19320 0.19320 0.64320 -0.15300
C 	C 	0.22070 0.22070 0.60010 0.08700
C 	C 	0.23840 0.23840 0.56800 -0.11700
C 	C 	0.26560 0.26560 0.52460 0.14300
C 	C 	0.14840 0.14840 0.98440 0.24200
C 	C 	0.30970 0.30970 0.93310 0.02900
C 	C 	0.33500 0.33500 0.92940 0.04700
C 	C 	0.19320 0.19320 0.97040 -0.12000
C 	C 	0.22070 0.22070 0.95850 0.07700
C 	C 	0.23840 0.23840 0.95520 -0.10100
C 	C 	0.26560 0.26560 0.94420 0.13700
C 	C 	0.98440 0.71880 0.14840 0.24300
C 	C 	0.93310 0.44750 0.30970 0.02800
C 	C 	0.92940 0.40060 0.33500 0.04700
C 	C 	0.97040 0.64320 0.19320 -0.12200
C 	C 	0.95850 0.60010 0.22070 0.07800
C 	C 	0.95520 0.56800 0.23840 -0.10200
C 	C 	0.94420 0.52460 0.26560 0.13800
C 	C 	0.85160 0.28120 0.85160 0.23300
C 	C 	0.69030 0.55250 0.69030 0.03000
C 	C 	0.66500 0.59940 0.66500 0.04800
C 	C 	0.80680 0.35680 0.80680 -0.11100
C 	C 	0.77930 0.39990 0.77930 0.07500
C 	C 	0.76160 0.43200 0.76160 -0.09600
C 	C 	0.73440 0.47540 0.73440 0.13500
C 	C 	0.28120 0.85160 0.01560 0.26600
C 	C 	0.55250 0.69030 0.06690 0.02600
C 	C 	0.59940 0.66500 0.07060 0.04600
C 	C 	0.35680 0.80680 0.02960 -0.14400
C 	C 	0.39990 0.77930 0.04150 0.08400
C 	C 	0.43200 0.76160 0.04480 -0.11400
C 	C 	0.47540 0.73440 0.05580 0.14200
C 	C 	0.01560 0.85160 0.28120 0.26100
C 	C 	0.06690 0.69030 0.55250 0.02700
C 	C 	0.07060 0.66500 0.59940 0.04600
C 	C 	0.02960 0.80680 0.35680 -0.13800
C 	C 	0.04150 0.77930 0.39990 0.08200
C 	C 	0.04480 0.76160 0.43200 -0.11000
C 	C 	0.05580 0.73440 0.47540 0.14000
C 	C 	0.85160 0.01560 0.85160 0.24800
C 	C 	0.69030 0.06690 0.69030 0.02600
C 	C 	0.66500 0.07060 0.66500 0.04600
C 	C 	0.80680 0.02960 0.80680 -0.12800
C 	C 	0.77930 0.04150 0.77930 0.07900
C 	C 	0.76160 0.04480 0.76160 -0.10700
C 	C 	0.73440 0.05580 0.73440 0.14000
C 	C 	0.85160 0.28120 0.01560 0.26800
C 	C 	0.69030 0.55250 0.06690 0.02600
C 	C 	0.66500 0.59940 0.07060 0.04600
C 	C 	0.80680 0.35680 0.02960 -0.14600
C 	C 	0.77930 0.39990 0.04150 0.08400
C 	C 	0.76160 0.43200 0.04480 -0.11500
C 	C 	0.73440 0.47540 0.05580 0.14200
C 	C 	0.01560 0.85160 0.85160 0.24300
C 	C 	0.06690 0.69030 0.69030 0.02700
C 	C 	0.07060 0.66500 0.66500 0.04700
C 	C 	0.02960 0.80680 0.80680 -0.12200
C 	C 	0.04150 0.77930 0.77930 0.07800
C 	C 	0.04480 0.76160 0.76160 -0.10400
C 	C 	0.05580 0.73440 0.73440 0.13900
C 	C 	0.28120 0.85160 0.85160 0.22700
C 	C 	0.55250 0.69030 0.69030 0.02900
C 	C 	0.59940 0.66500 0.66500 0.04800
C 	C 	0.35680 0.80680 0.80680 -0.10600
C 	C 	0.39990 0.77930 0.77930 0.07400
C 	C 	0.43200 0.76160 0.76160 -0.09400
C 	C 	0.47540 0.73440 0.73440 0.13500
C 	C 	0.85160 0.01560 0.28120 0.26900
C 	C 	0.69030 0.06690 0.55250 0.02700
C 	C 	0.66500 0.07060 0.59940 0.04600
C 	C 	0.80680 0.02960 0.35680 -0.14500
C 	C 	0.77930 0.04150 0.39990 0.08400
C 	C 	0.76160 0.04480 0.43200 -0.11300
C 	C 	0.73440 0.05580 0.47540 0.14100
C 	C 	0.01560 0.28120 0.85160 0.26000
C 	C 	0.06690 0.55250 0.69030 0.02800
C 	C 	0.07060 0.59940 0.66500 0.04600
C 	C 	0.02960 0.35680 0.80680 -0.13700
C 	C 	0.04150 0.39990 0.77930 0.08200
C 	C 	0.04480 0.43200 0.76160 -0.11000
C 	C 	0.05580 0.47540 0.73440 0.14000
C 	C 	0.85160 0.85160 0.28120 0.23600
C 	C 	0.69030 0.69030 0.55250 0.03000
C 	C 	0.66500 0.66500 0.59940 0.04700
C 	C 	0.80680 0.80680 0.35680 -0.11300
C 	C 	0.77930 0.77930 0.39990 0.07600
C 	C 	0.76160 0.76160 0.43200 -0.09700
C 	C 	0.73440 0.73440 0.47540 0.13600
C 	C 	0.85160 0.85160 0.01560 0.25000
C 	C 	0.69030 0.69030 0.06690 0.02600
C 	C 	0.66500 0.66500 0.07060 0.04600
C 	C 	0.80680 0.80680 0.02960 -0.13100
C 	C 	0.77930 0.77930 0.04150 0.08000
C 	C 	0.76160 0.76160 0.04480 -0.10900
C 	C 	0.73440 0.73440 0.05580 0.14000
C 	C 	0.28120 0.01560 0.85160 0.26000
C 	C 	0.55250 0.06690 0.69030 0.02700
C 	C 	0.59940 0.07060 0.66500 0.04600
C 	C 	0.35680 0.02960 0.80680 -0.13800
C 	C 	0.39990 0.04150 0.77930 0.08200
C 	C 	0.43200 0.04480 0.76160 -0.11100
C 	C 	0.47540 0.05580 0.73440 0.14100
C 	C 	0.37920 0.31040 0.37920 -0.11000
C 	C 	0.31040 0.37920 0.93120 -0.10900
C 	C 	0.37920 0.93120 0.37920 -0.10900
C 	C 	0.93120 0.37920 0.31040 -0.10900
C 	C 	0.37920 0.37920 0.93120 -0.10900
C 	C 	0.31040 0.93120 0.37920 -0.10900
C 	C 	0.37920 0.37920 0.31040 -0.11000
C 	C 	0.93120 0.31040 0.37920 -0.10900
C 	C 	0.37920 0.93120 0.31040 -0.10900
C 	C 	0.31040 0.37920 0.37920 -0.11000
C 	C 	0.37920 0.31040 0.93120 -0.10900
C 	C 	0.93120 0.37920 0.37920 -0.10900
C 	C 	0.68960 0.62080 0.62080 -0.10800
C 	C 	0.62080 0.68960 0.06880 -0.11100
C 	C 	0.06880 0.62080 0.62080 -0.11000
C 	C 	0.62080 0.06880 0.68960 -0.11000
C 	C 	0.62080 0.62080 0.06880 -0.11000
C 	C 	0.06880 0.68960 0.62080 -0.11000
C 	C 	0.62080 0.62080 0.68960 -0.10800
C 	C 	0.68960 0.06880 0.62080 -0.11000
C 	C 	0.06880 0.62080 0.68960 -0.11000
C 	C 	0.62080 0.68960 0.62080 -0.10800
C 	C 	0.68960 0.62080 0.06880 -0.11100
C 	C 	0.62080 0.06880 0.62080 -0.11000
O 	O 	0.75945 0.05927 0.19333 -0.44600
O 	O 	0.69811 0.05989 0.25187 -0.43700
O 	O 	0.05927 0.75945 0.98795 -0.40400
O 	O 	0.05989 0.69811 0.99013 -0.40400
O 	O 	0.19333 0.98795 0.75945 -0.40200
O 	O 	0.25187 0.99013 0.69811 -0.40000
O 	O 	0.98795 0.19333 0.05927 -0.41900
O 	O 	0.99013 0.25187 0.05989 -0.41600
O 	O 	0.75945 0.19333 0.98795 -0.39900
O 	O 	0.69811 0.25187 0.99013 -0.39600
O 	O 	0.05927 0.98795 0.19333 -0.41300
O 	O 	0.05989 0.99013 0.25187 -0.41000
O 	O 	0.19333 0.75945 0.05927 -0.43700
O 	O 	0.25187 0.69811 0.05989 -0.43700
O 	O 	0.98795 0.05927 0.75945 -0.42100
O 	O 	0.99013 0.05989 0.69811 -0.41500
O 	O 	0.75945 0.98795 0.05927 -0.41200
O 	O 	0.69811 0.99013 0.05989 -0.41200
O 	O 	0.05927 0.19333 0.75945 -0.44200
O 	O 	0.05989 0.25187 0.69811 -0.43500
O 	O 	0.19333 0.05927 0.98795 -0.40900
O 	O 	0.25187 0.05989 0.99013 -0.40700
O 	O 	0.98795 0.75945 0.19333 -0.40700
O 	O 	0.99013 0.69811 0.25187 -0.40400
O 	O 	0.94073 0.24055 0.80667 -0.41200
O 	O 	0.94011 0.30189 0.74813 -0.40400
O 	O 	0.24055 0.94073 0.01205 -0.41800
O 	O 	0.30189 0.94011 0.00987 -0.41500
O 	O 	0.01205 0.80667 0.24055 -0.43200
O 	O 	0.00987 0.74813 0.30189 -0.43200
O 	O 	0.80667 0.01205 0.94073 -0.40900
O 	O 	0.74813 0.00987 0.94011 -0.40900
O 	O 	0.80667 0.24055 0.01205 -0.43600
O 	O 	0.74813 0.30189 0.00987 -0.43600
O 	O 	0.01205 0.94073 0.80667 -0.41700
O 	O 	0.00987 0.94011 0.74813 -0.41100
O 	O 	0.24055 0.80667 0.94073 -0.39800
O 	O 	0.30189 0.74813 0.94011 -0.39600
O 	O 	0.94073 0.01205 0.24055 -0.42000
O 	O 	0.94011 0.00987 0.30189 -0.41700
O 	O 	0.01205 0.24055 0.94073 -0.41100
O 	O 	0.00987 0.30189 0.94011 -0.40800
O 	O 	0.80667 0.94073 0.24055 -0.41100
O 	O 	0.74813 0.94011 0.30189 -0.40100
O 	O 	0.94073 0.80667 0.01205 -0.41700
O 	O 	0.94011 0.74813 0.00987 -0.41700
O 	O 	0.24055 0.01205 0.80667 -0.43300
O 	O 	0.30189 0.00987 0.74813 -0.43300
O 	O 	0.24055 0.94073 0.80667 -0.40100
O 	O 	0.30189 0.94011 0.74813 -0.39900
O 	O 	0.94073 0.24055 0.01205 -0.42100
O 	O 	0.94011 0.30189 0.00987 -0.41900
O 	O 	0.80667 0.01205 0.24055 -0.44400
O 	O 	0.74813 0.00987 0.30189 -0.43600
O 	O 	0.01205 0.80667 0.94073 -0.40700
O 	O 	0.00987 0.74813 0.94011 -0.40600
O 	O 	0.24055 0.80667 0.01205 -0.43600
O 	O 	0.30189 0.74813 0.00987 -0.43600
O 	O 	0.94073 0.01205 0.80667 -0.42200
O 	O 	0.94011 0.00987 0.74813 -0.41600
O 	O 	0.80667 0.24055 0.94073 -0.39900
O 	O 	0.74813 0.30189 0.94011 -0.39600
O 	O 	0.01205 0.94073 0.24055 -0.41500
O 	O 	0.00987 0.94011 0.30189 -0.41100
O 	O 	0.24055 0.01205 0.94073 -0.41300
O 	O 	0.30189 0.00987 0.94011 -0.41000
O 	O 	0.94073 0.80667 0.24055 -0.40500
O 	O 	0.94011 0.74813 0.30189 -0.40300
O 	O 	0.80667 0.94073 0.01205 -0.41400
O 	O 	0.74813 0.94011 0.00987 -0.41400
O 	O 	0.01205 0.24055 0.80667 -0.43900
O 	O 	0.00987 0.30189 0.74813 -0.43300
O 	O 	0.05927 0.75945 0.19333 -0.43500
O 	O 	0.05989 0.69811 0.25187 -0.43400
O 	O 	0.75945 0.05927 0.98795 -0.40600
O 	O 	0.69811 0.05989 0.99013 -0.40600
O 	O 	0.98795 0.19333 0.75945 -0.41400
O 	O 	0.99013 0.25187 0.69811 -0.40600
O 	O 	0.19333 0.98795 0.05927 -0.41500
O 	O 	0.25187 0.99013 0.05989 -0.41300
O 	O 	0.19333 0.75945 0.98795 -0.39800
O 	O 	0.25187 0.69811 0.99013 -0.39600
O 	O 	0.98795 0.05927 0.19333 -0.41800
O 	O 	0.99013 0.05989 0.25187 -0.41500
O 	O 	0.75945 0.19333 0.05927 -0.43800
O 	O 	0.69811 0.25187 0.05989 -0.43700
O 	O 	0.05927 0.98795 0.75945 -0.41500
O 	O 	0.05989 0.99013 0.69811 -0.40900
O 	O 	0.98795 0.75945 0.05927 -0.41500
O 	O 	0.99013 0.69811 0.05989 -0.41500
O 	O 	0.19333 0.05927 0.75945 -0.43600
O 	O 	0.25187 0.05989 0.69811 -0.43500
O 	O 	0.05927 0.19333 0.98795 -0.40800
O 	O 	0.05989 0.25187 0.99013 -0.40500
O 	O 	0.75945 0.98795 0.19333 -0.41200
O 	O 	0.69811 0.99013 0.25187 -0.40200
