data_crystal

_cell_length_a 13.63530
_cell_length_b 10.22590
_cell_length_c 17.69250
_cell_angle_alpha 90.00000
_cell_angle_beta  90.70400
_cell_angle_gamma 90.00000

_symmetry_space_group_name_	'P 1'
_symmetry_space_group_name_H-M	'P 1'

loop_
_symmetry_equiv_pos_as_xyz
  x,y,z

loop_
_atom_site_label
_atom_site_type_symbol
_atom_site_fract_x
_atom_site_fract_y
_atom_site_fract_z
_atom_site_charge
Mn	Mn	0.38998 0.92028 0.96582 1.27600
Mn	Mn	0.15231 0.07019 0.98044 1.28900
O 	O 	0.39003 0.06607 0.88339 -0.46600
O 	O 	0.32015 0.79610 0.88709 -0.45700
O 	O 	0.30207 0.47525 0.55193 -0.54200
O 	O 	0.25122 0.17252 0.90529 -0.45800
O 	O 	0.18200 0.89201 0.92125 -0.48700
O 	O 	0.09025 0.52068 0.57364 -0.50400
O 	O 	0.45454 0.41015 0.55139 -0.54800
O 	O 	0.95763 0.63740 0.59482 -0.47100
C 	C 	0.23073 0.82370 0.87702 0.37300
C 	C 	0.18104 0.76760 0.80777 -0.08200
C 	C 	0.23636 0.70910 0.75228 -0.02500
H 	H 	0.30420 0.70500 0.75800 0.04800
C 	C 	0.19228 0.65660 0.68834 -0.00800
H 	H 	0.23060 0.61790 0.65140 0.03500
C 	C 	0.09124 0.66150 0.67908 -0.10900
C 	C 	0.03637 0.72180 0.73425 -0.00500
H 	H 	0.96860 0.72650 0.72840 0.04000
C 	C 	0.08052 0.77530 0.79817 -0.02500
H 	H 	0.04250 0.81640 0.83450 0.03800
C 	C 	0.32429 0.14670 0.86665 0.38800
C 	C 	0.33688 0.21940 0.79365 -0.08000
C 	C 	0.42910 0.22820 0.76131 -0.03100
H 	H 	0.48300 0.19000 0.78530 0.04500
C 	C 	0.44082 0.29320 0.69383 0.00400
H 	H 	0.50290 0.30180 0.67330 0.02600
C 	C 	0.35942 0.34630 0.65630 -0.12900
C 	C 	0.26732 0.33750 0.68817 0.00200
H 	H 	0.21290 0.37250 0.66330 0.02300
C 	C 	0.25711 0.27590 0.75761 -0.03200
H 	H 	0.19580 0.27270 0.78010 0.05100
C 	C 	0.37261 0.41360 0.58246 0.39300
C 	C 	0.04282 0.60180 0.60990 0.42800
Mn	Mn	0.61002 0.42028 0.53418 1.27500
Mn	Mn	0.84769 0.57019 0.51956 1.28800
O 	O 	0.60997 0.56607 0.61661 -0.46600
O 	O 	0.67985 0.29610 0.61291 -0.45800
O 	O 	0.69793 0.97525 0.94807 -0.54000
O 	O 	0.74878 0.67252 0.59471 -0.45800
O 	O 	0.81800 0.39201 0.57875 -0.48700
O 	O 	0.90975 0.02068 0.92636 -0.50400
O 	O 	0.54546 0.91015 0.94861 -0.54700
O 	O 	0.04237 0.13740 0.90518 -0.47600
C 	C 	0.76927 0.32370 0.62298 0.37100
C 	C 	0.81896 0.26760 0.69223 -0.07700
C 	C 	0.76364 0.20910 0.74772 -0.03000
H 	H 	0.69580 0.20500 0.74200 0.05000
C 	C 	0.80772 0.15660 0.81166 -0.00200
H 	H 	0.76940 0.11790 0.84860 0.03300
C 	C 	0.90876 0.16150 0.82092 -0.11700
C 	C 	0.96363 0.22180 0.76575 0.00800
H 	H 	0.03140 0.22650 0.77160 0.03300
C 	C 	0.91948 0.27530 0.70183 -0.03300
H 	H 	0.95750 0.31640 0.66550 0.04200
C 	C 	0.67571 0.64670 0.63335 0.38800
C 	C 	0.66312 0.71940 0.70635 -0.08100
C 	C 	0.57090 0.72820 0.73869 -0.03000
H 	H 	0.51700 0.69000 0.71470 0.04500
C 	C 	0.55918 0.79320 0.80617 0.00400
H 	H 	0.49710 0.80180 0.82670 0.02600
C 	C 	0.64058 0.84630 0.84370 -0.12800
C 	C 	0.73268 0.83750 0.81183 0.00200
H 	H 	0.78710 0.87250 0.83670 0.02300
C 	C 	0.74289 0.77590 0.74239 -0.03200
H 	H 	0.80420 0.77270 0.71990 0.05100
C 	C 	0.62739 0.91360 0.91754 0.39300
C 	C 	0.95718 0.10180 0.89010 0.43600
Mn	Mn	0.61002 0.07972 0.03418 1.27500
Mn	Mn	0.84769 0.92981 0.01956 1.28800
O 	O 	0.60997 0.93393 0.11661 -0.46700
O 	O 	0.67985 0.20390 0.11291 -0.45800
O 	O 	0.69793 0.52475 0.44807 -0.54200
O 	O 	0.74878 0.82748 0.09471 -0.45800
O 	O 	0.81800 0.10799 0.07875 -0.48700
O 	O 	0.90975 0.47932 0.42636 -0.50400
O 	O 	0.54546 0.58985 0.44861 -0.54800
O 	O 	0.04237 0.36260 0.40518 -0.47100
C 	C 	0.76927 0.17630 0.12298 0.37300
C 	C 	0.81896 0.23240 0.19223 -0.08200
C 	C 	0.76364 0.29090 0.24772 -0.02500
H 	H 	0.69580 0.29500 0.24200 0.04800
C 	C 	0.80772 0.34340 0.31166 -0.00800
H 	H 	0.76940 0.38210 0.34860 0.03500
C 	C 	0.90876 0.33850 0.32092 -0.10900
C 	C 	0.96363 0.27820 0.26575 -0.00500
H 	H 	0.03140 0.27350 0.27160 0.04000
C 	C 	0.91948 0.22470 0.20183 -0.02500
H 	H 	0.95750 0.18360 0.16550 0.03800
C 	C 	0.67571 0.85330 0.13335 0.38800
C 	C 	0.66312 0.78060 0.20635 -0.08000
C 	C 	0.57090 0.77180 0.23869 -0.03100
H 	H 	0.51700 0.81000 0.21470 0.04500
C 	C 	0.55918 0.70680 0.30617 0.00400
H 	H 	0.49710 0.69820 0.32670 0.02600
C 	C 	0.64058 0.65370 0.34370 -0.12900
C 	C 	0.73268 0.66250 0.31183 0.00200
H 	H 	0.78710 0.62750 0.33670 0.02300
C 	C 	0.74289 0.72410 0.24239 -0.03200
H 	H 	0.80420 0.72730 0.21990 0.05100
C 	C 	0.62739 0.58640 0.41754 0.39300
C 	C 	0.95718 0.39820 0.39010 0.42800
Mn	Mn	0.38998 0.57972 0.46582 1.27500
Mn	Mn	0.15231 0.42981 0.48044 1.28800
O 	O 	0.39003 0.43393 0.38339 -0.46600
O 	O 	0.32015 0.70390 0.38709 -0.45800
O 	O 	0.30207 0.02475 0.05193 -0.54000
O 	O 	0.25122 0.32748 0.40529 -0.45800
O 	O 	0.18200 0.60799 0.42125 -0.48700
O 	O 	0.09025 0.97932 0.07364 -0.50400
O 	O 	0.45454 0.08985 0.05139 -0.54700
O 	O 	0.95763 0.86260 0.09482 -0.47600
C 	C 	0.23073 0.67630 0.37702 0.37100
C 	C 	0.18104 0.73240 0.30777 -0.07700
C 	C 	0.23636 0.79090 0.25228 -0.03000
H 	H 	0.30420 0.79500 0.25800 0.05000
C 	C 	0.19228 0.84340 0.18834 -0.00200
H 	H 	0.23060 0.88210 0.15140 0.03300
C 	C 	0.09124 0.83850 0.17908 -0.11700
C 	C 	0.03637 0.77820 0.23425 0.00800
H 	H 	0.96860 0.77350 0.22840 0.03300
C 	C 	0.08052 0.72470 0.29817 -0.03300
H 	H 	0.04250 0.68360 0.33450 0.04200
C 	C 	0.32429 0.35330 0.36665 0.38800
C 	C 	0.33688 0.28060 0.29365 -0.08100
C 	C 	0.42910 0.27180 0.26131 -0.03000
H 	H 	0.48300 0.31000 0.28530 0.04500
C 	C 	0.44082 0.20680 0.19383 0.00400
H 	H 	0.50290 0.19820 0.17330 0.02600
C 	C 	0.35942 0.15370 0.15630 -0.12800
C 	C 	0.26732 0.16250 0.18817 0.00200
H 	H 	0.21290 0.12750 0.16330 0.02300
C 	C 	0.25711 0.22410 0.25761 -0.03200
H 	H 	0.19580 0.22730 0.28010 0.05100
C 	C 	0.37261 0.08640 0.08246 0.39300
C 	C 	0.04282 0.89820 0.10990 0.43600
