data_crystal

_cell_length_a 21.55990
_cell_length_b 21.55990
_cell_length_c 12.89740
_cell_angle_alpha 90.00000
_cell_angle_beta  90.00000
_cell_angle_gamma 90.00000

_symmetry_space_group_name_	'P 1'
_symmetry_space_group_name_H-M	'P 1'

loop_
_symmetry_equiv_pos_as_xyz
  x,y,z

loop_
_atom_site_label
_atom_site_type_symbol
_atom_site_fract_x
_atom_site_fract_y
_atom_site_fract_z
_atom_site_charge
Cu	Cu	0.05811 0.31312 0.68583 0.89500
O 	O 	0.14609 0.26223 0.56017 -0.45800
O 	O 	0.05301 0.30176 0.53150 -0.36000
O 	O 	0.09447 0.39403 0.66560 -0.36800
N 	N 	0.16340 0.22915 0.36510 -0.24400
H 	H 	0.16320 0.19360 0.32420 0.06600
N 	N 	0.09806 0.31816 0.82590 -0.23200
H 	H 	0.12130 0.28200 0.83240 0.06500
C 	C 	0.09945 0.27202 0.50220 0.26200
C 	C 	0.09806 0.24310 0.39580 0.04900
H 	H 	0.08010 0.27360 0.34550 0.03100
C 	C 	0.05780 0.18580 0.39810 -0.62100
H 	H 	0.08450 0.15050 0.41890 0.02700
H 	H 	0.02680 0.19150 0.45400 0.03300
C 	C 	0.02350 0.16670 0.30270 -0.51600
H 	H 	0.05660 0.15180 0.25450 0.12200
C 	C 	0.99110 0.21400 0.24420 0.10800
H 	H 	0.01860 0.24960 0.23360 -0.00900
H 	H 	0.95420 0.22730 0.28270 -0.32000
H 	H 	0.97860 0.19710 0.17680 0.01500
C 	C 	0.98240 0.11100 0.31830 0.44100
H 	H 	0.00490 0.07930 0.35760 0.01100
H 	H 	0.97030 0.09410 0.25060 -0.24800
H 	H 	0.94510 0.12330 0.35670 0.80800
C 	C 	0.19145 0.28040 0.30380 -0.09500
H 	H 	0.23540 0.27030 0.28920 0.01800
H 	H 	0.19050 0.31890 0.34540 0.03500
C 	C 	0.15772 0.29140 0.20170 0.03200
C 	C 	0.15370 0.24610 0.12750 -0.06700
H 	H 	0.17430 0.20770 0.13880 0.02900
C 	C 	0.12110 0.25440 0.03810 -0.07200
H 	H 	0.11920 0.22170 0.98890 0.03300
C 	C 	0.09084 0.30936 0.01770 0.03900
C 	C 	0.09580 0.35600 0.09220 -0.07000
H 	H 	0.07610 0.39480 0.08050 0.04500
C 	C 	0.12860 0.34690 0.18170 -0.06800
H 	H 	0.13120 0.37950 0.23110 0.05000
C 	C 	0.12940 0.41435 0.73700 0.32900
C 	C 	0.14377 0.36950 0.82590 -0.02500
H 	H 	0.14120 0.39230 0.89340 0.03800
C 	C 	0.20985 0.34292 0.81260 -0.38600
H 	H 	0.21270 0.30390 0.85280 0.12600
H 	H 	0.21580 0.33220 0.73860 0.12200
C 	C 	0.26240 0.38510 0.84570 0.52400
H 	H 	0.25760 0.42520 0.80780 -0.13900
C 	C 	0.26260 0.39930 0.95960 -0.83100
H 	H 	0.29770 0.42640 0.97590 0.24600
H 	H 	0.26640 0.36050 0.99890 0.24500
H 	H 	0.22380 0.42010 0.97840 0.26300
C 	C 	0.32330 0.35630 0.81210 -0.79300
H 	H 	0.35770 0.38330 0.83320 0.22400
H 	H 	0.32360 0.35160 0.73650 0.21800
H 	H 	0.32800 0.31560 0.84470 0.23100
C 	C 	0.05640 0.31920 0.91740 -0.10800
H 	H 	0.02470 0.28640 0.90970 0.03500
H 	H 	0.03470 0.35960 0.92010 0.05700
O 	O 	0.15384 0.46520 0.73800 -0.36400
H 	H 	0.07360 0.15830 0.34260 0.26300
H 	H 	0.06720 0.16470 0.46450 0.13700
C 	C 	0.99840 0.18540 0.38940 0.81800
H 	H 	0.98260 0.20640 0.45340 -0.23100
C 	C 	0.96970 0.22330 0.29500 0.29900
H 	H 	0.92450 0.22500 0.30260 0.06100
H 	H 	0.98040 0.20280 0.22990 -0.08000
H 	H 	0.98650 0.26550 0.29530 -0.03300
C 	C 	0.97210 0.11460 0.39500 -2.36700
H 	H 	0.92660 0.11520 0.39380 0.13100
H 	H 	0.98620 0.09500 0.45950 0.73400
H 	H 	0.98750 0.09090 0.33560 0.34300
Cu	Cu	0.94189 0.68688 0.68583 0.89600
O 	O 	0.85391 0.73777 0.56017 -0.45700
O 	O 	0.94699 0.69824 0.53150 -0.35900
O 	O 	0.90553 0.60597 0.66560 -0.36700
N 	N 	0.83660 0.77085 0.36510 -0.24300
H 	H 	0.83680 0.80640 0.32420 0.06700
N 	N 	0.90194 0.68184 0.82590 -0.23100
H 	H 	0.87870 0.71800 0.83240 0.06600
C 	C 	0.90055 0.72798 0.50220 0.26300
C 	C 	0.90194 0.75690 0.39580 0.05000
H 	H 	0.91990 0.72640 0.34550 0.03200
C 	C 	0.94220 0.81420 0.39810 -0.62000
H 	H 	0.91550 0.84950 0.41890 0.02800
H 	H 	0.97320 0.80850 0.45400 0.03400
C 	C 	0.97650 0.83330 0.30270 -0.51500
H 	H 	0.94340 0.84820 0.25450 0.12300
C 	C 	0.00890 0.78600 0.24420 0.10800
H 	H 	0.98140 0.75040 0.23360 -0.00900
H 	H 	0.04580 0.77270 0.28270 -0.32000
H 	H 	0.02140 0.80290 0.17680 0.01500
C 	C 	0.01760 0.88900 0.31830 0.44100
H 	H 	0.99510 0.92070 0.35760 0.01100
H 	H 	0.02970 0.90590 0.25060 -0.24800
H 	H 	0.05490 0.87670 0.35670 0.80800
C 	C 	0.80855 0.71960 0.30380 -0.09500
H 	H 	0.76460 0.72970 0.28920 0.01800
H 	H 	0.80950 0.68110 0.34540 0.03500
C 	C 	0.84228 0.70860 0.20170 0.03200
C 	C 	0.84630 0.75390 0.12750 -0.06700
H 	H 	0.82570 0.79230 0.13880 0.02900
C 	C 	0.87890 0.74560 0.03810 -0.07200
H 	H 	0.88080 0.77830 0.98890 0.03300
C 	C 	0.90916 0.69064 0.01770 0.03900
C 	C 	0.90420 0.64400 0.09220 -0.07000
H 	H 	0.92390 0.60520 0.08050 0.04500
C 	C 	0.87140 0.65310 0.18170 -0.06800
H 	H 	0.86880 0.62050 0.23110 0.05000
C 	C 	0.87060 0.58565 0.73700 0.32900
C 	C 	0.85623 0.63050 0.82590 -0.02500
H 	H 	0.85880 0.60770 0.89340 0.03800
C 	C 	0.79015 0.65708 0.81260 -0.38600
H 	H 	0.78730 0.69610 0.85280 0.12600
H 	H 	0.78420 0.66780 0.73860 0.12200
C 	C 	0.73760 0.61490 0.84570 0.52400
H 	H 	0.74240 0.57480 0.80780 -0.13900
C 	C 	0.73740 0.60070 0.95960 -0.83100
H 	H 	0.70230 0.57360 0.97590 0.24600
H 	H 	0.73360 0.63950 0.99890 0.24500
H 	H 	0.77620 0.57990 0.97840 0.26300
C 	C 	0.67670 0.64370 0.81210 -0.79300
H 	H 	0.64230 0.61670 0.83320 0.22400
H 	H 	0.67640 0.64840 0.73650 0.21800
H 	H 	0.67200 0.68440 0.84470 0.23100
C 	C 	0.94360 0.68080 0.91740 -0.10800
H 	H 	0.97530 0.71360 0.90970 0.03500
H 	H 	0.96530 0.64040 0.92010 0.05700
O 	O 	0.84616 0.53480 0.73800 -0.36400
H 	H 	0.92640 0.84170 0.34260 0.26300
H 	H 	0.93280 0.83530 0.46450 0.13700
C 	C 	0.00160 0.81460 0.38940 0.81800
H 	H 	0.01740 0.79360 0.45340 -0.23100
C 	C 	0.03030 0.77670 0.29500 0.29900
H 	H 	0.07550 0.77500 0.30260 0.06100
H 	H 	0.01960 0.79720 0.22990 -0.08000
H 	H 	0.01350 0.73450 0.29530 -0.03300
C 	C 	0.02790 0.88540 0.39500 -2.36700
H 	H 	0.07340 0.88480 0.39380 0.13100
H 	H 	0.01380 0.90500 0.45950 0.73400
H 	H 	0.01250 0.90910 0.33560 0.34300
Cu	Cu	0.18688 0.55811 0.68583 0.89600
O 	O 	0.23777 0.64609 0.56017 -0.45700
O 	O 	0.19824 0.55301 0.53150 -0.35900
O 	O 	0.10597 0.59447 0.66560 -0.36700
N 	N 	0.27085 0.66340 0.36510 -0.24300
H 	H 	0.30640 0.66320 0.32420 0.06700
N 	N 	0.18184 0.59806 0.82590 -0.23100
H 	H 	0.21800 0.62130 0.83240 0.06600
C 	C 	0.22798 0.59945 0.50220 0.26200
C 	C 	0.25690 0.59806 0.39580 0.05300
H 	H 	0.22640 0.58010 0.34550 0.03100
C 	C 	0.31420 0.55780 0.39810 -0.62800
H 	H 	0.34950 0.58450 0.41890 0.02800
H 	H 	0.30850 0.52680 0.45400 0.03200
C 	C 	0.33330 0.52350 0.30270 -0.52500
H 	H 	0.34820 0.55660 0.25450 0.12500
C 	C 	0.28600 0.49110 0.24420 0.10600
H 	H 	0.25040 0.51860 0.23360 -0.00900
H 	H 	0.27270 0.45420 0.28270 -0.32300
H 	H 	0.30290 0.47860 0.17680 0.01400
C 	C 	0.38900 0.48240 0.31830 0.44900
H 	H 	0.42070 0.50490 0.35760 0.00500
H 	H 	0.40590 0.47030 0.25060 -0.25200
H 	H 	0.37670 0.44510 0.35670 0.81500
C 	C 	0.21960 0.69145 0.30380 -0.09500
H 	H 	0.22970 0.73540 0.28920 0.01800
H 	H 	0.18110 0.69050 0.34540 0.03500
C 	C 	0.20860 0.65772 0.20170 0.03200
C 	C 	0.25390 0.65370 0.12750 -0.06700
H 	H 	0.29230 0.67430 0.13880 0.02900
C 	C 	0.24560 0.62110 0.03810 -0.07200
H 	H 	0.27830 0.61920 0.98890 0.03200
C 	C 	0.19064 0.59084 0.01770 0.03800
C 	C 	0.14400 0.59580 0.09220 -0.07000
H 	H 	0.10520 0.57610 0.08050 0.04500
C 	C 	0.15310 0.62860 0.18170 -0.06800
H 	H 	0.12050 0.63120 0.23110 0.05000
C 	C 	0.08565 0.62940 0.73700 0.32900
C 	C 	0.13050 0.64377 0.82590 -0.02500
H 	H 	0.10770 0.64120 0.89340 0.03800
C 	C 	0.15708 0.70985 0.81260 -0.38600
H 	H 	0.19610 0.71270 0.85280 0.12600
H 	H 	0.16780 0.71580 0.73860 0.12200
C 	C 	0.11490 0.76240 0.84570 0.52400
H 	H 	0.07480 0.75760 0.80780 -0.13900
C 	C 	0.10070 0.76260 0.95960 -0.83100
H 	H 	0.07360 0.79770 0.97590 0.24600
H 	H 	0.13950 0.76640 0.99890 0.24500
H 	H 	0.07990 0.72380 0.97840 0.26300
C 	C 	0.14370 0.82330 0.81210 -0.79300
H 	H 	0.11670 0.85770 0.83320 0.22400
H 	H 	0.14840 0.82360 0.73650 0.21800
H 	H 	0.18440 0.82800 0.84470 0.23100
C 	C 	0.18080 0.55640 0.91740 -0.10800
H 	H 	0.21360 0.52470 0.90970 0.03500
H 	H 	0.14040 0.53470 0.92010 0.05600
O 	O 	0.03480 0.65384 0.73800 -0.36500
H 	H 	0.34170 0.57360 0.34260 0.26600
H 	H 	0.33530 0.56720 0.46450 0.13900
C 	C 	0.31460 0.49840 0.38940 0.83400
H 	H 	0.29360 0.48260 0.45340 -0.23500
C 	C 	0.27670 0.46970 0.29500 0.30100
H 	H 	0.27500 0.42450 0.30260 0.06100
H 	H 	0.29720 0.48040 0.22990 -0.07700
H 	H 	0.23450 0.48650 0.29530 -0.03300
C 	C 	0.38540 0.47210 0.39500 -2.39400
H 	H 	0.38480 0.42660 0.39380 0.13400
H 	H 	0.40500 0.48620 0.45950 0.74300
H 	H 	0.40910 0.48750 0.33560 0.35100
Cu	Cu	0.81312 0.44189 0.68583 0.89600
O 	O 	0.76223 0.35391 0.56017 -0.45700
O 	O 	0.80176 0.44699 0.53150 -0.35900
O 	O 	0.89403 0.40553 0.66560 -0.36700
N 	N 	0.72915 0.33660 0.36510 -0.24300
H 	H 	0.69360 0.33680 0.32420 0.06700
N 	N 	0.81816 0.40194 0.82590 -0.23100
H 	H 	0.78200 0.37870 0.83240 0.06600
C 	C 	0.77202 0.40055 0.50220 0.26200
C 	C 	0.74310 0.40194 0.39580 0.05300
H 	H 	0.77360 0.41990 0.34550 0.03100
C 	C 	0.68580 0.44220 0.39810 -0.62800
H 	H 	0.65050 0.41550 0.41890 0.02800
H 	H 	0.69150 0.47320 0.45400 0.03200
C 	C 	0.66670 0.47650 0.30270 -0.52500
H 	H 	0.65180 0.44340 0.25450 0.12500
C 	C 	0.71400 0.50890 0.24420 0.10600
H 	H 	0.74960 0.48140 0.23360 -0.00900
H 	H 	0.72730 0.54580 0.28270 -0.32300
H 	H 	0.69710 0.52140 0.17680 0.01400
C 	C 	0.61100 0.51760 0.31830 0.44900
H 	H 	0.57930 0.49510 0.35760 0.00500
H 	H 	0.59410 0.52970 0.25060 -0.25200
H 	H 	0.62330 0.55490 0.35670 0.81500
C 	C 	0.78040 0.30855 0.30380 -0.09500
H 	H 	0.77030 0.26460 0.28920 0.01800
H 	H 	0.81890 0.30950 0.34540 0.03500
C 	C 	0.79140 0.34228 0.20170 0.03200
C 	C 	0.74610 0.34630 0.12750 -0.06700
H 	H 	0.70770 0.32570 0.13880 0.02900
C 	C 	0.75440 0.37890 0.03810 -0.07200
H 	H 	0.72170 0.38080 0.98890 0.03200
C 	C 	0.80936 0.40916 0.01770 0.03800
C 	C 	0.85600 0.40420 0.09220 -0.07000
H 	H 	0.89480 0.42390 0.08050 0.04500
C 	C 	0.84690 0.37140 0.18170 -0.06800
H 	H 	0.87950 0.36880 0.23110 0.05000
C 	C 	0.91435 0.37060 0.73700 0.32900
C 	C 	0.86950 0.35623 0.82590 -0.02500
H 	H 	0.89230 0.35880 0.89340 0.03800
C 	C 	0.84292 0.29015 0.81260 -0.38600
H 	H 	0.80390 0.28730 0.85280 0.12600
H 	H 	0.83220 0.28420 0.73860 0.12200
C 	C 	0.88510 0.23760 0.84570 0.52400
H 	H 	0.92520 0.24240 0.80780 -0.13900
C 	C 	0.89930 0.23740 0.95960 -0.83100
H 	H 	0.92640 0.20230 0.97590 0.24600
H 	H 	0.86050 0.23360 0.99890 0.24500
H 	H 	0.92010 0.27620 0.97840 0.26300
C 	C 	0.85630 0.17670 0.81210 -0.79300
H 	H 	0.88330 0.14230 0.83320 0.22400
H 	H 	0.85160 0.17640 0.73650 0.21800
H 	H 	0.81560 0.17200 0.84470 0.23100
C 	C 	0.81920 0.44360 0.91740 -0.10800
H 	H 	0.78640 0.47530 0.90970 0.03500
H 	H 	0.85960 0.46530 0.92010 0.05600
O 	O 	0.96520 0.34616 0.73800 -0.36500
H 	H 	0.65830 0.42640 0.34260 0.26600
H 	H 	0.66470 0.43280 0.46450 0.13900
C 	C 	0.68540 0.50160 0.38940 0.83400
H 	H 	0.70640 0.51740 0.45340 -0.23500
C 	C 	0.72330 0.53030 0.29500 0.30100
H 	H 	0.72500 0.57550 0.30260 0.06100
H 	H 	0.70280 0.51960 0.22990 -0.07700
H 	H 	0.76550 0.51350 0.29530 -0.03300
C 	C 	0.61460 0.52790 0.39500 -2.39400
H 	H 	0.61520 0.57340 0.39380 0.13400
H 	H 	0.59500 0.51380 0.45950 0.74300
H 	H 	0.59090 0.51250 0.33560 0.35100
Cu	Cu	0.44189 0.81312 0.31417 0.89600
O 	O 	0.35391 0.76223 0.43983 -0.45700
O 	O 	0.44699 0.80176 0.46850 -0.35900
O 	O 	0.40553 0.89403 0.33440 -0.36700
N 	N 	0.33660 0.72915 0.63490 -0.24300
H 	H 	0.33680 0.69360 0.67580 0.06700
N 	N 	0.40194 0.81816 0.17410 -0.23100
H 	H 	0.37870 0.78200 0.16760 0.06600
C 	C 	0.40055 0.77202 0.49780 0.26200
C 	C 	0.40194 0.74310 0.60420 0.05300
H 	H 	0.41990 0.77360 0.65450 0.03100
C 	C 	0.44220 0.68580 0.60190 -0.62800
H 	H 	0.41550 0.65050 0.58110 0.02800
H 	H 	0.47320 0.69150 0.54600 0.03200
C 	C 	0.47650 0.66670 0.69730 -0.52500
H 	H 	0.44340 0.65180 0.74550 0.12500
C 	C 	0.50890 0.71400 0.75580 0.10600
H 	H 	0.48140 0.74960 0.76640 -0.00900
H 	H 	0.54580 0.72730 0.71730 -0.32300
H 	H 	0.52140 0.69710 0.82320 0.01400
C 	C 	0.51760 0.61100 0.68170 0.44900
H 	H 	0.49510 0.57930 0.64240 0.00500
H 	H 	0.52970 0.59410 0.74940 -0.25200
H 	H 	0.55490 0.62330 0.64330 0.81500
C 	C 	0.30855 0.78040 0.69620 -0.09500
H 	H 	0.26460 0.77030 0.71080 0.01800
H 	H 	0.30950 0.81890 0.65460 0.03500
C 	C 	0.34228 0.79140 0.79830 0.03200
C 	C 	0.34630 0.74610 0.87250 -0.06700
H 	H 	0.32570 0.70770 0.86120 0.02900
C 	C 	0.37890 0.75440 0.96190 -0.07200
H 	H 	0.38080 0.72170 0.01110 0.03200
C 	C 	0.40916 0.80936 0.98230 0.03800
C 	C 	0.40420 0.85600 0.90780 -0.07000
H 	H 	0.42390 0.89480 0.91950 0.04500
C 	C 	0.37140 0.84690 0.81830 -0.06800
H 	H 	0.36880 0.87950 0.76890 0.05000
C 	C 	0.37060 0.91435 0.26300 0.32900
C 	C 	0.35623 0.86950 0.17410 -0.02500
H 	H 	0.35880 0.89230 0.10660 0.03800
C 	C 	0.29015 0.84292 0.18740 -0.38600
H 	H 	0.28730 0.80390 0.14720 0.12600
H 	H 	0.28420 0.83220 0.26140 0.12200
C 	C 	0.23760 0.88510 0.15430 0.52400
H 	H 	0.24240 0.92520 0.19220 -0.13900
C 	C 	0.23740 0.89930 0.04040 -0.83100
H 	H 	0.20230 0.92640 0.02410 0.24600
H 	H 	0.23360 0.86050 0.00110 0.24500
H 	H 	0.27620 0.92010 0.02160 0.26300
C 	C 	0.17670 0.85630 0.18790 -0.79300
H 	H 	0.14230 0.88330 0.16680 0.22400
H 	H 	0.17640 0.85160 0.26350 0.21800
H 	H 	0.17200 0.81560 0.15530 0.23100
C 	C 	0.44360 0.81920 0.08260 -0.10800
H 	H 	0.47530 0.78640 0.09030 0.03500
H 	H 	0.46530 0.85960 0.07990 0.05600
O 	O 	0.34616 0.96520 0.26200 -0.36500
H 	H 	0.42640 0.65830 0.65740 0.26600
H 	H 	0.43280 0.66470 0.53550 0.13900
C 	C 	0.50160 0.68540 0.61060 0.83400
H 	H 	0.51740 0.70640 0.54660 -0.23500
C 	C 	0.53030 0.72330 0.70500 0.30100
H 	H 	0.57550 0.72500 0.69740 0.06100
H 	H 	0.51960 0.70280 0.77010 -0.07700
H 	H 	0.51350 0.76550 0.70470 -0.03300
C 	C 	0.52790 0.61460 0.60500 -2.39400
H 	H 	0.57340 0.61520 0.60620 0.13400
H 	H 	0.51380 0.59500 0.54050 0.74300
H 	H 	0.51250 0.59090 0.66440 0.35100
Cu	Cu	0.55811 0.18688 0.31417 0.89600
O 	O 	0.64609 0.23777 0.43983 -0.45700
O 	O 	0.55301 0.19824 0.46850 -0.35900
O 	O 	0.59447 0.10597 0.33440 -0.36700
N 	N 	0.66340 0.27085 0.63490 -0.24300
H 	H 	0.66320 0.30640 0.67580 0.06700
N 	N 	0.59806 0.18184 0.17410 -0.23100
H 	H 	0.62130 0.21800 0.16760 0.06600
C 	C 	0.59945 0.22798 0.49780 0.26200
C 	C 	0.59806 0.25690 0.60420 0.05300
H 	H 	0.58010 0.22640 0.65450 0.03100
C 	C 	0.55780 0.31420 0.60190 -0.62800
H 	H 	0.58450 0.34950 0.58110 0.02800
H 	H 	0.52680 0.30850 0.54600 0.03200
C 	C 	0.52350 0.33330 0.69730 -0.52500
H 	H 	0.55660 0.34820 0.74550 0.12500
C 	C 	0.49110 0.28600 0.75580 0.10600
H 	H 	0.51860 0.25040 0.76640 -0.00900
H 	H 	0.45420 0.27270 0.71730 -0.32300
H 	H 	0.47860 0.30290 0.82320 0.01400
C 	C 	0.48240 0.38900 0.68170 0.44900
H 	H 	0.50490 0.42070 0.64240 0.00500
H 	H 	0.47030 0.40590 0.74940 -0.25200
H 	H 	0.44510 0.37670 0.64330 0.81500
C 	C 	0.69145 0.21960 0.69620 -0.09500
H 	H 	0.73540 0.22970 0.71080 0.01800
H 	H 	0.69050 0.18110 0.65460 0.03500
C 	C 	0.65772 0.20860 0.79830 0.03200
C 	C 	0.65370 0.25390 0.87250 -0.06700
H 	H 	0.67430 0.29230 0.86120 0.02900
C 	C 	0.62110 0.24560 0.96190 -0.07200
H 	H 	0.61920 0.27830 0.01110 0.03200
C 	C 	0.59084 0.19064 0.98230 0.03800
C 	C 	0.59580 0.14400 0.90780 -0.07000
H 	H 	0.57610 0.10520 0.91950 0.04500
C 	C 	0.62860 0.15310 0.81830 -0.06800
H 	H 	0.63120 0.12050 0.76890 0.05000
C 	C 	0.62940 0.08565 0.26300 0.32900
C 	C 	0.64377 0.13050 0.17410 -0.02500
H 	H 	0.64120 0.10770 0.10660 0.03800
C 	C 	0.70985 0.15708 0.18740 -0.38600
H 	H 	0.71270 0.19610 0.14720 0.12600
H 	H 	0.71580 0.16780 0.26140 0.12200
C 	C 	0.76240 0.11490 0.15430 0.52400
H 	H 	0.75760 0.07480 0.19220 -0.13900
C 	C 	0.76260 0.10070 0.04040 -0.83100
H 	H 	0.79770 0.07360 0.02410 0.24600
H 	H 	0.76640 0.13950 0.00110 0.24500
H 	H 	0.72380 0.07990 0.02160 0.26300
C 	C 	0.82330 0.14370 0.18790 -0.79300
H 	H 	0.85770 0.11670 0.16680 0.22400
H 	H 	0.82360 0.14840 0.26350 0.21800
H 	H 	0.82800 0.18440 0.15530 0.23100
C 	C 	0.55640 0.18080 0.08260 -0.10800
H 	H 	0.52470 0.21360 0.09030 0.03500
H 	H 	0.53470 0.14040 0.07990 0.05600
O 	O 	0.65384 0.03480 0.26200 -0.36500
H 	H 	0.57360 0.34170 0.65740 0.26600
H 	H 	0.56720 0.33530 0.53550 0.13900
C 	C 	0.49840 0.31460 0.61060 0.83400
H 	H 	0.48260 0.29360 0.54660 -0.23500
C 	C 	0.46970 0.27670 0.70500 0.30100
H 	H 	0.42450 0.27500 0.69740 0.06100
H 	H 	0.48040 0.29720 0.77010 -0.07700
H 	H 	0.48650 0.23450 0.70470 -0.03300
C 	C 	0.47210 0.38540 0.60500 -2.39400
H 	H 	0.42660 0.38480 0.60620 0.13400
H 	H 	0.48620 0.40500 0.54050 0.74300
H 	H 	0.48750 0.40910 0.66440 0.35100
Cu	Cu	0.31312 0.05811 0.31417 0.89600
O 	O 	0.26223 0.14609 0.43983 -0.45700
O 	O 	0.30176 0.05301 0.46850 -0.35900
O 	O 	0.39403 0.09447 0.33440 -0.36700
N 	N 	0.22915 0.16340 0.63490 -0.24300
H 	H 	0.19360 0.16320 0.67580 0.06700
N 	N 	0.31816 0.09806 0.17410 -0.23100
H 	H 	0.28200 0.12130 0.16760 0.06600
C 	C 	0.27202 0.09945 0.49780 0.26300
C 	C 	0.24310 0.09806 0.60420 0.05000
H 	H 	0.27360 0.08010 0.65450 0.03200
C 	C 	0.18580 0.05780 0.60190 -0.62000
H 	H 	0.15050 0.08450 0.58110 0.02800
H 	H 	0.19150 0.02680 0.54600 0.03400
C 	C 	0.16670 0.02350 0.69730 -0.51500
H 	H 	0.15180 0.05660 0.74550 0.12300
C 	C 	0.21400 0.99110 0.75580 0.10800
H 	H 	0.24960 0.01860 0.76640 -0.00900
H 	H 	0.22730 0.95420 0.71730 -0.32000
H 	H 	0.19710 0.97860 0.82320 0.01500
C 	C 	0.11100 0.98240 0.68170 0.44100
H 	H 	0.07930 0.00490 0.64240 0.01100
H 	H 	0.09410 0.97030 0.74940 -0.24800
H 	H 	0.12330 0.94510 0.64330 0.80800
C 	C 	0.28040 0.19145 0.69620 -0.09500
H 	H 	0.27030 0.23540 0.71080 0.01800
H 	H 	0.31890 0.19050 0.65460 0.03500
C 	C 	0.29140 0.15772 0.79830 0.03200
C 	C 	0.24610 0.15370 0.87250 -0.06700
H 	H 	0.20770 0.17430 0.86120 0.02900
C 	C 	0.25440 0.12110 0.96190 -0.07200
H 	H 	0.22170 0.11920 0.01110 0.03300
C 	C 	0.30936 0.09084 0.98230 0.03900
C 	C 	0.35600 0.09580 0.90780 -0.07000
H 	H 	0.39480 0.07610 0.91950 0.04500
C 	C 	0.34690 0.12860 0.81830 -0.06800
H 	H 	0.37950 0.13120 0.76890 0.05000
C 	C 	0.41435 0.12940 0.26300 0.32900
C 	C 	0.36950 0.14377 0.17410 -0.02500
H 	H 	0.39230 0.14120 0.10660 0.03800
C 	C 	0.34292 0.20985 0.18740 -0.38600
H 	H 	0.30390 0.21270 0.14720 0.12600
H 	H 	0.33220 0.21580 0.26140 0.12200
C 	C 	0.38510 0.26240 0.15430 0.52400
H 	H 	0.42520 0.25760 0.19220 -0.13900
C 	C 	0.39930 0.26260 0.04040 -0.83100
H 	H 	0.42640 0.29770 0.02410 0.24600
H 	H 	0.36050 0.26640 0.00110 0.24500
H 	H 	0.42010 0.22380 0.02160 0.26300
C 	C 	0.35630 0.32330 0.18790 -0.79300
H 	H 	0.38330 0.35770 0.16680 0.22400
H 	H 	0.35160 0.32360 0.26350 0.21800
H 	H 	0.31560 0.32800 0.15530 0.23100
C 	C 	0.31920 0.05640 0.08260 -0.10800
H 	H 	0.28640 0.02470 0.09030 0.03500
H 	H 	0.35960 0.03470 0.07990 0.05700
O 	O 	0.46520 0.15384 0.26200 -0.36400
H 	H 	0.15830 0.07360 0.65740 0.26300
H 	H 	0.16470 0.06720 0.53550 0.13700
C 	C 	0.18540 0.99840 0.61060 0.81800
H 	H 	0.20640 0.98260 0.54660 -0.23100
C 	C 	0.22330 0.96970 0.70500 0.29900
H 	H 	0.22500 0.92450 0.69740 0.06100
H 	H 	0.20280 0.98040 0.77010 -0.08000
H 	H 	0.26550 0.98650 0.70470 -0.03300
C 	C 	0.11460 0.97210 0.60500 -2.36700
H 	H 	0.11520 0.92660 0.60620 0.13100
H 	H 	0.09500 0.98620 0.54050 0.73400
H 	H 	0.09090 0.98750 0.66440 0.34300
Cu	Cu	0.68688 0.94189 0.31417 0.89600
O 	O 	0.73777 0.85391 0.43983 -0.45700
O 	O 	0.69824 0.94699 0.46850 -0.35900
O 	O 	0.60597 0.90553 0.33440 -0.36700
N 	N 	0.77085 0.83660 0.63490 -0.24300
H 	H 	0.80640 0.83680 0.67580 0.06700
N 	N 	0.68184 0.90194 0.17410 -0.23100
H 	H 	0.71800 0.87870 0.16760 0.06600
C 	C 	0.72798 0.90055 0.49780 0.26300
C 	C 	0.75690 0.90194 0.60420 0.05000
H 	H 	0.72640 0.91990 0.65450 0.03200
C 	C 	0.81420 0.94220 0.60190 -0.62000
H 	H 	0.84950 0.91550 0.58110 0.02800
H 	H 	0.80850 0.97320 0.54600 0.03400
C 	C 	0.83330 0.97650 0.69730 -0.51500
H 	H 	0.84820 0.94340 0.74550 0.12300
C 	C 	0.78600 0.00890 0.75580 0.10800
H 	H 	0.75040 0.98140 0.76640 -0.00900
H 	H 	0.77270 0.04580 0.71730 -0.32000
H 	H 	0.80290 0.02140 0.82320 0.01500
C 	C 	0.88900 0.01760 0.68170 0.44100
H 	H 	0.92070 0.99510 0.64240 0.01100
H 	H 	0.90590 0.02970 0.74940 -0.24800
H 	H 	0.87670 0.05490 0.64330 0.80800
C 	C 	0.71960 0.80855 0.69620 -0.09500
H 	H 	0.72970 0.76460 0.71080 0.01800
H 	H 	0.68110 0.80950 0.65460 0.03500
C 	C 	0.70860 0.84228 0.79830 0.03200
C 	C 	0.75390 0.84630 0.87250 -0.06700
H 	H 	0.79230 0.82570 0.86120 0.02900
C 	C 	0.74560 0.87890 0.96190 -0.07200
H 	H 	0.77830 0.88080 0.01110 0.03300
C 	C 	0.69064 0.90916 0.98230 0.03900
C 	C 	0.64400 0.90420 0.90780 -0.07000
H 	H 	0.60520 0.92390 0.91950 0.04500
C 	C 	0.65310 0.87140 0.81830 -0.06800
H 	H 	0.62050 0.86880 0.76890 0.05000
C 	C 	0.58565 0.87060 0.26300 0.32900
C 	C 	0.63050 0.85623 0.17410 -0.02500
H 	H 	0.60770 0.85880 0.10660 0.03800
C 	C 	0.65708 0.79015 0.18740 -0.38600
H 	H 	0.69610 0.78730 0.14720 0.12600
H 	H 	0.66780 0.78420 0.26140 0.12200
C 	C 	0.61490 0.73760 0.15430 0.52400
H 	H 	0.57480 0.74240 0.19220 -0.13900
C 	C 	0.60070 0.73740 0.04040 -0.83100
H 	H 	0.57360 0.70230 0.02410 0.24600
H 	H 	0.63950 0.73360 0.00110 0.24500
H 	H 	0.57990 0.77620 0.02160 0.26300
C 	C 	0.64370 0.67670 0.18790 -0.79300
H 	H 	0.61670 0.64230 0.16680 0.22400
H 	H 	0.64840 0.67640 0.26350 0.21800
H 	H 	0.68440 0.67200 0.15530 0.23100
C 	C 	0.68080 0.94360 0.08260 -0.10800
H 	H 	0.71360 0.97530 0.09030 0.03500
H 	H 	0.64040 0.96530 0.07990 0.05700
O 	O 	0.53480 0.84616 0.26200 -0.36400
H 	H 	0.84170 0.92640 0.65740 0.26300
H 	H 	0.83530 0.93280 0.53550 0.13700
C 	C 	0.81460 0.00160 0.61060 0.81800
H 	H 	0.79360 0.01740 0.54660 -0.23100
C 	C 	0.77670 0.03030 0.70500 0.29900
H 	H 	0.77500 0.07550 0.69740 0.06100
H 	H 	0.79720 0.01960 0.77010 -0.08000
H 	H 	0.73450 0.01350 0.70470 -0.03300
C 	C 	0.88540 0.02790 0.60500 -2.36700
H 	H 	0.88480 0.07340 0.60620 0.13100
H 	H 	0.90500 0.01380 0.54050 0.73400
H 	H 	0.90910 0.01250 0.66440 0.34300
Cu	Cu	0.20949 0.20949 0.50000 0.87300
Cu	Cu	0.79051 0.79051 0.50000 0.87300
Cu	Cu	0.29051 0.70949 0.50000 0.87300
Cu	Cu	0.70949 0.29051 0.50000 0.87300
