data_crystal

_cell_length_a 27.01180
_cell_length_b 27.01180
_cell_length_c 25.02540
_cell_angle_alpha 90.00000
_cell_angle_beta  90.00000
_cell_angle_gamma 120.00000

_symmetry_space_group_name_	'P 1'
_symmetry_space_group_name_H-M	'P 1'

loop_
_symmetry_equiv_pos_as_xyz
  x,y,z

loop_
_atom_site_label
_atom_site_type_symbol
_atom_site_fract_x
_atom_site_fract_y
_atom_site_fract_z
_atom_site_charge
C 	C 	0.62380 0.88370 0.75579 0.25700
C 	C 	0.62740 0.91580 0.80760 0.07600
H 	H 	0.65600 0.95630 0.80320 -0.00500
C 	C 	0.56860 0.91000 0.81850 -0.68300
H 	H 	0.54190 0.87080 0.82850 0.19000
H 	H 	0.55470 0.91810 0.78580 0.19300
C 	C 	0.56970 0.95060 0.86330 1.05700
H 	H 	0.58700 0.94420 0.89500 -0.30500
C 	C 	0.51060 0.93510 0.87750 -1.58500
H 	H 	0.48920 0.89530 0.88670 0.46800
H 	H 	0.49280 0.94240 0.84760 0.43600
H 	H 	0.51130 0.95770 0.90750 0.45700
C 	C 	0.60600 0.01350 0.84810 -1.51000
H 	H 	0.64380 0.02160 0.83850 0.47100
H 	H 	0.60830 0.03690 0.87790 0.44900
H 	H 	0.58890 0.02170 0.81820 0.42100
C 	C 	0.70640 0.92030 0.86090 -0.09000
H 	H 	0.72400 0.91540 0.82910 0.01000
H 	H 	0.71400 0.90150 0.89020 0.03300
C 	C 	0.73420 0.98373 0.87331 0.02600
C 	C 	0.72260 0.00180 0.92100 -0.06900
H 	H 	0.69910 0.97470 0.94600 0.05200
C 	C 	0.77060 0.02430 0.83720 -0.07700
H 	H 	0.77940 0.01270 0.80530 0.02800
C 	C 	0.74510 0.05980 0.93260 -0.09600
H 	H 	0.73630 0.07100 0.96460 0.05500
C 	C 	0.79460 0.08310 0.84800 -0.10300
H 	H 	0.81920 0.11010 0.82350 0.04700
C 	C 	0.78110 0.10070 0.89548 0.04100
C 	C 	0.80490 0.16320 0.90750 -0.11800
H 	H 	0.82460 0.18520 0.87600 0.04000
H 	H 	0.77340 0.16980 0.91470 0.04100
C 	C 	0.94500 0.24490 0.92450 0.24300
C 	C 	0.89950 0.18530 0.94320 0.09300
H 	H 	0.89340 0.15750 0.91510 0.00200
C 	C 	0.92270 0.17110 0.99290 -0.65300
H 	H 	0.96230 0.18220 0.98670 0.22000
H 	H 	0.92170 0.19380 0.02250 0.21700
C 	C 	0.76830 0.27700 0.98550 0.21200
C 	C 	0.81370 0.33860 0.97040 0.16500
H 	H 	0.79700 0.35490 0.94620 -0.03300
C 	C 	0.83380 0.37370 0.02160 -0.85000
H 	H 	0.80060 0.36460 0.04350 0.25900
H 	H 	0.85750 0.36260 0.04140 0.25900
C 	C 	0.86730 0.43810 0.01250 1.22000
H 	H 	0.89930 0.44640 0.98860 -0.35200
C 	C 	0.89180 0.46870 0.06420 -1.72300
H 	H 	0.91310 0.50910 0.05790 0.50700
H 	H 	0.91670 0.45640 0.07900 0.48800
H 	H 	0.86140 0.46010 0.08890 0.49500
C 	C 	0.83180 0.46080 0.98640 -1.71500
H 	H 	0.81620 0.44090 0.95340 0.53700
H 	H 	0.85550 0.50090 0.97940 0.52100
H 	H 	0.80120 0.45490 0.00990 0.50300
C 	C 	0.85400 0.33020 0.88340 -0.12100
H 	H 	0.88440 0.32540 0.86810 0.05100
H 	H 	0.81800 0.29590 0.87590 0.03500
C 	C 	0.85420 0.37990 0.85722 0.04400
C 	C 	0.90520 0.42920 0.84532 -0.07500
H 	H 	0.93980 0.43110 0.85340 0.05300
C 	C 	0.80320 0.37880 0.84400 -0.09000
H 	H 	0.76850 0.34560 0.85000 0.03500
O 	O 	0.62777 0.83866 0.76014 -0.41000
O 	O 	0.61839 0.90332 0.71334 -0.36900
O 	O 	0.93483 0.28587 0.93201 -0.36900
O 	O 	0.98870 0.25010 0.90370 -0.24100
O 	O 	0.78523 0.24053 0.98903 -0.36900
O 	O 	0.71940 0.26720 0.99640 -0.25800
Cu	Cu	0.86294 0.26566 0.96703 0.90900
N 	N 	0.64454 0.89188 0.85259 -0.25800
H 	H 	0.62670 0.89250 0.88320 0.10600
N 	N 	0.84512 0.18456 0.95351 -0.25000
H 	H 	0.82780 0.16270 0.98280 0.11300
N 	N 	0.86220 0.33693 0.94311 -0.26000
H 	H 	0.89600 0.36870 0.95120 0.11100
C 	C 	0.91490 0.09930 0.06140 -1.38700
H 	H 	0.89380 0.05970 0.07140 0.52400
H 	H 	0.91210 0.12220 0.08920 0.42900
H 	H 	0.95440 0.11040 0.05610 0.40700
C 	C 	0.89010 0.10830 0.00890 0.83600
H 	H 	0.84850 0.09150 0.00910 -0.18800
C 	C 	0.91390 0.08030 0.96420 -0.02600
H 	H 	0.89580 0.03970 0.96980 0.08800
H 	H 	0.95450 0.09710 0.96790 -0.07200
H 	H 	0.90510 0.08770 0.92900 0.02100
C 	C 	0.87460 0.06070 0.96670 -1.24600
H 	H 	0.85500 0.02400 0.98380 0.33100
H 	H 	0.90890 0.06570 0.95020 0.35200
H 	H 	0.85030 0.06290 0.93990 0.41200
H 	H 	0.86500 0.05300 0.07400 -0.15800
C 	C 	0.11630 0.74010 0.08912 0.25800
C 	C 	0.08420 0.71160 0.14093 0.07700
H 	H 	0.04370 0.69970 0.13653 -0.00400
C 	C 	0.09000 0.65860 0.15183 -0.68200
H 	H 	0.12920 0.67110 0.16183 0.19100
H 	H 	0.08190 0.63660 0.11913 0.19400
C 	C 	0.04940 0.61910 0.19663 1.05700
H 	H 	0.05580 0.64280 0.22833 -0.30400
C 	C 	0.06490 0.57550 0.21083 -1.58400
H 	H 	0.10470 0.59390 0.22003 0.46900
H 	H 	0.05760 0.55040 0.18093 0.43700
H 	H 	0.04230 0.55360 0.24083 0.45800
C 	C 	0.98650 0.59250 0.18143 -1.50800
H 	H 	0.97840 0.62220 0.17183 0.47200
H 	H 	0.96310 0.57140 0.21123 0.45000
H 	H 	0.97830 0.56720 0.15153 0.42200
C 	C 	0.07970 0.78610 0.19423 -0.08900
H 	H 	0.08460 0.80860 0.16243 0.01100
H 	H 	0.09850 0.81250 0.22353 0.03400
C 	C 	0.01627 0.75047 0.20664 0.02700
C 	C 	0.99820 0.72080 0.25433 -0.06800
H 	H 	0.02530 0.72440 0.27933 0.05300
C 	C 	0.97570 0.74630 0.17053 -0.07600
H 	H 	0.98730 0.76670 0.13863 0.02900
C 	C 	0.94020 0.68530 0.26593 -0.09500
H 	H 	0.92900 0.66530 0.29793 0.05600
C 	C 	0.91690 0.71150 0.18133 -0.10200
H 	H 	0.88990 0.70910 0.15683 0.04800
C 	C 	0.89930 0.68040 0.22881 0.04200
C 	C 	0.83680 0.64170 0.24083 -0.11700
H 	H 	0.81480 0.63940 0.20933 0.04100
H 	H 	0.83020 0.60360 0.24803 0.04200
C 	C 	0.75510 0.70010 0.25783 0.24300
C 	C 	0.81470 0.71420 0.27653 0.09300
H 	H 	0.84250 0.73590 0.24843 0.00300
C 	C 	0.82890 0.75160 0.32623 -0.65200
H 	H 	0.81780 0.78010 0.32003 0.21900
H 	H 	0.80620 0.72790 0.35583 0.21700
C 	C 	0.72300 0.49130 0.31883 0.21200
C 	C 	0.66140 0.47510 0.30373 0.16500
H 	H 	0.64510 0.44210 0.27953 -0.03300
C 	C 	0.62630 0.46010 0.35493 -0.84800
H 	H 	0.63540 0.43600 0.37683 0.25800
H 	H 	0.63740 0.49490 0.37473 0.25800
C 	C 	0.56190 0.42920 0.34583 1.21700
H 	H 	0.55360 0.45290 0.32193 -0.35100
C 	C 	0.53130 0.42310 0.39753 -1.72000
H 	H 	0.49090 0.40400 0.39123 0.50600
H 	H 	0.54360 0.46030 0.41233 0.48700
H 	H 	0.53990 0.40130 0.42223 0.49400
C 	C 	0.53920 0.37100 0.31973 -1.71100
H 	H 	0.55910 0.37530 0.28673 0.53600
H 	H 	0.49910 0.35460 0.31273 0.52000
H 	H 	0.54510 0.34630 0.34323 0.50200
C 	C 	0.66980 0.52380 0.21673 -0.12100
H 	H 	0.67460 0.55900 0.20143 0.05100
H 	H 	0.70410 0.52210 0.20923 0.03500
C 	C 	0.62010 0.47430 0.19055 0.04400
C 	C 	0.57080 0.47600 0.17865 -0.07500
H 	H 	0.56890 0.50870 0.18673 0.05300
C 	C 	0.62120 0.42440 0.17733 -0.09000
H 	H 	0.65440 0.42290 0.18333 0.03500
O 	O 	0.16134 0.78911 0.09347 -0.41000
O 	O 	0.09668 0.71507 0.04667 -0.36900
O 	O 	0.71413 0.64896 0.26534 -0.36900
O 	O 	0.74990 0.73860 0.23703 -0.24100
O 	O 	0.75947 0.54470 0.32236 -0.36900
O 	O 	0.73280 0.45220 0.32973 -0.25800
Cu	Cu	0.73434 0.59728 0.30036 0.90900
N 	N 	0.10812 0.75266 0.18592 -0.25800
H 	H 	0.10750 0.73420 0.21653 0.10600
N 	N 	0.81544 0.66056 0.28684 -0.25000
H 	H 	0.83730 0.66510 0.31613 0.11300
N 	N 	0.66307 0.52527 0.27644 -0.26000
H 	H 	0.63130 0.52730 0.28453 0.11100
C 	C 	0.90070 0.81560 0.39473 -1.38600
H 	H 	0.94030 0.83410 0.40473 0.52300
H 	H 	0.87780 0.78990 0.42253 0.42900
H 	H 	0.88960 0.84400 0.38943 0.40600
C 	C 	0.89170 0.78180 0.34223 0.83500
H 	H 	0.90850 0.75700 0.34243 -0.18800
C 	C 	0.91970 0.83360 0.29753 -0.02500
H 	H 	0.96030 0.85610 0.30313 0.08800
H 	H 	0.90290 0.85740 0.30123 -0.07200
H 	H 	0.91230 0.81740 0.26233 0.02100
C 	C 	0.93930 0.81390 0.30003 -1.24400
H 	H 	0.97600 0.83100 0.31713 0.33000
H 	H 	0.93430 0.84320 0.28353 0.35100
H 	H 	0.93710 0.78740 0.27323 0.41200
H 	H 	0.94700 0.81200 0.40733 -0.15700
C 	C 	0.25990 0.37620 0.42246 0.25800
C 	C 	0.28840 0.37260 0.47427 0.07700
H 	H 	0.30030 0.34400 0.46987 -0.00400
C 	C 	0.34140 0.43140 0.48517 -0.68200
H 	H 	0.32890 0.45810 0.49517 0.19100
H 	H 	0.36340 0.44530 0.45247 0.19400
C 	C 	0.38090 0.43030 0.52997 1.05800
H 	H 	0.35720 0.41300 0.56167 -0.30400
C 	C 	0.42450 0.48940 0.54417 -1.58400
H 	H 	0.40610 0.51080 0.55337 0.46900
H 	H 	0.44960 0.50720 0.51427 0.43700
H 	H 	0.44640 0.48870 0.57417 0.45800
C 	C 	0.40750 0.39400 0.51477 -1.50900
H 	H 	0.37780 0.35620 0.50517 0.47200
H 	H 	0.42860 0.39170 0.54457 0.45100
H 	H 	0.43280 0.41110 0.48487 0.42200
C 	C 	0.21390 0.29360 0.52757 -0.08900
H 	H 	0.19140 0.27600 0.49577 0.01100
H 	H 	0.18750 0.28600 0.55687 0.03400
C 	C 	0.24953 0.26580 0.53998 0.02700
C 	C 	0.27920 0.27740 0.58767 -0.06800
H 	H 	0.27560 0.30090 0.61267 0.05300
C 	C 	0.25370 0.22940 0.50387 -0.07600
H 	H 	0.23330 0.22060 0.47197 0.02900
C 	C 	0.31470 0.25490 0.59927 -0.09500
H 	H 	0.33470 0.26370 0.63127 0.05600
C 	C 	0.28850 0.20540 0.51467 -0.10200
H 	H 	0.29090 0.18080 0.49017 0.04800
C 	C 	0.31960 0.21890 0.56215 0.04200
C 	C 	0.35830 0.19510 0.57417 -0.11700
H 	H 	0.36060 0.17540 0.54267 0.04100
H 	H 	0.39640 0.22660 0.58137 0.04200
C 	C 	0.29990 0.05500 0.59117 0.24300
C 	C 	0.28580 0.10050 0.60987 0.09300
H 	H 	0.26410 0.10660 0.58177 0.00300
C 	C 	0.24840 0.07730 0.65957 -0.65200
H 	H 	0.21990 0.03770 0.65337 0.21900
H 	H 	0.27210 0.07830 0.68917 0.21700
C 	C 	0.50870 0.23170 0.65217 0.21200
C 	C 	0.52490 0.18630 0.63707 0.16500
H 	H 	0.55790 0.20300 0.61287 -0.03300
C 	C 	0.53990 0.16620 0.68827 -0.84800
H 	H 	0.56400 0.19940 0.71017 0.25800
H 	H 	0.50510 0.14250 0.70807 0.25800
C 	C 	0.57080 0.13270 0.67917 1.21700
H 	H 	0.54710 0.10070 0.65527 -0.35100
C 	C 	0.57690 0.10820 0.73087 -1.72000
H 	H 	0.59600 0.08690 0.72457 0.50600
H 	H 	0.53970 0.08330 0.74567 0.48700
H 	H 	0.59870 0.13860 0.75557 0.49400
C 	C 	0.62900 0.16820 0.65307 -1.71100
H 	H 	0.62470 0.18380 0.62007 0.53600
H 	H 	0.64540 0.14450 0.64607 0.52000
H 	H 	0.65370 0.19880 0.67657 0.50200
C 	C 	0.47620 0.14600 0.55007 -0.12100
H 	H 	0.44100 0.11560 0.53477 0.05100
H 	H 	0.47790 0.18200 0.54257 0.03500
C 	C 	0.52570 0.14580 0.52389 0.04400
C 	C 	0.52400 0.09480 0.51199 -0.07500
H 	H 	0.49130 0.06020 0.52007 0.05300
C 	C 	0.57560 0.19680 0.51067 -0.09000
H 	H 	0.57710 0.23150 0.51667 0.03500
O 	O 	0.21089 0.37223 0.42681 -0.41000
O 	O 	0.28493 0.38161 0.38001 -0.36900
O 	O 	0.35104 0.06517 0.59868 -0.36900
O 	O 	0.26140 0.01130 0.57037 -0.24100
O 	O 	0.45530 0.21477 0.65570 -0.36900
O 	O 	0.54780 0.28060 0.66307 -0.25800
Cu	Cu	0.40272 0.13706 0.63370 0.90900
N 	N 	0.24734 0.35546 0.51926 -0.25800
H 	H 	0.26580 0.37330 0.54987 0.10600
N 	N 	0.33944 0.15488 0.62018 -0.25000
H 	H 	0.33490 0.17220 0.64947 0.11300
N 	N 	0.47473 0.13780 0.60978 -0.26000
H 	H 	0.47270 0.10400 0.61787 0.11100
C 	C 	0.18440 0.08510 0.72807 -1.38500
H 	H 	0.16590 0.10620 0.73807 0.52300
H 	H 	0.21010 0.08790 0.75587 0.42900
H 	H 	0.15600 0.04560 0.72277 0.40600
C 	C 	0.21820 0.10990 0.67557 0.83500
H 	H 	0.24300 0.15150 0.67577 -0.18800
C 	C 	0.16640 0.08610 0.63087 -0.02500
H 	H 	0.14390 0.10420 0.63647 0.08800
H 	H 	0.14260 0.04550 0.63457 -0.07200
H 	H 	0.18260 0.09490 0.59567 0.02100
C 	C 	0.18610 0.12540 0.63337 -1.24400
H 	H 	0.16900 0.14500 0.65047 0.33000
H 	H 	0.15680 0.09110 0.61687 0.35100
H 	H 	0.21260 0.14970 0.60657 0.41200
H 	H 	0.18800 0.13500 0.74067 -0.15700
C 	C 	0.37620 0.11630 0.75579 0.25800
C 	C 	0.37260 0.08420 0.80760 0.07700
H 	H 	0.34400 0.04370 0.80320 -0.00400
C 	C 	0.43140 0.09000 0.81850 -0.68200
H 	H 	0.45810 0.12920 0.82850 0.19100
H 	H 	0.44530 0.08190 0.78580 0.19400
C 	C 	0.43030 0.04940 0.86330 1.05800
H 	H 	0.41300 0.05580 0.89500 -0.30400
C 	C 	0.48940 0.06490 0.87750 -1.58400
H 	H 	0.51080 0.10470 0.88670 0.46900
H 	H 	0.50720 0.05760 0.84760 0.43700
H 	H 	0.48870 0.04230 0.90750 0.45800
C 	C 	0.39400 0.98650 0.84810 -1.50900
H 	H 	0.35620 0.97840 0.83850 0.47200
H 	H 	0.39170 0.96310 0.87790 0.45000
H 	H 	0.41110 0.97830 0.81820 0.42200
C 	C 	0.29360 0.07970 0.86090 -0.08900
H 	H 	0.27600 0.08460 0.82910 0.01100
H 	H 	0.28600 0.09850 0.89020 0.03400
C 	C 	0.26580 0.01627 0.87331 0.02700
C 	C 	0.27740 0.99820 0.92100 -0.06800
H 	H 	0.30090 0.02530 0.94600 0.05300
C 	C 	0.22940 0.97570 0.83720 -0.07600
H 	H 	0.22060 0.98730 0.80530 0.02900
C 	C 	0.25490 0.94020 0.93260 -0.09500
H 	H 	0.26370 0.92900 0.96460 0.05600
C 	C 	0.20540 0.91690 0.84800 -0.10200
H 	H 	0.18080 0.88990 0.82350 0.04800
C 	C 	0.21890 0.89930 0.89548 0.04200
C 	C 	0.19510 0.83680 0.90750 -0.11700
H 	H 	0.17540 0.81480 0.87600 0.04100
H 	H 	0.22660 0.83020 0.91470 0.04200
C 	C 	0.05500 0.75510 0.92450 0.24300
C 	C 	0.10050 0.81470 0.94320 0.09300
H 	H 	0.10660 0.84250 0.91510 0.00200
C 	C 	0.07730 0.82890 0.99290 -0.65300
H 	H 	0.03770 0.81780 0.98670 0.22000
H 	H 	0.07830 0.80620 0.02250 0.21700
C 	C 	0.23170 0.72300 0.98550 0.21200
C 	C 	0.18630 0.66140 0.97040 0.16500
H 	H 	0.20300 0.64510 0.94620 -0.03300
C 	C 	0.16620 0.62630 0.02160 -0.85000
H 	H 	0.19940 0.63540 0.04350 0.25900
H 	H 	0.14250 0.63740 0.04140 0.25900
C 	C 	0.13270 0.56190 0.01250 1.22000
H 	H 	0.10070 0.55360 0.98860 -0.35200
C 	C 	0.10820 0.53130 0.06420 -1.72300
H 	H 	0.08690 0.49090 0.05790 0.50700
H 	H 	0.08330 0.54360 0.07900 0.48800
H 	H 	0.13860 0.53990 0.08890 0.49500
C 	C 	0.16820 0.53920 0.98640 -1.71500
H 	H 	0.18380 0.55910 0.95340 0.53700
H 	H 	0.14450 0.49910 0.97940 0.52100
H 	H 	0.19880 0.54510 0.00990 0.50300
C 	C 	0.14600 0.66980 0.88340 -0.12100
H 	H 	0.11560 0.67460 0.86810 0.05100
H 	H 	0.18200 0.70410 0.87590 0.03500
C 	C 	0.14580 0.62010 0.85722 0.04400
C 	C 	0.09480 0.57080 0.84532 -0.07500
H 	H 	0.06020 0.56890 0.85340 0.05300
C 	C 	0.19680 0.62120 0.84400 -0.09000
H 	H 	0.23150 0.65440 0.85000 0.03500
O 	O 	0.37223 0.16134 0.76014 -0.41000
O 	O 	0.38161 0.09668 0.71334 -0.36900
O 	O 	0.06517 0.71413 0.93201 -0.36900
O 	O 	0.01130 0.74990 0.90370 -0.24100
O 	O 	0.21477 0.75947 0.98903 -0.36900
O 	O 	0.28060 0.73280 0.99640 -0.25800
Cu	Cu	0.13706 0.73434 0.96703 0.90900
N 	N 	0.35546 0.10812 0.85259 -0.25800
H 	H 	0.37330 0.10750 0.88320 0.10600
N 	N 	0.15488 0.81544 0.95351 -0.25000
H 	H 	0.17220 0.83730 0.98280 0.11300
N 	N 	0.13780 0.66307 0.94311 -0.26000
H 	H 	0.10400 0.63130 0.95120 0.11100
C 	C 	0.08510 0.90070 0.06140 -1.38700
H 	H 	0.10620 0.94030 0.07140 0.52400
H 	H 	0.08790 0.87780 0.08920 0.42900
H 	H 	0.04560 0.88960 0.05610 0.40700
C 	C 	0.10990 0.89170 0.00890 0.83600
H 	H 	0.15150 0.90850 0.00910 -0.18800
C 	C 	0.08610 0.91970 0.96420 -0.02600
H 	H 	0.10420 0.96030 0.96980 0.08800
H 	H 	0.04550 0.90290 0.96790 -0.07200
H 	H 	0.09490 0.91230 0.92900 0.02100
C 	C 	0.12540 0.93930 0.96670 -1.24600
H 	H 	0.14500 0.97600 0.98380 0.33100
H 	H 	0.09110 0.93430 0.95020 0.35200
H 	H 	0.14970 0.93710 0.93990 0.41200
H 	H 	0.13500 0.94700 0.07400 -0.15800
C 	C 	0.88370 0.25990 0.08912 0.25800
C 	C 	0.91580 0.28840 0.14093 0.07700
H 	H 	0.95630 0.30030 0.13653 -0.00400
C 	C 	0.91000 0.34140 0.15183 -0.68200
H 	H 	0.87080 0.32890 0.16183 0.19100
H 	H 	0.91810 0.36340 0.11913 0.19400
C 	C 	0.95060 0.38090 0.19663 1.05700
H 	H 	0.94420 0.35720 0.22833 -0.30400
C 	C 	0.93510 0.42450 0.21083 -1.58400
H 	H 	0.89530 0.40610 0.22003 0.46900
H 	H 	0.94240 0.44960 0.18093 0.43700
H 	H 	0.95770 0.44640 0.24083 0.45800
C 	C 	0.01350 0.40750 0.18143 -1.50800
H 	H 	0.02160 0.37780 0.17183 0.47200
H 	H 	0.03690 0.42860 0.21123 0.45000
H 	H 	0.02170 0.43280 0.15153 0.42200
C 	C 	0.92030 0.21390 0.19423 -0.08900
H 	H 	0.91540 0.19140 0.16243 0.01100
H 	H 	0.90150 0.18750 0.22353 0.03400
C 	C 	0.98373 0.24953 0.20664 0.02700
C 	C 	0.00180 0.27920 0.25433 -0.06800
H 	H 	0.97470 0.27560 0.27933 0.05300
C 	C 	0.02430 0.25370 0.17053 -0.07600
H 	H 	0.01270 0.23330 0.13863 0.02900
C 	C 	0.05980 0.31470 0.26593 -0.09500
H 	H 	0.07100 0.33470 0.29793 0.05600
C 	C 	0.08310 0.28850 0.18133 -0.10200
H 	H 	0.11010 0.29090 0.15683 0.04800
C 	C 	0.10070 0.31960 0.22881 0.04200
C 	C 	0.16320 0.35830 0.24083 -0.11700
H 	H 	0.18520 0.36060 0.20933 0.04100
H 	H 	0.16980 0.39640 0.24803 0.04200
C 	C 	0.24490 0.29990 0.25783 0.24300
C 	C 	0.18530 0.28580 0.27653 0.09300
H 	H 	0.15750 0.26410 0.24843 0.00300
C 	C 	0.17110 0.24840 0.32623 -0.65200
H 	H 	0.18220 0.21990 0.32003 0.21900
H 	H 	0.19380 0.27210 0.35583 0.21700
C 	C 	0.27700 0.50870 0.31883 0.21200
C 	C 	0.33860 0.52490 0.30373 0.16500
H 	H 	0.35490 0.55790 0.27953 -0.03300
C 	C 	0.37370 0.53990 0.35493 -0.84800
H 	H 	0.36460 0.56400 0.37683 0.25800
H 	H 	0.36260 0.50510 0.37473 0.25800
C 	C 	0.43810 0.57080 0.34583 1.21700
H 	H 	0.44640 0.54710 0.32193 -0.35100
C 	C 	0.46870 0.57690 0.39753 -1.72000
H 	H 	0.50910 0.59600 0.39123 0.50600
H 	H 	0.45640 0.53970 0.41233 0.48700
H 	H 	0.46010 0.59870 0.42223 0.49400
C 	C 	0.46080 0.62900 0.31973 -1.71100
H 	H 	0.44090 0.62470 0.28673 0.53600
H 	H 	0.50090 0.64540 0.31273 0.52000
H 	H 	0.45490 0.65370 0.34323 0.50200
C 	C 	0.33020 0.47620 0.21673 -0.12100
H 	H 	0.32540 0.44100 0.20143 0.05100
H 	H 	0.29590 0.47790 0.20923 0.03500
C 	C 	0.37990 0.52570 0.19055 0.04400
C 	C 	0.42920 0.52400 0.17865 -0.07500
H 	H 	0.43110 0.49130 0.18673 0.05300
C 	C 	0.37880 0.57560 0.17733 -0.09000
H 	H 	0.34560 0.57710 0.18333 0.03500
O 	O 	0.83866 0.21089 0.09347 -0.41000
O 	O 	0.90332 0.28493 0.04667 -0.36900
O 	O 	0.28587 0.35104 0.26534 -0.36900
O 	O 	0.25010 0.26140 0.23703 -0.24100
O 	O 	0.24053 0.45530 0.32236 -0.36900
O 	O 	0.26720 0.54780 0.32973 -0.25800
Cu	Cu	0.26566 0.40272 0.30036 0.90900
N 	N 	0.89188 0.24734 0.18592 -0.25800
H 	H 	0.89250 0.26580 0.21653 0.10600
N 	N 	0.18456 0.33944 0.28684 -0.25000
H 	H 	0.16270 0.33490 0.31613 0.11300
N 	N 	0.33693 0.47473 0.27644 -0.26000
H 	H 	0.36870 0.47270 0.28453 0.11100
C 	C 	0.09930 0.18440 0.39473 -1.38600
H 	H 	0.05970 0.16590 0.40473 0.52300
H 	H 	0.12220 0.21010 0.42253 0.42900
H 	H 	0.11040 0.15600 0.38943 0.40600
C 	C 	0.10830 0.21820 0.34223 0.83500
H 	H 	0.09150 0.24300 0.34243 -0.18800
C 	C 	0.08030 0.16640 0.29753 -0.02500
H 	H 	0.03970 0.14390 0.30313 0.08800
H 	H 	0.09710 0.14260 0.30123 -0.07200
H 	H 	0.08770 0.18260 0.26233 0.02100
C 	C 	0.06070 0.18610 0.30003 -1.24400
H 	H 	0.02400 0.16900 0.31713 0.33000
H 	H 	0.06570 0.15680 0.28353 0.35100
H 	H 	0.06290 0.21260 0.27323 0.41200
H 	H 	0.05300 0.18800 0.40733 -0.15700
C 	C 	0.74010 0.62380 0.42246 0.25800
C 	C 	0.71160 0.62740 0.47427 0.07700
H 	H 	0.69970 0.65600 0.46987 -0.00400
C 	C 	0.65860 0.56860 0.48517 -0.68200
H 	H 	0.67110 0.54190 0.49517 0.19100
H 	H 	0.63660 0.55470 0.45247 0.19400
C 	C 	0.61910 0.56970 0.52997 1.05800
H 	H 	0.64280 0.58700 0.56167 -0.30400
C 	C 	0.57550 0.51060 0.54417 -1.58400
H 	H 	0.59390 0.48920 0.55337 0.46900
H 	H 	0.55040 0.49280 0.51427 0.43700
H 	H 	0.55360 0.51130 0.57417 0.45800
C 	C 	0.59250 0.60600 0.51477 -1.50900
H 	H 	0.62220 0.64380 0.50517 0.47200
H 	H 	0.57140 0.60830 0.54457 0.45100
H 	H 	0.56720 0.58890 0.48487 0.42200
C 	C 	0.78610 0.70640 0.52757 -0.08900
H 	H 	0.80860 0.72400 0.49577 0.01100
H 	H 	0.81250 0.71400 0.55687 0.03400
C 	C 	0.75047 0.73420 0.53998 0.02700
C 	C 	0.72080 0.72260 0.58767 -0.06800
H 	H 	0.72440 0.69910 0.61267 0.05300
C 	C 	0.74630 0.77060 0.50387 -0.07600
H 	H 	0.76670 0.77940 0.47197 0.02900
C 	C 	0.68530 0.74510 0.59927 -0.09500
H 	H 	0.66530 0.73630 0.63127 0.05600
C 	C 	0.71150 0.79460 0.51467 -0.10200
H 	H 	0.70910 0.81920 0.49017 0.04800
C 	C 	0.68040 0.78110 0.56215 0.04200
C 	C 	0.64170 0.80490 0.57417 -0.11700
H 	H 	0.63940 0.82460 0.54267 0.04100
H 	H 	0.60360 0.77340 0.58137 0.04200
C 	C 	0.70010 0.94500 0.59117 0.24300
C 	C 	0.71420 0.89950 0.60987 0.09300
H 	H 	0.73590 0.89340 0.58177 0.00300
C 	C 	0.75160 0.92270 0.65957 -0.65200
H 	H 	0.78010 0.96230 0.65337 0.21900
H 	H 	0.72790 0.92170 0.68917 0.21700
C 	C 	0.49130 0.76830 0.65217 0.21200
C 	C 	0.47510 0.81370 0.63707 0.16500
H 	H 	0.44210 0.79700 0.61287 -0.03300
C 	C 	0.46010 0.83380 0.68827 -0.84800
H 	H 	0.43600 0.80060 0.71017 0.25800
H 	H 	0.49490 0.85750 0.70807 0.25800
C 	C 	0.42920 0.86730 0.67917 1.21700
H 	H 	0.45290 0.89930 0.65527 -0.35100
C 	C 	0.42310 0.89180 0.73087 -1.72000
H 	H 	0.40400 0.91310 0.72457 0.50600
H 	H 	0.46030 0.91670 0.74567 0.48700
H 	H 	0.40130 0.86140 0.75557 0.49400
C 	C 	0.37100 0.83180 0.65307 -1.71100
H 	H 	0.37530 0.81620 0.62007 0.53600
H 	H 	0.35460 0.85550 0.64607 0.52000
H 	H 	0.34630 0.80120 0.67657 0.50200
C 	C 	0.52380 0.85400 0.55007 -0.12100
H 	H 	0.55900 0.88440 0.53477 0.05100
H 	H 	0.52210 0.81800 0.54257 0.03500
C 	C 	0.47430 0.85420 0.52389 0.04400
C 	C 	0.47600 0.90520 0.51199 -0.07500
H 	H 	0.50870 0.93980 0.52007 0.05300
C 	C 	0.42440 0.80320 0.51067 -0.09000
H 	H 	0.42290 0.76850 0.51667 0.03500
O 	O 	0.78911 0.62777 0.42681 -0.41000
O 	O 	0.71507 0.61839 0.38001 -0.36900
O 	O 	0.64896 0.93483 0.59868 -0.36900
O 	O 	0.73860 0.98870 0.57037 -0.24100
O 	O 	0.54470 0.78523 0.65570 -0.36900
O 	O 	0.45220 0.71940 0.66307 -0.25800
Cu	Cu	0.59728 0.86294 0.63370 0.90900
N 	N 	0.75266 0.64454 0.51926 -0.25800
H 	H 	0.73420 0.62670 0.54987 0.10600
N 	N 	0.66056 0.84512 0.62018 -0.25000
H 	H 	0.66510 0.82780 0.64947 0.11300
N 	N 	0.52527 0.86220 0.60978 -0.26000
H 	H 	0.52730 0.89600 0.61787 0.11100
C 	C 	0.81560 0.91490 0.72807 -1.38500
H 	H 	0.83410 0.89380 0.73807 0.52300
H 	H 	0.78990 0.91210 0.75587 0.42900
H 	H 	0.84400 0.95440 0.72277 0.40600
C 	C 	0.78180 0.89010 0.67557 0.83500
H 	H 	0.75700 0.84850 0.67577 -0.18800
C 	C 	0.83360 0.91390 0.63087 -0.02500
H 	H 	0.85610 0.89580 0.63647 0.08800
H 	H 	0.85740 0.95450 0.63457 -0.07200
H 	H 	0.81740 0.90510 0.59567 0.02100
C 	C 	0.81390 0.87460 0.63337 -1.24400
H 	H 	0.83100 0.85500 0.65047 0.33000
H 	H 	0.84320 0.90890 0.61687 0.35100
H 	H 	0.78740 0.85030 0.60657 0.41200
H 	H 	0.81200 0.86500 0.74067 -0.15700
C 	C 	0.88370 0.62380 0.57754 0.25800
C 	C 	0.91580 0.62740 0.52573 0.07700
H 	H 	0.95630 0.65600 0.53013 -0.00400
C 	C 	0.91000 0.56860 0.51483 -0.68200
H 	H 	0.87080 0.54190 0.50483 0.19100
H 	H 	0.91810 0.55470 0.54753 0.19400
C 	C 	0.95060 0.56970 0.47003 1.05800
H 	H 	0.94420 0.58700 0.43833 -0.30400
C 	C 	0.93510 0.51060 0.45583 -1.58400
H 	H 	0.89530 0.48920 0.44663 0.46900
H 	H 	0.94240 0.49280 0.48573 0.43700
H 	H 	0.95770 0.51130 0.42583 0.45800
C 	C 	0.01350 0.60600 0.48523 -1.50900
H 	H 	0.02160 0.64380 0.49483 0.47200
H 	H 	0.03690 0.60830 0.45543 0.45100
H 	H 	0.02170 0.58890 0.51513 0.42200
C 	C 	0.92030 0.70640 0.47243 -0.08900
H 	H 	0.91540 0.72400 0.50423 0.01100
H 	H 	0.90150 0.71400 0.44313 0.03400
C 	C 	0.98373 0.73420 0.46002 0.02700
C 	C 	0.00180 0.72260 0.41233 -0.06800
H 	H 	0.97470 0.69910 0.38733 0.05300
C 	C 	0.02430 0.77060 0.49613 -0.07600
H 	H 	0.01270 0.77940 0.52803 0.02900
C 	C 	0.05980 0.74510 0.40073 -0.09500
H 	H 	0.07100 0.73630 0.36873 0.05600
C 	C 	0.08310 0.79460 0.48533 -0.10200
H 	H 	0.11010 0.81920 0.50983 0.04800
C 	C 	0.10070 0.78110 0.43785 0.04200
C 	C 	0.16320 0.80490 0.42583 -0.11700
H 	H 	0.18520 0.82460 0.45733 0.04100
H 	H 	0.16980 0.77340 0.41863 0.04200
C 	C 	0.24490 0.94500 0.40883 0.24300
C 	C 	0.18530 0.89950 0.39013 0.09300
H 	H 	0.15750 0.89340 0.41823 0.00300
C 	C 	0.17110 0.92270 0.34043 -0.65200
H 	H 	0.18220 0.96230 0.34663 0.21900
H 	H 	0.19380 0.92170 0.31083 0.21700
C 	C 	0.27700 0.76830 0.34783 0.21200
C 	C 	0.33860 0.81370 0.36293 0.16500
H 	H 	0.35490 0.79700 0.38713 -0.03300
C 	C 	0.37370 0.83380 0.31173 -0.84800
H 	H 	0.36460 0.80060 0.28983 0.25800
H 	H 	0.36260 0.85750 0.29193 0.25800
C 	C 	0.43810 0.86730 0.32083 1.21700
H 	H 	0.44640 0.89930 0.34473 -0.35100
C 	C 	0.46870 0.89180 0.26913 -1.72000
H 	H 	0.50910 0.91310 0.27543 0.50600
H 	H 	0.45640 0.91670 0.25433 0.48700
H 	H 	0.46010 0.86140 0.24443 0.49400
C 	C 	0.46080 0.83180 0.34693 -1.71100
H 	H 	0.44090 0.81620 0.37993 0.53600
H 	H 	0.50090 0.85550 0.35393 0.52000
H 	H 	0.45490 0.80120 0.32343 0.50200
C 	C 	0.33020 0.85400 0.44993 -0.12100
H 	H 	0.32540 0.88440 0.46523 0.05100
H 	H 	0.29590 0.81800 0.45743 0.03500
C 	C 	0.37990 0.85420 0.47611 0.04400
C 	C 	0.42920 0.90520 0.48801 -0.07500
H 	H 	0.43110 0.93980 0.47993 0.05300
C 	C 	0.37880 0.80320 0.48933 -0.09000
H 	H 	0.34560 0.76850 0.48333 0.03500
O 	O 	0.83866 0.62777 0.57319 -0.41000
O 	O 	0.90332 0.61839 0.61999 -0.36900
O 	O 	0.28587 0.93483 0.40132 -0.36900
O 	O 	0.25010 0.98870 0.42963 -0.24100
O 	O 	0.24053 0.78523 0.34430 -0.36900
O 	O 	0.26720 0.71940 0.33693 -0.25800
Cu	Cu	0.26566 0.86294 0.36630 0.90900
N 	N 	0.89188 0.64454 0.48074 -0.25800
H 	H 	0.89250 0.62670 0.45013 0.10600
N 	N 	0.18456 0.84512 0.37982 -0.25000
H 	H 	0.16270 0.82780 0.35053 0.11300
N 	N 	0.33693 0.86220 0.39022 -0.26000
H 	H 	0.36870 0.89600 0.38213 0.11100
C 	C 	0.09930 0.91490 0.27193 -1.38500
H 	H 	0.05970 0.89380 0.26193 0.52300
H 	H 	0.12220 0.91210 0.24413 0.42900
H 	H 	0.11040 0.95440 0.27723 0.40600
C 	C 	0.10830 0.89010 0.32443 0.83500
H 	H 	0.09150 0.84850 0.32423 -0.18800
C 	C 	0.08030 0.91390 0.36913 -0.02500
H 	H 	0.03970 0.89580 0.36353 0.08800
H 	H 	0.09710 0.95450 0.36543 -0.07200
H 	H 	0.08770 0.90510 0.40433 0.02100
C 	C 	0.06070 0.87460 0.36663 -1.24400
H 	H 	0.02400 0.85500 0.34953 0.33000
H 	H 	0.06570 0.90890 0.38313 0.35100
H 	H 	0.06290 0.85030 0.39343 0.41200
H 	H 	0.05300 0.86500 0.25933 -0.15700
C 	C 	0.74010 0.11630 0.24421 0.25800
C 	C 	0.71160 0.08420 0.19240 0.07700
H 	H 	0.69970 0.04370 0.19680 -0.00400
C 	C 	0.65860 0.09000 0.18150 -0.68200
H 	H 	0.67110 0.12920 0.17150 0.19100
H 	H 	0.63660 0.08190 0.21420 0.19400
C 	C 	0.61910 0.04940 0.13670 1.05800
H 	H 	0.64280 0.05580 0.10500 -0.30400
C 	C 	0.57550 0.06490 0.12250 -1.58400
H 	H 	0.59390 0.10470 0.11330 0.46900
H 	H 	0.55040 0.05760 0.15240 0.43700
H 	H 	0.55360 0.04230 0.09250 0.45800
C 	C 	0.59250 0.98650 0.15190 -1.50900
H 	H 	0.62220 0.97840 0.16150 0.47200
H 	H 	0.57140 0.96310 0.12210 0.45100
H 	H 	0.56720 0.97830 0.18180 0.42200
C 	C 	0.78610 0.07970 0.13910 -0.08900
H 	H 	0.80860 0.08460 0.17090 0.01100
H 	H 	0.81250 0.09850 0.10980 0.03400
C 	C 	0.75047 0.01627 0.12669 0.02700
C 	C 	0.72080 0.99820 0.07900 -0.06800
H 	H 	0.72440 0.02530 0.05400 0.05300
C 	C 	0.74630 0.97570 0.16280 -0.07600
H 	H 	0.76670 0.98730 0.19470 0.02900
C 	C 	0.68530 0.94020 0.06740 -0.09500
H 	H 	0.66530 0.92900 0.03540 0.05600
C 	C 	0.71150 0.91690 0.15200 -0.10200
H 	H 	0.70910 0.88990 0.17650 0.04800
C 	C 	0.68040 0.89930 0.10452 0.04200
C 	C 	0.64170 0.83680 0.09250 -0.11700
H 	H 	0.63940 0.81480 0.12400 0.04100
H 	H 	0.60360 0.83020 0.08530 0.04200
C 	C 	0.70010 0.75510 0.07550 0.24300
C 	C 	0.71420 0.81470 0.05680 0.09200
H 	H 	0.73590 0.84250 0.08490 0.00300
C 	C 	0.75160 0.82890 0.00710 -0.65000
H 	H 	0.78010 0.81780 0.01330 0.21900
H 	H 	0.72790 0.80620 0.97750 0.21600
C 	C 	0.49130 0.72300 0.01450 0.21200
C 	C 	0.47510 0.66140 0.02960 0.16400
H 	H 	0.44210 0.64510 0.05380 -0.03300
C 	C 	0.46010 0.62630 0.97840 -0.84700
H 	H 	0.43600 0.63540 0.95650 0.25800
H 	H 	0.49490 0.63740 0.95860 0.25800
C 	C 	0.42920 0.56190 0.98750 1.21400
H 	H 	0.45290 0.55360 0.01140 -0.35000
C 	C 	0.42310 0.53130 0.93580 -1.71600
H 	H 	0.40400 0.49090 0.94210 0.50500
H 	H 	0.46030 0.54360 0.92100 0.48600
H 	H 	0.40130 0.53990 0.91110 0.49300
C 	C 	0.37100 0.53920 0.01360 -1.70700
H 	H 	0.37530 0.55910 0.04660 0.53500
H 	H 	0.35460 0.49910 0.02060 0.51900
H 	H 	0.34630 0.54510 0.99010 0.50000
C 	C 	0.52380 0.66980 0.11660 -0.12100
H 	H 	0.55900 0.67460 0.13190 0.05100
H 	H 	0.52210 0.70410 0.12410 0.03500
C 	C 	0.47430 0.62010 0.14278 0.04400
C 	C 	0.47600 0.57080 0.15468 -0.07500
H 	H 	0.50870 0.56890 0.14660 0.05300
C 	C 	0.42440 0.62120 0.15600 -0.09000
H 	H 	0.42290 0.65440 0.15000 0.03500
O 	O 	0.78911 0.16134 0.23986 -0.41000
O 	O 	0.71507 0.09668 0.28666 -0.36900
O 	O 	0.64896 0.71413 0.06799 -0.36900
O 	O 	0.73860 0.74990 0.09630 -0.24100
O 	O 	0.54470 0.75947 0.01097 -0.36900
O 	O 	0.45220 0.73280 0.00360 -0.25800
Cu	Cu	0.59728 0.73434 0.03297 0.90900
N 	N 	0.75266 0.10812 0.14741 -0.25800
H 	H 	0.73420 0.10750 0.11680 0.10600
N 	N 	0.66056 0.81544 0.04649 -0.24900
H 	H 	0.66510 0.83730 0.01720 0.11300
N 	N 	0.52527 0.66307 0.05689 -0.26000
H 	H 	0.52730 0.63130 0.04880 0.11100
C 	C 	0.81560 0.90070 0.93860 -1.38300
H 	H 	0.83410 0.94030 0.92860 0.52200
H 	H 	0.78990 0.87780 0.91080 0.42800
H 	H 	0.84400 0.88960 0.94390 0.40600
C 	C 	0.78180 0.89170 0.99110 0.83200
H 	H 	0.75700 0.90850 0.99090 -0.18700
C 	C 	0.83360 0.91970 0.03580 -0.02500
H 	H 	0.85610 0.96030 0.03020 0.08800
H 	H 	0.85740 0.90290 0.03210 -0.07100
H 	H 	0.81740 0.91230 0.07100 0.02000
C 	C 	0.81390 0.93930 0.03330 -1.24200
H 	H 	0.83100 0.97600 0.01620 0.32900
H 	H 	0.84320 0.93430 0.04980 0.35000
H 	H 	0.78740 0.93710 0.06010 0.41100
H 	H 	0.81200 0.94700 0.92600 -0.15700
C 	C 	0.37620 0.25990 0.91088 0.25800
C 	C 	0.37260 0.28840 0.85907 0.07700
H 	H 	0.34400 0.30030 0.86347 -0.00400
C 	C 	0.43140 0.34140 0.84817 -0.68200
H 	H 	0.45810 0.32890 0.83817 0.19200
H 	H 	0.44530 0.36340 0.88087 0.19400
C 	C 	0.43030 0.38090 0.80337 1.05800
H 	H 	0.41300 0.35720 0.77167 -0.30400
C 	C 	0.48940 0.42450 0.78917 -1.58500
H 	H 	0.51080 0.40610 0.77997 0.46900
H 	H 	0.50720 0.44960 0.81907 0.43700
H 	H 	0.48870 0.44640 0.75917 0.45800
C 	C 	0.39400 0.40750 0.81857 -1.50900
H 	H 	0.35620 0.37780 0.82817 0.47200
H 	H 	0.39170 0.42860 0.78877 0.45100
H 	H 	0.41110 0.43280 0.84847 0.42300
C 	C 	0.29360 0.21390 0.80577 -0.08900
H 	H 	0.27600 0.19140 0.83757 0.01100
H 	H 	0.28600 0.18750 0.77647 0.03400
C 	C 	0.26580 0.24953 0.79336 0.02700
C 	C 	0.27740 0.27920 0.74567 -0.06800
H 	H 	0.30090 0.27560 0.72067 0.05300
C 	C 	0.22940 0.25370 0.82947 -0.07600
H 	H 	0.22060 0.23330 0.86137 0.02900
C 	C 	0.25490 0.31470 0.73407 -0.09400
H 	H 	0.26370 0.33470 0.70207 0.05600
C 	C 	0.20540 0.28850 0.81867 -0.10200
H 	H 	0.18080 0.29090 0.84317 0.04800
C 	C 	0.21890 0.31960 0.77119 0.04200
C 	C 	0.19510 0.35830 0.75917 -0.11700
H 	H 	0.17540 0.36060 0.79067 0.04100
H 	H 	0.22660 0.39640 0.75197 0.04200
C 	C 	0.05500 0.29990 0.74217 0.24300
C 	C 	0.10050 0.28580 0.72347 0.09300
H 	H 	0.10660 0.26410 0.75157 0.00300
C 	C 	0.07730 0.24840 0.67377 -0.65200
H 	H 	0.03770 0.21990 0.67997 0.21900
H 	H 	0.07830 0.27210 0.64417 0.21700
C 	C 	0.23170 0.50870 0.68117 0.21200
C 	C 	0.18630 0.52490 0.69627 0.16500
H 	H 	0.20300 0.55790 0.72047 -0.03300
C 	C 	0.16620 0.53990 0.64507 -0.84800
H 	H 	0.19940 0.56400 0.62317 0.25800
H 	H 	0.14250 0.50510 0.62527 0.25800
C 	C 	0.13270 0.57080 0.65417 1.21700
H 	H 	0.10070 0.54710 0.67807 -0.35100
C 	C 	0.10820 0.57690 0.60247 -1.72000
H 	H 	0.08690 0.59600 0.60877 0.50600
H 	H 	0.08330 0.53970 0.58767 0.48700
H 	H 	0.13860 0.59870 0.57777 0.49400
C 	C 	0.16820 0.62900 0.68027 -1.71100
H 	H 	0.18380 0.62470 0.71327 0.53600
H 	H 	0.14450 0.64540 0.68727 0.52000
H 	H 	0.19880 0.65370 0.65677 0.50200
C 	C 	0.14600 0.47620 0.78327 -0.12100
H 	H 	0.11560 0.44100 0.79857 0.05100
H 	H 	0.18200 0.47790 0.79077 0.03500
C 	C 	0.14580 0.52570 0.80945 0.04400
C 	C 	0.09480 0.52400 0.82135 -0.07500
H 	H 	0.06020 0.49130 0.81327 0.05300
C 	C 	0.19680 0.57560 0.82267 -0.09000
H 	H 	0.23150 0.57710 0.81667 0.03500
O 	O 	0.37223 0.21089 0.90653 -0.41000
O 	O 	0.38161 0.28493 0.95333 -0.36900
O 	O 	0.06517 0.35104 0.73466 -0.36900
O 	O 	0.01130 0.26140 0.76297 -0.24100
O 	O 	0.21477 0.45530 0.67764 -0.36900
O 	O 	0.28060 0.54780 0.67027 -0.25800
Cu	Cu	0.13706 0.40272 0.69964 0.90900
N 	N 	0.35546 0.24734 0.81408 -0.25800
H 	H 	0.37330 0.26580 0.78347 0.10600
N 	N 	0.15488 0.33944 0.71316 -0.25000
H 	H 	0.17220 0.33490 0.68387 0.11300
N 	N 	0.13780 0.47473 0.72356 -0.26000
H 	H 	0.10400 0.47270 0.71547 0.11100
C 	C 	0.08510 0.18440 0.60527 -1.38500
H 	H 	0.10620 0.16590 0.59527 0.52300
H 	H 	0.08790 0.21010 0.57747 0.42900
H 	H 	0.04560 0.15600 0.61057 0.40600
C 	C 	0.10990 0.21820 0.65777 0.83500
H 	H 	0.15150 0.24300 0.65757 -0.18800
C 	C 	0.08610 0.16640 0.70247 -0.02500
H 	H 	0.10420 0.14390 0.69687 0.08800
H 	H 	0.04550 0.14260 0.69877 -0.07200
H 	H 	0.09490 0.18260 0.73767 0.02100
C 	C 	0.12540 0.18610 0.69997 -1.24400
H 	H 	0.14500 0.16900 0.68287 0.33000
H 	H 	0.09110 0.15680 0.71647 0.35100
H 	H 	0.14970 0.21260 0.72677 0.41200
H 	H 	0.13500 0.18800 0.59267 -0.15700
C 	C 	0.11630 0.37620 0.57754 0.25800
C 	C 	0.08420 0.37260 0.52573 0.07700
H 	H 	0.04370 0.34400 0.53013 -0.00400
C 	C 	0.09000 0.43140 0.51483 -0.68200
H 	H 	0.12920 0.45810 0.50483 0.19100
H 	H 	0.08190 0.44530 0.54753 0.19400
C 	C 	0.04940 0.43030 0.47003 1.05800
H 	H 	0.05580 0.41300 0.43833 -0.30400
C 	C 	0.06490 0.48940 0.45583 -1.58400
H 	H 	0.10470 0.51080 0.44663 0.46900
H 	H 	0.05760 0.50720 0.48573 0.43700
H 	H 	0.04230 0.48870 0.42583 0.45800
C 	C 	0.98650 0.39400 0.48523 -1.50900
H 	H 	0.97840 0.35620 0.49483 0.47200
H 	H 	0.96310 0.39170 0.45543 0.45100
H 	H 	0.97830 0.41110 0.51513 0.42200
C 	C 	0.07970 0.29360 0.47243 -0.08900
H 	H 	0.08460 0.27600 0.50423 0.01100
H 	H 	0.09850 0.28600 0.44313 0.03400
C 	C 	0.01627 0.26580 0.46002 0.02700
C 	C 	0.99820 0.27740 0.41233 -0.06800
H 	H 	0.02530 0.30090 0.38733 0.05300
C 	C 	0.97570 0.22940 0.49613 -0.07600
H 	H 	0.98730 0.22060 0.52803 0.02900
C 	C 	0.94020 0.25490 0.40073 -0.09500
H 	H 	0.92900 0.26370 0.36873 0.05600
C 	C 	0.91690 0.20540 0.48533 -0.10200
H 	H 	0.88990 0.18080 0.50983 0.04800
C 	C 	0.89930 0.21890 0.43785 0.04200
C 	C 	0.83680 0.19510 0.42583 -0.11700
H 	H 	0.81480 0.17540 0.45733 0.04100
H 	H 	0.83020 0.22660 0.41863 0.04200
C 	C 	0.75510 0.05500 0.40883 0.24300
C 	C 	0.81470 0.10050 0.39013 0.09300
H 	H 	0.84250 0.10660 0.41823 0.00300
C 	C 	0.82890 0.07730 0.34043 -0.65200
H 	H 	0.81780 0.03770 0.34663 0.21900
H 	H 	0.80620 0.07830 0.31083 0.21700
C 	C 	0.72300 0.23170 0.34783 0.21200
C 	C 	0.66140 0.18630 0.36293 0.16500
H 	H 	0.64510 0.20300 0.38713 -0.03300
C 	C 	0.62630 0.16620 0.31173 -0.84800
H 	H 	0.63540 0.19940 0.28983 0.25800
H 	H 	0.63740 0.14250 0.29193 0.25800
C 	C 	0.56190 0.13270 0.32083 1.21700
H 	H 	0.55360 0.10070 0.34473 -0.35100
C 	C 	0.53130 0.10820 0.26913 -1.72000
H 	H 	0.49090 0.08690 0.27543 0.50600
H 	H 	0.54360 0.08330 0.25433 0.48700
H 	H 	0.53990 0.13860 0.24443 0.49400
C 	C 	0.53920 0.16820 0.34693 -1.71100
H 	H 	0.55910 0.18380 0.37993 0.53600
H 	H 	0.49910 0.14450 0.35393 0.52000
H 	H 	0.54510 0.19880 0.32343 0.50200
C 	C 	0.66980 0.14600 0.44993 -0.12100
H 	H 	0.67460 0.11560 0.46523 0.05100
H 	H 	0.70410 0.18200 0.45743 0.03500
C 	C 	0.62010 0.14580 0.47611 0.04400
C 	C 	0.57080 0.09480 0.48801 -0.07500
H 	H 	0.56890 0.06020 0.47993 0.05300
C 	C 	0.62120 0.19680 0.48933 -0.09000
H 	H 	0.65440 0.23150 0.48333 0.03500
O 	O 	0.16134 0.37223 0.57319 -0.41000
O 	O 	0.09668 0.38161 0.61999 -0.36900
O 	O 	0.71413 0.06517 0.40132 -0.36900
O 	O 	0.74990 0.01130 0.42963 -0.24100
O 	O 	0.75947 0.21477 0.34430 -0.36900
O 	O 	0.73280 0.28060 0.33693 -0.25800
Cu	Cu	0.73434 0.13706 0.36630 0.90900
N 	N 	0.10812 0.35546 0.48074 -0.25800
H 	H 	0.10750 0.37330 0.45013 0.10600
N 	N 	0.81544 0.15488 0.37982 -0.25000
H 	H 	0.83730 0.17220 0.35053 0.11300
N 	N 	0.66307 0.13780 0.39022 -0.26000
H 	H 	0.63130 0.10400 0.38213 0.11100
C 	C 	0.90070 0.08510 0.27193 -1.38500
H 	H 	0.94030 0.10620 0.26193 0.52300
H 	H 	0.87780 0.08790 0.24413 0.42900
H 	H 	0.88960 0.04560 0.27723 0.40600
C 	C 	0.89170 0.10990 0.32443 0.83500
H 	H 	0.90850 0.15150 0.32423 -0.18800
C 	C 	0.91970 0.08610 0.36913 -0.02500
H 	H 	0.96030 0.10420 0.36353 0.08800
H 	H 	0.90290 0.04550 0.36543 -0.07200
H 	H 	0.91230 0.09490 0.40433 0.02100
C 	C 	0.93930 0.12540 0.36663 -1.24400
H 	H 	0.97600 0.14500 0.34953 0.33000
H 	H 	0.93430 0.09110 0.38313 0.35100
H 	H 	0.93710 0.14970 0.39343 0.41200
H 	H 	0.94700 0.13500 0.25933 -0.15700
C 	C 	0.25990 0.88370 0.24421 0.25800
C 	C 	0.28840 0.91580 0.19240 0.07700
H 	H 	0.30030 0.95630 0.19680 -0.00400
C 	C 	0.34140 0.91000 0.18150 -0.68200
H 	H 	0.32890 0.87080 0.17150 0.19100
H 	H 	0.36340 0.91810 0.21420 0.19400
C 	C 	0.38090 0.95060 0.13670 1.05800
H 	H 	0.35720 0.94420 0.10500 -0.30400
C 	C 	0.42450 0.93510 0.12250 -1.58400
H 	H 	0.40610 0.89530 0.11330 0.46900
H 	H 	0.44960 0.94240 0.15240 0.43700
H 	H 	0.44640 0.95770 0.09250 0.45800
C 	C 	0.40750 0.01350 0.15190 -1.50900
H 	H 	0.37780 0.02160 0.16150 0.47200
H 	H 	0.42860 0.03690 0.12210 0.45100
H 	H 	0.43280 0.02170 0.18180 0.42200
C 	C 	0.21390 0.92030 0.13910 -0.08900
H 	H 	0.19140 0.91540 0.17090 0.01100
H 	H 	0.18750 0.90150 0.10980 0.03400
C 	C 	0.24953 0.98373 0.12669 0.02700
C 	C 	0.27920 0.00180 0.07900 -0.06800
H 	H 	0.27560 0.97470 0.05400 0.05300
C 	C 	0.25370 0.02430 0.16280 -0.07600
H 	H 	0.23330 0.01270 0.19470 0.02900
C 	C 	0.31470 0.05980 0.06740 -0.09500
H 	H 	0.33470 0.07100 0.03540 0.05600
C 	C 	0.28850 0.08310 0.15200 -0.10200
H 	H 	0.29090 0.11010 0.17650 0.04800
C 	C 	0.31960 0.10070 0.10452 0.04200
C 	C 	0.35830 0.16320 0.09250 -0.11700
H 	H 	0.36060 0.18520 0.12400 0.04100
H 	H 	0.39640 0.16980 0.08530 0.04200
C 	C 	0.29990 0.24490 0.07550 0.24300
C 	C 	0.28580 0.18530 0.05680 0.09200
H 	H 	0.26410 0.15750 0.08490 0.00300
C 	C 	0.24840 0.17110 0.00710 -0.65000
H 	H 	0.21990 0.18220 0.01330 0.21900
H 	H 	0.27210 0.19380 0.97750 0.21600
C 	C 	0.50870 0.27700 0.01450 0.21200
C 	C 	0.52490 0.33860 0.02960 0.16400
H 	H 	0.55790 0.35490 0.05380 -0.03300
C 	C 	0.53990 0.37370 0.97840 -0.84700
H 	H 	0.56400 0.36460 0.95650 0.25800
H 	H 	0.50510 0.36260 0.95860 0.25800
C 	C 	0.57080 0.43810 0.98750 1.21400
H 	H 	0.54710 0.44640 0.01140 -0.35000
C 	C 	0.57690 0.46870 0.93580 -1.71600
H 	H 	0.59600 0.50910 0.94210 0.50500
H 	H 	0.53970 0.45640 0.92100 0.48600
H 	H 	0.59870 0.46010 0.91110 0.49300
C 	C 	0.62900 0.46080 0.01360 -1.70700
H 	H 	0.62470 0.44090 0.04660 0.53500
H 	H 	0.64540 0.50090 0.02060 0.51900
H 	H 	0.65370 0.45490 0.99010 0.50000
C 	C 	0.47620 0.33020 0.11660 -0.12100
H 	H 	0.44100 0.32540 0.13190 0.05100
H 	H 	0.47790 0.29590 0.12410 0.03500
C 	C 	0.52570 0.37990 0.14278 0.04400
C 	C 	0.52400 0.42920 0.15468 -0.07500
H 	H 	0.49130 0.43110 0.14660 0.05300
C 	C 	0.57560 0.37880 0.15600 -0.09000
H 	H 	0.57710 0.34560 0.15000 0.03500
O 	O 	0.21089 0.83866 0.23986 -0.41000
O 	O 	0.28493 0.90332 0.28666 -0.36900
O 	O 	0.35104 0.28587 0.06799 -0.36900
O 	O 	0.26140 0.25010 0.09630 -0.24100
O 	O 	0.45530 0.24053 0.01097 -0.36900
O 	O 	0.54780 0.26720 0.00360 -0.25800
Cu	Cu	0.40272 0.26566 0.03297 0.90900
N 	N 	0.24734 0.89188 0.14741 -0.25800
H 	H 	0.26580 0.89250 0.11680 0.10600
N 	N 	0.33944 0.18456 0.04649 -0.24900
H 	H 	0.33490 0.16270 0.01720 0.11300
N 	N 	0.47473 0.33693 0.05689 -0.26000
H 	H 	0.47270 0.36870 0.04880 0.11100
C 	C 	0.18440 0.09930 0.93860 -1.38300
H 	H 	0.16590 0.05970 0.92860 0.52200
H 	H 	0.21010 0.12220 0.91080 0.42800
H 	H 	0.15600 0.11040 0.94390 0.40600
C 	C 	0.21820 0.10830 0.99110 0.83200
H 	H 	0.24300 0.09150 0.99090 -0.18700
C 	C 	0.16640 0.08030 0.03580 -0.02500
H 	H 	0.14390 0.03970 0.03020 0.08800
H 	H 	0.14260 0.09710 0.03210 -0.07100
H 	H 	0.18260 0.08770 0.07100 0.02000
C 	C 	0.18610 0.06070 0.03330 -1.24200
H 	H 	0.16900 0.02400 0.01620 0.32900
H 	H 	0.15680 0.06570 0.04980 0.35000
H 	H 	0.21260 0.06290 0.06010 0.41100
H 	H 	0.18800 0.05300 0.92600 -0.15700
C 	C 	0.62380 0.74010 0.91088 0.25800
C 	C 	0.62740 0.71160 0.85907 0.07700
H 	H 	0.65600 0.69970 0.86347 -0.00400
C 	C 	0.56860 0.65860 0.84817 -0.68200
H 	H 	0.54190 0.67110 0.83817 0.19200
H 	H 	0.55470 0.63660 0.88087 0.19400
C 	C 	0.56970 0.61910 0.80337 1.05800
H 	H 	0.58700 0.64280 0.77167 -0.30400
C 	C 	0.51060 0.57550 0.78917 -1.58500
H 	H 	0.48920 0.59390 0.77997 0.46900
H 	H 	0.49280 0.55040 0.81907 0.43700
H 	H 	0.51130 0.55360 0.75917 0.45800
C 	C 	0.60600 0.59250 0.81857 -1.50900
H 	H 	0.64380 0.62220 0.82817 0.47200
H 	H 	0.60830 0.57140 0.78877 0.45100
H 	H 	0.58890 0.56720 0.84847 0.42300
C 	C 	0.70640 0.78610 0.80577 -0.08900
H 	H 	0.72400 0.80860 0.83757 0.01100
H 	H 	0.71400 0.81250 0.77647 0.03400
C 	C 	0.73420 0.75047 0.79336 0.02700
C 	C 	0.72260 0.72080 0.74567 -0.06800
H 	H 	0.69910 0.72440 0.72067 0.05300
C 	C 	0.77060 0.74630 0.82947 -0.07600
H 	H 	0.77940 0.76670 0.86137 0.02900
C 	C 	0.74510 0.68530 0.73407 -0.09400
H 	H 	0.73630 0.66530 0.70207 0.05600
C 	C 	0.79460 0.71150 0.81867 -0.10200
H 	H 	0.81920 0.70910 0.84317 0.04800
C 	C 	0.78110 0.68040 0.77119 0.04200
C 	C 	0.80490 0.64170 0.75917 -0.11700
H 	H 	0.82460 0.63940 0.79067 0.04100
H 	H 	0.77340 0.60360 0.75197 0.04200
C 	C 	0.94500 0.70010 0.74217 0.24300
C 	C 	0.89950 0.71420 0.72347 0.09300
H 	H 	0.89340 0.73590 0.75157 0.00300
C 	C 	0.92270 0.75160 0.67377 -0.65200
H 	H 	0.96230 0.78010 0.67997 0.21900
H 	H 	0.92170 0.72790 0.64417 0.21700
C 	C 	0.76830 0.49130 0.68117 0.21200
C 	C 	0.81370 0.47510 0.69627 0.16500
H 	H 	0.79700 0.44210 0.72047 -0.03300
C 	C 	0.83380 0.46010 0.64507 -0.84800
H 	H 	0.80060 0.43600 0.62317 0.25800
H 	H 	0.85750 0.49490 0.62527 0.25800
C 	C 	0.86730 0.42920 0.65417 1.21700
H 	H 	0.89930 0.45290 0.67807 -0.35100
C 	C 	0.89180 0.42310 0.60247 -1.72000
H 	H 	0.91310 0.40400 0.60877 0.50600
H 	H 	0.91670 0.46030 0.58767 0.48700
H 	H 	0.86140 0.40130 0.57777 0.49400
C 	C 	0.83180 0.37100 0.68027 -1.71100
H 	H 	0.81620 0.37530 0.71327 0.53600
H 	H 	0.85550 0.35460 0.68727 0.52000
H 	H 	0.80120 0.34630 0.65677 0.50200
C 	C 	0.85400 0.52380 0.78327 -0.12100
H 	H 	0.88440 0.55900 0.79857 0.05100
H 	H 	0.81800 0.52210 0.79077 0.03500
C 	C 	0.85420 0.47430 0.80945 0.04400
C 	C 	0.90520 0.47600 0.82135 -0.07500
H 	H 	0.93980 0.50870 0.81327 0.05300
C 	C 	0.80320 0.42440 0.82267 -0.09000
H 	H 	0.76850 0.42290 0.81667 0.03500
O 	O 	0.62777 0.78911 0.90653 -0.41000
O 	O 	0.61839 0.71507 0.95333 -0.36900
O 	O 	0.93483 0.64896 0.73466 -0.36900
O 	O 	0.98870 0.73860 0.76297 -0.24100
O 	O 	0.78523 0.54470 0.67764 -0.36900
O 	O 	0.71940 0.45220 0.67027 -0.25800
Cu	Cu	0.86294 0.59728 0.69964 0.90900
N 	N 	0.64454 0.75266 0.81408 -0.25800
H 	H 	0.62670 0.73420 0.78347 0.10600
N 	N 	0.84512 0.66056 0.71316 -0.25000
H 	H 	0.82780 0.66510 0.68387 0.11300
N 	N 	0.86220 0.52527 0.72356 -0.26000
H 	H 	0.89600 0.52730 0.71547 0.11100
C 	C 	0.91490 0.81560 0.60527 -1.38500
H 	H 	0.89380 0.83410 0.59527 0.52300
H 	H 	0.91210 0.78990 0.57747 0.42900
H 	H 	0.95440 0.84400 0.61057 0.40600
C 	C 	0.89010 0.78180 0.65777 0.83500
H 	H 	0.84850 0.75700 0.65757 -0.18800
C 	C 	0.91390 0.83360 0.70247 -0.02500
H 	H 	0.89580 0.85610 0.69687 0.08800
H 	H 	0.95450 0.85740 0.69877 -0.07200
H 	H 	0.90510 0.81740 0.73767 0.02100
C 	C 	0.87460 0.81390 0.69997 -1.24400
H 	H 	0.85500 0.83100 0.68287 0.33000
H 	H 	0.90890 0.84320 0.71647 0.35100
H 	H 	0.85030 0.78740 0.72677 0.41200
H 	H 	0.86500 0.81200 0.59267 -0.15700
Cu	Cu	0.62195 0.81097 0.83333 0.87500
Cu	Cu	0.18903 0.81097 0.16667 0.87500
Cu	Cu	0.18903 0.37805 0.50000 0.87500
Cu	Cu	0.37805 0.18903 0.83333 0.87500
Cu	Cu	0.81097 0.18903 0.16667 0.87500
Cu	Cu	0.81097 0.62195 0.50000 0.87500
