data_crystal

_cell_length_a 11.28830
_cell_length_b 11.28830
_cell_length_c 12.84190
_cell_angle_alpha 90.00000
_cell_angle_beta  90.00000
_cell_angle_gamma 90.00000

_symmetry_space_group_name_	'P 1'
_symmetry_space_group_name_H-M	'P 1'

loop_
_symmetry_equiv_pos_as_xyz
  x,y,z

loop_
_atom_site_label
_atom_site_type_symbol
_atom_site_fract_x
_atom_site_fract_y
_atom_site_fract_z
_atom_site_charge
N 	N 	0.22048 0.10293 0.39292 -0.22000
C 	C 	0.14579 0.06440 0.34277 -0.22800
N 	N 	0.72048 0.60293 0.89292 -0.13400
C 	C 	0.64579 0.56440 0.84277 -0.08800
N 	N 	0.77952 0.89707 0.39292 -0.21400
C 	C 	0.85421 0.93560 0.34277 -0.01000
N 	N 	0.27952 0.39707 0.89292 -0.15400
C 	C 	0.35421 0.43560 0.84277 -0.10600
N 	N 	0.89707 0.22048 0.39292 -0.21200
C 	C 	0.93560 0.14579 0.34277 -0.08300
N 	N 	0.39707 0.72048 0.89292 -0.13900
C 	C 	0.43560 0.64579 0.84277 -0.09400
N 	N 	0.10293 0.77952 0.39292 -0.22200
C 	C 	0.06440 0.85421 0.34277 -0.13800
N 	N 	0.60293 0.27952 0.89292 -0.14900
C 	C 	0.56440 0.35421 0.84277 -0.10000
N 	N 	0.77952 0.10293 0.10708 -0.25200
C 	C 	0.85421 0.06440 0.15723 -0.16700
N 	N 	0.27952 0.60293 0.60708 -0.21200
C 	C 	0.35421 0.56440 0.65723 -0.13100
N 	N 	0.22048 0.89707 0.10708 -0.24200
C 	C 	0.14579 0.93560 0.15723 -0.11200
N 	N 	0.72048 0.39707 0.60708 -0.20300
C 	C 	0.64579 0.43560 0.65723 -0.12500
N 	N 	0.10293 0.22048 0.10708 -0.24900
C 	C 	0.06440 0.14579 0.15723 -0.25600
N 	N 	0.60293 0.72048 0.60708 -0.19800
C 	C 	0.56440 0.64579 0.65723 -0.11900
N 	N 	0.89707 0.77952 0.10708 -0.24400
C 	C 	0.93560 0.85421 0.15723 -0.03900
N 	N 	0.39707 0.27952 0.60708 -0.21800
C 	C 	0.43560 0.35421 0.65723 -0.13800
N 	N 	0.77952 0.89707 0.60708 -0.21000
C 	C 	0.85421 0.93560 0.65723 -0.00300
N 	N 	0.27952 0.39707 0.10708 -0.25200
C 	C 	0.35421 0.43560 0.15723 -0.17400
N 	N 	0.22048 0.10293 0.60708 -0.21500
C 	C 	0.14579 0.06440 0.65723 -0.22100
N 	N 	0.72048 0.60293 0.10708 -0.23200
C 	C 	0.64579 0.56440 0.15723 -0.15600
N 	N 	0.10293 0.77952 0.60708 -0.21800
C 	C 	0.06440 0.85421 0.65723 -0.13100
N 	N 	0.60293 0.27952 0.10708 -0.24700
C 	C 	0.56440 0.35421 0.15723 -0.16800
N 	N 	0.89707 0.22048 0.60708 -0.20800
C 	C 	0.93560 0.14579 0.65723 -0.07600
N 	N 	0.39707 0.72048 0.10708 -0.23700
C 	C 	0.43560 0.64579 0.15723 -0.16200
N 	N 	0.22048 0.89707 0.89292 -0.14500
C 	C 	0.14579 0.93560 0.84277 -0.04600
N 	N 	0.72048 0.39707 0.39292 -0.20700
C 	C 	0.64579 0.43560 0.34277 -0.13200
N 	N 	0.77952 0.10293 0.89292 -0.15400
C 	C 	0.85421 0.06440 0.84277 -0.10100
N 	N 	0.27952 0.60293 0.39292 -0.21600
C 	C 	0.35421 0.56440 0.34277 -0.13800
N 	N 	0.89707 0.77952 0.89292 -0.14700
C 	C 	0.93560 0.85421 0.84277 0.02700
N 	N 	0.39707 0.27952 0.39292 -0.22200
C 	C 	0.43560 0.35421 0.34277 -0.14500
N 	N 	0.10293 0.22048 0.89292 -0.15200
C 	C 	0.06440 0.14579 0.84277 -0.19000
N 	N 	0.60293 0.72048 0.39292 -0.20200
C 	C 	0.56440 0.64579 0.34277 -0.12600
Mo	Mo	-0.00000 0.00000 0.25000 0.94200
Mo	Mo	0.50000 0.50000 0.75000 1.06800
Mo	Mo	-0.00000 0.00000 0.75000 0.94300
Mo	Mo	0.50000 0.50000 0.25000 1.06500
Cu	Cu	0.31273 0.18727 0.50000 0.82500
Cu	Cu	0.68727 0.81273 0.50000 0.86100
Cu	Cu	0.81273 0.31273 0.50000 0.84900
Cu	Cu	0.18727 0.68727 0.50000 0.83900
Cu	Cu	0.68727 0.18727 -0.00000 0.74800
Cu	Cu	0.31273 0.81273 -0.00000 0.75800
Cu	Cu	0.18727 0.31273 -0.00000 0.73500
Cu	Cu	0.81273 0.68727 -0.00000 0.76900
