data_crystal

_cell_length_a 47.32600
_cell_length_b 47.32600
_cell_length_c 47.32600
_cell_angle_alpha 90.00000
_cell_angle_beta  90.00000
_cell_angle_gamma 90.00000

_symmetry_space_group_name_	'P 1'
_symmetry_space_group_name_H-M	'P 1'

loop_
_symmetry_equiv_pos_as_xyz
  x,y,z

loop_
_atom_site_label
_atom_site_type_symbol
_atom_site_fract_x
_atom_site_fract_y
_atom_site_fract_z
_atom_site_charge
O 	O 	0.21295 0.25402 0.02957 -0.33900
F 	F 	0.20920 0.24770 0.08820 -0.29200
F 	F 	0.18420 0.27160 0.13280 -0.28000
F 	F 	0.18290 0.35880 0.08290 -0.28800
F 	F 	0.20690 0.33450 0.03760 -0.26600
C 	C 	0.20360 0.27420 0.08630 0.28700
C 	C 	0.19010 0.28680 0.10920 0.25600
C 	C 	0.18270 0.31660 0.10810 -0.37400
C 	C 	0.18890 0.33110 0.08420 0.25300
C 	C 	0.20240 0.31850 0.06130 0.25300
O 	O 	0.21295 0.75402 0.52957 -0.33900
F 	F 	0.20920 0.74770 0.58820 -0.29200
F 	F 	0.18420 0.77160 0.63280 -0.28000
F 	F 	0.18290 0.85880 0.58290 -0.28800
F 	F 	0.20690 0.83450 0.53760 -0.26500
C 	C 	0.20360 0.77420 0.58630 0.28700
C 	C 	0.19010 0.78680 0.60920 0.25600
C 	C 	0.18270 0.81660 0.60810 -0.37400
C 	C 	0.18890 0.83110 0.58420 0.25300
C 	C 	0.20240 0.81850 0.56130 0.25300
O 	O 	0.71295 0.25402 0.52957 -0.33900
F 	F 	0.70920 0.24770 0.58820 -0.29200
F 	F 	0.68420 0.27160 0.63280 -0.28000
F 	F 	0.68290 0.35880 0.58290 -0.28800
F 	F 	0.70690 0.33450 0.53760 -0.26500
C 	C 	0.70360 0.27420 0.58630 0.28700
C 	C 	0.69010 0.28680 0.60920 0.25600
C 	C 	0.68270 0.31660 0.60810 -0.37400
C 	C 	0.68890 0.33110 0.58420 0.25300
C 	C 	0.70240 0.31850 0.56130 0.25300
O 	O 	0.71295 0.75402 0.02957 -0.33900
F 	F 	0.70920 0.74770 0.08820 -0.29200
F 	F 	0.68420 0.77160 0.13280 -0.28000
F 	F 	0.68290 0.85880 0.08290 -0.28800
F 	F 	0.70690 0.83450 0.03760 -0.26500
C 	C 	0.70360 0.77420 0.08630 0.28700
C 	C 	0.69010 0.78680 0.10920 0.25600
C 	C 	0.68270 0.81660 0.10810 -0.37400
C 	C 	0.68890 0.83110 0.08420 0.25300
C 	C 	0.70240 0.81850 0.06130 0.25400
O 	O 	0.78705 0.74598 0.02957 -0.33800
F 	F 	0.79080 0.75230 0.08820 -0.29100
F 	F 	0.81580 0.72840 0.13280 -0.27900
F 	F 	0.81710 0.64120 0.08290 -0.28700
F 	F 	0.79310 0.66550 0.03760 -0.26500
C 	C 	0.79640 0.72580 0.08630 0.28800
C 	C 	0.80990 0.71320 0.10920 0.25700
C 	C 	0.81730 0.68340 0.10810 -0.37300
C 	C 	0.81110 0.66890 0.08420 0.25400
C 	C 	0.79760 0.68150 0.06130 0.25400
O 	O 	0.78705 0.24598 0.52957 -0.33800
F 	F 	0.79080 0.25230 0.58820 -0.29100
F 	F 	0.81580 0.22840 0.63280 -0.27900
F 	F 	0.81710 0.14120 0.58290 -0.28700
F 	F 	0.79310 0.16550 0.53760 -0.26400
C 	C 	0.79640 0.22580 0.58630 0.28800
C 	C 	0.80990 0.21320 0.60920 0.25700
C 	C 	0.81730 0.18340 0.60810 -0.37300
C 	C 	0.81110 0.16890 0.58420 0.25400
C 	C 	0.79760 0.18150 0.56130 0.25400
O 	O 	0.28705 0.74598 0.52957 -0.33800
F 	F 	0.29080 0.75230 0.58820 -0.29100
F 	F 	0.31580 0.72840 0.63280 -0.27900
F 	F 	0.31710 0.64120 0.58290 -0.28700
F 	F 	0.29310 0.66550 0.53760 -0.26400
C 	C 	0.29640 0.72580 0.58630 0.28800
C 	C 	0.30990 0.71320 0.60920 0.25700
C 	C 	0.31730 0.68340 0.60810 -0.37300
C 	C 	0.31110 0.66890 0.58420 0.25400
C 	C 	0.29760 0.68150 0.56130 0.25400
O 	O 	0.28705 0.24598 0.02957 -0.33800
F 	F 	0.29080 0.25230 0.08820 -0.29100
F 	F 	0.31580 0.22840 0.13280 -0.27900
F 	F 	0.31710 0.14120 0.08290 -0.28700
F 	F 	0.29310 0.16550 0.03760 -0.26500
C 	C 	0.29640 0.22580 0.08630 0.28800
C 	C 	0.30990 0.21320 0.10920 0.25700
C 	C 	0.31730 0.18340 0.10810 -0.37300
C 	C 	0.31110 0.16890 0.08420 0.25400
C 	C 	0.29760 0.18150 0.06130 0.25400
O 	O 	0.78705 0.25402 0.97043 -0.33700
F 	F 	0.79080 0.24770 0.91180 -0.29100
F 	F 	0.81580 0.27160 0.86720 -0.27900
F 	F 	0.81710 0.35880 0.91710 -0.28700
F 	F 	0.79310 0.33450 0.96240 -0.26400
C 	C 	0.79640 0.27420 0.91370 0.28800
C 	C 	0.80990 0.28680 0.89080 0.25700
C 	C 	0.81730 0.31660 0.89190 -0.37300
C 	C 	0.81110 0.33110 0.91580 0.25500
C 	C 	0.79760 0.31850 0.93870 0.25400
O 	O 	0.78705 0.75402 0.47043 -0.33800
F 	F 	0.79080 0.74770 0.41180 -0.29100
F 	F 	0.81580 0.77160 0.36720 -0.27900
F 	F 	0.81710 0.85880 0.41710 -0.28700
F 	F 	0.79310 0.83450 0.46240 -0.26400
C 	C 	0.79640 0.77420 0.41370 0.28800
C 	C 	0.80990 0.78680 0.39080 0.25700
C 	C 	0.81730 0.81660 0.39190 -0.37300
C 	C 	0.81110 0.83110 0.41580 0.25400
C 	C 	0.79760 0.81850 0.43870 0.25400
O 	O 	0.28705 0.25402 0.47043 -0.33800
F 	F 	0.29080 0.24770 0.41180 -0.29100
F 	F 	0.31580 0.27160 0.36720 -0.27900
F 	F 	0.31710 0.35880 0.41710 -0.28700
F 	F 	0.29310 0.33450 0.46240 -0.26400
C 	C 	0.29640 0.27420 0.41370 0.28800
C 	C 	0.30990 0.28680 0.39080 0.25700
C 	C 	0.31730 0.31660 0.39190 -0.37300
C 	C 	0.31110 0.33110 0.41580 0.25400
C 	C 	0.29760 0.31850 0.43870 0.25400
O 	O 	0.28705 0.75402 0.97043 -0.33700
F 	F 	0.29080 0.74770 0.91180 -0.29100
F 	F 	0.31580 0.77160 0.86720 -0.27900
F 	F 	0.31710 0.85880 0.91710 -0.28700
F 	F 	0.29310 0.83450 0.96240 -0.26400
C 	C 	0.29640 0.77420 0.91370 0.28800
C 	C 	0.30990 0.78680 0.89080 0.25700
C 	C 	0.31730 0.81660 0.89190 -0.37300
C 	C 	0.31110 0.83110 0.91580 0.25500
C 	C 	0.29760 0.81850 0.93870 0.25400
O 	O 	0.21295 0.74598 0.97043 -0.33700
F 	F 	0.20920 0.75230 0.91180 -0.29100
F 	F 	0.18420 0.72840 0.86720 -0.27900
F 	F 	0.18290 0.64120 0.91710 -0.28700
F 	F 	0.20690 0.66550 0.96240 -0.26400
C 	C 	0.20360 0.72580 0.91370 0.28800
C 	C 	0.19010 0.71320 0.89080 0.25700
C 	C 	0.18270 0.68340 0.89190 -0.37300
C 	C 	0.18890 0.66890 0.91580 0.25500
C 	C 	0.20240 0.68150 0.93870 0.25400
O 	O 	0.21295 0.24598 0.47043 -0.33800
F 	F 	0.20920 0.25230 0.41180 -0.29100
F 	F 	0.18420 0.22840 0.36720 -0.27900
F 	F 	0.18290 0.14120 0.41710 -0.28700
F 	F 	0.20690 0.16550 0.46240 -0.26400
C 	C 	0.20360 0.22580 0.41370 0.28800
C 	C 	0.19010 0.21320 0.39080 0.25700
C 	C 	0.18270 0.18340 0.39190 -0.37300
C 	C 	0.18890 0.16890 0.41580 0.25400
C 	C 	0.20240 0.18150 0.43870 0.25400
O 	O 	0.71295 0.74598 0.47043 -0.33800
F 	F 	0.70920 0.75230 0.41180 -0.29100
F 	F 	0.68420 0.72840 0.36720 -0.27900
F 	F 	0.68290 0.64120 0.41710 -0.28700
F 	F 	0.70690 0.66550 0.46240 -0.26400
C 	C 	0.70360 0.72580 0.41370 0.28800
C 	C 	0.69010 0.71320 0.39080 0.25700
C 	C 	0.68270 0.68340 0.39190 -0.37300
C 	C 	0.68890 0.66890 0.41580 0.25400
C 	C 	0.70240 0.68150 0.43870 0.25400
O 	O 	0.71295 0.24598 0.97043 -0.33700
F 	F 	0.70920 0.25230 0.91180 -0.29100
F 	F 	0.68420 0.22840 0.86720 -0.27900
F 	F 	0.68290 0.14120 0.91710 -0.28700
F 	F 	0.70690 0.16550 0.96240 -0.26400
C 	C 	0.70360 0.22580 0.91370 0.28800
C 	C 	0.69010 0.21320 0.89080 0.25700
C 	C 	0.68270 0.18340 0.89190 -0.37300
C 	C 	0.68890 0.16890 0.91580 0.25500
C 	C 	0.70240 0.18150 0.93870 0.25400
O 	O 	0.02957 0.21295 0.25402 -0.33800
F 	F 	0.08820 0.20920 0.24770 -0.29100
F 	F 	0.13280 0.18420 0.27160 -0.27900
F 	F 	0.08290 0.18290 0.35880 -0.28700
F 	F 	0.03760 0.20690 0.33450 -0.26500
C 	C 	0.08630 0.20360 0.27420 0.28800
C 	C 	0.10920 0.19010 0.28680 0.25700
C 	C 	0.10810 0.18270 0.31660 -0.37300
C 	C 	0.08420 0.18890 0.33110 0.25400
C 	C 	0.06130 0.20240 0.31850 0.25400
O 	O 	0.02957 0.71295 0.75402 -0.33800
F 	F 	0.08820 0.70920 0.74770 -0.29100
F 	F 	0.13280 0.68420 0.77160 -0.27900
F 	F 	0.08290 0.68290 0.85880 -0.28700
F 	F 	0.03760 0.70690 0.83450 -0.26400
C 	C 	0.08630 0.70360 0.77420 0.28800
C 	C 	0.10920 0.69010 0.78680 0.25700
C 	C 	0.10810 0.68270 0.81660 -0.37300
C 	C 	0.08420 0.68890 0.83110 0.25400
C 	C 	0.06130 0.70240 0.81850 0.25400
O 	O 	0.52957 0.21295 0.75402 -0.33800
F 	F 	0.58820 0.20920 0.74770 -0.29100
F 	F 	0.63280 0.18420 0.77160 -0.27900
F 	F 	0.58290 0.18290 0.85880 -0.28700
F 	F 	0.53760 0.20690 0.83450 -0.26400
C 	C 	0.58630 0.20360 0.77420 0.28800
C 	C 	0.60920 0.19010 0.78680 0.25700
C 	C 	0.60810 0.18270 0.81660 -0.37300
C 	C 	0.58420 0.18890 0.83110 0.25400
C 	C 	0.56130 0.20240 0.81850 0.25400
O 	O 	0.52957 0.71295 0.25402 -0.33800
F 	F 	0.58820 0.70920 0.24770 -0.29100
F 	F 	0.63280 0.68420 0.27160 -0.27900
F 	F 	0.58290 0.68290 0.35880 -0.28700
F 	F 	0.53760 0.70690 0.33450 -0.26400
C 	C 	0.58630 0.70360 0.27420 0.28800
C 	C 	0.60920 0.69010 0.28680 0.25700
C 	C 	0.60810 0.68270 0.31660 -0.37300
C 	C 	0.58420 0.68890 0.33110 0.25400
C 	C 	0.56130 0.70240 0.31850 0.25400
O 	O 	0.02957 0.78705 0.74598 -0.33800
F 	F 	0.08820 0.79080 0.75230 -0.29100
F 	F 	0.13280 0.81580 0.72840 -0.27900
F 	F 	0.08290 0.81710 0.64120 -0.28700
F 	F 	0.03760 0.79310 0.66550 -0.26500
C 	C 	0.08630 0.79640 0.72580 0.28800
C 	C 	0.10920 0.80990 0.71320 0.25700
C 	C 	0.10810 0.81730 0.68340 -0.37300
C 	C 	0.08420 0.81110 0.66890 0.25400
C 	C 	0.06130 0.79760 0.68150 0.25400
O 	O 	0.02957 0.28705 0.24598 -0.33800
F 	F 	0.08820 0.29080 0.25230 -0.29100
F 	F 	0.13280 0.31580 0.22840 -0.27900
F 	F 	0.08290 0.31710 0.14120 -0.28700
F 	F 	0.03760 0.29310 0.16550 -0.26500
C 	C 	0.08630 0.29640 0.22580 0.28800
C 	C 	0.10920 0.30990 0.21320 0.25700
C 	C 	0.10810 0.31730 0.18340 -0.37300
C 	C 	0.08420 0.31110 0.16890 0.25400
C 	C 	0.06130 0.29760 0.18150 0.25400
O 	O 	0.52957 0.78705 0.24598 -0.33800
F 	F 	0.58820 0.79080 0.25230 -0.29100
F 	F 	0.63280 0.81580 0.22840 -0.27900
F 	F 	0.58290 0.81710 0.14120 -0.28700
F 	F 	0.53760 0.79310 0.16550 -0.26400
C 	C 	0.58630 0.79640 0.22580 0.28800
C 	C 	0.60920 0.80990 0.21320 0.25700
C 	C 	0.60810 0.81730 0.18340 -0.37300
C 	C 	0.58420 0.81110 0.16890 0.25400
C 	C 	0.56130 0.79760 0.18150 0.25400
O 	O 	0.52957 0.28705 0.74598 -0.33800
F 	F 	0.58820 0.29080 0.75230 -0.29100
F 	F 	0.63280 0.31580 0.72840 -0.27900
F 	F 	0.58290 0.31710 0.64120 -0.28700
F 	F 	0.53760 0.29310 0.66550 -0.26400
C 	C 	0.58630 0.29640 0.72580 0.28800
C 	C 	0.60920 0.30990 0.71320 0.25700
C 	C 	0.60810 0.31730 0.68340 -0.37300
C 	C 	0.58420 0.31110 0.66890 0.25400
C 	C 	0.56130 0.29760 0.68150 0.25400
O 	O 	0.97043 0.78705 0.25402 -0.33700
F 	F 	0.91180 0.79080 0.24770 -0.29100
F 	F 	0.86720 0.81580 0.27160 -0.27900
F 	F 	0.91710 0.81710 0.35880 -0.28700
F 	F 	0.96240 0.79310 0.33450 -0.26400
C 	C 	0.91370 0.79640 0.27420 0.28800
C 	C 	0.89080 0.80990 0.28680 0.25700
C 	C 	0.89190 0.81730 0.31660 -0.37300
C 	C 	0.91580 0.81110 0.33110 0.25500
C 	C 	0.93870 0.79760 0.31850 0.25400
O 	O 	0.97043 0.28705 0.75402 -0.33700
F 	F 	0.91180 0.29080 0.74770 -0.29100
F 	F 	0.86720 0.31580 0.77160 -0.27900
F 	F 	0.91710 0.31710 0.85880 -0.28700
F 	F 	0.96240 0.29310 0.83450 -0.26400
C 	C 	0.91370 0.29640 0.77420 0.28800
C 	C 	0.89080 0.30990 0.78680 0.25700
C 	C 	0.89190 0.31730 0.81660 -0.37300
C 	C 	0.91580 0.31110 0.83110 0.25500
C 	C 	0.93870 0.29760 0.81850 0.25400
O 	O 	0.47043 0.78705 0.75402 -0.33800
F 	F 	0.41180 0.79080 0.74770 -0.29100
F 	F 	0.36720 0.81580 0.77160 -0.27900
F 	F 	0.41710 0.81710 0.85880 -0.28700
F 	F 	0.46240 0.79310 0.83450 -0.26400
C 	C 	0.41370 0.79640 0.77420 0.28800
C 	C 	0.39080 0.80990 0.78680 0.25700
C 	C 	0.39190 0.81730 0.81660 -0.37300
C 	C 	0.41580 0.81110 0.83110 0.25400
C 	C 	0.43870 0.79760 0.81850 0.25400
O 	O 	0.47043 0.28705 0.25402 -0.33800
F 	F 	0.41180 0.29080 0.24770 -0.29100
F 	F 	0.36720 0.31580 0.27160 -0.27900
F 	F 	0.41710 0.31710 0.35880 -0.28700
F 	F 	0.46240 0.29310 0.33450 -0.26400
C 	C 	0.41370 0.29640 0.27420 0.28800
C 	C 	0.39080 0.30990 0.28680 0.25700
C 	C 	0.39190 0.31730 0.31660 -0.37300
C 	C 	0.41580 0.31110 0.33110 0.25400
C 	C 	0.43870 0.29760 0.31850 0.25400
O 	O 	0.97043 0.21295 0.74598 -0.33700
F 	F 	0.91180 0.20920 0.75230 -0.29100
F 	F 	0.86720 0.18420 0.72840 -0.27900
F 	F 	0.91710 0.18290 0.64120 -0.28700
F 	F 	0.96240 0.20690 0.66550 -0.26400
C 	C 	0.91370 0.20360 0.72580 0.28800
C 	C 	0.89080 0.19010 0.71320 0.25700
C 	C 	0.89190 0.18270 0.68340 -0.37300
C 	C 	0.91580 0.18890 0.66890 0.25500
C 	C 	0.93870 0.20240 0.68150 0.25400
O 	O 	0.97043 0.71295 0.24598 -0.33700
F 	F 	0.91180 0.70920 0.25230 -0.29100
F 	F 	0.86720 0.68420 0.22840 -0.27900
F 	F 	0.91710 0.68290 0.14120 -0.28700
F 	F 	0.96240 0.70690 0.16550 -0.26400
C 	C 	0.91370 0.70360 0.22580 0.28800
C 	C 	0.89080 0.69010 0.21320 0.25700
C 	C 	0.89190 0.68270 0.18340 -0.37300
C 	C 	0.91580 0.68890 0.16890 0.25500
C 	C 	0.93870 0.70240 0.18150 0.25400
O 	O 	0.47043 0.21295 0.24598 -0.33800
F 	F 	0.41180 0.20920 0.25230 -0.29100
F 	F 	0.36720 0.18420 0.22840 -0.27900
F 	F 	0.41710 0.18290 0.14120 -0.28700
F 	F 	0.46240 0.20690 0.16550 -0.26400
C 	C 	0.41370 0.20360 0.22580 0.28800
C 	C 	0.39080 0.19010 0.21320 0.25700
C 	C 	0.39190 0.18270 0.18340 -0.37300
C 	C 	0.41580 0.18890 0.16890 0.25400
C 	C 	0.43870 0.20240 0.18150 0.25400
O 	O 	0.47043 0.71295 0.74598 -0.33800
F 	F 	0.41180 0.70920 0.75230 -0.29100
F 	F 	0.36720 0.68420 0.72840 -0.27900
F 	F 	0.41710 0.68290 0.64120 -0.28700
F 	F 	0.46240 0.70690 0.66550 -0.26400
C 	C 	0.41370 0.70360 0.72580 0.28800
C 	C 	0.39080 0.69010 0.71320 0.25700
C 	C 	0.39190 0.68270 0.68340 -0.37300
C 	C 	0.41580 0.68890 0.66890 0.25400
C 	C 	0.43870 0.70240 0.68150 0.25400
O 	O 	0.25402 0.02957 0.21295 -0.33800
F 	F 	0.24770 0.08820 0.20920 -0.29100
F 	F 	0.27160 0.13280 0.18420 -0.27900
F 	F 	0.35880 0.08290 0.18290 -0.28700
F 	F 	0.33450 0.03760 0.20690 -0.26500
C 	C 	0.27420 0.08630 0.20360 0.28800
C 	C 	0.28680 0.10920 0.19010 0.25700
C 	C 	0.31660 0.10810 0.18270 -0.37300
C 	C 	0.33110 0.08420 0.18890 0.25400
C 	C 	0.31850 0.06130 0.20240 0.25400
O 	O 	0.25402 0.52957 0.71295 -0.33800
F 	F 	0.24770 0.58820 0.70920 -0.29100
F 	F 	0.27160 0.63280 0.68420 -0.27900
F 	F 	0.35880 0.58290 0.68290 -0.28700
F 	F 	0.33450 0.53760 0.70690 -0.26400
C 	C 	0.27420 0.58630 0.70360 0.28800
C 	C 	0.28680 0.60920 0.69010 0.25700
C 	C 	0.31660 0.60810 0.68270 -0.37300
C 	C 	0.33110 0.58420 0.68890 0.25400
C 	C 	0.31850 0.56130 0.70240 0.25400
O 	O 	0.75402 0.02957 0.71295 -0.33800
F 	F 	0.74770 0.08820 0.70920 -0.29100
F 	F 	0.77160 0.13280 0.68420 -0.27900
F 	F 	0.85880 0.08290 0.68290 -0.28700
F 	F 	0.83450 0.03760 0.70690 -0.26400
C 	C 	0.77420 0.08630 0.70360 0.28800
C 	C 	0.78680 0.10920 0.69010 0.25700
C 	C 	0.81660 0.10810 0.68270 -0.37300
C 	C 	0.83110 0.08420 0.68890 0.25400
C 	C 	0.81850 0.06130 0.70240 0.25400
O 	O 	0.75402 0.52957 0.21295 -0.33800
F 	F 	0.74770 0.58820 0.20920 -0.29100
F 	F 	0.77160 0.63280 0.18420 -0.27900
F 	F 	0.85880 0.58290 0.18290 -0.28700
F 	F 	0.83450 0.53760 0.20690 -0.26400
C 	C 	0.77420 0.58630 0.20360 0.28800
C 	C 	0.78680 0.60920 0.19010 0.25700
C 	C 	0.81660 0.60810 0.18270 -0.37300
C 	C 	0.83110 0.58420 0.18890 0.25400
C 	C 	0.81850 0.56130 0.20240 0.25400
O 	O 	0.74598 0.02957 0.78705 -0.33800
F 	F 	0.75230 0.08820 0.79080 -0.29100
F 	F 	0.72840 0.13280 0.81580 -0.27900
F 	F 	0.64120 0.08290 0.81710 -0.28700
F 	F 	0.66550 0.03760 0.79310 -0.26500
C 	C 	0.72580 0.08630 0.79640 0.28800
C 	C 	0.71320 0.10920 0.80990 0.25700
C 	C 	0.68340 0.10810 0.81730 -0.37300
C 	C 	0.66890 0.08420 0.81110 0.25400
C 	C 	0.68150 0.06130 0.79760 0.25400
O 	O 	0.74598 0.52957 0.28705 -0.33800
F 	F 	0.75230 0.58820 0.29080 -0.29100
F 	F 	0.72840 0.63280 0.31580 -0.27900
F 	F 	0.64120 0.58290 0.31710 -0.28700
F 	F 	0.66550 0.53760 0.29310 -0.26400
C 	C 	0.72580 0.58630 0.29640 0.28800
C 	C 	0.71320 0.60920 0.30990 0.25700
C 	C 	0.68340 0.60810 0.31730 -0.37300
C 	C 	0.66890 0.58420 0.31110 0.25400
C 	C 	0.68150 0.56130 0.29760 0.25400
O 	O 	0.24598 0.02957 0.28705 -0.33800
F 	F 	0.25230 0.08820 0.29080 -0.29100
F 	F 	0.22840 0.13280 0.31580 -0.27900
F 	F 	0.14120 0.08290 0.31710 -0.28700
F 	F 	0.16550 0.03760 0.29310 -0.26500
C 	C 	0.22580 0.08630 0.29640 0.28800
C 	C 	0.21320 0.10920 0.30990 0.25700
C 	C 	0.18340 0.10810 0.31730 -0.37300
C 	C 	0.16890 0.08420 0.31110 0.25400
C 	C 	0.18150 0.06130 0.29760 0.25400
O 	O 	0.24598 0.52957 0.78705 -0.33800
F 	F 	0.25230 0.58820 0.79080 -0.29100
F 	F 	0.22840 0.63280 0.81580 -0.27900
F 	F 	0.14120 0.58290 0.81710 -0.28700
F 	F 	0.16550 0.53760 0.79310 -0.26400
C 	C 	0.22580 0.58630 0.79640 0.28800
C 	C 	0.21320 0.60920 0.80990 0.25700
C 	C 	0.18340 0.60810 0.81730 -0.37300
C 	C 	0.16890 0.58420 0.81110 0.25400
C 	C 	0.18150 0.56130 0.79760 0.25400
O 	O 	0.25402 0.97043 0.78705 -0.33700
F 	F 	0.24770 0.91180 0.79080 -0.29100
F 	F 	0.27160 0.86720 0.81580 -0.27900
F 	F 	0.35880 0.91710 0.81710 -0.28700
F 	F 	0.33450 0.96240 0.79310 -0.26400
C 	C 	0.27420 0.91370 0.79640 0.28800
C 	C 	0.28680 0.89080 0.80990 0.25700
C 	C 	0.31660 0.89190 0.81730 -0.37300
C 	C 	0.33110 0.91580 0.81110 0.25500
C 	C 	0.31850 0.93870 0.79760 0.25400
O 	O 	0.25402 0.47043 0.28705 -0.33800
F 	F 	0.24770 0.41180 0.29080 -0.29100
F 	F 	0.27160 0.36720 0.31580 -0.27900
F 	F 	0.35880 0.41710 0.31710 -0.28700
F 	F 	0.33450 0.46240 0.29310 -0.26400
C 	C 	0.27420 0.41370 0.29640 0.28800
C 	C 	0.28680 0.39080 0.30990 0.25700
C 	C 	0.31660 0.39190 0.31730 -0.37300
C 	C 	0.33110 0.41580 0.31110 0.25400
C 	C 	0.31850 0.43870 0.29760 0.25400
O 	O 	0.75402 0.97043 0.28705 -0.33700
F 	F 	0.74770 0.91180 0.29080 -0.29100
F 	F 	0.77160 0.86720 0.31580 -0.27900
F 	F 	0.85880 0.91710 0.31710 -0.28700
F 	F 	0.83450 0.96240 0.29310 -0.26400
C 	C 	0.77420 0.91370 0.29640 0.28800
C 	C 	0.78680 0.89080 0.30990 0.25700
C 	C 	0.81660 0.89190 0.31730 -0.37300
C 	C 	0.83110 0.91580 0.31110 0.25500
C 	C 	0.81850 0.93870 0.29760 0.25400
O 	O 	0.75402 0.47043 0.78705 -0.33800
F 	F 	0.74770 0.41180 0.79080 -0.29100
F 	F 	0.77160 0.36720 0.81580 -0.27900
F 	F 	0.85880 0.41710 0.81710 -0.28700
F 	F 	0.83450 0.46240 0.79310 -0.26400
C 	C 	0.77420 0.41370 0.79640 0.28800
C 	C 	0.78680 0.39080 0.80990 0.25700
C 	C 	0.81660 0.39190 0.81730 -0.37300
C 	C 	0.83110 0.41580 0.81110 0.25400
C 	C 	0.81850 0.43870 0.79760 0.25400
O 	O 	0.74598 0.97043 0.21295 -0.33700
F 	F 	0.75230 0.91180 0.20920 -0.29100
F 	F 	0.72840 0.86720 0.18420 -0.27900
F 	F 	0.64120 0.91710 0.18290 -0.28700
F 	F 	0.66550 0.96240 0.20690 -0.26400
C 	C 	0.72580 0.91370 0.20360 0.28800
C 	C 	0.71320 0.89080 0.19010 0.25700
C 	C 	0.68340 0.89190 0.18270 -0.37300
C 	C 	0.66890 0.91580 0.18890 0.25500
C 	C 	0.68150 0.93870 0.20240 0.25400
O 	O 	0.74598 0.47043 0.71295 -0.33800
F 	F 	0.75230 0.41180 0.70920 -0.29100
F 	F 	0.72840 0.36720 0.68420 -0.27900
F 	F 	0.64120 0.41710 0.68290 -0.28700
F 	F 	0.66550 0.46240 0.70690 -0.26400
C 	C 	0.72580 0.41370 0.70360 0.28800
C 	C 	0.71320 0.39080 0.69010 0.25700
C 	C 	0.68340 0.39190 0.68270 -0.37300
C 	C 	0.66890 0.41580 0.68890 0.25400
C 	C 	0.68150 0.43870 0.70240 0.25400
O 	O 	0.24598 0.97043 0.71295 -0.33700
F 	F 	0.25230 0.91180 0.70920 -0.29100
F 	F 	0.22840 0.86720 0.68420 -0.27900
F 	F 	0.14120 0.91710 0.68290 -0.28700
F 	F 	0.16550 0.96240 0.70690 -0.26400
C 	C 	0.22580 0.91370 0.70360 0.28800
C 	C 	0.21320 0.89080 0.69010 0.25700
C 	C 	0.18340 0.89190 0.68270 -0.37300
C 	C 	0.16890 0.91580 0.68890 0.25500
C 	C 	0.18150 0.93870 0.70240 0.25400
O 	O 	0.24598 0.47043 0.21295 -0.33800
F 	F 	0.25230 0.41180 0.20920 -0.29100
F 	F 	0.22840 0.36720 0.18420 -0.27900
F 	F 	0.14120 0.41710 0.18290 -0.28700
F 	F 	0.16550 0.46240 0.20690 -0.26400
C 	C 	0.22580 0.41370 0.20360 0.28800
C 	C 	0.21320 0.39080 0.19010 0.25700
C 	C 	0.18340 0.39190 0.18270 -0.37300
C 	C 	0.16890 0.41580 0.18890 0.25400
C 	C 	0.18150 0.43870 0.20240 0.25400
O 	O 	0.25402 0.21295 0.97043 -0.33800
F 	F 	0.24770 0.20920 0.91180 -0.29100
F 	F 	0.27160 0.18420 0.86720 -0.27900
F 	F 	0.35880 0.18290 0.91710 -0.28700
F 	F 	0.33450 0.20690 0.96240 -0.26400
C 	C 	0.27420 0.20360 0.91370 0.28800
C 	C 	0.28680 0.19010 0.89080 0.25700
C 	C 	0.31660 0.18270 0.89190 -0.37300
C 	C 	0.33110 0.18890 0.91580 0.25500
C 	C 	0.31850 0.20240 0.93870 0.25400
O 	O 	0.25402 0.71295 0.47043 -0.33800
F 	F 	0.24770 0.70920 0.41180 -0.29100
F 	F 	0.27160 0.68420 0.36720 -0.27900
F 	F 	0.35880 0.68290 0.41710 -0.28700
F 	F 	0.33450 0.70690 0.46240 -0.26400
C 	C 	0.27420 0.70360 0.41370 0.28800
C 	C 	0.28680 0.69010 0.39080 0.25700
C 	C 	0.31660 0.68270 0.39190 -0.37300
C 	C 	0.33110 0.68890 0.41580 0.25400
C 	C 	0.31850 0.70240 0.43870 0.25400
O 	O 	0.75402 0.21295 0.47043 -0.33800
F 	F 	0.74770 0.20920 0.41180 -0.29100
F 	F 	0.77160 0.18420 0.36720 -0.27900
F 	F 	0.85880 0.18290 0.41710 -0.28700
F 	F 	0.83450 0.20690 0.46240 -0.26400
C 	C 	0.77420 0.20360 0.41370 0.28800
C 	C 	0.78680 0.19010 0.39080 0.25700
C 	C 	0.81660 0.18270 0.39190 -0.37300
C 	C 	0.83110 0.18890 0.41580 0.25400
C 	C 	0.81850 0.20240 0.43870 0.25400
O 	O 	0.75402 0.71295 0.97043 -0.33700
F 	F 	0.74770 0.70920 0.91180 -0.29100
F 	F 	0.77160 0.68420 0.86720 -0.27900
F 	F 	0.85880 0.68290 0.91710 -0.28700
F 	F 	0.83450 0.70690 0.96240 -0.26400
C 	C 	0.77420 0.70360 0.91370 0.28800
C 	C 	0.78680 0.69010 0.89080 0.25700
C 	C 	0.81660 0.68270 0.89190 -0.37300
C 	C 	0.83110 0.68890 0.91580 0.25500
C 	C 	0.81850 0.70240 0.93870 0.25400
O 	O 	0.74598 0.78705 0.97043 -0.33700
F 	F 	0.75230 0.79080 0.91180 -0.29100
F 	F 	0.72840 0.81580 0.86720 -0.27900
F 	F 	0.64120 0.81710 0.91710 -0.28700
F 	F 	0.66550 0.79310 0.96240 -0.26400
C 	C 	0.72580 0.79640 0.91370 0.28800
C 	C 	0.71320 0.80990 0.89080 0.25700
C 	C 	0.68340 0.81730 0.89190 -0.37300
C 	C 	0.66890 0.81110 0.91580 0.25500
C 	C 	0.68150 0.79760 0.93870 0.25400
O 	O 	0.74598 0.28705 0.47043 -0.33800
F 	F 	0.75230 0.29080 0.41180 -0.29100
F 	F 	0.72840 0.31580 0.36720 -0.27900
F 	F 	0.64120 0.31710 0.41710 -0.28700
F 	F 	0.66550 0.29310 0.46240 -0.26400
C 	C 	0.72580 0.29640 0.41370 0.28800
C 	C 	0.71320 0.30990 0.39080 0.25700
C 	C 	0.68340 0.31730 0.39190 -0.37300
C 	C 	0.66890 0.31110 0.41580 0.25400
C 	C 	0.68150 0.29760 0.43870 0.25400
O 	O 	0.24598 0.78705 0.47043 -0.33800
F 	F 	0.25230 0.79080 0.41180 -0.29100
F 	F 	0.22840 0.81580 0.36720 -0.27900
F 	F 	0.14120 0.81710 0.41710 -0.28700
F 	F 	0.16550 0.79310 0.46240 -0.26400
C 	C 	0.22580 0.79640 0.41370 0.28800
C 	C 	0.21320 0.80990 0.39080 0.25700
C 	C 	0.18340 0.81730 0.39190 -0.37300
C 	C 	0.16890 0.81110 0.41580 0.25400
C 	C 	0.18150 0.79760 0.43870 0.25400
O 	O 	0.24598 0.28705 0.97043 -0.33700
F 	F 	0.25230 0.29080 0.91180 -0.29100
F 	F 	0.22840 0.31580 0.86720 -0.27900
F 	F 	0.14120 0.31710 0.91710 -0.28700
F 	F 	0.16550 0.29310 0.96240 -0.26400
C 	C 	0.22580 0.29640 0.91370 0.28800
C 	C 	0.21320 0.30990 0.89080 0.25700
C 	C 	0.18340 0.31730 0.89190 -0.37300
C 	C 	0.16890 0.31110 0.91580 0.25400
C 	C 	0.18150 0.29760 0.93870 0.25400
O 	O 	0.25402 0.78705 0.02957 -0.33800
F 	F 	0.24770 0.79080 0.08820 -0.29100
F 	F 	0.27160 0.81580 0.13280 -0.27900
F 	F 	0.35880 0.81710 0.08290 -0.28700
F 	F 	0.33450 0.79310 0.03760 -0.26400
C 	C 	0.27420 0.79640 0.08630 0.28800
C 	C 	0.28680 0.80990 0.10920 0.25700
C 	C 	0.31660 0.81730 0.10810 -0.37300
C 	C 	0.33110 0.81110 0.08420 0.25400
C 	C 	0.31850 0.79760 0.06130 0.25400
O 	O 	0.25402 0.28705 0.52957 -0.33800
F 	F 	0.24770 0.29080 0.58820 -0.29100
F 	F 	0.27160 0.31580 0.63280 -0.27900
F 	F 	0.35880 0.31710 0.58290 -0.28700
F 	F 	0.33450 0.29310 0.53760 -0.26400
C 	C 	0.27420 0.29640 0.58630 0.28800
C 	C 	0.28680 0.30990 0.60920 0.25700
C 	C 	0.31660 0.31730 0.60810 -0.37300
C 	C 	0.33110 0.31110 0.58420 0.25400
C 	C 	0.31850 0.29760 0.56130 0.25400
O 	O 	0.75402 0.78705 0.52957 -0.33800
F 	F 	0.74770 0.79080 0.58820 -0.29100
F 	F 	0.77160 0.81580 0.63280 -0.27900
F 	F 	0.85880 0.81710 0.58290 -0.28700
F 	F 	0.83450 0.79310 0.53760 -0.26400
C 	C 	0.77420 0.79640 0.58630 0.28800
C 	C 	0.78680 0.80990 0.60920 0.25700
C 	C 	0.81660 0.81730 0.60810 -0.37300
C 	C 	0.83110 0.81110 0.58420 0.25400
C 	C 	0.81850 0.79760 0.56130 0.25400
O 	O 	0.75402 0.28705 0.02957 -0.33800
F 	F 	0.74770 0.29080 0.08820 -0.29100
F 	F 	0.77160 0.31580 0.13280 -0.27900
F 	F 	0.85880 0.31710 0.08290 -0.28700
F 	F 	0.83450 0.29310 0.03760 -0.26400
C 	C 	0.77420 0.29640 0.08630 0.28800
C 	C 	0.78680 0.30990 0.10920 0.25700
C 	C 	0.81660 0.31730 0.10810 -0.37300
C 	C 	0.83110 0.31110 0.08420 0.25400
C 	C 	0.81850 0.29760 0.06130 0.25400
O 	O 	0.74598 0.21295 0.02957 -0.33800
F 	F 	0.75230 0.20920 0.08820 -0.29100
F 	F 	0.72840 0.18420 0.13280 -0.27900
F 	F 	0.64120 0.18290 0.08290 -0.28700
F 	F 	0.66550 0.20690 0.03760 -0.26500
C 	C 	0.72580 0.20360 0.08630 0.28800
C 	C 	0.71320 0.19010 0.10920 0.25700
C 	C 	0.68340 0.18270 0.10810 -0.37300
C 	C 	0.66890 0.18890 0.08420 0.25400
C 	C 	0.68150 0.20240 0.06130 0.25400
O 	O 	0.74598 0.71295 0.52957 -0.33800
F 	F 	0.75230 0.70920 0.58820 -0.29100
F 	F 	0.72840 0.68420 0.63280 -0.27900
F 	F 	0.64120 0.68290 0.58290 -0.28700
F 	F 	0.66550 0.70690 0.53760 -0.26400
C 	C 	0.72580 0.70360 0.58630 0.28800
C 	C 	0.71320 0.69010 0.60920 0.25700
C 	C 	0.68340 0.68270 0.60810 -0.37300
C 	C 	0.66890 0.68890 0.58420 0.25400
C 	C 	0.68150 0.70240 0.56130 0.25400
O 	O 	0.24598 0.21295 0.52957 -0.33800
F 	F 	0.25230 0.20920 0.58820 -0.29100
F 	F 	0.22840 0.18420 0.63280 -0.27900
F 	F 	0.14120 0.18290 0.58290 -0.28700
F 	F 	0.16550 0.20690 0.53760 -0.26400
C 	C 	0.22580 0.20360 0.58630 0.28800
C 	C 	0.21320 0.19010 0.60920 0.25700
C 	C 	0.18340 0.18270 0.60810 -0.37300
C 	C 	0.16890 0.18890 0.58420 0.25400
C 	C 	0.18150 0.20240 0.56130 0.25400
O 	O 	0.24598 0.71295 0.02957 -0.33800
F 	F 	0.25230 0.70920 0.08820 -0.29100
F 	F 	0.22840 0.68420 0.13280 -0.27900
F 	F 	0.14120 0.68290 0.08290 -0.28700
F 	F 	0.16550 0.70690 0.03760 -0.26500
C 	C 	0.22580 0.70360 0.08630 0.28800
C 	C 	0.21320 0.69010 0.10920 0.25700
C 	C 	0.18340 0.68270 0.10810 -0.37300
C 	C 	0.16890 0.68890 0.08420 0.25400
C 	C 	0.18150 0.70240 0.06130 0.25400
O 	O 	0.21295 0.02957 0.74598 -0.33800
F 	F 	0.20920 0.08820 0.75230 -0.29100
F 	F 	0.18420 0.13280 0.72840 -0.27900
F 	F 	0.18290 0.08290 0.64120 -0.28700
F 	F 	0.20690 0.03760 0.66550 -0.26500
C 	C 	0.20360 0.08630 0.72580 0.28800
C 	C 	0.19010 0.10920 0.71320 0.25700
C 	C 	0.18270 0.10810 0.68340 -0.37300
C 	C 	0.18890 0.08420 0.66890 0.25400
C 	C 	0.20240 0.06130 0.68150 0.25400
O 	O 	0.21295 0.52957 0.24598 -0.33800
F 	F 	0.20920 0.58820 0.25230 -0.29100
F 	F 	0.18420 0.63280 0.22840 -0.27900
F 	F 	0.18290 0.58290 0.14120 -0.28700
F 	F 	0.20690 0.53760 0.16550 -0.26400
C 	C 	0.20360 0.58630 0.22580 0.28800
C 	C 	0.19010 0.60920 0.21320 0.25700
C 	C 	0.18270 0.60810 0.18340 -0.37300
C 	C 	0.18890 0.58420 0.16890 0.25400
C 	C 	0.20240 0.56130 0.18150 0.25400
O 	O 	0.71295 0.02957 0.24598 -0.33800
F 	F 	0.70920 0.08820 0.25230 -0.29100
F 	F 	0.68420 0.13280 0.22840 -0.27900
F 	F 	0.68290 0.08290 0.14120 -0.28700
F 	F 	0.70690 0.03760 0.16550 -0.26500
C 	C 	0.70360 0.08630 0.22580 0.28800
C 	C 	0.69010 0.10920 0.21320 0.25700
C 	C 	0.68270 0.10810 0.18340 -0.37300
C 	C 	0.68890 0.08420 0.16890 0.25400
C 	C 	0.70240 0.06130 0.18150 0.25400
O 	O 	0.71295 0.52957 0.74598 -0.33800
F 	F 	0.70920 0.58820 0.75230 -0.29100
F 	F 	0.68420 0.63280 0.72840 -0.27900
F 	F 	0.68290 0.58290 0.64120 -0.28700
F 	F 	0.70690 0.53760 0.66550 -0.26400
C 	C 	0.70360 0.58630 0.72580 0.28800
C 	C 	0.69010 0.60920 0.71320 0.25700
C 	C 	0.68270 0.60810 0.68340 -0.37300
C 	C 	0.68890 0.58420 0.66890 0.25400
C 	C 	0.70240 0.56130 0.68150 0.25400
O 	O 	0.78705 0.02957 0.25402 -0.33800
F 	F 	0.79080 0.08820 0.24770 -0.29100
F 	F 	0.81580 0.13280 0.27160 -0.27900
F 	F 	0.81710 0.08290 0.35880 -0.28700
F 	F 	0.79310 0.03760 0.33450 -0.26400
C 	C 	0.79640 0.08630 0.27420 0.28800
C 	C 	0.80990 0.10920 0.28680 0.25700
C 	C 	0.81730 0.10810 0.31660 -0.37300
C 	C 	0.81110 0.08420 0.33110 0.25400
C 	C 	0.79760 0.06130 0.31850 0.25400
O 	O 	0.78705 0.52957 0.75402 -0.33800
F 	F 	0.79080 0.58820 0.74770 -0.29100
F 	F 	0.81580 0.63280 0.77160 -0.27900
F 	F 	0.81710 0.58290 0.85880 -0.28700
F 	F 	0.79310 0.53760 0.83450 -0.26400
C 	C 	0.79640 0.58630 0.77420 0.28800
C 	C 	0.80990 0.60920 0.78680 0.25700
C 	C 	0.81730 0.60810 0.81660 -0.37300
C 	C 	0.81110 0.58420 0.83110 0.25400
C 	C 	0.79760 0.56130 0.81850 0.25400
O 	O 	0.28705 0.02957 0.75402 -0.33800
F 	F 	0.29080 0.08820 0.74770 -0.29100
F 	F 	0.31580 0.13280 0.77160 -0.27900
F 	F 	0.31710 0.08290 0.85880 -0.28700
F 	F 	0.29310 0.03760 0.83450 -0.26400
C 	C 	0.29640 0.08630 0.77420 0.28800
C 	C 	0.30990 0.10920 0.78680 0.25700
C 	C 	0.31730 0.10810 0.81660 -0.37300
C 	C 	0.31110 0.08420 0.83110 0.25400
C 	C 	0.29760 0.06130 0.81850 0.25400
O 	O 	0.28705 0.52957 0.25402 -0.33800
F 	F 	0.29080 0.58820 0.24770 -0.29100
F 	F 	0.31580 0.63280 0.27160 -0.27900
F 	F 	0.31710 0.58290 0.35880 -0.28700
F 	F 	0.29310 0.53760 0.33450 -0.26400
C 	C 	0.29640 0.58630 0.27420 0.28800
C 	C 	0.30990 0.60920 0.28680 0.25700
C 	C 	0.31730 0.60810 0.31660 -0.37300
C 	C 	0.31110 0.58420 0.33110 0.25400
C 	C 	0.29760 0.56130 0.31850 0.25400
O 	O 	0.78705 0.97043 0.74598 -0.33700
F 	F 	0.79080 0.91180 0.75230 -0.29100
F 	F 	0.81580 0.86720 0.72840 -0.27900
F 	F 	0.81710 0.91710 0.64120 -0.28700
F 	F 	0.79310 0.96240 0.66550 -0.26400
C 	C 	0.79640 0.91370 0.72580 0.28800
C 	C 	0.80990 0.89080 0.71320 0.25700
C 	C 	0.81730 0.89190 0.68340 -0.37300
C 	C 	0.81110 0.91580 0.66890 0.25500
C 	C 	0.79760 0.93870 0.68150 0.25400
O 	O 	0.78705 0.47043 0.24598 -0.33800
F 	F 	0.79080 0.41180 0.25230 -0.29100
F 	F 	0.81580 0.36720 0.22840 -0.27900
F 	F 	0.81710 0.41710 0.14120 -0.28700
F 	F 	0.79310 0.46240 0.16550 -0.26400
C 	C 	0.79640 0.41370 0.22580 0.28800
C 	C 	0.80990 0.39080 0.21320 0.25700
C 	C 	0.81730 0.39190 0.18340 -0.37300
C 	C 	0.81110 0.41580 0.16890 0.25400
C 	C 	0.79760 0.43870 0.18150 0.25400
O 	O 	0.28705 0.97043 0.24598 -0.33700
F 	F 	0.29080 0.91180 0.25230 -0.29100
F 	F 	0.31580 0.86720 0.22840 -0.27900
F 	F 	0.31710 0.91710 0.14120 -0.28700
F 	F 	0.29310 0.96240 0.16550 -0.26400
C 	C 	0.29640 0.91370 0.22580 0.28800
C 	C 	0.30990 0.89080 0.21320 0.25700
C 	C 	0.31730 0.89190 0.18340 -0.37300
C 	C 	0.31110 0.91580 0.16890 0.25400
C 	C 	0.29760 0.93870 0.18150 0.25400
O 	O 	0.28705 0.47043 0.74598 -0.33800
F 	F 	0.29080 0.41180 0.75230 -0.29100
F 	F 	0.31580 0.36720 0.72840 -0.27900
F 	F 	0.31710 0.41710 0.64120 -0.28700
F 	F 	0.29310 0.46240 0.66550 -0.26400
C 	C 	0.29640 0.41370 0.72580 0.28800
C 	C 	0.30990 0.39080 0.71320 0.25700
C 	C 	0.31730 0.39190 0.68340 -0.37300
C 	C 	0.31110 0.41580 0.66890 0.25400
C 	C 	0.29760 0.43870 0.68150 0.25400
O 	O 	0.21295 0.97043 0.25402 -0.33800
F 	F 	0.20920 0.91180 0.24770 -0.29100
F 	F 	0.18420 0.86720 0.27160 -0.27900
F 	F 	0.18290 0.91710 0.35880 -0.28700
F 	F 	0.20690 0.96240 0.33450 -0.26400
C 	C 	0.20360 0.91370 0.27420 0.28800
C 	C 	0.19010 0.89080 0.28680 0.25700
C 	C 	0.18270 0.89190 0.31660 -0.37300
C 	C 	0.18890 0.91580 0.33110 0.25500
C 	C 	0.20240 0.93870 0.31850 0.25400
O 	O 	0.21295 0.47043 0.75402 -0.33800
F 	F 	0.20920 0.41180 0.74770 -0.29100
F 	F 	0.18420 0.36720 0.77160 -0.27900
F 	F 	0.18290 0.41710 0.85880 -0.28700
F 	F 	0.20690 0.46240 0.83450 -0.26400
C 	C 	0.20360 0.41370 0.77420 0.28800
C 	C 	0.19010 0.39080 0.78680 0.25700
C 	C 	0.18270 0.39190 0.81660 -0.37300
C 	C 	0.18890 0.41580 0.83110 0.25400
C 	C 	0.20240 0.43870 0.81850 0.25400
O 	O 	0.71295 0.97043 0.75402 -0.33700
F 	F 	0.70920 0.91180 0.74770 -0.29100
F 	F 	0.68420 0.86720 0.77160 -0.27900
F 	F 	0.68290 0.91710 0.85880 -0.28700
F 	F 	0.70690 0.96240 0.83450 -0.26400
C 	C 	0.70360 0.91370 0.77420 0.28800
C 	C 	0.69010 0.89080 0.78680 0.25700
C 	C 	0.68270 0.89190 0.81660 -0.37300
C 	C 	0.68890 0.91580 0.83110 0.25500
C 	C 	0.70240 0.93870 0.81850 0.25400
O 	O 	0.71295 0.47043 0.25402 -0.33800
F 	F 	0.70920 0.41180 0.24770 -0.29100
F 	F 	0.68420 0.36720 0.27160 -0.27900
F 	F 	0.68290 0.41710 0.35880 -0.28700
F 	F 	0.70690 0.46240 0.33450 -0.26400
C 	C 	0.70360 0.41370 0.27420 0.28800
C 	C 	0.69010 0.39080 0.28680 0.25700
C 	C 	0.68270 0.39190 0.31660 -0.37300
C 	C 	0.68890 0.41580 0.33110 0.25400
C 	C 	0.70240 0.43870 0.31850 0.25400
O 	O 	0.02957 0.25402 0.78705 -0.33800
F 	F 	0.08820 0.24770 0.79080 -0.29100
F 	F 	0.13280 0.27160 0.81580 -0.27900
F 	F 	0.08290 0.35880 0.81710 -0.28700
F 	F 	0.03760 0.33450 0.79310 -0.26400
C 	C 	0.08630 0.27420 0.79640 0.28800
C 	C 	0.10920 0.28680 0.80990 0.25700
C 	C 	0.10810 0.31660 0.81730 -0.37300
C 	C 	0.08420 0.33110 0.81110 0.25400
C 	C 	0.06130 0.31850 0.79760 0.25400
O 	O 	0.02957 0.75402 0.28705 -0.33800
F 	F 	0.08820 0.74770 0.29080 -0.29100
F 	F 	0.13280 0.77160 0.31580 -0.27900
F 	F 	0.08290 0.85880 0.31710 -0.28700
F 	F 	0.03760 0.83450 0.29310 -0.26400
C 	C 	0.08630 0.77420 0.29640 0.28800
C 	C 	0.10920 0.78680 0.30990 0.25700
C 	C 	0.10810 0.81660 0.31730 -0.37300
C 	C 	0.08420 0.83110 0.31110 0.25400
C 	C 	0.06130 0.81850 0.29760 0.25400
O 	O 	0.52957 0.25402 0.28705 -0.33800
F 	F 	0.58820 0.24770 0.29080 -0.29100
F 	F 	0.63280 0.27160 0.31580 -0.27900
F 	F 	0.58290 0.35880 0.31710 -0.28700
F 	F 	0.53760 0.33450 0.29310 -0.26400
C 	C 	0.58630 0.27420 0.29640 0.28800
C 	C 	0.60920 0.28680 0.30990 0.25700
C 	C 	0.60810 0.31660 0.31730 -0.37300
C 	C 	0.58420 0.33110 0.31110 0.25400
C 	C 	0.56130 0.31850 0.29760 0.25400
O 	O 	0.52957 0.75402 0.78705 -0.33800
F 	F 	0.58820 0.74770 0.79080 -0.29100
F 	F 	0.63280 0.77160 0.81580 -0.27900
F 	F 	0.58290 0.85880 0.81710 -0.28700
F 	F 	0.53760 0.83450 0.79310 -0.26400
C 	C 	0.58630 0.77420 0.79640 0.28800
C 	C 	0.60920 0.78680 0.80990 0.25700
C 	C 	0.60810 0.81660 0.81730 -0.37300
C 	C 	0.58420 0.83110 0.81110 0.25400
C 	C 	0.56130 0.81850 0.79760 0.25400
O 	O 	0.02957 0.74598 0.21295 -0.33800
F 	F 	0.08820 0.75230 0.20920 -0.29100
F 	F 	0.13280 0.72840 0.18420 -0.27900
F 	F 	0.08290 0.64120 0.18290 -0.28700
F 	F 	0.03760 0.66550 0.20690 -0.26500
C 	C 	0.08630 0.72580 0.20360 0.28800
C 	C 	0.10920 0.71320 0.19010 0.25700
C 	C 	0.10810 0.68340 0.18270 -0.37300
C 	C 	0.08420 0.66890 0.18890 0.25400
C 	C 	0.06130 0.68150 0.20240 0.25400
O 	O 	0.02957 0.24598 0.71295 -0.33800
F 	F 	0.08820 0.25230 0.70920 -0.29100
F 	F 	0.13280 0.22840 0.68420 -0.27900
F 	F 	0.08290 0.14120 0.68290 -0.28700
F 	F 	0.03760 0.16550 0.70690 -0.26500
C 	C 	0.08630 0.22580 0.70360 0.28800
C 	C 	0.10920 0.21320 0.69010 0.25700
C 	C 	0.10810 0.18340 0.68270 -0.37300
C 	C 	0.08420 0.16890 0.68890 0.25400
C 	C 	0.06130 0.18150 0.70240 0.25400
O 	O 	0.52957 0.74598 0.71295 -0.33800
F 	F 	0.58820 0.75230 0.70920 -0.29100
F 	F 	0.63280 0.72840 0.68420 -0.27900
F 	F 	0.58290 0.64120 0.68290 -0.28700
F 	F 	0.53760 0.66550 0.70690 -0.26400
C 	C 	0.58630 0.72580 0.70360 0.28800
C 	C 	0.60920 0.71320 0.69010 0.25700
C 	C 	0.60810 0.68340 0.68270 -0.37300
C 	C 	0.58420 0.66890 0.68890 0.25400
C 	C 	0.56130 0.68150 0.70240 0.25400
O 	O 	0.52957 0.24598 0.21295 -0.33800
F 	F 	0.58820 0.25230 0.20920 -0.29100
F 	F 	0.63280 0.22840 0.18420 -0.27900
F 	F 	0.58290 0.14120 0.18290 -0.28700
F 	F 	0.53760 0.16550 0.20690 -0.26400
C 	C 	0.58630 0.22580 0.20360 0.28800
C 	C 	0.60920 0.21320 0.19010 0.25700
C 	C 	0.60810 0.18340 0.18270 -0.37300
C 	C 	0.58420 0.16890 0.18890 0.25400
C 	C 	0.56130 0.18150 0.20240 0.25400
O 	O 	0.97043 0.25402 0.21295 -0.33800
F 	F 	0.91180 0.24770 0.20920 -0.29100
F 	F 	0.86720 0.27160 0.18420 -0.27900
F 	F 	0.91710 0.35880 0.18290 -0.28700
F 	F 	0.96240 0.33450 0.20690 -0.26400
C 	C 	0.91370 0.27420 0.20360 0.28800
C 	C 	0.89080 0.28680 0.19010 0.25700
C 	C 	0.89190 0.31660 0.18270 -0.37300
C 	C 	0.91580 0.33110 0.18890 0.25500
C 	C 	0.93870 0.31850 0.20240 0.25400
O 	O 	0.97043 0.75402 0.71295 -0.33700
F 	F 	0.91180 0.74770 0.70920 -0.29100
F 	F 	0.86720 0.77160 0.68420 -0.27900
F 	F 	0.91710 0.85880 0.68290 -0.28700
F 	F 	0.96240 0.83450 0.70690 -0.26400
C 	C 	0.91370 0.77420 0.70360 0.28800
C 	C 	0.89080 0.78680 0.69010 0.25700
C 	C 	0.89190 0.81660 0.68270 -0.37300
C 	C 	0.91580 0.83110 0.68890 0.25500
C 	C 	0.93870 0.81850 0.70240 0.25400
O 	O 	0.47043 0.25402 0.71295 -0.33800
F 	F 	0.41180 0.24770 0.70920 -0.29100
F 	F 	0.36720 0.27160 0.68420 -0.27900
F 	F 	0.41710 0.35880 0.68290 -0.28700
F 	F 	0.46240 0.33450 0.70690 -0.26400
C 	C 	0.41370 0.27420 0.70360 0.28800
C 	C 	0.39080 0.28680 0.69010 0.25700
C 	C 	0.39190 0.31660 0.68270 -0.37300
C 	C 	0.41580 0.33110 0.68890 0.25400
C 	C 	0.43870 0.31850 0.70240 0.25400
O 	O 	0.47043 0.75402 0.21295 -0.33800
F 	F 	0.41180 0.74770 0.20920 -0.29100
F 	F 	0.36720 0.77160 0.18420 -0.27900
F 	F 	0.41710 0.85880 0.18290 -0.28700
F 	F 	0.46240 0.83450 0.20690 -0.26400
C 	C 	0.41370 0.77420 0.20360 0.28800
C 	C 	0.39080 0.78680 0.19010 0.25700
C 	C 	0.39190 0.81660 0.18270 -0.37300
C 	C 	0.41580 0.83110 0.18890 0.25400
C 	C 	0.43870 0.81850 0.20240 0.25400
O 	O 	0.97043 0.74598 0.78705 -0.33700
F 	F 	0.91180 0.75230 0.79080 -0.29100
F 	F 	0.86720 0.72840 0.81580 -0.27900
F 	F 	0.91710 0.64120 0.81710 -0.28700
F 	F 	0.96240 0.66550 0.79310 -0.26400
C 	C 	0.91370 0.72580 0.79640 0.28800
C 	C 	0.89080 0.71320 0.80990 0.25700
C 	C 	0.89190 0.68340 0.81730 -0.37300
C 	C 	0.91580 0.66890 0.81110 0.25500
C 	C 	0.93870 0.68150 0.79760 0.25400
O 	O 	0.97043 0.24598 0.28705 -0.33700
F 	F 	0.91180 0.25230 0.29080 -0.29100
F 	F 	0.86720 0.22840 0.31580 -0.27900
F 	F 	0.91710 0.14120 0.31710 -0.28700
F 	F 	0.96240 0.16550 0.29310 -0.26400
C 	C 	0.91370 0.22580 0.29640 0.28800
C 	C 	0.89080 0.21320 0.30990 0.25700
C 	C 	0.89190 0.18340 0.31730 -0.37300
C 	C 	0.91580 0.16890 0.31110 0.25400
C 	C 	0.93870 0.18150 0.29760 0.25400
O 	O 	0.47043 0.74598 0.28705 -0.33800
F 	F 	0.41180 0.75230 0.29080 -0.29100
F 	F 	0.36720 0.72840 0.31580 -0.27900
F 	F 	0.41710 0.64120 0.31710 -0.28700
F 	F 	0.46240 0.66550 0.29310 -0.26400
C 	C 	0.41370 0.72580 0.29640 0.28800
C 	C 	0.39080 0.71320 0.30990 0.25700
C 	C 	0.39190 0.68340 0.31730 -0.37300
C 	C 	0.41580 0.66890 0.31110 0.25400
C 	C 	0.43870 0.68150 0.29760 0.25400
O 	O 	0.47043 0.24598 0.78705 -0.33800
F 	F 	0.41180 0.25230 0.79080 -0.29100
F 	F 	0.36720 0.22840 0.81580 -0.27900
F 	F 	0.41710 0.14120 0.81710 -0.28700
F 	F 	0.46240 0.16550 0.79310 -0.26400
C 	C 	0.41370 0.22580 0.79640 0.28800
C 	C 	0.39080 0.21320 0.80990 0.25700
C 	C 	0.39190 0.18340 0.81730 -0.37300
C 	C 	0.41580 0.16890 0.81110 0.25400
C 	C 	0.43870 0.18150 0.79760 0.25400
O 	O 	0.78705 0.74598 0.97043 -0.33800
F 	F 	0.79080 0.75230 0.91180 -0.29200
F 	F 	0.81580 0.72840 0.86720 -0.27800
F 	F 	0.81710 0.64120 0.91710 -0.28900
F 	F 	0.79310 0.66550 0.96240 -0.26300
C 	C 	0.79640 0.72580 0.91370 0.29100
C 	C 	0.80990 0.71320 0.89080 0.24800
C 	C 	0.81110 0.66890 0.91580 0.26800
C 	C 	0.79760 0.68150 0.93870 0.24900
O 	O 	0.78705 0.24598 0.47043 -0.33800
F 	F 	0.79080 0.25230 0.41180 -0.29200
F 	F 	0.81580 0.22840 0.36720 -0.27800
F 	F 	0.81710 0.14120 0.41710 -0.28900
F 	F 	0.79310 0.16550 0.46240 -0.26300
C 	C 	0.79640 0.22580 0.41370 0.29100
C 	C 	0.80990 0.21320 0.39080 0.24800
C 	C 	0.81110 0.16890 0.41580 0.26800
C 	C 	0.79760 0.18150 0.43870 0.24900
O 	O 	0.28705 0.74598 0.47043 -0.33800
F 	F 	0.29080 0.75230 0.41180 -0.29200
F 	F 	0.31580 0.72840 0.36720 -0.27800
F 	F 	0.31710 0.64120 0.41710 -0.28900
F 	F 	0.29310 0.66550 0.46240 -0.26300
C 	C 	0.29640 0.72580 0.41370 0.29100
C 	C 	0.30990 0.71320 0.39080 0.24800
C 	C 	0.31110 0.66890 0.41580 0.26800
C 	C 	0.29760 0.68150 0.43870 0.24900
O 	O 	0.28705 0.24598 0.97043 -0.33800
F 	F 	0.29080 0.25230 0.91180 -0.29200
F 	F 	0.31580 0.22840 0.86720 -0.27800
F 	F 	0.31710 0.14120 0.91710 -0.28900
F 	F 	0.29310 0.16550 0.96240 -0.26300
C 	C 	0.29640 0.22580 0.91370 0.29100
C 	C 	0.30990 0.21320 0.89080 0.24800
C 	C 	0.31110 0.16890 0.91580 0.26800
C 	C 	0.29760 0.18150 0.93870 0.24900
O 	O 	0.21295 0.25402 0.97043 -0.33800
F 	F 	0.20920 0.24770 0.91180 -0.29200
F 	F 	0.18420 0.27160 0.86720 -0.27800
F 	F 	0.18290 0.35880 0.91710 -0.28900
F 	F 	0.20690 0.33450 0.96240 -0.26300
C 	C 	0.20360 0.27420 0.91370 0.29100
C 	C 	0.19010 0.28680 0.89080 0.24800
C 	C 	0.18890 0.33110 0.91580 0.26800
C 	C 	0.20240 0.31850 0.93870 0.24900
O 	O 	0.21295 0.75402 0.47043 -0.33800
F 	F 	0.20920 0.74770 0.41180 -0.29200
F 	F 	0.18420 0.77160 0.36720 -0.27800
F 	F 	0.18290 0.85880 0.41710 -0.28900
F 	F 	0.20690 0.83450 0.46240 -0.26300
C 	C 	0.20360 0.77420 0.41370 0.29100
C 	C 	0.19010 0.78680 0.39080 0.24800
C 	C 	0.18890 0.83110 0.41580 0.26800
C 	C 	0.20240 0.81850 0.43870 0.24900
O 	O 	0.71295 0.25402 0.47043 -0.33800
F 	F 	0.70920 0.24770 0.41180 -0.29200
F 	F 	0.68420 0.27160 0.36720 -0.27800
F 	F 	0.68290 0.35880 0.41710 -0.28900
F 	F 	0.70690 0.33450 0.46240 -0.26300
C 	C 	0.70360 0.27420 0.41370 0.29100
C 	C 	0.69010 0.28680 0.39080 0.24800
C 	C 	0.68890 0.33110 0.41580 0.26800
C 	C 	0.70240 0.31850 0.43870 0.24900
O 	O 	0.71295 0.75402 0.97043 -0.33800
F 	F 	0.70920 0.74770 0.91180 -0.29200
F 	F 	0.68420 0.77160 0.86720 -0.27800
F 	F 	0.68290 0.85880 0.91710 -0.28900
F 	F 	0.70690 0.83450 0.96240 -0.26300
C 	C 	0.70360 0.77420 0.91370 0.29100
C 	C 	0.69010 0.78680 0.89080 0.24800
C 	C 	0.68890 0.83110 0.91580 0.26800
C 	C 	0.70240 0.81850 0.93870 0.24900
O 	O 	0.21295 0.74598 0.02957 -0.33900
F 	F 	0.20920 0.75230 0.08820 -0.29200
F 	F 	0.18420 0.72840 0.13280 -0.27800
F 	F 	0.18290 0.64120 0.08290 -0.28900
F 	F 	0.20690 0.66550 0.03760 -0.26400
C 	C 	0.20360 0.72580 0.08630 0.29100
C 	C 	0.19010 0.71320 0.10920 0.24800
C 	C 	0.18890 0.66890 0.08420 0.26800
C 	C 	0.20240 0.68150 0.06130 0.24900
O 	O 	0.21295 0.24598 0.52957 -0.33800
F 	F 	0.20920 0.25230 0.58820 -0.29200
F 	F 	0.18420 0.22840 0.63280 -0.27800
F 	F 	0.18290 0.14120 0.58290 -0.28900
F 	F 	0.20690 0.16550 0.53760 -0.26300
C 	C 	0.20360 0.22580 0.58630 0.29100
C 	C 	0.19010 0.21320 0.60920 0.24800
C 	C 	0.18890 0.16890 0.58420 0.26800
C 	C 	0.20240 0.18150 0.56130 0.24900
O 	O 	0.71295 0.74598 0.52957 -0.33800
F 	F 	0.70920 0.75230 0.58820 -0.29200
F 	F 	0.68420 0.72840 0.63280 -0.27800
F 	F 	0.68290 0.64120 0.58290 -0.28900
F 	F 	0.70690 0.66550 0.53760 -0.26300
C 	C 	0.70360 0.72580 0.58630 0.29100
C 	C 	0.69010 0.71320 0.60920 0.24800
C 	C 	0.68890 0.66890 0.58420 0.26800
C 	C 	0.70240 0.68150 0.56130 0.24900
O 	O 	0.71295 0.24598 0.02957 -0.33800
F 	F 	0.70920 0.25230 0.08820 -0.29200
F 	F 	0.68420 0.22840 0.13280 -0.27800
F 	F 	0.68290 0.14120 0.08290 -0.29000
F 	F 	0.70690 0.16550 0.03760 -0.26400
C 	C 	0.70360 0.22580 0.08630 0.29100
C 	C 	0.69010 0.21320 0.10920 0.24800
C 	C 	0.68890 0.16890 0.08420 0.26800
C 	C 	0.70240 0.18150 0.06130 0.24900
O 	O 	0.78705 0.25402 0.02957 -0.33800
F 	F 	0.79080 0.24770 0.08820 -0.29200
F 	F 	0.81580 0.27160 0.13280 -0.27800
F 	F 	0.81710 0.35880 0.08290 -0.28900
F 	F 	0.79310 0.33450 0.03760 -0.26400
C 	C 	0.79640 0.27420 0.08630 0.29100
C 	C 	0.80990 0.28680 0.10920 0.24800
C 	C 	0.81110 0.33110 0.08420 0.26800
C 	C 	0.79760 0.31850 0.06130 0.24900
O 	O 	0.78705 0.75402 0.52957 -0.33800
F 	F 	0.79080 0.74770 0.58820 -0.29200
F 	F 	0.81580 0.77160 0.63280 -0.27800
F 	F 	0.81710 0.85880 0.58290 -0.28900
F 	F 	0.79310 0.83450 0.53760 -0.26300
C 	C 	0.79640 0.77420 0.58630 0.29100
C 	C 	0.80990 0.78680 0.60920 0.24800
C 	C 	0.81110 0.83110 0.58420 0.26800
C 	C 	0.79760 0.81850 0.56130 0.24900
O 	O 	0.28705 0.25402 0.52957 -0.33800
F 	F 	0.29080 0.24770 0.58820 -0.29200
F 	F 	0.31580 0.27160 0.63280 -0.27800
F 	F 	0.31710 0.35880 0.58290 -0.28900
F 	F 	0.29310 0.33450 0.53760 -0.26300
C 	C 	0.29640 0.27420 0.58630 0.29100
C 	C 	0.30990 0.28680 0.60920 0.24800
C 	C 	0.31110 0.33110 0.58420 0.26800
C 	C 	0.29760 0.31850 0.56130 0.24900
O 	O 	0.28705 0.75402 0.02957 -0.33800
F 	F 	0.29080 0.74770 0.08820 -0.29200
F 	F 	0.31580 0.77160 0.13280 -0.27800
F 	F 	0.31710 0.85880 0.08290 -0.28900
F 	F 	0.29310 0.83450 0.03760 -0.26400
C 	C 	0.29640 0.77420 0.08630 0.29100
C 	C 	0.30990 0.78680 0.10920 0.24800
C 	C 	0.31110 0.83110 0.08420 0.26800
C 	C 	0.29760 0.81850 0.06130 0.24900
O 	O 	0.97043 0.78705 0.74598 -0.33800
F 	F 	0.91180 0.79080 0.75230 -0.29200
F 	F 	0.86720 0.81580 0.72840 -0.27800
F 	F 	0.91710 0.81710 0.64120 -0.28900
F 	F 	0.96240 0.79310 0.66550 -0.26300
C 	C 	0.91370 0.79640 0.72580 0.29100
C 	C 	0.89080 0.80990 0.71320 0.24800
C 	C 	0.91580 0.81110 0.66890 0.26800
C 	C 	0.93870 0.79760 0.68150 0.24900
O 	O 	0.97043 0.28705 0.24598 -0.33800
F 	F 	0.91180 0.29080 0.25230 -0.29200
F 	F 	0.86720 0.31580 0.22840 -0.27800
F 	F 	0.91710 0.31710 0.14120 -0.28900
F 	F 	0.96240 0.29310 0.16550 -0.26300
C 	C 	0.91370 0.29640 0.22580 0.29100
C 	C 	0.89080 0.30990 0.21320 0.24800
C 	C 	0.91580 0.31110 0.16890 0.26800
C 	C 	0.93870 0.29760 0.18150 0.24900
O 	O 	0.47043 0.78705 0.24598 -0.33800
F 	F 	0.41180 0.79080 0.25230 -0.29200
F 	F 	0.36720 0.81580 0.22840 -0.27800
F 	F 	0.41710 0.81710 0.14120 -0.28900
F 	F 	0.46240 0.79310 0.16550 -0.26300
C 	C 	0.41370 0.79640 0.22580 0.29100
C 	C 	0.39080 0.80990 0.21320 0.24800
C 	C 	0.41580 0.81110 0.16890 0.26800
C 	C 	0.43870 0.79760 0.18150 0.24900
O 	O 	0.47043 0.28705 0.74598 -0.33800
F 	F 	0.41180 0.29080 0.75230 -0.29200
F 	F 	0.36720 0.31580 0.72840 -0.27800
F 	F 	0.41710 0.31710 0.64120 -0.28900
F 	F 	0.46240 0.29310 0.66550 -0.26300
C 	C 	0.41370 0.29640 0.72580 0.29100
C 	C 	0.39080 0.30990 0.71320 0.24800
C 	C 	0.41580 0.31110 0.66890 0.26800
C 	C 	0.43870 0.29760 0.68150 0.24900
O 	O 	0.97043 0.21295 0.25402 -0.33800
F 	F 	0.91180 0.20920 0.24770 -0.29200
F 	F 	0.86720 0.18420 0.27160 -0.27800
F 	F 	0.91710 0.18290 0.35880 -0.28900
F 	F 	0.96240 0.20690 0.33450 -0.26300
C 	C 	0.91370 0.20360 0.27420 0.29100
C 	C 	0.89080 0.19010 0.28680 0.24800
C 	C 	0.91580 0.18890 0.33110 0.26800
C 	C 	0.93870 0.20240 0.31850 0.24900
O 	O 	0.97043 0.71295 0.75402 -0.33800
F 	F 	0.91180 0.70920 0.74770 -0.29200
F 	F 	0.86720 0.68420 0.77160 -0.27800
F 	F 	0.91710 0.68290 0.85880 -0.28900
F 	F 	0.96240 0.70690 0.83450 -0.26300
C 	C 	0.91370 0.70360 0.77420 0.29100
C 	C 	0.89080 0.69010 0.78680 0.24800
C 	C 	0.91580 0.68890 0.83110 0.26800
C 	C 	0.93870 0.70240 0.81850 0.24900
O 	O 	0.47043 0.21295 0.75402 -0.33800
F 	F 	0.41180 0.20920 0.74770 -0.29200
F 	F 	0.36720 0.18420 0.77160 -0.27800
F 	F 	0.41710 0.18290 0.85880 -0.28900
F 	F 	0.46240 0.20690 0.83450 -0.26300
C 	C 	0.41370 0.20360 0.77420 0.29100
C 	C 	0.39080 0.19010 0.78680 0.24800
C 	C 	0.41580 0.18890 0.83110 0.26800
C 	C 	0.43870 0.20240 0.81850 0.24900
O 	O 	0.47043 0.71295 0.25402 -0.33800
F 	F 	0.41180 0.70920 0.24770 -0.29200
F 	F 	0.36720 0.68420 0.27160 -0.27800
F 	F 	0.41710 0.68290 0.35880 -0.28900
F 	F 	0.46240 0.70690 0.33450 -0.26300
C 	C 	0.41370 0.70360 0.27420 0.29100
C 	C 	0.39080 0.69010 0.28680 0.24800
C 	C 	0.41580 0.68890 0.33110 0.26800
C 	C 	0.43870 0.70240 0.31850 0.24900
O 	O 	0.02957 0.21295 0.74598 -0.33900
F 	F 	0.08820 0.20920 0.75230 -0.29200
F 	F 	0.13280 0.18420 0.72840 -0.27800
F 	F 	0.08290 0.18290 0.64120 -0.28900
F 	F 	0.03760 0.20690 0.66550 -0.26400
C 	C 	0.08630 0.20360 0.72580 0.29100
C 	C 	0.10920 0.19010 0.71320 0.24800
C 	C 	0.08420 0.18890 0.66890 0.26800
C 	C 	0.06130 0.20240 0.68150 0.24900
O 	O 	0.02957 0.71295 0.24598 -0.33800
F 	F 	0.08820 0.70920 0.25230 -0.29200
F 	F 	0.13280 0.68420 0.22840 -0.27800
F 	F 	0.08290 0.68290 0.14120 -0.29000
F 	F 	0.03760 0.70690 0.16550 -0.26400
C 	C 	0.08630 0.70360 0.22580 0.29100
C 	C 	0.10920 0.69010 0.21320 0.24800
C 	C 	0.08420 0.68890 0.16890 0.26800
C 	C 	0.06130 0.70240 0.18150 0.24900
O 	O 	0.52957 0.21295 0.24598 -0.33800
F 	F 	0.58820 0.20920 0.25230 -0.29200
F 	F 	0.63280 0.18420 0.22840 -0.27800
F 	F 	0.58290 0.18290 0.14120 -0.28900
F 	F 	0.53760 0.20690 0.16550 -0.26300
C 	C 	0.58630 0.20360 0.22580 0.29100
C 	C 	0.60920 0.19010 0.21320 0.24800
C 	C 	0.58420 0.18890 0.16890 0.26800
C 	C 	0.56130 0.20240 0.18150 0.24900
O 	O 	0.52957 0.71295 0.74598 -0.33800
F 	F 	0.58820 0.70920 0.75230 -0.29200
F 	F 	0.63280 0.68420 0.72840 -0.27800
F 	F 	0.58290 0.68290 0.64120 -0.28900
F 	F 	0.53760 0.70690 0.66550 -0.26300
C 	C 	0.58630 0.70360 0.72580 0.29100
C 	C 	0.60920 0.69010 0.71320 0.24800
C 	C 	0.58420 0.68890 0.66890 0.26800
C 	C 	0.56130 0.70240 0.68150 0.24900
O 	O 	0.02957 0.78705 0.25402 -0.33800
F 	F 	0.08820 0.79080 0.24770 -0.29200
F 	F 	0.13280 0.81580 0.27160 -0.27800
F 	F 	0.08290 0.81710 0.35880 -0.28900
F 	F 	0.03760 0.79310 0.33450 -0.26400
C 	C 	0.08630 0.79640 0.27420 0.29100
C 	C 	0.10920 0.80990 0.28680 0.24800
C 	C 	0.08420 0.81110 0.33110 0.26800
C 	C 	0.06130 0.79760 0.31850 0.24900
O 	O 	0.02957 0.28705 0.75402 -0.33800
F 	F 	0.08820 0.29080 0.74770 -0.29200
F 	F 	0.13280 0.31580 0.77160 -0.27800
F 	F 	0.08290 0.31710 0.85880 -0.28900
F 	F 	0.03760 0.29310 0.83450 -0.26400
C 	C 	0.08630 0.29640 0.77420 0.29100
C 	C 	0.10920 0.30990 0.78680 0.24800
C 	C 	0.08420 0.31110 0.83110 0.26800
C 	C 	0.06130 0.29760 0.81850 0.24900
O 	O 	0.52957 0.78705 0.75402 -0.33800
F 	F 	0.58820 0.79080 0.74770 -0.29200
F 	F 	0.63280 0.81580 0.77160 -0.27800
F 	F 	0.58290 0.81710 0.85880 -0.28900
F 	F 	0.53760 0.79310 0.83450 -0.26300
C 	C 	0.58630 0.79640 0.77420 0.29100
C 	C 	0.60920 0.80990 0.78680 0.24800
C 	C 	0.58420 0.81110 0.83110 0.26800
C 	C 	0.56130 0.79760 0.81850 0.24900
O 	O 	0.52957 0.28705 0.25402 -0.33800
F 	F 	0.58820 0.29080 0.24770 -0.29200
F 	F 	0.63280 0.31580 0.27160 -0.27800
F 	F 	0.58290 0.31710 0.35880 -0.28900
F 	F 	0.53760 0.29310 0.33450 -0.26300
C 	C 	0.58630 0.29640 0.27420 0.29100
C 	C 	0.60920 0.30990 0.28680 0.24800
C 	C 	0.58420 0.31110 0.33110 0.26800
C 	C 	0.56130 0.29760 0.31850 0.24900
O 	O 	0.74598 0.97043 0.78705 -0.33800
F 	F 	0.75230 0.91180 0.79080 -0.29200
F 	F 	0.72840 0.86720 0.81580 -0.27800
F 	F 	0.64120 0.91710 0.81710 -0.28900
F 	F 	0.66550 0.96240 0.79310 -0.26300
C 	C 	0.72580 0.91370 0.79640 0.29100
C 	C 	0.71320 0.89080 0.80990 0.24800
C 	C 	0.66890 0.91580 0.81110 0.26800
C 	C 	0.68150 0.93870 0.79760 0.24900
O 	O 	0.74598 0.47043 0.28705 -0.33800
F 	F 	0.75230 0.41180 0.29080 -0.29200
F 	F 	0.72840 0.36720 0.31580 -0.27800
F 	F 	0.64120 0.41710 0.31710 -0.28900
F 	F 	0.66550 0.46240 0.29310 -0.26300
C 	C 	0.72580 0.41370 0.29640 0.29100
C 	C 	0.71320 0.39080 0.30990 0.24800
C 	C 	0.66890 0.41580 0.31110 0.26800
C 	C 	0.68150 0.43870 0.29760 0.24900
O 	O 	0.24598 0.97043 0.28705 -0.33800
F 	F 	0.25230 0.91180 0.29080 -0.29200
F 	F 	0.22840 0.86720 0.31580 -0.27800
F 	F 	0.14120 0.91710 0.31710 -0.28900
F 	F 	0.16550 0.96240 0.29310 -0.26300
C 	C 	0.22580 0.91370 0.29640 0.29100
C 	C 	0.21320 0.89080 0.30990 0.24800
C 	C 	0.16890 0.91580 0.31110 0.26800
C 	C 	0.18150 0.93870 0.29760 0.24900
O 	O 	0.24598 0.47043 0.78705 -0.33800
F 	F 	0.25230 0.41180 0.79080 -0.29200
F 	F 	0.22840 0.36720 0.81580 -0.27800
F 	F 	0.14120 0.41710 0.81710 -0.28900
F 	F 	0.16550 0.46240 0.79310 -0.26300
C 	C 	0.22580 0.41370 0.79640 0.29100
C 	C 	0.21320 0.39080 0.80990 0.24800
C 	C 	0.16890 0.41580 0.81110 0.26800
C 	C 	0.18150 0.43870 0.79760 0.24900
O 	O 	0.25402 0.97043 0.21295 -0.33800
F 	F 	0.24770 0.91180 0.20920 -0.29200
F 	F 	0.27160 0.86720 0.18420 -0.27800
F 	F 	0.35880 0.91710 0.18290 -0.28900
F 	F 	0.33450 0.96240 0.20690 -0.26300
C 	C 	0.27420 0.91370 0.20360 0.29100
C 	C 	0.28680 0.89080 0.19010 0.24800
C 	C 	0.33110 0.91580 0.18890 0.26800
C 	C 	0.31850 0.93870 0.20240 0.24900
O 	O 	0.25402 0.47043 0.71295 -0.33800
F 	F 	0.24770 0.41180 0.70920 -0.29200
F 	F 	0.27160 0.36720 0.68420 -0.27800
F 	F 	0.35880 0.41710 0.68290 -0.28900
F 	F 	0.33450 0.46240 0.70690 -0.26300
C 	C 	0.27420 0.41370 0.70360 0.29100
C 	C 	0.28680 0.39080 0.69010 0.24800
C 	C 	0.33110 0.41580 0.68890 0.26800
C 	C 	0.31850 0.43870 0.70240 0.24900
O 	O 	0.75402 0.97043 0.71295 -0.33800
F 	F 	0.74770 0.91180 0.70920 -0.29200
F 	F 	0.77160 0.86720 0.68420 -0.27800
F 	F 	0.85880 0.91710 0.68290 -0.28900
F 	F 	0.83450 0.96240 0.70690 -0.26300
C 	C 	0.77420 0.91370 0.70360 0.29100
C 	C 	0.78680 0.89080 0.69010 0.24800
C 	C 	0.83110 0.91580 0.68890 0.26800
C 	C 	0.81850 0.93870 0.70240 0.24900
O 	O 	0.75402 0.47043 0.21295 -0.33800
F 	F 	0.74770 0.41180 0.20920 -0.29200
F 	F 	0.77160 0.36720 0.18420 -0.27800
F 	F 	0.85880 0.41710 0.18290 -0.28900
F 	F 	0.83450 0.46240 0.20690 -0.26300
C 	C 	0.77420 0.41370 0.20360 0.29100
C 	C 	0.78680 0.39080 0.19010 0.24800
C 	C 	0.83110 0.41580 0.18890 0.26800
C 	C 	0.81850 0.43870 0.20240 0.24900
O 	O 	0.74598 0.02957 0.21295 -0.33900
F 	F 	0.75230 0.08820 0.20920 -0.29200
F 	F 	0.72840 0.13280 0.18420 -0.27800
F 	F 	0.64120 0.08290 0.18290 -0.28900
F 	F 	0.66550 0.03760 0.20690 -0.26400
C 	C 	0.72580 0.08630 0.20360 0.29100
C 	C 	0.71320 0.10920 0.19010 0.24800
C 	C 	0.66890 0.08420 0.18890 0.26800
C 	C 	0.68150 0.06130 0.20240 0.24900
O 	O 	0.74598 0.52957 0.71295 -0.33800
F 	F 	0.75230 0.58820 0.70920 -0.29200
F 	F 	0.72840 0.63280 0.68420 -0.27800
F 	F 	0.64120 0.58290 0.68290 -0.28900
F 	F 	0.66550 0.53760 0.70690 -0.26300
C 	C 	0.72580 0.58630 0.70360 0.29100
C 	C 	0.71320 0.60920 0.69010 0.24800
C 	C 	0.66890 0.58420 0.68890 0.26800
C 	C 	0.68150 0.56130 0.70240 0.24900
O 	O 	0.24598 0.02957 0.71295 -0.33800
F 	F 	0.25230 0.08820 0.70920 -0.29200
F 	F 	0.22840 0.13280 0.68420 -0.27800
F 	F 	0.14120 0.08290 0.68290 -0.29000
F 	F 	0.16550 0.03760 0.70690 -0.26400
C 	C 	0.22580 0.08630 0.70360 0.29100
C 	C 	0.21320 0.10920 0.69010 0.24800
C 	C 	0.16890 0.08420 0.68890 0.26800
C 	C 	0.18150 0.06130 0.70240 0.24900
O 	O 	0.24598 0.52957 0.21295 -0.33800
F 	F 	0.25230 0.58820 0.20920 -0.29200
F 	F 	0.22840 0.63280 0.18420 -0.27800
F 	F 	0.14120 0.58290 0.18290 -0.28900
F 	F 	0.16550 0.53760 0.20690 -0.26300
C 	C 	0.22580 0.58630 0.20360 0.29100
C 	C 	0.21320 0.60920 0.19010 0.24800
C 	C 	0.16890 0.58420 0.18890 0.26800
C 	C 	0.18150 0.56130 0.20240 0.24900
O 	O 	0.25402 0.02957 0.78705 -0.33800
F 	F 	0.24770 0.08820 0.79080 -0.29200
F 	F 	0.27160 0.13280 0.81580 -0.27800
F 	F 	0.35880 0.08290 0.81710 -0.28900
F 	F 	0.33450 0.03760 0.79310 -0.26400
C 	C 	0.27420 0.08630 0.79640 0.29100
C 	C 	0.28680 0.10920 0.80990 0.24800
C 	C 	0.33110 0.08420 0.81110 0.26800
C 	C 	0.31850 0.06130 0.79760 0.24900
O 	O 	0.25402 0.52957 0.28705 -0.33800
F 	F 	0.24770 0.58820 0.29080 -0.29200
F 	F 	0.27160 0.63280 0.31580 -0.27800
F 	F 	0.35880 0.58290 0.31710 -0.28900
F 	F 	0.33450 0.53760 0.29310 -0.26300
C 	C 	0.27420 0.58630 0.29640 0.29100
C 	C 	0.28680 0.60920 0.30990 0.24800
C 	C 	0.33110 0.58420 0.31110 0.26800
C 	C 	0.31850 0.56130 0.29760 0.24900
O 	O 	0.75402 0.02957 0.28705 -0.33800
F 	F 	0.74770 0.08820 0.29080 -0.29200
F 	F 	0.77160 0.13280 0.31580 -0.27800
F 	F 	0.85880 0.08290 0.31710 -0.28900
F 	F 	0.83450 0.03760 0.29310 -0.26400
C 	C 	0.77420 0.08630 0.29640 0.29100
C 	C 	0.78680 0.10920 0.30990 0.24800
C 	C 	0.83110 0.08420 0.31110 0.26800
C 	C 	0.81850 0.06130 0.29760 0.24900
O 	O 	0.75402 0.52957 0.78705 -0.33800
F 	F 	0.74770 0.58820 0.79080 -0.29200
F 	F 	0.77160 0.63280 0.81580 -0.27800
F 	F 	0.85880 0.58290 0.81710 -0.28900
F 	F 	0.83450 0.53760 0.79310 -0.26300
C 	C 	0.77420 0.58630 0.79640 0.29100
C 	C 	0.78680 0.60920 0.80990 0.24800
C 	C 	0.83110 0.58420 0.81110 0.26800
C 	C 	0.81850 0.56130 0.79760 0.24900
O 	O 	0.74598 0.78705 0.02957 -0.33800
F 	F 	0.75230 0.79080 0.08820 -0.29200
F 	F 	0.72840 0.81580 0.13280 -0.27800
F 	F 	0.64120 0.81710 0.08290 -0.28900
F 	F 	0.66550 0.79310 0.03760 -0.26400
C 	C 	0.72580 0.79640 0.08630 0.29100
C 	C 	0.71320 0.80990 0.10920 0.24800
C 	C 	0.66890 0.81110 0.08420 0.26800
C 	C 	0.68150 0.79760 0.06130 0.24900
O 	O 	0.74598 0.28705 0.52957 -0.33800
F 	F 	0.75230 0.29080 0.58820 -0.29200
F 	F 	0.72840 0.31580 0.63280 -0.27800
F 	F 	0.64120 0.31710 0.58290 -0.28900
F 	F 	0.66550 0.29310 0.53760 -0.26300
C 	C 	0.72580 0.29640 0.58630 0.29100
C 	C 	0.71320 0.30990 0.60920 0.24800
C 	C 	0.66890 0.31110 0.58420 0.26800
C 	C 	0.68150 0.29760 0.56130 0.24900
O 	O 	0.24598 0.78705 0.52957 -0.33800
F 	F 	0.25230 0.79080 0.58820 -0.29200
F 	F 	0.22840 0.81580 0.63280 -0.27800
F 	F 	0.14120 0.81710 0.58290 -0.28900
F 	F 	0.16550 0.79310 0.53760 -0.26300
C 	C 	0.22580 0.79640 0.58630 0.29100
C 	C 	0.21320 0.80990 0.60920 0.24800
C 	C 	0.16890 0.81110 0.58420 0.26800
C 	C 	0.18150 0.79760 0.56130 0.24900
O 	O 	0.24598 0.28705 0.02957 -0.33800
F 	F 	0.25230 0.29080 0.08820 -0.29200
F 	F 	0.22840 0.31580 0.13280 -0.27800
F 	F 	0.14120 0.31710 0.08290 -0.29000
F 	F 	0.16550 0.29310 0.03760 -0.26400
C 	C 	0.22580 0.29640 0.08630 0.29100
C 	C 	0.21320 0.30990 0.10920 0.24800
C 	C 	0.16890 0.31110 0.08420 0.26800
C 	C 	0.18150 0.29760 0.06130 0.24900
O 	O 	0.25402 0.21295 0.02957 -0.33900
F 	F 	0.24770 0.20920 0.08820 -0.29200
F 	F 	0.27160 0.18420 0.13280 -0.27800
F 	F 	0.35880 0.18290 0.08290 -0.28900
F 	F 	0.33450 0.20690 0.03760 -0.26400
C 	C 	0.27420 0.20360 0.08630 0.29100
C 	C 	0.28680 0.19010 0.10920 0.24800
C 	C 	0.33110 0.18890 0.08420 0.26800
C 	C 	0.31850 0.20240 0.06130 0.24900
O 	O 	0.25402 0.71295 0.52957 -0.33800
F 	F 	0.24770 0.70920 0.58820 -0.29200
F 	F 	0.27160 0.68420 0.63280 -0.27800
F 	F 	0.35880 0.68290 0.58290 -0.28900
F 	F 	0.33450 0.70690 0.53760 -0.26300
C 	C 	0.27420 0.70360 0.58630 0.29100
C 	C 	0.28680 0.69010 0.60920 0.24800
C 	C 	0.33110 0.68890 0.58420 0.26800
C 	C 	0.31850 0.70240 0.56130 0.24900
O 	O 	0.75402 0.21295 0.52957 -0.33800
F 	F 	0.74770 0.20920 0.58820 -0.29200
F 	F 	0.77160 0.18420 0.63280 -0.27800
F 	F 	0.85880 0.18290 0.58290 -0.28900
F 	F 	0.83450 0.20690 0.53760 -0.26300
C 	C 	0.77420 0.20360 0.58630 0.29100
C 	C 	0.78680 0.19010 0.60920 0.24800
C 	C 	0.83110 0.18890 0.58420 0.26800
C 	C 	0.81850 0.20240 0.56130 0.24900
O 	O 	0.75402 0.71295 0.02957 -0.33800
F 	F 	0.74770 0.70920 0.08820 -0.29200
F 	F 	0.77160 0.68420 0.13280 -0.27800
F 	F 	0.85880 0.68290 0.08290 -0.28900
F 	F 	0.83450 0.70690 0.03760 -0.26400
C 	C 	0.77420 0.70360 0.08630 0.29100
C 	C 	0.78680 0.69010 0.10920 0.24800
C 	C 	0.83110 0.68890 0.08420 0.26800
C 	C 	0.81850 0.70240 0.06130 0.24900
O 	O 	0.74598 0.21295 0.97043 -0.33800
F 	F 	0.75230 0.20920 0.91180 -0.29200
F 	F 	0.72840 0.18420 0.86720 -0.27800
F 	F 	0.64120 0.18290 0.91710 -0.28900
F 	F 	0.66550 0.20690 0.96240 -0.26300
C 	C 	0.72580 0.20360 0.91370 0.29100
C 	C 	0.71320 0.19010 0.89080 0.24800
C 	C 	0.66890 0.18890 0.91580 0.26800
C 	C 	0.68150 0.20240 0.93870 0.24900
O 	O 	0.74598 0.71295 0.47043 -0.33800
F 	F 	0.75230 0.70920 0.41180 -0.29200
F 	F 	0.72840 0.68420 0.36720 -0.27800
F 	F 	0.64120 0.68290 0.41710 -0.28900
F 	F 	0.66550 0.70690 0.46240 -0.26300
C 	C 	0.72580 0.70360 0.41370 0.29100
C 	C 	0.71320 0.69010 0.39080 0.24800
C 	C 	0.66890 0.68890 0.41580 0.26800
C 	C 	0.68150 0.70240 0.43870 0.24900
O 	O 	0.24598 0.21295 0.47043 -0.33800
F 	F 	0.25230 0.20920 0.41180 -0.29200
F 	F 	0.22840 0.18420 0.36720 -0.27800
F 	F 	0.14120 0.18290 0.41710 -0.28900
F 	F 	0.16550 0.20690 0.46240 -0.26300
C 	C 	0.22580 0.20360 0.41370 0.29100
C 	C 	0.21320 0.19010 0.39080 0.24800
C 	C 	0.16890 0.18890 0.41580 0.26800
C 	C 	0.18150 0.20240 0.43870 0.24900
O 	O 	0.24598 0.71295 0.97043 -0.33800
F 	F 	0.25230 0.70920 0.91180 -0.29200
F 	F 	0.22840 0.68420 0.86720 -0.27800
F 	F 	0.14120 0.68290 0.91710 -0.28900
F 	F 	0.16550 0.70690 0.96240 -0.26300
C 	C 	0.22580 0.70360 0.91370 0.29100
C 	C 	0.21320 0.69010 0.89080 0.24800
C 	C 	0.16890 0.68890 0.91580 0.26800
C 	C 	0.18150 0.70240 0.93870 0.24900
O 	O 	0.25402 0.78705 0.97043 -0.33800
F 	F 	0.24770 0.79080 0.91180 -0.29200
F 	F 	0.27160 0.81580 0.86720 -0.27800
F 	F 	0.35880 0.81710 0.91710 -0.28900
F 	F 	0.33450 0.79310 0.96240 -0.26300
C 	C 	0.27420 0.79640 0.91370 0.29100
C 	C 	0.28680 0.80990 0.89080 0.24800
C 	C 	0.33110 0.81110 0.91580 0.26800
C 	C 	0.31850 0.79760 0.93870 0.24900
O 	O 	0.25402 0.28705 0.47043 -0.33800
F 	F 	0.24770 0.29080 0.41180 -0.29200
F 	F 	0.27160 0.31580 0.36720 -0.27800
F 	F 	0.35880 0.31710 0.41710 -0.28900
F 	F 	0.33450 0.29310 0.46240 -0.26300
C 	C 	0.27420 0.29640 0.41370 0.29100
C 	C 	0.28680 0.30990 0.39080 0.24800
C 	C 	0.33110 0.31110 0.41580 0.26800
C 	C 	0.31850 0.29760 0.43870 0.24900
O 	O 	0.75402 0.78705 0.47043 -0.33800
F 	F 	0.74770 0.79080 0.41180 -0.29200
F 	F 	0.77160 0.81580 0.36720 -0.27800
F 	F 	0.85880 0.81710 0.41710 -0.28900
F 	F 	0.83450 0.79310 0.46240 -0.26300
C 	C 	0.77420 0.79640 0.41370 0.29100
C 	C 	0.78680 0.80990 0.39080 0.24800
C 	C 	0.83110 0.81110 0.41580 0.26800
C 	C 	0.81850 0.79760 0.43870 0.24900
O 	O 	0.75402 0.28705 0.97043 -0.33800
F 	F 	0.74770 0.29080 0.91180 -0.29200
F 	F 	0.77160 0.31580 0.86720 -0.27800
F 	F 	0.85880 0.31710 0.91710 -0.28900
F 	F 	0.83450 0.29310 0.96240 -0.26300
C 	C 	0.77420 0.29640 0.91370 0.29100
C 	C 	0.78680 0.30990 0.89080 0.24800
C 	C 	0.83110 0.31110 0.91580 0.26800
C 	C 	0.81850 0.29760 0.93870 0.24900
O 	O 	0.78705 0.97043 0.25402 -0.33800
F 	F 	0.79080 0.91180 0.24770 -0.29200
F 	F 	0.81580 0.86720 0.27160 -0.27800
F 	F 	0.81710 0.91710 0.35880 -0.28900
F 	F 	0.79310 0.96240 0.33450 -0.26300
C 	C 	0.79640 0.91370 0.27420 0.29100
C 	C 	0.80990 0.89080 0.28680 0.24800
C 	C 	0.81110 0.91580 0.33110 0.26800
C 	C 	0.79760 0.93870 0.31850 0.24900
O 	O 	0.78705 0.47043 0.75402 -0.33800
F 	F 	0.79080 0.41180 0.74770 -0.29200
F 	F 	0.81580 0.36720 0.77160 -0.27800
F 	F 	0.81710 0.41710 0.85880 -0.28900
F 	F 	0.79310 0.46240 0.83450 -0.26300
C 	C 	0.79640 0.41370 0.77420 0.29100
C 	C 	0.80990 0.39080 0.78680 0.24800
C 	C 	0.81110 0.41580 0.83110 0.26800
C 	C 	0.79760 0.43870 0.81850 0.24900
O 	O 	0.28705 0.97043 0.75402 -0.33800
F 	F 	0.29080 0.91180 0.74770 -0.29200
F 	F 	0.31580 0.86720 0.77160 -0.27800
F 	F 	0.31710 0.91710 0.85880 -0.28900
F 	F 	0.29310 0.96240 0.83450 -0.26300
C 	C 	0.29640 0.91370 0.77420 0.29100
C 	C 	0.30990 0.89080 0.78680 0.24800
C 	C 	0.31110 0.91580 0.83110 0.26800
C 	C 	0.29760 0.93870 0.81850 0.24900
O 	O 	0.28705 0.47043 0.25402 -0.33800
F 	F 	0.29080 0.41180 0.24770 -0.29200
F 	F 	0.31580 0.36720 0.27160 -0.27800
F 	F 	0.31710 0.41710 0.35880 -0.28900
F 	F 	0.29310 0.46240 0.33450 -0.26300
C 	C 	0.29640 0.41370 0.27420 0.29100
C 	C 	0.30990 0.39080 0.28680 0.24800
C 	C 	0.31110 0.41580 0.33110 0.26800
C 	C 	0.29760 0.43870 0.31850 0.24900
O 	O 	0.21295 0.97043 0.74598 -0.33800
F 	F 	0.20920 0.91180 0.75230 -0.29200
F 	F 	0.18420 0.86720 0.72840 -0.27800
F 	F 	0.18290 0.91710 0.64120 -0.28900
F 	F 	0.20690 0.96240 0.66550 -0.26300
C 	C 	0.20360 0.91370 0.72580 0.29100
C 	C 	0.19010 0.89080 0.71320 0.24800
C 	C 	0.18890 0.91580 0.66890 0.26800
C 	C 	0.20240 0.93870 0.68150 0.24900
O 	O 	0.21295 0.47043 0.24598 -0.33800
F 	F 	0.20920 0.41180 0.25230 -0.29200
F 	F 	0.18420 0.36720 0.22840 -0.27800
F 	F 	0.18290 0.41710 0.14120 -0.28900
F 	F 	0.20690 0.46240 0.16550 -0.26300
C 	C 	0.20360 0.41370 0.22580 0.29100
C 	C 	0.19010 0.39080 0.21320 0.24800
C 	C 	0.18890 0.41580 0.16890 0.26800
C 	C 	0.20240 0.43870 0.18150 0.24900
O 	O 	0.71295 0.97043 0.24598 -0.33800
F 	F 	0.70920 0.91180 0.25230 -0.29200
F 	F 	0.68420 0.86720 0.22840 -0.27800
F 	F 	0.68290 0.91710 0.14120 -0.28900
F 	F 	0.70690 0.96240 0.16550 -0.26300
C 	C 	0.70360 0.91370 0.22580 0.29100
C 	C 	0.69010 0.89080 0.21320 0.24800
C 	C 	0.68890 0.91580 0.16890 0.26800
C 	C 	0.70240 0.93870 0.18150 0.24900
O 	O 	0.71295 0.47043 0.74598 -0.33800
F 	F 	0.70920 0.41180 0.75230 -0.29200
F 	F 	0.68420 0.36720 0.72840 -0.27800
F 	F 	0.68290 0.41710 0.64120 -0.28900
F 	F 	0.70690 0.46240 0.66550 -0.26300
C 	C 	0.70360 0.41370 0.72580 0.29100
C 	C 	0.69010 0.39080 0.71320 0.24800
C 	C 	0.68890 0.41580 0.66890 0.26800
C 	C 	0.70240 0.43870 0.68150 0.24900
O 	O 	0.21295 0.02957 0.25402 -0.33900
F 	F 	0.20920 0.08820 0.24770 -0.29200
F 	F 	0.18420 0.13280 0.27160 -0.27800
F 	F 	0.18290 0.08290 0.35880 -0.28900
F 	F 	0.20690 0.03760 0.33450 -0.26400
C 	C 	0.20360 0.08630 0.27420 0.29100
C 	C 	0.19010 0.10920 0.28680 0.24800
C 	C 	0.18890 0.08420 0.33110 0.26800
C 	C 	0.20240 0.06130 0.31850 0.24900
O 	O 	0.21295 0.52957 0.75402 -0.33800
F 	F 	0.20920 0.58820 0.74770 -0.29200
F 	F 	0.18420 0.63280 0.77160 -0.27800
F 	F 	0.18290 0.58290 0.85880 -0.28900
F 	F 	0.20690 0.53760 0.83450 -0.26300
C 	C 	0.20360 0.58630 0.77420 0.29100
C 	C 	0.19010 0.60920 0.78680 0.24800
C 	C 	0.18890 0.58420 0.83110 0.26800
C 	C 	0.20240 0.56130 0.81850 0.24900
O 	O 	0.71295 0.02957 0.75402 -0.33800
F 	F 	0.70920 0.08820 0.74770 -0.29200
F 	F 	0.68420 0.13280 0.77160 -0.27800
F 	F 	0.68290 0.08290 0.85880 -0.28900
F 	F 	0.70690 0.03760 0.83450 -0.26400
C 	C 	0.70360 0.08630 0.77420 0.29100
C 	C 	0.69010 0.10920 0.78680 0.24800
C 	C 	0.68890 0.08420 0.83110 0.26800
C 	C 	0.70240 0.06130 0.81850 0.24900
O 	O 	0.71295 0.52957 0.25402 -0.33800
F 	F 	0.70920 0.58820 0.24770 -0.29200
F 	F 	0.68420 0.63280 0.27160 -0.27800
F 	F 	0.68290 0.58290 0.35880 -0.28900
F 	F 	0.70690 0.53760 0.33450 -0.26300
C 	C 	0.70360 0.58630 0.27420 0.29100
C 	C 	0.69010 0.60920 0.28680 0.24800
C 	C 	0.68890 0.58420 0.33110 0.26800
C 	C 	0.70240 0.56130 0.31850 0.24900
O 	O 	0.78705 0.02957 0.74598 -0.33800
F 	F 	0.79080 0.08820 0.75230 -0.29200
F 	F 	0.81580 0.13280 0.72840 -0.27800
F 	F 	0.81710 0.08290 0.64120 -0.28900
F 	F 	0.79310 0.03760 0.66550 -0.26400
C 	C 	0.79640 0.08630 0.72580 0.29100
C 	C 	0.80990 0.10920 0.71320 0.24800
C 	C 	0.81110 0.08420 0.66890 0.26800
C 	C 	0.79760 0.06130 0.68150 0.24900
O 	O 	0.78705 0.52957 0.24598 -0.33800
F 	F 	0.79080 0.58820 0.25230 -0.29200
F 	F 	0.81580 0.63280 0.22840 -0.27800
F 	F 	0.81710 0.58290 0.14120 -0.28900
F 	F 	0.79310 0.53760 0.16550 -0.26300
C 	C 	0.79640 0.58630 0.22580 0.29100
C 	C 	0.80990 0.60920 0.21320 0.24800
C 	C 	0.81110 0.58420 0.16890 0.26800
C 	C 	0.79760 0.56130 0.18150 0.24900
O 	O 	0.28705 0.02957 0.24598 -0.33800
F 	F 	0.29080 0.08820 0.25230 -0.29200
F 	F 	0.31580 0.13280 0.22840 -0.27800
F 	F 	0.31710 0.08290 0.14120 -0.29000
F 	F 	0.29310 0.03760 0.16550 -0.26400
C 	C 	0.29640 0.08630 0.22580 0.29100
C 	C 	0.30990 0.10920 0.21320 0.24800
C 	C 	0.31110 0.08420 0.16890 0.26800
C 	C 	0.29760 0.06130 0.18150 0.24900
O 	O 	0.28705 0.52957 0.74598 -0.33800
F 	F 	0.29080 0.58820 0.75230 -0.29200
F 	F 	0.31580 0.63280 0.72840 -0.27800
F 	F 	0.31710 0.58290 0.64120 -0.28900
F 	F 	0.29310 0.53760 0.66550 -0.26300
C 	C 	0.29640 0.58630 0.72580 0.29100
C 	C 	0.30990 0.60920 0.71320 0.24800
C 	C 	0.31110 0.58420 0.66890 0.26800
C 	C 	0.29760 0.56130 0.68150 0.24900
O 	O 	0.97043 0.74598 0.21295 -0.33800
F 	F 	0.91180 0.75230 0.20920 -0.29200
F 	F 	0.86720 0.72840 0.18420 -0.27800
F 	F 	0.91710 0.64120 0.18290 -0.28900
F 	F 	0.96240 0.66550 0.20690 -0.26300
C 	C 	0.91370 0.72580 0.20360 0.29100
C 	C 	0.89080 0.71320 0.19010 0.24800
C 	C 	0.91580 0.66890 0.18890 0.26800
C 	C 	0.93870 0.68150 0.20240 0.24900
O 	O 	0.97043 0.24598 0.71295 -0.33800
F 	F 	0.91180 0.25230 0.70920 -0.29200
F 	F 	0.86720 0.22840 0.68420 -0.27800
F 	F 	0.91710 0.14120 0.68290 -0.28900
F 	F 	0.96240 0.16550 0.70690 -0.26300
C 	C 	0.91370 0.22580 0.70360 0.29100
C 	C 	0.89080 0.21320 0.69010 0.24800
C 	C 	0.91580 0.16890 0.68890 0.26800
C 	C 	0.93870 0.18150 0.70240 0.24900
O 	O 	0.47043 0.74598 0.71295 -0.33800
F 	F 	0.41180 0.75230 0.70920 -0.29200
F 	F 	0.36720 0.72840 0.68420 -0.27800
F 	F 	0.41710 0.64120 0.68290 -0.28900
F 	F 	0.46240 0.66550 0.70690 -0.26300
C 	C 	0.41370 0.72580 0.70360 0.29100
C 	C 	0.39080 0.71320 0.69010 0.24800
C 	C 	0.41580 0.66890 0.68890 0.26800
C 	C 	0.43870 0.68150 0.70240 0.24900
O 	O 	0.47043 0.24598 0.21295 -0.33800
F 	F 	0.41180 0.25230 0.20920 -0.29200
F 	F 	0.36720 0.22840 0.18420 -0.27800
F 	F 	0.41710 0.14120 0.18290 -0.28900
F 	F 	0.46240 0.16550 0.20690 -0.26300
C 	C 	0.41370 0.22580 0.20360 0.29100
C 	C 	0.39080 0.21320 0.19010 0.24800
C 	C 	0.41580 0.16890 0.18890 0.26800
C 	C 	0.43870 0.18150 0.20240 0.24900
O 	O 	0.97043 0.25402 0.78705 -0.33800
F 	F 	0.91180 0.24770 0.79080 -0.29200
F 	F 	0.86720 0.27160 0.81580 -0.27800
F 	F 	0.91710 0.35880 0.81710 -0.28900
F 	F 	0.96240 0.33450 0.79310 -0.26300
C 	C 	0.91370 0.27420 0.79640 0.29100
C 	C 	0.89080 0.28680 0.80990 0.24800
C 	C 	0.91580 0.33110 0.81110 0.26800
C 	C 	0.93870 0.31850 0.79760 0.24900
O 	O 	0.97043 0.75402 0.28705 -0.33800
F 	F 	0.91180 0.74770 0.29080 -0.29200
F 	F 	0.86720 0.77160 0.31580 -0.27800
F 	F 	0.91710 0.85880 0.31710 -0.28900
F 	F 	0.96240 0.83450 0.29310 -0.26300
C 	C 	0.91370 0.77420 0.29640 0.29100
C 	C 	0.89080 0.78680 0.30990 0.24800
C 	C 	0.91580 0.83110 0.31110 0.26800
C 	C 	0.93870 0.81850 0.29760 0.24900
O 	O 	0.47043 0.25402 0.28705 -0.33800
F 	F 	0.41180 0.24770 0.29080 -0.29200
F 	F 	0.36720 0.27160 0.31580 -0.27800
F 	F 	0.41710 0.35880 0.31710 -0.28900
F 	F 	0.46240 0.33450 0.29310 -0.26300
C 	C 	0.41370 0.27420 0.29640 0.29100
C 	C 	0.39080 0.28680 0.30990 0.24800
C 	C 	0.41580 0.33110 0.31110 0.26800
C 	C 	0.43870 0.31850 0.29760 0.24900
O 	O 	0.47043 0.75402 0.78705 -0.33800
F 	F 	0.41180 0.74770 0.79080 -0.29200
F 	F 	0.36720 0.77160 0.81580 -0.27800
F 	F 	0.41710 0.85880 0.81710 -0.28900
F 	F 	0.46240 0.83450 0.79310 -0.26300
C 	C 	0.41370 0.77420 0.79640 0.29100
C 	C 	0.39080 0.78680 0.80990 0.24800
C 	C 	0.41580 0.83110 0.81110 0.26800
C 	C 	0.43870 0.81850 0.79760 0.24900
O 	O 	0.02957 0.74598 0.78705 -0.33800
F 	F 	0.08820 0.75230 0.79080 -0.29200
F 	F 	0.13280 0.72840 0.81580 -0.27800
F 	F 	0.08290 0.64120 0.81710 -0.28900
F 	F 	0.03760 0.66550 0.79310 -0.26400
C 	C 	0.08630 0.72580 0.79640 0.29100
C 	C 	0.10920 0.71320 0.80990 0.24800
C 	C 	0.08420 0.66890 0.81110 0.26800
C 	C 	0.06130 0.68150 0.79760 0.24900
O 	O 	0.02957 0.24598 0.28705 -0.33800
F 	F 	0.08820 0.25230 0.29080 -0.29200
F 	F 	0.13280 0.22840 0.31580 -0.27800
F 	F 	0.08290 0.14120 0.31710 -0.29000
F 	F 	0.03760 0.16550 0.29310 -0.26400
C 	C 	0.08630 0.22580 0.29640 0.29100
C 	C 	0.10920 0.21320 0.30990 0.24800
C 	C 	0.08420 0.16890 0.31110 0.26800
C 	C 	0.06130 0.18150 0.29760 0.24900
O 	O 	0.52957 0.74598 0.28705 -0.33800
F 	F 	0.58820 0.75230 0.29080 -0.29200
F 	F 	0.63280 0.72840 0.31580 -0.27800
F 	F 	0.58290 0.64120 0.31710 -0.28900
F 	F 	0.53760 0.66550 0.29310 -0.26300
C 	C 	0.58630 0.72580 0.29640 0.29100
C 	C 	0.60920 0.71320 0.30990 0.24800
C 	C 	0.58420 0.66890 0.31110 0.26800
C 	C 	0.56130 0.68150 0.29760 0.24900
O 	O 	0.52957 0.24598 0.78705 -0.33800
F 	F 	0.58820 0.25230 0.79080 -0.29200
F 	F 	0.63280 0.22840 0.81580 -0.27800
F 	F 	0.58290 0.14120 0.81710 -0.28900
F 	F 	0.53760 0.16550 0.79310 -0.26300
C 	C 	0.58630 0.22580 0.79640 0.29100
C 	C 	0.60920 0.21320 0.80990 0.24800
C 	C 	0.58420 0.16890 0.81110 0.26800
C 	C 	0.56130 0.18150 0.79760 0.24900
O 	O 	0.02957 0.25402 0.21295 -0.33900
F 	F 	0.08820 0.24770 0.20920 -0.29200
F 	F 	0.13280 0.27160 0.18420 -0.27800
F 	F 	0.08290 0.35880 0.18290 -0.28900
F 	F 	0.03760 0.33450 0.20690 -0.26400
C 	C 	0.08630 0.27420 0.20360 0.29100
C 	C 	0.10920 0.28680 0.19010 0.24800
C 	C 	0.08420 0.33110 0.18890 0.26800
C 	C 	0.06130 0.31850 0.20240 0.24900
O 	O 	0.02957 0.75402 0.71295 -0.33800
F 	F 	0.08820 0.74770 0.70920 -0.29200
F 	F 	0.13280 0.77160 0.68420 -0.27800
F 	F 	0.08290 0.85880 0.68290 -0.28900
F 	F 	0.03760 0.83450 0.70690 -0.26400
C 	C 	0.08630 0.77420 0.70360 0.29100
C 	C 	0.10920 0.78680 0.69010 0.24800
C 	C 	0.08420 0.83110 0.68890 0.26800
C 	C 	0.06130 0.81850 0.70240 0.24900
O 	O 	0.52957 0.25402 0.71295 -0.33800
F 	F 	0.58820 0.24770 0.70920 -0.29200
F 	F 	0.63280 0.27160 0.68420 -0.27800
F 	F 	0.58290 0.35880 0.68290 -0.28900
F 	F 	0.53760 0.33450 0.70690 -0.26300
C 	C 	0.58630 0.27420 0.70360 0.29100
C 	C 	0.60920 0.28680 0.69010 0.24800
C 	C 	0.58420 0.33110 0.68890 0.26800
C 	C 	0.56130 0.31850 0.70240 0.24900
O 	O 	0.52957 0.75402 0.21295 -0.33800
F 	F 	0.58820 0.74770 0.20920 -0.29200
F 	F 	0.63280 0.77160 0.18420 -0.27800
F 	F 	0.58290 0.85880 0.18290 -0.28900
F 	F 	0.53760 0.83450 0.20690 -0.26300
C 	C 	0.58630 0.77420 0.20360 0.29100
C 	C 	0.60920 0.78680 0.19010 0.24800
C 	C 	0.58420 0.83110 0.18890 0.26800
C 	C 	0.56130 0.81850 0.20240 0.24900
Cu	Cu	0.22988 0.22988 -0.00000 0.94700
Cu	Cu	0.22988 0.72988 0.50000 0.94700
Cu	Cu	0.72988 0.22988 0.50000 0.94700
Cu	Cu	0.72988 0.72988 -0.00000 0.94700
Cu	Cu	0.77012 0.77012 -0.00000 0.94700
Cu	Cu	0.77012 0.27012 0.50000 0.94700
Cu	Cu	0.27012 0.77012 0.50000 0.94700
Cu	Cu	0.27012 0.27012 -0.00000 0.94700
Cu	Cu	0.77012 0.22988 -0.00000 0.94700
Cu	Cu	0.77012 0.72988 0.50000 0.94700
Cu	Cu	0.27012 0.22988 0.50000 0.94700
Cu	Cu	0.27012 0.72988 -0.00000 0.94700
Cu	Cu	0.22988 0.77012 -0.00000 0.94700
Cu	Cu	0.22988 0.27012 0.50000 0.94700
Cu	Cu	0.72988 0.77012 0.50000 0.94700
Cu	Cu	0.72988 0.27012 -0.00000 0.94700
Cu	Cu	0.00000 0.22988 0.22988 0.94700
Cu	Cu	0.00000 0.72988 0.72988 0.94700
Cu	Cu	0.50000 0.22988 0.72988 0.94700
Cu	Cu	0.50000 0.72988 0.22988 0.94700
Cu	Cu	0.00000 0.77012 0.77012 0.94700
Cu	Cu	0.00000 0.27012 0.27012 0.94700
Cu	Cu	0.50000 0.77012 0.27012 0.94700
Cu	Cu	0.50000 0.27012 0.77012 0.94700
Cu	Cu	0.00000 0.77012 0.22988 0.94700
Cu	Cu	0.00000 0.27012 0.72988 0.94700
Cu	Cu	0.50000 0.77012 0.72988 0.94700
Cu	Cu	0.50000 0.27012 0.22988 0.94700
Cu	Cu	0.00000 0.22988 0.77012 0.94700
Cu	Cu	0.00000 0.72988 0.27012 0.94700
Cu	Cu	0.50000 0.22988 0.27012 0.94700
Cu	Cu	0.50000 0.72988 0.77012 0.94700
Cu	Cu	0.22988 0.00000 0.22988 0.94700
Cu	Cu	0.22988 0.50000 0.72988 0.94700
Cu	Cu	0.72988 0.00000 0.72988 0.94700
Cu	Cu	0.72988 0.50000 0.22988 0.94700
Cu	Cu	0.77012 0.00000 0.77012 0.94700
Cu	Cu	0.77012 0.50000 0.27012 0.94700
Cu	Cu	0.27012 0.00000 0.27012 0.94700
Cu	Cu	0.27012 0.50000 0.77012 0.94700
Cu	Cu	0.22988 0.00000 0.77012 0.94700
Cu	Cu	0.22988 0.50000 0.27012 0.94700
Cu	Cu	0.72988 0.00000 0.27012 0.94700
Cu	Cu	0.72988 0.50000 0.77012 0.94700
Cu	Cu	0.77012 0.00000 0.22988 0.94700
Cu	Cu	0.77012 0.50000 0.72988 0.94700
Cu	Cu	0.27012 0.00000 0.72988 0.94700
Cu	Cu	0.27012 0.50000 0.22988 0.94700
C 	C 	0.22496 0.27504 0.03820 0.56700
C 	C 	0.20972 0.29028 0.06240 -0.33500
C 	C 	0.16911 0.33089 0.13330 0.66400
C 	C 	0.22496 0.77504 0.53820 0.56700
C 	C 	0.20972 0.79028 0.56240 -0.33500
C 	C 	0.16911 0.83089 0.63330 0.66400
C 	C 	0.77504 0.72496 0.03820 0.56700
C 	C 	0.79028 0.70972 0.06240 -0.33500
C 	C 	0.83089 0.66911 0.13330 0.66400
C 	C 	0.77504 0.22496 0.53820 0.56700
C 	C 	0.79028 0.20972 0.56240 -0.33500
C 	C 	0.83089 0.16911 0.63330 0.66400
C 	C 	0.27504 0.22496 0.03820 0.56700
C 	C 	0.29028 0.20972 0.06240 -0.33500
C 	C 	0.33089 0.16911 0.13330 0.66400
C 	C 	0.77504 0.27504 0.96180 0.56700
C 	C 	0.79028 0.29028 0.93760 -0.33500
C 	C 	0.83089 0.33089 0.86670 0.66400
C 	C 	0.77504 0.77504 0.46180 0.56700
C 	C 	0.79028 0.79028 0.43760 -0.33500
C 	C 	0.83089 0.83089 0.36670 0.66400
C 	C 	0.27504 0.27504 0.46180 0.56700
C 	C 	0.29028 0.29028 0.43760 -0.33500
C 	C 	0.33089 0.33089 0.36670 0.66400
C 	C 	0.22496 0.72496 0.96180 0.56700
C 	C 	0.20972 0.70972 0.93760 -0.33500
C 	C 	0.16911 0.66911 0.86670 0.66400
C 	C 	0.22496 0.22496 0.46180 0.56700
C 	C 	0.20972 0.20972 0.43760 -0.33500
C 	C 	0.16911 0.16911 0.36670 0.66400
C 	C 	0.03820 0.22496 0.27504 0.56700
C 	C 	0.06240 0.20972 0.29028 -0.33500
C 	C 	0.13330 0.16911 0.33089 0.66400
C 	C 	0.53820 0.22496 0.77504 0.56700
C 	C 	0.56240 0.20972 0.79028 -0.33500
C 	C 	0.63330 0.16911 0.83089 0.66400
C 	C 	0.03820 0.77504 0.72496 0.56700
C 	C 	0.06240 0.79028 0.70972 -0.33500
C 	C 	0.13330 0.83089 0.66911 0.66400
C 	C 	0.03820 0.27504 0.22496 0.56700
C 	C 	0.06240 0.29028 0.20972 -0.33500
C 	C 	0.13330 0.33089 0.16911 0.66400
C 	C 	0.53820 0.77504 0.22496 0.56700
C 	C 	0.56240 0.79028 0.20972 -0.33500
C 	C 	0.63330 0.83089 0.16911 0.66400
C 	C 	0.96180 0.77504 0.27504 0.56700
C 	C 	0.93760 0.79028 0.29028 -0.33500
C 	C 	0.86670 0.83089 0.33089 0.66400
C 	C 	0.46180 0.77504 0.77504 0.56700
C 	C 	0.43760 0.79028 0.79028 -0.33500
C 	C 	0.36670 0.83089 0.83089 0.66400
C 	C 	0.46180 0.27504 0.27504 0.56700
C 	C 	0.43760 0.29028 0.29028 -0.33500
C 	C 	0.36670 0.33089 0.33089 0.66400
C 	C 	0.96180 0.22496 0.72496 0.56700
C 	C 	0.93760 0.20972 0.70972 -0.33500
C 	C 	0.86670 0.16911 0.66911 0.66400
C 	C 	0.46180 0.22496 0.22496 0.56700
C 	C 	0.43760 0.20972 0.20972 -0.33500
C 	C 	0.36670 0.16911 0.16911 0.66400
C 	C 	0.27504 0.03820 0.22496 0.56700
C 	C 	0.29028 0.06240 0.20972 -0.33500
C 	C 	0.33089 0.13330 0.16911 0.66400
C 	C 	0.27504 0.53820 0.72496 0.56700
C 	C 	0.29028 0.56240 0.70972 -0.33500
C 	C 	0.33089 0.63330 0.66911 0.66400
C 	C 	0.72496 0.03820 0.77504 0.56700
C 	C 	0.70972 0.06240 0.79028 -0.33500
C 	C 	0.66911 0.13330 0.83089 0.66400
C 	C 	0.72496 0.53820 0.27504 0.56700
C 	C 	0.70972 0.56240 0.29028 -0.33500
C 	C 	0.66911 0.63330 0.33089 0.66400
C 	C 	0.22496 0.03820 0.27504 0.56700
C 	C 	0.20972 0.06240 0.29028 -0.33500
C 	C 	0.16911 0.13330 0.33089 0.66400
C 	C 	0.27504 0.96180 0.77504 0.56700
C 	C 	0.29028 0.93760 0.79028 -0.33500
C 	C 	0.33089 0.86670 0.83089 0.66400
C 	C 	0.27504 0.46180 0.27504 0.56700
C 	C 	0.29028 0.43760 0.29028 -0.33500
C 	C 	0.33089 0.36670 0.33089 0.66400
C 	C 	0.72496 0.96180 0.22496 0.56700
C 	C 	0.70972 0.93760 0.20972 -0.33500
C 	C 	0.66911 0.86670 0.16911 0.66400
C 	C 	0.72496 0.46180 0.72496 0.56700
C 	C 	0.70972 0.43760 0.70972 -0.33500
C 	C 	0.66911 0.36670 0.66911 0.66400
C 	C 	0.22496 0.46180 0.22496 0.56700
C 	C 	0.20972 0.43760 0.20972 -0.33500
C 	C 	0.16911 0.36670 0.16911 0.66400
C 	C 	0.27504 0.22496 0.96180 0.56700
C 	C 	0.29028 0.20972 0.93760 -0.33500
C 	C 	0.33089 0.16911 0.86670 0.66400
C 	C 	0.27504 0.72496 0.46180 0.56700
C 	C 	0.29028 0.70972 0.43760 -0.33500
C 	C 	0.33089 0.66911 0.36670 0.66400
C 	C 	0.72496 0.77504 0.96180 0.56700
C 	C 	0.70972 0.79028 0.93760 -0.33500
C 	C 	0.66911 0.83089 0.86670 0.66400
C 	C 	0.72496 0.27504 0.46180 0.56700
C 	C 	0.70972 0.29028 0.43760 -0.33500
C 	C 	0.66911 0.33089 0.36670 0.66400
C 	C 	0.22496 0.27504 0.96180 0.56700
C 	C 	0.20972 0.29028 0.93760 -0.33500
C 	C 	0.16911 0.33089 0.86670 0.66400
C 	C 	0.27504 0.77504 0.03820 0.56700
C 	C 	0.29028 0.79028 0.06240 -0.33500
C 	C 	0.33089 0.83089 0.13330 0.66400
C 	C 	0.27504 0.27504 0.53820 0.56700
C 	C 	0.29028 0.29028 0.56240 -0.33500
C 	C 	0.33089 0.33089 0.63330 0.66400
C 	C 	0.72496 0.22496 0.03820 0.56700
C 	C 	0.70972 0.20972 0.06240 -0.33500
C 	C 	0.66911 0.16911 0.13330 0.66400
C 	C 	0.72496 0.72496 0.53820 0.56700
C 	C 	0.70972 0.70972 0.56240 -0.33500
C 	C 	0.66911 0.66911 0.63330 0.66400
C 	C 	0.22496 0.22496 0.53820 0.56700
C 	C 	0.20972 0.20972 0.56240 -0.33500
C 	C 	0.16911 0.16911 0.63330 0.66400
C 	C 	0.22496 0.03820 0.72496 0.56700
C 	C 	0.20972 0.06240 0.70972 -0.33500
C 	C 	0.16911 0.13330 0.66911 0.66400
C 	C 	0.22496 0.53820 0.22496 0.56700
C 	C 	0.20972 0.56240 0.20972 -0.33500
C 	C 	0.16911 0.63330 0.16911 0.66400
C 	C 	0.77504 0.03820 0.27504 0.56700
C 	C 	0.79028 0.06240 0.29028 -0.33500
C 	C 	0.83089 0.13330 0.33089 0.66400
C 	C 	0.77504 0.53820 0.77504 0.56700
C 	C 	0.79028 0.56240 0.79028 -0.33500
C 	C 	0.83089 0.63330 0.83089 0.66400
C 	C 	0.27504 0.53820 0.27504 0.56700
C 	C 	0.29028 0.56240 0.29028 -0.33500
C 	C 	0.33089 0.63330 0.33089 0.66400
C 	C 	0.77504 0.96180 0.72496 0.56700
C 	C 	0.79028 0.93760 0.70972 -0.33500
C 	C 	0.83089 0.86670 0.66911 0.66400
C 	C 	0.77504 0.46180 0.22496 0.56700
C 	C 	0.79028 0.43760 0.20972 -0.33500
C 	C 	0.83089 0.36670 0.16911 0.66400
C 	C 	0.27504 0.96180 0.22496 0.56700
C 	C 	0.29028 0.93760 0.20972 -0.33500
C 	C 	0.33089 0.86670 0.16911 0.66400
C 	C 	0.22496 0.96180 0.27504 0.56700
C 	C 	0.20972 0.93760 0.29028 -0.33500
C 	C 	0.16911 0.86670 0.33089 0.66400
C 	C 	0.22496 0.46180 0.77504 0.56700
C 	C 	0.20972 0.43760 0.79028 -0.33500
C 	C 	0.16911 0.36670 0.83089 0.66400
C 	C 	0.03820 0.27504 0.77504 0.56700
C 	C 	0.06240 0.29028 0.79028 -0.33500
C 	C 	0.13330 0.33089 0.83089 0.66400
C 	C 	0.53820 0.27504 0.27504 0.56700
C 	C 	0.56240 0.29028 0.29028 -0.33500
C 	C 	0.63330 0.33089 0.33089 0.66400
C 	C 	0.03820 0.72496 0.22496 0.56700
C 	C 	0.06240 0.70972 0.20972 -0.33500
C 	C 	0.13330 0.66911 0.16911 0.66400
C 	C 	0.53820 0.72496 0.72496 0.56700
C 	C 	0.56240 0.70972 0.70972 -0.33500
C 	C 	0.63330 0.66911 0.66911 0.66400
C 	C 	0.53820 0.22496 0.22496 0.56700
C 	C 	0.56240 0.20972 0.20972 -0.33500
C 	C 	0.63330 0.16911 0.16911 0.66400
C 	C 	0.96180 0.27504 0.22496 0.56700
C 	C 	0.93760 0.29028 0.20972 -0.33500
C 	C 	0.86670 0.33089 0.16911 0.66400
C 	C 	0.46180 0.27504 0.72496 0.56700
C 	C 	0.43760 0.29028 0.70972 -0.33500
C 	C 	0.36670 0.33089 0.66911 0.66400
C 	C 	0.96180 0.72496 0.77504 0.56700
C 	C 	0.93760 0.70972 0.79028 -0.33500
C 	C 	0.86670 0.66911 0.83089 0.66400
C 	C 	0.96180 0.22496 0.27504 0.56700
C 	C 	0.93760 0.20972 0.29028 -0.33500
C 	C 	0.86670 0.16911 0.33089 0.66400
C 	C 	0.46180 0.72496 0.27504 0.56700
C 	C 	0.43760 0.70972 0.29028 -0.33500
C 	C 	0.36670 0.66911 0.33089 0.66400
C 	C 	0.77504 0.72496 0.96180 0.56700
C 	C 	0.79028 0.70972 0.93760 -0.33500
C 	C 	0.83089 0.66911 0.86670 0.66400
C 	C 	0.77504 0.22496 0.46180 0.56700
C 	C 	0.79028 0.20972 0.43760 -0.33500
C 	C 	0.83089 0.16911 0.36670 0.66400
C 	C 	0.22496 0.77504 0.46180 0.56700
C 	C 	0.20972 0.79028 0.43760 -0.33500
C 	C 	0.16911 0.83089 0.36670 0.66400
C 	C 	0.22496 0.72496 0.03820 0.56700
C 	C 	0.20972 0.70972 0.06240 -0.33500
C 	C 	0.16911 0.66911 0.13330 0.66400
C 	C 	0.77504 0.27504 0.03820 0.56700
C 	C 	0.79028 0.29028 0.06240 -0.33500
C 	C 	0.83089 0.33089 0.13330 0.66400
C 	C 	0.77504 0.77504 0.53820 0.56700
C 	C 	0.79028 0.79028 0.56240 -0.33500
C 	C 	0.83089 0.83089 0.63330 0.66400
C 	C 	0.96180 0.77504 0.72496 0.56700
C 	C 	0.93760 0.79028 0.70972 -0.33500
C 	C 	0.86670 0.83089 0.66911 0.66400
C 	C 	0.46180 0.77504 0.22496 0.56700
C 	C 	0.43760 0.79028 0.20972 -0.33500
C 	C 	0.36670 0.83089 0.16911 0.66400
C 	C 	0.46180 0.22496 0.77504 0.56700
C 	C 	0.43760 0.20972 0.79028 -0.33500
C 	C 	0.36670 0.16911 0.83089 0.66400
C 	C 	0.03820 0.22496 0.72496 0.56700
C 	C 	0.06240 0.20972 0.70972 -0.33500
C 	C 	0.13330 0.16911 0.66911 0.66400
C 	C 	0.03820 0.77504 0.27504 0.56700
C 	C 	0.06240 0.79028 0.29028 -0.33500
C 	C 	0.13330 0.83089 0.33089 0.66400
C 	C 	0.53820 0.77504 0.77504 0.56700
C 	C 	0.56240 0.79028 0.79028 -0.33500
C 	C 	0.63330 0.83089 0.83089 0.66400
C 	C 	0.72496 0.96180 0.77504 0.56700
C 	C 	0.70972 0.93760 0.79028 -0.33500
C 	C 	0.66911 0.86670 0.83089 0.66400
C 	C 	0.72496 0.46180 0.27504 0.56700
C 	C 	0.70972 0.43760 0.29028 -0.33500
C 	C 	0.66911 0.36670 0.33089 0.66400
C 	C 	0.27504 0.46180 0.72496 0.56700
C 	C 	0.29028 0.43760 0.70972 -0.33500
C 	C 	0.33089 0.36670 0.66911 0.66400
C 	C 	0.72496 0.03820 0.22496 0.56700
C 	C 	0.70972 0.06240 0.20972 -0.33500
C 	C 	0.66911 0.13330 0.16911 0.66400
C 	C 	0.72496 0.53820 0.72496 0.56700
C 	C 	0.70972 0.56240 0.70972 -0.33500
C 	C 	0.66911 0.63330 0.66911 0.66400
C 	C 	0.27504 0.03820 0.77504 0.56700
C 	C 	0.29028 0.06240 0.79028 -0.33500
C 	C 	0.33089 0.13330 0.83089 0.66400
C 	C 	0.72496 0.77504 0.03820 0.56700
C 	C 	0.70972 0.79028 0.06240 -0.33500
C 	C 	0.66911 0.83089 0.13330 0.66400
C 	C 	0.72496 0.27504 0.53820 0.56700
C 	C 	0.70972 0.29028 0.56240 -0.33500
C 	C 	0.66911 0.33089 0.63330 0.66400
C 	C 	0.27504 0.72496 0.53820 0.56700
C 	C 	0.29028 0.70972 0.56240 -0.33500
C 	C 	0.33089 0.66911 0.63330 0.66400
C 	C 	0.72496 0.22496 0.96180 0.56700
C 	C 	0.70972 0.20972 0.93760 -0.33500
C 	C 	0.66911 0.16911 0.86670 0.66400
C 	C 	0.72496 0.72496 0.46180 0.56700
C 	C 	0.70972 0.70972 0.43760 -0.33500
C 	C 	0.66911 0.66911 0.36670 0.66400
C 	C 	0.27504 0.77504 0.96180 0.56700
C 	C 	0.29028 0.79028 0.93760 -0.33500
C 	C 	0.33089 0.83089 0.86670 0.66400
C 	C 	0.77504 0.96180 0.27504 0.56700
C 	C 	0.79028 0.93760 0.29028 -0.33500
C 	C 	0.83089 0.86670 0.33089 0.66400
C 	C 	0.77504 0.46180 0.77504 0.56700
C 	C 	0.79028 0.43760 0.79028 -0.33500
C 	C 	0.83089 0.36670 0.83089 0.66400
C 	C 	0.22496 0.96180 0.72496 0.56700
C 	C 	0.20972 0.93760 0.70972 -0.33500
C 	C 	0.16911 0.86670 0.66911 0.66400
C 	C 	0.22496 0.53820 0.77504 0.56700
C 	C 	0.20972 0.56240 0.79028 -0.33500
C 	C 	0.16911 0.63330 0.83089 0.66400
C 	C 	0.77504 0.03820 0.72496 0.56700
C 	C 	0.79028 0.06240 0.70972 -0.33500
C 	C 	0.83089 0.13330 0.66911 0.66400
C 	C 	0.77504 0.53820 0.22496 0.56700
C 	C 	0.79028 0.56240 0.20972 -0.33500
C 	C 	0.83089 0.63330 0.16911 0.66400
C 	C 	0.96180 0.72496 0.22496 0.56700
C 	C 	0.93760 0.70972 0.20972 -0.33500
C 	C 	0.86670 0.66911 0.16911 0.66400
C 	C 	0.46180 0.72496 0.72496 0.56700
C 	C 	0.43760 0.70972 0.70972 -0.33500
C 	C 	0.36670 0.66911 0.66911 0.66400
C 	C 	0.96180 0.27504 0.77504 0.56700
C 	C 	0.93760 0.29028 0.79028 -0.33500
C 	C 	0.86670 0.33089 0.83089 0.66400
C 	C 	0.03820 0.72496 0.77504 0.56700
C 	C 	0.06240 0.70972 0.79028 -0.33500
C 	C 	0.13330 0.66911 0.83089 0.66400
C 	C 	0.53820 0.72496 0.27504 0.56700
C 	C 	0.56240 0.70972 0.29028 -0.33500
C 	C 	0.63330 0.66911 0.33089 0.66400
C 	C 	0.53820 0.27504 0.72496 0.56700
C 	C 	0.56240 0.29028 0.70972 -0.33500
C 	C 	0.63330 0.33089 0.66911 0.66400
C 	C 	0.14548 0.31940 0.14548 -0.56400
H 	H 	0.13750 0.30330 0.13750 0.37800
C 	C 	0.14548 0.81940 0.64548 -0.56400
H 	H 	0.13750 0.80330 0.63750 0.37800
C 	C 	0.64548 0.31940 0.64548 -0.56400
H 	H 	0.63750 0.30330 0.63750 0.37800
C 	C 	0.64548 0.81940 0.14548 -0.56400
H 	H 	0.63750 0.80330 0.13750 0.37800
C 	C 	0.85452 0.68060 0.14548 -0.56400
H 	H 	0.86250 0.69670 0.13750 0.37800
C 	C 	0.85452 0.18060 0.64548 -0.56400
H 	H 	0.86250 0.19670 0.63750 0.37800
C 	C 	0.35452 0.68060 0.64548 -0.56400
H 	H 	0.36250 0.69670 0.63750 0.37800
C 	C 	0.35452 0.18060 0.14548 -0.56400
H 	H 	0.36250 0.19670 0.13750 0.37800
C 	C 	0.85452 0.31940 0.85452 -0.56400
H 	H 	0.86250 0.30330 0.86250 0.37800
C 	C 	0.85452 0.81940 0.35452 -0.56400
H 	H 	0.86250 0.80330 0.36250 0.37800
C 	C 	0.35452 0.31940 0.35452 -0.56400
H 	H 	0.36250 0.30330 0.36250 0.37800
C 	C 	0.35452 0.81940 0.85452 -0.56400
H 	H 	0.36250 0.80330 0.86250 0.37800
C 	C 	0.14548 0.68060 0.85452 -0.56400
H 	H 	0.13750 0.69670 0.86250 0.37800
C 	C 	0.14548 0.18060 0.35452 -0.56400
H 	H 	0.13750 0.19670 0.36250 0.37800
C 	C 	0.64548 0.68060 0.35452 -0.56400
H 	H 	0.63750 0.69670 0.36250 0.37800
C 	C 	0.64548 0.18060 0.85452 -0.56400
H 	H 	0.63750 0.19670 0.86250 0.37800
C 	C 	0.14548 0.14548 0.31940 -0.56400
H 	H 	0.13750 0.13750 0.30330 0.37800
C 	C 	0.14548 0.64548 0.81940 -0.56400
H 	H 	0.13750 0.63750 0.80330 0.37800
C 	C 	0.64548 0.14548 0.81940 -0.56400
H 	H 	0.63750 0.13750 0.80330 0.37800
C 	C 	0.64548 0.64548 0.31940 -0.56400
H 	H 	0.63750 0.63750 0.30330 0.37800
C 	C 	0.14548 0.85452 0.68060 -0.56400
H 	H 	0.13750 0.86250 0.69670 0.37800
C 	C 	0.14548 0.35452 0.18060 -0.56400
H 	H 	0.13750 0.36250 0.19670 0.37800
C 	C 	0.64548 0.85452 0.18060 -0.56400
H 	H 	0.63750 0.86250 0.19670 0.37800
C 	C 	0.64548 0.35452 0.68060 -0.56400
H 	H 	0.63750 0.36250 0.69670 0.37800
C 	C 	0.85452 0.85452 0.31940 -0.56400
H 	H 	0.86250 0.86250 0.30330 0.37800
C 	C 	0.85452 0.35452 0.81940 -0.56400
H 	H 	0.86250 0.36250 0.80330 0.37800
C 	C 	0.35452 0.85452 0.81940 -0.56400
H 	H 	0.36250 0.86250 0.80330 0.37800
C 	C 	0.35452 0.35452 0.31940 -0.56400
H 	H 	0.36250 0.36250 0.30330 0.37800
C 	C 	0.85452 0.14548 0.68060 -0.56400
H 	H 	0.86250 0.13750 0.69670 0.37800
C 	C 	0.85452 0.64548 0.18060 -0.56400
H 	H 	0.86250 0.63750 0.19670 0.37800
C 	C 	0.35452 0.14548 0.18060 -0.56400
H 	H 	0.36250 0.13750 0.19670 0.37800
C 	C 	0.35452 0.64548 0.68060 -0.56400
H 	H 	0.36250 0.63750 0.69670 0.37800
C 	C 	0.31940 0.14548 0.14548 -0.56400
H 	H 	0.30330 0.13750 0.13750 0.37800
C 	C 	0.31940 0.64548 0.64548 -0.56400
H 	H 	0.30330 0.63750 0.63750 0.37800
C 	C 	0.81940 0.14548 0.64548 -0.56400
H 	H 	0.80330 0.13750 0.63750 0.37800
C 	C 	0.81940 0.64548 0.14548 -0.56400
H 	H 	0.80330 0.63750 0.13750 0.37800
C 	C 	0.68060 0.14548 0.85452 -0.56400
H 	H 	0.69670 0.13750 0.86250 0.37800
C 	C 	0.68060 0.64548 0.35452 -0.56400
H 	H 	0.69670 0.63750 0.36250 0.37800
C 	C 	0.18060 0.14548 0.35452 -0.56400
H 	H 	0.19670 0.13750 0.36250 0.37800
C 	C 	0.18060 0.64548 0.85452 -0.56400
H 	H 	0.19670 0.63750 0.86250 0.37800
C 	C 	0.31940 0.85452 0.85452 -0.56400
H 	H 	0.30330 0.86250 0.86250 0.37800
C 	C 	0.31940 0.35452 0.35452 -0.56400
H 	H 	0.30330 0.36250 0.36250 0.37800
C 	C 	0.81940 0.85452 0.35452 -0.56400
H 	H 	0.80330 0.86250 0.36250 0.37800
C 	C 	0.81940 0.35452 0.85452 -0.56400
H 	H 	0.80330 0.36250 0.86250 0.37800
C 	C 	0.68060 0.85452 0.14548 -0.56400
H 	H 	0.69670 0.86250 0.13750 0.37800
C 	C 	0.68060 0.35452 0.64548 -0.56400
H 	H 	0.69670 0.36250 0.63750 0.37800
C 	C 	0.18060 0.85452 0.64548 -0.56400
H 	H 	0.19670 0.86250 0.63750 0.37800
C 	C 	0.18060 0.35452 0.14548 -0.56400
H 	H 	0.19670 0.36250 0.13750 0.37800
C 	C 	0.31940 0.14548 0.85452 -0.56400
H 	H 	0.30330 0.13750 0.86250 0.37800
C 	C 	0.31940 0.64548 0.35452 -0.56400
H 	H 	0.30330 0.63750 0.36250 0.37800
C 	C 	0.81940 0.14548 0.35452 -0.56400
H 	H 	0.80330 0.13750 0.36250 0.37800
C 	C 	0.81940 0.64548 0.85452 -0.56400
H 	H 	0.80330 0.63750 0.86250 0.37800
C 	C 	0.68060 0.85452 0.85452 -0.56400
H 	H 	0.69670 0.86250 0.86250 0.37800
C 	C 	0.68060 0.35452 0.35452 -0.56400
H 	H 	0.69670 0.36250 0.36250 0.37800
C 	C 	0.18060 0.85452 0.35452 -0.56400
H 	H 	0.19670 0.86250 0.36250 0.37800
C 	C 	0.18060 0.35452 0.85452 -0.56400
H 	H 	0.19670 0.36250 0.86250 0.37800
C 	C 	0.31940 0.85452 0.14548 -0.56400
H 	H 	0.30330 0.86250 0.13750 0.37800
C 	C 	0.31940 0.35452 0.64548 -0.56400
H 	H 	0.30330 0.36250 0.63750 0.37800
C 	C 	0.81940 0.85452 0.64548 -0.56400
H 	H 	0.80330 0.86250 0.63750 0.37800
C 	C 	0.81940 0.35452 0.14548 -0.56400
H 	H 	0.80330 0.36250 0.13750 0.37800
C 	C 	0.68060 0.14548 0.14548 -0.56400
H 	H 	0.69670 0.13750 0.13750 0.37800
C 	C 	0.68060 0.64548 0.64548 -0.56400
H 	H 	0.69670 0.63750 0.63750 0.37800
C 	C 	0.18060 0.14548 0.64548 -0.56400
H 	H 	0.19670 0.13750 0.63750 0.37800
C 	C 	0.18060 0.64548 0.14548 -0.56400
H 	H 	0.19670 0.63750 0.13750 0.37800
C 	C 	0.14548 0.14548 0.68060 -0.56400
H 	H 	0.13750 0.13750 0.69670 0.37800
C 	C 	0.14548 0.64548 0.18060 -0.56400
H 	H 	0.13750 0.63750 0.19670 0.37800
C 	C 	0.64548 0.14548 0.18060 -0.56400
H 	H 	0.63750 0.13750 0.19670 0.37800
C 	C 	0.64548 0.64548 0.68060 -0.56400
H 	H 	0.63750 0.63750 0.69670 0.37800
C 	C 	0.85452 0.14548 0.31940 -0.56400
H 	H 	0.86250 0.13750 0.30330 0.37800
C 	C 	0.85452 0.64548 0.81940 -0.56400
H 	H 	0.86250 0.63750 0.80330 0.37800
C 	C 	0.35452 0.14548 0.81940 -0.56400
H 	H 	0.36250 0.13750 0.80330 0.37800
C 	C 	0.35452 0.64548 0.31940 -0.56400
H 	H 	0.36250 0.63750 0.30330 0.37800
C 	C 	0.85452 0.85452 0.68060 -0.56400
H 	H 	0.86250 0.86250 0.69670 0.37800
C 	C 	0.85452 0.35452 0.18060 -0.56400
H 	H 	0.86250 0.36250 0.19670 0.37800
C 	C 	0.35452 0.85452 0.18060 -0.56400
H 	H 	0.36250 0.86250 0.19670 0.37800
C 	C 	0.35452 0.35452 0.68060 -0.56400
H 	H 	0.36250 0.36250 0.69670 0.37800
C 	C 	0.14548 0.85452 0.31940 -0.56400
H 	H 	0.13750 0.86250 0.30330 0.37800
C 	C 	0.14548 0.35452 0.81940 -0.56400
H 	H 	0.13750 0.36250 0.80330 0.37800
C 	C 	0.64548 0.85452 0.81940 -0.56400
H 	H 	0.63750 0.86250 0.80330 0.37800
C 	C 	0.64548 0.35452 0.31940 -0.56400
H 	H 	0.63750 0.36250 0.30330 0.37800
C 	C 	0.14548 0.31940 0.85452 -0.56400
H 	H 	0.13750 0.30330 0.86250 0.37800
C 	C 	0.14548 0.81940 0.35452 -0.56400
H 	H 	0.13750 0.80330 0.36250 0.37800
C 	C 	0.64548 0.31940 0.35452 -0.56400
H 	H 	0.63750 0.30330 0.36250 0.37800
C 	C 	0.64548 0.81940 0.85452 -0.56400
H 	H 	0.63750 0.80330 0.86250 0.37800
C 	C 	0.14548 0.68060 0.14548 -0.56400
H 	H 	0.13750 0.69670 0.13750 0.37800
C 	C 	0.14548 0.18060 0.64548 -0.56400
H 	H 	0.13750 0.19670 0.63750 0.37800
C 	C 	0.64548 0.68060 0.64548 -0.56400
H 	H 	0.63750 0.69670 0.63750 0.37800
C 	C 	0.64548 0.18060 0.14548 -0.56400
H 	H 	0.63750 0.19670 0.13750 0.37800
C 	C 	0.85452 0.31940 0.14548 -0.56400
H 	H 	0.86250 0.30330 0.13750 0.37800
C 	C 	0.85452 0.81940 0.64548 -0.56400
H 	H 	0.86250 0.80330 0.63750 0.37800
C 	C 	0.35452 0.31940 0.64548 -0.56400
H 	H 	0.36250 0.30330 0.63750 0.37800
C 	C 	0.35452 0.81940 0.14548 -0.56400
H 	H 	0.36250 0.80330 0.13750 0.37800
C 	C 	0.85452 0.68060 0.85452 -0.56400
H 	H 	0.86250 0.69670 0.86250 0.37800
C 	C 	0.85452 0.18060 0.35452 -0.56400
H 	H 	0.86250 0.19670 0.36250 0.37800
C 	C 	0.35452 0.68060 0.35452 -0.56400
H 	H 	0.36250 0.69670 0.36250 0.37800
C 	C 	0.35452 0.18060 0.85452 -0.56400
H 	H 	0.36250 0.19670 0.86250 0.37800
