data_crystal

_cell_length_a 31.30140
_cell_length_b 31.30140
_cell_length_c 12.79210
_cell_angle_alpha 90.00000
_cell_angle_beta  90.00000
_cell_angle_gamma 120.00000

_symmetry_space_group_name_	'P 1'
_symmetry_space_group_name_H-M	'P 1'

loop_
_symmetry_equiv_pos_as_xyz
  x,y,z

loop_
_atom_site_label
_atom_site_type_symbol
_atom_site_fract_x
_atom_site_fract_y
_atom_site_fract_z
_atom_site_charge
Ag	Ag	0.13268 0.53832 0.14092 0.55400
C 	C 	0.12263 0.62202 0.30430 0.11800
C 	C 	0.07050 0.55620 0.43660 0.06000
H 	H 	0.06640 0.57620 0.48700 0.00200
C 	C 	0.05340 0.50670 0.44420 -0.12800
H 	H 	0.03550 0.48550 0.50060 0.06800
C 	C 	0.06770 0.49418 0.35170 0.06100
H 	H 	0.06030 0.46170 0.33430 -0.00200
C 	C 	0.10250 0.61448 0.03330 0.04700
H 	H 	0.10660 0.60610 0.96410 0.00500
C 	C 	0.07290 0.63491 0.06040 -0.11800
H 	H 	0.05370 0.64250 0.01470 0.06200
C 	C 	0.07757 0.64144 0.16500 0.04600
H 	H 	0.06200 0.65460 0.20760 0.01300
C 	C 	0.25220 0.67970 0.28140 0.04600
H 	H 	0.28350 0.70470 0.25690 0.00200
C 	C 	0.24520 0.64120 0.34860 -0.11700
H 	H 	0.26980 0.63570 0.37860 0.06100
C 	C 	0.19540 0.61370 0.36150 0.04400
H 	H 	0.17840 0.58470 0.40260 0.01500
C 	C 	0.11331 0.65514 0.37800 -0.04000
H 	H 	0.07740 0.64200 0.38480 0.04400
H 	H 	0.12660 0.65510 0.44820 0.04600
C 	C 	0.12740 0.73387 0.41300 -0.03700
H 	H 	0.14340 0.73510 0.48070 0.03900
H 	H 	0.09160 0.71930 0.42520 0.04100
C 	C 	0.14847 0.78519 0.36930 0.02400
C 	C 	0.17161 0.82479 0.43900 -0.06200
H 	H 	0.17470 0.81910 0.51080 0.04700
C 	C 	0.14312 0.79354 0.26560 -0.06700
H 	H 	0.12670 0.76640 0.21920 0.04100
N 	N 	0.12392 0.60852 0.11660 -0.13600
N 	N 	0.10867 0.62561 0.19800 -0.10700
N 	N 	0.09410 0.57132 0.34470 -0.10800
N 	N 	0.09276 0.53293 0.29120 -0.14300
N 	N 	0.20955 0.67649 0.25630 -0.14400
N 	N 	0.17465 0.63518 0.30530 -0.10500
O 	O 	0.13600 0.70367 0.33950 -0.20900
Ag	Ag	0.79935 0.87165 0.47425 0.55400
C 	C 	0.78930 0.95535 0.63763 0.11800
C 	C 	0.73717 0.88953 0.76993 0.06000
H 	H 	0.73307 0.90953 0.82033 0.00200
C 	C 	0.72007 0.84003 0.77753 -0.12800
H 	H 	0.70217 0.81883 0.83393 0.06800
C 	C 	0.73437 0.82751 0.68503 0.06100
H 	H 	0.72697 0.79503 0.66763 -0.00200
C 	C 	0.76917 0.94781 0.36663 0.04800
H 	H 	0.77327 0.93943 0.29743 0.00500
C 	C 	0.73957 0.96824 0.39373 -0.11800
H 	H 	0.72037 0.97583 0.34803 0.06300
C 	C 	0.74424 0.97477 0.49833 0.04800
H 	H 	0.72867 0.98793 0.54093 0.01400
C 	C 	0.91887 0.01303 0.61473 0.04600
H 	H 	0.95017 0.03803 0.59023 0.00300
C 	C 	0.91187 0.97453 0.68193 -0.11600
H 	H 	0.93647 0.96903 0.71193 0.06200
C 	C 	0.86207 0.94703 0.69483 0.04500
H 	H 	0.84507 0.91803 0.73593 0.01600
C 	C 	0.77998 0.98847 0.71133 -0.03900
H 	H 	0.74407 0.97533 0.71813 0.04500
H 	H 	0.79327 0.98843 0.78153 0.04700
C 	C 	0.79407 0.06720 0.74633 -0.03600
H 	H 	0.81007 0.06843 0.81403 0.04000
H 	H 	0.75827 0.05263 0.75853 0.04200
C 	C 	0.81514 0.11852 0.70263 0.02500
C 	C 	0.83828 0.15812 0.77233 -0.06100
H 	H 	0.84137 0.15243 0.84413 0.04800
C 	C 	0.80979 0.12687 0.59893 -0.06600
H 	H 	0.79337 0.09973 0.55253 0.04200
N 	N 	0.79059 0.94185 0.44993 -0.13500
N 	N 	0.77534 0.95894 0.53133 -0.10600
N 	N 	0.76077 0.90465 0.67803 -0.10700
N 	N 	0.75943 0.86626 0.62453 -0.14200
N 	N 	0.87622 0.00982 0.58963 -0.14300
N 	N 	0.84132 0.96851 0.63863 -0.10400
O 	O 	0.80267 0.03700 0.67283 -0.20800
Ag	Ag	0.46602 0.20498 0.80759 0.55500
C 	C 	0.45596 0.28869 0.97097 0.11900
C 	C 	0.40383 0.22287 0.10327 0.06100
H 	H 	0.39973 0.24287 0.15367 0.00300
C 	C 	0.38673 0.17337 0.11087 -0.12700
H 	H 	0.36883 0.15217 0.16727 0.06900
C 	C 	0.40103 0.16085 0.01837 0.06200
H 	H 	0.39363 0.12837 0.00097 -0.00100
C 	C 	0.43583 0.28115 0.69997 0.04900
H 	H 	0.43993 0.27277 0.63077 0.00600
C 	C 	0.40623 0.30158 0.72707 -0.11700
H 	H 	0.38703 0.30917 0.68137 0.06400
C 	C 	0.41090 0.30811 0.83167 0.04800
H 	H 	0.39533 0.32127 0.87427 0.01400
C 	C 	0.58553 0.34637 0.94807 0.04600
H 	H 	0.61683 0.37137 0.92357 0.00300
C 	C 	0.57853 0.30787 0.01527 -0.11600
H 	H 	0.60313 0.30237 0.04527 0.06200
C 	C 	0.52873 0.28037 0.02817 0.04500
H 	H 	0.51173 0.25137 0.06927 0.01600
C 	C 	0.44664 0.32181 0.04467 -0.03900
H 	H 	0.41073 0.30867 0.05147 0.04400
H 	H 	0.45993 0.32177 0.11487 0.04700
C 	C 	0.46073 0.40054 0.07967 -0.03600
H 	H 	0.47673 0.40177 0.14737 0.04000
H 	H 	0.42493 0.38597 0.09187 0.04200
C 	C 	0.48180 0.45186 0.03597 0.02500
C 	C 	0.50494 0.49146 0.10567 -0.06100
H 	H 	0.50803 0.48577 0.17747 0.04800
C 	C 	0.47645 0.46021 0.93227 -0.06600
H 	H 	0.46003 0.43307 0.88587 0.04200
N 	N 	0.45725 0.27519 0.78327 -0.13500
N 	N 	0.44200 0.29228 0.86467 -0.10600
N 	N 	0.42743 0.23799 0.01137 -0.10700
N 	N 	0.42609 0.19960 0.95787 -0.14200
N 	N 	0.54288 0.34316 0.92297 -0.14300
N 	N 	0.50798 0.30185 0.97197 -0.10400
O 	O 	0.46933 0.37034 0.00617 -0.20800
Ag	Ag	0.46168 0.59437 0.14092 0.55500
C 	C 	0.37798 0.50061 0.30430 0.11900
C 	C 	0.44380 0.51430 0.43660 0.06100
H 	H 	0.42380 0.49020 0.48700 0.00300
C 	C 	0.49330 0.54670 0.44420 -0.12700
H 	H 	0.51450 0.55000 0.50060 0.06900
C 	C 	0.50582 0.57352 0.35170 0.06200
H 	H 	0.53830 0.59860 0.33430 -0.00100
C 	C 	0.38552 0.48802 0.03330 0.04900
H 	H 	0.39390 0.50050 0.96410 0.00600
C 	C 	0.36509 0.43799 0.06040 -0.11700
H 	H 	0.35750 0.41120 0.01470 0.06400
C 	C 	0.35856 0.43613 0.16500 0.04700
H 	H 	0.34540 0.40740 0.20760 0.01400
C 	C 	0.32030 0.57250 0.28140 0.04700
H 	H 	0.29530 0.57880 0.25690 0.00300
C 	C 	0.35880 0.60400 0.34860 -0.11600
H 	H 	0.36430 0.63410 0.37860 0.06200
C 	C 	0.38630 0.58170 0.36150 0.04500
H 	H 	0.41530 0.59370 0.40260 0.01600
C 	C 	0.34486 0.45817 0.37800 -0.03900
H 	H 	0.35800 0.43540 0.38480 0.04500
H 	H 	0.34490 0.47150 0.44820 0.04700
C 	C 	0.26613 0.39353 0.41300 -0.03600
H 	H 	0.26490 0.40830 0.48070 0.04000
H 	H 	0.28070 0.37230 0.42520 0.04200
C 	C 	0.21481 0.36328 0.36930 0.02500
C 	C 	0.17521 0.34682 0.43900 -0.06100
H 	H 	0.18090 0.35560 0.51080 0.04800
C 	C 	0.20646 0.34958 0.26560 -0.06600
H 	H 	0.23360 0.36030 0.21920 0.04200
N 	N 	0.39148 0.51540 0.11660 -0.13500
N 	N 	0.37439 0.48306 0.19800 -0.10600
N 	N 	0.42868 0.52278 0.34470 -0.10700
N 	N 	0.46707 0.55983 0.29120 -0.14200
N 	N 	0.32351 0.53306 0.25630 -0.14300
N 	N 	0.36482 0.53947 0.30530 -0.10400
O 	O 	0.29633 0.43233 0.33950 -0.20800
Ag	Ag	0.12835 0.92770 0.47425 0.55500
C 	C 	0.04465 0.83394 0.63763 0.11900
C 	C 	0.11047 0.84763 0.76993 0.06100
H 	H 	0.09047 0.82353 0.82033 0.00300
C 	C 	0.15997 0.88003 0.77753 -0.12700
H 	H 	0.18117 0.88333 0.83393 0.06900
C 	C 	0.17249 0.90685 0.68503 0.06200
H 	H 	0.20497 0.93193 0.66763 -0.00100
C 	C 	0.05219 0.82135 0.36663 0.04900
H 	H 	0.06057 0.83383 0.29743 0.00600
C 	C 	0.03176 0.77132 0.39373 -0.11700
H 	H 	0.02417 0.74453 0.34803 0.06400
C 	C 	0.02523 0.76946 0.49833 0.04800
H 	H 	0.01207 0.74073 0.54093 0.01400
C 	C 	0.98697 0.90583 0.61473 0.04700
H 	H 	0.96197 0.91213 0.59023 0.00300
C 	C 	0.02547 0.93733 0.68193 -0.11600
H 	H 	0.03097 0.96743 0.71193 0.06200
C 	C 	0.05297 0.91503 0.69483 0.04500
H 	H 	0.08197 0.92703 0.73593 0.01600
C 	C 	0.01153 0.79150 0.71133 -0.03900
H 	H 	0.02467 0.76873 0.71813 0.04500
H 	H 	0.01157 0.80483 0.78153 0.04700
C 	C 	0.93280 0.72686 0.74633 -0.03600
H 	H 	0.93157 0.74163 0.81403 0.04000
H 	H 	0.94737 0.70563 0.75853 0.04200
C 	C 	0.88148 0.69661 0.70263 0.02500
C 	C 	0.84188 0.68015 0.77233 -0.06100
H 	H 	0.84757 0.68893 0.84413 0.04800
C 	C 	0.87313 0.68291 0.59893 -0.06600
H 	H 	0.90027 0.69363 0.55253 0.04200
N 	N 	0.05815 0.84873 0.44993 -0.13500
N 	N 	0.04106 0.81639 0.53133 -0.10600
N 	N 	0.09535 0.85611 0.67803 -0.10700
N 	N 	0.13374 0.89316 0.62453 -0.14200
N 	N 	0.99018 0.86639 0.58963 -0.14300
N 	N 	0.03149 0.87280 0.63863 -0.10400
O 	O 	0.96300 0.76566 0.67283 -0.20800
Ag	Ag	0.79502 0.26103 0.80759 0.55500
C 	C 	0.71131 0.16728 0.97097 0.11900
C 	C 	0.77713 0.18097 0.10327 0.06100
H 	H 	0.75713 0.15687 0.15367 0.00300
C 	C 	0.82663 0.21337 0.11087 -0.12700
H 	H 	0.84783 0.21667 0.16727 0.06900
C 	C 	0.83915 0.24019 0.01837 0.06200
H 	H 	0.87163 0.26527 0.00097 -0.00100
C 	C 	0.71885 0.15469 0.69997 0.04900
H 	H 	0.72723 0.16717 0.63077 0.00600
C 	C 	0.69842 0.10466 0.72707 -0.11700
H 	H 	0.69083 0.07787 0.68137 0.06400
C 	C 	0.69189 0.10280 0.83167 0.04800
H 	H 	0.67873 0.07407 0.87427 0.01400
C 	C 	0.65363 0.23917 0.94807 0.04600
H 	H 	0.62863 0.24547 0.92357 0.00300
C 	C 	0.69213 0.27067 0.01527 -0.11600
H 	H 	0.69763 0.30077 0.04527 0.06200
C 	C 	0.71963 0.24837 0.02817 0.04500
H 	H 	0.74863 0.26037 0.06927 0.01600
C 	C 	0.67819 0.12484 0.04467 -0.03800
H 	H 	0.69133 0.10207 0.05147 0.04400
H 	H 	0.67823 0.13817 0.11487 0.04700
C 	C 	0.59946 0.06020 0.07967 -0.03600
H 	H 	0.59823 0.07497 0.14737 0.04000
H 	H 	0.61403 0.03897 0.09187 0.04200
C 	C 	0.54814 0.02995 0.03597 0.02600
C 	C 	0.50854 0.01349 0.10567 -0.06100
H 	H 	0.51423 0.02227 0.17747 0.04800
C 	C 	0.53979 0.01625 0.93227 -0.06700
H 	H 	0.56693 0.02697 0.88587 0.04200
N 	N 	0.72481 0.18207 0.78327 -0.13500
N 	N 	0.70772 0.14973 0.86467 -0.10600
N 	N 	0.76201 0.18945 0.01137 -0.10700
N 	N 	0.80040 0.22650 0.95787 -0.14200
N 	N 	0.65684 0.19973 0.92297 -0.14300
N 	N 	0.69815 0.20614 0.97197 -0.10400
O 	O 	0.62966 0.09900 0.00617 -0.20800
Ag	Ag	0.40563 0.86732 0.14092 0.55500
C 	C 	0.49939 0.87737 0.30430 0.11900
C 	C 	0.48570 0.92950 0.43660 0.06100
H 	H 	0.50980 0.93360 0.48700 0.00300
C 	C 	0.45330 0.94660 0.44420 -0.12700
H 	H 	0.45000 0.96450 0.50060 0.06900
C 	C 	0.42648 0.93230 0.35170 0.06200
H 	H 	0.40140 0.93970 0.33430 -0.00100
C 	C 	0.51198 0.89750 0.03330 0.04900
H 	H 	0.49950 0.89340 0.96410 0.00600
C 	C 	0.56201 0.92710 0.06040 -0.11700
H 	H 	0.58880 0.94630 0.01470 0.06400
C 	C 	0.56387 0.92243 0.16500 0.04700
H 	H 	0.59260 0.93800 0.20760 0.01400
C 	C 	0.42750 0.74780 0.28140 0.04700
H 	H 	0.42120 0.71650 0.25690 0.00300
C 	C 	0.39600 0.75480 0.34860 -0.11600
H 	H 	0.36590 0.73020 0.37860 0.06200
C 	C 	0.41830 0.80460 0.36150 0.04500
H 	H 	0.40630 0.82160 0.40260 0.01600
C 	C 	0.54183 0.88669 0.37800 -0.03900
H 	H 	0.56460 0.92260 0.38480 0.04500
H 	H 	0.52850 0.87340 0.44820 0.04700
C 	C 	0.60647 0.87260 0.41300 -0.03600
H 	H 	0.59170 0.85660 0.48070 0.04000
H 	H 	0.62770 0.90840 0.42520 0.04200
C 	C 	0.63672 0.85153 0.36930 0.02500
C 	C 	0.65318 0.82839 0.43900 -0.06100
H 	H 	0.64440 0.82530 0.51080 0.04800
C 	C 	0.65042 0.85688 0.26560 -0.06600
H 	H 	0.63970 0.87330 0.21920 0.04200
N 	N 	0.48460 0.87608 0.11660 -0.13500
N 	N 	0.51694 0.89133 0.19800 -0.10600
N 	N 	0.47722 0.90590 0.34470 -0.10700
N 	N 	0.44017 0.90724 0.29120 -0.14200
N 	N 	0.46694 0.79045 0.25630 -0.14300
N 	N 	0.46053 0.82535 0.30530 -0.10400
O 	O 	0.56767 0.86400 0.33950 -0.20800
Ag	Ag	0.07230 0.20065 0.47425 0.55500
C 	C 	0.16606 0.21070 0.63763 0.11900
C 	C 	0.15237 0.26283 0.76993 0.06100
H 	H 	0.17647 0.26693 0.82033 0.00300
C 	C 	0.11997 0.27993 0.77753 -0.12700
H 	H 	0.11667 0.29783 0.83393 0.06900
C 	C 	0.09315 0.26563 0.68503 0.06200
H 	H 	0.06807 0.27303 0.66763 -0.00100
C 	C 	0.17865 0.23083 0.36663 0.04900
H 	H 	0.16617 0.22673 0.29743 0.00600
C 	C 	0.22868 0.26043 0.39373 -0.11700
H 	H 	0.25547 0.27963 0.34803 0.06400
C 	C 	0.23054 0.25576 0.49833 0.04800
H 	H 	0.25927 0.27133 0.54093 0.01400
C 	C 	0.09417 0.08113 0.61473 0.04700
H 	H 	0.08787 0.04983 0.59023 0.00300
C 	C 	0.06267 0.08813 0.68193 -0.11600
H 	H 	0.03257 0.06353 0.71193 0.06200
C 	C 	0.08497 0.13793 0.69483 0.04500
H 	H 	0.07297 0.15493 0.73593 0.01600
C 	C 	0.20850 0.22002 0.71133 -0.03900
H 	H 	0.23127 0.25593 0.71813 0.04500
H 	H 	0.19517 0.20673 0.78153 0.04700
C 	C 	0.27314 0.20593 0.74633 -0.03600
H 	H 	0.25837 0.18993 0.81403 0.04000
H 	H 	0.29437 0.24173 0.75853 0.04200
C 	C 	0.30339 0.18486 0.70263 0.02500
C 	C 	0.31985 0.16172 0.77233 -0.06100
H 	H 	0.31107 0.15863 0.84413 0.04800
C 	C 	0.31709 0.19021 0.59893 -0.06600
H 	H 	0.30637 0.20663 0.55253 0.04200
N 	N 	0.15127 0.20941 0.44993 -0.13500
N 	N 	0.18361 0.22466 0.53133 -0.10600
N 	N 	0.14389 0.23923 0.67803 -0.10700
N 	N 	0.10684 0.24057 0.62453 -0.14200
N 	N 	0.13361 0.12378 0.58963 -0.14300
N 	N 	0.12720 0.15868 0.63863 -0.10400
O 	O 	0.23434 0.19733 0.67283 -0.20800
Ag	Ag	0.73897 0.53398 0.80759 0.55500
C 	C 	0.83272 0.54404 0.97097 0.11900
C 	C 	0.81903 0.59617 0.10327 0.06100
H 	H 	0.84313 0.60027 0.15367 0.00300
C 	C 	0.78663 0.61327 0.11087 -0.12700
H 	H 	0.78333 0.63117 0.16727 0.06900
C 	C 	0.75981 0.59897 0.01837 0.06200
H 	H 	0.73473 0.60637 0.00097 -0.00100
C 	C 	0.84531 0.56417 0.69997 0.04900
H 	H 	0.83283 0.56007 0.63077 0.00600
C 	C 	0.89534 0.59377 0.72707 -0.11700
H 	H 	0.92213 0.61297 0.68137 0.06400
C 	C 	0.89720 0.58910 0.83167 0.04800
H 	H 	0.92593 0.60467 0.87427 0.01400
C 	C 	0.76083 0.41447 0.94807 0.04600
H 	H 	0.75453 0.38317 0.92357 0.00300
C 	C 	0.72933 0.42147 0.01527 -0.11600
H 	H 	0.69923 0.39687 0.04527 0.06200
C 	C 	0.75163 0.47127 0.02817 0.04500
H 	H 	0.73963 0.48827 0.06927 0.01600
C 	C 	0.87516 0.55336 0.04467 -0.03900
H 	H 	0.89793 0.58927 0.05147 0.04400
H 	H 	0.86183 0.54007 0.11487 0.04700
C 	C 	0.93980 0.53927 0.07967 -0.03600
H 	H 	0.92503 0.52327 0.14737 0.04000
H 	H 	0.96103 0.57507 0.09187 0.04200
C 	C 	0.97005 0.51820 0.03597 0.02600
C 	C 	0.98651 0.49506 0.10567 -0.06100
H 	H 	0.97773 0.49197 0.17747 0.04800
C 	C 	0.98375 0.52355 0.93227 -0.06700
H 	H 	0.97303 0.53997 0.88587 0.04200
N 	N 	0.81793 0.54275 0.78327 -0.13500
N 	N 	0.85027 0.55800 0.86467 -0.10600
N 	N 	0.81055 0.57257 0.01137 -0.10700
N 	N 	0.77350 0.57391 0.95787 -0.14200
N 	N 	0.80027 0.45712 0.92297 -0.14300
N 	N 	0.79386 0.49202 0.97197 -0.10400
O 	O 	0.90100 0.53067 0.00617 -0.20800
Ag	Ag	0.86732 0.46168 0.85908 0.55500
C 	C 	0.87737 0.37798 0.69570 0.11900
C 	C 	0.92950 0.44380 0.56340 0.06100
H 	H 	0.93360 0.42380 0.51300 0.00300
C 	C 	0.94660 0.49330 0.55580 -0.12700
H 	H 	0.96450 0.51450 0.49940 0.06900
C 	C 	0.93230 0.50582 0.64830 0.06200
H 	H 	0.93970 0.53830 0.66570 -0.00100
C 	C 	0.89750 0.38552 0.96670 0.04800
H 	H 	0.89340 0.39390 0.03590 0.00600
C 	C 	0.92710 0.36509 0.93960 -0.11700
H 	H 	0.94630 0.35750 0.98530 0.06300
C 	C 	0.92243 0.35856 0.83500 0.04700
H 	H 	0.93800 0.34540 0.79240 0.01400
C 	C 	0.74780 0.32030 0.71860 0.04700
H 	H 	0.71650 0.29530 0.74310 0.00300
C 	C 	0.75480 0.35880 0.65140 -0.11600
H 	H 	0.73020 0.36430 0.62140 0.06200
C 	C 	0.80460 0.38630 0.63850 0.04500
H 	H 	0.82160 0.41530 0.59740 0.01600
C 	C 	0.88669 0.34486 0.62200 -0.03900
H 	H 	0.92260 0.35800 0.61520 0.04500
H 	H 	0.87340 0.34490 0.55180 0.04700
C 	C 	0.87260 0.26613 0.58700 -0.03600
H 	H 	0.85660 0.26490 0.51930 0.04000
H 	H 	0.90840 0.28070 0.57480 0.04200
C 	C 	0.85153 0.21481 0.63070 0.02500
C 	C 	0.82839 0.17521 0.56100 -0.06100
H 	H 	0.82530 0.18090 0.48920 0.04800
C 	C 	0.85688 0.20646 0.73440 -0.06600
H 	H 	0.87330 0.23360 0.78080 0.04200
N 	N 	0.87608 0.39148 0.88340 -0.13500
N 	N 	0.89133 0.37439 0.80200 -0.10600
N 	N 	0.90590 0.42868 0.65530 -0.10700
N 	N 	0.90724 0.46707 0.70880 -0.14200
N 	N 	0.79045 0.32351 0.74370 -0.14300
N 	N 	0.82535 0.36482 0.69470 -0.10400
O 	O 	0.86400 0.29633 0.66050 -0.20800
Ag	Ag	0.53398 0.79502 0.19241 0.55500
C 	C 	0.54404 0.71131 0.02903 0.11900
C 	C 	0.59617 0.77713 0.89673 0.06100
H 	H 	0.60027 0.75713 0.84633 0.00300
C 	C 	0.61327 0.82663 0.88913 -0.12700
H 	H 	0.63117 0.84783 0.83273 0.06900
C 	C 	0.59897 0.83915 0.98163 0.06200
H 	H 	0.60637 0.87163 0.99903 -0.00100
C 	C 	0.56417 0.71885 0.30003 0.04900
H 	H 	0.56007 0.72723 0.36923 0.00600
C 	C 	0.59377 0.69842 0.27293 -0.11700
H 	H 	0.61297 0.69083 0.31863 0.06400
C 	C 	0.58910 0.69189 0.16833 0.04800
H 	H 	0.60467 0.67873 0.12573 0.01400
C 	C 	0.41447 0.65363 0.05193 0.04600
H 	H 	0.38317 0.62863 0.07643 0.00300
C 	C 	0.42147 0.69213 0.98473 -0.11600
H 	H 	0.39687 0.69763 0.95473 0.06200
C 	C 	0.47127 0.71963 0.97183 0.04500
H 	H 	0.48827 0.74863 0.93073 0.01600
C 	C 	0.55336 0.67819 0.95533 -0.03900
H 	H 	0.58927 0.69133 0.94853 0.04400
H 	H 	0.54007 0.67823 0.88513 0.04700
C 	C 	0.53927 0.59946 0.92033 -0.03600
H 	H 	0.52327 0.59823 0.85263 0.04000
H 	H 	0.57507 0.61403 0.90813 0.04200
C 	C 	0.51820 0.54814 0.96403 0.02500
C 	C 	0.49506 0.50854 0.89433 -0.06100
H 	H 	0.49197 0.51423 0.82253 0.04800
C 	C 	0.52355 0.53979 0.06773 -0.06600
H 	H 	0.53997 0.56693 0.11413 0.04200
N 	N 	0.54275 0.72481 0.21673 -0.13500
N 	N 	0.55800 0.70772 0.13533 -0.10600
N 	N 	0.57257 0.76201 0.98863 -0.10700
N 	N 	0.57391 0.80040 0.04213 -0.14200
N 	N 	0.45712 0.65684 0.07703 -0.14300
N 	N 	0.49202 0.69815 0.02803 -0.10400
O 	O 	0.53067 0.62966 0.99383 -0.20800
Ag	Ag	0.20065 0.12835 0.52575 0.55500
C 	C 	0.21070 0.04465 0.36237 0.11900
C 	C 	0.26283 0.11047 0.23007 0.06100
H 	H 	0.26693 0.09047 0.17967 0.00300
C 	C 	0.27993 0.15997 0.22247 -0.12700
H 	H 	0.29783 0.18117 0.16607 0.06900
C 	C 	0.26563 0.17249 0.31497 0.06200
H 	H 	0.27303 0.20497 0.33237 -0.00100
C 	C 	0.23083 0.05219 0.63337 0.04900
H 	H 	0.22673 0.06057 0.70257 0.00600
C 	C 	0.26043 0.03176 0.60627 -0.11700
H 	H 	0.27963 0.02417 0.65197 0.06400
C 	C 	0.25576 0.02523 0.50167 0.04800
H 	H 	0.27133 0.01207 0.45907 0.01400
C 	C 	0.08113 0.98697 0.38527 0.04600
H 	H 	0.04983 0.96197 0.40977 0.00300
C 	C 	0.08813 0.02547 0.31807 -0.11600
H 	H 	0.06353 0.03097 0.28807 0.06200
C 	C 	0.13793 0.05297 0.30517 0.04500
H 	H 	0.15493 0.08197 0.26407 0.01600
C 	C 	0.22002 0.01153 0.28867 -0.03900
H 	H 	0.25593 0.02467 0.28187 0.04500
H 	H 	0.20673 0.01157 0.21847 0.04700
C 	C 	0.20593 0.93280 0.25367 -0.03600
H 	H 	0.18993 0.93157 0.18597 0.04000
H 	H 	0.24173 0.94737 0.24147 0.04200
C 	C 	0.18486 0.88148 0.29737 0.02500
C 	C 	0.16172 0.84188 0.22767 -0.06100
H 	H 	0.15863 0.84757 0.15587 0.04800
C 	C 	0.19021 0.87313 0.40107 -0.06600
H 	H 	0.20663 0.90027 0.44747 0.04200
N 	N 	0.20941 0.05815 0.55007 -0.13500
N 	N 	0.22466 0.04106 0.46867 -0.10600
N 	N 	0.23923 0.09535 0.32197 -0.10700
N 	N 	0.24057 0.13374 0.37547 -0.14200
N 	N 	0.12378 0.99018 0.41037 -0.14300
N 	N 	0.15868 0.03149 0.36137 -0.10400
O 	O 	0.19733 0.96300 0.32717 -0.20800
Ag	Ag	0.53832 0.40563 0.85908 0.55500
C 	C 	0.62202 0.49939 0.69570 0.11900
C 	C 	0.55620 0.48570 0.56340 0.06100
H 	H 	0.57620 0.50980 0.51300 0.00300
C 	C 	0.50670 0.45330 0.55580 -0.12700
H 	H 	0.48550 0.45000 0.49940 0.06900
C 	C 	0.49418 0.42648 0.64830 0.06200
H 	H 	0.46170 0.40140 0.66570 -0.00100
C 	C 	0.61448 0.51198 0.96670 0.04900
H 	H 	0.60610 0.49950 0.03590 0.00600
C 	C 	0.63491 0.56201 0.93960 -0.11700
H 	H 	0.64250 0.58880 0.98530 0.06400
C 	C 	0.64144 0.56387 0.83500 0.04700
H 	H 	0.65460 0.59260 0.79240 0.01400
C 	C 	0.67970 0.42750 0.71860 0.04700
H 	H 	0.70470 0.42120 0.74310 0.00300
C 	C 	0.64120 0.39600 0.65140 -0.11600
H 	H 	0.63570 0.36590 0.62140 0.06200
C 	C 	0.61370 0.41830 0.63850 0.04500
H 	H 	0.58470 0.40630 0.59740 0.01600
C 	C 	0.65514 0.54183 0.62200 -0.03900
H 	H 	0.64200 0.56460 0.61520 0.04500
H 	H 	0.65510 0.52850 0.55180 0.04700
C 	C 	0.73387 0.60647 0.58700 -0.03600
H 	H 	0.73510 0.59170 0.51930 0.04000
H 	H 	0.71930 0.62770 0.57480 0.04200
C 	C 	0.78519 0.63672 0.63070 0.02500
C 	C 	0.82479 0.65318 0.56100 -0.06100
H 	H 	0.81910 0.64440 0.48920 0.04800
C 	C 	0.79354 0.65042 0.73440 -0.06600
H 	H 	0.76640 0.63970 0.78080 0.04200
N 	N 	0.60852 0.48460 0.88340 -0.13500
N 	N 	0.62561 0.51694 0.80200 -0.10600
N 	N 	0.57132 0.47722 0.65530 -0.10700
N 	N 	0.53293 0.44017 0.70880 -0.14200
N 	N 	0.67649 0.46694 0.74370 -0.14300
N 	N 	0.63518 0.46053 0.69470 -0.10400
O 	O 	0.70367 0.56767 0.66050 -0.20800
Ag	Ag	0.20498 0.73897 0.19241 0.55500
C 	C 	0.28869 0.83272 0.02903 0.11900
C 	C 	0.22287 0.81903 0.89673 0.06100
H 	H 	0.24287 0.84313 0.84633 0.00300
C 	C 	0.17337 0.78663 0.88913 -0.12700
H 	H 	0.15217 0.78333 0.83273 0.06900
C 	C 	0.16085 0.75981 0.98163 0.06200
H 	H 	0.12837 0.73473 0.99903 -0.00100
C 	C 	0.28115 0.84531 0.30003 0.04900
H 	H 	0.27277 0.83283 0.36923 0.00600
C 	C 	0.30158 0.89534 0.27293 -0.11700
H 	H 	0.30917 0.92213 0.31863 0.06400
C 	C 	0.30811 0.89720 0.16833 0.04800
H 	H 	0.32127 0.92593 0.12573 0.01400
C 	C 	0.34637 0.76083 0.05193 0.04600
H 	H 	0.37137 0.75453 0.07643 0.00300
C 	C 	0.30787 0.72933 0.98473 -0.11600
H 	H 	0.30237 0.69923 0.95473 0.06200
C 	C 	0.28037 0.75163 0.97183 0.04500
H 	H 	0.25137 0.73963 0.93073 0.01600
C 	C 	0.32181 0.87516 0.95533 -0.03800
H 	H 	0.30867 0.89793 0.94853 0.04400
H 	H 	0.32177 0.86183 0.88513 0.04700
C 	C 	0.40054 0.93980 0.92033 -0.03600
H 	H 	0.40177 0.92503 0.85263 0.04000
H 	H 	0.38597 0.96103 0.90813 0.04200
C 	C 	0.45186 0.97005 0.96403 0.02600
C 	C 	0.49146 0.98651 0.89433 -0.06100
H 	H 	0.48577 0.97773 0.82253 0.04800
C 	C 	0.46021 0.98375 0.06773 -0.06700
H 	H 	0.43307 0.97303 0.11413 0.04200
N 	N 	0.27519 0.81793 0.21673 -0.13500
N 	N 	0.29228 0.85027 0.13533 -0.10600
N 	N 	0.23799 0.81055 0.98863 -0.10700
N 	N 	0.19960 0.77350 0.04213 -0.14200
N 	N 	0.34316 0.80027 0.07703 -0.14300
N 	N 	0.30185 0.79386 0.02803 -0.10400
O 	O 	0.37034 0.90100 0.99383 -0.20800
Ag	Ag	0.87165 0.07230 0.52575 0.55500
C 	C 	0.95535 0.16606 0.36237 0.11900
C 	C 	0.88953 0.15237 0.23007 0.06100
H 	H 	0.90953 0.17647 0.17967 0.00300
C 	C 	0.84003 0.11997 0.22247 -0.12700
H 	H 	0.81883 0.11667 0.16607 0.06900
C 	C 	0.82751 0.09315 0.31497 0.06200
H 	H 	0.79503 0.06807 0.33237 -0.00100
C 	C 	0.94781 0.17865 0.63337 0.04900
H 	H 	0.93943 0.16617 0.70257 0.00600
C 	C 	0.96824 0.22868 0.60627 -0.11700
H 	H 	0.97583 0.25547 0.65197 0.06400
C 	C 	0.97477 0.23054 0.50167 0.04800
H 	H 	0.98793 0.25927 0.45907 0.01400
C 	C 	0.01303 0.09417 0.38527 0.04700
H 	H 	0.03803 0.08787 0.40977 0.00300
C 	C 	0.97453 0.06267 0.31807 -0.11600
H 	H 	0.96903 0.03257 0.28807 0.06200
C 	C 	0.94703 0.08497 0.30517 0.04500
H 	H 	0.91803 0.07297 0.26407 0.01600
C 	C 	0.98847 0.20850 0.28867 -0.03900
H 	H 	0.97533 0.23127 0.28187 0.04500
H 	H 	0.98843 0.19517 0.21847 0.04700
C 	C 	0.06720 0.27314 0.25367 -0.03600
H 	H 	0.06843 0.25837 0.18597 0.04000
H 	H 	0.05263 0.29437 0.24147 0.04200
C 	C 	0.11852 0.30339 0.29737 0.02500
C 	C 	0.15812 0.31985 0.22767 -0.06100
H 	H 	0.15243 0.31107 0.15587 0.04800
C 	C 	0.12687 0.31709 0.40107 -0.06600
H 	H 	0.09973 0.30637 0.44747 0.04200
N 	N 	0.94185 0.15127 0.55007 -0.13500
N 	N 	0.95894 0.18361 0.46867 -0.10600
N 	N 	0.90465 0.14389 0.32197 -0.10700
N 	N 	0.86626 0.10684 0.37547 -0.14200
N 	N 	0.00982 0.13361 0.41037 -0.14300
N 	N 	0.96851 0.12720 0.36137 -0.10400
O 	O 	0.03700 0.23434 0.32717 -0.20800
Ag	Ag	0.59437 0.13268 0.85908 0.55500
C 	C 	0.50061 0.12263 0.69570 0.11900
C 	C 	0.51430 0.07050 0.56340 0.06100
H 	H 	0.49020 0.06640 0.51300 0.00300
C 	C 	0.54670 0.05340 0.55580 -0.12700
H 	H 	0.55000 0.03550 0.49940 0.06900
C 	C 	0.57352 0.06770 0.64830 0.06200
H 	H 	0.59860 0.06030 0.66570 -0.00100
C 	C 	0.48802 0.10250 0.96670 0.04900
H 	H 	0.50050 0.10660 0.03590 0.00600
C 	C 	0.43799 0.07290 0.93960 -0.11700
H 	H 	0.41120 0.05370 0.98530 0.06400
C 	C 	0.43613 0.07757 0.83500 0.04700
H 	H 	0.40740 0.06200 0.79240 0.01400
C 	C 	0.57250 0.25220 0.71860 0.04700
H 	H 	0.57880 0.28350 0.74310 0.00300
C 	C 	0.60400 0.24520 0.65140 -0.11600
H 	H 	0.63410 0.26980 0.62140 0.06200
C 	C 	0.58170 0.19540 0.63850 0.04500
H 	H 	0.59370 0.17840 0.59740 0.01600
C 	C 	0.45817 0.11331 0.62200 -0.03900
H 	H 	0.43540 0.07740 0.61520 0.04500
H 	H 	0.47150 0.12660 0.55180 0.04700
C 	C 	0.39353 0.12740 0.58700 -0.03600
H 	H 	0.40830 0.14340 0.51930 0.04000
H 	H 	0.37230 0.09160 0.57480 0.04200
C 	C 	0.36328 0.14847 0.63070 0.02500
C 	C 	0.34682 0.17161 0.56100 -0.06100
H 	H 	0.35560 0.17470 0.48920 0.04800
C 	C 	0.34958 0.14312 0.73440 -0.06600
H 	H 	0.36030 0.12670 0.78080 0.04200
N 	N 	0.51540 0.12392 0.88340 -0.13500
N 	N 	0.48306 0.10867 0.80200 -0.10600
N 	N 	0.52278 0.09410 0.65530 -0.10700
N 	N 	0.55983 0.09276 0.70880 -0.14200
N 	N 	0.53306 0.20955 0.74370 -0.14300
N 	N 	0.53947 0.17465 0.69470 -0.10400
O 	O 	0.43233 0.13600 0.66050 -0.20800
Ag	Ag	0.26103 0.46602 0.19241 0.55500
C 	C 	0.16728 0.45596 0.02903 0.11900
C 	C 	0.18097 0.40383 0.89673 0.06100
H 	H 	0.15687 0.39973 0.84633 0.00300
C 	C 	0.21337 0.38673 0.88913 -0.12700
H 	H 	0.21667 0.36883 0.83273 0.06900
C 	C 	0.24019 0.40103 0.98163 0.06200
H 	H 	0.26527 0.39363 0.99903 -0.00100
C 	C 	0.15469 0.43583 0.30003 0.04900
H 	H 	0.16717 0.43993 0.36923 0.00600
C 	C 	0.10466 0.40623 0.27293 -0.11700
H 	H 	0.07787 0.38703 0.31863 0.06400
C 	C 	0.10280 0.41090 0.16833 0.04800
H 	H 	0.07407 0.39533 0.12573 0.01400
C 	C 	0.23917 0.58553 0.05193 0.04600
H 	H 	0.24547 0.61683 0.07643 0.00300
C 	C 	0.27067 0.57853 0.98473 -0.11600
H 	H 	0.30077 0.60313 0.95473 0.06200
C 	C 	0.24837 0.52873 0.97183 0.04500
H 	H 	0.26037 0.51173 0.93073 0.01600
C 	C 	0.12484 0.44664 0.95533 -0.03900
H 	H 	0.10207 0.41073 0.94853 0.04400
H 	H 	0.13817 0.45993 0.88513 0.04700
C 	C 	0.06020 0.46073 0.92033 -0.03600
H 	H 	0.07497 0.47673 0.85263 0.04000
H 	H 	0.03897 0.42493 0.90813 0.04200
C 	C 	0.02995 0.48180 0.96403 0.02600
C 	C 	0.01349 0.50494 0.89433 -0.06100
H 	H 	0.02227 0.50803 0.82253 0.04800
C 	C 	0.01625 0.47645 0.06773 -0.06700
H 	H 	0.02697 0.46003 0.11413 0.04200
N 	N 	0.18207 0.45725 0.21673 -0.13500
N 	N 	0.14973 0.44200 0.13533 -0.10600
N 	N 	0.18945 0.42743 0.98863 -0.10700
N 	N 	0.22650 0.42609 0.04213 -0.14200
N 	N 	0.19973 0.54288 0.07703 -0.14300
N 	N 	0.20614 0.50798 0.02803 -0.10400
O 	O 	0.09900 0.46933 0.99383 -0.20800
Ag	Ag	0.92770 0.79935 0.52575 0.55500
C 	C 	0.83394 0.78930 0.36237 0.11900
C 	C 	0.84763 0.73717 0.23007 0.06100
H 	H 	0.82353 0.73307 0.17967 0.00300
C 	C 	0.88003 0.72007 0.22247 -0.12700
H 	H 	0.88333 0.70217 0.16607 0.06900
C 	C 	0.90685 0.73437 0.31497 0.06200
H 	H 	0.93193 0.72697 0.33237 -0.00100
C 	C 	0.82135 0.76917 0.63337 0.04900
H 	H 	0.83383 0.77327 0.70257 0.00600
C 	C 	0.77132 0.73957 0.60627 -0.11700
H 	H 	0.74453 0.72037 0.65197 0.06400
C 	C 	0.76946 0.74424 0.50167 0.04800
H 	H 	0.74073 0.72867 0.45907 0.01400
C 	C 	0.90583 0.91887 0.38527 0.04700
H 	H 	0.91213 0.95017 0.40977 0.00300
C 	C 	0.93733 0.91187 0.31807 -0.11600
H 	H 	0.96743 0.93647 0.28807 0.06200
C 	C 	0.91503 0.86207 0.30517 0.04500
H 	H 	0.92703 0.84507 0.26407 0.01600
C 	C 	0.79150 0.77998 0.28867 -0.03900
H 	H 	0.76873 0.74407 0.28187 0.04500
H 	H 	0.80483 0.79327 0.21847 0.04700
C 	C 	0.72686 0.79407 0.25367 -0.03600
H 	H 	0.74163 0.81007 0.18597 0.04000
H 	H 	0.70563 0.75827 0.24147 0.04200
C 	C 	0.69661 0.81514 0.29737 0.02500
C 	C 	0.68015 0.83828 0.22767 -0.06100
H 	H 	0.68893 0.84137 0.15587 0.04800
C 	C 	0.68291 0.80979 0.40107 -0.06600
H 	H 	0.69363 0.79337 0.44747 0.04200
N 	N 	0.84873 0.79059 0.55007 -0.13500
N 	N 	0.81639 0.77534 0.46867 -0.10600
N 	N 	0.85611 0.76077 0.32197 -0.10700
N 	N 	0.89316 0.75943 0.37547 -0.14200
N 	N 	0.86639 0.87622 0.41037 -0.14300
N 	N 	0.87280 0.84132 0.36137 -0.10400
O 	O 	0.76566 0.80267 0.32717 -0.20800
