data_crystal

_cell_length_a 25.97600
_cell_length_b 25.97600
_cell_length_c 25.97600
_cell_angle_alpha 90.00000
_cell_angle_beta  90.00000
_cell_angle_gamma 90.00000

_symmetry_space_group_name_	'P 1'
_symmetry_space_group_name_H-M	'P 1'

loop_
_symmetry_equiv_pos_as_xyz
  x,y,z

loop_
_atom_site_label
_atom_site_type_symbol
_atom_site_fract_x
_atom_site_fract_y
_atom_site_fract_z
_atom_site_charge
O 	O 	0.34880 0.61160 0.79900 -0.35800
N 	N 	0.36890 0.54300 0.87170 -0.24700
C 	C 	0.34840 0.52660 0.82600 -0.07300
C 	C 	0.33440 0.56750 0.79020 0.34700
O 	O 	0.30770 0.55520 0.75260 -0.41100
O 	O 	0.34880 0.11160 0.29900 -0.36800
N 	N 	0.36890 0.04300 0.37170 -0.23700
C 	C 	0.34840 0.02660 0.32600 -0.13500
C 	C 	0.33440 0.06750 0.29020 0.36500
O 	O 	0.30770 0.05520 0.25260 -0.43100
O 	O 	0.84880 0.61160 0.29900 -0.35600
N 	N 	0.86890 0.54300 0.37170 -0.24700
C 	C 	0.84840 0.52660 0.32600 -0.07100
C 	C 	0.83440 0.56750 0.29020 0.34800
O 	O 	0.80770 0.55520 0.25260 -0.41100
O 	O 	0.84880 0.11160 0.79900 -0.36300
N 	N 	0.86890 0.04300 0.87170 -0.23200
C 	C 	0.84840 0.02660 0.82600 -0.13000
C 	C 	0.83440 0.06750 0.79020 0.36600
O 	O 	0.80770 0.05520 0.75260 -0.42500
O 	O 	0.65120 0.38840 0.79900 -0.35700
N 	N 	0.63110 0.45700 0.87170 -0.24500
C 	C 	0.65160 0.47340 0.82600 -0.07100
C 	C 	0.66560 0.43250 0.79020 0.34800
O 	O 	0.69230 0.44480 0.75260 -0.41000
O 	O 	0.65120 0.88840 0.29900 -0.34900
N 	N 	0.63110 0.95700 0.37170 -0.22900
C 	C 	0.65160 0.97340 0.32600 -0.00800
C 	C 	0.66560 0.93250 0.29020 0.32800
O 	O 	0.69230 0.94480 0.25260 -0.38800
O 	O 	0.15120 0.38840 0.29900 -0.36000
N 	N 	0.13110 0.45700 0.37170 -0.24900
C 	C 	0.15160 0.47340 0.32600 -0.07400
C 	C 	0.16560 0.43250 0.29020 0.34700
O 	O 	0.19230 0.44480 0.25260 -0.41500
O 	O 	0.15120 0.88840 0.79900 -0.35000
N 	N 	0.13110 0.95700 0.87170 -0.22800
C 	C 	0.15160 0.97340 0.82600 -0.00900
C 	C 	0.16560 0.93250 0.79020 0.32700
O 	O 	0.19230 0.94480 0.75260 -0.38800
O 	O 	0.65120 0.61160 0.20100 -0.35700
N 	N 	0.63110 0.54300 0.12830 -0.24900
C 	C 	0.65160 0.52660 0.17400 -0.07300
C 	C 	0.66560 0.56750 0.20980 0.34700
O 	O 	0.69230 0.55520 0.24740 -0.41000
O 	O 	0.65120 0.11160 0.70100 -0.36400
N 	N 	0.63110 0.04300 0.62830 -0.23600
C 	C 	0.65160 0.02660 0.67400 -0.13200
C 	C 	0.66560 0.06750 0.70980 0.36600
O 	O 	0.69230 0.05520 0.74740 -0.42500
O 	O 	0.15120 0.61160 0.70100 -0.35800
N 	N 	0.13110 0.54300 0.62830 -0.24900
C 	C 	0.15160 0.52660 0.67400 -0.07300
C 	C 	0.16560 0.56750 0.70980 0.34700
O 	O 	0.19230 0.55520 0.74740 -0.41000
O 	O 	0.15120 0.11160 0.20100 -0.36700
N 	N 	0.13110 0.04300 0.12830 -0.23800
C 	C 	0.15160 0.02660 0.17400 -0.13400
C 	C 	0.16560 0.06750 0.20980 0.36500
O 	O 	0.19230 0.05520 0.24740 -0.43000
O 	O 	0.34880 0.38840 0.20100 -0.35800
N 	N 	0.36890 0.45700 0.12830 -0.24900
C 	C 	0.34840 0.47340 0.17400 -0.07300
C 	C 	0.33440 0.43250 0.20980 0.34700
O 	O 	0.30770 0.44480 0.24740 -0.41100
O 	O 	0.34880 0.88840 0.70100 -0.34700
N 	N 	0.36890 0.95700 0.62830 -0.22900
C 	C 	0.34840 0.97340 0.67400 -0.00800
C 	C 	0.33440 0.93250 0.70980 0.32700
O 	O 	0.30770 0.94480 0.74740 -0.38400
O 	O 	0.84880 0.38840 0.70100 -0.35300
N 	N 	0.86890 0.45700 0.62830 -0.24600
C 	C 	0.84840 0.47340 0.67400 -0.06900
C 	C 	0.83440 0.43250 0.70980 0.34900
O 	O 	0.80770 0.44480 0.74740 -0.40500
O 	O 	0.84880 0.88840 0.20100 -0.34500
N 	N 	0.86890 0.95700 0.12830 -0.22800
C 	C 	0.84840 0.97340 0.17400 -0.00700
C 	C 	0.83440 0.93250 0.20980 0.32800
O 	O 	0.80770 0.94480 0.24740 -0.38400
O 	O 	0.79900 0.34880 0.61160 -0.35700
N 	N 	0.87170 0.36890 0.54300 -0.24600
C 	C 	0.82600 0.34840 0.52660 -0.07200
C 	C 	0.79020 0.33440 0.56750 0.34800
O 	O 	0.75260 0.30770 0.55520 -0.41000
O 	O 	0.79900 0.84880 0.11160 -0.36200
N 	N 	0.87170 0.86890 0.04300 -0.23100
C 	C 	0.82600 0.84840 0.02660 -0.12900
C 	C 	0.79020 0.83440 0.06750 0.36700
O 	O 	0.75260 0.80770 0.05520 -0.42500
O 	O 	0.29900 0.34880 0.11160 -0.36700
N 	N 	0.37170 0.36890 0.04300 -0.23600
C 	C 	0.32600 0.34840 0.02660 -0.13400
C 	C 	0.29020 0.33440 0.06750 0.36600
O 	O 	0.25260 0.30770 0.05520 -0.43000
O 	O 	0.29900 0.84880 0.61160 -0.35500
N 	N 	0.37170 0.86890 0.54300 -0.24600
C 	C 	0.32600 0.84840 0.52660 -0.07000
C 	C 	0.29020 0.83440 0.56750 0.34900
O 	O 	0.25260 0.80770 0.55520 -0.41000
O 	O 	0.79900 0.65120 0.38840 -0.35700
N 	N 	0.87170 0.63110 0.45700 -0.24500
C 	C 	0.82600 0.65160 0.47340 -0.07100
C 	C 	0.79020 0.66560 0.43250 0.34800
O 	O 	0.75260 0.69230 0.44480 -0.41000
O 	O 	0.79900 0.15120 0.88840 -0.35000
N 	N 	0.87170 0.13110 0.95700 -0.22800
C 	C 	0.82600 0.15160 0.97340 -0.00900
C 	C 	0.79020 0.16560 0.93250 0.32700
O 	O 	0.75260 0.19230 0.94480 -0.38800
O 	O 	0.29900 0.65120 0.88840 -0.34900
N 	N 	0.37170 0.63110 0.95700 -0.22900
C 	C 	0.32600 0.65160 0.97340 -0.00800
C 	C 	0.29020 0.66560 0.93250 0.32800
O 	O 	0.25260 0.69230 0.94480 -0.38800
O 	O 	0.29900 0.15120 0.38840 -0.36000
N 	N 	0.37170 0.13110 0.45700 -0.24900
C 	C 	0.32600 0.15160 0.47340 -0.07400
C 	C 	0.29020 0.16560 0.43250 0.34700
O 	O 	0.25260 0.19230 0.44480 -0.41500
O 	O 	0.20100 0.65120 0.61160 -0.35700
N 	N 	0.12830 0.63110 0.54300 -0.24900
C 	C 	0.17400 0.65160 0.52660 -0.07300
C 	C 	0.20980 0.66560 0.56750 0.34700
O 	O 	0.24740 0.69230 0.55520 -0.41000
O 	O 	0.20100 0.15120 0.11160 -0.36700
N 	N 	0.12830 0.13110 0.04300 -0.23800
C 	C 	0.17400 0.15160 0.02660 -0.13400
C 	C 	0.20980 0.16560 0.06750 0.36500
O 	O 	0.24740 0.19230 0.05520 -0.43000
O 	O 	0.70100 0.65120 0.11160 -0.36400
N 	N 	0.62830 0.63110 0.04300 -0.23600
C 	C 	0.67400 0.65160 0.02660 -0.13200
C 	C 	0.70980 0.66560 0.06750 0.36600
O 	O 	0.74740 0.69230 0.05520 -0.42500
O 	O 	0.70100 0.15120 0.61160 -0.35800
N 	N 	0.62830 0.13110 0.54300 -0.24900
C 	C 	0.67400 0.15160 0.52660 -0.07300
C 	C 	0.70980 0.16560 0.56750 0.34700
O 	O 	0.74740 0.19230 0.55520 -0.41000
O 	O 	0.20100 0.34880 0.38840 -0.35800
N 	N 	0.12830 0.36890 0.45700 -0.24900
C 	C 	0.17400 0.34840 0.47340 -0.07300
C 	C 	0.20980 0.33440 0.43250 0.34700
O 	O 	0.24740 0.30770 0.44480 -0.41100
O 	O 	0.20100 0.84880 0.88840 -0.34500
N 	N 	0.12830 0.86890 0.95700 -0.22800
C 	C 	0.17400 0.84840 0.97340 -0.00700
C 	C 	0.20980 0.83440 0.93250 0.32800
O 	O 	0.24740 0.80770 0.94480 -0.38400
O 	O 	0.70100 0.34880 0.88840 -0.34700
N 	N 	0.62830 0.36890 0.95700 -0.22900
C 	C 	0.67400 0.34840 0.97340 -0.00800
C 	C 	0.70980 0.33440 0.93250 0.32700
O 	O 	0.74740 0.30770 0.94480 -0.38400
O 	O 	0.70100 0.84880 0.38840 -0.35300
N 	N 	0.62830 0.86890 0.45700 -0.24600
C 	C 	0.67400 0.84840 0.47340 -0.06900
C 	C 	0.70980 0.83440 0.43250 0.34900
O 	O 	0.74740 0.80770 0.44480 -0.40500
O 	O 	0.61160 0.79900 0.34880 -0.35700
N 	N 	0.54300 0.87170 0.36890 -0.24600
C 	C 	0.52660 0.82600 0.34840 -0.07200
C 	C 	0.56750 0.79020 0.33440 0.34800
O 	O 	0.55520 0.75260 0.30770 -0.41000
O 	O 	0.61160 0.29900 0.84880 -0.35500
N 	N 	0.54300 0.37170 0.86890 -0.24600
C 	C 	0.52660 0.32600 0.84840 -0.07000
C 	C 	0.56750 0.29020 0.83440 0.34900
O 	O 	0.55520 0.25260 0.80770 -0.41000
O 	O 	0.11160 0.79900 0.84880 -0.36200
N 	N 	0.04300 0.87170 0.86890 -0.23100
C 	C 	0.02660 0.82600 0.84840 -0.12900
C 	C 	0.06750 0.79020 0.83440 0.36700
O 	O 	0.05520 0.75260 0.80770 -0.42500
O 	O 	0.11160 0.29900 0.34880 -0.36700
N 	N 	0.04300 0.37170 0.36890 -0.23600
C 	C 	0.02660 0.32600 0.34840 -0.13400
C 	C 	0.06750 0.29020 0.33440 0.36600
O 	O 	0.05520 0.25260 0.30770 -0.43000
O 	O 	0.38840 0.79900 0.65120 -0.35700
N 	N 	0.45700 0.87170 0.63110 -0.24500
C 	C 	0.47340 0.82600 0.65160 -0.07100
C 	C 	0.43250 0.79020 0.66560 0.34800
O 	O 	0.44480 0.75260 0.69230 -0.41000
O 	O 	0.38840 0.29900 0.15120 -0.36000
N 	N 	0.45700 0.37170 0.13110 -0.24900
C 	C 	0.47340 0.32600 0.15160 -0.07400
C 	C 	0.43250 0.29020 0.16560 0.34700
O 	O 	0.44480 0.25260 0.19230 -0.41500
O 	O 	0.88840 0.79900 0.15120 -0.35000
N 	N 	0.95700 0.87170 0.13110 -0.22800
C 	C 	0.97340 0.82600 0.15160 -0.00900
C 	C 	0.93250 0.79020 0.16560 0.32700
O 	O 	0.94480 0.75260 0.19230 -0.38800
O 	O 	0.88840 0.29900 0.65120 -0.34900
N 	N 	0.95700 0.37170 0.63110 -0.22900
C 	C 	0.97340 0.32600 0.65160 -0.00800
C 	C 	0.93250 0.29020 0.66560 0.32800
O 	O 	0.94480 0.25260 0.69230 -0.38800
O 	O 	0.61160 0.20100 0.65120 -0.35700
N 	N 	0.54300 0.12830 0.63110 -0.24900
C 	C 	0.52660 0.17400 0.65160 -0.07300
C 	C 	0.56750 0.20980 0.66560 0.34700
O 	O 	0.55520 0.24740 0.69230 -0.41000
O 	O 	0.61160 0.70100 0.15120 -0.35800
N 	N 	0.54300 0.62830 0.13110 -0.24900
C 	C 	0.52660 0.67400 0.15160 -0.07300
C 	C 	0.56750 0.70980 0.16560 0.34700
O 	O 	0.55520 0.74740 0.19230 -0.41000
O 	O 	0.11160 0.20100 0.15120 -0.36700
N 	N 	0.04300 0.12830 0.13110 -0.23800
C 	C 	0.02660 0.17400 0.15160 -0.13400
C 	C 	0.06750 0.20980 0.16560 0.36500
O 	O 	0.05520 0.24740 0.19230 -0.43000
O 	O 	0.11160 0.70100 0.65120 -0.36400
N 	N 	0.04300 0.62830 0.63110 -0.23600
C 	C 	0.02660 0.67400 0.65160 -0.13200
C 	C 	0.06750 0.70980 0.66560 0.36600
O 	O 	0.05520 0.74740 0.69230 -0.42500
O 	O 	0.38840 0.20100 0.34880 -0.35800
N 	N 	0.45700 0.12830 0.36890 -0.24900
C 	C 	0.47340 0.17400 0.34840 -0.07300
C 	C 	0.43250 0.20980 0.33440 0.34700
O 	O 	0.44480 0.24740 0.30770 -0.41100
O 	O 	0.38840 0.70100 0.84880 -0.35300
N 	N 	0.45700 0.62830 0.86890 -0.24600
C 	C 	0.47340 0.67400 0.84840 -0.06900
C 	C 	0.43250 0.70980 0.83440 0.34900
O 	O 	0.44480 0.74740 0.80770 -0.40500
O 	O 	0.88840 0.20100 0.84880 -0.34500
N 	N 	0.95700 0.12830 0.86890 -0.22800
C 	C 	0.97340 0.17400 0.84840 -0.00700
C 	C 	0.93250 0.20980 0.83440 0.32800
O 	O 	0.94480 0.24740 0.80770 -0.38400
O 	O 	0.88840 0.70100 0.34880 -0.34700
N 	N 	0.95700 0.62830 0.36890 -0.22900
C 	C 	0.97340 0.67400 0.34840 -0.00800
C 	C 	0.93250 0.70980 0.33440 0.32700
O 	O 	0.94480 0.74740 0.30770 -0.38400
O 	O 	0.65120 0.38840 0.20100 -0.35700
N 	N 	0.63110 0.45700 0.12830 -0.24900
C 	C 	0.65160 0.47340 0.17400 -0.07300
C 	C 	0.66560 0.43250 0.20980 0.34700
O 	O 	0.69230 0.44480 0.24740 -0.41000
O 	O 	0.65120 0.88840 0.70100 -0.34700
N 	N 	0.63110 0.95700 0.62830 -0.22900
C 	C 	0.65160 0.97340 0.67400 -0.00700
C 	C 	0.66560 0.93250 0.70980 0.32700
O 	O 	0.69230 0.94480 0.74740 -0.38400
O 	O 	0.15120 0.38840 0.70100 -0.35800
N 	N 	0.13110 0.45700 0.62830 -0.24900
C 	C 	0.15160 0.47340 0.67400 -0.07300
C 	C 	0.16560 0.43250 0.70980 0.34700
O 	O 	0.19230 0.44480 0.74740 -0.41000
O 	O 	0.15120 0.88840 0.20100 -0.35100
N 	N 	0.13110 0.95700 0.12830 -0.23100
C 	C 	0.15160 0.97340 0.17400 -0.01100
C 	C 	0.16560 0.93250 0.20980 0.32600
O 	O 	0.19230 0.94480 0.24740 -0.38900
O 	O 	0.34880 0.61160 0.20100 -0.35800
N 	N 	0.36890 0.54300 0.12830 -0.25000
C 	C 	0.34840 0.52660 0.17400 -0.07300
C 	C 	0.33440 0.56750 0.20980 0.34700
O 	O 	0.30770 0.55520 0.24740 -0.41100
O 	O 	0.34880 0.11160 0.70100 -0.36400
N 	N 	0.36890 0.04300 0.62830 -0.23600
C 	C 	0.34840 0.02660 0.67400 -0.13300
C 	C 	0.33440 0.06750 0.70980 0.36600
O 	O 	0.30770 0.05520 0.74740 -0.42600
O 	O 	0.84880 0.61160 0.70100 -0.35300
N 	N 	0.86890 0.54300 0.62830 -0.24600
C 	C 	0.84840 0.52660 0.67400 -0.06900
C 	C 	0.83440 0.56750 0.70980 0.34800
O 	O 	0.80770 0.55520 0.74740 -0.40500
O 	O 	0.84880 0.11160 0.20100 -0.36200
N 	N 	0.86890 0.04300 0.12830 -0.23500
C 	C 	0.84840 0.02660 0.17400 -0.13100
C 	C 	0.83440 0.06750 0.20980 0.36700
O 	O 	0.80770 0.05520 0.24740 -0.42500
O 	O 	0.34880 0.38840 0.79900 -0.35800
N 	N 	0.36890 0.45700 0.87170 -0.24600
C 	C 	0.34840 0.47340 0.82600 -0.07200
C 	C 	0.33440 0.43250 0.79020 0.34800
O 	O 	0.30770 0.44480 0.75260 -0.41000
O 	O 	0.34880 0.88840 0.29900 -0.35000
N 	N 	0.36890 0.95700 0.37170 -0.22900
C 	C 	0.34840 0.97340 0.32600 -0.00900
C 	C 	0.33440 0.93250 0.29020 0.32700
O 	O 	0.30770 0.94480 0.25260 -0.38800
O 	O 	0.84880 0.38840 0.29900 -0.35500
N 	N 	0.86890 0.45700 0.37170 -0.24600
C 	C 	0.84840 0.47340 0.32600 -0.07000
C 	C 	0.83440 0.43250 0.29020 0.34900
O 	O 	0.80770 0.44480 0.25260 -0.41000
O 	O 	0.84880 0.88840 0.79900 -0.34500
N 	N 	0.86890 0.95700 0.87170 -0.22500
C 	C 	0.84840 0.97340 0.82600 -0.00500
C 	C 	0.83440 0.93250 0.79020 0.32900
O 	O 	0.80770 0.94480 0.75260 -0.38300
O 	O 	0.65120 0.61160 0.79900 -0.35700
N 	N 	0.63110 0.54300 0.87170 -0.24500
C 	C 	0.65160 0.52660 0.82600 -0.07100
C 	C 	0.66560 0.56750 0.79020 0.34800
O 	O 	0.69230 0.55520 0.75260 -0.41000
O 	O 	0.65120 0.11160 0.29900 -0.36600
N 	N 	0.63110 0.04300 0.37170 -0.23600
C 	C 	0.65160 0.02660 0.32600 -0.13300
C 	C 	0.66560 0.06750 0.29020 0.36600
O 	O 	0.69230 0.05520 0.25260 -0.43000
O 	O 	0.15120 0.61160 0.29900 -0.36000
N 	N 	0.13110 0.54300 0.37170 -0.24900
C 	C 	0.15160 0.52660 0.32600 -0.07400
C 	C 	0.16560 0.56750 0.29020 0.34700
O 	O 	0.19230 0.55520 0.25260 -0.41400
O 	O 	0.15120 0.11160 0.79900 -0.36700
N 	N 	0.13110 0.04300 0.87170 -0.23400
C 	C 	0.15160 0.02660 0.82600 -0.13300
C 	C 	0.16560 0.06750 0.79020 0.36600
O 	O 	0.19230 0.05520 0.75260 -0.43000
O 	O 	0.20100 0.65120 0.38840 -0.35700
N 	N 	0.12830 0.63110 0.45700 -0.24900
C 	C 	0.17400 0.65160 0.47340 -0.07300
C 	C 	0.20980 0.66560 0.43250 0.34700
O 	O 	0.24740 0.69230 0.44480 -0.41000
O 	O 	0.20100 0.15120 0.88840 -0.35100
N 	N 	0.12830 0.13110 0.95700 -0.23100
C 	C 	0.17400 0.15160 0.97340 -0.01100
C 	C 	0.20980 0.16560 0.93250 0.32600
O 	O 	0.24740 0.19230 0.94480 -0.38900
O 	O 	0.70100 0.65120 0.88840 -0.34700
N 	N 	0.62830 0.63110 0.95700 -0.22900
C 	C 	0.67400 0.65160 0.97340 -0.00700
C 	C 	0.70980 0.66560 0.93250 0.32700
O 	O 	0.74740 0.69230 0.94480 -0.38400
O 	O 	0.70100 0.15120 0.38840 -0.35800
N 	N 	0.62830 0.13110 0.45700 -0.24900
C 	C 	0.67400 0.15160 0.47340 -0.07300
C 	C 	0.70980 0.16560 0.43250 0.34700
O 	O 	0.74740 0.19230 0.44480 -0.41000
O 	O 	0.20100 0.34880 0.61160 -0.35800
N 	N 	0.12830 0.36890 0.54300 -0.25000
C 	C 	0.17400 0.34840 0.52660 -0.07300
C 	C 	0.20980 0.33440 0.56750 0.34700
O 	O 	0.24740 0.30770 0.55520 -0.41100
O 	O 	0.20100 0.84880 0.11160 -0.36200
N 	N 	0.12830 0.86890 0.04300 -0.23500
C 	C 	0.17400 0.84840 0.02660 -0.13100
C 	C 	0.20980 0.83440 0.06750 0.36700
O 	O 	0.24740 0.80770 0.05520 -0.42500
O 	O 	0.70100 0.34880 0.11160 -0.36400
N 	N 	0.62830 0.36890 0.04300 -0.23600
C 	C 	0.67400 0.34840 0.02660 -0.13300
C 	C 	0.70980 0.33440 0.06750 0.36600
O 	O 	0.74740 0.30770 0.05520 -0.42600
O 	O 	0.70100 0.84880 0.61160 -0.35300
N 	N 	0.62830 0.86890 0.54300 -0.24600
C 	C 	0.67400 0.84840 0.52660 -0.06900
C 	C 	0.70980 0.83440 0.56750 0.34800
O 	O 	0.74740 0.80770 0.55520 -0.40500
O 	O 	0.79900 0.34880 0.38840 -0.35800
N 	N 	0.87170 0.36890 0.45700 -0.24600
C 	C 	0.82600 0.34840 0.47340 -0.07200
C 	C 	0.79020 0.33440 0.43250 0.34800
O 	O 	0.75260 0.30770 0.44480 -0.41000
O 	O 	0.79900 0.84880 0.88840 -0.34500
N 	N 	0.87170 0.86890 0.95700 -0.22500
C 	C 	0.82600 0.84840 0.97340 -0.00500
C 	C 	0.79020 0.83440 0.93250 0.32900
O 	O 	0.75260 0.80770 0.94480 -0.38300
O 	O 	0.29900 0.34880 0.88840 -0.35000
N 	N 	0.37170 0.36890 0.95700 -0.22900
C 	C 	0.32600 0.34840 0.97340 -0.00900
C 	C 	0.29020 0.33440 0.93250 0.32700
O 	O 	0.25260 0.30770 0.94480 -0.38800
O 	O 	0.29900 0.84880 0.38840 -0.35500
N 	N 	0.37170 0.86890 0.45700 -0.24600
C 	C 	0.32600 0.84840 0.47340 -0.07000
C 	C 	0.29020 0.83440 0.43250 0.34900
O 	O 	0.25260 0.80770 0.44480 -0.41000
O 	O 	0.79900 0.65120 0.61160 -0.35700
N 	N 	0.87170 0.63110 0.54300 -0.24500
C 	C 	0.82600 0.65160 0.52660 -0.07100
C 	C 	0.79020 0.66560 0.56750 0.34800
O 	O 	0.75260 0.69230 0.55520 -0.41000
O 	O 	0.79900 0.15120 0.11160 -0.36700
N 	N 	0.87170 0.13110 0.04300 -0.23400
C 	C 	0.82600 0.15160 0.02660 -0.13300
C 	C 	0.79020 0.16560 0.06750 0.36600
O 	O 	0.75260 0.19230 0.05520 -0.43000
O 	O 	0.29900 0.65120 0.11160 -0.36600
N 	N 	0.37170 0.63110 0.04300 -0.23600
C 	C 	0.32600 0.65160 0.02660 -0.13300
C 	C 	0.29020 0.66560 0.06750 0.36600
O 	O 	0.25260 0.69230 0.05520 -0.43000
O 	O 	0.29900 0.15120 0.61160 -0.36000
N 	N 	0.37170 0.13110 0.54300 -0.24900
C 	C 	0.32600 0.15160 0.52660 -0.07400
C 	C 	0.29020 0.16560 0.56750 0.34700
O 	O 	0.25260 0.19230 0.55520 -0.41400
O 	O 	0.38840 0.20100 0.65120 -0.35700
N 	N 	0.45700 0.12830 0.63110 -0.24900
C 	C 	0.47340 0.17400 0.65160 -0.07300
C 	C 	0.43250 0.20980 0.66560 0.34700
O 	O 	0.44480 0.24740 0.69230 -0.41000
O 	O 	0.38840 0.70100 0.15120 -0.35800
N 	N 	0.45700 0.62830 0.13110 -0.24900
C 	C 	0.47340 0.67400 0.15160 -0.07300
C 	C 	0.43250 0.70980 0.16560 0.34700
O 	O 	0.44480 0.74740 0.19230 -0.41000
O 	O 	0.88840 0.20100 0.15120 -0.35100
N 	N 	0.95700 0.12830 0.13110 -0.23100
C 	C 	0.97340 0.17400 0.15160 -0.01100
C 	C 	0.93250 0.20980 0.16560 0.32600
O 	O 	0.94480 0.24740 0.19230 -0.38900
O 	O 	0.88840 0.70100 0.65120 -0.34700
N 	N 	0.95700 0.62830 0.63110 -0.22900
C 	C 	0.97340 0.67400 0.65160 -0.00700
C 	C 	0.93250 0.70980 0.66560 0.32700
O 	O 	0.94480 0.74740 0.69230 -0.38400
O 	O 	0.61160 0.20100 0.34880 -0.35800
N 	N 	0.54300 0.12830 0.36890 -0.25000
C 	C 	0.52660 0.17400 0.34840 -0.07300
C 	C 	0.56750 0.20980 0.33440 0.34700
O 	O 	0.55520 0.24740 0.30770 -0.41100
O 	O 	0.61160 0.70100 0.84880 -0.35300
N 	N 	0.54300 0.62830 0.86890 -0.24600
C 	C 	0.52660 0.67400 0.84840 -0.06900
C 	C 	0.56750 0.70980 0.83440 0.34800
O 	O 	0.55520 0.74740 0.80770 -0.40500
O 	O 	0.11160 0.20100 0.84880 -0.36200
N 	N 	0.04300 0.12830 0.86890 -0.23500
C 	C 	0.02660 0.17400 0.84840 -0.13100
C 	C 	0.06750 0.20980 0.83440 0.36700
O 	O 	0.05520 0.24740 0.80770 -0.42500
O 	O 	0.11160 0.70100 0.34880 -0.36400
N 	N 	0.04300 0.62830 0.36890 -0.23600
C 	C 	0.02660 0.67400 0.34840 -0.13300
C 	C 	0.06750 0.70980 0.33440 0.36600
O 	O 	0.05520 0.74740 0.30770 -0.42600
O 	O 	0.38840 0.79900 0.34880 -0.35800
N 	N 	0.45700 0.87170 0.36890 -0.24600
C 	C 	0.47340 0.82600 0.34840 -0.07200
C 	C 	0.43250 0.79020 0.33440 0.34800
O 	O 	0.44480 0.75260 0.30770 -0.41000
O 	O 	0.38840 0.29900 0.84880 -0.35500
N 	N 	0.45700 0.37170 0.86890 -0.24600
C 	C 	0.47340 0.32600 0.84840 -0.07000
C 	C 	0.43250 0.29020 0.83440 0.34900
O 	O 	0.44480 0.25260 0.80770 -0.41000
O 	O 	0.88840 0.79900 0.84880 -0.34500
N 	N 	0.95700 0.87170 0.86890 -0.22500
C 	C 	0.97340 0.82600 0.84840 -0.00500
C 	C 	0.93250 0.79020 0.83440 0.32900
O 	O 	0.94480 0.75260 0.80770 -0.38300
O 	O 	0.88840 0.29900 0.34880 -0.35000
N 	N 	0.95700 0.37170 0.36890 -0.22900
C 	C 	0.97340 0.32600 0.34840 -0.00900
C 	C 	0.93250 0.29020 0.33440 0.32700
O 	O 	0.94480 0.25260 0.30770 -0.38800
O 	O 	0.61160 0.79900 0.65120 -0.35700
N 	N 	0.54300 0.87170 0.63110 -0.24500
C 	C 	0.52660 0.82600 0.65160 -0.07100
C 	C 	0.56750 0.79020 0.66560 0.34800
O 	O 	0.55520 0.75260 0.69230 -0.41000
O 	O 	0.61160 0.29900 0.15120 -0.36000
N 	N 	0.54300 0.37170 0.13110 -0.24900
C 	C 	0.52660 0.32600 0.15160 -0.07400
C 	C 	0.56750 0.29020 0.16560 0.34700
O 	O 	0.55520 0.25260 0.19230 -0.41400
O 	O 	0.11160 0.79900 0.15120 -0.36700
N 	N 	0.04300 0.87170 0.13110 -0.23400
C 	C 	0.02660 0.82600 0.15160 -0.13300
C 	C 	0.06750 0.79020 0.16560 0.36600
O 	O 	0.05520 0.75260 0.19230 -0.43000
O 	O 	0.11160 0.29900 0.65120 -0.36600
N 	N 	0.04300 0.37170 0.63110 -0.23600
C 	C 	0.02660 0.32600 0.65160 -0.13300
C 	C 	0.06750 0.29020 0.66560 0.36600
O 	O 	0.05520 0.25260 0.69230 -0.43000
Zn	Zn	0.37885 0.62115 0.87885 1.20500
Zn	Zn	0.62115 0.37885 0.87885 1.20500
Zn	Zn	0.62115 0.62115 0.12115 1.20400
Zn	Zn	0.37885 0.37885 0.12115 1.20400
Zn	Zn	0.87885 0.37885 0.62115 1.20500
Zn	Zn	0.87885 0.87885 0.12115 1.20600
Zn	Zn	0.87885 0.62115 0.37885 1.20500
Zn	Zn	0.87885 0.12115 0.87885 1.20600
Zn	Zn	0.12115 0.62115 0.62115 1.20400
Zn	Zn	0.12115 0.12115 0.12115 1.20300
Zn	Zn	0.12115 0.37885 0.37885 1.20400
Zn	Zn	0.12115 0.87885 0.87885 1.20600
Zn	Zn	0.62115 0.87885 0.37885 1.20500
Zn	Zn	0.37885 0.87885 0.62115 1.20500
Zn	Zn	0.62115 0.12115 0.62115 1.20400
Zn	Zn	0.37885 0.12115 0.37885 1.20400
Zn	Zn	0.62115 0.37885 0.12115 1.20400
Zn	Zn	0.37885 0.62115 0.12115 1.20400
Zn	Zn	0.37885 0.37885 0.87885 1.20500
Zn	Zn	0.62115 0.62115 0.87885 1.20500
Zn	Zn	0.12115 0.62115 0.37885 1.20400
Zn	Zn	0.12115 0.12115 0.87885 1.20400
Zn	Zn	0.12115 0.37885 0.62115 1.20400
Zn	Zn	0.12115 0.87885 0.12115 1.20400
Zn	Zn	0.87885 0.37885 0.37885 1.20500
Zn	Zn	0.87885 0.87885 0.87885 1.20700
Zn	Zn	0.87885 0.62115 0.62115 1.20500
Zn	Zn	0.87885 0.12115 0.12115 1.20400
Zn	Zn	0.37885 0.12115 0.62115 1.20400
Zn	Zn	0.62115 0.12115 0.37885 1.20400
Zn	Zn	0.37885 0.87885 0.37885 1.20500
Zn	Zn	0.62115 0.87885 0.62115 1.20500
Zn	Zn	0.25000 0.50000 0.75000 1.20800
Zn	Zn	0.25000 0.00000 0.25000 1.19400
Zn	Zn	0.75000 0.50000 0.75000 1.20900
Zn	Zn	0.75000 0.00000 0.25000 1.19400
Zn	Zn	0.75000 0.50000 0.25000 1.20800
Zn	Zn	0.75000 0.00000 0.75000 1.19500
Zn	Zn	0.25000 0.50000 0.25000 1.20700
Zn	Zn	0.25000 0.00000 0.75000 1.19400
Zn	Zn	0.75000 0.25000 0.50000 1.20800
Zn	Zn	0.75000 0.75000 -0.00000 1.19500
Zn	Zn	0.75000 0.75000 0.50000 1.20900
Zn	Zn	0.75000 0.25000 -0.00000 1.19400
Zn	Zn	0.25000 0.75000 0.50000 1.20800
Zn	Zn	0.25000 0.25000 -0.00000 1.19400
Zn	Zn	0.25000 0.25000 0.50000 1.20700
Zn	Zn	0.25000 0.75000 -0.00000 1.19400
Zn	Zn	0.50000 0.75000 0.25000 1.20800
Zn	Zn	0.00000 0.75000 0.75000 1.19500
Zn	Zn	0.50000 0.75000 0.75000 1.20900
Zn	Zn	0.00000 0.75000 0.25000 1.19400
Zn	Zn	0.50000 0.25000 0.75000 1.20800
Zn	Zn	0.00000 0.25000 0.25000 1.19400
Zn	Zn	0.50000 0.25000 0.25000 1.20700
Zn	Zn	0.00000 0.25000 0.75000 1.19400
C 	C 	0.37900 0.50000 0.89770 0.11700
H 	H 	0.39220 0.50000 0.93190 -0.02900
C 	C 	0.37900 0.00000 0.39770 0.06400
H 	H 	0.39220 0.00000 0.43190 -0.03800
C 	C 	0.87900 0.50000 0.39770 0.12000
H 	H 	0.89220 0.50000 0.43190 -0.03600
C 	C 	0.87900 0.00000 0.89770 0.07100
H 	H 	0.89220 0.00000 0.93190 -0.02100
C 	C 	0.62100 0.50000 0.89770 0.11800
H 	H 	0.60780 0.50000 0.93190 -0.02900
C 	C 	0.62100 0.00000 0.39770 0.06500
H 	H 	0.60780 0.00000 0.43190 -0.03800
C 	C 	0.12100 0.50000 0.39770 0.11400
H 	H 	0.10780 0.50000 0.43190 -0.04300
C 	C 	0.12100 0.00000 0.89770 0.06500
H 	H 	0.10780 0.00000 0.93190 -0.02800
C 	C 	0.62100 0.50000 0.10230 0.11500
H 	H 	0.60780 0.50000 0.06810 -0.04700
C 	C 	0.62100 0.00000 0.60230 0.06500
H 	H 	0.60780 0.00000 0.56810 -0.03800
C 	C 	0.12100 0.50000 0.60230 0.11400
H 	H 	0.10780 0.50000 0.56810 -0.04300
C 	C 	0.12100 0.00000 0.10230 0.06300
H 	H 	0.10780 0.00000 0.06810 -0.04600
C 	C 	0.37900 0.50000 0.10230 0.11400
H 	H 	0.39220 0.50000 0.06810 -0.04700
C 	C 	0.37900 0.00000 0.60230 0.06400
H 	H 	0.39220 0.00000 0.56810 -0.03800
C 	C 	0.87900 0.50000 0.60230 0.12100
H 	H 	0.89220 0.50000 0.56810 -0.03600
C 	C 	0.87900 0.00000 0.10230 0.06900
H 	H 	0.89220 0.00000 0.06810 -0.03900
C 	C 	0.89770 0.37900 0.50000 0.11700
H 	H 	0.93190 0.39220 0.50000 -0.02900
C 	C 	0.89770 0.87900 -0.00000 0.07100
H 	H 	0.93190 0.89220 -0.00000 -0.02100
C 	C 	0.39770 0.37900 -0.00000 0.06400
H 	H 	0.43190 0.39220 -0.00000 -0.03800
C 	C 	0.39770 0.87900 0.50000 0.12000
H 	H 	0.43190 0.89220 0.50000 -0.03600
C 	C 	0.89770 0.62100 0.50000 0.11800
H 	H 	0.93190 0.60780 0.50000 -0.02900
C 	C 	0.89770 0.12100 -0.00000 0.06500
H 	H 	0.93190 0.10780 -0.00000 -0.02800
C 	C 	0.39770 0.62100 -0.00000 0.06500
H 	H 	0.43190 0.60780 -0.00000 -0.03800
C 	C 	0.39770 0.12100 0.50000 0.11400
H 	H 	0.43190 0.10780 0.50000 -0.04300
C 	C 	0.10230 0.62100 0.50000 0.11500
H 	H 	0.06810 0.60780 0.50000 -0.04700
C 	C 	0.10230 0.12100 -0.00000 0.06300
H 	H 	0.06810 0.10780 -0.00000 -0.04600
C 	C 	0.60230 0.62100 -0.00000 0.06500
H 	H 	0.56810 0.60780 -0.00000 -0.03800
C 	C 	0.60230 0.12100 0.50000 0.11400
H 	H 	0.56810 0.10780 0.50000 -0.04300
C 	C 	0.10230 0.37900 0.50000 0.11400
H 	H 	0.06810 0.39220 0.50000 -0.04700
C 	C 	0.10230 0.87900 -0.00000 0.06900
H 	H 	0.06810 0.89220 -0.00000 -0.03900
C 	C 	0.60230 0.37900 -0.00000 0.06400
H 	H 	0.56810 0.39220 -0.00000 -0.03800
C 	C 	0.60230 0.87900 0.50000 0.12100
H 	H 	0.56810 0.89220 0.50000 -0.03600
C 	C 	0.50000 0.89770 0.37900 0.11700
H 	H 	0.50000 0.93190 0.39220 -0.02900
C 	C 	0.50000 0.39770 0.87900 0.12000
H 	H 	0.50000 0.43190 0.89220 -0.03600
C 	C 	-0.00000 0.89770 0.87900 0.07100
H 	H 	-0.00000 0.93190 0.89220 -0.02100
C 	C 	0.00000 0.39770 0.37900 0.06400
H 	H 	0.00000 0.43190 0.39220 -0.03800
C 	C 	0.50000 0.89770 0.62100 0.11800
H 	H 	0.50000 0.93190 0.60780 -0.02900
C 	C 	0.50000 0.39770 0.12100 0.11400
H 	H 	0.50000 0.43190 0.10780 -0.04300
C 	C 	0.00000 0.89770 0.12100 0.06500
H 	H 	-0.00000 0.93190 0.10780 -0.02800
C 	C 	-0.00000 0.39770 0.62100 0.06500
H 	H 	-0.00000 0.43190 0.60780 -0.03800
C 	C 	0.50000 0.10230 0.62100 0.11500
H 	H 	0.50000 0.06810 0.60780 -0.04700
C 	C 	0.50000 0.60230 0.12100 0.11400
H 	H 	0.50000 0.56810 0.10780 -0.04300
C 	C 	-0.00000 0.10230 0.12100 0.06300
H 	H 	0.00000 0.06810 0.10780 -0.04600
C 	C 	-0.00000 0.60230 0.62100 0.06500
H 	H 	-0.00000 0.56810 0.60780 -0.03800
C 	C 	0.50000 0.10230 0.37900 0.11400
H 	H 	0.50000 0.06810 0.39220 -0.04700
C 	C 	0.50000 0.60230 0.87900 0.12100
H 	H 	0.50000 0.56810 0.89220 -0.03600
C 	C 	-0.00000 0.10230 0.87900 0.06900
H 	H 	0.00000 0.06810 0.89220 -0.03900
C 	C 	-0.00000 0.60230 0.37900 0.06400
H 	H 	-0.00000 0.56810 0.39220 -0.03800
